data_crystal

_cell_length_a 8.30280
_cell_length_b 9.46300
_cell_length_c 20.63980
_cell_angle_alpha 90.00000
_cell_angle_beta  90.00000
_cell_angle_gamma 109.86700

_symmetry_space_group_name_	'P 1'
_symmetry_space_group_name_H-M	'P 1'

loop_
_symmetry_equiv_pos_as_xyz
  x,y,z

loop_
_atom_site_label
_atom_site_type_symbol
_atom_site_fract_x
_atom_site_fract_y
_atom_site_fract_z
_atom_site_charge
La	La	0.37685 0.39893 0.64839 1.62000
La	La	0.62315 0.10107 0.14839 1.61300
La	La	0.62315 0.60107 0.35161 1.62000
La	La	0.37685 0.89893 0.85161 1.61300
Cu	Cu	0.03685 0.94895 0.70321 0.91000
Cu	Cu	0.96315 0.55105 0.20321 0.91500
Cu	Cu	0.96315 0.05105 0.29679 0.91000
Cu	Cu	0.03685 0.44895 0.79679 0.91500
P 	P 	0.20913 0.69441 0.69982 0.42700
P 	P 	0.79087 0.80559 0.19982 0.42700
P 	P 	0.79087 0.30559 0.30018 0.42700
P 	P 	0.20913 0.19441 0.80018 0.42700
H 	H 	0.77930 0.73920 0.59300 0.12100
H 	H 	0.86720 0.61420 0.60350 0.14200
H 	H 	0.10620 0.90110 0.53020 0.13400
H 	H 	0.94510 0.94430 0.55420 0.12600
H 	H 	0.14300 0.68040 0.59040 0.11000
H 	H 	0.27710 0.84250 0.60740 0.10500
H 	H 	0.22070 0.76080 0.09300 0.12200
H 	H 	0.13280 0.88580 0.10350 0.14200
H 	H 	0.89380 0.59890 0.03020 0.13100
H 	H 	0.05490 0.55570 0.05420 0.11900
H 	H 	0.85700 0.81960 0.09040 0.11100
H 	H 	0.72290 0.65750 0.10740 0.10500
H 	H 	0.22070 0.26080 0.40700 0.12100
H 	H 	0.13280 0.38580 0.39650 0.14200
H 	H 	0.89380 0.09890 0.46980 0.13400
H 	H 	0.05490 0.05570 0.44580 0.12600
H 	H 	0.85700 0.31960 0.40960 0.11000
H 	H 	0.72290 0.15750 0.39260 0.10500
H 	H 	0.77930 0.23920 0.90700 0.12200
H 	H 	0.86720 0.11420 0.89650 0.14200
H 	H 	0.10620 0.40110 0.96980 0.13100
H 	H 	0.94510 0.44430 0.94580 0.11900
H 	H 	0.14300 0.18040 0.90960 0.11100
H 	H 	0.27710 0.34250 0.89260 0.10500
C 	C 	0.78080 0.67750 0.68952 0.40400
C 	C 	0.85700 0.70780 0.62146 -0.33000
C 	C 	0.05600 0.93630 0.56777 -0.34000
C 	C 	0.17650 0.08930 0.59003 0.36800
C 	C 	0.17060 0.76370 0.62177 -0.24900
C 	C 	0.56920 0.46190 0.50243 0.23300
C 	C 	0.21920 0.82250 0.18952 0.40400
C 	C 	0.14300 0.79220 0.12146 -0.33400
C 	C 	0.94400 0.56370 0.06777 -0.32300
C 	C 	0.82350 0.41070 0.09003 0.35800
C 	C 	0.82940 0.73630 0.12177 -0.24800
C 	C 	0.43080 0.03810 0.00243 0.22800
C 	C 	0.21920 0.32250 0.31048 0.40400
C 	C 	0.14300 0.29220 0.37854 -0.33000
C 	C 	0.94400 0.06370 0.43223 -0.34000
C 	C 	0.82350 0.91070 0.40997 0.36800
C 	C 	0.82940 0.23630 0.37823 -0.24900
C 	C 	0.43080 0.53810 0.49757 0.23300
C 	C 	0.78080 0.17750 0.81048 0.40400
C 	C 	0.85700 0.20780 0.87854 -0.33400
C 	C 	0.05600 0.43630 0.93223 -0.32300
C 	C 	0.17650 0.58930 0.90997 0.35800
C 	C 	0.17060 0.26370 0.87823 -0.24800
C 	C 	0.56920 0.96190 0.99757 0.22800
N 	N 	0.02870 0.82730 0.62213 -0.08700
N 	N 	0.97130 0.67270 0.12213 -0.08600
N 	N 	0.97130 0.17270 0.37787 -0.08700
N 	N 	0.02870 0.32730 0.87787 -0.08600
O 	O 	0.84250 0.77830 0.73291 -0.40700
O 	O 	0.65840 0.55890 0.69929 -0.41100
O 	O 	0.19930 0.10880 0.65176 -0.51300
O 	O 	0.24480 0.19080 0.55110 -0.38500
O 	O 	0.35670 0.63630 0.69051 -0.40300
O 	O 	0.04350 0.56490 0.71906 -0.39700
O 	O 	0.24840 0.83030 0.74420 -0.45200
O 	O 	0.59130 0.41230 0.55738 -0.36000
O 	O 	0.64990 0.45670 0.45198 -0.37000
O 	O 	0.15750 0.72170 0.23291 -0.40800
O 	O 	0.34160 0.94110 0.19929 -0.40800
O 	O 	0.80070 0.39120 0.15176 -0.51400
O 	O 	0.75520 0.30920 0.05110 -0.38500
O 	O 	0.64330 0.86370 0.19051 -0.40000
O 	O 	0.95650 0.93510 0.21906 -0.39100
O 	O 	0.75160 0.66970 0.24420 -0.45000
O 	O 	0.40870 0.08770 0.05738 -0.36000
O 	O 	0.35010 0.04330 0.95198 -0.36400
O 	O 	0.15750 0.22170 0.26709 -0.40700
O 	O 	0.34160 0.44110 0.30071 -0.41100
O 	O 	0.80070 0.89120 0.34824 -0.51300
O 	O 	0.75520 0.80920 0.44890 -0.38500
O 	O 	0.64330 0.36370 0.30949 -0.40300
O 	O 	0.95650 0.43510 0.28094 -0.39700
O 	O 	0.75160 0.16970 0.25580 -0.45200
O 	O 	0.40870 0.58770 0.44262 -0.36000
O 	O 	0.35010 0.54330 0.54802 -0.37000
O 	O 	0.84250 0.27830 0.76709 -0.40800
O 	O 	0.65840 0.05890 0.80071 -0.40800
O 	O 	0.19930 0.60880 0.84824 -0.51400
O 	O 	0.24480 0.69080 0.94890 -0.38500
O 	O 	0.35670 0.13630 0.80949 -0.40000
O 	O 	0.04350 0.06490 0.78094 -0.39100
O 	O 	0.24840 0.33030 0.75580 -0.45000
O 	O 	0.59130 0.91230 0.94262 -0.36000
O 	O 	0.64990 0.95670 0.04802 -0.36400
