data_crystal

_cell_length_a 8.23680
_cell_length_b 9.40630
_cell_length_c 20.36600
_cell_angle_alpha 90.00000
_cell_angle_beta  90.00000
_cell_angle_gamma 110.28600

_symmetry_space_group_name_	'P 1'
_symmetry_space_group_name_H-M	'P 1'

loop_
_symmetry_equiv_pos_as_xyz
  x,y,z

loop_
_atom_site_label
_atom_site_type_symbol
_atom_site_fract_x
_atom_site_fract_y
_atom_site_fract_z
_atom_site_charge
Nd	Nd	0.38068 0.40280 0.64808 2.08000
Nd	Nd	0.61932 0.09720 0.14808 2.06100
Nd	Nd	0.61932 0.59720 0.35192 2.08100
Nd	Nd	0.38068 0.90280 0.85192 2.06200
Cu	Cu	0.03966 0.95409 0.70291 0.90600
Cu	Cu	0.96034 0.54591 0.20291 0.91100
Cu	Cu	0.96034 0.04591 0.29709 0.90600
Cu	Cu	0.03966 0.45409 0.79709 0.91100
P 	P 	0.21773 0.69964 0.69938 0.47700
P 	P 	0.78227 0.80036 0.19938 0.47700
P 	P 	0.78227 0.30036 0.30062 0.47700
P 	P 	0.21773 0.19964 0.80062 0.47700
H 	H 	0.78270 0.73820 0.59140 0.11400
H 	H 	0.87350 0.61500 0.60370 0.13500
H 	H 	0.11070 0.90510 0.52870 0.12600
H 	H 	0.94740 0.94670 0.55320 0.11900
H 	H 	0.15220 0.68840 0.58950 0.10800
H 	H 	0.28640 0.85040 0.60660 0.10200
H 	H 	0.21730 0.76180 0.09140 0.11600
H 	H 	0.12650 0.88500 0.10370 0.13600
H 	H 	0.88930 0.59490 0.02870 0.12200
H 	H 	0.05260 0.55330 0.05320 0.11100
H 	H 	0.84780 0.81160 0.08950 0.10900
H 	H 	0.71360 0.64960 0.10660 0.10300
H 	H 	0.21730 0.26180 0.40860 0.11400
H 	H 	0.12650 0.38500 0.39630 0.13500
H 	H 	0.88930 0.09490 0.47130 0.12600
H 	H 	0.05260 0.05330 0.44680 0.11900
H 	H 	0.84780 0.31160 0.41050 0.10800
H 	H 	0.71360 0.14960 0.39340 0.10200
H 	H 	0.78270 0.23820 0.90860 0.11600
H 	H 	0.87350 0.11500 0.89630 0.13600
H 	H 	0.11070 0.40510 0.97130 0.12200
H 	H 	0.94740 0.44670 0.94680 0.11100
H 	H 	0.15220 0.18840 0.91050 0.10900
H 	H 	0.28640 0.35040 0.89340 0.10300
C 	C 	0.78260 0.67960 0.68958 0.43900
C 	C 	0.86130 0.70910 0.62100 -0.33300
C 	C 	0.06000 0.94040 0.56678 -0.33400
C 	C 	0.18090 0.09570 0.58864 0.37700
C 	C 	0.17990 0.77160 0.62087 -0.25900
C 	C 	0.56960 0.46200 0.50264 0.26800
C 	C 	0.21740 0.82040 0.18958 0.43800
C 	C 	0.13870 0.79090 0.12100 -0.33800
C 	C 	0.94000 0.55960 0.06678 -0.31600
C 	C 	0.81910 0.40430 0.08864 0.36600
C 	C 	0.82010 0.72840 0.12087 -0.25800
C 	C 	0.43040 0.03800 0.00264 0.26200
C 	C 	0.21740 0.32040 0.31042 0.43900
C 	C 	0.13870 0.29090 0.37900 -0.33300
C 	C 	0.94000 0.05960 0.43322 -0.33400
C 	C 	0.81910 0.90430 0.41136 0.37700
C 	C 	0.82010 0.22840 0.37913 -0.25900
C 	C 	0.43040 0.53800 0.49736 0.26800
C 	C 	0.78260 0.17960 0.81042 0.43800
C 	C 	0.86130 0.20910 0.87900 -0.33800
C 	C 	0.06000 0.44040 0.93322 -0.31600
C 	C 	0.18090 0.59570 0.91136 0.36600
C 	C 	0.17990 0.27160 0.87913 -0.25800
C 	C 	0.56960 0.96200 0.99736 0.26200
N 	N 	0.03410 0.83210 0.62175 -0.09200
N 	N 	0.96590 0.66790 0.12175 -0.09100
N 	N 	0.96590 0.16790 0.37825 -0.09200
N 	N 	0.03410 0.33210 0.87825 -0.09100
O 	O 	0.84400 0.78120 0.73333 -0.43000
O 	O 	0.65830 0.55900 0.69970 -0.48700
O 	O 	0.20400 0.11680 0.65119 -0.57200
O 	O 	0.24850 0.19830 0.54930 -0.42700
O 	O 	0.36280 0.63810 0.68955 -0.48300
O 	O 	0.04780 0.57080 0.71860 -0.41700
O 	O 	0.26100 0.83540 0.74497 -0.53500
O 	O 	0.59360 0.41460 0.55853 -0.43600
O 	O 	0.64820 0.45500 0.45095 -0.44800
O 	O 	0.15600 0.71880 0.23333 -0.43100
O 	O 	0.34170 0.94100 0.19970 -0.48300
O 	O 	0.79600 0.38320 0.15119 -0.57200
O 	O 	0.75150 0.30170 0.04930 -0.42600
O 	O 	0.63720 0.86190 0.18955 -0.47800
O 	O 	0.95220 0.92920 0.21860 -0.41100
O 	O 	0.73900 0.66460 0.24497 -0.53400
O 	O 	0.40640 0.08540 0.05853 -0.43400
O 	O 	0.35180 0.04500 0.95095 -0.43900
O 	O 	0.15600 0.21880 0.26667 -0.43000
O 	O 	0.34170 0.44100 0.30030 -0.48700
O 	O 	0.79600 0.88320 0.34881 -0.57200
O 	O 	0.75150 0.80170 0.45070 -0.42700
O 	O 	0.63720 0.36190 0.31045 -0.48300
O 	O 	0.95220 0.42920 0.28140 -0.41700
O 	O 	0.73900 0.16460 0.25503 -0.53500
O 	O 	0.40640 0.58540 0.44147 -0.43600
O 	O 	0.35180 0.54500 0.54905 -0.44800
O 	O 	0.84400 0.28120 0.76667 -0.43100
O 	O 	0.65830 0.05900 0.80030 -0.48300
O 	O 	0.20400 0.61680 0.84881 -0.57200
O 	O 	0.24850 0.69830 0.95070 -0.42600
O 	O 	0.36280 0.13810 0.81045 -0.47800
O 	O 	0.04780 0.07080 0.78140 -0.41100
O 	O 	0.26100 0.33540 0.75503 -0.53400
O 	O 	0.59360 0.91460 0.94147 -0.43400
O 	O 	0.64820 0.95500 0.04905 -0.43900
