data_crystal

_cell_length_a 9.67550
_cell_length_b 12.26400
_cell_length_c 28.89900
_cell_angle_alpha 90.00000
_cell_angle_beta  90.00000
_cell_angle_gamma 90.00000

_symmetry_space_group_name_	'P 1'
_symmetry_space_group_name_H-M	'P 1'

loop_
_symmetry_equiv_pos_as_xyz
  x,y,z

loop_
_atom_site_label
_atom_site_type_symbol
_atom_site_fract_x
_atom_site_fract_y
_atom_site_fract_z
_atom_site_charge
Cd	Cd	0.50061 0.84551 0.02635 1.22600
Cd	Cd	0.50061 0.15449 0.97365 1.22600
Cd	Cd	0.00061 0.84551 0.47365 1.21600
Cd	Cd	0.00061 0.15449 0.52635 1.21600
H 	H 	0.73770 0.51820 0.08960 -0.00600
H 	H 	0.79440 0.39450 0.14740 0.13300
H 	H 	0.57840 0.56910 0.23930 0.13300
H 	H 	0.52030 0.69040 0.18210 -0.00800
H 	H 	0.72760 0.47360 0.29000 0.04500
H 	H 	0.58890 0.41010 0.28020 0.04300
H 	H 	0.70080 0.04870 0.32010 0.04500
H 	H 	0.90370 0.07070 0.36170 0.09700
H 	H 	0.00830 0.23730 0.36610 -0.02600
H 	H 	0.90470 0.38810 0.33240 0.09900
H 	H 	0.58040 0.18320 0.23790 0.05100
H 	H 	0.49460 0.25110 0.27370 0.03800
H 	H 	0.46080 0.23610 0.35030 0.13400
H 	H 	0.30190 0.95430 0.30440 0.14000
H 	H 	0.32580 0.22250 0.41620 -0.01400
H 	H 	0.16010 0.94570 0.36880 -0.02500
H 	H 	0.53510 0.63190 0.95620 0.02300
H 	H 	0.40840 0.49650 0.92090 0.04600
H 	H 	0.17100 0.49310 0.92950 0.06700
H 	H 	0.95750 0.57960 0.96340 0.13400
H 	H 	0.86000 0.71060 0.00620 0.00300
H 	H 	0.88760 0.88420 0.05330 -0.01600
H 	H 	0.02740 0.01790 0.08300 0.10600
H 	H 	0.26440 0.00650 0.07070 -0.01800
H 	H 	0.73770 0.48180 0.91040 -0.00600
H 	H 	0.79440 0.60550 0.85260 0.13300
H 	H 	0.57840 0.43090 0.76070 0.13300
H 	H 	0.52030 0.30960 0.81790 -0.00800
H 	H 	0.72760 0.52640 0.71000 0.04500
H 	H 	0.58890 0.58990 0.71980 0.04300
H 	H 	0.70080 0.95130 0.67990 0.04500
H 	H 	0.90370 0.92930 0.63830 0.09700
H 	H 	0.00830 0.76270 0.63390 -0.02600
H 	H 	0.90470 0.61190 0.66760 0.09900
H 	H 	0.58040 0.81680 0.76210 0.05100
H 	H 	0.49460 0.74890 0.72630 0.03800
H 	H 	0.46080 0.76390 0.64970 0.13400
H 	H 	0.30190 0.04570 0.69560 0.14000
H 	H 	0.32580 0.77750 0.58380 -0.01400
H 	H 	0.16010 0.05430 0.63120 -0.02500
H 	H 	0.53510 0.36810 0.04380 0.02300
H 	H 	0.40840 0.50350 0.07910 0.04600
H 	H 	0.17100 0.50690 0.07050 0.06700
H 	H 	0.95750 0.42040 0.03660 0.13400
H 	H 	0.86000 0.28940 0.99380 0.00300
H 	H 	0.88760 0.11580 0.94670 -0.01600
H 	H 	0.02740 0.98210 0.91700 0.10600
H 	H 	0.26440 0.99350 0.92930 -0.01800
H 	H 	0.23770 0.51820 0.41040 -0.00300
H 	H 	0.29440 0.39450 0.35260 0.13000
H 	H 	0.07840 0.56910 0.26070 0.12700
H 	H 	0.02030 0.69040 0.31790 -0.01200
H 	H 	0.22760 0.47360 0.21000 0.02700
H 	H 	0.08890 0.41010 0.21980 0.01900
H 	H 	0.20080 0.04870 0.17990 0.07400
H 	H 	0.40370 0.07070 0.13830 0.04400
H 	H 	0.50830 0.23730 0.13390 0.05300
H 	H 	0.40470 0.38810 0.16760 0.05100
H 	H 	0.08040 0.18320 0.26210 0.08000
H 	H 	0.99460 0.25110 0.22630 0.09400
H 	H 	0.96080 0.23610 0.14970 0.13500
H 	H 	0.80190 0.95430 0.19560 0.13900
H 	H 	0.82580 0.22250 0.08380 -0.00800
H 	H 	0.66010 0.94570 0.13120 -0.01500
H 	H 	0.03510 0.63190 0.54380 -0.03500
H 	H 	0.90840 0.49650 0.57910 0.09100
H 	H 	0.67100 0.49310 0.57050 0.03400
H 	H 	0.45750 0.57960 0.53660 0.04600
H 	H 	0.36000 0.71060 0.49380 0.07800
H 	H 	0.38760 0.88420 0.44670 0.04400
H 	H 	0.52740 0.01790 0.41700 0.06500
H 	H 	0.76440 0.00650 0.42930 0.01000
H 	H 	0.23770 0.48180 0.58960 -0.00300
H 	H 	0.29440 0.60550 0.64740 0.13000
H 	H 	0.07840 0.43090 0.73930 0.12700
H 	H 	0.02030 0.30960 0.68210 -0.01200
H 	H 	0.22760 0.52640 0.79000 0.02700
H 	H 	0.08890 0.58990 0.78020 0.01900
H 	H 	0.20080 0.95130 0.82010 0.07400
H 	H 	0.40370 0.92930 0.86170 0.04400
H 	H 	0.50830 0.76270 0.86610 0.05300
H 	H 	0.40470 0.61190 0.83240 0.05100
H 	H 	0.08040 0.81680 0.73790 0.08000
H 	H 	0.99460 0.74890 0.77370 0.09400
H 	H 	0.96080 0.76390 0.85030 0.13500
H 	H 	0.80190 0.04570 0.80440 0.13900
H 	H 	0.82580 0.77750 0.91620 -0.00800
H 	H 	0.66010 0.05430 0.86880 -0.01500
H 	H 	0.03510 0.36810 0.45620 -0.03500
H 	H 	0.90840 0.50350 0.42090 0.09100
H 	H 	0.67100 0.50690 0.42950 0.03400
H 	H 	0.45750 0.42040 0.46340 0.04600
H 	H 	0.36000 0.28940 0.50620 0.07800
H 	H 	0.38760 0.11580 0.55330 0.04400
H 	H 	0.52740 0.98210 0.58300 0.06500
H 	H 	0.76440 0.99350 0.57070 0.01000
C 	C 	0.58590 0.69810 0.09309 0.34700
C 	C 	0.62270 0.61930 0.12965 -0.18900
C 	C 	0.70520 0.52880 0.11957 0.14100
C 	C 	0.73910 0.45440 0.15422 -0.26500
C 	C 	0.69050 0.46940 0.19875 0.28100
C 	C 	0.60990 0.55830 0.20921 -0.28000
C 	C 	0.57620 0.63110 0.17484 0.15400
C 	C 	0.68880 0.40690 0.27754 -0.02900
C 	C 	0.74600 0.30730 0.30291 0.06700
C 	C 	0.68270 0.20480 0.29909 -0.03300
C 	C 	0.74230 0.11700 0.32170 0.01400
C 	C 	0.86420 0.13040 0.34685 -0.13300
C 	C 	0.92580 0.22960 0.34996 0.11900
C 	C 	0.86510 0.31940 0.32900 -0.15200
C 	C 	0.55390 0.18790 0.27025 0.02500
C 	C 	0.39620 0.09570 0.32123 0.28800
C 	C 	0.40210 0.17680 0.35423 -0.28700
C 	C 	0.30600 0.00890 0.32665 -0.27500
C 	C 	0.31940 0.16910 0.39342 0.16500
C 	C 	0.22140 0.00360 0.36550 0.16100
C 	C 	0.22740 0.08350 0.39929 -0.22200
C 	C 	0.13740 0.07930 0.44147 0.39800
C 	C 	0.43940 0.63240 0.95920 0.02700
C 	C 	0.36380 0.55010 0.93810 -0.03300
C 	C 	0.22300 0.54860 0.94280 -0.10700
C 	C 	0.15900 0.63120 0.96793 0.10800
C 	C 	0.01300 0.63380 0.97609 -0.25200
C 	C 	0.95500 0.71180 0.00140 0.14600
C 	C 	0.03520 0.79740 0.02151 -0.15100
C 	C 	0.98230 0.88160 0.04780 0.14800
C 	C 	0.06460 0.96080 0.06580 -0.21600
C 	C 	0.20690 0.95390 0.05788 0.11200
C 	C 	0.18050 0.79810 0.01464 0.09300
C 	C 	0.24240 0.71190 0.98779 -0.03300
C 	C 	0.58590 0.30190 0.90691 0.34700
C 	C 	0.62270 0.38070 0.87035 -0.18900
C 	C 	0.70520 0.47120 0.88043 0.14100
C 	C 	0.73910 0.54560 0.84578 -0.26500
C 	C 	0.69050 0.53060 0.80125 0.28100
C 	C 	0.60990 0.44170 0.79079 -0.28000
C 	C 	0.57620 0.36890 0.82516 0.15400
C 	C 	0.68880 0.59310 0.72246 -0.02900
C 	C 	0.74600 0.69270 0.69709 0.06700
C 	C 	0.68270 0.79520 0.70091 -0.03300
C 	C 	0.74230 0.88300 0.67830 0.01400
C 	C 	0.86420 0.86960 0.65315 -0.13300
C 	C 	0.92580 0.77040 0.65004 0.11900
C 	C 	0.86510 0.68060 0.67100 -0.15200
C 	C 	0.55390 0.81210 0.72975 0.02500
C 	C 	0.39620 0.90430 0.67877 0.28800
C 	C 	0.40210 0.82320 0.64577 -0.28700
C 	C 	0.30600 0.99110 0.67335 -0.27500
C 	C 	0.31940 0.83090 0.60658 0.16500
C 	C 	0.22140 0.99640 0.63450 0.16100
C 	C 	0.22740 0.91650 0.60071 -0.22200
C 	C 	0.13740 0.92070 0.55853 0.39800
C 	C 	0.43940 0.36760 0.04080 0.02700
C 	C 	0.36380 0.44990 0.06190 -0.03300
C 	C 	0.22300 0.45140 0.05720 -0.10700
C 	C 	0.15900 0.36880 0.03207 0.10800
C 	C 	0.01300 0.36620 0.02391 -0.25200
C 	C 	0.95500 0.28820 0.99860 0.14600
C 	C 	0.03520 0.20260 0.97849 -0.15100
C 	C 	0.98230 0.11840 0.95220 0.14800
C 	C 	0.06460 0.03920 0.93420 -0.21600
C 	C 	0.20690 0.04610 0.94212 0.11200
C 	C 	0.18050 0.20190 0.98536 0.09300
C 	C 	0.24240 0.28810 0.01221 -0.03300
C 	C 	0.08590 0.69810 0.40691 0.30400
C 	C 	0.12270 0.61930 0.37035 -0.18000
C 	C 	0.20520 0.52880 0.38043 0.12800
C 	C 	0.23910 0.45440 0.34578 -0.26200
C 	C 	0.19050 0.46940 0.30125 0.27500
C 	C 	0.10990 0.55830 0.29079 -0.28000
C 	C 	0.07620 0.63110 0.32516 0.14000
C 	C 	0.18880 0.40690 0.22246 0.01900
C 	C 	0.24600 0.30730 0.19709 -0.01300
C 	C 	0.18270 0.20480 0.20091 0.04900
C 	C 	0.24230 0.11700 0.17830 -0.08700
C 	C 	0.36420 0.13040 0.15315 -0.00900
C 	C 	0.42580 0.22960 0.15004 -0.04800
C 	C 	0.36510 0.31940 0.17100 -0.04000
C 	C 	0.05390 0.18790 0.22975 -0.10500
C 	C 	0.89620 0.09570 0.17877 0.27200
C 	C 	0.90210 0.17680 0.14577 -0.27000
C 	C 	0.80600 0.00890 0.17335 -0.25900
C 	C 	0.81940 0.16910 0.10658 0.15400
C 	C 	0.72140 0.00360 0.13450 0.15400
C 	C 	0.72740 0.08350 0.10071 -0.21000
C 	C 	0.63740 0.07930 0.05853 0.39300
C 	C 	0.93940 0.63240 0.54080 0.13900
C 	C 	0.86380 0.55010 0.56190 -0.13300
C 	C 	0.72300 0.54860 0.55720 -0.00100
C 	C 	0.65900 0.63120 0.53207 -0.01000
C 	C 	0.51300 0.63380 0.52391 -0.03500
C 	C 	0.45500 0.71180 0.49860 -0.07500
C 	C 	0.53520 0.79740 0.47849 0.02500
C 	C 	0.48230 0.88160 0.45220 -0.03700
C 	C 	0.56460 0.96080 0.43420 -0.07500
C 	C 	0.70690 0.95390 0.44212 0.04700
C 	C 	0.68050 0.79810 0.48536 0.02000
C 	C 	0.74240 0.71190 0.51221 0.03500
C 	C 	0.08590 0.30190 0.59309 0.30400
C 	C 	0.12270 0.38070 0.62965 -0.18000
C 	C 	0.20520 0.47120 0.61957 0.12800
C 	C 	0.23910 0.54560 0.65422 -0.26200
C 	C 	0.19050 0.53060 0.69875 0.27500
C 	C 	0.10990 0.44170 0.70921 -0.28000
C 	C 	0.07620 0.36890 0.67484 0.14000
C 	C 	0.18880 0.59310 0.77754 0.01900
C 	C 	0.24600 0.69270 0.80291 -0.01300
C 	C 	0.18270 0.79520 0.79909 0.04900
C 	C 	0.24230 0.88300 0.82170 -0.08700
C 	C 	0.36420 0.86960 0.84685 -0.00900
C 	C 	0.42580 0.77040 0.84996 -0.04800
C 	C 	0.36510 0.68060 0.82900 -0.04000
C 	C 	0.05390 0.81210 0.77025 -0.10500
C 	C 	0.89620 0.90430 0.82123 0.27200
C 	C 	0.90210 0.82320 0.85423 -0.27000
C 	C 	0.80600 0.99110 0.82665 -0.25900
C 	C 	0.81940 0.83090 0.89342 0.15400
C 	C 	0.72140 0.99640 0.86550 0.15400
C 	C 	0.72740 0.91650 0.89929 -0.21000
C 	C 	0.63740 0.92070 0.94147 0.39300
C 	C 	0.93940 0.36760 0.45920 0.13900
C 	C 	0.86380 0.44990 0.43810 -0.13300
C 	C 	0.72300 0.45140 0.44280 -0.00100
C 	C 	0.65900 0.36880 0.46793 -0.01000
C 	C 	0.51300 0.36620 0.47609 -0.03500
C 	C 	0.45500 0.28820 0.50140 -0.07500
C 	C 	0.53520 0.20260 0.52151 0.02500
C 	C 	0.48230 0.11840 0.54780 -0.03700
C 	C 	0.56460 0.03920 0.56580 -0.07500
C 	C 	0.70690 0.04610 0.55788 0.04700
C 	C 	0.68050 0.20190 0.51464 0.02000
C 	C 	0.74240 0.28810 0.48779 0.03500
N 	N 	0.38140 0.71130 0.98331 -0.19400
N 	N 	0.26290 0.87520 0.03274 -0.24300
N 	N 	0.38140 0.28870 0.01669 -0.19400
N 	N 	0.26290 0.12480 0.96726 -0.24300
N 	N 	0.88140 0.71130 0.51669 -0.21800
N 	N 	0.76290 0.87520 0.46726 -0.21000
N 	N 	0.88140 0.28870 0.48331 -0.21800
N 	N 	0.76290 0.12480 0.53274 -0.21000
O 	O 	0.16260 0.14740 0.47279 -0.44300
O 	O 	0.63920 0.68850 0.05397 -0.36100
O 	O 	0.03760 0.01360 0.44296 -0.49200
O 	O 	0.49880 0.77200 0.10099 -0.38500
O 	O 	0.73010 0.39180 0.22991 -0.23800
O 	O 	0.47750 0.09340 0.28206 -0.24500
O 	O 	0.16260 0.85260 0.52721 -0.44300
O 	O 	0.63920 0.31150 0.94603 -0.36100
O 	O 	0.03760 0.98640 0.55704 -0.49200
O 	O 	0.49880 0.22800 0.89901 -0.38500
O 	O 	0.73010 0.60820 0.77009 -0.23800
O 	O 	0.47750 0.90660 0.71794 -0.24500
O 	O 	0.66260 0.14740 0.02721 -0.43400
O 	O 	0.13920 0.68850 0.44603 -0.36000
O 	O 	0.53760 0.01360 0.05704 -0.47500
O 	O 	0.99880 0.77200 0.39901 -0.34600
O 	O 	0.23010 0.39180 0.27009 -0.25000
O 	O 	0.97750 0.09340 0.21794 -0.20200
O 	O 	0.66260 0.85260 0.97279 -0.43400
O 	O 	0.13920 0.31150 0.55397 -0.36000
O 	O 	0.53760 0.98640 0.94296 -0.47500
O 	O 	0.99880 0.22800 0.60099 -0.34600
O 	O 	0.23010 0.60820 0.72991 -0.25000
O 	O 	0.97750 0.90660 0.78206 -0.20200
