data_crystal

_cell_length_a 10.40000
_cell_length_b 11.48000
_cell_length_c 12.40700
_cell_angle_alpha 112.59100
_cell_angle_beta  107.96100
_cell_angle_gamma 101.65800

_symmetry_space_group_name_	'P 1'
_symmetry_space_group_name_H-M	'P 1'

loop_
_symmetry_equiv_pos_as_xyz
  x,y,z

loop_
_atom_site_label
_atom_site_type_symbol
_atom_site_fract_x
_atom_site_fract_y
_atom_site_fract_z
_atom_site_charge
Cd	Cd	0.06363 0.69838 0.57012 1.18000
C 	C 	0.07120 0.57100 0.71870 0.32400
C 	C 	0.07910 0.50790 0.80530 -0.10200
C 	C 	0.20610 0.55580 0.91300 -0.04500
H 	H 	0.28430 0.62870 0.93300 0.05800
C 	C 	0.21890 0.49540 0.99340 0.06300
C 	C 	0.10090 0.38920 0.96490 0.12000
C 	C 	0.97380 0.34220 0.85710 -0.14600
H 	H 	0.89460 0.27100 0.83830 0.08000
C 	C 	0.96200 0.39980 0.77580 0.04600
H 	H 	0.87630 0.36590 0.70220 -0.00800
C 	C 	0.46420 0.64190 0.13100 -0.11100
H 	H 	0.48280 0.62430 0.05540 0.07100
H 	H 	0.44640 0.72600 0.15850 0.05900
C 	C 	0.59530 0.65400 0.23900 0.16400
C 	C 	0.72420 0.75670 0.29010 -0.22300
H 	H 	0.73000 0.82130 0.26220 0.09300
C 	C 	0.84440 0.76550 0.38140 0.11900
H 	H 	0.93110 0.83660 0.41460 -0.05900
C 	C 	0.71770 0.57670 0.37680 0.13500
H 	H 	0.71430 0.51340 0.40620 -0.04800
C 	C 	0.59080 0.56220 0.28370 -0.22100
H 	H 	0.50440 0.49140 0.25240 0.12000
C 	C 	0.01420 0.21950 0.01980 -0.08400
H 	H 	0.03100 0.20860 0.09610 0.06900
H 	H 	0.91880 0.22490 0.99000 0.06000
C 	C 	0.01730 0.09780 0.91620 0.12400
C 	C 	0.15030 0.09220 0.92070 -0.18000
H 	H 	0.23590 0.16260 0.98620 0.09900
C 	C 	0.15410 0.98060 0.82680 0.08600
H 	H 	0.24400 0.97670 0.83150 -0.03700
C 	C 	0.90530 0.88460 0.72700 0.10000
H 	H 	0.82050 0.81340 0.66100 -0.02400
C 	C 	0.89360 0.99220 0.81780 -0.18800
H 	H 	0.80280 0.99340 0.81250 0.08600
N 	N 	0.84260 0.67530 0.42550 -0.27200
N 	N 	0.03340 0.87700 0.72860 -0.25000
O 	O 	0.17350 0.67560 0.75430 -0.41200
O 	O 	0.96230 0.51380 0.61000 -0.49800
O 	O 	0.34030 0.53330 0.10030 -0.16800
O 	O 	0.12120 0.34260 0.05300 -0.17900
Cd	Cd	0.93637 0.30162 0.42988 1.17900
C 	C 	0.92880 0.42900 0.28130 0.32300
C 	C 	0.92090 0.49210 0.19470 -0.10200
C 	C 	0.79390 0.44420 0.08700 -0.04500
H 	H 	0.71570 0.37130 0.06700 0.05800
C 	C 	0.78110 0.50460 0.00660 0.06300
C 	C 	0.89910 0.61080 0.03510 0.12000
C 	C 	0.02620 0.65780 0.14290 -0.14600
H 	H 	0.10540 0.72900 0.16170 0.08000
C 	C 	0.03800 0.60020 0.22420 0.04600
H 	H 	0.12370 0.63410 0.29780 -0.00800
C 	C 	0.53580 0.35810 0.86900 -0.11100
H 	H 	0.51720 0.37570 0.94460 0.07100
H 	H 	0.55360 0.27400 0.84150 0.05900
C 	C 	0.40470 0.34600 0.76100 0.16400
C 	C 	0.27580 0.24330 0.70990 -0.22300
H 	H 	0.27000 0.17870 0.73780 0.09300
C 	C 	0.15560 0.23450 0.61860 0.11900
H 	H 	0.06890 0.16340 0.58540 -0.05900
C 	C 	0.28230 0.42330 0.62320 0.13500
H 	H 	0.28570 0.48660 0.59380 -0.04800
C 	C 	0.40920 0.43780 0.71630 -0.22100
H 	H 	0.49560 0.50860 0.74760 0.12000
C 	C 	0.98580 0.78050 0.98020 -0.08400
H 	H 	0.96900 0.79140 0.90390 0.06900
H 	H 	0.08120 0.77510 0.01000 0.06000
C 	C 	0.98270 0.90220 0.08380 0.12400
C 	C 	0.84970 0.90780 0.07930 -0.18000
H 	H 	0.76410 0.83740 0.01380 0.09900
C 	C 	0.84590 0.01940 0.17320 0.08600
H 	H 	0.75600 0.02330 0.16850 -0.03700
C 	C 	0.09470 0.11540 0.27300 0.10000
H 	H 	0.17950 0.18660 0.33900 -0.02400
C 	C 	0.10640 0.00780 0.18220 -0.18800
H 	H 	0.19720 0.00660 0.18750 0.08600
N 	N 	0.15740 0.32470 0.57450 -0.27200
N 	N 	0.96660 0.12300 0.27140 -0.25000
O 	O 	0.82650 0.32440 0.24570 -0.41200
O 	O 	0.03770 0.48620 0.39000 -0.49800
O 	O 	0.65970 0.46670 0.89970 -0.16800
O 	O 	0.87880 0.65740 0.94700 -0.17900
