data_crystal

_cell_length_a 9.44910
_cell_length_b 10.07620
_cell_length_c 11.57630
_cell_angle_alpha 73.09300
_cell_angle_beta  89.59700
_cell_angle_gamma 80.09700

_symmetry_space_group_name_	'P 1'
_symmetry_space_group_name_H-M	'P 1'

loop_
_symmetry_equiv_pos_as_xyz
  x,y,z

loop_
_atom_site_label
_atom_site_type_symbol
_atom_site_fract_x
_atom_site_fract_y
_atom_site_fract_z
_atom_site_charge
Mn	Mn	0.00947 0.08932 0.16786 1.27400
O 	O 	0.03260 0.21219 0.41233 -0.43400
O 	O 	0.98120 0.28500 0.21232 -0.29100
O 	O 	0.06970 0.89890 0.12465 -0.40100
O 	O 	0.99130 0.77700 0.01132 -0.29500
O 	O 	0.02110 0.54476 0.19814 -0.16900
O 	O 	0.10431 0.01180 0.66595 -0.60200
O 	O 	0.23810 0.91860 0.83410 -0.36000
O 	O 	0.77200 0.95070 0.75945 -0.34800
O 	O 	0.80125 0.08270 0.57070 -0.40100
O 	O 	0.48060 0.99780 0.71107 -0.07400
C 	C 	0.01900 0.30120 0.31110 0.25700
C 	C 	0.04930 0.44200 0.30620 0.04400
C 	C 	0.09600 0.49530 0.38980 -0.05300
H 	H 	0.12340 0.44570 0.47190 0.05300
C 	C 	0.09620 0.64070 0.33100 -0.04800
H 	H 	0.12310 0.70710 0.36660 0.05800
C 	C 	0.05130 0.66580 0.21560 0.03700
C 	C 	0.03450 0.79090 0.10950 0.27600
C 	C 	0.22350 0.98640 0.72490 0.43700
C 	C 	0.34410 0.04560 0.65800 -0.09500
C 	C 	0.34560 0.14150 0.55030 0.00900
H 	H 	0.26520 0.19030 0.49680 0.03600
C 	C 	0.49060 0.15520 0.53230 -0.05000
H 	H 	0.52640 0.21570 0.46360 0.07000
C 	C 	0.56910 0.06770 0.62910 -0.00100
C 	C 	0.72710 0.03000 0.65650 0.30400
Mn	Mn	0.99053 0.91068 0.83214 1.34000
O 	O 	0.96740 0.78781 0.58767 -0.41300
O 	O 	0.01880 0.71500 0.78768 -0.44100
O 	O 	0.93030 0.10110 0.87535 -0.44700
O 	O 	0.00870 0.22300 0.98868 -0.44800
O 	O 	0.97890 0.45524 0.80186 -0.10400
O 	O 	0.89569 0.98820 0.33405 -0.41500
O 	O 	0.76190 0.08140 0.16590 -0.29700
O 	O 	0.22800 0.04930 0.24055 -0.45200
O 	O 	0.19875 0.91730 0.42930 -0.43100
O 	O 	0.51940 0.00220 0.28893 -0.21300
C 	C 	0.98100 0.69880 0.68890 0.41600
C 	C 	0.95070 0.55800 0.69380 0.01300
C 	C 	0.90400 0.50470 0.61020 -0.02500
H 	H 	0.87660 0.55430 0.52810 0.07000
C 	C 	0.90380 0.35930 0.66900 -0.01000
H 	H 	0.87690 0.29290 0.63340 0.06400
C 	C 	0.94870 0.33420 0.78440 -0.00600
C 	C 	0.96550 0.20910 0.89050 0.44300
C 	C 	0.77650 0.01360 0.27510 0.20200
C 	C 	0.65590 0.95440 0.34200 0.14900
C 	C 	0.65440 0.85850 0.44970 -0.10000
H 	H 	0.73480 0.80970 0.50320 0.08900
C 	C 	0.50940 0.84480 0.46770 -0.00400
H 	H 	0.47360 0.78430 0.53640 0.05800
C 	C 	0.43090 0.93230 0.37090 0.05100
C 	C 	0.27290 0.97000 0.34350 0.40600
Mn	Mn	-0.00000 0.00000 0.50000 1.27200
