data_crystal

_cell_length_a 29.72600
_cell_length_b 9.18600
_cell_length_c 16.19800
_cell_angle_alpha 90.00000
_cell_angle_beta  112.79000
_cell_angle_gamma 90.00000

_symmetry_space_group_name_	'P 1'
_symmetry_space_group_name_H-M	'P 1'

loop_
_symmetry_equiv_pos_as_xyz
  x,y,z

loop_
_atom_site_label
_atom_site_type_symbol
_atom_site_fract_x
_atom_site_fract_y
_atom_site_fract_z
_atom_site_charge
Dy	Dy	0.49720 0.83763 0.40382 1.93500
C 	C 	0.92030 0.38900 0.50620 0.40900
C 	C 	0.86610 0.36620 0.47890 0.05500
C 	C 	0.84040 0.46190 0.51050 -0.24600
H 	H 	0.85650 0.53410 0.55140 0.13600
C 	C 	0.79010 0.44770 0.47990 0.34200
C 	C 	0.76570 0.33890 0.42120 -0.39900
H 	H 	0.73220 0.32700 0.40380 0.18700
C 	C 	0.79198 0.24750 0.38860 0.34200
C 	C 	0.84200 0.25920 0.41800 -0.25100
H 	H 	0.85940 0.19530 0.39700 0.13400
C 	C 	0.71920 0.58590 0.45880 0.39300
C 	C 	0.68570 0.59660 0.49740 -0.39400
H 	H 	0.69430 0.57110 0.55710 0.19000
C 	C 	0.63910 0.64570 0.44710 0.29100
H 	H 	0.61660 0.65510 0.47370 -0.06200
C 	C 	0.62570 0.68080 0.35820 -0.35000
C 	C 	0.66040 0.66970 0.32000 0.28700
H 	H 	0.65190 0.69480 0.26020 -0.06000
C 	C 	0.70690 0.62230 0.36950 -0.39500
H 	H 	0.72990 0.61460 0.34370 0.18200
C 	C 	0.57554 0.73530 0.30510 0.57900
C 	C 	0.71940 0.15370 0.27610 0.38600
C 	C 	0.70000 0.27460 0.22470 -0.41200
H 	H 	0.71980 0.35380 0.22610 0.18400
C 	C 	0.65120 0.27710 0.17130 0.29300
H 	H 	0.63780 0.35920 0.13680 -0.06300
C 	C 	0.62160 0.15960 0.16790 -0.34500
C 	C 	0.64160 0.04170 0.22070 0.29800
H 	H 	0.62180 0.96290 0.21970 -0.06800
C 	C 	0.69050 0.03660 0.27550 -0.39800
H 	H 	0.70360 0.95560 0.31120 0.19000
C 	C 	0.56930 0.15600 0.10240 0.54100
O 	O 	0.93938 0.49060 0.55870 -0.49200
O 	O 	0.94239 0.30480 0.47340 -0.49300
O 	O 	0.76577 0.54230 0.51380 -0.34500
O 	O 	0.76944 0.14030 0.32720 -0.35400
O 	O 	0.54547 0.73690 0.34250 -0.57900
O 	O 	0.56613 0.77620 0.22650 -0.55800
O 	O 	0.55529 0.24810 0.04140 -0.51300
O 	O 	0.54270 0.05440 0.10870 -0.56600
Dy	Dy	0.99720 0.33763 0.40382 1.93900
C 	C 	0.42030 0.88900 0.50620 0.40700
C 	C 	0.36610 0.86620 0.47890 0.05300
C 	C 	0.34040 0.96190 0.51050 -0.24600
H 	H 	0.35650 0.03410 0.55140 0.13400
C 	C 	0.29010 0.94770 0.47990 0.34100
C 	C 	0.26570 0.83890 0.42120 -0.40000
H 	H 	0.23220 0.82700 0.40380 0.18600
C 	C 	0.29198 0.74750 0.38860 0.34100
C 	C 	0.34200 0.75920 0.41800 -0.25100
H 	H 	0.35940 0.69530 0.39700 0.13400
C 	C 	0.21920 0.08590 0.45880 0.39300
C 	C 	0.18570 0.09660 0.49740 -0.39400
H 	H 	0.19430 0.07110 0.55710 0.18900
C 	C 	0.13910 0.14570 0.44710 0.29200
H 	H 	0.11660 0.15510 0.47370 -0.06200
C 	C 	0.12570 0.18080 0.35820 -0.35100
C 	C 	0.16040 0.16970 0.32000 0.28700
H 	H 	0.15190 0.19480 0.26020 -0.06000
C 	C 	0.20690 0.12230 0.36950 -0.39500
H 	H 	0.22990 0.11460 0.34370 0.18200
C 	C 	0.07554 0.23530 0.30510 0.58000
C 	C 	0.21940 0.65370 0.27610 0.38600
C 	C 	0.20000 0.77460 0.22470 -0.41300
H 	H 	0.21980 0.85380 0.22610 0.18400
C 	C 	0.15120 0.77710 0.17130 0.29300
H 	H 	0.13780 0.85920 0.13680 -0.06400
C 	C 	0.12160 0.65960 0.16790 -0.34600
C 	C 	0.14160 0.54170 0.22070 0.29400
H 	H 	0.12180 0.46290 0.21970 -0.06500
C 	C 	0.19050 0.53660 0.27550 -0.40000
H 	H 	0.20360 0.45560 0.31120 0.19200
C 	C 	0.06930 0.65600 0.10240 0.54100
O 	O 	0.43938 0.99060 0.55870 -0.49100
O 	O 	0.44239 0.80480 0.47340 -0.49200
O 	O 	0.26577 0.04230 0.51380 -0.34500
O 	O 	0.26944 0.64030 0.32720 -0.35400
O 	O 	0.04547 0.23690 0.34250 -0.58000
O 	O 	0.06613 0.27620 0.22650 -0.55800
O 	O 	0.05529 0.74810 0.04140 -0.51700
O 	O 	0.04270 0.55440 0.10870 -0.56900
Dy	Dy	0.50280 0.83763 0.09618 1.93000
C 	C 	0.07970 0.38900 0.99380 0.40900
C 	C 	0.13390 0.36620 0.02110 0.05000
C 	C 	0.15960 0.46190 0.98950 -0.24300
H 	H 	0.14350 0.53410 0.94860 0.13400
C 	C 	0.20990 0.44770 0.02010 0.33700
C 	C 	0.23430 0.33890 0.07880 -0.39700
H 	H 	0.26780 0.32700 0.09620 0.18500
C 	C 	0.20802 0.24750 0.11140 0.34000
C 	C 	0.15800 0.25920 0.08200 -0.24800
H 	H 	0.14060 0.19530 0.10300 0.13400
C 	C 	0.28080 0.58590 0.04120 0.39200
C 	C 	0.31430 0.59660 0.00260 -0.39700
H 	H 	0.30570 0.57110 0.94290 0.19200
C 	C 	0.36090 0.64570 0.05290 0.29400
H 	H 	0.38340 0.65510 0.02630 -0.06300
C 	C 	0.37430 0.68080 0.14180 -0.35100
C 	C 	0.33960 0.66970 0.18000 0.28700
H 	H 	0.34810 0.69480 0.23980 -0.06100
C 	C 	0.29310 0.62230 0.13050 -0.39500
H 	H 	0.27010 0.61460 0.15630 0.18200
C 	C 	0.42446 0.73530 0.19490 0.58000
C 	C 	0.28060 0.15370 0.22390 0.38300
C 	C 	0.30000 0.27460 0.27530 -0.41100
H 	H 	0.28020 0.35380 0.27390 0.18400
C 	C 	0.34880 0.27710 0.32870 0.29200
H 	H 	0.36220 0.35920 0.36320 -0.06200
C 	C 	0.37840 0.15960 0.33210 -0.34400
C 	C 	0.35840 0.04170 0.27930 0.29400
H 	H 	0.37820 0.96290 0.28030 -0.06600
C 	C 	0.30950 0.03660 0.22450 -0.39300
H 	H 	0.29640 0.95560 0.18880 0.18800
C 	C 	0.43070 0.15600 0.39760 0.54000
O 	O 	0.06062 0.49060 0.94130 -0.49100
O 	O 	0.05761 0.30480 0.02660 -0.49300
O 	O 	0.23423 0.54230 0.98620 -0.34300
O 	O 	0.23056 0.14030 0.17280 -0.35200
O 	O 	0.45453 0.73690 0.15750 -0.57900
O 	O 	0.43387 0.77620 0.27350 -0.55800
O 	O 	0.44471 0.24810 0.45860 -0.51400
O 	O 	0.45730 0.05440 0.39130 -0.56800
Dy	Dy	0.00280 0.33763 0.09618 1.93700
C 	C 	0.57970 0.88900 0.99380 0.41800
C 	C 	0.63390 0.86620 0.02110 0.03500
C 	C 	0.65960 0.96190 0.98950 -0.22000
H 	H 	0.64350 0.03410 0.94860 0.12300
C 	C 	0.70990 0.94770 0.02010 0.32600
C 	C 	0.73430 0.83890 0.07880 -0.39000
H 	H 	0.76780 0.82700 0.09620 0.18200
C 	C 	0.70802 0.74750 0.11140 0.33300
C 	C 	0.65800 0.75920 0.08200 -0.23900
H 	H 	0.64060 0.69530 0.10300 0.13000
C 	C 	0.78080 0.08590 0.04120 0.39100
C 	C 	0.81430 0.09660 0.00260 -0.38000
H 	H 	0.80570 0.07110 0.94290 0.18100
C 	C 	0.86090 0.14570 0.05290 0.28300
H 	H 	0.88340 0.15510 0.02630 -0.05700
C 	C 	0.87430 0.18080 0.14180 -0.34600
C 	C 	0.83960 0.16970 0.18000 0.28300
H 	H 	0.84810 0.19480 0.23980 -0.05900
C 	C 	0.79310 0.12230 0.13050 -0.39100
H 	H 	0.77010 0.11460 0.15630 0.18200
C 	C 	0.92446 0.23530 0.19490 0.57800
C 	C 	0.78060 0.65370 0.22390 0.38500
C 	C 	0.80000 0.77460 0.27530 -0.41200
H 	H 	0.78020 0.85380 0.27390 0.18300
C 	C 	0.84880 0.77710 0.32870 0.29200
H 	H 	0.86220 0.85920 0.36320 -0.06300
C 	C 	0.87840 0.65960 0.33210 -0.34400
C 	C 	0.85840 0.54170 0.27930 0.29300
H 	H 	0.87820 0.46290 0.28030 -0.06400
C 	C 	0.80950 0.53660 0.22450 -0.39800
H 	H 	0.79640 0.45560 0.18880 0.19100
C 	C 	0.93070 0.65600 0.39760 0.54100
O 	O 	0.56062 0.99060 0.94130 -0.49100
O 	O 	0.55761 0.80480 0.02660 -0.49700
O 	O 	0.73423 0.04230 0.98620 -0.34400
O 	O 	0.73056 0.64030 0.17280 -0.35200
O 	O 	0.95453 0.23690 0.15750 -0.57800
O 	O 	0.93387 0.27620 0.27350 -0.55800
O 	O 	0.94471 0.74810 0.45860 -0.51500
O 	O 	0.95730 0.55440 0.39130 -0.56900
Dy	Dy	0.50280 0.16237 0.59618 1.93400
C 	C 	0.07970 0.61100 0.49380 0.40800
C 	C 	0.13390 0.63380 0.52110 0.05400
C 	C 	0.15960 0.53810 0.48950 -0.24700
H 	H 	0.14350 0.46590 0.44860 0.13500
C 	C 	0.20990 0.55230 0.52010 0.34100
C 	C 	0.23430 0.66110 0.57880 -0.40000
H 	H 	0.26780 0.67300 0.59620 0.18600
C 	C 	0.20802 0.75250 0.61140 0.34200
C 	C 	0.15800 0.74080 0.58200 -0.25100
H 	H 	0.14060 0.80470 0.60300 0.13400
C 	C 	0.28080 0.41410 0.54120 0.39300
C 	C 	0.31430 0.40340 0.50260 -0.39400
H 	H 	0.30570 0.42890 0.44290 0.19000
C 	C 	0.36090 0.35430 0.55290 0.29100
H 	H 	0.38340 0.34490 0.52630 -0.06200
C 	C 	0.37430 0.31920 0.64180 -0.35000
C 	C 	0.33960 0.33030 0.68000 0.28700
H 	H 	0.34810 0.30520 0.73980 -0.06000
C 	C 	0.29310 0.37770 0.63050 -0.39500
H 	H 	0.27010 0.38540 0.65630 0.18200
C 	C 	0.42446 0.26470 0.69490 0.57900
C 	C 	0.28060 0.84630 0.72390 0.38600
C 	C 	0.30000 0.72540 0.77530 -0.41200
H 	H 	0.28020 0.64620 0.77390 0.18400
C 	C 	0.34880 0.72290 0.82870 0.29300
H 	H 	0.36220 0.64080 0.86320 -0.06300
C 	C 	0.37840 0.84040 0.83210 -0.34500
C 	C 	0.35840 0.95830 0.77930 0.29800
H 	H 	0.37820 0.03710 0.78030 -0.06800
C 	C 	0.30950 0.96340 0.72450 -0.39800
H 	H 	0.29640 0.04440 0.68880 0.19000
C 	C 	0.43070 0.84400 0.89760 0.54100
O 	O 	0.06062 0.50940 0.44130 -0.49200
O 	O 	0.05761 0.69520 0.52660 -0.49300
O 	O 	0.23423 0.45770 0.48620 -0.34500
O 	O 	0.23056 0.85970 0.67280 -0.35400
O 	O 	0.45453 0.26310 0.65750 -0.57900
O 	O 	0.43387 0.22380 0.77350 -0.55800
O 	O 	0.44471 0.75190 0.95860 -0.51300
O 	O 	0.45730 0.94560 0.89130 -0.56600
Dy	Dy	0.00280 0.66237 0.59618 1.93900
C 	C 	0.57970 0.11100 0.49380 0.40700
C 	C 	0.63390 0.13380 0.52110 0.05300
C 	C 	0.65960 0.03810 0.48950 -0.24600
H 	H 	0.64350 0.96590 0.44860 0.13400
C 	C 	0.70990 0.05230 0.52010 0.34100
C 	C 	0.73430 0.16110 0.57880 -0.40000
H 	H 	0.76780 0.17300 0.59620 0.18600
C 	C 	0.70802 0.25250 0.61140 0.34100
C 	C 	0.65800 0.24080 0.58200 -0.25100
H 	H 	0.64060 0.30470 0.60300 0.13400
C 	C 	0.78080 0.91410 0.54120 0.39300
C 	C 	0.81430 0.90340 0.50260 -0.39400
H 	H 	0.80570 0.92890 0.44290 0.18900
C 	C 	0.86090 0.85430 0.55290 0.29200
H 	H 	0.88340 0.84490 0.52630 -0.06200
C 	C 	0.87430 0.81920 0.64180 -0.35100
C 	C 	0.83960 0.83030 0.68000 0.28700
H 	H 	0.84810 0.80520 0.73980 -0.06000
C 	C 	0.79310 0.87770 0.63050 -0.39500
H 	H 	0.77010 0.88540 0.65630 0.18200
C 	C 	0.92446 0.76470 0.69490 0.58000
C 	C 	0.78060 0.34630 0.72390 0.38600
C 	C 	0.80000 0.22540 0.77530 -0.41300
H 	H 	0.78020 0.14620 0.77390 0.18400
C 	C 	0.84880 0.22290 0.82870 0.29300
H 	H 	0.86220 0.14080 0.86320 -0.06400
C 	C 	0.87840 0.34040 0.83210 -0.34600
C 	C 	0.85840 0.45830 0.77930 0.29400
H 	H 	0.87820 0.53710 0.78030 -0.06500
C 	C 	0.80950 0.46340 0.72450 -0.40000
H 	H 	0.79640 0.54440 0.68880 0.19200
C 	C 	0.93070 0.34400 0.89760 0.54100
O 	O 	0.56062 0.00940 0.44130 -0.49100
O 	O 	0.55761 0.19520 0.52660 -0.49200
O 	O 	0.73423 0.95770 0.48620 -0.34500
O 	O 	0.73056 0.35970 0.67280 -0.35400
O 	O 	0.95453 0.76310 0.65750 -0.58000
O 	O 	0.93387 0.72380 0.77350 -0.55800
O 	O 	0.94471 0.25190 0.95860 -0.51700
O 	O 	0.95730 0.44560 0.89130 -0.56900
Dy	Dy	0.49720 0.16237 0.90382 1.93000
C 	C 	0.92030 0.61100 0.00620 0.40900
C 	C 	0.86610 0.63380 0.97890 0.05000
C 	C 	0.84040 0.53810 0.01050 -0.24300
H 	H 	0.85650 0.46590 0.05140 0.13400
C 	C 	0.79010 0.55230 0.97990 0.33700
C 	C 	0.76570 0.66110 0.92120 -0.39700
H 	H 	0.73220 0.67300 0.90380 0.18500
C 	C 	0.79198 0.75250 0.88860 0.34000
C 	C 	0.84200 0.74080 0.91800 -0.24800
H 	H 	0.85940 0.80470 0.89700 0.13400
C 	C 	0.71920 0.41410 0.95880 0.39200
C 	C 	0.68570 0.40340 0.99740 -0.39700
H 	H 	0.69430 0.42890 0.05710 0.19200
C 	C 	0.63910 0.35430 0.94710 0.29400
H 	H 	0.61660 0.34490 0.97370 -0.06300
C 	C 	0.62570 0.31920 0.85820 -0.35100
C 	C 	0.66040 0.33030 0.82000 0.28700
H 	H 	0.65190 0.30520 0.76020 -0.06100
C 	C 	0.70690 0.37770 0.86950 -0.39500
H 	H 	0.72990 0.38540 0.84370 0.18200
C 	C 	0.57554 0.26470 0.80510 0.58000
C 	C 	0.71940 0.84630 0.77610 0.38300
C 	C 	0.70000 0.72540 0.72470 -0.41100
H 	H 	0.71980 0.64620 0.72610 0.18400
C 	C 	0.65120 0.72290 0.67130 0.29200
H 	H 	0.63780 0.64080 0.63680 -0.06200
C 	C 	0.62160 0.84040 0.66790 -0.34400
C 	C 	0.64160 0.95830 0.72070 0.29400
H 	H 	0.62180 0.03710 0.71970 -0.06600
C 	C 	0.69050 0.96340 0.77550 -0.39300
H 	H 	0.70360 0.04440 0.81120 0.18800
C 	C 	0.56930 0.84400 0.60240 0.54000
O 	O 	0.93938 0.50940 0.05870 -0.49100
O 	O 	0.94239 0.69520 0.97340 -0.49300
O 	O 	0.76577 0.45770 0.01380 -0.34300
O 	O 	0.76944 0.85970 0.82720 -0.35200
O 	O 	0.54547 0.26310 0.84250 -0.57900
O 	O 	0.56613 0.22380 0.72650 -0.55800
O 	O 	0.55529 0.75190 0.54140 -0.51400
O 	O 	0.54270 0.94560 0.60870 -0.56800
Dy	Dy	0.99720 0.66237 0.90382 1.93700
C 	C 	0.42030 0.11100 0.00620 0.41800
C 	C 	0.36610 0.13380 0.97890 0.03500
C 	C 	0.34040 0.03810 0.01050 -0.22000
H 	H 	0.35650 0.96590 0.05140 0.12300
C 	C 	0.29010 0.05230 0.97990 0.32600
C 	C 	0.26570 0.16110 0.92120 -0.39000
H 	H 	0.23220 0.17300 0.90380 0.18200
C 	C 	0.29198 0.25250 0.88860 0.33300
C 	C 	0.34200 0.24080 0.91800 -0.23900
H 	H 	0.35940 0.30470 0.89700 0.13000
C 	C 	0.21920 0.91410 0.95880 0.39100
C 	C 	0.18570 0.90340 0.99740 -0.38000
H 	H 	0.19430 0.92890 0.05710 0.18100
C 	C 	0.13910 0.85430 0.94710 0.28300
H 	H 	0.11660 0.84490 0.97370 -0.05700
C 	C 	0.12570 0.81920 0.85820 -0.34600
C 	C 	0.16040 0.83030 0.82000 0.28300
H 	H 	0.15190 0.80520 0.76020 -0.05900
C 	C 	0.20690 0.87770 0.86950 -0.39100
H 	H 	0.22990 0.88540 0.84370 0.18200
C 	C 	0.07554 0.76470 0.80510 0.57800
C 	C 	0.21940 0.34630 0.77610 0.38500
C 	C 	0.20000 0.22540 0.72470 -0.41200
H 	H 	0.21980 0.14620 0.72610 0.18300
C 	C 	0.15120 0.22290 0.67130 0.29200
H 	H 	0.13780 0.14080 0.63680 -0.06300
C 	C 	0.12160 0.34040 0.66790 -0.34400
C 	C 	0.14160 0.45830 0.72070 0.29300
H 	H 	0.12180 0.53710 0.71970 -0.06400
C 	C 	0.19050 0.46340 0.77550 -0.39800
H 	H 	0.20360 0.54440 0.81120 0.19100
C 	C 	0.06930 0.34400 0.60240 0.54100
O 	O 	0.43938 0.00940 0.05870 -0.49100
O 	O 	0.44239 0.19520 0.97340 -0.49700
O 	O 	0.26577 0.95770 0.01380 -0.34400
O 	O 	0.26944 0.35970 0.82720 -0.35200
O 	O 	0.04547 0.76310 0.84250 -0.57800
O 	O 	0.06613 0.72380 0.72650 -0.55800
O 	O 	0.05529 0.25190 0.54140 -0.51500
O 	O 	0.04270 0.44560 0.60870 -0.56900
