data_crystal

_cell_length_a 9.17410
_cell_length_b 9.33870
_cell_length_c 17.76420
_cell_angle_alpha 83.75000
_cell_angle_beta  72.72400
_cell_angle_gamma 86.44000

_symmetry_space_group_name_	'P 1'
_symmetry_space_group_name_H-M	'P 1'

loop_
_symmetry_equiv_pos_as_xyz
  x,y,z

loop_
_atom_site_label
_atom_site_type_symbol
_atom_site_fract_x
_atom_site_fract_y
_atom_site_fract_z
_atom_site_charge
C 	C 	0.66950 0.20540 0.82640 0.28900
C 	C 	0.56590 0.23710 0.91670 -0.14500
H 	H 	0.52200 0.14900 0.94670 0.08600
H 	H 	0.62760 0.27740 0.94460 0.09300
C 	C 	0.34020 0.36590 0.98720 -0.19200
H 	H 	0.28640 0.27950 0.01320 0.09500
H 	H 	0.39580 0.39750 0.02080 0.10000
C 	C 	0.22980 0.48360 0.97000 0.29300
C 	C 	0.71180 0.69980 0.77030 0.36200
C 	C 	0.61100 0.81100 0.73660 -0.21900
H 	H 	0.58320 0.89050 0.76950 0.10000
H 	H 	0.66760 0.84890 0.68360 0.08000
C 	C 	0.39540 0.83800 0.68380 -0.23200
H 	H 	0.46580 0.86400 0.63200 0.09900
H 	H 	0.35580 0.92590 0.70820 0.10500
C 	C 	0.26500 0.75470 0.67530 0.34100
C 	C 	0.24360 0.23270 0.70450 0.31100
C 	C 	0.37190 0.23710 0.61850 -0.16400
H 	H 	0.42650 0.14490 0.61140 0.07700
H 	H 	0.32480 0.25970 0.57630 0.09100
C 	C 	0.60230 0.35450 0.54240 -0.19800
H 	H 	0.66150 0.26450 0.53730 0.08500
H 	H 	0.56420 0.37520 0.49680 0.09800
C 	C 	0.69780 0.47490 0.54870 0.29500
C 	C 	0.15710 0.89830 0.88470 0.08200
N 	N 	0.06500 0.85050 0.86220 -0.19000
O 	O 	0.63820 0.26780 0.75840 -0.42700
O 	O 	0.44930 0.33770 0.90554 -0.23600
O 	O 	0.24410 0.52820 0.89058 -0.42100
O 	O 	0.78020 0.12260 0.82550 -0.30300
O 	O 	0.13380 0.52410 0.03665 -0.28800
O 	O 	0.65830 0.57710 0.80007 -0.46200
O 	O 	0.47730 0.74640 0.73407 -0.26700
O 	O 	0.25710 0.62270 0.70251 -0.51100
O 	O 	0.84250 0.73530 0.76450 -0.43200
O 	O 	0.17310 0.82330 0.64066 -0.38800
O 	O 	0.25790 0.30410 0.76460 -0.45000
O 	O 	0.47180 0.34590 0.61825 -0.23700
O 	O 	0.65370 0.54200 0.61701 -0.40400
O 	O 	0.13300 0.15990 0.71060 -0.33000
O 	O 	0.81320 0.50170 0.48482 -0.32700
S 	S 	0.28425 0.96940 0.91944 -0.04600
Pr	Pr	0.45383 0.47322 0.75633 2.05700
Na	Na	0.02091 0.60233 0.83614 0.57700
Na	Na	0.96443 0.97032 0.73585 0.58100
Na	Na	0.02948 0.62731 0.62484 0.57200
C 	C 	0.33050 0.79460 0.17360 0.28900
C 	C 	0.43410 0.76290 0.08330 -0.14500
H 	H 	0.47800 0.85100 0.05330 0.08600
H 	H 	0.37240 0.72260 0.05540 0.09300
C 	C 	0.65980 0.63410 0.01280 -0.19200
H 	H 	0.71360 0.72050 0.98680 0.09500
H 	H 	0.60420 0.60250 0.97920 0.10000
C 	C 	0.77020 0.51640 0.03000 0.29300
C 	C 	0.28820 0.30020 0.22970 0.36200
C 	C 	0.38900 0.18900 0.26340 -0.21900
H 	H 	0.41680 0.10950 0.23050 0.10000
H 	H 	0.33240 0.15110 0.31640 0.08000
C 	C 	0.60460 0.16200 0.31620 -0.23200
H 	H 	0.53420 0.13600 0.36800 0.09900
H 	H 	0.64420 0.07410 0.29180 0.10500
C 	C 	0.73500 0.24530 0.32470 0.34100
C 	C 	0.75640 0.76730 0.29550 0.31100
C 	C 	0.62810 0.76290 0.38150 -0.16400
H 	H 	0.57350 0.85510 0.38860 0.07700
H 	H 	0.67520 0.74030 0.42370 0.09100
C 	C 	0.39770 0.64550 0.45760 -0.19800
H 	H 	0.33850 0.73550 0.46270 0.08500
H 	H 	0.43580 0.62480 0.50320 0.09800
C 	C 	0.30220 0.52510 0.45130 0.29500
C 	C 	0.84290 0.10170 0.11530 0.08200
N 	N 	0.93500 0.14950 0.13780 -0.19000
O 	O 	0.36180 0.73220 0.24160 -0.42700
O 	O 	0.55070 0.66230 0.09446 -0.23600
O 	O 	0.75590 0.47180 0.10942 -0.42100
O 	O 	0.21980 0.87740 0.17450 -0.30300
O 	O 	0.86620 0.47590 0.96335 -0.28800
O 	O 	0.34170 0.42290 0.19993 -0.46200
O 	O 	0.52270 0.25360 0.26593 -0.26700
O 	O 	0.74290 0.37730 0.29749 -0.51100
O 	O 	0.15750 0.26470 0.23550 -0.43200
O 	O 	0.82690 0.17670 0.35934 -0.38800
O 	O 	0.74210 0.69590 0.23540 -0.45000
O 	O 	0.52820 0.65410 0.38175 -0.23700
O 	O 	0.34630 0.45800 0.38299 -0.40400
O 	O 	0.86700 0.84010 0.28940 -0.33000
O 	O 	0.18680 0.49830 0.51518 -0.32700
S 	S 	0.71575 0.03060 0.08056 -0.04600
Pr	Pr	0.54617 0.52678 0.24367 2.05700
Na	Na	0.97909 0.39767 0.16386 0.57700
Na	Na	0.03557 0.02968 0.26415 0.58100
Na	Na	0.97052 0.37269 0.37516 0.57200
