data_crystal

_cell_length_a 9.68670
_cell_length_b 15.44900
_cell_length_c 27.30300
_cell_angle_alpha 90.00000
_cell_angle_beta  90.00000
_cell_angle_gamma 90.00000

_symmetry_space_group_name_	'P 1'
_symmetry_space_group_name_H-M	'P 1'

loop_
_symmetry_equiv_pos_as_xyz
  x,y,z

loop_
_atom_site_label
_atom_site_type_symbol
_atom_site_fract_x
_atom_site_fract_y
_atom_site_fract_z
_atom_site_charge
O 	O 	0.37980 0.72987 0.51646 -0.48100
O 	O 	0.36250 0.59402 0.53806 -0.39600
C 	C 	0.43470 0.65980 0.52924 0.39800
C 	C 	0.58780 0.65970 0.53208 -0.14300
H 	H 	0.63270 0.71280 0.53400 0.08800
O 	O 	0.11440 0.53856 0.58426 -0.35400
O 	O 	0.37980 0.22987 0.01646 -0.48200
O 	O 	0.36250 0.09402 0.03806 -0.39700
C 	C 	0.43470 0.15980 0.02924 0.39800
C 	C 	0.58780 0.15970 0.03208 -0.14400
H 	H 	0.63270 0.21280 0.03400 0.08700
O 	O 	0.11440 0.03856 0.08426 -0.35700
O 	O 	0.87980 0.72987 0.01646 -0.48100
O 	O 	0.86250 0.59402 0.03806 -0.39600
C 	C 	0.93470 0.65980 0.02924 0.39700
C 	C 	0.08780 0.65970 0.03208 -0.14400
H 	H 	0.13270 0.71280 0.03400 0.08700
O 	O 	0.61440 0.53856 0.08426 -0.35500
O 	O 	0.87980 0.22987 0.51646 -0.48200
O 	O 	0.86250 0.09402 0.53806 -0.39700
C 	C 	0.93470 0.15980 0.52924 0.40000
C 	C 	0.08780 0.15970 0.53208 -0.14800
H 	H 	0.13270 0.21280 0.53400 0.08800
O 	O 	0.61440 0.03856 0.58426 -0.35500
O 	O 	0.37020 0.02013 0.51646 -0.48200
O 	O 	0.38750 0.15598 0.53806 -0.39700
C 	C 	0.31530 0.09020 0.52924 0.39600
C 	C 	0.16220 0.09030 0.53208 -0.14200
H 	H 	0.11730 0.03720 0.53400 0.08500
O 	O 	0.63560 0.21144 0.58426 -0.35500
O 	O 	0.37020 0.52013 0.01646 -0.48200
O 	O 	0.38750 0.65598 0.03806 -0.39700
C 	C 	0.31530 0.59020 0.02924 0.39700
C 	C 	0.16220 0.59030 0.03208 -0.14400
H 	H 	0.11730 0.53720 0.03400 0.08700
O 	O 	0.63560 0.71144 0.08426 -0.35500
O 	O 	0.87020 0.02013 0.01646 -0.47900
O 	O 	0.88750 0.15598 0.03806 -0.39500
C 	C 	0.81530 0.09020 0.02924 0.39700
C 	C 	0.66220 0.09030 0.03208 -0.14300
H 	H 	0.61730 0.03720 0.03400 0.08700
O 	O 	0.13560 0.21144 0.08426 -0.35500
O 	O 	0.87020 0.52013 0.51646 -0.48200
O 	O 	0.88750 0.65598 0.53806 -0.39700
C 	C 	0.81530 0.59020 0.52924 0.39700
C 	C 	0.66220 0.59030 0.53208 -0.14400
H 	H 	0.61730 0.53720 0.53400 0.08700
O 	O 	0.13560 0.71144 0.58426 -0.35500
O 	O 	0.37020 0.72987 0.23354 -0.48200
O 	O 	0.38750 0.59402 0.21194 -0.39700
C 	C 	0.31530 0.65980 0.22076 0.39700
C 	C 	0.16220 0.65970 0.21792 -0.14400
H 	H 	0.11730 0.71280 0.21600 0.08700
O 	O 	0.63560 0.53856 0.16574 -0.35500
O 	O 	0.37020 0.22987 0.73354 -0.48200
O 	O 	0.38750 0.09402 0.71194 -0.39700
C 	C 	0.31530 0.15980 0.72076 0.39600
C 	C 	0.16220 0.15970 0.71792 -0.14200
H 	H 	0.11730 0.21280 0.71600 0.08600
O 	O 	0.63560 0.03856 0.66574 -0.35500
O 	O 	0.87020 0.72987 0.73354 -0.48200
O 	O 	0.88750 0.59402 0.71194 -0.39700
C 	C 	0.81530 0.65980 0.72076 0.39700
C 	C 	0.66220 0.65970 0.71792 -0.14400
H 	H 	0.61730 0.71280 0.71600 0.08700
O 	O 	0.13560 0.53856 0.66574 -0.35500
O 	O 	0.87020 0.22987 0.23354 -0.48100
O 	O 	0.88750 0.09402 0.21194 -0.39500
C 	C 	0.81530 0.15980 0.22076 0.39700
C 	C 	0.66220 0.15970 0.21792 -0.14300
H 	H 	0.61730 0.21280 0.21600 0.08700
O 	O 	0.13560 0.03856 0.16574 -0.35600
O 	O 	0.37980 0.02013 0.23354 -0.48200
O 	O 	0.36250 0.15598 0.21194 -0.39600
C 	C 	0.43470 0.09020 0.22076 0.39700
C 	C 	0.58780 0.09030 0.21792 -0.14400
H 	H 	0.63270 0.03720 0.21600 0.08700
O 	O 	0.11440 0.21144 0.16574 -0.35500
O 	O 	0.37980 0.52013 0.73354 -0.48200
O 	O 	0.36250 0.65598 0.71194 -0.39700
C 	C 	0.43470 0.59020 0.72076 0.39700
C 	C 	0.58780 0.59030 0.71792 -0.14400
H 	H 	0.63270 0.53720 0.71600 0.08700
O 	O 	0.11440 0.71144 0.66574 -0.35500
O 	O 	0.87980 0.02013 0.73354 -0.48100
O 	O 	0.86250 0.15598 0.71194 -0.39700
C 	C 	0.93470 0.09020 0.72076 0.39900
C 	C 	0.08780 0.09030 0.71792 -0.14700
H 	H 	0.13270 0.03720 0.71600 0.08700
O 	O 	0.61440 0.21144 0.66574 -0.35500
O 	O 	0.87980 0.52013 0.23354 -0.48200
O 	O 	0.86250 0.65598 0.21194 -0.39700
C 	C 	0.93470 0.59020 0.22076 0.39700
C 	C 	0.08780 0.59030 0.21792 -0.14400
H 	H 	0.13270 0.53720 0.21600 0.08700
O 	O 	0.61440 0.71144 0.16574 -0.35500
O 	O 	0.62020 0.27013 0.48354 -0.48200
O 	O 	0.63750 0.40598 0.46194 -0.39700
C 	C 	0.56530 0.34020 0.47076 0.39700
C 	C 	0.41220 0.34030 0.46792 -0.14400
H 	H 	0.36730 0.28720 0.46600 0.08700
O 	O 	0.88560 0.46144 0.41574 -0.35500
O 	O 	0.62020 0.77013 0.98354 -0.48200
O 	O 	0.63750 0.90598 0.96194 -0.39700
C 	C 	0.56530 0.84020 0.97076 0.39800
C 	C 	0.41220 0.84030 0.96792 -0.14400
H 	H 	0.36730 0.78720 0.96600 0.08700
O 	O 	0.88560 0.96144 0.91574 -0.35700
O 	O 	0.12020 0.27013 0.98354 -0.48100
O 	O 	0.13750 0.40598 0.96194 -0.39600
C 	C 	0.06530 0.34020 0.97076 0.39700
C 	C 	0.91220 0.34030 0.96792 -0.14400
H 	H 	0.86730 0.28720 0.96600 0.08700
O 	O 	0.38560 0.46144 0.91574 -0.35500
O 	O 	0.12020 0.77013 0.48354 -0.48200
O 	O 	0.13750 0.90598 0.46194 -0.39700
C 	C 	0.06530 0.84020 0.47076 0.40000
C 	C 	0.91220 0.84030 0.46792 -0.14800
H 	H 	0.86730 0.78720 0.46600 0.08800
O 	O 	0.38560 0.96144 0.41574 -0.35500
O 	O 	0.62980 0.97987 0.48354 -0.48200
O 	O 	0.61250 0.84402 0.46194 -0.39700
C 	C 	0.68470 0.90980 0.47076 0.39600
C 	C 	0.83780 0.90970 0.46792 -0.14200
H 	H 	0.88270 0.96280 0.46600 0.08500
O 	O 	0.36440 0.78856 0.41574 -0.35500
O 	O 	0.62980 0.47987 0.98354 -0.48200
O 	O 	0.61250 0.34402 0.96194 -0.39700
C 	C 	0.68470 0.40980 0.97076 0.39700
C 	C 	0.83780 0.40970 0.96792 -0.14400
H 	H 	0.88270 0.46280 0.96600 0.08700
O 	O 	0.36440 0.28856 0.91574 -0.35500
O 	O 	0.12980 0.97987 0.98354 -0.47900
O 	O 	0.11250 0.84402 0.96194 -0.39500
C 	C 	0.18470 0.90980 0.97076 0.39700
C 	C 	0.33780 0.90970 0.96792 -0.14300
H 	H 	0.38270 0.96280 0.96600 0.08700
O 	O 	0.86440 0.78856 0.91574 -0.35500
O 	O 	0.12980 0.47987 0.48354 -0.48200
O 	O 	0.11250 0.34402 0.46194 -0.39700
C 	C 	0.18470 0.40980 0.47076 0.39700
C 	C 	0.33780 0.40970 0.46792 -0.14400
H 	H 	0.38270 0.46280 0.46600 0.08700
O 	O 	0.86440 0.28856 0.41574 -0.35500
O 	O 	0.62980 0.27013 0.76646 -0.48200
O 	O 	0.61250 0.40598 0.78806 -0.39700
C 	C 	0.68470 0.34020 0.77924 0.39700
C 	C 	0.83780 0.34030 0.78208 -0.14400
H 	H 	0.88270 0.28720 0.78400 0.08700
O 	O 	0.36440 0.46144 0.83426 -0.35500
O 	O 	0.62980 0.77013 0.26646 -0.48200
O 	O 	0.61250 0.90598 0.28806 -0.39700
C 	C 	0.68470 0.84020 0.27924 0.39600
C 	C 	0.83780 0.84030 0.28208 -0.14200
H 	H 	0.88270 0.78720 0.28400 0.08600
O 	O 	0.36440 0.96144 0.33426 -0.35500
O 	O 	0.12980 0.27013 0.26646 -0.48200
O 	O 	0.11250 0.40598 0.28806 -0.39700
C 	C 	0.18470 0.34020 0.27924 0.39700
C 	C 	0.33780 0.34030 0.28208 -0.14400
H 	H 	0.38270 0.28720 0.28400 0.08700
O 	O 	0.86440 0.46144 0.33426 -0.35500
O 	O 	0.12980 0.77013 0.76646 -0.48100
O 	O 	0.11250 0.90598 0.78806 -0.39500
C 	C 	0.18470 0.84020 0.77924 0.39700
C 	C 	0.33780 0.84030 0.78208 -0.14300
H 	H 	0.38270 0.78720 0.78400 0.08700
O 	O 	0.86440 0.96144 0.83426 -0.35600
O 	O 	0.62020 0.97987 0.76646 -0.48200
O 	O 	0.63750 0.84402 0.78806 -0.39600
C 	C 	0.56530 0.90980 0.77924 0.39700
C 	C 	0.41220 0.90970 0.78208 -0.14400
H 	H 	0.36730 0.96280 0.78400 0.08700
O 	O 	0.88560 0.78856 0.83426 -0.35500
O 	O 	0.62020 0.47987 0.26646 -0.48200
O 	O 	0.63750 0.34402 0.28806 -0.39700
C 	C 	0.56530 0.40980 0.27924 0.39700
C 	C 	0.41220 0.40970 0.28208 -0.14400
H 	H 	0.36730 0.46280 0.28400 0.08700
O 	O 	0.88560 0.28856 0.33426 -0.35500
O 	O 	0.12020 0.97987 0.26646 -0.48100
O 	O 	0.13750 0.84402 0.28806 -0.39700
C 	C 	0.06530 0.90980 0.27924 0.39900
C 	C 	0.91220 0.90970 0.28208 -0.14700
H 	H 	0.86730 0.96280 0.28400 0.08700
O 	O 	0.38560 0.78856 0.33426 -0.35500
O 	O 	0.12020 0.47987 0.76646 -0.48200
O 	O 	0.13750 0.34402 0.78806 -0.39700
C 	C 	0.06530 0.40980 0.77924 0.39700
C 	C 	0.91220 0.40970 0.78208 -0.14400
H 	H 	0.86730 0.46280 0.78400 0.08700
O 	O 	0.38560 0.28856 0.83426 -0.35500
Gd	Gd	0.12500 0.62500 0.50944 1.52400
Gd	Gd	0.12500 0.12500 0.00944 1.51900
Gd	Gd	0.62500 0.62500 0.00944 1.52500
Gd	Gd	0.62500 0.12500 0.50944 1.52400
Gd	Gd	0.62500 0.62500 0.24056 1.52300
Gd	Gd	0.62500 0.12500 0.74056 1.52400
Gd	Gd	0.12500 0.12500 0.24056 1.52000
Gd	Gd	0.12500 0.62500 0.74056 1.52500
Gd	Gd	0.87500 0.37500 0.49056 1.52400
Gd	Gd	0.87500 0.87500 0.99056 1.51900
Gd	Gd	0.37500 0.87500 0.49056 1.52400
Gd	Gd	0.37500 0.37500 0.99056 1.52500
Gd	Gd	0.37500 0.37500 0.75944 1.52300
Gd	Gd	0.37500 0.87500 0.25944 1.52400
Gd	Gd	0.87500 0.87500 0.75944 1.52000
Gd	Gd	0.87500 0.37500 0.25944 1.52500
C 	C 	0.12500 0.57450 0.62500 0.26400
C 	C 	0.12500 0.07450 0.12500 0.26300
C 	C 	0.62500 0.07450 0.62500 0.26300
C 	C 	0.62500 0.17550 0.62500 0.26400
C 	C 	0.62500 0.67550 0.12500 0.26300
C 	C 	0.62500 0.57450 0.12500 0.26300
C 	C 	0.12500 0.17550 0.12500 0.26300
C 	C 	0.12500 0.67550 0.62500 0.26400
C 	C 	0.87500 0.42550 0.37500 0.26400
C 	C 	0.87500 0.92550 0.87500 0.26300
C 	C 	0.37500 0.82450 0.37500 0.26400
C 	C 	0.37500 0.32450 0.87500 0.26300
C 	C 	0.37500 0.42550 0.87500 0.26300
C 	C 	0.37500 0.92550 0.37500 0.26300
C 	C 	0.87500 0.82450 0.87500 0.26300
C 	C 	0.87500 0.32450 0.37500 0.26400
