data_crystal

_cell_length_a 9.10600
_cell_length_b 9.10600
_cell_length_c 14.45220
_cell_angle_alpha 79.77370
_cell_angle_beta  79.77370
_cell_angle_gamma 115.87800

_symmetry_space_group_name_	'P 1'
_symmetry_space_group_name_H-M	'P 1'

loop_
_symmetry_equiv_pos_as_xyz
  x,y,z

loop_
_atom_site_label
_atom_site_type_symbol
_atom_site_fract_x
_atom_site_fract_y
_atom_site_fract_z
_atom_site_charge
Gd	Gd	0.50938 0.75938 0.98124 1.53300
Gd	Gd	0.74062 0.99062 0.51876 1.53100
Gd	Gd	0.49062 0.24062 0.01876 1.53300
Gd	Gd	0.25938 0.00938 0.48124 1.53100
H 	H 	0.09500 0.17900 0.94600 0.09700
H 	H 	0.95900 0.37500 0.94600 0.09400
H 	H 	0.32100 0.40500 0.55400 0.09600
H 	H 	0.12500 0.54100 0.55400 0.09600
H 	H 	0.90500 0.82100 0.05400 0.09800
H 	H 	0.04100 0.62500 0.05400 0.09500
H 	H 	0.67900 0.59500 0.44600 0.09600
H 	H 	0.87500 0.45900 0.44600 0.09600
C 	C 	0.25399 0.43439 0.94182 0.40900
C 	C 	0.10377 0.28497 0.93566 -0.16200
C 	C 	0.80419 0.12379 0.94182 0.41000
C 	C 	0.96057 0.27937 0.93566 -0.14900
C 	C 	0.06561 0.24601 0.55818 0.40300
C 	C 	0.21503 0.39623 0.56434 -0.15400
C 	C 	0.37621 0.69581 0.55818 0.40600
C 	C 	0.22063 0.53943 0.56434 -0.15600
C 	C 	0.74601 0.56561 0.05818 0.40900
C 	C 	0.89623 0.71503 0.06434 -0.16200
C 	C 	0.19581 0.87621 0.05818 0.41000
C 	C 	0.03943 0.72063 0.06434 -0.14900
C 	C 	0.93439 0.75399 0.44182 0.40300
C 	C 	0.78497 0.60377 0.43566 -0.15400
C 	C 	0.62379 0.30419 0.44182 0.40600
C 	C 	0.77937 0.46057 0.43566 -0.15600
C 	C 	0.67490 0.82510 0.75000 0.26200
C 	C 	0.57510 0.92490 0.75000 0.26200
C 	C 	0.32510 0.17490 0.25000 0.26200
C 	C 	0.42490 0.07510 0.25000 0.26200
O 	O 	0.36656 0.40624 0.96720 -0.48600
O 	O 	0.26926 0.58068 0.92426 -0.40400
O 	O 	0.65994 0.73776 0.83170 -0.35600
O 	O 	0.66624 0.12656 0.96720 -0.48500
O 	O 	0.80648 0.99506 0.92426 -0.40600
O 	O 	0.50836 0.93054 0.83170 -0.35600
O 	O 	0.09376 0.13344 0.53280 -0.48600
O 	O 	0.91932 0.23074 0.57574 -0.40000
O 	O 	0.76224 0.84006 0.66830 -0.35600
O 	O 	0.37344 0.83376 0.53280 -0.48500
O 	O 	0.50494 0.69352 0.57574 -0.40300
O 	O 	0.56946 0.99164 0.66830 -0.35600
O 	O 	0.63344 0.59376 0.03280 -0.48600
O 	O 	0.73074 0.41932 0.07574 -0.40400
O 	O 	0.34006 0.26224 0.16830 -0.35600
O 	O 	0.33376 0.87344 0.03280 -0.48500
O 	O 	0.19352 0.00494 0.07574 -0.40600
O 	O 	0.49164 0.06946 0.16830 -0.35600
O 	O 	0.90624 0.86656 0.46720 -0.48600
O 	O 	0.08068 0.76926 0.42426 -0.40000
O 	O 	0.23776 0.15994 0.33170 -0.35600
O 	O 	0.62656 0.16624 0.46720 -0.48500
O 	O 	0.49506 0.30648 0.42426 -0.40300
O 	O 	0.43054 0.00836 0.33170 -0.35600
