data_crystal

_cell_length_a 9.40920
_cell_length_b 10.33760
_cell_length_c 24.35300
_cell_angle_alpha 93.97800
_cell_angle_beta  90.00000
_cell_angle_gamma 90.00000

_symmetry_space_group_name_	'P 1'
_symmetry_space_group_name_H-M	'P 1'

loop_
_symmetry_equiv_pos_as_xyz
  x,y,z

loop_
_atom_site_label
_atom_site_type_symbol
_atom_site_fract_x
_atom_site_fract_y
_atom_site_fract_z
_atom_site_charge
Co	Co	0.50000 0.50000 0.50000 1.12400
Co	Co	0.50000 0.50000 -0.00000 1.10700
Co	Co	0.16351 0.00000 0.25000 1.13700
Co	Co	0.83649 0.00000 0.75000 1.13700
H 	H 	0.53970 0.10200 0.45090 0.11700
H 	H 	0.76630 0.82820 0.36680 0.09100
H 	H 	0.88680 0.20040 0.36860 0.05900
H 	H 	0.37530 0.30240 0.41350 -0.03800
H 	H 	0.19800 0.27350 0.35050 0.15300
H 	H 	0.09670 0.64640 0.37940 0.15400
H 	H 	0.27440 0.66100 0.44350 -0.02600
H 	H 	0.01700 0.61420 0.29030 0.06300
H 	H 	0.89430 0.57510 0.32990 0.06100
H 	H 	0.82990 0.69210 0.23410 0.06100
H 	H 	0.72880 0.59630 0.19950 0.06500
H 	H 	0.61690 0.78550 0.19750 0.15200
H 	H 	0.41850 0.90950 0.18980 -0.03600
H 	H 	0.25020 0.77810 0.31990 -0.03200
H 	H 	0.44560 0.65450 0.33330 0.15500
H 	H 	0.57560 0.82810 0.46180 0.15800
H 	H 	0.53970 0.89800 0.04910 0.10300
H 	H 	0.76630 0.17180 0.13320 0.15200
H 	H 	0.88680 0.79960 0.13140 0.10200
H 	H 	0.37530 0.69760 0.08650 -0.03700
H 	H 	0.19800 0.72650 0.14950 0.15200
H 	H 	0.09670 0.35360 0.12060 0.14600
H 	H 	0.27440 0.33900 0.05650 -0.04000
H 	H 	0.01700 0.38580 0.20970 0.05900
H 	H 	0.89430 0.42490 0.17010 0.05500
H 	H 	0.82990 0.30790 0.26590 0.05600
H 	H 	0.72880 0.40370 0.30050 0.06400
H 	H 	0.61690 0.21450 0.30250 0.14800
H 	H 	0.41850 0.09050 0.31020 -0.05600
H 	H 	0.25020 0.22190 0.18010 -0.04100
H 	H 	0.44560 0.34550 0.16670 0.15400
H 	H 	0.57560 0.17190 0.03820 0.14100
H 	H 	0.46030 0.89800 0.54910 0.11300
H 	H 	0.23370 0.17180 0.63320 0.15400
H 	H 	0.11320 0.79960 0.63140 0.10500
H 	H 	0.62470 0.69760 0.58650 -0.03400
H 	H 	0.80200 0.72650 0.64950 0.15300
H 	H 	0.90330 0.35360 0.62060 0.14800
H 	H 	0.72560 0.33900 0.55650 -0.03000
H 	H 	0.98300 0.38580 0.70970 0.05900
H 	H 	0.10570 0.42490 0.67010 0.05700
H 	H 	0.17010 0.30790 0.76590 0.05600
H 	H 	0.27120 0.40370 0.80050 0.06500
H 	H 	0.38310 0.21450 0.80250 0.14700
H 	H 	0.58150 0.09050 0.81020 -0.05500
H 	H 	0.74980 0.22190 0.68010 -0.04000
H 	H 	0.55440 0.34550 0.66670 0.15400
H 	H 	0.42440 0.17190 0.53820 0.15300
H 	H 	0.46030 0.10200 0.95090 0.12700
H 	H 	0.23370 0.82820 0.86680 0.09300
H 	H 	0.11320 0.20040 0.86860 0.06200
H 	H 	0.62470 0.30240 0.91350 -0.03500
H 	H 	0.80200 0.27350 0.85050 0.15400
H 	H 	0.90330 0.64640 0.87940 0.15500
H 	H 	0.72560 0.66100 0.94350 -0.01500
H 	H 	0.98300 0.61420 0.79030 0.06400
H 	H 	0.10570 0.57510 0.82990 0.06300
H 	H 	0.17010 0.69210 0.73410 0.06100
H 	H 	0.27120 0.59630 0.69950 0.06500
H 	H 	0.38310 0.78550 0.69750 0.15200
H 	H 	0.58150 0.90950 0.68980 -0.03500
H 	H 	0.74980 0.77810 0.81990 -0.03100
H 	H 	0.55440 0.65450 0.83330 0.15600
H 	H 	0.42440 0.82810 0.96180 0.17100
C 	C 	0.68100 0.31210 0.43069 0.33000
C 	C 	0.70990 0.17160 0.41234 -0.01600
C 	C 	0.61660 0.07830 0.42836 -0.21600
C 	C 	0.63750 0.94950 0.41090 0.27300
C 	C 	0.75260 0.91480 0.37861 -0.09300
C 	C 	0.84860 0.00730 0.36342 -0.12800
C 	C 	0.82490 0.13710 0.37974 -0.01400
C 	C 	0.97300 0.96730 0.32752 0.44400
C 	C 	0.31840 0.37300 0.40660 0.17000
C 	C 	0.21390 0.35510 0.36790 -0.30500
C 	C 	0.13300 0.45860 0.35490 0.32200
C 	C 	0.15340 0.57480 0.38501 -0.30900
C 	C 	0.26030 0.58180 0.42375 0.17400
C 	C 	0.95470 0.54400 0.29948 -0.00800
C 	C 	0.77260 0.61440 0.23523 -0.00900
C 	C 	0.55340 0.70560 0.26720 0.32500
C 	C 	0.54420 0.78340 0.22330 -0.30400
C 	C 	0.42460 0.85700 0.21923 0.18000
C 	C 	0.32590 0.78120 0.29549 0.18800
C 	C 	0.44200 0.70570 0.30341 -0.30300
C 	C 	0.68100 0.68790 0.06931 0.32000
C 	C 	0.70990 0.82840 0.08766 0.01600
C 	C 	0.61660 0.92170 0.07164 -0.14700
C 	C 	0.63750 0.05050 0.08910 0.24200
C 	C 	0.75260 0.08520 0.12139 -0.30100
C 	C 	0.84860 0.99270 0.13658 0.14700
C 	C 	0.82490 0.86290 0.12026 -0.13200
C 	C 	0.97300 0.03270 0.17248 0.18100
C 	C 	0.31840 0.62700 0.09340 0.16700
C 	C 	0.21390 0.64490 0.13210 -0.30400
C 	C 	0.13300 0.54140 0.14510 0.32000
C 	C 	0.15340 0.42520 0.11499 -0.31100
C 	C 	0.26030 0.41820 0.07625 0.17200
C 	C 	0.95470 0.45600 0.20052 -0.00300
C 	C 	0.77260 0.38560 0.26477 -0.00700
C 	C 	0.55340 0.29440 0.23280 0.32400
C 	C 	0.54420 0.21660 0.27670 -0.31300
C 	C 	0.42460 0.14300 0.28077 0.17500
C 	C 	0.32590 0.21880 0.20451 0.18100
C 	C 	0.44200 0.29430 0.19659 -0.30600
C 	C 	0.31900 0.68790 0.56931 0.31900
C 	C 	0.29010 0.82840 0.58766 0.02500
C 	C 	0.38340 0.92170 0.57164 -0.15100
C 	C 	0.36250 0.05050 0.58910 0.25000
C 	C 	0.24740 0.08520 0.62139 -0.30300
C 	C 	0.15140 0.99270 0.63658 0.15100
C 	C 	0.17510 0.86290 0.62026 -0.13400
C 	C 	0.02700 0.03270 0.67248 0.18200
C 	C 	0.68160 0.62700 0.59340 0.16900
C 	C 	0.78610 0.64490 0.63210 -0.30200
C 	C 	0.86700 0.54140 0.64510 0.32000
C 	C 	0.84660 0.42520 0.61499 -0.30800
C 	C 	0.73970 0.41820 0.57625 0.17300
C 	C 	0.04530 0.45600 0.70052 -0.00500
C 	C 	0.22740 0.38560 0.76477 -0.00800
C 	C 	0.44660 0.29440 0.73280 0.32400
C 	C 	0.45580 0.21660 0.77670 -0.31200
C 	C 	0.57540 0.14300 0.78077 0.17400
C 	C 	0.67410 0.21880 0.70451 0.18100
C 	C 	0.55800 0.29430 0.69659 -0.30600
C 	C 	0.31900 0.31210 0.93069 0.32600
C 	C 	0.29010 0.17160 0.91234 -0.00600
C 	C 	0.38340 0.07830 0.92836 -0.22000
C 	C 	0.36250 0.94950 0.91090 0.28100
C 	C 	0.24740 0.91480 0.87861 -0.09800
C 	C 	0.15140 0.00730 0.86342 -0.12100
C 	C 	0.17510 0.13710 0.87974 -0.01800
C 	C 	0.02700 0.96730 0.82752 0.44200
C 	C 	0.68160 0.37300 0.90660 0.17200
C 	C 	0.78610 0.35510 0.86790 -0.30300
C 	C 	0.86700 0.45860 0.85490 0.32200
C 	C 	0.84660 0.57480 0.88501 -0.30500
C 	C 	0.73970 0.58180 0.92375 0.17500
C 	C 	0.04530 0.54400 0.79948 -0.01000
C 	C 	0.22740 0.61440 0.73523 -0.01000
C 	C 	0.44660 0.70560 0.76720 0.32500
C 	C 	0.45580 0.78340 0.72330 -0.30300
C 	C 	0.57540 0.85700 0.71923 0.18000
C 	C 	0.67410 0.78120 0.79549 0.18800
C 	C 	0.55800 0.70570 0.80341 -0.30200
C 	C 	0.86450 0.50000 0.25000 0.04300
C 	C 	0.13550 0.50000 0.75000 0.04400
N 	N 	0.34380 0.48560 0.43503 -0.28000
N 	N 	0.31600 0.85900 0.25446 -0.28200
N 	N 	0.34380 0.51440 0.06497 -0.28400
N 	N 	0.31600 0.14100 0.24554 -0.29700
N 	N 	0.65620 0.51440 0.56497 -0.27900
N 	N 	0.68400 0.14100 0.74554 -0.29700
N 	N 	0.65620 0.48560 0.93503 -0.27100
N 	N 	0.68400 0.85900 0.75446 -0.28200
O 	O 	0.74280 0.39660 0.40581 -0.28900
O 	O 	0.59290 0.33270 0.46802 -0.44400
O 	O 	0.06070 0.05400 0.31751 -0.49700
O 	O 	0.98480 0.85690 0.30850 -0.35300
O 	O 	0.54270 0.86570 0.42920 -0.33700
O 	O 	0.03620 0.43660 0.31453 -0.25100
O 	O 	0.66510 0.63150 0.27748 -0.24900
O 	O 	0.74280 0.60340 0.09419 -0.29200
O 	O 	0.59290 0.66730 0.03198 -0.45300
O 	O 	0.06070 0.94600 0.18249 -0.37100
O 	O 	0.98480 0.14310 0.19150 -0.29700
O 	O 	0.54270 0.13430 0.07080 -0.35400
O 	O 	0.03620 0.56340 0.18547 -0.25200
O 	O 	0.66510 0.36850 0.22252 -0.25300
O 	O 	0.25720 0.60340 0.59419 -0.28600
O 	O 	0.40710 0.66730 0.53198 -0.43800
O 	O 	0.93930 0.94600 0.68249 -0.37000
O 	O 	0.01520 0.14310 0.69150 -0.29600
O 	O 	0.45730 0.13430 0.57080 -0.35300
O 	O 	0.96380 0.56340 0.68547 -0.25100
O 	O 	0.33490 0.36850 0.72252 -0.25300
O 	O 	0.25720 0.39660 0.90581 -0.28100
O 	O 	0.40710 0.33270 0.96802 -0.42200
O 	O 	0.93930 0.05400 0.81751 -0.49400
O 	O 	0.01520 0.85690 0.80850 -0.35200
O 	O 	0.45730 0.86570 0.92920 -0.33600
O 	O 	0.96380 0.43660 0.81453 -0.25000
O 	O 	0.33490 0.63150 0.77748 -0.24900
