data_crystal

_cell_length_a 9.29600
_cell_length_b 25.56200
_cell_length_c 7.81100
_cell_angle_alpha 90.00000
_cell_angle_beta  97.27000
_cell_angle_gamma 90.00000

_symmetry_space_group_name_	'P 1'
_symmetry_space_group_name_H-M	'P 1'

loop_
_symmetry_equiv_pos_as_xyz
  x,y,z

loop_
_atom_site_label
_atom_site_type_symbol
_atom_site_fract_x
_atom_site_fract_y
_atom_site_fract_z
_atom_site_charge
Sm	Sm	0.51334 0.65038 0.58754 1.78400
O 	O 	0.49410 0.70606 0.33320 -0.45700
O 	O 	0.59510 0.76562 0.17650 -0.48600
O 	O 	0.26320 0.65598 0.49410 -0.49400
O 	O 	0.14170 0.58853 0.58840 -0.37700
O 	O 	0.19070 0.48361 0.43680 -0.39600
O 	O 	0.34030 0.50842 0.24850 -0.28000
O 	O 	0.70720 0.62278 0.80190 -0.48000
O 	O 	0.61620 0.61690 0.05160 -0.34400
N 	N 	0.75150 0.66621 0.45310 -0.20400
N 	N 	0.97010 0.53327 0.27150 -0.17900
C 	C 	0.60030 0.72770 0.27760 0.42400
C 	C 	0.74870 0.70460 0.33570 -0.06100
C 	C 	0.87100 0.72220 0.26890 0.04800
C 	C 	0.00380 0.69900 0.32730 0.00100
C 	C 	0.00850 0.65870 0.44690 -0.18900
C 	C 	0.87960 0.64330 0.50610 0.13900
C 	C 	0.14840 0.63160 0.51540 0.40600
C 	C 	0.22060 0.50760 0.30220 0.29400
C 	C 	0.09590 0.53640 0.20130 -0.05100
C 	C 	0.10610 0.56430 0.05030 -0.07400
C 	C 	0.98080 0.58820 0.96910 0.14200
C 	C 	0.85160 0.58460 0.04070 -0.18600
C 	C 	0.84990 0.55680 0.19390 0.11300
C 	C 	0.71370 0.61010 0.95830 0.43800
Sm	Sm	0.48666 0.15038 0.91246 1.79100
O 	O 	0.50590 0.20606 0.16680 -0.45500
O 	O 	0.40490 0.26562 0.32350 -0.48100
O 	O 	0.73680 0.15598 0.00590 -0.50000
O 	O 	0.85830 0.08853 0.91160 -0.35200
O 	O 	0.80930 0.98361 0.06320 -0.35200
O 	O 	0.65970 0.00842 0.25150 -0.28300
O 	O 	0.29280 0.12278 0.69810 -0.47200
O 	O 	0.38380 0.11690 0.44840 -0.32300
N 	N 	0.24850 0.16621 0.04690 -0.21000
N 	N 	0.02990 0.03327 0.22850 -0.23500
C 	C 	0.39970 0.22770 0.22240 0.41700
C 	C 	0.25130 0.20460 0.16430 -0.04100
C 	C 	0.12900 0.22220 0.23110 -0.05300
C 	C 	0.99620 0.19900 0.17270 0.10400
C 	C 	0.99150 0.15870 0.05310 -0.12700
C 	C 	0.12040 0.14330 0.99390 0.07200
C 	C 	0.85160 0.13160 0.98460 0.41200
C 	C 	0.77940 0.00760 0.19780 0.25600
C 	C 	0.90410 0.03640 0.29870 -0.00400
C 	C 	0.89390 0.06430 0.44970 0.03000
C 	C 	0.01920 0.08820 0.53090 -0.00900
C 	C 	0.14840 0.08460 0.45930 -0.12500
C 	C 	0.15010 0.05680 0.30610 0.07300
C 	C 	0.28630 0.11010 0.54170 0.38500
Sm	Sm	0.48666 0.34962 0.41246 1.77400
O 	O 	0.50590 0.29394 0.66680 -0.45100
O 	O 	0.40490 0.23438 0.82350 -0.48100
O 	O 	0.73680 0.34402 0.50590 -0.48600
O 	O 	0.85830 0.41147 0.41160 -0.34600
O 	O 	0.80930 0.51639 0.56320 -0.38000
O 	O 	0.65970 0.49158 0.75150 -0.27700
O 	O 	0.29280 0.37722 0.19810 -0.46400
O 	O 	0.38380 0.38310 0.94840 -0.30700
N 	N 	0.24850 0.33379 0.54690 -0.19800
N 	N 	0.02990 0.46673 0.72850 -0.22400
C 	C 	0.39970 0.27230 0.72240 0.41800
C 	C 	0.25130 0.29540 0.66430 -0.04300
C 	C 	0.12900 0.27780 0.73110 -0.04200
C 	C 	0.99620 0.30100 0.67270 0.09100
C 	C 	0.99150 0.34130 0.55310 -0.10400
C 	C 	0.12040 0.35670 0.49390 0.04800
C 	C 	0.85160 0.36840 0.48460 0.39300
C 	C 	0.77940 0.49240 0.69780 0.29000
C 	C 	0.90410 0.46360 0.79870 -0.01400
C 	C 	0.89390 0.43570 0.94970 0.05200
C 	C 	0.01920 0.41180 0.03090 -0.03300
C 	C 	0.14840 0.41540 0.95930 -0.09300
C 	C 	0.15010 0.44320 0.80610 0.07700
C 	C 	0.28630 0.38990 0.04170 0.36200
Sm	Sm	0.51334 0.84962 0.08754 1.73200
O 	O 	0.49410 0.79394 0.83320 -0.44500
O 	O 	0.59510 0.73438 0.67650 -0.48400
O 	O 	0.26320 0.84402 0.99410 -0.44800
O 	O 	0.14170 0.91147 0.08840 -0.36000
O 	O 	0.19070 0.01639 0.93680 -0.41300
O 	O 	0.34030 0.99158 0.74850 -0.27100
O 	O 	0.70720 0.87722 0.30190 -0.46500
O 	O 	0.61620 0.88310 0.55160 -0.31700
N 	N 	0.75150 0.83379 0.95310 -0.18100
N 	N 	0.97010 0.96673 0.77150 -0.16800
C 	C 	0.60030 0.77230 0.77760 0.42700
C 	C 	0.74870 0.79540 0.83570 -0.06200
C 	C 	0.87100 0.77780 0.76890 0.05800
C 	C 	0.00380 0.80100 0.82730 -0.00800
C 	C 	0.00850 0.84130 0.94690 -0.12000
C 	C 	0.87960 0.85670 0.00610 0.09100
C 	C 	0.14840 0.86840 0.01540 0.33400
C 	C 	0.22060 0.99240 0.80220 0.33000
C 	C 	0.09590 0.96360 0.70130 -0.05400
C 	C 	0.10610 0.93570 0.55030 -0.04200
C 	C 	0.98080 0.91180 0.46910 0.11200
C 	C 	0.85160 0.91540 0.54070 -0.14700
C 	C 	0.84990 0.94320 0.69390 0.11500
C 	C 	0.71370 0.88990 0.45830 0.40100
Cu	Cu	0.00000 0.50000 0.50000 0.89700
Cu	Cu	-0.00000 0.00000 -0.00000 0.87700
