data_crystal

_cell_length_a 9.17210
_cell_length_b 25.40000
_cell_length_c 7.73850
_cell_angle_alpha 90.00000
_cell_angle_beta  97.33900
_cell_angle_gamma 90.00000

_symmetry_space_group_name_	'P 1'
_symmetry_space_group_name_H-M	'P 1'

loop_
_symmetry_equiv_pos_as_xyz
  x,y,z

loop_
_atom_site_label
_atom_site_type_symbol
_atom_site_fract_x
_atom_site_fract_y
_atom_site_fract_z
_atom_site_charge
Er	Er	0.51120 0.65115 0.58771 1.52900
O 	O 	0.48600 0.70740 0.34100 -0.41600
O 	O 	0.58470 0.76690 0.18150 -0.44600
O 	O 	0.26610 0.65650 0.49430 -0.44900
O 	O 	0.14290 0.58830 0.59030 -0.36200
O 	O 	0.19250 0.48310 0.43580 -0.38500
O 	O 	0.34550 0.50870 0.24850 -0.26300
O 	O 	0.70150 0.62430 0.79760 -0.44600
O 	O 	0.61220 0.61820 0.05110 -0.32300
N 	N 	0.74740 0.66730 0.46020 -0.19000
N 	N 	0.96940 0.53370 0.26900 -0.18000
C 	C 	0.59310 0.72860 0.28520 0.41100
C 	C 	0.74380 0.70620 0.34290 -0.05600
C 	C 	0.86740 0.72330 0.27560 0.05300
C 	C 	0.00100 0.70020 0.32910 0.00600
C 	C 	0.00620 0.65930 0.45090 -0.18600
C 	C 	0.87690 0.64400 0.51130 0.14800
C 	C 	0.14840 0.63210 0.51750 0.38900
C 	C 	0.22450 0.50800 0.30140 0.29300
C 	C 	0.09700 0.53740 0.19980 -0.04700
C 	C 	0.10750 0.56600 0.04800 -0.06900
C 	C 	0.98040 0.59020 0.96710 0.14600
C 	C 	0.84930 0.58620 0.03910 -0.18900
C 	C 	0.84900 0.55760 0.19170 0.12500
C 	C 	0.71070 0.61160 0.95680 0.43200
Er	Er	0.48880 0.15115 0.91229 1.53800
O 	O 	0.51400 0.20740 0.15900 -0.41200
O 	O 	0.41530 0.26690 0.31850 -0.43900
O 	O 	0.73390 0.15650 0.00570 -0.45600
O 	O 	0.85710 0.08830 0.90970 -0.33600
O 	O 	0.80750 0.98310 0.06420 -0.34000
O 	O 	0.65450 0.00870 0.25150 -0.26600
O 	O 	0.29850 0.12430 0.70240 -0.43800
O 	O 	0.38780 0.11820 0.44890 -0.30300
N 	N 	0.25260 0.16730 0.03980 -0.19700
N 	N 	0.03060 0.03370 0.23100 -0.23600
C 	C 	0.40690 0.22860 0.21480 0.40200
C 	C 	0.25620 0.20620 0.15710 -0.03300
C 	C 	0.13260 0.22330 0.22440 -0.05300
C 	C 	0.99900 0.20020 0.17090 0.11200
C 	C 	0.99380 0.15930 0.04910 -0.12500
C 	C 	0.12310 0.14400 0.98870 0.08200
C 	C 	0.85160 0.13210 0.98250 0.39700
C 	C 	0.77550 0.00800 0.19860 0.25400
C 	C 	0.90300 0.03740 0.30020 0.00100
C 	C 	0.89250 0.06600 0.45200 0.03500
C 	C 	0.01960 0.09020 0.53290 -0.00500
C 	C 	0.15070 0.08620 0.46090 -0.12800
C 	C 	0.15100 0.05760 0.30830 0.08400
C 	C 	0.28930 0.11160 0.54320 0.37900
Er	Er	0.48880 0.34885 0.41229 1.52000
O 	O 	0.51400 0.29260 0.65900 -0.40800
O 	O 	0.41530 0.23310 0.81850 -0.43800
O 	O 	0.73390 0.34350 0.50570 -0.44100
O 	O 	0.85710 0.41170 0.40970 -0.32900
O 	O 	0.80750 0.51690 0.56420 -0.36800
O 	O 	0.65450 0.49130 0.75150 -0.26000
O 	O 	0.29850 0.37570 0.20240 -0.42900
O 	O 	0.38780 0.38180 0.94890 -0.28600
N 	N 	0.25260 0.33270 0.53980 -0.18400
N 	N 	0.03060 0.46630 0.73100 -0.22400
C 	C 	0.40690 0.27140 0.71480 0.40400
C 	C 	0.25620 0.29380 0.65710 -0.03600
C 	C 	0.13260 0.27670 0.72440 -0.04100
C 	C 	0.99900 0.29980 0.67090 0.09900
C 	C 	0.99380 0.34070 0.54910 -0.09900
C 	C 	0.12310 0.35600 0.48870 0.05600
C 	C 	0.85160 0.36790 0.48250 0.37500
C 	C 	0.77550 0.49200 0.69860 0.28900
C 	C 	0.90300 0.46260 0.80020 -0.00900
C 	C 	0.89250 0.43400 0.95200 0.05700
C 	C 	0.01960 0.40980 0.03290 -0.03000
C 	C 	0.15070 0.41380 0.96090 -0.09500
C 	C 	0.15100 0.44240 0.80830 0.08800
C 	C 	0.28930 0.38840 0.04320 0.35400
Er	Er	0.51120 0.84885 0.08771 1.48400
O 	O 	0.48600 0.79260 0.84100 -0.40300
O 	O 	0.58470 0.73310 0.68150 -0.44200
O 	O 	0.26610 0.84350 0.99430 -0.40400
O 	O 	0.14290 0.91170 0.09030 -0.34400
O 	O 	0.19250 0.01690 0.93580 -0.40200
O 	O 	0.34550 0.99130 0.74850 -0.25400
O 	O 	0.70150 0.87570 0.29760 -0.43200
O 	O 	0.61220 0.88180 0.55110 -0.29800
N 	N 	0.74740 0.83270 0.96020 -0.16800
N 	N 	0.96940 0.96630 0.76900 -0.16900
C 	C 	0.59310 0.77140 0.78520 0.41400
C 	C 	0.74380 0.79380 0.84290 -0.05700
C 	C 	0.86740 0.77670 0.77560 0.06200
C 	C 	0.00100 0.79980 0.82910 -0.00300
C 	C 	0.00620 0.84070 0.95090 -0.11900
C 	C 	0.87690 0.85600 0.01130 0.10100
C 	C 	0.14840 0.86790 0.01750 0.32000
C 	C 	0.22450 0.99200 0.80140 0.32900
C 	C 	0.09700 0.96260 0.69980 -0.04900
C 	C 	0.10750 0.93400 0.54800 -0.03700
C 	C 	0.98040 0.90980 0.46710 0.11600
C 	C 	0.84930 0.91380 0.53910 -0.15100
C 	C 	0.84900 0.94240 0.69170 0.12700
C 	C 	0.71070 0.88840 0.45680 0.39500
Cu	Cu	0.00000 0.50000 0.50000 0.89900
Cu	Cu	-0.00000 0.00000 -0.00000 0.87800
