data_crystal

_cell_length_a 13.43330
_cell_length_b 13.84930
_cell_length_c 26.74770
_cell_angle_alpha 90.00000
_cell_angle_beta  101.55000
_cell_angle_gamma 90.00000

_symmetry_space_group_name_	'P 1'
_symmetry_space_group_name_H-M	'P 1'

loop_
_symmetry_equiv_pos_as_xyz
  x,y,z

loop_
_atom_site_label
_atom_site_type_symbol
_atom_site_fract_x
_atom_site_fract_y
_atom_site_fract_z
_atom_site_charge
Fe	Fe	0.47925 0.36603 0.22908 1.06100
Fe	Fe	0.48841 0.61244 0.25751 1.06000
N 	N 	0.47040 0.79710 0.69680 -0.25100
N 	N 	0.49750 0.70170 0.70269 -0.25400
N 	N 	0.50130 0.67970 0.32583 -0.25000
N 	N 	0.61450 0.53650 0.25217 -0.25400
N 	N 	0.60490 0.44650 0.23087 -0.25200
N 	N 	0.51970 0.77670 0.33012 -0.25500
N 	N 	0.35120 0.44260 0.22759 -0.25400
N 	N 	0.36110 0.53320 0.24901 -0.25700
C 	C 	0.26790 0.56200 0.25456 0.02000
H 	H 	0.25350 0.62190 0.26890 -0.00800
C 	C 	0.19580 0.49130 0.23616 -0.04400
C 	C 	0.25310 0.41710 0.21996 0.02200
H 	H 	0.22620 0.35750 0.20570 -0.00900
C 	C 	0.08530 0.49280 0.23573 0.03000
C 	C 	0.04340 0.56750 0.25957 -0.06100
H 	H 	0.08570 0.61850 0.27530 0.04500
C 	C 	0.94020 0.56830 0.26064 -0.05900
H 	H 	0.91270 0.61980 0.27700 0.04300
C 	C 	0.87670 0.49360 0.23765 0.02800
C 	C 	0.91920 0.41930 0.21394 -0.06000
H 	H 	0.87740 0.36800 0.19830 0.04400
C 	C 	0.02260 0.41920 0.21284 -0.06100
H 	H 	0.05030 0.36810 0.19620 0.04400
C 	C 	0.69740 0.42020 0.22255 0.01800
H 	H 	0.71240 0.36090 0.20780 -0.00500
C 	C 	0.76660 0.49320 0.23893 -0.04400
C 	C 	0.71100 0.56460 0.25706 0.02500
H 	H 	0.73750 0.62460 0.27090 -0.01400
C 	C 	0.48750 0.64660 0.37133 0.01900
H 	H 	0.47450 0.58120 0.37860 -0.00500
C 	C 	0.49510 0.72160 0.40601 -0.04200
C 	C 	0.51630 0.80230 0.37836 0.01700
H 	H 	0.52660 0.86590 0.39170 -0.00900
C 	C 	0.48540 0.72200 0.45981 0.02800
C 	C 	0.51080 0.64250 0.49144 -0.06100
H 	H 	0.53210 0.58450 0.47780 0.04600
C 	C 	0.50560 0.64640 0.54290 -0.06000
H 	H 	0.52400 0.59130 0.56390 0.04400
C 	C 	0.47360 0.73050 0.56401 0.03000
C 	C 	0.44370 0.80890 0.53168 -0.06100
H 	H 	0.41870 0.86580 0.54470 0.04300
C 	C 	0.45010 0.80440 0.48103 -0.05900
H 	H 	0.43000 0.85890 0.45980 0.04400
C 	C 	0.45510 0.81790 0.64696 0.02500
H 	H 	0.43400 0.87910 0.63260 -0.01300
C 	C 	0.47450 0.73700 0.61891 -0.04700
C 	C 	0.50070 0.66590 0.65635 0.02400
H 	H 	0.51820 0.60130 0.64990 -0.01700
Fe	Fe	0.52075 0.86603 0.27092 1.06200
Fe	Fe	0.51159 0.11244 0.24249 1.06100
N 	N 	0.52960 0.29710 0.80320 -0.25000
N 	N 	0.50250 0.20170 0.79731 -0.25300
N 	N 	0.49870 0.17970 0.17417 -0.24900
N 	N 	0.38550 0.03650 0.24783 -0.25300
N 	N 	0.39510 0.94650 0.26913 -0.25100
N 	N 	0.48030 0.27670 0.16988 -0.25400
N 	N 	0.64880 0.94260 0.27241 -0.25300
N 	N 	0.63890 0.03320 0.25099 -0.25600
C 	C 	0.73210 0.06200 0.24544 0.02000
H 	H 	0.74650 0.12190 0.23110 -0.00800
C 	C 	0.80420 0.99130 0.26384 -0.04400
C 	C 	0.74690 0.91710 0.28004 0.02200
H 	H 	0.77380 0.85750 0.29430 -0.00900
C 	C 	0.91470 0.99280 0.26427 0.03000
C 	C 	0.95660 0.06750 0.24043 -0.06100
H 	H 	0.91430 0.11850 0.22470 0.04500
C 	C 	0.05980 0.06830 0.23936 -0.05900
H 	H 	0.08730 0.11980 0.22300 0.04300
C 	C 	0.12330 0.99360 0.26235 0.02800
C 	C 	0.08080 0.91930 0.28606 -0.06000
H 	H 	0.12260 0.86800 0.30170 0.04400
C 	C 	0.97740 0.91920 0.28716 -0.06100
H 	H 	0.94970 0.86810 0.30380 0.04400
C 	C 	0.30260 0.92020 0.27745 0.01800
H 	H 	0.28760 0.86090 0.29220 -0.00500
C 	C 	0.23340 0.99320 0.26107 -0.04400
C 	C 	0.28900 0.06460 0.24294 0.02500
H 	H 	0.26250 0.12460 0.22910 -0.01400
C 	C 	0.51250 0.14660 0.12867 0.01900
H 	H 	0.52550 0.08120 0.12140 -0.00500
C 	C 	0.50490 0.22160 0.09399 -0.04300
C 	C 	0.48370 0.30230 0.12164 0.01700
H 	H 	0.47340 0.36590 0.10830 -0.00900
C 	C 	0.51460 0.22200 0.04019 0.02800
C 	C 	0.48920 0.14250 0.00856 -0.06100
H 	H 	0.46790 0.08450 0.02220 0.04600
C 	C 	0.49440 0.14640 0.95710 -0.06000
H 	H 	0.47600 0.09130 0.93610 0.04300
C 	C 	0.52640 0.23050 0.93599 0.02900
C 	C 	0.55630 0.30890 0.96832 -0.06100
H 	H 	0.58130 0.36580 0.95530 0.04300
C 	C 	0.54990 0.30440 0.01897 -0.05900
H 	H 	0.57000 0.35890 0.04020 0.04400
C 	C 	0.54490 0.31790 0.85304 0.02500
H 	H 	0.56600 0.37910 0.86740 -0.01300
C 	C 	0.52550 0.23700 0.88109 -0.04700
C 	C 	0.49930 0.16590 0.84365 0.02400
H 	H 	0.48180 0.10130 0.85010 -0.01700
Fe	Fe	0.52075 0.63397 0.77092 1.06200
Fe	Fe	0.51159 0.38756 0.74249 1.06100
N 	N 	0.52960 0.20290 0.30320 -0.25000
N 	N 	0.50250 0.29830 0.29731 -0.25300
N 	N 	0.49870 0.32030 0.67417 -0.24900
N 	N 	0.38550 0.46350 0.74783 -0.25300
N 	N 	0.39510 0.55350 0.76913 -0.25100
N 	N 	0.48030 0.22330 0.66988 -0.25400
N 	N 	0.64880 0.55740 0.77241 -0.25300
N 	N 	0.63890 0.46680 0.75099 -0.25600
C 	C 	0.73210 0.43800 0.74544 0.02000
H 	H 	0.74650 0.37810 0.73110 -0.00800
C 	C 	0.80420 0.50870 0.76384 -0.04400
C 	C 	0.74690 0.58290 0.78004 0.02200
H 	H 	0.77380 0.64250 0.79430 -0.00900
C 	C 	0.91470 0.50720 0.76427 0.03000
C 	C 	0.95660 0.43250 0.74043 -0.06100
H 	H 	0.91430 0.38150 0.72470 0.04500
C 	C 	0.05980 0.43170 0.73936 -0.05900
H 	H 	0.08730 0.38020 0.72300 0.04300
C 	C 	0.12330 0.50640 0.76235 0.02800
C 	C 	0.08080 0.58070 0.78606 -0.06000
H 	H 	0.12260 0.63200 0.80170 0.04400
C 	C 	0.97740 0.58080 0.78716 -0.06100
H 	H 	0.94970 0.63190 0.80380 0.04400
C 	C 	0.30260 0.57980 0.77745 0.01800
H 	H 	0.28760 0.63910 0.79220 -0.00500
C 	C 	0.23340 0.50680 0.76107 -0.04400
C 	C 	0.28900 0.43540 0.74294 0.02500
H 	H 	0.26250 0.37540 0.72910 -0.01400
C 	C 	0.51250 0.35340 0.62867 0.01900
H 	H 	0.52550 0.41880 0.62140 -0.00500
C 	C 	0.50490 0.27840 0.59399 -0.04200
C 	C 	0.48370 0.19770 0.62164 0.01700
H 	H 	0.47340 0.13410 0.60830 -0.00900
C 	C 	0.51460 0.27800 0.54019 0.02800
C 	C 	0.48920 0.35750 0.50856 -0.06100
H 	H 	0.46790 0.41550 0.52220 0.04600
C 	C 	0.49440 0.35360 0.45710 -0.06000
H 	H 	0.47600 0.40870 0.43610 0.04400
C 	C 	0.52640 0.26950 0.43599 0.03000
C 	C 	0.55630 0.19110 0.46832 -0.06100
H 	H 	0.58130 0.13420 0.45530 0.04300
C 	C 	0.54990 0.19560 0.51897 -0.05900
H 	H 	0.57000 0.14110 0.54020 0.04400
C 	C 	0.54490 0.18210 0.35304 0.02500
H 	H 	0.56600 0.12090 0.36740 -0.01300
C 	C 	0.52550 0.26300 0.38109 -0.04700
C 	C 	0.49930 0.33410 0.34365 0.02400
H 	H 	0.48180 0.39870 0.35010 -0.01700
Fe	Fe	0.47925 0.13397 0.72908 1.06200
Fe	Fe	0.48841 0.88756 0.75751 1.06100
N 	N 	0.47040 0.70290 0.19680 -0.25000
N 	N 	0.49750 0.79830 0.20269 -0.25300
N 	N 	0.50130 0.82030 0.82583 -0.24900
N 	N 	0.61450 0.96350 0.75217 -0.25300
N 	N 	0.60490 0.05350 0.73087 -0.25100
N 	N 	0.51970 0.72330 0.83012 -0.25400
N 	N 	0.35120 0.05740 0.72759 -0.25300
N 	N 	0.36110 0.96680 0.74901 -0.25600
C 	C 	0.26790 0.93800 0.75456 0.02000
H 	H 	0.25350 0.87810 0.76890 -0.00800
C 	C 	0.19580 0.00870 0.73616 -0.04400
C 	C 	0.25310 0.08290 0.71996 0.02200
H 	H 	0.22620 0.14250 0.70570 -0.00900
C 	C 	0.08530 0.00720 0.73573 0.03000
C 	C 	0.04340 0.93250 0.75957 -0.06100
H 	H 	0.08570 0.88150 0.77530 0.04500
C 	C 	0.94020 0.93170 0.76064 -0.05900
H 	H 	0.91270 0.88020 0.77700 0.04300
C 	C 	0.87670 0.00640 0.73765 0.02800
C 	C 	0.91920 0.08070 0.71394 -0.06000
H 	H 	0.87740 0.13200 0.69830 0.04400
C 	C 	0.02260 0.08080 0.71284 -0.06100
H 	H 	0.05030 0.13190 0.69620 0.04400
C 	C 	0.69740 0.07980 0.72255 0.01800
H 	H 	0.71240 0.13910 0.70780 -0.00500
C 	C 	0.76660 0.00680 0.73893 -0.04400
C 	C 	0.71100 0.93540 0.75706 0.02500
H 	H 	0.73750 0.87540 0.77090 -0.01400
C 	C 	0.48750 0.85340 0.87133 0.01900
H 	H 	0.47450 0.91880 0.87860 -0.00500
C 	C 	0.49510 0.77840 0.90601 -0.04300
C 	C 	0.51630 0.69770 0.87836 0.01700
H 	H 	0.52660 0.63410 0.89170 -0.00900
C 	C 	0.48540 0.77800 0.95981 0.02800
C 	C 	0.51080 0.85750 0.99144 -0.06100
H 	H 	0.53210 0.91550 0.97780 0.04600
C 	C 	0.50560 0.85360 0.04290 -0.06000
H 	H 	0.52400 0.90870 0.06390 0.04300
C 	C 	0.47360 0.76950 0.06401 0.02900
C 	C 	0.44370 0.69110 0.03168 -0.06100
H 	H 	0.41870 0.63420 0.04470 0.04300
C 	C 	0.45010 0.69560 0.98103 -0.05900
H 	H 	0.43000 0.64110 0.95980 0.04400
C 	C 	0.45510 0.68210 0.14696 0.02500
H 	H 	0.43400 0.62090 0.13260 -0.01300
C 	C 	0.47450 0.76300 0.11891 -0.04700
C 	C 	0.50070 0.83410 0.15635 0.02400
H 	H 	0.51820 0.89870 0.14990 -0.01700
