data_crystal

_cell_length_a 18.16300
_cell_length_b 19.93690
_cell_length_c 19.93690
_cell_angle_alpha 109.07000
_cell_angle_beta  108.00300
_cell_angle_gamma 71.99690

_symmetry_space_group_name_	'P 1'
_symmetry_space_group_name_H-M	'P 1'

loop_
_symmetry_equiv_pos_as_xyz
  x,y,z

loop_
_atom_site_label
_atom_site_type_symbol
_atom_site_fract_x
_atom_site_fract_y
_atom_site_fract_z
_atom_site_charge
Cd	Cd	0.89968 0.26249 0.94515 1.23900
Cd	Cd	0.93489 0.15746 0.77086 1.16300
Cd	Cd	0.66522 0.46833 0.34679 1.19500
Cd	Cd	0.60032 0.94515 0.26249 1.24000
Cd	Cd	0.56511 0.77086 0.15746 1.16400
Cd	Cd	0.83478 0.34679 0.46833 1.19500
Cd	Cd	0.10032 0.73751 0.05485 1.23900
Cd	Cd	0.06511 0.84254 0.22914 1.16300
Cd	Cd	0.33478 0.53167 0.65321 1.19500
Cd	Cd	0.39968 0.05485 0.73751 1.24000
Cd	Cd	0.43489 0.22914 0.84254 1.16400
Cd	Cd	0.16522 0.65321 0.53167 1.19500
H 	H 	0.67450 0.15940 0.84280 0.01000
H 	H 	0.65740 0.96160 0.70680 0.03200
H 	H 	0.86420 0.01930 0.78010 -0.01500
H 	H 	0.72370 0.89880 0.60260 0.10000
H 	H 	0.90500 0.72720 0.59660 0.08500
H 	H 	0.90690 0.89290 0.77390 0.09600
H 	H 	0.73720 0.86630 0.47950 0.02300
H 	H 	0.66340 0.69980 0.32260 -0.00400
H 	H 	0.78510 0.67120 0.52360 0.03600
H 	H 	0.04960 0.71720 0.64580 -0.01800
H 	H 	0.18520 0.65540 0.82540 0.04400
H 	H 	0.97340 0.79790 0.82850 0.04400
H 	H 	0.82550 0.84280 0.15940 0.01100
H 	H 	0.84260 0.70680 0.96160 0.03300
H 	H 	0.63580 0.78010 0.01930 -0.01500
H 	H 	0.77630 0.60260 0.89880 0.09900
H 	H 	0.59500 0.59660 0.72720 0.08400
H 	H 	0.59310 0.77390 0.89290 0.09500
H 	H 	0.76280 0.47950 0.86630 0.02200
H 	H 	0.83660 0.32260 0.69980 -0.00400
H 	H 	0.71490 0.52360 0.67120 0.03600
H 	H 	0.45040 0.64580 0.71720 -0.01600
H 	H 	0.31480 0.82540 0.65540 0.04500
H 	H 	0.52660 0.82850 0.79790 0.04900
H 	H 	0.32550 0.84060 0.15720 0.01000
H 	H 	0.34260 0.03840 0.29320 0.03200
H 	H 	0.13580 0.98070 0.21990 -0.01500
H 	H 	0.27630 0.10120 0.39740 0.10000
H 	H 	0.09500 0.27280 0.40340 0.08500
H 	H 	0.09310 0.10710 0.22610 0.09600
H 	H 	0.26280 0.13370 0.52050 0.02300
H 	H 	0.33660 0.30020 0.67740 -0.00400
H 	H 	0.21490 0.32880 0.47640 0.03600
H 	H 	0.95040 0.28280 0.35420 -0.01800
H 	H 	0.81480 0.34460 0.17460 0.04400
H 	H 	0.02660 0.20210 0.17150 0.04400
H 	H 	0.17450 0.15720 0.84060 0.01100
H 	H 	0.15740 0.29320 0.03840 0.03300
H 	H 	0.36420 0.21990 0.98070 -0.01500
H 	H 	0.22370 0.39740 0.10120 0.09900
H 	H 	0.40500 0.40340 0.27280 0.08400
H 	H 	0.40690 0.22610 0.10710 0.09500
H 	H 	0.23720 0.52050 0.13370 0.02200
H 	H 	0.16340 0.67740 0.30020 -0.00400
H 	H 	0.28510 0.47640 0.32880 0.03600
H 	H 	0.54960 0.35420 0.28280 -0.01600
H 	H 	0.68520 0.17460 0.34460 0.04500
H 	H 	0.47340 0.17150 0.20210 0.04900
C 	C 	0.81950 0.15510 0.86610 0.34800
C 	C 	0.77790 0.09810 0.82150 -0.17200
C 	C 	0.69870 0.11390 0.81730 0.08000
C 	C 	0.65250 0.06300 0.77500 -0.13900
C 	C 	0.68790 0.99530 0.73530 0.03800
C 	C 	0.76890 0.97830 0.73850 -0.09000
C 	C 	0.81050 0.03000 0.77980 0.04300
C 	C 	0.56140 0.07940 0.76980 0.42200
C 	C 	0.80840 0.90890 0.69690 0.12600
C 	C 	0.77280 0.87420 0.62520 -0.19800
C 	C 	0.80560 0.80750 0.58730 0.12800
C 	C 	0.88100 0.77270 0.62210 -0.19100
C 	C 	0.92130 0.80110 0.69070 0.11300
C 	C 	0.88150 0.87140 0.72700 -0.18900
C 	C 	0.76480 0.77520 0.51360 -0.07900
C 	C 	0.73300 0.81800 0.46420 0.04100
C 	C 	0.69500 0.79040 0.39260 -0.16400
C 	C 	0.68890 0.71880 0.37040 0.06600
C 	C 	0.72080 0.67390 0.41930 -0.11600
C 	C 	0.76140 0.70110 0.49170 0.01400
C 	C 	0.65690 0.83610 0.33890 0.44300
C 	C 	0.70970 0.59550 0.39630 0.34200
C 	C 	0.99630 0.76160 0.73120 -0.06600
C 	C 	0.05660 0.71830 0.69430 0.02300
C 	C 	0.12590 0.67770 0.72850 -0.11100
C 	C 	0.13880 0.68190 0.80110 0.02500
C 	C 	0.07860 0.72840 0.83800 -0.07000
C 	C 	0.01100 0.76690 0.80250 0.00600
C 	C 	0.08970 0.73200 0.91760 0.27500
C 	C 	0.18840 0.62850 0.68850 0.31100
C 	C 	0.68050 0.86610 0.15510 0.34800
C 	C 	0.72210 0.82150 0.09810 -0.17100
C 	C 	0.80130 0.81730 0.11390 0.07800
C 	C 	0.84750 0.77500 0.06300 -0.13300
C 	C 	0.81210 0.73530 0.99530 0.03100
C 	C 	0.73110 0.73850 0.97830 -0.09100
C 	C 	0.68950 0.77980 0.03000 0.04700
C 	C 	0.93860 0.76980 0.07940 0.42100
C 	C 	0.69160 0.69690 0.90890 0.12500
C 	C 	0.72720 0.62520 0.87420 -0.19700
C 	C 	0.69440 0.58730 0.80750 0.12700
C 	C 	0.61900 0.62210 0.77270 -0.18900
C 	C 	0.57870 0.69070 0.80110 0.11000
C 	C 	0.61850 0.72700 0.87140 -0.18800
C 	C 	0.73520 0.51360 0.77520 -0.07900
C 	C 	0.76700 0.46420 0.81800 0.04100
C 	C 	0.80500 0.39260 0.79040 -0.16400
C 	C 	0.81110 0.37040 0.71880 0.06600
C 	C 	0.77920 0.41930 0.67390 -0.11600
C 	C 	0.73860 0.49170 0.70110 0.01300
C 	C 	0.84310 0.33890 0.83610 0.44300
C 	C 	0.79030 0.39630 0.59550 0.34200
C 	C 	0.50370 0.73120 0.76160 -0.05900
C 	C 	0.44340 0.69430 0.71830 0.01700
C 	C 	0.37410 0.72850 0.67770 -0.10800
C 	C 	0.36120 0.80110 0.68190 0.02100
C 	C 	0.42140 0.83800 0.72840 -0.06600
C 	C 	0.48900 0.80250 0.76690 -0.00400
C 	C 	0.41030 0.91760 0.73200 0.27300
C 	C 	0.31160 0.68850 0.62850 0.31000
C 	C 	0.18050 0.84490 0.13390 0.34800
C 	C 	0.22210 0.90190 0.17850 -0.17200
C 	C 	0.30130 0.88610 0.18270 0.08000
C 	C 	0.34750 0.93700 0.22500 -0.13900
C 	C 	0.31210 0.00470 0.26470 0.03800
C 	C 	0.23110 0.02170 0.26150 -0.09000
C 	C 	0.18950 0.97000 0.22020 0.04300
C 	C 	0.43860 0.92060 0.23020 0.42200
C 	C 	0.19160 0.09110 0.30310 0.12600
C 	C 	0.22720 0.12580 0.37480 -0.19800
C 	C 	0.19440 0.19250 0.41270 0.12800
C 	C 	0.11900 0.22730 0.37790 -0.19100
C 	C 	0.07870 0.19890 0.30930 0.11300
C 	C 	0.11850 0.12860 0.27300 -0.18900
C 	C 	0.23520 0.22480 0.48640 -0.07900
C 	C 	0.26700 0.18200 0.53580 0.04100
C 	C 	0.30500 0.20960 0.60740 -0.16400
C 	C 	0.31110 0.28120 0.62960 0.06600
C 	C 	0.27920 0.32610 0.58070 -0.11600
C 	C 	0.23860 0.29890 0.50830 0.01400
C 	C 	0.34310 0.16390 0.66110 0.44300
C 	C 	0.29030 0.40450 0.60370 0.34200
C 	C 	0.00370 0.23840 0.26880 -0.06600
C 	C 	0.94340 0.28170 0.30570 0.02300
C 	C 	0.87410 0.32230 0.27150 -0.11100
C 	C 	0.86120 0.31810 0.19890 0.02500
C 	C 	0.92140 0.27160 0.16200 -0.07000
C 	C 	0.98900 0.23310 0.19750 0.00600
C 	C 	0.91030 0.26800 0.08240 0.27500
C 	C 	0.81160 0.37150 0.31150 0.31100
C 	C 	0.31950 0.13390 0.84490 0.34800
C 	C 	0.27790 0.17850 0.90190 -0.17100
C 	C 	0.19870 0.18270 0.88610 0.07800
C 	C 	0.15250 0.22500 0.93700 -0.13300
C 	C 	0.18790 0.26470 0.00470 0.03100
C 	C 	0.26890 0.26150 0.02170 -0.09100
C 	C 	0.31050 0.22020 0.97000 0.04700
C 	C 	0.06140 0.23020 0.92060 0.42100
C 	C 	0.30840 0.30310 0.09110 0.12500
C 	C 	0.27280 0.37480 0.12580 -0.19700
C 	C 	0.30560 0.41270 0.19250 0.12700
C 	C 	0.38100 0.37790 0.22730 -0.18900
C 	C 	0.42130 0.30930 0.19890 0.11000
C 	C 	0.38150 0.27300 0.12860 -0.18800
C 	C 	0.26480 0.48640 0.22480 -0.07900
C 	C 	0.23300 0.53580 0.18200 0.04100
C 	C 	0.19500 0.60740 0.20960 -0.16400
C 	C 	0.18890 0.62960 0.28120 0.06600
C 	C 	0.22080 0.58070 0.32610 -0.11600
C 	C 	0.26140 0.50830 0.29890 0.01300
C 	C 	0.15690 0.66110 0.16390 0.44300
C 	C 	0.20970 0.60370 0.40450 0.34200
C 	C 	0.49630 0.26880 0.23840 -0.05900
C 	C 	0.55660 0.30570 0.28170 0.01700
C 	C 	0.62590 0.27150 0.32230 -0.10800
C 	C 	0.63880 0.19890 0.31810 0.02100
C 	C 	0.57860 0.16200 0.27160 -0.06600
C 	C 	0.51100 0.19750 0.23310 -0.00400
C 	C 	0.58970 0.08240 0.26800 0.27300
C 	C 	0.68840 0.31150 0.37150 0.31000
O 	O 	0.89340 0.14450 0.86150 -0.51600
O 	O 	0.78920 0.21140 0.90480 -0.40400
O 	O 	0.53970 0.13920 0.81840 -0.48400
O 	O 	0.52160 0.04120 0.72840 -0.47000
O 	O 	0.66010 0.90040 0.36260 -0.43700
O 	O 	0.62860 0.80790 0.27630 -0.55000
O 	O 	0.68260 0.57060 0.33000 -0.43500
O 	O 	0.72550 0.56210 0.44170 -0.40100
O 	O 	0.05100 0.78850 0.95410 -0.34700
O 	O 	0.13800 0.67900 0.94300 -0.35100
O 	O 	0.25990 0.60890 0.72870 -0.41700
O 	O 	0.16980 0.60360 0.61920 -0.47800
O 	O 	0.60660 0.86150 0.14450 -0.51400
O 	O 	0.71080 0.90480 0.21140 -0.40300
O 	O 	0.96030 0.81840 0.13920 -0.48100
O 	O 	0.97840 0.72840 0.04120 -0.46600
O 	O 	0.83990 0.36260 0.90040 -0.43800
O 	O 	0.87140 0.27630 0.80790 -0.55200
O 	O 	0.81740 0.33000 0.57060 -0.43600
O 	O 	0.77450 0.44170 0.56210 -0.40100
O 	O 	0.44900 0.95410 0.78850 -0.34800
O 	O 	0.36200 0.94300 0.67900 -0.35200
O 	O 	0.24010 0.72870 0.60890 -0.41700
O 	O 	0.33020 0.61920 0.60360 -0.47700
O 	O 	0.10660 0.85550 0.13850 -0.51600
O 	O 	0.21080 0.78860 0.09520 -0.40400
O 	O 	0.46030 0.86080 0.18160 -0.48400
O 	O 	0.47840 0.95880 0.27160 -0.47000
O 	O 	0.33990 0.09960 0.63740 -0.43700
O 	O 	0.37140 0.19210 0.72370 -0.55000
O 	O 	0.31740 0.42940 0.67000 -0.43500
O 	O 	0.27450 0.43790 0.55830 -0.40100
O 	O 	0.94900 0.21150 0.04590 -0.34700
O 	O 	0.86200 0.32100 0.05700 -0.35100
O 	O 	0.74010 0.39110 0.27130 -0.41700
O 	O 	0.83020 0.39640 0.38080 -0.47800
O 	O 	0.39340 0.13850 0.85550 -0.51400
O 	O 	0.28920 0.09520 0.78860 -0.40300
O 	O 	0.03970 0.18160 0.86080 -0.48100
O 	O 	0.02160 0.27160 0.95880 -0.46600
O 	O 	0.16010 0.63740 0.09960 -0.43800
O 	O 	0.12860 0.72370 0.19210 -0.55200
O 	O 	0.18260 0.67000 0.42940 -0.43600
O 	O 	0.22550 0.55830 0.43790 -0.40100
O 	O 	0.55100 0.04590 0.21150 -0.34800
O 	O 	0.63800 0.05700 0.32100 -0.35200
O 	O 	0.75990 0.27130 0.39110 -0.41700
O 	O 	0.66980 0.38080 0.39640 -0.47700
