data_crystal

_cell_length_a 11.90800
_cell_length_b 16.31760
_cell_length_c 16.31760
_cell_angle_alpha 65.71720
_cell_angle_beta  75.92130
_cell_angle_gamma 104.07900

_symmetry_space_group_name_	'P 1'
_symmetry_space_group_name_H-M	'P 1'

loop_
_symmetry_equiv_pos_as_xyz
  x,y,z

loop_
_atom_site_label
_atom_site_type_symbol
_atom_site_fract_x
_atom_site_fract_y
_atom_site_fract_z
_atom_site_charge
Ni	Ni	0.52021 0.95226 0.59798 1.06500
Ni	Ni	0.89681 0.64744 0.39237 1.09800
Ni	Ni	0.11819 0.59798 0.44976 1.06500
Ni	Ni	0.28918 0.39237 0.96019 1.09800
Ni	Ni	0.56795 0.44976 0.95226 1.06500
Ni	Ni	0.24937 0.96019 0.64744 1.09800
Ni	Ni	0.47979 0.04774 0.40202 1.06600
Ni	Ni	0.10319 0.35256 0.60763 1.09900
Ni	Ni	0.88181 0.40202 0.55024 1.06600
Ni	Ni	0.71082 0.60763 0.03981 1.09900
Ni	Ni	0.43205 0.55024 0.04774 1.06600
Ni	Ni	0.75063 0.03981 0.35256 1.09900
H 	H 	0.44610 0.52660 0.61500 0.09900
H 	H 	0.81740 0.79390 0.43530 0.02500
H 	H 	0.62230 0.52200 0.52490 0.00100
H 	H 	0.45570 0.67030 0.61710 0.03700
H 	H 	0.65800 0.84910 0.70830 0.01800
H 	H 	0.69600 0.12170 0.59210 0.01900
H 	H 	0.94030 0.04420 0.70480 0.02000
H 	H 	0.82680 0.88370 0.75190 0.09000
H 	H 	0.92150 0.76340 0.19690 0.21800
H 	H 	0.89930 0.80040 0.22610 0.21100
H 	H 	0.06110 0.61500 0.85840 0.09800
H 	H 	0.25270 0.43530 0.77080 0.02500
H 	H 	0.14720 0.52490 0.95310 0.00100
H 	H 	0.07280 0.61710 0.71260 0.03700
H 	H 	0.36630 0.70830 0.44260 0.01800
H 	H 	0.28810 0.59210 0.28620 0.01900
H 	H 	0.64510 0.70480 0.25100 0.01900
H 	H 	0.57870 0.75190 0.36440 0.09000
H 	H 	0.11840 0.19690 0.03970 0.22000
H 	H 	0.12540 0.22610 0.97350 0.21100
H 	H 	0.91950 0.85840 0.52660 0.09800
H 	H 	0.02350 0.77080 0.79390 0.02500
H 	H 	0.10030 0.95310 0.52200 0.00200
H 	H 	0.78540 0.71260 0.67030 0.03800
H 	H 	0.80890 0.44260 0.84910 0.01900
H 	H 	0.57430 0.28620 0.12170 0.01900
H 	H 	0.89610 0.25100 0.04420 0.02100
H 	H 	0.94310 0.36440 0.88370 0.08900
H 	H 	0.15810 0.03970 0.76340 0.21800
H 	H 	0.09890 0.97350 0.80040 0.21100
H 	H 	0.55390 0.47340 0.38500 0.09900
H 	H 	0.18260 0.20610 0.56470 0.02500
H 	H 	0.37770 0.47800 0.47510 0.00100
H 	H 	0.54430 0.32970 0.38290 0.03700
H 	H 	0.34200 0.15090 0.29170 0.01800
H 	H 	0.30400 0.87830 0.40790 0.01900
H 	H 	0.05970 0.95580 0.29520 0.02000
H 	H 	0.17320 0.11630 0.24810 0.09000
H 	H 	0.07850 0.23660 0.80310 0.21800
H 	H 	0.10070 0.19960 0.77390 0.21100
H 	H 	0.93890 0.38500 0.14160 0.09800
H 	H 	0.74730 0.56470 0.22920 0.02500
H 	H 	0.85280 0.47510 0.04690 0.00100
H 	H 	0.92720 0.38290 0.28740 0.03700
H 	H 	0.63370 0.29170 0.55740 0.01800
H 	H 	0.71190 0.40790 0.71380 0.01900
H 	H 	0.35490 0.29520 0.74900 0.01900
H 	H 	0.42130 0.24810 0.63560 0.09000
H 	H 	0.88160 0.80310 0.96030 0.22000
H 	H 	0.87460 0.77390 0.02650 0.21100
H 	H 	0.08050 0.14160 0.47340 0.09800
H 	H 	0.97650 0.22920 0.20610 0.02500
H 	H 	0.89970 0.04690 0.47800 0.00200
H 	H 	0.21460 0.28740 0.32970 0.03800
H 	H 	0.19110 0.55740 0.15090 0.01900
H 	H 	0.42570 0.71380 0.87830 0.01900
H 	H 	0.10390 0.74900 0.95580 0.02100
H 	H 	0.05690 0.63560 0.11630 0.08900
H 	H 	0.84190 0.96030 0.23660 0.21800
H 	H 	0.90110 0.02650 0.19960 0.21100
C 	C 	0.52051 0.58161 0.57938 -0.13900
C 	C 	0.74166 0.73971 0.47213 0.07800
C 	C 	0.63920 0.74884 0.52494 -0.13000
C 	C 	0.62680 0.57958 0.52488 0.08700
C 	C 	0.52605 0.66726 0.58031 0.07000
C 	C 	0.70118 0.91307 0.69163 0.09000
C 	C 	0.72490 0.07387 0.62227 0.09000
C 	C 	0.82917 0.10039 0.64258 -0.13700
C 	C 	0.86969 0.02856 0.69069 0.07600
C 	C 	0.80348 0.93356 0.71722 -0.13600
C 	C 	0.65051 0.84522 0.51929 0.36700
C 	C 	0.89535 0.20592 0.61107 0.39300
C 	C 	0.09989 0.57938 0.83901 -0.14000
C 	C 	0.21379 0.47213 0.78816 0.07800
C 	C 	0.16414 0.52494 0.72622 -0.13000
C 	C 	0.15168 0.52488 0.89554 0.08700
C 	C 	0.10636 0.58031 0.75243 0.07000
C 	C 	0.39281 0.69163 0.39530 0.09000
C 	C 	0.34717 0.62227 0.30386 0.09000
C 	C 	0.47175 0.64258 0.25703 -0.13600
C 	C 	0.56038 0.69069 0.28075 0.07500
C 	C 	0.52070 0.71722 0.34922 -0.13500
C 	C 	0.16980 0.51929 0.63549 0.36700
C 	C 	0.50642 0.61107 0.18301 0.39200
C 	C 	0.93890 0.83901 0.58161 -0.13800
C 	C 	0.00195 0.78816 0.73971 0.07600
C 	C 	0.89036 0.72622 0.74884 -0.12800
C 	C 	0.04722 0.89554 0.57958 0.08600
C 	C 	0.85879 0.75243 0.66726 0.06900
C 	C 	0.78811 0.39530 0.91307 0.08800
C 	C 	0.65103 0.30386 0.07387 0.08700
C 	C 	0.72878 0.25703 0.10039 -0.13400
C 	C 	0.84113 0.28075 0.02856 0.07000
C 	C 	0.86992 0.34922 0.93356 -0.13000
C 	C 	0.80529 0.63549 0.84522 0.36700
C 	C 	0.68943 0.18301 0.20592 0.39200
C 	C 	0.47949 0.41839 0.42062 -0.13900
C 	C 	0.25834 0.26029 0.52787 0.07800
C 	C 	0.36080 0.25116 0.47506 -0.13000
C 	C 	0.37320 0.42042 0.47512 0.08700
C 	C 	0.47395 0.33274 0.41969 0.07000
C 	C 	0.29882 0.08693 0.30837 0.09000
C 	C 	0.27510 0.92613 0.37773 0.09000
C 	C 	0.17083 0.89961 0.35742 -0.13700
C 	C 	0.13031 0.97144 0.30931 0.07600
C 	C 	0.19652 0.06644 0.28278 -0.13600
C 	C 	0.34949 0.15478 0.48071 0.36700
C 	C 	0.10465 0.79408 0.38893 0.39300
C 	C 	0.90011 0.42062 0.16099 -0.14000
C 	C 	0.78621 0.52787 0.21184 0.07800
C 	C 	0.83586 0.47506 0.27378 -0.13000
C 	C 	0.84832 0.47512 0.10446 0.08700
C 	C 	0.89364 0.41969 0.24757 0.07000
C 	C 	0.60719 0.30837 0.60470 0.09000
C 	C 	0.65283 0.37773 0.69614 0.09000
C 	C 	0.52825 0.35742 0.74297 -0.13600
C 	C 	0.43962 0.30931 0.71925 0.07500
C 	C 	0.47930 0.28278 0.65078 -0.13500
C 	C 	0.83020 0.48071 0.36451 0.36700
C 	C 	0.49358 0.38893 0.81699 0.39200
C 	C 	0.06110 0.16099 0.41839 -0.13800
C 	C 	0.99805 0.21184 0.26029 0.07600
C 	C 	0.10964 0.27378 0.25116 -0.12800
C 	C 	0.95278 0.10446 0.42042 0.08600
C 	C 	0.14121 0.24757 0.33274 0.06900
C 	C 	0.21189 0.60470 0.08693 0.08800
C 	C 	0.34897 0.69614 0.92613 0.08700
C 	C 	0.27122 0.74297 0.89961 -0.13400
C 	C 	0.15887 0.71925 0.97144 0.07000
C 	C 	0.13008 0.65078 0.06644 -0.13000
C 	C 	0.19471 0.36451 0.15478 0.36700
C 	C 	0.31057 0.81699 0.79408 0.39200
N 	N 	0.32887 0.84767 0.56566 -0.06700
N 	N 	0.73690 0.65674 0.47154 -0.21900
N 	N 	0.66275 0.98225 0.64390 -0.23400
N 	N 	0.43944 0.04511 0.70499 -0.04400
N 	N 	0.29261 0.77007 0.57944 -0.06300
N 	N 	0.43456 0.04180 0.63502 -0.25800
N 	N 	0.44488 0.04868 0.77324 -0.06600
N 	N 	0.36941 0.93293 0.55060 -0.36800
N 	N 	0.89453 0.56566 0.58667 -0.06700
N 	N 	0.20844 0.47154 0.87172 -0.21900
N 	N 	0.30665 0.64390 0.37385 -0.23400
N 	N 	0.14443 0.70499 0.24990 -0.04400
N 	N 	0.87205 0.57944 0.65049 -0.06300
N 	N 	0.06958 0.63502 0.32318 -0.25700
N 	N 	0.21812 0.77324 0.17808 -0.06500
N 	N 	0.92001 0.55060 0.51647 -0.36800
N 	N 	0.48120 0.58667 0.84767 -0.06700
N 	N 	0.08016 0.87172 0.65674 -0.21800
N 	N 	0.68050 0.37385 0.98225 -0.23300
N 	N 	0.39433 0.24990 0.04511 -0.04400
N 	N 	0.52254 0.65049 0.77007 -0.06300
N 	N 	0.39276 0.32318 0.04180 -0.25700
N 	N 	0.39620 0.17808 0.04868 -0.06600
N 	N 	0.43648 0.51647 0.93293 -0.36800
N 	N 	0.67113 0.15233 0.43434 -0.06700
N 	N 	0.26310 0.34326 0.52846 -0.21900
N 	N 	0.33725 0.01775 0.35610 -0.23400
N 	N 	0.56056 0.95489 0.29501 -0.04400
N 	N 	0.70739 0.22993 0.42056 -0.06300
N 	N 	0.56544 0.95820 0.36498 -0.25800
N 	N 	0.55512 0.95132 0.22676 -0.06600
N 	N 	0.63059 0.06707 0.44940 -0.36800
N 	N 	0.10547 0.43434 0.41333 -0.06700
N 	N 	0.79156 0.52846 0.12828 -0.21900
N 	N 	0.69335 0.35610 0.62615 -0.23400
N 	N 	0.85557 0.29501 0.75010 -0.04400
N 	N 	0.12795 0.42056 0.34951 -0.06300
N 	N 	0.93042 0.36498 0.67682 -0.25700
N 	N 	0.78188 0.22676 0.82192 -0.06500
N 	N 	0.07999 0.44940 0.48353 -0.36800
N 	N 	0.51880 0.41333 0.15233 -0.06700
N 	N 	0.91984 0.12828 0.34326 -0.21800
N 	N 	0.31950 0.62615 0.01775 -0.23300
N 	N 	0.60567 0.75010 0.95489 -0.04400
N 	N 	0.47746 0.34951 0.22993 -0.06300
N 	N 	0.60724 0.67682 0.95820 -0.25700
N 	N 	0.60380 0.82192 0.95132 -0.06600
N 	N 	0.56352 0.48353 0.06707 -0.36800
O 	O 	0.55824 0.84612 0.57500 -0.41900
O 	O 	0.75185 0.91758 0.45803 -0.42500
O 	O 	0.84209 0.26184 0.57897 -0.41500
O 	O 	0.99937 0.22790 0.61919 -0.42900
O 	O 	0.89685 0.74311 0.25776 -0.60500
O 	O 	0.13324 0.57500 0.57888 -0.41900
O 	O 	0.20988 0.45803 0.62439 -0.42500
O 	O 	0.42106 0.57897 0.15919 -0.41500
O 	O 	0.61856 0.61919 0.15291 -0.42900
O 	O 	0.15461 0.25776 0.99913 -0.60700
O 	O 	0.71212 0.57888 0.84612 -0.41900
O 	O 	0.83427 0.62439 0.91758 -0.42300
O 	O 	0.58025 0.15919 0.26184 -0.41400
O 	O 	0.77147 0.15291 0.22790 -0.42900
O 	O 	0.15374 0.99913 0.74311 -0.60500
O 	O 	0.44176 0.15388 0.42500 -0.41900
O 	O 	0.24815 0.08242 0.54197 -0.42500
O 	O 	0.15791 0.73816 0.42103 -0.41500
O 	O 	0.00063 0.77210 0.38081 -0.42900
O 	O 	0.10315 0.25689 0.74224 -0.60500
O 	O 	0.86676 0.42500 0.42112 -0.41900
O 	O 	0.79012 0.54197 0.37561 -0.42500
O 	O 	0.57894 0.42103 0.84081 -0.41500
O 	O 	0.38144 0.38081 0.84709 -0.42900
O 	O 	0.84539 0.74224 0.00087 -0.60700
O 	O 	0.28788 0.42112 0.15388 -0.41900
O 	O 	0.16573 0.37561 0.08242 -0.42300
O 	O 	0.41975 0.84081 0.73816 -0.41400
O 	O 	0.22853 0.84709 0.77210 -0.42900
O 	O 	0.84626 0.00087 0.25689 -0.60500
