data_crystal

_cell_length_a 13.84900
_cell_length_b 14.72400
_cell_length_c 22.98700
_cell_angle_alpha 88.25000
_cell_angle_beta  74.38000
_cell_angle_gamma 87.86000

_symmetry_space_group_name_	'P 1'
_symmetry_space_group_name_H-M	'P 1'

loop_
_symmetry_equiv_pos_as_xyz
  x,y,z

loop_
_atom_site_label
_atom_site_type_symbol
_atom_site_fract_x
_atom_site_fract_y
_atom_site_fract_z
_atom_site_charge
C 	C 	0.94840 0.58190 0.20200 -0.00800
H 	H 	0.95470 0.52880 0.18020 0.03100
Cd	Cd	0.31679 0.06089 0.09852 1.20500
Cd	Cd	0.20572 0.95482 0.44761 1.22300
O 	O 	0.25850 0.08800 0.01450 -0.40700
O 	O 	0.36130 0.97020 0.00076 -0.38100
O 	O 	0.15950 0.02470 0.54400 -0.38200
O 	O 	0.25310 0.90050 0.53210 -0.38000
O 	O 	0.24570 0.19950 0.12860 -0.40900
O 	O 	0.28430 0.13200 0.20450 -0.37200
O 	O 	0.14280 0.82540 0.42420 -0.43800
N 	N 	0.09480 0.05430 0.41630 -0.25300
N 	N 	0.32920 0.05820 0.40850 -0.21000
N 	N 	0.18810 0.95780 0.14000 -0.24200
N 	N 	0.41340 0.95310 0.13610 -0.24800
C 	C 	0.20300 0.36610 0.18840 0.00400
H 	H 	0.18030 0.36110 0.15410 0.03800
C 	C 	0.19740 0.44910 0.21660 -0.08800
H 	H 	0.17060 0.49930 0.20010 0.05800
C 	C 	0.25240 0.38330 0.29400 -0.08800
H 	H 	0.26280 0.38770 0.33210 0.04900
C 	C 	0.22740 0.46100 0.26510 0.01100
C 	C 	0.22090 0.55030 0.29490 0.08500
C 	C 	0.24320 0.29130 0.21250 -0.09100
C 	C 	0.26250 0.29810 0.26710 0.00500
H 	H 	0.28210 0.24690 0.28630 0.03200
C 	C 	0.21280 0.71840 0.34910 -0.17200
C 	C 	0.09500 0.06120 0.36020 0.12600
H 	H 	0.12820 0.01540 0.33470 -0.02200
C 	C 	0.05040 0.13020 0.33530 -0.19500
H 	H 	0.05400 0.13040 0.29430 0.10000
C 	C 	0.99980 0.20030 0.37100 0.12400
C 	C 	0.99410 0.18900 0.43220 -0.18900
H 	H 	0.95810 0.23160 0.45940 0.09900
C 	C 	0.04040 0.11630 0.45290 0.09500
H 	H 	0.03370 0.11000 0.49420 -0.01700
C 	C 	0.95070 0.27980 0.34660 -0.09000
C 	C 	0.45320 0.20610 0.36580 -0.08800
C 	C 	0.16600 0.89620 0.10500 0.09400
H 	H 	0.19570 0.89980 0.06360 -0.00900
C 	C 	0.10070 0.82680 0.12740 -0.17200
H 	H 	0.08370 0.78840 0.10050 0.08600
C 	C 	0.06090 0.81330 0.18750 0.10700
C 	C 	0.08460 0.87820 0.22320 -0.18200
H 	H 	0.05770 0.87550 0.26490 0.09100
C 	C 	0.14740 0.94590 0.19740 0.11500
H 	H 	0.16230 0.98740 0.22320 -0.01600
C 	C 	0.99660 0.73490 0.21070 -0.03800
C 	C 	0.01480 0.65270 0.17840 -0.10100
H 	H 	0.06750 0.64580 0.14370 0.05800
C 	C 	0.30390 0.02610 0.98310 0.34000
C 	C 	0.23280 0.07970 0.89690 0.07800
H 	H 	0.20380 0.12910 0.92030 0.01700
C 	C 	0.21790 0.07390 0.83960 -0.16900
H 	H 	0.18240 0.11950 0.82460 0.09000
C 	C 	0.28790 0.01690 0.92060 -0.13600
C 	C 	0.32680 0.94360 0.88630 0.07100
H 	H 	0.36540 0.90030 0.90100 0.00400
C 	C 	0.31080 0.93150 0.83010 -0.16300
H 	H 	0.33530 0.87930 0.80850 0.07600
C 	C 	0.25680 0.99920 0.80590 0.12500
C 	C 	0.24390 0.98990 0.74470 -0.12400
C 	C 	0.51700 0.28490 0.34230 0.30400
C 	C 	0.63000 0.39660 0.35700 2.08100
H 	H 	0.66400 0.42080 0.38240 -0.71300
C 	C 	0.64350 0.43120 0.30130 -0.37500
C 	C 	0.56590 0.32440 0.37800 -2.13400
H 	H 	0.55660 0.30310 0.41760 0.74300
C 	C 	0.60230 0.38160 0.26150 -0.62300
H 	H 	0.61810 0.39860 0.22080 0.23600
C 	C 	0.53940 0.30890 0.28130 0.53600
H 	H 	0.51340 0.27750 0.25470 -0.17400
C 	C 	0.71000 0.51050 0.27910 0.13400
C 	C 	0.80670 0.50770 0.27970 -0.13900
C 	C 	0.85760 0.42840 0.30400 0.09100
C 	C 	0.87200 0.58810 0.25770 0.09700
C 	C 	0.70330 0.61790 0.19240 -0.03700
H 	H 	0.76170 0.58950 0.16950 0.02000
C 	C 	0.65920 0.58880 0.25520 -0.01100
C 	C 	0.20920 0.96740 0.56320 0.27800
C 	C 	0.22180 0.97350 0.62640 0.00600
C 	C 	0.21270 0.80640 0.38040 0.44800
C 	C 	0.46310 0.88710 0.10220 0.09700
H 	H 	0.46250 0.88720 0.06180 -0.02200
C 	C 	0.41910 0.95260 0.19240 0.08900
H 	H 	0.38800 0.00060 0.21650 -0.00400
C 	C 	0.46790 0.88580 0.21830 -0.14700
H 	H 	0.46920 0.88890 0.25850 0.08800
C 	C 	0.51500 0.81910 0.12260 -0.15900
H 	H 	0.55080 0.77590 0.09590 0.08000
C 	C 	0.51540 0.81330 0.18250 0.07700
C 	C 	0.56730 0.73590 0.20980 0.01700
C 	C 	0.65920 0.68500 0.16860 -0.03100
H 	H 	0.68290 0.70130 0.12790 0.03700
C 	C 	0.53800 0.70430 0.26530 -0.00400
H 	H 	0.48400 0.73300 0.29220 0.03300
C 	C 	0.25820 0.19900 0.18010 0.32500
C 	C 	0.58460 0.62960 0.28510 -0.02900
H 	H 	0.55700 0.60870 0.32440 0.03100
C 	C 	0.92190 0.74140 0.26490 0.00100
H 	H 	0.91310 0.79400 0.28740 0.02000
C 	C 	0.85900 0.66540 0.28520 -0.07700
H 	H 	0.80600 0.67160 0.31990 0.04800
C 	C 	0.91150 0.43280 0.34170 -0.28000
H 	H 	0.91980 0.49060 0.35450 0.11900
C 	C 	0.95730 0.36350 0.36490 0.23800
H 	H 	0.99260 0.37410 0.39310 -0.06000
C 	C 	0.86950 0.33890 0.27140 -0.45700
H 	H 	0.84610 0.33220 0.23740 0.18400
C 	C 	0.91570 0.26920 0.29410 0.36600
H 	H 	0.92480 0.21330 0.27520 -0.11600
C 	C 	0.37000 0.21190 0.41560 -0.11000
H 	H 	0.35950 0.26660 0.43590 0.06400
C 	C 	0.30200 0.14450 0.43810 -0.04600
H 	H 	0.24450 0.15390 0.46950 0.03000
C 	C 	0.39400 0.05500 0.35900 -0.09900
H 	H 	0.39710 0.00410 0.33570 0.04900
C 	C 	0.46500 0.12800 0.33630 -0.14100
H 	H 	0.51710 0.11990 0.30160 0.07600
C 	C 	0.15320 0.64880 0.37620 0.02500
H 	H 	0.11020 0.65800 0.41440 0.02500
C 	C 	0.25800 0.71180 0.28740 0.04200
H 	H 	0.28620 0.76280 0.26540 0.02900
C 	C 	0.26140 0.62830 0.25770 -0.10100
H 	H 	0.28850 0.62380 0.21620 0.06400
C 	C 	0.15300 0.56830 0.35090 -0.10000
H 	H 	0.10830 0.52450 0.37040 0.05600
C 	C 	0.16700 0.04200 0.72470 0.01000
H 	H 	0.12530 0.08430 0.74970 0.01900
C 	C 	0.15800 0.02800 0.67170 -0.08100
H 	H 	0.10320 0.05690 0.66180 0.06000
C 	C 	0.27600 0.92230 0.70860 0.01300
H 	H 	0.29700 0.87110 0.72690 -0.54100
C 	C 	0.28300 0.91400 0.64950 -0.19000
H 	H 	0.32640 0.87090 0.62580 0.11900
O 	O 	0.25100 0.87470 0.34950 -0.26000
O 	O 	0.29600 0.84500 0.38000 -0.28600
C 	C 	0.30600 0.57660 0.30950 -0.09500
H 	H 	0.36180 0.53740 0.30260 0.06600
C 	C 	0.14400 0.59100 0.31760 -0.05200
H 	H 	0.08390 0.56290 0.32090 0.04600
C 	C 	0.30900 0.66890 0.33680 0.02400
H 	H 	0.36630 0.69130 0.34460 0.02500
C 	C 	0.13900 0.68380 0.34060 0.04500
H 	H 	0.07870 0.71690 0.34880 0.01300
C 	C 	0.35800 0.07500 0.35120 0.11100
H 	H 	0.33360 0.04030 0.32550 -0.01800
C 	C 	0.42100 0.14150 0.32750 0.09600
H 	H 	0.44450 0.14710 0.28570 -0.00700
C 	C 	0.43300 0.17900 0.42320 0.07200
H 	H 	0.46530 0.20540 0.44890 -0.02000
C 	C 	0.36100 0.11000 0.44590 0.04200
H 	H 	0.33570 0.10140 0.48740 0.00300
C 	C 	0.23600 0.06720 0.70930 -0.00800
H 	H 	0.24120 0.12410 0.72460 0.02800
C 	C 	0.25800 0.89800 0.71740 0.29100
H 	H 	0.27940 0.84650 0.73540 0.40300
C 	C 	0.22100 0.06190 0.64990 -0.01400
H 	H 	0.21190 0.11400 0.62790 0.03600
C 	C 	0.23400 0.89800 0.65970 0.00100
H 	H 	0.22570 0.84170 0.64430 0.03500
C 	C 	0.85100 0.32780 0.38890 -0.09600
H 	H 	0.82420 0.30470 0.42780 0.06000
C 	C 	0.98420 0.32390 0.29630 -0.38700
H 	H 	0.04780 0.30620 0.27310 0.16700
C 	C 	0.93640 0.39450 0.27280 0.34400
H 	H 	0.96380 0.41620 0.23360 -0.09000
C 	C 	0.80700 0.39810 0.37010 -0.04500
H 	H 	0.75020 0.42750 0.39420 0.12300
C 	C 	0.60120 0.75420 0.25950 -0.08000
H 	H 	0.59160 0.81100 0.27710 0.05500
C 	C 	0.65160 0.68090 0.28200 -0.01600
H 	H 	0.67990 0.69030 0.31360 0.02700
C 	C 	0.56700 0.65370 0.19100 -0.06500
H 	H 	0.53730 0.64300 0.16000 0.04700
C 	C 	0.60920 0.58170 0.21650 0.00300
H 	H 	0.60070 0.52350 0.20440 0.03600
C 	C 	0.56000 0.44120 0.35330 -1.87700
H 	H 	0.54750 0.49650 0.37280 0.68300
C 	C 	0.49740 0.37000 0.37490 1.85500
H 	H 	0.44400 0.37600 0.40930 -0.64200
C 	C 	0.59640 0.28320 0.29550 -0.75200
H 	H 	0.61210 0.22980 0.27380 0.25400
C 	C 	0.65750 0.35610 0.27670 0.79700
H 	H 	0.71270 0.34860 0.24350 -0.24500
C 	C 	0.98000 0.70620 0.27070 -0.03100
H 	H 	0.01520 0.73190 0.29500 0.03400
C 	C 	0.91000 0.63820 0.29500 -0.04900
H 	H 	0.88920 0.62760 0.33660 0.03600
C 	C 	0.94600 0.69300 0.17600 0.06300
H 	H 	0.95920 0.70970 0.13530 0.00300
C 	C 	0.87100 0.62190 0.20020 -0.12800
H 	H 	0.82710 0.60190 0.17920 0.07200
C 	C 	0.05160 0.41810 0.79800 -0.00700
H 	H 	0.04530 0.47120 0.81980 0.03200
Cd	Cd	0.68321 0.93911 0.90148 1.20600
Cd	Cd	0.79428 0.04518 0.55239 1.22400
O 	O 	0.74150 0.91200 0.98550 -0.40600
O 	O 	0.63870 0.02980 0.99924 -0.38000
O 	O 	0.84050 0.97530 0.45600 -0.38100
O 	O 	0.74690 0.09950 0.46790 -0.37900
O 	O 	0.75430 0.80050 0.87140 -0.40800
O 	O 	0.71570 0.86800 0.79550 -0.37100
O 	O 	0.85720 0.17460 0.57580 -0.43700
N 	N 	0.90520 0.94570 0.58370 -0.25200
N 	N 	0.67080 0.94180 0.59150 -0.21000
N 	N 	0.81190 0.04220 0.86000 -0.24200
N 	N 	0.58660 0.04690 0.86390 -0.24800
C 	C 	0.79700 0.63390 0.81160 0.00400
H 	H 	0.81970 0.63890 0.84590 0.03800
C 	C 	0.80260 0.55090 0.78340 -0.08800
H 	H 	0.82940 0.50070 0.79990 0.05800
C 	C 	0.74760 0.61670 0.70600 -0.08800
H 	H 	0.73720 0.61230 0.66790 0.04900
C 	C 	0.77260 0.53900 0.73490 0.01100
C 	C 	0.77910 0.44970 0.70510 0.08500
C 	C 	0.75680 0.70870 0.78750 -0.09100
C 	C 	0.73750 0.70190 0.73290 0.00500
H 	H 	0.71790 0.75310 0.71370 0.03200
C 	C 	0.78720 0.28160 0.65090 -0.17200
C 	C 	0.90500 0.93880 0.63980 0.12600
H 	H 	0.87180 0.98460 0.66530 -0.02200
C 	C 	0.94960 0.86980 0.66470 -0.19500
H 	H 	0.94600 0.86960 0.70570 0.10000
C 	C 	0.00020 0.79970 0.62900 0.12400
C 	C 	0.00590 0.81100 0.56780 -0.18900
H 	H 	0.04190 0.76840 0.54060 0.09900
C 	C 	0.95960 0.88370 0.54710 0.09500
H 	H 	0.96630 0.89000 0.50580 -0.01700
C 	C 	0.04930 0.72020 0.65340 -0.09000
C 	C 	0.54680 0.79390 0.63420 -0.08800
C 	C 	0.83400 0.10380 0.89500 0.09400
H 	H 	0.80430 0.10020 0.93640 -0.00900
C 	C 	0.89930 0.17320 0.87260 -0.17200
H 	H 	0.91630 0.21160 0.89950 0.08600
C 	C 	0.93910 0.18670 0.81250 0.10700
C 	C 	0.91540 0.12180 0.77680 -0.18200
H 	H 	0.94230 0.12450 0.73510 0.09100
C 	C 	0.85260 0.05410 0.80260 0.11500
H 	H 	0.83770 0.01260 0.77680 -0.01600
C 	C 	0.00340 0.26510 0.78930 -0.03800
C 	C 	0.98520 0.34730 0.82160 -0.10100
H 	H 	0.93250 0.35420 0.85630 0.05800
C 	C 	0.69610 0.97390 0.01690 0.34000
C 	C 	0.76720 0.92030 0.10310 0.07800
H 	H 	0.79620 0.87090 0.07970 0.01700
C 	C 	0.78210 0.92610 0.16040 -0.16900
H 	H 	0.81760 0.88050 0.17540 0.09000
C 	C 	0.71210 0.98310 0.07940 -0.13600
C 	C 	0.67320 0.05640 0.11370 0.07100
H 	H 	0.63460 0.09970 0.09900 0.00400
C 	C 	0.68920 0.06850 0.16990 -0.16300
H 	H 	0.66470 0.12070 0.19150 0.07600
C 	C 	0.74320 0.00080 0.19410 0.12500
C 	C 	0.75610 0.01010 0.25530 -0.12400
C 	C 	0.48300 0.71510 0.65770 0.30400
C 	C 	0.37000 0.60340 0.64300 2.08100
H 	H 	0.33600 0.57920 0.61760 -0.71300
C 	C 	0.35650 0.56880 0.69870 -0.37500
C 	C 	0.43410 0.67560 0.62200 -2.13400
H 	H 	0.44340 0.69690 0.58240 0.74300
C 	C 	0.39770 0.61840 0.73850 -0.62300
H 	H 	0.38190 0.60140 0.77920 0.23600
C 	C 	0.46060 0.69110 0.71870 0.53600
H 	H 	0.48660 0.72250 0.74530 -0.17400
C 	C 	0.29000 0.48950 0.72090 0.13400
C 	C 	0.19330 0.49230 0.72030 -0.13900
C 	C 	0.14240 0.57160 0.69600 0.09100
C 	C 	0.12800 0.41190 0.74230 0.09700
C 	C 	0.29670 0.38210 0.80760 -0.03700
H 	H 	0.23830 0.41050 0.83050 0.02000
C 	C 	0.34080 0.41120 0.74480 -0.01100
C 	C 	0.79080 0.03260 0.43680 0.27800
C 	C 	0.77820 0.02650 0.37360 0.00600
C 	C 	0.78730 0.19360 0.61960 0.44800
C 	C 	0.53690 0.11290 0.89780 0.09700
H 	H 	0.53750 0.11280 0.93820 -0.02200
C 	C 	0.58090 0.04740 0.80760 0.08900
H 	H 	0.61200 0.99940 0.78350 -0.00400
C 	C 	0.53210 0.11420 0.78170 -0.14700
H 	H 	0.53080 0.11110 0.74150 0.08800
C 	C 	0.48500 0.18090 0.87740 -0.15900
H 	H 	0.44920 0.22410 0.90410 0.08000
C 	C 	0.48460 0.18670 0.81750 0.07700
C 	C 	0.43270 0.26410 0.79020 0.01700
C 	C 	0.34080 0.31500 0.83140 -0.03100
H 	H 	0.31710 0.29870 0.87210 0.03700
C 	C 	0.46200 0.29570 0.73470 -0.00400
H 	H 	0.51600 0.26700 0.70780 0.03300
C 	C 	0.74180 0.80100 0.81990 0.32500
C 	C 	0.41540 0.37040 0.71490 -0.02900
H 	H 	0.44300 0.39130 0.67560 0.03100
C 	C 	0.07810 0.25860 0.73510 0.00100
H 	H 	0.08690 0.20600 0.71260 0.02000
C 	C 	0.14100 0.33460 0.71480 -0.07700
H 	H 	0.19400 0.32840 0.68010 0.04800
C 	C 	0.08850 0.56720 0.65830 -0.28000
H 	H 	0.08020 0.50940 0.64550 0.11900
C 	C 	0.04270 0.63650 0.63510 0.23800
H 	H 	0.00740 0.62590 0.60690 -0.06000
C 	C 	0.13050 0.66110 0.72860 -0.45700
H 	H 	0.15390 0.66780 0.76260 0.18400
C 	C 	0.08430 0.73080 0.70590 0.36600
H 	H 	0.07520 0.78670 0.72480 -0.11600
C 	C 	0.63000 0.78810 0.58440 -0.11000
H 	H 	0.64050 0.73340 0.56410 0.06400
C 	C 	0.69800 0.85550 0.56190 -0.04600
H 	H 	0.75550 0.84610 0.53050 0.03000
C 	C 	0.60600 0.94500 0.64100 -0.09900
H 	H 	0.60290 0.99590 0.66430 0.04900
C 	C 	0.53500 0.87200 0.66370 -0.14100
H 	H 	0.48290 0.88010 0.69840 0.07600
C 	C 	0.84680 0.35120 0.62380 0.02500
H 	H 	0.88980 0.34200 0.58560 0.02500
C 	C 	0.74200 0.28820 0.71260 0.04200
H 	H 	0.71380 0.23720 0.73460 0.02900
C 	C 	0.73860 0.37170 0.74230 -0.10100
H 	H 	0.71150 0.37620 0.78380 0.06400
C 	C 	0.84700 0.43170 0.64910 -0.10000
H 	H 	0.89170 0.47550 0.62960 0.05600
C 	C 	0.83300 0.95800 0.27530 0.01000
H 	H 	0.87470 0.91570 0.25030 0.01900
C 	C 	0.84200 0.97200 0.32830 -0.08100
H 	H 	0.89680 0.94310 0.33820 0.06000
C 	C 	0.72400 0.07770 0.29140 0.01300
H 	H 	0.70300 0.12890 0.27310 -0.54100
C 	C 	0.71700 0.08600 0.35050 -0.19000
H 	H 	0.67360 0.12910 0.37420 0.11900
O 	O 	0.74900 0.12530 0.65050 -0.26000
O 	O 	0.70400 0.15500 0.62000 -0.28600
C 	C 	0.69400 0.42340 0.69050 -0.09500
H 	H 	0.63820 0.46260 0.69740 0.06600
C 	C 	0.85600 0.40900 0.68240 -0.05200
H 	H 	0.91610 0.43710 0.67910 0.04600
C 	C 	0.69100 0.33110 0.66320 0.02400
H 	H 	0.63370 0.30870 0.65540 0.02500
C 	C 	0.86100 0.31620 0.65940 0.04500
H 	H 	0.92130 0.28310 0.65120 0.01300
C 	C 	0.64200 0.92500 0.64880 0.11100
H 	H 	0.66640 0.95970 0.67450 -0.01800
C 	C 	0.57900 0.85850 0.67250 0.09600
H 	H 	0.55550 0.85290 0.71430 -0.00700
C 	C 	0.56700 0.82100 0.57680 0.07200
H 	H 	0.53470 0.79460 0.55110 -0.02000
C 	C 	0.63900 0.89000 0.55410 0.04200
H 	H 	0.66430 0.89860 0.51260 0.00300
C 	C 	0.76400 0.93280 0.29070 -0.00800
H 	H 	0.75880 0.87590 0.27540 0.02800
C 	C 	0.74200 0.10200 0.28260 0.29100
H 	H 	0.72060 0.15350 0.26460 0.40300
C 	C 	0.77900 0.93810 0.35010 -0.01400
H 	H 	0.78810 0.88600 0.37210 0.03600
C 	C 	0.76600 0.10200 0.34030 0.00100
H 	H 	0.77430 0.15830 0.35570 0.03500
C 	C 	0.14900 0.67220 0.61110 -0.09600
H 	H 	0.17580 0.69530 0.57220 0.06000
C 	C 	0.01580 0.67610 0.70370 -0.38700
H 	H 	0.95220 0.69380 0.72690 0.16700
C 	C 	0.06360 0.60550 0.72720 0.34400
H 	H 	0.03620 0.58380 0.76640 -0.09000
C 	C 	0.19300 0.60190 0.62990 -0.04500
H 	H 	0.24980 0.57250 0.60580 0.12300
C 	C 	0.39880 0.24580 0.74050 -0.08000
H 	H 	0.40840 0.18900 0.72290 0.05500
C 	C 	0.34840 0.31910 0.71800 -0.01600
H 	H 	0.32010 0.30970 0.68640 0.02700
C 	C 	0.43300 0.34630 0.80900 -0.06500
H 	H 	0.46270 0.35700 0.84000 0.04700
C 	C 	0.39080 0.41830 0.78350 0.00300
H 	H 	0.39930 0.47650 0.79560 0.03600
C 	C 	0.44000 0.55880 0.64670 -1.87700
H 	H 	0.45250 0.50350 0.62720 0.68300
C 	C 	0.50260 0.63000 0.62510 1.85500
H 	H 	0.55600 0.62400 0.59070 -0.64200
C 	C 	0.40360 0.71680 0.70450 -0.75200
H 	H 	0.38790 0.77020 0.72620 0.25400
C 	C 	0.34250 0.64390 0.72330 0.79700
H 	H 	0.28730 0.65140 0.75650 -0.24500
C 	C 	0.02000 0.29380 0.72930 -0.03100
H 	H 	0.98480 0.26810 0.70500 0.03400
C 	C 	0.09000 0.36180 0.70500 -0.04900
H 	H 	0.11080 0.37240 0.66340 0.03600
C 	C 	0.05400 0.30700 0.82400 0.06300
H 	H 	0.04080 0.29030 0.86470 0.00300
C 	C 	0.12900 0.37810 0.79980 -0.12800
H 	H 	0.17290 0.39810 0.82080 0.07200
