data_crystal

_cell_length_a 12.63310
_cell_length_b 7.39370
_cell_length_c 10.96230
_cell_angle_alpha 90.00000
_cell_angle_beta  109.51000
_cell_angle_gamma 90.00000

_symmetry_space_group_name_	'P 1'
_symmetry_space_group_name_H-M	'P 1'

loop_
_symmetry_equiv_pos_as_xyz
  x,y,z

loop_
_atom_site_label
_atom_site_type_symbol
_atom_site_fract_x
_atom_site_fract_y
_atom_site_fract_z
_atom_site_charge
H 	H 	0.01950 0.22970 0.61020 0.11700
C 	C 	0.05430 0.34050 0.84531 0.16300
C 	C 	0.01190 0.33920 0.56640 -0.31400
N 	N 	0.06020 0.20580 0.90083 -0.25800
H 	H 	0.98050 0.22970 0.38980 -0.01800
C 	C 	0.94570 0.34050 0.15469 0.10500
C 	C 	0.98810 0.33920 0.43360 0.16900
N 	N 	0.93980 0.20580 0.09917 -0.27500
H 	H 	0.98050 0.77030 0.38980 0.00600
C 	C 	0.94570 0.65950 0.15469 0.11600
C 	C 	0.98810 0.66080 0.43360 0.17000
N 	N 	0.93980 0.79420 0.09917 -0.24500
H 	H 	0.01950 0.77030 0.61020 0.14100
C 	C 	0.05430 0.65950 0.84531 0.17300
C 	C 	0.01190 0.66080 0.56640 -0.30900
N 	N 	0.06020 0.79420 0.90083 -0.22800
Zn	Zn	-0.00000 0.00000 -0.00000 1.12000
H 	H 	0.75000 0.00000 0.96260 0.01100
H 	H 	0.57590 0.00000 0.81010 0.09800
H 	H 	0.72200 0.00000 0.53800 0.07900
H 	H 	0.89620 0.00000 0.70060 -0.01000
C 	C 	0.74450 0.00000 0.87580 0.10400
C 	C 	0.63910 0.00000 0.78450 -0.16700
C 	C 	0.62690 0.00000 0.65460 0.10900
C 	C 	0.51080 0.00000 0.56200 -0.06300
C 	C 	0.72590 0.00000 0.62420 -0.15800
C 	C 	0.83120 0.00000 0.72250 0.08800
N 	N 	0.83930 0.00000 0.84800 -0.23200
H 	H 	0.25000 0.00000 0.03740 -0.06900
H 	H 	0.42410 0.00000 0.18990 0.07100
H 	H 	0.27800 0.00000 0.46200 0.08000
H 	H 	0.10380 0.00000 0.29940 -0.05300
C 	C 	0.25550 0.00000 0.12420 0.08900
C 	C 	0.36090 0.00000 0.21550 -0.19100
C 	C 	0.37310 0.00000 0.34540 0.10600
C 	C 	0.48920 0.00000 0.43800 -0.07000
C 	C 	0.27410 0.00000 0.37580 -0.17700
C 	C 	0.16880 0.00000 0.27750 0.07500
N 	N 	0.16070 0.00000 0.15200 -0.29200
C 	C 	0.04740 0.50000 0.77720 -0.20300
C 	C 	0.02470 0.50000 0.63560 0.22900
C 	C 	0.95260 0.50000 0.22280 -0.08000
C 	C 	0.97530 0.50000 0.36440 -0.07400
H 	H 	0.43661 0.00000 0.59917 0.03700
H 	H 	0.56339 0.00000 0.40083 0.03000
