data_crystal

_cell_length_a 23.98500
_cell_length_b 15.44900
_cell_length_c 7.34000
_cell_angle_alpha 90.00000
_cell_angle_beta  107.60000
_cell_angle_gamma 90.00000

_symmetry_space_group_name_	'P 1'
_symmetry_space_group_name_H-M	'P 1'

loop_
_symmetry_equiv_pos_as_xyz
  x,y,z

loop_
_atom_site_label
_atom_site_type_symbol
_atom_site_fract_x
_atom_site_fract_y
_atom_site_fract_z
_atom_site_charge
N 	N 	0.27880 0.61770 0.02600 -0.24500
C 	C 	0.06190 0.71620 0.31620 0.02800
N 	N 	0.18480 0.71800 0.74150 -0.26400
N 	N 	0.18960 0.71970 0.15900 -0.26900
C 	C 	0.12620 0.71750 0.38390 -0.12900
C 	C 	0.03150 0.71610 0.11960 -0.01100
H 	H 	0.05230 0.71620 0.03140 0.02600
C 	C 	0.16000 0.71830 0.26230 0.10900
C 	C 	0.15770 0.71760 0.58140 0.12100
C 	C 	0.02910 0.71580 0.44450 -0.04400
H 	H 	0.04820 0.71530 0.57520 0.05500
C 	C 	0.25940 0.46610 0.01850 -0.12500
H 	H 	0.23300 0.42160 0.01440 0.06300
C 	C 	0.24200 0.55170 0.01640 0.06400
H 	H 	0.20330 0.56360 0.00800 -0.01400
O 	O 	0.43950 0.57080 0.96010 -0.17100
N 	N 	0.43950 0.43010 0.02930 -0.23000
H 	H 	0.47220 0.42250 0.00610 0.22800
H 	H 	0.42240 0.38700 0.06440 0.11900
C 	C 	0.31660 0.44730 0.02670 0.07500
H 	H 	0.32940 0.39030 0.03200 -0.03500
C 	C 	0.35450 0.51620 0.02690 -0.00100
C 	C 	0.33410 0.59920 0.03370 -0.08200
H 	H 	0.36010 0.64490 0.04430 0.03400
C 	C 	0.41590 0.50630 0.01120 0.08100
O 	O 	0.44110 0.57210 0.39300 -0.35400
C 	C 	0.35430 0.51300 0.19700 -0.10500
N 	N 	0.44250 0.42800 0.32000 -0.24200
H 	H 	0.47910 0.42140 0.37800 0.13600
H 	H 	0.42170 0.38540 0.26290 0.13300
C 	C 	0.41700 0.50800 0.31900 0.29800
C 	C 	0.33360 0.60100 0.15600 0.11300
H 	H 	0.35700 0.64640 0.21690 -0.01700
C 	C 	0.31790 0.44900 0.11700 -0.04800
H 	H 	0.33160 0.39190 0.12670 0.04200
N 	N 	0.77880 0.11770 0.02600 -0.24600
C 	C 	0.56190 0.21620 0.31620 0.02000
N 	N 	0.68480 0.21800 0.74150 -0.26300
N 	N 	0.68960 0.21970 0.15900 -0.26800
C 	C 	0.62620 0.21750 0.38390 -0.12600
C 	C 	0.53150 0.21610 0.11960 0.00100
H 	H 	0.55230 0.21620 0.03140 0.02300
C 	C 	0.66000 0.21830 0.26230 0.10900
C 	C 	0.65770 0.21760 0.58140 0.12100
C 	C 	0.52910 0.21580 0.44450 -0.03300
H 	H 	0.54820 0.21530 0.57520 0.05200
C 	C 	0.75940 0.96610 0.01850 -0.12900
H 	H 	0.73300 0.92160 0.01440 0.06400
C 	C 	0.74200 0.05170 0.01640 0.06800
H 	H 	0.70330 0.06360 0.00800 -0.01500
O 	O 	0.93950 0.07080 0.96010 -0.17100
N 	N 	0.93950 0.93010 0.02930 -0.23200
H 	H 	0.97220 0.92250 0.00610 0.23000
H 	H 	0.92240 0.88700 0.06440 0.12000
C 	C 	0.81660 0.94730 0.02670 0.07400
H 	H 	0.82940 0.89030 0.03200 -0.03500
C 	C 	0.85450 0.01620 0.02690 -0.00100
C 	C 	0.83410 0.09920 0.03370 -0.08100
H 	H 	0.86010 0.14490 0.04430 0.03400
C 	C 	0.91590 0.00630 0.01120 0.08500
O 	O 	0.94110 0.07210 0.39300 -0.35600
C 	C 	0.85430 0.01300 0.19700 -0.10400
N 	N 	0.94250 0.92800 0.32000 -0.24500
H 	H 	0.97910 0.92140 0.37800 0.13800
H 	H 	0.92170 0.88540 0.26290 0.13400
C 	C 	0.91700 0.00800 0.31900 0.30300
C 	C 	0.83360 0.10100 0.15600 0.11300
H 	H 	0.85700 0.14640 0.21690 -0.01700
C 	C 	0.81790 0.94900 0.11700 -0.04800
H 	H 	0.83160 0.89190 0.12670 0.04200
N 	N 	0.72120 0.61770 0.47400 -0.23700
C 	C 	0.93810 0.71620 0.18380 0.12100
N 	N 	0.81520 0.71800 0.75850 -0.28500
N 	N 	0.81040 0.71970 0.34100 -0.27200
C 	C 	0.87380 0.71750 0.11610 -0.20700
C 	C 	0.96850 0.71610 0.38040 -0.11300
H 	H 	0.94770 0.71620 0.46860 0.07500
C 	C 	0.84000 0.71830 0.23770 0.12900
C 	C 	0.84230 0.71760 0.91860 0.17700
C 	C 	0.97090 0.71580 0.05550 -0.19100
H 	H 	0.95180 0.71530 0.92480 0.12400
C 	C 	0.74060 0.46610 0.48150 -0.11900
H 	H 	0.76700 0.42160 0.48560 0.06600
C 	C 	0.75800 0.55170 0.48360 0.06200
H 	H 	0.79670 0.56360 0.49200 -0.00800
O 	O 	0.56050 0.57080 0.53990 -0.21100
N 	N 	0.56050 0.43010 0.47070 -0.22600
H 	H 	0.52780 0.42250 0.49390 0.25800
H 	H 	0.57760 0.38700 0.43560 0.12500
C 	C 	0.68340 0.44730 0.47330 0.09300
H 	H 	0.67060 0.39030 0.46800 -0.03500
C 	C 	0.64550 0.51620 0.47310 0.04400
C 	C 	0.66590 0.59920 0.46630 -0.17900
H 	H 	0.63990 0.64490 0.45570 0.07600
C 	C 	0.58410 0.50630 0.48880 0.12000
O 	O 	0.55890 0.57210 0.10700 -0.40100
C 	C 	0.64570 0.51300 0.30300 -0.15200
N 	N 	0.55750 0.42800 0.18000 -0.23500
H 	H 	0.52090 0.42140 0.12200 0.13800
H 	H 	0.57830 0.38540 0.23710 0.12900
C 	C 	0.58300 0.50800 0.18100 0.30300
C 	C 	0.66640 0.60100 0.34400 0.20900
H 	H 	0.64300 0.64640 0.28310 -0.05200
C 	C 	0.68210 0.44900 0.38300 -0.06500
H 	H 	0.66840 0.39190 0.37330 0.04500
N 	N 	0.22120 0.11770 0.47400 -0.23800
C 	C 	0.43810 0.21620 0.18380 0.12800
N 	N 	0.31520 0.21800 0.75850 -0.28600
N 	N 	0.31040 0.21970 0.34100 -0.27200
C 	C 	0.37380 0.21750 0.11610 -0.21000
C 	C 	0.46850 0.21610 0.38040 -0.12400
H 	H 	0.44770 0.21620 0.46860 0.07800
C 	C 	0.34000 0.21830 0.23770 0.13000
C 	C 	0.34230 0.21760 0.91860 0.17800
C 	C 	0.47090 0.21580 0.05550 -0.20200
H 	H 	0.45180 0.21530 0.92480 0.12700
C 	C 	0.24060 0.96610 0.48150 -0.12300
H 	H 	0.26700 0.92160 0.48560 0.06700
C 	C 	0.25800 0.05170 0.48360 0.06600
H 	H 	0.29670 0.06360 0.49200 -0.00900
O 	O 	0.06050 0.07080 0.53990 -0.21200
N 	N 	0.06050 0.93010 0.47070 -0.22800
H 	H 	0.02780 0.92250 0.49390 0.25600
H 	H 	0.07760 0.88700 0.43560 0.12500
C 	C 	0.18340 0.94730 0.47330 0.09300
H 	H 	0.17060 0.89030 0.46800 -0.03500
C 	C 	0.14550 0.01620 0.47310 0.04500
C 	C 	0.16590 0.09920 0.46630 -0.18000
H 	H 	0.13990 0.14490 0.45570 0.07600
C 	C 	0.08410 0.00630 0.48880 0.12400
O 	O 	0.05890 0.07210 0.10700 -0.40200
C 	C 	0.14570 0.01300 0.30300 -0.15200
N 	N 	0.05750 0.92800 0.18000 -0.23600
H 	H 	0.02090 0.92140 0.12200 0.13600
H 	H 	0.07830 0.88540 0.23710 0.12900
C 	C 	0.08300 0.00800 0.18100 0.30700
C 	C 	0.16640 0.10100 0.34400 0.21000
H 	H 	0.14300 0.14640 0.28310 -0.05300
C 	C 	0.18210 0.94900 0.38300 -0.06600
H 	H 	0.16840 0.89190 0.37330 0.04500
N 	N 	0.72120 0.38230 0.97400 -0.22600
C 	C 	0.93810 0.28380 0.68380 0.09600
N 	N 	0.81520 0.28200 0.25850 -0.28200
N 	N 	0.81040 0.28030 0.84100 -0.25700
C 	C 	0.87380 0.28250 0.61610 -0.15500
C 	C 	0.96850 0.28390 0.88040 -0.13400
H 	H 	0.94770 0.28380 0.96860 0.09200
C 	C 	0.84000 0.28170 0.73770 0.12600
C 	C 	0.84230 0.28240 0.41860 0.12500
C 	C 	0.97090 0.28420 0.55550 -0.10600
H 	H 	0.95180 0.28470 0.42480 0.06700
C 	C 	0.74060 0.53390 0.98150 -0.11100
H 	H 	0.76700 0.57840 0.98560 0.07400
C 	C 	0.75800 0.44830 0.98360 0.06800
H 	H 	0.79670 0.43640 0.99200 0.00100
O 	O 	0.56050 0.42920 0.03990 -0.25400
N 	N 	0.56050 0.56990 0.97070 -0.22400
H 	H 	0.52780 0.57750 0.99390 0.28600
H 	H 	0.57760 0.61300 0.93560 0.13100
C 	C 	0.68340 0.55270 0.97330 0.10600
H 	H 	0.67060 0.60970 0.96800 -0.03100
C 	C 	0.64550 0.48380 0.97310 0.06300
C 	C 	0.66590 0.40080 0.96630 -0.24700
H 	H 	0.63990 0.35510 0.95570 0.10800
C 	C 	0.58410 0.49370 0.98880 0.17000
O 	O 	0.55890 0.42790 0.60700 -0.35500
C 	C 	0.64570 0.48700 0.80300 -0.16500
N 	N 	0.55750 0.57200 0.68000 -0.24800
H 	H 	0.52090 0.57860 0.62200 0.13600
H 	H 	0.57830 0.61460 0.73710 0.13400
C 	C 	0.58300 0.49200 0.68100 0.31400
C 	C 	0.66640 0.39900 0.84400 0.28200
H 	H 	0.64300 0.35360 0.78310 -0.07100
C 	C 	0.68210 0.55100 0.88300 -0.07200
H 	H 	0.66840 0.60810 0.87330 0.04900
N 	N 	0.22120 0.88230 0.97400 -0.22600
C 	C 	0.43810 0.78380 0.68380 0.10400
N 	N 	0.31520 0.78200 0.25850 -0.28300
N 	N 	0.31040 0.78030 0.84100 -0.25700
C 	C 	0.37380 0.78250 0.61610 -0.15900
C 	C 	0.46850 0.78390 0.88040 -0.14800
H 	H 	0.44770 0.78380 0.96860 0.09600
C 	C 	0.34000 0.78170 0.73770 0.12700
C 	C 	0.34230 0.78240 0.41860 0.12600
C 	C 	0.47090 0.78420 0.55550 -0.11900
H 	H 	0.45180 0.78470 0.42480 0.07100
C 	C 	0.24060 0.03390 0.98150 -0.10700
H 	H 	0.26700 0.07840 0.98560 0.07300
C 	C 	0.25800 0.94830 0.98360 0.06300
H 	H 	0.29670 0.93640 0.99200 0.00100
O 	O 	0.06050 0.92920 0.03990 -0.25200
N 	N 	0.06050 0.06990 0.97070 -0.22100
H 	H 	0.02780 0.07750 0.99390 0.28400
H 	H 	0.07760 0.11300 0.93560 0.13000
C 	C 	0.18340 0.05270 0.97330 0.10700
H 	H 	0.17060 0.10970 0.96800 -0.03100
C 	C 	0.14550 0.98380 0.97310 0.06100
C 	C 	0.16590 0.90080 0.96630 -0.24400
H 	H 	0.13990 0.85510 0.95570 0.10700
C 	C 	0.08410 0.99370 0.98880 0.16500
O 	O 	0.05890 0.92790 0.60700 -0.35400
C 	C 	0.14570 0.98700 0.80300 -0.16500
N 	N 	0.05750 0.07200 0.68000 -0.24500
H 	H 	0.02090 0.07860 0.62200 0.13400
H 	H 	0.07830 0.11460 0.73710 0.13300
C 	C 	0.08300 0.99200 0.68100 0.30900
C 	C 	0.16640 0.89900 0.84400 0.27800
H 	H 	0.14300 0.85360 0.78310 -0.07000
C 	C 	0.18210 0.05100 0.88300 -0.07100
H 	H 	0.16840 0.10810 0.87330 0.04900
N 	N 	0.27880 0.38230 0.52600 -0.23800
C 	C 	0.06190 0.28380 0.81620 0.00600
N 	N 	0.18480 0.28200 0.24150 -0.26400
N 	N 	0.18960 0.28030 0.65900 -0.25700
C 	C 	0.12620 0.28250 0.88390 -0.08000
C 	C 	0.03150 0.28390 0.61960 -0.03700
H 	H 	0.05230 0.28380 0.53140 0.04500
C 	C 	0.16000 0.28170 0.76230 0.10700
C 	C 	0.15770 0.28240 0.08140 0.07100
C 	C 	0.02910 0.28420 0.94450 0.03500
H 	H 	0.04820 0.28470 0.07520 0.00000
C 	C 	0.25940 0.53390 0.51850 -0.11700
H 	H 	0.23300 0.57840 0.51440 0.07000
C 	C 	0.24200 0.44830 0.51640 0.07000
H 	H 	0.20330 0.43640 0.50800 -0.00600
O 	O 	0.43950 0.42920 0.46010 -0.21400
N 	N 	0.43950 0.56990 0.52930 -0.22700
H 	H 	0.47220 0.57750 0.50610 0.25600
H 	H 	0.42240 0.61300 0.56440 0.12500
C 	C 	0.31660 0.55270 0.52670 0.08700
H 	H 	0.32940 0.60970 0.53200 -0.03200
C 	C 	0.35450 0.48380 0.52690 0.01800
C 	C 	0.33410 0.40080 0.53370 -0.15000
H 	H 	0.36010 0.35510 0.54430 0.06500
C 	C 	0.41590 0.49370 0.51120 0.13100
O 	O 	0.44110 0.42790 0.89300 -0.30800
C 	C 	0.35430 0.48700 0.69700 -0.11700
N 	N 	0.44250 0.57200 0.82000 -0.25600
H 	H 	0.47910 0.57860 0.87800 0.13400
H 	H 	0.42170 0.61460 0.76290 0.13800
C 	C 	0.41700 0.49200 0.81900 0.30900
C 	C 	0.33360 0.39900 0.65600 0.18600
H 	H 	0.35700 0.35360 0.71690 -0.03700
C 	C 	0.31790 0.55100 0.61700 -0.05400
H 	H 	0.33160 0.60810 0.62670 0.04600
N 	N 	0.77880 0.88230 0.52600 -0.23700
C 	C 	0.56190 0.78380 0.81620 -0.00300
N 	N 	0.68480 0.78200 0.24150 -0.26400
N 	N 	0.68960 0.78030 0.65900 -0.25700
C 	C 	0.62620 0.78250 0.88390 -0.07600
C 	C 	0.53150 0.78390 0.61960 -0.02500
H 	H 	0.55230 0.78380 0.53140 0.04100
C 	C 	0.66000 0.78170 0.76230 0.10600
C 	C 	0.65770 0.78240 0.08140 0.07000
C 	C 	0.52910 0.78420 0.94450 0.04900
H 	H 	0.54820 0.78470 0.07520 -0.00400
C 	C 	0.75940 0.03390 0.51850 -0.11300
H 	H 	0.73300 0.07840 0.51440 0.06900
C 	C 	0.74200 0.94830 0.51640 0.06600
H 	H 	0.70330 0.93640 0.50800 -0.00500
O 	O 	0.93950 0.92920 0.46010 -0.21200
N 	N 	0.93950 0.06990 0.52930 -0.22600
H 	H 	0.97220 0.07750 0.50610 0.25800
H 	H 	0.92240 0.11300 0.56440 0.12500
C 	C 	0.81660 0.05270 0.52670 0.08800
H 	H 	0.82940 0.10970 0.53200 -0.03200
C 	C 	0.85450 0.98380 0.52690 0.01700
C 	C 	0.83410 0.90080 0.53370 -0.14900
H 	H 	0.86010 0.85510 0.54430 0.06500
C 	C 	0.91590 0.99370 0.51120 0.12700
O 	O 	0.94110 0.92790 0.89300 -0.30700
C 	C 	0.85430 0.98700 0.69700 -0.11800
N 	N 	0.94250 0.07200 0.82000 -0.25500
H 	H 	0.97910 0.07860 0.87800 0.13600
H 	H 	0.92170 0.11460 0.76290 0.13800
C 	C 	0.91700 0.99200 0.81900 0.30600
C 	C 	0.83360 0.89900 0.65600 0.18500
H 	H 	0.85700 0.85360 0.71690 -0.03600
C 	C 	0.81790 0.05100 0.61700 -0.05400
H 	H 	0.83160 0.10810 0.62670 0.04600
Zn	Zn	0.25000 0.75000 -0.00000 1.17500
Zn	Zn	0.75000 0.75000 0.50000 1.18600
Zn	Zn	0.75000 0.25000 -0.00000 1.17500
Zn	Zn	0.25000 0.25000 0.50000 1.18600
