data_crystal

_cell_length_a 28.30060
_cell_length_b 20.08500
_cell_length_c 15.43350
_cell_angle_alpha 90.00000
_cell_angle_beta  92.49800
_cell_angle_gamma 90.00000

_symmetry_space_group_name_	'P 1'
_symmetry_space_group_name_H-M	'P 1'

loop_
_symmetry_equiv_pos_as_xyz
  x,y,z

loop_
_atom_site_label
_atom_site_type_symbol
_atom_site_fract_x
_atom_site_fract_y
_atom_site_fract_z
_atom_site_charge
Zn	Zn	0.06489 0.00518 0.01129 1.20500
C 	C 	0.03607 0.12010 0.89950 0.17100
C 	C 	0.96257 0.10960 0.87910 0.19900
C 	C 	0.37618 0.18820 0.28450 -0.14900
C 	C 	0.36108 0.14160 0.34270 0.08700
H 	H 	0.38290 0.12440 0.38360 0.02200
C 	C 	0.31533 0.11960 0.34290 -0.15800
H 	H 	0.30630 0.08890 0.38420 0.09500
C 	C 	0.28213 0.14350 0.28030 0.11000
C 	C 	0.29709 0.18920 0.22320 -0.16100
H 	H 	0.27560 0.20550 0.18110 0.09300
C 	C 	0.34359 0.21300 0.22510 0.08800
H 	H 	0.35230 0.24550 0.18600 0.01200
C 	C 	0.42629 0.21240 0.28870 0.37900
C 	C 	0.23197 0.11940 0.27730 -0.04800
C 	C 	0.20961 0.10490 0.35310 0.01600
H 	H 	0.22510 0.11330 0.40630 0.04200
C 	C 	0.16436 0.07780 0.35080 -0.11400
C 	C 	0.14033 0.06970 0.26940 0.04900
H 	H 	0.10980 0.05240 0.26670 0.03500
C 	C 	0.16134 0.08670 0.19530 -0.10400
C 	C 	0.20712 0.11420 0.19950 0.01200
H 	H 	0.22060 0.12900 0.14900 0.04200
C 	C 	0.13984 0.05980 0.43140 0.39200
C 	C 	0.13449 0.07670 0.10890 0.37200
O 	O 	0.43677 0.25670 0.23510 -0.48700
O 	O 	0.45543 0.18870 0.34040 -0.31700
O 	O 	0.15649 0.07570 0.50200 -0.31500
O 	O 	0.10193 0.02860 0.41990 -0.49800
O 	O 	0.14792 0.10350 0.04270 -0.31200
O 	O 	0.09906 0.03950 0.11220 -0.49100
N 	N 	0.02345 0.07040 0.95290 -0.28800
N 	N 	0.97471 0.06450 0.93790 -0.26300
N 	N 	0.99883 0.14730 0.85250 -0.28600
N 	N 	0.08068 0.14160 0.89410 -0.34700
H 	H 	0.10300 0.12370 0.92560 0.16400
H 	H 	0.08700 0.17340 0.85910 0.16500
N 	N 	0.91681 0.11990 0.84770 -0.34100
H 	H 	0.89420 0.09620 0.86650 0.16100
H 	H 	0.91090 0.15020 0.80920 0.15000
Zn	Zn	0.56489 0.50518 0.01129 1.20800
C 	C 	0.53607 0.62010 0.89950 0.19700
C 	C 	0.46257 0.60960 0.87910 0.19200
C 	C 	0.87618 0.68820 0.28450 -0.14300
C 	C 	0.86108 0.64160 0.34270 0.08400
H 	H 	0.88290 0.62440 0.38360 0.02600
C 	C 	0.81533 0.61960 0.34290 -0.15400
H 	H 	0.80630 0.58890 0.38420 0.09400
C 	C 	0.78213 0.64350 0.28030 0.10800
C 	C 	0.79709 0.68920 0.22320 -0.15700
H 	H 	0.77560 0.70550 0.18110 0.09300
C 	C 	0.84359 0.71300 0.22510 0.08500
H 	H 	0.85230 0.74550 0.18600 0.01400
C 	C 	0.92629 0.71240 0.28870 0.37500
C 	C 	0.73197 0.61940 0.27730 -0.04500
C 	C 	0.70961 0.60490 0.35310 0.01400
H 	H 	0.72510 0.61330 0.40630 0.04400
C 	C 	0.66436 0.57780 0.35080 -0.11000
C 	C 	0.64033 0.56970 0.26940 0.04700
H 	H 	0.60980 0.55240 0.26670 0.03800
C 	C 	0.66134 0.58670 0.19530 -0.10100
C 	C 	0.70712 0.61420 0.19950 0.01000
H 	H 	0.72060 0.62900 0.14900 0.04400
C 	C 	0.63984 0.55980 0.43140 0.39100
C 	C 	0.63449 0.57670 0.10890 0.37100
O 	O 	0.93677 0.75670 0.23510 -0.47600
O 	O 	0.95543 0.68870 0.34040 -0.30400
O 	O 	0.65649 0.57570 0.50200 -0.31400
O 	O 	0.60193 0.52860 0.41990 -0.49400
O 	O 	0.64792 0.60350 0.04270 -0.31000
O 	O 	0.59906 0.53950 0.11220 -0.48600
N 	N 	0.52345 0.57040 0.95290 -0.27900
N 	N 	0.47471 0.56450 0.93790 -0.27600
N 	N 	0.49883 0.64730 0.85250 -0.30900
N 	N 	0.58068 0.64160 0.89410 -0.35200
H 	H 	0.60300 0.62370 0.92560 0.16500
H 	H 	0.58700 0.67340 0.85910 0.16900
N 	N 	0.41681 0.61990 0.84770 -0.34000
H 	H 	0.39420 0.59620 0.86650 0.15900
H 	H 	0.41090 0.65020 0.80920 0.14900
Zn	Zn	0.93511 0.00518 0.48871 1.21000
C 	C 	0.96393 0.12010 0.60050 0.22500
C 	C 	0.03743 0.10960 0.62090 0.18700
C 	C 	0.62382 0.18820 0.21550 -0.14900
C 	C 	0.63892 0.14160 0.15730 0.08700
H 	H 	0.61710 0.12440 0.11640 0.02200
C 	C 	0.68467 0.11960 0.15710 -0.15700
H 	H 	0.69370 0.08890 0.11580 0.09400
C 	C 	0.71787 0.14350 0.21970 0.10900
C 	C 	0.70291 0.18920 0.27680 -0.16000
H 	H 	0.72440 0.20550 0.31890 0.09400
C 	C 	0.65641 0.21300 0.27490 0.08800
H 	H 	0.64770 0.24550 0.31400 0.01200
C 	C 	0.57371 0.21240 0.21130 0.37900
C 	C 	0.76803 0.11940 0.22270 -0.04500
C 	C 	0.79039 0.10490 0.14690 0.01400
H 	H 	0.77490 0.11330 0.09370 0.04300
C 	C 	0.83564 0.07780 0.14920 -0.10900
C 	C 	0.85967 0.06970 0.23060 0.04600
H 	H 	0.89020 0.05240 0.23330 0.04100
C 	C 	0.83866 0.08670 0.30470 -0.09900
C 	C 	0.79288 0.11420 0.30050 0.01000
H 	H 	0.77940 0.12900 0.35100 0.04300
C 	C 	0.86016 0.05980 0.06860 0.38900
C 	C 	0.86551 0.07670 0.39110 0.37100
O 	O 	0.56323 0.25670 0.26490 -0.48700
O 	O 	0.54457 0.18870 0.15960 -0.31700
O 	O 	0.84351 0.07570 0.99800 -0.31200
O 	O 	0.89807 0.02860 0.08010 -0.49100
O 	O 	0.85208 0.10350 0.45730 -0.30900
O 	O 	0.90094 0.03950 0.38780 -0.48300
N 	N 	0.97655 0.07040 0.54710 -0.26900
N 	N 	0.02529 0.06450 0.56210 -0.28900
N 	N 	0.00117 0.14730 0.64750 -0.32800
N 	N 	0.91932 0.14160 0.60590 -0.35800
H 	H 	0.89700 0.12370 0.57440 0.16700
H 	H 	0.91300 0.17340 0.64090 0.17300
N 	N 	0.08319 0.11990 0.65230 -0.34000
H 	H 	0.10580 0.09620 0.63350 0.15900
H 	H 	0.08910 0.15020 0.69080 0.14800
Zn	Zn	0.43511 0.50518 0.48871 1.20800
C 	C 	0.46393 0.62010 0.60050 0.19700
C 	C 	0.53743 0.60960 0.62090 0.19200
C 	C 	0.12382 0.68820 0.21550 -0.15400
C 	C 	0.13892 0.64160 0.15730 0.09000
H 	H 	0.11710 0.62440 0.11640 0.01800
C 	C 	0.18467 0.61960 0.15710 -0.16100
H 	H 	0.19370 0.58890 0.11580 0.09400
C 	C 	0.21787 0.64350 0.21970 0.11100
C 	C 	0.20291 0.68920 0.27680 -0.16300
H 	H 	0.22440 0.70550 0.31890 0.09400
C 	C 	0.15641 0.71300 0.27490 0.09000
H 	H 	0.14770 0.74550 0.31400 0.01000
C 	C 	0.07371 0.71240 0.21130 0.38100
C 	C 	0.26803 0.61940 0.22270 -0.04900
C 	C 	0.29039 0.60490 0.14690 0.01600
H 	H 	0.27490 0.61330 0.09370 0.04200
C 	C 	0.33564 0.57780 0.14920 -0.11200
C 	C 	0.35967 0.56970 0.23060 0.04900
H 	H 	0.39020 0.55240 0.23330 0.03800
C 	C 	0.33866 0.58670 0.30470 -0.10300
C 	C 	0.29288 0.61420 0.30050 0.01200
H 	H 	0.27940 0.62900 0.35100 0.04200
C 	C 	0.36016 0.55980 0.06860 0.39200
C 	C 	0.36551 0.57670 0.39110 0.37200
O 	O 	0.06323 0.75670 0.26490 -0.49300
O 	O 	0.04457 0.68870 0.15960 -0.32800
O 	O 	0.34351 0.57570 0.99800 -0.31600
O 	O 	0.39807 0.52860 0.08010 -0.49500
O 	O 	0.35208 0.60350 0.45730 -0.31100
O 	O 	0.40094 0.53950 0.38780 -0.48700
N 	N 	0.47655 0.57040 0.54710 -0.27900
N 	N 	0.52529 0.56450 0.56210 -0.27600
N 	N 	0.50117 0.64730 0.64750 -0.30900
N 	N 	0.41932 0.64160 0.60590 -0.35200
H 	H 	0.39700 0.62370 0.57440 0.16500
H 	H 	0.41300 0.67340 0.64090 0.16900
N 	N 	0.58319 0.61990 0.65230 -0.34100
H 	H 	0.60580 0.59620 0.63350 0.16000
H 	H 	0.58910 0.65020 0.69080 0.14900
Zn	Zn	0.93511 0.99482 0.98871 1.20900
C 	C 	0.96393 0.87990 0.10050 0.22600
C 	C 	0.03743 0.89040 0.12090 0.18700
C 	C 	0.62382 0.81180 0.71550 -0.14900
C 	C 	0.63892 0.85840 0.65730 0.08700
H 	H 	0.61710 0.87560 0.61640 0.02200
C 	C 	0.68467 0.88040 0.65710 -0.15700
H 	H 	0.69370 0.91110 0.61580 0.09400
C 	C 	0.71787 0.85650 0.71970 0.10900
C 	C 	0.70291 0.81080 0.77680 -0.16000
H 	H 	0.72440 0.79450 0.81890 0.09400
C 	C 	0.65641 0.78700 0.77490 0.08800
H 	H 	0.64770 0.75450 0.81400 0.01200
C 	C 	0.57371 0.78760 0.71130 0.37900
C 	C 	0.76803 0.88060 0.72270 -0.04600
C 	C 	0.79039 0.89510 0.64690 0.01400
H 	H 	0.77490 0.88670 0.59370 0.04300
C 	C 	0.83564 0.92220 0.64920 -0.10900
C 	C 	0.85967 0.93030 0.73060 0.04700
H 	H 	0.89020 0.94760 0.73330 0.04100
C 	C 	0.83866 0.91330 0.80470 -0.10000
C 	C 	0.79288 0.88580 0.80050 0.01000
H 	H 	0.77940 0.87100 0.85100 0.04300
C 	C 	0.86016 0.94020 0.56860 0.39100
C 	C 	0.86551 0.92330 0.89110 0.37100
O 	O 	0.56323 0.74330 0.76490 -0.48700
O 	O 	0.54457 0.81130 0.65960 -0.31700
O 	O 	0.84351 0.92430 0.49800 -0.31300
O 	O 	0.89807 0.97140 0.58010 -0.49100
O 	O 	0.85208 0.89650 0.95730 -0.31100
O 	O 	0.90094 0.96050 0.88780 -0.48400
N 	N 	0.97655 0.92960 0.04710 -0.26800
N 	N 	0.02529 0.93550 0.06210 -0.28800
N 	N 	0.00117 0.85270 0.14750 -0.32900
N 	N 	0.91932 0.85840 0.10590 -0.35800
H 	H 	0.89700 0.87630 0.07440 0.16800
H 	H 	0.91300 0.82660 0.14090 0.17400
N 	N 	0.08319 0.88010 0.15230 -0.34000
H 	H 	0.10580 0.90380 0.13350 0.15900
H 	H 	0.08910 0.84980 0.19080 0.14800
Zn	Zn	0.43511 0.49482 0.98871 1.20800
C 	C 	0.46393 0.37990 0.10050 0.19700
C 	C 	0.53743 0.39040 0.12090 0.19200
C 	C 	0.12382 0.31180 0.71550 -0.15400
C 	C 	0.13892 0.35840 0.65730 0.09000
H 	H 	0.11710 0.37560 0.61640 0.01700
C 	C 	0.18467 0.38040 0.65710 -0.16100
H 	H 	0.19370 0.41110 0.61580 0.09400
C 	C 	0.21787 0.35650 0.71970 0.11100
C 	C 	0.20291 0.31080 0.77680 -0.16300
H 	H 	0.22440 0.29450 0.81890 0.09400
C 	C 	0.15641 0.28700 0.77490 0.09000
H 	H 	0.14770 0.25450 0.81400 0.01100
C 	C 	0.07371 0.28760 0.71130 0.38100
C 	C 	0.26803 0.38060 0.72270 -0.04800
C 	C 	0.29039 0.39510 0.64690 0.01600
H 	H 	0.27490 0.38670 0.59370 0.04200
C 	C 	0.33564 0.42220 0.64920 -0.11200
C 	C 	0.35967 0.43030 0.73060 0.04800
H 	H 	0.39020 0.44760 0.73330 0.03800
C 	C 	0.33866 0.41330 0.80470 -0.10200
C 	C 	0.29288 0.38580 0.80050 0.01200
H 	H 	0.27940 0.37100 0.85100 0.04200
C 	C 	0.36016 0.44020 0.56860 0.39100
C 	C 	0.36551 0.42330 0.89110 0.37200
O 	O 	0.06323 0.24330 0.76490 -0.49300
O 	O 	0.04457 0.31130 0.65960 -0.32800
O 	O 	0.34351 0.42430 0.49800 -0.31500
O 	O 	0.39807 0.47140 0.58010 -0.49500
O 	O 	0.35208 0.39650 0.95730 -0.31100
O 	O 	0.40094 0.46050 0.88780 -0.48700
N 	N 	0.47655 0.42960 0.04710 -0.27900
N 	N 	0.52529 0.43550 0.06210 -0.27600
N 	N 	0.50117 0.35270 0.14750 -0.30900
N 	N 	0.41932 0.35840 0.10590 -0.35200
H 	H 	0.39700 0.37630 0.07440 0.16500
H 	H 	0.41300 0.32660 0.14090 0.16900
N 	N 	0.58319 0.38010 0.15230 -0.34100
H 	H 	0.60580 0.40380 0.13350 0.16000
H 	H 	0.58910 0.34980 0.19080 0.14900
Zn	Zn	0.06489 0.99482 0.51129 1.20600
C 	C 	0.03607 0.87990 0.39950 0.17000
C 	C 	0.96257 0.89040 0.37910 0.19900
C 	C 	0.37618 0.81180 0.78450 -0.14900
C 	C 	0.36108 0.85840 0.84270 0.08700
H 	H 	0.38290 0.87560 0.88360 0.02200
C 	C 	0.31533 0.88040 0.84290 -0.15800
H 	H 	0.30630 0.91110 0.88420 0.09400
C 	C 	0.28213 0.85650 0.78030 0.11000
C 	C 	0.29709 0.81080 0.72320 -0.16100
H 	H 	0.27560 0.79450 0.68110 0.09300
C 	C 	0.34359 0.78700 0.72510 0.08800
H 	H 	0.35230 0.75450 0.68600 0.01200
C 	C 	0.42629 0.78760 0.78870 0.37900
C 	C 	0.23197 0.88060 0.77730 -0.04800
C 	C 	0.20961 0.89510 0.85310 0.01500
H 	H 	0.22510 0.88670 0.90630 0.04200
C 	C 	0.16436 0.92220 0.85080 -0.11300
C 	C 	0.14033 0.93030 0.76940 0.04800
H 	H 	0.10980 0.94760 0.76670 0.03500
C 	C 	0.16134 0.91330 0.69530 -0.10400
C 	C 	0.20712 0.88580 0.69950 0.01100
H 	H 	0.22060 0.87100 0.64900 0.04200
C 	C 	0.13984 0.94020 0.93140 0.38800
C 	C 	0.13449 0.92330 0.60890 0.37200
O 	O 	0.43677 0.74330 0.73510 -0.48700
O 	O 	0.45543 0.81130 0.84040 -0.31700
O 	O 	0.15649 0.92430 0.00200 -0.31200
O 	O 	0.10193 0.97140 0.91990 -0.49700
O 	O 	0.14792 0.89650 0.54270 -0.31200
O 	O 	0.09906 0.96050 0.61220 -0.49000
N 	N 	0.02345 0.92960 0.45290 -0.28900
N 	N 	0.97471 0.93550 0.43790 -0.26300
N 	N 	0.99883 0.85270 0.35250 -0.28600
N 	N 	0.08068 0.85840 0.39410 -0.34700
H 	H 	0.10300 0.87630 0.42560 0.16300
H 	H 	0.08700 0.82660 0.35910 0.16500
N 	N 	0.91681 0.88010 0.34770 -0.34100
H 	H 	0.89420 0.90380 0.36650 0.16100
H 	H 	0.91090 0.84980 0.30920 0.15100
Zn	Zn	0.56489 0.49482 0.51129 1.20800
C 	C 	0.53607 0.37990 0.39950 0.19700
C 	C 	0.46257 0.39040 0.37910 0.19200
C 	C 	0.87618 0.31180 0.78450 -0.14400
C 	C 	0.86108 0.35840 0.84270 0.08400
H 	H 	0.88290 0.37560 0.88360 0.02600
C 	C 	0.81533 0.38040 0.84290 -0.15400
H 	H 	0.80630 0.41110 0.88420 0.09400
C 	C 	0.78213 0.35650 0.78030 0.10800
C 	C 	0.79709 0.31080 0.72320 -0.15700
H 	H 	0.77560 0.29450 0.68110 0.09300
C 	C 	0.84359 0.28700 0.72510 0.08500
H 	H 	0.85230 0.25450 0.68600 0.01400
C 	C 	0.92629 0.28760 0.78870 0.37500
C 	C 	0.73197 0.38060 0.77730 -0.04500
C 	C 	0.70961 0.39510 0.85310 0.01400
H 	H 	0.72510 0.38670 0.90630 0.04400
C 	C 	0.66436 0.42220 0.85080 -0.11000
C 	C 	0.64033 0.43030 0.76940 0.04700
H 	H 	0.60980 0.44760 0.76670 0.03800
C 	C 	0.66134 0.41330 0.69530 -0.10100
C 	C 	0.70712 0.38580 0.69950 0.01000
H 	H 	0.72060 0.37100 0.64900 0.04400
C 	C 	0.63984 0.44020 0.93140 0.39100
C 	C 	0.63449 0.42330 0.60890 0.37100
O 	O 	0.93677 0.24330 0.73510 -0.47600
O 	O 	0.95543 0.31130 0.84040 -0.30400
O 	O 	0.65649 0.42430 0.00200 -0.31400
O 	O 	0.60193 0.47140 0.91990 -0.49400
O 	O 	0.64792 0.39650 0.54270 -0.31000
O 	O 	0.59906 0.46050 0.61220 -0.48700
N 	N 	0.52345 0.42960 0.45290 -0.27900
N 	N 	0.47471 0.43550 0.43790 -0.27600
N 	N 	0.49883 0.35270 0.35250 -0.30900
N 	N 	0.58068 0.35840 0.39410 -0.35200
H 	H 	0.60300 0.37630 0.42560 0.16500
H 	H 	0.58700 0.32660 0.35910 0.16900
N 	N 	0.41681 0.38010 0.34770 -0.34000
H 	H 	0.39420 0.40380 0.36650 0.15900
H 	H 	0.41090 0.34980 0.30920 0.14900
Zn	Zn	0.50000 0.29271 0.25000 1.21600
Zn	Zn	0.00000 0.79271 0.25000 1.20600
Zn	Zn	0.50000 0.70729 0.75000 1.21600
Zn	Zn	0.00000 0.20729 0.75000 1.20600
