data_crystal

_cell_length_a 18.82260
_cell_length_b 18.64270
_cell_length_c 14.24850
_cell_angle_alpha 90.00000
_cell_angle_beta  130.17500
_cell_angle_gamma 90.00000

_symmetry_space_group_name_	'P 1'
_symmetry_space_group_name_H-M	'P 1'

loop_
_symmetry_equiv_pos_as_xyz
  x,y,z

loop_
_atom_site_label
_atom_site_type_symbol
_atom_site_fract_x
_atom_site_fract_y
_atom_site_fract_z
_atom_site_charge
C 	C 	0.68590 0.33870 0.11750 -0.11000
C 	C 	0.68970 0.31690 0.02770 0.01100
H 	H 	0.65250 0.33980 0.95190 0.03600
C 	C 	0.74790 0.26130 0.04860 -0.00100
C 	C 	0.80070 0.22850 0.16180 -0.01000
H 	H 	0.84130 0.19210 0.17870 0.05900
C 	C 	0.79590 0.24720 0.25110 -0.09100
C 	C 	0.73870 0.30400 0.22940 0.04600
H 	H 	0.73620 0.31840 0.28970 0.04800
C 	C 	0.62190 0.39920 0.08780 0.41500
C 	C 	0.85600 0.20670 0.37150 0.38800
C 	C 	0.53580 0.44270 0.33060 0.21700
N 	N 	0.52770 0.46210 0.41250 -0.28300
N 	N 	0.53900 0.37420 0.30420 -0.34800
H 	H 	0.53560 0.33990 0.34140 0.16300
H 	H 	0.54440 0.36470 0.24990 0.16700
O 	O 	0.62100 0.42050 0.17030 -0.45400
O 	O 	0.57360 0.42430 0.98220 -0.48300
O 	O 	0.85600 0.22050 0.45520 -0.28700
O 	O 	0.90040 0.15660 0.37330 -0.46600
C 	C 	0.18590 0.83870 0.11750 -0.11000
C 	C 	0.18970 0.81690 0.02770 -0.00300
H 	H 	0.15250 0.83980 0.95190 0.03600
C 	C 	0.24790 0.76130 0.04860 -0.00500
C 	C 	0.30070 0.72850 0.16180 -0.00800
H 	H 	0.34130 0.69210 0.17870 0.04600
C 	C 	0.29590 0.74720 0.25110 -0.10200
C 	C 	0.23870 0.80400 0.22940 0.04400
H 	H 	0.23620 0.81840 0.28970 0.04600
C 	C 	0.12190 0.89920 0.08780 0.40200
C 	C 	0.35600 0.70670 0.37150 0.39300
C 	C 	0.03580 0.94270 0.33060 0.25000
N 	N 	0.02770 0.96210 0.41250 -0.27500
N 	N 	0.03900 0.87420 0.30420 -0.35200
H 	H 	0.03560 0.83990 0.34140 0.14400
H 	H 	0.04440 0.86470 0.24990 0.15200
O 	O 	0.12100 0.92050 0.17030 -0.44400
O 	O 	0.07360 0.92430 0.98220 -0.49100
O 	O 	0.35600 0.72050 0.45520 -0.30100
O 	O 	0.40040 0.65660 0.37330 -0.50200
C 	C 	0.31410 0.33870 0.88250 -0.11000
C 	C 	0.31030 0.31690 0.97230 -0.01500
H 	H 	0.34750 0.33980 0.04810 0.04900
C 	C 	0.25210 0.26130 0.95140 -0.01000
C 	C 	0.19930 0.22850 0.83820 -0.00700
H 	H 	0.15870 0.19210 0.82130 0.03100
C 	C 	0.20410 0.24720 0.74890 -0.11600
C 	C 	0.26130 0.30400 0.77060 0.04400
H 	H 	0.26380 0.31840 0.71030 0.03900
C 	C 	0.37810 0.39920 0.91220 0.39600
C 	C 	0.14400 0.20670 0.62850 0.39500
C 	C 	0.46420 0.44270 0.66940 0.21400
N 	N 	0.47230 0.46210 0.58750 -0.28400
N 	N 	0.46100 0.37420 0.69580 -0.34800
H 	H 	0.46440 0.33990 0.65860 0.16100
H 	H 	0.45560 0.36470 0.75010 0.16400
O 	O 	0.37900 0.42050 0.82970 -0.45800
O 	O 	0.42640 0.42430 0.01780 -0.47400
O 	O 	0.14400 0.22050 0.54480 -0.31900
O 	O 	0.09960 0.15660 0.62670 -0.53200
C 	C 	0.81410 0.83870 0.88250 -0.06500
C 	C 	0.81030 0.81690 0.97230 -0.04400
H 	H 	0.84750 0.83980 0.04810 0.08300
C 	C 	0.75210 0.76130 0.95140 0.01500
C 	C 	0.69930 0.72850 0.83820 -0.01900
H 	H 	0.65870 0.69210 0.82130 0.05300
C 	C 	0.70410 0.74720 0.74890 -0.08100
C 	C 	0.76130 0.80400 0.77060 0.02600
H 	H 	0.76380 0.81840 0.71030 0.05900
C 	C 	0.87810 0.89920 0.91220 0.37200
C 	C 	0.64400 0.70670 0.62850 0.38900
C 	C 	0.96420 0.94270 0.66940 0.29400
N 	N 	0.97230 0.96210 0.58750 -0.24200
N 	N 	0.96100 0.87420 0.69580 -0.36700
H 	H 	0.96440 0.83990 0.65860 0.19100
H 	H 	0.95560 0.86470 0.75010 0.19500
O 	O 	0.87900 0.92050 0.82970 -0.41100
O 	O 	0.92640 0.92430 0.01780 -0.39500
O 	O 	0.64400 0.72050 0.54480 -0.29200
O 	O 	0.59960 0.65660 0.62670 -0.49500
C 	C 	0.31410 0.66130 0.88250 -0.10700
C 	C 	0.31030 0.68310 0.97230 -0.01400
H 	H 	0.34750 0.66020 0.04810 0.05000
C 	C 	0.25210 0.73870 0.95140 -0.00700
C 	C 	0.19930 0.77150 0.83820 -0.00500
H 	H 	0.15870 0.80790 0.82130 0.03600
C 	C 	0.20410 0.75280 0.74890 -0.10900
C 	C 	0.26130 0.69600 0.77060 0.04400
H 	H 	0.26380 0.68160 0.71030 0.04100
C 	C 	0.37810 0.60080 0.91220 0.39700
C 	C 	0.14400 0.79330 0.62850 0.39500
C 	C 	0.46420 0.55730 0.66940 0.21500
N 	N 	0.47230 0.53790 0.58750 -0.28400
N 	N 	0.46100 0.62580 0.69580 -0.35000
H 	H 	0.46440 0.66010 0.65860 0.16400
H 	H 	0.45560 0.63530 0.75010 0.16800
O 	O 	0.37900 0.57950 0.82970 -0.45700
O 	O 	0.42640 0.57570 0.01780 -0.47400
O 	O 	0.14400 0.77950 0.54480 -0.31200
O 	O 	0.09960 0.84340 0.62670 -0.52000
C 	C 	0.81410 0.16130 0.88250 -0.08100
C 	C 	0.81030 0.18310 0.97230 -0.04200
H 	H 	0.84750 0.16020 0.04810 0.07500
C 	C 	0.75210 0.23870 0.95140 0.00700
C 	C 	0.69930 0.27150 0.83820 -0.01700
H 	H 	0.65870 0.30790 0.82130 0.05000
C 	C 	0.70410 0.25280 0.74890 -0.09000
C 	C 	0.76130 0.19600 0.77060 0.03000
H 	H 	0.76380 0.18160 0.71030 0.04900
C 	C 	0.87810 0.10080 0.91220 0.37600
C 	C 	0.64400 0.29330 0.62850 0.39000
C 	C 	0.96420 0.05730 0.66940 0.22700
N 	N 	0.97230 0.03790 0.58750 -0.28800
N 	N 	0.96100 0.12580 0.69580 -0.35500
H 	H 	0.96440 0.16010 0.65860 0.18600
H 	H 	0.95560 0.13530 0.75010 0.18600
O 	O 	0.87900 0.07950 0.82970 -0.45100
O 	O 	0.92640 0.07570 0.01780 -0.43300
O 	O 	0.64400 0.27950 0.54480 -0.30000
O 	O 	0.59960 0.34340 0.62670 -0.49700
C 	C 	0.68590 0.66130 0.11750 -0.10600
C 	C 	0.68970 0.68310 0.02770 0.01300
H 	H 	0.65250 0.66020 0.95190 0.03800
C 	C 	0.74790 0.73870 0.04860 0.00300
C 	C 	0.80070 0.77150 0.16180 -0.00800
H 	H 	0.84130 0.80790 0.17870 0.06400
C 	C 	0.79590 0.75280 0.25110 -0.08400
C 	C 	0.73870 0.69600 0.22940 0.04600
H 	H 	0.73620 0.68160 0.28970 0.05100
C 	C 	0.62190 0.60080 0.08780 0.41500
C 	C 	0.85600 0.79330 0.37150 0.38800
C 	C 	0.53580 0.55730 0.33060 0.21800
N 	N 	0.52770 0.53790 0.41250 -0.28300
N 	N 	0.53900 0.62580 0.30420 -0.35000
H 	H 	0.53560 0.66010 0.34140 0.16700
H 	H 	0.54440 0.63530 0.24990 0.17000
O 	O 	0.62100 0.57950 0.17030 -0.45300
O 	O 	0.57360 0.57570 0.98220 -0.48300
O 	O 	0.85600 0.77950 0.45520 -0.28000
O 	O 	0.90040 0.84340 0.37330 -0.45400
C 	C 	0.18590 0.16130 0.11750 -0.12700
C 	C 	0.18970 0.18310 0.02770 -0.00100
H 	H 	0.15250 0.16020 0.95190 0.02900
C 	C 	0.24790 0.23870 0.04860 -0.01300
C 	C 	0.30070 0.27150 0.16180 -0.00600
H 	H 	0.34130 0.30790 0.17870 0.04400
C 	C 	0.29590 0.25280 0.25110 -0.11100
C 	C 	0.23870 0.19600 0.22940 0.04900
H 	H 	0.23620 0.18160 0.28970 0.03600
C 	C 	0.12190 0.10080 0.08780 0.40700
C 	C 	0.35600 0.29330 0.37150 0.39300
C 	C 	0.03580 0.05730 0.33060 0.18400
N 	N 	0.02770 0.03790 0.41250 -0.32100
N 	N 	0.03900 0.12580 0.30420 -0.34100
H 	H 	0.03560 0.16010 0.34140 0.13900
H 	H 	0.04440 0.13530 0.24990 0.14300
O 	O 	0.12100 0.07950 0.17030 -0.48300
O 	O 	0.07360 0.07570 0.98220 -0.52800
O 	O 	0.35600 0.27950 0.45520 -0.30900
O 	O 	0.40040 0.34340 0.37330 -0.50400
Zn	Zn	0.52995 0.50000 0.12682 1.21800
N 	N 	0.53980 0.50000 0.27570 -0.29800
Zn	Zn	0.02995 0.00000 0.12682 1.17900
N 	N 	0.03980 0.00000 0.27570 -0.34700
Zn	Zn	0.47005 0.50000 0.87318 1.21700
N 	N 	0.46020 0.50000 0.72430 -0.29900
Zn	Zn	0.97005 0.00000 0.87318 1.21700
N 	N 	0.96020 0.00000 0.72430 -0.33400
Zn	Zn	0.00000 0.09694 0.50000 1.17700
Zn	Zn	0.50000 0.59694 0.50000 1.20800
Zn	Zn	0.00000 0.90306 0.50000 1.18600
Zn	Zn	0.50000 0.40306 0.50000 1.20800
