data_crystal

_cell_length_a 23.37620
_cell_length_b 13.44610
_cell_length_c 21.34990
_cell_angle_alpha 90.00000
_cell_angle_beta  90.00000
_cell_angle_gamma 90.00000

_symmetry_space_group_name_	'P 1'
_symmetry_space_group_name_H-M	'P 1'

loop_
_symmetry_equiv_pos_as_xyz
  x,y,z

loop_
_atom_site_label
_atom_site_type_symbol
_atom_site_fract_x
_atom_site_fract_y
_atom_site_fract_z
_atom_site_charge
C 	C 	0.01630 0.97770 0.27730 0.07100
H 	H 	0.99400 0.01830 0.25190 -0.00800
N 	N 	0.06719 0.01140 0.29547 -0.21700
C 	C 	0.99490 0.88620 0.29390 -0.12900
H 	H 	0.95950 0.86490 0.27940 0.05800
N 	N 	0.16895 0.08250 0.32418 -0.23000
C 	C 	0.02750 0.82690 0.33260 0.04100
H 	H 	0.01380 0.76540 0.34580 0.01100
C 	C 	0.08040 0.85950 0.35150 -0.11700
H 	H 	0.10300 0.82020 0.37750 0.06900
C 	C 	0.09977 0.95240 0.33129 0.05100
C 	C 	0.15720 0.99230 0.34796 0.06100
C 	C 	0.19690 0.94110 0.38360 -0.13700
H 	H 	0.18830 0.87850 0.39950 0.05700
C 	C 	0.24960 0.98410 0.39540 0.06100
H 	H 	0.27670 0.95070 0.41950 -0.00600
C 	C 	0.26150 0.07520 0.37170 -0.15500
H 	H 	0.29650 0.10570 0.37900 0.08100
C 	C 	0.21980 0.12110 0.33630 0.08700
H 	H 	0.22800 0.18360 0.31990 -0.02800
Cu	Cu	0.10154 0.15606 0.27800 0.85200
N 	N 	0.09565 0.16430 0.18723 -0.23600
C 	C 	0.07809 0.13790 0.13988 -0.01800
S 	S 	0.06772 0.90838 0.10099 -0.24500
Re	Re	0.02764 0.08898 0.94171 0.33500
S 	S 	0.04999 0.94669 0.87799 -0.25300
Re	Re	0.06340 0.92128 0.98851 0.33600
S 	S 	0.00114 0.21805 0.01462 -0.24400
S 	S 	0.11908 0.07290 0.99358 -0.25000
Re	Re	0.03745 0.06812 0.06278 0.33400
N 	N 	0.07469 0.25730 0.33536 -0.23800
C 	C 	0.05858 0.31100 0.37312 -0.01200
C 	C 	0.23180 0.94550 0.08130 0.08200
H 	H 	0.23580 0.97720 0.04280 -0.01100
N 	N 	0.24655 0.84920 0.08580 -0.22300
C 	C 	0.21100 0.99900 0.13100 -0.15400
H 	H 	0.20030 0.06520 0.12640 0.07900
C 	C 	0.20650 0.95230 0.18690 0.06900
H 	H 	0.19280 0.98690 0.22150 -0.00500
C 	C 	0.22200 0.85360 0.19310 -0.13300
H 	H 	0.21900 0.82140 0.23150 0.07500
C 	C 	0.24220 0.80380 0.14080 0.05900
N 	N 	0.17653 0.78320 0.97249 -0.23400
C 	C 	0.13591 0.83050 0.97574 -0.02000
C 	C 	0.48370 0.52230 0.27730 0.07200
H 	H 	0.50600 0.48170 0.25190 -0.00700
N 	N 	0.43281 0.48860 0.29547 -0.21600
C 	C 	0.50510 0.61380 0.29390 -0.12700
H 	H 	0.54050 0.63510 0.27940 0.05900
N 	N 	0.33105 0.41750 0.32418 -0.22900
C 	C 	0.47250 0.67310 0.33260 0.04100
H 	H 	0.48620 0.73460 0.34580 0.01200
C 	C 	0.41960 0.64050 0.35150 -0.11600
H 	H 	0.39700 0.67980 0.37750 0.07000
C 	C 	0.40023 0.54760 0.33129 0.05100
C 	C 	0.34280 0.50770 0.34796 0.06100
C 	C 	0.30310 0.55890 0.38360 -0.13700
H 	H 	0.31170 0.62150 0.39950 0.05700
C 	C 	0.25040 0.51590 0.39540 0.06100
H 	H 	0.22330 0.54930 0.41950 -0.00600
C 	C 	0.23850 0.42480 0.37170 -0.15500
H 	H 	0.20350 0.39430 0.37900 0.08100
C 	C 	0.28020 0.37890 0.33630 0.08700
H 	H 	0.27200 0.31640 0.31990 -0.02800
Cu	Cu	0.39846 0.34394 0.27800 0.85200
N 	N 	0.40435 0.33570 0.18723 -0.23600
C 	C 	0.42191 0.36210 0.13988 -0.01800
S 	S 	0.43228 0.59162 0.10099 -0.24500
Re	Re	0.47236 0.41102 0.94171 0.33500
S 	S 	0.45001 0.55331 0.87799 -0.25400
Re	Re	0.43660 0.57872 0.98851 0.33500
S 	S 	0.49886 0.28195 0.01462 -0.24400
S 	S 	0.38092 0.42710 0.99358 -0.25000
Re	Re	0.46255 0.43188 0.06278 0.33500
N 	N 	0.42531 0.24270 0.33536 -0.23800
C 	C 	0.44142 0.18900 0.37312 -0.01200
C 	C 	0.26820 0.55450 0.08130 0.08200
H 	H 	0.26420 0.52280 0.04280 -0.01100
N 	N 	0.25345 0.65080 0.08580 -0.22300
C 	C 	0.28900 0.50100 0.13100 -0.15400
H 	H 	0.29970 0.43480 0.12640 0.07900
C 	C 	0.29350 0.54770 0.18690 0.06900
H 	H 	0.30720 0.51310 0.22150 -0.00500
C 	C 	0.27800 0.64640 0.19310 -0.13300
H 	H 	0.28100 0.67860 0.23150 0.07500
C 	C 	0.25780 0.69620 0.14080 0.05900
N 	N 	0.32347 0.71680 0.97249 -0.23400
C 	C 	0.36409 0.66950 0.97574 -0.02000
C 	C 	0.98370 0.47770 0.22270 0.07300
H 	H 	0.00600 0.51830 0.24810 -0.00700
N 	N 	0.93281 0.51140 0.20453 -0.21600
C 	C 	0.00510 0.38620 0.20610 -0.12900
H 	H 	0.04050 0.36490 0.22060 0.06000
N 	N 	0.83105 0.58250 0.17582 -0.22900
C 	C 	0.97250 0.32690 0.16740 0.04300
H 	H 	0.98620 0.26540 0.15420 0.01200
C 	C 	0.91960 0.35950 0.14850 -0.11600
H 	H 	0.89700 0.32020 0.12250 0.07000
C 	C 	0.90023 0.45240 0.16871 0.05100
C 	C 	0.84280 0.49230 0.15204 0.06000
C 	C 	0.80310 0.44110 0.11640 -0.13700
H 	H 	0.81170 0.37850 0.10050 0.05700
C 	C 	0.75040 0.48410 0.10460 0.06000
H 	H 	0.72330 0.45070 0.08050 -0.00600
C 	C 	0.73850 0.57520 0.12830 -0.15500
H 	H 	0.70350 0.60570 0.12100 0.08100
C 	C 	0.78020 0.62110 0.16370 0.08700
H 	H 	0.77200 0.68360 0.18010 -0.02800
Cu	Cu	0.89846 0.65606 0.22200 0.85200
N 	N 	0.90435 0.66430 0.31277 -0.23600
C 	C 	0.92191 0.63790 0.36012 -0.01800
S 	S 	0.93228 0.40838 0.39901 -0.24500
Re	Re	0.97236 0.58898 0.55829 0.33500
S 	S 	0.95001 0.44669 0.62201 -0.25400
Re	Re	0.93660 0.42128 0.51149 0.33500
S 	S 	0.99886 0.71805 0.48538 -0.24400
S 	S 	0.88092 0.57290 0.50642 -0.25000
Re	Re	0.96255 0.56812 0.43722 0.33500
N 	N 	0.92531 0.75730 0.16464 -0.23800
C 	C 	0.94142 0.81100 0.12688 -0.01200
C 	C 	0.76820 0.44550 0.41870 0.08200
H 	H 	0.76420 0.47720 0.45720 -0.01100
N 	N 	0.75345 0.34920 0.41420 -0.22300
C 	C 	0.78900 0.49900 0.36900 -0.15400
H 	H 	0.79970 0.56520 0.37360 0.07900
C 	C 	0.79350 0.45230 0.31310 0.06900
H 	H 	0.80720 0.48690 0.27850 -0.00500
C 	C 	0.77800 0.35360 0.30690 -0.13300
H 	H 	0.78100 0.32140 0.26850 0.07500
C 	C 	0.75780 0.30380 0.35920 0.05900
N 	N 	0.82347 0.28320 0.52751 -0.23500
C 	C 	0.86409 0.33050 0.52426 -0.02000
C 	C 	0.51630 0.02230 0.22270 0.07200
H 	H 	0.49400 0.98170 0.24810 -0.00700
N 	N 	0.56719 0.98860 0.20453 -0.21600
C 	C 	0.49490 0.11380 0.20610 -0.12700
H 	H 	0.45950 0.13510 0.22060 0.05900
N 	N 	0.66895 0.91750 0.17582 -0.22900
C 	C 	0.52750 0.17310 0.16740 0.04100
H 	H 	0.51380 0.23460 0.15420 0.01200
C 	C 	0.58040 0.14050 0.14850 -0.11600
H 	H 	0.60300 0.17980 0.12250 0.07000
C 	C 	0.59977 0.04760 0.16871 0.05100
C 	C 	0.65720 0.00770 0.15204 0.06100
C 	C 	0.69690 0.05890 0.11640 -0.13800
H 	H 	0.68830 0.12150 0.10050 0.05700
C 	C 	0.74960 0.01590 0.10460 0.06100
H 	H 	0.77670 0.04930 0.08050 -0.00600
C 	C 	0.76150 0.92480 0.12830 -0.15500
H 	H 	0.79650 0.89430 0.12100 0.08100
C 	C 	0.71980 0.87890 0.16370 0.08800
H 	H 	0.72800 0.81640 0.18010 -0.02800
Cu	Cu	0.60154 0.84394 0.22200 0.85200
N 	N 	0.59565 0.83570 0.31277 -0.23600
C 	C 	0.57809 0.86210 0.36012 -0.01800
S 	S 	0.56772 0.09162 0.39901 -0.24500
Re	Re	0.52764 0.91102 0.55829 0.33500
S 	S 	0.54999 0.05331 0.62201 -0.25400
Re	Re	0.56340 0.07872 0.51149 0.33500
S 	S 	0.50114 0.78195 0.48538 -0.24400
S 	S 	0.61908 0.92710 0.50642 -0.25000
Re	Re	0.53745 0.93188 0.43722 0.33500
N 	N 	0.57469 0.74270 0.16464 -0.23800
C 	C 	0.55858 0.68900 0.12688 -0.01200
C 	C 	0.73180 0.05450 0.41870 0.08200
H 	H 	0.73580 0.02280 0.45720 -0.01100
N 	N 	0.74655 0.15080 0.41420 -0.22300
C 	C 	0.71100 0.00100 0.36900 -0.15400
H 	H 	0.70030 0.93480 0.37360 0.07900
C 	C 	0.70650 0.04770 0.31310 0.06900
H 	H 	0.69280 0.01310 0.27850 -0.00500
C 	C 	0.72200 0.14640 0.30690 -0.13300
H 	H 	0.71900 0.17860 0.26850 0.07500
C 	C 	0.74220 0.19620 0.35920 0.05900
N 	N 	0.67653 0.21680 0.52751 -0.23500
C 	C 	0.63591 0.16950 0.52426 -0.02000
C 	C 	0.98370 0.02230 0.72270 0.07200
H 	H 	0.00600 0.98170 0.74810 -0.00700
N 	N 	0.93281 0.98860 0.70453 -0.21600
C 	C 	0.00510 0.11380 0.70610 -0.12800
H 	H 	0.04050 0.13510 0.72060 0.05900
N 	N 	0.83105 0.91750 0.67582 -0.22900
C 	C 	0.97250 0.17310 0.66740 0.04200
H 	H 	0.98620 0.23460 0.65420 0.01200
C 	C 	0.91960 0.14050 0.64850 -0.11600
H 	H 	0.89700 0.17980 0.62250 0.07000
C 	C 	0.90023 0.04760 0.66871 0.05100
C 	C 	0.84280 0.00770 0.65204 0.06100
C 	C 	0.80310 0.05890 0.61640 -0.13700
H 	H 	0.81170 0.12150 0.60050 0.05700
C 	C 	0.75040 0.01590 0.60460 0.06100
H 	H 	0.72330 0.04930 0.58050 -0.00600
C 	C 	0.73850 0.92480 0.62830 -0.15500
H 	H 	0.70350 0.89430 0.62100 0.08100
C 	C 	0.78020 0.87890 0.66370 0.08700
H 	H 	0.77200 0.81640 0.68010 -0.02800
Cu	Cu	0.89846 0.84394 0.72200 0.85200
N 	N 	0.90435 0.83570 0.81277 -0.23600
C 	C 	0.92191 0.86210 0.86012 -0.01800
S 	S 	0.93228 0.09162 0.89901 -0.24500
Re	Re	0.97236 0.91102 0.05829 0.33500
S 	S 	0.95001 0.05331 0.12201 -0.25300
Re	Re	0.93660 0.07872 0.01149 0.33600
S 	S 	0.99886 0.78195 0.98538 -0.24400
S 	S 	0.88092 0.92710 0.00642 -0.25000
Re	Re	0.96255 0.93188 0.93722 0.33400
N 	N 	0.92531 0.74270 0.66464 -0.23800
C 	C 	0.94142 0.68900 0.62688 -0.01200
C 	C 	0.76820 0.05450 0.91870 0.08200
H 	H 	0.76420 0.02280 0.95720 -0.01100
N 	N 	0.75345 0.15080 0.91420 -0.22300
C 	C 	0.78900 0.00100 0.86900 -0.15400
H 	H 	0.79970 0.93480 0.87360 0.07900
C 	C 	0.79350 0.04770 0.81310 0.06900
H 	H 	0.80720 0.01310 0.77850 -0.00500
C 	C 	0.77800 0.14640 0.80690 -0.13300
H 	H 	0.78100 0.17860 0.76850 0.07500
C 	C 	0.75780 0.19620 0.85920 0.05900
N 	N 	0.82347 0.21680 0.02751 -0.23400
C 	C 	0.86409 0.16950 0.02426 -0.02000
C 	C 	0.51630 0.47770 0.72270 0.07200
H 	H 	0.49400 0.51830 0.74810 -0.00700
N 	N 	0.56719 0.51140 0.70453 -0.21600
C 	C 	0.49490 0.38620 0.70610 -0.12700
H 	H 	0.45950 0.36490 0.72060 0.05900
N 	N 	0.66895 0.58250 0.67582 -0.22900
C 	C 	0.52750 0.32690 0.66740 0.04100
H 	H 	0.51380 0.26540 0.65420 0.01200
C 	C 	0.58040 0.35950 0.64850 -0.11600
H 	H 	0.60300 0.32020 0.62250 0.07000
C 	C 	0.59977 0.45240 0.66871 0.05100
C 	C 	0.65720 0.49230 0.65204 0.06100
C 	C 	0.69690 0.44110 0.61640 -0.13700
H 	H 	0.68830 0.37850 0.60050 0.05700
C 	C 	0.74960 0.48410 0.60460 0.06100
H 	H 	0.77670 0.45070 0.58050 -0.00600
C 	C 	0.76150 0.57520 0.62830 -0.15500
H 	H 	0.79650 0.60570 0.62100 0.08100
C 	C 	0.71980 0.62110 0.66370 0.08700
H 	H 	0.72800 0.68360 0.68010 -0.02800
Cu	Cu	0.60154 0.65606 0.72200 0.85200
N 	N 	0.59565 0.66430 0.81277 -0.23600
C 	C 	0.57809 0.63790 0.86012 -0.01800
S 	S 	0.56772 0.40838 0.89901 -0.24500
Re	Re	0.52764 0.58898 0.05829 0.33500
S 	S 	0.54999 0.44669 0.12201 -0.25400
Re	Re	0.56340 0.42128 0.01149 0.33500
S 	S 	0.50114 0.71805 0.98538 -0.24400
S 	S 	0.61908 0.57290 0.00642 -0.25000
Re	Re	0.53745 0.56812 0.93722 0.33500
N 	N 	0.57469 0.75730 0.66464 -0.23800
C 	C 	0.55858 0.81100 0.62688 -0.01200
C 	C 	0.73180 0.44550 0.91870 0.08200
H 	H 	0.73580 0.47720 0.95720 -0.01100
N 	N 	0.74655 0.34920 0.91420 -0.22300
C 	C 	0.71100 0.49900 0.86900 -0.15400
H 	H 	0.70030 0.56520 0.87360 0.07900
C 	C 	0.70650 0.45230 0.81310 0.06900
H 	H 	0.69280 0.48690 0.77850 -0.00500
C 	C 	0.72200 0.35360 0.80690 -0.13300
H 	H 	0.71900 0.32140 0.76850 0.07500
C 	C 	0.74220 0.30380 0.85920 0.05900
N 	N 	0.67653 0.28320 0.02751 -0.23400
C 	C 	0.63591 0.33050 0.02426 -0.02000
C 	C 	0.01630 0.52230 0.77730 0.07300
H 	H 	0.99400 0.48170 0.75190 -0.00700
N 	N 	0.06719 0.48860 0.79547 -0.21600
C 	C 	0.99490 0.61380 0.79390 -0.12900
H 	H 	0.95950 0.63510 0.77940 0.06000
N 	N 	0.16895 0.41750 0.82418 -0.22900
C 	C 	0.02750 0.67310 0.83260 0.04300
H 	H 	0.01380 0.73460 0.84580 0.01200
C 	C 	0.08040 0.64050 0.85150 -0.11600
H 	H 	0.10300 0.67980 0.87750 0.07000
C 	C 	0.09977 0.54760 0.83129 0.05100
C 	C 	0.15720 0.50770 0.84796 0.06000
C 	C 	0.19690 0.55890 0.88360 -0.13700
H 	H 	0.18830 0.62150 0.89950 0.05700
C 	C 	0.24960 0.51590 0.89540 0.06000
H 	H 	0.27670 0.54930 0.91950 -0.00600
C 	C 	0.26150 0.42480 0.87170 -0.15500
H 	H 	0.29650 0.39430 0.87900 0.08100
C 	C 	0.21980 0.37890 0.83630 0.08700
H 	H 	0.22800 0.31640 0.81990 -0.02800
Cu	Cu	0.10154 0.34394 0.77800 0.85200
N 	N 	0.09565 0.33570 0.68723 -0.23600
C 	C 	0.07809 0.36210 0.63988 -0.01800
S 	S 	0.06772 0.59162 0.60099 -0.24500
Re	Re	0.02764 0.41102 0.44171 0.33500
S 	S 	0.04999 0.55331 0.37799 -0.25400
Re	Re	0.06340 0.57872 0.48851 0.33500
S 	S 	0.00114 0.28195 0.51462 -0.24400
S 	S 	0.11908 0.42710 0.49358 -0.25000
Re	Re	0.03745 0.43188 0.56278 0.33500
N 	N 	0.07469 0.24270 0.83536 -0.23800
C 	C 	0.05858 0.18900 0.87312 -0.01200
C 	C 	0.23180 0.55450 0.58130 0.08200
H 	H 	0.23580 0.52280 0.54280 -0.01100
N 	N 	0.24655 0.65080 0.58580 -0.22300
C 	C 	0.21100 0.50100 0.63100 -0.15400
H 	H 	0.20030 0.43480 0.62640 0.07900
C 	C 	0.20650 0.54770 0.68690 0.06900
H 	H 	0.19280 0.51310 0.72150 -0.00500
C 	C 	0.22200 0.64640 0.69310 -0.13300
H 	H 	0.21900 0.67860 0.73150 0.07500
C 	C 	0.24220 0.69620 0.64080 0.05900
N 	N 	0.17653 0.71680 0.47249 -0.23500
C 	C 	0.13591 0.66950 0.47574 -0.02000
C 	C 	0.48370 0.97770 0.77730 0.07200
H 	H 	0.50600 0.01830 0.75190 -0.00700
N 	N 	0.43281 0.01140 0.79547 -0.21600
C 	C 	0.50510 0.88620 0.79390 -0.12700
H 	H 	0.54050 0.86490 0.77940 0.05900
N 	N 	0.33105 0.08250 0.82418 -0.22900
C 	C 	0.47250 0.82690 0.83260 0.04100
H 	H 	0.48620 0.76540 0.84580 0.01200
C 	C 	0.41960 0.85950 0.85150 -0.11600
H 	H 	0.39700 0.82020 0.87750 0.07000
C 	C 	0.40023 0.95240 0.83129 0.05100
C 	C 	0.34280 0.99230 0.84796 0.06100
C 	C 	0.30310 0.94110 0.88360 -0.13800
H 	H 	0.31170 0.87850 0.89950 0.05700
C 	C 	0.25040 0.98410 0.89540 0.06100
H 	H 	0.22330 0.95070 0.91950 -0.00600
C 	C 	0.23850 0.07520 0.87170 -0.15500
H 	H 	0.20350 0.10570 0.87900 0.08100
C 	C 	0.28020 0.12110 0.83630 0.08800
H 	H 	0.27200 0.18360 0.81990 -0.02800
Cu	Cu	0.39846 0.15606 0.77800 0.85200
N 	N 	0.40435 0.16430 0.68723 -0.23600
C 	C 	0.42191 0.13790 0.63988 -0.01800
S 	S 	0.43228 0.90838 0.60099 -0.24500
Re	Re	0.47236 0.08898 0.44171 0.33500
S 	S 	0.45001 0.94669 0.37799 -0.25400
Re	Re	0.43660 0.92128 0.48851 0.33500
S 	S 	0.49886 0.21805 0.51462 -0.24400
S 	S 	0.38092 0.07290 0.49358 -0.25000
Re	Re	0.46255 0.06812 0.56278 0.33500
N 	N 	0.42531 0.25730 0.83536 -0.23800
C 	C 	0.44142 0.31100 0.87312 -0.01200
C 	C 	0.26820 0.94550 0.58130 0.08200
H 	H 	0.26420 0.97720 0.54280 -0.01100
N 	N 	0.25345 0.84920 0.58580 -0.22300
C 	C 	0.28900 0.99900 0.63100 -0.15400
H 	H 	0.29970 0.06520 0.62640 0.07900
C 	C 	0.29350 0.95230 0.68690 0.06900
H 	H 	0.30720 0.98690 0.72150 -0.00500
C 	C 	0.27800 0.85360 0.69310 -0.13300
H 	H 	0.28100 0.82140 0.73150 0.07500
C 	C 	0.25780 0.80380 0.64080 0.05900
N 	N 	0.32347 0.78320 0.47249 -0.23500
C 	C 	0.36409 0.83050 0.47574 -0.02000
Cu	Cu	0.25000 0.75000 0.00922 0.85300
Cu	Cu	0.75000 0.25000 0.49078 0.85300
Cu	Cu	0.75000 0.25000 0.99078 0.85300
Cu	Cu	0.25000 0.75000 0.50922 0.85300
