data_crystal

_cell_length_a 10.80140
_cell_length_b 10.80140
_cell_length_c 13.63190
_cell_angle_alpha 90.00000
_cell_angle_beta  90.00000
_cell_angle_gamma 120.00000

_symmetry_space_group_name_	'P 1'
_symmetry_space_group_name_H-M	'P 1'

loop_
_symmetry_equiv_pos_as_xyz
  x,y,z

loop_
_atom_site_label
_atom_site_type_symbol
_atom_site_fract_x
_atom_site_fract_y
_atom_site_fract_z
_atom_site_charge
C 	C 	0.47040 0.46370 0.28890 0.06800
N 	N 	0.50230 0.37220 0.33870 -0.14300
N 	N 	0.37640 0.49090 0.33970 -0.14000
N 	N 	0.41390 0.33030 0.40650 -0.04800
N 	N 	0.34340 0.39630 0.40620 -0.23800
C 	C 	0.31290 0.43500 0.45000 0.43300
H 	H 	0.25870 0.46580 0.48390 -0.24000
C 	C 	0.34740 0.33670 0.48830 -0.12800
H 	H 	0.30160 0.28840 0.54540 0.07400
C 	C 	0.44500 0.30700 0.44650 0.04900
H 	H 	0.47750 0.25260 0.47880 0.13000
C 	C 	0.53630 0.00670 0.28890 0.06800
N 	N 	0.62780 0.13010 0.33870 -0.14300
N 	N 	0.50910 0.88550 0.33970 -0.14000
N 	N 	0.66970 0.08360 0.40650 -0.04800
N 	N 	0.60370 0.94710 0.40620 -0.23800
C 	C 	0.56500 0.87790 0.45000 0.43200
H 	H 	0.53420 0.79290 0.48390 -0.24100
C 	C 	0.66330 0.01070 0.48830 -0.12900
H 	H 	0.71160 0.01320 0.54540 0.07300
C 	C 	0.69300 0.13800 0.44650 0.04800
H 	H 	0.74740 0.22490 0.47880 0.12900
C 	C 	0.99330 0.52960 0.28890 0.06700
N 	N 	0.86990 0.49770 0.33870 -0.14400
N 	N 	0.11450 0.62360 0.33970 -0.14100
N 	N 	0.91640 0.58610 0.40650 -0.04900
N 	N 	0.05290 0.65660 0.40620 -0.23900
C 	C 	0.12210 0.68710 0.45000 0.43200
H 	H 	0.20710 0.74130 0.48390 -0.24100
C 	C 	0.98930 0.65260 0.48830 -0.12900
H 	H 	0.98680 0.69840 0.54540 0.07300
C 	C 	0.86200 0.55500 0.44650 0.04800
H 	H 	0.77510 0.52250 0.47880 0.12900
C 	C 	0.53630 0.52960 0.21110 0.06700
N 	N 	0.62780 0.49770 0.16130 -0.14400
N 	N 	0.50910 0.62360 0.16030 -0.14100
N 	N 	0.66970 0.58610 0.09350 -0.04900
N 	N 	0.60370 0.65660 0.09380 -0.23900
C 	C 	0.56500 0.68710 0.05000 0.43300
H 	H 	0.53420 0.74130 0.01610 -0.24100
C 	C 	0.66330 0.65260 0.01170 -0.12900
H 	H 	0.71160 0.69840 0.95460 0.07300
C 	C 	0.69300 0.55500 0.05350 0.04900
H 	H 	0.74740 0.52250 0.02120 0.12900
C 	C 	0.99330 0.46370 0.21110 0.06700
N 	N 	0.86990 0.37220 0.16130 -0.14400
N 	N 	0.11450 0.49090 0.16030 -0.14100
N 	N 	0.91640 0.33030 0.09350 -0.04800
N 	N 	0.05290 0.39630 0.09380 -0.23900
C 	C 	0.12210 0.43500 0.05000 0.43300
H 	H 	0.20710 0.46580 0.01610 -0.24100
C 	C 	0.98930 0.33670 0.01170 -0.13000
H 	H 	0.98680 0.28840 0.95460 0.07300
C 	C 	0.86200 0.30700 0.05350 0.04700
H 	H 	0.77510 0.25260 0.02120 0.13000
C 	C 	0.47040 0.00670 0.21110 0.06700
N 	N 	0.50230 0.13010 0.16130 -0.14400
N 	N 	0.37640 0.88550 0.16030 -0.14100
N 	N 	0.41390 0.08360 0.09350 -0.04800
N 	N 	0.34340 0.94710 0.09380 -0.23900
C 	C 	0.31290 0.87790 0.05000 0.43400
H 	H 	0.25870 0.79290 0.01610 -0.24200
C 	C 	0.34740 0.01070 0.01170 -0.13000
H 	H 	0.30160 0.01320 0.95460 0.07300
C 	C 	0.44500 0.13800 0.05350 0.04700
H 	H 	0.47750 0.22490 0.02120 0.13000
C 	C 	0.52960 0.53630 0.71110 0.06700
N 	N 	0.49770 0.62780 0.66130 -0.14400
N 	N 	0.62360 0.50910 0.66030 -0.14100
N 	N 	0.58610 0.66970 0.59350 -0.04900
N 	N 	0.65660 0.60370 0.59380 -0.23900
C 	C 	0.68710 0.56500 0.55000 0.43200
H 	H 	0.74130 0.53420 0.51610 -0.24100
C 	C 	0.65260 0.66330 0.51170 -0.12900
H 	H 	0.69840 0.71160 0.45460 0.07300
C 	C 	0.55500 0.69300 0.55350 0.04800
H 	H 	0.52250 0.74740 0.52120 0.12900
C 	C 	0.46370 0.99330 0.71110 0.06700
N 	N 	0.37220 0.86990 0.66130 -0.14400
N 	N 	0.49090 0.11450 0.66030 -0.14100
N 	N 	0.33030 0.91640 0.59350 -0.04900
N 	N 	0.39630 0.05290 0.59380 -0.23900
C 	C 	0.43500 0.12210 0.55000 0.43200
H 	H 	0.46580 0.20710 0.51610 -0.24100
C 	C 	0.33670 0.98930 0.51170 -0.12900
H 	H 	0.28840 0.98680 0.45460 0.07300
C 	C 	0.30700 0.86200 0.55350 0.04800
H 	H 	0.25260 0.77510 0.52120 0.12900
C 	C 	0.00670 0.47040 0.71110 0.06700
N 	N 	0.13010 0.50230 0.66130 -0.14400
N 	N 	0.88550 0.37640 0.66030 -0.14100
N 	N 	0.08360 0.41390 0.59350 -0.04900
N 	N 	0.94710 0.34340 0.59380 -0.23900
C 	C 	0.87790 0.31290 0.55000 0.43200
H 	H 	0.79290 0.25870 0.51610 -0.24100
C 	C 	0.01070 0.34740 0.51170 -0.12900
H 	H 	0.01320 0.30160 0.45460 0.07300
C 	C 	0.13800 0.44500 0.55350 0.04800
H 	H 	0.22490 0.47750 0.52120 0.12900
C 	C 	0.46370 0.47040 0.78890 0.06700
N 	N 	0.37220 0.50230 0.83870 -0.14400
N 	N 	0.49090 0.37640 0.83970 -0.14100
N 	N 	0.33030 0.41390 0.90650 -0.04900
N 	N 	0.39630 0.34340 0.90620 -0.23900
C 	C 	0.43500 0.31290 0.95000 0.43300
H 	H 	0.46580 0.25870 0.98390 -0.24100
C 	C 	0.33670 0.34740 0.98830 -0.12900
H 	H 	0.28840 0.30160 0.04540 0.07300
C 	C 	0.30700 0.44500 0.94650 0.04900
H 	H 	0.25260 0.47750 0.97880 0.12900
C 	C 	0.00670 0.53630 0.78890 0.06700
N 	N 	0.13010 0.62780 0.83870 -0.14400
N 	N 	0.88550 0.50910 0.83970 -0.14100
N 	N 	0.08360 0.66970 0.90650 -0.04800
N 	N 	0.94710 0.60370 0.90620 -0.23900
C 	C 	0.87790 0.56500 0.95000 0.43300
H 	H 	0.79290 0.53420 0.98390 -0.24100
C 	C 	0.01070 0.66330 0.98830 -0.13000
H 	H 	0.01320 0.71160 0.04540 0.07300
C 	C 	0.13800 0.69300 0.94650 0.04700
H 	H 	0.22490 0.74740 0.97880 0.13000
C 	C 	0.52960 0.99330 0.78890 0.06700
N 	N 	0.49770 0.86990 0.83870 -0.14400
N 	N 	0.62360 0.11450 0.83970 -0.14100
N 	N 	0.58610 0.91640 0.90650 -0.04800
N 	N 	0.65660 0.05290 0.90620 -0.23900
C 	C 	0.68710 0.12210 0.95000 0.43400
H 	H 	0.74130 0.20710 0.98390 -0.24200
C 	C 	0.65260 0.98930 0.98830 -0.13000
H 	H 	0.69840 0.98680 0.04540 0.07300
C 	C 	0.55500 0.86200 0.94650 0.04700
H 	H 	0.52250 0.77510 0.97880 0.13000
Na	Na	0.33333 0.66667 0.25000 0.57300
Na	Na	0.66667 0.33333 0.75000 0.57300
Na	Na	0.66667 0.33333 0.25000 0.57900
Na	Na	0.33333 0.66667 0.75000 0.57900
