data_crystal

_cell_length_a 12.55660
_cell_length_b 12.55660
_cell_length_c 25.08500
_cell_angle_alpha 90.00000
_cell_angle_beta  90.00000
_cell_angle_gamma 95.05110

_symmetry_space_group_name_	'P 1'
_symmetry_space_group_name_H-M	'P 1'

loop_
_symmetry_equiv_pos_as_xyz
  x,y,z

loop_
_atom_site_label
_atom_site_type_symbol
_atom_site_fract_x
_atom_site_fract_y
_atom_site_fract_z
_atom_site_charge
Zn	Zn	0.75000 0.75000 0.16248 1.24400
Zn	Zn	0.75000 0.75000 0.66248 1.24400
H 	H 	0.13480 0.62400 0.82640 0.00700
H 	H 	0.99990 0.64430 0.76480 0.07300
H 	H 	0.98860 0.94960 0.80930 0.08200
H 	H 	0.12290 0.92370 0.87330 0.02400
H 	H 	0.41480 0.88100 0.97320 0.00100
H 	H 	0.54470 0.85570 0.03770 0.06400
H 	H 	0.45020 0.54300 0.04130 0.06500
H 	H 	0.31840 0.57120 0.97760 0.01300
H 	H 	0.36520 0.87600 0.82640 0.00600
H 	H 	0.50010 0.85570 0.76480 0.07100
H 	H 	0.51140 0.55040 0.80930 0.08000
H 	H 	0.37710 0.57630 0.87330 0.02300
H 	H 	0.08520 0.61900 0.97320 0.00000
H 	H 	0.95530 0.64430 0.03770 0.06300
H 	H 	0.04980 0.95700 0.04130 0.06500
H 	H 	0.18160 0.92880 0.97760 0.01300
H 	H 	0.62400 0.13480 0.32640 0.00600
H 	H 	0.64430 0.99990 0.26480 0.07200
H 	H 	0.94960 0.98860 0.30930 0.08100
H 	H 	0.92370 0.12290 0.37330 0.02300
H 	H 	0.88100 0.41480 0.47320 0.00000
H 	H 	0.85570 0.54470 0.53770 0.06300
H 	H 	0.54300 0.45020 0.54130 0.06500
H 	H 	0.57120 0.31840 0.47760 0.01300
H 	H 	0.87600 0.36520 0.32640 0.00600
H 	H 	0.85570 0.50010 0.26480 0.07100
H 	H 	0.55040 0.51140 0.30930 0.08000
H 	H 	0.57630 0.37710 0.37330 0.02300
H 	H 	0.61900 0.08520 0.47320 0.00000
H 	H 	0.64430 0.95530 0.53770 0.06300
H 	H 	0.95700 0.04980 0.54130 0.06500
H 	H 	0.92880 0.18160 0.47760 0.01300
Pd	Pd	0.25000 0.75000 0.91192 0.74200
Pd	Pd	0.75000 0.25000 0.41192 0.74200
C 	C 	0.09770 0.86690 0.85030 0.04000
C 	C 	0.01760 0.88260 0.81220 -0.06100
C 	C 	0.98300 0.79860 0.77910 -0.02700
C 	C 	0.89830 0.81390 0.73760 0.33400
C 	C 	0.02540 0.70360 0.78620 -0.06300
C 	C 	0.10480 0.69060 0.82320 0.04500
C 	C 	0.36640 0.62920 0.98930 0.03900
C 	C 	0.44380 0.61280 0.02780 -0.05500
C 	C 	0.51160 0.69880 0.04640 -0.03400
C 	C 	0.49910 0.79610 0.02570 -0.05400
C 	C 	0.42290 0.81150 0.98660 0.04100
C 	C 	0.59590 0.68170 0.08590 0.31600
C 	C 	0.40230 0.63310 0.85030 0.04000
C 	C 	0.48240 0.61740 0.81220 -0.05900
C 	C 	0.51700 0.70140 0.77910 -0.02800
C 	C 	0.60170 0.68610 0.73760 0.33500
C 	C 	0.47460 0.79640 0.78620 -0.06200
C 	C 	0.39520 0.80940 0.82320 0.04400
C 	C 	0.13360 0.87080 0.98930 0.03800
C 	C 	0.05620 0.88720 0.02780 -0.05500
C 	C 	0.98840 0.80120 0.04640 -0.03400
C 	C 	0.00090 0.70390 0.02570 -0.05400
C 	C 	0.07710 0.68850 0.98660 0.04100
C 	C 	0.90410 0.81830 0.08590 0.31600
C 	C 	0.86690 0.09770 0.35030 0.04000
C 	C 	0.88260 0.01760 0.31220 -0.06100
C 	C 	0.79860 0.98300 0.27910 -0.02600
C 	C 	0.81390 0.89830 0.23760 0.33400
C 	C 	0.70360 0.02540 0.28620 -0.06300
C 	C 	0.69060 0.10480 0.32320 0.04500
C 	C 	0.62920 0.36640 0.48930 0.03900
C 	C 	0.61280 0.44380 0.52780 -0.05500
C 	C 	0.69880 0.51160 0.54640 -0.03400
C 	C 	0.79610 0.49910 0.52570 -0.05500
C 	C 	0.81150 0.42290 0.48660 0.04100
C 	C 	0.68170 0.59590 0.58590 0.31600
C 	C 	0.63310 0.40230 0.35030 0.04000
C 	C 	0.61740 0.48240 0.31220 -0.05900
C 	C 	0.70140 0.51700 0.27910 -0.02800
C 	C 	0.68610 0.60170 0.23760 0.33500
C 	C 	0.79640 0.47460 0.28620 -0.06200
C 	C 	0.80940 0.39520 0.32320 0.04400
C 	C 	0.87080 0.13360 0.48930 0.03900
C 	C 	0.88720 0.05620 0.52780 -0.05600
C 	C 	0.80120 0.98840 0.54640 -0.03300
C 	C 	0.70390 0.00090 0.52570 -0.05500
C 	C 	0.68850 0.07710 0.48660 0.04100
C 	C 	0.81830 0.90410 0.58590 0.31600
N 	N 	0.35940 0.72760 0.96880 -0.20200
N 	N 	0.13910 0.77250 0.85420 -0.20100
N 	N 	0.14060 0.77240 0.96880 -0.20200
N 	N 	0.36090 0.72750 0.85420 -0.20100
N 	N 	0.72760 0.35940 0.46880 -0.20200
N 	N 	0.77250 0.13910 0.35420 -0.20100
N 	N 	0.77240 0.14060 0.46880 -0.20300
N 	N 	0.72750 0.36090 0.35420 -0.20100
O 	O 	0.87670 0.73650 0.70730 -0.43200
O 	O 	0.85850 0.89790 0.73660 -0.29300
O 	O 	0.62630 0.75970 0.11520 -0.42200
O 	O 	0.63460 0.59200 0.08770 -0.28700
O 	O 	0.62330 0.76350 0.70730 -0.43200
O 	O 	0.64150 0.60210 0.73660 -0.29300
O 	O 	0.87370 0.74030 0.11520 -0.42200
O 	O 	0.86540 0.90800 0.08770 -0.28700
O 	O 	0.73650 0.87670 0.20730 -0.43100
O 	O 	0.89790 0.85850 0.23660 -0.29300
O 	O 	0.75970 0.62630 0.61520 -0.42200
O 	O 	0.59200 0.63460 0.58770 -0.28700
O 	O 	0.76350 0.62330 0.20730 -0.43200
O 	O 	0.60210 0.64150 0.23660 -0.29300
O 	O 	0.74030 0.87370 0.61520 -0.42200
O 	O 	0.90800 0.86540 0.58770 -0.28700
Zn	Zn	0.25000 0.25000 0.33752 1.24300
Zn	Zn	0.25000 0.25000 0.83752 1.24300
H 	H 	0.37600 0.86520 0.67360 0.00600
H 	H 	0.35570 0.00010 0.73520 0.07200
H 	H 	0.05040 0.01140 0.69070 0.08100
H 	H 	0.07630 0.87710 0.62670 0.02300
H 	H 	0.11900 0.58520 0.52680 0.00000
H 	H 	0.14430 0.45530 0.46230 0.06300
H 	H 	0.45700 0.54980 0.45870 0.06500
H 	H 	0.42880 0.68160 0.52240 0.01300
H 	H 	0.12400 0.63480 0.67360 0.00600
H 	H 	0.14430 0.49990 0.73520 0.07100
H 	H 	0.44960 0.48860 0.69070 0.08000
H 	H 	0.42370 0.62290 0.62670 0.02300
H 	H 	0.38100 0.91480 0.52680 0.00000
H 	H 	0.35570 0.04470 0.46230 0.06300
H 	H 	0.04300 0.95020 0.45870 0.06500
H 	H 	0.07120 0.81840 0.52240 0.01300
H 	H 	0.86520 0.37600 0.17360 0.00600
H 	H 	0.00010 0.35570 0.23520 0.07200
H 	H 	0.01140 0.05040 0.19070 0.08100
H 	H 	0.87710 0.07630 0.12670 0.02300
H 	H 	0.58520 0.11900 0.02680 0.00000
H 	H 	0.45530 0.14430 0.96230 0.06300
H 	H 	0.54980 0.45700 0.95870 0.06500
H 	H 	0.68160 0.42880 0.02240 0.01300
H 	H 	0.63480 0.12400 0.17360 0.00600
H 	H 	0.49990 0.14430 0.23520 0.07100
H 	H 	0.48860 0.44960 0.19070 0.08000
H 	H 	0.62290 0.42370 0.12670 0.02300
H 	H 	0.91480 0.38100 0.02680 0.00000
H 	H 	0.04470 0.35570 0.96230 0.06300
H 	H 	0.95020 0.04300 0.95870 0.06500
H 	H 	0.81840 0.07120 0.02240 0.01300
Pd	Pd	0.25000 0.75000 0.58808 0.74200
Pd	Pd	0.75000 0.25000 0.08808 0.74200
C 	C 	0.13310 0.90230 0.64970 0.04000
C 	C 	0.11740 0.98240 0.68780 -0.06100
C 	C 	0.20140 0.01700 0.72090 -0.02600
C 	C 	0.18610 0.10170 0.76240 0.33400
C 	C 	0.29640 0.97460 0.71380 -0.06300
C 	C 	0.30940 0.89520 0.67680 0.04500
C 	C 	0.37080 0.63360 0.51070 0.03900
C 	C 	0.38720 0.55620 0.47220 -0.05500
C 	C 	0.30120 0.48840 0.45360 -0.03400
C 	C 	0.20390 0.50090 0.47430 -0.05500
C 	C 	0.18850 0.57710 0.51340 0.04100
C 	C 	0.31830 0.40410 0.41410 0.31600
C 	C 	0.36690 0.59770 0.64970 0.04000
C 	C 	0.38260 0.51760 0.68780 -0.05900
C 	C 	0.29860 0.48300 0.72090 -0.02800
C 	C 	0.31390 0.39830 0.76240 0.33500
C 	C 	0.20360 0.52540 0.71380 -0.06200
C 	C 	0.19060 0.60480 0.67680 0.04400
C 	C 	0.12920 0.86640 0.51070 0.03900
C 	C 	0.11280 0.94380 0.47220 -0.05600
C 	C 	0.19880 0.01160 0.45360 -0.03300
C 	C 	0.29610 0.99910 0.47430 -0.05500
C 	C 	0.31150 0.92290 0.51340 0.04100
C 	C 	0.18170 0.09590 0.41410 0.31600
C 	C 	0.90230 0.13310 0.14970 0.04000
C 	C 	0.98240 0.11740 0.18780 -0.06100
C 	C 	0.01700 0.20140 0.22090 -0.02700
C 	C 	0.10170 0.18610 0.26240 0.33400
C 	C 	0.97460 0.29640 0.21380 -0.06300
C 	C 	0.89520 0.30940 0.17680 0.04500
C 	C 	0.63360 0.37080 0.01070 0.03900
C 	C 	0.55620 0.38720 0.97220 -0.05500
C 	C 	0.48840 0.30120 0.95360 -0.03400
C 	C 	0.50090 0.20390 0.97430 -0.05400
C 	C 	0.57710 0.18850 0.01340 0.04100
C 	C 	0.40410 0.31830 0.91410 0.31600
C 	C 	0.59770 0.36690 0.14970 0.04000
C 	C 	0.51760 0.38260 0.18780 -0.05900
C 	C 	0.48300 0.29860 0.22090 -0.02800
C 	C 	0.39830 0.31390 0.26240 0.33500
C 	C 	0.52540 0.20360 0.21380 -0.06200
C 	C 	0.60480 0.19060 0.17680 0.04400
C 	C 	0.86640 0.12920 0.01070 0.03800
C 	C 	0.94380 0.11280 0.97220 -0.05500
C 	C 	0.01160 0.19880 0.95360 -0.03400
C 	C 	0.99910 0.29610 0.97430 -0.05400
C 	C 	0.92290 0.31150 0.01340 0.04100
C 	C 	0.09590 0.18170 0.91410 0.31600
N 	N 	0.27240 0.64060 0.53120 -0.20200
N 	N 	0.22750 0.86090 0.64580 -0.20100
N 	N 	0.22760 0.85940 0.53120 -0.20300
N 	N 	0.27250 0.63910 0.64580 -0.20100
N 	N 	0.64060 0.27240 0.03120 -0.20200
N 	N 	0.86090 0.22750 0.14580 -0.20100
N 	N 	0.85940 0.22760 0.03120 -0.20200
N 	N 	0.63910 0.27250 0.14580 -0.20100
O 	O 	0.26350 0.12330 0.79270 -0.43100
O 	O 	0.10210 0.14150 0.76340 -0.29300
O 	O 	0.24030 0.37370 0.38480 -0.42200
O 	O 	0.40800 0.36540 0.41230 -0.28700
O 	O 	0.23650 0.37670 0.79270 -0.43200
O 	O 	0.39790 0.35850 0.76340 -0.29300
O 	O 	0.25970 0.12630 0.38480 -0.42200
O 	O 	0.09200 0.13460 0.41230 -0.28700
O 	O 	0.12330 0.26350 0.29270 -0.43200
O 	O 	0.14150 0.10210 0.26340 -0.29300
O 	O 	0.37370 0.24030 0.88480 -0.42200
O 	O 	0.36540 0.40800 0.91230 -0.28700
O 	O 	0.37670 0.23650 0.29270 -0.43200
O 	O 	0.35850 0.39790 0.26340 -0.29300
O 	O 	0.12630 0.25970 0.88480 -0.42200
O 	O 	0.13460 0.09200 0.91230 -0.28700
