data_crystal

_cell_length_a 12.48200
_cell_length_b 11.46400
_cell_length_c 23.56100
_cell_angle_alpha 90.00000
_cell_angle_beta  93.50100
_cell_angle_gamma 90.00000

_symmetry_space_group_name_	'P 1'
_symmetry_space_group_name_H-M	'P 1'

loop_
_symmetry_equiv_pos_as_xyz
  x,y,z

loop_
_atom_site_label
_atom_site_type_symbol
_atom_site_fract_x
_atom_site_fract_y
_atom_site_fract_z
_atom_site_charge
Sn	Sn	0.01630 0.98640 0.07219 1.27900
O 	O 	0.08930 0.04440 0.99860 -0.77900
C 	C 	0.96030 0.14530 0.10240 -0.59700
H 	H 	0.00390 0.20760 0.08820 0.14100
H 	H 	0.88740 0.15700 0.08680 0.16100
C 	C 	0.96140 0.15580 0.16870 0.05100
H 	H 	0.91900 0.09300 0.18330 -0.04300
H 	H 	0.03450 0.14680 0.18450 -0.04400
C 	C 	0.91730 0.27200 0.18840 -0.01700
H 	H 	0.95850 0.33480 0.17280 0.01100
H 	H 	0.84360 0.28000 0.17330 0.01700
C 	C 	0.92020 0.28500 0.25100 -0.40400
H 	H 	0.84920 0.27530 0.26380 0.12000
H 	H 	0.94650 0.36130 0.26140 0.10500
H 	H 	0.96690 0.22690 0.26840 0.11700
C 	C 	0.09260 0.82360 0.08500 -0.36500
H 	H 	0.15870 0.82570 0.06540 -0.01200
H 	H 	0.11260 0.81660 0.12530 0.08400
H 	H 	0.13000 0.09800 0.00400 0.27400
C 	C 	0.03560 0.71740 0.06750 -1.29800
H 	H 	0.96650 0.72000 0.08410 0.40200
H 	H 	0.02150 0.72210 0.02660 0.05400
C 	C 	0.08000 0.60300 0.07950 0.53500
C 	C 	0.13100 0.52300 0.99700 -0.11600
C 	C 	0.09300 0.73200 0.04000 1.28800
C 	C 	0.15000 0.61800 0.06100 -0.63300
C 	C 	0.20600 0.58600 0.01900 0.16600
H 	H 	0.12810 0.76220 0.00750 -0.43700
H 	H 	0.01900 0.71390 0.02730 -0.07100
Sn	Sn	0.48370 0.98640 0.92781 1.28200
O 	O 	0.41070 0.04440 0.00140 -0.78400
C 	C 	0.53970 0.14530 0.89760 -0.60000
H 	H 	0.49610 0.20760 0.91180 0.14500
H 	H 	0.61260 0.15700 0.91320 0.16300
C 	C 	0.53860 0.15580 0.83130 0.04900
H 	H 	0.58100 0.09300 0.81670 -0.04200
H 	H 	0.46550 0.14680 0.81550 -0.04200
C 	C 	0.58270 0.27200 0.81160 -0.01500
H 	H 	0.54150 0.33480 0.82720 0.01000
H 	H 	0.65640 0.28000 0.82670 0.01600
C 	C 	0.57980 0.28500 0.74900 -0.40600
H 	H 	0.65080 0.27530 0.73620 0.12100
H 	H 	0.55350 0.36130 0.73860 0.10600
H 	H 	0.53310 0.22690 0.73160 0.11800
C 	C 	0.40740 0.82360 0.91500 -0.36400
H 	H 	0.34130 0.82570 0.93460 -0.01200
H 	H 	0.38740 0.81660 0.87470 0.08400
H 	H 	0.37000 0.09800 0.99600 0.27900
C 	C 	0.46440 0.71740 0.93250 -1.30300
H 	H 	0.53350 0.72000 0.91590 0.40200
H 	H 	0.47850 0.72210 0.97340 0.05500
C 	C 	0.42000 0.60300 0.92050 0.54500
C 	C 	0.36900 0.52300 0.00300 -0.12400
C 	C 	0.40700 0.73200 0.96000 1.29500
C 	C 	0.35000 0.61800 0.93900 -0.64500
C 	C 	0.29400 0.58600 0.98100 0.18300
H 	H 	0.37190 0.76220 0.99250 -0.43800
H 	H 	0.48100 0.71390 0.97270 -0.07100
Sn	Sn	0.98370 0.01360 0.92781 1.28000
O 	O 	0.91070 0.95560 0.00140 -0.77800
C 	C 	0.03970 0.85470 0.89760 -0.59600
H 	H 	0.99610 0.79240 0.91180 0.14200
H 	H 	0.11260 0.84300 0.91320 0.16200
C 	C 	0.03860 0.84420 0.83130 0.05200
H 	H 	0.08100 0.90700 0.81670 -0.04300
H 	H 	0.96550 0.85320 0.81550 -0.04400
C 	C 	0.08270 0.72800 0.81160 -0.01700
H 	H 	0.04150 0.66520 0.82720 0.01100
H 	H 	0.15640 0.72000 0.82670 0.01700
C 	C 	0.07980 0.71500 0.74900 -0.40400
H 	H 	0.15080 0.72470 0.73620 0.12000
H 	H 	0.05350 0.63870 0.73860 0.10500
H 	H 	0.03310 0.77310 0.73160 0.11700
C 	C 	0.90740 0.17640 0.91500 -0.36500
H 	H 	0.84130 0.17430 0.93460 -0.01200
H 	H 	0.88740 0.18340 0.87470 0.08400
H 	H 	0.87000 0.90200 0.99600 0.27400
C 	C 	0.96440 0.28260 0.93250 -1.29800
H 	H 	0.03350 0.28000 0.91590 0.40200
H 	H 	0.97850 0.27790 0.97340 0.05400
C 	C 	0.92000 0.39700 0.92050 0.53500
C 	C 	0.86900 0.47700 0.00300 -0.11600
C 	C 	0.90700 0.26800 0.96000 1.28800
C 	C 	0.85000 0.38200 0.93900 -0.63300
C 	C 	0.79400 0.41400 0.98100 0.16600
H 	H 	0.87190 0.23780 0.99250 -0.43700
H 	H 	0.98100 0.28610 0.97270 -0.07100
Sn	Sn	0.51630 0.01360 0.07219 1.28200
O 	O 	0.58930 0.95560 0.99860 -0.78400
C 	C 	0.46030 0.85470 0.10240 -0.60000
H 	H 	0.50390 0.79240 0.08820 0.14500
H 	H 	0.38740 0.84300 0.08680 0.16300
C 	C 	0.46140 0.84420 0.16870 0.04900
H 	H 	0.41900 0.90700 0.18330 -0.04200
H 	H 	0.53450 0.85320 0.18450 -0.04200
C 	C 	0.41730 0.72800 0.18840 -0.01500
H 	H 	0.45850 0.66520 0.17280 0.01000
H 	H 	0.34360 0.72000 0.17330 0.01600
C 	C 	0.42020 0.71500 0.25100 -0.40600
H 	H 	0.34920 0.72470 0.26380 0.12100
H 	H 	0.44650 0.63870 0.26140 0.10600
H 	H 	0.46690 0.77310 0.26840 0.11800
C 	C 	0.59260 0.17640 0.08500 -0.36400
H 	H 	0.65870 0.17430 0.06540 -0.01200
H 	H 	0.61260 0.18340 0.12530 0.08400
H 	H 	0.63000 0.90200 0.00400 0.27900
C 	C 	0.53560 0.28260 0.06750 -1.30300
H 	H 	0.46650 0.28000 0.08410 0.40200
H 	H 	0.52150 0.27790 0.02660 0.05500
C 	C 	0.58000 0.39700 0.07950 0.54500
C 	C 	0.63100 0.47700 0.99700 -0.12400
C 	C 	0.59300 0.26800 0.04000 1.29500
C 	C 	0.65000 0.38200 0.06100 -0.64500
C 	C 	0.70600 0.41400 0.01900 0.18300
H 	H 	0.62810 0.23780 0.00750 -0.43800
H 	H 	0.51900 0.28610 0.02730 -0.07100
Sn	Sn	0.51630 0.48640 0.57219 1.28100
O 	O 	0.58930 0.54440 0.49860 -0.78300
C 	C 	0.46030 0.64530 0.60240 -0.60100
H 	H 	0.50390 0.70760 0.58820 0.14500
H 	H 	0.38740 0.65700 0.58680 0.16400
C 	C 	0.46140 0.65580 0.66870 0.04900
H 	H 	0.41900 0.59300 0.68330 -0.04300
H 	H 	0.53450 0.64680 0.68450 -0.04200
C 	C 	0.41730 0.77200 0.68840 -0.01600
H 	H 	0.45850 0.83480 0.67280 0.01000
H 	H 	0.34360 0.78000 0.67330 0.01700
C 	C 	0.42020 0.78500 0.75100 -0.40600
H 	H 	0.34920 0.77530 0.76380 0.12100
H 	H 	0.44650 0.86130 0.76140 0.10500
H 	H 	0.46690 0.72690 0.76840 0.11800
C 	C 	0.59260 0.32360 0.58500 -0.35900
H 	H 	0.65870 0.32570 0.56540 -0.01600
H 	H 	0.61260 0.31660 0.62530 0.08200
H 	H 	0.63000 0.59800 0.50400 0.27800
C 	C 	0.53560 0.21740 0.56750 -1.33100
H 	H 	0.46650 0.22000 0.58410 0.41100
H 	H 	0.52150 0.22210 0.52660 0.05600
C 	C 	0.58000 0.10300 0.57950 0.55500
C 	C 	0.63100 0.02300 0.49700 -0.12200
C 	C 	0.59300 0.23200 0.54000 1.32000
C 	C 	0.65000 0.11800 0.56100 -0.65400
C 	C 	0.70600 0.08600 0.51900 0.17900
H 	H 	0.62810 0.26220 0.50750 -0.44600
H 	H 	0.51900 0.21390 0.52730 -0.07200
Sn	Sn	0.98370 0.48640 0.42781 1.28100
O 	O 	0.91070 0.54440 0.50140 -0.78300
C 	C 	0.03970 0.64530 0.39760 -0.60100
H 	H 	0.99610 0.70760 0.41180 0.14500
H 	H 	0.11260 0.65700 0.41320 0.16400
C 	C 	0.03860 0.65580 0.33130 0.04700
H 	H 	0.08100 0.59300 0.31670 -0.04200
H 	H 	0.96550 0.64680 0.31550 -0.04100
C 	C 	0.08270 0.77200 0.31160 -0.01400
H 	H 	0.04150 0.83480 0.32720 0.00900
H 	H 	0.15640 0.78000 0.32670 0.01600
C 	C 	0.07980 0.78500 0.24900 -0.40700
H 	H 	0.15080 0.77530 0.23620 0.12100
H 	H 	0.05350 0.86130 0.23860 0.10600
H 	H 	0.03310 0.72690 0.23160 0.11800
C 	C 	0.90740 0.32360 0.41500 -0.35800
H 	H 	0.84130 0.32570 0.43460 -0.01700
H 	H 	0.88740 0.31660 0.37470 0.08200
H 	H 	0.87000 0.59800 0.49600 0.27800
C 	C 	0.96440 0.21740 0.43250 -1.33600
H 	H 	0.03350 0.22000 0.41590 0.41200
H 	H 	0.97850 0.22210 0.47340 0.05700
C 	C 	0.92000 0.10300 0.42050 0.55800
C 	C 	0.86900 0.02300 0.50300 -0.12300
C 	C 	0.90700 0.23200 0.46000 1.32500
C 	C 	0.85000 0.11800 0.43900 -0.65700
C 	C 	0.79400 0.08600 0.48100 0.18200
H 	H 	0.87190 0.26220 0.49250 -0.44800
H 	H 	0.98100 0.21390 0.47270 -0.07300
Sn	Sn	0.48370 0.51360 0.42781 1.28100
O 	O 	0.41070 0.45560 0.50140 -0.78300
C 	C 	0.53970 0.35470 0.39760 -0.60100
H 	H 	0.49610 0.29240 0.41180 0.14500
H 	H 	0.61260 0.34300 0.41320 0.16400
C 	C 	0.53860 0.34420 0.33130 0.04900
H 	H 	0.58100 0.40700 0.31670 -0.04300
H 	H 	0.46550 0.35320 0.31550 -0.04200
C 	C 	0.58270 0.22800 0.31160 -0.01600
H 	H 	0.54150 0.16520 0.32720 0.01000
H 	H 	0.65640 0.22000 0.32670 0.01700
C 	C 	0.57980 0.21500 0.24900 -0.40600
H 	H 	0.65080 0.22470 0.23620 0.12100
H 	H 	0.55350 0.13870 0.23860 0.10500
H 	H 	0.53310 0.27310 0.23160 0.11800
C 	C 	0.40740 0.67640 0.41500 -0.35900
H 	H 	0.34130 0.67430 0.43460 -0.01600
H 	H 	0.38740 0.68340 0.37470 0.08200
H 	H 	0.37000 0.40200 0.49600 0.27800
C 	C 	0.46440 0.78260 0.43250 -1.33100
H 	H 	0.53350 0.78000 0.41590 0.41100
H 	H 	0.47850 0.77790 0.47340 0.05600
C 	C 	0.42000 0.89700 0.42050 0.55500
C 	C 	0.36900 0.97700 0.50300 -0.12200
C 	C 	0.40700 0.76800 0.46000 1.32000
C 	C 	0.35000 0.88200 0.43900 -0.65400
C 	C 	0.29400 0.91400 0.48100 0.17900
H 	H 	0.37190 0.73780 0.49250 -0.44600
H 	H 	0.48100 0.78610 0.47270 -0.07200
Sn	Sn	0.01630 0.51360 0.57219 1.28100
O 	O 	0.08930 0.45560 0.49860 -0.78300
C 	C 	0.96030 0.35470 0.60240 -0.60100
H 	H 	0.00390 0.29240 0.58820 0.14500
H 	H 	0.88740 0.34300 0.58680 0.16400
C 	C 	0.96140 0.34420 0.66870 0.04700
H 	H 	0.91900 0.40700 0.68330 -0.04200
H 	H 	0.03450 0.35320 0.68450 -0.04100
C 	C 	0.91730 0.22800 0.68840 -0.01400
H 	H 	0.95850 0.16520 0.67280 0.00900
H 	H 	0.84360 0.22000 0.67330 0.01600
C 	C 	0.92020 0.21500 0.75100 -0.40700
H 	H 	0.84920 0.22470 0.76380 0.12100
H 	H 	0.94650 0.13870 0.76140 0.10600
H 	H 	0.96690 0.27310 0.76840 0.11800
C 	C 	0.09260 0.67640 0.58500 -0.35800
H 	H 	0.15870 0.67430 0.56540 -0.01700
H 	H 	0.11260 0.68340 0.62530 0.08200
H 	H 	0.13000 0.40200 0.50400 0.27800
C 	C 	0.03560 0.78260 0.56750 -1.33600
H 	H 	0.96650 0.78000 0.58410 0.41200
H 	H 	0.02150 0.77790 0.52660 0.05700
C 	C 	0.08000 0.89700 0.57950 0.55800
C 	C 	0.13100 0.97700 0.49700 -0.12300
C 	C 	0.09300 0.76800 0.54000 1.32500
C 	C 	0.15000 0.88200 0.56100 -0.65700
C 	C 	0.20600 0.91400 0.51900 0.18200
H 	H 	0.12810 0.73780 0.50750 -0.44800
H 	H 	0.01900 0.78610 0.52730 -0.07300
