data_crystal

_cell_length_a 20.33000
_cell_length_b 23.16920
_cell_length_c 32.00810
_cell_angle_alpha 90.00000
_cell_angle_beta  90.00000
_cell_angle_gamma 90.00000

_symmetry_space_group_name_	'P 1'
_symmetry_space_group_name_H-M	'P 1'

loop_
_symmetry_equiv_pos_as_xyz
  x,y,z

loop_
_atom_site_label
_atom_site_type_symbol
_atom_site_fract_x
_atom_site_fract_y
_atom_site_fract_z
_atom_site_charge
Zn	Zn	0.17290 0.47411 0.50151 1.21000
Zn	Zn	0.29186 0.51553 0.44970 1.21000
Zn	Zn	0.25374 0.58836 0.53285 1.17400
Zn	Zn	0.31378 0.45782 0.53514 1.21400
Zn	Zn	0.32710 0.52589 0.00151 1.21100
Zn	Zn	0.20814 0.48447 0.94970 1.21100
Zn	Zn	0.24626 0.41164 0.03285 1.17500
Zn	Zn	0.18622 0.54218 0.03514 1.21400
Zn	Zn	0.82710 0.97411 0.99849 1.21100
Zn	Zn	0.70814 0.01553 0.05030 1.21000
Zn	Zn	0.74626 0.08836 0.96715 1.17600
Zn	Zn	0.68622 0.95782 0.96486 1.21400
Zn	Zn	0.67290 0.02589 0.49849 1.21100
Zn	Zn	0.79186 0.98447 0.55030 1.21100
Zn	Zn	0.75374 0.91164 0.46715 1.17500
Zn	Zn	0.81378 0.04218 0.46486 1.21400
H 	H 	0.86260 0.56930 0.74620 0.06000
H 	H 	0.92420 0.60090 0.68900 0.06100
H 	H 	0.75630 0.65090 0.63280 0.05500
H 	H 	0.69870 0.62540 0.69000 0.05900
H 	H 	0.90280 0.54450 0.60050 0.09800
H 	H 	0.99780 0.50080 0.57630 0.00900
H 	H 	0.10080 0.64860 0.59150 -0.01300
H 	H 	0.00240 0.69380 0.61270 0.09600
H 	H 	0.89870 0.68680 0.54380 0.09600
H 	H 	0.87300 0.77390 0.51480 -0.00300
H 	H 	0.80900 0.83320 0.62650 0.00700
H 	H 	0.83900 0.74740 0.65770 0.09700
H 	H 	0.66240 0.50920 0.71710 0.05700
H 	H 	0.54910 0.50530 0.71580 0.06200
H 	H 	0.53750 0.63150 0.80030 0.06400
H 	H 	0.65190 0.63950 0.80140 0.05700
H 	H 	0.39540 0.47510 0.73360 0.10100
H 	H 	0.34250 0.46090 0.66890 0.00900
H 	H 	0.40090 0.61740 0.63250 -0.00400
H 	H 	0.45520 0.63230 0.69510 0.10500
H 	H 	0.33780 0.57650 0.77640 0.10600
H 	H 	0.28410 0.55950 0.83740 -0.00100
H 	H 	0.45470 0.52110 0.89440 0.00100
H 	H 	0.50960 0.53170 0.83160 0.10400
H 	H 	0.79850 0.67180 0.78500 0.05700
H 	H 	0.84150 0.69460 0.85200 0.06400
H 	H 	0.77950 0.54040 0.89410 0.06000
H 	H 	0.74330 0.51490 0.82740 0.05800
H 	H 	0.91800 0.71340 0.95070 0.10000
H 	H 	0.88950 0.80560 0.97180 0.01000
H 	H 	0.69980 0.77560 0.94610 0.01000
H 	H 	0.72470 0.68170 0.92610 0.09800
H 	H 	0.88400 0.61920 0.99490 0.09900
H 	H 	0.98530 0.58480 0.01600 0.01000
H 	H 	0.02750 0.53820 0.89750 0.00900
H 	H 	0.92570 0.57440 0.87570 0.10000
H 	H 	0.63740 0.43070 0.24620 0.06000
H 	H 	0.57580 0.39910 0.18900 0.06100
H 	H 	0.74370 0.34910 0.13280 0.05500
H 	H 	0.80130 0.37460 0.19000 0.05900
H 	H 	0.59720 0.45550 0.10050 0.09800
H 	H 	0.50220 0.49920 0.07630 0.00900
H 	H 	0.39920 0.35140 0.09150 -0.01300
H 	H 	0.49760 0.30620 0.11270 0.09600
H 	H 	0.60130 0.31320 0.04380 0.09600
H 	H 	0.62700 0.22610 0.01480 -0.00300
H 	H 	0.69100 0.16680 0.12650 0.00700
H 	H 	0.66100 0.25260 0.15770 0.09700
H 	H 	0.83760 0.49080 0.21710 0.05700
H 	H 	0.95090 0.49470 0.21580 0.06200
H 	H 	0.96250 0.36850 0.30030 0.06400
H 	H 	0.84810 0.36050 0.30140 0.05700
H 	H 	0.10460 0.52490 0.23360 0.10100
H 	H 	0.15750 0.53910 0.16890 0.00900
H 	H 	0.09910 0.38260 0.13250 -0.00400
H 	H 	0.04480 0.36770 0.19510 0.10500
H 	H 	0.16220 0.42350 0.27640 0.10600
H 	H 	0.21590 0.44050 0.33740 -0.00100
H 	H 	0.04530 0.47890 0.39440 0.00100
H 	H 	0.99040 0.46830 0.33160 0.10400
H 	H 	0.70150 0.32820 0.28500 0.05700
H 	H 	0.65850 0.30540 0.35200 0.06400
H 	H 	0.72050 0.45960 0.39410 0.06000
H 	H 	0.75670 0.48510 0.32740 0.05800
H 	H 	0.58200 0.28660 0.45070 0.10000
H 	H 	0.61050 0.19440 0.47180 0.01000
H 	H 	0.80020 0.22440 0.44610 0.01000
H 	H 	0.77530 0.31830 0.42610 0.09800
H 	H 	0.61600 0.38080 0.49490 0.10000
H 	H 	0.51470 0.41520 0.51600 0.00900
H 	H 	0.47250 0.46180 0.39750 0.00900
H 	H 	0.57430 0.42560 0.37570 0.10100
H 	H 	0.13740 0.06930 0.75380 0.06000
H 	H 	0.07580 0.10090 0.81100 0.06100
H 	H 	0.24370 0.15090 0.86720 0.05500
H 	H 	0.30130 0.12540 0.81000 0.05900
H 	H 	0.09720 0.04450 0.89950 0.09900
H 	H 	0.00220 0.00080 0.92370 0.00900
H 	H 	0.89920 0.14860 0.90850 -0.01400
H 	H 	0.99760 0.19380 0.88730 0.09600
H 	H 	0.10130 0.18680 0.95620 0.09600
H 	H 	0.12700 0.27390 0.98520 -0.00300
H 	H 	0.19100 0.33320 0.87350 0.00700
H 	H 	0.16100 0.24740 0.84230 0.09700
H 	H 	0.33760 0.00920 0.78290 0.05700
H 	H 	0.45090 0.00530 0.78420 0.06200
H 	H 	0.46250 0.13150 0.69970 0.06400
H 	H 	0.34810 0.13950 0.69860 0.05700
H 	H 	0.60460 0.97510 0.76640 0.09900
H 	H 	0.65750 0.96090 0.83110 0.01000
H 	H 	0.59910 0.11740 0.86750 -0.00300
H 	H 	0.54480 0.13230 0.80490 0.10500
H 	H 	0.66220 0.07650 0.72360 0.10600
H 	H 	0.71590 0.05950 0.66260 -0.00100
H 	H 	0.54530 0.02110 0.60560 0.00100
H 	H 	0.49040 0.03170 0.66840 0.10400
H 	H 	0.20150 0.17180 0.71500 0.05800
H 	H 	0.15850 0.19460 0.64800 0.06400
H 	H 	0.22050 0.04040 0.60590 0.06000
H 	H 	0.25670 0.01490 0.67260 0.05800
H 	H 	0.08200 0.21340 0.54930 0.10000
H 	H 	0.11050 0.30560 0.52820 0.01000
H 	H 	0.30020 0.27560 0.55390 0.01000
H 	H 	0.27530 0.18170 0.57390 0.09800
H 	H 	0.11600 0.11920 0.50510 0.10000
H 	H 	0.01470 0.08480 0.48400 0.00900
H 	H 	0.97250 0.03820 0.60250 0.00800
H 	H 	0.07430 0.07440 0.62430 0.10100
H 	H 	0.36260 0.93070 0.25380 0.06000
H 	H 	0.42420 0.89910 0.31100 0.06100
H 	H 	0.25630 0.84910 0.36720 0.05500
H 	H 	0.19870 0.87460 0.31000 0.05900
H 	H 	0.40280 0.95550 0.39950 0.09800
H 	H 	0.49780 0.99920 0.42370 0.00900
H 	H 	0.60080 0.85140 0.40850 -0.01300
H 	H 	0.50240 0.80620 0.38730 0.09600
H 	H 	0.39870 0.81320 0.45620 0.09600
H 	H 	0.37300 0.72610 0.48520 -0.00300
H 	H 	0.30900 0.66680 0.37350 0.00700
H 	H 	0.33900 0.75260 0.34230 0.09700
H 	H 	0.16240 0.99080 0.28290 0.05700
H 	H 	0.04910 0.99470 0.28420 0.06200
H 	H 	0.03750 0.86850 0.19970 0.06400
H 	H 	0.15190 0.86050 0.19860 0.05700
H 	H 	0.89540 0.02490 0.26640 0.10000
H 	H 	0.84250 0.03910 0.33110 0.00900
H 	H 	0.90090 0.88260 0.36750 -0.00400
H 	H 	0.95520 0.86770 0.30490 0.10500
H 	H 	0.83780 0.92350 0.22360 0.10600
H 	H 	0.78410 0.94050 0.16260 -0.00100
H 	H 	0.95470 0.97890 0.10560 0.00100
H 	H 	0.00960 0.96830 0.16840 0.10400
H 	H 	0.29850 0.82820 0.21500 0.05700
H 	H 	0.34150 0.80540 0.14800 0.06400
H 	H 	0.27950 0.95960 0.10590 0.06000
H 	H 	0.24330 0.98510 0.17260 0.05800
H 	H 	0.41800 0.78660 0.04930 0.10100
H 	H 	0.38950 0.69440 0.02820 0.01000
H 	H 	0.19980 0.72440 0.05390 0.01000
H 	H 	0.22470 0.81830 0.07390 0.09800
H 	H 	0.38400 0.88080 0.00510 0.10000
H 	H 	0.48530 0.91520 0.98400 0.00900
H 	H 	0.52750 0.96180 0.10250 0.00800
H 	H 	0.42570 0.92560 0.12430 0.10100
C 	C 	0.77440 0.59360 0.72350 0.08700
C 	C 	0.84110 0.58690 0.72310 -0.07600
C 	C 	0.87780 0.60570 0.68880 -0.07900
C 	C 	0.84860 0.63090 0.65510 0.08500
C 	C 	0.77890 0.63570 0.65630 -0.07000
C 	C 	0.74490 0.61930 0.68960 -0.07800
C 	C 	0.94470 0.62470 0.60920 0.16400
C 	C 	0.94250 0.56590 0.59820 -0.19200
C 	C 	0.99910 0.54030 0.58420 0.10700
C 	C 	0.05730 0.56930 0.58120 -0.17300
C 	C 	0.06060 0.62770 0.59260 0.09200
C 	C 	0.00190 0.65390 0.60590 -0.19400
C 	C 	0.87100 0.70630 0.60420 0.16600
C 	C 	0.88100 0.71650 0.56090 -0.19700
C 	C 	0.86540 0.76810 0.54380 0.10600
C 	C 	0.83830 0.81350 0.56750 -0.18700
C 	C 	0.82810 0.80360 0.60990 0.10600
C 	C 	0.84490 0.75230 0.62840 -0.19200
C 	C 	0.66930 0.57520 0.75900 0.07900
C 	C 	0.63750 0.53490 0.73400 -0.06900
C 	C 	0.57040 0.53240 0.73360 -0.08400
C 	C 	0.53300 0.56800 0.75820 0.09300
C 	C 	0.56320 0.60690 0.78310 -0.09000
C 	C 	0.63130 0.61170 0.78400 -0.06800
C 	C 	0.42920 0.55600 0.72000 0.18000
C 	C 	0.39650 0.50430 0.71280 -0.20200
C 	C 	0.36530 0.49590 0.67430 0.11100
C 	C 	0.36750 0.53820 0.64450 -0.18300
C 	C 	0.40010 0.58790 0.65310 0.12300
C 	C 	0.43190 0.59740 0.69030 -0.21600
C 	C 	0.43020 0.55390 0.79740 0.18100
C 	C 	0.36160 0.56370 0.80020 -0.21500
C 	C 	0.33050 0.55470 0.83660 0.13600
C 	C 	0.36220 0.53910 0.87250 -0.19800
C 	C 	0.43080 0.53120 0.87000 0.12000
C 	C 	0.46350 0.53810 0.83280 -0.21200
C 	C 	0.76710 0.59010 0.80020 0.08000
C 	C 	0.79590 0.64450 0.80710 -0.07100
C 	C 	0.82090 0.65840 0.84700 -0.08500
C 	C 	0.81480 0.61880 0.87810 0.08900
C 	C 	0.78480 0.56660 0.87150 -0.08200
C 	C 	0.76220 0.55180 0.83210 -0.07400
C 	C 	0.82500 0.68770 0.93480 0.16800
C 	C 	0.87340 0.72550 0.94940 -0.19500
C 	C 	0.85630 0.78030 0.96180 0.10600
C 	C 	0.79170 0.79960 0.96010 -0.17400
C 	C 	0.74420 0.76280 0.94690 0.10700
C 	C 	0.75890 0.70710 0.93460 -0.18800
C 	C 	0.89900 0.60650 0.93200 0.16900
C 	C 	0.91450 0.60520 0.97480 -0.19400
C 	C 	0.97390 0.58370 0.98730 0.10500
C 	C 	0.01900 0.55970 0.95820 -0.18300
C 	C 	0.99940 0.55620 0.91730 0.11000
C 	C 	0.93900 0.57860 0.90400 -0.19600
C 	C 	0.11650 0.54200 0.56240 0.37400
C 	C 	0.81990 0.86890 0.54820 0.40200
C 	C 	0.33740 0.52760 0.60220 0.39900
C 	C 	0.32730 0.52900 0.91170 0.40900
C 	C 	0.77570 0.86200 0.97130 0.43300
C 	C 	0.08430 0.54150 0.97150 0.42100
C 	C 	0.72560 0.40640 0.22350 0.08700
C 	C 	0.65890 0.41310 0.22310 -0.07600
C 	C 	0.62220 0.39430 0.18880 -0.07900
C 	C 	0.65140 0.36910 0.15510 0.08500
C 	C 	0.72110 0.36430 0.15630 -0.07000
C 	C 	0.75510 0.38070 0.18960 -0.07800
C 	C 	0.55530 0.37530 0.10920 0.16400
C 	C 	0.55750 0.43410 0.09820 -0.19200
C 	C 	0.50090 0.45970 0.08420 0.10800
C 	C 	0.44270 0.43070 0.08120 -0.17300
C 	C 	0.43940 0.37230 0.09260 0.09300
C 	C 	0.49810 0.34610 0.10590 -0.19400
C 	C 	0.62900 0.29370 0.10420 0.16600
C 	C 	0.61900 0.28350 0.06090 -0.19700
C 	C 	0.63460 0.23190 0.04380 0.10600
C 	C 	0.66170 0.18650 0.06750 -0.18700
C 	C 	0.67190 0.19640 0.10990 0.10600
C 	C 	0.65510 0.24770 0.12840 -0.19200
C 	C 	0.83070 0.42480 0.25900 0.07900
C 	C 	0.86250 0.46510 0.23400 -0.06900
C 	C 	0.92960 0.46760 0.23360 -0.08400
C 	C 	0.96700 0.43200 0.25820 0.09300
C 	C 	0.93680 0.39310 0.28310 -0.09000
C 	C 	0.86870 0.38830 0.28400 -0.06800
C 	C 	0.07080 0.44400 0.22000 0.18000
C 	C 	0.10350 0.49570 0.21280 -0.20200
C 	C 	0.13470 0.50410 0.17430 0.11100
C 	C 	0.13250 0.46180 0.14450 -0.18300
C 	C 	0.09990 0.41210 0.15310 0.12300
C 	C 	0.06810 0.40260 0.19030 -0.21600
C 	C 	0.06980 0.44610 0.29740 0.18100
C 	C 	0.13840 0.43630 0.30020 -0.21500
C 	C 	0.16950 0.44530 0.33660 0.13600
C 	C 	0.13780 0.46090 0.37250 -0.19800
C 	C 	0.06920 0.46880 0.37000 0.12000
C 	C 	0.03650 0.46190 0.33280 -0.21300
C 	C 	0.73290 0.40990 0.30020 0.08000
C 	C 	0.70410 0.35550 0.30710 -0.07100
C 	C 	0.67910 0.34160 0.34700 -0.08500
C 	C 	0.68520 0.38120 0.37810 0.08900
C 	C 	0.71520 0.43340 0.37150 -0.08200
C 	C 	0.73780 0.44820 0.33210 -0.07400
C 	C 	0.67500 0.31230 0.43480 0.16800
C 	C 	0.62660 0.27450 0.44940 -0.19500
C 	C 	0.64370 0.21970 0.46180 0.10600
C 	C 	0.70830 0.20040 0.46010 -0.17300
C 	C 	0.75580 0.23720 0.44690 0.10700
C 	C 	0.74110 0.29290 0.43460 -0.18800
C 	C 	0.60100 0.39350 0.43200 0.16900
C 	C 	0.58550 0.39480 0.47480 -0.19500
C 	C 	0.52610 0.41630 0.48730 0.10700
C 	C 	0.48100 0.44030 0.45820 -0.18400
C 	C 	0.50060 0.44380 0.41730 0.11100
C 	C 	0.56100 0.42140 0.40400 -0.19700
C 	C 	0.38350 0.45800 0.06240 0.37400
C 	C 	0.68010 0.13110 0.04820 0.40200
C 	C 	0.16260 0.47240 0.10220 0.39900
C 	C 	0.17270 0.47100 0.41170 0.40900
C 	C 	0.72430 0.13800 0.47130 0.43300
C 	C 	0.41570 0.45850 0.47150 0.42100
C 	C 	0.22560 0.09360 0.77650 0.08700
C 	C 	0.15890 0.08690 0.77690 -0.07600
C 	C 	0.12220 0.10570 0.81120 -0.07900
C 	C 	0.15140 0.13090 0.84490 0.08500
C 	C 	0.22110 0.13570 0.84370 -0.07000
C 	C 	0.25510 0.11930 0.81040 -0.07800
C 	C 	0.05530 0.12470 0.89080 0.16500
C 	C 	0.05750 0.06590 0.90180 -0.19300
C 	C 	0.00090 0.04030 0.91580 0.10800
C 	C 	0.94270 0.06930 0.91880 -0.17300
C 	C 	0.93940 0.12770 0.90740 0.09300
C 	C 	0.99810 0.15390 0.89410 -0.19500
C 	C 	0.12900 0.20630 0.89580 0.16600
C 	C 	0.11900 0.21650 0.93910 -0.19600
C 	C 	0.13460 0.26810 0.95620 0.10600
C 	C 	0.16170 0.31350 0.93250 -0.18700
C 	C 	0.17190 0.30360 0.89010 0.10600
C 	C 	0.15510 0.25230 0.87160 -0.19200
C 	C 	0.33070 0.07520 0.74100 0.07900
C 	C 	0.36250 0.03490 0.76600 -0.06900
C 	C 	0.42960 0.03240 0.76640 -0.08400
C 	C 	0.46700 0.06800 0.74180 0.09300
C 	C 	0.43680 0.10690 0.71690 -0.09000
C 	C 	0.36870 0.11170 0.71600 -0.06800
C 	C 	0.57080 0.05600 0.78000 0.17900
C 	C 	0.60350 0.00430 0.78720 -0.19900
C 	C 	0.63470 0.99590 0.82570 0.10800
C 	C 	0.63250 0.03820 0.85550 -0.18100
C 	C 	0.59990 0.08790 0.84690 0.12200
C 	C 	0.56810 0.09740 0.80970 -0.21500
C 	C 	0.56980 0.05390 0.70260 0.18100
C 	C 	0.63840 0.06370 0.69980 -0.21500
C 	C 	0.66950 0.05470 0.66340 0.13600
C 	C 	0.63780 0.03910 0.62750 -0.19800
C 	C 	0.56920 0.03120 0.63000 0.12000
C 	C 	0.53650 0.03810 0.66720 -0.21200
C 	C 	0.23290 0.09010 0.69980 0.08000
C 	C 	0.20410 0.14450 0.69290 -0.07100
C 	C 	0.17910 0.15840 0.65300 -0.08500
C 	C 	0.18520 0.11880 0.62190 0.08900
C 	C 	0.21520 0.06660 0.62850 -0.08200
C 	C 	0.23780 0.05180 0.66790 -0.07400
C 	C 	0.17500 0.18770 0.56520 0.16800
C 	C 	0.12660 0.22550 0.55060 -0.19500
C 	C 	0.14370 0.28030 0.53820 0.10600
C 	C 	0.20830 0.29960 0.53990 -0.17300
C 	C 	0.25580 0.26280 0.55310 0.10700
C 	C 	0.24110 0.20710 0.56540 -0.18800
C 	C 	0.10100 0.10650 0.56800 0.16900
C 	C 	0.08550 0.10520 0.52520 -0.19500
C 	C 	0.02610 0.08370 0.51270 0.10700
C 	C 	0.98100 0.05970 0.54180 -0.18400
C 	C 	0.00060 0.05620 0.58270 0.11100
C 	C 	0.06100 0.07860 0.59600 -0.19700
C 	C 	0.88350 0.04200 0.93760 0.37500
C 	C 	0.18010 0.36890 0.95180 0.40200
C 	C 	0.66260 0.02760 0.89780 0.39900
C 	C 	0.67270 0.02900 0.58830 0.40900
C 	C 	0.22430 0.36200 0.52870 0.43300
C 	C 	0.91570 0.04150 0.52850 0.42200
C 	C 	0.27440 0.90640 0.27650 0.08700
C 	C 	0.34110 0.91310 0.27690 -0.07600
C 	C 	0.37780 0.89430 0.31120 -0.07900
C 	C 	0.34860 0.86910 0.34490 0.08500
C 	C 	0.27890 0.86430 0.34370 -0.07000
C 	C 	0.24490 0.88070 0.31040 -0.07800
C 	C 	0.44470 0.87530 0.39080 0.16400
C 	C 	0.44250 0.93410 0.40180 -0.19200
C 	C 	0.49910 0.95970 0.41580 0.10800
C 	C 	0.55730 0.93070 0.41880 -0.17300
C 	C 	0.56060 0.87230 0.40740 0.09300
C 	C 	0.50190 0.84610 0.39410 -0.19400
C 	C 	0.37100 0.79370 0.39580 0.16600
C 	C 	0.38100 0.78350 0.43910 -0.19700
C 	C 	0.36540 0.73190 0.45620 0.10600
C 	C 	0.33830 0.68650 0.43250 -0.18700
C 	C 	0.32810 0.69640 0.39010 0.10600
C 	C 	0.34490 0.74770 0.37160 -0.19200
C 	C 	0.16930 0.92480 0.24100 0.07900
C 	C 	0.13750 0.96510 0.26600 -0.06900
C 	C 	0.07040 0.96760 0.26640 -0.08400
C 	C 	0.03300 0.93200 0.24180 0.09300
C 	C 	0.06320 0.89310 0.21690 -0.09000
C 	C 	0.13130 0.88830 0.21600 -0.06800
C 	C 	0.92920 0.94400 0.28000 0.17900
C 	C 	0.89650 0.99570 0.28720 -0.20000
C 	C 	0.86530 0.00410 0.32570 0.10900
C 	C 	0.86750 0.96180 0.35550 -0.18200
C 	C 	0.90010 0.91210 0.34690 0.12200
C 	C 	0.93190 0.90260 0.30970 -0.21600
C 	C 	0.93020 0.94610 0.20260 0.18100
C 	C 	0.86160 0.93630 0.19980 -0.21500
C 	C 	0.83050 0.94530 0.16340 0.13600
C 	C 	0.86220 0.96090 0.12750 -0.19700
C 	C 	0.93080 0.96880 0.13000 0.12000
C 	C 	0.96350 0.96190 0.16720 -0.21200
C 	C 	0.26710 0.90990 0.19980 0.08000
C 	C 	0.29590 0.85550 0.19290 -0.07100
C 	C 	0.32090 0.84160 0.15300 -0.08500
C 	C 	0.31480 0.88120 0.12190 0.08900
C 	C 	0.28480 0.93340 0.12850 -0.08200
C 	C 	0.26220 0.94820 0.16790 -0.07400
C 	C 	0.32500 0.81230 0.06520 0.16800
C 	C 	0.37340 0.77450 0.05060 -0.19500
C 	C 	0.35630 0.71970 0.03820 0.10600
C 	C 	0.29170 0.70040 0.03990 -0.17300
C 	C 	0.24420 0.73720 0.05310 0.10700
C 	C 	0.25890 0.79290 0.06540 -0.18800
C 	C 	0.39900 0.89350 0.06800 0.17000
C 	C 	0.41450 0.89480 0.02520 -0.19600
C 	C 	0.47390 0.91630 0.01270 0.10800
C 	C 	0.51900 0.94030 0.04180 -0.18500
C 	C 	0.49940 0.94380 0.08270 0.11200
C 	C 	0.43900 0.92140 0.09600 -0.19800
C 	C 	0.61650 0.95800 0.43760 0.37400
C 	C 	0.31990 0.63110 0.45180 0.40200
C 	C 	0.83740 0.97240 0.39780 0.39900
C 	C 	0.82730 0.97100 0.08830 0.40900
C 	C 	0.27570 0.63800 0.02870 0.43300
C 	C 	0.58430 0.95850 0.02850 0.42300
N 	N 	0.73880 0.57800 0.76010 -0.14900
N 	N 	0.88430 0.65350 0.62050 -0.17900
N 	N 	0.46190 0.56430 0.75910 -0.18100
N 	N 	0.84000 0.63390 0.91940 -0.17900
N 	N 	0.76120 0.42200 0.26010 -0.14900
N 	N 	0.61570 0.34650 0.12050 -0.17900
N 	N 	0.03810 0.43570 0.25910 -0.18100
N 	N 	0.66000 0.36610 0.41940 -0.17900
N 	N 	0.26120 0.07800 0.73990 -0.14900
N 	N 	0.11570 0.15350 0.87950 -0.17900
N 	N 	0.53810 0.06430 0.74090 -0.18100
N 	N 	0.16000 0.13390 0.58060 -0.17900
N 	N 	0.23880 0.92200 0.23990 -0.14900
N 	N 	0.38430 0.84650 0.37950 -0.17900
N 	N 	0.96190 0.93570 0.24090 -0.18100
N 	N 	0.34000 0.86610 0.08060 -0.17900
O 	O 	0.25760 0.51020 0.50559 -0.95600
O 	O 	0.10570 0.49980 0.53889 -0.49700
O 	O 	0.17330 0.56270 0.57160 -0.49200
O 	O 	0.82180 0.87470 0.50914 -0.51200
O 	O 	0.80280 0.90850 0.57270 -0.50900
O 	O 	0.32540 0.47400 0.59383 -0.47900
O 	O 	0.32850 0.56780 0.57790 -0.49000
O 	O 	0.26590 0.52770 0.91094 -0.50800
O 	O 	0.36200 0.52320 0.94500 -0.50700
O 	O 	0.71820 0.87720 0.96480 -0.50900
O 	O 	0.82080 0.89040 0.98693 -0.51300
O 	O 	0.09830 0.54670 0.00989 -0.49900
O 	O 	0.12120 0.52100 0.94398 -0.50400
O 	O 	0.24240 0.48980 0.00559 -0.95600
O 	O 	0.39430 0.50020 0.03889 -0.49700
O 	O 	0.32670 0.43730 0.07160 -0.49200
O 	O 	0.67820 0.12530 0.00914 -0.51200
O 	O 	0.69720 0.09150 0.07270 -0.50900
O 	O 	0.17460 0.52600 0.09383 -0.47900
O 	O 	0.17150 0.43220 0.07790 -0.49000
O 	O 	0.23410 0.47230 0.41094 -0.50800
O 	O 	0.13800 0.47680 0.44500 -0.50700
O 	O 	0.78180 0.12280 0.46480 -0.50900
O 	O 	0.67920 0.10960 0.48693 -0.51300
O 	O 	0.40170 0.45330 0.50989 -0.49900
O 	O 	0.37880 0.47900 0.44398 -0.50400
O 	O 	0.74240 0.01020 0.99441 -0.95500
O 	O 	0.89430 0.99980 0.96111 -0.49800
O 	O 	0.82670 0.06270 0.92840 -0.49200
O 	O 	0.17820 0.37470 0.99086 -0.51100
O 	O 	0.19720 0.40850 0.92730 -0.50900
O 	O 	0.67460 0.97400 0.90617 -0.47900
O 	O 	0.67150 0.06780 0.92210 -0.49000
O 	O 	0.73410 0.02770 0.58906 -0.50800
O 	O 	0.63800 0.02320 0.55500 -0.50700
O 	O 	0.28180 0.37720 0.53520 -0.50900
O 	O 	0.17920 0.39040 0.51307 -0.51300
O 	O 	0.90170 0.04670 0.49011 -0.49900
O 	O 	0.87880 0.02100 0.55602 -0.50400
O 	O 	0.75760 0.98980 0.49441 -0.95600
O 	O 	0.60570 0.00020 0.46111 -0.49700
O 	O 	0.67330 0.93730 0.42840 -0.49200
O 	O 	0.32180 0.62530 0.49086 -0.51200
O 	O 	0.30280 0.59150 0.42730 -0.50900
O 	O 	0.82540 0.02600 0.40617 -0.47900
O 	O 	0.82850 0.93220 0.42210 -0.49000
O 	O 	0.76590 0.97230 0.08906 -0.50800
O 	O 	0.86200 0.97680 0.05500 -0.50700
O 	O 	0.21820 0.62280 0.03520 -0.50900
O 	O 	0.32080 0.60960 0.01307 -0.51300
O 	O 	0.59830 0.95330 0.99011 -0.50000
O 	O 	0.62120 0.97900 0.05602 -0.50400
