data_crystal

_cell_length_a 9.68920
_cell_length_b 17.68100
_cell_length_c 21.15800
_cell_angle_alpha 90.00000
_cell_angle_beta  90.00000
_cell_angle_gamma 105.42600

_symmetry_space_group_name_	'P 1'
_symmetry_space_group_name_H-M	'P 1'

loop_
_symmetry_equiv_pos_as_xyz
  x,y,z

loop_
_atom_site_label
_atom_site_type_symbol
_atom_site_fract_x
_atom_site_fract_y
_atom_site_fract_z
_atom_site_charge
Li	Li	0.97690 0.49210 0.28540 0.53300
Li	Li	0.52310 0.00790 0.78540 0.52800
Li	Li	0.02310 0.50790 0.71460 0.52900
Li	Li	0.47690 0.99210 0.21460 0.53500
Cd	Cd	0.42438 0.92571 0.64738 1.22100
Cd	Cd	0.07562 0.57429 0.14738 1.20500
Cd	Cd	0.57562 0.07429 0.35262 1.20700
Cd	Cd	0.92438 0.42571 0.85262 1.22100
Cd	Cd	0.50000 -0.00000 0.50000 1.23200
Cd	Cd	-0.00000 0.50000 -0.00000 1.23000
H 	H 	0.66300 0.85900 0.46340 -0.24100
H 	H 	0.09200 0.87500 0.44410 -0.21700
H 	H 	0.93600 0.92600 0.60730 -0.16500
H 	H 	0.67360 0.86320 0.35580 1.15300
H 	H 	0.64280 0.77510 0.37610 1.12800
H 	H 	0.69920 0.80070 0.30780 1.10600
H 	H 	0.84240 0.71570 0.39300 0.93200
H 	H 	0.99900 0.76790 0.38270 0.99300
H 	H 	0.89780 0.74070 0.32450 0.95100
H 	H 	0.92450 0.93820 0.33280 0.96400
H 	H 	0.94570 0.87020 0.28940 0.91500
H 	H 	0.04700 0.89800 0.34750 0.94600
H 	H 	0.30200 0.80700 0.26510 -0.08600
H 	H 	0.37900 0.81900 0.45600 -0.10300
H 	H 	0.16100 0.61300 0.37200 -0.15100
H 	H 	0.11680 0.72520 0.53010 0.55800
H 	H 	0.27700 0.77380 0.53680 0.59600
H 	H 	0.21690 0.69950 0.57910 0.55700
H 	H 	0.40780 0.64650 0.54940 0.44200
H 	H 	0.47060 0.72320 0.51010 0.47900
H 	H 	0.44730 0.64080 0.47800 0.43700
H 	H 	0.06640 0.59230 0.47870 0.52500
H 	H 	0.16120 0.57070 0.53220 0.52100
H 	H 	0.19710 0.55980 0.46110 0.53500
H 	H 	0.83700 0.64100 0.96340 -0.27400
H 	H 	0.40800 0.62500 0.94410 -0.25600
H 	H 	0.56400 0.57400 0.10730 -0.19100
H 	H 	0.82640 0.63680 0.85580 1.25500
H 	H 	0.85720 0.72490 0.87610 1.23500
H 	H 	0.80080 0.69930 0.80780 1.20500
H 	H 	0.65760 0.78430 0.89300 1.01100
H 	H 	0.50100 0.73210 0.88270 1.06100
H 	H 	0.60220 0.75930 0.82450 1.02400
H 	H 	0.57550 0.56180 0.83280 1.04600
H 	H 	0.55430 0.62980 0.78940 1.00400
H 	H 	0.45300 0.60200 0.84750 1.06400
H 	H 	0.19800 0.69300 0.76510 -0.09700
H 	H 	0.12100 0.68100 0.95600 -0.12100
H 	H 	0.33900 0.88700 0.87200 -0.15800
H 	H 	0.38320 0.77480 0.03010 0.63700
H 	H 	0.22300 0.72620 0.03680 0.66800
H 	H 	0.28310 0.80050 0.07910 0.63600
H 	H 	0.09220 0.85350 0.04940 0.51700
H 	H 	0.02940 0.77680 0.01010 0.54300
H 	H 	0.05270 0.85920 0.97800 0.52300
H 	H 	0.43360 0.90770 0.97870 0.61600
H 	H 	0.33880 0.92930 0.03220 0.59500
H 	H 	0.30290 0.94020 0.96110 0.62000
H 	H 	0.33700 0.14100 0.53660 -0.26600
H 	H 	0.90800 0.12500 0.55590 -0.24700
H 	H 	0.06400 0.07400 0.39270 -0.17900
H 	H 	0.32640 0.13680 0.64420 1.20800
H 	H 	0.35720 0.22490 0.62390 1.19000
H 	H 	0.30080 0.19930 0.69220 1.16100
H 	H 	0.15760 0.28430 0.60700 0.96800
H 	H 	0.00100 0.23210 0.61730 1.01600
H 	H 	0.10220 0.25930 0.67550 0.98300
H 	H 	0.07550 0.06180 0.66720 1.02200
H 	H 	0.05430 0.12980 0.71060 0.98700
H 	H 	0.95300 0.10200 0.65250 1.06500
H 	H 	0.69800 0.19300 0.73490 -0.09200
H 	H 	0.62100 0.18100 0.54400 -0.11300
H 	H 	0.83900 0.38700 0.62800 -0.15200
H 	H 	0.88320 0.27480 0.46990 0.60200
H 	H 	0.72300 0.22620 0.46320 0.63100
H 	H 	0.78310 0.30050 0.42090 0.59500
H 	H 	0.59220 0.35350 0.45060 0.46600
H 	H 	0.52940 0.27680 0.48990 0.50100
H 	H 	0.55270 0.35920 0.52200 0.45800
H 	H 	0.93360 0.40770 0.52130 0.58100
H 	H 	0.83880 0.42930 0.46780 0.57200
H 	H 	0.80290 0.44020 0.53890 0.58200
H 	H 	0.16300 0.35900 0.03660 -0.23600
H 	H 	0.59200 0.37500 0.05590 -0.21100
H 	H 	0.43600 0.42600 0.89270 -0.15400
H 	H 	0.17360 0.36320 0.14420 1.11400
H 	H 	0.14280 0.27510 0.12390 1.09200
H 	H 	0.19920 0.30070 0.19220 1.07000
H 	H 	0.34240 0.21570 0.10700 0.89600
H 	H 	0.49900 0.26790 0.11730 0.95300
H 	H 	0.39780 0.24070 0.17550 0.91600
H 	H 	0.42450 0.43820 0.16720 0.95200
H 	H 	0.44570 0.37020 0.21060 0.91100
H 	H 	0.54700 0.39800 0.15250 0.96800
H 	H 	0.80200 0.30700 0.23490 -0.08000
H 	H 	0.87900 0.31900 0.04400 -0.09600
H 	H 	0.66100 0.11300 0.12800 -0.14500
H 	H 	0.61680 0.22520 0.96990 0.53000
H 	H 	0.77700 0.27380 0.96320 0.56500
H 	H 	0.71690 0.19950 0.92090 0.52300
H 	H 	0.90780 0.14650 0.95060 0.39700
H 	H 	0.97060 0.22320 0.98990 0.44200
H 	H 	0.94730 0.14080 0.02200 0.38000
H 	H 	0.56640 0.09230 0.02130 0.49800
H 	H 	0.66120 0.07070 0.96780 0.50600
H 	H 	0.69710 0.05980 0.03890 0.50500
C 	C 	0.65610 0.89769 0.58318 0.46100
C 	C 	0.77970 0.89097 0.54298 -0.51700
C 	C 	0.75720 0.86647 0.48022 0.65000
C 	C 	0.87040 0.85900 0.44200 -1.14300
C 	C 	0.00680 0.87970 0.46837 0.59600
C 	C 	0.03090 0.90413 0.53088 -0.52300
C 	C 	0.91640 0.90911 0.56853 0.48900
C 	C 	0.18220 0.92501 0.55510 0.51100
C 	C 	0.84950 0.83000 0.37356 2.72200
C 	C 	0.70420 0.81610 0.35150 -3.81300
C 	C 	0.90200 0.75690 0.36790 -3.25500
C 	C 	0.95100 0.88960 0.33200 -3.15900
C 	C 	0.16590 0.65900 0.25232 0.41200
C 	C 	0.22520 0.70519 0.31035 -0.37300
C 	C 	0.29170 0.78447 0.30487 0.21200
C 	C 	0.34810 0.82723 0.35828 -0.37400
C 	C 	0.33530 0.79042 0.41726 0.30000
C 	C 	0.26730 0.71099 0.42379 -0.64900
C 	C 	0.21300 0.66906 0.36906 0.30300
C 	C 	0.42690 0.91339 0.35149 0.43800
C 	C 	0.25500 0.67200 0.48906 1.38800
C 	C 	0.21260 0.72210 0.53810 -1.94300
C 	C 	0.41020 0.67050 0.50850 -1.62600
C 	C 	0.16190 0.59180 0.49040 -1.94100
C 	C 	0.84390 0.60231 0.08318 0.47700
C 	C 	0.72030 0.60903 0.04298 -0.58800
C 	C 	0.74280 0.63353 0.98022 0.75400
C 	C 	0.62960 0.64100 0.94200 -1.30700
C 	C 	0.49320 0.62030 0.96837 0.72400
C 	C 	0.46910 0.59587 0.03088 -0.57900
C 	C 	0.58360 0.59089 0.06853 0.51800
C 	C 	0.31780 0.57499 0.05510 0.52900
C 	C 	0.65050 0.67000 0.87356 2.98700
C 	C 	0.79580 0.68390 0.85150 -4.15100
C 	C 	0.59800 0.74310 0.86790 -3.52000
C 	C 	0.54900 0.61040 0.83200 -3.50900
C 	C 	0.33410 0.84100 0.75232 0.41500
C 	C 	0.27480 0.79481 0.81035 -0.39300
C 	C 	0.20830 0.71553 0.80487 0.23400
C 	C 	0.15190 0.67277 0.85828 -0.40800
C 	C 	0.16470 0.70958 0.91726 0.34500
C 	C 	0.23270 0.78901 0.92379 -0.73200
C 	C 	0.28700 0.83094 0.86906 0.34500
C 	C 	0.07310 0.58661 0.85149 0.44800
C 	C 	0.24500 0.82800 0.98906 1.60700
C 	C 	0.28740 0.77790 0.03810 -2.20700
C 	C 	0.08980 0.82950 0.00850 -1.89800
C 	C 	0.33810 0.90820 0.99040 -2.17900
C 	C 	0.34390 0.10231 0.41682 0.46100
C 	C 	0.22030 0.10903 0.45702 -0.54600
C 	C 	0.24280 0.13353 0.51978 0.69700
C 	C 	0.12960 0.14100 0.55800 -1.28200
C 	C 	0.99320 0.12030 0.53163 0.68900
C 	C 	0.96910 0.09587 0.46912 -0.51400
C 	C 	0.08360 0.09089 0.43147 0.44100
C 	C 	0.81780 0.07499 0.44490 0.50600
C 	C 	0.15050 0.17000 0.62644 2.90900
C 	C 	0.29580 0.18390 0.64850 -4.02800
C 	C 	0.09800 0.24310 0.63210 -3.41100
C 	C 	0.04900 0.11040 0.66800 -3.48200
C 	C 	0.83410 0.34100 0.74768 0.41300
C 	C 	0.77480 0.29481 0.68965 -0.37800
C 	C 	0.70830 0.21553 0.69513 0.22500
C 	C 	0.65190 0.17277 0.64172 -0.39300
C 	C 	0.66470 0.20958 0.58274 0.32200
C 	C 	0.73270 0.28901 0.57621 -0.68400
C 	C 	0.78700 0.33094 0.63094 0.32300
C 	C 	0.57310 0.08661 0.64851 0.44800
C 	C 	0.74500 0.32800 0.51094 1.47800
C 	C 	0.78740 0.27790 0.46190 -2.05800
C 	C 	0.58980 0.32950 0.49150 -1.70600
C 	C 	0.83810 0.40820 0.50960 -2.07800
C 	C 	0.15610 0.39769 0.91682 0.44400
C 	C 	0.27970 0.39097 0.95702 -0.47200
C 	C 	0.25720 0.36647 0.01978 0.59500
C 	C 	0.37040 0.35900 0.05800 -1.13500
C 	C 	0.50680 0.37970 0.03163 0.57300
C 	C 	0.53090 0.40413 0.96912 -0.45900
C 	C 	0.41640 0.40911 0.93147 0.40800
C 	C 	0.68220 0.42501 0.94490 0.48900
C 	C 	0.34950 0.33000 0.12644 2.67300
C 	C 	0.20420 0.31610 0.14850 -3.72200
C 	C 	0.40200 0.25690 0.13210 -3.17200
C 	C 	0.45100 0.38960 0.16800 -3.18700
C 	C 	0.66590 0.15900 0.24768 0.41100
C 	C 	0.72520 0.20519 0.18965 -0.35900
C 	C 	0.79170 0.28447 0.19513 0.20500
C 	C 	0.84810 0.32723 0.14172 -0.36000
C 	C 	0.83530 0.29042 0.08274 0.28100
C 	C 	0.76730 0.21099 0.07621 -0.60800
C 	C 	0.71300 0.16906 0.13094 0.28500
C 	C 	0.92690 0.41339 0.14851 0.43800
C 	C 	0.75500 0.17200 0.01094 1.28000
C 	C 	0.71260 0.22210 0.96190 -1.81800
C 	C 	0.91020 0.17050 0.99150 -1.46100
C 	C 	0.66190 0.09180 0.00960 -1.86800
O 	O 	0.53610 0.89494 0.55569 -0.55500
O 	O 	0.66890 0.90585 0.64125 -0.45700
O 	O 	0.20350 0.92428 0.61290 -0.52800
O 	O 	0.27660 0.94025 0.51274 -0.49800
O 	O 	0.17140 0.69279 0.20026 -0.48900
O 	O 	0.11380 0.58580 0.25711 -0.58500
O 	O 	0.43410 0.94414 0.29904 -0.54000
O 	O 	0.48870 0.94933 0.39899 -0.55800
O 	O 	0.96390 0.60506 0.05569 -0.56000
O 	O 	0.83110 0.59415 0.14125 -0.46600
O 	O 	0.29650 0.57572 0.11290 -0.54100
O 	O 	0.22340 0.55975 0.01274 -0.53400
O 	O 	0.32860 0.80721 0.70026 -0.48300
O 	O 	0.38620 0.91420 0.75711 -0.56300
O 	O 	0.06590 0.55586 0.79904 -0.57300
O 	O 	0.01130 0.55067 0.89899 -0.59200
O 	O 	0.46390 0.10506 0.44431 -0.57400
O 	O 	0.33110 0.09415 0.35875 -0.48400
O 	O 	0.79650 0.07572 0.38710 -0.53800
O 	O 	0.72340 0.05975 0.48726 -0.52600
O 	O 	0.82860 0.30721 0.79974 -0.47600
O 	O 	0.88620 0.41420 0.74289 -0.56800
O 	O 	0.56590 0.05586 0.70096 -0.57900
O 	O 	0.51130 0.05067 0.60101 -0.60100
O 	O 	0.03610 0.39494 0.94431 -0.56500
O 	O 	0.16890 0.40585 0.85875 -0.47300
O 	O 	0.70350 0.42428 0.88710 -0.52600
O 	O 	0.77660 0.44025 0.98726 -0.49300
O 	O 	0.67140 0.19279 0.29974 -0.48100
O 	O 	0.61380 0.08580 0.24289 -0.58800
O 	O 	0.93410 0.44414 0.20096 -0.54600
O 	O 	0.98870 0.44933 0.10101 -0.56500
