data_crystal

_cell_length_a 23.30330
_cell_length_b 23.30330
_cell_length_c 6.57880
_cell_angle_alpha 90.00000
_cell_angle_beta  90.00000
_cell_angle_gamma 90.00000

_symmetry_space_group_name_	'P 1'
_symmetry_space_group_name_H-M	'P 1'

loop_
_symmetry_equiv_pos_as_xyz
  x,y,z

loop_
_atom_site_label
_atom_site_type_symbol
_atom_site_fract_x
_atom_site_fract_y
_atom_site_fract_z
_atom_site_charge
O 	O 	0.96275 0.54434 0.45450 -0.41500
O 	O 	0.92558 0.57570 0.73230 -0.35700
C 	C 	0.92917 0.57810 0.54720 0.41300
C 	C 	0.89788 0.62254 0.42760 -0.24800
C 	C 	0.85430 0.65320 0.52360 0.22500
H 	H 	0.84460 0.64470 0.65730 -0.02900
C 	C 	0.82550 0.69620 0.42230 -0.35400
H 	H 	0.79660 0.71660 0.48780 0.17400
C 	C 	0.83930 0.70867 0.22750 0.36000
C 	C 	0.88090 0.67560 0.12590 -0.34700
H 	H 	0.88870 0.68230 0.98920 0.18100
C 	C 	0.90989 0.63389 0.22810 0.24200
H 	H 	0.93810 0.61290 0.16160 -0.02000
O 	O 	0.46275 0.04434 0.95450 -0.45900
O 	O 	0.42558 0.07570 0.23230 -0.38400
C 	C 	0.42917 0.07810 0.04720 0.33900
C 	C 	0.39788 0.12254 0.92760 -0.15000
C 	C 	0.35430 0.15320 0.02360 0.08600
H 	H 	0.34460 0.14470 0.15730 0.00800
C 	C 	0.32550 0.19620 0.92230 -0.24700
H 	H 	0.29660 0.21660 0.98780 0.14200
C 	C 	0.33930 0.20867 0.72750 0.29500
C 	C 	0.38090 0.17560 0.62590 -0.27300
H 	H 	0.38870 0.18230 0.48920 0.14000
C 	C 	0.40989 0.13389 0.72810 0.14900
H 	H 	0.43810 0.11290 0.66160 -0.01200
O 	O 	0.03725 0.45566 0.45450 -0.49600
O 	O 	0.07442 0.42430 0.73230 -0.39800
C 	C 	0.07083 0.42190 0.54720 0.43200
C 	C 	0.10212 0.37746 0.42760 -0.28700
C 	C 	0.14570 0.34680 0.52360 0.24600
H 	H 	0.15540 0.35530 0.65730 -0.03700
C 	C 	0.17450 0.30380 0.42230 -0.37700
H 	H 	0.20340 0.28340 0.48780 0.18100
C 	C 	0.16070 0.29133 0.22750 0.37400
C 	C 	0.11910 0.32440 0.12590 -0.38000
H 	H 	0.11130 0.31770 0.98920 0.17900
C 	C 	0.09011 0.36611 0.22810 0.26600
H 	H 	0.06190 0.38710 0.16160 -0.06200
O 	O 	0.53725 0.95566 0.95450 -0.37900
O 	O 	0.57442 0.92430 0.23230 -0.33300
C 	C 	0.57083 0.92190 0.04720 0.32800
C 	C 	0.60212 0.87746 0.92760 -0.11800
C 	C 	0.64570 0.84680 0.02360 0.07600
H 	H 	0.65540 0.85530 0.15730 0.02500
C 	C 	0.67450 0.80380 0.92230 -0.22900
H 	H 	0.70340 0.78340 0.98780 0.13900
C 	C 	0.66070 0.79133 0.72750 0.28700
C 	C 	0.61910 0.82440 0.62590 -0.25200
H 	H 	0.61130 0.81770 0.48920 0.13600
C 	C 	0.59011 0.86611 0.72810 0.13600
H 	H 	0.56190 0.88710 0.66160 0.00700
O 	O 	0.54434 0.03725 0.54550 -0.49700
O 	O 	0.57570 0.07442 0.26770 -0.40400
C 	C 	0.57810 0.07083 0.45280 0.42300
C 	C 	0.62254 0.10212 0.57240 -0.26000
C 	C 	0.65320 0.14570 0.47640 0.21800
H 	H 	0.64470 0.15540 0.34270 -0.03200
C 	C 	0.69620 0.17450 0.57770 -0.34700
H 	H 	0.71660 0.20340 0.51220 0.17100
C 	C 	0.70867 0.16070 0.77250 0.34100
C 	C 	0.67560 0.11910 0.87410 -0.29700
H 	H 	0.68230 0.11130 0.01080 0.13100
C 	C 	0.63389 0.09011 0.77190 0.21400
H 	H 	0.61290 0.06190 0.83840 -0.03900
O 	O 	0.04434 0.53725 0.04550 -0.49900
O 	O 	0.07570 0.57442 0.76770 -0.40600
C 	C 	0.07810 0.57083 0.95280 0.44000
C 	C 	0.12254 0.60212 0.07240 -0.30400
C 	C 	0.15320 0.64570 0.97640 0.27100
H 	H 	0.14470 0.65540 0.84270 -0.05200
C 	C 	0.19620 0.67450 0.07770 -0.39800
H 	H 	0.21660 0.70340 0.01220 0.18300
C 	C 	0.20867 0.66070 0.27250 0.38200
C 	C 	0.17560 0.61910 0.37410 -0.37500
H 	H 	0.18230 0.61130 0.51080 0.17800
C 	C 	0.13389 0.59011 0.27190 0.27000
H 	H 	0.11290 0.56190 0.33840 -0.05300
O 	O 	0.45566 0.96275 0.54550 -0.41500
O 	O 	0.42430 0.92558 0.26770 -0.36200
C 	C 	0.42190 0.92917 0.45280 0.40700
C 	C 	0.37746 0.89788 0.57240 -0.22300
C 	C 	0.34680 0.85430 0.47640 0.20300
H 	H 	0.35530 0.84460 0.34270 -0.02300
C 	C 	0.30380 0.82550 0.57770 -0.32900
H 	H 	0.28340 0.79660 0.51220 0.16500
C 	C 	0.29133 0.83930 0.77250 0.33400
C 	C 	0.32440 0.88090 0.87410 -0.27200
H 	H 	0.31770 0.88870 0.01080 0.13800
C 	C 	0.36611 0.90989 0.77190 0.19600
H 	H 	0.38710 0.93810 0.83840 0.00100
O 	O 	0.95566 0.46275 0.04550 -0.41700
O 	O 	0.92430 0.42558 0.76770 -0.35400
C 	C 	0.92190 0.42917 0.95280 0.42600
C 	C 	0.87746 0.39788 0.07240 -0.26700
C 	C 	0.84680 0.35430 0.97640 0.25700
H 	H 	0.85530 0.34460 0.84270 -0.03200
C 	C 	0.80380 0.32550 0.07770 -0.37700
H 	H 	0.78340 0.29660 0.01220 0.17900
C 	C 	0.79133 0.33930 0.27250 0.37200
C 	C 	0.82440 0.38090 0.37410 -0.35200
H 	H 	0.81770 0.38870 0.51080 0.17400
C 	C 	0.86611 0.40989 0.27190 0.25500
H 	H 	0.88710 0.43810 0.33840 -0.03400
O 	O 	0.53725 0.54434 0.29550 -0.46300
O 	O 	0.57442 0.57570 0.01770 -0.39100
C 	C 	0.57083 0.57810 0.20280 0.42300
C 	C 	0.60212 0.62254 0.32240 -0.26400
C 	C 	0.64570 0.65320 0.22640 0.22900
H 	H 	0.65540 0.64470 0.09270 -0.03600
C 	C 	0.67450 0.69620 0.32770 -0.35800
H 	H 	0.70340 0.71660 0.26220 0.17400
C 	C 	0.66070 0.70867 0.52250 0.35600
C 	C 	0.61910 0.67560 0.62410 -0.34300
H 	H 	0.61130 0.68230 0.76080 0.17200
C 	C 	0.59011 0.63389 0.52190 0.24300
H 	H 	0.56190 0.61290 0.58840 -0.03600
O 	O 	0.03725 0.04434 0.79550 -0.52300
O 	O 	0.07442 0.07570 0.51770 -0.41700
C 	C 	0.07083 0.07810 0.70280 0.42100
C 	C 	0.10212 0.12254 0.82240 -0.25700
C 	C 	0.14570 0.15320 0.72640 0.20800
H 	H 	0.15540 0.14470 0.59270 -0.03300
C 	C 	0.17450 0.19620 0.82770 -0.33100
H 	H 	0.20340 0.21660 0.76220 0.16600
C 	C 	0.16070 0.20867 0.02250 0.33100
C 	C 	0.11910 0.17560 0.12410 -0.33400
H 	H 	0.11130 0.18230 0.26080 0.15600
C 	C 	0.09011 0.13389 0.02190 0.21000
H 	H 	0.06190 0.11290 0.08840 -0.05100
O 	O 	0.46275 0.45566 0.29550 -0.46300
O 	O 	0.42558 0.42430 0.01770 -0.39100
C 	C 	0.42917 0.42190 0.20280 0.42400
C 	C 	0.39788 0.37746 0.32240 -0.26500
C 	C 	0.35430 0.34680 0.22640 0.23100
H 	H 	0.34460 0.35530 0.09270 -0.03600
C 	C 	0.32550 0.30380 0.32770 -0.35900
H 	H 	0.29660 0.28340 0.26220 0.17400
C 	C 	0.33930 0.29133 0.52250 0.35800
C 	C 	0.38090 0.32440 0.62410 -0.34500
H 	H 	0.38870 0.31770 0.76080 0.17300
C 	C 	0.40989 0.36611 0.52190 0.24400
H 	H 	0.43810 0.38710 0.58840 -0.03600
O 	O 	0.96275 0.95566 0.79550 -0.36100
O 	O 	0.92558 0.92430 0.51770 -0.32400
C 	C 	0.92917 0.92190 0.70280 0.39100
C 	C 	0.89788 0.87746 0.82240 -0.18300
C 	C 	0.85430 0.84680 0.72640 0.17700
H 	H 	0.84460 0.85530 0.59270 -0.00500
C 	C 	0.82550 0.80380 0.82770 -0.29000
H 	H 	0.79660 0.78340 0.76220 0.15600
C 	C 	0.83930 0.79133 0.02250 0.31300
C 	C 	0.88090 0.82440 0.12410 -0.28300
H 	H 	0.88870 0.81770 0.26080 0.15600
C 	C 	0.90989 0.86611 0.02190 0.17500
H 	H 	0.93810 0.88710 0.08840 0.00800
O 	O 	0.95566 0.03725 0.20450 -0.45600
O 	O 	0.92430 0.07442 0.48230 -0.37200
C 	C 	0.92190 0.07083 0.29720 0.43600
C 	C 	0.87746 0.10212 0.17760 -0.30600
C 	C 	0.84680 0.14570 0.27360 0.27200
H 	H 	0.85530 0.15540 0.40730 -0.04100
C 	C 	0.80380 0.17450 0.17230 -0.41200
H 	H 	0.78340 0.20340 0.23780 0.19400
C 	C 	0.79133 0.16070 0.97750 0.40500
C 	C 	0.82440 0.11910 0.87590 -0.38800
H 	H 	0.81770 0.11130 0.73920 0.17900
C 	C 	0.86611 0.09011 0.97810 0.29900
H 	H 	0.88710 0.06190 0.91160 -0.06100
O 	O 	0.45566 0.53725 0.70450 -0.45700
O 	O 	0.42430 0.57442 0.98230 -0.37100
C 	C 	0.42190 0.57083 0.79720 0.42100
C 	C 	0.37746 0.60212 0.67760 -0.26000
C 	C 	0.34680 0.64570 0.77360 0.23100
H 	H 	0.35530 0.65540 0.90730 -0.02800
C 	C 	0.30380 0.67450 0.67230 -0.36000
H 	H 	0.28340 0.70340 0.73780 0.17800
C 	C 	0.29133 0.66070 0.47750 0.36400
C 	C 	0.32440 0.61910 0.37590 -0.34800
H 	H 	0.31770 0.61130 0.23920 0.16700
C 	C 	0.36611 0.59011 0.47810 0.24300
H 	H 	0.38710 0.56190 0.41160 -0.03900
O 	O 	0.04434 0.96275 0.20450 -0.45600
O 	O 	0.07570 0.92558 0.48230 -0.38200
C 	C 	0.07810 0.92917 0.29720 0.43200
C 	C 	0.12254 0.89788 0.17760 -0.30200
C 	C 	0.15320 0.85430 0.27360 0.26900
H 	H 	0.14470 0.84460 0.40730 -0.05100
C 	C 	0.19620 0.82550 0.17230 -0.41100
H 	H 	0.21660 0.79660 0.23780 0.19100
C 	C 	0.20867 0.83930 0.97750 0.40300
C 	C 	0.17560 0.88090 0.87590 -0.38100
H 	H 	0.18230 0.88870 0.73920 0.18800
C 	C 	0.13389 0.90989 0.97810 0.29100
H 	H 	0.11290 0.93810 0.91160 -0.04000
O 	O 	0.54434 0.46275 0.70450 -0.45700
O 	O 	0.57570 0.42558 0.98230 -0.37100
C 	C 	0.57810 0.42917 0.79720 0.42100
C 	C 	0.62254 0.39788 0.67760 -0.26000
C 	C 	0.65320 0.35430 0.77360 0.23000
H 	H 	0.64470 0.34460 0.90730 -0.02800
C 	C 	0.69620 0.32550 0.67230 -0.35900
H 	H 	0.71660 0.29660 0.73780 0.17900
C 	C 	0.70867 0.33930 0.47750 0.36200
C 	C 	0.67560 0.38090 0.37590 -0.34700
H 	H 	0.68230 0.38870 0.23920 0.16600
C 	C 	0.63389 0.40989 0.47810 0.24100
H 	H 	0.61290 0.43810 0.41160 -0.03900
Cd	Cd	-0.00000 0.50000 0.75000 1.21500
Cd	Cd	0.50000 0.00000 0.25000 1.20900
Cd	Cd	0.50000 0.50000 -0.00000 1.23900
Cd	Cd	0.00000 0.00000 0.50000 1.18400
O 	O 	0.80852 0.75000 0.12500 -0.34000
O 	O 	0.30852 0.25000 0.62500 -0.33500
O 	O 	0.19148 0.25000 0.12500 -0.35200
O 	O 	0.75000 0.19148 0.87500 -0.35000
O 	O 	0.25000 0.69148 0.37500 -0.35800
O 	O 	0.25000 0.80852 0.87500 -0.35000
O 	O 	0.75000 0.30852 0.37500 -0.35300
O 	O 	0.69148 0.75000 0.62500 -0.32900
Li	Li	0.00000 0.50000 0.25000 0.55500
Li	Li	0.50000 0.00000 0.75000 0.55400
Li	Li	0.50000 0.50000 0.50000 0.56300
Li	Li	-0.00000 0.00000 -0.00000 0.54600
