data_crystal

_cell_length_a 11.46000
_cell_length_b 19.96800
_cell_length_c 14.94900
_cell_angle_alpha 90.00000
_cell_angle_beta  99.62800
_cell_angle_gamma 90.00000

_symmetry_space_group_name_	'P 1'
_symmetry_space_group_name_H-M	'P 1'

loop_
_symmetry_equiv_pos_as_xyz
  x,y,z

loop_
_atom_site_label
_atom_site_type_symbol
_atom_site_fract_x
_atom_site_fract_y
_atom_site_fract_z
_atom_site_charge
U 	U 	0.73295 0.53271 0.85591 0.00800
U 	U 	0.24552 0.61347 0.58710 -0.00400
C 	C 	0.67190 0.56320 0.66780 0.34100
C 	C 	0.84490 0.50970 0.49070 0.36200
C 	C 	0.07190 0.73360 0.46970 0.47600
C 	C 	0.88650 0.93110 0.56050 0.35600
C 	C 	0.43080 0.90710 0.46570 0.36200
C 	C 	0.42080 0.75230 0.62570 0.47900
C 	C 	0.65470 0.57250 0.56660 -0.26200
H 	H 	0.64820 0.52890 0.53750 0.14900
H 	H 	0.58120 0.59640 0.54680 0.14600
C 	C 	0.86310 0.57370 0.54280 -0.29000
H 	H 	0.89560 0.56420 0.60570 0.16700
H 	H 	0.91920 0.60160 0.51800 0.15800
C 	C 	0.05560 0.77360 0.55310 -0.33200
H 	H 	0.05940 0.74300 0.60380 0.17100
H 	H 	0.12140 0.80450 0.56720 0.16100
C 	C 	0.94220 0.87920 0.50820 -0.28000
H 	H 	0.89880 0.87790 0.44670 0.16200
H 	H 	0.02250 0.89320 0.50500 0.15600
C 	C 	0.53070 0.87640 0.52860 -0.30100
H 	H 	0.60420 0.89660 0.51820 0.17300
H 	H 	0.52140 0.88620 0.59060 0.17500
C 	C 	0.43460 0.76500 0.52820 -0.32800
H 	H 	0.43840 0.72220 0.49810 0.17100
H 	H 	0.36480 0.78830 0.49780 0.16800
C 	C 	0.75050 0.67790 0.53980 0.18600
C 	C 	0.84290 0.77630 0.53900 0.18200
C 	C 	0.64560 0.77340 0.52920 0.18900
N 	N 	0.85330 0.70910 0.54310 -0.15400
N 	N 	0.74190 0.81150 0.53000 -0.14600
N 	N 	0.64410 0.70660 0.53650 -0.14800
N 	N 	0.75110 0.60930 0.53810 -0.04500
N 	N 	0.94620 0.81150 0.54540 -0.03600
N 	N 	0.53810 0.80380 0.51760 -0.03100
O 	O 	0.60400 0.52415 0.70230 -0.18800
O 	O 	0.75540 0.59300 0.71770 -0.18800
O 	O 	0.88570 0.45555 0.52640 -0.21800
O 	O 	0.78470 0.50920 0.41260 -0.20900
O 	O 	0.14920 0.68658 0.48360 -0.24400
O 	O 	0.01730 0.74810 0.39600 -0.51900
H 	H 	0.97750 0.71590 0.37490 0.29700
O 	O 	0.81620 0.97210 0.51540 -0.20600
O 	O 	0.91140 0.93766 0.64450 -0.19300
O 	O 	0.37320 0.95290 0.49560 -0.20800
O 	O 	0.40260 0.88880 0.38420 -0.19600
O 	O 	0.48150 0.78180 0.68680 -0.52400
H 	H 	0.45020 0.78030 0.73230 0.31200
O 	O 	0.33800 0.71030 0.63680 -0.25800
U 	U 	0.76705 0.03271 0.64409 0.00900
U 	U 	0.25448 0.11347 0.91291 -0.00200
C 	C 	0.82810 0.06320 0.83220 0.34100
C 	C 	0.65510 0.00970 0.00930 0.36100
C 	C 	0.42810 0.23360 0.03030 0.47500
C 	C 	0.61350 0.43110 0.93950 0.35600
C 	C 	0.06920 0.40710 0.03430 0.36100
C 	C 	0.07920 0.25230 0.87430 0.47700
C 	C 	0.84530 0.07250 0.93340 -0.26300
H 	H 	0.85180 0.02890 0.96250 0.15000
H 	H 	0.91880 0.09640 0.95320 0.14600
C 	C 	0.63690 0.07370 0.95720 -0.28800
H 	H 	0.60440 0.06420 0.89430 0.16700
H 	H 	0.58080 0.10160 0.98200 0.15800
C 	C 	0.44440 0.27360 0.94690 -0.33100
H 	H 	0.44060 0.24300 0.89620 0.17000
H 	H 	0.37860 0.30450 0.93280 0.16100
C 	C 	0.55780 0.37920 0.99180 -0.27900
H 	H 	0.60120 0.37790 0.05330 0.16200
H 	H 	0.47750 0.39320 0.99500 0.15600
C 	C 	0.96930 0.37640 0.97140 -0.30000
H 	H 	0.89580 0.39660 0.98180 0.17300
H 	H 	0.97860 0.38620 0.90940 0.17500
C 	C 	0.06540 0.26500 0.97180 -0.32200
H 	H 	0.06160 0.22220 0.00190 0.16800
H 	H 	0.13520 0.28830 0.00220 0.16500
C 	C 	0.74950 0.17790 0.96020 0.18700
C 	C 	0.65710 0.27630 0.96100 0.18300
C 	C 	0.85440 0.27340 0.97080 0.18900
N 	N 	0.64670 0.20910 0.95690 -0.15400
N 	N 	0.75810 0.31150 0.97000 -0.14600
N 	N 	0.85590 0.20660 0.96350 -0.14800
N 	N 	0.74890 0.10930 0.96190 -0.04500
N 	N 	0.55380 0.31150 0.95460 -0.03600
N 	N 	0.96190 0.30380 0.98240 -0.03200
O 	O 	0.89600 0.02415 0.79770 -0.18800
O 	O 	0.74460 0.09300 0.78230 -0.18800
O 	O 	0.61430 0.95555 0.97360 -0.21800
O 	O 	0.71530 0.00920 0.08740 -0.21000
O 	O 	0.35080 0.18658 0.01640 -0.24400
O 	O 	0.48270 0.24810 0.10400 -0.51900
H 	H 	0.52250 0.21590 0.12510 0.29600
O 	O 	0.68380 0.47210 0.98460 -0.20600
O 	O 	0.58860 0.43766 0.85550 -0.19300
O 	O 	0.12680 0.45290 0.00440 -0.20800
O 	O 	0.09740 0.38880 0.11580 -0.19600
O 	O 	0.01850 0.28180 0.81320 -0.52400
H 	H 	0.04980 0.28030 0.76770 0.31100
O 	O 	0.16200 0.21030 0.86320 -0.25700
U 	U 	0.26705 0.46729 0.14409 0.00900
U 	U 	0.75448 0.38653 0.41290 -0.00300
C 	C 	0.32810 0.43680 0.33220 0.34100
C 	C 	0.15510 0.49030 0.50930 0.36200
C 	C 	0.92810 0.26640 0.53030 0.47600
C 	C 	0.11350 0.06890 0.43950 0.35600
C 	C 	0.56920 0.09290 0.53430 0.36200
C 	C 	0.57920 0.24770 0.37430 0.47900
C 	C 	0.34530 0.42750 0.43340 -0.26200
H 	H 	0.35180 0.47110 0.46250 0.14900
H 	H 	0.41880 0.40360 0.45320 0.14600
C 	C 	0.13690 0.42630 0.45720 -0.29000
H 	H 	0.10440 0.43580 0.39430 0.16700
H 	H 	0.08080 0.39840 0.48200 0.15800
C 	C 	0.94440 0.22640 0.44690 -0.33200
H 	H 	0.94060 0.25700 0.39620 0.17100
H 	H 	0.87860 0.19550 0.43280 0.16100
C 	C 	0.05780 0.12080 0.49180 -0.28000
H 	H 	0.10120 0.12210 0.55330 0.16200
H 	H 	0.97750 0.10680 0.49500 0.15600
C 	C 	0.46930 0.12360 0.47140 -0.30100
H 	H 	0.39580 0.10340 0.48180 0.17300
H 	H 	0.47860 0.11380 0.40940 0.17500
C 	C 	0.56540 0.23500 0.47180 -0.32800
H 	H 	0.56160 0.27780 0.50190 0.17100
H 	H 	0.63520 0.21170 0.50220 0.16800
C 	C 	0.24950 0.32210 0.46020 0.18600
C 	C 	0.15710 0.22370 0.46100 0.18200
C 	C 	0.35440 0.22660 0.47080 0.18900
N 	N 	0.14670 0.29090 0.45690 -0.15400
N 	N 	0.25810 0.18850 0.47000 -0.14600
N 	N 	0.35590 0.29340 0.46350 -0.14800
N 	N 	0.24890 0.39070 0.46190 -0.04500
N 	N 	0.05380 0.18850 0.45460 -0.03600
N 	N 	0.46190 0.19620 0.48240 -0.03100
O 	O 	0.39600 0.47585 0.29770 -0.18800
O 	O 	0.24460 0.40700 0.28230 -0.18800
O 	O 	0.11430 0.54445 0.47360 -0.21800
O 	O 	0.21530 0.49080 0.58740 -0.20900
O 	O 	0.85080 0.31342 0.51640 -0.24400
O 	O 	0.98270 0.25190 0.60400 -0.51900
H 	H 	0.02250 0.28410 0.62510 0.29700
O 	O 	0.18380 0.02790 0.48460 -0.20600
O 	O 	0.08860 0.06234 0.35550 -0.19300
O 	O 	0.62680 0.04710 0.50440 -0.20800
O 	O 	0.59740 0.11120 0.61580 -0.19600
O 	O 	0.51850 0.21820 0.31320 -0.52400
H 	H 	0.54980 0.21970 0.26770 0.31200
O 	O 	0.66200 0.28970 0.36320 -0.25800
U 	U 	0.23295 0.96729 0.35591 0.00900
U 	U 	0.74552 0.88653 0.08710 -0.00200
C 	C 	0.17190 0.93680 0.16780 0.34100
C 	C 	0.34490 0.99030 0.99070 0.36100
C 	C 	0.57190 0.76640 0.96970 0.47500
C 	C 	0.38650 0.56890 0.06050 0.35600
C 	C 	0.93080 0.59290 0.96570 0.36100
C 	C 	0.92080 0.74770 0.12570 0.47700
C 	C 	0.15470 0.92750 0.06660 -0.26300
H 	H 	0.14820 0.97110 0.03750 0.15000
H 	H 	0.08120 0.90360 0.04680 0.14600
C 	C 	0.36310 0.92630 0.04280 -0.28800
H 	H 	0.39560 0.93580 0.10570 0.16700
H 	H 	0.41920 0.89840 0.01800 0.15800
C 	C 	0.55560 0.72640 0.05310 -0.33100
H 	H 	0.55940 0.75700 0.10380 0.17000
H 	H 	0.62140 0.69550 0.06720 0.16100
C 	C 	0.44220 0.62080 0.00820 -0.27900
H 	H 	0.39880 0.62210 0.94670 0.16200
H 	H 	0.52250 0.60680 0.00500 0.15600
C 	C 	0.03070 0.62360 0.02860 -0.30000
H 	H 	0.10420 0.60340 0.01820 0.17300
H 	H 	0.02140 0.61380 0.09060 0.17500
C 	C 	0.93460 0.73500 0.02820 -0.32200
H 	H 	0.93840 0.77780 0.99810 0.16800
H 	H 	0.86480 0.71170 0.99780 0.16500
C 	C 	0.25050 0.82210 0.03980 0.18700
C 	C 	0.34290 0.72370 0.03900 0.18300
C 	C 	0.14560 0.72660 0.02920 0.18900
N 	N 	0.35330 0.79090 0.04310 -0.15400
N 	N 	0.24190 0.68850 0.03000 -0.14600
N 	N 	0.14410 0.79340 0.03650 -0.14800
N 	N 	0.25110 0.89070 0.03810 -0.04500
N 	N 	0.44620 0.68850 0.04540 -0.03600
N 	N 	0.03810 0.69620 0.01760 -0.03200
O 	O 	0.10400 0.97585 0.20230 -0.18800
O 	O 	0.25540 0.90700 0.21770 -0.18800
O 	O 	0.38570 0.04445 0.02640 -0.21800
O 	O 	0.28470 0.99080 0.91260 -0.21000
O 	O 	0.64920 0.81342 0.98360 -0.24400
O 	O 	0.51730 0.75190 0.89600 -0.51900
H 	H 	0.47750 0.78410 0.87490 0.29600
O 	O 	0.31620 0.52790 0.01540 -0.20600
O 	O 	0.41140 0.56234 0.14450 -0.19300
O 	O 	0.87320 0.54710 0.99560 -0.20800
O 	O 	0.90260 0.61120 0.88420 -0.19600
O 	O 	0.98150 0.71820 0.18680 -0.52400
H 	H 	0.95020 0.71970 0.23230 0.31100
O 	O 	0.83800 0.78970 0.13680 -0.25700
