data_crystal

_cell_length_a 12.62400
_cell_length_b 15.89100
_cell_length_c 16.58500
_cell_angle_alpha 90.00000
_cell_angle_beta  105.21700
_cell_angle_gamma 90.00000

_symmetry_space_group_name_	'P 1'
_symmetry_space_group_name_H-M	'P 1'

loop_
_symmetry_equiv_pos_as_xyz
  x,y,z

loop_
_atom_site_label
_atom_site_type_symbol
_atom_site_fract_x
_atom_site_fract_y
_atom_site_fract_z
_atom_site_charge
U 	U 	0.34927 0.80168 0.10788 0.01200
U 	U 	0.26393 0.10750 0.23791 0.00600
U 	U 	0.18895 0.47202 0.24602 0.01500
C 	C 	0.27550 0.59130 0.10160 0.33700
C 	C 	0.44640 0.40580 0.23850 0.35000
C 	C 	0.52160 0.18390 0.22230 0.35300
C 	C 	0.35830 0.01120 0.07510 0.34300
C 	C 	0.09440 0.13920 0.84500 0.33600
C 	C 	0.02820 0.38580 0.81450 0.36300
C 	C 	0.30760 0.52190 0.04780 -0.24500
H 	H 	0.24380 0.50830 0.00260 0.13600
H 	H 	0.36330 0.54410 0.02300 0.13000
C 	C 	0.45230 0.44870 0.15690 -0.24900
H 	H 	0.47270 0.50720 0.16830 0.14900
H 	H 	0.50920 0.42190 0.13640 0.13900
C 	C 	0.51950 0.17400 0.13070 -0.25800
H 	H 	0.55080 0.22420 0.11300 0.14800
H 	H 	0.56620 0.12690 0.12560 0.14800
C 	C 	0.39050 0.08150 0.02860 -0.28300
H 	H 	0.45540 0.06510 0.01150 0.14900
H 	H 	0.33200 0.09120 0.97830 0.16200
C 	C 	0.04230 0.18930 0.90340 -0.25200
H 	H 	0.96380 0.19240 0.87820 0.14600
H 	H 	0.05320 0.15840 0.95540 0.14700
C 	C 	0.01290 0.34420 0.89430 -0.25700
H 	H 	0.02500 0.38620 0.93820 0.14100
H 	H 	0.93750 0.32520 0.88390 0.15000
C 	C 	0.18390 0.28440 0.97680 0.19200
C 	C 	0.31250 0.36710 0.06020 0.18700
C 	C 	0.34150 0.22870 0.05340 0.19000
N 	N 	0.24560 0.21490 0.99920 -0.14400
N 	N 	0.37950 0.30200 0.08980 -0.14600
N 	N 	0.21620 0.36400 0.00300 -0.14800
N 	N 	0.34900 0.44480 0.09220 -0.05300
N 	N 	0.08370 0.27480 0.92310 -0.05000
N 	N 	0.41340 0.16040 0.07530 -0.04000
O 	O 	0.27080 0.66440 0.07310 -0.21100
O 	O 	0.25550 0.57090 0.16930 -0.19500
O 	O 	0.35670 0.40320 0.25750 -0.18500
O 	O 	0.53570 0.37910 0.28280 -0.19200
O 	O 	0.60440 0.22220 0.26660 -0.19100
O 	O 	0.44930 0.15150 0.25100 -0.19900
O 	O 	0.31990 0.02530 0.13770 -0.18000
O 	O 	0.36630 0.93640 0.04750 -0.20300
O 	O 	0.05400 0.06800 0.82220 -0.18700
O 	O 	0.17570 0.16300 0.82000 -0.17800
O 	O 	0.11310 0.37140 0.79250 -0.19500
O 	O 	0.95220 0.42860 0.77430 -0.19900
U 	U 	0.65073 0.30168 0.39212 0.01300
U 	U 	0.73607 0.60750 0.26209 0.00700
U 	U 	0.81105 0.97202 0.25398 0.01700
C 	C 	0.72450 0.09130 0.39840 0.33800
C 	C 	0.55360 0.90580 0.26150 0.35100
C 	C 	0.47840 0.68390 0.27770 0.35400
C 	C 	0.64170 0.51120 0.42490 0.34500
C 	C 	0.90560 0.63920 0.65500 0.33700
C 	C 	0.97180 0.88580 0.68550 0.36400
C 	C 	0.69240 0.02190 0.45220 -0.24400
H 	H 	0.75620 0.00830 0.49740 0.13700
H 	H 	0.63670 0.04410 0.47700 0.13100
C 	C 	0.54770 0.94870 0.34310 -0.24800
H 	H 	0.52730 0.00720 0.33170 0.15000
H 	H 	0.49080 0.92190 0.36360 0.13900
C 	C 	0.48050 0.67400 0.36930 -0.25800
H 	H 	0.44920 0.72420 0.38700 0.14800
H 	H 	0.43380 0.62690 0.37440 0.14800
C 	C 	0.60950 0.58150 0.47140 -0.28100
H 	H 	0.54460 0.56510 0.48850 0.14900
H 	H 	0.66800 0.59120 0.52170 0.16100
C 	C 	0.95770 0.68930 0.59660 -0.25100
H 	H 	0.03620 0.69240 0.62180 0.14500
H 	H 	0.94680 0.65840 0.54460 0.14700
C 	C 	0.98710 0.84420 0.60570 -0.25600
H 	H 	0.97500 0.88620 0.56180 0.14100
H 	H 	0.06250 0.82520 0.61610 0.15000
C 	C 	0.81610 0.78440 0.52320 0.19100
C 	C 	0.68750 0.86710 0.43980 0.18700
C 	C 	0.65850 0.72870 0.44660 0.19100
N 	N 	0.75440 0.71490 0.50080 -0.14500
N 	N 	0.62050 0.80200 0.41020 -0.14700
N 	N 	0.78380 0.86400 0.49700 -0.14800
N 	N 	0.65100 0.94480 0.40780 -0.05300
N 	N 	0.91630 0.77480 0.57690 -0.05000
N 	N 	0.58660 0.66040 0.42470 -0.04000
O 	O 	0.72920 0.16440 0.42690 -0.21100
O 	O 	0.74450 0.07090 0.33070 -0.19500
O 	O 	0.64330 0.90320 0.24250 -0.18500
O 	O 	0.46430 0.87910 0.21720 -0.19200
O 	O 	0.39560 0.72220 0.23340 -0.19100
O 	O 	0.55070 0.65150 0.24900 -0.19900
O 	O 	0.68010 0.52530 0.36230 -0.18000
O 	O 	0.63370 0.43640 0.45250 -0.20400
O 	O 	0.94600 0.56800 0.67780 -0.18700
O 	O 	0.82430 0.66300 0.68000 -0.17800
O 	O 	0.88690 0.87140 0.70750 -0.19500
O 	O 	0.04780 0.92860 0.72570 -0.19900
U 	U 	0.65073 0.19832 0.89212 0.01300
U 	U 	0.73607 0.89250 0.76209 0.00700
U 	U 	0.81105 0.52798 0.75398 0.01600
C 	C 	0.72450 0.40870 0.89840 0.33800
C 	C 	0.55360 0.59420 0.76150 0.35100
C 	C 	0.47840 0.81610 0.77770 0.35400
C 	C 	0.64170 0.98880 0.92490 0.34400
C 	C 	0.90560 0.86080 0.15500 0.33700
C 	C 	0.97180 0.61420 0.18550 0.36400
C 	C 	0.69240 0.47810 0.95220 -0.24400
H 	H 	0.75620 0.49170 0.99740 0.13700
H 	H 	0.63670 0.45590 0.97700 0.13100
C 	C 	0.54770 0.55130 0.84310 -0.24800
H 	H 	0.52730 0.49280 0.83170 0.15000
H 	H 	0.49080 0.57810 0.86360 0.13900
C 	C 	0.48050 0.82600 0.86930 -0.25800
H 	H 	0.44920 0.77580 0.88700 0.14800
H 	H 	0.43380 0.87310 0.87440 0.14800
C 	C 	0.60950 0.91850 0.97140 -0.28300
H 	H 	0.54460 0.93490 0.98850 0.14900
H 	H 	0.66800 0.90880 0.02170 0.16200
C 	C 	0.95770 0.81070 0.09660 -0.25200
H 	H 	0.03620 0.80760 0.12180 0.14600
H 	H 	0.94680 0.84160 0.04460 0.14700
C 	C 	0.98710 0.65580 0.10570 -0.25700
H 	H 	0.97500 0.61380 0.06180 0.14100
H 	H 	0.06250 0.67480 0.11610 0.15000
C 	C 	0.81610 0.71560 0.02320 0.19200
C 	C 	0.68750 0.63290 0.93980 0.18700
C 	C 	0.65850 0.77130 0.94660 0.19000
N 	N 	0.75440 0.78510 0.00080 -0.14400
N 	N 	0.62050 0.69800 0.91020 -0.14600
N 	N 	0.78380 0.63600 0.99700 -0.14800
N 	N 	0.65100 0.55520 0.90780 -0.05300
N 	N 	0.91630 0.72520 0.07690 -0.05000
N 	N 	0.58660 0.83960 0.92470 -0.04000
O 	O 	0.72920 0.33560 0.92690 -0.21100
O 	O 	0.74450 0.42910 0.83070 -0.19500
O 	O 	0.64330 0.59680 0.74250 -0.18500
O 	O 	0.46430 0.62090 0.71720 -0.19200
O 	O 	0.39560 0.77780 0.73340 -0.19100
O 	O 	0.55070 0.84850 0.74900 -0.19900
O 	O 	0.68010 0.97470 0.86230 -0.18000
O 	O 	0.63370 0.06360 0.95250 -0.20300
O 	O 	0.94600 0.93200 0.17780 -0.18700
O 	O 	0.82430 0.83700 0.18000 -0.17800
O 	O 	0.88690 0.62860 0.20750 -0.19500
O 	O 	0.04780 0.57140 0.22570 -0.19900
U 	U 	0.34927 0.69832 0.60788 0.01300
U 	U 	0.26393 0.39250 0.73791 0.00700
U 	U 	0.18895 0.02798 0.74602 0.01700
C 	C 	0.27550 0.90870 0.60160 0.33800
C 	C 	0.44640 0.09420 0.73850 0.35100
C 	C 	0.52160 0.31610 0.72230 0.35400
C 	C 	0.35830 0.48880 0.57510 0.34500
C 	C 	0.09440 0.36080 0.34500 0.33700
C 	C 	0.02820 0.11420 0.31450 0.36400
C 	C 	0.30760 0.97810 0.54780 -0.24400
H 	H 	0.24380 0.99170 0.50260 0.13700
H 	H 	0.36330 0.95590 0.52300 0.13100
C 	C 	0.45230 0.05130 0.65690 -0.24800
H 	H 	0.47270 0.99280 0.66830 0.15000
H 	H 	0.50920 0.07810 0.63640 0.13900
C 	C 	0.51950 0.32600 0.63070 -0.25800
H 	H 	0.55080 0.27580 0.61300 0.14800
H 	H 	0.56620 0.37310 0.62560 0.14800
C 	C 	0.39050 0.41850 0.52860 -0.28100
H 	H 	0.45540 0.43490 0.51150 0.14900
H 	H 	0.33200 0.40880 0.47830 0.16100
C 	C 	0.04230 0.31070 0.40340 -0.25100
H 	H 	0.96380 0.30760 0.37820 0.14500
H 	H 	0.05320 0.34160 0.45540 0.14700
C 	C 	0.01290 0.15580 0.39430 -0.25600
H 	H 	0.02500 0.11380 0.43820 0.14100
H 	H 	0.93750 0.17480 0.38390 0.15000
C 	C 	0.18390 0.21560 0.47680 0.19100
C 	C 	0.31250 0.13290 0.56020 0.18700
C 	C 	0.34150 0.27130 0.55340 0.19100
N 	N 	0.24560 0.28510 0.49920 -0.14500
N 	N 	0.37950 0.19800 0.58980 -0.14700
N 	N 	0.21620 0.13600 0.50300 -0.14800
N 	N 	0.34900 0.05520 0.59220 -0.05300
N 	N 	0.08370 0.22520 0.42310 -0.05000
N 	N 	0.41340 0.33960 0.57530 -0.04000
O 	O 	0.27080 0.83560 0.57310 -0.21100
O 	O 	0.25550 0.92910 0.66930 -0.19500
O 	O 	0.35670 0.09680 0.75750 -0.18500
O 	O 	0.53570 0.12090 0.78280 -0.19200
O 	O 	0.60440 0.27780 0.76660 -0.19100
O 	O 	0.44930 0.34850 0.75100 -0.19900
O 	O 	0.31990 0.47470 0.63770 -0.18000
O 	O 	0.36630 0.56360 0.54750 -0.20400
O 	O 	0.05400 0.43200 0.32220 -0.18700
O 	O 	0.17570 0.33700 0.32000 -0.17800
O 	O 	0.11310 0.12860 0.29250 -0.19500
O 	O 	0.95220 0.07140 0.27430 -0.19900
