data_crystal

_cell_length_a 11.47800
_cell_length_b 12.37750
_cell_length_c 25.79400
_cell_angle_alpha 80.25000
_cell_angle_beta  88.09400
_cell_angle_gamma 65.25200

_symmetry_space_group_name_	'P 1'
_symmetry_space_group_name_H-M	'P 1'

loop_
_symmetry_equiv_pos_as_xyz
  x,y,z

loop_
_atom_site_label
_atom_site_type_symbol
_atom_site_fract_x
_atom_site_fract_y
_atom_site_fract_z
_atom_site_charge
C 	C 	0.50710 0.21440 0.36090 0.10700
H 	H 	0.46760 0.29450 0.36570 -0.00600
C 	C 	0.43780 0.14740 0.36950 -0.15100
H 	H 	0.35340 0.18120 0.37980 0.08700
C 	C 	0.49590 0.02540 0.36240 0.06700
C 	C 	0.62250 0.98060 0.34970 -0.14200
H 	H 	0.66660 0.89970 0.34660 0.08300
C 	C 	0.68370 0.05660 0.34160 0.07900
H 	H 	0.76910 0.02560 0.33250 -0.00800
C 	C 	0.42030 0.95250 0.36610 0.05600
C 	C 	0.31700 0.97230 0.39800 -0.14000
H 	H 	0.29460 0.03020 0.41970 0.08200
C 	C 	0.24820 0.90540 0.39710 0.09100
H 	H 	0.17800 0.91980 0.41840 0.01000
C 	C 	0.45390 0.86110 0.33620 -0.12000
H 	H 	0.52620 0.84320 0.31600 0.06800
C 	C 	0.38070 0.79720 0.33640 0.06600
H 	H 	0.40180 0.73800 0.31540 0.02400
C 	C 	0.19830 0.75450 0.36480 0.21600
C 	C 	0.07280 0.81900 0.34700 -0.24800
H 	H 	0.03680 0.90280 0.33890 0.13600
C 	C 	0.00130 0.75370 0.34150 0.15800
H 	H 	0.91530 0.79440 0.33030 -0.01700
C 	C 	0.05680 0.63020 0.35260 -0.20600
C 	C 	0.18110 0.57040 0.37080 0.17000
H 	H 	0.21780 0.48660 0.37900 -0.01100
C 	C 	0.25250 0.63160 0.37710 -0.25600
H 	H 	0.33740 0.59020 0.38960 0.13100
C 	C 	0.98240 0.55890 0.34190 0.41600
C 	C 	0.01100 0.99920 0.06490 0.02000
H 	H 	0.02950 0.94610 0.04110 0.01300
C 	C 	0.07750 0.07270 0.06030 -0.00200
H 	H 	0.13110 0.07270 0.03250 0.04200
C 	C 	0.06340 0.14080 0.09530 0.04600
C 	C 	0.98110 0.13660 0.13820 -0.07300
H 	H 	0.97020 0.18290 0.16430 0.06600
C 	C 	0.92010 0.06360 0.13950 0.02400
H 	H 	0.87150 0.05620 0.16830 0.02000
C 	C 	0.14010 0.21280 0.09590 0.06900
C 	C 	0.25780 0.17750 0.07180 -0.13500
H 	H 	0.28450 0.11330 0.05340 0.08300
C 	C 	0.33400 0.23650 0.07490 0.08800
H 	H 	0.41200 0.21280 0.05840 0.00700
C 	C 	0.17830 0.37140 0.12200 0.09000
H 	H 	0.14970 0.44000 0.13760 0.01400
C 	C 	0.10190 0.31350 0.11950 -0.13900
H 	H 	0.02160 0.34240 0.13410 0.08800
C 	C 	0.39100 0.37620 0.11280 0.17800
C 	C 	0.35240 0.49860 0.11100 -0.20600
H 	H 	0.26830 0.55380 0.10140 0.12600
C 	C 	0.44520 0.53590 0.12420 0.11300
H 	H 	0.42310 0.61770 0.12290 0.01200
C 	C 	0.57090 0.45190 0.13950 -0.16500
C 	C 	0.60390 0.33310 0.13920 0.12700
H 	H 	0.68760 0.27760 0.14920 -0.00700
C 	C 	0.51830 0.29260 0.12460 -0.21900
H 	H 	0.54380 0.21160 0.12260 0.12600
C 	C 	0.66770 0.49330 0.15750 0.36300
C 	C 	0.60570 0.93890 0.15320 0.34400
C 	C 	0.48910 0.98790 0.18420 -0.09900
C 	C 	0.46980 0.08160 0.21160 -0.00300
H 	H 	0.53330 0.10930 0.21290 0.04100
C 	C 	0.35630 0.13360 0.23700 -0.02900
H 	H 	0.34320 0.19800 0.25400 0.05700
C 	C 	0.26150 0.09060 0.23720 -0.06000
C 	C 	0.28320 0.99330 0.21210 -0.03100
H 	H 	0.22210 0.96210 0.21280 0.05500
C 	C 	0.39680 0.94240 0.18560 -0.00800
H 	H 	0.41060 0.87750 0.16890 0.04000
C 	C 	0.14150 0.14780 0.26430 0.33500
C 	C 	0.96750 0.68350 0.18600 0.34200
C 	C 	0.10360 0.63600 0.20790 -0.06600
C 	C 	0.16150 0.71520 0.20700 -0.02700
H 	H 	0.11580 0.79670 0.19330 0.05200
C 	C 	0.28580 0.67370 0.22620 -0.00600
H 	H 	0.32340 0.72750 0.22530 0.04400
C 	C 	0.35690 0.55110 0.24710 -0.08600
C 	C 	0.29830 0.47230 0.24870 -0.00400
H 	H 	0.34380 0.39100 0.26280 0.04600
C 	C 	0.17380 0.51330 0.22950 -0.02600
H 	H 	0.13580 0.45970 0.23090 0.04700
C 	C 	0.49290 0.50670 0.26770 0.38200
C 	C 	0.96510 0.70280 0.05210 0.35500
C 	C 	0.98240 0.59710 0.02510 -0.07200
C 	C 	0.09700 0.53900 0.00090 -0.01800
H 	H 	0.16230 0.56460 0.00160 0.05000
C 	C 	0.88590 0.55710 0.02440 -0.01900
H 	H 	0.80970 0.59460 0.04100 0.04800
C 	C 	0.94400 0.16660 0.40070 0.37000
C 	C 	0.97140 0.08120 0.45310 -0.07500
C 	C 	0.05470 0.08290 0.49080 -0.01900
H 	H 	0.09140 0.13790 0.48440 0.05300
C 	C 	0.08270 0.00190 0.53820 -0.02000
H 	H 	0.13710 0.00320 0.56370 0.05100
C 	C 	0.63200 0.47200 0.40180 0.37600
C 	C 	0.56540 0.48580 0.45310 -0.08100
C 	C 	0.52870 0.59200 0.47320 -0.01900
H 	H 	0.54780 0.65420 0.45540 0.05500
C 	C 	0.53660 0.39410 0.48030 -0.01700
H 	H 	0.56130 0.32250 0.46720 0.05000
N 	N 	0.27670 0.82070 0.36740 -0.16300
N 	N 	0.62520 0.17340 0.34638 -0.23800
N 	N 	0.92770 0.99810 0.09860 -0.24100
N 	N 	0.29610 0.32930 0.10190 -0.15900
O 	O 	0.04770 0.44790 0.34306 -0.48400
O 	O 	0.86340 0.61320 0.33304 -0.44100
O 	O 	0.76890 0.41560 0.18233 -0.34200
O 	O 	0.63950 0.60460 0.14744 -0.46500
O 	O 	0.67050 0.99910 0.14245 -0.43900
O 	O 	0.63420 0.84210 0.13591 -0.49900
O 	O 	0.12570 0.24320 0.28162 -0.45900
O 	O 	0.06270 0.10180 0.26800 -0.30000
O 	O 	0.90520 0.79470 0.17387 -0.46200
O 	O 	0.92530 0.60480 0.18191 -0.47500
O 	O 	0.53020 0.58430 0.27699 -0.44500
O 	O 	0.55870 0.39430 0.27505 -0.46500
O 	O 	0.85510 0.76700 0.06270 -0.48100
O 	O 	0.06210 0.71830 0.06120 -0.31000
O 	O 	0.87700 0.15580 0.36676 -0.47100
O 	O 	0.99660 0.23900 0.39540 -0.47200
O 	O 	0.65680 0.37560 0.38468 -0.46600
O 	O 	0.65270 0.56010 0.37818 -0.46300
O 	O 	0.81780 0.40270 0.29203 -0.79900
H 	H 	0.84160 0.42110 0.25740 0.17600
O 	O 	0.69020 0.70420 0.24971 -0.68300
H 	H 	0.71940 0.76260 0.25050 0.21300
O 	O 	0.71630 0.02050 0.03050 -0.41700
H 	H 	0.64030 0.01140 0.03110 0.17400
Zn	Zn	0.98956 0.33149 0.32507 1.22500
Zn	Zn	0.70734 0.56975 0.30506 1.22800
Zn	Zn	0.72004 0.29026 0.32037 1.21100
Zn	Zn	0.81856 0.90064 0.10000 1.22700
Zn	Zn	0.73408 0.67784 0.17784 1.22400
H 	H 	0.88090 0.28200 0.08160 0.06200
C 	C 	0.92560 0.19840 0.08810 -0.07500
C 	C 	0.86200 0.12270 0.09140 0.02600
H 	H 	0.77320 0.15720 0.08860 0.02000
C 	C 	0.12700 0.01700 0.08900 -0.12000
H 	H 	0.21450 0.98050 0.08430 0.07700
C 	C 	0.04800 0.95100 0.09020 0.03900
H 	H 	0.08590 0.87170 0.08470 0.01800
C 	C 	0.49290 0.78560 0.63910 0.10600
H 	H 	0.53240 0.70550 0.63430 -0.00700
C 	C 	0.56220 0.85260 0.63050 -0.15200
H 	H 	0.64660 0.81880 0.62020 0.08600
C 	C 	0.50410 0.97460 0.63760 0.06600
C 	C 	0.37750 0.01940 0.65030 -0.14300
H 	H 	0.33340 0.10030 0.65340 0.08200
C 	C 	0.31630 0.94340 0.65840 0.07800
H 	H 	0.23090 0.97440 0.66750 -0.00900
C 	C 	0.57970 0.04750 0.63390 0.05500
C 	C 	0.68300 0.02770 0.60200 -0.14000
H 	H 	0.70540 0.96980 0.58030 0.08200
C 	C 	0.75180 0.09460 0.60290 0.09100
H 	H 	0.82200 0.08020 0.58160 0.01000
C 	C 	0.54610 0.13890 0.66380 -0.12000
H 	H 	0.47380 0.15680 0.68400 0.06800
C 	C 	0.61930 0.20280 0.66360 0.06600
H 	H 	0.59820 0.26200 0.68460 0.02400
C 	C 	0.80170 0.24550 0.63520 0.21600
C 	C 	0.92720 0.18100 0.65300 -0.24800
H 	H 	0.96320 0.09720 0.66110 0.13600
C 	C 	0.99870 0.24630 0.65850 0.15800
H 	H 	0.08470 0.20560 0.66970 -0.01700
C 	C 	0.94320 0.36980 0.64740 -0.20600
C 	C 	0.81890 0.42960 0.62920 0.17000
H 	H 	0.78220 0.51340 0.62100 -0.01100
C 	C 	0.74750 0.36840 0.62290 -0.25600
H 	H 	0.66260 0.40980 0.61040 0.13100
C 	C 	0.01760 0.44110 0.65810 0.41600
C 	C 	0.98900 0.00080 0.93510 0.02000
H 	H 	0.97050 0.05390 0.95890 0.01300
C 	C 	0.92250 0.92730 0.93970 -0.00200
H 	H 	0.86890 0.92730 0.96750 0.04200
C 	C 	0.93660 0.85920 0.90470 0.04600
C 	C 	0.01890 0.86340 0.86180 -0.07300
H 	H 	0.02980 0.81710 0.83570 0.06600
C 	C 	0.07990 0.93640 0.86050 0.02400
H 	H 	0.12850 0.94380 0.83170 0.02000
C 	C 	0.85990 0.78720 0.90410 0.06900
C 	C 	0.74220 0.82250 0.92820 -0.13500
H 	H 	0.71550 0.88670 0.94660 0.08300
C 	C 	0.66600 0.76350 0.92510 0.08800
H 	H 	0.58800 0.78720 0.94160 0.00700
C 	C 	0.82170 0.62860 0.87800 0.09000
H 	H 	0.85030 0.56000 0.86240 0.01400
C 	C 	0.89810 0.68650 0.88050 -0.13900
H 	H 	0.97840 0.65760 0.86590 0.08800
C 	C 	0.60900 0.62380 0.88720 0.17800
C 	C 	0.64760 0.50140 0.88900 -0.20600
H 	H 	0.73170 0.44620 0.89860 0.12600
C 	C 	0.55480 0.46410 0.87580 0.11300
H 	H 	0.57690 0.38230 0.87710 0.01200
C 	C 	0.42910 0.54810 0.86050 -0.16500
C 	C 	0.39610 0.66690 0.86080 0.12700
H 	H 	0.31240 0.72240 0.85080 -0.00700
C 	C 	0.48170 0.70740 0.87540 -0.21900
H 	H 	0.45620 0.78840 0.87740 0.12600
C 	C 	0.33230 0.50670 0.84250 0.36300
C 	C 	0.39430 0.06110 0.84680 0.34400
C 	C 	0.51090 0.01210 0.81580 -0.09900
C 	C 	0.53020 0.91840 0.78840 -0.00300
H 	H 	0.46670 0.89070 0.78710 0.04100
C 	C 	0.64370 0.86640 0.76300 -0.02900
H 	H 	0.65680 0.80200 0.74600 0.05700
C 	C 	0.73850 0.90940 0.76280 -0.06000
C 	C 	0.71680 0.00670 0.78790 -0.03100
H 	H 	0.77790 0.03790 0.78720 0.05500
C 	C 	0.60320 0.05760 0.81440 -0.00800
H 	H 	0.58940 0.12250 0.83110 0.04000
C 	C 	0.85850 0.85220 0.73570 0.33500
C 	C 	0.03250 0.31650 0.81400 0.34200
C 	C 	0.89640 0.36400 0.79210 -0.06600
C 	C 	0.83850 0.28480 0.79300 -0.02700
H 	H 	0.88420 0.20330 0.80670 0.05200
C 	C 	0.71420 0.32630 0.77380 -0.00600
H 	H 	0.67660 0.27250 0.77470 0.04400
C 	C 	0.64310 0.44890 0.75290 -0.08600
C 	C 	0.70170 0.52770 0.75130 -0.00400
H 	H 	0.65620 0.60900 0.73720 0.04600
C 	C 	0.82620 0.48670 0.77050 -0.02600
H 	H 	0.86420 0.54030 0.76910 0.04700
C 	C 	0.50710 0.49330 0.73230 0.38200
C 	C 	0.03490 0.29720 0.94790 0.35500
C 	C 	0.01760 0.40290 0.97490 -0.07200
C 	C 	0.90300 0.46100 0.99910 -0.01800
H 	H 	0.83770 0.43540 0.99840 0.05000
C 	C 	0.11410 0.44290 0.97560 -0.01900
H 	H 	0.19030 0.40540 0.95900 0.04800
C 	C 	0.05600 0.83340 0.59930 0.37000
C 	C 	0.02860 0.91880 0.54690 -0.07500
C 	C 	0.94530 0.91710 0.50920 -0.01900
H 	H 	0.90860 0.86210 0.51560 0.05300
C 	C 	0.91730 0.99810 0.46180 -0.02000
H 	H 	0.86290 0.99680 0.43630 0.05100
C 	C 	0.36800 0.52800 0.59820 0.37600
C 	C 	0.43460 0.51420 0.54690 -0.08100
C 	C 	0.47130 0.40800 0.52680 -0.01900
H 	H 	0.45220 0.34580 0.54460 0.05500
C 	C 	0.46340 0.60590 0.51970 -0.01700
H 	H 	0.43870 0.67750 0.53280 0.05000
N 	N 	0.72330 0.17930 0.63260 -0.16300
N 	N 	0.37480 0.82660 0.65362 -0.23800
N 	N 	0.07230 0.00190 0.90140 -0.24100
N 	N 	0.70390 0.67070 0.89810 -0.15900
O 	O 	0.95230 0.55210 0.65694 -0.48400
O 	O 	0.13660 0.38680 0.66696 -0.44100
O 	O 	0.23110 0.58440 0.81767 -0.34200
O 	O 	0.36050 0.39540 0.85256 -0.46500
O 	O 	0.32950 0.00090 0.85755 -0.43900
O 	O 	0.36580 0.15790 0.86409 -0.49900
O 	O 	0.87430 0.75680 0.71838 -0.45900
O 	O 	0.93730 0.89820 0.73200 -0.30000
O 	O 	0.09480 0.20530 0.82613 -0.46200
O 	O 	0.07470 0.39520 0.81809 -0.47500
O 	O 	0.46980 0.41570 0.72301 -0.44500
O 	O 	0.44130 0.60570 0.72495 -0.46500
O 	O 	0.14490 0.23300 0.93730 -0.48100
O 	O 	0.93790 0.28170 0.93880 -0.31000
O 	O 	0.12300 0.84420 0.63324 -0.47100
O 	O 	0.00340 0.76100 0.60460 -0.47200
O 	O 	0.34320 0.62440 0.61532 -0.46600
O 	O 	0.34730 0.43990 0.62182 -0.46300
O 	O 	0.18220 0.59730 0.70797 -0.79900
H 	H 	0.15840 0.57890 0.74260 0.17600
O 	O 	0.30980 0.29580 0.75029 -0.68300
H 	H 	0.28060 0.23740 0.74950 0.21300
O 	O 	0.28370 0.97950 0.96950 -0.41700
H 	H 	0.35970 0.98860 0.96890 0.17400
Zn	Zn	0.01044 0.66851 0.67493 1.22500
Zn	Zn	0.29266 0.43025 0.69494 1.22800
Zn	Zn	0.27996 0.70974 0.67963 1.21100
Zn	Zn	0.18144 0.09936 0.90000 1.22700
Zn	Zn	0.26592 0.32216 0.82216 1.22400
H 	H 	0.11910 0.71800 0.91840 0.06200
C 	C 	0.07440 0.80160 0.91190 -0.07500
C 	C 	0.13800 0.87730 0.90860 0.02600
H 	H 	0.22680 0.84280 0.91140 0.02000
C 	C 	0.87300 0.98300 0.91100 -0.12000
H 	H 	0.78550 0.01950 0.91570 0.07700
C 	C 	0.95200 0.04900 0.90980 0.03900
H 	H 	0.91410 0.12830 0.91530 0.01800
