data_crystal

_cell_length_a 11.49700
_cell_length_b 33.54200
_cell_length_c 12.10600
_cell_angle_alpha 90.00000
_cell_angle_beta  116.84000
_cell_angle_gamma 90.00000

_symmetry_space_group_name_	'P 1'
_symmetry_space_group_name_H-M	'P 1'

loop_
_symmetry_equiv_pos_as_xyz
  x,y,z

loop_
_atom_site_label
_atom_site_type_symbol
_atom_site_fract_x
_atom_site_fract_y
_atom_site_fract_z
_atom_site_charge
C 	C 	0.97320 0.11260 0.68170 0.07800
H 	H 	0.01140 0.10700 0.76610 0.00900
C 	C 	0.04810 0.10860 0.61950 -0.12900
H 	H 	0.13490 0.10080 0.66100 0.08400
C 	C 	0.99080 0.11650 0.49480 0.05800
C 	C 	0.86360 0.12760 0.43640 -0.13500
H 	H 	0.82290 0.13270 0.35180 0.06100
C 	C 	0.79570 0.13140 0.50600 0.07200
H 	H 	0.70900 0.13950 0.46630 -0.02100
C 	C 	0.07000 0.11480 0.42250 0.06000
C 	C 	0.16660 0.08630 0.44730 -0.13300
H 	H 	0.18630 0.06780 0.51040 0.08000
C 	C 	0.23250 0.08610 0.37600 0.08000
H 	H 	0.29380 0.06630 0.38870 0.01200
C 	C 	0.11830 0.14220 0.26730 0.07300
H 	H 	0.10290 0.16160 0.20730 0.01700
C 	C 	0.04750 0.14270 0.33230 -0.12700
H 	H 	0.98370 0.16210 0.31530 0.05100
C 	C 	0.28360 0.11460 0.21650 0.19300
H 	H 	0.64900 0.18010 0.83720 0.31700
C 	C 	0.41680 0.11040 0.27770 -0.22300
H 	H 	0.46070 0.10730 0.36310 0.12400
C 	C 	0.48320 0.11120 0.20500 0.12300
H 	H 	0.57330 0.10820 0.24220 -0.00600
C 	C 	0.41560 0.11630 0.07830 -0.18800
C 	C 	0.28320 0.12030 0.02140 0.12300
H 	H 	0.23900 0.12400 0.93620 0.00700
C 	C 	0.21390 0.11890 0.09120 -0.21800
H 	H 	0.12350 0.12090 0.05360 0.11700
C 	C 	0.48610 0.11950 0.99770 0.42600
C 	C 	0.31840 0.18230 0.55910 0.32400
C 	C 	0.21620 0.21450 0.52280 -0.04900
C 	C 	0.14570 0.21920 0.59030 -0.05800
H 	H 	0.15850 0.20190 0.65470 0.06200
C 	C 	0.05660 0.25000 0.56000 0.01500
H 	H 	0.01020 0.25350 0.60540 0.02100
C 	C 	0.03550 0.27574 0.46350 -0.12300
C 	C 	0.10370 0.26970 0.39350 0.00900
H 	H 	0.08750 0.28600 0.32580 0.03300
C 	C 	0.19450 0.23970 0.42550 -0.05500
H 	H 	0.24190 0.23640 0.38090 0.05400
C 	C 	0.93980 0.30906 0.43180 0.40500
C 	C 	0.53500 0.07371 0.63320 0.36500
C 	C 	0.51920 0.03532 0.56690 -0.08000
C 	C 	0.43480 0.00619 0.57090 -0.01700
H 	H 	0.39130 0.01040 0.61860 0.05200
C 	C 	0.58510 0.02875 0.49510 -0.02000
H 	H 	0.64190 0.04790 0.49210 0.04800
C 	C 	0.86550 0.07688 0.94850 0.36400
C 	C 	0.93700 0.03710 0.97700 -0.07100
C 	C 	0.99730 0.02180 0.09580 -0.01200
H 	H 	0.99560 0.03620 0.16070 0.05200
C 	C 	0.93990 0.01470 0.88050 -0.02200
H 	H 	0.89930 0.02440 0.79990 0.05300
N 	N 	0.84890 0.12398 0.62630 -0.23800
N 	N 	0.20990 0.11419 0.28810 -0.15500
O 	O 	0.60680 0.11776 0.04860 -0.48000
O 	O 	0.41330 0.12250 0.88560 -0.49300
O 	O 	0.33040 0.16151 0.65090 -0.46400
O 	O 	0.38070 0.17762 0.49840 -0.30500
O 	O 	0.91320 0.32093 0.51570 -0.49900
O 	O 	0.89600 0.32267 0.32510 -0.49800
O 	O 	0.59370 0.10164 0.61030 -0.47400
O 	O 	0.48330 0.07616 0.70550 -0.46700
O 	O 	0.82630 0.08962 0.84200 -0.46200
O 	O 	0.85190 0.09381 0.03830 -0.45200
O 	O 	0.64520 0.15645 0.83330 -0.98000
Zn	Zn	0.74584 0.13947 0.73011 1.20600
Zn	Zn	0.47635 0.13019 0.76194 1.23200
Zn	Zn	0.75869 0.14582 0.01157 1.19500
C 	C 	0.02680 0.61260 0.81830 0.08900
H 	H 	0.98860 0.60700 0.73390 0.00200
C 	C 	0.95190 0.60860 0.88050 -0.14200
H 	H 	0.86510 0.60080 0.83900 0.08700
C 	C 	0.00920 0.61650 0.00520 0.06400
C 	C 	0.13640 0.62760 0.06360 -0.14200
H 	H 	0.17710 0.63270 0.14820 0.06400
C 	C 	0.20430 0.63140 0.99400 0.07700
H 	H 	0.29100 0.63950 0.03370 -0.02300
C 	C 	0.93000 0.61480 0.07750 0.05500
C 	C 	0.83340 0.58630 0.05270 -0.12500
H 	H 	0.81370 0.56780 0.98960 0.07600
C 	C 	0.76750 0.58610 0.12400 0.07700
H 	H 	0.70620 0.56630 0.11130 0.01400
C 	C 	0.88170 0.64220 0.23270 0.06800
H 	H 	0.89710 0.66160 0.29270 0.01900
C 	C 	0.95250 0.64270 0.16770 -0.11800
H 	H 	0.01630 0.66210 0.18470 0.04600
C 	C 	0.71640 0.61460 0.28350 0.19400
H 	H 	0.35100 0.68010 0.66280 0.31700
C 	C 	0.58320 0.61040 0.22230 -0.22400
H 	H 	0.53930 0.60730 0.13690 0.12500
C 	C 	0.51680 0.61120 0.29500 0.12400
H 	H 	0.42670 0.60820 0.25780 -0.00700
C 	C 	0.58440 0.61630 0.42170 -0.19000
C 	C 	0.71680 0.62030 0.47860 0.12700
H 	H 	0.76100 0.62400 0.56380 0.00400
C 	C 	0.78610 0.61890 0.40880 -0.22000
H 	H 	0.87650 0.62090 0.44640 0.11900
C 	C 	0.51390 0.61950 0.50230 0.42500
C 	C 	0.68160 0.68230 0.94090 0.32500
C 	C 	0.78380 0.71450 0.97720 -0.05800
C 	C 	0.85430 0.71920 0.90970 -0.04900
H 	H 	0.84150 0.70190 0.84530 0.05900
C 	C 	0.94340 0.75000 0.94000 0.00200
H 	H 	0.98980 0.75350 0.89460 0.02500
C 	C 	0.96450 0.77574 0.03650 -0.11000
C 	C 	0.89630 0.76970 0.10650 -0.00100
H 	H 	0.91250 0.78600 0.17420 0.03700
C 	C 	0.80550 0.73970 0.07450 -0.04400
H 	H 	0.75810 0.73640 0.11910 0.05000
C 	C 	0.06020 0.80906 0.06820 0.39800
C 	C 	0.46500 0.57371 0.86680 0.36500
C 	C 	0.48080 0.53532 0.93310 -0.08000
C 	C 	0.56520 0.50619 0.92910 -0.01700
H 	H 	0.60870 0.51040 0.88140 0.05200
C 	C 	0.41490 0.52875 0.00490 -0.01900
H 	H 	0.35810 0.54790 0.00790 0.04800
C 	C 	0.13450 0.57688 0.55150 0.36500
C 	C 	0.06300 0.53710 0.52300 -0.06900
C 	C 	0.00270 0.52180 0.40420 -0.01800
H 	H 	0.00440 0.53620 0.33930 0.05400
C 	C 	0.06010 0.51470 0.61950 -0.01800
H 	H 	0.10070 0.52440 0.70010 0.05200
N 	N 	0.15110 0.62398 0.87370 -0.24000
N 	N 	0.79010 0.61419 0.21190 -0.15400
O 	O 	0.39320 0.61776 0.45140 -0.48000
O 	O 	0.58670 0.62250 0.61440 -0.49300
O 	O 	0.66960 0.66151 0.84910 -0.46500
O 	O 	0.61930 0.67762 0.00160 -0.30400
O 	O 	0.08680 0.82093 0.98430 -0.49500
O 	O 	0.10400 0.82267 0.17490 -0.49700
O 	O 	0.40630 0.60164 0.88970 -0.47400
O 	O 	0.51670 0.57616 0.79450 -0.46700
O 	O 	0.17370 0.58962 0.65800 -0.46100
O 	O 	0.14810 0.59381 0.46170 -0.45300
O 	O 	0.35480 0.65645 0.66670 -0.98000
Zn	Zn	0.25416 0.63947 0.76989 1.20600
Zn	Zn	0.52365 0.63019 0.73806 1.23200
Zn	Zn	0.24131 0.64582 0.48843 1.19500
C 	C 	0.02680 0.88740 0.31830 0.07700
H 	H 	0.98860 0.89300 0.23390 0.00800
C 	C 	0.95190 0.89140 0.38050 -0.13000
H 	H 	0.86510 0.89920 0.33900 0.08300
C 	C 	0.00920 0.88350 0.50520 0.05800
C 	C 	0.13640 0.87240 0.56360 -0.13500
H 	H 	0.17710 0.86730 0.64820 0.06100
C 	C 	0.20430 0.86860 0.49400 0.07200
H 	H 	0.29100 0.86050 0.53370 -0.02100
C 	C 	0.93000 0.88520 0.57750 0.06000
C 	C 	0.83340 0.91370 0.55270 -0.13300
H 	H 	0.81370 0.93220 0.48960 0.08000
C 	C 	0.76750 0.91390 0.62400 0.08000
H 	H 	0.70620 0.93370 0.61130 0.01200
C 	C 	0.88170 0.85780 0.73270 0.07300
H 	H 	0.89710 0.83840 0.79270 0.01700
C 	C 	0.95250 0.85730 0.66770 -0.12700
H 	H 	0.01630 0.83790 0.68470 0.05100
C 	C 	0.71640 0.88540 0.78350 0.19300
H 	H 	0.35100 0.81990 0.16280 0.31700
C 	C 	0.58320 0.88960 0.72230 -0.22300
H 	H 	0.53930 0.89270 0.63690 0.12400
C 	C 	0.51680 0.88880 0.79500 0.12300
H 	H 	0.42670 0.89180 0.75780 -0.00600
C 	C 	0.58440 0.88370 0.92170 -0.18800
C 	C 	0.71680 0.87970 0.97860 0.12300
H 	H 	0.76100 0.87600 0.06380 0.00700
C 	C 	0.78610 0.88110 0.90880 -0.21800
H 	H 	0.87650 0.87910 0.94640 0.11700
C 	C 	0.51390 0.88050 0.00230 0.42600
C 	C 	0.68160 0.81770 0.44090 0.32400
C 	C 	0.78380 0.78550 0.47720 -0.04900
C 	C 	0.85430 0.78080 0.40970 -0.05800
H 	H 	0.84150 0.79810 0.34530 0.06200
C 	C 	0.94340 0.75000 0.44000 0.01500
H 	H 	0.98980 0.74650 0.39460 0.02100
C 	C 	0.96450 0.72426 0.53650 -0.12300
C 	C 	0.89630 0.73030 0.60650 0.00900
H 	H 	0.91250 0.71400 0.67420 0.03300
C 	C 	0.80550 0.76030 0.57450 -0.05500
H 	H 	0.75810 0.76360 0.61910 0.05400
C 	C 	0.06020 0.69094 0.56820 0.40500
C 	C 	0.46500 0.92629 0.36680 0.36500
C 	C 	0.48080 0.96468 0.43310 -0.08000
C 	C 	0.56520 0.99381 0.42910 -0.01700
H 	H 	0.60870 0.98960 0.38140 0.05200
C 	C 	0.41490 0.97125 0.50490 -0.02000
H 	H 	0.35810 0.95210 0.50790 0.04800
C 	C 	0.13450 0.92312 0.05150 0.36400
C 	C 	0.06300 0.96290 0.02300 -0.07100
C 	C 	0.00270 0.97820 0.90420 -0.01200
H 	H 	0.00440 0.96380 0.83930 0.05200
C 	C 	0.06010 0.98530 0.11950 -0.02200
H 	H 	0.10070 0.97560 0.20010 0.05300
N 	N 	0.15110 0.87602 0.37370 -0.23800
N 	N 	0.79010 0.88581 0.71190 -0.15500
O 	O 	0.39320 0.88224 0.95140 -0.48000
O 	O 	0.58670 0.87750 0.11440 -0.49300
O 	O 	0.66960 0.83849 0.34910 -0.46400
O 	O 	0.61930 0.82238 0.50160 -0.30500
O 	O 	0.08680 0.67907 0.48430 -0.49900
O 	O 	0.10400 0.67733 0.67490 -0.49800
O 	O 	0.40630 0.89836 0.38970 -0.47400
O 	O 	0.51670 0.92384 0.29450 -0.46700
O 	O 	0.17370 0.91038 0.15800 -0.46200
O 	O 	0.14810 0.90619 0.96170 -0.45200
O 	O 	0.35480 0.84355 0.16670 -0.98000
Zn	Zn	0.25416 0.86053 0.26989 1.20600
Zn	Zn	0.52365 0.86981 0.23806 1.23200
Zn	Zn	0.24131 0.85418 0.98843 1.19500
C 	C 	0.97320 0.38740 0.18170 0.08900
H 	H 	0.01140 0.39300 0.26610 0.00200
C 	C 	0.04810 0.39140 0.11950 -0.14200
H 	H 	0.13490 0.39920 0.16100 0.08700
C 	C 	0.99080 0.38350 0.99480 0.06400
C 	C 	0.86360 0.37240 0.93640 -0.14200
H 	H 	0.82290 0.36730 0.85180 0.06400
C 	C 	0.79570 0.36860 0.00600 0.07700
H 	H 	0.70900 0.36050 0.96630 -0.02300
C 	C 	0.07000 0.38520 0.92250 0.05500
C 	C 	0.16660 0.41370 0.94730 -0.12500
H 	H 	0.18630 0.43220 0.01040 0.07600
C 	C 	0.23250 0.41390 0.87600 0.07700
H 	H 	0.29380 0.43370 0.88870 0.01400
C 	C 	0.11830 0.35780 0.76730 0.06800
H 	H 	0.10290 0.33840 0.70730 0.01900
C 	C 	0.04750 0.35730 0.83230 -0.11800
H 	H 	0.98370 0.33790 0.81530 0.04600
C 	C 	0.28360 0.38540 0.71650 0.19400
H 	H 	0.64900 0.31990 0.33720 0.31700
C 	C 	0.41680 0.38960 0.77770 -0.22400
H 	H 	0.46070 0.39270 0.86310 0.12500
C 	C 	0.48320 0.38880 0.70500 0.12400
H 	H 	0.57330 0.39180 0.74220 -0.00700
C 	C 	0.41560 0.38370 0.57830 -0.19000
C 	C 	0.28320 0.37970 0.52140 0.12700
H 	H 	0.23900 0.37600 0.43620 0.00400
C 	C 	0.21390 0.38110 0.59120 -0.22000
H 	H 	0.12350 0.37910 0.55360 0.11900
C 	C 	0.48610 0.38050 0.49770 0.42500
C 	C 	0.31840 0.31770 0.05910 0.32500
C 	C 	0.21620 0.28550 0.02280 -0.05800
C 	C 	0.14570 0.28080 0.09030 -0.04900
H 	H 	0.15850 0.29810 0.15470 0.05900
C 	C 	0.05660 0.25000 0.06000 0.00200
H 	H 	0.01020 0.24650 0.10540 0.02500
C 	C 	0.03550 0.22426 0.96350 -0.11000
C 	C 	0.10370 0.23030 0.89350 -0.00100
H 	H 	0.08750 0.21400 0.82580 0.03700
C 	C 	0.19450 0.26030 0.92550 -0.04400
H 	H 	0.24190 0.26360 0.88090 0.05000
C 	C 	0.93980 0.19094 0.93180 0.39800
C 	C 	0.53500 0.42629 0.13320 0.36500
C 	C 	0.51920 0.46468 0.06690 -0.08000
C 	C 	0.43480 0.49381 0.07090 -0.01700
H 	H 	0.39130 0.48960 0.11860 0.05200
C 	C 	0.58510 0.47125 0.99510 -0.01900
H 	H 	0.64190 0.45210 0.99210 0.04800
C 	C 	0.86550 0.42312 0.44850 0.36500
C 	C 	0.93700 0.46290 0.47700 -0.06900
C 	C 	0.99730 0.47820 0.59580 -0.01800
H 	H 	0.99560 0.46380 0.66070 0.05400
C 	C 	0.93990 0.48530 0.38050 -0.01800
H 	H 	0.89930 0.47560 0.29990 0.05200
N 	N 	0.84890 0.37602 0.12630 -0.24000
N 	N 	0.20990 0.38581 0.78810 -0.15400
O 	O 	0.60680 0.38224 0.54860 -0.48000
O 	O 	0.41330 0.37750 0.38560 -0.49300
O 	O 	0.33040 0.33849 0.15090 -0.46500
O 	O 	0.38070 0.32238 0.99840 -0.30400
O 	O 	0.91320 0.17907 0.01570 -0.49500
O 	O 	0.89600 0.17733 0.82510 -0.49700
O 	O 	0.59370 0.39836 0.11030 -0.47400
O 	O 	0.48330 0.42384 0.20550 -0.46700
O 	O 	0.82630 0.41038 0.34200 -0.46100
O 	O 	0.85190 0.40619 0.53830 -0.45300
O 	O 	0.64520 0.34355 0.33330 -0.98000
Zn	Zn	0.74584 0.36053 0.23011 1.20600
Zn	Zn	0.47635 0.36981 0.26194 1.23200
Zn	Zn	0.75869 0.35418 0.51157 1.19500
