data_crystal

_cell_length_a 7.45200
_cell_length_b 14.58600
_cell_length_c 16.47200
_cell_angle_alpha 90.00000
_cell_angle_beta  90.00000
_cell_angle_gamma 95.46000

_symmetry_space_group_name_	'P 1'
_symmetry_space_group_name_H-M	'P 1'

loop_
_symmetry_equiv_pos_as_xyz
  x,y,z

loop_
_atom_site_label
_atom_site_type_symbol
_atom_site_fract_x
_atom_site_fract_y
_atom_site_fract_z
_atom_site_charge
Co	Co	0.20900 0.67611 0.48647 1.15300
Co	Co	0.18871 0.47251 0.37216 1.15700
Co	Co	0.29100 0.82389 0.98647 1.17800
Co	Co	0.31129 0.02749 0.87216 1.13000
Co	Co	0.79100 0.32389 0.51353 1.15500
Co	Co	0.81129 0.52749 0.62784 1.16700
Co	Co	0.70900 0.17611 0.01353 1.13400
Co	Co	0.68871 0.97251 0.12784 1.19200
Co	Co	0.50000 0.50000 0.50000 1.17500
Co	Co	-0.00000 0.00000 -0.00000 1.11200
H 	H 	0.83700 0.49020 0.47590 0.17500
H 	H 	0.43210 0.66960 0.20510 0.05100
H 	H 	0.05050 0.72590 0.22500 -0.00400
H 	H 	0.66300 0.00980 0.97590 0.19300
H 	H 	0.06790 0.83040 0.70510 0.02000
H 	H 	0.44950 0.77410 0.72500 0.03900
H 	H 	0.16300 0.50980 0.52410 0.16500
H 	H 	0.56790 0.33040 0.79490 0.04500
H 	H 	0.94950 0.27410 0.77500 0.07500
H 	H 	0.33700 0.99020 0.02410 0.14300
H 	H 	0.93210 0.16960 0.29490 0.09000
H 	H 	0.55050 0.22590 0.27500 0.02300
C 	C 	0.83270 0.66320 0.28050 -0.10100
C 	C 	0.64670 0.64580 0.27560 -0.04100
C 	C 	0.55610 0.68330 0.21010 -0.01600
C 	C 	0.64740 0.74020 0.15270 -0.06300
C 	C 	0.83550 0.75600 0.15870 -0.12500
C 	C 	0.92550 0.71630 0.22210 0.08700
C 	C 	0.94370 0.62580 0.34660 0.42100
C 	C 	0.53210 0.59160 0.33720 0.34800
C 	C 	0.53050 0.77850 0.08870 0.34100
C 	C 	0.95140 0.81680 0.10190 0.41000
C 	C 	0.66730 0.83680 0.78050 -0.04700
C 	C 	0.85330 0.85420 0.77560 -0.07400
C 	C 	0.94390 0.81670 0.71010 0.05600
C 	C 	0.85260 0.75980 0.65270 -0.09900
C 	C 	0.66450 0.74400 0.65870 -0.07700
C 	C 	0.57450 0.78370 0.72210 0.00600
C 	C 	0.55630 0.87420 0.84660 0.37000
C 	C 	0.96790 0.90840 0.83720 0.37800
C 	C 	0.96950 0.72150 0.58870 0.38100
C 	C 	0.54860 0.68320 0.60190 0.37200
C 	C 	0.16730 0.33680 0.71950 -0.03300
C 	C 	0.35330 0.35420 0.72440 -0.07800
C 	C 	0.44390 0.31670 0.78990 0.01300
C 	C 	0.35260 0.25980 0.84730 -0.09600
C 	C 	0.16450 0.24400 0.84130 -0.05900
C 	C 	0.07450 0.28370 0.77790 -0.06500
C 	C 	0.05630 0.37420 0.65340 0.33500
C 	C 	0.46790 0.40840 0.66280 0.35700
C 	C 	0.46950 0.22150 0.91130 0.35300
C 	C 	0.04860 0.18320 0.89810 0.32900
C 	C 	0.33270 0.16320 0.21950 -0.10100
C 	C 	0.14670 0.14580 0.22440 -0.02800
C 	C 	0.05610 0.18330 0.28990 -0.08900
C 	C 	0.14740 0.24020 0.34730 -0.04400
C 	C 	0.33550 0.25600 0.34130 -0.12100
C 	C 	0.42550 0.21630 0.27790 0.03800
C 	C 	0.44370 0.12580 0.15340 0.39500
C 	C 	0.03210 0.09160 0.16280 0.30400
C 	C 	0.03050 0.27850 0.41130 0.30000
C 	C 	0.45140 0.31680 0.39810 0.38200
O 	O 	0.96220 0.53940 0.34350 -0.43400
O 	O 	0.01420 0.67980 0.39670 -0.47100
O 	O 	0.37370 0.56200 0.31760 -0.47100
O 	O 	0.60290 0.58210 0.40560 -0.43300
O 	O 	0.52030 0.86320 0.08270 -0.50700
O 	O 	0.43290 0.72320 0.04690 -0.40300
O 	O 	0.09390 0.78850 0.07580 -0.47000
O 	O 	0.89970 0.89640 0.08430 -0.51800
O 	O 	0.75800 0.45930 0.51720 -0.68800
O 	O 	0.53780 0.96060 0.84350 -0.39700
O 	O 	0.48580 0.82020 0.89670 -0.42600
O 	O 	0.12630 0.93800 0.81760 -0.46000
O 	O 	0.89710 0.91790 0.90560 -0.39300
O 	O 	0.97970 0.63680 0.58270 -0.50300
O 	O 	0.06710 0.77680 0.54690 -0.39300
O 	O 	0.40610 0.71150 0.57580 -0.42700
O 	O 	0.60030 0.60360 0.58430 -0.52900
O 	O 	0.74200 0.04070 0.01720 -0.74800
O 	O 	0.03780 0.46060 0.65650 -0.43400
O 	O 	0.98580 0.32020 0.60330 -0.41900
O 	O 	0.62630 0.43800 0.68240 -0.46500
O 	O 	0.39710 0.41790 0.59440 -0.44000
O 	O 	0.47970 0.13680 0.91730 -0.50600
O 	O 	0.56710 0.27680 0.95310 -0.35600
O 	O 	0.90610 0.21150 0.92420 -0.38300
O 	O 	0.10030 0.10360 0.91570 -0.52800
O 	O 	0.24200 0.54070 0.48280 -0.69100
O 	O 	0.46220 0.03940 0.15650 -0.47100
O 	O 	0.51420 0.17980 0.10330 -0.46700
O 	O 	0.87370 0.06200 0.18240 -0.45900
O 	O 	0.10290 0.08210 0.09440 -0.45700
O 	O 	0.02030 0.36320 0.41730 -0.50800
O 	O 	0.93290 0.22320 0.45310 -0.35900
O 	O 	0.59390 0.28850 0.42420 -0.43500
O 	O 	0.39970 0.39640 0.41570 -0.53400
O 	O 	0.25800 0.95930 0.98280 -0.60400
