data_crystal

_cell_length_a 7.41200
_cell_length_b 16.46660
_cell_length_c 14.50280
_cell_angle_alpha 90.00000
_cell_angle_beta  95.35200
_cell_angle_gamma 90.00000

_symmetry_space_group_name_	'P 1'
_symmetry_space_group_name_H-M	'P 1'

loop_
_symmetry_equiv_pos_as_xyz
  x,y,z

loop_
_atom_site_label
_atom_site_type_symbol
_atom_site_fract_x
_atom_site_fract_y
_atom_site_fract_z
_atom_site_charge
Co	Co	0.70914 0.01325 0.67671 1.13300
Co	Co	0.68901 0.12792 0.47337 1.16700
O 	O 	0.74110 0.01656 0.54000 -0.59000
O 	O 	0.51400 0.10296 0.68147 -0.45500
O 	O 	0.46300 0.15546 0.53953 -0.43900
O 	O 	0.01930 0.41761 0.86439 -0.46700
O 	O 	0.10210 0.09416 0.58245 -0.44300
O 	O 	0.93140 0.45194 0.72250 -0.34000
O 	O 	0.40060 0.41528 0.89689 -0.52300
O 	O 	0.87310 0.18302 0.56473 -0.44100
O 	O 	0.59230 0.42304 0.78864 -0.43700
C 	C 	0.44260 0.15208 0.62470 0.39800
C 	C 	0.33730 0.34009 0.75787 -0.13000
C 	C 	0.14410 0.22485 0.64697 -0.01600
C 	C 	0.45250 0.39785 0.81845 0.41300
C 	C 	0.33140 0.21897 0.66296 -0.09700
C 	C 	0.05660 0.28984 0.68348 -0.09500
H 	H 	0.93230 0.29560 0.66920 0.10000
C 	C 	0.03160 0.16223 0.59279 0.30600
C 	C 	0.42600 0.27748 0.71695 0.05000
H 	H 	0.55170 0.27460 0.72580 0.02600
C 	C 	0.14760 0.34654 0.74038 -0.02400
C 	C 	0.03010 0.41013 0.77859 0.27400
Co	Co	0.79086 0.51325 0.82329 1.16000
Co	Co	0.81099 0.62792 0.02663 1.13700
O 	O 	0.75890 0.51656 0.96000 -0.52200
O 	O 	0.98600 0.60296 0.81853 -0.40200
O 	O 	0.03700 0.65546 0.96047 -0.39600
O 	O 	0.48070 0.91761 0.63561 -0.46100
O 	O 	0.39790 0.59416 0.91755 -0.41100
O 	O 	0.56860 0.95194 0.77750 -0.33200
O 	O 	0.09940 0.91528 0.60311 -0.52100
O 	O 	0.62690 0.68302 0.93527 -0.43900
O 	O 	0.90770 0.92304 0.71136 -0.38000
C 	C 	0.05740 0.65208 0.87530 0.33500
C 	C 	0.16270 0.84009 0.74213 -0.06400
C 	C 	0.35590 0.72485 0.85303 -0.06800
C 	C 	0.04750 0.89785 0.68155 0.35700
C 	C 	0.16860 0.71897 0.83704 -0.02600
C 	C 	0.44340 0.78984 0.81652 0.01200
H 	H 	0.56770 0.79560 0.83080 0.05400
C 	C 	0.46840 0.66223 0.90721 0.35700
C 	C 	0.07400 0.77748 0.78305 -0.05900
H 	H 	0.94830 0.77460 0.77420 0.08100
C 	C 	0.35240 0.84654 0.75962 -0.07800
C 	C 	0.46990 0.91013 0.72141 0.32800
Co	Co	0.29086 0.98675 0.32329 1.17800
Co	Co	0.31099 0.87208 0.52663 1.16700
O 	O 	0.25890 0.98344 0.46000 -0.53800
O 	O 	0.48600 0.89704 0.31853 -0.42800
O 	O 	0.53700 0.84454 0.46047 -0.42100
O 	O 	0.98070 0.58239 0.13561 -0.49400
O 	O 	0.89790 0.90584 0.41755 -0.40800
O 	O 	0.06860 0.54806 0.27750 -0.40100
O 	O 	0.59940 0.58472 0.10311 -0.56200
O 	O 	0.12690 0.81698 0.43527 -0.49500
O 	O 	0.40770 0.57696 0.21136 -0.44600
C 	C 	0.55740 0.84792 0.37530 0.38200
C 	C 	0.66270 0.65991 0.24213 -0.09500
C 	C 	0.85590 0.77515 0.35303 -0.08900
C 	C 	0.54750 0.60215 0.18155 0.40500
C 	C 	0.66860 0.78103 0.33704 -0.05200
C 	C 	0.94340 0.71016 0.31652 0.07000
H 	H 	0.06770 0.70440 0.33080 0.00700
C 	C 	0.96840 0.83777 0.40721 0.39300
C 	C 	0.57400 0.72252 0.28305 0.00900
H 	H 	0.44830 0.72540 0.27420 0.03200
C 	C 	0.85240 0.65346 0.25962 -0.10500
C 	C 	0.96990 0.58987 0.22141 0.37200
Co	Co	0.20914 0.48675 0.17671 1.15200
Co	Co	0.18901 0.37208 0.97337 1.19400
O 	O 	0.24110 0.48344 0.04000 -0.60800
O 	O 	0.01400 0.39704 0.18147 -0.47700
O 	O 	0.96300 0.34454 0.03953 -0.46300
O 	O 	0.51930 0.08239 0.36439 -0.49700
O 	O 	0.60210 0.40584 0.08245 -0.44300
O 	O 	0.43140 0.04806 0.22250 -0.40800
O 	O 	0.90060 0.08472 0.39689 -0.55900
O 	O 	0.37310 0.31698 0.06473 -0.49700
O 	O 	0.09230 0.07696 0.28864 -0.49900
C 	C 	0.94260 0.34792 0.12470 0.43800
C 	C 	0.83730 0.15991 0.25787 -0.15400
C 	C 	0.64410 0.27515 0.14697 -0.04200
C 	C 	0.95250 0.10215 0.31845 0.45500
C 	C 	0.83140 0.28103 0.16296 -0.11600
C 	C 	0.55660 0.21016 0.18348 -0.02600
H 	H 	0.43230 0.20440 0.16920 0.04900
C 	C 	0.53160 0.33777 0.09279 0.34800
C 	C 	0.92600 0.22252 0.21695 0.10700
H 	H 	0.05170 0.22540 0.22580 -0.01800
C 	C 	0.64760 0.15346 0.24038 -0.05600
C 	C 	0.53010 0.08987 0.27859 0.32400
Co	Co	0.00000 0.00000 0.50000 1.13700
Co	Co	0.50000 0.50000 -0.00000 1.14600
