data_crystal

_cell_length_a 12.10400
_cell_length_b 12.10400
_cell_length_c 12.10400
_cell_angle_alpha 90.00000
_cell_angle_beta  90.00000
_cell_angle_gamma 90.00000

_symmetry_space_group_name_	'P 1'
_symmetry_space_group_name_H-M	'P 1'

loop_
_symmetry_equiv_pos_as_xyz
  x,y,z

loop_
_atom_site_label
_atom_site_type_symbol
_atom_site_fract_x
_atom_site_fract_y
_atom_site_fract_z
_atom_site_charge
Fe	Fe	-0.00000 0.50000 -0.00000 0.69800
Fe	Fe	0.50000 0.50000 0.50000 1.15400
Fe	Fe	-0.00000 -0.00000 0.50000 0.69800
Fe	Fe	0.50000 0.00000 -0.00000 0.69800
K 	K 	-0.00000 0.50000 0.50000 0.54800
K 	K 	-0.00000 0.00000 -0.00000 0.37000
K 	K 	0.50000 -0.00000 0.50000 0.54800
K 	K 	0.50000 0.50000 -0.00000 0.54800
C 	C 	0.98410 0.48410 0.15960 -1.72300
N 	N 	0.01900 0.51900 0.25380 -1.55200
C 	C 	0.98410 0.98410 0.65960 -3.17200
N 	N 	0.01900 0.01900 0.75380 -3.01200
C 	C 	0.48410 0.48410 0.65960 -0.02900
N 	N 	0.51900 0.51900 0.75380 0.00000
C 	C 	0.01590 0.51590 0.15960 1.49400
N 	N 	0.98100 0.48100 0.25380 1.49400
C 	C 	0.01590 0.01590 0.65960 3.16300
N 	N 	0.98100 0.98100 0.75380 2.98400
C 	C 	0.01590 0.48410 0.84040 1.66100
N 	N 	0.98100 0.51900 0.74620 1.49100
C 	C 	0.01590 0.98410 0.34040 -0.03500
N 	N 	0.98100 0.01900 0.24620 -0.04100
C 	C 	0.98410 0.51590 0.84040 -1.51000
N 	N 	0.01900 0.48100 0.74620 -1.55800
C 	C 	0.98410 0.01590 0.34040 -0.03500
N 	N 	0.01900 0.98100 0.24620 -0.04100
C 	C 	0.48410 0.01590 0.84040 1.66100
N 	N 	0.51900 0.98100 0.74620 1.49100
C 	C 	0.15960 0.98410 0.48410 -1.72400
N 	N 	0.25380 0.01900 0.51900 -1.55300
C 	C 	0.65960 0.98410 0.98410 -3.17300
N 	N 	0.75380 0.01900 0.01900 -3.01300
C 	C 	0.65960 0.48410 0.48410 -0.03000
N 	N 	0.75380 0.51900 0.51900 -0.00100
C 	C 	0.15960 0.01590 0.51590 1.49400
N 	N 	0.25380 0.98100 0.48100 1.49400
C 	C 	0.65960 0.01590 0.01590 3.16300
N 	N 	0.75380 0.98100 0.98100 2.98400
C 	C 	0.84040 0.01590 0.48410 1.66100
N 	N 	0.74620 0.98100 0.51900 1.49100
C 	C 	0.34040 0.01590 0.98410 -0.03500
N 	N 	0.24620 0.98100 0.01900 -0.04100
C 	C 	0.84040 0.98410 0.51590 -1.51000
N 	N 	0.74620 0.01900 0.48100 -1.55800
C 	C 	0.84040 0.48410 0.01590 1.66100
N 	N 	0.74620 0.51900 0.98100 1.49100
C 	C 	0.34040 0.98410 0.01590 -0.03500
N 	N 	0.24620 0.01900 0.98100 -0.04100
C 	C 	0.48410 0.15960 0.98410 -1.72400
N 	N 	0.51900 0.25380 0.01900 -1.55300
C 	C 	0.48410 0.65960 0.48410 -0.03000
N 	N 	0.51900 0.75380 0.51900 -0.00100
C 	C 	0.51590 0.15960 0.01590 1.49400
N 	N 	0.48100 0.25380 0.98100 1.49400
C 	C 	0.51590 0.65960 0.51590 -0.05000
N 	N 	0.48100 0.75380 0.48100 -0.05100
C 	C 	0.01590 0.65960 0.01590 3.16300
N 	N 	0.98100 0.75380 0.98100 2.98400
C 	C 	0.48410 0.84040 0.01590 1.66100
N 	N 	0.51900 0.74620 0.98100 1.49100
C 	C 	0.48410 0.34040 0.51590 -0.04400
N 	N 	0.51900 0.24620 0.48100 -0.02900
C 	C 	0.51590 0.84040 0.98410 -1.51000
N 	N 	0.48100 0.74620 0.01900 -1.55800
C 	C 	0.51590 0.34040 0.48410 -0.04400
N 	N 	0.48100 0.24620 0.51900 -0.02900
C 	C 	0.01590 0.84040 0.48410 1.66100
N 	N 	0.98100 0.74620 0.51900 1.49100
C 	C 	0.48410 0.98410 0.84040 -1.50300
N 	N 	0.51900 0.01900 0.74620 -1.53600
C 	C 	0.48410 0.48410 0.34040 -0.03400
N 	N 	0.51900 0.51900 0.24620 -0.00400
C 	C 	0.51590 0.01590 0.84040 1.65200
N 	N 	0.48100 0.98100 0.74620 1.46700
C 	C 	0.51590 0.51590 0.34040 -0.05400
N 	N 	0.48100 0.48100 0.24620 -0.05500
C 	C 	0.01590 0.01590 0.34040 3.17500
N 	N 	0.98100 0.98100 0.24620 3.00800
C 	C 	0.48410 0.01590 0.15960 1.50500
N 	N 	0.51900 0.98100 0.25380 1.52000
C 	C 	0.48410 0.51590 0.65960 -0.04000
N 	N 	0.51900 0.48100 0.75380 -0.02600
C 	C 	0.51590 0.98410 0.15960 -1.73300
N 	N 	0.48100 0.01900 0.25380 -1.57700
C 	C 	0.51590 0.48410 0.65960 -0.04000
N 	N 	0.48100 0.51900 0.75380 -0.02600
C 	C 	0.01590 0.48410 0.15960 1.50500
N 	N 	0.98100 0.51900 0.25380 1.52000
C 	C 	0.98410 0.15960 0.51590 -1.73300
N 	N 	0.01900 0.25380 0.48100 -1.57700
C 	C 	0.98410 0.65960 0.01590 -0.03100
N 	N 	0.01900 0.75380 0.98100 -0.03800
C 	C 	0.48410 0.15960 0.01590 1.50500
N 	N 	0.51900 0.25380 0.98100 1.52000
C 	C 	0.01590 0.15960 0.48410 1.50500
N 	N 	0.98100 0.25380 0.51900 1.52000
C 	C 	0.01590 0.65960 0.98410 -0.03100
N 	N 	0.98100 0.75380 0.01900 -0.03800
C 	C 	0.01590 0.84040 0.51590 1.65200
N 	N 	0.98100 0.74620 0.48100 1.46700
C 	C 	0.01590 0.34040 0.01590 3.17500
N 	N 	0.98100 0.24620 0.98100 3.00800
C 	C 	0.98410 0.84040 0.48410 -1.50300
N 	N 	0.01900 0.74620 0.51900 -1.53600
C 	C 	0.98410 0.34040 0.98410 -3.19100
N 	N 	0.01900 0.24620 0.01900 -3.04200
C 	C 	0.48410 0.34040 0.48410 -0.03400
N 	N 	0.51900 0.24620 0.51900 -0.00400
C 	C 	0.15960 0.48410 0.01590 1.50500
N 	N 	0.25380 0.51900 0.98100 1.52000
C 	C 	0.65960 0.48410 0.51590 -0.04000
N 	N 	0.75380 0.51900 0.48100 -0.02600
C 	C 	0.15960 0.51590 0.98410 -1.73300
N 	N 	0.25380 0.48100 0.01900 -1.57700
C 	C 	0.15960 0.01590 0.48410 1.50500
N 	N 	0.25380 0.98100 0.51900 1.52000
C 	C 	0.65960 0.51590 0.48410 -0.04000
N 	N 	0.75380 0.48100 0.51900 -0.02600
C 	C 	0.84040 0.48410 0.98410 -1.50300
N 	N 	0.74620 0.51900 0.01900 -1.53600
C 	C 	0.34040 0.48410 0.48410 -0.03400
N 	N 	0.24620 0.51900 0.51900 -0.00400
C 	C 	0.84040 0.51590 0.01590 1.65200
N 	N 	0.74620 0.48100 0.98100 1.46700
C 	C 	0.34040 0.51590 0.51590 -0.05400
N 	N 	0.24620 0.48100 0.48100 -0.05500
C 	C 	0.34040 0.01590 0.01590 3.17500
N 	N 	0.24620 0.98100 0.98100 3.00800
C 	C 	0.01590 0.51590 0.84040 1.65200
N 	N 	0.98100 0.48100 0.74620 1.46700
C 	C 	0.98410 0.48410 0.84040 -1.50300
N 	N 	0.01900 0.51900 0.74620 -1.53600
C 	C 	0.98410 0.98410 0.34040 -3.19100
N 	N 	0.01900 0.01900 0.24620 -3.04200
C 	C 	0.98410 0.51590 0.15960 -1.73300
N 	N 	0.01900 0.48100 0.25380 -1.57700
C 	C 	0.98410 0.01590 0.65960 -0.03100
N 	N 	0.01900 0.98100 0.75380 -0.03800
C 	C 	0.01590 0.98410 0.65960 -0.03100
N 	N 	0.98100 0.01900 0.75380 -0.03800
C 	C 	0.84040 0.01590 0.51590 1.65200
N 	N 	0.74620 0.98100 0.48100 1.46700
C 	C 	0.84040 0.98410 0.48410 -1.50300
N 	N 	0.74620 0.01900 0.51900 -1.53600
C 	C 	0.34040 0.98410 0.98410 -3.19100
N 	N 	0.24620 0.01900 0.01900 -3.04200
C 	C 	0.15960 0.98410 0.51590 -1.73300
N 	N 	0.25380 0.01900 0.48100 -1.57700
C 	C 	0.65960 0.98410 0.01590 -0.03100
N 	N 	0.75380 0.01900 0.98100 -0.03800
C 	C 	0.65960 0.01590 0.98410 -0.03100
N 	N 	0.75380 0.98100 0.01900 -0.03800
C 	C 	0.51590 0.84040 0.01590 1.65200
N 	N 	0.48100 0.74620 0.98100 1.46700
C 	C 	0.51590 0.34040 0.51590 -0.05400
N 	N 	0.48100 0.24620 0.48100 -0.05500
C 	C 	0.48410 0.84040 0.98410 -1.50300
N 	N 	0.51900 0.74620 0.01900 -1.53600
C 	C 	0.51590 0.15960 0.98410 -1.73300
N 	N 	0.48100 0.25380 0.01900 -1.57700
C 	C 	0.51590 0.65960 0.48410 -0.04000
N 	N 	0.48100 0.75380 0.51900 -0.02600
C 	C 	0.48410 0.65960 0.51590 -0.04000
N 	N 	0.51900 0.75380 0.48100 -0.02600
C 	C 	0.51590 0.01590 0.15960 1.49400
N 	N 	0.48100 0.98100 0.25380 1.49400
C 	C 	0.51590 0.51590 0.65960 -0.05000
N 	N 	0.48100 0.48100 0.75380 -0.05100
C 	C 	0.48410 0.98410 0.15960 -1.72400
N 	N 	0.51900 0.01900 0.25380 -1.55300
C 	C 	0.51590 0.98410 0.84040 -1.51000
N 	N 	0.48100 0.01900 0.74620 -1.55800
C 	C 	0.51590 0.48410 0.34040 -0.04400
N 	N 	0.48100 0.51900 0.24620 -0.02900
C 	C 	0.48410 0.51590 0.34040 -0.04400
N 	N 	0.51900 0.48100 0.24620 -0.02900
C 	C 	0.01590 0.34040 0.98410 -0.03500
N 	N 	0.98100 0.24620 0.01900 -0.04100
C 	C 	0.98410 0.84040 0.51590 -1.51000
N 	N 	0.01900 0.74620 0.48100 -1.55800
C 	C 	0.98410 0.34040 0.01590 -0.03500
N 	N 	0.01900 0.24620 0.98100 -0.04100
C 	C 	0.98410 0.15960 0.48410 -1.72400
N 	N 	0.01900 0.25380 0.51900 -1.55300
C 	C 	0.98410 0.65960 0.98410 -3.17300
N 	N 	0.01900 0.75380 0.01900 -3.01300
C 	C 	0.01590 0.15960 0.51590 1.49400
N 	N 	0.98100 0.25380 0.48100 1.49400
C 	C 	0.84040 0.51590 0.98410 -1.51000
N 	N 	0.74620 0.48100 0.01900 -1.55800
C 	C 	0.34040 0.51590 0.48410 -0.04400
N 	N 	0.24620 0.48100 0.51900 -0.02900
C 	C 	0.34040 0.48410 0.51590 -0.04400
N 	N 	0.24620 0.51900 0.48100 -0.02900
C 	C 	0.15960 0.51590 0.01590 1.49400
N 	N 	0.25380 0.48100 0.98100 1.49400
C 	C 	0.65960 0.51590 0.51590 -0.05000
N 	N 	0.75380 0.48100 0.48100 -0.05100
C 	C 	0.15960 0.48410 0.98410 -1.72400
N 	N 	0.25380 0.51900 0.01900 -1.55300
