data_crystal

_cell_length_a 11.43190
_cell_length_b 14.84570
_cell_length_c 16.38900
_cell_angle_alpha 90.00000
_cell_angle_beta  90.00000
_cell_angle_gamma 90.00000

_symmetry_space_group_name_	'P 1'
_symmetry_space_group_name_H-M	'P 1'

loop_
_symmetry_equiv_pos_as_xyz
  x,y,z

loop_
_atom_site_label
_atom_site_type_symbol
_atom_site_fract_x
_atom_site_fract_y
_atom_site_fract_z
_atom_site_charge
Dy	Dy	0.27406 0.74408 0.43143 1.82000
Dy	Dy	0.23627 0.80514 0.05496 1.96300
Dy	Dy	0.22594 0.25592 0.93143 1.81800
Dy	Dy	0.26373 0.19486 0.55496 1.96200
Dy	Dy	0.72594 0.24408 0.06857 1.81900
Dy	Dy	0.76373 0.30514 0.44504 1.96000
Dy	Dy	0.77406 0.75592 0.56857 1.82000
Dy	Dy	0.73627 0.69486 0.94504 1.96200
P 	P 	0.25830 0.81780 0.83240 0.55000
P 	P 	0.31750 0.94770 0.54730 0.56000
P 	P 	0.24170 0.18220 0.33240 0.55000
P 	P 	0.18250 0.05230 0.04730 0.56300
P 	P 	0.74170 0.31780 0.66760 0.55000
P 	P 	0.68250 0.44770 0.95270 0.56200
P 	P 	0.75830 0.68220 0.16760 0.55000
P 	P 	0.81750 0.55230 0.45270 0.56100
H 	H 	0.39890 0.74730 0.79660 0.27100
H 	H 	0.47090 0.00730 0.53410 0.29000
H 	H 	0.23220 0.00510 0.69440 0.13300
H 	H 	0.87740 0.15370 0.74360 0.17400
H 	H 	0.33510 0.95660 0.80230 0.13400
H 	H 	0.20390 0.96640 0.82740 0.13800
H 	H 	0.38740 0.90540 0.67760 0.12200
H 	H 	0.29200 0.83640 0.64910 0.13300
H 	H 	0.08870 0.93790 0.62600 0.07200
H 	H 	0.09060 0.85830 0.68860 0.09100
H 	H 	0.99390 0.88290 0.82280 0.04300
H 	H 	0.85890 0.95990 0.89930 0.09000
H 	H 	0.80170 0.10140 0.85800 0.01600
H 	H 	0.98900 0.07230 0.65760 0.04200
H 	H 	0.10110 0.25270 0.29660 0.27100
H 	H 	0.02910 0.99270 0.03410 0.28800
H 	H 	0.26780 0.99490 0.19440 0.13100
H 	H 	0.62260 0.84630 0.24360 0.17400
H 	H 	0.16490 0.04340 0.30230 0.13400
H 	H 	0.29610 0.03360 0.32740 0.13800
H 	H 	0.11260 0.09460 0.17760 0.12300
H 	H 	0.20800 0.16360 0.14910 0.13300
H 	H 	0.41130 0.06210 0.12600 0.07400
H 	H 	0.40940 0.14170 0.18860 0.09200
H 	H 	0.50610 0.11710 0.32280 0.04300
H 	H 	0.64110 0.04010 0.39930 0.09100
H 	H 	0.69830 0.89860 0.35800 0.01400
H 	H 	0.51100 0.92770 0.15760 0.04300
H 	H 	0.60110 0.24730 0.70340 0.27000
H 	H 	0.52910 0.50730 0.96590 0.29000
H 	H 	0.76780 0.50510 0.80560 0.13200
H 	H 	0.12260 0.65370 0.75640 0.17300
H 	H 	0.66490 0.45660 0.69770 0.13400
H 	H 	0.79610 0.46640 0.67260 0.13800
H 	H 	0.61260 0.40540 0.82240 0.12200
H 	H 	0.70800 0.33640 0.85090 0.13300
H 	H 	0.91130 0.43790 0.87400 0.07500
H 	H 	0.90940 0.35830 0.81140 0.09300
H 	H 	0.00610 0.38290 0.67720 0.04600
H 	H 	0.14110 0.45990 0.60070 0.08900
H 	H 	0.19830 0.60140 0.64200 0.01600
H 	H 	0.01100 0.57230 0.84240 0.04400
H 	H 	0.89890 0.75270 0.20340 0.27100
H 	H 	0.97090 0.49270 0.46590 0.29000
H 	H 	0.73220 0.49490 0.30560 0.13200
H 	H 	0.37740 0.34630 0.25640 0.17400
H 	H 	0.83510 0.54340 0.19770 0.13300
H 	H 	0.70390 0.53360 0.17260 0.13800
H 	H 	0.88740 0.59460 0.32240 0.12200
H 	H 	0.79200 0.66360 0.35090 0.13300
H 	H 	0.58870 0.56210 0.37400 0.07400
H 	H 	0.59060 0.64170 0.31140 0.09200
H 	H 	0.49390 0.61710 0.17720 0.04400
H 	H 	0.35890 0.54010 0.10070 0.09000
H 	H 	0.30170 0.39860 0.14200 0.01500
H 	H 	0.48900 0.42770 0.34240 0.04400
C 	C 	0.25760 0.93150 0.79420 -0.25400
C 	C 	0.31100 0.90000 0.65240 -0.24000
C 	C 	0.10200 0.92280 0.68280 -0.10600
C 	C 	0.01000 0.97160 0.73510 0.00700
C 	C 	0.96800 0.93900 0.80500 0.00000
C 	C 	0.88860 0.98510 0.85160 -0.10400
C 	C 	0.85400 0.06800 0.82700 0.11400
C 	C 	0.96870 0.05080 0.70900 0.03500
C 	C 	0.50010 0.73990 0.54340 0.24400
C 	C 	0.54870 0.76470 0.45740 0.29700
C 	C 	0.26130 0.82350 0.25120 0.28900
C 	C 	0.24300 0.72310 0.23720 0.24300
C 	C 	0.46250 0.70240 0.98750 0.27300
C 	C 	0.50820 0.79820 0.00770 0.28300
C 	C 	0.24240 0.06850 0.29420 -0.25500
C 	C 	0.18900 0.10000 0.15240 -0.24100
C 	C 	0.39800 0.07720 0.18280 -0.10800
C 	C 	0.49000 0.02840 0.23510 0.01100
C 	C 	0.53200 0.06100 0.30500 -0.00300
C 	C 	0.61140 0.01490 0.35160 -0.11000
C 	C 	0.64600 0.93200 0.32700 0.12100
C 	C 	0.53130 0.94920 0.20900 0.03400
C 	C 	0.99990 0.26010 0.04340 0.23600
C 	C 	0.95130 0.23530 0.95740 0.30100
C 	C 	0.23870 0.17650 0.75120 0.28900
C 	C 	0.25700 0.27690 0.73720 0.24300
C 	C 	0.03750 0.29760 0.48750 0.27700
C 	C 	0.99180 0.20180 0.50770 0.27800
C 	C 	0.74240 0.43150 0.70580 -0.25400
C 	C 	0.68900 0.40000 0.84760 -0.24100
C 	C 	0.89800 0.42280 0.81720 -0.11200
C 	C 	0.99000 0.47160 0.76490 0.01900
C 	C 	0.03200 0.43900 0.69500 -0.01100
C 	C 	0.11140 0.48510 0.64840 -0.10200
C 	C 	0.14600 0.56800 0.67300 0.11500
C 	C 	0.03130 0.55080 0.79100 0.02800
C 	C 	0.49990 0.23990 0.95660 0.24400
C 	C 	0.45130 0.26470 0.04260 0.29800
C 	C 	0.73870 0.32350 0.24880 0.28900
C 	C 	0.75700 0.22310 0.26280 0.24300
C 	C 	0.53750 0.20240 0.51250 0.27400
C 	C 	0.49180 0.29820 0.49230 0.28300
C 	C 	0.75760 0.56850 0.20580 -0.25400
C 	C 	0.81100 0.60000 0.34760 -0.24000
C 	C 	0.60200 0.57720 0.31720 -0.10900
C 	C 	0.51000 0.52840 0.26490 0.01400
C 	C 	0.46800 0.56100 0.19500 -0.00600
C 	C 	0.38860 0.51490 0.14840 -0.10500
C 	C 	0.35400 0.43200 0.17300 0.11800
C 	C 	0.46870 0.44920 0.29100 0.03200
C 	C 	0.00010 0.76010 0.45660 0.24300
C 	C 	0.04870 0.73530 0.54260 0.29600
C 	C 	0.76130 0.67650 0.74880 0.28900
C 	C 	0.74300 0.77690 0.76280 0.24300
C 	C 	0.96250 0.79760 0.01250 0.27200
C 	C 	0.00820 0.70180 0.99230 0.27500
N 	N 	0.22400 0.94510 0.70430 -0.09800
N 	N 	0.89610 0.10000 0.75810 -0.21400
N 	N 	0.27600 0.05490 0.20430 -0.09600
N 	N 	0.60390 0.90000 0.25810 -0.21400
N 	N 	0.77600 0.44510 0.79570 -0.09600
N 	N 	0.10390 0.60000 0.74190 -0.21200
N 	N 	0.72400 0.55490 0.29570 -0.09700
N 	N 	0.39610 0.40000 0.24190 -0.21300
O 	O 	0.18100 0.76390 0.78380 -0.30200
O 	O 	0.23240 0.82980 0.91930 -0.47000
O 	O 	0.39120 0.78940 0.82850 -0.45900
O 	O 	0.26080 0.03880 0.55130 -0.43600
O 	O 	0.26300 0.88450 0.48940 -0.43600
O 	O 	0.45030 0.95450 0.53110 -0.49200
O 	O 	0.39280 0.72640 0.55160 -0.38900
O 	O 	0.57400 0.73680 0.60030 -0.39100
O 	O 	0.65240 0.77950 0.45300 -0.42100
O 	O 	0.47160 0.76170 0.40130 -0.42700
O 	O 	0.27210 0.84970 0.32210 -0.39200
O 	O 	0.25940 0.86860 0.18700 -0.42800
O 	O 	0.22820 0.69610 0.16620 -0.38000
O 	O 	0.25090 0.67270 0.30030 -0.39100
O 	O 	0.53140 0.65040 0.95230 -0.41300
O 	O 	0.36130 0.68390 0.00800 -0.39200
O 	O 	0.43560 0.84720 0.04440 -0.40500
O 	O 	0.60840 0.81590 0.98630 -0.38800
O 	O 	0.31900 0.23610 0.28380 -0.30200
O 	O 	0.26760 0.17020 0.41930 -0.46900
O 	O 	0.10880 0.21060 0.32850 -0.45800
O 	O 	0.23920 0.96120 0.05130 -0.43700
O 	O 	0.23700 0.11550 0.98940 -0.43800
O 	O 	0.04970 0.04550 0.03110 -0.48900
O 	O 	0.10720 0.27360 0.05160 -0.38400
O 	O 	0.92600 0.26320 0.10030 -0.39000
O 	O 	0.84760 0.22050 0.95300 -0.42100
O 	O 	0.02840 0.23830 0.90130 -0.42900
O 	O 	0.22790 0.15030 0.82210 -0.39200
O 	O 	0.24060 0.13140 0.68700 -0.42800
O 	O 	0.27180 0.30390 0.66620 -0.38000
O 	O 	0.24910 0.32730 0.80030 -0.39100
O 	O 	0.96860 0.34960 0.45230 -0.41500
O 	O 	0.13870 0.31610 0.50800 -0.39300
O 	O 	0.06440 0.15280 0.54440 -0.40300
O 	O 	0.89160 0.18410 0.48630 -0.38800
O 	O 	0.81900 0.26390 0.71620 -0.30200
O 	O 	0.76760 0.32980 0.58070 -0.46900
O 	O 	0.60880 0.28940 0.67150 -0.45900
O 	O 	0.73920 0.53880 0.94870 -0.43600
O 	O 	0.73700 0.38450 0.01060 -0.43700
O 	O 	0.54970 0.45450 0.96890 -0.49300
O 	O 	0.60720 0.22640 0.94840 -0.38800
O 	O 	0.42600 0.23680 0.89970 -0.39100
O 	O 	0.34760 0.27950 0.04700 -0.42000
O 	O 	0.52840 0.26170 0.09870 -0.42700
O 	O 	0.72790 0.34970 0.17790 -0.39200
O 	O 	0.74060 0.36860 0.31300 -0.42800
O 	O 	0.77180 0.19610 0.33380 -0.38000
O 	O 	0.74910 0.17270 0.19970 -0.39200
O 	O 	0.46860 0.15040 0.54770 -0.41300
O 	O 	0.63870 0.18390 0.49200 -0.39200
O 	O 	0.56440 0.34720 0.45560 -0.40500
O 	O 	0.39160 0.31590 0.51370 -0.38900
O 	O 	0.68100 0.73610 0.21620 -0.30200
O 	O 	0.73240 0.67020 0.08070 -0.46900
O 	O 	0.89120 0.71060 0.17150 -0.45900
O 	O 	0.76080 0.46120 0.44870 -0.43600
O 	O 	0.76300 0.61550 0.51060 -0.43600
O 	O 	0.95030 0.54550 0.46890 -0.49300
O 	O 	0.89280 0.77360 0.44840 -0.38800
O 	O 	0.07400 0.76320 0.39970 -0.39100
O 	O 	0.15240 0.72050 0.54700 -0.42000
O 	O 	0.97160 0.73830 0.59870 -0.42500
O 	O 	0.77210 0.65030 0.67790 -0.39200
O 	O 	0.75940 0.63140 0.81300 -0.42800
O 	O 	0.72820 0.80390 0.83380 -0.38000
O 	O 	0.75090 0.82730 0.69970 -0.39100
O 	O 	0.03140 0.84960 0.04770 -0.41200
O 	O 	0.86130 0.81610 0.99200 -0.39000
O 	O 	0.93560 0.65280 0.95560 -0.40100
O 	O 	0.10840 0.68410 0.01370 -0.38500
