data_crystal

_cell_length_a 11.35800
_cell_length_b 14.82900
_cell_length_c 16.32500
_cell_angle_alpha 90.00000
_cell_angle_beta  90.00000
_cell_angle_gamma 90.00000

_symmetry_space_group_name_	'P 1'
_symmetry_space_group_name_H-M	'P 1'

loop_
_symmetry_equiv_pos_as_xyz
  x,y,z

loop_
_atom_site_label
_atom_site_type_symbol
_atom_site_fract_x
_atom_site_fract_y
_atom_site_fract_z
_atom_site_charge
Y 	Y 	0.27555 0.74497 0.43134 2.38400
Y 	Y 	0.23280 0.80503 0.05452 2.39500
Y 	Y 	0.22445 0.25503 0.93134 2.38300
Y 	Y 	0.26720 0.19497 0.55452 2.39400
Y 	Y 	0.72445 0.24497 0.06866 2.38300
Y 	Y 	0.76720 0.30503 0.44548 2.39400
Y 	Y 	0.77555 0.75503 0.56866 2.38300
Y 	Y 	0.73280 0.69497 0.94548 2.39400
P 	P 	0.25660 0.81774 0.83253 0.52800
P 	P 	0.32140 0.94820 0.54687 0.56400
P 	P 	0.24340 0.18226 0.33253 0.52900
P 	P 	0.17860 0.05180 0.04687 0.56600
P 	P 	0.74340 0.31774 0.66747 0.52800
P 	P 	0.67860 0.44820 0.95313 0.56500
P 	P 	0.75660 0.68226 0.16747 0.52800
P 	P 	0.82140 0.55180 0.45313 0.56400
H 	H 	0.39750 0.74740 0.79720 0.27500
H 	H 	0.47680 0.00470 0.53290 0.29500
H 	H 	0.23640 0.00670 0.69410 0.13400
H 	H 	0.87060 0.15290 0.74070 0.17400
H 	H 	0.33370 0.95830 0.80390 0.13700
H 	H 	0.20040 0.96720 0.82600 0.14200
H 	H 	0.39060 0.90240 0.67690 0.13400
H 	H 	0.29150 0.83620 0.64770 0.14200
H 	H 	0.09140 0.85910 0.68580 0.10100
H 	H 	0.08930 0.94030 0.62430 0.08300
H 	H 	0.99720 0.87820 0.81990 0.05700
H 	H 	0.87000 0.96370 0.90480 0.08000
H 	H 	0.80040 0.09910 0.86000 0.02500
H 	H 	0.00500 0.08100 0.66170 0.05400
H 	H 	0.10250 0.25260 0.29720 0.27500
H 	H 	0.02320 0.99530 0.03290 0.29400
H 	H 	0.26360 0.99330 0.19410 0.13300
H 	H 	0.62940 0.84710 0.24070 0.17500
H 	H 	0.16630 0.04170 0.30390 0.13700
H 	H 	0.29960 0.03280 0.32600 0.14300
H 	H 	0.10940 0.09760 0.17690 0.13400
H 	H 	0.20850 0.16380 0.14770 0.14200
H 	H 	0.40860 0.14090 0.18580 0.10200
H 	H 	0.41070 0.05970 0.12430 0.08400
H 	H 	0.50280 0.12180 0.31990 0.05700
H 	H 	0.63000 0.03630 0.40480 0.08100
H 	H 	0.69960 0.90090 0.36000 0.02300
H 	H 	0.49500 0.91900 0.16170 0.05200
H 	H 	0.60250 0.24740 0.70280 0.27500
H 	H 	0.52320 0.50470 0.96710 0.29600
H 	H 	0.76360 0.50670 0.80590 0.13400
H 	H 	0.12940 0.65290 0.75930 0.17400
H 	H 	0.66630 0.45830 0.69610 0.13700
H 	H 	0.79960 0.46720 0.67400 0.14300
H 	H 	0.60940 0.40240 0.82310 0.13400
H 	H 	0.70850 0.33620 0.85230 0.14200
H 	H 	0.90860 0.35910 0.81420 0.10400
H 	H 	0.91070 0.44030 0.87570 0.08500
H 	H 	0.00280 0.37820 0.68010 0.06000
H 	H 	0.13000 0.46370 0.59520 0.07900
H 	H 	0.19960 0.59910 0.64000 0.02500
H 	H 	0.99500 0.58100 0.83830 0.05700
H 	H 	0.89750 0.75260 0.20280 0.27500
H 	H 	0.97680 0.49530 0.46710 0.29600
H 	H 	0.73640 0.49330 0.30590 0.13400
H 	H 	0.37060 0.34710 0.25930 0.17500
H 	H 	0.83370 0.54170 0.19610 0.13700
H 	H 	0.70040 0.53280 0.17400 0.14200
H 	H 	0.89060 0.59760 0.32310 0.13300
H 	H 	0.79150 0.66380 0.35230 0.14200
H 	H 	0.59140 0.64090 0.31420 0.10300
H 	H 	0.58930 0.55970 0.37570 0.08400
H 	H 	0.49720 0.62180 0.18010 0.05800
H 	H 	0.37000 0.53630 0.09520 0.08100
H 	H 	0.30040 0.40090 0.14000 0.02400
H 	H 	0.50500 0.41900 0.33830 0.05300
C 	C 	0.25640 0.93270 0.79390 -0.25100
C 	C 	0.31340 0.89920 0.65160 -0.26300
C 	C 	0.10230 0.92380 0.68110 -0.13900
C 	C 	0.01250 0.97020 0.73320 0.03800
C 	C 	0.97320 0.93540 0.80370 -0.03700
C 	C 	0.89400 0.98650 0.85440 -0.07500
C 	C 	0.85480 0.06700 0.82890 0.09100
C 	C 	0.97580 0.05510 0.70940 0.01000
C 	C 	0.50190 0.73970 0.54340 0.23900
C 	C 	0.55050 0.76320 0.45900 0.23700
C 	C 	0.26180 0.82390 0.25040 0.26700
C 	C 	0.24640 0.72260 0.23710 0.23000
C 	C 	0.45840 0.70260 0.98780 0.24400
C 	C 	0.50580 0.79740 0.00850 0.27300
C 	C 	0.24360 0.06730 0.29390 -0.25100
C 	C 	0.18660 0.10080 0.15160 -0.26300
C 	C 	0.39770 0.07620 0.18110 -0.14100
C 	C 	0.48750 0.02980 0.23320 0.04100
C 	C 	0.52680 0.06460 0.30370 -0.04000
C 	C 	0.60600 0.01350 0.35440 -0.08100
C 	C 	0.64520 0.93300 0.32890 0.09700
C 	C 	0.52420 0.94490 0.20940 0.01200
C 	C 	0.99810 0.26030 0.04340 0.23000
C 	C 	0.94950 0.23680 0.95900 0.24200
C 	C 	0.23820 0.17610 0.75040 0.26700
C 	C 	0.25360 0.27740 0.73710 0.23000
C 	C 	0.04160 0.29740 0.48780 0.24900
C 	C 	0.99420 0.20260 0.50850 0.26800
C 	C 	0.74360 0.43270 0.70610 -0.25100
C 	C 	0.68660 0.39920 0.84840 -0.26300
C 	C 	0.89770 0.42380 0.81890 -0.14500
C 	C 	0.98750 0.47020 0.76680 0.05000
C 	C 	0.02680 0.43540 0.69630 -0.04800
C 	C 	0.10600 0.48650 0.64560 -0.07400
C 	C 	0.14520 0.56700 0.67110 0.09200
C 	C 	0.02420 0.55510 0.79060 0.00300
C 	C 	0.49810 0.23970 0.95660 0.23800
C 	C 	0.44950 0.26320 0.04100 0.23800
C 	C 	0.73820 0.32390 0.24960 0.26700
C 	C 	0.75360 0.22260 0.26290 0.23000
C 	C 	0.54160 0.20260 0.51220 0.24500
C 	C 	0.49420 0.29740 0.49150 0.27300
C 	C 	0.75640 0.56730 0.20610 -0.25100
C 	C 	0.81340 0.60080 0.34840 -0.26300
C 	C 	0.60230 0.57620 0.31890 -0.14100
C 	C 	0.51250 0.52980 0.26680 0.04300
C 	C 	0.47320 0.56460 0.19630 -0.04200
C 	C 	0.39400 0.51350 0.14560 -0.07800
C 	C 	0.35480 0.43300 0.17110 0.09400
C 	C 	0.47580 0.44490 0.29060 0.01100
C 	C 	0.00190 0.76030 0.45660 0.23800
C 	C 	0.05050 0.73680 0.54100 0.23600
C 	C 	0.76180 0.67610 0.74960 0.26800
C 	C 	0.74640 0.77740 0.76290 0.23000
C 	C 	0.95840 0.79740 0.01220 0.24300
C 	C 	0.00580 0.70260 0.99150 0.26500
N 	N 	0.22720 0.94680 0.70420 -0.08800
N 	N 	0.89560 0.10110 0.75700 -0.19800
N 	N 	0.27280 0.05320 0.20420 -0.08700
N 	N 	0.60440 0.89890 0.25700 -0.19900
N 	N 	0.77280 0.44680 0.79580 -0.08700
N 	N 	0.10440 0.60110 0.74300 -0.19700
N 	N 	0.72720 0.55320 0.29580 -0.08700
N 	N 	0.39560 0.39890 0.24300 -0.19900
O 	O 	0.17710 0.76070 0.78210 -0.28500
O 	O 	0.22710 0.82920 0.92030 -0.53200
O 	O 	0.38950 0.78960 0.82910 -0.46100
O 	O 	0.26460 0.03970 0.54990 -0.49500
O 	O 	0.26810 0.88430 0.48750 -0.51600
O 	O 	0.45440 0.95230 0.53020 -0.50500
O 	O 	0.39350 0.72560 0.55070 -0.46400
O 	O 	0.57750 0.73480 0.59920 -0.47200
O 	O 	0.65470 0.77830 0.45200 -0.46900
O 	O 	0.47420 0.76280 0.39920 -0.47300
O 	O 	0.27760 0.84990 0.32190 -0.45000
O 	O 	0.25990 0.86950 0.18650 -0.47500
O 	O 	0.22620 0.69700 0.16520 -0.43100
O 	O 	0.24930 0.67320 0.30070 -0.46400
O 	O 	0.53080 0.65060 0.95120 -0.46200
O 	O 	0.35750 0.68440 0.00680 -0.43800
O 	O 	0.43430 0.84710 0.04320 -0.45500
O 	O 	0.60660 0.81590 0.98680 -0.43700
O 	O 	0.32290 0.23930 0.28210 -0.28400
O 	O 	0.27290 0.17080 0.42030 -0.53100
O 	O 	0.11050 0.21040 0.32910 -0.46000
O 	O 	0.23540 0.96030 0.04990 -0.49500
O 	O 	0.23190 0.11570 0.98750 -0.51800
O 	O 	0.04560 0.04770 0.03020 -0.50200
O 	O 	0.10650 0.27440 0.05070 -0.45900
O 	O 	0.92250 0.26520 0.09920 -0.47100
O 	O 	0.84530 0.22170 0.95200 -0.47000
O 	O 	0.02580 0.23720 0.89920 -0.47500
O 	O 	0.22240 0.15010 0.82190 -0.44900
O 	O 	0.24010 0.13050 0.68650 -0.47500
O 	O 	0.27380 0.30300 0.66520 -0.43100
O 	O 	0.25070 0.32680 0.80070 -0.46400
O 	O 	0.96920 0.34940 0.45120 -0.46400
O 	O 	0.14250 0.31560 0.50680 -0.44000
O 	O 	0.06570 0.15290 0.54320 -0.45300
O 	O 	0.89340 0.18410 0.48680 -0.43700
O 	O 	0.82290 0.26070 0.71790 -0.28400
O 	O 	0.77290 0.32920 0.57970 -0.53100
O 	O 	0.61050 0.28960 0.67090 -0.46100
O 	O 	0.73540 0.53970 0.95010 -0.49500
O 	O 	0.73190 0.38430 0.01250 -0.51700
O 	O 	0.54560 0.45230 0.96980 -0.50600
O 	O 	0.60650 0.22560 0.94930 -0.46400
O 	O 	0.42250 0.23480 0.90080 -0.47200
O 	O 	0.34530 0.27830 0.04800 -0.46900
O 	O 	0.52580 0.26280 0.10080 -0.47300
O 	O 	0.72240 0.34990 0.17810 -0.45000
O 	O 	0.74010 0.36950 0.31350 -0.47500
O 	O 	0.77380 0.19700 0.33480 -0.43200
O 	O 	0.75070 0.17320 0.19930 -0.46500
O 	O 	0.46920 0.15060 0.54880 -0.46200
O 	O 	0.64250 0.18440 0.49320 -0.44000
O 	O 	0.56570 0.34710 0.45680 -0.45500
O 	O 	0.39340 0.31590 0.51320 -0.43700
O 	O 	0.67710 0.73930 0.21790 -0.28400
O 	O 	0.72710 0.67080 0.07970 -0.53200
O 	O 	0.88950 0.71040 0.17090 -0.46100
O 	O 	0.76460 0.46030 0.45010 -0.49500
O 	O 	0.76810 0.61570 0.51250 -0.51600
O 	O 	0.95440 0.54770 0.46980 -0.50600
O 	O 	0.89350 0.77440 0.44930 -0.46400
O 	O 	0.07750 0.76520 0.40080 -0.47200
O 	O 	0.15470 0.72170 0.54800 -0.46900
O 	O 	0.97420 0.73720 0.60080 -0.47100
O 	O 	0.77760 0.65010 0.67810 -0.44900
O 	O 	0.75990 0.63050 0.81350 -0.47500
O 	O 	0.72620 0.80300 0.83480 -0.43100
O 	O 	0.74930 0.82680 0.69930 -0.46400
O 	O 	0.03080 0.84940 0.04880 -0.46000
O 	O 	0.85750 0.81560 0.99320 -0.43600
O 	O 	0.93430 0.65290 0.95680 -0.45100
O 	O 	0.10660 0.68410 0.01320 -0.43300
