data_crystal

_cell_length_a 11.25060
_cell_length_b 14.83540
_cell_length_c 16.18430
_cell_angle_alpha 90.00000
_cell_angle_beta  90.00000
_cell_angle_gamma 90.00000

_symmetry_space_group_name_	'P 1'
_symmetry_space_group_name_H-M	'P 1'

loop_
_symmetry_equiv_pos_as_xyz
  x,y,z

loop_
_atom_site_label
_atom_site_type_symbol
_atom_site_fract_x
_atom_site_fract_y
_atom_site_fract_z
_atom_site_charge
Lu	Lu	0.27297 0.74730 0.43189 1.21800
Lu	Lu	0.24309 0.80465 0.05502 1.26700
Lu	Lu	0.22703 0.25270 0.93189 1.21800
Lu	Lu	0.25691 0.19535 0.55502 1.26700
Lu	Lu	0.72703 0.24730 0.06811 1.21800
Lu	Lu	0.75691 0.30465 0.44498 1.26700
Lu	Lu	0.77297 0.75270 0.56811 1.21900
Lu	Lu	0.74309 0.69535 0.94498 1.26700
P 	P 	0.26140 0.81850 0.83319 0.50400
P 	P 	0.31220 0.95050 0.54520 0.51100
P 	P 	0.23860 0.18150 0.33319 0.50400
P 	P 	0.18780 0.04950 0.04520 0.51200
P 	P 	0.73860 0.31850 0.66681 0.50400
P 	P 	0.68780 0.45050 0.95480 0.51200
P 	P 	0.76140 0.68150 0.16681 0.50400
P 	P 	0.81220 0.54950 0.45480 0.51100
H 	H 	0.40400 0.75120 0.79410 0.27600
H 	H 	0.46600 0.01180 0.52870 0.29300
H 	H 	0.22740 0.00700 0.69580 0.13300
H 	H 	0.86290 0.15210 0.74230 0.17900
H 	H 	0.32780 0.96370 0.80510 0.13800
H 	H 	0.19270 0.96460 0.82700 0.13700
H 	H 	0.38740 0.90860 0.67510 0.13400
H 	H 	0.29050 0.83910 0.64730 0.14000
H 	H 	0.08530 0.93300 0.62730 0.09000
H 	H 	0.08990 0.85690 0.69450 0.10600
H 	H 	0.98280 0.87770 0.82630 0.05900
H 	H 	0.85280 0.95950 0.90350 0.09300
H 	H 	0.79700 0.10190 0.86350 0.02800
H 	H 	0.99960 0.07710 0.66260 0.06000
H 	H 	0.09600 0.24880 0.29410 0.27600
H 	H 	0.03400 0.98820 0.02870 0.29200
H 	H 	0.27260 0.99300 0.19580 0.13200
H 	H 	0.63710 0.84790 0.24230 0.17900
H 	H 	0.17220 0.03630 0.30510 0.13800
H 	H 	0.30730 0.03540 0.32700 0.13800
H 	H 	0.11260 0.09140 0.17510 0.13400
H 	H 	0.20950 0.16090 0.14730 0.14100
H 	H 	0.41470 0.06700 0.12730 0.09000
H 	H 	0.41010 0.14310 0.19450 0.10600
H 	H 	0.51720 0.12230 0.32630 0.05800
H 	H 	0.64720 0.04050 0.40350 0.09400
H 	H 	0.70300 0.89810 0.36350 0.02700
H 	H 	0.50040 0.92290 0.16260 0.06100
H 	H 	0.59600 0.25120 0.70590 0.27600
H 	H 	0.53400 0.51180 0.97130 0.29400
H 	H 	0.77260 0.50700 0.80420 0.13300
H 	H 	0.13710 0.65210 0.75770 0.17900
H 	H 	0.67220 0.46370 0.69490 0.13800
H 	H 	0.80730 0.46460 0.67300 0.13800
H 	H 	0.61260 0.40860 0.82490 0.13400
H 	H 	0.70950 0.33910 0.85270 0.14000
H 	H 	0.91470 0.43300 0.87270 0.09100
H 	H 	0.91010 0.35690 0.80550 0.10700
H 	H 	0.01720 0.37770 0.67370 0.06000
H 	H 	0.14720 0.45950 0.59650 0.09300
H 	H 	0.20300 0.60190 0.63650 0.02800
H 	H 	0.00040 0.57710 0.83740 0.06100
H 	H 	0.90400 0.74880 0.20590 0.27600
H 	H 	0.96600 0.48820 0.47130 0.29400
H 	H 	0.72740 0.49300 0.30420 0.13300
H 	H 	0.36290 0.34790 0.25770 0.17900
H 	H 	0.82780 0.53630 0.19490 0.13800
H 	H 	0.69270 0.53540 0.17300 0.13700
H 	H 	0.88740 0.59140 0.32490 0.13400
H 	H 	0.79050 0.66090 0.35270 0.14000
H 	H 	0.58530 0.56700 0.37270 0.09100
H 	H 	0.58990 0.64310 0.30550 0.10600
H 	H 	0.48280 0.62230 0.17370 0.05900
H 	H 	0.35280 0.54050 0.09650 0.09400
H 	H 	0.29700 0.39810 0.13650 0.02800
H 	H 	0.49960 0.42290 0.33740 0.06100
C 	C 	0.25270 0.93380 0.79450 -0.24200
C 	C 	0.30890 0.90290 0.65080 -0.24600
C 	C 	0.09970 0.92110 0.68540 -0.13200
C 	C 	0.00730 0.97280 0.73750 0.03800
C 	C 	0.96060 0.93530 0.80960 -0.02100
C 	C 	0.88310 0.98380 0.85490 -0.08200
C 	C 	0.84800 0.06810 0.83060 0.10400
C 	C 	0.97030 0.05270 0.71150 0.01500
C 	C 	0.49850 0.74370 0.54390 0.21900
C 	C 	0.54580 0.76620 0.45670 0.26400
C 	C 	0.26310 0.82230 0.25010 0.23000
C 	C 	0.24810 0.72330 0.23650 0.23100
C 	C 	0.46940 0.70170 0.98620 0.26200
C 	C 	0.51540 0.79580 0.00600 0.21000
C 	C 	0.24730 0.06620 0.29450 -0.24200
C 	C 	0.19110 0.09710 0.15080 -0.24600
C 	C 	0.40030 0.07890 0.18540 -0.13300
C 	C 	0.49270 0.02720 0.23750 0.03900
C 	C 	0.53940 0.06470 0.30960 -0.02100
C 	C 	0.61690 0.01620 0.35490 -0.08600
C 	C 	0.65200 0.93190 0.33060 0.10900
C 	C 	0.52970 0.94730 0.21150 0.01600
C 	C 	0.00150 0.25630 0.04390 0.22200
C 	C 	0.95420 0.23380 0.95670 0.26300
C 	C 	0.23690 0.17770 0.75010 0.23000
C 	C 	0.25190 0.27670 0.73650 0.23100
C 	C 	0.03060 0.29830 0.48620 0.26300
C 	C 	0.98460 0.20420 0.50600 0.20800
C 	C 	0.74730 0.43380 0.70550 -0.24200
C 	C 	0.69110 0.40290 0.84920 -0.24600
C 	C 	0.90030 0.42110 0.81460 -0.13400
C 	C 	0.99270 0.47280 0.76250 0.04300
C 	C 	0.03940 0.43530 0.69040 -0.02500
C 	C 	0.11690 0.48380 0.64510 -0.08200
C 	C 	0.15200 0.56810 0.66940 0.10600
C 	C 	0.02970 0.55270 0.78850 0.01300
C 	C 	0.50150 0.24370 0.95610 0.21800
C 	C 	0.45420 0.26620 0.04330 0.26400
C 	C 	0.73690 0.32230 0.24990 0.23000
C 	C 	0.75190 0.22330 0.26350 0.23100
C 	C 	0.53060 0.20170 0.51380 0.26200
C 	C 	0.48460 0.29580 0.49400 0.21000
C 	C 	0.75270 0.56620 0.20550 -0.24200
C 	C 	0.80890 0.59710 0.34920 -0.24600
C 	C 	0.59970 0.57890 0.31460 -0.13300
C 	C 	0.50730 0.52720 0.26250 0.04100
C 	C 	0.46060 0.56470 0.19040 -0.02300
C 	C 	0.38310 0.51620 0.14510 -0.08400
C 	C 	0.34800 0.43190 0.16940 0.10700
C 	C 	0.47030 0.44730 0.28850 0.01500
C 	C 	0.99850 0.75630 0.45610 0.22000
C 	C 	0.04580 0.73380 0.54330 0.26200
C 	C 	0.76310 0.67770 0.74990 0.23000
C 	C 	0.74810 0.77670 0.76350 0.23100
C 	C 	0.96940 0.79830 0.01380 0.26100
C 	C 	0.01540 0.70420 0.99400 0.20700
N 	N 	0.22170 0.94680 0.70570 -0.09000
N 	N 	0.88760 0.10070 0.75970 -0.20200
N 	N 	0.27830 0.05320 0.20570 -0.09000
N 	N 	0.61240 0.89930 0.25970 -0.20300
N 	N 	0.77830 0.44680 0.79430 -0.09000
N 	N 	0.11240 0.60070 0.74030 -0.20200
N 	N 	0.72170 0.55320 0.29430 -0.09000
N 	N 	0.38760 0.39930 0.24030 -0.20200
O 	O 	0.17920 0.76100 0.78420 -0.27600
O 	O 	0.23660 0.82780 0.92140 -0.36200
O 	O 	0.39600 0.79350 0.82610 -0.44200
O 	O 	0.25420 0.04060 0.54810 -0.33700
O 	O 	0.25930 0.88440 0.48630 -0.34300
O 	O 	0.44580 0.95880 0.52560 -0.46600
O 	O 	0.38870 0.73130 0.55120 -0.31100
O 	O 	0.57390 0.73800 0.60150 -0.30500
O 	O 	0.65240 0.77920 0.45130 -0.32700
O 	O 	0.47100 0.76490 0.40000 -0.33100
O 	O 	0.27540 0.84990 0.32290 -0.29500
O 	O 	0.26450 0.86950 0.18540 -0.32400
O 	O 	0.23370 0.69790 0.16490 -0.30000
O 	O 	0.25210 0.67430 0.30180 -0.30500
O 	O 	0.54240 0.65210 0.94950 -0.33400
O 	O 	0.36730 0.68460 0.00720 -0.30900
O 	O 	0.44300 0.84780 0.04470 -0.28900
O 	O 	0.62080 0.81680 0.98820 -0.27100
O 	O 	0.32080 0.23900 0.28420 -0.27500
O 	O 	0.26340 0.17220 0.42140 -0.36200
O 	O 	0.10400 0.20650 0.32610 -0.44200
O 	O 	0.24580 0.95940 0.04810 -0.33700
O 	O 	0.24070 0.11560 0.98630 -0.34400
O 	O 	0.05420 0.04120 0.02560 -0.46500
O 	O 	0.11130 0.26870 0.05120 -0.31100
O 	O 	0.92610 0.26200 0.10150 -0.30700
O 	O 	0.84760 0.22080 0.95130 -0.32600
O 	O 	0.02900 0.23510 0.90000 -0.33100
O 	O 	0.22460 0.15010 0.82290 -0.29500
O 	O 	0.23550 0.13050 0.68540 -0.32400
O 	O 	0.26630 0.30210 0.66490 -0.30000
O 	O 	0.24790 0.32570 0.80180 -0.30500
O 	O 	0.95760 0.34790 0.44950 -0.33500
O 	O 	0.13270 0.31540 0.50720 -0.31000
O 	O 	0.05700 0.15220 0.54470 -0.28800
O 	O 	0.87920 0.18320 0.48820 -0.27100
O 	O 	0.82080 0.26100 0.71580 -0.27600
O 	O 	0.76340 0.32780 0.57860 -0.36200
O 	O 	0.60400 0.29350 0.67390 -0.44200
O 	O 	0.74580 0.54060 0.95190 -0.33700
O 	O 	0.74070 0.38440 0.01370 -0.34400
O 	O 	0.55420 0.45880 0.97440 -0.46700
O 	O 	0.61130 0.23130 0.94880 -0.31000
O 	O 	0.42610 0.23800 0.89850 -0.30500
O 	O 	0.34760 0.27920 0.04870 -0.32600
O 	O 	0.52900 0.26490 0.10000 -0.33100
O 	O 	0.72460 0.34990 0.17710 -0.29500
O 	O 	0.73550 0.36950 0.31460 -0.32400
O 	O 	0.76630 0.19790 0.33510 -0.30000
O 	O 	0.74790 0.17430 0.19820 -0.30500
O 	O 	0.45760 0.15210 0.55050 -0.33400
O 	O 	0.63270 0.18460 0.49280 -0.30900
O 	O 	0.55700 0.34780 0.45530 -0.28900
O 	O 	0.37920 0.31680 0.51180 -0.27200
O 	O 	0.67920 0.73900 0.21580 -0.27600
O 	O 	0.73660 0.67220 0.07860 -0.36200
O 	O 	0.89600 0.70650 0.17390 -0.44200
O 	O 	0.75420 0.45940 0.45190 -0.33700
O 	O 	0.75930 0.61560 0.51370 -0.34300
O 	O 	0.94580 0.54120 0.47440 -0.46700
O 	O 	0.88870 0.76870 0.44880 -0.31100
O 	O 	0.07390 0.76200 0.39850 -0.30500
O 	O 	0.15240 0.72080 0.54870 -0.32600
O 	O 	0.97100 0.73510 0.60000 -0.33000
O 	O 	0.77540 0.65010 0.67710 -0.29500
O 	O 	0.76450 0.63050 0.81460 -0.32400
O 	O 	0.73370 0.80210 0.83510 -0.30000
O 	O 	0.75210 0.82570 0.69820 -0.30500
O 	O 	0.04240 0.84790 0.05050 -0.33400
O 	O 	0.86730 0.81540 0.99280 -0.30800
O 	O 	0.94300 0.65220 0.95530 -0.28700
O 	O 	0.12080 0.68320 0.01180 -0.27000
