data_crystal

_cell_length_a 11.68840
_cell_length_b 5.56430
_cell_length_c 22.81590
_cell_angle_alpha 90.00000
_cell_angle_beta  100.69100
_cell_angle_gamma 90.00000

_symmetry_space_group_name_	'P 1'
_symmetry_space_group_name_H-M	'P 1'

loop_
_symmetry_equiv_pos_as_xyz
  x,y,z

loop_
_atom_site_label
_atom_site_type_symbol
_atom_site_fract_x
_atom_site_fract_y
_atom_site_fract_z
_atom_site_charge
Ca	Ca	0.86258 0.75633 0.27818 1.51600
S 	S 	0.10145 0.96454 0.39330 0.30300
O 	O 	0.23970 0.91505 0.69092 -0.57200
O 	O 	0.23621 0.52343 0.67212 -0.50600
O 	O 	0.54211 0.91879 0.24461 -0.47900
O 	O 	0.51296 0.52383 0.25348 -0.46400
O 	O 	0.08446 0.22059 0.38950 -0.24100
O 	O 	0.00494 0.80562 0.37030 -0.35700
C 	C 	0.14670 0.89090 0.46929 0.00400
C 	C 	0.20595 0.06200 0.50775 -0.07600
H 	H 	0.22780 0.21110 0.49280 0.06400
C 	C 	0.23276 0.01220 0.56837 0.03000
H 	H 	0.27220 0.12830 0.59530 0.02400
C 	C 	0.20170 0.79140 0.58960 -0.12900
C 	C 	0.14677 0.61880 0.55025 0.04200
H 	H 	0.12870 0.46630 0.56490 0.02800
C 	C 	0.11802 0.66700 0.48962 -0.08200
H 	H 	0.07960 0.54990 0.46260 0.08200
C 	C 	0.22619 0.73840 0.65525 0.40700
C 	C 	0.21873 0.89080 0.35811 -0.00900
C 	C 	0.30779 0.05910 0.35955 -0.07500
H 	H 	0.30710 0.20510 0.38110 0.06400
C 	C 	0.39763 0.00980 0.32897 0.03600
H 	H 	0.45760 0.12450 0.32850 0.01900
C 	C 	0.39952 0.79180 0.29902 -0.13500
C 	C 	0.31163 0.62320 0.29972 0.03700
H 	H 	0.31460 0.47320 0.28010 0.03400
C 	C 	0.21940 0.67210 0.32884 -0.08100
H 	H 	0.15860 0.55880 0.32870 0.07500
C 	C 	0.49352 0.74100 0.26289 0.43800
Ca	Ca	0.63742 0.25633 0.22182 1.51800
S 	S 	0.39855 0.46454 0.10670 0.30400
O 	O 	0.26030 0.41505 0.80908 -0.57400
O 	O 	0.26379 0.02343 0.82788 -0.50800
O 	O 	0.95789 0.41879 0.25539 -0.47600
O 	O 	0.98704 0.02383 0.24652 -0.45900
O 	O 	0.41554 0.72059 0.11050 -0.24000
O 	O 	0.49506 0.30562 0.12970 -0.35600
C 	C 	0.35330 0.39090 0.03071 0.00100
C 	C 	0.29405 0.56200 0.99225 -0.07300
H 	H 	0.27220 0.71110 0.00720 0.06400
C 	C 	0.26724 0.51220 0.93163 0.03200
H 	H 	0.22780 0.62830 0.90470 0.02400
C 	C 	0.29830 0.29140 0.91040 -0.13100
C 	C 	0.35323 0.11880 0.94975 0.04100
H 	H 	0.37130 0.96630 0.93510 0.03000
C 	C 	0.38198 0.16700 0.01038 -0.08200
H 	H 	0.42040 0.04990 0.03740 0.08200
C 	C 	0.27381 0.23840 0.84475 0.40700
C 	C 	0.28127 0.39080 0.14189 -0.00900
C 	C 	0.19221 0.55910 0.14045 -0.07400
H 	H 	0.19290 0.70510 0.11890 0.06400
C 	C 	0.10237 0.50980 0.17103 0.03300
H 	H 	0.04240 0.62450 0.17150 0.02000
C 	C 	0.10048 0.29180 0.20098 -0.13200
C 	C 	0.18837 0.12320 0.20028 0.03400
H 	H 	0.18540 0.97320 0.21990 0.03500
C 	C 	0.28060 0.17210 0.17116 -0.08000
H 	H 	0.34140 0.05880 0.17130 0.07500
C 	C 	0.00648 0.24100 0.23711 0.43200
Ca	Ca	0.13742 0.24367 0.72182 1.51700
S 	S 	0.89855 0.03546 0.60670 0.30400
O 	O 	0.76030 0.08495 0.30908 -0.57200
O 	O 	0.76379 0.47657 0.32788 -0.50600
O 	O 	0.45789 0.08121 0.75539 -0.47900
O 	O 	0.48704 0.47617 0.74652 -0.46400
O 	O 	0.91554 0.77941 0.61050 -0.24100
O 	O 	0.99506 0.19438 0.62970 -0.35700
C 	C 	0.85330 0.10910 0.53071 0.00400
C 	C 	0.79405 0.93800 0.49225 -0.07600
H 	H 	0.77220 0.78890 0.50720 0.06400
C 	C 	0.76724 0.98780 0.43163 0.03000
H 	H 	0.72780 0.87170 0.40470 0.02400
C 	C 	0.79830 0.20860 0.41040 -0.12900
C 	C 	0.85323 0.38120 0.44975 0.04200
H 	H 	0.87130 0.53370 0.43510 0.02800
C 	C 	0.88198 0.33300 0.51038 -0.08200
H 	H 	0.92040 0.45010 0.53740 0.08200
C 	C 	0.77381 0.26160 0.34475 0.40700
C 	C 	0.78127 0.10920 0.64189 -0.00900
C 	C 	0.69221 0.94090 0.64045 -0.07500
H 	H 	0.69290 0.79490 0.61890 0.06400
C 	C 	0.60237 0.99020 0.67103 0.03600
H 	H 	0.54240 0.87550 0.67150 0.01900
C 	C 	0.60048 0.20820 0.70098 -0.13500
C 	C 	0.68837 0.37680 0.70028 0.03700
H 	H 	0.68540 0.52680 0.71990 0.03400
C 	C 	0.78060 0.32790 0.67116 -0.08100
H 	H 	0.84140 0.44120 0.67130 0.07500
C 	C 	0.50648 0.25900 0.73711 0.43800
Ca	Ca	0.36258 0.74367 0.77818 1.51800
S 	S 	0.60145 0.53546 0.89330 0.30400
O 	O 	0.73970 0.58495 0.19092 -0.57400
O 	O 	0.73621 0.97657 0.17212 -0.50800
O 	O 	0.04211 0.58121 0.74461 -0.47600
O 	O 	0.01296 0.97617 0.75348 -0.45900
O 	O 	0.58446 0.27941 0.88950 -0.24000
O 	O 	0.50494 0.69438 0.87030 -0.35600
C 	C 	0.64670 0.60910 0.96929 0.00100
C 	C 	0.70595 0.43800 0.00775 -0.07300
H 	H 	0.72780 0.28890 0.99280 0.06400
C 	C 	0.73276 0.48780 0.06837 0.03200
H 	H 	0.77220 0.37170 0.09530 0.02400
C 	C 	0.70170 0.70860 0.08960 -0.13100
C 	C 	0.64677 0.88120 0.05025 0.04100
H 	H 	0.62870 0.03370 0.06490 0.03000
C 	C 	0.61802 0.83300 0.98962 -0.08200
H 	H 	0.57960 0.95010 0.96260 0.08200
C 	C 	0.72619 0.76160 0.15525 0.40700
C 	C 	0.71873 0.60920 0.85811 -0.00900
C 	C 	0.80779 0.44090 0.85955 -0.07400
H 	H 	0.80710 0.29490 0.88110 0.06400
C 	C 	0.89763 0.49020 0.82897 0.03300
H 	H 	0.95760 0.37550 0.82850 0.02000
C 	C 	0.89952 0.70820 0.79902 -0.13200
C 	C 	0.81163 0.87680 0.79972 0.03400
H 	H 	0.81460 0.02680 0.78010 0.03500
C 	C 	0.71940 0.82790 0.82884 -0.08000
H 	H 	0.65860 0.94120 0.82870 0.07500
C 	C 	0.99352 0.75900 0.76289 0.43200
