data_crystal

_cell_length_a 11.80130
_cell_length_b 5.58270
_cell_length_c 22.72300
_cell_angle_alpha 90.00000
_cell_angle_beta  100.09200
_cell_angle_gamma 90.00000

_symmetry_space_group_name_	'P 1'
_symmetry_space_group_name_H-M	'P 1'

loop_
_symmetry_equiv_pos_as_xyz
  x,y,z

loop_
_atom_site_label
_atom_site_type_symbol
_atom_site_fract_x
_atom_site_fract_y
_atom_site_fract_z
_atom_site_charge
Ca	Ca	0.63783 0.24423 0.22287 1.51700
S 	S 	0.40115 0.03640 0.10805 0.30200
O 	O 	0.26576 0.47530 0.82829 -0.50400
O 	O 	0.26177 0.08410 0.80920 -0.57200
O 	O 	0.41854 0.78160 0.11215 -0.23900
O 	O 	0.49592 0.19580 0.13092 -0.35500
O 	O 	0.98569 0.47620 0.24494 -0.46100
O 	O 	0.95642 0.08150 0.25390 -0.47300
C 	C 	0.27611 0.26090 0.84485 0.40300
C 	C 	0.30225 0.20750 0.91090 -0.12700
C 	C 	0.35575 0.38050 0.95024 0.04000
H 	H 	0.37310 0.53280 0.93540 0.02900
C 	C 	0.38409 0.33290 0.01096 -0.08100
H 	H 	0.42110 0.45070 0.03780 0.08100
C 	C 	0.35719 0.10880 0.03165 -0.00100
C 	C 	0.29980 0.93670 0.99329 -0.07000
H 	H 	0.27940 0.78730 0.00850 0.06300
C 	C 	0.27283 0.98600 0.93246 0.02900
H 	H 	0.23450 0.86940 0.90570 0.02500
C 	C 	0.28380 0.10890 0.14322 -0.01200
C 	C 	0.28144 0.32870 0.17217 -0.08000
H 	H 	0.34130 0.44260 0.17230 0.07400
C 	C 	0.18884 0.37640 0.20083 0.03500
H 	H 	0.18470 0.52600 0.22030 0.03400
C 	C 	0.10213 0.20750 0.20137 -0.13500
C 	C 	0.00597 0.25970 0.23614 0.43000
C 	C 	0.10561 0.98940 0.17190 0.03700
H 	H 	0.04630 0.87460 0.17230 0.01900
C 	C 	0.19604 0.94010 0.14189 -0.07200
H 	H 	0.19810 0.79380 0.12080 0.06300
Ca	Ca	0.86217 0.74423 0.27713 1.51700
S 	S 	0.09885 0.53640 0.39195 0.30200
O 	O 	0.23424 0.97530 0.67171 -0.50500
O 	O 	0.23823 0.58410 0.69080 -0.57200
O 	O 	0.08146 0.28160 0.38785 -0.24100
O 	O 	0.00408 0.69580 0.36908 -0.35400
O 	O 	0.51431 0.97620 0.25506 -0.46100
O 	O 	0.54358 0.58150 0.24610 -0.47600
C 	C 	0.22389 0.76090 0.65515 0.40400
C 	C 	0.19775 0.70750 0.58910 -0.13000
C 	C 	0.14425 0.88050 0.54976 0.04600
H 	H 	0.12690 0.03280 0.56460 0.02600
C 	C 	0.11591 0.83290 0.48904 -0.08500
H 	H 	0.07890 0.95070 0.46220 0.08300
C 	C 	0.14281 0.60880 0.46835 0.00300
C 	C 	0.20020 0.43670 0.50671 -0.07500
H 	H 	0.22060 0.28730 0.49150 0.06400
C 	C 	0.22717 0.48600 0.56754 0.03200
H 	H 	0.26550 0.36940 0.59430 0.02400
C 	C 	0.21620 0.60890 0.35678 -0.00700
C 	C 	0.21856 0.82870 0.32783 -0.08400
H 	H 	0.15870 0.94260 0.32770 0.07700
C 	C 	0.31116 0.87640 0.29917 0.04100
H 	H 	0.31530 0.02600 0.27970 0.03000
C 	C 	0.39787 0.70750 0.29863 -0.13400
C 	C 	0.49403 0.75970 0.26386 0.43400
C 	C 	0.39439 0.48940 0.32810 0.03500
H 	H 	0.45370 0.37460 0.32770 0.01900
C 	C 	0.30396 0.44010 0.35811 -0.07600
H 	H 	0.30190 0.29380 0.37920 0.06400
Ca	Ca	0.36217 0.75577 0.77713 1.51700
S 	S 	0.59885 0.96360 0.89195 0.30200
O 	O 	0.73424 0.52470 0.17171 -0.50400
O 	O 	0.73823 0.91590 0.19080 -0.57200
O 	O 	0.58146 0.21840 0.88785 -0.23900
O 	O 	0.50408 0.80420 0.86908 -0.35500
O 	O 	0.01431 0.52380 0.75506 -0.46100
O 	O 	0.04358 0.91850 0.74610 -0.47300
C 	C 	0.72389 0.73910 0.15515 0.40300
C 	C 	0.69775 0.79250 0.08910 -0.12700
C 	C 	0.64425 0.61950 0.04976 0.04000
H 	H 	0.62690 0.46720 0.06460 0.02900
C 	C 	0.61591 0.66710 0.98904 -0.08100
H 	H 	0.57890 0.54930 0.96220 0.08100
C 	C 	0.64281 0.89120 0.96835 -0.00100
C 	C 	0.70020 0.06330 0.00671 -0.07000
H 	H 	0.72060 0.21270 0.99150 0.06300
C 	C 	0.72717 0.01400 0.06754 0.02900
H 	H 	0.76550 0.13060 0.09430 0.02500
C 	C 	0.71620 0.89110 0.85678 -0.01200
C 	C 	0.71856 0.67130 0.82783 -0.08000
H 	H 	0.65870 0.55740 0.82770 0.07400
C 	C 	0.81116 0.62360 0.79917 0.03500
H 	H 	0.81530 0.47400 0.77970 0.03400
C 	C 	0.89787 0.79250 0.79863 -0.13500
C 	C 	0.99403 0.74030 0.76386 0.43000
C 	C 	0.89439 0.01060 0.82810 0.03700
H 	H 	0.95370 0.12540 0.82770 0.01900
C 	C 	0.80396 0.05990 0.85811 -0.07200
H 	H 	0.80190 0.20620 0.87920 0.06300
Ca	Ca	0.13783 0.25577 0.72287 1.51700
S 	S 	0.90115 0.46360 0.60805 0.30200
O 	O 	0.76576 0.02470 0.32829 -0.50500
O 	O 	0.76177 0.41590 0.30920 -0.57200
O 	O 	0.91854 0.71840 0.61215 -0.24100
O 	O 	0.99592 0.30420 0.63092 -0.35400
O 	O 	0.48569 0.02380 0.74494 -0.46100
O 	O 	0.45642 0.41850 0.75390 -0.47600
C 	C 	0.77611 0.23910 0.34485 0.40400
C 	C 	0.80225 0.29250 0.41090 -0.13000
C 	C 	0.85575 0.11950 0.45024 0.04600
H 	H 	0.87310 0.96720 0.43540 0.02600
C 	C 	0.88409 0.16710 0.51096 -0.08500
H 	H 	0.92110 0.04930 0.53780 0.08300
C 	C 	0.85719 0.39120 0.53165 0.00300
C 	C 	0.79980 0.56330 0.49329 -0.07500
H 	H 	0.77940 0.71270 0.50850 0.06400
C 	C 	0.77283 0.51400 0.43246 0.03200
H 	H 	0.73450 0.63060 0.40570 0.02400
C 	C 	0.78380 0.39110 0.64322 -0.00700
C 	C 	0.78144 0.17130 0.67217 -0.08400
H 	H 	0.84130 0.05740 0.67230 0.07700
C 	C 	0.68884 0.12360 0.70083 0.04100
H 	H 	0.68470 0.97400 0.72030 0.03000
C 	C 	0.60213 0.29250 0.70137 -0.13400
C 	C 	0.50597 0.24030 0.73614 0.43400
C 	C 	0.60561 0.51060 0.67190 0.03500
H 	H 	0.54630 0.62540 0.67230 0.01900
C 	C 	0.69604 0.55990 0.64189 -0.07600
H 	H 	0.69810 0.70620 0.62080 0.06400
