data_crystal

_cell_length_a 11.71500
_cell_length_b 5.56790
_cell_length_c 22.82080
_cell_angle_alpha 90.00000
_cell_angle_beta  100.53200
_cell_angle_gamma 90.00000

_symmetry_space_group_name_	'P 1'
_symmetry_space_group_name_H-M	'P 1'

loop_
_symmetry_equiv_pos_as_xyz
  x,y,z

loop_
_atom_site_label
_atom_site_type_symbol
_atom_site_fract_x
_atom_site_fract_y
_atom_site_fract_z
_atom_site_charge
Ca	Ca	0.86255 0.24358 0.27793 1.51800
S 	S 	0.10095 0.03536 0.39303 0.30400
O 	O 	0.08355 0.77950 0.38907 -0.24000
O 	O 	0.00490 0.19450 0.37009 -0.35400
O 	O 	0.23571 0.47670 0.67200 -0.50600
O 	O 	0.23927 0.08510 0.69086 -0.57100
O 	O 	0.51327 0.47660 0.25391 -0.46200
O 	O 	0.54238 0.08080 0.24482 -0.47700
C 	C 	0.20110 0.20850 0.58947 -0.12700
C 	C 	0.14650 0.38070 0.55011 0.04100
H 	H 	0.12860 0.53310 0.56480 0.02900
C 	C 	0.11790 0.33250 0.48936 -0.08200
H 	H 	0.08010 0.45000 0.46240 0.08200
C 	C 	0.14579 0.10870 0.46905 0.00300
C 	C 	0.20530 0.93790 0.50746 -0.07500
H 	H 	0.22740 0.78910 0.49250 0.06400
C 	C 	0.23210 0.98830 0.56816 0.02900
H 	H 	0.27160 0.87240 0.59500 0.02400
C 	C 	0.22560 0.26190 0.65520 0.40500
C 	C 	0.39936 0.20800 0.29898 -0.13300
C 	C 	0.31160 0.37670 0.29973 0.03600
H 	H 	0.31460 0.52660 0.28020 0.03400
C 	C 	0.21960 0.32780 0.32884 -0.08200
H 	H 	0.15900 0.44120 0.32880 0.07500
C 	C 	0.21875 0.10870 0.35791 -0.00800
C 	C 	0.30710 0.94000 0.35928 -0.07500
H 	H 	0.30570 0.79350 0.38050 0.06400
C 	C 	0.39738 0.98970 0.32908 0.03400
H 	H 	0.45760 0.87550 0.32890 0.01900
C 	C 	0.49374 0.25870 0.26326 0.43300
Ca	Ca	0.63745 0.74358 0.22207 1.51800
S 	S 	0.39905 0.53536 0.10697 0.30300
O 	O 	0.41645 0.27950 0.11093 -0.24000
O 	O 	0.49510 0.69450 0.12991 -0.35500
O 	O 	0.26429 0.97670 0.82800 -0.50700
O 	O 	0.26073 0.58510 0.80914 -0.57300
O 	O 	0.98673 0.97660 0.24609 -0.45700
O 	O 	0.95762 0.58080 0.25518 -0.47400
C 	C 	0.29890 0.70850 0.91053 -0.13000
C 	C 	0.35350 0.88070 0.94989 0.04000
H 	H 	0.37140 0.03310 0.93520 0.03000
C 	C 	0.38210 0.83250 0.01064 -0.08100
H 	H 	0.41990 0.95000 0.03760 0.08200
C 	C 	0.35421 0.60870 0.03095 0.00100
C 	C 	0.29470 0.43790 0.99254 -0.07300
H 	H 	0.27260 0.28910 0.00750 0.06300
C 	C 	0.26790 0.48830 0.93184 0.03100
H 	H 	0.22840 0.37240 0.90500 0.02500
C 	C 	0.27440 0.76190 0.84480 0.40500
C 	C 	0.10064 0.70800 0.20102 -0.13000
C 	C 	0.18840 0.87670 0.20027 0.03300
H 	H 	0.18540 0.02660 0.21980 0.03500
C 	C 	0.28040 0.82780 0.17116 -0.08000
H 	H 	0.34100 0.94120 0.17120 0.07500
C 	C 	0.28125 0.60870 0.14209 -0.00900
C 	C 	0.19290 0.44000 0.14072 -0.07400
H 	H 	0.19430 0.29350 0.11950 0.06400
C 	C 	0.10262 0.48970 0.17092 0.03100
H 	H 	0.04240 0.37550 0.17110 0.02000
C 	C 	0.00626 0.75870 0.23674 0.42700
Ca	Ca	0.13745 0.75642 0.72207 1.51700
S 	S 	0.89905 0.96464 0.60697 0.30300
O 	O 	0.91645 0.22050 0.61093 -0.24100
O 	O 	0.99510 0.80550 0.62991 -0.35500
O 	O 	0.76429 0.52330 0.32800 -0.50600
O 	O 	0.76073 0.91490 0.30914 -0.57100
O 	O 	0.48673 0.52340 0.74609 -0.46200
O 	O 	0.45762 0.91920 0.75518 -0.47700
C 	C 	0.79890 0.79150 0.41053 -0.12700
C 	C 	0.85350 0.61930 0.44989 0.04100
H 	H 	0.87140 0.46690 0.43520 0.02900
C 	C 	0.88210 0.66750 0.51064 -0.08200
H 	H 	0.91990 0.55000 0.53760 0.08200
C 	C 	0.85421 0.89130 0.53095 0.00300
C 	C 	0.79470 0.06210 0.49254 -0.07500
H 	H 	0.77260 0.21090 0.50750 0.06400
C 	C 	0.76790 0.01170 0.43184 0.02900
H 	H 	0.72840 0.12760 0.40500 0.02400
C 	C 	0.77440 0.73810 0.34480 0.40500
C 	C 	0.60064 0.79200 0.70102 -0.13300
C 	C 	0.68840 0.62330 0.70027 0.03600
H 	H 	0.68540 0.47340 0.71980 0.03400
C 	C 	0.78040 0.67220 0.67116 -0.08200
H 	H 	0.84100 0.55880 0.67120 0.07500
C 	C 	0.78125 0.89130 0.64209 -0.00800
C 	C 	0.69290 0.06000 0.64072 -0.07500
H 	H 	0.69430 0.20650 0.61950 0.06400
C 	C 	0.60262 0.01030 0.67092 0.03400
H 	H 	0.54240 0.12450 0.67110 0.01900
C 	C 	0.50626 0.74130 0.73674 0.43300
Ca	Ca	0.36255 0.25642 0.77793 1.51800
S 	S 	0.60095 0.46464 0.89303 0.30300
O 	O 	0.58355 0.72050 0.88907 -0.24000
O 	O 	0.50490 0.30550 0.87009 -0.35500
O 	O 	0.73571 0.02330 0.17200 -0.50700
O 	O 	0.73927 0.41490 0.19086 -0.57300
O 	O 	0.01327 0.02340 0.75391 -0.45700
O 	O 	0.04238 0.41920 0.74482 -0.47400
C 	C 	0.70110 0.29150 0.08947 -0.13000
C 	C 	0.64650 0.11930 0.05011 0.04000
H 	H 	0.62860 0.96690 0.06480 0.03000
C 	C 	0.61790 0.16750 0.98936 -0.08100
H 	H 	0.58010 0.05000 0.96240 0.08200
C 	C 	0.64579 0.39130 0.96905 0.00100
C 	C 	0.70530 0.56210 0.00746 -0.07300
H 	H 	0.72740 0.71090 0.99250 0.06300
C 	C 	0.73210 0.51170 0.06816 0.03100
H 	H 	0.77160 0.62760 0.09500 0.02500
C 	C 	0.72560 0.23810 0.15520 0.40500
C 	C 	0.89936 0.29200 0.79898 -0.13000
C 	C 	0.81160 0.12330 0.79973 0.03300
H 	H 	0.81460 0.97340 0.78020 0.03500
C 	C 	0.71960 0.17220 0.82884 -0.08000
H 	H 	0.65900 0.05880 0.82880 0.07500
C 	C 	0.71875 0.39130 0.85791 -0.00900
C 	C 	0.80710 0.56000 0.85928 -0.07400
H 	H 	0.80570 0.70650 0.88050 0.06400
C 	C 	0.89738 0.51030 0.82908 0.03100
H 	H 	0.95760 0.62450 0.82890 0.02000
C 	C 	0.99374 0.24130 0.76326 0.42700
