data_crystal

_cell_length_a 11.87670
_cell_length_b 5.57690
_cell_length_c 22.48600
_cell_angle_alpha 90.00000
_cell_angle_beta  99.89300
_cell_angle_gamma 90.00000

_symmetry_space_group_name_	'P 1'
_symmetry_space_group_name_H-M	'P 1'

loop_
_symmetry_equiv_pos_as_xyz
  x,y,z

loop_
_atom_site_label
_atom_site_type_symbol
_atom_site_fract_x
_atom_site_fract_y
_atom_site_fract_z
_atom_site_charge
Ca	Ca	0.59630 0.74417 0.04161 1.51600
S 	S 	0.88397 0.53388 0.10242 0.30100
O 	O 	0.40465 0.58140 0.02671 -0.57200
O 	O 	0.37065 0.97180 0.03024 -0.50700
O 	O 	0.80386 0.69540 0.06651 -0.35500
O 	O 	0.86886 0.27930 0.09538 -0.24200
O 	O 	0.88713 0.97230 0.38011 -0.45900
O 	O 	0.89872 0.57940 0.40022 -0.49100
C 	C 	0.34236 0.75770 0.03549 0.41500
C 	C 	0.23040 0.70480 0.05528 -0.13500
C 	C 	0.14507 0.87750 0.04795 0.04500
H 	H 	0.15930 0.03020 0.03210 0.02900
C 	C 	0.03923 0.82990 0.06353 -0.08800
H 	H 	0.98090 0.94840 0.05860 0.08500
C 	C 	0.02066 0.60560 0.08647 0.00600
C 	C 	0.10623 0.43320 0.09629 -0.07800
H 	H 	0.09280 0.28300 0.11370 0.06600
C 	C 	0.21150 0.48320 0.08029 0.03700
H 	H 	0.27060 0.36630 0.08640 0.02300
C 	C 	0.88968 0.60580 0.17910 -0.00500
C 	C 	0.84930 0.82600 0.19511 -0.08700
H 	H 	0.81940 0.94040 0.16520 0.07600
C 	C 	0.85395 0.87420 0.25632 0.04600
H 	H 	0.82780 0.02440 0.26850 0.02800
C 	C 	0.89645 0.70500 0.29980 -0.14100
C 	C 	0.89453 0.75640 0.36581 0.44500
C 	C 	0.93669 0.48550 0.28267 0.04000
H 	H 	0.96570 0.37010 0.31250 0.01700
C 	C 	0.93438 0.43550 0.22195 -0.08000
H 	H 	0.96290 0.28740 0.20990 0.06500
Ca	Ca	0.90370 0.24417 0.45839 1.51700
S 	S 	0.61603 0.03388 0.39758 0.30200
O 	O 	0.09535 0.08140 0.47329 -0.57200
O 	O 	0.12935 0.47180 0.46976 -0.50700
O 	O 	0.69614 0.19540 0.43349 -0.35600
O 	O 	0.63114 0.77930 0.40462 -0.24000
O 	O 	0.61287 0.47230 0.11989 -0.46100
O 	O 	0.60128 0.07940 0.09978 -0.49100
C 	C 	0.15764 0.25770 0.46451 0.41500
C 	C 	0.26960 0.20480 0.44472 -0.13400
C 	C 	0.35493 0.37750 0.45205 0.04600
H 	H 	0.34070 0.53020 0.46790 0.02800
C 	C 	0.46077 0.32990 0.43647 -0.08500
H 	H 	0.51910 0.44840 0.44140 0.08300
C 	C 	0.47934 0.10560 0.41353 0.00400
C 	C 	0.39377 0.93320 0.40371 -0.07600
H 	H 	0.40720 0.78300 0.38630 0.06400
C 	C 	0.28850 0.98320 0.41971 0.03500
H 	H 	0.22940 0.86630 0.41360 0.02300
C 	C 	0.61032 0.10580 0.32090 -0.00900
C 	C 	0.65070 0.32600 0.30489 -0.08200
H 	H 	0.68060 0.44040 0.33480 0.07400
C 	C 	0.64605 0.37420 0.24368 0.03800
H 	H 	0.67220 0.52440 0.23150 0.03300
C 	C 	0.60355 0.20500 0.20020 -0.14000
C 	C 	0.60547 0.25640 0.13419 0.44400
C 	C 	0.56331 0.98550 0.21733 0.03900
H 	H 	0.53430 0.87010 0.18750 0.01800
C 	C 	0.56562 0.93550 0.27805 -0.07500
H 	H 	0.53710 0.78740 0.29010 0.06400
Ca	Ca	0.40370 0.25583 0.95839 1.51700
S 	S 	0.11603 0.46612 0.89758 0.30200
O 	O 	0.59535 0.41860 0.97329 -0.57200
O 	O 	0.62935 0.02820 0.96976 -0.50700
O 	O 	0.19614 0.30460 0.93349 -0.35500
O 	O 	0.13114 0.72070 0.90462 -0.24200
O 	O 	0.11287 0.02770 0.61989 -0.45900
O 	O 	0.10128 0.42060 0.59978 -0.49100
C 	C 	0.65764 0.24230 0.96451 0.41500
C 	C 	0.76960 0.29520 0.94472 -0.13500
C 	C 	0.85493 0.12250 0.95205 0.04500
H 	H 	0.84070 0.96980 0.96790 0.02900
C 	C 	0.96077 0.17010 0.93647 -0.08800
H 	H 	0.01910 0.05160 0.94140 0.08500
C 	C 	0.97934 0.39440 0.91353 0.00600
C 	C 	0.89377 0.56680 0.90371 -0.07800
H 	H 	0.90720 0.71700 0.88630 0.06600
C 	C 	0.78850 0.51680 0.91971 0.03700
H 	H 	0.72940 0.63370 0.91360 0.02300
C 	C 	0.11032 0.39420 0.82090 -0.00500
C 	C 	0.15070 0.17400 0.80489 -0.08700
H 	H 	0.18060 0.05960 0.83480 0.07600
C 	C 	0.14605 0.12580 0.74368 0.04600
H 	H 	0.17220 0.97560 0.73150 0.02800
C 	C 	0.10355 0.29500 0.70020 -0.14100
C 	C 	0.10547 0.24360 0.63419 0.44500
C 	C 	0.06331 0.51450 0.71733 0.04000
H 	H 	0.03430 0.62990 0.68750 0.01700
C 	C 	0.06562 0.56450 0.77805 -0.08000
H 	H 	0.03710 0.71260 0.79010 0.06500
Ca	Ca	0.09630 0.75583 0.54161 1.51700
S 	S 	0.38397 0.96612 0.60242 0.30200
O 	O 	0.90465 0.91860 0.52671 -0.57200
O 	O 	0.87065 0.52820 0.53024 -0.50700
O 	O 	0.30386 0.80460 0.56651 -0.35600
O 	O 	0.36886 0.22070 0.59538 -0.24000
O 	O 	0.38713 0.52770 0.88011 -0.46100
O 	O 	0.39872 0.92060 0.90022 -0.49100
C 	C 	0.84236 0.74230 0.53549 0.41500
C 	C 	0.73040 0.79520 0.55528 -0.13400
C 	C 	0.64507 0.62250 0.54795 0.04600
H 	H 	0.65930 0.46980 0.53210 0.02800
C 	C 	0.53923 0.67010 0.56353 -0.08500
H 	H 	0.48090 0.55160 0.55860 0.08300
C 	C 	0.52066 0.89440 0.58647 0.00400
C 	C 	0.60623 0.06680 0.59629 -0.07600
H 	H 	0.59280 0.21700 0.61370 0.06400
C 	C 	0.71150 0.01680 0.58029 0.03500
H 	H 	0.77060 0.13370 0.58640 0.02300
C 	C 	0.38968 0.89420 0.67910 -0.00900
C 	C 	0.34930 0.67400 0.69511 -0.08200
H 	H 	0.31940 0.55960 0.66520 0.07400
C 	C 	0.35395 0.62580 0.75632 0.03800
H 	H 	0.32780 0.47560 0.76850 0.03300
C 	C 	0.39645 0.79500 0.79980 -0.14000
C 	C 	0.39453 0.74360 0.86581 0.44400
C 	C 	0.43669 0.01450 0.78267 0.03900
H 	H 	0.46570 0.12990 0.81250 0.01800
C 	C 	0.43438 0.06450 0.72195 -0.07500
H 	H 	0.46290 0.21260 0.70990 0.06400
