data_crystal

_cell_length_a 11.72920
_cell_length_b 5.56850
_cell_length_c 22.79200
_cell_angle_alpha 90.00000
_cell_angle_beta  100.49300
_cell_angle_gamma 90.00000

_symmetry_space_group_name_	'P 1'
_symmetry_space_group_name_H-M	'P 1'

loop_
_symmetry_equiv_pos_as_xyz
  x,y,z

loop_
_atom_site_label
_atom_site_type_symbol
_atom_site_fract_x
_atom_site_fract_y
_atom_site_fract_z
_atom_site_charge
Ca	Ca	0.63749 0.75620 0.22222 1.51700
S 	S 	0.39917 0.96451 0.10714 0.30000
O 	O 	0.26084 0.91557 0.80924 -0.57500
O 	O 	0.26461 0.52420 0.82797 -0.50800
O 	O 	0.95767 0.91915 0.25482 -0.47700
O 	O 	0.98643 0.52363 0.24585 -0.46400
O 	O 	0.41621 0.22042 0.11108 -0.23800
O 	O 	0.49514 0.80548 0.13020 -0.35500
C 	C 	0.35455 0.89150 0.03111 0.00100
C 	C 	0.38241 0.66740 0.01067 -0.08300
H 	H 	0.42000 0.54980 0.03760 0.08300
C 	C 	0.35388 0.61980 0.94993 0.04400
H 	H 	0.37200 0.46760 0.93520 0.02800
C 	C 	0.29938 0.79180 0.91059 -0.13200
C 	C 	0.26898 0.01220 0.93202 0.03300
H 	H 	0.23010 0.12860 0.90510 0.02400
C 	C 	0.29539 0.06210 0.99258 -0.07200
H 	H 	0.27330 0.21090 0.00760 0.06300
C 	C 	0.27457 0.73860 0.84470 0.40900
C 	C 	0.28174 0.89120 0.14223 -0.01100
C 	C 	0.19304 0.05950 0.14080 -0.07200
H 	H 	0.19420 0.20580 0.11950 0.06400
C 	C 	0.10297 0.00980 0.17102 0.03800
H 	H 	0.04300 0.12420 0.17130 0.01900
C 	C 	0.10079 0.79200 0.20092 -0.13600
C 	C 	0.18833 0.62360 0.20040 0.03600
H 	H 	0.18510 0.47400 0.22010 0.03400
C 	C 	0.28073 0.67180 0.17139 -0.08100
H 	H 	0.34120 0.55820 0.17150 0.07500
C 	C 	0.00606 0.74060 0.23671 0.43300
Ca	Ca	0.86251 0.25620 0.27778 1.51800
S 	S 	0.10083 0.46451 0.39286 0.30100
O 	O 	0.23916 0.41557 0.69076 -0.57400
O 	O 	0.23539 0.02420 0.67203 -0.50800
O 	O 	0.54233 0.41915 0.24518 -0.47800
O 	O 	0.51357 0.02363 0.25415 -0.46300
O 	O 	0.08379 0.72042 0.38892 -0.24100
O 	O 	0.00486 0.30548 0.36980 -0.35500
C 	C 	0.14545 0.39150 0.46889 0.00400
C 	C 	0.11759 0.16740 0.48933 -0.08700
H 	H 	0.08000 0.04980 0.46240 0.08500
C 	C 	0.14612 0.11980 0.55007 0.04900
H 	H 	0.12800 0.96760 0.56480 0.02500
C 	C 	0.20062 0.29180 0.58941 -0.13500
C 	C 	0.23102 0.51220 0.56798 0.03600
H 	H 	0.26990 0.62860 0.59490 0.02300
C 	C 	0.20461 0.56210 0.50742 -0.07700
H 	H 	0.22670 0.71090 0.49240 0.06500
C 	C 	0.22543 0.23860 0.65530 0.41000
C 	C 	0.21826 0.39120 0.35777 -0.00600
C 	C 	0.30696 0.55950 0.35920 -0.07700
H 	H 	0.30580 0.70580 0.38050 0.06400
C 	C 	0.39703 0.50980 0.32898 0.03600
H 	H 	0.45700 0.62420 0.32870 0.01900
C 	C 	0.39921 0.29200 0.29908 -0.13600
C 	C 	0.31167 0.12360 0.29960 0.04200
H 	H 	0.31490 0.97400 0.27990 0.03000
C 	C 	0.21927 0.17180 0.32861 -0.08500
H 	H 	0.15880 0.05820 0.32850 0.07700
C 	C 	0.49394 0.24060 0.26329 0.43800
Ca	Ca	0.36251 0.24380 0.77778 1.51800
S 	S 	0.60083 0.03549 0.89286 0.30100
O 	O 	0.73916 0.08443 0.19076 -0.57400
O 	O 	0.73539 0.47580 0.17203 -0.50700
O 	O 	0.04233 0.08085 0.74518 -0.47600
O 	O 	0.01357 0.47637 0.75415 -0.46300
O 	O 	0.58379 0.77958 0.88892 -0.23800
O 	O 	0.50486 0.19452 0.86980 -0.35500
C 	C 	0.64545 0.10850 0.96889 0.00100
C 	C 	0.61759 0.33260 0.98933 -0.08300
H 	H 	0.58000 0.45020 0.96240 0.08300
C 	C 	0.64612 0.38020 0.05007 0.04400
H 	H 	0.62800 0.53240 0.06480 0.02800
C 	C 	0.70062 0.20820 0.08941 -0.13200
C 	C 	0.73102 0.98780 0.06798 0.03300
H 	H 	0.76990 0.87140 0.09490 0.02400
C 	C 	0.70461 0.93790 0.00742 -0.07200
H 	H 	0.72670 0.78910 0.99240 0.06300
C 	C 	0.72543 0.26140 0.15530 0.40900
C 	C 	0.71826 0.10880 0.85777 -0.01100
C 	C 	0.80696 0.94050 0.85920 -0.07200
H 	H 	0.80580 0.79420 0.88050 0.06400
C 	C 	0.89703 0.99020 0.82898 0.03800
H 	H 	0.95700 0.87580 0.82870 0.01900
C 	C 	0.89921 0.20800 0.79908 -0.13600
C 	C 	0.81167 0.37640 0.79960 0.03600
H 	H 	0.81490 0.52600 0.77990 0.03400
C 	C 	0.71927 0.32820 0.82861 -0.08100
H 	H 	0.65880 0.44180 0.82850 0.07500
C 	C 	0.99394 0.25940 0.76329 0.43300
Ca	Ca	0.13749 0.74380 0.72222 1.51800
S 	S 	0.89917 0.53549 0.60714 0.30100
O 	O 	0.76084 0.58443 0.30924 -0.57400
O 	O 	0.76461 0.97580 0.32797 -0.50800
O 	O 	0.45767 0.58085 0.75482 -0.47800
O 	O 	0.48643 0.97637 0.74585 -0.46300
O 	O 	0.91621 0.27958 0.61108 -0.24100
O 	O 	0.99514 0.69452 0.63020 -0.35500
C 	C 	0.85455 0.60850 0.53111 0.00400
C 	C 	0.88241 0.83260 0.51067 -0.08700
H 	H 	0.92000 0.95020 0.53760 0.08500
C 	C 	0.85388 0.88020 0.44993 0.04900
H 	H 	0.87200 0.03240 0.43520 0.02500
C 	C 	0.79938 0.70820 0.41059 -0.13500
C 	C 	0.76898 0.48780 0.43202 0.03600
H 	H 	0.73010 0.37140 0.40510 0.02300
C 	C 	0.79539 0.43790 0.49258 -0.07700
H 	H 	0.77330 0.28910 0.50760 0.06500
C 	C 	0.77457 0.76140 0.34470 0.41000
C 	C 	0.78174 0.60880 0.64223 -0.00600
C 	C 	0.69304 0.44050 0.64080 -0.07700
H 	H 	0.69420 0.29420 0.61950 0.06400
C 	C 	0.60297 0.49020 0.67102 0.03600
H 	H 	0.54300 0.37580 0.67130 0.01900
C 	C 	0.60079 0.70800 0.70092 -0.13600
C 	C 	0.68833 0.87640 0.70040 0.04200
H 	H 	0.68510 0.02600 0.72010 0.03000
C 	C 	0.78073 0.82820 0.67139 -0.08500
H 	H 	0.84120 0.94180 0.67150 0.07700
C 	C 	0.50606 0.75940 0.73671 0.43800
