data_crystal

_cell_length_a 11.64260
_cell_length_b 5.55740
_cell_length_c 22.84460
_cell_angle_alpha 90.00000
_cell_angle_beta  100.68100
_cell_angle_gamma 90.00000

_symmetry_space_group_name_	'P 1'
_symmetry_space_group_name_H-M	'P 1'

loop_
_symmetry_equiv_pos_as_xyz
  x,y,z

loop_
_atom_site_label
_atom_site_type_symbol
_atom_site_fract_x
_atom_site_fract_y
_atom_site_fract_z
_atom_site_charge
Ca	Ca	0.63725 0.74145 0.22125 1.51900
S 	S 	0.39739 0.53299 0.10609 0.30500
O 	O 	0.25956 0.58773 0.80892 -0.57400
O 	O 	0.26333 0.97921 0.82817 -0.50800
O 	O 	0.98726 0.97435 0.24690 -0.45900
O 	O 	0.95839 0.57891 0.25634 -0.47600
O 	O 	0.41423 0.27672 0.10967 -0.24000
O 	O 	0.49453 0.69109 0.12907 -0.35600
C 	C 	0.27313 0.76430 0.84464 0.41100
C 	C 	0.29730 0.70970 0.91011 -0.13300
C 	C 	0.26526 0.48910 0.93115 0.03300
H 	H 	0.22530 0.37370 0.90410 0.02400
C 	C 	0.29170 0.43800 0.99168 -0.07400
H 	H 	0.26900 0.28900 0.00650 0.06400
C 	C 	0.35195 0.60830 0.03031 0.00100
C 	C 	0.38114 0.83210 0.01029 -0.08200
H 	H 	0.41960 0.94880 0.03740 0.08300
C 	C 	0.35291 0.88170 0.94973 0.04200
H 	H 	0.37170 0.03420 0.93530 0.02900
C 	C 	0.28003 0.60680 0.14147 -0.00800
C 	C 	0.19084 0.43860 0.14017 -0.07500
H 	H 	0.19120 0.29270 0.11850 0.06500
C 	C 	0.10135 0.48790 0.17107 0.03500
H 	H 	0.04100 0.37330 0.17150 0.01900
C 	C 	0.10016 0.70520 0.20137 -0.13500
C 	C 	0.00677 0.75670 0.23766 0.43300
C 	C 	0.18832 0.87430 0.20036 0.03600
H 	H 	0.18570 0.02430 0.22000 0.03400
C 	C 	0.28006 0.82550 0.17088 -0.08100
H 	H 	0.34110 0.93880 0.17090 0.07500
Ca	Ca	0.86275 0.24145 0.27874 1.51800
S 	S 	0.10261 0.03299 0.39391 0.30500
O 	O 	0.24044 0.08773 0.69108 -0.57300
O 	O 	0.23667 0.47921 0.67183 -0.50800
O 	O 	0.51274 0.47435 0.25310 -0.46500
O 	O 	0.54161 0.07891 0.24366 -0.48000
O 	O 	0.08577 0.77672 0.39033 -0.24100
O 	O 	0.00547 0.19109 0.37093 -0.35700
C 	C 	0.22687 0.26430 0.65536 0.41000
C 	C 	0.20270 0.20970 0.58989 -0.13100
C 	C 	0.23474 0.98910 0.56885 0.03000
H 	H 	0.27470 0.87370 0.59590 0.02400
C 	C 	0.20830 0.93800 0.50832 -0.07600
H 	H 	0.23100 0.78900 0.49350 0.06400
C 	C 	0.14805 0.10830 0.46969 0.00400
C 	C 	0.11886 0.33210 0.48971 -0.08300
H 	H 	0.08040 0.44880 0.46260 0.08300
C 	C 	0.14709 0.38170 0.55027 0.04300
H 	H 	0.12830 0.53420 0.56470 0.02800
C 	C 	0.21997 0.10680 0.35853 -0.00800
C 	C 	0.30916 0.93860 0.35983 -0.07700
H 	H 	0.30880 0.79270 0.38150 0.06500
C 	C 	0.39865 0.98790 0.32893 0.03800
H 	H 	0.45900 0.87330 0.32850 0.01800
C 	C 	0.39984 0.20520 0.29863 -0.13800
C 	C 	0.49323 0.25670 0.26234 0.44000
C 	C 	0.31168 0.37430 0.29964 0.03800
H 	H 	0.31430 0.52430 0.28000 0.03300
C 	C 	0.21994 0.32550 0.32912 -0.08300
H 	H 	0.15890 0.43880 0.32910 0.07500
Ca	Ca	0.36275 0.25855 0.77874 1.51800
S 	S 	0.60261 0.46701 0.89391 0.30400
O 	O 	0.74044 0.41227 0.19108 -0.57500
O 	O 	0.73667 0.02079 0.17183 -0.50900
O 	O 	0.01274 0.02565 0.75310 -0.46000
O 	O 	0.04161 0.42109 0.74366 -0.47700
O 	O 	0.58577 0.72328 0.89033 -0.24000
O 	O 	0.50547 0.30891 0.87093 -0.35600
C 	C 	0.72687 0.23570 0.15536 0.41100
C 	C 	0.70270 0.29030 0.08989 -0.13300
C 	C 	0.73474 0.51090 0.06885 0.03300
H 	H 	0.77470 0.62630 0.09590 0.02400
C 	C 	0.70830 0.56200 0.00832 -0.07400
H 	H 	0.73100 0.71100 0.99350 0.06400
C 	C 	0.64805 0.39170 0.96969 0.00100
C 	C 	0.61886 0.16790 0.98971 -0.08200
H 	H 	0.58040 0.05120 0.96260 0.08300
C 	C 	0.64709 0.11830 0.05027 0.04200
H 	H 	0.62830 0.96580 0.06470 0.02900
C 	C 	0.71997 0.39320 0.85853 -0.00800
C 	C 	0.80916 0.56140 0.85983 -0.07500
H 	H 	0.80880 0.70730 0.88150 0.06500
C 	C 	0.89865 0.51210 0.82893 0.03500
H 	H 	0.95900 0.62670 0.82850 0.01900
C 	C 	0.89984 0.29480 0.79863 -0.13500
C 	C 	0.99323 0.24330 0.76234 0.43300
C 	C 	0.81168 0.12570 0.79964 0.03600
H 	H 	0.81430 0.97570 0.78000 0.03400
C 	C 	0.71994 0.17450 0.82912 -0.08100
H 	H 	0.65890 0.06120 0.82910 0.07500
Ca	Ca	0.13725 0.75855 0.72125 1.51800
S 	S 	0.89739 0.96701 0.60609 0.30500
O 	O 	0.75956 0.91227 0.30892 -0.57300
O 	O 	0.76333 0.52079 0.32817 -0.50800
O 	O 	0.48726 0.52565 0.74690 -0.46500
O 	O 	0.45839 0.92109 0.75634 -0.48000
O 	O 	0.91423 0.22328 0.60967 -0.24100
O 	O 	0.99453 0.80891 0.62907 -0.35700
C 	C 	0.77313 0.73570 0.34464 0.41000
C 	C 	0.79730 0.79030 0.41011 -0.13100
C 	C 	0.76526 0.01090 0.43115 0.03000
H 	H 	0.72530 0.12630 0.40410 0.02400
C 	C 	0.79170 0.06200 0.49168 -0.07600
H 	H 	0.76900 0.21100 0.50650 0.06400
C 	C 	0.85195 0.89170 0.53031 0.00400
C 	C 	0.88114 0.66790 0.51029 -0.08300
H 	H 	0.91960 0.55120 0.53740 0.08300
C 	C 	0.85291 0.61830 0.44973 0.04300
H 	H 	0.87170 0.46580 0.43530 0.02800
C 	C 	0.78003 0.89320 0.64147 -0.00800
C 	C 	0.69084 0.06140 0.64017 -0.07700
H 	H 	0.69120 0.20730 0.61850 0.06500
C 	C 	0.60135 0.01210 0.67107 0.03800
H 	H 	0.54100 0.12670 0.67150 0.01800
C 	C 	0.60016 0.79480 0.70137 -0.13800
C 	C 	0.50677 0.74330 0.73766 0.44000
C 	C 	0.68832 0.62570 0.70036 0.03800
H 	H 	0.68570 0.47570 0.72000 0.03300
C 	C 	0.78006 0.67450 0.67088 -0.08300
H 	H 	0.84110 0.56120 0.67090 0.07500
