data_crystal

_cell_length_a 11.70730
_cell_length_b 5.56470
_cell_length_c 22.83000
_cell_angle_alpha 90.00000
_cell_angle_beta  100.58600
_cell_angle_gamma 90.00000

_symmetry_space_group_name_	'P 1'
_symmetry_space_group_name_H-M	'P 1'

loop_
_symmetry_equiv_pos_as_xyz
  x,y,z

loop_
_atom_site_label
_atom_site_type_symbol
_atom_site_fract_x
_atom_site_fract_y
_atom_site_fract_z
_atom_site_charge
Ca	Ca	0.63729 0.25666 0.22192 1.51800
S 	S 	0.39846 0.46493 0.10674 0.30300
O 	O 	0.26426 0.02310 0.82792 -0.50800
O 	O 	0.26053 0.41490 0.80911 -0.57400
O 	O 	0.41539 0.72090 0.11051 -0.24000
O 	O 	0.49480 0.30610 0.12965 -0.35500
O 	O 	0.98711 0.02410 0.24639 -0.45900
O 	O 	0.95804 0.41960 0.25535 -0.47500
C 	C 	0.10083 0.29250 0.20110 -0.13200
C 	C 	0.29868 0.29150 0.91041 -0.13000
C 	C 	0.19234 0.55960 0.14051 -0.07500
H 	H 	0.19320 0.70550 0.11900 0.06400
C 	C 	0.26760 0.51200 0.93165 0.03100
H 	H 	0.22830 0.62810 0.90470 0.02500
C 	C 	0.10262 0.51030 0.17100 0.03300
H 	H 	0.04260 0.62480 0.17140 0.02000
C 	C 	0.29424 0.56210 0.99237 -0.07300
H 	H 	0.27220 0.71090 0.00740 0.06400
C 	C 	0.38210 0.16740 0.01042 -0.08200
H 	H 	0.42010 0.05020 0.03740 0.08200
C 	C 	0.18857 0.12420 0.20044 0.03400
H 	H 	0.18560 0.97450 0.22010 0.03400
C 	C 	0.28046 0.17220 0.17132 -0.08100
H 	H 	0.34110 0.05860 0.17140 0.07500
C 	C 	0.27420 0.23820 0.84462 0.40700
C 	C 	0.35396 0.11910 0.94983 0.04000
H 	H 	0.37260 0.96710 0.93520 0.03000
C 	C 	0.00659 0.24100 0.23699 0.43000
C 	C 	0.35353 0.39080 0.03067 0.00200
C 	C 	0.28117 0.39130 0.14203 -0.00900
Ca	Ca	0.86271 0.75666 0.27808 1.51700
S 	S 	0.10154 0.96493 0.39326 0.30300
O 	O 	0.23574 0.52310 0.67208 -0.50600
O 	O 	0.23947 0.91490 0.69089 -0.57200
O 	O 	0.08461 0.22090 0.38949 -0.24100
O 	O 	0.00520 0.80610 0.37035 -0.35500
O 	O 	0.51289 0.52410 0.25361 -0.46400
O 	O 	0.54196 0.91960 0.24465 -0.47800
C 	C 	0.39917 0.79250 0.29890 -0.13500
C 	C 	0.20132 0.79150 0.58959 -0.12700
C 	C 	0.30766 0.05960 0.35949 -0.07600
H 	H 	0.30680 0.20550 0.38100 0.06500
C 	C 	0.23240 0.01200 0.56835 0.02900
H 	H 	0.27170 0.12810 0.59530 0.02500
C 	C 	0.39738 0.01030 0.32900 0.03600
H 	H 	0.45740 0.12480 0.32860 0.01900
C 	C 	0.20576 0.06210 0.50763 -0.07500
H 	H 	0.22780 0.21090 0.49260 0.06400
C 	C 	0.11790 0.66740 0.48958 -0.08200
H 	H 	0.07990 0.55020 0.46260 0.08200
C 	C 	0.31143 0.62420 0.29956 0.03700
H 	H 	0.31440 0.47450 0.27990 0.03400
C 	C 	0.21954 0.67220 0.32868 -0.08200
H 	H 	0.15890 0.55860 0.32860 0.07500
C 	C 	0.22580 0.73820 0.65538 0.40600
C 	C 	0.14604 0.61910 0.55017 0.04100
H 	H 	0.12740 0.46710 0.56480 0.02900
C 	C 	0.49341 0.74100 0.26301 0.43600
C 	C 	0.14647 0.89080 0.46933 0.00400
C 	C 	0.21883 0.89130 0.35797 -0.00800
Ca	Ca	0.36271 0.74334 0.77808 1.51800
S 	S 	0.60154 0.53507 0.89326 0.30300
O 	O 	0.73574 0.97690 0.17208 -0.50800
O 	O 	0.73947 0.58510 0.19089 -0.57400
O 	O 	0.58461 0.27910 0.88949 -0.24000
O 	O 	0.50520 0.69390 0.87035 -0.35500
O 	O 	0.01289 0.97590 0.75361 -0.45900
O 	O 	0.04196 0.58040 0.74465 -0.47500
C 	C 	0.89917 0.70750 0.79890 -0.13200
C 	C 	0.70132 0.70850 0.08959 -0.13000
C 	C 	0.80766 0.44040 0.85949 -0.07500
H 	H 	0.80680 0.29450 0.88100 0.06400
C 	C 	0.73240 0.48800 0.06835 0.03100
H 	H 	0.77170 0.37190 0.09530 0.02500
C 	C 	0.89738 0.48970 0.82900 0.03300
H 	H 	0.95740 0.37520 0.82860 0.02000
C 	C 	0.70576 0.43790 0.00763 -0.07300
H 	H 	0.72780 0.28910 0.99260 0.06400
C 	C 	0.61790 0.83260 0.98958 -0.08200
H 	H 	0.57990 0.94980 0.96260 0.08200
C 	C 	0.81143 0.87580 0.79956 0.03400
H 	H 	0.81440 0.02550 0.77990 0.03400
C 	C 	0.71954 0.82780 0.82868 -0.08100
H 	H 	0.65890 0.94140 0.82860 0.07500
C 	C 	0.72580 0.76180 0.15538 0.40700
C 	C 	0.64604 0.88090 0.05017 0.04000
H 	H 	0.62740 0.03290 0.06480 0.03000
C 	C 	0.99341 0.75900 0.76301 0.43000
C 	C 	0.64647 0.60920 0.96933 0.00200
C 	C 	0.71883 0.60870 0.85797 -0.00900
Ca	Ca	0.13729 0.24334 0.72192 1.51700
S 	S 	0.89846 0.03507 0.60674 0.30300
O 	O 	0.76426 0.47690 0.32792 -0.50600
O 	O 	0.76053 0.08510 0.30911 -0.57200
O 	O 	0.91539 0.77910 0.61051 -0.24100
O 	O 	0.99480 0.19390 0.62965 -0.35500
O 	O 	0.48711 0.47590 0.74639 -0.46400
O 	O 	0.45804 0.08040 0.75535 -0.47800
C 	C 	0.60083 0.20750 0.70110 -0.13500
C 	C 	0.79868 0.20850 0.41041 -0.12700
C 	C 	0.69234 0.94040 0.64051 -0.07600
H 	H 	0.69320 0.79450 0.61900 0.06500
C 	C 	0.76760 0.98800 0.43165 0.02900
H 	H 	0.72830 0.87190 0.40470 0.02500
C 	C 	0.60262 0.98970 0.67100 0.03600
H 	H 	0.54260 0.87520 0.67140 0.01900
C 	C 	0.79424 0.93790 0.49237 -0.07500
H 	H 	0.77220 0.78910 0.50740 0.06400
C 	C 	0.88210 0.33260 0.51042 -0.08200
H 	H 	0.92010 0.44980 0.53740 0.08200
C 	C 	0.68857 0.37580 0.70044 0.03700
H 	H 	0.68560 0.52550 0.72010 0.03400
C 	C 	0.78046 0.32780 0.67132 -0.08200
H 	H 	0.84110 0.44140 0.67140 0.07500
C 	C 	0.77420 0.26180 0.34462 0.40600
C 	C 	0.85396 0.38090 0.44983 0.04100
H 	H 	0.87260 0.53290 0.43520 0.02900
C 	C 	0.50659 0.25900 0.73699 0.43600
C 	C 	0.85353 0.10920 0.53067 0.00400
C 	C 	0.78117 0.10870 0.64203 -0.00800
