data_crystal

_cell_length_a 8.63260
_cell_length_b 28.12060
_cell_length_c 15.34620
_cell_angle_alpha 90.00000
_cell_angle_beta  90.00000
_cell_angle_gamma 90.00000

_symmetry_space_group_name_	'P 1'
_symmetry_space_group_name_H-M	'P 1'

loop_
_symmetry_equiv_pos_as_xyz
  x,y,z

loop_
_atom_site_label
_atom_site_type_symbol
_atom_site_fract_x
_atom_site_fract_y
_atom_site_fract_z
_atom_site_charge
Dy	Dy	0.94761 0.58672 0.20205 1.85200
O 	O 	0.20670 0.62836 0.30450 -0.51100
O 	O 	0.04900 0.66320 0.21050 -0.45700
O 	O 	0.04410 0.52270 0.28280 -0.47400
O 	O 	0.20510 0.46592 0.46740 -0.14700
O 	O 	0.12640 0.39700 0.65510 -0.49200
C 	C 	0.14720 0.51050 0.33530 0.43800
C 	C 	0.19460 0.71120 0.30380 -0.01100
C 	C 	0.14880 0.66460 0.27010 0.40100
O 	O 	0.33840 0.43740 0.61950 -0.48900
O 	O 	0.28460 0.52669 0.33810 -0.49300
C 	C 	0.13080 0.43380 0.52220 -0.04000
C 	C 	0.97190 0.45010 0.41240 -0.03800
H 	H 	0.88610 0.45010 0.37580 0.05400
C 	C 	0.10130 0.47450 0.40110 -0.01400
C 	C 	0.28940 0.72460 0.36850 -0.01600
H 	H 	0.34420 0.70480 0.40600 0.03400
C 	C 	0.20360 0.42180 0.60530 0.43600
C 	C 	0.98840 0.42430 0.48910 0.00000
H 	H 	0.91480 0.40420 0.51340 0.02900
Dy	Dy	0.55239 0.41328 0.70205 1.87000
O 	O 	0.29330 0.37164 0.80450 -0.51100
O 	O 	0.45100 0.33680 0.71050 -0.46300
O 	O 	0.45590 0.47730 0.78280 -0.47800
O 	O 	0.29490 0.53408 0.96740 -0.15000
O 	O 	0.37360 0.60300 0.15510 -0.48900
C 	C 	0.35280 0.48950 0.83530 0.43900
C 	C 	0.30540 0.28880 0.80380 -0.01300
C 	C 	0.35120 0.33540 0.77010 0.40100
O 	O 	0.16160 0.56260 0.11950 -0.48300
O 	O 	0.21540 0.47331 0.83810 -0.49300
C 	C 	0.36920 0.56620 0.02220 -0.03100
C 	C 	0.52810 0.54990 0.91240 -0.03400
H 	H 	0.61390 0.54990 0.87580 0.05400
C 	C 	0.39870 0.52550 0.90110 -0.01500
C 	C 	0.21060 0.27540 0.86850 -0.01700
H 	H 	0.15580 0.29520 0.90600 0.03100
C 	C 	0.29640 0.57820 0.10530 0.43300
C 	C 	0.51160 0.57570 0.98910 -0.00800
H 	H 	0.58520 0.59580 0.01340 0.03000
Dy	Dy	0.05239 0.08672 0.79795 1.85100
O 	O 	0.79330 0.12836 0.69550 -0.51000
O 	O 	0.95100 0.16320 0.78950 -0.45500
O 	O 	0.95590 0.02270 0.71720 -0.47300
O 	O 	0.79490 0.96592 0.53260 -0.14700
O 	O 	0.87360 0.89700 0.34490 -0.49200
C 	C 	0.85280 0.01050 0.66470 0.43900
C 	C 	0.80540 0.21120 0.69620 -0.01100
C 	C 	0.85120 0.16460 0.72990 0.40100
O 	O 	0.66160 0.93740 0.38050 -0.48900
O 	O 	0.71540 0.02669 0.66190 -0.49300
C 	C 	0.86920 0.93380 0.47780 -0.04100
C 	C 	0.02810 0.95010 0.58760 -0.03500
H 	H 	0.11390 0.95010 0.62420 0.05400
C 	C 	0.89870 0.97450 0.59890 -0.01700
C 	C 	0.71060 0.22460 0.63150 -0.01600
H 	H 	0.65580 0.20480 0.59400 0.03400
C 	C 	0.79640 0.92180 0.39470 0.43600
C 	C 	0.01160 0.92430 0.51090 0.00100
H 	H 	0.08520 0.90420 0.48660 0.02900
Dy	Dy	0.44761 0.91328 0.29795 1.87000
O 	O 	0.70670 0.87164 0.19550 -0.51100
O 	O 	0.54900 0.83680 0.28950 -0.46300
O 	O 	0.54410 0.97730 0.21720 -0.47800
O 	O 	0.70510 0.03408 0.03260 -0.15000
O 	O 	0.62640 0.10300 0.84490 -0.48900
C 	C 	0.64720 0.98950 0.16470 0.43700
C 	C 	0.69460 0.78880 0.19620 -0.01300
C 	C 	0.64880 0.83540 0.22990 0.40100
O 	O 	0.83840 0.06260 0.88050 -0.48300
O 	O 	0.78460 0.97331 0.16190 -0.49300
C 	C 	0.63080 0.06620 0.97780 -0.03200
C 	C 	0.47190 0.04990 0.08760 -0.03600
H 	H 	0.38610 0.04990 0.12420 0.05400
C 	C 	0.60130 0.02550 0.09890 -0.01400
C 	C 	0.78940 0.77540 0.13150 -0.01700
H 	H 	0.84420 0.79520 0.09400 0.03100
C 	C 	0.70360 0.07820 0.89470 0.43300
C 	C 	0.48840 0.07570 0.01090 -0.00600
H 	H 	0.41480 0.09580 0.98660 0.02900
Dy	Dy	0.05239 0.41328 0.79795 1.85300
O 	O 	0.79330 0.37164 0.69550 -0.51000
O 	O 	0.95100 0.33680 0.78950 -0.45600
O 	O 	0.95590 0.47730 0.71720 -0.47300
O 	O 	0.79490 0.53408 0.53260 -0.14700
O 	O 	0.87360 0.60300 0.34490 -0.49200
C 	C 	0.85280 0.48950 0.66470 0.43800
C 	C 	0.80540 0.28880 0.69620 -0.01100
C 	C 	0.85120 0.33540 0.72990 0.40100
O 	O 	0.66160 0.56260 0.38050 -0.48900
O 	O 	0.71540 0.47331 0.66190 -0.49300
C 	C 	0.86920 0.56620 0.47780 -0.04000
C 	C 	0.02810 0.54990 0.58760 -0.03800
H 	H 	0.11390 0.54990 0.62420 0.05400
C 	C 	0.89870 0.52550 0.59890 -0.01400
C 	C 	0.71060 0.27540 0.63150 -0.01600
H 	H 	0.65580 0.29520 0.59400 0.03400
C 	C 	0.79640 0.57820 0.39470 0.43600
C 	C 	0.01160 0.57570 0.51090 0.00000
H 	H 	0.08520 0.59580 0.48660 0.02900
Dy	Dy	0.44761 0.58672 0.29795 1.87000
O 	O 	0.70670 0.62836 0.19550 -0.51100
O 	O 	0.54900 0.66320 0.28950 -0.46300
O 	O 	0.54410 0.52270 0.21720 -0.47800
O 	O 	0.70510 0.46592 0.03260 -0.15000
O 	O 	0.62640 0.39700 0.84490 -0.48900
C 	C 	0.64720 0.51050 0.16470 0.43900
C 	C 	0.69460 0.71120 0.19620 -0.01300
C 	C 	0.64880 0.66460 0.22990 0.40100
O 	O 	0.83840 0.43740 0.88050 -0.48300
O 	O 	0.78460 0.52669 0.16190 -0.49300
C 	C 	0.63080 0.43380 0.97780 -0.03100
C 	C 	0.47190 0.45010 0.08760 -0.03400
H 	H 	0.38610 0.45010 0.12420 0.05400
C 	C 	0.60130 0.47450 0.09890 -0.01500
C 	C 	0.78940 0.72460 0.13150 -0.01700
H 	H 	0.84420 0.70480 0.09400 0.03100
C 	C 	0.70360 0.42180 0.89470 0.43300
C 	C 	0.48840 0.42430 0.01090 -0.00800
H 	H 	0.41480 0.40420 0.98660 0.03000
Dy	Dy	0.94761 0.91328 0.20205 1.85100
O 	O 	0.20670 0.87164 0.30450 -0.51000
O 	O 	0.04900 0.83680 0.21050 -0.45500
O 	O 	0.04410 0.97730 0.28280 -0.47300
O 	O 	0.20510 0.03408 0.46740 -0.14700
O 	O 	0.12640 0.10300 0.65510 -0.49200
C 	C 	0.14720 0.98950 0.33530 0.43900
C 	C 	0.19460 0.78880 0.30380 -0.01100
C 	C 	0.14880 0.83540 0.27010 0.40100
O 	O 	0.33840 0.06260 0.61950 -0.48900
O 	O 	0.28460 0.97331 0.33810 -0.49300
C 	C 	0.13080 0.06620 0.52220 -0.04100
C 	C 	0.97190 0.04990 0.41240 -0.03500
H 	H 	0.88610 0.04990 0.37580 0.05400
C 	C 	0.10130 0.02550 0.40110 -0.01700
C 	C 	0.28940 0.77540 0.36850 -0.01600
H 	H 	0.34420 0.79520 0.40600 0.03400
C 	C 	0.20360 0.07820 0.60530 0.43600
C 	C 	0.98840 0.07570 0.48910 0.00100
H 	H 	0.91480 0.09580 0.51340 0.02900
Dy	Dy	0.55239 0.08672 0.70205 1.87000
O 	O 	0.29330 0.12836 0.80450 -0.51100
O 	O 	0.45100 0.16320 0.71050 -0.46300
O 	O 	0.45590 0.02270 0.78280 -0.47800
O 	O 	0.29490 0.96592 0.96740 -0.15000
O 	O 	0.37360 0.89700 0.15510 -0.48900
C 	C 	0.35280 0.01050 0.83530 0.43700
C 	C 	0.30540 0.21120 0.80380 -0.01300
C 	C 	0.35120 0.16460 0.77010 0.40100
O 	O 	0.16160 0.93740 0.11950 -0.48300
O 	O 	0.21540 0.02669 0.83810 -0.49300
C 	C 	0.36920 0.93380 0.02220 -0.03200
C 	C 	0.52810 0.95010 0.91240 -0.03600
H 	H 	0.61390 0.95010 0.87580 0.05400
C 	C 	0.39870 0.97450 0.90110 -0.01400
C 	C 	0.21060 0.22460 0.86850 -0.01700
H 	H 	0.15580 0.20480 0.90600 0.03100
C 	C 	0.29640 0.92180 0.10530 0.43300
C 	C 	0.51160 0.92430 0.98910 -0.00600
H 	H 	0.58520 0.90420 0.01340 0.02900
O 	O 	0.13480 0.75000 0.26250 -0.13500
O 	O 	0.36520 0.25000 0.76250 -0.13800
O 	O 	0.86520 0.25000 0.73750 -0.13500
O 	O 	0.63480 0.75000 0.23750 -0.13800
