data_crystal

_cell_length_a 16.46900
_cell_length_b 15.53860
_cell_length_c 14.54000
_cell_angle_alpha 90.00000
_cell_angle_beta  117.50000
_cell_angle_gamma 90.00000

_symmetry_space_group_name_	'P 1'
_symmetry_space_group_name_H-M	'P 1'

loop_
_symmetry_equiv_pos_as_xyz
  x,y,z

loop_
_atom_site_label
_atom_site_type_symbol
_atom_site_fract_x
_atom_site_fract_y
_atom_site_fract_z
_atom_site_charge
O 	O 	0.58799 0.58415 0.75518 -0.49800
O 	O 	0.57563 0.59357 0.59774 -0.51800
O 	O 	0.91706 0.90533 0.91490 -0.42400
O 	O 	0.91903 0.89850 0.76338 -0.44500
O 	O 	0.41553 0.48161 0.57755 -1.14000
H 	H 	0.36430 0.50760 0.54300 0.42200
H 	H 	0.40700 0.43120 0.57400 0.46600
C 	C 	0.60618 0.61723 0.68890 0.47200
C 	C 	0.67375 0.68976 0.72340 -0.14200
C 	C 	0.75630 0.67662 0.80980 0.02600
H 	H 	0.76640 0.62580 0.84730 0.03100
C 	C 	0.82505 0.73884 0.84150 -0.02100
H 	H 	0.88060 0.72870 0.89990 0.07200
C 	C 	0.81237 0.81395 0.78872 -0.09000
C 	C 	0.72647 0.83208 0.70190 0.03500
C 	C 	0.70770 0.91255 0.65020 -0.06100
H 	H 	0.75330 0.95430 0.67140 0.07600
C 	C 	0.62410 0.92950 0.57010 -0.03800
H 	H 	0.61260 0.98270 0.53710 0.06900
C 	C 	0.55510 0.86710 0.53700 0.00300
H 	H 	0.49800 0.87910 0.48180 0.04100
C 	C 	0.57060 0.78890 0.58460 -0.10400
H 	H 	0.52390 0.74820 0.56140 0.08500
C 	C 	0.65671 0.76871 0.66880 0.07800
C 	C 	0.88857 0.87817 0.82470 0.43300
O 	O 	0.08799 0.08415 0.75518 -0.56700
O 	O 	0.07563 0.09357 0.59774 -0.57700
O 	O 	0.41706 0.40533 0.91490 -0.50500
O 	O 	0.41903 0.39850 0.76338 -0.51900
O 	O 	0.91553 0.98161 0.57755 -0.91200
H 	H 	0.86430 0.00760 0.54300 0.30600
H 	H 	0.90700 0.93120 0.57400 0.41800
C 	C 	0.10618 0.11723 0.68890 0.44100
C 	C 	0.17375 0.18976 0.72340 -0.06100
C 	C 	0.25630 0.17662 0.80980 -0.07400
H 	H 	0.26640 0.12580 0.84730 0.04000
C 	C 	0.32505 0.23884 0.84150 0.06900
H 	H 	0.38060 0.22870 0.89990 0.01200
C 	C 	0.31237 0.31395 0.78872 -0.21000
C 	C 	0.22647 0.33208 0.70190 0.21100
C 	C 	0.20770 0.41255 0.65020 -0.35200
H 	H 	0.25330 0.45430 0.67140 0.15000
C 	C 	0.12410 0.42950 0.57010 0.34600
H 	H 	0.11260 0.48270 0.53710 -0.12200
C 	C 	0.05510 0.36710 0.53700 -0.60000
H 	H 	0.99800 0.37910 0.48180 0.32600
C 	C 	0.07060 0.28890 0.58460 0.25300
H 	H 	0.02390 0.24820 0.56140 -0.09200
C 	C 	0.15671 0.26871 0.66880 -0.13700
C 	C 	0.38857 0.37817 0.82470 0.47700
O 	O 	0.41201 0.58415 0.74482 -0.50300
O 	O 	0.42437 0.59357 0.90226 -0.50900
O 	O 	0.08294 0.90533 0.58510 -0.53300
O 	O 	0.08097 0.89850 0.73662 -0.53300
O 	O 	0.58447 0.48161 0.92245 -1.14400
H 	H 	0.63570 0.50760 0.95700 0.44000
H 	H 	0.59300 0.43120 0.92600 0.47700
C 	C 	0.39382 0.61723 0.81110 0.46900
C 	C 	0.32625 0.68976 0.77660 -0.15000
C 	C 	0.24370 0.67662 0.69020 0.00800
H 	H 	0.23360 0.62580 0.65270 0.02500
C 	C 	0.17495 0.73884 0.65850 -0.00700
H 	H 	0.11940 0.72870 0.60010 0.01400
C 	C 	0.18763 0.81395 0.71128 -0.12200
C 	C 	0.27353 0.83208 0.79810 0.01900
C 	C 	0.29230 0.91255 0.84980 -0.02100
H 	H 	0.24670 0.95430 0.82860 0.06200
C 	C 	0.37590 0.92950 0.92990 -0.10700
H 	H 	0.38740 0.98270 0.96290 0.09900
C 	C 	0.44490 0.86710 0.96300 0.11900
H 	H 	0.50200 0.87910 0.01820 -0.02100
C 	C 	0.42940 0.78890 0.91540 -0.16900
H 	H 	0.47610 0.74820 0.93860 0.11400
C 	C 	0.34329 0.76871 0.83120 0.10300
C 	C 	0.11143 0.87817 0.67530 0.44900
O 	O 	0.91201 0.08415 0.74482 -0.49900
O 	O 	0.92437 0.09357 0.90226 -0.50400
O 	O 	0.58294 0.40533 0.58510 -0.49700
O 	O 	0.58097 0.39850 0.73662 -0.49500
O 	O 	0.08447 0.98161 0.92245 -1.00100
H 	H 	0.13570 0.00760 0.95700 0.31900
H 	H 	0.09300 0.93120 0.92600 0.41500
C 	C 	0.89382 0.11723 0.81110 0.50600
C 	C 	0.82625 0.18976 0.77660 -0.25700
C 	C 	0.74370 0.17662 0.69020 0.11600
H 	H 	0.73360 0.12580 0.65270 -0.02200
C 	C 	0.67495 0.23884 0.65850 -0.11600
H 	H 	0.61940 0.22870 0.60010 0.07000
C 	C 	0.68763 0.31395 0.71128 -0.00800
C 	C 	0.77353 0.33208 0.79810 -0.17400
C 	C 	0.79230 0.41255 0.84980 0.26200
H 	H 	0.74670 0.45430 0.82860 -0.05700
C 	C 	0.87590 0.42950 0.92990 -0.50900
H 	H 	0.88740 0.48270 0.96290 0.23500
C 	C 	0.94490 0.36710 0.96300 0.70500
H 	H 	0.00200 0.37910 0.01820 -0.32900
C 	C 	0.92940 0.28890 0.91540 -0.53800
H 	H 	0.97610 0.24820 0.93860 0.28700
C 	C 	0.84329 0.26871 0.83120 0.32000
C 	C 	0.61143 0.37817 0.67530 0.40700
O 	O 	0.41201 0.41585 0.24482 -0.50700
O 	O 	0.42437 0.40643 0.40226 -0.52000
O 	O 	0.08294 0.09467 0.08510 -0.59300
O 	O 	0.08097 0.10150 0.23662 -0.57400
O 	O 	0.58447 0.51839 0.42245 -1.14600
H 	H 	0.63570 0.49240 0.45700 0.43200
H 	H 	0.59300 0.56880 0.42600 0.47300
C 	C 	0.39382 0.38277 0.31110 0.46200
C 	C 	0.32625 0.31024 0.27660 -0.13300
C 	C 	0.24370 0.32338 0.19020 -0.02100
H 	H 	0.23360 0.37420 0.15270 0.03000
C 	C 	0.17495 0.26116 0.15850 0.01600
H 	H 	0.11940 0.27130 0.10010 -0.00300
C 	C 	0.18763 0.18605 0.21128 -0.16100
C 	C 	0.27353 0.16792 0.29810 0.04900
C 	C 	0.29230 0.08745 0.34980 -0.09700
H 	H 	0.24670 0.04570 0.32860 0.03800
C 	C 	0.37590 0.07050 0.42990 -0.03900
H 	H 	0.38740 0.01730 0.46290 0.00700
C 	C 	0.44490 0.13290 0.46300 -0.02700
H 	H 	0.50200 0.12090 0.51820 0.02000
C 	C 	0.42940 0.21110 0.41540 -0.09700
H 	H 	0.47610 0.25180 0.43860 0.07500
C 	C 	0.34329 0.23129 0.33120 0.05100
C 	C 	0.11143 0.12183 0.17530 0.46200
O 	O 	0.91201 0.91585 0.24482 -0.43500
O 	O 	0.92437 0.90643 0.40226 -0.45600
O 	O 	0.58294 0.59467 0.08510 -0.51400
O 	O 	0.58097 0.60150 0.23662 -0.50000
O 	O 	0.08447 0.01839 0.42245 -1.38300
H 	H 	0.13570 0.99240 0.45700 0.56100
H 	H 	0.09300 0.06880 0.42600 0.52400
C 	C 	0.89382 0.88277 0.31110 0.48900
C 	C 	0.82625 0.81024 0.27660 -0.21000
C 	C 	0.74370 0.82338 0.19020 0.07600
H 	H 	0.73360 0.87420 0.15270 0.02200
C 	C 	0.67495 0.76116 0.15850 -0.07100
H 	H 	0.61940 0.77130 0.10010 0.05800
C 	C 	0.68763 0.68605 0.21128 -0.04300
C 	C 	0.77353 0.66792 0.29810 -0.12200
C 	C 	0.79230 0.58745 0.34980 0.18700
H 	H 	0.74670 0.54570 0.32860 -0.03300
C 	C 	0.87590 0.57050 0.42990 -0.41100
H 	H 	0.88740 0.51730 0.46290 0.19300
C 	C 	0.94490 0.63290 0.46300 0.56000
H 	H 	0.00200 0.62090 0.51820 -0.25700
C 	C 	0.92940 0.71110 0.41540 -0.44400
H 	H 	0.97610 0.75180 0.43860 0.24600
C 	C 	0.84329 0.73129 0.33120 0.26000
C 	C 	0.61143 0.62183 0.17530 0.42200
O 	O 	0.58799 0.41585 0.25518 -0.50100
O 	O 	0.57563 0.40643 0.09774 -0.52700
O 	O 	0.91706 0.09467 0.41490 -0.47100
O 	O 	0.91903 0.10150 0.26338 -0.47300
O 	O 	0.41553 0.51839 0.07755 -1.13900
H 	H 	0.36430 0.49240 0.04300 0.41300
H 	H 	0.40700 0.56880 0.07400 0.46100
C 	C 	0.60618 0.38277 0.18890 0.46400
C 	C 	0.67375 0.31024 0.22340 -0.12500
C 	C 	0.75630 0.32338 0.30980 -0.00100
H 	H 	0.76640 0.37420 0.34730 0.03700
C 	C 	0.82505 0.26116 0.34150 0.00000
H 	H 	0.88060 0.27130 0.39990 0.05800
C 	C 	0.81237 0.18605 0.28872 -0.12400
C 	C 	0.72647 0.16792 0.20190 0.06500
C 	C 	0.70770 0.08745 0.15020 -0.13500
H 	H 	0.75330 0.04570 0.17140 0.05600
C 	C 	0.62410 0.07050 0.07010 0.03100
H 	H 	0.61260 0.01730 0.03710 -0.02200
C 	C 	0.55510 0.13290 0.03700 -0.14200
H 	H 	0.49800 0.12090 0.98180 0.08100
C 	C 	0.57060 0.21110 0.08460 -0.03300
H 	H 	0.52390 0.25180 0.06140 0.04500
C 	C 	0.65671 0.23129 0.16880 0.02700
C 	C 	0.88857 0.12183 0.32470 0.44400
O 	O 	0.08799 0.91585 0.25518 -0.49400
O 	O 	0.07563 0.90643 0.09774 -0.52000
O 	O 	0.41706 0.59467 0.41490 -0.52200
O 	O 	0.41903 0.60150 0.26338 -0.52400
O 	O 	0.91553 0.01839 0.07755 -1.24600
H 	H 	0.86430 0.99240 0.04300 0.51800
H 	H 	0.90700 0.06880 0.07400 0.51700
C 	C 	0.10618 0.88277 0.18890 0.42300
C 	C 	0.17375 0.81024 0.22340 -0.01600
C 	C 	0.25630 0.82338 0.30980 -0.11100
H 	H 	0.26640 0.87420 0.34730 0.08500
C 	C 	0.32505 0.76116 0.34150 0.11100
H 	H 	0.38060 0.77130 0.39990 -0.00000
C 	C 	0.31237 0.68605 0.28872 -0.24200
C 	C 	0.22647 0.66792 0.20190 0.25600
C 	C 	0.20770 0.58745 0.15020 -0.41400
H 	H 	0.25330 0.54570 0.17140 0.17000
C 	C 	0.12410 0.57050 0.07010 0.42500
H 	H 	0.11260 0.51730 0.03710 -0.15700
C 	C 	0.05510 0.63290 0.03700 -0.71700
H 	H 	0.99800 0.62090 0.98180 0.38300
C 	C 	0.07060 0.71110 0.08460 0.33000
H 	H 	0.02390 0.75180 0.06140 -0.12300
C 	C 	0.15671 0.73129 0.16880 -0.18800
C 	C 	0.38857 0.62183 0.32470 0.49000
Mg	Mg	0.50000 0.49169 0.75000 1.48200
Mg	Mg	0.00000 0.99169 0.75000 1.47500
Mg	Mg	0.50000 0.50831 0.25000 1.48200
Mg	Mg	0.00000 0.00831 0.25000 1.46500
Mg	Mg	0.50000 0.50000 0.50000 1.48400
Mg	Mg	0.00000 0.00000 0.50000 1.46500
Mg	Mg	0.50000 0.50000 -0.00000 1.48200
Mg	Mg	-0.00000 0.00000 -0.00000 1.46200
