data_crystal

_cell_length_a 7.61000
_cell_length_b 13.59900
_cell_length_c 27.93800
_cell_angle_alpha 90.00000
_cell_angle_beta  90.00000
_cell_angle_gamma 90.00000

_symmetry_space_group_name_	'P 1'
_symmetry_space_group_name_H-M	'P 1'

loop_
_symmetry_equiv_pos_as_xyz
  x,y,z

loop_
_atom_site_label
_atom_site_type_symbol
_atom_site_fract_x
_atom_site_fract_y
_atom_site_fract_z
_atom_site_charge
Cd	Cd	-0.00000 0.77258 0.76331 1.17700
Cd	Cd	0.00000 0.22742 0.23669 1.17700
Cd	Cd	-0.00000 0.72742 0.26331 1.17700
Cd	Cd	0.00000 0.27258 0.73669 1.17700
Ni	Ni	0.50000 0.51714 0.79155 1.05100
Ni	Ni	0.50000 0.48286 0.20845 1.05100
Ni	Ni	0.50000 0.98286 0.29155 1.05000
Ni	Ni	0.50000 0.01714 0.70845 1.05000
H 	H 	0.89283 0.62519 0.69816 0.05800
H 	H 	0.88211 0.76859 0.64681 0.01800
H 	H 	0.88211 0.60353 0.60723 0.03700
H 	H 	0.88211 0.75902 0.55787 0.03400
H 	H 	0.88211 0.59243 0.51581 0.04000
H 	H 	0.88211 0.74925 0.46744 0.03500
H 	H 	0.88211 0.58646 0.42474 0.04000
H 	H 	0.11789 0.75751 0.87790 0.01000
H 	H 	0.10717 0.90883 0.83449 0.05400
H 	H 	0.89283 0.37481 0.30184 0.05800
H 	H 	0.88211 0.23141 0.35319 0.01800
H 	H 	0.88211 0.39647 0.39277 0.03700
H 	H 	0.88211 0.24098 0.44213 0.03400
H 	H 	0.88211 0.40757 0.48419 0.04000
H 	H 	0.88211 0.25075 0.53256 0.03500
H 	H 	0.88211 0.41354 0.57526 0.04000
H 	H 	0.11789 0.24249 0.12210 0.01000
H 	H 	0.10717 0.09117 0.16551 0.05400
H 	H 	0.10717 0.87481 0.19816 0.05000
H 	H 	0.11789 0.73141 0.14681 0.01100
H 	H 	0.11789 0.89647 0.10723 0.03100
H 	H 	0.11789 0.74098 0.05787 0.02800
H 	H 	0.11789 0.90757 0.01581 0.03400
H 	H 	0.11789 0.75075 0.96744 0.02800
H 	H 	0.11789 0.91354 0.92474 0.03400
H 	H 	0.88211 0.74249 0.37790 0.01700
H 	H 	0.89283 0.59117 0.33449 0.06100
H 	H 	0.10717 0.12519 0.80184 0.05000
H 	H 	0.11789 0.26859 0.85319 0.01100
H 	H 	0.11789 0.10353 0.89277 0.03100
H 	H 	0.11789 0.25902 0.94213 0.02800
H 	H 	0.11789 0.09243 0.98419 0.03400
H 	H 	0.11789 0.24925 0.03256 0.02800
H 	H 	0.11789 0.08646 0.07526 0.03400
H 	H 	0.88211 0.25751 0.62210 0.01700
H 	H 	0.89283 0.40883 0.66551 0.06100
H 	H 	0.10717 0.37481 0.30184 0.05000
H 	H 	0.11789 0.23141 0.35319 0.01100
H 	H 	0.11789 0.39647 0.39277 0.03100
H 	H 	0.11789 0.24098 0.44213 0.02800
H 	H 	0.11789 0.40757 0.48419 0.03400
H 	H 	0.11789 0.25075 0.53256 0.02800
H 	H 	0.11789 0.41354 0.57526 0.03400
H 	H 	0.88211 0.24249 0.12210 0.01700
H 	H 	0.89283 0.09117 0.16551 0.06100
H 	H 	0.10717 0.62519 0.69816 0.05000
H 	H 	0.11789 0.76859 0.64681 0.01100
H 	H 	0.11789 0.60353 0.60723 0.03100
H 	H 	0.11789 0.75902 0.55787 0.02800
H 	H 	0.11789 0.59243 0.51581 0.03400
H 	H 	0.11789 0.74925 0.46744 0.02800
H 	H 	0.11789 0.58646 0.42474 0.03400
H 	H 	0.88211 0.75751 0.87790 0.01700
H 	H 	0.89283 0.90883 0.83449 0.06100
H 	H 	0.89283 0.12519 0.80184 0.05700
H 	H 	0.88211 0.26859 0.85319 0.01800
H 	H 	0.88211 0.10353 0.89277 0.03700
H 	H 	0.88211 0.25902 0.94213 0.03400
H 	H 	0.88211 0.09243 0.98419 0.04000
H 	H 	0.88211 0.24925 0.03256 0.03500
H 	H 	0.88211 0.08646 0.07526 0.04000
H 	H 	0.11789 0.25751 0.62210 0.01000
H 	H 	0.10717 0.40883 0.66551 0.05300
H 	H 	0.89283 0.87481 0.19816 0.05700
H 	H 	0.88211 0.73141 0.14681 0.01800
H 	H 	0.88211 0.89647 0.10723 0.03700
H 	H 	0.88211 0.74098 0.05787 0.03400
H 	H 	0.88211 0.90757 0.01581 0.04000
H 	H 	0.88211 0.75075 0.96744 0.03500
H 	H 	0.88211 0.91354 0.92474 0.04000
H 	H 	0.11789 0.74249 0.37790 0.01000
H 	H 	0.10717 0.59117 0.33449 0.05300
C 	C 	0.67190 0.61340 0.79580 -0.25800
C 	C 	0.32490 0.92340 0.71830 -0.25600
C 	C 	0.67190 0.38660 0.20420 -0.25800
C 	C 	0.32490 0.07660 0.28170 -0.25600
C 	C 	0.32810 0.88660 0.29580 -0.26000
C 	C 	0.67510 0.57660 0.21830 -0.25500
C 	C 	0.32810 0.11340 0.70420 -0.26000
C 	C 	0.67510 0.42340 0.78170 -0.25500
C 	C 	0.32810 0.38660 0.20420 -0.26000
C 	C 	0.67510 0.07660 0.28170 -0.25400
C 	C 	0.32810 0.61340 0.79580 -0.26000
C 	C 	0.67510 0.92340 0.71830 -0.25400
C 	C 	0.67190 0.11340 0.70420 -0.25900
C 	C 	0.32490 0.42340 0.78170 -0.25700
C 	C 	0.67190 0.88660 0.29580 -0.25900
C 	C 	0.32490 0.57660 0.21830 -0.25700
C 	C 	0.00000 0.72210 0.64880 -0.05700
C 	C 	-0.00000 0.65020 0.60600 -0.08200
C 	C 	0.00000 0.71240 0.55910 -0.07500
C 	C 	0.00000 0.63910 0.51480 -0.08200
C 	C 	0.00000 0.70260 0.46820 -0.07200
C 	C 	0.00000 0.63310 0.42400 -0.08600
C 	C 	0.00000 0.80420 0.87810 -0.04800
C 	C 	-0.00000 0.27790 0.35120 -0.05700
C 	C 	-0.00000 0.34980 0.39400 -0.08200
C 	C 	-0.00000 0.28760 0.44090 -0.07500
C 	C 	-0.00000 0.36090 0.48520 -0.08200
C 	C 	-0.00000 0.29740 0.53180 -0.07200
C 	C 	0.00000 0.36690 0.57600 -0.08600
C 	C 	0.00000 0.19580 0.12190 -0.04800
C 	C 	-0.00000 0.77790 0.14880 -0.05700
C 	C 	-0.00000 0.84980 0.10600 -0.08200
C 	C 	-0.00000 0.78760 0.05910 -0.07500
C 	C 	0.00000 0.86090 0.01480 -0.08200
C 	C 	0.00000 0.79740 0.96820 -0.07200
C 	C 	0.00000 0.86690 0.92400 -0.08600
C 	C 	-0.00000 0.69580 0.37810 -0.04800
C 	C 	0.00000 0.22210 0.85120 -0.05700
C 	C 	0.00000 0.15020 0.89400 -0.08200
C 	C 	0.00000 0.21240 0.94090 -0.07500
C 	C 	-0.00000 0.13910 0.98520 -0.08200
C 	C 	0.00000 0.20260 0.03180 -0.07200
C 	C 	-0.00000 0.13310 0.07600 -0.08600
C 	C 	0.00000 0.30420 0.62190 -0.04800
N 	N 	0.77940 0.67230 0.79470 -0.18100
N 	N 	0.21750 0.86910 0.72860 -0.18900
N 	N 	0.77940 0.32770 0.20530 -0.18100
N 	N 	0.21750 0.13090 0.27140 -0.18900
N 	N 	0.22060 0.82770 0.29470 -0.18400
N 	N 	0.78250 0.63090 0.22860 -0.18500
N 	N 	0.22060 0.17230 0.70530 -0.18400
N 	N 	0.78250 0.36910 0.77140 -0.18500
N 	N 	0.22060 0.32770 0.20530 -0.18400
N 	N 	0.78250 0.13090 0.27140 -0.18500
N 	N 	0.22060 0.67230 0.79470 -0.18400
N 	N 	0.78250 0.86910 0.72860 -0.18500
N 	N 	0.77940 0.17230 0.70530 -0.18100
N 	N 	0.21750 0.36910 0.77140 -0.18900
N 	N 	0.77940 0.82770 0.29470 -0.18100
N 	N 	0.21750 0.63090 0.22860 -0.18900
N 	N 	-0.00000 0.66750 0.69660 -0.28700
N 	N 	-0.00000 0.86640 0.83420 -0.28900
N 	N 	-0.00000 0.33250 0.30340 -0.28700
N 	N 	0.00000 0.13360 0.16580 -0.28900
N 	N 	0.00000 0.83250 0.19660 -0.28700
N 	N 	0.00000 0.63360 0.33420 -0.28900
N 	N 	0.00000 0.16750 0.80340 -0.28700
N 	N 	-0.00000 0.36640 0.66580 -0.28900
