data_crystal

_cell_length_a 7.76200
_cell_length_b 13.73600
_cell_length_c 22.01400
_cell_angle_alpha 90.00000
_cell_angle_beta  90.00000
_cell_angle_gamma 91.04000

_symmetry_space_group_name_	'P 1'
_symmetry_space_group_name_H-M	'P 1'

loop_
_symmetry_equiv_pos_as_xyz
  x,y,z

loop_
_atom_site_label
_atom_site_type_symbol
_atom_site_fract_x
_atom_site_fract_y
_atom_site_fract_z
_atom_site_charge
Cd	Cd	0.93684 0.82856 0.79804 1.17800
Cd	Cd	0.06316 0.67144 0.29804 1.17800
Cd	Cd	0.06316 0.17144 0.20196 1.17700
Cd	Cd	0.93684 0.32856 0.70196 1.17700
Ni	Ni	0.43635 0.57693 0.76779 1.05100
Ni	Ni	0.56365 0.92307 0.26779 1.05000
Ni	Ni	0.56365 0.42307 0.23221 1.05100
Ni	Ni	0.43635 0.07693 0.73221 1.05000
H 	H 	0.94448 0.83938 0.67205 0.05000
H 	H 	0.12270 0.78813 0.69347 0.05600
H 	H 	0.78979 0.70229 0.66823 0.00000
H 	H 	0.94351 0.64191 0.71542 -0.00400
H 	H 	0.15306 0.64757 0.63195 0.01800
H 	H 	0.95896 0.58099 0.61321 0.01900
H 	H 	0.07927 0.77869 0.56656 0.02400
H 	H 	0.86452 0.73085 0.55581 0.02500
H 	H 	0.98960 0.58094 0.50981 0.03200
H 	H 	0.20041 0.63594 0.51673 0.03000
H 	H 	0.90637 0.71771 0.44053 0.00700
H 	H 	0.12408 0.76387 0.44453 0.00500
H 	H 	0.97751 0.93063 0.90313 0.05600
H 	H 	0.78306 0.88321 0.90341 0.05700
H 	H 	0.05552 0.66062 0.17205 0.05000
H 	H 	0.87730 0.71187 0.19347 0.05500
H 	H 	0.21021 0.79771 0.16823 0.00000
H 	H 	0.05649 0.85809 0.21542 -0.00400
H 	H 	0.84694 0.85243 0.13195 0.01800
H 	H 	0.04104 0.91901 0.11321 0.01900
H 	H 	0.92073 0.72131 0.06656 0.02400
H 	H 	0.13548 0.76915 0.05581 0.02400
H 	H 	0.01040 0.91906 0.00981 0.03200
H 	H 	0.79959 0.86406 0.01673 0.02900
H 	H 	0.09363 0.78229 0.94053 0.00900
H 	H 	0.87592 0.73613 0.94453 0.00600
H 	H 	0.02249 0.56937 0.40313 0.05600
H 	H 	0.21694 0.61679 0.40341 0.05700
H 	H 	0.05552 0.16062 0.32795 0.05000
H 	H 	0.87730 0.21187 0.30653 0.05600
H 	H 	0.21021 0.29771 0.33177 0.00000
H 	H 	0.05649 0.35809 0.28458 -0.00400
H 	H 	0.84694 0.35243 0.36805 0.01800
H 	H 	0.04104 0.41901 0.38679 0.01900
H 	H 	0.92073 0.22131 0.43344 0.02400
H 	H 	0.13548 0.26915 0.44419 0.02500
H 	H 	0.01040 0.41906 0.49019 0.03200
H 	H 	0.79959 0.36406 0.48327 0.03000
H 	H 	0.09363 0.28229 0.55947 0.00700
H 	H 	0.87592 0.23613 0.55547 0.00500
H 	H 	0.02249 0.06937 0.09687 0.05600
H 	H 	0.21694 0.11679 0.09659 0.05700
H 	H 	0.94448 0.33938 0.82795 0.05000
H 	H 	0.12270 0.28813 0.80653 0.05500
H 	H 	0.78979 0.20229 0.83177 0.00000
H 	H 	0.94351 0.14191 0.78458 -0.00400
H 	H 	0.15306 0.14757 0.86805 0.01800
H 	H 	0.95896 0.08099 0.88679 0.01900
H 	H 	0.07927 0.27869 0.93344 0.02400
H 	H 	0.86452 0.23085 0.94419 0.02400
H 	H 	0.98960 0.08094 0.99019 0.03200
H 	H 	0.20041 0.13594 0.98327 0.02900
H 	H 	0.90637 0.21771 0.05947 0.00900
H 	H 	0.12408 0.26387 0.05547 0.00600
H 	H 	0.97751 0.43063 0.59687 0.05600
H 	H 	0.78306 0.38321 0.59659 0.05700
C 	C 	0.60480 0.66230 0.79330 -0.26900
C 	C 	0.61060 0.99550 0.76230 -0.24600
C 	C 	0.26720 0.99320 0.76120 -0.26400
C 	C 	0.26550 0.15940 0.70080 -0.25000
C 	C 	0.92770 0.69450 0.67830 -0.03100
C 	C 	0.01500 0.65380 0.62170 -0.07000
C 	C 	0.99990 0.71170 0.56320 -0.06500
C 	C 	0.06280 0.65020 0.50980 -0.08000
C 	C 	0.04190 0.69790 0.44670 -0.03100
C 	C 	0.39520 0.83770 0.29330 -0.26900
C 	C 	0.38940 0.50450 0.26230 -0.24600
C 	C 	0.73280 0.50680 0.26120 -0.26500
C 	C 	0.73450 0.34060 0.20080 -0.24900
C 	C 	0.07230 0.80550 0.17830 -0.03000
C 	C 	0.98500 0.84620 0.12170 -0.07200
C 	C 	0.00010 0.78830 0.06320 -0.06400
C 	C 	0.93720 0.84980 0.00980 -0.07900
C 	C 	0.95810 0.80210 0.94670 -0.03400
C 	C 	0.39520 0.33770 0.20670 -0.26900
C 	C 	0.38940 0.00450 0.23770 -0.24600
C 	C 	0.73280 0.00680 0.23880 -0.26400
C 	C 	0.73450 0.84060 0.29920 -0.25000
C 	C 	0.07230 0.30550 0.32170 -0.03100
C 	C 	0.98500 0.34620 0.37830 -0.07000
C 	C 	0.00010 0.28830 0.43680 -0.06500
C 	C 	0.93720 0.34980 0.49020 -0.08000
C 	C 	0.95810 0.30210 0.55330 -0.03100
C 	C 	0.60480 0.16230 0.70670 -0.26900
C 	C 	0.61060 0.49550 0.73770 -0.24600
C 	C 	0.26720 0.49320 0.73880 -0.26500
C 	C 	0.26550 0.65940 0.79920 -0.24900
C 	C 	0.92770 0.19450 0.82170 -0.03000
C 	C 	0.01500 0.15380 0.87830 -0.07200
C 	C 	0.99990 0.21170 0.93680 -0.06400
C 	C 	0.06280 0.15020 0.99020 -0.07900
C 	C 	0.04190 0.19790 0.05330 -0.03400
N 	N 	0.70930 0.71580 0.80770 -0.17900
N 	N 	0.72270 0.94660 0.77860 -0.18600
N 	N 	0.16220 0.94470 0.78100 -0.17600
N 	N 	0.16020 0.70970 0.81790 -0.17000
N 	N 	0.99470 0.78810 0.69860 -0.29000
N 	N 	0.90790 0.86940 0.89710 -0.29500
N 	N 	0.29070 0.78420 0.30770 -0.17900
N 	N 	0.27730 0.55340 0.27860 -0.18600
N 	N 	0.83780 0.55530 0.28100 -0.17600
N 	N 	0.83980 0.79030 0.31790 -0.17100
N 	N 	0.00530 0.71190 0.19860 -0.28900
N 	N 	0.09210 0.63060 0.39710 -0.29500
N 	N 	0.29070 0.28420 0.19230 -0.17900
N 	N 	0.27730 0.05340 0.22140 -0.18600
N 	N 	0.83780 0.05530 0.21900 -0.17600
N 	N 	0.83980 0.29030 0.18210 -0.17000
N 	N 	0.00530 0.21190 0.30140 -0.29000
N 	N 	0.09210 0.13060 0.10290 -0.29500
N 	N 	0.70930 0.21580 0.69230 -0.17900
N 	N 	0.72270 0.44660 0.72140 -0.18600
N 	N 	0.16220 0.44470 0.71900 -0.17600
N 	N 	0.16020 0.20970 0.68210 -0.17100
N 	N 	0.99470 0.28810 0.80140 -0.28900
N 	N 	0.90790 0.36940 0.60290 -0.29500
