data_crystal

_cell_length_a 13.58950
_cell_length_b 8.83510
_cell_length_c 9.22940
_cell_angle_alpha 90.00000
_cell_angle_beta  100.79000
_cell_angle_gamma 90.00000

_symmetry_space_group_name_	'P 1'
_symmetry_space_group_name_H-M	'P 1'

loop_
_symmetry_equiv_pos_as_xyz
  x,y,z

loop_
_atom_site_label
_atom_site_type_symbol
_atom_site_fract_x
_atom_site_fract_y
_atom_site_fract_z
_atom_site_charge
P 	P 	0.12940 0.11740 0.42950 0.60900
O 	O 	0.15370 0.15270 0.27690 -0.68500
O 	O 	0.06600 0.44000 0.16980 -0.75800
O 	O 	0.06520 0.34850 0.86690 -0.70100
O 	O 	0.15170 0.94830 0.47890 -0.65000
O 	O 	0.02090 0.14880 0.43840 -0.82000
C 	C 	0.19430 0.25400 0.55640 -0.10500
F 	F 	0.25090 0.33390 0.08140 -0.74100
C 	C 	0.22380 0.21100 0.71700 0.07300
N 	N 	0.33470 0.16580 0.72320 -0.11800
C 	C 	0.34910 0.00640 0.71770 0.06300
C 	C 	0.40030 0.94810 0.61690 0.00800
C 	C 	0.45520 0.02710 0.53400 0.01500
C 	C 	0.42660 0.18300 0.52910 0.00500
C 	C 	0.39660 0.24630 0.65490 0.09300
Zr	Zr	0.10990 0.25330 0.07050 3.21500
P 	P 	0.87060 0.11740 0.07050 0.60500
O 	O 	0.84630 0.15270 0.22310 -0.65200
O 	O 	0.93400 0.44000 0.33020 -0.66900
O 	O 	0.93480 0.34850 0.63310 -0.63500
O 	O 	0.84830 0.94830 0.02110 -0.61000
O 	O 	0.97910 0.14880 0.06160 -0.71000
C 	C 	0.80570 0.25400 0.94360 -0.09200
F 	F 	0.74910 0.33390 0.41860 -0.73400
C 	C 	0.77620 0.21100 0.78300 0.07700
N 	N 	0.66530 0.16580 0.77680 -0.12100
C 	C 	0.65090 0.00640 0.78230 0.06800
C 	C 	0.59970 0.94810 0.88310 -0.00700
C 	C 	0.54480 0.02710 0.96600 0.02700
C 	C 	0.57340 0.18300 0.97090 0.00600
C 	C 	0.60340 0.24630 0.84510 0.09300
Zr	Zr	0.89010 0.25330 0.42950 3.22500
P 	P 	0.87060 0.88260 0.57050 0.61100
O 	O 	0.84630 0.84730 0.72310 -0.65700
O 	O 	0.93400 0.56000 0.83020 -0.68300
O 	O 	0.93480 0.65150 0.13310 -0.61900
O 	O 	0.84830 0.05170 0.52110 -0.62300
O 	O 	0.97910 0.85120 0.56160 -0.71400
C 	C 	0.80570 0.74600 0.44360 -0.09100
F 	F 	0.74910 0.66610 0.91860 -0.73700
C 	C 	0.77620 0.78900 0.28300 0.08100
N 	N 	0.66530 0.83420 0.27680 -0.12000
C 	C 	0.65090 0.99360 0.28230 0.06300
C 	C 	0.59970 0.05190 0.38310 0.00600
C 	C 	0.54480 0.97290 0.46600 0.01600
C 	C 	0.57340 0.81700 0.47090 0.00400
C 	C 	0.60340 0.75370 0.34510 0.09200
Zr	Zr	0.89010 0.74670 0.92950 3.22300
P 	P 	0.12940 0.88260 0.92950 0.60700
O 	O 	0.15370 0.84730 0.77690 -0.67800
O 	O 	0.06600 0.56000 0.66980 -0.75300
O 	O 	0.06520 0.65150 0.36690 -0.70900
O 	O 	0.15170 0.05170 0.97890 -0.63400
O 	O 	0.02090 0.85120 0.93840 -0.81300
C 	C 	0.19430 0.74600 0.05640 -0.11000
F 	F 	0.25090 0.66610 0.58140 -0.73600
C 	C 	0.22380 0.78900 0.21700 0.06900
N 	N 	0.33470 0.83420 0.22320 -0.12000
C 	C 	0.34910 0.99360 0.21770 0.06800
C 	C 	0.40030 0.05190 0.11690 -0.00700
C 	C 	0.45520 0.97290 0.03400 0.02300
C 	C 	0.42660 0.81700 0.02910 0.00500
C 	C 	0.39660 0.75370 0.15490 0.09300
Zr	Zr	0.10990 0.74670 0.57050 3.21700
P 	P 	0.00000 0.54230 0.25000 0.61500
P 	P 	0.00000 0.45770 0.75000 0.63700
