data_crystal

_cell_length_a 6.40180
_cell_length_b 8.99090
_cell_length_c 26.27100
_cell_angle_alpha 90.00000
_cell_angle_beta  90.00000
_cell_angle_gamma 90.00000

_symmetry_space_group_name_	'P 1'
_symmetry_space_group_name_H-M	'P 1'

loop_
_symmetry_equiv_pos_as_xyz
  x,y,z

loop_
_atom_site_label
_atom_site_type_symbol
_atom_site_fract_x
_atom_site_fract_y
_atom_site_fract_z
_atom_site_charge
Co	Co	0.00000 0.00000 0.71477 1.11800
Co	Co	0.50000 0.00000 0.78523 1.13700
Co	Co	-0.00000 0.00000 0.28523 1.11800
Co	Co	0.50000 0.00000 0.21477 1.13700
H 	H 	0.75440 0.87670 0.62650 0.04300
H 	H 	0.74790 0.87200 0.53940 0.08600
H 	H 	0.25440 0.12330 0.87350 0.04300
H 	H 	0.24790 0.12800 0.96060 0.08800
H 	H 	0.74560 0.87670 0.87350 0.05300
H 	H 	0.75210 0.87200 0.96060 0.10200
H 	H 	0.24560 0.12330 0.62650 0.05500
H 	H 	0.25210 0.12800 0.53940 0.09100
H 	H 	0.24560 0.12330 0.37350 0.05500
H 	H 	0.25210 0.12800 0.46060 0.09100
H 	H 	0.74560 0.87670 0.12650 0.05300
H 	H 	0.75210 0.87200 0.03940 0.10200
H 	H 	0.25440 0.12330 0.12650 0.04300
H 	H 	0.24790 0.12800 0.03940 0.08800
H 	H 	0.75440 0.87670 0.37350 0.04300
H 	H 	0.74790 0.87200 0.46060 0.08600
C 	C 	0.75630 0.49160 0.79401 0.35700
C 	C 	0.76050 0.33720 0.79410 0.15800
C 	C 	0.85720 0.92810 0.60870 0.25800
C 	C 	0.85190 0.92500 0.55610 0.09100
C 	C 	0.25630 0.50840 0.70599 0.34600
C 	C 	0.26050 0.66280 0.70590 0.15600
C 	C 	0.35720 0.07190 0.89130 0.08500
C 	C 	0.35190 0.07500 0.94390 -0.08500
C 	C 	0.74370 0.49160 0.70599 0.35600
C 	C 	0.73950 0.33720 0.70590 0.15800
C 	C 	0.64280 0.92810 0.89130 0.23300
C 	C 	0.64810 0.92500 0.94390 0.04300
C 	C 	0.24370 0.50840 0.79401 0.34500
C 	C 	0.23950 0.66280 0.79410 0.15500
C 	C 	0.14280 0.07190 0.60870 0.07000
C 	C 	0.14810 0.07500 0.55610 -0.07100
C 	C 	0.24370 0.50840 0.20599 0.34500
C 	C 	0.23950 0.66280 0.20590 0.15500
C 	C 	0.14280 0.07190 0.39130 0.07000
C 	C 	0.14810 0.07500 0.44390 -0.07100
C 	C 	0.74370 0.49160 0.29401 0.35600
C 	C 	0.73950 0.33720 0.29410 0.15800
C 	C 	0.64280 0.92810 0.10870 0.23300
C 	C 	0.64810 0.92500 0.05610 0.04300
C 	C 	0.25630 0.50840 0.29401 0.34600
C 	C 	0.26050 0.66280 0.29410 0.15600
C 	C 	0.35720 0.07190 0.10870 0.08500
C 	C 	0.35190 0.07500 0.05610 -0.08500
C 	C 	0.75630 0.49160 0.20599 0.35700
C 	C 	0.76050 0.33720 0.20590 0.15800
C 	C 	0.85720 0.92810 0.39130 0.25800
C 	C 	0.85190 0.92500 0.44390 0.09100
C 	C 	0.00000 0.00000 0.52870 -0.08400
C 	C 	0.50000 0.00000 0.97130 -0.03900
C 	C 	0.00000 0.00000 0.47130 -0.08400
C 	C 	0.50000 0.00000 0.02870 -0.03900
C 	C 	0.75000 0.74170 0.75000 0.46600
C 	C 	0.75000 0.57310 0.75000 -0.27500
C 	C 	0.75000 0.25600 0.75000 0.06000
C 	C 	0.25000 0.25830 0.75000 0.47300
C 	C 	0.25000 0.42690 0.75000 -0.29400
C 	C 	0.25000 0.74400 0.75000 0.04000
C 	C 	0.25000 0.25830 0.25000 0.47300
C 	C 	0.25000 0.42690 0.25000 -0.29400
C 	C 	0.25000 0.74400 0.25000 0.04000
C 	C 	0.75000 0.74170 0.25000 0.46600
C 	C 	0.75000 0.57310 0.25000 -0.27500
C 	C 	0.75000 0.25600 0.25000 0.06000
N 	N 	-0.00000 0.00000 0.63500 -0.30400
N 	N 	0.50000 0.00000 0.86500 -0.28000
N 	N 	-0.00000 -0.00000 0.36500 -0.30400
N 	N 	0.50000 0.00000 0.13500 -0.28000
O 	O 	0.83620 0.80420 0.71308 -0.33700
O 	O 	0.33620 0.19580 0.78692 -0.42500
O 	O 	0.66380 0.80420 0.78692 -0.35100
O 	O 	0.16380 0.19580 0.71308 -0.43200
O 	O 	0.16380 0.19580 0.28692 -0.43200
O 	O 	0.66380 0.80420 0.21308 -0.35100
O 	O 	0.33620 0.19580 0.21308 -0.42500
O 	O 	0.83620 0.80420 0.28692 -0.33700
O 	O 	0.75000 0.10510 0.75000 -0.44200
O 	O 	0.25000 0.89490 0.75000 -0.34200
O 	O 	0.25000 0.89490 0.25000 -0.34200
O 	O 	0.75000 0.10510 0.25000 -0.44200
F 	F 	0.76600 0.55880 0.84013 -0.35000
F 	F 	0.77280 0.26540 0.83923 -0.37500
F 	F 	0.26600 0.44120 0.65987 -0.36800
F 	F 	0.27280 0.73460 0.66077 -0.35500
F 	F 	0.73400 0.55880 0.65987 -0.35200
F 	F 	0.72720 0.26540 0.66077 -0.37500
F 	F 	0.23400 0.44120 0.84013 -0.37100
F 	F 	0.22720 0.73460 0.83923 -0.35900
F 	F 	0.23400 0.44120 0.15987 -0.37100
F 	F 	0.22720 0.73460 0.16077 -0.35900
F 	F 	0.73400 0.55880 0.34013 -0.35200
F 	F 	0.72720 0.26540 0.33923 -0.37500
F 	F 	0.26600 0.44120 0.34013 -0.36800
F 	F 	0.27280 0.73460 0.33923 -0.35500
F 	F 	0.76600 0.55880 0.15987 -0.35000
F 	F 	0.77280 0.26540 0.16077 -0.37500
