data_crystal

_cell_length_a 5.77160
_cell_length_b 29.45170
_cell_length_c 30.51190
_cell_angle_alpha 90.00000
_cell_angle_beta  90.00000
_cell_angle_gamma 90.00000

_symmetry_space_group_name_	'P 1'
_symmetry_space_group_name_H-M	'P 1'

loop_
_symmetry_equiv_pos_as_xyz
  x,y,z

loop_
_atom_site_label
_atom_site_type_symbol
_atom_site_fract_x
_atom_site_fract_y
_atom_site_fract_z
_atom_site_charge
N 	N 	0.39710 0.16570 0.08620 -0.18200
C 	C 	0.76380 0.20000 0.05130 -0.03200
C 	C 	0.86410 0.23830 0.06930 -0.02700
H 	H 	0.80360 0.25130 0.09540 0.03700
C 	C 	0.05590 0.25770 0.04860 -0.06700
H 	H 	0.12380 0.28420 0.06080 0.04800
C 	C 	0.14870 0.23960 0.01120 0.02500
C 	C 	0.04970 0.20010 0.99460 -0.06700
H 	H 	0.11420 0.18620 0.96930 0.04800
C 	C 	0.86010 0.18100 0.01450 -0.02500
H 	H 	0.79420 0.15420 0.00260 0.03600
C 	C 	0.56080 0.18070 0.07100 0.08000
N 	N 	0.39710 0.66570 0.58620 -0.18200
C 	C 	0.76380 0.70000 0.55130 -0.03200
C 	C 	0.86410 0.73830 0.56930 -0.02800
H 	H 	0.80360 0.75130 0.59540 0.03700
C 	C 	0.05590 0.75770 0.54860 -0.06800
H 	H 	0.12380 0.78420 0.56080 0.04700
C 	C 	0.14870 0.73960 0.51120 0.02400
C 	C 	0.04970 0.70010 0.49460 -0.06800
H 	H 	0.11420 0.68620 0.46930 0.04700
C 	C 	0.86010 0.68100 0.51450 -0.02600
H 	H 	0.79420 0.65420 0.50260 0.03500
C 	C 	0.56080 0.68070 0.57100 0.07900
N 	N 	0.89710 0.16570 0.58620 -0.18200
C 	C 	0.26380 0.20000 0.55130 -0.02900
C 	C 	0.36410 0.23830 0.56930 -0.03300
H 	H 	0.30360 0.25130 0.59540 0.03700
C 	C 	0.55590 0.25770 0.54860 -0.06300
H 	H 	0.62380 0.28420 0.56080 0.04600
C 	C 	0.64870 0.23960 0.51120 0.02000
C 	C 	0.54970 0.20010 0.49460 -0.06300
H 	H 	0.61420 0.18620 0.46930 0.04500
C 	C 	0.36010 0.18100 0.51450 -0.03100
H 	H 	0.29420 0.15420 0.50260 0.03700
C 	C 	0.06080 0.18070 0.57100 0.07700
N 	N 	0.89710 0.66570 0.08620 -0.18200
C 	C 	0.26380 0.70000 0.05130 -0.02900
C 	C 	0.36410 0.73830 0.06930 -0.03300
H 	H 	0.30360 0.75130 0.09540 0.03700
C 	C 	0.55590 0.75770 0.04860 -0.06300
H 	H 	0.62380 0.78420 0.06080 0.04600
C 	C 	0.64870 0.73960 0.01120 0.02000
C 	C 	0.54970 0.70010 0.99460 -0.06300
H 	H 	0.61420 0.68620 0.96930 0.04500
C 	C 	0.36010 0.68100 0.01450 -0.03100
H 	H 	0.29420 0.65420 0.00260 0.03700
C 	C 	0.06080 0.68070 0.07100 0.07700
N 	N 	0.35290 0.58430 0.08620 -0.18200
C 	C 	0.98620 0.55000 0.05130 -0.03000
C 	C 	0.88590 0.51170 0.06930 -0.03300
H 	H 	0.94640 0.49870 0.09540 0.03700
C 	C 	0.69410 0.49230 0.04860 -0.06400
H 	H 	0.62620 0.46580 0.06080 0.04600
C 	C 	0.60130 0.51040 0.01120 0.02100
C 	C 	0.70030 0.54990 0.99460 -0.06400
H 	H 	0.63580 0.56380 0.96930 0.04600
C 	C 	0.88990 0.56900 0.01450 -0.03000
H 	H 	0.95580 0.59580 0.00260 0.03600
C 	C 	0.18920 0.56930 0.07100 0.07700
N 	N 	0.35290 0.08430 0.58620 -0.18200
C 	C 	0.98620 0.05000 0.55130 -0.03000
C 	C 	0.88590 0.01170 0.56930 -0.03200
H 	H 	0.94640 0.99870 0.59540 0.03700
C 	C 	0.69410 0.99230 0.54860 -0.06400
H 	H 	0.62620 0.96580 0.56080 0.04600
C 	C 	0.60130 0.01040 0.51120 0.02100
C 	C 	0.70030 0.04990 0.49460 -0.06400
H 	H 	0.63580 0.06380 0.46930 0.04600
C 	C 	0.88990 0.06900 0.51450 -0.03000
H 	H 	0.95580 0.09580 0.50260 0.03600
C 	C 	0.18920 0.06930 0.57100 0.07700
N 	N 	0.85290 0.58430 0.58620 -0.18200
C 	C 	0.48620 0.55000 0.55130 -0.03000
C 	C 	0.38590 0.51170 0.56930 -0.03200
H 	H 	0.44640 0.49870 0.59540 0.03700
C 	C 	0.19410 0.49230 0.54860 -0.06400
H 	H 	0.12620 0.46580 0.56080 0.04600
C 	C 	0.10130 0.51040 0.51120 0.02100
C 	C 	0.20030 0.54990 0.49460 -0.06400
H 	H 	0.13580 0.56380 0.46930 0.04600
C 	C 	0.38990 0.56900 0.51450 -0.03000
H 	H 	0.45580 0.59580 0.50260 0.03600
C 	C 	0.68920 0.56930 0.57100 0.07800
N 	N 	0.85290 0.08430 0.08620 -0.18200
C 	C 	0.48620 0.05000 0.05130 -0.03000
C 	C 	0.38590 0.01170 0.06930 -0.03300
H 	H 	0.44640 0.99870 0.09540 0.03700
C 	C 	0.19410 0.99230 0.04860 -0.06400
H 	H 	0.12620 0.96580 0.06080 0.04600
C 	C 	0.10130 0.01040 0.01120 0.02100
C 	C 	0.20030 0.04990 0.99460 -0.06400
H 	H 	0.13580 0.06380 0.96930 0.04600
C 	C 	0.38990 0.06900 0.01450 -0.03100
H 	H 	0.45580 0.09580 0.00260 0.03700
C 	C 	0.68920 0.06930 0.07100 0.07800
N 	N 	0.35290 0.16570 0.66380 -0.18200
C 	C 	0.98620 0.20000 0.69870 -0.03000
C 	C 	0.88590 0.23830 0.68070 -0.03300
H 	H 	0.94640 0.25130 0.65460 0.03700
C 	C 	0.69410 0.25770 0.70140 -0.06400
H 	H 	0.62620 0.28420 0.68920 0.04600
C 	C 	0.60130 0.23960 0.73880 0.02100
C 	C 	0.70030 0.20010 0.75540 -0.06400
H 	H 	0.63580 0.18620 0.78070 0.04600
C 	C 	0.88990 0.18100 0.73550 -0.03100
H 	H 	0.95580 0.15420 0.74740 0.03600
C 	C 	0.18920 0.18070 0.67900 0.07700
N 	N 	0.35290 0.66570 0.16380 -0.18200
C 	C 	0.98620 0.70000 0.19870 -0.03000
C 	C 	0.88590 0.73830 0.18070 -0.03300
H 	H 	0.94640 0.75130 0.15460 0.03700
C 	C 	0.69410 0.75770 0.20140 -0.06400
H 	H 	0.62620 0.78420 0.18920 0.04600
C 	C 	0.60130 0.73960 0.23880 0.02100
C 	C 	0.70030 0.70010 0.25540 -0.06400
H 	H 	0.63580 0.68620 0.28070 0.04600
C 	C 	0.88990 0.68100 0.23550 -0.03000
H 	H 	0.95580 0.65420 0.24740 0.03600
C 	C 	0.18920 0.68070 0.17900 0.07700
N 	N 	0.85290 0.16570 0.16380 -0.18200
C 	C 	0.48620 0.20000 0.19870 -0.03000
C 	C 	0.38590 0.23830 0.18070 -0.03300
H 	H 	0.44640 0.25130 0.15460 0.03700
C 	C 	0.19410 0.25770 0.20140 -0.06400
H 	H 	0.12620 0.28420 0.18920 0.04600
C 	C 	0.10130 0.23960 0.23880 0.02100
C 	C 	0.20030 0.20010 0.25540 -0.06400
H 	H 	0.13580 0.18620 0.28070 0.04600
C 	C 	0.38990 0.18100 0.23550 -0.03000
H 	H 	0.45580 0.15420 0.24740 0.03600
C 	C 	0.68920 0.18070 0.17900 0.07800
N 	N 	0.85290 0.66570 0.66380 -0.18200
C 	C 	0.48620 0.70000 0.69870 -0.03000
C 	C 	0.38590 0.73830 0.68070 -0.03200
H 	H 	0.44640 0.75130 0.65460 0.03700
C 	C 	0.19410 0.75770 0.70140 -0.06400
H 	H 	0.12620 0.78420 0.68920 0.04600
C 	C 	0.10130 0.73960 0.73880 0.02100
C 	C 	0.20030 0.70010 0.75540 -0.06400
H 	H 	0.13580 0.68620 0.78070 0.04600
C 	C 	0.38990 0.68100 0.73550 -0.03000
H 	H 	0.45580 0.65420 0.74740 0.03600
C 	C 	0.68920 0.68070 0.67900 0.07800
N 	N 	0.39710 0.58430 0.66380 -0.18300
C 	C 	0.76380 0.55000 0.69870 -0.03300
C 	C 	0.86410 0.51170 0.68070 -0.02900
H 	H 	0.80360 0.49870 0.65460 0.03600
C 	C 	0.05590 0.49230 0.70140 -0.06800
H 	H 	0.12380 0.46580 0.68920 0.04700
C 	C 	0.14870 0.51040 0.73880 0.02400
C 	C 	0.04970 0.54990 0.75540 -0.06800
H 	H 	0.11420 0.56380 0.78070 0.04700
C 	C 	0.86010 0.56900 0.73550 -0.02600
H 	H 	0.79420 0.59580 0.74740 0.03500
C 	C 	0.56080 0.56930 0.67900 0.07900
N 	N 	0.39710 0.08430 0.16380 -0.18300
C 	C 	0.76380 0.05000 0.19870 -0.03300
C 	C 	0.86410 0.01170 0.18070 -0.02800
H 	H 	0.80360 0.99870 0.15460 0.03600
C 	C 	0.05590 0.99230 0.20140 -0.06800
H 	H 	0.12380 0.96580 0.18920 0.04700
C 	C 	0.14870 0.01040 0.23880 0.02400
C 	C 	0.04970 0.04990 0.25540 -0.06800
H 	H 	0.11420 0.06380 0.28070 0.04700
C 	C 	0.86010 0.06900 0.23550 -0.02600
H 	H 	0.79420 0.09580 0.24740 0.03500
C 	C 	0.56080 0.06930 0.17900 0.07900
N 	N 	0.89710 0.58430 0.16380 -0.18200
C 	C 	0.26380 0.55000 0.19870 -0.02900
C 	C 	0.36410 0.51170 0.18070 -0.03300
H 	H 	0.30360 0.49870 0.15460 0.03700
C 	C 	0.55590 0.49230 0.20140 -0.06300
H 	H 	0.62380 0.46580 0.18920 0.04600
C 	C 	0.64870 0.51040 0.23880 0.02000
C 	C 	0.54970 0.54990 0.25540 -0.06300
H 	H 	0.61420 0.56380 0.28070 0.04500
C 	C 	0.36010 0.56900 0.23550 -0.03100
H 	H 	0.29420 0.59580 0.24740 0.03700
C 	C 	0.06080 0.56930 0.17900 0.07700
N 	N 	0.89710 0.08430 0.66380 -0.18200
C 	C 	0.26380 0.05000 0.69870 -0.02900
C 	C 	0.36410 0.01170 0.68070 -0.03300
H 	H 	0.30360 0.99870 0.65460 0.03700
C 	C 	0.55590 0.99230 0.70140 -0.06300
H 	H 	0.62380 0.96580 0.68920 0.04600
C 	C 	0.64870 0.01040 0.73880 0.02000
C 	C 	0.54970 0.04990 0.75540 -0.06300
H 	H 	0.61420 0.06380 0.78070 0.04500
C 	C 	0.36010 0.06900 0.73550 -0.03100
H 	H 	0.29420 0.09580 0.74740 0.03700
C 	C 	0.06080 0.06930 0.67900 0.07700
N 	N 	0.60290 0.83430 0.91380 -0.18300
C 	C 	0.23620 0.80000 0.94870 -0.03300
C 	C 	0.13590 0.76170 0.93070 -0.02800
H 	H 	0.19640 0.74870 0.90460 0.03600
C 	C 	0.94410 0.74230 0.95140 -0.06800
H 	H 	0.87620 0.71580 0.93920 0.04700
C 	C 	0.85130 0.76040 0.98880 0.02400
C 	C 	0.95030 0.79990 0.00540 -0.06800
H 	H 	0.88580 0.81380 0.03070 0.04700
C 	C 	0.13990 0.81900 0.98550 -0.02600
H 	H 	0.20580 0.84580 0.99740 0.03500
C 	C 	0.43920 0.81930 0.92900 0.07900
N 	N 	0.60290 0.33430 0.41380 -0.18300
C 	C 	0.23620 0.30000 0.44870 -0.03300
C 	C 	0.13590 0.26170 0.43070 -0.02900
H 	H 	0.19640 0.24870 0.40460 0.03600
C 	C 	0.94410 0.24230 0.45140 -0.06800
H 	H 	0.87620 0.21580 0.43920 0.04700
C 	C 	0.85130 0.26040 0.48880 0.02400
C 	C 	0.95030 0.29990 0.50540 -0.06800
H 	H 	0.88580 0.31380 0.53070 0.04700
C 	C 	0.13990 0.31900 0.48550 -0.02600
H 	H 	0.20580 0.34580 0.49740 0.03500
C 	C 	0.43920 0.31930 0.42900 0.07900
N 	N 	0.10290 0.83430 0.41380 -0.18200
C 	C 	0.73620 0.80000 0.44870 -0.02900
C 	C 	0.63590 0.76170 0.43070 -0.03300
H 	H 	0.69640 0.74870 0.40460 0.03700
C 	C 	0.44410 0.74230 0.45140 -0.06300
H 	H 	0.37620 0.71580 0.43920 0.04600
C 	C 	0.35130 0.76040 0.48880 0.02000
C 	C 	0.45030 0.79990 0.50540 -0.06300
H 	H 	0.38580 0.81380 0.53070 0.04500
C 	C 	0.63990 0.81900 0.48550 -0.03100
H 	H 	0.70580 0.84580 0.49740 0.03700
C 	C 	0.93920 0.81930 0.42900 0.07700
N 	N 	0.10290 0.33430 0.91380 -0.18200
C 	C 	0.73620 0.30000 0.94870 -0.02900
C 	C 	0.63590 0.26170 0.93070 -0.03300
H 	H 	0.69640 0.24870 0.90460 0.03700
C 	C 	0.44410 0.24230 0.95140 -0.06300
H 	H 	0.37620 0.21580 0.93920 0.04600
C 	C 	0.35130 0.26040 0.98880 0.02000
C 	C 	0.45030 0.29990 0.00540 -0.06300
H 	H 	0.38580 0.31380 0.03070 0.04500
C 	C 	0.63990 0.31900 0.98550 -0.03100
H 	H 	0.70580 0.34580 0.99740 0.03700
C 	C 	0.93920 0.31930 0.92900 0.07700
N 	N 	0.64710 0.41570 0.91380 -0.18200
C 	C 	0.01380 0.45000 0.94870 -0.03000
C 	C 	0.11410 0.48830 0.93070 -0.03300
H 	H 	0.05360 0.50130 0.90460 0.03700
C 	C 	0.30590 0.50770 0.95140 -0.06400
H 	H 	0.37380 0.53420 0.93920 0.04600
C 	C 	0.39870 0.48960 0.98880 0.02100
C 	C 	0.29970 0.45010 0.00540 -0.06400
H 	H 	0.36420 0.43620 0.03070 0.04600
C 	C 	0.11010 0.43100 0.98550 -0.03000
H 	H 	0.04420 0.40420 0.99740 0.03600
C 	C 	0.81080 0.43070 0.92900 0.07700
N 	N 	0.64710 0.91570 0.41380 -0.18200
C 	C 	0.01380 0.95000 0.44870 -0.03000
C 	C 	0.11410 0.98830 0.43070 -0.03200
H 	H 	0.05360 0.00130 0.40460 0.03700
C 	C 	0.30590 0.00770 0.45140 -0.06400
H 	H 	0.37380 0.03420 0.43920 0.04600
C 	C 	0.39870 0.98960 0.48880 0.02100
C 	C 	0.29970 0.95010 0.50540 -0.06400
H 	H 	0.36420 0.93620 0.53070 0.04600
C 	C 	0.11010 0.93100 0.48550 -0.03000
H 	H 	0.04420 0.90420 0.49740 0.03600
C 	C 	0.81080 0.93070 0.42900 0.07700
N 	N 	0.14710 0.41570 0.41380 -0.18200
C 	C 	0.51380 0.45000 0.44870 -0.03000
C 	C 	0.61410 0.48830 0.43070 -0.03200
H 	H 	0.55360 0.50130 0.40460 0.03700
C 	C 	0.80590 0.50770 0.45140 -0.06400
H 	H 	0.87380 0.53420 0.43920 0.04600
C 	C 	0.89870 0.48960 0.48880 0.02100
C 	C 	0.79970 0.45010 0.50540 -0.06400
H 	H 	0.86420 0.43620 0.53070 0.04600
C 	C 	0.61010 0.43100 0.48550 -0.03000
H 	H 	0.54420 0.40420 0.49740 0.03600
C 	C 	0.31080 0.43070 0.42900 0.07800
N 	N 	0.14710 0.91570 0.91380 -0.18200
C 	C 	0.51380 0.95000 0.94870 -0.03000
C 	C 	0.61410 0.98830 0.93070 -0.03300
H 	H 	0.55360 0.00130 0.90460 0.03700
C 	C 	0.80590 0.00770 0.95140 -0.06400
H 	H 	0.87380 0.03420 0.93920 0.04600
C 	C 	0.89870 0.98960 0.98880 0.02100
C 	C 	0.79970 0.95010 0.00540 -0.06400
H 	H 	0.86420 0.93620 0.03070 0.04600
C 	C 	0.61010 0.93100 0.98550 -0.03100
H 	H 	0.54420 0.90420 0.99740 0.03700
C 	C 	0.31080 0.93070 0.92900 0.07800
N 	N 	0.64710 0.83430 0.33620 -0.18200
C 	C 	0.01380 0.80000 0.30130 -0.03000
C 	C 	0.11410 0.76170 0.31930 -0.03300
H 	H 	0.05360 0.74870 0.34540 0.03700
C 	C 	0.30590 0.74230 0.29860 -0.06400
H 	H 	0.37380 0.71580 0.31080 0.04600
C 	C 	0.39870 0.76040 0.26120 0.02100
C 	C 	0.29970 0.79990 0.24460 -0.06400
H 	H 	0.36420 0.81380 0.21930 0.04600
C 	C 	0.11010 0.81900 0.26450 -0.03100
H 	H 	0.04420 0.84580 0.25260 0.03600
C 	C 	0.81080 0.81930 0.32100 0.07700
N 	N 	0.64710 0.33430 0.83620 -0.18200
C 	C 	0.01380 0.30000 0.80130 -0.03000
C 	C 	0.11410 0.26170 0.81930 -0.03300
H 	H 	0.05360 0.24870 0.84540 0.03700
C 	C 	0.30590 0.24230 0.79860 -0.06400
H 	H 	0.37380 0.21580 0.81080 0.04600
C 	C 	0.39870 0.26040 0.76120 0.02100
C 	C 	0.29970 0.29990 0.74460 -0.06400
H 	H 	0.36420 0.31380 0.71930 0.04600
C 	C 	0.11010 0.31900 0.76450 -0.03000
H 	H 	0.04420 0.34580 0.75260 0.03600
C 	C 	0.81080 0.31930 0.82100 0.07700
N 	N 	0.14710 0.83430 0.83620 -0.18200
C 	C 	0.51380 0.80000 0.80130 -0.03000
C 	C 	0.61410 0.76170 0.81930 -0.03300
H 	H 	0.55360 0.74870 0.84540 0.03700
C 	C 	0.80590 0.74230 0.79860 -0.06400
H 	H 	0.87380 0.71580 0.81080 0.04600
C 	C 	0.89870 0.76040 0.76120 0.02100
C 	C 	0.79970 0.79990 0.74460 -0.06400
H 	H 	0.86420 0.81380 0.71930 0.04600
C 	C 	0.61010 0.81900 0.76450 -0.03000
H 	H 	0.54420 0.84580 0.75260 0.03600
C 	C 	0.31080 0.81930 0.82100 0.07800
N 	N 	0.14710 0.33430 0.33620 -0.18200
C 	C 	0.51380 0.30000 0.30130 -0.03000
C 	C 	0.61410 0.26170 0.31930 -0.03200
H 	H 	0.55360 0.24870 0.34540 0.03700
C 	C 	0.80590 0.24230 0.29860 -0.06400
H 	H 	0.87380 0.21580 0.31080 0.04600
C 	C 	0.89870 0.26040 0.26120 0.02100
C 	C 	0.79970 0.29990 0.24460 -0.06400
H 	H 	0.86420 0.31380 0.21930 0.04600
C 	C 	0.61010 0.31900 0.26450 -0.03000
H 	H 	0.54420 0.34580 0.25260 0.03600
C 	C 	0.31080 0.31930 0.32100 0.07800
N 	N 	0.60290 0.41570 0.33620 -0.18300
C 	C 	0.23620 0.45000 0.30130 -0.03300
C 	C 	0.13590 0.48830 0.31930 -0.02900
H 	H 	0.19640 0.50130 0.34540 0.03600
C 	C 	0.94410 0.50770 0.29860 -0.06800
H 	H 	0.87620 0.53420 0.31080 0.04700
C 	C 	0.85130 0.48960 0.26120 0.02400
C 	C 	0.95030 0.45010 0.24460 -0.06800
H 	H 	0.88580 0.43620 0.21930 0.04700
C 	C 	0.13990 0.43100 0.26450 -0.02600
H 	H 	0.20580 0.40420 0.25260 0.03500
C 	C 	0.43920 0.43070 0.32100 0.07900
N 	N 	0.60290 0.91570 0.83620 -0.18300
C 	C 	0.23620 0.95000 0.80130 -0.03300
C 	C 	0.13590 0.98830 0.81930 -0.02800
H 	H 	0.19640 0.00130 0.84540 0.03600
C 	C 	0.94410 0.00770 0.79860 -0.06800
H 	H 	0.87620 0.03420 0.81080 0.04700
C 	C 	0.85130 0.98960 0.76120 0.02400
C 	C 	0.95030 0.95010 0.74460 -0.06800
H 	H 	0.88580 0.93620 0.71930 0.04700
C 	C 	0.13990 0.93100 0.76450 -0.02600
H 	H 	0.20580 0.90420 0.75260 0.03500
C 	C 	0.43920 0.93070 0.82100 0.07900
N 	N 	0.10290 0.41570 0.83620 -0.18200
C 	C 	0.73620 0.45000 0.80130 -0.02900
C 	C 	0.63590 0.48830 0.81930 -0.03300
H 	H 	0.69640 0.50130 0.84540 0.03700
C 	C 	0.44410 0.50770 0.79860 -0.06300
H 	H 	0.37620 0.53420 0.81080 0.04600
C 	C 	0.35130 0.48960 0.76120 0.02000
C 	C 	0.45030 0.45010 0.74460 -0.06300
H 	H 	0.38580 0.43620 0.71930 0.04500
C 	C 	0.63990 0.43100 0.76450 -0.03100
H 	H 	0.70580 0.40420 0.75260 0.03700
C 	C 	0.93920 0.43070 0.82100 0.07700
N 	N 	0.10290 0.91570 0.33620 -0.18200
C 	C 	0.73620 0.95000 0.30130 -0.02900
C 	C 	0.63590 0.98830 0.31930 -0.03300
H 	H 	0.69640 0.00130 0.34540 0.03700
C 	C 	0.44410 0.00770 0.29860 -0.06300
H 	H 	0.37620 0.03420 0.31080 0.04600
C 	C 	0.35130 0.98960 0.26120 0.02000
C 	C 	0.45030 0.95010 0.24460 -0.06300
H 	H 	0.38580 0.93620 0.21930 0.04500
C 	C 	0.63990 0.93100 0.26450 -0.03100
H 	H 	0.70580 0.90420 0.25260 0.03700
C 	C 	0.93920 0.93070 0.32100 0.07700
Ag	Ag	0.12500 0.12500 0.12500 0.55400
Ag	Ag	0.12500 0.62500 0.62500 0.55400
Ag	Ag	0.62500 0.12500 0.62500 0.55400
Ag	Ag	0.62500 0.62500 0.12500 0.55400
Ag	Ag	0.87500 0.87500 0.87500 0.55400
Ag	Ag	0.87500 0.37500 0.37500 0.55400
Ag	Ag	0.37500 0.87500 0.37500 0.55400
Ag	Ag	0.37500 0.37500 0.87500 0.55400
