data_crystal

_cell_length_a 5.70180
_cell_length_b 21.66120
_cell_length_c 21.56870
_cell_angle_alpha 89.97600
_cell_angle_beta  89.99200
_cell_angle_gamma 89.98900

_symmetry_space_group_name_	'P 1'
_symmetry_space_group_name_H-M	'P 1'

loop_
_symmetry_equiv_pos_as_xyz
  x,y,z

loop_
_atom_site_label
_atom_site_type_symbol
_atom_site_fract_x
_atom_site_fract_y
_atom_site_fract_z
_atom_site_charge
Ag	Ag	0.86944 0.00060 0.24984 0.55400
N 	N 	0.59520 0.92160 0.24960 -0.18100
N 	N 	0.60840 0.07660 0.25000 -0.19000
N 	N 	0.14110 0.00270 0.17190 -0.17700
N 	N 	0.14000 0.00290 0.32980 -0.17800
C 	C 	0.23060 0.85160 0.24930 -0.03200
C 	C 	0.13190 0.83220 0.19370 -0.02900
H 	H 	0.19410 0.84650 0.15540 0.03600
C 	C 	0.94220 0.79190 0.19410 -0.06700
H 	H 	0.87470 0.77870 0.15610 0.04700
C 	C 	0.85120 0.77100 0.25000 0.02300
C 	C 	0.94980 0.79040 0.30570 -0.06700
H 	H 	0.88760 0.77610 0.34390 0.04700
C 	C 	0.13960 0.83070 0.30530 -0.02800
H 	H 	0.20700 0.84390 0.34330 0.03600
C 	C 	0.43170 0.89040 0.24980 0.07600
C 	C 	0.23680 0.14760 0.25010 -0.03100
C 	C 	0.14140 0.16770 0.19430 -0.02600
H 	H 	0.20720 0.15420 0.15610 0.03600
C 	C 	0.94990 0.20740 0.19430 -0.06900
H 	H 	0.88470 0.22110 0.15620 0.04800
C 	C 	0.85370 0.22700 0.25020 0.02400
C 	C 	0.94900 0.20690 0.30590 -0.06800
H 	H 	0.88330 0.22030 0.34410 0.04700
C 	C 	0.14060 0.16720 0.30590 -0.02700
H 	H 	0.20570 0.15350 0.34400 0.03600
C 	C 	0.44900 0.10700 0.25050 0.08300
C 	C 	0.51450 0.00190 0.10270 -0.02500
C 	C 	0.60940 0.05710 0.08130 -0.03400
H 	H 	0.54340 0.09530 0.09400 0.03800
C 	C 	0.80080 0.05620 0.04140 -0.06200
H 	H 	0.86560 0.09390 0.02680 0.04500
C 	C 	0.89730 0.00030 0.02290 0.02000
C 	C 	0.80250 0.94510 0.04430 -0.06100
H 	H 	0.86840 0.90690 0.03170 0.04600
C 	C 	0.61100 0.94590 0.08420 -0.03500
H 	H 	0.54620 0.90830 0.09890 0.03800
C 	C 	0.31310 0.00160 0.14090 0.06700
C 	C 	0.51670 0.00210 0.39700 -0.02800
C 	C 	0.61190 0.94620 0.41620 -0.03300
H 	H 	0.54670 0.90850 0.40180 0.03700
C 	C 	0.80250 0.94550 0.45630 -0.06200
H 	H 	0.86750 0.90730 0.46940 0.04600
C 	C 	0.89790 0.00070 0.47740 0.02100
C 	C 	0.80270 0.05660 0.45820 -0.06300
H 	H 	0.86790 0.09430 0.47260 0.04600
C 	C 	0.61210 0.05730 0.41800 -0.03200
H 	H 	0.54710 0.09560 0.40490 0.03700
C 	C 	0.30870 0.00090 0.35990 0.07300
Ag	Ag	0.36944 0.50060 0.74984 0.55600
N 	N 	0.09520 0.42160 0.74960 -0.18000
N 	N 	0.10840 0.57660 0.75000 -0.18900
N 	N 	0.64110 0.50270 0.67190 -0.17700
N 	N 	0.64000 0.50290 0.82980 -0.17900
C 	C 	0.73060 0.35160 0.74930 -0.03000
C 	C 	0.63190 0.33220 0.69370 -0.03200
H 	H 	0.69410 0.34650 0.65540 0.03700
C 	C 	0.44220 0.29190 0.69410 -0.06300
H 	H 	0.37470 0.27870 0.65610 0.04600
C 	C 	0.35120 0.27100 0.75000 0.02000
C 	C 	0.44980 0.29040 0.80570 -0.06300
H 	H 	0.38760 0.27610 0.84390 0.04600
C 	C 	0.63960 0.33070 0.80530 -0.03200
H 	H 	0.70700 0.34390 0.84330 0.03700
C 	C 	0.93170 0.39040 0.74980 0.07400
C 	C 	0.73680 0.64760 0.75010 -0.02800
C 	C 	0.64140 0.66770 0.69430 -0.03200
H 	H 	0.70720 0.65420 0.65610 0.03700
C 	C 	0.44990 0.70740 0.69430 -0.06300
H 	H 	0.38470 0.72110 0.65620 0.04600
C 	C 	0.35370 0.72700 0.75020 0.01900
C 	C 	0.44900 0.70690 0.80590 -0.06200
H 	H 	0.38330 0.72030 0.84410 0.04500
C 	C 	0.64060 0.66720 0.80590 -0.03300
H 	H 	0.70570 0.65350 0.84400 0.03800
C 	C 	0.94900 0.60700 0.75050 0.08200
C 	C 	0.01450 0.50190 0.60270 -0.02400
C 	C 	0.10940 0.55710 0.58130 -0.03400
H 	H 	0.04340 0.59530 0.59400 0.03800
C 	C 	0.30080 0.55620 0.54140 -0.06200
H 	H 	0.36560 0.59390 0.52680 0.04600
C 	C 	0.39730 0.50030 0.52290 0.02100
C 	C 	0.30250 0.44510 0.54430 -0.06200
H 	H 	0.36840 0.40690 0.53170 0.04600
C 	C 	0.11100 0.44590 0.58420 -0.03600
H 	H 	0.04620 0.40830 0.59890 0.03800
C 	C 	0.81310 0.50160 0.64090 0.06600
C 	C 	0.01670 0.50210 0.89700 -0.02800
C 	C 	0.11190 0.44620 0.91620 -0.03300
H 	H 	0.04670 0.40850 0.90180 0.03700
C 	C 	0.30250 0.44550 0.95630 -0.06300
H 	H 	0.36750 0.40730 0.96940 0.04600
C 	C 	0.39790 0.50070 0.97740 0.02100
C 	C 	0.30270 0.55660 0.95820 -0.06300
H 	H 	0.36790 0.59430 0.97260 0.04600
C 	C 	0.11210 0.55730 0.91800 -0.03200
H 	H 	0.04710 0.59560 0.90490 0.03700
C 	C 	0.80870 0.50090 0.85990 0.07200
Ag	Ag	0.13056 0.99940 0.75016 0.55500
N 	N 	0.40480 0.07840 0.75040 -0.18000
N 	N 	0.39160 0.92340 0.75000 -0.19000
N 	N 	0.85890 0.99730 0.82810 -0.17700
N 	N 	0.86000 0.99710 0.67020 -0.17800
C 	C 	0.76940 0.14840 0.75070 -0.03200
C 	C 	0.86810 0.16780 0.80630 -0.02900
H 	H 	0.80590 0.15350 0.84460 0.03600
C 	C 	0.05780 0.20810 0.80590 -0.06700
H 	H 	0.12530 0.22130 0.84390 0.04700
C 	C 	0.14880 0.22900 0.75000 0.02300
C 	C 	0.05020 0.20960 0.69430 -0.06700
H 	H 	0.11240 0.22390 0.65610 0.04700
C 	C 	0.86040 0.16930 0.69470 -0.02800
H 	H 	0.79300 0.15610 0.65670 0.03600
C 	C 	0.56830 0.10960 0.75020 0.07600
C 	C 	0.76320 0.85240 0.74990 -0.03100
C 	C 	0.85860 0.83230 0.80570 -0.02600
H 	H 	0.79280 0.84580 0.84390 0.03600
C 	C 	0.05010 0.79260 0.80570 -0.06900
H 	H 	0.11530 0.77890 0.84380 0.04800
C 	C 	0.14630 0.77300 0.74980 0.02400
C 	C 	0.05100 0.79310 0.69410 -0.06800
H 	H 	0.11670 0.77970 0.65590 0.04700
C 	C 	0.85940 0.83280 0.69410 -0.02700
H 	H 	0.79430 0.84650 0.65600 0.03600
C 	C 	0.55100 0.89300 0.74950 0.08300
C 	C 	0.48550 0.99810 0.89730 -0.02500
C 	C 	0.39060 0.94290 0.91870 -0.03400
H 	H 	0.45660 0.90470 0.90600 0.03800
C 	C 	0.19920 0.94380 0.95860 -0.06200
H 	H 	0.13440 0.90610 0.97320 0.04500
C 	C 	0.10270 0.99970 0.97710 0.02000
C 	C 	0.19750 0.05490 0.95570 -0.06100
H 	H 	0.13160 0.09310 0.96830 0.04600
C 	C 	0.38900 0.05410 0.91580 -0.03500
H 	H 	0.45380 0.09170 0.90110 0.03800
C 	C 	0.68690 0.99840 0.85910 0.06700
C 	C 	0.48330 0.99790 0.60300 -0.02800
C 	C 	0.38810 0.05380 0.58380 -0.03300
H 	H 	0.45330 0.09150 0.59820 0.03700
C 	C 	0.19750 0.05450 0.54370 -0.06200
H 	H 	0.13250 0.09270 0.53060 0.04600
C 	C 	0.10210 0.99930 0.52260 0.02100
C 	C 	0.19730 0.94340 0.54180 -0.06300
H 	H 	0.13210 0.90570 0.52740 0.04600
C 	C 	0.38790 0.94270 0.58200 -0.03200
H 	H 	0.45290 0.90440 0.59510 0.03700
C 	C 	0.69130 0.99910 0.64010 0.07300
Ag	Ag	0.63056 0.49940 0.25016 0.55600
N 	N 	0.90480 0.57840 0.25040 -0.18000
N 	N 	0.89160 0.42340 0.25000 -0.18900
N 	N 	0.35890 0.49730 0.32810 -0.17700
N 	N 	0.36000 0.49710 0.17020 -0.17900
C 	C 	0.26940 0.64840 0.25070 -0.03000
C 	C 	0.36810 0.66780 0.30630 -0.03200
H 	H 	0.30590 0.65350 0.34460 0.03700
C 	C 	0.55780 0.70810 0.30590 -0.06300
H 	H 	0.62530 0.72130 0.34390 0.04600
C 	C 	0.64880 0.72900 0.25000 0.02000
C 	C 	0.55020 0.70960 0.19430 -0.06300
H 	H 	0.61240 0.72390 0.15610 0.04600
C 	C 	0.36040 0.66930 0.19470 -0.03200
H 	H 	0.29300 0.65610 0.15670 0.03700
C 	C 	0.06830 0.60960 0.25020 0.07400
C 	C 	0.26320 0.35240 0.24990 -0.02800
C 	C 	0.35860 0.33230 0.30570 -0.03200
H 	H 	0.29280 0.34580 0.34390 0.03700
C 	C 	0.55010 0.29260 0.30570 -0.06300
H 	H 	0.61530 0.27890 0.34380 0.04600
C 	C 	0.64630 0.27300 0.24980 0.01900
C 	C 	0.55100 0.29310 0.19410 -0.06200
H 	H 	0.61670 0.27970 0.15590 0.04500
C 	C 	0.35940 0.33280 0.19410 -0.03300
H 	H 	0.29430 0.34650 0.15600 0.03800
C 	C 	0.05100 0.39300 0.24950 0.08200
C 	C 	0.98550 0.49810 0.39730 -0.02400
C 	C 	0.89060 0.44290 0.41870 -0.03400
H 	H 	0.95660 0.40470 0.40600 0.03800
C 	C 	0.69920 0.44380 0.45860 -0.06200
H 	H 	0.63440 0.40610 0.47320 0.04600
C 	C 	0.60270 0.49970 0.47710 0.02100
C 	C 	0.69750 0.55490 0.45570 -0.06200
H 	H 	0.63160 0.59310 0.46830 0.04600
C 	C 	0.88900 0.55410 0.41580 -0.03600
H 	H 	0.95380 0.59170 0.40110 0.03800
C 	C 	0.18690 0.49840 0.35910 0.06600
C 	C 	0.98330 0.49790 0.10300 -0.02800
C 	C 	0.88810 0.55380 0.08380 -0.03300
H 	H 	0.95330 0.59150 0.09820 0.03700
C 	C 	0.69750 0.55450 0.04370 -0.06300
H 	H 	0.63250 0.59270 0.03060 0.04600
C 	C 	0.60210 0.49930 0.02260 0.02100
C 	C 	0.69730 0.44340 0.04180 -0.06300
H 	H 	0.63210 0.40570 0.02740 0.04600
C 	C 	0.88790 0.44270 0.08200 -0.03200
H 	H 	0.95290 0.40440 0.09510 0.03700
C 	C 	0.19130 0.49910 0.14010 0.07200
