data_crystal

_cell_length_a 24.86060
_cell_length_b 24.86060
_cell_length_c 4.80160
_cell_angle_alpha 90.00000
_cell_angle_beta  90.00000
_cell_angle_gamma 90.00000

_symmetry_space_group_name_	'P 1'
_symmetry_space_group_name_H-M	'P 1'

loop_
_symmetry_equiv_pos_as_xyz
  x,y,z

loop_
_atom_site_label
_atom_site_type_symbol
_atom_site_fract_x
_atom_site_fract_y
_atom_site_fract_z
_atom_site_charge
N 	N 	0.03180 0.93180 0.76880 -0.18400
C 	C 	0.03680 0.85600 0.13350 -0.05200
C 	C 	0.08530 0.83540 0.23200 -0.01800
H 	H 	0.11840 0.85020 0.16980 0.03200
C 	C 	0.08510 0.79390 0.41880 -0.06400
H 	H 	0.11850 0.77940 0.47800 0.04700
C 	C 	0.03870 0.77240 0.52370 0.00500
C 	C 	0.99130 0.79440 0.42350 -0.04500
H 	H 	0.95810 0.78080 0.49280 0.04300
C 	C 	0.98980 0.83440 0.23100 -0.00400
H 	H 	0.95630 0.84730 0.16420 0.03300
C 	C 	0.03500 0.89810 0.93230 0.07600
N 	N 	0.53180 0.43180 0.26880 -0.18500
C 	C 	0.53680 0.35600 0.63350 -0.00300
C 	C 	0.58530 0.33540 0.73200 -0.05700
H 	H 	0.61840 0.35020 0.66980 0.04500
C 	C 	0.58510 0.29390 0.91880 -0.02000
H 	H 	0.61850 0.27940 0.97800 0.03500
C 	C 	0.53870 0.27240 0.02370 -0.02500
C 	C 	0.49130 0.29440 0.92350 -0.01800
H 	H 	0.45810 0.28080 0.99280 0.03500
C 	C 	0.48980 0.33440 0.73100 -0.06000
H 	H 	0.45630 0.34730 0.66420 0.04800
C 	C 	0.53500 0.39810 0.43230 0.06100
N 	N 	0.96820 0.06820 0.76880 -0.18000
C 	C 	0.96320 0.14400 0.13350 -0.00200
C 	C 	0.91470 0.16460 0.23200 -0.03600
H 	H 	0.88160 0.14980 0.16980 0.03600
C 	C 	0.91490 0.20610 0.41880 -0.06100
H 	H 	0.88150 0.22060 0.47800 0.04600
C 	C 	0.96130 0.22760 0.52370 0.03600
C 	C 	0.00870 0.20560 0.42350 -0.07600
H 	H 	0.04190 0.21920 0.49280 0.04800
C 	C 	0.01020 0.16560 0.23100 -0.05700
H 	H 	0.04370 0.15270 0.16420 0.04200
C 	C 	0.96500 0.10190 0.93230 0.07000
N 	N 	0.46820 0.56820 0.26880 -0.18500
C 	C 	0.46320 0.64400 0.63350 -0.00300
C 	C 	0.41470 0.66460 0.73200 -0.05600
H 	H 	0.38160 0.64980 0.66980 0.04500
C 	C 	0.41490 0.70610 0.91880 -0.02100
H 	H 	0.38150 0.72060 0.97800 0.03600
C 	C 	0.46130 0.72760 0.02370 -0.02400
C 	C 	0.50870 0.70560 0.92350 -0.01900
H 	H 	0.54190 0.71920 0.99280 0.03600
C 	C 	0.51020 0.66560 0.73100 -0.06000
H 	H 	0.54370 0.65270 0.66420 0.04800
C 	C 	0.46500 0.60190 0.43230 0.06100
N 	N 	0.93180 0.96820 0.23120 -0.17000
C 	C 	0.85600 0.96320 0.86650 0.01500
C 	C 	0.83540 0.91470 0.76800 -0.04900
H 	H 	0.85020 0.88160 0.83020 0.04400
C 	C 	0.79390 0.91490 0.58120 -0.04500
H 	H 	0.77940 0.88150 0.52200 0.04000
C 	C 	0.77240 0.96130 0.47630 0.01700
C 	C 	0.79440 0.00870 0.57650 -0.05900
H 	H 	0.78080 0.04190 0.50720 0.04200
C 	C 	0.83440 0.01020 0.76900 -0.07000
H 	H 	0.84730 0.04370 0.83580 0.04900
C 	C 	0.89810 0.96500 0.06770 0.06200
N 	N 	0.43180 0.46820 0.73120 -0.18400
C 	C 	0.35600 0.46320 0.36650 -0.03500
C 	C 	0.33540 0.41470 0.26800 -0.01700
H 	H 	0.35020 0.38160 0.33020 0.03100
C 	C 	0.29390 0.41490 0.08120 -0.08100
H 	H 	0.27940 0.38150 0.02200 0.05100
C 	C 	0.27240 0.46130 0.97630 0.04200
C 	C 	0.29440 0.50870 0.07650 -0.07800
H 	H 	0.28080 0.54190 0.00720 0.05000
C 	C 	0.33440 0.51020 0.26900 -0.01900
H 	H 	0.34730 0.54370 0.33580 0.03400
C 	C 	0.39810 0.46500 0.56770 0.07300
N 	N 	0.06820 0.03180 0.23120 -0.19200
C 	C 	0.14400 0.03680 0.86650 -0.04000
C 	C 	0.16460 0.08530 0.76800 -0.03200
H 	H 	0.14980 0.11840 0.83020 0.03600
C 	C 	0.20610 0.08510 0.58120 -0.05000
H 	H 	0.22060 0.11850 0.52200 0.04200
C 	C 	0.22760 0.03870 0.47630 -0.01200
C 	C 	0.20560 0.99130 0.57650 -0.03000
H 	H 	0.21920 0.95810 0.50720 0.03800
C 	C 	0.16560 0.98980 0.76900 -0.01700
H 	H 	0.15270 0.95630 0.83580 0.03800
C 	C 	0.10190 0.03500 0.06770 0.06200
N 	N 	0.56820 0.53180 0.73120 -0.18400
C 	C 	0.64400 0.53680 0.36650 -0.03600
C 	C 	0.66460 0.58530 0.26800 -0.01600
H 	H 	0.64980 0.61840 0.33020 0.03000
C 	C 	0.70610 0.58510 0.08120 -0.08200
H 	H 	0.72060 0.61850 0.02200 0.05200
C 	C 	0.72760 0.53870 0.97630 0.04300
C 	C 	0.70560 0.49130 0.07650 -0.07900
H 	H 	0.71920 0.45810 0.00720 0.05100
C 	C 	0.66560 0.48980 0.26900 -0.01900
H 	H 	0.65270 0.45630 0.33580 0.03300
C 	C 	0.60190 0.53500 0.56770 0.07300
N 	N 	0.46820 0.93180 0.98120 -0.17700
C 	C 	0.46320 0.85600 0.61650 -0.03200
C 	C 	0.41470 0.83540 0.51800 -0.01800
H 	H 	0.38160 0.85020 0.58020 0.03300
C 	C 	0.41490 0.79390 0.33120 -0.07800
H 	H 	0.38150 0.77940 0.27200 0.05100
C 	C 	0.46130 0.77240 0.22630 0.04100
C 	C 	0.50870 0.79440 0.32650 -0.07600
H 	H 	0.54190 0.78080 0.25720 0.04900
C 	C 	0.51020 0.83440 0.51900 -0.02100
H 	H 	0.54370 0.84730 0.58580 0.03500
C 	C 	0.46500 0.89810 0.81770 0.07600
N 	N 	0.96820 0.43180 0.48120 -0.17800
C 	C 	0.96320 0.35600 0.11650 -0.00200
C 	C 	0.91470 0.33540 0.01800 -0.03300
H 	H 	0.88160 0.35020 0.08020 0.03700
C 	C 	0.91490 0.29390 0.83120 -0.06500
H 	H 	0.88150 0.27940 0.77200 0.04700
C 	C 	0.96130 0.27240 0.72630 0.04000
C 	C 	0.00870 0.29440 0.82650 -0.08100
H 	H 	0.04190 0.28080 0.75720 0.04900
C 	C 	0.01020 0.33440 0.01900 -0.05300
H 	H 	0.04370 0.34730 0.08580 0.04200
C 	C 	0.96500 0.39810 0.31770 0.07000
N 	N 	0.53180 0.06820 0.98120 -0.18600
C 	C 	0.53680 0.14400 0.61650 -0.03400
C 	C 	0.58530 0.16460 0.51800 -0.01800
H 	H 	0.61840 0.14980 0.58020 0.03100
C 	C 	0.58510 0.20610 0.33120 -0.07900
H 	H 	0.61850 0.22060 0.27200 0.05100
C 	C 	0.53870 0.22760 0.22630 0.04200
C 	C 	0.49130 0.20560 0.32650 -0.07600
H 	H 	0.45810 0.21920 0.25720 0.04900
C 	C 	0.48980 0.16560 0.51900 -0.02100
H 	H 	0.45630 0.15270 0.58580 0.03500
C 	C 	0.53500 0.10190 0.81770 0.07200
N 	N 	0.03180 0.56820 0.48120 -0.19200
C 	C 	0.03680 0.64400 0.11650 -0.05500
C 	C 	0.08530 0.66460 0.01800 -0.01600
H 	H 	0.11840 0.64980 0.08020 0.03100
C 	C 	0.08510 0.70610 0.83120 -0.06900
H 	H 	0.11850 0.72060 0.77200 0.04900
C 	C 	0.03870 0.72760 0.72630 0.01000
C 	C 	0.99130 0.70560 0.82650 -0.05000
H 	H 	0.95810 0.71920 0.75720 0.04500
C 	C 	0.98980 0.66560 0.01900 0.00100
H 	H 	0.95630 0.65270 0.08580 0.03100
C 	C 	0.03500 0.60190 0.31770 0.07300
N 	N 	0.56820 0.96820 0.51880 -0.18200
C 	C 	0.64400 0.96320 0.88350 -0.02400
C 	C 	0.66460 0.91470 0.98200 -0.00000
H 	H 	0.64980 0.88160 0.91980 0.02800
C 	C 	0.70610 0.91490 0.16880 -0.09900
H 	H 	0.72060 0.88150 0.22800 0.05700
C 	C 	0.72760 0.96130 0.27370 0.06500
C 	C 	0.70560 0.00870 0.17350 -0.11400
H 	H 	0.71920 0.04190 0.24280 0.05900
C 	C 	0.66560 0.01020 0.98100 -0.02000
H 	H 	0.65270 0.04370 0.91420 0.03200
C 	C 	0.60190 0.96500 0.68230 0.07800
N 	N 	0.06820 0.46820 0.01880 -0.18700
C 	C 	0.14400 0.46320 0.38350 -0.02200
C 	C 	0.16460 0.41470 0.48200 -0.03400
H 	H 	0.14980 0.38160 0.41980 0.03600
C 	C 	0.20610 0.41490 0.66880 -0.05500
H 	H 	0.22060 0.38150 0.72800 0.04400
C 	C 	0.22760 0.46130 0.77370 0.01100
C 	C 	0.20560 0.50870 0.67350 -0.05300
H 	H 	0.21920 0.54190 0.74280 0.04300
C 	C 	0.16560 0.51020 0.48100 -0.03700
H 	H 	0.15270 0.54370 0.41420 0.04000
C 	C 	0.10190 0.46500 0.18230 0.06600
N 	N 	0.43180 0.03180 0.51880 -0.19500
C 	C 	0.35600 0.03680 0.88350 -0.07600
C 	C 	0.33540 0.08530 0.98200 0.01400
H 	H 	0.35020 0.11840 0.91980 0.02300
C 	C 	0.29390 0.08510 0.16880 -0.10100
H 	H 	0.27940 0.11850 0.22800 0.05800
C 	C 	0.27240 0.03870 0.27370 0.03300
C 	C 	0.29440 0.99130 0.17350 -0.08200
H 	H 	0.28080 0.95810 0.24280 0.05500
C 	C 	0.33440 0.98980 0.98100 0.03200
H 	H 	0.34730 0.95630 0.91420 0.02300
C 	C 	0.39810 0.03500 0.68230 0.08000
N 	N 	0.93180 0.53180 0.01880 -0.17900
C 	C 	0.85600 0.53680 0.38350 -0.02000
C 	C 	0.83540 0.58530 0.48200 -0.03400
H 	H 	0.85020 0.61840 0.41980 0.03800
C 	C 	0.79390 0.58510 0.66880 -0.05500
H 	H 	0.77940 0.61850 0.72800 0.04400
C 	C 	0.77240 0.53870 0.77370 0.01000
C 	C 	0.79440 0.49130 0.67350 -0.05200
H 	H 	0.78080 0.45810 0.74280 0.04300
C 	C 	0.83440 0.48980 0.48100 -0.03800
H 	H 	0.84730 0.45630 0.41420 0.04000
C 	C 	0.89810 0.53500 0.18230 0.07000
Ag	Ag	0.00000 0.00000 0.50000 0.53200
Ag	Ag	0.50000 0.50000 -0.00000 0.54700
Ag	Ag	0.50000 0.00000 0.25000 0.53700
Ag	Ag	0.00000 0.50000 0.75000 0.54000
