data_crystal

_cell_length_a 16.18110
_cell_length_b 16.18110
_cell_length_c 30.47740
_cell_angle_alpha 90.00000
_cell_angle_beta  90.00000
_cell_angle_gamma 120.00000

_symmetry_space_group_name_	'P 1'
_symmetry_space_group_name_H-M	'P 1'

loop_
_symmetry_equiv_pos_as_xyz
  x,y,z

loop_
_atom_site_label
_atom_site_type_symbol
_atom_site_fract_x
_atom_site_fract_y
_atom_site_fract_z
_atom_site_charge
O 	O 	0.64310 0.12350 0.44678 -0.39800
O 	O 	0.97230 0.69930 0.23985 -0.39700
O 	O 	0.49840 0.10200 0.45773 -0.45100
C 	C 	0.62140 0.25710 0.44027 -0.20300
C 	C 	0.68600 0.44990 0.42262 0.18900
N 	N 	0.71980 0.54780 0.41358 -0.19900
O 	O 	0.67470 0.78980 0.56772 -0.25700
O 	O 	0.68280 0.87460 0.50910 -0.37400
C 	C 	0.84100 0.59790 0.30593 0.14600
H 	H 	0.83140 0.56910 0.27860 -0.00500
C 	C 	0.56280 0.29630 0.44675 0.13600
H 	H 	0.50120 0.25770 0.45730 -0.01200
C 	C 	0.68620 0.58600 0.48679 -0.21100
H 	H 	0.68530 0.53230 0.49830 0.10900
C 	C 	0.59390 0.39090 0.43787 -0.23100
H 	H 	0.55310 0.41510 0.44210 0.11600
C 	C 	0.78840 0.59470 0.37999 0.19000
C 	C 	0.71410 0.31710 0.42548 0.13300
H 	H 	0.75480 0.29270 0.42120 0.00500
C 	C 	0.69830 0.60340 0.44191 0.18100
C 	C 	0.93620 0.72840 0.35449 0.14900
H 	H 	0.99040 0.78690 0.36000 0.03700
C 	C 	0.77530 0.55250 0.33852 -0.22700
H 	H 	0.72180 0.49330 0.33310 0.11600
C 	C 	0.69270 0.68070 0.42487 -0.20900
H 	H 	0.69520 0.69020 0.39470 0.11200
C 	C 	0.67540 0.64770 0.51434 0.11300
H 	H 	0.66740 0.63540 0.54430 0.00400
C 	C 	0.58580 0.15440 0.44913 0.41300
C 	C 	0.86960 0.68280 0.38739 -0.21800
H 	H 	0.87930 0.71150 0.41480 0.13100
C 	C 	0.99230 0.73110 0.27646 0.53000
O 	O 	0.07590 0.79960 0.28713 -0.45200
H 	H 	0.14160 0.81370 0.28930 0.23900
C 	C 	0.67720 0.80310 0.52661 0.38800
C 	C 	0.74620 0.41190 0.41714 -0.22600
H 	H 	0.80870 0.45120 0.40780 0.12200
C 	C 	0.92210 0.68690 0.31313 -0.21000
C 	C 	0.68350 0.74260 0.45249 0.11600
H 	H 	0.68190 0.79490 0.44080 0.01200
C 	C 	0.67650 0.72860 0.49756 -0.16900
O 	O 	0.87650 0.51960 0.11345 -0.36500
O 	O 	0.30070 0.27300 0.90652 -0.41100
O 	O 	0.89800 0.39640 0.12440 -0.41800
C 	C 	0.74290 0.36430 0.10694 -0.19000
C 	C 	0.55010 0.23610 0.08929 0.17900
N 	N 	0.45220 0.17200 0.08025 -0.20100
O 	O 	0.21020 0.88490 0.23439 -0.25000
O 	O 	0.12540 0.80820 0.17577 -0.40000
C 	C 	0.40210 0.24310 0.97260 0.12900
H 	H 	0.43090 0.26230 0.94527 -0.00300
C 	C 	0.70370 0.26650 0.11342 0.12400
H 	H 	0.74230 0.24350 0.12397 -0.00800
C 	C 	0.41400 0.10020 0.15346 -0.20200
H 	H 	0.46770 0.15300 0.16497 0.10300
C 	C 	0.60910 0.20300 0.10454 -0.22100
H 	H 	0.58490 0.13800 0.10877 0.10300
C 	C 	0.40530 0.19370 0.04666 0.18100
C 	C 	0.68290 0.39700 0.09215 0.12200
H 	H 	0.70730 0.46210 0.08787 0.00800
C 	C 	0.39660 0.09490 0.10858 0.19000
C 	C 	0.27160 0.20780 0.02116 0.12900
H 	H 	0.21310 0.20350 0.02667 0.00900
C 	C 	0.44750 0.22280 0.00519 -0.22300
H 	H 	0.50670 0.22850 0.99977 0.11100
C 	C 	0.31930 0.01200 0.09154 -0.29700
H 	H 	0.30980 0.00500 0.06137 0.12200
C 	C 	0.35230 0.02770 0.18101 0.04300
H 	H 	0.36460 0.03200 0.21097 0.01300
C 	C 	0.84560 0.43140 0.11580 0.40200
C 	C 	0.31720 0.18680 0.05406 -0.21800
H 	H 	0.28850 0.16780 0.08147 0.11400
C 	C 	0.26890 0.26120 0.94313 0.45800
O 	O 	0.20040 0.27630 0.95380 -0.40600
H 	H 	0.18630 0.32790 0.95597 0.22100
C 	C 	0.19690 0.87410 0.19328 0.38200
C 	C 	0.58810 0.33430 0.08381 -0.21700
H 	H 	0.54880 0.35750 0.07447 0.11300
C 	C 	0.31310 0.23520 0.97980 -0.20400
C 	C 	0.25740 0.94090 0.11916 0.18700
H 	H 	0.20510 0.88700 0.10747 -0.01100
C 	C 	0.27140 0.94790 0.16423 -0.13300
O 	O 	0.48040 0.35690 0.78011 -0.38900
O 	O 	0.72700 0.02770 0.57318 -0.39900
O 	O 	0.60360 0.50160 0.79106 -0.44500
C 	C 	0.63570 0.37860 0.77360 -0.20300
C 	C 	0.76390 0.31400 0.75595 0.19000
N 	N 	0.82800 0.28020 0.74691 -0.19500
O 	O 	0.11510 0.32530 0.90105 -0.28700
O 	O 	0.19180 0.31720 0.84243 -0.40700
C 	C 	0.75690 0.15900 0.63926 0.11600
H 	H 	0.73770 0.16860 0.61193 0.00400
C 	C 	0.73350 0.43720 0.78008 0.14000
H 	H 	0.75650 0.49880 0.79063 -0.01300
C 	C 	0.89980 0.31380 0.82012 -0.22500
H 	H 	0.84700 0.31470 0.83163 0.11600
C 	C 	0.79700 0.40610 0.77120 -0.23400
H 	H 	0.86200 0.44690 0.77543 0.12500
C 	C 	0.80630 0.21160 0.71332 0.17800
C 	C 	0.60300 0.28590 0.75881 0.13100
H 	H 	0.53790 0.24520 0.75453 0.00000
C 	C 	0.90510 0.30170 0.77524 0.17000
C 	C 	0.79220 0.06380 0.68782 0.11500
H 	H 	0.79650 0.00960 0.69333 0.00900
C 	C 	0.77720 0.22470 0.67185 -0.20900
H 	H 	0.77150 0.27820 0.66643 0.11200
C 	C 	0.98800 0.30730 0.75820 -0.12800
H 	H 	0.99500 0.30480 0.72803 0.09900
C 	C 	0.97230 0.32460 0.84767 0.18300
H 	H 	0.96800 0.33260 0.87763 -0.00600
C 	C 	0.56860 0.41420 0.78246 0.41300
C 	C 	0.81320 0.13040 0.72072 -0.20700
H 	H 	0.83220 0.12070 0.74813 0.11500
C 	C 	0.73880 0.00770 0.60979 0.39100
O 	O 	0.72370 0.92410 0.62046 -0.33200
H 	H 	0.67210 0.85840 0.62263 0.21400
C 	C 	0.12590 0.32280 0.85994 0.39800
C 	C 	0.66570 0.25380 0.75047 -0.22600
H 	H 	0.64250 0.19130 0.74113 0.11000
C 	C 	0.76480 0.07790 0.64646 -0.17900
C 	C 	0.05910 0.31650 0.78582 0.04100
H 	H 	0.11300 0.31810 0.77413 0.02400
C 	C 	0.05210 0.32350 0.83089 -0.21900
O 	O 	0.35690 0.87650 0.44678 -0.36500
O 	O 	0.02770 0.30070 0.23985 -0.40300
O 	O 	0.50160 0.89800 0.45773 -0.41900
C 	C 	0.37860 0.74290 0.44027 -0.19200
C 	C 	0.31400 0.55010 0.42262 0.18300
N 	N 	0.28020 0.45220 0.41358 -0.19700
O 	O 	0.32530 0.21020 0.56772 -0.27200
O 	O 	0.31720 0.12540 0.50910 -0.40800
C 	C 	0.15900 0.40210 0.30593 0.11400
H 	H 	0.16860 0.43090 0.27860 0.00300
C 	C 	0.43720 0.70370 0.44675 0.12900
H 	H 	0.49880 0.74230 0.45730 -0.00900
C 	C 	0.31380 0.41400 0.48679 -0.21400
H 	H 	0.31470 0.46770 0.49830 0.10900
C 	C 	0.40610 0.60910 0.43787 -0.22500
H 	H 	0.44690 0.58490 0.44210 0.11300
C 	C 	0.21160 0.40530 0.37999 0.17600
C 	C 	0.28590 0.68290 0.42548 0.12300
H 	H 	0.24520 0.70730 0.42120 0.00500
C 	C 	0.30170 0.39660 0.44191 0.17900
C 	C 	0.06380 0.27160 0.35449 0.11200
H 	H 	0.00960 0.21310 0.36000 0.00000
C 	C 	0.22470 0.44750 0.33852 -0.21200
H 	H 	0.27820 0.50670 0.33310 0.11000
C 	C 	0.30730 0.31930 0.42487 -0.21300
H 	H 	0.30480 0.30980 0.39470 0.10900
C 	C 	0.32460 0.35230 0.51434 0.11200
H 	H 	0.33260 0.36460 0.54430 0.00300
C 	C 	0.41420 0.84560 0.44913 0.40300
C 	C 	0.13040 0.31720 0.38739 -0.21100
H 	H 	0.12070 0.28850 0.41480 0.10900
C 	C 	0.00770 0.26890 0.27646 0.38800
O 	O 	0.92410 0.20040 0.28713 -0.34000
H 	H 	0.85840 0.18630 0.28930 0.21000
C 	C 	0.32280 0.19690 0.52661 0.38900
C 	C 	0.25380 0.58810 0.41714 -0.21900
H 	H 	0.19130 0.54880 0.40780 0.10800
C 	C 	0.07790 0.31310 0.31313 -0.18400
C 	C 	0.31650 0.25740 0.45249 0.11200
H 	H 	0.31810 0.20510 0.44080 0.00500
C 	C 	0.32350 0.27140 0.49756 -0.17800
O 	O 	0.12350 0.48040 0.11345 -0.39800
O 	O 	0.69930 0.72700 0.90652 -0.40300
O 	O 	0.10200 0.60360 0.12440 -0.45200
C 	C 	0.25710 0.63570 0.10694 -0.20500
C 	C 	0.44990 0.76390 0.08929 0.19200
N 	N 	0.54780 0.82800 0.08025 -0.19600
O 	O 	0.78980 0.11510 0.23439 -0.27800
O 	O 	0.87460 0.19180 0.17577 -0.38200
C 	C 	0.59790 0.75690 0.97260 0.13400
H 	H 	0.56910 0.73770 0.94527 -0.00100
C 	C 	0.29630 0.73350 0.11342 0.14200
H 	H 	0.25770 0.75650 0.12397 -0.01200
C 	C 	0.58600 0.89980 0.15346 -0.22300
H 	H 	0.53230 0.84700 0.16497 0.11600
C 	C 	0.39090 0.79700 0.10454 -0.23500
H 	H 	0.41510 0.86200 0.10877 0.12600
C 	C 	0.59470 0.80630 0.04666 0.18600
C 	C 	0.31710 0.60300 0.09215 0.13400
H 	H 	0.29270 0.53790 0.08787 0.00200
C 	C 	0.60340 0.90510 0.10858 0.17000
C 	C 	0.72840 0.79220 0.02116 0.13600
H 	H 	0.78690 0.79650 0.02667 0.02700
C 	C 	0.55250 0.77720 0.00519 -0.21800
H 	H 	0.49330 0.77150 0.99977 0.11500
C 	C 	0.68070 0.98800 0.09154 -0.12600
H 	H 	0.69020 0.99500 0.06137 0.10000
C 	C 	0.64770 0.97230 0.18101 0.18300
H 	H 	0.63540 0.96800 0.21097 -0.00500
C 	C 	0.15440 0.56860 0.11580 0.41400
C 	C 	0.68280 0.81320 0.05406 -0.21300
H 	H 	0.71150 0.83220 0.08147 0.12700
C 	C 	0.73110 0.73880 0.94313 0.46500
O 	O 	0.79960 0.72370 0.95380 -0.38900
H 	H 	0.81370 0.67210 0.95597 0.22800
C 	C 	0.80310 0.12590 0.19328 0.39500
C 	C 	0.41190 0.66570 0.08381 -0.22800
H 	H 	0.45120 0.64250 0.07447 0.11600
C 	C 	0.68690 0.76480 0.97980 -0.19400
C 	C 	0.74260 0.05910 0.11916 0.04100
H 	H 	0.79490 0.11300 0.10747 0.02800
C 	C 	0.72860 0.05210 0.16423 -0.21300
O 	O 	0.51960 0.64310 0.78011 -0.38900
O 	O 	0.27300 0.97230 0.57318 -0.40100
O 	O 	0.39640 0.49840 0.79106 -0.44400
C 	C 	0.36430 0.62140 0.77360 -0.19800
C 	C 	0.23610 0.68600 0.75595 0.18400
N 	N 	0.17200 0.71980 0.74691 -0.20200
O 	O 	0.88490 0.67470 0.90105 -0.24500
O 	O 	0.80820 0.68280 0.84243 -0.39100
C 	C 	0.24310 0.84100 0.63926 0.14400
H 	H 	0.26230 0.83140 0.61193 -0.00600
C 	C 	0.26650 0.56280 0.78008 0.13000
H 	H 	0.24350 0.50120 0.79063 -0.01100
C 	C 	0.10020 0.68620 0.82012 -0.20100
H 	H 	0.15300 0.68530 0.83163 0.10300
C 	C 	0.20300 0.59390 0.77120 -0.22600
H 	H 	0.13800 0.55310 0.77543 0.10500
C 	C 	0.19370 0.78840 0.71332 0.18800
C 	C 	0.39700 0.71410 0.75881 0.12900
H 	H 	0.46210 0.75480 0.75453 0.00800
C 	C 	0.09490 0.69830 0.77524 0.19100
C 	C 	0.20780 0.93620 0.68782 0.14700
H 	H 	0.20350 0.99040 0.69333 0.02800
C 	C 	0.22280 0.77530 0.67185 -0.23000
H 	H 	0.22850 0.72180 0.66643 0.11400
C 	C 	0.01200 0.69270 0.75820 -0.29600
H 	H 	0.00500 0.69520 0.72803 0.12400
C 	C 	0.02770 0.67540 0.84767 0.04600
H 	H 	0.03200 0.66740 0.87763 0.01300
C 	C 	0.43140 0.58580 0.78246 0.41200
C 	C 	0.18680 0.86960 0.72072 -0.22200
H 	H 	0.16780 0.87930 0.74813 0.12500
C 	C 	0.26120 0.99230 0.60979 0.52700
O 	O 	0.27630 0.07590 0.62046 -0.46100
H 	H 	0.32790 0.14160 0.62263 0.23500
C 	C 	0.87410 0.67720 0.85994 0.38500
C 	C 	0.33430 0.74620 0.75047 -0.22200
H 	H 	0.35750 0.80870 0.74113 0.12100
C 	C 	0.23520 0.92210 0.64646 -0.21600
C 	C 	0.94090 0.68350 0.78582 0.19000
H 	H 	0.88700 0.68190 0.77413 -0.00900
C 	C 	0.94790 0.67650 0.83089 -0.13200
O 	O 	0.12350 0.64310 0.21989 -0.39800
O 	O 	0.69930 0.97230 0.42682 -0.39700
O 	O 	0.10200 0.49840 0.20894 -0.45100
C 	C 	0.25710 0.62140 0.22640 -0.20300
C 	C 	0.44990 0.68600 0.24405 0.18900
N 	N 	0.54780 0.71980 0.25309 -0.19900
O 	O 	0.78980 0.67470 0.09895 -0.25700
O 	O 	0.87460 0.68280 0.15757 -0.37400
C 	C 	0.59790 0.84100 0.36074 0.14600
H 	H 	0.56910 0.83140 0.38807 -0.00500
C 	C 	0.29630 0.56280 0.21992 0.13600
H 	H 	0.25770 0.50120 0.20937 -0.01200
C 	C 	0.58600 0.68620 0.17988 -0.21100
H 	H 	0.53230 0.68530 0.16837 0.10900
C 	C 	0.39090 0.59390 0.22880 -0.23100
H 	H 	0.41510 0.55310 0.22457 0.11600
C 	C 	0.59470 0.78840 0.28668 0.19000
C 	C 	0.31710 0.71410 0.24119 0.13300
H 	H 	0.29270 0.75480 0.24547 0.00500
C 	C 	0.60340 0.69830 0.22476 0.18100
C 	C 	0.72840 0.93620 0.31218 0.14900
H 	H 	0.78690 0.99040 0.30667 0.03600
C 	C 	0.55250 0.77530 0.32815 -0.22700
H 	H 	0.49330 0.72180 0.33357 0.11600
C 	C 	0.68070 0.69270 0.24180 -0.20900
H 	H 	0.69020 0.69520 0.27197 0.11200
C 	C 	0.64770 0.67540 0.15233 0.11300
H 	H 	0.63540 0.66740 0.12237 0.00400
C 	C 	0.15440 0.58580 0.21754 0.41300
C 	C 	0.68280 0.86960 0.27928 -0.21800
H 	H 	0.71150 0.87930 0.25187 0.13100
C 	C 	0.73110 0.99230 0.39021 0.52900
O 	O 	0.79960 0.07590 0.37954 -0.45100
H 	H 	0.81370 0.14160 0.37737 0.23900
C 	C 	0.80310 0.67720 0.14006 0.38800
C 	C 	0.41190 0.74620 0.24953 -0.22600
H 	H 	0.45120 0.80870 0.25887 0.12200
C 	C 	0.68690 0.92210 0.35354 -0.21000
C 	C 	0.74260 0.68350 0.21418 0.11600
H 	H 	0.79490 0.68190 0.22587 0.01200
C 	C 	0.72860 0.67650 0.16911 -0.16900
O 	O 	0.51960 0.87650 0.55322 -0.36500
O 	O 	0.27300 0.30070 0.76015 -0.41100
O 	O 	0.39640 0.89800 0.54227 -0.41800
C 	C 	0.36430 0.74290 0.55973 -0.19000
C 	C 	0.23610 0.55010 0.57738 0.17900
N 	N 	0.17200 0.45220 0.58642 -0.20100
O 	O 	0.88490 0.21020 0.43228 -0.25000
O 	O 	0.80820 0.12540 0.49090 -0.40000
C 	C 	0.24310 0.40210 0.69407 0.13000
H 	H 	0.26230 0.43090 0.72140 -0.00300
C 	C 	0.26650 0.70370 0.55325 0.12400
H 	H 	0.24350 0.74230 0.54270 -0.00800
C 	C 	0.10020 0.41400 0.51321 -0.20200
H 	H 	0.15300 0.46770 0.50170 0.10300
C 	C 	0.20300 0.60910 0.56213 -0.22100
H 	H 	0.13800 0.58490 0.55790 0.10300
C 	C 	0.19370 0.40530 0.62001 0.18100
C 	C 	0.39700 0.68290 0.57452 0.12200
H 	H 	0.46210 0.70730 0.57880 0.00800
C 	C 	0.09490 0.39660 0.55809 0.19000
C 	C 	0.20780 0.27160 0.64551 0.12900
H 	H 	0.20350 0.21310 0.64000 0.00900
C 	C 	0.22280 0.44750 0.66148 -0.22400
H 	H 	0.22850 0.50670 0.66690 0.11100
C 	C 	0.01200 0.31930 0.57513 -0.29700
H 	H 	0.00500 0.30980 0.60530 0.12200
C 	C 	0.02770 0.35230 0.48566 0.04200
H 	H 	0.03200 0.36460 0.45570 0.01300
C 	C 	0.43140 0.84560 0.55087 0.40300
C 	C 	0.18680 0.31720 0.61261 -0.21900
H 	H 	0.16780 0.28850 0.58520 0.11400
C 	C 	0.26120 0.26890 0.72354 0.45900
O 	O 	0.27630 0.20040 0.71287 -0.40600
H 	H 	0.32790 0.18630 0.71070 0.22100
C 	C 	0.87410 0.19690 0.47339 0.38200
C 	C 	0.33430 0.58810 0.58286 -0.21700
H 	H 	0.35750 0.54880 0.59220 0.11300
C 	C 	0.23520 0.31310 0.68687 -0.20500
C 	C 	0.94090 0.25740 0.54751 0.18700
H 	H 	0.88700 0.20510 0.55920 -0.01100
C 	C 	0.94790 0.27140 0.50244 -0.13300
O 	O 	0.35690 0.48040 0.88655 -0.38900
O 	O 	0.02770 0.72700 0.09348 -0.39900
O 	O 	0.50160 0.60360 0.87560 -0.44500
C 	C 	0.37860 0.63570 0.89306 -0.20300
C 	C 	0.31400 0.76390 0.91071 0.19100
N 	N 	0.28020 0.82800 0.91975 -0.19400
O 	O 	0.32530 0.11510 0.76561 -0.28700
O 	O 	0.31720 0.19180 0.82423 -0.40700
C 	C 	0.15900 0.75690 0.02740 0.11400
H 	H 	0.16860 0.73770 0.05473 0.00500
C 	C 	0.43720 0.73350 0.88658 0.14000
H 	H 	0.49880 0.75650 0.87603 -0.01300
C 	C 	0.31380 0.89980 0.84654 -0.22600
H 	H 	0.31470 0.84700 0.83503 0.11700
C 	C 	0.40610 0.79700 0.89546 -0.23400
H 	H 	0.44690 0.86200 0.89123 0.12600
C 	C 	0.21160 0.80630 0.95334 0.17700
C 	C 	0.28590 0.60300 0.90785 0.13100
H 	H 	0.24520 0.53790 0.91213 0.00100
C 	C 	0.30170 0.90510 0.89142 0.17000
C 	C 	0.06380 0.79220 0.97884 0.11600
H 	H 	0.00960 0.79650 0.97333 0.00900
C 	C 	0.22470 0.77720 0.99481 -0.20600
H 	H 	0.27820 0.77150 0.00023 0.11000
C 	C 	0.30730 0.98800 0.90846 -0.12700
H 	H 	0.30480 0.99500 0.93863 0.09900
C 	C 	0.32460 0.97230 0.81899 0.18500
H 	H 	0.33260 0.96800 0.78903 -0.00600
C 	C 	0.41420 0.56860 0.88420 0.41300
C 	C 	0.13040 0.81320 0.94594 -0.20700
H 	H 	0.12070 0.83220 0.91853 0.11500
C 	C 	0.00770 0.73880 0.05687 0.39000
O 	O 	0.92410 0.72370 0.04620 -0.33200
H 	H 	0.85840 0.67210 0.04403 0.21400
C 	C 	0.32280 0.12590 0.80672 0.39900
C 	C 	0.25380 0.66570 0.91619 -0.22600
H 	H 	0.19130 0.64250 0.92553 0.11100
C 	C 	0.07790 0.76480 0.02020 -0.17900
C 	C 	0.31650 0.05910 0.88084 0.04000
H 	H 	0.31810 0.11300 0.89253 0.02400
C 	C 	0.32350 0.05210 0.83577 -0.22000
O 	O 	0.87650 0.35690 0.21989 -0.36500
O 	O 	0.30070 0.02770 0.42682 -0.40300
O 	O 	0.89800 0.50160 0.20894 -0.41800
C 	C 	0.74290 0.37860 0.22640 -0.19200
C 	C 	0.55010 0.31400 0.24405 0.18300
N 	N 	0.45220 0.28020 0.25309 -0.19700
O 	O 	0.21020 0.32530 0.09895 -0.27200
O 	O 	0.12540 0.31720 0.15757 -0.40800
C 	C 	0.40210 0.15900 0.36074 0.11400
H 	H 	0.43090 0.16860 0.38807 0.00300
C 	C 	0.70370 0.43720 0.21992 0.12900
H 	H 	0.74230 0.49880 0.20937 -0.00900
C 	C 	0.41400 0.31380 0.17988 -0.21400
H 	H 	0.46770 0.31470 0.16837 0.10900
C 	C 	0.60910 0.40610 0.22880 -0.22500
H 	H 	0.58490 0.44690 0.22457 0.11300
C 	C 	0.40530 0.21160 0.28668 0.17600
C 	C 	0.68290 0.28590 0.24119 0.12300
H 	H 	0.70730 0.24520 0.24547 0.00500
C 	C 	0.39660 0.30170 0.22476 0.17900
C 	C 	0.27160 0.06380 0.31218 0.11300
H 	H 	0.21310 0.00960 0.30667 0.00000
C 	C 	0.44750 0.22470 0.32815 -0.21200
H 	H 	0.50670 0.27820 0.33357 0.11000
C 	C 	0.31930 0.30730 0.24180 -0.21300
H 	H 	0.30980 0.30480 0.27197 0.10900
C 	C 	0.35230 0.32460 0.15233 0.11200
H 	H 	0.36460 0.33260 0.12237 0.00300
C 	C 	0.84560 0.41420 0.21754 0.40300
C 	C 	0.31720 0.13040 0.27928 -0.21100
H 	H 	0.28850 0.12070 0.25187 0.10900
C 	C 	0.26890 0.00770 0.39021 0.38800
O 	O 	0.20040 0.92410 0.37954 -0.34100
H 	H 	0.18630 0.85840 0.37737 0.21000
C 	C 	0.19690 0.32280 0.14006 0.38900
C 	C 	0.58810 0.25380 0.24953 -0.21900
H 	H 	0.54880 0.19130 0.25887 0.10800
C 	C 	0.31310 0.07790 0.35354 -0.18400
C 	C 	0.25740 0.31650 0.21418 0.11200
H 	H 	0.20510 0.31810 0.22587 0.00500
C 	C 	0.27140 0.32350 0.16911 -0.17800
O 	O 	0.48040 0.12350 0.55322 -0.39800
O 	O 	0.72700 0.69930 0.76015 -0.40300
O 	O 	0.60360 0.10200 0.54227 -0.45200
C 	C 	0.63570 0.25710 0.55973 -0.20500
C 	C 	0.76390 0.44990 0.57738 0.19200
N 	N 	0.82800 0.54780 0.58642 -0.19600
O 	O 	0.11510 0.78980 0.43228 -0.27900
O 	O 	0.19180 0.87460 0.49090 -0.38200
C 	C 	0.75690 0.59790 0.69407 0.13300
H 	H 	0.73770 0.56910 0.72140 -0.00000
C 	C 	0.73350 0.29630 0.55325 0.14200
H 	H 	0.75650 0.25770 0.54270 -0.01200
C 	C 	0.89980 0.58600 0.51321 -0.22300
H 	H 	0.84700 0.53230 0.50170 0.11600
C 	C 	0.79700 0.39090 0.56213 -0.23500
H 	H 	0.86200 0.41510 0.55790 0.12600
C 	C 	0.80630 0.59470 0.62001 0.18600
C 	C 	0.60300 0.31710 0.57452 0.13400
H 	H 	0.53790 0.29270 0.57880 0.00200
C 	C 	0.90510 0.60340 0.55809 0.17000
C 	C 	0.79220 0.72840 0.64551 0.13500
H 	H 	0.79650 0.78690 0.64000 0.02700
C 	C 	0.77720 0.55250 0.66148 -0.21700
H 	H 	0.77150 0.49330 0.66690 0.11500
C 	C 	0.98800 0.68070 0.57513 -0.12500
H 	H 	0.99500 0.69020 0.60530 0.10000
C 	C 	0.97230 0.64770 0.48566 0.18300
H 	H 	0.96800 0.63540 0.45570 -0.00500
C 	C 	0.56860 0.15440 0.55087 0.41400
C 	C 	0.81320 0.68280 0.61261 -0.21200
H 	H 	0.83220 0.71150 0.58520 0.12700
C 	C 	0.73880 0.73110 0.72354 0.46400
O 	O 	0.72370 0.79960 0.71287 -0.38900
H 	H 	0.67210 0.81370 0.71070 0.22800
C 	C 	0.12590 0.80310 0.47339 0.39500
C 	C 	0.66570 0.41190 0.58286 -0.22800
H 	H 	0.64250 0.45120 0.59220 0.11600
C 	C 	0.76480 0.68690 0.68687 -0.19300
C 	C 	0.05910 0.74260 0.54751 0.04100
H 	H 	0.11300 0.79490 0.55920 0.02800
C 	C 	0.05210 0.72860 0.50244 -0.21400
O 	O 	0.64310 0.51960 0.88655 -0.38900
O 	O 	0.97230 0.27300 0.09348 -0.40100
O 	O 	0.49840 0.39640 0.87560 -0.44400
C 	C 	0.62140 0.36430 0.89306 -0.19800
C 	C 	0.68600 0.23610 0.91071 0.18300
N 	N 	0.71980 0.17200 0.91975 -0.20200
O 	O 	0.67470 0.88490 0.76561 -0.24400
O 	O 	0.68280 0.80820 0.82423 -0.39100
C 	C 	0.84100 0.24310 0.02740 0.14700
H 	H 	0.83140 0.26230 0.05473 -0.00700
C 	C 	0.56280 0.26650 0.88658 0.13000
H 	H 	0.50120 0.24350 0.87603 -0.01100
C 	C 	0.68620 0.10020 0.84654 -0.20100
H 	H 	0.68530 0.15300 0.83503 0.10300
C 	C 	0.59390 0.20300 0.89546 -0.22600
H 	H 	0.55310 0.13800 0.89123 0.10400
C 	C 	0.78840 0.19370 0.95334 0.18900
C 	C 	0.71410 0.39700 0.90785 0.12900
H 	H 	0.75480 0.46210 0.91213 0.00800
C 	C 	0.69830 0.09490 0.89142 0.19100
C 	C 	0.93620 0.20780 0.97884 0.14600
H 	H 	0.99040 0.20350 0.97333 0.02800
C 	C 	0.77530 0.22280 0.99481 -0.23400
H 	H 	0.72180 0.22850 0.00023 0.11600
C 	C 	0.69270 0.01200 0.90846 -0.29700
H 	H 	0.69520 0.00500 0.93863 0.12400
C 	C 	0.67540 0.02770 0.81899 0.04400
H 	H 	0.66740 0.03200 0.78903 0.01300
C 	C 	0.58580 0.43140 0.88420 0.41200
C 	C 	0.86960 0.18680 0.94594 -0.22200
H 	H 	0.87930 0.16780 0.91853 0.12500
C 	C 	0.99230 0.26120 0.05687 0.52800
O 	O 	0.07590 0.27630 0.04620 -0.46100
H 	H 	0.14160 0.32790 0.04403 0.23500
C 	C 	0.67720 0.87410 0.80672 0.38500
C 	C 	0.74620 0.33430 0.91619 -0.22200
H 	H 	0.80870 0.35750 0.92553 0.12000
C 	C 	0.92210 0.23520 0.02020 -0.21600
C 	C 	0.68350 0.94090 0.88084 0.19100
H 	H 	0.68190 0.88700 0.89253 -0.00900
C 	C 	0.67650 0.94790 0.83577 -0.13100
La	La	0.35666 0.00000 0.50000 1.71600
La	La	-0.00000 0.35666 0.16667 1.71500
La	La	0.64334 0.64334 0.83333 1.77800
La	La	0.64334 0.00000 0.50000 1.71700
La	La	-0.00000 0.64334 0.16667 1.71600
La	La	0.35666 0.35666 0.83333 1.77500
