data_crystal

_cell_length_a 8.50330
_cell_length_b 8.50330
_cell_length_c 30.93930
_cell_angle_alpha 90.00000
_cell_angle_beta  90.00000
_cell_angle_gamma 90.00000

_symmetry_space_group_name_	'P 1'
_symmetry_space_group_name_H-M	'P 1'

loop_
_symmetry_equiv_pos_as_xyz
  x,y,z

loop_
_atom_site_label
_atom_site_type_symbol
_atom_site_fract_x
_atom_site_fract_y
_atom_site_fract_z
_atom_site_charge
Ba	Ba	0.49761 0.49614 0.57778 1.92000
Ba	Ba	0.50239 0.50386 0.07778 1.93400
Ba	Ba	0.50386 0.49761 0.32778 1.91900
Ba	Ba	0.49614 0.50239 0.82778 1.91400
Ge	Ge	0.00136 0.99681 0.49840 1.68800
Ge	Ge	0.99973 0.00039 0.65007 1.70400
Ge	Ge	0.99864 0.00319 0.99840 1.56400
Ge	Ge	0.00027 0.99961 0.15007 1.67800
Ge	Ge	0.00319 0.00136 0.24840 1.69600
Ge	Ge	0.99961 0.99973 0.40007 1.69300
Ge	Ge	0.99681 0.99864 0.74840 1.69500
Ge	Ge	0.00039 0.00027 0.90007 1.68500
H 	H 	0.06850 0.35710 0.60710 0.02100
H 	H 	0.93600 0.35560 0.54130 0.01900
H 	H 	0.92590 0.64480 0.60770 0.03000
H 	H 	0.06030 0.63690 0.54240 0.01000
H 	H 	0.19120 0.09930 0.70130 0.37600
H 	H 	0.81620 0.90400 0.69960 0.55100
H 	H 	0.63620 0.52460 0.67800 0.21100
H 	H 	0.93150 0.64290 0.10710 0.01800
H 	H 	0.06400 0.64440 0.04130 0.02600
H 	H 	0.07410 0.35520 0.10770 0.03200
H 	H 	0.93970 0.36310 0.04240 0.01400
H 	H 	0.80880 0.90070 0.20130 0.37300
H 	H 	0.18380 0.09600 0.19960 0.55000
H 	H 	0.36380 0.47540 0.17800 0.21100
H 	H 	0.64290 0.06850 0.35710 0.01900
H 	H 	0.64440 0.93600 0.29130 0.02000
H 	H 	0.35520 0.92590 0.35770 0.03200
H 	H 	0.36310 0.06030 0.29240 0.00900
H 	H 	0.90070 0.19120 0.45130 0.37400
H 	H 	0.09600 0.81620 0.44960 0.55000
H 	H 	0.47540 0.63620 0.42800 0.21100
H 	H 	0.35710 0.93150 0.85710 0.01900
H 	H 	0.35560 0.06400 0.79130 0.01800
H 	H 	0.64480 0.07410 0.85770 0.02800
H 	H 	0.63690 0.93970 0.79240 0.01100
H 	H 	0.09930 0.80880 0.95130 0.36100
H 	H 	0.90400 0.18380 0.94960 0.53400
H 	H 	0.52460 0.36380 0.92800 0.20500
C 	C 	0.85260 0.25710 0.62015 0.40500
C 	C 	0.01470 0.25970 0.59882 0.00200
C 	C 	0.99210 0.25930 0.54941 -0.03100
C 	C 	0.15160 0.25950 0.52682 0.38900
C 	C 	0.14360 0.73830 0.62109 0.41700
C 	C 	0.98340 0.73960 0.59899 -0.04300
C 	C 	0.00710 0.73520 0.55001 0.00800
C 	C 	0.84750 0.73830 0.52809 0.36100
C 	C 	0.14740 0.74290 0.12015 0.39800
C 	C 	0.98530 0.74030 0.09882 0.01300
C 	C 	0.00790 0.74070 0.04941 -0.04600
C 	C 	0.84840 0.74050 0.02682 0.39300
C 	C 	0.85640 0.26170 0.12109 0.42200
C 	C 	0.01660 0.26040 0.09899 -0.05400
C 	C 	0.99290 0.26480 0.05001 0.01600
C 	C 	0.15250 0.26170 0.02809 0.35400
C 	C 	0.74290 0.85260 0.37015 0.39900
C 	C 	0.74030 0.01470 0.34882 0.01100
C 	C 	0.74070 0.99210 0.29941 -0.04100
C 	C 	0.74050 0.15160 0.27682 0.39400
C 	C 	0.26170 0.14360 0.37109 0.42100
C 	C 	0.26040 0.98340 0.34899 -0.05200
C 	C 	0.26480 0.00710 0.30001 0.01700
C 	C 	0.26170 0.84750 0.27809 0.35600
C 	C 	0.25710 0.14740 0.87015 0.40400
C 	C 	0.25970 0.98530 0.84882 0.00100
C 	C 	0.25930 0.00790 0.79941 -0.03000
C 	C 	0.25950 0.84840 0.77682 0.38800
C 	C 	0.73830 0.85640 0.87109 0.41400
C 	C 	0.73960 0.01660 0.84899 -0.04100
C 	C 	0.73520 0.99290 0.80001 0.00600
C 	C 	0.73830 0.15250 0.77809 0.36200
O 	O 	0.83140 0.14610 0.64765 -0.52000
O 	O 	0.75610 0.35730 0.61119 -0.47700
O 	O 	0.10580 0.13140 0.61261 -0.43800
O 	O 	0.90240 0.13000 0.53599 -0.43900
O 	O 	0.17350 0.14120 0.50085 -0.47100
O 	O 	0.24690 0.36340 0.53226 -0.46400
O 	O 	0.16860 0.85370 0.64764 -0.49700
O 	O 	0.23810 0.63370 0.61462 -0.45800
O 	O 	0.89600 0.87220 0.61191 -0.44500
O 	O 	0.10050 0.86310 0.53563 -0.45700
O 	O 	0.82890 0.85400 0.50030 -0.49100
O 	O 	0.74670 0.63990 0.53511 -0.46000
O 	O 	0.09370 0.09660 0.69978 -0.86400
O 	O 	0.90320 0.90080 0.69919 -1.07600
O 	O 	0.54880 0.55280 0.66586 -0.48000
O 	O 	0.16860 0.85390 0.14765 -0.51700
O 	O 	0.24390 0.64270 0.11119 -0.47600
O 	O 	0.89420 0.86860 0.11261 -0.43500
O 	O 	0.09760 0.87000 0.03599 -0.40900
O 	O 	0.82650 0.85880 0.00085 -0.43700
O 	O 	0.75310 0.63660 0.03226 -0.45800
O 	O 	0.83140 0.14630 0.14764 -0.49100
O 	O 	0.76190 0.36630 0.11462 -0.45900
O 	O 	0.10400 0.12780 0.11191 -0.43600
O 	O 	0.89950 0.13690 0.03563 -0.42300
O 	O 	0.17110 0.14600 0.00030 -0.45100
O 	O 	0.25330 0.36010 0.03511 -0.45200
O 	O 	0.90630 0.90340 0.19978 -0.85900
O 	O 	0.09680 0.09920 0.19919 -1.07200
O 	O 	0.45120 0.44720 0.16586 -0.48100
O 	O 	0.85390 0.83140 0.39765 -0.51800
O 	O 	0.64270 0.75610 0.36119 -0.47600
O 	O 	0.86860 0.10580 0.36261 -0.43600
O 	O 	0.87000 0.90240 0.28599 -0.44000
O 	O 	0.85880 0.17350 0.25085 -0.47300
O 	O 	0.63660 0.24690 0.28226 -0.46500
O 	O 	0.14630 0.16860 0.39764 -0.49600
O 	O 	0.36630 0.23810 0.36462 -0.45900
O 	O 	0.12780 0.89600 0.36191 -0.44200
O 	O 	0.13690 0.10050 0.28563 -0.45900
O 	O 	0.14600 0.82890 0.25030 -0.49200
O 	O 	0.36010 0.74670 0.28511 -0.45900
O 	O 	0.90340 0.09370 0.44978 -0.85900
O 	O 	0.09920 0.90320 0.44919 -1.07400
O 	O 	0.44720 0.54880 0.41586 -0.48000
O 	O 	0.14610 0.16860 0.89765 -0.52400
O 	O 	0.35730 0.24390 0.86119 -0.47800
O 	O 	0.13140 0.89420 0.86261 -0.43700
O 	O 	0.13000 0.09760 0.78599 -0.44100
O 	O 	0.14120 0.82650 0.75085 -0.47400
O 	O 	0.36340 0.75310 0.78226 -0.46300
O 	O 	0.85370 0.83140 0.89764 -0.49900
O 	O 	0.63370 0.76190 0.86462 -0.46000
O 	O 	0.87220 0.10400 0.86191 -0.44100
O 	O 	0.86310 0.89950 0.78563 -0.45600
O 	O 	0.85400 0.17110 0.75030 -0.49000
O 	O 	0.63990 0.25330 0.78511 -0.46000
O 	O 	0.09660 0.90630 0.94978 -0.85000
O 	O 	0.90080 0.09680 0.94919 -1.05500
O 	O 	0.55280 0.45120 0.91586 -0.48700
