data_crystal

_cell_length_a 30.20050
_cell_length_b 30.20050
_cell_length_c 30.20050
_cell_angle_alpha 60.00000
_cell_angle_beta  60.00000
_cell_angle_gamma 60.00000

_symmetry_space_group_name_	'P 1'
_symmetry_space_group_name_H-M	'P 1'

loop_
_symmetry_equiv_pos_as_xyz
  x,y,z

loop_
_atom_site_label
_atom_site_type_symbol
_atom_site_fract_x
_atom_site_fract_y
_atom_site_fract_z
_atom_site_charge
Cu	Cu	-0.00000 0.26254 -0.00000 0.83000
Cu	Cu	1.00000 0.35008 -0.00000 0.90000
Cu	Cu	0.26254 1.00000 0.73746 0.93100
Cu	Cu	0.35008 1.00000 0.64992 0.92400
Cu	Cu	-0.00000 0.73746 -0.00000 0.83500
Cu	Cu	-0.00000 0.64992 -0.00000 0.82700
Cu	Cu	0.73746 0.00000 0.26254 0.89600
Cu	Cu	0.64992 1.00000 0.35008 0.92500
Cu	Cu	-0.00000 1.00000 0.73746 0.89800
Cu	Cu	0.00000 1.00000 0.64992 0.89000
Cu	Cu	0.26254 0.73746 -0.00000 0.86700
Cu	Cu	0.35008 0.64992 -0.00000 0.86200
Cu	Cu	0.00000 0.00000 0.26254 0.86100
Cu	Cu	-0.00000 0.00000 0.35008 0.85800
Cu	Cu	0.73746 0.26254 -0.00000 0.86900
Cu	Cu	0.64992 0.35008 -0.00000 0.86200
Cu	Cu	-0.00000 0.73746 0.26254 0.87800
Cu	Cu	-0.00000 0.64992 0.35008 0.87400
Cu	Cu	0.26254 0.00000 -0.00000 0.84800
Cu	Cu	0.35008 0.00000 -0.00000 0.84400
Cu	Cu	-0.00000 0.26254 0.73746 0.87900
Cu	Cu	1.00000 0.35008 0.64992 0.94400
Cu	Cu	0.73746 0.00000 -0.00000 0.85200
Cu	Cu	0.64992 0.00000 -0.00000 0.84500
H 	H 	0.16890 0.30310 0.96970 0.06300
H 	H 	0.38750 0.23430 0.93910 0.14400
H 	H 	0.30310 0.16890 0.55830 0.05000
H 	H 	0.23430 0.38750 0.43910 0.13100
H 	H 	0.96970 0.55830 0.16890 0.05800
H 	H 	0.93910 0.43910 0.38750 0.14300
H 	H 	0.55830 0.96970 0.30310 0.05800
H 	H 	0.43910 0.93910 0.23430 0.13400
H 	H 	0.16890 0.96970 0.55830 0.05300
H 	H 	0.38750 0.93910 0.43910 0.13900
H 	H 	0.30310 0.55830 0.96970 0.07000
H 	H 	0.23430 0.43910 0.93910 0.14100
H 	H 	0.96970 0.16890 0.30310 0.06100
H 	H 	0.93910 0.38750 0.23430 0.13700
H 	H 	0.55830 0.30310 0.16890 0.04500
H 	H 	0.43910 0.23430 0.38750 0.13300
H 	H 	0.16890 0.55830 0.30310 0.04600
H 	H 	0.38750 0.43910 0.23430 0.13000
H 	H 	0.30310 0.96970 0.16890 0.05000
H 	H 	0.23430 0.93910 0.38750 0.13500
H 	H 	0.96970 0.30310 0.55830 0.06500
H 	H 	0.93910 0.23430 0.43910 0.14100
H 	H 	0.55830 0.16890 0.96970 0.06900
H 	H 	0.43910 0.38750 0.93910 0.14500
H 	H 	0.69690 0.83110 0.03030 0.05000
H 	H 	0.76570 0.61250 0.06090 0.13500
H 	H 	0.83110 0.69690 0.44170 0.06600
H 	H 	0.61250 0.76570 0.56090 0.14100
H 	H 	0.44170 0.03030 0.83110 0.06300
H 	H 	0.56090 0.06090 0.61250 0.13600
H 	H 	0.03030 0.44170 0.69690 0.04900
H 	H 	0.06090 0.56090 0.76570 0.13800
H 	H 	0.03030 0.83110 0.44170 0.05000
H 	H 	0.06090 0.61250 0.56090 0.13200
H 	H 	0.44170 0.69690 0.03030 0.04400
H 	H 	0.56090 0.76570 0.06090 0.13200
H 	H 	0.83110 0.03030 0.69690 0.06300
H 	H 	0.61250 0.06090 0.76570 0.14200
H 	H 	0.69690 0.44170 0.83110 0.07000
H 	H 	0.76570 0.56090 0.61250 0.14300
H 	H 	0.44170 0.83110 0.69690 0.06300
H 	H 	0.56090 0.61250 0.76570 0.14500
H 	H 	0.03030 0.69690 0.83110 0.05900
H 	H 	0.06090 0.76570 0.61250 0.13500
H 	H 	0.69690 0.03030 0.44170 0.05400
H 	H 	0.76570 0.06090 0.56090 0.14000
H 	H 	0.83110 0.44170 0.03030 0.05100
H 	H 	0.61250 0.56090 0.06090 0.13000
H 	H 	0.83110 0.69690 0.03030 0.05300
H 	H 	0.61250 0.76570 0.06090 0.13200
H 	H 	0.69690 0.83110 0.44170 0.06200
H 	H 	0.76570 0.61250 0.56090 0.14300
H 	H 	0.03030 0.44170 0.83110 0.05700
H 	H 	0.06090 0.56090 0.61250 0.13200
H 	H 	0.44170 0.03030 0.69690 0.05500
H 	H 	0.56090 0.06090 0.76570 0.14200
H 	H 	0.83110 0.03030 0.44170 0.06000
H 	H 	0.61250 0.06090 0.56090 0.13600
H 	H 	0.69690 0.44170 0.03030 0.04500
H 	H 	0.76570 0.56090 0.06090 0.13400
H 	H 	0.03030 0.83110 0.69690 0.05300
H 	H 	0.06090 0.61250 0.76570 0.13800
H 	H 	0.44170 0.69690 0.83110 0.06800
H 	H 	0.56090 0.76570 0.61250 0.14100
H 	H 	0.83110 0.44170 0.69690 0.06700
H 	H 	0.61250 0.56090 0.76570 0.14500
H 	H 	0.69690 0.03030 0.83110 0.06600
H 	H 	0.76570 0.06090 0.61250 0.14000
H 	H 	0.03030 0.69690 0.44170 0.04700
H 	H 	0.06090 0.76570 0.56090 0.13400
H 	H 	0.44170 0.83110 0.03030 0.04700
H 	H 	0.56090 0.61250 0.06090 0.13000
H 	H 	0.30310 0.16890 0.96970 0.06600
H 	H 	0.23430 0.38750 0.93910 0.14100
H 	H 	0.16890 0.30310 0.55830 0.04700
H 	H 	0.38750 0.23430 0.43910 0.13400
H 	H 	0.55830 0.96970 0.16890 0.05200
H 	H 	0.43910 0.93910 0.38750 0.13900
H 	H 	0.96970 0.55830 0.30310 0.06500
H 	H 	0.93910 0.43910 0.23430 0.13700
H 	H 	0.96970 0.16890 0.55830 0.06300
H 	H 	0.93910 0.38750 0.43910 0.14300
H 	H 	0.55830 0.30310 0.96970 0.07100
H 	H 	0.43910 0.23430 0.93910 0.14400
H 	H 	0.16890 0.96970 0.30310 0.05200
H 	H 	0.38750 0.93910 0.23430 0.13400
H 	H 	0.30310 0.55830 0.16890 0.04400
H 	H 	0.23430 0.43910 0.38750 0.13100
H 	H 	0.55830 0.16890 0.30310 0.04900
H 	H 	0.43910 0.38750 0.23430 0.13000
H 	H 	0.96970 0.30310 0.16890 0.05600
H 	H 	0.93910 0.23430 0.38750 0.14100
H 	H 	0.30310 0.96970 0.55830 0.05800
H 	H 	0.23430 0.93910 0.43910 0.13500
H 	H 	0.16890 0.55830 0.96970 0.06400
H 	H 	0.38750 0.43910 0.93910 0.14500
H 	H 	0.16540 0.16540 0.98340 0.06000
H 	H 	0.16540 0.16540 0.68580 0.04100
H 	H 	0.98340 0.68580 0.16540 0.05600
H 	H 	0.68580 0.98340 0.16540 0.04900
H 	H 	0.16540 0.98340 0.68580 0.05100
H 	H 	0.16540 0.68580 0.98340 0.06400
H 	H 	0.98340 0.16540 0.16540 0.05100
H 	H 	0.68580 0.16540 0.16540 0.03800
H 	H 	0.16540 0.68580 0.16540 0.03300
H 	H 	0.16540 0.98340 0.16540 0.04000
H 	H 	0.98340 0.16540 0.68580 0.06400
H 	H 	0.68580 0.16540 0.98340 0.06900
H 	H 	0.83460 0.83460 0.01660 0.04500
H 	H 	0.83460 0.83460 0.31420 0.05900
H 	H 	0.31420 0.01660 0.83460 0.05300
H 	H 	0.01660 0.31420 0.83460 0.04700
H 	H 	0.01660 0.83460 0.31420 0.03800
H 	H 	0.31420 0.83460 0.01660 0.03400
H 	H 	0.83460 0.01660 0.83460 0.06400
H 	H 	0.83460 0.31420 0.83460 0.06900
H 	H 	0.31420 0.83460 0.83460 0.06200
H 	H 	0.01660 0.83460 0.83460 0.05200
H 	H 	0.83460 0.01660 0.31420 0.04900
H 	H 	0.83460 0.31420 0.01660 0.03900
C 	C 	0.10109 0.26429 0.98295 0.34700
C 	C 	0.15844 0.23760 0.97742 -0.07600
C 	C 	0.18665 0.26655 0.97045 -0.03400
C 	C 	0.26429 0.10109 0.65167 0.35900
C 	C 	0.23760 0.15844 0.62654 -0.10400
C 	C 	0.26655 0.18665 0.57635 -0.02200
C 	C 	0.98295 0.65167 0.10109 0.34700
C 	C 	0.97742 0.62654 0.15844 -0.08300
C 	C 	0.97045 0.57635 0.18665 -0.03200
C 	C 	0.65167 0.98295 0.26429 0.35300
C 	C 	0.62654 0.97742 0.23760 -0.08900
C 	C 	0.57635 0.97045 0.26655 -0.02800
C 	C 	0.10109 0.98295 0.65167 0.35400
C 	C 	0.15844 0.97742 0.62654 -0.09300
C 	C 	0.18665 0.97045 0.57635 -0.02700
C 	C 	0.26429 0.65167 0.98295 0.34300
C 	C 	0.23760 0.62654 0.97742 -0.06600
C 	C 	0.26655 0.57635 0.97045 -0.03700
C 	C 	0.98295 0.10109 0.26429 0.34800
C 	C 	0.97742 0.15844 0.23760 -0.08300
C 	C 	0.97045 0.18665 0.26655 -0.03000
C 	C 	0.65167 0.26429 0.10109 0.35700
C 	C 	0.62654 0.23760 0.15844 -0.11000
C 	C 	0.57635 0.26655 0.18665 -0.02200
C 	C 	0.10109 0.65167 0.26429 0.35800
C 	C 	0.15844 0.62654 0.23760 -0.11200
C 	C 	0.18665 0.57635 0.26655 -0.02000
C 	C 	0.26429 0.98295 0.10109 0.35400
C 	C 	0.23760 0.97742 0.15844 -0.10200
C 	C 	0.26655 0.97045 0.18665 -0.02400
C 	C 	0.98295 0.26429 0.65167 0.34800
C 	C 	0.97742 0.23760 0.62654 -0.07300
C 	C 	0.97045 0.26655 0.57635 -0.03400
C 	C 	0.65167 0.10109 0.98295 0.34100
C 	C 	0.62654 0.15844 0.97742 -0.06400
C 	C 	0.57635 0.18665 0.97045 -0.03900
C 	C 	0.73571 0.89891 0.01705 0.35200
C 	C 	0.76240 0.84156 0.02258 -0.09800
C 	C 	0.73345 0.81335 0.02955 -0.02700
C 	C 	0.89891 0.73571 0.34833 0.34600
C 	C 	0.84156 0.76240 0.37346 -0.07400
C 	C 	0.81335 0.73345 0.42365 -0.03300
C 	C 	0.34833 0.01705 0.89891 0.34500
C 	C 	0.37346 0.02258 0.84156 -0.08000
C 	C 	0.42365 0.02955 0.81335 -0.03100
C 	C 	0.01705 0.34833 0.73571 0.35800
C 	C 	0.02258 0.37346 0.76240 -0.10100
C 	C 	0.02955 0.42365 0.73345 -0.02500
C 	C 	0.01705 0.89891 0.34833 0.35400
C 	C 	0.02258 0.84156 0.37346 -0.10300
C 	C 	0.02955 0.81335 0.42365 -0.02300
C 	C 	0.34833 0.73571 0.01705 0.35800
C 	C 	0.37346 0.76240 0.02258 -0.11200
C 	C 	0.42365 0.73345 0.02955 -0.02100
C 	C 	0.89891 0.01705 0.73571 0.34800
C 	C 	0.84156 0.02258 0.76240 -0.07400
C 	C 	0.81335 0.02955 0.73345 -0.03500
C 	C 	0.73571 0.34833 0.89891 0.34200
C 	C 	0.76240 0.37346 0.84156 -0.06300
C 	C 	0.73345 0.42365 0.81335 -0.03800
C 	C 	0.34833 0.89891 0.73571 0.35200
C 	C 	0.37346 0.84156 0.76240 -0.07700
C 	C 	0.42365 0.81335 0.73345 -0.03300
C 	C 	0.01705 0.73571 0.89891 0.34500
C 	C 	0.02258 0.76240 0.84156 -0.08500
C 	C 	0.02955 0.73345 0.81335 -0.03100
C 	C 	0.73571 0.01705 0.34833 0.35700
C 	C 	0.76240 0.02258 0.37346 -0.09400
C 	C 	0.73345 0.02955 0.42365 -0.02700
C 	C 	0.89891 0.34833 0.01705 0.35300
C 	C 	0.84156 0.37346 0.02258 -0.10200
C 	C 	0.81335 0.42365 0.02955 -0.02400
C 	C 	0.89891 0.73571 0.01705 0.34800
C 	C 	0.84156 0.76240 0.02258 -0.09500
C 	C 	0.81335 0.73345 0.02955 -0.02800
C 	C 	0.73571 0.89891 0.34833 0.35100
C 	C 	0.76240 0.84156 0.37346 -0.07900
C 	C 	0.73345 0.81335 0.42365 -0.03200
C 	C 	0.01705 0.34833 0.89891 0.35000
C 	C 	0.02258 0.37346 0.84156 -0.09100
C 	C 	0.02955 0.42365 0.81335 -0.02800
C 	C 	0.34833 0.01705 0.73571 0.35700
C 	C 	0.37346 0.02258 0.76240 -0.09100
C 	C 	0.42365 0.02955 0.73345 -0.02900
C 	C 	0.89891 0.01705 0.34833 0.34900
C 	C 	0.84156 0.02258 0.37346 -0.08600
C 	C 	0.81335 0.02955 0.42365 -0.02900
C 	C 	0.73571 0.34833 0.01705 0.35700
C 	C 	0.76240 0.37346 0.02258 -0.10800
C 	C 	0.73345 0.42365 0.02955 -0.02300
C 	C 	0.01705 0.89891 0.73571 0.35400
C 	C 	0.02258 0.84156 0.76240 -0.09200
C 	C 	0.02955 0.81335 0.73345 -0.02900
C 	C 	0.34833 0.73571 0.89891 0.34300
C 	C 	0.37346 0.76240 0.84156 -0.06900
C 	C 	0.42365 0.73345 0.81335 -0.03500
C 	C 	0.89891 0.34833 0.73571 0.34700
C 	C 	0.84156 0.37346 0.76240 -0.06700
C 	C 	0.81335 0.42365 0.73345 -0.03700
C 	C 	0.73571 0.01705 0.89891 0.34200
C 	C 	0.76240 0.02258 0.84156 -0.07000
C 	C 	0.73345 0.02955 0.81335 -0.03600
C 	C 	0.01705 0.73571 0.34833 0.35800
C 	C 	0.02258 0.76240 0.37346 -0.10700
C 	C 	0.02955 0.73345 0.42365 -0.02300
C 	C 	0.34833 0.89891 0.01705 0.35500
C 	C 	0.37346 0.84156 0.02258 -0.10800
C 	C 	0.42365 0.81335 0.02955 -0.02200
C 	C 	0.26429 0.10109 0.98295 0.34400
C 	C 	0.23760 0.15844 0.97742 -0.07200
C 	C 	0.26655 0.18665 0.97045 -0.03500
C 	C 	0.10109 0.26429 0.65167 0.36000
C 	C 	0.15844 0.23760 0.62654 -0.10700
C 	C 	0.18665 0.26655 0.57635 -0.02200
C 	C 	0.65167 0.98295 0.10109 0.35200
C 	C 	0.62654 0.97742 0.15844 -0.09500
C 	C 	0.57635 0.97045 0.18665 -0.02800
C 	C 	0.98295 0.65167 0.26429 0.34700
C 	C 	0.97742 0.62654 0.23760 -0.07600
C 	C 	0.97045 0.57635 0.26655 -0.03300
C 	C 	0.98295 0.10109 0.65167 0.34800
C 	C 	0.97742 0.15844 0.62654 -0.07500
C 	C 	0.97045 0.18665 0.57635 -0.03400
C 	C 	0.65167 0.26429 0.98295 0.34100
C 	C 	0.62654 0.23760 0.97742 -0.06200
C 	C 	0.57635 0.26655 0.97045 -0.03900
C 	C 	0.10109 0.98295 0.26429 0.35400
C 	C 	0.15844 0.97742 0.23760 -0.10100
C 	C 	0.18665 0.97045 0.26655 -0.02400
C 	C 	0.26429 0.65167 0.10109 0.35800
C 	C 	0.23760 0.62654 0.15844 -0.11300
C 	C 	0.26655 0.57635 0.18665 -0.02000
C 	C 	0.65167 0.10109 0.26429 0.35800
C 	C 	0.62654 0.15844 0.23760 -0.10600
C 	C 	0.57635 0.18665 0.26655 -0.02200
C 	C 	0.98295 0.26429 0.10109 0.35200
C 	C 	0.97742 0.23760 0.15844 -0.08900
C 	C 	0.97045 0.26655 0.18665 -0.02900
C 	C 	0.26429 0.98295 0.65167 0.35400
C 	C 	0.23760 0.97742 0.62654 -0.08900
C 	C 	0.26655 0.97045 0.57635 -0.02800
C 	C 	0.10109 0.65167 0.98295 0.34300
C 	C 	0.15844 0.62654 0.97742 -0.07100
C 	C 	0.18665 0.57635 0.97045 -0.03700
C 	C 	0.18470 0.18470 0.97984 0.03000
C 	C 	0.24110 0.24110 0.96490 0.04300
C 	C 	0.27140 0.27140 0.95600 -0.06100
C 	C 	0.29510 0.29510 0.95190 0.05900
C 	C 	0.32190 0.32190 0.95370 -0.15000
C 	C 	0.18470 0.18470 0.65076 0.04600
C 	C 	0.24110 0.24110 0.55290 0.02100
C 	C 	0.27140 0.27140 0.50120 -0.06400
C 	C 	0.29510 0.29510 0.45790 0.04500
C 	C 	0.32190 0.32190 0.40250 -0.15100
C 	C 	0.97984 0.65076 0.18470 0.03200
C 	C 	0.96490 0.55290 0.24110 0.03900
C 	C 	0.95600 0.50120 0.27140 -0.06200
C 	C 	0.95190 0.45790 0.29510 0.05600
C 	C 	0.95370 0.40250 0.32190 -0.15000
C 	C 	0.65076 0.97984 0.18470 0.03800
C 	C 	0.55290 0.96490 0.24110 0.03000
C 	C 	0.50120 0.95600 0.27140 -0.06300
C 	C 	0.45790 0.95190 0.29510 0.05100
C 	C 	0.40250 0.95370 0.32190 -0.15000
C 	C 	0.18470 0.97984 0.65076 0.03800
C 	C 	0.24110 0.96490 0.55290 0.03100
C 	C 	0.27140 0.95600 0.50120 -0.06300
C 	C 	0.29510 0.95190 0.45790 0.05100
C 	C 	0.32190 0.95370 0.40250 -0.15000
C 	C 	0.18470 0.65076 0.97984 0.02600
C 	C 	0.24110 0.55290 0.96490 0.04700
C 	C 	0.27140 0.50120 0.95600 -0.06100
C 	C 	0.29510 0.45790 0.95190 0.06000
C 	C 	0.32190 0.40250 0.95370 -0.15000
C 	C 	0.97984 0.18470 0.18470 0.03600
C 	C 	0.96490 0.24110 0.24110 0.03500
C 	C 	0.95600 0.27140 0.27140 -0.06200
C 	C 	0.95190 0.29510 0.29510 0.05400
C 	C 	0.95370 0.32190 0.32190 -0.15000
C 	C 	0.65076 0.18470 0.18470 0.04600
C 	C 	0.55290 0.24110 0.24110 0.01900
C 	C 	0.50120 0.27140 0.27140 -0.06500
C 	C 	0.45790 0.29510 0.29510 0.04400
C 	C 	0.40250 0.32190 0.32190 -0.15100
C 	C 	0.18470 0.65076 0.18470 0.04800
C 	C 	0.24110 0.55290 0.24110 0.01600
C 	C 	0.27140 0.50120 0.27140 -0.06500
C 	C 	0.29510 0.45790 0.29510 0.04300
C 	C 	0.32190 0.40250 0.32190 -0.15100
C 	C 	0.18470 0.97984 0.18470 0.04300
C 	C 	0.24110 0.96490 0.24110 0.02400
C 	C 	0.27140 0.95600 0.27140 -0.06300
C 	C 	0.29510 0.95190 0.29510 0.04800
C 	C 	0.32190 0.95370 0.32190 -0.15000
C 	C 	0.97984 0.18470 0.65076 0.03000
C 	C 	0.96490 0.24110 0.55290 0.04300
C 	C 	0.95600 0.27140 0.50120 -0.06100
C 	C 	0.95190 0.29510 0.45790 0.05800
C 	C 	0.95370 0.32190 0.40250 -0.15000
C 	C 	0.65076 0.18470 0.97984 0.02300
C 	C 	0.55290 0.24110 0.96490 0.05000
C 	C 	0.50120 0.27140 0.95600 -0.06000
C 	C 	0.45790 0.29510 0.95190 0.06200
C 	C 	0.40250 0.32190 0.95370 -0.15000
C 	C 	0.81530 0.81530 0.02016 0.03800
C 	C 	0.75890 0.75890 0.03510 0.02600
C 	C 	0.72860 0.72860 0.04400 -0.06500
C 	C 	0.70490 0.70490 0.04810 0.04700
C 	C 	0.67810 0.67810 0.04630 -0.15100
C 	C 	0.81530 0.81530 0.34924 0.03200
C 	C 	0.75890 0.75890 0.44710 0.04200
C 	C 	0.72860 0.72860 0.49880 -0.06100
C 	C 	0.70490 0.70490 0.54210 0.05800
C 	C 	0.67810 0.67810 0.59750 -0.15000
C 	C 	0.34924 0.02016 0.81530 0.03600
C 	C 	0.44710 0.03510 0.75890 0.03500
C 	C 	0.49880 0.04400 0.72860 -0.06200
C 	C 	0.54210 0.04810 0.70490 0.05400
C 	C 	0.59750 0.04630 0.67810 -0.15000
C 	C 	0.02016 0.34924 0.81530 0.04000
C 	C 	0.03510 0.44710 0.75890 0.02700
C 	C 	0.04400 0.49880 0.72860 -0.06400
C 	C 	0.04810 0.54210 0.70490 0.04900
C 	C 	0.04630 0.59750 0.67810 -0.15100
C 	C 	0.02016 0.81530 0.34924 0.04500
C 	C 	0.03510 0.75890 0.44710 0.02200
C 	C 	0.04400 0.72860 0.49880 -0.06400
C 	C 	0.04810 0.70490 0.54210 0.04700
C 	C 	0.04630 0.67810 0.59750 -0.15100
C 	C 	0.34924 0.81530 0.02016 0.04700
C 	C 	0.44710 0.75890 0.03510 0.01800
C 	C 	0.49880 0.72860 0.04400 -0.06500
C 	C 	0.54210 0.70490 0.04810 0.04400
C 	C 	0.59750 0.67810 0.04630 -0.15100
C 	C 	0.81530 0.02016 0.81530 0.02700
C 	C 	0.75890 0.03510 0.75890 0.04300
C 	C 	0.72860 0.04400 0.72860 -0.06200
C 	C 	0.70490 0.04810 0.70490 0.05700
C 	C 	0.67810 0.04630 0.67810 -0.15100
C 	C 	0.81530 0.34924 0.81530 0.02500
C 	C 	0.75890 0.44710 0.75890 0.04800
C 	C 	0.72860 0.49880 0.72860 -0.06100
C 	C 	0.70490 0.54210 0.70490 0.06100
C 	C 	0.67810 0.59750 0.67810 -0.15000
C 	C 	0.34924 0.81530 0.81530 0.03000
C 	C 	0.44710 0.75890 0.75890 0.04400
C 	C 	0.49880 0.72860 0.72860 -0.06000
C 	C 	0.54210 0.70490 0.70490 0.05900
C 	C 	0.59750 0.67810 0.67810 -0.15000
C 	C 	0.02016 0.81530 0.81530 0.03500
C 	C 	0.03510 0.75890 0.75890 0.03200
C 	C 	0.04400 0.72860 0.72860 -0.06400
C 	C 	0.04810 0.70490 0.70490 0.05100
C 	C 	0.04630 0.67810 0.67810 -0.15100
C 	C 	0.81530 0.02016 0.34924 0.03800
C 	C 	0.75890 0.03510 0.44710 0.03200
C 	C 	0.72860 0.04400 0.49880 -0.06200
C 	C 	0.70490 0.04810 0.54210 0.05300
C 	C 	0.67810 0.04630 0.59750 -0.15000
C 	C 	0.81530 0.34924 0.02016 0.04400
C 	C 	0.75890 0.44710 0.03510 0.02100
C 	C 	0.72860 0.49880 0.04400 -0.06500
C 	C 	0.70490 0.54210 0.04810 0.04500
C 	C 	0.67810 0.59750 0.04630 -0.15100
C 	C 	0.37630 0.29570 0.95170 0.19100
C 	C 	0.29570 0.37630 0.37630 0.17600
C 	C 	0.95170 0.37630 0.37630 0.18800
C 	C 	0.37630 0.95170 0.29570 0.18000
C 	C 	0.37630 0.95170 0.37630 0.18300
C 	C 	0.29570 0.37630 0.95170 0.19000
C 	C 	0.95170 0.37630 0.29570 0.18500
C 	C 	0.37630 0.29570 0.37630 0.17700
C 	C 	0.37630 0.37630 0.29570 0.17500
C 	C 	0.29570 0.95170 0.37630 0.18100
C 	C 	0.95170 0.29570 0.37630 0.18700
C 	C 	0.37630 0.37630 0.95170 0.19200
C 	C 	0.70430 0.62370 0.04830 0.17800
C 	C 	0.62370 0.70430 0.62370 0.18900
C 	C 	0.62370 0.04830 0.62370 0.18400
C 	C 	0.04830 0.62370 0.70430 0.18200
C 	C 	0.04830 0.62370 0.62370 0.17800
C 	C 	0.62370 0.70430 0.04830 0.17700
C 	C 	0.62370 0.04830 0.70430 0.18700
C 	C 	0.70430 0.62370 0.62370 0.19000
C 	C 	0.62370 0.62370 0.70430 0.19100
C 	C 	0.04830 0.70430 0.62370 0.18000
C 	C 	0.70430 0.04830 0.62370 0.18600
C 	C 	0.62370 0.62370 0.04830 0.17500
N 	N 	0.40380 0.25040 0.94200 -0.29900
N 	N 	0.25040 0.40380 0.40380 -0.29500
N 	N 	0.94200 0.40380 0.40380 -0.29800
N 	N 	0.40380 0.94200 0.25040 -0.29600
N 	N 	0.40380 0.94200 0.40380 -0.29700
N 	N 	0.25040 0.40380 0.94200 -0.29800
N 	N 	0.94200 0.40380 0.25040 -0.29700
N 	N 	0.40380 0.25040 0.40380 -0.29600
N 	N 	0.40380 0.40380 0.25040 -0.29500
N 	N 	0.25040 0.94200 0.40380 -0.29600
N 	N 	0.94200 0.25040 0.40380 -0.29800
N 	N 	0.40380 0.40380 0.94200 -0.29900
N 	N 	0.74960 0.59620 0.05800 -0.29600
N 	N 	0.59620 0.74960 0.59620 -0.29800
N 	N 	0.59620 0.05800 0.59620 -0.29700
N 	N 	0.05800 0.59620 0.74960 -0.29700
N 	N 	0.05800 0.59620 0.59620 -0.29500
N 	N 	0.59620 0.74960 0.05800 -0.29500
N 	N 	0.59620 0.05800 0.74960 -0.29800
N 	N 	0.74960 0.59620 0.59620 -0.29900
N 	N 	0.59620 0.59620 0.74960 -0.29900
N 	N 	0.05800 0.74960 0.59620 -0.29600
N 	N 	0.74960 0.05800 0.59620 -0.29800
N 	N 	0.59620 0.59620 0.05800 -0.29500
O 	O 	0.07649 0.23731 0.98717 -0.37100
O 	O 	0.07736 0.31116 0.98660 -0.38800
O 	O 	0.23731 0.07649 0.69903 -0.41900
O 	O 	0.31116 0.07736 0.62488 -0.42400
O 	O 	0.98717 0.69903 0.07649 -0.38500
O 	O 	0.98660 0.62488 0.07736 -0.39200
O 	O 	0.69903 0.98717 0.23731 -0.38800
O 	O 	0.62488 0.98660 0.31116 -0.39700
O 	O 	0.07649 0.98717 0.69903 -0.40700
O 	O 	0.07736 0.98660 0.62488 -0.41500
O 	O 	0.23731 0.69903 0.98717 -0.35300
O 	O 	0.31116 0.62488 0.98660 -0.35600
O 	O 	0.98717 0.07649 0.23731 -0.37800
O 	O 	0.98660 0.07736 0.31116 -0.37900
O 	O 	0.69903 0.23731 0.07649 -0.42700
O 	O 	0.62488 0.31116 0.07736 -0.43200
O 	O 	0.07649 0.69903 0.23731 -0.42600
O 	O 	0.07736 0.62488 0.31116 -0.42700
O 	O 	0.23731 0.98717 0.07649 -0.41200
O 	O 	0.31116 0.98660 0.07736 -0.41400
O 	O 	0.98717 0.23731 0.69903 -0.36500
O 	O 	0.98660 0.31116 0.62488 -0.38300
O 	O 	0.69903 0.07649 0.98717 -0.35500
O 	O 	0.62488 0.07736 0.98660 -0.36300
O 	O 	0.76269 0.92351 0.01283 -0.40700
O 	O 	0.68884 0.92264 0.01340 -0.41400
O 	O 	0.92351 0.76269 0.30097 -0.36600
O 	O 	0.92264 0.68884 0.37512 -0.37000
O 	O 	0.30097 0.01283 0.92351 -0.36400
O 	O 	0.37512 0.01340 0.92264 -0.36600
O 	O 	0.01283 0.30097 0.76269 -0.41900
O 	O 	0.01340 0.37512 0.68884 -0.43800
O 	O 	0.01283 0.92351 0.30097 -0.40900
O 	O 	0.01340 0.92264 0.37512 -0.40900
O 	O 	0.30097 0.76269 0.01283 -0.43000
O 	O 	0.37512 0.68884 0.01340 -0.43300
O 	O 	0.92351 0.01283 0.76269 -0.37600
O 	O 	0.92264 0.01340 0.68884 -0.38500
O 	O 	0.76269 0.30097 0.92351 -0.34900
O 	O 	0.68884 0.37512 0.92264 -0.35600
O 	O 	0.30097 0.92351 0.76269 -0.38900
O 	O 	0.37512 0.92264 0.68884 -0.39600
O 	O 	0.01283 0.76269 0.92351 -0.37300
O 	O 	0.01340 0.68884 0.92264 -0.37800
O 	O 	0.76269 0.01283 0.30097 -0.41000
O 	O 	0.68884 0.01340 0.37512 -0.42100
O 	O 	0.92351 0.30097 0.01283 -0.39800
O 	O 	0.92264 0.37512 0.01340 -0.41200
O 	O 	0.92351 0.76269 0.01283 -0.39100
O 	O 	0.92264 0.68884 0.01340 -0.39600
O 	O 	0.76269 0.92351 0.30097 -0.38400
O 	O 	0.68884 0.92264 0.37512 -0.39500
O 	O 	0.01283 0.30097 0.92351 -0.37800
O 	O 	0.01340 0.37512 0.92264 -0.39200
O 	O 	0.30097 0.01283 0.76269 -0.41300
O 	O 	0.37512 0.01340 0.68884 -0.42100
O 	O 	0.92351 0.01283 0.30097 -0.37900
O 	O 	0.92264 0.01340 0.37512 -0.38000
O 	O 	0.76269 0.30097 0.01283 -0.42600
O 	O 	0.68884 0.37512 0.01340 -0.43200
O 	O 	0.01283 0.92351 0.76269 -0.40700
O 	O 	0.01340 0.92264 0.68884 -0.41600
O 	O 	0.30097 0.76269 0.92351 -0.35400
O 	O 	0.37512 0.68884 0.92264 -0.35700
O 	O 	0.92351 0.30097 0.76269 -0.36300
O 	O 	0.92264 0.37512 0.68884 -0.38300
O 	O 	0.76269 0.01283 0.92351 -0.35800
O 	O 	0.68884 0.01340 0.92264 -0.36500
O 	O 	0.01283 0.76269 0.30097 -0.42300
O 	O 	0.01340 0.68884 0.37512 -0.42600
O 	O 	0.30097 0.92351 0.01283 -0.41500
O 	O 	0.37512 0.92264 0.01340 -0.41600
O 	O 	0.23731 0.07649 0.98717 -0.36100
O 	O 	0.31116 0.07736 0.98660 -0.36400
O 	O 	0.07649 0.23731 0.69903 -0.42200
O 	O 	0.07736 0.31116 0.62488 -0.44000
O 	O 	0.69903 0.98717 0.07649 -0.40400
O 	O 	0.62488 0.98660 0.07736 -0.41200
O 	O 	0.98717 0.69903 0.23731 -0.36700
O 	O 	0.98660 0.62488 0.31116 -0.37000
O 	O 	0.98717 0.07649 0.69903 -0.37600
O 	O 	0.98660 0.07736 0.62488 -0.38500
O 	O 	0.69903 0.23731 0.98717 -0.34800
O 	O 	0.62488 0.31116 0.98660 -0.35500
O 	O 	0.07649 0.98717 0.23731 -0.40700
O 	O 	0.07736 0.98660 0.31116 -0.40800
O 	O 	0.23731 0.69903 0.07649 -0.43000
O 	O 	0.31116 0.62488 0.07736 -0.43300
O 	O 	0.69903 0.07649 0.23731 -0.41600
O 	O 	0.62488 0.07736 0.31116 -0.42400
O 	O 	0.98717 0.23731 0.07649 -0.39200
O 	O 	0.98660 0.31116 0.07736 -0.40800
O 	O 	0.23731 0.98717 0.69903 -0.39400
O 	O 	0.31116 0.98660 0.62488 -0.39900
O 	O 	0.07649 0.69903 0.98717 -0.36600
O 	O 	0.07736 0.62488 0.98660 -0.37300
