data_crystal

_cell_length_a 18.37300
_cell_length_b 11.52300
_cell_length_c 11.03400
_cell_angle_alpha 90.00000
_cell_angle_beta  94.25100
_cell_angle_gamma 90.00000

_symmetry_space_group_name_	'P 1'
_symmetry_space_group_name_H-M	'P 1'

loop_
_symmetry_equiv_pos_as_xyz
  x,y,z

loop_
_atom_site_label
_atom_site_type_symbol
_atom_site_fract_x
_atom_site_fract_y
_atom_site_fract_z
_atom_site_charge
Co	Co	0.07530 0.93022 0.99285 1.11200
C 	C 	0.12800 0.75220 0.16580 0.37000
C 	C 	0.19540 0.68760 0.22100 -0.10200
C 	C 	0.20040 0.66510 0.34690 0.04300
H 	H 	0.16140 0.68810 0.39360 0.00600
C 	C 	0.25950 0.61140 0.40350 -0.15400
H 	H 	0.26330 0.59730 0.48860 0.06400
C 	C 	0.31310 0.57910 0.33110 0.08400
C 	C 	0.31050 0.60190 0.20850 0.02900
C 	C 	0.24980 0.65910 0.14950 -0.04700
H 	H 	0.24720 0.67650 0.06510 0.05200
N 	N 	0.37710 0.52380 0.36150 -0.22400
N 	N 	0.41150 0.51310 0.26000 -0.19100
N 	N 	0.37280 0.55950 0.16610 -0.21400
O 	O 	0.97960 0.91360 0.06760 -0.78000
H 	H 	0.95750 0.85720 0.03800 0.29600
O 	O 	0.07770 0.76720 0.23350 -0.47600
O 	O 	0.13030 0.78620 0.05700 -0.47000
Co	Co	0.57530 0.43022 0.99285 1.13600
C 	C 	0.62800 0.25220 0.16580 0.36900
C 	C 	0.69540 0.18760 0.22100 -0.09300
C 	C 	0.70040 0.16510 0.34690 0.04100
H 	H 	0.66140 0.18810 0.39360 0.01500
C 	C 	0.75950 0.11140 0.40350 -0.14700
H 	H 	0.76330 0.09730 0.48860 0.06600
C 	C 	0.81310 0.07910 0.33110 0.08400
C 	C 	0.81050 0.10190 0.20850 0.03500
C 	C 	0.74980 0.15910 0.14950 -0.04700
H 	H 	0.74720 0.17650 0.06510 0.05400
N 	N 	0.87710 0.02380 0.36150 -0.21500
N 	N 	0.91150 0.01310 0.26000 -0.16700
N 	N 	0.87280 0.05950 0.16610 -0.21000
O 	O 	0.47960 0.41360 0.06760 -0.85500
H 	H 	0.45750 0.35720 0.03800 0.29700
O 	O 	0.57770 0.26720 0.23350 -0.44700
O 	O 	0.63030 0.28620 0.05700 -0.45600
Co	Co	0.92470 0.93022 0.50715 1.15800
C 	C 	0.87200 0.75220 0.33420 0.36200
C 	C 	0.80460 0.68760 0.27900 -0.08100
C 	C 	0.79960 0.66510 0.15310 0.03500
H 	H 	0.83860 0.68810 0.10640 0.02600
C 	C 	0.74050 0.61140 0.09650 -0.14100
H 	H 	0.73670 0.59730 0.01140 0.06500
C 	C 	0.68690 0.57910 0.16890 0.08000
C 	C 	0.68950 0.60190 0.29150 0.03700
C 	C 	0.75020 0.65910 0.35050 -0.05400
H 	H 	0.75280 0.67650 0.43490 0.06000
N 	N 	0.62290 0.52380 0.13850 -0.22300
N 	N 	0.58850 0.51310 0.24000 -0.19100
N 	N 	0.62720 0.55950 0.33390 -0.21400
O 	O 	0.02040 0.91360 0.43240 -0.91000
H 	H 	0.04250 0.85720 0.46200 0.29500
O 	O 	0.92230 0.76720 0.26650 -0.40000
O 	O 	0.86970 0.78620 0.44300 -0.43400
Co	Co	0.42470 0.43022 0.50715 1.13400
C 	C 	0.37200 0.25220 0.33420 0.36800
C 	C 	0.30460 0.18760 0.27900 -0.09400
C 	C 	0.29960 0.16510 0.15310 0.03900
H 	H 	0.33860 0.18810 0.10640 0.01500
C 	C 	0.24050 0.11140 0.09650 -0.15000
H 	H 	0.23670 0.09730 0.01140 0.06500
C 	C 	0.18690 0.07910 0.16890 0.08000
C 	C 	0.18950 0.10190 0.29150 0.02900
C 	C 	0.25020 0.15910 0.35050 -0.05100
H 	H 	0.25280 0.17650 0.43490 0.05500
N 	N 	0.12290 0.02380 0.13850 -0.23000
N 	N 	0.08850 0.01310 0.24000 -0.20500
N 	N 	0.12720 0.05950 0.33390 -0.21900
O 	O 	0.52040 0.41360 0.43240 -0.85300
H 	H 	0.54250 0.35720 0.46200 0.29700
O 	O 	0.42230 0.26720 0.26650 -0.44700
O 	O 	0.36970 0.28620 0.44300 -0.45500
Co	Co	0.92470 0.06978 0.00715 1.15400
C 	C 	0.87200 0.24780 0.83420 0.36100
C 	C 	0.80460 0.31240 0.77900 -0.07900
C 	C 	0.79960 0.33490 0.65310 0.03500
H 	H 	0.83860 0.31190 0.60640 0.02700
C 	C 	0.74050 0.38860 0.59650 -0.14000
H 	H 	0.73670 0.40270 0.51140 0.06600
C 	C 	0.68690 0.42090 0.66890 0.08000
C 	C 	0.68950 0.39810 0.79150 0.03800
C 	C 	0.75020 0.34090 0.85050 -0.05400
H 	H 	0.75280 0.32350 0.93490 0.06200
N 	N 	0.62290 0.47620 0.63850 -0.22200
N 	N 	0.58850 0.48690 0.74000 -0.19100
N 	N 	0.62720 0.44050 0.83390 -0.21400
O 	O 	0.02040 0.08640 0.93240 -0.90700
H 	H 	0.04250 0.14280 0.96200 0.29600
O 	O 	0.92230 0.23280 0.76650 -0.39800
O 	O 	0.86970 0.21380 0.94300 -0.43000
Co	Co	0.42470 0.56978 0.00715 1.13300
C 	C 	0.37200 0.74780 0.83420 0.36800
C 	C 	0.30460 0.81240 0.77900 -0.09300
C 	C 	0.29960 0.83490 0.65310 0.04000
H 	H 	0.33860 0.81190 0.60640 0.01500
C 	C 	0.24050 0.88860 0.59650 -0.15000
H 	H 	0.23670 0.90270 0.51140 0.06600
C 	C 	0.18690 0.92090 0.66890 0.08100
C 	C 	0.18950 0.89810 0.79150 0.02900
C 	C 	0.25020 0.84090 0.85050 -0.05100
H 	H 	0.25280 0.82350 0.93490 0.05600
N 	N 	0.12290 0.97620 0.63850 -0.23000
N 	N 	0.08850 0.98690 0.74000 -0.20500
N 	N 	0.12720 0.94050 0.83390 -0.21900
O 	O 	0.52040 0.58640 0.93240 -0.85200
H 	H 	0.54250 0.64280 0.96200 0.29800
O 	O 	0.42230 0.73280 0.76650 -0.44600
O 	O 	0.36970 0.71380 0.94300 -0.45300
Co	Co	0.07530 0.06978 0.49285 1.11100
C 	C 	0.12800 0.24780 0.66580 0.37000
C 	C 	0.19540 0.31240 0.72100 -0.10200
C 	C 	0.20040 0.33490 0.84690 0.04400
H 	H 	0.16140 0.31190 0.89360 0.00700
C 	C 	0.25950 0.38860 0.90350 -0.15400
H 	H 	0.26330 0.40270 0.98860 0.06600
C 	C 	0.31310 0.42090 0.83110 0.08400
C 	C 	0.31050 0.39810 0.70850 0.03000
C 	C 	0.24980 0.34090 0.64950 -0.04600
H 	H 	0.24720 0.32350 0.56510 0.05200
N 	N 	0.37710 0.47620 0.86150 -0.22300
N 	N 	0.41150 0.48690 0.76000 -0.19100
N 	N 	0.37280 0.44050 0.66610 -0.21400
O 	O 	0.97960 0.08640 0.56760 -0.77800
H 	H 	0.95750 0.14280 0.53800 0.29700
O 	O 	0.07770 0.23280 0.73350 -0.47600
O 	O 	0.13030 0.21380 0.55700 -0.47100
Co	Co	0.57530 0.56978 0.49285 1.13400
C 	C 	0.62800 0.74780 0.66580 0.36900
C 	C 	0.69540 0.81240 0.72100 -0.09200
C 	C 	0.70040 0.83490 0.84690 0.04100
H 	H 	0.66140 0.81190 0.89360 0.01600
C 	C 	0.75950 0.88860 0.90350 -0.14600
H 	H 	0.76330 0.90270 0.98860 0.06700
C 	C 	0.81310 0.92090 0.83110 0.08400
C 	C 	0.81050 0.89810 0.70850 0.03600
C 	C 	0.74980 0.84090 0.64950 -0.04800
H 	H 	0.74720 0.82350 0.56510 0.05600
N 	N 	0.87710 0.97620 0.86150 -0.21500
N 	N 	0.91150 0.98690 0.76000 -0.16700
N 	N 	0.87280 0.94050 0.66610 -0.20900
O 	O 	0.47960 0.58640 0.56760 -0.85400
H 	H 	0.45750 0.64280 0.53800 0.29700
O 	O 	0.57770 0.73280 0.73350 -0.44600
O 	O 	0.63030 0.71380 0.55700 -0.45400
Co	Co	0.00000 0.89567 0.25000 1.11300
Co	Co	0.50000 0.39567 0.25000 1.16100
Co	Co	0.00000 0.10433 0.75000 1.11200
Co	Co	0.50000 0.60433 0.75000 1.16200
