data_crystal

_cell_length_a 18.28000
_cell_length_b 11.91630
_cell_length_c 11.09230
_cell_angle_alpha 90.00000
_cell_angle_beta  94.04000
_cell_angle_gamma 90.00000

_symmetry_space_group_name_	'P 1'
_symmetry_space_group_name_H-M	'P 1'

loop_
_symmetry_equiv_pos_as_xyz
  x,y,z

loop_
_atom_site_label
_atom_site_type_symbol
_atom_site_fract_x
_atom_site_fract_y
_atom_site_fract_z
_atom_site_charge
Co	Co	0.57704 0.43290 0.99566 1.13700
C 	C 	0.63000 0.26000 0.16760 0.36000
C 	C 	0.69560 0.19420 0.22140 -0.08900
C 	C 	0.75080 0.16180 0.15000 -0.05600
H 	H 	0.74850 0.17650 0.06750 0.05800
C 	C 	0.81060 0.10530 0.20860 0.04100
C 	C 	0.81300 0.08130 0.33080 0.07600
C 	C 	0.75720 0.11400 0.40350 -0.14300
H 	H 	0.75940 0.09880 0.48600 0.06700
C 	C 	0.69920 0.16960 0.34600 0.03600
H 	H 	0.66060 0.19200 0.39090 0.01700
N 	N 	0.87299 0.06220 0.16520 -0.21100
N 	N 	0.91108 0.01600 0.25890 -0.16500
N 	N 	0.87712 0.02580 0.36020 -0.21400
O 	O 	0.47979 0.41440 0.06670 -0.81900
O 	O 	0.63150 0.29410 0.05880 -0.45400
O 	O 	0.57891 0.27600 0.23530 -0.44600
H 	H 	0.45670 0.35500 0.04700 0.27200
Co	Co	0.07704 0.93290 0.99566 1.11100
C 	C 	0.13000 0.76000 0.16760 0.36000
C 	C 	0.19560 0.69420 0.22140 -0.09800
C 	C 	0.25080 0.66180 0.15000 -0.05600
H 	H 	0.24850 0.67650 0.06750 0.05600
C 	C 	0.31060 0.60530 0.20860 0.03500
C 	C 	0.31300 0.58130 0.33080 0.07500
C 	C 	0.25720 0.61400 0.40350 -0.15000
H 	H 	0.25940 0.59880 0.48600 0.06500
C 	C 	0.19920 0.66960 0.34600 0.03800
H 	H 	0.16060 0.69200 0.39090 0.00800
N 	N 	0.37299 0.56220 0.16520 -0.21600
N 	N 	0.41108 0.51600 0.25890 -0.18900
N 	N 	0.37712 0.52580 0.36020 -0.22200
O 	O 	0.97979 0.91440 0.06670 -0.74700
O 	O 	0.13150 0.79410 0.05880 -0.46800
O 	O 	0.07891 0.77600 0.23530 -0.47400
H 	H 	0.95670 0.85500 0.04700 0.27300
Co	Co	0.42296 0.43290 0.50434 1.13300
C 	C 	0.37000 0.26000 0.33240 0.35800
C 	C 	0.30440 0.19420 0.27860 -0.09000
C 	C 	0.24920 0.16180 0.35000 -0.06000
H 	H 	0.25150 0.17650 0.43250 0.05900
C 	C 	0.18940 0.10530 0.29140 0.03500
C 	C 	0.18700 0.08130 0.16920 0.07300
C 	C 	0.24280 0.11400 0.09650 -0.14600
H 	H 	0.24060 0.09880 0.01400 0.06600
C 	C 	0.30080 0.16960 0.15400 0.03400
H 	H 	0.33940 0.19200 0.10910 0.01700
N 	N 	0.12701 0.06220 0.33480 -0.22000
N 	N 	0.08892 0.01600 0.24110 -0.20200
N 	N 	0.12288 0.02580 0.13980 -0.22900
O 	O 	0.52021 0.41440 0.43330 -0.81800
O 	O 	0.36850 0.29410 0.44120 -0.45200
O 	O 	0.42109 0.27600 0.26470 -0.44600
H 	H 	0.54330 0.35500 0.45300 0.27300
Co	Co	0.92296 0.93290 0.50434 1.15700
C 	C 	0.87000 0.76000 0.33240 0.35200
C 	C 	0.80440 0.69420 0.27860 -0.07700
C 	C 	0.74920 0.66180 0.35000 -0.06300
H 	H 	0.75150 0.67650 0.43250 0.06400
C 	C 	0.68940 0.60530 0.29140 0.04200
C 	C 	0.68700 0.58130 0.16920 0.07200
C 	C 	0.74280 0.61400 0.09650 -0.13700
H 	H 	0.74060 0.59880 0.01400 0.06600
C 	C 	0.80080 0.66960 0.15400 0.03000
H 	H 	0.83940 0.69200 0.10910 0.02800
N 	N 	0.62701 0.56220 0.33480 -0.21600
N 	N 	0.58892 0.51600 0.24110 -0.18800
N 	N 	0.62288 0.52580 0.13980 -0.22200
O 	O 	0.02021 0.91440 0.43330 -0.87300
O 	O 	0.86850 0.79410 0.44120 -0.43200
O 	O 	0.92109 0.77600 0.26470 -0.40000
H 	H 	0.04330 0.85500 0.45300 0.27000
Co	Co	0.42296 0.56710 0.00434 1.13200
C 	C 	0.37000 0.74000 0.83240 0.35800
C 	C 	0.30440 0.80580 0.77860 -0.08900
C 	C 	0.24920 0.83820 0.85000 -0.06000
H 	H 	0.25150 0.82350 0.93250 0.06000
C 	C 	0.18940 0.89470 0.79140 0.03500
C 	C 	0.18700 0.91870 0.66920 0.07300
C 	C 	0.24280 0.88600 0.59650 -0.14600
H 	H 	0.24060 0.90120 0.51400 0.06700
C 	C 	0.30080 0.83040 0.65400 0.03400
H 	H 	0.33940 0.80800 0.60910 0.01800
N 	N 	0.12701 0.93780 0.83480 -0.22100
N 	N 	0.08892 0.98400 0.74110 -0.20300
N 	N 	0.12288 0.97420 0.63980 -0.22900
O 	O 	0.52021 0.58560 0.93330 -0.81700
O 	O 	0.36850 0.70590 0.94120 -0.45100
O 	O 	0.42109 0.72400 0.76470 -0.44500
H 	H 	0.54330 0.64500 0.95300 0.27300
Co	Co	0.92296 0.06710 0.00434 1.15300
C 	C 	0.87000 0.24000 0.83240 0.35200
C 	C 	0.80440 0.30580 0.77860 -0.07500
C 	C 	0.74920 0.33820 0.85000 -0.06300
H 	H 	0.75150 0.32350 0.93250 0.06600
C 	C 	0.68940 0.39470 0.79140 0.04400
C 	C 	0.68700 0.41870 0.66920 0.07200
C 	C 	0.74280 0.38600 0.59650 -0.13600
H 	H 	0.74060 0.40120 0.51400 0.06700
C 	C 	0.80080 0.33040 0.65400 0.02900
H 	H 	0.83940 0.30800 0.60910 0.02900
N 	N 	0.62701 0.43780 0.83480 -0.21500
N 	N 	0.58892 0.48400 0.74110 -0.18800
N 	N 	0.62288 0.47420 0.63980 -0.22100
O 	O 	0.02021 0.08560 0.93330 -0.87000
O 	O 	0.86850 0.20590 0.94120 -0.42800
O 	O 	0.92109 0.22400 0.76470 -0.39800
H 	H 	0.04330 0.14500 0.95300 0.27100
Co	Co	0.57704 0.56710 0.49566 1.13300
C 	C 	0.63000 0.74000 0.66760 0.35900
C 	C 	0.69560 0.80580 0.72140 -0.08800
C 	C 	0.75080 0.83820 0.65000 -0.05700
H 	H 	0.74850 0.82350 0.56750 0.06000
C 	C 	0.81060 0.89470 0.70860 0.04200
C 	C 	0.81300 0.91870 0.83080 0.07600
C 	C 	0.75720 0.88600 0.90350 -0.14200
H 	H 	0.75940 0.90120 0.98600 0.06700
C 	C 	0.69920 0.83040 0.84600 0.03600
H 	H 	0.66060 0.80800 0.89090 0.01800
N 	N 	0.87299 0.93780 0.66520 -0.21000
N 	N 	0.91108 0.98400 0.75890 -0.16500
N 	N 	0.87712 0.97420 0.86020 -0.21400
O 	O 	0.47979 0.58560 0.56670 -0.81800
O 	O 	0.63150 0.70590 0.55880 -0.45100
O 	O 	0.57891 0.72400 0.73530 -0.44500
H 	H 	0.45670 0.64500 0.54700 0.27200
Co	Co	0.07704 0.06710 0.49566 1.11100
C 	C 	0.13000 0.24000 0.66760 0.36000
C 	C 	0.19560 0.30580 0.72140 -0.09800
C 	C 	0.25080 0.33820 0.65000 -0.05600
H 	H 	0.24850 0.32350 0.56750 0.05600
C 	C 	0.31060 0.39470 0.70860 0.03500
C 	C 	0.31300 0.41870 0.83080 0.07600
C 	C 	0.25720 0.38600 0.90350 -0.15000
H 	H 	0.25940 0.40120 0.98600 0.06600
C 	C 	0.19920 0.33040 0.84600 0.03900
H 	H 	0.16060 0.30800 0.89090 0.00900
N 	N 	0.37299 0.43780 0.66520 -0.21500
N 	N 	0.41108 0.48400 0.75890 -0.18800
N 	N 	0.37712 0.47420 0.86020 -0.22200
O 	O 	0.97979 0.08560 0.56670 -0.74500
O 	O 	0.13150 0.20590 0.55880 -0.46800
O 	O 	0.07891 0.22400 0.73530 -0.47400
H 	H 	0.95670 0.14500 0.54700 0.27400
Co	Co	0.50000 0.39937 0.25000 1.15200
Co	Co	0.00000 0.89937 0.25000 1.10500
Co	Co	0.50000 0.60063 0.75000 1.15200
Co	Co	0.00000 0.10063 0.75000 1.10400
