data_crystal

_cell_length_a 23.79050
_cell_length_b 8.85350
_cell_length_c 15.55220
_cell_angle_alpha 90.00000
_cell_angle_beta  90.00000
_cell_angle_gamma 90.00000

_symmetry_space_group_name_	'P 1'
_symmetry_space_group_name_H-M	'P 1'

loop_
_symmetry_equiv_pos_as_xyz
  x,y,z

loop_
_atom_site_label
_atom_site_type_symbol
_atom_site_fract_x
_atom_site_fract_y
_atom_site_fract_z
_atom_site_charge
N 	N 	0.40080 0.55430 0.12750 -0.18700
C 	C 	0.42840 0.45350 0.14100 -0.23000
N 	N 	0.28620 0.55970 0.01070 -0.19400
C 	C 	0.26790 0.45880 0.97670 -0.23100
N 	N 	0.09920 0.44570 0.62750 -0.18700
C 	C 	0.07160 0.54650 0.64100 -0.23000
N 	N 	0.21380 0.44030 0.51070 -0.19500
C 	C 	0.23210 0.54120 0.47670 -0.23200
N 	N 	0.59920 0.05430 0.87250 -0.18900
C 	C 	0.57160 0.95350 0.85900 -0.23000
N 	N 	0.71380 0.05970 0.98930 -0.19500
C 	C 	0.73210 0.95880 0.02330 -0.23200
N 	N 	0.90080 0.94570 0.37250 -0.18700
C 	C 	0.92840 0.04650 0.35900 -0.23300
N 	N 	0.78620 0.94030 0.48930 -0.19500
C 	C 	0.76790 0.04120 0.52330 -0.23200
N 	N 	0.59920 0.44570 0.87250 -0.18800
C 	C 	0.57160 0.54650 0.85900 -0.23100
N 	N 	0.71380 0.44030 0.98930 -0.19500
C 	C 	0.73210 0.54120 0.02330 -0.23200
N 	N 	0.90080 0.55430 0.37250 -0.18800
C 	C 	0.92840 0.45350 0.35900 -0.23100
N 	N 	0.78620 0.55970 0.48930 -0.19500
C 	C 	0.76790 0.45880 0.52330 -0.23200
N 	N 	0.40080 0.94570 0.12750 -0.18900
C 	C 	0.42840 0.04650 0.14100 -0.23000
N 	N 	0.28620 0.94030 0.01070 -0.19500
C 	C 	0.26790 0.04120 0.97670 -0.23200
N 	N 	0.09920 0.05430 0.62750 -0.18700
C 	C 	0.07160 0.95350 0.64100 -0.23300
N 	N 	0.21380 0.05970 0.51070 -0.19500
C 	C 	0.23210 0.95880 0.47670 -0.23200
Cd	Cd	0.34236 0.75000 0.07154 1.17300
Cd	Cd	0.51878 0.75000 0.83701 1.17900
Cd	Cd	0.26836 0.75000 0.41988 1.17500
Cl	Cl	0.49250 0.75000 0.68210 -0.49500
Cl	Cl	0.37130 0.75000 0.46700 -0.48100
N 	N 	0.40280 0.75000 0.95620 -0.20200
C 	C 	0.44220 0.75000 0.91560 -0.25000
N 	N 	0.29830 0.75000 0.20780 -0.19200
C 	C 	0.28460 0.75000 0.27810 -0.21700
Cd	Cd	0.15764 0.25000 0.57154 1.17300
Cd	Cd	0.98122 0.25000 0.33701 1.17900
Cd	Cd	0.23164 0.25000 0.91988 1.17500
Cl	Cl	0.00750 0.25000 0.18210 -0.49300
Cl	Cl	0.12870 0.25000 0.96700 -0.48100
N 	N 	0.09720 0.25000 0.45620 -0.20200
C 	C 	0.05780 0.25000 0.41560 -0.25000
N 	N 	0.20170 0.25000 0.70780 -0.19200
C 	C 	0.21540 0.25000 0.77810 -0.21700
Cd	Cd	0.65764 0.25000 0.92846 1.17300
Cd	Cd	0.48122 0.25000 0.16299 1.17900
Cd	Cd	0.73164 0.25000 0.58012 1.17500
Cl	Cl	0.50750 0.25000 0.31790 -0.49500
Cl	Cl	0.62870 0.25000 0.53300 -0.48100
N 	N 	0.59720 0.25000 0.04380 -0.20200
C 	C 	0.55780 0.25000 0.08440 -0.25000
N 	N 	0.70170 0.25000 0.79220 -0.19200
C 	C 	0.71540 0.25000 0.72190 -0.21700
Cd	Cd	0.84236 0.75000 0.42846 1.17300
Cd	Cd	0.01878 0.75000 0.66299 1.17900
Cd	Cd	0.76836 0.75000 0.08012 1.17500
Cl	Cl	0.99250 0.75000 0.81790 -0.49300
Cl	Cl	0.87130 0.75000 0.03300 -0.48100
N 	N 	0.90280 0.75000 0.54380 -0.20200
C 	C 	0.94220 0.75000 0.58440 -0.25000
N 	N 	0.79830 0.75000 0.29220 -0.19200
C 	C 	0.78460 0.75000 0.22190 -0.21700
