data_crystal

_cell_length_a 6.03940
_cell_length_b 26.52400
_cell_length_c 23.43100
_cell_angle_alpha 90.00000
_cell_angle_beta  93.71000
_cell_angle_gamma 90.00000

_symmetry_space_group_name_	'P 1'
_symmetry_space_group_name_H-M	'P 1'

loop_
_symmetry_equiv_pos_as_xyz
  x,y,z

loop_
_atom_site_label
_atom_site_type_symbol
_atom_site_fract_x
_atom_site_fract_y
_atom_site_fract_z
_atom_site_charge
La	La	0.75400 0.80541 0.94478 1.67900
La	La	0.74680 0.77503 0.55484 1.68200
P 	P 	0.88550 0.89890 0.62440 0.43500
P 	P 	0.26080 0.86030 0.02230 0.41100
P 	P 	0.78500 0.76698 0.10700 0.45400
P 	P 	0.23150 0.17240 0.98190 0.45100
P 	P 	0.71570 0.73626 0.39320 0.41100
P 	P 	0.60420 0.93250 0.88430 0.45600
O 	O 	0.76000 0.85110 0.61810 -0.36400
O 	O 	0.91800 0.93390 0.57480 -0.26000
O 	O 	0.77400 0.92790 0.67390 -0.22500
O 	O 	0.03600 0.86330 0.98430 -0.38700
O 	O 	0.27100 0.81880 0.06760 -0.40100
O 	O 	0.47300 0.86200 0.98790 -0.36600
O 	O 	0.57600 0.74060 0.12580 -0.38000
O 	O 	0.99400 0.74280 0.13280 -0.37100
O 	O 	0.78300 0.77430 0.04390 -0.48600
O 	O 	0.45900 0.16940 0.01680 -0.40400
O 	O 	0.03700 0.17170 0.01910 -0.41100
O 	O 	0.22000 0.21140 0.93600 -0.42400
O 	O 	0.91900 0.70880 0.37300 -0.36200
O 	O 	0.49600 0.71150 0.36860 -0.38100
O 	O 	0.71200 0.73740 0.46010 -0.48300
O 	O 	0.70000 0.96740 0.84140 -0.24000
O 	O 	0.57700 0.96000 0.93790 -0.26800
O 	O 	0.72300 0.88400 0.88770 -0.37500
C 	C 	0.17000 0.88570 0.65170 -0.22400
H 	H 	0.22970 0.91550 0.67120 0.11300
H 	H 	0.25930 0.87920 0.61950 0.11200
C 	C 	0.42800 0.83840 0.72090 -0.07200
H 	H 	0.45600 0.80590 0.73880 0.06300
H 	H 	0.53290 0.84270 0.69150 0.07600
C 	C 	0.46400 0.87980 0.76540 -0.05900
H 	H 	0.44590 0.91240 0.74690 0.07300
H 	H 	0.61400 0.87780 0.78260 0.06600
C 	C 	0.07200 0.87570 0.78520 -0.08000
H 	H 	0.97000 0.87010 0.81490 0.07900
H 	H 	0.03860 0.90850 0.76830 0.07700
C 	C 	0.03700 0.83510 0.73950 -0.06100
H 	H 	0.88640 0.83720 0.72270 0.06600
H 	H 	0.05570 0.80220 0.75730 0.05800
C 	C 	0.27400 0.92080 0.06250 -0.18600
H 	H 	0.14200 0.92410 0.08390 0.08800
H 	H 	0.40190 0.92050 0.08970 0.08900
C 	C 	0.38600 0.01100 0.05390 -0.06000
H 	H 	0.53270 0.00280 0.07090 0.06300
H 	H 	0.29340 0.02030 0.08440 0.06500
C 	C 	0.40400 0.05570 0.01250 -0.06900
H 	H 	0.46790 0.08460 0.03290 0.07400
H 	H 	0.50060 0.04680 0.98250 0.07400
C 	C 	0.07900 0.02210 0.95500 -0.07300
H 	H 	0.93100 0.02990 0.93880 0.07200
H 	H 	0.16980 0.01310 0.92390 0.06600
C 	C 	0.06700 0.97820 0.99540 -0.07500
H 	H 	0.96750 0.98640 0.02490 0.08400
H 	H 	0.00720 0.94910 0.97460 0.07600
C 	C 	0.77100 0.83200 0.13080 -0.22800
H 	H 	0.89880 0.84970 0.11780 0.10200
H 	H 	0.64010 0.84720 0.11150 0.10100
C 	C 	0.56300 0.82150 0.21460 -0.06900
H 	H 	0.55750 0.78550 0.20720 0.06600
H 	H 	0.43600 0.83670 0.19370 0.04900
C 	C 	0.54300 0.83100 0.28260 -0.06400
H 	H 	0.54670 0.86670 0.29160 0.05200
H 	H 	0.40840 0.81640 0.29570 0.04500
C 	C 	0.94100 0.82970 0.29290 -0.05100
H 	H 	0.06750 0.81210 0.31120 0.03500
H 	H 	0.94510 0.86450 0.30550 0.05000
C 	C 	0.94700 0.82680 0.22760 -0.04000
H 	H 	0.07090 0.84700 0.21680 0.02900
H 	H 	0.97900 0.79210 0.21790 0.06300
C 	C 	0.18900 0.11150 0.94380 -0.20000
H 	H 	0.05240 0.11270 0.91980 0.08700
H 	H 	0.31060 0.10560 0.91950 0.09300
C 	C 	0.71800 0.80060 0.37040 -0.23400
H 	H 	0.84230 0.81780 0.39020 0.10100
H 	H 	0.58300 0.81690 0.38100 0.09900
C 	C 	0.31100 0.91840 0.85410 -0.20300
H 	H 	0.21950 0.90960 0.88520 0.10400
H 	H 	0.24840 0.94840 0.83580 0.10500
N 	N 	0.19400 0.83990 0.69380 -0.12600
H 	H 	0.17660 0.81160 0.67190 0.12300
N 	N 	0.30400 0.87550 0.81090 -0.12700
H 	H 	0.32890 0.84590 0.82990 0.12600
N 	N 	0.28900 0.96510 0.02280 -0.13300
H 	H 	0.37950 0.95650 0.99490 0.13900
N 	N 	0.17800 0.06890 0.98660 -0.12900
H 	H 	0.08960 0.07810 0.01480 0.13300
N 	N 	0.76200 0.84160 0.19340 -0.12100
H 	H 	0.75230 0.87560 0.19730 0.09300
N 	N 	0.73600 0.80590 0.30730 -0.12200
H 	H 	0.73530 0.77420 0.29240 0.10500
La	La	0.25400 0.30541 0.94478 1.66200
La	La	0.24680 0.27503 0.55484 1.66200
P 	P 	0.38550 0.39890 0.62440 0.43000
P 	P 	0.76080 0.36030 0.02230 0.41100
P 	P 	0.28500 0.26698 0.10700 0.45300
P 	P 	0.73150 0.67240 0.98190 0.45200
P 	P 	0.21570 0.23626 0.39320 0.40200
P 	P 	0.10420 0.43250 0.88430 0.44600
O 	O 	0.26000 0.35110 0.61810 -0.37000
O 	O 	0.41800 0.43390 0.57480 -0.26500
O 	O 	0.27400 0.42790 0.67390 -0.23000
O 	O 	0.53600 0.36330 0.98430 -0.38200
O 	O 	0.77100 0.31880 0.06760 -0.39500
O 	O 	0.97300 0.36200 0.98790 -0.35700
O 	O 	0.07600 0.24060 0.12580 -0.38400
O 	O 	0.49400 0.24280 0.13280 -0.38000
O 	O 	0.28300 0.27430 0.04390 -0.49200
O 	O 	0.95900 0.66940 0.01680 -0.39500
O 	O 	0.53700 0.67170 0.01910 -0.40700
O 	O 	0.72000 0.71140 0.93600 -0.41800
O 	O 	0.41900 0.20880 0.37300 -0.36800
O 	O 	0.99600 0.21150 0.36860 -0.37100
O 	O 	0.21200 0.23740 0.46010 -0.48800
O 	O 	0.20000 0.46740 0.84140 -0.24400
O 	O 	0.07700 0.46000 0.93790 -0.27700
O 	O 	0.22300 0.38400 0.88770 -0.37900
C 	C 	0.67000 0.38570 0.65170 -0.21900
H 	H 	0.72970 0.41550 0.67120 0.11500
H 	H 	0.75930 0.37920 0.61950 0.11500
C 	C 	0.92800 0.33840 0.72090 -0.04700
H 	H 	0.95600 0.30590 0.73880 0.06000
H 	H 	0.03290 0.34270 0.69150 0.05500
C 	C 	0.96400 0.37980 0.76540 -0.03400
H 	H 	0.94590 0.41240 0.74690 0.07200
H 	H 	0.11400 0.37780 0.78260 0.04600
C 	C 	0.57200 0.37570 0.78520 -0.07100
H 	H 	0.47000 0.37010 0.81490 0.07100
H 	H 	0.53860 0.40850 0.76830 0.07600
C 	C 	0.53700 0.33510 0.73950 -0.05000
H 	H 	0.38640 0.33720 0.72270 0.05700
H 	H 	0.55570 0.30220 0.75730 0.05600
C 	C 	0.77400 0.42080 0.06250 -0.18500
H 	H 	0.64200 0.42410 0.08390 0.09000
H 	H 	0.90190 0.42050 0.08970 0.09400
C 	C 	0.88600 0.51100 0.05390 -0.03100
H 	H 	0.03270 0.50280 0.07090 0.04100
H 	H 	0.79340 0.52030 0.08440 0.05900
C 	C 	0.90400 0.55570 0.01250 -0.04700
H 	H 	0.96790 0.58460 0.03290 0.07300
H 	H 	0.00060 0.54680 0.98250 0.05400
C 	C 	0.57900 0.52210 0.95500 -0.06300
H 	H 	0.43100 0.52990 0.93880 0.06400
H 	H 	0.66980 0.51310 0.92390 0.06700
C 	C 	0.56700 0.47820 0.99540 -0.06600
H 	H 	0.46750 0.48640 0.02490 0.07500
H 	H 	0.50720 0.44910 0.97460 0.07500
C 	C 	0.27100 0.33200 0.13080 -0.22900
H 	H 	0.39880 0.34970 0.11780 0.09800
H 	H 	0.14010 0.34720 0.11150 0.09600
C 	C 	0.06300 0.32150 0.21460 -0.08900
H 	H 	0.05750 0.28550 0.20720 0.07100
H 	H 	0.93600 0.33670 0.19370 0.06600
C 	C 	0.04300 0.33100 0.28260 -0.08300
H 	H 	0.04670 0.36670 0.29160 0.05300
H 	H 	0.90840 0.31640 0.29570 0.06100
C 	C 	0.44100 0.32970 0.29290 -0.06900
H 	H 	0.56750 0.31210 0.31120 0.05100
H 	H 	0.44510 0.36450 0.30550 0.05300
C 	C 	0.44700 0.32680 0.22760 -0.05600
H 	H 	0.57090 0.34700 0.21680 0.04400
H 	H 	0.47900 0.29210 0.21790 0.06400
C 	C 	0.68900 0.61150 0.94380 -0.20000
H 	H 	0.55240 0.61270 0.91980 0.09100
H 	H 	0.81060 0.60560 0.91950 0.09800
C 	C 	0.21800 0.30060 0.37040 -0.23300
H 	H 	0.34230 0.31780 0.39020 0.09700
H 	H 	0.08300 0.31690 0.38100 0.09300
C 	C 	0.81100 0.41840 0.85410 -0.18700
H 	H 	0.71950 0.40960 0.88520 0.10300
H 	H 	0.74840 0.44840 0.83580 0.10500
N 	N 	0.69400 0.33990 0.69380 -0.13000
H 	H 	0.67660 0.31160 0.67190 0.12500
N 	N 	0.80400 0.37550 0.81090 -0.13300
H 	H 	0.82890 0.34590 0.82990 0.13000
N 	N 	0.78900 0.46510 0.02280 -0.13700
H 	H 	0.87950 0.45650 0.99490 0.14600
N 	N 	0.67800 0.56890 0.98660 -0.13100
H 	H 	0.58960 0.57810 0.01480 0.13500
N 	N 	0.26200 0.34160 0.19340 -0.11500
H 	H 	0.25230 0.37560 0.19730 0.08900
N 	N 	0.23600 0.30590 0.30730 -0.11700
H 	H 	0.23530 0.27420 0.29240 0.10300
La	La	0.75400 0.19459 0.44478 1.67800
La	La	0.74680 0.22497 0.05484 1.68100
P 	P 	0.88550 0.10110 0.12440 0.43400
P 	P 	0.26080 0.13970 0.52230 0.41100
P 	P 	0.78500 0.23302 0.60700 0.45400
P 	P 	0.23150 0.82760 0.48190 0.45100
P 	P 	0.71570 0.26374 0.89320 0.41100
P 	P 	0.60420 0.06750 0.38430 0.45600
O 	O 	0.76000 0.14890 0.11810 -0.36400
O 	O 	0.91800 0.06610 0.07480 -0.26000
O 	O 	0.77400 0.07210 0.17390 -0.22500
O 	O 	0.03600 0.13670 0.48430 -0.38700
O 	O 	0.27100 0.18120 0.56760 -0.40100
O 	O 	0.47300 0.13800 0.48790 -0.36600
O 	O 	0.57600 0.25940 0.62580 -0.38000
O 	O 	0.99400 0.25720 0.63280 -0.37100
O 	O 	0.78300 0.22570 0.54390 -0.48600
O 	O 	0.45900 0.83060 0.51680 -0.40400
O 	O 	0.03700 0.82830 0.51910 -0.41100
O 	O 	0.22000 0.78860 0.43600 -0.42400
O 	O 	0.91900 0.29120 0.87300 -0.36200
O 	O 	0.49600 0.28850 0.86860 -0.38100
O 	O 	0.71200 0.26260 0.96010 -0.48300
O 	O 	0.70000 0.03260 0.34140 -0.24000
O 	O 	0.57700 0.04000 0.43790 -0.26800
O 	O 	0.72300 0.11600 0.38770 -0.37500
C 	C 	0.17000 0.11430 0.15170 -0.22400
H 	H 	0.22970 0.08450 0.17120 0.11400
H 	H 	0.25930 0.12080 0.11950 0.11200
C 	C 	0.42800 0.16160 0.22090 -0.07200
H 	H 	0.45600 0.19410 0.23880 0.06300
H 	H 	0.53290 0.15730 0.19150 0.07600
C 	C 	0.46400 0.12020 0.26540 -0.05900
H 	H 	0.44590 0.08760 0.24690 0.07300
H 	H 	0.61400 0.12220 0.28260 0.06600
C 	C 	0.07200 0.12430 0.28520 -0.08000
H 	H 	0.97000 0.12990 0.31490 0.07900
H 	H 	0.03860 0.09150 0.26830 0.07700
C 	C 	0.03700 0.16490 0.23950 -0.06100
H 	H 	0.88640 0.16280 0.22270 0.06600
H 	H 	0.05570 0.19780 0.25730 0.05800
C 	C 	0.27400 0.07920 0.56250 -0.18700
H 	H 	0.14200 0.07590 0.58390 0.08800
H 	H 	0.40190 0.07950 0.58970 0.08900
C 	C 	0.38600 0.98900 0.55390 -0.06100
H 	H 	0.53270 0.99720 0.57090 0.06300
H 	H 	0.29340 0.97970 0.58440 0.06500
C 	C 	0.40400 0.94430 0.51250 -0.06900
H 	H 	0.46790 0.91540 0.53290 0.07300
H 	H 	0.50060 0.95320 0.48250 0.07400
C 	C 	0.07900 0.97790 0.45500 -0.07100
H 	H 	0.93100 0.97010 0.43880 0.07200
H 	H 	0.16980 0.98690 0.42390 0.06500
C 	C 	0.06700 0.02180 0.49540 -0.07800
H 	H 	0.96750 0.01360 0.52490 0.08600
H 	H 	0.00720 0.05090 0.47460 0.07700
C 	C 	0.77100 0.16800 0.63080 -0.22800
H 	H 	0.89880 0.15030 0.61780 0.10200
H 	H 	0.64010 0.15280 0.61150 0.10100
C 	C 	0.56300 0.17850 0.71460 -0.06900
H 	H 	0.55750 0.21450 0.70720 0.06600
H 	H 	0.43600 0.16330 0.69370 0.04900
C 	C 	0.54300 0.16900 0.78260 -0.06400
H 	H 	0.54670 0.13330 0.79160 0.05200
H 	H 	0.40840 0.18360 0.79570 0.04500
C 	C 	0.94100 0.17030 0.79290 -0.05100
H 	H 	0.06750 0.18790 0.81120 0.03500
H 	H 	0.94510 0.13550 0.80550 0.05000
C 	C 	0.94700 0.17320 0.72760 -0.04000
H 	H 	0.07090 0.15300 0.71680 0.03000
H 	H 	0.97900 0.20790 0.71790 0.06300
C 	C 	0.18900 0.88850 0.44380 -0.20000
H 	H 	0.05240 0.88730 0.41980 0.08700
H 	H 	0.31060 0.89440 0.41950 0.09300
C 	C 	0.71800 0.19940 0.87040 -0.23400
H 	H 	0.84230 0.18220 0.89020 0.10100
H 	H 	0.58300 0.18310 0.88100 0.09900
C 	C 	0.31100 0.08160 0.35410 -0.20300
H 	H 	0.21950 0.09040 0.38520 0.10400
H 	H 	0.24840 0.05160 0.33580 0.10500
N 	N 	0.19400 0.16010 0.19380 -0.12600
H 	H 	0.17660 0.18840 0.17190 0.12300
N 	N 	0.30400 0.12450 0.31090 -0.12700
H 	H 	0.32890 0.15410 0.32990 0.12600
N 	N 	0.28900 0.03490 0.52280 -0.13100
H 	H 	0.37950 0.04350 0.49490 0.13900
N 	N 	0.17800 0.93110 0.48660 -0.12900
H 	H 	0.08960 0.92190 0.51480 0.13300
N 	N 	0.76200 0.15840 0.69340 -0.12100
H 	H 	0.75230 0.12440 0.69730 0.09300
N 	N 	0.73600 0.19410 0.80730 -0.12200
H 	H 	0.73530 0.22580 0.79240 0.10500
La	La	0.25400 0.69459 0.44478 1.66200
La	La	0.24680 0.72497 0.05484 1.66200
P 	P 	0.38550 0.60110 0.12440 0.43000
P 	P 	0.76080 0.63970 0.52230 0.41200
P 	P 	0.28500 0.73302 0.60700 0.45300
P 	P 	0.73150 0.32760 0.48190 0.45100
P 	P 	0.21570 0.76374 0.89320 0.40200
P 	P 	0.10420 0.56750 0.38430 0.44600
O 	O 	0.26000 0.64890 0.11810 -0.37000
O 	O 	0.41800 0.56610 0.07480 -0.26500
O 	O 	0.27400 0.57210 0.17390 -0.23000
O 	O 	0.53600 0.63670 0.48430 -0.38200
O 	O 	0.77100 0.68120 0.56760 -0.39500
O 	O 	0.97300 0.63800 0.48790 -0.35800
O 	O 	0.07600 0.75940 0.62580 -0.38400
O 	O 	0.49400 0.75720 0.63280 -0.38000
O 	O 	0.28300 0.72570 0.54390 -0.49200
O 	O 	0.95900 0.33060 0.51680 -0.39500
O 	O 	0.53700 0.32830 0.51910 -0.40600
O 	O 	0.72000 0.28860 0.43600 -0.41800
O 	O 	0.41900 0.79120 0.87300 -0.36800
O 	O 	0.99600 0.78850 0.86860 -0.37100
O 	O 	0.21200 0.76260 0.96010 -0.48700
O 	O 	0.20000 0.53260 0.34140 -0.24400
O 	O 	0.07700 0.54000 0.43790 -0.27700
O 	O 	0.22300 0.61600 0.38770 -0.37900
C 	C 	0.67000 0.61430 0.15170 -0.21900
H 	H 	0.72970 0.58450 0.17120 0.11500
H 	H 	0.75930 0.62080 0.11950 0.11500
C 	C 	0.92800 0.66160 0.22090 -0.04700
H 	H 	0.95600 0.69410 0.23880 0.06000
H 	H 	0.03290 0.65730 0.19150 0.05500
C 	C 	0.96400 0.62020 0.26540 -0.03400
H 	H 	0.94590 0.58760 0.24690 0.07200
H 	H 	0.11400 0.62220 0.28260 0.04600
C 	C 	0.57200 0.62430 0.28520 -0.07100
H 	H 	0.47000 0.62990 0.31490 0.07100
H 	H 	0.53860 0.59150 0.26830 0.07600
C 	C 	0.53700 0.66490 0.23950 -0.05000
H 	H 	0.38640 0.66280 0.22270 0.05700
H 	H 	0.55570 0.69780 0.25730 0.05600
C 	C 	0.77400 0.57920 0.56250 -0.18500
H 	H 	0.64200 0.57590 0.58390 0.09000
H 	H 	0.90190 0.57950 0.58970 0.09400
C 	C 	0.88600 0.48900 0.55390 -0.03200
H 	H 	0.03270 0.49720 0.57090 0.04100
H 	H 	0.79340 0.47970 0.58440 0.06000
C 	C 	0.90400 0.44430 0.51250 -0.04500
H 	H 	0.96790 0.41540 0.53290 0.07300
H 	H 	0.00060 0.45320 0.48250 0.05300
C 	C 	0.57900 0.47790 0.45500 -0.06200
H 	H 	0.43100 0.47010 0.43880 0.06300
H 	H 	0.66980 0.48690 0.42390 0.06600
C 	C 	0.56700 0.52180 0.49540 -0.06700
H 	H 	0.46750 0.51360 0.52490 0.07600
H 	H 	0.50720 0.55090 0.47460 0.07600
C 	C 	0.27100 0.66800 0.63080 -0.22900
H 	H 	0.39880 0.65030 0.61780 0.09800
H 	H 	0.14010 0.65280 0.61150 0.09600
C 	C 	0.06300 0.67850 0.71460 -0.08900
H 	H 	0.05750 0.71450 0.70720 0.07100
H 	H 	0.93600 0.66330 0.69370 0.06600
C 	C 	0.04300 0.66900 0.78260 -0.08300
H 	H 	0.04670 0.63330 0.79160 0.05300
H 	H 	0.90840 0.68360 0.79570 0.06100
C 	C 	0.44100 0.67030 0.79290 -0.06900
H 	H 	0.56750 0.68790 0.81120 0.05100
H 	H 	0.44510 0.63550 0.80550 0.05300
C 	C 	0.44700 0.67320 0.72760 -0.05600
H 	H 	0.57090 0.65300 0.71680 0.04400
H 	H 	0.47900 0.70790 0.71790 0.06400
C 	C 	0.68900 0.38850 0.44380 -0.20000
H 	H 	0.55240 0.38730 0.41980 0.09100
H 	H 	0.81060 0.39440 0.41950 0.09800
C 	C 	0.21800 0.69940 0.87040 -0.23300
H 	H 	0.34230 0.68220 0.89020 0.09700
H 	H 	0.08300 0.68310 0.88100 0.09300
C 	C 	0.81100 0.58160 0.35410 -0.18700
H 	H 	0.71950 0.59040 0.38520 0.10300
H 	H 	0.74840 0.55160 0.33580 0.10500
N 	N 	0.69400 0.66010 0.19380 -0.13000
H 	H 	0.67660 0.68840 0.17190 0.12500
N 	N 	0.80400 0.62450 0.31090 -0.13300
H 	H 	0.82890 0.65410 0.32990 0.13000
N 	N 	0.78900 0.53490 0.52280 -0.13600
H 	H 	0.87950 0.54350 0.49490 0.14500
N 	N 	0.67800 0.43110 0.48660 -0.13200
H 	H 	0.58960 0.42190 0.51480 0.13500
N 	N 	0.26200 0.65840 0.69340 -0.11500
H 	H 	0.25230 0.62440 0.69730 0.08900
N 	N 	0.23600 0.69410 0.80730 -0.11700
H 	H 	0.23530 0.72580 0.79240 0.10300
