data_crystal

_cell_length_a 10.39000
_cell_length_b 11.80300
_cell_length_c 11.93400
_cell_angle_alpha 82.96700
_cell_angle_beta  81.36600
_cell_angle_gamma 87.88400

_symmetry_space_group_name_	'P 1'
_symmetry_space_group_name_H-M	'P 1'

loop_
_symmetry_equiv_pos_as_xyz
  x,y,z

loop_
_atom_site_label
_atom_site_type_symbol
_atom_site_fract_x
_atom_site_fract_y
_atom_site_fract_z
_atom_site_charge
Eu	Eu	0.98046 0.23992 0.07532 1.95000
P 	P 	0.70541 0.27650 0.31429 0.48600
P 	P 	0.11627 0.50548 0.11598 0.47300
P 	P 	0.84736 0.96613 0.10555 0.48500
O 	O 	0.80040 0.25870 0.21110 -0.46200
O 	O 	0.56660 0.24220 0.29960 -0.45800
H 	H 	0.55340 0.17630 0.32870 0.26700
O 	O 	0.74410 0.21900 0.42500 -0.24800
O 	O 	0.81990 0.46970 0.32810 -0.33400
H 	H 	0.81730 0.53940 0.32630 0.22400
O 	O 	0.07830 0.62480 0.07250 -0.42900
O 	O 	0.00950 0.42010 0.15140 -0.40600
O 	O 	0.19420 0.51370 0.21870 -0.42700
H 	H 	0.19850 0.45050 0.25530 0.25000
O 	O 	0.20270 0.32980 0.00910 -0.51400
H 	H 	0.24340 0.31290 0.94590 0.24800
O 	O 	0.89560 0.85230 0.07010 -0.44900
O 	O 	0.94530 0.04210 0.13830 -0.46000
O 	O 	0.73390 0.94200 0.20820 -0.44300
H 	H 	0.75700 0.95900 0.26670 0.26300
O 	O 	0.80070 0.16430 0.98860 -0.50400
H 	H 	0.75920 0.21170 0.94710 0.25800
C 	C 	0.69530 0.43060 0.31850 -0.00100
H 	H 	0.67150 0.46630 0.24570 0.03900
C 	C 	0.59430 0.46700 0.41340 0.03900
C 	C 	0.47280 0.50300 0.39020 -0.05700
H 	H 	0.45390 0.50520 0.31620 0.06500
C 	C 	0.62190 0.46400 0.52480 -0.05500
H 	H 	0.70380 0.43990 0.54180 0.07800
C 	C 	0.22700 0.44830 0.00030 0.03400
H 	H 	0.20260 0.48390 0.92770 0.00400
C 	C 	0.36910 0.47350 0.00020 0.01300
C 	C 	0.41480 0.58250 0.95860 -0.05100
H 	H 	0.35840 0.63870 0.93140 0.04700
C 	C 	0.45400 0.39270 0.04200 -0.05000
H 	H 	0.42390 0.32030 0.07130 0.05700
C 	C 	0.77490 0.04580 0.98720 0.04400
H 	H 	0.82050 0.02220 0.91550 0.01000
C 	C 	0.63160 0.02370 0.99280 0.02000
C 	C 	0.53930 0.07920 0.06410 -0.05900
H 	H 	0.56520 0.13250 0.10720 0.06600
C 	C 	0.59120 0.94440 0.92860 -0.04300
H 	H 	0.65260 0.90700 0.88030 0.03200
Eu	Eu	0.01954 0.76008 0.92468 1.94900
P 	P 	0.29459 0.72350 0.68571 0.48500
P 	P 	0.88373 0.49452 0.88402 0.47200
P 	P 	0.15264 0.03387 0.89445 0.48400
O 	O 	0.19960 0.74130 0.78890 -0.46200
O 	O 	0.43340 0.75780 0.70040 -0.45800
H 	H 	0.44660 0.82370 0.67130 0.26700
O 	O 	0.25590 0.78100 0.57500 -0.24800
O 	O 	0.18010 0.53030 0.67190 -0.33400
H 	H 	0.18270 0.46060 0.67370 0.22400
O 	O 	0.92170 0.37520 0.92750 -0.42900
O 	O 	0.99050 0.57990 0.84860 -0.40600
O 	O 	0.80580 0.48630 0.78130 -0.42700
H 	H 	0.80150 0.54950 0.74470 0.25000
O 	O 	0.79730 0.67020 0.99090 -0.51400
H 	H 	0.75660 0.68710 0.05410 0.24800
O 	O 	0.10440 0.14770 0.92990 -0.44900
O 	O 	0.05470 0.95790 0.86170 -0.46000
O 	O 	0.26610 0.05800 0.79180 -0.44300
H 	H 	0.24300 0.04100 0.73330 0.26300
O 	O 	0.19930 0.83570 0.01140 -0.50400
H 	H 	0.24080 0.78830 0.05290 0.25800
C 	C 	0.30470 0.56940 0.68150 -0.00100
H 	H 	0.32850 0.53370 0.75430 0.03900
C 	C 	0.40570 0.53300 0.58660 0.03900
C 	C 	0.52720 0.49700 0.60980 -0.05700
H 	H 	0.54610 0.49480 0.68380 0.06500
C 	C 	0.37810 0.53600 0.47520 -0.05500
H 	H 	0.29620 0.56010 0.45820 0.07800
C 	C 	0.77300 0.55170 0.99970 0.03400
H 	H 	0.79740 0.51610 0.07230 0.00400
C 	C 	0.63090 0.52650 0.99980 0.01300
C 	C 	0.58520 0.41750 0.04140 -0.05100
H 	H 	0.64160 0.36130 0.06860 0.04700
C 	C 	0.54600 0.60730 0.95800 -0.05000
H 	H 	0.57610 0.67970 0.92870 0.05700
C 	C 	0.22510 0.95420 0.01280 0.04400
H 	H 	0.17950 0.97780 0.08450 0.01000
C 	C 	0.36840 0.97630 0.00720 0.02000
C 	C 	0.46070 0.92080 0.93590 -0.05900
H 	H 	0.43480 0.86750 0.89280 0.06600
C 	C 	0.40880 0.05560 0.07140 -0.04300
H 	H 	0.34740 0.09300 0.11970 0.03200
