data_crystal

_cell_length_a 20.99390
_cell_length_b 20.99390
_cell_length_c 20.99390
_cell_angle_alpha 90.00000
_cell_angle_beta  90.00000
_cell_angle_gamma 90.00000

_symmetry_space_group_name_	'P 1'
_symmetry_space_group_name_H-M	'P 1'

loop_
_symmetry_equiv_pos_as_xyz
  x,y,z

loop_
_atom_site_label
_atom_site_type_symbol
_atom_site_fract_x
_atom_site_fract_y
_atom_site_fract_z
_atom_site_charge
O 	O 	0.35860 0.07301 0.43330 -0.53800
S 	S 	0.39548 0.18604 0.28850 0.10500
C 	C 	0.31050 0.18730 0.37360 -0.04500
C 	C 	0.33730 0.24290 0.29060 -0.02100
H 	H 	0.28730 0.17650 0.41090 -0.03500
O 	O 	0.64140 0.92699 0.43330 -0.45300
S 	S 	0.60452 0.81396 0.28850 0.09300
C 	C 	0.68950 0.81270 0.37360 -0.04400
C 	C 	0.66270 0.75710 0.29060 -0.00500
H 	H 	0.71270 0.82350 0.41090 0.00200
O 	O 	0.64140 0.07301 0.56670 -0.52800
S 	S 	0.60452 0.18604 0.71150 0.09700
C 	C 	0.68950 0.18730 0.62640 -0.03800
C 	C 	0.66270 0.24290 0.70940 -0.01000
H 	H 	0.71270 0.17650 0.58910 -0.01900
O 	O 	0.35860 0.92699 0.56670 -0.45900
S 	S 	0.39548 0.81396 0.71150 0.09000
C 	C 	0.31050 0.81270 0.62640 -0.04600
C 	C 	0.33730 0.75710 0.70940 -0.00300
H 	H 	0.28730 0.82350 0.58910 -0.00800
O 	O 	0.43330 0.35860 0.07301 -0.53800
S 	S 	0.28850 0.39548 0.18604 0.10500
C 	C 	0.37360 0.31050 0.18730 -0.04500
C 	C 	0.29060 0.33730 0.24290 -0.02100
H 	H 	0.41090 0.28730 0.17650 -0.03500
O 	O 	0.43330 0.64140 0.92699 -0.45300
S 	S 	0.28850 0.60452 0.81396 0.09300
C 	C 	0.37360 0.68950 0.81270 -0.04400
C 	C 	0.29060 0.66270 0.75710 -0.00500
H 	H 	0.41090 0.71270 0.82350 0.00200
O 	O 	0.56670 0.64140 0.07301 -0.52800
S 	S 	0.71150 0.60452 0.18604 0.09700
C 	C 	0.62640 0.68950 0.18730 -0.03800
C 	C 	0.70940 0.66270 0.24290 -0.01000
H 	H 	0.58910 0.71270 0.17650 -0.01900
O 	O 	0.56670 0.35860 0.92699 -0.45900
S 	S 	0.71150 0.39548 0.81396 0.09000
C 	C 	0.62640 0.31050 0.81270 -0.04600
C 	C 	0.70940 0.33730 0.75710 -0.00300
H 	H 	0.58910 0.28730 0.82350 -0.00800
O 	O 	0.07301 0.43330 0.35860 -0.53800
S 	S 	0.18604 0.28850 0.39548 0.10500
C 	C 	0.18730 0.37360 0.31050 -0.04500
C 	C 	0.24290 0.29060 0.33730 -0.02100
H 	H 	0.17650 0.41090 0.28730 -0.03500
O 	O 	0.92699 0.43330 0.64140 -0.45300
S 	S 	0.81396 0.28850 0.60452 0.09300
C 	C 	0.81270 0.37360 0.68950 -0.04400
C 	C 	0.75710 0.29060 0.66270 -0.00500
H 	H 	0.82350 0.41090 0.71270 0.00200
O 	O 	0.07301 0.56670 0.64140 -0.52800
S 	S 	0.18604 0.71150 0.60452 0.09700
C 	C 	0.18730 0.62640 0.68950 -0.03800
C 	C 	0.24290 0.70940 0.66270 -0.01000
H 	H 	0.17650 0.58910 0.71270 -0.01900
O 	O 	0.92699 0.56670 0.35860 -0.45900
S 	S 	0.81396 0.71150 0.39548 0.09000
C 	C 	0.81270 0.62640 0.31050 -0.04600
C 	C 	0.75710 0.70940 0.33730 -0.00300
H 	H 	0.82350 0.58910 0.28730 -0.00800
O 	O 	0.07301 0.35860 0.56670 -0.53600
S 	S 	0.18604 0.39548 0.71150 0.09900
C 	C 	0.18730 0.31050 0.62640 -0.04200
C 	C 	0.24290 0.33730 0.70940 -0.01400
H 	H 	0.17650 0.28730 0.58910 -0.03200
O 	O 	0.92699 0.64140 0.56670 -0.45100
S 	S 	0.81396 0.60452 0.71150 0.08700
C 	C 	0.81270 0.68950 0.62640 -0.04200
C 	C 	0.75710 0.66270 0.70940 0.00100
H 	H 	0.82350 0.71270 0.58910 0.00500
O 	O 	0.07301 0.64140 0.43330 -0.53000
S 	S 	0.18604 0.60452 0.28850 0.10200
C 	C 	0.18730 0.68950 0.37360 -0.04000
C 	C 	0.24290 0.66270 0.29060 -0.01700
H 	H 	0.17650 0.71270 0.41090 -0.02200
O 	O 	0.92699 0.35860 0.43330 -0.46100
S 	S 	0.81396 0.39548 0.28850 0.09500
C 	C 	0.81270 0.31050 0.37360 -0.04900
C 	C 	0.75710 0.33730 0.29060 -0.00900
H 	H 	0.82350 0.28730 0.41090 -0.01100
O 	O 	0.35860 0.43330 0.92699 -0.46100
S 	S 	0.39548 0.28850 0.81396 0.09500
C 	C 	0.31050 0.37360 0.81270 -0.04900
C 	C 	0.33730 0.29060 0.75710 -0.00900
H 	H 	0.28730 0.41090 0.82350 -0.01100
O 	O 	0.64140 0.43330 0.07301 -0.53000
S 	S 	0.60452 0.28850 0.18604 0.10200
C 	C 	0.68950 0.37360 0.18730 -0.04000
C 	C 	0.66270 0.29060 0.24290 -0.01700
H 	H 	0.71270 0.41090 0.17650 -0.02200
O 	O 	0.64140 0.56670 0.92699 -0.45100
S 	S 	0.60452 0.71150 0.81396 0.08700
C 	C 	0.68950 0.62640 0.81270 -0.04200
C 	C 	0.66270 0.70940 0.75710 0.00100
H 	H 	0.71270 0.58910 0.82350 0.00500
O 	O 	0.35860 0.56670 0.07301 -0.53600
S 	S 	0.39548 0.71150 0.18604 0.09900
C 	C 	0.31050 0.62640 0.18730 -0.04200
C 	C 	0.33730 0.70940 0.24290 -0.01400
H 	H 	0.28730 0.58910 0.17650 -0.03200
O 	O 	0.43330 0.07301 0.64140 -0.53000
S 	S 	0.28850 0.18604 0.60452 0.10200
C 	C 	0.37360 0.18730 0.68950 -0.04000
C 	C 	0.29060 0.24290 0.66270 -0.01700
H 	H 	0.41090 0.17650 0.71270 -0.02200
O 	O 	0.43330 0.92699 0.35860 -0.46100
S 	S 	0.28850 0.81396 0.39548 0.09500
C 	C 	0.37360 0.81270 0.31050 -0.04900
C 	C 	0.29060 0.75710 0.33730 -0.00900
H 	H 	0.41090 0.82350 0.28730 -0.01100
O 	O 	0.56670 0.07301 0.35860 -0.53600
S 	S 	0.71150 0.18604 0.39548 0.09900
C 	C 	0.62640 0.18730 0.31050 -0.04200
C 	C 	0.70940 0.24290 0.33730 -0.01400
H 	H 	0.58910 0.17650 0.28730 -0.03200
O 	O 	0.56670 0.92699 0.64140 -0.45100
S 	S 	0.71150 0.81396 0.60452 0.08700
C 	C 	0.62640 0.81270 0.68950 -0.04200
C 	C 	0.70940 0.75710 0.66270 0.00100
H 	H 	0.58910 0.82350 0.71270 0.00500
O 	O 	0.64140 0.92699 0.56670 -0.45100
S 	S 	0.60452 0.81396 0.71150 0.08700
C 	C 	0.68950 0.81270 0.62640 -0.04200
C 	C 	0.66270 0.75710 0.70940 0.00100
H 	H 	0.71270 0.82350 0.58910 0.00500
O 	O 	0.35860 0.07301 0.56670 -0.53600
S 	S 	0.39548 0.18604 0.71150 0.09900
C 	C 	0.31050 0.18730 0.62640 -0.04200
C 	C 	0.33730 0.24290 0.70940 -0.01400
H 	H 	0.28730 0.17650 0.58910 -0.03200
O 	O 	0.35860 0.92699 0.43330 -0.46100
S 	S 	0.39548 0.81396 0.28850 0.09500
C 	C 	0.31050 0.81270 0.37360 -0.04900
C 	C 	0.33730 0.75710 0.29060 -0.00900
H 	H 	0.28730 0.82350 0.41090 -0.01100
O 	O 	0.64140 0.07301 0.43330 -0.53000
S 	S 	0.60452 0.18604 0.28850 0.10200
C 	C 	0.68950 0.18730 0.37360 -0.04000
C 	C 	0.66270 0.24290 0.29060 -0.01700
H 	H 	0.71270 0.17650 0.41090 -0.02200
O 	O 	0.56670 0.64140 0.92699 -0.45100
S 	S 	0.71150 0.60452 0.81396 0.08700
C 	C 	0.62640 0.68950 0.81270 -0.04200
C 	C 	0.70940 0.66270 0.75710 0.00100
H 	H 	0.58910 0.71270 0.82350 0.00500
O 	O 	0.56670 0.35860 0.07301 -0.53600
S 	S 	0.71150 0.39548 0.18604 0.09900
C 	C 	0.62640 0.31050 0.18730 -0.04200
C 	C 	0.70940 0.33730 0.24290 -0.01400
H 	H 	0.58910 0.28730 0.17650 -0.03200
O 	O 	0.43330 0.35860 0.92699 -0.46100
S 	S 	0.28850 0.39548 0.81396 0.09500
C 	C 	0.37360 0.31050 0.81270 -0.04900
C 	C 	0.29060 0.33730 0.75710 -0.00900
H 	H 	0.41090 0.28730 0.82350 -0.01100
O 	O 	0.43330 0.64140 0.07301 -0.53000
S 	S 	0.28850 0.60452 0.18604 0.10200
C 	C 	0.37360 0.68950 0.18730 -0.04000
C 	C 	0.29060 0.66270 0.24290 -0.01700
H 	H 	0.41090 0.71270 0.17650 -0.02200
O 	O 	0.92699 0.56670 0.64140 -0.45100
S 	S 	0.81396 0.71150 0.60452 0.08700
C 	C 	0.81270 0.62640 0.68950 -0.04200
C 	C 	0.75710 0.70940 0.66270 0.00100
H 	H 	0.82350 0.58910 0.71270 0.00500
O 	O 	0.07301 0.56670 0.35860 -0.53600
S 	S 	0.18604 0.71150 0.39548 0.09900
C 	C 	0.18730 0.62640 0.31050 -0.04200
C 	C 	0.24290 0.70940 0.33730 -0.01400
H 	H 	0.17650 0.58910 0.28730 -0.03200
O 	O 	0.92699 0.43330 0.35860 -0.46100
S 	S 	0.81396 0.28850 0.39548 0.09500
C 	C 	0.81270 0.37360 0.31050 -0.04900
C 	C 	0.75710 0.29060 0.33730 -0.00900
H 	H 	0.82350 0.41090 0.28730 -0.01100
O 	O 	0.07301 0.43330 0.64140 -0.53000
S 	S 	0.18604 0.28850 0.60452 0.10200
C 	C 	0.18730 0.37360 0.68950 -0.04000
C 	C 	0.24290 0.29060 0.66270 -0.01700
H 	H 	0.17650 0.41090 0.71270 -0.02200
O 	O 	0.92699 0.64140 0.43330 -0.45300
S 	S 	0.81396 0.60452 0.28850 0.09300
C 	C 	0.81270 0.68950 0.37360 -0.04400
C 	C 	0.75710 0.66270 0.29060 -0.00500
H 	H 	0.82350 0.71270 0.41090 0.00200
O 	O 	0.07301 0.35860 0.43330 -0.53800
S 	S 	0.18604 0.39548 0.28850 0.10500
C 	C 	0.18730 0.31050 0.37360 -0.04500
C 	C 	0.24290 0.33730 0.29060 -0.02100
H 	H 	0.17650 0.28730 0.41090 -0.03500
O 	O 	0.92699 0.35860 0.56670 -0.45900
S 	S 	0.81396 0.39548 0.71150 0.09000
C 	C 	0.81270 0.31050 0.62640 -0.04600
C 	C 	0.75710 0.33730 0.70940 -0.00300
H 	H 	0.82350 0.28730 0.58910 -0.00800
O 	O 	0.07301 0.64140 0.56670 -0.52800
S 	S 	0.18604 0.60452 0.71150 0.09700
C 	C 	0.18730 0.68950 0.62640 -0.03800
C 	C 	0.24290 0.66270 0.70940 -0.01000
H 	H 	0.17650 0.71270 0.58910 -0.01900
O 	O 	0.64140 0.56670 0.07301 -0.52800
S 	S 	0.60452 0.71150 0.18604 0.09700
C 	C 	0.68950 0.62640 0.18730 -0.03800
C 	C 	0.66270 0.70940 0.24290 -0.01000
H 	H 	0.71270 0.58910 0.17650 -0.01900
O 	O 	0.35860 0.56670 0.92699 -0.45900
S 	S 	0.39548 0.71150 0.81396 0.09000
C 	C 	0.31050 0.62640 0.81270 -0.04600
C 	C 	0.33730 0.70940 0.75710 -0.00300
H 	H 	0.28730 0.58910 0.82350 -0.00800
O 	O 	0.35860 0.43330 0.07301 -0.53800
S 	S 	0.39548 0.28850 0.18604 0.10500
C 	C 	0.31050 0.37360 0.18730 -0.04500
C 	C 	0.33730 0.29060 0.24290 -0.02100
H 	H 	0.28730 0.41090 0.17650 -0.03500
O 	O 	0.64140 0.43330 0.92699 -0.45300
S 	S 	0.60452 0.28850 0.81396 0.09300
C 	C 	0.68950 0.37360 0.81270 -0.04400
C 	C 	0.66270 0.29060 0.75710 -0.00500
H 	H 	0.71270 0.41090 0.82350 0.00200
O 	O 	0.56670 0.92699 0.35860 -0.45900
S 	S 	0.71150 0.81396 0.39548 0.09000
C 	C 	0.62640 0.81270 0.31050 -0.04600
C 	C 	0.70940 0.75710 0.33730 -0.00300
H 	H 	0.58910 0.82350 0.28730 -0.00800
O 	O 	0.56670 0.07301 0.64140 -0.52800
S 	S 	0.71150 0.18604 0.60452 0.09700
C 	C 	0.62640 0.18730 0.68950 -0.03800
C 	C 	0.70940 0.24290 0.66270 -0.01000
H 	H 	0.58910 0.17650 0.71270 -0.01900
O 	O 	0.43330 0.92699 0.64140 -0.45300
S 	S 	0.28850 0.81396 0.60452 0.09300
C 	C 	0.37360 0.81270 0.68950 -0.04400
C 	C 	0.29060 0.75710 0.66270 -0.00500
H 	H 	0.41090 0.82350 0.71270 0.00200
O 	O 	0.43330 0.07301 0.35860 -0.53800
S 	S 	0.28850 0.18604 0.39548 0.10500
C 	C 	0.37360 0.18730 0.31050 -0.04500
C 	C 	0.29060 0.24290 0.33730 -0.02100
H 	H 	0.41090 0.17650 0.28730 -0.03500
Mn	Mn	0.36541 -0.00000 0.50000 1.21700
Mn	Mn	0.63459 -0.00000 0.50000 1.22100
Mn	Mn	0.50000 0.36541 -0.00000 1.21700
Mn	Mn	0.50000 0.63459 -0.00000 1.22100
Mn	Mn	0.00000 0.50000 0.36541 1.21700
Mn	Mn	-0.00000 0.50000 0.63459 1.22100
Mn	Mn	0.00000 0.36541 0.50000 1.21700
Mn	Mn	-0.00000 0.63459 0.50000 1.22100
Mn	Mn	0.36541 0.50000 -0.00000 1.21700
Mn	Mn	0.63459 0.50000 -0.00000 1.22100
Mn	Mn	0.50000 -0.00000 0.63459 1.22100
Mn	Mn	0.50000 -0.00000 0.36541 1.21700
C 	C 	0.38540 0.09450 0.38540 0.42900
C 	C 	0.35750 0.15360 0.35750 -0.12300
C 	C 	0.61460 0.90550 0.38540 0.41800
C 	C 	0.64250 0.84640 0.35750 -0.08400
C 	C 	0.61460 0.09450 0.61460 0.43100
C 	C 	0.64250 0.15360 0.64250 -0.11200
C 	C 	0.38540 0.90550 0.61460 0.41800
C 	C 	0.35750 0.84640 0.64250 -0.08400
C 	C 	0.38540 0.38540 0.09450 0.42900
C 	C 	0.35750 0.35750 0.15360 -0.12300
C 	C 	0.38540 0.61460 0.90550 0.41800
C 	C 	0.35750 0.64250 0.84640 -0.08400
C 	C 	0.61460 0.61460 0.09450 0.43100
C 	C 	0.64250 0.64250 0.15360 -0.11200
C 	C 	0.61460 0.38540 0.90550 0.41800
C 	C 	0.64250 0.35750 0.84640 -0.08400
C 	C 	0.09450 0.38540 0.38540 0.42900
C 	C 	0.15360 0.35750 0.35750 -0.12300
C 	C 	0.90550 0.38540 0.61460 0.41800
C 	C 	0.84640 0.35750 0.64250 -0.08400
C 	C 	0.09450 0.61460 0.61460 0.43100
C 	C 	0.15360 0.64250 0.64250 -0.11200
C 	C 	0.90550 0.61460 0.38540 0.41800
C 	C 	0.84640 0.64250 0.35750 -0.08400
C 	C 	0.09450 0.38540 0.61460 0.43000
C 	C 	0.15360 0.35750 0.64250 -0.11700
C 	C 	0.90550 0.61460 0.61460 0.41900
C 	C 	0.84640 0.64250 0.64250 -0.07800
C 	C 	0.09450 0.61460 0.38540 0.43000
C 	C 	0.15360 0.64250 0.35750 -0.11700
C 	C 	0.90550 0.38540 0.38540 0.41700
C 	C 	0.84640 0.35750 0.35750 -0.08900
C 	C 	0.38540 0.38540 0.90550 0.41700
C 	C 	0.35750 0.35750 0.84640 -0.08900
C 	C 	0.61460 0.38540 0.09450 0.43000
C 	C 	0.64250 0.35750 0.15360 -0.11700
C 	C 	0.61460 0.61460 0.90550 0.41900
C 	C 	0.64250 0.64250 0.84640 -0.07800
C 	C 	0.38540 0.61460 0.09450 0.43000
C 	C 	0.35750 0.64250 0.15360 -0.11700
C 	C 	0.38540 0.09450 0.61460 0.43000
C 	C 	0.35750 0.15360 0.64250 -0.11700
C 	C 	0.38540 0.90550 0.38540 0.41700
C 	C 	0.35750 0.84640 0.35750 -0.08900
C 	C 	0.61460 0.09450 0.38540 0.43000
C 	C 	0.64250 0.15360 0.35750 -0.11700
C 	C 	0.61460 0.90550 0.61460 0.41900
C 	C 	0.64250 0.84640 0.64250 -0.07800
