data_crystal

_cell_length_a 9.99200
_cell_length_b 11.64400
_cell_length_c 12.23100
_cell_angle_alpha 90.00000
_cell_angle_beta  90.00000
_cell_angle_gamma 90.00000

_symmetry_space_group_name_	'P 1'
_symmetry_space_group_name_H-M	'P 1'

loop_
_symmetry_equiv_pos_as_xyz
  x,y,z

loop_
_atom_site_label
_atom_site_type_symbol
_atom_site_fract_x
_atom_site_fract_y
_atom_site_fract_z
_atom_site_charge
O 	O 	0.03080 0.27510 0.15210 -0.71500
O 	O 	0.88000 0.12200 0.22230 -0.80000
O 	O 	0.23850 0.01950 0.10030 -0.92700
O 	O 	0.61200 0.11230 0.24160 -0.46500
O 	O 	0.96920 0.72490 0.15210 -0.53100
O 	O 	0.12000 0.87800 0.22230 -0.54500
O 	O 	0.76150 0.98050 0.10030 -0.41200
O 	O 	0.38800 0.88770 0.24160 -0.45100
O 	O 	0.96920 0.27510 0.34790 -0.56500
O 	O 	0.12000 0.12200 0.27770 -0.88500
O 	O 	0.76150 0.01950 0.39970 -0.89600
O 	O 	0.38800 0.11230 0.25840 -0.46100
O 	O 	0.03080 0.72490 0.34790 -0.65700
O 	O 	0.88000 0.87800 0.27770 -0.43800
O 	O 	0.23850 0.98050 0.39970 -0.42800
O 	O 	0.61200 0.88770 0.25840 -0.43900
O 	O 	0.96920 0.72490 0.84790 -0.41100
O 	O 	0.12000 0.87800 0.77770 -0.50300
O 	O 	0.76150 0.98050 0.89970 -0.25200
O 	O 	0.38800 0.88770 0.75840 -0.41000
O 	O 	0.03080 0.27510 0.84790 -0.59800
O 	O 	0.88000 0.12200 0.77770 -0.75900
O 	O 	0.23850 0.01950 0.89970 -0.77100
O 	O 	0.61200 0.11230 0.75840 -0.42400
O 	O 	0.03080 0.72490 0.65210 -0.64000
O 	O 	0.88000 0.87800 0.72230 -0.42000
O 	O 	0.23850 0.98050 0.60030 -0.42900
O 	O 	0.61200 0.88770 0.74160 -0.40800
O 	O 	0.96920 0.27510 0.65210 -0.54800
O 	O 	0.12000 0.12200 0.72230 -0.86900
O 	O 	0.76150 0.01950 0.60030 -0.89700
O 	O 	0.38800 0.11230 0.74160 -0.43000
Al	Al	0.04530 0.27510 -0.00000 2.37200
P 	P 	0.27420 0.08810 -0.00000 0.57800
O 	O 	0.21250 0.20680 -0.00000 -0.73800
O 	O 	0.14660 0.42160 -0.00000 -0.52000
O 	O 	0.88760 0.38630 -0.00000 -0.54900
O 	O 	0.43130 0.10930 -0.00000 -0.36600
C 	C 	0.07490 0.51020 -0.00000 0.12200
Al	Al	0.95470 0.72490 -0.00000 2.38300
P 	P 	0.72580 0.91190 -0.00000 0.54000
O 	O 	0.78750 0.79320 -0.00000 -0.67600
O 	O 	0.85340 0.57840 -0.00000 -0.54400
O 	O 	0.11240 0.61370 -0.00000 -0.54800
O 	O 	0.56870 0.89070 -0.00000 -0.10400
C 	C 	0.92510 0.48980 -0.00000 0.37000
Al	Al	0.95470 0.27510 0.50000 2.38500
P 	P 	0.72580 0.08810 0.50000 0.72200
O 	O 	0.78750 0.20680 0.50000 -0.66800
O 	O 	0.85340 0.42160 0.50000 -0.47800
O 	O 	0.11240 0.38630 0.50000 -0.52700
O 	O 	0.56870 0.10930 0.50000 -0.31700
C 	C 	0.92510 0.51020 0.50000 0.37200
Al	Al	0.04530 0.72490 0.50000 2.38300
P 	P 	0.27420 0.91190 0.50000 0.68200
O 	O 	0.21250 0.79320 0.50000 -0.64600
O 	O 	0.14660 0.57840 0.50000 -0.46600
O 	O 	0.88760 0.61370 0.50000 -0.43200
O 	O 	0.43130 0.89070 0.50000 -0.04200
C 	C 	0.07490 0.48980 0.50000 0.15600
Al	Al	0.76910 0.00000 0.25000 2.36300
Al	Al	0.23090 0.00000 0.25000 2.36300
Al	Al	0.23090 0.00000 0.75000 2.36200
Al	Al	0.76910 0.00000 0.75000 2.36200
P 	P 	0.00000 0.19770 0.25000 0.61100
P 	P 	-0.00000 0.80230 0.25000 0.58300
P 	P 	-0.00000 0.80230 0.75000 0.58200
P 	P 	0.00000 0.19770 0.75000 0.61000
C 	C 	0.50000 0.06590 0.25000 -0.20900
C 	C 	0.50000 0.93410 0.25000 0.74700
C 	C 	0.50000 0.93410 0.75000 0.76200
C 	C 	0.50000 0.06590 0.75000 -0.19600
