data_crystal

_cell_length_a 15.35600
_cell_length_b 15.35600
_cell_length_c 12.61700
_cell_angle_alpha 90.00000
_cell_angle_beta  90.00000
_cell_angle_gamma 120.00000

_symmetry_space_group_name_	'P 1'
_symmetry_space_group_name_H-M	'P 1'

loop_
_symmetry_equiv_pos_as_xyz
  x,y,z

loop_
_atom_site_label
_atom_site_type_symbol
_atom_site_fract_x
_atom_site_fract_y
_atom_site_fract_z
_atom_site_charge
Zn	Zn	0.64760 0.68280 0.99320 1.15800
Zn	Zn	0.77170 0.93160 0.19440 1.19700
P 	P 	0.56530 0.73940 0.18130 0.53000
P 	P 	0.84390 0.77410 0.12990 0.56000
O 	O 	0.79300 0.75200 0.02200 -0.31900
O 	O 	0.78300 0.69000 0.20800 -0.46700
O 	O 	0.54700 0.65500 0.10100 -0.41700
O 	O 	0.60800 0.72600 0.28700 -0.48400
O 	O 	0.64000 0.84000 0.13400 -0.47000
O 	O 	0.94600 0.78500 0.10900 -0.37000
O 	O 	0.86000 0.87100 0.17700 -0.48700
O 	O 	0.47000 0.74100 0.20600 -0.43600
Zn	Zn	0.31427 0.01613 0.32653 1.22200
Zn	Zn	0.43837 0.26493 0.52773 1.18500
P 	P 	0.23197 0.07273 0.51463 0.52000
P 	P 	0.51057 0.10743 0.46323 0.56600
O 	O 	0.45967 0.08533 0.35533 -0.42700
O 	O 	0.44967 0.02333 0.54133 -0.50600
O 	O 	0.21367 0.98833 0.43433 -0.51000
O 	O 	0.27467 0.05933 0.62033 -0.51500
O 	O 	0.30667 0.17333 0.46733 -0.52800
O 	O 	0.61267 0.11833 0.44233 -0.44400
O 	O 	0.52667 0.20433 0.51033 -0.52000
O 	O 	0.13667 0.07433 0.53933 -0.49700
Zn	Zn	0.98093 0.34947 0.65987 1.23900
Zn	Zn	0.10503 0.59827 0.86107 1.14800
P 	P 	0.89863 0.40607 0.84797 0.53200
P 	P 	0.17723 0.44077 0.79657 0.56800
O 	O 	0.12633 0.41867 0.68867 -0.47900
O 	O 	0.11633 0.35667 0.87467 -0.59500
O 	O 	0.88033 0.32167 0.76767 -0.52000
O 	O 	0.94133 0.39267 0.95367 -0.53700
O 	O 	0.97333 0.50667 0.80067 -0.50900
O 	O 	0.27933 0.45167 0.77567 -0.47800
O 	O 	0.19333 0.53767 0.84367 -0.57400
O 	O 	0.80333 0.40767 0.87267 -0.49700
Zn	Zn	0.31720 0.96480 0.99320 1.16100
Zn	Zn	0.06840 0.84010 0.19440 1.17500
P 	P 	0.26060 0.82590 0.18130 0.53100
P 	P 	0.22590 0.06980 0.12990 0.54900
O 	O 	0.24800 0.04100 0.02200 -0.34300
O 	O 	0.31000 0.09300 0.20800 -0.47700
O 	O 	0.34500 0.89200 0.10100 -0.41200
O 	O 	0.27400 0.88200 0.28700 -0.48600
O 	O 	0.16000 0.80000 0.13400 -0.49100
O 	O 	0.21500 0.16100 0.10900 -0.41300
O 	O 	0.12900 0.98900 0.17700 -0.51200
O 	O 	0.25900 0.72900 0.20600 -0.44500
Zn	Zn	0.98387 0.29813 0.32653 1.25100
Zn	Zn	0.73507 0.17343 0.52773 1.18500
P 	P 	0.92727 0.15923 0.51463 0.58200
P 	P 	0.89257 0.40313 0.46323 0.56500
O 	O 	0.91467 0.37433 0.35533 -0.40500
O 	O 	0.97667 0.42633 0.54133 -0.47300
O 	O 	0.01167 0.22533 0.43433 -0.58300
O 	O 	0.94067 0.21533 0.62033 -0.48900
O 	O 	0.82667 0.13333 0.46733 -0.52900
O 	O 	0.88167 0.49433 0.44233 -0.42900
O 	O 	0.79567 0.32233 0.51033 -0.51900
O 	O 	0.92567 0.06233 0.53933 -0.45200
Zn	Zn	0.65053 0.63147 0.65987 1.22500
Zn	Zn	0.40173 0.50677 0.86107 1.16500
P 	P 	0.59393 0.49257 0.84797 0.53200
P 	P 	0.55923 0.73647 0.79657 0.56800
O 	O 	0.58133 0.70767 0.68867 -0.44300
O 	O 	0.64333 0.75967 0.87467 -0.56500
O 	O 	0.67833 0.55867 0.76767 -0.52700
O 	O 	0.60733 0.54867 0.95367 -0.57300
O 	O 	0.49333 0.46667 0.80067 -0.54800
O 	O 	0.54833 0.82767 0.77567 -0.47000
O 	O 	0.46233 0.65567 0.84367 -0.56300
O 	O 	0.59233 0.39567 0.87267 -0.50100
Zn	Zn	0.03520 0.35240 0.99320 1.13500
Zn	Zn	0.15990 0.22830 0.19440 1.18800
P 	P 	0.17410 0.43470 0.18130 0.53000
P 	P 	0.93020 0.15610 0.12990 0.61400
O 	O 	0.95900 0.20700 0.02200 -0.30600
O 	O 	0.90700 0.21700 0.20800 -0.46200
O 	O 	0.10800 0.45300 0.10100 -0.44100
O 	O 	0.11800 0.39200 0.28700 -0.51300
O 	O 	0.20000 0.36000 0.13400 -0.48200
O 	O 	0.83900 0.05400 0.10900 -0.41200
O 	O 	0.01100 0.14000 0.17700 -0.57300
O 	O 	0.27100 0.53000 0.20600 -0.44100
Zn	Zn	0.70187 0.68573 0.32653 1.22800
Zn	Zn	0.82657 0.56163 0.52773 1.18800
P 	P 	0.84077 0.76803 0.51463 0.52900
P 	P 	0.59687 0.48943 0.46323 0.56600
O 	O 	0.62567 0.54033 0.35533 -0.42200
O 	O 	0.57367 0.55033 0.54133 -0.50100
O 	O 	0.77467 0.78633 0.43433 -0.50600
O 	O 	0.78467 0.72533 0.62033 -0.49700
O 	O 	0.86667 0.69333 0.46733 -0.51100
O 	O 	0.50567 0.38733 0.44233 -0.44300
O 	O 	0.67767 0.47333 0.51033 -0.51900
O 	O 	0.93767 0.86333 0.53933 -0.43400
Zn	Zn	0.36853 0.01907 0.65987 1.22200
Zn	Zn	0.49323 0.89497 0.86107 1.16800
P 	P 	0.50743 0.10137 0.84797 0.53200
P 	P 	0.26353 0.82277 0.79657 0.56900
O 	O 	0.29233 0.87367 0.68867 -0.44600
O 	O 	0.24033 0.88367 0.87467 -0.57600
O 	O 	0.44133 0.11967 0.76767 -0.53400
O 	O 	0.45133 0.05867 0.95367 -0.57700
O 	O 	0.53333 0.02667 0.80067 -0.54900
O 	O 	0.17233 0.72067 0.77567 -0.49400
O 	O 	0.34433 0.80667 0.84367 -0.56300
O 	O 	0.60433 0.19667 0.87267 -0.50100
Zn	Zn	0.33333 0.66667 0.15210 1.21000
Zn	Zn	-0.00000 0.00000 0.48543 1.15900
Zn	Zn	0.66667 0.33333 0.81877 1.18500
