data_crystal

_cell_length_a 10.36100
_cell_length_b 10.39000
_cell_length_c 9.13500
_cell_angle_alpha 90.00000
_cell_angle_beta  90.00000
_cell_angle_gamma 90.00000

_symmetry_space_group_name_	'P 1'
_symmetry_space_group_name_H-M	'P 1'

loop_
_symmetry_equiv_pos_as_xyz
  x,y,z

loop_
_atom_site_label
_atom_site_type_symbol
_atom_site_fract_x
_atom_site_fract_y
_atom_site_fract_z
_atom_site_charge
Fe	Fe	0.87730 0.37740 0.15740 1.26900
P 	P 	0.10010 0.59950 0.19610 0.73900
O 	O 	0.00100 0.50120 0.24320 -0.37200
O 	O 	0.06200 0.65290 0.04370 -0.29100
O 	O 	0.84900 0.43850 0.95730 -0.29500
O 	O 	0.05770 0.73490 0.20500 -0.21900
O 	O 	0.92500 0.20580 0.18760 -0.29500
O 	O 	0.20680 0.58000 0.31450 -0.30300
O 	O 	0.73150 0.44220 0.29500 -0.23100
Fe	Fe	0.62270 0.12260 0.15740 1.26900
P 	P 	0.39990 0.90050 0.19610 0.73800
O 	O 	0.49900 0.99880 0.24320 -0.37200
O 	O 	0.43800 0.84710 0.04370 -0.29300
O 	O 	0.65100 0.06150 0.95730 -0.29300
O 	O 	0.44230 0.76510 0.20500 -0.22100
O 	O 	0.57500 0.29420 0.18760 -0.29400
O 	O 	0.29320 0.92000 0.31450 -0.30300
O 	O 	0.76850 0.05780 0.29500 -0.23100
Fe	Fe	0.12270 0.87740 0.34260 1.27300
P 	P 	0.89990 0.09950 0.30390 0.74100
O 	O 	0.99900 0.00120 0.25680 -0.37700
O 	O 	0.93800 0.15290 0.45630 -0.29400
O 	O 	0.15100 0.93850 0.54270 -0.29600
O 	O 	0.94230 0.23490 0.29500 -0.22100
O 	O 	0.07500 0.70580 0.31240 -0.29300
O 	O 	0.79320 0.08000 0.18550 -0.30600
O 	O 	0.26850 0.94220 0.20500 -0.22900
Fe	Fe	0.37730 0.62260 0.34260 1.27200
P 	P 	0.60010 0.40050 0.30390 0.74000
O 	O 	0.50100 0.49880 0.25680 -0.37300
O 	O 	0.56200 0.34710 0.45630 -0.29400
O 	O 	0.34900 0.56150 0.54270 -0.29700
O 	O 	0.55770 0.26510 0.29500 -0.22100
O 	O 	0.42500 0.79420 0.31240 -0.29300
O 	O 	0.70680 0.42000 0.18550 -0.30400
O 	O 	0.23150 0.55780 0.20500 -0.23000
Fe	Fe	0.12270 0.62260 0.84260 1.26900
P 	P 	0.89990 0.40050 0.80390 0.73900
O 	O 	0.99900 0.49880 0.75680 -0.37200
O 	O 	0.93800 0.34710 0.95630 -0.29100
O 	O 	0.15100 0.56150 0.04270 -0.29500
O 	O 	0.94230 0.26510 0.79500 -0.21900
O 	O 	0.07500 0.79420 0.81240 -0.29500
O 	O 	0.79320 0.42000 0.68550 -0.30300
O 	O 	0.26850 0.55780 0.70500 -0.23100
Fe	Fe	0.37730 0.87740 0.84260 1.26900
P 	P 	0.60010 0.09950 0.80390 0.73800
O 	O 	0.50100 0.00120 0.75680 -0.37200
O 	O 	0.56200 0.15290 0.95630 -0.29300
O 	O 	0.34900 0.93850 0.04270 -0.29300
O 	O 	0.55770 0.23490 0.79500 -0.22100
O 	O 	0.42500 0.70580 0.81240 -0.29400
O 	O 	0.70680 0.08000 0.68550 -0.30300
O 	O 	0.23150 0.94220 0.70500 -0.23100
Fe	Fe	0.87730 0.12260 0.65740 1.27300
P 	P 	0.10010 0.90050 0.69610 0.74100
O 	O 	0.00100 0.99880 0.74320 -0.37700
O 	O 	0.06200 0.84710 0.54370 -0.29400
O 	O 	0.84900 0.06150 0.45730 -0.29600
O 	O 	0.05770 0.76510 0.70500 -0.22100
O 	O 	0.92500 0.29420 0.68760 -0.29300
O 	O 	0.20680 0.92000 0.81450 -0.30600
O 	O 	0.73150 0.05780 0.79500 -0.22900
Fe	Fe	0.62270 0.37740 0.65740 1.27200
P 	P 	0.39990 0.59950 0.69610 0.74000
O 	O 	0.49900 0.50120 0.74320 -0.37300
O 	O 	0.43800 0.65290 0.54370 -0.29400
O 	O 	0.65100 0.43850 0.45730 -0.29700
O 	O 	0.44230 0.73490 0.70500 -0.22100
O 	O 	0.57500 0.20580 0.68760 -0.29300
O 	O 	0.29320 0.58000 0.81450 -0.30400
O 	O 	0.76850 0.44220 0.79500 -0.23000
