data_crystal

_cell_length_a 12.05700
_cell_length_b 24.89100
_cell_length_c 12.38000
_cell_angle_alpha 90.00000
_cell_angle_beta  93.04000
_cell_angle_gamma 90.00000

_symmetry_space_group_name_	'P 1'
_symmetry_space_group_name_H-M	'P 1'

loop_
_symmetry_equiv_pos_as_xyz
  x,y,z

loop_
_atom_site_label
_atom_site_type_symbol
_atom_site_fract_x
_atom_site_fract_y
_atom_site_fract_z
_atom_site_charge
Cu	Cu	0.67730 0.67300 0.75880 0.73600
Cu	Cu	0.67850 0.76180 0.89300 0.74100
Cu	Cu	0.85110 0.75230 0.74300 0.75200
Cu	Cu	0.85640 0.67880 0.92300 0.74600
Cu	Cu	0.82550 0.41910 0.38840 0.72900
Cu	Cu	0.64880 0.43120 0.24330 0.74100
Cu	Cu	0.66550 0.50250 0.42190 0.74700
Cu	Cu	0.81660 0.51140 0.26040 0.74300
I 	I 	0.87910 0.64380 0.71720 -0.57200
I 	I 	0.89680 0.78450 0.94690 -0.55900
I 	I 	0.63400 0.77360 0.68410 -0.57400
I 	I 	0.65290 0.66350 0.98170 -0.56400
I 	I 	0.61110 0.39970 0.44590 -0.54800
I 	I 	0.86100 0.41280 0.18010 -0.56500
I 	I 	0.88540 0.51510 0.47160 -0.55400
I 	I 	0.59830 0.53650 0.22350 -0.55100
S 	S 	0.53100 0.62160 0.68380 -0.23500
S 	S 	0.57010 0.81780 0.99480 -0.21700
S 	S 	0.07400 0.85350 0.51210 -0.21500
S 	S 	0.99190 0.62850 0.02060 -0.22000
N 	N 	0.89100 0.56250 0.17100 -0.26600
N 	N 	0.44600 0.88440 0.84800 -0.25700
N 	N 	0.94600 0.79300 0.65300 -0.25500
N 	N 	0.60200 0.55100 0.53000 -0.26600
C 	C 	0.93400 0.58700 0.10800 0.12700
C 	C 	0.49800 0.85600 0.90600 0.11000
C 	C 	0.00100 0.82080 0.59700 0.10500
C 	C 	0.57500 0.57900 0.59300 0.14000
Cu	Cu	0.32270 0.17300 0.24120 0.73500
Cu	Cu	0.32150 0.26180 0.10700 0.74000
Cu	Cu	0.14890 0.25230 0.25700 0.75200
Cu	Cu	0.14360 0.17880 0.07700 0.74600
Cu	Cu	0.17450 0.91910 0.61160 0.72900
Cu	Cu	0.35120 0.93120 0.75670 0.74100
Cu	Cu	0.33450 0.00250 0.57810 0.74700
Cu	Cu	0.18340 0.01140 0.73960 0.74300
I 	I 	0.12090 0.14380 0.28280 -0.57200
I 	I 	0.10320 0.28450 0.05310 -0.55900
I 	I 	0.36600 0.27360 0.31590 -0.57400
I 	I 	0.34710 0.16350 0.01830 -0.56400
I 	I 	0.38890 0.89970 0.55410 -0.54700
I 	I 	0.13900 0.91280 0.81990 -0.56400
I 	I 	0.11460 0.01510 0.52840 -0.55300
I 	I 	0.40170 0.03650 0.77650 -0.55000
S 	S 	0.46900 0.12160 0.31620 -0.23500
S 	S 	0.42990 0.31780 0.00520 -0.21700
S 	S 	0.92600 0.35350 0.48790 -0.21600
S 	S 	0.00810 0.12850 0.97940 -0.22000
N 	N 	0.10900 0.06250 0.82900 -0.26600
N 	N 	0.55400 0.38440 0.15200 -0.25700
N 	N 	0.05400 0.29300 0.34700 -0.25500
N 	N 	0.39800 0.05100 0.47000 -0.26600
C 	C 	0.06600 0.08700 0.89200 0.12800
C 	C 	0.50200 0.35600 0.09400 0.11000
C 	C 	0.99900 0.32080 0.40300 0.10500
C 	C 	0.42500 0.07900 0.40700 0.14000
