data_crystal

_cell_length_a 14.15400
_cell_length_b 16.25110
_cell_length_c 19.14950
_cell_angle_alpha 90.00000
_cell_angle_beta  90.00000
_cell_angle_gamma 90.00000

_symmetry_space_group_name_	'P 1'
_symmetry_space_group_name_H-M	'P 1'

loop_
_symmetry_equiv_pos_as_xyz
  x,y,z

loop_
_atom_site_label
_atom_site_type_symbol
_atom_site_fract_x
_atom_site_fract_y
_atom_site_fract_z
_atom_site_charge
Mg	Mg	0.52244 0.20883 0.45571 1.46200
Mg	Mg	0.31033 0.24077 0.56445 1.47400
O 	O 	0.41687 0.29808 0.47764 -0.59500
O 	O 	0.37632 0.72795 0.48848 -0.55600
O 	O 	0.55810 0.26133 0.36353 -0.57300
O 	O 	0.48032 0.34735 0.04580 -0.59600
O 	O 	0.24223 0.65897 0.49812 -0.54600
O 	O 	0.30585 0.35986 0.53605 -0.51700
O 	O 	0.41234 0.28004 0.13126 -0.53400
O 	O 	0.71388 0.26567 0.36504 -0.58900
C 	C 	0.32851 0.66432 0.48080 0.47000
C 	C 	0.37347 0.58916 0.45136 -0.21700
C 	C 	0.34965 0.51289 0.47910 0.13700
H 	H 	0.30300 0.50950 0.51310 -0.00300
C 	C 	0.39448 0.44202 0.45675 -0.20600
C 	C 	0.46088 0.44701 0.40416 0.11400
H 	H 	0.49070 0.39950 0.38840 -0.00100
C 	C 	0.48320 0.52204 0.37491 -0.18600
H 	H 	0.52640 0.52480 0.33840 0.09300
C 	C 	0.44153 0.59321 0.39957 0.12000
H 	H 	0.45930 0.64400 0.38130 -0.00800
C 	C 	0.63562 0.27793 0.33674 0.52900
C 	C 	0.55958 0.30679 0.22189 0.17400
H 	H 	0.50530 0.28110 0.23840 -0.00700
C 	C 	0.63692 0.31429 0.26511 -0.25300
C 	C 	0.71650 0.35400 0.24013 0.16100
H 	H 	0.76990 0.35780 0.26820 -0.01700
C 	C 	0.47952 0.32084 0.10711 0.46600
C 	C 	0.56121 0.33673 0.15445 -0.23900
C 	C 	0.64030 0.37860 0.13105 0.15500
H 	H 	0.64130 0.40050 0.08620 -0.03400
C 	C 	0.37196 0.36227 0.49132 0.43600
C 	C 	0.71750 0.38780 0.17427 -0.23100
H 	H 	0.77020 0.41680 0.15890 0.11300
Mg	Mg	0.97756 0.79117 0.95571 1.46200
Mg	Mg	0.18967 0.75923 0.06445 1.47400
O 	O 	0.08313 0.70192 0.97764 -0.59100
O 	O 	0.12368 0.27205 0.98848 -0.55300
O 	O 	0.94190 0.73867 0.86353 -0.57700
O 	O 	0.01968 0.65265 0.54580 -0.59600
O 	O 	0.25777 0.34103 0.99812 -0.54500
O 	O 	0.19415 0.64014 0.03605 -0.52200
O 	O 	0.08766 0.71996 0.63126 -0.53300
O 	O 	0.78612 0.73433 0.86504 -0.59100
C 	C 	0.17149 0.33568 0.98080 0.47000
C 	C 	0.12653 0.41084 0.95136 -0.21700
C 	C 	0.15035 0.48711 0.97910 0.14500
H 	H 	0.19700 0.49050 0.01310 -0.00900
C 	C 	0.10552 0.55798 0.95675 -0.20600
C 	C 	0.03912 0.55299 0.90416 0.10800
H 	H 	0.00930 0.60050 0.88840 0.00300
C 	C 	0.01680 0.47796 0.87491 -0.17100
H 	H 	0.97360 0.47520 0.83840 0.08400
C 	C 	0.05847 0.40679 0.89957 0.11400
H 	H 	0.04070 0.35600 0.88130 -0.00500
C 	C 	0.86438 0.72207 0.83674 0.53000
C 	C 	0.94042 0.69321 0.72189 0.17700
H 	H 	0.99470 0.71890 0.73840 -0.00900
C 	C 	0.86308 0.68571 0.76511 -0.25700
C 	C 	0.78350 0.64600 0.74013 0.16400
H 	H 	0.73010 0.64220 0.76820 -0.01900
C 	C 	0.02048 0.67916 0.60711 0.47100
C 	C 	0.93879 0.66327 0.65445 -0.24400
C 	C 	0.85970 0.62140 0.63105 0.15900
H 	H 	0.85870 0.59950 0.58620 -0.03600
C 	C 	0.12804 0.63773 0.99132 0.44200
C 	C 	0.78250 0.61220 0.67427 -0.23500
H 	H 	0.72980 0.58320 0.65890 0.11400
Mg	Mg	0.47756 0.70883 0.04429 1.46300
Mg	Mg	0.68967 0.74077 0.93555 1.47500
O 	O 	0.58313 0.79808 0.02236 -0.59500
O 	O 	0.62368 0.22795 0.01152 -0.55400
O 	O 	0.44190 0.76133 0.13647 -0.57300
O 	O 	0.51968 0.84735 0.45420 -0.59600
O 	O 	0.75777 0.15897 0.00188 -0.54400
O 	O 	0.69415 0.85986 0.96395 -0.52100
O 	O 	0.58766 0.78004 0.36874 -0.53300
O 	O 	0.28612 0.76567 0.13496 -0.59000
C 	C 	0.67149 0.16432 0.01920 0.47200
C 	C 	0.62653 0.08916 0.04864 -0.22100
C 	C 	0.65035 0.01289 0.02090 0.14700
H 	H 	0.69700 0.00950 0.98690 -0.00700
C 	C 	0.60552 0.94202 0.04325 -0.21200
C 	C 	0.53912 0.94701 0.09584 0.11800
H 	H 	0.50930 0.89950 0.11160 -0.00300
C 	C 	0.51680 0.02204 0.12509 -0.19000
H 	H 	0.47360 0.02480 0.16160 0.09400
C 	C 	0.55847 0.09321 0.10043 0.12400
H 	H 	0.54070 0.14400 0.11870 -0.00900
C 	C 	0.36438 0.77793 0.16326 0.52900
C 	C 	0.44042 0.80679 0.27811 0.17400
H 	H 	0.49470 0.78110 0.26160 -0.00700
C 	C 	0.36308 0.81429 0.23489 -0.25400
C 	C 	0.28350 0.85400 0.25987 0.16100
H 	H 	0.23010 0.85780 0.23180 -0.01800
C 	C 	0.52048 0.82084 0.39289 0.46600
C 	C 	0.43879 0.83673 0.34555 -0.23900
C 	C 	0.35970 0.87860 0.36895 0.15600
H 	H 	0.35870 0.90050 0.41380 -0.03500
C 	C 	0.62804 0.86227 0.00868 0.44200
C 	C 	0.28250 0.88780 0.32573 -0.23200
H 	H 	0.22980 0.91680 0.34110 0.11300
Mg	Mg	0.02244 0.29117 0.54429 1.46300
Mg	Mg	0.81033 0.25923 0.43555 1.47500
O 	O 	0.91687 0.20192 0.52236 -0.59400
O 	O 	0.87632 0.77205 0.51152 -0.55600
O 	O 	0.05810 0.23867 0.63647 -0.57200
O 	O 	0.98032 0.15265 0.95420 -0.59700
O 	O 	0.74223 0.84103 0.50188 -0.54700
O 	O 	0.80585 0.14014 0.46395 -0.51700
O 	O 	0.91234 0.21996 0.86874 -0.53400
O 	O 	0.21388 0.23433 0.63496 -0.58900
C 	C 	0.82851 0.83568 0.51920 0.47300
C 	C 	0.87347 0.91084 0.54864 -0.22600
C 	C 	0.84965 0.98711 0.52090 0.14200
H 	H 	0.80300 0.99050 0.48690 -0.00500
C 	C 	0.89448 0.05798 0.54325 -0.21300
C 	C 	0.96088 0.05299 0.59584 0.13600
H 	H 	0.99070 0.10050 0.61160 -0.00800
C 	C 	0.98320 0.97796 0.62509 -0.21700
H 	H 	0.02640 0.97520 0.66160 0.10800
C 	C 	0.94153 0.90679 0.60043 0.13800
H 	H 	0.95930 0.85600 0.61870 -0.01500
C 	C 	0.13562 0.22207 0.66326 0.52800
C 	C 	0.05958 0.19321 0.77811 0.17100
H 	H 	0.00530 0.21890 0.76160 -0.00500
C 	C 	0.13692 0.18571 0.73489 -0.25100
C 	C 	0.21650 0.14600 0.75987 0.15800
H 	H 	0.26990 0.14220 0.73180 -0.01700
C 	C 	0.97952 0.17916 0.89289 0.46300
C 	C 	0.06121 0.16327 0.84555 -0.23400
C 	C 	0.14030 0.12140 0.86895 0.15200
H 	H 	0.14130 0.09950 0.91380 -0.03300
C 	C 	0.87196 0.13773 0.50868 0.44000
C 	C 	0.21750 0.11220 0.82573 -0.22900
H 	H 	0.27020 0.08320 0.84110 0.11200
Mg	Mg	0.47756 0.79117 0.54429 1.46300
Mg	Mg	0.68967 0.75923 0.43555 1.47500
O 	O 	0.58313 0.70192 0.52236 -0.59400
O 	O 	0.62368 0.27205 0.51152 -0.55500
O 	O 	0.44190 0.73867 0.63647 -0.57300
O 	O 	0.51968 0.65265 0.95420 -0.59600
O 	O 	0.75777 0.34103 0.50188 -0.54600
O 	O 	0.69415 0.64014 0.46395 -0.51700
O 	O 	0.58766 0.71996 0.86874 -0.53400
O 	O 	0.28612 0.73433 0.63496 -0.58900
C 	C 	0.67149 0.33568 0.51920 0.47000
C 	C 	0.62653 0.41084 0.54864 -0.21700
C 	C 	0.65035 0.48711 0.52090 0.13700
H 	H 	0.69700 0.49050 0.48690 -0.00300
C 	C 	0.60552 0.55798 0.54325 -0.20600
C 	C 	0.53912 0.55299 0.59584 0.11400
H 	H 	0.50930 0.60050 0.61160 -0.00100
C 	C 	0.51680 0.47796 0.62509 -0.18600
H 	H 	0.47360 0.47520 0.66160 0.09300
C 	C 	0.55847 0.40679 0.60043 0.12000
H 	H 	0.54070 0.35600 0.61870 -0.00800
C 	C 	0.36438 0.72207 0.66326 0.52900
C 	C 	0.44042 0.69321 0.77811 0.17400
H 	H 	0.49470 0.71890 0.76160 -0.00700
C 	C 	0.36308 0.68571 0.73489 -0.25300
C 	C 	0.28350 0.64600 0.75987 0.16100
H 	H 	0.23010 0.64220 0.73180 -0.01700
C 	C 	0.52048 0.67916 0.89289 0.46600
C 	C 	0.43879 0.66327 0.84555 -0.23900
C 	C 	0.35970 0.62140 0.86895 0.15500
H 	H 	0.35870 0.59950 0.91380 -0.03400
C 	C 	0.62804 0.63773 0.50868 0.43600
C 	C 	0.28250 0.61220 0.82573 -0.23100
H 	H 	0.22980 0.58320 0.84110 0.11300
Mg	Mg	0.02244 0.20883 0.04429 1.46200
Mg	Mg	0.81033 0.24077 0.93555 1.47400
O 	O 	0.91687 0.29808 0.02236 -0.59100
O 	O 	0.87632 0.72795 0.01152 -0.55300
O 	O 	0.05810 0.26133 0.13647 -0.57700
O 	O 	0.98032 0.34735 0.45420 -0.59600
O 	O 	0.74223 0.65897 0.00188 -0.54500
O 	O 	0.80585 0.35986 0.96395 -0.52200
O 	O 	0.91234 0.28004 0.36874 -0.53300
O 	O 	0.21388 0.26567 0.13496 -0.59100
C 	C 	0.82851 0.66432 0.01920 0.47000
C 	C 	0.87347 0.58916 0.04864 -0.21700
C 	C 	0.84965 0.51289 0.02090 0.14500
H 	H 	0.80300 0.50950 0.98690 -0.00900
C 	C 	0.89448 0.44202 0.04325 -0.20600
C 	C 	0.96088 0.44701 0.09584 0.10800
H 	H 	0.99070 0.39950 0.11160 0.00300
C 	C 	0.98320 0.52204 0.12509 -0.17100
H 	H 	0.02640 0.52480 0.16160 0.08400
C 	C 	0.94153 0.59321 0.10043 0.11400
H 	H 	0.95930 0.64400 0.11870 -0.00500
C 	C 	0.13562 0.27793 0.16326 0.53000
C 	C 	0.05958 0.30679 0.27811 0.17700
H 	H 	0.00530 0.28110 0.26160 -0.00900
C 	C 	0.13692 0.31429 0.23489 -0.25700
C 	C 	0.21650 0.35400 0.25987 0.16400
H 	H 	0.26990 0.35780 0.23180 -0.01900
C 	C 	0.97952 0.32084 0.39289 0.47100
C 	C 	0.06121 0.33673 0.34555 -0.24400
C 	C 	0.14030 0.37860 0.36895 0.15900
H 	H 	0.14130 0.40050 0.41380 -0.03600
C 	C 	0.87196 0.36227 0.00868 0.44200
C 	C 	0.21750 0.38780 0.32573 -0.23500
H 	H 	0.27020 0.41680 0.34110 0.11400
Mg	Mg	0.52244 0.29117 0.95571 1.46300
Mg	Mg	0.31033 0.25923 0.06445 1.47500
O 	O 	0.41687 0.20192 0.97764 -0.59500
O 	O 	0.37632 0.77205 0.98848 -0.55400
O 	O 	0.55810 0.23867 0.86353 -0.57300
O 	O 	0.48032 0.15265 0.54580 -0.59600
O 	O 	0.24223 0.84103 0.99812 -0.54400
O 	O 	0.30585 0.14014 0.03605 -0.52100
O 	O 	0.41234 0.21996 0.63126 -0.53300
O 	O 	0.71388 0.23433 0.86504 -0.59000
C 	C 	0.32851 0.83568 0.98080 0.47200
C 	C 	0.37347 0.91084 0.95136 -0.22100
C 	C 	0.34965 0.98711 0.97910 0.14700
H 	H 	0.30300 0.99050 0.01310 -0.00700
C 	C 	0.39448 0.05798 0.95675 -0.21200
C 	C 	0.46088 0.05299 0.90416 0.11800
H 	H 	0.49070 0.10050 0.88840 -0.00300
C 	C 	0.48320 0.97796 0.87491 -0.19000
H 	H 	0.52640 0.97520 0.83840 0.09400
C 	C 	0.44153 0.90679 0.89957 0.12400
H 	H 	0.45930 0.85600 0.88130 -0.00900
C 	C 	0.63562 0.22207 0.83674 0.52900
C 	C 	0.55958 0.19321 0.72189 0.17400
H 	H 	0.50530 0.21890 0.73840 -0.00700
C 	C 	0.63692 0.18571 0.76511 -0.25400
C 	C 	0.71650 0.14600 0.74013 0.16100
H 	H 	0.76990 0.14220 0.76820 -0.01800
C 	C 	0.47952 0.17916 0.60711 0.46600
C 	C 	0.56121 0.16327 0.65445 -0.23900
C 	C 	0.64030 0.12140 0.63105 0.15600
H 	H 	0.64130 0.09950 0.58620 -0.03500
C 	C 	0.37196 0.13773 0.99132 0.44200
C 	C 	0.71750 0.11220 0.67427 -0.23200
H 	H 	0.77020 0.08320 0.65890 0.11300
Mg	Mg	0.97756 0.70883 0.45571 1.46300
Mg	Mg	0.18967 0.74077 0.56445 1.47500
O 	O 	0.08313 0.79808 0.47764 -0.59400
O 	O 	0.12368 0.22795 0.48848 -0.55600
O 	O 	0.94190 0.76133 0.36353 -0.57200
O 	O 	0.01968 0.84735 0.04580 -0.59700
O 	O 	0.25777 0.15897 0.49812 -0.54700
O 	O 	0.19415 0.85986 0.53605 -0.51700
O 	O 	0.08766 0.78004 0.13126 -0.53400
O 	O 	0.78612 0.76567 0.36504 -0.58900
C 	C 	0.17149 0.16432 0.48080 0.47300
C 	C 	0.12653 0.08916 0.45136 -0.22600
C 	C 	0.15035 0.01289 0.47910 0.14200
H 	H 	0.19700 0.00950 0.51310 -0.00500
C 	C 	0.10552 0.94202 0.45675 -0.21300
C 	C 	0.03912 0.94701 0.40416 0.13600
H 	H 	0.00930 0.89950 0.38840 -0.00800
C 	C 	0.01680 0.02204 0.37491 -0.21700
H 	H 	0.97360 0.02480 0.33840 0.10800
C 	C 	0.05847 0.09321 0.39957 0.13800
H 	H 	0.04070 0.14400 0.38130 -0.01500
C 	C 	0.86438 0.77793 0.33674 0.52800
C 	C 	0.94042 0.80679 0.22189 0.17100
H 	H 	0.99470 0.78110 0.23840 -0.00500
C 	C 	0.86308 0.81429 0.26511 -0.25100
C 	C 	0.78350 0.85400 0.24013 0.15800
H 	H 	0.73010 0.85780 0.26820 -0.01700
C 	C 	0.02048 0.82084 0.10711 0.46300
C 	C 	0.93879 0.83673 0.15445 -0.23400
C 	C 	0.85970 0.87860 0.13105 0.15200
H 	H 	0.85870 0.90050 0.08620 -0.03300
C 	C 	0.12804 0.86227 0.49132 0.44000
C 	C 	0.78250 0.88780 0.17427 -0.22900
H 	H 	0.72980 0.91680 0.15890 0.11200
