data_crystal

_cell_length_a 16.26630
_cell_length_b 16.53970
_cell_length_c 16.53970
_cell_angle_alpha 76.00700
_cell_angle_beta  60.54530
_cell_angle_gamma 60.54530

_symmetry_space_group_name_	'P 1'
_symmetry_space_group_name_H-M	'P 1'

loop_
_symmetry_equiv_pos_as_xyz
  x,y,z

loop_
_atom_site_label
_atom_site_type_symbol
_atom_site_fract_x
_atom_site_fract_y
_atom_site_fract_z
_atom_site_charge
Sm	Sm	0.23817 0.87848 0.46942 1.76000
Sm	Sm	0.51265 0.52266 0.11400 1.91100
Sm	Sm	0.08607 0.62152 0.03058 1.74100
Sm	Sm	0.64931 0.97734 0.38600 1.90800
Sm	Sm	0.70759 0.53058 0.37848 1.76200
Sm	Sm	0.62665 0.88600 0.02266 1.90400
Sm	Sm	0.11665 0.96942 0.12152 1.73300
Sm	Sm	0.03531 0.61400 0.47734 1.90600
Sm	Sm	0.76183 0.12152 0.53058 1.76100
Sm	Sm	0.48735 0.47734 0.88600 1.91200
Sm	Sm	0.91393 0.37848 0.96942 1.74200
Sm	Sm	0.35069 0.02266 0.61400 1.90900
Sm	Sm	0.29241 0.46942 0.62152 1.76300
Sm	Sm	0.37335 0.11400 0.97734 1.90500
Sm	Sm	0.88335 0.03058 0.87848 1.73300
Sm	Sm	0.96469 0.38600 0.52266 1.90600
H 	H 	0.30670 0.75150 0.25250 -0.04700
H 	H 	0.36540 0.89920 0.21760 -0.05900
H 	H 	0.81070 0.74850 0.24750 -0.04700
H 	H 	0.98220 0.60080 0.28240 -0.05500
H 	H 	0.55920 0.74750 0.25150 -0.04700
H 	H 	0.58300 0.78240 0.39920 -0.05900
H 	H 	0.05820 0.75250 0.24850 -0.04800
H 	H 	0.26460 0.71760 0.10080 -0.05900
H 	H 	0.69330 0.24850 0.74750 -0.04700
H 	H 	0.63460 0.10080 0.78240 -0.05900
H 	H 	0.18930 0.25150 0.75250 -0.04700
H 	H 	0.01780 0.39920 0.71760 -0.05500
H 	H 	0.44080 0.25250 0.74850 -0.04700
H 	H 	0.41700 0.21760 0.60080 -0.05900
H 	H 	0.94180 0.24750 0.75150 -0.04800
H 	H 	0.73540 0.28240 0.89920 -0.05900
C 	C 	0.35330 0.71570 0.27850 0.13400
C 	C 	0.42730 0.66900 0.36900 -0.08600
C 	C 	0.48610 0.60420 0.29840 -0.07200
C 	C 	0.57930 0.51370 0.27550 0.39300
C 	C 	0.43910 0.67770 0.44830 0.38200
C 	C 	0.39920 0.91320 0.24020 0.13800
C 	C 	0.43710 0.94100 0.33700 -0.06100
C 	C 	0.50490 0.95060 0.24540 -0.07500
C 	C 	0.59850 0.96820 0.20580 0.39000
C 	C 	0.41940 0.95340 0.43160 0.37200
C 	C 	0.84750 0.78430 0.22150 0.13400
C 	C 	0.96530 0.83100 0.13100 -0.07300
C 	C 	0.88870 0.89580 0.20160 -0.07300
C 	C 	0.86850 0.98630 0.22450 0.38900
C 	C 	0.06510 0.82230 0.05170 0.35800
C 	C 	0.05260 0.58680 0.25980 0.13300
C 	C 	0.21510 0.55900 0.16300 -0.06000
C 	C 	0.20090 0.54940 0.25460 -0.07400
C 	C 	0.27250 0.53180 0.29420 0.39000
C 	C 	0.30440 0.54660 0.06840 0.37300
C 	C 	0.63180 0.72150 0.21570 0.13400
C 	C 	0.79630 0.63100 0.16900 -0.08600
C 	C 	0.78450 0.70160 0.10420 -0.06900
C 	C 	0.85480 0.72450 0.01370 0.38600
C 	C 	0.88740 0.55170 0.17770 0.38100
C 	C 	0.63940 0.75980 0.41320 0.13900
C 	C 	0.77410 0.66300 0.44100 -0.06000
C 	C 	0.75030 0.75460 0.45060 -0.07400
C 	C 	0.80430 0.79420 0.46820 0.39000
C 	C 	0.85100 0.56840 0.45340 0.37200
C 	C 	0.06900 0.77850 0.28430 0.13200
C 	C 	0.09630 0.86900 0.33100 -0.08300
C 	C 	0.09030 0.79840 0.39580 -0.07400
C 	C 	0.09300 0.77550 0.48630 0.39400
C 	C 	0.11680 0.94830 0.32230 0.36600
C 	C 	0.31240 0.74020 0.08680 0.13800
C 	C 	0.37810 0.83700 0.05900 -0.06100
C 	C 	0.45550 0.74540 0.04940 -0.07400
C 	C 	0.56670 0.70580 0.03180 0.39000
C 	C 	0.37280 0.93160 0.04660 0.37200
C 	C 	0.64670 0.28430 0.72150 0.13400
C 	C 	0.57270 0.33100 0.63100 -0.08600
C 	C 	0.51390 0.39580 0.70160 -0.07200
C 	C 	0.42070 0.48630 0.72450 0.39300
C 	C 	0.56090 0.32230 0.55170 0.38200
C 	C 	0.60080 0.08680 0.75980 0.13800
C 	C 	0.56290 0.05900 0.66300 -0.06100
C 	C 	0.49510 0.04940 0.75460 -0.07500
C 	C 	0.40150 0.03180 0.79420 0.39000
C 	C 	0.58060 0.04660 0.56840 0.37200
C 	C 	0.15250 0.21570 0.77850 0.13400
C 	C 	0.03470 0.16900 0.86900 -0.07300
C 	C 	0.11130 0.10420 0.79840 -0.07300
C 	C 	0.13150 0.01370 0.77550 0.38900
C 	C 	0.93490 0.17770 0.94830 0.35800
C 	C 	0.94740 0.41320 0.74020 0.13300
C 	C 	0.78490 0.44100 0.83700 -0.06000
C 	C 	0.79910 0.45060 0.74540 -0.07400
C 	C 	0.72750 0.46820 0.70580 0.39000
C 	C 	0.69560 0.45340 0.93160 0.37300
C 	C 	0.36820 0.27850 0.78430 0.13400
C 	C 	0.20370 0.36900 0.83100 -0.08600
C 	C 	0.21550 0.29840 0.89580 -0.06900
C 	C 	0.14520 0.27550 0.98630 0.38600
C 	C 	0.11260 0.44830 0.82230 0.38100
C 	C 	0.36060 0.24020 0.58680 0.13900
C 	C 	0.22590 0.33700 0.55900 -0.06000
C 	C 	0.24970 0.24540 0.54940 -0.07400
C 	C 	0.19570 0.20580 0.53180 0.39000
C 	C 	0.14900 0.43160 0.54660 0.37200
C 	C 	0.93100 0.22150 0.71570 0.13200
C 	C 	0.90370 0.13100 0.66900 -0.08300
C 	C 	0.90970 0.20160 0.60420 -0.07400
C 	C 	0.90700 0.22450 0.51370 0.39400
C 	C 	0.88320 0.05170 0.67770 0.36600
C 	C 	0.68760 0.25980 0.91320 0.13800
C 	C 	0.62190 0.16300 0.94100 -0.06100
C 	C 	0.54450 0.25460 0.95060 -0.07400
C 	C 	0.43330 0.29420 0.96820 0.39000
C 	C 	0.62720 0.06840 0.95340 0.37200
N 	N 	0.43880 0.63390 0.24110 -0.22900
N 	N 	0.34260 0.73980 0.35660 -0.22500
N 	N 	0.37000 0.91640 0.33160 -0.25300
N 	N 	0.48120 0.93230 0.18530 -0.25100
N 	N 	0.81380 0.86610 0.25890 -0.22900
N 	N 	0.93900 0.76020 0.14340 -0.22500
N 	N 	0.11800 0.58360 0.16840 -0.25200
N 	N 	0.09880 0.56770 0.31470 -0.25000
N 	N 	0.67990 0.75890 0.13390 -0.22900
N 	N 	0.69920 0.64340 0.23980 -0.22500
N 	N 	0.70160 0.66840 0.41640 -0.25300
N 	N 	0.66650 0.81470 0.43230 -0.25100
N 	N 	0.07270 0.74110 0.36610 -0.22900
N 	N 	0.08240 0.85660 0.26020 -0.22600
N 	N 	0.28640 0.83160 0.08360 -0.25200
N 	N 	0.41350 0.68530 0.06770 -0.25100
N 	N 	0.56120 0.36610 0.75890 -0.22900
N 	N 	0.65740 0.26020 0.64340 -0.22500
N 	N 	0.63000 0.08360 0.66840 -0.25300
N 	N 	0.51880 0.06770 0.81470 -0.25100
N 	N 	0.18620 0.13390 0.74110 -0.22900
N 	N 	0.06100 0.23980 0.85660 -0.22500
N 	N 	0.88200 0.41640 0.83160 -0.25200
N 	N 	0.90120 0.43230 0.68530 -0.25000
N 	N 	0.32010 0.24110 0.86610 -0.22900
N 	N 	0.30080 0.35660 0.76020 -0.22500
N 	N 	0.29840 0.33160 0.58360 -0.25300
N 	N 	0.33350 0.18530 0.56770 -0.25100
N 	N 	0.92730 0.25890 0.63390 -0.22900
N 	N 	0.91760 0.14340 0.73980 -0.22600
N 	N 	0.71360 0.16840 0.91640 -0.25200
N 	N 	0.58650 0.31470 0.93230 -0.25100
O 	O 	0.60330 0.46880 0.20960 -0.50200
O 	O 	0.63410 0.48170 0.32090 -0.51200
O 	O 	0.52650 0.62700 0.45420 -0.50000
O 	O 	0.36190 0.73740 0.50840 -0.48900
O 	O 	0.65250 0.95730 0.11830 -0.47000
O 	O 	0.61940 0.99590 0.25530 -0.51100
O 	O 	0.46940 0.98410 0.44390 -0.60400
O 	O 	0.35110 0.93040 0.49900 -0.53100
O 	O 	0.78170 0.03120 0.29040 -0.50000
O 	O 	0.93670 0.01830 0.17910 -0.50200
O 	O 	0.10770 0.87300 0.04580 -0.49600
O 	O 	0.10770 0.76260 0.99160 -0.47100
O 	O 	0.22810 0.54270 0.38170 -0.47100
O 	O 	0.37060 0.50410 0.24470 -0.51100
O 	O 	0.39740 0.51590 0.05610 -0.60300
O 	O 	0.28050 0.56960 0.00100 -0.53100
O 	O 	0.81290 0.79040 0.96880 -0.49400
O 	O 	0.95500 0.67910 0.98170 -0.50600
O 	O 	0.98070 0.54580 0.12700 -0.49500
O 	O 	0.87030 0.49160 0.23740 -0.48800
O 	O 	0.77080 0.88170 0.45730 -0.46900
O 	O 	0.87470 0.74470 0.49590 -0.50800
O 	O 	0.91330 0.55610 0.48410 -0.60300
O 	O 	0.85010 0.50100 0.43040 -0.53100
O 	O 	0.07210 0.70960 0.53120 -0.50300
O 	O 	0.11580 0.82090 0.51830 -0.51300
O 	O 	0.15350 0.95420 0.37300 -0.49800
O 	O 	0.09930 0.00840 0.26260 -0.47100
O 	O 	0.60980 0.61830 0.04270 -0.47000
O 	O 	0.61530 0.75530 0.00410 -0.51000
O 	O 	0.45350 0.94390 0.01590 -0.60500
O 	O 	0.28150 0.99900 0.06960 -0.53400
O 	O 	0.39670 0.53120 0.79040 -0.50200
O 	O 	0.36590 0.51830 0.67910 -0.51200
O 	O 	0.47350 0.37300 0.54580 -0.50000
O 	O 	0.63810 0.26260 0.49160 -0.48900
O 	O 	0.34750 0.04270 0.88170 -0.47000
O 	O 	0.38060 0.00410 0.74470 -0.51100
O 	O 	0.53060 0.01590 0.55610 -0.60400
O 	O 	0.64890 0.06960 0.50100 -0.53100
O 	O 	0.21830 0.96880 0.70960 -0.50000
O 	O 	0.06330 0.98170 0.82090 -0.50200
O 	O 	0.89230 0.12700 0.95420 -0.49600
O 	O 	0.89230 0.23740 0.00840 -0.47100
O 	O 	0.77190 0.45730 0.61830 -0.47100
O 	O 	0.62940 0.49590 0.75530 -0.51100
O 	O 	0.60260 0.48410 0.94390 -0.60300
O 	O 	0.71950 0.43040 0.99900 -0.53100
O 	O 	0.18710 0.20960 0.03120 -0.49400
O 	O 	0.04500 0.32090 0.01830 -0.50600
O 	O 	0.01930 0.45420 0.87300 -0.49500
O 	O 	0.12970 0.50840 0.76260 -0.48800
O 	O 	0.22920 0.11830 0.54270 -0.46900
O 	O 	0.12530 0.25530 0.50410 -0.50800
O 	O 	0.08670 0.44390 0.51590 -0.60300
O 	O 	0.14990 0.49900 0.56960 -0.53100
O 	O 	0.92790 0.29040 0.46880 -0.50300
O 	O 	0.88420 0.17910 0.48170 -0.51300
O 	O 	0.84650 0.04580 0.62700 -0.49800
O 	O 	0.90070 0.99160 0.73740 -0.47100
O 	O 	0.39020 0.38170 0.95730 -0.47000
O 	O 	0.38470 0.24470 0.99590 -0.51000
O 	O 	0.54650 0.05610 0.98410 -0.60500
O 	O 	0.71850 0.00100 0.93040 -0.53400
