data_crystal

_cell_length_a 16.13900
_cell_length_b 16.48300
_cell_length_c 16.48300
_cell_angle_alpha 76.13280
_cell_angle_beta  60.68800
_cell_angle_gamma 60.68810

_symmetry_space_group_name_	'P 1'
_symmetry_space_group_name_H-M	'P 1'

loop_
_symmetry_equiv_pos_as_xyz
  x,y,z

loop_
_atom_site_label
_atom_site_type_symbol
_atom_site_fract_x
_atom_site_fract_y
_atom_site_fract_z
_atom_site_charge
Eu	Eu	0.58500 0.62099 0.03199 1.69800
Eu	Eu	0.14972 0.97624 0.38660 1.80500
Eu	Eu	0.73797 0.87901 0.46801 1.70200
Eu	Eu	0.01256 0.52376 0.11340 1.80100
Eu	Eu	0.61698 0.96801 0.12100 1.68700
Eu	Eu	0.53632 0.61340 0.47624 1.83700
Eu	Eu	0.20599 0.53199 0.37900 1.70000
Eu	Eu	0.12596 0.88660 0.02376 1.77700
Eu	Eu	0.41500 0.37901 0.96801 1.69900
Eu	Eu	0.85028 0.02376 0.61340 1.80600
Eu	Eu	0.26203 0.12099 0.53199 1.70300
Eu	Eu	0.98744 0.47624 0.88660 1.80200
Eu	Eu	0.38302 0.03199 0.87900 1.68800
Eu	Eu	0.46368 0.38660 0.52376 1.83800
Eu	Eu	0.79401 0.46801 0.62100 1.70000
Eu	Eu	0.87404 0.11340 0.97624 1.77700
H 	H 	0.31120 0.74690 0.24950 -0.05000
H 	H 	0.48200 0.60200 0.28200 -0.06000
H 	H 	0.80760 0.75310 0.25050 -0.04900
H 	H 	0.86600 0.89800 0.21800 -0.05800
H 	H 	0.56070 0.75050 0.24690 -0.05000
H 	H 	0.76400 0.71800 0.10200 -0.05900
H 	H 	0.05810 0.74950 0.25310 -0.05400
H 	H 	0.08400 0.78200 0.39800 -0.06300
H 	H 	0.68880 0.25310 0.75050 -0.05000
H 	H 	0.51800 0.39800 0.71800 -0.06000
H 	H 	0.19240 0.24690 0.74950 -0.04900
H 	H 	0.13400 0.10200 0.78200 -0.05800
H 	H 	0.43930 0.24950 0.75310 -0.05000
H 	H 	0.23600 0.28200 0.89800 -0.05900
H 	H 	0.94190 0.25050 0.74690 -0.05400
H 	H 	0.91600 0.21800 0.60200 -0.06300
C 	C 	0.34760 0.78330 0.22310 0.14800
C 	C 	0.38880 0.89420 0.20240 -0.06600
C 	C 	0.46470 0.82920 0.13200 -0.08800
C 	C 	0.37040 0.98450 0.22410 0.36500
C 	C 	0.56540 0.82160 0.05260 0.39500
C 	C 	0.55320 0.58690 0.25890 0.14800
C 	C 	0.71510 0.55750 0.16310 -0.05600
C 	C 	0.70300 0.54940 0.25320 -0.07700
C 	C 	0.80180 0.54670 0.07010 0.35700
C 	C 	0.77450 0.53160 0.29420 0.41400
C 	C 	0.85400 0.71670 0.27690 0.14900
C 	C 	0.98540 0.60580 0.29760 -0.06100
C 	C 	0.92590 0.67080 0.36800 -0.08900
C 	C 	0.07900 0.51550 0.27590 0.38300
C 	C 	0.93960 0.67840 0.44740 0.40800
C 	C 	0.89900 0.91310 0.24110 0.15000
C 	C 	0.93570 0.94250 0.33690 -0.02600
C 	C 	0.00560 0.95060 0.24680 -0.11900
C 	C 	0.91860 0.95330 0.42990 0.34900
C 	C 	0.10030 0.96840 0.20580 0.42500
C 	C 	0.57070 0.77690 0.28330 0.14800
C 	C 	0.59120 0.79760 0.39420 -0.07400
C 	C 	0.59670 0.86800 0.32920 -0.08500
C 	C 	0.59450 0.77590 0.48450 0.39400
C 	C 	0.61800 0.94740 0.32160 0.39500
C 	C 	0.81210 0.74110 0.08690 0.14800
C 	C 	0.87820 0.83690 0.05750 -0.06000
C 	C 	0.95620 0.74680 0.04940 -0.05500
C 	C 	0.87190 0.92990 0.04670 0.36000
C 	C 	0.06870 0.70580 0.03160 0.39000
C 	C 	0.13090 0.72310 0.21670 0.14800
C 	C 	0.28300 0.70240 0.10580 -0.06500
C 	C 	0.29390 0.63200 0.17080 -0.08900
C 	C 	0.35490 0.72410 0.01550 0.36800
C 	C 	0.38700 0.55260 0.17840 0.40000
C 	C 	0.14010 0.75890 0.41310 0.14800
C 	C 	0.27260 0.66310 0.44250 -0.05800
C 	C 	0.25240 0.75320 0.45060 -0.07800
C 	C 	0.34850 0.57010 0.45330 0.35900
C 	C 	0.30610 0.79420 0.46840 0.41600
C 	C 	0.65240 0.21670 0.77690 0.14800
C 	C 	0.61120 0.10580 0.79760 -0.06600
C 	C 	0.53530 0.17080 0.86800 -0.08800
C 	C 	0.62960 0.01550 0.77590 0.36500
C 	C 	0.43460 0.17840 0.94740 0.39500
C 	C 	0.44680 0.41310 0.74110 0.14800
C 	C 	0.28490 0.44250 0.83690 -0.05600
C 	C 	0.29700 0.45060 0.74680 -0.07700
C 	C 	0.19820 0.45330 0.92990 0.35700
C 	C 	0.22550 0.46840 0.70580 0.41400
C 	C 	0.14600 0.28330 0.72310 0.14900
C 	C 	0.01460 0.39420 0.70240 -0.06100
C 	C 	0.07410 0.32920 0.63200 -0.08900
C 	C 	0.92100 0.48450 0.72410 0.38300
C 	C 	0.06040 0.32160 0.55260 0.40800
C 	C 	0.10100 0.08690 0.75890 0.15000
C 	C 	0.06430 0.05750 0.66310 -0.02600
C 	C 	0.99440 0.04940 0.75320 -0.11900
C 	C 	0.08140 0.04670 0.57010 0.34900
C 	C 	0.89970 0.03160 0.79420 0.42500
C 	C 	0.42930 0.22310 0.71670 0.14800
C 	C 	0.40880 0.20240 0.60580 -0.07400
C 	C 	0.40330 0.13200 0.67080 -0.08500
C 	C 	0.40550 0.22410 0.51550 0.39400
C 	C 	0.38200 0.05260 0.67840 0.39500
C 	C 	0.18790 0.25890 0.91310 0.14800
C 	C 	0.12180 0.16310 0.94250 -0.06000
C 	C 	0.04380 0.25320 0.95060 -0.05500
C 	C 	0.12810 0.07010 0.95330 0.36000
C 	C 	0.93130 0.29420 0.96840 0.39000
C 	C 	0.86910 0.27690 0.78330 0.14800
C 	C 	0.71700 0.29760 0.89420 -0.06500
C 	C 	0.70610 0.36800 0.82920 -0.08900
C 	C 	0.64510 0.27590 0.98450 0.36800
C 	C 	0.61300 0.44740 0.82160 0.40000
C 	C 	0.85990 0.24110 0.58690 0.14800
C 	C 	0.72740 0.33690 0.55750 -0.05800
C 	C 	0.74760 0.24680 0.54940 -0.07800
C 	C 	0.65150 0.42990 0.54670 0.35900
C 	C 	0.69390 0.20580 0.53160 0.41600
N 	N 	0.43810 0.75870 0.14510 -0.22300
N 	N 	0.31290 0.86360 0.26060 -0.22700
N 	N 	0.61760 0.58190 0.16810 -0.25200
N 	N 	0.59950 0.56820 0.31380 -0.24600
N 	N 	0.84190 0.74130 0.35490 -0.22200
N 	N 	0.93710 0.63640 0.23940 -0.22300
N 	N 	0.86760 0.91810 0.33190 -0.25600
N 	N 	0.98150 0.93180 0.18620 -0.22400
N 	N 	0.58320 0.85490 0.25870 -0.22300
N 	N 	0.57350 0.73940 0.36360 -0.22700
N 	N 	0.78570 0.83190 0.08190 -0.25100
N 	N 	0.91330 0.68620 0.06820 -0.24300
N 	N 	0.19680 0.64510 0.24130 -0.22300
N 	N 	0.17650 0.76060 0.13640 -0.22700
N 	N 	0.19950 0.66810 0.41810 -0.25300
N 	N 	0.16770 0.81380 0.43180 -0.24600
N 	N 	0.56190 0.24130 0.85490 -0.22300
N 	N 	0.68710 0.13640 0.73940 -0.22700
N 	N 	0.38240 0.41810 0.83190 -0.25200
N 	N 	0.40050 0.43180 0.68620 -0.24600
N 	N 	0.15810 0.25870 0.64510 -0.22200
N 	N 	0.06290 0.36360 0.76060 -0.22300
N 	N 	0.13240 0.08190 0.66810 -0.25600
N 	N 	0.01850 0.06820 0.81380 -0.22400
N 	N 	0.41680 0.14510 0.74130 -0.22300
N 	N 	0.42650 0.26060 0.63640 -0.22700
N 	N 	0.21430 0.16810 0.91810 -0.25100
N 	N 	0.08670 0.31380 0.93180 -0.24300
N 	N 	0.80320 0.35490 0.75870 -0.22300
N 	N 	0.82350 0.23940 0.86360 -0.22700
N 	N 	0.80050 0.33190 0.58190 -0.25300
N 	N 	0.83230 0.18620 0.56820 -0.24600
O 	O 	0.60930 0.75950 0.99330 -0.47700
O 	O 	0.60500 0.87300 0.04580 -0.50000
O 	O 	0.28261 0.02889 0.29289 -0.46600
O 	O 	0.43600 0.01760 0.17940 -0.48600
O 	O 	0.72960 0.54280 0.38120 -0.46600
O 	O 	0.87040 0.50540 0.24440 -0.50600
O 	O 	0.78001 0.56773 0.00165 -0.50400
O 	O 	0.89845 0.51447 0.05523 -0.56700
O 	O 	0.86210 0.74050 0.50670 -0.48400
O 	O 	0.02380 0.62700 0.45420 -0.50800
O 	O 	0.10439 0.47111 0.20711 -0.48300
O 	O 	0.13300 0.48240 0.32060 -0.50200
O 	O 	0.15360 0.95720 0.11880 -0.47400
O 	O 	0.12020 0.99460 0.25560 -0.52000
O 	O 	0.84939 0.93227 0.49835 -0.50400
O 	O 	0.96815 0.98553 0.44477 -0.56200
O 	O 	0.60260 0.00670 0.25950 -0.47900
O 	O 	0.65080 0.95420 0.37300 -0.50100
O 	O 	0.57550 0.70711 0.52889 -0.48600
O 	O 	0.61540 0.82060 0.51760 -0.50400
O 	O 	0.11080 0.61880 0.04280 -0.46300
O 	O 	0.11480 0.75560 0.00540 -0.50900
O 	O 	0.78166 0.99835 0.06773 -0.50400
O 	O 	0.95368 0.94477 0.01447 -0.55900
O 	O 	0.36880 0.49330 0.24050 -0.48300
O 	O 	0.47800 0.54580 0.12700 -0.50100
O 	O 	0.31150 0.79289 0.97111 -0.46100
O 	O 	0.45360 0.67940 0.98240 -0.49000
O 	O 	0.27240 0.88120 0.45720 -0.46800
O 	O 	0.37580 0.74440 0.49460 -0.51300
O 	O 	0.34774 0.50165 0.43227 -0.51100
O 	O 	0.41292 0.55523 0.48553 -0.57900
O 	O 	0.39070 0.24050 0.00670 -0.47700
O 	O 	0.39500 0.12700 0.95420 -0.50000
O 	O 	0.71739 0.97111 0.70711 -0.46600
O 	O 	0.56400 0.98240 0.82060 -0.48600
O 	O 	0.27040 0.45720 0.61880 -0.46600
O 	O 	0.12960 0.49460 0.75560 -0.50600
O 	O 	0.21999 0.43227 0.99835 -0.50400
O 	O 	0.10155 0.48553 0.94477 -0.56700
O 	O 	0.13790 0.25950 0.49330 -0.48400
O 	O 	0.97620 0.37300 0.54580 -0.50800
O 	O 	0.89561 0.52889 0.79289 -0.48300
O 	O 	0.86700 0.51760 0.67940 -0.50200
O 	O 	0.84640 0.04280 0.88120 -0.47400
O 	O 	0.87980 0.00540 0.74440 -0.52000
O 	O 	0.15061 0.06773 0.50165 -0.50400
O 	O 	0.03185 0.01447 0.55523 -0.56200
O 	O 	0.39740 0.99330 0.74050 -0.47900
O 	O 	0.34920 0.04580 0.62700 -0.50100
O 	O 	0.42450 0.29289 0.47111 -0.48600
O 	O 	0.38460 0.17940 0.48240 -0.50400
O 	O 	0.88920 0.38120 0.95720 -0.46300
O 	O 	0.88520 0.24440 0.99460 -0.50900
O 	O 	0.21834 0.00165 0.93227 -0.50400
O 	O 	0.04632 0.05523 0.98553 -0.55900
O 	O 	0.63120 0.50670 0.75950 -0.48300
O 	O 	0.52200 0.45420 0.87300 -0.50100
O 	O 	0.68850 0.20711 0.02889 -0.46100
O 	O 	0.54640 0.32060 0.01760 -0.49000
O 	O 	0.72760 0.11880 0.54280 -0.46800
O 	O 	0.62420 0.25560 0.50540 -0.51300
O 	O 	0.65226 0.49835 0.56773 -0.51100
O 	O 	0.58708 0.44477 0.51447 -0.57900
