data_crystal

_cell_length_a 10.15370
_cell_length_b 17.43560
_cell_length_c 17.65940
_cell_angle_alpha 90.00000
_cell_angle_beta  90.00000
_cell_angle_gamma 90.00000

_symmetry_space_group_name_	'P 1'
_symmetry_space_group_name_H-M	'P 1'

loop_
_symmetry_equiv_pos_as_xyz
  x,y,z

loop_
_atom_site_label
_atom_site_type_symbol
_atom_site_fract_x
_atom_site_fract_y
_atom_site_fract_z
_atom_site_charge
Dy	Dy	0.66104 0.97910 0.22044 1.87800
Dy	Dy	0.88199 0.17886 0.20625 1.91900
Dy	Dy	0.33896 0.02090 0.72044 1.87800
Dy	Dy	0.11801 0.82114 0.70625 1.91800
Dy	Dy	0.83896 0.47910 0.22044 1.87800
Dy	Dy	0.61801 0.67886 0.20625 1.92100
Dy	Dy	0.16104 0.52090 0.72044 1.87600
Dy	Dy	0.38199 0.32114 0.70625 1.91800
H 	H 	0.63310 0.28690 0.40150 0.04800
H 	H 	0.98000 0.85750 0.90270 0.03500
H 	H 	0.62280 0.95000 0.41760 0.02700
H 	H 	0.88030 0.87620 0.02550 0.03700
H 	H 	0.53660 0.29270 0.52840 0.00700
H 	H 	0.52040 0.96720 0.54120 0.02000
H 	H 	0.36690 0.71310 0.90150 0.05400
H 	H 	0.02000 0.14250 0.40270 0.02800
H 	H 	0.37720 0.05000 0.91760 0.03400
H 	H 	0.11970 0.12380 0.52550 0.04100
H 	H 	0.46340 0.70730 0.02840 0.00400
H 	H 	0.47960 0.03280 0.04120 0.01600
H 	H 	0.86690 0.78690 0.40150 0.04800
H 	H 	0.52000 0.35750 0.90270 0.03600
H 	H 	0.87720 0.45000 0.41760 0.02700
H 	H 	0.61970 0.37620 0.02550 0.03600
H 	H 	0.96340 0.79270 0.52840 0.00700
H 	H 	0.97960 0.46720 0.54120 0.02000
H 	H 	0.13310 0.21310 0.90150 0.05400
H 	H 	0.48000 0.64250 0.40270 0.02900
H 	H 	0.12280 0.55000 0.91760 0.03300
H 	H 	0.38030 0.62380 0.52550 0.04000
H 	H 	0.03660 0.20730 0.02840 0.00400
H 	H 	0.02040 0.53280 0.04120 0.01600
C 	C 	0.10950 0.97710 0.82880 0.47200
C 	C 	0.95100 0.98360 0.02970 -0.13000
C 	C 	0.59760 0.24480 0.42660 -0.01600
C 	C 	0.56280 0.82060 0.32750 0.48900
C 	C 	0.98420 0.90330 0.92950 -0.01200
C 	C 	0.63690 0.14360 0.32230 0.46800
C 	C 	0.04590 0.96790 0.90340 -0.14700
C 	C 	0.42330 0.86620 0.52940 -0.15600
C 	C 	0.56380 0.91540 0.43880 0.00200
C 	C 	0.52420 0.84890 0.40390 -0.15900
C 	C 	0.50190 0.17860 0.52550 -0.17600
C 	C 	0.59140 0.17310 0.39710 -0.13500
C 	C 	0.92850 0.91390 0.00060 0.01700
C 	C 	0.34770 0.85810 0.59930 0.46500
C 	C 	0.54330 0.24780 0.50020 0.03600
C 	C 	0.50500 0.92500 0.51020 0.00900
C 	C 	0.90480 0.01570 0.10410 0.46400
C 	C 	0.44110 0.16210 0.60020 0.51800
C 	C 	0.89050 0.02290 0.32880 0.47700
C 	C 	0.04900 0.01640 0.52970 -0.13100
C 	C 	0.40240 0.75520 0.92660 -0.03700
C 	C 	0.43720 0.17940 0.82750 0.48500
C 	C 	0.01580 0.09670 0.42950 0.01100
C 	C 	0.36310 0.85640 0.82230 0.46500
C 	C 	0.95410 0.03210 0.40340 -0.15700
C 	C 	0.57670 0.13380 0.02940 -0.15100
C 	C 	0.43620 0.08460 0.93880 -0.02100
C 	C 	0.47580 0.15110 0.90390 -0.15100
C 	C 	0.49810 0.82140 0.02550 -0.17100
C 	C 	0.40860 0.82690 0.89710 -0.12700
C 	C 	0.07150 0.08610 0.50060 -0.00400
C 	C 	0.65230 0.14190 0.09930 0.46500
C 	C 	0.45670 0.75220 0.00020 0.05400
C 	C 	0.49500 0.07500 0.01020 0.02900
C 	C 	0.09520 0.98430 0.60410 0.46000
C 	C 	0.55890 0.83790 0.10020 0.51900
C 	C 	0.39050 0.47710 0.82880 0.47200
C 	C 	0.54900 0.48360 0.02970 -0.13000
C 	C 	0.90240 0.74480 0.42660 -0.01600
C 	C 	0.93720 0.32060 0.32750 0.48900
C 	C 	0.51580 0.40330 0.92950 -0.01700
C 	C 	0.86310 0.64360 0.32230 0.46800
C 	C 	0.45410 0.46790 0.90340 -0.14500
C 	C 	0.07670 0.36620 0.52940 -0.15600
C 	C 	0.93620 0.41540 0.43880 0.00300
C 	C 	0.97580 0.34890 0.40390 -0.16100
C 	C 	0.99810 0.67860 0.52550 -0.17500
C 	C 	0.90860 0.67310 0.39710 -0.13500
C 	C 	0.57150 0.41390 0.00060 0.02000
C 	C 	0.15230 0.35810 0.59930 0.46400
C 	C 	0.95670 0.74780 0.50020 0.03600
C 	C 	0.99500 0.42500 0.51020 0.00700
C 	C 	0.59520 0.51570 0.10410 0.46400
C 	C 	0.05890 0.66210 0.60020 0.51800
C 	C 	0.60950 0.52290 0.32880 0.47600
C 	C 	0.45100 0.51640 0.52970 -0.13400
C 	C 	0.09760 0.25520 0.92660 -0.03800
C 	C 	0.06280 0.67940 0.82750 0.48500
C 	C 	0.48420 0.59670 0.42950 0.00600
C 	C 	0.13690 0.35640 0.82230 0.46400
C 	C 	0.54590 0.53210 0.40340 -0.15400
C 	C 	0.92330 0.63380 0.02940 -0.15100
C 	C 	0.06380 0.58460 0.93880 -0.01900
C 	C 	0.02420 0.65110 0.90390 -0.15200
C 	C 	0.00190 0.32140 0.02550 -0.17000
C 	C 	0.09140 0.32690 0.89710 -0.12700
C 	C 	0.42850 0.58610 0.50060 -0.00100
C 	C 	0.84770 0.64190 0.09930 0.46500
C 	C 	0.04330 0.25220 0.00020 0.05500
C 	C 	0.00500 0.57500 0.01020 0.02600
C 	C 	0.40480 0.48430 0.60410 0.46300
C 	C 	0.94110 0.33790 0.10020 0.51800
S 	S 	0.03800 0.04052 0.96770 0.06100
S 	S 	0.41880 0.79763 0.46022 0.07700
S 	S 	0.51750 0.10983 0.45747 0.07400
S 	S 	0.96200 0.95948 0.46770 0.07500
S 	S 	0.58120 0.20237 0.96022 0.06100
S 	S 	0.48250 0.89017 0.95747 0.06000
S 	S 	0.46200 0.54052 0.96770 0.05900
S 	S 	0.08120 0.29763 0.46022 0.07800
S 	S 	0.98250 0.60983 0.45747 0.07400
S 	S 	0.53800 0.45948 0.46770 0.07400
S 	S 	0.91880 0.70237 0.96022 0.06300
S 	S 	0.01750 0.39017 0.95747 0.05900
O 	O 	0.17500 0.03810 0.81690 -0.45000
O 	O 	0.34920 0.91540 0.64530 -0.55100
O 	O 	0.84750 0.97010 0.14730 -0.50200
O 	O 	0.10540 0.92360 0.78370 -0.57800
O 	O 	0.61800 0.86930 0.28540 -0.53100
O 	O 	0.54630 0.75200 0.31160 -0.50100
O 	O 	0.41050 0.09300 0.61420 -0.50000
O 	O 	0.27820 0.80170 0.61070 -0.47700
O 	O 	0.93210 0.08570 0.11580 -0.51100
O 	O 	0.69140 0.19230 0.27840 -0.48500
O 	O 	0.44240 0.21400 0.64720 -0.57200
O 	O 	0.61800 0.07530 0.30840 -0.52800
O 	O 	0.82500 0.96190 0.31690 -0.45100
O 	O 	0.65080 0.08460 0.14530 -0.55100
O 	O 	0.15250 0.02990 0.64730 -0.50100
O 	O 	0.89460 0.07640 0.28370 -0.57900
O 	O 	0.38200 0.13070 0.78540 -0.53100
O 	O 	0.45370 0.24800 0.81160 -0.50100
O 	O 	0.58950 0.90700 0.11420 -0.49900
O 	O 	0.72180 0.19830 0.11070 -0.47500
O 	O 	0.06790 0.91430 0.61580 -0.51300
O 	O 	0.30860 0.80770 0.77840 -0.48400
O 	O 	0.55760 0.78600 0.14720 -0.57100
O 	O 	0.38200 0.92470 0.80840 -0.52800
O 	O 	0.32500 0.53810 0.81690 -0.45100
O 	O 	0.15080 0.41540 0.64530 -0.55100
O 	O 	0.65250 0.47010 0.14730 -0.50200
O 	O 	0.39460 0.42360 0.78370 -0.57800
O 	O 	0.88200 0.36930 0.28540 -0.53100
O 	O 	0.95370 0.25200 0.31160 -0.50100
O 	O 	0.08950 0.59300 0.61420 -0.50000
O 	O 	0.22180 0.30170 0.61070 -0.47700
O 	O 	0.56790 0.58570 0.11580 -0.51100
O 	O 	0.80860 0.69230 0.27840 -0.48500
O 	O 	0.05760 0.71400 0.64720 -0.57200
O 	O 	0.88200 0.57530 0.30840 -0.52900
O 	O 	0.67500 0.46190 0.31690 -0.45100
O 	O 	0.84920 0.58460 0.14530 -0.55100
O 	O 	0.34750 0.52990 0.64730 -0.50300
O 	O 	0.60540 0.57640 0.28370 -0.57900
O 	O 	0.11800 0.63070 0.78540 -0.53100
O 	O 	0.04630 0.74800 0.81160 -0.50100
O 	O 	0.91050 0.40700 0.11420 -0.49900
O 	O 	0.77820 0.69830 0.11070 -0.47500
O 	O 	0.43210 0.41430 0.61580 -0.51300
O 	O 	0.19140 0.30770 0.77840 -0.48400
O 	O 	0.94240 0.28600 0.14720 -0.57100
O 	O 	0.11800 0.42470 0.80840 -0.52800
