data_crystal

_cell_length_a 7.76390
_cell_length_b 10.17650
_cell_length_c 15.94900
_cell_angle_alpha 90.00000
_cell_angle_beta  90.00000
_cell_angle_gamma 90.00000

_symmetry_space_group_name_	'P 1'
_symmetry_space_group_name_H-M	'P 1'

loop_
_symmetry_equiv_pos_as_xyz
  x,y,z

loop_
_atom_site_label
_atom_site_type_symbol
_atom_site_fract_x
_atom_site_fract_y
_atom_site_fract_z
_atom_site_charge
Mg	Mg	0.86026 0.02982 0.78926 1.46100
Mg	Mg	0.13974 0.97018 0.28926 1.46100
Mg	Mg	0.36026 0.47018 0.78926 1.46200
Mg	Mg	0.63974 0.52982 0.28926 1.46200
H 	H 	0.91040 0.45120 0.59840 0.12300
H 	H 	0.14960 0.25400 0.37250 -0.00000
H 	H 	0.05440 0.91440 0.47400 0.01100
H 	H 	0.04630 0.36070 0.48910 0.06600
H 	H 	0.94180 0.01110 0.59140 0.04700
H 	H 	0.08960 0.54880 0.09840 0.12300
H 	H 	0.85040 0.74600 0.87250 -0.00100
H 	H 	0.94560 0.08560 0.97400 0.00600
H 	H 	0.95370 0.63930 0.98910 0.06600
H 	H 	0.05820 0.98890 0.09140 0.04900
H 	H 	0.41040 0.04880 0.59840 0.12500
H 	H 	0.64960 0.24600 0.37250 -0.00000
H 	H 	0.55440 0.58560 0.47400 0.02500
H 	H 	0.54630 0.13930 0.48910 0.06700
H 	H 	0.44180 0.48890 0.59140 0.04200
H 	H 	0.58960 0.95120 0.09840 0.12300
H 	H 	0.35040 0.75400 0.87250 0.00000
H 	H 	0.44560 0.41440 0.97400 0.02400
H 	H 	0.45370 0.86070 0.98910 0.06700
H 	H 	0.55820 0.51110 0.09140 0.04200
C 	C 	0.89340 0.26100 0.62500 0.11200
C 	C 	0.76600 0.41520 0.69970 -0.01300
C 	C 	0.73550 0.29270 0.73430 -0.10400
C 	C 	0.97750 0.19860 0.55280 0.01700
C 	C 	0.10700 0.20430 0.41680 0.06200
C 	C 	0.04990 0.00560 0.47640 0.07800
C 	C 	0.04380 0.26940 0.48680 -0.10000
C 	C 	0.71420 0.55300 0.72220 0.34600
C 	C 	0.98280 0.06280 0.54760 -0.10800
C 	C 	0.63300 0.25270 0.80920 0.40100
C 	C 	0.10660 0.73900 0.12500 0.11200
C 	C 	0.23400 0.58480 0.19970 -0.01300
C 	C 	0.26450 0.70730 0.23430 -0.10400
C 	C 	0.02250 0.80140 0.05280 0.01700
C 	C 	0.89300 0.79570 0.91680 0.06200
C 	C 	0.95010 0.99440 0.97640 0.08800
C 	C 	0.95620 0.73060 0.98680 -0.10000
C 	C 	0.28580 0.44700 0.22220 0.34600
C 	C 	0.01720 0.93720 0.04760 -0.11800
C 	C 	0.36700 0.74730 0.30920 0.40100
C 	C 	0.39340 0.23900 0.62500 0.11500
C 	C 	0.26600 0.08480 0.69970 -0.01000
C 	C 	0.23550 0.20730 0.73430 -0.10300
C 	C 	0.47750 0.30140 0.55280 0.01400
C 	C 	0.60700 0.29570 0.41680 0.06000
C 	C 	0.54990 0.49440 0.47640 0.05100
C 	C 	0.54380 0.23060 0.48680 -0.10100
C 	C 	0.21420 0.94700 0.72220 0.34500
C 	C 	0.48280 0.43720 0.54760 -0.08800
C 	C 	0.13300 0.24730 0.80920 0.40100
C 	C 	0.60660 0.76100 0.12500 0.11600
C 	C 	0.73400 0.91520 0.19970 -0.01100
C 	C 	0.76450 0.79270 0.23430 -0.10300
C 	C 	0.52250 0.69860 0.05280 0.01000
C 	C 	0.39300 0.70430 0.91680 0.05900
C 	C 	0.45010 0.50560 0.97640 0.05300
C 	C 	0.45620 0.76940 0.98680 -0.09700
C 	C 	0.78580 0.05300 0.22220 0.34700
C 	C 	0.51720 0.56280 0.04760 -0.08900
C 	C 	0.86700 0.75270 0.30920 0.40100
N 	N 	0.10940 0.07420 0.41017 -0.24800
N 	N 	0.81810 0.19830 0.68830 -0.21300
N 	N 	0.86880 0.39240 0.63143 -0.19400
N 	N 	0.89060 0.92580 0.91017 -0.25000
N 	N 	0.18190 0.80170 0.18830 -0.21300
N 	N 	0.13120 0.60760 0.13143 -0.19400
N 	N 	0.60940 0.42580 0.41017 -0.24500
N 	N 	0.31810 0.30170 0.68830 -0.21200
N 	N 	0.36880 0.10760 0.63143 -0.19500
N 	N 	0.39060 0.57420 0.91017 -0.24500
N 	N 	0.68190 0.69830 0.18830 -0.21200
N 	N 	0.63120 0.89240 0.13143 -0.19500
O 	O 	0.66060 0.13850 0.83676 -0.49100
O 	O 	0.52810 0.33180 0.83917 -0.47400
O 	O 	0.56120 0.57340 0.74332 -0.50400
O 	O 	0.82910 0.63830 0.71620 -0.28100
O 	O 	0.33940 0.86150 0.33676 -0.49000
O 	O 	0.47190 0.66820 0.33917 -0.47400
O 	O 	0.43880 0.42660 0.24332 -0.50400
O 	O 	0.17090 0.36170 0.21620 -0.28100
O 	O 	0.16060 0.36150 0.83676 -0.48800
O 	O 	0.02810 0.16820 0.83917 -0.47000
O 	O 	0.06120 0.92660 0.74332 -0.50500
O 	O 	0.32910 0.86170 0.71620 -0.28000
O 	O 	0.83940 0.63850 0.33676 -0.48900
O 	O 	0.97190 0.83180 0.33917 -0.47100
O 	O 	0.93880 0.07340 0.24332 -0.50500
O 	O 	0.67090 0.13830 0.21620 -0.28000
