data_crystal

_cell_length_a 9.23070
_cell_length_b 13.62220
_cell_length_c 14.70720
_cell_angle_alpha 90.00000
_cell_angle_beta  90.27100
_cell_angle_gamma 90.00000

_symmetry_space_group_name_	'P 1'
_symmetry_space_group_name_H-M	'P 1'

loop_
_symmetry_equiv_pos_as_xyz
  x,y,z

loop_
_atom_site_label
_atom_site_type_symbol
_atom_site_fract_x
_atom_site_fract_y
_atom_site_fract_z
_atom_site_charge
Nd	Nd	0.25085 0.50245 0.09312 2.37000
C 	C 	0.00240 0.61040 0.32950 -0.05800
C 	C 	0.02660 0.70400 0.36580 0.02600
H 	H 	0.09160 0.74790 0.33670 0.03900
C 	C 	0.95460 0.73270 0.44510 -0.13500
C 	C 	0.86430 0.66600 0.48830 -0.04400
H 	H 	0.81500 0.68560 0.54180 0.05900
C 	C 	0.84390 0.57090 0.45510 0.08100
C 	C 	0.91090 0.54590 0.37420 -0.08300
H 	H 	0.89380 0.48280 0.34870 0.07500
C 	C 	0.75840 0.49760 0.50970 -0.24100
H 	H 	0.82750 0.45860 0.54660 0.10700
H 	H 	0.69620 0.53440 0.55250 0.10700
C 	C 	0.66420 0.42780 0.45720 0.08200
C 	C 	0.64340 0.33300 0.48960 -0.04000
H 	H 	0.69690 0.31120 0.54110 0.05700
C 	C 	0.54510 0.26930 0.44760 -0.14200
C 	C 	0.46800 0.30070 0.37160 0.03100
H 	H 	0.39830 0.25890 0.34390 0.03800
C 	C 	0.49370 0.39420 0.33630 -0.05900
C 	C 	0.59080 0.45680 0.37930 -0.07900
H 	H 	0.60720 0.52050 0.35510 0.07500
C 	C 	0.08090 0.57520 0.24610 0.30400
C 	C 	0.97390 0.83330 0.48500 0.49100
C 	C 	0.52570 0.16670 0.48670 0.54800
C 	C 	0.41420 0.43200 0.25340 0.30000
O 	O 	0.02490 0.50770 0.19940 -0.40600
O 	O 	0.20270 0.61250 0.22810 -0.41400
O 	O 	0.06120 0.89040 0.44870 -0.57600
O 	O 	0.89960 0.85520 0.55380 -0.53300
O 	O 	0.61780 0.13890 0.54380 -0.57800
O 	O 	0.42220 0.11830 0.45940 -0.60900
O 	O 	0.29490 0.39430 0.23240 -0.41000
O 	O 	0.47130 0.50160 0.20770 -0.38800
Nd	Nd	0.24915 0.00245 0.40687 2.37100
C 	C 	0.49760 0.11040 0.17050 -0.05800
C 	C 	0.47340 0.20400 0.13420 0.02400
H 	H 	0.40840 0.24790 0.16330 0.04000
C 	C 	0.54540 0.23270 0.05490 -0.13100
C 	C 	0.63570 0.16600 0.01170 -0.04800
H 	H 	0.68500 0.18560 0.95820 0.06100
C 	C 	0.65610 0.07090 0.04490 0.08300
C 	C 	0.58910 0.04590 0.12580 -0.07900
H 	H 	0.60620 0.98280 0.15130 0.07300
C 	C 	0.74160 0.99760 0.99030 -0.24700
H 	H 	0.67250 0.95860 0.95340 0.10900
H 	H 	0.80380 0.03440 0.94750 0.11100
C 	C 	0.83580 0.92780 0.04280 0.09000
C 	C 	0.85660 0.83300 0.01040 -0.05200
H 	H 	0.80310 0.81120 0.95890 0.06200
C 	C 	0.95490 0.76930 0.05240 -0.14100
C 	C 	0.03200 0.80070 0.12840 0.03100
H 	H 	0.10170 0.75890 0.15610 0.03900
C 	C 	0.00630 0.89420 0.16370 -0.04700
C 	C 	0.90920 0.95680 0.12070 -0.10100
H 	H 	0.89280 0.02050 0.14490 0.08500
C 	C 	0.41910 0.07520 0.25390 0.30400
C 	C 	0.52610 0.33330 0.01500 0.49500
C 	C 	0.97430 0.66670 0.01330 0.53500
C 	C 	0.08580 0.93200 0.24660 0.30200
O 	O 	0.47510 0.00770 0.30060 -0.40500
O 	O 	0.29730 0.11250 0.27190 -0.41400
O 	O 	0.43880 0.39040 0.05130 -0.58100
O 	O 	0.60040 0.35520 0.94620 -0.53300
O 	O 	0.88220 0.63890 0.95620 -0.57300
O 	O 	0.07780 0.61830 0.04060 -0.60200
O 	O 	0.20510 0.89430 0.26760 -0.40900
O 	O 	0.02870 0.00160 0.29230 -0.39100
Nd	Nd	0.74915 0.49755 0.90687 2.37100
C 	C 	0.99760 0.38960 0.67050 -0.05700
C 	C 	0.97340 0.29600 0.63420 0.02700
H 	H 	0.90840 0.25210 0.66330 0.03900
C 	C 	0.04540 0.26730 0.55490 -0.13500
C 	C 	0.13570 0.33400 0.51170 -0.04400
H 	H 	0.18500 0.31440 0.45820 0.05900
C 	C 	0.15610 0.42910 0.54490 0.08100
C 	C 	0.08910 0.45410 0.62580 -0.08300
H 	H 	0.10620 0.51720 0.65130 0.07500
C 	C 	0.24160 0.50240 0.49030 -0.24100
H 	H 	0.17250 0.54140 0.45340 0.10700
H 	H 	0.30380 0.46560 0.44750 0.10700
C 	C 	0.33580 0.57220 0.54280 0.08200
C 	C 	0.35660 0.66700 0.51040 -0.04000
H 	H 	0.30310 0.68880 0.45890 0.05700
C 	C 	0.45490 0.73070 0.55240 -0.14200
C 	C 	0.53200 0.69930 0.62840 0.03100
H 	H 	0.60170 0.74110 0.65610 0.03800
C 	C 	0.50630 0.60580 0.66370 -0.05900
C 	C 	0.40920 0.54320 0.62070 -0.07900
H 	H 	0.39280 0.47950 0.64490 0.07500
C 	C 	0.91910 0.42480 0.75390 0.30400
C 	C 	0.02610 0.16670 0.51500 0.49100
C 	C 	0.47430 0.83330 0.51330 0.54800
C 	C 	0.58580 0.56800 0.74660 0.30000
O 	O 	0.97510 0.49230 0.80060 -0.40600
O 	O 	0.79730 0.38750 0.77190 -0.41400
O 	O 	0.93880 0.10960 0.55130 -0.57600
O 	O 	0.10040 0.14480 0.44620 -0.53300
O 	O 	0.38220 0.86110 0.45620 -0.57800
O 	O 	0.57780 0.88170 0.54060 -0.60900
O 	O 	0.70510 0.60570 0.76760 -0.41000
O 	O 	0.52870 0.49840 0.79230 -0.38800
Nd	Nd	0.75085 0.99755 0.59312 2.37100
C 	C 	0.50240 0.88960 0.82950 -0.05800
C 	C 	0.52660 0.79600 0.86580 0.02400
H 	H 	0.59160 0.75210 0.83670 0.04000
C 	C 	0.45460 0.76730 0.94510 -0.13100
C 	C 	0.36430 0.83400 0.98830 -0.04800
H 	H 	0.31500 0.81440 0.04180 0.06100
C 	C 	0.34390 0.92910 0.95510 0.08300
C 	C 	0.41090 0.95410 0.87420 -0.07900
H 	H 	0.39380 0.01720 0.84870 0.07300
C 	C 	0.25840 0.00240 0.00970 -0.24700
H 	H 	0.32750 0.04140 0.04660 0.10900
H 	H 	0.19620 0.96560 0.05250 0.11100
C 	C 	0.16420 0.07220 0.95720 0.09000
C 	C 	0.14340 0.16700 0.98960 -0.05200
H 	H 	0.19690 0.18880 0.04110 0.06200
C 	C 	0.04510 0.23070 0.94760 -0.14100
C 	C 	0.96800 0.19930 0.87160 0.03100
H 	H 	0.89830 0.24110 0.84390 0.03900
C 	C 	0.99370 0.10580 0.83630 -0.04700
C 	C 	0.09080 0.04320 0.87930 -0.10100
H 	H 	0.10720 0.97950 0.85510 0.08500
C 	C 	0.58090 0.92480 0.74610 0.30400
C 	C 	0.47390 0.66670 0.98500 0.49500
C 	C 	0.02570 0.33330 0.98670 0.53500
C 	C 	0.91420 0.06800 0.75340 0.30200
O 	O 	0.52490 0.99230 0.69940 -0.40500
O 	O 	0.70270 0.88750 0.72810 -0.41400
O 	O 	0.56120 0.60960 0.94870 -0.58000
O 	O 	0.39960 0.64480 0.05380 -0.53300
O 	O 	0.11780 0.36110 0.04380 -0.57300
O 	O 	0.92220 0.38170 0.95940 -0.60200
O 	O 	0.79490 0.10570 0.73240 -0.40900
O 	O 	0.97130 0.99840 0.70770 -0.39100
