data_crystal

_cell_length_a 9.21610
_cell_length_b 13.56180
_cell_length_c 14.66230
_cell_angle_alpha 90.00000
_cell_angle_beta  90.20900
_cell_angle_gamma 90.00000

_symmetry_space_group_name_	'P 1'
_symmetry_space_group_name_H-M	'P 1'

loop_
_symmetry_equiv_pos_as_xyz
  x,y,z

loop_
_atom_site_label
_atom_site_type_symbol
_atom_site_fract_x
_atom_site_fract_y
_atom_site_fract_z
_atom_site_charge
Sm	Sm	0.75075 0.99773 0.59306 2.18300
C 	C 	0.50380 0.88910 0.82940 -0.05600
C 	C 	0.52840 0.79580 0.86600 0.01700
H 	H 	0.59510 0.75220 0.83760 0.04500
C 	C 	0.45480 0.76640 0.94470 -0.11900
C 	C 	0.36370 0.83340 0.98860 -0.05500
H 	H 	0.31510 0.81370 0.04270 0.06500
C 	C 	0.34230 0.92860 0.95500 0.08800
C 	C 	0.41150 0.95490 0.87380 -0.08100
H 	H 	0.39540 0.01850 0.84840 0.07600
C 	C 	0.25740 0.00240 0.01000 -0.25000
H 	H 	0.19550 0.96570 0.05340 0.11200
H 	H 	0.32690 0.04190 0.04640 0.11000
C 	C 	0.16230 0.07240 0.95700 0.09500
C 	C 	0.14260 0.16710 0.98970 -0.05800
H 	H 	0.19680 0.18870 0.04120 0.06600
C 	C 	0.04340 0.23190 0.94770 -0.13200
C 	C 	0.96670 0.20000 0.87090 0.02400
H 	H 	0.89620 0.24160 0.84330 0.04300
C 	C 	0.99390 0.10670 0.83490 -0.04400
C 	C 	0.09060 0.04310 0.87850 -0.10400
H 	H 	0.10730 0.97920 0.85410 0.08700
C 	C 	0.58300 0.92540 0.74600 0.30600
C 	C 	0.47460 0.66540 0.98570 0.48000
C 	C 	0.02550 0.33470 0.98600 0.51700
C 	C 	0.91390 0.06840 0.75210 0.29900
O 	O 	0.52630 0.99280 0.69930 -0.38500
O 	O 	0.70410 0.88820 0.72780 -0.39800
O 	O 	0.56540 0.60870 0.95030 -0.54900
O 	O 	0.39800 0.64290 0.05320 -0.50900
O 	O 	0.11720 0.36290 0.04320 -0.54100
O 	O 	0.92150 0.38370 0.95880 -0.56800
O 	O 	0.79370 0.10600 0.73100 -0.39100
O 	O 	0.97100 0.99940 0.70580 -0.37300
Sm	Sm	0.74925 0.49773 0.90694 2.18500
C 	C 	0.99620 0.38910 0.67060 -0.05400
C 	C 	0.97160 0.29580 0.63400 0.02000
H 	H 	0.90490 0.25220 0.66240 0.04400
C 	C 	0.04520 0.26640 0.55530 -0.12200
C 	C 	0.13630 0.33340 0.51140 -0.05200
H 	H 	0.18490 0.31370 0.45730 0.06300
C 	C 	0.15770 0.42860 0.54500 0.08700
C 	C 	0.08850 0.45490 0.62620 -0.08600
H 	H 	0.10460 0.51850 0.65160 0.07700
C 	C 	0.24260 0.50240 0.49000 -0.24600
H 	H 	0.30450 0.46570 0.44660 0.10900
H 	H 	0.17310 0.54190 0.45360 0.10900
C 	C 	0.33770 0.57240 0.54300 0.08800
C 	C 	0.35740 0.66710 0.51030 -0.04700
H 	H 	0.30320 0.68870 0.45880 0.06100
C 	C 	0.45660 0.73190 0.55230 -0.13300
C 	C 	0.53330 0.70000 0.62910 0.02400
H 	H 	0.60380 0.74160 0.65670 0.04300
C 	C 	0.50610 0.60670 0.66510 -0.05500
C 	C 	0.40940 0.54310 0.62150 -0.08400
H 	H 	0.39270 0.47920 0.64590 0.07800
C 	C 	0.91700 0.42540 0.75400 0.30600
C 	C 	0.02540 0.16540 0.51430 0.47600
C 	C 	0.47450 0.83470 0.51400 0.53000
C 	C 	0.58610 0.56840 0.74790 0.29800
O 	O 	0.97370 0.49280 0.80070 -0.38600
O 	O 	0.79590 0.38820 0.77220 -0.39800
O 	O 	0.93460 0.10870 0.54970 -0.54500
O 	O 	0.10200 0.14290 0.44680 -0.50900
O 	O 	0.38280 0.86290 0.45680 -0.54600
O 	O 	0.57850 0.88370 0.54120 -0.57400
O 	O 	0.70630 0.60600 0.76900 -0.39200
O 	O 	0.52900 0.49940 0.79420 -0.37000
Sm	Sm	0.24925 0.00227 0.40694 2.18400
C 	C 	0.49620 0.11090 0.17060 -0.05500
C 	C 	0.47160 0.20420 0.13400 0.01700
H 	H 	0.40490 0.24780 0.16240 0.04500
C 	C 	0.54520 0.23360 0.05530 -0.11900
C 	C 	0.63630 0.16660 0.01140 -0.05500
H 	H 	0.68490 0.18630 0.95730 0.06500
C 	C 	0.65770 0.07140 0.04500 0.08800
C 	C 	0.58850 0.04510 0.12620 -0.08100
H 	H 	0.60460 0.98150 0.15160 0.07600
C 	C 	0.74260 0.99760 0.99000 -0.25000
H 	H 	0.80450 0.03430 0.94660 0.11200
H 	H 	0.67310 0.95810 0.95360 0.11000
C 	C 	0.83770 0.92760 0.04300 0.09500
C 	C 	0.85740 0.83290 0.01030 -0.05800
H 	H 	0.80320 0.81130 0.95880 0.06600
C 	C 	0.95660 0.76810 0.05230 -0.13200
C 	C 	0.03330 0.80000 0.12910 0.02400
H 	H 	0.10380 0.75840 0.15670 0.04300
C 	C 	0.00610 0.89330 0.16510 -0.04400
C 	C 	0.90940 0.95690 0.12150 -0.10400
H 	H 	0.89270 0.02080 0.14590 0.08700
C 	C 	0.41700 0.07460 0.25400 0.30600
C 	C 	0.52540 0.33460 0.01430 0.48000
C 	C 	0.97450 0.66530 0.01400 0.51700
C 	C 	0.08610 0.93160 0.24790 0.29900
O 	O 	0.47370 0.00720 0.30070 -0.38500
O 	O 	0.29590 0.11180 0.27220 -0.39800
O 	O 	0.43460 0.39130 0.04970 -0.54900
O 	O 	0.60200 0.35710 0.94680 -0.50900
O 	O 	0.88280 0.63710 0.95680 -0.54100
O 	O 	0.07850 0.61630 0.04120 -0.56800
O 	O 	0.20630 0.89400 0.26900 -0.39100
O 	O 	0.02900 0.00060 0.29420 -0.37300
Sm	Sm	0.25075 0.50227 0.09306 2.18500
C 	C 	0.00380 0.61090 0.32940 -0.05400
C 	C 	0.02840 0.70420 0.36600 0.02000
H 	H 	0.09510 0.74780 0.33760 0.04400
C 	C 	0.95480 0.73360 0.44470 -0.12200
C 	C 	0.86370 0.66660 0.48860 -0.05200
H 	H 	0.81510 0.68630 0.54270 0.06300
C 	C 	0.84230 0.57140 0.45500 0.08700
C 	C 	0.91150 0.54510 0.37380 -0.08600
H 	H 	0.89540 0.48150 0.34840 0.07700
C 	C 	0.75740 0.49760 0.51000 -0.24600
H 	H 	0.69550 0.53430 0.55340 0.10900
H 	H 	0.82690 0.45810 0.54640 0.10900
C 	C 	0.66230 0.42760 0.45700 0.08800
C 	C 	0.64260 0.33290 0.48970 -0.04700
H 	H 	0.69680 0.31130 0.54120 0.06100
C 	C 	0.54340 0.26810 0.44770 -0.13300
C 	C 	0.46670 0.30000 0.37090 0.02400
H 	H 	0.39620 0.25840 0.34330 0.04300
C 	C 	0.49390 0.39330 0.33490 -0.05500
C 	C 	0.59060 0.45690 0.37850 -0.08400
H 	H 	0.60730 0.52080 0.35410 0.07800
C 	C 	0.08300 0.57460 0.24600 0.30600
C 	C 	0.97460 0.83460 0.48570 0.47600
C 	C 	0.52550 0.16530 0.48600 0.53000
C 	C 	0.41390 0.43160 0.25210 0.29800
O 	O 	0.02630 0.50720 0.19930 -0.38600
O 	O 	0.20410 0.61180 0.22780 -0.39800
O 	O 	0.06540 0.89130 0.45030 -0.54500
O 	O 	0.89800 0.85710 0.55320 -0.50900
O 	O 	0.61720 0.13710 0.54320 -0.54600
O 	O 	0.42150 0.11630 0.45880 -0.57400
O 	O 	0.29370 0.39400 0.23100 -0.39200
O 	O 	0.47100 0.50060 0.20580 -0.37000
