data_crystal

_cell_length_a 9.21410
_cell_length_b 13.46950
_cell_length_c 14.59180
_cell_angle_alpha 90.00000
_cell_angle_beta  90.35600
_cell_angle_gamma 90.00000

_symmetry_space_group_name_	'P 1'
_symmetry_space_group_name_H-M	'P 1'

loop_
_symmetry_equiv_pos_as_xyz
  x,y,z

loop_
_atom_site_label
_atom_site_type_symbol
_atom_site_fract_x
_atom_site_fract_y
_atom_site_fract_z
_atom_site_charge
Tb	Tb	0.25110 0.00298 0.09237 1.98100
C 	C 	0.00430 0.11130 0.32740 -0.04500
C 	C 	0.02920 0.20500 0.36460 0.00500
H 	H 	0.09550 0.24910 0.33610 0.05100
C 	C 	0.95680 0.23410 0.44390 -0.10400
C 	C 	0.86520 0.16710 0.48750 -0.06200
H 	H 	0.81550 0.18700 0.54130 0.06900
C 	C 	0.84520 0.07140 0.45380 0.09700
C 	C 	0.91200 0.04540 0.37200 -0.09400
H 	H 	0.89450 0.98180 0.34620 0.08300
C 	C 	0.76110 0.99710 0.50960 -0.24600
H 	H 	0.70300 0.03100 0.55600 0.11200
H 	H 	0.82900 0.95300 0.54600 0.10500
C 	C 	0.66380 0.92730 0.45720 0.08700
C 	C 	0.58970 0.95660 0.37860 -0.07800
H 	H 	0.60700 0.02080 0.35390 0.07700
C 	C 	0.49090 0.89430 0.33540 -0.05500
C 	C 	0.46380 0.80020 0.37150 0.01900
H 	H 	0.39210 0.75870 0.34440 0.04600
C 	C 	0.54270 0.76740 0.44770 -0.12000
C 	C 	0.64260 0.83130 0.48900 -0.04900
H 	H 	0.69750 0.80860 0.54020 0.06200
C 	C 	0.08360 0.07480 0.24370 0.29200
C 	C 	0.97630 0.33650 0.48410 0.46000
C 	C 	0.41190 0.93240 0.25210 0.30100
C 	C 	0.52380 0.66400 0.48620 0.50300
O 	O 	0.02670 0.00737 0.19556 -0.36300
O 	O 	0.20580 0.11211 0.22516 -0.37700
O 	O 	0.06700 0.39286 0.44940 -0.51800
O 	O 	0.89930 0.35902 0.55300 -0.47400
O 	O 	0.47030 0.00236 0.20602 -0.34800
O 	O 	0.29210 0.89564 0.22957 -0.37400
O 	O 	0.41540 0.61569 0.46185 -0.53800
O 	O 	0.61980 0.63330 0.54071 -0.51500
Tb	Tb	0.24890 0.50298 0.40763 1.99500
C 	C 	0.49570 0.61130 0.17260 -0.04600
C 	C 	0.47080 0.70500 0.13540 0.00800
H 	H 	0.40450 0.74910 0.16390 0.05000
C 	C 	0.54320 0.73410 0.05610 -0.10700
C 	C 	0.63480 0.66710 0.01250 -0.05600
H 	H 	0.68450 0.68700 0.95870 0.06500
C 	C 	0.65480 0.57140 0.04620 0.09000
C 	C 	0.58800 0.54540 0.12800 -0.08900
H 	H 	0.60550 0.48180 0.15380 0.08000
C 	C 	0.73890 0.49710 0.99040 -0.24100
H 	H 	0.79700 0.53100 0.94400 0.11000
H 	H 	0.67100 0.45300 0.95400 0.10400
C 	C 	0.83620 0.42730 0.04280 0.09200
C 	C 	0.91030 0.45660 0.12140 -0.09000
H 	H 	0.89300 0.52080 0.14610 0.08100
C 	C 	0.00910 0.39430 0.16460 -0.04600
C 	C 	0.03620 0.30020 0.12850 0.01400
H 	H 	0.10790 0.25870 0.15560 0.04800
C 	C 	0.95730 0.26740 0.05230 -0.11300
C 	C 	0.85740 0.33130 0.01100 -0.06500
H 	H 	0.80250 0.30860 0.95980 0.07100
C 	C 	0.41640 0.57480 0.25630 0.29300
C 	C 	0.52370 0.83650 0.01590 0.46600
C 	C 	0.08810 0.43240 0.24790 0.29300
C 	C 	0.97620 0.16400 0.01380 0.48400
O 	O 	0.47330 0.50737 0.30444 -0.36300
O 	O 	0.29420 0.61211 0.27484 -0.37700
O 	O 	0.43300 0.89286 0.05060 -0.51400
O 	O 	0.60070 0.85902 0.94700 -0.47800
O 	O 	0.02970 0.50236 0.29398 -0.34400
O 	O 	0.20790 0.39564 0.27043 -0.37500
O 	O 	0.08460 0.11569 0.03815 -0.53100
O 	O 	0.88020 0.13330 0.95929 -0.50000
Tb	Tb	0.74890 0.99702 0.90763 1.98200
C 	C 	0.99570 0.88870 0.67260 -0.04400
C 	C 	0.97080 0.79500 0.63540 0.00500
H 	H 	0.90450 0.75090 0.66390 0.05100
C 	C 	0.04320 0.76590 0.55610 -0.10400
C 	C 	0.13480 0.83290 0.51250 -0.06200
H 	H 	0.18450 0.81300 0.45870 0.06900
C 	C 	0.15480 0.92860 0.54620 0.09700
C 	C 	0.08800 0.95460 0.62800 -0.09400
H 	H 	0.10550 0.01820 0.65380 0.08300
C 	C 	0.23890 0.00290 0.49040 -0.24600
H 	H 	0.29700 0.96900 0.44400 0.11200
H 	H 	0.17100 0.04700 0.45400 0.10500
C 	C 	0.33620 0.07270 0.54280 0.08700
C 	C 	0.41030 0.04340 0.62140 -0.07800
H 	H 	0.39300 0.97920 0.64610 0.07700
C 	C 	0.50910 0.10570 0.66460 -0.05500
C 	C 	0.53620 0.19980 0.62850 0.01900
H 	H 	0.60790 0.24130 0.65560 0.04600
C 	C 	0.45730 0.23260 0.55230 -0.12000
C 	C 	0.35740 0.16870 0.51100 -0.04900
H 	H 	0.30250 0.19140 0.45980 0.06200
C 	C 	0.91640 0.92520 0.75630 0.29200
C 	C 	0.02370 0.66350 0.51590 0.46000
C 	C 	0.58810 0.06760 0.74790 0.30100
C 	C 	0.47620 0.33600 0.51380 0.50300
O 	O 	0.97330 0.99263 0.80444 -0.36300
O 	O 	0.79420 0.88789 0.77484 -0.37700
O 	O 	0.93300 0.60714 0.55060 -0.51800
O 	O 	0.10070 0.64098 0.44700 -0.47400
O 	O 	0.52970 0.99764 0.79398 -0.34800
O 	O 	0.70790 0.10436 0.77043 -0.37400
O 	O 	0.58460 0.38431 0.53815 -0.53800
O 	O 	0.38020 0.36670 0.45929 -0.51500
Tb	Tb	0.75110 0.49702 0.59237 1.99500
C 	C 	0.50430 0.38870 0.82740 -0.04600
C 	C 	0.52920 0.29500 0.86460 0.00800
H 	H 	0.59550 0.25090 0.83610 0.05000
C 	C 	0.45680 0.26590 0.94390 -0.10700
C 	C 	0.36520 0.33290 0.98750 -0.05600
H 	H 	0.31550 0.31300 0.04130 0.06500
C 	C 	0.34520 0.42860 0.95380 0.09000
C 	C 	0.41200 0.45460 0.87200 -0.08900
H 	H 	0.39450 0.51820 0.84620 0.08000
C 	C 	0.26110 0.50290 0.00960 -0.24100
H 	H 	0.20300 0.46900 0.05600 0.11000
H 	H 	0.32900 0.54700 0.04600 0.10400
C 	C 	0.16380 0.57270 0.95720 0.09200
C 	C 	0.08970 0.54340 0.87860 -0.09000
H 	H 	0.10700 0.47920 0.85390 0.08100
C 	C 	0.99090 0.60570 0.83540 -0.04600
C 	C 	0.96380 0.69980 0.87150 0.01400
H 	H 	0.89210 0.74130 0.84440 0.04800
C 	C 	0.04270 0.73260 0.94770 -0.11300
C 	C 	0.14260 0.66870 0.98900 -0.06500
H 	H 	0.19750 0.69140 0.04020 0.07100
C 	C 	0.58360 0.42520 0.74370 0.29300
C 	C 	0.47630 0.16350 0.98410 0.46600
C 	C 	0.91190 0.56760 0.75210 0.29300
C 	C 	0.02380 0.83600 0.98620 0.48400
O 	O 	0.52670 0.49263 0.69556 -0.36300
O 	O 	0.70580 0.38789 0.72516 -0.37700
O 	O 	0.56700 0.10714 0.94940 -0.51400
O 	O 	0.39930 0.14098 0.05300 -0.47800
O 	O 	0.97030 0.49764 0.70602 -0.34400
O 	O 	0.79210 0.60436 0.72957 -0.37500
O 	O 	0.91540 0.88431 0.96185 -0.53100
O 	O 	0.11980 0.86670 0.04071 -0.50000
