data_crystal

_cell_length_a 9.20060
_cell_length_b 13.43780
_cell_length_c 14.56360
_cell_angle_alpha 90.00000
_cell_angle_beta  90.35600
_cell_angle_gamma 90.00000

_symmetry_space_group_name_	'P 1'
_symmetry_space_group_name_H-M	'P 1'

loop_
_symmetry_equiv_pos_as_xyz
  x,y,z

loop_
_atom_site_label
_atom_site_type_symbol
_atom_site_fract_x
_atom_site_fract_y
_atom_site_fract_z
_atom_site_charge
Dy	Dy	0.25110 0.49698 0.59214 1.94100
C 	C 	0.00470 0.38890 0.82730 -0.04200
C 	C 	0.02960 0.29440 0.86430 0.01000
H 	H 	0.09560 0.25020 0.83540 0.05100
C 	C 	0.95710 0.26520 0.94390 -0.10600
C 	C 	0.86500 0.33280 0.98740 -0.06200
H 	H 	0.81470 0.31290 0.04110 0.06900
C 	C 	0.84540 0.42880 0.95360 0.09600
C 	C 	0.91220 0.45410 0.87170 -0.09800
H 	H 	0.89410 0.51770 0.84540 0.08200
C 	C 	0.76060 0.50300 0.00940 -0.25500
H 	H 	0.69970 0.46580 0.05350 0.11300
H 	H 	0.83050 0.54320 0.04570 0.11300
C 	C 	0.66400 0.57300 0.95690 0.10100
C 	C 	0.58980 0.54350 0.87860 -0.09400
H 	H 	0.60700 0.47910 0.85410 0.08300
C 	C 	0.49080 0.60590 0.83510 -0.04400
C 	C 	0.46350 0.70010 0.87140 0.00800
H 	H 	0.39160 0.74160 0.84430 0.05100
C 	C 	0.54210 0.73300 0.94750 -0.10700
C 	C 	0.64260 0.66870 0.98950 -0.07000
H 	H 	0.69700 0.69120 0.04110 0.07300
C 	C 	0.08380 0.42530 0.74330 0.29300
C 	C 	0.97660 0.16280 0.98430 0.45500
C 	C 	0.41150 0.56740 0.75150 0.28900
C 	C 	0.52370 0.83660 0.98620 0.48800
O 	O 	0.02680 0.49260 0.69511 -0.35700
O 	O 	0.20670 0.38850 0.72479 -0.37300
O 	O 	0.06830 0.10680 0.94991 -0.50000
O 	O 	0.89850 0.14030 0.05270 -0.46800
O 	O 	0.47030 0.49760 0.70525 -0.33800
O 	O 	0.29120 0.60430 0.72891 -0.36900
O 	O 	0.41470 0.88490 0.96179 -0.52500
O 	O 	0.61970 0.86730 0.04034 -0.49700
Dy	Dy	0.24890 0.99698 0.90786 1.92600
C 	C 	0.49530 0.88890 0.67270 -0.04000
C 	C 	0.47040 0.79440 0.63570 0.00200
H 	H 	0.40440 0.75020 0.66460 0.05300
C 	C 	0.54290 0.76520 0.55610 -0.10000
C 	C 	0.63500 0.83280 0.51260 -0.06900
H 	H 	0.68530 0.81290 0.45890 0.07100
C 	C 	0.65460 0.92880 0.54640 0.10600
C 	C 	0.58780 0.95410 0.62830 -0.10200
H 	H 	0.60590 0.01770 0.65460 0.08600
C 	C 	0.73940 0.00300 0.49060 -0.26900
H 	H 	0.80030 0.96580 0.44650 0.11800
H 	H 	0.66950 0.04320 0.45430 0.11600
C 	C 	0.83600 0.07300 0.54310 0.10400
C 	C 	0.91020 0.04350 0.62140 -0.10100
H 	H 	0.89300 0.97910 0.64590 0.08600
C 	C 	0.00920 0.10590 0.66490 -0.04200
C 	C 	0.03650 0.20010 0.62860 0.01300
H 	H 	0.10840 0.24160 0.65570 0.04900
C 	C 	0.95790 0.23300 0.55250 -0.11500
C 	C 	0.85740 0.16870 0.51050 -0.06100
H 	H 	0.80300 0.19120 0.45890 0.06700
C 	C 	0.41620 0.92530 0.75670 0.29100
C 	C 	0.52340 0.66280 0.51570 0.46000
C 	C 	0.08850 0.06740 0.74850 0.29800
C 	C 	0.97630 0.33660 0.51380 0.49800
O 	O 	0.47320 0.99260 0.80489 -0.35700
O 	O 	0.29330 0.88850 0.77521 -0.37200
O 	O 	0.43170 0.60680 0.55009 -0.51100
O 	O 	0.60150 0.64030 0.44730 -0.46900
O 	O 	0.02970 0.99760 0.79475 -0.34400
O 	O 	0.20880 0.10430 0.77109 -0.36800
O 	O 	0.08530 0.38490 0.53821 -0.52800
O 	O 	0.88030 0.36730 0.45966 -0.50800
Dy	Dy	0.74890 0.50302 0.40786 1.94200
C 	C 	0.99530 0.61110 0.17270 -0.04100
C 	C 	0.97040 0.70560 0.13570 0.01000
H 	H 	0.90440 0.74980 0.16460 0.05100
C 	C 	0.04290 0.73480 0.05610 -0.10600
C 	C 	0.13500 0.66720 0.01260 -0.06200
H 	H 	0.18530 0.68710 0.95890 0.06900
C 	C 	0.15460 0.57120 0.04640 0.09600
C 	C 	0.08780 0.54590 0.12830 -0.09800
H 	H 	0.10590 0.48230 0.15460 0.08200
C 	C 	0.23940 0.49700 0.99060 -0.25500
H 	H 	0.30030 0.53420 0.94650 0.11300
H 	H 	0.16950 0.45680 0.95430 0.11300
C 	C 	0.33600 0.42700 0.04310 0.10100
C 	C 	0.41020 0.45650 0.12140 -0.09400
H 	H 	0.39300 0.52090 0.14590 0.08300
C 	C 	0.50920 0.39410 0.16490 -0.04400
C 	C 	0.53650 0.29990 0.12860 0.00800
H 	H 	0.60840 0.25840 0.15570 0.05100
C 	C 	0.45790 0.26700 0.05250 -0.10700
C 	C 	0.35740 0.33130 0.01050 -0.07000
H 	H 	0.30300 0.30880 0.95890 0.07300
C 	C 	0.91620 0.57470 0.25670 0.29300
C 	C 	0.02340 0.83720 0.01570 0.45500
C 	C 	0.58850 0.43260 0.24850 0.28900
C 	C 	0.47630 0.16340 0.01380 0.48800
O 	O 	0.97320 0.50740 0.30489 -0.35700
O 	O 	0.79330 0.61150 0.27521 -0.37300
O 	O 	0.93170 0.89320 0.05009 -0.50000
O 	O 	0.10150 0.85970 0.94730 -0.46800
O 	O 	0.52970 0.50240 0.29475 -0.33800
O 	O 	0.70880 0.39570 0.27109 -0.36900
O 	O 	0.58530 0.11510 0.03821 -0.52500
O 	O 	0.38030 0.13270 0.95966 -0.49700
Dy	Dy	0.75110 0.00302 0.09214 1.92600
C 	C 	0.50470 0.11110 0.32730 -0.04000
C 	C 	0.52960 0.20560 0.36430 0.00200
H 	H 	0.59560 0.24980 0.33540 0.05300
C 	C 	0.45710 0.23480 0.44390 -0.10000
C 	C 	0.36500 0.16720 0.48740 -0.06900
H 	H 	0.31470 0.18710 0.54110 0.07100
C 	C 	0.34540 0.07120 0.45360 0.10600
C 	C 	0.41220 0.04590 0.37170 -0.10200
H 	H 	0.39410 0.98230 0.34540 0.08600
C 	C 	0.26060 0.99700 0.50940 -0.26900
H 	H 	0.19970 0.03420 0.55350 0.11800
H 	H 	0.33050 0.95680 0.54570 0.11600
C 	C 	0.16400 0.92700 0.45690 0.10400
C 	C 	0.08980 0.95650 0.37860 -0.10100
H 	H 	0.10700 0.02090 0.35410 0.08600
C 	C 	0.99080 0.89410 0.33510 -0.04200
C 	C 	0.96350 0.79990 0.37140 0.01300
H 	H 	0.89160 0.75840 0.34430 0.04900
C 	C 	0.04210 0.76700 0.44750 -0.11500
C 	C 	0.14260 0.83130 0.48950 -0.06100
H 	H 	0.19700 0.80880 0.54110 0.06700
C 	C 	0.58380 0.07470 0.24330 0.29100
C 	C 	0.47660 0.33720 0.48430 0.46000
C 	C 	0.91150 0.93260 0.25150 0.29800
C 	C 	0.02370 0.66340 0.48620 0.49800
O 	O 	0.52680 0.00740 0.19511 -0.35700
O 	O 	0.70670 0.11150 0.22479 -0.37200
O 	O 	0.56830 0.39320 0.44991 -0.51100
O 	O 	0.39850 0.35970 0.55270 -0.46900
O 	O 	0.97030 0.00240 0.20525 -0.34400
O 	O 	0.79120 0.89570 0.22891 -0.36800
O 	O 	0.91470 0.61510 0.46179 -0.52800
O 	O 	0.11970 0.63270 0.54034 -0.50800
