data_crystal

_cell_length_a 9.22750
_cell_length_b 13.50560
_cell_length_c 14.61220
_cell_angle_alpha 90.00000
_cell_angle_beta  90.32800
_cell_angle_gamma 90.00000

_symmetry_space_group_name_	'P 1'
_symmetry_space_group_name_H-M	'P 1'

loop_
_symmetry_equiv_pos_as_xyz
  x,y,z

loop_
_atom_site_label
_atom_site_type_symbol
_atom_site_fract_x
_atom_site_fract_y
_atom_site_fract_z
_atom_site_charge
Gd	Gd	0.25108 0.00290 0.09275 1.66400
C 	C 	0.00370 0.11070 0.32830 -0.03300
C 	C 	0.02880 0.20480 0.36490 -0.01400
H 	H 	0.09480 0.24870 0.33610 0.05800
C 	C 	0.95590 0.23380 0.44430 -0.07700
C 	C 	0.86530 0.16670 0.48800 -0.08100
H 	H 	0.81640 0.18640 0.54200 0.07600
C 	C 	0.84460 0.07130 0.45440 0.11100
C 	C 	0.91210 0.04520 0.37240 -0.10600
H 	H 	0.89490 0.98170 0.34670 0.08800
C 	C 	0.76020 0.99710 0.50970 -0.27000
H 	H 	0.83000 0.95720 0.54580 0.11700
H 	H 	0.69940 0.03390 0.55380 0.11800
C 	C 	0.66400 0.92740 0.45710 0.10900
C 	C 	0.59020 0.95620 0.37870 -0.09700
H 	H 	0.60770 0.02010 0.35390 0.08400
C 	C 	0.49160 0.89430 0.33580 -0.03600
C 	C 	0.46520 0.80010 0.37130 -0.00400
H 	H 	0.39460 0.75840 0.34370 0.05600
C 	C 	0.54300 0.76770 0.44770 -0.08800
C 	C 	0.64250 0.83180 0.48890 -0.07300
H 	H 	0.69700 0.80930 0.54020 0.07300
C 	C 	0.08310 0.07440 0.24490 0.28400
C 	C 	0.97610 0.33570 0.48500 0.41600
C 	C 	0.41210 0.93240 0.25220 0.28600
C 	C 	0.52450 0.66450 0.48630 0.45000
O 	O 	0.02680 0.00730 0.19680 -0.33000
O 	O 	0.20530 0.11190 0.22601 -0.34200
O 	O 	0.06600 0.39250 0.44940 -0.45200
O 	O 	0.89880 0.35810 0.55322 -0.41900
O 	O 	0.47020 0.00240 0.20628 -0.31700
O 	O 	0.29240 0.89530 0.23014 -0.34000
O 	O 	0.41710 0.61620 0.46150 -0.47000
O 	O 	0.61980 0.63450 0.54180 -0.45000
Gd	Gd	0.24892 0.50290 0.40725 1.67500
C 	C 	0.49630 0.61070 0.17170 -0.03400
C 	C 	0.47120 0.70480 0.13510 -0.01000
H 	H 	0.40520 0.74870 0.16390 0.05800
C 	C 	0.54410 0.73380 0.05570 -0.07900
C 	C 	0.63470 0.66670 0.01200 -0.07600
H 	H 	0.68360 0.68640 0.95800 0.07400
C 	C 	0.65540 0.57130 0.04560 0.10500
C 	C 	0.58790 0.54520 0.12760 -0.10100
H 	H 	0.60510 0.48170 0.15330 0.08500
C 	C 	0.73980 0.49710 0.99030 -0.26600
H 	H 	0.67000 0.45720 0.95420 0.11600
H 	H 	0.80060 0.53390 0.94620 0.11600
C 	C 	0.83600 0.42740 0.04290 0.11300
C 	C 	0.90980 0.45620 0.12130 -0.10800
H 	H 	0.89230 0.52010 0.14610 0.08800
C 	C 	0.00840 0.39430 0.16420 -0.02900
C 	C 	0.03480 0.30010 0.12870 -0.00800
H 	H 	0.10540 0.25840 0.15630 0.05800
C 	C 	0.95700 0.26770 0.05230 -0.08200
C 	C 	0.85750 0.33180 0.01110 -0.08600
H 	H 	0.80300 0.30930 0.95980 0.08000
C 	C 	0.41690 0.57440 0.25510 0.28400
C 	C 	0.52390 0.83570 0.01500 0.42100
C 	C 	0.08790 0.43240 0.24780 0.28000
C 	C 	0.97550 0.16450 0.01370 0.43400
O 	O 	0.47320 0.50730 0.30320 -0.33000
O 	O 	0.29470 0.61190 0.27399 -0.34300
O 	O 	0.43400 0.89250 0.05060 -0.45000
O 	O 	0.60120 0.85810 0.94678 -0.42200
O 	O 	0.02980 0.50240 0.29372 -0.31300
O 	O 	0.20760 0.39530 0.26986 -0.34100
O 	O 	0.08290 0.11620 0.03850 -0.46400
O 	O 	0.88020 0.13450 0.95820 -0.43800
Gd	Gd	0.74892 0.99710 0.90725 1.66500
C 	C 	0.99630 0.88930 0.67170 -0.03200
C 	C 	0.97120 0.79520 0.63510 -0.01300
H 	H 	0.90520 0.75130 0.66390 0.05900
C 	C 	0.04410 0.76620 0.55570 -0.07700
C 	C 	0.13470 0.83330 0.51200 -0.08100
H 	H 	0.18360 0.81360 0.45800 0.07600
C 	C 	0.15540 0.92870 0.54560 0.11100
C 	C 	0.08790 0.95480 0.62760 -0.10600
H 	H 	0.10510 0.01830 0.65330 0.08800
C 	C 	0.23980 0.00290 0.49030 -0.27000
H 	H 	0.17000 0.04280 0.45420 0.11700
H 	H 	0.30060 0.96610 0.44620 0.11800
C 	C 	0.33600 0.07260 0.54290 0.10900
C 	C 	0.40980 0.04380 0.62130 -0.09700
H 	H 	0.39230 0.97990 0.64610 0.08400
C 	C 	0.50840 0.10570 0.66420 -0.03600
C 	C 	0.53480 0.19990 0.62870 -0.00400
H 	H 	0.60540 0.24160 0.65630 0.05600
C 	C 	0.45700 0.23230 0.55230 -0.08800
C 	C 	0.35750 0.16820 0.51110 -0.07300
H 	H 	0.30300 0.19070 0.45980 0.07300
C 	C 	0.91690 0.92560 0.75510 0.28400
C 	C 	0.02390 0.66430 0.51500 0.41600
C 	C 	0.58790 0.06760 0.74780 0.28600
C 	C 	0.47550 0.33550 0.51370 0.45000
O 	O 	0.97320 0.99270 0.80320 -0.33000
O 	O 	0.79470 0.88810 0.77399 -0.34200
O 	O 	0.93400 0.60750 0.55060 -0.45200
O 	O 	0.10120 0.64190 0.44678 -0.41900
O 	O 	0.52980 0.99760 0.79372 -0.31700
O 	O 	0.70760 0.10470 0.76986 -0.34000
O 	O 	0.58290 0.38380 0.53850 -0.47000
O 	O 	0.38020 0.36550 0.45820 -0.45000
Gd	Gd	0.75108 0.49710 0.59275 1.67500
C 	C 	0.50370 0.38930 0.82830 -0.03400
C 	C 	0.52880 0.29520 0.86490 -0.01000
H 	H 	0.59480 0.25130 0.83610 0.05800
C 	C 	0.45590 0.26620 0.94430 -0.07900
C 	C 	0.36530 0.33330 0.98800 -0.07600
H 	H 	0.31640 0.31360 0.04200 0.07400
C 	C 	0.34460 0.42870 0.95440 0.10500
C 	C 	0.41210 0.45480 0.87240 -0.10100
H 	H 	0.39490 0.51830 0.84670 0.08500
C 	C 	0.26020 0.50290 0.00970 -0.26600
H 	H 	0.33000 0.54280 0.04580 0.11600
H 	H 	0.19940 0.46610 0.05380 0.11600
C 	C 	0.16400 0.57260 0.95710 0.11300
C 	C 	0.09020 0.54380 0.87870 -0.10800
H 	H 	0.10770 0.47990 0.85390 0.08800
C 	C 	0.99160 0.60570 0.83580 -0.02900
C 	C 	0.96520 0.69990 0.87130 -0.00800
H 	H 	0.89460 0.74160 0.84370 0.05800
C 	C 	0.04300 0.73230 0.94770 -0.08200
C 	C 	0.14250 0.66820 0.98890 -0.08600
H 	H 	0.19700 0.69070 0.04020 0.08000
C 	C 	0.58310 0.42560 0.74490 0.28400
C 	C 	0.47610 0.16430 0.98500 0.42100
C 	C 	0.91210 0.56760 0.75220 0.28000
C 	C 	0.02450 0.83550 0.98630 0.43400
O 	O 	0.52680 0.49270 0.69680 -0.33000
O 	O 	0.70530 0.38810 0.72601 -0.34300
O 	O 	0.56600 0.10750 0.94940 -0.45000
O 	O 	0.39880 0.14190 0.05322 -0.42200
O 	O 	0.97020 0.49760 0.70628 -0.31300
O 	O 	0.79240 0.60470 0.73014 -0.34100
O 	O 	0.91710 0.88380 0.96150 -0.46400
O 	O 	0.11980 0.86550 0.04180 -0.43800
