data_crystal

_cell_length_a 15.73400
_cell_length_b 10.69140
_cell_length_c 23.32600
_cell_angle_alpha 90.00000
_cell_angle_beta  90.00000
_cell_angle_gamma 90.00000

_symmetry_space_group_name_	'P 1'
_symmetry_space_group_name_H-M	'P 1'

loop_
_symmetry_equiv_pos_as_xyz
  x,y,z

loop_
_atom_site_label
_atom_site_type_symbol
_atom_site_fract_x
_atom_site_fract_y
_atom_site_fract_z
_atom_site_charge
Er	Er	0.54764 0.96912 0.91594 1.81300
O 	O 	0.46542 0.94220 0.83083 -0.41100
O 	O 	0.49034 0.77240 0.88062 -0.36300
O 	O 	0.34284 0.87630 0.63298 -0.44500
O 	O 	0.25310 0.72170 0.62069 -0.26200
O 	O 	0.16739 0.44870 0.03481 -0.42300
O 	O 	0.08431 0.44620 0.95825 -0.49500
O 	O 	0.42042 0.18070 0.01734 -0.46200
O 	O 	0.49010 0.16660 0.93376 -0.47500
C 	C 	0.40580 0.74920 0.79719 -0.04400
C 	C 	0.38150 0.62830 0.81268 -0.08400
H 	H 	0.39900 0.59550 0.84870 0.08400
C 	C 	0.33240 0.55520 0.77658 0.09200
C 	C 	0.30730 0.60510 0.72410 -0.07200
H 	H 	0.27150 0.55760 0.69960 0.06800
C 	C 	0.33400 0.72380 0.70685 -0.07700
C 	C 	0.38350 0.79640 0.74392 -0.00000
H 	H 	0.40170 0.87750 0.73270 0.03900
C 	C 	0.30780 0.42190 0.79125 -0.23000
H 	H 	0.25130 0.40460 0.77430 0.10000
H 	H 	0.34910 0.36480 0.77270 0.09800
C 	C 	0.30410 0.39040 0.85427 0.06400
C 	C 	0.23450 0.42680 0.88757 -0.03600
H 	H 	0.18930 0.47230 0.87030 0.05200
C 	C 	0.23030 0.39750 0.94548 -0.10600
C 	C 	0.29640 0.32930 0.97091 0.04800
H 	H 	0.29460 0.31090 0.01070 0.05600
C 	C 	0.36430 0.28870 0.93789 -0.11100
C 	C 	0.36810 0.32000 0.88024 -0.03600
H 	H 	0.41520 0.29300 0.85800 0.05000
C 	C 	0.45680 0.82500 0.83885 0.30200
C 	C 	0.30860 0.77680 0.64952 0.38000
C 	C 	0.15540 0.43330 0.98145 0.43000
C 	C 	0.43050 0.20590 0.96519 0.45300
Er	Er	0.95236 0.53088 0.41594 1.81700
O 	O 	0.03458 0.55780 0.33083 -0.41100
O 	O 	0.00966 0.72760 0.38062 -0.36300
O 	O 	0.15716 0.62370 0.13298 -0.44500
O 	O 	0.24690 0.77830 0.12069 -0.26100
O 	O 	0.33261 0.05130 0.53481 -0.42100
O 	O 	0.41569 0.05380 0.45825 -0.49500
O 	O 	0.07958 0.31930 0.51734 -0.46000
O 	O 	0.00990 0.33340 0.43376 -0.47600
C 	C 	0.09420 0.75080 0.29719 -0.04300
C 	C 	0.11850 0.87170 0.31268 -0.08600
H 	H 	0.10100 0.90450 0.34870 0.08400
C 	C 	0.16760 0.94480 0.27658 0.09400
C 	C 	0.19270 0.89490 0.22410 -0.07400
H 	H 	0.22850 0.94240 0.19960 0.06900
C 	C 	0.16600 0.77620 0.20685 -0.07600
C 	C 	0.11650 0.70360 0.24392 -0.00100
H 	H 	0.09830 0.62250 0.23270 0.03900
C 	C 	0.19220 0.07810 0.29125 -0.23300
H 	H 	0.24870 0.09540 0.27430 0.10100
H 	H 	0.15090 0.13520 0.27270 0.09800
C 	C 	0.19590 0.10960 0.35427 0.06600
C 	C 	0.26550 0.07320 0.38757 -0.03800
H 	H 	0.31070 0.02770 0.37030 0.05300
C 	C 	0.26970 0.10250 0.44548 -0.10300
C 	C 	0.20360 0.17070 0.47091 0.04300
H 	H 	0.20540 0.18910 0.51070 0.05800
C 	C 	0.13570 0.21130 0.43789 -0.10800
C 	C 	0.13190 0.18000 0.38024 -0.03800
H 	H 	0.08480 0.20700 0.35800 0.05000
C 	C 	0.04320 0.67500 0.33885 0.30200
C 	C 	0.19140 0.72320 0.14952 0.37900
C 	C 	0.34460 0.06670 0.48145 0.42800
C 	C 	0.06950 0.29410 0.46519 0.45100
Er	Er	0.45236 0.96912 0.58406 1.81600
O 	O 	0.53458 0.94220 0.66917 -0.41100
O 	O 	0.50966 0.77240 0.61938 -0.36300
O 	O 	0.65716 0.87630 0.86702 -0.44500
O 	O 	0.74690 0.72170 0.87931 -0.26200
O 	O 	0.83261 0.44870 0.46519 -0.42200
O 	O 	0.91569 0.44620 0.54175 -0.49500
O 	O 	0.57958 0.18070 0.48266 -0.46000
O 	O 	0.50990 0.16660 0.56624 -0.47500
C 	C 	0.59420 0.74920 0.70281 -0.04400
C 	C 	0.61850 0.62830 0.68732 -0.08400
H 	H 	0.60100 0.59550 0.65130 0.08400
C 	C 	0.66760 0.55520 0.72342 0.09200
C 	C 	0.69270 0.60510 0.77590 -0.07300
H 	H 	0.72850 0.55760 0.80040 0.06800
C 	C 	0.66600 0.72380 0.79315 -0.07700
C 	C 	0.61650 0.79640 0.75608 -0.00000
H 	H 	0.59830 0.87750 0.76730 0.03900
C 	C 	0.69220 0.42190 0.70875 -0.23100
H 	H 	0.74870 0.40460 0.72570 0.10000
H 	H 	0.65090 0.36480 0.72730 0.09800
C 	C 	0.69590 0.39040 0.64573 0.06600
C 	C 	0.76550 0.42680 0.61243 -0.03700
H 	H 	0.81070 0.47230 0.62970 0.05300
C 	C 	0.76970 0.39750 0.55452 -0.10400
C 	C 	0.70360 0.32930 0.52909 0.04400
H 	H 	0.70540 0.31090 0.48930 0.05800
C 	C 	0.63570 0.28870 0.56211 -0.10800
C 	C 	0.63190 0.32000 0.61976 -0.03800
H 	H 	0.58480 0.29300 0.64200 0.05000
C 	C 	0.54320 0.82500 0.66115 0.30200
C 	C 	0.69140 0.77680 0.85048 0.38000
C 	C 	0.84460 0.43330 0.51855 0.42800
C 	C 	0.56950 0.20590 0.53481 0.45100
Er	Er	0.04764 0.53088 0.08406 1.81300
O 	O 	0.96542 0.55780 0.16917 -0.41000
O 	O 	0.99034 0.72760 0.11938 -0.36200
O 	O 	0.84284 0.62370 0.36702 -0.44500
O 	O 	0.75310 0.77830 0.37931 -0.26100
O 	O 	0.66739 0.05130 0.96519 -0.41900
O 	O 	0.58431 0.05380 0.04175 -0.49400
O 	O 	0.92042 0.31930 0.98266 -0.46000
O 	O 	0.99010 0.33340 0.06624 -0.47500
C 	C 	0.90580 0.75080 0.20281 -0.04200
C 	C 	0.88150 0.87170 0.18732 -0.08600
H 	H 	0.89900 0.90450 0.15130 0.08500
C 	C 	0.83240 0.94480 0.22342 0.09600
C 	C 	0.80730 0.89490 0.27590 -0.07400
H 	H 	0.77150 0.94240 0.30040 0.06900
C 	C 	0.83400 0.77620 0.29315 -0.07600
C 	C 	0.88350 0.70360 0.25608 -0.00100
H 	H 	0.90170 0.62250 0.26730 0.04000
C 	C 	0.80780 0.07810 0.20875 -0.23500
H 	H 	0.75130 0.09540 0.22570 0.10100
H 	H 	0.84910 0.13520 0.22730 0.09900
C 	C 	0.80410 0.10960 0.14573 0.06700
C 	C 	0.73450 0.07320 0.11243 -0.03900
H 	H 	0.68930 0.02770 0.12970 0.05300
C 	C 	0.73030 0.10250 0.05452 -0.10200
C 	C 	0.79640 0.17070 0.02909 0.04100
H 	H 	0.79460 0.18910 0.98930 0.06000
C 	C 	0.86430 0.21130 0.06211 -0.10700
C 	C 	0.86810 0.18000 0.11976 -0.04000
H 	H 	0.91520 0.20700 0.14200 0.05000
C 	C 	0.95680 0.67500 0.16115 0.30200
C 	C 	0.80860 0.72320 0.35048 0.38000
C 	C 	0.65540 0.06670 0.01855 0.42500
C 	C 	0.93050 0.29410 0.03481 0.45000
Er	Er	0.45236 0.03088 0.08406 1.81300
O 	O 	0.53458 0.05780 0.16917 -0.41100
O 	O 	0.50966 0.22760 0.11938 -0.36300
O 	O 	0.65716 0.12370 0.36702 -0.44500
O 	O 	0.74690 0.27830 0.37931 -0.26200
O 	O 	0.83261 0.55130 0.96519 -0.42300
O 	O 	0.91569 0.55380 0.04175 -0.49500
O 	O 	0.57958 0.81930 0.98266 -0.46200
O 	O 	0.50990 0.83340 0.06624 -0.47500
C 	C 	0.59420 0.25080 0.20281 -0.04400
C 	C 	0.61850 0.37170 0.18732 -0.08400
H 	H 	0.60100 0.40450 0.15130 0.08400
C 	C 	0.66760 0.44480 0.22342 0.09200
C 	C 	0.69270 0.39490 0.27590 -0.07200
H 	H 	0.72850 0.44240 0.30040 0.06800
C 	C 	0.66600 0.27620 0.29315 -0.07700
C 	C 	0.61650 0.20360 0.25608 -0.00000
H 	H 	0.59830 0.12250 0.26730 0.03900
C 	C 	0.69220 0.57810 0.20875 -0.23000
H 	H 	0.74870 0.59540 0.22570 0.10000
H 	H 	0.65090 0.63520 0.22730 0.09800
C 	C 	0.69590 0.60960 0.14573 0.06400
C 	C 	0.76550 0.57320 0.11243 -0.03600
H 	H 	0.81070 0.52770 0.12970 0.05200
C 	C 	0.76970 0.60250 0.05452 -0.10600
C 	C 	0.70360 0.67070 0.02909 0.04800
H 	H 	0.70540 0.68910 0.98930 0.05600
C 	C 	0.63570 0.71130 0.06211 -0.11100
C 	C 	0.63190 0.68000 0.11976 -0.03600
H 	H 	0.58480 0.70700 0.14200 0.05000
C 	C 	0.54320 0.17500 0.16115 0.30200
C 	C 	0.69140 0.22320 0.35048 0.38000
C 	C 	0.84460 0.56670 0.01855 0.43000
C 	C 	0.56950 0.79410 0.03481 0.45300
Er	Er	0.04764 0.46912 0.58406 1.81700
O 	O 	0.96542 0.44220 0.66917 -0.41100
O 	O 	0.99034 0.27240 0.61938 -0.36300
O 	O 	0.84284 0.37630 0.86702 -0.44500
O 	O 	0.75310 0.22170 0.87931 -0.26100
O 	O 	0.66739 0.94870 0.46519 -0.42100
O 	O 	0.58431 0.94620 0.54175 -0.49500
O 	O 	0.92042 0.68070 0.48266 -0.46000
O 	O 	0.99010 0.66660 0.56624 -0.47600
C 	C 	0.90580 0.24920 0.70281 -0.04300
C 	C 	0.88150 0.12830 0.68732 -0.08600
H 	H 	0.89900 0.09550 0.65130 0.08400
C 	C 	0.83240 0.05520 0.72342 0.09400
C 	C 	0.80730 0.10510 0.77590 -0.07400
H 	H 	0.77150 0.05760 0.80040 0.06900
C 	C 	0.83400 0.22380 0.79315 -0.07600
C 	C 	0.88350 0.29640 0.75608 -0.00100
H 	H 	0.90170 0.37750 0.76730 0.03900
C 	C 	0.80780 0.92190 0.70875 -0.23300
H 	H 	0.75130 0.90460 0.72570 0.10100
H 	H 	0.84910 0.86480 0.72730 0.09800
C 	C 	0.80410 0.89040 0.64573 0.06600
C 	C 	0.73450 0.92680 0.61243 -0.03800
H 	H 	0.68930 0.97230 0.62970 0.05300
C 	C 	0.73030 0.89750 0.55452 -0.10300
C 	C 	0.79640 0.82930 0.52909 0.04300
H 	H 	0.79460 0.81090 0.48930 0.05800
C 	C 	0.86430 0.78870 0.56211 -0.10800
C 	C 	0.86810 0.82000 0.61976 -0.03800
H 	H 	0.91520 0.79300 0.64200 0.05000
C 	C 	0.95680 0.32500 0.66115 0.30200
C 	C 	0.80860 0.27680 0.85048 0.37900
C 	C 	0.65540 0.93330 0.51855 0.42800
C 	C 	0.93050 0.70590 0.53481 0.45100
Er	Er	0.54764 0.03088 0.41594 1.81600
O 	O 	0.46542 0.05780 0.33083 -0.41100
O 	O 	0.49034 0.22760 0.38062 -0.36300
O 	O 	0.34284 0.12370 0.13298 -0.44500
O 	O 	0.25310 0.27830 0.12069 -0.26200
O 	O 	0.16739 0.55130 0.53481 -0.42200
O 	O 	0.08431 0.55380 0.45825 -0.49500
O 	O 	0.42042 0.81930 0.51734 -0.46000
O 	O 	0.49010 0.83340 0.43376 -0.47500
C 	C 	0.40580 0.25080 0.29719 -0.04400
C 	C 	0.38150 0.37170 0.31268 -0.08400
H 	H 	0.39900 0.40450 0.34870 0.08400
C 	C 	0.33240 0.44480 0.27658 0.09200
C 	C 	0.30730 0.39490 0.22410 -0.07300
H 	H 	0.27150 0.44240 0.19960 0.06800
C 	C 	0.33400 0.27620 0.20685 -0.07700
C 	C 	0.38350 0.20360 0.24392 -0.00000
H 	H 	0.40170 0.12250 0.23270 0.03900
C 	C 	0.30780 0.57810 0.29125 -0.23100
H 	H 	0.25130 0.59540 0.27430 0.10000
H 	H 	0.34910 0.63520 0.27270 0.09800
C 	C 	0.30410 0.60960 0.35427 0.06600
C 	C 	0.23450 0.57320 0.38757 -0.03700
H 	H 	0.18930 0.52770 0.37030 0.05300
C 	C 	0.23030 0.60250 0.44548 -0.10400
C 	C 	0.29640 0.67070 0.47091 0.04400
H 	H 	0.29460 0.68910 0.51070 0.05800
C 	C 	0.36430 0.71130 0.43789 -0.10800
C 	C 	0.36810 0.68000 0.38024 -0.03800
H 	H 	0.41520 0.70700 0.35800 0.05000
C 	C 	0.45680 0.17500 0.33885 0.30200
C 	C 	0.30860 0.22320 0.14952 0.38000
C 	C 	0.15540 0.56670 0.48145 0.42800
C 	C 	0.43050 0.79410 0.46519 0.45100
Er	Er	0.95236 0.46912 0.91594 1.81300
O 	O 	0.03458 0.44220 0.83083 -0.41000
O 	O 	0.00966 0.27240 0.88062 -0.36200
O 	O 	0.15716 0.37630 0.63298 -0.44500
O 	O 	0.24690 0.22170 0.62069 -0.26100
O 	O 	0.33261 0.94870 0.03481 -0.41900
O 	O 	0.41569 0.94620 0.95825 -0.49400
O 	O 	0.07958 0.68070 0.01734 -0.46000
O 	O 	0.00990 0.66660 0.93376 -0.47500
C 	C 	0.09420 0.24920 0.79719 -0.04200
C 	C 	0.11850 0.12830 0.81268 -0.08600
H 	H 	0.10100 0.09550 0.84870 0.08500
C 	C 	0.16760 0.05520 0.77658 0.09600
C 	C 	0.19270 0.10510 0.72410 -0.07400
H 	H 	0.22850 0.05760 0.69960 0.06900
C 	C 	0.16600 0.22380 0.70685 -0.07600
C 	C 	0.11650 0.29640 0.74392 -0.00100
H 	H 	0.09830 0.37750 0.73270 0.04000
C 	C 	0.19220 0.92190 0.79125 -0.23500
H 	H 	0.24870 0.90460 0.77430 0.10100
H 	H 	0.15090 0.86480 0.77270 0.09900
C 	C 	0.19590 0.89040 0.85427 0.06700
C 	C 	0.26550 0.92680 0.88757 -0.03900
H 	H 	0.31070 0.97230 0.87030 0.05300
C 	C 	0.26970 0.89750 0.94548 -0.10200
C 	C 	0.20360 0.82930 0.97091 0.04100
H 	H 	0.20540 0.81090 0.01070 0.06000
C 	C 	0.13570 0.78870 0.93789 -0.10700
C 	C 	0.13190 0.82000 0.88024 -0.04000
H 	H 	0.08480 0.79300 0.85800 0.05000
C 	C 	0.04320 0.32500 0.83885 0.30200
C 	C 	0.19140 0.27680 0.64952 0.38000
C 	C 	0.34460 0.93330 0.98145 0.42500
C 	C 	0.06950 0.70590 0.96519 0.45000
