data_crystal

_cell_length_a 18.80420
_cell_length_b 22.23400
_cell_length_c 25.96450
_cell_angle_alpha 90.00000
_cell_angle_beta  92.09800
_cell_angle_gamma 90.00000

_symmetry_space_group_name_	'P 1'
_symmetry_space_group_name_H-M	'P 1'

loop_
_symmetry_equiv_pos_as_xyz
  x,y,z

loop_
_atom_site_label
_atom_site_type_symbol
_atom_site_fract_x
_atom_site_fract_y
_atom_site_fract_z
_atom_site_charge
Cd	Cd	0.64359 0.55386 0.40440 1.20600
Cd	Cd	0.74496 0.64604 0.49614 1.22500
Cd	Cd	0.84619 0.56799 0.59866 1.20000
Cd	Cd	0.49323 0.87689 0.74549 1.13500
Cd	Cd	0.85518 0.31237 0.09851 1.20100
Cd	Cd	0.74807 0.39665 0.00263 1.22500
Cd	Cd	0.84723 0.80943 0.09581 1.20500
Cd	Cd	0.85641 0.05386 0.59560 1.20600
Cd	Cd	0.75504 0.14604 0.50386 1.22500
Cd	Cd	0.65381 0.06799 0.40134 1.20000
Cd	Cd	0.00677 0.37689 0.25451 1.13400
Cd	Cd	0.64482 0.81237 0.90149 1.20000
Cd	Cd	0.75193 0.89665 0.99737 1.22300
Cd	Cd	0.65277 0.30943 0.90419 1.20400
Cd	Cd	0.35641 0.44614 0.59560 1.20500
Cd	Cd	0.25504 0.35396 0.50386 1.22400
Cd	Cd	0.15381 0.43201 0.40134 1.19900
Cd	Cd	0.50677 0.12311 0.25451 1.13400
Cd	Cd	0.14482 0.68763 0.90149 1.20000
Cd	Cd	0.25193 0.60335 0.99737 1.22400
Cd	Cd	0.15277 0.19057 0.90419 1.20400
Cd	Cd	0.14359 0.94614 0.40440 1.20500
Cd	Cd	0.24496 0.85396 0.49614 1.22400
Cd	Cd	0.34619 0.93201 0.59866 1.19900
Cd	Cd	0.99323 0.62311 0.74549 1.13400
Cd	Cd	0.35518 0.18763 0.09851 1.20000
Cd	Cd	0.24807 0.10335 0.00263 1.22300
Cd	Cd	0.34723 0.69057 0.09581 1.20400
H 	H 	0.64530 0.56040 0.21650 0.06200
H 	H 	0.67290 0.52730 0.13570 0.04300
H 	H 	0.75190 0.37490 0.19970 0.03600
H 	H 	0.72160 0.40820 0.27930 0.05400
H 	H 	0.74810 0.61940 0.29730 0.04000
H 	H 	0.77350 0.65660 0.21820 0.05800
H 	H 	0.84060 0.81030 0.28270 0.06200
H 	H 	0.81580 0.77390 0.36280 0.04200
H 	H 	0.46100 0.70440 0.41870 0.05300
H 	H 	0.39220 0.77890 0.45440 0.04000
H 	H 	0.52020 0.77900 0.58100 0.02400
H 	H 	0.58990 0.70660 0.54430 0.04600
H 	H 	0.68270 0.79570 0.61600 0.05700
H 	H 	0.64830 0.84070 0.69130 -0.01800
H 	H 	0.69080 0.68790 0.76810 0.02700
H 	H 	0.72640 0.64280 0.69320 0.05400
H 	H 	0.03190 0.46400 0.08170 0.02900
H 	H 	0.89800 0.46410 0.95750 0.04200
H 	H 	0.80080 0.43210 0.72850 0.03100
H 	H 	0.77140 0.38630 0.80440 0.06000
H 	H 	0.80160 0.54310 0.87920 0.05700
H 	H 	0.83750 0.58740 0.80330 -0.01500
H 	H 	0.45910 0.45110 0.92580 0.04800
H 	H 	0.60750 0.47370 0.03890 0.04100
H 	H 	0.66260 0.39380 0.44200 0.05800
H 	H 	0.69930 0.30850 0.48530 0.03900
H 	H 	0.77700 0.31350 0.55620 0.05300
H 	H 	0.82120 0.40430 0.58570 0.04300
H 	H 	0.68960 0.14880 0.92370 0.06400
H 	H 	0.73740 0.06150 0.95650 0.04600
H 	H 	0.81040 0.06070 0.02980 0.04700
H 	H 	0.84190 0.14870 0.07120 0.03900
H 	H 	0.85470 0.06040 0.78350 0.06200
H 	H 	0.82710 0.02730 0.86430 0.04300
H 	H 	0.74810 0.87490 0.80030 0.03600
H 	H 	0.77840 0.90820 0.72070 0.05400
H 	H 	0.75190 0.11940 0.70270 0.04000
H 	H 	0.72650 0.15660 0.78180 0.05800
H 	H 	0.65940 0.31030 0.71730 0.06200
H 	H 	0.68420 0.27390 0.63720 0.04200
H 	H 	0.03900 0.20440 0.58130 0.05200
H 	H 	0.10780 0.27890 0.54560 0.04100
H 	H 	0.97980 0.27900 0.41900 0.02400
H 	H 	0.91010 0.20660 0.45570 0.04600
H 	H 	0.81730 0.29570 0.38400 0.05700
H 	H 	0.85170 0.34070 0.30870 -0.01800
H 	H 	0.80920 0.18790 0.23190 0.02700
H 	H 	0.77360 0.14280 0.30680 0.05400
H 	H 	0.46810 0.96400 0.91830 0.02900
H 	H 	0.60200 0.96410 0.04250 0.04100
H 	H 	0.69920 0.93210 0.27150 0.03000
H 	H 	0.72860 0.88630 0.19560 0.06100
H 	H 	0.69840 0.04310 0.12080 0.05800
H 	H 	0.66250 0.08740 0.19670 -0.01500
H 	H 	0.04090 0.95110 0.07420 0.04800
H 	H 	0.89250 0.97370 0.96110 0.04100
H 	H 	0.83740 0.89380 0.55800 0.05800
H 	H 	0.80070 0.80850 0.51470 0.03900
H 	H 	0.72300 0.81350 0.44380 0.05300
H 	H 	0.67880 0.90430 0.41430 0.04300
H 	H 	0.81040 0.64880 0.07630 0.06500
H 	H 	0.76260 0.56150 0.04350 0.04500
H 	H 	0.68960 0.56070 0.97020 0.04800
H 	H 	0.65810 0.64870 0.92880 0.03900
H 	H 	0.35470 0.43960 0.78350 0.06200
H 	H 	0.32710 0.47270 0.86430 0.04300
H 	H 	0.24810 0.62510 0.80030 0.03600
H 	H 	0.27840 0.59180 0.72070 0.05400
H 	H 	0.25190 0.38060 0.70270 0.04000
H 	H 	0.22650 0.34340 0.78180 0.05800
H 	H 	0.15940 0.18970 0.71730 0.06200
H 	H 	0.18420 0.22610 0.63720 0.04200
H 	H 	0.53900 0.29560 0.58130 0.05300
H 	H 	0.60780 0.22110 0.54560 0.04000
H 	H 	0.47980 0.22100 0.41900 0.02400
H 	H 	0.41010 0.29340 0.45570 0.04600
H 	H 	0.31730 0.20430 0.38400 0.05700
H 	H 	0.35170 0.15930 0.30870 -0.01800
H 	H 	0.30920 0.31210 0.23190 0.02700
H 	H 	0.27360 0.35720 0.30680 0.05400
H 	H 	0.96810 0.53600 0.91830 0.02900
H 	H 	0.10200 0.53590 0.04250 0.04200
H 	H 	0.19920 0.56790 0.27150 0.03100
H 	H 	0.22860 0.61370 0.19560 0.06000
H 	H 	0.19840 0.45690 0.12080 0.05700
H 	H 	0.16250 0.41260 0.19670 -0.01500
H 	H 	0.54090 0.54890 0.07420 0.04800
H 	H 	0.39250 0.52630 0.96110 0.04100
H 	H 	0.33740 0.60620 0.55800 0.05800
H 	H 	0.30070 0.69150 0.51470 0.03900
H 	H 	0.22300 0.68650 0.44380 0.05300
H 	H 	0.17880 0.59570 0.41430 0.04300
H 	H 	0.31040 0.85120 0.07630 0.06400
H 	H 	0.26260 0.93850 0.04350 0.04600
H 	H 	0.18960 0.93930 0.97020 0.04700
H 	H 	0.15810 0.85130 0.92880 0.03900
H 	H 	0.14530 0.93960 0.21650 0.06200
H 	H 	0.17290 0.97270 0.13570 0.04300
H 	H 	0.25190 0.12510 0.19970 0.03600
H 	H 	0.22160 0.09180 0.27930 0.05400
H 	H 	0.24810 0.88060 0.29730 0.04000
H 	H 	0.27350 0.84340 0.21820 0.05800
H 	H 	0.34060 0.68970 0.28270 0.06200
H 	H 	0.31580 0.72610 0.36280 0.04200
H 	H 	0.96100 0.79560 0.41870 0.05200
H 	H 	0.89220 0.72110 0.45440 0.04100
H 	H 	0.02020 0.72100 0.58100 0.02400
H 	H 	0.08990 0.79340 0.54430 0.04600
H 	H 	0.18270 0.70430 0.61600 0.05700
H 	H 	0.14830 0.65930 0.69130 -0.01800
H 	H 	0.19080 0.81210 0.76810 0.02700
H 	H 	0.22640 0.85720 0.69320 0.05400
H 	H 	0.53190 0.03600 0.08170 0.02900
H 	H 	0.39800 0.03590 0.95750 0.04100
H 	H 	0.30080 0.06790 0.72850 0.03000
H 	H 	0.27140 0.11370 0.80440 0.06100
H 	H 	0.30160 0.95690 0.87920 0.05800
H 	H 	0.33750 0.91260 0.80330 -0.01500
H 	H 	0.95910 0.04890 0.92580 0.04800
H 	H 	0.10750 0.02630 0.03890 0.04100
H 	H 	0.16260 0.10620 0.44200 0.05800
H 	H 	0.19930 0.19150 0.48530 0.03900
H 	H 	0.27700 0.18650 0.55620 0.05300
H 	H 	0.32120 0.09570 0.58570 0.04300
H 	H 	0.18960 0.35120 0.92370 0.06500
H 	H 	0.23740 0.43850 0.95650 0.04500
H 	H 	0.31040 0.43930 0.02980 0.04800
H 	H 	0.34190 0.35130 0.07120 0.03900
C 	C 	0.65960 0.50900 0.30920 0.27700
C 	C 	0.67870 0.48700 0.25620 -0.04100
C 	C 	0.66590 0.52270 0.21270 -0.05000
C 	C 	0.68300 0.50350 0.16450 -0.00600
C 	C 	0.71600 0.44710 0.15940 -0.08900
C 	C 	0.73000 0.41220 0.20290 -0.01200
C 	C 	0.71170 0.43200 0.25040 -0.05300
C 	C 	0.73550 0.42440 0.10720 0.33100
C 	C 	0.75910 0.66930 0.39090 0.33700
C 	C 	0.77650 0.69280 0.33900 -0.08900
C 	C 	0.76610 0.65820 0.29470 -0.00300
C 	C 	0.78190 0.68030 0.24730 -0.04900
C 	C 	0.81010 0.73730 0.24180 -0.03800
C 	C 	0.82180 0.77180 0.28570 -0.04900
C 	C 	0.80640 0.75030 0.33370 -0.00200
C 	C 	0.82620 0.76170 0.18920 0.27900
C 	C 	0.57870 0.65110 0.45370 0.33000
C 	C 	0.53330 0.69910 0.47730 -0.07300
C 	C 	0.47360 0.72000 0.45100 -0.02900
C 	C 	0.43200 0.76420 0.47260 -0.01500
C 	C 	0.44950 0.78660 0.52100 -0.09700
C 	C 	0.50850 0.76460 0.54810 -0.00500
C 	C 	0.55010 0.72130 0.52610 -0.03900
C 	C 	0.40640 0.83740 0.54290 0.34100
C 	C 	0.73080 0.68500 0.59810 0.31900
C 	C 	0.70920 0.71420 0.64670 -0.05700
C 	C 	0.68470 0.77400 0.64660 -0.06300
C 	C 	0.66340 0.80090 0.69160 0.01100
C 	C 	0.66480 0.76860 0.73690 -0.14000
C 	C 	0.68910 0.70940 0.73740 0.01200
C 	C 	0.71070 0.68250 0.69250 -0.06000
C 	C 	0.64060 0.79710 0.78670 0.38000
C 	C 	0.91580 0.40790 0.04640 0.33800
C 	C 	0.95840 0.45620 0.02290 -0.09200
C 	C 	0.01920 0.47820 0.04890 -0.01600
C 	C 	0.93900 0.47830 0.97460 -0.02600
C 	C 	0.84240 0.54380 0.70810 0.35800
C 	C 	0.82240 0.51450 0.75840 -0.13200
C 	C 	0.80200 0.45420 0.75900 0.01400
C 	C 	0.78350 0.42680 0.80430 -0.05500
C 	C 	0.78300 0.45980 0.85000 -0.05100
C 	C 	0.80250 0.52040 0.84920 -0.06100
C 	C 	0.82320 0.54730 0.80340 0.00800
C 	C 	0.76330 0.43060 0.89980 0.32400
C 	C 	0.58490 0.40580 0.95570 0.33600
C 	C 	0.54200 0.45540 0.97820 -0.08500
C 	C 	0.47580 0.47080 0.95540 -0.02000
C 	C 	0.56430 0.48450 0.02290 -0.02200
C 	C 	0.72000 0.45130 0.48740 0.06500
C 	C 	0.69410 0.39640 0.47040 -0.11600
C 	C 	0.71610 0.34580 0.49640 -0.00700
C 	C 	0.76330 0.34890 0.53950 -0.03700
C 	C 	0.78970 0.40240 0.55730 -0.09400
C 	C 	0.76730 0.45460 0.53100 0.04800
C 	C 	0.73890 0.20340 0.97690 0.07100
C 	C 	0.72020 0.14950 0.95260 -0.11600
C 	C 	0.74840 0.09780 0.97280 -0.01400
C 	C 	0.79330 0.09720 0.01710 -0.03100
C 	C 	0.81220 0.14910 0.04170 -0.09500
C 	C 	0.78550 0.20300 0.02130 0.04000
C 	C 	0.84040 0.00900 0.69080 0.27600
C 	C 	0.82130 0.98700 0.74380 -0.04100
C 	C 	0.83410 0.02270 0.78730 -0.05000
C 	C 	0.81700 0.00350 0.83550 -0.00600
C 	C 	0.78400 0.94710 0.84060 -0.09000
C 	C 	0.77000 0.91220 0.79710 -0.01100
C 	C 	0.78830 0.93200 0.74960 -0.05300
C 	C 	0.76450 0.92440 0.89280 0.33200
C 	C 	0.74090 0.16930 0.60910 0.33700
C 	C 	0.72350 0.19280 0.66100 -0.08900
C 	C 	0.73390 0.15820 0.70530 -0.00300
C 	C 	0.71810 0.18030 0.75270 -0.04900
C 	C 	0.68990 0.23730 0.75820 -0.03800
C 	C 	0.67820 0.27180 0.71430 -0.04900
C 	C 	0.69360 0.25030 0.66630 -0.00200
C 	C 	0.67380 0.26170 0.81080 0.27900
C 	C 	0.92130 0.15110 0.54630 0.33000
C 	C 	0.96670 0.19910 0.52270 -0.07400
C 	C 	0.02640 0.22000 0.54900 -0.02800
C 	C 	0.06800 0.26420 0.52740 -0.01600
C 	C 	0.05050 0.28660 0.47900 -0.09600
C 	C 	0.99150 0.26460 0.45190 -0.00600
C 	C 	0.94990 0.22130 0.47390 -0.03800
C 	C 	0.09360 0.33740 0.45710 0.34100
C 	C 	0.76920 0.18500 0.40190 0.31900
C 	C 	0.79080 0.21420 0.35330 -0.05700
C 	C 	0.81530 0.27400 0.35340 -0.06300
C 	C 	0.83660 0.30090 0.30840 0.01100
C 	C 	0.83520 0.26860 0.26310 -0.14000
C 	C 	0.81090 0.20940 0.26260 0.01200
C 	C 	0.78930 0.18250 0.30750 -0.06000
C 	C 	0.85940 0.29710 0.21330 0.38000
C 	C 	0.58420 0.90790 0.95360 0.33900
C 	C 	0.54160 0.95620 0.97710 -0.09500
C 	C 	0.48080 0.97820 0.95110 -0.01700
C 	C 	0.56100 0.97830 0.02540 -0.02200
C 	C 	0.65760 0.04380 0.29190 0.35900
C 	C 	0.67760 0.01450 0.24160 -0.13500
C 	C 	0.69800 0.95420 0.24100 0.01700
C 	C 	0.71650 0.92680 0.19570 -0.05700
C 	C 	0.71700 0.95980 0.15000 -0.04800
C 	C 	0.69750 0.02040 0.15080 -0.06500
C 	C 	0.67680 0.04730 0.19660 0.01100
C 	C 	0.73670 0.93060 0.10020 0.32400
C 	C 	0.91510 0.90580 0.04430 0.33500
C 	C 	0.95800 0.95540 0.02180 -0.08100
C 	C 	0.02420 0.97080 0.04460 -0.02100
C 	C 	0.93570 0.98450 0.97710 -0.02500
C 	C 	0.78000 0.95130 0.51260 0.06500
C 	C 	0.80590 0.89640 0.52960 -0.11700
C 	C 	0.78390 0.84580 0.50360 -0.00700
C 	C 	0.73670 0.84890 0.46050 -0.03700
C 	C 	0.71030 0.90240 0.44270 -0.09400
C 	C 	0.73270 0.95460 0.46900 0.04800
C 	C 	0.76110 0.70340 0.02310 0.07300
C 	C 	0.77980 0.64950 0.04740 -0.11800
C 	C 	0.75160 0.59780 0.02720 -0.01200
C 	C 	0.70670 0.59720 0.98290 -0.03300
C 	C 	0.68780 0.64910 0.95830 -0.09400
C 	C 	0.71450 0.70300 0.97870 0.03900
C 	C 	0.34040 0.49100 0.69080 0.27700
C 	C 	0.32130 0.51300 0.74380 -0.04100
C 	C 	0.33410 0.47730 0.78730 -0.05000
C 	C 	0.31700 0.49650 0.83550 -0.00600
C 	C 	0.28400 0.55290 0.84060 -0.08900
C 	C 	0.27000 0.58780 0.79710 -0.01200
C 	C 	0.28830 0.56800 0.74960 -0.05300
C 	C 	0.26450 0.57560 0.89280 0.33100
C 	C 	0.24090 0.33070 0.60910 0.33700
C 	C 	0.22350 0.30720 0.66100 -0.08900
C 	C 	0.23390 0.34180 0.70530 -0.00300
C 	C 	0.21810 0.31970 0.75270 -0.04900
C 	C 	0.18990 0.26270 0.75820 -0.03800
C 	C 	0.17820 0.22820 0.71430 -0.04900
C 	C 	0.19360 0.24970 0.66630 -0.00200
C 	C 	0.17380 0.23830 0.81080 0.27900
C 	C 	0.42130 0.34890 0.54630 0.33000
C 	C 	0.46670 0.30090 0.52270 -0.07300
C 	C 	0.52640 0.28000 0.54900 -0.02900
C 	C 	0.56800 0.23580 0.52740 -0.01500
C 	C 	0.55050 0.21340 0.47900 -0.09700
C 	C 	0.49150 0.23540 0.45190 -0.00500
C 	C 	0.44990 0.27870 0.47390 -0.03900
C 	C 	0.59360 0.16260 0.45710 0.34100
C 	C 	0.26920 0.31500 0.40190 0.31900
C 	C 	0.29080 0.28580 0.35330 -0.05700
C 	C 	0.31530 0.22600 0.35340 -0.06300
C 	C 	0.33660 0.19910 0.30840 0.01100
C 	C 	0.33520 0.23140 0.26310 -0.14000
C 	C 	0.31090 0.29060 0.26260 0.01200
C 	C 	0.28930 0.31750 0.30750 -0.06000
C 	C 	0.35940 0.20290 0.21330 0.38000
C 	C 	0.08420 0.59210 0.95360 0.33800
C 	C 	0.04160 0.54380 0.97710 -0.09200
C 	C 	0.98080 0.52180 0.95110 -0.01600
C 	C 	0.06100 0.52170 0.02540 -0.02600
C 	C 	0.15760 0.45620 0.29190 0.35800
C 	C 	0.17760 0.48550 0.24160 -0.13200
C 	C 	0.19800 0.54580 0.24100 0.01400
C 	C 	0.21650 0.57320 0.19570 -0.05500
C 	C 	0.21700 0.54020 0.15000 -0.05100
C 	C 	0.19750 0.47960 0.15080 -0.06100
C 	C 	0.17680 0.45270 0.19660 0.00800
C 	C 	0.23670 0.56940 0.10020 0.32400
C 	C 	0.41510 0.59420 0.04430 0.33600
C 	C 	0.45800 0.54460 0.02180 -0.08500
C 	C 	0.52420 0.52920 0.04460 -0.02000
C 	C 	0.43570 0.51550 0.97710 -0.02200
C 	C 	0.28000 0.54870 0.51260 0.06500
C 	C 	0.30590 0.60360 0.52960 -0.11600
C 	C 	0.28390 0.65420 0.50360 -0.00700
C 	C 	0.23670 0.65110 0.46050 -0.03700
C 	C 	0.21030 0.59760 0.44270 -0.09400
C 	C 	0.23270 0.54540 0.46900 0.04800
C 	C 	0.26110 0.79660 0.02310 0.07100
C 	C 	0.27980 0.85050 0.04740 -0.11600
C 	C 	0.25160 0.90220 0.02720 -0.01400
C 	C 	0.20670 0.90280 0.98290 -0.03100
C 	C 	0.18780 0.85090 0.95830 -0.09500
C 	C 	0.21450 0.79700 0.97870 0.04000
C 	C 	0.15960 0.99100 0.30920 0.27600
C 	C 	0.17870 0.01300 0.25620 -0.04100
C 	C 	0.16590 0.97730 0.21270 -0.05000
C 	C 	0.18300 0.99650 0.16450 -0.00600
C 	C 	0.21600 0.05290 0.15940 -0.09000
C 	C 	0.23000 0.08780 0.20290 -0.01100
C 	C 	0.21170 0.06800 0.25040 -0.05300
C 	C 	0.23550 0.07560 0.10720 0.33200
C 	C 	0.25910 0.83070 0.39090 0.33700
C 	C 	0.27650 0.80720 0.33900 -0.08900
C 	C 	0.26610 0.84180 0.29470 -0.00300
C 	C 	0.28190 0.81970 0.24730 -0.04900
C 	C 	0.31010 0.76270 0.24180 -0.03800
C 	C 	0.32180 0.72820 0.28570 -0.04900
C 	C 	0.30640 0.74970 0.33370 -0.00200
C 	C 	0.32620 0.73830 0.18920 0.27900
C 	C 	0.07870 0.84890 0.45370 0.33000
C 	C 	0.03330 0.80090 0.47730 -0.07400
C 	C 	0.97360 0.78000 0.45100 -0.02800
C 	C 	0.93200 0.73580 0.47260 -0.01600
C 	C 	0.94950 0.71340 0.52100 -0.09600
C 	C 	0.00850 0.73540 0.54810 -0.00600
C 	C 	0.05010 0.77870 0.52610 -0.03800
C 	C 	0.90640 0.66260 0.54290 0.34100
C 	C 	0.23080 0.81500 0.59810 0.31900
C 	C 	0.20920 0.78580 0.64670 -0.05700
C 	C 	0.18470 0.72600 0.64660 -0.06300
C 	C 	0.16340 0.69910 0.69160 0.01100
C 	C 	0.16480 0.73140 0.73690 -0.14000
C 	C 	0.18910 0.79060 0.73740 0.01200
C 	C 	0.21070 0.81750 0.69250 -0.06000
C 	C 	0.14060 0.70290 0.78670 0.38000
C 	C 	0.41580 0.09210 0.04640 0.33900
C 	C 	0.45840 0.04380 0.02290 -0.09500
C 	C 	0.51920 0.02180 0.04890 -0.01700
C 	C 	0.43900 0.02170 0.97460 -0.02200
C 	C 	0.34240 0.95620 0.70810 0.35900
C 	C 	0.32240 0.98550 0.75840 -0.13500
C 	C 	0.30200 0.04580 0.75900 0.01700
C 	C 	0.28350 0.07320 0.80430 -0.05700
C 	C 	0.28300 0.04020 0.85000 -0.04800
C 	C 	0.30250 0.97960 0.84920 -0.06500
C 	C 	0.32320 0.95270 0.80340 0.01100
C 	C 	0.26330 0.06940 0.89980 0.32400
C 	C 	0.08490 0.09420 0.95570 0.33500
C 	C 	0.04200 0.04460 0.97820 -0.08100
C 	C 	0.97580 0.02920 0.95540 -0.02100
C 	C 	0.06430 0.01550 0.02290 -0.02500
C 	C 	0.22000 0.04870 0.48740 0.06500
C 	C 	0.19410 0.10360 0.47040 -0.11700
C 	C 	0.21610 0.15420 0.49640 -0.00700
C 	C 	0.26330 0.15110 0.53950 -0.03700
C 	C 	0.28970 0.09760 0.55730 -0.09400
C 	C 	0.26730 0.04540 0.53100 0.04800
C 	C 	0.23890 0.29660 0.97690 0.07300
C 	C 	0.22020 0.35050 0.95260 -0.11800
C 	C 	0.24840 0.40220 0.97280 -0.01200
C 	C 	0.29330 0.40280 0.01710 -0.03300
C 	C 	0.31220 0.35090 0.04170 -0.09400
C 	C 	0.28550 0.29700 0.02130 0.03900
N 	N 	0.70950 0.50830 0.47038 -0.20700
N 	N 	0.74820 0.54450 0.50148 -0.17900
N 	N 	0.78290 0.51337 0.53835 -0.21000
N 	N 	0.71970 0.26080 0.96754 -0.20800
N 	N 	0.75200 0.29480 0.00337 -0.17800
N 	N 	0.79140 0.26157 0.03667 -0.21100
N 	N 	0.79050 0.00830 0.52962 -0.20700
N 	N 	0.75180 0.04450 0.49852 -0.17900
N 	N 	0.71710 0.01337 0.46165 -0.21000
N 	N 	0.78030 0.76080 0.03246 -0.20800
N 	N 	0.74800 0.79480 0.99663 -0.17800
N 	N 	0.70860 0.76157 0.96333 -0.21100
N 	N 	0.29050 0.49170 0.52962 -0.20700
N 	N 	0.25180 0.45550 0.49852 -0.17900
N 	N 	0.21710 0.48663 0.46165 -0.21000
N 	N 	0.28030 0.73920 0.03246 -0.20800
N 	N 	0.24800 0.70520 0.99663 -0.17800
N 	N 	0.20860 0.73843 0.96333 -0.21100
N 	N 	0.20950 0.99170 0.47038 -0.20700
N 	N 	0.24820 0.95550 0.50148 -0.17900
N 	N 	0.28290 0.98663 0.53835 -0.21000
N 	N 	0.21970 0.23920 0.96754 -0.20800
N 	N 	0.25200 0.20520 0.00337 -0.17800
N 	N 	0.29140 0.23843 0.03667 -0.21100
O 	O 	0.62690 0.55840 0.31330 -0.36100
O 	O 	0.67710 0.47720 0.34742 -0.38800
O 	O 	0.73200 0.45988 0.06921 -0.41200
O 	O 	0.75090 0.36962 0.10309 -0.46900
O 	O 	0.74590 0.61405 0.39563 -0.46300
O 	O 	0.76080 0.70542 0.42854 -0.41600
O 	O 	0.80470 0.73270 0.15064 -0.38100
O 	O 	0.86050 0.81060 0.18608 -0.36800
O 	O 	0.62640 0.62695 0.48128 -0.49800
O 	O 	0.56730 0.63650 0.40745 -0.40100
O 	O 	0.41510 0.84996 0.59064 -0.45800
O 	O 	0.36490 0.86614 0.51399 -0.49400
O 	O 	0.74530 0.62959 0.59842 -0.46200
O 	O 	0.73050 0.71604 0.55720 -0.40600
O 	O 	0.66860 0.77390 0.82670 -0.46300
O 	O 	0.59800 0.83971 0.78617 -0.52100
O 	O 	0.86860 0.38225 0.01934 -0.49600
O 	O 	0.92870 0.39290 0.09306 -0.45000
O 	O 	0.81210 0.52160 0.66832 -0.44400
O 	O 	0.88660 0.58586 0.70674 -0.53000
O 	O 	0.75210 0.37457 0.90020 -0.45600
O 	O 	0.76220 0.46299 0.93930 -0.41400
O 	O 	0.63070 0.37938 0.98372 -0.50000
O 	O 	0.57410 0.39110 0.90936 -0.40100
O 	O 	0.87310 0.05840 0.68670 -0.36100
O 	O 	0.82290 0.97720 0.65258 -0.38800
O 	O 	0.76800 0.95988 0.93079 -0.41200
O 	O 	0.74910 0.86962 0.89691 -0.46900
O 	O 	0.75410 0.11405 0.60437 -0.46300
O 	O 	0.73920 0.20542 0.57146 -0.41600
O 	O 	0.69530 0.23270 0.84936 -0.38100
O 	O 	0.63950 0.31060 0.81392 -0.36900
O 	O 	0.87360 0.12695 0.51872 -0.49800
O 	O 	0.93270 0.13650 0.59255 -0.40100
O 	O 	0.08490 0.34996 0.40936 -0.45800
O 	O 	0.13510 0.36614 0.48601 -0.49400
O 	O 	0.75470 0.12959 0.40158 -0.46200
O 	O 	0.76950 0.21604 0.44280 -0.40600
O 	O 	0.83140 0.27390 0.17330 -0.46300
O 	O 	0.90200 0.33971 0.21383 -0.52100
O 	O 	0.63140 0.88225 0.98066 -0.49700
O 	O 	0.57130 0.89290 0.90694 -0.45000
O 	O 	0.68790 0.02160 0.33168 -0.44500
O 	O 	0.61340 0.08586 0.29326 -0.53000
O 	O 	0.74790 0.87457 0.09980 -0.45500
O 	O 	0.73780 0.96299 0.06070 -0.41300
O 	O 	0.86930 0.87938 0.01628 -0.49900
O 	O 	0.92590 0.89110 0.09064 -0.40000
O 	O 	0.37310 0.44160 0.68670 -0.36100
O 	O 	0.32290 0.52280 0.65258 -0.38800
O 	O 	0.26800 0.54012 0.93079 -0.41200
O 	O 	0.24910 0.63038 0.89691 -0.46900
O 	O 	0.25410 0.38595 0.60437 -0.46300
O 	O 	0.23920 0.29458 0.57146 -0.41600
O 	O 	0.19530 0.26730 0.84936 -0.38100
O 	O 	0.13950 0.18940 0.81392 -0.36800
O 	O 	0.37360 0.37305 0.51872 -0.49800
O 	O 	0.43270 0.36350 0.59255 -0.40100
O 	O 	0.58490 0.15004 0.40936 -0.45800
O 	O 	0.63510 0.13386 0.48601 -0.49400
O 	O 	0.25470 0.37041 0.40158 -0.46200
O 	O 	0.26950 0.28396 0.44280 -0.40600
O 	O 	0.33140 0.22610 0.17330 -0.46300
O 	O 	0.40200 0.16029 0.21383 -0.52100
O 	O 	0.13140 0.61775 0.98066 -0.49600
O 	O 	0.07130 0.60710 0.90694 -0.45000
O 	O 	0.18790 0.47840 0.33168 -0.44400
O 	O 	0.11340 0.41414 0.29326 -0.53000
O 	O 	0.24790 0.62543 0.09980 -0.45600
O 	O 	0.23780 0.53701 0.06070 -0.41400
O 	O 	0.36930 0.62062 0.01628 -0.50000
O 	O 	0.42590 0.60890 0.09064 -0.40100
O 	O 	0.12690 0.94160 0.31330 -0.36100
O 	O 	0.17710 0.02280 0.34742 -0.38800
O 	O 	0.23200 0.04012 0.06921 -0.41200
O 	O 	0.25090 0.13038 0.10309 -0.46900
O 	O 	0.24590 0.88595 0.39563 -0.46300
O 	O 	0.26080 0.79458 0.42854 -0.41600
O 	O 	0.30470 0.76730 0.15064 -0.38100
O 	O 	0.36050 0.68940 0.18608 -0.36900
O 	O 	0.12640 0.87305 0.48128 -0.49800
O 	O 	0.06730 0.86350 0.40745 -0.40100
O 	O 	0.91510 0.65004 0.59064 -0.45800
O 	O 	0.86490 0.63386 0.51399 -0.49400
O 	O 	0.24530 0.87041 0.59842 -0.46200
O 	O 	0.23050 0.78396 0.55720 -0.40600
O 	O 	0.16860 0.72610 0.82670 -0.46300
O 	O 	0.09800 0.66029 0.78617 -0.52100
O 	O 	0.36860 0.11775 0.01934 -0.49700
O 	O 	0.42870 0.10710 0.09306 -0.45000
O 	O 	0.31210 0.97840 0.66832 -0.44500
O 	O 	0.38660 0.91414 0.70674 -0.53000
O 	O 	0.25210 0.12543 0.90020 -0.45500
O 	O 	0.26220 0.03701 0.93930 -0.41300
O 	O 	0.13070 0.12062 0.98372 -0.49900
O 	O 	0.07410 0.10890 0.90936 -0.40000
