data_crystal

_cell_length_a 11.44300
_cell_length_b 9.82800
_cell_length_c 19.07400
_cell_angle_alpha 90.00000
_cell_angle_beta  107.24900
_cell_angle_gamma 90.00000

_symmetry_space_group_name_	'P 1'
_symmetry_space_group_name_H-M	'P 1'

loop_
_symmetry_equiv_pos_as_xyz
  x,y,z

loop_
_atom_site_label
_atom_site_type_symbol
_atom_site_fract_x
_atom_site_fract_y
_atom_site_fract_z
_atom_site_charge
Cd	Cd	0.34985 0.31790 0.74152 1.08700
C 	C 	0.06870 0.25940 0.64980 0.06600
H 	H 	0.10960 0.20900 0.62160 -0.07400
C 	C 	0.94380 0.25670 0.62840 -0.17000
H 	H 	0.89990 0.20550 0.58670 0.06300
C 	C 	0.88240 0.32920 0.66810 0.09200
C 	C 	0.95120 0.39930 0.72800 -0.17200
H 	H 	0.91220 0.45120 0.75670 0.04800
C 	C 	0.07690 0.39480 0.74690 0.06600
H 	H 	0.12270 0.44140 0.78990 -0.03300
C 	C 	0.74470 0.33070 0.64410 -0.09800
H 	H 	0.71620 0.39160 0.67700 -0.00700
H 	H 	0.71520 0.36860 0.59380 0.01400
C 	C 	0.63680 0.11920 0.58520 -0.02700
H 	H 	0.62480 0.14220 0.53520 -0.00500
C 	C 	0.60290 0.00300 0.61110 -0.03900
H 	H 	0.56110 0.92970 0.58170 -0.03500
C 	C 	0.69080 0.12540 0.70530 0.14800
C 	C 	0.74250 0.17560 0.78110 -0.44600
H 	H 	0.73200 0.10630 0.81570 0.05900
H 	H 	0.70010 0.25920 0.78750 0.07300
H 	H 	0.82990 0.19470 0.79040 0.13500
N 	N 	0.13710 0.32840 0.70780 -0.29000
N 	N 	0.69160 0.19720 0.64460 -0.14300
N 	N 	0.63830 0.00670 0.68640 -0.30900
Cd	Cd	0.65015 0.81790 0.75848 1.08600
C 	C 	0.93130 0.75940 0.85020 0.06200
H 	H 	0.89040 0.70900 0.87840 -0.07400
C 	C 	0.05620 0.75670 0.87160 -0.16800
H 	H 	0.10010 0.70550 0.91330 0.06200
C 	C 	0.11760 0.82920 0.83190 0.08900
C 	C 	0.04880 0.89930 0.77200 -0.16700
H 	H 	0.08780 0.95120 0.74330 0.04700
C 	C 	0.92310 0.89480 0.75310 0.06200
H 	H 	0.87730 0.94140 0.71010 -0.03200
C 	C 	0.25530 0.83070 0.85590 -0.09600
H 	H 	0.28380 0.89160 0.82300 -0.00700
H 	H 	0.28480 0.86860 0.90620 0.01400
C 	C 	0.36320 0.61920 0.91480 -0.02600
H 	H 	0.37520 0.64220 0.96480 -0.00500
C 	C 	0.39710 0.50300 0.88890 -0.04100
H 	H 	0.43890 0.42970 0.91830 -0.03400
C 	C 	0.30920 0.62540 0.79470 0.14700
C 	C 	0.25750 0.67560 0.71890 -0.44500
H 	H 	0.26800 0.60630 0.68430 0.05800
H 	H 	0.29990 0.75920 0.71250 0.07300
H 	H 	0.17010 0.69470 0.70960 0.13500
N 	N 	0.86290 0.82840 0.79220 -0.28900
N 	N 	0.30840 0.69720 0.85540 -0.14300
N 	N 	0.36170 0.50670 0.81360 -0.30900
Cd	Cd	0.65015 0.68210 0.25848 1.08600
C 	C 	0.93130 0.74060 0.35020 0.06500
H 	H 	0.89040 0.79100 0.37840 -0.07500
C 	C 	0.05620 0.74330 0.37160 -0.17100
H 	H 	0.10010 0.79450 0.41330 0.06300
C 	C 	0.11760 0.67080 0.33190 0.09200
C 	C 	0.04880 0.60070 0.27200 -0.17200
H 	H 	0.08780 0.54880 0.24330 0.04800
C 	C 	0.92310 0.60520 0.25310 0.06600
H 	H 	0.87730 0.55860 0.21010 -0.03300
C 	C 	0.25530 0.66930 0.35590 -0.09800
H 	H 	0.28380 0.60840 0.32300 -0.00700
H 	H 	0.28480 0.63140 0.40620 0.01400
C 	C 	0.36320 0.88080 0.41480 -0.02700
H 	H 	0.37520 0.85780 0.46480 -0.00500
C 	C 	0.39710 0.99700 0.38890 -0.03900
H 	H 	0.43890 0.07030 0.41830 -0.03500
C 	C 	0.30920 0.87460 0.29470 0.14800
C 	C 	0.25750 0.82440 0.21890 -0.44600
H 	H 	0.26800 0.89370 0.18430 0.05900
H 	H 	0.29990 0.74080 0.21250 0.07300
H 	H 	0.17010 0.80530 0.20960 0.13500
N 	N 	0.86290 0.67160 0.29220 -0.29000
N 	N 	0.30840 0.80280 0.35540 -0.14300
N 	N 	0.36170 0.99330 0.31360 -0.30900
Cd	Cd	0.34985 0.18210 0.24152 1.08600
C 	C 	0.06870 0.24060 0.14980 0.06200
H 	H 	0.10960 0.29100 0.12160 -0.07400
C 	C 	0.94380 0.24330 0.12840 -0.16800
H 	H 	0.89990 0.29450 0.08670 0.06200
C 	C 	0.88240 0.17080 0.16810 0.08900
C 	C 	0.95120 0.10070 0.22800 -0.16700
H 	H 	0.91220 0.04880 0.25670 0.04700
C 	C 	0.07690 0.10520 0.24690 0.06200
H 	H 	0.12270 0.05860 0.28990 -0.03200
C 	C 	0.74470 0.16930 0.14410 -0.09600
H 	H 	0.71620 0.10840 0.17700 -0.00700
H 	H 	0.71520 0.13140 0.09380 0.01400
C 	C 	0.63680 0.38080 0.08520 -0.02600
H 	H 	0.62480 0.35780 0.03520 -0.00500
C 	C 	0.60290 0.49700 0.11110 -0.04100
H 	H 	0.56110 0.57030 0.08170 -0.03400
C 	C 	0.69080 0.37460 0.20530 0.14700
C 	C 	0.74250 0.32440 0.28110 -0.44500
H 	H 	0.73200 0.39370 0.31570 0.05800
H 	H 	0.70010 0.24080 0.28750 0.07300
H 	H 	0.82990 0.30530 0.29040 0.13500
N 	N 	0.13710 0.17160 0.20780 -0.28900
N 	N 	0.69160 0.30280 0.14460 -0.14300
N 	N 	0.63830 0.49330 0.18640 -0.30900
