data_crystal

_cell_length_a 9.83210
_cell_length_b 11.25390
_cell_length_c 14.42250
_cell_angle_alpha 91.19300
_cell_angle_beta  90.00000
_cell_angle_gamma 90.00000

_symmetry_space_group_name_	'P 1'
_symmetry_space_group_name_H-M	'P 1'

loop_
_symmetry_equiv_pos_as_xyz
  x,y,z

loop_
_atom_site_label
_atom_site_type_symbol
_atom_site_fract_x
_atom_site_fract_y
_atom_site_fract_z
_atom_site_charge
Co	Co	0.42056 0.74486 0.36693 1.19700
Co	Co	0.11028 0.74021 0.31090 1.18700
Co	Co	0.92056 0.75514 0.13307 1.23200
Co	Co	0.61028 0.75979 0.18910 1.20500
Co	Co	0.57944 0.25514 0.63307 1.19000
Co	Co	0.88972 0.25979 0.68910 1.22200
Co	Co	0.07944 0.24486 0.86693 1.15700
Co	Co	0.38972 0.24021 0.81090 1.20300
Co	Co	0.50000 0.00000 0.50000 1.18400
Co	Co	-0.00000 0.50000 -0.00000 1.12700
Co	Co	0.50000 0.50000 0.50000 1.21500
Co	Co	-0.00000 0.00000 -0.00000 1.09800
H 	H 	0.75800 0.86100 0.36900 -0.08100
H 	H 	0.03800 0.47500 0.26100 -0.10700
H 	H 	0.87900 0.05500 0.53600 -0.09000
H 	H 	0.21200 0.50900 0.49100 -0.11900
H 	H 	0.34200 0.20100 0.42900 -0.14200
H 	H 	0.69800 0.51600 0.26700 -0.07900
H 	H 	0.25800 0.63900 0.13100 -0.11500
H 	H 	0.53800 0.02500 0.23900 -0.30900
H 	H 	0.37900 0.44500 0.96400 -0.12600
H 	H 	0.71200 0.99100 0.00900 -0.10100
H 	H 	0.84200 0.29900 0.07100 -0.07300
H 	H 	0.19800 0.98400 0.23300 -0.11400
H 	H 	0.24200 0.13900 0.63100 -0.12500
H 	H 	0.96200 0.52500 0.73900 -0.17000
H 	H 	0.12100 0.94500 0.46400 -0.10700
H 	H 	0.78800 0.49100 0.50900 -0.08400
H 	H 	0.65800 0.79900 0.57100 -0.10100
H 	H 	0.30200 0.48400 0.73300 -0.09500
H 	H 	0.74200 0.36100 0.86900 -0.08800
H 	H 	0.46200 0.97500 0.76100 0.03200
H 	H 	0.62100 0.55500 0.03600 -0.07100
H 	H 	0.28800 0.00900 0.99100 -0.09200
H 	H 	0.15800 0.70100 0.92900 -0.15800
H 	H 	0.80200 0.01600 0.76700 -0.05800
C 	C 	0.82840 0.83080 0.33010 0.47300
C 	C 	0.01350 0.51700 0.21200 0.37800
C 	C 	0.78810 0.07580 0.54720 0.50300
C 	C 	0.62860 0.54480 0.31260 0.45400
C 	C 	0.39310 0.24350 0.46990 0.54400
C 	C 	0.22120 0.57200 0.45050 0.50300
C 	C 	0.32840 0.66920 0.16990 0.48300
C 	C 	0.51350 0.98300 0.28800 0.87400
C 	C 	0.28810 0.42420 0.95280 0.67300
C 	C 	0.12860 0.95520 0.18740 0.57300
C 	C 	0.89310 0.25650 0.03010 0.34100
C 	C 	0.72120 0.92800 0.04950 0.48100
C 	C 	0.17160 0.16920 0.66990 0.49000
C 	C 	0.98650 0.48300 0.78800 0.72700
C 	C 	0.21190 0.92420 0.45280 0.49400
C 	C 	0.37140 0.45520 0.68740 0.46200
C 	C 	0.60690 0.75650 0.53010 0.52200
C 	C 	0.77880 0.42800 0.54950 0.48500
C 	C 	0.67160 0.33080 0.83010 0.47900
C 	C 	0.48650 0.01700 0.71200 0.23600
C 	C 	0.71190 0.57580 0.04720 0.32100
C 	C 	0.87140 0.04480 0.81260 0.33800
C 	C 	0.10690 0.74350 0.96990 0.70200
C 	C 	0.27880 0.07200 0.95050 0.49400
O 	O 	0.80017 0.80867 0.24547 -0.53200
O 	O 	0.93970 0.81617 0.36827 -0.36100
O 	O 	0.00485 0.62874 0.21954 -0.58000
O 	O 	0.99560 0.45697 0.14047 -0.32400
O 	O 	0.24287 0.84700 0.39150 -0.56000
O 	O 	0.70890 0.01782 0.49772 -0.45600
O 	O 	0.58356 0.64968 0.30478 -0.54200
O 	O 	0.60430 0.47667 0.37617 -0.42000
O 	O 	0.47260 0.18453 0.52343 -0.57100
O 	O 	0.38470 0.35115 0.46665 -0.46500
O 	O 	0.34520 0.60274 0.43994 -0.56100
O 	O 	0.12208 0.61331 0.40961 -0.46900
O 	O 	0.30017 0.69133 0.25453 -0.55900
O 	O 	0.43970 0.68383 0.13173 -0.44700
O 	O 	0.50485 0.87126 0.28046 -0.65600
O 	O 	0.49560 0.04303 0.35953 -0.58000
O 	O 	0.74287 0.65300 0.10850 -0.50800
O 	O 	0.20890 0.48218 0.00228 -0.57500
O 	O 	0.08356 0.85032 0.19522 -0.61100
O 	O 	0.10430 0.02333 0.12383 -0.56100
O 	O 	0.97260 0.31547 0.97657 -0.38700
O 	O 	0.88470 0.14885 0.03335 -0.41600
O 	O 	0.84520 0.89726 0.06006 -0.51800
O 	O 	0.62208 0.88669 0.09039 -0.43300
O 	O 	0.19983 0.19133 0.75453 -0.58500
O 	O 	0.06030 0.18383 0.63173 -0.50400
O 	O 	0.99515 0.37126 0.78046 -0.57500
O 	O 	0.00440 0.54303 0.85953 -0.53600
O 	O 	0.75713 0.15300 0.60850 -0.55600
O 	O 	0.29110 0.98218 0.50228 -0.39700
O 	O 	0.41644 0.35032 0.69522 -0.55200
O 	O 	0.39570 0.52333 0.62383 -0.42600
O 	O 	0.52740 0.81547 0.47657 -0.54400
O 	O 	0.61530 0.64885 0.53335 -0.44200
O 	O 	0.65480 0.39726 0.56006 -0.54900
O 	O 	0.87792 0.38669 0.59039 -0.40500
O 	O 	0.69983 0.30867 0.74547 -0.55700
O 	O 	0.56030 0.31617 0.86827 -0.41500
O 	O 	0.49515 0.12874 0.71954 -0.50400
O 	O 	0.50440 0.95697 0.64047 -0.29900
O 	O 	0.25713 0.34700 0.89150 -0.60500
O 	O 	0.79110 0.51782 0.99772 -0.26200
O 	O 	0.91644 0.14968 0.80478 -0.47500
O 	O 	0.89570 0.97667 0.87617 -0.25100
O 	O 	0.02740 0.68453 0.02343 -0.70200
O 	O 	0.11530 0.85115 0.96665 -0.44500
O 	O 	0.15480 0.10274 0.93994 -0.55800
O 	O 	0.37792 0.11331 0.90961 -0.43800
