data_crystal

_cell_length_a 6.81810
_cell_length_b 38.41220
_cell_length_c 38.41220
_cell_angle_alpha 60.34680
_cell_angle_beta  86.60800
_cell_angle_gamma 93.39200

_symmetry_space_group_name_	'P 1'
_symmetry_space_group_name_H-M	'P 1'

loop_
_symmetry_equiv_pos_as_xyz
  x,y,z

loop_
_atom_site_label
_atom_site_type_symbol
_atom_site_fract_x
_atom_site_fract_y
_atom_site_fract_z
_atom_site_charge
Mg	Mg	0.16580 0.36339 0.32828 1.48000
Mg	Mg	0.83765 0.63724 0.67185 1.48500
Mg	Mg	0.49408 0.32828 0.30833 1.48200
Mg	Mg	0.50950 0.67185 0.69091 1.48500
Mg	Mg	0.80241 0.30833 0.36339 1.48200
Mg	Mg	0.20041 0.69091 0.63724 1.48500
H 	H 	0.01897 0.45087 0.52076 0.07300
H 	H 	0.11557 0.43462 0.56733 0.06600
H 	H 	0.01776 0.48140 0.54202 0.07200
H 	H 	0.37232 0.53854 0.37704 0.06100
H 	H 	0.12699 0.54429 0.39188 0.05500
H 	H 	0.32566 0.54385 0.41949 0.06600
H 	H 	0.14134 0.34658 0.47731 0.07600
H 	H 	0.12321 0.34841 0.52183 0.07100
H 	H 	0.90927 0.35472 0.49556 0.08100
H 	H 	0.64550 0.50190 0.44219 0.04700
H 	H 	0.28968 0.40588 0.51315 0.05400
H 	H 	0.06135 0.48569 0.38176 0.02600
H 	H 	0.32187 0.56023 0.58464 0.09000
H 	H 	0.53835 0.58697 0.61393 -0.02700
H 	H 	0.85048 0.62108 0.59806 0.13100
H 	H 	0.15075 0.37653 0.40754 0.11700
H 	H 	0.46996 0.41382 0.38582 -0.01300
H 	H 	0.68128 0.44049 0.41600 0.08500
H 	H 	0.93957 0.51308 0.62236 0.03000
H 	H 	0.70278 0.59270 0.49174 0.05300
H 	H 	0.34972 0.49661 0.56266 0.04500
H 	H 	0.08432 0.64426 0.50829 0.06900
H 	H 	0.86656 0.65041 0.48306 0.06800
H 	H 	0.85457 0.65188 0.52779 0.07300
H 	H 	0.66967 0.45477 0.58541 0.06700
H 	H 	0.87030 0.45437 0.61261 0.05900
H 	H 	0.62605 0.46019 0.62785 0.06100
H 	H 	0.97743 0.51723 0.46268 0.07700
H 	H 	0.87919 0.56398 0.43749 0.06900
H 	H 	0.97611 0.54770 0.48403 0.07700
H 	H 	0.53973 0.52076 0.02837 0.07300
H 	H 	0.68290 0.56733 0.99805 0.06600
H 	H 	0.55978 0.54202 0.97658 0.07200
H 	H 	0.74936 0.37704 0.08442 0.06400
H 	H 	0.51887 0.39188 0.06383 0.05800
H 	H 	0.74515 0.41949 0.03666 0.06900
H 	H 	0.61865 0.47731 0.17611 0.07400
H 	H 	0.64504 0.52183 0.12976 0.06800
H 	H 	0.40483 0.49556 0.14972 0.06900
H 	H 	0.08769 0.44219 0.05591 0.04800
H 	H 	0.80283 0.51315 0.08097 0.05200
H 	H 	0.44311 0.38176 0.13255 0.03300
H 	H 	0.90651 0.58464 0.85513 0.09100
H 	H 	0.15228 0.61393 0.79910 -0.02600
H 	H 	0.44854 0.59806 0.78086 0.13200
H 	H 	0.55829 0.40754 0.21593 0.10700
H 	H 	0.85578 0.38582 0.20036 0.00100
H 	H 	0.09728 0.41600 0.14351 0.07300
H 	H 	0.56193 0.62236 0.86456 0.02900
H 	H 	0.19452 0.49174 0.91556 0.05300
H 	H 	0.91238 0.56266 0.94073 0.04300
H 	H 	0.59261 0.50829 0.84745 0.07200
H 	H 	0.34962 0.48306 0.86653 0.06800
H 	H 	0.38236 0.52779 0.82033 0.07400
H 	H 	0.25508 0.58541 0.95982 0.06500
H 	H 	0.48291 0.61261 0.93302 0.05700
H 	H 	0.25390 0.62785 0.91196 0.05900
H 	H 	0.44011 0.46268 0.02009 0.07600
H 	H 	0.31668 0.43749 0.99853 0.06800
H 	H 	0.46014 0.48403 0.96827 0.07700
H 	H 	0.56810 0.02837 0.45087 0.07400
H 	H 	0.68095 0.99805 0.43462 0.06600
H 	H 	0.53636 0.97658 0.48140 0.07200
H 	H 	0.83378 0.08442 0.53854 0.06400
H 	H 	0.58270 0.06383 0.54429 0.05800
H 	H 	0.78181 0.03666 0.54385 0.06900
H 	H 	0.79476 0.17611 0.34658 0.07500
H 	H 	0.77480 0.12976 0.34841 0.06900
H 	H 	0.55455 0.14972 0.35472 0.07000
H 	H 	0.14360 0.05591 0.50190 0.04700
H 	H 	0.88380 0.08097 0.40588 0.05200
H 	H 	0.57566 0.13255 0.48569 0.03300
H 	H 	0.76164 0.85513 0.56023 0.09200
H 	H 	0.95138 0.79910 0.58697 -0.02700
H 	H 	0.22940 0.78086 0.62108 0.13200
H 	H 	0.77422 0.21593 0.37653 0.10900
H 	H 	0.05614 0.20036 0.41382 -0.01300
H 	H 	0.24079 0.14351 0.44049 0.07500
H 	H 	0.42649 0.86456 0.51308 0.02900
H 	H 	0.11008 0.91556 0.59270 0.05300
H 	H 	0.85311 0.94073 0.49661 0.04300
H 	H 	0.44006 0.84745 0.64426 0.07100
H 	H 	0.21615 0.86653 0.65041 0.06900
H 	H 	0.20269 0.82033 0.65188 0.07400
H 	H 	0.21490 0.95982 0.45477 0.06500
H 	H 	0.41593 0.93302 0.45437 0.05700
H 	H 	0.16586 0.91196 0.46019 0.06000
H 	H 	0.46020 0.02009 0.51723 0.07500
H 	H 	0.31521 0.99853 0.56398 0.06800
H 	H 	0.42841 0.96827 0.54770 0.07600
C 	C 	0.10364 0.46045 0.53814 -0.21600
C 	C 	0.26523 0.53077 0.40266 -0.19000
C 	C 	0.07219 0.36117 0.49211 -0.24600
C 	C 	0.68840 0.51840 0.48587 0.06000
C 	C 	0.58059 0.50086 0.46845 -0.08100
C 	C 	0.39027 0.48198 0.48434 -0.02200
C 	C 	0.11144 0.46827 0.41048 -0.02700
C 	C 	0.22214 0.48684 0.42656 0.02400
C 	C 	0.28350 0.46408 0.46446 0.01200
C 	C 	0.23982 0.42323 0.48439 -0.11600
C 	C 	0.12694 0.40476 0.46844 0.11300
C 	C 	0.06034 0.42769 0.43119 -0.11900
C 	C 	0.38985 0.59560 0.61050 0.23000
C 	C 	0.26545 0.57965 0.59407 -0.24400
C 	C 	0.06979 0.58844 0.58999 0.20700
C 	C 	0.99964 0.61332 0.60251 -0.35900
C 	C 	0.88396 0.36879 0.38480 0.34300
C 	C 	0.68557 0.37862 0.37864 -0.38300
C 	C 	0.54855 0.36536 0.35824 0.57300
C 	C 	0.44945 0.63299 0.64351 0.64400
C 	C 	0.32222 0.62082 0.62354 -0.48700
C 	C 	0.12240 0.62996 0.61876 0.48500
C 	C 	0.00226 0.38469 0.40232 -0.31000
C 	C 	0.93140 0.41040 0.41369 0.19900
C 	C 	0.73845 0.42043 0.40752 -0.21600
C 	C 	0.61742 0.40472 0.39040 0.18100
C 	C 	0.93804 0.57104 0.57301 -0.11000
C 	C 	0.86852 0.59392 0.53607 0.10600
C 	C 	0.75432 0.57540 0.52034 -0.11200
C 	C 	0.71165 0.53452 0.54030 0.01000
C 	C 	0.77484 0.51183 0.57803 0.02800
C 	C 	0.88745 0.53046 0.59381 -0.03000
C 	C 	0.60489 0.51654 0.52049 -0.02200
C 	C 	0.41463 0.49766 0.53638 -0.08100
C 	C 	0.30677 0.48012 0.51896 0.05800
C 	C 	0.92140 0.63759 0.51245 -0.22700
C 	C 	0.73178 0.46791 0.60206 -0.19200
C 	C 	0.89141 0.53812 0.46665 -0.21800
C 	C 	0.64178 0.53814 0.00141 -0.20900
C 	C 	0.66789 0.40266 0.06657 -0.19700
C 	C 	0.56430 0.49211 0.14672 -0.22400
C 	C 	0.17427 0.48587 0.99573 0.06800
C 	C 	0.04904 0.46845 0.03069 -0.09900
C 	C 	0.87461 0.48434 0.03368 -0.00400
C 	C 	0.52192 0.41048 0.12125 -0.04400
C 	C 	0.64870 0.42656 0.08660 0.03800
C 	C 	0.74796 0.46446 0.07146 -0.00000
C 	C 	0.72421 0.48439 0.09238 -0.10200
C 	C 	0.59538 0.46844 0.12680 0.09500
C 	C 	0.49153 0.43119 0.14112 -0.08600
C 	C 	0.00035 0.61050 0.79390 0.22600
C 	C 	0.85952 0.59407 0.82628 -0.24200
C 	C 	0.65978 0.58999 0.82157 0.21100
C 	C 	0.60215 0.60251 0.78417 -0.36200
C 	C 	0.26876 0.38480 0.24641 0.31700
C 	C 	0.06421 0.37864 0.24274 -0.37800
C 	C 	0.90679 0.35824 0.27640 0.58000
C 	C 	0.09296 0.64351 0.72350 0.64200
C 	C 	0.94576 0.62354 0.75564 -0.48500
C 	C 	0.74116 0.61876 0.75128 0.48600
C 	C 	0.40458 0.40232 0.21299 -0.26400
C 	C 	0.34509 0.41369 0.17591 0.15300
C 	C 	0.14597 0.40752 0.17205 -0.19000
C 	C 	0.00782 0.39040 0.20488 0.14900
C 	C 	0.51105 0.57301 0.85595 -0.11400
C 	C 	0.40459 0.53607 0.87001 0.10900
C 	C 	0.27466 0.52034 0.90426 -0.11600
C 	C 	0.25195 0.54030 0.92518 0.01500
C 	C 	0.35287 0.57803 0.91014 0.02300
C 	C 	0.48126 0.59381 0.87573 -0.02700
C 	C 	0.12538 0.52049 0.96297 -0.03600
C 	C 	0.95101 0.53638 0.96596 -0.06600
C 	C 	0.82573 0.51896 0.00092 0.04900
C 	C 	0.43385 0.51245 0.84996 -0.23100
C 	C 	0.33384 0.60206 0.93003 -0.18900
C 	C 	0.35806 0.46665 0.99523 -0.22300
C 	C 	0.64319 0.00141 0.46045 -0.21100
C 	C 	0.73446 0.06657 0.53077 -0.19600
C 	C 	0.71102 0.14672 0.36117 -0.22500
C 	C 	0.17000 0.99573 0.51840 0.06500
C 	C 	0.07973 0.03069 0.50086 -0.09400
C 	C 	0.90829 0.03368 0.48198 -0.00800
C 	C 	0.64317 0.12125 0.46827 -0.04300
C 	C 	0.73530 0.08660 0.48684 0.03700
C 	C 	0.81942 0.07146 0.46408 0.00100
C 	C 	0.81659 0.09238 0.42323 -0.10300
C 	C 	0.72218 0.12680 0.40476 0.09600
C 	C 	0.63265 0.14112 0.42769 -0.08700
C 	C 	0.79425 0.79390 0.59560 0.23200
C 	C 	0.68580 0.82628 0.57965 -0.24600
C 	C 	0.48135 0.82157 0.58844 0.21300
C 	C 	0.38632 0.78417 0.61332 -0.36300
C 	C 	0.51517 0.24641 0.36879 0.31400
C 	C 	0.30695 0.24274 0.37862 -0.36500
C 	C 	0.18319 0.27640 0.36536 0.55100
C 	C 	0.81646 0.72350 0.63299 0.64300
C 	C 	0.70140 0.75564 0.62082 -0.48800
C 	C 	0.49244 0.75128 0.62996 0.48800
C 	C 	0.61757 0.21299 0.38469 -0.26400
C 	C 	0.52100 0.17591 0.41040 0.15500
C 	C 	0.31802 0.17205 0.42043 -0.19400
C 	C 	0.21270 0.20488 0.40472 0.16200
C 	C 	0.36700 0.85595 0.57104 -0.11500
C 	C 	0.27460 0.87001 0.59392 0.10900
C 	C 	0.17892 0.90426 0.57540 -0.11500
C 	C 	0.17713 0.92518 0.53452 0.01400
C 	C 	0.26301 0.91014 0.51183 0.02400
C 	C 	0.35699 0.87573 0.53046 -0.02700
C 	C 	0.08835 0.96297 0.51654 -0.03200
C 	C 	0.91697 0.96596 0.49766 -0.07100
C 	C 	0.82665 0.00092 0.48012 0.05200
C 	C 	0.28381 0.84996 0.63759 -0.23100
C 	C 	0.26387 0.93003 0.46791 -0.18900
C 	C 	0.35329 0.99523 0.53812 -0.22100
O 	O 	0.96864 0.34214 0.37627 -0.65400
O 	O 	0.60211 0.34327 0.34512 -0.78700
O 	O 	0.37513 0.37671 0.35393 -0.56100
O 	O 	0.62549 0.62305 0.64713 -0.57600
O 	O 	0.38965 0.65334 0.65822 -0.79000
O 	O 	0.04985 0.65351 0.62827 -0.74300
O 	O 	0.34491 0.37627 0.28159 -0.65700
O 	O 	0.94723 0.34512 0.31161 -0.78300
O 	O 	0.72906 0.35393 0.26936 -0.55900
O 	O 	0.27262 0.64713 0.72982 -0.57500
O 	O 	0.04787 0.65822 0.68844 -0.78900
O 	O 	0.67812 0.62827 0.71822 -0.74300
O 	O 	0.62650 0.28159 0.34214 -0.65300
O 	O 	0.25884 0.31161 0.34327 -0.78400
O 	O 	0.99842 0.26936 0.37671 -0.54400
O 	O 	0.00244 0.72982 0.62305 -0.57500
O 	O 	0.73631 0.68844 0.65334 -0.79000
O 	O 	0.39634 0.71822 0.65351 -0.74300
