data_crystal

_cell_length_a 6.47390
_cell_length_b 26.55330
_cell_length_c 26.55330
_cell_angle_alpha 60.65330
_cell_angle_beta  85.33850
_cell_angle_gamma 94.66150

_symmetry_space_group_name_	'P 1'
_symmetry_space_group_name_H-M	'P 1'

loop_
_symmetry_equiv_pos_as_xyz
  x,y,z

loop_
_atom_site_label
_atom_site_type_symbol
_atom_site_fract_x
_atom_site_fract_y
_atom_site_fract_z
_atom_site_charge
Mg	Mg	0.91450 0.69876 0.62373 1.48700
Mg	Mg	0.53823 0.62373 0.67751 1.48700
Mg	Mg	0.21574 0.67751 0.69876 1.48800
Mg	Mg	0.08550 0.30124 0.37627 1.48700
Mg	Mg	0.46177 0.37627 0.32249 1.48700
Mg	Mg	0.78426 0.32249 0.30124 1.48800
H 	H 	0.94096 0.84085 0.60295 0.09400
H 	H 	0.69633 0.85963 0.53287 0.00300
H 	H 	0.51428 0.94473 0.49467 0.06500
H 	H 	0.08277 0.95247 0.60069 0.04100
H 	H 	0.03577 0.90710 0.44618 0.06600
H 	H 	0.05231 0.97721 0.38294 0.06100
H 	H 	0.28397 0.95493 0.41715 0.06200
H 	H 	0.54391 0.60295 0.55620 0.09700
H 	H 	0.22920 0.53287 0.60750 0.00300
H 	H 	0.00895 0.49467 0.56060 0.06800
H 	H 	0.68346 0.60069 0.44684 0.04000
H 	H 	0.48195 0.44618 0.64672 0.06500
H 	H 	0.43525 0.38294 0.63985 0.06000
H 	H 	0.70112 0.41715 0.62792 0.06200
H 	H 	0.10011 0.55620 0.84085 0.09800
H 	H 	0.83670 0.60750 0.85963 0.00300
H 	H 	0.56955 0.56060 0.94473 0.06600
H 	H 	0.13030 0.44684 0.95247 0.04000
H 	H 	0.12867 0.64672 0.90710 0.06500
H 	H 	0.07510 0.63985 0.97721 0.05900
H 	H 	0.32904 0.62792 0.95493 0.06200
H 	H 	0.05904 0.15915 0.39705 0.09400
H 	H 	0.30367 0.14037 0.46713 0.00300
H 	H 	0.48572 0.05527 0.50533 0.06500
H 	H 	0.91723 0.04753 0.39931 0.04100
H 	H 	0.96423 0.09290 0.55382 0.06600
H 	H 	0.94769 0.02279 0.61706 0.06100
H 	H 	0.71603 0.04507 0.58285 0.06200
H 	H 	0.45609 0.39705 0.44380 0.09700
H 	H 	0.77080 0.46713 0.39250 0.00300
H 	H 	0.99105 0.50533 0.43940 0.06800
H 	H 	0.31654 0.39931 0.55316 0.04000
H 	H 	0.51805 0.55382 0.35328 0.06500
H 	H 	0.56475 0.61706 0.36015 0.06000
H 	H 	0.29888 0.58285 0.37208 0.06200
H 	H 	0.89989 0.44380 0.15915 0.09800
H 	H 	0.16330 0.39250 0.14037 0.00300
H 	H 	0.43045 0.43940 0.05527 0.06600
H 	H 	0.86970 0.55316 0.04753 0.04000
H 	H 	0.87133 0.35328 0.09290 0.06500
H 	H 	0.92490 0.36015 0.02279 0.05900
H 	H 	0.67096 0.37208 0.04507 0.06200
C 	C 	0.54437 0.74894 0.61313 0.56300
C 	C 	0.42344 0.79920 0.59118 -0.33200
C 	C 	0.20530 0.79475 0.60941 0.27800
C 	C 	0.10527 0.84455 0.58718 -0.20300
C 	C 	0.21355 0.89853 0.54528 0.10900
C 	C 	0.42725 0.90308 0.52655 -0.15300
C 	C 	0.53079 0.85425 0.54897 0.12900
C 	C 	0.10351 0.95036 0.52142 -0.05000
C 	C 	0.05682 0.97722 0.46404 0.05900
C 	C 	0.04551 0.97325 0.55679 -0.06300
C 	C 	0.11022 0.95279 0.42533 -0.19000
C 	C 	0.15750 0.61313 0.63793 0.56200
C 	C 	0.01462 0.59118 0.60962 -0.32900
C 	C 	0.81471 0.60941 0.59584 0.27500
C 	C 	0.69245 0.58718 0.56827 -0.20900
C 	C 	0.75883 0.54528 0.55619 0.11100
C 	C 	0.95380 0.52655 0.57037 -0.15900
C 	C 	0.07976 0.54897 0.59678 0.13200
C 	C 	0.62493 0.52142 0.52822 -0.05200
C 	C 	0.52086 0.46404 0.55874 0.05800
C 	C 	0.60230 0.55679 0.46996 -0.06200
C 	C 	0.53555 0.42533 0.62188 -0.19000
C 	C 	0.79543 0.63793 0.74894 0.56300
C 	C 	0.62424 0.60962 0.79920 -0.33400
C 	C 	0.41055 0.59584 0.79475 0.28000
C 	C 	0.26072 0.56827 0.84455 -0.20900
C 	C 	0.31502 0.55619 0.89853 0.11100
C 	C 	0.52417 0.57037 0.90308 -0.15400
C 	C 	0.67654 0.59678 0.85425 0.13000
C 	C 	0.15315 0.52822 0.95036 -0.05200
C 	C 	0.07960 0.55874 0.97722 0.05800
C 	C 	0.07226 0.46996 0.97325 -0.06200
C 	C 	0.15743 0.62188 0.95279 -0.19000
C 	C 	0.45563 0.25106 0.38687 0.56300
C 	C 	0.57656 0.20080 0.40882 -0.33200
C 	C 	0.79470 0.20525 0.39059 0.27800
C 	C 	0.89473 0.15545 0.41282 -0.20300
C 	C 	0.78645 0.10147 0.45472 0.10900
C 	C 	0.57275 0.09692 0.47345 -0.15300
C 	C 	0.46921 0.14575 0.45103 0.12900
C 	C 	0.89649 0.04964 0.47858 -0.05000
C 	C 	0.94318 0.02278 0.53596 0.05900
C 	C 	0.95449 0.02675 0.44321 -0.06300
C 	C 	0.88978 0.04721 0.57467 -0.19000
C 	C 	0.84250 0.38687 0.36207 0.56200
C 	C 	0.98538 0.40882 0.39038 -0.32900
C 	C 	0.18529 0.39059 0.40416 0.27500
C 	C 	0.30755 0.41282 0.43173 -0.20900
C 	C 	0.24117 0.45472 0.44381 0.11100
C 	C 	0.04620 0.47345 0.42963 -0.15900
C 	C 	0.92024 0.45103 0.40322 0.13200
C 	C 	0.37507 0.47858 0.47178 -0.05200
C 	C 	0.47914 0.53596 0.44126 0.05800
C 	C 	0.39770 0.44321 0.53004 -0.06200
C 	C 	0.46445 0.57467 0.37812 -0.19000
C 	C 	0.20457 0.36207 0.25106 0.56300
C 	C 	0.37576 0.39038 0.20080 -0.33400
C 	C 	0.58945 0.40416 0.20525 0.28000
C 	C 	0.73928 0.43173 0.15545 -0.20900
C 	C 	0.68498 0.44381 0.10147 0.11100
C 	C 	0.47583 0.42963 0.09692 -0.15400
C 	C 	0.32346 0.40322 0.14575 0.13000
C 	C 	0.84685 0.47178 0.04964 -0.05200
C 	C 	0.92040 0.44126 0.02278 0.05800
C 	C 	0.92774 0.53004 0.02675 -0.06200
C 	C 	0.84257 0.37812 0.04721 -0.19000
O 	O 	0.73893 0.75764 0.59399 -0.56300
O 	O 	0.45949 0.69864 0.65019 -0.82100
O 	O 	0.08168 0.74336 0.65042 -0.63600
O 	O 	0.33292 0.59399 0.64837 -0.56200
O 	O 	0.10968 0.65019 0.65117 -0.81900
O 	O 	0.73210 0.65042 0.60622 -0.63900
O 	O 	0.98129 0.64837 0.75764 -0.56500
O 	O 	0.76085 0.65117 0.69864 -0.82300
O 	O 	0.33832 0.60622 0.74336 -0.63900
O 	O 	0.26107 0.24236 0.40601 -0.56300
O 	O 	0.54051 0.30136 0.34981 -0.82100
O 	O 	0.91832 0.25664 0.34958 -0.63600
O 	O 	0.66708 0.40601 0.35163 -0.56200
O 	O 	0.89032 0.34981 0.34883 -0.81900
O 	O 	0.26790 0.34958 0.39378 -0.63900
O 	O 	0.01871 0.35163 0.24236 -0.56500
O 	O 	0.23915 0.34883 0.30136 -0.82300
O 	O 	0.66168 0.39378 0.25664 -0.63900
