data_crystal

_cell_length_a 6.46180
_cell_length_b 39.87150
_cell_length_c 39.87150
_cell_angle_alpha 60.28920
_cell_angle_beta  86.90320
_cell_angle_gamma 93.09680

_symmetry_space_group_name_	'P 1'
_symmetry_space_group_name_H-M	'P 1'

loop_
_symmetry_equiv_pos_as_xyz
  x,y,z

loop_
_atom_site_label
_atom_site_type_symbol
_atom_site_fract_x
_atom_site_fract_y
_atom_site_fract_z
_atom_site_charge
Mg	Mg	0.86931 0.63819 0.67290 1.48500
Mg	Mg	0.54221 0.67290 0.68891 1.48600
Mg	Mg	0.23112 0.68891 0.63819 1.48500
Mg	Mg	0.13069 0.36181 0.32710 1.48400
Mg	Mg	0.45779 0.32710 0.31109 1.48500
Mg	Mg	0.76888 0.31109 0.36181 1.48500
H 	H 	0.86180 0.62552 0.59231 0.08600
H 	H 	0.55958 0.57898 0.62401 0.00700
H 	H 	0.33636 0.55388 0.59237 0.06600
H 	H 	0.93918 0.51362 0.62207 0.03500
H 	H 	0.70702 0.59291 0.49055 0.04700
H 	H 	0.33474 0.49549 0.56005 0.04500
H 	H 	0.89003 0.64933 0.48133 0.04900
H 	H 	0.85931 0.65226 0.52482 0.05100
H 	H 	0.66113 0.45583 0.58489 0.06400
H 	H 	0.87478 0.45549 0.61164 0.05600
H 	H 	0.61731 0.46164 0.62673 0.05900
H 	H 	0.00525 0.52207 0.45964 0.04800
H 	H 	0.99819 0.54945 0.48372 0.04900
H 	H 	0.23787 0.62027 0.36692 0.03600
H 	H 	0.15493 0.57888 0.39342 0.03500
H 	H 	0.15498 0.55842 0.45852 0.02800
H 	H 	0.14761 0.60531 0.43602 0.04200
H 	H 	0.45411 0.59231 0.78217 0.10000
H 	H 	0.18359 0.62401 0.79701 -0.00000
H 	H 	0.92873 0.59237 0.85375 0.06800
H 	H 	0.56125 0.62207 0.86431 0.03800
H 	H 	0.19757 0.49055 0.91654 0.04700
H 	H 	0.89479 0.56005 0.94446 0.04300
H 	H 	0.37136 0.48133 0.86934 0.05000
H 	H 	0.38413 0.52482 0.82292 0.05200
H 	H 	0.24602 0.58489 0.95928 0.06400
H 	H 	0.48642 0.61164 0.93287 0.05700
H 	H 	0.24404 0.62673 0.91163 0.06000
H 	H 	0.46489 0.45964 0.01829 0.04800
H 	H 	0.48191 0.48372 0.96683 0.05000
H 	H 	0.60479 0.36692 0.01281 0.03600
H 	H 	0.54835 0.39342 0.02770 0.03500
H 	H 	0.61350 0.45852 0.98306 0.02800
H 	H 	0.58363 0.43602 0.95867 0.04100
H 	H 	0.23628 0.78217 0.62552 0.09900
H 	H 	0.98060 0.79701 0.57898 0.00300
H 	H 	0.78248 0.85375 0.55388 0.06300
H 	H 	0.42556 0.86431 0.51362 0.03900
H 	H 	0.11411 0.91654 0.59291 0.04700
H 	H 	0.83925 0.94446 0.49549 0.04300
H 	H 	0.24070 0.86934 0.64933 0.05000
H 	H 	0.20705 0.82292 0.65226 0.05300
H 	H 	0.20530 0.95928 0.45583 0.06400
H 	H 	0.41929 0.93287 0.45549 0.05700
H 	H 	0.15567 0.91163 0.46164 0.06200
H 	H 	0.48318 0.01829 0.52207 0.04800
H 	H 	0.44874 0.96683 0.54945 0.05000
H 	H 	0.61760 0.01281 0.62027 0.03600
H 	H 	0.57605 0.02770 0.57888 0.03500
H 	H 	0.59656 0.98306 0.55842 0.02800
H 	H 	0.54230 0.95867 0.60531 0.04100
H 	H 	0.13820 0.37448 0.40769 0.08600
H 	H 	0.44042 0.42102 0.37599 0.00700
H 	H 	0.66364 0.44612 0.40763 0.06600
H 	H 	0.06082 0.48638 0.37793 0.03500
H 	H 	0.29298 0.40709 0.50945 0.04700
H 	H 	0.66526 0.50451 0.43995 0.04500
H 	H 	0.10997 0.35067 0.51867 0.04900
H 	H 	0.14069 0.34774 0.47518 0.05100
H 	H 	0.33887 0.54417 0.41511 0.06400
H 	H 	0.12522 0.54451 0.38836 0.05600
H 	H 	0.38269 0.53836 0.37327 0.05900
H 	H 	0.99475 0.47793 0.54036 0.04800
H 	H 	0.00181 0.45055 0.51628 0.04900
H 	H 	0.76213 0.37973 0.63308 0.03600
H 	H 	0.84507 0.42112 0.60658 0.03500
H 	H 	0.84502 0.44158 0.54148 0.02800
H 	H 	0.85239 0.39469 0.56398 0.04200
H 	H 	0.54589 0.40769 0.21783 0.10000
H 	H 	0.81641 0.37599 0.20299 -0.00000
H 	H 	0.07127 0.40763 0.14625 0.06800
H 	H 	0.43875 0.37793 0.13569 0.03800
H 	H 	0.80243 0.50945 0.08346 0.04700
H 	H 	0.10521 0.43995 0.05554 0.04300
H 	H 	0.62864 0.51867 0.13066 0.05000
H 	H 	0.61587 0.47518 0.17708 0.05200
H 	H 	0.75398 0.41511 0.04072 0.06400
H 	H 	0.51358 0.38836 0.06713 0.05700
H 	H 	0.75596 0.37327 0.08837 0.06000
H 	H 	0.53511 0.54036 0.98171 0.04800
H 	H 	0.51809 0.51628 0.03317 0.05000
H 	H 	0.39521 0.63308 0.98719 0.03600
H 	H 	0.45165 0.60658 0.97230 0.03500
H 	H 	0.38650 0.54148 0.01694 0.02800
H 	H 	0.41637 0.56398 0.04133 0.04100
H 	H 	0.76372 0.21783 0.37448 0.09900
H 	H 	0.01940 0.20299 0.42102 0.00300
H 	H 	0.21752 0.14625 0.44612 0.06300
H 	H 	0.57444 0.13569 0.48638 0.03900
H 	H 	0.88589 0.08346 0.40709 0.04700
H 	H 	0.16075 0.05554 0.50451 0.04300
H 	H 	0.75930 0.13066 0.35067 0.05000
H 	H 	0.79295 0.17708 0.34774 0.05300
H 	H 	0.79470 0.04072 0.54417 0.06400
H 	H 	0.58071 0.06713 0.54451 0.05700
H 	H 	0.84433 0.08837 0.53836 0.06200
H 	H 	0.51682 0.98171 0.47793 0.04800
H 	H 	0.55126 0.03317 0.45055 0.05000
H 	H 	0.38240 0.98719 0.37973 0.03600
H 	H 	0.42395 0.97230 0.42112 0.03500
H 	H 	0.40344 0.01694 0.44158 0.02800
H 	H 	0.45770 0.04133 0.39469 0.04100
C 	C 	0.48313 0.63177 0.64620 0.54900
C 	C 	0.34089 0.61786 0.62647 -0.31900
C 	C 	0.13831 0.63010 0.61771 0.26700
C 	C 	0.01413 0.61540 0.59932 -0.18600
C 	C 	0.08266 0.58793 0.59018 0.11400
C 	C 	0.28054 0.57522 0.59925 -0.14400
C 	C 	0.40811 0.58995 0.61707 0.12000
C 	C 	0.94492 0.57111 0.57261 -0.05600
C 	C 	0.87635 0.59391 0.53532 0.04700
C 	C 	0.75768 0.57569 0.51932 -0.07100
C 	C 	0.71156 0.53515 0.53908 -0.00900
C 	C 	0.77341 0.51258 0.57711 0.03500
C 	C 	0.88853 0.53093 0.59330 -0.05300
C 	C 	0.60567 0.51734 0.51863 -0.00700
C 	C 	0.40730 0.49734 0.53388 -0.06400
C 	C 	0.69845 0.52037 0.48398 0.02300
C 	C 	0.93685 0.63703 0.51136 -0.12000
C 	C 	0.72808 0.46903 0.60118 -0.17900
C 	C 	0.91000 0.54137 0.46523 -0.09700
C 	C 	0.04618 0.57967 0.43846 -0.04900
C 	C 	0.13895 0.60593 0.39602 -0.09100
C 	C 	0.12933 0.64620 0.72203 0.56800
C 	C 	0.96736 0.62647 0.75567 -0.35500
C 	C 	0.75602 0.61771 0.75219 0.28200
C 	C 	0.61345 0.59932 0.78528 -0.21300
C 	C 	0.67284 0.59018 0.82189 0.11800
C 	C 	0.87979 0.59925 0.82553 -0.16800
C 	C 	0.02518 0.61707 0.79298 0.15600
C 	C 	0.51753 0.57261 0.85628 -0.04800
C 	C 	0.41167 0.53532 0.87077 0.04600
C 	C 	0.27700 0.51932 0.90499 -0.06900
C 	C 	0.25064 0.53908 0.92577 -0.01000
C 	C 	0.35052 0.57711 0.91031 0.03700
C 	C 	0.48183 0.59330 0.87577 -0.05400
C 	C 	0.12430 0.51863 0.96403 -0.00500
C 	C 	0.94118 0.53388 0.96878 -0.06600
C 	C 	0.18243 0.48398 0.99565 0.02200
C 	C 	0.44821 0.51136 0.85161 -0.11600
C 	C 	0.32926 0.60118 0.92979 -0.18000
C 	C 	0.37523 0.46523 0.99340 -0.09700
C 	C 	0.48464 0.43846 0.98187 -0.05000
C 	C 	0.53497 0.39602 0.99805 -0.09100
C 	C 	0.85136 0.72203 0.63177 0.53100
C 	C 	0.72303 0.75567 0.61786 -0.31700
C 	C 	0.50821 0.75219 0.63010 0.26900
C 	C 	0.39873 0.78528 0.61540 -0.20200
C 	C 	0.49473 0.82189 0.58793 0.10600
C 	C 	0.70532 0.82553 0.57522 -0.14300
C 	C 	0.81816 0.79298 0.58995 0.11600
C 	C 	0.37381 0.85628 0.57111 -0.04300
C 	C 	0.28244 0.87077 0.59391 0.04400
C 	C 	0.18199 0.90499 0.57569 -0.06800
C 	C 	0.17641 0.92577 0.53515 -0.01000
C 	C 	0.26083 0.91031 0.51258 0.03900
C 	C 	0.35760 0.87577 0.53093 -0.05500
C 	C 	0.08833 0.96403 0.51734 -0.00400
C 	C 	0.90996 0.96878 0.49734 -0.06700
C 	C 	0.17808 0.99565 0.52037 0.02200
C 	C 	0.29982 0.85161 0.63703 -0.11500
C 	C 	0.25905 0.92979 0.46903 -0.18100
C 	C 	0.36863 0.99340 0.54137 -0.09700
C 	C 	0.46651 0.98187 0.57967 -0.05000
C 	C 	0.53302 0.99805 0.60593 -0.09100
C 	C 	0.51687 0.36823 0.35380 0.54900
C 	C 	0.65911 0.38214 0.37353 -0.31900
C 	C 	0.86169 0.36990 0.38229 0.26700
C 	C 	0.98587 0.38460 0.40068 -0.18600
C 	C 	0.91734 0.41207 0.40982 0.11400
C 	C 	0.71946 0.42478 0.40075 -0.14400
C 	C 	0.59189 0.41005 0.38293 0.12000
C 	C 	0.05508 0.42889 0.42739 -0.05600
C 	C 	0.12365 0.40609 0.46468 0.04700
C 	C 	0.24232 0.42431 0.48068 -0.07100
C 	C 	0.28844 0.46485 0.46092 -0.00900
C 	C 	0.22659 0.48742 0.42289 0.03500
C 	C 	0.11147 0.46907 0.40670 -0.05300
C 	C 	0.39433 0.48266 0.48137 -0.00700
C 	C 	0.59270 0.50266 0.46612 -0.06400
C 	C 	0.30155 0.47963 0.51602 0.02300
C 	C 	0.06315 0.36297 0.48864 -0.12000
C 	C 	0.27192 0.53097 0.39882 -0.17900
C 	C 	0.09000 0.45863 0.53477 -0.09700
C 	C 	0.95382 0.42033 0.56154 -0.04900
C 	C 	0.86105 0.39407 0.60398 -0.09100
C 	C 	0.87067 0.35380 0.27797 0.56800
C 	C 	0.03264 0.37353 0.24433 -0.35500
C 	C 	0.24398 0.38229 0.24781 0.28200
C 	C 	0.38655 0.40068 0.21472 -0.21300
C 	C 	0.32716 0.40982 0.17811 0.11800
C 	C 	0.12021 0.40075 0.17447 -0.16800
C 	C 	0.97482 0.38293 0.20702 0.15600
C 	C 	0.48247 0.42739 0.14372 -0.04800
C 	C 	0.58833 0.46468 0.12923 0.04600
C 	C 	0.72300 0.48068 0.09501 -0.06900
C 	C 	0.74936 0.46092 0.07423 -0.01000
C 	C 	0.64948 0.42289 0.08969 0.03700
C 	C 	0.51817 0.40670 0.12423 -0.05400
C 	C 	0.87570 0.48137 0.03597 -0.00500
C 	C 	0.05882 0.46612 0.03122 -0.06600
C 	C 	0.81757 0.51602 0.00435 0.02200
C 	C 	0.55179 0.48864 0.14839 -0.11600
C 	C 	0.67074 0.39882 0.07021 -0.18000
C 	C 	0.62477 0.53477 0.00660 -0.09700
C 	C 	0.51536 0.56154 0.01813 -0.05000
C 	C 	0.46503 0.60398 0.00195 -0.09100
C 	C 	0.14864 0.27797 0.36823 0.53100
C 	C 	0.27697 0.24433 0.38214 -0.31700
C 	C 	0.49179 0.24781 0.36990 0.26900
C 	C 	0.60127 0.21472 0.38460 -0.20200
C 	C 	0.50527 0.17811 0.41207 0.10600
C 	C 	0.29468 0.17447 0.42478 -0.14300
C 	C 	0.18184 0.20702 0.41005 0.11600
C 	C 	0.62619 0.14372 0.42889 -0.04300
C 	C 	0.71756 0.12923 0.40609 0.04400
C 	C 	0.81801 0.09501 0.42431 -0.06800
C 	C 	0.82359 0.07423 0.46485 -0.01000
C 	C 	0.73917 0.08969 0.48742 0.03900
C 	C 	0.64240 0.12423 0.46907 -0.05500
C 	C 	0.91167 0.03597 0.48266 -0.00400
C 	C 	0.09004 0.03122 0.50266 -0.06700
C 	C 	0.82192 0.00435 0.47963 0.02200
C 	C 	0.70018 0.14839 0.36297 -0.11500
C 	C 	0.74095 0.07021 0.53097 -0.18100
C 	C 	0.63137 0.00660 0.45863 -0.09700
C 	C 	0.53349 0.01813 0.42033 -0.05000
C 	C 	0.46698 0.00195 0.39407 -0.09100
O 	O 	0.66320 0.61979 0.65195 -0.56000
O 	O 	0.42913 0.65501 0.65708 -0.81100
O 	O 	0.05400 0.65749 0.62503 -0.62700
O 	O 	0.31515 0.65195 0.72826 -0.56100
O 	O 	0.08621 0.65708 0.68791 -0.81000
O 	O 	0.67903 0.62503 0.71748 -0.63900
O 	O 	0.04341 0.72826 0.61979 -0.54200
O 	O 	0.77412 0.68791 0.65501 -0.81000
O 	O 	0.39651 0.71748 0.65749 -0.63400
O 	O 	0.33680 0.38021 0.34805 -0.56000
O 	O 	0.57087 0.34499 0.34292 -0.81100
O 	O 	0.94600 0.34251 0.37497 -0.62700
O 	O 	0.68485 0.34805 0.27174 -0.56100
O 	O 	0.91379 0.34292 0.31209 -0.81000
O 	O 	0.32097 0.37497 0.28252 -0.63900
O 	O 	0.95659 0.27174 0.38021 -0.54200
O 	O 	0.22588 0.31209 0.34499 -0.81000
O 	O 	0.60349 0.28252 0.34251 -0.63400
