data_crystal

_cell_length_a 6.69400
_cell_length_b 32.19670
_cell_length_c 32.19670
_cell_angle_alpha 60.47550
_cell_angle_beta  86.02610
_cell_angle_gamma 93.97390

_symmetry_space_group_name_	'P 1'
_symmetry_space_group_name_H-M	'P 1'

loop_
_symmetry_equiv_pos_as_xyz
  x,y,z

loop_
_atom_site_label
_atom_site_type_symbol
_atom_site_fract_x
_atom_site_fract_y
_atom_site_fract_z
_atom_site_charge
Mg	Mg	0.28374 0.37030 0.32628 1.48000
Mg	Mg	0.71495 0.63018 0.67253 1.48000
Mg	Mg	0.61002 0.32628 0.30342 1.48000
Mg	Mg	0.38748 0.67253 0.69729 1.48000
Mg	Mg	0.91344 0.30342 0.37030 1.47900
Mg	Mg	0.08477 0.69729 0.63018 1.47900
H 	H 	0.62765 0.51936 0.42281 0.04300
H 	H 	0.96758 0.42530 0.51292 0.03400
H 	H 	0.20283 0.53731 0.56325 0.05800
H 	H 	0.42309 0.57214 0.60060 0.00200
H 	H 	0.72814 0.61526 0.57658 0.09200
H 	H 	0.27270 0.39030 0.42008 0.09700
H 	H 	0.57238 0.42940 0.39705 -0.01300
H 	H 	0.78992 0.46558 0.43353 0.06700
H 	H 	0.73620 0.62149 0.49626 0.03500
H 	H 	0.64592 0.44390 0.55942 0.04000
H 	H 	0.29957 0.47192 0.36184 0.06300
H 	H 	0.55875 0.46847 0.37528 0.06900
H 	H 	0.45914 0.52648 0.34851 0.05900
H 	H 	0.27075 0.43605 0.58769 0.05600
H 	H 	0.01311 0.43878 0.57314 0.05400
H 	H 	0.16958 0.49386 0.55949 0.05300
H 	H 	0.57166 0.62866 0.42645 0.05700
H 	H 	0.34892 0.60751 0.47064 0.06000
H 	H 	0.39880 0.57752 0.43585 0.06400
H 	H 	0.79193 0.46615 0.64263 0.05800
H 	H 	0.03523 0.48080 0.60664 0.05400
H 	H 	0.85760 0.43152 0.61352 0.05200
H 	H 	0.05046 0.42281 0.05783 0.04100
H 	H 	0.48050 0.51292 0.06178 0.03400
H 	H 	0.76608 0.56325 0.89944 0.06000
H 	H 	0.02369 0.60060 0.82726 -0.01000
H 	H 	0.30472 0.57658 0.80816 0.09700
H 	H 	0.69278 0.42008 0.18962 0.10000
H 	H 	0.96943 0.39705 0.17355 -0.01600
H 	H 	0.22345 0.43353 0.10089 0.06700
H 	H 	0.23246 0.49626 0.88225 0.03100
H 	H 	0.20534 0.55942 0.99668 0.03900
H 	H 	0.66141 0.36184 0.16624 0.06300
H 	H 	0.93403 0.37528 0.15625 0.06900
H 	H 	0.80765 0.34851 0.12501 0.05900
H 	H 	0.85844 0.58769 0.97626 0.05800
H 	H 	0.58625 0.57314 0.98808 0.05600
H 	H 	0.72907 0.55949 0.94665 0.05500
H 	H 	0.99811 0.42645 0.94489 0.05800
H 	H 	0.81956 0.47064 0.92185 0.06200
H 	H 	0.83465 0.43585 0.98663 0.06300
H 	H 	0.43456 0.64263 0.89122 0.05900
H 	H 	0.64187 0.60664 0.91256 0.06200
H 	H 	0.47112 0.61352 0.95496 0.05300
H 	H 	0.10829 0.05783 0.51936 0.04200
H 	H 	0.54228 0.06178 0.42530 0.03300
H 	H 	0.66552 0.89944 0.53731 0.05700
H 	H 	0.85095 0.82726 0.57214 0.00500
H 	H 	0.11288 0.80816 0.61526 0.09200
H 	H 	0.88240 0.18962 0.39030 0.09800
H 	H 	0.14298 0.17355 0.42940 -0.01300
H 	H 	0.32434 0.10089 0.46558 0.06600
H 	H 	0.11471 0.88225 0.62149 0.03100
H 	H 	0.20202 0.99668 0.44390 0.03800
H 	H 	0.82765 0.16624 0.47192 0.06300
H 	H 	0.09028 0.15625 0.46847 0.07200
H 	H 	0.93266 0.12501 0.52648 0.05900
H 	H 	0.83470 0.97626 0.43605 0.05800
H 	H 	0.57433 0.98808 0.43878 0.05600
H 	H 	0.67572 0.94665 0.49386 0.05500
H 	H 	0.94300 0.94489 0.62866 0.05700
H 	H 	0.74141 0.92185 0.60751 0.06100
H 	H 	0.82128 0.98663 0.57752 0.06300
H 	H 	0.32578 0.89122 0.46615 0.05700
H 	H 	0.55443 0.91256 0.48080 0.06100
H 	H 	0.42608 0.95496 0.43152 0.05200
C 	C 	0.35729 0.47854 0.42279 0.07700
C 	C 	0.47997 0.49822 0.44295 -0.08800
C 	C 	0.42280 0.49216 0.48816 -0.00300
C 	C 	0.23882 0.46566 0.51326 0.03200
C 	C 	0.11605 0.44612 0.49297 -0.03800
C 	C 	0.17462 0.45198 0.44807 -0.07500
C 	C 	0.26627 0.58137 0.59564 0.13800
C 	C 	0.14456 0.56205 0.57515 -0.17400
C 	C 	0.95046 0.57297 0.56918 0.13500
C 	C 	0.88275 0.60471 0.58262 -0.21100
C 	C 	0.99763 0.37857 0.39404 0.29000
C 	C 	0.79930 0.38950 0.38727 -0.35200
C 	C 	0.66373 0.37292 0.36271 0.55800
C 	C 	0.33458 0.62832 0.63581 0.55200
C 	C 	0.19883 0.61254 0.61064 -0.34300
C 	C 	0.00157 0.62419 0.60360 0.26600
C 	C 	0.11583 0.39914 0.41422 -0.23100
C 	C 	0.04459 0.43065 0.42749 0.13700
C 	C 	0.85038 0.44088 0.42185 -0.17300
C 	C 	0.72999 0.42077 0.40189 0.14600
C 	C 	0.81748 0.55175 0.54853 -0.06700
C 	C 	0.71429 0.58160 0.51106 -0.04300
C 	C 	0.58371 0.56284 0.49149 0.03700
C 	C 	0.55798 0.51338 0.50854 -0.00700
C 	C 	0.66207 0.48360 0.54581 -0.07800
C 	C 	0.78644 0.50216 0.56665 0.06700
C 	C 	0.42264 0.48685 0.37416 -0.19400
C 	C 	0.16886 0.45814 0.56127 -0.16700
C 	C 	0.46883 0.59615 0.45382 -0.17600
C 	C 	0.87303 0.46811 0.60997 -0.17700
C 	C 	0.78008 0.42279 0.09867 0.07700
C 	C 	0.92292 0.44295 0.05883 -0.08600
C 	C 	0.91096 0.48816 0.01968 0.00100
C 	C 	0.75208 0.51326 0.02108 0.03200
C 	C 	0.60902 0.49297 0.06091 -0.03700
C 	C 	0.62269 0.44807 0.09995 -0.07600
C 	C 	0.86191 0.59564 0.82299 0.16200
C 	C 	0.71971 0.57515 0.86280 -0.17200
C 	C 	0.51964 0.56918 0.85785 0.13500
C 	C 	0.46537 0.58262 0.81267 -0.23800
C 	C 	0.39167 0.39404 0.22739 0.30600
C 	C 	0.18657 0.38727 0.22323 -0.35900
C 	C 	0.02644 0.36271 0.26437 0.56800
C 	C 	0.97039 0.63581 0.73587 0.58000
C 	C 	0.80947 0.61064 0.77682 -0.36200
C 	C 	0.60517 0.60360 0.77221 0.30700
C 	C 	0.53005 0.41422 0.18664 -0.24200
C 	C 	0.47208 0.42749 0.14186 0.13900
C 	C 	0.27223 0.42185 0.13727 -0.17400
C 	C 	0.13188 0.40189 0.17734 0.15200
C 	C 	0.36601 0.54853 0.89972 -0.07200
C 	C 	0.22535 0.51106 0.90734 -0.04000
C 	C 	0.07520 0.49149 0.94567 0.02800
C 	C 	0.06652 0.50854 0.97808 -0.00900
C 	C 	0.20788 0.54581 0.97059 -0.08000
C 	C 	0.35309 0.56665 0.93119 0.07000
C 	C 	0.79680 0.37416 0.13899 -0.19400
C 	C 	0.73013 0.56127 0.98059 -0.16600
C 	C 	0.92265 0.45382 0.95003 -0.16800
C 	C 	0.48300 0.60997 0.92192 -0.18900
C 	C 	0.87875 0.09867 0.47854 0.07800
C 	C 	0.98175 0.05883 0.49822 -0.08900
C 	C 	0.93064 0.01968 0.49216 0.00300
C 	C 	0.77316 0.02108 0.46566 0.03100
C 	C 	0.66993 0.06091 0.44612 -0.03700
C 	C 	0.72264 0.09995 0.45198 -0.07600
C 	C 	0.68490 0.82299 0.58137 0.14000
C 	C 	0.58251 0.86280 0.56205 -0.16300
C 	C 	0.37749 0.85785 0.57297 0.12800
C 	C 	0.27804 0.81267 0.60471 -0.23500
C 	C 	0.61906 0.22739 0.37857 0.30400
C 	C 	0.40980 0.22323 0.38950 -0.35600
C 	C 	0.29081 0.26437 0.37292 0.55900
C 	C 	0.70626 0.73587 0.62832 0.55500
C 	C 	0.58629 0.77682 0.61254 -0.35000
C 	C 	0.37738 0.77221 0.62419 0.30000
C 	C 	0.71669 0.18664 0.39914 -0.24100
C 	C 	0.61394 0.14186 0.43065 0.13800
C 	C 	0.40950 0.13727 0.44088 -0.17200
C 	C 	0.30922 0.17734 0.42077 0.14700
C 	C 	0.26573 0.89972 0.55175 -0.07000
C 	C 	0.13269 0.90734 0.58160 -0.04200
C 	C 	0.02087 0.94567 0.56284 0.02800
C 	C 	0.04460 0.97808 0.51338 -0.01100
C 	C 	0.17847 0.97059 0.48360 -0.07900
C 	C 	0.28428 0.93119 0.50216 0.06700
C 	C 	0.93579 0.13899 0.48685 -0.19900
C 	C 	0.71072 0.98059 0.45814 -0.16600
C 	C 	0.87268 0.95003 0.59615 -0.16700
C 	C 	0.40492 0.92192 0.46811 -0.18700
O 	O 	0.08133 0.34580 0.38434 -0.63900
O 	O 	0.71733 0.34584 0.34712 -0.77900
O 	O 	0.49162 0.38662 0.35730 -0.56500
O 	O 	0.50704 0.61476 0.64076 -0.56200
O 	O 	0.28061 0.65458 0.65241 -0.78000
O 	O 	0.91809 0.65625 0.61439 -0.62900
O 	O 	0.46567 0.38434 0.26986 -0.64600
O 	O 	0.06445 0.34712 0.30704 -0.77800
O 	O 	0.84892 0.35730 0.25608 -0.57100
O 	O 	0.14780 0.64076 0.74448 -0.57800
O 	O 	0.93302 0.65241 0.69301 -0.77700
O 	O 	0.53248 0.61439 0.72936 -0.64800
O 	O 	0.73553 0.26986 0.34580 -0.64800
O 	O 	0.37149 0.30704 0.34584 -0.77800
O 	O 	0.10500 0.25608 0.38662 -0.56300
O 	O 	0.89228 0.74448 0.61476 -0.55600
O 	O 	0.62603 0.69301 0.65458 -0.77600
O 	O 	0.26184 0.72936 0.65625 -0.65100
