data_crystal

_cell_length_a 6.94410
_cell_length_b 65.72830
_cell_length_c 65.72830
_cell_angle_alpha 60.12300
_cell_angle_beta  87.98180
_cell_angle_gamma 92.01820

_symmetry_space_group_name_	'P 1'
_symmetry_space_group_name_H-M	'P 1'

loop_
_symmetry_equiv_pos_as_xyz
  x,y,z

loop_
_atom_site_label
_atom_site_type_symbol
_atom_site_fract_x
_atom_site_fract_y
_atom_site_fract_z
_atom_site_charge
Mg	Mg	0.73098 0.35127 0.32957 1.48800
Mg	Mg	0.28611 0.64963 0.66924 1.49200
Mg	Mg	0.06055 0.32957 0.31916 1.48600
Mg	Mg	0.95535 0.66924 0.68113 1.48900
Mg	Mg	0.37971 0.31916 0.35127 1.48900
Mg	Mg	0.63648 0.68113 0.64963 1.49200
H 	H 	0.26297 0.50768 0.39328 0.05600
H 	H 	0.35359 0.50425 0.36993 0.05300
H 	H 	0.44140 0.48696 0.39809 0.06000
H 	H 	0.49723 0.53997 0.36926 0.02400
H 	H 	0.67024 0.52080 0.36929 0.02100
H 	H 	0.77231 0.53307 0.39554 0.03500
H 	H 	0.68961 0.50343 0.41228 0.03800
H 	H 	0.37228 0.51505 0.42129 0.04100
H 	H 	0.45348 0.54495 0.40394 0.03500
H 	H 	0.72125 0.53882 0.42991 0.02900
H 	H 	0.65237 0.50887 0.44595 0.03800
H 	H 	0.30099 0.52889 0.44710 0.04400
H 	H 	0.47508 0.54928 0.44589 0.04100
H 	H 	0.87715 0.48581 0.48574 0.07200
H 	H 	0.07373 0.50511 0.48347 0.07300
H 	H 	0.95349 0.51084 0.45845 0.06900
H 	H 	0.58719 0.43283 0.46210 0.06800
H 	H 	0.46638 0.44296 0.43560 0.07000
H 	H 	0.64815 0.46096 0.43773 0.07000
H 	H 	0.05693 0.39394 0.48417 0.06200
H 	H 	0.30001 0.39885 0.47174 0.06200
H 	H 	0.21030 0.41640 0.48287 0.07100
H 	H 	0.64897 0.45663 0.39167 0.06600
H 	H 	0.79274 0.48193 0.38550 0.06600
H 	H 	0.86666 0.46527 0.37292 0.06900
H 	H 	0.45898 0.38036 0.45007 0.06100
H 	H 	0.70739 0.37995 0.45659 0.06800
H 	H 	0.58184 0.40616 0.44578 0.06600
H 	H 	0.72063 0.41074 0.34161 0.08400
H 	H 	0.77362 0.43801 0.33948 0.07400
H 	H 	0.96125 0.41838 0.34550 0.08100
H 	H 	0.39286 0.53613 0.52673 0.04200
H 	H 	0.07783 0.52985 0.54625 0.04900
H 	H 	0.55995 0.62919 0.57896 0.03500
H 	H 	0.02083 0.57203 0.62362 0.05400
H 	H 	0.59987 0.54289 0.48036 0.04300
H 	H 	0.00230 0.47849 0.41296 0.04300
H 	H 	0.02705 0.39452 0.44521 0.04500
H 	H 	0.78901 0.60844 0.61461 0.08200
H 	H 	0.99955 0.62627 0.62971 -0.03100
H 	H 	0.30270 0.63794 0.62833 0.14000
H 	H 	0.77325 0.39341 0.31063 0.16500
H 	H 	0.20892 0.60784 0.68916 0.16500
H 	H 	0.71468 0.36340 0.37296 0.11600
H 	H 	0.02483 0.37926 0.36452 -0.01300
H 	H 	0.22949 0.39768 0.37970 0.06900
H 	H 	0.96936 0.60892 0.55413 0.04500
H 	H 	0.99277 0.52485 0.58700 0.04300
H 	H 	0.39525 0.46001 0.51979 0.04300
H 	H 	0.98554 0.43191 0.37577 0.05200
H 	H 	0.44478 0.37440 0.41897 0.03900
H 	H 	0.91702 0.47316 0.45386 0.04700
H 	H 	0.60217 0.46684 0.47331 0.04200
H 	H 	0.05989 0.58683 0.65357 0.08500
H 	H 	0.22974 0.56531 0.65920 0.07600
H 	H 	0.30859 0.59172 0.65744 0.08800
H 	H 	0.40746 0.59768 0.55240 0.06600
H 	H 	0.28544 0.62407 0.54219 0.06700
H 	H 	0.53579 0.62324 0.54799 0.06000
H 	H 	0.13221 0.53841 0.62660 0.07000
H 	H 	0.20502 0.52163 0.61411 0.06700
H 	H 	0.34898 0.54698 0.60772 0.06700
H 	H 	0.78547 0.58663 0.51684 0.07100
H 	H 	0.69610 0.60438 0.52772 0.06200
H 	H 	0.93925 0.60913 0.51537 0.06100
H 	H 	0.34741 0.54227 0.56224 0.07000
H 	H 	0.52883 0.56058 0.56396 0.07100
H 	H 	0.40709 0.57025 0.53760 0.06800
H 	H 	0.04092 0.49202 0.54187 0.07100
H 	H 	0.92123 0.49769 0.51685 0.07400
H 	H 	0.11795 0.51698 0.51457 0.07300
H 	H 	0.51924 0.45363 0.55430 0.04100
H 	H 	0.69387 0.47396 0.55309 0.04300
H 	H 	0.34259 0.49410 0.55415 0.03800
H 	H 	0.27387 0.46416 0.57029 0.02900
H 	H 	0.54169 0.45814 0.59622 0.03500
H 	H 	0.62325 0.48802 0.57873 0.04100
H 	H 	0.30639 0.49979 0.58765 0.03800
H 	H 	0.22320 0.47017 0.60453 0.03500
H 	H 	0.32593 0.48263 0.63061 0.02100
H 	H 	0.49830 0.46334 0.63076 0.02400
H 	H 	0.55550 0.51633 0.60167 0.06000
H 	H 	0.64303 0.49914 0.62987 0.05300
H 	H 	0.73327 0.49549 0.60663 0.05500
H 	H 	0.65625 0.39328 0.09904 0.06100
H 	H 	0.72352 0.36993 0.12582 0.06200
H 	H 	0.83949 0.39809 0.11495 0.06900
H 	H 	0.86649 0.36926 0.09077 0.01800
H 	H 	0.03953 0.36929 0.10991 0.00500
H 	H 	0.16785 0.39554 0.07139 0.04000
H 	H 	0.10189 0.41228 0.08429 0.04300
H 	H 	0.79357 0.42129 0.06366 0.03600
H 	H 	0.85742 0.40394 0.05111 0.03000
H 	H 	0.15116 0.42991 0.03127 0.03300
H 	H 	0.09832 0.44595 0.04518 0.04000
H 	H 	0.74809 0.44710 0.02401 0.04100
H 	H 	0.92097 0.44589 0.00483 0.03800
H 	H 	0.36289 0.48574 0.02845 0.07000
H 	H 	0.55720 0.48347 0.01142 0.07200
H 	H 	0.41194 0.45845 0.03071 0.06700
H 	H 	0.04929 0.46210 0.10507 0.04900
H 	H 	0.90198 0.43560 0.12144 0.06600
H 	H 	0.08588 0.43773 0.10131 0.05200
H 	H 	0.54110 0.48417 0.12189 0.06300
H 	H 	0.77175 0.47174 0.12941 0.06500
H 	H 	0.69317 0.48287 0.10073 0.07200
H 	H 	0.04064 0.39167 0.15170 0.06000
H 	H 	0.17824 0.38550 0.13257 0.06100
H 	H 	0.23958 0.37292 0.16181 0.06600
H 	H 	0.90905 0.45007 0.16957 0.07600
H 	H 	0.16398 0.45659 0.16346 0.06500
H 	H 	0.02762 0.44578 0.14806 0.06500
H 	H 	0.06224 0.34161 0.24765 0.06800
H 	H 	0.11310 0.33948 0.22251 0.06400
H 	H 	0.30675 0.34550 0.23612 0.06900
H 	H 	0.91959 0.52673 0.93714 0.03100
H 	H 	0.62408 0.54625 0.92390 0.04300
H 	H 	0.13891 0.57896 0.79185 0.03600
H 	H 	0.64445 0.62362 0.80435 0.04800
H 	H 	0.08023 0.48036 0.97675 0.04400
H 	H 	0.41526 0.41296 0.10855 0.04100
H 	H 	0.47226 0.44521 0.16027 0.04600
H 	H 	0.40362 0.61461 0.77695 0.08300
H 	H 	0.62926 0.62971 0.74402 -0.01800
H 	H 	0.93103 0.62833 0.73373 0.09900
H 	H 	0.08388 0.31063 0.29596 0.13500
H 	H 	0.89808 0.68916 0.70300 0.13300
H 	H 	0.08764 0.37296 0.26364 0.07800
H 	H 	0.38935 0.36452 0.25622 -0.00100
H 	H 	0.60919 0.37970 0.22262 0.07100
H 	H 	0.52349 0.55413 0.83695 0.04500
H 	H 	0.57977 0.58700 0.88815 0.04200
H 	H 	0.91504 0.51979 0.02020 0.04400
H 	H 	0.36131 0.37577 0.19232 0.04600
H 	H 	0.86375 0.41897 0.20663 0.04000
H 	H 	0.37088 0.45386 0.07298 0.04300
H 	H 	0.07548 0.47331 0.05985 0.03300
H 	H 	0.71346 0.65357 0.75960 0.07200
H 	H 	0.88894 0.65920 0.77549 0.06500
H 	H 	0.96603 0.65744 0.75084 0.07100
H 	H 	0.95986 0.55240 0.84992 0.06500
H 	H 	0.82763 0.54219 0.83374 0.06400
H 	H 	0.08378 0.54799 0.82877 0.07600
H 	H 	0.75881 0.62660 0.83499 0.06600
H 	H 	0.81913 0.61411 0.86426 0.06100
H 	H 	0.95670 0.60772 0.84530 0.06000
H 	H 	0.30231 0.51684 0.89653 0.07300
H 	H 	0.22382 0.52772 0.86790 0.06600
H 	H 	0.45462 0.51537 0.87550 0.06300
H 	H 	0.90965 0.56224 0.89549 0.05000
H 	H 	0.09279 0.56396 0.87546 0.06600
H 	H 	0.94469 0.53760 0.89215 0.04800
H 	H 	0.58279 0.54187 0.96611 0.06700
H 	H 	0.43808 0.51685 0.98546 0.07200
H 	H 	0.63252 0.51457 0.96845 0.07000
H 	H 	0.07354 0.55430 0.99207 0.03800
H 	H 	0.24696 0.55309 0.97295 0.04100
H 	H 	0.89674 0.55415 0.95175 0.04100
H 	H 	0.84416 0.57029 0.96555 0.03300
H 	H 	0.13791 0.59622 0.94564 0.02900
H 	H 	0.20198 0.57873 0.93325 0.03500
H 	H 	0.89404 0.58765 0.91256 0.04300
H 	H 	0.82773 0.60453 0.92530 0.04100
H 	H 	0.95654 0.63061 0.88676 0.00300
H 	H 	0.12906 0.63076 0.90590 0.01800
H 	H 	0.15717 0.60167 0.88200 0.07000
H 	H 	0.27290 0.62987 0.87099 0.06300
H 	H 	0.33990 0.60663 0.89788 0.06100
H 	H 	0.75529 0.09904 0.50768 0.05500
H 	H 	0.84934 0.12582 0.50425 0.05500
H 	H 	0.95444 0.11495 0.48696 0.06300
H 	H 	0.95726 0.09077 0.53997 0.03400
H 	H 	0.14944 0.10991 0.52080 0.02300
H 	H 	0.23924 0.07139 0.53307 0.03400
H 	H 	0.18618 0.08429 0.50343 0.03600
H 	H 	0.85723 0.06366 0.51505 0.04000
H 	H 	0.90853 0.05111 0.54495 0.03400
H 	H 	0.18243 0.03127 0.53882 0.03100
H 	H 	0.14350 0.04518 0.50887 0.03800
H 	H 	0.77210 0.02401 0.52889 0.04300
H 	H 	0.92580 0.00483 0.54928 0.03900
H 	H 	0.39134 0.02845 0.48581 0.06900
H 	H 	0.56862 0.01142 0.50511 0.07100
H 	H 	0.44265 0.03071 0.51084 0.06700
H 	H 	0.15436 0.10507 0.43283 0.06700
H 	H 	0.02342 0.12144 0.44296 0.06800
H 	H 	0.18719 0.10131 0.46096 0.07000
H 	H 	0.66299 0.12189 0.39394 0.06500
H 	H 	0.90116 0.12941 0.39885 0.06800
H 	H 	0.79390 0.10073 0.41640 0.07300
H 	H 	0.19234 0.15170 0.45663 0.06300
H 	H 	0.31081 0.13257 0.48193 0.06300
H 	H 	0.40139 0.16181 0.46527 0.06700
H 	H 	0.07862 0.16957 0.38036 0.05600
H 	H 	0.32744 0.16346 0.37995 0.06400
H 	H 	0.17568 0.14806 0.40616 0.06300
H 	H 	0.30989 0.24765 0.41074 0.07900
H 	H 	0.33561 0.22251 0.43801 0.07000
H 	H 	0.54287 0.23612 0.41838 0.07400
H 	H 	0.85673 0.93714 0.53613 0.03600
H 	H 	0.54798 0.92390 0.52985 0.04100
H 	H 	0.93076 0.79185 0.62919 0.03200
H 	H 	0.44880 0.80435 0.57203 0.05100
H 	H 	0.05698 0.97675 0.54289 0.04400
H 	H 	0.52381 0.10855 0.47849 0.04300
H 	H 	0.63253 0.16027 0.39452 0.04800
H 	H 	0.18057 0.77695 0.60844 0.07600
H 	H 	0.37328 0.74402 0.62627 -0.00800
H 	H 	0.66476 0.73373 0.63794 0.12500
H 	H 	0.37984 0.29596 0.39341 0.16300
H 	H 	0.60108 0.70300 0.60784 0.16300
H 	H 	0.35128 0.26364 0.36340 0.10200
H 	H 	0.64557 0.25622 0.37926 0.00800
H 	H 	0.83181 0.22262 0.39768 0.06400
H 	H 	0.36044 0.83695 0.60892 0.04800
H 	H 	0.46792 0.88815 0.52485 0.04300
H 	H 	0.93524 0.02020 0.46001 0.04400
H 	H 	0.55363 0.19232 0.43191 0.04900
H 	H 	0.07038 0.20663 0.37440 0.03700
H 	H 	0.44386 0.07298 0.47316 0.04100
H 	H 	0.13533 0.05985 0.46684 0.03800
H 	H 	0.47306 0.75960 0.58683 0.07700
H 	H 	0.66443 0.77549 0.56531 0.07200
H 	H 	0.71687 0.75084 0.59172 0.08400
H 	H 	0.80978 0.84992 0.59768 0.06200
H 	H 	0.66137 0.83374 0.62407 0.06300
H 	H 	0.91255 0.82877 0.62324 0.05500
H 	H 	0.59380 0.83499 0.53841 0.06700
H 	H 	0.68339 0.86426 0.52163 0.06300
H 	H 	0.80200 0.84530 0.54698 0.06300
H 	H 	0.19884 0.89653 0.58663 0.07300
H 	H 	0.09172 0.86790 0.60438 0.06900
H 	H 	0.33012 0.87550 0.60913 0.06500
H 	H 	0.80514 0.89549 0.54227 0.07000
H 	H 	0.96825 0.87546 0.56058 0.06800
H 	H 	0.83684 0.89215 0.57025 0.06700
H 	H 	0.54890 0.96611 0.49202 0.06700
H 	H 	0.42354 0.98546 0.49769 0.07100
H 	H 	0.60097 0.96845 0.51698 0.06900
H 	H 	0.06561 0.99207 0.45363 0.04000
H 	H 	0.21991 0.97295 0.47396 0.04200
H 	H 	0.84849 0.95175 0.49410 0.03900
H 	H 	0.80971 0.96555 0.46416 0.03100
H 	H 	0.08355 0.94564 0.45814 0.03300
H 	H 	0.13523 0.93325 0.48802 0.04000
H 	H 	0.80660 0.91256 0.49979 0.03600
H 	H 	0.75303 0.92530 0.47017 0.03400
H 	H 	0.84330 0.88676 0.48263 0.02300
H 	H 	0.03496 0.90590 0.46334 0.03500
H 	H 	0.03917 0.88200 0.51633 0.06300
H 	H 	0.14389 0.87099 0.49914 0.05500
H 	H 	0.23778 0.89788 0.49549 0.05400
C 	C 	0.39334 0.50419 0.38580 -0.16800
C 	C 	0.55404 0.52275 0.37985 -0.02800
C 	C 	0.64196 0.52106 0.40123 -0.07900
C 	C 	0.50098 0.52731 0.41507 -0.06600
C 	C 	0.59562 0.52609 0.43587 -0.05400
C 	C 	0.45267 0.53093 0.45076 -0.09500
C 	C 	0.00338 0.49687 0.47472 -0.21500
C 	C 	0.52828 0.44803 0.44748 -0.20600
C 	C 	0.17186 0.40736 0.47347 -0.20400
C 	C 	0.79930 0.46416 0.38864 -0.20600
C 	C 	0.59952 0.39052 0.44454 -0.19300
C 	C 	0.80579 0.41961 0.34883 -0.22600
C 	C 	0.61080 0.54473 0.54361 0.05000
C 	C 	0.54257 0.53476 0.53103 -0.07400
C 	C 	0.85635 0.51997 0.53079 0.06200
C 	C 	0.92771 0.53113 0.54213 -0.09000
C 	C 	0.44280 0.61654 0.58875 -0.03100
C 	C 	0.33678 0.60658 0.57828 0.03600
C 	C 	0.25109 0.59367 0.62465 0.10600
C 	C 	0.13948 0.58441 0.61386 -0.10300
C 	C 	0.66189 0.52211 0.52486 -0.01900
C 	C 	0.80840 0.54386 0.54829 -0.01000
C 	C 	0.18321 0.59018 0.59101 0.00600
C 	C 	0.40302 0.61028 0.61174 -0.10100
C 	C 	0.55473 0.52480 0.48891 -0.07300
C 	C 	0.47631 0.51540 0.47624 0.02000
C 	C 	0.41768 0.49175 0.48766 -0.00200
C 	C 	0.91430 0.44967 0.40907 0.06300
C 	C 	0.00748 0.46013 0.41998 -0.09700
C 	C 	0.09960 0.44716 0.44043 -0.01300
C 	C 	0.09980 0.42304 0.45009 0.05600
C 	C 	0.02014 0.41285 0.43822 -0.09700
C 	C 	0.92224 0.42570 0.41819 -0.00300
C 	C 	0.84808 0.62908 0.62994 0.20800
C 	C 	0.72727 0.61858 0.62136 -0.22500
C 	C 	0.52854 0.62088 0.62171 0.19900
C 	C 	0.45319 0.63467 0.62986 -0.33400
C 	C 	0.45061 0.35662 0.36111 0.32700
C 	C 	0.24987 0.36089 0.35860 -0.31400
C 	C 	0.11489 0.35232 0.34727 0.52500
C 	C 	0.90025 0.64896 0.65129 0.58900
C 	C 	0.77477 0.64214 0.63931 -0.42500
C 	C 	0.57262 0.64558 0.63837 0.48600
C 	C 	0.56564 0.36749 0.37006 -0.24300
C 	C 	0.48874 0.38264 0.37636 0.14700
C 	C 	0.29242 0.38639 0.37444 -0.17800
C 	C 	0.17537 0.37566 0.36578 0.14700
C 	C 	0.07526 0.57785 0.58123 -0.00400
C 	C 	0.97606 0.59056 0.56127 -0.09900
C 	C 	0.89570 0.58023 0.54956 0.05600
C 	C 	0.89551 0.55610 0.55939 -0.01300
C 	C 	0.98794 0.54323 0.57985 -0.09900
C 	C 	0.08253 0.55384 0.59052 0.06600
C 	C 	0.57745 0.51112 0.51252 -0.00200
C 	C 	0.51877 0.48749 0.52393 0.02000
C 	C 	0.44041 0.47809 0.51126 -0.07300
C 	C 	0.60902 0.39326 0.38668 -0.07900
C 	C 	0.81783 0.41354 0.40801 0.00100
C 	C 	0.18655 0.45925 0.45168 -0.01100
C 	C 	0.33307 0.48078 0.47531 -0.01800
C 	C 	0.86681 0.41940 0.38522 -0.09600
C 	C 	0.76087 0.41000 0.37417 0.09400
C 	C 	0.66356 0.39710 0.42031 0.04100
C 	C 	0.56284 0.38704 0.40956 -0.04200
C 	C 	0.06717 0.47188 0.45795 -0.08800
C 	C 	0.13854 0.48294 0.46940 0.06000
C 	C 	0.45242 0.46822 0.46902 -0.07500
C 	C 	0.38420 0.45837 0.45635 0.05100
C 	C 	0.21093 0.58407 0.65006 -0.23400
C 	C 	0.39442 0.61324 0.55386 -0.19000
C 	C 	0.19862 0.53944 0.61089 -0.20700
C 	C 	0.82404 0.59579 0.52612 -0.20400
C 	C 	0.46676 0.55522 0.55230 -0.20600
C 	C 	0.99146 0.50596 0.52557 -0.22000
C 	C 	0.54215 0.47198 0.54940 -0.09500
C 	C 	0.39944 0.47688 0.56429 -0.05400
C 	C 	0.49439 0.47577 0.58502 -0.06500
C 	C 	0.35375 0.48215 0.59878 -0.07900
C 	C 	0.44192 0.48058 0.62010 -0.02800
C 	C 	0.60311 0.49909 0.61407 -0.16800
C 	C 	0.77914 0.38580 0.11001 -0.18400
C 	C 	0.93389 0.37985 0.09740 0.00900
C 	C 	0.04319 0.40123 0.07771 -0.11200
C 	C 	0.91605 0.41507 0.05762 -0.04000
C 	C 	0.03149 0.43587 0.03804 -0.07200
C 	C 	0.90343 0.45076 0.01831 -0.08500
C 	C 	0.47810 0.47472 0.02841 -0.21100
C 	C 	0.97576 0.44748 0.10449 -0.16300
C 	C 	0.64533 0.47347 0.11917 -0.20400
C 	C 	0.18794 0.38864 0.14720 -0.20000
C 	C 	0.04406 0.44454 0.16494 -0.21300
C 	C 	0.15462 0.34883 0.23156 -0.20400
C 	C 	0.15441 0.54361 0.91166 0.03300
C 	C 	0.07360 0.53103 0.93421 -0.05400
C 	C 	0.38714 0.53079 0.94924 0.06100
C 	C 	0.46984 0.54213 0.92674 -0.08600
C 	C 	0.03155 0.58875 0.79471 -0.01900
C 	C 	0.91506 0.57828 0.81514 0.01600
C 	C 	0.87574 0.62465 0.78168 0.05800
C 	C 	0.75334 0.61386 0.80173 -0.09200
C 	C 	0.18675 0.52486 0.95303 -0.02500
C 	C 	0.35669 0.54829 0.90785 -0.00400
C 	C 	0.77422 0.59101 0.81881 0.00300
C 	C 	0.01476 0.61174 0.77798 -0.05400
C 	C 	0.04364 0.48891 0.98629 -0.07300
C 	C 	0.95255 0.47624 0.00836 0.01500
C 	C 	0.90534 0.48766 0.02059 0.00200
C 	C 	0.32337 0.40907 0.14126 0.05200
C 	C 	0.42746 0.41998 0.11989 -0.08100
C 	C 	0.54003 0.44043 0.11241 -0.01700
C 	C 	0.54989 0.45009 0.12687 0.05700
C 	C 	0.45836 0.43822 0.14893 -0.08100
C 	C 	0.34043 0.41819 0.15611 -0.01300
C 	C 	0.47802 0.62994 0.74098 0.20600
C 	C 	0.34863 0.62136 0.76006 -0.20700
C 	C 	0.15025 0.62171 0.75741 0.17000
C 	C 	0.08305 0.62986 0.73547 -0.27100
C 	C 	0.81172 0.36111 0.28227 0.31100
C 	C 	0.60847 0.35860 0.28051 -0.31200
C 	C 	0.46216 0.34727 0.30041 0.56000
C 	C 	0.55154 0.65129 0.69975 0.62700
C 	C 	0.41408 0.63931 0.71855 -0.42300
C 	C 	0.21099 0.63837 0.71605 0.46600
C 	C 	0.93570 0.37006 0.26245 -0.18600
C 	C 	0.86510 0.37636 0.24100 0.12100
C 	C 	0.66686 0.37444 0.23917 -0.16100
C 	C 	0.54115 0.36578 0.25856 0.14500
C 	C 	0.65649 0.58123 0.84092 -0.01500
C 	C 	0.53733 0.56127 0.84817 -0.08000
C 	C 	0.44526 0.54956 0.87021 0.05700
C 	C 	0.45490 0.55939 0.88451 -0.01700
C 	C 	0.56779 0.57985 0.87692 -0.08100
C 	C 	0.67305 0.59052 0.85564 0.05300
C 	C 	0.08997 0.51252 0.97636 0.00200
C 	C 	0.04270 0.52393 0.98858 0.01700
C 	C 	0.95167 0.51126 0.01065 -0.07400
C 	C 	0.99570 0.38668 0.22006 -0.03600
C 	C 	0.22584 0.40801 0.17845 -0.00200
C 	C 	0.63823 0.45168 0.08907 -0.00400
C 	C 	0.80838 0.47531 0.04391 -0.02500
C 	C 	0.25203 0.38522 0.19538 -0.08600
C 	C 	0.13504 0.37417 0.21583 0.05000
C 	C 	0.08387 0.42031 0.18259 0.02300
C 	C 	0.97240 0.40956 0.20340 -0.03100
C 	C 	0.52512 0.45795 0.07017 -0.08500
C 	C 	0.60794 0.46940 0.04766 0.06100
C 	C 	0.92144 0.46902 0.06276 -0.05600
C 	C 	0.84055 0.45635 0.08528 0.03500
C 	C 	0.86099 0.65006 0.76587 -0.21000
C 	C 	0.94828 0.55386 0.83290 -0.21200
C 	C 	0.80951 0.61089 0.84967 -0.20000
C 	C 	0.35016 0.52612 0.87809 -0.20400
C 	C 	0.01906 0.55230 0.89248 -0.15800
C 	C 	0.51703 0.52557 0.96847 -0.21100
C 	C 	0.09155 0.54940 0.97862 -0.08300
C 	C 	0.96373 0.56429 0.95883 -0.07500
C 	C 	0.07941 0.58502 0.93921 -0.03600
C 	C 	0.95253 0.59878 0.91907 -0.11600
C 	C 	0.06202 0.62010 0.89932 0.01400
C 	C 	0.21718 0.61407 0.88684 -0.18600
C 	C 	0.88915 0.11001 0.50419 -0.15600
C 	C 	0.03129 0.09740 0.52275 -0.04700
C 	C 	0.12090 0.07771 0.52106 -0.08000
C 	C 	0.97367 0.05762 0.52731 -0.05700
C 	C 	0.06953 0.03804 0.52609 -0.06200
C 	C 	0.92174 0.01831 0.53093 -0.09000
C 	C 	0.50651 0.02841 0.49687 -0.20800
C 	C 	0.08025 0.10449 0.44803 -0.21600
C 	C 	0.76450 0.11917 0.40736 -0.20400
C 	C 	0.33514 0.14720 0.46416 -0.20200
C 	C 	0.20900 0.16494 0.39052 -0.19200
C 	C 	0.38618 0.23156 0.41961 -0.21900
C 	C 	0.06607 0.91166 0.54473 0.06300
C 	C 	0.00781 0.93421 0.53476 -0.07000
C 	C 	0.33638 0.94924 0.51997 0.05600
C 	C 	0.39658 0.92674 0.53113 -0.07800
C 	C 	0.82626 0.79471 0.61654 -0.04300
C 	C 	0.73020 0.81514 0.60658 0.03600
C 	C 	0.65742 0.78168 0.59367 0.09100
C 	C 	0.55507 0.80173 0.58441 -0.10000
C 	C 	0.13978 0.95303 0.52211 -0.01700
C 	C 	0.26454 0.90785 0.54386 -0.01600
C 	C 	0.59303 0.81881 0.59018 0.00500
C 	C 	0.79274 0.77798 0.61028 -0.08000
C 	C 	0.02993 0.98629 0.52480 -0.07100
C 	C 	0.96091 0.00836 0.51540 0.01700
C 	C 	0.92593 0.02059 0.49175 -0.00000
C 	C 	0.46463 0.14126 0.44967 0.05400
C 	C 	0.54735 0.11989 0.46013 -0.08300
C 	C 	0.65244 0.11241 0.44716 -0.01100
C 	C 	0.67676 0.12687 0.42304 0.05600
C 	C 	0.60729 0.14893 0.41285 -0.08000
C 	C 	0.49654 0.15611 0.42570 -0.01400
C 	C 	0.21900 0.74098 0.62908 0.17600
C 	C 	0.10869 0.76006 0.61858 -0.15600
C 	C 	0.90766 0.75741 0.62088 0.13600
C 	C 	0.81852 0.73547 0.63467 -0.29400
C 	C 	0.09399 0.28227 0.35662 0.27600
C 	C 	0.88898 0.28051 0.36089 -0.26600
C 	C 	0.76257 0.30041 0.35232 0.54600
C 	C 	0.25129 0.69975 0.64896 0.60800
C 	C 	0.13263 0.71855 0.64214 -0.37000
C 	C 	0.92704 0.71605 0.64558 0.42600
C 	C 	0.19815 0.26245 0.36749 -0.20800
C 	C 	0.10610 0.24100 0.38264 0.09100
C 	C 	0.90603 0.23917 0.38639 -0.11500
C 	C 	0.79971 0.25856 0.37566 0.11800
C 	C 	0.49741 0.84092 0.57785 -0.01600
C 	C 	0.38550 0.84817 0.59056 -0.07900
C 	C 	0.31547 0.87021 0.58023 0.05600
C 	C 	0.33941 0.88451 0.55610 -0.01000
C 	C 	0.44471 0.87692 0.54323 -0.08400
C 	C 	0.52869 0.85564 0.55384 0.05500
C 	C 	0.06633 0.97636 0.51112 -0.00100
C 	C 	0.03128 0.98858 0.48749 0.01900
C 	C 	0.96232 0.01065 0.47809 -0.07400
C 	C 	0.21576 0.22006 0.39326 -0.06000
C 	C 	0.40429 0.17845 0.41354 -0.00000
C 	C 	0.72730 0.08907 0.45925 -0.01500
C 	C 	0.85229 0.04391 0.48078 -0.01800
C 	C 	0.44741 0.19538 0.41940 -0.09300
C 	C 	0.35087 0.21583 0.41000 0.08000
C 	C 	0.26646 0.18259 0.39710 0.04200
C 	C 	0.17580 0.20340 0.38704 -0.05300
C 	C 	0.59529 0.07017 0.47188 -0.07900
C 	C 	0.65560 0.04766 0.48294 0.05600
C 	C 	0.98420 0.06276 0.46822 -0.07100
C 	C 	0.92583 0.08528 0.45837 0.06100
C 	C 	0.62686 0.76587 0.58407 -0.22600
C 	C 	0.78118 0.83290 0.61324 -0.18900
C 	C 	0.65918 0.84967 0.53944 -0.20200
C 	C 	0.22825 0.87809 0.59579 -0.20400
C 	C 	0.91154 0.89248 0.55522 -0.21800
C 	C 	0.48550 0.96847 0.50596 -0.20800
C 	C 	0.07017 0.97862 0.47198 -0.08800
C 	C 	0.92256 0.95883 0.47688 -0.06500
C 	C 	0.01862 0.93921 0.47577 -0.05400
C 	C 	0.87160 0.91907 0.48215 -0.08100
C 	C 	0.96134 0.89932 0.48058 -0.05100
C 	C 	0.10402 0.88684 0.49909 -0.15300
O 	O 	0.65832 0.38396 0.31123 -0.44500
O 	O 	0.53917 0.34046 0.35710 -0.59800
O 	O 	0.17147 0.33924 0.33989 -0.73400
O 	O 	0.94114 0.35868 0.34475 -0.49700
O 	O 	0.07686 0.64373 0.65278 -0.51000
O 	O 	0.83725 0.65973 0.66101 -0.74200
O 	O 	0.49621 0.65886 0.64451 -0.68200
O 	O 	0.33542 0.61607 0.68713 -0.44100
O 	O 	0.96955 0.31123 0.30481 -0.40600
O 	O 	0.89627 0.35710 0.30244 -0.58500
O 	O 	0.51136 0.33989 0.32087 -0.73400
O 	O 	0.28589 0.34475 0.29657 -0.53300
O 	O 	0.72964 0.65278 0.70349 -0.54900
O 	O 	0.49826 0.66101 0.67926 -0.74200
O 	O 	0.14072 0.64451 0.69663 -0.66800
O 	O 	0.02255 0.68713 0.69680 -0.39900
O 	O 	0.27436 0.30481 0.38396 -0.44800
O 	O 	0.19871 0.30244 0.34046 -0.59600
O 	O 	0.83223 0.32087 0.33924 -0.72100
O 	O 	0.58246 0.29657 0.35868 -0.52100
O 	O 	0.43313 0.70349 0.64373 -0.53500
O 	O 	0.17752 0.67926 0.65973 -0.72600
O 	O 	0.83735 0.69663 0.65886 -0.67700
O 	O 	0.71935 0.69680 0.61607 -0.44400
