data_crystal

_cell_length_a 12.60200
_cell_length_b 15.12900
_cell_length_c 18.54900
_cell_angle_alpha 90.00000
_cell_angle_beta  96.59900
_cell_angle_gamma 90.00000

_symmetry_space_group_name_	'P 1'
_symmetry_space_group_name_H-M	'P 1'

loop_
_symmetry_equiv_pos_as_xyz
  x,y,z

loop_
_atom_site_label
_atom_site_type_symbol
_atom_site_fract_x
_atom_site_fract_y
_atom_site_fract_z
_atom_site_charge
N 	N 	0.43016 0.59657 0.83126 -0.30200
C 	C 	0.39770 0.68017 0.82670 0.10600
H 	H 	0.40850 0.71260 0.78560 -0.04500
C 	C 	0.34830 0.72074 0.88085 -0.19100
H 	H 	0.32750 0.77960 0.87580 0.09200
C 	C 	0.32984 0.67430 0.94232 0.12900
C 	C 	0.36530 0.58783 0.94679 -0.19600
H 	H 	0.35620 0.55410 0.98750 0.09300
C 	C 	0.41380 0.55186 0.89130 0.10600
H 	H 	0.43650 0.49340 0.89550 -0.04700
C 	C 	0.27260 0.71105 0.00040 -0.07500
H 	H 	0.26820 0.67590 0.04110 0.05800
N 	N 	0.56984 0.59657 0.66874 -0.30200
C 	C 	0.60230 0.68017 0.67330 0.11100
H 	H 	0.59150 0.71260 0.71440 -0.04500
C 	C 	0.65170 0.72074 0.61915 -0.19700
H 	H 	0.67250 0.77960 0.62420 0.09600
C 	C 	0.67016 0.67430 0.55768 0.13900
C 	C 	0.63470 0.58783 0.55321 -0.20300
H 	H 	0.64380 0.55410 0.51250 0.09600
C 	C 	0.58620 0.55186 0.60870 0.11100
H 	H 	0.56350 0.49340 0.60450 -0.04800
C 	C 	0.72740 0.71105 0.49960 -0.09000
H 	H 	0.73180 0.67590 0.45890 0.06300
N 	N 	0.06984 0.90343 0.16874 -0.31200
C 	C 	0.10230 0.81983 0.17330 0.10900
H 	H 	0.09150 0.78740 0.21440 -0.05600
C 	C 	0.15170 0.77926 0.11915 -0.20900
H 	H 	0.17250 0.72040 0.12420 0.09600
C 	C 	0.17016 0.82570 0.05768 0.14300
C 	C 	0.13470 0.91217 0.05321 -0.21400
H 	H 	0.14380 0.94590 0.01250 0.09300
C 	C 	0.08620 0.94814 0.10870 0.10600
H 	H 	0.06350 0.00660 0.10450 -0.05900
C 	C 	0.22740 0.78895 0.99960 -0.10900
H 	H 	0.23180 0.82410 0.95890 0.06500
N 	N 	0.93016 0.90343 0.33126 -0.28800
C 	C 	0.89770 0.81983 0.32670 0.11500
H 	H 	0.90850 0.78740 0.28560 -0.03300
C 	C 	0.84830 0.77926 0.38085 -0.19100
H 	H 	0.82750 0.72040 0.37580 0.09600
C 	C 	0.82984 0.82570 0.44232 0.14300
C 	C 	0.86530 0.91217 0.44679 -0.19600
H 	H 	0.85620 0.94590 0.48750 0.10200
C 	C 	0.91380 0.94814 0.39130 0.11600
H 	H 	0.93650 0.00660 0.39550 -0.03500
C 	C 	0.77260 0.78895 0.50040 -0.08600
H 	H 	0.76820 0.82410 0.54110 0.06400
Zn	Zn	0.50000 0.53745 0.75000 1.15200
Zn	Zn	-0.00000 0.96255 0.25000 1.13500
N 	N 	0.93016 0.09657 0.83126 -0.28700
C 	C 	0.89770 0.18017 0.82670 0.11200
H 	H 	0.90850 0.21260 0.78560 -0.03200
C 	C 	0.84830 0.22074 0.88085 -0.18500
H 	H 	0.82750 0.27960 0.87580 0.09400
C 	C 	0.82984 0.17430 0.94232 0.13300
C 	C 	0.86530 0.08783 0.94679 -0.19000
H 	H 	0.85620 0.05410 0.98750 0.09900
C 	C 	0.91380 0.05186 0.89130 0.11300
H 	H 	0.93650 0.99340 0.89550 -0.03400
C 	C 	0.77260 0.21105 0.00040 -0.07000
H 	H 	0.76820 0.17590 0.04110 0.06000
N 	N 	0.06984 0.09657 0.66874 -0.31100
C 	C 	0.10230 0.18017 0.67330 0.10600
H 	H 	0.09150 0.21260 0.71440 -0.05500
C 	C 	0.15170 0.22074 0.61915 -0.20300
H 	H 	0.17250 0.27960 0.62420 0.09400
C 	C 	0.17016 0.17430 0.55768 0.13400
C 	C 	0.13470 0.08783 0.55321 -0.20800
H 	H 	0.14380 0.05410 0.51250 0.09100
C 	C 	0.08620 0.05186 0.60870 0.10400
H 	H 	0.06350 0.99340 0.60450 -0.05900
C 	C 	0.22740 0.21105 0.49960 -0.09400
H 	H 	0.23180 0.17590 0.45890 0.06100
N 	N 	0.56984 0.40343 0.16874 -0.30300
C 	C 	0.60230 0.31983 0.17330 0.11500
H 	H 	0.59150 0.28740 0.21440 -0.04600
C 	C 	0.65170 0.27926 0.11915 -0.20300
H 	H 	0.67250 0.22040 0.12420 0.09900
C 	C 	0.67016 0.32570 0.05768 0.14900
C 	C 	0.63470 0.41217 0.05321 -0.20900
H 	H 	0.64380 0.44590 0.01250 0.09900
C 	C 	0.58620 0.44814 0.10870 0.11400
H 	H 	0.56350 0.50660 0.10450 -0.04800
C 	C 	0.72740 0.28895 0.99960 -0.10600
H 	H 	0.73180 0.32410 0.95890 0.06800
N 	N 	0.43016 0.40343 0.33126 -0.30200
C 	C 	0.39770 0.31983 0.32670 0.11000
H 	H 	0.40850 0.28740 0.28560 -0.04500
C 	C 	0.34830 0.27926 0.38085 -0.19700
H 	H 	0.32750 0.22040 0.37580 0.09500
C 	C 	0.32984 0.32570 0.44232 0.13900
C 	C 	0.36530 0.41217 0.44679 -0.20200
H 	H 	0.35620 0.44590 0.48750 0.09600
C 	C 	0.41380 0.44814 0.39130 0.11000
H 	H 	0.43650 0.50660 0.39550 -0.04800
C 	C 	0.27260 0.28895 0.50040 -0.09000
H 	H 	0.26820 0.32410 0.54110 0.06200
Zn	Zn	-0.00000 0.03745 0.75000 1.13500
Zn	Zn	0.50000 0.46255 0.25000 1.15200
N 	N 	0.34172 0.53391 0.68019 -0.26300
C 	C 	0.31780 0.57109 0.61480 0.09200
H 	H 	0.36610 0.61110 0.59900 -0.02100
C 	C 	0.22520 0.55323 0.56942 -0.18100
H 	H 	0.21340 0.58000 0.52410 0.08200
C 	C 	0.15031 0.49571 0.59160 0.11100
C 	C 	0.17090 0.46210 0.66175 -0.18200
H 	H 	0.12070 0.42670 0.68080 0.07400
C 	C 	0.26640 0.48170 0.70262 0.08800
H 	H 	0.27920 0.45710 0.74870 -0.04200
C 	C 	0.05001 0.46772 0.54572 -0.10800
H 	H 	0.02830 0.40920 0.56130 0.03900
C 	C 	0.95057 0.53158 0.53836 -0.04600
H 	H 	0.88760 0.49990 0.55130 0.04500
C 	C 	0.96111 0.61899 0.57779 0.18000
C 	C 	0.01790 0.68974 0.55497 -0.24100
H 	H 	0.05430 0.68470 0.51430 0.09300
C 	C 	0.02010 0.76859 0.59373 0.05500
H 	H 	0.05980 0.81530 0.57830 -0.00700
N 	N 	0.96910 0.78084 0.65106 -0.12700
C 	C 	0.91700 0.71160 0.67429 0.11500
H 	H 	0.88210 0.71850 0.71550 0.00000
C 	C 	0.91190 0.62955 0.64017 -0.18700
H 	H 	0.87620 0.58260 0.65900 0.10000
N 	N 	0.65828 0.46609 0.31981 -0.26200
C 	C 	0.68220 0.42891 0.38520 0.09200
H 	H 	0.63390 0.38890 0.40100 -0.02000
C 	C 	0.77480 0.44677 0.43058 -0.17300
H 	H 	0.78660 0.42000 0.47590 0.08700
C 	C 	0.84969 0.50429 0.40840 0.10900
C 	C 	0.82910 0.53790 0.33825 -0.17300
H 	H 	0.87930 0.57330 0.31920 0.09200
C 	C 	0.73360 0.51830 0.29738 0.09000
H 	H 	0.72080 0.54290 0.25130 -0.03800
C 	C 	0.94999 0.53228 0.45428 -0.03700
H 	H 	0.97170 0.59080 0.43870 0.05300
C 	C 	0.04943 0.46842 0.46164 -0.08000
H 	H 	0.11240 0.50010 0.44870 0.04200
C 	C 	0.03889 0.38101 0.42221 0.03300
C 	C 	0.98210 0.31026 0.44503 -0.08500
H 	H 	0.94570 0.31530 0.48570 0.07200
C 	C 	0.97990 0.23141 0.40627 0.12500
H 	H 	0.94020 0.18470 0.42170 -0.00700
N 	N 	0.03090 0.21916 0.34894 -0.18900
C 	C 	0.08300 0.28840 0.32571 0.06000
H 	H 	0.11790 0.28150 0.28450 0.00100
C 	C 	0.08810 0.37045 0.35983 -0.13800
H 	H 	0.12380 0.41740 0.34100 0.06900
N 	N 	0.84172 0.03391 0.68019 -0.25100
C 	C 	0.81780 0.07109 0.61480 0.09300
H 	H 	0.86610 0.11110 0.59900 -0.00700
C 	C 	0.72520 0.05323 0.56942 -0.17300
H 	H 	0.71340 0.08000 0.52410 0.08500
C 	C 	0.65031 0.99571 0.59160 0.10900
C 	C 	0.67090 0.96210 0.66175 -0.17500
H 	H 	0.62070 0.92670 0.68080 0.08200
C 	C 	0.76640 0.98170 0.70262 0.08900
H 	H 	0.77920 0.95710 0.74870 -0.03500
C 	C 	0.55001 0.96772 0.54572 -0.07200
H 	H 	0.52830 0.90920 0.56130 0.04500
C 	C 	0.45057 0.03158 0.53836 -0.06300
H 	H 	0.38760 0.99990 0.55130 0.04300
C 	C 	0.46111 0.11899 0.57779 0.10600
C 	C 	0.51790 0.18974 0.55497 -0.16300
H 	H 	0.55430 0.18470 0.51430 0.08300
C 	C 	0.52010 0.26859 0.59373 0.09000
H 	H 	0.55980 0.31530 0.57830 -0.00700
N 	N 	0.46910 0.28084 0.65106 -0.15800
C 	C 	0.41700 0.21160 0.67429 0.08800
H 	H 	0.38210 0.21850 0.71550 0.00000
C 	C 	0.41190 0.12955 0.64017 -0.16200
H 	H 	0.37620 0.08260 0.65900 0.08500
N 	N 	0.15828 0.96609 0.31981 -0.27000
C 	C 	0.18220 0.92891 0.38520 0.09100
H 	H 	0.13390 0.88890 0.40100 -0.03300
C 	C 	0.27480 0.94677 0.43058 -0.18000
H 	H 	0.28660 0.92000 0.47590 0.08400
C 	C 	0.34969 0.00429 0.40840 0.11200
C 	C 	0.32910 0.03790 0.33825 -0.18000
H 	H 	0.37930 0.07330 0.31920 0.08300
C 	C 	0.23360 0.01830 0.29738 0.08900
H 	H 	0.22080 0.04290 0.25130 -0.04300
C 	C 	0.44999 0.03228 0.45428 -0.07300
H 	H 	0.47170 0.09080 0.43870 0.04600
C 	C 	0.54943 0.96842 0.46164 -0.06400
H 	H 	0.61240 0.00010 0.44870 0.04400
C 	C 	0.53889 0.88101 0.42221 0.10600
C 	C 	0.48210 0.81026 0.44503 -0.16300
H 	H 	0.44570 0.81530 0.48570 0.08200
C 	C 	0.47990 0.73141 0.40627 0.08900
H 	H 	0.44020 0.68470 0.42170 -0.00800
N 	N 	0.53090 0.71916 0.34894 -0.15900
C 	C 	0.58300 0.78840 0.32571 0.08700
H 	H 	0.61790 0.78150 0.28450 0.00100
C 	C 	0.58810 0.87045 0.35983 -0.16300
H 	H 	0.62380 0.91740 0.34100 0.08500
N 	N 	0.65828 0.53391 0.81981 -0.26200
C 	C 	0.68220 0.57109 0.88520 0.09100
H 	H 	0.63390 0.61110 0.90100 -0.02000
C 	C 	0.77480 0.55323 0.93058 -0.17300
H 	H 	0.78660 0.58000 0.97590 0.08600
C 	C 	0.84969 0.49571 0.90840 0.10900
C 	C 	0.82910 0.46210 0.83825 -0.17300
H 	H 	0.87930 0.42670 0.81920 0.09200
C 	C 	0.73360 0.48170 0.79738 0.09000
H 	H 	0.72080 0.45710 0.75130 -0.03800
C 	C 	0.94999 0.46772 0.95428 -0.03800
H 	H 	0.97170 0.40920 0.93870 0.05200
C 	C 	0.04943 0.53158 0.96164 -0.08200
H 	H 	0.11240 0.49990 0.94870 0.04100
C 	C 	0.03889 0.61899 0.92221 0.03400
C 	C 	0.98210 0.68974 0.94503 -0.08600
H 	H 	0.94570 0.68470 0.98570 0.07200
C 	C 	0.97990 0.76859 0.90627 0.12500
H 	H 	0.94020 0.81530 0.92170 -0.00800
N 	N 	0.03090 0.78084 0.84894 -0.18900
C 	C 	0.08300 0.71160 0.82571 0.06100
H 	H 	0.11790 0.71850 0.78450 0.00100
C 	C 	0.08810 0.62955 0.85983 -0.13900
H 	H 	0.12380 0.58260 0.84100 0.07000
N 	N 	0.34172 0.46609 0.18019 -0.26300
C 	C 	0.31780 0.42891 0.11480 0.09200
H 	H 	0.36610 0.38890 0.09900 -0.02100
C 	C 	0.22520 0.44677 0.06942 -0.18000
H 	H 	0.21340 0.42000 0.02410 0.08300
C 	C 	0.15031 0.50429 0.09160 0.11100
C 	C 	0.17090 0.53790 0.16175 -0.18100
H 	H 	0.12070 0.57330 0.18080 0.07400
C 	C 	0.26640 0.51830 0.20262 0.08800
H 	H 	0.27920 0.54290 0.24870 -0.04200
C 	C 	0.05001 0.53228 0.04572 -0.10600
H 	H 	0.02830 0.59080 0.06130 0.03900
C 	C 	0.95057 0.46842 0.03836 -0.04500
H 	H 	0.88760 0.50010 0.05130 0.04500
C 	C 	0.96111 0.38101 0.07779 0.17900
C 	C 	0.01790 0.31026 0.05497 -0.24000
H 	H 	0.05430 0.31530 0.01430 0.09400
C 	C 	0.02010 0.23141 0.09373 0.05500
H 	H 	0.05980 0.18470 0.07830 -0.00700
N 	N 	0.96910 0.21916 0.15106 -0.12700
C 	C 	0.91700 0.28840 0.17429 0.11500
H 	H 	0.88210 0.28150 0.21550 0.00100
C 	C 	0.91190 0.37045 0.14017 -0.18600
H 	H 	0.87620 0.41740 0.15900 0.10000
N 	N 	0.15828 0.03391 0.81981 -0.27000
C 	C 	0.18220 0.07109 0.88520 0.09100
H 	H 	0.13390 0.11110 0.90100 -0.03300
C 	C 	0.27480 0.05323 0.93058 -0.18000
H 	H 	0.28660 0.08000 0.97590 0.08300
C 	C 	0.34969 0.99571 0.90840 0.11100
C 	C 	0.32910 0.96210 0.83825 -0.17900
H 	H 	0.37930 0.92670 0.81920 0.08300
C 	C 	0.23360 0.98170 0.79738 0.08900
H 	H 	0.22080 0.95710 0.75130 -0.04300
C 	C 	0.44999 0.96772 0.95428 -0.07300
H 	H 	0.47170 0.90920 0.93870 0.04600
C 	C 	0.54943 0.03158 0.96164 -0.06600
H 	H 	0.61240 0.99990 0.94870 0.04400
C 	C 	0.53889 0.11899 0.92221 0.10600
C 	C 	0.48210 0.18974 0.94503 -0.16400
H 	H 	0.44570 0.18470 0.98570 0.08200
C 	C 	0.47990 0.26859 0.90627 0.08900
H 	H 	0.44020 0.31530 0.92170 -0.00900
N 	N 	0.53090 0.28084 0.84894 -0.15900
C 	C 	0.58300 0.21160 0.82571 0.08700
H 	H 	0.61790 0.21850 0.78450 0.00100
C 	C 	0.58810 0.12955 0.85983 -0.16300
H 	H 	0.62380 0.08260 0.84100 0.08500
N 	N 	0.84172 0.96609 0.18019 -0.25200
C 	C 	0.81780 0.92891 0.11480 0.09300
H 	H 	0.86610 0.88890 0.09900 -0.00700
C 	C 	0.72520 0.94677 0.06942 -0.17300
H 	H 	0.71340 0.92000 0.02410 0.08500
C 	C 	0.65031 0.00429 0.09160 0.10900
C 	C 	0.67090 0.03790 0.16175 -0.17500
H 	H 	0.62070 0.07330 0.18080 0.08200
C 	C 	0.76640 0.01830 0.20262 0.08900
H 	H 	0.77920 0.04290 0.24870 -0.03500
C 	C 	0.55001 0.03228 0.04572 -0.07000
H 	H 	0.52830 0.09080 0.06130 0.04500
C 	C 	0.45057 0.96842 0.03836 -0.06300
H 	H 	0.38760 0.00010 0.05130 0.04400
C 	C 	0.46111 0.88101 0.07779 0.10700
C 	C 	0.51790 0.81026 0.05497 -0.16300
H 	H 	0.55430 0.81530 0.01430 0.08400
C 	C 	0.52010 0.73141 0.09373 0.09100
H 	H 	0.55980 0.68470 0.07830 -0.00600
N 	N 	0.46910 0.71916 0.15106 -0.15800
C 	C 	0.41700 0.78840 0.17429 0.08900
H 	H 	0.38210 0.78150 0.21550 0.00000
C 	C 	0.41190 0.87045 0.14017 -0.16300
H 	H 	0.37620 0.91740 0.15900 0.08500
