data_crystal

_cell_length_a 14.16750
_cell_length_b 21.25830
_cell_length_c 13.65660
_cell_angle_alpha 90.00000
_cell_angle_beta  113.85000
_cell_angle_gamma 90.00000

_symmetry_space_group_name_	'P 1'
_symmetry_space_group_name_H-M	'P 1'

loop_
_symmetry_equiv_pos_as_xyz
  x,y,z

loop_
_atom_site_label
_atom_site_type_symbol
_atom_site_fract_x
_atom_site_fract_y
_atom_site_fract_z
_atom_site_charge
Mo	Mo	0.64585 0.58680 0.35571 1.07900
Mo	Mo	0.61434 0.42359 0.31814 1.07100
Mo	Mo	0.71407 0.41625 0.73752 1.08600
Mo	Mo	0.64496 0.35127 0.48145 1.07900
Mo	Mo	0.73447 0.53734 0.76482 1.08800
Mo	Mo	0.69273 0.63536 0.54373 1.07900
Sr	Sr	0.86874 0.35863 0.32050 1.50900
Sr	Sr	0.01470 0.48206 0.78651 1.50200
P 	P 	0.77776 0.50387 0.24847 0.49900
P 	P 	0.78827 0.48573 0.55486 0.51100
P 	P 	0.91027 0.63781 0.75881 0.54200
P 	P 	0.81058 0.28189 0.69853 0.53200
O 	O 	0.58033 0.57714 0.45854 -0.62500
O 	O 	0.54945 0.51280 0.26931 -0.48400
O 	O 	0.74899 0.42568 0.59037 -0.45500
O 	O 	0.61008 0.35906 0.61755 -0.49100
O 	O 	0.55517 0.42571 0.42642 -0.62800
O 	O 	0.61802 0.48613 0.66820 -0.61200
O 	O 	0.83612 0.46958 0.80159 -0.60100
O 	O 	0.90202 0.47995 0.58071 -0.52500
O 	O 	0.72246 0.49550 0.43457 -0.44400
O 	O 	0.70683 0.44646 0.24071 -0.51600
O 	O 	0.73096 0.56433 0.27182 -0.42200
O 	O 	0.78872 0.51145 0.14273 -0.46800
O 	O 	0.76840 0.54211 0.61627 -0.46200
O 	O 	0.72424 0.36453 0.39602 -0.63900
O 	O 	0.77114 0.62554 0.45719 -0.52400
O 	O 	0.98704 0.60172 0.73046 -0.53000
O 	O 	0.81693 0.34318 0.76013 -0.40800
O 	O 	0.76612 0.29524 0.57726 -0.43100
O 	O 	0.85981 0.59724 0.81721 -0.41000
O 	O 	0.82689 0.66995 0.66057 -0.41000
O 	O 	0.88438 0.48806 0.33566 -0.58000
O 	O 	0.73986 0.23329 0.72330 -0.65500
H 	H 	0.68580 0.25040 0.71680 0.26400
O 	O 	0.65290 0.61476 0.67489 -0.46900
O 	O 	0.96589 0.69211 0.84011 -0.38800
H 	H 	0.00420 0.71140 0.81900 0.20900
O 	O 	0.91420 0.25036 0.73555 -0.38200
O 	O 	0.01340 0.38780 0.91640 -0.15800
O 	O 	0.97261 0.60324 0.49692 -0.79000
H 	H 	0.92290 0.62620 0.49510 0.33600
H 	H 	0.01540 0.62670 0.48500 0.18000
O 	O 	0.93480 0.59910 0.05070 -0.26200
Mo	Mo	0.35415 0.08680 0.14429 1.07000
Mo	Mo	0.38566 0.92359 0.18186 1.08700
Mo	Mo	0.28593 0.91625 0.76248 1.08400
Mo	Mo	0.35504 0.85127 0.01855 1.04400
Mo	Mo	0.26553 0.03734 0.73518 1.05100
Mo	Mo	0.30727 0.13536 0.95627 1.11300
Sr	Sr	0.13126 0.85863 0.17950 1.49600
Sr	Sr	0.98530 0.98206 0.71349 1.52600
P 	P 	0.22224 0.00387 0.25153 0.41700
P 	P 	0.21173 0.98573 0.94514 0.60500
P 	P 	0.08973 0.13781 0.74119 0.56000
P 	P 	0.18942 0.78189 0.80147 0.53000
O 	O 	0.41967 0.07714 0.04146 -0.67000
O 	O 	0.45055 0.01280 0.23069 -0.50600
O 	O 	0.25101 0.92568 0.90963 -0.44100
O 	O 	0.38992 0.85906 0.88245 -0.46600
O 	O 	0.44483 0.92571 0.07358 -0.62900
O 	O 	0.38198 0.98613 0.83180 -0.56400
O 	O 	0.16388 0.96958 0.69841 -0.60700
O 	O 	0.09798 0.97995 0.91929 -0.51300
O 	O 	0.27754 0.99550 0.06543 -0.45900
O 	O 	0.29317 0.94646 0.25929 -0.46700
O 	O 	0.26904 0.06433 0.22818 -0.42400
O 	O 	0.21128 0.01145 0.35727 -0.48100
O 	O 	0.23160 0.04211 0.88373 -0.49800
O 	O 	0.27576 0.86453 0.10398 -0.66600
O 	O 	0.22886 0.12554 0.04281 -0.57500
O 	O 	0.01296 0.10172 0.76954 -0.58900
O 	O 	0.18307 0.84318 0.73987 -0.43300
O 	O 	0.23388 0.79524 0.92274 -0.40200
O 	O 	0.14019 0.09724 0.68279 -0.45100
O 	O 	0.17311 0.16995 0.83943 -0.41000
O 	O 	0.11562 0.98806 0.16434 -0.56200
O 	O 	0.26014 0.73329 0.77670 -0.66000
H 	H 	0.31420 0.75040 0.78320 0.26800
O 	O 	0.34710 0.11476 0.82511 -0.47100
O 	O 	0.03411 0.19211 0.65989 -0.55400
H 	H 	0.99580 0.21140 0.68100 0.33800
O 	O 	0.08580 0.75036 0.76445 -0.40800
O 	O 	0.98660 0.88780 0.58360 -0.09900
O 	O 	0.02739 0.10324 0.00308 -0.99500
H 	H 	0.07710 0.12620 0.00490 0.36500
H 	H 	0.98460 0.12670 0.01500 0.29800
O 	O 	0.06520 0.09910 0.44930 -0.22700
Mo	Mo	0.35415 0.41320 0.64429 1.08400
Mo	Mo	0.38566 0.57641 0.68186 1.08000
Mo	Mo	0.28593 0.58375 0.26248 1.07300
Mo	Mo	0.35504 0.64873 0.51855 1.08100
Mo	Mo	0.26553 0.46266 0.23518 1.07300
Mo	Mo	0.30727 0.36464 0.45627 1.07800
Sr	Sr	0.13126 0.64137 0.67950 1.50200
Sr	Sr	0.98530 0.51794 0.21349 1.51600
P 	P 	0.22224 0.49613 0.75153 0.50000
P 	P 	0.21173 0.51427 0.44514 0.51300
P 	P 	0.08973 0.36219 0.24119 0.56000
P 	P 	0.18942 0.71811 0.30147 0.53000
O 	O 	0.41967 0.42286 0.54146 -0.62300
O 	O 	0.45055 0.48720 0.73069 -0.46300
O 	O 	0.25101 0.57432 0.40963 -0.45800
O 	O 	0.38992 0.64094 0.38245 -0.49500
O 	O 	0.44483 0.57429 0.57358 -0.62400
O 	O 	0.38198 0.51387 0.33180 -0.61900
O 	O 	0.16388 0.53042 0.19841 -0.65000
O 	O 	0.09798 0.52005 0.41929 -0.55600
O 	O 	0.27754 0.50450 0.56543 -0.44600
O 	O 	0.29317 0.55354 0.75929 -0.50300
O 	O 	0.26904 0.43567 0.72818 -0.41300
O 	O 	0.21128 0.48855 0.85727 -0.44700
O 	O 	0.23160 0.45789 0.38373 -0.46400
O 	O 	0.27576 0.63547 0.60398 -0.63900
O 	O 	0.22886 0.37446 0.54281 -0.53100
O 	O 	0.01296 0.39828 0.26954 -0.58900
O 	O 	0.18307 0.65682 0.23987 -0.44600
O 	O 	0.23388 0.70476 0.42274 -0.43300
O 	O 	0.14019 0.40276 0.18279 -0.45600
O 	O 	0.17311 0.33005 0.33943 -0.43000
O 	O 	0.11562 0.51194 0.66434 -0.61200
O 	O 	0.26014 0.76671 0.27670 -0.66900
H 	H 	0.31420 0.74960 0.28320 0.26100
O 	O 	0.34710 0.38524 0.32511 -0.48100
O 	O 	0.03411 0.30789 0.15989 -0.56900
H 	H 	0.99580 0.28860 0.18100 0.33600
O 	O 	0.08580 0.74964 0.26445 -0.42100
O 	O 	0.98660 0.61220 0.08360 -0.10000
O 	O 	0.02739 0.39676 0.50308 -0.96900
H 	H 	0.07710 0.37380 0.50490 0.37800
H 	H 	0.98460 0.37330 0.51500 0.30800
O 	O 	0.06520 0.40090 0.94930 -0.18100
Mo	Mo	0.64585 0.91320 0.85571 1.09500
Mo	Mo	0.61434 0.07641 0.81814 1.06500
Mo	Mo	0.71407 0.08375 0.23752 1.07600
Mo	Mo	0.64496 0.14873 0.98145 1.11600
Mo	Mo	0.73447 0.96266 0.26482 1.10800
Mo	Mo	0.69273 0.86464 0.04373 1.04200
Sr	Sr	0.86874 0.14137 0.82050 1.51500
Sr	Sr	0.01470 0.01794 0.28651 1.49100
P 	P 	0.77776 0.99613 0.74847 0.57800
P 	P 	0.78827 0.01427 0.05486 0.42200
P 	P 	0.91027 0.86219 0.25881 0.54200
P 	P 	0.81058 0.21811 0.19853 0.53300
O 	O 	0.58033 0.92286 0.95854 -0.56200
O 	O 	0.54945 0.98720 0.76931 -0.43700
O 	O 	0.74899 0.07432 0.09037 -0.46900
O 	O 	0.61008 0.14094 0.11755 -0.51800
O 	O 	0.55517 0.07429 0.92642 -0.61000
O 	O 	0.61802 0.01387 0.16820 -0.65200
O 	O 	0.83612 0.03042 0.30159 -0.64200
O 	O 	0.90202 0.02005 0.08071 -0.55100
O 	O 	0.72246 0.00450 0.93457 -0.42800
O 	O 	0.70683 0.05354 0.74071 -0.55000
O 	O 	0.73096 0.93567 0.77182 -0.41000
O 	O 	0.78872 0.98855 0.64273 -0.43400
O 	O 	0.76840 0.95789 0.11627 -0.43000
O 	O 	0.72424 0.13547 0.89602 -0.61200
O 	O 	0.77114 0.87446 0.95719 -0.47800
O 	O 	0.98704 0.89828 0.23046 -0.53200
O 	O 	0.81693 0.15682 0.26013 -0.42000
O 	O 	0.76612 0.20476 0.07726 -0.46100
O 	O 	0.85981 0.90276 0.31721 -0.41600
O 	O 	0.82689 0.83005 0.16057 -0.43000
O 	O 	0.88438 0.01194 0.83566 -0.61300
O 	O 	0.73986 0.26671 0.22330 -0.66400
H 	H 	0.68580 0.24960 0.21680 0.25700
O 	O 	0.65290 0.88524 0.17489 -0.47700
O 	O 	0.96589 0.80789 0.34011 -0.40600
H 	H 	0.00420 0.78860 0.31900 0.20900
O 	O 	0.91420 0.24964 0.23555 -0.39500
O 	O 	0.01340 0.11220 0.41640 -0.15900
O 	O 	0.97261 0.89676 0.99692 -0.74600
H 	H 	0.92290 0.87380 0.99510 0.34500
H 	H 	0.01540 0.87330 0.98500 0.18800
O 	O 	0.93480 0.90090 0.55070 -0.21500
Mn	Mn	-0.00000 0.50000 0.50000 1.29600
Mn	Mn	-0.00000 0.00000 -0.00000 1.24500
Mn	Mn	0.50000 0.50000 0.50000 1.31900
Mn	Mn	0.50000 0.00000 -0.00000 1.26700
