data_crystal

_cell_length_a 13.62340
_cell_length_b 24.76440
_cell_length_c 11.55190
_cell_angle_alpha 90.00000
_cell_angle_beta  96.83600
_cell_angle_gamma 90.00000

_symmetry_space_group_name_	'P 1'
_symmetry_space_group_name_H-M	'P 1'

loop_
_symmetry_equiv_pos_as_xyz
  x,y,z

loop_
_atom_site_label
_atom_site_type_symbol
_atom_site_fract_x
_atom_site_fract_y
_atom_site_fract_z
_atom_site_charge
Cu	Cu	0.03462 0.24539 0.88156 0.80300
Cu	Cu	0.47485 0.45707 0.22361 0.78200
C 	C 	0.02610 0.25220 0.62910 0.08800
H 	H 	0.00360 0.28770 0.62830 -0.07100
C 	C 	0.07800 0.17690 0.69020 0.08300
H 	H 	0.10000 0.14820 0.73840 -0.04400
C 	C 	0.10180 0.13390 0.49560 -0.06900
H 	H 	0.06390 0.10180 0.50870 0.02700
H 	H 	0.08310 0.14550 0.41580 0.00100
C 	C 	0.21100 0.11980 0.51120 -0.05300
H 	H 	0.22200 0.09110 0.45720 0.01700
H 	H 	0.22810 0.10580 0.58950 0.01400
C 	C 	0.28000 0.16550 0.49290 -0.16300
H 	H 	0.34640 0.15460 0.52350 0.06400
H 	H 	0.26250 0.19600 0.53910 0.06500
C 	C 	0.28220 0.18420 0.37290 0.00600
H 	H 	0.30140 0.15540 0.32330 0.01300
H 	H 	0.21860 0.19840 0.34030 -0.01900
C 	C 	0.35960 0.22800 0.38800 -0.17700
H 	H 	0.42280 0.21270 0.41970 0.09000
H 	H 	0.34110 0.25500 0.44220 0.07200
C 	C 	0.36800 0.25230 0.27600 -0.01400
H 	H 	0.39660 0.22710 0.22580 0.04100
H 	H 	0.30290 0.26290 0.23900 0.01800
C 	C 	0.40540 0.35360 0.28050 0.09300
H 	H 	0.33960 0.36450 0.27040 -0.04800
C 	C 	0.55850 0.35180 0.30600 0.09500
H 	H 	0.62360 0.36390 0.31520 -0.04200
C 	C 	0.37160 0.53590 0.07000 0.07300
H 	H 	0.31210 0.51720 0.06310 -0.04000
C 	C 	0.51650 0.56120 0.11730 0.07300
H 	H 	0.58130 0.56210 0.15340 -0.03700
C 	C 	0.31440 0.61720 0.94980 0.00600
H 	H 	0.34530 0.63500 0.88870 0.01500
H 	H 	0.26030 0.59530 0.91330 0.00500
C 	C 	0.27490 0.65900 0.02690 -0.18100
H 	H 	0.32980 0.68010 0.06420 0.08600
H 	H 	0.24440 0.64070 0.08770 0.06800
C 	C 	0.20260 0.69560 0.96470 -0.00800
H 	H 	0.14950 0.67410 0.92470 0.01300
H 	H 	0.17430 0.71760 0.02180 -0.01000
C 	C 	0.24170 0.73290 0.87650 -0.11800
H 	H 	0.18610 0.75170 0.83420 0.03100
H 	H 	0.27170 0.71100 0.82060 0.05300
C 	C 	0.31660 0.77440 0.92690 -0.10300
H 	H 	0.29060 0.79440 0.98880 0.05100
H 	H 	0.37700 0.75650 0.95940 0.07100
C 	C 	0.33790 0.81290 0.82960 -0.04600
H 	H 	0.27690 0.83010 0.79680 0.02600
H 	H 	0.36360 0.79250 0.76800 0.05000
C 	C 	0.39470 0.90520 0.90580 0.08200
H 	H 	0.33270 0.92120 0.90240 -0.05100
C 	C 	0.54670 0.89000 0.92900 0.08300
H 	H 	0.61440 0.89540 0.94690 -0.04600
N 	N 	0.04460 0.22280 0.72720 -0.29000
N 	N 	0.04270 0.22600 0.53460 -0.24700
N 	N 	0.07650 0.17680 0.57500 -0.10600
N 	N 	0.43560 0.30300 0.30070 -0.10100
N 	N 	0.53540 0.30200 0.31970 -0.10400
N 	N 	0.47990 0.38560 0.27680 -0.30200
N 	N 	0.45340 0.51990 0.13290 -0.29100
N 	N 	0.38620 0.58280 0.01720 -0.11800
N 	N 	0.47900 0.59970 0.04760 -0.11800
N 	N 	0.41100 0.85520 0.87410 -0.09700
N 	N 	0.50990 0.84480 0.88910 -0.10200
N 	N 	0.47850 0.92940 0.94300 -0.30900
Cu	Cu	0.96538 0.74539 0.61844 0.80200
Cu	Cu	0.52515 0.95707 0.27639 0.78900
C 	C 	0.97390 0.75220 0.87090 0.08700
H 	H 	0.99640 0.78770 0.87170 -0.07000
C 	C 	0.92200 0.67690 0.80980 0.07900
H 	H 	0.90000 0.64820 0.76160 -0.04100
C 	C 	0.89820 0.63390 0.00440 -0.13600
H 	H 	0.93610 0.60180 0.99130 0.05300
H 	H 	0.91690 0.64550 0.08420 0.02200
C 	C 	0.78900 0.61980 0.98880 0.04300
H 	H 	0.77800 0.59110 0.04280 -0.01100
H 	H 	0.77190 0.60580 0.91050 -0.01100
C 	C 	0.72000 0.66550 0.00710 -0.26900
H 	H 	0.65360 0.65460 0.97650 0.10000
H 	H 	0.73750 0.69600 0.96090 0.09900
C 	C 	0.71780 0.68420 0.12710 0.08500
H 	H 	0.69860 0.65540 0.17670 -0.01000
H 	H 	0.78140 0.69840 0.15970 -0.04400
C 	C 	0.64040 0.72800 0.11200 -0.22800
H 	H 	0.57720 0.71270 0.08030 0.10300
H 	H 	0.65890 0.75500 0.05780 0.08500
C 	C 	0.63200 0.75230 0.22400 0.01400
H 	H 	0.60340 0.72710 0.27420 0.03300
H 	H 	0.69710 0.76290 0.26100 0.01000
C 	C 	0.59460 0.85360 0.21950 0.09300
H 	H 	0.66040 0.86450 0.22960 -0.04700
C 	C 	0.44150 0.85180 0.19400 0.09400
H 	H 	0.37640 0.86390 0.18480 -0.04100
C 	C 	0.62840 0.03590 0.43000 0.07000
H 	H 	0.68790 0.01720 0.43690 -0.04500
C 	C 	0.48350 0.06120 0.38270 0.07200
H 	H 	0.41870 0.06210 0.34660 -0.04100
C 	C 	0.68560 0.11720 0.55020 -0.01400
H 	H 	0.65470 0.13500 0.61130 0.02000
H 	H 	0.73970 0.09530 0.58670 0.00800
C 	C 	0.72510 0.15900 0.47310 -0.15000
H 	H 	0.67020 0.18010 0.43580 0.07800
H 	H 	0.75560 0.14070 0.41230 0.05800
C 	C 	0.79740 0.19560 0.53530 -0.04100
H 	H 	0.85050 0.17410 0.57530 0.02200
H 	H 	0.82570 0.21760 0.47820 0.00200
C 	C 	0.75830 0.23290 0.62350 -0.09800
H 	H 	0.81390 0.25170 0.66580 0.02400
H 	H 	0.72830 0.21100 0.67940 0.04600
C 	C 	0.68340 0.27440 0.57310 -0.11400
H 	H 	0.70940 0.29440 0.51120 0.05300
H 	H 	0.62300 0.25650 0.54060 0.07400
C 	C 	0.66210 0.31290 0.67040 -0.04100
H 	H 	0.72310 0.33010 0.70320 0.02400
H 	H 	0.63640 0.29250 0.73200 0.04900
C 	C 	0.60530 0.40520 0.59420 0.08100
H 	H 	0.66730 0.42120 0.59760 -0.05500
C 	C 	0.45330 0.39000 0.57100 0.08200
H 	H 	0.38560 0.39540 0.55310 -0.05000
N 	N 	0.95540 0.72280 0.77280 -0.28800
N 	N 	0.95730 0.72600 0.96540 -0.24500
N 	N 	0.92350 0.67680 0.92500 -0.09500
N 	N 	0.56440 0.80300 0.19930 -0.10500
N 	N 	0.46460 0.80200 0.18030 -0.10400
N 	N 	0.52010 0.88560 0.22320 -0.30000
N 	N 	0.54660 0.01990 0.36710 -0.29800
N 	N 	0.61380 0.08280 0.48280 -0.11500
N 	N 	0.52100 0.09970 0.45240 -0.11800
N 	N 	0.58900 0.35520 0.62590 -0.09800
N 	N 	0.49010 0.34480 0.61090 -0.10200
N 	N 	0.52150 0.42940 0.55700 -0.31600
Cu	Cu	0.96538 0.75461 0.11844 0.80100
Cu	Cu	0.52515 0.54293 0.77639 0.78200
C 	C 	0.97390 0.74780 0.37090 0.08700
H 	H 	0.99640 0.71230 0.37170 -0.07200
C 	C 	0.92200 0.82310 0.30980 0.08300
H 	H 	0.90000 0.85180 0.26160 -0.04200
C 	C 	0.89820 0.86610 0.50440 -0.06500
H 	H 	0.93610 0.89820 0.49130 0.03100
H 	H 	0.91690 0.85450 0.58420 0.00200
C 	C 	0.78900 0.88020 0.48880 -0.06500
H 	H 	0.77800 0.90890 0.54280 0.02800
H 	H 	0.77190 0.89420 0.41050 0.02300
C 	C 	0.72000 0.83450 0.50710 -0.15100
H 	H 	0.65360 0.84540 0.47650 0.06200
H 	H 	0.73750 0.80400 0.46090 0.06200
C 	C 	0.71780 0.81580 0.62710 -0.00500
H 	H 	0.69860 0.84460 0.67670 0.01800
H 	H 	0.78140 0.80160 0.65970 -0.01500
C 	C 	0.64040 0.77200 0.61200 -0.16900
H 	H 	0.57720 0.78730 0.58030 0.08800
H 	H 	0.65890 0.74500 0.55780 0.07000
C 	C 	0.63200 0.74770 0.72400 -0.01800
H 	H 	0.60340 0.77290 0.77420 0.04300
H 	H 	0.69710 0.73710 0.76100 0.01800
C 	C 	0.59460 0.64640 0.71950 0.09100
H 	H 	0.66040 0.63550 0.72960 -0.04700
C 	C 	0.44150 0.64820 0.69400 0.09500
H 	H 	0.37640 0.63610 0.68480 -0.04200
C 	C 	0.62840 0.46410 0.93000 0.07100
H 	H 	0.68790 0.48280 0.93690 -0.03700
C 	C 	0.48350 0.43880 0.88270 0.07400
H 	H 	0.41870 0.43790 0.84660 -0.03800
C 	C 	0.68560 0.38280 0.05020 -0.04300
H 	H 	0.65470 0.36500 0.11130 0.03000
H 	H 	0.73970 0.40470 0.08670 0.01800
C 	C 	0.72510 0.34100 0.97310 -0.10400
H 	H 	0.67020 0.31990 0.93580 0.06600
H 	H 	0.75560 0.35930 0.91230 0.04600
C 	C 	0.79740 0.30440 0.03530 -0.09000
H 	H 	0.85050 0.32590 0.07530 0.03600
H 	H 	0.82570 0.28240 0.97820 0.01900
C 	C 	0.75830 0.26710 0.12350 -0.06700
H 	H 	0.81390 0.24830 0.16580 0.01400
H 	H 	0.72830 0.28900 0.17940 0.03700
C 	C 	0.68340 0.22560 0.07310 -0.13300
H 	H 	0.70940 0.20560 0.01120 0.05700
H 	H 	0.62300 0.24350 0.04060 0.07900
C 	C 	0.66210 0.18710 0.17040 -0.03200
H 	H 	0.72310 0.16990 0.20320 0.02000
H 	H 	0.63640 0.20750 0.23200 0.04600
C 	C 	0.60530 0.09480 0.09420 0.08000
H 	H 	0.66730 0.07880 0.09760 -0.05900
C 	C 	0.45330 0.11000 0.07100 0.08100
H 	H 	0.38560 0.10460 0.05310 -0.05200
N 	N 	0.95540 0.77720 0.27280 -0.28900
N 	N 	0.95730 0.77400 0.46540 -0.24700
N 	N 	0.92350 0.82320 0.42500 -0.10600
N 	N 	0.56440 0.69700 0.69930 -0.10100
N 	N 	0.46460 0.69800 0.68030 -0.10400
N 	N 	0.52010 0.61440 0.72320 -0.30100
N 	N 	0.54660 0.48010 0.86710 -0.29000
N 	N 	0.61380 0.41720 0.98280 -0.10900
N 	N 	0.52100 0.40030 0.95240 -0.11600
N 	N 	0.58900 0.14480 0.12590 -0.10000
N 	N 	0.49010 0.15520 0.11090 -0.10200
N 	N 	0.52150 0.07060 0.05700 -0.31900
Cu	Cu	0.03462 0.25461 0.38156 0.80200
Cu	Cu	0.47485 0.04293 0.72361 0.77500
C 	C 	0.02610 0.24780 0.12910 0.08700
H 	H 	0.00360 0.21230 0.12830 -0.07300
C 	C 	0.07800 0.32310 0.19020 0.08400
H 	H 	0.10000 0.35180 0.23840 -0.04400
C 	C 	0.10180 0.36610 0.99560 -0.04000
H 	H 	0.06390 0.39820 0.00870 0.02000
H 	H 	0.08310 0.35450 0.91580 -0.00600
C 	C 	0.21100 0.38020 0.01120 -0.10200
H 	H 	0.22200 0.40890 0.95720 0.03600
H 	H 	0.22810 0.39420 0.08950 0.03100
C 	C 	0.28000 0.33450 0.99290 -0.10800
H 	H 	0.34640 0.34540 0.02350 0.04700
H 	H 	0.26250 0.30400 0.03910 0.04700
C 	C 	0.28220 0.31580 0.87290 -0.03700
H 	H 	0.30140 0.34460 0.82330 0.02700
H 	H 	0.21860 0.30160 0.84030 -0.00600
C 	C 	0.35960 0.27200 0.88800 -0.14900
H 	H 	0.42280 0.28730 0.91970 0.08300
H 	H 	0.34110 0.24500 0.94220 0.06500
C 	C 	0.36800 0.24770 0.77600 -0.02900
H 	H 	0.39660 0.27290 0.72580 0.04600
H 	H 	0.30290 0.23710 0.73900 0.02200
C 	C 	0.40540 0.14640 0.78050 0.09200
H 	H 	0.33960 0.13550 0.77040 -0.04900
C 	C 	0.55850 0.14820 0.80600 0.09500
H 	H 	0.62360 0.13610 0.81520 -0.04300
C 	C 	0.37160 0.96410 0.57000 0.07500
H 	H 	0.31210 0.98280 0.56310 -0.03300
C 	C 	0.51650 0.93880 0.61730 0.07600
H 	H 	0.58130 0.93790 0.65340 -0.03400
C 	C 	0.31440 0.88280 0.44980 -0.01700
H 	H 	0.34530 0.86500 0.38870 0.02300
H 	H 	0.26030 0.90470 0.41330 0.01400
C 	C 	0.27490 0.84100 0.52690 -0.14700
H 	H 	0.32980 0.81990 0.56420 0.07700
H 	H 	0.24440 0.85930 0.58770 0.05900
C 	C 	0.20260 0.80440 0.46470 -0.04400
H 	H 	0.14950 0.82590 0.42470 0.02400
H 	H 	0.17430 0.78240 0.52180 0.00300
C 	C 	0.24170 0.76710 0.37650 -0.09600
H 	H 	0.18610 0.74830 0.33420 0.02400
H 	H 	0.27170 0.78900 0.32060 0.04600
C 	C 	0.31660 0.72560 0.42690 -0.11600
H 	H 	0.29060 0.70560 0.48880 0.05300
H 	H 	0.37700 0.74350 0.45940 0.07500
C 	C 	0.33790 0.68710 0.32960 -0.03900
H 	H 	0.27690 0.66990 0.29680 0.02300
H 	H 	0.36360 0.70750 0.26800 0.04800
C 	C 	0.39470 0.59480 0.40580 0.08100
H 	H 	0.33270 0.57880 0.40240 -0.05600
C 	C 	0.54670 0.61000 0.42900 0.08200
H 	H 	0.61440 0.60460 0.44690 -0.05000
N 	N 	0.04460 0.27720 0.22720 -0.28900
N 	N 	0.04270 0.27400 0.03460 -0.24700
N 	N 	0.07650 0.32320 0.07500 -0.11000
N 	N 	0.43560 0.19700 0.80070 -0.10000
N 	N 	0.53540 0.19800 0.81970 -0.10400
N 	N 	0.47990 0.11440 0.77680 -0.30300
N 	N 	0.45340 0.98010 0.63290 -0.28400
N 	N 	0.38620 0.91720 0.51720 -0.11300
N 	N 	0.47900 0.90030 0.54760 -0.11600
N 	N 	0.41100 0.64480 0.37410 -0.09800
N 	N 	0.50990 0.65520 0.38910 -0.10200
N 	N 	0.47850 0.57060 0.44300 -0.31600
Cu	Cu	0.50000 0.00000 -0.00000 0.73700
Cu	Cu	0.50000 0.50000 0.50000 0.74700
