data_crystal

_cell_length_a 11.53590
_cell_length_b 15.09480
_cell_length_c 22.68170
_cell_angle_alpha 90.00000
_cell_angle_beta  91.48300
_cell_angle_gamma 90.00000

_symmetry_space_group_name_	'P 1'
_symmetry_space_group_name_H-M	'P 1'

loop_
_symmetry_equiv_pos_as_xyz
  x,y,z

loop_
_atom_site_label
_atom_site_type_symbol
_atom_site_fract_x
_atom_site_fract_y
_atom_site_fract_z
_atom_site_charge
Cu	Cu	0.88410 0.72140 0.72786 0.85500
C 	C 	0.05700 0.62800 0.81000 0.07800
H 	H 	0.04150 0.66250 0.84300 -0.01200
C 	C 	0.05700 0.58400 0.72600 0.14600
H 	H 	0.04210 0.57580 0.68570 -0.03800
C 	C 	0.20900 0.45900 0.73930 0.07800
H 	H 	0.23440 0.46870 0.69950 0.00300
H 	H 	0.27760 0.45820 0.76490 0.00900
C 	C 	0.16000 0.37700 0.74130 -0.26300
H 	H 	0.11600 0.36880 0.77680 0.11700
H 	H 	0.21800 0.33030 0.73920 0.10000
C 	C 	0.08400 0.37700 0.68900 0.05800
H 	H 	0.01160 0.40510 0.69870 0.01400
H 	H 	0.12000 0.41250 0.65880 0.00700
C 	C 	0.05900 0.28800 0.66430 -0.19600
H 	H 	0.12990 0.25770 0.65400 0.08300
H 	H 	0.01820 0.25150 0.69250 0.09700
C 	C 	0.98400 0.30500 0.61020 -0.03700
H 	H 	0.02910 0.32510 0.57750 0.03100
H 	H 	0.92360 0.34790 0.61800 0.03500
C 	C 	0.93000 0.21000 0.59760 -0.09100
H 	H 	0.99390 0.16890 0.59250 0.06100
H 	H 	0.88690 0.21270 0.56050 0.05900
C 	C 	0.71900 0.87500 0.73030 0.08600
H 	H 	0.74050 0.88820 0.76900 -0.01900
C 	C 	0.70400 0.81500 0.65210 0.11800
H 	H 	0.71240 0.77500 0.62110 -0.02800
C 	C 	0.55400 0.90600 0.59890 -0.02900
H 	H 	0.49220 0.94200 0.61350 0.04800
H 	H 	0.51990 0.85310 0.58100 0.03700
C 	C 	0.61700 0.95500 0.55370 -0.13200
H 	H 	0.68530 0.92150 0.54390 0.06600
H 	H 	0.64370 0.01040 0.57140 0.07300
C 	C 	0.54900 0.97900 0.49370 -0.07800
H 	H 	0.59700 0.01660 0.46960 0.04600
H 	H 	0.53190 0.92520 0.47180 0.04800
C 	C 	0.16100 0.93700 0.59900 -0.05400
H 	H 	0.15710 0.97860 0.63110 0.05100
H 	H 	0.24280 0.92500 0.59360 0.04800
C 	C 	0.12600 0.98500 0.54800 -0.08500
H 	H 	0.13410 0.04800 0.55700 0.04500
H 	H 	0.17850 0.97190 0.51680 0.05000
C 	C 	0.00700 0.97100 0.52500 -0.08800
H 	H 	0.95100 0.98520 0.55470 0.05900
H 	H 	0.99630 0.90970 0.51320 0.05900
N 	N 	0.00700 0.63900 0.75390 -0.26500
N 	N 	0.13700 0.53500 0.75630 -0.11700
N 	N 	0.13000 0.56200 0.80870 -0.09500
N 	N 	0.85100 0.17170 0.64400 -0.09000
N 	N 	0.87860 0.10570 0.67930 -0.10100
C 	C 	0.80400 0.10440 0.72200 0.10600
H 	H 	0.80380 0.06430 0.75310 -0.02200
N 	N 	0.73100 0.16950 0.71310 -0.24100
C 	C 	0.76000 0.21110 0.66500 0.09400
H 	H 	0.72190 0.26000 0.64850 -0.02400
N 	N 	0.76400 0.80720 0.70050 -0.25600
N 	N 	0.63100 0.87890 0.64840 -0.10600
N 	N 	0.63800 0.92210 0.69960 -0.09600
N 	N 	0.98800 0.76710 0.66580 -0.24400
C 	C 	0.05700 0.83700 0.67240 0.08900
H 	H 	0.06810 0.87010 0.70660 -0.02100
N 	N 	0.10900 0.85040 0.62150 -0.09200
N 	N 	0.07200 0.78900 0.58340 -0.09800
C 	C 	0.99600 0.73770 0.61080 0.08900
H 	H 	0.95700 0.68960 0.59440 -0.02100
Cu	Cu	0.61590 0.22140 0.77214 0.85400
C 	C 	0.44300 0.12800 0.69000 0.07700
H 	H 	0.45850 0.16250 0.65700 -0.01300
C 	C 	0.44300 0.08400 0.77400 0.14500
H 	H 	0.45790 0.07580 0.81430 -0.03900
C 	C 	0.29100 0.95900 0.76070 0.07600
H 	H 	0.26560 0.96870 0.80050 0.00400
H 	H 	0.22240 0.95820 0.73510 0.00900
C 	C 	0.34000 0.87700 0.75870 -0.26100
H 	H 	0.38400 0.86880 0.72320 0.11600
H 	H 	0.28200 0.83030 0.76080 0.10000
C 	C 	0.41600 0.87700 0.81100 0.05600
H 	H 	0.48840 0.90510 0.80130 0.01400
H 	H 	0.38000 0.91250 0.84120 0.00800
C 	C 	0.44100 0.78800 0.83570 -0.19400
H 	H 	0.37010 0.75770 0.84600 0.08300
H 	H 	0.48180 0.75150 0.80750 0.09700
C 	C 	0.51600 0.80500 0.88980 -0.03900
H 	H 	0.47090 0.82510 0.92250 0.03200
H 	H 	0.57640 0.84790 0.88200 0.03600
C 	C 	0.57000 0.71000 0.90240 -0.09000
H 	H 	0.50610 0.66890 0.90750 0.06100
H 	H 	0.61310 0.71270 0.93950 0.05900
C 	C 	0.78100 0.37500 0.76970 0.08600
H 	H 	0.75950 0.38820 0.73100 -0.01900
C 	C 	0.79600 0.31500 0.84790 0.11800
H 	H 	0.78760 0.27500 0.87890 -0.02800
C 	C 	0.94600 0.40600 0.90110 -0.03000
H 	H 	0.00780 0.44200 0.88650 0.04800
H 	H 	0.98010 0.35310 0.91900 0.03700
C 	C 	0.88300 0.45500 0.94630 -0.13100
H 	H 	0.81470 0.42150 0.95610 0.06600
H 	H 	0.85630 0.51040 0.92860 0.07300
C 	C 	0.95100 0.47900 0.00630 -0.07800
H 	H 	0.90300 0.51660 0.03040 0.04600
H 	H 	0.96810 0.42520 0.02820 0.04800
C 	C 	0.33900 0.43700 0.90100 -0.05400
H 	H 	0.34290 0.47860 0.86890 0.05100
H 	H 	0.25720 0.42500 0.90640 0.04800
C 	C 	0.37400 0.48500 0.95200 -0.08500
H 	H 	0.36590 0.54800 0.94300 0.04600
H 	H 	0.32150 0.47190 0.98320 0.05000
C 	C 	0.49300 0.47100 0.97500 -0.09100
H 	H 	0.54900 0.48520 0.94530 0.06100
H 	H 	0.50370 0.40970 0.98680 0.06100
N 	N 	0.49300 0.13900 0.74610 -0.26600
N 	N 	0.36300 0.03500 0.74370 -0.11700
N 	N 	0.37000 0.06200 0.69130 -0.09600
N 	N 	0.64900 0.67170 0.85600 -0.09000
N 	N 	0.62140 0.60570 0.82070 -0.10200
C 	C 	0.69600 0.60440 0.77800 0.10500
H 	H 	0.69620 0.56430 0.74690 -0.02200
N 	N 	0.76900 0.66950 0.78690 -0.24200
C 	C 	0.74000 0.71110 0.83500 0.09400
H 	H 	0.77810 0.76000 0.85150 -0.02400
N 	N 	0.73600 0.30720 0.79950 -0.25600
N 	N 	0.86900 0.37890 0.85160 -0.10600
N 	N 	0.86200 0.42210 0.80040 -0.09600
N 	N 	0.51200 0.26710 0.83420 -0.24300
C 	C 	0.44300 0.33700 0.82760 0.08800
H 	H 	0.43190 0.37010 0.79340 -0.02100
N 	N 	0.39100 0.35040 0.87850 -0.09200
N 	N 	0.42800 0.28900 0.91660 -0.09800
C 	C 	0.50400 0.23770 0.88920 0.09000
H 	H 	0.54300 0.18960 0.90560 -0.02100
Cu	Cu	0.11590 0.27860 0.27214 0.85400
C 	C 	0.94300 0.37200 0.19000 0.07700
H 	H 	0.95850 0.33750 0.15700 -0.01300
C 	C 	0.94300 0.41600 0.27400 0.14500
H 	H 	0.95790 0.42420 0.31430 -0.03900
C 	C 	0.79100 0.54100 0.26070 0.07700
H 	H 	0.76560 0.53130 0.30050 0.00300
H 	H 	0.72240 0.54180 0.23510 0.00900
C 	C 	0.84000 0.62300 0.25870 -0.26300
H 	H 	0.88400 0.63120 0.22320 0.11700
H 	H 	0.78200 0.66970 0.26080 0.10000
C 	C 	0.91600 0.62300 0.31100 0.05800
H 	H 	0.98840 0.59490 0.30130 0.01400
H 	H 	0.88000 0.58750 0.34120 0.00700
C 	C 	0.94100 0.71200 0.33570 -0.19600
H 	H 	0.87010 0.74230 0.34600 0.08300
H 	H 	0.98180 0.74850 0.30750 0.09700
C 	C 	0.01600 0.69500 0.38980 -0.03700
H 	H 	0.97090 0.67490 0.42250 0.03100
H 	H 	0.07640 0.65210 0.38200 0.03500
C 	C 	0.07000 0.79000 0.40240 -0.09100
H 	H 	0.00610 0.83110 0.40750 0.06100
H 	H 	0.11310 0.78730 0.43950 0.05900
C 	C 	0.28100 0.12500 0.26970 0.08600
H 	H 	0.25950 0.11180 0.23100 -0.01900
C 	C 	0.29600 0.18500 0.34790 0.11800
H 	H 	0.28760 0.22500 0.37890 -0.02800
C 	C 	0.44600 0.09400 0.40110 -0.02900
H 	H 	0.50780 0.05800 0.38650 0.04800
H 	H 	0.48010 0.14690 0.41900 0.03700
C 	C 	0.38300 0.04500 0.44630 -0.13200
H 	H 	0.31470 0.07850 0.45610 0.06600
H 	H 	0.35630 0.98960 0.42860 0.07300
C 	C 	0.45100 0.02100 0.50630 -0.07800
H 	H 	0.40300 0.98340 0.53040 0.04600
H 	H 	0.46810 0.07480 0.52820 0.04800
C 	C 	0.83900 0.06300 0.40100 -0.05400
H 	H 	0.84290 0.02140 0.36890 0.05100
H 	H 	0.75720 0.07500 0.40640 0.04800
C 	C 	0.87400 0.01500 0.45200 -0.08500
H 	H 	0.86590 0.95200 0.44300 0.04500
H 	H 	0.82150 0.02810 0.48320 0.05000
C 	C 	0.99300 0.02900 0.47500 -0.08800
H 	H 	0.04900 0.01480 0.44530 0.05900
H 	H 	0.00370 0.09030 0.48680 0.05900
N 	N 	0.99300 0.36100 0.24610 -0.26500
N 	N 	0.86300 0.46500 0.24370 -0.11700
N 	N 	0.87000 0.43800 0.19130 -0.09500
N 	N 	0.14900 0.82830 0.35600 -0.09000
N 	N 	0.12140 0.89430 0.32070 -0.10100
C 	C 	0.19600 0.89560 0.27800 0.10600
H 	H 	0.19620 0.93570 0.24690 -0.02200
N 	N 	0.26900 0.83050 0.28690 -0.24100
C 	C 	0.24000 0.78890 0.33500 0.09400
H 	H 	0.27810 0.74000 0.35150 -0.02400
N 	N 	0.23600 0.19280 0.29950 -0.25600
N 	N 	0.36900 0.12110 0.35160 -0.10600
N 	N 	0.36200 0.07790 0.30040 -0.09600
N 	N 	0.01200 0.23290 0.33420 -0.24400
C 	C 	0.94300 0.16300 0.32760 0.08900
H 	H 	0.93190 0.12990 0.29340 -0.02100
N 	N 	0.89100 0.14960 0.37850 -0.09200
N 	N 	0.92800 0.21100 0.41660 -0.09800
C 	C 	0.00400 0.26230 0.38920 0.08900
H 	H 	0.04300 0.31040 0.40560 -0.02100
Cu	Cu	0.38410 0.77860 0.22786 0.85400
C 	C 	0.55700 0.87200 0.31000 0.07700
H 	H 	0.54150 0.83750 0.34300 -0.01300
C 	C 	0.55700 0.91600 0.22600 0.14500
H 	H 	0.54210 0.92420 0.18570 -0.03900
C 	C 	0.70900 0.04100 0.23930 0.07600
H 	H 	0.73440 0.03130 0.19950 0.00400
H 	H 	0.77760 0.04180 0.26490 0.00900
C 	C 	0.66000 0.12300 0.24130 -0.26100
H 	H 	0.61600 0.13120 0.27680 0.11600
H 	H 	0.71800 0.16970 0.23920 0.10000
C 	C 	0.58400 0.12300 0.18900 0.05600
H 	H 	0.51160 0.09490 0.19870 0.01400
H 	H 	0.62000 0.08750 0.15880 0.00800
C 	C 	0.55900 0.21200 0.16430 -0.19400
H 	H 	0.62990 0.24230 0.15400 0.08300
H 	H 	0.51820 0.24850 0.19250 0.09700
C 	C 	0.48400 0.19500 0.11020 -0.03900
H 	H 	0.52910 0.17490 0.07750 0.03200
H 	H 	0.42360 0.15210 0.11800 0.03600
C 	C 	0.43000 0.29000 0.09760 -0.09000
H 	H 	0.49390 0.33110 0.09250 0.06100
H 	H 	0.38690 0.28730 0.06050 0.05900
C 	C 	0.21900 0.62500 0.23030 0.08600
H 	H 	0.24050 0.61180 0.26900 -0.01900
C 	C 	0.20400 0.68500 0.15210 0.11800
H 	H 	0.21240 0.72500 0.12110 -0.02800
C 	C 	0.05400 0.59400 0.09890 -0.03000
H 	H 	0.99220 0.55800 0.11350 0.04800
H 	H 	0.01990 0.64690 0.08100 0.03700
C 	C 	0.11700 0.54500 0.05370 -0.13100
H 	H 	0.18530 0.57850 0.04390 0.06600
H 	H 	0.14370 0.48960 0.07140 0.07300
C 	C 	0.04900 0.52100 0.99370 -0.07800
H 	H 	0.09700 0.48340 0.96960 0.04600
H 	H 	0.03190 0.57480 0.97180 0.04800
C 	C 	0.66100 0.56300 0.09900 -0.05400
H 	H 	0.65710 0.52140 0.13110 0.05100
H 	H 	0.74280 0.57500 0.09360 0.04800
C 	C 	0.62600 0.51500 0.04800 -0.08500
H 	H 	0.63410 0.45200 0.05700 0.04600
H 	H 	0.67850 0.52810 0.01680 0.05000
C 	C 	0.50700 0.52900 0.02500 -0.09100
H 	H 	0.45100 0.51480 0.05470 0.06100
H 	H 	0.49630 0.59030 0.01320 0.06100
N 	N 	0.50700 0.86100 0.25390 -0.26600
N 	N 	0.63700 0.96500 0.25630 -0.11700
N 	N 	0.63000 0.93800 0.30870 -0.09600
N 	N 	0.35100 0.32830 0.14400 -0.09000
N 	N 	0.37860 0.39430 0.17930 -0.10200
C 	C 	0.30400 0.39560 0.22200 0.10500
H 	H 	0.30380 0.43570 0.25310 -0.02200
N 	N 	0.23100 0.33050 0.21310 -0.24200
C 	C 	0.26000 0.28890 0.16500 0.09400
H 	H 	0.22190 0.24000 0.14850 -0.02400
N 	N 	0.26400 0.69280 0.20050 -0.25600
N 	N 	0.13100 0.62110 0.14840 -0.10600
N 	N 	0.13800 0.57790 0.19960 -0.09600
N 	N 	0.48800 0.73290 0.16580 -0.24300
C 	C 	0.55700 0.66300 0.17240 0.08800
H 	H 	0.56810 0.62990 0.20660 -0.02100
N 	N 	0.60900 0.64960 0.12150 -0.09200
N 	N 	0.57200 0.71100 0.08340 -0.09800
C 	C 	0.49600 0.76230 0.11080 0.09000
H 	H 	0.45700 0.81040 0.09440 -0.02100
