data_crystal

_cell_length_a 8.66150
_cell_length_b 14.56630
_cell_length_c 15.23900
_cell_angle_alpha 102.97500
_cell_angle_beta  90.00000
_cell_angle_gamma 107.29600

_symmetry_space_group_name_	'P 1'
_symmetry_space_group_name_H-M	'P 1'

loop_
_symmetry_equiv_pos_as_xyz
  x,y,z

loop_
_atom_site_label
_atom_site_type_symbol
_atom_site_fract_x
_atom_site_fract_y
_atom_site_fract_z
_atom_site_charge
Mn	Mn	0.49170 0.49348 0.38385 1.23200
Mn	Mn	0.99822 0.50652 0.11615 1.23000
Mn	Mn	0.50830 0.50652 0.61615 1.23300
Mn	Mn	0.00178 0.49348 0.88385 1.23100
H 	H 	0.64240 0.72460 0.38110 0.02300
H 	H 	0.86750 0.53920 0.41640 -0.00700
H 	H 	0.11470 0.65580 0.42070 0.07000
H 	H 	0.12570 0.81260 0.40670 0.05500
H 	H 	0.77960 0.89540 0.38120 0.04700
H 	H 	0.20600 0.09160 0.36190 0.04600
H 	H 	0.85710 0.17620 0.35230 0.05500
H 	H 	0.86380 0.33360 0.34340 0.07500
H 	H 	0.11070 0.45240 0.35090 -0.01100
H 	H 	0.33970 0.26200 0.35890 0.02100
H 	H 	0.91780 0.27540 0.11890 0.01900
H 	H 	0.32830 0.46080 0.08360 -0.00700
H 	H 	0.45890 0.34420 0.07930 0.07000
H 	H 	0.31310 0.18740 0.09330 0.05600
H 	H 	0.88420 0.10460 0.11880 0.04800
H 	H 	0.11440 0.90840 0.13810 0.04400
H 	H 	0.68090 0.82380 0.14770 0.05400
H 	H 	0.53020 0.66640 0.15660 0.07500
H 	H 	0.65830 0.54760 0.14910 -0.01100
H 	H 	0.07770 0.73800 0.14110 0.02600
H 	H 	0.35760 0.27540 0.61890 0.02300
H 	H 	0.13250 0.46080 0.58360 -0.00700
H 	H 	0.88530 0.34420 0.57930 0.07000
H 	H 	0.87430 0.18740 0.59330 0.05500
H 	H 	0.22040 0.10460 0.61880 0.04700
H 	H 	0.79400 0.90840 0.63810 0.04600
H 	H 	0.14290 0.82380 0.64770 0.05500
H 	H 	0.13620 0.66640 0.65660 0.07500
H 	H 	0.88930 0.54760 0.64910 -0.01100
H 	H 	0.66030 0.73800 0.64110 0.02100
H 	H 	0.08220 0.72460 0.88110 0.01900
H 	H 	0.67170 0.53920 0.91640 -0.00700
H 	H 	0.54110 0.65580 0.92070 0.07000
H 	H 	0.68690 0.81260 0.90670 0.05600
H 	H 	0.11580 0.89540 0.88120 0.04800
H 	H 	0.88560 0.09160 0.86190 0.04400
H 	H 	0.31910 0.17620 0.85230 0.05400
H 	H 	0.46980 0.33360 0.84340 0.07500
H 	H 	0.34170 0.45240 0.85090 -0.01100
H 	H 	0.92230 0.26200 0.85890 0.02600
C 	C 	0.73903 0.71086 0.38910 0.00800
C 	C 	0.87074 0.60148 0.40950 0.04200
C 	C 	0.01981 0.67142 0.41280 -0.08600
C 	C 	0.02633 0.76426 0.40440 -0.01900
C 	C 	0.88254 0.78528 0.39240 0.00000
C 	C 	0.87810 0.88240 0.38310 0.01300
C 	C 	0.10741 0.10502 0.36370 0.01500
C 	C 	0.09989 0.20258 0.35770 0.00400
C 	C 	0.95570 0.22460 0.35280 -0.01800
C 	C 	0.95942 0.31784 0.34860 -0.09500
C 	C 	0.10880 0.38860 0.35200 0.05700
C 	C 	0.24261 0.27702 0.35800 0.00300
C 	C 	0.02817 0.28914 0.11090 0.01400
C 	C 	0.26926 0.39852 0.09050 0.04300
C 	C 	0.34839 0.32858 0.08720 -0.08600
C 	C 	0.26207 0.23574 0.09560 -0.02300
C 	C 	0.09726 0.21472 0.10760 0.00600
C 	C 	0.99570 0.11760 0.11690 0.00400
C 	C 	0.00239 0.89498 0.13630 0.02500
C 	C 	0.89731 0.79742 0.14230 -0.00200
C 	C 	0.73110 0.77540 0.14720 -0.01400
C 	C 	0.64158 0.68216 0.15140 -0.09500
C 	C 	0.72020 0.61140 0.14800 0.05500
C 	C 	0.96559 0.72298 0.14200 -0.00200
C 	C 	0.26097 0.28914 0.61090 0.00800
C 	C 	0.12926 0.39852 0.59050 0.04200
C 	C 	0.98019 0.32858 0.58720 -0.08600
C 	C 	0.97367 0.23574 0.59560 -0.01900
C 	C 	0.11746 0.21472 0.60760 0.00000
C 	C 	0.12190 0.11760 0.61690 0.01300
C 	C 	0.89259 0.89498 0.63630 0.01500
C 	C 	0.90011 0.79742 0.64230 0.00400
C 	C 	0.04430 0.77540 0.64720 -0.01800
C 	C 	0.04058 0.68216 0.65140 -0.09500
C 	C 	0.89120 0.61140 0.64800 0.05700
C 	C 	0.75739 0.72298 0.64200 0.00300
C 	C 	0.97183 0.71086 0.88910 0.01400
C 	C 	0.73074 0.60148 0.90950 0.04300
C 	C 	0.65161 0.67142 0.91280 -0.08600
C 	C 	0.73793 0.76426 0.90440 -0.02300
C 	C 	0.90274 0.78528 0.89240 0.00600
C 	C 	0.00430 0.88240 0.88310 0.00400
C 	C 	0.99761 0.10502 0.86370 0.02500
C 	C 	0.10269 0.20258 0.85770 -0.00200
C 	C 	0.26890 0.22460 0.85280 -0.01400
C 	C 	0.35842 0.31784 0.84860 -0.09500
C 	C 	0.27980 0.38860 0.85200 0.05500
C 	C 	0.03441 0.27702 0.85800 -0.00200
N 	N 	0.73138 0.61936 0.39680 -0.23000
N 	N 	0.01057 0.94934 0.37760 -0.07700
N 	N 	0.97626 0.03832 0.37160 -0.08000
N 	N 	0.24872 0.37024 0.35700 -0.23400
N 	N 	0.58458 0.43016 0.48740 -0.31800
N 	N 	0.59854 0.34848 0.47590 -0.05400
N 	N 	0.61102 0.27044 0.46460 -0.08200
N 	N 	0.59431 0.40322 0.28040 -0.21200
N 	N 	0.70699 0.41578 0.23750 -0.02900
N 	N 	0.81920 0.42560 0.19560 -0.21500
N 	N 	0.11202 0.38064 0.10320 -0.23000
N 	N 	0.06123 0.05066 0.12240 -0.07500
N 	N 	0.93794 0.96168 0.12840 -0.08300
N 	N 	0.87848 0.62976 0.14300 -0.23400
N 	N 	0.15442 0.56984 0.01260 -0.31700
N 	N 	0.25006 0.65152 0.02410 -0.05300
N 	N 	0.34058 0.72956 0.03540 -0.08200
N 	N 	0.19109 0.59678 0.21960 -0.21100
N 	N 	0.29121 0.58422 0.26250 -0.02900
N 	N 	0.39360 0.57440 0.30440 -0.21500
N 	N 	0.26862 0.38064 0.60320 -0.23000
N 	N 	0.98943 0.05066 0.62240 -0.07700
N 	N 	0.02374 0.96168 0.62840 -0.08000
N 	N 	0.75128 0.62976 0.64300 -0.23400
N 	N 	0.41542 0.56984 0.51260 -0.31800
N 	N 	0.40146 0.65152 0.52410 -0.05400
N 	N 	0.38898 0.72956 0.53540 -0.08200
N 	N 	0.40569 0.59678 0.71960 -0.21200
N 	N 	0.29301 0.58422 0.76250 -0.02900
N 	N 	0.18080 0.57440 0.80440 -0.21500
N 	N 	0.88798 0.61936 0.89680 -0.23000
N 	N 	0.93877 0.94934 0.87760 -0.07500
N 	N 	0.06206 0.03832 0.87160 -0.08300
N 	N 	0.12152 0.37024 0.85700 -0.23400
N 	N 	0.84558 0.43016 0.98740 -0.31700
N 	N 	0.74994 0.34848 0.97590 -0.05300
N 	N 	0.65942 0.27044 0.96460 -0.08200
N 	N 	0.80891 0.40322 0.78040 -0.21100
N 	N 	0.70879 0.41578 0.73750 -0.02900
N 	N 	0.60640 0.42560 0.69560 -0.21500
