data_crystal

_cell_length_a 16.50940
_cell_length_b 16.50940
_cell_length_c 25.70100
_cell_angle_alpha 90.00000
_cell_angle_beta  90.00000
_cell_angle_gamma 120.00000

_symmetry_space_group_name_	'P 1'
_symmetry_space_group_name_H-M	'P 1'

loop_
_symmetry_equiv_pos_as_xyz
  x,y,z

loop_
_atom_site_label
_atom_site_type_symbol
_atom_site_fract_x
_atom_site_fract_y
_atom_site_fract_z
_atom_site_charge
Zn	Zn	0.71534 0.43068 0.16667 1.20900
Zn	Zn	0.71534 0.28466 0.50000 1.20900
Zn	Zn	0.56932 0.28466 0.83333 1.20900
Zn	Zn	0.28466 0.56932 0.16667 1.20900
Zn	Zn	0.28466 0.71534 0.50000 1.20900
Zn	Zn	0.43068 0.71534 0.83333 1.20900
H 	H 	0.82010 0.22850 0.07560 0.09300
H 	H 	0.66270 0.49790 0.07350 -0.02400
H 	H 	0.61210 0.59570 0.04750 0.17800
H 	H 	0.58710 0.64370 0.19520 0.15100
H 	H 	0.65250 0.55530 0.21740 -0.05100
H 	H 	0.56740 0.83560 0.98270 0.04500
H 	H 	0.55340 0.96710 0.97950 0.07600
H 	H 	0.45300 0.91510 0.12120 0.06900
H 	H 	0.48290 0.79110 0.12800 0.03200
H 	H 	0.55070 0.71920 0.13260 0.16500
H 	H 	0.40840 0.17990 0.40893 0.09400
H 	H 	0.83520 0.33730 0.40683 -0.02300
H 	H 	0.98360 0.38790 0.38083 0.17800
H 	H 	0.05660 0.41290 0.52853 0.15000
H 	H 	0.90280 0.34750 0.55073 -0.05200
H 	H 	0.26820 0.43260 0.31603 0.03900
H 	H 	0.41370 0.44660 0.31283 0.07100
H 	H 	0.46210 0.54700 0.45453 0.06800
H 	H 	0.30820 0.51710 0.46133 0.03100
H 	H 	0.16850 0.44930 0.46593 0.16400
H 	H 	0.77150 0.59160 0.74227 0.09300
H 	H 	0.50210 0.16480 0.74017 -0.02400
H 	H 	0.40430 0.01640 0.71417 0.17800
H 	H 	0.35630 0.94340 0.86187 0.15000
H 	H 	0.44470 0.09720 0.88407 -0.05100
H 	H 	0.16440 0.73180 0.64937 0.03900
H 	H 	0.03290 0.58630 0.64617 0.07100
H 	H 	0.08490 0.53790 0.78787 0.06800
H 	H 	0.20890 0.69180 0.79467 0.03100
H 	H 	0.28080 0.83150 0.79927 0.16400
H 	H 	0.17990 0.77150 0.07560 0.09200
H 	H 	0.33730 0.50210 0.07350 -0.02500
H 	H 	0.38790 0.40430 0.04750 0.17700
H 	H 	0.41290 0.35630 0.19520 0.15000
H 	H 	0.34750 0.44470 0.21740 -0.05200
H 	H 	0.43260 0.16440 0.98270 0.04400
H 	H 	0.44660 0.03290 0.97950 0.07500
H 	H 	0.54700 0.08490 0.12120 0.06800
H 	H 	0.51710 0.20890 0.12800 0.03100
H 	H 	0.44930 0.28080 0.13260 0.16400
H 	H 	0.59160 0.82010 0.40893 0.09300
H 	H 	0.16480 0.66270 0.40683 -0.02400
H 	H 	0.01640 0.61210 0.38083 0.17800
H 	H 	0.94340 0.58710 0.52853 0.15000
H 	H 	0.09720 0.65250 0.55073 -0.05200
H 	H 	0.73180 0.56740 0.31603 0.03900
H 	H 	0.58630 0.55340 0.31283 0.07100
H 	H 	0.53790 0.45300 0.45453 0.06800
H 	H 	0.69180 0.48290 0.46133 0.03100
H 	H 	0.83150 0.55070 0.46593 0.16400
H 	H 	0.22850 0.40840 0.74227 0.09300
H 	H 	0.49790 0.83520 0.74017 -0.02400
H 	H 	0.59570 0.98360 0.71417 0.17800
H 	H 	0.64370 0.05660 0.86187 0.15000
H 	H 	0.55530 0.90280 0.88407 -0.05100
H 	H 	0.83560 0.26820 0.64937 0.03900
H 	H 	0.96710 0.41370 0.64617 0.07100
H 	H 	0.91510 0.46210 0.78787 0.06800
H 	H 	0.79110 0.30820 0.79467 0.03100
H 	H 	0.71920 0.16850 0.79927 0.16400
H 	H 	0.59160 0.77150 0.25773 0.09300
H 	H 	0.16480 0.50210 0.25983 -0.02400
H 	H 	0.01640 0.40430 0.28583 0.17800
H 	H 	0.94340 0.35630 0.13813 0.15000
H 	H 	0.09720 0.44470 0.11593 -0.05200
H 	H 	0.73180 0.16440 0.35063 0.03900
H 	H 	0.58630 0.03290 0.35383 0.07100
H 	H 	0.53790 0.08490 0.21213 0.06800
H 	H 	0.69180 0.20890 0.20533 0.03100
H 	H 	0.83150 0.28080 0.20073 0.16400
H 	H 	0.22850 0.82010 0.92440 0.09200
H 	H 	0.49790 0.66270 0.92650 -0.02400
H 	H 	0.59570 0.61210 0.95250 0.17900
H 	H 	0.64370 0.58710 0.80480 0.15000
H 	H 	0.55530 0.65250 0.78260 -0.05200
H 	H 	0.83560 0.56740 0.01730 0.03500
H 	H 	0.96710 0.55340 0.02050 0.06800
H 	H 	0.91510 0.45300 0.87880 0.06800
H 	H 	0.79110 0.48290 0.87200 0.03100
H 	H 	0.71920 0.55070 0.86740 0.16500
H 	H 	0.17990 0.40840 0.59107 0.09300
H 	H 	0.33730 0.83520 0.59317 -0.02400
H 	H 	0.38790 0.98360 0.61917 0.17800
H 	H 	0.41290 0.05660 0.47147 0.15000
H 	H 	0.34750 0.90280 0.44927 -0.05200
H 	H 	0.43260 0.26820 0.68397 0.03900
H 	H 	0.44660 0.41370 0.68717 0.07100
H 	H 	0.54700 0.46210 0.54547 0.06800
H 	H 	0.51710 0.30820 0.53867 0.03100
H 	H 	0.44930 0.16850 0.53407 0.16400
H 	H 	0.40840 0.22850 0.25773 0.09300
H 	H 	0.83520 0.49790 0.25983 -0.02400
H 	H 	0.98360 0.59570 0.28583 0.17800
H 	H 	0.05660 0.64370 0.13813 0.15000
H 	H 	0.90280 0.55530 0.11593 -0.05200
H 	H 	0.26820 0.83560 0.35063 0.03900
H 	H 	0.41370 0.96710 0.35383 0.07100
H 	H 	0.46210 0.91510 0.21213 0.06800
H 	H 	0.30820 0.79110 0.20533 0.03100
H 	H 	0.16850 0.71920 0.20073 0.16400
H 	H 	0.77150 0.17990 0.92440 0.09200
H 	H 	0.50210 0.33730 0.92650 -0.02400
H 	H 	0.40430 0.38790 0.95250 0.17900
H 	H 	0.35630 0.41290 0.80480 0.15000
H 	H 	0.44470 0.34750 0.78260 -0.05200
H 	H 	0.16440 0.43260 0.01730 0.03500
H 	H 	0.03290 0.44660 0.02050 0.06800
H 	H 	0.08490 0.54700 0.87880 0.06800
H 	H 	0.20890 0.51710 0.87200 0.03100
H 	H 	0.28080 0.44930 0.86740 0.16500
H 	H 	0.82010 0.59160 0.59107 0.09300
H 	H 	0.66270 0.16480 0.59317 -0.02400
H 	H 	0.61210 0.01640 0.61917 0.17800
H 	H 	0.58710 0.94340 0.47147 0.15000
H 	H 	0.65250 0.09720 0.44927 -0.05200
H 	H 	0.56740 0.73180 0.68397 0.03900
H 	H 	0.55340 0.58630 0.68717 0.07100
H 	H 	0.45300 0.53790 0.54547 0.06800
H 	H 	0.48290 0.69180 0.53867 0.03100
H 	H 	0.55070 0.83150 0.53407 0.16400
H 	H 	0.67505 0.32495 -0.00000 0.07000
H 	H 	0.64990 0.32495 0.33333 0.06900
H 	H 	0.67505 0.35010 0.66667 0.06900
H 	H 	0.32495 0.67505 -0.00000 0.07000
H 	H 	0.35010 0.67505 0.33333 0.06900
H 	H 	0.32495 0.64990 0.66667 0.06900
C 	C 	0.73699 0.32539 0.09654 0.33000
C 	C 	0.74540 0.28328 0.04640 -0.03900
C 	C 	0.79320 0.23560 0.04546 -0.09400
C 	C 	0.65020 0.53040 0.09884 0.18900
C 	C 	0.61870 0.58820 0.08281 -0.30200
C 	C 	0.59700 0.63545 0.11854 0.30000
C 	C 	0.60600 0.61770 0.16915 -0.30900
C 	C 	0.64250 0.56170 0.18236 0.19200
C 	C 	0.56330 0.73320 0.05966 0.26200
C 	C 	0.53840 0.80786 0.05777 -0.08500
C 	C 	0.55070 0.85540 0.01260 0.03000
C 	C 	0.53880 0.93260 0.01015 -0.10400
C 	C 	0.50650 0.95875 0.05118 0.04800
C 	C 	0.48210 0.90320 0.09364 -0.09500
C 	C 	0.49900 0.82700 0.09783 0.02100
C 	C 	0.58840 0.26301 0.42987 0.33000
C 	C 	0.53788 0.25460 0.37973 -0.04000
C 	C 	0.44240 0.20680 0.37879 -0.09500
C 	C 	0.88020 0.34980 0.43217 0.18900
C 	C 	0.96950 0.38130 0.41614 -0.30200
C 	C 	0.03845 0.40300 0.45187 0.30100
C 	C 	0.01170 0.39400 0.50248 -0.30900
C 	C 	0.91920 0.35750 0.51569 0.19200
C 	C 	0.16990 0.43670 0.39299 0.26300
C 	C 	0.26946 0.46160 0.39110 -0.08700
C 	C 	0.30470 0.44930 0.34593 0.03600
C 	C 	0.39380 0.46120 0.34348 -0.10000
C 	C 	0.45225 0.49350 0.38451 0.04800
C 	C 	0.42110 0.51790 0.42697 -0.09600
C 	C 	0.32800 0.50100 0.43116 0.02200
C 	C 	0.67461 0.41160 0.76321 0.33000
C 	C 	0.71672 0.46212 0.71307 -0.04000
C 	C 	0.76440 0.55760 0.71213 -0.09500
C 	C 	0.46960 0.11980 0.76551 0.18900
C 	C 	0.41180 0.03050 0.74948 -0.30200
C 	C 	0.36455 0.96155 0.78521 0.30100
C 	C 	0.38230 0.98830 0.83582 -0.30900
C 	C 	0.43830 0.08080 0.84903 0.19200
C 	C 	0.26680 0.83010 0.72633 0.26300
C 	C 	0.19214 0.73054 0.72444 -0.08700
C 	C 	0.14460 0.69530 0.67927 0.03600
C 	C 	0.06740 0.60620 0.67682 -0.10000
C 	C 	0.04125 0.54775 0.71785 0.04800
C 	C 	0.09680 0.57890 0.76031 -0.09600
C 	C 	0.17300 0.67200 0.76450 0.02200
C 	C 	0.26301 0.67461 0.09654 0.33000
C 	C 	0.25460 0.71672 0.04640 -0.03900
C 	C 	0.20680 0.76440 0.04546 -0.09400
C 	C 	0.34980 0.46960 0.09884 0.18900
C 	C 	0.38130 0.41180 0.08281 -0.30200
C 	C 	0.40300 0.36455 0.11854 0.30000
C 	C 	0.39400 0.38230 0.16915 -0.30900
C 	C 	0.35750 0.43830 0.18236 0.19200
C 	C 	0.43670 0.26680 0.05966 0.26200
C 	C 	0.46160 0.19214 0.05777 -0.08500
C 	C 	0.44930 0.14460 0.01260 0.03000
C 	C 	0.46120 0.06740 0.01015 -0.10400
C 	C 	0.49350 0.04125 0.05118 0.04800
C 	C 	0.51790 0.09680 0.09364 -0.09500
C 	C 	0.50100 0.17300 0.09783 0.02100
C 	C 	0.41160 0.73699 0.42987 0.33000
C 	C 	0.46212 0.74540 0.37973 -0.04000
C 	C 	0.55760 0.79320 0.37879 -0.09500
C 	C 	0.11980 0.65020 0.43217 0.18900
C 	C 	0.03050 0.61870 0.41614 -0.30200
C 	C 	0.96155 0.59700 0.45187 0.30100
C 	C 	0.98830 0.60600 0.50248 -0.30900
C 	C 	0.08080 0.64250 0.51569 0.19200
C 	C 	0.83010 0.56330 0.39299 0.26300
C 	C 	0.73054 0.53840 0.39110 -0.08700
C 	C 	0.69530 0.55070 0.34593 0.03600
C 	C 	0.60620 0.53880 0.34348 -0.10000
C 	C 	0.54775 0.50650 0.38451 0.04800
C 	C 	0.57890 0.48210 0.42697 -0.09600
C 	C 	0.67200 0.49900 0.43116 0.02200
C 	C 	0.32539 0.58840 0.76321 0.33000
C 	C 	0.28328 0.53788 0.71307 -0.04000
C 	C 	0.23560 0.44240 0.71213 -0.09500
C 	C 	0.53040 0.88020 0.76551 0.18900
C 	C 	0.58820 0.96950 0.74948 -0.30200
C 	C 	0.63545 0.03845 0.78521 0.30100
C 	C 	0.61770 0.01170 0.83582 -0.30900
C 	C 	0.56170 0.91920 0.84903 0.19200
C 	C 	0.73320 0.16990 0.72633 0.26300
C 	C 	0.80786 0.26946 0.72444 -0.08700
C 	C 	0.85540 0.30470 0.67927 0.03600
C 	C 	0.93260 0.39380 0.67682 -0.10000
C 	C 	0.95875 0.45225 0.71785 0.04800
C 	C 	0.90320 0.42110 0.76031 -0.09600
C 	C 	0.82700 0.32800 0.76450 0.02200
C 	C 	0.41160 0.67461 0.23679 0.33000
C 	C 	0.46212 0.71672 0.28693 -0.04000
C 	C 	0.55760 0.76440 0.28787 -0.09500
C 	C 	0.11980 0.46960 0.23449 0.18900
C 	C 	0.03050 0.41180 0.25052 -0.30200
C 	C 	0.96155 0.36455 0.21479 0.30100
C 	C 	0.98830 0.38230 0.16418 -0.30900
C 	C 	0.08080 0.43830 0.15097 0.19200
C 	C 	0.83010 0.26680 0.27367 0.26300
C 	C 	0.73054 0.19214 0.27556 -0.08700
C 	C 	0.69530 0.14460 0.32073 0.03600
C 	C 	0.60620 0.06740 0.32318 -0.10000
C 	C 	0.54775 0.04125 0.28215 0.04800
C 	C 	0.57890 0.09680 0.23969 -0.09600
C 	C 	0.67200 0.17300 0.23550 0.02200
C 	C 	0.32539 0.73699 0.90346 0.33000
C 	C 	0.28328 0.74540 0.95360 -0.03700
C 	C 	0.23560 0.79320 0.95454 -0.09000
C 	C 	0.53040 0.65020 0.90116 0.18900
C 	C 	0.58820 0.61870 0.91719 -0.30200
C 	C 	0.63545 0.59700 0.88146 0.30100
C 	C 	0.61770 0.60600 0.83085 -0.30900
C 	C 	0.56170 0.64250 0.81764 0.19300
C 	C 	0.73320 0.56330 0.94034 0.26400
C 	C 	0.80786 0.53840 0.94223 -0.08900
C 	C 	0.85540 0.55070 0.98740 0.04200
C 	C 	0.93260 0.53880 0.98985 -0.09500
C 	C 	0.95875 0.50650 0.94882 0.04700
C 	C 	0.90320 0.48210 0.90636 -0.09600
C 	C 	0.82700 0.49900 0.90217 0.02400
C 	C 	0.26301 0.58840 0.57013 0.33000
C 	C 	0.25460 0.53788 0.62027 -0.04000
C 	C 	0.20680 0.44240 0.62121 -0.09500
C 	C 	0.34980 0.88020 0.56783 0.18900
C 	C 	0.38130 0.96950 0.58386 -0.30200
C 	C 	0.40300 0.03845 0.54813 0.30100
C 	C 	0.39400 0.01170 0.49752 -0.30900
C 	C 	0.35750 0.91920 0.48431 0.19200
C 	C 	0.43670 0.16990 0.60701 0.26300
C 	C 	0.46160 0.26946 0.60890 -0.08700
C 	C 	0.44930 0.30470 0.65407 0.03600
C 	C 	0.46120 0.39380 0.65652 -0.10000
C 	C 	0.49350 0.45225 0.61549 0.04800
C 	C 	0.51790 0.42110 0.57303 -0.09600
C 	C 	0.50100 0.32800 0.56884 0.02200
C 	C 	0.58840 0.32539 0.23679 0.33000
C 	C 	0.53788 0.28328 0.28693 -0.04000
C 	C 	0.44240 0.23560 0.28787 -0.09500
C 	C 	0.88020 0.53040 0.23449 0.18900
C 	C 	0.96950 0.58820 0.25052 -0.30200
C 	C 	0.03845 0.63545 0.21479 0.30100
C 	C 	0.01170 0.61770 0.16418 -0.30900
C 	C 	0.91920 0.56170 0.15097 0.19200
C 	C 	0.16990 0.73320 0.27367 0.26300
C 	C 	0.26946 0.80786 0.27556 -0.08700
C 	C 	0.30470 0.85540 0.32073 0.03600
C 	C 	0.39380 0.93260 0.32318 -0.10000
C 	C 	0.45225 0.95875 0.28215 0.04800
C 	C 	0.42110 0.90320 0.23969 -0.09600
C 	C 	0.32800 0.82700 0.23550 0.02200
C 	C 	0.67461 0.26301 0.90346 0.33000
C 	C 	0.71672 0.25460 0.95360 -0.03700
C 	C 	0.76440 0.20680 0.95454 -0.09000
C 	C 	0.46960 0.34980 0.90116 0.18900
C 	C 	0.41180 0.38130 0.91719 -0.30200
C 	C 	0.36455 0.40300 0.88146 0.30100
C 	C 	0.38230 0.39400 0.83085 -0.30900
C 	C 	0.43830 0.35750 0.81764 0.19300
C 	C 	0.26680 0.43670 0.94034 0.26400
C 	C 	0.19214 0.46160 0.94223 -0.08900
C 	C 	0.14460 0.44930 0.98740 0.04200
C 	C 	0.06740 0.46120 0.98985 -0.09500
C 	C 	0.04125 0.49350 0.94882 0.04700
C 	C 	0.09680 0.51790 0.90636 -0.09600
C 	C 	0.17300 0.50100 0.90217 0.02400
C 	C 	0.73699 0.41160 0.57013 0.33000
C 	C 	0.74540 0.46212 0.62027 -0.04000
C 	C 	0.79320 0.55760 0.62121 -0.09500
C 	C 	0.65020 0.11980 0.56783 0.18900
C 	C 	0.61870 0.03050 0.58386 -0.30200
C 	C 	0.59700 0.96155 0.54813 0.30100
C 	C 	0.60600 0.98830 0.49752 -0.30900
C 	C 	0.64250 0.08080 0.48431 0.19200
C 	C 	0.56330 0.83010 0.60701 0.26300
C 	C 	0.53840 0.73054 0.60890 -0.08700
C 	C 	0.55070 0.69530 0.65407 0.03600
C 	C 	0.53880 0.60620 0.65652 -0.10000
C 	C 	0.50650 0.54775 0.61549 0.04800
C 	C 	0.48210 0.57890 0.57303 -0.09600
C 	C 	0.49900 0.67200 0.56884 0.02200
C 	C 	0.70755 0.29245 -0.00000 -0.02200
C 	C 	0.80090 0.19910 -0.00000 0.11600
C 	C 	0.58490 0.29245 0.33333 -0.01700
C 	C 	0.39820 0.19910 0.33333 0.12200
C 	C 	0.70755 0.41510 0.66667 -0.01700
C 	C 	0.80090 0.60180 0.66667 0.12200
C 	C 	0.29245 0.70755 -0.00000 -0.02200
C 	C 	0.19910 0.80090 -0.00000 0.11600
C 	C 	0.41510 0.70755 0.33333 -0.01700
C 	C 	0.60180 0.80090 0.33333 0.12200
C 	C 	0.29245 0.58490 0.66667 -0.01700
C 	C 	0.19910 0.39820 0.66667 0.12200
N 	N 	0.66398 0.51715 0.14780 -0.30700
N 	N 	0.56805 0.69881 0.10657 -0.28800
N 	N 	0.85317 0.33602 0.48113 -0.30700
N 	N 	0.13076 0.43195 0.43990 -0.28800
N 	N 	0.48285 0.14683 0.81447 -0.30700
N 	N 	0.30119 0.86924 0.77324 -0.28800
N 	N 	0.33602 0.48285 0.14780 -0.30700
N 	N 	0.43195 0.30119 0.10657 -0.28800
N 	N 	0.14683 0.66398 0.48113 -0.30700
N 	N 	0.86924 0.56805 0.43990 -0.28800
N 	N 	0.51715 0.85317 0.81447 -0.30700
N 	N 	0.69881 0.13076 0.77324 -0.28800
N 	N 	0.14683 0.48285 0.18553 -0.30700
N 	N 	0.86924 0.30119 0.22676 -0.28800
N 	N 	0.51715 0.66398 0.85220 -0.30700
N 	N 	0.69881 0.56805 0.89343 -0.28800
N 	N 	0.33602 0.85317 0.51887 -0.30700
N 	N 	0.43195 0.13076 0.56010 -0.28800
N 	N 	0.85317 0.51715 0.18553 -0.30700
N 	N 	0.13076 0.69881 0.22676 -0.28800
N 	N 	0.48285 0.33602 0.85220 -0.30700
N 	N 	0.30119 0.43195 0.89343 -0.28800
N 	N 	0.66398 0.14683 0.51887 -0.30700
N 	N 	0.56805 0.86924 0.56010 -0.28800
N 	N 	0.85095 0.14905 -0.00000 -0.03300
N 	N 	0.29810 0.14905 0.33333 -0.03200
N 	N 	0.85095 0.70190 0.66667 -0.03200
N 	N 	0.14905 0.85095 -0.00000 -0.03300
N 	N 	0.70190 0.85095 0.33333 -0.03200
N 	N 	0.14905 0.29810 0.66667 -0.03200
O 	O 	0.70725 0.38054 0.09543 -0.45400
O 	O 	0.76347 0.30369 0.13660 -0.34700
O 	O 	0.83560 0.09040 0.95980 -0.10300
O 	O 	0.57930 0.70333 0.02043 -0.24800
O 	O 	0.67329 0.29275 0.42876 -0.45400
O 	O 	0.54022 0.23653 0.46993 -0.34700
O 	O 	0.25480 0.16440 0.29313 -0.10500
O 	O 	0.12403 0.42070 0.35376 -0.24600
O 	O 	0.61946 0.32671 0.76210 -0.45400
O 	O 	0.69631 0.45978 0.80327 -0.34700
O 	O 	0.90960 0.74520 0.62647 -0.10500
O 	O 	0.29667 0.87597 0.68710 -0.24600
O 	O 	0.29275 0.61946 0.09543 -0.45400
O 	O 	0.23653 0.69631 0.13660 -0.34700
O 	O 	0.16440 0.90960 0.95980 -0.10300
O 	O 	0.42070 0.29667 0.02043 -0.24800
O 	O 	0.32671 0.70725 0.42876 -0.45400
O 	O 	0.45978 0.76347 0.46993 -0.34700
O 	O 	0.74520 0.83560 0.29313 -0.10500
O 	O 	0.87597 0.57930 0.35376 -0.24600
O 	O 	0.38054 0.67329 0.76210 -0.45400
O 	O 	0.30369 0.54022 0.80327 -0.34700
O 	O 	0.09040 0.25480 0.62647 -0.10500
O 	O 	0.70333 0.12403 0.68710 -0.24600
O 	O 	0.32671 0.61946 0.23790 -0.45400
O 	O 	0.45978 0.69631 0.19673 -0.34700
O 	O 	0.74520 0.90960 0.37353 -0.10500
O 	O 	0.87597 0.29667 0.31290 -0.24600
O 	O 	0.38054 0.70725 0.90457 -0.45300
O 	O 	0.30369 0.76347 0.86340 -0.34700
O 	O 	0.09040 0.83560 0.04020 -0.10600
O 	O 	0.70333 0.57930 0.97957 -0.24500
O 	O 	0.29275 0.67329 0.57124 -0.45400
O 	O 	0.23653 0.54022 0.53007 -0.34700
O 	O 	0.16440 0.25480 0.70687 -0.10500
O 	O 	0.42070 0.12403 0.64624 -0.24600
O 	O 	0.67329 0.38054 0.23790 -0.45400
O 	O 	0.54022 0.30369 0.19673 -0.34700
O 	O 	0.25480 0.09040 0.37353 -0.10500
O 	O 	0.12403 0.70333 0.31290 -0.24600
O 	O 	0.61946 0.29275 0.90457 -0.45300
O 	O 	0.69631 0.23653 0.86340 -0.34700
O 	O 	0.90960 0.16440 0.04020 -0.10600
O 	O 	0.29667 0.42070 0.97957 -0.24500
O 	O 	0.70725 0.32671 0.57124 -0.45400
O 	O 	0.76347 0.45978 0.53007 -0.34700
O 	O 	0.83560 0.74520 0.70687 -0.10500
O 	O 	0.57930 0.87597 0.64624 -0.24600
