data_crystal

_cell_length_a 19.43560
_cell_length_b 19.43560
_cell_length_c 27.89300
_cell_angle_alpha 90.00000
_cell_angle_beta  90.00000
_cell_angle_gamma 120.00000

_symmetry_space_group_name_	'P 1'
_symmetry_space_group_name_H-M	'P 1'

loop_
_symmetry_equiv_pos_as_xyz
  x,y,z

loop_
_atom_site_label
_atom_site_type_symbol
_atom_site_fract_x
_atom_site_fract_y
_atom_site_fract_z
_atom_site_charge
In	In	0.36401 0.78283 0.25000 1.98700
In	In	0.41882 0.63599 0.25000 1.98700
In	In	0.21717 0.58118 0.25000 1.98700
In	In	0.58118 0.21717 0.75000 1.98700
In	In	0.78283 0.36401 0.75000 1.98600
In	In	0.63599 0.41882 0.75000 1.98600
H 	H 	0.25000 0.84030 0.36630 -0.01100
H 	H 	0.18280 0.86440 0.42480 0.09300
H 	H 	0.01180 0.63710 0.42060 0.09000
H 	H 	0.08430 0.61130 0.36490 -0.01000
H 	H 	0.07660 0.87860 0.44480 0.06000
H 	H 	0.59030 0.75000 0.36630 -0.01100
H 	H 	0.68160 0.81720 0.42480 0.09100
H 	H 	0.62530 0.98820 0.42060 0.09100
H 	H 	0.52700 0.91570 0.36490 -0.00900
H 	H 	0.80200 0.92340 0.44480 0.05600
H 	H 	0.15970 0.40970 0.36630 -0.01200
H 	H 	0.13560 0.31840 0.42480 0.09100
H 	H 	0.36290 0.37470 0.42060 0.08900
H 	H 	0.38870 0.47300 0.36490 -0.01000
H 	H 	0.12140 0.19800 0.44480 0.05800
H 	H 	0.25000 0.84030 0.13370 -0.01100
H 	H 	0.18280 0.86440 0.07520 0.09300
H 	H 	0.01180 0.63710 0.07940 0.09000
H 	H 	0.08430 0.61130 0.13510 -0.01000
H 	H 	0.07660 0.87860 0.05520 0.06000
H 	H 	0.59030 0.75000 0.13370 -0.01100
H 	H 	0.68160 0.81720 0.07520 0.09100
H 	H 	0.62530 0.98820 0.07940 0.09100
H 	H 	0.52700 0.91570 0.13510 -0.00900
H 	H 	0.80200 0.92340 0.05520 0.05600
H 	H 	0.15970 0.40970 0.13370 -0.01200
H 	H 	0.13560 0.31840 0.07520 0.09100
H 	H 	0.36290 0.37470 0.07940 0.08900
H 	H 	0.38870 0.47300 0.13510 -0.01000
H 	H 	0.12140 0.19800 0.05520 0.05800
H 	H 	0.40970 0.15970 0.63370 -0.01200
H 	H 	0.31840 0.13560 0.57520 0.09000
H 	H 	0.37470 0.36290 0.57940 0.09000
H 	H 	0.47300 0.38870 0.63510 -0.01000
H 	H 	0.19800 0.12140 0.55520 0.05800
H 	H 	0.84030 0.25000 0.63370 -0.01100
H 	H 	0.86440 0.18280 0.57520 0.09100
H 	H 	0.63710 0.01180 0.57940 0.08800
H 	H 	0.61130 0.08430 0.63510 -0.01100
H 	H 	0.87860 0.07660 0.55520 0.05700
H 	H 	0.75000 0.59030 0.63370 -0.01100
H 	H 	0.81720 0.68160 0.57520 0.09200
H 	H 	0.98820 0.62530 0.57940 0.09000
H 	H 	0.91570 0.52700 0.63510 -0.01000
H 	H 	0.92340 0.80200 0.55520 0.06000
H 	H 	0.40970 0.15970 0.86630 -0.01200
H 	H 	0.31840 0.13560 0.92480 0.09000
H 	H 	0.37470 0.36290 0.92060 0.09000
H 	H 	0.47300 0.38870 0.86490 -0.01000
H 	H 	0.19800 0.12140 0.94480 0.05800
H 	H 	0.84030 0.25000 0.86630 -0.01100
H 	H 	0.86440 0.18280 0.92480 0.09100
H 	H 	0.63710 0.01180 0.92060 0.08800
H 	H 	0.61130 0.08430 0.86490 -0.01100
H 	H 	0.87860 0.07660 0.94480 0.05700
H 	H 	0.75000 0.59030 0.86630 -0.01100
H 	H 	0.81720 0.68160 0.92480 0.09200
H 	H 	0.98820 0.62530 0.92060 0.09000
H 	H 	0.91570 0.52700 0.86490 -0.01000
H 	H 	0.92340 0.80200 0.94480 0.06000
H 	H 	0.00000 0.66220 0.50000 0.05300
H 	H 	0.66220 -0.00000 0.50000 0.05500
H 	H 	0.33780 0.33780 0.50000 0.05400
H 	H 	-0.00000 0.66220 -0.00000 0.05300
H 	H 	0.66220 0.00000 -0.00000 0.05500
H 	H 	0.33780 0.33780 -0.00000 0.05400
H 	H 	0.88180 0.88180 0.50000 0.07000
H 	H 	0.00000 0.11820 0.50000 0.07000
H 	H 	0.11820 -0.00000 0.50000 0.05600
H 	H 	0.88180 0.88180 -0.00000 0.07000
H 	H 	0.00000 0.11820 -0.00000 0.07000
H 	H 	0.11820 0.00000 -0.00000 0.05600
C 	C 	0.21633 0.70903 0.31940 0.51800
C 	C 	0.17297 0.72356 0.35813 -0.22700
C 	C 	0.20210 0.79885 0.37744 0.13200
C 	C 	0.16195 0.81337 0.41249 -0.19000
C 	C 	0.09124 0.75351 0.42978 0.10200
C 	C 	0.06089 0.67790 0.41041 -0.18300
C 	C 	0.10329 0.66284 0.37594 0.12800
C 	C 	0.04525 0.76834 0.46623 0.00500
C 	C 	0.04555 0.83925 0.46686 -0.08800
C 	C 	0.49270 0.78367 0.31940 0.51800
C 	C 	0.55059 0.82703 0.35813 -0.22600
C 	C 	0.59675 0.79790 0.37744 0.13100
C 	C 	0.65142 0.83805 0.41249 -0.18800
C 	C 	0.66227 0.90876 0.42978 0.10000
C 	C 	0.61701 0.93911 0.41041 -0.18000
C 	C 	0.55955 0.89671 0.37594 0.12700
C 	C 	0.72309 0.95475 0.46623 0.01300
C 	C 	0.79370 0.95445 0.46686 -0.07800
C 	C 	0.29097 0.50730 0.31940 0.51800
C 	C 	0.27644 0.44941 0.35813 -0.22700
C 	C 	0.20115 0.40325 0.37744 0.13200
C 	C 	0.18663 0.34858 0.41249 -0.19000
C 	C 	0.24649 0.33773 0.42978 0.10100
C 	C 	0.32210 0.38299 0.41041 -0.18300
C 	C 	0.33716 0.44045 0.37594 0.12700
C 	C 	0.23166 0.27691 0.46623 0.00600
C 	C 	0.16075 0.20630 0.46686 -0.08900
C 	C 	0.21633 0.70903 0.18060 0.51800
C 	C 	0.17297 0.72356 0.14187 -0.22700
C 	C 	0.20210 0.79885 0.12256 0.13200
C 	C 	0.16195 0.81337 0.08751 -0.19000
C 	C 	0.09124 0.75351 0.07022 0.10200
C 	C 	0.06089 0.67790 0.08959 -0.18300
C 	C 	0.10329 0.66284 0.12406 0.12800
C 	C 	0.04525 0.76834 0.03377 0.00600
C 	C 	0.04555 0.83925 0.03314 -0.08800
C 	C 	0.49270 0.78367 0.18060 0.51800
C 	C 	0.55059 0.82703 0.14187 -0.22600
C 	C 	0.59675 0.79790 0.12256 0.13100
C 	C 	0.65142 0.83805 0.08751 -0.18800
C 	C 	0.66227 0.90876 0.07022 0.10000
C 	C 	0.61701 0.93911 0.08959 -0.18000
C 	C 	0.55955 0.89671 0.12406 0.12700
C 	C 	0.72309 0.95475 0.03377 0.01300
C 	C 	0.79370 0.95445 0.03314 -0.07800
C 	C 	0.29097 0.50730 0.18060 0.51800
C 	C 	0.27644 0.44941 0.14187 -0.22700
C 	C 	0.20115 0.40325 0.12256 0.13200
C 	C 	0.18663 0.34858 0.08751 -0.19000
C 	C 	0.24649 0.33773 0.07022 0.10100
C 	C 	0.32210 0.38299 0.08959 -0.18300
C 	C 	0.33716 0.44045 0.12406 0.12700
C 	C 	0.23166 0.27691 0.03377 0.00600
C 	C 	0.16075 0.20630 0.03314 -0.08900
C 	C 	0.50730 0.29097 0.68060 0.51800
C 	C 	0.44941 0.27644 0.64187 -0.22700
C 	C 	0.40325 0.20115 0.62256 0.13100
C 	C 	0.34858 0.18663 0.58751 -0.19000
C 	C 	0.33773 0.24649 0.57022 0.10100
C 	C 	0.38299 0.32210 0.58959 -0.18200
C 	C 	0.44045 0.33716 0.62406 0.12700
C 	C 	0.27691 0.23166 0.53377 0.00600
C 	C 	0.20630 0.16075 0.53314 -0.08900
C 	C 	0.70903 0.21633 0.68060 0.51800
C 	C 	0.72356 0.17297 0.64187 -0.22700
C 	C 	0.79885 0.20210 0.62256 0.13100
C 	C 	0.81337 0.16195 0.58751 -0.18900
C 	C 	0.75351 0.09124 0.57022 0.10000
C 	C 	0.67790 0.06089 0.58959 -0.18200
C 	C 	0.66284 0.10329 0.62406 0.12600
C 	C 	0.76834 0.04525 0.53377 0.00600
C 	C 	0.83925 0.04555 0.53314 -0.08700
C 	C 	0.78367 0.49270 0.68060 0.51800
C 	C 	0.82703 0.55059 0.64187 -0.22700
C 	C 	0.79790 0.59675 0.62256 0.13200
C 	C 	0.83805 0.65142 0.58751 -0.19000
C 	C 	0.90876 0.66227 0.57022 0.10200
C 	C 	0.93911 0.61701 0.58959 -0.18300
C 	C 	0.89671 0.55955 0.62406 0.12800
C 	C 	0.95475 0.72309 0.53377 0.00500
C 	C 	0.95445 0.79370 0.53314 -0.09000
C 	C 	0.50730 0.29097 0.81940 0.51800
C 	C 	0.44941 0.27644 0.85813 -0.22700
C 	C 	0.40325 0.20115 0.87744 0.13100
C 	C 	0.34858 0.18663 0.91249 -0.19000
C 	C 	0.33773 0.24649 0.92978 0.10100
C 	C 	0.38299 0.32210 0.91041 -0.18200
C 	C 	0.44045 0.33716 0.87594 0.12700
C 	C 	0.27691 0.23166 0.96623 0.00600
C 	C 	0.20630 0.16075 0.96686 -0.08900
C 	C 	0.70903 0.21633 0.81940 0.51800
C 	C 	0.72356 0.17297 0.85813 -0.22700
C 	C 	0.79885 0.20210 0.87744 0.13100
C 	C 	0.81337 0.16195 0.91249 -0.18900
C 	C 	0.75351 0.09124 0.92978 0.10000
C 	C 	0.67790 0.06089 0.91041 -0.18200
C 	C 	0.66284 0.10329 0.87594 0.12600
C 	C 	0.76834 0.04525 0.96623 0.00700
C 	C 	0.83925 0.04555 0.96686 -0.08600
C 	C 	0.78367 0.49270 0.81940 0.51800
C 	C 	0.82703 0.55059 0.85813 -0.22700
C 	C 	0.79790 0.59675 0.87744 0.13200
C 	C 	0.83805 0.65142 0.91249 -0.19000
C 	C 	0.90876 0.66227 0.92978 0.10200
C 	C 	0.93911 0.61701 0.91041 -0.18300
C 	C 	0.89671 0.55955 0.87594 0.12800
C 	C 	0.95475 0.72309 0.96623 0.00500
C 	C 	0.95445 0.79370 0.96686 -0.09000
C 	C 	0.00000 0.71007 0.50000 -0.07800
C 	C 	-0.00000 0.85303 0.50000 0.02600
C 	C 	-0.00000 0.92933 0.50000 0.04800
C 	C 	0.71007 -0.00000 0.50000 -0.09100
C 	C 	0.85303 -0.00000 0.50000 0.01200
C 	C 	0.92933 -0.00000 0.50000 0.04700
C 	C 	0.28993 0.28993 0.50000 -0.08000
C 	C 	0.14697 0.14697 0.50000 0.02500
C 	C 	0.07067 0.07067 0.50000 0.04100
C 	C 	0.00000 0.71007 -0.00000 -0.07800
C 	C 	-0.00000 0.85303 -0.00000 0.02600
C 	C 	-0.00000 0.92933 -0.00000 0.04800
C 	C 	0.71007 0.00000 -0.00000 -0.09100
C 	C 	0.85303 0.00000 -0.00000 0.01200
C 	C 	0.92933 0.00000 -0.00000 0.04700
C 	C 	0.28993 0.28993 -0.00000 -0.08000
C 	C 	0.14697 0.14697 -0.00000 0.02400
C 	C 	0.07067 0.07067 -0.00000 0.04100
C 	C 	0.92966 0.92966 0.50000 -0.11500
C 	C 	0.00000 0.07034 0.50000 -0.12100
C 	C 	0.07034 1.00000 0.50000 -0.09700
C 	C 	0.92966 0.92966 -0.00000 -0.11500
C 	C 	0.00000 0.07034 -0.00000 -0.12100
C 	C 	0.07034 1.00000 -0.00000 -0.09700
O 	O 	0.27891 0.76714 0.30470 -0.61600
O 	O 	0.18579 0.63933 0.30459 -0.61600
O 	O 	0.48823 0.72109 0.30470 -0.61600
O 	O 	0.45354 0.81421 0.30459 -0.61500
O 	O 	0.23286 0.51177 0.30470 -0.61700
O 	O 	0.36067 0.54646 0.30459 -0.61600
O 	O 	0.27891 0.76714 0.19530 -0.61600
O 	O 	0.18579 0.63933 0.19541 -0.61600
O 	O 	0.48823 0.72109 0.19530 -0.61600
O 	O 	0.45354 0.81421 0.19541 -0.61500
O 	O 	0.23286 0.51177 0.19530 -0.61700
O 	O 	0.36067 0.54646 0.19541 -0.61600
O 	O 	0.51177 0.23286 0.69530 -0.61700
O 	O 	0.54646 0.36067 0.69541 -0.61500
O 	O 	0.76714 0.27891 0.69530 -0.61700
O 	O 	0.63933 0.18579 0.69541 -0.61600
O 	O 	0.72109 0.48823 0.69530 -0.61600
O 	O 	0.81421 0.45354 0.69541 -0.61600
O 	O 	0.51177 0.23286 0.80470 -0.61700
O 	O 	0.54646 0.36067 0.80459 -0.61500
O 	O 	0.76714 0.27891 0.80470 -0.61700
O 	O 	0.63933 0.18579 0.80459 -0.61600
O 	O 	0.72109 0.48823 0.80470 -0.61600
O 	O 	0.81421 0.45354 0.80459 -0.61600
O 	O 	0.33333 0.66666 0.25000 -1.04500
O 	O 	0.66667 0.33334 0.75000 -1.04500
