data_crystal

_cell_length_a 10.01960
_cell_length_b 13.56340
_cell_length_c 17.58110
_cell_angle_alpha 71.96800
_cell_angle_beta  83.62500
_cell_angle_gamma 78.83300

_symmetry_space_group_name_	'P 1'
_symmetry_space_group_name_H-M	'P 1'

loop_
_symmetry_equiv_pos_as_xyz
  x,y,z

loop_
_atom_site_label
_atom_site_type_symbol
_atom_site_fract_x
_atom_site_fract_y
_atom_site_fract_z
_atom_site_charge
Co	Co	0.80028 0.50820 0.57022 1.17800
Co	Co	0.19972 0.49180 0.42978 1.17400
Co	Co	-0.00000 0.50000 -0.00000 1.08900
H 	H 	0.34810 0.48760 0.57450 0.02500
H 	H 	0.06820 0.49240 0.75510 0.03000
H 	H 	0.45500 0.51440 0.77920 0.04600
H 	H 	0.60760 0.35910 0.55970 0.00800
H 	H 	0.61090 0.19540 0.54880 0.09100
H 	H 	0.01490 0.14540 0.55260 0.06500
H 	H 	0.00100 0.31060 0.56300 -0.03100
H 	H 	0.85490 0.03950 0.49050 0.06000
H 	H 	0.89270 0.99280 0.58010 0.05500
H 	H 	0.62670 0.03370 0.52650 0.10300
H 	H 	0.65560 0.99920 0.61780 0.10000
H 	H 	0.85930 0.64790 0.66880 -0.00300
H 	H 	0.81000 0.81900 0.67200 0.11200
H 	H 	0.64060 0.89900 0.46240 0.10100
H 	H 	0.68910 0.72590 0.46570 -0.01500
H 	H 	0.17050 0.67740 0.93630 -0.00300
H 	H 	0.15990 0.85180 0.92190 0.10300
H 	H 	0.79050 0.86010 0.02970 0.09800
H 	H 	0.80770 0.68610 0.04200 -0.01200
H 	H 	0.87350 0.02400 0.97480 0.05400
H 	H 	0.00780 0.02640 0.92010 0.02700
H 	H 	0.65190 0.51240 0.42550 0.01900
H 	H 	0.93180 0.50760 0.24490 0.03200
H 	H 	0.54500 0.48560 0.22080 0.03400
H 	H 	0.39240 0.64090 0.44030 -0.00200
H 	H 	0.38910 0.80460 0.45120 0.10800
H 	H 	0.98510 0.85460 0.44740 0.13200
H 	H 	0.99900 0.68940 0.43700 0.01200
H 	H 	0.14510 0.96050 0.50950 0.09000
H 	H 	0.10730 0.00720 0.41990 0.09500
H 	H 	0.37330 0.96630 0.47350 0.04900
H 	H 	0.34440 0.00080 0.38220 0.05900
H 	H 	0.14070 0.35210 0.33120 -0.00800
H 	H 	0.19000 0.18100 0.32800 0.08800
H 	H 	0.35940 0.10100 0.53760 0.09100
H 	H 	0.31090 0.27410 0.53430 -0.00700
H 	H 	0.82950 0.32260 0.06370 -0.01700
H 	H 	0.84010 0.14820 0.07810 0.08900
H 	H 	0.20950 0.13990 0.97030 0.09800
H 	H 	0.19230 0.31390 0.95800 -0.01600
H 	H 	0.12650 0.97600 0.02520 0.09300
H 	H 	0.99220 0.97360 0.07990 0.12400
C 	C 	0.42310 0.50410 0.67091 -0.10300
C 	C 	0.32500 0.49163 0.62628 0.05600
C 	C 	0.19320 0.48515 0.65806 -0.13700
C 	C 	0.15760 0.49389 0.73444 0.05900
C 	C 	0.25590 0.50490 0.78058 -0.11400
C 	C 	0.38880 0.50870 0.74843 0.04500
C 	C 	0.56470 0.50973 0.63488 0.30600
C 	C 	0.21860 0.51160 0.86421 0.34000
C 	C 	0.69120 0.31530 0.55878 0.09800
C 	C 	0.69250 0.21640 0.55230 -0.16700
C 	C 	0.81380 0.14840 0.55091 0.11100
C 	C 	0.92990 0.18710 0.55440 -0.14200
C 	C 	0.92080 0.28700 0.56073 0.12900
C 	C 	0.82380 0.03910 0.54480 -0.09700
C 	C 	0.69300 0.99370 0.56570 -0.25000
C 	C 	0.81310 0.69880 0.62717 0.12700
C 	C 	0.78490 0.80190 0.62890 -0.22200
C 	C 	0.71930 0.87950 0.56700 0.18500
C 	C 	0.68430 0.84930 0.50560 -0.23300
C 	C 	0.71410 0.74470 0.50804 0.13000
C 	C 	0.09270 0.71370 0.95590 0.09700
C 	C 	0.08760 0.81860 0.94800 -0.20800
C 	C 	0.87020 0.82440 0.01140 -0.24300
C 	C 	0.88080 0.71970 0.01760 0.07800
C 	C 	0.97530 0.87530 0.97880 0.17800
C 	C 	0.96840 0.99170 0.97210 0.00500
C 	C 	0.08960 0.46901 0.60888 0.37100
C 	C 	0.57690 0.49590 0.32909 -0.11800
C 	C 	0.67500 0.50837 0.37372 0.07300
C 	C 	0.80680 0.51485 0.34194 -0.16000
C 	C 	0.84240 0.50611 0.26556 0.07800
C 	C 	0.74410 0.49510 0.21942 -0.12800
C 	C 	0.61120 0.49130 0.25157 0.05700
C 	C 	0.43530 0.49027 0.36512 0.31200
C 	C 	0.78140 0.48840 0.13579 0.34800
C 	C 	0.30880 0.68470 0.44122 0.12100
C 	C 	0.30750 0.78360 0.44770 -0.21800
C 	C 	0.18620 0.85160 0.44909 0.18500
C 	C 	0.07010 0.81290 0.44560 -0.25500
C 	C 	0.07920 0.71300 0.43927 0.09100
C 	C 	0.17620 0.96090 0.45520 -0.24300
C 	C 	0.30700 0.00630 0.43430 -0.11000
C 	C 	0.18690 0.30120 0.37283 0.10200
C 	C 	0.21510 0.19810 0.37110 -0.18700
C 	C 	0.28070 0.12050 0.43300 0.12500
C 	C 	0.31570 0.15070 0.49440 -0.19200
C 	C 	0.28590 0.25530 0.49196 0.10700
C 	C 	0.90730 0.28630 0.04410 0.11800
C 	C 	0.91240 0.18140 0.05200 -0.17400
C 	C 	0.12980 0.17560 0.98860 -0.15600
C 	C 	0.11920 0.28030 0.98240 0.13600
C 	C 	0.02470 0.12470 0.02120 0.10200
C 	C 	0.03160 0.00830 0.02790 -0.31900
C 	C 	0.91040 0.53099 0.39112 0.43700
N 	N 	0.80356 0.35154 0.56379 -0.23800
N 	N 	0.77649 0.66954 0.56771 -0.23900
N 	N 	0.99090 0.66226 0.99031 -0.20900
N 	N 	0.19644 0.64846 0.43621 -0.24200
N 	N 	0.22351 0.33046 0.43229 -0.23300
N 	N 	0.00910 0.33774 0.00969 -0.29600
O 	O 	0.66403 0.48087 0.67975 -0.35300
O 	O 	0.58339 0.54037 0.56035 -0.37600
O 	O 	0.09486 0.52133 0.88627 -0.42600
O 	O 	0.31501 0.50250 0.90808 -0.26900
O 	O 	0.96761 0.47614 0.63542 -0.40600
O 	O 	0.13217 0.44611 0.54578 -0.46000
O 	O 	0.33597 0.51913 0.32025 -0.36500
O 	O 	0.41661 0.45963 0.43965 -0.37800
O 	O 	0.90514 0.47867 0.11373 -0.43300
O 	O 	0.68499 0.49750 0.09192 -0.29300
O 	O 	0.03239 0.52386 0.36458 -0.46500
O 	O 	0.86783 0.55389 0.45422 -0.46800
