data_crystal

_cell_length_a 20.09620
_cell_length_b 20.09620
_cell_length_c 26.91450
_cell_angle_alpha 90.00000
_cell_angle_beta  90.00000
_cell_angle_gamma 120.00000

_symmetry_space_group_name_	'P 1'
_symmetry_space_group_name_H-M	'P 1'

loop_
_symmetry_equiv_pos_as_xyz
  x,y,z

loop_
_atom_site_label
_atom_site_type_symbol
_atom_site_fract_x
_atom_site_fract_y
_atom_site_fract_z
_atom_site_charge
Mn	Mn	0.36722 0.78335 0.25000 1.29600
Mn	Mn	0.41613 0.63277 0.25000 1.29700
Mn	Mn	0.21664 0.58386 0.25000 1.29700
Mn	Mn	0.58387 0.21665 0.75000 1.29700
Mn	Mn	0.78336 0.36723 0.75000 1.29700
Mn	Mn	0.63278 0.41614 0.75000 1.29700
H 	H 	0.25090 0.84280 0.36700 0.01600
H 	H 	0.18100 0.86830 0.42320 0.07400
H 	H 	0.01610 0.64700 0.42000 0.07200
H 	H 	0.08580 0.62300 0.36070 0.01900
H 	H 	0.07730 0.88320 0.44460 0.06700
H 	H 	0.59190 0.74910 0.36700 0.01600
H 	H 	0.68730 0.81900 0.42320 0.07400
H 	H 	0.63090 0.98390 0.42000 0.07200
H 	H 	0.53720 0.91420 0.36070 0.01900
H 	H 	0.80590 0.92270 0.44460 0.06700
H 	H 	0.15720 0.40810 0.36700 0.01600
H 	H 	0.13170 0.31270 0.42320 0.07400
H 	H 	0.35300 0.36910 0.42000 0.07200
H 	H 	0.37700 0.46280 0.36070 0.01900
H 	H 	0.11680 0.19410 0.44460 0.06700
H 	H 	0.25090 0.84280 0.13300 0.01600
H 	H 	0.18100 0.86830 0.07680 0.07400
H 	H 	0.01610 0.64700 0.08000 0.07200
H 	H 	0.08580 0.62300 0.13930 0.01900
H 	H 	0.07730 0.88320 0.05540 0.06700
H 	H 	0.59190 0.74910 0.13300 0.01600
H 	H 	0.68730 0.81900 0.07680 0.07400
H 	H 	0.63090 0.98390 0.08000 0.07200
H 	H 	0.53720 0.91420 0.13930 0.01900
H 	H 	0.80590 0.92270 0.05540 0.06700
H 	H 	0.15720 0.40810 0.13300 0.01600
H 	H 	0.13170 0.31270 0.07680 0.07400
H 	H 	0.35300 0.36910 0.08000 0.07200
H 	H 	0.37700 0.46280 0.13930 0.01900
H 	H 	0.11680 0.19410 0.05540 0.06700
H 	H 	0.40810 0.15720 0.63300 0.01600
H 	H 	0.31270 0.13170 0.57680 0.07400
H 	H 	0.36910 0.35300 0.58000 0.07200
H 	H 	0.46280 0.37700 0.63930 0.01900
H 	H 	0.19410 0.11680 0.55540 0.06700
H 	H 	0.84280 0.25090 0.63300 0.01600
H 	H 	0.86830 0.18100 0.57680 0.07400
H 	H 	0.64700 0.01610 0.58000 0.07200
H 	H 	0.62300 0.08580 0.63930 0.01900
H 	H 	0.88320 0.07730 0.55540 0.06700
H 	H 	0.74910 0.59190 0.63300 0.01600
H 	H 	0.81900 0.68730 0.57680 0.07400
H 	H 	0.98390 0.63090 0.58000 0.07200
H 	H 	0.91420 0.53720 0.63930 0.01900
H 	H 	0.92270 0.80590 0.55540 0.06700
H 	H 	0.40810 0.15720 0.86700 0.01600
H 	H 	0.31270 0.13170 0.92320 0.07400
H 	H 	0.36910 0.35300 0.92000 0.07200
H 	H 	0.46280 0.37700 0.86070 0.01900
H 	H 	0.19410 0.11680 0.94460 0.06700
H 	H 	0.84280 0.25090 0.86700 0.01600
H 	H 	0.86830 0.18100 0.92320 0.07400
H 	H 	0.64700 0.01610 0.92000 0.07200
H 	H 	0.62300 0.08580 0.86070 0.01900
H 	H 	0.88320 0.07730 0.94460 0.06700
H 	H 	0.74910 0.59190 0.86700 0.01600
H 	H 	0.81900 0.68730 0.92320 0.07400
H 	H 	0.98390 0.63090 0.92000 0.07200
H 	H 	0.91420 0.53720 0.86070 0.01900
H 	H 	0.92270 0.80590 0.94460 0.06700
H 	H 	0.00000 0.67240 0.50000 0.06600
H 	H 	0.67240 -0.00000 0.50000 0.06600
H 	H 	0.32760 0.32760 0.50000 0.06600
H 	H 	-0.00000 0.67240 -0.00000 0.06600
H 	H 	0.67240 0.00000 -0.00000 0.06600
H 	H 	0.32760 0.32760 -0.00000 0.06500
H 	H 	0.88470 0.88470 0.50000 0.06700
H 	H 	0.00000 0.11530 0.50000 0.06800
H 	H 	0.11530 -0.00000 0.50000 0.06800
H 	H 	0.88470 0.88470 -0.00000 0.06700
H 	H 	0.00000 0.11530 -0.00000 0.06800
H 	H 	0.11530 0.00000 -0.00000 0.06800
C 	C 	0.22215 0.71372 0.32012 0.42300
C 	C 	0.17755 0.73110 0.35844 -0.14400
C 	C 	0.20345 0.80288 0.37747 0.06800
C 	C 	0.16178 0.81840 0.41164 -0.13200
C 	C 	0.09198 0.76072 0.42874 0.05600
C 	C 	0.06341 0.68666 0.40930 -0.12400
C 	C 	0.10561 0.67205 0.37395 0.05700
C 	C 	0.04501 0.77452 0.46567 0.03600
C 	C 	0.04585 0.84437 0.46657 -0.10800
C 	C 	0.49157 0.77785 0.32012 0.42300
C 	C 	0.55355 0.82245 0.35844 -0.14400
C 	C 	0.59943 0.79655 0.37747 0.06800
C 	C 	0.65662 0.83822 0.41164 -0.13200
C 	C 	0.66874 0.90802 0.42874 0.05600
C 	C 	0.62325 0.93659 0.40930 -0.12400
C 	C 	0.56644 0.89439 0.37395 0.05700
C 	C 	0.72951 0.95499 0.46567 0.03600
C 	C 	0.79852 0.95415 0.46657 -0.10800
C 	C 	0.28628 0.50843 0.32012 0.42400
C 	C 	0.26890 0.44645 0.35844 -0.14400
C 	C 	0.19712 0.40057 0.37747 0.06800
C 	C 	0.18160 0.34338 0.41164 -0.13200
C 	C 	0.23928 0.33126 0.42874 0.05600
C 	C 	0.31334 0.37675 0.40930 -0.12400
C 	C 	0.32795 0.43356 0.37395 0.05700
C 	C 	0.22548 0.27049 0.46567 0.03600
C 	C 	0.15563 0.20148 0.46657 -0.10800
C 	C 	0.22215 0.71372 0.17988 0.42300
C 	C 	0.17755 0.73110 0.14156 -0.14400
C 	C 	0.20345 0.80288 0.12253 0.06800
C 	C 	0.16178 0.81840 0.08836 -0.13200
C 	C 	0.09198 0.76072 0.07126 0.05600
C 	C 	0.06341 0.68666 0.09070 -0.12400
C 	C 	0.10561 0.67205 0.12605 0.05700
C 	C 	0.04501 0.77452 0.03433 0.03600
C 	C 	0.04585 0.84437 0.03343 -0.10800
C 	C 	0.49157 0.77785 0.17988 0.42300
C 	C 	0.55355 0.82245 0.14156 -0.14400
C 	C 	0.59943 0.79655 0.12253 0.06800
C 	C 	0.65662 0.83822 0.08836 -0.13200
C 	C 	0.66874 0.90802 0.07126 0.05600
C 	C 	0.62325 0.93659 0.09070 -0.12400
C 	C 	0.56644 0.89439 0.12605 0.05700
C 	C 	0.72951 0.95499 0.03433 0.03600
C 	C 	0.79852 0.95415 0.03343 -0.10800
C 	C 	0.28628 0.50843 0.17988 0.42400
C 	C 	0.26890 0.44645 0.14156 -0.14400
C 	C 	0.19712 0.40057 0.12253 0.06800
C 	C 	0.18160 0.34338 0.08836 -0.13200
C 	C 	0.23928 0.33126 0.07126 0.05600
C 	C 	0.31334 0.37675 0.09070 -0.12400
C 	C 	0.32795 0.43356 0.12605 0.05700
C 	C 	0.22548 0.27049 0.03433 0.03600
C 	C 	0.15563 0.20148 0.03343 -0.10800
C 	C 	0.50843 0.28628 0.67988 0.42400
C 	C 	0.44645 0.26890 0.64156 -0.14400
C 	C 	0.40057 0.19712 0.62253 0.06800
C 	C 	0.34338 0.18160 0.58836 -0.13200
C 	C 	0.33126 0.23928 0.57126 0.05600
C 	C 	0.37675 0.31334 0.59070 -0.12400
C 	C 	0.43356 0.32795 0.62605 0.05700
C 	C 	0.27049 0.22548 0.53433 0.03600
C 	C 	0.20148 0.15563 0.53343 -0.10800
C 	C 	0.71372 0.22215 0.67988 0.42300
C 	C 	0.73110 0.17755 0.64156 -0.14400
C 	C 	0.80288 0.20345 0.62253 0.06800
C 	C 	0.81840 0.16178 0.58836 -0.13200
C 	C 	0.76072 0.09198 0.57126 0.05600
C 	C 	0.68666 0.06341 0.59070 -0.12400
C 	C 	0.67205 0.10561 0.62605 0.05700
C 	C 	0.77452 0.04501 0.53433 0.03600
C 	C 	0.84437 0.04585 0.53343 -0.10800
C 	C 	0.77785 0.49157 0.67988 0.42400
C 	C 	0.82245 0.55355 0.64156 -0.14400
C 	C 	0.79655 0.59943 0.62253 0.06800
C 	C 	0.83822 0.65662 0.58836 -0.13200
C 	C 	0.90802 0.66874 0.57126 0.05600
C 	C 	0.93659 0.62325 0.59070 -0.12400
C 	C 	0.89439 0.56644 0.62605 0.05700
C 	C 	0.95499 0.72951 0.53433 0.03600
C 	C 	0.95415 0.79852 0.53343 -0.10800
C 	C 	0.50843 0.28628 0.82012 0.42400
C 	C 	0.44645 0.26890 0.85844 -0.14400
C 	C 	0.40057 0.19712 0.87747 0.06800
C 	C 	0.34338 0.18160 0.91164 -0.13200
C 	C 	0.33126 0.23928 0.92874 0.05600
C 	C 	0.37675 0.31334 0.90930 -0.12400
C 	C 	0.43356 0.32795 0.87395 0.05700
C 	C 	0.27049 0.22548 0.96567 0.03600
C 	C 	0.20148 0.15563 0.96657 -0.10800
C 	C 	0.71372 0.22215 0.82012 0.42300
C 	C 	0.73110 0.17755 0.85844 -0.14400
C 	C 	0.80288 0.20345 0.87747 0.06800
C 	C 	0.81840 0.16178 0.91164 -0.13200
C 	C 	0.76072 0.09198 0.92874 0.05600
C 	C 	0.68666 0.06341 0.90930 -0.12400
C 	C 	0.67205 0.10561 0.87395 0.05700
C 	C 	0.77452 0.04501 0.96567 0.03600
C 	C 	0.84437 0.04585 0.96657 -0.10800
C 	C 	0.77785 0.49157 0.82012 0.42400
C 	C 	0.82245 0.55355 0.85844 -0.14400
C 	C 	0.79655 0.59943 0.87747 0.06800
C 	C 	0.83822 0.65662 0.91164 -0.13200
C 	C 	0.90802 0.66874 0.92874 0.05600
C 	C 	0.93659 0.62325 0.90930 -0.12400
C 	C 	0.89439 0.56644 0.87395 0.05700
C 	C 	0.95499 0.72951 0.96567 0.03600
C 	C 	0.95415 0.79852 0.96657 -0.10800
C 	C 	0.00000 0.71868 0.50000 -0.10600
C 	C 	-0.00000 0.85655 0.50000 0.04000
C 	C 	-0.00000 0.92988 0.50000 0.03900
C 	C 	0.71868 -0.00000 0.50000 -0.10600
C 	C 	0.85655 -0.00000 0.50000 0.04000
C 	C 	0.92988 -0.00000 0.50000 0.03900
C 	C 	0.28132 0.28132 0.50000 -0.10600
C 	C 	0.14345 0.14345 0.50000 0.04000
C 	C 	0.07012 0.07012 0.50000 0.04000
C 	C 	-0.00000 0.71868 -0.00000 -0.10600
C 	C 	-0.00000 0.85655 -0.00000 0.04000
C 	C 	-0.00000 0.92988 -0.00000 0.03900
C 	C 	0.71868 0.00000 -0.00000 -0.10600
C 	C 	0.85655 0.00000 -0.00000 0.04000
C 	C 	0.92988 0.00000 -0.00000 0.03900
C 	C 	0.28132 0.28132 -0.00000 -0.10600
C 	C 	0.14345 0.14345 -0.00000 0.04000
C 	C 	0.07012 0.07012 -0.00000 0.04000
C 	C 	0.93102 0.93102 0.50000 -0.10800
C 	C 	-0.00000 0.06898 0.50000 -0.10800
C 	C 	0.06898 -0.00000 0.50000 -0.10800
C 	C 	0.93102 0.93102 -0.00000 -0.10800
C 	C 	0.00000 0.06898 -0.00000 -0.10800
C 	C 	0.06898 0.00000 -0.00000 -0.10800
O 	O 	0.28417 0.76914 0.30650 -0.46000
O 	O 	0.19321 0.64573 0.30645 -0.46300
O 	O 	0.48497 0.71583 0.30650 -0.46000
O 	O 	0.45252 0.80679 0.30645 -0.46300
O 	O 	0.23086 0.51503 0.30650 -0.46000
O 	O 	0.35427 0.54748 0.30645 -0.46300
O 	O 	0.28417 0.76914 0.19350 -0.46000
O 	O 	0.19321 0.64573 0.19355 -0.46300
O 	O 	0.48497 0.71583 0.19350 -0.46000
O 	O 	0.45252 0.80679 0.19355 -0.46300
O 	O 	0.23086 0.51503 0.19350 -0.46000
O 	O 	0.35427 0.54748 0.19355 -0.46300
O 	O 	0.51503 0.23086 0.69350 -0.46000
O 	O 	0.54748 0.35427 0.69355 -0.46300
O 	O 	0.76914 0.28417 0.69350 -0.46000
O 	O 	0.64573 0.19321 0.69355 -0.46300
O 	O 	0.71583 0.48497 0.69350 -0.46000
O 	O 	0.80679 0.45252 0.69355 -0.46300
O 	O 	0.51503 0.23086 0.80650 -0.46000
O 	O 	0.54748 0.35427 0.80645 -0.46300
O 	O 	0.76914 0.28417 0.80650 -0.46000
O 	O 	0.64573 0.19321 0.80645 -0.46300
O 	O 	0.71583 0.48497 0.80650 -0.46000
O 	O 	0.80679 0.45252 0.80645 -0.46300
O 	O 	0.33333 0.66666 0.25000 -0.63200
O 	O 	0.66667 0.33334 0.75000 -0.63200
