data_crystal

_cell_length_a 4.76110
_cell_length_b 17.66650
_cell_length_c 17.66650
_cell_angle_alpha 88.95960
_cell_angle_beta  82.25590
_cell_angle_gamma 82.25580

_symmetry_space_group_name_	'P 1'
_symmetry_space_group_name_H-M	'P 1'

loop_
_symmetry_equiv_pos_as_xyz
  x,y,z

loop_
_atom_site_label
_atom_site_type_symbol
_atom_site_fract_x
_atom_site_fract_y
_atom_site_fract_z
_atom_site_charge
Cu	Cu	0.97273 0.96421 0.73265 0.88100
Cu	Cu	0.16959 0.53579 0.76735 0.88100
Cu	Cu	0.70539 0.26734 0.46421 0.88100
Cu	Cu	0.93693 0.23266 0.03579 0.88000
Cu	Cu	0.02727 0.03579 0.26735 0.88100
Cu	Cu	0.83041 0.46421 0.23265 0.88100
Cu	Cu	0.29461 0.73266 0.53579 0.88000
Cu	Cu	0.06307 0.76734 0.96421 0.87900
H 	H 	0.35300 0.06300 0.92860 0.07100
H 	H 	0.80160 0.04700 0.02660 0.08600
H 	H 	0.84460 0.43700 0.57140 0.07100
H 	H 	0.37520 0.45300 0.47340 0.08600
H 	H 	0.28160 0.07140 0.56300 0.07100
H 	H 	0.82820 0.97340 0.54700 0.08600
H 	H 	0.41600 0.42860 0.93700 0.07100
H 	H 	0.84860 0.52660 0.95300 0.08600
H 	H 	0.64700 0.93700 0.07140 0.07100
H 	H 	0.19840 0.95300 0.97340 0.08600
H 	H 	0.15540 0.56300 0.42860 0.07100
H 	H 	0.62480 0.54700 0.52660 0.08600
H 	H 	0.71840 0.92860 0.43700 0.07100
H 	H 	0.17180 0.02660 0.45300 0.08600
H 	H 	0.58400 0.57140 0.06300 0.07100
H 	H 	0.15140 0.47340 0.04700 0.08600
C 	C 	0.74303 0.01888 0.87506 0.31100
C 	C 	0.51710 0.02544 0.94356 -0.06700
C 	C 	0.59950 0.04817 0.02183 -0.11700
C 	C 	0.43975 0.12333 0.05317 0.34500
C 	C 	0.13697 0.48112 0.62494 0.31000
C 	C 	0.98610 0.47456 0.55644 -0.06700
C 	C 	0.16950 0.45183 0.47817 -0.11700
C 	C 	0.11625 0.37667 0.44683 0.34600
C 	C 	0.61809 0.12494 0.51888 0.31000
C 	C 	0.46066 0.05644 0.52544 -0.06700
C 	C 	0.62133 0.97817 0.54817 -0.11700
C 	C 	0.49292 0.94683 0.62333 0.34600
C 	C 	0.76191 0.37506 0.98112 0.31100
C 	C 	0.54254 0.44356 0.97456 -0.06700
C 	C 	0.64767 0.52183 0.95183 -0.11700
C 	C 	0.56308 0.55317 0.87667 0.34600
C 	C 	0.25697 0.98112 0.12494 0.31100
C 	C 	0.48290 0.97456 0.05644 -0.06700
C 	C 	0.40050 0.95183 0.97817 -0.11700
C 	C 	0.56025 0.87667 0.94683 0.34500
C 	C 	0.86303 0.51888 0.37506 0.31000
C 	C 	0.01390 0.52544 0.44356 -0.06700
C 	C 	0.83050 0.54817 0.52183 -0.11700
C 	C 	0.88375 0.62333 0.55317 0.34600
C 	C 	0.38191 0.87506 0.48112 0.31000
C 	C 	0.53934 0.94356 0.47456 -0.06700
C 	C 	0.37867 0.02183 0.45183 -0.11700
C 	C 	0.50708 0.05317 0.37667 0.34600
C 	C 	0.23809 0.62494 0.01888 0.31100
C 	C 	0.45746 0.55644 0.02544 -0.06700
C 	C 	0.35233 0.47817 0.04817 -0.11700
C 	C 	0.43692 0.44683 0.12333 0.34600
O 	O 	0.93080 0.06256 0.86784 -0.31100
O 	O 	0.71480 0.96983 0.82557 -0.41200
O 	O 	0.55597 0.16572 0.09274 -0.36500
O 	O 	0.18874 0.13859 0.03533 -0.42000
O 	O 	0.36120 0.43744 0.63216 -0.31100
O 	O 	0.01020 0.53017 0.67443 -0.41300
O 	O 	0.31443 0.33428 0.40726 -0.36500
O 	O 	0.86266 0.36141 0.46467 -0.42300
O 	O 	0.79864 0.13216 0.56256 -0.31000
O 	O 	0.54037 0.17443 0.46983 -0.41200
O 	O 	0.64871 0.90726 0.66572 -0.36500
O 	O 	0.22407 0.96467 0.63859 -0.42100
O 	O 	0.99336 0.36784 0.93744 -0.31100
O 	O 	0.68463 0.32557 0.03017 -0.41300
O 	O 	0.72169 0.59274 0.83428 -0.36400
O 	O 	0.32733 0.53533 0.86141 -0.42300
O 	O 	0.06920 0.93744 0.13216 -0.31100
O 	O 	0.28520 0.03017 0.17443 -0.41200
O 	O 	0.44403 0.83428 0.90726 -0.36500
O 	O 	0.81126 0.86141 0.96467 -0.42000
O 	O 	0.63880 0.56256 0.36784 -0.31100
O 	O 	0.98980 0.46983 0.32557 -0.41300
O 	O 	0.68557 0.66572 0.59274 -0.36500
O 	O 	0.13734 0.63859 0.53533 -0.42300
O 	O 	0.20136 0.86784 0.43744 -0.31000
O 	O 	0.45963 0.82557 0.53017 -0.41200
O 	O 	0.35129 0.09274 0.33428 -0.36500
O 	O 	0.77593 0.03533 0.36141 -0.42100
O 	O 	0.00664 0.63216 0.06256 -0.31100
O 	O 	0.31537 0.67443 0.96983 -0.41300
O 	O 	0.27831 0.40726 0.16572 -0.36400
O 	O 	0.67267 0.46467 0.13859 -0.42300
