data_crystal

_cell_length_a 9.86180
_cell_length_b 11.70500
_cell_length_c 17.55770
_cell_angle_alpha 78.36600
_cell_angle_beta  84.12000
_cell_angle_gamma 84.76900

_symmetry_space_group_name_	'P 1'
_symmetry_space_group_name_H-M	'P 1'

loop_
_symmetry_equiv_pos_as_xyz
  x,y,z

loop_
_atom_site_label
_atom_site_type_symbol
_atom_site_fract_x
_atom_site_fract_y
_atom_site_fract_z
_atom_site_charge
Ag	Ag	0.43070 0.11595 0.93473 0.48900
Ag	Ag	0.24097 0.09975 0.52075 0.54300
S 	S 	0.82942 0.92743 0.93279 -0.06900
S 	S 	0.92174 0.15501 0.92474 -0.02100
S 	S 	0.65656 0.09632 0.01522 -0.18700
S 	S 	0.18892 0.10378 0.82984 -0.08300
S 	S 	0.07723 0.83781 0.84374 -0.01000
S 	S 	0.56559 0.39424 0.84337 -0.06300
S 	S 	0.40018 0.56344 0.91645 -0.00500
S 	S 	0.32999 0.31487 0.95657 -0.11900
S 	S 	0.57273 0.76378 0.84528 -0.04400
S 	S 	0.76301 0.56997 0.75576 -0.03400
N 	N 	0.11910 0.19390 0.61450 -0.21500
N 	N 	0.87520 0.92200 0.57690 -0.22300
N 	N 	0.35660 0.95110 0.59020 -0.23300
N 	N 	0.66760 0.72570 0.54260 -0.21300
C 	C 	0.79550 0.06050 0.95860 0.00400
C 	C 	0.02910 0.06260 0.87480 -0.00100
C 	C 	0.98540 0.95420 0.87890 0.00300
C 	C 	0.15640 0.25970 0.79480 0.00200
C 	C 	0.05190 0.29130 0.73450 -0.32500
C 	C 	0.08970 0.23840 0.66640 0.14900
C 	C 	0.97820 0.82900 0.76350 -0.05400
C 	C 	0.01070 0.92720 0.69520 -0.29300
C 	C 	0.93400 0.92420 0.62860 0.13200
C 	C 	0.42720 0.42000 0.90660 0.00900
C 	C 	0.53630 0.61750 0.85190 -0.00500
C 	C 	0.61310 0.53820 0.81650 0.00300
C 	C 	0.45660 0.83980 0.77470 0.00300
C 	C 	0.50990 0.82560 0.69220 -0.36200
C 	C 	0.42280 0.89430 0.63410 0.15000
C 	C 	0.75730 0.48090 0.68250 -0.01900
C 	C 	0.64420 0.51830 0.62760 -0.30600
C 	C 	0.65830 0.63490 0.57950 0.13900
H 	H 	0.24800 0.28700 0.77200 0.01400
H 	H 	0.12800 0.29700 0.83800 0.02700
H 	H 	0.04400 0.37100 0.71800 0.13000
H 	H 	0.96500 0.26700 0.75600 0.12800
H 	H 	0.88300 0.83300 0.78000 0.04800
H 	H 	0.00400 0.75700 0.75300 0.04800
H 	H 	0.10100 0.92200 0.68000 0.12100
H 	H 	0.99200 0.00100 0.71000 0.11600
H 	H 	0.45600 0.92100 0.78000 0.01500
H 	H 	0.37100 0.81000 0.79000 0.03200
H 	H 	0.51100 0.74700 0.68900 0.14600
H 	H 	0.59400 0.85300 0.67900 0.14500
H 	H 	0.75000 0.39300 0.70700 0.02200
H 	H 	0.83800 0.49000 0.65200 0.02900
H 	H 	0.55900 0.51900 0.65500 0.12300
H 	H 	0.64900 0.46600 0.59300 0.11400
Ag	Ag	0.56930 0.88405 0.06527 0.48900
Ag	Ag	0.75903 0.90025 0.47925 0.54300
S 	S 	0.17058 0.07257 0.06721 -0.06900
S 	S 	0.07826 0.84499 0.07526 -0.02100
S 	S 	0.34344 0.90368 0.98478 -0.18700
S 	S 	0.81108 0.89622 0.17016 -0.08300
S 	S 	0.92277 0.16219 0.15626 -0.01000
S 	S 	0.43441 0.60576 0.15663 -0.06300
S 	S 	0.59982 0.43656 0.08355 -0.00500
S 	S 	0.67001 0.68513 0.04343 -0.11900
S 	S 	0.42727 0.23622 0.15472 -0.04400
S 	S 	0.23699 0.43003 0.24424 -0.03400
N 	N 	0.88090 0.80610 0.38550 -0.21500
N 	N 	0.12480 0.07800 0.42310 -0.22300
N 	N 	0.64340 0.04890 0.40980 -0.23300
N 	N 	0.33240 0.27430 0.45740 -0.21300
C 	C 	0.20450 0.93950 0.04140 0.00400
C 	C 	0.97090 0.93740 0.12520 -0.00100
C 	C 	0.01460 0.04580 0.12110 0.00300
C 	C 	0.84360 0.74030 0.20520 0.00200
C 	C 	0.94810 0.70870 0.26550 -0.32500
C 	C 	0.91030 0.76160 0.33360 0.14900
C 	C 	0.02180 0.17100 0.23650 -0.05400
C 	C 	0.98930 0.07280 0.30480 -0.29300
C 	C 	0.06600 0.07580 0.37140 0.13200
C 	C 	0.57280 0.58000 0.09340 0.00900
C 	C 	0.46370 0.38250 0.14810 -0.00500
C 	C 	0.38690 0.46180 0.18350 0.00300
C 	C 	0.54340 0.16020 0.22530 0.00300
C 	C 	0.49010 0.17440 0.30780 -0.36200
C 	C 	0.57720 0.10570 0.36590 0.15000
C 	C 	0.24270 0.51910 0.31750 -0.01900
C 	C 	0.35580 0.48170 0.37240 -0.30600
C 	C 	0.34170 0.36510 0.42050 0.13900
H 	H 	0.75200 0.71300 0.22800 0.01400
H 	H 	0.87200 0.70300 0.16200 0.02700
H 	H 	0.95600 0.62900 0.28200 0.13000
H 	H 	0.03500 0.73300 0.24400 0.12800
H 	H 	0.11700 0.16700 0.22000 0.04800
H 	H 	0.99600 0.24300 0.24700 0.04800
H 	H 	0.89900 0.07800 0.32000 0.12100
H 	H 	0.00800 0.99900 0.29000 0.11600
H 	H 	0.54400 0.07900 0.22000 0.01500
H 	H 	0.62900 0.19000 0.21000 0.03200
H 	H 	0.48900 0.25300 0.31100 0.14600
H 	H 	0.40600 0.14700 0.32100 0.14500
H 	H 	0.25000 0.60700 0.29300 0.02200
H 	H 	0.16200 0.51000 0.34800 0.02900
H 	H 	0.44100 0.48100 0.34500 0.12300
H 	H 	0.35100 0.53400 0.40700 0.11400
