data_crystal

_cell_length_a 13.00050
_cell_length_b 13.00050
_cell_length_c 30.20020
_cell_angle_alpha 90.00000
_cell_angle_beta  90.00000
_cell_angle_gamma 90.00000

_symmetry_space_group_name_	'P 1'
_symmetry_space_group_name_H-M	'P 1'

loop_
_symmetry_equiv_pos_as_xyz
  x,y,z

loop_
_atom_site_label
_atom_site_type_symbol
_atom_site_fract_x
_atom_site_fract_y
_atom_site_fract_z
_atom_site_charge
Co	Co	0.89540 0.95131 0.45964 1.19600
C 	C 	0.10650 0.91590 0.37830 0.57000
C 	C 	0.15020 0.83280 0.40820 -0.61100
C 	C 	0.07710 0.80900 0.44830 0.26900
C 	C 	0.14000 0.73350 0.47670 -0.64700
C 	C 	0.08010 0.68410 0.51350 0.50900
C 	C 	0.97850 0.75570 0.43140 0.29000
O 	O 	0.10960 0.00930 0.39071 -0.62100
O 	O 	0.06970 0.88930 0.34092 -0.49800
O 	O 	0.05430 0.90110 0.47128 -0.61600
O 	O 	0.89520 0.80110 0.43768 -0.42900
O 	O 	0.99070 0.67140 0.41440 -0.20000
O 	O 	0.03730 0.73680 0.54193 -0.55300
O 	O 	0.07530 0.58480 0.51430 -0.48900
H 	H 	0.21710 0.85610 0.41920 0.23100
H 	H 	0.15810 0.77010 0.39160 0.21100
H 	H 	0.19460 0.77260 0.48990 0.22200
H 	H 	0.16970 0.68100 0.45860 0.23700
Co	Co	0.39540 0.45131 0.95964 1.16200
C 	C 	0.60650 0.41590 0.87830 0.46700
C 	C 	0.65020 0.33280 0.90820 -0.58300
C 	C 	0.57710 0.30900 0.94830 0.33100
C 	C 	0.64000 0.23350 0.97670 -0.66300
C 	C 	0.58010 0.18410 0.01350 0.52300
C 	C 	0.47850 0.25570 0.93140 0.20800
O 	O 	0.60960 0.50930 0.89071 -0.50800
O 	O 	0.56970 0.38930 0.84092 -0.47700
O 	O 	0.55430 0.40110 0.97128 -0.62700
O 	O 	0.39520 0.30110 0.93768 -0.43700
O 	O 	0.49070 0.17140 0.91440 -0.25300
O 	O 	0.53730 0.23680 0.04193 -0.52900
O 	O 	0.57530 0.08480 0.01430 -0.49300
H 	H 	0.71710 0.35610 0.91920 0.20500
H 	H 	0.65810 0.27010 0.89160 0.21300
H 	H 	0.69460 0.27260 0.98990 0.22000
H 	H 	0.66970 0.18100 0.95860 0.24600
Co	Co	0.10460 0.04869 0.45964 1.12800
C 	C 	0.89350 0.08410 0.37830 0.36800
C 	C 	0.84980 0.16720 0.40820 -0.56000
C 	C 	0.92290 0.19100 0.44830 0.40300
C 	C 	0.86000 0.26650 0.47670 -0.67400
C 	C 	0.91990 0.31590 0.51350 0.52900
C 	C 	0.02150 0.24430 0.43140 0.11300
O 	O 	0.89040 0.99070 0.39071 -0.39400
O 	O 	0.93030 0.11070 0.34092 -0.41500
O 	O 	0.94570 0.09890 0.47128 -0.63600
O 	O 	0.10480 0.19890 0.43768 -0.42100
O 	O 	0.00930 0.32860 0.41440 -0.25400
O 	O 	0.96270 0.26320 0.54193 -0.49100
O 	O 	0.92470 0.41520 0.51430 -0.42400
H 	H 	0.78290 0.14390 0.41920 0.18000
H 	H 	0.84190 0.22990 0.39160 0.22500
H 	H 	0.80540 0.22740 0.48990 0.21200
H 	H 	0.83030 0.31900 0.45860 0.26400
Co	Co	0.60460 0.54869 0.95964 1.16300
C 	C 	0.39350 0.58410 0.87830 0.46900
C 	C 	0.34980 0.66720 0.90820 -0.58800
C 	C 	0.42290 0.69100 0.94830 0.33700
C 	C 	0.36000 0.76650 0.97670 -0.65700
C 	C 	0.41990 0.81590 0.01350 0.51500
C 	C 	0.52150 0.74430 0.93140 0.19900
O 	O 	0.39040 0.49070 0.89071 -0.51200
O 	O 	0.43030 0.61070 0.84092 -0.46800
O 	O 	0.44570 0.59890 0.97128 -0.62800
O 	O 	0.60480 0.69890 0.93768 -0.41400
O 	O 	0.50930 0.82860 0.91440 -0.20200
O 	O 	0.46270 0.76320 0.04193 -0.51600
O 	O 	0.42470 0.91520 0.01430 -0.42000
H 	H 	0.28290 0.64390 0.91920 0.20500
H 	H 	0.34190 0.72990 0.89160 0.22300
H 	H 	0.30540 0.72740 0.98990 0.21400
H 	H 	0.33030 0.81900 0.95860 0.25600
Co	Co	0.95131 0.10460 0.54036 1.16600
C 	C 	0.91590 0.89350 0.62170 0.59200
C 	C 	0.83280 0.84980 0.59180 -0.66100
C 	C 	0.80900 0.92290 0.55170 0.42800
C 	C 	0.73350 0.86000 0.52330 -0.69500
C 	C 	0.68410 0.91990 0.48650 0.53700
C 	C 	0.75570 0.02150 0.56860 0.10800
O 	O 	0.00930 0.89040 0.60929 -0.57600
O 	O 	0.88930 0.93030 0.65908 -0.42600
O 	O 	0.90110 0.94570 0.52872 -0.58000
O 	O 	0.80110 0.10480 0.56232 -0.42300
O 	O 	0.67140 0.00930 0.58560 -0.25300
O 	O 	0.73680 0.96270 0.45807 -0.49600
O 	O 	0.58480 0.92470 0.48570 -0.42600
H 	H 	0.85610 0.78290 0.58080 0.24100
H 	H 	0.77010 0.84190 0.60840 0.25300
H 	H 	0.77260 0.80540 0.51010 0.23100
H 	H 	0.68100 0.83030 0.54140 0.27200
Co	Co	0.45131 0.60460 0.04036 1.16300
C 	C 	0.41590 0.39350 0.12170 0.46500
C 	C 	0.33280 0.34980 0.09180 -0.57500
C 	C 	0.30900 0.42290 0.05170 0.32300
C 	C 	0.23350 0.36000 0.02330 -0.64400
C 	C 	0.18410 0.41990 0.98650 0.51300
C 	C 	0.25570 0.52150 0.06860 0.21000
O 	O 	0.50930 0.39040 0.10929 -0.50900
O 	O 	0.38930 0.43030 0.15908 -0.47600
O 	O 	0.40110 0.44570 0.02872 -0.62600
O 	O 	0.30110 0.60480 0.06232 -0.43100
O 	O 	0.17140 0.50930 0.08560 -0.25100
O 	O 	0.23680 0.46270 0.95807 -0.52700
O 	O 	0.08480 0.42470 0.98570 -0.49800
H 	H 	0.35610 0.28290 0.08080 0.19800
H 	H 	0.27010 0.34190 0.10840 0.20700
H 	H 	0.27260 0.30540 0.01010 0.20200
H 	H 	0.18100 0.33030 0.04140 0.22900
Co	Co	0.04869 0.89540 0.54036 1.16100
C 	C 	0.08410 0.10650 0.62170 0.33000
C 	C 	0.16720 0.15020 0.59180 -0.50100
C 	C 	0.19100 0.07710 0.55170 0.23400
C 	C 	0.26650 0.14000 0.52330 -0.62100
C 	C 	0.31590 0.08010 0.48650 0.49900
C 	C 	0.24430 0.97850 0.56860 0.30500
O 	O 	0.99070 0.10960 0.60929 -0.42700
O 	O 	0.11070 0.06970 0.65908 -0.48900
O 	O 	0.09890 0.05430 0.52872 -0.67700
O 	O 	0.19890 0.89520 0.56232 -0.42800
O 	O 	0.32860 0.99070 0.58560 -0.20200
O 	O 	0.26320 0.03730 0.45807 -0.55000
O 	O 	0.41520 0.07530 0.48570 -0.48700
H 	H 	0.14390 0.21710 0.58080 0.16600
H 	H 	0.22990 0.15810 0.60840 0.17900
H 	H 	0.22740 0.19460 0.51010 0.20100
H 	H 	0.31900 0.16970 0.54140 0.22800
Co	Co	0.54869 0.39540 0.04036 1.16200
C 	C 	0.58410 0.60650 0.12170 0.47100
C 	C 	0.66720 0.65020 0.09180 -0.59600
C 	C 	0.69100 0.57710 0.05170 0.34400
C 	C 	0.76650 0.64000 0.02330 -0.67400
C 	C 	0.81590 0.58010 0.98650 0.52400
C 	C 	0.74430 0.47850 0.06860 0.19700
O 	O 	0.49070 0.60960 0.10929 -0.51100
O 	O 	0.61070 0.56970 0.15908 -0.47000
O 	O 	0.59890 0.55430 0.02872 -0.62900
O 	O 	0.69890 0.39520 0.06232 -0.41900
O 	O 	0.82860 0.49070 0.08560 -0.20300
O 	O 	0.76320 0.53730 0.95807 -0.51800
O 	O 	0.91520 0.57530 0.98570 -0.41600
H 	H 	0.64390 0.71710 0.08080 0.21200
H 	H 	0.72990 0.65810 0.10840 0.22800
H 	H 	0.72740 0.69460 0.01010 0.23100
H 	H 	0.81900 0.66970 0.04140 0.27100
Co	Co	0.60460 0.95131 0.29036 1.18100
C 	C 	0.39350 0.91590 0.37170 0.58300
C 	C 	0.34980 0.83280 0.34180 -0.63500
C 	C 	0.42290 0.80900 0.30170 0.34500
C 	C 	0.36000 0.73350 0.27330 -0.66400
C 	C 	0.41990 0.68410 0.23650 0.52000
C 	C 	0.52150 0.75570 0.31860 0.20000
O 	O 	0.39040 0.00930 0.35929 -0.60300
O 	O 	0.43030 0.88930 0.40908 -0.46900
O 	O 	0.44570 0.90110 0.27872 -0.59700
O 	O 	0.60480 0.80110 0.31232 -0.42300
O 	O 	0.50930 0.67140 0.33560 -0.22600
O 	O 	0.46270 0.73680 0.20807 -0.52600
O 	O 	0.42470 0.58480 0.23570 -0.46800
H 	H 	0.28290 0.85610 0.33080 0.23400
H 	H 	0.34190 0.77010 0.35840 0.23000
H 	H 	0.30540 0.77260 0.26010 0.21900
H 	H 	0.33030 0.68100 0.29140 0.24700
Co	Co	0.10460 0.45131 0.79036 1.14700
C 	C 	0.89350 0.41590 0.87170 0.48000
C 	C 	0.84980 0.33280 0.84180 -0.60500
C 	C 	0.92290 0.30900 0.80170 0.41100
C 	C 	0.86000 0.23350 0.77330 -0.67800
C 	C 	0.91990 0.18410 0.73650 0.53100
C 	C 	0.02150 0.25570 0.81860 0.11400
O 	O 	0.89040 0.50930 0.85929 -0.48600
O 	O 	0.93030 0.38930 0.90908 -0.43100
O 	O 	0.94570 0.40110 0.77872 -0.60700
O 	O 	0.10480 0.30110 0.81232 -0.43100
O 	O 	0.00930 0.17140 0.83560 -0.27800
O 	O 	0.96270 0.23680 0.70807 -0.49600
O 	O 	0.92470 0.08480 0.73570 -0.45500
H 	H 	0.78290 0.35610 0.83080 0.20700
H 	H 	0.84190 0.27010 0.85840 0.23200
H 	H 	0.80540 0.27260 0.76010 0.21500
H 	H 	0.83030 0.18100 0.79140 0.25500
Co	Co	0.39540 0.04869 0.29036 1.14400
C 	C 	0.60650 0.08410 0.37170 0.35200
C 	C 	0.65020 0.16720 0.34180 -0.53600
C 	C 	0.57710 0.19100 0.30170 0.32400
C 	C 	0.64000 0.26650 0.27330 -0.65900
C 	C 	0.58010 0.31590 0.23650 0.52100
C 	C 	0.47850 0.24430 0.31860 0.20700
O 	O 	0.60960 0.99070 0.35929 -0.41300
O 	O 	0.56970 0.11070 0.40908 -0.46100
O 	O 	0.55430 0.09890 0.27872 -0.65800
O 	O 	0.39520 0.19890 0.31232 -0.42700
O 	O 	0.49070 0.32860 0.33560 -0.22900
O 	O 	0.53730 0.26320 0.20807 -0.52400
O 	O 	0.57530 0.41520 0.23570 -0.46200
H 	H 	0.71710 0.14390 0.33080 0.17700
H 	H 	0.65810 0.22990 0.35840 0.20600
H 	H 	0.69460 0.22740 0.26010 0.21600
H 	H 	0.66970 0.31900 0.29140 0.25500
Co	Co	0.89540 0.54869 0.79036 1.17900
C 	C 	0.10650 0.58410 0.87170 0.45300
C 	C 	0.15020 0.66720 0.84180 -0.56400
C 	C 	0.07710 0.69100 0.80170 0.25900
C 	C 	0.14000 0.76650 0.77330 -0.63900
C 	C 	0.08010 0.81590 0.73650 0.50300
C 	C 	0.97850 0.74430 0.81860 0.29100
O 	O 	0.10960 0.49070 0.85929 -0.52900
O 	O 	0.06970 0.61070 0.90908 -0.49800
O 	O 	0.05430 0.59890 0.77872 -0.64800
O 	O 	0.89520 0.69890 0.81232 -0.42000
O 	O 	0.99070 0.82860 0.83560 -0.17800
O 	O 	0.03730 0.76320 0.70807 -0.54300
O 	O 	0.07530 0.91520 0.73570 -0.44000
H 	H 	0.21710 0.64390 0.83080 0.20200
H 	H 	0.15810 0.72990 0.85840 0.20400
H 	H 	0.19460 0.72740 0.76010 0.21700
H 	H 	0.16970 0.81900 0.79140 0.24600
Co	Co	0.54869 0.10460 0.20964 1.14700
C 	C 	0.58410 0.89350 0.12830 0.48300
C 	C 	0.66720 0.84980 0.15820 -0.61700
C 	C 	0.69100 0.92290 0.19830 0.42100
C 	C 	0.76650 0.86000 0.22670 -0.68900
C 	C 	0.81590 0.91990 0.26350 0.53100
C 	C 	0.74430 0.02150 0.18140 0.10600
O 	O 	0.49070 0.89040 0.14071 -0.48900
O 	O 	0.61070 0.93030 0.09092 -0.42500
O 	O 	0.59890 0.94570 0.22128 -0.60900
O 	O 	0.69890 0.10480 0.18768 -0.41400
O 	O 	0.82860 0.00930 0.16440 -0.22700
O 	O 	0.76320 0.96270 0.29193 -0.48700
O 	O 	0.91520 0.92470 0.26430 -0.38100
H 	H 	0.64390 0.78290 0.16920 0.21400
H 	H 	0.72990 0.84190 0.14160 0.24600
H 	H 	0.72740 0.80540 0.23990 0.22700
H 	H 	0.81900 0.83030 0.20860 0.28000
Co	Co	0.04869 0.60460 0.70964 1.14500
C 	C 	0.08410 0.39350 0.62830 0.34800
C 	C 	0.16720 0.34980 0.65820 -0.52700
C 	C 	0.19100 0.42290 0.69830 0.31500
C 	C 	0.26650 0.36000 0.72670 -0.63900
C 	C 	0.31590 0.41990 0.76350 0.51100
C 	C 	0.24430 0.52150 0.68140 0.20900
O 	O 	0.99070 0.39040 0.64071 -0.41200
O 	O 	0.11070 0.43030 0.59092 -0.45900
O 	O 	0.09890 0.44570 0.72128 -0.65700
O 	O 	0.19890 0.60480 0.68768 -0.42200
O 	O 	0.32860 0.50930 0.66440 -0.22700
O 	O 	0.26320 0.46270 0.79193 -0.52200
O 	O 	0.41520 0.42470 0.76430 -0.46600
H 	H 	0.14390 0.28290 0.66920 0.17000
H 	H 	0.22990 0.34190 0.64160 0.19900
H 	H 	0.22740 0.30540 0.73990 0.19800
H 	H 	0.31900 0.33030 0.70860 0.23800
Co	Co	0.45131 0.89540 0.20964 1.17900
C 	C 	0.41590 0.10650 0.12830 0.44800
C 	C 	0.33280 0.15020 0.15820 -0.55000
C 	C 	0.30900 0.07710 0.19830 0.24200
C 	C 	0.23350 0.14000 0.22670 -0.62600
C 	C 	0.18410 0.08010 0.26350 0.50100
C 	C 	0.25570 0.97850 0.18140 0.30500
O 	O 	0.50930 0.10960 0.14071 -0.52600
O 	O 	0.38930 0.06970 0.09092 -0.50600
O 	O 	0.40110 0.05430 0.22128 -0.64500
O 	O 	0.30110 0.89520 0.18768 -0.43700
O 	O 	0.17140 0.99070 0.16440 -0.22500
O 	O 	0.23680 0.03730 0.29193 -0.55500
O 	O 	0.08480 0.07530 0.26430 -0.51800
H 	H 	0.35610 0.21710 0.16920 0.19500
H 	H 	0.27010 0.15810 0.14160 0.18700
H 	H 	0.27260 0.19460 0.23990 0.20500
H 	H 	0.18100 0.16970 0.20860 0.21900
Co	Co	0.95131 0.39540 0.70964 1.18100
C 	C 	0.91590 0.60650 0.62830 0.58300
C 	C 	0.83280 0.65020 0.65820 -0.64200
C 	C 	0.80900 0.57710 0.69830 0.35300
C 	C 	0.73350 0.64000 0.72670 -0.68200
C 	C 	0.68410 0.58010 0.76350 0.53000
C 	C 	0.75570 0.47850 0.68140 0.19800
O 	O 	0.00930 0.60960 0.64071 -0.60100
O 	O 	0.88930 0.56970 0.59092 -0.47100
O 	O 	0.90110 0.55430 0.72128 -0.59800
O 	O 	0.80110 0.39520 0.68768 -0.42900
O 	O 	0.67140 0.49070 0.66440 -0.22800
O 	O 	0.73680 0.53730 0.79193 -0.52700
O 	O 	0.58480 0.57530 0.76430 -0.46400
H 	H 	0.85610 0.71710 0.66920 0.24000
H 	H 	0.77010 0.65810 0.64160 0.23500
H 	H 	0.77260 0.69460 0.73990 0.23500
H 	H 	0.68100 0.66970 0.70860 0.26300
Co	Co	-0.00000 -0.00000 0.30781 1.11200
Co	Co	0.50000 0.50000 0.80781 1.19500
Co	Co	0.00000 0.00000 0.69219 1.11200
Co	Co	0.50000 0.50000 0.19219 1.19500
Co	Co	0.50000 0.00000 0.44219 1.15400
Co	Co	-0.00000 0.50000 0.94219 1.15400
Co	Co	0.50000 -0.00000 0.05781 1.15400
Co	Co	-0.00000 0.50000 0.55781 1.15400
K 	K 	0.75000 0.83690 0.37500 0.65200
K 	K 	0.25000 0.33690 0.87500 0.64200
K 	K 	0.25000 0.16310 0.37500 0.64500
K 	K 	0.75000 0.66310 0.87500 0.65400
K 	K 	0.83690 0.25000 0.62500 0.64600
K 	K 	0.16310 0.75000 0.62500 0.65100
K 	K 	0.66310 0.25000 0.12500 0.64800
K 	K 	0.33690 0.75000 0.12500 0.64800
