data_crystal

_cell_length_a 12.61110
_cell_length_b 12.61110
_cell_length_c 30.29990
_cell_angle_alpha 90.00000
_cell_angle_beta  90.00000
_cell_angle_gamma 90.00000

_symmetry_space_group_name_	'P 1'
_symmetry_space_group_name_H-M	'P 1'

loop_
_symmetry_equiv_pos_as_xyz
  x,y,z

loop_
_atom_site_label
_atom_site_type_symbol
_atom_site_fract_x
_atom_site_fract_y
_atom_site_fract_z
_atom_site_charge
Co	Co	0.89434 0.94719 0.45954 1.20100
C 	C 	0.10950 0.91430 0.37880 0.67900
C 	C 	0.15750 0.83440 0.40970 -0.83000
C 	C 	0.08390 0.80480 0.44930 0.41400
C 	C 	0.14910 0.73000 0.47750 -0.87900
C 	C 	0.09150 0.67630 0.51340 0.57900
C 	C 	0.98210 0.74770 0.43220 0.23400
O 	O 	0.11080 0.00990 0.39110 -0.64700
O 	O 	0.07220 0.88760 0.34270 -0.53800
O 	O 	0.05980 0.89790 0.47150 -0.64100
O 	O 	0.89370 0.79240 0.43830 -0.39500
O 	O 	0.99440 0.66040 0.41690 -0.15600
O 	O 	0.04400 0.73410 0.54230 -0.55800
O 	O 	0.08770 0.57590 0.51530 -0.49100
H 	H 	0.22440 0.85780 0.42070 0.31400
H 	H 	0.16540 0.77180 0.39320 0.28900
H 	H 	0.20370 0.76910 0.49060 0.31800
H 	H 	0.17880 0.67750 0.45940 0.32900
O 	O 	0.60500 0.70300 0.42050 -0.10100
O 	O 	0.65000 0.65600 0.41810 -0.07000
Co	Co	0.39434 0.44719 0.95954 1.16800
C 	C 	0.60950 0.41430 0.87880 0.57100
C 	C 	0.65750 0.33440 0.90970 -0.79800
C 	C 	0.58390 0.30480 0.94930 0.47700
C 	C 	0.64910 0.23000 0.97750 -0.90300
C 	C 	0.59150 0.17630 0.01340 0.59700
C 	C 	0.48210 0.24770 0.93220 0.15500
O 	O 	0.61080 0.50990 0.89110 -0.53400
O 	O 	0.57220 0.38760 0.84270 -0.50900
O 	O 	0.55980 0.39790 0.97150 -0.65300
O 	O 	0.39370 0.29240 0.93830 -0.39700
O 	O 	0.49440 0.16040 0.91690 -0.20400
O 	O 	0.54400 0.23410 0.04230 -0.53500
O 	O 	0.58770 0.07590 0.01530 -0.50000
H 	H 	0.72440 0.35780 0.92070 0.28700
H 	H 	0.66540 0.27180 0.89320 0.29000
H 	H 	0.70370 0.26910 0.99060 0.32000
H 	H 	0.67880 0.17750 0.95940 0.34000
O 	O 	0.10500 0.20300 0.92050 -0.12600
O 	O 	0.15000 0.15600 0.91810 -0.10400
Co	Co	0.10566 0.05281 0.45954 1.13300
C 	C 	0.89050 0.08570 0.37880 0.46700
C 	C 	0.84250 0.16560 0.40970 -0.77100
C 	C 	0.91610 0.19520 0.44930 0.54800
C 	C 	0.85090 0.27000 0.47750 -0.91800
C 	C 	0.90850 0.32370 0.51340 0.60500
C 	C 	0.01790 0.25230 0.43220 0.06200
O 	O 	0.88920 0.99010 0.39110 -0.41700
O 	O 	0.92780 0.11240 0.34270 -0.44100
O 	O 	0.94020 0.10210 0.47150 -0.66400
O 	O 	0.10630 0.20760 0.43830 -0.38400
O 	O 	0.00560 0.33960 0.41690 -0.20400
O 	O 	0.95600 0.26590 0.54230 -0.49800
O 	O 	0.91230 0.42410 0.51530 -0.43300
H 	H 	0.77560 0.14220 0.42070 0.25900
H 	H 	0.83460 0.22820 0.39320 0.30000
H 	H 	0.79630 0.23090 0.49060 0.31500
H 	H 	0.82120 0.32250 0.45940 0.36000
O 	O 	0.39500 0.29700 0.42050 -0.10000
O 	O 	0.35000 0.34400 0.41810 -0.07800
Co	Co	0.60566 0.55281 0.95954 1.16800
C 	C 	0.39050 0.58570 0.87880 0.57300
C 	C 	0.34250 0.66560 0.90970 -0.80400
C 	C 	0.41610 0.69520 0.94930 0.48200
C 	C 	0.35090 0.77000 0.97750 -0.89400
C 	C 	0.40850 0.82370 0.01340 0.58700
C 	C 	0.51790 0.75230 0.93220 0.14500
O 	O 	0.38920 0.49010 0.89110 -0.53500
O 	O 	0.42780 0.61240 0.84270 -0.50200
O 	O 	0.44020 0.60210 0.97150 -0.65500
O 	O 	0.60630 0.70760 0.93830 -0.38200
O 	O 	0.50560 0.83960 0.91690 -0.15600
O 	O 	0.45600 0.76590 0.04230 -0.52200
O 	O 	0.41230 0.92410 0.01530 -0.42400
H 	H 	0.27560 0.64220 0.92070 0.28600
H 	H 	0.33460 0.72820 0.89320 0.30000
H 	H 	0.29630 0.73090 0.99060 0.31300
H 	H 	0.32120 0.82250 0.95940 0.34900
O 	O 	0.89500 0.79700 0.92050 -0.07500
O 	O 	0.85000 0.84400 0.91810 -0.04500
Co	Co	0.94719 0.10566 0.54046 1.17100
C 	C 	0.91430 0.89050 0.62120 0.70200
C 	C 	0.83440 0.84250 0.59030 -0.89300
C 	C 	0.80480 0.91610 0.55070 0.58000
C 	C 	0.73000 0.85090 0.52250 -0.94900
C 	C 	0.67630 0.90850 0.48660 0.61500
C 	C 	0.74770 0.01790 0.56780 0.05500
O 	O 	0.00990 0.88920 0.60890 -0.60400
O 	O 	0.88760 0.92780 0.65730 -0.46300
O 	O 	0.89790 0.94020 0.52850 -0.61000
O 	O 	0.79240 0.10630 0.56170 -0.38600
O 	O 	0.66040 0.00560 0.58310 -0.20300
O 	O 	0.73410 0.95600 0.45770 -0.50300
O 	O 	0.57590 0.91230 0.48470 -0.43600
H 	H 	0.85780 0.77560 0.57930 0.32800
H 	H 	0.77180 0.83460 0.60680 0.33400
H 	H 	0.76910 0.79630 0.50940 0.33500
H 	H 	0.67750 0.82120 0.54060 0.36900
O 	O 	0.70300 0.39500 0.57950 -0.09700
O 	O 	0.65600 0.35000 0.58190 -0.08000
Co	Co	0.44719 0.60566 0.04046 1.16800
C 	C 	0.41430 0.39050 0.12120 0.56800
C 	C 	0.33440 0.34250 0.09030 -0.78600
C 	C 	0.30480 0.41610 0.05070 0.46600
C 	C 	0.23000 0.35090 0.02250 -0.87800
C 	C 	0.17630 0.40850 0.98660 0.58700
C 	C 	0.24770 0.51790 0.06780 0.15800
O 	O 	0.50990 0.38920 0.10890 -0.53300
O 	O 	0.38760 0.42780 0.15730 -0.50700
O 	O 	0.39790 0.44020 0.02850 -0.65200
O 	O 	0.29240 0.60630 0.06170 -0.39500
O 	O 	0.16040 0.50560 0.08310 -0.20500
O 	O 	0.23410 0.45600 0.95770 -0.53200
O 	O 	0.07590 0.41230 0.98470 -0.50300
H 	H 	0.35780 0.27560 0.07930 0.27800
H 	H 	0.27180 0.33460 0.10680 0.28300
H 	H 	0.26910 0.29630 0.00940 0.30100
H 	H 	0.17750 0.32120 0.04060 0.32100
O 	O 	0.20300 0.89500 0.07950 -0.07100
O 	O 	0.15600 0.85000 0.08190 -0.09800
Co	Co	0.05281 0.89434 0.54046 1.16700
C 	C 	0.08570 0.10950 0.62120 0.42500
C 	C 	0.16560 0.15750 0.59030 -0.69800
C 	C 	0.19520 0.08390 0.55070 0.37200
C 	C 	0.27000 0.14910 0.52250 -0.84300
C 	C 	0.32370 0.09150 0.48660 0.56700
C 	C 	0.25230 0.98210 0.56780 0.25100
O 	O 	0.99010 0.11080 0.60890 -0.44700
O 	O 	0.11240 0.07220 0.65730 -0.51700
O 	O 	0.10210 0.05980 0.52850 -0.70000
O 	O 	0.20760 0.89370 0.56170 -0.39400
O 	O 	0.33960 0.99440 0.58310 -0.15800
O 	O 	0.26590 0.04400 0.45770 -0.55400
O 	O 	0.42410 0.08770 0.48470 -0.48800
H 	H 	0.14220 0.22440 0.57930 0.24000
H 	H 	0.22820 0.16540 0.60680 0.25100
H 	H 	0.23090 0.20370 0.50940 0.29600
H 	H 	0.32250 0.17880 0.54060 0.31800
O 	O 	0.29700 0.60500 0.57950 -0.10400
O 	O 	0.34400 0.65000 0.58190 -0.06800
Co	Co	0.55281 0.39434 0.04046 1.16800
C 	C 	0.58570 0.60950 0.12120 0.57600
C 	C 	0.66560 0.65750 0.09030 -0.81600
C 	C 	0.69520 0.58390 0.05070 0.49300
C 	C 	0.77000 0.64910 0.02250 -0.91700
C 	C 	0.82370 0.59150 0.98660 0.59600
C 	C 	0.75230 0.48210 0.06780 0.14200
O 	O 	0.49010 0.61080 0.10890 -0.53600
O 	O 	0.61240 0.57220 0.15730 -0.50500
O 	O 	0.60210 0.55980 0.02850 -0.65600
O 	O 	0.70760 0.39370 0.06170 -0.38400
O 	O 	0.83960 0.49440 0.08310 -0.15500
O 	O 	0.76590 0.54400 0.95770 -0.52400
O 	O 	0.92410 0.58770 0.98470 -0.42200
H 	H 	0.64220 0.72440 0.07930 0.29500
H 	H 	0.72820 0.66540 0.10680 0.30600
H 	H 	0.73090 0.70370 0.00940 0.33100
H 	H 	0.82250 0.67880 0.04060 0.36600
O 	O 	0.79700 0.10500 0.07950 -0.12900
O 	O 	0.84400 0.15000 0.08190 -0.04900
Co	Co	0.60566 0.94719 0.29046 1.18600
C 	C 	0.39050 0.91430 0.37120 0.69300
C 	C 	0.34250 0.83440 0.34030 -0.85900
C 	C 	0.41610 0.80480 0.30070 0.49200
C 	C 	0.35090 0.73000 0.27250 -0.90400
C 	C 	0.40850 0.67630 0.23660 0.59400
C 	C 	0.51790 0.74770 0.31780 0.14600
O 	O 	0.38920 0.00990 0.35890 -0.63000
O 	O 	0.42780 0.88760 0.40730 -0.50700
O 	O 	0.44020 0.89790 0.27850 -0.62400
O 	O 	0.60630 0.79240 0.31170 -0.38900
O 	O 	0.50560 0.66040 0.33310 -0.18000
O 	O 	0.45600 0.73410 0.20770 -0.53200
O 	O 	0.41230 0.57590 0.23470 -0.47300
H 	H 	0.27560 0.85780 0.32930 0.31800
H 	H 	0.33460 0.77180 0.35680 0.30900
H 	H 	0.29630 0.76910 0.25940 0.31900
H 	H 	0.32120 0.67750 0.29060 0.34100
O 	O 	0.89500 0.70300 0.32950 -0.07200
O 	O 	0.85000 0.65600 0.33190 -0.07200
Co	Co	0.10566 0.44719 0.79046 1.15200
C 	C 	0.89050 0.41430 0.87120 0.58400
C 	C 	0.84250 0.33440 0.84030 -0.82500
C 	C 	0.91610 0.30480 0.80070 0.55800
C 	C 	0.85090 0.23000 0.77250 -0.92500
C 	C 	0.90850 0.17630 0.73660 0.60900
C 	C 	0.01790 0.24770 0.81780 0.06300
O 	O 	0.88920 0.50990 0.85890 -0.51200
O 	O 	0.92780 0.38760 0.90730 -0.46100
O 	O 	0.94020 0.39790 0.77850 -0.63500
O 	O 	0.10630 0.29240 0.81170 -0.39100
O 	O 	0.00560 0.16040 0.83310 -0.22800
O 	O 	0.95600 0.23410 0.70770 -0.50300
O 	O 	0.91230 0.07590 0.73470 -0.46500
H 	H 	0.77560 0.35780 0.82930 0.29000
H 	H 	0.83460 0.27180 0.85680 0.31000
H 	H 	0.79630 0.26910 0.75940 0.31900
H 	H 	0.82120 0.17750 0.79060 0.35100
O 	O 	0.39500 0.20300 0.82950 -0.09800
O 	O 	0.35000 0.15600 0.83190 -0.10600
Co	Co	0.39434 0.05281 0.29046 1.15000
C 	C 	0.60950 0.08570 0.37120 0.45000
C 	C 	0.65750 0.16560 0.34030 -0.74300
C 	C 	0.58390 0.19520 0.30070 0.46700
C 	C 	0.64910 0.27000 0.27250 -0.89600
C 	C 	0.59150 0.32370 0.23660 0.59300
C 	C 	0.48210 0.25230 0.31780 0.15400
O 	O 	0.61080 0.99010 0.35890 -0.43500
O 	O 	0.57220 0.11240 0.40730 -0.48800
O 	O 	0.55980 0.10210 0.27850 -0.68300
O 	O 	0.39370 0.20760 0.31170 -0.39000
O 	O 	0.49440 0.33960 0.33310 -0.18100
O 	O 	0.54400 0.26590 0.20770 -0.53000
O 	O 	0.58770 0.42410 0.23470 -0.46700
H 	H 	0.72440 0.14220 0.32930 0.25500
H 	H 	0.66540 0.22820 0.35680 0.28000
H 	H 	0.70370 0.23090 0.25940 0.31600
H 	H 	0.67880 0.32250 0.29060 0.34900
O 	O 	0.10500 0.29700 0.32950 -0.12800
O 	O 	0.15000 0.34400 0.33190 -0.07600
Co	Co	0.89434 0.55281 0.79046 1.18400
C 	C 	0.10950 0.58570 0.87120 0.55600
C 	C 	0.15750 0.66560 0.84030 -0.77500
C 	C 	0.08390 0.69520 0.80070 0.40200
C 	C 	0.14910 0.77000 0.77250 -0.86700
C 	C 	0.09150 0.82370 0.73660 0.57100
C 	C 	0.98210 0.75230 0.81780 0.23500
O 	O 	0.11080 0.49010 0.85890 -0.55200
O 	O 	0.07220 0.61240 0.90730 -0.53300
O 	O 	0.05980 0.60210 0.77850 -0.67300
O 	O 	0.89370 0.70760 0.81170 -0.38800
O 	O 	0.99440 0.83960 0.83310 -0.13400
O 	O 	0.04400 0.76590 0.70770 -0.54800
O 	O 	0.08770 0.92410 0.73470 -0.44100
H 	H 	0.22440 0.64220 0.82930 0.28100
H 	H 	0.16540 0.72820 0.85680 0.27900
H 	H 	0.20370 0.73090 0.75940 0.31200
H 	H 	0.17880 0.82250 0.79060 0.33700
O 	O 	0.60500 0.79700 0.82950 -0.10400
O 	O 	0.65000 0.84400 0.83190 -0.04200
Co	Co	0.55281 0.10566 0.20954 1.15200
C 	C 	0.58570 0.89050 0.12880 0.58800
C 	C 	0.66560 0.84250 0.15970 -0.84000
C 	C 	0.69520 0.91610 0.19930 0.57000
C 	C 	0.77000 0.85090 0.22750 -0.93900
C 	C 	0.82370 0.90850 0.26340 0.60800
C 	C 	0.75230 0.01790 0.18220 0.05300
O 	O 	0.49010 0.88920 0.14110 -0.51300
O 	O 	0.61240 0.92780 0.09270 -0.45800
O 	O 	0.60210 0.94020 0.22150 -0.63800
O 	O 	0.70760 0.10630 0.18830 -0.37800
O 	O 	0.83960 0.00560 0.16690 -0.17800
O 	O 	0.76590 0.95600 0.29230 -0.49400
O 	O 	0.92410 0.91230 0.26530 -0.38900
H 	H 	0.64220 0.77560 0.17070 0.29800
H 	H 	0.72820 0.83460 0.14320 0.32500
H 	H 	0.73090 0.79630 0.24060 0.32900
H 	H 	0.82250 0.82120 0.20940 0.37700
O 	O 	0.79700 0.39500 0.17050 -0.10100
O 	O 	0.84400 0.35000 0.16810 -0.05100
Co	Co	0.05281 0.60566 0.70954 1.15000
C 	C 	0.08570 0.39050 0.62880 0.44400
C 	C 	0.16560 0.34250 0.65970 -0.72900
C 	C 	0.19520 0.41610 0.69930 0.45500
C 	C 	0.27000 0.35090 0.72750 -0.87000
C 	C 	0.32370 0.40850 0.76340 0.58200
C 	C 	0.25230 0.51790 0.68220 0.15800
O 	O 	0.99010 0.38920 0.64110 -0.43300
O 	O 	0.11240 0.42780 0.59270 -0.48600
O 	O 	0.10210 0.44020 0.72150 -0.68200
O 	O 	0.20760 0.60630 0.68830 -0.38800
O 	O 	0.33960 0.50560 0.66690 -0.18100
O 	O 	0.26590 0.45600 0.79230 -0.52700
O 	O 	0.42410 0.41230 0.76530 -0.47000
H 	H 	0.14220 0.27560 0.67070 0.24500
H 	H 	0.22820 0.33460 0.64320 0.27300
H 	H 	0.23090 0.29630 0.74060 0.29600
H 	H 	0.32250 0.32120 0.70940 0.33000
O 	O 	0.29700 0.89500 0.67050 -0.07300
O 	O 	0.34400 0.85000 0.66810 -0.07100
Co	Co	0.44719 0.89434 0.20954 1.18400
C 	C 	0.41430 0.10950 0.12880 0.55000
C 	C 	0.33440 0.15750 0.15970 -0.75500
C 	C 	0.30480 0.08390 0.19930 0.38300
C 	C 	0.23000 0.14910 0.22750 -0.85100
C 	C 	0.17630 0.09150 0.26340 0.57100
C 	C 	0.24770 0.98210 0.18220 0.25100
O 	O 	0.50990 0.11080 0.14110 -0.54900
O 	O 	0.38760 0.07220 0.09270 -0.53800
O 	O 	0.39790 0.05980 0.22150 -0.66900
O 	O 	0.29240 0.89370 0.18830 -0.40100
O 	O 	0.16040 0.99440 0.16690 -0.18000
O 	O 	0.23410 0.04400 0.29230 -0.55900
O 	O 	0.07590 0.08770 0.26530 -0.52100
H 	H 	0.35780 0.22440 0.17070 0.27200
H 	H 	0.27180 0.16540 0.14320 0.26100
H 	H 	0.26910 0.20370 0.24060 0.30100
H 	H 	0.17750 0.17880 0.20940 0.30900
O 	O 	0.20300 0.60500 0.17050 -0.10200
O 	O 	0.15600 0.65000 0.16810 -0.09500
Co	Co	0.94719 0.39434 0.70954 1.18600
C 	C 	0.91430 0.60950 0.62880 0.69400
C 	C 	0.83440 0.65750 0.65970 -0.87000
C 	C 	0.80480 0.58390 0.69930 0.50300
C 	C 	0.73000 0.64910 0.72750 -0.92800
C 	C 	0.67630 0.59150 0.76340 0.60400
C 	C 	0.74770 0.48210 0.68220 0.14200
O 	O 	0.00990 0.61080 0.64110 -0.62900
O 	O 	0.88760 0.57220 0.59270 -0.50900
O 	O 	0.89790 0.55980 0.72150 -0.62700
O 	O 	0.79240 0.39370 0.68830 -0.39100
O 	O 	0.66040 0.49440 0.66690 -0.17900
O 	O 	0.73410 0.54400 0.79230 -0.53400
O 	O 	0.57590 0.58770 0.76530 -0.47000
H 	H 	0.85780 0.72440 0.67070 0.32600
H 	H 	0.77180 0.66540 0.64320 0.31600
H 	H 	0.76910 0.70370 0.74060 0.33700
H 	H 	0.67750 0.67880 0.70940 0.35900
O 	O 	0.70300 0.10500 0.67050 -0.12500
O 	O 	0.65600 0.15000 0.66810 -0.07800
Co	Co	-0.00000 0.00000 0.30964 1.12400
Co	Co	0.50000 0.50000 0.80964 1.20600
Co	Co	0.00000 0.00000 0.69036 1.12300
Co	Co	0.50000 0.50000 0.19036 1.20600
Co	Co	0.50000 0.00000 0.44036 1.16500
Co	Co	0.00000 0.50000 0.94036 1.16500
Co	Co	0.50000 0.00000 0.05964 1.16500
Co	Co	0.00000 0.50000 0.55964 1.16500
K 	K 	0.75000 0.82750 0.37500 0.66900
K 	K 	0.25000 0.32750 0.87500 0.66400
K 	K 	0.25000 0.17250 0.37500 0.66500
K 	K 	0.75000 0.67250 0.87500 0.66900
K 	K 	0.82750 0.25000 0.62500 0.66600
K 	K 	0.17250 0.75000 0.62500 0.66800
K 	K 	0.67250 0.25000 0.12500 0.66600
K 	K 	0.32750 0.75000 0.12500 0.66700
