data_crystal

_cell_length_a 12.82010
_cell_length_b 12.82010
_cell_length_c 30.26850
_cell_angle_alpha 90.00000
_cell_angle_beta  90.00000
_cell_angle_gamma 90.00000

_symmetry_space_group_name_	'P 1'
_symmetry_space_group_name_H-M	'P 1'

loop_
_symmetry_equiv_pos_as_xyz
  x,y,z

loop_
_atom_site_label
_atom_site_type_symbol
_atom_site_fract_x
_atom_site_fract_y
_atom_site_fract_z
_atom_site_charge
Co	Co	0.89500 0.94950 0.45963 1.19700
C 	C 	0.10710 0.91560 0.37820 0.64400
C 	C 	0.15030 0.83400 0.40870 -0.77800
C 	C 	0.08130 0.80720 0.44900 0.36100
C 	C 	0.14630 0.73200 0.47650 -0.74300
C 	C 	0.08530 0.68050 0.51350 0.53400
C 	C 	0.98070 0.75110 0.43300 0.25100
O 	O 	0.11100 0.01010 0.39072 -0.63200
O 	O 	0.07110 0.88860 0.34170 -0.51700
O 	O 	0.05580 0.90020 0.47109 -0.63500
O 	O 	0.89480 0.79710 0.43820 -0.39700
O 	O 	0.99190 0.66590 0.41550 -0.15700
O 	O 	0.03960 0.73450 0.54210 -0.54900
O 	O 	0.08210 0.58130 0.51480 -0.47700
H 	H 	0.21580 0.85800 0.41930 0.29400
H 	H 	0.16020 0.77200 0.39200 0.27200
H 	H 	0.20200 0.77050 0.48930 0.26900
H 	H 	0.17380 0.67930 0.45780 0.28300
O 	O 	0.60300 0.70800 0.42380 -0.09200
O 	O 	0.64800 0.66200 0.41600 -0.07500
Co	Co	0.39500 0.44950 0.95963 1.16500
C 	C 	0.60710 0.41560 0.87820 0.53900
C 	C 	0.65030 0.33400 0.90870 -0.74000
C 	C 	0.58130 0.30720 0.94900 0.42000
C 	C 	0.64630 0.23200 0.97650 -0.76100
C 	C 	0.58530 0.18050 0.01350 0.55000
C 	C 	0.48070 0.25110 0.93300 0.17100
O 	O 	0.61100 0.51010 0.89072 -0.52200
O 	O 	0.57110 0.38860 0.84170 -0.49000
O 	O 	0.55580 0.40020 0.97109 -0.64500
O 	O 	0.39480 0.29710 0.93820 -0.39900
O 	O 	0.49190 0.16590 0.91550 -0.20400
O 	O 	0.53960 0.23450 0.04210 -0.52500
O 	O 	0.58210 0.08130 0.01480 -0.48300
H 	H 	0.71580 0.35800 0.91930 0.26500
H 	H 	0.66020 0.27200 0.89200 0.27100
H 	H 	0.70200 0.27050 0.98930 0.26900
H 	H 	0.67380 0.17930 0.95780 0.29200
O 	O 	0.10300 0.20800 0.92380 -0.12100
O 	O 	0.14800 0.16200 0.91600 -0.10600
Co	Co	0.10500 0.05050 0.45963 1.13100
C 	C 	0.89290 0.08440 0.37820 0.43700
C 	C 	0.84970 0.16600 0.40870 -0.70800
C 	C 	0.91870 0.19280 0.44900 0.48700
C 	C 	0.85370 0.26800 0.47650 -0.77300
C 	C 	0.91470 0.31950 0.51350 0.55500
C 	C 	0.01930 0.24890 0.43300 0.08000
O 	O 	0.88900 0.98990 0.39072 -0.40800
O 	O 	0.92890 0.11140 0.34170 -0.42500
O 	O 	0.94420 0.09980 0.47109 -0.65300
O 	O 	0.10520 0.20290 0.43820 -0.38700
O 	O 	0.00810 0.33410 0.41550 -0.20500
O 	O 	0.96040 0.26550 0.54210 -0.48700
O 	O 	0.91790 0.41870 0.51480 -0.41600
H 	H 	0.78420 0.14200 0.41930 0.23700
H 	H 	0.83980 0.22800 0.39200 0.28000
H 	H 	0.79800 0.22950 0.48930 0.26100
H 	H 	0.82620 0.32070 0.45780 0.31100
O 	O 	0.39700 0.29200 0.42380 -0.09200
O 	O 	0.35200 0.33800 0.41600 -0.08300
Co	Co	0.60500 0.55050 0.95963 1.16600
C 	C 	0.39290 0.58440 0.87820 0.54100
C 	C 	0.34970 0.66600 0.90870 -0.74600
C 	C 	0.41870 0.69280 0.94900 0.42500
C 	C 	0.35370 0.76800 0.97650 -0.75400
C 	C 	0.41470 0.81950 0.01350 0.54000
C 	C 	0.51930 0.74890 0.93300 0.16300
O 	O 	0.38900 0.48990 0.89072 -0.52300
O 	O 	0.42890 0.61140 0.84170 -0.48400
O 	O 	0.44420 0.59980 0.97109 -0.64600
O 	O 	0.60520 0.70290 0.93820 -0.38500
O 	O 	0.50810 0.83410 0.91550 -0.15800
O 	O 	0.46040 0.76550 0.04210 -0.51300
O 	O 	0.41790 0.91870 0.01480 -0.41000
H 	H 	0.28420 0.64200 0.91930 0.26500
H 	H 	0.33980 0.72800 0.89200 0.28100
H 	H 	0.29800 0.72950 0.98930 0.26100
H 	H 	0.32620 0.82070 0.95780 0.30200
O 	O 	0.89700 0.79200 0.92380 -0.06400
O 	O 	0.85200 0.83800 0.91600 -0.05300
Co	Co	0.94950 0.10500 0.54037 1.16800
C 	C 	0.91560 0.89290 0.62180 0.66900
C 	C 	0.83400 0.84970 0.59130 -0.83300
C 	C 	0.80720 0.91870 0.55100 0.52100
C 	C 	0.73200 0.85370 0.52350 -0.80000
C 	C 	0.68050 0.91470 0.48650 0.56400
C 	C 	0.75110 0.01930 0.56700 0.07200
O 	O 	0.01010 0.88900 0.60928 -0.59000
O 	O 	0.88860 0.92890 0.65830 -0.44400
O 	O 	0.90020 0.94420 0.52891 -0.60000
O 	O 	0.79710 0.10520 0.56180 -0.38800
O 	O 	0.66590 0.00810 0.58450 -0.20300
O 	O 	0.73450 0.96040 0.45790 -0.49300
O 	O 	0.58130 0.91790 0.48520 -0.41900
H 	H 	0.85800 0.78420 0.58070 0.30600
H 	H 	0.77200 0.83980 0.60800 0.31500
H 	H 	0.77050 0.79800 0.51070 0.28100
H 	H 	0.67930 0.82620 0.54220 0.31900
O 	O 	0.70800 0.39700 0.57620 -0.08900
O 	O 	0.66200 0.35200 0.58400 -0.08500
Co	Co	0.44950 0.60500 0.04037 1.16500
C 	C 	0.41560 0.39290 0.12180 0.53600
C 	C 	0.33400 0.34970 0.09130 -0.73000
C 	C 	0.30720 0.41870 0.05100 0.41100
C 	C 	0.23200 0.35370 0.02350 -0.74200
C 	C 	0.18050 0.41470 0.98650 0.54200
C 	C 	0.25110 0.51930 0.06700 0.17400
O 	O 	0.51010 0.38900 0.10928 -0.52100
O 	O 	0.38860 0.42890 0.15830 -0.48900
O 	O 	0.40020 0.44420 0.02891 -0.64400
O 	O 	0.29710 0.60520 0.06180 -0.39700
O 	O 	0.16590 0.50810 0.08450 -0.20400
O 	O 	0.23450 0.46040 0.95790 -0.52300
O 	O 	0.08130 0.41790 0.98520 -0.48600
H 	H 	0.35800 0.28420 0.08070 0.25800
H 	H 	0.27200 0.33980 0.10800 0.26500
H 	H 	0.27050 0.29800 0.01070 0.25200
H 	H 	0.17930 0.32620 0.04220 0.27600
O 	O 	0.20800 0.89700 0.07620 -0.06500
O 	O 	0.16200 0.85200 0.08400 -0.10000
Co	Co	0.05050 0.89500 0.54037 1.16400
C 	C 	0.08440 0.10710 0.62180 0.39600
C 	C 	0.16600 0.15030 0.59130 -0.64200
C 	C 	0.19280 0.08130 0.55100 0.31800
C 	C 	0.26800 0.14630 0.52350 -0.71100
C 	C 	0.31950 0.08530 0.48650 0.52400
C 	C 	0.24890 0.98070 0.56700 0.26800
O 	O 	0.98990 0.11100 0.60928 -0.43700
O 	O 	0.11140 0.07110 0.65830 -0.50000
O 	O 	0.09980 0.05580 0.52891 -0.69300
O 	O 	0.20290 0.89480 0.56180 -0.39600
O 	O 	0.33410 0.99190 0.58450 -0.15900
O 	O 	0.26550 0.03960 0.45790 -0.54600
O 	O 	0.41870 0.08210 0.48520 -0.47400
H 	H 	0.14200 0.21580 0.58070 0.22000
H 	H 	0.22800 0.16020 0.60800 0.23300
H 	H 	0.22950 0.20200 0.51070 0.24700
H 	H 	0.32070 0.17380 0.54220 0.27200
O 	O 	0.29200 0.60300 0.57620 -0.09500
O 	O 	0.33800 0.64800 0.58400 -0.07400
Co	Co	0.55050 0.39500 0.04037 1.16500
C 	C 	0.58440 0.60710 0.12180 0.54300
C 	C 	0.66600 0.65030 0.09130 -0.75600
C 	C 	0.69280 0.58130 0.05100 0.43400
C 	C 	0.76800 0.64630 0.02350 -0.77200
C 	C 	0.81950 0.58530 0.98650 0.54700
C 	C 	0.74890 0.48070 0.06700 0.16100
O 	O 	0.48990 0.61100 0.10928 -0.52400
O 	O 	0.61140 0.57110 0.15830 -0.48600
O 	O 	0.59980 0.55580 0.02891 -0.64700
O 	O 	0.70290 0.39480 0.06180 -0.38700
O 	O 	0.83410 0.49190 0.08450 -0.15800
O 	O 	0.76550 0.53960 0.95790 -0.51500
O 	O 	0.91870 0.58210 0.98520 -0.40700
H 	H 	0.64200 0.71580 0.08070 0.27200
H 	H 	0.72800 0.66020 0.10800 0.28700
H 	H 	0.72950 0.70200 0.01070 0.27700
H 	H 	0.82070 0.67380 0.04220 0.31700
O 	O 	0.79200 0.10300 0.07620 -0.11800
O 	O 	0.83800 0.14800 0.08400 -0.05800
Co	Co	0.60500 0.94950 0.29037 1.18300
C 	C 	0.39290 0.91560 0.37180 0.65900
C 	C 	0.34970 0.83400 0.34130 -0.80300
C 	C 	0.41870 0.80720 0.30100 0.43800
C 	C 	0.35370 0.73200 0.27350 -0.76500
C 	C 	0.41470 0.68050 0.23650 0.54700
C 	C 	0.51930 0.75110 0.31700 0.16300
O 	O 	0.38900 0.01010 0.35928 -0.61500
O 	O 	0.42890 0.88860 0.40830 -0.48800
O 	O 	0.44420 0.90020 0.27891 -0.61600
O 	O 	0.60520 0.79710 0.31180 -0.39200
O 	O 	0.50810 0.66590 0.33450 -0.18000
O 	O 	0.46040 0.73450 0.20790 -0.52200
O 	O 	0.41790 0.58130 0.23520 -0.45700
H 	H 	0.28420 0.85800 0.33070 0.29800
H 	H 	0.33980 0.77200 0.35800 0.29100
H 	H 	0.29800 0.77050 0.26070 0.26800
H 	H 	0.32620 0.67930 0.29220 0.29400
O 	O 	0.89700 0.70800 0.32620 -0.06300
O 	O 	0.85200 0.66200 0.33400 -0.07700
Co	Co	0.10500 0.44950 0.79037 1.14900
C 	C 	0.89290 0.41560 0.87180 0.55200
C 	C 	0.84970 0.33400 0.84130 -0.76400
C 	C 	0.91870 0.30720 0.80100 0.49900
C 	C 	0.85370 0.23200 0.77350 -0.78000
C 	C 	0.91470 0.18050 0.73650 0.55900
C 	C 	0.01930 0.25110 0.81700 0.08000
O 	O 	0.88900 0.51010 0.85928 -0.50100
O 	O 	0.92890 0.38860 0.90830 -0.44300
O 	O 	0.94420 0.40020 0.77891 -0.62500
O 	O 	0.10520 0.29710 0.81180 -0.39400
O 	O 	0.00810 0.16590 0.83450 -0.22700
O 	O 	0.96040 0.23450 0.70790 -0.49200
O 	O 	0.91790 0.08130 0.73520 -0.44600
H 	H 	0.78420 0.35800 0.83070 0.26800
H 	H 	0.83980 0.27200 0.85800 0.29100
H 	H 	0.79800 0.27050 0.76070 0.26600
H 	H 	0.82620 0.17930 0.79220 0.30200
O 	O 	0.39700 0.20800 0.82620 -0.09300
O 	O 	0.35200 0.16200 0.83400 -0.10800
Co	Co	0.39500 0.05050 0.29037 1.14700
C 	C 	0.60710 0.08440 0.37180 0.42000
C 	C 	0.65030 0.16600 0.34130 -0.68200
C 	C 	0.58130 0.19280 0.30100 0.40800
C 	C 	0.64630 0.26800 0.27350 -0.75400
C 	C 	0.58530 0.31950 0.23650 0.54600
C 	C 	0.48070 0.24890 0.31700 0.17200
O 	O 	0.61100 0.98990 0.35928 -0.42600
O 	O 	0.57110 0.11140 0.40830 -0.47100
O 	O 	0.55580 0.09980 0.27891 -0.67400
O 	O 	0.39480 0.20290 0.31180 -0.39200
O 	O 	0.49190 0.33410 0.33450 -0.18200
O 	O 	0.53960 0.26550 0.20790 -0.52000
O 	O 	0.58210 0.41870 0.23520 -0.45200
H 	H 	0.71580 0.14200 0.33070 0.23300
H 	H 	0.66020 0.22800 0.35800 0.26000
H 	H 	0.70200 0.22950 0.26070 0.26400
H 	H 	0.67380 0.32070 0.29220 0.30000
O 	O 	0.10300 0.29200 0.32620 -0.12000
O 	O 	0.14800 0.33800 0.33400 -0.08100
Co	Co	0.89500 0.55050 0.79037 1.18100
C 	C 	0.10710 0.58440 0.87180 0.52400
C 	C 	0.15030 0.66600 0.84130 -0.72000
C 	C 	0.08130 0.69280 0.80100 0.34700
C 	C 	0.14630 0.76800 0.77350 -0.73200
C 	C 	0.08530 0.81950 0.73650 0.52600
C 	C 	0.98070 0.74890 0.81700 0.25300
O 	O 	0.11100 0.48990 0.85928 -0.53900
O 	O 	0.07110 0.61140 0.90830 -0.51500
O 	O 	0.05580 0.59980 0.77891 -0.66600
O 	O 	0.89480 0.70290 0.81180 -0.39100
O 	O 	0.99190 0.83410 0.83450 -0.13700
O 	O 	0.03960 0.76550 0.70790 -0.54000
O 	O 	0.08210 0.91870 0.73520 -0.42800
H 	H 	0.21580 0.64200 0.83070 0.26100
H 	H 	0.16020 0.72800 0.85800 0.26100
H 	H 	0.20200 0.72950 0.76070 0.26200
H 	H 	0.17380 0.82070 0.79220 0.29000
O 	O 	0.60300 0.79200 0.82620 -0.09300
O 	O 	0.64800 0.83800 0.83400 -0.05100
Co	Co	0.55050 0.10500 0.20963 1.15000
C 	C 	0.58440 0.89290 0.12820 0.55600
C 	C 	0.66600 0.84970 0.15870 -0.77800
C 	C 	0.69280 0.91870 0.19900 0.50900
C 	C 	0.76800 0.85370 0.22650 -0.79000
C 	C 	0.81950 0.91470 0.26350 0.55700
C 	C 	0.74890 0.01930 0.18300 0.07200
O 	O 	0.48990 0.88900 0.14072 -0.50200
O 	O 	0.61140 0.92890 0.09170 -0.44000
O 	O 	0.59980 0.94420 0.22109 -0.62700
O 	O 	0.70290 0.10520 0.18820 -0.38200
O 	O 	0.83410 0.00810 0.16550 -0.18000
O 	O 	0.76550 0.96040 0.29210 -0.48300
O 	O 	0.91870 0.91790 0.26480 -0.37400
H 	H 	0.64200 0.78420 0.16930 0.27500
H 	H 	0.72800 0.83980 0.14200 0.30500
H 	H 	0.72950 0.79800 0.23930 0.27500
H 	H 	0.82070 0.82620 0.20780 0.32700
O 	O 	0.79200 0.39700 0.17380 -0.09100
O 	O 	0.83800 0.35200 0.16600 -0.05900
Co	Co	0.05050 0.60500 0.70963 1.14800
C 	C 	0.08440 0.39290 0.62820 0.41500
C 	C 	0.16600 0.34970 0.65870 -0.67100
C 	C 	0.19280 0.41870 0.69900 0.39800
C 	C 	0.26800 0.35370 0.72650 -0.73400
C 	C 	0.31950 0.41470 0.76350 0.53700
C 	C 	0.24890 0.51930 0.68300 0.17500
O 	O 	0.98990 0.38900 0.64072 -0.42300
O 	O 	0.11140 0.42890 0.59170 -0.46900
O 	O 	0.09980 0.44420 0.72109 -0.67300
O 	O 	0.20290 0.60520 0.68820 -0.39100
O 	O 	0.33410 0.50810 0.66550 -0.18200
O 	O 	0.26550 0.46040 0.79210 -0.51800
O 	O 	0.41870 0.41790 0.76480 -0.45400
H 	H 	0.14200 0.28420 0.66930 0.22500
H 	H 	0.22800 0.33980 0.64200 0.25400
H 	H 	0.22950 0.29800 0.73930 0.24600
H 	H 	0.32070 0.32620 0.70780 0.28400
O 	O 	0.29200 0.89700 0.67380 -0.06500
O 	O 	0.33800 0.85200 0.66600 -0.07600
Co	Co	0.44950 0.89500 0.20963 1.18100
C 	C 	0.41560 0.10710 0.12820 0.51900
C 	C 	0.33400 0.15030 0.15870 -0.70200
C 	C 	0.30720 0.08130 0.19900 0.33000
C 	C 	0.23200 0.14630 0.22650 -0.72000
C 	C 	0.18050 0.08530 0.26350 0.52800
C 	C 	0.25110 0.98070 0.18300 0.26700
O 	O 	0.51010 0.11100 0.14072 -0.53700
O 	O 	0.38860 0.07110 0.09170 -0.51900
O 	O 	0.40020 0.05580 0.22109 -0.66300
O 	O 	0.29710 0.89480 0.18820 -0.40300
O 	O 	0.16590 0.99190 0.16550 -0.18000
O 	O 	0.23450 0.03960 0.29210 -0.55100
O 	O 	0.08130 0.08210 0.26480 -0.50500
H 	H 	0.35800 0.21580 0.16930 0.25300
H 	H 	0.27200 0.16020 0.14200 0.24400
H 	H 	0.27050 0.20200 0.23930 0.25200
H 	H 	0.17930 0.17380 0.20780 0.26400
O 	O 	0.20800 0.60300 0.17380 -0.09500
O 	O 	0.16200 0.64800 0.16600 -0.09800
Co	Co	0.94950 0.39500 0.70963 1.18300
C 	C 	0.91560 0.60710 0.62820 0.65900
C 	C 	0.83400 0.65030 0.65870 -0.81200
C 	C 	0.80720 0.58130 0.69900 0.44600
C 	C 	0.73200 0.64630 0.72650 -0.78300
C 	C 	0.68050 0.58530 0.76350 0.55500
C 	C 	0.75110 0.48070 0.68300 0.16000
O 	O 	0.01010 0.61100 0.64072 -0.61400
O 	O 	0.88860 0.57110 0.59170 -0.48900
O 	O 	0.90020 0.55580 0.72109 -0.61800
O 	O 	0.79710 0.39480 0.68820 -0.39400
O 	O 	0.66590 0.49190 0.66550 -0.18000
O 	O 	0.73450 0.53960 0.79210 -0.52400
O 	O 	0.58130 0.58210 0.76480 -0.45400
H 	H 	0.85800 0.71580 0.66930 0.30400
H 	H 	0.77200 0.66020 0.64200 0.29700
H 	H 	0.77050 0.70200 0.73930 0.28400
H 	H 	0.67930 0.67380 0.70780 0.31000
O 	O 	0.70800 0.10300 0.67380 -0.11600
O 	O 	0.66200 0.14800 0.66600 -0.08400
Co	Co	-0.00000 0.00000 0.30855 1.12100
Co	Co	0.50000 0.50000 0.80855 1.20300
Co	Co	0.00000 0.00000 0.69145 1.12100
Co	Co	0.50000 0.50000 0.19145 1.20300
Co	Co	0.50000 -0.00000 0.44145 1.16200
Co	Co	-0.00000 0.50000 0.94145 1.16200
Co	Co	0.50000 0.00000 0.05855 1.16200
Co	Co	-0.00000 0.50000 0.55855 1.16200
K 	K 	0.75000 0.83140 0.37500 0.66800
K 	K 	0.25000 0.33140 0.87500 0.66400
K 	K 	0.25000 0.16860 0.37500 0.66500
K 	K 	0.75000 0.66860 0.87500 0.66800
K 	K 	0.83140 0.25000 0.62500 0.66500
K 	K 	0.16860 0.75000 0.62500 0.66700
K 	K 	0.66860 0.25000 0.12500 0.66600
K 	K 	0.33140 0.75000 0.12500 0.66700
