data_crystal

_cell_length_a 13.06910
_cell_length_b 13.06910
_cell_length_c 30.15700
_cell_angle_alpha 90.00000
_cell_angle_beta  90.00000
_cell_angle_gamma 90.00000

_symmetry_space_group_name_	'P 1'
_symmetry_space_group_name_H-M	'P 1'

loop_
_symmetry_equiv_pos_as_xyz
  x,y,z

loop_
_atom_site_label
_atom_site_type_symbol
_atom_site_fract_x
_atom_site_fract_y
_atom_site_fract_z
_atom_site_charge
Co	Co	0.89563 0.95191 0.45963 1.19600
C 	C 	0.10700 0.91720 0.37798 0.60100
C 	C 	0.14790 0.83420 0.40768 -0.64500
C 	C 	0.07800 0.81000 0.44758 0.29100
C 	C 	0.13960 0.73340 0.47656 -0.65100
C 	C 	0.07740 0.68400 0.51328 0.52600
C 	C 	0.97770 0.75800 0.43128 0.26600
H 	H 	0.21490 0.85760 0.41870 0.23800
H 	H 	0.15580 0.77160 0.39110 0.23000
H 	H 	0.19420 0.77250 0.48970 0.23400
H 	H 	0.16930 0.68090 0.45850 0.25100
O 	O 	0.10910 0.00830 0.39036 -0.62700
O 	O 	0.06910 0.88980 0.34074 -0.48800
O 	O 	0.05300 0.90080 0.47106 -0.61900
O 	O 	0.89430 0.80340 0.43758 -0.40200
O 	O 	0.98650 0.67280 0.41289 -0.15700
O 	O 	0.03580 0.73820 0.54179 -0.54800
O 	O 	0.07420 0.58700 0.51393 -0.48000
O 	O 	0.61210 0.71680 0.42310 -0.09800
O 	O 	0.64720 0.67810 0.41620 -0.06100
Co	Co	0.39563 0.45191 0.95963 1.16300
C 	C 	0.60700 0.41720 0.87798 0.49200
C 	C 	0.64790 0.33420 0.90768 -0.61100
C 	C 	0.57800 0.31000 0.94758 0.34800
C 	C 	0.63960 0.23340 0.97656 -0.66200
C 	C 	0.57740 0.18400 0.01328 0.53900
C 	C 	0.47770 0.25800 0.93128 0.18700
H 	H 	0.71490 0.35760 0.91870 0.21100
H 	H 	0.65580 0.27160 0.89110 0.23100
H 	H 	0.69420 0.27250 0.98970 0.23100
H 	H 	0.66930 0.18090 0.95850 0.25800
O 	O 	0.60910 0.50830 0.89036 -0.51400
O 	O 	0.56910 0.38980 0.84074 -0.46300
O 	O 	0.55300 0.40080 0.97106 -0.62800
O 	O 	0.39430 0.30340 0.93758 -0.40400
O 	O 	0.48650 0.17280 0.91289 -0.20300
O 	O 	0.53580 0.23820 0.04179 -0.52300
O 	O 	0.57420 0.08700 0.01393 -0.48400
O 	O 	0.11210 0.21680 0.92310 -0.12300
O 	O 	0.14720 0.17810 0.91620 -0.08900
Co	Co	0.10437 0.04809 0.45963 1.13000
C 	C 	0.89300 0.08280 0.37798 0.38800
C 	C 	0.85210 0.16580 0.40768 -0.58200
C 	C 	0.92200 0.19000 0.44758 0.41200
C 	C 	0.86040 0.26660 0.47656 -0.66800
C 	C 	0.92260 0.31600 0.51328 0.54400
C 	C 	0.02230 0.24200 0.43128 0.09800
H 	H 	0.78510 0.14240 0.41870 0.18500
H 	H 	0.84420 0.22840 0.39110 0.24000
H 	H 	0.80580 0.22750 0.48970 0.22200
H 	H 	0.83070 0.31910 0.45850 0.27400
O 	O 	0.89090 0.99170 0.39036 -0.39900
O 	O 	0.93090 0.11020 0.34074 -0.39900
O 	O 	0.94700 0.09920 0.47106 -0.63500
O 	O 	0.10570 0.19660 0.43758 -0.39200
O 	O 	0.01350 0.32720 0.41289 -0.20500
O 	O 	0.96420 0.26180 0.54179 -0.48600
O 	O 	0.92580 0.41300 0.51393 -0.41700
O 	O 	0.38790 0.28320 0.42310 -0.09800
O 	O 	0.35280 0.32190 0.41620 -0.07000
Co	Co	0.60437 0.54809 0.95963 1.16400
C 	C 	0.39300 0.58280 0.87798 0.49400
C 	C 	0.35210 0.66580 0.90768 -0.61600
C 	C 	0.42200 0.69000 0.94758 0.35300
C 	C 	0.36040 0.76660 0.97656 -0.65600
C 	C 	0.42260 0.81600 0.01328 0.53000
C 	C 	0.52230 0.74200 0.93128 0.18000
H 	H 	0.28510 0.64240 0.91870 0.21100
H 	H 	0.34420 0.72840 0.89110 0.24000
H 	H 	0.30580 0.72750 0.98970 0.22500
H 	H 	0.33070 0.81910 0.95850 0.26800
O 	O 	0.39090 0.49170 0.89036 -0.51600
O 	O 	0.43090 0.61020 0.84074 -0.45600
O 	O 	0.44700 0.59920 0.97106 -0.62900
O 	O 	0.60570 0.69660 0.93758 -0.39100
O 	O 	0.51350 0.82720 0.91289 -0.16000
O 	O 	0.46420 0.76180 0.04179 -0.51100
O 	O 	0.42580 0.91300 0.01393 -0.41400
O 	O 	0.88790 0.78320 0.92310 -0.07400
O 	O 	0.85280 0.82190 0.91620 -0.04300
Co	Co	0.95191 0.10437 0.54037 1.16700
C 	C 	0.91720 0.89300 0.62202 0.62100
C 	C 	0.83420 0.85210 0.59232 -0.69300
C 	C 	0.81000 0.92200 0.55242 0.44200
C 	C 	0.73340 0.86040 0.52344 -0.69200
C 	C 	0.68400 0.92260 0.48672 0.55100
C 	C 	0.75800 0.02230 0.56872 0.09100
H 	H 	0.85760 0.78510 0.58130 0.24800
H 	H 	0.77160 0.84420 0.60890 0.27100
H 	H 	0.77250 0.80580 0.51030 0.24100
H 	H 	0.68090 0.83070 0.54150 0.28200
O 	O 	0.00830 0.89090 0.60964 -0.58500
O 	O 	0.88980 0.93090 0.65926 -0.41400
O 	O 	0.90080 0.94700 0.52894 -0.58200
O 	O 	0.80340 0.10570 0.56242 -0.39400
O 	O 	0.67280 0.01350 0.58711 -0.20400
O 	O 	0.73820 0.96420 0.45821 -0.49000
O 	O 	0.58700 0.92580 0.48607 -0.41900
O 	O 	0.71680 0.38790 0.57690 -0.09200
O 	O 	0.67810 0.35280 0.58380 -0.07400
Co	Co	0.45191 0.60437 0.04037 1.16400
C 	C 	0.41720 0.39300 0.12202 0.49000
C 	C 	0.33420 0.35210 0.09232 -0.60400
C 	C 	0.31000 0.42200 0.05242 0.34100
C 	C 	0.23340 0.36040 0.02344 -0.64700
C 	C 	0.18400 0.42260 0.98672 0.53300
C 	C 	0.25800 0.52230 0.06872 0.18900
H 	H 	0.35760 0.28510 0.08130 0.20500
H 	H 	0.27160 0.34420 0.10890 0.22500
H 	H 	0.27250 0.30580 0.01030 0.21600
H 	H 	0.18090 0.33070 0.04150 0.24300
O 	O 	0.50830 0.39090 0.10964 -0.51400
O 	O 	0.38980 0.43090 0.15926 -0.46200
O 	O 	0.40080 0.44700 0.02894 -0.62700
O 	O 	0.30340 0.60570 0.06242 -0.40100
O 	O 	0.17280 0.51350 0.08711 -0.20200
O 	O 	0.23820 0.46420 0.95821 -0.52100
O 	O 	0.08700 0.42580 0.98607 -0.48700
O 	O 	0.21680 0.88790 0.07690 -0.06100
O 	O 	0.17810 0.85280 0.08380 -0.09600
Co	Co	0.04809 0.89563 0.54037 1.16200
C 	C 	0.08280 0.10700 0.62202 0.35200
C 	C 	0.16580 0.14790 0.59232 -0.52600
C 	C 	0.19000 0.07800 0.55242 0.25300
C 	C 	0.26660 0.13960 0.52344 -0.62400
C 	C 	0.31600 0.07740 0.48672 0.51600
C 	C 	0.24200 0.97770 0.56872 0.28200
H 	H 	0.14240 0.21490 0.58130 0.17200
H 	H 	0.22840 0.15580 0.60890 0.19600
H 	H 	0.22750 0.19420 0.51030 0.21400
H 	H 	0.31910 0.16930 0.54150 0.24200
O 	O 	0.99170 0.10910 0.60964 -0.42800
O 	O 	0.11020 0.06910 0.65926 -0.47500
O 	O 	0.09920 0.05300 0.52894 -0.67800
O 	O 	0.19660 0.89430 0.56242 -0.40100
O 	O 	0.32720 0.98650 0.58711 -0.15900
O 	O 	0.26180 0.03580 0.45821 -0.54500
O 	O 	0.41300 0.07420 0.48607 -0.47800
O 	O 	0.28320 0.61210 0.57690 -0.10400
O 	O 	0.32190 0.64720 0.58380 -0.05700
Co	Co	0.54809 0.39563 0.04037 1.16300
C 	C 	0.58280 0.60700 0.12202 0.49600
C 	C 	0.66580 0.64790 0.09232 -0.62400
C 	C 	0.69000 0.57800 0.05242 0.35900
C 	C 	0.76660 0.63960 0.02344 -0.67000
C 	C 	0.81600 0.57740 0.98672 0.53600
C 	C 	0.74200 0.47770 0.06872 0.17800
H 	H 	0.64240 0.71490 0.08130 0.21800
H 	H 	0.72840 0.65580 0.10890 0.24500
H 	H 	0.72750 0.69420 0.01030 0.23900
H 	H 	0.81910 0.66930 0.04150 0.28100
O 	O 	0.49170 0.60910 0.10964 -0.51600
O 	O 	0.61020 0.56910 0.15926 -0.45800
O 	O 	0.59920 0.55300 0.02894 -0.63000
O 	O 	0.69660 0.39430 0.06242 -0.39300
O 	O 	0.82720 0.48650 0.08711 -0.16000
O 	O 	0.76180 0.53580 0.95821 -0.51300
O 	O 	0.91300 0.57420 0.98607 -0.41100
O 	O 	0.78320 0.11210 0.07690 -0.13500
O 	O 	0.82190 0.14720 0.08380 -0.03400
Co	Co	0.60437 0.95191 0.29037 1.18100
C 	C 	0.39300 0.91720 0.37202 0.61300
C 	C 	0.35210 0.83420 0.34232 -0.66800
C 	C 	0.42200 0.81000 0.30242 0.36400
C 	C 	0.36040 0.73340 0.27344 -0.66500
C 	C 	0.42260 0.68400 0.23672 0.53700
C 	C 	0.52230 0.75800 0.31872 0.17900
H 	H 	0.28510 0.85760 0.33130 0.24100
H 	H 	0.34420 0.77160 0.35890 0.24900
H 	H 	0.30580 0.77250 0.26030 0.23100
H 	H 	0.33070 0.68090 0.29150 0.26000
O 	O 	0.39090 0.00830 0.35964 -0.61000
O 	O 	0.43090 0.88980 0.40926 -0.45800
O 	O 	0.44700 0.90080 0.27894 -0.60000
O 	O 	0.60570 0.80340 0.31242 -0.39700
O 	O 	0.51350 0.67280 0.33711 -0.18000
O 	O 	0.46420 0.73820 0.20821 -0.52000
O 	O 	0.42580 0.58700 0.23607 -0.45900
O 	O 	0.88790 0.71680 0.32690 -0.06400
O 	O 	0.85280 0.67810 0.33380 -0.07100
Co	Co	0.10437 0.45191 0.79037 1.14800
C 	C 	0.89300 0.41720 0.87202 0.50400
C 	C 	0.85210 0.33420 0.84232 -0.63200
C 	C 	0.92200 0.31000 0.80242 0.42300
C 	C 	0.86040 0.23340 0.77344 -0.67500
C 	C 	0.92260 0.18400 0.73672 0.54700
C 	C 	0.02230 0.25800 0.81872 0.09700
H 	H 	0.78510 0.35760 0.83130 0.21300
H 	H 	0.84420 0.27160 0.85890 0.24900
H 	H 	0.80580 0.27250 0.76030 0.22700
H 	H 	0.83070 0.18090 0.79150 0.26600
O 	O 	0.89090 0.50830 0.85964 -0.49300
O 	O 	0.93090 0.38980 0.90926 -0.41600
O 	O 	0.94700 0.40080 0.77894 -0.60700
O 	O 	0.10570 0.30340 0.81242 -0.39800
O 	O 	0.01350 0.17280 0.83711 -0.22600
O 	O 	0.96420 0.23820 0.70821 -0.49000
O 	O 	0.92580 0.08700 0.73607 -0.44500
O 	O 	0.38790 0.21680 0.82690 -0.09000
O 	O 	0.35280 0.17810 0.83380 -0.09900
Co	Co	0.39563 0.04809 0.29037 1.14600
C 	C 	0.60700 0.08280 0.37202 0.37300
C 	C 	0.64790 0.16580 0.34232 -0.55900
C 	C 	0.57800 0.19000 0.30242 0.33700
C 	C 	0.63960 0.26660 0.27344 -0.65600
C 	C 	0.57740 0.31600 0.23672 0.53600
C 	C 	0.47770 0.24200 0.31872 0.18800
H 	H 	0.71490 0.14240 0.33130 0.18300
H 	H 	0.65580 0.22840 0.35890 0.22100
H 	H 	0.69420 0.22750 0.26030 0.22600
H 	H 	0.66930 0.31910 0.29150 0.26600
O 	O 	0.60910 0.99170 0.35964 -0.41600
O 	O 	0.56910 0.11020 0.40926 -0.44600
O 	O 	0.55300 0.09920 0.27894 -0.65700
O 	O 	0.39430 0.19660 0.31242 -0.39800
O 	O 	0.48650 0.32720 0.33711 -0.18200
O 	O 	0.53580 0.26180 0.20821 -0.51800
O 	O 	0.57420 0.41300 0.23607 -0.45400
O 	O 	0.11210 0.28320 0.32690 -0.13000
O 	O 	0.14720 0.32190 0.33380 -0.06100
Co	Co	0.89563 0.54809 0.79037 1.17900
C 	C 	0.10700 0.58280 0.87202 0.48000
C 	C 	0.14790 0.66580 0.84232 -0.59400
C 	C 	0.07800 0.69000 0.80242 0.27900
C 	C 	0.13960 0.76660 0.77344 -0.64000
C 	C 	0.07740 0.81600 0.73672 0.51800
C 	C 	0.97770 0.74200 0.81872 0.26800
H 	H 	0.21490 0.64240 0.83130 0.20800
H 	H 	0.15580 0.72840 0.85890 0.22100
H 	H 	0.19420 0.72750 0.76030 0.22700
H 	H 	0.16930 0.81910 0.79150 0.25900
O 	O 	0.10910 0.49170 0.85964 -0.53200
O 	O 	0.06910 0.61020 0.90926 -0.48700
O 	O 	0.05300 0.59920 0.77894 -0.65000
O 	O 	0.89430 0.69660 0.81242 -0.39600
O 	O 	0.98650 0.82720 0.83711 -0.13800
O 	O 	0.03580 0.76180 0.70821 -0.53800
O 	O 	0.07420 0.91300 0.73607 -0.43400
O 	O 	0.61210 0.78320 0.82690 -0.10800
O 	O 	0.64720 0.82190 0.83380 -0.03200
Co	Co	0.54809 0.10437 0.20963 1.14800
C 	C 	0.58280 0.89300 0.12798 0.50700
C 	C 	0.66580 0.85210 0.15768 -0.64400
C 	C 	0.69000 0.92200 0.19758 0.43100
C 	C 	0.76660 0.86040 0.22656 -0.68200
C 	C 	0.81600 0.92260 0.26328 0.54400
C 	C 	0.74200 0.02230 0.18128 0.09100
H 	H 	0.64240 0.78510 0.16870 0.21900
H 	H 	0.72840 0.84420 0.14110 0.26300
H 	H 	0.72750 0.80580 0.23970 0.23500
H 	H 	0.81910 0.83070 0.20850 0.28900
O 	O 	0.49170 0.89090 0.14036 -0.49400
O 	O 	0.61020 0.93090 0.09074 -0.41200
O 	O 	0.59920 0.94700 0.22106 -0.60900
O 	O 	0.69660 0.10570 0.18758 -0.38700
O 	O 	0.82720 0.01350 0.16289 -0.18200
O 	O 	0.76180 0.96420 0.29179 -0.48200
O 	O 	0.91300 0.92580 0.26393 -0.37600
O 	O 	0.78320 0.38790 0.17310 -0.10200
O 	O 	0.82190 0.35280 0.16620 -0.04300
Co	Co	0.04809 0.60437 0.70963 1.14600
C 	C 	0.08280 0.39300 0.62798 0.36800
C 	C 	0.16580 0.35210 0.65768 -0.55000
C 	C 	0.19000 0.42200 0.69758 0.32900
C 	C 	0.26660 0.36040 0.72656 -0.64000
C 	C 	0.31600 0.42260 0.76328 0.52900
C 	C 	0.24200 0.52230 0.68128 0.19000
H 	H 	0.14240 0.28510 0.66870 0.17500
H 	H 	0.22840 0.34420 0.64110 0.21600
H 	H 	0.22750 0.30580 0.73970 0.21100
H 	H 	0.31910 0.33070 0.70850 0.25100
O 	O 	0.99170 0.39090 0.64036 -0.41400
O 	O 	0.11020 0.43090 0.59074 -0.44400
O 	O 	0.09920 0.44700 0.72106 -0.65700
O 	O 	0.19660 0.60570 0.68758 -0.39500
O 	O 	0.32720 0.51350 0.66289 -0.18200
O 	O 	0.26180 0.46420 0.79179 -0.51700
O 	O 	0.41300 0.42580 0.76393 -0.45700
O 	O 	0.28320 0.88790 0.67310 -0.06800
O 	O 	0.32190 0.85280 0.66620 -0.06900
Co	Co	0.45191 0.89563 0.20963 1.17900
C 	C 	0.41720 0.10700 0.12798 0.47500
C 	C 	0.33420 0.14790 0.15768 -0.58000
C 	C 	0.31000 0.07800 0.19758 0.26400
C 	C 	0.23340 0.13960 0.22656 -0.63100
C 	C 	0.18400 0.07740 0.26328 0.52100
C 	C 	0.25800 0.97770 0.18128 0.28000
H 	H 	0.35760 0.21490 0.16870 0.20200
H 	H 	0.27160 0.15580 0.14110 0.20500
H 	H 	0.27250 0.19420 0.23970 0.21900
H 	H 	0.18090 0.16930 0.20850 0.23400
O 	O 	0.50830 0.10910 0.14036 -0.53000
O 	O 	0.38980 0.06910 0.09074 -0.49300
O 	O 	0.40080 0.05300 0.22106 -0.64800
O 	O 	0.30340 0.89430 0.18758 -0.40700
O 	O 	0.17280 0.98650 0.16289 -0.17800
O 	O 	0.23820 0.03580 0.29179 -0.54900
O 	O 	0.08700 0.07420 0.26393 -0.50700
O 	O 	0.21680 0.61210 0.17310 -0.09700
O 	O 	0.17810 0.64720 0.16620 -0.08500
Co	Co	0.95191 0.39563 0.70963 1.18100
C 	C 	0.91720 0.60700 0.62798 0.61300
C 	C 	0.83420 0.64790 0.65768 -0.67500
C 	C 	0.81000 0.57800 0.69758 0.37100
C 	C 	0.73340 0.63960 0.72656 -0.68000
C 	C 	0.68400 0.57740 0.76328 0.54400
C 	C 	0.75800 0.47770 0.68128 0.17700
H 	H 	0.85760 0.71490 0.66870 0.24600
H 	H 	0.77160 0.65580 0.64110 0.25400
H 	H 	0.77250 0.69420 0.73970 0.24500
H 	H 	0.68090 0.66930 0.70850 0.27400
O 	O 	0.00830 0.60910 0.64036 -0.60900
O 	O 	0.88980 0.56910 0.59074 -0.45900
O 	O 	0.90080 0.55300 0.72106 -0.60100
O 	O 	0.80340 0.39430 0.68758 -0.39900
O 	O 	0.67280 0.48650 0.66289 -0.18100
O 	O 	0.73820 0.53580 0.79179 -0.52200
O 	O 	0.58700 0.57420 0.76393 -0.45600
O 	O 	0.71680 0.11210 0.67310 -0.12400
O 	O 	0.67810 0.14720 0.66620 -0.06500
Co	Co	0.00000 0.00000 0.30727 1.11900
Co	Co	0.50000 0.50000 0.80727 1.20000
Co	Co	-0.00000 -0.00000 0.69273 1.11900
Co	Co	0.50000 0.50000 0.19273 1.20000
Co	Co	0.50000 0.00000 0.44273 1.16000
Co	Co	-0.00000 0.50000 0.94273 1.16000
Co	Co	0.50000 0.00000 0.05727 1.16000
Co	Co	0.00000 0.50000 0.55727 1.15900
K 	K 	0.75000 0.83937 0.37500 0.66800
K 	K 	0.25000 0.33937 0.87500 0.66300
K 	K 	0.25000 0.16063 0.37500 0.66400
K 	K 	0.75000 0.66063 0.87500 0.66800
K 	K 	0.83937 0.25000 0.62500 0.66500
K 	K 	0.16063 0.75000 0.62500 0.66700
K 	K 	0.66063 0.25000 0.12500 0.66500
K 	K 	0.33937 0.75000 0.12500 0.66600
