data_crystal

_cell_length_a 13.12610
_cell_length_b 17.13150
_cell_length_c 17.13150
_cell_angle_alpha 81.56050
_cell_angle_beta  67.47420
_cell_angle_gamma 67.47430

_symmetry_space_group_name_	'P 1'
_symmetry_space_group_name_H-M	'P 1'

loop_
_symmetry_equiv_pos_as_xyz
  x,y,z

loop_
_atom_site_label
_atom_site_type_symbol
_atom_site_fract_x
_atom_site_fract_y
_atom_site_fract_z
_atom_site_charge
Cu	Cu	0.36695 0.25000 0.76610 0.81500
Cu	Cu	0.88305 0.25000 0.73390 0.80800
Cu	Cu	0.63305 0.23390 0.75000 0.81500
Cu	Cu	0.11695 0.26610 0.75000 0.81700
Cu	Cu	0.63305 0.75000 0.23390 0.81500
Cu	Cu	0.11695 0.75000 0.26610 0.81800
Cu	Cu	0.36695 0.76610 0.25000 0.81600
Cu	Cu	0.88305 0.73390 0.25000 0.80900
H 	H 	0.21020 0.18250 0.94570 0.07000
H 	H 	0.25730 0.14590 0.85650 0.03100
H 	H 	0.26750 0.01600 0.90240 0.07100
H 	H 	0.14620 0.07500 0.95860 0.07400
H 	H 	0.83840 0.31750 0.55430 0.07600
H 	H 	0.75970 0.35410 0.64350 0.04100
H 	H 	0.68590 0.48400 0.59760 0.05800
H 	H 	0.67980 0.42500 0.54140 0.05900
H 	H 	0.65590 0.05430 0.68250 0.06400
H 	H 	0.61380 0.14350 0.64590 0.02700
H 	H 	0.66990 0.09760 0.51600 0.07300
H 	H 	0.60480 0.04140 0.57500 0.07500
H 	H 	0.89270 0.44570 0.81750 0.06900
H 	H 	0.90320 0.35650 0.85410 0.02900
H 	H 	0.78350 0.40240 0.98400 0.06600
H 	H 	0.72120 0.45860 0.92500 0.07000
H 	H 	0.16160 0.44570 0.68250 0.06200
H 	H 	0.24030 0.35650 0.64590 0.02200
H 	H 	0.31410 0.40240 0.51600 0.08000
H 	H 	0.32020 0.45860 0.57500 0.08100
H 	H 	0.78980 0.05430 0.81750 0.06800
H 	H 	0.74270 0.14350 0.85410 0.03100
H 	H 	0.73250 0.09760 0.98400 0.06300
H 	H 	0.85380 0.04140 0.92500 0.06100
H 	H 	0.10730 0.18250 0.55430 0.06700
H 	H 	0.09680 0.14590 0.64350 0.02800
H 	H 	0.21650 0.01600 0.59760 0.07200
H 	H 	0.27880 0.07500 0.54140 0.07100
H 	H 	0.34410 0.31750 0.94570 0.07300
H 	H 	0.38620 0.35410 0.85650 0.03600
H 	H 	0.33010 0.48400 0.90240 0.06600
H 	H 	0.39520 0.42500 0.95860 0.06600
H 	H 	0.78980 0.81750 0.05430 0.06800
H 	H 	0.74270 0.85410 0.14350 0.03100
H 	H 	0.73250 0.98400 0.09760 0.06300
H 	H 	0.85380 0.92500 0.04140 0.06100
H 	H 	0.16160 0.68250 0.44570 0.06200
H 	H 	0.24030 0.64590 0.35650 0.02200
H 	H 	0.31410 0.51600 0.40240 0.08000
H 	H 	0.32020 0.57500 0.45860 0.08100
H 	H 	0.34410 0.94570 0.31750 0.07300
H 	H 	0.38620 0.85650 0.35410 0.03600
H 	H 	0.33010 0.90240 0.48400 0.06600
H 	H 	0.39520 0.95860 0.42500 0.06600
H 	H 	0.10730 0.55430 0.18250 0.06700
H 	H 	0.09680 0.64350 0.14590 0.02800
H 	H 	0.21650 0.59760 0.01600 0.07200
H 	H 	0.27880 0.54140 0.07500 0.07100
H 	H 	0.83840 0.55430 0.31750 0.07600
H 	H 	0.75970 0.64350 0.35410 0.04100
H 	H 	0.68590 0.59760 0.48400 0.05800
H 	H 	0.67980 0.54140 0.42500 0.05900
H 	H 	0.21020 0.94570 0.18250 0.07000
H 	H 	0.25730 0.85650 0.14590 0.03100
H 	H 	0.26750 0.90240 0.01600 0.07100
H 	H 	0.14620 0.95860 0.07500 0.07400
H 	H 	0.89270 0.81750 0.44570 0.06900
H 	H 	0.90320 0.85410 0.35650 0.02900
H 	H 	0.78350 0.98400 0.40240 0.06600
H 	H 	0.72120 0.92500 0.45860 0.07000
H 	H 	0.65590 0.68250 0.05430 0.06400
H 	H 	0.61380 0.64590 0.14350 0.02700
H 	H 	0.66990 0.51600 0.09760 0.07300
H 	H 	0.60480 0.57500 0.04140 0.07500
H 	H 	0.20780 0.06510 0.06510 0.03700
H 	H 	0.83800 0.43490 0.43490 0.04500
H 	H 	0.77290 0.93490 0.56510 0.02900
H 	H 	0.77290 0.56510 0.93490 0.02900
H 	H 	0.16200 0.56510 0.56510 0.02800
H 	H 	0.79220 0.93490 0.93490 0.03600
H 	H 	0.22710 0.06510 0.43490 0.04300
H 	H 	0.22710 0.43490 0.06510 0.04300
C 	C 	0.38670 0.11950 0.90170 0.08100
C 	C 	0.44130 0.05910 0.95270 -0.02200
C 	C 	0.26320 0.13430 0.91110 -0.16000
C 	C 	0.22980 0.05850 0.94470 -0.11500
C 	C 	0.90790 0.38050 0.59830 0.10200
C 	C 	0.95310 0.44090 0.54730 -0.07800
C 	C 	0.80860 0.36570 0.58890 -0.19400
C 	C 	0.73300 0.44150 0.55530 -0.07500
C 	C 	0.78840 0.09830 0.61950 0.07000
C 	C 	0.89400 0.04730 0.55910 -0.00300
C 	C 	0.67430 0.08890 0.63430 -0.14700
C 	C 	0.67450 0.05530 0.55850 -0.12600
C 	C 	0.00620 0.40170 0.88050 0.09400
C 	C 	0.00040 0.45270 0.94090 0.01200
C 	C 	0.89750 0.41110 0.86570 -0.18300
C 	C 	0.78830 0.44470 0.94150 -0.11300
C 	C 	0.09210 0.40170 0.61950 0.06200
C 	C 	0.04690 0.45270 0.55910 0.03200
C 	C 	0.19140 0.41110 0.63430 -0.13100
C 	C 	0.26700 0.44470 0.55850 -0.14600
C 	C 	0.61330 0.09830 0.88050 0.08300
C 	C 	0.55870 0.04730 0.94090 -0.02400
C 	C 	0.73680 0.08890 0.86570 -0.16800
C 	C 	0.77020 0.05530 0.94150 -0.09900
C 	C 	0.99380 0.11950 0.59830 0.06600
C 	C 	0.99960 0.05910 0.54730 -0.05800
C 	C 	0.10250 0.13430 0.58890 -0.13700
C 	C 	0.21170 0.05850 0.55530 -0.11200
C 	C 	0.21160 0.38050 0.90170 0.09300
C 	C 	0.10600 0.44090 0.95270 -0.04300
C 	C 	0.32570 0.36570 0.91110 -0.17700
C 	C 	0.32550 0.44150 0.94470 -0.09700
C 	C 	0.61330 0.88050 0.09830 0.08300
C 	C 	0.55870 0.94090 0.04730 -0.02400
C 	C 	0.73680 0.86570 0.08890 -0.16800
C 	C 	0.77020 0.94150 0.05530 -0.09900
C 	C 	0.09210 0.61950 0.40170 0.06200
C 	C 	0.04690 0.55910 0.45270 0.03200
C 	C 	0.19140 0.63430 0.41110 -0.13100
C 	C 	0.26700 0.55850 0.44470 -0.14600
C 	C 	0.21160 0.90170 0.38050 0.09300
C 	C 	0.10600 0.95270 0.44090 -0.04300
C 	C 	0.32570 0.91110 0.36570 -0.17700
C 	C 	0.32550 0.94470 0.44150 -0.09700
C 	C 	0.99380 0.59830 0.11950 0.06600
C 	C 	0.99960 0.54730 0.05910 -0.05800
C 	C 	0.10250 0.58890 0.13430 -0.13700
C 	C 	0.21170 0.55530 0.05850 -0.11200
C 	C 	0.90790 0.59830 0.38050 0.10200
C 	C 	0.95310 0.54730 0.44090 -0.07800
C 	C 	0.80860 0.58890 0.36570 -0.19400
C 	C 	0.73300 0.55530 0.44150 -0.07500
C 	C 	0.38670 0.90170 0.11950 0.08100
C 	C 	0.44130 0.95270 0.05910 -0.02200
C 	C 	0.26320 0.91110 0.13430 -0.16000
C 	C 	0.22980 0.94470 0.05850 -0.11500
C 	C 	0.00620 0.88050 0.40170 0.09400
C 	C 	0.00040 0.94090 0.45270 0.01200
C 	C 	0.89750 0.86570 0.41110 -0.18300
C 	C 	0.78830 0.94150 0.44470 -0.11300
C 	C 	0.78840 0.61950 0.09830 0.07000
C 	C 	0.89400 0.55910 0.04730 -0.00300
C 	C 	0.67430 0.63430 0.08890 -0.14700
C 	C 	0.67450 0.55850 0.05530 -0.12600
C 	C 	0.38070 0.01150 0.01150 0.00600
C 	C 	0.25670 0.02280 0.02280 -0.00200
C 	C 	0.90370 0.48850 0.48850 0.04300
C 	C 	0.80230 0.47720 0.47720 -0.04200
C 	C 	0.89220 0.98850 0.51150 -0.03200
C 	C 	0.77950 0.97720 0.52280 0.01100
C 	C 	0.89220 0.51150 0.98850 -0.03200
C 	C 	0.77950 0.52280 0.97720 0.01100
C 	C 	0.09630 0.51150 0.51150 -0.03100
C 	C 	0.19770 0.52280 0.52280 0.03200
C 	C 	0.61930 0.98850 0.98850 0.00800
C 	C 	0.74330 0.97720 0.97720 -0.01500
C 	C 	0.10780 0.01150 0.48850 0.04400
C 	C 	0.22050 0.02280 0.47720 -0.02000
C 	C 	0.10780 0.48850 0.01150 0.04400
C 	C 	0.22050 0.47720 0.02280 -0.02000
I 	I 	0.50000 0.33278 0.66722 -0.47200
I 	I 	-0.00000 0.16722 0.83278 -0.44700
I 	I 	0.66722 0.33278 0.83278 -0.47700
I 	I 	0.33278 0.16722 0.66722 -0.47100
I 	I 	0.50000 0.66722 0.33278 -0.47200
I 	I 	0.00000 0.83278 0.16722 -0.44700
I 	I 	0.33278 0.66722 0.16722 -0.47100
I 	I 	0.66722 0.83278 0.33278 -0.47700
N 	N 	0.44160 0.16510 0.84570 -0.21500
N 	N 	0.95240 0.33490 0.65430 -0.23100
N 	N 	0.78730 0.15430 0.66510 -0.21400
N 	N 	0.10670 0.34570 0.83490 -0.21500
N 	N 	0.04760 0.34570 0.66510 -0.20000
N 	N 	0.55840 0.15430 0.83490 -0.21600
N 	N 	0.89330 0.16510 0.65430 -0.21600
N 	N 	0.21270 0.33490 0.84570 -0.21700
N 	N 	0.55840 0.83490 0.15430 -0.21600
N 	N 	0.04760 0.66510 0.34570 -0.20000
N 	N 	0.21270 0.84570 0.33490 -0.21700
N 	N 	0.89330 0.65430 0.16510 -0.21600
N 	N 	0.95240 0.65430 0.33490 -0.23100
N 	N 	0.44160 0.84570 0.16510 -0.21500
N 	N 	0.10670 0.83490 0.34570 -0.21500
N 	N 	0.78730 0.66510 0.15430 -0.21400
