data_crystal

_cell_length_a 12.45220
_cell_length_b 15.93270
_cell_length_c 15.93270
_cell_angle_alpha 90.00000
_cell_angle_beta  90.00000
_cell_angle_gamma 90.00000

_symmetry_space_group_name_	'P 1'
_symmetry_space_group_name_H-M	'P 1'

loop_
_symmetry_equiv_pos_as_xyz
  x,y,z

loop_
_atom_site_label
_atom_site_type_symbol
_atom_site_fract_x
_atom_site_fract_y
_atom_site_fract_z
_atom_site_charge
Cu	Cu	0.62376 0.51565 0.00211 0.85400
Cu	Cu	0.12376 0.48435 0.99789 0.85200
Cu	Cu	0.87376 0.49789 0.01565 0.85200
Cu	Cu	0.37376 0.50211 0.98435 0.85400
Cu	Cu	0.62624 0.98435 0.50211 0.85400
Cu	Cu	0.12624 0.01565 0.49789 0.85200
Cu	Cu	0.37624 0.00211 0.51565 0.85400
Cu	Cu	0.87624 0.99789 0.48435 0.85200
H 	H 	0.24740 0.60290 0.82880 0.08900
H 	H 	0.24580 0.62990 0.92260 0.07700
H 	H 	0.75950 0.71900 0.72300 0.05300
H 	H 	0.75060 0.64950 0.94010 0.06600
H 	H 	0.75980 0.60950 0.85150 0.10100
H 	H 	0.14320 0.72150 0.83870 0.06000
H 	H 	0.23790 0.76580 0.88350 0.05500
H 	H 	0.85440 0.72880 0.84370 0.05900
H 	H 	0.76020 0.77810 0.88360 0.05200
H 	H 	0.74740 0.39710 0.17120 0.08900
H 	H 	0.74580 0.37010 0.07740 0.07800
H 	H 	0.25950 0.28100 0.27700 0.05300
H 	H 	0.25060 0.35050 0.05990 0.06600
H 	H 	0.25980 0.39050 0.14850 0.10100
H 	H 	0.64320 0.27850 0.16130 0.06000
H 	H 	0.73790 0.23420 0.11650 0.05600
H 	H 	0.35440 0.27120 0.15630 0.06000
H 	H 	0.26020 0.22190 0.11640 0.05200
H 	H 	0.49740 0.67120 0.10290 0.08800
H 	H 	0.49580 0.57740 0.12990 0.07600
H 	H 	0.00950 0.77700 0.21900 0.07200
H 	H 	0.00060 0.55990 0.14950 0.08400
H 	H 	0.00980 0.64850 0.10950 0.11900
H 	H 	0.39320 0.66130 0.22150 0.06300
H 	H 	0.48790 0.61650 0.26580 0.05800
H 	H 	0.10440 0.65630 0.22880 0.04100
H 	H 	0.01020 0.61640 0.27810 0.03500
H 	H 	0.99740 0.32880 0.89710 0.10900
H 	H 	0.99580 0.42260 0.87010 0.09800
H 	H 	0.50950 0.22300 0.78100 0.05000
H 	H 	0.50060 0.44010 0.85050 0.06300
H 	H 	0.50980 0.35150 0.89050 0.09900
H 	H 	0.89320 0.33870 0.77850 0.04000
H 	H 	0.98790 0.38350 0.73420 0.03800
H 	H 	0.60440 0.34370 0.77120 0.06200
H 	H 	0.51020 0.38360 0.72190 0.05400
H 	H 	0.00260 0.89710 0.32880 0.10900
H 	H 	0.00420 0.87010 0.42260 0.09800
H 	H 	0.49050 0.78100 0.22300 0.05000
H 	H 	0.49940 0.85050 0.44010 0.06300
H 	H 	0.49020 0.89050 0.35150 0.09900
H 	H 	0.10680 0.77850 0.33870 0.04000
H 	H 	0.01210 0.73420 0.38350 0.03800
H 	H 	0.39560 0.77120 0.34370 0.06200
H 	H 	0.48980 0.72190 0.38360 0.05400
H 	H 	0.50260 0.10290 0.67120 0.08800
H 	H 	0.50420 0.12990 0.57740 0.07600
H 	H 	0.99050 0.21900 0.77700 0.07200
H 	H 	0.99940 0.14950 0.55990 0.08400
H 	H 	0.99020 0.10950 0.64850 0.11900
H 	H 	0.60680 0.22150 0.66130 0.06300
H 	H 	0.51210 0.26580 0.61650 0.05800
H 	H 	0.89560 0.22880 0.65630 0.04100
H 	H 	0.98980 0.27810 0.61640 0.03500
H 	H 	0.75260 0.82880 0.60290 0.08900
H 	H 	0.75420 0.92260 0.62990 0.07700
H 	H 	0.24050 0.72300 0.71900 0.05300
H 	H 	0.24940 0.94010 0.64950 0.06600
H 	H 	0.24020 0.85150 0.60950 0.10100
H 	H 	0.85680 0.83870 0.72150 0.06000
H 	H 	0.76210 0.88350 0.76580 0.05500
H 	H 	0.14560 0.84370 0.72880 0.05900
H 	H 	0.23980 0.88360 0.77810 0.05200
H 	H 	0.25260 0.17120 0.39710 0.08900
H 	H 	0.25420 0.07740 0.37010 0.07800
H 	H 	0.74050 0.27700 0.28100 0.05300
H 	H 	0.74940 0.05990 0.35050 0.06600
H 	H 	0.74020 0.14850 0.39050 0.10100
H 	H 	0.35680 0.16130 0.27850 0.06000
H 	H 	0.26210 0.11650 0.23420 0.05600
H 	H 	0.64560 0.15630 0.27120 0.06000
H 	H 	0.73980 0.11640 0.22190 0.05200
C 	C 	0.60760 0.65520 0.87460 0.09400
C 	C 	0.55590 0.71040 0.81760 -0.02800
C 	C 	0.61490 0.76360 0.76240 0.02100
C 	C 	0.44360 0.71010 0.81490 -0.03100
C 	C 	0.38940 0.64900 0.86790 0.10300
C 	C 	0.27090 0.64500 0.86770 -0.21700
C 	C 	0.73710 0.76160 0.76180 -0.04800
C 	C 	0.73040 0.65590 0.88230 -0.20900
C 	C 	0.22000 0.72570 0.84080 -0.05700
C 	C 	0.77760 0.73370 0.84510 -0.05800
C 	C 	0.10760 0.34480 0.12540 0.09400
C 	C 	0.05590 0.28960 0.18240 -0.02800
C 	C 	0.11490 0.23640 0.23760 0.02100
C 	C 	0.94360 0.28990 0.18510 -0.03200
C 	C 	0.88940 0.35100 0.13210 0.10300
C 	C 	0.77090 0.35500 0.13230 -0.21700
C 	C 	0.23710 0.23840 0.23820 -0.04800
C 	C 	0.23040 0.34410 0.11770 -0.20800
C 	C 	0.72000 0.27430 0.15920 -0.05700
C 	C 	0.27760 0.26630 0.15490 -0.05800
C 	C 	0.85760 0.62540 0.15520 0.11100
C 	C 	0.80590 0.68240 0.21040 -0.04500
C 	C 	0.86490 0.73760 0.26360 0.04600
C 	C 	0.69360 0.68510 0.21010 -0.02100
C 	C 	0.63940 0.63210 0.14900 0.09800
C 	C 	0.52090 0.63230 0.14500 -0.21000
C 	C 	0.98710 0.73820 0.26160 -0.10600
C 	C 	0.98040 0.61770 0.15590 -0.26300
C 	C 	0.47000 0.65920 0.22570 -0.06500
C 	C 	0.02760 0.65490 0.23370 0.00400
C 	C 	0.35760 0.37460 0.84480 0.08900
C 	C 	0.30590 0.31760 0.78960 -0.01800
C 	C 	0.36490 0.26240 0.73640 0.01300
C 	C 	0.19360 0.31490 0.78990 -0.04900
C 	C 	0.13940 0.36790 0.85100 0.12300
C 	C 	0.02090 0.36770 0.85500 -0.27700
C 	C 	0.48710 0.26180 0.73840 -0.03900
C 	C 	0.48040 0.38230 0.84410 -0.20200
C 	C 	0.97000 0.34080 0.77430 0.00800
C 	C 	0.52760 0.34510 0.76630 -0.06600
C 	C 	0.64240 0.84480 0.37460 0.08900
C 	C 	0.69410 0.78960 0.31760 -0.01800
C 	C 	0.63510 0.73640 0.26240 0.01300
C 	C 	0.80640 0.78990 0.31490 -0.04900
C 	C 	0.86060 0.85100 0.36790 0.12300
C 	C 	0.97910 0.85500 0.36770 -0.27700
C 	C 	0.51290 0.73840 0.26180 -0.03900
C 	C 	0.51960 0.84410 0.38230 -0.20200
C 	C 	0.03000 0.77430 0.34080 0.00800
C 	C 	0.47240 0.76630 0.34510 -0.06600
C 	C 	0.14240 0.15520 0.62540 0.11100
C 	C 	0.19410 0.21040 0.68240 -0.04500
C 	C 	0.13510 0.26360 0.73760 0.04600
C 	C 	0.30640 0.21010 0.68510 -0.02100
C 	C 	0.36060 0.14900 0.63210 0.09800
C 	C 	0.47910 0.14500 0.63230 -0.21000
C 	C 	0.01290 0.26160 0.73820 -0.10600
C 	C 	0.01960 0.15590 0.61770 -0.26300
C 	C 	0.53000 0.22570 0.65920 -0.06500
C 	C 	0.97240 0.23370 0.65490 0.00400
C 	C 	0.39240 0.87460 0.65520 0.09400
C 	C 	0.44410 0.81760 0.71040 -0.02800
C 	C 	0.38510 0.76240 0.76360 0.02100
C 	C 	0.55640 0.81490 0.71010 -0.03100
C 	C 	0.61060 0.86790 0.64900 0.10300
C 	C 	0.72910 0.86770 0.64500 -0.21700
C 	C 	0.26290 0.76180 0.76160 -0.04800
C 	C 	0.26960 0.88230 0.65590 -0.20900
C 	C 	0.78000 0.84080 0.72570 -0.05700
C 	C 	0.22240 0.84510 0.73370 -0.05800
C 	C 	0.89240 0.12540 0.34480 0.09400
C 	C 	0.94410 0.18240 0.28960 -0.02800
C 	C 	0.88510 0.23760 0.23640 0.02100
C 	C 	0.05640 0.18510 0.28990 -0.03200
C 	C 	0.11060 0.13210 0.35100 0.10300
C 	C 	0.22910 0.13230 0.35500 -0.21700
C 	C 	0.76290 0.23820 0.23840 -0.04800
C 	C 	0.76960 0.11770 0.34410 -0.20800
C 	C 	0.28000 0.15920 0.27430 -0.05700
C 	C 	0.72240 0.15490 0.26630 -0.05800
N 	N 	0.55390 0.60020 0.92090 -0.21000
N 	N 	0.44250 0.59770 0.91740 -0.21400
N 	N 	0.05390 0.39980 0.07910 -0.21000
N 	N 	0.94250 0.40230 0.08260 -0.21600
N 	N 	0.80390 0.57910 0.10020 -0.21400
N 	N 	0.69250 0.58260 0.09770 -0.21300
N 	N 	0.30390 0.42090 0.89980 -0.20900
N 	N 	0.19250 0.41740 0.90230 -0.21900
N 	N 	0.69610 0.89980 0.42090 -0.20900
N 	N 	0.80750 0.90230 0.41740 -0.21900
N 	N 	0.19610 0.10020 0.57910 -0.21400
N 	N 	0.30750 0.09770 0.58260 -0.21300
N 	N 	0.44610 0.92090 0.60020 -0.21000
N 	N 	0.55750 0.91740 0.59770 -0.21400
N 	N 	0.94610 0.07910 0.39980 -0.21000
N 	N 	0.05750 0.08260 0.40230 -0.21600
Cl	Cl	0.74820 0.43734 0.92223 -0.61300
Cl	Cl	0.24820 0.56266 0.07777 -0.61300
Cl	Cl	0.99820 0.57777 0.93734 -0.61500
Cl	Cl	0.49820 0.42223 0.06266 -0.61300
Cl	Cl	0.50180 0.06266 0.42223 -0.61300
Cl	Cl	0.00180 0.93734 0.57777 -0.61500
Cl	Cl	0.25180 0.92223 0.43734 -0.61300
Cl	Cl	0.75180 0.07777 0.56266 -0.61300
