data_crystal

_cell_length_a 16.77270
_cell_length_b 16.77270
_cell_length_c 16.77270
_cell_angle_alpha 90.00000
_cell_angle_beta  90.00000
_cell_angle_gamma 90.00000

_symmetry_space_group_name_	'P 1'
_symmetry_space_group_name_H-M	'P 1'

loop_
_symmetry_equiv_pos_as_xyz
  x,y,z

loop_
_atom_site_label
_atom_site_type_symbol
_atom_site_fract_x
_atom_site_fract_y
_atom_site_fract_z
_atom_site_charge
O 	O 	0.19450 0.48310 0.09220 -0.91200
O 	O 	0.69450 0.98310 0.59220 -0.41700
O 	O 	0.80550 0.51690 0.09220 -0.85400
O 	O 	0.30550 0.01690 0.59220 -0.97700
O 	O 	0.80550 0.48310 0.90780 -0.50400
O 	O 	0.30550 0.98310 0.40780 -0.47700
O 	O 	0.19450 0.51690 0.90780 -0.56200
O 	O 	0.69450 0.01690 0.40780 -0.96200
O 	O 	0.09220 0.19450 0.48310 -0.91200
O 	O 	0.59220 0.69450 0.98310 -0.41700
O 	O 	0.09220 0.80550 0.51690 -0.85400
O 	O 	0.59220 0.30550 0.01690 -0.97700
O 	O 	0.90780 0.80550 0.48310 -0.50400
O 	O 	0.40780 0.30550 0.98310 -0.47700
O 	O 	0.90780 0.19450 0.51690 -0.56200
O 	O 	0.40780 0.69450 0.01690 -0.96100
O 	O 	0.48310 0.09220 0.19450 -0.91100
O 	O 	0.98310 0.59220 0.69450 -0.41600
O 	O 	0.51690 0.09220 0.80550 -0.85300
O 	O 	0.01690 0.59220 0.30550 -0.97600
O 	O 	0.48310 0.90780 0.80550 -0.50300
O 	O 	0.98310 0.40780 0.30550 -0.47600
O 	O 	0.51690 0.90780 0.19450 -0.56100
O 	O 	0.01690 0.40780 0.69450 -0.96100
O 	O 	0.48310 0.19450 0.09220 -0.91100
O 	O 	0.98310 0.69450 0.59220 -0.41600
O 	O 	0.51690 0.80550 0.09220 -0.85300
O 	O 	0.01690 0.30550 0.59220 -0.97600
O 	O 	0.48310 0.80550 0.90780 -0.50300
O 	O 	0.98310 0.30550 0.40780 -0.47600
O 	O 	0.51690 0.19450 0.90780 -0.56100
O 	O 	0.01690 0.69450 0.40780 -0.96100
O 	O 	0.19450 0.09220 0.48310 -0.91100
O 	O 	0.69450 0.59220 0.98310 -0.41600
O 	O 	0.80550 0.09220 0.51690 -0.85300
O 	O 	0.30550 0.59220 0.01690 -0.97600
O 	O 	0.80550 0.90780 0.48310 -0.50300
O 	O 	0.30550 0.40780 0.98310 -0.47600
O 	O 	0.19450 0.90780 0.51690 -0.56100
O 	O 	0.69450 0.40780 0.01690 -0.96100
O 	O 	0.09220 0.48310 0.19450 -0.91100
O 	O 	0.59220 0.98310 0.69450 -0.41600
O 	O 	0.09220 0.51690 0.80550 -0.85300
O 	O 	0.59220 0.01690 0.30550 -0.97600
O 	O 	0.90780 0.48310 0.80550 -0.50300
O 	O 	0.40780 0.98310 0.30550 -0.47600
O 	O 	0.90780 0.51690 0.19450 -0.56100
O 	O 	0.40780 0.01690 0.69450 -0.96100
Al	Al	-0.00000 0.50000 -0.00000 2.32500
Al	Al	0.50000 0.00000 0.50000 2.35900
Al	Al	0.00000 0.00000 0.50000 2.32500
Al	Al	0.50000 0.50000 -0.00000 2.35900
Al	Al	0.50000 0.00000 -0.00000 2.32500
Al	Al	0.00000 0.50000 0.50000 2.35900
Al	Al	0.25000 0.50000 -0.00000 2.35000
Al	Al	0.75000 0.50000 -0.00000 2.35200
Al	Al	0.00000 0.25000 0.50000 2.35000
Al	Al	0.00000 0.75000 0.50000 2.35200
Al	Al	0.50000 0.00000 0.25000 2.35000
Al	Al	0.50000 0.00000 0.75000 2.35200
Al	Al	0.50000 0.25000 -0.00000 2.35000
Al	Al	0.50000 0.75000 -0.00000 2.35200
Al	Al	0.25000 0.00000 0.50000 2.35000
Al	Al	0.75000 0.00000 0.50000 2.35200
Al	Al	0.00000 0.50000 0.25000 2.35000
Al	Al	0.00000 0.50000 0.75000 2.35200
P 	P 	0.12254 0.43536 0.12254 0.69400
O 	O 	0.14400 0.35130 0.14400 -0.51100
O 	O 	0.05810 0.43590 0.05810 -1.27400
P 	P 	0.62254 0.93536 0.62254 0.68200
O 	O 	0.64400 0.85130 0.64400 -0.14500
O 	O 	0.55810 0.93590 0.55810 -0.59600
P 	P 	0.87746 0.56464 0.12254 0.69000
O 	O 	0.85600 0.64870 0.14400 -0.20300
O 	O 	0.94190 0.56410 0.05810 -0.77400
P 	P 	0.37746 0.06464 0.62254 0.70400
O 	O 	0.35600 0.14870 0.64400 -0.29800
O 	O 	0.44190 0.06410 0.55810 -1.00200
P 	P 	0.87746 0.43536 0.87746 0.68900
O 	O 	0.85600 0.35130 0.85600 -0.05100
O 	O 	0.94190 0.43590 0.94190 -0.34100
P 	P 	0.37746 0.93536 0.37746 0.67700
O 	O 	0.35600 0.85130 0.35600 -0.23000
O 	O 	0.44190 0.93590 0.44190 -0.59700
P 	P 	0.12254 0.56464 0.87746 0.69000
O 	O 	0.14400 0.64870 0.85600 -0.20300
O 	O 	0.05810 0.56410 0.94190 -0.77400
P 	P 	0.62254 0.06464 0.37746 0.70400
O 	O 	0.64400 0.14870 0.35600 -0.29800
O 	O 	0.55810 0.06410 0.44190 -1.00200
P 	P 	0.12254 0.12254 0.43536 0.69400
O 	O 	0.14400 0.14400 0.35130 -0.51100
O 	O 	0.05810 0.05810 0.43590 -1.27400
P 	P 	0.62254 0.62254 0.93536 0.68200
O 	O 	0.64400 0.64400 0.85130 -0.14500
O 	O 	0.55810 0.55810 0.93590 -0.59600
P 	P 	0.12254 0.87746 0.56464 0.69000
O 	O 	0.14400 0.85600 0.64870 -0.20300
O 	O 	0.05810 0.94190 0.56410 -0.77400
P 	P 	0.62254 0.37746 0.06464 0.70400
O 	O 	0.64400 0.35600 0.14870 -0.29800
O 	O 	0.55810 0.44190 0.06410 -1.00200
P 	P 	0.87746 0.87746 0.43536 0.68900
O 	O 	0.85600 0.85600 0.35130 -0.05100
O 	O 	0.94190 0.94190 0.43590 -0.34100
P 	P 	0.37746 0.37746 0.93536 0.67700
O 	O 	0.35600 0.35600 0.85130 -0.23000
O 	O 	0.44190 0.44190 0.93590 -0.59700
P 	P 	0.87746 0.12254 0.56464 0.69000
O 	O 	0.85600 0.14400 0.64870 -0.20300
O 	O 	0.94190 0.05810 0.56410 -0.77400
P 	P 	0.37746 0.62254 0.06464 0.70400
O 	O 	0.35600 0.64400 0.14870 -0.29800
O 	O 	0.44190 0.55810 0.06410 -1.00200
P 	P 	0.43536 0.12254 0.12254 0.69400
O 	O 	0.35130 0.14400 0.14400 -0.51100
O 	O 	0.43590 0.05810 0.05810 -1.27400
P 	P 	0.93536 0.62254 0.62254 0.68200
O 	O 	0.85130 0.64400 0.64400 -0.14500
O 	O 	0.93590 0.55810 0.55810 -0.59600
P 	P 	0.56464 0.12254 0.87746 0.69000
O 	O 	0.64870 0.14400 0.85600 -0.20300
O 	O 	0.56410 0.05810 0.94190 -0.77400
P 	P 	0.06464 0.62254 0.37746 0.70400
O 	O 	0.14870 0.64400 0.35600 -0.29800
O 	O 	0.06410 0.55810 0.44190 -1.00200
P 	P 	0.43536 0.87746 0.87746 0.68900
O 	O 	0.35130 0.85600 0.85600 -0.05100
O 	O 	0.43590 0.94190 0.94190 -0.34100
P 	P 	0.93536 0.37746 0.37746 0.67700
O 	O 	0.85130 0.35600 0.35600 -0.23000
O 	O 	0.93590 0.44190 0.44190 -0.59700
P 	P 	0.56464 0.87746 0.12254 0.69000
O 	O 	0.64870 0.85600 0.14400 -0.20300
O 	O 	0.56410 0.94190 0.05810 -0.77400
P 	P 	0.06464 0.37746 0.62254 0.70400
O 	O 	0.14870 0.35600 0.64400 -0.29800
O 	O 	0.06410 0.44190 0.55810 -1.00200
