data_crystal

_cell_length_a 16.83060
_cell_length_b 16.83060
_cell_length_c 16.83060
_cell_angle_alpha 90.00000
_cell_angle_beta  90.00000
_cell_angle_gamma 90.00000

_symmetry_space_group_name_	'P 1'
_symmetry_space_group_name_H-M	'P 1'

loop_
_symmetry_equiv_pos_as_xyz
  x,y,z

loop_
_atom_site_label
_atom_site_type_symbol
_atom_site_fract_x
_atom_site_fract_y
_atom_site_fract_z
_atom_site_charge
O 	O 	0.97569 0.40691 0.69480 -0.31100
O 	O 	0.47569 0.90691 0.19480 -0.39200
O 	O 	0.02431 0.59309 0.69480 -0.65200
O 	O 	0.52431 0.09309 0.19480 -0.64000
O 	O 	0.02431 0.40691 0.30520 -0.70000
O 	O 	0.52431 0.90691 0.80520 -0.35200
O 	O 	0.97569 0.59309 0.30520 -0.32000
O 	O 	0.47569 0.09309 0.80520 -0.59600
O 	O 	0.69480 0.97569 0.40691 -0.31000
O 	O 	0.19480 0.47569 0.90691 -0.39100
O 	O 	0.69480 0.02431 0.59309 -0.65100
O 	O 	0.19480 0.52431 0.09309 -0.63900
O 	O 	0.30520 0.02431 0.40691 -0.69900
O 	O 	0.80520 0.52431 0.90691 -0.35100
O 	O 	0.30520 0.97569 0.59309 -0.32000
O 	O 	0.80520 0.47569 0.09309 -0.59600
O 	O 	0.40691 0.69480 0.97569 -0.31000
O 	O 	0.90691 0.19480 0.47569 -0.39100
O 	O 	0.59309 0.69480 0.02431 -0.65100
O 	O 	0.09309 0.19480 0.52431 -0.63900
O 	O 	0.40691 0.30520 0.02431 -0.69900
O 	O 	0.90691 0.80520 0.52431 -0.35100
O 	O 	0.59309 0.30520 0.97569 -0.32000
O 	O 	0.09309 0.80520 0.47569 -0.59600
O 	O 	0.40691 0.97569 0.69480 -0.31000
O 	O 	0.90691 0.47569 0.19480 -0.39100
O 	O 	0.59309 0.02431 0.69480 -0.65100
O 	O 	0.09309 0.52431 0.19480 -0.63900
O 	O 	0.40691 0.02431 0.30520 -0.69900
O 	O 	0.90691 0.52431 0.80520 -0.35100
O 	O 	0.59309 0.97569 0.30520 -0.32000
O 	O 	0.09309 0.47569 0.80520 -0.59600
O 	O 	0.97569 0.69480 0.40691 -0.31000
O 	O 	0.47569 0.19480 0.90691 -0.39100
O 	O 	0.02431 0.69480 0.59309 -0.65100
O 	O 	0.52431 0.19480 0.09309 -0.63900
O 	O 	0.02431 0.30520 0.40691 -0.69900
O 	O 	0.52431 0.80520 0.90691 -0.35100
O 	O 	0.97569 0.30520 0.59309 -0.32000
O 	O 	0.47569 0.80520 0.09309 -0.59600
O 	O 	0.69480 0.40691 0.97569 -0.31000
O 	O 	0.19480 0.90691 0.47569 -0.39100
O 	O 	0.69480 0.59309 0.02431 -0.65100
O 	O 	0.19480 0.09309 0.52431 -0.63900
O 	O 	0.30520 0.40691 0.02431 -0.69900
O 	O 	0.80520 0.90691 0.52431 -0.35100
O 	O 	0.30520 0.59309 0.97569 -0.32000
O 	O 	0.80520 0.09309 0.47569 -0.59600
Ga	Ga	-0.00000 0.50000 0.50000 1.99900
Ga	Ga	0.50000 0.00000 -0.00000 1.92600
Ga	Ga	0.50000 -0.00000 0.50000 1.99900
Ga	Ga	-0.00000 0.50000 -0.00000 1.92600
Ga	Ga	0.50000 0.50000 -0.00000 1.99900
Ga	Ga	-0.00000 -0.00000 0.50000 1.92600
Mg	Mg	-0.00000 0.50000 0.75000 1.44700
Mg	Mg	-0.00000 0.50000 0.25000 1.44400
Mg	Mg	0.75000 -0.00000 0.50000 1.44700
Mg	Mg	0.25000 -0.00000 0.50000 1.44400
Mg	Mg	0.50000 0.75000 -0.00000 1.44700
Mg	Mg	0.50000 0.25000 -0.00000 1.44400
Mg	Mg	0.50000 -0.00000 0.75000 1.44700
Mg	Mg	0.50000 -0.00000 0.25000 1.44400
Mg	Mg	-0.00000 0.75000 0.50000 1.44700
Mg	Mg	-0.00000 0.25000 0.50000 1.44400
Mg	Mg	0.75000 0.50000 -0.00000 1.44700
Mg	Mg	0.25000 0.50000 -0.00000 1.44400
P 	P 	0.92977 0.37768 0.62232 0.60500
O 	O 	0.84440 0.35738 0.64262 -0.16200
O 	O 	0.92960 0.44212 0.55788 -0.51100
P 	P 	0.42977 0.87768 0.12232 0.61100
O 	O 	0.34440 0.85738 0.14262 -0.22500
O 	O 	0.42960 0.94212 0.05788 -0.63800
P 	P 	0.07023 0.62232 0.62232 0.62000
O 	O 	0.15560 0.64262 0.64262 -0.20500
O 	O 	0.07040 0.55788 0.55788 -0.77900
P 	P 	0.57023 0.12232 0.12232 0.61200
O 	O 	0.65560 0.14262 0.14262 -0.33000
O 	O 	0.57040 0.05788 0.05788 -0.95100
P 	P 	0.07023 0.37768 0.37768 0.61800
O 	O 	0.15560 0.35738 0.35738 -0.26500
O 	O 	0.07040 0.44212 0.44212 -0.78100
P 	P 	0.57023 0.87768 0.87768 0.60800
O 	O 	0.65560 0.85738 0.85738 -0.01100
O 	O 	0.57040 0.94212 0.94212 -0.28700
P 	P 	0.92977 0.62232 0.37768 0.60500
O 	O 	0.84440 0.64262 0.35738 -0.16200
O 	O 	0.92960 0.55788 0.44212 -0.51100
P 	P 	0.42977 0.12232 0.87768 0.61100
O 	O 	0.34440 0.14262 0.85738 -0.22500
O 	O 	0.42960 0.05788 0.94212 -0.63800
P 	P 	0.62232 0.92977 0.37768 0.60500
O 	O 	0.64262 0.84440 0.35738 -0.16200
O 	O 	0.55788 0.92960 0.44212 -0.51100
P 	P 	0.12232 0.42977 0.87768 0.61100
O 	O 	0.14262 0.34440 0.85738 -0.22500
O 	O 	0.05788 0.42960 0.94212 -0.63800
P 	P 	0.62232 0.07023 0.62232 0.62000
O 	O 	0.64262 0.15560 0.64262 -0.20500
O 	O 	0.55788 0.07040 0.55788 -0.77900
P 	P 	0.12232 0.57023 0.12232 0.61200
O 	O 	0.14262 0.65560 0.14262 -0.33000
O 	O 	0.05788 0.57040 0.05788 -0.95100
P 	P 	0.37768 0.07023 0.37768 0.61800
O 	O 	0.35738 0.15560 0.35738 -0.26500
O 	O 	0.44212 0.07040 0.44212 -0.78100
P 	P 	0.87768 0.57023 0.87768 0.60800
O 	O 	0.85738 0.65560 0.85738 -0.01100
O 	O 	0.94212 0.57040 0.94212 -0.28700
P 	P 	0.37768 0.92977 0.62232 0.60500
O 	O 	0.35738 0.84440 0.64262 -0.16200
O 	O 	0.44212 0.92960 0.55788 -0.51100
P 	P 	0.87768 0.42977 0.12232 0.61100
O 	O 	0.85738 0.34440 0.14262 -0.22500
O 	O 	0.94212 0.42960 0.05788 -0.63800
P 	P 	0.37768 0.62232 0.92977 0.60500
O 	O 	0.35738 0.64262 0.84440 -0.16200
O 	O 	0.44212 0.55788 0.92960 -0.51100
P 	P 	0.87768 0.12232 0.42977 0.61100
O 	O 	0.85738 0.14262 0.34440 -0.22500
O 	O 	0.94212 0.05788 0.42960 -0.63800
P 	P 	0.62232 0.62232 0.07023 0.62000
O 	O 	0.64262 0.64262 0.15560 -0.20500
O 	O 	0.55788 0.55788 0.07040 -0.77900
P 	P 	0.12232 0.12232 0.57023 0.61200
O 	O 	0.14262 0.14262 0.65560 -0.33000
O 	O 	0.05788 0.05788 0.57040 -0.95100
P 	P 	0.37768 0.37768 0.07023 0.61800
O 	O 	0.35738 0.35738 0.15560 -0.26500
O 	O 	0.44212 0.44212 0.07040 -0.78100
P 	P 	0.87768 0.87768 0.57023 0.60800
O 	O 	0.85738 0.85738 0.65560 -0.01100
O 	O 	0.94212 0.94212 0.57040 -0.28700
P 	P 	0.62232 0.37768 0.92977 0.60500
O 	O 	0.64262 0.35738 0.84440 -0.16200
O 	O 	0.55788 0.44212 0.92960 -0.51100
P 	P 	0.12232 0.87768 0.42977 0.61100
O 	O 	0.14262 0.85738 0.34440 -0.22500
O 	O 	0.05788 0.94212 0.42960 -0.63800
