data_crystal

_cell_length_a 16.78240
_cell_length_b 16.78240
_cell_length_c 16.78240
_cell_angle_alpha 90.00000
_cell_angle_beta  90.00000
_cell_angle_gamma 90.00000

_symmetry_space_group_name_	'P 1'
_symmetry_space_group_name_H-M	'P 1'

loop_
_symmetry_equiv_pos_as_xyz
  x,y,z

loop_
_atom_site_label
_atom_site_type_symbol
_atom_site_fract_x
_atom_site_fract_y
_atom_site_fract_z
_atom_site_charge
O 	O 	0.02625 0.59235 0.30515 -0.70700
O 	O 	0.52625 0.09235 0.80515 -0.61600
O 	O 	0.97375 0.40765 0.30515 -0.33000
O 	O 	0.47375 0.90765 0.80515 -0.34500
O 	O 	0.97375 0.59235 0.69485 -0.28300
O 	O 	0.47375 0.09235 0.19485 -0.66400
O 	O 	0.02625 0.40765 0.69485 -0.69400
O 	O 	0.52625 0.90765 0.19485 -0.38900
O 	O 	0.30515 0.02625 0.59235 -0.70700
O 	O 	0.80515 0.52625 0.09235 -0.61600
O 	O 	0.30515 0.97375 0.40765 -0.33000
O 	O 	0.80515 0.47375 0.90765 -0.34500
O 	O 	0.69485 0.97375 0.59235 -0.28300
O 	O 	0.19485 0.47375 0.09235 -0.66400
O 	O 	0.69485 0.02625 0.40765 -0.69400
O 	O 	0.19485 0.52625 0.90765 -0.38900
O 	O 	0.59235 0.30515 0.02625 -0.70700
O 	O 	0.09235 0.80515 0.52625 -0.61600
O 	O 	0.40765 0.30515 0.97375 -0.33000
O 	O 	0.90765 0.80515 0.47375 -0.34500
O 	O 	0.59235 0.69485 0.97375 -0.28300
O 	O 	0.09235 0.19485 0.47375 -0.66400
O 	O 	0.40765 0.69485 0.02625 -0.69400
O 	O 	0.90765 0.19485 0.52625 -0.38900
O 	O 	0.59235 0.02625 0.30515 -0.70700
O 	O 	0.09235 0.52625 0.80515 -0.61600
O 	O 	0.40765 0.97375 0.30515 -0.33000
O 	O 	0.90765 0.47375 0.80515 -0.34500
O 	O 	0.59235 0.97375 0.69485 -0.28300
O 	O 	0.09235 0.47375 0.19485 -0.66400
O 	O 	0.40765 0.02625 0.69485 -0.69400
O 	O 	0.90765 0.52625 0.19485 -0.38900
O 	O 	0.02625 0.30515 0.59235 -0.70700
O 	O 	0.52625 0.80515 0.09235 -0.61600
O 	O 	0.97375 0.30515 0.40765 -0.33000
O 	O 	0.47375 0.80515 0.90765 -0.34500
O 	O 	0.97375 0.69485 0.59235 -0.28300
O 	O 	0.47375 0.19485 0.09235 -0.66400
O 	O 	0.02625 0.69485 0.40765 -0.69400
O 	O 	0.52625 0.19485 0.90765 -0.38900
O 	O 	0.30515 0.59235 0.02625 -0.70700
O 	O 	0.80515 0.09235 0.52625 -0.61600
O 	O 	0.30515 0.40765 0.97375 -0.33000
O 	O 	0.80515 0.90765 0.47375 -0.34500
O 	O 	0.69485 0.59235 0.97375 -0.28300
O 	O 	0.19485 0.09235 0.47375 -0.66400
O 	O 	0.69485 0.40765 0.02625 -0.69400
O 	O 	0.19485 0.90765 0.52625 -0.38900
Al	Al	0.00000 0.50000 0.50000 2.36500
Al	Al	0.50000 0.00000 -0.00000 2.33800
Al	Al	0.50000 0.00000 0.50000 2.36500
Al	Al	0.00000 0.50000 -0.00000 2.33800
Al	Al	0.50000 0.50000 -0.00000 2.36500
Al	Al	0.00000 0.00000 0.50000 2.33800
Mg	Mg	0.00000 0.50000 0.25000 1.44200
Mg	Mg	0.00000 0.50000 0.75000 1.44400
Mg	Mg	0.50000 0.00000 0.25000 1.44200
Mg	Mg	0.25000 0.00000 0.50000 1.44200
Mg	Mg	0.75000 0.00000 0.50000 1.44400
Mg	Mg	0.25000 0.50000 -0.00000 1.44200
Mg	Mg	0.50000 0.25000 -0.00000 1.44200
Mg	Mg	0.50000 0.75000 -0.00000 1.44400
Mg	Mg	0.00000 0.25000 0.50000 1.44200
Mg	Mg	0.50000 -0.00000 0.75000 1.44400
Mg	Mg	0.00000 0.75000 0.50000 1.44400
Mg	Mg	0.75000 0.50000 -0.00000 1.44400
P 	P 	0.07057 0.62188 0.37812 0.65100
O 	O 	0.15690 0.64080 0.35920 -0.24100
O 	O 	0.06720 0.55688 0.44312 -0.90000
P 	P 	0.57057 0.12188 0.87812 0.64100
O 	O 	0.65690 0.14080 0.85920 -0.16900
O 	O 	0.56720 0.05688 0.94312 -0.72600
P 	P 	0.92943 0.37812 0.37812 0.63100
O 	O 	0.84310 0.35920 0.35920 -0.19300
O 	O 	0.93280 0.44312 0.44312 -0.59300
P 	P 	0.42943 0.87812 0.87812 0.63700
O 	O 	0.34310 0.85920 0.85920 -0.05300
O 	O 	0.43280 0.94312 0.94312 -0.38200
P 	P 	0.92943 0.62188 0.62188 0.63500
O 	O 	0.84310 0.64080 0.64080 -0.13000
O 	O 	0.93280 0.55688 0.55688 -0.59200
P 	P 	0.42943 0.12188 0.12188 0.64600
O 	O 	0.34310 0.14080 0.14080 -0.41300
O 	O 	0.43280 0.05688 0.05688 -1.12400
P 	P 	0.07057 0.37812 0.62188 0.65100
O 	O 	0.15690 0.35920 0.64080 -0.24100
O 	O 	0.06720 0.44312 0.55688 -0.90000
P 	P 	0.57057 0.87812 0.12188 0.64100
O 	O 	0.65690 0.85920 0.14080 -0.16900
O 	O 	0.56720 0.94312 0.05688 -0.72600
P 	P 	0.37812 0.07057 0.62188 0.65100
O 	O 	0.35920 0.15690 0.64080 -0.24100
O 	O 	0.44312 0.06720 0.55688 -0.90000
P 	P 	0.87812 0.57057 0.12188 0.64100
O 	O 	0.85920 0.65690 0.14080 -0.16900
O 	O 	0.94312 0.56720 0.05688 -0.72600
P 	P 	0.37812 0.92943 0.37812 0.63100
O 	O 	0.35920 0.84310 0.35920 -0.19300
O 	O 	0.44312 0.93280 0.44312 -0.59300
P 	P 	0.87812 0.42943 0.87812 0.63700
O 	O 	0.85920 0.34310 0.85920 -0.05300
O 	O 	0.94312 0.43280 0.94312 -0.38200
P 	P 	0.62188 0.92943 0.62188 0.63500
O 	O 	0.64080 0.84310 0.64080 -0.13000
O 	O 	0.55688 0.93280 0.55688 -0.59200
P 	P 	0.12188 0.42943 0.12188 0.64600
O 	O 	0.14080 0.34310 0.14080 -0.41300
O 	O 	0.05688 0.43280 0.05688 -1.12400
P 	P 	0.62188 0.07057 0.37812 0.65100
O 	O 	0.64080 0.15690 0.35920 -0.24100
O 	O 	0.55688 0.06720 0.44312 -0.90000
P 	P 	0.12188 0.57057 0.87812 0.64100
O 	O 	0.14080 0.65690 0.85920 -0.16900
O 	O 	0.05688 0.56720 0.94312 -0.72600
P 	P 	0.62188 0.37812 0.07057 0.65100
O 	O 	0.64080 0.35920 0.15690 -0.24100
O 	O 	0.55688 0.44312 0.06720 -0.90000
P 	P 	0.12188 0.87812 0.57057 0.64100
O 	O 	0.14080 0.85920 0.65690 -0.16900
O 	O 	0.05688 0.94312 0.56720 -0.72600
P 	P 	0.37812 0.37812 0.92943 0.63100
O 	O 	0.35920 0.35920 0.84310 -0.19300
O 	O 	0.44312 0.44312 0.93280 -0.59300
P 	P 	0.87812 0.87812 0.42943 0.63700
O 	O 	0.85920 0.85920 0.34310 -0.05300
O 	O 	0.94312 0.94312 0.43280 -0.38200
P 	P 	0.62188 0.62188 0.92943 0.63500
O 	O 	0.64080 0.64080 0.84310 -0.13000
O 	O 	0.55688 0.55688 0.93280 -0.59200
P 	P 	0.12188 0.12188 0.42943 0.64600
O 	O 	0.14080 0.14080 0.34310 -0.41300
O 	O 	0.05688 0.05688 0.43280 -1.12400
P 	P 	0.37812 0.62188 0.07057 0.65100
O 	O 	0.35920 0.64080 0.15690 -0.24100
O 	O 	0.44312 0.55688 0.06720 -0.90000
P 	P 	0.87812 0.12188 0.57057 0.64100
O 	O 	0.85920 0.14080 0.65690 -0.16900
O 	O 	0.94312 0.05688 0.56720 -0.72600
