data_crystal

_cell_length_a 16.83750
_cell_length_b 16.83750
_cell_length_c 16.83750
_cell_angle_alpha 90.00000
_cell_angle_beta  90.00000
_cell_angle_gamma 90.00000

_symmetry_space_group_name_	'P 1'
_symmetry_space_group_name_H-M	'P 1'

loop_
_symmetry_equiv_pos_as_xyz
  x,y,z

loop_
_atom_site_label
_atom_site_type_symbol
_atom_site_fract_x
_atom_site_fract_y
_atom_site_fract_z
_atom_site_charge
O 	O 	0.80497 0.51783 0.90602 -0.29200
O 	O 	0.30497 0.01783 0.40602 -0.60500
O 	O 	0.19503 0.48217 0.90602 -0.32500
O 	O 	0.69503 0.98217 0.40602 -0.25000
O 	O 	0.19503 0.51783 0.09398 -0.54600
O 	O 	0.69503 0.01783 0.59398 -0.56300
O 	O 	0.80497 0.48217 0.09398 -0.50700
O 	O 	0.30497 0.98217 0.59398 -0.25600
O 	O 	0.90602 0.80497 0.51783 -0.29100
O 	O 	0.40602 0.30497 0.01783 -0.60400
O 	O 	0.90602 0.19503 0.48217 -0.32400
O 	O 	0.40602 0.69503 0.98217 -0.24900
O 	O 	0.09398 0.19503 0.51783 -0.54500
O 	O 	0.59398 0.69503 0.01783 -0.56200
O 	O 	0.09398 0.80497 0.48217 -0.50700
O 	O 	0.59398 0.30497 0.98217 -0.25600
O 	O 	0.51783 0.90602 0.80497 -0.29100
O 	O 	0.01783 0.40602 0.30497 -0.60400
O 	O 	0.48217 0.90602 0.19503 -0.32400
O 	O 	0.98217 0.40602 0.69503 -0.24900
O 	O 	0.51783 0.09398 0.19503 -0.54500
O 	O 	0.01783 0.59398 0.69503 -0.56200
O 	O 	0.48217 0.09398 0.80497 -0.50700
O 	O 	0.98217 0.59398 0.30497 -0.25600
O 	O 	0.51783 0.80497 0.90602 -0.29100
O 	O 	0.01783 0.30497 0.40602 -0.60400
O 	O 	0.48217 0.19503 0.90602 -0.32400
O 	O 	0.98217 0.69503 0.40602 -0.24900
O 	O 	0.51783 0.19503 0.09398 -0.54500
O 	O 	0.01783 0.69503 0.59398 -0.56200
O 	O 	0.48217 0.80497 0.09398 -0.50700
O 	O 	0.98217 0.30497 0.59398 -0.25600
O 	O 	0.80497 0.90602 0.51783 -0.29100
O 	O 	0.30497 0.40602 0.01783 -0.60400
O 	O 	0.19503 0.90602 0.48217 -0.32400
O 	O 	0.69503 0.40602 0.98217 -0.24900
O 	O 	0.19503 0.09398 0.51783 -0.54500
O 	O 	0.69503 0.59398 0.01783 -0.56200
O 	O 	0.80497 0.09398 0.48217 -0.50700
O 	O 	0.30497 0.59398 0.98217 -0.25600
O 	O 	0.90602 0.51783 0.80497 -0.29100
O 	O 	0.40602 0.01783 0.30497 -0.60400
O 	O 	0.90602 0.48217 0.19503 -0.32400
O 	O 	0.40602 0.98217 0.69503 -0.24900
O 	O 	0.09398 0.51783 0.19503 -0.54500
O 	O 	0.59398 0.01783 0.69503 -0.56200
O 	O 	0.09398 0.48217 0.80497 -0.50700
O 	O 	0.59398 0.98217 0.30497 -0.25600
Ga	Ga	-0.00000 0.50000 -0.00000 1.93400
Ga	Ga	0.50000 0.00000 0.50000 1.99900
Ga	Ga	0.00000 0.00000 0.50000 1.93400
Ga	Ga	0.50000 0.50000 -0.00000 1.99900
Ga	Ga	0.50000 0.00000 -0.00000 1.93400
Ga	Ga	0.00000 0.50000 0.50000 1.99900
Zn	Zn	0.75000 0.50000 -0.00000 1.15100
Zn	Zn	0.25000 0.50000 -0.00000 1.14400
Zn	Zn	-0.00000 0.75000 0.50000 1.15100
Zn	Zn	0.00000 0.25000 0.50000 1.14400
Zn	Zn	0.50000 0.00000 0.75000 1.15100
Zn	Zn	0.50000 0.00000 0.25000 1.14400
Zn	Zn	0.50000 0.75000 -0.00000 1.15100
Zn	Zn	0.50000 0.25000 -0.00000 1.14400
Zn	Zn	0.75000 0.00000 0.50000 1.15100
Zn	Zn	0.25000 0.00000 0.50000 1.14400
Zn	Zn	-0.00000 0.50000 0.75000 1.15100
Zn	Zn	0.00000 0.50000 0.25000 1.14400
P 	P 	0.87638 0.56648 0.87638 0.57100
O 	O 	0.85285 0.65002 0.85285 -0.02400
O 	O 	0.94072 0.57099 0.94072 -0.30300
P 	P 	0.37638 0.06648 0.37638 0.57300
O 	O 	0.35285 0.15002 0.35285 -0.25000
O 	O 	0.44072 0.07099 0.44072 -0.74000
P 	P 	0.12362 0.43352 0.87638 0.56800
O 	O 	0.14715 0.34998 0.85285 -0.21000
O 	O 	0.05928 0.42901 0.94072 -0.61400
P 	P 	0.62362 0.93352 0.37638 0.56500
O 	O 	0.64715 0.84998 0.35285 -0.15300
O 	O 	0.55928 0.92901 0.44072 -0.50000
P 	P 	0.12362 0.56648 0.12362 0.56500
O 	O 	0.14715 0.65002 0.14715 -0.30300
O 	O 	0.05928 0.57099 0.05928 -0.88900
P 	P 	0.62362 0.06648 0.62362 0.57600
O 	O 	0.64715 0.15002 0.64715 -0.19400
O 	O 	0.55928 0.07099 0.55928 -0.73900
P 	P 	0.87638 0.43352 0.12362 0.56800
O 	O 	0.85285 0.34998 0.14715 -0.21000
O 	O 	0.94072 0.42901 0.05928 -0.61400
P 	P 	0.37638 0.93352 0.62362 0.56500
O 	O 	0.35285 0.84998 0.64715 -0.15300
O 	O 	0.44072 0.92901 0.55928 -0.50000
P 	P 	0.87638 0.87638 0.56648 0.57100
O 	O 	0.85285 0.85285 0.65002 -0.02400
O 	O 	0.94072 0.94072 0.57099 -0.30300
P 	P 	0.37638 0.37638 0.06648 0.57300
O 	O 	0.35285 0.35285 0.15002 -0.25000
O 	O 	0.44072 0.44072 0.07099 -0.74000
P 	P 	0.87638 0.12362 0.43352 0.56800
O 	O 	0.85285 0.14715 0.34998 -0.21000
O 	O 	0.94072 0.05928 0.42901 -0.61400
P 	P 	0.37638 0.62362 0.93352 0.56500
O 	O 	0.35285 0.64715 0.84998 -0.15300
O 	O 	0.44072 0.55928 0.92901 -0.50000
P 	P 	0.12362 0.12362 0.56648 0.56500
O 	O 	0.14715 0.14715 0.65002 -0.30300
O 	O 	0.05928 0.05928 0.57099 -0.88900
P 	P 	0.62362 0.62362 0.06648 0.57600
O 	O 	0.64715 0.64715 0.15002 -0.19400
O 	O 	0.55928 0.55928 0.07099 -0.73900
P 	P 	0.12362 0.87638 0.43352 0.56800
O 	O 	0.14715 0.85285 0.34998 -0.21000
O 	O 	0.05928 0.94072 0.42901 -0.61400
P 	P 	0.62362 0.37638 0.93352 0.56500
O 	O 	0.64715 0.35285 0.84998 -0.15300
O 	O 	0.55928 0.44072 0.92901 -0.50000
P 	P 	0.56648 0.87638 0.87638 0.57100
O 	O 	0.65002 0.85285 0.85285 -0.02400
O 	O 	0.57099 0.94072 0.94072 -0.30300
P 	P 	0.06648 0.37638 0.37638 0.57300
O 	O 	0.15002 0.35285 0.35285 -0.25000
O 	O 	0.07099 0.44072 0.44072 -0.74000
P 	P 	0.43352 0.87638 0.12362 0.56800
O 	O 	0.34998 0.85285 0.14715 -0.21000
O 	O 	0.42901 0.94072 0.05928 -0.61400
P 	P 	0.93352 0.37638 0.62362 0.56500
O 	O 	0.84998 0.35285 0.64715 -0.15300
O 	O 	0.92901 0.44072 0.55928 -0.50000
P 	P 	0.56648 0.12362 0.12362 0.56500
O 	O 	0.65002 0.14715 0.14715 -0.30300
O 	O 	0.57099 0.05928 0.05928 -0.88900
P 	P 	0.06648 0.62362 0.62362 0.57600
O 	O 	0.15002 0.64715 0.64715 -0.19400
O 	O 	0.07099 0.55928 0.55928 -0.73900
P 	P 	0.43352 0.12362 0.87638 0.56800
O 	O 	0.34998 0.14715 0.85285 -0.21000
O 	O 	0.42901 0.05928 0.94072 -0.61400
P 	P 	0.93352 0.62362 0.37638 0.56500
O 	O 	0.84998 0.64715 0.35285 -0.15300
O 	O 	0.92901 0.55928 0.44072 -0.50000
