data_crystal

_cell_length_a 16.78870
_cell_length_b 16.78870
_cell_length_c 16.78870
_cell_angle_alpha 90.00000
_cell_angle_beta  90.00000
_cell_angle_gamma 90.00000

_symmetry_space_group_name_	'P 1'
_symmetry_space_group_name_H-M	'P 1'

loop_
_symmetry_equiv_pos_as_xyz
  x,y,z

loop_
_atom_site_label
_atom_site_type_symbol
_atom_site_fract_x
_atom_site_fract_y
_atom_site_fract_z
_atom_site_charge
O 	O 	0.02460 0.59380 0.30472 -0.96600
O 	O 	0.52460 0.09380 0.80472 -0.84700
O 	O 	0.97540 0.40620 0.30472 -0.48300
O 	O 	0.47540 0.90620 0.80472 -0.50400
O 	O 	0.97540 0.59380 0.69528 -0.42000
O 	O 	0.47540 0.09380 0.19528 -0.90700
O 	O 	0.02460 0.40620 0.69528 -0.94900
O 	O 	0.52460 0.90620 0.19528 -0.56000
O 	O 	0.30472 0.02460 0.59380 -0.96600
O 	O 	0.80472 0.52460 0.09380 -0.84700
O 	O 	0.30472 0.97540 0.40620 -0.48300
O 	O 	0.80472 0.47540 0.90620 -0.50400
O 	O 	0.69528 0.97540 0.59380 -0.42000
O 	O 	0.19528 0.47540 0.09380 -0.90700
O 	O 	0.69528 0.02460 0.40620 -0.94900
O 	O 	0.19528 0.52460 0.90620 -0.56000
O 	O 	0.59380 0.30472 0.02460 -0.96600
O 	O 	0.09380 0.80472 0.52460 -0.84700
O 	O 	0.40620 0.30472 0.97540 -0.48300
O 	O 	0.90620 0.80472 0.47540 -0.50400
O 	O 	0.59380 0.69528 0.97540 -0.42000
O 	O 	0.09380 0.19528 0.47540 -0.90700
O 	O 	0.40620 0.69528 0.02460 -0.94900
O 	O 	0.90620 0.19528 0.52460 -0.56000
O 	O 	0.59380 0.02460 0.30472 -0.96600
O 	O 	0.09380 0.52460 0.80472 -0.84700
O 	O 	0.40620 0.97540 0.30472 -0.48300
O 	O 	0.90620 0.47540 0.80472 -0.50400
O 	O 	0.59380 0.97540 0.69528 -0.42000
O 	O 	0.09380 0.47540 0.19528 -0.90700
O 	O 	0.40620 0.02460 0.69528 -0.94900
O 	O 	0.90620 0.52460 0.19528 -0.56000
O 	O 	0.02460 0.30472 0.59380 -0.96600
O 	O 	0.52460 0.80472 0.09380 -0.84700
O 	O 	0.97540 0.30472 0.40620 -0.48300
O 	O 	0.47540 0.80472 0.90620 -0.50400
O 	O 	0.97540 0.69528 0.59380 -0.42000
O 	O 	0.47540 0.19528 0.09380 -0.90700
O 	O 	0.02460 0.69528 0.40620 -0.94900
O 	O 	0.52460 0.19528 0.90620 -0.56000
O 	O 	0.30472 0.59380 0.02460 -0.96600
O 	O 	0.80472 0.09380 0.52460 -0.84700
O 	O 	0.30472 0.40620 0.97540 -0.48300
O 	O 	0.80472 0.90620 0.47540 -0.50400
O 	O 	0.69528 0.59380 0.97540 -0.42000
O 	O 	0.19528 0.09380 0.47540 -0.90700
O 	O 	0.69528 0.40620 0.02460 -0.94900
O 	O 	0.19528 0.90620 0.52460 -0.56000
Al	Al	0.00000 0.50000 0.50000 2.35300
Al	Al	0.50000 0.00000 -0.00000 2.31900
Al	Al	0.50000 0.00000 0.50000 2.35300
Al	Al	-0.00000 0.50000 -0.00000 2.31900
Al	Al	0.50000 0.50000 -0.00000 2.35300
Al	Al	0.00000 0.00000 0.50000 2.31900
Al	Al	-0.00000 0.50000 0.25000 2.34500
Al	Al	0.00000 0.50000 0.75000 2.34700
Al	Al	0.50000 0.00000 0.25000 2.34500
Al	Al	0.25000 0.00000 0.50000 2.34500
Al	Al	0.75000 0.00000 0.50000 2.34700
Al	Al	0.25000 0.50000 -0.00000 2.34500
Al	Al	0.50000 0.25000 -0.00000 2.34500
Al	Al	0.50000 0.75000 -0.00000 2.34700
Al	Al	-0.00000 0.25000 0.50000 2.34500
Al	Al	0.50000 -0.00000 0.75000 2.34700
Al	Al	0.00000 0.75000 0.50000 2.34700
Al	Al	0.75000 0.50000 -0.00000 2.34700
P 	P 	0.07050 0.62256 0.37744 0.70100
O 	O 	0.15610 0.64210 0.35790 -0.29400
O 	O 	0.06740 0.55800 0.44200 -0.99500
P 	P 	0.57050 0.12256 0.87744 0.68600
O 	O 	0.65610 0.14210 0.85790 -0.20100
O 	O 	0.56740 0.05800 0.94200 -0.77200
P 	P 	0.92950 0.37744 0.37744 0.67200
O 	O 	0.84390 0.35790 0.35790 -0.23100
O 	O 	0.93260 0.44200 0.44200 -0.60200
P 	P 	0.42950 0.87744 0.87744 0.68300
O 	O 	0.34390 0.85790 0.85790 -0.05100
O 	O 	0.43260 0.94200 0.94200 -0.33600
P 	P 	0.92950 0.62256 0.62256 0.67600
O 	O 	0.84390 0.64210 0.64210 -0.14900
O 	O 	0.93260 0.55800 0.55800 -0.60000
P 	P 	0.42950 0.12256 0.12256 0.69100
O 	O 	0.34390 0.14210 0.14210 -0.51100
O 	O 	0.43260 0.05800 0.05800 -1.27600
P 	P 	0.07050 0.37744 0.62256 0.70100
O 	O 	0.15610 0.35790 0.64210 -0.29400
O 	O 	0.06740 0.44200 0.55800 -0.99500
P 	P 	0.57050 0.87744 0.12256 0.68600
O 	O 	0.65610 0.85790 0.14210 -0.20100
O 	O 	0.56740 0.94200 0.05800 -0.77200
P 	P 	0.37744 0.07050 0.62256 0.70100
O 	O 	0.35790 0.15610 0.64210 -0.29400
O 	O 	0.44200 0.06740 0.55800 -0.99500
P 	P 	0.87744 0.57050 0.12256 0.68600
O 	O 	0.85790 0.65610 0.14210 -0.20100
O 	O 	0.94200 0.56740 0.05800 -0.77200
P 	P 	0.37744 0.92950 0.37744 0.67200
O 	O 	0.35790 0.84390 0.35790 -0.23100
O 	O 	0.44200 0.93260 0.44200 -0.60200
P 	P 	0.87744 0.42950 0.87744 0.68300
O 	O 	0.85790 0.34390 0.85790 -0.05100
O 	O 	0.94200 0.43260 0.94200 -0.33600
P 	P 	0.62256 0.92950 0.62256 0.67600
O 	O 	0.64210 0.84390 0.64210 -0.14900
O 	O 	0.55800 0.93260 0.55800 -0.60000
P 	P 	0.12256 0.42950 0.12256 0.69100
O 	O 	0.14210 0.34390 0.14210 -0.51100
O 	O 	0.05800 0.43260 0.05800 -1.27600
P 	P 	0.62256 0.07050 0.37744 0.70100
O 	O 	0.64210 0.15610 0.35790 -0.29400
O 	O 	0.55800 0.06740 0.44200 -0.99500
P 	P 	0.12256 0.57050 0.87744 0.68600
O 	O 	0.14210 0.65610 0.85790 -0.20100
O 	O 	0.05800 0.56740 0.94200 -0.77200
P 	P 	0.62256 0.37744 0.07050 0.70100
O 	O 	0.64210 0.35790 0.15610 -0.29400
O 	O 	0.55800 0.44200 0.06740 -0.99500
P 	P 	0.12256 0.87744 0.57050 0.68600
O 	O 	0.14210 0.85790 0.65610 -0.20100
O 	O 	0.05800 0.94200 0.56740 -0.77200
P 	P 	0.37744 0.37744 0.92950 0.67200
O 	O 	0.35790 0.35790 0.84390 -0.23100
O 	O 	0.44200 0.44200 0.93260 -0.60200
P 	P 	0.87744 0.87744 0.42950 0.68300
O 	O 	0.85790 0.85790 0.34390 -0.05100
O 	O 	0.94200 0.94200 0.43260 -0.33600
P 	P 	0.62256 0.62256 0.92950 0.67600
O 	O 	0.64210 0.64210 0.84390 -0.14900
O 	O 	0.55800 0.55800 0.93260 -0.60000
P 	P 	0.12256 0.12256 0.42950 0.69100
O 	O 	0.14210 0.14210 0.34390 -0.51100
O 	O 	0.05800 0.05800 0.43260 -1.27600
P 	P 	0.37744 0.62256 0.07050 0.70100
O 	O 	0.35790 0.64210 0.15610 -0.29400
O 	O 	0.44200 0.55800 0.06740 -0.99500
P 	P 	0.87744 0.12256 0.57050 0.68600
O 	O 	0.85790 0.14210 0.65610 -0.20100
O 	O 	0.94200 0.05800 0.56740 -0.77200
