data_crystal

_cell_length_a 13.87500
_cell_length_b 12.24200
_cell_length_c 18.40800
_cell_angle_alpha 90.00000
_cell_angle_beta  129.93400
_cell_angle_gamma 90.00000

_symmetry_space_group_name_	'P 1'
_symmetry_space_group_name_H-M	'P 1'

loop_
_symmetry_equiv_pos_as_xyz
  x,y,z

loop_
_atom_site_label
_atom_site_type_symbol
_atom_site_fract_x
_atom_site_fract_y
_atom_site_fract_z
_atom_site_charge
Cd	Cd	0.04397 0.14904 0.50913 1.22600
N 	N 	0.30690 0.12900 0.45280 -0.13500
C 	C 	0.27020 0.14020 0.50460 0.09000
H 	H 	0.32280 0.16220 0.56760 -0.00300
C 	C 	0.65500 0.15060 0.61200 -0.08300
H 	H 	0.72410 0.14370 0.67610 0.06800
O 	O 	0.88570 0.02300 0.40480 -0.53800
C 	C 	0.43120 0.14740 0.48520 0.08600
C 	C 	0.67040 0.17530 0.54810 0.09000
N 	N 	0.94640 0.18160 0.56950 -0.23200
N 	N 	0.79450 0.18690 0.57730 -0.13500
O 	O 	0.89960 0.83250 0.97650 -0.42500
C 	C 	0.82580 0.16840 0.52260 0.09900
H 	H 	0.76860 0.14850 0.45910 -0.01700
C 	C 	0.53420 0.13600 0.57980 -0.07200
H 	H 	0.52230 0.11830 0.62270 0.06000
O 	O 	0.75360 0.88950 0.33020 -0.41600
N 	N 	0.15050 0.11600 0.45490 -0.22500
O 	O 	0.07200 0.79060 0.11850 -0.39500
C 	C 	0.44830 0.17520 0.42210 -0.08100
H 	H 	0.37930 0.18480 0.35840 0.06300
C 	C 	0.99710 0.20440 0.66030 0.01800
H 	H 	0.08220 0.21550 0.71040 0.00900
C 	C 	0.90430 0.20860 0.66690 -0.01300
H 	H 	0.91370 0.22300 0.72070 0.03700
C 	C 	0.20330 0.09520 0.36470 -0.00100
H 	H 	0.19960 0.07940 0.31360 0.02600
C 	C 	0.10870 0.08910 0.36620 0.00400
H 	H 	0.02660 0.06960 0.31490 0.01400
C 	C 	0.56840 0.18910 0.45340 -0.07600
H 	H 	0.58050 0.20760 0.41080 0.05900
C 	C 	0.98410 0.85600 0.06050 0.41800
C 	C 	0.98840 0.96830 0.09830 -0.44600
H 	H 	0.03800 0.96290 0.16640 0.16800
H 	H 	0.03160 0.01820 0.08680 0.17100
C 	C 	0.66660 0.96430 0.12850 -0.33600
H 	H 	0.61250 0.90600 0.08520 0.13200
H 	H 	0.73920 0.92910 0.18520 0.13300
C 	C 	0.69030 0.06650 0.25490 -0.51600
H 	H 	0.73910 0.11940 0.25130 0.19200
H 	H 	0.64770 0.10570 0.27290 0.18500
C 	C 	0.78080 0.98530 0.33310 0.47400
C 	C 	0.79230 0.94140 0.07640 -0.32000
H 	H 	0.73870 0.89030 0.02470 0.13200
H 	H 	0.85110 0.90070 0.13470 0.12000
C 	C 	0.86300 0.01680 0.05670 0.11900
H 	H 	0.81330 0.02590 0.98880 0.01000
H 	H 	0.87500 0.08820 0.08420 -0.12500
C 	C 	0.71400 0.01960 0.08500 0.12900
H 	H 	0.76520 0.08180 0.12340 -0.00800
H 	H 	0.64360 0.04620 0.02240 -0.00800
C 	C 	0.59320 0.01990 0.15870 0.22800
H 	H 	0.54280 0.96620 0.15980 -0.03400
H 	H 	0.53810 0.07710 0.11420 -0.04400
C 	C 	0.09900 0.48200 0.38900 -0.05300
H 	H 	0.04890 0.47130 0.32180 0.01600
H 	H 	0.11550 0.55970 0.39930 0.05200
Cd	Cd	0.95603 0.64904 0.99087 1.22500
N 	N 	0.69310 0.62900 0.04720 -0.13500
C 	C 	0.72980 0.64020 0.99540 0.08500
H 	H 	0.67720 0.66220 0.93240 -0.00200
C 	C 	0.34500 0.65060 0.88800 -0.08400
H 	H 	0.27590 0.64370 0.82390 0.06600
O 	O 	0.11430 0.52300 0.09520 -0.54600
C 	C 	0.56880 0.64740 0.01480 0.08500
C 	C 	0.32960 0.67530 0.95190 0.09100
N 	N 	0.05360 0.68160 0.93050 -0.23200
N 	N 	0.20550 0.68690 0.92270 -0.13500
O 	O 	0.10040 0.33250 0.52350 -0.42200
C 	C 	0.17420 0.66840 0.97740 0.10400
H 	H 	0.23140 0.64850 0.04090 -0.02000
C 	C 	0.46580 0.63600 0.92020 -0.07300
H 	H 	0.47770 0.61830 0.87730 0.06000
O 	O 	0.24640 0.38950 0.16980 -0.41900
N 	N 	0.84950 0.61600 0.04510 -0.22100
O 	O 	0.92800 0.29060 0.38150 -0.39400
C 	C 	0.55170 0.67520 0.07790 -0.08100
H 	H 	0.62070 0.68480 0.14160 0.06300
C 	C 	0.00290 0.70440 0.83970 0.02400
H 	H 	0.91780 0.71550 0.78960 0.00500
C 	C 	0.09570 0.70860 0.83310 -0.01700
H 	H 	0.08630 0.72300 0.77930 0.03800
C 	C 	0.79670 0.59520 0.13530 0.00000
H 	H 	0.80040 0.57940 0.18640 0.02600
C 	C 	0.89130 0.58910 0.13380 0.00500
H 	H 	0.97340 0.56960 0.18510 0.01700
C 	C 	0.43160 0.68910 0.04660 -0.07800
H 	H 	0.41950 0.70760 0.08920 0.06000
C 	C 	0.01590 0.35600 0.43950 0.41700
C 	C 	0.01160 0.46830 0.40170 -0.46600
H 	H 	0.96200 0.46290 0.33360 0.17500
H 	H 	0.96840 0.51820 0.41320 0.18100
C 	C 	0.33340 0.46430 0.37150 -0.32800
H 	H 	0.38750 0.40600 0.41480 0.12900
H 	H 	0.26080 0.42910 0.31480 0.13100
C 	C 	0.30970 0.56650 0.24510 -0.52300
H 	H 	0.26090 0.61940 0.24870 0.19300
H 	H 	0.35230 0.60570 0.22710 0.18700
C 	C 	0.21920 0.48530 0.16690 0.48300
C 	C 	0.20770 0.44140 0.42360 -0.31600
H 	H 	0.26130 0.39030 0.47530 0.13000
H 	H 	0.14890 0.40070 0.36530 0.12300
C 	C 	0.13700 0.51680 0.44330 0.24000
H 	H 	0.18670 0.52590 0.51120 -0.03300
H 	H 	0.12500 0.58820 0.41580 -0.08900
C 	C 	0.28600 0.51960 0.41500 0.12000
H 	H 	0.23480 0.58180 0.37660 -0.00600
H 	H 	0.35640 0.54620 0.47760 -0.00700
C 	C 	0.40680 0.51990 0.34130 0.22600
H 	H 	0.45720 0.46620 0.34020 -0.03300
H 	H 	0.46190 0.57710 0.38580 -0.04300
C 	C 	0.90100 0.98200 0.11100 0.01200
H 	H 	0.95110 0.97130 0.17820 -0.00900
H 	H 	0.88450 0.05970 0.10070 0.12400
Cd	Cd	0.95603 0.85096 0.49087 1.22500
N 	N 	0.69310 0.87100 0.54720 -0.13600
C 	C 	0.72980 0.85980 0.49540 0.08900
H 	H 	0.67720 0.83780 0.43240 -0.00400
C 	C 	0.34500 0.84940 0.38800 -0.08400
H 	H 	0.27590 0.85630 0.32390 0.06700
O 	O 	0.11430 0.97700 0.59520 -0.53900
C 	C 	0.56880 0.85260 0.51480 0.08500
C 	C 	0.32960 0.82470 0.45190 0.09000
N 	N 	0.05360 0.81840 0.43050 -0.23200
N 	N 	0.20550 0.81310 0.42270 -0.13500
O 	O 	0.10040 0.16750 0.02350 -0.42500
C 	C 	0.17420 0.83160 0.47740 0.09900
H 	H 	0.23140 0.85150 0.54090 -0.01700
C 	C 	0.46580 0.86400 0.42020 -0.07200
H 	H 	0.47770 0.88170 0.37730 0.06000
O 	O 	0.24640 0.11050 0.66980 -0.41600
N 	N 	0.84950 0.88400 0.54510 -0.22500
O 	O 	0.92800 0.20940 0.88150 -0.39500
C 	C 	0.55170 0.82480 0.57790 -0.08100
H 	H 	0.62070 0.81520 0.64160 0.06300
C 	C 	0.00290 0.79560 0.33970 0.01800
H 	H 	0.91780 0.78450 0.28960 0.00900
C 	C 	0.09570 0.79140 0.33310 -0.01300
H 	H 	0.08630 0.77700 0.27930 0.03700
C 	C 	0.79670 0.90480 0.63530 -0.00100
H 	H 	0.80040 0.92060 0.68640 0.02600
C 	C 	0.89130 0.91090 0.63380 0.00400
H 	H 	0.97340 0.93040 0.68510 0.01400
C 	C 	0.43160 0.81090 0.54660 -0.07600
H 	H 	0.41950 0.79240 0.58920 0.05900
C 	C 	0.01590 0.14400 0.93950 0.41800
C 	C 	0.01160 0.03170 0.90170 -0.44600
H 	H 	0.96200 0.03710 0.83360 0.16800
H 	H 	0.96840 0.98180 0.91320 0.17100
C 	C 	0.33340 0.03570 0.87150 -0.33600
H 	H 	0.38750 0.09400 0.91480 0.13200
H 	H 	0.26080 0.07090 0.81480 0.13300
C 	C 	0.30970 0.93350 0.74510 -0.51600
H 	H 	0.26090 0.88060 0.74870 0.19200
H 	H 	0.35230 0.89430 0.72710 0.18500
C 	C 	0.21920 0.01470 0.66690 0.47400
C 	C 	0.20770 0.05860 0.92360 -0.32000
H 	H 	0.26130 0.10970 0.97530 0.13200
H 	H 	0.14890 0.09930 0.86530 0.12000
C 	C 	0.13700 0.98320 0.94330 0.11900
H 	H 	0.18670 0.97410 0.01120 0.01000
H 	H 	0.12500 0.91180 0.91580 -0.12500
C 	C 	0.28600 0.98040 0.91500 0.12900
H 	H 	0.23480 0.91820 0.87660 -0.00800
H 	H 	0.35640 0.95380 0.97760 -0.00800
C 	C 	0.40680 0.98010 0.84130 0.22800
H 	H 	0.45720 0.03380 0.84020 -0.03400
H 	H 	0.46190 0.92290 0.88580 -0.04400
C 	C 	0.90100 0.51800 0.61100 -0.05300
H 	H 	0.95110 0.52870 0.67820 0.01600
H 	H 	0.88450 0.44030 0.60070 0.05200
Cd	Cd	0.04397 0.35096 0.00913 1.22500
N 	N 	0.30690 0.37100 0.95280 -0.13500
C 	C 	0.27020 0.35980 0.00460 0.08500
H 	H 	0.32280 0.33780 0.06760 -0.00200
C 	C 	0.65500 0.34940 0.11200 -0.08400
H 	H 	0.72410 0.35630 0.17610 0.06600
O 	O 	0.88570 0.47700 0.90480 -0.54600
C 	C 	0.43120 0.35260 0.98520 0.08500
C 	C 	0.67040 0.32470 0.04810 0.09100
N 	N 	0.94640 0.31840 0.06950 -0.23200
N 	N 	0.79450 0.31310 0.07730 -0.13500
O 	O 	0.89960 0.66750 0.47650 -0.42200
C 	C 	0.82580 0.33160 0.02260 0.10400
H 	H 	0.76860 0.35150 0.95910 -0.02000
C 	C 	0.53420 0.36400 0.07980 -0.07300
H 	H 	0.52230 0.38170 0.12270 0.06000
O 	O 	0.75360 0.61050 0.83020 -0.41900
N 	N 	0.15050 0.38400 0.95490 -0.22100
O 	O 	0.07200 0.70940 0.61850 -0.39400
C 	C 	0.44830 0.32480 0.92210 -0.08100
H 	H 	0.37930 0.31520 0.85840 0.06300
C 	C 	0.99710 0.29560 0.16030 0.02400
H 	H 	0.08220 0.28450 0.21040 0.00500
C 	C 	0.90430 0.29140 0.16690 -0.01700
H 	H 	0.91370 0.27700 0.22070 0.03800
C 	C 	0.20330 0.40480 0.86470 0.00000
H 	H 	0.19960 0.42060 0.81360 0.02600
C 	C 	0.10870 0.41090 0.86620 0.00500
H 	H 	0.02660 0.43040 0.81490 0.01700
C 	C 	0.56840 0.31090 0.95340 -0.07800
H 	H 	0.58050 0.29240 0.91080 0.06000
C 	C 	0.98410 0.64400 0.56050 0.41700
C 	C 	0.98840 0.53170 0.59830 -0.46600
H 	H 	0.03800 0.53710 0.66640 0.17500
H 	H 	0.03160 0.48180 0.58680 0.18100
C 	C 	0.66660 0.53570 0.62850 -0.32800
H 	H 	0.61250 0.59400 0.58520 0.12900
H 	H 	0.73920 0.57090 0.68520 0.13100
C 	C 	0.69030 0.43350 0.75490 -0.52300
H 	H 	0.73910 0.38060 0.75130 0.19300
H 	H 	0.64770 0.39430 0.77290 0.18700
C 	C 	0.78080 0.51470 0.83310 0.48300
C 	C 	0.79230 0.55860 0.57640 -0.31600
H 	H 	0.73870 0.60970 0.52470 0.13000
H 	H 	0.85110 0.59930 0.63470 0.12300
C 	C 	0.86300 0.48320 0.55670 0.24000
H 	H 	0.81330 0.47410 0.48880 -0.03300
H 	H 	0.87500 0.41180 0.58420 -0.08900
C 	C 	0.71400 0.48040 0.58500 0.12000
H 	H 	0.76520 0.41820 0.62340 -0.00600
H 	H 	0.64360 0.45380 0.52240 -0.00700
C 	C 	0.59320 0.48010 0.65870 0.22600
H 	H 	0.54280 0.53380 0.65980 -0.03300
H 	H 	0.53810 0.42290 0.61420 -0.04300
C 	C 	0.09900 0.01800 0.88900 0.01200
H 	H 	0.04890 0.02870 0.82180 -0.00900
H 	H 	0.11550 0.94030 0.89930 0.12400
