data_crystal

_cell_length_a 7.36280
_cell_length_b 18.11100
_cell_length_c 18.11100
_cell_angle_alpha 99.13840
_cell_angle_beta  94.88400
_cell_angle_gamma 85.11600

_symmetry_space_group_name_	'P 1'
_symmetry_space_group_name_H-M	'P 1'

loop_
_symmetry_equiv_pos_as_xyz
  x,y,z

loop_
_atom_site_label
_atom_site_type_symbol
_atom_site_fract_x
_atom_site_fract_y
_atom_site_fract_z
_atom_site_charge
K 	K 	0.78291 0.00916 0.42384 0.64800
K 	K 	0.71709 0.42384 0.00916 0.64700
K 	K 	0.21709 0.99084 0.57616 0.64800
K 	K 	0.28291 0.57616 0.99084 0.64700
In	In	0.70259 0.86188 0.55229 1.97800
In	In	0.79741 0.55229 0.86188 1.97800
In	In	0.29741 0.13812 0.44771 1.97800
In	In	0.20259 0.44771 0.13812 1.97800
H 	H 	0.54350 0.25740 0.68520 0.08600
H 	H 	0.94470 0.68890 0.71150 0.07000
H 	H 	0.84190 0.04490 0.75550 0.06800
H 	H 	0.95650 0.68520 0.25740 0.08500
H 	H 	0.55530 0.71150 0.68890 0.06700
H 	H 	0.65810 0.75550 0.04490 0.06900
H 	H 	0.45650 0.74260 0.31480 0.08600
H 	H 	0.05530 0.31110 0.28850 0.07000
H 	H 	0.15810 0.95510 0.24450 0.06800
H 	H 	0.04350 0.31480 0.74260 0.08500
H 	H 	0.44470 0.28850 0.31110 0.06700
H 	H 	0.34190 0.24450 0.95510 0.06900
C 	C 	0.60130 0.21411 0.70049 -0.01900
C 	C 	0.69620 0.08365 0.67035 -0.06700
C 	C 	0.70940 0.01064 0.61996 0.37300
C 	C 	0.11770 0.74000 0.66000 -0.01900
C 	C 	0.60240 0.14848 0.64972 -0.02400
C 	C 	0.06810 0.69341 0.70719 0.00600
C 	C 	0.30240 0.74833 0.65327 -0.06200
C 	C 	0.36500 0.79840 0.60340 0.40500
C 	C 	0.96590 0.78062 0.61838 0.31100
C 	C 	0.49800 0.14800 0.57540 0.30000
C 	C 	0.77880 0.08787 0.74173 0.01000
C 	C 	0.68150 0.21890 0.77270 -0.03000
C 	C 	0.77340 0.15251 0.79429 -0.02800
C 	C 	0.65680 0.29640 0.81840 0.30500
C 	C 	0.86760 0.14270 0.87010 0.29100
C 	C 	0.89870 0.70049 0.21411 -0.01700
C 	C 	0.80380 0.67035 0.08365 -0.06600
C 	C 	0.79060 0.61996 0.01064 0.37100
C 	C 	0.38230 0.66000 0.74000 -0.02100
C 	C 	0.89760 0.64972 0.14848 -0.02700
C 	C 	0.43190 0.70719 0.69341 0.01200
C 	C 	0.19760 0.65327 0.74833 -0.05900
C 	C 	0.13500 0.60340 0.79840 0.40100
C 	C 	0.53410 0.61838 0.78062 0.31000
C 	C 	0.00200 0.57540 0.14800 0.30200
C 	C 	0.72120 0.74173 0.08787 0.00900
C 	C 	0.81850 0.77270 0.21890 -0.03100
C 	C 	0.72660 0.79429 0.15251 -0.02700
C 	C 	0.84320 0.81840 0.29640 0.30500
C 	C 	0.63240 0.87010 0.14270 0.29100
C 	C 	0.39870 0.78589 0.29951 -0.01900
C 	C 	0.30380 0.91635 0.32965 -0.06700
C 	C 	0.29060 0.98936 0.38004 0.37300
C 	C 	0.88230 0.26000 0.34000 -0.01900
C 	C 	0.39760 0.85152 0.35028 -0.02400
C 	C 	0.93190 0.30659 0.29281 0.00600
C 	C 	0.69760 0.25167 0.34673 -0.06200
C 	C 	0.63500 0.20160 0.39660 0.40500
C 	C 	0.03410 0.21938 0.38162 0.31100
C 	C 	0.50200 0.85200 0.42460 0.30000
C 	C 	0.22120 0.91213 0.25827 0.01000
C 	C 	0.31850 0.78110 0.22730 -0.03000
C 	C 	0.22660 0.84749 0.20571 -0.02800
C 	C 	0.34320 0.70360 0.18160 0.30500
C 	C 	0.13240 0.85730 0.12990 0.29100
C 	C 	0.10130 0.29951 0.78589 -0.01700
C 	C 	0.19620 0.32965 0.91635 -0.06600
C 	C 	0.20940 0.38004 0.98936 0.37100
C 	C 	0.61770 0.34000 0.26000 -0.02100
C 	C 	0.10240 0.35028 0.85152 -0.02700
C 	C 	0.56810 0.29281 0.30659 0.01200
C 	C 	0.80240 0.34673 0.25167 -0.05900
C 	C 	0.86500 0.39660 0.20160 0.40100
C 	C 	0.46590 0.38162 0.21938 0.31000
C 	C 	0.99800 0.42460 0.85200 0.30200
C 	C 	0.27880 0.25827 0.91213 0.00900
C 	C 	0.18150 0.22730 0.78110 -0.03100
C 	C 	0.27340 0.20571 0.84749 -0.02700
C 	C 	0.15680 0.18160 0.70360 0.30500
C 	C 	0.36760 0.12990 0.85730 0.29100
O 	O 	0.59990 0.96251 0.62851 -0.50000
O 	O 	0.71090 0.30770 0.88694 -0.27000
O 	O 	0.88440 0.74603 0.56197 -0.39100
O 	O 	0.42600 0.20716 0.55530 -0.42700
O 	O 	0.91950 0.84775 0.64253 -0.46400
O 	O 	0.83160 0.99567 0.57711 -0.50300
O 	O 	0.25500 0.83060 0.56280 -0.36600
O 	O 	0.47480 0.08545 0.53391 -0.53600
O 	O 	0.53510 0.80470 0.61108 -0.51700
O 	O 	0.57940 0.34679 0.78681 -0.25800
O 	O 	0.86540 0.19724 0.92436 -0.18000
O 	O 	0.94990 0.08305 0.87715 -0.19200
O 	O 	0.90010 0.62851 0.96251 -0.49800
O 	O 	0.78910 0.88694 0.30770 -0.27000
O 	O 	0.61560 0.56197 0.74603 -0.39100
O 	O 	0.07400 0.55530 0.20716 -0.42700
O 	O 	0.58050 0.64253 0.84775 -0.46400
O 	O 	0.66840 0.57711 0.99567 -0.50200
O 	O 	0.24500 0.56280 0.83060 -0.36500
O 	O 	0.02520 0.53391 0.08545 -0.53500
O 	O 	0.96490 0.61108 0.80470 -0.51500
O 	O 	0.92060 0.78681 0.34679 -0.25800
O 	O 	0.63460 0.92436 0.19724 -0.18000
O 	O 	0.55010 0.87715 0.08305 -0.19200
O 	O 	0.40010 0.03749 0.37149 -0.50000
O 	O 	0.28910 0.69230 0.11306 -0.27000
O 	O 	0.11560 0.25397 0.43803 -0.39100
O 	O 	0.57400 0.79284 0.44470 -0.42700
O 	O 	0.08050 0.15225 0.35747 -0.46400
O 	O 	0.16840 0.00433 0.42289 -0.50300
O 	O 	0.74500 0.16940 0.43720 -0.36600
O 	O 	0.52520 0.91455 0.46609 -0.53600
O 	O 	0.46490 0.19530 0.38892 -0.51700
O 	O 	0.42060 0.65321 0.21319 -0.25800
O 	O 	0.13460 0.80276 0.07564 -0.18000
O 	O 	0.05010 0.91695 0.12285 -0.19200
O 	O 	0.09990 0.37149 0.03749 -0.49800
O 	O 	0.21090 0.11306 0.69230 -0.27000
O 	O 	0.38440 0.43803 0.25397 -0.39100
O 	O 	0.92600 0.44470 0.79284 -0.42700
O 	O 	0.41950 0.35747 0.15225 -0.46400
O 	O 	0.33160 0.42289 0.00433 -0.50200
O 	O 	0.75500 0.43720 0.16940 -0.36500
O 	O 	0.97480 0.46609 0.91455 -0.53500
O 	O 	0.03510 0.38892 0.19530 -0.51500
O 	O 	0.07940 0.21319 0.65321 -0.25800
O 	O 	0.36540 0.07564 0.80276 -0.18000
O 	O 	0.44990 0.12285 0.91695 -0.19200
