data_crystal

_cell_length_a 32.31300
_cell_length_b 8.18010
_cell_length_c 18.45220
_cell_angle_alpha 90.00000
_cell_angle_beta  90.00000
_cell_angle_gamma 90.00000

_symmetry_space_group_name_	'P 1'
_symmetry_space_group_name_H-M	'P 1'

loop_
_symmetry_equiv_pos_as_xyz
  x,y,z

loop_
_atom_site_label
_atom_site_type_symbol
_atom_site_fract_x
_atom_site_fract_y
_atom_site_fract_z
_atom_site_charge
O 	O 	0.08244 0.24110 0.97060 -0.26700
O 	O 	0.06580 0.14780 0.08050 -0.44900
O 	O 	0.48366 0.12760 0.07659 -0.43700
C 	C 	0.08425 0.13800 0.02010 0.34400
O 	O 	0.46887 0.38270 0.11030 -0.28500
O 	O 	0.31099 0.51870 0.92181 -0.43900
O 	O 	0.31687 0.92110 0.92884 -0.45400
C 	C 	0.46055 0.25360 0.07820 0.32600
C 	C 	0.40474 0.38100 0.00470 0.02700
H 	H 	0.41780 0.48110 0.01120 0.04800
C 	C 	0.40104 0.09120 0.02860 0.02300
H 	H 	0.41220 0.99780 0.04980 0.05000
C 	C 	0.42109 0.24180 0.03550 -0.08800
C 	C 	0.34883 0.22130 0.95660 0.03500
H 	H 	0.32480 0.21340 0.92920 0.05100
C 	C 	0.36443 0.08270 0.98970 -0.09300
C 	C 	0.36819 0.37150 0.96330 -0.09200
C 	C 	0.93723 0.40310 0.31380 -0.02300
H 	H 	0.91040 0.44010 0.30580 0.05000
O 	O 	0.37299 0.62610 0.90369 -0.31900
O 	O 	0.34311 0.82160 0.03191 -0.27900
C 	C 	0.35024 0.51700 0.92730 0.34300
C 	C 	0.33978 0.92720 0.98440 0.36300
H 	H 	0.07100 0.20680 0.36900 0.16600
H 	H 	0.18180 0.38230 0.13510 0.16600
Zn	Zn	0.03958 0.34476 0.11639 1.22800
Zn	Zn	0.28922 0.73028 0.89041 1.22900
N 	N 	0.03816 0.31480 0.22480 -0.27700
N 	N 	0.21239 0.25380 0.28284 -0.27600
C 	C 	0.21065 0.85070 0.92510 0.34100
O 	O 	0.23359 0.72720 0.93261 -0.44000
O 	O 	0.06769 0.54450 0.09024 -0.45700
C 	C 	0.17038 0.84750 0.96680 -0.09300
O 	O 	0.21894 0.97140 0.88715 -0.28400
N 	N 	0.05500 0.23370 0.33313 -0.24100
C 	C 	0.18348 0.32100 0.23980 0.16200
C 	C 	0.09731 0.84270 0.04520 0.04300
H 	H 	0.07280 0.84130 0.07160 0.04700
O 	O 	0.13103 0.43730 0.09097 -0.31300
C 	C 	0.12101 0.70190 0.04010 -0.10700
C 	C 	0.11101 0.21970 0.24050 -0.20300
H 	H 	0.12060 0.11850 0.26210 0.10000
H 	H 	0.11100 0.20590 0.18830 0.08700
C 	C 	0.14041 0.35840 0.26100 -0.18400
H 	H 	0.13920 0.37640 0.31290 0.08200
H 	H 	0.13160 0.45820 0.23710 0.09100
C 	C 	0.10627 0.54740 0.07660 0.35400
C 	C 	0.15811 0.70540 0.00260 0.03500
H 	H 	0.17490 0.61300 0.00140 0.04600
C 	C 	0.00403 0.33660 0.27100 0.04300
N 	N 	0.19747 0.34840 0.17054 -0.22500
C 	C 	0.01501 0.28340 0.34010 0.10400
C 	C 	0.23959 0.29870 0.17080 0.09000
C 	C 	0.28634 0.17160 0.25710 -0.09100
H 	H 	0.29200 0.12680 0.30230 0.06300
C 	C 	0.06765 0.25470 0.26600 0.18300
C 	C 	0.14617 0.98670 0.97070 0.04600
H 	H 	0.15420 0.08100 0.94620 0.04800
C 	C 	0.10979 0.98570 0.01120 -0.10400
C 	C 	0.94840 0.35280 0.38220 -0.00100
H 	H 	0.92950 0.36380 0.41980 0.04900
C 	C 	0.96497 0.40010 0.25670 -0.08600
H 	H 	0.95780 0.43860 0.21090 0.06300
C 	C 	0.24797 0.23730 0.24020 0.04800
C 	C 	0.26995 0.30230 0.11700 -0.10600
H 	H 	0.26450 0.34380 0.07110 0.08600
C 	C 	0.31592 0.17670 0.20220 -0.02100
H 	H 	0.34210 0.13430 0.21110 0.04800
C 	C 	0.98703 0.28630 0.39720 -0.11400
H 	H 	0.99370 0.24590 0.44280 0.08700
C 	C 	0.30751 0.24280 0.13480 -0.00300
H 	H 	0.32860 0.24640 0.10050 0.04700
O 	O 	0.91756 0.75890 0.47060 -0.27600
O 	O 	0.93420 0.85220 0.58050 -0.45100
O 	O 	0.51634 0.87240 0.57659 -0.43700
C 	C 	0.91575 0.86200 0.52010 0.35300
O 	O 	0.53113 0.61730 0.61030 -0.28500
O 	O 	0.68901 0.48130 0.42181 -0.44100
O 	O 	0.68313 0.07890 0.42884 -0.45400
C 	C 	0.53945 0.74640 0.57820 0.33000
C 	C 	0.59526 0.61900 0.50470 0.04500
H 	H 	0.58220 0.51890 0.51120 0.04300
C 	C 	0.59896 0.90880 0.52860 0.04300
H 	H 	0.58780 0.00220 0.54980 0.04500
C 	C 	0.57891 0.75820 0.53550 -0.09900
C 	C 	0.65117 0.77870 0.45660 0.04700
H 	H 	0.67520 0.78660 0.42920 0.04600
C 	C 	0.63557 0.91730 0.48970 -0.11100
C 	C 	0.63181 0.62850 0.46330 -0.10800
C 	C 	0.06277 0.59690 0.81380 -0.02200
H 	H 	0.08960 0.55990 0.80580 0.05100
O 	O 	0.62701 0.37390 0.40369 -0.32100
O 	O 	0.65689 0.17840 0.53191 -0.27400
C 	C 	0.64976 0.48300 0.42730 0.34800
C 	C 	0.66022 0.07280 0.48440 0.36300
H 	H 	0.92900 0.79320 0.86900 0.16700
H 	H 	0.81820 0.61770 0.63510 0.16600
Zn	Zn	0.96042 0.65524 0.61639 1.22900
Zn	Zn	0.71078 0.26972 0.39041 1.22900
N 	N 	0.96184 0.68520 0.72480 -0.27700
N 	N 	0.78761 0.74620 0.78284 -0.27600
C 	C 	0.78935 0.14930 0.42510 0.34400
O 	O 	0.76641 0.27280 0.43261 -0.44300
O 	O 	0.93231 0.45550 0.59024 -0.45600
C 	C 	0.82962 0.15250 0.46680 -0.10200
O 	O 	0.78106 0.02860 0.38715 -0.28500
N 	N 	0.94500 0.76630 0.83313 -0.24100
C 	C 	0.81652 0.67900 0.73980 0.16200
C 	C 	0.90269 0.15730 0.54520 0.04600
H 	H 	0.92720 0.15870 0.57160 0.04600
O 	O 	0.86897 0.56270 0.59097 -0.31200
C 	C 	0.87899 0.29810 0.54010 -0.11000
C 	C 	0.88899 0.78030 0.74050 -0.20300
H 	H 	0.87940 0.88150 0.76210 0.10000
H 	H 	0.88900 0.79410 0.68830 0.08700
C 	C 	0.85959 0.64160 0.76100 -0.18400
H 	H 	0.86080 0.62360 0.81290 0.08200
H 	H 	0.86840 0.54180 0.73710 0.09100
C 	C 	0.89373 0.45260 0.57660 0.35600
C 	C 	0.84189 0.29460 0.50260 0.04500
H 	H 	0.82510 0.38700 0.50140 0.04500
C 	C 	0.99597 0.66340 0.77100 0.04300
N 	N 	0.80253 0.65160 0.67054 -0.22500
C 	C 	0.98499 0.71660 0.84010 0.10400
C 	C 	0.76041 0.70130 0.67080 0.09100
C 	C 	0.71366 0.82840 0.75710 -0.09000
H 	H 	0.70800 0.87320 0.80230 0.06300
C 	C 	0.93235 0.74530 0.76600 0.18400
C 	C 	0.85383 0.01330 0.47070 0.04700
H 	H 	0.84580 0.91900 0.44620 0.04500
C 	C 	0.89021 0.01430 0.51120 -0.10300
C 	C 	0.05160 0.64720 0.88220 -0.00100
H 	H 	0.07050 0.63620 0.91980 0.05100
C 	C 	0.03503 0.59990 0.75670 -0.08500
H 	H 	0.04220 0.56140 0.71090 0.06300
C 	C 	0.75203 0.76270 0.74020 0.04800
C 	C 	0.73005 0.69770 0.61700 -0.10600
H 	H 	0.73550 0.65620 0.57110 0.08700
C 	C 	0.68408 0.82330 0.70220 -0.02100
H 	H 	0.65790 0.86570 0.71110 0.04900
C 	C 	0.01297 0.71370 0.89720 -0.11300
H 	H 	0.00630 0.75410 0.94280 0.08900
C 	C 	0.69249 0.75720 0.63480 -0.00200
H 	H 	0.67140 0.75360 0.60050 0.04800
O 	O 	0.58244 0.25890 0.97060 -0.26900
O 	O 	0.56580 0.35220 0.08050 -0.45000
O 	O 	0.98366 0.37240 0.07659 -0.43700
C 	C 	0.58425 0.36200 0.02010 0.34700
O 	O 	0.96887 0.11730 0.11030 -0.28500
O 	O 	0.81099 0.98130 0.92181 -0.43900
O 	O 	0.81687 0.57890 0.92884 -0.45400
C 	C 	0.96055 0.24640 0.07820 0.32700
C 	C 	0.90474 0.11900 0.00470 0.02800
H 	H 	0.91780 0.01890 0.01120 0.04800
C 	C 	0.90104 0.40880 0.02860 0.02900
H 	H 	0.91220 0.50220 0.04980 0.04700
C 	C 	0.92109 0.25820 0.03550 -0.09000
C 	C 	0.84883 0.27870 0.95660 0.03600
H 	H 	0.82480 0.28660 0.92920 0.05100
C 	C 	0.86443 0.41730 0.98970 -0.09700
C 	C 	0.86819 0.12850 0.96330 -0.09100
C 	C 	0.43723 0.09690 0.31380 -0.02300
H 	H 	0.41040 0.05990 0.30580 0.05000
O 	O 	0.87299 0.87390 0.90369 -0.31900
O 	O 	0.84311 0.67840 0.03191 -0.27900
C 	C 	0.85024 0.98300 0.92730 0.34100
C 	C 	0.83978 0.57280 0.98440 0.36400
H 	H 	0.57100 0.29320 0.36900 0.16600
H 	H 	0.68180 0.11770 0.13510 0.16600
Zn	Zn	0.53958 0.15524 0.11639 1.22800
Zn	Zn	0.78922 0.76972 0.89041 1.22900
N 	N 	0.53816 0.18520 0.22480 -0.27700
N 	N 	0.71239 0.24620 0.28284 -0.27600
C 	C 	0.71065 0.64930 0.92510 0.34200
O 	O 	0.73359 0.77280 0.93261 -0.44100
O 	O 	0.56769 0.95550 0.09024 -0.45700
C 	C 	0.67038 0.65250 0.96680 -0.09600
O 	O 	0.71894 0.52860 0.88715 -0.28400
N 	N 	0.55500 0.26630 0.33313 -0.24100
C 	C 	0.68348 0.17900 0.23980 0.16200
C 	C 	0.59731 0.65730 0.04520 0.04500
H 	H 	0.57280 0.65870 0.07160 0.04600
O 	O 	0.63103 0.06270 0.09097 -0.31300
C 	C 	0.62101 0.79810 0.04010 -0.10900
C 	C 	0.61101 0.28030 0.24050 -0.20400
H 	H 	0.62060 0.38150 0.26210 0.10000
H 	H 	0.61100 0.29410 0.18830 0.08700
C 	C 	0.64041 0.14160 0.26100 -0.18300
H 	H 	0.63920 0.12360 0.31290 0.08200
H 	H 	0.63160 0.04180 0.23710 0.09100
C 	C 	0.60627 0.95260 0.07660 0.35500
C 	C 	0.65811 0.79460 0.00260 0.03700
H 	H 	0.67490 0.88700 0.00140 0.04600
C 	C 	0.50403 0.16340 0.27100 0.04300
N 	N 	0.69747 0.15160 0.17054 -0.22500
C 	C 	0.51501 0.21660 0.34010 0.10400
C 	C 	0.73959 0.20130 0.17080 0.09000
C 	C 	0.78634 0.32840 0.25710 -0.09000
H 	H 	0.79200 0.37320 0.30230 0.06300
C 	C 	0.56765 0.24530 0.26600 0.18400
C 	C 	0.64617 0.51330 0.97070 0.04900
H 	H 	0.65420 0.41900 0.94620 0.04700
C 	C 	0.60979 0.51430 0.01120 -0.10800
C 	C 	0.44840 0.14720 0.38220 -0.00100
H 	H 	0.42950 0.13620 0.41980 0.04900
C 	C 	0.46497 0.09990 0.25670 -0.08600
H 	H 	0.45780 0.06140 0.21090 0.06300
C 	C 	0.74797 0.26270 0.24020 0.04800
C 	C 	0.76995 0.19770 0.11700 -0.10600
H 	H 	0.76450 0.15620 0.07110 0.08600
C 	C 	0.81592 0.32330 0.20220 -0.02100
H 	H 	0.84210 0.36570 0.21110 0.04900
C 	C 	0.48703 0.21370 0.39720 -0.11400
H 	H 	0.49370 0.25410 0.44280 0.08700
C 	C 	0.80751 0.25720 0.13480 -0.00200
H 	H 	0.82860 0.25360 0.10050 0.04700
O 	O 	0.41756 0.74110 0.47060 -0.27600
O 	O 	0.43420 0.64780 0.58050 -0.45100
O 	O 	0.01634 0.62760 0.57659 -0.43600
C 	C 	0.41575 0.63800 0.52010 0.35400
O 	O 	0.03113 0.88270 0.61030 -0.28500
O 	O 	0.18901 0.01870 0.42181 -0.44100
O 	O 	0.18313 0.42110 0.42884 -0.45400
C 	C 	0.03945 0.75360 0.57820 0.33100
C 	C 	0.09526 0.88100 0.50470 0.04500
H 	H 	0.08220 0.98110 0.51120 0.04400
C 	C 	0.09896 0.59120 0.52860 0.04500
H 	H 	0.08780 0.49780 0.54980 0.04300
C 	C 	0.07891 0.74180 0.53550 -0.10000
C 	C 	0.15117 0.72130 0.45660 0.04600
H 	H 	0.17520 0.71340 0.42920 0.04700
C 	C 	0.13557 0.58270 0.48970 -0.11000
C 	C 	0.13181 0.87150 0.46330 -0.10700
C 	C 	0.56277 0.90310 0.81380 -0.02300
H 	H 	0.58960 0.94010 0.80580 0.05100
O 	O 	0.12701 0.12610 0.40369 -0.32100
O 	O 	0.15689 0.32160 0.53191 -0.27400
C 	C 	0.14976 0.01700 0.42730 0.34700
C 	C 	0.16022 0.42720 0.48440 0.36200
H 	H 	0.42900 0.70680 0.86900 0.16700
H 	H 	0.31820 0.88230 0.63510 0.16600
Zn	Zn	0.46042 0.84476 0.61639 1.22900
Zn	Zn	0.21078 0.23028 0.39041 1.22900
N 	N 	0.46184 0.81480 0.72480 -0.27700
N 	N 	0.28761 0.75380 0.78284 -0.27600
C 	C 	0.28935 0.35070 0.42510 0.34300
O 	O 	0.26641 0.22720 0.43261 -0.44300
O 	O 	0.43231 0.04450 0.59024 -0.45600
C 	C 	0.32962 0.34750 0.46680 -0.10100
O 	O 	0.28106 0.47140 0.38715 -0.28500
N 	N 	0.44500 0.73370 0.83313 -0.24100
C 	C 	0.31652 0.82100 0.73980 0.16200
C 	C 	0.40269 0.34270 0.54520 0.04600
H 	H 	0.42720 0.34130 0.57160 0.04600
O 	O 	0.36897 0.93730 0.59097 -0.31200
C 	C 	0.37899 0.20190 0.54010 -0.10900
C 	C 	0.38899 0.71970 0.74050 -0.20400
H 	H 	0.37940 0.61850 0.76210 0.10100
H 	H 	0.38900 0.70590 0.68830 0.08800
C 	C 	0.35959 0.85840 0.76100 -0.18300
H 	H 	0.36080 0.87640 0.81290 0.08200
H 	H 	0.36840 0.95820 0.73710 0.09100
C 	C 	0.39373 0.04740 0.57660 0.35600
C 	C 	0.34189 0.20540 0.50260 0.04500
H 	H 	0.32510 0.11300 0.50140 0.04500
C 	C 	0.49597 0.83660 0.77100 0.04300
N 	N 	0.30253 0.84840 0.67054 -0.22500
C 	C 	0.48499 0.78340 0.84010 0.10500
C 	C 	0.26041 0.79870 0.67080 0.09100
C 	C 	0.21366 0.67160 0.75710 -0.09000
H 	H 	0.20800 0.62680 0.80230 0.06300
C 	C 	0.43235 0.75470 0.76600 0.18400
C 	C 	0.35383 0.48670 0.47070 0.04400
H 	H 	0.34580 0.58100 0.44620 0.04700
C 	C 	0.39021 0.48570 0.51120 -0.10300
C 	C 	0.55160 0.85280 0.88220 -0.00100
H 	H 	0.57050 0.86380 0.91980 0.05000
C 	C 	0.53503 0.90010 0.75670 -0.08600
H 	H 	0.54220 0.93860 0.71090 0.06300
C 	C 	0.25203 0.73730 0.74020 0.04800
C 	C 	0.23005 0.80230 0.61700 -0.10600
H 	H 	0.23550 0.84380 0.57110 0.08800
C 	C 	0.18408 0.67670 0.70220 -0.02100
H 	H 	0.15790 0.63430 0.71110 0.04900
C 	C 	0.51297 0.78630 0.89720 -0.11400
H 	H 	0.50630 0.74590 0.94280 0.08900
C 	C 	0.19249 0.74280 0.63480 -0.00200
H 	H 	0.17140 0.74640 0.60050 0.04800
