data_crystal

_cell_length_a 7.30770
_cell_length_b 23.34440
_cell_length_c 18.81510
_cell_angle_alpha 90.00000
_cell_angle_beta  90.00000
_cell_angle_gamma 90.00000

_symmetry_space_group_name_	'P 1'
_symmetry_space_group_name_H-M	'P 1'

loop_
_symmetry_equiv_pos_as_xyz
  x,y,z

loop_
_atom_site_label
_atom_site_type_symbol
_atom_site_fract_x
_atom_site_fract_y
_atom_site_fract_z
_atom_site_charge
Zn	Zn	0.84966 0.91321 0.45132 1.20100
H 	H 	0.77170 0.02570 0.70610 0.01300
H 	H 	0.98870 0.87110 0.66630 0.12000
H 	H 	0.91190 0.92140 0.86730 0.13700
H 	H 	0.92610 0.80450 0.80490 0.28700
H 	H 	0.10760 0.81270 0.76160 0.29100
H 	H 	0.09530 0.83420 0.84040 0.33500
H 	H 	0.19000 0.83580 0.55020 -0.25900
H 	H 	0.89050 0.77530 0.56040 -0.53900
C 	C 	0.82040 0.99131 0.72228 0.00700
C 	C 	0.87320 0.94966 0.67412 -0.00100
C 	C 	0.94770 0.89820 0.69882 -0.23900
C 	C 	0.83470 0.95748 0.59615 0.33800
C 	C 	0.77980 0.02685 0.84510 0.23800
C 	C 	0.84050 0.98165 0.79512 0.06100
C 	C 	0.90570 0.92872 0.81874 -0.26400
C 	C 	0.96140 0.88692 0.77100 0.35600
C 	C 	0.02880 0.82933 0.79685 -0.92100
C 	C 	0.51600 0.85656 0.48999 0.53300
C 	C 	0.41930 0.80151 0.50745 -0.53100
C 	C 	0.24670 0.80122 0.53927 0.76800
O 	O 	0.72710 0.99695 0.57893 -0.42300
O 	O 	0.90720 0.92265 0.55370 -0.46200
O 	O 	0.77340 0.01563 0.91287 -0.53700
O 	O 	0.73050 0.07432 0.82343 -0.33700
O 	O 	0.44020 0.90294 0.50400 -0.47700
O 	O 	0.67300 0.85084 0.46219 -0.49700
Zn	Zn	0.65034 0.08679 0.95132 1.20400
H 	H 	0.72830 0.97430 0.20610 0.14000
H 	H 	0.51130 0.12890 0.16630 0.12400
H 	H 	0.58810 0.07860 0.36730 0.11600
H 	H 	0.57390 0.19550 0.30490 0.27100
H 	H 	0.39240 0.18730 0.26160 0.28000
H 	H 	0.40470 0.16580 0.34040 0.31400
H 	H 	0.31000 0.16420 0.05020 -0.23900
H 	H 	0.60950 0.22470 0.06040 -0.39800
C 	C 	0.67960 0.00869 0.22228 -0.16700
C 	C 	0.62680 0.05034 0.17412 0.04500
C 	C 	0.55230 0.10180 0.19882 -0.25500
C 	C 	0.66530 0.04252 0.09615 0.31500
C 	C 	0.72020 0.97315 0.34510 0.32600
C 	C 	0.65950 0.01835 0.29512 0.01500
C 	C 	0.59430 0.07128 0.31874 -0.24500
C 	C 	0.53860 0.11308 0.27100 0.34400
C 	C 	0.47120 0.17067 0.29685 -0.87000
C 	C 	0.98400 0.14344 0.98999 0.67500
C 	C 	0.08070 0.19849 0.00745 -0.67600
C 	C 	0.25330 0.19878 0.03927 0.71600
O 	O 	0.77290 0.00305 0.07893 -0.47600
O 	O 	0.59280 0.07735 0.05370 -0.48700
O 	O 	0.72660 0.98437 0.41287 -0.51800
O 	O 	0.76950 0.92568 0.32343 -0.34300
O 	O 	0.05980 0.09706 0.00400 -0.56900
O 	O 	0.82700 0.14916 0.96219 -0.52500
Zn	Zn	0.15034 0.41321 0.54868 1.19700
H 	H 	0.22830 0.52570 0.29390 0.06200
H 	H 	0.01130 0.37110 0.33370 0.08600
H 	H 	0.08810 0.42140 0.13270 0.09100
H 	H 	0.07390 0.30450 0.19510 0.18300
H 	H 	0.89240 0.31270 0.23840 0.20000
H 	H 	0.90470 0.33420 0.15960 0.23000
H 	H 	0.81000 0.33580 0.44980 -0.29800
H 	H 	0.10950 0.27530 0.43960 -0.63800
C 	C 	0.17960 0.49131 0.27772 -0.04100
C 	C 	0.12680 0.44966 0.32588 -0.02800
C 	C 	0.05230 0.39820 0.30118 -0.16100
C 	C 	0.16530 0.45748 0.40385 0.34000
C 	C 	0.22020 0.52685 0.15490 0.30200
C 	C 	0.15950 0.48165 0.20488 -0.01700
C 	C 	0.09430 0.42872 0.18126 -0.16900
C 	C 	0.03860 0.38692 0.22900 0.21200
C 	C 	0.97120 0.32933 0.20315 -0.61100
C 	C 	0.48400 0.35656 0.51001 0.56200
C 	C 	0.58070 0.30151 0.49255 -0.59700
C 	C 	0.75330 0.30122 0.46073 0.89300
O 	O 	0.27290 0.49695 0.42107 -0.45700
O 	O 	0.09280 0.42265 0.44630 -0.47700
O 	O 	0.22660 0.51563 0.08713 -0.55100
O 	O 	0.26950 0.57432 0.17657 -0.35500
O 	O 	0.55980 0.40294 0.49600 -0.49500
O 	O 	0.32700 0.35084 0.53781 -0.50400
Zn	Zn	0.34966 0.58679 0.04868 1.18900
H 	H 	0.27170 0.47430 0.79390 0.07600
H 	H 	0.48870 0.62890 0.83370 0.11300
H 	H 	0.41190 0.57860 0.63270 0.11600
H 	H 	0.42610 0.69550 0.69510 0.25400
H 	H 	0.60760 0.68730 0.73840 0.25700
H 	H 	0.59530 0.66580 0.65960 0.29500
H 	H 	0.69000 0.66420 0.94980 -0.31200
H 	H 	0.39050 0.72470 0.93960 -0.75200
C 	C 	0.32040 0.50869 0.77772 -0.07600
C 	C 	0.37320 0.55034 0.82588 0.01200
C 	C 	0.44770 0.60180 0.80118 -0.22500
C 	C 	0.33470 0.54252 0.90385 0.32400
C 	C 	0.27980 0.47315 0.65490 0.28800
C 	C 	0.34050 0.51835 0.70488 0.02200
C 	C 	0.40570 0.57128 0.68126 -0.23400
C 	C 	0.46140 0.61308 0.72900 0.31400
C 	C 	0.52880 0.67067 0.70315 -0.82200
C 	C 	0.01600 0.64344 0.01001 0.41100
C 	C 	0.91930 0.69849 0.99255 -0.43300
C 	C 	0.74670 0.69878 0.96073 0.91400
O 	O 	0.22710 0.50305 0.92107 -0.43700
O 	O 	0.40720 0.57735 0.94630 -0.45200
O 	O 	0.27340 0.48437 0.58713 -0.54000
O 	O 	0.23050 0.42568 0.67657 -0.34700
O 	O 	0.94020 0.59706 0.99600 -0.41800
O 	O 	0.17300 0.64916 0.03781 -0.47900
H 	H 	0.60042 0.25000 0.11357 -0.92100
Zn	Zn	0.15034 0.08679 0.54868 1.19400
H 	H 	0.22830 0.97430 0.29390 0.12900
H 	H 	0.01130 0.12890 0.33370 0.09200
H 	H 	0.08810 0.07860 0.13270 0.08700
H 	H 	0.07390 0.19550 0.19510 0.18600
H 	H 	0.89240 0.18730 0.23840 0.20400
H 	H 	0.90470 0.16580 0.15960 0.23400
H 	H 	0.81000 0.16420 0.44980 -0.30000
H 	H 	0.10950 0.22470 0.43960 -0.63800
C 	C 	0.17960 0.00869 0.27772 -0.13700
C 	C 	0.12680 0.05034 0.32588 0.00300
C 	C 	0.05230 0.10180 0.30118 -0.18100
C 	C 	0.16530 0.04252 0.40385 0.32400
C 	C 	0.22020 0.97315 0.15490 0.33900
C 	C 	0.15950 0.01835 0.20488 -0.02800
C 	C 	0.09430 0.07128 0.18126 -0.17400
C 	C 	0.03860 0.11308 0.22900 0.22400
C 	C 	0.97120 0.17067 0.20315 -0.62200
C 	C 	0.48400 0.14344 0.51001 0.56400
C 	C 	0.58070 0.19849 0.49255 -0.59900
C 	C 	0.75330 0.19878 0.46073 0.89400
O 	O 	0.27290 0.00305 0.42107 -0.47800
O 	O 	0.09280 0.07735 0.44630 -0.48100
O 	O 	0.22660 0.98437 0.08713 -0.53600
O 	O 	0.26950 0.92568 0.17657 -0.35500
O 	O 	0.55980 0.09706 0.49600 -0.50400
O 	O 	0.32700 0.14916 0.53781 -0.50600
H 	H 	0.89958 0.75000 0.61357 -1.24900
Zn	Zn	0.34966 0.91321 0.04868 1.19100
H 	H 	0.27170 0.02570 0.79390 0.00400
H 	H 	0.48870 0.87110 0.83370 0.10700
H 	H 	0.41190 0.92140 0.63270 0.12200
H 	H 	0.42610 0.80450 0.69510 0.25000
H 	H 	0.60760 0.81270 0.73840 0.25300
H 	H 	0.59530 0.83420 0.65960 0.29100
H 	H 	0.69000 0.83580 0.94980 -0.31000
H 	H 	0.39050 0.77530 0.93960 -0.75100
C 	C 	0.32040 0.99131 0.77772 0.02800
C 	C 	0.37320 0.94966 0.82588 -0.02100
C 	C 	0.44770 0.89820 0.80118 -0.20300
C 	C 	0.33470 0.95748 0.90385 0.34000
C 	C 	0.27980 0.02685 0.65490 0.24600
C 	C 	0.34050 0.98165 0.70488 0.03600
C 	C 	0.40570 0.92872 0.68126 -0.23000
C 	C 	0.46140 0.88692 0.72900 0.30200
C 	C 	0.52880 0.82933 0.70315 -0.80900
C 	C 	0.01600 0.85656 0.01001 0.40500
C 	C 	0.91930 0.80151 0.99255 -0.42900
C 	C 	0.74670 0.80122 0.96073 0.91200
O 	O 	0.22710 0.99695 0.92107 -0.41000
O 	O 	0.40720 0.92265 0.94630 -0.44600
O 	O 	0.27340 0.01563 0.58713 -0.55300
O 	O 	0.23050 0.07432 0.67657 -0.34600
O 	O 	0.94020 0.90294 0.99600 -0.40300
O 	O 	0.17300 0.85084 0.03781 -0.47600
Zn	Zn	0.84966 0.58679 0.45132 1.19900
H 	H 	0.77170 0.47430 0.70610 0.08300
H 	H 	0.98870 0.62890 0.66630 0.12700
H 	H 	0.91190 0.57860 0.86730 0.13100
H 	H 	0.92610 0.69550 0.80490 0.29200
H 	H 	0.10760 0.68730 0.76160 0.29600
H 	H 	0.09530 0.66580 0.84040 0.33900
H 	H 	0.19000 0.66420 0.55020 -0.26100
H 	H 	0.89050 0.72470 0.56040 -0.53900
C 	C 	0.82040 0.50869 0.72228 -0.09300
C 	C 	0.87320 0.55034 0.67412 0.03200
C 	C 	0.94770 0.60180 0.69882 -0.26000
C 	C 	0.83470 0.54252 0.59615 0.32200
C 	C 	0.77980 0.47315 0.84510 0.28000
C 	C 	0.84050 0.51835 0.79512 0.04500
C 	C 	0.90570 0.57128 0.81874 -0.26800
C 	C 	0.96140 0.61308 0.77100 0.36900
C 	C 	0.02880 0.67067 0.79685 -0.93800
C 	C 	0.51600 0.64344 0.48999 0.53700
C 	C 	0.41930 0.69849 0.50745 -0.53300
C 	C 	0.24670 0.69878 0.53927 0.76900
O 	O 	0.72710 0.50305 0.57893 -0.44900
O 	O 	0.90720 0.57735 0.55370 -0.46600
O 	O 	0.77340 0.48437 0.91287 -0.52200
O 	O 	0.73050 0.42568 0.82343 -0.33800
O 	O 	0.44020 0.59706 0.50400 -0.49100
O 	O 	0.67300 0.64916 0.46219 -0.50000
H 	H 	0.10042 0.25000 0.38643 -1.46400
Zn	Zn	0.65034 0.41321 0.95132 1.20700
H 	H 	0.72830 0.52570 0.20610 0.07700
H 	H 	0.51130 0.37110 0.16630 0.11800
H 	H 	0.58810 0.42140 0.36730 0.12100
H 	H 	0.57390 0.30450 0.30490 0.26800
H 	H 	0.39240 0.31270 0.26160 0.27600
H 	H 	0.40470 0.33420 0.34040 0.31100
H 	H 	0.31000 0.33580 0.05020 -0.23800
H 	H 	0.60950 0.27530 0.06040 -0.39800
C 	C 	0.67960 0.49131 0.22228 -0.07700
C 	C 	0.62680 0.44966 0.17412 0.01600
C 	C 	0.55230 0.39820 0.19882 -0.23600
C 	C 	0.66530 0.45748 0.09615 0.33000
C 	C 	0.72020 0.52685 0.34510 0.28800
C 	C 	0.65950 0.48165 0.29512 0.03000
C 	C 	0.59430 0.42872 0.31874 -0.24200
C 	C 	0.53860 0.38692 0.27100 0.33300
C 	C 	0.47120 0.32933 0.29685 -0.85900
C 	C 	0.98400 0.35656 0.98999 0.67800
C 	C 	0.08070 0.30151 0.00745 -0.67700
C 	C 	0.25330 0.30122 0.03927 0.71700
O 	O 	0.77290 0.49695 0.07893 -0.45800
O 	O 	0.59280 0.42265 0.05370 -0.48500
O 	O 	0.72660 0.51563 0.41287 -0.53400
O 	O 	0.76950 0.57432 0.32343 -0.34200
O 	O 	0.05980 0.40294 0.00400 -0.56300
O 	O 	0.82700 0.35084 0.96219 -0.52400
H 	H 	0.39958 0.75000 0.88643 -1.73500
Cd	Cd	0.50000 0.00000 0.50000 1.22000
Cd	Cd	-0.00000 0.00000 -0.00000 1.20400
Cd	Cd	0.50000 0.50000 0.50000 1.23600
Cd	Cd	0.00000 0.50000 -0.00000 1.21900
H 	H 	0.61730 0.75000 0.46900 -0.06600
C 	C 	0.50350 0.75000 0.49110 0.45900
C 	C 	0.15870 0.75000 0.55480 -1.27700
C 	C 	0.96800 0.75000 0.58700 2.69900
H 	H 	0.88270 0.25000 0.96900 -0.13500
C 	C 	0.99650 0.25000 0.99110 0.66500
C 	C 	0.34130 0.25000 0.05480 -1.05500
C 	C 	0.53200 0.25000 0.08700 1.99500
H 	H 	0.38270 0.25000 0.53100 -0.08500
C 	C 	0.49650 0.25000 0.50890 0.52800
C 	C 	0.84130 0.25000 0.44520 -1.46300
C 	C 	0.03200 0.25000 0.41300 3.16100
H 	H 	0.11730 0.75000 0.03100 -0.01000
C 	C 	0.00350 0.75000 0.00890 0.29600
C 	C 	0.65870 0.75000 0.94520 -1.63900
C 	C 	0.46800 0.75000 0.91300 3.75000
