data_crystal

_cell_length_a 5.49400
_cell_length_b 7.93160
_cell_length_c 7.93160
_cell_angle_alpha 108.47300
_cell_angle_beta  90.40030
_cell_angle_gamma 90.40030

_symmetry_space_group_name_	'P 1'
_symmetry_space_group_name_H-M	'P 1'

loop_
_symmetry_equiv_pos_as_xyz
  x,y,z

loop_
_atom_site_label
_atom_site_type_symbol
_atom_site_fract_x
_atom_site_fract_y
_atom_site_fract_z
_atom_site_charge
Co	Co	0.50000 0.00000 -0.00000 1.11000
Co	Co	-0.00000 0.88011 0.11989 1.05200
Co	Co	-0.00000 0.11989 0.88011 1.05100
H 	H 	0.14400 0.80800 0.80800 0.24400
H 	H 	0.85600 0.19200 0.19200 0.36500
C 	C 	0.42460 0.00850 0.38390 0.02800
C 	C 	0.65840 0.94780 0.43260 0.11700
C 	C 	0.57540 0.61610 0.99150 0.18400
C 	C 	0.34160 0.56740 0.05220 -0.02300
C 	C 	0.57540 0.99150 0.61610 0.18400
C 	C 	0.34160 0.05220 0.56740 -0.02300
C 	C 	0.42460 0.38390 0.00850 0.02800
C 	C 	0.65840 0.43260 0.94780 0.11700
O 	O 	0.32900 0.02001 0.24299 -0.51900
O 	O 	0.85010 0.88186 0.35614 -0.17300
O 	O 	0.67100 0.75701 0.97999 -0.32500
O 	O 	0.14990 0.64386 0.11814 -0.43100
O 	O 	0.67100 0.97999 0.75701 -0.32500
O 	O 	0.14990 0.11814 0.64386 -0.43100
O 	O 	0.32900 0.24299 0.02001 -0.51900
O 	O 	0.85010 0.35614 0.88186 -0.17300
O 	O 	0.17440 0.89700 0.89700 -0.75100
O 	O 	0.82560 0.10300 0.10300 -0.78700
