data_crystal

_cell_length_a 5.49980
_cell_length_b 7.93570
_cell_length_c 7.93570
_cell_angle_alpha 108.28800
_cell_angle_beta  90.31220
_cell_angle_gamma 90.31220

_symmetry_space_group_name_	'P 1'
_symmetry_space_group_name_H-M	'P 1'

loop_
_symmetry_equiv_pos_as_xyz
  x,y,z

loop_
_atom_site_label
_atom_site_type_symbol
_atom_site_fract_x
_atom_site_fract_y
_atom_site_fract_z
_atom_site_charge
Co	Co	0.50000 0.00000 -0.00000 1.11700
Co	Co	-0.00000 0.87986 0.12014 1.05900
Co	Co	-0.00000 0.12014 0.87986 1.06000
H 	H 	0.84400 0.18200 0.18200 0.50300
H 	H 	0.15600 0.81800 0.81800 0.38100
C 	C 	0.65850 0.94770 0.43270 0.12000
C 	C 	0.42460 0.00820 0.38400 0.02200
C 	C 	0.34150 0.56730 0.05230 -0.01900
C 	C 	0.57540 0.61600 0.99180 0.17700
C 	C 	0.34150 0.05230 0.56730 -0.01900
C 	C 	0.57540 0.99180 0.61600 0.17700
C 	C 	0.65850 0.43270 0.94770 0.12000
C 	C 	0.42460 0.38400 0.00820 0.02200
O 	O 	0.84920 0.88194 0.35666 -0.17400
O 	O 	0.32850 0.01930 0.24310 -0.51400
O 	O 	0.15080 0.64334 0.11806 -0.43500
O 	O 	0.67150 0.75690 0.98070 -0.31800
O 	O 	0.15080 0.11806 0.64334 -0.43500
O 	O 	0.67150 0.98070 0.75690 -0.31800
O 	O 	0.84920 0.35666 0.88194 -0.17400
O 	O 	0.32850 0.24310 0.01930 -0.51400
O 	O 	0.82610 0.10210 0.10210 -0.94200
O 	O 	0.17390 0.89790 0.89790 -0.89600
