data_crystal

_cell_length_a 9.44170
_cell_length_b 13.70050
_cell_length_c 15.65230
_cell_angle_alpha 90.00000
_cell_angle_beta  90.00000
_cell_angle_gamma 90.00000

_symmetry_space_group_name_	'P 1'
_symmetry_space_group_name_H-M	'P 1'

loop_
_symmetry_equiv_pos_as_xyz
  x,y,z

loop_
_atom_site_label
_atom_site_type_symbol
_atom_site_fract_x
_atom_site_fract_y
_atom_site_fract_z
_atom_site_charge
Cd	Cd	0.60374 0.86779 0.50267 1.20700
Cd	Cd	0.86587 0.99871 0.38738 1.20100
Cd	Cd	0.79141 0.73167 0.77736 1.24600
Cd	Cd	0.60374 0.13221 0.49733 1.20800
Cd	Cd	0.86587 0.00129 0.61262 1.20200
Cd	Cd	0.79141 0.26833 0.22264 1.24600
Cd	Cd	0.39626 0.63221 0.00267 1.20700
Cd	Cd	0.13413 0.50129 0.88738 1.20200
Cd	Cd	0.20859 0.76833 0.27736 1.24600
Cd	Cd	0.39626 0.36779 0.99733 1.20700
Cd	Cd	0.13413 0.49871 0.11262 1.20200
Cd	Cd	0.20859 0.23167 0.72264 1.24600
H 	H 	0.66600 0.68100 0.45000 0.21600
H 	H 	0.80900 0.91100 0.24300 0.18500
H 	H 	0.89150 0.65630 0.49080 0.06700
H 	H 	0.00670 0.80800 0.53780 -0.00700
H 	H 	0.56640 0.96350 0.20180 0.07000
H 	H 	0.47470 0.05070 0.32870 0.00400
H 	H 	0.66600 0.31900 0.55000 0.21600
H 	H 	0.80900 0.08900 0.75700 0.18500
H 	H 	0.89150 0.34370 0.50920 0.06700
H 	H 	0.00670 0.19200 0.46220 -0.00700
H 	H 	0.56640 0.03650 0.79820 0.07000
H 	H 	0.47470 0.94930 0.67130 0.00400
H 	H 	0.33400 0.81900 0.95000 0.21600
H 	H 	0.19100 0.58900 0.74300 0.18500
H 	H 	0.10850 0.84370 0.99080 0.07200
H 	H 	0.99330 0.69200 0.03780 -0.00800
H 	H 	0.43360 0.53650 0.70180 0.07000
H 	H 	0.52530 0.44930 0.82870 0.00200
H 	H 	0.33400 0.18100 0.05000 0.21600
H 	H 	0.19100 0.41100 0.25700 0.18500
H 	H 	0.10850 0.15630 0.00920 0.07200
H 	H 	0.99330 0.30800 0.96220 -0.00800
H 	H 	0.43360 0.46350 0.29820 0.07000
H 	H 	0.52530 0.55070 0.17130 0.00200
C 	C 	0.78820 0.72070 0.59550 0.28900
C 	C 	0.83810 0.71780 0.50270 -0.03200
C 	C 	0.93480 0.80830 0.49080 0.03100
C 	C 	0.01250 0.79950 0.40690 0.25900
C 	C 	0.69590 0.08080 0.23910 0.28800
C 	C 	0.62600 0.98150 0.25220 -0.04000
C 	C 	0.53400 0.99060 0.33430 0.02100
C 	C 	0.43480 0.90350 0.33750 0.28800
C 	C 	0.78820 0.27930 0.40450 0.28900
C 	C 	0.83810 0.28220 0.49730 -0.03200
C 	C 	0.93480 0.19170 0.50920 0.03100
C 	C 	0.01250 0.20050 0.59310 0.25900
C 	C 	0.69590 0.91920 0.76090 0.28800
C 	C 	0.62600 0.01850 0.74780 -0.04000
C 	C 	0.53400 0.00940 0.66570 0.02100
C 	C 	0.43480 0.09650 0.66250 0.28800
C 	C 	0.21180 0.77930 0.09550 0.29100
C 	C 	0.16190 0.78220 0.00270 -0.04200
C 	C 	0.06520 0.69170 0.99080 0.03500
C 	C 	0.98750 0.70050 0.90690 0.25900
C 	C 	0.30410 0.41920 0.73910 0.28600
C 	C 	0.37400 0.51850 0.75220 -0.03900
C 	C 	0.46600 0.50940 0.83430 0.02400
C 	C 	0.56520 0.59650 0.83750 0.28700
C 	C 	0.21180 0.22070 0.90450 0.29100
C 	C 	0.16190 0.21780 0.99730 -0.04200
C 	C 	0.06520 0.30830 0.00920 0.03500
C 	C 	0.98750 0.29950 0.09310 0.25900
C 	C 	0.30410 0.58080 0.26090 0.28600
C 	C 	0.37400 0.48150 0.24780 -0.03900
C 	C 	0.46600 0.49060 0.16570 0.02400
C 	C 	0.56520 0.40350 0.16250 0.28700
O 	O 	0.67490 0.76030 0.61410 -0.44000
O 	O 	0.87610 0.68960 0.65150 -0.39700
O 	O 	0.72360 0.72810 0.44570 -0.43300
O 	O 	0.85380 0.89260 0.49890 -0.56900
O 	O 	0.00360 0.86440 0.35030 -0.46900
O 	O 	0.09170 0.72500 0.39640 -0.37200
O 	O 	0.81810 0.09560 0.26920 -0.48200
O 	O 	0.62680 0.14550 0.20000 -0.36100
O 	O 	0.72960 0.90850 0.26900 -0.38100
O 	O 	0.61680 0.00080 0.40660 -0.55600
O 	O 	0.44170 0.84210 0.39650 -0.43800
O 	O 	0.34490 0.89930 0.27750 -0.39600
O 	O 	0.67490 0.23970 0.38590 -0.44000
O 	O 	0.87610 0.31040 0.34850 -0.39700
O 	O 	0.72360 0.27190 0.55430 -0.43300
O 	O 	0.85380 0.10740 0.50110 -0.56900
O 	O 	0.00360 0.13560 0.64970 -0.46900
O 	O 	0.09170 0.27500 0.60360 -0.37200
O 	O 	0.81810 0.90440 0.73080 -0.48200
O 	O 	0.62680 0.85450 0.80000 -0.36100
O 	O 	0.72960 0.09150 0.73100 -0.38100
O 	O 	0.61680 0.99920 0.59340 -0.55600
O 	O 	0.44170 0.15790 0.60350 -0.43800
O 	O 	0.34490 0.10070 0.72250 -0.39600
O 	O 	0.32510 0.73970 0.11410 -0.44100
O 	O 	0.12390 0.81040 0.15150 -0.39900
O 	O 	0.27640 0.77190 0.94570 -0.42900
O 	O 	0.14620 0.60740 0.99890 -0.57000
O 	O 	0.99640 0.63560 0.85030 -0.46800
O 	O 	0.90830 0.77500 0.89640 -0.37100
O 	O 	0.18190 0.40440 0.76920 -0.48300
O 	O 	0.37320 0.35450 0.70000 -0.36100
O 	O 	0.27040 0.59150 0.76900 -0.38100
O 	O 	0.38320 0.49920 0.90660 -0.55800
O 	O 	0.55830 0.65790 0.89650 -0.43700
O 	O 	0.65510 0.60070 0.77750 -0.39500
O 	O 	0.32510 0.26030 0.88590 -0.44100
O 	O 	0.12390 0.18960 0.84850 -0.39900
O 	O 	0.27640 0.22810 0.05430 -0.42900
O 	O 	0.14620 0.39260 0.00110 -0.57000
O 	O 	0.99640 0.36440 0.14970 -0.46800
O 	O 	0.90830 0.22500 0.10360 -0.37100
O 	O 	0.18190 0.59560 0.23080 -0.48300
O 	O 	0.37320 0.64550 0.30000 -0.36100
O 	O 	0.27040 0.40850 0.23100 -0.38100
O 	O 	0.38320 0.50080 0.09340 -0.55800
O 	O 	0.55830 0.34210 0.10350 -0.43700
O 	O 	0.65510 0.39930 0.22250 -0.39500
