data_crystal

_cell_length_a 12.18600
_cell_length_b 16.73420
_cell_length_c 27.62900
_cell_angle_alpha 106.97100
_cell_angle_beta  90.00000
_cell_angle_gamma 111.35300

_symmetry_space_group_name_	'P 1'
_symmetry_space_group_name_H-M	'P 1'

loop_
_symmetry_equiv_pos_as_xyz
  x,y,z

loop_
_atom_site_label
_atom_site_type_symbol
_atom_site_fract_x
_atom_site_fract_y
_atom_site_fract_z
_atom_site_charge
Zn	Zn	0.15851 0.52102 0.12113 1.22800
Zn	Zn	0.26789 0.35918 0.12460 1.17000
Zn	Zn	0.28485 0.05058 0.82039 1.19500
Zn	Zn	0.63749 0.47898 0.37887 1.22800
Zn	Zn	0.90871 0.64082 0.37540 1.17000
Zn	Zn	0.23427 0.94942 0.67961 1.19500
Zn	Zn	0.84149 0.47898 0.87887 1.22800
Zn	Zn	0.73211 0.64082 0.87540 1.17000
Zn	Zn	0.71515 0.94942 0.17961 1.19600
Zn	Zn	0.36251 0.52102 0.62113 1.22900
Zn	Zn	0.09129 0.35918 0.62460 1.17100
Zn	Zn	0.76573 0.05058 0.32039 1.19600
H 	H 	0.21090 0.23720 0.96110 0.02600
H 	H 	0.01850 0.21760 0.83580 0.04200
H 	H 	0.03260 0.39920 0.97150 0.03900
H 	H 	0.47780 0.52960 0.26080 0.02300
H 	H 	0.72770 0.78020 0.32000 0.01900
H 	H 	0.49000 0.72840 0.20270 0.01700
H 	H 	0.97370 0.76280 0.53890 0.02500
H 	H 	0.80090 0.78240 0.66420 0.04200
H 	H 	0.63340 0.60080 0.52850 0.03900
H 	H 	0.94820 0.47040 0.23920 0.02300
H 	H 	0.94750 0.21980 0.18000 0.01900
H 	H 	0.76160 0.27160 0.29730 0.01700
H 	H 	0.78910 0.76280 0.03890 0.02600
H 	H 	0.98150 0.78240 0.16420 0.04200
H 	H 	0.96740 0.60080 0.02850 0.03900
H 	H 	0.52220 0.47040 0.73920 0.02300
H 	H 	0.27230 0.21980 0.68000 0.01900
H 	H 	0.51000 0.27160 0.79730 0.01700
H 	H 	0.02630 0.23720 0.46110 0.02500
H 	H 	0.19910 0.21760 0.33580 0.04200
H 	H 	0.36660 0.39920 0.47150 0.03900
H 	H 	0.05180 0.52960 0.76080 0.02300
H 	H 	0.05250 0.78020 0.82000 0.01900
H 	H 	0.23840 0.72840 0.70270 0.01700
C 	C 	0.12874 0.32428 0.97403 -0.14600
C 	C 	0.16286 0.25692 0.94540 0.06100
C 	C 	0.12583 0.21726 0.89250 -0.11400
C 	C 	0.04738 0.24516 0.87018 0.04200
C 	C 	0.01289 0.31358 0.89915 -0.11400
C 	C 	0.05480 0.35340 0.95182 0.05700
C 	C 	0.17015 0.36690 0.03048 0.41700
C 	C 	0.16895 0.14990 0.86100 0.30800
C 	C 	0.93720 0.34860 0.87380 0.35400
C 	C 	0.46560 0.61900 0.22540 -0.15800
C 	C 	0.51245 0.58930 0.26089 0.07600
C 	C 	0.60998 0.65016 0.29557 -0.15000
C 	C 	0.66188 0.73996 0.29661 0.08000
C 	C 	0.61420 0.76920 0.26210 -0.15700
C 	C 	0.51899 0.70898 0.22637 0.08400
C 	C 	0.36335 0.55310 0.18628 0.39400
C 	C 	0.66195 0.61750 0.33164 0.38400
C 	C 	0.66952 0.86604 0.26190 0.39200
C 	C 	0.80446 0.67572 0.52597 -0.14600
C 	C 	0.90594 0.74308 0.55460 0.06100
C 	C 	0.90857 0.78274 0.60750 -0.11500
C 	C 	0.80222 0.75484 0.62982 0.04200
C 	C 	0.69931 0.68642 0.60085 -0.11300
C 	C 	0.70140 0.64660 0.54818 0.05700
C 	C 	0.80325 0.63310 0.46952 0.41700
C 	C 	0.01905 0.85010 0.63900 0.30800
C 	C 	0.58860 0.65140 0.62620 0.35400
C 	C 	0.84660 0.38100 0.27460 -0.15800
C 	C 	0.92315 0.41070 0.23911 0.07600
C 	C 	0.95982 0.34984 0.20443 -0.15000
C 	C 	0.92192 0.26004 0.20339 0.07900
C 	C 	0.84500 0.23080 0.23790 -0.15700
C 	C 	0.81001 0.29102 0.27363 0.08400
C 	C 	0.81025 0.44690 0.31372 0.39400
C 	C 	0.04445 0.38250 0.16836 0.38300
C 	C 	0.80348 0.13396 0.23810 0.39200
C 	C 	0.87126 0.67572 0.02597 -0.14600
C 	C 	0.83714 0.74308 0.05460 0.06100
C 	C 	0.87417 0.78274 0.10750 -0.11400
C 	C 	0.95262 0.75484 0.12982 0.04200
C 	C 	0.98711 0.68642 0.10085 -0.11400
C 	C 	0.94520 0.64660 0.04818 0.05700
C 	C 	0.82985 0.63310 0.96952 0.41700
C 	C 	0.83105 0.85010 0.13900 0.30800
C 	C 	0.06280 0.65140 0.12620 0.35400
C 	C 	0.53440 0.38100 0.77460 -0.15800
C 	C 	0.48755 0.41070 0.73911 0.07600
C 	C 	0.39002 0.34984 0.70443 -0.15000
C 	C 	0.33812 0.26004 0.70339 0.08000
C 	C 	0.38580 0.23080 0.73790 -0.15700
C 	C 	0.48101 0.29102 0.77363 0.08400
C 	C 	0.63665 0.44690 0.81372 0.39400
C 	C 	0.33805 0.38250 0.66836 0.38400
C 	C 	0.33048 0.13396 0.73810 0.39200
C 	C 	0.19554 0.32428 0.47403 -0.14600
C 	C 	0.09406 0.25692 0.44540 0.06100
C 	C 	0.09143 0.21726 0.39250 -0.11500
C 	C 	0.19778 0.24516 0.37018 0.04200
C 	C 	0.30069 0.31358 0.39915 -0.11300
C 	C 	0.29860 0.35340 0.45182 0.05700
C 	C 	0.19675 0.36690 0.53048 0.41700
C 	C 	0.98095 0.14990 0.36100 0.30800
C 	C 	0.41140 0.34860 0.37380 0.35400
C 	C 	0.15340 0.61900 0.72540 -0.15800
C 	C 	0.07685 0.58930 0.76089 0.07600
C 	C 	0.04018 0.65016 0.79557 -0.15000
C 	C 	0.07808 0.73996 0.79661 0.07900
C 	C 	0.15500 0.76920 0.76210 -0.15700
C 	C 	0.18999 0.70898 0.72637 0.08400
C 	C 	0.18975 0.55310 0.68628 0.39400
C 	C 	0.95555 0.61750 0.83164 0.38300
C 	C 	0.19652 0.86604 0.76190 0.39200
O 	O 	0.14979 0.43658 0.05266 -0.49900
O 	O 	0.22404 0.33148 0.05090 -0.52700
O 	O 	0.24714 0.13208 0.88085 -0.45400
O 	O 	0.13044 0.11168 0.81307 -0.32800
O 	O 	0.91200 0.31900 0.82818 -0.31100
O 	O 	0.90847 0.40954 0.90458 -0.45300
O 	O 	0.32179 0.58358 0.15675 -0.49400
O 	O 	0.32584 0.47208 0.18508 -0.51900
O 	O 	0.60027 0.53934 0.33384 -0.47700
O 	O 	0.76400 0.66920 0.35697 -0.47500
O 	O 	0.74477 0.92234 0.29943 -0.49900
O 	O 	0.63146 0.88552 0.22591 -0.53300
O 	O 	0.71321 0.56342 0.44734 -0.49900
O 	O 	0.89256 0.66852 0.44910 -0.52700
O 	O 	0.11506 0.86792 0.61915 -0.45400
O 	O 	0.01876 0.88832 0.68693 -0.32800
O 	O 	0.59300 0.68100 0.67182 -0.31100
O 	O 	0.49893 0.59046 0.59542 -0.45300
O 	O 	0.73821 0.41642 0.34325 -0.49400
O 	O 	0.85376 0.52792 0.31492 -0.51900
O 	O 	0.06093 0.46066 0.16616 -0.47700
O 	O 	0.09480 0.33080 0.14303 -0.47500
O 	O 	0.82243 0.07766 0.20057 -0.49800
O 	O 	0.74594 0.11448 0.27409 -0.53300
O 	O 	0.85021 0.56342 0.94734 -0.49900
O 	O 	0.77596 0.66852 0.94910 -0.52700
O 	O 	0.75286 0.86792 0.11915 -0.45400
O 	O 	0.86956 0.88832 0.18693 -0.32800
O 	O 	0.08800 0.68100 0.17182 -0.31100
O 	O 	0.09153 0.59046 0.09542 -0.45300
O 	O 	0.67821 0.41642 0.84325 -0.49400
O 	O 	0.67416 0.52792 0.81492 -0.51900
O 	O 	0.39973 0.46066 0.66616 -0.47700
O 	O 	0.23600 0.33080 0.64303 -0.47500
O 	O 	0.25523 0.07766 0.70057 -0.49900
O 	O 	0.36854 0.11448 0.77409 -0.53300
O 	O 	0.28679 0.43658 0.55266 -0.49900
O 	O 	0.10744 0.33148 0.55090 -0.52700
O 	O 	0.88494 0.13208 0.38085 -0.45400
O 	O 	0.98124 0.11168 0.31307 -0.32800
O 	O 	0.40700 0.31900 0.32818 -0.31100
O 	O 	0.50107 0.40954 0.40458 -0.45300
O 	O 	0.26179 0.58358 0.65675 -0.49400
O 	O 	0.14624 0.47208 0.68508 -0.51900
O 	O 	0.93907 0.53934 0.83384 -0.47700
O 	O 	0.90520 0.66920 0.85697 -0.47500
O 	O 	0.17757 0.92234 0.79943 -0.49800
O 	O 	0.25406 0.88552 0.72591 -0.53300
