data_crystal

_cell_length_a 12.10400
_cell_length_b 18.06000
_cell_length_c 31.65000
_cell_angle_alpha 90.48000
_cell_angle_beta  90.00000
_cell_angle_gamma 90.00000

_symmetry_space_group_name_	'P 1'
_symmetry_space_group_name_H-M	'P 1'

loop_
_symmetry_equiv_pos_as_xyz
  x,y,z

loop_
_atom_site_label
_atom_site_type_symbol
_atom_site_fract_x
_atom_site_fract_y
_atom_site_fract_z
_atom_site_charge
Zn	Zn	0.40112 0.95594 0.48653 1.19600
Zn	Zn	0.59907 0.45502 0.51243 1.19700
Zn	Zn	0.99797 0.66586 0.69005 1.21800
Zn	Zn	0.40818 0.75465 0.26871 1.18300
Zn	Zn	0.03162 0.14537 0.30540 1.20500
Zn	Zn	0.90112 0.04406 0.01347 1.19500
Zn	Zn	0.09907 0.54498 0.98757 1.19500
Zn	Zn	0.49797 0.33414 0.80995 1.21900
Zn	Zn	0.90818 0.24535 0.23129 1.18300
Zn	Zn	0.53162 0.85463 0.19460 1.20600
Zn	Zn	0.59888 0.04406 0.51347 1.19500
Zn	Zn	0.40093 0.54498 0.48757 1.19600
Zn	Zn	0.00203 0.33414 0.30995 1.21800
Zn	Zn	0.59182 0.24535 0.73129 1.18300
Zn	Zn	0.96838 0.85463 0.69460 1.20500
Zn	Zn	0.09888 0.95594 0.98653 1.19500
Zn	Zn	0.90093 0.45502 0.01243 1.19500
Zn	Zn	0.50203 0.66586 0.19005 1.21900
Zn	Zn	0.09182 0.75465 0.76871 1.18300
Zn	Zn	0.46838 0.14537 0.80540 1.20600
H 	H 	0.74300 0.95660 0.27240 0.01300
H 	H 	0.53790 0.88740 0.36660 0.02000
H 	H 	0.77110 0.05040 0.39120 0.03000
H 	H 	0.73040 0.44000 0.38490 0.03200
H 	H 	0.50780 0.59990 0.35880 0.03000
H 	H 	0.70480 0.51900 0.26500 0.03500
H 	H 	0.77820 0.85910 0.59100 0.02300
H 	H 	0.76140 0.63240 0.58740 0.03000
H 	H 	0.55540 0.75540 0.51270 0.02100
H 	H 	0.24300 0.04340 0.22760 0.01300
H 	H 	0.03790 0.11260 0.13340 0.01900
H 	H 	0.27110 0.94960 0.10880 0.03000
H 	H 	0.23040 0.56000 0.11510 0.03200
H 	H 	0.00780 0.40010 0.14120 0.02900
H 	H 	0.20480 0.48100 0.23500 0.03500
H 	H 	0.27820 0.14090 0.90900 0.02300
H 	H 	0.26140 0.36760 0.91260 0.03100
H 	H 	0.05540 0.24460 0.98730 0.02100
H 	H 	0.25700 0.04340 0.72760 0.01300
H 	H 	0.46210 0.11260 0.63340 0.02000
H 	H 	0.22890 0.94960 0.60880 0.03000
H 	H 	0.26960 0.56000 0.61510 0.03200
H 	H 	0.49220 0.40010 0.64120 0.03000
H 	H 	0.29520 0.48100 0.73500 0.03500
H 	H 	0.22180 0.14090 0.40900 0.02300
H 	H 	0.23860 0.36760 0.41260 0.03000
H 	H 	0.44460 0.24460 0.48730 0.02100
H 	H 	0.75700 0.95660 0.77240 0.01300
H 	H 	0.96210 0.88740 0.86660 0.01900
H 	H 	0.72890 0.05040 0.89120 0.03000
H 	H 	0.76960 0.44000 0.88490 0.03200
H 	H 	0.99220 0.59990 0.85880 0.02900
H 	H 	0.79520 0.51900 0.76500 0.03500
H 	H 	0.72180 0.85910 0.09100 0.02300
H 	H 	0.73860 0.63240 0.08740 0.03100
H 	H 	0.94460 0.75540 0.01270 0.02100
C 	C 	0.77460 0.00760 0.32970 -0.14300
C 	C 	0.72020 0.95870 0.30110 0.08300
C 	C 	0.63190 0.91270 0.31510 -0.17900
C 	C 	0.59590 0.91820 0.35680 0.09200
C 	C 	0.64840 0.97170 0.38530 -0.15300
C 	C 	0.73710 0.01600 0.37230 0.07500
C 	C 	0.86590 0.05410 0.31560 0.34700
C 	C 	0.57550 0.86380 0.28750 0.40600
C 	C 	0.60350 0.98010 0.42930 0.43200
C 	C 	0.73170 0.47130 0.32390 -0.11500
C 	C 	0.69670 0.47190 0.36500 0.05800
C 	C 	0.60920 0.52050 0.37810 -0.12900
C 	C 	0.56510 0.56730 0.34990 0.07500
C 	C 	0.60110 0.56970 0.30710 -0.14100
C 	C 	0.68230 0.52030 0.29370 0.06000
C 	C 	0.82450 0.41930 0.30930 0.34600
C 	C 	0.56610 0.51820 0.42310 0.37800
C 	C 	0.54830 0.62210 0.27750 0.40600
C 	C 	0.65530 0.81800 0.54890 -0.13800
C 	C 	0.74210 0.81540 0.58150 0.07600
C 	C 	0.76800 0.74950 0.59710 -0.14600
C 	C 	0.73240 0.67860 0.57860 0.06800
C 	C 	0.65080 0.68460 0.54630 -0.14700
C 	C 	0.61270 0.75330 0.53320 0.08300
C 	C 	0.61330 0.88980 0.53380 0.35300
C 	C 	0.85390 0.74570 0.63250 0.42800
C 	C 	0.60250 0.61700 0.52810 0.38900
C 	C 	0.27460 0.99240 0.17030 -0.14100
C 	C 	0.22020 0.04130 0.19890 0.08000
C 	C 	0.13190 0.08730 0.18490 -0.17800
C 	C 	0.09590 0.08180 0.14320 0.09000
C 	C 	0.14840 0.02830 0.11470 -0.15400
C 	C 	0.23710 0.98400 0.12770 0.07600
C 	C 	0.36590 0.94590 0.18440 0.34700
C 	C 	0.07550 0.13620 0.21250 0.40100
C 	C 	0.10350 0.01990 0.07070 0.43000
C 	C 	0.23170 0.52870 0.17610 -0.11500
C 	C 	0.19670 0.52810 0.13500 0.05700
C 	C 	0.10920 0.47950 0.12190 -0.12800
C 	C 	0.06510 0.43270 0.15010 0.07400
C 	C 	0.10110 0.43030 0.19290 -0.14000
C 	C 	0.18230 0.47970 0.20630 0.05900
C 	C 	0.32450 0.58070 0.19070 0.34500
C 	C 	0.06610 0.48180 0.07690 0.37600
C 	C 	0.04830 0.37790 0.22250 0.40100
C 	C 	0.15530 0.18200 0.95110 -0.13700
C 	C 	0.24210 0.18460 0.91850 0.07600
C 	C 	0.26800 0.25050 0.90290 -0.14600
C 	C 	0.23240 0.32140 0.92140 0.06800
C 	C 	0.15080 0.31540 0.95370 -0.14700
C 	C 	0.11270 0.24670 0.96680 0.08300
C 	C 	0.11330 0.11020 0.96620 0.35300
C 	C 	0.35390 0.25430 0.86750 0.42800
C 	C 	0.10250 0.38300 0.97190 0.38900
C 	C 	0.22540 0.99240 0.67030 -0.14300
C 	C 	0.27980 0.04130 0.69890 0.08300
C 	C 	0.36810 0.08730 0.68490 -0.17900
C 	C 	0.40410 0.08180 0.64320 0.09200
C 	C 	0.35160 0.02830 0.61470 -0.15300
C 	C 	0.26290 0.98400 0.62770 0.07500
C 	C 	0.13410 0.94590 0.68440 0.34700
C 	C 	0.42450 0.13620 0.71250 0.40600
C 	C 	0.39650 0.01990 0.57070 0.43200
C 	C 	0.26830 0.52870 0.67610 -0.11500
C 	C 	0.30330 0.52810 0.63500 0.05800
C 	C 	0.39080 0.47950 0.62190 -0.12900
C 	C 	0.43490 0.43270 0.65010 0.07500
C 	C 	0.39890 0.43030 0.69290 -0.14100
C 	C 	0.31770 0.47970 0.70630 0.06000
C 	C 	0.17550 0.58070 0.69070 0.34600
C 	C 	0.43390 0.48180 0.57690 0.37800
C 	C 	0.45170 0.37790 0.72250 0.40600
C 	C 	0.34470 0.18200 0.45110 -0.13800
C 	C 	0.25790 0.18460 0.41850 0.07600
C 	C 	0.23200 0.25050 0.40290 -0.14600
C 	C 	0.26760 0.32140 0.42140 0.06800
C 	C 	0.34920 0.31540 0.45370 -0.14700
C 	C 	0.38730 0.24670 0.46680 0.08300
C 	C 	0.38670 0.11020 0.46620 0.35300
C 	C 	0.14610 0.25430 0.36750 0.42800
C 	C 	0.39750 0.38300 0.47190 0.38900
C 	C 	0.72540 0.00760 0.82970 -0.14100
C 	C 	0.77980 0.95870 0.80110 0.08000
C 	C 	0.86810 0.91270 0.81510 -0.17800
C 	C 	0.90410 0.91820 0.85680 0.09000
C 	C 	0.85160 0.97170 0.88530 -0.15400
C 	C 	0.76290 0.01600 0.87230 0.07600
C 	C 	0.63410 0.05410 0.81560 0.34700
C 	C 	0.92450 0.86380 0.78750 0.40100
C 	C 	0.89650 0.98010 0.92930 0.43000
C 	C 	0.76830 0.47130 0.82390 -0.11500
C 	C 	0.80330 0.47190 0.86500 0.05700
C 	C 	0.89080 0.52050 0.87810 -0.12800
C 	C 	0.93490 0.56730 0.84990 0.07400
C 	C 	0.89890 0.56970 0.80710 -0.14000
C 	C 	0.81770 0.52030 0.79370 0.05900
C 	C 	0.67550 0.41930 0.80930 0.34500
C 	C 	0.93390 0.51820 0.92310 0.37600
C 	C 	0.95170 0.62210 0.77750 0.40100
C 	C 	0.84470 0.81800 0.04890 -0.13700
C 	C 	0.75790 0.81540 0.08150 0.07600
C 	C 	0.73200 0.74950 0.09710 -0.14600
C 	C 	0.76760 0.67860 0.07860 0.06800
C 	C 	0.84920 0.68460 0.04630 -0.14700
C 	C 	0.88730 0.75330 0.03320 0.08300
C 	C 	0.88670 0.88980 0.03380 0.35300
C 	C 	0.64610 0.74570 0.13250 0.42800
C 	C 	0.89750 0.61700 0.02810 0.38900
O 	O 	0.91870 0.09140 0.34300 -0.43200
O 	O 	0.88440 0.05980 0.27790 -0.39000
O 	O 	0.61260 0.84680 0.25140 -0.50600
O 	O 	0.48600 0.83380 0.30120 -0.49200
O 	O 	0.51050 0.95420 0.43640 -0.49400
O 	O 	0.65580 0.01940 0.45530 -0.48700
O 	O 	0.82520 0.39930 0.27160 -0.36500
O 	O 	0.89210 0.39910 0.33660 -0.45700
O 	O 	0.62730 0.48380 0.45015 -0.46200
O 	O 	0.47830 0.55240 0.43030 -0.46500
O 	O 	0.48050 0.66780 0.29321 -0.50700
O 	O 	0.57970 0.62040 0.23915 -0.48400
O 	O 	0.51740 0.88750 0.51550 -0.45900
O 	O 	0.66920 0.95160 0.53810 -0.44200
O 	O 	0.88330 0.80540 0.64720 -0.51200
O 	O 	0.88570 0.68300 0.64540 -0.48400
O 	O 	0.65630 0.55450 0.53180 -0.46200
O 	O 	0.50900 0.62040 0.51060 -0.48400
O 	O 	0.06440 0.76120 0.70845 -0.70800
O 	O 	0.41870 0.90860 0.15700 -0.43300
O 	O 	0.38440 0.94020 0.22210 -0.39100
O 	O 	0.11260 0.15320 0.24860 -0.50600
O 	O 	0.98600 0.16620 0.19880 -0.48700
O 	O 	0.01050 0.04580 0.06360 -0.49500
O 	O 	0.15580 0.98060 0.04470 -0.48500
O 	O 	0.32520 0.60070 0.22840 -0.36600
O 	O 	0.39210 0.60090 0.16340 -0.45900
O 	O 	0.12730 0.51620 0.04985 -0.46200
O 	O 	0.97830 0.44760 0.06970 -0.46300
O 	O 	0.98050 0.33220 0.20679 -0.50200
O 	O 	0.07970 0.37960 0.26085 -0.48400
O 	O 	0.01740 0.11250 0.98450 -0.45900
O 	O 	0.16920 0.04840 0.96190 -0.44100
O 	O 	0.38330 0.19460 0.85280 -0.51100
O 	O 	0.38570 0.31700 0.85460 -0.48300
O 	O 	0.15630 0.44550 0.96820 -0.46100
O 	O 	0.00900 0.37960 0.98940 -0.48400
O 	O 	0.56440 0.23880 0.79155 -0.71000
O 	O 	0.08130 0.90860 0.65700 -0.43200
O 	O 	0.11560 0.94020 0.72210 -0.39000
O 	O 	0.38740 0.15320 0.74860 -0.50600
O 	O 	0.51400 0.16620 0.69880 -0.49200
O 	O 	0.48950 0.04580 0.56360 -0.49400
O 	O 	0.34420 0.98060 0.54470 -0.48700
O 	O 	0.17480 0.60070 0.72840 -0.36500
O 	O 	0.10790 0.60090 0.66340 -0.45700
O 	O 	0.37270 0.51620 0.54985 -0.46200
O 	O 	0.52170 0.44760 0.56970 -0.46500
O 	O 	0.51950 0.33220 0.70679 -0.50700
O 	O 	0.42030 0.37960 0.76085 -0.48400
O 	O 	0.48260 0.11250 0.48450 -0.45900
O 	O 	0.33080 0.04840 0.46190 -0.44200
O 	O 	0.11670 0.19460 0.35280 -0.51200
O 	O 	0.11430 0.31700 0.35460 -0.48400
O 	O 	0.34370 0.44550 0.46820 -0.46200
O 	O 	0.49100 0.37960 0.48940 -0.48400
O 	O 	0.93560 0.23880 0.29155 -0.70800
O 	O 	0.58130 0.09140 0.84300 -0.43300
O 	O 	0.61560 0.05980 0.77790 -0.39100
O 	O 	0.88740 0.84680 0.75140 -0.50600
O 	O 	0.01400 0.83380 0.80120 -0.48700
O 	O 	0.98950 0.95420 0.93640 -0.49500
O 	O 	0.84420 0.01940 0.95530 -0.48500
O 	O 	0.67480 0.39930 0.77160 -0.36600
O 	O 	0.60790 0.39910 0.83660 -0.45900
O 	O 	0.87270 0.48380 0.95015 -0.46200
O 	O 	0.02170 0.55240 0.93030 -0.46300
O 	O 	0.01950 0.66780 0.79321 -0.50200
O 	O 	0.92030 0.62040 0.73915 -0.48400
O 	O 	0.98260 0.88750 0.01550 -0.45900
O 	O 	0.83080 0.95160 0.03810 -0.44100
O 	O 	0.61670 0.80540 0.14720 -0.51100
O 	O 	0.61430 0.68300 0.14540 -0.48300
O 	O 	0.84370 0.55450 0.03180 -0.46100
O 	O 	0.99100 0.62040 0.01060 -0.48400
O 	O 	0.43560 0.76120 0.20845 -0.71000
