data_crystal

_cell_length_a 16.63500
_cell_length_b 12.36000
_cell_length_c 10.35900
_cell_angle_alpha 90.00000
_cell_angle_beta  91.92000
_cell_angle_gamma 90.00000

_symmetry_space_group_name_	'P 1'
_symmetry_space_group_name_H-M	'P 1'

loop_
_symmetry_equiv_pos_as_xyz
  x,y,z

loop_
_atom_site_label
_atom_site_type_symbol
_atom_site_fract_x
_atom_site_fract_y
_atom_site_fract_z
_atom_site_charge
O 	O 	0.96500 0.08900 0.08100 -0.57100
O 	O 	0.98100 0.25500 0.01800 -0.38500
C 	C 	0.93700 0.17300 0.06100 0.43300
Bi	Bi	0.89899 0.12890 0.48670 1.90500
O 	O 	0.88200 0.21800 0.31500 -0.41400
O 	O 	0.79100 0.99300 0.15500 -0.28300
O 	O 	0.87300 0.00600 0.33200 -0.44600
O 	O 	0.75180 0.13300 0.45700 -0.43200
C 	C 	0.83100 0.05200 0.23600 0.17600
C 	C 	0.82800 0.16400 0.22700 0.16200
C 	C 	0.74100 0.20900 0.24500 -0.30900
C 	C 	0.70700 0.17900 0.37300 0.43200
C 	C 	0.85100 0.20400 0.09200 -0.32900
H 	H 	0.74000 0.30500 0.20300 0.09300
H 	H 	0.70900 0.16500 0.17900 0.13600
H 	H 	0.85200 0.28700 0.11000 0.15900
H 	H 	0.81200 0.16000 0.02500 0.11400
O 	O 	0.63530 0.20600 0.39500 -0.43600
Bi	Bi	0.10101 0.12890 0.01330 1.90400
O 	O 	0.11800 0.21800 0.18500 -0.41600
O 	O 	0.20900 0.99300 0.34500 -0.28600
O 	O 	0.12700 0.00600 0.16800 -0.44900
O 	O 	0.24820 0.13300 0.04300 -0.43300
C 	C 	0.16900 0.05200 0.26400 0.17700
C 	C 	0.17200 0.16400 0.27300 0.16100
C 	C 	0.25900 0.20900 0.25500 -0.30900
C 	C 	0.29300 0.17900 0.12700 0.43200
C 	C 	0.14900 0.20400 0.40800 -0.32900
H 	H 	0.26000 0.30500 0.29700 0.09200
H 	H 	0.29100 0.16500 0.32100 0.13600
H 	H 	0.14800 0.28700 0.39000 0.15800
H 	H 	0.18800 0.16000 0.47500 0.11300
O 	O 	0.03500 0.08900 0.41900 -0.57300
O 	O 	0.01900 0.25500 0.48200 -0.38800
C 	C 	0.06300 0.17300 0.43900 0.43400
O 	O 	0.36470 0.20600 0.10500 -0.43700
O 	O 	0.86470 0.29400 0.60500 -0.43700
O 	O 	0.53500 0.41100 0.91900 -0.57100
O 	O 	0.51900 0.24500 0.98200 -0.38600
C 	C 	0.56300 0.32700 0.93900 0.43300
Bi	Bi	0.60101 0.37110 0.51330 1.90600
O 	O 	0.61800 0.28200 0.68500 -0.41400
O 	O 	0.70900 0.50700 0.84500 -0.28700
O 	O 	0.62700 0.49400 0.66800 -0.44600
O 	O 	0.74820 0.36700 0.54300 -0.43100
C 	C 	0.66900 0.44800 0.76400 0.17800
C 	C 	0.67200 0.33600 0.77300 0.16000
C 	C 	0.75900 0.29100 0.75500 -0.30800
C 	C 	0.79300 0.32100 0.62700 0.43100
C 	C 	0.64900 0.29600 0.90800 -0.32800
H 	H 	0.76000 0.19500 0.79700 0.09200
H 	H 	0.79100 0.33500 0.82100 0.13600
H 	H 	0.64800 0.21300 0.89000 0.15800
H 	H 	0.68800 0.34000 0.97500 0.11200
O 	O 	0.13530 0.29400 0.89500 -0.43300
Bi	Bi	0.39899 0.37110 0.98670 1.90700
O 	O 	0.38200 0.28200 0.81500 -0.41400
O 	O 	0.29100 0.50700 0.65500 -0.28600
O 	O 	0.37300 0.49400 0.83200 -0.44500
O 	O 	0.25180 0.36700 0.95700 -0.42900
C 	C 	0.33100 0.44800 0.73600 0.17800
C 	C 	0.32800 0.33600 0.72700 0.16100
C 	C 	0.24100 0.29100 0.74500 -0.30800
C 	C 	0.20700 0.32100 0.87300 0.43100
C 	C 	0.35100 0.29600 0.59200 -0.32900
H 	H 	0.24000 0.19500 0.70300 0.09300
H 	H 	0.20900 0.33500 0.67900 0.13600
H 	H 	0.35200 0.21300 0.61000 0.15800
H 	H 	0.31200 0.34000 0.52500 0.11300
O 	O 	0.46500 0.41100 0.58100 -0.57100
O 	O 	0.48100 0.24500 0.51800 -0.38700
C 	C 	0.43700 0.32700 0.56100 0.43300
O 	O 	0.46500 0.58900 0.08100 -0.57100
O 	O 	0.48100 0.75500 0.01800 -0.38600
C 	C 	0.43700 0.67300 0.06100 0.43300
Bi	Bi	0.39899 0.62890 0.48670 1.90600
O 	O 	0.38200 0.71800 0.31500 -0.41400
O 	O 	0.29100 0.49300 0.15500 -0.28700
O 	O 	0.37300 0.50600 0.33200 -0.44600
O 	O 	0.25180 0.63300 0.45700 -0.43100
C 	C 	0.33100 0.55200 0.23600 0.17800
C 	C 	0.32800 0.66400 0.22700 0.16000
C 	C 	0.24100 0.70900 0.24500 -0.30800
C 	C 	0.20700 0.67900 0.37300 0.43100
C 	C 	0.35100 0.70400 0.09200 -0.32800
H 	H 	0.24000 0.80500 0.20300 0.09200
H 	H 	0.20900 0.66500 0.17900 0.13600
H 	H 	0.35200 0.78700 0.11000 0.15800
H 	H 	0.31200 0.66000 0.02500 0.11200
O 	O 	0.13530 0.70600 0.39500 -0.43700
Bi	Bi	0.60101 0.62890 0.01330 1.90700
O 	O 	0.61800 0.71800 0.18500 -0.41400
O 	O 	0.70900 0.49300 0.34500 -0.28600
O 	O 	0.62700 0.50600 0.16800 -0.44500
O 	O 	0.74820 0.63300 0.04300 -0.42900
C 	C 	0.66900 0.55200 0.26400 0.17800
C 	C 	0.67200 0.66400 0.27300 0.16100
C 	C 	0.75900 0.70900 0.25500 -0.30800
C 	C 	0.79300 0.67900 0.12700 0.43100
C 	C 	0.64900 0.70400 0.40800 -0.32900
H 	H 	0.76000 0.80500 0.29700 0.09300
H 	H 	0.79100 0.66500 0.32100 0.13600
H 	H 	0.64800 0.78700 0.39000 0.15800
H 	H 	0.68800 0.66000 0.47500 0.11300
O 	O 	0.53500 0.58900 0.41900 -0.57100
O 	O 	0.51900 0.75500 0.48200 -0.38700
C 	C 	0.56300 0.67300 0.43900 0.43300
O 	O 	0.86470 0.70600 0.10500 -0.43300
O 	O 	0.36470 0.79400 0.60500 -0.43600
O 	O 	0.03500 0.91100 0.91900 -0.57000
O 	O 	0.01900 0.74500 0.98200 -0.38400
C 	C 	0.06300 0.82700 0.93900 0.43400
Bi	Bi	0.10101 0.87110 0.51330 1.90600
O 	O 	0.11800 0.78200 0.68500 -0.41400
O 	O 	0.20900 0.00700 0.84500 -0.28300
O 	O 	0.12700 0.99400 0.66800 -0.44600
O 	O 	0.24820 0.86700 0.54300 -0.43200
C 	C 	0.16900 0.94800 0.76400 0.17600
C 	C 	0.17200 0.83600 0.77300 0.16200
C 	C 	0.25900 0.79100 0.75500 -0.30900
C 	C 	0.29300 0.82100 0.62700 0.43200
C 	C 	0.14900 0.79600 0.90800 -0.32900
H 	H 	0.26000 0.69500 0.79700 0.09300
H 	H 	0.29100 0.83500 0.82100 0.13600
H 	H 	0.14800 0.71300 0.89000 0.15900
H 	H 	0.18800 0.84000 0.97500 0.11400
O 	O 	0.63530 0.79400 0.89500 -0.43700
Bi	Bi	0.89899 0.87110 0.98670 1.90400
O 	O 	0.88200 0.78200 0.81500 -0.41600
O 	O 	0.79100 0.00700 0.65500 -0.28600
O 	O 	0.87300 0.99400 0.83200 -0.44900
O 	O 	0.75180 0.86700 0.95700 -0.43300
C 	C 	0.83100 0.94800 0.73600 0.17700
C 	C 	0.82800 0.83600 0.72700 0.16100
C 	C 	0.74100 0.79100 0.74500 -0.30900
C 	C 	0.70700 0.82100 0.87300 0.43200
C 	C 	0.85100 0.79600 0.59200 -0.32900
H 	H 	0.74000 0.69500 0.70300 0.09200
H 	H 	0.70900 0.83500 0.67900 0.13600
H 	H 	0.85200 0.71300 0.61000 0.15800
H 	H 	0.81200 0.84000 0.52500 0.11300
O 	O 	0.96500 0.91100 0.58100 -0.57300
O 	O 	0.98100 0.74500 0.51800 -0.38800
C 	C 	0.93700 0.82700 0.56100 0.43400
