data_crystal

_cell_length_a 35.31900
_cell_length_b 18.23320
_cell_length_c 23.45200
_cell_angle_alpha 90.00000
_cell_angle_beta  120.17200
_cell_angle_gamma 90.00000

_symmetry_space_group_name_	'P 1'
_symmetry_space_group_name_H-M	'P 1'

loop_
_symmetry_equiv_pos_as_xyz
  x,y,z

loop_
_atom_site_label
_atom_site_type_symbol
_atom_site_fract_x
_atom_site_fract_y
_atom_site_fract_z
_atom_site_charge
N 	N 	0.59120 0.85050 0.91000 -0.16900
N 	N 	0.11040 0.16590 0.62180 -0.11600
O 	O 	0.35540 0.84500 0.75630 -0.33300
O 	O 	0.36480 0.94510 0.71410 -0.25000
O 	O 	0.35950 0.88100 0.70890 -0.51200
O 	O 	0.78116 0.91070 0.00950 -0.43200
O 	O 	0.72624 0.95040 0.91320 -0.41500
O 	O 	0.68713 0.66100 0.07930 -0.53100
O 	O 	0.75564 0.70240 0.12000 -0.40700
O 	O 	0.88167 0.03560 0.45370 -0.49000
O 	O 	0.88817 0.12160 0.39240 -0.46200
O 	O 	0.21847 0.96940 0.64520 -0.59300
O 	O 	0.28268 0.00930 0.72270 -0.38700
O 	O 	0.29669 0.26850 0.78970 -0.41400
O 	O 	0.23902 0.34130 0.75310 -0.45500
C 	C 	0.37890 0.88880 0.75470 0.81700
C 	C 	0.42770 0.87710 0.79760 -0.32800
C 	C 	0.44470 0.81680 0.83870 0.19800
H 	H 	0.42420 0.78280 0.83590 -0.01200
C 	C 	0.48810 0.80020 0.88350 -0.22300
H 	H 	0.49640 0.76210 0.91390 0.11300
C 	C 	0.51760 0.84580 0.87850 0.11800
C 	C 	0.50390 0.89960 0.83070 -0.22400
H 	H 	0.52430 0.92480 0.82420 0.10500
C 	C 	0.56710 0.88610 0.88270 0.08900
C 	C 	0.45930 0.91610 0.79190 0.19800
H 	H 	0.45070 0.95420 0.76160 -0.03100
C 	C 	0.56580 0.83200 0.92080 0.01700
C 	C 	0.74120 0.91300 0.96580 0.31500
C 	C 	0.71030 0.86690 0.97680 -0.04600
C 	C 	0.72660 0.81270 0.02500 -0.00400
H 	H 	0.75660 0.80570 0.05090 0.06000
C 	C 	0.69830 0.76920 0.03450 -0.06300
C 	C 	0.65330 0.78090 0.99750 -0.08800
H 	H 	0.63420 0.75210 0.00440 0.06600
C 	C 	0.63700 0.83670 0.94970 0.11900
C 	C 	0.66500 0.87780 0.93850 -0.10000
H 	H 	0.65400 0.91310 0.90540 0.10300
C 	C 	0.71550 0.70700 0.08240 0.35800
C 	C 	0.90330 0.08130 0.44280 0.39500
C 	C 	0.95140 0.09060 0.49310 -0.18200
C 	C 	0.97220 0.04460 0.54510 0.10500
H 	H 	0.95650 0.00800 0.55180 -0.01200
C 	C 	0.01690 0.05200 0.58850 -0.17900
H 	H 	0.03110 0.01880 0.62300 0.08500
C 	C 	0.04030 0.10750 0.58110 0.11700
C 	C 	0.01830 0.15460 0.52970 -0.18400
H 	H 	0.03310 0.19440 0.52540 0.09900
C 	C 	0.97480 0.14490 0.48420 0.10100
H 	H 	0.96110 0.17520 0.44730 0.00500
C 	C 	0.08800 0.11250 0.62460 -0.02900
C 	C 	0.24310 0.01990 0.68560 0.32900
C 	C 	0.22170 0.08920 0.68780 -0.09500
C 	C 	0.17630 0.09470 0.65520 -0.08700
H 	H 	0.15920 0.05450 0.63230 0.03500
C 	C 	0.15630 0.15960 0.65670 0.09400
C 	C 	0.18220 0.22090 0.68870 -0.09000
H 	H 	0.16910 0.26550 0.68780 0.09900
C 	C 	0.22760 0.21490 0.72190 -0.05100
C 	C 	0.24750 0.14950 0.72130 -0.00100
H 	H 	0.27790 0.14600 0.74310 0.05900
C 	C 	0.25640 0.27860 0.75780 0.31600
Cd	Cd	0.29150 0.89689 0.68628 1.26000
Cd	Cd	0.82324 0.95339 0.97106 1.19000
Cd	Cd	0.68266 0.61959 0.17018 1.20800
H 	H 	0.10200 0.06700 0.65000 0.02900
O 	O 	0.35490 0.87430 0.79330 -0.19200
N 	N 	0.09120 0.35050 0.91000 -0.16900
N 	N 	0.61040 0.66590 0.62180 -0.11700
O 	O 	0.85540 0.34500 0.75630 -0.33400
O 	O 	0.86480 0.44510 0.71410 -0.25100
O 	O 	0.85950 0.38100 0.70890 -0.51300
O 	O 	0.28116 0.41070 0.00950 -0.43500
O 	O 	0.22624 0.45040 0.91320 -0.41600
O 	O 	0.18713 0.16100 0.07930 -0.53200
O 	O 	0.25564 0.20240 0.12000 -0.40800
O 	O 	0.38167 0.53560 0.45370 -0.49100
O 	O 	0.38817 0.62160 0.39240 -0.46300
O 	O 	0.71847 0.46940 0.64520 -0.59400
O 	O 	0.78268 0.50930 0.72270 -0.38800
O 	O 	0.79669 0.76850 0.78970 -0.41500
O 	O 	0.73902 0.84130 0.75310 -0.45600
C 	C 	0.87890 0.38880 0.75470 0.81600
C 	C 	0.92770 0.37710 0.79760 -0.32900
C 	C 	0.94470 0.31680 0.83870 0.19700
H 	H 	0.92420 0.28280 0.83590 -0.01300
C 	C 	0.98810 0.30020 0.88350 -0.22300
H 	H 	0.99640 0.26210 0.91390 0.11300
C 	C 	0.01760 0.34580 0.87850 0.11900
C 	C 	0.00390 0.39960 0.83070 -0.22400
H 	H 	0.02430 0.42480 0.82420 0.10500
C 	C 	0.06710 0.38610 0.88270 0.08900
C 	C 	0.95930 0.41610 0.79190 0.19900
H 	H 	0.95070 0.45420 0.76160 -0.03100
C 	C 	0.06580 0.33200 0.92080 0.01700
C 	C 	0.24120 0.41300 0.96580 0.31600
C 	C 	0.21030 0.36690 0.97680 -0.04600
C 	C 	0.22660 0.31270 0.02500 -0.00500
H 	H 	0.25660 0.30570 0.05090 0.05900
C 	C 	0.19830 0.26920 0.03450 -0.06600
C 	C 	0.15330 0.28090 0.99750 -0.08200
H 	H 	0.13420 0.25210 0.00440 0.06400
C 	C 	0.13700 0.33670 0.94970 0.11700
C 	C 	0.16500 0.37780 0.93850 -0.09900
H 	H 	0.15400 0.41310 0.90540 0.10200
C 	C 	0.21550 0.20700 0.08240 0.35900
C 	C 	0.40330 0.58130 0.44280 0.39600
C 	C 	0.45140 0.59060 0.49310 -0.18200
C 	C 	0.47220 0.54460 0.54510 0.10500
H 	H 	0.45650 0.50800 0.55180 -0.01200
C 	C 	0.51690 0.55200 0.58850 -0.17900
H 	H 	0.53110 0.51880 0.62300 0.08500
C 	C 	0.54030 0.60750 0.58110 0.11700
C 	C 	0.51830 0.65460 0.52970 -0.18400
H 	H 	0.53310 0.69440 0.52540 0.09900
C 	C 	0.47480 0.64490 0.48420 0.10100
H 	H 	0.46110 0.67520 0.44730 0.00500
C 	C 	0.58800 0.61250 0.62460 -0.02900
C 	C 	0.74310 0.51990 0.68560 0.32900
C 	C 	0.72170 0.58920 0.68780 -0.09500
C 	C 	0.67630 0.59470 0.65520 -0.08700
H 	H 	0.65920 0.55450 0.63230 0.03500
C 	C 	0.65630 0.65960 0.65670 0.09400
C 	C 	0.68220 0.72090 0.68870 -0.09000
H 	H 	0.66910 0.76550 0.68780 0.09900
C 	C 	0.72760 0.71490 0.72190 -0.05100
C 	C 	0.74750 0.64950 0.72130 -0.00100
H 	H 	0.77790 0.64600 0.74310 0.05900
C 	C 	0.75640 0.77860 0.75780 0.31600
Cd	Cd	0.79150 0.39689 0.68628 1.26000
Cd	Cd	0.32324 0.45339 0.97106 1.19000
Cd	Cd	0.18266 0.11959 0.17018 1.20800
H 	H 	0.60200 0.56700 0.65000 0.02900
O 	O 	0.85490 0.37430 0.79330 -0.19100
N 	N 	0.40880 0.85050 0.59000 -0.17000
N 	N 	0.88960 0.16590 0.87820 -0.11700
O 	O 	0.64460 0.84500 0.74370 -0.33400
O 	O 	0.63520 0.94510 0.78590 -0.25100
O 	O 	0.64050 0.88100 0.79110 -0.51300
O 	O 	0.21884 0.91070 0.49050 -0.43500
O 	O 	0.27376 0.95040 0.58680 -0.41600
O 	O 	0.31287 0.66100 0.42070 -0.53200
O 	O 	0.24436 0.70240 0.38000 -0.40800
O 	O 	0.11833 0.03560 0.04630 -0.49200
O 	O 	0.11183 0.12160 0.10760 -0.46300
O 	O 	0.78153 0.96940 0.85480 -0.59400
O 	O 	0.71732 0.00930 0.77730 -0.38800
O 	O 	0.70331 0.26850 0.71030 -0.41500
O 	O 	0.76098 0.34130 0.74690 -0.45600
C 	C 	0.62110 0.88880 0.74530 0.81600
C 	C 	0.57230 0.87710 0.70240 -0.32900
C 	C 	0.55530 0.81680 0.66130 0.19700
H 	H 	0.57580 0.78280 0.66410 -0.01300
C 	C 	0.51190 0.80020 0.61650 -0.22300
H 	H 	0.50360 0.76210 0.58610 0.11300
C 	C 	0.48240 0.84580 0.62150 0.11900
C 	C 	0.49610 0.89960 0.66930 -0.22400
H 	H 	0.47570 0.92480 0.67580 0.10500
C 	C 	0.43290 0.88610 0.61730 0.08900
C 	C 	0.54070 0.91610 0.70810 0.19800
H 	H 	0.54930 0.95420 0.73840 -0.03100
C 	C 	0.43420 0.83200 0.57920 0.01700
C 	C 	0.25880 0.91300 0.53420 0.31600
C 	C 	0.28970 0.86690 0.52320 -0.04500
C 	C 	0.27340 0.81270 0.47500 -0.00500
H 	H 	0.24340 0.80570 0.44910 0.06000
C 	C 	0.30170 0.76920 0.46550 -0.06500
C 	C 	0.34670 0.78090 0.50250 -0.08500
H 	H 	0.36580 0.75210 0.49560 0.06500
C 	C 	0.36300 0.83670 0.55030 0.11800
C 	C 	0.33500 0.87780 0.56150 -0.09900
H 	H 	0.34600 0.91310 0.59460 0.10300
C 	C 	0.28450 0.70700 0.41760 0.35800
C 	C 	0.09670 0.08130 0.05720 0.39600
C 	C 	0.04860 0.09060 0.00690 -0.18300
C 	C 	0.02780 0.04460 0.95490 0.10700
H 	H 	0.04350 0.00800 0.94820 -0.01200
C 	C 	0.98310 0.05200 0.91150 -0.17900
H 	H 	0.96890 0.01880 0.87700 0.08600
C 	C 	0.95970 0.10750 0.91890 0.11700
C 	C 	0.98170 0.15460 0.97030 -0.18200
H 	H 	0.96690 0.19440 0.97460 0.09800
C 	C 	0.02520 0.14490 0.01580 0.10000
H 	H 	0.03890 0.17520 0.05270 0.00500
C 	C 	0.91200 0.11250 0.87540 -0.02800
C 	C 	0.75690 0.01990 0.81440 0.33000
C 	C 	0.77830 0.08920 0.81220 -0.09500
C 	C 	0.82370 0.09470 0.84480 -0.08700
H 	H 	0.84080 0.05450 0.86770 0.03500
C 	C 	0.84370 0.15960 0.84330 0.09400
C 	C 	0.81780 0.22090 0.81130 -0.09000
H 	H 	0.83090 0.26550 0.81220 0.09900
C 	C 	0.77240 0.21490 0.77810 -0.05100
C 	C 	0.75250 0.14950 0.77870 -0.00100
H 	H 	0.72210 0.14600 0.75690 0.05900
C 	C 	0.74360 0.27860 0.74220 0.31600
Cd	Cd	0.70850 0.89689 0.81372 1.26000
Cd	Cd	0.17676 0.95339 0.52894 1.19000
Cd	Cd	0.31734 0.61959 0.32982 1.20800
H 	H 	0.89800 0.06700 0.85000 0.02900
O 	O 	0.64510 0.87430 0.70670 -0.19100
N 	N 	0.90880 0.35050 0.59000 -0.17000
N 	N 	0.38960 0.66590 0.87820 -0.11700
O 	O 	0.14460 0.34500 0.74370 -0.33400
O 	O 	0.13520 0.44510 0.78590 -0.25100
O 	O 	0.14050 0.38100 0.79110 -0.51300
O 	O 	0.71884 0.41070 0.49050 -0.43500
O 	O 	0.77376 0.45040 0.58680 -0.41600
O 	O 	0.81287 0.16100 0.42070 -0.53200
O 	O 	0.74436 0.20240 0.38000 -0.40800
O 	O 	0.61833 0.53560 0.04630 -0.49100
O 	O 	0.61183 0.62160 0.10760 -0.46300
O 	O 	0.28153 0.46940 0.85480 -0.59400
O 	O 	0.21732 0.50930 0.77730 -0.38800
O 	O 	0.20331 0.76850 0.71030 -0.41500
O 	O 	0.26098 0.84130 0.74690 -0.45600
C 	C 	0.12110 0.38880 0.74530 0.81600
C 	C 	0.07230 0.37710 0.70240 -0.32900
C 	C 	0.05530 0.31680 0.66130 0.19700
H 	H 	0.07580 0.28280 0.66410 -0.01300
C 	C 	0.01190 0.30020 0.61650 -0.22400
H 	H 	0.00360 0.26210 0.58610 0.11300
C 	C 	0.98240 0.34580 0.62150 0.11800
C 	C 	0.99610 0.39960 0.66930 -0.22400
H 	H 	0.97570 0.42480 0.67580 0.10500
C 	C 	0.93290 0.38610 0.61730 0.08900
C 	C 	0.04070 0.41610 0.70810 0.19800
H 	H 	0.04930 0.45420 0.73840 -0.03100
C 	C 	0.93420 0.33200 0.57920 0.01700
C 	C 	0.75880 0.41300 0.53420 0.31600
C 	C 	0.78970 0.36690 0.52320 -0.04500
C 	C 	0.77340 0.31270 0.47500 -0.00500
H 	H 	0.74340 0.30570 0.44910 0.06000
C 	C 	0.80170 0.26920 0.46550 -0.06500
C 	C 	0.84670 0.28090 0.50250 -0.08500
H 	H 	0.86580 0.25210 0.49560 0.06500
C 	C 	0.86300 0.33670 0.55030 0.11800
C 	C 	0.83500 0.37780 0.56150 -0.09900
H 	H 	0.84600 0.41310 0.59460 0.10300
C 	C 	0.78450 0.20700 0.41760 0.35800
C 	C 	0.59670 0.58130 0.05720 0.39600
C 	C 	0.54860 0.59060 0.00690 -0.18200
C 	C 	0.52780 0.54460 0.95490 0.10500
H 	H 	0.54350 0.50800 0.94820 -0.01200
C 	C 	0.48310 0.55200 0.91150 -0.17900
H 	H 	0.46890 0.51880 0.87700 0.08500
C 	C 	0.45970 0.60750 0.91890 0.11700
C 	C 	0.48170 0.65460 0.97030 -0.18500
H 	H 	0.46690 0.69440 0.97460 0.09900
C 	C 	0.52520 0.64490 0.01580 0.10200
H 	H 	0.53890 0.67520 0.05270 0.00500
C 	C 	0.41200 0.61250 0.87540 -0.02900
C 	C 	0.25690 0.51990 0.81440 0.32900
C 	C 	0.27830 0.58920 0.81220 -0.09500
C 	C 	0.32370 0.59470 0.84480 -0.08700
H 	H 	0.34080 0.55450 0.86770 0.03500
C 	C 	0.34370 0.65960 0.84330 0.09400
C 	C 	0.31780 0.72090 0.81130 -0.09000
H 	H 	0.33090 0.76550 0.81220 0.09900
C 	C 	0.27240 0.71490 0.77810 -0.05100
C 	C 	0.25250 0.64950 0.77870 -0.00100
H 	H 	0.22210 0.64600 0.75690 0.05900
C 	C 	0.24360 0.77860 0.74220 0.31600
Cd	Cd	0.20850 0.39689 0.81372 1.26000
Cd	Cd	0.67676 0.45339 0.52894 1.19000
Cd	Cd	0.81734 0.11959 0.32982 1.20800
H 	H 	0.39800 0.56700 0.85000 0.02900
O 	O 	0.14510 0.37430 0.70670 -0.19100
N 	N 	0.40880 0.14950 0.09000 -0.17000
N 	N 	0.88960 0.83410 0.37820 -0.11700
O 	O 	0.64460 0.15500 0.24370 -0.33400
O 	O 	0.63520 0.05490 0.28590 -0.25100
O 	O 	0.64050 0.11900 0.29110 -0.51300
O 	O 	0.21884 0.08930 0.99050 -0.43300
O 	O 	0.27376 0.04960 0.08680 -0.41600
O 	O 	0.31287 0.33900 0.92070 -0.53200
O 	O 	0.24436 0.29760 0.88000 -0.40800
O 	O 	0.11833 0.96440 0.54630 -0.49100
O 	O 	0.11183 0.87840 0.60760 -0.46300
O 	O 	0.78153 0.03060 0.35480 -0.59400
O 	O 	0.71732 0.99070 0.27730 -0.38800
O 	O 	0.70331 0.73150 0.21030 -0.41500
O 	O 	0.76098 0.65870 0.24690 -0.45600
C 	C 	0.62110 0.11120 0.24530 0.81600
C 	C 	0.57230 0.12290 0.20240 -0.32900
C 	C 	0.55530 0.18320 0.16130 0.19700
H 	H 	0.57580 0.21720 0.16410 -0.01300
C 	C 	0.51190 0.19980 0.11650 -0.22400
H 	H 	0.50360 0.23790 0.08610 0.11300
C 	C 	0.48240 0.15420 0.12150 0.11800
C 	C 	0.49610 0.10040 0.16930 -0.22400
H 	H 	0.47570 0.07520 0.17580 0.10500
C 	C 	0.43290 0.11390 0.11730 0.08900
C 	C 	0.54070 0.08390 0.20810 0.19800
H 	H 	0.54930 0.04580 0.23840 -0.03100
C 	C 	0.43420 0.16800 0.07920 0.01700
C 	C 	0.25880 0.08700 0.03420 0.31500
C 	C 	0.28970 0.13310 0.02320 -0.04600
C 	C 	0.27340 0.18730 0.97500 -0.00400
H 	H 	0.24340 0.19430 0.94910 0.06000
C 	C 	0.30170 0.23080 0.96550 -0.06300
C 	C 	0.34670 0.21910 0.00250 -0.08800
H 	H 	0.36580 0.24790 0.99560 0.06600
C 	C 	0.36300 0.16330 0.05030 0.11900
C 	C 	0.33500 0.12220 0.06150 -0.10000
H 	H 	0.34600 0.08690 0.09460 0.10300
C 	C 	0.28450 0.29300 0.91760 0.35800
C 	C 	0.09670 0.91870 0.55720 0.39500
C 	C 	0.04860 0.90940 0.50690 -0.18200
C 	C 	0.02780 0.95540 0.45490 0.10500
H 	H 	0.04350 0.99200 0.44820 -0.01200
C 	C 	0.98310 0.94800 0.41150 -0.17900
H 	H 	0.96890 0.98120 0.37700 0.08500
C 	C 	0.95970 0.89250 0.41890 0.11700
C 	C 	0.98170 0.84540 0.47030 -0.18400
H 	H 	0.96690 0.80560 0.47460 0.09900
C 	C 	0.02520 0.85510 0.51580 0.10100
H 	H 	0.03890 0.82480 0.55270 0.00500
C 	C 	0.91200 0.88750 0.37540 -0.02900
C 	C 	0.75690 0.98010 0.31440 0.32900
C 	C 	0.77830 0.91080 0.31220 -0.09500
C 	C 	0.82370 0.90530 0.34480 -0.08700
H 	H 	0.84080 0.94550 0.36770 0.03500
C 	C 	0.84370 0.84040 0.34330 0.09400
C 	C 	0.81780 0.77910 0.31130 -0.09000
H 	H 	0.83090 0.73450 0.31220 0.09900
C 	C 	0.77240 0.78510 0.27810 -0.05100
C 	C 	0.75250 0.85050 0.27870 -0.00100
H 	H 	0.72210 0.85400 0.25690 0.05900
C 	C 	0.74360 0.72140 0.24220 0.31600
Cd	Cd	0.70850 0.10311 0.31372 1.26000
Cd	Cd	0.17676 0.04661 0.02894 1.19000
Cd	Cd	0.31734 0.38041 0.82982 1.20800
H 	H 	0.89800 0.93300 0.35000 0.02900
O 	O 	0.64510 0.12570 0.20670 -0.19200
N 	N 	0.90880 0.64950 0.09000 -0.16900
N 	N 	0.38960 0.33410 0.37820 -0.11700
O 	O 	0.14460 0.65500 0.24370 -0.33400
O 	O 	0.13520 0.55490 0.28590 -0.25100
O 	O 	0.14050 0.61900 0.29110 -0.51300
O 	O 	0.71884 0.58930 0.99050 -0.43500
O 	O 	0.77376 0.54960 0.08680 -0.41600
O 	O 	0.81287 0.83900 0.92070 -0.53200
O 	O 	0.74436 0.79760 0.88000 -0.40800
O 	O 	0.61833 0.46440 0.54630 -0.49100
O 	O 	0.61183 0.37840 0.60760 -0.46300
O 	O 	0.28153 0.53060 0.35480 -0.59400
O 	O 	0.21732 0.49070 0.27730 -0.38800
O 	O 	0.20331 0.23150 0.21030 -0.41500
O 	O 	0.26098 0.15870 0.24690 -0.45600
C 	C 	0.12110 0.61120 0.24530 0.81600
C 	C 	0.07230 0.62290 0.20240 -0.32900
C 	C 	0.05530 0.68320 0.16130 0.19700
H 	H 	0.07580 0.71720 0.16410 -0.01300
C 	C 	0.01190 0.69980 0.11650 -0.22300
H 	H 	0.00360 0.73790 0.08610 0.11300
C 	C 	0.98240 0.65420 0.12150 0.11900
C 	C 	0.99610 0.60040 0.16930 -0.22400
H 	H 	0.97570 0.57520 0.17580 0.10500
C 	C 	0.93290 0.61390 0.11730 0.08900
C 	C 	0.04070 0.58390 0.20810 0.19900
H 	H 	0.04930 0.54580 0.23840 -0.03100
C 	C 	0.93420 0.66800 0.07920 0.01700
C 	C 	0.75880 0.58700 0.03420 0.31600
C 	C 	0.78970 0.63310 0.02320 -0.04600
C 	C 	0.77340 0.68730 0.97500 -0.00500
H 	H 	0.74340 0.69430 0.94910 0.05900
C 	C 	0.80170 0.73080 0.96550 -0.06600
C 	C 	0.84670 0.71910 0.00250 -0.08200
H 	H 	0.86580 0.74790 0.99560 0.06400
C 	C 	0.86300 0.66330 0.05030 0.11700
C 	C 	0.83500 0.62220 0.06150 -0.09900
H 	H 	0.84600 0.58690 0.09460 0.10200
C 	C 	0.78450 0.79300 0.91760 0.35900
C 	C 	0.59670 0.41870 0.55720 0.39600
C 	C 	0.54860 0.40940 0.50690 -0.18200
C 	C 	0.52780 0.45540 0.45490 0.10500
H 	H 	0.54350 0.49200 0.44820 -0.01200
C 	C 	0.48310 0.44800 0.41150 -0.17900
H 	H 	0.46890 0.48120 0.37700 0.08500
C 	C 	0.45970 0.39250 0.41890 0.11700
C 	C 	0.48170 0.34540 0.47030 -0.18400
H 	H 	0.46690 0.30560 0.47460 0.09900
C 	C 	0.52520 0.35510 0.51580 0.10100
H 	H 	0.53890 0.32480 0.55270 0.00500
C 	C 	0.41200 0.38750 0.37540 -0.02900
C 	C 	0.25690 0.48010 0.31440 0.32900
C 	C 	0.27830 0.41080 0.31220 -0.09500
C 	C 	0.32370 0.40530 0.34480 -0.08700
H 	H 	0.34080 0.44550 0.36770 0.03500
C 	C 	0.34370 0.34040 0.34330 0.09400
C 	C 	0.31780 0.27910 0.31130 -0.09000
H 	H 	0.33090 0.23450 0.31220 0.09900
C 	C 	0.27240 0.28510 0.27810 -0.05100
C 	C 	0.25250 0.35050 0.27870 -0.00100
H 	H 	0.22210 0.35400 0.25690 0.05900
C 	C 	0.24360 0.22140 0.24220 0.31600
Cd	Cd	0.20850 0.60311 0.31372 1.26000
Cd	Cd	0.67676 0.54661 0.02894 1.19000
Cd	Cd	0.81734 0.88041 0.82982 1.20800
H 	H 	0.39800 0.43300 0.35000 0.02900
O 	O 	0.14510 0.62570 0.20670 -0.19100
N 	N 	0.59120 0.14950 0.41000 -0.17000
N 	N 	0.11040 0.83410 0.12180 -0.11700
O 	O 	0.35540 0.15500 0.25630 -0.33400
O 	O 	0.36480 0.05490 0.21410 -0.25100
O 	O 	0.35950 0.11900 0.20890 -0.51300
O 	O 	0.78116 0.08930 0.50950 -0.43500
O 	O 	0.72624 0.04960 0.41320 -0.41600
O 	O 	0.68713 0.33900 0.57930 -0.53200
O 	O 	0.75564 0.29760 0.62000 -0.40800
O 	O 	0.88167 0.96440 0.95370 -0.49200
O 	O 	0.88817 0.87840 0.89240 -0.46300
O 	O 	0.21847 0.03060 0.14520 -0.59400
O 	O 	0.28268 0.99070 0.22270 -0.38800
O 	O 	0.29669 0.73150 0.28970 -0.41500
O 	O 	0.23902 0.65870 0.25310 -0.45600
C 	C 	0.37890 0.11120 0.25470 0.81600
C 	C 	0.42770 0.12290 0.29760 -0.32900
C 	C 	0.44470 0.18320 0.33870 0.19700
H 	H 	0.42420 0.21720 0.33590 -0.01300
C 	C 	0.48810 0.19980 0.38350 -0.22300
H 	H 	0.49640 0.23790 0.41390 0.11300
C 	C 	0.51760 0.15420 0.37850 0.11900
C 	C 	0.50390 0.10040 0.33070 -0.22400
H 	H 	0.52430 0.07520 0.32420 0.10500
C 	C 	0.56710 0.11390 0.38270 0.08900
C 	C 	0.45930 0.08390 0.29190 0.19800
H 	H 	0.45070 0.04580 0.26160 -0.03100
C 	C 	0.56580 0.16800 0.42080 0.01700
C 	C 	0.74120 0.08700 0.46580 0.31600
C 	C 	0.71030 0.13310 0.47680 -0.04500
C 	C 	0.72660 0.18730 0.52500 -0.00500
H 	H 	0.75660 0.19430 0.55090 0.06000
C 	C 	0.69830 0.23080 0.53450 -0.06500
C 	C 	0.65330 0.21910 0.49750 -0.08500
H 	H 	0.63420 0.24790 0.50440 0.06500
C 	C 	0.63700 0.16330 0.44970 0.11800
C 	C 	0.66500 0.12220 0.43850 -0.09900
H 	H 	0.65400 0.08690 0.40540 0.10300
C 	C 	0.71550 0.29300 0.58240 0.35800
C 	C 	0.90330 0.91870 0.94280 0.39600
C 	C 	0.95140 0.90940 0.99310 -0.18300
C 	C 	0.97220 0.95540 0.04510 0.10700
H 	H 	0.95650 0.99200 0.05180 -0.01200
C 	C 	0.01690 0.94800 0.08850 -0.17900
H 	H 	0.03110 0.98120 0.12300 0.08600
C 	C 	0.04030 0.89250 0.08110 0.11700
C 	C 	0.01830 0.84540 0.02970 -0.18200
H 	H 	0.03310 0.80560 0.02540 0.09800
C 	C 	0.97480 0.85510 0.98420 0.10000
H 	H 	0.96110 0.82480 0.94730 0.00500
C 	C 	0.08800 0.88750 0.12460 -0.02800
C 	C 	0.24310 0.98010 0.18560 0.33000
C 	C 	0.22170 0.91080 0.18780 -0.09500
C 	C 	0.17630 0.90530 0.15520 -0.08700
H 	H 	0.15920 0.94550 0.13230 0.03500
C 	C 	0.15630 0.84040 0.15670 0.09400
C 	C 	0.18220 0.77910 0.18870 -0.09000
H 	H 	0.16910 0.73450 0.18780 0.09900
C 	C 	0.22760 0.78510 0.22190 -0.05100
C 	C 	0.24750 0.85050 0.22130 -0.00100
H 	H 	0.27790 0.85400 0.24310 0.05900
C 	C 	0.25640 0.72140 0.25780 0.31600
Cd	Cd	0.29150 0.10311 0.18628 1.26000
Cd	Cd	0.82324 0.04661 0.47106 1.19000
Cd	Cd	0.68266 0.38041 0.67018 1.20800
H 	H 	0.10200 0.93300 0.15000 0.02900
O 	O 	0.35490 0.12570 0.29330 -0.19100
N 	N 	0.09120 0.64950 0.41000 -0.17000
N 	N 	0.61040 0.33410 0.12180 -0.11700
O 	O 	0.85540 0.65500 0.25630 -0.33400
O 	O 	0.86480 0.55490 0.21410 -0.25100
O 	O 	0.85950 0.61900 0.20890 -0.51300
O 	O 	0.28116 0.58930 0.50950 -0.43500
O 	O 	0.22624 0.54960 0.41320 -0.41600
O 	O 	0.18713 0.83900 0.57930 -0.53200
O 	O 	0.25564 0.79760 0.62000 -0.40800
O 	O 	0.38167 0.46440 0.95370 -0.49100
O 	O 	0.38817 0.37840 0.89240 -0.46300
O 	O 	0.71847 0.53060 0.14520 -0.59400
O 	O 	0.78268 0.49070 0.22270 -0.38800
O 	O 	0.79669 0.23150 0.28970 -0.41500
O 	O 	0.73902 0.15870 0.25310 -0.45600
C 	C 	0.87890 0.61120 0.25470 0.81600
C 	C 	0.92770 0.62290 0.29760 -0.32900
C 	C 	0.94470 0.68320 0.33870 0.19700
H 	H 	0.92420 0.71720 0.33590 -0.01300
C 	C 	0.98810 0.69980 0.38350 -0.22400
H 	H 	0.99640 0.73790 0.41390 0.11300
C 	C 	0.01760 0.65420 0.37850 0.11800
C 	C 	0.00390 0.60040 0.33070 -0.22400
H 	H 	0.02430 0.57520 0.32420 0.10500
C 	C 	0.06710 0.61390 0.38270 0.08900
C 	C 	0.95930 0.58390 0.29190 0.19800
H 	H 	0.95070 0.54580 0.26160 -0.03100
C 	C 	0.06580 0.66800 0.42080 0.01700
C 	C 	0.24120 0.58700 0.46580 0.31600
C 	C 	0.21030 0.63310 0.47680 -0.04500
C 	C 	0.22660 0.68730 0.52500 -0.00500
H 	H 	0.25660 0.69430 0.55090 0.06000
C 	C 	0.19830 0.73080 0.53450 -0.06500
C 	C 	0.15330 0.71910 0.49750 -0.08500
H 	H 	0.13420 0.74790 0.50440 0.06500
C 	C 	0.13700 0.66330 0.44970 0.11800
C 	C 	0.16500 0.62220 0.43850 -0.09900
H 	H 	0.15400 0.58690 0.40540 0.10300
C 	C 	0.21550 0.79300 0.58240 0.35800
C 	C 	0.40330 0.41870 0.94280 0.39600
C 	C 	0.45140 0.40940 0.99310 -0.18200
C 	C 	0.47220 0.45540 0.04510 0.10500
H 	H 	0.45650 0.49200 0.05180 -0.01200
C 	C 	0.51690 0.44800 0.08850 -0.17900
H 	H 	0.53110 0.48120 0.12300 0.08500
C 	C 	0.54030 0.39250 0.08110 0.11700
C 	C 	0.51830 0.34540 0.02970 -0.18500
H 	H 	0.53310 0.30560 0.02540 0.09900
C 	C 	0.47480 0.35510 0.98420 0.10200
H 	H 	0.46110 0.32480 0.94730 0.00500
C 	C 	0.58800 0.38750 0.12460 -0.02900
C 	C 	0.74310 0.48010 0.18560 0.32900
C 	C 	0.72170 0.41080 0.18780 -0.09500
C 	C 	0.67630 0.40530 0.15520 -0.08700
H 	H 	0.65920 0.44550 0.13230 0.03500
C 	C 	0.65630 0.34040 0.15670 0.09400
C 	C 	0.68220 0.27910 0.18870 -0.09000
H 	H 	0.66910 0.23450 0.18780 0.09900
C 	C 	0.72760 0.28510 0.22190 -0.05100
C 	C 	0.74750 0.35050 0.22130 -0.00100
H 	H 	0.77790 0.35400 0.24310 0.05900
C 	C 	0.75640 0.22140 0.25780 0.31600
Cd	Cd	0.79150 0.60311 0.18628 1.26000
Cd	Cd	0.32324 0.54661 0.47106 1.19000
Cd	Cd	0.18266 0.88041 0.67018 1.20800
H 	H 	0.60200 0.43300 0.15000 0.02900
O 	O 	0.85490 0.62570 0.29330 -0.19100
