data_crystal

_cell_length_a 9.07170
_cell_length_b 9.59530
_cell_length_c 24.52970
_cell_angle_alpha 79.48600
_cell_angle_beta  85.16700
_cell_angle_gamma 88.97300

_symmetry_space_group_name_	'P 1'
_symmetry_space_group_name_H-M	'P 1'

loop_
_symmetry_equiv_pos_as_xyz
  x,y,z

loop_
_atom_site_label
_atom_site_type_symbol
_atom_site_fract_x
_atom_site_fract_y
_atom_site_fract_z
_atom_site_charge
Cd	Cd	0.80842 0.91566 0.84077 1.20200
Cd	Cd	0.19158 0.08434 0.15923 1.20200
H 	H 	0.17380 0.67700 0.60870 0.04100
H 	H 	0.13160 0.90520 0.77780 0.03600
H 	H 	0.01770 0.73030 0.93080 0.01400
H 	H 	0.59670 0.45820 0.91470 0.05100
H 	H 	0.56190 0.70350 0.03000 0.04900
H 	H 	0.14380 0.20090 0.43580 0.07300
H 	H 	0.12800 0.22450 0.34200 0.03300
H 	H 	0.30730 0.84140 0.34440 0.03100
H 	H 	0.42440 0.66960 0.86440 0.05800
H 	H 	0.90300 0.24070 0.78860 0.04200
H 	H 	0.09050 0.12740 0.52600 0.06200
H 	H 	0.12230 0.11220 0.61890 0.04300
H 	H 	0.33120 0.82080 0.43790 0.06700
H 	H 	0.92470 0.26910 0.97020 0.05400
H 	H 	0.45140 0.83470 0.60620 0.03300
H 	H 	0.24610 0.62740 0.93920 0.05600
H 	H 	0.88890 0.05720 0.94340 0.00800
H 	H 	0.46140 0.91610 0.76780 0.04800
H 	H 	0.48780 0.75410 0.76880 0.05000
H 	H 	0.42280 0.85240 0.51310 0.06400
H 	H 	0.02830 0.56330 0.79920 0.08300
H 	H 	0.85560 0.57400 0.80210 0.07500
H 	H 	0.94590 0.47380 0.90380 0.05600
H 	H 	0.14720 0.66850 0.51720 0.05800
H 	H 	0.90740 0.34500 0.65620 0.03500
H 	H 	0.89050 0.32970 0.56450 0.05900
H 	H 	0.86650 0.45380 0.72750 0.12800
H 	H 	0.35640 0.76920 0.69540 0.14500
H 	H 	0.82620 0.32300 0.39130 0.04200
H 	H 	0.86840 0.09480 0.22220 0.03700
H 	H 	0.98230 0.26970 0.06920 0.01500
H 	H 	0.40330 0.54180 0.08530 0.05200
H 	H 	0.43810 0.29650 0.97000 0.04900
H 	H 	0.85620 0.79910 0.56420 0.07300
H 	H 	0.87200 0.77550 0.65800 0.03300
H 	H 	0.69270 0.15860 0.65560 0.03100
H 	H 	0.57560 0.33040 0.13560 0.05800
H 	H 	0.09700 0.75930 0.21140 0.04200
H 	H 	0.90950 0.87260 0.47400 0.06200
H 	H 	0.87770 0.88780 0.38110 0.04300
H 	H 	0.66880 0.17920 0.56210 0.06700
H 	H 	0.07530 0.73090 0.02980 0.05400
H 	H 	0.54860 0.16530 0.39380 0.03300
H 	H 	0.75390 0.37260 0.06080 0.05600
H 	H 	0.11110 0.94280 0.05660 0.00800
H 	H 	0.53860 0.08390 0.23220 0.04800
H 	H 	0.51220 0.24590 0.23120 0.05000
H 	H 	0.57720 0.14760 0.48690 0.06400
H 	H 	0.97170 0.43670 0.20080 0.08300
H 	H 	0.14440 0.42600 0.19790 0.07500
H 	H 	0.05410 0.52620 0.09620 0.05600
H 	H 	0.85280 0.33150 0.48280 0.05800
H 	H 	0.09260 0.65500 0.34380 0.03500
H 	H 	0.10950 0.67030 0.43550 0.05900
H 	H 	0.13350 0.54620 0.27250 0.12800
H 	H 	0.64360 0.23080 0.30460 0.14500
C 	C 	0.11320 0.60830 0.60000 0.00300
C 	C 	0.59670 0.59640 0.96666 -0.05800
C 	C 	0.06040 0.52870 0.70120 0.22100
C 	C 	0.15600 0.84910 0.81095 -0.00100
C 	C 	0.08800 0.74610 0.90050 0.03100
C 	C 	0.55810 0.47540 0.94916 -0.03000
C 	C 	0.19750 0.04860 0.27203 0.33300
C 	C 	0.23900 0.00780 0.44787 0.04400
C 	C 	0.92800 0.37950 0.83808 0.03900
C 	C 	0.69530 0.70690 0.92930 0.29300
C 	C 	0.53740 0.62120 0.01782 -0.02900
C 	C 	0.17800 0.12810 0.41766 -0.11400
C 	C 	0.21310 0.03500 0.33282 -0.11400
C 	C 	0.16720 0.14160 0.36136 0.04200
C 	C 	0.31690 0.96780 0.68243 0.22500
C 	C 	0.27470 0.91470 0.36258 0.04400
C 	C 	0.33080 0.70980 0.86140 -0.06200
C 	C 	0.90710 0.24750 0.82581 -0.01500
C 	C 	0.16430 0.06900 0.54185 -0.08900
C 	C 	0.18270 0.05920 0.59778 0.00800
C 	C 	0.29020 0.97140 0.62272 -0.06600
C 	C 	0.28820 0.90210 0.41890 -0.11100
C 	C 	0.91970 0.26540 0.93280 -0.05900
C 	C 	0.37890 0.89450 0.59007 0.00300
C 	C 	0.22480 0.68490 0.90594 -0.06300
C 	C 	0.89890 0.13890 0.91639 0.03000
C 	C 	0.41350 0.82840 0.76506 -0.05200
C 	C 	0.36160 0.90500 0.53414 -0.09000
C 	C 	0.93910 0.51350 0.79501 -0.08900
C 	C 	0.25430 0.99270 0.50874 0.02900
C 	C 	0.29670 0.79410 0.81291 0.02600
C 	C 	0.01000 0.50220 0.52970 0.02900
C 	C 	0.93320 0.38680 0.89323 -0.06100
C 	C 	0.04110 0.51420 0.64220 -0.06400
C 	C 	0.09740 0.60260 0.54490 -0.08700
C 	C 	0.95670 0.41060 0.62830 0.00100
C 	C 	0.94440 0.40330 0.57290 -0.08500
C 	C 	0.88680 0.39170 0.40000 0.00300
C 	C 	0.40330 0.40360 0.03334 -0.05800
C 	C 	0.93960 0.47130 0.29880 0.22100
C 	C 	0.84400 0.15090 0.18905 -0.00100
C 	C 	0.91200 0.25390 0.09950 0.03100
C 	C 	0.44190 0.52460 0.05084 -0.03000
C 	C 	0.80250 0.95140 0.72797 0.33300
C 	C 	0.76100 0.99220 0.55213 0.04400
C 	C 	0.07200 0.62050 0.16192 0.03900
C 	C 	0.30470 0.29310 0.07070 0.29300
C 	C 	0.46260 0.37880 0.98218 -0.02900
C 	C 	0.82200 0.87190 0.58234 -0.11400
C 	C 	0.78690 0.96500 0.66718 -0.11400
C 	C 	0.83280 0.85840 0.63864 0.04200
C 	C 	0.68310 0.03220 0.31757 0.22500
C 	C 	0.72530 0.08530 0.63742 0.04400
C 	C 	0.66920 0.29020 0.13860 -0.06200
C 	C 	0.09290 0.75250 0.17419 -0.01500
C 	C 	0.83570 0.93100 0.45815 -0.08900
C 	C 	0.81730 0.94080 0.40222 0.00800
C 	C 	0.70980 0.02860 0.37728 -0.06600
C 	C 	0.71180 0.09790 0.58110 -0.11100
C 	C 	0.08030 0.73460 0.06720 -0.05900
C 	C 	0.62110 0.10550 0.40993 0.00300
C 	C 	0.77520 0.31510 0.09406 -0.06300
C 	C 	0.10110 0.86110 0.08361 0.03000
C 	C 	0.58650 0.17160 0.23494 -0.05200
C 	C 	0.63840 0.09500 0.46586 -0.09000
C 	C 	0.06090 0.48650 0.20499 -0.08900
C 	C 	0.74570 0.00730 0.49126 0.02900
C 	C 	0.70330 0.20590 0.18709 0.02600
C 	C 	0.99000 0.49780 0.47030 0.02900
C 	C 	0.06680 0.61320 0.10677 -0.06100
C 	C 	0.95890 0.48580 0.35780 -0.06400
C 	C 	0.90260 0.39740 0.45510 -0.08700
C 	C 	0.04330 0.58940 0.37170 0.00100
C 	C 	0.05560 0.59670 0.42710 -0.08500
N 	N 	0.05180 0.82730 0.85336 -0.20500
N 	N 	0.89220 0.12810 0.86371 -0.21200
N 	N 	0.94190 0.49150 0.73813 -0.20200
N 	N 	0.36030 0.84320 0.71046 -0.21500
N 	N 	0.94820 0.17270 0.14664 -0.20500
N 	N 	0.10780 0.87190 0.13629 -0.21200
N 	N 	0.05810 0.50850 0.26187 -0.20200
N 	N 	0.63970 0.15680 0.28954 -0.21500
O 	O 	0.17570 0.57320 0.71452 -0.22900
O 	O 	0.75600 0.79790 0.95009 -0.34400
O 	O 	0.70530 0.70230 0.87833 -0.40600
O 	O 	0.17350 0.16660 0.24412 -0.39000
O 	O 	0.20950 0.94150 0.25040 -0.38700
O 	O 	0.30220 0.07340 0.70380 -0.22800
O 	O 	0.82430 0.42680 0.28548 -0.22900
O 	O 	0.24400 0.20210 0.04991 -0.34400
O 	O 	0.29470 0.29770 0.12167 -0.40600
O 	O 	0.82650 0.83340 0.75588 -0.39000
O 	O 	0.79050 0.05850 0.74960 -0.38700
O 	O 	0.69780 0.92660 0.29620 -0.22800
