data_crystal

_cell_length_a 12.29000
_cell_length_b 13.70000
_cell_length_c 13.79800
_cell_angle_alpha 108.73600
_cell_angle_beta  92.79300
_cell_angle_gamma 114.36900

_symmetry_space_group_name_	'P 1'
_symmetry_space_group_name_H-M	'P 1'

loop_
_symmetry_equiv_pos_as_xyz
  x,y,z

loop_
_atom_site_label
_atom_site_type_symbol
_atom_site_fract_x
_atom_site_fract_y
_atom_site_fract_z
_atom_site_charge
Ag	Ag	0.01746 0.51784 0.77869 0.47500
N 	N 	0.21180 0.33920 0.47920 -0.14100
C 	C 	0.21700 0.77100 0.83600 -0.03800
H 	H 	0.24630 0.75250 0.77540 0.01300
Ag	Ag	0.08116 0.41329 0.50536 0.46600
N 	N 	0.12150 0.69570 0.86590 -0.21300
N 	N 	0.92070 0.33780 0.70060 -0.21900
Ag	Ag	0.43042 0.59916 0.56476 0.49500
N 	N 	0.16820 0.23400 0.40120 -0.14600
N 	N 	0.17650 0.60570 0.53980 -0.14900
N 	N 	0.32930 0.39740 0.49050 -0.13700
C 	C 	0.54140 0.01360 0.33030 0.05100
H 	H 	0.59930 0.00370 0.29270 -0.01400
N 	N 	0.88050 0.33130 0.45780 -0.15300
N 	N 	0.79850 0.22020 0.43440 -0.16900
N 	N 	0.77410 0.16020 0.65250 -0.15200
C 	C 	0.37140 0.03980 0.44600 -0.16600
H 	H 	0.31480 0.04730 0.48640 0.07200
N 	N 	0.20570 0.86440 0.99360 -0.16000
C 	C 	0.14480 0.03500 0.22870 0.07100
H 	H 	0.07960 0.02960 0.26170 -0.01300
N 	N 	0.36690 0.33080 0.41820 -0.17700
C 	C 	0.12530 0.75260 0.96180 0.09400
H 	H 	0.07780 0.71980 0.00390 -0.03500
C 	C 	0.97070 0.26330 0.67040 -0.02800
H 	H 	0.05260 0.28400 0.66910 -0.01100
C 	C 	0.80400 0.27200 0.68890 0.10100
H 	H 	0.74780 0.30070 0.70470 -0.03400
C 	C 	0.12950 0.94560 0.13760 -0.19800
H 	H 	0.05420 0.88050 0.10850 0.08700
C 	C 	0.68840 0.21960 0.42530 0.11900
C 	C 	0.26000 0.87770 0.91240 0.00800
H 	H 	0.31620 0.94700 0.90960 0.01000
C 	C 	0.88200 0.15560 0.64300 -0.02800
H 	H 	0.89210 0.08880 0.62110 0.03200
C 	C 	0.48310 0.13260 0.46410 0.05200
H 	H 	0.50120 0.20390 0.51520 -0.01400
N 	N 	0.29730 0.67350 0.55990 -0.17300
C 	C 	0.42660 0.92140 0.31060 -0.17300
H 	H 	0.40660 0.85010 0.25850 0.08000
C 	C 	0.56920 0.12000 0.40620 -0.10400
C 	C 	0.22610 0.95480 0.09140 0.16600
C 	C 	0.33700 0.04780 0.13330 -0.20200
H 	H 	0.40210 0.05040 0.10080 0.09300
C 	C 	0.25870 0.13420 0.27190 -0.11300
C 	C 	0.35480 0.13840 0.22310 0.07800
H 	H 	0.43120 0.20230 0.25070 -0.03400
C 	C 	0.26930 0.23430 0.36340 0.12500
C 	C 	0.65610 0.06430 0.63240 0.14700
Ag	Ag	0.05730 0.87530 0.59450 0.29300
O 	O 	0.01500 0.04100 0.46900 -0.23400
Ag	Ag	0.88110 0.10250 0.42450 0.30000
Ag	Ag	0.98254 0.48216 0.22131 0.47500
N 	N 	0.78820 0.66080 0.52080 -0.14100
C 	C 	0.78300 0.22900 0.16400 -0.03800
H 	H 	0.75370 0.24750 0.22460 0.01300
Ag	Ag	0.91884 0.58671 0.49464 0.46600
N 	N 	0.87850 0.30430 0.13410 -0.21300
N 	N 	0.07930 0.66220 0.29940 -0.21900
Ag	Ag	0.56958 0.40084 0.43524 0.49500
N 	N 	0.83180 0.76600 0.59880 -0.14600
N 	N 	0.82350 0.39430 0.46020 -0.14900
N 	N 	0.67070 0.60260 0.50950 -0.13700
C 	C 	0.45860 0.98640 0.66970 0.05100
H 	H 	0.40070 0.99630 0.70730 -0.01400
N 	N 	0.11950 0.66870 0.54220 -0.15300
N 	N 	0.20150 0.77980 0.56560 -0.16900
N 	N 	0.22590 0.83980 0.34750 -0.15200
C 	C 	0.62860 0.96020 0.55400 -0.16600
H 	H 	0.68520 0.95270 0.51360 0.07200
N 	N 	0.79430 0.13560 0.00640 -0.16000
C 	C 	0.85520 0.96500 0.77130 0.07100
H 	H 	0.92040 0.97040 0.73830 -0.01300
N 	N 	0.63310 0.66920 0.58180 -0.17700
C 	C 	0.87470 0.24740 0.03820 0.09400
H 	H 	0.92220 0.28020 0.99610 -0.03500
C 	C 	0.02930 0.73670 0.32960 -0.02800
H 	H 	0.94740 0.71600 0.33090 -0.01100
C 	C 	0.19600 0.72800 0.31110 0.10100
H 	H 	0.25220 0.69930 0.29530 -0.03400
C 	C 	0.87050 0.05440 0.86240 -0.19800
H 	H 	0.94580 0.11950 0.89150 0.08700
C 	C 	0.31160 0.78040 0.57470 0.11900
C 	C 	0.74000 0.12230 0.08760 0.00800
H 	H 	0.68380 0.05300 0.09040 0.01000
C 	C 	0.11800 0.84440 0.35700 -0.02800
H 	H 	0.10790 0.91120 0.37890 0.03200
C 	C 	0.51690 0.86740 0.53590 0.05200
H 	H 	0.49880 0.79610 0.48480 -0.01400
N 	N 	0.70270 0.32650 0.44010 -0.17300
C 	C 	0.57340 0.07860 0.68940 -0.17300
H 	H 	0.59340 0.14990 0.74150 0.08000
C 	C 	0.43080 0.88000 0.59380 -0.10400
C 	C 	0.77390 0.04520 0.90860 0.16600
C 	C 	0.66300 0.95220 0.86670 -0.20200
H 	H 	0.59790 0.94960 0.89920 0.09300
C 	C 	0.74130 0.86580 0.72810 -0.11300
C 	C 	0.64520 0.86160 0.77690 0.07800
H 	H 	0.56880 0.79770 0.74930 -0.03400
C 	C 	0.73070 0.76570 0.63660 0.12500
C 	C 	0.34390 0.93570 0.36760 0.14700
Ag	Ag	0.94270 0.12470 0.40550 0.29300
O 	O 	0.98500 0.95900 0.53100 -0.23400
Ag	Ag	0.11890 0.89750 0.57550 0.30000
