data_crystal

_cell_length_a 20.51200
_cell_length_b 9.94350
_cell_length_c 26.99400
_cell_angle_alpha 90.00000
_cell_angle_beta  101.94500
_cell_angle_gamma 90.00000

_symmetry_space_group_name_	'P 1'
_symmetry_space_group_name_H-M	'P 1'

loop_
_symmetry_equiv_pos_as_xyz
  x,y,z

loop_
_atom_site_label
_atom_site_type_symbol
_atom_site_fract_x
_atom_site_fract_y
_atom_site_fract_z
_atom_site_charge
Co	Co	0.85893 0.95292 0.32287 1.15100
O 	O 	0.44636 0.58228 0.33040 -0.36300
O 	O 	0.34999 0.68255 0.32354 -0.35700
O 	O 	0.43096 0.30175 0.32680 -0.38000
O 	O 	0.33802 0.18598 0.31581 -0.31800
O 	O 	0.79152 0.84460 0.56798 -0.28300
N 	N 	0.75247 0.95726 0.31690 -0.23100
N 	N 	0.87888 0.97310 0.55970 -0.20000
H 	H 	0.91330 0.01740 0.57700 0.08800
N 	N 	0.84886 0.03959 0.74218 -0.19200
N 	N 	0.86879 0.93980 0.40368 -0.18600
C 	C 	0.54371 0.95060 0.32046 -0.02000
C 	C 	0.51226 0.82740 0.32361 -0.01700
H 	H 	0.53700 0.74640 0.32450 0.05500
C 	C 	0.44497 0.82220 0.32551 -0.06400
C 	C 	0.40872 0.93980 0.32442 0.00800
H 	H 	0.36280 0.93580 0.32550 0.05700
C 	C 	0.43901 0.06420 0.32178 -0.06500
C 	C 	0.50638 0.06880 0.31944 -0.01200
H 	H 	0.52720 0.15330 0.31710 0.05300
C 	C 	0.71283 0.85500 0.29721 0.08100
H 	H 	0.73200 0.78220 0.28240 0.01200
C 	C 	0.64562 0.85000 0.29734 -0.13100
H 	H 	0.61980 0.77490 0.28300 0.08500
C 	C 	0.61559 0.95500 0.31851 0.08500
C 	C 	0.65633 0.06300 0.33789 -0.12900
H 	H 	0.63810 0.13810 0.35210 0.08200
C 	C 	0.72334 0.06060 0.33637 0.07900
H 	H 	0.75010 0.13540 0.34970 0.01300
C 	C 	0.83280 0.92750 0.58550 0.18300
C 	C 	0.79000 0.99810 0.71100 0.10800
H 	H 	0.75150 0.98870 0.72520 -0.04500
C 	C 	0.78440 0.96960 0.66000 -0.03800
H 	H 	0.74250 0.94570 0.63960 -0.00500
C 	C 	0.84010 0.97600 0.63920 0.10700
C 	C 	0.89920 0.01340 0.66970 -0.07400
H 	H 	0.93880 0.01800 0.65670 0.05900
C 	C 	0.90030 0.04460 0.72030 -0.11600
H 	H 	0.94180 0.07160 0.74060 0.15900
C 	C 	0.41162 0.68760 0.32676 0.29500
C 	C 	0.83350 0.86620 0.42630 -0.06100
H 	H 	0.80450 0.80400 0.40600 0.05500
C 	C 	0.83320 0.86730 0.47750 -0.10300
H 	H 	0.80450 0.80960 0.49120 0.09400
C 	C 	0.87590 0.95530 0.50810 -0.00100
C 	C 	0.91840 0.03160 0.48560 0.02800
H 	H 	0.95010 0.08950 0.50570 -0.00700
C 	C 	0.91470 0.02350 0.43420 0.10900
H 	H 	0.94410 0.07610 0.41920 -0.10400
C 	C 	0.39900 0.19090 0.32108 0.31000
C 	C 	0.84100 0.90660 0.55930 0.16200
C 	C 	0.80320 0.00500 0.70790 -0.04400
C 	C 	0.80610 0.97990 0.65820 -0.11500
C 	C 	0.86400 0.00550 0.64310 -0.00600
C 	C 	0.91590 0.05410 0.67840 0.02400
C 	C 	0.91020 0.07100 0.72830 0.07300
C 	C 	0.82380 0.84400 0.41970 0.11200
C 	C 	0.81990 0.83070 0.47020 -0.04100
C 	C 	0.85600 0.91520 0.50520 0.11300
C 	C 	0.89740 0.00630 0.49030 -0.08400
C 	C 	0.90110 0.00700 0.43910 -0.12300
H 	H 	0.76850 0.94570 0.63510 0.11000
H 	H 	0.95650 0.07670 0.66870 0.01600
H 	H 	0.94680 0.10340 0.75280 -0.12000
H 	H 	0.79640 0.78850 0.39500 -0.04800
H 	H 	0.79240 0.76350 0.48020 0.01500
H 	H 	0.92290 0.06720 0.51370 0.05900
H 	H 	0.93290 0.06670 0.43030 0.12200
H 	H 	0.90330 0.04610 0.58400 0.09400
H 	H 	0.76090 0.99380 0.71650 0.05100
N 	N 	0.87370 0.99310 0.59330 -0.20500
Co	Co	0.35893 0.45292 0.32287 1.15100
O 	O 	0.94636 0.08228 0.33040 -0.36300
O 	O 	0.84999 0.18255 0.32354 -0.35700
O 	O 	0.93096 0.80175 0.32680 -0.38100
O 	O 	0.83802 0.68598 0.31581 -0.31900
O 	O 	0.29152 0.34460 0.56798 -0.28400
N 	N 	0.25247 0.45726 0.31690 -0.23100
N 	N 	0.37888 0.47310 0.55970 -0.20200
H 	H 	0.41330 0.51740 0.57700 0.08100
N 	N 	0.34886 0.53959 0.74218 -0.19200
N 	N 	0.36879 0.43980 0.40368 -0.18700
C 	C 	0.04371 0.45060 0.32046 -0.02000
C 	C 	0.01226 0.32740 0.32361 -0.01800
H 	H 	0.03700 0.24640 0.32450 0.05400
C 	C 	0.94497 0.32220 0.32551 -0.06600
C 	C 	0.90872 0.43980 0.32442 0.00900
H 	H 	0.86280 0.43580 0.32550 0.05600
C 	C 	0.93901 0.56420 0.32178 -0.06800
C 	C 	0.00638 0.56880 0.31944 -0.01500
H 	H 	0.02720 0.65330 0.31710 0.05300
C 	C 	0.21283 0.35500 0.29721 0.08200
H 	H 	0.23200 0.28220 0.28240 0.01100
C 	C 	0.14562 0.35000 0.29734 -0.13200
H 	H 	0.11980 0.27490 0.28300 0.08600
C 	C 	0.11559 0.45500 0.31851 0.08700
C 	C 	0.15633 0.56300 0.33789 -0.13100
H 	H 	0.13810 0.63810 0.35210 0.08200
C 	C 	0.22334 0.56060 0.33637 0.07800
H 	H 	0.25010 0.63540 0.34970 0.01300
C 	C 	0.33280 0.42750 0.58550 0.17100
C 	C 	0.29000 0.49810 0.71100 0.11500
H 	H 	0.25150 0.48870 0.72520 -0.05000
C 	C 	0.28440 0.46960 0.66000 -0.04200
H 	H 	0.24250 0.44570 0.63960 -0.00600
C 	C 	0.34010 0.47600 0.63920 0.11100
C 	C 	0.39920 0.51340 0.66970 -0.07400
H 	H 	0.43880 0.51800 0.65670 0.05900
C 	C 	0.40030 0.54460 0.72030 -0.11700
H 	H 	0.44180 0.57160 0.74060 0.16100
C 	C 	0.91162 0.18760 0.32676 0.29500
C 	C 	0.33350 0.36620 0.42630 -0.06100
H 	H 	0.30450 0.30400 0.40600 0.05500
C 	C 	0.33320 0.36730 0.47750 -0.10300
H 	H 	0.30450 0.30960 0.49120 0.09300
C 	C 	0.37590 0.45530 0.50810 -0.00500
C 	C 	0.41840 0.53160 0.48560 0.03100
H 	H 	0.45010 0.58950 0.50570 -0.00800
C 	C 	0.41470 0.52350 0.43420 0.10800
H 	H 	0.44410 0.57610 0.41920 -0.10200
C 	C 	0.89900 0.69090 0.32108 0.31000
C 	C 	0.34100 0.40660 0.55930 0.17300
C 	C 	0.30320 0.50500 0.70790 -0.04900
C 	C 	0.30610 0.47990 0.65820 -0.11700
C 	C 	0.36400 0.50550 0.64310 -0.00700
C 	C 	0.41590 0.55410 0.67840 0.02500
C 	C 	0.41020 0.57100 0.72830 0.07300
C 	C 	0.32380 0.34400 0.41970 0.11200
C 	C 	0.31990 0.33070 0.47020 -0.04100
C 	C 	0.35600 0.41520 0.50520 0.11500
C 	C 	0.39740 0.50630 0.49030 -0.08500
C 	C 	0.40110 0.50700 0.43910 -0.12200
H 	H 	0.26850 0.44570 0.63510 0.11300
H 	H 	0.45650 0.57670 0.66870 0.01600
H 	H 	0.44680 0.60340 0.75280 -0.12100
H 	H 	0.29640 0.28850 0.39500 -0.04800
H 	H 	0.29240 0.26350 0.48020 0.01600
H 	H 	0.42290 0.56720 0.51370 0.05900
H 	H 	0.43290 0.56670 0.43030 0.11900
H 	H 	0.40330 0.54610 0.58400 0.10100
H 	H 	0.26090 0.49380 0.71650 0.05300
N 	N 	0.37370 0.49310 0.59330 -0.20500
Co	Co	0.85893 0.04708 0.82287 1.15000
O 	O 	0.44636 0.41772 0.83040 -0.36400
O 	O 	0.34999 0.31745 0.82354 -0.35800
O 	O 	0.43096 0.69825 0.82680 -0.38100
O 	O 	0.33802 0.81402 0.81581 -0.31900
O 	O 	0.79152 0.15540 0.06798 -0.28400
N 	N 	0.75247 0.04274 0.81690 -0.23200
N 	N 	0.87888 0.02690 0.05970 -0.20000
H 	H 	0.91330 0.98260 0.07700 0.08700
N 	N 	0.84886 0.96041 0.24218 -0.19300
N 	N 	0.86879 0.06020 0.90368 -0.18800
C 	C 	0.54371 0.04940 0.82046 -0.02200
C 	C 	0.51226 0.17260 0.82361 -0.01800
H 	H 	0.53700 0.25360 0.82450 0.05400
C 	C 	0.44497 0.17780 0.82551 -0.06500
C 	C 	0.40872 0.06020 0.82442 0.00600
H 	H 	0.36280 0.06420 0.82550 0.05600
C 	C 	0.43901 0.93580 0.82178 -0.06500
C 	C 	0.50638 0.93120 0.81944 -0.01300
H 	H 	0.52720 0.84670 0.81710 0.05200
C 	C 	0.71283 0.14500 0.79721 0.08100
H 	H 	0.73200 0.21780 0.78240 0.01200
C 	C 	0.64562 0.15000 0.79734 -0.13100
H 	H 	0.61980 0.22510 0.78300 0.08500
C 	C 	0.61559 0.04500 0.81851 0.08400
C 	C 	0.65633 0.93700 0.83789 -0.12800
H 	H 	0.63810 0.86190 0.85210 0.08200
C 	C 	0.72334 0.93940 0.83637 0.07900
H 	H 	0.75010 0.86460 0.84970 0.01300
C 	C 	0.83280 0.07250 0.08550 0.18300
C 	C 	0.79000 0.00190 0.21100 0.10700
H 	H 	0.75150 0.01130 0.22520 -0.04500
C 	C 	0.78440 0.03040 0.16000 -0.03700
H 	H 	0.74250 0.05430 0.13960 -0.00500
C 	C 	0.84010 0.02400 0.13920 0.10500
C 	C 	0.89920 0.98660 0.16970 -0.07300
H 	H 	0.93880 0.98200 0.15670 0.05800
C 	C 	0.90030 0.95540 0.22030 -0.11600
H 	H 	0.94180 0.92840 0.24060 0.15900
C 	C 	0.41162 0.31240 0.82676 0.29500
C 	C 	0.83350 0.13380 0.92630 -0.06100
H 	H 	0.80450 0.19600 0.90600 0.05500
C 	C 	0.83320 0.13270 0.97750 -0.10300
H 	H 	0.80450 0.19040 0.99120 0.09400
C 	C 	0.87590 0.04470 0.00810 0.00000
C 	C 	0.91840 0.96840 0.98560 0.02800
H 	H 	0.95010 0.91050 0.00570 -0.00700
C 	C 	0.91470 0.97650 0.93420 0.10900
H 	H 	0.94410 0.92390 0.91920 -0.10400
C 	C 	0.39900 0.80910 0.82108 0.31000
C 	C 	0.84100 0.09340 0.05930 0.16200
C 	C 	0.80320 0.99500 0.20790 -0.04400
C 	C 	0.80610 0.02010 0.15820 -0.11500
C 	C 	0.86400 0.99450 0.14310 -0.00400
C 	C 	0.91590 0.94590 0.17840 0.02300
C 	C 	0.91020 0.92900 0.22830 0.07300
C 	C 	0.82380 0.15600 0.91970 0.11200
C 	C 	0.81990 0.16930 0.97020 -0.04100
C 	C 	0.85600 0.08480 0.00520 0.11100
C 	C 	0.89740 0.99370 0.99030 -0.08200
C 	C 	0.90110 0.99300 0.93910 -0.12300
H 	H 	0.76850 0.05430 0.13510 0.11000
H 	H 	0.95650 0.92330 0.16870 0.01600
H 	H 	0.94680 0.89660 0.25280 -0.12000
H 	H 	0.79640 0.21150 0.89500 -0.04800
H 	H 	0.79240 0.23650 0.98020 0.01500
H 	H 	0.92290 0.93280 0.01370 0.05700
H 	H 	0.93290 0.93330 0.93030 0.12200
H 	H 	0.90330 0.95390 0.08400 0.09300
H 	H 	0.76090 0.00620 0.21650 0.05100
N 	N 	0.87370 0.00690 0.09330 -0.20500
Co	Co	0.35893 0.54708 0.82287 1.15100
O 	O 	0.94636 0.91772 0.83040 -0.36300
O 	O 	0.84999 0.81745 0.82354 -0.35700
O 	O 	0.93096 0.19825 0.82680 -0.38100
O 	O 	0.83802 0.31402 0.81581 -0.31900
O 	O 	0.29152 0.65540 0.06798 -0.28400
N 	N 	0.25247 0.54274 0.81690 -0.23100
N 	N 	0.37888 0.52690 0.05970 -0.20200
H 	H 	0.41330 0.48260 0.07700 0.08100
N 	N 	0.34886 0.46041 0.24218 -0.19200
N 	N 	0.36879 0.56020 0.90368 -0.18700
C 	C 	0.04371 0.54940 0.82046 -0.02000
C 	C 	0.01226 0.67260 0.82361 -0.01900
H 	H 	0.03700 0.75360 0.82450 0.05500
C 	C 	0.94497 0.67780 0.82551 -0.06500
C 	C 	0.90872 0.56020 0.82442 0.00800
H 	H 	0.86280 0.56420 0.82550 0.05600
C 	C 	0.93901 0.43580 0.82178 -0.06700
C 	C 	0.00638 0.43120 0.81944 -0.01600
H 	H 	0.02720 0.34670 0.81710 0.05300
C 	C 	0.21283 0.64500 0.79721 0.08200
H 	H 	0.23200 0.71780 0.78240 0.01100
C 	C 	0.14562 0.65000 0.79734 -0.13100
H 	H 	0.11980 0.72510 0.78300 0.08600
C 	C 	0.11559 0.54500 0.81851 0.08600
C 	C 	0.15633 0.43700 0.83789 -0.13100
H 	H 	0.13810 0.36190 0.85210 0.08200
C 	C 	0.22334 0.43940 0.83637 0.07800
H 	H 	0.25010 0.36460 0.84970 0.01300
C 	C 	0.33280 0.57250 0.08550 0.17200
C 	C 	0.29000 0.50190 0.21100 0.11500
H 	H 	0.25150 0.51130 0.22520 -0.05000
C 	C 	0.28440 0.53040 0.16000 -0.04200
H 	H 	0.24250 0.55430 0.13960 -0.00600
C 	C 	0.34010 0.52400 0.13920 0.11100
C 	C 	0.39920 0.48660 0.16970 -0.07400
H 	H 	0.43880 0.48200 0.15670 0.05900
C 	C 	0.40030 0.45540 0.22030 -0.11700
H 	H 	0.44180 0.42840 0.24060 0.16100
C 	C 	0.91162 0.81240 0.82676 0.29500
C 	C 	0.33350 0.63380 0.92630 -0.06100
H 	H 	0.30450 0.69600 0.90600 0.05500
C 	C 	0.33320 0.63270 0.97750 -0.10300
H 	H 	0.30450 0.69040 0.99120 0.09300
C 	C 	0.37590 0.54470 0.00810 -0.00500
C 	C 	0.41840 0.46840 0.98560 0.03100
H 	H 	0.45010 0.41050 0.00570 -0.00800
C 	C 	0.41470 0.47650 0.93420 0.10800
H 	H 	0.44410 0.42390 0.91920 -0.10200
C 	C 	0.89900 0.30910 0.82108 0.31000
C 	C 	0.34100 0.59340 0.05930 0.17200
C 	C 	0.30320 0.49500 0.20790 -0.04900
C 	C 	0.30610 0.52010 0.15820 -0.11700
C 	C 	0.36400 0.49450 0.14310 -0.00700
C 	C 	0.41590 0.44590 0.17840 0.02500
C 	C 	0.41020 0.42900 0.22830 0.07300
C 	C 	0.32380 0.65600 0.91970 0.11200
C 	C 	0.31990 0.66930 0.97020 -0.04100
C 	C 	0.35600 0.58480 0.00520 0.11500
C 	C 	0.39740 0.49370 0.99030 -0.08500
C 	C 	0.40110 0.49300 0.93910 -0.12200
H 	H 	0.26850 0.55430 0.13510 0.11300
H 	H 	0.45650 0.42330 0.16870 0.01600
H 	H 	0.44680 0.39660 0.25280 -0.12100
H 	H 	0.29640 0.71150 0.89500 -0.04800
H 	H 	0.29240 0.73650 0.98020 0.01600
H 	H 	0.42290 0.43280 0.01370 0.05900
H 	H 	0.43290 0.43330 0.93030 0.11900
H 	H 	0.40330 0.45390 0.08400 0.10100
H 	H 	0.26090 0.50620 0.21650 0.05300
N 	N 	0.37370 0.50690 0.09330 -0.20500
Co	Co	0.14107 0.95292 0.17713 1.15000
O 	O 	0.55364 0.58228 0.16960 -0.36400
O 	O 	0.65001 0.68255 0.17646 -0.35800
O 	O 	0.56904 0.30175 0.17320 -0.38100
O 	O 	0.66198 0.18598 0.18419 -0.31900
O 	O 	0.20848 0.84460 0.93202 -0.28400
N 	N 	0.24753 0.95726 0.18310 -0.23200
N 	N 	0.12112 0.97310 0.94030 -0.20000
H 	H 	0.08670 0.01740 0.92300 0.08700
N 	N 	0.15114 0.03959 0.75782 -0.19300
N 	N 	0.13121 0.93980 0.09632 -0.18800
C 	C 	0.45629 0.95060 0.17954 -0.02200
C 	C 	0.48774 0.82740 0.17639 -0.01800
H 	H 	0.46300 0.74640 0.17550 0.05400
C 	C 	0.55503 0.82220 0.17449 -0.06500
C 	C 	0.59128 0.93980 0.17558 0.00600
H 	H 	0.63720 0.93580 0.17450 0.05600
C 	C 	0.56099 0.06420 0.17822 -0.06500
C 	C 	0.49362 0.06880 0.18056 -0.01300
H 	H 	0.47280 0.15330 0.18290 0.05200
C 	C 	0.28717 0.85500 0.20279 0.08100
H 	H 	0.26800 0.78220 0.21760 0.01200
C 	C 	0.35438 0.85000 0.20266 -0.13100
H 	H 	0.38020 0.77490 0.21700 0.08500
C 	C 	0.38441 0.95500 0.18149 0.08400
C 	C 	0.34367 0.06300 0.16211 -0.12800
H 	H 	0.36190 0.13810 0.14790 0.08200
C 	C 	0.27666 0.06060 0.16363 0.07900
H 	H 	0.24990 0.13540 0.15030 0.01300
C 	C 	0.16720 0.92750 0.91450 0.18300
C 	C 	0.21000 0.99810 0.78900 0.10700
H 	H 	0.24850 0.98870 0.77480 -0.04500
C 	C 	0.21560 0.96960 0.84000 -0.03700
H 	H 	0.25750 0.94570 0.86040 -0.00500
C 	C 	0.15990 0.97600 0.86080 0.10500
C 	C 	0.10080 0.01340 0.83030 -0.07300
H 	H 	0.06120 0.01800 0.84330 0.05800
C 	C 	0.09970 0.04460 0.77970 -0.11600
H 	H 	0.05820 0.07160 0.75940 0.15900
C 	C 	0.58838 0.68760 0.17324 0.29500
C 	C 	0.16650 0.86620 0.07370 -0.06100
H 	H 	0.19550 0.80400 0.09400 0.05500
C 	C 	0.16680 0.86730 0.02250 -0.10300
H 	H 	0.19550 0.80960 0.00880 0.09400
C 	C 	0.12410 0.95530 0.99190 0.00000
C 	C 	0.08160 0.03160 0.01440 0.02800
H 	H 	0.04990 0.08950 0.99430 -0.00700
C 	C 	0.08530 0.02350 0.06580 0.10900
H 	H 	0.05590 0.07610 0.08080 -0.10400
C 	C 	0.60100 0.19090 0.17892 0.31000
C 	C 	0.15900 0.90660 0.94070 0.16200
C 	C 	0.19680 0.00500 0.79210 -0.04400
C 	C 	0.19390 0.97990 0.84180 -0.11500
C 	C 	0.13600 0.00550 0.85690 -0.00400
C 	C 	0.08410 0.05410 0.82160 0.02300
C 	C 	0.08980 0.07100 0.77170 0.07300
C 	C 	0.17620 0.84400 0.08030 0.11200
C 	C 	0.18010 0.83070 0.02980 -0.04100
C 	C 	0.14400 0.91520 0.99480 0.11100
C 	C 	0.10260 0.00630 0.00970 -0.08200
C 	C 	0.09890 0.00700 0.06090 -0.12300
H 	H 	0.23150 0.94570 0.86490 0.11000
H 	H 	0.04350 0.07670 0.83130 0.01600
H 	H 	0.05320 0.10340 0.74720 -0.12000
H 	H 	0.20360 0.78850 0.10500 -0.04800
H 	H 	0.20760 0.76350 0.01980 0.01500
H 	H 	0.07710 0.06720 0.98630 0.05700
H 	H 	0.06710 0.06670 0.06970 0.12200
H 	H 	0.09670 0.04610 0.91600 0.09300
H 	H 	0.23910 0.99380 0.78350 0.05100
N 	N 	0.12630 0.99310 0.90670 -0.20500
Co	Co	0.64107 0.45292 0.17713 1.15100
O 	O 	0.05364 0.08228 0.16960 -0.36300
O 	O 	0.15001 0.18255 0.17646 -0.35700
O 	O 	0.06904 0.80175 0.17320 -0.38100
O 	O 	0.16198 0.68598 0.18419 -0.31900
O 	O 	0.70848 0.34460 0.93202 -0.28400
N 	N 	0.74753 0.45726 0.18310 -0.23100
N 	N 	0.62112 0.47310 0.94030 -0.20200
H 	H 	0.58670 0.51740 0.92300 0.08100
N 	N 	0.65114 0.53959 0.75782 -0.19200
N 	N 	0.63121 0.43980 0.09632 -0.18700
C 	C 	0.95629 0.45060 0.17954 -0.02000
C 	C 	0.98774 0.32740 0.17639 -0.01900
H 	H 	0.96300 0.24640 0.17550 0.05500
C 	C 	0.05503 0.32220 0.17449 -0.06500
C 	C 	0.09128 0.43980 0.17558 0.00800
H 	H 	0.13720 0.43580 0.17450 0.05600
C 	C 	0.06099 0.56420 0.17822 -0.06700
C 	C 	0.99362 0.56880 0.18056 -0.01600
H 	H 	0.97280 0.65330 0.18290 0.05300
C 	C 	0.78717 0.35500 0.20279 0.08200
H 	H 	0.76800 0.28220 0.21760 0.01100
C 	C 	0.85438 0.35000 0.20266 -0.13100
H 	H 	0.88020 0.27490 0.21700 0.08600
C 	C 	0.88441 0.45500 0.18149 0.08600
C 	C 	0.84367 0.56300 0.16211 -0.13100
H 	H 	0.86190 0.63810 0.14790 0.08200
C 	C 	0.77666 0.56060 0.16363 0.07800
H 	H 	0.74990 0.63540 0.15030 0.01300
C 	C 	0.66720 0.42750 0.91450 0.17200
C 	C 	0.71000 0.49810 0.78900 0.11500
H 	H 	0.74850 0.48870 0.77480 -0.05000
C 	C 	0.71560 0.46960 0.84000 -0.04200
H 	H 	0.75750 0.44570 0.86040 -0.00600
C 	C 	0.65990 0.47600 0.86080 0.11100
C 	C 	0.60080 0.51340 0.83030 -0.07400
H 	H 	0.56120 0.51800 0.84330 0.05900
C 	C 	0.59970 0.54460 0.77970 -0.11700
H 	H 	0.55820 0.57160 0.75940 0.16100
C 	C 	0.08838 0.18760 0.17324 0.29500
C 	C 	0.66650 0.36620 0.07370 -0.06100
H 	H 	0.69550 0.30400 0.09400 0.05500
C 	C 	0.66680 0.36730 0.02250 -0.10300
H 	H 	0.69550 0.30960 0.00880 0.09300
C 	C 	0.62410 0.45530 0.99190 -0.00500
C 	C 	0.58160 0.53160 0.01440 0.03100
H 	H 	0.54990 0.58950 0.99430 -0.00800
C 	C 	0.58530 0.52350 0.06580 0.10800
H 	H 	0.55590 0.57610 0.08080 -0.10200
C 	C 	0.10100 0.69090 0.17892 0.31000
C 	C 	0.65900 0.40660 0.94070 0.17200
C 	C 	0.69680 0.50500 0.79210 -0.04900
C 	C 	0.69390 0.47990 0.84180 -0.11700
C 	C 	0.63600 0.50550 0.85690 -0.00700
C 	C 	0.58410 0.55410 0.82160 0.02500
C 	C 	0.58980 0.57100 0.77170 0.07300
C 	C 	0.67620 0.34400 0.08030 0.11200
C 	C 	0.68010 0.33070 0.02980 -0.04100
C 	C 	0.64400 0.41520 0.99480 0.11500
C 	C 	0.60260 0.50630 0.00970 -0.08500
C 	C 	0.59890 0.50700 0.06090 -0.12200
H 	H 	0.73150 0.44570 0.86490 0.11300
H 	H 	0.54350 0.57670 0.83130 0.01600
H 	H 	0.55320 0.60340 0.74720 -0.12100
H 	H 	0.70360 0.28850 0.10500 -0.04800
H 	H 	0.70760 0.26350 0.01980 0.01600
H 	H 	0.57710 0.56720 0.98630 0.05900
H 	H 	0.56710 0.56670 0.06970 0.11900
H 	H 	0.59670 0.54610 0.91600 0.10100
H 	H 	0.73910 0.49380 0.78350 0.05300
N 	N 	0.62630 0.49310 0.90670 -0.20500
Co	Co	0.14107 0.04708 0.67713 1.15000
O 	O 	0.55364 0.41772 0.66960 -0.36400
O 	O 	0.65001 0.31745 0.67646 -0.35800
O 	O 	0.56904 0.69825 0.67320 -0.38100
O 	O 	0.66198 0.81402 0.68419 -0.31900
O 	O 	0.20848 0.15540 0.43202 -0.28400
N 	N 	0.24753 0.04274 0.68310 -0.23200
N 	N 	0.12112 0.02690 0.44030 -0.20100
H 	H 	0.08670 0.98260 0.42300 0.08700
N 	N 	0.15114 0.96041 0.25782 -0.19300
N 	N 	0.13121 0.06020 0.59632 -0.18700
C 	C 	0.45629 0.04940 0.67954 -0.02100
C 	C 	0.48774 0.17260 0.67639 -0.01800
H 	H 	0.46300 0.25360 0.67550 0.05400
C 	C 	0.55503 0.17780 0.67449 -0.06500
C 	C 	0.59128 0.06020 0.67558 0.00700
H 	H 	0.63720 0.06420 0.67450 0.05600
C 	C 	0.56099 0.93580 0.67822 -0.06600
C 	C 	0.49362 0.93120 0.68056 -0.01300
H 	H 	0.47280 0.84670 0.68290 0.05200
C 	C 	0.28717 0.14500 0.70279 0.08100
H 	H 	0.26800 0.21780 0.71760 0.01200
C 	C 	0.35438 0.15000 0.70266 -0.13100
H 	H 	0.38020 0.22510 0.71700 0.08500
C 	C 	0.38441 0.04500 0.68149 0.08500
C 	C 	0.34367 0.93700 0.66211 -0.12900
H 	H 	0.36190 0.86190 0.64790 0.08200
C 	C 	0.27666 0.93940 0.66363 0.07900
H 	H 	0.24990 0.86460 0.65030 0.01300
C 	C 	0.16720 0.07250 0.41450 0.18300
C 	C 	0.21000 0.00190 0.28900 0.10800
H 	H 	0.24850 0.01130 0.27480 -0.04500
C 	C 	0.21560 0.03040 0.34000 -0.03800
H 	H 	0.25750 0.05430 0.36040 -0.00500
C 	C 	0.15990 0.02400 0.36080 0.10700
C 	C 	0.10080 0.98660 0.33030 -0.07400
H 	H 	0.06120 0.98200 0.34330 0.05900
C 	C 	0.09970 0.95540 0.27970 -0.11600
H 	H 	0.05820 0.92840 0.25940 0.15900
C 	C 	0.58838 0.31240 0.67324 0.29500
C 	C 	0.16650 0.13380 0.57370 -0.06100
H 	H 	0.19550 0.19600 0.59400 0.05500
C 	C 	0.16680 0.13270 0.52250 -0.10300
H 	H 	0.19550 0.19040 0.50880 0.09400
C 	C 	0.12410 0.04470 0.49190 -0.00100
C 	C 	0.08160 0.96840 0.51440 0.02800
H 	H 	0.04990 0.91050 0.49430 -0.00700
C 	C 	0.08530 0.97650 0.56580 0.10900
H 	H 	0.05590 0.92390 0.58080 -0.10400
C 	C 	0.60100 0.80910 0.67892 0.31000
C 	C 	0.15900 0.09340 0.44070 0.16200
C 	C 	0.19680 0.99500 0.29210 -0.04400
C 	C 	0.19390 0.02010 0.34180 -0.11500
C 	C 	0.13600 0.99450 0.35690 -0.00600
C 	C 	0.08410 0.94590 0.32160 0.02400
C 	C 	0.08980 0.92900 0.27170 0.07300
C 	C 	0.17620 0.15600 0.58030 0.11200
C 	C 	0.18010 0.16930 0.52980 -0.04100
C 	C 	0.14400 0.08480 0.49480 0.11300
C 	C 	0.10260 0.99370 0.50970 -0.08400
C 	C 	0.09890 0.99300 0.56090 -0.12300
H 	H 	0.23150 0.05430 0.36490 0.11000
H 	H 	0.04350 0.92330 0.33130 0.01600
H 	H 	0.05320 0.89660 0.24720 -0.12000
H 	H 	0.20360 0.21150 0.60500 -0.04800
H 	H 	0.20760 0.23650 0.51980 0.01500
H 	H 	0.07710 0.93280 0.48630 0.05900
H 	H 	0.06710 0.93330 0.56970 0.12200
H 	H 	0.09670 0.95390 0.41600 0.09400
H 	H 	0.23910 0.00620 0.28350 0.05100
N 	N 	0.12630 0.00690 0.40670 -0.20500
Co	Co	0.64107 0.54708 0.67713 1.15100
O 	O 	0.05364 0.91772 0.66960 -0.36300
O 	O 	0.15001 0.81745 0.67646 -0.35700
O 	O 	0.06904 0.19825 0.67320 -0.38100
O 	O 	0.16198 0.31402 0.68419 -0.31900
O 	O 	0.70848 0.65540 0.43202 -0.28400
N 	N 	0.74753 0.54274 0.68310 -0.23100
N 	N 	0.62112 0.52690 0.44030 -0.20200
H 	H 	0.58670 0.48260 0.42300 0.08100
N 	N 	0.65114 0.46041 0.25782 -0.19200
N 	N 	0.63121 0.56020 0.59632 -0.18700
C 	C 	0.95629 0.54940 0.67954 -0.02000
C 	C 	0.98774 0.67260 0.67639 -0.01800
H 	H 	0.96300 0.75360 0.67550 0.05400
C 	C 	0.05503 0.67780 0.67449 -0.06600
C 	C 	0.09128 0.56020 0.67558 0.00900
H 	H 	0.13720 0.56420 0.67450 0.05600
C 	C 	0.06099 0.43580 0.67822 -0.06800
C 	C 	0.99362 0.43120 0.68056 -0.01500
H 	H 	0.97280 0.34670 0.68290 0.05300
C 	C 	0.78717 0.64500 0.70279 0.08200
H 	H 	0.76800 0.71780 0.71760 0.01100
C 	C 	0.85438 0.65000 0.70266 -0.13200
H 	H 	0.88020 0.72510 0.71700 0.08600
C 	C 	0.88441 0.54500 0.68149 0.08700
C 	C 	0.84367 0.43700 0.66211 -0.13100
H 	H 	0.86190 0.36190 0.64790 0.08200
C 	C 	0.77666 0.43940 0.66363 0.07800
H 	H 	0.74990 0.36460 0.65030 0.01300
C 	C 	0.66720 0.57250 0.41450 0.17100
C 	C 	0.71000 0.50190 0.28900 0.11500
H 	H 	0.74850 0.51130 0.27480 -0.05000
C 	C 	0.71560 0.53040 0.34000 -0.04200
H 	H 	0.75750 0.55430 0.36040 -0.00600
C 	C 	0.65990 0.52400 0.36080 0.11100
C 	C 	0.60080 0.48660 0.33030 -0.07400
H 	H 	0.56120 0.48200 0.34330 0.05900
C 	C 	0.59970 0.45540 0.27970 -0.11700
H 	H 	0.55820 0.42840 0.25940 0.16100
C 	C 	0.08838 0.81240 0.67324 0.29500
C 	C 	0.66650 0.63380 0.57370 -0.06100
H 	H 	0.69550 0.69600 0.59400 0.05500
C 	C 	0.66680 0.63270 0.52250 -0.10300
H 	H 	0.69550 0.69040 0.50880 0.09300
C 	C 	0.62410 0.54470 0.49190 -0.00500
C 	C 	0.58160 0.46840 0.51440 0.03100
H 	H 	0.54990 0.41050 0.49430 -0.00800
C 	C 	0.58530 0.47650 0.56580 0.10800
H 	H 	0.55590 0.42390 0.58080 -0.10200
C 	C 	0.10100 0.30910 0.67892 0.31000
C 	C 	0.65900 0.59340 0.44070 0.17300
C 	C 	0.69680 0.49500 0.29210 -0.04900
C 	C 	0.69390 0.52010 0.34180 -0.11700
C 	C 	0.63600 0.49450 0.35690 -0.00700
C 	C 	0.58410 0.44590 0.32160 0.02500
C 	C 	0.58980 0.42900 0.27170 0.07300
C 	C 	0.67620 0.65600 0.58030 0.11200
C 	C 	0.68010 0.66930 0.52980 -0.04100
C 	C 	0.64400 0.58480 0.49480 0.11500
C 	C 	0.60260 0.49370 0.50970 -0.08500
C 	C 	0.59890 0.49300 0.56090 -0.12200
H 	H 	0.73150 0.55430 0.36490 0.11300
H 	H 	0.54350 0.42330 0.33130 0.01600
H 	H 	0.55320 0.39660 0.24720 -0.12100
H 	H 	0.70360 0.71150 0.60500 -0.04800
H 	H 	0.70760 0.73650 0.51980 0.01600
H 	H 	0.57710 0.43280 0.48630 0.05900
H 	H 	0.56710 0.43330 0.56970 0.11900
H 	H 	0.59670 0.45390 0.41600 0.10100
H 	H 	0.73910 0.50620 0.28350 0.05300
N 	N 	0.62630 0.50690 0.40670 -0.20500
