data_crystal

_cell_length_a 20.57000
_cell_length_b 9.90100
_cell_length_c 27.21100
_cell_angle_alpha 90.00000
_cell_angle_beta  108.52600
_cell_angle_gamma 90.00000

_symmetry_space_group_name_	'P 1'
_symmetry_space_group_name_H-M	'P 1'

loop_
_symmetry_equiv_pos_as_xyz
  x,y,z

loop_
_atom_site_label
_atom_site_type_symbol
_atom_site_fract_x
_atom_site_fract_y
_atom_site_fract_z
_atom_site_charge
Co	Co	0.13610 0.55592 0.17428 1.15000
O 	O 	0.04672 0.68749 0.16198 -0.36700
O 	O 	0.14398 0.78787 0.16952 -0.35800
O 	O 	0.05904 0.40961 0.16669 -0.38700
O 	O 	0.15603 0.29903 0.18086 -0.33100
N 	N 	0.74673 0.06251 0.18840 -0.22700
N 	N 	0.14946 0.56574 0.25629 -0.23200
N 	N 	0.12319 0.46750 0.59299 -0.23200
C 	C 	0.95285 0.05480 0.17935 -0.02000
C 	C 	0.98375 0.93160 0.17466 -0.01800
H 	H 	0.95980 0.84960 0.17480 0.05300
C 	C 	0.04935 0.92750 0.16979 -0.06500
C 	C 	0.08520 0.04710 0.17027 0.00800
H 	H 	0.13030 0.04420 0.16800 0.05200
C 	C 	0.05505 0.17110 0.17406 -0.06600
C 	C 	0.98921 0.17420 0.17883 -0.01800
H 	H 	0.96890 0.25860 0.18180 0.05000
C 	C 	0.78748 0.95460 0.20378 0.07400
H 	H 	0.76980 0.87850 0.21660 0.01300
C 	C 	0.85429 0.94800 0.20196 -0.12600
H 	H 	0.88060 0.86820 0.21280 0.08000
C 	C 	0.88266 0.05880 0.18414 0.07800
C 	C 	0.84104 0.17260 0.17031 -0.12800
H 	H 	0.85800 0.25180 0.15890 0.07900
C 	C 	0.77482 0.17090 0.17312 0.06700
H 	H 	0.74790 0.25040 0.16380 0.01600
C 	C 	0.15691 0.55870 0.41579 -0.07500
H 	H 	0.19760 0.59020 0.44100 0.05500
C 	C 	0.20794 0.58830 0.29484 0.08700
H 	H 	0.24850 0.60470 0.28620 0.00800
C 	C 	0.21202 0.58900 0.34678 -0.15400
H 	H 	0.25470 0.60540 0.37270 0.08800
C 	C 	0.15338 0.56550 0.36092 0.10900
C 	C 	0.09198 0.54700 0.32068 -0.16300
H 	H 	0.05020 0.53470 0.32800 0.10700
C 	C 	0.09257 0.54700 0.27011 0.08600
H 	H 	0.05030 0.53290 0.24340 0.00400
C 	C 	0.10677 0.51110 0.43261 -0.08900
H 	H 	0.06540 0.48240 0.40740 0.07300
C 	C 	0.08180 0.79330 0.16645 0.29400
C 	C 	0.07850 0.39500 0.55580 0.09000
H 	H 	0.05060 0.33100 0.56570 0.00100
C 	C 	0.07090 0.40860 0.50335 -0.15900
H 	H 	0.03810 0.35560 0.47840 0.09000
C 	C 	0.11175 0.50060 0.48772 0.11400
C 	C 	0.15697 0.57830 0.52636 -0.15500
H 	H 	0.18490 0.64430 0.51750 0.08200
C 	C 	0.16105 0.55930 0.57750 0.08300
H 	H 	0.19220 0.61360 0.60310 -0.00200
C 	C 	0.09319 0.30110 0.17392 0.30200
Co	Co	0.63610 0.05592 0.17428 1.14800
O 	O 	0.54672 0.18749 0.16198 -0.36800
O 	O 	0.64398 0.28787 0.16952 -0.35900
O 	O 	0.55904 0.90961 0.16669 -0.38800
O 	O 	0.65603 0.79903 0.18086 -0.33200
N 	N 	0.24673 0.56251 0.18840 -0.22700
N 	N 	0.64946 0.06574 0.25629 -0.23300
N 	N 	0.62319 0.96750 0.59299 -0.23400
C 	C 	0.45285 0.55480 0.17935 -0.02000
C 	C 	0.48375 0.43160 0.17466 -0.01900
H 	H 	0.45980 0.34960 0.17480 0.05200
C 	C 	0.54935 0.42750 0.16979 -0.06900
C 	C 	0.58520 0.54710 0.17027 0.00900
H 	H 	0.63030 0.54420 0.16800 0.05100
C 	C 	0.55505 0.67110 0.17406 -0.06900
C 	C 	0.48921 0.67420 0.17883 -0.01800
H 	H 	0.46890 0.75860 0.18180 0.04900
C 	C 	0.28748 0.45460 0.20378 0.07200
H 	H 	0.26980 0.37850 0.21660 0.01200
C 	C 	0.35429 0.44800 0.20196 -0.12900
H 	H 	0.38060 0.36820 0.21280 0.08000
C 	C 	0.38266 0.55880 0.18414 0.08000
C 	C 	0.34104 0.67260 0.17031 -0.12900
H 	H 	0.35800 0.75180 0.15890 0.07900
C 	C 	0.27482 0.67090 0.17312 0.06800
H 	H 	0.24790 0.75040 0.16380 0.01600
C 	C 	0.65691 0.05870 0.41579 -0.07400
H 	H 	0.69760 0.09020 0.44100 0.05400
C 	C 	0.70794 0.08830 0.29484 0.08600
H 	H 	0.74850 0.10470 0.28620 0.00800
C 	C 	0.71202 0.08900 0.34678 -0.15400
H 	H 	0.75470 0.10540 0.37270 0.08800
C 	C 	0.65338 0.06550 0.36092 0.10800
C 	C 	0.59198 0.04700 0.32068 -0.16300
H 	H 	0.55020 0.03470 0.32800 0.10600
C 	C 	0.59257 0.04700 0.27011 0.08500
H 	H 	0.55030 0.03290 0.24340 0.00400
C 	C 	0.60677 0.01110 0.43261 -0.09100
H 	H 	0.56540 0.98240 0.40740 0.07400
C 	C 	0.58180 0.29330 0.16645 0.29400
C 	C 	0.57850 0.89500 0.55580 0.09000
H 	H 	0.55060 0.83100 0.56570 0.00100
C 	C 	0.57090 0.90860 0.50335 -0.16000
H 	H 	0.53810 0.85560 0.47840 0.09000
C 	C 	0.61175 0.00060 0.48772 0.11500
C 	C 	0.65697 0.07830 0.52636 -0.15600
H 	H 	0.68490 0.14430 0.51750 0.08200
C 	C 	0.66105 0.05930 0.57750 0.08500
H 	H 	0.69220 0.11360 0.60310 -0.00300
C 	C 	0.59319 0.80110 0.17392 0.30200
Co	Co	0.13610 0.44408 0.67428 1.14900
O 	O 	0.04672 0.31251 0.66198 -0.36800
O 	O 	0.14398 0.21213 0.66952 -0.35900
O 	O 	0.05904 0.59039 0.66669 -0.38900
O 	O 	0.15603 0.70097 0.68086 -0.33200
N 	N 	0.74673 0.93749 0.68840 -0.22800
N 	N 	0.14946 0.43426 0.75629 -0.23300
N 	N 	0.12319 0.53250 0.09299 -0.23300
C 	C 	0.95285 0.94520 0.67935 -0.02100
C 	C 	0.98375 0.06840 0.67466 -0.01800
H 	H 	0.95980 0.15040 0.67480 0.05200
C 	C 	0.04935 0.07250 0.66979 -0.06800
C 	C 	0.08520 0.95290 0.67027 0.00800
H 	H 	0.13030 0.95580 0.66800 0.05100
C 	C 	0.05505 0.82890 0.67406 -0.06900
C 	C 	0.98921 0.82580 0.67883 -0.01700
H 	H 	0.96890 0.74140 0.68180 0.04900
C 	C 	0.78748 0.04540 0.70378 0.07300
H 	H 	0.76980 0.12150 0.71660 0.01200
C 	C 	0.85429 0.05200 0.70196 -0.12700
H 	H 	0.88060 0.13180 0.71280 0.08000
C 	C 	0.88266 0.94120 0.68414 0.07800
C 	C 	0.84104 0.82740 0.67031 -0.12900
H 	H 	0.85800 0.74820 0.65890 0.07900
C 	C 	0.77482 0.82910 0.67312 0.06700
H 	H 	0.74790 0.74960 0.66380 0.01600
C 	C 	0.15691 0.44130 0.91579 -0.07600
H 	H 	0.19760 0.40980 0.94100 0.05500
C 	C 	0.20794 0.41170 0.79484 0.08700
H 	H 	0.24850 0.39530 0.78620 0.00800
C 	C 	0.21202 0.41100 0.84678 -0.15400
H 	H 	0.25470 0.39460 0.87270 0.08800
C 	C 	0.15338 0.43450 0.86092 0.10900
C 	C 	0.09198 0.45300 0.82068 -0.16300
H 	H 	0.05020 0.46530 0.82800 0.10700
C 	C 	0.09257 0.45300 0.77011 0.08600
H 	H 	0.05030 0.46710 0.74340 0.00400
C 	C 	0.10677 0.48890 0.93261 -0.08700
H 	H 	0.06540 0.51760 0.90740 0.07200
C 	C 	0.08180 0.20670 0.66645 0.29400
C 	C 	0.07850 0.60500 0.05580 0.08800
H 	H 	0.05060 0.66900 0.06570 0.00200
C 	C 	0.07090 0.59140 0.00335 -0.15500
H 	H 	0.03810 0.64440 0.97840 0.08800
C 	C 	0.11175 0.49940 0.98772 0.11100
C 	C 	0.15697 0.42170 0.02636 -0.15300
H 	H 	0.18490 0.35570 0.01750 0.08100
C 	C 	0.16105 0.44070 0.07750 0.08200
H 	H 	0.19220 0.38640 0.10310 -0.00200
C 	C 	0.09319 0.69890 0.67392 0.30300
Co	Co	0.63610 0.94408 0.67428 1.14800
O 	O 	0.54672 0.81251 0.66198 -0.36800
O 	O 	0.64398 0.71213 0.66952 -0.35900
O 	O 	0.55904 0.09039 0.66669 -0.38800
O 	O 	0.65603 0.20097 0.68086 -0.33200
N 	N 	0.24673 0.43749 0.68840 -0.22700
N 	N 	0.64946 0.93426 0.75629 -0.23300
N 	N 	0.62319 0.03250 0.09299 -0.23400
C 	C 	0.45285 0.44520 0.67935 -0.02000
C 	C 	0.48375 0.56840 0.67466 -0.01900
H 	H 	0.45980 0.65040 0.67480 0.05200
C 	C 	0.54935 0.57250 0.66979 -0.06900
C 	C 	0.58520 0.45290 0.67027 0.00900
H 	H 	0.63030 0.45580 0.66800 0.05100
C 	C 	0.55505 0.32890 0.67406 -0.06900
C 	C 	0.48921 0.32580 0.67883 -0.01800
H 	H 	0.46890 0.24140 0.68180 0.04900
C 	C 	0.28748 0.54540 0.70378 0.07200
H 	H 	0.26980 0.62150 0.71660 0.01200
C 	C 	0.35429 0.55200 0.70196 -0.12900
H 	H 	0.38060 0.63180 0.71280 0.08000
C 	C 	0.38266 0.44120 0.68414 0.08000
C 	C 	0.34104 0.32740 0.67031 -0.12900
H 	H 	0.35800 0.24820 0.65890 0.07900
C 	C 	0.27482 0.32910 0.67312 0.06800
H 	H 	0.24790 0.24960 0.66380 0.01600
C 	C 	0.65691 0.94130 0.91579 -0.07300
H 	H 	0.69760 0.90980 0.94100 0.05400
C 	C 	0.70794 0.91170 0.79484 0.08600
H 	H 	0.74850 0.89530 0.78620 0.00800
C 	C 	0.71202 0.91100 0.84678 -0.15400
H 	H 	0.75470 0.89460 0.87270 0.08800
C 	C 	0.65338 0.93450 0.86092 0.10800
C 	C 	0.59198 0.95300 0.82068 -0.16300
H 	H 	0.55020 0.96530 0.82800 0.10600
C 	C 	0.59257 0.95300 0.77011 0.08500
H 	H 	0.55030 0.96710 0.74340 0.00400
C 	C 	0.60677 0.98890 0.93261 -0.09200
H 	H 	0.56540 0.01760 0.90740 0.07500
C 	C 	0.58180 0.70670 0.66645 0.29400
C 	C 	0.57850 0.10500 0.05580 0.09100
H 	H 	0.55060 0.16900 0.06570 0.00100
C 	C 	0.57090 0.09140 0.00335 -0.16100
H 	H 	0.53810 0.14440 0.97840 0.09100
C 	C 	0.61175 0.99940 0.98772 0.11600
C 	C 	0.65697 0.92170 0.02636 -0.15600
H 	H 	0.68490 0.85570 0.01750 0.08300
C 	C 	0.66105 0.94070 0.07750 0.08500
H 	H 	0.69220 0.88640 0.10310 -0.00300
C 	C 	0.59319 0.19890 0.67392 0.30300
Co	Co	0.86390 0.55592 0.32572 1.14900
O 	O 	0.95328 0.68749 0.33802 -0.36800
O 	O 	0.85602 0.78787 0.33048 -0.35900
O 	O 	0.94096 0.40961 0.33331 -0.38900
O 	O 	0.84397 0.29903 0.31914 -0.33200
N 	N 	0.25327 0.06251 0.31160 -0.22800
N 	N 	0.85054 0.56574 0.24371 -0.23300
N 	N 	0.87681 0.46750 0.90701 -0.23300
C 	C 	0.04715 0.05480 0.32065 -0.02100
C 	C 	0.01625 0.93160 0.32534 -0.01800
H 	H 	0.04020 0.84960 0.32520 0.05200
C 	C 	0.95065 0.92750 0.33021 -0.06800
C 	C 	0.91480 0.04710 0.32973 0.00800
H 	H 	0.86970 0.04420 0.33200 0.05100
C 	C 	0.94495 0.17110 0.32594 -0.06900
C 	C 	0.01079 0.17420 0.32117 -0.01700
H 	H 	0.03110 0.25860 0.31820 0.04900
C 	C 	0.21252 0.95460 0.29622 0.07300
H 	H 	0.23020 0.87850 0.28340 0.01200
C 	C 	0.14571 0.94800 0.29804 -0.12700
H 	H 	0.11940 0.86820 0.28720 0.08000
C 	C 	0.11734 0.05880 0.31586 0.07800
C 	C 	0.15896 0.17260 0.32969 -0.12900
H 	H 	0.14200 0.25180 0.34110 0.07900
C 	C 	0.22518 0.17090 0.32688 0.06700
H 	H 	0.25210 0.25040 0.33620 0.01600
C 	C 	0.84309 0.55870 0.08421 -0.07600
H 	H 	0.80240 0.59020 0.05900 0.05500
C 	C 	0.79206 0.58830 0.20516 0.08700
H 	H 	0.75150 0.60470 0.21380 0.00800
C 	C 	0.78798 0.58900 0.15322 -0.15400
H 	H 	0.74530 0.60540 0.12730 0.08800
C 	C 	0.84662 0.56550 0.13908 0.10900
C 	C 	0.90802 0.54700 0.17932 -0.16300
H 	H 	0.94980 0.53470 0.17200 0.10700
C 	C 	0.90743 0.54700 0.22989 0.08600
H 	H 	0.94970 0.53290 0.25660 0.00400
C 	C 	0.89323 0.51110 0.06739 -0.08700
H 	H 	0.93460 0.48240 0.09260 0.07200
C 	C 	0.91820 0.79330 0.33355 0.29400
C 	C 	0.92150 0.39500 0.94420 0.08800
H 	H 	0.94940 0.33100 0.93430 0.00200
C 	C 	0.92910 0.40860 0.99665 -0.15500
H 	H 	0.96190 0.35560 0.02160 0.08800
C 	C 	0.88825 0.50060 0.01228 0.11100
C 	C 	0.84303 0.57830 0.97364 -0.15300
H 	H 	0.81510 0.64430 0.98250 0.08100
C 	C 	0.83895 0.55930 0.92250 0.08200
H 	H 	0.80780 0.61360 0.89690 -0.00200
C 	C 	0.90681 0.30110 0.32608 0.30300
Co	Co	0.36390 0.05592 0.32572 1.14800
O 	O 	0.45328 0.18749 0.33802 -0.36800
O 	O 	0.35602 0.28787 0.33048 -0.35900
O 	O 	0.44096 0.90961 0.33331 -0.38800
O 	O 	0.34397 0.79903 0.31914 -0.33200
N 	N 	0.75327 0.56251 0.31160 -0.22700
N 	N 	0.35054 0.06574 0.24371 -0.23300
N 	N 	0.37681 0.96750 0.90701 -0.23400
C 	C 	0.54715 0.55480 0.32065 -0.02000
C 	C 	0.51625 0.43160 0.32534 -0.01900
H 	H 	0.54020 0.34960 0.32520 0.05200
C 	C 	0.45065 0.42750 0.33021 -0.06900
C 	C 	0.41480 0.54710 0.32973 0.00900
H 	H 	0.36970 0.54420 0.33200 0.05100
C 	C 	0.44495 0.67110 0.32594 -0.06900
C 	C 	0.51079 0.67420 0.32117 -0.01800
H 	H 	0.53110 0.75860 0.31820 0.04900
C 	C 	0.71252 0.45460 0.29622 0.07200
H 	H 	0.73020 0.37850 0.28340 0.01200
C 	C 	0.64571 0.44800 0.29804 -0.12900
H 	H 	0.61940 0.36820 0.28720 0.08000
C 	C 	0.61734 0.55880 0.31586 0.08000
C 	C 	0.65896 0.67260 0.32969 -0.12900
H 	H 	0.64200 0.75180 0.34110 0.07900
C 	C 	0.72518 0.67090 0.32688 0.06800
H 	H 	0.75210 0.75040 0.33620 0.01600
C 	C 	0.34309 0.05870 0.08421 -0.07300
H 	H 	0.30240 0.09020 0.05900 0.05400
C 	C 	0.29206 0.08830 0.20516 0.08600
H 	H 	0.25150 0.10470 0.21380 0.00800
C 	C 	0.28798 0.08900 0.15322 -0.15400
H 	H 	0.24530 0.10540 0.12730 0.08800
C 	C 	0.34662 0.06550 0.13908 0.10800
C 	C 	0.40802 0.04700 0.17932 -0.16300
H 	H 	0.44980 0.03470 0.17200 0.10600
C 	C 	0.40743 0.04700 0.22989 0.08500
H 	H 	0.44970 0.03290 0.25660 0.00400
C 	C 	0.39323 0.01110 0.06739 -0.09200
H 	H 	0.43460 0.98240 0.09260 0.07500
C 	C 	0.41820 0.29330 0.33355 0.29400
C 	C 	0.42150 0.89500 0.94420 0.09100
H 	H 	0.44940 0.83100 0.93430 0.00100
C 	C 	0.42910 0.90860 0.99665 -0.16100
H 	H 	0.46190 0.85560 0.02160 0.09100
C 	C 	0.38825 0.00060 0.01228 0.11600
C 	C 	0.34303 0.07830 0.97364 -0.15600
H 	H 	0.31510 0.14430 0.98250 0.08300
C 	C 	0.33895 0.05930 0.92250 0.08500
H 	H 	0.30780 0.11360 0.89690 -0.00300
C 	C 	0.40681 0.80110 0.32608 0.30300
Co	Co	0.86390 0.44408 0.82572 1.14900
O 	O 	0.95328 0.31251 0.83802 -0.36800
O 	O 	0.85602 0.21213 0.83048 -0.35900
O 	O 	0.94096 0.59039 0.83331 -0.38800
O 	O 	0.84397 0.70097 0.81914 -0.33200
N 	N 	0.25327 0.93749 0.81160 -0.22800
N 	N 	0.85054 0.43426 0.74371 -0.23300
N 	N 	0.87681 0.53250 0.40701 -0.23300
C 	C 	0.04715 0.94520 0.82065 -0.02100
C 	C 	0.01625 0.06840 0.82534 -0.01900
H 	H 	0.04020 0.15040 0.82520 0.05200
C 	C 	0.95065 0.07250 0.83021 -0.06600
C 	C 	0.91480 0.95290 0.82973 0.00700
H 	H 	0.86970 0.95580 0.83200 0.05100
C 	C 	0.94495 0.82890 0.82594 -0.06700
C 	C 	0.01079 0.82580 0.82117 -0.01900
H 	H 	0.03110 0.74140 0.81820 0.04900
C 	C 	0.21252 0.04540 0.79622 0.07300
H 	H 	0.23020 0.12150 0.78340 0.01200
C 	C 	0.14571 0.05200 0.79804 -0.12700
H 	H 	0.11940 0.13180 0.78720 0.08000
C 	C 	0.11734 0.94120 0.81586 0.07800
C 	C 	0.15896 0.82740 0.82969 -0.12800
H 	H 	0.14200 0.74820 0.84110 0.07900
C 	C 	0.22518 0.82910 0.82688 0.06700
H 	H 	0.25210 0.74960 0.83620 0.01600
C 	C 	0.84309 0.44130 0.58421 -0.07500
H 	H 	0.80240 0.40980 0.55900 0.05500
C 	C 	0.79206 0.41170 0.70516 0.08700
H 	H 	0.75150 0.39530 0.71380 0.00800
C 	C 	0.78798 0.41100 0.65322 -0.15400
H 	H 	0.74530 0.39460 0.62730 0.08800
C 	C 	0.84662 0.43450 0.63908 0.10900
C 	C 	0.90802 0.45300 0.67932 -0.16300
H 	H 	0.94980 0.46530 0.67200 0.10700
C 	C 	0.90743 0.45300 0.72989 0.08600
H 	H 	0.94970 0.46710 0.75660 0.00400
C 	C 	0.89323 0.48890 0.56739 -0.08900
H 	H 	0.93460 0.51760 0.59260 0.07300
C 	C 	0.91820 0.20670 0.83355 0.29400
C 	C 	0.92150 0.60500 0.44420 0.09000
H 	H 	0.94940 0.66900 0.43430 0.00100
C 	C 	0.92910 0.59140 0.49665 -0.15900
H 	H 	0.96190 0.64440 0.52160 0.09000
C 	C 	0.88825 0.49940 0.51228 0.11400
C 	C 	0.84303 0.42170 0.47364 -0.15500
H 	H 	0.81510 0.35570 0.48250 0.08200
C 	C 	0.83895 0.44070 0.42250 0.08300
H 	H 	0.80780 0.38640 0.39690 -0.00200
C 	C 	0.90681 0.69890 0.82608 0.30200
Co	Co	0.36390 0.94408 0.82572 1.14800
O 	O 	0.45328 0.81251 0.83802 -0.36800
O 	O 	0.35602 0.71213 0.83048 -0.35900
O 	O 	0.44096 0.09039 0.83331 -0.38800
O 	O 	0.34397 0.20097 0.81914 -0.33200
N 	N 	0.75327 0.43749 0.81160 -0.22700
N 	N 	0.35054 0.93426 0.74371 -0.23300
N 	N 	0.37681 0.03250 0.40701 -0.23400
C 	C 	0.54715 0.44520 0.82065 -0.02000
C 	C 	0.51625 0.56840 0.82534 -0.01900
H 	H 	0.54020 0.65040 0.82520 0.05200
C 	C 	0.45065 0.57250 0.83021 -0.06900
C 	C 	0.41480 0.45290 0.82973 0.00900
H 	H 	0.36970 0.45580 0.83200 0.05100
C 	C 	0.44495 0.32890 0.82594 -0.06900
C 	C 	0.51079 0.32580 0.82117 -0.01800
H 	H 	0.53110 0.24140 0.81820 0.04900
C 	C 	0.71252 0.54540 0.79622 0.07200
H 	H 	0.73020 0.62150 0.78340 0.01200
C 	C 	0.64571 0.55200 0.79804 -0.12900
H 	H 	0.61940 0.63180 0.78720 0.08000
C 	C 	0.61734 0.44120 0.81586 0.08000
C 	C 	0.65896 0.32740 0.82969 -0.12900
H 	H 	0.64200 0.24820 0.84110 0.07900
C 	C 	0.72518 0.32910 0.82688 0.06800
H 	H 	0.75210 0.24960 0.83620 0.01600
C 	C 	0.34309 0.94130 0.58421 -0.07400
H 	H 	0.30240 0.90980 0.55900 0.05400
C 	C 	0.29206 0.91170 0.70516 0.08600
H 	H 	0.25150 0.89530 0.71380 0.00800
C 	C 	0.28798 0.91100 0.65322 -0.15400
H 	H 	0.24530 0.89460 0.62730 0.08800
C 	C 	0.34662 0.93450 0.63908 0.10800
C 	C 	0.40802 0.95300 0.67932 -0.16300
H 	H 	0.44980 0.96530 0.67200 0.10600
C 	C 	0.40743 0.95300 0.72989 0.08500
H 	H 	0.44970 0.96710 0.75660 0.00400
C 	C 	0.39323 0.98890 0.56739 -0.09100
H 	H 	0.43460 0.01760 0.59260 0.07400
C 	C 	0.41820 0.70670 0.83355 0.29400
C 	C 	0.42150 0.10500 0.44420 0.09000
H 	H 	0.44940 0.16900 0.43430 0.00100
C 	C 	0.42910 0.09140 0.49665 -0.16000
H 	H 	0.46190 0.14440 0.52160 0.09000
C 	C 	0.38825 0.99940 0.51228 0.11500
C 	C 	0.34303 0.92170 0.47364 -0.15600
H 	H 	0.31510 0.85570 0.48250 0.08200
C 	C 	0.33895 0.94070 0.42250 0.08500
H 	H 	0.30780 0.88640 0.39690 -0.00300
C 	C 	0.40681 0.19890 0.82608 0.30200
