data_crystal

_cell_length_a 42.34700
_cell_length_b 8.56900
_cell_length_c 14.49000
_cell_angle_alpha 90.00000
_cell_angle_beta  108.75800
_cell_angle_gamma 90.00000

_symmetry_space_group_name_	'P 1'
_symmetry_space_group_name_H-M	'P 1'

loop_
_symmetry_equiv_pos_as_xyz
  x,y,z

loop_
_atom_site_label
_atom_site_type_symbol
_atom_site_fract_x
_atom_site_fract_y
_atom_site_fract_z
_atom_site_charge
C 	C 	0.19526 0.24330 0.59730 0.19800
C 	C 	0.16319 0.16140 0.57030 -0.59100
H 	H 	0.16100 0.09600 0.51480 0.12300
H 	H 	0.14540 0.23630 0.55440 0.13300
H 	H 	0.16210 0.09830 0.62400 0.14300
C 	C 	0.23636 0.39620 0.67600 0.22400
C 	C 	0.25673 0.50610 0.75040 -0.73700
H 	H 	0.24470 0.53500 0.79380 0.21700
H 	H 	0.27730 0.45680 0.78680 0.20700
H 	H 	0.26130 0.59780 0.71890 0.21000
C 	C 	0.16031 0.88910 0.33550 -0.31600
C 	C 	0.07231 0.53350 0.16900 -0.34000
C 	C 	0.98876 0.19370 0.96330 -0.35700
C 	C 	0.89862 0.86380 0.78060 -0.26500
C 	C 	0.82181 0.72750 0.88940 -0.25800
C 	C 	0.84035 0.59710 0.63350 -0.30100
N 	N 	0.20590 0.34450 0.67300 -0.18300
N 	N 	0.21826 0.23310 0.55500 -0.27200
N 	N 	0.18768 0.38440 0.73480 -0.19700
H 	H 	0.19580 0.44940 0.78170 0.05700
H 	H 	0.16830 0.34400 0.72590 -0.00800
N 	N 	0.24460 0.33140 0.60520 -0.28200
C 	C 	0.17998 0.98290 0.36920 -0.30500
C 	C 	0.09435 0.61240 0.20850 -0.31800
C 	C 	0.00692 0.27510 0.01800 -0.36900
C 	C 	0.92244 0.93620 0.81510 -0.38900
C 	C 	0.83246 0.75300 0.82760 -0.23900
C 	C 	0.82929 0.49370 0.58370 -0.26200
C 	C 	0.76282 0.72820 0.00010 -0.25400
Cu	Cu	0.21458 0.12283 0.43099 0.79900
Cu	Cu	0.13044 0.73638 0.27190 0.78000
Cu	Cu	0.03806 0.40346 0.10173 0.74900
Cu	Cu	0.95850 0.06148 0.87917 0.74600
Cu	Cu	0.85669 0.75516 0.73085 0.79100
Cu	Cu	0.80521 0.66764 0.99146 0.80500
N 	N 	0.33969 0.61090 0.66450 -0.25900
N 	N 	0.42769 0.96650 0.83100 -0.27200
N 	N 	0.60138 0.63620 0.21940 -0.23300
N 	N 	0.67819 0.77250 0.11060 -0.23400
N 	N 	0.49308 0.22490 0.98200 -0.29200
N 	N 	0.82929 0.50630 0.08370 -0.23400
C 	C 	0.30474 0.74330 0.90270 0.19800
C 	C 	0.33681 0.66140 0.92970 -0.58800
H 	H 	0.33900 0.59600 0.98520 0.12200
H 	H 	0.35460 0.73630 0.94560 0.13200
H 	H 	0.33790 0.59830 0.87600 0.14200
C 	C 	0.26364 0.89620 0.82400 0.22600
C 	C 	0.24327 0.00610 0.74960 -0.74400
H 	H 	0.25530 0.03500 0.70620 0.21900
H 	H 	0.22270 0.95680 0.71320 0.20900
H 	H 	0.23870 0.09780 0.78110 0.21200
C 	C 	0.33969 0.38910 0.16450 -0.31600
C 	C 	0.42769 0.03350 0.33100 -0.34100
C 	C 	0.51124 0.69370 0.53670 -0.34800
C 	C 	0.60138 0.36380 0.71940 -0.26600
C 	C 	0.67819 0.22750 0.61060 -0.25700
C 	C 	0.65965 0.09710 0.86650 -0.30300
N 	N 	0.29410 0.84450 0.82700 -0.18300
N 	N 	0.28174 0.73310 0.94500 -0.27200
N 	N 	0.31232 0.88440 0.76520 -0.19700
H 	H 	0.30420 0.94940 0.71830 0.05700
H 	H 	0.33170 0.84400 0.77410 -0.00800
N 	N 	0.25540 0.83140 0.89480 -0.28200
C 	C 	0.32002 0.48290 0.13080 -0.30300
C 	C 	0.40565 0.11240 0.29150 -0.31800
C 	C 	0.49308 0.77510 0.48200 -0.37800
C 	C 	0.57756 0.43620 0.68490 -0.39000
C 	C 	0.66754 0.25300 0.67240 -0.24000
C 	C 	0.67071 0.99370 0.91630 -0.26200
C 	C 	0.73718 0.22820 0.49990 -0.26300
Cu	Cu	0.28542 0.62283 0.06901 0.80000
Cu	Cu	0.36956 0.23638 0.22810 0.78000
Cu	Cu	0.46194 0.90346 0.39827 0.74900
Cu	Cu	0.54150 0.56148 0.62083 0.74600
Cu	Cu	0.64331 0.25516 0.76915 0.79100
Cu	Cu	0.69479 0.16764 0.50854 0.80600
N 	N 	0.16031 0.11090 0.83550 -0.25900
N 	N 	0.07231 0.46650 0.66900 -0.27200
N 	N 	0.89862 0.13620 0.28060 -0.23300
N 	N 	0.82181 0.27250 0.38940 -0.23400
N 	N 	0.00692 0.72490 0.51800 -0.28800
N 	N 	0.67071 0.00630 0.41630 -0.23500
C 	C 	0.30474 0.25670 0.40270 0.19900
C 	C 	0.33681 0.33860 0.42970 -0.59000
H 	H 	0.33900 0.40400 0.48520 0.12300
H 	H 	0.35460 0.26370 0.44560 0.13400
H 	H 	0.33790 0.40170 0.37600 0.14400
C 	C 	0.26364 0.10380 0.32400 0.22400
C 	C 	0.24327 0.99390 0.24960 -0.73700
H 	H 	0.25530 0.96500 0.20620 0.21600
H 	H 	0.22270 0.04320 0.21320 0.20700
H 	H 	0.23870 0.90220 0.28110 0.21000
C 	C 	0.51124 0.30630 0.03670 -0.39300
C 	C 	0.65965 0.90290 0.36650 -0.31300
N 	N 	0.29410 0.15550 0.32700 -0.18300
N 	N 	0.28174 0.26690 0.44500 -0.27100
N 	N 	0.31232 0.11560 0.26520 -0.19700
H 	H 	0.30420 0.05060 0.21830 0.05700
H 	H 	0.33170 0.15600 0.27410 -0.00700
N 	N 	0.25540 0.16860 0.39480 -0.28200
C 	C 	0.32002 0.51710 0.63080 -0.33600
C 	C 	0.40565 0.88760 0.79150 -0.36000
C 	C 	0.57756 0.56380 0.18490 -0.39800
C 	C 	0.66754 0.74700 0.17240 -0.25000
C 	C 	0.73718 0.77180 0.99990 -0.27100
Cu	Cu	0.28542 0.37717 0.56901 0.80100
Cu	Cu	0.36956 0.76362 0.72810 0.77700
Cu	Cu	0.46194 0.09654 0.89827 0.73000
Cu	Cu	0.54150 0.43852 0.12083 0.75300
Cu	Cu	0.64331 0.74484 0.26915 0.79000
Cu	Cu	0.69479 0.83236 0.00854 0.80700
C 	C 	0.19526 0.75670 0.09730 0.20000
C 	C 	0.16319 0.83860 0.07030 -0.59300
H 	H 	0.16100 0.90400 0.01480 0.12500
H 	H 	0.14540 0.76370 0.05440 0.13600
H 	H 	0.16210 0.90170 0.12400 0.14500
C 	C 	0.23636 0.60380 0.17600 0.22300
C 	C 	0.25673 0.49390 0.25040 -0.73300
H 	H 	0.24470 0.46500 0.29380 0.21500
H 	H 	0.27730 0.54320 0.28680 0.20500
H 	H 	0.26130 0.40220 0.21890 0.20900
C 	C 	0.98876 0.80630 0.46330 -0.39800
C 	C 	0.84035 0.40290 0.13350 -0.31100
N 	N 	0.20590 0.65550 0.17300 -0.18300
N 	N 	0.21826 0.76690 0.05500 -0.27100
N 	N 	0.18768 0.61560 0.23480 -0.19700
H 	H 	0.19580 0.55060 0.28170 0.05700
H 	H 	0.16830 0.65600 0.22590 -0.00700
N 	N 	0.24460 0.66860 0.10520 -0.28100
C 	C 	0.17998 0.01710 0.86920 -0.33800
C 	C 	0.09435 0.38760 0.70850 -0.36000
C 	C 	0.92244 0.06380 0.31510 -0.39800
C 	C 	0.83246 0.24700 0.32760 -0.24900
C 	C 	0.76282 0.27180 0.50010 -0.26300
Cu	Cu	0.21458 0.87717 0.93099 0.80000
Cu	Cu	0.13044 0.26362 0.77190 0.77700
Cu	Cu	0.03806 0.59654 0.60173 0.73100
Cu	Cu	0.95850 0.93852 0.37917 0.75300
Cu	Cu	0.85669 0.24484 0.23085 0.79100
Cu	Cu	0.80521 0.33236 0.49146 0.80500
C 	C 	0.69526 0.74330 0.59730 0.19900
C 	C 	0.66319 0.66140 0.57030 -0.59000
H 	H 	0.66100 0.59600 0.51480 0.12400
H 	H 	0.64540 0.73630 0.55440 0.13300
H 	H 	0.66210 0.59830 0.62400 0.14300
C 	C 	0.73636 0.89620 0.67600 0.22600
C 	C 	0.75673 0.00610 0.75040 -0.74200
H 	H 	0.74470 0.03500 0.79380 0.21800
H 	H 	0.77730 0.95680 0.78680 0.20900
H 	H 	0.76130 0.09780 0.71890 0.21200
C 	C 	0.66031 0.38910 0.33550 -0.31600
C 	C 	0.57231 0.03350 0.16900 -0.34000
C 	C 	0.48876 0.69370 0.96330 -0.35500
C 	C 	0.39862 0.36380 0.78060 -0.26500
C 	C 	0.32181 0.22750 0.88940 -0.25900
C 	C 	0.34035 0.09710 0.63350 -0.30200
N 	N 	0.70590 0.84450 0.67300 -0.18300
N 	N 	0.71826 0.73310 0.55500 -0.27200
N 	N 	0.68768 0.88440 0.73480 -0.19700
H 	H 	0.69580 0.94940 0.78170 0.05700
H 	H 	0.66830 0.84400 0.72590 -0.00800
N 	N 	0.74460 0.83140 0.60520 -0.28200
C 	C 	0.67998 0.48290 0.36920 -0.30400
C 	C 	0.59435 0.11240 0.20850 -0.31800
C 	C 	0.50692 0.77510 0.01800 -0.37200
C 	C 	0.42244 0.43620 0.81510 -0.39000
C 	C 	0.33246 0.25300 0.82760 -0.24000
C 	C 	0.32929 0.99370 0.58370 -0.26100
C 	C 	0.26282 0.22820 0.00010 -0.25100
Cu	Cu	0.71458 0.62283 0.43099 0.79900
Cu	Cu	0.63044 0.23638 0.27190 0.78000
Cu	Cu	0.53807 0.90346 0.10173 0.74800
Cu	Cu	0.45850 0.56148 0.87917 0.74600
Cu	Cu	0.35669 0.25516 0.73085 0.79100
Cu	Cu	0.30521 0.16764 0.99146 0.80400
N 	N 	0.83969 0.11090 0.66450 -0.25900
N 	N 	0.92769 0.46650 0.83100 -0.27200
N 	N 	0.10138 0.13620 0.21940 -0.23300
N 	N 	0.17819 0.27250 0.11060 -0.23300
N 	N 	0.99308 0.72490 0.98200 -0.29100
N 	N 	0.32929 0.00630 0.08370 -0.23300
C 	C 	0.80474 0.24330 0.90270 0.19700
C 	C 	0.83681 0.16140 0.92970 -0.58600
H 	H 	0.83900 0.09600 0.98520 0.12100
H 	H 	0.85460 0.23630 0.94560 0.13100
H 	H 	0.83790 0.09830 0.87600 0.14200
C 	C 	0.76364 0.39620 0.82400 0.22400
C 	C 	0.74327 0.50610 0.74960 -0.73700
H 	H 	0.75530 0.53500 0.70620 0.21700
H 	H 	0.72270 0.45680 0.71320 0.20700
H 	H 	0.73870 0.59780 0.78110 0.21000
C 	C 	0.83969 0.88910 0.16450 -0.31600
C 	C 	0.92769 0.53350 0.33100 -0.34100
C 	C 	0.01124 0.19370 0.53670 -0.34900
C 	C 	0.10138 0.86380 0.71940 -0.26500
C 	C 	0.17819 0.72750 0.61060 -0.25700
C 	C 	0.15965 0.59710 0.86650 -0.30100
N 	N 	0.79410 0.34450 0.82700 -0.18300
N 	N 	0.78174 0.23310 0.94500 -0.27300
N 	N 	0.81232 0.38440 0.76520 -0.19700
H 	H 	0.80420 0.44940 0.71830 0.05700
H 	H 	0.83170 0.34400 0.77410 -0.00800
N 	N 	0.75540 0.33140 0.89480 -0.28200
C 	C 	0.82002 0.98290 0.13080 -0.30400
C 	C 	0.90565 0.61240 0.29150 -0.31800
C 	C 	0.99308 0.27510 0.48200 -0.37800
C 	C 	0.07756 0.93620 0.68490 -0.39000
C 	C 	0.16754 0.75300 0.67240 -0.24000
C 	C 	0.17071 0.49370 0.91630 -0.26400
C 	C 	0.23718 0.72820 0.49990 -0.26300
Cu	Cu	0.78542 0.12283 0.06901 0.80000
Cu	Cu	0.86956 0.73638 0.22810 0.78000
Cu	Cu	0.96194 0.40346 0.39827 0.74900
Cu	Cu	0.04150 0.06148 0.62083 0.74600
Cu	Cu	0.14331 0.75516 0.76915 0.79100
Cu	Cu	0.19479 0.66764 0.50854 0.80700
N 	N 	0.66031 0.61090 0.83550 -0.25900
N 	N 	0.57231 0.96650 0.66900 -0.27200
N 	N 	0.39862 0.63620 0.28060 -0.23300
N 	N 	0.32181 0.77250 0.38940 -0.23400
N 	N 	0.50692 0.22490 0.51800 -0.28800
N 	N 	0.17071 0.50630 0.41630 -0.23500
C 	C 	0.80474 0.75670 0.40270 0.19900
C 	C 	0.83681 0.83860 0.42970 -0.59000
H 	H 	0.83900 0.90400 0.48520 0.12300
H 	H 	0.85460 0.76370 0.44560 0.13400
H 	H 	0.83790 0.90170 0.37600 0.14400
C 	C 	0.76364 0.60380 0.32400 0.22300
C 	C 	0.74327 0.49390 0.24960 -0.73300
H 	H 	0.75530 0.46500 0.20620 0.21500
H 	H 	0.72270 0.54320 0.21320 0.20500
H 	H 	0.73870 0.40220 0.28110 0.20900
C 	C 	0.01124 0.80630 0.03670 -0.39400
C 	C 	0.15965 0.40290 0.36650 -0.31200
N 	N 	0.79410 0.65550 0.32700 -0.18200
N 	N 	0.78174 0.76690 0.44500 -0.27100
N 	N 	0.81232 0.61560 0.26520 -0.19700
H 	H 	0.80420 0.55060 0.21830 0.05700
H 	H 	0.83170 0.65600 0.27410 -0.00700
N 	N 	0.75540 0.66860 0.39480 -0.28200
C 	C 	0.82002 0.01710 0.63080 -0.33600
C 	C 	0.90565 0.38760 0.79150 -0.36000
C 	C 	0.07756 0.06380 0.18490 -0.39800
C 	C 	0.16754 0.24700 0.17240 -0.24900
C 	C 	0.23718 0.27180 0.99990 -0.27400
Cu	Cu	0.78542 0.87717 0.56901 0.80100
Cu	Cu	0.86956 0.26362 0.72810 0.77700
Cu	Cu	0.96194 0.59654 0.89827 0.73000
Cu	Cu	0.04150 0.93852 0.12083 0.75300
Cu	Cu	0.14331 0.24484 0.26915 0.79100
Cu	Cu	0.19479 0.33236 0.00854 0.80800
C 	C 	0.69526 0.25670 0.09730 0.20100
C 	C 	0.66319 0.33860 0.07030 -0.59500
H 	H 	0.66100 0.40400 0.01480 0.12600
H 	H 	0.64540 0.26370 0.05440 0.13600
H 	H 	0.66210 0.40170 0.12400 0.14500
C 	C 	0.73636 0.10380 0.17600 0.22500
C 	C 	0.75673 0.99390 0.25040 -0.73900
H 	H 	0.74470 0.96500 0.29380 0.21700
H 	H 	0.77730 0.04320 0.28680 0.20700
H 	H 	0.76130 0.90220 0.21890 0.21100
C 	C 	0.48876 0.30630 0.46330 -0.39800
C 	C 	0.34035 0.90290 0.13350 -0.31300
N 	N 	0.70590 0.15550 0.17300 -0.18300
N 	N 	0.71826 0.26690 0.05500 -0.27000
N 	N 	0.68768 0.11560 0.23480 -0.19700
H 	H 	0.69580 0.05060 0.28170 0.05700
H 	H 	0.66830 0.15600 0.22590 -0.00700
N 	N 	0.74460 0.16860 0.10520 -0.28100
C 	C 	0.67998 0.51710 0.86920 -0.33700
C 	C 	0.59435 0.88760 0.70850 -0.36000
C 	C 	0.42244 0.56380 0.31510 -0.39800
C 	C 	0.33246 0.74700 0.32760 -0.25000
C 	C 	0.26282 0.77180 0.50010 -0.26300
Cu	Cu	0.71458 0.37717 0.93099 0.80000
Cu	Cu	0.63044 0.76362 0.77190 0.77700
Cu	Cu	0.53807 0.09654 0.60173 0.73100
Cu	Cu	0.45850 0.43852 0.37917 0.75300
Cu	Cu	0.35669 0.74484 0.23085 0.79100
Cu	Cu	0.30521 0.83236 0.49146 0.80500
