data_crystal

_cell_length_a 12.18270
_cell_length_b 12.18270
_cell_length_c 7.09230
_cell_angle_alpha 90.00000
_cell_angle_beta  90.00000
_cell_angle_gamma 120.00000

_symmetry_space_group_name_	'P 1'
_symmetry_space_group_name_H-M	'P 1'

loop_
_symmetry_equiv_pos_as_xyz
  x,y,z

loop_
_atom_site_label
_atom_site_type_symbol
_atom_site_fract_x
_atom_site_fract_y
_atom_site_fract_z
_atom_site_charge
Co	Co	0.50000 0.00000 -0.00000 1.16000
Co	Co	-0.00000 0.50000 -0.00000 1.16000
Co	Co	0.50000 0.50000 -0.00000 1.18700
O 	O 	0.70290 0.12770 -0.00000 -0.34000
N 	N 	0.50460 0.16230 -0.00000 -0.16800
O 	O 	0.87230 0.57520 -0.00000 -0.28500
N 	N 	0.83770 0.34230 -0.00000 -0.16600
O 	O 	0.42480 0.29710 -0.00000 -0.32700
N 	N 	0.65770 0.49540 -0.00000 -0.16000
O 	O 	0.29710 0.87230 -0.00000 -0.28500
N 	N 	0.49540 0.83770 -0.00000 -0.16000
O 	O 	0.12770 0.42480 -0.00000 -0.34300
N 	N 	0.16230 0.65770 -0.00000 -0.15800
O 	O 	0.57520 0.70290 -0.00000 -0.32400
N 	N 	0.34230 0.50460 -0.00000 -0.17500
O 	O 	0.12770 0.70290 -0.00000 -0.34000
N 	N 	0.16230 0.50460 -0.00000 -0.16800
O 	O 	0.57520 0.87230 -0.00000 -0.28500
N 	N 	0.34230 0.83770 -0.00000 -0.16600
O 	O 	0.29710 0.42480 -0.00000 -0.32700
N 	N 	0.49540 0.65770 -0.00000 -0.16000
O 	O 	0.87230 0.29710 -0.00000 -0.28500
N 	N 	0.83770 0.49540 -0.00000 -0.16000
O 	O 	0.42480 0.12770 -0.00000 -0.34300
N 	N 	0.65770 0.16230 -0.00000 -0.15800
O 	O 	0.70290 0.57520 -0.00000 -0.32400
N 	N 	0.50460 0.34230 -0.00000 -0.17500
C 	C 	0.62895 0.25790 -0.00000 -0.10900
C 	C 	0.74210 0.37105 -0.00000 -0.06300
C 	C 	0.62895 0.37105 -0.00000 -0.09600
C 	C 	0.37105 0.74210 -0.00000 -0.06300
C 	C 	0.25790 0.62895 -0.00000 -0.10900
C 	C 	0.37105 0.62895 -0.00000 -0.09600
C 	C 	0.78570 0.21430 -0.00000 0.03000
H 	H 	0.83120 0.16880 -0.00000 0.10300
C 	C 	0.75030 0.24970 -0.00000 0.43800
C 	C 	0.78570 0.57140 -0.00000 0.04600
H 	H 	0.83120 0.66240 -0.00000 0.11500
C 	C 	0.75030 0.50060 -0.00000 0.41500
C 	C 	0.42860 0.21430 -0.00000 0.00900
H 	H 	0.33760 0.16880 -0.00000 0.08700
C 	C 	0.49940 0.24970 -0.00000 0.47300
C 	C 	0.21430 0.78570 -0.00000 0.03000
H 	H 	0.16880 0.83120 -0.00000 0.10300
C 	C 	0.24970 0.75030 -0.00000 0.43800
C 	C 	0.21430 0.42860 -0.00000 0.00900
H 	H 	0.16880 0.33760 -0.00000 0.08700
C 	C 	0.24970 0.49940 -0.00000 0.47300
C 	C 	0.57140 0.78570 -0.00000 0.04600
H 	H 	0.66240 0.83120 -0.00000 0.11500
C 	C 	0.50060 0.75030 -0.00000 0.41500
N 	N 	0.50000 -0.00000 0.69500 -0.18000
N 	N 	0.00000 0.50000 0.69500 -0.18000
N 	N 	0.50000 0.50000 0.69500 -0.16800
N 	N 	-0.00000 0.50000 0.30500 -0.20400
N 	N 	0.50000 -0.00000 0.30500 -0.20400
N 	N 	0.50000 0.50000 0.30500 -0.19100
C 	C 	0.59220 0.00000 0.59870 0.00800
H 	H 	0.66020 -0.00000 0.66440 0.03800
C 	C 	0.00000 0.59220 0.59870 0.00800
H 	H 	0.00000 0.66020 0.66440 0.03800
C 	C 	0.40780 0.40780 0.59870 0.01800
H 	H 	0.33980 0.33980 0.66440 0.04000
C 	C 	0.40780 0.00000 0.59870 0.00600
H 	H 	0.33980 -0.00000 0.66440 0.02700
C 	C 	0.00000 0.40780 0.59870 0.00600
H 	H 	-0.00000 0.33980 0.66440 0.02700
C 	C 	0.59220 0.59220 0.59870 0.02200
H 	H 	0.66020 0.66020 0.66440 0.06300
C 	C 	-0.00000 0.59220 0.40130 0.01100
H 	H 	-0.00000 0.66020 0.33560 0.01900
C 	C 	0.59220 0.00000 0.40130 0.01100
H 	H 	0.66020 0.00000 0.33560 0.01900
C 	C 	0.40780 0.40780 0.40130 0.02100
H 	H 	0.33980 0.33980 0.33560 0.02100
C 	C 	-0.00000 0.40780 0.40130 0.00900
H 	H 	-0.00000 0.33980 0.33560 0.00800
C 	C 	0.40780 0.00000 0.40130 0.00900
H 	H 	0.33980 0.00000 0.33560 0.00800
C 	C 	0.59220 0.59220 0.40130 0.02400
H 	H 	0.66020 0.66020 0.33560 0.04500
