data_crystal

_cell_length_a 8.98840
_cell_length_b 10.32600
_cell_length_c 11.91700
_cell_angle_alpha 66.98000
_cell_angle_beta  89.01000
_cell_angle_gamma 78.98000

_symmetry_space_group_name_	'P 1'
_symmetry_space_group_name_H-M	'P 1'

loop_
_symmetry_equiv_pos_as_xyz
  x,y,z

loop_
_atom_site_label
_atom_site_type_symbol
_atom_site_fract_x
_atom_site_fract_y
_atom_site_fract_z
_atom_site_charge
Zn	Zn	0.88980 0.00457 0.76225 1.23300
Zn	Zn	0.41068 0.02832 0.64862 1.23100
Zn	Zn	0.86789 0.63274 0.07222 1.22800
P 	P 	0.61545 0.85492 0.88558 0.45900
H 	H 	0.51700 0.89500 0.95200 -0.04800
P 	P 	0.67644 0.14251 0.51047 0.43400
H 	H 	0.68100 0.26000 0.40400 -0.01000
P 	P 	0.15528 0.14548 0.80171 0.45900
H 	H 	0.23300 0.04400 0.90100 -0.07200
P 	P 	0.11062 0.69585 0.86768 0.44500
H 	H 	0.25200 0.72400 0.87400 -0.02700
O 	O 	0.71890 0.96120 0.85820 -0.48400
O 	O 	0.81790 0.12050 0.58990 -0.40500
O 	O 	0.99340 0.12450 0.80620 -0.45500
O 	O 	0.01760 0.82760 0.76680 -0.43700
O 	O 	0.52810 0.86370 0.77460 -0.45600
O 	O 	0.52830 0.17750 0.56590 -0.43300
O 	O 	0.68280 0.01540 0.47580 -0.45400
O 	O 	0.23100 0.12890 0.69210 -0.44000
O 	O 	0.69230 0.70090 0.95770 -0.44100
O 	O 	0.12550 0.57010 0.83170 -0.42800
O 	O 	0.16460 0.29040 0.80250 -0.42400
O 	O 	0.05730 0.66810 0.99500 -0.47500
Zn	Zn	0.11020 0.99543 0.23775 1.23300
Zn	Zn	0.58932 0.97168 0.35138 1.23100
Zn	Zn	0.13211 0.36726 0.92778 1.22800
P 	P 	0.38455 0.14508 0.11442 0.45900
H 	H 	0.48300 0.10500 0.04800 -0.04800
P 	P 	0.32356 0.85749 0.48953 0.43400
H 	H 	0.31900 0.74000 0.59600 -0.01000
P 	P 	0.84472 0.85452 0.19829 0.45900
H 	H 	0.76700 0.95600 0.09900 -0.07200
P 	P 	0.88938 0.30415 0.13232 0.44500
H 	H 	0.74800 0.27600 0.12600 -0.02700
O 	O 	0.28110 0.03880 0.14180 -0.48400
O 	O 	0.18210 0.87950 0.41010 -0.40500
O 	O 	0.00660 0.87550 0.19380 -0.45500
O 	O 	0.98240 0.17240 0.23320 -0.43700
O 	O 	0.47190 0.13630 0.22540 -0.45600
O 	O 	0.47170 0.82250 0.43410 -0.43300
O 	O 	0.31720 0.98460 0.52420 -0.45400
O 	O 	0.76900 0.87110 0.30790 -0.44000
O 	O 	0.30770 0.29910 0.04230 -0.44100
O 	O 	0.87450 0.42990 0.16830 -0.42800
O 	O 	0.83540 0.70960 0.19750 -0.42400
O 	O 	0.94270 0.33190 0.00500 -0.47500
