data_crystal

_cell_length_a 7.49700
_cell_length_b 7.73760
_cell_length_c 7.73760
_cell_angle_alpha 116.72000
_cell_angle_beta  102.89200
_cell_angle_gamma 102.89200

_symmetry_space_group_name_	'P 1'
_symmetry_space_group_name_H-M	'P 1'

loop_
_symmetry_equiv_pos_as_xyz
  x,y,z

loop_
_atom_site_label
_atom_site_type_symbol
_atom_site_fract_x
_atom_site_fract_y
_atom_site_fract_z
_atom_site_charge
Co	Co	0.49958 0.85837 0.13712 1.05800
Co	Co	0.99958 0.13712 0.85837 0.96100
H 	H 	0.27680 0.68200 0.47520 0.03700
H 	H 	0.21910 0.38730 0.49490 0.06100
H 	H 	0.77680 0.47520 0.68200 -0.02300
H 	H 	0.71910 0.49490 0.38730 0.01000
C 	C 	0.26930 0.88061 0.77659 0.33800
C 	C 	0.26480 0.67879 0.61281 -0.05600
C 	C 	0.22060 0.49905 0.60515 -0.17300
C 	C 	0.17120 0.46114 0.76386 0.38400
C 	C 	0.76930 0.77659 0.88061 0.33200
C 	C 	0.76480 0.61281 0.67879 -0.12200
C 	C 	0.72060 0.60515 0.49905 -0.22300
C 	C 	0.67120 0.76386 0.46114 0.37100
O 	O 	0.38810 0.97648 0.96072 -0.30600
O 	O 	0.15270 0.95060 0.70920 -0.23600
O 	O 	0.24070 0.59957 0.95283 -0.33100
O 	O 	0.05780 0.27727 0.69273 -0.37900
O 	O 	0.88810 0.96072 0.97648 -0.40500
O 	O 	0.65270 0.70920 0.95060 -0.35200
O 	O 	0.74070 0.95283 0.59957 -0.43200
O 	O 	0.55780 0.69273 0.27727 -0.51400
