data_crystal

_cell_length_a 8.13200
_cell_length_b 13.22400
_cell_length_c 7.53700
_cell_angle_alpha 90.00000
_cell_angle_beta  115.31000
_cell_angle_gamma 90.00000

_symmetry_space_group_name_	'P 1'
_symmetry_space_group_name_H-M	'P 1'

loop_
_symmetry_equiv_pos_as_xyz
  x,y,z

loop_
_atom_site_label
_atom_site_type_symbol
_atom_site_fract_x
_atom_site_fract_y
_atom_site_fract_z
_atom_site_charge
Co	Co	0.50000 0.63933 0.50000 1.16200
O 	O 	0.47120 0.49180 0.38880 -0.42300
O 	O 	0.33270 0.37910 0.15350 -0.45000
O 	O 	0.27790 0.67690 0.24190 -0.41000
O 	O 	0.98760 0.70780 0.05780 -0.14100
C 	C 	0.33110 0.44770 0.27060 0.36300
C 	C 	0.14820 0.46670 0.26630 -0.16600
C 	C 	0.05470 0.55250 0.22160 -0.14000
C 	C 	0.11460 0.65230 0.17200 0.04400
Co	Co	0.00000 0.13933 0.50000 0.96600
O 	O 	0.97120 0.99180 0.38880 -0.31300
O 	O 	0.83270 0.87910 0.15350 -0.35200
O 	O 	0.77790 0.17690 0.24190 -0.39600
O 	O 	0.48760 0.20780 0.05780 -0.48400
C 	C 	0.83110 0.94770 0.27060 0.32700
C 	C 	0.64820 0.96670 0.26630 -0.07300
C 	C 	0.55470 0.05250 0.22160 -0.15900
C 	C 	0.61460 0.15230 0.17200 0.36600
Co	Co	0.50000 0.36067 -0.00000 1.11100
O 	O 	0.47120 0.50820 0.88880 -0.35600
O 	O 	0.33270 0.62090 0.65350 -0.39700
O 	O 	0.27790 0.32310 0.74190 -0.34500
O 	O 	0.98760 0.29220 0.55780 -0.09100
C 	C 	0.33110 0.55230 0.77060 0.36000
C 	C 	0.14820 0.53330 0.76630 -0.11000
C 	C 	0.05470 0.44750 0.72160 -0.09100
C 	C 	0.11460 0.34770 0.67200 0.04200
Co	Co	-0.00000 0.86067 -0.00000 0.91900
O 	O 	0.97120 0.00820 0.88880 -0.25900
O 	O 	0.83270 0.12090 0.65350 -0.30300
O 	O 	0.77790 0.82310 0.74190 -0.33000
O 	O 	0.48760 0.79220 0.55780 -0.43100
C 	C 	0.83110 0.05230 0.77060 0.32900
C 	C 	0.64820 0.03330 0.76630 -0.03700
C 	C 	0.55470 0.94750 0.72160 -0.09200
C 	C 	0.61460 0.84770 0.67200 0.36000
