data_crystal

_cell_length_a 35.74800
_cell_length_b 18.52000
_cell_length_c 24.41100
_cell_angle_alpha 90.00000
_cell_angle_beta  118.62000
_cell_angle_gamma 90.00000

_symmetry_space_group_name_	'P 1'
_symmetry_space_group_name_H-M	'P 1'

loop_
_symmetry_equiv_pos_as_xyz
  x,y,z

loop_
_atom_site_label
_atom_site_type_symbol
_atom_site_fract_x
_atom_site_fract_y
_atom_site_fract_z
_atom_site_charge
Cd	Cd	0.20979 0.62229 0.81003 1.24400
Cd	Cd	0.31561 0.64121 0.81947 1.21000
Cd	Cd	0.32241 0.56859 0.95527 1.19100
O 	O 	0.87623 0.93110 0.42950 -0.52000
O 	O 	0.28153 0.60070 0.99654 -0.44800
O 	O 	0.22772 0.56690 0.90587 -0.43000
O 	O 	0.21801 0.05073 0.65606 -0.59700
O 	O 	0.28073 0.00910 0.72442 -0.39500
O 	O 	0.25802 0.78060 0.12578 -0.42200
O 	O 	0.19175 0.81880 0.09439 -0.53800
O 	O 	0.88413 0.83980 0.37760 -0.44700
O 	O 	0.29499 0.74960 0.77550 -0.41400
O 	O 	0.23936 0.68070 0.75182 -0.47700
O 	O 	0.85870 0.60810 0.70090 -0.29000
C 	C 	0.17763 0.92450 0.66210 -0.01700
H 	H 	0.16070 0.96420 0.64170 0.01000
C 	C 	0.89790 0.88420 0.42380 0.42600
C 	C 	0.98781 0.68610 0.86990 -0.27600
H 	H 	0.00020 0.72170 0.90020 0.13100
C 	C 	0.94343 0.68160 0.83600 0.19100
H 	H 	0.92720 0.71370 0.84520 -0.01800
C 	C 	0.99320 0.59160 0.81540 -0.25300
H 	H 	0.00990 0.56000 0.80670 0.12200
C 	C 	0.22215 0.93060 0.69270 -0.13600
C 	C 	0.24650 0.87060 0.72160 0.04400
H 	H 	0.27610 0.87420 0.74190 0.04700
C 	C 	0.11249 0.85550 0.62890 0.04400
C 	C 	0.07523 0.85890 0.59760 -0.12400
C 	C 	0.03015 0.86390 0.55550 0.24300
C 	C 	0.01020 0.81270 0.51100 -0.29100
H 	H 	0.02540 0.77340 0.50840 0.13300
C 	C 	0.00710 0.91610 0.55770 -0.31400
H 	H 	0.01990 0.95090 0.58860 0.13800
C 	C 	0.21906 0.77710 0.09180 0.38200
C 	C 	0.24207 0.00080 0.69170 0.35800
C 	C 	0.24234 0.59760 0.95750 0.34900
C 	C 	0.21228 0.63530 0.97520 -0.09600
C 	C 	0.22886 0.68260 0.02570 0.03900
H 	H 	0.25820 0.68880 0.04920 0.04200
C 	C 	0.20185 0.72070 0.04120 -0.11100
C 	C 	0.15773 0.71030 0.00620 -0.01200
H 	H 	0.13940 0.73640 0.01580 0.03400
C 	C 	0.16867 0.62450 0.94110 -0.01900
H 	H 	0.15770 0.59290 0.90740 0.06400
C 	C 	0.14131 0.66100 0.95720 -0.01300
C 	C 	0.09570 0.65170 0.92200 0.03900
C 	C 	0.05833 0.64710 0.89460 -0.10500
C 	C 	0.01235 0.64200 0.86030 0.21600
C 	C 	0.94860 0.58590 0.78140 0.17500
H 	H 	0.93620 0.54930 0.75200 -0.01500
C 	C 	0.96330 0.92280 0.51570 0.22400
H 	H 	0.94800 0.96070 0.52030 -0.05600
C 	C 	0.92358 0.63280 0.79100 -0.24400
C 	C 	0.87605 0.62830 0.75410 0.47200
C 	C 	0.94407 0.87690 0.47060 -0.28200
C 	C 	0.96690 0.81920 0.46930 0.19900
H 	H 	0.95330 0.78300 0.43990 -0.02500
C 	C 	0.25536 0.74030 0.75080 0.34600
C 	C 	0.22750 0.80460 0.72080 -0.09900
C 	C 	0.18354 0.79850 0.69110 -0.01800
H 	H 	0.17080 0.75450 0.69040 0.06300
C 	C 	0.15880 0.85860 0.66230 -0.02200
O 	O 	0.85390 0.67560 0.75390 -0.31300
O 	O 	0.86060 0.56950 0.71920 -0.15200
O 	O 	0.85410 0.65180 0.78240 -0.15500
Cd	Cd	0.70979 0.12229 0.81003 1.24300
Cd	Cd	0.81561 0.14121 0.81947 1.20900
Cd	Cd	0.82241 0.06859 0.95527 1.19000
O 	O 	0.37623 0.43110 0.42950 -0.52100
O 	O 	0.78153 0.10070 0.99654 -0.44900
O 	O 	0.72772 0.06690 0.90587 -0.43100
O 	O 	0.71801 0.55073 0.65606 -0.59800
O 	O 	0.78073 0.50910 0.72442 -0.39600
O 	O 	0.75802 0.28060 0.12578 -0.42300
O 	O 	0.69175 0.31880 0.09439 -0.53900
O 	O 	0.38413 0.33980 0.37760 -0.44800
O 	O 	0.79499 0.24960 0.77550 -0.41500
O 	O 	0.73936 0.18070 0.75182 -0.47800
O 	O 	0.35870 0.10810 0.70090 -0.29200
C 	C 	0.67763 0.42450 0.66210 -0.01800
H 	H 	0.66070 0.46420 0.64170 0.00900
C 	C 	0.39790 0.38420 0.42380 0.42500
C 	C 	0.48781 0.18610 0.86990 -0.28200
H 	H 	0.50020 0.22170 0.90020 0.13200
C 	C 	0.44343 0.18160 0.83600 0.19500
H 	H 	0.42720 0.21370 0.84520 -0.02000
C 	C 	0.49320 0.09160 0.81540 -0.25900
H 	H 	0.50990 0.06000 0.80670 0.12300
C 	C 	0.72215 0.43060 0.69270 -0.13700
C 	C 	0.74650 0.37060 0.72160 0.04300
H 	H 	0.77610 0.37420 0.74190 0.04500
C 	C 	0.61249 0.35550 0.62890 0.04300
C 	C 	0.57523 0.35890 0.59760 -0.12500
C 	C 	0.53015 0.36390 0.55550 0.24200
C 	C 	0.51020 0.31270 0.51100 -0.29200
H 	H 	0.52540 0.27340 0.50840 0.13200
C 	C 	0.50710 0.41610 0.55770 -0.31500
H 	H 	0.51990 0.45090 0.58860 0.13700
C 	C 	0.71906 0.27710 0.09180 0.38100
C 	C 	0.74207 0.50080 0.69170 0.35800
C 	C 	0.74234 0.09760 0.95750 0.34900
C 	C 	0.71228 0.13530 0.97520 -0.09600
C 	C 	0.72886 0.18260 0.02570 0.03900
H 	H 	0.75820 0.18880 0.04920 0.04200
C 	C 	0.70185 0.22070 0.04120 -0.11100
C 	C 	0.65773 0.21030 0.00620 -0.01200
H 	H 	0.63940 0.23640 0.01580 0.03400
C 	C 	0.66867 0.12450 0.94110 -0.01900
H 	H 	0.65770 0.09290 0.90740 0.06300
C 	C 	0.64131 0.16100 0.95720 -0.01400
C 	C 	0.59570 0.15170 0.92200 0.04000
C 	C 	0.55833 0.14710 0.89460 -0.10700
C 	C 	0.51235 0.14200 0.86030 0.22100
C 	C 	0.44860 0.08590 0.78140 0.17900
H 	H 	0.43620 0.04930 0.75200 -0.01600
C 	C 	0.46330 0.42280 0.51570 0.22400
H 	H 	0.44800 0.46070 0.52030 -0.05600
C 	C 	0.42358 0.13280 0.79100 -0.24700
C 	C 	0.37605 0.12830 0.75410 0.47400
C 	C 	0.44407 0.37690 0.47060 -0.28200
C 	C 	0.46690 0.31920 0.46930 0.19900
H 	H 	0.45330 0.28300 0.43990 -0.02500
C 	C 	0.75536 0.24030 0.75080 0.34600
C 	C 	0.72750 0.30460 0.72080 -0.09900
C 	C 	0.68354 0.29850 0.69110 -0.01800
H 	H 	0.67080 0.25450 0.69040 0.06200
C 	C 	0.65880 0.35860 0.66230 -0.02300
O 	O 	0.35390 0.17560 0.75390 -0.31400
O 	O 	0.36060 0.06950 0.71920 -0.15200
O 	O 	0.35410 0.15180 0.78240 -0.15500
Cd	Cd	0.79021 0.62229 0.68997 1.24300
Cd	Cd	0.68439 0.64121 0.68053 1.20900
Cd	Cd	0.67759 0.56859 0.54473 1.19000
O 	O 	0.12377 0.93110 0.07050 -0.52000
O 	O 	0.71847 0.60070 0.50346 -0.44900
O 	O 	0.77228 0.56690 0.59413 -0.43100
O 	O 	0.78199 0.05073 0.84394 -0.59800
O 	O 	0.71927 0.00910 0.77558 -0.39600
O 	O 	0.74198 0.78060 0.37422 -0.42300
O 	O 	0.80825 0.81880 0.40561 -0.53900
O 	O 	0.11587 0.83980 0.12240 -0.44800
O 	O 	0.70501 0.74960 0.72450 -0.41500
O 	O 	0.76064 0.68070 0.74818 -0.47800
O 	O 	0.14130 0.60810 0.79910 -0.29200
C 	C 	0.82237 0.92450 0.83790 -0.01800
H 	H 	0.83930 0.96420 0.85830 0.01000
C 	C 	0.10210 0.88420 0.07620 0.42400
C 	C 	0.01219 0.68610 0.63010 -0.28500
H 	H 	0.99980 0.72170 0.59980 0.13300
C 	C 	0.05657 0.68160 0.66400 0.19600
H 	H 	0.07280 0.71370 0.65480 -0.02100
C 	C 	0.00680 0.59160 0.68460 -0.26100
H 	H 	0.99010 0.56000 0.69330 0.12400
C 	C 	0.77785 0.93060 0.80730 -0.13600
C 	C 	0.75350 0.87060 0.77840 0.04300
H 	H 	0.72390 0.87420 0.75810 0.04600
C 	C 	0.88751 0.85550 0.87110 0.04200
C 	C 	0.92477 0.85890 0.90240 -0.12400
C 	C 	0.96985 0.86390 0.94450 0.24000
C 	C 	0.98980 0.81270 0.98900 -0.28900
H 	H 	0.97460 0.77340 0.99160 0.13200
C 	C 	0.99290 0.91610 0.94230 -0.31200
H 	H 	0.98010 0.95090 0.91140 0.13600
C 	C 	0.78094 0.77710 0.40820 0.38100
C 	C 	0.75793 0.00080 0.80830 0.35700
C 	C 	0.75766 0.59760 0.54250 0.34900
C 	C 	0.78772 0.63530 0.52480 -0.09600
C 	C 	0.77114 0.68260 0.47430 0.03800
H 	H 	0.74180 0.68880 0.45080 0.04200
C 	C 	0.79815 0.72070 0.45880 -0.11100
C 	C 	0.84227 0.71030 0.49380 -0.01200
H 	H 	0.86060 0.73640 0.48420 0.03400
C 	C 	0.83133 0.62450 0.55890 -0.01900
H 	H 	0.84230 0.59290 0.59260 0.06300
C 	C 	0.85869 0.66100 0.54280 -0.01400
C 	C 	0.90430 0.65170 0.57800 0.04100
C 	C 	0.94167 0.64710 0.60540 -0.10800
C 	C 	0.98765 0.64200 0.63970 0.22300
C 	C 	0.05140 0.58590 0.71860 0.18100
H 	H 	0.06380 0.54930 0.74800 -0.01700
C 	C 	0.03670 0.92280 0.98430 0.22000
H 	H 	0.05200 0.96070 0.97970 -0.05500
C 	C 	0.07642 0.63280 0.70900 -0.24900
C 	C 	0.12395 0.62830 0.74590 0.47400
C 	C 	0.05593 0.87690 0.02940 -0.27900
C 	C 	0.03310 0.81920 0.03070 0.19600
H 	H 	0.04670 0.78300 0.06010 -0.02400
C 	C 	0.74464 0.74030 0.74920 0.34600
C 	C 	0.77250 0.80460 0.77920 -0.09900
C 	C 	0.81646 0.79850 0.80890 -0.01800
H 	H 	0.82920 0.75450 0.80960 0.06300
C 	C 	0.84120 0.85860 0.83770 -0.02200
O 	O 	0.14610 0.67560 0.74610 -0.31400
O 	O 	0.13940 0.56950 0.78080 -0.15200
O 	O 	0.14590 0.65180 0.71760 -0.15500
Cd	Cd	0.29021 0.12229 0.68997 1.24300
Cd	Cd	0.18439 0.14121 0.68053 1.20900
Cd	Cd	0.17759 0.06859 0.54473 1.19000
O 	O 	0.62377 0.43110 0.07050 -0.52100
O 	O 	0.21847 0.10070 0.50346 -0.44900
O 	O 	0.27228 0.06690 0.59413 -0.43100
O 	O 	0.28199 0.55073 0.84394 -0.59800
O 	O 	0.21927 0.50910 0.77558 -0.39600
O 	O 	0.24198 0.28060 0.37422 -0.42300
O 	O 	0.30825 0.31880 0.40561 -0.53900
O 	O 	0.61587 0.33980 0.12240 -0.44800
O 	O 	0.20501 0.24960 0.72450 -0.41500
O 	O 	0.26064 0.18070 0.74818 -0.47800
O 	O 	0.64130 0.10810 0.79910 -0.29200
C 	C 	0.32237 0.42450 0.83790 -0.01800
H 	H 	0.33930 0.46420 0.85830 0.00900
C 	C 	0.60210 0.38420 0.07620 0.42500
C 	C 	0.51219 0.18610 0.63010 -0.28200
H 	H 	0.49980 0.22170 0.59980 0.13200
C 	C 	0.55657 0.18160 0.66400 0.19500
H 	H 	0.57280 0.21370 0.65480 -0.02000
C 	C 	0.50680 0.09160 0.68460 -0.25900
H 	H 	0.49010 0.06000 0.69330 0.12300
C 	C 	0.27785 0.43060 0.80730 -0.13700
C 	C 	0.25350 0.37060 0.77840 0.04300
H 	H 	0.22390 0.37420 0.75810 0.04500
C 	C 	0.38751 0.35550 0.87110 0.04300
C 	C 	0.42477 0.35890 0.90240 -0.12500
C 	C 	0.46985 0.36390 0.94450 0.24300
C 	C 	0.48980 0.31270 0.98900 -0.29300
H 	H 	0.47460 0.27340 0.99160 0.13200
C 	C 	0.49290 0.41610 0.94230 -0.31600
H 	H 	0.48010 0.45090 0.91140 0.13700
C 	C 	0.28094 0.27710 0.40820 0.38000
C 	C 	0.25793 0.50080 0.80830 0.35800
C 	C 	0.25766 0.09760 0.54250 0.34900
C 	C 	0.28772 0.13530 0.52480 -0.09600
C 	C 	0.27114 0.18260 0.47430 0.03800
H 	H 	0.24180 0.18880 0.45080 0.04200
C 	C 	0.29815 0.22070 0.45880 -0.11100
C 	C 	0.34227 0.21030 0.49380 -0.01200
H 	H 	0.36060 0.23640 0.48420 0.03400
C 	C 	0.33133 0.12450 0.55890 -0.01900
H 	H 	0.34230 0.09290 0.59260 0.06400
C 	C 	0.35869 0.16100 0.54280 -0.01400
C 	C 	0.40430 0.15170 0.57800 0.04000
C 	C 	0.44167 0.14710 0.60540 -0.10700
C 	C 	0.48765 0.14200 0.63970 0.22100
C 	C 	0.55140 0.08590 0.71860 0.17900
H 	H 	0.56380 0.04930 0.74800 -0.01600
C 	C 	0.53670 0.42280 0.98430 0.22400
H 	H 	0.55200 0.46070 0.97970 -0.05600
C 	C 	0.57642 0.13280 0.70900 -0.24700
C 	C 	0.62395 0.12830 0.74590 0.47400
C 	C 	0.55593 0.37690 0.02940 -0.28200
C 	C 	0.53310 0.31920 0.03070 0.19900
H 	H 	0.54670 0.28300 0.06010 -0.02500
C 	C 	0.24464 0.24030 0.74920 0.34600
C 	C 	0.27250 0.30460 0.77920 -0.09900
C 	C 	0.31646 0.29850 0.80890 -0.01800
H 	H 	0.32920 0.25450 0.80960 0.06200
C 	C 	0.34120 0.35860 0.83770 -0.02300
O 	O 	0.64610 0.17560 0.74610 -0.31400
O 	O 	0.63940 0.06950 0.78080 -0.15200
O 	O 	0.64590 0.15180 0.71760 -0.15500
Cd	Cd	0.79021 0.37771 0.18997 1.24300
Cd	Cd	0.68439 0.35879 0.18053 1.20900
Cd	Cd	0.67759 0.43141 0.04473 1.19000
O 	O 	0.12377 0.06890 0.57050 -0.52100
O 	O 	0.71847 0.39930 0.00346 -0.44900
O 	O 	0.77228 0.43310 0.09413 -0.43100
O 	O 	0.78199 0.94927 0.34394 -0.59800
O 	O 	0.71927 0.99090 0.27558 -0.39600
O 	O 	0.74198 0.21940 0.87422 -0.42300
O 	O 	0.80825 0.18120 0.90561 -0.53900
O 	O 	0.11587 0.16020 0.62240 -0.44800
O 	O 	0.70501 0.25040 0.22450 -0.41500
O 	O 	0.76064 0.31930 0.24818 -0.47800
O 	O 	0.14130 0.39190 0.29910 -0.29100
C 	C 	0.82237 0.07550 0.33790 -0.01800
H 	H 	0.83930 0.03580 0.35830 0.00900
C 	C 	0.10210 0.11580 0.57620 0.42500
C 	C 	0.01219 0.31390 0.13010 -0.27700
H 	H 	0.99980 0.27830 0.09980 0.13000
C 	C 	0.05657 0.31840 0.16400 0.19000
H 	H 	0.07280 0.28630 0.15480 -0.01900
C 	C 	0.00680 0.40840 0.18460 -0.25400
H 	H 	0.99010 0.44000 0.19330 0.12100
C 	C 	0.77785 0.06940 0.30730 -0.13700
C 	C 	0.75350 0.12940 0.27840 0.04300
H 	H 	0.72390 0.12580 0.25810 0.04600
C 	C 	0.88751 0.14450 0.37110 0.04300
C 	C 	0.92477 0.14110 0.40240 -0.12500
C 	C 	0.96985 0.13610 0.44450 0.24200
C 	C 	0.98980 0.18730 0.48900 -0.29200
H 	H 	0.97460 0.22660 0.49160 0.13200
C 	C 	0.99290 0.08390 0.44230 -0.31500
H 	H 	0.98010 0.04910 0.41140 0.13700
C 	C 	0.78094 0.22290 0.90820 0.38100
C 	C 	0.75793 0.99920 0.30830 0.35800
C 	C 	0.75766 0.40240 0.04250 0.34900
C 	C 	0.78772 0.36470 0.02480 -0.09600
C 	C 	0.77114 0.31740 0.97430 0.03900
H 	H 	0.74180 0.31120 0.95080 0.04200
C 	C 	0.79815 0.27930 0.95880 -0.11100
C 	C 	0.84227 0.28970 0.99380 -0.01200
H 	H 	0.86060 0.26360 0.98420 0.03400
C 	C 	0.83133 0.37550 0.05890 -0.01900
H 	H 	0.84230 0.40710 0.09260 0.06400
C 	C 	0.85869 0.33900 0.04280 -0.01300
C 	C 	0.90430 0.34830 0.07800 0.03900
C 	C 	0.94167 0.35290 0.10540 -0.10500
C 	C 	0.98765 0.35800 0.13970 0.21600
C 	C 	0.05140 0.41410 0.21860 0.17500
H 	H 	0.06380 0.45070 0.24800 -0.01500
C 	C 	0.03670 0.07720 0.48430 0.22400
H 	H 	0.05200 0.03930 0.47970 -0.05600
C 	C 	0.07642 0.36720 0.20900 -0.24400
C 	C 	0.12395 0.37170 0.24590 0.47200
C 	C 	0.05593 0.12310 0.52940 -0.28200
C 	C 	0.03310 0.18080 0.53070 0.19900
H 	H 	0.04670 0.21700 0.56010 -0.02500
C 	C 	0.74464 0.25970 0.24920 0.34600
C 	C 	0.77250 0.19540 0.27920 -0.09900
C 	C 	0.81646 0.20150 0.30890 -0.01800
H 	H 	0.82920 0.24550 0.30960 0.06300
C 	C 	0.84120 0.14140 0.33770 -0.02200
O 	O 	0.14610 0.32440 0.24610 -0.31300
O 	O 	0.13940 0.43050 0.28080 -0.15200
O 	O 	0.14590 0.34820 0.21760 -0.15500
Cd	Cd	0.29021 0.87771 0.18997 1.24300
Cd	Cd	0.18439 0.85879 0.18053 1.20900
Cd	Cd	0.17759 0.93141 0.04473 1.19000
O 	O 	0.62377 0.56890 0.57050 -0.52100
O 	O 	0.21847 0.89930 0.00346 -0.44900
O 	O 	0.27228 0.93310 0.09413 -0.43100
O 	O 	0.28199 0.44927 0.34394 -0.59800
O 	O 	0.21927 0.49090 0.27558 -0.39600
O 	O 	0.24198 0.71940 0.87422 -0.42300
O 	O 	0.30825 0.68120 0.90561 -0.53900
O 	O 	0.61587 0.66020 0.62240 -0.44800
O 	O 	0.20501 0.75040 0.22450 -0.41500
O 	O 	0.26064 0.81930 0.24818 -0.47800
O 	O 	0.64130 0.89190 0.29910 -0.29200
C 	C 	0.32237 0.57550 0.33790 -0.01800
H 	H 	0.33930 0.53580 0.35830 0.00900
C 	C 	0.60210 0.61580 0.57620 0.42500
C 	C 	0.51219 0.81390 0.13010 -0.28200
H 	H 	0.49980 0.77830 0.09980 0.13200
C 	C 	0.55657 0.81840 0.16400 0.19500
H 	H 	0.57280 0.78630 0.15480 -0.02000
C 	C 	0.50680 0.90840 0.18460 -0.25900
H 	H 	0.49010 0.94000 0.19330 0.12300
C 	C 	0.27785 0.56940 0.30730 -0.13700
C 	C 	0.25350 0.62940 0.27840 0.04300
H 	H 	0.22390 0.62580 0.25810 0.04500
C 	C 	0.38751 0.64450 0.37110 0.04300
C 	C 	0.42477 0.64110 0.40240 -0.12500
C 	C 	0.46985 0.63610 0.44450 0.24200
C 	C 	0.48980 0.68730 0.48900 -0.29200
H 	H 	0.47460 0.72660 0.49160 0.13200
C 	C 	0.49290 0.58390 0.44230 -0.31500
H 	H 	0.48010 0.54910 0.41140 0.13700
C 	C 	0.28094 0.72290 0.90820 0.38100
C 	C 	0.25793 0.49920 0.30830 0.35800
C 	C 	0.25766 0.90240 0.04250 0.34900
C 	C 	0.28772 0.86470 0.02480 -0.09600
C 	C 	0.27114 0.81740 0.97430 0.03900
H 	H 	0.24180 0.81120 0.95080 0.04200
C 	C 	0.29815 0.77930 0.95880 -0.11100
C 	C 	0.34227 0.78970 0.99380 -0.01200
H 	H 	0.36060 0.76360 0.98420 0.03400
C 	C 	0.33133 0.87550 0.05890 -0.01900
H 	H 	0.34230 0.90710 0.09260 0.06300
C 	C 	0.35869 0.83900 0.04280 -0.01400
C 	C 	0.40430 0.84830 0.07800 0.04000
C 	C 	0.44167 0.85290 0.10540 -0.10700
C 	C 	0.48765 0.85800 0.13970 0.22100
C 	C 	0.55140 0.91410 0.21860 0.17900
H 	H 	0.56380 0.95070 0.24800 -0.01600
C 	C 	0.53670 0.57720 0.48430 0.22400
H 	H 	0.55200 0.53930 0.47970 -0.05600
C 	C 	0.57642 0.86720 0.20900 -0.24700
C 	C 	0.62395 0.87170 0.24590 0.47400
C 	C 	0.55593 0.62310 0.52940 -0.28200
C 	C 	0.53310 0.68080 0.53070 0.19900
H 	H 	0.54670 0.71700 0.56010 -0.02500
C 	C 	0.24464 0.75970 0.24920 0.34600
C 	C 	0.27250 0.69540 0.27920 -0.09900
C 	C 	0.31646 0.70150 0.30890 -0.01800
H 	H 	0.32920 0.74550 0.30960 0.06200
C 	C 	0.34120 0.64140 0.33770 -0.02300
O 	O 	0.64610 0.82440 0.24610 -0.31400
O 	O 	0.63940 0.93050 0.28080 -0.15200
O 	O 	0.64590 0.84820 0.21760 -0.15500
Cd	Cd	0.20979 0.37771 0.31003 1.24300
Cd	Cd	0.31561 0.35879 0.31947 1.20900
Cd	Cd	0.32241 0.43141 0.45527 1.19000
O 	O 	0.87623 0.06890 0.92950 -0.52000
O 	O 	0.28153 0.39930 0.49654 -0.44900
O 	O 	0.22772 0.43310 0.40587 -0.43100
O 	O 	0.21801 0.94927 0.15606 -0.59800
O 	O 	0.28073 0.99090 0.22442 -0.39600
O 	O 	0.25802 0.21940 0.62578 -0.42300
O 	O 	0.19175 0.18120 0.59439 -0.53900
O 	O 	0.88413 0.16020 0.87760 -0.44800
O 	O 	0.29499 0.25040 0.27550 -0.41500
O 	O 	0.23936 0.31930 0.25182 -0.47800
O 	O 	0.85870 0.39190 0.20090 -0.29200
C 	C 	0.17763 0.07550 0.16210 -0.01800
H 	H 	0.16070 0.03580 0.14170 0.01000
C 	C 	0.89790 0.11580 0.92380 0.42400
C 	C 	0.98781 0.31390 0.36990 -0.28500
H 	H 	0.00020 0.27830 0.40020 0.13300
C 	C 	0.94343 0.31840 0.33600 0.19600
H 	H 	0.92720 0.28630 0.34520 -0.02100
C 	C 	0.99320 0.40840 0.31540 -0.26100
H 	H 	0.00990 0.44000 0.30670 0.12400
C 	C 	0.22215 0.06940 0.19270 -0.13600
C 	C 	0.24650 0.12940 0.22160 0.04300
H 	H 	0.27610 0.12580 0.24190 0.04600
C 	C 	0.11249 0.14450 0.12890 0.04200
C 	C 	0.07523 0.14110 0.09760 -0.12400
C 	C 	0.03015 0.13610 0.05550 0.24000
C 	C 	0.01020 0.18730 0.01100 -0.28900
H 	H 	0.02540 0.22660 0.00840 0.13200
C 	C 	0.00710 0.08390 0.05770 -0.31200
H 	H 	0.01990 0.04910 0.08860 0.13600
C 	C 	0.21906 0.22290 0.59180 0.38100
C 	C 	0.24207 0.99920 0.19170 0.35700
C 	C 	0.24234 0.40240 0.45750 0.34900
C 	C 	0.21228 0.36470 0.47520 -0.09600
C 	C 	0.22886 0.31740 0.52570 0.03800
H 	H 	0.25820 0.31120 0.54920 0.04200
C 	C 	0.20185 0.27930 0.54120 -0.11100
C 	C 	0.15773 0.28970 0.50620 -0.01200
H 	H 	0.13940 0.26360 0.51580 0.03400
C 	C 	0.16867 0.37550 0.44110 -0.01900
H 	H 	0.15770 0.40710 0.40740 0.06300
C 	C 	0.14131 0.33900 0.45720 -0.01400
C 	C 	0.09570 0.34830 0.42200 0.04100
C 	C 	0.05833 0.35290 0.39460 -0.10800
C 	C 	0.01235 0.35800 0.36030 0.22300
C 	C 	0.94860 0.41410 0.28140 0.18100
H 	H 	0.93620 0.45070 0.25200 -0.01700
C 	C 	0.96330 0.07720 0.01570 0.22000
H 	H 	0.94800 0.03930 0.02030 -0.05500
C 	C 	0.92358 0.36720 0.29100 -0.24900
C 	C 	0.87605 0.37170 0.25410 0.47400
C 	C 	0.94407 0.12310 0.97060 -0.27900
C 	C 	0.96690 0.18080 0.96930 0.19600
H 	H 	0.95330 0.21700 0.93990 -0.02400
C 	C 	0.25536 0.25970 0.25080 0.34600
C 	C 	0.22750 0.19540 0.22080 -0.09900
C 	C 	0.18354 0.20150 0.19110 -0.01800
H 	H 	0.17080 0.24550 0.19040 0.06300
C 	C 	0.15880 0.14140 0.16230 -0.02200
O 	O 	0.85390 0.32440 0.25390 -0.31400
O 	O 	0.86060 0.43050 0.21920 -0.15200
O 	O 	0.85410 0.34820 0.28240 -0.15500
Cd	Cd	0.70979 0.87771 0.31003 1.24300
Cd	Cd	0.81561 0.85879 0.31947 1.20900
Cd	Cd	0.82241 0.93141 0.45527 1.19000
O 	O 	0.37623 0.56890 0.92950 -0.52100
O 	O 	0.78153 0.89930 0.49654 -0.44900
O 	O 	0.72772 0.93310 0.40587 -0.43100
O 	O 	0.71801 0.44927 0.15606 -0.59800
O 	O 	0.78073 0.49090 0.22442 -0.39600
O 	O 	0.75802 0.71940 0.62578 -0.42300
O 	O 	0.69175 0.68120 0.59439 -0.53900
O 	O 	0.38413 0.66020 0.87760 -0.44800
O 	O 	0.79499 0.75040 0.27550 -0.41500
O 	O 	0.73936 0.81930 0.25182 -0.47800
O 	O 	0.35870 0.89190 0.20090 -0.29200
C 	C 	0.67763 0.57550 0.16210 -0.01800
H 	H 	0.66070 0.53580 0.14170 0.00900
C 	C 	0.39790 0.61580 0.92380 0.42500
C 	C 	0.48781 0.81390 0.36990 -0.28200
H 	H 	0.50020 0.77830 0.40020 0.13200
C 	C 	0.44343 0.81840 0.33600 0.19500
H 	H 	0.42720 0.78630 0.34520 -0.02000
C 	C 	0.49320 0.90840 0.31540 -0.25900
H 	H 	0.50990 0.94000 0.30670 0.12300
C 	C 	0.72215 0.56940 0.19270 -0.13700
C 	C 	0.74650 0.62940 0.22160 0.04300
H 	H 	0.77610 0.62580 0.24190 0.04500
C 	C 	0.61249 0.64450 0.12890 0.04300
C 	C 	0.57523 0.64110 0.09760 -0.12500
C 	C 	0.53015 0.63610 0.05550 0.24300
C 	C 	0.51020 0.68730 0.01100 -0.29300
H 	H 	0.52540 0.72660 0.00840 0.13200
C 	C 	0.50710 0.58390 0.05770 -0.31600
H 	H 	0.51990 0.54910 0.08860 0.13700
C 	C 	0.71906 0.72290 0.59180 0.38000
C 	C 	0.74207 0.49920 0.19170 0.35800
C 	C 	0.74234 0.90240 0.45750 0.34900
C 	C 	0.71228 0.86470 0.47520 -0.09600
C 	C 	0.72886 0.81740 0.52570 0.03800
H 	H 	0.75820 0.81120 0.54920 0.04200
C 	C 	0.70185 0.77930 0.54120 -0.11100
C 	C 	0.65773 0.78970 0.50620 -0.01200
H 	H 	0.63940 0.76360 0.51580 0.03400
C 	C 	0.66867 0.87550 0.44110 -0.01900
H 	H 	0.65770 0.90710 0.40740 0.06400
C 	C 	0.64131 0.83900 0.45720 -0.01400
C 	C 	0.59570 0.84830 0.42200 0.04000
C 	C 	0.55833 0.85290 0.39460 -0.10700
C 	C 	0.51235 0.85800 0.36030 0.22100
C 	C 	0.44860 0.91410 0.28140 0.17900
H 	H 	0.43620 0.95070 0.25200 -0.01600
C 	C 	0.46330 0.57720 0.01570 0.22400
H 	H 	0.44800 0.53930 0.02030 -0.05600
C 	C 	0.42358 0.86720 0.29100 -0.24700
C 	C 	0.37605 0.87170 0.25410 0.47400
C 	C 	0.44407 0.62310 0.97060 -0.28200
C 	C 	0.46690 0.68080 0.96930 0.19900
H 	H 	0.45330 0.71700 0.93990 -0.02500
C 	C 	0.75536 0.75970 0.25080 0.34600
C 	C 	0.72750 0.69540 0.22080 -0.09900
C 	C 	0.68354 0.70150 0.19110 -0.01800
H 	H 	0.67080 0.74550 0.19040 0.06200
C 	C 	0.65880 0.64140 0.16230 -0.02300
O 	O 	0.35390 0.82440 0.25390 -0.31400
O 	O 	0.36060 0.93050 0.21920 -0.15200
O 	O 	0.35410 0.84820 0.28240 -0.15500
