data_crystal

_cell_length_a 8.25300
_cell_length_b 11.25900
_cell_length_c 13.22140
_cell_angle_alpha 107.21000
_cell_angle_beta  108.18600
_cell_angle_gamma 90.00000

_symmetry_space_group_name_	'P 1'
_symmetry_space_group_name_H-M	'P 1'

loop_
_symmetry_equiv_pos_as_xyz
  x,y,z

loop_
_atom_site_label
_atom_site_type_symbol
_atom_site_fract_x
_atom_site_fract_y
_atom_site_fract_z
_atom_site_charge
Ni	Ni	0.23603 0.92994 0.37244 1.08600
Ni	Ni	0.86359 0.07006 0.62756 1.08400
H 	H 	0.73760 0.20820 0.07060 0.08500
H 	H 	0.66280 0.29310 0.22600 0.03200
H 	H 	0.71190 0.19810 0.36380 0.05000
H 	H 	0.22740 0.19320 0.52880 -0.00500
H 	H 	0.22030 0.39430 0.52720 0.08000
H 	H 	0.26880 0.28220 0.22080 0.08200
H 	H 	0.28070 0.08240 0.23220 0.00200
H 	H 	0.35750 0.68750 0.26540 -0.01300
H 	H 	0.37460 0.48220 0.27040 0.08100
H 	H 	0.08010 0.54900 0.46440 0.08800
H 	H 	0.07340 0.75030 0.45540 0.01600
H 	H 	0.66700 0.79180 0.92940 0.08900
H 	H 	0.43680 0.70690 0.77400 0.03400
H 	H 	0.34810 0.80190 0.63620 0.05300
H 	H 	0.69860 0.80680 0.47120 -0.01500
H 	H 	0.69310 0.60570 0.47280 0.08800
H 	H 	0.04800 0.71780 0.77920 0.11500
H 	H 	0.04850 0.91760 0.76780 0.01900
H 	H 	0.09210 0.31250 0.73460 0.04500
H 	H 	0.10420 0.51780 0.72960 0.03900
H 	H 	0.61570 0.45100 0.53560 0.06000
H 	H 	0.61800 0.24970 0.54460 0.02500
C 	C 	0.83597 0.06040 0.29654 -0.06600
C 	C 	0.87633 0.00100 0.19826 -0.08100
C 	C 	0.84250 0.05990 0.11460 0.05600
C 	C 	0.76100 0.16990 0.12640 -0.09800
C 	C 	0.71660 0.21990 0.21860 -0.00400
C 	C 	0.74930 0.16440 0.30280 -0.03600
C 	C 	0.88339 0.00780 0.39338 0.35100
C 	C 	0.94840 0.87500 0.17680 0.29000
C 	C 	0.23680 0.21180 0.46660 0.09100
C 	C 	0.23020 0.33210 0.46560 -0.13700
C 	C 	0.23801 0.36250 0.37242 0.05300
C 	C 	0.25970 0.26590 0.28400 -0.12500
C 	C 	0.26750 0.14630 0.29160 0.07400
C 	C 	0.30190 0.66020 0.30700 0.09500
C 	C 	0.31100 0.53500 0.30800 -0.14100
C 	C 	0.22170 0.49270 0.36700 0.07100
C 	C 	0.13760 0.57390 0.42260 -0.14200
C 	C 	0.13560 0.69590 0.41780 0.08600
C 	C 	0.53943 0.93960 0.70346 -0.06400
C 	C 	0.67807 0.99900 0.80174 -0.08700
C 	C 	0.72790 0.94010 0.88540 0.06500
C 	C 	0.63460 0.83010 0.87360 -0.10000
C 	C 	0.49800 0.78010 0.78140 0.00200
C 	C 	0.44650 0.83560 0.69720 -0.03400
C 	C 	0.49001 0.99220 0.60662 0.37400
C 	C 	0.77160 0.12500 0.82320 0.32500
C 	C 	0.77020 0.78820 0.53340 0.10200
C 	C 	0.76460 0.66790 0.53440 -0.17200
C 	C 	0.86559 0.63750 0.62758 0.09800
C 	C 	0.97570 0.73410 0.71600 -0.18400
C 	C 	0.97590 0.85370 0.70840 0.05900
C 	C 	0.99490 0.33980 0.69300 -0.03000
C 	C 	0.00300 0.46500 0.69200 -0.00900
C 	C 	0.85470 0.50730 0.63300 -0.02400
C 	C 	0.71500 0.42610 0.57740 -0.08000
C 	C 	0.71780 0.30410 0.58220 0.04400
S 	S 	0.91990 1.00000 1.00000 -0.02500
N 	N 	0.25662 0.11860 0.38144 -0.23100
N 	N 	0.22028 0.73840 0.36116 -0.22500
N 	N 	0.87518 0.88140 0.61856 -0.23800
N 	N 	0.85912 0.26160 0.63884 -0.19800
O 	O 	0.00779 0.94640 0.40838 -0.40200
O 	O 	0.79807 0.03770 0.45754 -0.42000
O 	O 	0.10659 0.87150 0.20178 -0.37100
O 	O 	0.83897 0.78270 0.13134 -0.24300
O 	O 	0.59941 0.05360 0.59162 -0.42300
O 	O 	0.34053 0.96230 0.54246 -0.42300
O 	O 	0.90481 0.12850 0.79822 -0.40000
O 	O 	0.70763 0.21730 0.86866 -0.24300
