data_crystal

_cell_length_a 11.67100
_cell_length_b 11.89160
_cell_length_c 14.30500
_cell_angle_alpha 110.63300
_cell_angle_beta  99.92000
_cell_angle_gamma 101.35100

_symmetry_space_group_name_	'P 1'
_symmetry_space_group_name_H-M	'P 1'

loop_
_symmetry_equiv_pos_as_xyz
  x,y,z

loop_
_atom_site_label
_atom_site_type_symbol
_atom_site_fract_x
_atom_site_fract_y
_atom_site_fract_z
_atom_site_charge
Er	Er	0.90152 0.02780 0.89531 1.89800
Er	Er	0.58430 0.91840 0.56925 1.98100
Er	Er	0.09848 0.97220 0.10469 1.89800
Er	Er	0.41570 0.08160 0.43075 1.98100
C 	C 	0.89490 0.75020 0.90150 0.58800
C 	C 	0.82980 0.61210 0.84530 -0.23000
C 	C 	0.71070 0.56670 0.84290 0.31600
C 	C 	0.64680 0.44300 0.78650 0.32000
C 	C 	0.70180 0.35850 0.72980 -0.22800
C 	C 	0.82180 0.40360 0.73380 0.31300
C 	C 	0.88480 0.52850 0.79010 0.31800
C 	C 	0.62810 0.22820 0.65690 0.57400
C 	C 	0.14380 0.03270 0.89110 0.50100
C 	C 	0.26610 0.02010 0.87970 -0.23200
C 	C 	0.29900 0.91170 0.86950 0.30800
C 	C 	0.41150 0.90020 0.85550 0.31700
C 	C 	0.49440 0.99580 0.85010 -0.26600
C 	C 	0.46220 0.10390 0.86010 0.31200
C 	C 	0.35090 0.11610 0.87460 0.31300
C 	C 	0.61440 0.98320 0.82790 0.64000
C 	C 	0.86880 0.93420 0.64100 0.58700
C 	C 	0.98590 0.92690 0.61250 -0.24000
C 	C 	0.01700 0.81640 0.58280 0.31400
C 	C 	0.13050 0.81070 0.57050 0.32100
C 	C 	0.22030 0.91820 0.58720 -0.23500
C 	C 	0.18770 0.02960 0.61600 0.30500
C 	C 	0.07350 0.03320 0.62620 0.30500
C 	C 	0.34330 0.91250 0.57700 0.50600
C 	C 	0.10510 0.24980 0.09850 0.58700
C 	C 	0.17020 0.38790 0.15470 -0.23100
C 	C 	0.28930 0.43330 0.15710 0.31500
C 	C 	0.35320 0.55700 0.21350 0.31900
C 	C 	0.29820 0.64150 0.27020 -0.22900
C 	C 	0.17820 0.59640 0.26620 0.31200
C 	C 	0.11520 0.47150 0.20990 0.31700
C 	C 	0.37190 0.77180 0.34310 0.57300
C 	C 	0.85620 0.96730 0.10890 0.50000
C 	C 	0.73390 0.97990 0.12030 -0.23300
C 	C 	0.70100 0.08830 0.13050 0.30800
C 	C 	0.58850 0.09980 0.14450 0.31700
C 	C 	0.50560 0.00420 0.14990 -0.26600
C 	C 	0.53780 0.89610 0.13990 0.31200
C 	C 	0.64910 0.88390 0.12540 0.31300
C 	C 	0.38560 0.01680 0.17210 0.64000
C 	C 	0.13120 0.06580 0.35900 0.58700
C 	C 	0.01410 0.07310 0.38750 -0.24000
C 	C 	0.98300 0.18360 0.41720 0.31400
C 	C 	0.86950 0.18930 0.42950 0.32100
C 	C 	0.77970 0.08180 0.41280 -0.23500
C 	C 	0.81230 0.97040 0.38400 0.30500
C 	C 	0.92650 0.96680 0.37380 0.30500
C 	C 	0.65670 0.08750 0.42300 0.50600
O 	O 	0.84910 0.81870 0.86650 -0.44000
O 	O 	0.98410 0.78230 0.97710 -0.44400
O 	O 	0.66540 0.13860 0.66700 -0.42600
O 	O 	0.53880 0.22220 0.59090 -0.44800
O 	O 	0.09180 0.08870 0.84680 -0.34700
O 	O 	0.09170 0.98150 0.94320 -0.54000
O 	O 	0.70200 0.00650 0.90290 -0.46600
O 	O 	0.61820 0.95360 0.73690 -0.54800
O 	O 	0.86230 0.91970 0.72180 -0.49500
O 	O 	0.78830 0.95090 0.58100 -0.45100
O 	O 	0.40620 0.99270 0.55140 -0.57200
O 	O 	0.38750 0.83350 0.59580 -0.36200
O 	O 	0.15090 0.18130 0.13350 -0.44000
O 	O 	0.01590 0.21770 0.02290 -0.44400
O 	O 	0.33460 0.86140 0.33300 -0.42600
O 	O 	0.46120 0.77780 0.40910 -0.44800
O 	O 	0.90820 0.91130 0.15320 -0.34700
O 	O 	0.90830 0.01850 0.05680 -0.54000
O 	O 	0.29800 0.99350 0.09710 -0.46600
O 	O 	0.38180 0.04640 0.26310 -0.54800
O 	O 	0.13770 0.08030 0.27820 -0.49500
O 	O 	0.21170 0.04910 0.41900 -0.45100
O 	O 	0.59380 0.00730 0.44860 -0.57200
O 	O 	0.61250 0.16650 0.40420 -0.36200
F 	F 	0.65300 0.64380 0.89540 -0.33100
F 	F 	0.53040 0.40480 0.78520 -0.30900
F 	F 	0.87690 0.32760 0.67750 -0.35000
F 	F 	0.99850 0.56850 0.78600 -0.32600
F 	F 	0.22110 0.81310 0.86910 -0.35400
F 	F 	0.43840 0.79300 0.84500 -0.34500
F 	F 	0.54020 0.19930 0.85470 -0.36100
F 	F 	0.32690 0.22400 0.88480 -0.31000
F 	F 	0.93520 0.71040 0.56660 -0.33600
F 	F 	0.15270 0.69960 0.54050 -0.32300
F 	F 	0.27010 0.13780 0.63970 -0.36400
F 	F 	0.04780 0.14310 0.65510 -0.35300
F 	F 	0.34700 0.35620 0.10460 -0.33100
F 	F 	0.46960 0.59520 0.21480 -0.30900
F 	F 	0.12310 0.67240 0.32250 -0.35000
F 	F 	0.00150 0.43150 0.21400 -0.32600
F 	F 	0.77890 0.18690 0.13090 -0.35400
F 	F 	0.56160 0.20700 0.15500 -0.34500
F 	F 	0.45980 0.80070 0.14530 -0.36100
F 	F 	0.67310 0.77600 0.11520 -0.31000
F 	F 	0.06480 0.28960 0.43340 -0.33600
F 	F 	0.84730 0.30040 0.45950 -0.32300
F 	F 	0.72990 0.86220 0.36030 -0.36400
F 	F 	0.95220 0.85690 0.34490 -0.35300
