data_crystal

_cell_length_a 10.39300
_cell_length_b 23.04600
_cell_length_c 28.52600
_cell_angle_alpha 90.00000
_cell_angle_beta  95.38100
_cell_angle_gamma 90.00000

_symmetry_space_group_name_	'P 1'
_symmetry_space_group_name_H-M	'P 1'

loop_
_symmetry_equiv_pos_as_xyz
  x,y,z

loop_
_atom_site_label
_atom_site_type_symbol
_atom_site_fract_x
_atom_site_fract_y
_atom_site_fract_z
_atom_site_charge
Cd	Cd	0.52161 0.20250 0.02223 1.24600
C 	C 	0.70860 0.21620 0.09380 0.80900
C 	C 	0.81740 0.23050 0.13110 -0.18400
C 	C 	0.80460 0.22010 0.17740 0.07000
H 	H 	0.73580 0.19750 0.18530 0.03900
C 	C 	0.93020 0.25530 0.11990 -0.01400
C 	C 	0.95620 0.27200 0.06860 0.56100
C 	C 	0.44670 0.06790 0.04800 0.07600
C 	C 	0.54860 0.05610 0.08390 -0.13600
H 	H 	0.60680 0.08520 0.09380 0.08500
C 	C 	0.56020 0.00540 0.10280 0.03400
H 	H 	0.62370 0.99930 0.12750 0.02400
C 	C 	0.48010 0.95920 0.08720 -0.06300
H 	H 	0.49270 0.92260 0.10040 0.07400
C 	C 	0.37560 0.96920 0.04970 -0.06100
H 	H 	0.31930 0.93990 0.03850 0.06700
C 	C 	0.36690 0.02480 0.03220 0.04700
C 	C 	0.30860 0.10100 0.99260 0.12100
C 	C 	0.23750 0.14320 0.95960 -0.06800
C 	C 	0.23040 0.13240 0.91160 0.02100
H 	H 	0.26570 0.09900 0.89980 0.03000
C 	C 	0.16840 0.17340 0.88190 -0.09700
H 	H 	0.16490 0.16880 0.84940 0.07900
C 	C 	0.11210 0.22080 0.90080 0.05700
H 	H 	0.07010 0.24790 0.88070 0.04500
C 	C 	0.17710 0.19020 0.97650 0.03400
H 	H 	0.17860 0.19510 0.00890 0.01800
C 	C 	0.16600 0.01130 0.97630 -0.05000
H 	H 	0.19180 0.97130 0.97260 0.05500
H 	H 	0.13490 0.02650 0.94560 0.05300
C 	C 	0.05850 0.01520 0.01050 -0.10600
H 	H 	0.08820 0.99760 0.04040 0.07100
H 	H 	0.03820 0.05560 0.01610 0.07500
N 	N 	0.41170 0.11690 0.02340 -0.23800
N 	N 	0.27960 0.04690 0.99750 -0.13000
N 	N 	0.11600 0.22930 0.94820 -0.20200
C 	C 	0.13010 0.24460 0.23540 0.12400
O 	O 	0.24650 0.23760 0.22510 -0.18500
O 	O 	0.70560 0.23750 0.05560 -0.39600
O 	O 	0.61760 0.18890 0.10360 -0.22900
C 	C 	0.89150 0.24220 0.21350 -0.06200
C 	C 	0.01200 0.25890 0.20110 0.04000
C 	C 	0.01720 0.27330 0.15460 -0.03400
H 	H 	0.08480 0.29680 0.14680 0.04200
O 	O 	0.90400 0.31550 0.05270 -0.27700
O 	O 	0.04620 0.24970 0.05060 -0.16100
O 	O 	0.74200 0.18350 0.05670 -0.28800
O 	O 	0.62100 0.22760 0.10140 -0.43600
C 	C 	0.91700 0.19560 0.20860 0.02900
C 	C 	0.02200 0.22200 0.20120 -0.04400
C 	C 	0.05400 0.25340 0.15460 -0.01300
H 	H 	0.13460 0.26810 0.14880 0.04100
O 	O 	0.00100 0.32000 0.06190 -0.26300
O 	O 	0.97670 0.23630 0.04530 -0.32900
Cd	Cd	0.02161 0.70250 0.02223 1.24600
C 	C 	0.20860 0.71620 0.09380 0.81000
C 	C 	0.31740 0.73050 0.13110 -0.18400
C 	C 	0.30460 0.72010 0.17740 0.07000
H 	H 	0.23580 0.69750 0.18530 0.03900
C 	C 	0.43020 0.75530 0.11990 -0.01400
C 	C 	0.45620 0.77200 0.06860 0.56000
C 	C 	0.94670 0.56790 0.04800 0.07700
C 	C 	0.04860 0.55610 0.08390 -0.13700
H 	H 	0.10680 0.58520 0.09380 0.08600
C 	C 	0.06020 0.50540 0.10280 0.03400
H 	H 	0.12370 0.49930 0.12750 0.02300
C 	C 	0.98010 0.45920 0.08720 -0.06200
H 	H 	0.99270 0.42260 0.10040 0.07400
C 	C 	0.87560 0.46920 0.04970 -0.06100
H 	H 	0.81930 0.43990 0.03850 0.06700
C 	C 	0.86690 0.52480 0.03220 0.04700
C 	C 	0.80860 0.60100 0.99260 0.12000
C 	C 	0.73750 0.64320 0.95960 -0.06700
C 	C 	0.73040 0.63240 0.91160 0.02000
H 	H 	0.76570 0.59900 0.89980 0.03000
C 	C 	0.66840 0.67340 0.88190 -0.09600
H 	H 	0.66490 0.66880 0.84940 0.07900
C 	C 	0.61210 0.72080 0.90080 0.05700
H 	H 	0.57010 0.74790 0.88070 0.04400
C 	C 	0.67710 0.69020 0.97650 0.03200
H 	H 	0.67860 0.69510 0.00890 0.02000
C 	C 	0.66600 0.51130 0.97630 -0.05100
H 	H 	0.69180 0.47130 0.97260 0.05500
H 	H 	0.63490 0.52650 0.94560 0.05400
C 	C 	0.55850 0.51520 0.01050 -0.10500
H 	H 	0.58820 0.49760 0.04040 0.07100
H 	H 	0.53820 0.55560 0.01610 0.07500
N 	N 	0.91170 0.61690 0.02340 -0.23700
N 	N 	0.77960 0.54690 0.99750 -0.13000
N 	N 	0.61600 0.72930 0.94820 -0.20200
C 	C 	0.63010 0.74460 0.23540 0.12400
O 	O 	0.74650 0.73760 0.22510 -0.18500
O 	O 	0.20560 0.73750 0.05560 -0.39600
O 	O 	0.11760 0.68890 0.10360 -0.22900
C 	C 	0.39150 0.74220 0.21350 -0.06200
C 	C 	0.51200 0.75890 0.20110 0.03900
C 	C 	0.51720 0.77330 0.15460 -0.03500
H 	H 	0.58480 0.79680 0.14680 0.04200
O 	O 	0.40400 0.81550 0.05270 -0.27700
O 	O 	0.54620 0.74970 0.05060 -0.16000
O 	O 	0.24200 0.68350 0.05670 -0.28800
O 	O 	0.12100 0.72760 0.10140 -0.43600
C 	C 	0.41700 0.69560 0.20860 0.02900
C 	C 	0.52200 0.72200 0.20120 -0.04400
C 	C 	0.55400 0.75340 0.15460 -0.01300
H 	H 	0.63460 0.76810 0.14880 0.04100
O 	O 	0.50100 0.82000 0.06190 -0.26300
O 	O 	0.47670 0.73630 0.04530 -0.33000
Cd	Cd	0.47839 0.20250 0.47777 1.24600
C 	C 	0.29140 0.21620 0.40620 0.80900
C 	C 	0.18260 0.23050 0.36890 -0.18400
C 	C 	0.19540 0.22010 0.32260 0.07000
H 	H 	0.26420 0.19750 0.31470 0.03900
C 	C 	0.06980 0.25530 0.38010 -0.01400
C 	C 	0.04380 0.27200 0.43140 0.56000
C 	C 	0.55330 0.06790 0.45200 0.07600
C 	C 	0.45140 0.05610 0.41610 -0.13600
H 	H 	0.39320 0.08520 0.40620 0.08500
C 	C 	0.43980 0.00540 0.39720 0.03500
H 	H 	0.37630 0.99930 0.37250 0.02300
C 	C 	0.51990 0.95920 0.41280 -0.06300
H 	H 	0.50730 0.92260 0.39960 0.07400
C 	C 	0.62440 0.96920 0.45030 -0.06100
H 	H 	0.68070 0.93990 0.46150 0.06700
C 	C 	0.63310 0.02480 0.46780 0.04700
C 	C 	0.69140 0.10100 0.50740 0.12000
C 	C 	0.76250 0.14320 0.54040 -0.06700
C 	C 	0.76960 0.13240 0.58840 0.02000
H 	H 	0.73430 0.09900 0.60020 0.03000
C 	C 	0.83160 0.17340 0.61810 -0.09600
H 	H 	0.83510 0.16880 0.65060 0.07900
C 	C 	0.88790 0.22080 0.59920 0.05700
H 	H 	0.92990 0.24790 0.61930 0.04400
C 	C 	0.82290 0.19020 0.52350 0.03300
H 	H 	0.82140 0.19510 0.49110 0.01900
C 	C 	0.83400 0.01130 0.52370 -0.05100
H 	H 	0.80820 0.97130 0.52740 0.05500
H 	H 	0.86510 0.02650 0.55440 0.05400
C 	C 	0.94150 0.01520 0.48950 -0.10500
H 	H 	0.91180 0.99760 0.45960 0.07100
H 	H 	0.96180 0.05560 0.48390 0.07500
N 	N 	0.58830 0.11690 0.47660 -0.23700
N 	N 	0.72040 0.04690 0.50250 -0.13000
N 	N 	0.88400 0.22930 0.55180 -0.20200
C 	C 	0.86990 0.24460 0.26460 0.12400
O 	O 	0.75350 0.23760 0.27490 -0.18500
O 	O 	0.29440 0.23750 0.44440 -0.39600
O 	O 	0.38240 0.18890 0.39640 -0.22900
C 	C 	0.10850 0.24220 0.28650 -0.06200
C 	C 	0.98800 0.25890 0.29890 0.04000
C 	C 	0.98280 0.27330 0.34540 -0.03500
H 	H 	0.91520 0.29680 0.35320 0.04200
O 	O 	0.09600 0.31550 0.44730 -0.27800
O 	O 	0.95380 0.24970 0.44940 -0.15900
O 	O 	0.25800 0.18350 0.44330 -0.28800
O 	O 	0.37900 0.22760 0.39860 -0.43600
C 	C 	0.08300 0.19560 0.29140 0.02900
C 	C 	0.97800 0.22200 0.29880 -0.04400
C 	C 	0.94600 0.25340 0.34540 -0.01200
H 	H 	0.86540 0.26810 0.35120 0.04000
O 	O 	0.99900 0.32000 0.43810 -0.26300
O 	O 	0.02330 0.23630 0.45470 -0.33100
Cd	Cd	0.97839 0.70250 0.47777 1.24600
C 	C 	0.79140 0.71620 0.40620 0.80900
C 	C 	0.68260 0.73050 0.36890 -0.18400
C 	C 	0.69540 0.72010 0.32260 0.07000
H 	H 	0.76420 0.69750 0.31470 0.03900
C 	C 	0.56980 0.75530 0.38010 -0.01400
C 	C 	0.54380 0.77200 0.43140 0.56000
C 	C 	0.05330 0.56790 0.45200 0.07600
C 	C 	0.95140 0.55610 0.41610 -0.13700
H 	H 	0.89320 0.58520 0.40620 0.08600
C 	C 	0.93980 0.50540 0.39720 0.03500
H 	H 	0.87630 0.49930 0.37250 0.02300
C 	C 	0.01990 0.45920 0.41280 -0.06300
H 	H 	0.00730 0.42260 0.39960 0.07400
C 	C 	0.12440 0.46920 0.45030 -0.06100
H 	H 	0.18070 0.43990 0.46150 0.06700
C 	C 	0.13310 0.52480 0.46780 0.04700
C 	C 	0.19140 0.60100 0.50740 0.12000
C 	C 	0.26250 0.64320 0.54040 -0.06700
C 	C 	0.26960 0.63240 0.58840 0.02000
H 	H 	0.23430 0.59900 0.60020 0.03000
C 	C 	0.33160 0.67340 0.61810 -0.09600
H 	H 	0.33510 0.66880 0.65060 0.07900
C 	C 	0.38790 0.72080 0.59920 0.05700
H 	H 	0.42990 0.74790 0.61930 0.04400
C 	C 	0.32290 0.69020 0.52350 0.03300
H 	H 	0.32140 0.69510 0.49110 0.01900
C 	C 	0.33400 0.51130 0.52370 -0.05100
H 	H 	0.30820 0.47130 0.52740 0.05500
H 	H 	0.36510 0.52650 0.55440 0.05400
C 	C 	0.44150 0.51520 0.48950 -0.10500
H 	H 	0.41180 0.49760 0.45960 0.07100
H 	H 	0.46180 0.55560 0.48390 0.07500
N 	N 	0.08830 0.61690 0.47660 -0.23700
N 	N 	0.22040 0.54690 0.50250 -0.13000
N 	N 	0.38400 0.72930 0.55180 -0.20200
C 	C 	0.36990 0.74460 0.26460 0.12400
O 	O 	0.25350 0.73760 0.27490 -0.18500
O 	O 	0.79440 0.73750 0.44440 -0.39600
O 	O 	0.88240 0.68890 0.39640 -0.22900
C 	C 	0.60850 0.74220 0.28650 -0.06200
C 	C 	0.48800 0.75890 0.29890 0.03900
C 	C 	0.48280 0.77330 0.34540 -0.03500
H 	H 	0.41520 0.79680 0.35320 0.04200
O 	O 	0.59600 0.81550 0.44730 -0.27700
O 	O 	0.45380 0.74970 0.44940 -0.16000
O 	O 	0.75800 0.68350 0.44330 -0.28800
O 	O 	0.87900 0.72760 0.39860 -0.43600
C 	C 	0.58300 0.69560 0.29140 0.02900
C 	C 	0.47800 0.72200 0.29880 -0.04400
C 	C 	0.44600 0.75340 0.34540 -0.01300
H 	H 	0.36540 0.76810 0.35120 0.04100
O 	O 	0.49900 0.82000 0.43810 -0.26300
O 	O 	0.52330 0.73630 0.45470 -0.33000
Cd	Cd	0.47839 0.79750 0.97777 1.24600
C 	C 	0.29140 0.78380 0.90620 0.80900
C 	C 	0.18260 0.76950 0.86890 -0.18400
C 	C 	0.19540 0.77990 0.82260 0.07000
H 	H 	0.26420 0.80250 0.81470 0.03900
C 	C 	0.06980 0.74470 0.88010 -0.01400
C 	C 	0.04380 0.72800 0.93140 0.56100
C 	C 	0.55330 0.93210 0.95200 0.07600
C 	C 	0.45140 0.94390 0.91610 -0.13600
H 	H 	0.39320 0.91480 0.90620 0.08500
C 	C 	0.43980 0.99460 0.89720 0.03400
H 	H 	0.37630 0.00070 0.87250 0.02400
C 	C 	0.51990 0.04080 0.91280 -0.06300
H 	H 	0.50730 0.07740 0.89960 0.07400
C 	C 	0.62440 0.03080 0.95030 -0.06100
H 	H 	0.68070 0.06010 0.96150 0.06700
C 	C 	0.63310 0.97520 0.96780 0.04700
C 	C 	0.69140 0.89900 0.00740 0.12100
C 	C 	0.76250 0.85680 0.04040 -0.06800
C 	C 	0.76960 0.86760 0.08840 0.02100
H 	H 	0.73430 0.90100 0.10020 0.03000
C 	C 	0.83160 0.82660 0.11810 -0.09700
H 	H 	0.83510 0.83120 0.15060 0.07900
C 	C 	0.88790 0.77920 0.09920 0.05700
H 	H 	0.92990 0.75210 0.11930 0.04500
C 	C 	0.82290 0.80980 0.02350 0.03400
H 	H 	0.82140 0.80490 0.99110 0.01800
C 	C 	0.83400 0.98870 0.02370 -0.05000
H 	H 	0.80820 0.02870 0.02740 0.05500
H 	H 	0.86510 0.97350 0.05440 0.05300
C 	C 	0.94150 0.98480 0.98950 -0.10600
H 	H 	0.91180 0.00240 0.95960 0.07100
H 	H 	0.96180 0.94440 0.98390 0.07500
N 	N 	0.58830 0.88310 0.97660 -0.23800
N 	N 	0.72040 0.95310 0.00250 -0.13000
N 	N 	0.88400 0.77070 0.05180 -0.20200
C 	C 	0.86990 0.75540 0.76460 0.12400
O 	O 	0.75350 0.76240 0.77490 -0.18500
O 	O 	0.29440 0.76250 0.94440 -0.39600
O 	O 	0.38240 0.81110 0.89640 -0.22900
C 	C 	0.10850 0.75780 0.78650 -0.06200
C 	C 	0.98800 0.74110 0.79890 0.04000
C 	C 	0.98280 0.72670 0.84540 -0.03400
H 	H 	0.91520 0.70320 0.85320 0.04200
O 	O 	0.09600 0.68450 0.94730 -0.27700
O 	O 	0.95380 0.75030 0.94940 -0.16100
O 	O 	0.25800 0.81650 0.94330 -0.28800
O 	O 	0.37900 0.77240 0.89860 -0.43600
C 	C 	0.08300 0.80440 0.79140 0.02900
C 	C 	0.97800 0.77800 0.79880 -0.04400
C 	C 	0.94600 0.74660 0.84540 -0.01300
H 	H 	0.86540 0.73190 0.85120 0.04100
O 	O 	0.99900 0.68000 0.93810 -0.26300
O 	O 	0.02330 0.76370 0.95470 -0.32900
Cd	Cd	0.97839 0.29750 0.97777 1.24600
C 	C 	0.79140 0.28380 0.90620 0.81000
C 	C 	0.68260 0.26950 0.86890 -0.18400
C 	C 	0.69540 0.27990 0.82260 0.07000
H 	H 	0.76420 0.30250 0.81470 0.03900
C 	C 	0.56980 0.24470 0.88010 -0.01400
C 	C 	0.54380 0.22800 0.93140 0.56000
C 	C 	0.05330 0.43210 0.95200 0.07700
C 	C 	0.95140 0.44390 0.91610 -0.13700
H 	H 	0.89320 0.41480 0.90620 0.08600
C 	C 	0.93980 0.49460 0.89720 0.03400
H 	H 	0.87630 0.50070 0.87250 0.02300
C 	C 	0.01990 0.54080 0.91280 -0.06200
H 	H 	0.00730 0.57740 0.89960 0.07400
C 	C 	0.12440 0.53080 0.95030 -0.06100
H 	H 	0.18070 0.56010 0.96150 0.06700
C 	C 	0.13310 0.47520 0.96780 0.04700
C 	C 	0.19140 0.39900 0.00740 0.12000
C 	C 	0.26250 0.35680 0.04040 -0.06700
C 	C 	0.26960 0.36760 0.08840 0.02000
H 	H 	0.23430 0.40100 0.10020 0.03000
C 	C 	0.33160 0.32660 0.11810 -0.09600
H 	H 	0.33510 0.33120 0.15060 0.07900
C 	C 	0.38790 0.27920 0.09920 0.05700
H 	H 	0.42990 0.25210 0.11930 0.04400
C 	C 	0.32290 0.30980 0.02350 0.03200
H 	H 	0.32140 0.30490 0.99110 0.02000
C 	C 	0.33400 0.48870 0.02370 -0.05100
H 	H 	0.30820 0.52870 0.02740 0.05500
H 	H 	0.36510 0.47350 0.05440 0.05400
C 	C 	0.44150 0.48480 0.98950 -0.10500
H 	H 	0.41180 0.50240 0.95960 0.07100
H 	H 	0.46180 0.44440 0.98390 0.07500
N 	N 	0.08830 0.38310 0.97660 -0.23700
N 	N 	0.22040 0.45310 0.00250 -0.13000
N 	N 	0.38400 0.27070 0.05180 -0.20200
C 	C 	0.36990 0.25540 0.76460 0.12400
O 	O 	0.25350 0.26240 0.77490 -0.18500
O 	O 	0.79440 0.26250 0.94440 -0.39600
O 	O 	0.88240 0.31110 0.89640 -0.22900
C 	C 	0.60850 0.25780 0.78650 -0.06200
C 	C 	0.48800 0.24110 0.79890 0.03900
C 	C 	0.48280 0.22670 0.84540 -0.03500
H 	H 	0.41520 0.20320 0.85320 0.04200
O 	O 	0.59600 0.18450 0.94730 -0.27700
O 	O 	0.45380 0.25030 0.94940 -0.16000
O 	O 	0.75800 0.31650 0.94330 -0.28800
O 	O 	0.87900 0.27240 0.89860 -0.43600
C 	C 	0.58300 0.30440 0.79140 0.02900
C 	C 	0.47800 0.27800 0.79880 -0.04400
C 	C 	0.44600 0.24660 0.84540 -0.01300
H 	H 	0.36540 0.23190 0.85120 0.04100
O 	O 	0.49900 0.18000 0.93810 -0.26300
O 	O 	0.52330 0.26370 0.95470 -0.33000
Cd	Cd	0.52161 0.79750 0.52223 1.24600
C 	C 	0.70860 0.78380 0.59380 0.80900
C 	C 	0.81740 0.76950 0.63110 -0.18400
C 	C 	0.80460 0.77990 0.67740 0.07000
H 	H 	0.73580 0.80250 0.68530 0.03900
C 	C 	0.93020 0.74470 0.61990 -0.01400
C 	C 	0.95620 0.72800 0.56860 0.56000
C 	C 	0.44670 0.93210 0.54800 0.07600
C 	C 	0.54860 0.94390 0.58390 -0.13600
H 	H 	0.60680 0.91480 0.59380 0.08500
C 	C 	0.56020 0.99460 0.60280 0.03500
H 	H 	0.62370 0.00070 0.62750 0.02300
C 	C 	0.48010 0.04080 0.58720 -0.06300
H 	H 	0.49270 0.07740 0.60040 0.07400
C 	C 	0.37560 0.03080 0.54970 -0.06100
H 	H 	0.31930 0.06010 0.53850 0.06700
C 	C 	0.36690 0.97520 0.53220 0.04700
C 	C 	0.30860 0.89900 0.49260 0.12000
C 	C 	0.23750 0.85680 0.45960 -0.06700
C 	C 	0.23040 0.86760 0.41160 0.02000
H 	H 	0.26570 0.90100 0.39980 0.03000
C 	C 	0.16840 0.82660 0.38190 -0.09600
H 	H 	0.16490 0.83120 0.34940 0.07900
C 	C 	0.11210 0.77920 0.40080 0.05700
H 	H 	0.07010 0.75210 0.38070 0.04400
C 	C 	0.17710 0.80980 0.47650 0.03300
H 	H 	0.17860 0.80490 0.50890 0.01900
C 	C 	0.16600 0.98870 0.47630 -0.05100
H 	H 	0.19180 0.02870 0.47260 0.05500
H 	H 	0.13490 0.97350 0.44560 0.05400
C 	C 	0.05850 0.98480 0.51050 -0.10500
H 	H 	0.08820 0.00240 0.54040 0.07100
H 	H 	0.03820 0.94440 0.51610 0.07500
N 	N 	0.41170 0.88310 0.52340 -0.23700
N 	N 	0.27960 0.95310 0.49750 -0.13000
N 	N 	0.11600 0.77070 0.44820 -0.20200
C 	C 	0.13010 0.75540 0.73540 0.12400
O 	O 	0.24650 0.76240 0.72510 -0.18500
O 	O 	0.70560 0.76250 0.55560 -0.39600
O 	O 	0.61760 0.81110 0.60360 -0.22900
C 	C 	0.89150 0.75780 0.71350 -0.06200
C 	C 	0.01200 0.74110 0.70110 0.04000
C 	C 	0.01720 0.72670 0.65460 -0.03500
H 	H 	0.08480 0.70320 0.64680 0.04200
O 	O 	0.90400 0.68450 0.55270 -0.27800
O 	O 	0.04620 0.75030 0.55060 -0.15900
O 	O 	0.74200 0.81650 0.55670 -0.28800
O 	O 	0.62100 0.77240 0.60140 -0.43600
C 	C 	0.91700 0.80440 0.70860 0.02900
C 	C 	0.02200 0.77800 0.70120 -0.04400
C 	C 	0.05400 0.74660 0.65460 -0.01200
H 	H 	0.13460 0.73190 0.64880 0.04000
O 	O 	0.00100 0.68000 0.56190 -0.26300
O 	O 	0.97670 0.76370 0.54530 -0.33100
Cd	Cd	0.02161 0.29750 0.52223 1.24600
C 	C 	0.20860 0.28380 0.59380 0.80900
C 	C 	0.31740 0.26950 0.63110 -0.18400
C 	C 	0.30460 0.27990 0.67740 0.07000
H 	H 	0.23580 0.30250 0.68530 0.03900
C 	C 	0.43020 0.24470 0.61990 -0.01400
C 	C 	0.45620 0.22800 0.56860 0.56000
C 	C 	0.94670 0.43210 0.54800 0.07600
C 	C 	0.04860 0.44390 0.58390 -0.13700
H 	H 	0.10680 0.41480 0.59380 0.08600
C 	C 	0.06020 0.49460 0.60280 0.03500
H 	H 	0.12370 0.50070 0.62750 0.02300
C 	C 	0.98010 0.54080 0.58720 -0.06300
H 	H 	0.99270 0.57740 0.60040 0.07400
C 	C 	0.87560 0.53080 0.54970 -0.06100
H 	H 	0.81930 0.56010 0.53850 0.06700
C 	C 	0.86690 0.47520 0.53220 0.04700
C 	C 	0.80860 0.39900 0.49260 0.12000
C 	C 	0.73750 0.35680 0.45960 -0.06700
C 	C 	0.73040 0.36760 0.41160 0.02000
H 	H 	0.76570 0.40100 0.39980 0.03000
C 	C 	0.66840 0.32660 0.38190 -0.09600
H 	H 	0.66490 0.33120 0.34940 0.07900
C 	C 	0.61210 0.27920 0.40080 0.05700
H 	H 	0.57010 0.25210 0.38070 0.04400
C 	C 	0.67710 0.30980 0.47650 0.03300
H 	H 	0.67860 0.30490 0.50890 0.01900
C 	C 	0.66600 0.48870 0.47630 -0.05100
H 	H 	0.69180 0.52870 0.47260 0.05500
H 	H 	0.63490 0.47350 0.44560 0.05400
C 	C 	0.55850 0.48480 0.51050 -0.10500
H 	H 	0.58820 0.50240 0.54040 0.07100
H 	H 	0.53820 0.44440 0.51610 0.07500
N 	N 	0.91170 0.38310 0.52340 -0.23700
N 	N 	0.77960 0.45310 0.49750 -0.13000
N 	N 	0.61600 0.27070 0.44820 -0.20200
C 	C 	0.63010 0.25540 0.73540 0.12400
O 	O 	0.74650 0.26240 0.72510 -0.18500
O 	O 	0.20560 0.26250 0.55560 -0.39600
O 	O 	0.11760 0.31110 0.60360 -0.22900
C 	C 	0.39150 0.25780 0.71350 -0.06200
C 	C 	0.51200 0.24110 0.70110 0.03900
C 	C 	0.51720 0.22670 0.65460 -0.03500
H 	H 	0.58480 0.20320 0.64680 0.04200
O 	O 	0.40400 0.18450 0.55270 -0.27700
O 	O 	0.54620 0.25030 0.55060 -0.16000
O 	O 	0.24200 0.31650 0.55670 -0.28800
O 	O 	0.12100 0.27240 0.60140 -0.43600
C 	C 	0.41700 0.30440 0.70860 0.02900
C 	C 	0.52200 0.27800 0.70120 -0.04400
C 	C 	0.55400 0.24660 0.65460 -0.01300
H 	H 	0.63460 0.23190 0.64880 0.04100
O 	O 	0.50100 0.18000 0.56190 -0.26300
O 	O 	0.47670 0.26370 0.54530 -0.33000
