data_crystal

_cell_length_a 11.25300
_cell_length_b 25.16100
_cell_length_c 18.17200
_cell_angle_alpha 90.00000
_cell_angle_beta  90.00000
_cell_angle_gamma 90.00000

_symmetry_space_group_name_	'P 1'
_symmetry_space_group_name_H-M	'P 1'

loop_
_symmetry_equiv_pos_as_xyz
  x,y,z

loop_
_atom_site_label
_atom_site_type_symbol
_atom_site_fract_x
_atom_site_fract_y
_atom_site_fract_z
_atom_site_charge
Zn	Zn	0.62027 0.02537 0.92641 1.22600
Zn	Zn	0.37973 0.47463 0.92641 1.22700
Zn	Zn	0.62027 0.97463 0.57359 1.22700
Zn	Zn	0.37973 0.52537 0.57359 1.22700
Zn	Zn	0.37973 0.97463 0.07359 1.22600
Zn	Zn	0.62027 0.52537 0.07359 1.22600
Zn	Zn	0.37973 0.02537 0.42641 1.22600
Zn	Zn	0.62027 0.47463 0.42641 1.22600
Zn	Zn	0.00000 0.75000 0.70985 1.17300
Zn	Zn	0.00000 0.25000 0.79015 1.17300
Zn	Zn	0.00000 0.25000 0.29015 1.17300
Zn	Zn	0.00000 0.75000 0.20985 1.17300
H 	H 	0.51010 0.94870 0.79280 0.01000
H 	H 	0.29510 0.84800 0.68710 0.02000
H 	H 	0.27480 0.86080 0.90600 0.01400
H 	H 	0.73550 0.92190 0.98510 0.09600
H 	H 	0.87310 0.85700 0.01710 0.00100
H 	H 	0.07270 0.86750 0.98890 0.06900
H 	H 	0.14060 0.94110 0.92800 0.07800
H 	H 	0.95260 0.14020 0.86940 0.00800
H 	H 	0.73450 0.04920 0.75020 0.02500
H 	H 	0.70920 0.11980 0.67110 0.08100
H 	H 	0.81030 0.19750 0.69140 0.01400
H 	H 	0.16350 0.02430 0.86550 0.05900
H 	H 	0.10150 0.07880 0.84900 0.05000
H 	H 	0.03560 0.04580 0.73470 0.04800
H 	H 	0.17460 0.04510 0.73920 0.06000
H 	H 	0.48990 0.55130 0.79280 0.01200
H 	H 	0.70490 0.65200 0.68710 0.02900
H 	H 	0.72520 0.63920 0.90600 0.01900
H 	H 	0.26450 0.57810 0.98510 0.06200
H 	H 	0.12690 0.64300 0.01710 0.05600
H 	H 	0.92730 0.63250 0.98890 0.02200
H 	H 	0.85940 0.55890 0.92800 0.06100
H 	H 	0.04740 0.35980 0.86940 -0.02900
H 	H 	0.26550 0.45080 0.75020 0.02100
H 	H 	0.29080 0.38020 0.67110 0.08000
H 	H 	0.18970 0.30250 0.69140 0.00400
H 	H 	0.83650 0.47570 0.86550 0.03700
H 	H 	0.89850 0.42120 0.84900 0.04500
H 	H 	0.96440 0.45420 0.73470 0.10500
H 	H 	0.82540 0.45490 0.73920 0.07400
H 	H 	0.51010 0.05130 0.70720 0.01000
H 	H 	0.29510 0.15200 0.81290 0.02000
H 	H 	0.27480 0.13920 0.59400 0.01300
H 	H 	0.73550 0.07810 0.51490 0.09400
H 	H 	0.87310 0.14300 0.48290 0.00400
H 	H 	0.07270 0.13250 0.51110 0.06800
H 	H 	0.14060 0.05890 0.57200 0.07800
H 	H 	0.95260 0.85980 0.63060 0.00900
H 	H 	0.73450 0.95080 0.74980 0.02600
H 	H 	0.70920 0.88020 0.82890 0.08100
H 	H 	0.81030 0.80250 0.80860 0.01400
H 	H 	0.16350 0.97570 0.63450 0.06100
H 	H 	0.10150 0.92120 0.65100 0.05100
H 	H 	0.03560 0.95420 0.76530 0.04700
H 	H 	0.17460 0.95490 0.76080 0.05800
H 	H 	0.48990 0.44870 0.70720 0.01100
H 	H 	0.70490 0.34800 0.81290 0.02900
H 	H 	0.72520 0.36080 0.59400 0.01900
H 	H 	0.26450 0.42190 0.51490 0.06100
H 	H 	0.12690 0.35700 0.48290 0.05800
H 	H 	0.92730 0.36750 0.51110 0.02100
H 	H 	0.85940 0.44110 0.57200 0.06100
H 	H 	0.04740 0.64020 0.63060 -0.02900
H 	H 	0.26550 0.54920 0.74980 0.02100
H 	H 	0.29080 0.61980 0.82890 0.08000
H 	H 	0.18970 0.69750 0.80860 0.00400
H 	H 	0.83650 0.52430 0.63450 0.03700
H 	H 	0.89850 0.57880 0.65100 0.04500
H 	H 	0.96440 0.54580 0.76530 0.10500
H 	H 	0.82540 0.54510 0.76080 0.07400
H 	H 	0.48990 0.05130 0.20720 0.01200
H 	H 	0.70490 0.15200 0.31290 0.02900
H 	H 	0.72520 0.13920 0.09400 0.02000
H 	H 	0.26450 0.07810 0.01490 0.06400
H 	H 	0.12690 0.14300 0.98290 0.05400
H 	H 	0.92730 0.13250 0.01110 0.02300
H 	H 	0.85940 0.05890 0.07200 0.06100
H 	H 	0.04740 0.85980 0.13060 -0.02900
H 	H 	0.26550 0.95080 0.24980 0.02100
H 	H 	0.29080 0.88020 0.32890 0.08000
H 	H 	0.18970 0.80250 0.30860 0.00400
H 	H 	0.83650 0.97570 0.13450 0.03600
H 	H 	0.89850 0.92120 0.15100 0.04400
H 	H 	0.96440 0.95420 0.26530 0.10600
H 	H 	0.82540 0.95490 0.26080 0.07500
H 	H 	0.51010 0.44870 0.20720 0.01000
H 	H 	0.29510 0.34800 0.31290 0.02000
H 	H 	0.27480 0.36080 0.09400 0.01300
H 	H 	0.73550 0.42190 0.01490 0.09500
H 	H 	0.87310 0.35700 0.98290 0.00300
H 	H 	0.07270 0.36750 0.01110 0.06800
H 	H 	0.14060 0.44110 0.07200 0.07800
H 	H 	0.95260 0.64020 0.13060 0.00800
H 	H 	0.73450 0.54920 0.24980 0.02600
H 	H 	0.70920 0.61980 0.32890 0.08100
H 	H 	0.81030 0.69750 0.30860 0.01400
H 	H 	0.16350 0.52430 0.13450 0.06100
H 	H 	0.10150 0.57880 0.15100 0.05000
H 	H 	0.03560 0.54580 0.26530 0.04700
H 	H 	0.17460 0.54510 0.26080 0.05900
H 	H 	0.48990 0.94870 0.29280 0.01100
H 	H 	0.70490 0.84800 0.18710 0.02900
H 	H 	0.72520 0.86080 0.40600 0.01900
H 	H 	0.26450 0.92190 0.48510 0.06100
H 	H 	0.12690 0.85700 0.51710 0.05800
H 	H 	0.92730 0.86750 0.48890 0.02100
H 	H 	0.85940 0.94110 0.42800 0.06100
H 	H 	0.04740 0.14020 0.36940 -0.02900
H 	H 	0.26550 0.04920 0.25020 0.02200
H 	H 	0.29080 0.11980 0.17110 0.08100
H 	H 	0.18970 0.19750 0.19140 0.00400
H 	H 	0.83650 0.02430 0.36550 0.03700
H 	H 	0.89850 0.07880 0.34900 0.04600
H 	H 	0.96440 0.04580 0.23470 0.10500
H 	H 	0.82540 0.04510 0.23920 0.07300
H 	H 	0.51010 0.55130 0.29280 0.01000
H 	H 	0.29510 0.65200 0.18710 0.02000
H 	H 	0.27480 0.63920 0.40600 0.01300
H 	H 	0.73550 0.57810 0.48510 0.09500
H 	H 	0.87310 0.64300 0.51710 0.00400
H 	H 	0.07270 0.63250 0.48890 0.06800
H 	H 	0.14060 0.55890 0.42800 0.07800
H 	H 	0.95260 0.35980 0.36940 0.00900
H 	H 	0.73450 0.45080 0.25020 0.02600
H 	H 	0.70920 0.38020 0.17110 0.08100
H 	H 	0.81030 0.30250 0.19140 0.01400
H 	H 	0.16350 0.47570 0.36550 0.06100
H 	H 	0.10150 0.42120 0.34900 0.05000
H 	H 	0.03560 0.45420 0.23470 0.04700
H 	H 	0.17460 0.45490 0.23920 0.05900
C 	C 	0.43640 0.93640 0.92920 0.43600
C 	C 	0.39770 0.90890 0.86070 -0.18500
C 	C 	0.44940 0.92360 0.79370 0.10300
C 	C 	0.41060 0.90110 0.72940 -0.16200
C 	C 	0.32140 0.86310 0.73090 0.09000
C 	C 	0.27120 0.84730 0.79690 -0.16000
C 	C 	0.30910 0.87070 0.86150 0.10500
C 	C 	0.17270 0.80670 0.79630 0.38100
C 	C 	0.46380 0.91800 0.65770 0.38600
C 	C 	0.85580 0.96870 0.93230 0.06800
C 	C 	0.81510 0.92530 0.97220 -0.16600
C 	C 	0.89780 0.88720 0.99200 0.12400
C 	C 	0.01910 0.89370 0.97460 -0.13300
C 	C 	0.06010 0.93680 0.93780 -0.12500
C 	C 	0.97610 0.97440 0.91500 0.12400
C 	C 	0.87410 0.04081 0.86660 0.12500
C 	C 	0.84920 0.08710 0.81910 -0.07500
C 	C 	0.90370 0.13550 0.82870 0.05900
C 	C 	0.77390 0.08110 0.75840 0.02700
C 	C 	0.75940 0.12280 0.71150 -0.11200
C 	C 	0.81950 0.16960 0.72450 0.07900
C 	C 	0.09620 0.04070 0.84120 -0.10100
C 	C 	0.10280 0.02920 0.75890 -0.09300
C 	C 	0.56360 0.56360 0.92920 0.43500
C 	C 	0.60230 0.59110 0.86070 -0.18000
C 	C 	0.55060 0.57640 0.79370 0.09800
C 	C 	0.58940 0.59890 0.72940 -0.15600
C 	C 	0.67860 0.63690 0.73090 0.08200
C 	C 	0.72880 0.65270 0.79690 -0.14600
C 	C 	0.69090 0.62930 0.86150 0.09900
C 	C 	0.82730 0.69330 0.79630 0.37300
C 	C 	0.53620 0.58200 0.65770 0.38500
C 	C 	0.14420 0.53130 0.93230 0.05000
C 	C 	0.18490 0.57470 0.97220 -0.08100
C 	C 	0.10220 0.61280 0.99200 -0.11800
C 	C 	0.98090 0.60630 0.97460 0.06800
C 	C 	0.93990 0.56320 0.93780 -0.04000
C 	C 	0.02390 0.52560 0.91500 -0.01200
C 	C 	0.12590 0.45919 0.86660 0.11800
C 	C 	0.15080 0.41290 0.81910 -0.10100
C 	C 	0.09630 0.36450 0.82870 0.04800
C 	C 	0.22610 0.41890 0.75840 0.02500
C 	C 	0.24060 0.37720 0.71150 -0.12200
C 	C 	0.18050 0.33040 0.72450 0.06800
C 	C 	0.90380 0.45930 0.84120 0.02600
C 	C 	0.89720 0.47080 0.75890 -0.12200
C 	C 	0.43640 0.06360 0.57080 0.43600
C 	C 	0.39770 0.09110 0.63930 -0.18600
C 	C 	0.44940 0.07640 0.70630 0.10300
C 	C 	0.41060 0.09890 0.77060 -0.16200
C 	C 	0.32140 0.13690 0.76910 0.09100
C 	C 	0.27120 0.15270 0.70310 -0.16000
C 	C 	0.30910 0.12930 0.63850 0.10500
C 	C 	0.17270 0.19330 0.70370 0.38100
C 	C 	0.46380 0.08200 0.84230 0.38600
C 	C 	0.85580 0.03130 0.56770 0.06500
C 	C 	0.81510 0.07470 0.52780 -0.16300
C 	C 	0.89780 0.11280 0.50800 0.12000
C 	C 	0.01910 0.10630 0.52540 -0.13100
C 	C 	0.06010 0.06320 0.56220 -0.12700
C 	C 	0.97610 0.02560 0.58500 0.12400
C 	C 	0.87410 0.95919 0.63340 0.12500
C 	C 	0.84920 0.91290 0.68090 -0.07500
C 	C 	0.90370 0.86450 0.67130 0.05900
C 	C 	0.77390 0.91890 0.74160 0.02600
C 	C 	0.75940 0.87720 0.78850 -0.11100
C 	C 	0.81950 0.83040 0.77550 0.07900
C 	C 	0.09620 0.95930 0.65880 -0.10500
C 	C 	0.10280 0.97080 0.74110 -0.08600
C 	C 	0.56360 0.43640 0.57080 0.43500
C 	C 	0.60230 0.40890 0.63930 -0.18000
C 	C 	0.55060 0.42360 0.70630 0.09800
C 	C 	0.58940 0.40110 0.77060 -0.15600
C 	C 	0.67860 0.36310 0.76910 0.08200
C 	C 	0.72880 0.34730 0.70310 -0.14600
C 	C 	0.69090 0.37070 0.63850 0.09900
C 	C 	0.82730 0.30670 0.70370 0.37300
C 	C 	0.53620 0.41800 0.84230 0.38500
C 	C 	0.14420 0.46870 0.56770 0.04900
C 	C 	0.18490 0.42530 0.52780 -0.07900
C 	C 	0.10220 0.38720 0.50800 -0.12200
C 	C 	0.98090 0.39370 0.52540 0.07100
C 	C 	0.93990 0.43680 0.56220 -0.04100
C 	C 	0.02390 0.47440 0.58500 -0.01100
C 	C 	0.12590 0.54081 0.63340 0.11800
C 	C 	0.15080 0.58710 0.68090 -0.10100
C 	C 	0.09630 0.63550 0.67130 0.04900
C 	C 	0.22610 0.58110 0.74160 0.02500
C 	C 	0.24060 0.62280 0.78850 -0.12200
C 	C 	0.18050 0.66960 0.77550 0.06800
C 	C 	0.90380 0.54070 0.65880 0.02600
C 	C 	0.89720 0.52920 0.74110 -0.12200
C 	C 	0.56360 0.06360 0.07080 0.43500
C 	C 	0.60230 0.09110 0.13930 -0.18000
C 	C 	0.55060 0.07640 0.20630 0.09800
C 	C 	0.58940 0.09890 0.27060 -0.15600
C 	C 	0.67860 0.13690 0.26910 0.08200
C 	C 	0.72880 0.15270 0.20310 -0.14600
C 	C 	0.69090 0.12930 0.13850 0.09800
C 	C 	0.82730 0.19330 0.20370 0.37300
C 	C 	0.53620 0.08200 0.34230 0.38400
C 	C 	0.14420 0.03130 0.06770 0.05300
C 	C 	0.18490 0.07470 0.02780 -0.08400
C 	C 	0.10220 0.11280 0.00800 -0.11300
C 	C 	0.98090 0.10630 0.02540 0.06600
C 	C 	0.93990 0.06320 0.06220 -0.03900
C 	C 	0.02390 0.02560 0.08500 -0.01100
C 	C 	0.12590 0.95919 0.13340 0.11700
C 	C 	0.15080 0.91290 0.18090 -0.10100
C 	C 	0.09630 0.86450 0.17130 0.04900
C 	C 	0.22610 0.91890 0.24160 0.02500
C 	C 	0.24060 0.87720 0.28850 -0.12200
C 	C 	0.18050 0.83040 0.27550 0.06800
C 	C 	0.90380 0.95930 0.15880 0.02700
C 	C 	0.89720 0.97080 0.24110 -0.12500
C 	C 	0.43640 0.43640 0.07080 0.43600
C 	C 	0.39770 0.40890 0.13930 -0.18500
C 	C 	0.44940 0.42360 0.20630 0.10300
C 	C 	0.41060 0.40110 0.27060 -0.16200
C 	C 	0.32140 0.36310 0.26910 0.09100
C 	C 	0.27120 0.34730 0.20310 -0.16000
C 	C 	0.30910 0.37070 0.13850 0.10500
C 	C 	0.17270 0.30670 0.20370 0.38100
C 	C 	0.46380 0.41800 0.34230 0.38600
C 	C 	0.85580 0.46870 0.06770 0.06500
C 	C 	0.81510 0.42530 0.02780 -0.16300
C 	C 	0.89780 0.38720 0.00800 0.12100
C 	C 	0.01910 0.39370 0.02540 -0.13100
C 	C 	0.06010 0.43680 0.06220 -0.12700
C 	C 	0.97610 0.47440 0.08500 0.12400
C 	C 	0.87410 0.54081 0.13340 0.12500
C 	C 	0.84920 0.58710 0.18090 -0.07500
C 	C 	0.90370 0.63550 0.17130 0.05900
C 	C 	0.77390 0.58110 0.24160 0.02700
C 	C 	0.75940 0.62280 0.28850 -0.11200
C 	C 	0.81950 0.66960 0.27550 0.07900
C 	C 	0.09620 0.54070 0.15880 -0.10300
C 	C 	0.10280 0.52920 0.24110 -0.08900
C 	C 	0.56360 0.93640 0.42920 0.43500
C 	C 	0.60230 0.90890 0.36070 -0.18000
C 	C 	0.55060 0.92360 0.29370 0.09800
C 	C 	0.58940 0.90110 0.22940 -0.15700
C 	C 	0.67860 0.86310 0.23090 0.08300
C 	C 	0.72880 0.84730 0.29690 -0.14600
C 	C 	0.69090 0.87070 0.36150 0.09900
C 	C 	0.82730 0.80670 0.29630 0.37300
C 	C 	0.53620 0.91800 0.15770 0.38500
C 	C 	0.14420 0.96870 0.43230 0.04900
C 	C 	0.18490 0.92530 0.47220 -0.07900
C 	C 	0.10220 0.88720 0.49200 -0.12100
C 	C 	0.98090 0.89370 0.47460 0.07100
C 	C 	0.93990 0.93680 0.43780 -0.04100
C 	C 	0.02390 0.97440 0.41500 -0.01100
C 	C 	0.12590 0.04081 0.36660 0.11800
C 	C 	0.15080 0.08710 0.31910 -0.10100
C 	C 	0.09630 0.13550 0.32870 0.04800
C 	C 	0.22610 0.08110 0.25840 0.02500
C 	C 	0.24060 0.12280 0.21150 -0.12200
C 	C 	0.18050 0.16960 0.22450 0.06800
C 	C 	0.90380 0.04070 0.34120 0.02400
C 	C 	0.89720 0.02920 0.25890 -0.11900
C 	C 	0.43640 0.56360 0.42920 0.43600
C 	C 	0.39770 0.59110 0.36070 -0.18500
C 	C 	0.44940 0.57640 0.29370 0.10300
C 	C 	0.41060 0.59890 0.22940 -0.16200
C 	C 	0.32140 0.63690 0.23090 0.09100
C 	C 	0.27120 0.65270 0.29690 -0.16000
C 	C 	0.30910 0.62930 0.36150 0.10500
C 	C 	0.17270 0.69330 0.29630 0.38100
C 	C 	0.46380 0.58200 0.15770 0.38600
C 	C 	0.85580 0.53130 0.43230 0.06500
C 	C 	0.81510 0.57470 0.47220 -0.16300
C 	C 	0.89780 0.61280 0.49200 0.12000
C 	C 	0.01910 0.60630 0.47460 -0.13100
C 	C 	0.06010 0.56320 0.43780 -0.12700
C 	C 	0.97610 0.52560 0.41500 0.12500
C 	C 	0.87410 0.45919 0.36660 0.12500
C 	C 	0.84920 0.41290 0.31910 -0.07500
C 	C 	0.90370 0.36450 0.32870 0.05900
C 	C 	0.77390 0.41890 0.25840 0.02700
C 	C 	0.75940 0.37720 0.21150 -0.11200
C 	C 	0.81950 0.33040 0.22450 0.07900
C 	C 	0.09620 0.45930 0.34120 -0.10400
C 	C 	0.10280 0.47080 0.25890 -0.08900
N 	N 	0.79380 0.01081 0.90098 -0.26600
N 	N 	0.98560 0.02083 0.87460 -0.10400
N 	N 	0.88960 0.17639 0.78180 -0.21700
N 	N 	0.20620 0.48919 0.90098 -0.26200
N 	N 	0.01440 0.47917 0.87460 -0.15800
N 	N 	0.11040 0.32361 0.78180 -0.24200
N 	N 	0.79380 0.98919 0.59902 -0.26400
N 	N 	0.98560 0.97917 0.62540 -0.10200
N 	N 	0.88960 0.82361 0.71820 -0.21700
N 	N 	0.20620 0.51081 0.59902 -0.26200
N 	N 	0.01440 0.52083 0.62540 -0.15800
N 	N 	0.11040 0.67639 0.71820 -0.24200
N 	N 	0.20620 0.98919 0.09902 -0.26400
N 	N 	0.01440 0.97917 0.12540 -0.15900
N 	N 	0.11040 0.82361 0.21820 -0.24200
N 	N 	0.79380 0.51081 0.09902 -0.26400
N 	N 	0.98560 0.52083 0.12540 -0.10300
N 	N 	0.88960 0.67639 0.21820 -0.21700
N 	N 	0.20620 0.01081 0.40098 -0.26200
N 	N 	0.01440 0.02083 0.37460 -0.15800
N 	N 	0.11040 0.17639 0.28180 -0.24200
N 	N 	0.79380 0.48919 0.40098 -0.26400
N 	N 	0.98560 0.47917 0.37460 -0.10300
N 	N 	0.88960 0.32361 0.28180 -0.21700
O 	O 	0.53880 0.95591 0.93325 -0.50700
O 	O 	0.36060 0.93875 0.98033 -0.50000
O 	O 	0.13710 0.79379 0.73300 -0.50400
O 	O 	0.13510 0.78827 0.85500 -0.32000
O 	O 	0.42040 0.90380 0.59920 -0.32800
O 	O 	0.55240 0.94777 0.66196 -0.48600
O 	O 	0.46120 0.54409 0.93325 -0.50700
O 	O 	0.63940 0.56125 0.98033 -0.49900
O 	O 	0.86290 0.70621 0.73300 -0.46100
O 	O 	0.86490 0.71173 0.85500 -0.28000
O 	O 	0.57960 0.59620 0.59920 -0.32500
O 	O 	0.44760 0.55223 0.66196 -0.48500
O 	O 	0.53880 0.04409 0.56675 -0.50700
O 	O 	0.36060 0.06125 0.51967 -0.50100
O 	O 	0.13710 0.20621 0.76700 -0.50400
O 	O 	0.13510 0.21173 0.64500 -0.32000
O 	O 	0.42040 0.09620 0.90080 -0.32900
O 	O 	0.55240 0.05223 0.83804 -0.48600
O 	O 	0.46120 0.45591 0.56675 -0.50700
O 	O 	0.63940 0.43875 0.51967 -0.49900
O 	O 	0.86290 0.29379 0.76700 -0.46100
O 	O 	0.86490 0.28827 0.64500 -0.28000
O 	O 	0.57960 0.40380 0.90080 -0.32600
O 	O 	0.44760 0.44777 0.83804 -0.48500
O 	O 	0.46120 0.04409 0.06675 -0.50600
O 	O 	0.63940 0.06125 0.01967 -0.49800
O 	O 	0.86290 0.20621 0.26700 -0.46100
O 	O 	0.86490 0.21173 0.14500 -0.28000
O 	O 	0.57960 0.09620 0.40080 -0.32500
O 	O 	0.44760 0.05223 0.33804 -0.48500
O 	O 	0.53880 0.45591 0.06675 -0.50700
O 	O 	0.36060 0.43875 0.01967 -0.50100
O 	O 	0.13710 0.29379 0.26700 -0.50400
O 	O 	0.13510 0.28827 0.14500 -0.32000
O 	O 	0.42040 0.40380 0.40080 -0.32800
O 	O 	0.55240 0.44777 0.33804 -0.48600
O 	O 	0.46120 0.95591 0.43325 -0.50700
O 	O 	0.63940 0.93875 0.48033 -0.49900
O 	O 	0.86290 0.79379 0.23300 -0.46100
O 	O 	0.86490 0.78827 0.35500 -0.28000
O 	O 	0.57960 0.90380 0.09920 -0.32600
O 	O 	0.44760 0.94777 0.16196 -0.48600
O 	O 	0.53880 0.54409 0.43325 -0.50700
O 	O 	0.36060 0.56125 0.48033 -0.50100
O 	O 	0.13710 0.70621 0.23300 -0.50400
O 	O 	0.13510 0.71173 0.35500 -0.32000
O 	O 	0.42040 0.59620 0.09920 -0.32800
O 	O 	0.55240 0.55223 0.16196 -0.48600
