data_crystal

_cell_length_a 7.03800
_cell_length_b 23.12000
_cell_length_c 20.67500
_cell_angle_alpha 90.00000
_cell_angle_beta  90.00000
_cell_angle_gamma 90.00000

_symmetry_space_group_name_	'P 1'
_symmetry_space_group_name_H-M	'P 1'

loop_
_symmetry_equiv_pos_as_xyz
  x,y,z

loop_
_atom_site_label
_atom_site_type_symbol
_atom_site_fract_x
_atom_site_fract_y
_atom_site_fract_z
_atom_site_charge
O 	O 	0.33210 0.15030 0.95040 -0.39000
O 	O 	0.36400 0.32490 0.93410 -0.33600
O 	O 	0.41400 0.26510 0.96970 -0.32400
C 	C 	0.58800 0.03950 0.46550 0.05900
C 	C 	0.40500 0.02020 0.54870 0.02900
O 	O 	0.13300 0.38170 0.88280 -0.06600
O 	O 	0.83210 0.65030 0.95040 -0.28800
O 	O 	0.86400 0.82490 0.93410 -0.22400
O 	O 	0.91400 0.76510 0.96970 -0.16600
C 	C 	0.08800 0.53950 0.46550 -0.03500
C 	C 	0.90500 0.52020 0.54870 0.12300
O 	O 	0.63300 0.88170 0.88280 -0.11900
O 	O 	0.66790 0.34970 0.45040 -0.36100
O 	O 	0.63600 0.17510 0.43410 -0.31700
O 	O 	0.58600 0.23490 0.46970 -0.31300
C 	C 	0.41200 0.46050 0.96550 0.03800
C 	C 	0.59500 0.47980 0.04870 0.06400
O 	O 	0.86700 0.11830 0.38280 0.04900
O 	O 	0.16790 0.84970 0.45040 -0.37400
O 	O 	0.13600 0.67510 0.43410 -0.30000
O 	O 	0.08600 0.73490 0.46970 -0.34100
C 	C 	0.91200 0.96050 0.96550 0.17000
C 	C 	0.09500 0.97980 0.04870 0.00300
O 	O 	0.36700 0.61830 0.38280 -0.14000
O 	O 	0.66790 0.65030 0.54960 -0.36100
O 	O 	0.63600 0.82490 0.56590 -0.31700
O 	O 	0.58600 0.76510 0.53030 -0.31300
C 	C 	0.41200 0.53950 0.03450 0.03800
C 	C 	0.59500 0.52020 0.95130 0.06400
O 	O 	0.86700 0.88170 0.61720 0.04900
O 	O 	0.16790 0.15030 0.54960 -0.37400
O 	O 	0.13600 0.32490 0.56590 -0.30000
O 	O 	0.08600 0.26510 0.53030 -0.34100
C 	C 	0.91200 0.03950 0.03450 0.17000
C 	C 	0.09500 0.02020 0.95130 0.00300
O 	O 	0.36700 0.38170 0.61720 -0.14000
O 	O 	0.33210 0.84970 0.04960 -0.38900
O 	O 	0.36400 0.67510 0.06590 -0.33500
O 	O 	0.41400 0.73490 0.03030 -0.32300
C 	C 	0.58800 0.96050 0.53450 0.06000
C 	C 	0.40500 0.97980 0.45130 0.03000
O 	O 	0.13300 0.61830 0.11720 -0.06500
O 	O 	0.83210 0.34970 0.04960 -0.28800
O 	O 	0.86400 0.17510 0.06590 -0.22400
O 	O 	0.91400 0.23490 0.03030 -0.16600
C 	C 	0.08800 0.46050 0.53450 -0.03500
C 	C 	0.90500 0.47980 0.45130 0.12300
O 	O 	0.63300 0.11830 0.11720 -0.11900
O 	O 	0.66790 0.84970 0.04960 -0.36100
O 	O 	0.63600 0.67510 0.06590 -0.31700
O 	O 	0.58600 0.73490 0.03030 -0.31300
C 	C 	0.41200 0.96050 0.53450 0.03800
C 	C 	0.59500 0.97980 0.45130 0.06400
O 	O 	0.86700 0.61830 0.11720 0.04900
O 	O 	0.16790 0.34970 0.04960 -0.37400
O 	O 	0.13600 0.17510 0.06590 -0.30000
O 	O 	0.08600 0.23490 0.03030 -0.34000
C 	C 	0.91200 0.46050 0.53450 0.17100
C 	C 	0.09500 0.47980 0.45130 0.00200
O 	O 	0.36700 0.11830 0.11720 -0.14000
O 	O 	0.33210 0.65030 0.54960 -0.38900
O 	O 	0.36400 0.82490 0.56590 -0.33600
O 	O 	0.41400 0.76510 0.53030 -0.32300
C 	C 	0.58800 0.53950 0.03450 0.06000
C 	C 	0.40500 0.52020 0.95130 0.03000
O 	O 	0.13300 0.88170 0.61720 -0.06500
O 	O 	0.83210 0.15030 0.54960 -0.28800
O 	O 	0.86400 0.32490 0.56590 -0.22400
O 	O 	0.91400 0.26510 0.53030 -0.16500
C 	C 	0.08800 0.03950 0.03450 -0.03500
C 	C 	0.90500 0.02020 0.95130 0.12200
O 	O 	0.63300 0.38170 0.61720 -0.11900
O 	O 	0.33210 0.34970 0.45040 -0.38900
O 	O 	0.36400 0.17510 0.43410 -0.33600
O 	O 	0.41400 0.23490 0.46970 -0.32300
C 	C 	0.58800 0.46050 0.96550 0.06000
C 	C 	0.40500 0.47980 0.04870 0.03000
O 	O 	0.13300 0.11830 0.38280 -0.06500
O 	O 	0.83210 0.84970 0.45040 -0.28800
O 	O 	0.86400 0.67510 0.43410 -0.22400
O 	O 	0.91400 0.73490 0.46970 -0.16500
C 	C 	0.08800 0.96050 0.96550 -0.03500
C 	C 	0.90500 0.97980 0.04870 0.12200
O 	O 	0.63300 0.61830 0.38280 -0.11900
O 	O 	0.66790 0.15030 0.95040 -0.36100
O 	O 	0.63600 0.32490 0.93410 -0.31700
O 	O 	0.58600 0.26510 0.96970 -0.31300
C 	C 	0.41200 0.03950 0.46550 0.03800
C 	C 	0.59500 0.02020 0.54870 0.06400
O 	O 	0.86700 0.38170 0.88280 0.04900
O 	O 	0.16790 0.65030 0.95040 -0.37400
O 	O 	0.13600 0.82490 0.93410 -0.30000
O 	O 	0.08600 0.76510 0.96970 -0.34000
C 	C 	0.91200 0.53950 0.46550 0.17100
C 	C 	0.09500 0.52020 0.54870 0.00200
O 	O 	0.36700 0.88170 0.88280 -0.14000
Cd	Cd	0.50000 0.15649 0.54015 1.26100
S 	S 	0.50000 0.14191 0.90962 0.54700
C 	C 	0.50000 0.17660 0.78380 -0.01300
H 	H 	0.50000 0.13660 0.77550 0.09000
C 	C 	0.50000 0.21480 0.73230 -0.02000
O 	O 	0.50000 0.13970 0.65420 -0.32500
O 	O 	0.50000 0.22870 0.61770 -0.38600
C 	C 	0.50000 0.19270 0.66370 0.31900
N 	N 	0.50000 0.05840 0.51480 -0.21800
C 	C 	0.50000 0.19560 0.84720 -0.01400
C 	C 	0.50000 0.25490 0.85910 -0.11800
C 	C 	0.50000 0.28440 0.92520 0.62600
C 	C 	0.50000 0.27320 0.74420 -0.04100
H 	H 	0.50000 0.29940 0.70950 0.08900
C 	C 	0.50000 0.29310 0.80620 0.04300
H 	H 	0.50000 0.33320 0.81380 0.06100
O 	O 	0.50000 0.08870 0.87840 -0.25400
Na	Na	0.50000 0.30910 0.55040 0.60400
O 	O 	0.50000 0.39260 0.61600 0.01500
Cd	Cd	-0.00000 0.65649 0.54015 1.23300
S 	S 	0.00000 0.64191 0.90962 0.41800
C 	C 	-0.00000 0.67660 0.78380 -0.01100
H 	H 	0.00000 0.63660 0.77550 0.06200
C 	C 	0.00000 0.71480 0.73230 -0.07700
O 	O 	-0.00000 0.63970 0.65420 -0.37600
O 	O 	-0.00000 0.72870 0.61770 -0.43800
C 	C 	0.00000 0.69270 0.66370 0.31700
N 	N 	0.00000 0.55840 0.51480 -0.29400
C 	C 	-0.00000 0.69560 0.84720 -0.05500
C 	C 	-0.00000 0.75490 0.85910 -0.08200
C 	C 	0.00000 0.78440 0.92520 0.41200
C 	C 	0.00000 0.77320 0.74420 -0.02600
H 	H 	0.00000 0.79940 0.70950 0.04900
C 	C 	-0.00000 0.79310 0.80620 -0.02400
H 	H 	0.00000 0.83320 0.81380 0.05400
O 	O 	0.00000 0.58870 0.87840 -0.27000
Na	Na	-0.00000 0.80910 0.55040 0.59000
O 	O 	0.00000 0.89260 0.61600 -0.19500
Cd	Cd	0.50000 0.34351 0.04015 1.26100
S 	S 	0.50000 0.35809 0.40962 0.54700
C 	C 	0.50000 0.32340 0.28380 -0.01300
H 	H 	0.50000 0.36340 0.27550 0.09000
C 	C 	0.50000 0.28520 0.23230 -0.02000
O 	O 	0.50000 0.36030 0.15420 -0.32500
O 	O 	0.50000 0.27130 0.11770 -0.38600
C 	C 	0.50000 0.30730 0.16370 0.31900
N 	N 	0.50000 0.44160 0.01480 -0.21800
C 	C 	0.50000 0.30440 0.34720 -0.01400
C 	C 	0.50000 0.24510 0.35910 -0.11800
C 	C 	0.50000 0.21560 0.42520 0.62600
C 	C 	0.50000 0.22680 0.24420 -0.04100
H 	H 	0.50000 0.20060 0.20950 0.08900
C 	C 	0.50000 0.20690 0.30620 0.04300
H 	H 	0.50000 0.16680 0.31380 0.06100
O 	O 	0.50000 0.41130 0.37840 -0.25400
Na	Na	0.50000 0.19090 0.05040 0.60500
O 	O 	0.50000 0.10740 0.11600 0.01500
Cd	Cd	0.00000 0.84351 0.04015 1.23300
S 	S 	-0.00000 0.85809 0.40962 0.41700
C 	C 	0.00000 0.82340 0.28380 -0.01100
H 	H 	0.00000 0.86340 0.27550 0.06200
C 	C 	0.00000 0.78520 0.23230 -0.07700
O 	O 	0.00000 0.86030 0.15420 -0.37500
O 	O 	0.00000 0.77130 0.11770 -0.43700
C 	C 	0.00000 0.80730 0.16370 0.31700
N 	N 	-0.00000 0.94160 0.01480 -0.29200
C 	C 	0.00000 0.80440 0.34720 -0.05500
C 	C 	0.00000 0.74510 0.35910 -0.08200
C 	C 	0.00000 0.71560 0.42520 0.41100
C 	C 	0.00000 0.72680 0.24420 -0.02600
H 	H 	-0.00000 0.70060 0.20950 0.04900
C 	C 	0.00000 0.70690 0.30620 -0.02400
H 	H 	-0.00000 0.66680 0.31380 0.05400
O 	O 	0.00000 0.91130 0.37840 -0.27000
Na	Na	0.00000 0.69090 0.05040 0.59000
O 	O 	-0.00000 0.60740 0.11600 -0.19500
Cd	Cd	0.50000 0.65649 0.95985 1.26100
S 	S 	0.50000 0.64191 0.59038 0.54700
C 	C 	0.50000 0.67660 0.71620 -0.01300
H 	H 	0.50000 0.63660 0.72450 0.09000
C 	C 	0.50000 0.71480 0.76770 -0.02000
O 	O 	0.50000 0.63970 0.84580 -0.32500
O 	O 	0.50000 0.72870 0.88230 -0.38600
C 	C 	0.50000 0.69270 0.83630 0.31900
N 	N 	0.50000 0.55840 0.98520 -0.21800
C 	C 	0.50000 0.69560 0.65280 -0.01400
C 	C 	0.50000 0.75490 0.64090 -0.11800
C 	C 	0.50000 0.78440 0.57480 0.62600
C 	C 	0.50000 0.77320 0.75580 -0.04100
H 	H 	0.50000 0.79940 0.79050 0.08900
C 	C 	0.50000 0.79310 0.69380 0.04300
H 	H 	0.50000 0.83320 0.68620 0.06100
O 	O 	0.50000 0.58870 0.62160 -0.25400
Na	Na	0.50000 0.80910 0.94960 0.60500
O 	O 	0.50000 0.89260 0.88400 0.01500
Cd	Cd	-0.00000 0.15649 0.95985 1.23300
S 	S 	0.00000 0.14191 0.59038 0.41700
C 	C 	-0.00000 0.17660 0.71620 -0.01100
H 	H 	-0.00000 0.13660 0.72450 0.06200
C 	C 	-0.00000 0.21480 0.76770 -0.07700
O 	O 	-0.00000 0.13970 0.84580 -0.37500
O 	O 	-0.00000 0.22870 0.88230 -0.43700
C 	C 	-0.00000 0.19270 0.83630 0.31700
N 	N 	-0.00000 0.05840 0.98520 -0.29200
C 	C 	0.00000 0.19560 0.65280 -0.05500
C 	C 	-0.00000 0.25490 0.64090 -0.08200
C 	C 	-0.00000 0.28440 0.57480 0.41100
C 	C 	-0.00000 0.27320 0.75580 -0.02600
H 	H 	0.00000 0.29940 0.79050 0.04900
C 	C 	0.00000 0.29310 0.69380 -0.02400
H 	H 	-0.00000 0.33320 0.68620 0.05400
O 	O 	-0.00000 0.08870 0.62160 -0.27000
Na	Na	-0.00000 0.30910 0.94960 0.59000
O 	O 	0.00000 0.39260 0.88400 -0.19500
Cd	Cd	0.50000 0.84351 0.45985 1.26100
S 	S 	0.50000 0.85809 0.09038 0.54700
C 	C 	0.50000 0.82340 0.21620 -0.01300
H 	H 	0.50000 0.86340 0.22450 0.09000
C 	C 	0.50000 0.78520 0.26770 -0.02000
O 	O 	0.50000 0.86030 0.34580 -0.32500
O 	O 	0.50000 0.77130 0.38230 -0.38600
C 	C 	0.50000 0.80730 0.33630 0.31900
N 	N 	0.50000 0.94160 0.48520 -0.21800
C 	C 	0.50000 0.80440 0.15280 -0.01400
C 	C 	0.50000 0.74510 0.14090 -0.11800
C 	C 	0.50000 0.71560 0.07480 0.62600
C 	C 	0.50000 0.72680 0.25580 -0.04100
H 	H 	0.50000 0.70060 0.29050 0.08900
C 	C 	0.50000 0.70690 0.19380 0.04300
H 	H 	0.50000 0.66680 0.18620 0.06100
O 	O 	0.50000 0.91130 0.12160 -0.25400
Na	Na	0.50000 0.69090 0.44960 0.60400
O 	O 	0.50000 0.60740 0.38400 0.01500
Cd	Cd	0.00000 0.34351 0.45985 1.23300
S 	S 	-0.00000 0.35809 0.09038 0.41800
C 	C 	-0.00000 0.32340 0.21620 -0.01100
H 	H 	0.00000 0.36340 0.22450 0.06200
C 	C 	-0.00000 0.28520 0.26770 -0.07700
O 	O 	-0.00000 0.36030 0.34580 -0.37600
O 	O 	0.00000 0.27130 0.38230 -0.43800
C 	C 	-0.00000 0.30730 0.33630 0.31700
N 	N 	-0.00000 0.44160 0.48520 -0.29400
C 	C 	-0.00000 0.30440 0.15280 -0.05500
C 	C 	-0.00000 0.24510 0.14090 -0.08200
C 	C 	-0.00000 0.21560 0.07480 0.41200
C 	C 	-0.00000 0.22680 0.25580 -0.02600
H 	H 	0.00000 0.20060 0.29050 0.04900
C 	C 	-0.00000 0.20690 0.19380 -0.02400
H 	H 	0.00000 0.16680 0.18620 0.05400
O 	O 	0.00000 0.41130 0.12160 -0.27000
Na	Na	-0.00000 0.19090 0.44960 0.59000
O 	O 	-0.00000 0.10740 0.38400 -0.19500
