data_crystal

_cell_length_a 20.08430
_cell_length_b 20.08430
_cell_length_c 20.24080
_cell_angle_alpha 90.00000
_cell_angle_beta  90.00000
_cell_angle_gamma 120.00000

_symmetry_space_group_name_	'P 1'
_symmetry_space_group_name_H-M	'P 1'

loop_
_symmetry_equiv_pos_as_xyz
  x,y,z

loop_
_atom_site_label
_atom_site_type_symbol
_atom_site_fract_x
_atom_site_fract_y
_atom_site_fract_z
_atom_site_charge
N 	N 	0.12210 0.22550 0.10810 -0.16300
N 	N 	0.05660 0.11180 0.06680 -0.23600
N 	N 	0.18890 0.34580 0.05820 -0.16900
C 	C 	0.10130 0.18220 0.05220 0.11400
H 	H 	0.11720 0.20110 0.00970 -0.02400
N 	N 	0.04870 0.10770 0.13490 -0.22900
C 	C 	0.17730 0.30760 0.11490 0.17900
C 	C 	0.21130 0.33840 0.17410 -0.22200
H 	H 	0.20100 0.30770 0.21140 0.11100
C 	C 	0.23970 0.42090 0.06270 0.18900
C 	C 	0.08870 0.17720 0.15860 0.10200
H 	H 	0.09310 0.19080 0.20300 -0.02600
C 	C 	0.27800 0.45920 0.11800 -0.22900
H 	H 	0.31380 0.51150 0.11680 0.10800
C 	C 	0.26170 0.41730 0.17680 0.12900
H 	H 	0.28400 0.44150 0.21650 -0.01600
N 	N 	0.25030 0.46090 0.00220 -0.18500
C 	C 	0.27700 0.53640 0.99250 0.15400
H 	H 	0.29080 0.57220 0.02630 -0.05000
C 	C 	0.23550 0.43020 0.93950 0.11200
H 	H 	0.21470 0.37830 0.92980 0.00800
N 	N 	0.28120 0.55320 0.93010 -0.22400
N 	N 	0.25520 0.48480 0.89530 -0.11400
N 	N 	0.78877 0.55883 0.44143 -0.16200
N 	N 	0.72327 0.44513 0.40013 -0.21900
N 	N 	0.85557 0.67913 0.39153 -0.16500
C 	C 	0.76797 0.51553 0.38553 0.12400
H 	H 	0.78387 0.53443 0.34303 -0.01300
N 	N 	0.71537 0.44103 0.46823 -0.21200
C 	C 	0.84397 0.64093 0.44823 0.18900
C 	C 	0.87797 0.67173 0.50743 -0.22300
H 	H 	0.86767 0.64103 0.54473 0.11800
C 	C 	0.90637 0.75423 0.39603 0.19900
C 	C 	0.75537 0.51053 0.49193 0.11100
H 	H 	0.75977 0.52413 0.53633 -0.01900
C 	C 	0.94467 0.79253 0.45133 -0.22900
H 	H 	0.98047 0.84483 0.45013 0.12700
C 	C 	0.92837 0.75063 0.51013 0.14100
H 	H 	0.95067 0.77483 0.54983 -0.00600
N 	N 	0.91697 0.79423 0.33553 -0.16300
C 	C 	0.94367 0.86973 0.32583 0.12000
H 	H 	0.95747 0.90553 0.35963 -0.00700
C 	C 	0.90217 0.76353 0.27283 0.10700
H 	H 	0.88137 0.71163 0.26313 0.01500
N 	N 	0.94787 0.88653 0.26343 -0.19600
N 	N 	0.92187 0.81813 0.22863 -0.10200
N 	N 	0.45543 0.89217 0.77477 -0.18400
N 	N 	0.38993 0.77847 0.73347 -0.22000
N 	N 	0.52223 0.01247 0.72487 -0.23000
C 	C 	0.43463 0.84887 0.71887 0.13300
H 	H 	0.45053 0.86777 0.67637 -0.01100
N 	N 	0.38203 0.77437 0.80157 -0.21300
C 	C 	0.51063 0.97427 0.78157 0.35700
C 	C 	0.54463 0.00507 0.84077 -0.50300
H 	H 	0.53433 0.97437 0.87807 0.24300
C 	C 	0.57303 0.08757 0.72937 0.22800
C 	C 	0.42203 0.84387 0.82527 0.12100
H 	H 	0.42643 0.85747 0.86967 -0.02000
C 	C 	0.61133 0.12587 0.78467 -0.33200
H 	H 	0.64713 0.17817 0.78347 0.14400
C 	C 	0.59503 0.08397 0.84347 0.29600
H 	H 	0.61733 0.10817 0.88317 -0.07800
N 	N 	0.58363 0.12757 0.66887 -0.17300
C 	C 	0.61033 0.20307 0.65917 0.11300
H 	H 	0.62413 0.23887 0.69297 -0.02800
C 	C 	0.56883 0.09687 0.60617 0.09900
H 	H 	0.54803 0.04497 0.59647 -0.00200
N 	N 	0.61453 0.21987 0.59677 -0.21900
N 	N 	0.58853 0.15147 0.56197 -0.11600
N 	N 	0.77450 0.89660 0.10810 -0.16100
N 	N 	0.88820 0.94480 0.06680 -0.20000
N 	N 	0.65420 0.84310 0.05820 -0.16700
C 	C 	0.81780 0.91910 0.05220 0.12600
H 	H 	0.79890 0.91610 0.00970 -0.01000
N 	N 	0.89230 0.94100 0.13490 -0.19100
C 	C 	0.69240 0.86970 0.11490 0.19100
C 	C 	0.66160 0.87290 0.17410 -0.22400
H 	H 	0.69230 0.89330 0.21140 0.12200
C 	C 	0.57910 0.81880 0.06270 0.19500
C 	C 	0.82280 0.91150 0.15860 0.11600
H 	H 	0.80920 0.90230 0.20300 -0.01100
C 	C 	0.54080 0.81880 0.11800 -0.23000
H 	H 	0.48850 0.80230 0.11680 0.11100
C 	C 	0.58270 0.84440 0.17680 0.13900
H 	H 	0.55850 0.84250 0.21650 -0.01300
N 	N 	0.53910 0.78940 0.00220 -0.18200
C 	C 	0.46360 0.74060 0.99250 0.15300
H 	H 	0.42780 0.71860 0.02630 -0.04900
C 	C 	0.56980 0.80530 0.93950 0.11400
H 	H 	0.62170 0.83640 0.92980 0.01600
N 	N 	0.44680 0.72800 0.93010 -0.22300
N 	N 	0.51520 0.77040 0.89530 -0.11100
N 	N 	0.44117 0.22993 0.44143 -0.16300
N 	N 	0.55487 0.27813 0.40013 -0.22000
N 	N 	0.32087 0.17643 0.39153 -0.16700
C 	C 	0.48447 0.25243 0.38553 0.11900
H 	H 	0.46557 0.24943 0.34303 -0.01600
N 	N 	0.55897 0.27433 0.46823 -0.21300
C 	C 	0.35907 0.20303 0.44823 0.17900
C 	C 	0.32827 0.20623 0.50743 -0.22200
H 	H 	0.35897 0.22663 0.54473 0.11000
C 	C 	0.24577 0.15213 0.39603 0.18000
C 	C 	0.48947 0.24483 0.49193 0.10700
H 	H 	0.47587 0.23563 0.53633 -0.02100
C 	C 	0.20747 0.15213 0.45133 -0.22700
H 	H 	0.15517 0.13563 0.45013 0.09800
C 	C 	0.24937 0.17773 0.51013 0.12300
H 	H 	0.22517 0.17583 0.54983 -0.01900
N 	N 	0.20577 0.12273 0.33553 -0.16600
C 	C 	0.13027 0.07393 0.32583 0.10400
H 	H 	0.09447 0.05193 0.35963 -0.05000
C 	C 	0.23647 0.13863 0.27283 0.09300
H 	H 	0.28837 0.16973 0.26313 0.01000
N 	N 	0.11347 0.06133 0.26343 -0.23400
N 	N 	0.18187 0.10373 0.22863 -0.11900
N 	N 	0.10783 0.56327 0.77477 -0.13900
N 	N 	0.22153 0.61147 0.73347 -0.21800
N 	N 	0.98753 0.50977 0.72487 -0.09800
C 	C 	0.15113 0.58577 0.71887 0.11000
H 	H 	0.13223 0.58277 0.67637 -0.01800
N 	N 	0.22563 0.60767 0.80157 -0.21100
C 	C 	0.02573 0.53637 0.78157 0.00600
C 	C 	0.99493 0.53957 0.84077 0.07200
H 	H 	0.02563 0.55997 0.87807 -0.01900
C 	C 	0.91243 0.48547 0.72937 0.15000
C 	C 	0.15613 0.57817 0.82527 0.09800
H 	H 	0.14253 0.56897 0.86967 -0.01600
C 	C 	0.87413 0.48547 0.78467 -0.11700
H 	H 	0.82183 0.46897 0.78347 0.07200
C 	C 	0.91603 0.51107 0.84347 -0.03900
H 	H 	0.89183 0.50917 0.88317 0.05500
N 	N 	0.87243 0.45607 0.66887 -0.15500
C 	C 	0.79693 0.40727 0.65917 0.11200
H 	H 	0.76113 0.38527 0.69297 -0.02600
C 	C 	0.90313 0.47197 0.60617 0.10100
H 	H 	0.95503 0.50307 0.59647 0.02600
N 	N 	0.78013 0.39467 0.59677 -0.21700
N 	N 	0.84853 0.43707 0.56197 -0.10600
N 	N 	0.10340 0.87790 0.10810 -0.16200
N 	N 	0.05520 0.94340 0.06680 -0.21500
N 	N 	0.15690 0.81110 0.05820 -0.16600
C 	C 	0.08090 0.89870 0.05220 0.12000
H 	H 	0.08390 0.88280 0.00970 -0.01900
N 	N 	0.05900 0.95130 0.13490 -0.20500
C 	C 	0.13030 0.82270 0.11490 0.18200
C 	C 	0.12710 0.78870 0.17410 -0.22300
H 	H 	0.10670 0.79900 0.21140 0.10700
C 	C 	0.18120 0.76030 0.06270 0.18800
C 	C 	0.08850 0.91130 0.15860 0.10900
H 	H 	0.09770 0.90690 0.20300 -0.01700
C 	C 	0.18120 0.72200 0.11800 -0.23000
H 	H 	0.19770 0.68620 0.11680 0.10700
C 	C 	0.15560 0.73830 0.17680 0.12900
H 	H 	0.15750 0.71600 0.21650 -0.01800
N 	N 	0.21060 0.74970 0.00220 -0.18200
C 	C 	0.25940 0.72300 0.99250 0.15100
H 	H 	0.28140 0.70920 0.02630 -0.04800
C 	C 	0.19470 0.76450 0.93950 0.11300
H 	H 	0.16360 0.78530 0.92980 0.00900
N 	N 	0.27200 0.71880 0.93010 -0.22300
N 	N 	0.22960 0.74480 0.89530 -0.11200
N 	N 	0.77007 0.21123 0.44143 -0.16100
N 	N 	0.72187 0.27673 0.40013 -0.21900
N 	N 	0.82357 0.14443 0.39153 -0.16300
C 	C 	0.74757 0.23203 0.38553 0.12200
H 	H 	0.75057 0.21613 0.34303 -0.01600
N 	N 	0.72567 0.28463 0.46823 -0.21200
C 	C 	0.79697 0.15603 0.44823 0.18500
C 	C 	0.79377 0.12203 0.50743 -0.22300
H 	H 	0.77337 0.13233 0.54473 0.11200
C 	C 	0.84787 0.09363 0.39603 0.18900
C 	C 	0.75517 0.24463 0.49193 0.11100
H 	H 	0.76437 0.24023 0.53633 -0.01800
C 	C 	0.84787 0.05533 0.45133 -0.22600
H 	H 	0.86437 0.01953 0.45013 0.10200
C 	C 	0.82227 0.07163 0.51013 0.13100
H 	H 	0.82417 0.04933 0.54983 -0.02100
N 	N 	0.87727 0.08303 0.33553 -0.16400
C 	C 	0.92607 0.05633 0.32583 0.11200
H 	H 	0.94807 0.04253 0.35963 -0.02300
C 	C 	0.86137 0.09783 0.27283 0.09800
H 	H 	0.83027 0.11863 0.26313 0.01000
N 	N 	0.93867 0.05213 0.26343 -0.21200
N 	N 	0.89627 0.07813 0.22863 -0.11200
N 	N 	0.43673 0.54457 0.77477 -0.16200
N 	N 	0.38853 0.61007 0.73347 -0.21900
N 	N 	0.49023 0.47777 0.72487 -0.16500
C 	C 	0.41423 0.56537 0.71887 0.12200
H 	H 	0.41723 0.54947 0.67637 -0.01500
N 	N 	0.39233 0.61797 0.80157 -0.21200
C 	C 	0.46363 0.48937 0.78157 0.18500
C 	C 	0.46043 0.45537 0.84077 -0.22200
H 	H 	0.44003 0.46567 0.87807 0.11500
C 	C 	0.51453 0.42697 0.72937 0.18900
C 	C 	0.42183 0.57797 0.82527 0.11000
H 	H 	0.43103 0.57357 0.86967 -0.01800
C 	C 	0.51453 0.38867 0.78467 -0.22700
H 	H 	0.53103 0.35287 0.78347 0.10900
C 	C 	0.48893 0.40497 0.84347 0.13100
H 	H 	0.49083 0.38267 0.88317 -0.01300
N 	N 	0.54393 0.41637 0.66887 -0.16400
C 	C 	0.59273 0.38967 0.65917 0.11200
H 	H 	0.61473 0.37587 0.69297 -0.02700
C 	C 	0.52803 0.43117 0.60617 0.10000
H 	H 	0.49693 0.45197 0.59647 0.01200
N 	N 	0.60533 0.38547 0.59677 -0.21800
N 	N 	0.56293 0.41147 0.56197 -0.11100
N 	N 	0.87790 0.77450 0.89190 -0.16000
N 	N 	0.94340 0.88820 0.93320 -0.19400
N 	N 	0.81110 0.65420 0.94180 -0.16000
C 	C 	0.89870 0.81780 0.94780 0.12900
H 	H 	0.88280 0.79890 0.99030 -0.00300
N 	N 	0.95130 0.89230 0.86510 -0.18900
C 	C 	0.82270 0.69240 0.88510 0.19000
C 	C 	0.78870 0.66160 0.82590 -0.22300
H 	H 	0.79900 0.69230 0.78860 0.11600
C 	C 	0.76030 0.57910 0.93730 0.19100
C 	C 	0.91130 0.82280 0.84140 0.11700
H 	H 	0.90690 0.80920 0.79700 -0.01100
C 	C 	0.72200 0.54080 0.88200 -0.22600
H 	H 	0.68620 0.48850 0.88320 0.11000
C 	C 	0.73830 0.58270 0.82320 0.13400
H 	H 	0.71600 0.55850 0.78350 -0.01500
N 	N 	0.74970 0.53910 0.99780 -0.14300
C 	C 	0.72300 0.46360 0.00750 0.06700
H 	H 	0.70920 0.42780 0.97370 -0.00200
C 	C 	0.76450 0.56980 0.06050 0.08700
H 	H 	0.78530 0.62170 0.07020 0.01700
N 	N 	0.71880 0.44680 0.06990 -0.21100
N 	N 	0.74480 0.51520 0.10470 -0.10800
N 	N 	0.54457 0.10783 0.22523 -0.13800
N 	N 	0.61007 0.22153 0.26653 -0.21800
N 	N 	0.47777 0.98753 0.27513 -0.09400
C 	C 	0.56537 0.15113 0.28113 0.10900
H 	H 	0.54947 0.13223 0.32363 -0.01800
N 	N 	0.61797 0.22563 0.19843 -0.21200
C 	C 	0.48937 0.02573 0.21843 -0.00500
C 	C 	0.45537 0.99493 0.15923 0.08800
H 	H 	0.46567 0.02563 0.12193 -0.03000
C 	C 	0.42697 0.91243 0.27063 0.14700
C 	C 	0.57797 0.15613 0.17473 0.09800
H 	H 	0.57357 0.14253 0.13033 -0.01800
C 	C 	0.38867 0.87413 0.21533 -0.11200
H 	H 	0.35287 0.82183 0.21653 0.07000
C 	C 	0.40497 0.91603 0.15653 -0.05000
H 	H 	0.38267 0.89183 0.11683 0.05500
N 	N 	0.41637 0.87243 0.33113 -0.15500
C 	C 	0.38967 0.79693 0.34083 0.11200
H 	H 	0.37587 0.76113 0.30703 -0.02600
C 	C 	0.43117 0.90313 0.39383 0.10000
H 	H 	0.45197 0.95503 0.40353 0.02600
N 	N 	0.38547 0.78013 0.40323 -0.21700
N 	N 	0.41147 0.84853 0.43803 -0.10600
N 	N 	0.21123 0.44117 0.55857 -0.16200
N 	N 	0.27673 0.55487 0.59987 -0.21900
N 	N 	0.14443 0.32087 0.60847 -0.16500
C 	C 	0.23203 0.48447 0.61447 0.12000
H 	H 	0.21613 0.46557 0.65697 -0.01700
N 	N 	0.28463 0.55897 0.53177 -0.21300
C 	C 	0.15603 0.35907 0.55177 0.18000
C 	C 	0.12203 0.32827 0.49257 -0.22300
H 	H 	0.13233 0.35897 0.45527 0.10800
C 	C 	0.09363 0.24577 0.60397 0.18000
C 	C 	0.24463 0.48947 0.50807 0.10800
H 	H 	0.24023 0.47587 0.46367 -0.02000
C 	C 	0.05533 0.20747 0.54867 -0.22600
H 	H 	0.01953 0.15517 0.54987 0.09000
C 	C 	0.07163 0.24937 0.48987 0.12200
H 	H 	0.04933 0.22517 0.45017 -0.02500
N 	N 	0.08303 0.20577 0.66447 -0.16600
C 	C 	0.05633 0.13027 0.67417 0.10400
H 	H 	0.04253 0.09447 0.64037 -0.04700
C 	C 	0.09783 0.23647 0.72717 0.09200
H 	H 	0.11863 0.28837 0.73687 0.00900
N 	N 	0.05213 0.11347 0.73657 -0.23300
N 	N 	0.07813 0.18187 0.77137 -0.11900
N 	N 	0.22550 0.10340 0.89190 -0.16200
N 	N 	0.11180 0.05520 0.93320 -0.22900
N 	N 	0.34580 0.15690 0.94180 -0.16200
C 	C 	0.18220 0.08090 0.94780 0.11600
H 	H 	0.20110 0.08390 0.99030 -0.01700
N 	N 	0.10770 0.05900 0.86510 -0.22600
C 	C 	0.30760 0.13030 0.88510 0.17800
C 	C 	0.33840 0.12710 0.82590 -0.22100
H 	H 	0.30770 0.10670 0.78860 0.10400
C 	C 	0.42090 0.18120 0.93730 0.18500
C 	C 	0.17720 0.08850 0.84140 0.10300
H 	H 	0.19080 0.09770 0.79700 -0.02600
C 	C 	0.45920 0.18120 0.88200 -0.22400
H 	H 	0.51150 0.19770 0.88320 0.10700
C 	C 	0.41730 0.15560 0.82320 0.12400
H 	H 	0.44150 0.15750 0.78350 -0.01700
N 	N 	0.46090 0.21060 0.99780 -0.14200
C 	C 	0.53640 0.25940 0.00750 0.06200
H 	H 	0.57220 0.28140 0.97370 -0.00000
C 	C 	0.43020 0.19470 0.06050 0.08200
H 	H 	0.37830 0.16360 0.07020 0.00800
N 	N 	0.55320 0.27200 0.06990 -0.21100
N 	N 	0.48480 0.22960 0.10470 -0.11100
N 	N 	0.89217 0.43673 0.22523 -0.18500
N 	N 	0.77847 0.38853 0.26653 -0.22000
N 	N 	0.01247 0.49023 0.27513 -0.23100
C 	C 	0.84887 0.41423 0.28113 0.13300
H 	H 	0.86777 0.41723 0.32363 -0.01100
N 	N 	0.77437 0.39233 0.19843 -0.21400
C 	C 	0.97427 0.46363 0.21843 0.36100
C 	C 	0.00507 0.46043 0.15923 -0.51300
H 	H 	0.97437 0.44003 0.12193 0.24300
C 	C 	0.08757 0.51453 0.27063 0.22900
C 	C 	0.84387 0.42183 0.17473 0.12100
H 	H 	0.85747 0.43103 0.13033 -0.02300
C 	C 	0.12587 0.51453 0.21533 -0.33600
H 	H 	0.17817 0.53103 0.21653 0.14500
C 	C 	0.08397 0.48893 0.15653 0.30000
H 	H 	0.10817 0.49083 0.11683 -0.08500
N 	N 	0.12757 0.54393 0.33113 -0.17400
C 	C 	0.20307 0.59273 0.34083 0.11300
H 	H 	0.23887 0.61473 0.30703 -0.02800
C 	C 	0.09687 0.52803 0.39383 0.09900
H 	H 	0.04497 0.49693 0.40353 -0.00200
N 	N 	0.21987 0.60533 0.40323 -0.21900
N 	N 	0.15147 0.56293 0.43803 -0.11600
N 	N 	0.55883 0.77007 0.55857 -0.16100
N 	N 	0.44513 0.72187 0.59987 -0.21800
N 	N 	0.67913 0.82357 0.60847 -0.16300
C 	C 	0.51553 0.74757 0.61447 0.12400
H 	H 	0.53443 0.75057 0.65697 -0.01300
N 	N 	0.44103 0.72567 0.53177 -0.21200
C 	C 	0.64093 0.79697 0.55177 0.19000
C 	C 	0.67173 0.79377 0.49257 -0.22300
H 	H 	0.64103 0.77337 0.45527 0.11600
C 	C 	0.75423 0.84787 0.60397 0.19900
C 	C 	0.51053 0.75517 0.50807 0.11200
H 	H 	0.52413 0.76437 0.46367 -0.01700
C 	C 	0.79253 0.84787 0.54867 -0.22800
H 	H 	0.84483 0.86437 0.54987 0.11900
C 	C 	0.75063 0.82227 0.48987 0.14000
H 	H 	0.77483 0.82417 0.45017 -0.01200
N 	N 	0.79423 0.87727 0.66447 -0.16300
C 	C 	0.86973 0.92607 0.67417 0.12000
H 	H 	0.90553 0.94807 0.64037 -0.00500
C 	C 	0.76353 0.86137 0.72717 0.10600
H 	H 	0.71163 0.83027 0.73687 0.01400
N 	N 	0.88653 0.93867 0.73657 -0.19600
N 	N 	0.81813 0.89627 0.77137 -0.10300
N 	N 	0.89660 0.12210 0.89190 -0.16200
N 	N 	0.94480 0.05660 0.93320 -0.21000
N 	N 	0.84310 0.18890 0.94180 -0.16200
C 	C 	0.91910 0.10130 0.94780 0.12500
H 	H 	0.91610 0.11720 0.99030 -0.00500
N 	N 	0.94100 0.04870 0.86510 -0.20800
C 	C 	0.86970 0.17730 0.88510 0.19000
C 	C 	0.87290 0.21130 0.82590 -0.22200
H 	H 	0.89330 0.20100 0.78860 0.12100
C 	C 	0.81880 0.23970 0.93730 0.19200
C 	C 	0.91150 0.08870 0.84140 0.11300
H 	H 	0.90230 0.09310 0.79700 -0.01800
C 	C 	0.81880 0.27800 0.88200 -0.22500
H 	H 	0.80230 0.31380 0.88320 0.11100
C 	C 	0.84440 0.26170 0.82320 0.13600
H 	H 	0.84250 0.28400 0.78350 -0.01300
N 	N 	0.78940 0.25030 0.99780 -0.14100
C 	C 	0.74060 0.27700 0.00750 0.06300
H 	H 	0.71860 0.29080 0.97370 0.00000
C 	C 	0.80530 0.23550 0.06050 0.08200
H 	H 	0.83640 0.21470 0.07020 0.01600
N 	N 	0.72800 0.28120 0.06990 -0.21100
N 	N 	0.77040 0.25520 0.10470 -0.10900
N 	N 	0.56327 0.45543 0.22523 -0.16200
N 	N 	0.61147 0.38993 0.26653 -0.21900
N 	N 	0.50977 0.52223 0.27513 -0.16500
C 	C 	0.58577 0.43463 0.28113 0.12200
H 	H 	0.58277 0.45053 0.32363 -0.01500
N 	N 	0.60767 0.38203 0.19843 -0.21300
C 	C 	0.53637 0.51063 0.21843 0.18400
C 	C 	0.53957 0.54463 0.15923 -0.22300
H 	H 	0.55997 0.53433 0.12193 0.11200
C 	C 	0.48547 0.57303 0.27063 0.19000
C 	C 	0.57817 0.42203 0.17473 0.11000
H 	H 	0.56897 0.42643 0.13033 -0.02100
C 	C 	0.48547 0.61133 0.21533 -0.22800
H 	H 	0.46897 0.64713 0.21653 0.10900
C 	C 	0.51107 0.59503 0.15653 0.13200
H 	H 	0.50917 0.61733 0.11683 -0.01700
N 	N 	0.45607 0.58363 0.33113 -0.16500
C 	C 	0.40727 0.61033 0.34083 0.11300
H 	H 	0.38527 0.62413 0.30703 -0.02700
C 	C 	0.47197 0.56883 0.39383 0.10000
H 	H 	0.50307 0.54803 0.40353 0.01200
N 	N 	0.39467 0.61453 0.40323 -0.21800
N 	N 	0.43707 0.58853 0.43803 -0.11100
N 	N 	0.22993 0.78877 0.55857 -0.16200
N 	N 	0.27813 0.72327 0.59987 -0.21900
N 	N 	0.17643 0.85557 0.60847 -0.16600
C 	C 	0.25243 0.76797 0.61447 0.12200
H 	H 	0.24943 0.78387 0.65697 -0.01400
N 	N 	0.27433 0.71537 0.53177 -0.21300
C 	C 	0.20303 0.84397 0.55177 0.18400
C 	C 	0.20623 0.87797 0.49257 -0.22200
H 	H 	0.22663 0.86767 0.45527 0.11500
C 	C 	0.15213 0.90637 0.60397 0.19100
C 	C 	0.24483 0.75537 0.50807 0.10900
H 	H 	0.23563 0.75977 0.46367 -0.02000
C 	C 	0.15213 0.94467 0.54867 -0.22800
H 	H 	0.13563 0.98047 0.54987 0.11900
C 	C 	0.17773 0.92837 0.48987 0.13300
H 	H 	0.17583 0.95067 0.45017 -0.00800
N 	N 	0.12273 0.91697 0.66447 -0.16500
C 	C 	0.07393 0.94367 0.67417 0.11300
H 	H 	0.05193 0.95747 0.64037 -0.02700
C 	C 	0.13863 0.90217 0.72717 0.10200
H 	H 	0.16973 0.88137 0.73687 0.01500
N 	N 	0.06133 0.94787 0.73657 -0.21400
N 	N 	0.10373 0.92187 0.77137 -0.10700
Cd	Cd	-0.00000 0.00000 -0.00000 1.14100
Cd	Cd	0.66667 0.33333 0.33333 1.17900
Cd	Cd	0.33333 0.66667 0.66667 1.17900
Cd	Cd	0.00000 0.00000 0.20472 1.15800
Cd	Cd	0.66667 0.33333 0.53805 1.19100
Cd	Cd	0.33333 0.66667 0.87139 1.19200
Cd	Cd	-0.00000 0.00000 0.79528 1.15900
Cd	Cd	0.66667 0.33333 0.12861 1.19000
Cd	Cd	0.33333 0.66667 0.46195 1.19100
