data_crystal

_cell_length_a 12.37430
_cell_length_b 14.58420
_cell_length_c 21.94350
_cell_angle_alpha 90.00000
_cell_angle_beta  104.82100
_cell_angle_gamma 90.00000

_symmetry_space_group_name_	'P 1'
_symmetry_space_group_name_H-M	'P 1'

loop_
_symmetry_equiv_pos_as_xyz
  x,y,z

loop_
_atom_site_label
_atom_site_type_symbol
_atom_site_fract_x
_atom_site_fract_y
_atom_site_fract_z
_atom_site_charge
Dy	Dy	0.06649 0.38594 0.39647 1.75000
O 	O 	0.23620 0.47642 0.44423 -0.37800
O 	O 	0.23640 0.40064 0.35803 -0.38100
O 	O 	0.80990 0.26279 0.04730 -0.38200
O 	O 	0.98840 0.23104 0.08295 -0.39400
O 	O 	0.02770 0.29698 0.30278 -0.39100
O 	O 	0.02040 0.47991 0.30284 -0.39400
O 	O 	0.04220 0.38579 0.50040 -0.39500
O 	O 	0.99430 0.46704 0.57585 -0.37100
N 	N 	0.71940 0.64370 0.33239 -0.11800
N 	N 	0.79190 0.77830 0.04063 -0.10600
C 	C 	0.28220 0.45720 0.39975 0.32500
C 	C 	0.39010 0.50180 0.39846 -0.12500
C 	C 	0.44370 0.47900 0.35188 0.06900
H 	H 	0.41060 0.43490 0.32090 0.01900
C 	C 	0.54300 0.51890 0.34980 -0.16000
H 	H 	0.57780 0.50190 0.31760 0.08800
C 	C 	0.59310 0.58390 0.39420 0.13300
C 	C 	0.53910 0.60950 0.43940 -0.16100
H 	H 	0.57050 0.65580 0.46910 0.09300
C 	C 	0.43940 0.56820 0.44166 0.07100
H 	H 	0.40410 0.58590 0.47360 0.02400
C 	C 	0.70720 0.62120 0.39660 -0.15100
H 	H 	0.72030 0.67720 0.42300 0.09000
H 	H 	0.76440 0.57530 0.41640 0.08600
C 	C 	0.79280 0.59870 0.30797 0.08600
H 	H 	0.83870 0.55270 0.33220 0.01200
C 	C 	0.80270 0.61790 0.24950 -0.13800
H 	H 	0.85250 0.58270 0.23240 0.09900
C 	C 	0.74290 0.68630 0.21454 0.06900
C 	C 	0.66970 0.73590 0.24180 -0.12400
H 	H 	0.62720 0.78530 0.21960 0.07100
C 	C 	0.66010 0.71230 0.30090 0.07000
H 	H 	0.61050 0.74560 0.31930 0.01100
C 	C 	0.75720 0.71460 0.15193 0.03600
C 	C 	0.85030 0.68690 0.13164 -0.09200
H 	H 	0.90220 0.64470 0.15610 0.08100
C 	C 	0.86670 0.72080 0.07634 0.04800
H 	H 	0.93130 0.70350 0.06330 0.04700
C 	C 	0.69790 0.80150 0.05711 0.05700
H 	H 	0.64440 0.83980 0.03000 0.01700
C 	C 	0.67850 0.77160 0.11128 -0.10400
H 	H 	0.61180 0.78890 0.12220 0.06400
C 	C 	0.81520 0.82340 0.98518 -0.16000
H 	H 	0.75060 0.81640 0.94810 0.08000
H 	H 	0.88150 0.79530 0.97530 0.09800
C 	C 	0.83690 0.92530 0.00096 0.14700
C 	C 	0.92590 0.95130 0.04974 -0.18600
H 	H 	0.97650 0.90600 0.07150 0.10800
C 	C 	0.94240 0.04080 0.06721 0.12400
H 	H 	0.00390 0.05710 0.10130 -0.00600
C 	C 	0.87080 0.10860 0.03596 -0.14200
C 	C 	0.77990 0.08400 0.98584 0.07800
H 	H 	0.73010 0.12960 0.96390 0.01300
C 	C 	0.76330 0.99150 0.96831 -0.16800
H 	H 	0.70220 0.97410 0.93440 0.08600
C 	C 	0.88970 0.20640 0.05557 0.34300
C 	C 	0.01180 0.45800 0.52223 0.20100
Dy	Dy	0.93351 0.38594 0.10353 1.76500
O 	O 	0.76380 0.47642 0.05577 -0.37700
O 	O 	0.76360 0.40064 0.14197 -0.37900
O 	O 	0.19010 0.26279 0.45270 -0.37700
O 	O 	0.01160 0.23104 0.41705 -0.40400
O 	O 	0.97230 0.29698 0.19722 -0.37600
O 	O 	0.97960 0.47991 0.19716 -0.37900
O 	O 	0.95780 0.38579 0.99960 -0.40600
O 	O 	0.00570 0.46704 0.92415 -0.41500
N 	N 	0.28060 0.64370 0.16761 -0.11900
N 	N 	0.20810 0.77830 0.45937 -0.11000
C 	C 	0.71780 0.45720 0.10025 0.32400
C 	C 	0.60990 0.50180 0.10154 -0.12300
C 	C 	0.55630 0.47900 0.14812 0.06700
H 	H 	0.58940 0.43490 0.17910 0.02000
C 	C 	0.45700 0.51890 0.15020 -0.15900
H 	H 	0.42220 0.50190 0.18240 0.08700
C 	C 	0.40690 0.58390 0.10580 0.13100
C 	C 	0.46090 0.60950 0.06060 -0.15900
H 	H 	0.42950 0.65580 0.03090 0.09200
C 	C 	0.56060 0.56820 0.05834 0.06900
H 	H 	0.59590 0.58590 0.02640 0.02500
C 	C 	0.29280 0.62120 0.10340 -0.15000
H 	H 	0.27970 0.67720 0.07700 0.08800
H 	H 	0.23560 0.57530 0.08360 0.08300
C 	C 	0.20720 0.59870 0.19203 0.08500
H 	H 	0.16130 0.55270 0.16780 0.00300
C 	C 	0.19730 0.61790 0.25050 -0.14300
H 	H 	0.14750 0.58270 0.26760 0.09600
C 	C 	0.25710 0.68630 0.28546 0.06800
C 	C 	0.33030 0.73590 0.25820 -0.12500
H 	H 	0.37280 0.78530 0.28040 0.07000
C 	C 	0.33990 0.71230 0.19910 0.06800
H 	H 	0.38950 0.74560 0.18070 0.01000
C 	C 	0.24280 0.71460 0.34807 0.03500
C 	C 	0.14970 0.68690 0.36836 -0.09600
H 	H 	0.09780 0.64470 0.34390 0.07800
C 	C 	0.13330 0.72080 0.42366 0.05000
H 	H 	0.06870 0.70350 0.43670 0.03800
C 	C 	0.30210 0.80150 0.44289 0.05800
H 	H 	0.35560 0.83980 0.47000 0.01700
C 	C 	0.32150 0.77160 0.38872 -0.10600
H 	H 	0.38820 0.78890 0.37780 0.06500
C 	C 	0.18480 0.82340 0.51482 -0.13900
H 	H 	0.24940 0.81640 0.55190 0.07200
H 	H 	0.11850 0.79530 0.52470 0.08300
C 	C 	0.16310 0.92530 0.49904 0.10900
C 	C 	0.07410 0.95130 0.45026 -0.12500
H 	H 	0.02350 0.90600 0.42850 0.07700
C 	C 	0.05760 0.04080 0.43279 0.01900
H 	H 	0.99610 0.05710 0.39870 0.05300
C 	C 	0.12920 0.10860 0.46404 -0.10200
C 	C 	0.22010 0.08400 0.51416 0.04300
H 	H 	0.26990 0.12960 0.53610 0.02300
C 	C 	0.23670 0.99150 0.53169 -0.13800
H 	H 	0.29780 0.97410 0.56560 0.07500
C 	C 	0.11030 0.20640 0.44443 0.32500
C 	C 	0.98820 0.45800 0.97777 0.28600
Dy	Dy	0.93351 0.61406 0.60353 1.76500
O 	O 	0.76380 0.52358 0.55577 -0.37700
O 	O 	0.76360 0.59936 0.64197 -0.37900
O 	O 	0.19010 0.73721 0.95270 -0.37700
O 	O 	0.01160 0.76896 0.91705 -0.40400
O 	O 	0.97230 0.70302 0.69722 -0.37500
O 	O 	0.97960 0.52009 0.69716 -0.37800
O 	O 	0.95780 0.61421 0.49960 -0.40600
O 	O 	0.00570 0.53296 0.42415 -0.41400
N 	N 	0.28060 0.35630 0.66761 -0.11900
N 	N 	0.20810 0.22170 0.95937 -0.11000
C 	C 	0.71780 0.54280 0.60025 0.32400
C 	C 	0.60990 0.49820 0.60154 -0.12300
C 	C 	0.55630 0.52100 0.64812 0.06700
H 	H 	0.58940 0.56510 0.67910 0.02000
C 	C 	0.45700 0.48110 0.65020 -0.15900
H 	H 	0.42220 0.49810 0.68240 0.08700
C 	C 	0.40690 0.41610 0.60580 0.13100
C 	C 	0.46090 0.39050 0.56060 -0.15900
H 	H 	0.42950 0.34420 0.53090 0.09200
C 	C 	0.56060 0.43180 0.55834 0.06900
H 	H 	0.59590 0.41410 0.52640 0.02500
C 	C 	0.29280 0.37880 0.60340 -0.14900
H 	H 	0.27970 0.32280 0.57700 0.08700
H 	H 	0.23560 0.42470 0.58360 0.08300
C 	C 	0.20720 0.40130 0.69203 0.08500
H 	H 	0.16130 0.44730 0.66780 0.00300
C 	C 	0.19730 0.38210 0.75050 -0.14300
H 	H 	0.14750 0.41730 0.76760 0.09600
C 	C 	0.25710 0.31370 0.78546 0.06700
C 	C 	0.33030 0.26410 0.75820 -0.12500
H 	H 	0.37280 0.21470 0.78040 0.07000
C 	C 	0.33990 0.28770 0.69910 0.06800
H 	H 	0.38950 0.25440 0.68070 0.01000
C 	C 	0.24280 0.28540 0.84807 0.03500
C 	C 	0.14970 0.31310 0.86836 -0.09600
H 	H 	0.09780 0.35530 0.84390 0.07700
C 	C 	0.13330 0.27920 0.92366 0.05000
H 	H 	0.06870 0.29650 0.93670 0.03800
C 	C 	0.30210 0.19850 0.94289 0.05800
H 	H 	0.35560 0.16020 0.97000 0.01600
C 	C 	0.32150 0.22840 0.88872 -0.10600
H 	H 	0.38820 0.21110 0.87780 0.06500
C 	C 	0.18480 0.17660 0.01482 -0.13600
H 	H 	0.24940 0.18360 0.05190 0.07100
H 	H 	0.11850 0.20470 0.02470 0.08300
C 	C 	0.16310 0.07470 0.99904 0.10500
C 	C 	0.07410 0.04870 0.95026 -0.12300
H 	H 	0.02350 0.09400 0.92850 0.07600
C 	C 	0.05760 0.95920 0.93279 0.01800
H 	H 	0.99610 0.94290 0.89870 0.05400
C 	C 	0.12920 0.89140 0.96404 -0.10100
C 	C 	0.22010 0.91600 0.01416 0.04100
H 	H 	0.26990 0.87040 0.03610 0.02400
C 	C 	0.23670 0.00850 0.03169 -0.13500
H 	H 	0.29780 0.02590 0.06560 0.07400
C 	C 	0.11030 0.79360 0.94443 0.32400
C 	C 	0.98820 0.54200 0.47777 0.28600
Dy	Dy	0.06649 0.61406 0.89647 1.75100
O 	O 	0.23620 0.52358 0.94423 -0.37700
O 	O 	0.23640 0.59936 0.85803 -0.38000
O 	O 	0.80990 0.73721 0.54730 -0.38100
O 	O 	0.98840 0.76896 0.58295 -0.39300
O 	O 	0.02770 0.70302 0.80278 -0.39000
O 	O 	0.02040 0.52009 0.80284 -0.39300
O 	O 	0.04220 0.61421 0.00040 -0.39400
O 	O 	0.99430 0.53296 0.07585 -0.37200
N 	N 	0.71940 0.35630 0.83239 -0.11700
N 	N 	0.79190 0.22170 0.54063 -0.10500
C 	C 	0.28220 0.54280 0.89975 0.32500
C 	C 	0.39010 0.49820 0.89846 -0.12500
C 	C 	0.44370 0.52100 0.85188 0.06900
H 	H 	0.41060 0.56510 0.82090 0.01900
C 	C 	0.54300 0.48110 0.84980 -0.16000
H 	H 	0.57780 0.49810 0.81760 0.08800
C 	C 	0.59310 0.41610 0.89420 0.13300
C 	C 	0.53910 0.39050 0.93940 -0.16100
H 	H 	0.57050 0.34420 0.96910 0.09300
C 	C 	0.43940 0.43180 0.94166 0.07100
H 	H 	0.40410 0.41410 0.97360 0.02400
C 	C 	0.70720 0.37880 0.89660 -0.15100
H 	H 	0.72030 0.32280 0.92300 0.09000
H 	H 	0.76440 0.42470 0.91640 0.08600
C 	C 	0.79280 0.40130 0.80797 0.08600
H 	H 	0.83870 0.44730 0.83220 0.01200
C 	C 	0.80270 0.38210 0.74950 -0.13800
H 	H 	0.85250 0.41730 0.73240 0.10000
C 	C 	0.74290 0.31370 0.71454 0.06900
C 	C 	0.66970 0.26410 0.74180 -0.12400
H 	H 	0.62720 0.21470 0.71960 0.07100
C 	C 	0.66010 0.28770 0.80090 0.07000
H 	H 	0.61050 0.25440 0.81930 0.01100
C 	C 	0.75720 0.28540 0.65193 0.03600
C 	C 	0.85030 0.31310 0.63164 -0.09200
H 	H 	0.90220 0.35530 0.65610 0.08100
C 	C 	0.86670 0.27920 0.57634 0.04800
H 	H 	0.93130 0.29650 0.56330 0.04700
C 	C 	0.69790 0.19850 0.55711 0.05700
H 	H 	0.64440 0.16020 0.53000 0.01700
C 	C 	0.67850 0.22840 0.61128 -0.10400
H 	H 	0.61180 0.21110 0.62220 0.06400
C 	C 	0.81520 0.17660 0.48518 -0.16200
H 	H 	0.75060 0.18360 0.44810 0.08000
H 	H 	0.88150 0.20470 0.47530 0.09900
C 	C 	0.83690 0.07470 0.50096 0.15000
C 	C 	0.92590 0.04870 0.54974 -0.18700
H 	H 	0.97650 0.09400 0.57150 0.10900
C 	C 	0.94240 0.95920 0.56721 0.12600
H 	H 	0.00390 0.94290 0.60130 -0.00700
C 	C 	0.87080 0.89140 0.53596 -0.14400
C 	C 	0.77990 0.91600 0.48584 0.08000
H 	H 	0.73010 0.87040 0.46390 0.01300
C 	C 	0.76330 0.00850 0.46831 -0.17000
H 	H 	0.70220 0.02590 0.43440 0.08700
C 	C 	0.88970 0.79360 0.55557 0.34400
C 	C 	0.01180 0.54200 0.02223 0.20300
C 	C 	-0.00000 0.33500 0.25000 0.24700
C 	C 	0.00000 0.44140 0.25000 0.22900
C 	C 	0.00000 0.66500 0.75000 0.24700
C 	C 	0.00000 0.55860 0.75000 0.22800
