data_crystal

_cell_length_a 15.02800
_cell_length_b 18.83110
_cell_length_c 31.19700
_cell_angle_alpha 100.27300
_cell_angle_beta  90.00000
_cell_angle_gamma 113.51700

_symmetry_space_group_name_	'P 1'
_symmetry_space_group_name_H-M	'P 1'

loop_
_symmetry_equiv_pos_as_xyz
  x,y,z

loop_
_atom_site_label
_atom_site_type_symbol
_atom_site_fract_x
_atom_site_fract_y
_atom_site_fract_z
_atom_site_charge
Zn	Zn	0.37358 0.92920 0.26424 1.16500
Zn	Zn	0.30591 0.32550 0.43655 1.16200
Zn	Zn	0.63164 0.50414 0.61406 1.16300
Zn	Zn	0.55562 0.92920 0.76424 1.16500
Zn	Zn	0.01959 0.32550 0.93655 1.15300
Zn	Zn	0.87250 0.50414 0.11406 1.16400
H 	H 	0.59630 0.01100 0.28150 -0.00400
H 	H 	0.72070 0.11560 0.32630 0.08500
H 	H 	0.51020 0.14840 0.39170 0.08800
H 	H 	0.38880 0.03180 0.35310 -0.00500
H 	H 	0.17970 0.39780 0.47390 -0.03500
H 	H 	0.01250 0.37540 0.47790 0.09400
H 	H 	0.95300 0.18740 0.38050 0.08200
H 	H 	0.11710 0.21140 0.38680 -0.01700
H 	H 	0.51910 0.34940 0.54310 -0.00600
H 	H 	0.57240 0.29940 0.48090 0.07700
H 	H 	0.84510 0.40440 0.52690 0.09600
H 	H 	0.79700 0.46840 0.58670 -0.00200
H 	H 	0.83020 0.63060 0.64160 -0.00700
H 	H 	0.96940 0.66000 0.68680 0.07700
H 	H 	0.82450 0.45880 0.73100 0.08300
H 	H 	0.68740 0.43980 0.68820 -0.01000
H 	H 	0.46720 0.79820 0.80990 -0.01600
H 	H 	0.32910 0.68360 0.80900 0.08400
H 	H 	0.22280 0.72860 0.70320 0.08200
H 	H 	0.36310 0.84380 0.71060 -0.01400
H 	H 	0.89710 0.34360 0.86230 -0.01700
H 	H 	0.91260 0.41460 0.80870 0.08300
H 	H 	0.18340 0.55160 0.86160 0.08300
H 	H 	0.16520 0.46260 0.90580 -0.02200
H 	H 	0.41470 0.01100 0.78150 -0.00400
H 	H 	0.39490 0.11560 0.82630 0.08300
H 	H 	0.63820 0.14840 0.89170 0.08900
H 	H 	0.64300 0.03180 0.85310 -0.00400
H 	H 	0.21810 0.39780 0.97390 -0.03700
H 	H 	0.36290 0.37540 0.97790 0.09000
H 	H 	0.23440 0.18740 0.88050 0.08700
H 	H 	0.09430 0.21140 0.88680 -0.03000
H 	H 	0.83030 0.34940 0.04310 0.02000
H 	H 	0.72700 0.29940 0.98090 0.02800
H 	H 	0.55930 0.40440 0.02690 0.07400
H 	H 	0.67140 0.46840 0.08670 0.01100
H 	H 	0.80040 0.63060 0.14160 -0.00700
H 	H 	0.69060 0.66000 0.18680 0.07200
H 	H 	0.63430 0.45880 0.23100 0.08300
H 	H 	0.75240 0.43980 0.18820 -0.01000
H 	H 	0.33100 0.79820 0.30990 -0.01700
H 	H 	0.35450 0.68360 0.30900 0.08300
H 	H 	0.50580 0.72860 0.20320 0.08700
H 	H 	0.48070 0.84380 0.21060 -0.01200
H 	H 	0.44650 0.34360 0.36230 -0.01500
H 	H 	0.50200 0.41460 0.30870 0.09100
H 	H 	0.36820 0.55160 0.36160 0.08800
H 	H 	0.29740 0.46260 0.40580 -0.02500
C 	C 	0.57860 0.03820 0.30640 0.07200
C 	C 	0.65480 0.09760 0.33330 -0.12100
C 	C 	0.62590 0.12780 0.37110 0.04600
C 	C 	0.52800 0.11260 0.37190 -0.11500
C 	C 	0.45480 0.04920 0.34630 0.05200
C 	C 	0.70490 0.19360 0.40240 0.09000
C 	C 	0.85940 0.25980 0.43120 0.09200
C 	C 	0.74460 0.29360 0.46010 0.09800
C 	C 	0.13210 0.35200 0.45600 0.11400
C 	C 	0.03220 0.34040 0.45850 -0.18000
C 	C 	0.96540 0.27320 0.43010 0.10500
C 	C 	0.99640 0.22920 0.40210 -0.11900
C 	C 	0.09520 0.24600 0.40530 0.05400
C 	C 	0.58660 0.36460 0.53950 0.06500
C 	C 	0.62030 0.33160 0.50400 -0.12200
C 	C 	0.71020 0.33820 0.49730 0.06400
C 	C 	0.77790 0.39300 0.52920 -0.11400
C 	C 	0.74890 0.43180 0.56460 0.06300
C 	C 	0.82910 0.59600 0.66060 0.06400
C 	C 	0.91350 0.61220 0.68530 -0.11300
C 	C 	0.91260 0.55520 0.70790 0.05300
C 	C 	0.82740 0.49360 0.71190 -0.12100
C 	C 	0.74630 0.48420 0.68730 0.07600
C 	C 	0.99790 0.57000 0.73920 0.12200
C 	C 	0.15690 0.63540 0.76090 0.08900
C 	C 	0.06560 0.53460 0.79140 0.08700
C 	C 	0.41560 0.78420 0.78820 0.07800
C 	C 	0.33290 0.71720 0.78910 -0.12900
C 	C 	0.25480 0.70120 0.75920 0.06200
C 	C 	0.26970 0.74360 0.72720 -0.14400
C 	C 	0.35640 0.81020 0.73090 0.10100
C 	C 	0.95970 0.38300 0.86000 0.11000
C 	C 	0.96640 0.42700 0.82890 -0.10200
C 	C 	0.05250 0.48920 0.82770 0.04700
C 	C 	0.12500 0.50520 0.85880 -0.12500
C 	C 	0.11160 0.45260 0.88600 0.07600
C 	C 	0.45960 0.03820 0.80640 0.07200
C 	C 	0.44280 0.09760 0.83330 -0.12000
C 	C 	0.50190 0.12780 0.87110 0.04500
C 	C 	0.58460 0.11260 0.87190 -0.11500
C 	C 	0.59440 0.04920 0.84630 0.05200
C 	C 	0.48870 0.19360 0.90240 0.08800
C 	C 	0.40040 0.25980 0.93120 0.08900
C 	C 	0.54900 0.29360 0.96010 0.12100
C 	C 	0.21990 0.35200 0.95600 0.10700
C 	C 	0.30820 0.34040 0.95850 -0.15100
C 	C 	0.30780 0.27320 0.93010 0.08300
C 	C 	0.23280 0.22920 0.90210 -0.15600
C 	C 	0.15080 0.24600 0.90530 0.09000
C 	C 	0.77800 0.36460 0.03950 0.00800
C 	C 	0.71130 0.33160 0.00400 -0.00200
C 	C 	0.62800 0.33820 0.99730 -0.03400
C 	C 	0.61510 0.39300 0.02920 -0.04000
C 	C 	0.68290 0.43180 0.06460 0.02500
C 	C 	0.76690 0.59600 0.16060 0.06600
C 	C 	0.69870 0.61220 0.18530 -0.11700
C 	C 	0.64260 0.55520 0.20790 0.05700
C 	C 	0.66620 0.49360 0.21190 -0.12500
C 	C 	0.73790 0.48420 0.18730 0.07800
C 	C 	0.57210 0.57000 0.23920 0.09500
C 	C 	0.47850 0.63540 0.26090 0.09200
C 	C 	0.46900 0.53460 0.29140 0.10100
C 	C 	0.36860 0.78420 0.28820 0.07800
C 	C 	0.38430 0.71720 0.28910 -0.12900
C 	C 	0.44640 0.70120 0.25920 0.06300
C 	C 	0.47390 0.74360 0.22720 -0.14400
C 	C 	0.45380 0.81020 0.23090 0.10200
C 	C 	0.42330 0.38300 0.36000 0.09300
C 	C 	0.46060 0.42700 0.32890 -0.14000
C 	C 	0.43670 0.48920 0.32770 0.08300
C 	C 	0.38020 0.50520 0.35880 -0.13900
C 	C 	0.34100 0.45260 0.38600 0.08900
I 	I 	0.21431 0.89564 0.30139 -0.38100
I 	I 	0.40676 0.97550 0.19279 -0.36400
I 	I 	0.33697 0.20216 0.41244 -0.38700
I 	I 	0.37926 0.41772 0.51087 -0.39800
I 	I 	0.65790 0.62164 0.58121 -0.35900
I 	I 	0.48196 0.42638 0.65157 -0.36900
I 	I 	0.68133 0.89564 0.80139 -0.36600
I 	I 	0.56874 0.97550 0.69279 -0.36400
I 	I 	0.86519 0.20216 0.91244 -0.37100
I 	I 	0.03846 0.41772 0.01087 -0.40400
I 	I 	0.96374 0.62164 0.08121 -0.32900
I 	I 	0.94442 0.42638 0.15157 -0.34500
N 	N 	0.48250 0.01380 0.31090 -0.26900
N 	N 	0.79830 0.20580 0.39850 -0.13800
N 	N 	0.83980 0.30980 0.46240 -0.12700
N 	N 	0.67360 0.23140 0.43510 -0.14100
N 	N 	0.16090 0.30680 0.43230 -0.29000
N 	N 	0.65540 0.41980 0.56900 -0.26800
N 	N 	0.74630 0.53420 0.66230 -0.26500
N 	N 	0.08450 0.62300 0.73220 -0.16500
N 	N 	0.15380 0.59000 0.78940 -0.13500
N 	N 	0.98640 0.52140 0.76660 -0.12600
N 	N 	0.42830 0.83020 0.75930 -0.28400
N 	N 	0.03110 0.38920 0.88740 -0.29600
N 	N 	0.53130 0.01380 0.81090 -0.26900
N 	N 	0.40750 0.20580 0.89850 -0.14000
N 	N 	0.47000 0.30980 0.96240 -0.13900
N 	N 	0.55780 0.23140 0.93510 -0.14600
N 	N 	0.14590 0.30680 0.93230 -0.29800
N 	N 	0.76440 0.41980 0.06900 -0.25000
N 	N 	0.78790 0.53420 0.16230 -0.26500
N 	N 	0.53850 0.62300 0.23220 -0.14700
N 	N 	0.43620 0.59000 0.28940 -0.13700
N 	N 	0.53500 0.52140 0.26660 -0.13800
N 	N 	0.40190 0.83020 0.25930 -0.28500
N 	N 	0.35810 0.38920 0.38740 -0.28200
Zn	Zn	0.65479 0.02016 0.48316 1.16100
Zn	Zn	0.04112 0.83936 0.80078 1.15300
Zn	Zn	0.11297 0.41086 0.65036 1.16100
Zn	Zn	0.36537 0.02016 0.98316 1.15400
Zn	Zn	0.79824 0.83936 0.30078 1.16000
Zn	Zn	0.29789 0.41086 0.15036 1.16600
H 	H 	0.75560 0.01540 0.55960 -0.04100
H 	H 	0.73420 0.95140 0.61710 0.09800
H 	H 	0.47130 0.81480 0.56890 0.08700
H 	H 	0.49300 0.87380 0.50920 -0.01800
H 	H 	0.83340 0.70440 0.76970 -0.00600
H 	H 	0.69600 0.69780 0.73270 0.07700
H 	H 	0.84750 0.89800 0.69740 0.08100
H 	H 	0.98030 0.91380 0.74100 -0.00800
H 	H 	0.24950 0.49560 0.59200 -0.01600
H 	H 	0.39060 0.60340 0.58670 0.08800
H 	H 	0.43740 0.61980 0.71370 0.07700
H 	H 	0.28950 0.51960 0.71790 -0.00400
H 	H 	0.26680 0.35500 0.63180 0.00200
H 	H 	0.30440 0.26740 0.58040 0.08100
H 	H 	0.03840 0.20320 0.51610 0.08000
H 	H 	0.00400 0.27820 0.57670 -0.01300
H 	H 	0.47160 0.98020 0.42870 0.00200
H 	H 	0.32630 0.99060 0.43240 0.10200
H 	H 	0.43390 0.15040 0.54170 0.07500
H 	H 	0.57810 0.13420 0.53880 -0.00400
H 	H 	0.85340 0.98320 0.36860 -0.01500
H 	H 	0.96510 0.07400 0.42550 0.07700
H 	H 	0.10550 0.92080 0.40280 0.08900
H 	H 	0.98300 0.83780 0.34670 -0.00200
H 	H 	0.25980 0.01540 0.05960 -0.04300
H 	H 	0.21720 0.95140 0.11710 0.09400
H 	H 	0.34350 0.81480 0.06890 0.09000
H 	H 	0.38080 0.87380 0.00920 -0.01100
H 	H 	0.87100 0.70440 0.26970 0.00900
H 	H 	0.00180 0.69780 0.23270 0.02100
H 	H 	0.05050 0.89800 0.19740 0.07800
H 	H 	0.93350 0.91380 0.24100 -0.01800
H 	H 	0.24610 0.49560 0.09200 -0.01100
H 	H 	0.21280 0.60340 0.08670 0.08800
H 	H 	0.18240 0.61980 0.21370 0.07500
H 	H 	0.23010 0.51960 0.21790 -0.00500
H 	H 	0.08820 0.35500 0.13180 -0.01100
H 	H 	0.96300 0.26740 0.08040 0.11300
H 	H 	0.16480 0.20320 0.01610 0.08600
H 	H 	0.27420 0.27820 0.07670 -0.00200
H 	H 	0.50860 0.98020 0.92870 0.00400
H 	H 	0.66430 0.99060 0.93240 0.10100
H 	H 	0.71650 0.15040 0.04170 0.07200
H 	H 	0.55610 0.13420 0.03880 -0.00500
H 	H 	0.12980 0.98320 0.86860 -0.01300
H 	H 	0.10890 0.07400 0.92550 0.08000
H 	H 	0.81530 0.92080 0.90280 0.08400
H 	H 	0.85480 0.83780 0.84670 0.00400
C 	C 	0.69590 0.97180 0.56040 0.11700
C 	C 	0.68620 0.93000 0.59310 -0.13900
C 	C 	0.61080 0.85940 0.59240 0.07800
C 	C 	0.53460 0.85080 0.56460 -0.13100
C 	C 	0.54440 0.89080 0.53140 0.09500
C 	C 	0.60440 0.80620 0.62220 0.10300
C 	C 	0.67060 0.77540 0.67810 0.09100
C 	C 	0.51250 0.70540 0.65480 0.09300
C 	C 	0.83660 0.74580 0.75530 0.08200
C 	C 	0.75720 0.73880 0.73030 -0.12100
C 	C 	0.76140 0.78760 0.70210 0.05600
C 	C 	0.84410 0.85560 0.71080 -0.10800
C 	C 	0.92270 0.86660 0.73770 0.06600
C 	C 	0.28630 0.52600 0.61860 0.07400
C 	C 	0.37100 0.59020 0.61430 -0.12400
C 	C 	0.42450 0.63340 0.65310 0.05200
C 	C 	0.39380 0.59860 0.68810 -0.12000
C 	C 	0.30680 0.53620 0.69090 0.07700
C 	C 	0.21950 0.32160 0.60860 0.06600
C 	C 	0.24120 0.26740 0.57980 -0.10800
C 	C 	0.16170 0.20880 0.54760 0.03500
C 	C 	0.08140 0.22620 0.54180 -0.11900
C 	C 	0.06740 0.27860 0.57530 0.06700
C 	C 	0.17740 0.15140 0.51340 0.08700
C 	C 	0.26680 0.07900 0.49310 0.10000
C 	C 	0.12170 0.05460 0.45320 0.10500
C 	C 	0.46240 0.01260 0.45380 0.06000
C 	C 	0.37500 0.01880 0.45580 -0.14200
C 	C 	0.35590 0.06400 0.49050 0.05800
C 	C 	0.43850 0.11080 0.51940 -0.11000
C 	C 	0.52550 0.10280 0.51750 0.05600
C 	C 	0.90730 0.97260 0.37650 0.08500
C 	C 	0.97150 0.02840 0.40990 -0.10600
C 	C 	0.05000 0.00420 0.41700 0.01200
C 	C 	0.05420 0.93480 0.39540 -0.12000
C 	C 	0.98130 0.88520 0.36240 0.10200
C 	C 	0.27590 0.97180 0.06040 0.11500
C 	C 	0.24380 0.93000 0.09310 -0.13900
C 	C 	0.24860 0.85940 0.09240 0.07600
C 	C 	0.31620 0.85080 0.06460 -0.13000
C 	C 	0.34640 0.89080 0.03140 0.09500
C 	C 	0.20180 0.80620 0.12220 0.10000
C 	C 	0.10480 0.77540 0.17810 0.10400
C 	C 	0.19290 0.70540 0.15480 0.09100
C 	C 	0.90920 0.74580 0.25530 0.03500
C 	C 	0.98160 0.73880 0.23030 -0.01000
C 	C 	0.02620 0.78760 0.20210 -0.00200
C 	C 	0.01150 0.85560 0.21080 -0.12600
C 	C 	0.94390 0.86660 0.23770 0.09000
C 	C 	0.23970 0.52600 0.11860 0.07400
C 	C 	0.21920 0.59020 0.11430 -0.12400
C 	C 	0.20890 0.63340 0.15310 0.05000
C 	C 	0.20480 0.59860 0.18810 -0.12100
C 	C 	0.22940 0.53620 0.19090 0.07500
C 	C 	0.10210 0.32160 0.10860 0.08600
C 	C 	0.02620 0.26740 0.07980 -0.15100
C 	C 	0.04710 0.20880 0.04760 0.01400
C 	C 	0.14480 0.22620 0.04180 -0.10700
C 	C 	0.21120 0.27860 0.07530 0.06600
C 	C 	0.97400 0.15140 0.01340 0.15100
C 	C 	0.81220 0.07900 0.99310 0.09400
C 	C 	0.93290 0.05460 0.95320 0.12300
C 	C 	0.55020 0.01260 0.95380 0.05200
C 	C 	0.64380 0.01880 0.95580 -0.13500
C 	C 	0.70810 0.06400 0.99050 0.03800
C 	C 	0.67230 0.11080 0.01940 -0.08500
C 	C 	0.57730 0.10280 0.01750 0.06700
C 	C 	0.06530 0.97260 0.87650 0.06200
C 	C 	0.05690 0.02840 0.90990 -0.15800
C 	C 	0.95420 0.00420 0.91700 0.05200
C 	C 	0.88060 0.93480 0.89540 -0.08800
C 	C 	0.90390 0.88520 0.86240 0.06900
I 	I 	0.64190 0.93470 0.40954 -0.39100
I 	I 	0.80290 0.14826 0.51238 -0.36200
I 	I 	0.18881 0.91624 0.76467 -0.39600
I 	I 	0.01391 0.71826 0.83533 -0.37600
I 	I 	0.98741 0.44558 0.61450 -0.35000
I 	I 	0.10151 0.36520 0.72329 -0.38300
I 	I 	0.29280 0.93470 0.90954 -0.40400
I 	I 	0.34536 0.14826 0.01238 -0.35700
I 	I 	0.72743 0.91624 0.26467 -0.37600
I 	I 	0.70435 0.71826 0.33533 -0.34000
I 	I 	0.45817 0.44558 0.11450 -0.37500
I 	I 	0.26369 0.36520 0.22329 -0.37200
N 	N 	0.62570 0.95360 0.53020 -0.28800
N 	N 	0.68200 0.82060 0.64840 -0.13300
N 	N 	0.58770 0.71420 0.68130 -0.14500
N 	N 	0.52090 0.74560 0.62310 -0.13500
N 	N 	0.91660 0.81020 0.75900 -0.26300
N 	N 	0.24840 0.50040 0.65490 -0.27800
N 	N 	0.13600 0.32980 0.60580 -0.28200
N 	N 	0.26080 0.14000 0.51950 -0.13800
N 	N 	0.19750 0.03540 0.46050 -0.13600
N 	N 	0.10550 0.10640 0.48340 -0.14700
N 	N 	0.53480 0.04860 0.48420 -0.26900
N 	N 	0.90990 0.90660 0.35380 -0.25800
N 	N 	0.32790 0.95360 0.03020 -0.28300
N 	N 	0.13860 0.82060 0.14840 -0.13800
N 	N 	0.12650 0.71420 0.18130 -0.15100
N 	N 	0.22470 0.74560 0.12310 -0.13500
N 	N 	0.89360 0.81020 0.25900 -0.26200
N 	N 	0.25200 0.50040 0.15490 -0.27600
N 	N 	0.19380 0.32980 0.10580 -0.28300
N 	N 	0.87920 0.14000 0.01950 -0.13400
N 	N 	0.83790 0.03540 0.96050 -0.13900
N 	N 	0.00090 0.10640 0.98340 -0.18600
N 	N 	0.51380 0.04860 0.98420 -0.27900
N 	N 	0.99670 0.90660 0.85380 -0.23500
