data_crystal

_cell_length_a 14.76700
_cell_length_b 18.58140
_cell_length_c 30.70000
_cell_angle_alpha 98.98790
_cell_angle_beta  90.00000
_cell_angle_gamma 113.41300

_symmetry_space_group_name_	'P 1'
_symmetry_space_group_name_H-M	'P 1'

loop_
_symmetry_equiv_pos_as_xyz
  x,y,z

loop_
_atom_site_label
_atom_site_type_symbol
_atom_site_fract_x
_atom_site_fract_y
_atom_site_fract_z
_atom_site_charge
Zn	Zn	0.02462 0.25888 0.55846 1.16300
Zn	Zn	0.97113 0.65722 0.73178 1.16300
Zn	Zn	0.29433 0.84334 0.90222 1.16500
Zn	Zn	0.23426 0.25888 0.05846 1.16400
Zn	Zn	0.68609 0.65722 0.23178 1.16500
Zn	Zn	0.54901 0.84334 0.40222 1.16500
H 	H 	0.04520 0.37240 0.64400 -0.00300
H 	H 	0.16590 0.47380 0.69110 0.09700
H 	H 	0.37120 0.42700 0.62010 0.08800
H 	H 	0.24190 0.32700 0.57360 -0.00500
H 	H 	0.46570 0.83040 0.86190 -0.00900
H 	H 	0.51380 0.75460 0.80560 0.09000
H 	H 	0.22340 0.61120 0.77820 0.07700
H 	H 	0.18490 0.68780 0.83570 -0.00600
H 	H 	0.78110 0.53980 0.67760 -0.01400
H 	H 	0.61600 0.51880 0.66890 0.08400
H 	H 	0.67060 0.70820 0.76460 0.08600
H 	H 	0.83210 0.72200 0.77140 -0.01400
H 	H 	0.34800 0.77300 0.97270 -0.01500
H 	H 	0.48180 0.78740 0.01790 0.08400
H 	H 	0.64170 0.98860 0.97350 0.07800
H 	H 	0.50230 0.97160 0.93080 -0.01100
H 	H 	0.84370 0.75980 0.18010 -0.01800
H 	H 	0.86300 0.83660 0.12620 0.08900
H 	H 	0.56990 0.76600 0.11560 0.09200
H 	H 	0.55700 0.69240 0.17000 -0.02000
H 	H 	0.05730 0.16020 0.99070 0.00300
H 	H 	0.90460 0.05200 0.98900 0.07300
H 	H 	0.96210 0.04460 0.11560 0.08500
H 	H 	0.11360 0.14700 0.11490 -0.01300
H 	H 	0.32720 0.37240 0.14400 -0.00400
H 	H 	0.30790 0.47380 0.19110 0.09600
H 	H 	0.05580 0.42700 0.12010 0.08800
H 	H 	0.08510 0.32700 0.07360 -0.00500
H 	H 	0.36470 0.83040 0.36190 -0.00900
H 	H 	0.24080 0.75460 0.30560 0.09100
H 	H 	0.38780 0.61120 0.27820 0.07700
H 	H 	0.50290 0.68780 0.33570 -0.00600
H 	H 	0.75870 0.53980 0.17760 -0.01400
H 	H 	0.90280 0.51880 0.16890 0.08400
H 	H 	0.03760 0.70820 0.26460 0.08600
H 	H 	0.88990 0.72200 0.27140 -0.01300
H 	H 	0.42500 0.77300 0.47270 -0.01500
H 	H 	0.30560 0.78740 0.51790 0.08500
H 	H 	0.34690 0.98860 0.47350 0.07800
H 	H 	0.46930 0.97160 0.43080 -0.01100
H 	H 	0.91610 0.75980 0.68010 -0.01500
H 	H 	0.97360 0.83660 0.62620 0.08300
H 	H 	0.19610 0.76600 0.61560 0.09100
H 	H 	0.13540 0.69240 0.67000 -0.01900
H 	H 	0.10290 0.16020 0.49070 -0.00000
H 	H 	0.14740 0.05200 0.48900 0.07600
H 	H 	0.08250 0.04460 0.61560 0.08600
H 	H 	0.03340 0.14700 0.61490 -0.01500
C 	C 	0.11260 0.38460 0.63870 0.07400
C 	C 	0.18390 0.44440 0.66710 -0.13400
C 	C 	0.28070 0.46100 0.66080 0.05700
C 	C 	0.30430 0.41720 0.62550 -0.12700
C 	C 	0.22630 0.35780 0.59780 0.08500
C 	C 	0.35990 0.52580 0.69140 0.08500
C 	C 	0.40100 0.62760 0.74920 0.10300
C 	C 	0.51910 0.59740 0.71490 0.10000
C 	C 	0.41610 0.78420 0.84510 0.07600
C 	C 	0.44600 0.74020 0.81090 -0.11500
C 	C 	0.37260 0.67520 0.78550 0.05500
C 	C 	0.27460 0.65580 0.79530 -0.12000
C 	C 	0.25220 0.70120 0.82950 0.05900
C 	C 	0.75830 0.57480 0.69570 0.08600
C 	C 	0.65910 0.56140 0.69030 -0.13200
C 	C 	0.62440 0.61020 0.71610 0.06600
C 	C 	0.69140 0.67220 0.74640 -0.12200
C 	C 	0.78750 0.68040 0.74990 0.06700
C 	C 	0.40860 0.81780 0.97290 0.07600
C 	C 	0.48780 0.82620 0.00020 -0.12900
C 	C 	0.57400 0.89060 0.00130 0.06400
C 	C 	0.58100 0.94420 0.97440 -0.13000
C 	C 	0.49810 0.93260 0.94840 0.08300
C 	C 	0.66220 0.90060 0.02910 0.08400
C 	C 	0.72720 0.86320 0.08330 0.09800
C 	C 	0.82190 0.96640 0.05160 0.09200
C 	C 	0.78660 0.76200 0.16720 0.08600
C 	C 	0.79890 0.80780 0.13530 -0.13200
C 	C 	0.71670 0.81180 0.11630 0.08200
C 	C 	0.62830 0.76700 0.12910 -0.13800
C 	C 	0.62100 0.72260 0.16140 0.09200
C 	C 	0.03770 0.13580 0.01600 0.05200
C 	C 	0.94740 0.07120 0.01510 -0.10300
C 	C 	0.91980 0.03540 0.05050 0.04700
C 	C 	0.98160 0.06640 0.08940 -0.11500
C 	C 	0.06980 0.12820 0.08910 0.07100
C 	C 	0.27200 0.38460 0.13870 0.07400
C 	C 	0.26050 0.44440 0.16710 -0.13400
C 	C 	0.18030 0.46100 0.16080 0.05600
C 	C 	0.11290 0.41720 0.12550 -0.12700
C 	C 	0.13150 0.35780 0.09780 0.08500
C 	C 	0.16590 0.52580 0.19140 0.08500
C 	C 	0.22660 0.62760 0.24920 0.10300
C 	C 	0.07830 0.59740 0.21490 0.09900
C 	C 	0.36810 0.78420 0.34510 0.07600
C 	C 	0.29420 0.74020 0.31090 -0.11500
C 	C 	0.30260 0.67520 0.28550 0.05500
C 	C 	0.38120 0.65580 0.29530 -0.12000
C 	C 	0.44900 0.70120 0.32950 0.05900
C 	C 	0.81650 0.57480 0.19570 0.08700
C 	C 	0.90230 0.56140 0.19030 -0.13200
C 	C 	0.98580 0.61020 0.21610 0.06700
C 	C 	0.98080 0.67220 0.24640 -0.12300
C 	C 	0.89290 0.68040 0.24990 0.06800
C 	C 	0.40920 0.81780 0.47290 0.07500
C 	C 	0.33840 0.82620 0.50020 -0.12900
C 	C 	0.31660 0.89060 0.50130 0.06400
C 	C 	0.36320 0.94420 0.47440 -0.13000
C 	C 	0.43450 0.93260 0.44840 0.08300
C 	C 	0.23840 0.90060 0.52910 0.08400
C 	C 	0.13600 0.86320 0.58330 0.10100
C 	C 	0.14450 0.96640 0.55160 0.09400
C 	C 	0.97540 0.76200 0.66720 0.07600
C 	C 	0.00890 0.80780 0.63530 -0.11800
C 	C 	0.09510 0.81180 0.61630 0.07600
C 	C 	0.13870 0.76700 0.62910 -0.13300
C 	C 	0.10160 0.72260 0.66140 0.08900
C 	C 	0.09810 0.13580 0.51600 0.06100
C 	C 	0.12380 0.07120 0.51510 -0.11200
C 	C 	0.11560 0.03540 0.55050 0.04900
C 	C 	0.08480 0.06640 0.58940 -0.12200
C 	C 	0.05840 0.12820 0.58910 0.07800
I 	I 	0.86564 0.21778 0.59862 -0.37600
I 	I 	0.05380 0.30922 0.48637 -0.37600
I 	I 	0.99846 0.53134 0.70868 -0.38200
I 	I 	0.03622 0.75142 0.80527 -0.40200
I 	I 	0.14142 0.76590 0.93943 -0.37300
I 	I 	0.33132 0.96494 0.86567 -0.35000
I 	I 	0.35214 0.21778 0.09862 -0.37800
I 	I 	0.25542 0.30922 0.98637 -0.37500
I 	I 	0.53288 0.53134 0.20868 -0.38100
I 	I 	0.71520 0.75142 0.30527 -0.40500
I 	I 	0.62448 0.76590 0.43943 -0.37500
I 	I 	0.63362 0.96494 0.36567 -0.35200
N 	N 	0.13390 0.34280 0.60340 -0.27600
N 	N 	0.32790 0.56560 0.72410 -0.13900
N 	N 	0.49660 0.64660 0.74620 -0.13400
N 	N 	0.45400 0.53860 0.68540 -0.13800
N 	N 	0.32410 0.76520 0.85520 -0.27000
N 	N 	0.82170 0.63280 0.72430 -0.27600
N 	N 	0.41390 0.87020 0.94700 -0.27300
N 	N 	0.64770 0.85160 0.05820 -0.13500
N 	N 	0.81720 0.92020 0.08110 -0.13700
N 	N 	0.74880 0.95900 0.02400 -0.14900
N 	N 	0.09730 0.16320 0.05390 -0.26400
N 	N 	0.69850 0.71960 0.18130 -0.28300
N 	N 	0.20890 0.34280 0.10340 -0.27600
N 	N 	0.23770 0.56560 0.22410 -0.13900
N 	N 	0.15000 0.64660 0.24620 -0.13400
N 	N 	0.08460 0.53860 0.18540 -0.13800
N 	N 	0.44110 0.76520 0.35520 -0.27000
N 	N 	0.81110 0.63280 0.22430 -0.27600
N 	N 	0.45630 0.87020 0.44700 -0.27300
N 	N 	0.20390 0.85160 0.55820 -0.13500
N 	N 	0.10300 0.92020 0.58110 -0.13600
N 	N 	0.21020 0.95900 0.52400 -0.14900
N 	N 	0.06590 0.16320 0.55390 -0.26600
N 	N 	0.02110 0.71960 0.68130 -0.28000
Zn	Zn	0.76574 0.74112 0.94154 1.16400
Zn	Zn	0.31391 0.34278 0.76822 1.16500
Zn	Zn	0.45099 0.15666 0.59778 1.16500
Zn	Zn	0.97538 0.74112 0.44154 1.16400
Zn	Zn	0.02887 0.34278 0.26822 1.16400
Zn	Zn	0.70567 0.15666 0.09778 1.16500
H 	H 	0.67280 0.62760 0.85600 -0.00400
H 	H 	0.69210 0.52620 0.80890 0.09600
H 	H 	0.94420 0.57300 0.87990 0.08800
H 	H 	0.91490 0.67300 0.92640 -0.00500
H 	H 	0.63530 0.16960 0.63810 -0.00900
H 	H 	0.75920 0.24540 0.69440 0.09100
H 	H 	0.61220 0.38880 0.72180 0.07700
H 	H 	0.49710 0.31220 0.66430 -0.00600
H 	H 	0.24130 0.46020 0.82240 -0.01400
H 	H 	0.09720 0.48120 0.83110 0.08400
H 	H 	0.96240 0.29180 0.73540 0.08600
H 	H 	0.11010 0.27800 0.72860 -0.01300
H 	H 	0.57500 0.22700 0.52730 -0.01500
H 	H 	0.69440 0.21260 0.48210 0.08500
H 	H 	0.65310 0.01140 0.52650 0.07800
H 	H 	0.53070 0.02840 0.56920 -0.01100
H 	H 	0.08390 0.24020 0.31990 -0.01500
H 	H 	0.02640 0.16340 0.37380 0.08300
H 	H 	0.80390 0.23400 0.38440 0.09100
H 	H 	0.86460 0.30760 0.33000 -0.01900
H 	H 	0.89710 0.83980 0.50930 -0.00000
H 	H 	0.85260 0.94800 0.51100 0.07600
H 	H 	0.91750 0.95540 0.38440 0.08600
H 	H 	0.96660 0.85300 0.38510 -0.01500
H 	H 	0.95480 0.62760 0.35600 -0.00300
H 	H 	0.83410 0.52620 0.30890 0.09700
H 	H 	0.62880 0.57300 0.37990 0.08800
H 	H 	0.75810 0.67300 0.42640 -0.00500
H 	H 	0.53430 0.16960 0.13810 -0.00900
H 	H 	0.48620 0.24540 0.19440 0.09000
H 	H 	0.77660 0.38880 0.22180 0.07700
H 	H 	0.81510 0.31220 0.16430 -0.00600
H 	H 	0.21890 0.46020 0.32240 -0.01400
H 	H 	0.38400 0.48120 0.33110 0.08400
H 	H 	0.32940 0.29180 0.23540 0.08600
H 	H 	0.16790 0.27800 0.22860 -0.01400
H 	H 	0.65200 0.22700 0.02730 -0.01500
H 	H 	0.51820 0.21260 0.98210 0.08400
H 	H 	0.35830 0.01140 0.02650 0.07800
H 	H 	0.49770 0.02840 0.06920 -0.01100
H 	H 	0.15630 0.24020 0.81990 -0.01800
H 	H 	0.13700 0.16340 0.87380 0.08900
H 	H 	0.43010 0.23400 0.88440 0.09200
H 	H 	0.44300 0.30760 0.83000 -0.02000
H 	H 	0.94270 0.83980 0.00930 0.00300
H 	H 	0.09540 0.94800 0.01100 0.07300
H 	H 	0.03790 0.95540 0.88440 0.08500
H 	H 	0.88640 0.85300 0.88510 -0.01300
C 	C 	0.72800 0.61540 0.86130 0.07400
C 	C 	0.73950 0.55560 0.83290 -0.13400
C 	C 	0.81970 0.53900 0.83920 0.05600
C 	C 	0.88710 0.58280 0.87450 -0.12700
C 	C 	0.86850 0.64220 0.90220 0.08500
C 	C 	0.83410 0.47420 0.80860 0.08500
C 	C 	0.77340 0.37240 0.75080 0.10300
C 	C 	0.92170 0.40260 0.78510 0.09900
C 	C 	0.63190 0.21580 0.65490 0.07600
C 	C 	0.70580 0.25980 0.68910 -0.11500
C 	C 	0.69740 0.32480 0.71450 0.05500
C 	C 	0.61880 0.34420 0.70470 -0.12000
C 	C 	0.55100 0.29880 0.67050 0.05900
C 	C 	0.18350 0.42520 0.80430 0.08700
C 	C 	0.09770 0.43860 0.80970 -0.13200
C 	C 	0.01420 0.38980 0.78390 0.06700
C 	C 	0.01920 0.32780 0.75360 -0.12300
C 	C 	0.10710 0.31960 0.75010 0.06800
C 	C 	0.59080 0.18220 0.52710 0.07500
C 	C 	0.66160 0.17380 0.49980 -0.12900
C 	C 	0.68340 0.10940 0.49870 0.06400
C 	C 	0.63680 0.05580 0.52560 -0.13000
C 	C 	0.56550 0.06740 0.55160 0.08300
C 	C 	0.76160 0.09940 0.47090 0.08400
C 	C 	0.86400 0.13680 0.41670 0.10100
C 	C 	0.85550 0.03360 0.44840 0.09400
C 	C 	0.02460 0.23800 0.33280 0.07600
C 	C 	0.99110 0.19220 0.36470 -0.11800
C 	C 	0.90490 0.18820 0.38370 0.07600
C 	C 	0.86130 0.23300 0.37090 -0.13300
C 	C 	0.89840 0.27740 0.33860 0.08900
C 	C 	0.90190 0.86420 0.48400 0.06100
C 	C 	0.87620 0.92880 0.48490 -0.11200
C 	C 	0.88440 0.96460 0.44950 0.04900
C 	C 	0.91520 0.93360 0.41060 -0.12200
C 	C 	0.94160 0.87180 0.41090 0.07800
C 	C 	0.88740 0.61540 0.36130 0.07400
C 	C 	0.81610 0.55560 0.33290 -0.13400
C 	C 	0.71930 0.53900 0.33920 0.05700
C 	C 	0.69570 0.58280 0.37450 -0.12700
C 	C 	0.77370 0.64220 0.40220 0.08500
C 	C 	0.64010 0.47420 0.30860 0.08500
C 	C 	0.59900 0.37240 0.25080 0.10300
C 	C 	0.48090 0.40260 0.28510 0.10000
C 	C 	0.58390 0.21580 0.15490 0.07600
C 	C 	0.55400 0.25980 0.18910 -0.11500
C 	C 	0.62740 0.32480 0.21450 0.05500
C 	C 	0.72540 0.34420 0.20470 -0.12000
C 	C 	0.74780 0.29880 0.17050 0.05900
C 	C 	0.24170 0.42520 0.30430 0.08600
C 	C 	0.34090 0.43860 0.30970 -0.13200
C 	C 	0.37560 0.38980 0.28390 0.06600
C 	C 	0.30860 0.32780 0.25360 -0.12200
C 	C 	0.21250 0.31960 0.25010 0.06700
C 	C 	0.59140 0.18220 0.02710 0.07600
C 	C 	0.51220 0.17380 0.99980 -0.12900
C 	C 	0.42600 0.10940 0.99870 0.06400
C 	C 	0.41900 0.05580 0.02560 -0.13000
C 	C 	0.50190 0.06740 0.05160 0.08300
C 	C 	0.33780 0.09940 0.97090 0.08400
C 	C 	0.27280 0.13680 0.91670 0.09800
C 	C 	0.17810 0.03360 0.94840 0.09200
C 	C 	0.21340 0.23800 0.83280 0.08600
C 	C 	0.20110 0.19220 0.86470 -0.13200
C 	C 	0.28330 0.18820 0.88370 0.08200
C 	C 	0.37170 0.23300 0.87090 -0.13800
C 	C 	0.37900 0.27740 0.83860 0.09200
C 	C 	0.96230 0.86420 0.98400 0.05200
C 	C 	0.05260 0.92880 0.98490 -0.10300
C 	C 	0.08020 0.96460 0.94950 0.04700
C 	C 	0.01840 0.93360 0.91060 -0.11500
C 	C 	0.93020 0.87180 0.91090 0.07100
I 	I 	0.64786 0.78222 0.90138 -0.37800
I 	I 	0.74458 0.69078 0.01363 -0.37500
I 	I 	0.46712 0.46866 0.79132 -0.38100
I 	I 	0.28480 0.24858 0.69473 -0.40500
I 	I 	0.37552 0.23410 0.56057 -0.37500
I 	I 	0.36638 0.03506 0.63433 -0.35200
I 	I 	0.13436 0.78222 0.40138 -0.37600
I 	I 	0.94620 0.69078 0.51363 -0.37600
I 	I 	0.00154 0.46866 0.29132 -0.38200
I 	I 	0.96378 0.24858 0.19473 -0.40200
I 	I 	0.85858 0.23410 0.06057 -0.37300
I 	I 	0.66868 0.03506 0.13433 -0.35000
N 	N 	0.79110 0.65720 0.89660 -0.27600
N 	N 	0.76230 0.43440 0.77590 -0.13900
N 	N 	0.85000 0.35340 0.75380 -0.13400
N 	N 	0.91540 0.46140 0.81460 -0.13800
N 	N 	0.55890 0.23480 0.64480 -0.27000
N 	N 	0.18890 0.36720 0.77570 -0.27600
N 	N 	0.54370 0.12980 0.55300 -0.27300
N 	N 	0.79610 0.14840 0.44180 -0.13500
N 	N 	0.89700 0.07980 0.41890 -0.13600
N 	N 	0.78980 0.04100 0.47600 -0.14900
N 	N 	0.93410 0.83680 0.44610 -0.26600
N 	N 	0.97890 0.28040 0.31870 -0.28000
N 	N 	0.86610 0.65720 0.39660 -0.27600
N 	N 	0.67210 0.43440 0.27590 -0.13900
N 	N 	0.50340 0.35340 0.25380 -0.13400
N 	N 	0.54600 0.46140 0.31460 -0.13800
N 	N 	0.67590 0.23480 0.14480 -0.27000
N 	N 	0.17830 0.36720 0.27570 -0.27600
N 	N 	0.58610 0.12980 0.05300 -0.27300
N 	N 	0.35230 0.14840 0.94180 -0.13500
N 	N 	0.18280 0.07980 0.91890 -0.13700
N 	N 	0.25120 0.04100 0.97600 -0.14900
N 	N 	0.90270 0.83680 0.94610 -0.26400
N 	N 	0.30150 0.28040 0.81870 -0.28300
