data_crystal

_cell_length_a 14.75600
_cell_length_b 18.92120
_cell_length_c 30.74000
_cell_angle_alpha 101.04400
_cell_angle_beta  90.00000
_cell_angle_gamma 112.95000

_symmetry_space_group_name_	'P 1'
_symmetry_space_group_name_H-M	'P 1'

loop_
_symmetry_equiv_pos_as_xyz
  x,y,z

loop_
_atom_site_label
_atom_site_type_symbol
_atom_site_fract_x
_atom_site_fract_y
_atom_site_fract_z
_atom_site_charge
Zn	Zn	0.71152 0.16970 0.59109 1.16500
Zn	Zn	0.97831 0.75324 0.94020 1.16700
Zn	Zn	0.03145 0.34654 0.76909 1.16400
Zn	Zn	0.45818 0.16970 0.09109 1.16500
Zn	Zn	0.77493 0.75324 0.44020 1.16700
Zn	Zn	0.31509 0.34654 0.26909 1.16400
H 	H 	0.81830 0.32360 0.65990 -0.01000
H 	H 	0.78130 0.39880 0.71860 0.08100
H 	H 	0.49260 0.25820 0.68900 0.09600
H 	H 	0.53940 0.18280 0.63340 -0.00800
H 	H 	0.75910 0.67160 0.93040 -0.00100
H 	H 	0.63260 0.57520 0.88370 0.09000
H 	H 	0.83860 0.54300 0.80460 0.09500
H 	H 	0.95710 0.63980 0.85270 -0.00600
H 	H 	0.16780 0.27620 0.73260 -0.01600
H 	H 	0.33150 0.29600 0.73510 0.08600
H 	H 	0.38660 0.48520 0.83270 0.08400
H 	H 	0.22140 0.46520 0.82360 -0.01700
H 	H 	0.93060 0.35180 0.85420 -0.00900
H 	H 	0.85890 0.27240 0.90360 0.08600
H 	H 	0.95880 0.11320 0.83610 0.09000
H 	H 	0.02550 0.20100 0.79020 -0.02900
H 	H 	0.53890 0.04180 0.06300 -0.00500
H 	H 	0.65130 0.01940 0.01720 0.06900
H 	H 	0.70300 0.22140 0.97750 0.08100
H 	H 	0.58110 0.23540 0.02100 -0.01300
H 	H 	0.98190 0.86180 0.88480 -0.01900
H 	H 	0.93600 0.96540 0.88020 0.08800
H 	H 	0.84010 0.95200 0.00280 0.08300
H 	H 	0.88820 0.84960 0.00180 -0.00800
H 	H 	0.50530 0.32360 0.15990 -0.01100
H 	H 	0.61750 0.39880 0.21860 0.08100
H 	H 	0.76560 0.25820 0.18900 0.09700
H 	H 	0.64340 0.18280 0.13340 -0.00700
H 	H 	0.91250 0.67160 0.43040 -0.00100
H 	H 	0.94260 0.57520 0.38370 0.09000
H 	H 	0.70440 0.54300 0.30460 0.09500
H 	H 	0.68270 0.63980 0.35270 -0.00600
H 	H 	0.10840 0.27620 0.23260 -0.01600
H 	H 	0.96450 0.29600 0.23510 0.08800
H 	H 	0.09860 0.48520 0.33270 0.08500
H 	H 	0.24380 0.46520 0.32360 -0.01700
H 	H 	0.42120 0.35180 0.35420 -0.00900
H 	H 	0.41350 0.27240 0.40360 0.08600
H 	H 	0.15440 0.11320 0.33610 0.08800
H 	H 	0.17550 0.20100 0.29020 -0.02700
H 	H 	0.50290 0.04180 0.56300 -0.00500
H 	H 	0.36810 0.01940 0.51720 0.06900
H 	H 	0.51840 0.22140 0.47750 0.08100
H 	H 	0.65430 0.23540 0.52100 -0.01300
H 	H 	0.87990 0.86180 0.38480 -0.01800
H 	H 	0.02940 0.96540 0.38020 0.08800
H 	H 	0.11190 0.95200 0.50280 0.08200
H 	H 	0.96140 0.84960 0.50180 -0.00800
C 	C 	0.75130 0.30940 0.66640 0.07400
C 	C 	0.72980 0.35440 0.70110 -0.13100
C 	C 	0.63140 0.33540 0.71120 0.06400
C 	C 	0.56050 0.27200 0.68450 -0.12800
C 	C 	0.58930 0.22840 0.65080 0.08500
C 	C 	0.77460 0.64440 0.90410 0.08100
C 	C 	0.69900 0.58680 0.87700 -0.12500
C 	C 	0.72080 0.54540 0.83900 0.05600
C 	C 	0.82060 0.56860 0.83070 -0.13700
C 	C 	0.89000 0.62600 0.85900 0.08300
C 	C 	0.21380 0.32040 0.75270 0.07100
C 	C 	0.31050 0.33120 0.75440 -0.12600
C 	C 	0.37830 0.39440 0.78440 0.06800
C 	C 	0.34320 0.44240 0.81090 -0.13500
C 	C 	0.24390 0.42920 0.80600 0.09000
C 	C 	0.60350 0.38280 0.74770 0.09800
C 	C 	0.64460 0.48220 0.80720 0.08200
C 	C 	0.48410 0.40940 0.78370 0.10000
C 	C 	0.93320 0.30160 0.85000 0.07300
C 	C 	0.89190 0.25540 0.88000 -0.11800
C 	C 	0.89940 0.18280 0.87500 0.06900
C 	C 	0.95030 0.16120 0.84050 -0.13400
C 	C 	0.98780 0.21400 0.81300 0.10300
C 	C 	0.57230 0.07860 0.04520 0.06500
C 	C 	0.63940 0.06560 0.01840 -0.11400
C 	C 	0.69050 0.11800 0.99300 0.05200
C 	C 	0.66930 0.18340 0.99450 -0.11900
C 	C 	0.59810 0.19200 0.02120 0.07300
C 	C 	0.95230 0.88080 0.90920 0.08400
C 	C 	0.92660 0.94320 0.90600 -0.13100
C 	C 	0.88710 0.97060 0.94220 0.06000
C 	C 	0.87020 0.93480 0.97800 -0.13900
C 	C 	0.89850 0.87360 0.97670 0.08900
C 	C 	0.86140 0.13380 0.90840 0.11000
C 	C 	0.76490 0.10360 0.96450 0.09300
C 	C 	0.85860 0.03800 0.93990 0.09200
C 	C 	0.55810 0.30940 0.16640 0.07400
C 	C 	0.62460 0.35440 0.20110 -0.13100
C 	C 	0.70400 0.33540 0.21120 0.06400
C 	C 	0.71150 0.27200 0.18450 -0.12800
C 	C 	0.63910 0.22840 0.15080 0.08500
C 	C 	0.86980 0.64440 0.40410 0.08000
C 	C 	0.88780 0.58680 0.37700 -0.12500
C 	C 	0.82460 0.54540 0.33900 0.05600
C 	C 	0.74800 0.56860 0.33070 -0.13700
C 	C 	0.73600 0.62600 0.35900 0.08200
C 	C 	0.10660 0.32040 0.25270 0.07200
C 	C 	0.02070 0.33120 0.25440 -0.12800
C 	C 	0.01610 0.39440 0.28440 0.06900
C 	C 	0.09920 0.44240 0.31090 -0.13600
C 	C 	0.18530 0.42920 0.30600 0.09100
C 	C 	0.77930 0.38280 0.24770 0.09800
C 	C 	0.83760 0.48220 0.30720 0.08200
C 	C 	0.92530 0.40940 0.28370 0.10000
C 	C 	0.36840 0.30160 0.35000 0.07200
C 	C 	0.36350 0.25540 0.38000 -0.11700
C 	C 	0.28340 0.18280 0.37500 0.06800
C 	C 	0.21090 0.16120 0.34050 -0.13200
C 	C 	0.22620 0.21400 0.31300 0.09900
C 	C 	0.50630 0.07860 0.54520 0.06500
C 	C 	0.42620 0.06560 0.51840 -0.11400
C 	C 	0.42750 0.11800 0.49300 0.05200
C 	C 	0.51410 0.18340 0.49450 -0.11900
C 	C 	0.59390 0.19200 0.52120 0.07300
C 	C 	0.92850 0.88080 0.40920 0.08100
C 	C 	0.01660 0.94320 0.40600 -0.12700
C 	C 	0.08350 0.97060 0.44220 0.06200
C 	C 	0.06460 0.93480 0.47800 -0.13500
C 	C 	0.97510 0.87360 0.47670 0.08600
C 	C 	0.27240 0.13380 0.40840 0.11000
C 	C 	0.33870 0.10360 0.46450 0.09300
C 	C 	0.17940 0.03800 0.43990 0.08900
I 	I 	0.67839 0.05436 0.62878 -0.34700
I 	I 	0.86092 0.24452 0.55477 -0.38300
I 	I 	0.95115 0.71304 0.01347 -0.37400
I 	I 	0.13638 0.78534 0.90202 -0.38200
I 	I 	0.00311 0.47072 0.79468 -0.38100
I 	I 	0.97102 0.26020 0.69213 -0.40200
I 	I 	0.37597 0.05436 0.12878 -0.34900
I 	I 	0.38360 0.24452 0.05477 -0.38400
I 	I 	0.76189 0.71304 0.51347 -0.37400
I 	I 	0.64896 0.78534 0.40202 -0.38400
I 	I 	0.46761 0.47072 0.29468 -0.38100
I 	I 	0.28918 0.26020 0.19213 -0.40300
N 	N 	0.68167 0.24534 0.64080 -0.27400
N 	N 	0.86971 0.66542 0.89620 -0.27500
N 	N 	0.18097 0.36954 0.77820 -0.27600
N 	N 	0.67620 0.44280 0.77415 -0.13900
N 	N 	0.54807 0.46754 0.81430 -0.13600
N 	N 	0.50680 0.36160 0.75151 -0.13300
N 	N 	0.97717 0.27914 0.81500 -0.28600
N 	N 	0.55150 0.14300 0.04720 -0.27200
N 	N 	0.93904 0.84588 0.94310 -0.28300
N 	N 	0.79486 0.14952 0.93380 -0.13300
N 	N 	0.79573 0.05026 0.97034 -0.14900
N 	N 	0.89149 0.07718 0.90850 -0.13600
N 	N 	0.56367 0.24534 0.14080 -0.27400
N 	N 	0.79571 0.66542 0.39620 -0.27500
N 	N 	0.18857 0.36954 0.27820 -0.27600
N 	N 	0.76660 0.44280 0.27415 -0.13900
N 	N 	0.91947 0.46754 0.31430 -0.13600
N 	N 	0.85480 0.36160 0.25151 -0.13300
N 	N 	0.30197 0.27914 0.31500 -0.28500
N 	N 	0.59150 0.14300 0.54720 -0.27200
N 	N 	0.90684 0.84588 0.44310 -0.28200
N 	N 	0.35466 0.14952 0.43380 -0.13300
N 	N 	0.25453 0.05026 0.47034 -0.14900
N 	N 	0.18569 0.07718 0.40850 -0.13700
Zn	Zn	0.54182 0.83030 0.90891 1.16600
Zn	Zn	0.22507 0.24676 0.55980 1.16800
Zn	Zn	0.68491 0.65346 0.73091 1.16500
Zn	Zn	0.28848 0.83030 0.40891 1.16600
Zn	Zn	0.02169 0.24676 0.05980 1.16800
Zn	Zn	0.96855 0.65346 0.23091 1.16500
H 	H 	0.49470 0.67640 0.84010 -0.01100
H 	H 	0.38250 0.60120 0.78140 0.08100
H 	H 	0.23440 0.74180 0.81100 0.09700
H 	H 	0.35660 0.81720 0.86660 -0.00700
H 	H 	0.08750 0.32840 0.56960 -0.00100
H 	H 	0.05740 0.42480 0.61630 0.09000
H 	H 	0.29560 0.45700 0.69540 0.09500
H 	H 	0.31730 0.36020 0.64730 -0.00600
H 	H 	0.89160 0.72380 0.76740 -0.01600
H 	H 	0.03550 0.70400 0.76490 0.08800
H 	H 	0.90140 0.51480 0.66730 0.08500
H 	H 	0.75620 0.53480 0.67640 -0.01700
H 	H 	0.57880 0.64820 0.64580 -0.00900
H 	H 	0.58650 0.72760 0.59640 0.08600
H 	H 	0.84560 0.88680 0.66390 0.08800
H 	H 	0.82450 0.79900 0.70980 -0.02700
H 	H 	0.49710 0.95820 0.43700 -0.00500
H 	H 	0.63190 0.98060 0.48280 0.06900
H 	H 	0.48160 0.77860 0.52250 0.08100
H 	H 	0.34570 0.76460 0.47900 -0.01300
H 	H 	0.12010 0.13820 0.61520 -0.01800
H 	H 	0.97060 0.03460 0.61980 0.08800
H 	H 	0.88810 0.04800 0.49720 0.08200
H 	H 	0.03860 0.15040 0.49820 -0.00800
H 	H 	0.18170 0.67640 0.34010 -0.01000
H 	H 	0.21870 0.60120 0.28140 0.08100
H 	H 	0.50740 0.74180 0.31100 0.09600
H 	H 	0.46060 0.81720 0.36660 -0.00800
H 	H 	0.24090 0.32840 0.06960 -0.00100
H 	H 	0.36740 0.42480 0.11630 0.09000
H 	H 	0.16140 0.45700 0.19540 0.09500
H 	H 	0.04290 0.36020 0.14730 -0.00600
H 	H 	0.83220 0.72380 0.26740 -0.01600
H 	H 	0.66850 0.70400 0.26490 0.08600
H 	H 	0.61340 0.51480 0.16730 0.08400
H 	H 	0.77860 0.53480 0.17640 -0.01700
H 	H 	0.06940 0.64820 0.14580 -0.00900
H 	H 	0.14110 0.72760 0.09640 0.08600
H 	H 	0.04120 0.88680 0.16390 0.09000
H 	H 	0.97450 0.79900 0.20980 -0.02900
H 	H 	0.46110 0.95820 0.93700 -0.00500
H 	H 	0.34870 0.98060 0.98280 0.06900
H 	H 	0.29700 0.77860 0.02250 0.08100
H 	H 	0.41890 0.76460 0.97900 -0.01300
H 	H 	0.01810 0.13820 0.11520 -0.01900
H 	H 	0.06400 0.03460 0.11980 0.08800
H 	H 	0.15990 0.04800 0.99720 0.08300
H 	H 	0.11180 0.15040 0.99820 -0.00800
C 	C 	0.44190 0.69060 0.83360 0.07400
C 	C 	0.37540 0.64560 0.79890 -0.13100
C 	C 	0.29600 0.66460 0.78880 0.06400
C 	C 	0.28850 0.72800 0.81550 -0.12800
C 	C 	0.36090 0.77160 0.84920 0.08500
C 	C 	0.13020 0.35560 0.59590 0.08000
C 	C 	0.11220 0.41320 0.62300 -0.12500
C 	C 	0.17540 0.45460 0.66100 0.05600
C 	C 	0.25200 0.43140 0.66930 -0.13700
C 	C 	0.26400 0.37400 0.64100 0.08200
C 	C 	0.89340 0.67960 0.74730 0.07200
C 	C 	0.97930 0.66880 0.74560 -0.12800
C 	C 	0.98390 0.60560 0.71560 0.06900
C 	C 	0.90080 0.55760 0.68910 -0.13600
C 	C 	0.81470 0.57080 0.69400 0.09100
C 	C 	0.22070 0.61720 0.75230 0.09800
C 	C 	0.16240 0.51780 0.69280 0.08200
C 	C 	0.07470 0.59060 0.71630 0.10000
C 	C 	0.63160 0.69840 0.65000 0.07200
C 	C 	0.63650 0.74460 0.62000 -0.11700
C 	C 	0.71660 0.81720 0.62500 0.06800
C 	C 	0.78910 0.83880 0.65950 -0.13200
C 	C 	0.77380 0.78600 0.68700 0.09900
C 	C 	0.49370 0.92140 0.45480 0.06500
C 	C 	0.57380 0.93440 0.48160 -0.11400
C 	C 	0.57250 0.88200 0.50700 0.05200
C 	C 	0.48590 0.81660 0.50550 -0.11900
C 	C 	0.40610 0.80800 0.47880 0.07300
C 	C 	0.07150 0.11920 0.59080 0.08100
C 	C 	0.98340 0.05680 0.59400 -0.12700
C 	C 	0.91650 0.02940 0.55780 0.06200
C 	C 	0.93540 0.06520 0.52200 -0.13500
C 	C 	0.02490 0.12640 0.52330 0.08600
C 	C 	0.72760 0.86620 0.59160 0.11000
C 	C 	0.66130 0.89640 0.53550 0.09300
C 	C 	0.82060 0.96200 0.56010 0.08900
C 	C 	0.24870 0.69060 0.33360 0.07400
C 	C 	0.27020 0.64560 0.29890 -0.13100
C 	C 	0.36860 0.66460 0.28880 0.06400
C 	C 	0.43950 0.72800 0.31550 -0.12800
C 	C 	0.41070 0.77160 0.34920 0.08500
C 	C 	0.22540 0.35560 0.09590 0.08100
C 	C 	0.30100 0.41320 0.12300 -0.12500
C 	C 	0.27920 0.45460 0.16100 0.05600
C 	C 	0.17940 0.43140 0.16930 -0.13700
C 	C 	0.11000 0.37400 0.14100 0.08300
C 	C 	0.78620 0.67960 0.24730 0.07100
C 	C 	0.68950 0.66880 0.24560 -0.12600
C 	C 	0.62170 0.60560 0.21560 0.06800
C 	C 	0.65680 0.55760 0.18910 -0.13500
C 	C 	0.75610 0.57080 0.19400 0.09000
C 	C 	0.39650 0.61720 0.25230 0.09800
C 	C 	0.35540 0.51780 0.19280 0.08200
C 	C 	0.51590 0.59060 0.21630 0.10000
C 	C 	0.06680 0.69840 0.15000 0.07300
C 	C 	0.10810 0.74460 0.12000 -0.11800
C 	C 	0.10060 0.81720 0.12500 0.06900
C 	C 	0.04970 0.83880 0.15950 -0.13400
C 	C 	0.01220 0.78600 0.18700 0.10300
C 	C 	0.42770 0.92140 0.95480 0.06500
C 	C 	0.36060 0.93440 0.98160 -0.11400
C 	C 	0.30950 0.88200 0.00700 0.05200
C 	C 	0.33070 0.81660 0.00550 -0.11900
C 	C 	0.40190 0.80800 0.97880 0.07300
C 	C 	0.04770 0.11920 0.09080 0.08400
C 	C 	0.07340 0.05680 0.09400 -0.13100
C 	C 	0.11290 0.02940 0.05780 0.06000
C 	C 	0.12980 0.06520 0.02200 -0.13900
C 	C 	0.10150 0.12640 0.02330 0.08900
C 	C 	0.13860 0.86620 0.09160 0.11000
C 	C 	0.23510 0.89640 0.03550 0.09300
C 	C 	0.14140 0.96200 0.06010 0.09200
I 	I 	0.62403 0.94564 0.87122 -0.34900
I 	I 	0.61640 0.75548 0.94523 -0.38400
I 	I 	0.23811 0.28696 0.48653 -0.37400
I 	I 	0.35104 0.21466 0.59798 -0.38400
I 	I 	0.53239 0.52928 0.70532 -0.38100
I 	I 	0.71082 0.73980 0.80787 -0.40300
I 	I 	0.32161 0.94564 0.37122 -0.34700
I 	I 	0.13908 0.75548 0.44523 -0.38300
I 	I 	0.04885 0.28696 0.98653 -0.37400
I 	I 	0.86362 0.21466 0.09798 -0.38200
I 	I 	0.99689 0.52928 0.20532 -0.38100
I 	I 	0.02898 0.73980 0.30787 -0.40200
N 	N 	0.43633 0.75466 0.85920 -0.27400
N 	N 	0.20429 0.33458 0.60380 -0.27500
N 	N 	0.81143 0.63046 0.72180 -0.27600
N 	N 	0.23340 0.55720 0.72585 -0.13900
N 	N 	0.08053 0.53246 0.68570 -0.13600
N 	N 	0.14520 0.63840 0.74849 -0.13300
N 	N 	0.69803 0.72086 0.68500 -0.28500
N 	N 	0.40850 0.85700 0.45280 -0.27200
N 	N 	0.09316 0.15412 0.55690 -0.28200
N 	N 	0.64534 0.85048 0.56620 -0.13300
N 	N 	0.74547 0.94974 0.52966 -0.14900
N 	N 	0.81431 0.92282 0.59150 -0.13700
N 	N 	0.31833 0.75466 0.35920 -0.27400
N 	N 	0.13029 0.33458 0.10380 -0.27500
N 	N 	0.81903 0.63046 0.22180 -0.27600
N 	N 	0.32380 0.55720 0.22585 -0.13900
N 	N 	0.45193 0.53246 0.18570 -0.13600
N 	N 	0.49320 0.63840 0.24849 -0.13300
N 	N 	0.02283 0.72086 0.18500 -0.28600
N 	N 	0.44850 0.85700 0.95280 -0.27200
N 	N 	0.06096 0.15412 0.05690 -0.28300
N 	N 	0.20514 0.85048 0.06620 -0.13300
N 	N 	0.20427 0.94974 0.02966 -0.14900
N 	N 	0.10851 0.92282 0.09150 -0.13600
