data_crystal

_cell_length_a 14.95200
_cell_length_b 18.58400
_cell_length_c 30.23160
_cell_angle_alpha 98.81970
_cell_angle_beta  92.08680
_cell_angle_gamma 111.61500

_symmetry_space_group_name_	'P 1'
_symmetry_space_group_name_H-M	'P 1'

loop_
_symmetry_equiv_pos_as_xyz
  x,y,z

loop_
_atom_site_label
_atom_site_type_symbol
_atom_site_fract_x
_atom_site_fract_y
_atom_site_fract_z
_atom_site_charge
Zn	Zn	0.46501 0.67401 0.21501 1.16700
Zn	Zn	0.55641 0.29671 0.02771 1.16600
Zn	Zn	0.04889 0.84358 0.90797 1.16500
Zn	Zn	0.17652 0.64262 0.73952 1.16400
Zn	Zn	0.71437 0.24375 0.56625 1.16600
Zn	Zn	0.79265 0.84137 0.40367 1.16600
H 	H 	0.33430 0.74810 0.25750 -0.01200
H 	H 	0.17050 0.72800 0.25690 0.08500
H 	H 	0.11460 0.54310 0.15670 0.08400
H 	H 	0.27860 0.56460 0.16010 -0.00600
H 	H 	0.69050 0.70850 0.32410 -0.01100
H 	H 	0.72440 0.62320 0.26980 0.08300
H 	H 	0.00630 0.74650 0.30690 0.09800
H 	H 	0.95980 0.82030 0.36200 -0.00800
H 	H 	0.76360 0.34400 0.06000 0.00200
H 	H 	0.87560 0.42940 0.11710 0.08100
H 	H 	0.67350 0.49590 0.17460 0.09400
H 	H 	0.56970 0.41130 0.11480 -0.00300
H 	H 	0.62170 0.18200 0.97220 -0.01700
H 	H 	0.66600 0.07730 0.97140 0.09000
H 	H 	0.56620 0.06840 0.09300 0.09000
H 	H 	0.54200 0.18160 0.09090 -0.01600
H 	H 	0.95030 0.80440 0.98790 -0.01100
H 	H 	0.81540 0.81110 0.02210 0.08300
H 	H 	0.84860 0.00390 0.96240 0.07500
H 	H 	0.97170 0.97840 0.92670 -0.00700
H 	H 	0.45590 0.81470 0.18500 -0.02700
H 	H 	0.50310 0.89330 0.13320 0.08400
H 	H 	0.65630 0.76610 0.09140 0.07700
H 	H 	0.59300 0.68460 0.14030 -0.01200
H 	H 	0.86000 0.82690 0.86660 -0.00900
H 	H 	0.72880 0.74220 0.81420 0.08700
H 	H 	0.87530 0.59290 0.79630 0.08600
H 	H 	0.99590 0.68280 0.84940 -0.01800
H 	H 	0.25300 0.52990 0.68110 -0.01200
H 	H 	0.39640 0.50960 0.67760 0.08300
H 	H 	0.51410 0.68150 0.78440 0.08700
H 	H 	0.36530 0.68980 0.78920 -0.01600
H 	H 	0.81720 0.35900 0.65110 -0.00200
H 	H 	0.79440 0.45360 0.70270 0.09000
H 	H 	0.53620 0.40700 0.63650 0.08100
H 	H 	0.57010 0.31770 0.58210 0.00300
H 	H 	0.52970 0.15080 0.49790 0.01200
H 	H 	0.39280 0.03960 0.49570 0.07100
H 	H 	0.45900 0.03020 0.62270 0.08500
H 	H 	0.60670 0.12840 0.62230 -0.01400
H 	H 	0.86520 0.76540 0.46990 -0.01200
H 	H 	0.99120 0.77550 0.52050 0.08200
H 	H 	0.13630 0.98140 0.47560 0.07200
H 	H 	0.99740 0.96380 0.43130 -0.00800
H 	H 	0.30930 0.79120 0.72010 -0.02200
H 	H 	0.35010 0.85050 0.65830 0.08600
H 	H 	0.08990 0.71670 0.59580 0.08300
H 	H 	0.07240 0.63770 0.65060 -0.00700
C 	C 	0.28790 0.70460 0.23780 0.06900
C 	C 	0.19170 0.69320 0.23780 -0.12400
C 	C 	0.12780 0.62900 0.20880 0.06400
C 	C 	0.15930 0.58370 0.17870 -0.12400
C 	C 	0.25590 0.59690 0.18030 0.07100
C 	C 	0.01980 0.60930 0.20830 0.10600
C 	C 	0.89850 0.63490 0.24380 0.09600
C 	C 	0.86710 0.54490 0.18200 0.10100
C 	C 	0.75530 0.71180 0.32320 0.07800
C 	C 	0.77550 0.66460 0.28870 -0.13700
C 	C 	0.86940 0.67750 0.28170 0.07100
C 	C 	0.93970 0.73500 0.31020 -0.13700
C 	C 	0.91030 0.77600 0.34420 0.08900
C 	C 	0.74440 0.37540 0.08250 0.06700
C 	C 	0.81100 0.42720 0.11650 -0.11700
C 	C 	0.78970 0.47600 0.14970 0.04900
C 	C 	0.69530 0.46800 0.15120 -0.13200
C 	C 	0.63490 0.41540 0.11530 0.08200
C 	C 	0.61220 0.15940 0.99860 0.10100
C 	C 	0.63760 0.09520 0.99620 -0.14200
C 	C 	0.61840 0.05960 0.03290 0.07300
C 	C 	0.58100 0.09260 0.06730 -0.14300
C 	C 	0.56430 0.15950 0.06520 0.09600
C 	C 	0.64780 0.98890 0.03950 0.09500
C 	C 	0.73660 0.92310 0.02200 0.09800
C 	C 	0.63590 0.89090 0.07500 0.09300
C 	C 	0.92320 0.84050 0.98060 0.06600
C 	C 	0.84770 0.84730 0.00340 -0.11300
C 	C 	0.82150 0.90940 0.99760 0.05300
C 	C 	0.86620 0.96130 0.96710 -0.12300
C 	C 	0.93660 0.94370 0.94560 0.07600
C 	C 	0.49690 0.80250 0.16440 0.10600
C 	C 	0.52730 0.85290 0.13430 -0.13300
C 	C 	0.59380 0.84360 0.10560 0.05300
C 	C 	0.61280 0.77820 0.11050 -0.12300
C 	C 	0.57550 0.72880 0.14030 0.07600
C 	C 	0.86110 0.77820 0.85190 0.06600
C 	C 	0.78350 0.72980 0.82060 -0.11800
C 	C 	0.79360 0.66110 0.79940 0.06900
C 	C 	0.87090 0.64090 0.81010 -0.14300
C 	C 	0.94110 0.69460 0.84200 0.09300
C 	C 	0.71040 0.60810 0.76370 0.09100
C 	C 	0.56320 0.57460 0.73140 0.10500
C 	C 	0.65030 0.50580 0.70720 0.09000
C 	C 	0.30540 0.55930 0.70350 0.08200
C 	C 	0.39110 0.54720 0.70140 -0.13100
C 	C 	0.46850 0.58830 0.73290 0.06800
C 	C 	0.46020 0.64650 0.76420 -0.12900
C 	C 	0.37210 0.65270 0.76550 0.07500
C 	C 	0.75960 0.36890 0.64760 0.06500
C 	C 	0.74540 0.42530 0.67860 -0.11600
C 	C 	0.66400 0.44260 0.67630 0.04100
C 	C 	0.59530 0.39940 0.63980 -0.10500
C 	C 	0.61510 0.34410 0.60790 0.06400
C 	C 	0.51830 0.12400 0.52270 0.03500
C 	C 	0.43610 0.05900 0.52240 -0.09800
C 	C 	0.41170 0.01980 0.55780 0.04500
C 	C 	0.47530 0.05110 0.59600 -0.11800
C 	C 	0.56200 0.11230 0.59620 0.07600
C 	C 	0.32160 0.95470 0.55600 0.08500
C 	C 	0.16240 0.89490 0.53300 0.09600
C 	C 	0.22620 0.85460 0.59010 0.10300
C 	C 	0.92120 0.81230 0.47320 0.07700
C 	C 	0.99570 0.81470 0.50290 -0.11900
C 	C 	0.07680 0.88100 0.50360 0.04500
C 	C 	0.07860 0.93700 0.47580 -0.11600
C 	C 	0.99590 0.92590 0.44940 0.07100
C 	C 	0.27100 0.77050 0.69200 0.07900
C 	C 	0.28760 0.81170 0.65860 -0.12700
C 	C 	0.21790 0.80040 0.62510 0.07100
C 	C 	0.13820 0.73130 0.62040 -0.11600
C 	C 	0.12960 0.68330 0.65210 0.06400
I 	I 	0.53519 0.75751 0.29261 -0.39700
I 	I 	0.48502 0.54523 0.18541 -0.36700
I 	I 	0.62347 0.35227 0.95937 -0.38200
I 	I 	0.39027 0.27057 0.05817 -0.35900
I 	I 	0.12353 0.76964 0.95147 -0.37300
I 	I 	0.13476 0.95538 0.86703 -0.35500
I 	I 	0.20261 0.73910 0.81328 -0.40500
I 	I 	0.02395 0.52169 0.71392 -0.38100
I 	I 	0.83940 0.20285 0.60323 -0.38000
I 	I 	0.72621 0.29513 0.49228 -0.36000
I 	I 	0.64750 0.76539 0.44045 -0.38200
I 	I 	0.81757 0.96003 0.36782 -0.35800
N 	N 	0.31740 0.65600 0.21060 -0.26600
N 	N 	0.99290 0.65170 0.24090 -0.13400
N 	N 	0.83030 0.57730 0.21530 -0.14300
N 	N 	0.95570 0.55460 0.17750 -0.14600
N 	N 	0.82120 0.76150 0.35530 -0.27300
N 	N 	0.65280 0.36960 0.08140 -0.27400
N 	N 	0.57720 0.19640 0.03020 -0.29200
N 	N 	0.71450 0.98280 0.01250 -0.14800
N 	N 	0.70140 0.87600 0.05090 -0.14100
N 	N 	0.60620 0.94830 0.06920 -0.14100
N 	N 	0.95990 0.88190 0.94890 -0.26900
N 	N 	0.51500 0.74090 0.16920 -0.29500
N 	N 	0.93850 0.76000 0.86280 -0.27300
N 	N 	0.63200 0.62630 0.76260 -0.13300
N 	N 	0.56660 0.51650 0.70220 -0.14300
N 	N 	0.72620 0.54580 0.73710 -0.13700
N 	N 	0.29540 0.61120 0.73630 -0.27600
N 	N 	0.69390 0.32760 0.61260 -0.27200
N 	N 	0.58690 0.15010 0.56200 -0.26800
N 	N 	0.24730 0.94760 0.52690 -0.14700
N 	N 	0.15090 0.84380 0.56110 -0.13400
N 	N 	0.31740 0.90820 0.58800 -0.12800
N 	N 	0.91400 0.86410 0.44840 -0.27000
N 	N 	0.20090 0.70020 0.68490 -0.27100
Zn	Zn	0.53499 0.32599 0.78499 1.16600
Zn	Zn	0.44359 0.70329 0.97229 1.16500
Zn	Zn	0.95111 0.15642 0.09203 1.16400
Zn	Zn	0.82348 0.35738 0.26048 1.16300
Zn	Zn	0.28563 0.75625 0.43375 1.16500
Zn	Zn	0.20735 0.15863 0.59633 1.16500
H 	H 	0.66570 0.25190 0.74250 -0.01300
H 	H 	0.82950 0.27200 0.74310 0.08400
H 	H 	0.88540 0.45690 0.84330 0.08300
H 	H 	0.72140 0.43540 0.83990 -0.00700
H 	H 	0.30950 0.29150 0.67590 -0.01200
H 	H 	0.27560 0.37680 0.73020 0.08200
H 	H 	0.99370 0.25350 0.69310 0.09800
H 	H 	0.04020 0.17970 0.63800 -0.00800
H 	H 	0.23640 0.65600 0.94000 0.00200
H 	H 	0.12440 0.57060 0.88290 0.08100
H 	H 	0.32650 0.50410 0.82540 0.09400
H 	H 	0.43030 0.58870 0.88520 -0.00300
H 	H 	0.37830 0.81800 0.02780 -0.01700
H 	H 	0.33400 0.92270 0.02860 0.09000
H 	H 	0.43380 0.93160 0.90700 0.09000
H 	H 	0.45800 0.81840 0.90910 -0.01600
H 	H 	0.04970 0.19560 0.01210 -0.01100
H 	H 	0.18460 0.18890 0.97790 0.08300
H 	H 	0.15140 0.99610 0.03760 0.07500
H 	H 	0.02830 0.02160 0.07330 -0.00700
H 	H 	0.54410 0.18530 0.81500 -0.02700
H 	H 	0.49690 0.10670 0.86680 0.08400
H 	H 	0.34370 0.23390 0.90860 0.07700
H 	H 	0.40700 0.31540 0.85970 -0.01200
H 	H 	0.14000 0.17310 0.13340 -0.00900
H 	H 	0.27120 0.25780 0.18580 0.08700
H 	H 	0.12470 0.40710 0.20370 0.08600
H 	H 	0.00410 0.31720 0.15060 -0.01800
H 	H 	0.74700 0.47010 0.31890 -0.01200
H 	H 	0.60360 0.49040 0.32240 0.08300
H 	H 	0.48590 0.31850 0.21560 0.08700
H 	H 	0.63470 0.31020 0.21080 -0.01600
H 	H 	0.18280 0.64100 0.34890 -0.00200
H 	H 	0.20560 0.54640 0.29730 0.09000
H 	H 	0.46380 0.59300 0.36350 0.08100
H 	H 	0.42990 0.68230 0.41790 0.00300
H 	H 	0.47030 0.84920 0.50210 0.01200
H 	H 	0.60720 0.96040 0.50430 0.07100
H 	H 	0.54100 0.96980 0.37730 0.08500
H 	H 	0.39330 0.87160 0.37770 -0.01400
H 	H 	0.13480 0.23460 0.53010 -0.01200
H 	H 	0.00880 0.22450 0.47950 0.08200
H 	H 	0.86370 0.01860 0.52440 0.07200
H 	H 	0.00260 0.03620 0.56870 -0.00800
H 	H 	0.69070 0.20880 0.27990 -0.02200
H 	H 	0.64990 0.14950 0.34170 0.08600
H 	H 	0.91010 0.28330 0.40420 0.08300
H 	H 	0.92760 0.36230 0.34940 -0.00700
C 	C 	0.71210 0.29540 0.76220 0.06900
C 	C 	0.80830 0.30680 0.76220 -0.12400
C 	C 	0.87220 0.37100 0.79120 0.06400
C 	C 	0.84070 0.41630 0.82130 -0.12400
C 	C 	0.74410 0.40310 0.81970 0.07100
C 	C 	0.98020 0.39070 0.79170 0.10600
C 	C 	0.10150 0.36510 0.75620 0.09600
C 	C 	0.13290 0.45510 0.81800 0.10100
C 	C 	0.24470 0.28820 0.67680 0.07800
C 	C 	0.22450 0.33540 0.71130 -0.13700
C 	C 	0.13060 0.32250 0.71830 0.07100
C 	C 	0.06030 0.26500 0.68980 -0.13700
C 	C 	0.08970 0.22400 0.65580 0.08900
C 	C 	0.25560 0.62460 0.91750 0.06700
C 	C 	0.18900 0.57280 0.88350 -0.11700
C 	C 	0.21030 0.52400 0.85030 0.04900
C 	C 	0.30470 0.53200 0.84880 -0.13200
C 	C 	0.36510 0.58460 0.88470 0.08200
C 	C 	0.38780 0.84060 0.00140 0.10100
C 	C 	0.36240 0.90480 0.00380 -0.14200
C 	C 	0.38160 0.94040 0.96710 0.07300
C 	C 	0.41900 0.90740 0.93270 -0.14300
C 	C 	0.43570 0.84050 0.93480 0.09600
C 	C 	0.35220 0.01110 0.96050 0.09500
C 	C 	0.26340 0.07690 0.97800 0.09800
C 	C 	0.36410 0.10910 0.92500 0.09300
C 	C 	0.07680 0.15950 0.01940 0.06600
C 	C 	0.15230 0.15270 0.99660 -0.11300
C 	C 	0.17850 0.09060 0.00240 0.05300
C 	C 	0.13380 0.03870 0.03290 -0.12300
C 	C 	0.06340 0.05630 0.05440 0.07600
C 	C 	0.50310 0.19750 0.83560 0.10600
C 	C 	0.47270 0.14710 0.86570 -0.13300
C 	C 	0.40620 0.15640 0.89440 0.05300
C 	C 	0.38720 0.22180 0.88950 -0.12300
C 	C 	0.42450 0.27120 0.85970 0.07600
C 	C 	0.13890 0.22180 0.14810 0.06600
C 	C 	0.21650 0.27020 0.17940 -0.11800
C 	C 	0.20640 0.33890 0.20060 0.06900
C 	C 	0.12910 0.35910 0.18990 -0.14300
C 	C 	0.05890 0.30540 0.15800 0.09300
C 	C 	0.28960 0.39190 0.23630 0.09100
C 	C 	0.43680 0.42540 0.26860 0.10500
C 	C 	0.34970 0.49420 0.29280 0.09000
C 	C 	0.69460 0.44070 0.29650 0.08200
C 	C 	0.60890 0.45280 0.29860 -0.13100
C 	C 	0.53150 0.41170 0.26710 0.06800
C 	C 	0.53980 0.35350 0.23580 -0.12900
C 	C 	0.62790 0.34730 0.23450 0.07500
C 	C 	0.24040 0.63110 0.35240 0.06500
C 	C 	0.25460 0.57470 0.32140 -0.11600
C 	C 	0.33600 0.55740 0.32370 0.04100
C 	C 	0.40470 0.60060 0.36020 -0.10500
C 	C 	0.38490 0.65590 0.39210 0.06400
C 	C 	0.48170 0.87600 0.47730 0.03500
C 	C 	0.56390 0.94100 0.47760 -0.09800
C 	C 	0.58830 0.98020 0.44220 0.04500
C 	C 	0.52470 0.94890 0.40400 -0.11800
C 	C 	0.43800 0.88770 0.40380 0.07600
C 	C 	0.67840 0.04530 0.44400 0.08500
C 	C 	0.83760 0.10510 0.46700 0.09600
C 	C 	0.77380 0.14540 0.40990 0.10300
C 	C 	0.07880 0.18770 0.52680 0.07700
C 	C 	0.00430 0.18530 0.49710 -0.11900
C 	C 	0.92320 0.11900 0.49640 0.04500
C 	C 	0.92140 0.06300 0.52420 -0.11600
C 	C 	0.00410 0.07410 0.55060 0.07100
C 	C 	0.72900 0.22950 0.30800 0.07900
C 	C 	0.71240 0.18830 0.34140 -0.12700
C 	C 	0.78210 0.19960 0.37490 0.07100
C 	C 	0.86180 0.26870 0.37960 -0.11600
C 	C 	0.87040 0.31670 0.34790 0.06400
I 	I 	0.46481 0.24249 0.70739 -0.39700
I 	I 	0.51498 0.45477 0.81459 -0.36700
I 	I 	0.37653 0.64773 0.04063 -0.38200
I 	I 	0.60973 0.72943 0.94183 -0.35900
I 	I 	0.87647 0.23036 0.04853 -0.37300
I 	I 	0.86524 0.04462 0.13297 -0.35500
I 	I 	0.79739 0.26090 0.18672 -0.40500
I 	I 	0.97605 0.47831 0.28608 -0.38100
I 	I 	0.16060 0.79715 0.39677 -0.38000
I 	I 	0.27379 0.70487 0.50772 -0.36000
I 	I 	0.35250 0.23461 0.55955 -0.38200
I 	I 	0.18243 0.03997 0.63218 -0.35800
N 	N 	0.68260 0.34400 0.78940 -0.26600
N 	N 	0.00710 0.34830 0.75910 -0.13400
N 	N 	0.16970 0.42270 0.78470 -0.14300
N 	N 	0.04430 0.44540 0.82250 -0.14600
N 	N 	0.17880 0.23850 0.64470 -0.27300
N 	N 	0.34720 0.63040 0.91860 -0.27400
N 	N 	0.42280 0.80360 0.96980 -0.29200
N 	N 	0.28550 0.01720 0.98750 -0.14800
N 	N 	0.29860 0.12400 0.94910 -0.14100
N 	N 	0.39380 0.05170 0.93080 -0.14100
N 	N 	0.04010 0.11810 0.05110 -0.26900
N 	N 	0.48500 0.25910 0.83080 -0.29500
N 	N 	0.06150 0.24000 0.13720 -0.27300
N 	N 	0.36800 0.37370 0.23740 -0.13300
N 	N 	0.43340 0.48350 0.29780 -0.14300
N 	N 	0.27380 0.45420 0.26290 -0.13700
N 	N 	0.70460 0.38880 0.26370 -0.27600
N 	N 	0.30610 0.67240 0.38740 -0.27200
N 	N 	0.41310 0.84990 0.43800 -0.26800
N 	N 	0.75270 0.05240 0.47310 -0.14700
N 	N 	0.84910 0.15620 0.43890 -0.13400
N 	N 	0.68260 0.09180 0.41200 -0.12800
N 	N 	0.08600 0.13590 0.55160 -0.27000
N 	N 	0.79910 0.29980 0.31510 -0.27100
