data_crystal

_cell_length_a 14.77400
_cell_length_b 19.34220
_cell_length_c 30.59400
_cell_angle_alpha 100.75300
_cell_angle_beta  90.00000
_cell_angle_gamma 112.45200

_symmetry_space_group_name_	'P 1'
_symmetry_space_group_name_H-M	'P 1'

loop_
_symmetry_equiv_pos_as_xyz
  x,y,z

loop_
_atom_site_label
_atom_site_type_symbol
_atom_site_fract_x
_atom_site_fract_y
_atom_site_fract_z
_atom_site_charge
Zn	Zn	0.19061 0.66726 0.72454 1.16300
Zn	Zn	0.73055 0.25090 0.56968 1.16300
Zn	Zn	0.79441 0.85114 0.40001 1.16400
Zn	Zn	0.47665 0.66726 0.22454 1.16300
Zn	Zn	0.52035 0.25090 0.06968 1.16300
Zn	Zn	0.05673 0.85114 0.90001 1.16300
H 	H 	0.34560 0.78220 0.68580 -0.03000
H 	H 	0.36730 0.85720 0.63400 0.09000
H 	H 	0.07970 0.75160 0.59530 0.08600
H 	H 	0.06580 0.67480 0.64730 -0.00600
H 	H 	0.56260 0.15140 0.49470 -0.00700
H 	H 	0.41210 0.04720 0.48730 0.08400
H 	H 	0.45400 0.04940 0.61950 0.09100
H 	H 	0.59470 0.15820 0.62270 -0.01800
H 	H 	0.86060 0.77840 0.46330 -0.01500
H 	H 	0.99800 0.78500 0.50340 0.08400
H 	H 	0.14600 0.99180 0.47270 0.07400
H 	H 	0.99990 0.97600 0.43320 -0.00400
H 	H 	0.95970 0.83960 0.35160 -0.00900
H 	H 	0.00530 0.75800 0.29930 0.09100
H 	H 	0.72320 0.60440 0.28710 0.08100
H 	H 	0.68700 0.69020 0.34100 -0.01200
H 	H 	0.28580 0.54160 0.17710 -0.01300
H 	H 	0.12070 0.51680 0.17210 0.08000
H 	H 	0.16990 0.70640 0.26450 0.08600
H 	H 	0.33610 0.73160 0.26520 -0.01300
H 	H 	0.54350 0.36180 0.15760 -0.00500
H 	H 	0.66710 0.46560 0.20160 0.09500
H 	H 	0.86740 0.41080 0.13010 0.08200
H 	H 	0.73940 0.31300 0.08380 0.00100
H 	H 	0.43660 0.78220 0.18580 -0.03000
H 	H 	0.48990 0.85720 0.13400 0.09000
H 	H 	0.67190 0.75160 0.09530 0.08600
H 	H 	0.60900 0.67480 0.14730 -0.00600
H 	H 	0.58880 0.15140 0.99470 -0.00700
H 	H 	0.63510 0.04720 0.98730 0.08300
H 	H 	0.59540 0.04940 0.11950 0.09100
H 	H 	0.56350 0.15820 0.12270 -0.01800
H 	H 	0.91780 0.77840 0.96330 -0.01400
H 	H 	0.78700 0.78500 0.00340 0.08200
H 	H 	0.84580 0.99180 0.97270 0.07500
H 	H 	0.97610 0.97600 0.93320 -0.00600
H 	H 	0.87990 0.83960 0.85160 -0.00900
H 	H 	0.75270 0.75800 0.79930 0.09300
H 	H 	0.88120 0.60440 0.78710 0.08200
H 	H 	0.00320 0.69020 0.84100 -0.01300
H 	H 	0.25580 0.54160 0.67710 -0.01300
H 	H 	0.39610 0.51680 0.67210 0.08000
H 	H 	0.53650 0.70640 0.76450 0.08600
H 	H 	0.39550 0.73160 0.76520 -0.01300
H 	H 	0.81830 0.36180 0.65760 -0.00500
H 	H 	0.79850 0.46560 0.70160 0.09500
H 	H 	0.54340 0.41080 0.63010 0.08200
H 	H 	0.57360 0.31300 0.58380 0.00100
C 	C 	0.28980 0.77680 0.66790 0.10700
C 	C 	0.30330 0.82160 0.63710 -0.14100
C 	C 	0.22490 0.81560 0.61050 0.07600
C 	C 	0.13540 0.75960 0.61420 -0.11400
C 	C 	0.12700 0.71500 0.64550 0.06200
C 	C 	0.23530 0.86980 0.57940 0.10200
C 	C 	0.32800 0.96860 0.54970 0.08700
C 	C 	0.17040 0.90300 0.52330 0.08400
C 	C 	0.53910 0.13000 0.52000 0.08400
C 	C 	0.45110 0.06800 0.51490 -0.12800
C 	C 	0.42280 0.03740 0.55320 0.06000
C 	C 	0.47490 0.06980 0.59360 -0.13500
C 	C 	0.55850 0.13280 0.59470 0.08000
C 	C 	0.91980 0.82200 0.46460 0.07900
C 	C 	0.00030 0.82600 0.49000 -0.12800
C 	C 	0.08380 0.89200 0.49490 0.05400
C 	C 	0.08750 0.94760 0.47200 -0.11900
C 	C 	0.00000 0.93600 0.44710 0.06900
C 	C 	0.91210 0.79060 0.33870 0.07300
C 	C 	0.93950 0.74220 0.30750 -0.11800
C 	C 	0.87160 0.67200 0.28880 0.05800
C 	C 	0.77320 0.65200 0.30070 -0.12500
C 	C 	0.75220 0.70320 0.33240 0.07200
C 	C 	0.89960 0.61760 0.25590 0.10100
C 	C 	0.01560 0.58980 0.21980 0.10500
C 	C 	0.85970 0.51440 0.20050 0.08800
C 	C 	0.26220 0.57640 0.19450 0.07400
C 	C 	0.16380 0.56100 0.19210 -0.12400
C 	C 	0.12550 0.60800 0.21800 0.06200
C 	C 	0.19230 0.67220 0.24570 -0.12200
C 	C 	0.29110 0.68680 0.24620 0.06700
C 	C 	0.61000 0.37400 0.15100 0.07300
C 	C 	0.68300 0.43380 0.17790 -0.12800
C 	C 	0.77960 0.44760 0.17050 0.05200
C 	C 	0.80110 0.40240 0.13550 -0.11900
C 	C 	0.72530 0.34480 0.10810 0.06400
C 	C 	0.48700 0.77680 0.16790 0.10700
C 	C 	0.51830 0.82160 0.13710 -0.14100
C 	C 	0.59070 0.81560 0.11050 0.07600
C 	C 	0.62420 0.75960 0.11420 -0.11400
C 	C 	0.58800 0.71500 0.14550 0.06200
C 	C 	0.63450 0.86980 0.07940 0.10200
C 	C 	0.64060 0.96860 0.04970 0.08800
C 	C 	0.73260 0.90300 0.02330 0.08500
C 	C 	0.59090 0.13000 0.02000 0.08400
C 	C 	0.61690 0.06800 0.01490 -0.12700
C 	C 	0.61460 0.03740 0.05320 0.05900
C 	C 	0.59490 0.06980 0.09360 -0.13400
C 	C 	0.57430 0.13280 0.09470 0.08000
C 	C 	0.90220 0.82200 0.96460 0.07600
C 	C 	0.82570 0.82600 0.99000 -0.12300
C 	C 	0.80820 0.89200 0.99490 0.05400
C 	C 	0.86010 0.94760 0.97200 -0.12000
C 	C 	0.93600 0.93600 0.94710 0.07300
C 	C 	0.87850 0.79060 0.83870 0.07500
C 	C 	0.80270 0.74220 0.80750 -0.12000
C 	C 	0.80040 0.67200 0.78880 0.06000
C 	C 	0.87880 0.65200 0.80070 -0.12600
C 	C 	0.95100 0.70320 0.83240 0.07500
C 	C 	0.71800 0.61760 0.75590 0.10100
C 	C 	0.57420 0.58980 0.71980 0.10500
C 	C 	0.65470 0.51440 0.70050 0.08800
C 	C 	0.31420 0.57640 0.69450 0.07400
C 	C 	0.39720 0.56100 0.69210 -0.12400
C 	C 	0.48250 0.60800 0.71800 0.06200
C 	C 	0.47990 0.67220 0.74570 -0.12200
C 	C 	0.39570 0.68680 0.74620 0.06700
C 	C 	0.76400 0.37400 0.65100 0.07300
C 	C 	0.75080 0.43380 0.67790 -0.12800
C 	C 	0.66800 0.44760 0.67050 0.05200
C 	C 	0.60130 0.40240 0.63550 -0.11900
C 	C 	0.61950 0.34480 0.60810 0.06400
I 	I 	0.03379 0.54690 0.70600 -0.37800
I 	I 	0.21800 0.76438 0.79765 -0.40500
I 	I 	0.83698 0.20568 0.61381 -0.37400
I 	I 	0.77733 0.30518 0.50092 -0.37600
I 	I 	0.64988 0.78336 0.44206 -0.37700
I 	I 	0.82825 0.96732 0.36614 -0.35400
I 	I 	0.51311 0.54690 0.20600 -0.37800
I 	I 	0.54638 0.76438 0.29765 -0.40400
I 	I 	0.36870 0.20568 0.11381 -0.37400
I 	I 	0.52785 0.30518 0.00092 -0.37600
I 	I 	0.13348 0.78336 0.94206 -0.37800
I 	I 	0.13907 0.96732 0.86614 -0.35600
N 	N 	0.20590 0.72780 0.67410 -0.28000
N 	N 	0.32360 0.92460 0.57930 -0.13600
N 	N 	0.25520 0.95960 0.52060 -0.14700
N 	N 	0.15680 0.85560 0.55200 -0.13300
N 	N 	0.59300 0.16160 0.55890 -0.27300
N 	N 	0.91860 0.87380 0.44200 -0.27000
N 	N 	0.82080 0.77040 0.35110 -0.26600
N 	N 	0.99550 0.63900 0.25110 -0.13600
N 	N 	0.95320 0.52800 0.19240 -0.13800
N 	N 	0.82680 0.55460 0.23320 -0.13800
N 	N 	0.32550 0.63980 0.22070 -0.27100
N 	N 	0.63130 0.33280 0.11570 -0.26700
N 	N 	0.52190 0.72780 0.17410 -0.28000
N 	N 	0.60100 0.92460 0.07930 -0.13600
N 	N 	0.70440 0.95960 0.02060 -0.14700
N 	N 	0.69880 0.85560 0.05200 -0.13300
N 	N 	0.56860 0.16160 0.05890 -0.27300
N 	N 	0.95520 0.87380 0.94200 -0.27000
N 	N 	0.94960 0.77040 0.85110 -0.26600
N 	N 	0.64350 0.63900 0.75110 -0.13600
N 	N 	0.57480 0.52800 0.69240 -0.13800
N 	N 	0.72780 0.55460 0.73320 -0.13800
N 	N 	0.31430 0.63980 0.72070 -0.27100
N 	N 	0.70150 0.33280 0.61570 -0.26700
Zn	Zn	0.52335 0.33274 0.77546 1.16300
Zn	Zn	0.47965 0.74910 0.93032 1.16300
Zn	Zn	0.94327 0.14886 0.09999 1.16300
Zn	Zn	0.80939 0.33274 0.27546 1.16300
Zn	Zn	0.26945 0.74910 0.43032 1.16300
Zn	Zn	0.20559 0.14886 0.59999 1.16400
H 	H 	0.56340 0.21780 0.81420 -0.03000
H 	H 	0.51010 0.14280 0.86600 0.09000
H 	H 	0.32810 0.24840 0.90470 0.08600
H 	H 	0.39100 0.32520 0.85270 -0.00600
H 	H 	0.41120 0.84860 0.00530 -0.00700
H 	H 	0.36490 0.95280 0.01270 0.08300
H 	H 	0.40460 0.95060 0.88050 0.09100
H 	H 	0.43650 0.84180 0.87730 -0.01800
H 	H 	0.08220 0.22160 0.03670 -0.01400
H 	H 	0.21300 0.21500 0.99660 0.08200
H 	H 	0.15420 0.00820 0.02730 0.07500
H 	H 	0.02390 0.02400 0.06680 -0.00600
H 	H 	0.12010 0.16040 0.14840 -0.00900
H 	H 	0.24730 0.24200 0.20070 0.09300
H 	H 	0.11880 0.39560 0.21290 0.08200
H 	H 	0.99680 0.30980 0.15900 -0.01300
H 	H 	0.74420 0.45840 0.32290 -0.01300
H 	H 	0.60390 0.48320 0.32790 0.08000
H 	H 	0.46350 0.29360 0.23550 0.08600
H 	H 	0.60450 0.26840 0.23480 -0.01300
H 	H 	0.18170 0.63820 0.34240 -0.00500
H 	H 	0.20150 0.53440 0.29840 0.09500
H 	H 	0.45660 0.58920 0.36990 0.08200
H 	H 	0.42640 0.68700 0.41620 0.00100
H 	H 	0.65440 0.21780 0.31420 -0.03000
H 	H 	0.63270 0.14280 0.36600 0.09000
H 	H 	0.92030 0.24840 0.40470 0.08600
H 	H 	0.93420 0.32520 0.35270 -0.00600
H 	H 	0.43740 0.84860 0.50530 -0.00700
H 	H 	0.58790 0.95280 0.51270 0.08400
H 	H 	0.54600 0.95060 0.38050 0.09100
H 	H 	0.40530 0.84180 0.37730 -0.01800
H 	H 	0.13940 0.22160 0.53670 -0.01500
H 	H 	0.00200 0.21500 0.49660 0.08400
H 	H 	0.85400 0.00820 0.52730 0.07400
H 	H 	0.00010 0.02400 0.56680 -0.00400
H 	H 	0.04030 0.16040 0.64840 -0.00900
H 	H 	0.99470 0.24200 0.70070 0.09100
H 	H 	0.27680 0.39560 0.71290 0.08100
H 	H 	0.31300 0.30980 0.65900 -0.01200
H 	H 	0.71420 0.45840 0.82290 -0.01300
H 	H 	0.87930 0.48320 0.82790 0.08000
H 	H 	0.83010 0.29360 0.73550 0.08600
H 	H 	0.66390 0.26840 0.73480 -0.01300
H 	H 	0.45650 0.63820 0.84240 -0.00500
H 	H 	0.33290 0.53440 0.79840 0.09500
H 	H 	0.13260 0.58920 0.86990 0.08200
H 	H 	0.26060 0.68700 0.91620 0.00100
C 	C 	0.51300 0.22320 0.83210 0.10700
C 	C 	0.48170 0.17840 0.86290 -0.14100
C 	C 	0.40930 0.18440 0.88950 0.07600
C 	C 	0.37580 0.24040 0.88580 -0.11400
C 	C 	0.41200 0.28500 0.85450 0.06200
C 	C 	0.36550 0.13020 0.92060 0.10200
C 	C 	0.35940 0.03140 0.95030 0.08800
C 	C 	0.26740 0.09700 0.97670 0.08500
C 	C 	0.40910 0.87000 0.98000 0.08400
C 	C 	0.38310 0.93200 0.98510 -0.12700
C 	C 	0.38540 0.96260 0.94680 0.05900
C 	C 	0.40510 0.93020 0.90640 -0.13400
C 	C 	0.42570 0.86720 0.90530 0.08000
C 	C 	0.09780 0.17800 0.03540 0.07600
C 	C 	0.17430 0.17400 0.01000 -0.12300
C 	C 	0.19180 0.10800 0.00510 0.05400
C 	C 	0.13990 0.05240 0.02800 -0.12000
C 	C 	0.06400 0.06400 0.05290 0.07300
C 	C 	0.12150 0.20940 0.16130 0.07500
C 	C 	0.19730 0.25780 0.19250 -0.12000
C 	C 	0.19960 0.32800 0.21120 0.06000
C 	C 	0.12120 0.34800 0.19930 -0.12600
C 	C 	0.04900 0.29680 0.16760 0.07500
C 	C 	0.28200 0.38240 0.24410 0.10100
C 	C 	0.42580 0.41020 0.28020 0.10500
C 	C 	0.34530 0.48560 0.29950 0.08800
C 	C 	0.68580 0.42360 0.30550 0.07400
C 	C 	0.60280 0.43900 0.30790 -0.12400
C 	C 	0.51750 0.39200 0.28200 0.06200
C 	C 	0.52010 0.32780 0.25430 -0.12200
C 	C 	0.60430 0.31320 0.25380 0.06700
C 	C 	0.23600 0.62600 0.34900 0.07300
C 	C 	0.24920 0.56620 0.32210 -0.12800
C 	C 	0.33200 0.55240 0.32950 0.05200
C 	C 	0.39870 0.59760 0.36450 -0.11900
C 	C 	0.38050 0.65520 0.39190 0.06400
C 	C 	0.71020 0.22320 0.33210 0.10700
C 	C 	0.69670 0.17840 0.36290 -0.14100
C 	C 	0.77510 0.18440 0.38950 0.07600
C 	C 	0.86460 0.24040 0.38580 -0.11400
C 	C 	0.87300 0.28500 0.35450 0.06200
C 	C 	0.76470 0.13020 0.42060 0.10200
C 	C 	0.67200 0.03140 0.45030 0.08700
C 	C 	0.82960 0.09700 0.47670 0.08400
C 	C 	0.46090 0.87000 0.48000 0.08400
C 	C 	0.54890 0.93200 0.48510 -0.12800
C 	C 	0.57720 0.96260 0.44680 0.06000
C 	C 	0.52510 0.93020 0.40640 -0.13500
C 	C 	0.44150 0.86720 0.40530 0.08000
C 	C 	0.08020 0.17800 0.53540 0.07900
C 	C 	0.99970 0.17400 0.51000 -0.12800
C 	C 	0.91620 0.10800 0.50510 0.05400
C 	C 	0.91250 0.05240 0.52800 -0.11900
C 	C 	1.00000 0.06400 0.55290 0.06900
C 	C 	0.08790 0.20940 0.66130 0.07300
C 	C 	0.06050 0.25780 0.69250 -0.11800
C 	C 	0.12840 0.32800 0.71120 0.05800
C 	C 	0.22680 0.34800 0.69930 -0.12500
C 	C 	0.24780 0.29680 0.66760 0.07200
C 	C 	0.10040 0.38240 0.74410 0.10100
C 	C 	0.98440 0.41020 0.78020 0.10500
C 	C 	0.14030 0.48560 0.79950 0.08800
C 	C 	0.73780 0.42360 0.80550 0.07400
C 	C 	0.83620 0.43900 0.80790 -0.12400
C 	C 	0.87450 0.39200 0.78200 0.06200
C 	C 	0.80770 0.32780 0.75430 -0.12200
C 	C 	0.70890 0.31320 0.75380 0.06700
C 	C 	0.39000 0.62600 0.84900 0.07300
C 	C 	0.31700 0.56620 0.82210 -0.12800
C 	C 	0.22040 0.55240 0.82950 0.05200
C 	C 	0.19890 0.59760 0.86450 -0.11900
C 	C 	0.27470 0.65520 0.89190 0.06400
I 	I 	0.48689 0.45310 0.79400 -0.37800
I 	I 	0.45362 0.23562 0.70235 -0.40400
I 	I 	0.63130 0.79432 0.88619 -0.37400
I 	I 	0.47215 0.69482 0.99908 -0.37600
I 	I 	0.86652 0.21664 0.05794 -0.37800
I 	I 	0.86093 0.03268 0.13386 -0.35600
I 	I 	0.96621 0.45310 0.29400 -0.37800
I 	I 	0.78200 0.23562 0.20235 -0.40500
I 	I 	0.16302 0.79432 0.38619 -0.37400
I 	I 	0.22267 0.69482 0.49908 -0.37600
I 	I 	0.35012 0.21664 0.55794 -0.37700
I 	I 	0.17175 0.03268 0.63386 -0.35400
N 	N 	0.47810 0.27220 0.82590 -0.28000
N 	N 	0.39900 0.07540 0.92070 -0.13600
N 	N 	0.29560 0.04040 0.97940 -0.14700
N 	N 	0.30120 0.14440 0.94800 -0.13300
N 	N 	0.43140 0.83840 0.94110 -0.27300
N 	N 	0.04480 0.12620 0.05800 -0.27000
N 	N 	0.05040 0.22960 0.14890 -0.26600
N 	N 	0.35650 0.36100 0.24890 -0.13600
N 	N 	0.42520 0.47200 0.30760 -0.13800
N 	N 	0.27220 0.44540 0.26680 -0.13800
N 	N 	0.68570 0.36020 0.27930 -0.27100
N 	N 	0.29850 0.66720 0.38430 -0.26700
N 	N 	0.79410 0.27220 0.32590 -0.28000
N 	N 	0.67640 0.07540 0.42070 -0.13600
N 	N 	0.74480 0.04040 0.47940 -0.14700
N 	N 	0.84320 0.14440 0.44800 -0.13300
N 	N 	0.40700 0.83840 0.44110 -0.27300
N 	N 	0.08140 0.12620 0.55800 -0.27000
N 	N 	0.17920 0.22960 0.64890 -0.26600
N 	N 	0.00450 0.36100 0.74890 -0.13600
N 	N 	0.04680 0.47200 0.80760 -0.13800
N 	N 	0.17320 0.44540 0.76680 -0.13800
N 	N 	0.67450 0.36020 0.77930 -0.27100
N 	N 	0.36870 0.66720 0.88430 -0.26700
