data_crystal

_cell_length_a 14.88400
_cell_length_b 18.82180
_cell_length_c 30.64600
_cell_angle_alpha 100.24900
_cell_angle_beta  90.00000
_cell_angle_gamma 113.29000

_symmetry_space_group_name_	'P 1'
_symmetry_space_group_name_H-M	'P 1'

loop_
_symmetry_equiv_pos_as_xyz
  x,y,z

loop_
_atom_site_label
_atom_site_type_symbol
_atom_site_fract_x
_atom_site_fract_y
_atom_site_fract_z
_atom_site_charge
Zn	Zn	0.35554 0.95948 0.23151 1.15500
Zn	Zn	0.21191 0.14502 0.40958 1.16900
Zn	Zn	0.66830 0.54240 0.58266 1.16900
Zn	Zn	0.60394 0.95948 0.73151 1.15500
Zn	Zn	0.93311 0.14502 0.90958 1.16600
Zn	Zn	0.87410 0.54240 0.08266 1.16700
H 	H 	0.55820 0.98900 0.27120 -0.02700
H 	H 	0.70400 0.10400 0.30810 0.09900
H 	H 	0.51870 0.20020 0.35450 0.07300
H 	H 	0.38340 0.09120 0.30840 -0.00400
H 	H 	0.13660 0.26740 0.46990 -0.00200
H 	H 	0.98420 0.28280 0.47370 0.09000
H 	H 	0.86990 0.09140 0.37900 0.10100
H 	H 	0.03110 0.08800 0.37660 -0.05400
H 	H 	0.57330 0.43780 0.49530 0.01200
H 	H 	0.58930 0.32780 0.44960 0.08000
H 	H 	0.85300 0.38520 0.51630 0.07700
H 	H 	0.79920 0.46220 0.57210 -0.00400
H 	H 	0.05920 0.00400 0.43740 -0.02300
H 	H 	0.05210 0.90200 0.47760 0.09700
H 	H 	0.30860 0.08960 0.54590 0.08800
H 	H 	0.29780 0.15320 0.49010 -0.03400
H 	H 	0.85360 0.64120 0.64700 -0.02400
H 	H 	0.99810 0.72540 0.64170 0.07600
H 	H 	0.95420 0.73780 0.52190 0.05900
H 	H 	0.79090 0.63580 0.51800 0.02000
H 	H 	0.40440 0.99540 0.61410 0.07300
H 	H 	0.25620 0.81040 0.66300 0.08500
H 	H 	0.55770 0.01200 0.65690 0.01100
H 	H 	0.40190 0.83320 0.70510 -0.02800
H 	H 	0.43080 0.98900 0.77120 -0.02600
H 	H 	0.40000 0.10400 0.80810 0.09900
H 	H 	0.68150 0.20020 0.85450 0.07300
H 	H 	0.70780 0.09120 0.80840 -0.00400
H 	H 	0.13080 0.26740 0.96990 0.00900
H 	H 	0.29860 0.28280 0.97370 0.08400
H 	H 	0.22150 0.09140 0.87900 0.09400
H 	H 	0.05690 0.08800 0.87660 -0.04200
H 	H 	0.86450 0.43780 0.99530 0.01600
H 	H 	0.73850 0.32780 0.94960 0.07700
H 	H 	0.53220 0.38520 0.01630 0.08000
H 	H 	0.66300 0.46220 0.07210 -0.00200
H 	H 	0.94480 0.00400 0.93740 -0.02900
H 	H 	0.84990 0.90200 0.97760 0.09200
H 	H 	0.78100 0.08960 0.04590 0.08900
H 	H 	0.85540 0.15320 0.99010 -0.03600
H 	H 	0.78760 0.64120 0.14700 -0.02700
H 	H 	0.72730 0.72540 0.14170 0.08500
H 	H 	0.78360 0.73780 0.02190 0.06600
H 	H 	0.84490 0.63580 0.01800 0.01500
H 	H 	0.59100 0.99540 0.11410 0.07300
H 	H 	0.55420 0.81040 0.16300 0.08300
H 	H 	0.45430 0.01200 0.15690 0.01200
H 	H 	0.43130 0.83320 0.20510 -0.02900
C 	C 	0.55120 0.03440 0.28710 0.10200
C 	C 	0.63730 0.09240 0.31360 -0.11800
C 	C 	0.60020 0.12880 0.35030 0.04400
C 	C 	0.52140 0.15160 0.34120 -0.11100
C 	C 	0.44710 0.09100 0.30930 0.06200
C 	C 	0.67780 0.17740 0.38590 0.11100
C 	C 	0.82640 0.21400 0.42290 0.09400
C 	C 	0.72860 0.27140 0.44480 0.10000
C 	C 	0.08240 0.23160 0.44990 0.08600
C 	C 	0.98850 0.24120 0.45250 -0.15800
C 	C 	0.91280 0.19440 0.42660 0.09300
C 	C 	0.92380 0.13120 0.39760 -0.16900
C 	C 	0.02480 0.12940 0.39730 0.15800
C 	C 	0.62690 0.42440 0.50070 0.03400
C 	C 	0.63960 0.35940 0.47230 -0.08700
C 	C 	0.72210 0.33900 0.47580 0.02300
C 	C 	0.79130 0.38820 0.51260 -0.09300
C 	C 	0.76430 0.44220 0.54370 0.06500
C 	C 	0.11490 0.01160 0.45580 0.13400
C 	C 	0.10360 0.95320 0.48240 -0.15500
C 	C 	0.18000 0.98280 0.51670 0.04500
C 	C 	0.25950 0.06540 0.52180 -0.10700
C 	C 	0.25200 0.10040 0.48810 0.11100
C 	C 	0.16160 0.92960 0.55120 0.10900
C 	C 	0.07190 0.82780 0.58040 0.11600
C 	C 	0.86670 0.66420 0.62120 0.13200
C 	C 	0.94920 0.71700 0.61910 -0.13500
C 	C 	0.98070 0.76920 0.58500 0.00300
C 	C 	0.23940 0.89740 0.60440 0.07700
C 	C 	0.92710 0.72600 0.54910 -0.05400
C 	C 	0.83050 0.66160 0.54510 -0.01500
C 	C 	0.32170 0.90240 0.63440 0.07800
C 	C 	0.40180 0.95920 0.63260 -0.12000
C 	C 	0.31590 0.85360 0.66080 -0.15800
C 	C 	0.49540 0.97180 0.65950 0.02300
C 	C 	0.40410 0.86880 0.68620 0.11900
C 	C 	0.48320 0.03440 0.78710 0.10300
C 	C 	0.45510 0.09240 0.81360 -0.11800
C 	C 	0.52860 0.12880 0.85030 0.04500
C 	C 	0.63020 0.15160 0.84120 -0.11100
C 	C 	0.64390 0.09100 0.80930 0.06300
C 	C 	0.49960 0.17740 0.88590 0.11100
C 	C 	0.38760 0.21400 0.92290 0.10300
C 	C 	0.54280 0.27140 0.94480 0.10100
C 	C 	0.14920 0.23160 0.94990 0.05900
C 	C 	0.25270 0.24120 0.95250 -0.11900
C 	C 	0.28160 0.19440 0.92660 0.07100
C 	C 	0.20740 0.13120 0.89760 -0.13200
C 	C 	0.10460 0.12940 0.89730 0.12800
C 	C 	0.79750 0.42440 0.00070 0.01900
C 	C 	0.71980 0.35940 0.97230 -0.07800
C 	C 	0.61690 0.33900 0.97580 0.02600
C 	C 	0.59690 0.38820 0.01260 -0.09800
C 	C 	0.67790 0.44220 0.04370 0.06600
C 	C 	0.89670 0.01160 0.95580 0.13000
C 	C 	0.84960 0.95320 0.98240 -0.14800
C 	C 	0.80280 0.98280 0.01670 0.04100
C 	C 	0.80590 0.06540 0.02180 -0.11500
C 	C 	0.84840 0.10040 0.98810 0.11700
C 	C 	0.76800 0.92960 0.05120 0.10800
C 	C 	0.75590 0.82780 0.08040 0.09500
C 	C 	0.79750 0.66420 0.12120 0.14100
C 	C 	0.76780 0.71700 0.11910 -0.14900
C 	C 	0.78850 0.76920 0.08500 0.02700
C 	C 	0.65800 0.89740 0.10440 0.07600
C 	C 	0.79890 0.72600 0.04910 -0.06800
C 	C 	0.83110 0.66160 0.04510 -0.00900
C 	C 	0.58070 0.90240 0.13440 0.07800
C 	C 	0.55740 0.95920 0.13260 -0.11900
C 	C 	0.53770 0.85360 0.16080 -0.15800
C 	C 	0.47640 0.97180 0.15950 0.02300
C 	C 	0.46470 0.86880 0.18620 0.11900
I 	I 	0.27868 0.03432 0.19552 -0.35700
I 	I 	0.26809 0.84436 0.27141 -0.35200
I 	I 	0.19377 0.06248 0.33680 -0.40100
I 	I 	0.36324 0.27646 0.44179 -0.35300
I 	I 	0.65705 0.49550 0.65334 -0.38500
I 	I 	0.54711 0.57688 0.54625 -0.39100
I 	I 	0.75564 0.03432 0.69552 -0.36300
I 	I 	0.57627 0.84436 0.77141 -0.35200
I 	I 	0.86871 0.06248 0.83680 -0.41600
I 	I 	0.91322 0.27646 0.94179 -0.36300
I 	I 	0.83845 0.49550 0.15334 -0.39400
I 	I 	0.02977 0.57688 0.04625 -0.37700
N 	N 	0.46100 0.03580 0.28160 -0.26700
N 	N 	0.75910 0.16540 0.39080 -0.13200
N 	N 	0.81710 0.27200 0.45240 -0.14100
N 	N 	0.66090 0.23520 0.41040 -0.14500
N 	N 	0.09490 0.17220 0.41910 -0.31000
N 	N 	0.69510 0.46500 0.53530 -0.26800
N 	N 	0.19300 0.07260 0.45470 -0.29700
N 	N 	0.07280 0.87360 0.55190 -0.13900
N 	N 	0.15030 0.84220 0.60720 -0.14800
N 	N 	0.24340 0.94400 0.57550 -0.13900
N 	N 	0.80160 0.64100 0.59070 -0.26500
N 	N 	0.48260 0.92440 0.68530 -0.28100
N 	N 	0.57480 0.03580 0.78160 -0.26700
N 	N 	0.40630 0.16540 0.89080 -0.13300
N 	N 	0.45490 0.27200 0.95240 -0.14000
N 	N 	0.57430 0.23520 0.91040 -0.14600
N 	N 	0.07730 0.17220 0.91910 -0.29500
N 	N 	0.76990 0.46500 0.03530 -0.26700
N 	N 	0.87960 0.07260 0.95470 -0.29900
N 	N 	0.80080 0.87360 0.05190 -0.14100
N 	N 	0.69190 0.84220 0.10720 -0.14700
N 	N 	0.70060 0.94400 0.07550 -0.13800
N 	N 	0.83940 0.64100 0.09070 -0.27000
N 	N 	0.44180 0.92440 0.18530 -0.28100
Zn	Zn	0.92342 0.05104 0.19419 1.17000
Zn	Zn	0.19140 0.63684 0.54300 1.16400
Zn	Zn	0.86296 0.44652 0.36451 1.16400
Zn	Zn	0.12762 0.05104 0.69419 1.17500
Zn	Zn	0.44544 0.63684 0.04300 1.16300
Zn	Zn	0.58356 0.44652 0.86451 1.16400
H 	H 	0.94910 0.17780 0.28310 -0.02500
H 	H 	0.06900 0.25900 0.33240 0.11200
H 	H 	0.27200 0.22960 0.25320 0.08300
H 	H 	0.15220 0.11680 0.21350 0.03200
H 	H 	0.36260 0.60920 0.51540 -0.00400
H 	H 	0.40720 0.53520 0.45430 0.08800
H 	H 	0.12850 0.43000 0.40990 0.07600
H 	H 	0.08500 0.48200 0.47660 -0.00000
H 	H 	0.68810 0.33920 0.31480 -0.02100
H 	H 	0.51240 0.29900 0.31510 0.07400
H 	H 	0.55390 0.48800 0.40180 0.08800
H 	H 	0.72290 0.53660 0.40000 -0.00100
H 	H 	0.89620 0.58820 0.34490 -0.07600
H 	H 	0.93920 0.67200 0.29700 0.11400
H 	H 	0.05660 0.53840 0.22470 0.09400
H 	H 	0.96600 0.43480 0.27130 0.00600
H 	H 	0.01870 0.96460 0.13840 -0.03800
H 	H 	0.05380 0.84860 0.12910 0.11000
H 	H 	0.91540 0.81980 0.24210 0.12500
H 	H 	0.88020 0.91880 0.23670 -0.07600
H 	H 	0.33790 0.58020 0.12670 -0.00300
H 	H 	0.22260 0.59200 0.16900 0.08100
H 	H 	0.23120 0.77660 0.11090 0.07000
H 	H 	0.34940 0.75320 0.06390 -0.00300
H 	H 	0.22870 0.17780 0.78310 0.00200
H 	H 	0.19000 0.25900 0.83240 0.09400
H 	H 	0.95760 0.22960 0.75320 0.05900
H 	H 	0.96460 0.11680 0.71350 0.01800
H 	H 	0.24660 0.60920 0.01540 -0.01000
H 	H 	0.12800 0.53520 0.95430 0.09300
H 	H 	0.30150 0.43000 0.90990 0.07300
H 	H 	0.39700 0.48200 0.97660 -0.00400
H 	H 	0.65110 0.33920 0.81480 -0.02200
H 	H 	0.78660 0.29900 0.81510 0.07500
H 	H 	0.93410 0.48800 0.90180 0.08500
H 	H 	0.81370 0.53660 0.90000 -0.00200
H 	H 	0.69200 0.58820 0.84490 -0.07200
H 	H 	0.73280 0.67200 0.79700 0.10900
H 	H 	0.48180 0.53840 0.72470 0.09300
H 	H 	0.46880 0.43480 0.77130 0.00600
H 	H 	0.94590 0.96460 0.63840 -0.03500
H 	H 	0.79480 0.84860 0.62910 0.09500
H 	H 	0.90440 0.81980 0.74210 0.10100
H 	H 	0.03860 0.91880 0.73670 -0.04000
H 	H 	0.24230 0.58020 0.62670 -0.00300
H 	H 	0.36940 0.59200 0.66900 0.08100
H 	H 	0.54540 0.77660 0.61090 0.06900
H 	H 	0.40380 0.75320 0.56390 -0.00300
C 	C 	0.01390 0.18240 0.27780 0.13300
C 	C 	0.08410 0.23320 0.30560 -0.17500
C 	C 	0.17850 0.25020 0.29760 0.07200
C 	C 	0.20560 0.21240 0.26040 -0.10600
C 	C 	0.13530 0.15120 0.23530 0.02900
C 	C 	0.25680 0.31300 0.33000 0.07600
C 	C 	0.29780 0.41460 0.38990 0.09700
C 	C 	0.41430 0.38860 0.35690 0.09300
C 	C 	0.31310 0.56880 0.49490 0.07600
C 	C 	0.33980 0.52280 0.45820 -0.10300
C 	C 	0.26690 0.45880 0.42740 0.05100
C 	C 	0.17820 0.45880 0.43340 -0.11000
C 	C 	0.15210 0.49660 0.47090 0.05300
C 	C 	0.66080 0.36980 0.33390 0.06200
C 	C 	0.55580 0.34820 0.33200 -0.11200
C 	C 	0.51870 0.40080 0.35550 0.06900
C 	C 	0.58020 0.45860 0.38130 -0.12600
C 	C 	0.68100 0.48560 0.38430 0.05800
C 	C 	0.92230 0.57240 0.31840 0.19500
C 	C 	0.95170 0.62560 0.29140 -0.23000
C 	C 	0.00080 0.60920 0.25510 0.13600
C 	C 	0.01680 0.54740 0.24740 -0.13000
C 	C 	0.96690 0.48640 0.27780 0.04900
C 	C 	0.03540 0.66140 0.22150 0.07700
C 	C 	0.03930 0.76440 0.18750 0.07300
C 	C 	0.13410 0.70080 0.16830 0.09200
C 	C 	0.00460 0.93480 0.16150 0.15400
C 	C 	0.02880 0.86700 0.15520 -0.20600
C 	C 	0.01210 0.83460 0.18970 0.13800
C 	C 	0.94450 0.85200 0.22100 -0.27200
C 	C 	0.92790 0.91020 0.21850 0.22500
C 	C 	0.31180 0.61740 0.12250 0.06800
C 	C 	0.24750 0.62440 0.14760 -0.11500
C 	C 	0.21280 0.68680 0.14180 0.04600
C 	C 	0.25040 0.73480 0.11280 -0.10300
C 	C 	0.32090 0.72060 0.08500 0.04600
C 	C 	0.16850 0.18240 0.77780 0.08300
C 	C 	0.14910 0.23320 0.80560 -0.13400
C 	C 	0.07170 0.25020 0.79760 0.04300
C 	C 	0.00680 0.21240 0.76040 -0.06600
C 	C 	0.01590 0.15120 0.73530 0.03400
C 	C 	0.05620 0.31300 0.83000 0.09900
C 	C 	0.11680 0.41460 0.88990 0.10000
C 	C 	0.97430 0.38860 0.85690 0.07800
C 	C 	0.25570 0.56880 0.99490 0.08700
C 	C 	0.18300 0.52280 0.95820 -0.10700
C 	C 	0.19190 0.45880 0.92740 0.05400
C 	C 	0.28060 0.45880 0.93340 -0.11200
C 	C 	0.34450 0.49660 0.97090 0.05400
C 	C 	0.70900 0.36980 0.83390 0.06300
C 	C 	0.79240 0.34820 0.83200 -0.11400
C 	C 	0.88210 0.40080 0.85550 0.07200
C 	C 	0.87840 0.45860 0.88130 -0.12900
C 	C 	0.80460 0.48560 0.88430 0.05800
C 	C 	0.65010 0.57240 0.81840 0.18500
C 	C 	0.67390 0.62560 0.79140 -0.20300
C 	C 	0.60840 0.60920 0.75510 0.11600
C 	C 	0.53060 0.54740 0.74740 -0.13900
C 	C 	0.51950 0.48640 0.77780 0.06300
C 	C 	0.62600 0.66140 0.72150 0.07800
C 	C 	0.72510 0.76440 0.68750 0.08200
C 	C 	0.56670 0.70080 0.66830 0.09100
C 	C 	0.93020 0.93480 0.66150 0.11600
C 	C 	0.83820 0.86700 0.65520 -0.17200
C 	C 	0.82250 0.83460 0.68970 0.09200
C 	C 	0.90750 0.85200 0.72100 -0.19800
C 	C 	0.98230 0.91020 0.71850 0.15200
C 	C 	0.30560 0.61740 0.62250 0.06800
C 	C 	0.37690 0.62440 0.64760 -0.11500
C 	C 	0.47400 0.68680 0.64180 0.04600
C 	C 	0.48440 0.73480 0.61280 -0.10300
C 	C 	0.39970 0.72060 0.58500 0.04600
I 	I 	0.76675 0.01826 0.23022 -0.37500
I 	I 	0.95972 0.09944 0.12251 -0.37200
I 	I 	0.04153 0.56142 0.58112 -0.36100
I 	I 	0.22052 0.74964 0.50486 -0.36700
I 	I 	0.89689 0.33032 0.34520 -0.42000
I 	I 	0.92820 0.54264 0.44392 -0.38300
I 	I 	0.25151 0.01826 0.73022 -0.36800
I 	I 	0.13972 0.09944 0.62251 -0.34800
I 	I 	0.51989 0.56142 0.08112 -0.37800
I 	I 	0.52912 0.74964 0.00486 -0.37500
I 	I 	0.43343 0.33032 0.84520 -0.41200
I 	I 	0.61444 0.54264 0.94392 -0.36800
N 	N 	0.02580 0.13440 0.24060 -0.26400
N 	N 	0.22600 0.35320 0.36290 -0.13600
N 	N 	0.39600 0.44200 0.38710 -0.13300
N 	N 	0.35340 0.33160 0.32430 -0.13400
N 	N 	0.22360 0.55480 0.49950 -0.26900
N 	N 	0.71610 0.43140 0.36210 -0.26500
N 	N 	0.92420 0.50980 0.31420 -0.30300
N 	N 	0.01410 0.72680 0.22080 -0.12000
N 	N 	0.10480 0.75760 0.16030 -0.14500
N 	N 	0.10590 0.65220 0.19650 -0.13200
N 	N 	0.96680 0.95860 0.19450 -0.34200
N 	N 	0.34710 0.66000 0.08890 -0.25200
N 	N 	0.10860 0.13440 0.74060 -0.26100
N 	N 	0.12720 0.35320 0.86290 -0.13900
N 	N 	0.04600 0.44200 0.88710 -0.12200
N 	N 	0.97820 0.33160 0.82430 -0.14300
N 	N 	0.33120 0.55480 0.99950 -0.27000
N 	N 	0.71530 0.43140 0.86210 -0.26500
N 	N 	0.58560 0.50980 0.81420 -0.30100
N 	N 	0.71270 0.72680 0.72080 -0.12700
N 	N 	0.65280 0.75760 0.66030 -0.14800
N 	N 	0.54630 0.65220 0.69650 -0.13300
N 	N 	0.99180 0.95860 0.69450 -0.31500
N 	N 	0.31290 0.66000 0.58890 -0.25100
