data_crystal

_cell_length_a 14.87900
_cell_length_b 18.85200
_cell_length_c 30.83600
_cell_angle_alpha 100.81800
_cell_angle_beta  90.00000
_cell_angle_gamma 113.24300

_symmetry_space_group_name_	'P 1'
_symmetry_space_group_name_H-M	'P 1'

loop_
_symmetry_equiv_pos_as_xyz
  x,y,z

loop_
_atom_site_label
_atom_site_type_symbol
_atom_site_fract_x
_atom_site_fract_y
_atom_site_fract_z
_atom_site_charge
Zn	Zn	0.52040 0.25208 0.55832 1.16900
Zn	Zn	0.79975 0.84602 0.90331 1.16700
Zn	Zn	0.18132 0.64824 0.22369 1.16400
Zn	Zn	0.73168 0.25208 0.05832 1.16800
Zn	Zn	0.04627 0.84602 0.40331 1.16600
Zn	Zn	0.46692 0.64824 0.72369 1.16400
H 	H 	0.74040 0.32340 0.57270 0.00500
H 	H 	0.86730 0.41320 0.62440 0.08200
H 	H 	0.66280 0.46260 0.69570 0.08800
H 	H 	0.54260 0.36660 0.64540 0.00400
H 	H 	0.33280 0.72100 0.76050 -0.01900
H 	H 	0.17120 0.70380 0.76120 0.08900
H 	H 	0.10690 0.50660 0.67000 0.08300
H 	H 	0.27000 0.52860 0.66970 -0.00800
H 	H 	0.69170 0.69300 0.83600 -0.00700
H 	H 	0.72460 0.60920 0.78060 0.07700
H 	H 	0.01060 0.73860 0.81380 0.09700
H 	H 	0.97090 0.82160 0.86530 -0.01000
H 	H 	0.00820 0.96980 0.93370 -0.02000
H 	H 	0.14450 0.98740 0.97460 0.08400
H 	H 	0.97880 0.79780 0.02320 0.08700
H 	H 	0.85020 0.78140 0.97420 -0.01800
H 	H 	0.63270 0.12540 0.10630 -0.01600
H 	H 	0.47920 0.03060 0.11040 0.08800
H 	H 	0.39550 0.05640 0.99450 0.09300
H 	H 	0.54260 0.15440 0.99510 -0.01500
H 	H 	0.07720 0.64480 0.13730 -0.00600
H 	H 	0.08870 0.72600 0.08850 0.08400
H 	H 	0.34360 0.88120 0.15620 0.08400
H 	H 	0.31940 0.79960 0.20640 -0.02200
H 	H 	0.58300 0.32340 0.07270 0.00500
H 	H 	0.54590 0.41320 0.12440 0.08200
H 	H 	0.79980 0.46260 0.19570 0.08800
H 	H 	0.82400 0.36660 0.14540 0.00400
H 	H 	0.38820 0.72100 0.26050 -0.01900
H 	H 	0.53260 0.70380 0.26120 0.08900
H 	H 	0.39970 0.50660 0.17000 0.08300
H 	H 	0.25860 0.52860 0.16970 -0.00800
H 	H 	0.00130 0.69300 0.33600 -0.00900
H 	H 	0.88460 0.60920 0.28060 0.07800
H 	H 	0.72800 0.73860 0.31380 0.09900
H 	H 	0.85070 0.82160 0.36530 -0.01100
H 	H 	0.96160 0.96980 0.43370 -0.01900
H 	H 	0.84290 0.98740 0.47460 0.08500
H 	H 	0.81900 0.79780 0.52320 0.08700
H 	H 	0.93120 0.78140 0.47420 -0.01900
H 	H 	0.49270 0.12540 0.60630 -0.01600
H 	H 	0.55140 0.03060 0.61040 0.08800
H 	H 	0.66090 0.05640 0.49450 0.09200
H 	H 	0.61180 0.15440 0.49510 -0.01500
H 	H 	0.56760 0.64480 0.63730 -0.00600
H 	H 	0.63730 0.72600 0.58850 0.08400
H 	H 	0.53760 0.88120 0.65620 0.08400
H 	H 	0.48020 0.79960 0.70640 -0.02200
C 	C 	0.72490 0.35000 0.59910 0.06100
C 	C 	0.80110 0.40540 0.62860 -0.10300
C 	C 	0.77700 0.45020 0.66540 0.03700
C 	C 	0.68060 0.43380 0.67100 -0.11500
C 	C 	0.60920 0.37600 0.64110 0.06200
C 	C 	0.85600 0.51660 0.69460 0.09900
C 	C 	0.01520 0.58660 0.71660 0.09700
C 	C 	0.90020 0.61720 0.75110 0.10900
C 	C 	0.28540 0.67520 0.74210 0.08400
C 	C 	0.18990 0.66660 0.74250 -0.13700
C 	C 	0.12250 0.60180 0.71460 0.07400
C 	C 	0.15370 0.55200 0.68910 -0.13400
C 	C 	0.25010 0.56360 0.68950 0.07300
C 	C 	0.75830 0.70320 0.83100 0.06800
C 	C 	0.77730 0.65360 0.79740 -0.12600
C 	C 	0.87240 0.66780 0.78800 0.06300
C 	C 	0.94340 0.72920 0.81650 -0.13100
C 	C 	0.91900 0.77680 0.84830 0.09500
C 	C 	0.00280 0.93180 0.95100 0.10500
C 	C 	0.08450 0.94420 0.97580 -0.15400
C 	C 	0.07850 0.89340 0.00220 0.07200
C 	C 	0.98790 0.83260 0.00340 -0.13300
C 	C 	0.91130 0.82480 0.97470 0.08500
C 	C 	0.16480 0.90300 0.03070 0.07800
C 	C 	0.32590 0.96540 0.05450 0.08100
C 	C 	0.23000 0.86540 0.08490 0.09900
C 	C 	0.58210 0.11360 0.08400 0.07800
C 	C 	0.49250 0.05460 0.08530 -0.13800
C 	C 	0.42250 0.03020 0.05150 0.07900
C 	C 	0.44320 0.07020 0.01860 -0.16000
C 	C 	0.53000 0.12900 0.01970 0.11400
C 	C 	0.13100 0.69460 0.14160 0.06800
C 	C 	0.13790 0.74220 0.11220 -0.11400
C 	C 	0.21720 0.81420 0.11730 0.06600
C 	C 	0.28640 0.83340 0.15240 -0.12100
C 	C 	0.27270 0.78380 0.18170 0.08200
C 	C 	0.62510 0.35000 0.09910 0.06100
C 	C 	0.60430 0.40540 0.12860 -0.10300
C 	C 	0.67320 0.45020 0.16540 0.03700
C 	C 	0.75320 0.43380 0.17100 -0.11500
C 	C 	0.76680 0.37600 0.14110 0.06200
C 	C 	0.66060 0.51660 0.19460 0.09900
C 	C 	0.57140 0.58660 0.21660 0.09800
C 	C 	0.71700 0.61720 0.25110 0.10800
C 	C 	0.38980 0.67520 0.24210 0.08400
C 	C 	0.47670 0.66660 0.24250 -0.13700
C 	C 	0.47930 0.60180 0.21460 0.07400
C 	C 	0.39830 0.55200 0.18910 -0.13300
C 	C 	0.31350 0.56360 0.18950 0.07300
C 	C 	0.94490 0.70320 0.33100 0.07000
C 	C 	0.87630 0.65360 0.29740 -0.12800
C 	C 	0.79540 0.66780 0.28800 0.06500
C 	C 	0.78580 0.72920 0.31650 -0.13500
C 	C 	0.85780 0.77680 0.34830 0.09700
C 	C 	0.92900 0.93180 0.45100 0.10800
C 	C 	0.85970 0.94420 0.47580 -0.15500
C 	C 	0.81490 0.89340 0.50220 0.07300
C 	C 	0.84470 0.83260 0.50340 -0.13500
C 	C 	0.91350 0.82480 0.47470 0.08600
C 	C 	0.73820 0.90300 0.53070 0.07800
C 	C 	0.63950 0.96540 0.55450 0.08200
C 	C 	0.63540 0.86540 0.58490 0.10000
C 	C 	0.53150 0.11360 0.58400 0.07800
C 	C 	0.56210 0.05460 0.58530 -0.13700
C 	C 	0.60770 0.03020 0.55150 0.07700
C 	C 	0.62700 0.07020 0.51860 -0.15800
C 	C 	0.59900 0.12900 0.51970 0.11400
C 	C 	0.56360 0.69460 0.64160 0.06800
C 	C 	0.60430 0.74220 0.61220 -0.11400
C 	C 	0.59700 0.81420 0.61730 0.06600
C 	C 	0.54700 0.83340 0.65240 -0.12100
C 	C 	0.51110 0.78380 0.68170 0.08200
I 	I 	0.56088 0.30456 0.48805 -0.36900
I 	I 	0.36528 0.22224 0.59451 -0.39500
I 	I 	0.83392 0.96206 0.86617 -0.35100
I 	I 	0.64656 0.77362 0.93928 -0.37600
I 	I 	0.03311 0.52196 0.19774 -0.38500
I 	I 	0.20194 0.73952 0.29935 -0.39400
I 	I 	0.74368 0.30456 0.98805 -0.36900
I 	I 	0.85696 0.22224 0.09451 -0.39600
I 	I 	0.12814 0.96206 0.36617 -0.35400
I 	I 	0.12706 0.77362 0.43928 -0.37700
I 	I 	0.48885 0.52196 0.69774 -0.38600
I 	I 	0.53758 0.73952 0.79935 -0.39400
N 	N 	0.62910 0.33180 0.60590 -0.26500
N 	N 	0.94880 0.52780 0.68800 -0.14200
N 	N 	0.99370 0.63720 0.74800 -0.13500
N 	N 	0.82820 0.55720 0.72650 -0.14800
N 	N 	0.31760 0.62540 0.71840 -0.27300
N 	N 	0.82910 0.76580 0.85730 -0.27700
N 	N 	0.91730 0.87320 0.94830 -0.28300
N 	N 	0.25210 0.95780 0.02600 -0.14500
N 	N 	0.31850 0.92160 0.08400 -0.13500
N 	N 	0.14890 0.85220 0.05850 -0.13200
N 	N 	0.60070 0.15540 0.05180 -0.28200
N 	N 	0.19760 0.71560 0.17670 -0.27700
N 	N 	0.70270 0.33180 0.10590 -0.26500
N 	N 	0.57900 0.52780 0.18800 -0.14200
N 	N 	0.64350 0.63720 0.24800 -0.13600
N 	N 	0.72900 0.55720 0.22650 -0.14800
N 	N 	0.30780 0.62540 0.21840 -0.27300
N 	N 	0.93670 0.76580 0.35730 -0.27800
N 	N 	0.95590 0.87320 0.44830 -0.28500
N 	N 	0.70570 0.95780 0.52600 -0.14500
N 	N 	0.60310 0.92160 0.58400 -0.13500
N 	N 	0.70330 0.85220 0.55850 -0.13100
N 	N 	0.55470 0.15540 0.55180 -0.28200
N 	N 	0.51800 0.71560 0.67670 -0.27700
Zn	Zn	0.26832 0.74792 0.94168 1.16800
Zn	Zn	0.95373 0.15398 0.59669 1.16600
Zn	Zn	0.53308 0.35176 0.27631 1.16400
Zn	Zn	0.47960 0.74792 0.44168 1.16800
Zn	Zn	0.20025 0.15398 0.09669 1.16600
Zn	Zn	0.81868 0.35176 0.77631 1.16400
H 	H 	0.41700 0.67660 0.92730 0.00500
H 	H 	0.45410 0.58680 0.87560 0.08200
H 	H 	0.20020 0.53740 0.80430 0.08800
H 	H 	0.17600 0.63340 0.85460 0.00400
H 	H 	0.61180 0.27900 0.73950 -0.01900
H 	H 	0.46740 0.29620 0.73880 0.08900
H 	H 	0.60030 0.49340 0.83000 0.08300
H 	H 	0.74140 0.47140 0.83030 -0.00800
H 	H 	0.99870 0.30700 0.66400 -0.00900
H 	H 	0.11540 0.39080 0.71940 0.07800
H 	H 	0.27200 0.26140 0.68620 0.09900
H 	H 	0.14930 0.17840 0.63470 -0.01100
H 	H 	0.03840 0.03020 0.56630 -0.01900
H 	H 	0.15710 0.01260 0.52540 0.08500
H 	H 	0.18100 0.20220 0.47680 0.08700
H 	H 	0.06880 0.21860 0.52580 -0.01900
H 	H 	0.50730 0.87460 0.39370 -0.01600
H 	H 	0.44860 0.96940 0.38960 0.08800
H 	H 	0.33910 0.94360 0.50550 0.09200
H 	H 	0.38820 0.84560 0.50490 -0.01500
H 	H 	0.43240 0.35520 0.36270 -0.00600
H 	H 	0.36270 0.27400 0.41150 0.08400
H 	H 	0.46240 0.11880 0.34380 0.08400
H 	H 	0.51980 0.20040 0.29360 -0.02200
H 	H 	0.25960 0.67660 0.42730 0.00500
H 	H 	0.13270 0.58680 0.37560 0.08200
H 	H 	0.33720 0.53740 0.30430 0.08800
H 	H 	0.45740 0.63340 0.35460 0.00400
H 	H 	0.66720 0.27900 0.23950 -0.01900
H 	H 	0.82880 0.29620 0.23880 0.08900
H 	H 	0.89310 0.49340 0.33000 0.08300
H 	H 	0.73000 0.47140 0.33030 -0.00800
H 	H 	0.30830 0.30700 0.16400 -0.00700
H 	H 	0.27540 0.39080 0.21940 0.07700
H 	H 	0.98940 0.26140 0.18620 0.09700
H 	H 	0.02910 0.17840 0.13470 -0.01000
H 	H 	0.99180 0.03020 0.06630 -0.02000
H 	H 	0.85550 0.01260 0.02540 0.08400
H 	H 	0.02120 0.20220 0.97680 0.08700
H 	H 	0.14980 0.21860 0.02580 -0.01800
H 	H 	0.36730 0.87460 0.89370 -0.01600
H 	H 	0.52080 0.96940 0.88960 0.08800
H 	H 	0.60450 0.94360 0.00550 0.09300
H 	H 	0.45740 0.84560 0.00490 -0.01500
H 	H 	0.92280 0.35520 0.86270 -0.00600
H 	H 	0.91130 0.27400 0.91150 0.08400
H 	H 	0.65640 0.11880 0.84380 0.08400
H 	H 	0.68060 0.20040 0.79360 -0.02200
C 	C 	0.37490 0.65000 0.90090 0.06100
C 	C 	0.39570 0.59460 0.87140 -0.10300
C 	C 	0.32680 0.54980 0.83460 0.03700
C 	C 	0.24680 0.56620 0.82900 -0.11500
C 	C 	0.23320 0.62400 0.85890 0.06200
C 	C 	0.33940 0.48340 0.80540 0.09900
C 	C 	0.42860 0.41340 0.78340 0.09800
C 	C 	0.28300 0.38280 0.74890 0.10800
C 	C 	0.61020 0.32480 0.75790 0.08400
C 	C 	0.52330 0.33340 0.75750 -0.13700
C 	C 	0.52070 0.39820 0.78540 0.07400
C 	C 	0.60170 0.44800 0.81090 -0.13300
C 	C 	0.68650 0.43640 0.81050 0.07300
C 	C 	0.05510 0.29680 0.66900 0.07000
C 	C 	0.12370 0.34640 0.70260 -0.12800
C 	C 	0.20460 0.33220 0.71200 0.06500
C 	C 	0.21420 0.27080 0.68350 -0.13500
C 	C 	0.14220 0.22320 0.65170 0.09700
C 	C 	0.07100 0.06820 0.54900 0.10800
C 	C 	0.14030 0.05580 0.52420 -0.15500
C 	C 	0.18510 0.10660 0.49780 0.07300
C 	C 	0.15530 0.16740 0.49660 -0.13500
C 	C 	0.08650 0.17520 0.52530 0.08600
C 	C 	0.26180 0.09700 0.46930 0.07800
C 	C 	0.36050 0.03460 0.44550 0.08200
C 	C 	0.36460 0.13460 0.41510 0.10000
C 	C 	0.46850 0.88640 0.41600 0.07800
C 	C 	0.43790 0.94540 0.41470 -0.13700
C 	C 	0.39230 0.96980 0.44850 0.07700
C 	C 	0.37300 0.92980 0.48140 -0.15800
C 	C 	0.40100 0.87100 0.48030 0.11400
C 	C 	0.43640 0.30540 0.35840 0.06800
C 	C 	0.39570 0.25780 0.38780 -0.11400
C 	C 	0.40300 0.18580 0.38270 0.06600
C 	C 	0.45300 0.16660 0.34760 -0.12100
C 	C 	0.48890 0.21620 0.31830 0.08200
C 	C 	0.27510 0.65000 0.40090 0.06100
C 	C 	0.19890 0.59460 0.37140 -0.10300
C 	C 	0.22300 0.54980 0.33460 0.03700
C 	C 	0.31940 0.56620 0.32900 -0.11500
C 	C 	0.39080 0.62400 0.35890 0.06200
C 	C 	0.14400 0.48340 0.30540 0.09900
C 	C 	0.98480 0.41340 0.28340 0.09700
C 	C 	0.09980 0.38280 0.24890 0.10900
C 	C 	0.71460 0.32480 0.25790 0.08400
C 	C 	0.81010 0.33340 0.25750 -0.13700
C 	C 	0.87750 0.39820 0.28540 0.07400
C 	C 	0.84630 0.44800 0.31090 -0.13400
C 	C 	0.74990 0.43640 0.31050 0.07300
C 	C 	0.24170 0.29680 0.16900 0.06800
C 	C 	0.22270 0.34640 0.20260 -0.12600
C 	C 	0.12760 0.33220 0.21200 0.06300
C 	C 	0.05660 0.27080 0.18350 -0.13100
C 	C 	0.08100 0.22320 0.15170 0.09500
C 	C 	0.99720 0.06820 0.04900 0.10500
C 	C 	0.91550 0.05580 0.02420 -0.15400
C 	C 	0.92150 0.10660 0.99780 0.07200
C 	C 	0.01210 0.16740 0.99660 -0.13300
C 	C 	0.08870 0.17520 0.02530 0.08500
C 	C 	0.83520 0.09700 0.96930 0.07800
C 	C 	0.67410 0.03460 0.94550 0.08100
C 	C 	0.77000 0.13460 0.91510 0.09900
C 	C 	0.41790 0.88640 0.91600 0.07800
C 	C 	0.50750 0.94540 0.91470 -0.13800
C 	C 	0.57750 0.96980 0.94850 0.07900
C 	C 	0.55680 0.92980 0.98140 -0.16000
C 	C 	0.47000 0.87100 0.98030 0.11400
C 	C 	0.86900 0.30540 0.85840 0.06800
C 	C 	0.86210 0.25780 0.88780 -0.11400
C 	C 	0.78280 0.18580 0.88270 0.06600
C 	C 	0.71360 0.16660 0.84760 -0.12100
C 	C 	0.72730 0.21620 0.81830 0.08200
I 	I 	0.25632 0.69544 0.01195 -0.36900
I 	I 	0.14304 0.77776 0.90549 -0.39600
I 	I 	0.87186 0.03794 0.63383 -0.35400
I 	I 	0.87294 0.22638 0.56072 -0.37700
I 	I 	0.51115 0.47804 0.30226 -0.38600
I 	I 	0.46242 0.26048 0.20065 -0.39400
I 	I 	0.43912 0.69544 0.51195 -0.36900
I 	I 	0.63472 0.77776 0.40549 -0.39500
I 	I 	0.16608 0.03794 0.13383 -0.35100
I 	I 	0.35344 0.22638 0.06072 -0.37600
I 	I 	0.96689 0.47804 0.80226 -0.38500
I 	I 	0.79806 0.26048 0.70065 -0.39400
N 	N 	0.29730 0.66820 0.89410 -0.26500
N 	N 	0.42100 0.47220 0.81200 -0.14200
N 	N 	0.35650 0.36280 0.75200 -0.13600
N 	N 	0.27100 0.44280 0.77350 -0.14800
N 	N 	0.69220 0.37460 0.78160 -0.27300
N 	N 	0.06330 0.23420 0.64270 -0.27800
N 	N 	0.04410 0.12680 0.55170 -0.28500
N 	N 	0.29430 0.04220 0.47400 -0.14500
N 	N 	0.39690 0.07840 0.41600 -0.13500
N 	N 	0.29670 0.14780 0.44150 -0.13100
N 	N 	0.44530 0.84460 0.44820 -0.28200
N 	N 	0.48200 0.28440 0.32330 -0.27700
N 	N 	0.37090 0.66820 0.39410 -0.26500
N 	N 	0.05120 0.47220 0.31200 -0.14200
N 	N 	0.00630 0.36280 0.25200 -0.13500
N 	N 	0.17180 0.44280 0.27350 -0.14800
N 	N 	0.68240 0.37460 0.28160 -0.27300
N 	N 	0.17090 0.23420 0.14270 -0.27700
N 	N 	0.08270 0.12680 0.05170 -0.28300
N 	N 	0.74790 0.04220 0.97400 -0.14500
N 	N 	0.68150 0.07840 0.91600 -0.13500
N 	N 	0.85110 0.14780 0.94150 -0.13200
N 	N 	0.39930 0.84460 0.94820 -0.28200
N 	N 	0.80240 0.28440 0.82330 -0.27700
