data_crystal

_cell_length_a 14.76720
_cell_length_b 19.02150
_cell_length_c 30.52700
_cell_angle_alpha 100.20900
_cell_angle_beta  90.00000
_cell_angle_gamma 112.84100

_symmetry_space_group_name_	'P 1'
_symmetry_space_group_name_H-M	'P 1'

loop_
_symmetry_equiv_pos_as_xyz
  x,y,z

loop_
_atom_site_label
_atom_site_type_symbol
_atom_site_fract_x
_atom_site_fract_y
_atom_site_fract_z
_atom_site_charge
Zn	Zn	0.47423 0.65484 0.22779 1.16500
Zn	Zn	0.05271 0.84848 0.90012 1.16500
Zn	Zn	0.52163 0.25098 0.06439 1.16500
Zn	Zn	0.18061 0.65484 0.72779 1.16400
Zn	Zn	0.79577 0.84848 0.40012 1.16500
Zn	Zn	0.72935 0.25098 0.56439 1.16500
H 	H 	0.49870 0.80820 0.21120 -0.01600
H 	H 	0.55390 0.88780 0.16010 0.08200
H 	H 	0.63270 0.72360 0.08680 0.08200
H 	H 	0.56720 0.64500 0.13860 -0.00400
H 	H 	0.59810 0.15280 0.99510 -0.00300
H 	H 	0.64220 0.04740 0.99130 0.07900
H 	H 	0.58170 0.04220 0.11890 0.08600
H 	H 	0.53210 0.14380 0.11890 -0.02000
H 	H 	0.92710 0.77660 0.96860 -0.01200
H 	H 	0.80570 0.78880 0.01450 0.08000
H 	H 	0.96760 0.97100 0.92940 -0.00900
H 	H 	0.84740 0.98900 0.97450 0.07400
H 	H 	0.87360 0.83900 0.85440 -0.00800
H 	H 	0.74910 0.76000 0.79920 0.09100
H 	H 	0.88020 0.60680 0.78130 0.08000
H 	H 	0.99740 0.68820 0.83880 -0.01000
H 	H 	0.25210 0.53360 0.67680 -0.01000
H 	H 	0.39630 0.51100 0.67060 0.07900
H 	H 	0.53680 0.71260 0.75690 0.08300
H 	H 	0.38960 0.72800 0.76260 -0.01200
H 	H 	0.81720 0.36300 0.65150 -0.00200
H 	H 	0.79570 0.46260 0.69860 0.09200
H 	H 	0.55040 0.42000 0.62130 0.08700
H 	H 	0.57940 0.31960 0.57700 -0.00300
H 	H 	0.30950 0.80820 0.71120 -0.01600
H 	H 	0.33390 0.88780 0.66010 0.08100
H 	H 	0.09090 0.72360 0.58680 0.08200
H 	H 	0.07780 0.64500 0.63860 -0.00400
H 	H 	0.55470 0.15280 0.49510 -0.00300
H 	H 	0.40520 0.04740 0.49130 0.07900
H 	H 	0.46050 0.04220 0.61890 0.08600
H 	H 	0.61170 0.14380 0.61890 -0.02000
H 	H 	0.84950 0.77660 0.46860 -0.01200
H 	H 	0.98310 0.78880 0.51450 0.08000
H 	H 	0.00340 0.97100 0.42940 -0.01200
H 	H 	0.14160 0.98900 0.47450 0.07400
H 	H 	0.96540 0.83900 0.35440 -0.00800
H 	H 	0.01090 0.76000 0.29920 0.09000
H 	H 	0.72660 0.60680 0.28130 0.07900
H 	H 	0.69080 0.68820 0.33880 -0.01000
H 	H 	0.28150 0.53360 0.17680 -0.01000
H 	H 	0.11470 0.51100 0.17060 0.07900
H 	H 	0.17580 0.71260 0.25690 0.08300
H 	H 	0.33840 0.72800 0.26260 -0.01200
H 	H 	0.54580 0.36300 0.15150 -0.00200
H 	H 	0.66690 0.46260 0.19860 0.09200
H 	H 	0.86960 0.42000 0.12130 0.08600
H 	H 	0.74020 0.31960 0.07700 -0.00300
C 	C 	0.52489 0.79058 0.18510 0.07000
C 	C 	0.55890 0.83880 0.15520 -0.11000
C 	C 	0.60167 0.81514 0.11695 0.05500
C 	C 	0.60427 0.74194 0.11190 -0.10200
C 	C 	0.56583 0.69526 0.14300 0.06100
C 	C 	0.63917 0.86534 0.08454 0.10900
C 	C 	0.64409 0.96658 0.05376 0.08700
C 	C 	0.73696 0.89992 0.02870 0.08900
C 	C 	0.59364 0.12928 0.02040 0.07200
C 	C 	0.62006 0.06672 0.01820 -0.11900
C 	C 	0.61493 0.03206 0.05433 0.05300
C 	C 	0.58400 0.06300 0.09260 -0.12600
C 	C 	0.55620 0.12440 0.09260 0.08500
C 	C 	0.91040 0.82040 0.96980 0.06900
C 	C 	0.83820 0.82740 0.99740 -0.11500
C 	C 	0.81435 0.89110 0.99973 0.05100
C 	C 	0.93408 0.93336 0.94700 0.07400
C 	C 	0.86252 0.94464 0.97397 -0.11800
C 	C 	0.87395 0.79070 0.83970 0.07300
C 	C 	0.79981 0.74422 0.80670 -0.11800
C 	C 	0.80112 0.67484 0.78523 0.06100
C 	C 	0.87642 0.65364 0.79636 -0.12900
C 	C 	0.94645 0.70310 0.83030 0.07300
C 	C 	0.72222 0.62344 0.75028 0.09900
C 	C 	0.57318 0.59356 0.71528 0.10700
C 	C 	0.66003 0.51946 0.69412 0.08600
C 	C 	0.31041 0.56962 0.69400 0.07300
C 	C 	0.39639 0.55578 0.69020 -0.12000
C 	C 	0.48169 0.60778 0.71500 0.05700
C 	C 	0.47854 0.67368 0.74100 -0.11700
C 	C 	0.39093 0.68306 0.74370 0.06400
C 	C 	0.76263 0.37526 0.64540 0.07000
C 	C 	0.75041 0.43442 0.67340 -0.12600
C 	C 	0.67048 0.45316 0.66465 0.04900
C 	C 	0.60610 0.40960 0.62820 -0.12300
C 	C 	0.62450 0.35000 0.60190 0.08200
C 	C 	0.26569 0.79058 0.68510 0.07000
C 	C 	0.27990 0.83880 0.65520 -0.11000
C 	C 	0.21347 0.81514 0.61695 0.05400
C 	C 	0.13767 0.74194 0.61190 -0.10200
C 	C 	0.12943 0.69526 0.64300 0.06000
C 	C 	0.22617 0.86534 0.58454 0.10900
C 	C 	0.32249 0.96658 0.55376 0.08500
C 	C 	0.16296 0.89992 0.52870 0.08800
C 	C 	0.53564 0.12928 0.52040 0.07300
C 	C 	0.44666 0.06672 0.51820 -0.11900
C 	C 	0.41713 0.03206 0.55433 0.05500
C 	C 	0.47900 0.06300 0.59260 -0.12700
C 	C 	0.56820 0.12440 0.59260 0.08500
C 	C 	0.91000 0.82040 0.46980 0.06900
C 	C 	0.98920 0.82740 0.49740 -0.11500
C 	C 	0.07675 0.89110 0.49973 0.05100
C 	C 	0.99928 0.93336 0.44700 0.08000
C 	C 	0.08212 0.94464 0.47397 -0.12200
C 	C 	0.91675 0.79070 0.33970 0.07300
C 	C 	0.94441 0.74422 0.30670 -0.11600
C 	C 	0.87372 0.67484 0.28523 0.06100
C 	C 	0.77722 0.65364 0.29636 -0.12900
C 	C 	0.75665 0.70310 0.33030 0.07200
C 	C 	0.90122 0.62344 0.25028 0.09900
C 	C 	0.02038 0.59356 0.21528 0.10700
C 	C 	0.85943 0.51946 0.19412 0.08600
C 	C 	0.25921 0.56962 0.19400 0.07300
C 	C 	0.15939 0.55578 0.19020 -0.12000
C 	C 	0.12609 0.60778 0.21500 0.05700
C 	C 	0.19514 0.67368 0.24100 -0.11700
C 	C 	0.29213 0.68306 0.24370 0.06400
C 	C 	0.61263 0.37526 0.14540 0.07000
C 	C 	0.68401 0.43442 0.17340 -0.12600
C 	C 	0.78268 0.45316 0.16465 0.04900
C 	C 	0.80350 0.40960 0.12820 -0.12300
C 	C 	0.72550 0.35000 0.10190 0.08200
I 	I 	0.53713 0.74672 0.30305 -0.40500
I 	I 	0.49892 0.52930 0.20429 -0.38000
I 	I 	0.13603 0.96596 0.86429 -0.35600
I 	I 	0.13089 0.77674 0.93896 -0.37600
I 	I 	0.36497 0.21566 0.10483 -0.37900
I 	I 	0.54778 0.30028 0.99186 -0.37100
I 	I 	0.20959 0.74672 0.80305 -0.40500
I 	I 	0.03038 0.52930 0.70429 -0.38100
I 	I 	0.82993 0.96596 0.36429 -0.35200
I 	I 	0.64585 0.77674 0.43896 -0.37500
I 	I 	0.85069 0.21566 0.60483 -0.38000
I 	I 	0.75250 0.30028 0.49186 -0.37100
N 	N 	0.52655 0.71990 0.17955 -0.27300
N 	N 	0.60800 0.92160 0.08440 -0.13500
N 	N 	0.70778 0.95696 0.02470 -0.14800
N 	N 	0.70466 0.85192 0.05700 -0.13600
N 	N 	0.56167 0.15714 0.05804 -0.27400
N 	N 	0.95673 0.87246 0.94508 -0.26900
N 	N 	0.94575 0.77010 0.85147 -0.26900
N 	N 	0.64427 0.64374 0.74568 -0.13300
N 	N 	0.57699 0.53298 0.68760 -0.13800
N 	N 	0.73092 0.56104 0.72652 -0.13900
N 	N 	0.30725 0.63130 0.72084 -0.26900
N 	N 	0.70065 0.33330 0.60923 -0.27300
N 	N 	0.19335 0.71990 0.67955 -0.27300
N 	N 	0.31360 0.92160 0.58440 -0.13500
N 	N 	0.24918 0.95696 0.52470 -0.14800
N 	N 	0.14726 0.85192 0.55700 -0.13600
N 	N 	0.59547 0.15714 0.55804 -0.27400
N 	N 	0.91573 0.87246 0.44508 -0.27000
N 	N 	0.82435 0.77010 0.35147 -0.26900
N 	N 	0.99947 0.64374 0.24568 -0.13300
N 	N 	0.95599 0.53298 0.18760 -0.13800
N 	N 	0.83012 0.56104 0.22652 -0.14000
N 	N 	0.32405 0.63130 0.22084 -0.26900
N 	N 	0.63265 0.33330 0.10923 -0.27300
Zn	Zn	0.81939 0.34516 0.27221 1.16400
Zn	Zn	0.20423 0.15152 0.59988 1.16500
Zn	Zn	0.27065 0.74902 0.43561 1.16500
Zn	Zn	0.52577 0.34516 0.77221 1.16400
Zn	Zn	0.94729 0.15152 0.09988 1.16400
Zn	Zn	0.47837 0.74902 0.93561 1.16500
H 	H 	0.69050 0.19180 0.28880 -0.01600
H 	H 	0.66610 0.11220 0.33990 0.08100
H 	H 	0.90910 0.27640 0.41320 0.08200
H 	H 	0.92220 0.35500 0.36140 -0.00400
H 	H 	0.44530 0.84720 0.50490 -0.00300
H 	H 	0.59480 0.95260 0.50870 0.07900
H 	H 	0.53950 0.95780 0.38110 0.08600
H 	H 	0.38830 0.85620 0.38110 -0.02000
H 	H 	0.15050 0.22340 0.53140 -0.01200
H 	H 	0.01690 0.21120 0.48550 0.08000
H 	H 	0.99660 0.02900 0.57060 -0.01200
H 	H 	0.85840 0.01100 0.52550 0.07400
H 	H 	0.03460 0.16100 0.64560 -0.00800
H 	H 	0.98910 0.24000 0.70080 0.09000
H 	H 	0.27340 0.39320 0.71870 0.07900
H 	H 	0.30920 0.31180 0.66120 -0.01000
H 	H 	0.71850 0.46640 0.82320 -0.01000
H 	H 	0.88530 0.48900 0.82940 0.07900
H 	H 	0.82420 0.28740 0.74310 0.08300
H 	H 	0.66160 0.27200 0.73740 -0.01200
H 	H 	0.45420 0.63700 0.84850 -0.00200
H 	H 	0.33310 0.53740 0.80140 0.09200
H 	H 	0.13040 0.58000 0.87870 0.08600
H 	H 	0.25980 0.68040 0.92300 -0.00300
H 	H 	0.50130 0.19180 0.78880 -0.01600
H 	H 	0.44610 0.11220 0.83990 0.08200
H 	H 	0.36730 0.27640 0.91320 0.08200
H 	H 	0.43280 0.35500 0.86140 -0.00400
H 	H 	0.40190 0.84720 0.00490 -0.00300
H 	H 	0.35780 0.95260 0.00870 0.07900
H 	H 	0.41830 0.95780 0.88110 0.08600
H 	H 	0.46790 0.85620 0.88110 -0.02000
H 	H 	0.07290 0.22340 0.03140 -0.01200
H 	H 	0.19430 0.21120 0.98550 0.08000
H 	H 	0.03240 0.02900 0.07060 -0.00900
H 	H 	0.15260 0.01100 0.02550 0.07400
H 	H 	0.12640 0.16100 0.14560 -0.00800
H 	H 	0.25090 0.24000 0.20080 0.09100
H 	H 	0.11980 0.39320 0.21870 0.08000
H 	H 	0.00260 0.31180 0.16120 -0.01000
H 	H 	0.74790 0.46640 0.32320 -0.01000
H 	H 	0.60370 0.48900 0.32940 0.07900
H 	H 	0.46320 0.28740 0.24310 0.08300
H 	H 	0.61040 0.27200 0.23740 -0.01200
H 	H 	0.18280 0.63700 0.34850 -0.00200
H 	H 	0.20430 0.53740 0.30140 0.09200
H 	H 	0.44960 0.58000 0.37870 0.08700
H 	H 	0.42060 0.68040 0.42300 -0.00300
C 	C 	0.73431 0.20942 0.31490 0.07000
C 	C 	0.72010 0.16120 0.34480 -0.11000
C 	C 	0.78653 0.18486 0.38305 0.05400
C 	C 	0.86233 0.25806 0.38810 -0.10200
C 	C 	0.87057 0.30474 0.35700 0.06000
C 	C 	0.77383 0.13466 0.41546 0.10900
C 	C 	0.67751 0.03342 0.44624 0.08500
C 	C 	0.83704 0.10008 0.47130 0.08800
C 	C 	0.46436 0.87072 0.47960 0.07300
C 	C 	0.55334 0.93328 0.48180 -0.11900
C 	C 	0.58287 0.96794 0.44567 0.05500
C 	C 	0.52100 0.93700 0.40740 -0.12700
C 	C 	0.43180 0.87560 0.40740 0.08500
C 	C 	0.09000 0.17960 0.53020 0.06900
C 	C 	0.01080 0.17260 0.50260 -0.11500
C 	C 	0.92325 0.10890 0.50027 0.05100
C 	C 	0.00072 0.06664 0.55300 0.08000
C 	C 	0.91788 0.05536 0.52603 -0.12200
C 	C 	0.08325 0.20930 0.66030 0.07300
C 	C 	0.05559 0.25578 0.69330 -0.11600
C 	C 	0.12628 0.32516 0.71477 0.06100
C 	C 	0.22278 0.34636 0.70364 -0.12900
C 	C 	0.24335 0.29690 0.66970 0.07200
C 	C 	0.09878 0.37656 0.74972 0.09900
C 	C 	0.97962 0.40644 0.78472 0.10700
C 	C 	0.14057 0.48054 0.80588 0.08600
C 	C 	0.74079 0.43038 0.80600 0.07300
C 	C 	0.84061 0.44422 0.80980 -0.12000
C 	C 	0.87391 0.39222 0.78500 0.05700
C 	C 	0.80486 0.32632 0.75900 -0.11700
C 	C 	0.70787 0.31694 0.75630 0.06400
C 	C 	0.38737 0.62474 0.85460 0.07000
C 	C 	0.31599 0.56558 0.82660 -0.12600
C 	C 	0.21732 0.54684 0.83535 0.04900
C 	C 	0.19650 0.59040 0.87180 -0.12300
C 	C 	0.27450 0.65000 0.89810 0.08200
C 	C 	0.47511 0.20942 0.81490 0.07000
C 	C 	0.44110 0.16120 0.84480 -0.11000
C 	C 	0.39833 0.18486 0.88305 0.05500
C 	C 	0.39573 0.25806 0.88810 -0.10200
C 	C 	0.43417 0.30474 0.85700 0.06100
C 	C 	0.36083 0.13466 0.91546 0.10900
C 	C 	0.35591 0.03342 0.94624 0.08700
C 	C 	0.26304 0.10008 0.97130 0.08900
C 	C 	0.40636 0.87072 0.97960 0.07200
C 	C 	0.37994 0.93328 0.98180 -0.11900
C 	C 	0.38507 0.96794 0.94567 0.05300
C 	C 	0.41600 0.93700 0.90740 -0.12600
C 	C 	0.44380 0.87560 0.90740 0.08500
C 	C 	0.08960 0.17960 0.03020 0.06900
C 	C 	0.16180 0.17260 0.00260 -0.11500
C 	C 	0.18565 0.10890 0.00027 0.05100
C 	C 	0.06592 0.06664 0.05300 0.07400
C 	C 	0.13748 0.05536 0.02603 -0.11800
C 	C 	0.12605 0.20930 0.16030 0.07300
C 	C 	0.20019 0.25578 0.19330 -0.11800
C 	C 	0.19888 0.32516 0.21477 0.06100
C 	C 	0.12358 0.34636 0.20364 -0.12900
C 	C 	0.05355 0.29690 0.16970 0.07300
C 	C 	0.27778 0.37656 0.24972 0.09900
C 	C 	0.42682 0.40644 0.28472 0.10700
C 	C 	0.33997 0.48054 0.30588 0.08600
C 	C 	0.68959 0.43038 0.30600 0.07300
C 	C 	0.60361 0.44422 0.30980 -0.12000
C 	C 	0.51831 0.39222 0.28500 0.05700
C 	C 	0.52146 0.32632 0.25900 -0.11700
C 	C 	0.60907 0.31694 0.25630 0.06400
C 	C 	0.23737 0.62474 0.35460 0.07000
C 	C 	0.24959 0.56558 0.32660 -0.12600
C 	C 	0.32952 0.54684 0.33535 0.04900
C 	C 	0.39390 0.59040 0.37180 -0.12300
C 	C 	0.37550 0.65000 0.39810 0.08200
I 	I 	0.79041 0.25328 0.19695 -0.40500
I 	I 	0.96962 0.47070 0.29571 -0.38100
I 	I 	0.17007 0.03404 0.63571 -0.35200
I 	I 	0.35415 0.22326 0.56104 -0.37500
I 	I 	0.14931 0.78434 0.39517 -0.38000
I 	I 	0.24750 0.69972 0.50814 -0.37100
I 	I 	0.46287 0.25328 0.69695 -0.40500
I 	I 	0.50108 0.47070 0.79571 -0.38000
I 	I 	0.86397 0.03404 0.13571 -0.35600
I 	I 	0.86911 0.22326 0.06104 -0.37600
I 	I 	0.63503 0.78434 0.89517 -0.37900
I 	I 	0.45222 0.69972 0.00814 -0.37100
N 	N 	0.80665 0.28010 0.32045 -0.27300
N 	N 	0.68640 0.07840 0.41560 -0.13500
N 	N 	0.75082 0.04304 0.47530 -0.14800
N 	N 	0.85274 0.14808 0.44300 -0.13600
N 	N 	0.40453 0.84286 0.44196 -0.27400
N 	N 	0.08427 0.12754 0.55492 -0.27000
N 	N 	0.17565 0.22990 0.64853 -0.26900
N 	N 	0.00053 0.35626 0.75432 -0.13300
N 	N 	0.04401 0.46702 0.81240 -0.13800
N 	N 	0.16988 0.43896 0.77348 -0.14000
N 	N 	0.67595 0.36870 0.77916 -0.26900
N 	N 	0.36735 0.66670 0.89077 -0.27300
N 	N 	0.47345 0.28010 0.82045 -0.27300
N 	N 	0.39200 0.07840 0.91560 -0.13500
N 	N 	0.29222 0.04304 0.97530 -0.14800
N 	N 	0.29534 0.14808 0.94300 -0.13600
N 	N 	0.43833 0.84286 0.94196 -0.27400
N 	N 	0.04327 0.12754 0.05492 -0.26900
N 	N 	0.05425 0.22990 0.14853 -0.26900
N 	N 	0.35573 0.35626 0.25432 -0.13300
N 	N 	0.42301 0.46702 0.31240 -0.13800
N 	N 	0.26908 0.43896 0.27348 -0.13900
N 	N 	0.69275 0.36870 0.27916 -0.26900
N 	N 	0.29935 0.66670 0.39077 -0.27300
