data_crystal

_cell_length_a 12.30340
_cell_length_b 12.44080
_cell_length_c 12.81560
_cell_angle_alpha 90.00000
_cell_angle_beta  91.19000
_cell_angle_gamma 90.00000

_symmetry_space_group_name_	'P 1'
_symmetry_space_group_name_H-M	'P 1'

loop_
_symmetry_equiv_pos_as_xyz
  x,y,z

loop_
_atom_site_label
_atom_site_type_symbol
_atom_site_fract_x
_atom_site_fract_y
_atom_site_fract_z
_atom_site_charge
C 	C 	0.71920 0.50276 0.02290 0.49800
C 	C 	0.77480 0.00123 0.98690 0.47200
C 	C 	0.73690 0.27110 0.75530 0.51700
C 	C 	0.75280 0.78080 0.24150 0.71500
C 	C 	0.01050 0.71740 0.99650 0.43600
C 	C 	0.49250 0.22950 0.04320 0.47900
H 	H 	0.79000 0.32600 0.75900 -0.11900
H 	H 	0.79700 0.83300 0.24400 -0.23100
H 	H 	0.00500 0.77100 0.93800 -0.07600
H 	H 	0.49600 0.30500 0.07700 -0.07900
H 	H 	0.77900 0.50400 0.07300 -0.10300
H 	H 	0.71000 0.99600 0.94100 -0.09100
Mn	Mn	0.74030 0.25281 0.00780 1.33800
Mn	Mn	0.75929 0.75241 0.99347 1.34000
O 	O 	0.57821 0.19195 0.01782 -0.42600
O 	O 	0.92170 0.68697 0.02970 -0.38300
O 	O 	0.80603 0.09038 0.01845 -0.40400
O 	O 	0.10034 0.68317 0.02520 -0.40400
O 	O 	0.40137 0.18823 0.03794 -0.42300
O 	O 	0.70690 0.23381 0.83995 -0.41000
O 	O 	0.81761 0.91445 0.00940 -0.41200
O 	O 	0.67444 0.41515 0.00262 -0.41600
O 	O 	0.70250 0.24079 0.67021 -0.43100
O 	O 	0.72750 0.74059 0.15771 -0.48700
O 	O 	0.72110 0.75103 0.32746 -0.48300
O 	O 	0.69965 0.58790 0.97976 -0.41500
C 	C 	0.78080 0.00276 0.47710 0.48900
C 	C 	0.72520 0.50123 0.51310 0.46800
C 	C 	0.76310 0.77110 0.74470 0.51800
C 	C 	0.74720 0.28080 0.25850 0.71700
C 	C 	0.48950 0.21740 0.50350 0.44300
C 	C 	0.00750 0.72950 0.45680 0.47500
H 	H 	0.71000 0.82600 0.74100 -0.11900
H 	H 	0.70300 0.33300 0.25600 -0.23300
H 	H 	0.49500 0.27100 0.56200 -0.07600
H 	H 	0.00400 0.80500 0.42300 -0.07900
H 	H 	0.72100 0.00400 0.42700 -0.10100
H 	H 	0.79000 0.49600 0.55900 -0.08800
Mn	Mn	0.75970 0.75281 0.49220 1.33800
Mn	Mn	0.74071 0.25241 0.50653 1.34100
O 	O 	0.92179 0.69195 0.48218 -0.42200
O 	O 	0.57830 0.18697 0.47030 -0.38900
O 	O 	0.69397 0.59038 0.48155 -0.39900
O 	O 	0.39966 0.18317 0.47480 -0.40600
O 	O 	0.09863 0.68823 0.46206 -0.42100
O 	O 	0.79310 0.73381 0.66005 -0.41100
O 	O 	0.68239 0.41445 0.49060 -0.41700
O 	O 	0.82556 0.91515 0.49738 -0.41100
O 	O 	0.79750 0.74079 0.82979 -0.43200
O 	O 	0.77250 0.24059 0.34229 -0.48900
O 	O 	0.77890 0.25103 0.17254 -0.48500
O 	O 	0.80035 0.08790 0.52024 -0.41300
C 	C 	0.28080 0.49724 0.97710 0.49800
C 	C 	0.22520 0.99877 0.01310 0.47200
C 	C 	0.26310 0.72890 0.24470 0.51700
C 	C 	0.24720 0.21920 0.75850 0.71500
C 	C 	0.98950 0.28260 0.00350 0.43600
C 	C 	0.50750 0.77050 0.95680 0.47900
H 	H 	0.21000 0.67400 0.24100 -0.11900
H 	H 	0.20300 0.16700 0.75600 -0.23100
H 	H 	0.99500 0.22900 0.06200 -0.07600
H 	H 	0.50400 0.69500 0.92300 -0.07900
H 	H 	0.22100 0.49600 0.92700 -0.10300
H 	H 	0.29000 0.00400 0.05900 -0.09100
Mn	Mn	0.25970 0.74719 0.99220 1.33800
Mn	Mn	0.24071 0.24759 0.00653 1.34000
O 	O 	0.42179 0.80805 0.98218 -0.42600
O 	O 	0.07830 0.31303 0.97030 -0.38300
O 	O 	0.19397 0.90962 0.98155 -0.40400
O 	O 	0.89966 0.31683 0.97480 -0.40400
O 	O 	0.59863 0.81177 0.96206 -0.42300
O 	O 	0.29310 0.76619 0.16005 -0.41000
O 	O 	0.18239 0.08555 0.99060 -0.41200
O 	O 	0.32556 0.58485 0.99738 -0.41600
O 	O 	0.29750 0.75921 0.32979 -0.43100
O 	O 	0.27250 0.25941 0.84229 -0.48700
O 	O 	0.27890 0.24897 0.67254 -0.48300
O 	O 	0.30035 0.41210 0.02024 -0.41500
C 	C 	0.21920 0.99724 0.52290 0.48900
C 	C 	0.27480 0.49877 0.48690 0.46800
C 	C 	0.23690 0.22890 0.25530 0.51800
C 	C 	0.25280 0.71920 0.74150 0.71700
C 	C 	0.51050 0.78260 0.49650 0.44300
C 	C 	0.99250 0.27050 0.54320 0.47500
H 	H 	0.29000 0.17400 0.25900 -0.11900
H 	H 	0.29700 0.66700 0.74400 -0.23300
H 	H 	0.50500 0.72900 0.43800 -0.07600
H 	H 	0.99600 0.19500 0.57700 -0.07900
H 	H 	0.27900 0.99600 0.57300 -0.10100
H 	H 	0.21000 0.50400 0.44100 -0.08800
Mn	Mn	0.24030 0.24719 0.50780 1.33800
Mn	Mn	0.25929 0.74759 0.49347 1.34100
O 	O 	0.07821 0.30805 0.51782 -0.42200
O 	O 	0.42170 0.81303 0.52970 -0.38900
O 	O 	0.30603 0.40962 0.51845 -0.39900
O 	O 	0.60034 0.81683 0.52520 -0.40600
O 	O 	0.90137 0.31177 0.53794 -0.42100
O 	O 	0.20690 0.26619 0.33995 -0.41100
O 	O 	0.31761 0.58555 0.50940 -0.41700
O 	O 	0.17444 0.08485 0.50262 -0.41100
O 	O 	0.20250 0.25921 0.17021 -0.43200
O 	O 	0.22750 0.75941 0.65771 -0.48900
O 	O 	0.22110 0.74897 0.82746 -0.48500
O 	O 	0.19965 0.91210 0.47976 -0.41300
