data_crystal

_cell_length_a 12.33200
_cell_length_b 12.46100
_cell_length_c 12.85000
_cell_angle_alpha 90.00000
_cell_angle_beta  91.31000
_cell_angle_gamma 90.00000

_symmetry_space_group_name_	'P 1'
_symmetry_space_group_name_H-M	'P 1'

loop_
_symmetry_equiv_pos_as_xyz
  x,y,z

loop_
_atom_site_label
_atom_site_type_symbol
_atom_site_fract_x
_atom_site_fract_y
_atom_site_fract_z
_atom_site_charge
Mn	Mn	0.23949 0.75287 0.00823 1.33800
Mn	Mn	0.73998 0.74768 0.00685 1.33900
C 	C 	0.48867 0.78333 0.00373 0.47700
H 	H 	0.49000 0.73080 0.05510 -0.10700
C 	C 	0.99166 0.72988 0.04414 0.54200
H 	H 	0.99460 0.79930 0.07060 -0.13200
C 	C 	0.24711 0.78100 0.25854 0.55300
H 	H 	0.19940 0.83880 0.25940 -0.13600
C 	C 	0.73572 0.72935 0.25561 0.52300
H 	H 	0.78800 0.67550 0.25730 -0.12500
C 	C 	0.78179 0.99722 0.97698 0.54100
H 	H 	0.72970 0.99680 0.92350 -0.12900
C 	C 	0.72475 0.49882 0.01305 0.49300
H 	H 	0.78510 0.50060 0.05780 -0.11100
O 	O 	0.07757 0.69195 0.01836 -0.43400
O 	O 	0.27906 0.75159 0.17279 -0.43800
O 	O 	0.39848 0.81763 0.97454 -0.40900
O 	O 	0.57760 0.81345 0.96991 -0.39300
O 	O 	0.79963 0.91219 0.02088 -0.43100
O 	O 	0.68150 0.58561 0.99042 -0.41900
O 	O 	0.70120 0.75907 0.17015 -0.42900
O 	O 	0.27267 0.74094 0.34257 -0.43700
O 	O 	0.90071 0.68830 0.03988 -0.43800
O 	O 	0.69399 0.40918 0.98079 -0.40100
O 	O 	0.70566 0.76626 0.34045 -0.41000
O 	O 	0.82668 0.08493 0.99692 -0.42400
Mn	Mn	0.26051 0.25287 0.49177 1.33700
Mn	Mn	0.76002 0.24768 0.49315 1.33900
C 	C 	0.01133 0.28333 0.49627 0.48200
H 	H 	0.01000 0.23080 0.44490 -0.11100
C 	C 	0.50834 0.22988 0.45586 0.55400
H 	H 	0.50540 0.29930 0.42940 -0.13300
C 	C 	0.25289 0.28100 0.24146 0.55200
H 	H 	0.30060 0.33880 0.24060 -0.13600
C 	C 	0.76428 0.22935 0.24439 0.52200
H 	H 	0.71200 0.17550 0.24270 -0.12300
C 	C 	0.71821 0.49722 0.52302 0.52500
H 	H 	0.77030 0.49680 0.57650 -0.12400
C 	C 	0.77525 0.99882 0.48695 0.48400
H 	H 	0.71490 0.00060 0.44220 -0.10600
O 	O 	0.42243 0.19195 0.48164 -0.44300
O 	O 	0.22094 0.25159 0.32721 -0.43800
O 	O 	0.10152 0.31763 0.52546 -0.41400
O 	O 	0.92240 0.31345 0.53009 -0.39600
O 	O 	0.70037 0.41219 0.47912 -0.42100
O 	O 	0.81850 0.08561 0.50958 -0.41700
O 	O 	0.79880 0.25907 0.32985 -0.42800
O 	O 	0.22733 0.24094 0.15743 -0.43600
O 	O 	0.59929 0.18830 0.46012 -0.44000
O 	O 	0.80601 0.90918 0.51921 -0.40100
O 	O 	0.79434 0.26626 0.15955 -0.40800
O 	O 	0.67332 0.58493 0.50308 -0.42100
Mn	Mn	0.76051 0.24713 0.99177 1.33700
Mn	Mn	0.26002 0.25232 0.99315 1.33800
C 	C 	0.51133 0.21667 0.99627 0.47600
H 	H 	0.51000 0.26920 0.94490 -0.10800
C 	C 	0.00834 0.27012 0.95586 0.54200
H 	H 	0.00540 0.20070 0.92940 -0.13200
C 	C 	0.75289 0.21900 0.74146 0.55300
H 	H 	0.80060 0.16120 0.74060 -0.13600
C 	C 	0.26428 0.27065 0.74439 0.52300
H 	H 	0.21200 0.32450 0.74270 -0.12500
C 	C 	0.21821 0.00278 0.02302 0.54100
H 	H 	0.27030 0.00320 0.07650 -0.12900
C 	C 	0.27525 0.50118 0.98695 0.49300
H 	H 	0.21490 0.49940 0.94220 -0.11100
O 	O 	0.92243 0.30805 0.98164 -0.43400
O 	O 	0.72094 0.24841 0.82721 -0.43800
O 	O 	0.60152 0.18237 0.02546 -0.40900
O 	O 	0.42240 0.18655 0.03009 -0.39300
O 	O 	0.20037 0.08781 0.97912 -0.43100
O 	O 	0.31850 0.41439 0.00958 -0.41900
O 	O 	0.29880 0.24093 0.82985 -0.42900
O 	O 	0.72733 0.25906 0.65743 -0.43700
O 	O 	0.09929 0.31170 0.96012 -0.43800
O 	O 	0.30601 0.59082 0.01921 -0.40100
O 	O 	0.29434 0.23374 0.65955 -0.41000
O 	O 	0.17332 0.91507 0.00308 -0.42400
Mn	Mn	0.73949 0.74713 0.50823 1.33700
Mn	Mn	0.23998 0.75232 0.50685 1.33900
C 	C 	0.98867 0.71667 0.50373 0.48200
H 	H 	0.99000 0.76920 0.55510 -0.11100
C 	C 	0.49166 0.77012 0.54414 0.55400
H 	H 	0.49460 0.70070 0.57060 -0.13300
C 	C 	0.74711 0.71900 0.75854 0.55200
H 	H 	0.69940 0.66120 0.75940 -0.13600
C 	C 	0.23572 0.77065 0.75561 0.52200
H 	H 	0.28800 0.82450 0.75730 -0.12300
C 	C 	0.28179 0.50278 0.47698 0.52500
H 	H 	0.22970 0.50320 0.42350 -0.12400
C 	C 	0.22475 0.00118 0.51305 0.48400
H 	H 	0.28510 0.99940 0.55780 -0.10600
O 	O 	0.57757 0.80805 0.51836 -0.44300
O 	O 	0.77906 0.74841 0.67279 -0.43800
O 	O 	0.89848 0.68237 0.47454 -0.41400
O 	O 	0.07760 0.68655 0.46991 -0.39600
O 	O 	0.29963 0.58781 0.52088 -0.42100
O 	O 	0.18150 0.91439 0.49042 -0.41700
O 	O 	0.20120 0.74093 0.67015 -0.42800
O 	O 	0.77267 0.75906 0.84257 -0.43600
O 	O 	0.40071 0.81170 0.53988 -0.44000
O 	O 	0.19399 0.09082 0.48079 -0.40100
O 	O 	0.20566 0.73374 0.84045 -0.40800
O 	O 	0.32668 0.41507 0.49692 -0.42100
