data_crystal

_cell_length_a 11.34570
_cell_length_b 11.46800
_cell_length_c 18.20770
_cell_angle_alpha 97.52960
_cell_angle_beta  90.00000
_cell_angle_gamma 90.00000

_symmetry_space_group_name_	'P 1'
_symmetry_space_group_name_H-M	'P 1'

loop_
_symmetry_equiv_pos_as_xyz
  x,y,z

loop_
_atom_site_label
_atom_site_type_symbol
_atom_site_fract_x
_atom_site_fract_y
_atom_site_fract_z
_atom_site_charge
Co	Co	0.50000 0.00000 -0.00000 1.08100
Co	Co	0.50000 0.50000 0.50000 1.11700
Co	Co	0.24810 0.75000 0.75000 1.15600
Co	Co	0.75190 0.25000 0.25000 1.15500
H 	H 	0.55450 0.96090 0.83480 0.03900
H 	H 	0.65820 0.66980 0.84170 0.08800
H 	H 	0.45590 0.66740 0.83690 0.00600
H 	H 	0.56750 0.05620 0.73180 0.05700
H 	H 	0.21510 0.56160 0.85790 0.02500
H 	H 	0.48800 0.35690 0.85970 0.08100
H 	H 	0.19590 0.36300 0.85940 0.08400
H 	H 	0.47990 0.25380 0.95970 0.02100
H 	H 	0.23330 0.31680 0.64020 0.07300
H 	H 	0.83610 0.81880 0.85650 0.08900
H 	H 	0.25390 0.51580 0.64410 0.00400
H 	H 	0.03790 0.81880 0.85350 0.02500
H 	H 	0.55450 0.53910 0.66520 -0.00700
H 	H 	0.65820 0.83020 0.65830 0.08500
H 	H 	0.45590 0.83260 0.66310 0.00700
H 	H 	0.56750 0.44380 0.76820 0.08500
H 	H 	0.21510 0.93840 0.64210 0.01200
H 	H 	0.48800 0.14310 0.64030 0.08100
H 	H 	0.19590 0.13700 0.64060 0.08700
H 	H 	0.47990 0.24620 0.54030 -0.00400
H 	H 	0.23330 0.18320 0.85980 0.06400
H 	H 	0.83610 0.68120 0.64350 0.07800
H 	H 	0.25390 0.98420 0.85590 0.05700
H 	H 	0.03790 0.68120 0.64650 0.01700
H 	H 	0.44550 0.03910 0.16520 -0.05100
H 	H 	0.34180 0.33020 0.15830 0.07300
H 	H 	0.54410 0.33260 0.16310 0.00200
H 	H 	0.43250 0.94380 0.26820 0.10300
H 	H 	0.78490 0.43840 0.14210 0.01900
H 	H 	0.51200 0.64310 0.14030 0.08500
H 	H 	0.80410 0.63700 0.14060 0.07200
H 	H 	0.52010 0.74620 0.04030 -0.02000
H 	H 	0.76670 0.68320 0.35980 0.07500
H 	H 	0.16390 0.18120 0.14350 0.06100
H 	H 	0.74610 0.48420 0.35590 0.00500
H 	H 	0.96210 0.18120 0.14650 0.01700
H 	H 	0.44550 0.46090 0.33480 -0.00400
H 	H 	0.34180 0.16980 0.34170 0.07500
H 	H 	0.54410 0.16740 0.33690 0.00100
H 	H 	0.43250 0.55620 0.23180 0.07400
H 	H 	0.78490 0.06160 0.35790 0.03200
H 	H 	0.51200 0.85690 0.35970 0.08500
H 	H 	0.80410 0.86300 0.35940 0.07000
H 	H 	0.52010 0.75380 0.45970 0.00200
H 	H 	0.76670 0.81680 0.14020 0.08600
H 	H 	0.16390 0.31880 0.35650 0.07200
H 	H 	0.74610 0.01580 0.14410 -0.04700
H 	H 	0.96210 0.31880 0.35350 0.02200
C 	C 	0.54060 0.04145 0.83985 0.01100
C 	C 	0.61911 0.70184 0.80414 -0.14400
C 	C 	0.52700 0.21856 0.78296 0.03900
C 	C 	0.21530 0.31464 0.75004 0.05800
C 	C 	0.49733 0.70210 0.80140 0.08400
C 	C 	0.54820 0.09838 0.77738 -0.08800
C 	C 	0.21970 0.51196 0.81336 0.07200
C 	C 	0.50160 0.27625 0.85305 -0.11000
C 	C 	0.20840 0.39179 0.81459 -0.12500
C 	C 	0.49650 0.21341 0.91321 0.07500
C 	C 	0.23070 0.36449 0.68559 -0.12700
C 	C 	0.87540 0.79089 0.81289 -0.12300
C 	C 	0.24210 0.48503 0.68833 0.07600
C 	C 	0.99690 0.79010 0.81070 0.07800
C 	C 	0.54060 0.45855 0.66015 0.08100
C 	C 	0.61911 0.79816 0.69586 -0.14200
C 	C 	0.52700 0.28144 0.71704 0.07000
C 	C 	0.21530 0.18536 0.74996 0.05500
C 	C 	0.49733 0.79790 0.69860 0.08400
C 	C 	0.54820 0.40162 0.72262 -0.13600
C 	C 	0.21970 0.98804 0.68664 0.11600
C 	C 	0.50160 0.22375 0.64695 -0.13600
C 	C 	0.20840 0.10821 0.68541 -0.16500
C 	C 	0.49650 0.28659 0.58679 0.08500
C 	C 	0.23070 0.13551 0.81441 -0.09000
C 	C 	0.87540 0.70911 0.68711 -0.12500
C 	C 	0.24210 0.01497 0.81167 -0.01400
C 	C 	0.99690 0.70990 0.68930 0.07700
C 	C 	0.45940 0.95855 0.16015 0.14900
C 	C 	0.38089 0.29816 0.19586 -0.14300
C 	C 	0.47300 0.78144 0.21704 0.08200
C 	C 	0.78470 0.68536 0.24996 0.05500
C 	C 	0.50267 0.29790 0.19860 0.07900
C 	C 	0.45180 0.90162 0.22262 -0.17200
C 	C 	0.78030 0.48804 0.18664 0.06700
C 	C 	0.49840 0.72375 0.14695 -0.15100
C 	C 	0.79160 0.60821 0.18541 -0.12300
C 	C 	0.50350 0.78659 0.08679 0.09000
C 	C 	0.76930 0.63551 0.31441 -0.12600
C 	C 	0.12460 0.20911 0.18711 -0.11800
C 	C 	0.75790 0.51497 0.31167 0.07500
C 	C 	0.00310 0.20990 0.18930 0.05600
C 	C 	0.45940 0.54145 0.33985 0.07300
C 	C 	0.38089 0.20184 0.30414 -0.14500
C 	C 	0.47300 0.71856 0.28296 0.04900
C 	C 	0.78470 0.81464 0.25004 0.06000
C 	C 	0.50267 0.20210 0.30140 0.07800
C 	C 	0.45180 0.59838 0.27738 -0.12200
C 	C 	0.78030 0.01196 0.31336 0.02500
C 	C 	0.49840 0.77625 0.35305 -0.12300
C 	C 	0.79160 0.89179 0.31459 -0.08500
C 	C 	0.50350 0.71341 0.41321 0.08000
C 	C 	0.76930 0.86449 0.18559 -0.16400
C 	C 	0.12460 0.29089 0.31289 -0.11700
C 	C 	0.75790 0.98503 0.18833 0.16700
C 	C 	0.00310 0.29010 0.31070 0.06000
C 	C 	0.81250 0.75000 0.75000 0.05600
C 	C 	0.68230 0.75000 0.75000 0.06200
C 	C 	0.18750 0.25000 0.25000 0.04200
C 	C 	0.31770 0.25000 0.25000 0.05800
S 	S 	0.29810 0.80075 0.93975 0.72200
S 	S 	0.29810 0.69925 0.56025 0.73000
S 	S 	0.70190 0.19925 0.06025 0.73700
S 	S 	0.70190 0.30075 0.43975 0.73200
N 	N 	0.23697 0.55947 0.75108 -0.22300
N 	N 	0.51429 0.09697 0.90715 -0.21900
N 	N 	0.23697 0.94053 0.74892 -0.20300
N 	N 	0.51429 0.40303 0.59285 -0.24400
N 	N 	0.76303 0.44053 0.24892 -0.22200
N 	N 	0.48571 0.90303 0.09285 -0.25600
N 	N 	0.76303 0.05947 0.25108 -0.24200
N 	N 	0.48571 0.59697 0.40715 -0.24100
N 	N 	0.43640 0.75000 0.75000 -0.23400
N 	N 	0.05850 0.75000 0.75000 -0.22300
N 	N 	0.56360 0.25000 0.25000 -0.23400
N 	N 	0.94150 0.25000 0.25000 -0.21900
O 	O 	0.40967 0.86622 0.93331 -0.44300
O 	O 	0.24555 0.77444 0.86528 -0.44500
O 	O 	0.32170 0.69071 0.96791 -0.27900
O 	O 	0.21610 0.87567 0.98667 -0.28100
O 	O 	0.40967 0.63378 0.56669 -0.47200
O 	O 	0.24555 0.72556 0.63472 -0.44900
O 	O 	0.32170 0.80929 0.53209 -0.29800
O 	O 	0.21610 0.62433 0.51333 -0.31300
O 	O 	0.59033 0.13378 0.06669 -0.49000
O 	O 	0.75445 0.22556 0.13472 -0.45400
O 	O 	0.67830 0.30929 0.03209 -0.32700
O 	O 	0.78390 0.12433 0.01333 -0.34300
O 	O 	0.59033 0.36622 0.43331 -0.47300
O 	O 	0.75445 0.27444 0.36528 -0.45100
O 	O 	0.67830 0.19071 0.46791 -0.31000
O 	O 	0.78390 0.37567 0.48667 -0.31500
