data_crystal

_cell_length_a 18.75290
_cell_length_b 18.75290
_cell_length_c 18.74250
_cell_angle_alpha 90.00000
_cell_angle_beta  90.00000
_cell_angle_gamma 120.00000

_symmetry_space_group_name_	'P 1'
_symmetry_space_group_name_H-M	'P 1'

loop_
_symmetry_equiv_pos_as_xyz
  x,y,z

loop_
_atom_site_label
_atom_site_type_symbol
_atom_site_fract_x
_atom_site_fract_y
_atom_site_fract_z
_atom_site_charge
O 	O 	0.81610 0.36710 0.18060 -0.44700
O 	O 	0.78740 0.46080 0.17340 -0.52500
C 	C 	0.82270 0.42810 0.15090 0.50400
C 	C 	0.90030 0.47850 0.10410 -0.14700
C 	C 	0.97700 0.52020 0.13380 0.05400
C 	C 	0.04830 0.54790 0.08660 -0.01800
C 	C 	0.03980 0.56210 0.01460 -0.00600
C 	C 	0.89050 0.47570 0.03150 0.04700
O 	O 	0.63290 0.44900 0.18060 -0.44800
O 	O 	0.53920 0.32660 0.17340 -0.52600
C 	C 	0.57190 0.39460 0.15090 0.50400
C 	C 	0.52150 0.42180 0.10410 -0.14700
C 	C 	0.47980 0.45680 0.13380 0.05400
C 	C 	0.45210 0.50040 0.08660 -0.01800
C 	C 	0.43790 0.47770 0.01460 -0.00600
C 	C 	0.52430 0.41480 0.03150 0.04700
O 	O 	0.55100 0.18390 0.18060 -0.44800
O 	O 	0.67340 0.21260 0.17340 -0.52600
C 	C 	0.60540 0.17730 0.15090 0.50400
C 	C 	0.57820 0.09970 0.10410 -0.14700
C 	C 	0.54320 0.02300 0.13380 0.05400
C 	C 	0.49960 0.95170 0.08660 -0.01800
C 	C 	0.52230 0.96020 0.01460 -0.00600
C 	C 	0.58520 0.10950 0.03150 0.04700
O 	O 	0.81610 0.36710 0.31940 -0.44800
O 	O 	0.78740 0.46080 0.32660 -0.52600
C 	C 	0.82270 0.42810 0.34910 0.50400
C 	C 	0.90030 0.47850 0.39590 -0.14700
C 	C 	0.97700 0.52020 0.36620 0.05400
C 	C 	0.04830 0.54790 0.41340 -0.01800
C 	C 	0.03980 0.56210 0.48540 -0.00600
C 	C 	0.89050 0.47570 0.46850 0.04700
O 	O 	0.63290 0.44900 0.31940 -0.44800
O 	O 	0.53920 0.32660 0.32660 -0.52600
C 	C 	0.57190 0.39460 0.34910 0.50400
C 	C 	0.52150 0.42180 0.39590 -0.14700
C 	C 	0.47980 0.45680 0.36620 0.05400
C 	C 	0.45210 0.50040 0.41340 -0.01800
C 	C 	0.43790 0.47770 0.48540 -0.00600
C 	C 	0.52430 0.41480 0.46850 0.04700
O 	O 	0.55100 0.18390 0.31940 -0.44800
O 	O 	0.67340 0.21260 0.32660 -0.52600
C 	C 	0.60540 0.17730 0.34910 0.50400
C 	C 	0.57820 0.09970 0.39590 -0.14700
C 	C 	0.54320 0.02300 0.36620 0.05400
C 	C 	0.49960 0.95170 0.41340 -0.01800
C 	C 	0.52230 0.96020 0.48540 -0.00600
C 	C 	0.58520 0.10950 0.46850 0.04700
O 	O 	0.36710 0.81610 0.81940 -0.44800
O 	O 	0.46080 0.78740 0.82660 -0.52600
C 	C 	0.42810 0.82270 0.84910 0.50400
C 	C 	0.47850 0.90030 0.89590 -0.14700
C 	C 	0.52020 0.97700 0.86620 0.05400
C 	C 	0.54790 0.04830 0.91340 -0.01800
C 	C 	0.56210 0.03980 0.98540 -0.00600
C 	C 	0.47570 0.89050 0.96850 0.04700
O 	O 	0.44900 0.63290 0.81940 -0.44800
O 	O 	0.32660 0.53920 0.82660 -0.52600
C 	C 	0.39460 0.57190 0.84910 0.50400
C 	C 	0.42180 0.52150 0.89590 -0.14700
C 	C 	0.45680 0.47980 0.86620 0.05400
C 	C 	0.50040 0.45210 0.91340 -0.01800
C 	C 	0.47770 0.43790 0.98540 -0.00600
C 	C 	0.41480 0.52430 0.96850 0.04700
O 	O 	0.18390 0.55100 0.81940 -0.44800
O 	O 	0.21260 0.67340 0.82660 -0.52600
C 	C 	0.17730 0.60540 0.84910 0.50400
C 	C 	0.09970 0.57820 0.89590 -0.14700
C 	C 	0.02300 0.54320 0.86620 0.05400
C 	C 	0.95170 0.49960 0.91340 -0.01800
C 	C 	0.96020 0.52230 0.98540 -0.00600
C 	C 	0.10950 0.58520 0.96850 0.04700
O 	O 	0.36710 0.81610 0.68060 -0.44800
O 	O 	0.46080 0.78740 0.67340 -0.52600
C 	C 	0.42810 0.82270 0.65090 0.50400
C 	C 	0.47850 0.90030 0.60410 -0.14700
C 	C 	0.52020 0.97700 0.63380 0.05400
C 	C 	0.54790 0.04830 0.58660 -0.01800
C 	C 	0.56210 0.03980 0.51460 -0.00600
C 	C 	0.47570 0.89050 0.53150 0.04700
O 	O 	0.44900 0.63290 0.68060 -0.44800
O 	O 	0.32660 0.53920 0.67340 -0.52600
C 	C 	0.39460 0.57190 0.65090 0.50400
C 	C 	0.42180 0.52150 0.60410 -0.14700
C 	C 	0.45680 0.47980 0.63380 0.05400
C 	C 	0.50040 0.45210 0.58660 -0.01800
C 	C 	0.47770 0.43790 0.51460 -0.00600
C 	C 	0.41480 0.52430 0.53150 0.04700
O 	O 	0.18390 0.55100 0.68060 -0.44800
O 	O 	0.21260 0.67340 0.67340 -0.52600
C 	C 	0.17730 0.60540 0.65090 0.50400
C 	C 	0.09970 0.57820 0.60410 -0.14700
C 	C 	0.02300 0.54320 0.63380 0.05400
C 	C 	0.95170 0.49960 0.58660 -0.01800
C 	C 	0.96020 0.52230 0.51460 -0.00600
C 	C 	0.10950 0.58520 0.53150 0.04700
Fe	Fe	0.73450 0.27590 0.25000 1.25400
Fe	Fe	0.72410 0.45860 0.25000 1.25400
Fe	Fe	0.54140 0.26550 0.25000 1.25400
Fe	Fe	0.27590 0.73450 0.75000 1.25400
Fe	Fe	0.45860 0.72410 0.75000 1.25400
Fe	Fe	0.26550 0.54140 0.75000 1.25400
O 	O 	0.66667 0.33333 0.25000 -0.52300
O 	O 	0.33333 0.66667 0.75000 -0.52300
