data_crystal

_cell_length_a 13.87110
_cell_length_b 13.87110
_cell_length_c 12.66300
_cell_angle_alpha 90.00000
_cell_angle_beta  90.00000
_cell_angle_gamma 120.00000

_symmetry_space_group_name_	'P 1'
_symmetry_space_group_name_H-M	'P 1'

loop_
_symmetry_equiv_pos_as_xyz
  x,y,z

loop_
_atom_site_label
_atom_site_type_symbol
_atom_site_fract_x
_atom_site_fract_y
_atom_site_fract_z
_atom_site_charge
O 	O 	0.80810 0.37860 0.10650 -0.38200
O 	O 	0.85220 0.54540 0.13560 -0.36000
C 	C 	0.88200 0.47540 0.11130 0.31300
C 	C 	0.99120 0.50720 0.05820 -0.05100
O 	O 	0.62140 0.42950 0.10650 -0.38100
O 	O 	0.45460 0.30680 0.13560 -0.35900
C 	C 	0.52460 0.40660 0.11130 0.31300
C 	C 	0.49280 0.48400 0.05820 -0.05100
O 	O 	0.57050 0.19190 0.10650 -0.38100
O 	O 	0.69320 0.14780 0.13560 -0.35900
C 	C 	0.59340 0.11800 0.11130 0.31300
C 	C 	0.51600 0.00880 0.05820 -0.05100
O 	O 	0.80810 0.37860 0.39350 -0.38100
O 	O 	0.85220 0.54540 0.36440 -0.35900
C 	C 	0.88200 0.47540 0.38870 0.31300
C 	C 	0.99120 0.50720 0.44180 -0.05100
O 	O 	0.62140 0.42950 0.39350 -0.38100
O 	O 	0.45460 0.30680 0.36440 -0.35900
C 	C 	0.52460 0.40660 0.38870 0.31300
C 	C 	0.49280 0.48400 0.44180 -0.05100
O 	O 	0.57050 0.19190 0.39350 -0.38100
O 	O 	0.69320 0.14780 0.36440 -0.35900
C 	C 	0.59340 0.11800 0.38870 0.31300
C 	C 	0.51600 0.00880 0.44180 -0.05100
O 	O 	0.37860 0.80810 0.89350 -0.38100
O 	O 	0.54540 0.85220 0.86440 -0.35900
C 	C 	0.47540 0.88200 0.88870 0.31300
C 	C 	0.50720 0.99120 0.94180 -0.05100
O 	O 	0.42950 0.62140 0.89350 -0.38100
O 	O 	0.30680 0.45460 0.86440 -0.35900
C 	C 	0.40660 0.52460 0.88870 0.31300
C 	C 	0.48400 0.49280 0.94180 -0.05100
O 	O 	0.19190 0.57050 0.89350 -0.38100
O 	O 	0.14780 0.69320 0.86440 -0.35900
C 	C 	0.11800 0.59340 0.88870 0.31300
C 	C 	0.00880 0.51600 0.94180 -0.05100
O 	O 	0.37860 0.80810 0.60650 -0.38100
O 	O 	0.54540 0.85220 0.63560 -0.35900
C 	C 	0.47540 0.88200 0.61130 0.31300
C 	C 	0.50720 0.99120 0.55820 -0.05100
O 	O 	0.42950 0.62140 0.60650 -0.38100
O 	O 	0.30680 0.45460 0.63560 -0.35900
C 	C 	0.40660 0.52460 0.61130 0.31300
C 	C 	0.48400 0.49280 0.55820 -0.05100
O 	O 	0.19190 0.57050 0.60650 -0.38100
O 	O 	0.14780 0.69320 0.63560 -0.35900
C 	C 	0.11800 0.59340 0.61130 0.31300
C 	C 	0.00880 0.51600 0.55820 -0.05100
Fe	Fe	0.77060 0.28660 0.25000 1.17700
Fe	Fe	0.71340 0.48400 0.25000 1.17700
Fe	Fe	0.51600 0.22940 0.25000 1.17700
Fe	Fe	0.28660 0.77060 0.75000 1.17700
Fe	Fe	0.48400 0.71340 0.75000 1.17700
Fe	Fe	0.22940 0.51600 0.75000 1.17700
O 	O 	0.66667 0.33333 0.25000 -0.66200
O 	O 	0.33333 0.66667 0.75000 -0.66200
