data_crystal

_cell_length_a 20.04050
_cell_length_b 20.04050
_cell_length_c 22.91080
_cell_angle_alpha 90.00000
_cell_angle_beta  90.00000
_cell_angle_gamma 120.00000

_symmetry_space_group_name_	'P 1'
_symmetry_space_group_name_H-M	'P 1'

loop_
_symmetry_equiv_pos_as_xyz
  x,y,z

loop_
_atom_site_label
_atom_site_type_symbol
_atom_site_fract_x
_atom_site_fract_y
_atom_site_fract_z
_atom_site_charge
O 	O 	0.78810 0.34750 0.18700 -0.51800
O 	O 	0.78570 0.45250 0.18790 -0.53100
C 	C 	0.79470 0.40500 0.15920 0.45000
C 	C 	0.85970 0.43880 0.11470 -0.13400
C 	C 	0.89100 0.51430 0.09570 0.05200
C 	C 	0.94770 0.54340 0.04940 -0.02400
C 	C 	0.97180 0.49650 0.02390 0.01000
C 	C 	0.93630 0.41920 0.04090 -0.02200
C 	C 	0.87270 0.38880 0.08070 0.04600
O 	O 	0.65250 0.44060 0.18700 -0.51800
O 	O 	0.54750 0.33320 0.18790 -0.53000
C 	C 	0.59500 0.38970 0.15920 0.45100
C 	C 	0.56120 0.42090 0.11470 -0.13300
C 	C 	0.48570 0.37670 0.09570 0.05300
C 	C 	0.45660 0.40430 0.04940 -0.02300
C 	C 	0.50350 0.47530 0.02390 0.01100
C 	C 	0.58080 0.51710 0.04090 -0.02100
C 	C 	0.61120 0.48390 0.08070 0.04700
O 	O 	0.55940 0.21190 0.18700 -0.51700
O 	O 	0.66680 0.21430 0.18790 -0.53000
C 	C 	0.61030 0.20530 0.15920 0.45100
C 	C 	0.57910 0.14030 0.11470 -0.13300
C 	C 	0.62330 0.10900 0.09570 0.05300
C 	C 	0.59570 0.05230 0.04940 -0.02300
C 	C 	0.52470 0.02820 0.02390 0.01100
C 	C 	0.48290 0.06370 0.04090 -0.02100
C 	C 	0.51610 0.12730 0.08070 0.04700
O 	O 	0.78810 0.34750 0.31300 -0.51700
O 	O 	0.78570 0.45250 0.31210 -0.53000
C 	C 	0.79470 0.40500 0.34080 0.45100
C 	C 	0.85970 0.43880 0.38530 -0.13300
C 	C 	0.89100 0.51430 0.40430 0.05300
C 	C 	0.94770 0.54340 0.45060 -0.02300
C 	C 	0.97180 0.49650 0.47610 0.01100
C 	C 	0.93630 0.41920 0.45910 -0.02100
C 	C 	0.87270 0.38880 0.41930 0.04700
O 	O 	0.65250 0.44060 0.31300 -0.51700
O 	O 	0.54750 0.33320 0.31210 -0.53000
C 	C 	0.59500 0.38970 0.34080 0.45100
C 	C 	0.56120 0.42090 0.38530 -0.13300
C 	C 	0.48570 0.37670 0.40430 0.05300
C 	C 	0.45660 0.40430 0.45060 -0.02300
C 	C 	0.50350 0.47530 0.47610 0.01100
C 	C 	0.58080 0.51710 0.45910 -0.02100
C 	C 	0.61120 0.48390 0.41930 0.04700
O 	O 	0.55940 0.21190 0.31300 -0.51700
O 	O 	0.66680 0.21430 0.31210 -0.53000
C 	C 	0.61030 0.20530 0.34080 0.45100
C 	C 	0.57910 0.14030 0.38530 -0.13300
C 	C 	0.62330 0.10900 0.40430 0.05300
C 	C 	0.59570 0.05230 0.45060 -0.02300
C 	C 	0.52470 0.02820 0.47610 0.01100
C 	C 	0.48290 0.06370 0.45910 -0.02100
C 	C 	0.51610 0.12730 0.41930 0.04700
O 	O 	0.34750 0.78810 0.81300 -0.51700
O 	O 	0.45250 0.78570 0.81210 -0.53000
C 	C 	0.40500 0.79470 0.84080 0.45100
C 	C 	0.43880 0.85970 0.88530 -0.13300
C 	C 	0.51430 0.89100 0.90430 0.05300
C 	C 	0.54340 0.94770 0.95060 -0.02300
C 	C 	0.49650 0.97180 0.97610 0.01100
C 	C 	0.41920 0.93630 0.95910 -0.02100
C 	C 	0.38880 0.87270 0.91930 0.04700
O 	O 	0.44060 0.65250 0.81300 -0.51700
O 	O 	0.33320 0.54750 0.81210 -0.53000
C 	C 	0.38970 0.59500 0.84080 0.45100
C 	C 	0.42090 0.56120 0.88530 -0.13300
C 	C 	0.37670 0.48570 0.90430 0.05300
C 	C 	0.40430 0.45660 0.95060 -0.02300
C 	C 	0.47530 0.50350 0.97610 0.01100
C 	C 	0.51710 0.58080 0.95910 -0.02100
C 	C 	0.48390 0.61120 0.91930 0.04700
O 	O 	0.21190 0.55940 0.81300 -0.51700
O 	O 	0.21430 0.66680 0.81210 -0.53000
C 	C 	0.20530 0.61030 0.84080 0.45100
C 	C 	0.14030 0.57910 0.88530 -0.13300
C 	C 	0.10900 0.62330 0.90430 0.05300
C 	C 	0.05230 0.59570 0.95060 -0.02300
C 	C 	0.02820 0.52470 0.97610 0.01100
C 	C 	0.06370 0.48290 0.95910 -0.02100
C 	C 	0.12730 0.51610 0.91930 0.04700
O 	O 	0.34750 0.78810 0.68700 -0.51700
O 	O 	0.45250 0.78570 0.68790 -0.53000
C 	C 	0.40500 0.79470 0.65920 0.45100
C 	C 	0.43880 0.85970 0.61470 -0.13300
C 	C 	0.51430 0.89100 0.59570 0.05300
C 	C 	0.54340 0.94770 0.54940 -0.02300
C 	C 	0.49650 0.97180 0.52390 0.01100
C 	C 	0.41920 0.93630 0.54090 -0.02100
C 	C 	0.38880 0.87270 0.58070 0.04700
O 	O 	0.44060 0.65250 0.68700 -0.51700
O 	O 	0.33320 0.54750 0.68790 -0.53000
C 	C 	0.38970 0.59500 0.65920 0.45100
C 	C 	0.42090 0.56120 0.61470 -0.13300
C 	C 	0.37670 0.48570 0.59570 0.05300
C 	C 	0.40430 0.45660 0.54940 -0.02300
C 	C 	0.47530 0.50350 0.52390 0.01100
C 	C 	0.51710 0.58080 0.54090 -0.02100
C 	C 	0.48390 0.61120 0.58070 0.04700
O 	O 	0.21190 0.55940 0.68700 -0.51700
O 	O 	0.21430 0.66680 0.68790 -0.53000
C 	C 	0.20530 0.61030 0.65920 0.45100
C 	C 	0.14030 0.57910 0.61470 -0.13300
C 	C 	0.10900 0.62330 0.59570 0.05300
C 	C 	0.05230 0.59570 0.54940 -0.02300
C 	C 	0.02820 0.52470 0.52390 0.01100
C 	C 	0.06370 0.48290 0.54090 -0.02100
C 	C 	0.12730 0.51610 0.58070 0.04700
Cr	Cr	0.72710 0.28000 0.25000 1.56600
Cr	Cr	0.72000 0.44710 0.25000 1.56600
Cr	Cr	0.55290 0.27290 0.25000 1.56600
Cr	Cr	0.28000 0.72710 0.75000 1.56600
Cr	Cr	0.44710 0.72000 0.75000 1.56600
Cr	Cr	0.27290 0.55290 0.75000 1.56600
O 	O 	0.66667 0.33333 0.25000 -0.72100
O 	O 	0.33333 0.66667 0.75000 -0.72100
