data_crystal

_cell_length_a 15.62610
_cell_length_b 15.62610
_cell_length_c 15.96040
_cell_angle_alpha 90.00000
_cell_angle_beta  90.00000
_cell_angle_gamma 120.00000

_symmetry_space_group_name_	'P 1'
_symmetry_space_group_name_H-M	'P 1'

loop_
_symmetry_equiv_pos_as_xyz
  x,y,z

loop_
_atom_site_label
_atom_site_type_symbol
_atom_site_fract_x
_atom_site_fract_y
_atom_site_fract_z
_atom_site_charge
O 	O 	0.65530 0.48450 0.84140 -0.50000
C 	C 	0.44140 0.40750 0.96520 0.04000
O 	O 	0.51550 0.17080 0.84140 -0.49900
C 	C 	0.59250 0.03390 0.96520 0.04100
O 	O 	0.82920 0.34470 0.84140 -0.49900
C 	C 	0.96610 0.55860 0.96520 0.04100
O 	O 	0.34470 0.51550 0.34140 -0.49900
C 	C 	0.55860 0.59250 0.46520 0.04100
O 	O 	0.48450 0.82920 0.34140 -0.49900
C 	C 	0.40750 0.96610 0.46520 0.04100
O 	O 	0.17080 0.65530 0.34140 -0.49900
C 	C 	0.03390 0.44140 0.46520 0.04100
O 	O 	0.48450 0.65530 0.15860 -0.49900
C 	C 	0.40750 0.44140 0.03480 0.04100
O 	O 	0.17080 0.51550 0.15860 -0.49900
C 	C 	0.03390 0.59250 0.03480 0.04100
O 	O 	0.34470 0.82920 0.15860 -0.49900
C 	C 	0.55860 0.96610 0.03480 0.04100
O 	O 	0.51550 0.34470 0.65860 -0.49900
C 	C 	0.59250 0.55860 0.53480 0.04100
O 	O 	0.82920 0.48450 0.65860 -0.49900
C 	C 	0.96610 0.40750 0.53480 0.04100
O 	O 	0.65530 0.17080 0.65860 -0.49900
C 	C 	0.44140 0.03390 0.53480 0.04100
O 	O 	0.34470 0.51550 0.15860 -0.49900
C 	C 	0.55860 0.59250 0.03480 0.04100
O 	O 	0.48450 0.82920 0.15860 -0.49900
C 	C 	0.40750 0.96610 0.03480 0.04100
O 	O 	0.17080 0.65530 0.15860 -0.49900
C 	C 	0.03390 0.44140 0.03480 0.04100
O 	O 	0.65530 0.48450 0.65860 -0.49900
C 	C 	0.44140 0.40750 0.53480 0.04100
O 	O 	0.51550 0.17080 0.65860 -0.49900
C 	C 	0.59250 0.03390 0.53480 0.04100
O 	O 	0.82920 0.34470 0.65860 -0.49900
C 	C 	0.96610 0.55860 0.53480 0.04100
O 	O 	0.51550 0.34470 0.84140 -0.49900
C 	C 	0.59250 0.55860 0.96520 0.04100
O 	O 	0.82920 0.48450 0.84140 -0.49900
C 	C 	0.96610 0.40750 0.96520 0.04100
O 	O 	0.65530 0.17080 0.84140 -0.49900
C 	C 	0.44140 0.03390 0.96520 0.04100
O 	O 	0.48450 0.65530 0.34140 -0.49900
C 	C 	0.40750 0.44140 0.46520 0.04100
O 	O 	0.17080 0.51550 0.34140 -0.49900
C 	C 	0.03390 0.59250 0.46520 0.04100
O 	O 	0.34470 0.82920 0.34140 -0.49900
C 	C 	0.55860 0.96610 0.46520 0.04100
Cr	Cr	0.73520 0.47040 0.75000 1.54800
Cr	Cr	0.52960 0.26480 0.75000 1.54800
Cr	Cr	0.73520 0.26480 0.75000 1.54800
Cr	Cr	0.26480 0.52960 0.25000 1.54800
Cr	Cr	0.47040 0.73520 0.25000 1.54800
Cr	Cr	0.26480 0.73520 0.25000 1.54800
O 	O 	0.66667 0.33333 0.75000 -0.87500
O 	O 	0.33333 0.66667 0.25000 -0.87500
C 	C 	0.57570 0.42430 0.87860 0.43000
C 	C 	0.54250 0.45750 0.94830 -0.14200
C 	C 	0.57570 0.15140 0.87860 0.43000
C 	C 	0.54250 0.08500 0.94830 -0.14200
C 	C 	0.84860 0.42430 0.87860 0.43000
C 	C 	0.91500 0.45750 0.94830 -0.14200
C 	C 	0.42430 0.57570 0.37860 0.43000
C 	C 	0.45750 0.54250 0.44830 -0.14200
C 	C 	0.42430 0.84860 0.37860 0.43000
C 	C 	0.45750 0.91500 0.44830 -0.14200
C 	C 	0.15140 0.57570 0.37860 0.43000
C 	C 	0.08500 0.54250 0.44830 -0.14200
C 	C 	0.42430 0.57570 0.12140 0.43000
C 	C 	0.45750 0.54250 0.05170 -0.14200
C 	C 	0.15140 0.57570 0.12140 0.43000
C 	C 	0.08500 0.54250 0.05170 -0.14200
C 	C 	0.42430 0.84860 0.12140 0.43000
C 	C 	0.45750 0.91500 0.05170 -0.14200
C 	C 	0.57570 0.42430 0.62140 0.43000
C 	C 	0.54250 0.45750 0.55170 -0.14200
C 	C 	0.84860 0.42430 0.62140 0.43000
C 	C 	0.91500 0.45750 0.55170 -0.14200
C 	C 	0.57570 0.15140 0.62140 0.43000
C 	C 	0.54250 0.08500 0.55170 -0.14200
