data_crystal

_cell_length_a 9.96160
_cell_length_b 9.96160
_cell_length_c 19.68000
_cell_angle_alpha 90.00000
_cell_angle_beta  90.00000
_cell_angle_gamma 102.87900

_symmetry_space_group_name_	'P 1'
_symmetry_space_group_name_H-M	'P 1'

loop_
_symmetry_equiv_pos_as_xyz
  x,y,z

loop_
_atom_site_label
_atom_site_type_symbol
_atom_site_fract_x
_atom_site_fract_y
_atom_site_fract_z
_atom_site_charge
Ni	Ni	0.31304 0.43132 0.73365 1.12000
Ni	Ni	0.68696 0.56868 0.23365 1.12000
Ni	Ni	0.56868 0.68696 0.76635 1.12000
Ni	Ni	0.43132 0.31304 0.26635 1.12000
H 	H 	0.67440 0.71220 0.60000 0.03100
H 	H 	0.33610 0.98830 0.74840 0.06700
H 	H 	0.32560 0.28780 0.10000 0.03000
H 	H 	0.66390 0.01170 0.24840 0.06600
H 	H 	0.28780 0.32560 0.90000 0.02800
H 	H 	0.01170 0.66390 0.75160 0.06700
H 	H 	0.71220 0.67440 0.40000 0.03100
H 	H 	0.98830 0.33610 0.25160 0.06600
H 	H 	0.41370 0.41370 0.50000 0.05500
H 	H 	0.58630 0.58630 -0.00000 0.05700
H 	H 	0.95110 0.04890 0.75000 0.07300
H 	H 	0.04890 0.95110 0.25000 0.07100
C 	C 	0.64310 0.66750 0.55960 0.07300
C 	C 	0.44170 0.50490 0.62340 0.41300
C 	C 	0.53030 0.55950 0.56100 -0.12500
C 	C 	0.20970 0.19390 0.74660 0.29600
C 	C 	0.24150 0.95270 0.74910 0.02600
C 	C 	0.15110 0.04190 0.74950 -0.05500
C 	C 	0.35690 0.33250 0.05960 0.07300
C 	C 	0.55830 0.49510 0.12340 0.41100
C 	C 	0.46970 0.44050 0.06100 -0.12200
C 	C 	0.79030 0.80610 0.24660 0.29700
C 	C 	0.75850 0.04730 0.24910 0.02700
C 	C 	0.84890 0.95810 0.24950 -0.05700
C 	C 	0.33250 0.35690 0.94040 0.09000
C 	C 	0.49510 0.55830 0.87660 0.41000
C 	C 	0.44050 0.46970 0.93900 -0.11000
C 	C 	0.80610 0.79030 0.75340 0.29600
C 	C 	0.04730 0.75850 0.75090 0.02600
C 	C 	0.95810 0.84890 0.75050 -0.05500
C 	C 	0.66750 0.64310 0.44040 0.07300
C 	C 	0.50490 0.44170 0.37660 0.41300
C 	C 	0.55950 0.53030 0.43900 -0.12500
C 	C 	0.19390 0.20970 0.25340 0.29700
C 	C 	0.95270 0.24150 0.25090 0.02700
C 	C 	0.04190 0.15110 0.25050 -0.05800
C 	C 	0.83190 0.83190 0.50000 0.33200
C 	C 	0.71110 0.71110 0.50000 -0.10700
C 	C 	0.48850 0.48850 0.50000 0.06600
C 	C 	0.16810 0.16810 -0.00000 0.31400
C 	C 	0.28890 0.28890 -0.00000 -0.12100
C 	C 	0.51150 0.51150 -0.00000 0.04300
C 	C 	0.01080 0.98920 0.75000 0.01700
C 	C 	0.28630 0.71370 0.75000 0.39000
C 	C 	0.18990 0.81010 0.75000 -0.08400
C 	C 	0.98920 0.01080 0.25000 0.02000
C 	C 	0.71370 0.28630 0.25000 0.39000
C 	C 	0.81010 0.18990 0.25000 -0.08700
O 	O 	0.85590 0.89590 0.55370 -0.22000
O 	O 	0.32750 0.43410 0.61410 -0.35000
O 	O 	0.13790 0.27830 0.75980 -0.34200
O 	O 	0.33670 0.23910 0.73260 -0.36500
O 	O 	0.23120 0.58860 0.74160 -0.43900
O 	O 	0.48820 0.53580 0.67930 -0.49800
O 	O 	0.14410 0.10410 0.05370 -0.21900
O 	O 	0.67250 0.56590 0.11410 -0.35200
O 	O 	0.86210 0.72170 0.25980 -0.34300
O 	O 	0.66330 0.76090 0.23260 -0.36600
O 	O 	0.76880 0.41140 0.24160 -0.44000
O 	O 	0.51180 0.46420 0.17930 -0.49800
O 	O 	0.10410 0.14410 0.94630 -0.20200
O 	O 	0.56590 0.67250 0.88590 -0.34400
O 	O 	0.72170 0.86210 0.74020 -0.34200
O 	O 	0.76090 0.66330 0.76740 -0.36400
O 	O 	0.41140 0.76880 0.75840 -0.43900
O 	O 	0.46420 0.51180 0.82070 -0.49600
O 	O 	0.89590 0.85590 0.44630 -0.22000
O 	O 	0.43410 0.32750 0.38590 -0.35000
O 	O 	0.27830 0.13790 0.24020 -0.34300
O 	O 	0.23910 0.33670 0.26740 -0.36600
O 	O 	0.58860 0.23120 0.25840 -0.44000
O 	O 	0.53580 0.48820 0.32070 -0.49800
