data_crystal

_cell_length_a 16.00000
_cell_length_b 19.19800
_cell_length_c 21.41100
_cell_angle_alpha 90.00000
_cell_angle_beta  90.00000
_cell_angle_gamma 99.86100

_symmetry_space_group_name_	'P 1'
_symmetry_space_group_name_H-M	'P 1'

loop_
_symmetry_equiv_pos_as_xyz
  x,y,z

loop_
_atom_site_label
_atom_site_type_symbol
_atom_site_fract_x
_atom_site_fract_y
_atom_site_fract_z
_atom_site_charge
Cu	Cu	0.63877 0.97809 0.35095 0.92800
Cu	Cu	0.51047 0.90416 0.22795 0.87200
Cu	Cu	0.68744 0.87060 0.26157 0.89600
Cu	Cu	0.81268 0.91464 0.37410 0.89900
Cu	Cu	0.36123 0.52191 0.85095 0.92800
Cu	Cu	0.48953 0.59584 0.72795 0.87200
Cu	Cu	0.31256 0.62940 0.76157 0.89600
Cu	Cu	0.18732 0.58536 0.87410 0.89900
Cu	Cu	0.36123 0.02191 0.64905 0.92800
Cu	Cu	0.48953 0.09584 0.77206 0.87300
Cu	Cu	0.31256 0.12940 0.73843 0.89700
Cu	Cu	0.18732 0.08536 0.62590 0.90000
Cu	Cu	0.63877 0.47809 0.14905 0.92900
Cu	Cu	0.51047 0.40416 0.27206 0.87300
Cu	Cu	0.68744 0.37060 0.23843 0.89700
Cu	Cu	0.81268 0.41464 0.12590 0.90000
H 	H 	0.12260 0.03680 0.33760 0.13200
H 	H 	0.04840 0.16780 0.12870 0.13600
H 	H 	0.17730 0.03440 0.43590 0.07000
H 	H 	0.31000 0.98830 0.28790 0.07700
H 	H 	0.41020 0.98770 0.46050 0.06300
H 	H 	0.95770 0.25020 0.15860 0.07300
H 	H 	0.31950 0.03500 0.13710 0.13000
H 	H 	0.94780 0.06190 0.24290 0.08600
H 	H 	0.20120 0.12640 0.03770 0.13100
H 	H 	0.23340 0.14530 0.93410 -0.00400
H 	H 	0.44390 0.06310 0.95570 -0.01700
H 	H 	0.40740 0.03640 0.05760 0.10800
H 	H 	0.76390 0.17570 0.27350 0.06000
H 	H 	0.87740 0.46320 0.83760 0.13200
H 	H 	0.95160 0.33220 0.62870 0.13600
H 	H 	0.82270 0.46560 0.93590 0.07000
H 	H 	0.69000 0.51170 0.78790 0.07700
H 	H 	0.58980 0.51230 0.96050 0.06300
H 	H 	0.04230 0.24980 0.65860 0.07400
H 	H 	0.68050 0.46500 0.63710 0.13000
H 	H 	0.05220 0.43810 0.74290 0.08600
H 	H 	0.79880 0.37360 0.53770 0.13100
H 	H 	0.76660 0.35470 0.43410 -0.00400
H 	H 	0.55610 0.43690 0.45570 -0.01800
H 	H 	0.59260 0.46360 0.55760 0.10900
H 	H 	0.23610 0.32430 0.77350 0.06000
H 	H 	0.87740 0.96320 0.66240 0.13200
H 	H 	0.95160 0.83220 0.87130 0.13600
H 	H 	0.82270 0.96560 0.56410 0.07000
H 	H 	0.69000 0.01170 0.71210 0.07700
H 	H 	0.58980 0.01230 0.53950 0.06300
H 	H 	0.04230 0.74980 0.84140 0.07300
H 	H 	0.68050 0.96500 0.86290 0.13000
H 	H 	0.05220 0.93810 0.75710 0.08600
H 	H 	0.79880 0.87360 0.96230 0.13100
H 	H 	0.76660 0.85470 0.06590 -0.00400
H 	H 	0.55610 0.93690 0.04430 -0.01700
H 	H 	0.59260 0.96360 0.94240 0.10800
H 	H 	0.23610 0.82430 0.72650 0.06000
H 	H 	0.12260 0.53680 0.16240 0.13200
H 	H 	0.04840 0.66780 0.37130 0.13600
H 	H 	0.17730 0.53440 0.06410 0.07000
H 	H 	0.31000 0.48830 0.21210 0.07700
H 	H 	0.41020 0.48770 0.03950 0.06300
H 	H 	0.95770 0.75020 0.34140 0.07400
H 	H 	0.31950 0.53500 0.36290 0.13000
H 	H 	0.94780 0.56190 0.25710 0.08600
H 	H 	0.20120 0.62640 0.46230 0.13100
H 	H 	0.23340 0.64530 0.56590 -0.00400
H 	H 	0.44390 0.56310 0.54430 -0.01800
H 	H 	0.40740 0.53640 0.44240 0.10900
H 	H 	0.76390 0.67570 0.22650 0.06000
C 	C 	0.96619 0.15470 0.19743 0.12500
C 	C 	0.22688 0.02303 0.41920 -0.09700
C 	C 	0.16908 0.05870 0.25783 0.19700
C 	C 	0.10449 0.11361 0.18447 0.19800
C 	C 	0.30600 0.99586 0.33067 -0.08900
C 	C 	0.29119 0.01065 0.45907 -0.05000
C 	C 	0.23521 0.01877 0.35506 0.12100
C 	C 	0.22192 0.07141 0.16122 0.19800
C 	C 	0.36534 0.99317 0.43439 -0.00700
C 	C 	0.93094 0.21547 0.18559 -0.09500
C 	C 	0.29980 0.07782 0.05846 0.22400
C 	C 	0.92448 0.10232 0.23549 -0.09900
C 	C 	0.24910 0.11190 0.02107 -0.24700
C 	C 	0.28289 0.01975 0.52860 0.35100
C 	C 	0.26940 0.12420 0.95920 0.14800
C 	C 	0.34219 0.10604 0.93320 -0.20300
C 	C 	0.39380 0.07440 0.97158 0.14800
C 	C 	0.36310 0.11628 0.86554 0.41200
C 	C 	0.37260 0.05930 0.03300 -0.25000
C 	C 	0.85473 0.22302 0.21507 -0.05300
C 	C 	0.84736 0.10940 0.26314 -0.04300
C 	C 	0.79830 0.04826 0.29893 0.32400
C 	C 	0.81409 0.17022 0.25368 -0.01300
C 	C 	0.81710 0.28894 0.20363 0.36600
C 	C 	0.37167 0.98408 0.37063 -0.06400
C 	C 	0.45031 0.96336 0.34258 0.38100
C 	C 	0.03381 0.34530 0.69743 0.12600
C 	C 	0.77312 0.47697 0.91920 -0.09700
C 	C 	0.83092 0.44130 0.75783 0.19700
C 	C 	0.89551 0.38639 0.68447 0.19700
C 	C 	0.69400 0.50414 0.83067 -0.08900
C 	C 	0.70881 0.48935 0.95907 -0.05000
C 	C 	0.76479 0.48123 0.85506 0.12000
C 	C 	0.77808 0.42859 0.66122 0.19800
C 	C 	0.63466 0.50683 0.93439 -0.00600
C 	C 	0.06906 0.28453 0.68559 -0.09500
C 	C 	0.70020 0.42218 0.55846 0.22500
C 	C 	0.07552 0.39768 0.73549 -0.10000
C 	C 	0.75090 0.38810 0.52107 -0.25000
C 	C 	0.71711 0.48025 0.02860 0.35100
C 	C 	0.73060 0.37580 0.45920 0.15100
C 	C 	0.65781 0.39396 0.43320 -0.20400
C 	C 	0.60620 0.42560 0.47158 0.15100
C 	C 	0.63690 0.38372 0.36554 0.41300
C 	C 	0.62740 0.44070 0.53300 -0.25200
C 	C 	0.14527 0.27698 0.71507 -0.05300
C 	C 	0.15264 0.39060 0.76314 -0.04300
C 	C 	0.20170 0.45174 0.79893 0.32400
C 	C 	0.18591 0.32978 0.75368 -0.01300
C 	C 	0.18290 0.21106 0.70363 0.36600
C 	C 	0.62833 0.51592 0.87063 -0.06400
C 	C 	0.54969 0.53664 0.84258 0.38200
C 	C 	0.03381 0.84530 0.80257 0.12500
C 	C 	0.77312 0.97697 0.58080 -0.09700
C 	C 	0.83092 0.94130 0.74217 0.19700
C 	C 	0.89551 0.88639 0.81553 0.19800
C 	C 	0.69400 0.00414 0.66933 -0.08900
C 	C 	0.70881 0.98935 0.54093 -0.05000
C 	C 	0.76479 0.98123 0.64494 0.12100
C 	C 	0.77808 0.92859 0.83878 0.19800
C 	C 	0.63466 0.00683 0.56561 -0.00700
C 	C 	0.06906 0.78453 0.81441 -0.09500
C 	C 	0.70020 0.92218 0.94154 0.22400
C 	C 	0.07552 0.89768 0.76451 -0.09900
C 	C 	0.75090 0.88810 0.97893 -0.24700
C 	C 	0.71711 0.98025 0.47140 0.35100
C 	C 	0.73060 0.87580 0.04080 0.14800
C 	C 	0.65781 0.89396 0.06680 -0.20300
C 	C 	0.60620 0.92560 0.02842 0.14800
C 	C 	0.63690 0.88372 0.13446 0.41200
C 	C 	0.62740 0.94070 0.96700 -0.25000
C 	C 	0.14527 0.77698 0.78493 -0.05300
C 	C 	0.15264 0.89060 0.73686 -0.04300
C 	C 	0.20170 0.95174 0.70107 0.32400
C 	C 	0.18591 0.82978 0.74632 -0.01300
C 	C 	0.18290 0.71106 0.79637 0.36600
C 	C 	0.62833 0.01592 0.62937 -0.06400
C 	C 	0.54969 0.03664 0.65742 0.38100
C 	C 	0.96619 0.65470 0.30257 0.12600
C 	C 	0.22688 0.52303 0.08080 -0.09700
C 	C 	0.16908 0.55870 0.24217 0.19700
C 	C 	0.10449 0.61361 0.31553 0.19700
C 	C 	0.30600 0.49586 0.16933 -0.08900
C 	C 	0.29119 0.51065 0.04093 -0.05000
C 	C 	0.23521 0.51877 0.14494 0.12000
C 	C 	0.22192 0.57141 0.33878 0.19800
C 	C 	0.36534 0.49317 0.06561 -0.00600
C 	C 	0.93094 0.71547 0.31441 -0.09500
C 	C 	0.29980 0.57782 0.44154 0.22500
C 	C 	0.92448 0.60232 0.26451 -0.10000
C 	C 	0.24910 0.61190 0.47893 -0.25000
C 	C 	0.28289 0.51975 0.97140 0.35100
C 	C 	0.26940 0.62420 0.54080 0.15100
C 	C 	0.34219 0.60604 0.56680 -0.20400
C 	C 	0.39380 0.57440 0.52842 0.15100
C 	C 	0.36310 0.61628 0.63446 0.41200
C 	C 	0.37260 0.55930 0.46700 -0.25200
C 	C 	0.85473 0.72302 0.28493 -0.05300
C 	C 	0.84736 0.60940 0.23686 -0.04300
C 	C 	0.79830 0.54826 0.20107 0.32400
C 	C 	0.81409 0.67022 0.24632 -0.01300
C 	C 	0.81710 0.78894 0.29637 0.36600
C 	C 	0.37167 0.48408 0.12937 -0.06400
C 	C 	0.45031 0.46336 0.15742 0.38200
N 	N 	0.22968 0.04607 0.21895 -0.18100
N 	N 	0.16315 0.10760 0.14115 -0.18000
N 	N 	0.10333 0.09085 0.24352 -0.17600
N 	N 	0.17005 0.03819 0.31831 -0.23600
N 	N 	0.04169 0.14798 0.16476 -0.23600
N 	N 	0.28386 0.05884 0.12114 -0.25400
N 	N 	0.77032 0.45393 0.71895 -0.18100
N 	N 	0.83685 0.39240 0.64115 -0.18000
N 	N 	0.89667 0.40915 0.74352 -0.17600
N 	N 	0.82995 0.46181 0.81831 -0.23600
N 	N 	0.95831 0.35202 0.66476 -0.23600
N 	N 	0.71614 0.44116 0.62114 -0.25500
N 	N 	0.77032 0.95393 0.78105 -0.18100
N 	N 	0.83685 0.89240 0.85885 -0.18000
N 	N 	0.89667 0.90915 0.75648 -0.17600
N 	N 	0.82995 0.96181 0.68169 -0.23600
N 	N 	0.95831 0.85202 0.83524 -0.23600
N 	N 	0.71614 0.94116 0.87886 -0.25400
N 	N 	0.22968 0.54607 0.28105 -0.18100
N 	N 	0.16315 0.60760 0.35885 -0.18000
N 	N 	0.10333 0.59085 0.25648 -0.17600
N 	N 	0.17005 0.53819 0.18169 -0.23600
N 	N 	0.04169 0.64798 0.33524 -0.23600
N 	N 	0.28386 0.55884 0.37886 -0.25500
O 	O 	0.34396 0.00677 0.56138 -0.39100
O 	O 	0.21645 0.03892 0.54815 -0.42200
O 	O 	0.30660 0.12967 0.82885 -0.42200
O 	O 	0.43745 0.11054 0.85062 -0.46700
O 	O 	0.73082 0.05865 0.32534 -0.38100
O 	O 	0.82429 0.99021 0.29750 -0.40700
O 	O 	0.75753 0.29789 0.23931 -0.41400
O 	O 	0.84787 0.32863 0.16085 -0.42900
O 	O 	0.69554 0.88508 0.35149 -0.52200
O 	O 	0.61935 0.94951 0.26313 -0.53300
O 	O 	0.51773 0.97962 0.37095 -0.41000
O 	O 	0.43957 0.93004 0.29234 -0.46400
O 	O 	0.65604 0.49323 0.06138 -0.39100
O 	O 	0.78355 0.46108 0.04815 -0.42200
O 	O 	0.69340 0.37033 0.32885 -0.42200
O 	O 	0.56255 0.38946 0.35062 -0.46700
O 	O 	0.26918 0.44135 0.82534 -0.38200
O 	O 	0.17571 0.50979 0.79750 -0.40700
O 	O 	0.24247 0.20211 0.73931 -0.41400
O 	O 	0.15213 0.17137 0.66085 -0.42900
O 	O 	0.30446 0.61492 0.85149 -0.52200
O 	O 	0.38065 0.55049 0.76313 -0.53300
O 	O 	0.48227 0.52038 0.87095 -0.41000
O 	O 	0.56043 0.56996 0.79234 -0.46400
O 	O 	0.65604 0.99323 0.43862 -0.39100
O 	O 	0.78355 0.96108 0.45185 -0.42200
O 	O 	0.69340 0.87033 0.17115 -0.42200
O 	O 	0.56255 0.88946 0.14938 -0.46700
O 	O 	0.26918 0.94135 0.67466 -0.38100
O 	O 	0.17571 0.00979 0.70250 -0.40700
O 	O 	0.24247 0.70211 0.76069 -0.41400
O 	O 	0.15213 0.67137 0.83915 -0.42900
O 	O 	0.30446 0.11492 0.64851 -0.52200
O 	O 	0.38065 0.05049 0.73687 -0.53300
O 	O 	0.48227 0.02038 0.62905 -0.41000
O 	O 	0.56043 0.06996 0.70766 -0.46400
O 	O 	0.34396 0.50677 0.93862 -0.39100
O 	O 	0.21645 0.53892 0.95185 -0.42200
O 	O 	0.30660 0.62967 0.67115 -0.42200
O 	O 	0.43745 0.61054 0.64938 -0.46700
O 	O 	0.73082 0.55865 0.17466 -0.38200
O 	O 	0.82429 0.49021 0.20250 -0.40700
O 	O 	0.75753 0.79789 0.26069 -0.41400
O 	O 	0.84787 0.82863 0.33915 -0.42900
O 	O 	0.69554 0.38508 0.14851 -0.52200
O 	O 	0.61935 0.44951 0.23687 -0.53300
O 	O 	0.51773 0.47962 0.12905 -0.41000
O 	O 	0.43957 0.43004 0.20766 -0.46400
