data_crystal

_cell_length_a 9.87850
_cell_length_b 11.19860
_cell_length_c 14.74560
_cell_angle_alpha 93.91900
_cell_angle_beta  97.40900
_cell_angle_gamma 104.51700

_symmetry_space_group_name_	'P 1'
_symmetry_space_group_name_H-M	'P 1'

loop_
_symmetry_equiv_pos_as_xyz
  x,y,z

loop_
_atom_site_label
_atom_site_type_symbol
_atom_site_fract_x
_atom_site_fract_y
_atom_site_fract_z
_atom_site_charge
La	La	0.38197 0.52480 0.88245 1.69500
La	La	0.17582 0.57847 0.61474 1.61700
La	La	0.61803 0.47520 0.11755 1.69600
La	La	0.82418 0.42153 0.38526 1.61800
H 	H 	0.13600 0.88970 0.80720 0.08300
H 	H 	0.41210 0.90570 0.88000 0.03800
H 	H 	0.35400 0.92290 0.77920 0.03100
H 	H 	0.05010 0.86220 0.93240 0.03200
H 	H 	0.19650 0.86320 0.98830 0.04200
H 	H 	0.16770 0.05320 0.02600 0.03300
H 	H 	0.11380 0.06860 0.92410 0.04100
H 	H 	0.33290 0.11280 0.81850 0.05100
H 	H 	0.47520 0.11130 0.87880 0.03800
H 	H 	0.37530 0.07750 0.00150 0.08200
H 	H 	0.05470 0.23250 0.80890 0.08700
H 	H 	0.84110 0.17160 0.70030 0.02700
H 	H 	0.82700 0.13340 0.79960 0.02500
H 	H 	0.08650 0.41570 0.91150 -0.01300
H 	H 	0.98200 0.29800 0.93870 0.02500
H 	H 	0.88520 0.46780 0.95190 0.05500
H 	H 	0.89540 0.48760 0.84830 0.06500
H 	H 	0.63480 0.20780 0.75230 0.05600
H 	H 	0.73160 0.32830 0.72310 0.07000
H 	H 	0.72350 0.27210 0.90640 0.06600
H 	H 	0.90820 0.76250 0.63890 0.06400
H 	H 	0.76950 0.85730 0.54440 0.04400
H 	H 	0.63320 0.75200 0.55050 0.06400
H 	H 	0.81270 0.57470 0.69730 0.05200
H 	H 	0.66030 0.57100 0.64900 0.05800
H 	H 	0.68210 0.64180 0.80340 0.02700
H 	H 	0.81740 0.74730 0.79550 0.03600
H 	H 	0.78830 0.92700 0.69900 0.03400
H 	H 	0.63630 0.92340 0.65010 0.04100
H 	H 	0.63360 0.83750 0.79310 0.07900
H 	H 	0.86400 0.11030 0.19280 0.08300
H 	H 	0.58790 0.09430 0.12000 0.03800
H 	H 	0.64600 0.07710 0.22080 0.03100
H 	H 	0.94990 0.13780 0.06760 0.03200
H 	H 	0.80350 0.13680 0.01170 0.04200
H 	H 	0.83230 0.94680 0.97400 0.03300
H 	H 	0.88620 0.93140 0.07590 0.04100
H 	H 	0.66710 0.88720 0.18150 0.05100
H 	H 	0.52480 0.88870 0.12120 0.03800
H 	H 	0.62470 0.92250 0.99850 0.08200
H 	H 	0.94530 0.76750 0.19110 0.08700
H 	H 	0.15890 0.82840 0.29970 0.02700
H 	H 	0.17300 0.86660 0.20040 0.02500
H 	H 	0.91350 0.58430 0.08850 -0.01300
H 	H 	0.01800 0.70200 0.06130 0.02500
H 	H 	0.11480 0.53220 0.04810 0.05500
H 	H 	0.10460 0.51240 0.15170 0.06500
H 	H 	0.36520 0.79220 0.24770 0.05600
H 	H 	0.26840 0.67170 0.27690 0.07000
H 	H 	0.27650 0.72790 0.09360 0.06600
H 	H 	0.09180 0.23750 0.36110 0.06400
H 	H 	0.23050 0.14270 0.45560 0.04400
H 	H 	0.36680 0.24800 0.44950 0.06400
H 	H 	0.18730 0.42530 0.30270 0.05200
H 	H 	0.33970 0.42900 0.35100 0.05800
H 	H 	0.31790 0.35820 0.19660 0.02700
H 	H 	0.18260 0.25270 0.20450 0.03600
H 	H 	0.21170 0.07300 0.30100 0.03400
H 	H 	0.36370 0.07660 0.34990 0.04100
H 	H 	0.36640 0.16250 0.20690 0.07900
C 	C 	0.18130 0.72940 0.82890 0.39900
C 	C 	0.19910 0.86600 0.85550 -0.17500
C 	C 	0.34280 0.93720 0.84310 -0.04900
C 	C 	0.15130 0.89850 0.93840 -0.04300
C 	C 	0.18210 0.03810 0.96280 -0.04700
C 	C 	0.37360 0.07550 0.86910 -0.06400
C 	C 	0.31580 0.10590 0.95370 -0.16100
C 	C 	0.35560 0.24500 0.98070 0.39400
C 	C 	0.05510 0.37720 0.73360 0.39000
C 	C 	0.99210 0.28730 0.79880 -0.19900
C 	C 	0.84430 0.20350 0.76360 -0.01400
C 	C 	0.99480 0.35690 0.89320 0.01000
C 	C 	0.88030 0.42560 0.89140 -0.10900
C 	C 	0.72560 0.26870 0.76810 -0.09900
C 	C 	0.73400 0.33500 0.86280 -0.12200
C 	C 	0.61900 0.40020 0.86980 0.34600
C 	C 	0.83410 0.63270 0.52840 0.33900
C 	C 	0.81470 0.71250 0.60930 -0.13900
C 	C 	0.72370 0.79970 0.58430 -0.07600
C 	C 	0.74990 0.62570 0.67860 -0.09000
C 	C 	0.72670 0.69880 0.76270 -0.02700
C 	C 	0.69900 0.87240 0.66890 -0.04200
C 	C 	0.63360 0.78550 0.73690 -0.17600
C 	C 	0.48050 0.71650 0.70110 0.38700
C 	C 	0.81870 0.27060 0.17110 0.39900
C 	C 	0.80090 0.13400 0.14450 -0.17500
C 	C 	0.65720 0.06280 0.15690 -0.04900
C 	C 	0.84870 0.10150 0.06160 -0.04300
C 	C 	0.81790 0.96190 0.03720 -0.04700
C 	C 	0.62640 0.92450 0.13090 -0.06400
C 	C 	0.68420 0.89410 0.04630 -0.16100
C 	C 	0.64440 0.75500 0.01930 0.39400
C 	C 	0.94490 0.62280 0.26640 0.39000
C 	C 	0.00790 0.71270 0.20120 -0.19900
C 	C 	0.15570 0.79650 0.23640 -0.01400
C 	C 	0.00520 0.64310 0.10680 0.01000
C 	C 	0.11970 0.57440 0.10860 -0.10900
C 	C 	0.27440 0.73130 0.23190 -0.09900
C 	C 	0.26600 0.66500 0.13720 -0.12200
C 	C 	0.38100 0.59980 0.13020 0.34600
C 	C 	0.16590 0.36730 0.47160 0.33900
C 	C 	0.18530 0.28750 0.39070 -0.13900
C 	C 	0.27630 0.20030 0.41570 -0.07600
C 	C 	0.25010 0.37430 0.32140 -0.09000
C 	C 	0.27330 0.30120 0.23730 -0.02700
C 	C 	0.30100 0.12760 0.33110 -0.04200
C 	C 	0.36640 0.21450 0.26310 -0.17600
C 	C 	0.51950 0.28350 0.29890 0.38700
O 	O 	0.22470 0.66430 0.88640 -0.43900
O 	O 	0.12700 0.68930 0.74760 -0.46200
O 	O 	0.43700 0.28440 0.05460 -0.44600
O 	O 	0.30850 0.31260 0.92670 -0.43700
O 	O 	0.18680 0.43050 0.75140 -0.48800
O 	O 	0.98460 0.39780 0.66510 -0.41000
O 	O 	0.61440 0.45590 0.94750 -0.49000
O 	O 	0.53060 0.40270 0.80180 -0.38500
O 	O 	0.42110 0.62340 0.73900 -0.49400
O 	O 	0.41080 0.75150 0.63770 -0.43100
O 	O 	0.94110 0.58770 0.53510 -0.50000
O 	O 	0.74290 0.60070 0.45690 -0.39700
O 	O 	0.77530 0.33570 0.11360 -0.43900
O 	O 	0.87300 0.31070 0.25240 -0.46200
O 	O 	0.56300 0.71560 0.94540 -0.44600
O 	O 	0.69150 0.68740 0.07330 -0.43700
O 	O 	0.81320 0.56950 0.24860 -0.48800
O 	O 	0.01540 0.60220 0.33490 -0.41000
O 	O 	0.38560 0.54410 0.05250 -0.49000
O 	O 	0.46940 0.59730 0.19820 -0.38500
O 	O 	0.57890 0.37660 0.26100 -0.49400
O 	O 	0.58920 0.24850 0.36230 -0.43100
O 	O 	0.05890 0.41230 0.46490 -0.50000
O 	O 	0.25710 0.39930 0.54310 -0.39700
