data_crystal

_cell_length_a 14.29100
_cell_length_b 17.34500
_cell_length_c 19.37100
_cell_angle_alpha 63.73700
_cell_angle_beta  83.57100
_cell_angle_gamma 82.35900

_symmetry_space_group_name_	'P 1'
_symmetry_space_group_name_H-M	'P 1'

loop_
_symmetry_equiv_pos_as_xyz
  x,y,z

loop_
_atom_site_label
_atom_site_type_symbol
_atom_site_fract_x
_atom_site_fract_y
_atom_site_fract_z
_atom_site_charge
La	La	0.17664 0.54013 0.77055 1.63700
La	La	0.07152 0.51684 0.57933 1.68700
Ni	Ni	0.52027 0.01140 0.76096 1.06500
O 	O 	0.01390 0.37290 0.62710 -0.41600
O 	O 	0.90110 0.53210 0.52530 -0.35500
O 	O 	0.93380 0.35190 0.54380 -0.43100
O 	O 	0.13730 0.43180 0.70980 -0.36200
O 	O 	0.23820 0.38010 0.79890 -0.24400
O 	O 	0.65940 0.47350 0.17830 -0.35600
O 	O 	0.76930 0.54210 0.08900 -0.36600
O 	O 	0.07720 0.61100 0.64450 -0.37800
O 	O 	0.96750 0.73070 0.60870 -0.13500
O 	O 	0.90320 0.53370 0.63630 -0.24600
O 	O 	0.75440 0.51600 0.60130 -0.13100
O 	O 	0.20840 0.69610 0.71840 -0.36400
O 	O 	0.14700 0.64260 0.83800 -0.37500
O 	O 	0.01550 0.65250 0.72740 -0.22700
O 	O 	0.22070 0.29290 0.73380 -0.12900
N 	N 	0.02120 0.66330 0.65260 0.06400
N 	N 	0.86050 0.52630 0.58870 0.04900
N 	N 	0.19580 0.37340 0.74800 0.04600
O 	O 	0.24450 0.52890 0.56210 -0.41700
N 	N 	0.64700 0.94730 0.80610 -0.25000
C 	C 	0.69230 0.99280 0.82960 0.13700
N 	N 	0.47910 0.90360 0.75180 -0.24800
N 	N 	0.78580 0.96660 0.83550 -0.11900
N 	N 	0.55010 0.09200 0.81330 -0.13200
N 	N 	0.39280 0.08170 0.72160 -0.25000
N 	N 	0.59920 0.10180 0.67180 -0.25000
N 	N 	0.23550 0.08230 0.73700 -0.11500
N 	N 	0.64770 0.23390 0.62570 -0.11500
N 	N 	0.43090 0.77310 0.81800 -0.11800
N 	N 	0.43300 0.95310 0.86590 -0.13600
C 	C 	0.47180 0.86970 0.69910 0.06700
O 	O 	0.28680 0.55570 0.65630 -0.42000
C 	C 	0.88200 0.09010 0.78950 0.15400
C 	C 	0.90250 0.18430 0.65580 0.11700
H 	H 	0.89740 0.19570 0.60470 0.00600
C 	C 	0.68560 0.20010 0.57330 0.03400
C 	C 	0.32070 0.04870 0.76870 0.14300
C 	C 	0.13270 0.80540 0.84070 0.10000
H 	H 	0.11370 0.75910 0.88570 0.00400
C 	C 	0.61160 0.56480 0.04950 -0.13400
C 	C 	0.35300 0.14030 0.65010 0.06600
C 	C 	0.39400 0.47150 0.61100 -0.18100
C 	C 	0.59700 0.17360 0.68070 0.13800
C 	C 	0.71640 0.88790 0.79540 0.06300
C 	C 	0.45250 0.84540 0.82040 0.14000
C 	C 	0.41470 0.42910 0.56430 0.12000
H 	H 	0.37110 0.43450 0.52980 0.01200
C 	C 	0.25550 0.14130 0.65990 0.05000
C 	C 	0.50000 0.37860 0.56830 -0.20400
H 	H 	0.51230 0.34900 0.53780 0.11200
C 	C 	0.14960 0.95500 0.77290 0.15100
C 	C 	0.16670 0.79210 0.77680 -0.15500
C 	C 	0.66030 0.31860 0.62140 -0.19200
H 	H 	0.70060 0.34930 0.57610 0.10900
H 	H 	0.69160 0.31050 0.66640 0.09500
C 	C 	0.56640 0.37250 0.61750 0.17800
C 	C 	0.80320 0.89940 0.81520 0.04400
C 	C 	0.45120 0.85960 0.88960 -0.23000
H 	H 	0.51150 0.83810 0.91310 0.09400
H 	H 	0.40190 0.82940 0.92690 0.10300
C 	C 	0.14600 0.04550 0.77020 -0.17000
H 	H 	0.09480 0.08270 0.73940 0.09200
H 	H 	0.13410 0.04140 0.82200 0.08000
C 	C 	0.94500 0.22580 0.74800 0.12200
H 	H 	0.97090 0.26460 0.75980 0.00400
C 	C 	0.47610 0.64830 0.94050 0.15400
C 	C 	0.54590 0.18060 0.74950 -0.23100
H 	H 	0.57590 0.21860 0.76310 0.10700
H 	H 	0.48070 0.20360 0.73900 0.10300
C 	C 	0.76980 0.18140 0.47090 -0.04800
H 	H 	0.80690 0.20220 0.42500 0.07100
C 	C 	0.46140 0.98400 0.91910 -0.08600
H 	H 	0.51960 0.95140 0.94180 0.04600
H 	H 	0.41280 0.97500 0.96040 0.05100
C 	C 	0.44390 0.78680 0.74020 0.04200
C 	C 	0.87690 0.10840 0.71340 -0.20800
H 	H 	0.85550 0.06800 0.70090 0.11300
C 	C 	0.45980 0.46270 0.66200 0.12000
H 	H 	0.44680 0.49010 0.69430 0.00600
C 	C 	0.12640 0.88590 0.83860 -0.20800
H 	H 	0.10590 0.89300 0.88290 0.09200
C 	C 	0.85550 0.00580 0.85560 -0.17300
H 	H 	0.91190 0.96580 0.87060 0.08300
H 	H 	0.83050 0.01650 0.89950 0.07600
C 	C 	0.93630 0.24520 0.67290 -0.18200
C 	C 	0.30140 0.52230 0.61070 0.41000
C 	C 	0.64710 0.06560 0.84400 -0.21900
H 	H 	0.68540 0.11390 0.81920 0.10100
H 	H 	0.64220 0.04920 0.89900 0.09100
C 	C 	0.54610 0.41260 0.66480 -0.21100
H 	H 	0.58990 0.40670 0.69930 0.11100
C 	C 	0.57020 0.65110 0.91860 -0.18800
H 	H 	0.58870 0.68080 0.86670 0.10300
C 	C 	0.68490 0.52510 0.10880 0.31500
C 	C 	0.91680 0.15090 0.80720 -0.21200
H 	H 	0.92070 0.14050 0.85820 0.09600
C 	C 	0.39730 0.18930 0.58090 -0.11500
H 	H 	0.46280 0.18840 0.57370 0.06600
C 	C 	0.19820 0.18800 0.60100 -0.07100
H 	H 	0.13310 0.18560 0.60680 0.06600
C 	C 	0.71120 0.82380 0.77060 -0.11300
H 	H 	0.65400 0.81400 0.75870 0.06700
C 	C 	0.47580 0.07790 0.87730 -0.12000
H 	H 	0.41690 0.11080 0.85650 0.06600
H 	H 	0.49500 0.09760 0.91280 0.06400
C 	C 	0.74360 0.23300 0.50550 -0.06000
H 	H 	0.76290 0.28830 0.48550 0.06400
C 	C 	0.74330 0.09610 0.50160 0.00000
H 	H 	0.76380 0.06220 0.47570 0.03400
C 	C 	0.68680 0.06220 0.57020 -0.11700
H 	H 	0.67040 0.00580 0.59170 0.06300
C 	C 	0.48990 0.90340 0.62140 -0.11600
H 	H 	0.50930 0.95860 0.59330 0.06000
C 	C 	0.43170 0.73540 0.70420 -0.07100
H 	H 	0.41370 0.67960 0.73160 0.07400
C 	C 	0.40070 0.69390 0.88330 -0.17800
H 	H 	0.38450 0.65490 0.86380 0.09800
H 	H 	0.34420 0.70860 0.90950 0.08600
C 	C 	0.18620 0.94200 0.70740 -0.19200
H 	H 	0.20400 0.98830 0.66190 0.10500
C 	C 	0.32980 0.98300 0.84840 -0.22300
H 	H 	0.29680 0.93400 0.85680 0.10200
H 	H 	0.30060 0.00670 0.88340 0.09600
C 	C 	0.44880 0.60310 0.01750 -0.18700
H 	H 	0.38490 0.60160 0.03320 0.09400
C 	C 	0.79310 0.77630 0.76470 -0.00000
H 	H 	0.79170 0.73440 0.74740 0.04400
C 	C 	0.51630 0.55980 0.07190 0.08200
H 	H 	0.49740 0.52760 0.12330 0.01500
C 	C 	0.88640 0.85080 0.80790 -0.07100
H 	H 	0.94460 0.85990 0.81890 0.06200
C 	C 	0.87790 0.78910 0.78380 -0.04000
H 	H 	0.93170 0.75420 0.78020 0.06700
C 	C 	0.33770 0.24100 0.52200 -0.00000
H 	H 	0.36420 0.27760 0.47440 0.03900
C 	C 	0.44830 0.77290 0.62440 -0.03800
H 	H 	0.43830 0.74230 0.59720 0.05100
C 	C 	0.47790 0.85090 0.58610 -0.00300
H 	H 	0.49130 0.87170 0.53320 0.02800
C 	C 	0.24320 0.23960 0.53170 -0.04000
H 	H 	0.20660 0.27470 0.49020 0.06600
C 	C 	0.96380 0.33020 0.60810 0.41300
C 	C 	0.17380 0.70400 0.77920 0.34100
C 	C 	0.19490 0.86120 0.71190 0.10800
H 	H 	0.22090 0.85250 0.66940 0.00900
C 	C 	0.63830 0.61110 0.97170 0.08500
H 	H 	0.70210 0.61500 0.95560 0.01600
C 	C 	0.65690 0.11700 0.60390 0.06700
La	La	0.82336 0.45987 0.22945 1.63700
La	La	0.92848 0.48316 0.42067 1.68700
Ni	Ni	0.47973 0.98860 0.23904 1.06500
O 	O 	0.98610 0.62710 0.37290 -0.41600
O 	O 	0.09890 0.46790 0.47470 -0.35500
O 	O 	0.06620 0.64810 0.45620 -0.43100
O 	O 	0.86270 0.56820 0.29020 -0.36200
O 	O 	0.76180 0.61990 0.20110 -0.24400
O 	O 	0.34060 0.52650 0.82170 -0.35600
O 	O 	0.23070 0.45790 0.91100 -0.36600
O 	O 	0.92280 0.38900 0.35550 -0.37800
O 	O 	0.03250 0.26930 0.39130 -0.13500
O 	O 	0.09680 0.46630 0.36370 -0.24600
O 	O 	0.24560 0.48400 0.39870 -0.13100
O 	O 	0.79160 0.30390 0.28160 -0.36400
O 	O 	0.85300 0.35740 0.16200 -0.37500
O 	O 	0.98450 0.34750 0.27260 -0.22700
O 	O 	0.77930 0.70710 0.26620 -0.12900
N 	N 	0.97880 0.33670 0.34740 0.06400
N 	N 	0.13950 0.47370 0.41130 0.04900
N 	N 	0.80420 0.62660 0.25200 0.04600
O 	O 	0.75550 0.47110 0.43790 -0.41700
N 	N 	0.35300 0.05270 0.19390 -0.25000
C 	C 	0.30770 0.00720 0.17040 0.13700
N 	N 	0.52090 0.09640 0.24820 -0.24800
N 	N 	0.21420 0.03340 0.16450 -0.11900
N 	N 	0.44990 0.90800 0.18670 -0.13200
N 	N 	0.60720 0.91830 0.27840 -0.25000
N 	N 	0.40080 0.89820 0.32820 -0.25000
N 	N 	0.76450 0.91770 0.26300 -0.11500
N 	N 	0.35230 0.76610 0.37430 -0.11500
N 	N 	0.56910 0.22690 0.18200 -0.11800
N 	N 	0.56700 0.04690 0.13410 -0.13600
C 	C 	0.52820 0.13030 0.30090 0.06700
O 	O 	0.71320 0.44430 0.34370 -0.42000
C 	C 	0.11800 0.90990 0.21050 0.15400
C 	C 	0.09750 0.81570 0.34420 0.11700
H 	H 	0.10260 0.80430 0.39530 0.00600
C 	C 	0.31440 0.79990 0.42670 0.03400
C 	C 	0.67930 0.95130 0.23130 0.14300
C 	C 	0.86730 0.19460 0.15930 0.10000
H 	H 	0.88630 0.24090 0.11430 0.00400
C 	C 	0.38840 0.43520 0.95050 -0.13400
C 	C 	0.64700 0.85970 0.34990 0.06600
C 	C 	0.60600 0.52850 0.38900 -0.18100
C 	C 	0.40300 0.82640 0.31930 0.13800
C 	C 	0.28360 0.11210 0.20460 0.06300
C 	C 	0.54750 0.15460 0.17960 0.14000
C 	C 	0.58530 0.57090 0.43570 0.12000
H 	H 	0.62890 0.56550 0.47020 0.01200
C 	C 	0.74450 0.85870 0.34010 0.05000
C 	C 	0.50000 0.62140 0.43170 -0.20400
H 	H 	0.48770 0.65100 0.46220 0.11200
C 	C 	0.85040 0.04500 0.22710 0.15100
C 	C 	0.83330 0.20790 0.22320 -0.15500
C 	C 	0.33970 0.68140 0.37860 -0.19200
H 	H 	0.29940 0.65070 0.42390 0.10900
H 	H 	0.30840 0.68950 0.33360 0.09500
C 	C 	0.43360 0.62750 0.38250 0.17800
C 	C 	0.19680 0.10060 0.18480 0.04400
C 	C 	0.54880 0.14040 0.11040 -0.23000
H 	H 	0.48850 0.16190 0.08690 0.09400
H 	H 	0.59810 0.17060 0.07310 0.10300
C 	C 	0.85400 0.95450 0.22980 -0.17000
H 	H 	0.90520 0.91730 0.26060 0.09200
H 	H 	0.86590 0.95860 0.17800 0.08000
C 	C 	0.05500 0.77420 0.25200 0.12200
H 	H 	0.02910 0.73540 0.24020 0.00400
C 	C 	0.52390 0.35170 0.05950 0.15400
C 	C 	0.45410 0.81940 0.25050 -0.23100
H 	H 	0.42410 0.78140 0.23690 0.10700
H 	H 	0.51930 0.79640 0.26100 0.10300
C 	C 	0.23020 0.81860 0.52910 -0.04800
H 	H 	0.19310 0.79780 0.57500 0.07100
C 	C 	0.53860 0.01600 0.08090 -0.08600
H 	H 	0.48040 0.04860 0.05820 0.04600
H 	H 	0.58720 0.02500 0.03960 0.05100
C 	C 	0.55610 0.21320 0.25980 0.04200
C 	C 	0.12310 0.89160 0.28660 -0.20800
H 	H 	0.14450 0.93200 0.29910 0.11300
C 	C 	0.54020 0.53730 0.33800 0.12000
H 	H 	0.55320 0.50990 0.30570 0.00600
C 	C 	0.87360 0.11410 0.16140 -0.20800
H 	H 	0.89410 0.10700 0.11710 0.09200
C 	C 	0.14450 0.99420 0.14440 -0.17300
H 	H 	0.08810 0.03420 0.12940 0.08300
H 	H 	0.16950 0.98350 0.10050 0.07600
C 	C 	0.06370 0.75480 0.32710 -0.18200
C 	C 	0.69860 0.47770 0.38930 0.41000
C 	C 	0.35290 0.93440 0.15600 -0.21900
H 	H 	0.31460 0.88610 0.18080 0.10100
H 	H 	0.35780 0.95080 0.10100 0.09100
C 	C 	0.45390 0.58740 0.33520 -0.21100
H 	H 	0.41010 0.59330 0.30070 0.11100
C 	C 	0.42980 0.34890 0.08140 -0.18800
H 	H 	0.41130 0.31920 0.13330 0.10300
C 	C 	0.31510 0.47490 0.89120 0.31500
C 	C 	0.08320 0.84910 0.19280 -0.21200
H 	H 	0.07930 0.85950 0.14180 0.09600
C 	C 	0.60270 0.81070 0.41910 -0.11500
H 	H 	0.53720 0.81160 0.42630 0.06600
C 	C 	0.80180 0.81200 0.39900 -0.07100
H 	H 	0.86690 0.81440 0.39320 0.06600
C 	C 	0.28880 0.17620 0.22940 -0.11300
H 	H 	0.34600 0.18600 0.24130 0.06700
C 	C 	0.52420 0.92210 0.12270 -0.12000
H 	H 	0.58310 0.88920 0.14350 0.06600
H 	H 	0.50500 0.90240 0.08720 0.06400
C 	C 	0.25640 0.76700 0.49450 -0.06000
H 	H 	0.23710 0.71170 0.51450 0.06400
C 	C 	0.25670 0.90390 0.49840 0.00000
H 	H 	0.23620 0.93780 0.52430 0.03400
C 	C 	0.31320 0.93780 0.42980 -0.11700
H 	H 	0.32960 0.99420 0.40830 0.06300
C 	C 	0.51010 0.09660 0.37860 -0.11600
H 	H 	0.49070 0.04140 0.40670 0.06000
C 	C 	0.56830 0.26460 0.29580 -0.07100
H 	H 	0.58630 0.32040 0.26840 0.07400
C 	C 	0.59930 0.30610 0.11670 -0.17800
H 	H 	0.61550 0.34510 0.13620 0.09800
H 	H 	0.65580 0.29140 0.09050 0.08600
C 	C 	0.81380 0.05800 0.29260 -0.19200
H 	H 	0.79600 0.01170 0.33810 0.10500
C 	C 	0.67020 0.01700 0.15160 -0.22300
H 	H 	0.70320 0.06600 0.14320 0.10200
H 	H 	0.69940 0.99330 0.11660 0.09600
C 	C 	0.55120 0.39690 0.98250 -0.18700
H 	H 	0.61510 0.39840 0.96680 0.09400
C 	C 	0.20690 0.22370 0.23530 -0.00000
H 	H 	0.20830 0.26560 0.25260 0.04400
C 	C 	0.48370 0.44020 0.92810 0.08200
H 	H 	0.50260 0.47240 0.87670 0.01500
C 	C 	0.11360 0.14920 0.19210 -0.07100
H 	H 	0.05540 0.14010 0.18110 0.06200
C 	C 	0.12210 0.21090 0.21620 -0.04000
H 	H 	0.06830 0.24580 0.21980 0.06700
C 	C 	0.66230 0.75900 0.47800 -0.00000
H 	H 	0.63580 0.72240 0.52560 0.03900
C 	C 	0.55170 0.22710 0.37560 -0.03800
H 	H 	0.56170 0.25770 0.40280 0.05100
C 	C 	0.52210 0.14910 0.41390 -0.00300
H 	H 	0.50870 0.12830 0.46680 0.02800
C 	C 	0.75680 0.76040 0.46830 -0.04000
H 	H 	0.79340 0.72530 0.50980 0.06600
C 	C 	0.03620 0.66980 0.39190 0.41300
C 	C 	0.82620 0.29600 0.22080 0.34100
C 	C 	0.80510 0.13880 0.28810 0.10800
H 	H 	0.77910 0.14750 0.33060 0.00900
C 	C 	0.36170 0.38890 0.02830 0.08500
H 	H 	0.29790 0.38500 0.04440 0.01600
C 	C 	0.34310 0.88300 0.39610 0.06700
