data_crystal

_cell_length_a 8.26600
_cell_length_b 12.87400
_cell_length_c 15.70620
_cell_angle_alpha 114.19500
_cell_angle_beta  96.61650
_cell_angle_gamma 90.00000

_symmetry_space_group_name_	'P 1'
_symmetry_space_group_name_H-M	'P 1'

loop_
_symmetry_equiv_pos_as_xyz
  x,y,z

loop_
_atom_site_label
_atom_site_type_symbol
_atom_site_fract_x
_atom_site_fract_y
_atom_site_fract_z
_atom_site_charge
Co	Co	0.93339 0.38279 0.49484 1.13000
Co	Co	0.54361 0.38084 0.49186 1.14000
Co	Co	0.85619 0.25386 0.27218 1.15300
Co	Co	0.56661 0.88795 0.50516 1.13000
Co	Co	0.95639 0.88898 0.50814 1.13900
Co	Co	0.64381 0.98168 0.72782 1.15100
Co	Co	0.06661 0.61721 0.50516 1.13100
Co	Co	0.45639 0.61916 0.50814 1.14100
Co	Co	0.14381 0.74614 0.72782 1.15300
Co	Co	0.43339 0.11205 0.49484 1.13000
Co	Co	0.04361 0.11102 0.49186 1.13900
Co	Co	0.35619 0.01832 0.27218 1.15100
P 	P 	0.72380 0.48953 0.37030 0.58900
P 	P 	0.20520 0.22622 0.37252 0.55200
P 	P 	0.77620 0.11923 0.62970 0.58900
P 	P 	0.29480 0.85370 0.62748 0.55200
P 	P 	0.27620 0.51047 0.62970 0.58900
P 	P 	0.79480 0.77378 0.62748 0.55200
P 	P 	0.22380 0.88077 0.37030 0.58900
P 	P 	0.70520 0.14630 0.37252 0.55200
H 	H 	0.66470 0.64010 0.38040 0.26500
H 	H 	0.08630 0.24010 0.17260 0.13500
H 	H 	0.97790 0.15410 0.02260 0.00400
H 	H 	0.71740 0.29360 0.09440 0.07700
H 	H 	0.86580 0.33120 0.05760 0.08300
H 	H 	0.85890 0.01510 0.06100 0.07600
H 	H 	0.70990 0.09140 0.09320 0.06000
H 	H 	0.83530 0.25970 0.61960 0.26600
H 	H 	0.41370 0.06750 0.82740 0.13500
H 	H 	0.52210 0.13150 0.97740 0.01900
H 	H 	0.78260 0.19920 0.90560 0.06400
H 	H 	0.63420 0.27360 0.94240 0.06700
H 	H 	0.64110 0.95410 0.93900 0.03800
H 	H 	0.79010 0.99820 0.90680 0.02500
H 	H 	0.33530 0.35990 0.61960 0.26500
H 	H 	0.91370 0.75990 0.82740 0.13500
H 	H 	0.02210 0.84590 0.97740 0.00400
H 	H 	0.28260 0.70640 0.90560 0.07700
H 	H 	0.13420 0.66880 0.94240 0.08300
H 	H 	0.14110 0.98490 0.93900 0.07600
H 	H 	0.29010 0.90860 0.90680 0.06000
H 	H 	0.16470 0.74030 0.38040 0.26600
H 	H 	0.58630 0.93250 0.17260 0.13500
H 	H 	0.47790 0.86850 0.02260 0.01900
H 	H 	0.21740 0.80080 0.09440 0.06400
H 	H 	0.36580 0.72640 0.05760 0.06700
H 	H 	0.35890 0.04590 0.06100 0.03800
H 	H 	0.20990 0.00180 0.09320 0.02500
C 	C 	0.89640 0.17700 0.06660 0.08400
C 	C 	0.79500 0.26670 0.04920 -0.17200
C 	C 	0.79120 0.07090 0.04980 -0.18400
C 	C 	0.60360 0.11040 0.93340 0.03600
C 	C 	0.70500 0.21750 0.95080 -0.11800
C 	C 	0.70880 0.02110 0.95020 -0.07600
C 	C 	0.10360 0.82300 0.93340 0.08400
C 	C 	0.20500 0.73330 0.95080 -0.17200
C 	C 	0.20880 0.92910 0.95020 -0.18400
C 	C 	0.39640 0.88960 0.06660 0.03600
C 	C 	0.29500 0.78250 0.04920 -0.11800
C 	C 	0.29120 0.97890 0.04980 -0.07600
N 	N 	0.98280 0.22470 0.16300 -0.32300
N 	N 	0.51720 0.06170 0.83700 -0.31700
N 	N 	0.01720 0.77530 0.83700 -0.32300
N 	N 	0.48280 0.93830 0.16300 -0.31700
O 	O 	0.57830 0.48595 0.42070 -0.56900
O 	O 	0.88240 0.49640 0.43320 -0.60600
O 	O 	0.72050 0.38030 0.28160 -0.45500
O 	O 	0.71870 0.59120 0.34520 -0.47900
O 	O 	0.03650 0.27661 0.37602 -0.58100
O 	O 	0.22170 0.15760 0.43280 -0.62300
O 	O 	0.33300 0.32180 0.40620 -0.46500
O 	O 	0.22360 0.14580 0.27120 -0.46100
O 	O 	0.00840 0.28880 0.57340 -0.45300
O 	O 	0.92170 0.06525 0.57930 -0.56600
O 	O 	0.61760 0.06320 0.56680 -0.60600
O 	O 	0.77950 0.09870 0.71840 -0.45100
O 	O 	0.78130 0.24600 0.65480 -0.47800
O 	O 	0.46350 0.90059 0.62398 -0.58000
O 	O 	0.27830 0.72480 0.56720 -0.62200
O 	O 	0.16700 0.91560 0.59380 -0.46300
O 	O 	0.27640 0.87460 0.72880 -0.46100
O 	O 	0.49160 0.71540 0.42660 -0.45100
O 	O 	0.42170 0.51405 0.57930 -0.56900
O 	O 	0.11760 0.50360 0.56680 -0.60600
O 	O 	0.27950 0.61970 0.71840 -0.45500
O 	O 	0.28130 0.40880 0.65480 -0.47900
O 	O 	0.96350 0.72339 0.62398 -0.58100
O 	O 	0.77830 0.84240 0.56720 -0.62300
O 	O 	0.66700 0.67820 0.59380 -0.46500
O 	O 	0.77640 0.85420 0.72880 -0.46100
O 	O 	0.99160 0.71120 0.42660 -0.45300
O 	O 	0.07830 0.93475 0.42070 -0.56600
O 	O 	0.38240 0.93680 0.43320 -0.60600
O 	O 	0.22050 0.90130 0.28160 -0.45100
O 	O 	0.21870 0.75400 0.34520 -0.47800
O 	O 	0.53650 0.09941 0.37602 -0.58000
O 	O 	0.72170 0.27520 0.43280 -0.62200
O 	O 	0.83300 0.08440 0.40620 -0.46300
O 	O 	0.72360 0.12540 0.27120 -0.46100
O 	O 	0.50840 0.28460 0.57340 -0.45100
