data_crystal

_cell_length_a 6.32900
_cell_length_b 8.74300
_cell_length_c 13.00000
_cell_angle_alpha 105.61000
_cell_angle_beta  90.55000
_cell_angle_gamma 105.10000

_symmetry_space_group_name_	'P 1'
_symmetry_space_group_name_H-M	'P 1'

loop_
_symmetry_equiv_pos_as_xyz
  x,y,z

loop_
_atom_site_label
_atom_site_type_symbol
_atom_site_fract_x
_atom_site_fract_y
_atom_site_fract_z
_atom_site_charge
Ce	Ce	0.93974 0.96987 0.74275 2.13200
Ce	Ce	0.69037 0.33301 0.92472 2.16900
Ce	Ce	0.06026 0.03013 0.25725 2.13200
Ce	Ce	0.30963 0.66699 0.07528 2.16900
C 	C 	0.76740 0.60390 0.78090 0.23100
C 	C 	0.95570 0.69430 0.87050 0.24900
C 	C 	0.55400 0.94880 0.95450 0.26000
C 	C 	0.90630 0.91950 0.47840 0.22900
C 	C 	0.21460 0.29200 0.86900 0.60700
C 	C 	0.23260 0.39610 0.21910 0.23100
C 	C 	0.04430 0.30570 0.12950 0.24900
C 	C 	0.44600 0.05120 0.04550 0.26000
C 	C 	0.09370 0.08050 0.52160 0.22900
C 	C 	0.78540 0.70800 0.13100 0.60700
O 	O 	0.73510 0.68170 0.71630 -0.42000
O 	O 	0.66420 0.45880 0.77600 -0.37600
O 	O 	0.05510 0.83840 0.87390 -0.44500
O 	O 	0.99270 0.61350 0.93250 -0.53600
O 	O 	0.51940 0.79850 0.94450 -0.42800
O 	O 	0.67100 0.02830 0.89700 -0.54000
O 	O 	0.81430 0.85210 0.54580 -0.39900
O 	O 	0.85820 0.87180 0.37910 -0.38500
O 	O 	0.33810 0.43070 0.92390 -0.64400
O 	O 	0.01300 0.26900 0.83990 -0.68200
O 	O 	0.29690 0.16930 0.83980 -0.63200
O 	O 	0.63930 0.10290 0.70640 -0.39000
O 	O 	0.26490 0.31830 0.28370 -0.42000
O 	O 	0.33580 0.54120 0.22400 -0.37600
O 	O 	0.94490 0.16160 0.12610 -0.44500
O 	O 	0.00730 0.38650 0.06750 -0.53600
O 	O 	0.48060 0.20150 0.05550 -0.42800
O 	O 	0.32900 0.97170 0.10300 -0.54000
O 	O 	0.18570 0.14790 0.45420 -0.39900
O 	O 	0.14180 0.12820 0.62090 -0.38500
O 	O 	0.66190 0.56930 0.07610 -0.64400
O 	O 	0.98700 0.73100 0.16010 -0.68200
O 	O 	0.70310 0.83070 0.16020 -0.63200
O 	O 	0.36070 0.89710 0.29360 -0.39000
