data_crystal

_cell_length_a 9.87600
_cell_length_b 9.29500
_cell_length_c 22.59400
_cell_angle_alpha 90.00000
_cell_angle_beta  106.80000
_cell_angle_gamma 90.00000

_symmetry_space_group_name_	'P 1'
_symmetry_space_group_name_H-M	'P 1'

loop_
_symmetry_equiv_pos_as_xyz
  x,y,z

loop_
_atom_site_label
_atom_site_type_symbol
_atom_site_fract_x
_atom_site_fract_y
_atom_site_fract_z
_atom_site_charge
Cu	Cu	0.69374 0.87556 0.84682 0.83200
N 	N 	0.61190 0.91160 0.75670 -0.26000
C 	C 	0.48880 0.85650 0.72370 0.07700
H 	H 	0.44770 0.78640 0.74220 -0.03000
C 	C 	0.60360 0.05700 0.66800 -0.16300
H 	H 	0.64890 0.12550 0.65040 0.07200
C 	C 	0.41830 0.89590 0.66420 -0.14600
H 	H 	0.33300 0.85200 0.64360 0.07600
C 	C 	0.47510 0.00230 0.63450 0.05400
C 	C 	0.40280 0.04650 0.56940 0.05200
C 	C 	0.39150 0.19350 0.48280 0.04200
N 	N 	0.28260 0.97360 0.53870 -0.12500
C 	C 	0.26860 0.11900 0.45070 -0.11400
H 	H 	0.22230 0.14410 0.41000 0.06100
C 	C 	0.21540 0.00920 0.47830 0.05400
C 	C 	0.08780 0.92290 0.44540 0.06500
C 	C 	0.00370 0.95730 0.38660 -0.14100
H 	H 	0.02480 0.03620 0.36560 0.06500
C 	C 	0.93230 0.72590 0.44330 0.07800
H 	H 	0.90790 0.64790 0.46390 -0.03100
C 	C 	0.88730 0.87120 0.35990 0.07400
H 	H 	0.82980 0.89740 0.32100 -0.02600
N 	N 	0.85200 0.75320 0.38610 -0.26000
N 	N 	0.58430 0.51080 0.39500 -0.25000
C 	C 	0.66500 0.01100 0.72700 0.08200
H 	H 	0.75100 0.05240 0.74830 -0.03700
C 	C 	0.45550 0.15420 0.54230 -0.12600
H 	H 	0.53680 0.20220 0.56470 0.06200
C 	C 	0.04890 0.80540 0.47400 -0.14300
H 	H 	0.10130 0.78000 0.51380 0.07900
C 	C 	0.45420 0.30750 0.45280 0.06600
C 	C 	0.38150 0.37180 0.39710 -0.14300
H 	H 	0.28760 0.34780 0.37810 0.06900
C 	C 	0.44870 0.47090 0.37040 0.07400
H 	H 	0.39770 0.51270 0.33320 -0.02500
C 	C 	0.65070 0.45100 0.44910 0.08200
H 	H 	0.74330 0.47960 0.46820 -0.02800
C 	C 	0.59270 0.35100 0.47860 -0.14400
H 	H 	0.64610 0.31210 0.51600 0.07900
Cu	Cu	0.69374 0.62444 0.34682 0.83100
N 	N 	0.61190 0.58840 0.25670 -0.26100
C 	C 	0.48880 0.64350 0.22370 0.07600
H 	H 	0.44770 0.71360 0.24220 -0.03100
C 	C 	0.60360 0.44300 0.16800 -0.16300
H 	H 	0.64890 0.37450 0.15040 0.07200
C 	C 	0.41830 0.60410 0.16420 -0.14600
H 	H 	0.33300 0.64800 0.14360 0.07600
C 	C 	0.47510 0.49770 0.13450 0.05300
C 	C 	0.40280 0.45350 0.06940 0.05300
C 	C 	0.39150 0.30650 0.98280 0.04200
N 	N 	0.28260 0.52640 0.03870 -0.12600
C 	C 	0.26860 0.38100 0.95070 -0.11500
H 	H 	0.22230 0.35590 0.91000 0.06200
C 	C 	0.21540 0.49080 0.97830 0.05600
C 	C 	0.08780 0.57710 0.94540 0.06600
C 	C 	0.00370 0.54270 0.88660 -0.14700
H 	H 	0.02480 0.46380 0.86560 0.06900
C 	C 	0.93230 0.77410 0.94330 0.07900
H 	H 	0.90790 0.85210 0.96390 -0.03100
C 	C 	0.88730 0.62880 0.85990 0.07800
H 	H 	0.82980 0.60260 0.82100 -0.02700
N 	N 	0.85200 0.74680 0.88610 -0.26100
N 	N 	0.58430 0.98920 0.89500 -0.25000
C 	C 	0.66500 0.48900 0.22700 0.08200
H 	H 	0.75100 0.44760 0.24830 -0.03800
C 	C 	0.45550 0.34580 0.04230 -0.12700
H 	H 	0.53680 0.29780 0.06470 0.06200
C 	C 	0.04890 0.69460 0.97400 -0.14400
H 	H 	0.10130 0.72000 0.01380 0.07900
C 	C 	0.45420 0.19250 0.95280 0.06500
C 	C 	0.38150 0.12820 0.89710 -0.14200
H 	H 	0.28760 0.15220 0.87810 0.06800
C 	C 	0.44870 0.02910 0.87040 0.07300
H 	H 	0.39770 0.98730 0.83320 -0.02400
C 	C 	0.65070 0.04900 0.94910 0.08200
H 	H 	0.74330 0.02040 0.96820 -0.02700
C 	C 	0.59270 0.14900 0.97860 -0.14400
H 	H 	0.64610 0.18790 0.01600 0.07900
Cu	Cu	0.30626 0.37556 0.65318 0.83100
N 	N 	0.38810 0.41160 0.74330 -0.26100
C 	C 	0.51120 0.35650 0.77630 0.07600
H 	H 	0.55230 0.28640 0.75780 -0.03100
C 	C 	0.39640 0.55700 0.83200 -0.16300
H 	H 	0.35110 0.62550 0.84960 0.07200
C 	C 	0.58170 0.39590 0.83580 -0.14600
H 	H 	0.66700 0.35200 0.85640 0.07600
C 	C 	0.52490 0.50230 0.86550 0.05300
C 	C 	0.59720 0.54650 0.93060 0.05300
C 	C 	0.60850 0.69350 0.01720 0.04200
N 	N 	0.71740 0.47360 0.96130 -0.12600
C 	C 	0.73140 0.61900 0.04930 -0.11500
H 	H 	0.77770 0.64410 0.09000 0.06200
C 	C 	0.78460 0.50920 0.02170 0.05600
C 	C 	0.91220 0.42290 0.05460 0.06600
C 	C 	0.99630 0.45730 0.11340 -0.14700
H 	H 	0.97520 0.53620 0.13440 0.06900
C 	C 	0.06770 0.22590 0.05670 0.07900
H 	H 	0.09210 0.14790 0.03610 -0.03100
C 	C 	0.11270 0.37120 0.14010 0.07800
H 	H 	0.17020 0.39740 0.17900 -0.02700
N 	N 	0.14800 0.25320 0.11390 -0.26100
N 	N 	0.41570 0.01080 0.10500 -0.25000
C 	C 	0.33500 0.51100 0.77300 0.08200
H 	H 	0.24900 0.55240 0.75170 -0.03800
C 	C 	0.54450 0.65420 0.95770 -0.12700
H 	H 	0.46320 0.70220 0.93530 0.06200
C 	C 	0.95110 0.30540 0.02600 -0.14400
H 	H 	0.89870 0.28000 0.98620 0.07900
C 	C 	0.54580 0.80750 0.04720 0.06500
C 	C 	0.61850 0.87180 0.10290 -0.14200
H 	H 	0.71240 0.84780 0.12190 0.06800
C 	C 	0.55130 0.97090 0.12960 0.07300
H 	H 	0.60230 0.01270 0.16680 -0.02400
C 	C 	0.34930 0.95100 0.05090 0.08200
H 	H 	0.25670 0.97960 0.03180 -0.02700
C 	C 	0.40730 0.85100 0.02140 -0.14400
H 	H 	0.35390 0.81210 0.98400 0.07900
Cu	Cu	0.30626 0.12444 0.15318 0.83100
N 	N 	0.38810 0.08840 0.24330 -0.26100
C 	C 	0.51120 0.14350 0.27630 0.07600
H 	H 	0.55230 0.21360 0.25780 -0.03100
C 	C 	0.39640 0.94300 0.33200 -0.16300
H 	H 	0.35110 0.87450 0.34960 0.07200
C 	C 	0.58170 0.10410 0.33580 -0.14600
H 	H 	0.66700 0.14800 0.35640 0.07600
C 	C 	0.52490 0.99770 0.36550 0.05400
C 	C 	0.59720 0.95350 0.43060 0.05200
C 	C 	0.60850 0.80650 0.51720 0.04200
N 	N 	0.71740 0.02640 0.46130 -0.12500
C 	C 	0.73140 0.88100 0.54930 -0.11400
H 	H 	0.77770 0.85590 0.59000 0.06100
C 	C 	0.78460 0.99080 0.52170 0.05400
C 	C 	0.91220 0.07710 0.55460 0.06500
C 	C 	0.99630 0.04270 0.61340 -0.14100
H 	H 	0.97520 0.96380 0.63440 0.06500
C 	C 	0.06770 0.27410 0.55670 0.07800
H 	H 	0.09210 0.35210 0.53610 -0.03100
C 	C 	0.11270 0.12880 0.64010 0.07400
H 	H 	0.17020 0.10260 0.67900 -0.02600
N 	N 	0.14800 0.24680 0.61390 -0.26000
N 	N 	0.41570 0.48920 0.60500 -0.25000
C 	C 	0.33500 0.98900 0.27300 0.08200
H 	H 	0.24900 0.94760 0.25170 -0.03700
C 	C 	0.54450 0.84580 0.45770 -0.12600
H 	H 	0.46320 0.79780 0.43530 0.06200
C 	C 	0.95110 0.19460 0.52600 -0.14300
H 	H 	0.89870 0.22000 0.48620 0.07900
C 	C 	0.54580 0.69250 0.54720 0.06600
C 	C 	0.61850 0.62820 0.60290 -0.14300
H 	H 	0.71240 0.65220 0.62190 0.06900
C 	C 	0.55130 0.52910 0.62960 0.07400
H 	H 	0.60230 0.48730 0.66680 -0.02500
C 	C 	0.34930 0.54900 0.55090 0.08200
H 	H 	0.25670 0.52040 0.53180 -0.02800
C 	C 	0.40730 0.64900 0.52140 -0.14400
H 	H 	0.35390 0.68790 0.48400 0.07900
