data_crystal

_cell_length_a 9.39900
_cell_length_b 9.84800
_cell_length_c 21.83400
_cell_angle_alpha 90.00000
_cell_angle_beta  102.09000
_cell_angle_gamma 90.00000

_symmetry_space_group_name_	'P 1'
_symmetry_space_group_name_H-M	'P 1'

loop_
_symmetry_equiv_pos_as_xyz
  x,y,z

loop_
_atom_site_label
_atom_site_type_symbol
_atom_site_fract_x
_atom_site_fract_y
_atom_site_fract_z
_atom_site_charge
Cu	Cu	0.21073 0.13988 0.33778 0.82600
N 	N 	0.36280 0.26860 0.37740 -0.25800
N 	N 	0.10170 0.01810 0.39110 -0.24500
N 	N 	0.11830 0.40890 0.74930 -0.25300
N 	N 	0.78240 0.48330 0.53500 -0.12400
C 	C 	0.43220 0.24320 0.43740 0.06200
H 	H 	0.40370 0.16800 0.45760 -0.02400
C 	C 	0.54370 0.32410 0.46980 -0.12800
H 	H 	0.58550 0.30420 0.51130 0.07600
C 	C 	0.59370 0.43560 0.44050 0.05500
C 	C 	0.52180 0.46060 0.37850 -0.13900
H 	H 	0.54900 0.53400 0.35680 0.06600
C 	C 	0.40940 0.37530 0.34960 0.07500
H 	H 	0.36410 0.39390 0.30830 -0.03000
C 	C 	0.71970 0.52090 0.47470 0.05900
C 	C 	0.89970 0.55770 0.56680 0.05600
C 	C 	0.95400 0.66640 0.54060 -0.12600
H 	H 	0.03270 0.71400 0.56370 0.06100
C 	C 	0.89290 0.70650 0.48000 0.04300
C 	C 	0.77120 0.63430 0.44700 -0.11300
H 	H 	0.72520 0.66170 0.40700 0.06200
C 	C 	0.95910 0.81930 0.45080 0.05700
C 	C 	0.10580 0.85230 0.47190 -0.13600
H 	H 	0.16050 0.80830 0.50660 0.07700
C 	C 	0.17060 0.95110 0.44080 0.07800
H 	H 	0.26840 0.97090 0.45610 -0.02600
C 	C 	0.96060 0.99190 0.37160 0.06700
H 	H 	0.90860 0.04160 0.33800 -0.02400
C 	C 	0.88660 0.89360 0.39880 -0.13400
H 	H 	0.78860 0.87720 0.38230 0.06300
C 	C 	0.97340 0.50820 0.63080 0.04500
C 	C 	0.91660 0.40230 0.66040 -0.13400
H 	H 	0.82910 0.36200 0.64130 0.07500
C 	C 	0.99090 0.35670 0.71870 0.06400
H 	H 	0.95020 0.28610 0.73750 -0.02500
C 	C 	0.17230 0.51410 0.72100 0.06100
H 	H 	0.25970 0.55320 0.74120 -0.03200
C 	C 	0.10330 0.56560 0.66370 -0.14300
H 	H 	0.14350 0.63930 0.64680 0.06500
Cu	Cu	0.21073 0.36012 0.83778 0.82700
N 	N 	0.36280 0.23140 0.87740 -0.25700
N 	N 	0.10170 0.48190 0.89110 -0.24300
N 	N 	0.11830 0.09110 0.24930 -0.25300
N 	N 	0.78240 0.01670 0.03500 -0.12300
C 	C 	0.43220 0.25680 0.93740 0.06200
H 	H 	0.40370 0.33200 0.95760 -0.02400
C 	C 	0.54370 0.17590 0.96980 -0.12900
H 	H 	0.58550 0.19580 0.01130 0.07600
C 	C 	0.59370 0.06440 0.94050 0.05600
C 	C 	0.52180 0.03940 0.87850 -0.13900
H 	H 	0.54900 0.96600 0.85680 0.06600
C 	C 	0.40940 0.12470 0.84960 0.07500
H 	H 	0.36410 0.10610 0.80830 -0.03000
C 	C 	0.71970 0.97910 0.97470 0.05700
C 	C 	0.89970 0.94230 0.06680 0.05500
C 	C 	0.95400 0.83360 0.04060 -0.12400
H 	H 	0.03270 0.78600 0.06370 0.06000
C 	C 	0.89290 0.79350 0.98000 0.04100
C 	C 	0.77120 0.86570 0.94700 -0.11200
H 	H 	0.72520 0.83830 0.90700 0.06100
C 	C 	0.95910 0.68070 0.95080 0.05600
C 	C 	0.10580 0.64770 0.97190 -0.13400
H 	H 	0.16050 0.69170 0.00660 0.07600
C 	C 	0.17060 0.54890 0.94080 0.07600
H 	H 	0.26840 0.52910 0.95610 -0.02600
C 	C 	0.96060 0.50810 0.87160 0.06800
H 	H 	0.90860 0.45840 0.83800 -0.02500
C 	C 	0.88660 0.60640 0.89880 -0.13400
H 	H 	0.78860 0.62280 0.88230 0.06300
C 	C 	0.97340 0.99180 0.13080 0.04400
C 	C 	0.91660 0.09770 0.16040 -0.13300
H 	H 	0.82910 0.13800 0.14130 0.07500
C 	C 	0.99090 0.14330 0.21870 0.06500
H 	H 	0.95020 0.21390 0.23750 -0.02500
C 	C 	0.17230 0.98590 0.22100 0.06100
H 	H 	0.25970 0.94680 0.24120 -0.03200
C 	C 	0.10330 0.93440 0.16370 -0.14300
H 	H 	0.14350 0.86070 0.14680 0.06500
Cu	Cu	0.78927 0.63988 0.16222 0.82700
N 	N 	0.63720 0.76860 0.12260 -0.25700
N 	N 	0.89830 0.51810 0.10890 -0.24300
N 	N 	0.88170 0.90890 0.75070 -0.25300
N 	N 	0.21760 0.98330 0.96500 -0.12300
C 	C 	0.56780 0.74320 0.06260 0.06200
H 	H 	0.59630 0.66800 0.04240 -0.02400
C 	C 	0.45630 0.82410 0.03020 -0.12900
H 	H 	0.41450 0.80420 0.98870 0.07600
C 	C 	0.40630 0.93560 0.05950 0.05600
C 	C 	0.47820 0.96060 0.12150 -0.13900
H 	H 	0.45100 0.03400 0.14320 0.06600
C 	C 	0.59060 0.87530 0.15040 0.07500
H 	H 	0.63590 0.89390 0.19170 -0.03000
C 	C 	0.28030 0.02090 0.02530 0.05700
C 	C 	0.10030 0.05770 0.93320 0.05500
C 	C 	0.04600 0.16640 0.95940 -0.12400
H 	H 	0.96730 0.21400 0.93630 0.06000
C 	C 	0.10710 0.20650 0.02000 0.04100
C 	C 	0.22880 0.13430 0.05300 -0.11200
H 	H 	0.27480 0.16170 0.09300 0.06100
C 	C 	0.04090 0.31930 0.04920 0.05600
C 	C 	0.89420 0.35230 0.02810 -0.13400
H 	H 	0.83950 0.30830 0.99340 0.07600
C 	C 	0.82940 0.45110 0.05920 0.07600
H 	H 	0.73160 0.47090 0.04390 -0.02600
C 	C 	0.03940 0.49190 0.12840 0.06800
H 	H 	0.09140 0.54160 0.16200 -0.02500
C 	C 	0.11340 0.39360 0.10120 -0.13400
H 	H 	0.21140 0.37720 0.11770 0.06300
C 	C 	0.02660 0.00820 0.86920 0.04400
C 	C 	0.08340 0.90230 0.83960 -0.13300
H 	H 	0.17090 0.86200 0.85870 0.07500
C 	C 	0.00910 0.85670 0.78130 0.06500
H 	H 	0.04980 0.78610 0.76250 -0.02500
C 	C 	0.82770 0.01410 0.77900 0.06100
H 	H 	0.74030 0.05320 0.75880 -0.03200
C 	C 	0.89670 0.06560 0.83630 -0.14300
H 	H 	0.85650 0.13930 0.85320 0.06500
Cu	Cu	0.78927 0.86012 0.66222 0.82700
N 	N 	0.63720 0.73140 0.62260 -0.25700
N 	N 	0.89830 0.98190 0.60890 -0.24400
N 	N 	0.88170 0.59110 0.25070 -0.25200
N 	N 	0.21760 0.51670 0.46500 -0.12400
C 	C 	0.56780 0.75680 0.56260 0.06200
H 	H 	0.59630 0.83200 0.54240 -0.02400
C 	C 	0.45630 0.67590 0.53020 -0.12800
H 	H 	0.41450 0.69580 0.48870 0.07600
C 	C 	0.40630 0.56440 0.55950 0.05500
C 	C 	0.47820 0.53940 0.62150 -0.13900
H 	H 	0.45100 0.46600 0.64320 0.06600
C 	C 	0.59060 0.62470 0.65040 0.07500
H 	H 	0.63590 0.60610 0.69170 -0.03000
C 	C 	0.28030 0.47910 0.52530 0.05900
C 	C 	0.10030 0.44230 0.43320 0.05600
C 	C 	0.04600 0.33360 0.45940 -0.12600
H 	H 	0.96730 0.28600 0.43630 0.06100
C 	C 	0.10710 0.29350 0.52000 0.04300
C 	C 	0.22880 0.36570 0.55300 -0.11300
H 	H 	0.27480 0.33830 0.59300 0.06200
C 	C 	0.04090 0.18070 0.54920 0.05700
C 	C 	0.89420 0.14770 0.52810 -0.13600
H 	H 	0.83950 0.19170 0.49340 0.07700
C 	C 	0.82940 0.04890 0.55920 0.07800
H 	H 	0.73160 0.02910 0.54390 -0.02600
C 	C 	0.03940 0.00810 0.62840 0.06700
H 	H 	0.09140 0.95840 0.66200 -0.02400
C 	C 	0.11340 0.10640 0.60120 -0.13400
H 	H 	0.21140 0.12280 0.61770 0.06300
C 	C 	0.02660 0.49180 0.36920 0.04500
C 	C 	0.08340 0.59770 0.33960 -0.13400
H 	H 	0.17090 0.63800 0.35870 0.07500
C 	C 	0.00910 0.64330 0.28130 0.06400
H 	H 	0.04980 0.71390 0.26250 -0.02500
C 	C 	0.82770 0.48590 0.27900 0.06100
H 	H 	0.74030 0.44680 0.25880 -0.03200
C 	C 	0.89670 0.43440 0.33630 -0.14300
H 	H 	0.85650 0.36070 0.35320 0.06500
