data_crystal

_cell_length_a 9.93000
_cell_length_b 9.34450
_cell_length_c 22.71700
_cell_angle_alpha 90.00000
_cell_angle_beta  106.94000
_cell_angle_gamma 90.00000

_symmetry_space_group_name_	'P 1'
_symmetry_space_group_name_H-M	'P 1'

loop_
_symmetry_equiv_pos_as_xyz
  x,y,z

loop_
_atom_site_label
_atom_site_type_symbol
_atom_site_fract_x
_atom_site_fract_y
_atom_site_fract_z
_atom_site_charge
Cu	Cu	0.19384 0.12252 0.84733 0.83000
N 	N 	0.35190 0.25310 0.88620 -0.25800
N 	N 	0.11240 0.41280 0.25790 -0.25900
N 	N 	0.08570 0.01150 0.89500 -0.24500
N 	N 	0.78230 0.47370 0.03880 -0.12500
C 	C 	0.38790 0.37030 0.86040 0.07800
H 	H 	0.33060 0.39660 0.82180 -0.02600
C 	C 	0.50310 0.45500 0.88670 -0.14000
H 	H 	0.52450 0.53190 0.86510 0.06700
C 	C 	0.58920 0.42380 0.94730 0.05500
C 	C 	0.54730 0.30410 0.97370 -0.13200
H 	H 	0.59840 0.27810 0.01350 0.07400
C 	C 	0.43230 0.22240 0.94300 0.07000
H 	H 	0.41000 0.14250 0.96270 -0.02900
C 	C 	0.71690 0.51000 0.97780 0.06100
C 	C 	0.76880 0.61860 0.95070 -0.12300
H 	H 	0.72270 0.64480 0.91040 0.06500
C 	C 	0.89150 0.69090 0.98350 0.05100
C 	C 	0.95490 0.65210 0.04280 -0.13100
H 	H 	0.03550 0.70030 0.06520 0.06300
C 	C 	0.90370 0.54550 0.06990 0.05400
C 	C 	0.95230 0.80460 0.95360 0.04800
C 	C 	0.88120 0.86830 0.89770 -0.12500
H 	H 	0.78830 0.84340 0.87800 0.06300
C 	C 	0.94870 0.96860 0.87130 0.05800
H 	H 	0.89660 0.01020 0.83460 -0.01800
C 	C 	0.09040 0.85120 0.97900 -0.12200
H 	H 	0.14330 0.81370 0.01650 0.07100
C 	C 	0.97590 0.49960 0.13510 0.05500
C 	C 	0.91780 0.39850 0.16420 -0.14400
H 	H 	0.83110 0.35790 0.14410 0.07500
C 	C 	0.98900 0.35710 0.22380 0.06800
H 	H 	0.94860 0.28550 0.24150 -0.02700
C 	C 	0.16340 0.51260 0.22800 0.07800
H 	H 	0.24830 0.55480 0.24950 -0.03600
C 	C 	0.10290 0.55930 0.16860 -0.16100
H 	H 	0.14640 0.62930 0.15140 0.07100
C 	C 	0.15120 0.95200 0.94980 0.06300
H 	H 	0.24310 0.98040 0.96940 -0.02000
Cu	Cu	0.19384 0.37748 0.34733 0.83100
N 	N 	0.35190 0.24690 0.38620 -0.25700
N 	N 	0.11240 0.08720 0.75790 -0.25900
N 	N 	0.08570 0.48850 0.39500 -0.24500
N 	N 	0.78230 0.02630 0.53880 -0.12600
C 	C 	0.38790 0.12970 0.36040 0.07800
H 	H 	0.33060 0.10340 0.32180 -0.02600
C 	C 	0.50310 0.04500 0.38670 -0.13900
H 	H 	0.52450 0.96810 0.36510 0.06600
C 	C 	0.58920 0.07620 0.44730 0.05500
C 	C 	0.54730 0.19590 0.47370 -0.13200
H 	H 	0.59840 0.22190 0.51350 0.07400
C 	C 	0.43230 0.27760 0.44300 0.07000
H 	H 	0.41000 0.35750 0.46270 -0.02900
C 	C 	0.71690 0.99000 0.47780 0.06100
C 	C 	0.76880 0.88140 0.45070 -0.12300
H 	H 	0.72270 0.85520 0.41040 0.06500
C 	C 	0.89150 0.80910 0.48350 0.05200
C 	C 	0.95490 0.84790 0.54280 -0.13300
H 	H 	0.03550 0.79970 0.56520 0.06500
C 	C 	0.90370 0.95450 0.56990 0.05500
C 	C 	0.95230 0.69540 0.45360 0.04900
C 	C 	0.88120 0.63170 0.39770 -0.12600
H 	H 	0.78830 0.65660 0.37800 0.06300
C 	C 	0.94870 0.53140 0.37130 0.05900
H 	H 	0.89660 0.48980 0.33460 -0.01800
C 	C 	0.09040 0.64880 0.47900 -0.12400
H 	H 	0.14330 0.68630 0.51650 0.07200
C 	C 	0.97590 0.00040 0.63510 0.05400
C 	C 	0.91780 0.10150 0.66420 -0.14300
H 	H 	0.83110 0.14210 0.64410 0.07500
C 	C 	0.98900 0.14290 0.72380 0.06800
H 	H 	0.94860 0.21450 0.74150 -0.02700
C 	C 	0.16340 0.98740 0.72800 0.07800
H 	H 	0.24830 0.94520 0.74950 -0.03600
C 	C 	0.10290 0.94070 0.66860 -0.16000
H 	H 	0.14640 0.87070 0.65140 0.07100
C 	C 	0.15120 0.54800 0.44980 0.06400
H 	H 	0.24310 0.51960 0.46940 -0.02000
Cu	Cu	0.80616 0.62252 0.65267 0.83100
N 	N 	0.64810 0.75310 0.61380 -0.25700
N 	N 	0.88760 0.91280 0.24210 -0.25900
N 	N 	0.91430 0.51150 0.60500 -0.24500
N 	N 	0.21770 0.97370 0.46120 -0.12600
C 	C 	0.61210 0.87030 0.63960 0.07800
H 	H 	0.66940 0.89660 0.67820 -0.02600
C 	C 	0.49690 0.95500 0.61330 -0.13900
H 	H 	0.47550 0.03190 0.63490 0.06600
C 	C 	0.41080 0.92380 0.55270 0.05500
C 	C 	0.45270 0.80410 0.52630 -0.13200
H 	H 	0.40160 0.77810 0.48650 0.07400
C 	C 	0.56770 0.72240 0.55700 0.07000
H 	H 	0.59000 0.64250 0.53730 -0.02900
C 	C 	0.28310 0.01000 0.52220 0.06100
C 	C 	0.23120 0.11860 0.54930 -0.12300
H 	H 	0.27730 0.14480 0.58960 0.06500
C 	C 	0.10850 0.19090 0.51650 0.05200
C 	C 	0.04510 0.15210 0.45720 -0.13300
H 	H 	0.96450 0.20030 0.43480 0.06500
C 	C 	0.09630 0.04550 0.43010 0.05500
C 	C 	0.04770 0.30460 0.54640 0.04900
C 	C 	0.11880 0.36830 0.60230 -0.12600
H 	H 	0.21170 0.34340 0.62200 0.06300
C 	C 	0.05130 0.46860 0.62870 0.05900
H 	H 	0.10340 0.51020 0.66540 -0.01800
C 	C 	0.90960 0.35120 0.52100 -0.12400
H 	H 	0.85670 0.31370 0.48350 0.07200
C 	C 	0.02410 0.99960 0.36490 0.05400
C 	C 	0.08220 0.89850 0.33580 -0.14300
H 	H 	0.16890 0.85790 0.35590 0.07500
C 	C 	0.01100 0.85710 0.27620 0.06800
H 	H 	0.05140 0.78550 0.25850 -0.02700
C 	C 	0.83660 0.01260 0.27200 0.07800
H 	H 	0.75170 0.05480 0.25050 -0.03600
C 	C 	0.89710 0.05930 0.33140 -0.16000
H 	H 	0.85360 0.12930 0.34860 0.07100
C 	C 	0.84880 0.45200 0.55020 0.06400
H 	H 	0.75690 0.48040 0.53060 -0.02000
Cu	Cu	0.80616 0.87748 0.15267 0.83100
N 	N 	0.64810 0.74690 0.11380 -0.25700
N 	N 	0.88760 0.58720 0.74210 -0.25900
N 	N 	0.91430 0.98850 0.10500 -0.24500
N 	N 	0.21770 0.52630 0.96120 -0.12500
C 	C 	0.61210 0.62970 0.13960 0.07800
H 	H 	0.66940 0.60340 0.17820 -0.02600
C 	C 	0.49690 0.54500 0.11330 -0.14000
H 	H 	0.47550 0.46810 0.13490 0.06700
C 	C 	0.41080 0.57620 0.05270 0.05500
C 	C 	0.45270 0.69590 0.02630 -0.13200
H 	H 	0.40160 0.72190 0.98650 0.07400
C 	C 	0.56770 0.77760 0.05700 0.07000
H 	H 	0.59000 0.85750 0.03730 -0.02900
C 	C 	0.28310 0.49000 0.02220 0.06100
C 	C 	0.23120 0.38140 0.04930 -0.12300
H 	H 	0.27730 0.35520 0.08960 0.06500
C 	C 	0.10850 0.30910 0.01650 0.05100
C 	C 	0.04510 0.34790 0.95720 -0.13100
H 	H 	0.96450 0.29970 0.93480 0.06300
C 	C 	0.09630 0.45450 0.93010 0.05400
C 	C 	0.04770 0.19540 0.04640 0.04800
C 	C 	0.11880 0.13170 0.10230 -0.12500
H 	H 	0.21170 0.15660 0.12200 0.06300
C 	C 	0.05130 0.03140 0.12870 0.05800
H 	H 	0.10340 0.98980 0.16540 -0.01800
C 	C 	0.90960 0.14880 0.02100 -0.12200
H 	H 	0.85670 0.18630 0.98350 0.07100
C 	C 	0.02410 0.50040 0.86490 0.05500
C 	C 	0.08220 0.60150 0.83580 -0.14400
H 	H 	0.16890 0.64210 0.85590 0.07500
C 	C 	0.01100 0.64290 0.77620 0.06800
H 	H 	0.05140 0.71450 0.75850 -0.02700
C 	C 	0.83660 0.48740 0.77200 0.07800
H 	H 	0.75170 0.44520 0.75050 -0.03600
C 	C 	0.89710 0.44070 0.83140 -0.16100
H 	H 	0.85360 0.37070 0.84860 0.07100
C 	C 	0.84880 0.04800 0.05020 0.06300
H 	H 	0.75690 0.01960 0.03060 -0.02000
