data_crystal

_cell_length_a 9.41160
_cell_length_b 13.29670
_cell_length_c 14.93650
_cell_angle_alpha 90.00000
_cell_angle_beta  98.01900
_cell_angle_gamma 90.00000

_symmetry_space_group_name_	'P 1'
_symmetry_space_group_name_H-M	'P 1'

loop_
_symmetry_equiv_pos_as_xyz
  x,y,z

loop_
_atom_site_label
_atom_site_type_symbol
_atom_site_fract_x
_atom_site_fract_y
_atom_site_fract_z
_atom_site_charge
Zn	Zn	0.03224 0.86839 0.65580 1.24500
O 	O 	0.87831 0.93992 0.57346 -0.37100
O 	O 	0.75290 0.88346 0.67771 -0.26100
O 	O 	0.80034 0.07416 0.38906 -0.40500
O 	O 	0.82316 0.16056 0.51950 -0.24800
C 	C 	0.62820 0.97078 0.55241 -0.01900
C 	C 	0.63020 0.04428 0.48554 -0.02700
C 	C 	0.49760 0.92813 0.56651 -0.00600
H 	H 	0.49630 0.87920 0.61270 0.07500
C 	C 	0.76150 0.92954 0.60636 0.30400
C 	C 	0.76430 0.09738 0.46576 0.33300
O 	O 	0.20752 0.67090 0.66424 -0.24200
O 	O 	0.98353 0.72814 0.62750 -0.39000
O 	O 	0.95309 0.37636 0.71149 -0.39300
O 	O 	0.96070 0.54056 0.73844 -0.25100
C 	C 	0.04020 0.57553 0.56367 -0.02400
C 	C 	0.05760 0.58931 0.47342 -0.01000
H 	H 	0.09730 0.65040 0.45520 0.08200
C 	C 	0.98240 0.48514 0.59029 -0.02000
C 	C 	0.08230 0.66294 0.62596 0.32300
C 	C 	0.96420 0.46679 0.68687 0.30600
Zn	Zn	0.96776 0.36839 0.84420 1.24400
O 	O 	0.12169 0.43992 0.92654 -0.37400
O 	O 	0.24710 0.38346 0.82229 -0.26300
O 	O 	0.19966 0.57416 0.11094 -0.40300
O 	O 	0.17684 0.66056 0.98050 -0.24400
C 	C 	0.37180 0.47078 0.94759 -0.02100
C 	C 	0.36980 0.54428 0.01446 -0.02500
C 	C 	0.50240 0.42813 0.93349 -0.00700
H 	H 	0.50370 0.37920 0.88730 0.07500
C 	C 	0.23850 0.42954 0.89364 0.30500
C 	C 	0.23570 0.59738 0.03424 0.33000
O 	O 	0.79248 0.17090 0.83576 -0.24100
O 	O 	0.01647 0.22814 0.87250 -0.38300
O 	O 	0.04691 0.87636 0.78851 -0.38900
O 	O 	0.03930 0.04056 0.76156 -0.23700
C 	C 	0.95980 0.07553 0.93633 -0.03100
C 	C 	0.94240 0.08931 0.02658 -0.00800
H 	H 	0.90270 0.15040 0.04480 0.08200
C 	C 	0.01760 0.98514 0.90971 -0.01800
C 	C 	0.91770 0.16294 0.87404 0.31700
C 	C 	0.03580 0.96679 0.81313 0.29200
Zn	Zn	0.96776 0.13161 0.34420 1.24400
O 	O 	0.12169 0.06008 0.42654 -0.37200
O 	O 	0.24710 0.11654 0.32229 -0.26200
O 	O 	0.19966 0.92584 0.61094 -0.40600
O 	O 	0.17684 0.83944 0.48050 -0.24800
C 	C 	0.37180 0.02922 0.44759 -0.01900
C 	C 	0.36980 0.95572 0.51446 -0.02700
C 	C 	0.50240 0.07187 0.43349 -0.00600
H 	H 	0.50370 0.12080 0.38730 0.07500
C 	C 	0.23850 0.07046 0.39364 0.30400
C 	C 	0.23570 0.90262 0.53424 0.33300
O 	O 	0.79248 0.32910 0.33576 -0.24200
O 	O 	0.01647 0.27186 0.37250 -0.39000
O 	O 	0.04691 0.62364 0.28851 -0.39300
O 	O 	0.03930 0.45944 0.26156 -0.25100
C 	C 	0.95980 0.42447 0.43633 -0.02400
C 	C 	0.94240 0.41069 0.52658 -0.01000
H 	H 	0.90270 0.34960 0.54480 0.08200
C 	C 	0.01760 0.51486 0.40971 -0.02000
C 	C 	0.91770 0.33706 0.37404 0.32300
C 	C 	0.03580 0.53321 0.31313 0.30600
Zn	Zn	0.03224 0.63161 0.15580 1.24400
O 	O 	0.87831 0.56008 0.07346 -0.37400
O 	O 	0.75290 0.61654 0.17771 -0.26300
O 	O 	0.80034 0.42584 0.88906 -0.40300
O 	O 	0.82316 0.33944 0.01950 -0.24400
C 	C 	0.62820 0.52922 0.05241 -0.02100
C 	C 	0.63020 0.45572 0.98554 -0.02500
C 	C 	0.49760 0.57187 0.06651 -0.00700
H 	H 	0.49630 0.62080 0.11270 0.07500
C 	C 	0.76150 0.57046 0.10636 0.30500
C 	C 	0.76430 0.40262 0.96576 0.33000
O 	O 	0.20752 0.82910 0.16424 -0.24100
O 	O 	0.98353 0.77186 0.12750 -0.38300
O 	O 	0.95309 0.12364 0.21149 -0.38900
O 	O 	0.96070 0.95944 0.23844 -0.23700
C 	C 	0.04020 0.92447 0.06367 -0.03100
C 	C 	0.05760 0.91069 0.97342 -0.00800
H 	H 	0.09730 0.84960 0.95520 0.08200
C 	C 	0.98240 0.01486 0.09029 -0.01800
C 	C 	0.08230 0.83706 0.12596 0.31700
C 	C 	0.96420 0.03321 0.18687 0.29200
