data_crystal

_cell_length_a 7.57210
_cell_length_b 15.59500
_cell_length_c 16.70630
_cell_angle_alpha 90.00000
_cell_angle_beta  94.43300
_cell_angle_gamma 90.00000

_symmetry_space_group_name_	'P 1'
_symmetry_space_group_name_H-M	'P 1'

loop_
_symmetry_equiv_pos_as_xyz
  x,y,z

loop_
_atom_site_label
_atom_site_type_symbol
_atom_site_fract_x
_atom_site_fract_y
_atom_site_fract_z
_atom_site_charge
C 	C 	0.74160 0.19250 0.54940 0.40500
C 	C 	0.59990 0.23520 0.59470 -0.06100
C 	C 	0.64360 0.29020 0.65780 0.00700
H 	H 	0.76020 0.30690 0.67110 0.04600
C 	C 	0.50520 0.31980 0.70080 -0.06500
C 	C 	0.54470 0.36720 0.77900 0.50200
C 	C 	0.30780 0.25420 0.61220 0.12700
H 	H 	0.19050 0.24540 0.59320 -0.03400
C 	C 	0.79960 0.04720 0.68030 0.37600
C 	C 	0.95740 0.08820 0.72660 -0.06000
C 	C 	0.93810 0.15230 0.78180 -0.00800
H 	H 	0.82710 0.17280 0.79260 0.04900
C 	C 	0.09190 0.18490 0.82030 -0.04200
C 	C 	0.08970 0.26100 0.87690 0.46900
C 	C 	0.25340 0.09210 0.75430 0.12400
H 	H 	0.36410 0.06930 0.74600 -0.02300
N 	N 	0.43240 0.21540 0.57180 -0.24300
N 	N 	0.33590 0.30340 0.67630 -0.10700
N 	N 	0.11630 0.05900 0.71010 -0.25300
N 	N 	0.25040 0.15320 0.80850 -0.10800
O 	O 	0.68690 0.14060 0.49350 -0.67700
O 	O 	0.89760 0.20710 0.57120 -0.41500
O 	O 	0.68900 0.40430 0.78900 -0.57400
O 	O 	0.42840 0.36260 0.82820 -0.56900
O 	O 	0.83520 0.99140 0.62700 -0.62100
O 	O 	0.65020 0.07100 0.69370 -0.37100
O 	O 	0.95780 0.31070 0.86670 -0.56100
O 	O 	0.21680 0.27050 0.92730 -0.52200
O 	O 	0.09240 0.07550 0.51300 -2.47900
O 	O 	0.42000 0.00900 0.57250 -1.40200
Eu	Eu	0.37389 0.10226 0.45995 2.35200
Eu	Eu	0.13348 0.94949 0.59434 2.50100
H 	H 	0.07200 0.10600 0.53100 1.62600
H 	H 	0.45800 0.03300 0.60500 0.69600
O 	O 	0.28000 0.20000 0.98000 -0.09200
C 	C 	0.25840 0.69250 0.95060 0.40500
C 	C 	0.40010 0.73520 0.90530 -0.06000
C 	C 	0.35640 0.79020 0.84220 0.00800
H 	H 	0.23980 0.80690 0.82890 0.04700
C 	C 	0.49480 0.81980 0.79920 -0.06400
C 	C 	0.45530 0.86720 0.72100 0.50200
C 	C 	0.69220 0.75420 0.88780 0.12700
H 	H 	0.80950 0.74540 0.90680 -0.03400
C 	C 	0.20040 0.54720 0.81970 0.38100
C 	C 	0.04260 0.58820 0.77340 -0.05800
C 	C 	0.06190 0.65230 0.71820 -0.00700
H 	H 	0.17290 0.67280 0.70740 0.04800
C 	C 	0.90810 0.68490 0.67970 -0.04300
C 	C 	0.91030 0.76100 0.62310 0.47200
C 	C 	0.74660 0.59210 0.74570 0.12400
H 	H 	0.63590 0.56930 0.75400 -0.02300
N 	N 	0.56760 0.71540 0.92820 -0.24300
N 	N 	0.66410 0.80340 0.82370 -0.10600
N 	N 	0.88370 0.55900 0.78990 -0.25600
N 	N 	0.74960 0.65320 0.69150 -0.10800
O 	O 	0.31310 0.64060 0.00650 -0.67700
O 	O 	0.10240 0.70710 0.92880 -0.41500
O 	O 	0.31100 0.90430 0.71100 -0.57300
O 	O 	0.57160 0.86260 0.67180 -0.56900
O 	O 	0.16480 0.49140 0.87300 -0.62700
O 	O 	0.34980 0.57100 0.80630 -0.37200
O 	O 	0.04220 0.81070 0.63330 -0.56300
O 	O 	0.78320 0.77050 0.57270 -0.52200
O 	O 	0.90760 0.57550 0.98700 -2.48800
O 	O 	0.58000 0.50900 0.92750 -1.40500
Eu	Eu	0.62611 0.60226 0.04005 2.35200
Eu	Eu	0.86652 0.44949 0.90566 2.51600
H 	H 	0.92800 0.60600 0.96900 1.63100
H 	H 	0.54200 0.53300 0.89500 0.69700
O 	O 	0.72000 0.70000 0.52000 -0.09300
C 	C 	0.25840 0.80750 0.45060 0.40600
C 	C 	0.40010 0.76480 0.40530 -0.06000
C 	C 	0.35640 0.70980 0.34220 0.00800
H 	H 	0.23980 0.69310 0.32890 0.04700
C 	C 	0.49480 0.68020 0.29920 -0.06400
C 	C 	0.45530 0.63280 0.22100 0.50300
C 	C 	0.69220 0.74580 0.38780 0.12700
H 	H 	0.80950 0.75460 0.40680 -0.03400
C 	C 	0.20040 0.95280 0.31970 0.37600
C 	C 	0.04260 0.91180 0.27340 -0.06000
C 	C 	0.06190 0.84770 0.21820 -0.00800
H 	H 	0.17290 0.82720 0.20740 0.04900
C 	C 	0.90810 0.81510 0.17970 -0.04200
C 	C 	0.91030 0.73900 0.12310 0.46900
C 	C 	0.74660 0.90790 0.24570 0.12400
H 	H 	0.63590 0.93070 0.25400 -0.02300
N 	N 	0.56760 0.78460 0.42820 -0.24300
N 	N 	0.66410 0.69660 0.32370 -0.10700
N 	N 	0.88370 0.94100 0.28990 -0.25300
N 	N 	0.74960 0.84680 0.19150 -0.10800
O 	O 	0.31310 0.85940 0.50650 -0.67700
O 	O 	0.10240 0.79290 0.42880 -0.41500
O 	O 	0.31100 0.59570 0.21100 -0.57400
O 	O 	0.57160 0.63740 0.17180 -0.56900
O 	O 	0.16480 0.00860 0.37300 -0.62100
O 	O 	0.34980 0.92900 0.30630 -0.37100
O 	O 	0.04220 0.68930 0.13330 -0.56100
O 	O 	0.78320 0.72950 0.07270 -0.52200
O 	O 	0.90760 0.92450 0.48700 -2.47900
O 	O 	0.58000 0.99100 0.42750 -1.40200
Eu	Eu	0.62611 0.89774 0.54005 2.35200
Eu	Eu	0.86652 0.05051 0.40566 2.50100
H 	H 	0.92800 0.89400 0.46900 1.62600
H 	H 	0.54200 0.96700 0.39500 0.69600
O 	O 	0.72000 0.80000 0.02000 -0.09200
C 	C 	0.74160 0.30750 0.04940 0.40500
C 	C 	0.59990 0.26480 0.09470 -0.06000
C 	C 	0.64360 0.20980 0.15780 0.00800
H 	H 	0.76020 0.19310 0.17110 0.04700
C 	C 	0.50520 0.18020 0.20080 -0.06400
C 	C 	0.54470 0.13280 0.27900 0.50200
C 	C 	0.30780 0.24580 0.11220 0.12700
H 	H 	0.19050 0.25460 0.09320 -0.03400
C 	C 	0.79960 0.45280 0.18030 0.38100
C 	C 	0.95740 0.41180 0.22660 -0.05800
C 	C 	0.93810 0.34770 0.28180 -0.00700
H 	H 	0.82710 0.32720 0.29260 0.04800
C 	C 	0.09190 0.31510 0.32030 -0.04300
C 	C 	0.08970 0.23900 0.37690 0.47200
C 	C 	0.25340 0.40790 0.25430 0.12400
H 	H 	0.36410 0.43070 0.24600 -0.02300
N 	N 	0.43240 0.28460 0.07180 -0.24300
N 	N 	0.33590 0.19660 0.17630 -0.10600
N 	N 	0.11630 0.44100 0.21010 -0.25600
N 	N 	0.25040 0.34680 0.30850 -0.10800
O 	O 	0.68690 0.35940 0.99350 -0.67700
O 	O 	0.89760 0.29290 0.07120 -0.41500
O 	O 	0.68900 0.09570 0.28900 -0.57300
O 	O 	0.42840 0.13740 0.32820 -0.56900
O 	O 	0.83520 0.50860 0.12700 -0.62700
O 	O 	0.65020 0.42900 0.19370 -0.37200
O 	O 	0.95780 0.18930 0.36670 -0.56300
O 	O 	0.21680 0.22950 0.42730 -0.52200
O 	O 	0.09240 0.42450 0.01300 -2.48800
O 	O 	0.42000 0.49100 0.07250 -1.40500
Eu	Eu	0.37389 0.39774 0.95995 2.35200
Eu	Eu	0.13348 0.55051 0.09434 2.51600
H 	H 	0.07200 0.39400 0.03100 1.63100
H 	H 	0.45800 0.46700 0.10500 0.69700
O 	O 	0.28000 0.30000 0.48000 -0.09300
