data_crystal

_cell_length_a 7.57550
_cell_length_b 15.61860
_cell_length_c 16.69910
_cell_angle_alpha 90.00000
_cell_angle_beta  94.37500
_cell_angle_gamma 90.00000

_symmetry_space_group_name_	'P 1'
_symmetry_space_group_name_H-M	'P 1'

loop_
_symmetry_equiv_pos_as_xyz
  x,y,z

loop_
_atom_site_label
_atom_site_type_symbol
_atom_site_fract_x
_atom_site_fract_y
_atom_site_fract_z
_atom_site_charge
Eu	Eu	0.62558 0.89792 0.54017 1.98200
Eu	Eu	0.86696 0.05043 0.40551 1.95900
Eu	Eu	0.37442 0.39792 0.95983 1.98200
Eu	Eu	0.13304 0.55043 0.09449 1.97100
Eu	Eu	0.37442 0.10208 0.45983 1.98300
Eu	Eu	0.13304 0.94957 0.59449 1.96000
Eu	Eu	0.62558 0.60208 0.04017 1.98200
Eu	Eu	0.86696 0.44957 0.90551 1.97100
H 	H 	0.23900 0.69520 0.32680 0.05400
H 	H 	0.80800 0.75390 0.40740 0.01300
H 	H 	0.17530 0.82670 0.20870 0.05400
H 	H 	0.63510 0.93030 0.25590 0.01100
H 	H 	0.76100 0.19520 0.17320 0.05400
H 	H 	0.19200 0.25390 0.09260 0.01300
H 	H 	0.82470 0.32670 0.29130 0.05400
H 	H 	0.36490 0.43030 0.24410 0.01100
H 	H 	0.76100 0.30480 0.67320 0.05400
H 	H 	0.19200 0.24610 0.59260 0.01300
H 	H 	0.82470 0.17330 0.79130 0.05400
H 	H 	0.36490 0.06970 0.74410 0.01100
H 	H 	0.23900 0.80480 0.82680 0.05400
H 	H 	0.80800 0.74610 0.90740 0.01300
H 	H 	0.17530 0.67330 0.70870 0.05400
H 	H 	0.63510 0.56970 0.75590 0.01100
C 	C 	0.25820 0.80820 0.44990 0.37600
C 	C 	0.39960 0.76540 0.40520 -0.03800
C 	C 	0.35570 0.71070 0.34110 -0.00600
C 	C 	0.49300 0.68070 0.29990 -0.04800
C 	C 	0.45770 0.63260 0.22160 0.47000
C 	C 	0.69070 0.74570 0.38820 0.11700
C 	C 	0.20130 0.95200 0.32020 0.36900
C 	C 	0.04410 0.91250 0.27360 -0.03800
C 	C 	0.06410 0.84740 0.21880 -0.01400
C 	C 	0.91130 0.81450 0.17970 -0.03600
C 	C 	0.91450 0.73840 0.12300 0.45000
C 	C 	0.74560 0.90800 0.24680 0.11700
C 	C 	0.74180 0.30820 0.05010 0.37600
C 	C 	0.60040 0.26540 0.09480 -0.03800
C 	C 	0.64430 0.21070 0.15890 -0.00600
C 	C 	0.50700 0.18070 0.20010 -0.04800
C 	C 	0.54230 0.13260 0.27840 0.47000
C 	C 	0.30930 0.24570 0.11180 0.11700
C 	C 	0.79870 0.45200 0.17980 0.37300
C 	C 	0.95590 0.41250 0.22640 -0.03700
C 	C 	0.93590 0.34740 0.28120 -0.01300
C 	C 	0.08870 0.31450 0.32030 -0.03700
C 	C 	0.08550 0.23840 0.37700 0.45200
C 	C 	0.25440 0.40800 0.25320 0.11700
C 	C 	0.74180 0.19180 0.55010 0.37600
C 	C 	0.60040 0.23460 0.59480 -0.03800
C 	C 	0.64430 0.28930 0.65890 -0.00600
C 	C 	0.50700 0.31930 0.70010 -0.04800
C 	C 	0.54230 0.36740 0.77840 0.47000
C 	C 	0.30930 0.25430 0.61180 0.11700
C 	C 	0.79870 0.04800 0.67980 0.36900
C 	C 	0.95590 0.08750 0.72640 -0.03800
C 	C 	0.93590 0.15260 0.78120 -0.01400
C 	C 	0.08870 0.18550 0.82030 -0.03600
C 	C 	0.08550 0.26160 0.87700 0.45000
C 	C 	0.25440 0.09200 0.75320 0.11700
C 	C 	0.25820 0.69180 0.94990 0.37600
C 	C 	0.39960 0.73460 0.90520 -0.03800
C 	C 	0.35570 0.78930 0.84110 -0.00600
C 	C 	0.49300 0.81930 0.79990 -0.04800
C 	C 	0.45770 0.86740 0.72160 0.47000
C 	C 	0.69070 0.75430 0.88820 0.11700
C 	C 	0.20130 0.54800 0.82020 0.37300
C 	C 	0.04410 0.58750 0.77360 -0.03700
C 	C 	0.06410 0.65260 0.71880 -0.01300
C 	C 	0.91130 0.68550 0.67970 -0.03700
C 	C 	0.91450 0.76160 0.62300 0.45200
C 	C 	0.74560 0.59200 0.74680 0.11700
N 	N 	0.56760 0.78500 0.42850 -0.21200
N 	N 	0.66330 0.69630 0.32360 -0.10400
N 	N 	0.88500 0.94050 0.29030 -0.21000
N 	N 	0.75010 0.84650 0.19140 -0.10500
N 	N 	0.43240 0.28500 0.07150 -0.21200
N 	N 	0.33670 0.19630 0.17640 -0.10300
N 	N 	0.11500 0.44050 0.20970 -0.21200
N 	N 	0.24990 0.34650 0.30860 -0.10500
N 	N 	0.43240 0.21500 0.57150 -0.21200
N 	N 	0.33670 0.30370 0.67640 -0.10400
N 	N 	0.11500 0.05950 0.70970 -0.21000
N 	N 	0.24990 0.15350 0.80860 -0.10500
N 	N 	0.56760 0.71500 0.92850 -0.21200
N 	N 	0.66330 0.80370 0.82360 -0.10300
N 	N 	0.88500 0.55950 0.79030 -0.21200
N 	N 	0.75010 0.65350 0.69140 -0.10500
O 	O 	0.31340 0.86050 0.50580 -0.60800
O 	O 	0.10250 0.79290 0.42860 -0.30000
O 	O 	0.31160 0.59580 0.21100 -0.49600
O 	O 	0.57140 0.63670 0.17220 -0.51400
O 	O 	0.16540 0.00850 0.37320 -0.59400
O 	O 	0.35080 0.92880 0.30590 -0.29500
O 	O 	0.04390 0.68950 0.13310 -0.50300
O 	O 	0.78470 0.72850 0.07280 -0.49100
O 	O 	0.90750 0.92360 0.48650 -0.67900
O 	O 	0.58050 0.99060 0.42640 -0.68400
O 	O 	0.68660 0.36050 0.99420 -0.60700
O 	O 	0.89750 0.29290 0.07140 -0.30100
O 	O 	0.68840 0.09580 0.28900 -0.49500
O 	O 	0.42860 0.13670 0.32780 -0.51400
O 	O 	0.83460 0.50850 0.12680 -0.60000
O 	O 	0.64920 0.42880 0.19410 -0.29600
O 	O 	0.95610 0.18950 0.36690 -0.50500
O 	O 	0.21530 0.22850 0.42720 -0.49100
O 	O 	0.09250 0.42360 0.01350 -0.68200
O 	O 	0.41950 0.49060 0.07360 -0.68600
O 	O 	0.68660 0.13950 0.49420 -0.60800
O 	O 	0.89750 0.20710 0.57140 -0.30000
O 	O 	0.68840 0.40420 0.78900 -0.49600
O 	O 	0.42860 0.36330 0.82780 -0.51400
O 	O 	0.83460 0.99150 0.62680 -0.59400
O 	O 	0.64920 0.07120 0.69410 -0.29500
O 	O 	0.95610 0.31050 0.86690 -0.50300
O 	O 	0.21530 0.27150 0.92720 -0.49100
O 	O 	0.09250 0.07640 0.51350 -0.67900
O 	O 	0.41950 0.00940 0.57360 -0.68400
O 	O 	0.31340 0.63950 0.00580 -0.60700
O 	O 	0.10250 0.70710 0.92860 -0.30100
O 	O 	0.31160 0.90420 0.71100 -0.49500
O 	O 	0.57140 0.86330 0.67220 -0.51400
O 	O 	0.16540 0.49150 0.87320 -0.60000
O 	O 	0.35080 0.57120 0.80590 -0.29600
O 	O 	0.04390 0.81050 0.63310 -0.50500
O 	O 	0.78470 0.77150 0.57280 -0.49100
O 	O 	0.90750 0.57640 0.98650 -0.68200
O 	O 	0.58050 0.50940 0.92640 -0.68600
