data_crystal

_cell_length_a 7.43700
_cell_length_b 11.27800
_cell_length_c 15.16400
_cell_angle_alpha 90.00000
_cell_angle_beta  90.00000
_cell_angle_gamma 90.00000

_symmetry_space_group_name_	'P 1'
_symmetry_space_group_name_H-M	'P 1'

loop_
_symmetry_equiv_pos_as_xyz
  x,y,z

loop_
_atom_site_label
_atom_site_type_symbol
_atom_site_fract_x
_atom_site_fract_y
_atom_site_fract_z
_atom_site_charge
Mn	Mn	0.53531 0.28615 0.22059 1.26500
Mn	Mn	0.46469 0.78615 0.77941 1.26600
Mn	Mn	0.03531 0.28615 0.27941 1.26300
Mn	Mn	0.96469 0.78615 0.72059 1.26500
H 	H 	0.80640 0.02990 0.50070 0.04000
H 	H 	0.36060 0.82160 0.49620 0.06800
H 	H 	0.49430 0.01800 0.28210 0.06500
H 	H 	0.03050 0.79080 0.33190 0.08000
H 	H 	0.06690 0.86920 0.41800 0.08300
H 	H 	0.16670 0.74460 0.40610 0.07100
H 	H 	0.19360 0.52990 0.49930 0.03900
H 	H 	0.63940 0.32160 0.50380 0.06900
H 	H 	0.50570 0.51800 0.71790 0.07700
H 	H 	0.96950 0.29080 0.66810 0.07900
H 	H 	0.93310 0.36920 0.58200 0.08000
H 	H 	0.83330 0.24460 0.59390 0.07000
H 	H 	0.30640 0.02990 0.99930 0.04300
H 	H 	0.86060 0.82160 0.00380 0.07100
H 	H 	0.99430 0.01800 0.21790 0.07200
H 	H 	0.53050 0.79080 0.16810 0.08000
H 	H 	0.56690 0.86920 0.08200 0.08200
H 	H 	0.66670 0.74460 0.09390 0.07100
H 	H 	0.69360 0.52990 0.00070 0.04400
H 	H 	0.13940 0.32160 0.99620 0.07100
H 	H 	0.00570 0.51800 0.78210 0.07900
H 	H 	0.46950 0.29080 0.83190 0.07700
H 	H 	0.43310 0.36920 0.91800 0.07800
H 	H 	0.33330 0.24460 0.90610 0.06800
C 	C 	0.78130 0.13093 0.34182 0.34400
C 	C 	0.63620 0.86816 0.60106 0.38700
C 	C 	0.66420 0.03949 0.38606 -0.07700
C 	C 	0.70340 0.00041 0.47080 0.00600
C 	C 	0.59170 0.91794 0.51200 -0.07800
C 	C 	0.43960 0.87551 0.46776 -0.08700
C 	C 	0.40470 0.91237 0.38234 0.13600
C 	C 	0.51770 0.99381 0.34106 -0.06400
C 	C 	0.12120 0.81480 0.37527 -0.14100
C 	C 	0.21870 0.63093 0.65818 0.34000
C 	C 	0.36380 0.36816 0.39894 0.38700
C 	C 	0.33580 0.53949 0.61394 -0.06500
C 	C 	0.29660 0.50041 0.52920 0.00800
C 	C 	0.40830 0.41794 0.48800 -0.08100
C 	C 	0.56040 0.37551 0.53224 -0.09100
C 	C 	0.59530 0.41237 0.61766 0.14400
C 	C 	0.48230 0.49381 0.65894 -0.08800
C 	C 	0.87880 0.31480 0.62473 -0.13700
C 	C 	0.28130 0.13093 0.15818 0.34200
C 	C 	0.13620 0.86816 0.89894 0.38300
C 	C 	0.16420 0.03949 0.11394 -0.07400
C 	C 	0.20340 0.00041 0.02920 -0.00900
C 	C 	0.09170 0.91794 0.98800 -0.06500
C 	C 	0.93960 0.87551 0.03224 -0.09500
C 	C 	0.90470 0.91237 0.11766 0.14300
C 	C 	0.01770 0.99381 0.15894 -0.07200
C 	C 	0.62120 0.81480 0.12473 -0.13900
C 	C 	0.71870 0.63093 0.84182 0.33800
C 	C 	0.86380 0.36816 0.10106 0.38400
C 	C 	0.83580 0.53949 0.88606 -0.05900
C 	C 	0.79660 0.50041 0.97080 -0.00400
C 	C 	0.90830 0.41794 0.01200 -0.06900
C 	C 	0.06040 0.37551 0.96776 -0.10000
C 	C 	0.09530 0.41237 0.88234 0.14900
C 	C 	0.98230 0.49381 0.84106 -0.09400
C 	C 	0.37880 0.31480 0.87527 -0.13300
O 	O 	0.73831 0.16835 0.26589 -0.50900
O 	O 	0.92038 0.16532 0.37936 -0.41800
O 	O 	0.79761 0.87057 0.62475 -0.49000
O 	O 	0.50775 0.82510 0.64465 -0.49400
O 	O 	0.26321 0.87173 0.33220 -0.18300
O 	O 	0.26169 0.66835 0.73411 -0.50800
O 	O 	0.07962 0.66532 0.62064 -0.41800
O 	O 	0.20239 0.37057 0.37525 -0.49200
O 	O 	0.49225 0.32510 0.35535 -0.49500
O 	O 	0.73679 0.37173 0.66780 -0.18700
O 	O 	0.23831 0.16835 0.23411 -0.51200
O 	O 	0.42038 0.16532 0.12064 -0.42000
O 	O 	0.29761 0.87057 0.87525 -0.48800
O 	O 	0.00775 0.82510 0.85535 -0.49100
O 	O 	0.76321 0.87173 0.16780 -0.18500
O 	O 	0.76169 0.66835 0.76589 -0.50800
O 	O 	0.57962 0.66532 0.87936 -0.41800
O 	O 	0.70239 0.37057 0.12475 -0.48900
O 	O 	0.99225 0.32510 0.14465 -0.49000
O 	O 	0.23679 0.37173 0.83220 -0.19000
