data_crystal

_cell_length_a 15.21090
_cell_length_b 11.72810
_cell_length_c 14.18210
_cell_angle_alpha 90.00000
_cell_angle_beta  90.00000
_cell_angle_gamma 90.00000

_symmetry_space_group_name_	'P 1'
_symmetry_space_group_name_H-M	'P 1'

loop_
_symmetry_equiv_pos_as_xyz
  x,y,z

loop_
_atom_site_label
_atom_site_type_symbol
_atom_site_fract_x
_atom_site_fract_y
_atom_site_fract_z
_atom_site_charge
P 	P 	0.16811 0.87780 0.59101 0.42300
O 	O 	0.08797 0.95367 0.57837 -0.37200
O 	O 	0.22222 0.88039 0.49960 -0.38100
O 	O 	0.22180 0.90344 0.67659 -0.18600
H 	H 	0.13500 0.77400 0.59700 -0.04200
P 	P 	0.16811 0.37780 0.09101 0.39500
O 	O 	0.08797 0.45367 0.07837 -0.44500
O 	O 	0.22222 0.38039 0.99960 -0.36900
O 	O 	0.22180 0.40344 0.17659 -0.23800
H 	H 	0.13500 0.27400 0.09700 -0.06500
P 	P 	0.66811 0.87780 0.09101 0.39600
O 	O 	0.58797 0.95367 0.07837 -0.34200
O 	O 	0.72222 0.88039 0.99960 -0.33600
O 	O 	0.72180 0.90344 0.17659 -0.16900
H 	H 	0.63500 0.77400 0.09700 -0.03200
P 	P 	0.66811 0.37780 0.59101 0.42600
O 	O 	0.58797 0.45367 0.57837 -0.39400
O 	O 	0.72222 0.38039 0.49960 -0.38900
O 	O 	0.72180 0.40344 0.67659 -0.20800
H 	H 	0.63500 0.27400 0.59700 -0.03800
P 	P 	0.83189 0.12220 0.59101 0.42600
O 	O 	0.91203 0.04633 0.57837 -0.38800
O 	O 	0.77778 0.11961 0.49960 -0.41300
O 	O 	0.77820 0.09656 0.67659 -0.24400
H 	H 	0.86500 0.22600 0.59700 -0.01400
P 	P 	0.83189 0.62220 0.09101 0.39500
O 	O 	0.91203 0.54633 0.07837 -0.35200
O 	O 	0.77778 0.61961 0.99960 -0.35800
O 	O 	0.77820 0.59656 0.17659 -0.20700
H 	H 	0.86500 0.72600 0.09700 -0.01000
P 	P 	0.33189 0.12220 0.09101 0.39500
O 	O 	0.41203 0.04633 0.07837 -0.45600
O 	O 	0.27778 0.11961 0.99960 -0.39200
O 	O 	0.27820 0.09656 0.17659 -0.27600
H 	H 	0.36500 0.22600 0.09700 -0.04300
P 	P 	0.33189 0.62220 0.59101 0.42500
O 	O 	0.41203 0.54633 0.57837 -0.39800
O 	O 	0.27778 0.61961 0.49960 -0.40500
O 	O 	0.27820 0.59656 0.67659 -0.22700
H 	H 	0.36500 0.72600 0.59700 -0.02100
P 	P 	0.41811 0.37220 0.84101 0.42500
O 	O 	0.33797 0.29633 0.82837 -0.40900
O 	O 	0.47222 0.36961 0.74960 -0.40600
O 	O 	0.47180 0.34656 0.92659 -0.21500
H 	H 	0.38500 0.47600 0.84700 -0.02700
P 	P 	0.41811 0.87220 0.34101 0.43000
O 	O 	0.33797 0.79633 0.32837 -0.38900
O 	O 	0.47222 0.86961 0.24960 -0.35600
O 	O 	0.47180 0.84656 0.42659 -0.18900
H 	H 	0.38500 0.97600 0.34700 0.01000
P 	P 	0.91811 0.37220 0.34101 0.42700
O 	O 	0.83797 0.29633 0.32837 -0.39900
O 	O 	0.97222 0.36961 0.24960 -0.34300
O 	O 	0.97180 0.34656 0.42659 -0.17800
H 	H 	0.88500 0.47600 0.34700 -0.00500
P 	P 	0.91811 0.87220 0.84101 0.43200
O 	O 	0.83797 0.79633 0.82837 -0.36700
O 	O 	0.97222 0.86961 0.74960 -0.28700
O 	O 	0.97180 0.84656 0.92659 -0.12800
H 	H 	0.88500 0.97600 0.84700 0.03700
P 	P 	0.08189 0.12780 0.84101 0.41800
O 	O 	0.16203 0.20367 0.82837 -0.41700
O 	O 	0.02778 0.13039 0.74960 -0.47600
O 	O 	0.02820 0.15344 0.92659 -0.28500
H 	H 	0.11500 0.02400 0.84700 -0.08700
P 	P 	0.08189 0.62780 0.34101 0.42400
O 	O 	0.16203 0.70367 0.32837 -0.39800
O 	O 	0.02778 0.63039 0.24960 -0.44100
O 	O 	0.02820 0.65344 0.42659 -0.26100
H 	H 	0.11500 0.52400 0.34700 -0.05500
P 	P 	0.58189 0.12780 0.34101 0.42100
O 	O 	0.66203 0.20367 0.32837 -0.40800
O 	O 	0.52778 0.13039 0.24960 -0.43000
O 	O 	0.52820 0.15344 0.42659 -0.25200
H 	H 	0.61500 0.02400 0.34700 -0.06900
P 	P 	0.58189 0.62780 0.84101 0.42700
O 	O 	0.66203 0.70367 0.82837 -0.37600
O 	O 	0.52778 0.63039 0.74960 -0.38400
O 	O 	0.52820 0.65344 0.92659 -0.19800
H 	H 	0.61500 0.52400 0.84700 -0.02700
Zn	Zn	0.00000 0.00000 0.66938 1.16100
Zn	Zn	0.00000 0.50000 0.16938 1.19700
Zn	Zn	0.50000 0.00000 0.16938 1.19700
Zn	Zn	0.50000 0.50000 0.66938 1.23600
Zn	Zn	0.25000 0.25000 0.91938 1.23500
Zn	Zn	0.25000 0.75000 0.41938 1.23700
Zn	Zn	0.75000 0.25000 0.41938 1.23500
Zn	Zn	0.75000 0.75000 0.91938 1.24200
