data_crystal

_cell_length_a 28.64200
_cell_length_b 13.18620
_cell_length_c 8.53950
_cell_angle_alpha 90.00000
_cell_angle_beta  91.66000
_cell_angle_gamma 90.00000

_symmetry_space_group_name_	'P 1'
_symmetry_space_group_name_H-M	'P 1'

loop_
_symmetry_equiv_pos_as_xyz
  x,y,z

loop_
_atom_site_label
_atom_site_type_symbol
_atom_site_fract_x
_atom_site_fract_y
_atom_site_fract_z
_atom_site_charge
C 	C 	0.34606 0.97380 0.33930 0.04600
H 	H 	0.32330 0.00990 0.39140 0.02800
C 	C 	0.38013 0.02720 0.26300 -0.07400
H 	H 	0.38000 0.09770 0.26390 0.05800
C 	C 	0.41442 0.97530 0.18520 -0.03700
C 	C 	0.41183 0.87080 0.18410 -0.06800
H 	H 	0.43390 0.83280 0.13180 0.04100
C 	C 	0.37645 0.82310 0.26100 0.02300
H 	H 	0.37480 0.75270 0.25690 0.01700
C 	C 	0.45244 0.03040 0.10320 0.25500
C 	C 	0.45207 0.14250 0.10800 -0.76700
H 	H 	0.47810 0.16820 0.05180 0.25500
H 	H 	0.45440 0.16490 0.21490 0.24500
H 	H 	0.42350 0.16710 0.06050 0.25900
C 	C 	0.21016 0.76540 0.23180 0.48500
C 	C 	0.18721 0.78890 0.07440 -0.57200
H 	H 	0.15360 0.79110 0.08530 0.20000
H 	H 	0.19420 0.73490 0.00150 0.22100
C 	C 	0.20374 0.89010 0.00760 0.34900
H 	H 	0.23690 0.88600 0.98820 -0.05300
H 	H 	0.18750 0.90270 0.90830 -0.07700
C 	C 	0.19484 0.97830 0.11960 -0.56200
H 	H 	0.16140 0.98500 0.13120 0.19900
H 	H 	0.20840 0.96140 0.22160 0.21600
C 	C 	0.21414 0.08030 0.06960 0.49400
N 	N 	0.34433 0.87310 0.34160 -0.17900
N 	N 	0.48203 0.97350 0.03690 -0.14400
O 	O 	0.18559 0.72190 0.33290 -0.44500
O 	O 	0.18905 0.15620 0.09020 -0.45200
O 	O 	0.25200 0.79160 0.25270 -0.44800
O 	O 	0.25419 0.08120 0.01390 -0.44400
Cu	Cu	0.28809 0.79465 0.45252 0.91700
C 	C 	0.84606 0.47380 0.33930 0.04700
H 	H 	0.82330 0.50990 0.39140 0.02900
C 	C 	0.88013 0.52720 0.26300 -0.07200
H 	H 	0.88000 0.59770 0.26390 0.05900
C 	C 	0.91442 0.47530 0.18520 -0.03600
C 	C 	0.91183 0.37080 0.18410 -0.06700
H 	H 	0.93390 0.33280 0.13180 0.04200
C 	C 	0.87645 0.32310 0.26100 0.02400
H 	H 	0.87480 0.25270 0.25690 0.01800
C 	C 	0.95244 0.53040 0.10320 0.25600
C 	C 	0.95207 0.64250 0.10800 -0.76600
H 	H 	0.97810 0.66820 0.05180 0.25600
H 	H 	0.95440 0.66490 0.21490 0.24600
H 	H 	0.92350 0.66710 0.06050 0.26000
C 	C 	0.71016 0.26540 0.23180 0.48500
C 	C 	0.68721 0.28890 0.07440 -0.57200
H 	H 	0.65360 0.29110 0.08530 0.20000
H 	H 	0.69420 0.23490 0.00150 0.22100
C 	C 	0.70374 0.39010 0.00760 0.35000
H 	H 	0.73690 0.38600 0.98820 -0.05300
H 	H 	0.68750 0.40270 0.90830 -0.07700
C 	C 	0.69484 0.47830 0.11960 -0.56200
H 	H 	0.66140 0.48500 0.13120 0.20000
H 	H 	0.70840 0.46140 0.22160 0.21600
C 	C 	0.71414 0.58030 0.06960 0.49400
N 	N 	0.84433 0.37310 0.34160 -0.17900
N 	N 	0.98203 0.47350 0.03690 -0.14400
O 	O 	0.68559 0.22190 0.33290 -0.44500
O 	O 	0.68905 0.65620 0.09020 -0.45200
O 	O 	0.75200 0.29160 0.25270 -0.44800
O 	O 	0.75419 0.58120 0.01390 -0.44400
Cu	Cu	0.78809 0.29465 0.45252 0.91700
C 	C 	0.65394 0.97380 0.16070 0.04700
H 	H 	0.67670 0.00990 0.10860 0.02900
C 	C 	0.61987 0.02720 0.23700 -0.07300
H 	H 	0.62000 0.09770 0.23610 0.05900
C 	C 	0.58558 0.97530 0.31480 -0.03600
C 	C 	0.58817 0.87080 0.31590 -0.06700
H 	H 	0.56610 0.83280 0.36820 0.04200
C 	C 	0.62355 0.82310 0.23900 0.02400
H 	H 	0.62520 0.75270 0.24310 0.01800
C 	C 	0.54756 0.03040 0.39680 0.25600
C 	C 	0.54793 0.14250 0.39200 -0.76600
H 	H 	0.52190 0.16820 0.44820 0.25600
H 	H 	0.54560 0.16490 0.28510 0.24600
H 	H 	0.57650 0.16710 0.43950 0.26000
C 	C 	0.78984 0.76540 0.26820 0.48500
C 	C 	0.81279 0.78890 0.42560 -0.57200
H 	H 	0.84640 0.79110 0.41470 0.20000
H 	H 	0.80580 0.73490 0.49850 0.22100
C 	C 	0.79626 0.89010 0.49240 0.35000
H 	H 	0.76310 0.88600 0.51180 -0.05300
H 	H 	0.81250 0.90270 0.59170 -0.07700
C 	C 	0.80516 0.97830 0.38040 -0.56200
H 	H 	0.83860 0.98500 0.36880 0.20000
H 	H 	0.79160 0.96140 0.27840 0.21600
C 	C 	0.78586 0.08030 0.43040 0.49400
N 	N 	0.65567 0.87310 0.15840 -0.17900
N 	N 	0.51797 0.97350 0.46310 -0.14400
O 	O 	0.81441 0.72190 0.16710 -0.44500
O 	O 	0.81095 0.15620 0.40980 -0.45200
O 	O 	0.74800 0.79160 0.24730 -0.44800
O 	O 	0.74581 0.08120 0.48610 -0.44400
Cu	Cu	0.71191 0.79465 0.04748 0.91700
C 	C 	0.15394 0.47380 0.16070 0.04700
H 	H 	0.17670 0.50990 0.10860 0.02900
C 	C 	0.11987 0.52720 0.23700 -0.07200
H 	H 	0.12000 0.59770 0.23610 0.05900
C 	C 	0.08558 0.47530 0.31480 -0.03600
C 	C 	0.08817 0.37080 0.31590 -0.06700
H 	H 	0.06610 0.33280 0.36820 0.04200
C 	C 	0.12355 0.32310 0.23900 0.02400
H 	H 	0.12520 0.25270 0.24310 0.01800
C 	C 	0.04756 0.53040 0.39680 0.25600
C 	C 	0.04793 0.64250 0.39200 -0.76600
H 	H 	0.02190 0.66820 0.44820 0.25600
H 	H 	0.04560 0.66490 0.28510 0.24600
H 	H 	0.07650 0.66710 0.43950 0.26000
C 	C 	0.28984 0.26540 0.26820 0.48500
C 	C 	0.31279 0.28890 0.42560 -0.57200
H 	H 	0.34640 0.29110 0.41470 0.20000
H 	H 	0.30580 0.23490 0.49850 0.22100
C 	C 	0.29626 0.39010 0.49240 0.34900
H 	H 	0.26310 0.38600 0.51180 -0.05300
H 	H 	0.31250 0.40270 0.59170 -0.07700
C 	C 	0.30516 0.47830 0.38040 -0.56200
H 	H 	0.33860 0.48500 0.36880 0.20000
H 	H 	0.29160 0.46140 0.27840 0.21600
C 	C 	0.28586 0.58030 0.43040 0.49400
N 	N 	0.15567 0.37310 0.15840 -0.17900
N 	N 	0.01797 0.47350 0.46310 -0.14400
O 	O 	0.31441 0.22190 0.16710 -0.44500
O 	O 	0.31095 0.65620 0.40980 -0.45200
O 	O 	0.24800 0.29160 0.24730 -0.44800
O 	O 	0.24581 0.58120 0.48610 -0.44400
Cu	Cu	0.21191 0.29465 0.04748 0.91700
C 	C 	0.65394 0.02620 0.66070 0.04700
H 	H 	0.67670 0.99010 0.60860 0.02900
C 	C 	0.61987 0.97280 0.73700 -0.07300
H 	H 	0.62000 0.90230 0.73610 0.05900
C 	C 	0.58558 0.02470 0.81480 -0.03600
C 	C 	0.58817 0.12920 0.81590 -0.06700
H 	H 	0.56610 0.16720 0.86820 0.04200
C 	C 	0.62355 0.17690 0.73900 0.02400
H 	H 	0.62520 0.24730 0.74310 0.01800
C 	C 	0.54756 0.96960 0.89680 0.25600
C 	C 	0.54793 0.85750 0.89200 -0.76600
H 	H 	0.52190 0.83180 0.94820 0.25600
H 	H 	0.54560 0.83510 0.78510 0.24600
H 	H 	0.57650 0.83290 0.93950 0.26000
C 	C 	0.78984 0.23460 0.76820 0.48500
C 	C 	0.81279 0.21110 0.92560 -0.57200
H 	H 	0.84640 0.20890 0.91470 0.20000
H 	H 	0.80580 0.26510 0.99850 0.22100
C 	C 	0.79626 0.10990 0.99240 0.34900
H 	H 	0.76310 0.11400 0.01180 -0.05300
H 	H 	0.81250 0.09730 0.09170 -0.07700
C 	C 	0.80516 0.02170 0.88040 -0.56200
H 	H 	0.83860 0.01500 0.86880 0.19900
H 	H 	0.79160 0.03860 0.77840 0.21600
C 	C 	0.78586 0.91970 0.93040 0.49400
N 	N 	0.65567 0.12690 0.65840 -0.17900
N 	N 	0.51797 0.02650 0.96310 -0.14400
O 	O 	0.81441 0.27810 0.66710 -0.44500
O 	O 	0.81095 0.84380 0.90980 -0.45200
O 	O 	0.74800 0.20840 0.74730 -0.44800
O 	O 	0.74581 0.91880 0.98610 -0.44400
Cu	Cu	0.71191 0.20535 0.54748 0.91700
C 	C 	0.15394 0.52620 0.66070 0.04700
H 	H 	0.17670 0.49010 0.60860 0.02900
C 	C 	0.11987 0.47280 0.73700 -0.07200
H 	H 	0.12000 0.40230 0.73610 0.05900
C 	C 	0.08558 0.52470 0.81480 -0.03600
C 	C 	0.08817 0.62920 0.81590 -0.06700
H 	H 	0.06610 0.66720 0.86820 0.04200
C 	C 	0.12355 0.67690 0.73900 0.02400
H 	H 	0.12520 0.74730 0.74310 0.01800
C 	C 	0.04756 0.46960 0.89680 0.25600
C 	C 	0.04793 0.35750 0.89200 -0.76600
H 	H 	0.02190 0.33180 0.94820 0.25600
H 	H 	0.04560 0.33510 0.78510 0.24600
H 	H 	0.07650 0.33290 0.93950 0.26000
C 	C 	0.28984 0.73460 0.76820 0.48500
C 	C 	0.31279 0.71110 0.92560 -0.57200
H 	H 	0.34640 0.70890 0.91470 0.20000
H 	H 	0.30580 0.76510 0.99850 0.22100
C 	C 	0.29626 0.60990 0.99240 0.35000
H 	H 	0.26310 0.61400 0.01180 -0.05300
H 	H 	0.31250 0.59730 0.09170 -0.07700
C 	C 	0.30516 0.52170 0.88040 -0.56200
H 	H 	0.33860 0.51500 0.86880 0.20000
H 	H 	0.29160 0.53860 0.77840 0.21600
C 	C 	0.28586 0.41970 0.93040 0.49400
N 	N 	0.15567 0.62690 0.65840 -0.17900
N 	N 	0.01797 0.52650 0.96310 -0.14400
O 	O 	0.31441 0.77810 0.66710 -0.44500
O 	O 	0.31095 0.34380 0.90980 -0.45200
O 	O 	0.24800 0.70840 0.74730 -0.44800
O 	O 	0.24581 0.41880 0.98610 -0.44400
Cu	Cu	0.21191 0.70535 0.54748 0.91700
C 	C 	0.34606 0.02620 0.83930 0.04700
H 	H 	0.32330 0.99010 0.89140 0.02900
C 	C 	0.38013 0.97280 0.76300 -0.07300
H 	H 	0.38000 0.90230 0.76390 0.05900
C 	C 	0.41442 0.02470 0.68520 -0.03600
C 	C 	0.41183 0.12920 0.68410 -0.06700
H 	H 	0.43390 0.16720 0.63180 0.04200
C 	C 	0.37645 0.17690 0.76100 0.02400
H 	H 	0.37480 0.24730 0.75690 0.01800
C 	C 	0.45244 0.96960 0.60320 0.25600
C 	C 	0.45207 0.85750 0.60800 -0.76600
H 	H 	0.47810 0.83180 0.55180 0.25600
H 	H 	0.45440 0.83510 0.71490 0.24600
H 	H 	0.42350 0.83290 0.56050 0.26000
C 	C 	0.21016 0.23460 0.73180 0.48500
C 	C 	0.18721 0.21110 0.57440 -0.57200
H 	H 	0.15360 0.20890 0.58530 0.20000
H 	H 	0.19420 0.26510 0.50150 0.22100
C 	C 	0.20374 0.10990 0.50760 0.35000
H 	H 	0.23690 0.11400 0.48820 -0.05300
H 	H 	0.18750 0.09730 0.40830 -0.07700
C 	C 	0.19484 0.02170 0.61960 -0.56200
H 	H 	0.16140 0.01500 0.63120 0.20000
H 	H 	0.20840 0.03860 0.72160 0.21600
C 	C 	0.21414 0.91970 0.56960 0.49400
N 	N 	0.34433 0.12690 0.84160 -0.17900
N 	N 	0.48203 0.02650 0.53690 -0.14400
O 	O 	0.18559 0.27810 0.83290 -0.44500
O 	O 	0.18905 0.84380 0.59020 -0.45200
O 	O 	0.25200 0.20840 0.75270 -0.44800
O 	O 	0.25419 0.91880 0.51390 -0.44400
Cu	Cu	0.28809 0.20535 0.95252 0.91700
C 	C 	0.84606 0.52620 0.83930 0.04700
H 	H 	0.82330 0.49010 0.89140 0.02900
C 	C 	0.88013 0.47280 0.76300 -0.07200
H 	H 	0.88000 0.40230 0.76390 0.05900
C 	C 	0.91442 0.52470 0.68520 -0.03600
C 	C 	0.91183 0.62920 0.68410 -0.06700
H 	H 	0.93390 0.66720 0.63180 0.04200
C 	C 	0.87645 0.67690 0.76100 0.02400
H 	H 	0.87480 0.74730 0.75690 0.01800
C 	C 	0.95244 0.46960 0.60320 0.25600
C 	C 	0.95207 0.35750 0.60800 -0.76600
H 	H 	0.97810 0.33180 0.55180 0.25600
H 	H 	0.95440 0.33510 0.71490 0.24600
H 	H 	0.92350 0.33290 0.56050 0.26000
C 	C 	0.71016 0.73460 0.73180 0.48500
C 	C 	0.68721 0.71110 0.57440 -0.57200
H 	H 	0.65360 0.70890 0.58530 0.20000
H 	H 	0.69420 0.76510 0.50150 0.22100
C 	C 	0.70374 0.60990 0.50760 0.34900
H 	H 	0.73690 0.61400 0.48820 -0.05300
H 	H 	0.68750 0.59730 0.40830 -0.07700
C 	C 	0.69484 0.52170 0.61960 -0.56200
H 	H 	0.66140 0.51500 0.63120 0.20000
H 	H 	0.70840 0.53860 0.72160 0.21600
C 	C 	0.71414 0.41970 0.56960 0.49400
N 	N 	0.84433 0.62690 0.84160 -0.17900
N 	N 	0.98203 0.52650 0.53690 -0.14400
O 	O 	0.68559 0.77810 0.83290 -0.44500
O 	O 	0.68905 0.34380 0.59020 -0.45200
O 	O 	0.75200 0.70840 0.75270 -0.44800
O 	O 	0.75419 0.41880 0.51390 -0.44400
Cu	Cu	0.78809 0.70535 0.95252 0.91700
