data_crystal

_cell_length_a 9.43910
_cell_length_b 16.20240
_cell_length_c 23.98640
_cell_angle_alpha 108.35400
_cell_angle_beta  90.00000
_cell_angle_gamma 90.00000

_symmetry_space_group_name_	'P 1'
_symmetry_space_group_name_H-M	'P 1'

loop_
_symmetry_equiv_pos_as_xyz
  x,y,z

loop_
_atom_site_label
_atom_site_type_symbol
_atom_site_fract_x
_atom_site_fract_y
_atom_site_fract_z
_atom_site_charge
Tb	Tb	0.49953 0.70184 0.90304 1.84800
Tb	Tb	0.49953 0.29816 0.59696 1.83100
Tb	Tb	0.50047 0.29816 0.09696 1.81900
Tb	Tb	0.50047 0.70184 0.40304 1.83600
Ca	Ca	0.00232 0.50000 0.75000 1.45100
Ca	Ca	0.99768 0.50000 0.25000 1.52400
Ca	Ca	-0.00000 0.50000 -0.00000 1.42300
Ca	Ca	0.00000 0.50000 0.50000 1.43100
Ca	Ca	-0.00000 0.00000 -0.00000 1.41400
Ca	Ca	-0.00000 0.00000 0.50000 1.42200
H 	H 	0.31330 0.90130 0.11640 0.02000
H 	H 	0.46990 0.01740 0.13090 -0.01300
H 	H 	0.64300 0.01010 0.06090 -0.08000
H 	H 	0.38830 0.86740 0.74490 0.04100
H 	H 	0.56880 0.80650 0.67850 0.05000
H 	H 	0.72040 0.70700 0.69750 0.06400
H 	H 	0.64930 0.41830 0.96100 0.03700
H 	H 	0.47380 0.32430 0.90930 0.05300
H 	H 	0.31520 0.37210 0.85250 -0.00100
H 	H 	0.31330 0.09870 0.38360 -0.03100
H 	H 	0.46990 0.98260 0.36910 0.13400
H 	H 	0.64300 0.98990 0.43910 0.09500
H 	H 	0.38830 0.13260 0.75510 0.01700
H 	H 	0.56880 0.19350 0.82150 0.04700
H 	H 	0.72040 0.29300 0.80250 0.06000
H 	H 	0.64930 0.58170 0.53900 0.02200
H 	H 	0.47380 0.67570 0.59070 0.05100
H 	H 	0.31520 0.62790 0.64750 -0.00300
H 	H 	0.68670 0.09870 0.88360 0.04500
H 	H 	0.53010 0.98260 0.86910 0.11400
H 	H 	0.35700 0.98990 0.93910 0.11000
H 	H 	0.61170 0.13260 0.25510 0.04800
H 	H 	0.43120 0.19350 0.32150 0.04600
H 	H 	0.27960 0.29300 0.30250 -0.00200
H 	H 	0.35070 0.58170 0.03900 -0.02000
H 	H 	0.52620 0.67570 0.09070 0.05800
H 	H 	0.68480 0.62790 0.14750 0.04500
H 	H 	0.68670 0.90130 0.61640 0.09000
H 	H 	0.53010 0.01740 0.63090 -0.02400
H 	H 	0.35700 0.01010 0.56090 -0.07400
H 	H 	0.61170 0.86740 0.24490 0.07100
H 	H 	0.43120 0.80650 0.17850 0.05000
H 	H 	0.27960 0.70700 0.19750 0.00300
H 	H 	0.35070 0.41830 0.46100 -0.00600
H 	H 	0.52620 0.32430 0.40930 0.06100
H 	H 	0.68480 0.37210 0.35250 0.04700
C 	C 	0.30370 0.75050 0.02580 0.26300
C 	C 	0.39680 0.82950 0.03910 -0.09300
C 	C 	0.38360 0.90000 0.08890 -0.02700
C 	C 	0.47670 0.96890 0.09760 -0.01700
C 	C 	0.57940 0.96450 0.05600 0.15400
C 	C 	0.58700 0.89160 0.00680 -0.21100
C 	C 	0.69320 0.88030 0.95900 0.49000
C 	C 	0.31880 0.83110 0.84550 0.32600
C 	C 	0.43050 0.79580 0.79860 -0.03100
C 	C 	0.44780 0.82510 0.75070 -0.03600
C 	C 	0.55610 0.78960 0.71180 -0.03300
C 	C 	0.64450 0.72950 0.72240 -0.02200
C 	C 	0.61950 0.70280 0.77070 -0.02400
C 	C 	0.70960 0.63650 0.78680 0.37800
C 	C 	0.69300 0.58840 0.96780 0.40100
C 	C 	0.58660 0.52050 0.93470 -0.05500
C 	C 	0.58350 0.43630 0.93840 -0.00000
C 	C 	0.47980 0.38060 0.90750 -0.06100
C 	C 	0.38550 0.40900 0.87380 -0.00000
C 	C 	0.39690 0.49310 0.87220 -0.08200
C 	C 	0.29810 0.53190 0.83820 0.38400
C 	C 	0.30370 0.24950 0.47420 0.32700
C 	C 	0.39680 0.17050 0.46090 -0.08600
C 	C 	0.38360 0.10000 0.41110 0.03600
C 	C 	0.47670 0.03110 0.40240 -0.18800
C 	C 	0.57940 0.03550 0.44400 -0.06900
C 	C 	0.58700 0.10840 0.49320 -0.06000
C 	C 	0.69320 0.11970 0.54100 0.39200
C 	C 	0.31880 0.16890 0.65450 0.33600
C 	C 	0.43050 0.20420 0.70140 -0.04600
C 	C 	0.44780 0.17490 0.74930 -0.02700
C 	C 	0.55610 0.21040 0.78820 -0.05000
C 	C 	0.64450 0.27050 0.77760 -0.01800
C 	C 	0.61950 0.29720 0.72930 -0.03000
C 	C 	0.70960 0.36350 0.71320 0.37800
C 	C 	0.69300 0.41160 0.53220 0.40300
C 	C 	0.58660 0.47950 0.56530 -0.06800
C 	C 	0.58350 0.56370 0.56160 0.00100
C 	C 	0.47980 0.61940 0.59250 -0.07300
C 	C 	0.38550 0.59100 0.62620 -0.00100
C 	C 	0.39690 0.50690 0.62780 -0.08700
C 	C 	0.29810 0.46810 0.66180 0.38200
C 	C 	0.69630 0.24950 0.97420 0.36600
C 	C 	0.60320 0.17050 0.96090 0.00600
C 	C 	0.61640 0.10000 0.91110 -0.03600
C 	C 	0.52330 0.03110 0.90240 -0.10200
C 	C 	0.42060 0.03550 0.94400 -0.15800
C 	C 	0.41300 0.10840 0.99320 0.04400
C 	C 	0.30680 0.11970 0.04100 0.32200
C 	C 	0.68120 0.16890 0.15450 0.32600
C 	C 	0.56950 0.20420 0.20140 -0.02600
C 	C 	0.55220 0.17490 0.24930 -0.02800
C 	C 	0.44390 0.21040 0.28820 -0.07300
C 	C 	0.35550 0.27050 0.27760 -0.00500
C 	C 	0.38050 0.29720 0.22930 -0.07200
C 	C 	0.29040 0.36350 0.21320 0.39400
C 	C 	0.30700 0.41160 0.03220 0.41600
C 	C 	0.41340 0.47950 0.06530 -0.10900
C 	C 	0.41650 0.56370 0.06160 0.00500
C 	C 	0.52020 0.61940 0.09250 -0.08000
C 	C 	0.61450 0.59100 0.12620 -0.01000
C 	C 	0.60310 0.50690 0.12780 -0.06100
C 	C 	0.70190 0.46810 0.16180 0.36900
C 	C 	0.69630 0.75050 0.52580 0.30400
C 	C 	0.60320 0.82950 0.53910 -0.00800
C 	C 	0.61640 0.90000 0.58890 -0.08700
C 	C 	0.52330 0.96890 0.59760 0.05000
C 	C 	0.42060 0.96450 0.55600 0.08300
C 	C 	0.41300 0.89160 0.50680 -0.11600
C 	C 	0.30680 0.88030 0.45900 0.42500
C 	C 	0.68120 0.83110 0.34550 0.31700
C 	C 	0.56950 0.79580 0.29860 -0.01200
C 	C 	0.55220 0.82510 0.25070 -0.03600
C 	C 	0.44390 0.78960 0.21180 -0.05600
C 	C 	0.35550 0.72950 0.22240 -0.00800
C 	C 	0.38050 0.70280 0.27070 -0.06600
C 	C 	0.29040 0.63650 0.28680 0.39500
C 	C 	0.30700 0.58840 0.46780 0.41600
C 	C 	0.41340 0.52050 0.43470 -0.09600
C 	C 	0.41650 0.43630 0.43840 0.00400
C 	C 	0.52020 0.38060 0.40750 -0.06800
C 	C 	0.61450 0.40900 0.37380 -0.00900
C 	C 	0.60310 0.49310 0.37220 -0.05600
C 	C 	0.70190 0.53190 0.33820 0.37000
N 	N 	0.49500 0.82570 0.99820 -0.10300
N 	N 	0.51500 0.73560 0.80815 -0.18100
N 	N 	0.49520 0.54750 0.90340 -0.17100
N 	N 	0.49500 0.17430 0.50180 -0.16900
N 	N 	0.51500 0.26440 0.69185 -0.17800
N 	N 	0.49520 0.45250 0.59660 -0.17000
N 	N 	0.50500 0.17430 0.00180 -0.24400
N 	N 	0.48500 0.26440 0.19185 -0.17500
N 	N 	0.50480 0.45250 0.09660 -0.16900
N 	N 	0.50500 0.82570 0.49820 -0.17400
N 	N 	0.48500 0.73560 0.30815 -0.17700
N 	N 	0.50480 0.54750 0.40340 -0.17000
O 	O 	0.32020 0.69470 0.97502 -0.41200
O 	O 	0.22060 0.74370 0.06380 -0.37000
O 	O 	0.67660 0.81430 0.91402 -0.42900
O 	O 	0.78850 0.93530 0.96531 -0.44100
O 	O 	0.32700 0.80540 0.89004 -0.45200
O 	O 	0.23190 0.88360 0.83820 -0.34400
O 	O 	0.80430 0.59800 0.75241 -0.40400
O 	O 	0.68120 0.62570 0.83534 -0.43400
O 	O 	0.67210 0.66420 0.96569 -0.41000
O 	O 	0.79020 0.56630 0.99461 -0.45700
O 	O 	0.32140 0.61070 0.84197 -0.48800
O 	O 	0.20030 0.48670 0.80982 -0.54900
O 	O 	0.32020 0.30530 0.52498 -0.46700
O 	O 	0.22060 0.25630 0.43620 -0.38600
O 	O 	0.67660 0.18570 0.58598 -0.41900
O 	O 	0.78850 0.06470 0.53469 -0.49700
O 	O 	0.32700 0.19460 0.60996 -0.47100
O 	O 	0.23190 0.11640 0.66180 -0.38500
O 	O 	0.80430 0.40200 0.74759 -0.40600
O 	O 	0.68120 0.37430 0.66466 -0.43500
O 	O 	0.67210 0.33580 0.53431 -0.42700
O 	O 	0.79020 0.43370 0.50539 -0.48500
O 	O 	0.32140 0.38930 0.65803 -0.48900
O 	O 	0.20030 0.51330 0.69018 -0.55100
O 	O 	0.67980 0.30530 0.02498 -0.45900
O 	O 	0.77940 0.25630 0.93620 -0.26900
O 	O 	0.32340 0.18570 0.08598 -0.46400
O 	O 	0.21150 0.06470 0.03469 -0.63200
O 	O 	0.67300 0.19460 0.10996 -0.42100
O 	O 	0.76810 0.11640 0.16180 -0.26700
O 	O 	0.19570 0.40200 0.24759 -0.55100
O 	O 	0.31880 0.37430 0.16466 -0.49200
O 	O 	0.32790 0.33580 0.03431 -0.50200
O 	O 	0.20980 0.43370 0.00539 -0.64500
O 	O 	0.67860 0.38930 0.15803 -0.43600
O 	O 	0.79970 0.51330 0.19018 -0.43200
O 	O 	0.67980 0.69470 0.47502 -0.40600
O 	O 	0.77940 0.74370 0.56380 -0.25600
O 	O 	0.32340 0.81430 0.41402 -0.47400
O 	O 	0.21150 0.93530 0.46531 -0.57400
O 	O 	0.67300 0.80540 0.39004 -0.40400
O 	O 	0.76810 0.88360 0.33820 -0.23100
O 	O 	0.19570 0.59800 0.25241 -0.54900
O 	O 	0.31880 0.62570 0.33534 -0.49100
O 	O 	0.32790 0.66420 0.46569 -0.48500
O 	O 	0.20980 0.56630 0.49461 -0.61900
O 	O 	0.67860 0.61070 0.34197 -0.43500
O 	O 	0.79970 0.48670 0.30982 -0.43100
