data_crystal

_cell_length_a 12.42000
_cell_length_b 13.66600
_cell_length_c 14.23400
_cell_angle_alpha 96.94300
_cell_angle_beta  114.71500
_cell_angle_gamma 110.56800

_symmetry_space_group_name_	'P 1'
_symmetry_space_group_name_H-M	'P 1'

loop_
_symmetry_equiv_pos_as_xyz
  x,y,z

loop_
_atom_site_label
_atom_site_type_symbol
_atom_site_fract_x
_atom_site_fract_y
_atom_site_fract_z
_atom_site_charge
Mo	Mo	0.31504 0.46533 0.15966 1.08100
Mo	Mo	0.31902 0.71535 0.26853 1.08900
Mo	Mo	0.11232 0.71400 0.27257 1.07900
Mo	Mo	0.82431 0.45828 0.17190 1.08400
Mo	Mo	0.82419 0.27440 0.10063 1.08200
Mo	Mo	0.10851 0.27985 0.09043 1.05900
Zn	Zn	0.15752 0.32103 0.42837 1.24500
P 	P 	0.13756 0.47321 0.28854 0.52200
P 	P 	0.57695 0.66462 0.38033 0.53800
P 	P 	0.92331 0.66445 0.38296 0.54800
P 	P 	0.97064 0.11998 0.20718 0.57200
O 	O 	0.49390 0.54700 0.30250 -0.39000
O 	O 	0.25080 0.53730 0.26800 -0.40700
O 	O 	0.28040 0.34580 0.22090 -0.50000
O 	O 	0.34320 0.62550 0.15270 -0.46000
O 	O 	0.13100 0.41390 0.05080 -0.57500
O 	O 	0.49050 0.71780 0.38740 -0.36500
O 	O 	0.28140 0.73570 0.38660 -0.46200
O 	O 	0.13630 0.65840 0.15330 -0.56000
O 	O 	0.06200 0.71770 0.39430 -0.38200
O 	O 	0.05180 0.53440 0.27570 -0.41700
O 	O 	0.90750 0.61810 0.16170 -0.43900
O 	O 	0.85410 0.54080 0.31980 -0.37100
O 	O 	0.83490 0.34120 0.23440 -0.47500
O 	O 	0.85880 0.40750 0.05850 -0.54700
O 	O 	0.90190 0.23240 0.00240 -0.46100
O 	O 	0.86000 0.15640 0.16790 -0.42100
O 	O 	0.05210 0.35750 0.20410 -0.46300
O 	O 	0.04660 0.14870 0.14400 -0.53200
O 	O 	0.66430 0.73980 0.34240 -0.25600
O 	O 	0.84470 0.72450 0.32510 -0.25500
O 	O 	0.06710 0.17770 0.32850 -0.46900
O 	O 	0.90920 0.99650 0.18630 -0.28000
O 	O 	0.94120 0.67630 0.49640 -0.38800
O 	O 	0.66150 0.65990 0.49090 -0.40100
O 	O 	0.19510 0.46470 0.40350 -0.39000
Mo	Mo	0.68496 0.53467 0.84034 1.09400
Mo	Mo	0.68098 0.28465 0.73147 1.09200
Mo	Mo	0.88768 0.28600 0.72743 1.09900
Mo	Mo	0.17569 0.54172 0.82810 1.08800
Mo	Mo	0.17581 0.72560 0.89937 1.08900
Mo	Mo	0.89149 0.72015 0.90957 1.09000
Zn	Zn	0.84248 0.67897 0.57163 1.24700
P 	P 	0.86244 0.52679 0.71146 0.52200
P 	P 	0.42305 0.33538 0.61967 0.53800
P 	P 	0.07669 0.33555 0.61704 0.50000
P 	P 	0.02936 0.88002 0.79282 0.50100
O 	O 	0.50610 0.45300 0.69750 -0.38200
O 	O 	0.74920 0.46270 0.73200 -0.40700
O 	O 	0.71960 0.65420 0.77910 -0.48500
O 	O 	0.65680 0.37450 0.84730 -0.42600
O 	O 	0.86900 0.58610 0.94920 -0.50700
O 	O 	0.50950 0.28220 0.61260 -0.37100
O 	O 	0.71860 0.26430 0.61340 -0.46800
O 	O 	0.86370 0.34160 0.84670 -0.50100
O 	O 	0.93800 0.28230 0.60570 -0.33400
O 	O 	0.94820 0.46560 0.72430 -0.38300
O 	O 	0.09250 0.38190 0.83830 -0.44000
O 	O 	0.14590 0.45920 0.68020 -0.37300
O 	O 	0.16510 0.65880 0.76560 -0.48500
O 	O 	0.14120 0.59250 0.94150 -0.51900
O 	O 	0.09810 0.76760 0.99760 -0.44100
O 	O 	0.14000 0.84360 0.83210 -0.40400
O 	O 	0.94790 0.64250 0.79590 -0.43300
O 	O 	0.95340 0.85130 0.85600 -0.44200
O 	O 	0.33570 0.26020 0.65760 -0.25700
O 	O 	0.15530 0.27550 0.67490 -0.25600
O 	O 	0.93290 0.82230 0.67150 -0.40400
O 	O 	0.09080 0.00350 0.81370 -0.30000
O 	O 	0.05880 0.32370 0.50360 -0.41000
O 	O 	0.33850 0.34010 0.50910 -0.40500
O 	O 	0.80490 0.53530 0.59650 -0.38600
Na	Na	-0.00000 0.50000 -0.00000 0.59300
Na	Na	-0.00000 0.00000 -0.00000 0.53300
