data_crystal

_cell_length_a 19.89430
_cell_length_b 26.22040
_cell_length_c 17.94540
_cell_angle_alpha 90.00000
_cell_angle_beta  119.63600
_cell_angle_gamma 90.00000

_symmetry_space_group_name_	'P 1'
_symmetry_space_group_name_H-M	'P 1'

loop_
_symmetry_equiv_pos_as_xyz
  x,y,z

loop_
_atom_site_label
_atom_site_type_symbol
_atom_site_fract_x
_atom_site_fract_y
_atom_site_fract_z
_atom_site_charge
Ag	Ag	0.13908 0.05477 0.20142 0.48600
Ag	Ag	0.85293 0.06247 0.06745 0.48800
Ag	Ag	0.88510 0.96419 0.13011 0.42200
Ag	Ag	0.04091 0.93599 0.15269 0.35400
Ag	Ag	0.08234 0.00443 0.04173 0.38100
Ag	Ag	0.00439 0.10996 0.07575 0.42900
C 	C 	0.96140 0.01740 0.11810 -0.34900
C 	C 	0.02240 0.02560 0.11700 -0.41600
C 	C 	0.13470 0.15250 0.29830 0.11800
C 	C 	0.15960 0.20760 0.33230 0.89200
C 	C 	0.74270 0.97940 0.14340 0.15100
C 	C 	0.65610 0.97090 0.11740 0.84200
C 	C 	0.25030 0.03790 0.11990 0.07300
C 	C 	0.33200 0.03970 0.12840 1.16700
C 	C 	0.67940 0.11300 0.99020 0.17500
C 	C 	0.60450 0.13660 0.94460 0.10400
C 	C 	0.54170 0.10770 0.89090 -0.09800
H 	H 	0.54710 0.07300 0.88440 0.20800
C 	C 	0.46990 0.13110 0.84610 0.11000
H 	H 	0.42690 0.11170 0.80970 0.10000
C 	C 	0.46130 0.18120 0.85460 -0.09200
H 	H 	0.41270 0.19610 0.82430 0.14700
C 	C 	0.52590 0.21140 0.90930 0.09900
C 	C 	0.59810 0.18840 0.95450 -0.09400
H 	H 	0.64150 0.20760 0.99070 0.15900
C 	C 	0.51750 0.26470 0.91520 0.14900
F 	F 	0.20780 0.22610 0.31370 -0.50200
F 	F 	0.10010 0.23923 0.30140 -0.48100
F 	F 	0.18690 0.20970 0.41580 -0.48600
F 	F 	0.62670 0.92860 0.07770 -0.42100
F 	F 	0.64580 0.97420 0.18280 -0.43700
F 	F 	0.61130 0.00980 0.06270 -0.35100
F 	F 	0.33860 0.01160 0.07180 -0.27700
F 	F 	0.38450 0.02670 0.20280 -0.25900
F 	F 	0.34670 0.08470 0.11240 -0.32000
N 	N 	0.73880 0.09490 0.02460 -0.14700
N 	N 	0.51000 0.30790 0.91740 -0.18100
O 	O 	0.16440 0.13583 0.25800 -0.23100
O 	O 	0.08800 0.13267 0.31700 -0.30900
O 	O 	0.76500 0.02228 0.16870 -0.25700
O 	O 	0.77570 0.94282 0.13080 -0.24300
O 	O 	0.20410 0.00790 0.06370 -0.30300
O 	O 	0.24080 0.06580 0.16850 -0.17200
F 	F 	0.36890 0.99360 0.16180 -0.28700
F 	F 	0.37740 0.07180 0.17830 -0.28100
F 	F 	0.33050 0.04330 0.05710 -0.28200
Ag	Ag	0.63908 0.55477 0.20142 0.48500
Ag	Ag	0.35293 0.56247 0.06745 0.48500
Ag	Ag	0.38510 0.46419 0.13011 0.42000
Ag	Ag	0.54091 0.43599 0.15269 0.36000
Ag	Ag	0.58234 0.50443 0.04173 0.38300
Ag	Ag	0.50439 0.60996 0.07575 0.43500
C 	C 	0.46140 0.51740 0.11810 -0.37100
C 	C 	0.52240 0.52560 0.11700 -0.39800
C 	C 	0.63470 0.65250 0.29830 0.11800
C 	C 	0.65960 0.70760 0.33230 0.89200
C 	C 	0.24270 0.47940 0.14340 0.15300
C 	C 	0.15610 0.47090 0.11740 0.84300
C 	C 	0.75030 0.53790 0.11990 0.07300
C 	C 	0.83200 0.53970 0.12840 1.16500
C 	C 	0.17940 0.61300 0.99020 0.17600
C 	C 	0.10450 0.63660 0.94460 0.10800
C 	C 	0.04170 0.60770 0.89090 -0.11800
H 	H 	0.04710 0.57300 0.88440 0.21300
C 	C 	0.96990 0.63110 0.84610 0.12800
H 	H 	0.92690 0.61170 0.80970 0.09600
C 	C 	0.96130 0.68120 0.85460 -0.08400
H 	H 	0.91270 0.69610 0.82430 0.14600
C 	C 	0.02590 0.71140 0.90930 0.08900
C 	C 	0.09810 0.68840 0.95450 -0.09500
H 	H 	0.14150 0.70760 0.99070 0.15900
C 	C 	0.01750 0.76470 0.91520 0.14900
F 	F 	0.70780 0.72610 0.31370 -0.50000
F 	F 	0.60010 0.73923 0.30140 -0.47800
F 	F 	0.68690 0.70970 0.41580 -0.48500
F 	F 	0.12670 0.42860 0.07770 -0.42200
F 	F 	0.14580 0.47420 0.18280 -0.43800
F 	F 	0.11130 0.50980 0.06270 -0.35500
F 	F 	0.83860 0.51160 0.07180 -0.27600
F 	F 	0.88450 0.52670 0.20280 -0.25800
F 	F 	0.84670 0.58470 0.11240 -0.31900
N 	N 	0.23880 0.59490 0.02460 -0.14900
N 	N 	0.01000 0.80790 0.91740 -0.18500
O 	O 	0.66440 0.63583 0.25800 -0.23000
O 	O 	0.58800 0.63267 0.31700 -0.30600
O 	O 	0.26500 0.52228 0.16870 -0.25900
O 	O 	0.27570 0.44282 0.13080 -0.24500
O 	O 	0.70410 0.50790 0.06370 -0.30300
O 	O 	0.74080 0.56580 0.16850 -0.17200
F 	F 	0.86890 0.49360 0.16180 -0.28400
F 	F 	0.87740 0.57180 0.17830 -0.27800
F 	F 	0.83050 0.54330 0.05710 -0.28200
Ag	Ag	0.86092 0.05477 0.29858 0.48500
Ag	Ag	0.14707 0.06247 0.43255 0.48500
Ag	Ag	0.11490 0.96419 0.36989 0.41900
Ag	Ag	0.95909 0.93599 0.34731 0.36400
Ag	Ag	0.91766 0.00443 0.45827 0.38500
Ag	Ag	0.99561 0.10996 0.42425 0.44100
C 	C 	0.03860 0.01740 0.38190 -0.38900
C 	C 	0.97760 0.02560 0.38300 -0.37900
C 	C 	0.86530 0.15250 0.20170 0.11800
C 	C 	0.84040 0.20760 0.16770 0.89200
C 	C 	0.25730 0.97940 0.35660 0.15200
C 	C 	0.34390 0.97090 0.38260 0.84200
C 	C 	0.74970 0.03790 0.38010 0.07300
C 	C 	0.66800 0.03970 0.37160 1.16700
C 	C 	0.32060 0.11300 0.50980 0.17900
C 	C 	0.39550 0.13660 0.55540 0.10200
C 	C 	0.45830 0.10770 0.60910 -0.09600
H 	H 	0.45290 0.07300 0.61560 0.20800
C 	C 	0.53010 0.13110 0.65390 0.10900
H 	H 	0.57310 0.11170 0.69030 0.10000
C 	C 	0.53870 0.18120 0.64540 -0.09100
H 	H 	0.58730 0.19610 0.67570 0.14700
C 	C 	0.47410 0.21140 0.59070 0.09800
C 	C 	0.40190 0.18840 0.54550 -0.09300
H 	H 	0.35850 0.20760 0.50930 0.15900
C 	C 	0.48250 0.26470 0.58480 0.15000
F 	F 	0.79220 0.22610 0.18630 -0.50000
F 	F 	0.89990 0.23923 0.19860 -0.47600
F 	F 	0.81310 0.20970 0.08420 -0.48400
F 	F 	0.37330 0.92860 0.42230 -0.42100
F 	F 	0.35420 0.97420 0.31720 -0.43700
F 	F 	0.38870 0.00980 0.43730 -0.35300
F 	F 	0.66140 0.01160 0.42820 -0.27700
F 	F 	0.61550 0.02670 0.29720 -0.26000
F 	F 	0.65330 0.08470 0.38760 -0.32000
N 	N 	0.26120 0.09490 0.47540 -0.15000
N 	N 	0.49000 0.30790 0.58260 -0.18100
O 	O 	0.83560 0.13583 0.24200 -0.22900
O 	O 	0.91200 0.13267 0.18300 -0.30100
O 	O 	0.23500 0.02228 0.33130 -0.25900
O 	O 	0.22430 0.94282 0.36920 -0.24500
O 	O 	0.79590 0.00790 0.43630 -0.30300
O 	O 	0.75920 0.06580 0.33150 -0.17100
F 	F 	0.63110 0.99360 0.33820 -0.28700
F 	F 	0.62260 0.07180 0.32170 -0.28000
F 	F 	0.66950 0.04330 0.44290 -0.28300
Ag	Ag	0.36092 0.55477 0.29858 0.48400
Ag	Ag	0.64707 0.56247 0.43255 0.48500
Ag	Ag	0.61490 0.46419 0.36989 0.42000
Ag	Ag	0.45909 0.43599 0.34731 0.35900
Ag	Ag	0.41766 0.50443 0.45827 0.38300
Ag	Ag	0.49561 0.60996 0.42425 0.43400
C 	C 	0.53860 0.51740 0.38190 -0.37100
C 	C 	0.47760 0.52560 0.38300 -0.39800
C 	C 	0.36530 0.65250 0.20170 0.11800
C 	C 	0.34040 0.70760 0.16770 0.89200
C 	C 	0.75730 0.47940 0.35660 0.15300
C 	C 	0.84390 0.47090 0.38260 0.84200
C 	C 	0.24970 0.53790 0.38010 0.07200
C 	C 	0.16800 0.53970 0.37160 1.16800
C 	C 	0.82060 0.61300 0.50980 0.18200
C 	C 	0.89550 0.63660 0.55540 0.09600
C 	C 	0.95830 0.60770 0.60910 -0.07400
H 	H 	0.95290 0.57300 0.61560 0.20400
C 	C 	0.03010 0.63110 0.65390 0.09000
H 	H 	0.07310 0.61170 0.69030 0.10500
C 	C 	0.03870 0.68120 0.64540 -0.09900
H 	H 	0.08730 0.69610 0.67570 0.14700
C 	C 	0.97410 0.71140 0.59070 0.10900
C 	C 	0.90190 0.68840 0.54550 -0.09100
H 	H 	0.85850 0.70760 0.50930 0.15900
C 	C 	0.98250 0.76470 0.58480 0.15100
F 	F 	0.29220 0.72610 0.18630 -0.50200
F 	F 	0.39990 0.73923 0.19860 -0.47900
F 	F 	0.31310 0.70970 0.08420 -0.48500
F 	F 	0.87330 0.42860 0.42230 -0.41800
F 	F 	0.85420 0.47420 0.31720 -0.43500
F 	F 	0.88870 0.50980 0.43730 -0.35000
F 	F 	0.16140 0.51160 0.42820 -0.27800
F 	F 	0.11550 0.52670 0.29720 -0.26200
F 	F 	0.15330 0.58470 0.38760 -0.32200
N 	N 	0.76120 0.59490 0.47540 -0.15000
N 	N 	0.99000 0.80790 0.58260 -0.17600
O 	O 	0.33560 0.63583 0.24200 -0.23100
O 	O 	0.41200 0.63267 0.18300 -0.30600
O 	O 	0.73500 0.52228 0.33130 -0.25900
O 	O 	0.72430 0.44282 0.36920 -0.24400
O 	O 	0.29590 0.50790 0.43630 -0.30300
O 	O 	0.25920 0.56580 0.33150 -0.17200
F 	F 	0.13110 0.49360 0.33820 -0.28700
F 	F 	0.12260 0.57180 0.32170 -0.28200
F 	F 	0.16950 0.54330 0.44290 -0.28300
Ag	Ag	0.86092 0.94522 0.79858 0.48500
Ag	Ag	0.14707 0.93753 0.93255 0.48500
Ag	Ag	0.11490 0.03581 0.86989 0.41800
Ag	Ag	0.95909 0.06401 0.84731 0.36300
Ag	Ag	0.91766 0.99557 0.95827 0.38500
Ag	Ag	0.99561 0.89004 0.92425 0.44100
C 	C 	0.03860 0.98260 0.88190 -0.38600
C 	C 	0.97760 0.97440 0.88300 -0.38200
C 	C 	0.86530 0.84750 0.70170 0.11800
C 	C 	0.84040 0.79240 0.66770 0.89200
C 	C 	0.25730 0.02060 0.85660 0.15100
C 	C 	0.34390 0.02910 0.88260 0.84100
C 	C 	0.74970 0.96210 0.88010 0.07300
C 	C 	0.66800 0.96030 0.87160 1.16700
C 	C 	0.32060 0.88700 0.00980 0.17800
C 	C 	0.39550 0.86340 0.05540 0.10300
C 	C 	0.45830 0.89230 0.10910 -0.09700
H 	H 	0.45290 0.92700 0.11560 0.20800
C 	C 	0.53010 0.86890 0.15390 0.11000
H 	H 	0.57310 0.88830 0.19030 0.10000
C 	C 	0.53870 0.81880 0.14540 -0.09200
H 	H 	0.58730 0.80390 0.17570 0.14700
C 	C 	0.47410 0.78860 0.09070 0.09900
C 	C 	0.40190 0.81160 0.04550 -0.09300
H 	H 	0.35850 0.79240 0.00930 0.15900
C 	C 	0.48250 0.73530 0.08480 0.15000
F 	F 	0.79220 0.77390 0.68630 -0.50000
F 	F 	0.89990 0.76077 0.69860 -0.47600
F 	F 	0.81310 0.79030 0.58420 -0.48500
F 	F 	0.37330 0.07140 0.92230 -0.42100
F 	F 	0.35420 0.02580 0.81720 -0.43700
F 	F 	0.38870 0.99020 0.93730 -0.35200
F 	F 	0.66140 0.98840 0.92820 -0.27700
F 	F 	0.61550 0.97330 0.79720 -0.25900
F 	F 	0.65330 0.91530 0.88760 -0.32000
N 	N 	0.26120 0.90510 0.97540 -0.14900
N 	N 	0.49000 0.69210 0.08260 -0.18000
O 	O 	0.83560 0.86417 0.74200 -0.22900
O 	O 	0.91200 0.86733 0.68300 -0.30200
O 	O 	0.23500 0.97772 0.83130 -0.25700
O 	O 	0.22430 0.05718 0.86920 -0.24500
O 	O 	0.79590 0.99210 0.93630 -0.30300
O 	O 	0.75920 0.93420 0.83150 -0.17200
F 	F 	0.63110 0.00640 0.83820 -0.28700
F 	F 	0.62260 0.92820 0.82170 -0.28100
F 	F 	0.66950 0.95670 0.94290 -0.28300
Ag	Ag	0.36092 0.44523 0.79858 0.48400
Ag	Ag	0.64707 0.43753 0.93255 0.48500
Ag	Ag	0.61490 0.53581 0.86989 0.42000
Ag	Ag	0.45909 0.56401 0.84731 0.35900
Ag	Ag	0.41766 0.49557 0.95827 0.38200
Ag	Ag	0.49561 0.39004 0.92425 0.43400
C 	C 	0.53860 0.48260 0.88190 -0.37100
C 	C 	0.47760 0.47440 0.88300 -0.39800
C 	C 	0.36530 0.34750 0.70170 0.11800
C 	C 	0.34040 0.29240 0.66770 0.89200
C 	C 	0.75730 0.52060 0.85660 0.15300
C 	C 	0.84390 0.52910 0.88260 0.84200
C 	C 	0.24970 0.46210 0.88010 0.07200
C 	C 	0.16800 0.46030 0.87160 1.16800
C 	C 	0.82060 0.38700 0.00980 0.18500
C 	C 	0.89550 0.36340 0.05540 0.09500
C 	C 	0.95830 0.39230 0.10910 -0.07200
H 	H 	0.95290 0.42700 0.11560 0.20300
C 	C 	0.03010 0.36890 0.15390 0.08800
H 	H 	0.07310 0.38830 0.19030 0.10600
C 	C 	0.03870 0.31880 0.14540 -0.09900
H 	H 	0.08730 0.30390 0.17570 0.14700
C 	C 	0.97410 0.28860 0.09070 0.11000
C 	C 	0.90190 0.31160 0.04550 -0.09100
H 	H 	0.85850 0.29240 0.00930 0.15900
C 	C 	0.98250 0.23530 0.08480 0.15200
F 	F 	0.29220 0.27390 0.68630 -0.50200
F 	F 	0.39990 0.26077 0.69860 -0.47900
F 	F 	0.31310 0.29030 0.58420 -0.48500
F 	F 	0.87330 0.57140 0.92230 -0.41900
F 	F 	0.85420 0.52580 0.81720 -0.43500
F 	F 	0.88870 0.49020 0.93730 -0.35100
F 	F 	0.16140 0.48840 0.92820 -0.27800
F 	F 	0.11550 0.47330 0.79720 -0.26200
F 	F 	0.15330 0.41530 0.88760 -0.32200
N 	N 	0.76120 0.40510 0.97540 -0.15200
N 	N 	0.99000 0.19210 0.08260 -0.17500
O 	O 	0.33560 0.36417 0.74200 -0.23100
O 	O 	0.41200 0.36733 0.68300 -0.30600
O 	O 	0.73500 0.47772 0.83130 -0.25900
O 	O 	0.72430 0.55718 0.86920 -0.24400
O 	O 	0.29590 0.49210 0.93630 -0.30300
O 	O 	0.25920 0.43420 0.83150 -0.17300
F 	F 	0.13110 0.50640 0.83820 -0.28700
F 	F 	0.12260 0.42820 0.82170 -0.28200
F 	F 	0.16950 0.45670 0.94290 -0.28400
Ag	Ag	0.13908 0.94522 0.70142 0.48500
Ag	Ag	0.85293 0.93753 0.56745 0.48600
Ag	Ag	0.88510 0.03581 0.63011 0.42100
Ag	Ag	0.04091 0.06401 0.65269 0.35400
Ag	Ag	0.08234 0.99557 0.54173 0.38000
Ag	Ag	0.00439 0.89004 0.57575 0.42900
C 	C 	0.96140 0.98260 0.61810 -0.35200
C 	C 	0.02240 0.97440 0.61700 -0.41400
C 	C 	0.13470 0.84750 0.79830 0.11800
C 	C 	0.15960 0.79240 0.83230 0.89200
C 	C 	0.74270 0.02060 0.64340 0.15200
C 	C 	0.65610 0.02910 0.61740 0.84200
C 	C 	0.25030 0.96210 0.61990 0.07200
C 	C 	0.33200 0.96030 0.62840 1.16700
C 	C 	0.67940 0.88700 0.49020 0.17900
C 	C 	0.60450 0.86340 0.44460 0.10200
C 	C 	0.54170 0.89230 0.39090 -0.09600
H 	H 	0.54710 0.92700 0.38440 0.20800
C 	C 	0.46990 0.86890 0.34610 0.10900
H 	H 	0.42690 0.88830 0.30970 0.10000
C 	C 	0.46130 0.81880 0.35460 -0.09100
H 	H 	0.41270 0.80390 0.32430 0.14600
C 	C 	0.52590 0.78860 0.40930 0.09800
C 	C 	0.59810 0.81160 0.45450 -0.09300
H 	H 	0.64150 0.79240 0.49070 0.15900
C 	C 	0.51750 0.73530 0.41520 0.15000
F 	F 	0.20780 0.77390 0.81370 -0.50200
F 	F 	0.10010 0.76077 0.80140 -0.48100
F 	F 	0.18690 0.79030 0.91580 -0.48500
F 	F 	0.62670 0.07140 0.57770 -0.42000
F 	F 	0.64580 0.02580 0.68280 -0.43700
F 	F 	0.61130 0.99020 0.56270 -0.35300
F 	F 	0.33860 0.98840 0.57180 -0.27700
F 	F 	0.38450 0.97330 0.70280 -0.26000
F 	F 	0.34670 0.91530 0.61240 -0.32100
N 	N 	0.73880 0.90510 0.52460 -0.14900
N 	N 	0.51000 0.69210 0.41740 -0.18100
O 	O 	0.16440 0.86417 0.75800 -0.23100
O 	O 	0.08800 0.86733 0.81700 -0.30800
O 	O 	0.76500 0.97772 0.66870 -0.25800
O 	O 	0.77570 0.05718 0.63080 -0.24400
O 	O 	0.20410 0.99210 0.56370 -0.30300
O 	O 	0.24080 0.93420 0.66850 -0.17200
F 	F 	0.36890 0.00640 0.66180 -0.28700
F 	F 	0.37740 0.92820 0.67830 -0.28100
F 	F 	0.33050 0.95670 0.55710 -0.28300
Ag	Ag	0.63908 0.44523 0.70142 0.48500
Ag	Ag	0.35293 0.43753 0.56745 0.48500
Ag	Ag	0.38510 0.53581 0.63011 0.42000
Ag	Ag	0.54091 0.56401 0.65269 0.35900
Ag	Ag	0.58234 0.49557 0.54173 0.38300
Ag	Ag	0.50439 0.39004 0.57575 0.43400
C 	C 	0.46140 0.48260 0.61810 -0.37100
C 	C 	0.52240 0.47440 0.61700 -0.39800
C 	C 	0.63470 0.34750 0.79830 0.11800
C 	C 	0.65960 0.29240 0.83230 0.89200
C 	C 	0.24270 0.52060 0.64340 0.15300
C 	C 	0.15610 0.52910 0.61740 0.84300
C 	C 	0.75030 0.46210 0.61990 0.07300
C 	C 	0.83200 0.46030 0.62840 1.16500
C 	C 	0.17940 0.38700 0.49020 0.17600
C 	C 	0.10450 0.36340 0.44460 0.10900
C 	C 	0.04170 0.39230 0.39090 -0.11900
H 	H 	0.04710 0.42700 0.38440 0.21300
C 	C 	0.96990 0.36890 0.34610 0.13000
H 	H 	0.92690 0.38830 0.30970 0.09500
C 	C 	0.96130 0.31880 0.35460 -0.08300
H 	H 	0.91270 0.30390 0.32430 0.14600
C 	C 	0.02590 0.28860 0.40930 0.08700
C 	C 	0.09810 0.31160 0.45450 -0.09400
H 	H 	0.14150 0.29240 0.49070 0.15900
C 	C 	0.01750 0.23530 0.41520 0.14800
F 	F 	0.70780 0.27390 0.81370 -0.50100
F 	F 	0.60010 0.26077 0.80140 -0.47900
F 	F 	0.68690 0.29030 0.91580 -0.48600
F 	F 	0.12670 0.57140 0.57770 -0.42300
F 	F 	0.14580 0.52580 0.68280 -0.43800
F 	F 	0.11130 0.49020 0.56270 -0.35500
F 	F 	0.83860 0.48840 0.57180 -0.27700
F 	F 	0.88450 0.47330 0.70280 -0.25800
F 	F 	0.84670 0.41530 0.61240 -0.31900
N 	N 	0.23880 0.40510 0.52460 -0.14900
N 	N 	0.01000 0.19210 0.41740 -0.18500
O 	O 	0.66440 0.36417 0.75800 -0.23000
O 	O 	0.58800 0.36733 0.81700 -0.30600
O 	O 	0.26500 0.47772 0.66870 -0.25900
O 	O 	0.27570 0.55718 0.63080 -0.24500
O 	O 	0.70410 0.49210 0.56370 -0.30300
O 	O 	0.74080 0.43420 0.66850 -0.17200
F 	F 	0.86890 0.50640 0.66180 -0.28500
F 	F 	0.87740 0.42820 0.67830 -0.27900
F 	F 	0.83050 0.45670 0.55710 -0.28200
Ag	Ag	0.00000 0.06328 0.25000 0.41700
Ag	Ag	0.50000 0.56328 0.25000 0.42300
Ag	Ag	0.00000 0.93672 0.75000 0.41800
Ag	Ag	0.50000 0.43672 0.75000 0.42300
