data_crystal

_cell_length_a 6.90410
_cell_length_b 18.74250
_cell_length_c 22.41910
_cell_angle_alpha 90.00000
_cell_angle_beta  97.68700
_cell_angle_gamma 90.00000

_symmetry_space_group_name_	'P 1'
_symmetry_space_group_name_H-M	'P 1'

loop_
_symmetry_equiv_pos_as_xyz
  x,y,z

loop_
_atom_site_label
_atom_site_type_symbol
_atom_site_fract_x
_atom_site_fract_y
_atom_site_fract_z
_atom_site_charge
Ag	Ag	0.85167 0.86231 0.58521 0.44000
Ag	Ag	0.57372 0.94743 0.64658 0.39100
Ag	Ag	0.47708 0.92574 0.50706 0.38000
Ag	Ag	0.13064 0.97516 0.55742 0.34500
Ag	Ag	0.91701 0.13292 0.54856 0.45700
Ag	Ag	0.91180 0.03499 0.67111 0.42000
C 	C 	0.75200 0.97100 0.57540 -0.39000
C 	C 	0.79980 0.02930 0.55560 -0.36400
C 	C 	0.91830 0.72750 0.50000 0.10500
C 	C 	0.86380 0.64810 0.49190 0.90100
C 	C 	0.34120 0.81830 0.59350 0.31600
C 	C 	0.36100 0.75330 0.63350 -0.15600
C 	C 	0.35880 0.68530 0.60760 0.10200
H 	H 	0.34700 0.68010 0.56600 0.07800
C 	C 	0.37450 0.62550 0.64480 -0.15200
H 	H 	0.36970 0.58010 0.62790 0.14800
C 	C 	0.39720 0.63330 0.70660 0.11400
H 	H 	0.40620 0.59310 0.73100 -0.05100
C 	C 	0.40680 0.70140 0.73280 -0.20100
C 	C 	0.38250 0.76080 0.69550 0.09300
H 	H 	0.38050 0.80610 0.71230 -0.02300
C 	C 	0.44100 0.70710 0.80010 0.38300
F 	F 	0.73800 0.62790 0.52480 -0.48600
F 	F 	0.02000 0.60780 0.50420 -0.44800
F 	F 	0.79410 0.63100 0.43670 -0.46700
O 	O 	0.89490 0.75340 0.54890 -0.26100
O 	O 	0.98340 0.75600 0.45590 -0.22700
O 	O 	0.27090 0.87450 0.61450 -0.47700
O 	O 	0.39850 0.81380 0.54300 -0.38900
O 	O 	0.41180 0.77050 0.82420 -0.43300
H 	H 	0.31060 0.78810 0.80700 0.26100
O 	O 	0.50090 0.65620 0.83240 -0.41100
Ag	Ag	0.64833 0.36231 0.91479 0.44100
Ag	Ag	0.92628 0.44743 0.85342 0.39100
Ag	Ag	0.02292 0.42574 0.99294 0.38300
Ag	Ag	0.36936 0.47516 0.94258 0.34700
Ag	Ag	0.58299 0.63292 0.95144 0.45900
Ag	Ag	0.58820 0.53499 0.82889 0.41900
C 	C 	0.74800 0.47100 0.92460 -0.39000
C 	C 	0.70020 0.52930 0.94440 -0.36200
C 	C 	0.58170 0.22750 -0.00000 0.09900
C 	C 	0.63620 0.14810 0.00810 0.89000
C 	C 	0.15880 0.31830 0.90650 0.31600
C 	C 	0.13900 0.25330 0.86650 -0.15500
C 	C 	0.14120 0.18530 0.89240 0.10200
H 	H 	0.15300 0.18010 0.93400 0.08000
C 	C 	0.12550 0.12550 0.85520 -0.15200
H 	H 	0.13030 0.08010 0.87210 0.14900
C 	C 	0.10280 0.13330 0.79340 0.11400
H 	H 	0.09380 0.09310 0.76900 -0.05100
C 	C 	0.09320 0.20140 0.76720 -0.20100
C 	C 	0.11750 0.26080 0.80450 0.09300
H 	H 	0.11950 0.30610 0.78770 -0.02300
C 	C 	0.05900 0.20710 0.69990 0.38400
F 	F 	0.76200 0.12790 0.97520 -0.48000
F 	F 	0.48000 0.10780 0.99580 -0.44000
F 	F 	0.70590 0.13100 0.06330 -0.46800
O 	O 	0.60510 0.25340 0.95110 -0.25500
O 	O 	0.51660 0.25600 0.04410 -0.22700
O 	O 	0.22910 0.37450 0.88550 -0.47600
O 	O 	0.10150 0.31380 0.95700 -0.38700
O 	O 	0.08820 0.27050 0.67580 -0.43400
H 	H 	0.18940 0.28810 0.69300 0.26100
O 	O 	0.99910 0.15620 0.66760 -0.41100
Ag	Ag	0.14833 0.13769 0.41479 0.44000
Ag	Ag	0.42628 0.05257 0.35342 0.39100
Ag	Ag	0.52292 0.07426 0.49294 0.38000
Ag	Ag	0.86936 0.02484 0.44258 0.34500
Ag	Ag	0.08299 0.86708 0.45144 0.45700
Ag	Ag	0.08820 0.96501 0.32889 0.42000
C 	C 	0.24800 0.02900 0.42460 -0.39100
C 	C 	0.20020 0.97070 0.44440 -0.36300
C 	C 	0.08170 0.27250 0.50000 0.10500
C 	C 	0.13620 0.35190 0.50810 0.90100
C 	C 	0.65880 0.18170 0.40650 0.31600
C 	C 	0.63900 0.24670 0.36650 -0.15600
C 	C 	0.64120 0.31470 0.39240 0.10200
H 	H 	0.65300 0.31990 0.43400 0.07800
C 	C 	0.62550 0.37450 0.35520 -0.15200
H 	H 	0.63030 0.41990 0.37210 0.14800
C 	C 	0.60280 0.36670 0.29340 0.11400
H 	H 	0.59380 0.40690 0.26900 -0.05100
C 	C 	0.59320 0.29860 0.26720 -0.20100
C 	C 	0.61750 0.23920 0.30450 0.09300
H 	H 	0.61950 0.19390 0.28770 -0.02300
C 	C 	0.55900 0.29290 0.19990 0.38300
F 	F 	0.26200 0.37210 0.47520 -0.48600
F 	F 	0.98000 0.39220 0.49580 -0.44700
F 	F 	0.20590 0.36900 0.56330 -0.46700
O 	O 	0.10510 0.24660 0.45110 -0.26100
O 	O 	0.01660 0.24400 0.54410 -0.22700
O 	O 	0.72910 0.12550 0.38550 -0.47700
O 	O 	0.60150 0.18620 0.45700 -0.38900
O 	O 	0.58820 0.22950 0.17580 -0.43400
H 	H 	0.68940 0.21190 0.19300 0.26100
O 	O 	0.49910 0.34380 0.16760 -0.41200
Ag	Ag	0.35167 0.63769 0.08521 0.44000
Ag	Ag	0.07372 0.55257 0.14658 0.39100
Ag	Ag	0.97708 0.57426 0.00706 0.37800
Ag	Ag	0.63064 0.52484 0.05742 0.34400
Ag	Ag	0.41701 0.36708 0.04856 0.45500
Ag	Ag	0.41180 0.46501 0.17111 0.41900
C 	C 	0.25200 0.52900 0.07540 -0.39000
C 	C 	0.29980 0.47070 0.05560 -0.36700
C 	C 	0.41830 0.77250 -0.00000 0.09600
C 	C 	0.36380 0.85190 0.99190 0.91000
C 	C 	0.84120 0.68170 0.09350 0.31600
C 	C 	0.86100 0.74670 0.13350 -0.15600
C 	C 	0.85880 0.81470 0.10760 0.10300
H 	H 	0.84700 0.81990 0.06600 0.07800
C 	C 	0.87450 0.87450 0.14480 -0.15300
H 	H 	0.86970 0.91990 0.12790 0.14900
C 	C 	0.89720 0.86670 0.20660 0.11500
H 	H 	0.90620 0.90690 0.23100 -0.05100
C 	C 	0.90680 0.79860 0.23280 -0.20100
C 	C 	0.88250 0.73920 0.19550 0.09300
H 	H 	0.88050 0.69390 0.21230 -0.02300
C 	C 	0.94100 0.79290 0.30010 0.38400
F 	F 	0.23800 0.87210 0.02480 -0.48900
F 	F 	0.52000 0.89220 0.00420 -0.45100
F 	F 	0.29410 0.86900 0.93670 -0.46800
O 	O 	0.39490 0.74660 0.04890 -0.25900
O 	O 	0.48340 0.74400 0.95590 -0.22200
O 	O 	0.77090 0.62550 0.11450 -0.47700
O 	O 	0.89850 0.68620 0.04300 -0.39000
O 	O 	0.91180 0.72950 0.32420 -0.43400
H 	H 	0.81060 0.71190 0.30700 0.26100
O 	O 	0.00090 0.84380 0.33240 -0.41200
