data_crystal

_cell_length_a 11.47700
_cell_length_b 11.47700
_cell_length_c 22.58500
_cell_angle_alpha 90.00000
_cell_angle_beta  90.00000
_cell_angle_gamma 120.00000

_symmetry_space_group_name_	'P 1'
_symmetry_space_group_name_H-M	'P 1'

loop_
_symmetry_equiv_pos_as_xyz
  x,y,z

loop_
_atom_site_label
_atom_site_type_symbol
_atom_site_fract_x
_atom_site_fract_y
_atom_site_fract_z
_atom_site_charge
Cd	Cd	0.53010 0.76505 0.91667 1.25000
Cd	Cd	0.23495 0.46990 0.58333 1.25000
Cd	Cd	0.23495 0.76505 0.25000 1.25000
Cd	Cd	0.46990 0.23495 0.41667 1.24500
Cd	Cd	0.76505 0.53010 0.08333 1.24200
Cd	Cd	0.76505 0.23495 0.75000 1.24100
B 	B 	0.64770 0.64770 -0.00000 1.82500
B 	B 	1.00000 0.35230 0.66667 1.71200
B 	B 	0.35230 0.00000 0.33333 1.71000
B 	B 	0.35230 0.35230 0.50000 2.05300
B 	B 	1.00000 0.64770 0.16667 1.71100
B 	B 	0.64770 0.00000 0.83333 1.70600
H 	H 	0.85780 0.81460 0.89000 -0.01900
H 	H 	0.82400 0.65890 0.92010 -0.03700
H 	H 	0.90070 0.80540 0.96410 -0.02300
H 	H 	0.33370 0.58230 0.03510 -0.02200
H 	H 	0.46550 0.62610 0.08620 -0.01600
H 	H 	0.39670 0.47230 0.04740 -0.02800
H 	H 	0.95680 0.14220 0.55667 -0.05300
H 	H 	0.83490 0.17600 0.58677 -0.03300
H 	H 	0.90470 0.09930 0.63077 -0.05300
H 	H 	0.24860 0.66630 0.70177 -0.00400
H 	H 	0.16060 0.53450 0.75287 0.00200
H 	H 	0.07560 0.60330 0.71407 0.02200
H 	H 	0.18540 0.04320 0.22333 -0.01900
H 	H 	0.34110 0.16510 0.25343 -0.01700
H 	H 	0.19460 0.09530 0.29743 -0.01500
H 	H 	0.41770 0.75140 0.36843 -0.01500
H 	H 	0.37390 0.83940 0.41953 -0.00000
H 	H 	0.52770 0.92440 0.38073 0.00600
H 	H 	0.14220 0.18540 0.39000 -0.03600
H 	H 	0.17600 0.34110 0.42010 -0.04500
H 	H 	0.09930 0.19460 0.46410 -0.04000
H 	H 	0.66630 0.41770 0.53510 -0.03600
H 	H 	0.53450 0.37390 0.58620 -0.03900
H 	H 	0.60330 0.52770 0.54740 -0.04100
H 	H 	0.04320 0.85780 0.05667 -0.01200
H 	H 	0.16510 0.82400 0.08677 -0.05300
H 	H 	0.09530 0.90070 0.13077 -0.02300
H 	H 	0.75140 0.33370 0.20177 -0.04000
H 	H 	0.83940 0.46550 0.25287 -0.05300
H 	H 	0.92440 0.39670 0.21407 -0.07600
H 	H 	0.81460 0.95680 0.72333 -0.03000
H 	H 	0.65890 0.83490 0.75343 -0.06000
H 	H 	0.80540 0.90470 0.79743 -0.05500
H 	H 	0.58230 0.24860 0.86843 -0.02400
H 	H 	0.62610 0.16060 0.91953 -0.03700
H 	H 	0.47230 0.07560 0.88073 -0.05200
H 	H 	0.04320 0.18540 0.77667 -0.02900
H 	H 	0.16510 0.34110 0.74657 -0.05900
H 	H 	0.09530 0.19460 0.70257 -0.05500
H 	H 	0.75140 0.41770 0.63157 -0.02700
H 	H 	0.83940 0.37390 0.58047 -0.05000
H 	H 	0.92440 0.52770 0.61927 -0.06000
H 	H 	0.81460 0.85780 0.11000 -0.03500
H 	H 	0.65890 0.82400 0.07990 -0.04900
H 	H 	0.80540 0.90070 0.03590 -0.05800
H 	H 	0.58230 0.33370 0.96490 -0.02700
H 	H 	0.62610 0.46550 0.91380 -0.04300
H 	H 	0.47230 0.39670 0.95260 -0.03400
H 	H 	0.14220 0.95680 0.44333 0.00700
H 	H 	0.17600 0.83490 0.41323 -0.04300
H 	H 	0.09930 0.90470 0.36923 -0.01700
H 	H 	0.66630 0.24860 0.29823 -0.03900
H 	H 	0.53450 0.16060 0.24713 -0.05200
H 	H 	0.60330 0.07560 0.28593 -0.07500
H 	H 	0.95680 0.81460 0.27667 -0.01800
H 	H 	0.83490 0.65890 0.24657 -0.01600
H 	H 	0.90470 0.80540 0.20257 -0.01500
H 	H 	0.24860 0.58230 0.13157 -0.02000
H 	H 	0.16060 0.62610 0.08047 -0.01300
H 	H 	0.07560 0.47230 0.11927 -0.00200
H 	H 	0.18540 0.14220 0.61000 -0.03000
H 	H 	0.34110 0.17600 0.57990 -0.05900
H 	H 	0.19460 0.09930 0.53590 -0.05900
H 	H 	0.41770 0.66630 0.46490 -0.02400
H 	H 	0.37390 0.53450 0.41380 -0.03700
H 	H 	0.52770 0.60330 0.45260 -0.03800
H 	H 	0.85780 0.04320 0.94333 -0.03600
H 	H 	0.82400 0.16510 0.91323 -0.02300
H 	H 	0.90070 0.09530 0.86923 -0.04800
H 	H 	0.33370 0.75140 0.79823 -0.00300
H 	H 	0.46550 0.83940 0.74713 0.00200
H 	H 	0.39670 0.92440 0.78593 0.02300
C 	C 	0.96190 0.51220 0.96820 0.06000
C 	C 	0.82820 0.75330 0.92950 0.25200
C 	C 	0.42290 0.57650 0.04460 0.13400
C 	C 	0.55030 0.03810 0.63487 -0.03800
C 	C 	0.92510 0.17180 0.59617 0.12800
C 	C 	0.15360 0.57710 0.71127 0.17700
C 	C 	0.48780 0.44970 0.30153 0.14600
C 	C 	0.24670 0.07490 0.26283 0.10900
C 	C 	0.42350 0.84640 0.37793 0.18300
C 	C 	0.03810 0.48780 0.46820 0.33600
C 	C 	0.17180 0.24670 0.42950 0.28600
C 	C 	0.57710 0.42350 0.54460 0.24100
C 	C 	0.44970 0.96190 0.13487 0.31400
C 	C 	0.07490 0.82820 0.09617 0.36600
C 	C 	0.84640 0.42290 0.21127 0.21600
C 	C 	0.51220 0.55030 0.80153 0.15100
C 	C 	0.75330 0.92510 0.76283 0.37900
C 	C 	0.57650 0.15360 0.87793 0.20300
C 	C 	0.44970 0.48780 0.69847 0.15000
C 	C 	0.07490 0.24670 0.73717 0.37800
C 	C 	0.84640 0.42350 0.62207 0.20900
C 	C 	0.51220 0.96190 0.03180 0.23100
C 	C 	0.75330 0.82820 0.07050 0.26600
C 	C 	0.57650 0.42290 0.95540 0.28600
C 	C 	0.03810 0.55030 0.36513 0.33400
C 	C 	0.17180 0.92510 0.40383 0.35700
C 	C 	0.57710 0.15360 0.28873 0.21500
C 	C 	0.55030 0.51220 0.19847 0.14400
C 	C 	0.92510 0.75330 0.23717 0.10800
C 	C 	0.15360 0.57650 0.12207 0.18900
C 	C 	0.48780 0.03810 0.53180 -0.03900
C 	C 	0.24670 0.17180 0.57050 0.29300
C 	C 	0.42350 0.57710 0.45540 0.23600
C 	C 	0.96190 0.44970 0.86513 -0.02100
C 	C 	0.82820 0.07490 0.90383 0.11800
C 	C 	0.42290 0.84640 0.78873 0.17600
C 	C 	0.03350 0.51675 0.91667 0.05300
C 	C 	0.17490 0.58745 0.91667 0.12800
C 	C 	0.48325 0.96650 0.58333 0.08900
C 	C 	0.41255 0.82510 0.58333 0.09900
C 	C 	0.48325 0.51675 0.25000 -0.18700
C 	C 	0.41255 0.58745 0.25000 0.15300
C 	C 	0.96650 0.48325 0.41667 -0.46500
C 	C 	0.82510 0.41255 0.41667 0.20000
C 	C 	0.51675 0.03350 0.08333 -0.42200
C 	C 	0.58745 0.17490 0.08333 0.17000
C 	C 	0.51675 0.48325 0.75000 -0.18800
C 	C 	0.58745 0.41255 0.75000 0.14600
N 	N 	0.90110 0.50870 0.00840 -0.27400
N 	N 	0.60760 0.09890 0.67507 -0.20500
N 	N 	0.49130 0.39240 0.34173 -0.24000
N 	N 	0.09890 0.49130 0.50840 -0.27100
N 	N 	0.39240 0.90110 0.17507 -0.26800
N 	N 	0.50870 0.60760 0.84173 -0.23700
N 	N 	0.39240 0.49130 0.65827 -0.23800
N 	N 	0.50870 0.90110 0.99160 -0.20100
N 	N 	0.09890 0.60760 0.32493 -0.27300
N 	N 	0.60760 0.50870 0.15827 -0.24100
N 	N 	0.49130 0.09890 0.49160 -0.20700
N 	N 	0.90110 0.39240 0.82493 -0.20900
N 	N 	0.28860 0.64430 0.91667 -0.20700
N 	N 	0.35570 0.71140 0.58333 -0.20800
N 	N 	0.35570 0.64430 0.25000 -0.23500
N 	N 	0.71140 0.35570 0.41667 -0.26900
N 	N 	0.64430 0.28860 0.08333 -0.27100
N 	N 	0.64430 0.35570 0.75000 -0.24400
O 	O 	0.70620 0.72930 0.94710 -0.76100
O 	O 	0.51830 0.64050 0.99870 -0.72400
O 	O 	0.02310 0.29380 0.61377 -0.65000
O 	O 	0.12220 0.48170 0.66537 -0.72400
O 	O 	0.27070 0.97690 0.28043 -0.64100
O 	O 	0.35950 0.87780 0.33203 -0.72700
O 	O 	0.29380 0.27070 0.44710 -0.85800
O 	O 	0.48170 0.35950 0.49870 -0.86400
O 	O 	0.97690 0.70620 0.11377 -0.86100
O 	O 	0.87780 0.51830 0.16537 -0.80000
O 	O 	0.72930 0.02310 0.78043 -0.86800
O 	O 	0.64050 0.12220 0.83203 -0.79300
O 	O 	0.97690 0.27070 0.71957 -0.86800
O 	O 	0.87780 0.35950 0.66797 -0.79600
O 	O 	0.72930 0.70620 0.05290 -0.81400
O 	O 	0.64050 0.51830 0.00130 -0.86500
O 	O 	0.29380 0.02310 0.38623 -0.85400
O 	O 	0.48170 0.12220 0.33463 -0.79800
O 	O 	0.02310 0.72930 0.21957 -0.64000
O 	O 	0.12220 0.64050 0.16797 -0.72900
O 	O 	0.27070 0.29380 0.55290 -0.85100
O 	O 	0.35950 0.48170 0.50130 -0.85900
O 	O 	0.70620 0.97690 0.88623 -0.64300
O 	O 	0.51830 0.87780 0.83463 -0.72100
