data_crystal

_cell_length_a 18.87800
_cell_length_b 18.87800
_cell_length_c 37.04300
_cell_angle_alpha 90.00000
_cell_angle_beta  90.00000
_cell_angle_gamma 90.00000

_symmetry_space_group_name_	'P 1'
_symmetry_space_group_name_H-M	'P 1'

loop_
_symmetry_equiv_pos_as_xyz
  x,y,z

loop_
_atom_site_label
_atom_site_type_symbol
_atom_site_fract_x
_atom_site_fract_y
_atom_site_fract_z
_atom_site_charge
Al	Al	0.86862 0.09558 0.08073 2.39800
O 	O 	0.80240 0.16970 0.08450 -0.67200
O 	O 	0.06350 0.84050 0.10250 -0.63300
O 	O 	0.79640 0.03460 0.06117 -0.64400
O 	O 	0.93250 0.02170 0.07946 -0.85100
O 	O 	0.89470 0.12770 0.03497 -0.85300
O 	O 	0.66260 0.56960 0.37273 -0.65100
O 	O 	0.56570 0.52040 0.34775 -0.66600
O 	O 	0.79870 0.23280 0.03321 -0.65300
O 	O 	0.96700 0.90570 0.11604 -0.56900
C 	C 	0.96170 0.78360 0.12597 -0.12400
O 	O 	0.76230 0.09670 0.01165 -0.67200
C 	C 	0.00040 0.84680 0.11393 0.41700
C 	C 	0.79230 0.29360 0.08877 -0.17200
C 	C 	0.62710 0.54470 0.34611 0.53400
C 	C 	0.79070 0.35940 0.07198 0.08500
H 	H 	0.78800 0.36250 0.04640 0.03200
C 	C 	0.66400 0.54550 0.31033 -0.16300
C 	C 	0.79730 0.22750 0.06715 0.52800
C 	C 	0.63190 0.51370 0.28067 0.07400
H 	H 	0.58750 0.49060 0.28340 0.02900
C 	C 	0.79560 0.28940 0.12630 0.08200
H 	H 	0.79680 0.24450 0.13790 0.03000
C 	C 	0.79720 0.35120 0.14675 -0.12700
H 	H 	0.79860 0.34810 0.17230 0.08000
C 	C 	0.73020 0.57700 0.30652 0.07700
H 	H 	0.75260 0.59750 0.32700 0.03900
C 	C 	0.84030 0.54130 0.14170 -0.08400
H 	H 	0.86450 0.53950 0.11920 0.06800
C 	C 	0.79300 0.42080 0.09270 -0.12700
H 	H 	0.79200 0.46570 0.08120 0.08200
C 	C 	0.89450 0.79200 0.14180 0.06500
H 	H 	0.87470 0.83800 0.14450 0.05200
C 	C 	0.66450 0.51560 0.24700 -0.11900
H 	H 	0.64120 0.49600 0.22660 0.07400
C 	C 	0.85670 0.73200 0.15360 -0.11700
H 	H 	0.81100 0.73760 0.16390 0.08100
C 	C 	0.73260 0.54670 0.24310 0.05800
C 	C 	0.84550 0.60150 0.16270 0.02400
C 	C 	0.79680 0.41690 0.13048 0.06700
C 	C 	0.80000 0.48280 0.15280 0.02800
C 	C 	0.99070 0.71550 0.12222 0.17500
H 	H 	0.03640 0.70930 0.11200 -0.03900
C 	C 	0.76400 0.57900 0.27330 -0.11900
H 	H 	0.80850 0.60210 0.27100 0.08200
C 	C 	0.80750 0.60390 0.19580 -0.08400
H 	H 	0.80860 0.64570 0.21000 0.06600
C 	C 	0.76540 0.48620 0.18590 -0.08800
H 	H 	0.73880 0.44640 0.19380 0.06300
C 	C 	0.75540 0.04740 0.03426 0.59000
H 	H 	0.71610 0.01660 0.03110 -0.13000
C 	C 	0.76820 0.54520 0.20770 0.03100
C 	C 	0.88610 0.66370 0.15030 0.08100
C 	C 	0.95130 0.65740 0.13370 -0.16400
H 	H 	0.97010 0.61130 0.12990 0.10500
Al	Al	0.13138 0.90442 0.08073 2.39900
O 	O 	0.19760 0.83030 0.08450 -0.67100
O 	O 	0.93650 0.15950 0.10250 -0.67000
O 	O 	0.20360 0.96540 0.06117 -0.62200
O 	O 	0.06750 0.97830 0.07946 -0.84000
O 	O 	0.10530 0.87230 0.03497 -0.85900
O 	O 	0.33740 0.43040 0.37273 -0.65400
O 	O 	0.43430 0.47960 0.34775 -0.66500
O 	O 	0.20130 0.76720 0.03321 -0.65500
O 	O 	0.03300 0.09430 0.11604 -0.74700
C 	C 	0.03830 0.21640 0.12597 -0.22200
O 	O 	0.23770 0.90330 0.01165 -0.65900
C 	C 	0.99960 0.15320 0.11393 0.64800
C 	C 	0.20770 0.70640 0.08877 -0.17100
C 	C 	0.37290 0.45530 0.34611 0.53300
C 	C 	0.20930 0.64060 0.07198 0.07900
H 	H 	0.21200 0.63750 0.04640 0.02800
C 	C 	0.33600 0.45450 0.31033 -0.16500
C 	C 	0.20270 0.77250 0.06715 0.52700
C 	C 	0.36810 0.48630 0.28067 0.07100
H 	H 	0.41250 0.50940 0.28340 0.03000
C 	C 	0.20440 0.71060 0.12630 0.07800
H 	H 	0.20320 0.75550 0.13790 0.02800
C 	C 	0.20280 0.64880 0.14675 -0.12900
H 	H 	0.20140 0.65190 0.17230 0.07200
C 	C 	0.26980 0.42300 0.30652 0.07200
H 	H 	0.24740 0.40250 0.32700 0.03100
C 	C 	0.15970 0.45870 0.14170 -0.09500
H 	H 	0.13550 0.46050 0.11920 0.05800
C 	C 	0.20700 0.57920 0.09270 -0.12800
H 	H 	0.20800 0.53430 0.08120 0.07300
C 	C 	0.10550 0.20800 0.14180 0.08600
H 	H 	0.12530 0.16200 0.14450 0.01500
C 	C 	0.33550 0.48440 0.24700 -0.11900
H 	H 	0.35880 0.50400 0.22660 0.07300
C 	C 	0.14330 0.26800 0.15360 -0.12100
H 	H 	0.18900 0.26240 0.16390 0.07000
C 	C 	0.26740 0.45330 0.24310 0.05100
C 	C 	0.15450 0.39850 0.16270 0.03000
C 	C 	0.20320 0.58310 0.13048 0.05900
C 	C 	0.20000 0.51720 0.15280 0.02500
C 	C 	0.00930 0.28450 0.12222 -0.02300
H 	H 	0.96360 0.29070 0.11200 0.09400
C 	C 	0.23600 0.42100 0.27330 -0.12100
H 	H 	0.19150 0.39790 0.27100 0.06800
C 	C 	0.19250 0.39610 0.19580 -0.09500
H 	H 	0.19140 0.35430 0.21000 0.06000
C 	C 	0.23460 0.51380 0.18590 -0.09400
H 	H 	0.26120 0.55360 0.19380 0.06300
C 	C 	0.24460 0.95260 0.03426 0.58500
H 	H 	0.28390 0.98340 0.03110 -0.10400
C 	C 	0.23180 0.45480 0.20770 0.02900
C 	C 	0.11390 0.33630 0.15030 0.03700
C 	C 	0.04870 0.34260 0.13370 -0.07900
H 	H 	0.02990 0.38870 0.12990 0.04300
Al	Al	0.40442 0.36862 0.58073 2.39900
O 	O 	0.33030 0.30240 0.58450 -0.67300
O 	O 	0.65950 0.56350 0.60250 -0.64900
O 	O 	0.46540 0.29640 0.56117 -0.63300
O 	O 	0.47830 0.43250 0.57946 -0.84600
O 	O 	0.37230 0.39470 0.53497 -0.84800
O 	O 	0.93040 0.16260 0.87273 -0.65000
O 	O 	0.97960 0.06570 0.84775 -0.65700
O 	O 	0.26720 0.29870 0.53321 -0.65000
O 	O 	0.59430 0.46700 0.61604 -0.65400
C 	C 	0.71640 0.46170 0.62597 -0.17000
O 	O 	0.40330 0.26230 0.51165 -0.65900
C 	C 	0.65320 0.50040 0.61393 0.52700
C 	C 	0.20640 0.29230 0.58877 -0.17400
C 	C 	0.95530 0.12710 0.84611 0.54400
C 	C 	0.14060 0.29070 0.57198 0.08000
H 	H 	0.13750 0.28800 0.54640 0.02600
C 	C 	0.95450 0.16400 0.81033 -0.17900
C 	C 	0.27250 0.29730 0.56715 0.52500
C 	C 	0.98630 0.13190 0.78067 0.13600
H 	H 	0.00940 0.08750 0.78340 -0.04600
C 	C 	0.21060 0.29560 0.62630 0.07900
H 	H 	0.25550 0.29680 0.63790 0.02600
C 	C 	0.14880 0.29720 0.64675 -0.13400
H 	H 	0.15190 0.29860 0.67230 0.07300
C 	C 	0.92300 0.23020 0.80652 0.07300
H 	H 	0.90250 0.25260 0.82700 0.04000
C 	C 	0.95870 0.34030 0.64170 -0.02200
H 	H 	0.96050 0.36450 0.61920 0.06000
C 	C 	0.07920 0.29300 0.59270 -0.13600
H 	H 	0.03430 0.29200 0.58120 0.06400
C 	C 	0.70800 0.39450 0.64180 0.07800
H 	H 	0.66200 0.37470 0.64450 0.03300
C 	C 	0.98440 0.16450 0.74700 -0.03200
H 	H 	0.00400 0.14120 0.72660 -0.00400
C 	C 	0.76800 0.35670 0.65360 -0.12000
H 	H 	0.76240 0.31100 0.66390 0.07600
C 	C 	0.95330 0.23260 0.74310 0.01000
C 	C 	0.89850 0.34550 0.66270 0.02300
C 	C 	0.08310 0.29680 0.63048 0.06400
C 	C 	0.01720 0.30000 0.65280 -0.01700
C 	C 	0.78450 0.49070 0.62222 0.08500
H 	H 	0.79070 0.53640 0.61200 0.02700
C 	C 	0.92100 0.26400 0.77330 -0.09600
H 	H 	0.89790 0.30850 0.77100 0.07100
C 	C 	0.89610 0.30750 0.69580 -0.11000
H 	H 	0.85430 0.30860 0.71000 0.07100
C 	C 	0.01380 0.26540 0.68590 -0.17200
H 	H 	0.05360 0.23880 0.69380 0.07500
C 	C 	0.45260 0.25540 0.53426 0.58600
H 	H 	0.48340 0.21610 0.53110 -0.11800
C 	C 	0.95480 0.26820 0.70770 0.11700
C 	C 	0.83630 0.38610 0.65030 0.06800
C 	C 	0.84260 0.45130 0.63370 -0.12500
H 	H 	0.88870 0.47010 0.62990 0.08500
Al	Al	0.59558 0.63138 0.58073 2.39900
O 	O 	0.66970 0.69760 0.58450 -0.66700
O 	O 	0.34050 0.43650 0.60250 -0.64900
O 	O 	0.53460 0.70360 0.56117 -0.62700
O 	O 	0.52170 0.56750 0.57946 -0.84500
O 	O 	0.62770 0.60530 0.53497 -0.84800
O 	O 	0.06960 0.83740 0.87273 -0.65200
O 	O 	0.02040 0.93430 0.84775 -0.66700
O 	O 	0.73280 0.70130 0.53321 -0.64100
O 	O 	0.40570 0.53300 0.61604 -0.65300
C 	C 	0.28360 0.53830 0.62597 -0.16600
O 	O 	0.59670 0.73770 0.51165 -0.65100
C 	C 	0.34680 0.49960 0.61393 0.52500
C 	C 	0.79360 0.70770 0.58877 -0.16100
C 	C 	0.04470 0.87290 0.84611 0.52300
C 	C 	0.85940 0.70930 0.57198 0.08200
H 	H 	0.86250 0.71200 0.54640 0.04400
C 	C 	0.04550 0.83600 0.81033 -0.15000
C 	C 	0.72750 0.70270 0.56715 0.52600
C 	C 	0.01370 0.86810 0.78067 0.01800
H 	H 	0.99060 0.91250 0.78340 0.09800
C 	C 	0.78940 0.70440 0.62630 0.07800
H 	H 	0.74450 0.70320 0.63790 0.03300
C 	C 	0.85120 0.70280 0.64675 -0.11900
H 	H 	0.84810 0.70140 0.67230 0.07900
C 	C 	0.07700 0.76980 0.80652 0.07600
H 	H 	0.09750 0.74740 0.82700 0.03100
C 	C 	0.04130 0.65970 0.64170 -0.15500
H 	H 	0.03950 0.63550 0.61920 0.06900
C 	C 	0.92080 0.70700 0.59270 -0.11400
H 	H 	0.96570 0.70800 0.58120 0.09500
C 	C 	0.29200 0.60550 0.64180 0.07100
H 	H 	0.33800 0.62530 0.64450 0.03700
C 	C 	0.01560 0.83550 0.74700 -0.19800
H 	H 	0.99600 0.85880 0.72660 0.14400
C 	C 	0.23200 0.64330 0.65360 -0.11400
H 	H 	0.23760 0.68900 0.66390 0.07600
C 	C 	0.04670 0.76740 0.74310 0.09500
C 	C 	0.10150 0.65450 0.66270 0.03300
C 	C 	0.91690 0.70320 0.63048 0.06000
C 	C 	0.98280 0.70000 0.65280 0.07100
C 	C 	0.21550 0.50930 0.62222 0.07200
H 	H 	0.20930 0.46360 0.61200 0.02600
C 	C 	0.07900 0.73600 0.77330 -0.14100
H 	H 	0.10210 0.69150 0.77100 0.07800
C 	C 	0.10390 0.69250 0.69580 -0.07200
H 	H 	0.14570 0.69140 0.71000 0.05600
C 	C 	0.98620 0.73460 0.68590 -0.01600
H 	H 	0.94640 0.76120 0.69380 0.05200
C 	C 	0.54740 0.74460 0.53426 0.58400
H 	H 	0.51660 0.78390 0.53110 -0.10500
C 	C 	0.04520 0.73180 0.70770 -0.04900
C 	C 	0.16370 0.61390 0.65030 0.05000
C 	C 	0.15740 0.54870 0.63370 -0.11700
H 	H 	0.11130 0.52990 0.62990 0.06500
Al	Al	0.63138 0.59558 0.41927 2.39900
O 	O 	0.69760 0.66970 0.41550 -0.66700
O 	O 	0.43650 0.34050 0.39750 -0.64900
O 	O 	0.70360 0.53460 0.43883 -0.62700
O 	O 	0.56750 0.52170 0.42054 -0.84500
O 	O 	0.60530 0.62770 0.46503 -0.84800
O 	O 	0.83740 0.06960 0.12727 -0.65300
O 	O 	0.93430 0.02040 0.15225 -0.66700
O 	O 	0.70130 0.73280 0.46679 -0.64100
O 	O 	0.53300 0.40570 0.38396 -0.65300
C 	C 	0.53830 0.28360 0.37403 -0.16600
O 	O 	0.73770 0.59670 0.48835 -0.65100
C 	C 	0.49960 0.34680 0.38607 0.52500
C 	C 	0.70770 0.79360 0.41123 -0.16100
C 	C 	0.87290 0.04470 0.15389 0.52300
C 	C 	0.70930 0.85940 0.42802 0.08200
H 	H 	0.71200 0.86250 0.45360 0.04400
C 	C 	0.83600 0.04550 0.18967 -0.15100
C 	C 	0.70270 0.72750 0.43285 0.52600
C 	C 	0.86810 0.01370 0.21933 0.01800
H 	H 	0.91250 0.99060 0.21660 0.09800
C 	C 	0.70440 0.78940 0.37370 0.07800
H 	H 	0.70320 0.74450 0.36210 0.03300
C 	C 	0.70280 0.85120 0.35325 -0.11900
H 	H 	0.70140 0.84810 0.32770 0.07900
C 	C 	0.76980 0.07700 0.19348 0.07600
H 	H 	0.74740 0.09750 0.17300 0.03000
C 	C 	0.65970 0.04130 0.35830 -0.15500
H 	H 	0.63550 0.03950 0.38080 0.06900
C 	C 	0.70700 0.92080 0.40730 -0.11400
H 	H 	0.70800 0.96570 0.41880 0.09500
C 	C 	0.60550 0.29200 0.35820 0.07100
H 	H 	0.62530 0.33800 0.35550 0.03700
C 	C 	0.83550 0.01560 0.25300 -0.19800
H 	H 	0.85880 0.99600 0.27340 0.14500
C 	C 	0.64330 0.23200 0.34640 -0.11400
H 	H 	0.68900 0.23760 0.33610 0.07600
C 	C 	0.76740 0.04670 0.25690 0.09500
C 	C 	0.65450 0.10150 0.33730 0.03300
C 	C 	0.70320 0.91690 0.36952 0.06000
C 	C 	0.70000 0.98280 0.34720 0.07100
C 	C 	0.50930 0.21550 0.37778 0.07200
H 	H 	0.46360 0.20930 0.38800 0.02600
C 	C 	0.73600 0.07900 0.22670 -0.14200
H 	H 	0.69150 0.10210 0.22900 0.07800
C 	C 	0.69250 0.10390 0.30420 -0.07200
H 	H 	0.69140 0.14570 0.29000 0.05600
C 	C 	0.73460 0.98620 0.31410 -0.01600
H 	H 	0.76120 0.94640 0.30620 0.05200
C 	C 	0.74460 0.54740 0.46574 0.58400
H 	H 	0.78390 0.51660 0.46890 -0.10500
C 	C 	0.73180 0.04520 0.29230 -0.04900
C 	C 	0.61390 0.16370 0.34970 0.05000
C 	C 	0.54870 0.15740 0.36630 -0.11700
H 	H 	0.52990 0.11130 0.37010 0.06500
Al	Al	0.36862 0.40442 0.41927 2.39900
O 	O 	0.30240 0.33030 0.41550 -0.67300
O 	O 	0.56350 0.65950 0.39750 -0.64900
O 	O 	0.29640 0.46540 0.43883 -0.63200
O 	O 	0.43250 0.47830 0.42054 -0.84600
O 	O 	0.39470 0.37230 0.46503 -0.84800
O 	O 	0.16260 0.93040 0.12727 -0.65100
O 	O 	0.06570 0.97960 0.15225 -0.65700
O 	O 	0.29870 0.26720 0.46679 -0.65000
O 	O 	0.46700 0.59430 0.38396 -0.65400
C 	C 	0.46170 0.71640 0.37403 -0.17000
O 	O 	0.26230 0.40330 0.48835 -0.65900
C 	C 	0.50040 0.65320 0.38607 0.52700
C 	C 	0.29230 0.20640 0.41123 -0.17400
C 	C 	0.12710 0.95530 0.15389 0.54400
C 	C 	0.29070 0.14060 0.42802 0.08000
H 	H 	0.28800 0.13750 0.45360 0.02600
C 	C 	0.16400 0.95450 0.18967 -0.18000
C 	C 	0.29730 0.27250 0.43285 0.52500
C 	C 	0.13190 0.98630 0.21933 0.13600
H 	H 	0.08750 0.00940 0.21660 -0.04600
C 	C 	0.29560 0.21060 0.37370 0.07900
H 	H 	0.29680 0.25550 0.36210 0.02600
C 	C 	0.29720 0.14880 0.35325 -0.13400
H 	H 	0.29860 0.15190 0.32770 0.07200
C 	C 	0.23020 0.92300 0.19348 0.07300
H 	H 	0.25260 0.90250 0.17300 0.03900
C 	C 	0.34030 0.95870 0.35830 -0.02100
H 	H 	0.36450 0.96050 0.38080 0.06000
C 	C 	0.29300 0.07920 0.40730 -0.13600
H 	H 	0.29200 0.03430 0.41880 0.06400
C 	C 	0.39450 0.70800 0.35820 0.07800
H 	H 	0.37470 0.66200 0.35550 0.03300
C 	C 	0.16450 0.98440 0.25300 -0.03200
H 	H 	0.14120 0.00400 0.27340 -0.00400
C 	C 	0.35670 0.76800 0.34640 -0.12100
H 	H 	0.31100 0.76240 0.33610 0.07600
C 	C 	0.23260 0.95330 0.25690 0.01000
C 	C 	0.34550 0.89850 0.33730 0.02300
C 	C 	0.29680 0.08310 0.36952 0.06400
C 	C 	0.30000 0.01720 0.34720 -0.01700
C 	C 	0.49070 0.78450 0.37778 0.08500
H 	H 	0.53640 0.79070 0.38800 0.02700
C 	C 	0.26400 0.92100 0.22670 -0.09700
H 	H 	0.30850 0.89790 0.22900 0.07100
C 	C 	0.30750 0.89610 0.30420 -0.11000
H 	H 	0.30860 0.85430 0.29000 0.07100
C 	C 	0.26540 0.01380 0.31410 -0.17200
H 	H 	0.23880 0.05360 0.30620 0.07500
C 	C 	0.25540 0.45260 0.46574 0.58600
H 	H 	0.21610 0.48340 0.46890 -0.11800
C 	C 	0.26820 0.95480 0.29230 0.11700
C 	C 	0.38610 0.83630 0.34970 0.06800
C 	C 	0.45130 0.84260 0.36630 -0.12500
H 	H 	0.47010 0.88870 0.37010 0.08500
Al	Al	0.09558 0.86862 0.91927 2.39900
O 	O 	0.16970 0.80240 0.91550 -0.66900
O 	O 	0.84050 0.06350 0.89750 -0.63000
O 	O 	0.03460 0.79640 0.93883 -0.63700
O 	O 	0.02170 0.93250 0.92054 -0.84600
O 	O 	0.12770 0.89470 0.96503 -0.83600
O 	O 	0.56960 0.66260 0.62727 -0.65000
O 	O 	0.52040 0.56570 0.65225 -0.66500
O 	O 	0.23280 0.79870 0.96679 -0.63600
O 	O 	0.90570 0.96700 0.88396 -0.56700
C 	C 	0.78360 0.96170 0.87403 -0.12200
O 	O 	0.09670 0.76230 0.98835 -0.65000
C 	C 	0.84680 0.00040 0.88607 0.41800
C 	C 	0.29360 0.79230 0.91123 -0.16500
C 	C 	0.54470 0.62710 0.65389 0.53400
C 	C 	0.35940 0.79070 0.92802 0.08300
H 	H 	0.36250 0.78800 0.95360 0.04100
C 	C 	0.54550 0.66400 0.68967 -0.16300
C 	C 	0.22750 0.79730 0.93285 0.52500
C 	C 	0.51370 0.63190 0.71933 0.07400
H 	H 	0.49060 0.58750 0.71660 0.03000
C 	C 	0.28940 0.79560 0.87370 0.07900
H 	H 	0.24450 0.79680 0.86210 0.03100
C 	C 	0.35120 0.79720 0.85325 -0.12400
H 	H 	0.34810 0.79860 0.82770 0.07900
C 	C 	0.57700 0.73020 0.69348 0.07700
H 	H 	0.59750 0.75260 0.67300 0.03900
C 	C 	0.54130 0.84030 0.85830 -0.08500
H 	H 	0.53950 0.86450 0.88080 0.07100
C 	C 	0.42080 0.79300 0.90730 -0.12200
H 	H 	0.46570 0.79200 0.91880 0.08500
C 	C 	0.79200 0.89450 0.85820 0.06600
H 	H 	0.83800 0.87470 0.85550 0.05300
C 	C 	0.51560 0.66450 0.75300 -0.11900
H 	H 	0.49600 0.64120 0.77340 0.07400
C 	C 	0.73200 0.85670 0.84640 -0.11500
H 	H 	0.73760 0.81100 0.83610 0.08200
C 	C 	0.54670 0.73260 0.75690 0.05800
C 	C 	0.60150 0.84550 0.83730 0.02600
C 	C 	0.41690 0.79680 0.86952 0.06600
C 	C 	0.48280 0.80000 0.84720 0.03000
C 	C 	0.71550 0.99070 0.87778 0.17600
H 	H 	0.70930 0.03640 0.88800 -0.03700
C 	C 	0.57900 0.76400 0.72670 -0.11900
H 	H 	0.60210 0.80850 0.72900 0.08200
C 	C 	0.60390 0.80750 0.80420 -0.08500
H 	H 	0.64570 0.80860 0.79000 0.06600
C 	C 	0.48620 0.76540 0.81410 -0.08800
H 	H 	0.44640 0.73880 0.80620 0.06400
C 	C 	0.04740 0.75540 0.96574 0.58600
H 	H 	0.01660 0.71610 0.96890 -0.11900
C 	C 	0.54520 0.76820 0.79230 0.03200
C 	C 	0.66370 0.88610 0.84970 0.08100
C 	C 	0.65740 0.95130 0.86630 -0.16300
H 	H 	0.61130 0.97010 0.87010 0.10700
Al	Al	0.90442 0.13138 0.91927 2.39800
O 	O 	0.83030 0.19760 0.91550 -0.66900
O 	O 	0.15950 0.93650 0.89750 -0.66900
O 	O 	0.96540 0.20360 0.93883 -0.61600
O 	O 	0.97830 0.06750 0.92054 -0.83500
O 	O 	0.87230 0.10530 0.96503 -0.84400
O 	O 	0.43040 0.33740 0.62727 -0.65400
O 	O 	0.47960 0.43430 0.65225 -0.66500
O 	O 	0.76720 0.20130 0.96679 -0.63700
O 	O 	0.09430 0.03300 0.88396 -0.74600
C 	C 	0.21640 0.03830 0.87403 -0.22000
O 	O 	0.90330 0.23770 0.98835 -0.63800
C 	C 	0.15320 0.99960 0.88607 0.64900
C 	C 	0.70640 0.20770 0.91123 -0.16400
C 	C 	0.45530 0.37290 0.65389 0.53300
C 	C 	0.64060 0.20930 0.92802 0.07700
H 	H 	0.63750 0.21200 0.95360 0.03700
C 	C 	0.45450 0.33600 0.68967 -0.16500
C 	C 	0.77250 0.20270 0.93285 0.52400
C 	C 	0.48630 0.36810 0.71933 0.07100
H 	H 	0.50940 0.41250 0.71660 0.03000
C 	C 	0.71060 0.20440 0.87370 0.07500
H 	H 	0.75550 0.20320 0.86210 0.02900
C 	C 	0.64880 0.20280 0.85325 -0.12500
H 	H 	0.65190 0.20140 0.82770 0.07200
C 	C 	0.42300 0.26980 0.69348 0.07200
H 	H 	0.40250 0.24740 0.67300 0.03100
C 	C 	0.45870 0.15970 0.85830 -0.09600
H 	H 	0.46050 0.13550 0.88080 0.06100
C 	C 	0.57920 0.20700 0.90730 -0.12300
H 	H 	0.53430 0.20800 0.91880 0.07700
C 	C 	0.20800 0.10550 0.85820 0.08700
H 	H 	0.16200 0.12530 0.85550 0.01600
C 	C 	0.48440 0.33550 0.75300 -0.11900
H 	H 	0.50400 0.35880 0.77340 0.07400
C 	C 	0.26800 0.14330 0.84640 -0.12000
H 	H 	0.26240 0.18900 0.83610 0.07100
C 	C 	0.45330 0.26740 0.75690 0.05100
C 	C 	0.39850 0.15450 0.83730 0.03100
C 	C 	0.58310 0.20320 0.86952 0.05700
C 	C 	0.51720 0.20000 0.84720 0.02700
C 	C 	0.28450 0.00930 0.87778 -0.02200
H 	H 	0.29070 0.96360 0.88800 0.09500
C 	C 	0.42100 0.23600 0.72670 -0.12000
H 	H 	0.39790 0.19150 0.72900 0.06800
C 	C 	0.39610 0.19250 0.80420 -0.09600
H 	H 	0.35430 0.19140 0.79000 0.06000
C 	C 	0.51380 0.23460 0.81410 -0.09500
H 	H 	0.55360 0.26120 0.80620 0.06300
C 	C 	0.95260 0.24460 0.96574 0.58000
H 	H 	0.98340 0.28390 0.96890 -0.09300
C 	C 	0.45480 0.23180 0.79230 0.03000
C 	C 	0.33630 0.11390 0.84970 0.03700
C 	C 	0.34260 0.04870 0.86630 -0.07800
H 	H 	0.38870 0.02990 0.87010 0.04400
Al	Al	0.83462 0.16538 -0.00000 2.39700
Al	Al	0.16538 0.83462 -0.00000 2.39700
Al	Al	0.33462 0.33462 0.50000 2.39800
Al	Al	0.66538 0.66538 0.50000 2.39800
Al	Al	-0.00000 0.00000 0.11447 2.39200
Al	Al	0.50000 0.50000 0.61447 2.39900
Al	Al	0.50000 0.50000 0.38553 2.39900
Al	Al	0.00000 0.00000 0.88553 2.39200
