data_crystal

_cell_length_a 23.06520
_cell_length_b 6.97310
_cell_length_c 22.41650
_cell_angle_alpha 90.00000
_cell_angle_beta  91.54000
_cell_angle_gamma 90.00000

_symmetry_space_group_name_	'P 1'
_symmetry_space_group_name_H-M	'P 1'

loop_
_symmetry_equiv_pos_as_xyz
  x,y,z

loop_
_atom_site_label
_atom_site_type_symbol
_atom_site_fract_x
_atom_site_fract_y
_atom_site_fract_z
_atom_site_charge
Ca	Ca	0.53250 0.95240 0.00690 1.50300
P 	P 	0.40860 0.97380 0.04250 0.43500
O 	O 	0.44180 0.78680 0.03080 -0.57100
O 	O 	0.44590 0.14100 0.02130 -0.58300
O 	O 	0.39950 0.99300 0.11040 -0.21000
C 	C 	0.33900 0.97100 0.00380 -0.25000
C 	C 	0.28730 0.97800 0.03420 0.17000
C 	C 	0.23510 0.99600 0.00180 -0.24600
C 	C 	0.23470 0.99400 0.93900 0.24100
C 	C 	0.28420 0.92500 0.91120 -0.16400
C 	C 	0.33790 0.94900 0.94160 0.21100
C 	C 	0.17790 0.04300 0.03040 0.30400
O 	O 	0.17580 0.07000 0.08470 -0.22500
O 	O 	0.13310 0.03800 0.99800 -0.30500
C 	C 	0.28140 0.86700 0.84600 0.33800
O 	O 	0.32850 0.86500 0.82000 -0.20500
O 	O 	0.23610 0.79600 0.82450 -0.17300
P 	P 	0.58150 0.44780 0.98680 0.53400
O 	O 	0.60030 0.47600 0.92160 -0.17300
O 	O 	0.54140 0.27330 0.99320 -0.48500
O 	O 	0.54940 0.62700 0.00720 -0.61000
C 	C 	0.64570 0.40700 0.03220 -0.18200
C 	C 	0.69690 0.49900 0.01770 0.08000
C 	C 	0.74600 0.47400 0.05500 -0.10800
C 	C 	0.73690 0.43200 0.11540 0.11000
C 	C 	0.68650 0.33000 0.12930 -0.09400
C 	C 	0.63770 0.35300 0.09150 0.07000
C 	C 	0.80570 0.51600 0.03170 0.24300
O 	O 	0.81160 0.50900 0.97660 -0.16400
O 	O 	0.84710 0.57300 0.06350 -0.33600
C 	C 	0.67600 0.27100 0.19360 0.31200
O 	O 	0.71770 0.29600 0.22910 -0.17900
O 	O 	0.62410 0.27700 0.20790 -0.21200
Ca	Ca	0.45860 0.46620 0.03140 1.49600
P 	P 	0.53730 0.59190 0.36330 0.39900
O 	O 	0.57010 0.60200 0.42400 -0.34200
O 	O 	0.52190 0.38100 0.34860 -0.20000
O 	O 	0.48280 0.72100 0.36330 -0.22300
C 	C 	0.58300 0.68300 0.30560 -0.10400
C 	C 	0.55790 0.78900 0.25950 0.12600
C 	C 	0.58920 0.82700 0.20860 -0.14000
C 	C 	0.65020 0.81200 0.21260 0.13800
C 	C 	0.67710 0.72900 0.26290 -0.12700
C 	C 	0.64210 0.63500 0.30401 0.13600
C 	C 	0.55870 0.90500 0.15300 0.36200
O 	O 	0.50530 0.92100 0.15610 -0.28600
O 	O 	0.58450 0.94100 0.10700 -0.38300
C 	C 	0.74260 0.71800 0.26880 0.33700
O 	O 	0.76430 0.66300 0.31700 -0.19500
O 	O 	0.77350 0.79400 0.23080 -0.19500
Ca	Ca	0.45707 0.08080 0.50910 1.50400
P 	P 	0.58230 0.07930 0.55430 0.43000
O 	O 	0.54480 0.25800 0.54940 -0.51200
O 	O 	0.54680 0.91300 0.52760 -0.57000
O 	O 	0.60130 0.03900 0.61990 -0.18800
C 	C 	0.64690 0.10600 0.51100 -0.11900
C 	C 	0.69590 0.00500 0.53140 0.11300
C 	C 	0.74430 0.00100 0.49480 -0.14200
C 	C 	0.73350 0.00600 0.43290 0.12300
C 	C 	0.68190 0.08700 0.41060 -0.10400
C 	C 	0.63560 0.10500 0.44920 0.07800
C 	C 	0.80330 0.95300 0.52170 0.37000
O 	O 	0.80530 0.90200 0.57500 -0.25000
O 	O 	0.84800 0.96100 0.49200 -0.37800
C 	C 	0.67250 0.15100 0.34640 0.31200
O 	O 	0.62200 0.19600 0.33140 -0.19800
O 	O 	0.71400 0.20200 0.31640 -0.17400
P 	P 	0.39910 0.57600 0.49390 0.43700
O 	O 	0.38380 0.59200 0.42640 -0.20300
O 	O 	0.43430 0.75200 0.51390 -0.50700
O 	O 	0.44040 0.40700 0.50460 -0.53400
C 	C 	0.33390 0.54800 0.53610 -0.12400
C 	C 	0.28070 0.51400 0.50700 0.11500
C 	C 	0.23110 0.49800 0.54030 -0.12600
C 	C 	0.23060 0.59300 0.59560 0.12900
C 	C 	0.28220 0.65500 0.62310 -0.11000
C 	C 	0.33450 0.61200 0.59600 0.09300
C 	C 	0.17070 0.43500 0.51980 0.34700
O 	O 	0.15260 0.49100 0.47060 -0.27200
O 	O 	0.13740 0.40700 0.56190 -0.37300
C 	C 	0.27620 0.70700 0.68850 0.32200
O 	O 	0.22700 0.69200 0.70980 -0.17100
O 	O 	0.32140 0.73000 0.71850 -0.19800
Ca	Ca	0.53510 0.59120 0.52820 1.50500
P 	P 	0.47890 0.54620 0.85000 0.39800
O 	O 	0.46630 0.57600 0.91680 -0.30600
O 	O 	0.48510 0.73800 0.81660 -0.18500
O 	O 	0.53720 0.43300 0.84600 -0.16000
C 	C 	0.42440 0.39000 0.81660 -0.10800
C 	C 	0.44840 0.24700 0.78050 0.11700
C 	C 	0.41990 0.21300 0.72480 -0.12800
C 	C 	0.35920 0.22200 0.72470 0.12700
C 	C 	0.32890 0.29800 0.77360 -0.10700
C 	C 	0.36370 0.39900 0.81660 0.11500
C 	C 	0.45870 0.14500 0.67500 0.35900
O 	O 	0.51050 0.19800 0.68200 -0.23000
O 	O 	0.43890 0.07600 0.62810 -0.36000
C 	C 	0.26300 0.29400 0.77160 0.31600
O 	O 	0.23340 0.33300 0.81560 -0.17300
O 	O 	0.23410 0.23400 0.72720 -0.17400
Ca	Ca	0.03250 0.04760 0.00690 1.50300
P 	P 	0.90860 0.02620 0.04250 0.43400
O 	O 	0.94180 0.21320 0.03080 -0.57500
O 	O 	0.94590 0.85900 0.02130 -0.58800
O 	O 	0.89950 0.00700 0.11040 -0.21400
C 	C 	0.83900 0.02900 0.00380 -0.24800
C 	C 	0.78730 0.02200 0.03420 0.16900
C 	C 	0.73510 0.00400 0.00180 -0.24600
C 	C 	0.73470 0.00600 0.93900 0.23900
C 	C 	0.78420 0.07500 0.91120 -0.16300
C 	C 	0.83790 0.05100 0.94160 0.20900
C 	C 	0.67790 0.95700 0.03040 0.30400
O 	O 	0.67580 0.93000 0.08470 -0.22500
O 	O 	0.63310 0.96200 0.99800 -0.30600
C 	C 	0.78140 0.13300 0.84600 0.33700
O 	O 	0.82850 0.13500 0.82000 -0.20500
O 	O 	0.73610 0.20400 0.82450 -0.17300
P 	P 	0.08150 0.55220 0.98680 0.53400
O 	O 	0.10030 0.52400 0.92160 -0.17200
O 	O 	0.04140 0.72670 0.99320 -0.48000
O 	O 	0.04940 0.37300 0.00720 -0.60600
C 	C 	0.14570 0.59300 0.03220 -0.18100
C 	C 	0.19690 0.50100 0.01770 0.07900
C 	C 	0.24600 0.52600 0.05500 -0.10700
C 	C 	0.23690 0.56800 0.11540 0.11000
C 	C 	0.18650 0.67000 0.12930 -0.09400
C 	C 	0.13770 0.64700 0.09150 0.07100
C 	C 	0.30570 0.48400 0.03170 0.24200
O 	O 	0.31160 0.49100 0.97660 -0.16200
O 	O 	0.34710 0.42700 0.06350 -0.33500
C 	C 	0.17600 0.72900 0.19360 0.31200
O 	O 	0.21770 0.70400 0.22910 -0.17900
O 	O 	0.12410 0.72300 0.20790 -0.21100
Ca	Ca	0.95860 0.53380 0.03140 1.49500
P 	P 	0.03730 0.40810 0.36330 0.40600
O 	O 	0.07010 0.39800 0.42400 -0.34100
O 	O 	0.02190 0.61900 0.34860 -0.19700
O 	O 	0.98280 0.27900 0.36330 -0.23200
C 	C 	0.08300 0.31700 0.30560 -0.10500
C 	C 	0.05790 0.21100 0.25950 0.12900
C 	C 	0.08920 0.17300 0.20860 -0.14000
C 	C 	0.15020 0.18800 0.21260 0.13800
C 	C 	0.17710 0.27100 0.26290 -0.12700
C 	C 	0.14210 0.36500 0.30401 0.13600
C 	C 	0.05870 0.09500 0.15300 0.36200
O 	O 	0.00530 0.07900 0.15610 -0.28100
O 	O 	0.08450 0.05900 0.10700 -0.38200
C 	C 	0.24260 0.28200 0.26880 0.33700
O 	O 	0.26430 0.33700 0.31700 -0.19500
O 	O 	0.27350 0.20600 0.23080 -0.19400
Ca	Ca	0.95707 0.91920 0.50910 1.50300
P 	P 	0.08230 0.92070 0.55430 0.43000
O 	O 	0.04480 0.74200 0.54940 -0.50800
O 	O 	0.04680 0.08700 0.52760 -0.56600
O 	O 	0.10130 0.96100 0.61990 -0.18600
C 	C 	0.14690 0.89400 0.51100 -0.11900
C 	C 	0.19590 0.99500 0.53140 0.11300
C 	C 	0.24430 0.99900 0.49480 -0.14200
C 	C 	0.23350 0.99400 0.43290 0.12300
C 	C 	0.18190 0.91300 0.41060 -0.10400
C 	C 	0.13560 0.89500 0.44920 0.07900
C 	C 	0.30330 0.04700 0.52170 0.37000
O 	O 	0.30530 0.09800 0.57500 -0.24900
O 	O 	0.34800 0.03900 0.49200 -0.37700
C 	C 	0.17250 0.84900 0.34640 0.31100
O 	O 	0.12200 0.80400 0.33140 -0.19700
O 	O 	0.21400 0.79800 0.31640 -0.17400
P 	P 	0.89910 0.42400 0.49390 0.43700
O 	O 	0.88380 0.40800 0.42640 -0.20400
O 	O 	0.93430 0.24800 0.51390 -0.51000
O 	O 	0.94040 0.59300 0.50460 -0.53800
C 	C 	0.83390 0.45200 0.53610 -0.12400
C 	C 	0.78070 0.48600 0.50700 0.11500
C 	C 	0.73110 0.50200 0.54030 -0.12600
C 	C 	0.73060 0.40700 0.59560 0.12800
C 	C 	0.78220 0.34500 0.62310 -0.11000
C 	C 	0.83450 0.38800 0.59600 0.09200
C 	C 	0.67070 0.56500 0.51980 0.34700
O 	O 	0.65260 0.50900 0.47060 -0.27200
O 	O 	0.63740 0.59300 0.56190 -0.37400
C 	C 	0.77620 0.29300 0.68850 0.32200
O 	O 	0.72700 0.30800 0.70980 -0.17100
O 	O 	0.82140 0.27000 0.71850 -0.19800
Ca	Ca	0.03510 0.40880 0.52820 1.50700
P 	P 	0.97890 0.45380 0.85000 0.39000
O 	O 	0.96630 0.42400 0.91680 -0.31000
O 	O 	0.98510 0.26200 0.81660 -0.18800
O 	O 	0.03720 0.56700 0.84600 -0.15100
C 	C 	0.92440 0.61000 0.81660 -0.10700
C 	C 	0.94840 0.75300 0.78050 0.11000
C 	C 	0.91990 0.78700 0.72480 -0.12400
C 	C 	0.85920 0.77800 0.72470 0.12500
C 	C 	0.82890 0.70200 0.77360 -0.10600
C 	C 	0.86370 0.60100 0.81660 0.11400
C 	C 	0.95870 0.85500 0.67500 0.34300
O 	O 	0.01050 0.80200 0.68200 -0.21600
O 	O 	0.93890 0.92400 0.62810 -0.35900
C 	C 	0.76300 0.70600 0.77160 0.31600
O 	O 	0.73340 0.66700 0.81560 -0.17400
O 	O 	0.73410 0.76600 0.72720 -0.17400
