data_crystal

_cell_length_a 6.53300
_cell_length_b 10.45300
_cell_length_c 19.29300
_cell_angle_alpha 90.00000
_cell_angle_beta  90.00000
_cell_angle_gamma 90.00000

_symmetry_space_group_name_	'P 1'
_symmetry_space_group_name_H-M	'P 1'

loop_
_symmetry_equiv_pos_as_xyz
  x,y,z

loop_
_atom_site_label
_atom_site_type_symbol
_atom_site_fract_x
_atom_site_fract_y
_atom_site_fract_z
_atom_site_charge
N 	N 	0.31160 0.79720 0.80640 -0.15800
C 	C 	0.31610 0.90990 0.75900 0.01000
C 	C 	0.31610 0.84390 0.87930 0.01000
H 	H 	0.62020 0.08620 0.85250 -0.00200
H 	H 	0.31470 0.88050 0.71130 -0.00800
H 	H 	0.19440 0.96130 0.76650 -0.00300
H 	H 	0.19380 0.89370 0.88850 -0.01400
H 	H 	0.31670 0.77130 0.91060 -0.01500
N 	N 	0.31160 0.20280 0.19360 -0.16400
C 	C 	0.31610 0.09010 0.24100 0.01600
C 	C 	0.31610 0.15610 0.12070 0.02000
H 	H 	0.62020 0.91380 0.14750 -0.02100
H 	H 	0.31470 0.11950 0.28870 -0.01700
H 	H 	0.19440 0.03870 0.23350 -0.01900
H 	H 	0.19380 0.10630 0.11150 -0.03300
H 	H 	0.31670 0.22870 0.08940 -0.03000
N 	N 	0.18840 0.70280 0.30640 -0.15600
C 	C 	0.18390 0.59010 0.25900 0.00800
C 	C 	0.18390 0.65610 0.37930 0.00800
H 	H 	0.87980 0.41380 0.35250 0.02200
H 	H 	0.18530 0.61950 0.21130 -0.01400
H 	H 	0.30560 0.53870 0.26650 -0.00400
H 	H 	0.30620 0.60630 0.38850 -0.01500
H 	H 	0.18330 0.72870 0.41060 -0.02100
N 	N 	0.18840 0.29720 0.69360 -0.15900
C 	C 	0.18390 0.40990 0.74100 0.00700
C 	C 	0.18390 0.34390 0.62070 0.01100
H 	H 	0.87980 0.58620 0.64750 0.02400
H 	H 	0.18530 0.38050 0.78870 -0.01100
H 	H 	0.30560 0.46130 0.73350 -0.00200
H 	H 	0.30620 0.39370 0.61150 -0.01600
H 	H 	0.18330 0.27130 0.58940 -0.02700
N 	N 	0.68840 0.20280 0.19360 -0.15500
C 	C 	0.68390 0.09010 0.24100 0.00700
C 	C 	0.68390 0.15610 0.12070 0.01100
H 	H 	0.37980 0.91380 0.14750 -0.02700
H 	H 	0.68530 0.11950 0.28870 -0.00700
H 	H 	0.80560 0.03870 0.23350 -0.00100
H 	H 	0.80620 0.10630 0.11150 -0.01500
H 	H 	0.68330 0.22870 0.08940 -0.02000
N 	N 	0.68840 0.79720 0.80640 -0.15000
C 	C 	0.68390 0.90990 0.75900 0.00100
C 	C 	0.68390 0.84390 0.87930 0.00100
H 	H 	0.37980 0.08620 0.85250 -0.00700
H 	H 	0.68530 0.88050 0.71130 0.00200
H 	H 	0.80560 0.96130 0.76650 0.01500
H 	H 	0.80620 0.89370 0.88850 0.00500
H 	H 	0.68330 0.77130 0.91060 -0.00500
N 	N 	0.81160 0.29720 0.69360 -0.15200
C 	C 	0.81610 0.40990 0.74100 0.03900
C 	C 	0.81610 0.34390 0.62070 0.04200
H 	H 	0.12020 0.58620 0.64750 -0.00000
H 	H 	0.81470 0.38050 0.78870 -0.00600
H 	H 	0.69440 0.46130 0.73350 -0.00900
H 	H 	0.69380 0.39370 0.61150 -0.02300
H 	H 	0.81670 0.27130 0.58940 -0.02200
N 	N 	0.81160 0.70280 0.30640 -0.14900
C 	C 	0.81610 0.59010 0.25900 0.04000
C 	C 	0.81610 0.65610 0.37930 0.04000
H 	H 	0.12020 0.41380 0.35250 -0.00200
H 	H 	0.81470 0.61950 0.21130 -0.00900
H 	H 	0.69440 0.53870 0.26650 -0.01100
H 	H 	0.69380 0.60630 0.38850 -0.02100
H 	H 	0.81670 0.72870 0.41060 -0.01600
Ag	Ag	0.50000 0.17763 0.70343 0.49100
N 	N 	0.50000 0.98970 0.77070 -0.14300
N 	N 	0.50000 0.92410 0.89240 -0.15000
C 	C 	0.50000 0.03390 0.84410 -0.03700
C 	C 	0.50000 0.72080 0.79410 0.00800
H 	H 	0.50000 0.68980 0.74670 0.00200
H 	H 	0.50000 0.64710 0.82470 -0.00500
Ag	Ag	0.50000 0.82237 0.29657 0.50400
N 	N 	0.50000 0.01030 0.22930 -0.17700
N 	N 	0.50000 0.07590 0.10760 -0.18800
C 	C 	0.50000 0.96610 0.15590 0.05500
C 	C 	0.50000 0.27920 0.20590 0.01000
H 	H 	0.50000 0.31020 0.25330 0.00000
H 	H 	0.50000 0.35290 0.17530 -0.00900
Ag	Ag	0.00000 0.32237 0.20343 0.48000
N 	N 	0.00000 0.51030 0.27070 -0.17000
N 	N 	-0.00000 0.57590 0.39240 -0.18000
C 	C 	-0.00000 0.46610 0.34410 -0.05300
C 	C 	-0.00000 0.77920 0.29410 -0.01800
H 	H 	0.00000 0.81020 0.24670 0.00200
H 	H 	0.00000 0.85290 0.32470 -0.00500
Ag	Ag	-0.00000 0.67763 0.79657 0.48400
N 	N 	0.00000 0.48970 0.72930 -0.16900
N 	N 	-0.00000 0.42410 0.60760 -0.18100
C 	C 	0.00000 0.53390 0.65590 -0.05400
C 	C 	-0.00000 0.22080 0.70590 -0.01000
H 	H 	0.00000 0.18980 0.75330 -0.00900
H 	H 	0.00000 0.14710 0.67530 -0.01900
Ag	Ag	0.50000 0.00000 -0.00000 0.45200
Ag	Ag	0.00000 0.50000 0.50000 0.46600
