data_crystal

_cell_length_a 19.09990
_cell_length_b 22.87620
_cell_length_c 13.38760
_cell_angle_alpha 90.00000
_cell_angle_beta  112.92800
_cell_angle_gamma 90.00000

_symmetry_space_group_name_	'P 1'
_symmetry_space_group_name_H-M	'P 1'

loop_
_symmetry_equiv_pos_as_xyz
  x,y,z

loop_
_atom_site_label
_atom_site_type_symbol
_atom_site_fract_x
_atom_site_fract_y
_atom_site_fract_z
_atom_site_charge
Cu	Cu	0.49754 0.76429 0.55779 0.90700
N 	N 	0.46920 0.67879 0.54620 -0.20900
N 	N 	0.40750 0.76770 0.41670 -0.20700
N 	N 	0.57440 0.93385 0.80260 -0.20200
O 	O 	0.51290 0.84840 0.56590 -0.45100
O 	O 	0.62160 0.84811 0.54100 -0.30700
O 	O 	0.58100 0.74775 0.69390 -0.45400
O 	O 	0.57900 0.81081 0.82000 -0.47300
C 	C 	0.50290 0.63550 0.61290 0.04800
H 	H 	0.54210 0.64400 0.67910 0.01500
C 	C 	0.48090 0.57710 0.58640 -0.08400
H 	H 	0.50610 0.54730 0.63430 0.05500
C 	C 	0.42410 0.56420 0.49270 -0.03400
H 	H 	0.40870 0.52560 0.47610 0.03800
C 	C 	0.38720 0.60930 0.41890 -0.00200
C 	C 	0.32510 0.60130 0.31470 -0.04000
H 	H 	0.30650 0.56390 0.29300 0.04200
C 	C 	0.29420 0.64580 0.24980 -0.07800
H 	H 	0.25520 0.63880 0.18290 0.07200
C 	C 	0.31890 0.70440 0.27930 0.03000
C 	C 	0.28890 0.75430 0.21650 -0.05100
H 	H 	0.24960 0.75070 0.14850 0.05700
C 	C 	0.31650 0.80680 0.25400 -0.07000
H 	H 	0.29580 0.83970 0.21220 0.05200
C 	C 	0.37530 0.81340 0.35420 0.04000
H 	H 	0.39290 0.85070 0.37850 0.01600
C 	C 	0.37830 0.71360 0.38050 0.01100
C 	C 	0.41220 0.66590 0.45050 0.02800
C 	C 	0.64870 0.93200 0.85700 0.04600
H 	H 	0.67290 0.89590 0.87410 0.02000
C 	C 	0.69180 0.98320 0.88950 -0.07600
H 	H 	0.74410 0.98080 0.92750 0.05300
C 	C 	0.65790 0.03590 0.86610 -0.04600
H 	H 	0.68660 0.06970 0.88900 0.04900
C 	C 	0.58020 0.03960 0.80780 0.01700
C 	C 	0.53790 0.09300 0.77790 -0.05600
H 	H 	0.56340 0.12850 0.79750 0.05500
C 	C 	0.53990 0.98730 0.77860 0.02200
C 	C 	0.56800 0.87330 0.55260 0.38200
C 	C 	0.56580 0.93850 0.54600 -0.23600
H 	H 	0.61160 0.95870 0.56930 0.12200
C 	C 	0.50190 0.96880 0.50880 0.03000
H 	H 	0.45650 0.94860 0.49300 0.03000
C 	C 	0.60550 0.76840 0.78630 0.45000
C 	C 	0.67440 0.74010 0.86670 -0.27300
H 	H 	0.68910 0.70410 0.84930 0.13600
C 	C 	0.71570 0.76330 0.96120 0.04100
H 	H 	0.70010 0.79880 0.97940 0.02600
Cu	Cu	0.99754 0.26429 0.55779 0.91200
N 	N 	0.96920 0.17879 0.54620 -0.18600
N 	N 	0.90750 0.26770 0.41670 -0.20900
N 	N 	0.07440 0.43385 0.80260 -0.19800
O 	O 	0.01290 0.34840 0.56590 -0.45500
O 	O 	0.12160 0.34811 0.54100 -0.30300
O 	O 	0.08100 0.24775 0.69390 -0.45900
O 	O 	0.07900 0.31081 0.82000 -0.47600
C 	C 	0.00290 0.13550 0.61290 -0.02700
H 	H 	0.04210 0.14400 0.67910 0.03800
C 	C 	0.98090 0.07710 0.58640 0.01900
H 	H 	0.00610 0.04730 0.63430 0.01000
C 	C 	0.92410 0.06420 0.49270 -0.09700
H 	H 	0.90870 0.02560 0.47610 0.06300
C 	C 	0.88720 0.10930 0.41890 0.03300
C 	C 	0.82510 0.10130 0.31470 -0.06400
H 	H 	0.80650 0.06390 0.29300 0.05000
C 	C 	0.79420 0.14580 0.24980 -0.06000
H 	H 	0.75520 0.13880 0.18290 0.06600
C 	C 	0.81890 0.20440 0.27930 0.01900
C 	C 	0.78890 0.25430 0.21650 -0.04200
H 	H 	0.74960 0.25070 0.14850 0.05500
C 	C 	0.81650 0.30680 0.25400 -0.07600
H 	H 	0.79580 0.33970 0.21220 0.05500
C 	C 	0.87530 0.31340 0.35420 0.04500
H 	H 	0.89290 0.35070 0.37850 0.01600
C 	C 	0.87830 0.21360 0.38050 0.02100
C 	C 	0.91220 0.16590 0.45050 0.01200
C 	C 	0.14870 0.43200 0.85700 0.03700
H 	H 	0.17290 0.39590 0.87410 0.02200
C 	C 	0.19180 0.48320 0.88950 -0.06000
H 	H 	0.24410 0.48080 0.92750 0.04800
C 	C 	0.15790 0.53590 0.86610 -0.06900
H 	H 	0.18660 0.56970 0.88900 0.05600
C 	C 	0.08020 0.53960 0.80780 0.04800
C 	C 	0.03790 0.59300 0.77790 -0.11100
H 	H 	0.06340 0.62850 0.79750 0.07000
C 	C 	0.03990 0.48730 0.77860 -0.00900
C 	C 	0.06800 0.37330 0.55260 0.35800
C 	C 	0.06580 0.43850 0.54600 -0.17300
H 	H 	0.11160 0.45870 0.56930 0.10000
C 	C 	0.00190 0.46880 0.50880 -0.08200
H 	H 	0.95650 0.44860 0.49300 0.07500
C 	C 	0.10550 0.26840 0.78630 0.45000
C 	C 	0.17440 0.24010 0.86670 -0.27100
H 	H 	0.18910 0.20410 0.84930 0.13400
C 	C 	0.21570 0.26330 0.96120 0.03600
H 	H 	0.20010 0.29880 0.97940 0.02700
Cu	Cu	0.50246 0.76429 0.94221 0.90500
N 	N 	0.53080 0.67879 0.95380 -0.21200
N 	N 	0.59250 0.76770 0.08330 -0.20700
N 	N 	0.42560 0.93385 0.69740 -0.20300
O 	O 	0.48710 0.84840 0.93410 -0.45200
O 	O 	0.37840 0.84811 0.95900 -0.30800
O 	O 	0.41900 0.74775 0.80610 -0.45400
O 	O 	0.42100 0.81081 0.68000 -0.47200
C 	C 	0.49710 0.63550 0.88710 0.05000
H 	H 	0.45790 0.64400 0.82090 0.01400
C 	C 	0.51910 0.57710 0.91360 -0.09000
H 	H 	0.49390 0.54730 0.86570 0.05700
C 	C 	0.57590 0.56420 0.00730 -0.02700
H 	H 	0.59130 0.52560 0.02390 0.03600
C 	C 	0.61280 0.60930 0.08110 -0.00600
C 	C 	0.67490 0.60130 0.18530 -0.03700
H 	H 	0.69350 0.56390 0.20700 0.04000
C 	C 	0.70580 0.64580 0.25020 -0.08100
H 	H 	0.74480 0.63880 0.31710 0.07400
C 	C 	0.68110 0.70440 0.22070 0.03200
C 	C 	0.71110 0.75430 0.28350 -0.05200
H 	H 	0.75040 0.75070 0.35150 0.05900
C 	C 	0.68350 0.80680 0.24600 -0.06800
H 	H 	0.70420 0.83970 0.28780 0.05200
C 	C 	0.62470 0.81340 0.14580 0.04000
H 	H 	0.60710 0.85070 0.12150 0.01700
C 	C 	0.62170 0.71360 0.11950 0.00900
C 	C 	0.58780 0.66590 0.04950 0.03100
C 	C 	0.35130 0.93200 0.64300 0.04600
H 	H 	0.32710 0.89590 0.62590 0.02000
C 	C 	0.30820 0.98320 0.61050 -0.07600
H 	H 	0.25590 0.98080 0.57250 0.05300
C 	C 	0.34210 0.03590 0.63390 -0.04600
H 	H 	0.31340 0.06970 0.61100 0.04800
C 	C 	0.41980 0.03960 0.69220 0.01700
C 	C 	0.46210 0.09300 0.72210 -0.05600
H 	H 	0.43660 0.12850 0.70250 0.05500
C 	C 	0.46010 0.98730 0.72140 0.02200
C 	C 	0.43200 0.87330 0.94740 0.37800
C 	C 	0.43420 0.93850 0.95400 -0.22800
H 	H 	0.38840 0.95870 0.93070 0.11800
C 	C 	0.49810 0.96880 0.99120 0.01400
H 	H 	0.54350 0.94860 0.00700 0.03600
C 	C 	0.39450 0.76840 0.71370 0.45100
C 	C 	0.32560 0.74010 0.63330 -0.27400
H 	H 	0.31090 0.70410 0.65070 0.13600
C 	C 	0.28430 0.76330 0.53880 0.04300
H 	H 	0.29990 0.79880 0.52060 0.02600
Cu	Cu	0.00246 0.26429 0.94221 0.89900
N 	N 	0.03080 0.17879 0.95380 -0.23800
N 	N 	0.09250 0.26770 0.08330 -0.20500
N 	N 	0.92560 0.43385 0.69740 -0.20600
O 	O 	0.98710 0.34840 0.93410 -0.44700
O 	O 	0.87840 0.34811 0.95900 -0.31100
O 	O 	0.91900 0.24775 0.80610 -0.44800
O 	O 	0.92100 0.31081 0.68000 -0.46600
C 	C 	0.99710 0.13550 0.88710 0.13700
H 	H 	0.95790 0.14400 0.82090 -0.01200
C 	C 	0.01910 0.07710 0.91360 -0.20700
H 	H 	0.99390 0.04730 0.86570 0.10800
C 	C 	0.07590 0.06420 0.00730 0.04900
H 	H 	0.09130 0.02560 0.02390 0.00800
C 	C 	0.11280 0.10930 0.08110 -0.04700
C 	C 	0.17490 0.10130 0.18530 -0.00800
H 	H 	0.19350 0.06390 0.20700 0.03000
C 	C 	0.20580 0.14580 0.25020 -0.10200
H 	H 	0.24480 0.13880 0.31710 0.08100
C 	C 	0.18110 0.20440 0.22070 0.04500
C 	C 	0.21110 0.25430 0.28350 -0.06300
H 	H 	0.25040 0.25070 0.35150 0.06100
C 	C 	0.18350 0.30680 0.24600 -0.06100
H 	H 	0.20420 0.33970 0.28780 0.04900
C 	C 	0.12470 0.31340 0.14580 0.03400
H 	H 	0.10710 0.35070 0.12150 0.01800
C 	C 	0.12170 0.21360 0.11950 -0.00200
C 	C 	0.08780 0.16590 0.04950 0.05200
C 	C 	0.85130 0.43200 0.64300 0.05400
H 	H 	0.82710 0.39590 0.62590 0.01700
C 	C 	0.80820 0.48320 0.61050 -0.09300
H 	H 	0.75590 0.48080 0.57250 0.05900
C 	C 	0.84210 0.53590 0.63390 -0.02200
H 	H 	0.81340 0.56970 0.61100 0.04000
C 	C 	0.91980 0.53960 0.69220 -0.01400
C 	C 	0.96210 0.59300 0.72210 -0.00000
H 	H 	0.93660 0.62850 0.70250 0.03900
C 	C 	0.96010 0.48730 0.72140 0.05400
C 	C 	0.93200 0.37330 0.94740 0.40100
C 	C 	0.93420 0.43850 0.95400 -0.28700
H 	H 	0.88840 0.45870 0.93070 0.13900
C 	C 	0.99810 0.46880 0.99120 0.12300
H 	H 	0.04350 0.44860 0.00700 -0.00700
C 	C 	0.89450 0.26840 0.71370 0.44900
C 	C 	0.82560 0.24010 0.63330 -0.27200
H 	H 	0.81090 0.20410 0.65070 0.13600
C 	C 	0.78430 0.26330 0.53880 0.04200
H 	H 	0.79990 0.29880 0.52060 0.02600
Cu	Cu	0.50246 0.23571 0.44221 0.90600
N 	N 	0.53080 0.32121 0.45380 -0.21000
N 	N 	0.59250 0.23230 0.58330 -0.20800
N 	N 	0.42560 0.06615 0.19740 -0.20300
O 	O 	0.48710 0.15160 0.43410 -0.45200
O 	O 	0.37840 0.15189 0.45900 -0.30800
O 	O 	0.41900 0.25225 0.30610 -0.45500
O 	O 	0.42100 0.18919 0.18000 -0.47300
C 	C 	0.49710 0.36450 0.38710 0.04800
H 	H 	0.45790 0.35600 0.32090 0.01500
C 	C 	0.51910 0.42290 0.41360 -0.08400
H 	H 	0.49390 0.45270 0.36570 0.05500
C 	C 	0.57590 0.43580 0.50730 -0.03300
H 	H 	0.59130 0.47440 0.52390 0.03800
C 	C 	0.61280 0.39070 0.58110 -0.00300
C 	C 	0.67490 0.39870 0.68530 -0.03900
H 	H 	0.69350 0.43610 0.70700 0.04100
C 	C 	0.70580 0.35420 0.75020 -0.07900
H 	H 	0.74480 0.36120 0.81710 0.07300
C 	C 	0.68110 0.29560 0.72070 0.03100
C 	C 	0.71110 0.24570 0.78350 -0.05200
H 	H 	0.75040 0.24930 0.85150 0.05800
C 	C 	0.68350 0.19320 0.74600 -0.06900
H 	H 	0.70420 0.16030 0.78780 0.05200
C 	C 	0.62470 0.18660 0.64580 0.04000
H 	H 	0.60710 0.14930 0.62150 0.01700
C 	C 	0.62170 0.28640 0.61950 0.01000
C 	C 	0.58780 0.33410 0.54950 0.02800
C 	C 	0.35130 0.06800 0.14300 0.04700
H 	H 	0.32710 0.10410 0.12590 0.02000
C 	C 	0.30820 0.01680 0.11050 -0.07700
H 	H 	0.25590 0.01920 0.07250 0.05400
C 	C 	0.34210 0.96410 0.13390 -0.04500
H 	H 	0.31340 0.93030 0.11100 0.04800
C 	C 	0.41980 0.96040 0.19220 0.01800
C 	C 	0.46210 0.90700 0.22210 -0.05600
H 	H 	0.43660 0.87150 0.20250 0.05500
C 	C 	0.46010 0.01270 0.22140 0.02200
C 	C 	0.43200 0.12670 0.44740 0.38200
C 	C 	0.43420 0.06150 0.45400 -0.23500
H 	H 	0.38840 0.04130 0.43070 0.12100
C 	C 	0.49810 0.03120 0.49120 0.02800
H 	H 	0.54350 0.05140 0.50700 0.03100
C 	C 	0.39450 0.23160 0.21370 0.45200
C 	C 	0.32560 0.25990 0.13330 -0.27800
H 	H 	0.31090 0.29590 0.15070 0.13800
C 	C 	0.28430 0.23670 0.03880 0.05100
H 	H 	0.29990 0.20120 0.02060 0.02400
Cu	Cu	0.00246 0.73571 0.44221 0.90000
N 	N 	0.03080 0.82121 0.45380 -0.23200
N 	N 	0.09250 0.73230 0.58330 -0.20700
N 	N 	0.92560 0.56615 0.19740 -0.20600
O 	O 	0.98710 0.65160 0.43410 -0.44800
O 	O 	0.87840 0.65189 0.45900 -0.31200
O 	O 	0.91900 0.75225 0.30610 -0.44800
O 	O 	0.92100 0.68919 0.18000 -0.46700
C 	C 	0.99710 0.86450 0.38710 0.12200
H 	H 	0.95790 0.85600 0.32090 -0.00700
C 	C 	0.01910 0.92290 0.41360 -0.18200
H 	H 	0.99390 0.95270 0.36570 0.09900
C 	C 	0.07590 0.93580 0.50730 0.02800
H 	H 	0.09130 0.97440 0.52390 0.01400
C 	C 	0.11280 0.89070 0.58110 -0.03600
C 	C 	0.17490 0.89870 0.68530 -0.01600
H 	H 	0.19350 0.93610 0.70700 0.03300
C 	C 	0.20580 0.85420 0.75020 -0.09600
H 	H 	0.24480 0.86120 0.81710 0.07800
C 	C 	0.18110 0.79560 0.72070 0.04100
C 	C 	0.21110 0.74570 0.78350 -0.06000
H 	H 	0.25040 0.74930 0.85150 0.06000
C 	C 	0.18350 0.69320 0.74600 -0.06400
H 	H 	0.20420 0.66030 0.78780 0.04900
C 	C 	0.12470 0.68660 0.64580 0.03500
H 	H 	0.10710 0.64930 0.62150 0.01700
C 	C 	0.12170 0.78640 0.61950 0.00100
C 	C 	0.08780 0.83410 0.54950 0.04300
C 	C 	0.85130 0.56800 0.14300 0.05300
H 	H 	0.82710 0.60410 0.12590 0.01700
C 	C 	0.80820 0.51680 0.11050 -0.09000
H 	H 	0.75590 0.51920 0.07250 0.05800
C 	C 	0.84210 0.46410 0.13390 -0.02600
H 	H 	0.81340 0.43030 0.11100 0.04200
C 	C 	0.91980 0.46040 0.19220 -0.01000
C 	C 	0.96210 0.40700 0.22210 -0.00800
H 	H 	0.93660 0.37150 0.20250 0.04100
C 	C 	0.96010 0.51270 0.22140 0.05000
C 	C 	0.93200 0.62670 0.44740 0.40500
C 	C 	0.93420 0.56150 0.45400 -0.29800
H 	H 	0.88840 0.54130 0.43070 0.14300
C 	C 	0.99810 0.53120 0.49120 0.14100
H 	H 	0.04350 0.55140 0.50700 -0.01500
C 	C 	0.89450 0.73160 0.21370 0.45000
C 	C 	0.82560 0.75990 0.13330 -0.27400
H 	H 	0.81090 0.79590 0.15070 0.13700
C 	C 	0.78430 0.73670 0.03880 0.04500
H 	H 	0.79990 0.70120 0.02060 0.02500
Cu	Cu	0.49754 0.23571 0.05779 0.90600
N 	N 	0.46920 0.32121 0.04620 -0.20700
N 	N 	0.40750 0.23230 0.91670 -0.20900
N 	N 	0.57440 0.06615 0.30260 -0.20300
O 	O 	0.51290 0.15160 0.06590 -0.45200
O 	O 	0.62160 0.15189 0.04100 -0.30800
O 	O 	0.58100 0.25225 0.19390 -0.45400
O 	O 	0.57900 0.18919 0.32000 -0.47200
C 	C 	0.50290 0.36450 0.11290 0.04500
H 	H 	0.54210 0.35600 0.17910 0.01700
C 	C 	0.48090 0.42290 0.08640 -0.07600
H 	H 	0.50610 0.45270 0.13430 0.05300
C 	C 	0.42410 0.43580 0.99270 -0.04200
H 	H 	0.40870 0.47440 0.97610 0.04000
C 	C 	0.38720 0.39070 0.91890 0.00200
C 	C 	0.32510 0.39870 0.81470 -0.04300
H 	H 	0.30650 0.43610 0.79300 0.04300
C 	C 	0.29420 0.35420 0.74980 -0.07600
H 	H 	0.25520 0.36120 0.68290 0.07100
C 	C 	0.31890 0.29560 0.77930 0.02800
C 	C 	0.28890 0.24570 0.71650 -0.05000
H 	H 	0.24960 0.24930 0.64850 0.05600
C 	C 	0.31650 0.19320 0.75400 -0.07100
H 	H 	0.29580 0.16030 0.71220 0.05200
C 	C 	0.37530 0.18660 0.85420 0.04100
H 	H 	0.39290 0.14930 0.87850 0.01600
C 	C 	0.37830 0.28640 0.88050 0.01200
C 	C 	0.41220 0.33410 0.95050 0.02400
C 	C 	0.64870 0.06800 0.35700 0.04600
H 	H 	0.67290 0.10410 0.37410 0.02000
C 	C 	0.69180 0.01680 0.38950 -0.07700
H 	H 	0.74410 0.01920 0.42750 0.05400
C 	C 	0.65790 0.96410 0.36610 -0.04500
H 	H 	0.68660 0.93030 0.38900 0.04900
C 	C 	0.58020 0.96040 0.30780 0.01800
C 	C 	0.53790 0.90700 0.27790 -0.05600
H 	H 	0.56340 0.87150 0.29750 0.05500
C 	C 	0.53990 0.01270 0.27860 0.02200
C 	C 	0.56800 0.12670 0.05260 0.38500
C 	C 	0.56580 0.06150 0.04600 -0.24400
H 	H 	0.61160 0.04130 0.06930 0.12400
C 	C 	0.50190 0.03120 0.00880 0.04400
H 	H 	0.45650 0.05140 0.99300 0.02400
C 	C 	0.60550 0.23160 0.28630 0.45100
C 	C 	0.67440 0.25990 0.36670 -0.27400
H 	H 	0.68910 0.29590 0.34930 0.13600
C 	C 	0.71570 0.23670 0.46120 0.04400
H 	H 	0.70010 0.20120 0.47940 0.02600
Cu	Cu	0.99754 0.73571 0.05779 0.91200
N 	N 	0.96920 0.82121 0.04620 -0.19000
N 	N 	0.90750 0.73230 0.91670 -0.20900
N 	N 	0.07440 0.56615 0.30260 -0.19900
O 	O 	0.01290 0.65160 0.06590 -0.45400
O 	O 	0.12160 0.65189 0.04100 -0.30300
O 	O 	0.08100 0.75225 0.19390 -0.45900
O 	O 	0.07900 0.68919 0.32000 -0.47500
C 	C 	0.00290 0.86450 0.11290 -0.01600
H 	H 	0.04210 0.85600 0.17910 0.03500
C 	C 	0.98090 0.92290 0.08640 0.00500
H 	H 	0.00610 0.95270 0.13430 0.01700
C 	C 	0.92410 0.93580 0.99270 -0.08900
H 	H 	0.90870 0.97440 0.97610 0.06000
C 	C 	0.88720 0.89070 0.91890 0.02800
C 	C 	0.82510 0.89870 0.81470 -0.06000
H 	H 	0.80650 0.93610 0.79300 0.04900
C 	C 	0.79420 0.85420 0.74980 -0.06200
H 	H 	0.75520 0.86120 0.68290 0.06700
C 	C 	0.81890 0.79560 0.77930 0.02100
C 	C 	0.78890 0.74570 0.71650 -0.04300
H 	H 	0.74960 0.74930 0.64850 0.05500
C 	C 	0.81650 0.69320 0.75400 -0.07500
H 	H 	0.79580 0.66030 0.71220 0.05500
C 	C 	0.87530 0.68660 0.85420 0.04500
H 	H 	0.89290 0.64930 0.87850 0.01600
C 	C 	0.87830 0.78640 0.88050 0.01900
C 	C 	0.91220 0.83410 0.95050 0.01400
C 	C 	0.14870 0.56800 0.35700 0.03900
H 	H 	0.17290 0.60410 0.37410 0.02200
C 	C 	0.19180 0.51680 0.38950 -0.06200
H 	H 	0.24410 0.51920 0.42750 0.04900
C 	C 	0.15790 0.46410 0.36610 -0.06500
H 	H 	0.18660 0.43030 0.38900 0.05500
C 	C 	0.08020 0.46040 0.30780 0.04400
C 	C 	0.03790 0.40700 0.27790 -0.10300
H 	H 	0.06340 0.37150 0.29750 0.06900
C 	C 	0.03990 0.51270 0.27860 -0.00400
C 	C 	0.06800 0.62670 0.05260 0.36200
C 	C 	0.06580 0.56150 0.04600 -0.18300
H 	H 	0.11160 0.54130 0.06930 0.10400
C 	C 	0.00190 0.53120 0.00880 -0.06300
H 	H 	0.95650 0.55140 0.99300 0.06800
C 	C 	0.10550 0.73160 0.28630 0.45100
C 	C 	0.17440 0.75990 0.36670 -0.27500
H 	H 	0.18910 0.79590 0.34930 0.13600
C 	C 	0.21570 0.73670 0.46120 0.04400
H 	H 	0.20010 0.70120 0.47940 0.02600
Cu	Cu	0.50000 0.86772 0.75000 0.91700
Cu	Cu	-0.00000 0.36772 0.75000 0.91100
Cu	Cu	0.50000 0.13228 0.25000 0.91700
Cu	Cu	0.00000 0.63228 0.25000 0.91200
