data_crystal

_cell_length_a 13.28310
_cell_length_b 22.74390
_cell_length_c 18.63540
_cell_angle_alpha 90.00000
_cell_angle_beta  109.05000
_cell_angle_gamma 90.00000

_symmetry_space_group_name_	'P 1'
_symmetry_space_group_name_H-M	'P 1'

loop_
_symmetry_equiv_pos_as_xyz
  x,y,z

loop_
_atom_site_label
_atom_site_type_symbol
_atom_site_fract_x
_atom_site_fract_y
_atom_site_fract_z
_atom_site_charge
Cu	Cu	0.44727 0.26261 0.51299 0.90300
N 	N 	0.49830 0.25950 0.42297 -0.21000
C 	C 	0.53430 0.30238 0.38990 0.04000
H 	H 	0.53280 0.34110 0.40710 0.01500
C 	C 	0.57440 0.29230 0.33070 -0.06900
H 	H 	0.59890 0.32400 0.30860 0.05200
C 	C 	0.57820 0.23640 0.30470 -0.05100
H 	H 	0.60650 0.22930 0.26550 0.05900
C 	C 	0.53910 0.18990 0.33760 0.02500
C 	C 	0.49970 0.20393 0.39600 0.01300
C 	C 	0.45850 0.15896 0.43230 0.02400
C 	C 	0.45640 0.10046 0.40820 0.00300
C 	C 	0.41420 0.05895 0.44560 -0.04000
H 	H 	0.41080 0.01920 0.43130 0.04000
C 	C 	0.37770 0.07600 0.50300 -0.08100
H 	H 	0.34880 0.04830 0.52820 0.05300
C 	C 	0.38410 0.13529 0.52350 0.04600
H 	H 	0.36010 0.14670 0.56370 0.01500
N 	N 	0.42250 0.17626 0.48886 -0.21000
C 	C 	0.53600 0.12990 0.31370 -0.07000
H 	H 	0.56180 0.12000 0.27390 0.06500
C 	C 	0.49660 0.08730 0.34750 -0.04800
H 	H 	0.49560 0.04820 0.33080 0.04100
Cu	Cu	0.25319 0.36668 0.50832 0.91600
N 	N 	0.23000 0.42915 0.42833 -0.20400
C 	C 	0.20980 0.42344 0.35470 0.04700
H 	H 	0.20220 0.38550 0.33360 0.01900
C 	C 	0.19940 0.47218 0.30670 -0.07700
H 	H 	0.18630 0.46660 0.25440 0.05400
C 	C 	0.20800 0.52726 0.33550 -0.04300
H 	H 	0.20110 0.56000 0.30340 0.04700
C 	C 	0.22750 0.53517 0.41360 0.01500
C 	C 	0.23850 0.48444 0.45740 0.02300
C 	C 	0.26130 0.48841 0.53790 0.02500
C 	C 	0.27030 0.54368 0.57280 0.01500
C 	C 	0.29080 0.54360 0.65140 -0.04200
H 	H 	0.29710 0.57940 0.67760 0.04800
C 	C 	0.30170 0.49235 0.68980 -0.07400
H 	H 	0.31520 0.49250 0.74250 0.05200
C 	C 	0.29290 0.43897 0.65080 0.04400
H 	H 	0.30120 0.40360 0.67810 0.02100
N 	N 	0.27310 0.43703 0.57629 -0.20300
C 	C 	0.23760 0.59093 0.45020 -0.05600
H 	H 	0.23050 0.62540 0.42120 0.05400
C 	C 	0.25710 0.59523 0.52580 -0.05300
H 	H 	0.26220 0.63260 0.54820 0.05300
Cu	Cu	0.06503 0.23662 0.01568 0.90200
N 	N 	0.07610 0.32123 0.04919 -0.20900
C 	C 	0.10260 0.36809 0.01710 0.03600
H 	H 	0.13060 0.36260 0.97730 0.02400
C 	C 	0.09070 0.42532 0.04030 -0.07700
H 	H 	0.11130 0.45760 0.01690 0.05200
C 	C 	0.04880 0.43385 0.09700 -0.03700
H 	H 	0.03920 0.47220 0.11240 0.03800
C 	C 	0.02000 0.38552 0.13260 -0.00500
C 	C 	0.03440 0.32994 0.10540 0.02800
C 	C 	0.00300 0.27872 0.13700 0.00800
C 	C 	0.96050 0.28307 0.19620 0.03300
C 	C 	0.93310 0.23120 0.22450 -0.05000
H 	H 	0.90310 0.23220 0.26370 0.05500
C 	C 	0.95010 0.17880 0.19500 -0.07300
H 	H 	0.93370 0.14340 0.21490 0.05300
C 	C 	0.99160 0.17765 0.13550 0.05200
H 	H 	0.00240 0.14110 0.11560 0.01000
N 	N 	0.01670 0.22643 0.10581 -0.21100
C 	C 	0.97600 0.38900 0.19320 -0.03300
H 	H 	0.96670 0.42610 0.21240 0.04100
C 	C 	0.94790 0.34100 0.22300 -0.08000
H 	H 	0.91910 0.34510 0.26260 0.07500
O 	O 	0.39640 0.25026 0.59873 -0.44300
O 	O 	0.26470 0.31414 0.59241 -0.46600
C 	C 	0.32650 0.27225 0.62160 0.43200
C 	C 	0.31500 0.24519 0.69080 -0.25600
H 	H 	0.34690 0.20840 0.70640 0.12800
C 	C 	0.26210 0.27000 0.73190 0.03400
H 	H 	0.22930 0.30650 0.71610 0.03000
O 	O 	0.45504 0.34791 0.52221 -0.44200
O 	O 	0.58160 0.35327 0.63628 -0.30100
C 	C 	0.51950 0.37599 0.57850 0.36800
C 	C 	0.52020 0.44074 0.57020 -0.22500
H 	H 	0.53990 0.46360 0.61470 0.11600
C 	C 	0.49480 0.46884 0.50390 0.02500
H 	H 	0.46840 0.44640 0.45940 0.03300
O 	O 	0.24707 0.19455 0.93473 -0.46800
O 	O 	0.11860 0.25860 0.93467 -0.44200
C 	C 	0.18720 0.23798 0.90890 0.43600
C 	C 	0.19910 0.26739 0.84190 -0.26600
H 	H 	0.16760 0.30450 0.82820 0.13300
C 	C 	0.25220 0.24391 0.79990 0.04300
H 	H 	0.28600 0.20760 0.81560 0.02600
O 	O 	0.05834 0.34715 0.49335 -0.44900
O 	O 	0.91340 0.34365 0.38911 -0.30300
C 	C 	0.98400 0.37105 0.43850 0.37100
C 	C 	0.98070 0.43571 0.43720 -0.23000
H 	H 	0.95900 0.45470 0.38980 0.11700
C 	C 	0.00700 0.46865 0.49960 0.02600
H 	H 	0.03690 0.44960 0.54650 0.03100
Cu	Cu	0.55273 0.76261 0.98701 0.90300
N 	N 	0.50170 0.75950 0.07703 -0.20800
C 	C 	0.46570 0.80238 0.11010 0.04000
H 	H 	0.46720 0.84110 0.09290 0.01600
C 	C 	0.42560 0.79230 0.16930 -0.06800
H 	H 	0.40110 0.82400 0.19140 0.05300
C 	C 	0.42180 0.73640 0.19530 -0.05000
H 	H 	0.39350 0.72930 0.23450 0.06000
C 	C 	0.46090 0.68990 0.16240 0.02600
C 	C 	0.50030 0.70393 0.10400 0.01400
C 	C 	0.54150 0.65896 0.06770 0.02600
C 	C 	0.54360 0.60046 0.09180 0.00300
C 	C 	0.58580 0.55895 0.05440 -0.03600
H 	H 	0.58920 0.51920 0.06870 0.04100
C 	C 	0.62230 0.57600 0.99700 -0.08200
H 	H 	0.65120 0.54830 0.97180 0.05400
C 	C 	0.61590 0.63529 0.97650 0.04500
H 	H 	0.63990 0.64670 0.93630 0.01600
N 	N 	0.57750 0.67626 0.01114 -0.20700
C 	C 	0.46400 0.62990 0.18630 -0.07000
H 	H 	0.43820 0.62000 0.22610 0.06600
C 	C 	0.50340 0.58730 0.15250 -0.04600
H 	H 	0.50440 0.54820 0.16920 0.04200
Cu	Cu	0.74681 0.86668 0.99168 0.91400
N 	N 	0.77000 0.92915 0.07167 -0.20400
C 	C 	0.79020 0.92344 0.14530 0.04800
H 	H 	0.79780 0.88550 0.16640 0.02000
C 	C 	0.80060 0.97218 0.19330 -0.07300
H 	H 	0.81370 0.96660 0.24560 0.05400
C 	C 	0.79200 0.02726 0.16450 -0.04400
H 	H 	0.79890 0.06000 0.19660 0.04700
C 	C 	0.77250 0.03517 0.08640 0.00800
C 	C 	0.76150 0.98444 0.04260 0.03600
C 	C 	0.73870 0.98841 0.96210 0.01300
C 	C 	0.72970 0.04368 0.92720 0.02200
C 	C 	0.70920 0.04360 0.84860 -0.04200
H 	H 	0.70290 0.07940 0.82240 0.04800
C 	C 	0.69830 0.99235 0.81020 -0.07600
H 	H 	0.68480 0.99250 0.75750 0.05200
C 	C 	0.70710 0.93897 0.84920 0.04300
H 	H 	0.69880 0.90360 0.82190 0.02100
N 	N 	0.72690 0.93703 0.92371 -0.20200
C 	C 	0.76240 0.09093 0.04980 -0.05100
H 	H 	0.76950 0.12540 0.07880 0.05300
C 	C 	0.74290 0.09523 0.97420 -0.05800
H 	H 	0.73780 0.13260 0.95180 0.05500
Cu	Cu	0.93497 0.73662 0.48432 0.90500
N 	N 	0.92390 0.82123 0.45081 -0.20900
C 	C 	0.89740 0.86809 0.48290 0.04500
H 	H 	0.86940 0.86260 0.52270 0.01700
C 	C 	0.90930 0.92532 0.45970 -0.07900
H 	H 	0.88870 0.95760 0.48310 0.05300
C 	C 	0.95120 0.93385 0.40300 -0.04000
H 	H 	0.96080 0.97220 0.38760 0.04000
C 	C 	0.98000 0.88552 0.36740 0.00500
C 	C 	0.96560 0.82994 0.39460 0.02300
C 	C 	0.99700 0.77872 0.36300 0.01600
C 	C 	0.03950 0.78307 0.30380 0.02400
C 	C 	0.06690 0.73120 0.27550 -0.05000
H 	H 	0.09690 0.73220 0.23630 0.05400
C 	C 	0.04990 0.67880 0.30500 -0.06800
H 	H 	0.06630 0.64340 0.28510 0.05000
C 	C 	0.00840 0.67765 0.36450 0.03700
H 	H 	0.99760 0.64110 0.38440 0.01900
N 	N 	0.98330 0.72643 0.39419 -0.20800
C 	C 	0.02400 0.88900 0.30680 -0.04600
H 	H 	0.03330 0.92610 0.28760 0.04300
C 	C 	0.05210 0.84100 0.27700 -0.07200
H 	H 	0.08090 0.84510 0.23740 0.07200
O 	O 	0.60360 0.75026 0.90127 -0.44400
O 	O 	0.73530 0.81414 0.90759 -0.46700
C 	C 	0.67350 0.77225 0.87840 0.43200
C 	C 	0.68500 0.74519 0.80920 -0.25600
H 	H 	0.65310 0.70840 0.79360 0.12800
C 	C 	0.73790 0.77000 0.76810 0.03400
H 	H 	0.77070 0.80650 0.78390 0.03000
O 	O 	0.54496 0.84791 0.97779 -0.44400
O 	O 	0.41840 0.85327 0.86372 -0.30100
C 	C 	0.48050 0.87599 0.92150 0.36700
C 	C 	0.47980 0.94074 0.92980 -0.22300
H 	H 	0.46010 0.96360 0.88530 0.11500
C 	C 	0.50520 0.96884 0.99610 0.01900
H 	H 	0.53160 0.94640 0.04060 0.03700
O 	O 	0.75293 0.69455 0.56527 -0.47000
O 	O 	0.88140 0.75860 0.56533 -0.44600
C 	C 	0.81280 0.73798 0.59110 0.43600
C 	C 	0.80090 0.76739 0.65810 -0.26600
H 	H 	0.83240 0.80450 0.67180 0.13200
C 	C 	0.74780 0.74391 0.70010 0.04200
H 	H 	0.71400 0.70760 0.68440 0.02600
O 	O 	0.94166 0.84715 0.00665 -0.44100
O 	O 	0.08660 0.84365 0.11089 -0.30300
C 	C 	0.01600 0.87105 0.06150 0.36900
C 	C 	0.01930 0.93571 0.06280 -0.24200
H 	H 	0.04100 0.95470 0.11020 0.12000
C 	C 	0.99300 0.96865 0.00040 0.04500
H 	H 	0.96310 0.94960 0.95350 0.01900
Cu	Cu	0.55273 0.73739 0.48701 0.90400
N 	N 	0.50170 0.74050 0.57703 -0.20900
C 	C 	0.46570 0.69762 0.61010 0.04100
H 	H 	0.46720 0.65890 0.59290 0.01600
C 	C 	0.42560 0.70770 0.66930 -0.06800
H 	H 	0.40110 0.67600 0.69140 0.05300
C 	C 	0.42180 0.76360 0.69530 -0.05000
H 	H 	0.39350 0.77070 0.73450 0.06000
C 	C 	0.46090 0.81010 0.66240 0.02600
C 	C 	0.50030 0.79607 0.60400 0.01400
C 	C 	0.54150 0.84104 0.56770 0.02500
C 	C 	0.54360 0.89954 0.59180 0.00400
C 	C 	0.58580 0.94105 0.55440 -0.03900
H 	H 	0.58920 0.98080 0.56870 0.04100
C 	C 	0.62230 0.92400 0.49700 -0.08000
H 	H 	0.65120 0.95170 0.47180 0.05400
C 	C 	0.61590 0.86471 0.47650 0.04700
H 	H 	0.63990 0.85330 0.43630 0.01600
N 	N 	0.57750 0.82374 0.51114 -0.20900
C 	C 	0.46400 0.87010 0.68630 -0.06900
H 	H 	0.43820 0.88000 0.72610 0.06600
C 	C 	0.50340 0.91270 0.65250 -0.04700
H 	H 	0.50440 0.95180 0.66920 0.04200
Cu	Cu	0.74681 0.63332 0.49168 0.91700
N 	N 	0.77000 0.57085 0.57167 -0.20300
C 	C 	0.79020 0.57656 0.64530 0.04800
H 	H 	0.79780 0.61450 0.66640 0.01900
C 	C 	0.80060 0.52782 0.69330 -0.07700
H 	H 	0.81370 0.53340 0.74560 0.05400
C 	C 	0.79200 0.47274 0.66450 -0.04300
H 	H 	0.79890 0.44000 0.69660 0.04700
C 	C 	0.77250 0.46483 0.58640 0.01500
C 	C 	0.76150 0.51556 0.54260 0.02300
C 	C 	0.73870 0.51159 0.46210 0.02500
C 	C 	0.72970 0.45632 0.42720 0.01500
C 	C 	0.70920 0.45640 0.34860 -0.04200
H 	H 	0.70290 0.42060 0.32240 0.04800
C 	C 	0.69830 0.50765 0.31020 -0.07400
H 	H 	0.68480 0.50750 0.25750 0.05200
C 	C 	0.70710 0.56103 0.34920 0.04400
H 	H 	0.69880 0.59640 0.32190 0.02100
N 	N 	0.72690 0.56297 0.42371 -0.20300
C 	C 	0.76240 0.40907 0.54980 -0.05600
H 	H 	0.76950 0.37460 0.57880 0.05400
C 	C 	0.74290 0.40477 0.47420 -0.05300
H 	H 	0.73780 0.36740 0.45180 0.05300
Cu	Cu	0.93497 0.76338 0.98432 0.90200
N 	N 	0.92390 0.67877 0.95081 -0.20900
C 	C 	0.89740 0.63191 0.98290 0.03600
H 	H 	0.86940 0.63740 0.02270 0.02400
C 	C 	0.90930 0.57468 0.95970 -0.07700
H 	H 	0.88870 0.54240 0.98310 0.05200
C 	C 	0.95120 0.56615 0.90300 -0.03700
H 	H 	0.96080 0.52780 0.88760 0.03800
C 	C 	0.98000 0.61448 0.86740 -0.00500
C 	C 	0.96560 0.67006 0.89460 0.02800
C 	C 	0.99700 0.72128 0.86300 0.00800
C 	C 	0.03950 0.71693 0.80380 0.03300
C 	C 	0.06690 0.76880 0.77550 -0.05000
H 	H 	0.09690 0.76780 0.73630 0.05500
C 	C 	0.04990 0.82120 0.80500 -0.07300
H 	H 	0.06630 0.85660 0.78510 0.05300
C 	C 	0.00840 0.82235 0.86450 0.05200
H 	H 	0.99760 0.85890 0.88440 0.01000
N 	N 	0.98330 0.77357 0.89419 -0.21100
C 	C 	0.02400 0.61100 0.80680 -0.03300
H 	H 	0.03330 0.57390 0.78760 0.04100
C 	C 	0.05210 0.65900 0.77700 -0.08000
H 	H 	0.08090 0.65490 0.73740 0.07500
O 	O 	0.60360 0.74974 0.40127 -0.44300
O 	O 	0.73530 0.68586 0.40759 -0.46600
C 	C 	0.67350 0.72775 0.37840 0.43200
C 	C 	0.68500 0.75481 0.30920 -0.25600
H 	H 	0.65310 0.79160 0.29360 0.12800
C 	C 	0.73790 0.73000 0.26810 0.03400
H 	H 	0.77070 0.69350 0.28390 0.03000
O 	O 	0.54496 0.65209 0.47779 -0.44200
O 	O 	0.41840 0.64673 0.36372 -0.30100
C 	C 	0.48050 0.62401 0.42150 0.36800
C 	C 	0.47980 0.55926 0.42980 -0.22500
H 	H 	0.46010 0.53640 0.38530 0.11600
C 	C 	0.50520 0.53116 0.49610 0.02500
H 	H 	0.53160 0.55360 0.54060 0.03300
O 	O 	0.75293 0.80545 0.06527 -0.46800
O 	O 	0.88140 0.74140 0.06533 -0.44200
C 	C 	0.81280 0.76202 0.09110 0.43600
C 	C 	0.80090 0.73261 0.15810 -0.26600
H 	H 	0.83240 0.69550 0.17180 0.13300
C 	C 	0.74780 0.75609 0.20010 0.04300
H 	H 	0.71400 0.79240 0.18440 0.02600
O 	O 	0.94166 0.65285 0.50665 -0.44900
O 	O 	0.08660 0.65635 0.61089 -0.30300
C 	C 	0.01600 0.62895 0.56150 0.37100
C 	C 	0.01930 0.56429 0.56280 -0.23000
H 	H 	0.04100 0.54530 0.61020 0.11700
C 	C 	0.99300 0.53135 0.50040 0.02600
H 	H 	0.96310 0.55040 0.45350 0.03100
Cu	Cu	0.44727 0.23739 0.01299 0.90300
N 	N 	0.49830 0.24050 0.92297 -0.20800
C 	C 	0.53430 0.19762 0.88990 0.04000
H 	H 	0.53280 0.15890 0.90710 0.01600
C 	C 	0.57440 0.20770 0.83070 -0.06800
H 	H 	0.59890 0.17600 0.80860 0.05300
C 	C 	0.57820 0.26360 0.80470 -0.05000
H 	H 	0.60650 0.27070 0.76550 0.06000
C 	C 	0.53910 0.31010 0.83760 0.02600
C 	C 	0.49970 0.29607 0.89600 0.01400
C 	C 	0.45850 0.34104 0.93230 0.02600
C 	C 	0.45640 0.39954 0.90820 0.00300
C 	C 	0.41420 0.44105 0.94560 -0.03600
H 	H 	0.41080 0.48080 0.93130 0.04100
C 	C 	0.37770 0.42400 0.00300 -0.08200
H 	H 	0.34880 0.45170 0.02820 0.05400
C 	C 	0.38410 0.36471 0.02350 0.04500
H 	H 	0.36010 0.35330 0.06370 0.01600
N 	N 	0.42250 0.32374 0.98886 -0.20700
C 	C 	0.53600 0.37010 0.81370 -0.07000
H 	H 	0.56180 0.38000 0.77390 0.06600
C 	C 	0.49660 0.41270 0.84750 -0.04600
H 	H 	0.49560 0.45180 0.83080 0.04200
Cu	Cu	0.25319 0.13332 0.00832 0.91400
N 	N 	0.23000 0.07085 0.92833 -0.20400
C 	C 	0.20980 0.07656 0.85470 0.04800
H 	H 	0.20220 0.11450 0.83360 0.02000
C 	C 	0.19940 0.02782 0.80670 -0.07300
H 	H 	0.18630 0.03340 0.75440 0.05400
C 	C 	0.20800 0.97274 0.83550 -0.04400
H 	H 	0.20110 0.94000 0.80340 0.04700
C 	C 	0.22750 0.96483 0.91360 0.00800
C 	C 	0.23850 0.01556 0.95740 0.03600
C 	C 	0.26130 0.01159 0.03790 0.01300
C 	C 	0.27030 0.95632 0.07280 0.02200
C 	C 	0.29080 0.95640 0.15140 -0.04200
H 	H 	0.29710 0.92060 0.17760 0.04800
C 	C 	0.30170 0.00765 0.18980 -0.07600
H 	H 	0.31520 0.00750 0.24250 0.05200
C 	C 	0.29290 0.06103 0.15080 0.04300
H 	H 	0.30120 0.09640 0.17810 0.02100
N 	N 	0.27310 0.06297 0.07629 -0.20200
C 	C 	0.23760 0.90907 0.95020 -0.05100
H 	H 	0.23050 0.87460 0.92120 0.05300
C 	C 	0.25710 0.90477 0.02580 -0.05800
H 	H 	0.26220 0.86740 0.04820 0.05500
Cu	Cu	0.06503 0.26338 0.51568 0.90500
N 	N 	0.07610 0.17877 0.54919 -0.20900
C 	C 	0.10260 0.13191 0.51710 0.04500
H 	H 	0.13060 0.13740 0.47730 0.01700
C 	C 	0.09070 0.07468 0.54030 -0.07900
H 	H 	0.11130 0.04240 0.51690 0.05300
C 	C 	0.04880 0.06615 0.59700 -0.04000
H 	H 	0.03920 0.02780 0.61240 0.04000
C 	C 	0.02000 0.11448 0.63260 0.00500
C 	C 	0.03440 0.17006 0.60540 0.02300
C 	C 	0.00300 0.22128 0.63700 0.01600
C 	C 	0.96050 0.21693 0.69620 0.02400
C 	C 	0.93310 0.26880 0.72450 -0.05000
H 	H 	0.90310 0.26780 0.76370 0.05400
C 	C 	0.95010 0.32120 0.69500 -0.06800
H 	H 	0.93370 0.35660 0.71490 0.05000
C 	C 	0.99160 0.32235 0.63550 0.03700
H 	H 	0.00240 0.35890 0.61560 0.01900
N 	N 	0.01670 0.27357 0.60581 -0.20800
C 	C 	0.97600 0.11100 0.69320 -0.04600
H 	H 	0.96670 0.07390 0.71240 0.04300
C 	C 	0.94790 0.15900 0.72300 -0.07200
H 	H 	0.91910 0.15490 0.76260 0.07200
O 	O 	0.39640 0.24974 0.09873 -0.44400
O 	O 	0.26470 0.18586 0.09241 -0.46700
C 	C 	0.32650 0.22775 0.12160 0.43200
C 	C 	0.31500 0.25481 0.19080 -0.25600
H 	H 	0.34690 0.29160 0.20640 0.12800
C 	C 	0.26210 0.23000 0.23190 0.03400
H 	H 	0.22930 0.19350 0.21610 0.03000
O 	O 	0.45504 0.15209 0.02221 -0.44400
O 	O 	0.58160 0.14673 0.13628 -0.30100
C 	C 	0.51950 0.12401 0.07850 0.36700
C 	C 	0.52020 0.05926 0.07020 -0.22300
H 	H 	0.53990 0.03640 0.11470 0.11500
C 	C 	0.49480 0.03116 0.00390 0.01900
H 	H 	0.46840 0.05360 0.95940 0.03700
O 	O 	0.24707 0.30545 0.43473 -0.47000
O 	O 	0.11860 0.24140 0.43467 -0.44600
C 	C 	0.18720 0.26202 0.40890 0.43600
C 	C 	0.19910 0.23261 0.34190 -0.26600
H 	H 	0.16760 0.19550 0.32820 0.13200
C 	C 	0.25220 0.25609 0.29990 0.04200
H 	H 	0.28600 0.29240 0.31560 0.02600
O 	O 	0.05834 0.15285 0.99335 -0.44100
O 	O 	0.91340 0.15635 0.88911 -0.30300
C 	C 	0.98400 0.12895 0.93850 0.36900
C 	C 	0.98070 0.06429 0.93720 -0.24200
H 	H 	0.95900 0.04530 0.88980 0.12000
C 	C 	0.00700 0.03135 0.99960 0.04500
H 	H 	0.03690 0.05040 0.04650 0.01900
