data_crystal

_cell_length_a 14.72800
_cell_length_b 14.72800
_cell_length_c 14.72800
_cell_angle_alpha 90.00000
_cell_angle_beta  90.00000
_cell_angle_gamma 90.00000

_symmetry_space_group_name_	'P 1'
_symmetry_space_group_name_H-M	'P 1'

loop_
_symmetry_equiv_pos_as_xyz
  x,y,z

loop_
_atom_site_label
_atom_site_type_symbol
_atom_site_fract_x
_atom_site_fract_y
_atom_site_fract_z
_atom_site_charge
O 	O 	0.20650 0.18080 0.05050 -0.53100
O 	O 	0.15870 0.05720 0.97520 -0.45900
C 	C 	0.21100 0.12480 0.99160 0.41500
C 	C 	0.28980 0.13120 0.92190 -0.11500
C 	C 	0.34860 0.20440 0.93490 0.05000
N 	N 	0.94390 0.93150 0.95860 0.05600
O 	O 	0.92670 0.97220 0.01160 -0.21600
H 	H 	0.33840 0.24940 0.98090 0.03600
O 	O 	0.29350 0.81920 0.55050 -0.52900
O 	O 	0.34130 0.94280 0.47520 -0.45900
C 	C 	0.28900 0.87520 0.49160 0.41300
C 	C 	0.21020 0.86880 0.42190 -0.11500
C 	C 	0.15140 0.79560 0.43490 0.05000
N 	N 	0.55610 0.06850 0.45860 0.07400
O 	O 	0.57330 0.02780 0.51160 -0.22100
H 	H 	0.16160 0.75060 0.48090 0.03500
O 	O 	0.79350 0.68080 0.44950 -0.52900
O 	O 	0.84130 0.55720 0.52480 -0.46000
C 	C 	0.78900 0.62480 0.50840 0.41200
C 	C 	0.71020 0.63120 0.57810 -0.11500
C 	C 	0.65140 0.70440 0.56510 0.04900
N 	N 	0.05610 0.43150 0.54140 0.05200
O 	O 	0.07330 0.47220 0.48840 -0.22100
H 	H 	0.66160 0.74940 0.51910 0.03500
O 	O 	0.70650 0.31920 0.94950 -0.53100
O 	O 	0.65870 0.44280 0.02480 -0.45900
C 	C 	0.71100 0.37520 0.00840 0.41500
C 	C 	0.78980 0.36880 0.07810 -0.11500
C 	C 	0.84860 0.29560 0.06510 0.05000
N 	N 	0.44390 0.56850 0.04140 0.05200
O 	O 	0.42670 0.52780 0.98840 -0.21600
H 	H 	0.83840 0.25060 0.01910 0.03600
O 	O 	0.05050 0.20650 0.18080 -0.53100
O 	O 	0.97520 0.15870 0.05720 -0.45900
C 	C 	0.99160 0.21100 0.12480 0.41500
C 	C 	0.92190 0.28980 0.13120 -0.11500
C 	C 	0.93490 0.34860 0.20440 0.05000
N 	N 	0.95860 0.94390 0.93150 0.05600
O 	O 	0.01160 0.92670 0.97220 -0.21600
H 	H 	0.98090 0.33840 0.24940 0.03600
O 	O 	0.55050 0.29350 0.81920 -0.52900
O 	O 	0.47520 0.34130 0.94280 -0.45900
C 	C 	0.49160 0.28900 0.87520 0.41300
C 	C 	0.42190 0.21020 0.86880 -0.11500
C 	C 	0.43490 0.15140 0.79560 0.05000
N 	N 	0.45860 0.55610 0.06850 0.07400
O 	O 	0.51160 0.57330 0.02780 -0.22100
H 	H 	0.48090 0.16160 0.75060 0.03500
O 	O 	0.44950 0.79350 0.68080 -0.52900
O 	O 	0.52480 0.84130 0.55720 -0.46000
C 	C 	0.50840 0.78900 0.62480 0.41200
C 	C 	0.57810 0.71020 0.63120 -0.11500
C 	C 	0.56510 0.65140 0.70440 0.04900
N 	N 	0.54140 0.05610 0.43150 0.05200
O 	O 	0.48840 0.07330 0.47220 -0.22100
H 	H 	0.51910 0.66160 0.74940 0.03500
O 	O 	0.94950 0.70650 0.31920 -0.53100
O 	O 	0.02480 0.65870 0.44280 -0.45900
C 	C 	0.00840 0.71100 0.37520 0.41500
C 	C 	0.07810 0.78980 0.36880 -0.11500
C 	C 	0.06510 0.84860 0.29560 0.05000
N 	N 	0.04140 0.44390 0.56850 0.05200
O 	O 	0.98840 0.42670 0.52780 -0.21600
H 	H 	0.01910 0.83840 0.25060 0.03600
O 	O 	0.18080 0.05050 0.20650 -0.53100
O 	O 	0.05720 0.97520 0.15870 -0.45900
C 	C 	0.12480 0.99160 0.21100 0.41500
C 	C 	0.13120 0.92190 0.28980 -0.11500
C 	C 	0.20440 0.93490 0.34860 0.05000
N 	N 	0.93150 0.95860 0.94390 0.05600
O 	O 	0.97220 0.01160 0.92670 -0.21600
H 	H 	0.24940 0.98090 0.33840 0.03600
O 	O 	0.81920 0.55050 0.29350 -0.52900
O 	O 	0.94280 0.47520 0.34130 -0.45900
C 	C 	0.87520 0.49160 0.28900 0.41300
C 	C 	0.86880 0.42190 0.21020 -0.11500
C 	C 	0.79560 0.43490 0.15140 0.05000
N 	N 	0.06850 0.45860 0.55610 0.07400
O 	O 	0.02780 0.51160 0.57330 -0.22100
H 	H 	0.75060 0.48090 0.16160 0.03500
O 	O 	0.68080 0.44950 0.79350 -0.52900
O 	O 	0.55720 0.52480 0.84130 -0.46000
C 	C 	0.62480 0.50840 0.78900 0.41200
C 	C 	0.63120 0.57810 0.71020 -0.11500
C 	C 	0.70440 0.56510 0.65140 0.04900
N 	N 	0.43150 0.54140 0.05610 0.05200
O 	O 	0.47220 0.48840 0.07330 -0.22100
H 	H 	0.74940 0.51910 0.66160 0.03500
O 	O 	0.31920 0.94950 0.70650 -0.53100
O 	O 	0.44280 0.02480 0.65870 -0.45900
C 	C 	0.37520 0.00840 0.71100 0.41500
C 	C 	0.36880 0.07810 0.78980 -0.11500
C 	C 	0.29560 0.06510 0.84860 0.05000
N 	N 	0.56850 0.04140 0.44390 0.05200
O 	O 	0.52780 0.98840 0.42670 -0.21600
H 	H 	0.25060 0.01910 0.83840 0.03600
Zn	Zn	0.18670 0.18670 0.18670 1.17900
Zn	Zn	0.04680 0.04680 0.04680 1.24200
O 	O 	0.89530 0.89530 0.89530 -0.12900
Zn	Zn	0.31330 0.81330 0.68670 1.17900
Zn	Zn	0.45320 0.95320 0.54680 1.24300
O 	O 	0.60470 0.10470 0.39530 -0.12500
Zn	Zn	0.81330 0.68670 0.31330 1.17900
Zn	Zn	0.95320 0.54680 0.45320 1.24300
O 	O 	0.10470 0.39530 0.60470 -0.12500
Zn	Zn	0.68670 0.31330 0.81330 1.17900
Zn	Zn	0.54680 0.45320 0.95320 1.24300
O 	O 	0.39530 0.60470 0.10470 -0.12500
