data_crystal

_cell_length_a 13.01260
_cell_length_b 13.11460
_cell_length_c 13.90710
_cell_angle_alpha 84.95600
_cell_angle_beta  69.27300
_cell_angle_gamma 84.60800

_symmetry_space_group_name_	'P 1'
_symmetry_space_group_name_H-M	'P 1'

loop_
_symmetry_equiv_pos_as_xyz
  x,y,z

loop_
_atom_site_label
_atom_site_type_symbol
_atom_site_fract_x
_atom_site_fract_y
_atom_site_fract_z
_atom_site_charge
Zn	Zn	0.20298 0.32206 0.16422 1.21400
Zn	Zn	0.13367 0.32743 0.39017 1.21400
O 	O 	0.13961 0.47954 0.34898 -0.46600
O 	O 	0.13954 0.17424 0.37276 -0.46600
O 	O 	0.97261 0.33681 0.40015 -0.45000
O 	O 	0.20370 0.16945 0.20129 -0.46000
O 	O 	0.36409 0.31510 0.15423 -0.44500
O 	O 	0.19350 0.47562 0.17756 -0.46400
N 	N 	0.19910 0.32217 0.01894 -0.23600
N 	N 	0.13180 0.32447 0.53670 -0.23900
O 	O 	0.30370 0.31724 0.32514 -0.47000
O 	O 	0.03173 0.32620 0.22994 -0.46900
C 	C 	0.16890 0.52110 0.25980 0.37500
C 	C 	0.15520 0.79910 0.32510 0.04200
C 	C 	0.17120 0.12740 0.29140 0.38600
C 	C 	0.14950 0.69150 0.33420 -0.05000
H 	H 	0.12820 0.65700 0.40050 0.06500
C 	C 	0.37850 0.31440 0.23880 0.38200
C 	C 	0.13410 0.96260 0.40130 0.02800
H 	H 	0.11470 0.00110 0.46060 0.03500
C 	C 	0.12880 0.85810 0.41200 -0.10300
H 	H 	0.10700 0.82490 0.47900 0.07600
C 	C 	0.82100 0.31080 0.23270 -0.03400
H 	H 	0.88130 0.29980 0.17070 0.05300
C 	C 	0.71260 0.30920 0.23290 0.02000
C 	C 	0.49500 0.31120 0.23720 -0.08300
C 	C 	0.16860 0.01330 0.30170 -0.09700
C 	C 	0.17410 0.63620 0.24880 -0.07000
C 	C 	0.16740 0.32150 0.83060 0.02700
C 	C 	0.58470 0.29300 0.14530 0.01300
H 	H 	0.57130 0.28120 0.08450 0.04000
C 	C 	0.69010 0.29210 0.14350 -0.08400
H 	H 	0.74950 0.27970 0.08110 0.05400
C 	C 	0.84090 0.32770 0.31960 -0.09100
C 	C 	0.19750 0.95710 0.21660 -0.01700
H 	H 	0.22250 0.99110 0.15010 0.04900
C 	C 	0.15270 0.32170 0.72930 0.03100
C 	C 	0.51500 0.32710 0.32490 -0.03300
H 	H 	0.45470 0.33860 0.38670 0.05700
C 	C 	0.62310 0.32660 0.32520 0.02400
C 	C 	0.10740 0.40460 0.69120 -0.05200
H 	H 	0.08230 0.46390 0.72990 0.04100
C 	C 	0.64570 0.34450 0.41490 -0.08700
H 	H 	0.58630 0.35660 0.47730 0.06100
C 	C 	0.75100 0.34440 0.41280 0.01400
H 	H 	0.76460 0.35550 0.47370 0.03800
C 	C 	0.09720 0.40360 0.59490 0.00500
H 	H 	0.06380 0.46260 0.57010 0.02000
C 	C 	0.19080 0.84960 0.22550 0.00200
C 	C 	0.22290 0.68640 0.14710 -0.01400
H 	H 	0.24690 0.64720 0.08780 0.03300
C 	C 	0.23430 0.78930 0.13650 -0.03400
H 	H 	0.27090 0.82110 0.07060 0.03300
C 	C 	0.95760 0.33030 0.31580 0.37300
C 	C 	0.12720 0.23670 0.59490 0.02900
H 	H 	0.11750 0.17510 0.56880 0.01300
C 	C 	0.13590 0.23230 0.69160 -0.01000
H 	H 	0.13050 0.16920 0.73160 0.03000
C 	C 	0.12200 0.40450 0.89640 -0.10500
H 	H 	0.07970 0.46030 0.87730 0.06000
C 	C 	0.14070 0.40170 0.98740 -0.01200
H 	H 	0.11190 0.45760 0.03050 0.02200
C 	C 	0.23000 0.24040 0.96310 0.01900
H 	H 	0.26390 0.18190 0.98820 0.00900
C 	C 	0.21510 0.23670 0.86970 -0.03900
H 	H 	0.23740 0.17620 0.83260 0.03200
C 	C 	0.20300 0.24040 0.66330 -0.08900
H 	H 	0.24400 0.18470 0.68420 0.05400
C 	C 	0.19090 0.24440 0.56840 0.00300
H 	H 	0.22430 0.19060 0.52370 0.02100
C 	C 	0.13680 0.41120 0.57750 0.03200
H 	H 	0.13190 0.47440 0.53980 0.01000
C 	C 	0.14880 0.41380 0.67270 -0.03400
H 	H 	0.15420 0.47700 0.69840 0.03400
C 	C 	0.18750 0.79270 0.14090 -0.03100
H 	H 	0.19180 0.82780 0.07700 0.03000
C 	C 	0.17800 0.68810 0.15390 -0.00100
H 	H 	0.17420 0.65120 0.09960 0.02600
C 	C 	0.19860 0.40870 0.96170 0.04400
H 	H 	0.20720 0.47120 0.98690 0.00600
C 	C 	0.18600 0.41110 0.86770 0.00500
H 	H 	0.18990 0.47410 0.82750 0.02900
C 	C 	0.18800 0.23590 0.98120 0.01500
H 	H 	0.19120 0.17310 0.02010 0.01400
C 	C 	0.17210 0.23220 0.88830 -0.04600
H 	H 	0.16450 0.16840 0.86480 0.03400
Zn	Zn	0.79702 0.67794 0.83578 1.21500
Zn	Zn	0.86633 0.67257 0.60983 1.21500
O 	O 	0.86039 0.52046 0.65102 -0.46500
O 	O 	0.86046 0.82576 0.62724 -0.46500
O 	O 	0.02739 0.66319 0.59985 -0.44900
O 	O 	0.79630 0.83055 0.79871 -0.45900
O 	O 	0.63591 0.68490 0.84577 -0.44400
O 	O 	0.80650 0.52438 0.82244 -0.46300
N 	N 	0.80090 0.67783 0.98106 -0.23500
N 	N 	0.86820 0.67553 0.46330 -0.23800
O 	O 	0.69630 0.68276 0.67486 -0.47000
O 	O 	0.96827 0.67380 0.77006 -0.46900
C 	C 	0.83110 0.47890 0.74020 0.37500
C 	C 	0.84480 0.20090 0.67490 0.04200
C 	C 	0.82880 0.87260 0.70860 0.38600
C 	C 	0.85050 0.30850 0.66580 -0.05000
H 	H 	0.87180 0.34300 0.59950 0.06500
C 	C 	0.62150 0.68560 0.76120 0.38200
C 	C 	0.86590 0.03740 0.59870 0.02800
H 	H 	0.88530 0.99890 0.53940 0.03500
C 	C 	0.87120 0.14190 0.58800 -0.10300
H 	H 	0.89300 0.17510 0.52100 0.07600
C 	C 	0.17900 0.68920 0.76730 -0.03400
H 	H 	0.11870 0.70020 0.82930 0.05300
C 	C 	0.28740 0.69080 0.76710 0.02000
C 	C 	0.50500 0.68880 0.76280 -0.08300
C 	C 	0.83140 0.98670 0.69830 -0.09700
C 	C 	0.82590 0.36380 0.75120 -0.07000
C 	C 	0.83260 0.67850 0.16940 0.02700
C 	C 	0.41530 0.70700 0.85470 0.01300
H 	H 	0.42870 0.71880 0.91550 0.04000
C 	C 	0.30990 0.70790 0.85650 -0.08400
H 	H 	0.25050 0.72030 0.91890 0.05400
C 	C 	0.15910 0.67230 0.68040 -0.09100
C 	C 	0.80250 0.04290 0.78340 -0.01700
H 	H 	0.77750 0.00890 0.84990 0.04900
C 	C 	0.84730 0.67830 0.27070 0.03100
C 	C 	0.48500 0.67290 0.67510 -0.03300
H 	H 	0.54530 0.66140 0.61330 0.05700
C 	C 	0.37690 0.67340 0.67480 0.02400
C 	C 	0.89260 0.59540 0.30880 -0.05200
H 	H 	0.91770 0.53610 0.27010 0.04100
C 	C 	0.35430 0.65550 0.58510 -0.08700
H 	H 	0.41370 0.64340 0.52270 0.06100
C 	C 	0.24900 0.65560 0.58720 0.01400
H 	H 	0.23540 0.64450 0.52630 0.03800
C 	C 	0.90280 0.59640 0.40510 0.00500
H 	H 	0.93620 0.53740 0.42990 0.02000
C 	C 	0.80920 0.15040 0.77450 0.00200
C 	C 	0.77710 0.31360 0.85290 -0.01400
H 	H 	0.75310 0.35280 0.91220 0.03300
C 	C 	0.76570 0.21070 0.86350 -0.03400
H 	H 	0.72910 0.17890 0.92940 0.03300
C 	C 	0.04240 0.66970 0.68420 0.37300
C 	C 	0.87280 0.76330 0.40510 0.02900
H 	H 	0.88250 0.82490 0.43120 0.01300
C 	C 	0.86410 0.76770 0.30840 -0.01000
H 	H 	0.86950 0.83080 0.26840 0.03000
C 	C 	0.87800 0.59550 0.10360 -0.10500
H 	H 	0.92030 0.53970 0.12270 0.06000
C 	C 	0.85930 0.59830 0.01260 -0.01200
H 	H 	0.88810 0.54240 0.96950 0.02200
C 	C 	0.77000 0.75960 0.03690 0.01900
H 	H 	0.73610 0.81810 0.01180 0.00900
C 	C 	0.78490 0.76330 0.13030 -0.03900
H 	H 	0.76260 0.82380 0.16740 0.03200
C 	C 	0.79700 0.75960 0.33670 -0.08900
H 	H 	0.75600 0.81530 0.31580 0.05400
C 	C 	0.80910 0.75560 0.43160 0.00300
H 	H 	0.77570 0.80940 0.47630 0.02100
C 	C 	0.86320 0.58880 0.42250 0.03200
H 	H 	0.86810 0.52560 0.46020 0.01000
C 	C 	0.85120 0.58620 0.32730 -0.03400
H 	H 	0.84580 0.52300 0.30160 0.03400
C 	C 	0.81250 0.20730 0.85910 -0.03100
H 	H 	0.80820 0.17220 0.92300 0.03000
C 	C 	0.82200 0.31190 0.84610 -0.00100
H 	H 	0.82580 0.34880 0.90040 0.02600
C 	C 	0.80140 0.59130 0.03830 0.04400
H 	H 	0.79280 0.52880 0.01310 0.00600
C 	C 	0.81400 0.58890 0.13230 0.00500
H 	H 	0.81010 0.52590 0.17250 0.02900
C 	C 	0.81200 0.76410 0.01880 0.01500
H 	H 	0.80880 0.82690 0.97990 0.01400
C 	C 	0.82790 0.76780 0.11170 -0.04600
H 	H 	0.83550 0.83160 0.13520 0.03400
