data_crystal

_cell_length_a 9.61500
_cell_length_b 21.12200
_cell_length_c 13.15200
_cell_angle_alpha 90.00000
_cell_angle_beta  91.12600
_cell_angle_gamma 90.00000

_symmetry_space_group_name_	'P 1'
_symmetry_space_group_name_H-M	'P 1'

loop_
_symmetry_equiv_pos_as_xyz
  x,y,z

loop_
_atom_site_label
_atom_site_type_symbol
_atom_site_fract_x
_atom_site_fract_y
_atom_site_fract_z
_atom_site_charge
Cd	Cd	0.89741 0.08969 0.22756 1.20600
C 	C 	0.95860 0.26660 0.78920 0.03000
H 	H 	0.99770 0.26760 0.72510 0.03800
C 	C 	0.96060 0.21000 0.84290 -0.01900
H 	H 	0.99740 0.17370 0.81400 0.07100
C 	C 	0.90790 0.20830 0.93850 -0.08800
C 	C 	0.85480 0.26270 0.97710 0.05000
H 	H 	0.82090 0.26340 0.04280 0.00200
C 	C 	0.85130 0.31730 0.91810 -0.00000
H 	H 	0.81110 0.35360 0.94460 0.01200
C 	C 	0.90850 0.14780 0.99900 0.43200
C 	C 	0.59380 0.07980 0.12080 0.02600
H 	H 	0.65370 0.07390 0.06690 -0.01300
C 	C 	0.45450 0.07220 0.10370 -0.04900
H 	H 	0.42150 0.05950 0.04000 0.04200
C 	C 	0.36210 0.08340 0.18100 -0.08800
C 	C 	0.41870 0.10090 0.27400 -0.04700
H 	H 	0.36080 0.10910 0.32830 0.03800
C 	C 	0.55940 0.10610 0.28650 0.02200
H 	H 	0.59540 0.11760 0.35000 -0.00600
C 	C 	0.20750 0.07330 0.16560 0.41100
N 	N 	0.90300 0.31970 0.82580 -0.20400
N 	N 	0.64770 0.09520 0.21120 -0.21800
N 	N 	0.87540 0.99630 0.14310 -0.24800
N 	N 	0.80180 0.95410 0.16370 -0.03100
N 	N 	0.73630 0.91190 0.18600 -0.06000
O 	O 	0.91200 0.09690 0.95030 -0.40000
O 	O 	0.89730 0.15450 0.09270 -0.46300
O 	O 	0.17330 0.05120 0.08290 -0.51000
O 	O 	0.13220 0.08840 0.23620 -0.52300
Cd	Cd	0.10259 0.58969 0.27244 1.18000
C 	C 	0.04140 0.76660 0.71080 0.02900
H 	H 	0.00230 0.76760 0.77490 0.00200
C 	C 	0.03940 0.71000 0.65710 -0.06100
H 	H 	0.00260 0.67370 0.68600 0.04600
C 	C 	0.09210 0.70830 0.56150 -0.05400
C 	C 	0.14520 0.76270 0.52290 -0.06500
H 	H 	0.17910 0.76340 0.45720 0.06200
C 	C 	0.14870 0.81730 0.58190 0.03700
H 	H 	0.18890 0.85360 0.55540 -0.02100
C 	C 	0.09150 0.64780 0.50100 0.36000
C 	C 	0.40620 0.57980 0.37920 0.05100
H 	H 	0.34630 0.57390 0.43310 -0.00100
C 	C 	0.54550 0.57220 0.39630 -0.06400
H 	H 	0.57850 0.55950 0.46000 0.07400
C 	C 	0.63790 0.58340 0.31900 -0.04000
C 	C 	0.58130 0.60090 0.22600 -0.06700
H 	H 	0.63920 0.60910 0.17170 0.06800
C 	C 	0.44060 0.60610 0.21350 0.04500
H 	H 	0.40460 0.61760 0.15000 -0.01100
C 	C 	0.79250 0.57330 0.33440 0.39200
N 	N 	0.09700 0.81970 0.67420 -0.23500
N 	N 	0.35230 0.59520 0.28880 -0.22300
N 	N 	0.12460 0.49630 0.35690 -0.32300
N 	N 	0.19820 0.45410 0.33630 -0.05800
N 	N 	0.26370 0.41190 0.31400 -0.10700
O 	O 	0.08800 0.59690 0.54970 -0.44000
O 	O 	0.10270 0.65450 0.40730 -0.45600
O 	O 	0.82670 0.55120 0.41710 -0.41600
O 	O 	0.86780 0.58840 0.26380 -0.41100
Cd	Cd	0.10259 0.91031 0.77244 1.18800
C 	C 	0.04140 0.73340 0.21080 0.05500
H 	H 	0.00230 0.73240 0.27490 -0.00900
C 	C 	0.03940 0.79000 0.15710 -0.10900
H 	H 	0.00260 0.82630 0.18600 0.06100
C 	C 	0.09210 0.79170 0.06150 0.01000
C 	C 	0.14520 0.73730 0.02290 -0.18800
H 	H 	0.17910 0.73660 0.95720 0.12700
C 	C 	0.14870 0.68270 0.08190 0.09300
H 	H 	0.18890 0.64640 0.05540 -0.05500
C 	C 	0.09150 0.85220 0.00100 0.28900
C 	C 	0.40620 0.92020 0.87920 0.06300
H 	H 	0.34630 0.92610 0.93310 0.01500
C 	C 	0.54550 0.92780 0.89630 -0.06500
H 	H 	0.57850 0.94050 0.96000 0.09300
C 	C 	0.63790 0.91660 0.81900 -0.02400
C 	C 	0.58130 0.89910 0.72600 -0.06900
H 	H 	0.63920 0.89090 0.67170 0.07900
C 	C 	0.44060 0.89390 0.71350 0.05600
H 	H 	0.40460 0.88240 0.65000 -0.00500
C 	C 	0.79250 0.92670 0.83440 0.38700
N 	N 	0.09700 0.68030 0.17420 -0.25300
N 	N 	0.35230 0.90480 0.78880 -0.21900
N 	N 	0.12460 0.00370 0.85690 -0.33100
N 	N 	0.19820 0.04590 0.83630 -0.05800
N 	N 	0.26370 0.08810 0.81400 -0.10400
O 	O 	0.08800 0.90310 0.04970 -0.41900
O 	O 	0.10270 0.84550 0.90730 -0.41400
O 	O 	0.82670 0.94880 0.91710 -0.38500
O 	O 	0.86780 0.91160 0.76380 -0.39700
Cd	Cd	0.89741 0.41031 0.72756 1.21500
C 	C 	0.95860 0.23340 0.28920 0.05600
H 	H 	0.99770 0.23240 0.22510 0.02800
C 	C 	0.96060 0.29000 0.34290 -0.06500
H 	H 	0.99740 0.32630 0.31400 0.08600
C 	C 	0.90790 0.29170 0.43850 -0.02600
C 	C 	0.85480 0.23730 0.47710 -0.07100
H 	H 	0.82090 0.23660 0.54280 0.06600
C 	C 	0.85130 0.18270 0.41810 0.05500
H 	H 	0.81110 0.14640 0.44460 -0.02100
C 	C 	0.90850 0.35220 0.49900 0.36300
C 	C 	0.59380 0.42020 0.62080 0.03900
H 	H 	0.65370 0.42610 0.56690 0.00300
C 	C 	0.45450 0.42780 0.60370 -0.05000
H 	H 	0.42150 0.44050 0.54000 0.06200
C 	C 	0.36210 0.41660 0.68100 -0.07200
C 	C 	0.41870 0.39910 0.77400 -0.04900
H 	H 	0.36080 0.39090 0.82830 0.04900
C 	C 	0.55940 0.39390 0.78650 0.03300
H 	H 	0.59540 0.38240 0.85000 -0.00000
C 	C 	0.20750 0.42670 0.66560 0.40900
N 	N 	0.90300 0.18030 0.32580 -0.22100
N 	N 	0.64770 0.40480 0.71120 -0.21400
N 	N 	0.87540 0.50370 0.64310 -0.26700
N 	N 	0.80180 0.54590 0.66370 -0.03300
N 	N 	0.73630 0.58810 0.68600 -0.06000
O 	O 	0.91200 0.40310 0.45030 -0.38700
O 	O 	0.89730 0.34550 0.59270 -0.42300
O 	O 	0.17330 0.44880 0.58290 -0.48400
O 	O 	0.13220 0.41160 0.73620 -0.50800
Cd	Cd	-0.00000 0.00000 -0.00000 1.17100
Cd	Cd	0.00000 0.50000 0.50000 1.19800
