data_crystal

_cell_length_a 14.84500
_cell_length_b 18.35500
_cell_length_c 11.16080
_cell_angle_alpha 90.00000
_cell_angle_beta  90.00000
_cell_angle_gamma 90.00000

_symmetry_space_group_name_	'P 1'
_symmetry_space_group_name_H-M	'P 1'

loop_
_symmetry_equiv_pos_as_xyz
  x,y,z

loop_
_atom_site_label
_atom_site_type_symbol
_atom_site_fract_x
_atom_site_fract_y
_atom_site_fract_z
_atom_site_charge
C 	C 	0.92620 0.10830 0.51120 0.47400
H 	H 	0.92690 0.05870 0.49430 -0.12200
C 	C 	0.94100 0.15790 0.42170 -0.68600
H 	H 	0.95210 0.14140 0.34430 0.26100
C 	C 	0.93980 0.23210 0.44360 0.77600
C 	C 	0.92630 0.25420 0.55830 -0.71600
H 	H 	0.92840 0.30370 0.57630 0.27800
C 	C 	0.91010 0.20560 0.64700 0.48700
H 	H 	0.89840 0.22210 0.72420 -0.12400
C 	C 	0.91070 0.13160 0.62370 -0.40500
C 	C 	0.94990 0.28530 0.34310 -1.38200
H 	H 	0.89180 0.30420 0.32160 0.43100
H 	H 	0.97610 0.26120 0.27520 0.43900
H 	H 	0.98820 0.32460 0.36790 0.43200
C 	C 	0.95340 0.13830 0.93070 -0.11400
H 	H 	0.90030 0.16830 0.91360 0.09900
C 	C 	0.03870 0.18530 0.91490 0.32400
C 	C 	0.94830 0.11220 0.05920 0.10500
H 	H 	0.95990 0.15280 0.11250 -0.00800
H 	H 	0.99460 0.07590 0.07270 -0.00100
C 	C 	0.85590 0.07910 0.08930 -0.41400
H 	H 	0.84200 0.04220 0.02990 0.17500
H 	H 	0.86020 0.05490 0.16640 0.15000
C 	C 	0.77790 0.13280 0.09410 0.43500
C 	C 	0.20370 0.28620 0.65130 0.08200
H 	H 	0.21170 0.33040 0.69080 0.00400
C 	C 	0.19870 0.28690 0.52990 -0.14600
H 	H 	0.20180 0.33100 0.48910 0.07900
C 	C 	0.18910 0.22350 0.46670 0.06000
C 	C 	0.17980 0.16130 0.53390 -0.13600
H 	H 	0.17050 0.11680 0.49620 0.08300
C 	C 	0.18410 0.16490 0.65630 0.06600
H 	H 	0.17700 0.12180 0.69930 0.01700
C 	C 	0.19030 0.22260 0.33470 0.04800
C 	C 	0.17650 0.28340 0.26600 -0.13700
H 	H 	0.16200 0.32720 0.30310 0.07500
C 	C 	0.18390 0.28080 0.14360 0.08200
H 	H 	0.17460 0.32360 0.10060 0.01700
C 	C 	0.21590 0.15980 0.14780 0.07700
H 	H 	0.22850 0.11640 0.10800 -0.00700
C 	C 	0.21060 0.15920 0.27040 -0.13400
H 	H 	0.22070 0.11600 0.31160 0.07200
Cu	Cu	0.21103 0.22080 0.89953 0.89600
N 	N 	0.19770 0.22570 0.71720 -0.22500
N 	N 	0.20360 0.22050 0.08320 -0.21600
N 	N 	0.95530 0.07740 0.84700 -0.21500
O 	O 	0.03390 0.25170 0.91720 -0.30500
O 	O 	0.11130 0.14889 0.90220 -0.38500
O 	O 	0.70230 0.11000 0.09740 -0.32200
O 	O 	0.80050 0.20089 0.09600 -0.42700
H 	H 	0.00740 0.05880 0.82630 0.15400
O 	O 	0.79890 0.09000 0.78650 -0.27300
O 	O 	0.89520 0.99730 0.69220 -0.27100
S 	S 	0.88390 0.06944 0.73841 0.49100
C 	C 	0.42620 0.39170 0.48880 0.47500
H 	H 	0.42690 0.44130 0.50570 -0.12000
C 	C 	0.44100 0.34210 0.57830 -0.68500
H 	H 	0.45210 0.35860 0.65570 0.26200
C 	C 	0.43980 0.26790 0.55640 0.77500
C 	C 	0.42630 0.24580 0.44170 -0.71600
H 	H 	0.42840 0.19630 0.42370 0.27800
C 	C 	0.41010 0.29440 0.35300 0.48700
H 	H 	0.39840 0.27790 0.27580 -0.12400
C 	C 	0.41070 0.36840 0.37630 -0.40500
C 	C 	0.44990 0.21470 0.65690 -1.38200
H 	H 	0.39180 0.19580 0.67840 0.43100
H 	H 	0.47610 0.23880 0.72480 0.43900
H 	H 	0.48820 0.17540 0.63210 0.43200
C 	C 	0.45340 0.36170 0.06930 -0.11300
H 	H 	0.40030 0.33170 0.08640 0.09900
C 	C 	0.53870 0.31470 0.08510 0.32300
C 	C 	0.44830 0.38780 0.94080 0.10300
H 	H 	0.45990 0.34720 0.88750 -0.00800
H 	H 	0.49460 0.42410 0.92730 -0.00000
C 	C 	0.35590 0.42090 0.91070 -0.41300
H 	H 	0.34200 0.45780 0.97010 0.17500
H 	H 	0.36020 0.44510 0.83360 0.15000
C 	C 	0.27790 0.36720 0.90590 0.43400
C 	C 	0.70370 0.21380 0.34870 0.08200
H 	H 	0.71170 0.16960 0.30920 0.00400
C 	C 	0.69870 0.21310 0.47010 -0.14600
H 	H 	0.70180 0.16900 0.51090 0.07900
C 	C 	0.68910 0.27650 0.53330 0.05900
C 	C 	0.67980 0.33870 0.46610 -0.13600
H 	H 	0.67050 0.38320 0.50380 0.08300
C 	C 	0.68410 0.33510 0.34370 0.06600
H 	H 	0.67700 0.37820 0.30070 0.01700
C 	C 	0.69030 0.27740 0.66530 0.04800
C 	C 	0.67650 0.21660 0.73400 -0.13700
H 	H 	0.66200 0.17280 0.69690 0.07500
C 	C 	0.68390 0.21920 0.85640 0.08200
H 	H 	0.67460 0.17640 0.89940 0.01700
C 	C 	0.71590 0.34020 0.85220 0.07700
H 	H 	0.72850 0.38360 0.89200 -0.00700
C 	C 	0.71060 0.34080 0.72960 -0.13400
H 	H 	0.72070 0.38400 0.68840 0.07200
Cu	Cu	0.71103 0.27920 0.10047 0.89600
N 	N 	0.69770 0.27430 0.28280 -0.22500
N 	N 	0.70360 0.27950 0.91680 -0.21600
N 	N 	0.45530 0.42260 0.15300 -0.21400
O 	O 	0.53390 0.24830 0.08280 -0.30500
O 	O 	0.61130 0.35111 0.09780 -0.38500
O 	O 	0.20230 0.39000 0.90260 -0.32200
O 	O 	0.30050 0.29911 0.90400 -0.42800
H 	H 	0.50740 0.44120 0.17370 0.15300
O 	O 	0.29890 0.41000 0.21350 -0.27300
O 	O 	0.39520 0.50270 0.30780 -0.27100
S 	S 	0.38390 0.43056 0.26159 0.49200
C 	C 	0.07380 0.89170 0.51120 0.47500
H 	H 	0.07310 0.94130 0.49430 -0.12100
C 	C 	0.05900 0.84210 0.42170 -0.68500
H 	H 	0.04790 0.85860 0.34430 0.26200
C 	C 	0.06020 0.76790 0.44360 0.77600
C 	C 	0.07370 0.74580 0.55830 -0.71600
H 	H 	0.07160 0.69630 0.57630 0.27800
C 	C 	0.08990 0.79440 0.64700 0.48700
H 	H 	0.10160 0.77790 0.72420 -0.12400
C 	C 	0.08930 0.86840 0.62370 -0.40500
C 	C 	0.05010 0.71470 0.34310 -1.38200
H 	H 	0.10820 0.69580 0.32160 0.43100
H 	H 	0.02390 0.73880 0.27520 0.43900
H 	H 	0.01180 0.67540 0.36790 0.43200
C 	C 	0.04660 0.86170 0.93070 -0.11400
H 	H 	0.09970 0.83170 0.91360 0.09900
C 	C 	0.96130 0.81470 0.91490 0.32400
C 	C 	0.05170 0.88780 0.05920 0.10500
H 	H 	0.04010 0.84720 0.11250 -0.00800
H 	H 	0.00540 0.92410 0.07270 -0.00100
C 	C 	0.14410 0.92090 0.08930 -0.41400
H 	H 	0.15800 0.95780 0.02990 0.17500
H 	H 	0.13980 0.94510 0.16640 0.15000
C 	C 	0.22210 0.86720 0.09410 0.43500
C 	C 	0.79630 0.71380 0.65130 0.08200
H 	H 	0.78830 0.66960 0.69080 0.00400
C 	C 	0.80130 0.71310 0.52990 -0.14600
H 	H 	0.79820 0.66900 0.48910 0.07900
C 	C 	0.81090 0.77650 0.46670 0.06000
C 	C 	0.82020 0.83870 0.53390 -0.13600
H 	H 	0.82950 0.88320 0.49620 0.08300
C 	C 	0.81590 0.83510 0.65630 0.06600
H 	H 	0.82300 0.87820 0.69930 0.01700
C 	C 	0.80970 0.77740 0.33470 0.04800
C 	C 	0.82350 0.71660 0.26600 -0.13700
H 	H 	0.83800 0.67280 0.30310 0.07500
C 	C 	0.81610 0.71920 0.14360 0.08200
H 	H 	0.82540 0.67640 0.10060 0.01700
C 	C 	0.78410 0.84020 0.14780 0.07700
H 	H 	0.77150 0.88360 0.10800 -0.00700
C 	C 	0.78940 0.84080 0.27040 -0.13400
H 	H 	0.77930 0.88400 0.31160 0.07200
Cu	Cu	0.78897 0.77920 0.89953 0.89600
N 	N 	0.80230 0.77430 0.71720 -0.22500
N 	N 	0.79640 0.77950 0.08320 -0.21600
N 	N 	0.04470 0.92260 0.84700 -0.21500
O 	O 	0.96610 0.74830 0.91720 -0.30500
O 	O 	0.88870 0.85111 0.90220 -0.38500
O 	O 	0.29770 0.89000 0.09740 -0.32200
O 	O 	0.19950 0.79911 0.09600 -0.42700
H 	H 	0.99260 0.94120 0.82630 0.15400
O 	O 	0.20110 0.91000 0.78650 -0.27300
O 	O 	0.10480 0.00270 0.69220 -0.27100
S 	S 	0.11610 0.93056 0.73841 0.49100
C 	C 	0.57380 0.60830 0.48880 0.47500
H 	H 	0.57310 0.55870 0.50570 -0.12000
C 	C 	0.55900 0.65790 0.57830 -0.68500
H 	H 	0.54790 0.64140 0.65570 0.26200
C 	C 	0.56020 0.73210 0.55640 0.77500
C 	C 	0.57370 0.75420 0.44170 -0.71600
H 	H 	0.57160 0.80370 0.42370 0.27800
C 	C 	0.58990 0.70560 0.35300 0.48700
H 	H 	0.60160 0.72210 0.27580 -0.12400
C 	C 	0.58930 0.63160 0.37630 -0.40500
C 	C 	0.55010 0.78530 0.65690 -1.38200
H 	H 	0.60820 0.80420 0.67840 0.43100
H 	H 	0.52390 0.76120 0.72480 0.43900
H 	H 	0.51180 0.82460 0.63210 0.43200
C 	C 	0.54660 0.63830 0.06930 -0.11300
H 	H 	0.59970 0.66830 0.08640 0.09900
C 	C 	0.46130 0.68530 0.08510 0.32300
C 	C 	0.55170 0.61220 0.94080 0.10300
H 	H 	0.54010 0.65280 0.88750 -0.00800
H 	H 	0.50540 0.57590 0.92730 -0.00000
C 	C 	0.64410 0.57910 0.91070 -0.41300
H 	H 	0.65800 0.54220 0.97010 0.17500
H 	H 	0.63980 0.55490 0.83360 0.15000
C 	C 	0.72210 0.63280 0.90590 0.43400
C 	C 	0.29630 0.78620 0.34870 0.08200
H 	H 	0.28830 0.83040 0.30920 0.00400
C 	C 	0.30130 0.78690 0.47010 -0.14600
H 	H 	0.29820 0.83100 0.51090 0.07900
C 	C 	0.31090 0.72350 0.53330 0.05900
C 	C 	0.32020 0.66130 0.46610 -0.13600
H 	H 	0.32950 0.61680 0.50380 0.08300
C 	C 	0.31590 0.66490 0.34370 0.06600
H 	H 	0.32300 0.62180 0.30070 0.01700
C 	C 	0.30970 0.72260 0.66530 0.04800
C 	C 	0.32350 0.78340 0.73400 -0.13700
H 	H 	0.33800 0.82720 0.69690 0.07500
C 	C 	0.31610 0.78080 0.85640 0.08200
H 	H 	0.32540 0.82360 0.89940 0.01700
C 	C 	0.28410 0.65980 0.85220 0.07700
H 	H 	0.27150 0.61640 0.89200 -0.00700
C 	C 	0.28940 0.65920 0.72960 -0.13400
H 	H 	0.27930 0.61600 0.68840 0.07200
Cu	Cu	0.28897 0.72080 0.10047 0.89600
N 	N 	0.30230 0.72570 0.28280 -0.22500
N 	N 	0.29640 0.72050 0.91680 -0.21600
N 	N 	0.54470 0.57740 0.15300 -0.21400
O 	O 	0.46610 0.75170 0.08280 -0.30500
O 	O 	0.38870 0.64889 0.09780 -0.38500
O 	O 	0.79770 0.61000 0.90260 -0.32200
O 	O 	0.69950 0.70089 0.90400 -0.42800
H 	H 	0.49260 0.55880 0.17370 0.15300
O 	O 	0.70110 0.59000 0.21350 -0.27300
O 	O 	0.60480 0.49730 0.30780 -0.27100
S 	S 	0.61610 0.56944 0.26159 0.49200
