data_crystal

_cell_length_a 7.11300
_cell_length_b 9.95900
_cell_length_c 9.95900
_cell_angle_alpha 90.00000
_cell_angle_beta  90.00000
_cell_angle_gamma 90.00000

_symmetry_space_group_name_	'P 1'
_symmetry_space_group_name_H-M	'P 1'

loop_
_symmetry_equiv_pos_as_xyz
  x,y,z

loop_
_atom_site_label
_atom_site_type_symbol
_atom_site_fract_x
_atom_site_fract_y
_atom_site_fract_z
_atom_site_charge
V 	V 	0.50000 0.60910 0.89090 1.79800
V 	V 	0.50000 0.39090 0.10910 1.79800
V 	V 	0.50000 0.10910 0.60910 1.79800
V 	V 	0.50000 0.89090 0.39090 1.79800
H 	H 	0.50000 0.35630 0.85630 0.43500
H 	H 	0.50000 0.64370 0.14370 0.43500
H 	H 	0.50000 0.14370 0.35630 0.43500
H 	H 	0.50000 0.85630 0.64370 0.43500
C 	C 	0.50000 0.44220 0.41440 0.09400
C 	C 	0.50000 0.55780 0.58560 0.09400
C 	C 	0.50000 0.58560 0.44220 0.09400
C 	C 	0.50000 0.41440 0.55780 0.09400
C 	C 	0.50000 0.05780 0.91440 0.09400
C 	C 	0.50000 0.94220 0.08560 0.09400
C 	C 	0.50000 0.91440 0.94220 0.09400
C 	C 	0.50000 0.08560 0.05780 0.09400
C 	C 	0.10100 0.55160 0.94840 0.08900
C 	C 	0.10100 0.44840 0.05160 0.08900
C 	C 	0.10100 0.05160 0.55160 0.08900
C 	C 	0.10100 0.94840 0.44840 0.08900
C 	C 	0.89900 0.94840 0.44840 0.08900
C 	C 	0.89900 0.05160 0.55160 0.08900
C 	C 	0.89900 0.44840 0.05160 0.08900
C 	C 	0.89900 0.55160 0.94840 0.08900
O 	O 	0.50000 0.62990 0.68790 -0.42000
O 	O 	0.50000 0.37010 0.31210 -0.42000
O 	O 	0.50000 0.31210 0.62990 -0.42000
O 	O 	0.50000 0.68790 0.37010 -0.42000
O 	O 	0.50000 0.87010 0.18790 -0.42000
O 	O 	0.50000 0.12990 0.81210 -0.42000
O 	O 	0.50000 0.18790 0.12990 -0.42000
O 	O 	0.50000 0.81210 0.87010 -0.42000
O 	O 	0.22030 0.61750 0.88250 -0.40200
O 	O 	0.22030 0.38250 0.11750 -0.40200
O 	O 	0.22030 0.11750 0.61750 -0.40200
O 	O 	0.22030 0.88250 0.38250 -0.40200
O 	O 	0.77970 0.88250 0.38250 -0.40200
O 	O 	0.77970 0.11750 0.61750 -0.40200
O 	O 	0.77970 0.38250 0.11750 -0.40200
O 	O 	0.77970 0.61750 0.88250 -0.40200
O 	O 	0.50000 0.58620 0.08620 -0.95500
O 	O 	0.50000 0.41380 0.91380 -0.95500
O 	O 	0.50000 0.91380 0.58620 -0.95500
O 	O 	0.50000 0.08620 0.41380 -0.95500
