data_crystal

_cell_length_a 13.30880
_cell_length_b 13.30880
_cell_length_c 20.43870
_cell_angle_alpha 90.00000
_cell_angle_beta  90.00000
_cell_angle_gamma 90.00000

_symmetry_space_group_name_	'P 1'
_symmetry_space_group_name_H-M	'P 1'

loop_
_symmetry_equiv_pos_as_xyz
  x,y,z

loop_
_atom_site_label
_atom_site_type_symbol
_atom_site_fract_x
_atom_site_fract_y
_atom_site_fract_z
_atom_site_charge
N 	N 	0.13040 0.17440 0.43510 -0.21000
N 	N 	0.19290 0.09280 0.43360 -0.13100
C 	C 	0.25100 0.21640 0.28100 0.12000
C 	C 	0.23340 0.31620 0.25950 -0.14200
H 	H 	0.21980 0.38320 0.24600 0.07500
C 	C 	0.24650 0.10290 0.37870 -0.19200
H 	H 	0.30000 0.05920 0.36680 0.11500
C 	C 	0.14300 0.22900 0.38010 -0.13500
H 	H 	0.10790 0.28900 0.36970 0.08600
N 	N 	0.21600 0.18320 0.34110 0.00300
C 	C 	0.27270 0.12430 0.30000 0.07400
C 	C 	0.34820 0.19530 0.26190 -0.11600
H 	H 	0.39370 0.16070 0.28970 0.06400
H 	H 	0.28710 0.05760 0.31360 -0.00600
C 	C 	0.20420 0.28150 0.32020 0.06400
H 	H 	0.16930 0.32700 0.34790 -0.00700
C 	C 	0.18450 0.14800 0.40550 0.68900
O 	O 	0.11290 0.19920 0.42740 -0.19500
O 	O 	0.22110 0.07410 0.42680 -0.30400
C 	C 	0.22160 0.18530 0.34430 -0.19800
N 	N 	0.86960 0.82560 0.43510 -0.22000
N 	N 	0.80710 0.90720 0.43360 -0.14700
C 	C 	0.74900 0.78360 0.28100 0.12700
C 	C 	0.76660 0.68380 0.25950 -0.10900
H 	H 	0.78020 0.61680 0.24600 0.06200
C 	C 	0.75350 0.89710 0.37870 -0.20800
H 	H 	0.70000 0.94080 0.36680 0.10900
C 	C 	0.85700 0.77100 0.38010 -0.14700
H 	H 	0.89210 0.71100 0.36970 0.07800
N 	N 	0.78400 0.81680 0.34110 0.00300
C 	C 	0.72730 0.87570 0.30000 0.06600
C 	C 	0.65180 0.80470 0.26190 -0.11600
H 	H 	0.60630 0.83930 0.28970 0.05900
H 	H 	0.71290 0.94240 0.31360 -0.01600
C 	C 	0.79580 0.71850 0.32020 0.04900
H 	H 	0.83070 0.67300 0.34790 -0.00500
C 	C 	0.81550 0.85200 0.40550 0.70800
O 	O 	0.88710 0.80080 0.42740 -0.19900
O 	O 	0.77890 0.92590 0.42680 -0.30900
C 	C 	0.77840 0.81470 0.34430 -0.19800
N 	N 	0.82560 0.13040 0.43510 -0.20600
N 	N 	0.90720 0.19290 0.43360 -0.15200
C 	C 	0.78360 0.25100 0.28100 0.12400
C 	C 	0.68380 0.23340 0.25950 -0.11900
H 	H 	0.61680 0.21980 0.24600 0.06800
C 	C 	0.89710 0.24650 0.37870 -0.20700
H 	H 	0.94080 0.30000 0.36680 0.10800
C 	C 	0.77100 0.14300 0.38010 -0.13800
H 	H 	0.71100 0.10790 0.36970 0.08700
N 	N 	0.81680 0.21600 0.34110 0.00300
C 	C 	0.87570 0.27270 0.30000 0.07100
C 	C 	0.80470 0.34820 0.26190 -0.11600
H 	H 	0.83930 0.39370 0.28970 0.05900
H 	H 	0.94240 0.28710 0.31360 -0.01700
C 	C 	0.71850 0.20420 0.32020 0.05400
H 	H 	0.67300 0.16930 0.34790 -0.00400
C 	C 	0.85200 0.18450 0.40550 0.70400
O 	O 	0.80080 0.11290 0.42740 -0.20600
O 	O 	0.92590 0.22110 0.42680 -0.30100
C 	C 	0.81470 0.22160 0.34430 -0.19800
N 	N 	0.17440 0.86960 0.43510 -0.22400
N 	N 	0.09280 0.80710 0.43360 -0.12700
C 	C 	0.21640 0.74900 0.28100 0.12300
C 	C 	0.31620 0.76660 0.25950 -0.13000
H 	H 	0.38320 0.78020 0.24600 0.06900
C 	C 	0.10290 0.75350 0.37870 -0.19400
H 	H 	0.05920 0.70000 0.36680 0.11500
C 	C 	0.22900 0.85700 0.38010 -0.14400
H 	H 	0.28900 0.89210 0.36970 0.07700
N 	N 	0.18320 0.78400 0.34110 0.00300
C 	C 	0.12430 0.72730 0.30000 0.06800
C 	C 	0.19530 0.65180 0.26190 -0.11700
H 	H 	0.16070 0.60630 0.28970 0.06500
H 	H 	0.05760 0.71290 0.31360 -0.00600
C 	C 	0.28150 0.79580 0.32020 0.05800
H 	H 	0.32700 0.83070 0.34790 -0.00700
C 	C 	0.14800 0.81550 0.40550 0.69400
O 	O 	0.19920 0.88710 0.42740 -0.18800
O 	O 	0.07410 0.77890 0.42680 -0.31200
C 	C 	0.18530 0.77840 0.34430 -0.19800
N 	N 	0.36960 0.67440 0.06490 -0.22400
N 	N 	0.30710 0.59280 0.06640 -0.15200
C 	C 	0.24900 0.71640 0.21900 0.12800
C 	C 	0.26660 0.81620 0.24050 -0.13100
H 	H 	0.28020 0.88320 0.25400 0.06300
C 	C 	0.25350 0.60290 0.12130 -0.21000
H 	H 	0.20000 0.55920 0.13320 0.10900
C 	C 	0.35700 0.72900 0.11990 -0.14700
H 	H 	0.39210 0.78900 0.13030 0.07700
N 	N 	0.28400 0.68320 0.15890 0.00200
C 	C 	0.22730 0.62430 0.20000 0.06200
C 	C 	0.15180 0.69530 0.23810 -0.14500
H 	H 	0.10630 0.66070 0.21030 0.07000
H 	H 	0.21290 0.55760 0.18640 -0.00700
C 	C 	0.29580 0.78150 0.17980 0.05300
H 	H 	0.33070 0.82700 0.15210 -0.01400
C 	C 	0.31550 0.64800 0.09450 0.70800
O 	O 	0.38710 0.69920 0.07260 -0.20400
O 	O 	0.27890 0.57410 0.07320 -0.30800
C 	C 	0.27840 0.68530 0.15570 -0.19600
N 	N 	0.63040 0.32560 0.06490 -0.21900
N 	N 	0.69290 0.40720 0.06640 -0.15600
C 	C 	0.75100 0.28360 0.21900 0.12500
C 	C 	0.73340 0.18380 0.24050 -0.14300
H 	H 	0.71980 0.11680 0.25400 0.07600
C 	C 	0.74650 0.39710 0.12130 -0.21200
H 	H 	0.80000 0.44080 0.13320 0.10600
C 	C 	0.64300 0.27100 0.11990 -0.14800
H 	H 	0.60790 0.21100 0.13030 0.08000
N 	N 	0.71600 0.31680 0.15890 0.00100
C 	C 	0.77270 0.37570 0.20000 0.06200
C 	C 	0.84820 0.30470 0.23810 -0.14700
H 	H 	0.89370 0.33930 0.21030 0.06200
H 	H 	0.78710 0.44240 0.18640 -0.00900
C 	C 	0.70420 0.21850 0.17980 0.05700
H 	H 	0.66930 0.17300 0.15210 -0.01100
C 	C 	0.68450 0.35200 0.09450 0.70900
O 	O 	0.61290 0.30080 0.07260 -0.20800
O 	O 	0.72110 0.42590 0.07320 -0.30500
C 	C 	0.72160 0.31470 0.15570 -0.19600
N 	N 	0.67440 0.63040 0.06490 -0.22200
N 	N 	0.59280 0.69290 0.06640 -0.15500
C 	C 	0.71640 0.75100 0.21900 0.11900
C 	C 	0.81620 0.73340 0.24050 -0.15100
H 	H 	0.88320 0.71980 0.25400 0.06800
C 	C 	0.60290 0.74650 0.12130 -0.21400
H 	H 	0.55920 0.80000 0.13320 0.10600
C 	C 	0.72900 0.64300 0.11990 -0.15000
H 	H 	0.78900 0.60790 0.13030 0.07900
N 	N 	0.68320 0.71600 0.15890 -0.00000
C 	C 	0.62430 0.77270 0.20000 0.06500
C 	C 	0.69530 0.84820 0.23810 -0.14600
H 	H 	0.66070 0.89370 0.21030 0.06000
H 	H 	0.55760 0.78710 0.18640 -0.01000
C 	C 	0.78150 0.70420 0.17980 0.06000
H 	H 	0.82700 0.66930 0.15210 -0.01900
C 	C 	0.64800 0.68450 0.09450 0.71000
O 	O 	0.69920 0.61290 0.07260 -0.20800
O 	O 	0.57410 0.72110 0.07320 -0.30700
C 	C 	0.68530 0.72160 0.15570 -0.19500
N 	N 	0.32560 0.36960 0.06490 -0.22200
N 	N 	0.40720 0.30710 0.06640 -0.15300
C 	C 	0.28360 0.24900 0.21900 0.13500
C 	C 	0.18380 0.26660 0.24050 -0.12100
H 	H 	0.11680 0.28020 0.25400 0.07200
C 	C 	0.39710 0.25350 0.12130 -0.20800
H 	H 	0.44080 0.20000 0.13320 0.10900
C 	C 	0.27100 0.35700 0.11990 -0.14400
H 	H 	0.21100 0.39210 0.13030 0.07900
N 	N 	0.31680 0.28400 0.15890 0.00200
C 	C 	0.37570 0.22730 0.20000 0.05900
C 	C 	0.30470 0.15180 0.23810 -0.14700
H 	H 	0.33930 0.10630 0.21030 0.07300
H 	H 	0.44240 0.21290 0.18640 -0.00600
C 	C 	0.21850 0.29580 0.17980 0.04900
H 	H 	0.17300 0.33070 0.15210 -0.00600
C 	C 	0.35200 0.31550 0.09450 0.70700
O 	O 	0.30080 0.38710 0.07260 -0.20500
O 	O 	0.42590 0.27890 0.07320 -0.30600
C 	C 	0.31470 0.27840 0.15570 -0.19600
N 	N 	0.86960 0.82560 0.56490 -0.22000
N 	N 	0.80710 0.90720 0.56640 -0.14900
C 	C 	0.74900 0.78360 0.71900 0.13300
C 	C 	0.76660 0.68380 0.74050 -0.12000
H 	H 	0.78020 0.61680 0.75400 0.06600
C 	C 	0.75350 0.89710 0.62130 -0.20600
H 	H 	0.70000 0.94080 0.63320 0.10800
C 	C 	0.85700 0.77100 0.61990 -0.14600
H 	H 	0.89210 0.71100 0.63030 0.07800
N 	N 	0.78400 0.81680 0.65890 0.00400
C 	C 	0.72730 0.87570 0.70000 0.06000
C 	C 	0.65180 0.80470 0.73810 -0.14600
H 	H 	0.60630 0.83930 0.71030 0.07000
H 	H 	0.71290 0.94240 0.68640 -0.01200
C 	C 	0.79580 0.71850 0.67980 0.05000
H 	H 	0.83070 0.67300 0.65210 -0.00400
C 	C 	0.81550 0.85200 0.59450 0.70800
O 	O 	0.88710 0.80080 0.57260 -0.19900
O 	O 	0.77890 0.92590 0.57320 -0.30700
C 	C 	0.77840 0.81470 0.65570 -0.19800
N 	N 	0.13040 0.17440 0.56490 -0.20900
N 	N 	0.19290 0.09280 0.56640 -0.13300
C 	C 	0.25100 0.21640 0.71900 0.12600
C 	C 	0.23340 0.31620 0.74050 -0.15200
H 	H 	0.21980 0.38320 0.75400 0.08000
C 	C 	0.24650 0.10290 0.62130 -0.19000
H 	H 	0.30000 0.05920 0.63320 0.11400
C 	C 	0.14300 0.22900 0.61990 -0.13400
H 	H 	0.10790 0.28900 0.63030 0.08600
N 	N 	0.21600 0.18320 0.65890 0.00300
C 	C 	0.27270 0.12430 0.70000 0.06700
C 	C 	0.34820 0.19530 0.73810 -0.14600
H 	H 	0.39370 0.16070 0.71030 0.07500
H 	H 	0.28710 0.05760 0.68640 -0.00200
C 	C 	0.20420 0.28150 0.67980 0.06400
H 	H 	0.16930 0.32700 0.65210 -0.00600
C 	C 	0.18450 0.14800 0.59450 0.68900
O 	O 	0.11290 0.19920 0.57260 -0.19400
O 	O 	0.22110 0.07410 0.57320 -0.30200
C 	C 	0.22160 0.18530 0.65570 -0.19800
N 	N 	0.17440 0.86960 0.56490 -0.22400
N 	N 	0.09280 0.80710 0.56640 -0.12900
C 	C 	0.21640 0.74900 0.71900 0.12900
C 	C 	0.31620 0.76660 0.74050 -0.14100
H 	H 	0.38320 0.78020 0.75400 0.07300
C 	C 	0.10290 0.75350 0.62130 -0.19200
H 	H 	0.05920 0.70000 0.63320 0.11500
C 	C 	0.22900 0.85700 0.61990 -0.14300
H 	H 	0.28900 0.89210 0.63030 0.07700
N 	N 	0.18320 0.78400 0.65890 0.00400
C 	C 	0.12430 0.72730 0.70000 0.06200
C 	C 	0.19530 0.65180 0.73810 -0.14700
H 	H 	0.16070 0.60630 0.71030 0.07500
H 	H 	0.05760 0.71290 0.68640 -0.00200
C 	C 	0.28150 0.79580 0.67980 0.05900
H 	H 	0.32700 0.83070 0.65210 -0.00700
C 	C 	0.14800 0.81550 0.59450 0.69400
O 	O 	0.19920 0.88710 0.57260 -0.18800
O 	O 	0.07410 0.77890 0.57320 -0.31000
C 	C 	0.18530 0.77840 0.65570 -0.19800
N 	N 	0.82560 0.13040 0.56490 -0.20600
N 	N 	0.90720 0.19290 0.56640 -0.15400
C 	C 	0.78360 0.25100 0.71900 0.13100
C 	C 	0.68380 0.23340 0.74050 -0.13000
H 	H 	0.61680 0.21980 0.75400 0.07200
C 	C 	0.89710 0.24650 0.62130 -0.20500
H 	H 	0.94080 0.30000 0.63320 0.10700
C 	C 	0.77100 0.14300 0.61990 -0.13800
H 	H 	0.71100 0.10790 0.63030 0.08700
N 	N 	0.81680 0.21600 0.65890 0.00300
C 	C 	0.87570 0.27270 0.70000 0.06400
C 	C 	0.80470 0.34820 0.73810 -0.14500
H 	H 	0.83930 0.39370 0.71030 0.07000
H 	H 	0.94240 0.28710 0.68640 -0.01300
C 	C 	0.71850 0.20420 0.67980 0.05500
H 	H 	0.67300 0.16930 0.65210 -0.00300
C 	C 	0.85200 0.18450 0.59450 0.70400
O 	O 	0.80080 0.11290 0.57260 -0.20600
O 	O 	0.92590 0.22110 0.57320 -0.29900
C 	C 	0.81470 0.22160 0.65570 -0.19800
N 	N 	0.63040 0.32560 0.93510 -0.18800
N 	N 	0.69290 0.40720 0.93360 -0.12000
C 	C 	0.75100 0.28360 0.78100 0.12400
C 	C 	0.73340 0.18380 0.75950 -0.13100
H 	H 	0.71980 0.11680 0.74600 0.07800
C 	C 	0.74650 0.39710 0.87870 -0.19100
H 	H 	0.80000 0.44080 0.86680 0.11600
C 	C 	0.64300 0.27100 0.88010 -0.13200
H 	H 	0.60790 0.21100 0.86970 0.08900
N 	N 	0.71600 0.31680 0.84110 0.01000
C 	C 	0.77270 0.37570 0.80000 0.07300
C 	C 	0.84820 0.30470 0.76190 -0.11800
H 	H 	0.89370 0.33930 0.78970 0.06400
H 	H 	0.78710 0.44240 0.81360 -0.01100
C 	C 	0.70420 0.21850 0.82020 0.06100
H 	H 	0.66930 0.17300 0.84790 0.00400
C 	C 	0.68450 0.35200 0.90550 0.67600
O 	O 	0.61290 0.30080 0.92740 -0.17400
O 	O 	0.72110 0.42590 0.92680 -0.27700
C 	C 	0.72160 0.31470 0.84430 -0.20100
N 	N 	0.36960 0.67440 0.93510 -0.19300
N 	N 	0.30710 0.59280 0.93360 -0.11500
C 	C 	0.24900 0.71640 0.78100 0.12700
C 	C 	0.26660 0.81620 0.75950 -0.11900
H 	H 	0.28020 0.88320 0.74600 0.06500
C 	C 	0.25350 0.60290 0.87870 -0.18900
H 	H 	0.20000 0.55920 0.86680 0.12000
C 	C 	0.35700 0.72900 0.88010 -0.13200
H 	H 	0.39210 0.78900 0.86970 0.08500
N 	N 	0.28400 0.68320 0.84110 0.01100
C 	C 	0.22730 0.62430 0.80000 0.07200
C 	C 	0.15180 0.69530 0.76190 -0.11600
H 	H 	0.10630 0.66070 0.78970 0.07200
H 	H 	0.21290 0.55760 0.81360 -0.00900
C 	C 	0.29580 0.78150 0.82020 0.05600
H 	H 	0.33070 0.82700 0.84790 0.00100
C 	C 	0.31550 0.64800 0.90550 0.67500
O 	O 	0.38710 0.69920 0.92740 -0.17000
O 	O 	0.27890 0.57410 0.92680 -0.28000
C 	C 	0.27840 0.68530 0.84430 -0.20100
N 	N 	0.32560 0.36960 0.93510 -0.19000
N 	N 	0.40720 0.30710 0.93360 -0.11600
C 	C 	0.28360 0.24900 0.78100 0.13300
C 	C 	0.18380 0.26660 0.75950 -0.10900
H 	H 	0.11680 0.28020 0.74600 0.07300
C 	C 	0.39710 0.25350 0.87870 -0.18700
H 	H 	0.44080 0.20000 0.86680 0.11900
C 	C 	0.27100 0.35700 0.88010 -0.12900
H 	H 	0.21100 0.39210 0.86970 0.08700
N 	N 	0.31680 0.28400 0.84110 0.01200
C 	C 	0.37570 0.22730 0.80000 0.06900
C 	C 	0.30470 0.15180 0.76190 -0.11800
H 	H 	0.33930 0.10630 0.78970 0.07500
H 	H 	0.44240 0.21290 0.81360 -0.00800
C 	C 	0.21850 0.29580 0.82020 0.05300
H 	H 	0.17300 0.33070 0.84790 0.00800
C 	C 	0.35200 0.31550 0.90550 0.67400
O 	O 	0.30080 0.38710 0.92740 -0.17100
O 	O 	0.42590 0.27890 0.92680 -0.27800
C 	C 	0.31470 0.27840 0.84430 -0.20200
N 	N 	0.67440 0.63040 0.93510 -0.19000
N 	N 	0.59280 0.69290 0.93360 -0.11800
C 	C 	0.71640 0.75100 0.78100 0.11800
C 	C 	0.81620 0.73340 0.75950 -0.13900
H 	H 	0.88320 0.71980 0.74600 0.06900
C 	C 	0.60290 0.74650 0.87870 -0.19300
H 	H 	0.55920 0.80000 0.86680 0.11600
C 	C 	0.72900 0.64300 0.88010 -0.13500
H 	H 	0.78900 0.60790 0.86970 0.08700
N 	N 	0.68320 0.71600 0.84110 0.00900
C 	C 	0.62430 0.77270 0.80000 0.07500
C 	C 	0.69530 0.84820 0.76190 -0.11700
H 	H 	0.66070 0.89370 0.78970 0.06200
H 	H 	0.55760 0.78710 0.81360 -0.01200
C 	C 	0.78150 0.70420 0.82020 0.06400
H 	H 	0.82700 0.66930 0.84790 -0.00400
C 	C 	0.64800 0.68450 0.90550 0.67700
O 	O 	0.69920 0.61290 0.92740 -0.17400
O 	O 	0.57410 0.72110 0.92680 -0.27800
C 	C 	0.68530 0.72160 0.84430 -0.20000
Cu	Cu	0.01707 0.19180 0.50000 0.94500
Cu	Cu	0.98293 0.80820 0.50000 0.92100
Cu	Cu	0.80820 0.01707 0.50000 0.94200
Cu	Cu	0.19180 0.98293 0.50000 0.92300
Cu	Cu	0.48293 0.69180 -0.00000 0.89100
Cu	Cu	0.51707 0.30820 -0.00000 0.89300
Cu	Cu	0.69180 0.51707 -0.00000 0.89100
Cu	Cu	0.30820 0.48293 -0.00000 0.89300
Cl	Cl	-0.00000 -0.00000 0.50000 -0.61000
Cl	Cl	0.50000 0.50000 -0.00000 -0.72300
