data_crystal

_cell_length_a 13.95900
_cell_length_b 13.95900
_cell_length_c 20.04750
_cell_angle_alpha 90.00000
_cell_angle_beta  90.00000
_cell_angle_gamma 90.00000

_symmetry_space_group_name_	'P 1'
_symmetry_space_group_name_H-M	'P 1'

loop_
_symmetry_equiv_pos_as_xyz
  x,y,z

loop_
_atom_site_label
_atom_site_type_symbol
_atom_site_fract_x
_atom_site_fract_y
_atom_site_fract_z
_atom_site_charge
N 	N 	0.89450 0.17860 0.06850 -0.15800
O 	O 	0.91120 0.20310 0.07320 -0.27300
C 	C 	0.87870 0.23130 0.12060 -0.16500
H 	H 	0.91470 0.28500 0.13160 0.13900
C 	C 	0.84350 0.27520 0.19180 0.29500
H 	H 	0.86200 0.34300 0.23000 0.15900
H 	H 	0.89740 0.30370 0.17300 -0.13300
N 	N 	0.39450 0.67860 0.56850 -0.16800
O 	O 	0.41120 0.70310 0.57320 -0.26000
C 	C 	0.37870 0.73130 0.62060 -0.16100
H 	H 	0.41470 0.78500 0.63160 0.13600
C 	C 	0.34350 0.77520 0.69180 0.29100
H 	H 	0.36200 0.84300 0.73000 0.15900
H 	H 	0.39740 0.80370 0.67300 -0.13000
N 	N 	0.10550 0.82140 0.06850 -0.19600
O 	O 	0.08880 0.79690 0.07320 -0.24900
C 	C 	0.12130 0.76870 0.12060 -0.17700
H 	H 	0.08530 0.71500 0.13160 0.12400
C 	C 	0.15650 0.72480 0.19180 0.29500
H 	H 	0.13800 0.65700 0.23000 0.15000
H 	H 	0.10260 0.69630 0.17300 -0.14200
N 	N 	0.60550 0.32140 0.56850 -0.17400
O 	O 	0.58880 0.29690 0.57320 -0.25600
C 	C 	0.62130 0.26870 0.62060 -0.16300
H 	H 	0.58530 0.21500 0.63160 0.13100
C 	C 	0.65650 0.22480 0.69180 0.28900
H 	H 	0.63800 0.15700 0.73000 0.15200
H 	H 	0.60260 0.19630 0.67300 -0.13400
N 	N 	0.82140 0.89450 0.06850 -0.16700
O 	O 	0.79690 0.91120 0.07320 -0.25600
C 	C 	0.76870 0.87870 0.12060 -0.15800
H 	H 	0.71500 0.91470 0.13160 0.13400
C 	C 	0.72480 0.84350 0.19180 0.29200
H 	H 	0.65700 0.86200 0.23000 0.16100
H 	H 	0.69630 0.89740 0.17300 -0.13000
N 	N 	0.32140 0.39450 0.56850 -0.17300
O 	O 	0.29690 0.41120 0.57320 -0.25900
C 	C 	0.26870 0.37870 0.62060 -0.16600
H 	H 	0.21500 0.41470 0.63160 0.13200
C 	C 	0.22480 0.34350 0.69180 0.29000
H 	H 	0.15700 0.36200 0.73000 0.15100
H 	H 	0.19630 0.39740 0.67300 -0.13500
N 	N 	0.17860 0.10550 0.06850 -0.18800
O 	O 	0.20310 0.08880 0.07320 -0.26700
C 	C 	0.23130 0.12130 0.12060 -0.18400
H 	H 	0.28500 0.08530 0.13160 0.12800
C 	C 	0.27520 0.15650 0.19180 0.29800
H 	H 	0.34300 0.13800 0.23000 0.14900
H 	H 	0.30370 0.10260 0.17300 -0.14500
N 	N 	0.67860 0.60550 0.56850 -0.16900
O 	O 	0.70310 0.58880 0.57320 -0.25700
C 	C 	0.73130 0.62130 0.62060 -0.15700
H 	H 	0.78500 0.58530 0.63160 0.13500
C 	C 	0.77520 0.65650 0.69180 0.29100
H 	H 	0.84300 0.63800 0.73000 0.16000
H 	H 	0.80370 0.60260 0.67300 -0.12900
N 	N 	0.10550 0.17860 0.93150 -0.15300
O 	O 	0.08880 0.20310 0.92680 -0.23800
C 	C 	0.12130 0.23130 0.87940 -0.16300
H 	H 	0.08530 0.28500 0.86840 0.13500
C 	C 	0.15650 0.27520 0.80820 0.27800
H 	H 	0.13800 0.34300 0.77000 0.15500
H 	H 	0.10260 0.30370 0.82700 -0.13200
N 	N 	0.60550 0.67860 0.43150 -0.17100
O 	O 	0.58880 0.70310 0.42680 -0.25700
C 	C 	0.62130 0.73130 0.37940 -0.15700
H 	H 	0.58530 0.78500 0.36840 0.13400
C 	C 	0.65650 0.77520 0.30820 0.28700
H 	H 	0.63800 0.84300 0.27000 0.16300
H 	H 	0.60260 0.80370 0.32700 -0.13000
N 	N 	0.89450 0.82140 0.93150 -0.13400
O 	O 	0.91120 0.79690 0.92680 -0.22900
C 	C 	0.87870 0.76870 0.87940 -0.13900
H 	H 	0.91470 0.71500 0.86840 0.14100
C 	C 	0.84350 0.72480 0.80820 0.27400
H 	H 	0.86200 0.65700 0.77000 0.16700
H 	H 	0.89740 0.69630 0.82700 -0.11800
N 	N 	0.39450 0.32140 0.43150 -0.17400
O 	O 	0.41120 0.29690 0.42680 -0.25800
C 	C 	0.37870 0.26870 0.37940 -0.16600
H 	H 	0.41470 0.21500 0.36840 0.13100
C 	C 	0.34350 0.22480 0.30820 0.28500
H 	H 	0.36200 0.15700 0.27000 0.15400
H 	H 	0.39740 0.19630 0.32700 -0.13600
N 	N 	0.17860 0.89450 0.93150 -0.12600
O 	O 	0.20310 0.91120 0.92680 -0.24500
C 	C 	0.23130 0.87870 0.87940 -0.14600
H 	H 	0.28500 0.91470 0.86840 0.14500
C 	C 	0.27520 0.84350 0.80820 0.27600
H 	H 	0.34300 0.86200 0.77000 0.16500
H 	H 	0.30370 0.89740 0.82700 -0.12100
N 	N 	0.67860 0.39450 0.43150 -0.17000
O 	O 	0.70310 0.41120 0.42680 -0.26000
C 	C 	0.73130 0.37870 0.37940 -0.16100
H 	H 	0.78500 0.41470 0.36840 0.13500
C 	C 	0.77520 0.34350 0.30820 0.28700
H 	H 	0.84300 0.36200 0.27000 0.16200
H 	H 	0.80370 0.39740 0.32700 -0.13100
N 	N 	0.82140 0.10550 0.93150 -0.16100
O 	O 	0.79690 0.08880 0.92680 -0.22200
C 	C 	0.76870 0.12130 0.87940 -0.15700
H 	H 	0.71500 0.08530 0.86840 0.13100
C 	C 	0.72480 0.15650 0.80820 0.27600
H 	H 	0.65700 0.13800 0.77000 0.15700
H 	H 	0.69630 0.10260 0.82700 -0.12900
N 	N 	0.32140 0.60550 0.43150 -0.17600
O 	O 	0.29690 0.58880 0.42680 -0.25500
C 	C 	0.26870 0.62130 0.37940 -0.16200
H 	H 	0.21500 0.58530 0.36840 0.13000
C 	C 	0.22480 0.65650 0.30820 0.28500
H 	H 	0.15700 0.63800 0.27000 0.15500
H 	H 	0.19630 0.60260 0.32700 -0.13500
N 	N 	0.10550 0.82140 0.93150 -0.16100
O 	O 	0.08880 0.79690 0.92680 -0.22200
C 	C 	0.12130 0.76870 0.87940 -0.15700
H 	H 	0.08530 0.71500 0.86840 0.13100
C 	C 	0.15650 0.72480 0.80820 0.27600
H 	H 	0.13800 0.65700 0.77000 0.15700
H 	H 	0.10260 0.69630 0.82700 -0.12900
N 	N 	0.60550 0.32140 0.43150 -0.17600
O 	O 	0.58880 0.29690 0.42680 -0.25500
C 	C 	0.62130 0.26870 0.37940 -0.16200
H 	H 	0.58530 0.21500 0.36840 0.13000
C 	C 	0.65650 0.22480 0.30820 0.28500
H 	H 	0.63800 0.15700 0.27000 0.15500
H 	H 	0.60260 0.19630 0.32700 -0.13500
N 	N 	0.89450 0.17860 0.93150 -0.12600
O 	O 	0.91120 0.20310 0.92680 -0.24500
C 	C 	0.87870 0.23130 0.87940 -0.14600
H 	H 	0.91470 0.28500 0.86840 0.14500
C 	C 	0.84350 0.27520 0.80820 0.27600
H 	H 	0.86200 0.34300 0.77000 0.16500
H 	H 	0.89740 0.30370 0.82700 -0.12100
N 	N 	0.39450 0.67860 0.43150 -0.17000
O 	O 	0.41120 0.70310 0.42680 -0.26000
C 	C 	0.37870 0.73130 0.37940 -0.16100
H 	H 	0.41470 0.78500 0.36840 0.13500
C 	C 	0.34350 0.77520 0.30820 0.28700
H 	H 	0.36200 0.84300 0.27000 0.16200
H 	H 	0.39740 0.80370 0.32700 -0.13100
N 	N 	0.17860 0.10550 0.93150 -0.15300
O 	O 	0.20310 0.08880 0.92680 -0.23800
C 	C 	0.23130 0.12130 0.87940 -0.16300
H 	H 	0.28500 0.08530 0.86840 0.13500
C 	C 	0.27520 0.15650 0.80820 0.27800
H 	H 	0.34300 0.13800 0.77000 0.15500
H 	H 	0.30370 0.10260 0.82700 -0.13200
N 	N 	0.67860 0.60550 0.43150 -0.17100
O 	O 	0.70310 0.58880 0.42680 -0.25700
C 	C 	0.73130 0.62130 0.37940 -0.15700
H 	H 	0.78500 0.58530 0.36840 0.13400
C 	C 	0.77520 0.65650 0.30820 0.28700
H 	H 	0.84300 0.63800 0.27000 0.16300
H 	H 	0.80370 0.60260 0.32700 -0.13000
N 	N 	0.82140 0.89450 0.93150 -0.13400
O 	O 	0.79690 0.91120 0.92680 -0.22900
C 	C 	0.76870 0.87870 0.87940 -0.13900
H 	H 	0.71500 0.91470 0.86840 0.14100
C 	C 	0.72480 0.84350 0.80820 0.27400
H 	H 	0.65700 0.86200 0.77000 0.16700
H 	H 	0.69630 0.89740 0.82700 -0.11800
N 	N 	0.32140 0.39450 0.43150 -0.17400
O 	O 	0.29690 0.41120 0.42680 -0.25800
C 	C 	0.26870 0.37870 0.37940 -0.16600
H 	H 	0.21500 0.41470 0.36840 0.13100
C 	C 	0.22480 0.34350 0.30820 0.28500
H 	H 	0.15700 0.36200 0.27000 0.15400
H 	H 	0.19630 0.39740 0.32700 -0.13600
N 	N 	0.89450 0.82140 0.06850 -0.16700
O 	O 	0.91120 0.79690 0.07320 -0.25600
C 	C 	0.87870 0.76870 0.12060 -0.15800
H 	H 	0.91470 0.71500 0.13160 0.13400
C 	C 	0.84350 0.72480 0.19180 0.29200
H 	H 	0.86200 0.65700 0.23000 0.16100
H 	H 	0.89740 0.69630 0.17300 -0.13000
N 	N 	0.39450 0.32140 0.56850 -0.17300
O 	O 	0.41120 0.29690 0.57320 -0.25900
C 	C 	0.37870 0.26870 0.62060 -0.16600
H 	H 	0.41470 0.21500 0.63160 0.13200
C 	C 	0.34350 0.22480 0.69180 0.29000
H 	H 	0.36200 0.15700 0.73000 0.15100
H 	H 	0.39740 0.19630 0.67300 -0.13500
N 	N 	0.10550 0.17860 0.06850 -0.18800
O 	O 	0.08880 0.20310 0.07320 -0.26700
C 	C 	0.12130 0.23130 0.12060 -0.18400
H 	H 	0.08530 0.28500 0.13160 0.12800
C 	C 	0.15650 0.27520 0.19180 0.29800
H 	H 	0.13800 0.34300 0.23000 0.14900
H 	H 	0.10260 0.30370 0.17300 -0.14500
N 	N 	0.60550 0.67860 0.56850 -0.16900
O 	O 	0.58880 0.70310 0.57320 -0.25700
C 	C 	0.62130 0.73130 0.62060 -0.15700
H 	H 	0.58530 0.78500 0.63160 0.13500
C 	C 	0.65650 0.77520 0.69180 0.29100
H 	H 	0.63800 0.84300 0.73000 0.16000
H 	H 	0.60260 0.80370 0.67300 -0.12900
N 	N 	0.82140 0.10550 0.06850 -0.19600
O 	O 	0.79690 0.08880 0.07320 -0.24900
C 	C 	0.76870 0.12130 0.12060 -0.17700
H 	H 	0.71500 0.08530 0.13160 0.12400
C 	C 	0.72480 0.15650 0.19180 0.29500
H 	H 	0.65700 0.13800 0.23000 0.15000
H 	H 	0.69630 0.10260 0.17300 -0.14200
N 	N 	0.32140 0.60550 0.56850 -0.17400
O 	O 	0.29690 0.58880 0.57320 -0.25600
C 	C 	0.26870 0.62130 0.62060 -0.16300
H 	H 	0.21500 0.58530 0.63160 0.13100
C 	C 	0.22480 0.65650 0.69180 0.28900
H 	H 	0.15700 0.63800 0.73000 0.15200
H 	H 	0.19630 0.60260 0.67300 -0.13400
N 	N 	0.17860 0.89450 0.06850 -0.15900
O 	O 	0.20310 0.91120 0.07320 -0.27400
C 	C 	0.23130 0.87870 0.12060 -0.16600
H 	H 	0.28500 0.91470 0.13160 0.13800
C 	C 	0.27520 0.84350 0.19180 0.29500
H 	H 	0.34300 0.86200 0.23000 0.15900
H 	H 	0.30370 0.89740 0.17300 -0.13300
N 	N 	0.67860 0.39450 0.56850 -0.16800
O 	O 	0.70310 0.41120 0.57320 -0.26000
C 	C 	0.73130 0.37870 0.62060 -0.16100
H 	H 	0.78500 0.41470 0.63160 0.13600
C 	C 	0.77520 0.34350 0.69180 0.29100
H 	H 	0.84300 0.36200 0.73000 0.15900
H 	H 	0.80370 0.39740 0.67300 -0.13000
Cu	Cu	0.00000 0.18409 -0.00000 0.87900
Cu	Cu	0.50000 0.68409 0.50000 0.93600
Cu	Cu	0.00000 0.81591 -0.00000 0.88300
Cu	Cu	0.50000 0.31591 0.50000 0.93300
Cu	Cu	0.81591 0.00000 -0.00000 0.88300
Cu	Cu	0.31591 0.50000 0.50000 0.93300
Cu	Cu	0.18409 0.00000 -0.00000 0.87900
Cu	Cu	0.68409 0.50000 0.50000 0.93600
Cl	Cl	-0.00000 0.00000 -0.00000 -0.78700
Cl	Cl	0.50000 0.50000 0.50000 -0.66300
C 	C 	0.84020 0.15980 0.09670 0.73200
C 	C 	0.80170 0.19830 0.15810 -0.40900
C 	C 	0.76530 0.23470 0.21690 0.26900
C 	C 	0.34020 0.65980 0.59670 0.72200
C 	C 	0.30170 0.69830 0.65810 -0.40000
C 	C 	0.26530 0.73470 0.71690 0.27000
C 	C 	0.15980 0.84020 0.09670 0.73200
C 	C 	0.19830 0.80170 0.15810 -0.40900
C 	C 	0.23470 0.76530 0.21690 0.26900
C 	C 	0.65980 0.34020 0.59670 0.72200
C 	C 	0.69830 0.30170 0.65810 -0.40000
C 	C 	0.73470 0.26530 0.71690 0.27000
C 	C 	0.84020 0.84020 0.09670 0.71500
C 	C 	0.80170 0.80170 0.15810 -0.40400
C 	C 	0.76530 0.76530 0.21690 0.27600
C 	C 	0.34020 0.34020 0.59670 0.72500
C 	C 	0.30170 0.30170 0.65810 -0.40100
C 	C 	0.26530 0.26530 0.71690 0.26400
C 	C 	0.15980 0.15980 0.09670 0.74700
C 	C 	0.19830 0.19830 0.15810 -0.41300
C 	C 	0.23470 0.23470 0.21690 0.26100
C 	C 	0.65980 0.65980 0.59670 0.71900
C 	C 	0.69830 0.69830 0.65810 -0.39900
C 	C 	0.73470 0.73470 0.71690 0.27600
C 	C 	0.15980 0.15980 0.90330 0.70500
C 	C 	0.19830 0.19830 0.84190 -0.38500
C 	C 	0.23470 0.23470 0.78310 0.27400
C 	C 	0.65980 0.65980 0.40330 0.72000
C 	C 	0.69830 0.69830 0.34190 -0.40400
C 	C 	0.73470 0.73470 0.28310 0.28700
C 	C 	0.84020 0.84020 0.90330 0.67600
C 	C 	0.80170 0.80170 0.84190 -0.37800
C 	C 	0.76530 0.76530 0.78310 0.28800
C 	C 	0.34020 0.34020 0.40330 0.72600
C 	C 	0.30170 0.30170 0.34190 -0.40600
C 	C 	0.26530 0.26530 0.28310 0.27500
C 	C 	0.15980 0.84020 0.90330 0.69100
C 	C 	0.19830 0.80170 0.84190 -0.38200
C 	C 	0.23470 0.76530 0.78310 0.28100
C 	C 	0.65980 0.34020 0.40330 0.72300
C 	C 	0.69830 0.30170 0.34190 -0.40500
C 	C 	0.73470 0.26530 0.28310 0.28100
C 	C 	0.84020 0.15980 0.90330 0.69100
C 	C 	0.80170 0.19830 0.84190 -0.38200
C 	C 	0.76530 0.23470 0.78310 0.28100
C 	C 	0.34020 0.65980 0.40330 0.72300
C 	C 	0.30170 0.69830 0.34190 -0.40500
C 	C 	0.26530 0.73470 0.28310 0.28100
C 	C 	0.81050 0.31050 0.25000 -0.69600
C 	C 	0.18950 0.68950 0.25000 -0.69300
C 	C 	0.68950 0.81050 0.25000 -0.69700
C 	C 	0.31050 0.18950 0.25000 -0.69200
C 	C 	0.18950 0.31050 0.75000 -0.67900
C 	C 	0.81050 0.68950 0.75000 -0.68500
C 	C 	0.31050 0.81050 0.75000 -0.68400
C 	C 	0.68950 0.18950 0.75000 -0.68100
C 	C 	0.18950 0.68950 0.75000 -0.68100
C 	C 	0.81050 0.31050 0.75000 -0.68400
C 	C 	0.31050 0.18950 0.75000 -0.67900
C 	C 	0.68950 0.81050 0.75000 -0.68500
C 	C 	0.18950 0.31050 0.25000 -0.69200
C 	C 	0.81050 0.68950 0.25000 -0.69700
C 	C 	0.68950 0.18950 0.25000 -0.69300
C 	C 	0.31050 0.81050 0.25000 -0.69600
