data_crystal

_cell_length_a 7.03030
_cell_length_b 13.34880
_cell_length_c 8.07700
_cell_angle_alpha 90.00000
_cell_angle_beta  90.00000
_cell_angle_gamma 90.00000

_symmetry_space_group_name_	'P 1'
_symmetry_space_group_name_H-M	'P 1'

loop_
_symmetry_equiv_pos_as_xyz
  x,y,z

loop_
_atom_site_label
_atom_site_type_symbol
_atom_site_fract_x
_atom_site_fract_y
_atom_site_fract_z
_atom_site_charge
Cu	Cu	0.24756 0.16229 0.76296 0.77700
O 	O 	0.13776 0.27852 0.88333 -0.52400
O 	O 	0.96041 0.34688 0.07775 -0.53200
C 	C 	0.02090 0.27251 0.99900 0.47600
H 	H 	0.97530 0.20810 0.02910 -0.19800
Cu	Cu	0.74756 0.33771 0.23704 0.77800
O 	O 	0.63776 0.22148 0.11667 -0.52200
O 	O 	0.46041 0.15312 0.92225 -0.53100
C 	C 	0.52090 0.22749 0.00100 0.47300
H 	H 	0.47530 0.29190 0.97090 -0.19800
Cu	Cu	0.25244 0.83771 0.26296 0.77800
O 	O 	0.36224 0.72148 0.38333 -0.52300
O 	O 	0.53959 0.65312 0.57775 -0.53200
C 	C 	0.47910 0.72749 0.49900 0.47600
H 	H 	0.52470 0.79190 0.52910 -0.19900
Cu	Cu	0.75244 0.66229 0.73704 0.77800
O 	O 	0.86224 0.77852 0.61667 -0.52100
O 	O 	0.03959 0.84688 0.42225 -0.52900
C 	C 	0.97910 0.77251 0.50100 0.46900
H 	H 	0.02470 0.70810 0.47090 -0.19600
