data_crystal

_cell_length_a 7.33380
_cell_length_b 7.33380
_cell_length_c 24.41000
_cell_angle_alpha 90.00000
_cell_angle_beta  90.00000
_cell_angle_gamma 120.00000

_symmetry_space_group_name_	'P 1'
_symmetry_space_group_name_H-M	'P 1'

loop_
_symmetry_equiv_pos_as_xyz
  x,y,z

loop_
_atom_site_label
_atom_site_type_symbol
_atom_site_fract_x
_atom_site_fract_y
_atom_site_fract_z
_atom_site_charge
O 	O 	0.33720 0.45100 0.13230 -0.34900
O 	O 	0.92000 0.29950 0.96460 -0.29800
O 	O 	0.14260 0.42010 0.03390 -0.34500
C 	C 	0.03170 0.43350 0.99930 0.40900
H 	H 	0.02990 0.55930 0.99850 -0.07500
O 	O 	0.54900 0.88620 0.46563 -0.31200
O 	O 	0.70050 0.62050 0.29793 -0.31900
O 	O 	0.57990 0.72250 0.36723 -0.32800
C 	C 	0.56650 0.59820 0.33263 0.43800
H 	H 	0.44070 0.47060 0.33183 -0.08300
O 	O 	0.11380 0.66280 0.79897 -0.33300
O 	O 	0.37950 0.08000 0.63127 -0.34900
O 	O 	0.27750 0.85740 0.70057 -0.34500
C 	C 	0.40180 0.96830 0.66597 0.46800
H 	H 	0.52940 0.97010 0.66517 -0.08400
O 	O 	0.66280 0.54900 0.63230 -0.33600
O 	O 	0.08000 0.70050 0.46460 -0.34200
O 	O 	0.85740 0.57990 0.53390 -0.33800
C 	C 	0.96830 0.56650 0.49930 0.46800
H 	H 	0.97010 0.44070 0.49850 -0.08600
O 	O 	0.45100 0.11380 0.96563 -0.32400
O 	O 	0.29950 0.37950 0.79793 -0.33300
O 	O 	0.42010 0.27750 0.86723 -0.34200
C 	C 	0.43350 0.40180 0.83263 0.43900
H 	H 	0.55930 0.52940 0.83183 -0.07800
O 	O 	0.88620 0.33720 0.29897 -0.32000
O 	O 	0.62050 0.92000 0.13127 -0.29200
O 	O 	0.72250 0.14260 0.20057 -0.32400
C 	C 	0.59820 0.03170 0.16597 0.38900
H 	H 	0.47060 0.02990 0.16517 -0.07400
O 	O 	0.45100 0.33720 0.20103 -0.34800
O 	O 	0.29950 0.92000 0.36873 -0.29700
O 	O 	0.42010 0.14260 0.29943 -0.33200
C 	C 	0.43350 0.03170 0.33403 0.38900
H 	H 	0.55930 0.02990 0.33483 -0.07200
O 	O 	0.88620 0.54900 0.86770 -0.31100
O 	O 	0.62050 0.70050 0.03540 -0.31600
O 	O 	0.72250 0.57990 0.96610 -0.31300
C 	C 	0.59820 0.56650 0.00070 0.41500
H 	H 	0.47060 0.44070 0.00150 -0.07900
O 	O 	0.66280 0.11380 0.53437 -0.33300
O 	O 	0.08000 0.37950 0.70207 -0.35000
O 	O 	0.85740 0.27750 0.63277 -0.34500
C 	C 	0.96830 0.40180 0.66737 0.47000
H 	H 	0.97010 0.52940 0.66817 -0.08400
O 	O 	0.54900 0.66280 0.70103 -0.33600
O 	O 	0.70050 0.08000 0.86873 -0.34000
O 	O 	0.57990 0.85740 0.79943 -0.33700
C 	C 	0.56650 0.96830 0.83403 0.46600
H 	H 	0.44070 0.97010 0.83483 -0.08500
O 	O 	0.11380 0.45100 0.36770 -0.33900
O 	O 	0.37950 0.29950 0.53540 -0.33300
O 	O 	0.27750 0.42010 0.46610 -0.34300
C 	C 	0.40180 0.43350 0.50070 0.43900
H 	H 	0.52940 0.55930 0.50150 -0.07800
O 	O 	0.33720 0.88620 0.03437 -0.31700
O 	O 	0.92000 0.62050 0.20207 -0.29200
O 	O 	0.14260 0.72250 0.13277 -0.32500
C 	C 	0.03170 0.59820 0.16737 0.39000
H 	H 	0.02990 0.47060 0.16817 -0.07500
Cu	Cu	0.36398 0.68199 0.08333 0.95600
Cu	Cu	0.31801 0.68199 0.41667 0.95700
Cu	Cu	0.31801 0.63602 0.75000 0.95700
Cu	Cu	0.63602 0.31801 0.58333 0.95700
Cu	Cu	0.68199 0.31801 0.91667 0.95700
Cu	Cu	0.68199 0.36398 0.25000 0.95600
C 	C 	0.47400 0.47400 0.16667 0.41400
H 	H 	0.60080 0.60080 0.16667 -0.07300
C 	C 	0.52600 0.00000 0.50000 0.37100
H 	H 	0.39920 0.00000 0.50000 -0.07000
C 	C 	-0.00000 0.52600 0.83333 0.37000
H 	H 	-0.00000 0.39920 0.83333 -0.07000
C 	C 	0.52600 0.52600 0.66667 0.41100
H 	H 	0.39920 0.39920 0.66667 -0.07700
C 	C 	0.47400 0.00000 -0.00000 0.35200
H 	H 	0.60080 0.00000 -0.00000 -0.06500
C 	C 	0.00000 0.47400 0.33333 0.37500
H 	H 	0.00000 0.60080 0.33333 -0.06900
