data_crystal

_cell_length_a 7.02010
_cell_length_b 13.36880
_cell_length_c 8.06770
_cell_angle_alpha 90.00000
_cell_angle_beta  90.00000
_cell_angle_gamma 90.00000

_symmetry_space_group_name_	'P 1'
_symmetry_space_group_name_H-M	'P 1'

loop_
_symmetry_equiv_pos_as_xyz
  x,y,z

loop_
_atom_site_label
_atom_site_type_symbol
_atom_site_fract_x
_atom_site_fract_y
_atom_site_fract_z
_atom_site_charge
Cu	Cu	0.24800 0.16205 0.76283 0.77700
O 	O 	0.13784 0.27841 0.88293 -0.52000
O 	O 	0.96058 0.34700 0.07745 -0.53100
C 	C 	0.02110 0.27238 0.99960 0.47100
H 	H 	0.97600 0.20810 0.03070 -0.19700
Cu	Cu	0.74800 0.33795 0.23717 0.77700
O 	O 	0.63784 0.22159 0.11707 -0.51900
O 	O 	0.46058 0.15300 0.92255 -0.53000
C 	C 	0.52110 0.22762 0.00040 0.46800
H 	H 	0.47600 0.29190 0.96930 -0.19600
Cu	Cu	0.25200 0.83795 0.26283 0.77700
O 	O 	0.36216 0.72159 0.38293 -0.52000
O 	O 	0.53942 0.65300 0.57745 -0.53100
C 	C 	0.47890 0.72762 0.49960 0.47200
H 	H 	0.52400 0.79190 0.53070 -0.19800
Cu	Cu	0.75200 0.66205 0.73717 0.77700
O 	O 	0.86216 0.77841 0.61707 -0.51900
O 	O 	0.03942 0.84700 0.42255 -0.52800
C 	C 	0.97890 0.77238 0.50040 0.46400
H 	H 	0.02400 0.70810 0.46930 -0.19400
