data_crystal

_cell_length_a 7.31920
_cell_length_b 7.31920
_cell_length_c 24.38100
_cell_angle_alpha 90.00000
_cell_angle_beta  90.00000
_cell_angle_gamma 120.00000

_symmetry_space_group_name_	'P 1'
_symmetry_space_group_name_H-M	'P 1'

loop_
_symmetry_equiv_pos_as_xyz
  x,y,z

loop_
_atom_site_label
_atom_site_type_symbol
_atom_site_fract_x
_atom_site_fract_y
_atom_site_fract_z
_atom_site_charge
O 	O 	0.33810 0.45140 0.13246 -0.35800
O 	O 	0.92120 0.29790 0.96440 -0.30000
O 	O 	0.14090 0.41950 0.03423 -0.34900
C 	C 	0.03140 0.43110 0.99900 0.42000
H 	H 	0.02960 0.55720 0.99780 -0.07900
O 	O 	0.54860 0.88670 0.46579 -0.32100
O 	O 	0.70210 0.62330 0.29773 -0.32300
O 	O 	0.58050 0.72140 0.36756 -0.33100
C 	C 	0.56890 0.60030 0.33233 0.45100
H 	H 	0.44280 0.47240 0.33113 -0.08700
O 	O 	0.11330 0.66190 0.79913 -0.34200
O 	O 	0.37670 0.07880 0.63107 -0.35500
O 	O 	0.27860 0.85910 0.70090 -0.34900
C 	C 	0.39970 0.96860 0.66567 0.48300
H 	H 	0.52760 0.97040 0.66447 -0.08800
O 	O 	0.66190 0.54860 0.63246 -0.34600
O 	O 	0.07880 0.70210 0.46440 -0.34800
O 	O 	0.85910 0.58050 0.53423 -0.34200
C 	C 	0.96860 0.56890 0.49900 0.48200
H 	H 	0.97040 0.44280 0.49780 -0.09000
O 	O 	0.45140 0.11330 0.96579 -0.33300
O 	O 	0.29790 0.37670 0.79773 -0.33700
O 	O 	0.41950 0.27860 0.86756 -0.34600
C 	C 	0.43110 0.39970 0.83233 0.45100
H 	H 	0.55720 0.52760 0.83113 -0.08200
O 	O 	0.88670 0.33810 0.29913 -0.32900
O 	O 	0.62330 0.92120 0.13107 -0.29400
O 	O 	0.72140 0.14090 0.20090 -0.32700
C 	C 	0.60030 0.03140 0.16567 0.39800
H 	H 	0.47240 0.02960 0.16447 -0.07800
O 	O 	0.45140 0.33810 0.20087 -0.35900
O 	O 	0.29790 0.92120 0.36893 -0.30000
O 	O 	0.41950 0.14090 0.29910 -0.33500
C 	C 	0.43110 0.03140 0.33433 0.39800
H 	H 	0.55720 0.02960 0.33553 -0.07500
O 	O 	0.88670 0.54860 0.86754 -0.32000
O 	O 	0.62330 0.70210 0.03560 -0.31900
O 	O 	0.72140 0.58050 0.96577 -0.31600
C 	C 	0.60030 0.56890 0.00100 0.42600
H 	H 	0.47240 0.44280 0.00220 -0.08300
O 	O 	0.66190 0.11330 0.53421 -0.34300
O 	O 	0.07880 0.37670 0.70227 -0.35600
O 	O 	0.85910 0.27860 0.63244 -0.34900
C 	C 	0.96860 0.39970 0.66767 0.48500
H 	H 	0.97040 0.52760 0.66887 -0.08800
O 	O 	0.54860 0.66190 0.70087 -0.34600
O 	O 	0.70210 0.07880 0.86893 -0.34500
O 	O 	0.58050 0.85910 0.79910 -0.34100
C 	C 	0.56890 0.96860 0.83433 0.48000
H 	H 	0.44280 0.97040 0.83553 -0.08900
O 	O 	0.11330 0.45140 0.36754 -0.34900
O 	O 	0.37670 0.29790 0.53560 -0.33700
O 	O 	0.27860 0.41950 0.46577 -0.34700
C 	C 	0.39970 0.43110 0.50100 0.45100
H 	H 	0.52760 0.55720 0.50220 -0.08200
O 	O 	0.33810 0.88670 0.03421 -0.32500
O 	O 	0.92120 0.62330 0.20227 -0.29300
O 	O 	0.14090 0.72140 0.13244 -0.32800
C 	C 	0.03140 0.60030 0.16767 0.39900
H 	H 	0.02960 0.47240 0.16887 -0.07800
Cu	Cu	0.36459 0.68230 0.08333 0.95700
Cu	Cu	0.31770 0.68229 0.41667 0.95800
Cu	Cu	0.31771 0.63541 0.75000 0.95900
Cu	Cu	0.63541 0.31770 0.58333 0.95900
Cu	Cu	0.68230 0.31770 0.91667 0.95800
Cu	Cu	0.68229 0.36459 0.25000 0.95800
C 	C 	0.47270 0.47270 0.16667 0.44100
H 	H 	0.59970 0.59970 0.16667 -0.08100
C 	C 	0.52730 -0.00000 0.50000 0.39400
H 	H 	0.40030 -0.00000 0.50000 -0.07800
C 	C 	0.00000 0.52730 0.83333 0.39300
H 	H 	0.00000 0.40030 0.83333 -0.07800
C 	C 	0.52730 0.52730 0.66667 0.43700
H 	H 	0.40030 0.40030 0.66667 -0.08600
C 	C 	0.47270 0.00000 -0.00000 0.37400
H 	H 	0.59970 0.00000 -0.00000 -0.07300
C 	C 	0.00000 0.47270 0.33333 0.39800
H 	H 	0.00000 0.59970 0.33333 -0.07700
