data_crystal

_cell_length_a 7.04600
_cell_length_b 13.30110
_cell_length_c 8.08480
_cell_angle_alpha 90.00000
_cell_angle_beta  90.00000
_cell_angle_gamma 90.00000

_symmetry_space_group_name_	'P 1'
_symmetry_space_group_name_H-M	'P 1'

loop_
_symmetry_equiv_pos_as_xyz
  x,y,z

loop_
_atom_site_label
_atom_site_type_symbol
_atom_site_fract_x
_atom_site_fract_y
_atom_site_fract_z
_atom_site_charge
Cu	Cu	0.24677 0.16286 0.76296 0.77700
O 	O 	0.13810 0.27942 0.88374 -0.52400
O 	O 	0.96010 0.34644 0.07859 -0.53500
C 	C 	0.01940 0.27295 0.99790 0.47800
H 	H 	0.97150 0.20820 0.02490 -0.19800
Cu	Cu	0.74677 0.33714 0.23704 0.77800
O 	O 	0.63810 0.22058 0.11626 -0.52200
O 	O 	0.46010 0.15356 0.92141 -0.53300
C 	C 	0.51940 0.22705 0.00210 0.47600
H 	H 	0.47150 0.29180 0.97510 -0.19800
Cu	Cu	0.25323 0.83714 0.26296 0.77800
O 	O 	0.36190 0.72058 0.38374 -0.52300
O 	O 	0.53990 0.65356 0.57859 -0.53500
C 	C 	0.48060 0.72705 0.49790 0.47900
H 	H 	0.52850 0.79180 0.52490 -0.19900
Cu	Cu	0.75323 0.66286 0.73704 0.77800
O 	O 	0.86190 0.77942 0.61626 -0.52200
O 	O 	0.03990 0.84644 0.42141 -0.53100
C 	C 	0.98060 0.77295 0.50210 0.47200
H 	H 	0.02850 0.70820 0.47510 -0.19600
