data_crystal

_cell_length_a 9.57820
_cell_length_b 12.77800
_cell_length_c 18.94500
_cell_angle_alpha 107.49000
_cell_angle_beta  99.21000
_cell_angle_gamma 97.89000

_symmetry_space_group_name_	'P 1'
_symmetry_space_group_name_H-M	'P 1'

loop_
_symmetry_equiv_pos_as_xyz
  x,y,z

loop_
_atom_site_label
_atom_site_type_symbol
_atom_site_fract_x
_atom_site_fract_y
_atom_site_fract_z
_atom_site_charge
C 	C 	0.89490 0.40370 0.07520 -0.22700
C 	C 	0.96920 0.33290 0.10360 0.29400
C 	C 	0.91270 0.21880 0.08000 -0.23500
C 	C 	0.77980 0.17430 0.03050 0.30100
C 	C 	0.70210 0.24560 0.00320 -0.22900
C 	C 	0.76090 0.35940 0.02390 0.28100
C 	C 	0.67740 0.43380 0.99020 -0.74600
H 	H 	0.66620 0.40810 0.93620 0.24600
H 	H 	0.72960 0.50970 0.01070 0.24200
H 	H 	0.58400 0.43000 0.00280 0.23500
C 	C 	0.11330 0.38100 0.16150 -0.77100
H 	H 	0.10190 0.37300 0.20920 0.26200
H 	H 	0.14250 0.45880 0.16790 0.25600
H 	H 	0.18550 0.34110 0.14350 0.24800
C 	C 	0.71960 0.05020 0.00660 -0.78500
H 	H 	0.78630 0.01520 0.03060 0.26000
H 	H 	0.70530 0.01800 0.95260 0.25700
H 	H 	0.62910 0.03860 0.02160 0.24900
C 	C 	0.96380 0.52370 0.09640 0.02600
H 	H 	0.92030 0.55370 0.05880 0.01100
H 	H 	0.06530 0.52870 0.09510 0.01000
C 	C 	0.06920 0.66260 0.22340 -0.00100
H 	H 	0.15900 0.65920 0.21110 0.02000
C 	C 	0.06050 0.73610 0.29180 -0.00400
H 	H 	0.14310 0.78230 0.32550 0.03800
C 	C 	0.92570 0.73960 0.30950 -0.12300
C 	C 	0.80640 0.66760 0.25940 -0.01300
H 	H 	0.71600 0.66890 0.27120 0.04100
C 	C 	0.81920 0.59210 0.19060 0.00300
H 	H 	0.73930 0.54130 0.15770 0.02400
C 	C 	0.91180 0.82360 0.38080 0.46400
C 	C 	0.55560 0.20000 0.95040 0.02900
H 	H 	0.50700 0.13780 0.96230 0.00500
H 	H 	0.49820 0.25780 0.95900 0.00900
C 	C 	0.44010 0.14230 0.81650 -0.01000
H 	H 	0.35490 0.15410 0.83240 0.02800
C 	C 	0.43940 0.10620 0.74120 0.00200
H 	H 	0.35390 0.09430 0.70620 0.03700
C 	C 	0.56480 0.08690 0.71610 -0.13300
C 	C 	0.68780 0.10420 0.77000 -0.00600
H 	H 	0.77300 0.09020 0.75480 0.03900
C 	C 	0.68730 0.14190 0.84570 -0.00900
H 	H 	0.77180 0.15420 0.88150 0.03300
C 	C 	0.56890 0.04770 0.63300 0.49900
C 	C 	0.00120 0.14470 0.10530 0.02400
H 	H 	0.10070 0.16950 0.10390 0.00800
H 	H 	0.96890 0.06930 0.06960 0.00900
C 	C 	0.86980 0.13850 0.20710 0.00900
H 	H 	0.78880 0.14670 0.17640 0.02700
C 	C 	0.85890 0.12420 0.27460 -0.02200
H 	H 	0.77100 0.12160 0.28960 0.04400
C 	C 	0.98010 0.11350 0.32070 -0.10200
C 	C 	0.10870 0.11960 0.29650 -0.02800
H 	H 	0.19260 0.11650 0.32750 0.04900
C 	C 	0.11310 0.13010 0.22680 0.00400
H 	H 	0.19870 0.12960 0.20960 0.01900
C 	C 	0.97750 0.09570 0.39590 0.48100
Eu	Eu	0.23569 0.01276 0.50249 2.24500
N 	N 	0.95060 0.59560 0.17390 -0.11700
N 	N 	0.56310 0.16110 0.86810 -0.11400
N 	N 	0.99560 0.14110 0.18400 -0.11600
O 	O 	0.78900 0.82990 0.39240 -0.48400
O 	O 	0.02640 0.88530 0.42380 -0.54000
O 	O 	0.45320 0.03450 0.58700 -0.53100
O 	O 	0.68560 0.03070 0.61570 -0.50400
O 	O 	0.85580 0.06460 0.40690 -0.49300
O 	O 	0.09640 0.10970 0.43800 -0.52300
O 	O 	0.40020 0.18390 0.50670 -0.44600
H 	H 	0.46200 0.24780 0.50840 0.20300
O 	O 	0.29460 0.82680 0.47990 -0.46800
H 	H 	0.31700 0.75610 0.47130 0.20800
C 	C 	0.10510 0.59630 0.92480 -0.22600
C 	C 	0.03080 0.66710 0.89640 0.29500
C 	C 	0.08730 0.78120 0.92000 -0.23500
C 	C 	0.22020 0.82570 0.96950 0.30100
C 	C 	0.29790 0.75440 0.99680 -0.22900
C 	C 	0.23910 0.64060 0.97610 0.28100
C 	C 	0.32260 0.56620 0.00980 -0.74600
H 	H 	0.33380 0.59190 0.06380 0.24600
H 	H 	0.27040 0.49030 0.98930 0.24200
H 	H 	0.41600 0.57000 0.99720 0.23500
C 	C 	0.88670 0.61900 0.83850 -0.77100
H 	H 	0.89810 0.62700 0.79080 0.26200
H 	H 	0.85750 0.54120 0.83210 0.25600
H 	H 	0.81450 0.65890 0.85650 0.24800
C 	C 	0.28040 0.94980 0.99340 -0.78500
H 	H 	0.21370 0.98480 0.96940 0.26000
H 	H 	0.29470 0.98200 0.04740 0.25700
H 	H 	0.37090 0.96140 0.97840 0.24900
C 	C 	0.03620 0.47630 0.90360 0.02600
H 	H 	0.07970 0.44630 0.94120 0.01100
H 	H 	0.93470 0.47130 0.90490 0.01000
C 	C 	0.93080 0.33740 0.77660 -0.00100
H 	H 	0.84100 0.34080 0.78890 0.02000
C 	C 	0.93950 0.26390 0.70820 -0.00400
H 	H 	0.85690 0.21770 0.67450 0.03800
C 	C 	0.07430 0.26040 0.69050 -0.12300
C 	C 	0.19360 0.33240 0.74060 -0.01300
H 	H 	0.28400 0.33110 0.72880 0.04100
C 	C 	0.18080 0.40790 0.80940 0.00300
H 	H 	0.26070 0.45870 0.84230 0.02400
C 	C 	0.08820 0.17640 0.61920 0.46400
C 	C 	0.44440 0.80000 0.04960 0.02900
H 	H 	0.49300 0.86220 0.03770 0.00500
H 	H 	0.50180 0.74220 0.04100 0.00900
C 	C 	0.55990 0.85770 0.18350 -0.01000
H 	H 	0.64510 0.84590 0.16760 0.02800
C 	C 	0.56060 0.89380 0.25880 0.00200
H 	H 	0.64610 0.90570 0.29380 0.03700
C 	C 	0.43520 0.91310 0.28390 -0.13300
C 	C 	0.31220 0.89580 0.23000 -0.00600
H 	H 	0.22700 0.90980 0.24520 0.03900
C 	C 	0.31270 0.85810 0.15430 -0.00900
H 	H 	0.22820 0.84580 0.11850 0.03300
C 	C 	0.43110 0.95230 0.36700 0.49900
C 	C 	0.99880 0.85530 0.89470 0.02400
H 	H 	0.89930 0.83050 0.89610 0.00800
H 	H 	0.03110 0.93070 0.93040 0.00900
C 	C 	0.13020 0.86150 0.79290 0.00900
H 	H 	0.21120 0.85330 0.82360 0.02700
C 	C 	0.14110 0.87580 0.72540 -0.02200
H 	H 	0.22900 0.87840 0.71040 0.04400
C 	C 	0.01990 0.88650 0.67930 -0.10200
C 	C 	0.89130 0.88040 0.70350 -0.02800
H 	H 	0.80740 0.88350 0.67250 0.04900
C 	C 	0.88690 0.86990 0.77320 0.00400
H 	H 	0.80130 0.87040 0.79040 0.01900
C 	C 	0.02250 0.90430 0.60410 0.48100
Eu	Eu	0.76431 0.98724 0.49751 2.24500
N 	N 	0.04940 0.40440 0.82610 -0.11700
N 	N 	0.43690 0.83890 0.13190 -0.11400
N 	N 	0.00440 0.85890 0.81600 -0.11600
O 	O 	0.21100 0.17010 0.60760 -0.48400
O 	O 	0.97360 0.11470 0.57620 -0.54000
O 	O 	0.54680 0.96550 0.41300 -0.53100
O 	O 	0.31440 0.96930 0.38430 -0.50400
O 	O 	0.14420 0.93540 0.59310 -0.49300
O 	O 	0.90360 0.89030 0.56200 -0.52300
O 	O 	0.59980 0.81610 0.49330 -0.44600
H 	H 	0.53800 0.75220 0.49160 0.20300
O 	O 	0.70540 0.17320 0.52010 -0.46800
H 	H 	0.68300 0.24390 0.52870 0.20800
