data_crystal

_cell_length_a 18.69350
_cell_length_b 18.69350
_cell_length_c 38.39010
_cell_angle_alpha 90.00000
_cell_angle_beta  90.00000
_cell_angle_gamma 120.00000

_symmetry_space_group_name_	'P 1'
_symmetry_space_group_name_H-M	'P 1'

loop_
_symmetry_equiv_pos_as_xyz
  x,y,z

loop_
_atom_site_label
_atom_site_type_symbol
_atom_site_fract_x
_atom_site_fract_y
_atom_site_fract_z
_atom_site_charge
O 	O 	0.77530 0.07698 0.21054 -0.39900
O 	O 	0.81534 0.03842 0.16301 -0.39700
O 	O 	0.53660 0.69560 0.26270 -0.21300
O 	O 	0.55120 0.62790 0.29520 -0.24500
C 	C 	0.78600 0.02710 0.19320 0.37000
C 	C 	0.76390 0.94650 0.21011 -0.07200
C 	C 	0.73270 0.93110 0.24414 -0.00600
H 	H 	0.72310 0.96950 0.25540 0.06100
C 	C 	0.62390 0.76820 0.30910 -0.06900
C 	C 	0.72420 0.90830 0.32160 -0.02700
H 	H 	0.76120 0.96070 0.31320 0.06500
C 	C 	0.57360 0.69190 0.28580 0.39100
O 	O 	0.44197 0.41031 0.54387 -0.39900
O 	O 	0.48201 0.37175 0.49634 -0.39700
O 	O 	0.20327 0.02893 0.59603 -0.21300
O 	O 	0.21787 0.96123 0.62853 -0.24500
C 	C 	0.45267 0.36043 0.52653 0.37000
C 	C 	0.43057 0.27983 0.54344 -0.07200
C 	C 	0.39937 0.26443 0.57747 -0.00600
H 	H 	0.38977 0.30283 0.58873 0.06100
C 	C 	0.29057 0.10153 0.64243 -0.06900
C 	C 	0.39087 0.24163 0.65493 -0.02700
H 	H 	0.42787 0.29403 0.64653 0.06500
C 	C 	0.24027 0.02523 0.61913 0.39100
O 	O 	0.10863 0.74365 0.87721 -0.39900
O 	O 	0.14867 0.70509 0.82968 -0.39700
O 	O 	0.86993 0.36227 0.92937 -0.21300
O 	O 	0.88453 0.29457 0.96187 -0.24500
C 	C 	0.11933 0.69377 0.85987 0.37000
C 	C 	0.09723 0.61317 0.87678 -0.07200
C 	C 	0.06603 0.59777 0.91081 -0.00600
H 	H 	0.05643 0.63617 0.92207 0.06100
C 	C 	0.95723 0.43487 0.97577 -0.06900
C 	C 	0.05753 0.57497 0.98827 -0.02700
H 	H 	0.09453 0.62737 0.97987 0.06500
C 	C 	0.90693 0.35857 0.95247 0.39100
O 	O 	0.92302 0.69832 0.21054 -0.39900
O 	O 	0.96158 0.77692 0.16301 -0.39700
O 	O 	0.30440 0.84100 0.26270 -0.21300
O 	O 	0.37210 0.92330 0.29520 -0.24500
C 	C 	0.97290 0.75890 0.19320 0.37000
C 	C 	0.05350 0.81740 0.21011 -0.07200
C 	C 	0.06890 0.80160 0.24414 -0.00600
H 	H 	0.03050 0.75360 0.25540 0.06100
C 	C 	0.23180 0.85570 0.30910 -0.06900
C 	C 	0.09170 0.81590 0.32160 -0.02700
H 	H 	0.03930 0.80050 0.31320 0.06500
C 	C 	0.30810 0.88170 0.28580 0.39100
O 	O 	0.58969 0.03165 0.54387 -0.39900
O 	O 	0.62825 0.11025 0.49634 -0.39700
O 	O 	0.97107 0.17433 0.59603 -0.21300
O 	O 	0.03877 0.25663 0.62853 -0.24500
C 	C 	0.63957 0.09223 0.52653 0.37000
C 	C 	0.72017 0.15073 0.54344 -0.07200
C 	C 	0.73557 0.13493 0.57747 -0.00500
H 	H 	0.69717 0.08693 0.58873 0.06200
C 	C 	0.89847 0.18903 0.64243 -0.06800
C 	C 	0.75837 0.14923 0.65493 -0.02600
H 	H 	0.70597 0.13383 0.64653 0.06600
C 	C 	0.97477 0.21503 0.61913 0.39200
O 	O 	0.25635 0.36499 0.87721 -0.39800
O 	O 	0.29491 0.44359 0.82968 -0.39600
O 	O 	0.63773 0.50767 0.92937 -0.21200
O 	O 	0.70543 0.58997 0.96187 -0.24400
C 	C 	0.30623 0.42557 0.85987 0.37100
C 	C 	0.38683 0.48407 0.87678 -0.07100
C 	C 	0.40223 0.46827 0.91081 -0.00500
H 	H 	0.36383 0.42027 0.92207 0.06200
C 	C 	0.56513 0.52237 0.97577 -0.06800
C 	C 	0.42503 0.48257 0.98827 -0.02600
H 	H 	0.37263 0.46717 0.97987 0.06600
C 	C 	0.64143 0.54837 0.95247 0.39200
O 	O 	0.30168 0.22470 0.21054 -0.39800
O 	O 	0.22308 0.18466 0.16301 -0.39600
O 	O 	0.15900 0.46340 0.26270 -0.21200
O 	O 	0.07670 0.44880 0.29520 -0.24400
C 	C 	0.24110 0.21400 0.19320 0.37100
C 	C 	0.18260 0.23610 0.21011 -0.07100
C 	C 	0.19840 0.26730 0.24414 -0.00500
H 	H 	0.24640 0.27690 0.25540 0.06200
C 	C 	0.14430 0.37610 0.30910 -0.06800
C 	C 	0.18410 0.27580 0.32160 -0.02600
H 	H 	0.19950 0.23880 0.31320 0.06600
C 	C 	0.11830 0.42640 0.28580 0.39200
O 	O 	0.96835 0.55803 0.54387 -0.39800
O 	O 	0.88975 0.51799 0.49634 -0.39600
O 	O 	0.82567 0.79673 0.59603 -0.21200
O 	O 	0.74337 0.78213 0.62853 -0.24400
C 	C 	0.90777 0.54733 0.52653 0.37100
C 	C 	0.84927 0.56943 0.54344 -0.07100
C 	C 	0.86507 0.60063 0.57747 -0.00500
H 	H 	0.91307 0.61023 0.58873 0.06200
C 	C 	0.81097 0.70943 0.64243 -0.06800
C 	C 	0.85077 0.60913 0.65493 -0.02600
H 	H 	0.86617 0.57213 0.64653 0.06600
C 	C 	0.78497 0.75973 0.61913 0.39200
O 	O 	0.63501 0.89137 0.87721 -0.39800
O 	O 	0.55641 0.85133 0.82968 -0.39600
O 	O 	0.49233 0.13007 0.92937 -0.21200
O 	O 	0.41003 0.11547 0.96187 -0.24400
C 	C 	0.57443 0.88067 0.85987 0.37100
C 	C 	0.51593 0.90277 0.87678 -0.07100
C 	C 	0.53173 0.93397 0.91081 -0.00500
H 	H 	0.57973 0.94357 0.92207 0.06200
C 	C 	0.47763 0.04277 0.97577 -0.06800
C 	C 	0.51743 0.94247 0.98827 -0.02600
H 	H 	0.53283 0.90547 0.97987 0.06600
C 	C 	0.45163 0.09307 0.95247 0.39200
O 	O 	0.07698 0.77530 0.78946 -0.39800
O 	O 	0.03842 0.81534 0.83699 -0.39600
O 	O 	0.69560 0.53660 0.73730 -0.21200
O 	O 	0.62790 0.55120 0.70480 -0.24400
C 	C 	0.02710 0.78600 0.80680 0.37100
C 	C 	0.94650 0.76390 0.78989 -0.07100
C 	C 	0.93110 0.73270 0.75586 -0.00500
H 	H 	0.96950 0.72310 0.74460 0.06200
C 	C 	0.76820 0.62390 0.69090 -0.06800
C 	C 	0.90830 0.72420 0.67840 -0.02600
H 	H 	0.96070 0.76120 0.68680 0.06600
C 	C 	0.69190 0.57360 0.71420 0.39200
O 	O 	0.74365 0.10863 0.12279 -0.39800
O 	O 	0.70509 0.14867 0.17032 -0.39600
O 	O 	0.36227 0.86993 0.07063 -0.21200
O 	O 	0.29457 0.88453 0.03813 -0.24400
C 	C 	0.69377 0.11933 0.14013 0.37100
C 	C 	0.61317 0.09723 0.12322 -0.07100
C 	C 	0.59777 0.06603 0.08919 -0.00500
H 	H 	0.63617 0.05643 0.07793 0.06200
C 	C 	0.43487 0.95723 0.02423 -0.06800
C 	C 	0.57497 0.05753 0.01173 -0.02600
H 	H 	0.62737 0.09453 0.02013 0.06600
C 	C 	0.35857 0.90693 0.04753 0.39200
O 	O 	0.41031 0.44197 0.45613 -0.39800
O 	O 	0.37175 0.48201 0.50366 -0.39600
O 	O 	0.02893 0.20327 0.40397 -0.21200
O 	O 	0.96123 0.21787 0.37147 -0.24400
C 	C 	0.36043 0.45267 0.47347 0.37100
C 	C 	0.27983 0.43057 0.45656 -0.07100
C 	C 	0.26443 0.39937 0.42253 -0.00500
H 	H 	0.30283 0.38977 0.41127 0.06200
C 	C 	0.10153 0.29057 0.35757 -0.06800
C 	C 	0.24163 0.39087 0.34507 -0.02600
H 	H 	0.29403 0.42787 0.35347 0.06600
C 	C 	0.02523 0.24027 0.38087 0.39200
O 	O 	0.69832 0.92302 0.78946 -0.39800
O 	O 	0.77692 0.96158 0.83699 -0.39600
O 	O 	0.84100 0.30440 0.73730 -0.21200
O 	O 	0.92330 0.37210 0.70480 -0.24400
C 	C 	0.75890 0.97290 0.80680 0.37100
C 	C 	0.81740 0.05350 0.78989 -0.07100
C 	C 	0.80160 0.06890 0.75586 -0.00500
H 	H 	0.75360 0.03050 0.74460 0.06200
C 	C 	0.85570 0.23180 0.69090 -0.06800
C 	C 	0.81590 0.09170 0.67840 -0.02600
H 	H 	0.80050 0.03930 0.68680 0.06600
C 	C 	0.88170 0.30810 0.71420 0.39200
O 	O 	0.36499 0.25635 0.12279 -0.39800
O 	O 	0.44359 0.29491 0.17032 -0.39600
O 	O 	0.50767 0.63773 0.07063 -0.21200
O 	O 	0.58997 0.70543 0.03813 -0.24400
C 	C 	0.42557 0.30623 0.14013 0.37100
C 	C 	0.48407 0.38683 0.12322 -0.07100
C 	C 	0.46827 0.40223 0.08919 -0.00500
H 	H 	0.42027 0.36383 0.07793 0.06200
C 	C 	0.52237 0.56513 0.02423 -0.06800
C 	C 	0.48257 0.42503 0.01173 -0.02600
H 	H 	0.46717 0.37263 0.02013 0.06600
C 	C 	0.54837 0.64143 0.04753 0.39200
O 	O 	0.03165 0.58969 0.45613 -0.39800
O 	O 	0.11025 0.62825 0.50366 -0.39600
O 	O 	0.17433 0.97107 0.40397 -0.21200
O 	O 	0.25663 0.03877 0.37147 -0.24400
C 	C 	0.09223 0.63957 0.47347 0.37100
C 	C 	0.15073 0.72017 0.45656 -0.07100
C 	C 	0.13493 0.73557 0.42253 -0.00500
H 	H 	0.08693 0.69717 0.41127 0.06200
C 	C 	0.18903 0.89847 0.35757 -0.06800
C 	C 	0.14923 0.75837 0.34507 -0.02600
H 	H 	0.13383 0.70597 0.35347 0.06600
C 	C 	0.21503 0.97477 0.38087 0.39200
O 	O 	0.22470 0.30168 0.78946 -0.39800
O 	O 	0.18466 0.22308 0.83699 -0.39600
O 	O 	0.46340 0.15900 0.73730 -0.21200
O 	O 	0.44880 0.07670 0.70480 -0.24400
C 	C 	0.21400 0.24110 0.80680 0.37100
C 	C 	0.23610 0.18260 0.78989 -0.07100
C 	C 	0.26730 0.19840 0.75586 -0.00500
H 	H 	0.27690 0.24640 0.74460 0.06200
C 	C 	0.37610 0.14430 0.69090 -0.06800
C 	C 	0.27580 0.18410 0.67840 -0.02600
H 	H 	0.23880 0.19950 0.68680 0.06600
C 	C 	0.42640 0.11830 0.71420 0.39200
O 	O 	0.89137 0.63501 0.12279 -0.39800
O 	O 	0.85133 0.55641 0.17032 -0.39600
O 	O 	0.13007 0.49233 0.07063 -0.21200
O 	O 	0.11547 0.41003 0.03813 -0.24400
C 	C 	0.88067 0.57443 0.14013 0.37100
C 	C 	0.90277 0.51593 0.12322 -0.07100
C 	C 	0.93397 0.53173 0.08919 -0.00500
H 	H 	0.94357 0.57973 0.07793 0.06200
C 	C 	0.04277 0.47763 0.02423 -0.06800
C 	C 	0.94247 0.51743 0.01173 -0.02600
H 	H 	0.90547 0.53283 0.02013 0.06600
C 	C 	0.09307 0.45163 0.04753 0.39200
O 	O 	0.55803 0.96835 0.45613 -0.39800
O 	O 	0.51799 0.88975 0.50366 -0.39600
O 	O 	0.79673 0.82567 0.40397 -0.21200
O 	O 	0.78213 0.74337 0.37147 -0.24400
C 	C 	0.54733 0.90777 0.47347 0.37100
C 	C 	0.56943 0.84927 0.45656 -0.07100
C 	C 	0.60063 0.86507 0.42253 -0.00500
H 	H 	0.61023 0.91307 0.41127 0.06200
C 	C 	0.70943 0.81097 0.35757 -0.06800
C 	C 	0.60913 0.85077 0.34507 -0.02600
H 	H 	0.57213 0.86617 0.35347 0.06600
C 	C 	0.75973 0.78497 0.38087 0.39200
O 	O 	0.22470 0.92302 0.78946 -0.39800
O 	O 	0.18466 0.96158 0.83699 -0.39600
O 	O 	0.46340 0.30440 0.73730 -0.21200
O 	O 	0.44880 0.37210 0.70480 -0.24400
C 	C 	0.21400 0.97290 0.80680 0.37100
C 	C 	0.23610 0.05350 0.78989 -0.07100
C 	C 	0.26730 0.06890 0.75586 -0.00500
H 	H 	0.27690 0.03050 0.74460 0.06200
C 	C 	0.37610 0.23180 0.69090 -0.06800
C 	C 	0.27580 0.09170 0.67840 -0.02600
H 	H 	0.23880 0.03930 0.68680 0.06600
C 	C 	0.42640 0.30810 0.71420 0.39200
O 	O 	0.89137 0.25635 0.12279 -0.39800
O 	O 	0.85133 0.29491 0.17032 -0.39600
O 	O 	0.13007 0.63773 0.07063 -0.21200
O 	O 	0.11547 0.70543 0.03813 -0.24400
C 	C 	0.88067 0.30623 0.14013 0.37100
C 	C 	0.90277 0.38683 0.12322 -0.07100
C 	C 	0.93397 0.40223 0.08919 -0.00500
H 	H 	0.94357 0.36383 0.07793 0.06200
C 	C 	0.04277 0.56513 0.02423 -0.06800
C 	C 	0.94247 0.42503 0.01173 -0.02600
H 	H 	0.90547 0.37263 0.02013 0.06600
C 	C 	0.09307 0.64143 0.04753 0.39200
O 	O 	0.55803 0.58969 0.45613 -0.39800
O 	O 	0.51799 0.62825 0.50366 -0.39600
O 	O 	0.79673 0.97107 0.40397 -0.21200
O 	O 	0.78213 0.03877 0.37147 -0.24400
C 	C 	0.54733 0.63957 0.47347 0.37100
C 	C 	0.56943 0.72017 0.45656 -0.07100
C 	C 	0.60063 0.73557 0.42253 -0.00500
H 	H 	0.61023 0.69717 0.41127 0.06200
C 	C 	0.70943 0.89847 0.35757 -0.06800
C 	C 	0.60913 0.75837 0.34507 -0.02600
H 	H 	0.57213 0.70597 0.35347 0.06600
C 	C 	0.75973 0.97477 0.38087 0.39200
O 	O 	0.07698 0.30168 0.78946 -0.39800
O 	O 	0.03842 0.22308 0.83699 -0.39600
O 	O 	0.69560 0.15900 0.73730 -0.21200
O 	O 	0.62790 0.07670 0.70480 -0.24400
C 	C 	0.02710 0.24110 0.80680 0.37100
C 	C 	0.94650 0.18260 0.78989 -0.07100
C 	C 	0.93110 0.19840 0.75586 -0.00500
H 	H 	0.96950 0.24640 0.74460 0.06200
C 	C 	0.76820 0.14430 0.69090 -0.06800
C 	C 	0.90830 0.18410 0.67840 -0.02600
H 	H 	0.96070 0.19950 0.68680 0.06600
C 	C 	0.69190 0.11830 0.71420 0.39200
O 	O 	0.74365 0.63501 0.12279 -0.39800
O 	O 	0.70509 0.55641 0.17032 -0.39600
O 	O 	0.36227 0.49233 0.07063 -0.21200
O 	O 	0.29457 0.41003 0.03813 -0.24400
C 	C 	0.69377 0.57443 0.14013 0.37100
C 	C 	0.61317 0.51593 0.12322 -0.07100
C 	C 	0.59777 0.53173 0.08919 -0.00500
H 	H 	0.63617 0.57973 0.07793 0.06200
C 	C 	0.43487 0.47763 0.02423 -0.06800
C 	C 	0.57497 0.51743 0.01173 -0.02600
H 	H 	0.62737 0.53283 0.02013 0.06600
C 	C 	0.35857 0.45163 0.04753 0.39200
O 	O 	0.41031 0.96835 0.45613 -0.39800
O 	O 	0.37175 0.88975 0.50366 -0.39600
O 	O 	0.02893 0.82567 0.40397 -0.21200
O 	O 	0.96123 0.74337 0.37147 -0.24400
C 	C 	0.36043 0.90777 0.47347 0.37100
C 	C 	0.27983 0.84927 0.45656 -0.07100
C 	C 	0.26443 0.86507 0.42253 -0.00500
H 	H 	0.30283 0.91307 0.41127 0.06200
C 	C 	0.10153 0.81097 0.35757 -0.06800
C 	C 	0.24163 0.85077 0.34507 -0.02600
H 	H 	0.29403 0.86617 0.35347 0.06600
C 	C 	0.02523 0.78497 0.38087 0.39200
O 	O 	0.69832 0.77530 0.78946 -0.39800
O 	O 	0.77692 0.81534 0.83699 -0.39600
O 	O 	0.84100 0.53660 0.73730 -0.21200
O 	O 	0.92330 0.55120 0.70480 -0.24400
C 	C 	0.75890 0.78600 0.80680 0.37100
C 	C 	0.81740 0.76390 0.78989 -0.07100
C 	C 	0.80160 0.73270 0.75586 -0.00500
H 	H 	0.75360 0.72310 0.74460 0.06200
C 	C 	0.85570 0.62390 0.69090 -0.06800
C 	C 	0.81590 0.72420 0.67840 -0.02600
H 	H 	0.80050 0.76120 0.68680 0.06600
C 	C 	0.88170 0.57360 0.71420 0.39200
O 	O 	0.36499 0.10863 0.12279 -0.39800
O 	O 	0.44359 0.14867 0.17032 -0.39600
O 	O 	0.50767 0.86993 0.07063 -0.21200
O 	O 	0.58997 0.88453 0.03813 -0.24400
C 	C 	0.42557 0.11933 0.14013 0.37100
C 	C 	0.48407 0.09723 0.12322 -0.07100
C 	C 	0.46827 0.06603 0.08919 -0.00500
H 	H 	0.42027 0.05643 0.07793 0.06200
C 	C 	0.52237 0.95723 0.02423 -0.06800
C 	C 	0.48257 0.05753 0.01173 -0.02600
H 	H 	0.46717 0.09453 0.02013 0.06600
C 	C 	0.54837 0.90693 0.04753 0.39200
O 	O 	0.03165 0.44197 0.45613 -0.39800
O 	O 	0.11025 0.48201 0.50366 -0.39600
O 	O 	0.17433 0.20327 0.40397 -0.21200
O 	O 	0.25663 0.21787 0.37147 -0.24400
C 	C 	0.09223 0.45267 0.47347 0.37100
C 	C 	0.15073 0.43057 0.45656 -0.07100
C 	C 	0.13493 0.39937 0.42253 -0.00500
H 	H 	0.08693 0.38977 0.41127 0.06200
C 	C 	0.18903 0.29057 0.35757 -0.06800
C 	C 	0.14923 0.39087 0.34507 -0.02600
H 	H 	0.13383 0.42787 0.35347 0.06600
C 	C 	0.21503 0.24027 0.38087 0.39200
O 	O 	0.92302 0.22470 0.21054 -0.39800
O 	O 	0.96158 0.18466 0.16301 -0.39600
O 	O 	0.30440 0.46340 0.26270 -0.21200
O 	O 	0.37210 0.44880 0.29520 -0.24400
C 	C 	0.97290 0.21400 0.19320 0.37100
C 	C 	0.05350 0.23610 0.21011 -0.07100
C 	C 	0.06890 0.26730 0.24414 -0.00500
H 	H 	0.03050 0.27690 0.25540 0.06200
C 	C 	0.23180 0.37610 0.30910 -0.06800
C 	C 	0.09170 0.27580 0.32160 -0.02600
H 	H 	0.03930 0.23880 0.31320 0.06600
C 	C 	0.30810 0.42640 0.28580 0.39200
O 	O 	0.58969 0.55803 0.54387 -0.39800
O 	O 	0.62825 0.51799 0.49634 -0.39600
O 	O 	0.97107 0.79673 0.59603 -0.21200
O 	O 	0.03877 0.78213 0.62853 -0.24400
C 	C 	0.63957 0.54733 0.52653 0.37100
C 	C 	0.72017 0.56943 0.54344 -0.07100
C 	C 	0.73557 0.60063 0.57747 -0.00500
H 	H 	0.69717 0.61023 0.58873 0.06200
C 	C 	0.89847 0.70943 0.64243 -0.06800
C 	C 	0.75837 0.60913 0.65493 -0.02600
H 	H 	0.70597 0.57213 0.64653 0.06600
C 	C 	0.97477 0.75973 0.61913 0.39200
O 	O 	0.25635 0.89137 0.87721 -0.39800
O 	O 	0.29491 0.85133 0.82968 -0.39600
O 	O 	0.63773 0.13007 0.92937 -0.21200
O 	O 	0.70543 0.11547 0.96187 -0.24400
C 	C 	0.30623 0.88067 0.85987 0.37100
C 	C 	0.38683 0.90277 0.87678 -0.07100
C 	C 	0.40223 0.93397 0.91081 -0.00500
H 	H 	0.36383 0.94357 0.92207 0.06200
C 	C 	0.56513 0.04277 0.97577 -0.06800
C 	C 	0.42503 0.94247 0.98827 -0.02600
H 	H 	0.37263 0.90547 0.97987 0.06600
C 	C 	0.64143 0.09307 0.95247 0.39200
O 	O 	0.30168 0.07698 0.21054 -0.39800
O 	O 	0.22308 0.03842 0.16301 -0.39600
O 	O 	0.15900 0.69560 0.26270 -0.21200
O 	O 	0.07670 0.62790 0.29520 -0.24400
C 	C 	0.24110 0.02710 0.19320 0.37100
C 	C 	0.18260 0.94650 0.21011 -0.07100
C 	C 	0.19840 0.93110 0.24414 -0.00500
H 	H 	0.24640 0.96950 0.25540 0.06200
C 	C 	0.14430 0.76820 0.30910 -0.06800
C 	C 	0.18410 0.90830 0.32160 -0.02600
H 	H 	0.19950 0.96070 0.31320 0.06600
C 	C 	0.11830 0.69190 0.28580 0.39200
O 	O 	0.96835 0.41031 0.54387 -0.39800
O 	O 	0.88975 0.37175 0.49634 -0.39600
O 	O 	0.82567 0.02893 0.59603 -0.21200
O 	O 	0.74337 0.96123 0.62853 -0.24400
C 	C 	0.90777 0.36043 0.52653 0.37100
C 	C 	0.84927 0.27983 0.54344 -0.07100
C 	C 	0.86507 0.26443 0.57747 -0.00500
H 	H 	0.91307 0.30283 0.58873 0.06200
C 	C 	0.81097 0.10153 0.64243 -0.06800
C 	C 	0.85077 0.24163 0.65493 -0.02600
H 	H 	0.86617 0.29403 0.64653 0.06600
C 	C 	0.78497 0.02523 0.61913 0.39200
O 	O 	0.63501 0.74365 0.87721 -0.39800
O 	O 	0.55641 0.70509 0.82968 -0.39600
O 	O 	0.49233 0.36227 0.92937 -0.21200
O 	O 	0.41003 0.29457 0.96187 -0.24400
C 	C 	0.57443 0.69377 0.85987 0.37100
C 	C 	0.51593 0.61317 0.87678 -0.07100
C 	C 	0.53173 0.59777 0.91081 -0.00500
H 	H 	0.57973 0.63617 0.92207 0.06200
C 	C 	0.47763 0.43487 0.97577 -0.06800
C 	C 	0.51743 0.57497 0.98827 -0.02600
H 	H 	0.53283 0.62737 0.97987 0.06600
C 	C 	0.45163 0.35857 0.95247 0.39200
O 	O 	0.77530 0.69832 0.21054 -0.39800
O 	O 	0.81534 0.77692 0.16301 -0.39600
O 	O 	0.53660 0.84100 0.26270 -0.21200
O 	O 	0.55120 0.92330 0.29520 -0.24400
C 	C 	0.78600 0.75890 0.19320 0.37100
C 	C 	0.76390 0.81740 0.21011 -0.07100
C 	C 	0.73270 0.80160 0.24414 -0.00500
H 	H 	0.72310 0.75360 0.25540 0.06200
C 	C 	0.62390 0.85570 0.30910 -0.06800
C 	C 	0.72420 0.81590 0.32160 -0.02600
H 	H 	0.76120 0.80050 0.31320 0.06600
C 	C 	0.57360 0.88170 0.28580 0.39200
O 	O 	0.44197 0.03165 0.54387 -0.39800
O 	O 	0.48201 0.11025 0.49634 -0.39600
O 	O 	0.20327 0.17433 0.59603 -0.21200
O 	O 	0.21787 0.25663 0.62853 -0.24400
C 	C 	0.45267 0.09223 0.52653 0.37100
C 	C 	0.43057 0.15073 0.54344 -0.07100
C 	C 	0.39937 0.13493 0.57747 -0.00500
H 	H 	0.38977 0.08693 0.58873 0.06200
C 	C 	0.29057 0.18903 0.64243 -0.06800
C 	C 	0.39087 0.14923 0.65493 -0.02600
H 	H 	0.42787 0.13383 0.64653 0.06600
C 	C 	0.24027 0.21503 0.61913 0.39200
O 	O 	0.10863 0.36499 0.87721 -0.39800
O 	O 	0.14867 0.44359 0.82968 -0.39600
O 	O 	0.86993 0.50767 0.92937 -0.21200
O 	O 	0.88453 0.58997 0.96187 -0.24400
C 	C 	0.11933 0.42557 0.85987 0.37100
C 	C 	0.09723 0.48407 0.87678 -0.07100
C 	C 	0.06603 0.46827 0.91081 -0.00500
H 	H 	0.05643 0.42027 0.92207 0.06200
C 	C 	0.95723 0.52237 0.97577 -0.06800
C 	C 	0.05753 0.48257 0.98827 -0.02600
H 	H 	0.09453 0.46717 0.97987 0.06600
C 	C 	0.90693 0.54837 0.95247 0.39200
Cu	Cu	0.85664 0.14336 0.13827 0.91100
Cu	Cu	0.52331 0.47669 0.47160 0.91100
Cu	Cu	0.18997 0.81003 0.80494 0.91100
Cu	Cu	0.85664 0.71328 0.13827 0.91100
Cu	Cu	0.52331 0.04661 0.47160 0.91100
Cu	Cu	0.18997 0.37995 0.80494 0.91100
Cu	Cu	0.28672 0.14336 0.13827 0.91100
Cu	Cu	0.95339 0.47669 0.47160 0.91100
Cu	Cu	0.62005 0.81003 0.80494 0.91100
Cu	Cu	0.14336 0.85664 0.86173 0.91100
Cu	Cu	0.81003 0.18997 0.19506 0.91100
Cu	Cu	0.47669 0.52331 0.52840 0.91100
Cu	Cu	0.71328 0.85664 0.86173 0.91100
Cu	Cu	0.37995 0.18997 0.19506 0.91100
Cu	Cu	0.04661 0.52331 0.52840 0.91100
Cu	Cu	0.14336 0.28672 0.86173 0.91100
Cu	Cu	0.81003 0.62005 0.19506 0.91100
Cu	Cu	0.47669 0.95339 0.52840 0.91100
C 	C 	0.77980 0.88990 0.19354 0.03100
H 	H 	0.80140 0.90070 0.17110 0.06400
C 	C 	0.71560 0.85780 0.26148 -0.00600
C 	C 	0.68620 0.84310 0.29758 0.06100
C 	C 	0.44647 0.22323 0.52687 0.03100
H 	H 	0.46807 0.23403 0.50443 0.06400
C 	C 	0.38227 0.19113 0.59481 -0.00600
C 	C 	0.35287 0.17643 0.63091 0.06100
C 	C 	0.11313 0.55657 0.86021 0.03100
H 	H 	0.13473 0.56737 0.83777 0.06400
C 	C 	0.04893 0.52447 0.92815 -0.00600
C 	C 	0.01953 0.50977 0.96425 0.06100
C 	C 	0.11010 0.88990 0.19354 0.03100
H 	H 	0.09930 0.90070 0.17110 0.06400
C 	C 	0.14220 0.85780 0.26148 -0.00600
C 	C 	0.15690 0.84310 0.29758 0.06100
C 	C 	0.77677 0.22323 0.52687 0.03100
H 	H 	0.76597 0.23403 0.50443 0.06400
C 	C 	0.80887 0.19113 0.59481 -0.00600
C 	C 	0.82357 0.17643 0.63091 0.06100
C 	C 	0.44343 0.55657 0.86021 0.03100
H 	H 	0.43263 0.56737 0.83777 0.06400
C 	C 	0.47553 0.52447 0.92815 -0.00600
C 	C 	0.49023 0.50977 0.96425 0.06100
C 	C 	0.11010 0.22020 0.19354 0.03100
H 	H 	0.09930 0.19860 0.17110 0.06400
C 	C 	0.14220 0.28440 0.26148 -0.00600
C 	C 	0.15690 0.31380 0.29758 0.06100
C 	C 	0.77677 0.55353 0.52687 0.03100
H 	H 	0.76597 0.53193 0.50443 0.06400
C 	C 	0.80887 0.61773 0.59481 -0.00600
C 	C 	0.82357 0.64713 0.63091 0.06100
C 	C 	0.44343 0.88687 0.86021 0.03100
H 	H 	0.43263 0.86527 0.83777 0.06400
C 	C 	0.47553 0.95107 0.92815 -0.00600
C 	C 	0.49023 0.98047 0.96425 0.06100
C 	C 	0.88990 0.77980 0.80646 0.03100
H 	H 	0.90070 0.80140 0.82890 0.06400
C 	C 	0.85780 0.71560 0.73852 -0.00600
C 	C 	0.84310 0.68620 0.70242 0.06100
C 	C 	0.55657 0.11313 0.13979 0.03100
H 	H 	0.56737 0.13473 0.16223 0.06400
C 	C 	0.52447 0.04893 0.07185 -0.00600
C 	C 	0.50977 0.01953 0.03575 0.06100
C 	C 	0.22323 0.44647 0.47313 0.03100
H 	H 	0.23403 0.46807 0.49557 0.06400
C 	C 	0.19113 0.38227 0.40519 -0.00600
C 	C 	0.17643 0.35287 0.36909 0.06100
C 	C 	0.88990 0.11010 0.80646 0.03100
H 	H 	0.90070 0.09930 0.82890 0.06400
C 	C 	0.85780 0.14220 0.73852 -0.00600
C 	C 	0.84310 0.15690 0.70242 0.06100
C 	C 	0.55657 0.44343 0.13979 0.03100
H 	H 	0.56737 0.43263 0.16223 0.06400
C 	C 	0.52447 0.47553 0.07185 -0.00600
C 	C 	0.50977 0.49023 0.03575 0.06100
C 	C 	0.22323 0.77677 0.47313 0.03100
H 	H 	0.23403 0.76597 0.49557 0.06400
C 	C 	0.19113 0.80887 0.40519 -0.00600
C 	C 	0.17643 0.82357 0.36909 0.06100
C 	C 	0.22020 0.11010 0.80646 0.03100
H 	H 	0.19860 0.09930 0.82890 0.06400
C 	C 	0.28440 0.14220 0.73852 -0.00600
C 	C 	0.31380 0.15690 0.70242 0.06100
C 	C 	0.88687 0.44343 0.13979 0.03100
H 	H 	0.86527 0.43263 0.16223 0.06400
C 	C 	0.95107 0.47553 0.07185 -0.00600
C 	C 	0.98047 0.49023 0.03575 0.06100
C 	C 	0.55353 0.77677 0.47313 0.03100
H 	H 	0.53193 0.76597 0.49557 0.06400
C 	C 	0.61773 0.80887 0.40519 -0.00600
C 	C 	0.64713 0.82357 0.36909 0.06100
