data_crystal

_cell_length_a 15.51900
_cell_length_b 16.10200
_cell_length_c 22.98200
_cell_angle_alpha 90.00000
_cell_angle_beta  90.00000
_cell_angle_gamma 100.20000

_symmetry_space_group_name_	'P 1'
_symmetry_space_group_name_H-M	'P 1'

loop_
_symmetry_equiv_pos_as_xyz
  x,y,z

loop_
_atom_site_label
_atom_site_type_symbol
_atom_site_fract_x
_atom_site_fract_y
_atom_site_fract_z
_atom_site_charge
Zn	Zn	0.15664 0.35394 0.87750 1.16300
Zn	Zn	0.82542 0.24668 0.24898 1.22000
Zn	Zn	0.82542 0.74668 0.25102 1.22000
Zn	Zn	0.16814 0.68942 0.87651 1.22200
Zn	Zn	0.17458 0.75332 0.75102 1.22100
Zn	Zn	0.84336 0.14606 0.37750 1.16400
Zn	Zn	0.83186 0.81058 0.37651 1.22300
Zn	Zn	0.35240 0.38302 0.83717 1.22400
Zn	Zn	0.66375 0.15101 0.47193 1.22400
Zn	Zn	0.66375 0.65101 0.02807 1.22400
Zn	Zn	0.33625 0.34899 0.97193 1.22400
Zn	Zn	0.83186 0.31058 0.12348 1.22300
Zn	Zn	0.84336 0.64606 0.12250 1.16400
Zn	Zn	0.17458 0.25332 0.74898 1.22100
Zn	Zn	0.64760 0.11698 0.33717 1.22400
Zn	Zn	0.64760 0.61698 0.16283 1.22400
Zn	Zn	0.35240 0.88302 0.66283 1.22400
Zn	Zn	0.15664 0.85394 0.62250 1.16400
Zn	Zn	0.33625 0.84899 0.52807 1.22400
Zn	Zn	0.16814 0.18942 0.62349 1.22300
H 	H 	0.39900 0.58130 0.98410 0.08200
H 	H 	0.05860 0.09980 0.16220 0.12100
H 	H 	0.17010 0.51500 0.66650 0.06400
H 	H 	0.61320 0.15080 0.77090 -0.00000
H 	H 	0.78880 0.89640 0.82590 0.01000
H 	H 	0.34420 0.24630 0.37060 0.12200
H 	H 	0.41790 0.91960 0.12980 0.02100
H 	H 	0.10840 0.29140 0.27100 0.09200
H 	H 	0.56250 0.15570 0.95840 0.12400
H 	H 	0.17010 0.01500 0.83350 0.06300
H 	H 	0.42600 0.98990 0.03220 0.00100
H 	H 	0.67600 0.53670 0.52370 0.00100
H 	H 	0.63110 0.45550 0.84370 0.10600
H 	H 	0.83920 0.93540 0.55700 0.09600
H 	H 	0.04870 0.00370 0.14780 0.13200
H 	H 	0.55820 0.21580 0.85550 0.11200
H 	H 	0.10720 0.98970 0.25020 0.11900
H 	H 	0.62500 0.74990 0.73270 -0.00300
H 	H 	0.11740 0.08780 0.25640 0.11800
H 	H 	0.60100 0.41870 0.01590 0.08200
H 	H 	0.19390 0.50520 0.33310 0.01100
H 	H 	0.12830 0.63900 0.52170 0.08800
H 	H 	0.12830 0.13900 0.97830 0.08700
H 	H 	0.65580 0.25370 0.87060 0.12200
H 	H 	0.80610 0.99480 0.83310 0.01300
H 	H 	0.16080 0.06460 0.44300 0.09600
H 	H 	0.36890 0.54450 0.15630 0.10600
H 	H 	0.63380 0.36790 0.29570 0.08000
H 	H 	0.33530 0.81970 0.03580 0.12500
H 	H 	0.94140 0.40020 0.66220 0.12100
H 	H 	0.43750 0.34430 0.45840 0.12400
H 	H 	0.44180 0.78420 0.14450 0.11200
H 	H 	0.32400 0.46330 0.47630 0.00100
H 	H 	0.80610 0.49480 0.66690 0.01100
H 	H 	0.73140 0.90510 0.72370 -0.00600
H 	H 	0.32400 0.96330 0.02370 0.00100
H 	H 	0.25430 0.99560 0.27370 -0.00600
H 	H 	0.66880 0.18460 0.67900 0.10600
H 	H 	0.65580 0.75370 0.62940 0.12200
H 	H 	0.57400 0.51010 0.53220 0.00100
H 	H 	0.60100 0.91870 0.48410 0.08200
H 	H 	0.83920 0.43540 0.94300 0.09600
H 	H 	0.33530 0.31970 0.46420 0.12500
H 	H 	0.10720 0.48970 0.24980 0.12300
H 	H 	0.68360 0.61150 0.62470 0.02700
H 	H 	0.56250 0.65570 0.54160 0.12400
H 	H 	0.37530 0.09070 0.96570 0.10500
H 	H 	0.19390 0.00520 0.16690 0.01300
H 	H 	0.26860 0.59490 0.22370 -0.00600
H 	H 	0.95130 0.99630 0.85220 0.13200
H 	H 	0.39550 0.90490 0.85310 0.11600
H 	H 	0.61320 0.65080 0.72910 -0.00000
H 	H 	0.58210 0.58040 0.62980 0.02100
H 	H 	0.82990 0.48500 0.33350 0.06400
H 	H 	0.33120 0.31540 0.17900 0.10600
H 	H 	0.94140 0.90020 0.83780 0.12100
H 	H 	0.89510 0.67640 0.90160 0.06300
H 	H 	0.89160 0.20860 0.77100 0.09100
H 	H 	0.95130 0.49630 0.64780 0.13300
H 	H 	0.66470 0.18030 0.96420 0.12500
H 	H 	0.66470 0.68030 0.53580 0.12500
H 	H 	0.74570 0.50440 0.77370 -0.00500
H 	H 	0.10840 0.79140 0.22900 0.09100
H 	H 	0.21120 0.60360 0.32590 0.00800
H 	H 	0.37500 0.75010 0.23270 -0.00300
H 	H 	0.25430 0.49560 0.22630 -0.00500
H 	H 	0.85310 0.87190 0.92190 -0.01700
H 	H 	0.95160 0.40980 0.56530 -0.02300
H 	H 	0.82990 0.98500 0.16650 0.06300
H 	H 	0.39550 0.40490 0.64690 0.11600
H 	H 	0.62470 0.90930 0.03430 0.10500
H 	H 	0.89160 0.70860 0.72900 0.09200
H 	H 	0.38680 0.34920 0.27090 -0.00000
H 	H 	0.60450 0.59510 0.35310 0.11600
H 	H 	0.26860 0.09490 0.27630 -0.00600
H 	H 	0.63110 0.95550 0.65630 0.10600
H 	H 	0.04840 0.59020 0.43470 -0.02300
H 	H 	0.16080 0.56460 0.05700 0.09600
H 	H 	0.62470 0.40930 0.46570 0.10500
H 	H 	0.04870 0.50370 0.35220 0.13300
H 	H 	0.31640 0.88850 0.12470 0.02700
H 	H 	0.33120 0.81540 0.32100 0.10600
H 	H 	0.39900 0.08130 0.51590 0.08200
H 	H 	0.10490 0.82360 0.40160 0.06100
H 	H 	0.78880 0.39640 0.67410 0.00800
H 	H 	0.42600 0.48990 0.46780 0.00100
H 	H 	0.68360 0.11150 0.87530 0.02700
H 	H 	0.89280 0.51030 0.75020 0.12300
H 	H 	0.87170 0.86100 0.02170 0.08700
H 	H 	0.41790 0.41960 0.37020 0.02100
H 	H 	0.57400 0.01010 0.96780 0.00100
H 	H 	0.14690 0.62810 0.42190 -0.01800
H 	H 	0.95160 0.90980 0.93470 -0.02000
H 	H 	0.11740 0.58780 0.24360 0.11900
H 	H 	0.44180 0.28420 0.35550 0.11200
H 	H 	0.21120 0.10360 0.17410 0.01000
H 	H 	0.43750 0.84430 0.04160 0.12400
H 	H 	0.34420 0.74630 0.12940 0.12200
H 	H 	0.66880 0.68460 0.82100 0.10600
H 	H 	0.36620 0.63210 0.70430 0.08000
H 	H 	0.60450 0.09510 0.14690 0.11600
H 	H 	0.15340 0.39590 0.51300 0.10400
H 	H 	0.73140 0.40510 0.77630 -0.00600
H 	H 	0.36620 0.13210 0.79570 0.08000
H 	H 	0.87170 0.36100 0.47830 0.08800
H 	H 	0.88260 0.91220 0.74360 0.11800
H 	H 	0.31640 0.38850 0.37530 0.02700
H 	H 	0.14690 0.12810 0.07810 -0.01700
H 	H 	0.67600 0.03670 0.97630 0.00100
H 	H 	0.58210 0.08040 0.87020 0.02100
H 	H 	0.37500 0.25010 0.26730 -0.00300
H 	H 	0.10490 0.32360 0.09840 0.06300
H 	H 	0.36890 0.04450 0.34370 0.10600
H 	H 	0.15340 0.89590 0.98700 0.10300
H 	H 	0.84660 0.10410 0.01300 0.10300
H 	H 	0.88260 0.41220 0.75640 0.11900
H 	H 	0.38680 0.84920 0.22910 -0.00000
H 	H 	0.05860 0.59980 0.33780 0.12100
H 	H 	0.85310 0.37190 0.57810 -0.01800
H 	H 	0.84660 0.60410 0.48700 0.10400
H 	H 	0.55820 0.71580 0.64450 0.11200
H 	H 	0.89510 0.17640 0.59840 0.06100
H 	H 	0.62500 0.24990 0.76730 -0.00300
H 	H 	0.74570 0.00440 0.72630 -0.00600
H 	H 	0.04840 0.09020 0.06530 -0.02000
H 	H 	0.37530 0.59070 0.53430 0.10500
H 	H 	0.63380 0.86790 0.20430 0.08000
H 	H 	0.89280 0.01030 0.74980 0.11900
C 	C 	0.62850 0.37540 0.38228 -0.01600
C 	C 	0.83810 0.05710 0.09454 -0.02600
C 	C 	0.61810 0.70650 0.64772 -0.25900
C 	C 	0.77620 0.18230 0.62991 -0.01000
C 	C 	0.84850 0.05570 0.03474 -0.13200
C 	C 	0.16190 0.94290 0.90546 -0.02600
C 	C 	0.86350 0.41050 0.45996 -0.12500
C 	C 	0.36290 0.57510 0.01667 -0.07400
C 	C 	0.08800 0.05750 0.14480 -0.30800
C 	C 	0.77960 0.43630 0.93984 -0.15700
C 	C 	0.37940 0.51410 0.68568 0.01800
C 	C 	0.16100 0.51510 0.62650 -0.02700
C 	C 	0.00560 0.19810 0.68747 0.35900
C 	C 	0.23780 0.09300 0.54770 0.26300
C 	C 	0.61280 0.01180 0.08303 0.21800
C 	C 	0.17610 0.86310 0.87569 0.32800
C 	C 	0.61740 0.13730 0.95022 -0.26600
C 	C 	0.89780 0.42200 0.58206 0.19500
C 	C 	0.00560 0.69810 0.81253 0.35600
C 	C 	0.99440 0.30190 0.18747 0.35600
C 	C 	0.64230 0.20320 0.78824 0.13800
C 	C 	0.25560 0.55090 0.11365 0.20900
C 	C 	0.37940 0.01410 0.81432 0.01700
C 	C 	0.77960 0.93630 0.56016 -0.15700
C 	C 	0.72720 0.92470 0.51083 -0.00600
C 	C 	0.16190 0.44290 0.59454 -0.02400
C 	C 	0.60250 0.43440 0.92885 -0.01500
C 	C 	0.14720 0.04260 0.24434 -0.28600
C 	C 	0.22650 0.54350 0.21744 0.15600
C 	C 	0.38720 0.48820 0.58303 0.21700
C 	C 	0.13840 0.51720 0.50722 0.19800
C 	C 	0.22650 0.04350 0.28256 0.15600
C 	C 	0.37760 0.07150 0.92763 -0.15400
C 	C 	0.37360 0.97970 0.75314 0.26800
C 	C 	0.74440 0.44910 0.88635 0.20900
C 	C 	0.85280 0.45740 0.74434 -0.29200
C 	C 	0.49570 0.57780 0.07747 0.35700
C 	C 	0.62690 0.62610 0.61622 0.05900
C 	C 	0.15150 0.94430 0.96526 -0.13200
C 	C 	0.90800 0.19580 0.68508 -0.03800
C 	C 	0.37360 0.47970 0.74686 0.26700
C 	C 	0.38190 0.29350 0.35228 -0.25900
C 	C 	0.37150 0.62460 0.61772 -0.01600
C 	C 	0.38260 0.86270 0.04978 -0.26600
C 	C 	0.61810 0.20650 0.85228 -0.25900
C 	C 	0.16840 0.05270 0.18005 0.10000
C 	C 	0.83160 0.94730 0.81995 0.10000
C 	C 	0.65490 0.94770 0.62006 -0.15800
C 	C 	0.85280 0.95740 0.75566 -0.28600
C 	C 	0.22380 0.81770 0.37009 -0.01000
C 	C 	0.99440 0.80190 0.31253 0.35900
C 	C 	0.62060 0.98590 0.18568 0.01700
C 	C 	0.37760 0.57150 0.57237 -0.15300
C 	C 	0.60250 0.93440 0.57115 -0.01500
C 	C 	0.63710 0.42490 0.98333 -0.07400
C 	C 	0.22680 0.79910 0.26681 0.20100
C 	C 	0.38720 0.98820 0.91697 0.21800
C 	C 	0.38850 0.96010 0.86054 -0.16200
C 	C 	0.27070 0.31140 0.18043 -0.15300
C 	C 	0.77320 0.70090 0.76681 0.20200
C 	C 	0.77350 0.95650 0.71744 0.15600
C 	C 	0.27200 0.32870 0.07288 0.30500
C 	C 	0.76220 0.90700 0.45230 0.26300
C 	C 	0.13750 0.29730 0.23549 -0.13900
C 	C 	0.34510 0.55230 0.12006 -0.15800
C 	C 	0.85220 0.33320 0.36652 0.38600
C 	C 	0.62640 0.52030 0.25314 0.26700
C 	C 	0.23780 0.59300 0.95230 0.26300
C 	C 	0.13570 0.31630 0.13225 -0.03700
C 	C 	0.82390 0.63690 0.37569 0.32800
C 	C 	0.86350 0.91050 0.04004 -0.12300
C 	C 	0.62840 0.40440 0.32627 -0.06100
C 	C 	0.13840 0.01720 0.99278 0.19300
C 	C 	0.50430 0.92220 0.57747 0.35700
C 	C 	0.22040 0.56370 0.06016 -0.15700
C 	C 	0.17610 0.36310 0.62431 0.32800
C 	C 	0.27280 0.57530 0.01083 -0.00600
C 	C 	0.61280 0.51180 0.41697 0.21700
C 	C 	0.37160 0.09560 0.82627 -0.06000
C 	C 	0.16100 0.01510 0.87350 -0.02500
C 	C 	0.85350 0.91200 0.09890 -0.04900
C 	C 	0.39750 0.06560 0.42885 -0.01500
C 	C 	0.15150 0.44430 0.53474 -0.13500
C 	C 	0.49570 0.07780 0.42253 0.35700
C 	C 	0.74440 0.94910 0.61365 0.20900
C 	C 	0.14780 0.66680 0.63348 0.38600
C 	C 	0.14650 0.58800 0.59890 -0.04700
C 	C 	0.10220 0.57800 0.41794 0.19500
C 	C 	0.62240 0.42850 0.42763 -0.15300
C 	C 	0.38850 0.46010 0.63946 -0.16200
C 	C 	0.77350 0.45650 0.78256 0.15600
C 	C 	0.36290 0.07510 0.48333 -0.07400
C 	C 	0.62240 0.92850 0.07237 -0.15400
C 	C 	0.62640 0.02030 0.24686 0.26800
C 	C 	0.72720 0.42470 0.98917 -0.00600
C 	C 	0.35990 0.71400 0.60702 0.35400
C 	C 	0.77320 0.20090 0.73319 0.20100
C 	C 	0.37310 0.87390 0.11622 0.06000
C 	C 	0.72800 0.67130 0.92712 0.30500
C 	C 	0.62690 0.12610 0.88378 0.06000
C 	C 	0.38010 0.94570 0.01799 0.14300
C 	C 	0.16840 0.55270 0.31995 0.10500
C 	C 	0.82390 0.13690 0.12431 0.32800
C 	C 	0.83810 0.55710 0.40546 -0.02400
C 	C 	0.89780 0.92200 0.91794 0.19100
C 	C 	0.72930 0.18860 0.68043 -0.15100
C 	C 	0.37160 0.59560 0.67373 -0.06100
C 	C 	0.14720 0.54260 0.25566 -0.29200
C 	C 	0.85220 0.83320 0.13348 0.38700
C 	C 	0.50430 0.42220 0.92253 0.35700
C 	C 	0.38190 0.79350 0.14772 -0.25900
C 	C 	0.22380 0.31770 0.12991 -0.00900
C 	C 	0.86160 0.48280 0.49278 0.19800
C 	C 	0.64230 0.70320 0.71176 0.13800
C 	C 	0.63710 0.92490 0.51667 -0.07400
C 	C 	0.09200 0.30420 0.18508 -0.03400
C 	C 	0.37310 0.37390 0.38378 0.05900
C 	C 	0.39750 0.56560 0.07115 -0.01500
C 	C 	0.64010 0.78600 0.10702 0.35400
C 	C 	0.62060 0.48590 0.31432 0.01800
C 	C 	0.90800 0.69580 0.81492 -0.03400
C 	C 	0.85350 0.41200 0.40110 -0.04700
C 	C 	0.61990 0.05430 0.98201 0.14300
C 	C 	0.22680 0.29910 0.23319 0.20200
C 	C 	0.14780 0.16680 0.86652 0.38700
C 	C 	0.83900 0.98490 0.12650 -0.02500
C 	C 	0.27280 0.07530 0.48917 -0.00600
C 	C 	0.86160 0.98280 0.00722 0.19300
C 	C 	0.37150 0.12460 0.88228 -0.01600
C 	C 	0.65490 0.44770 0.87994 -0.15800
C 	C 	0.08800 0.55750 0.35520 -0.31300
C 	C 	0.13650 0.08950 0.95996 -0.12300
C 	C 	0.61990 0.55430 0.51799 0.14400
C 	C 	0.38010 0.44570 0.48201 0.14400
C 	C 	0.77620 0.68230 0.87009 -0.00900
C 	C 	0.62840 0.90440 0.17373 -0.06000
C 	C 	0.35770 0.79680 0.21176 0.13800
C 	C 	0.09200 0.80420 0.31492 -0.03800
C 	C 	0.22040 0.06370 0.43984 -0.15700
C 	C 	0.38260 0.36270 0.45022 -0.26600
C 	C 	0.76220 0.40700 0.04770 0.26300
C 	C 	0.10220 0.07800 0.08206 0.19100
C 	C 	0.86430 0.68370 0.86775 -0.03700
C 	C 	0.83900 0.48490 0.37350 -0.02700
C 	C 	0.72800 0.17130 0.57288 0.30600
C 	C 	0.84850 0.55570 0.46526 -0.13500
C 	C 	0.35990 0.21400 0.89298 0.35400
C 	C 	0.86430 0.18370 0.63225 -0.03500
C 	C 	0.27070 0.81140 0.31957 -0.15100
C 	C 	0.13750 0.79730 0.26451 -0.13700
C 	C 	0.25560 0.05090 0.38635 0.20900
C 	C 	0.64010 0.28600 0.39298 0.35400
C 	C 	0.72930 0.68860 0.81957 -0.15300
C 	C 	0.13650 0.58950 0.54004 -0.12500
C 	C 	0.61150 0.03990 0.13946 -0.16200
C 	C 	0.61150 0.53990 0.36054 -0.16200
C 	C 	0.61740 0.63730 0.54978 -0.26600
C 	C 	0.83160 0.44730 0.68005 0.10500
C 	C 	0.14650 0.08800 0.90110 -0.04900
C 	C 	0.86250 0.70270 0.76451 -0.13900
C 	C 	0.13570 0.81630 0.36775 -0.03500
C 	C 	0.27200 0.82870 0.42712 0.30600
C 	C 	0.35770 0.29680 0.28824 0.13800
C 	C 	0.34510 0.05230 0.37994 -0.15800
C 	C 	0.62850 0.87540 0.11772 -0.01600
C 	C 	0.91200 0.44250 0.64480 -0.31300
C 	C 	0.91200 0.94250 0.85520 -0.30800
C 	C 	0.86250 0.20270 0.73549 -0.13700
O 	O 	0.21669 0.35045 0.79840 -0.63900
O 	O 	0.65657 0.47884 0.21377 -0.29500
O 	O 	0.76904 0.66090 0.97248 -0.43800
O 	O 	0.04534 0.22990 0.73183 -0.48500
O 	O 	0.27995 0.40366 0.90668 -0.67000
O 	O 	0.73473 0.20860 0.78583 -0.25400
O 	O 	0.19658 0.53930 0.15869 -0.26300
O 	O 	0.34343 0.52116 0.78623 -0.29500
O 	O 	0.35088 0.82570 0.42979 -0.34700
O 	O 	0.45959 0.90281 0.53220 -0.45900
O 	O 	0.34564 0.73467 0.55517 -0.46800
O 	O 	0.04119 0.17113 0.64306 -0.47900
O 	O 	0.16019 0.66397 0.68763 -0.46400
O 	O 	0.23202 0.68531 0.80483 -0.52600
O 	O 	0.60530 0.09177 0.25570 -0.40400
O 	O 	0.82270 0.14019 0.17868 -0.40200
O 	O 	0.65657 0.97884 0.28623 -0.29500
O 	O 	0.27995 0.90366 0.59332 -0.67000
O 	O 	0.23096 0.83910 0.47248 -0.43900
O 	O 	0.04119 0.67113 0.85694 -0.47900
O 	O 	0.17156 0.62863 0.95091 -0.43400
O 	O 	0.95466 0.27010 0.23183 -0.48500
O 	O 	0.04534 0.72990 0.76817 -0.48500
O 	O 	0.36433 0.76275 0.65006 -0.49000
O 	O 	0.39310 0.42919 0.54111 -0.25500
O 	O 	0.36433 0.26275 0.84994 -0.49000
O 	O 	0.83981 0.33603 0.31237 -0.46400
O 	O 	0.16019 0.16397 0.81237 -0.46400
O 	O 	0.45959 0.40281 0.96780 -0.45900
O 	O 	0.95466 0.77010 0.26817 -0.48500
O 	O 	0.18940 0.30226 0.59144 -0.45000
O 	O 	0.17156 0.12863 0.54909 -0.43300
O 	O 	0.26527 0.29140 0.28583 -0.25400
O 	O 	0.39310 0.92919 0.95889 -0.25400
O 	O 	0.76798 0.81469 0.30483 -0.52600
O 	O 	0.54041 0.09719 0.46780 -0.45900
O 	O 	0.86440 0.26830 0.39328 -0.52900
O 	O 	0.83981 0.83603 0.18763 -0.46400
O 	O 	0.64912 0.67430 0.92979 -0.34700
O 	O 	0.52682 0.06696 0.37354 -0.43400
O 	O 	0.64912 0.17430 0.57021 -0.34700
O 	O 	0.17730 0.85981 0.82132 -0.40200
O 	O 	0.34564 0.23467 0.94483 -0.46800
O 	O 	0.47318 0.93304 0.62646 -0.43400
O 	O 	0.13560 0.73170 0.60672 -0.52900
O 	O 	0.82844 0.37137 0.04909 -0.43400
O 	O 	0.34343 0.02116 0.71377 -0.29500
O 	O 	0.35088 0.32570 0.07021 -0.34700
O 	O 	0.17730 0.35981 0.67868 -0.40200
O 	O 	0.21669 0.85045 0.70160 -0.63900
O 	O 	0.82844 0.87137 0.45091 -0.43300
O 	O 	0.13560 0.23170 0.89328 -0.52900
O 	O 	0.78331 0.14955 0.29840 -0.63900
O 	O 	0.87220 0.48830 0.55214 -0.26300
O 	O 	0.78331 0.64955 0.20160 -0.63900
O 	O 	0.12780 0.01170 0.05214 -0.26000
O 	O 	0.63567 0.73725 0.15006 -0.49000
O 	O 	0.23096 0.33910 0.02752 -0.43800
O 	O 	0.47318 0.43304 0.87354 -0.43400
O 	O 	0.95881 0.32887 0.14306 -0.47900
O 	O 	0.60530 0.59177 0.24430 -0.40400
O 	O 	0.81060 0.19774 0.09144 -0.45000
O 	O 	0.81060 0.69774 0.40856 -0.45000
O 	O 	0.86440 0.76830 0.10672 -0.52900
O 	O 	0.27546 0.07342 0.59292 -0.30000
O 	O 	0.60690 0.57081 0.45889 -0.25500
O 	O 	0.18940 0.80226 0.90856 -0.45000
O 	O 	0.19658 0.03930 0.34131 -0.26200
O 	O 	0.63567 0.23725 0.34994 -0.49000
O 	O 	0.72454 0.42658 0.09292 -0.30000
O 	O 	0.76798 0.31469 0.19517 -0.52600
O 	O 	0.73473 0.70860 0.71417 -0.25400
O 	O 	0.60690 0.07081 0.04111 -0.25400
O 	O 	0.76904 0.16090 0.52752 -0.43900
O 	O 	0.82270 0.64019 0.32132 -0.40200
O 	O 	0.12780 0.51170 0.44786 -0.26300
O 	O 	0.39470 0.90823 0.74430 -0.40400
O 	O 	0.72454 0.92658 0.40708 -0.30000
O 	O 	0.26527 0.79140 0.21417 -0.25400
O 	O 	0.52682 0.56696 0.12646 -0.43400
O 	O 	0.54041 0.59719 0.03220 -0.45900
O 	O 	0.65436 0.76533 0.05517 -0.46800
O 	O 	0.80342 0.46070 0.84131 -0.26300
O 	O 	0.87220 0.98830 0.94786 -0.26000
O 	O 	0.95881 0.82887 0.35694 -0.47900
O 	O 	0.80342 0.96070 0.65869 -0.26200
O 	O 	0.65436 0.26533 0.44483 -0.46800
O 	O 	0.39470 0.40823 0.75570 -0.40400
O 	O 	0.72005 0.09634 0.40668 -0.67000
O 	O 	0.23202 0.18531 0.69517 -0.52600
O 	O 	0.27546 0.57342 0.90708 -0.30000
O 	O 	0.72005 0.59634 0.09332 -0.67000
