data_crystal

_cell_length_a 14.69000
_cell_length_b 15.12600
_cell_length_c 15.12600
_cell_angle_alpha 120.00000
_cell_angle_beta  90.00000
_cell_angle_gamma 90.00000

_symmetry_space_group_name_	'P 1'
_symmetry_space_group_name_H-M	'P 1'

loop_
_symmetry_equiv_pos_as_xyz
  x,y,z

loop_
_atom_site_label
_atom_site_type_symbol
_atom_site_fract_x
_atom_site_fract_y
_atom_site_fract_z
_atom_site_charge
Gd	Gd	0.75000 0.33333 0.66666 1.67400
Gd	Gd	0.75000 0.66667 0.33334 1.67400
Gd	Gd	0.25000 0.66667 0.33334 1.65400
Gd	Gd	0.25000 0.33333 0.66666 1.65400
Cu	Cu	0.50000 0.50000 0.50000 0.94700
Cu	Cu	0.50000 0.00000 0.50000 0.91200
Cu	Cu	0.50000 0.50000 -0.00000 0.91200
Cu	Cu	0.00000 0.00000 0.50000 0.85400
Cu	Cu	-0.00000 0.50000 0.50000 0.88900
Cu	Cu	-0.00000 0.50000 -0.00000 0.85400
C 	C 	0.70050 0.26840 0.41470 0.02500
C 	C 	0.63960 0.35660 0.48630 0.35500
C 	C 	0.70050 0.14630 0.73160 0.03300
C 	C 	0.63960 0.12970 0.64340 0.35500
C 	C 	0.70050 0.58530 0.85370 0.08000
C 	C 	0.63960 0.51370 0.87030 0.34400
C 	C 	0.70050 0.73160 0.58530 0.06700
C 	C 	0.63960 0.64340 0.51370 0.35000
C 	C 	0.70050 0.85370 0.26840 0.05900
C 	C 	0.63960 0.87030 0.35660 0.34600
C 	C 	0.70050 0.41470 0.14630 0.01300
C 	C 	0.63960 0.48630 0.12970 0.35700
C 	C 	0.79950 0.85370 0.58530 0.09400
C 	C 	0.86040 0.87030 0.51370 0.33900
C 	C 	0.79950 0.41470 0.26840 0.04000
C 	C 	0.86040 0.48630 0.35660 0.35000
C 	C 	0.79950 0.73160 0.14630 0.04800
C 	C 	0.86040 0.64340 0.12970 0.35000
C 	C 	0.79950 0.14630 0.41470 0.02700
C 	C 	0.86040 0.12970 0.48630 0.35200
C 	C 	0.79950 0.58530 0.73160 0.08100
C 	C 	0.86040 0.51370 0.64340 0.34500
C 	C 	0.79950 0.26840 0.85370 0.07400
C 	C 	0.86040 0.35660 0.87030 0.34200
C 	C 	0.29950 0.73160 0.58530 0.05200
C 	C 	0.36040 0.64340 0.51370 0.35300
C 	C 	0.29950 0.85370 0.26840 0.04500
C 	C 	0.36040 0.87030 0.35660 0.34900
C 	C 	0.29950 0.41470 0.14630 -0.00300
C 	C 	0.36040 0.48630 0.12970 0.36000
C 	C 	0.29950 0.26840 0.41470 0.01000
C 	C 	0.36040 0.35660 0.48630 0.35800
C 	C 	0.29950 0.14630 0.73160 0.01900
C 	C 	0.36040 0.12970 0.64340 0.35800
C 	C 	0.29950 0.58530 0.85370 0.06600
C 	C 	0.36040 0.51370 0.87030 0.34600
C 	C 	0.20050 0.14630 0.41470 -0.01500
C 	C 	0.13960 0.12970 0.48630 0.36000
C 	C 	0.20050 0.58530 0.73160 0.04000
C 	C 	0.13960 0.51370 0.64340 0.35200
C 	C 	0.20050 0.26840 0.85370 0.03300
C 	C 	0.13960 0.35660 0.87030 0.34900
C 	C 	0.20050 0.85370 0.58530 0.05400
C 	C 	0.13960 0.87030 0.51370 0.34600
C 	C 	0.20050 0.41470 0.26840 -0.00300
C 	C 	0.13960 0.48630 0.35660 0.35700
C 	C 	0.20050 0.73160 0.14630 0.00600
C 	C 	0.13960 0.64340 0.12970 0.35700
O 	O 	0.64160 0.38540 0.57840 -0.39500
O 	O 	0.59330 0.39360 0.44290 -0.37900
O 	O 	0.64160 0.19300 0.61460 -0.40200
O 	O 	0.59330 0.04930 0.60640 -0.39800
O 	O 	0.64160 0.42160 0.80700 -0.38000
O 	O 	0.59330 0.55710 0.95070 -0.32500
O 	O 	0.64160 0.61460 0.42160 -0.39200
O 	O 	0.59330 0.60640 0.55710 -0.36500
O 	O 	0.64160 0.80700 0.38540 -0.38100
O 	O 	0.59330 0.95070 0.39360 -0.33200
O 	O 	0.64160 0.57840 0.19300 -0.40300
O 	O 	0.59330 0.44290 0.04930 -0.40500
O 	O 	0.85840 0.80700 0.42160 -0.35100
O 	O 	0.90670 0.95070 0.55710 -0.26900
O 	O 	0.85840 0.57840 0.38540 -0.36600
O 	O 	0.90670 0.44290 0.39360 -0.32100
O 	O 	0.85840 0.61460 0.19300 -0.37300
O 	O 	0.90670 0.60640 0.04930 -0.34000
O 	O 	0.85840 0.19300 0.57840 -0.37400
O 	O 	0.90670 0.04930 0.44290 -0.34700
O 	O 	0.85840 0.42160 0.61460 -0.36300
O 	O 	0.90670 0.55710 0.60640 -0.30700
O 	O 	0.85840 0.38540 0.80700 -0.35300
O 	O 	0.90670 0.39360 0.95070 -0.27600
O 	O 	0.35840 0.61460 0.42160 -0.39000
O 	O 	0.40670 0.60640 0.55710 -0.36700
O 	O 	0.35840 0.80700 0.38540 -0.38000
O 	O 	0.40670 0.95070 0.39360 -0.33300
O 	O 	0.35840 0.57840 0.19300 -0.40200
O 	O 	0.40670 0.44290 0.04930 -0.40700
O 	O 	0.35840 0.38540 0.57840 -0.39300
O 	O 	0.40670 0.39360 0.44290 -0.38100
O 	O 	0.35840 0.19300 0.61460 -0.40100
O 	O 	0.40670 0.04930 0.60640 -0.40000
O 	O 	0.35840 0.42160 0.80700 -0.37800
O 	O 	0.40670 0.55710 0.95070 -0.32600
O 	O 	0.14160 0.19300 0.57840 -0.42400
O 	O 	0.09330 0.04930 0.44290 -0.44100
O 	O 	0.14160 0.42160 0.61460 -0.41200
O 	O 	0.09330 0.55710 0.60640 -0.40000
O 	O 	0.14160 0.38540 0.80700 -0.40100
O 	O 	0.09330 0.39360 0.95070 -0.36600
O 	O 	0.14160 0.80700 0.42160 -0.40000
O 	O 	0.09330 0.95070 0.55710 -0.35900
O 	O 	0.14160 0.57840 0.38540 -0.41500
O 	O 	0.09330 0.44290 0.39360 -0.41500
O 	O 	0.14160 0.61460 0.19300 -0.42200
O 	O 	0.09330 0.60640 0.04930 -0.43300
O 	O 	0.75000 0.23705 0.47410 -0.27800
O 	O 	0.75000 0.23705 0.76295 -0.28200
O 	O 	0.75000 0.52590 0.76295 -0.28600
O 	O 	0.75000 0.76295 0.52590 -0.28600
O 	O 	0.75000 0.76295 0.23705 -0.28200
O 	O 	0.75000 0.47410 0.23705 -0.27800
O 	O 	0.25000 0.76295 0.52590 -0.28200
O 	O 	0.25000 0.76295 0.23705 -0.27700
O 	O 	0.25000 0.47410 0.23705 -0.27300
O 	O 	0.25000 0.23705 0.47410 -0.27300
O 	O 	0.25000 0.23705 0.76295 -0.27700
O 	O 	0.25000 0.52590 0.76295 -0.28200
