data_crystal

_cell_length_a 13.73520
_cell_length_b 17.88800
_cell_length_c 11.02510
_cell_angle_alpha 90.00000
_cell_angle_beta  100.46000
_cell_angle_gamma 90.00000

_symmetry_space_group_name_	'P 1'
_symmetry_space_group_name_H-M	'P 1'

loop_
_symmetry_equiv_pos_as_xyz
  x,y,z

loop_
_atom_site_label
_atom_site_type_symbol
_atom_site_fract_x
_atom_site_fract_y
_atom_site_fract_z
_atom_site_charge
Cu	Cu	0.49891 0.49882 0.47005 0.52300
O 	O 	0.61200 0.43428 0.55080 -0.43500
O 	O 	0.66810 0.42480 0.37270 -0.30900
C 	C 	0.67350 0.41220 0.48420 0.35000
C 	C 	0.76075 0.36768 0.55420 -0.14100
C 	C 	0.82260 0.32950 0.48877 0.09000
H 	H 	0.81230 0.33290 0.40320 0.00900
C 	C 	0.89980 0.28622 0.55120 -0.19500
H 	H 	0.94120 0.26070 0.50740 0.09200
C 	C 	0.91517 0.28113 0.67900 0.16200
C 	C 	0.85330 0.31932 0.74450 -0.19300
H 	H 	0.86360 0.31590 0.83000 0.10000
C 	C 	0.77611 0.36260 0.68210 0.08900
H 	H 	0.73470 0.38810 0.72590 0.01400
N 	N 	0.40780 0.40958 0.49810 -0.23100
H 	H 	0.02590 0.20000 0.69210 0.12400
C 	C 	0.32300 0.40240 0.41730 0.06600
H 	H 	0.30510 0.44030 0.35990 0.01400
C 	C 	0.25990 0.34110 0.41460 -0.12100
H 	H 	0.20250 0.33870 0.35530 0.07600
C 	C 	0.28220 0.28323 0.50030 0.04400
C 	C 	0.37050 0.29170 0.58550 -0.12600
H 	H 	0.38950 0.25530 0.64550 0.06900
C 	C 	0.43000 0.35430 0.58070 0.06100
H 	H 	0.48850 0.35800 0.63810 -0.00300
Cu	Cu	0.99891 0.99882 0.47005 0.49300
O 	O 	0.11200 0.93428 0.55080 -0.42900
O 	O 	0.16810 0.92480 0.37270 -0.30600
C 	C 	0.17350 0.91220 0.48420 0.35700
C 	C 	0.26075 0.86768 0.55420 -0.15700
C 	C 	0.32260 0.82950 0.48877 0.11700
H 	H 	0.31230 0.83290 0.40320 0.00100
C 	C 	0.39980 0.78622 0.55120 -0.23000
H 	H 	0.44120 0.76070 0.50740 0.11100
C 	C 	0.41517 0.78113 0.67900 0.21600
C 	C 	0.35330 0.81932 0.74450 -0.22800
H 	H 	0.36360 0.81590 0.83000 0.11700
C 	C 	0.27611 0.86260 0.68210 0.11600
H 	H 	0.23470 0.88810 0.72590 0.00700
N 	N 	0.90780 0.90958 0.49810 -0.23400
H 	H 	0.52590 0.70000 0.69210 0.14400
C 	C 	0.82300 0.90240 0.41730 0.06600
H 	H 	0.80510 0.94030 0.35990 0.01200
C 	C 	0.75990 0.84110 0.41460 -0.12200
H 	H 	0.70250 0.83870 0.35530 0.07400
C 	C 	0.78220 0.78323 0.50030 0.04400
C 	C 	0.87050 0.79170 0.58550 -0.12800
H 	H 	0.88950 0.75530 0.64550 0.06600
C 	C 	0.93000 0.85430 0.58070 0.06000
H 	H 	0.98850 0.85800 0.63810 -0.01100
Cu	Cu	0.50109 0.49882 0.02995 0.52100
O 	O 	0.38800 0.43428 0.94920 -0.43500
O 	O 	0.33190 0.42480 0.12730 -0.30800
C 	C 	0.32650 0.41220 0.01580 0.35300
C 	C 	0.23925 0.36768 0.94580 -0.14700
C 	C 	0.17740 0.32950 0.01123 0.10400
H 	H 	0.18770 0.33290 0.09680 0.00700
C 	C 	0.10020 0.28622 0.94880 -0.20700
H 	H 	0.05880 0.26070 0.99260 0.11000
C 	C 	0.08483 0.28113 0.82100 0.18900
C 	C 	0.14670 0.31932 0.75550 -0.20600
H 	H 	0.13640 0.31590 0.67000 0.11100
C 	C 	0.22389 0.36260 0.81790 0.10200
H 	H 	0.26530 0.38810 0.77410 0.01100
N 	N 	0.59220 0.40958 0.00190 -0.23000
H 	H 	0.97410 0.20000 0.80790 0.10500
C 	C 	0.67700 0.40240 0.08270 0.06200
H 	H 	0.69490 0.44030 0.14010 0.01300
C 	C 	0.74010 0.34110 0.08540 -0.11700
H 	H 	0.79750 0.33870 0.14470 0.07100
C 	C 	0.71780 0.28323 0.99970 0.03800
C 	C 	0.62950 0.29170 0.91450 -0.12300
H 	H 	0.61050 0.25530 0.85450 0.06800
C 	C 	0.57000 0.35430 0.91930 0.05900
H 	H 	0.51150 0.35800 0.86190 -0.00200
Cu	Cu	0.00109 0.99882 0.02995 0.54900
O 	O 	0.88800 0.93428 0.94920 -0.43700
O 	O 	0.83190 0.92480 0.12730 -0.31100
C 	C 	0.82650 0.91220 0.01580 0.34700
C 	C 	0.73925 0.86768 0.94580 -0.14500
C 	C 	0.67740 0.82950 0.01123 0.10100
H 	H 	0.68770 0.83290 0.09680 0.00600
C 	C 	0.60020 0.78622 0.94880 -0.21800
H 	H 	0.55880 0.76070 0.99260 0.10800
C 	C 	0.58483 0.78113 0.82100 0.21000
C 	C 	0.64670 0.81932 0.75550 -0.22100
H 	H 	0.63640 0.81590 0.67000 0.11400
C 	C 	0.72389 0.86260 0.81790 0.10600
H 	H 	0.76530 0.88810 0.77410 0.00800
N 	N 	0.09220 0.90958 0.00190 -0.23100
H 	H 	0.47410 0.70000 0.80790 0.14400
C 	C 	0.17700 0.90240 0.08270 0.07100
H 	H 	0.19490 0.94030 0.14010 0.01200
C 	C 	0.24010 0.84110 0.08540 -0.13100
H 	H 	0.29750 0.83870 0.14470 0.07800
C 	C 	0.21780 0.78323 0.99970 0.05700
C 	C 	0.12950 0.79170 0.91450 -0.13200
H 	H 	0.11050 0.75530 0.85450 0.07500
C 	C 	0.07000 0.85430 0.91930 0.07200
H 	H 	0.01150 0.85800 0.86190 0.00300
Cu	Cu	0.50109 0.50118 0.52995 0.52200
O 	O 	0.38800 0.56572 0.44920 -0.43500
O 	O 	0.33190 0.57520 0.62730 -0.30900
C 	C 	0.32650 0.58780 0.51580 0.35400
C 	C 	0.23925 0.63232 0.44580 -0.14800
C 	C 	0.17740 0.67050 0.51123 0.10500
H 	H 	0.18770 0.66710 0.59680 0.00700
C 	C 	0.10020 0.71378 0.44880 -0.20900
H 	H 	0.05880 0.73930 0.49260 0.11100
C 	C 	0.08483 0.71887 0.32100 0.19000
C 	C 	0.14670 0.68068 0.25550 -0.20700
H 	H 	0.13640 0.68410 0.17000 0.11100
C 	C 	0.22389 0.63740 0.31790 0.10300
H 	H 	0.26530 0.61190 0.27410 0.01000
N 	N 	0.59220 0.59042 0.50190 -0.23100
H 	H 	0.97410 0.80000 0.30790 0.10600
C 	C 	0.67700 0.59760 0.58270 0.06400
H 	H 	0.69490 0.55970 0.64010 0.01300
C 	C 	0.74010 0.65890 0.58540 -0.12000
H 	H 	0.79750 0.66130 0.64470 0.07200
C 	C 	0.71780 0.71677 0.49970 0.04200
C 	C 	0.62950 0.70830 0.41450 -0.12500
H 	H 	0.61050 0.74470 0.35450 0.06900
C 	C 	0.57000 0.64570 0.41930 0.06000
H 	H 	0.51150 0.64200 0.36190 -0.00300
Cu	Cu	0.00109 0.00118 0.52995 0.55000
O 	O 	0.88800 0.06572 0.44920 -0.44200
O 	O 	0.83190 0.07520 0.62730 -0.31300
C 	C 	0.82650 0.08780 0.51580 0.35700
C 	C 	0.73925 0.13232 0.44580 -0.16000
C 	C 	0.67740 0.17050 0.51123 0.11900
H 	H 	0.68770 0.16710 0.59680 0.00000
C 	C 	0.60020 0.21378 0.44880 -0.23200
H 	H 	0.55880 0.23930 0.49260 0.11200
C 	C 	0.58483 0.21887 0.32100 0.21700
C 	C 	0.64670 0.18068 0.25550 -0.23000
H 	H 	0.63640 0.18410 0.17000 0.11700
C 	C 	0.72389 0.13740 0.31790 0.11700
H 	H 	0.76530 0.11190 0.27410 0.00400
N 	N 	0.09220 0.09042 0.50190 -0.22700
H 	H 	0.47410 0.30000 0.30790 0.14400
C 	C 	0.17700 0.09760 0.58270 0.06600
H 	H 	0.19490 0.05970 0.64010 0.01400
C 	C 	0.24010 0.15890 0.58540 -0.12000
H 	H 	0.29750 0.16130 0.64470 0.07400
C 	C 	0.21780 0.21677 0.49970 0.04400
C 	C 	0.12950 0.20830 0.41450 -0.12300
H 	H 	0.11050 0.24470 0.35450 0.07200
C 	C 	0.07000 0.14570 0.41930 0.06300
H 	H 	0.01150 0.14200 0.36190 0.00600
Cu	Cu	0.49891 0.50118 0.97005 0.52200
O 	O 	0.61200 0.56572 0.05080 -0.43700
O 	O 	0.66810 0.57520 0.87270 -0.31000
C 	C 	0.67350 0.58780 0.98420 0.35500
C 	C 	0.76075 0.63232 0.05420 -0.14900
C 	C 	0.82260 0.67050 0.98877 0.10000
H 	H 	0.81230 0.66710 0.90320 0.00600
C 	C 	0.89980 0.71378 0.05120 -0.20300
H 	H 	0.94120 0.73930 0.00740 0.09400
C 	C 	0.91517 0.71887 0.17900 0.16600
C 	C 	0.85330 0.68068 0.24450 -0.19800
H 	H 	0.86360 0.68410 0.33000 0.10200
C 	C 	0.77611 0.63740 0.18210 0.09500
H 	H 	0.73470 0.61190 0.22590 0.01200
N 	N 	0.40780 0.59042 0.99810 -0.22800
H 	H 	0.02590 0.80000 0.19210 0.12500
C 	C 	0.32300 0.59760 0.91730 0.06100
H 	H 	0.30510 0.55970 0.85990 0.01500
C 	C 	0.25990 0.65890 0.91460 -0.11100
H 	H 	0.20250 0.66130 0.85530 0.07300
C 	C 	0.28220 0.71677 0.00030 0.03200
C 	C 	0.37050 0.70830 0.08550 -0.11900
H 	H 	0.38950 0.74470 0.14550 0.06600
C 	C 	0.43000 0.64570 0.08070 0.05600
H 	H 	0.48850 0.64200 0.13810 -0.00100
Cu	Cu	0.99891 0.00118 0.97005 0.49300
O 	O 	0.11200 0.06572 0.05080 -0.42700
O 	O 	0.16810 0.07520 0.87270 -0.30500
C 	C 	0.17350 0.08780 0.98420 0.35100
C 	C 	0.26075 0.13232 0.05420 -0.15100
C 	C 	0.32260 0.17050 0.98877 0.10900
H 	H 	0.31230 0.16710 0.90320 0.00400
C 	C 	0.39980 0.21378 0.05120 -0.22500
H 	H 	0.44120 0.23930 0.00740 0.11000
C 	C 	0.41517 0.21887 0.17900 0.21400
C 	C 	0.35330 0.18068 0.24450 -0.22500
H 	H 	0.36360 0.18410 0.33000 0.11500
C 	C 	0.27611 0.13740 0.18210 0.11100
H 	H 	0.23470 0.11190 0.22590 0.00800
N 	N 	0.90780 0.09042 0.99810 -0.23700
H 	H 	0.52590 0.30000 0.19210 0.14400
C 	C 	0.82300 0.09760 0.91730 0.06800
H 	H 	0.80510 0.05970 0.85990 0.01100
C 	C 	0.75990 0.15890 0.91460 -0.12700
H 	H 	0.70250 0.16130 0.85530 0.07600
C 	C 	0.78220 0.21677 0.00030 0.05000
C 	C 	0.87050 0.20830 0.08550 -0.13200
H 	H 	0.88950 0.24470 0.14550 0.06800
C 	C 	0.93000 0.14570 0.08070 0.06500
H 	H 	0.98850 0.14200 0.13810 -0.01200
C 	C 	-0.00000 0.23190 0.75000 -0.28700
C 	C 	0.50000 0.73190 0.75000 -0.37500
C 	C 	0.00000 0.76810 0.25000 -0.29000
C 	C 	0.50000 0.26810 0.25000 -0.37800
