data_crystal

_cell_length_a 15.40170
_cell_length_b 15.40170
_cell_length_c 28.94210
_cell_angle_alpha 90.00000
_cell_angle_beta  90.00000
_cell_angle_gamma 90.00000

_symmetry_space_group_name_	'P 1'
_symmetry_space_group_name_H-M	'P 1'

loop_
_symmetry_equiv_pos_as_xyz
  x,y,z

loop_
_atom_site_label
_atom_site_type_symbol
_atom_site_fract_x
_atom_site_fract_y
_atom_site_fract_z
_atom_site_charge
Fe	Fe	0.40230 0.81872 0.05054 1.25400
Fe	Fe	0.49206 0.04938 0.04689 1.23600
P 	P 	0.32226 0.98011 0.99837 0.50100
P 	P 	0.29420 0.67686 0.11051 0.53800
O 	O 	0.36765 0.04405 0.03193 -0.36200
O 	O 	0.38053 0.96567 0.95588 -0.35900
O 	O 	0.30686 0.89348 0.02391 -0.32900
O 	O 	0.23569 0.01878 0.98257 -0.12700
O 	O 	0.32034 0.72477 0.06682 -0.33500
O 	O 	0.23578 0.73578 0.13918 -0.36300
O 	O 	0.23811 0.59634 0.09629 -0.14100
O 	O 	0.37141 0.64397 0.13817 -0.37400
O 	O 	0.51073 0.83023 0.93027 -0.32700
O 	O 	0.41794 0.75912 0.99063 -0.37700
O 	O 	0.49205 0.91536 0.02439 -0.49000
Fe	Fe	0.90230 0.31872 0.55054 1.25600
Fe	Fe	0.99206 0.54938 0.54689 1.24000
P 	P 	0.82226 0.48011 0.49837 0.50200
P 	P 	0.79420 0.17686 0.61051 0.53800
O 	O 	0.86765 0.54405 0.53193 -0.36200
O 	O 	0.88053 0.46567 0.45588 -0.35600
O 	O 	0.80686 0.39348 0.52391 -0.32800
O 	O 	0.73569 0.51878 0.48257 -0.12600
O 	O 	0.82034 0.22477 0.56682 -0.33400
O 	O 	0.73578 0.23578 0.63918 -0.36300
O 	O 	0.73811 0.09634 0.59629 -0.14000
O 	O 	0.87141 0.14397 0.63817 -0.37200
O 	O 	0.01073 0.33023 0.43027 -0.32800
O 	O 	0.91794 0.25912 0.49063 -0.37200
O 	O 	0.99205 0.41536 0.52439 -0.48600
Fe	Fe	0.09770 0.18128 0.55054 1.25500
Fe	Fe	0.00794 0.95062 0.54689 1.23400
P 	P 	0.17774 0.01989 0.49837 0.50400
P 	P 	0.20580 0.32314 0.61051 0.53800
O 	O 	0.13235 0.95595 0.53193 -0.36400
O 	O 	0.11947 0.03433 0.45588 -0.36100
O 	O 	0.19314 0.10652 0.52391 -0.32800
O 	O 	0.26431 0.98122 0.48257 -0.12800
O 	O 	0.17966 0.27523 0.56682 -0.33500
O 	O 	0.26422 0.26422 0.63918 -0.36300
O 	O 	0.26189 0.40366 0.59629 -0.14100
O 	O 	0.12859 0.35603 0.63817 -0.37500
O 	O 	0.98927 0.16977 0.43027 -0.32100
O 	O 	0.08206 0.24088 0.49063 -0.37700
O 	O 	0.00795 0.08464 0.52439 -0.49300
Fe	Fe	0.59770 0.68128 0.05054 1.25500
Fe	Fe	0.50794 0.45062 0.04689 1.23700
P 	P 	0.67774 0.51989 0.99837 0.50200
P 	P 	0.70580 0.82314 0.11051 0.53800
O 	O 	0.63235 0.45595 0.03193 -0.36200
O 	O 	0.61947 0.53433 0.95588 -0.35900
O 	O 	0.69314 0.60652 0.02391 -0.32800
O 	O 	0.76431 0.48122 0.98257 -0.12500
O 	O 	0.67966 0.77523 0.06682 -0.33400
O 	O 	0.76422 0.76422 0.13918 -0.36200
O 	O 	0.76189 0.90366 0.09629 -0.13900
O 	O 	0.62859 0.85603 0.13817 -0.37400
O 	O 	0.48927 0.66977 0.93027 -0.32700
O 	O 	0.58206 0.74088 0.99063 -0.37700
O 	O 	0.50795 0.58464 0.02439 -0.49000
Fe	Fe	0.93128 0.65230 0.30054 1.25800
Fe	Fe	0.70062 0.74206 0.29689 1.23700
P 	P 	0.76989 0.57226 0.24837 0.50200
P 	P 	0.07314 0.54420 0.36051 0.53800
O 	O 	0.70595 0.61765 0.28193 -0.36200
O 	O 	0.78433 0.63053 0.20588 -0.35800
O 	O 	0.85652 0.55686 0.27391 -0.32700
O 	O 	0.73122 0.48569 0.23257 -0.12600
O 	O 	0.02523 0.57034 0.31682 -0.33900
O 	O 	0.01422 0.48578 0.38918 -0.36500
O 	O 	0.15366 0.48811 0.34629 -0.14100
O 	O 	0.10603 0.62141 0.38817 -0.37400
O 	O 	0.91977 0.76073 0.18027 -0.32100
O 	O 	0.99088 0.66794 0.24063 -0.36900
O 	O 	0.83464 0.74205 0.27439 -0.48900
Fe	Fe	0.43128 0.15230 0.80054 1.25500
Fe	Fe	0.20062 0.24206 0.79689 1.23700
P 	P 	0.26989 0.07226 0.74837 0.50300
P 	P 	0.57314 0.04420 0.86051 0.53700
O 	O 	0.20595 0.11765 0.78193 -0.36300
O 	O 	0.28433 0.13053 0.70588 -0.35900
O 	O 	0.35652 0.05686 0.77391 -0.32900
O 	O 	0.23122 0.98569 0.73257 -0.12800
O 	O 	0.52523 0.07034 0.81682 -0.33500
O 	O 	0.51422 0.98578 0.88918 -0.36200
O 	O 	0.65366 0.98811 0.84629 -0.14000
O 	O 	0.60603 0.12141 0.88817 -0.37400
O 	O 	0.41977 0.26073 0.68027 -0.32700
O 	O 	0.49088 0.16794 0.74063 -0.37700
O 	O 	0.33464 0.24205 0.77439 -0.49000
Fe	Fe	0.56872 0.34770 0.80054 1.25500
Fe	Fe	0.79938 0.25794 0.79689 1.23700
P 	P 	0.73011 0.42774 0.74837 0.50200
P 	P 	0.42686 0.45580 0.86051 0.53800
O 	O 	0.79405 0.38235 0.78193 -0.36100
O 	O 	0.71567 0.36947 0.70588 -0.35900
O 	O 	0.64348 0.44314 0.77391 -0.32800
O 	O 	0.76878 0.51431 0.73257 -0.12500
O 	O 	0.47477 0.42966 0.81682 -0.33500
O 	O 	0.48578 0.51422 0.88918 -0.36300
O 	O 	0.34634 0.51189 0.84629 -0.14100
O 	O 	0.39397 0.37859 0.88817 -0.37400
O 	O 	0.58023 0.23927 0.68027 -0.32700
O 	O 	0.50912 0.33206 0.74063 -0.37700
O 	O 	0.66536 0.25795 0.77439 -0.49000
Fe	Fe	0.06872 0.84770 0.30054 1.25300
Fe	Fe	0.29938 0.75794 0.29689 1.23700
P 	P 	0.23011 0.92774 0.24837 0.50200
P 	P 	0.92686 0.95580 0.36051 0.53900
O 	O 	0.29405 0.88235 0.28193 -0.36300
O 	O 	0.21567 0.86947 0.20588 -0.35900
O 	O 	0.14348 0.94314 0.27391 -0.33000
O 	O 	0.26878 0.01431 0.23257 -0.12600
O 	O 	0.97477 0.92966 0.31682 -0.33000
O 	O 	0.98578 0.01422 0.38918 -0.36200
O 	O 	0.84634 0.01189 0.34629 -0.14100
O 	O 	0.89397 0.87859 0.38817 -0.37200
O 	O 	0.08023 0.73927 0.18027 -0.32800
O 	O 	0.00912 0.83206 0.24063 -0.37900
O 	O 	0.16536 0.75795 0.27439 -0.49000
Fe	Fe	0.59770 0.18128 0.94946 1.25500
Fe	Fe	0.50794 0.95062 0.95311 1.23700
P 	P 	0.67774 0.01989 0.00163 0.50100
P 	P 	0.70580 0.32314 0.88949 0.53800
O 	O 	0.63235 0.95595 0.96807 -0.36200
O 	O 	0.61947 0.03433 0.04412 -0.35900
O 	O 	0.69314 0.10652 0.97609 -0.32800
O 	O 	0.76431 0.98122 0.01743 -0.12500
O 	O 	0.67966 0.27523 0.93318 -0.33500
O 	O 	0.76422 0.26422 0.86082 -0.36200
O 	O 	0.76189 0.40366 0.90371 -0.14000
O 	O 	0.62859 0.35603 0.86183 -0.37400
O 	O 	0.48927 0.16977 0.06973 -0.32700
O 	O 	0.58206 0.24088 0.00937 -0.37700
O 	O 	0.50795 0.08464 0.97561 -0.49000
Fe	Fe	0.09770 0.68128 0.44946 1.25500
Fe	Fe	0.00794 0.45062 0.45311 1.23400
P 	P 	0.17774 0.51989 0.50163 0.50200
P 	P 	0.20580 0.82314 0.38949 0.53800
O 	O 	0.13235 0.45595 0.46807 -0.36300
O 	O 	0.11947 0.53433 0.54412 -0.36200
O 	O 	0.19314 0.60652 0.47609 -0.32800
O 	O 	0.26431 0.48122 0.51743 -0.12700
O 	O 	0.17966 0.77523 0.43318 -0.33500
O 	O 	0.26422 0.76422 0.36082 -0.36300
O 	O 	0.26189 0.90366 0.40371 -0.14100
O 	O 	0.12859 0.85603 0.36183 -0.37500
O 	O 	0.98927 0.66977 0.56973 -0.32000
O 	O 	0.08206 0.74088 0.50937 -0.37700
O 	O 	0.00795 0.58464 0.47561 -0.49400
Fe	Fe	0.90230 0.81872 0.44946 1.25700
Fe	Fe	0.99206 0.04938 0.45311 1.23900
P 	P 	0.82226 0.98011 0.50163 0.50300
P 	P 	0.79420 0.67686 0.38949 0.53800
O 	O 	0.86765 0.04405 0.46807 -0.36300
O 	O 	0.88053 0.96567 0.54412 -0.35500
O 	O 	0.80686 0.89348 0.47609 -0.32800
O 	O 	0.73569 0.01878 0.51743 -0.12700
O 	O 	0.82034 0.72477 0.43318 -0.33400
O 	O 	0.73578 0.73578 0.36082 -0.36300
O 	O 	0.73811 0.59634 0.40371 -0.14000
O 	O 	0.87141 0.64397 0.36183 -0.37100
O 	O 	0.01073 0.83023 0.56973 -0.32900
O 	O 	0.91794 0.75912 0.50937 -0.37100
O 	O 	0.99205 0.91536 0.47561 -0.48400
Fe	Fe	0.40230 0.31872 0.94946 1.25500
Fe	Fe	0.49206 0.54938 0.95311 1.23700
P 	P 	0.32226 0.48011 0.00163 0.50200
P 	P 	0.29420 0.17686 0.88949 0.53800
O 	O 	0.36765 0.54405 0.96807 -0.36300
O 	O 	0.38053 0.46567 0.04412 -0.35900
O 	O 	0.30686 0.39348 0.97609 -0.32900
O 	O 	0.23569 0.51878 0.01743 -0.12800
O 	O 	0.32034 0.22477 0.93318 -0.33500
O 	O 	0.23578 0.23578 0.86082 -0.36300
O 	O 	0.23811 0.09634 0.90371 -0.14100
O 	O 	0.37141 0.14397 0.86183 -0.37400
O 	O 	0.51073 0.33023 0.06973 -0.32700
O 	O 	0.41794 0.25912 0.00937 -0.37700
O 	O 	0.49205 0.41536 0.97561 -0.49000
Fe	Fe	0.06872 0.34770 0.69946 1.25400
Fe	Fe	0.29938 0.25794 0.70311 1.23700
P 	P 	0.23011 0.42774 0.75163 0.50200
P 	P 	0.92686 0.45580 0.63949 0.53800
O 	O 	0.29405 0.38235 0.71807 -0.36200
O 	O 	0.21567 0.36947 0.79412 -0.35900
O 	O 	0.14348 0.44314 0.72609 -0.33000
O 	O 	0.26878 0.51431 0.76743 -0.12700
O 	O 	0.97477 0.42966 0.68318 -0.33100
O 	O 	0.98578 0.51422 0.61082 -0.36000
O 	O 	0.84634 0.51189 0.65371 -0.14000
O 	O 	0.89397 0.37859 0.61183 -0.37200
O 	O 	0.08023 0.23927 0.81973 -0.32800
O 	O 	0.00912 0.33206 0.75937 -0.37900
O 	O 	0.16536 0.25795 0.72561 -0.49000
Fe	Fe	0.56872 0.84770 0.19946 1.25500
Fe	Fe	0.79938 0.75794 0.20311 1.23700
P 	P 	0.73011 0.92774 0.25163 0.50300
P 	P 	0.42686 0.95580 0.13949 0.53700
O 	O 	0.79405 0.88235 0.21807 -0.36100
O 	O 	0.71567 0.86947 0.29412 -0.35900
O 	O 	0.64348 0.94314 0.22609 -0.32800
O 	O 	0.76878 0.01431 0.26743 -0.12600
O 	O 	0.47477 0.92966 0.18318 -0.33500
O 	O 	0.48578 0.01422 0.11082 -0.36200
O 	O 	0.34634 0.01189 0.15371 -0.14000
O 	O 	0.39397 0.87859 0.11183 -0.37400
O 	O 	0.58023 0.73927 0.31973 -0.32700
O 	O 	0.50912 0.83206 0.25937 -0.37700
O 	O 	0.66536 0.75795 0.22561 -0.49000
Fe	Fe	0.43128 0.65230 0.19946 1.25500
Fe	Fe	0.20062 0.74206 0.20311 1.23700
P 	P 	0.26989 0.57226 0.25163 0.50200
P 	P 	0.57314 0.54420 0.13949 0.53700
O 	O 	0.20595 0.61765 0.21807 -0.36300
O 	O 	0.28433 0.63053 0.29412 -0.35900
O 	O 	0.35652 0.55686 0.22609 -0.32800
O 	O 	0.23122 0.48569 0.26743 -0.12700
O 	O 	0.52523 0.57034 0.18318 -0.33500
O 	O 	0.51422 0.48578 0.11082 -0.36300
O 	O 	0.65366 0.48811 0.15371 -0.14000
O 	O 	0.60603 0.62141 0.11183 -0.37400
O 	O 	0.41977 0.76073 0.31973 -0.32700
O 	O 	0.49088 0.66794 0.25937 -0.37700
O 	O 	0.33464 0.74205 0.22561 -0.49000
Fe	Fe	0.93128 0.15230 0.69946 1.25700
Fe	Fe	0.70062 0.24206 0.70311 1.23700
P 	P 	0.76989 0.07226 0.75163 0.50100
P 	P 	0.07314 0.04420 0.63949 0.53900
O 	O 	0.70595 0.11765 0.71807 -0.36200
O 	O 	0.78433 0.13053 0.79412 -0.35900
O 	O 	0.85652 0.05686 0.72609 -0.32700
O 	O 	0.73122 0.98569 0.76743 -0.12500
O 	O 	0.02523 0.07034 0.68318 -0.33800
O 	O 	0.01422 0.98578 0.61082 -0.36600
O 	O 	0.15366 0.98811 0.65371 -0.14200
O 	O 	0.10603 0.12141 0.61183 -0.37400
O 	O 	0.91977 0.26073 0.81973 -0.32200
O 	O 	0.99088 0.16794 0.75937 -0.37100
O 	O 	0.83464 0.24205 0.72561 -0.48900
P 	P 	0.50000 0.75000 0.96119 0.51900
O 	O 	0.50000 0.75000 0.07545 -0.41900
P 	P 	0.00000 0.25000 0.46119 0.51100
O 	O 	0.00000 0.25000 0.57545 -0.42300
P 	P 	0.00000 0.75000 0.21119 0.50800
O 	O 	0.00000 0.75000 0.32545 -0.42400
P 	P 	0.50000 0.25000 0.71119 0.51900
O 	O 	0.50000 0.25000 0.82545 -0.41900
P 	P 	0.50000 0.25000 0.03881 0.51900
O 	O 	0.50000 0.25000 0.92455 -0.41900
P 	P 	0.00000 0.75000 0.53881 0.50800
O 	O 	0.00000 0.75000 0.42455 -0.42400
P 	P 	0.00000 0.25000 0.78881 0.51100
O 	O 	0.00000 0.25000 0.67455 -0.42300
P 	P 	0.50000 0.75000 0.28881 0.51900
O 	O 	0.50000 0.75000 0.17455 -0.41900
