data_crystal

_cell_length_a 12.38290
_cell_length_b 8.59700
_cell_length_c 12.66330
_cell_angle_alpha 90.00000
_cell_angle_beta  109.98400
_cell_angle_gamma 90.00000

_symmetry_space_group_name_	'P 1'
_symmetry_space_group_name_H-M	'P 1'

loop_
_symmetry_equiv_pos_as_xyz
  x,y,z

loop_
_atom_site_label
_atom_site_type_symbol
_atom_site_fract_x
_atom_site_fract_y
_atom_site_fract_z
_atom_site_charge
Cu	Cu	0.14800 0.20491 0.25965 0.79000
Cu	Cu	0.40627 0.29567 0.66208 0.82000
C 	C 	0.28240 0.23230 0.39960 -0.31500
N 	N 	0.33530 0.25230 0.49290 -0.18900
C 	C 	0.07190 0.00200 0.23550 -0.25900
C 	C 	0.52270 0.11430 0.71660 -0.18300
C 	C 	0.49990 0.49140 0.68840 -0.21000
C 	C 	0.05290 0.39640 0.21410 -0.22200
C 	C 	0.28530 0.29160 0.72980 -0.22700
Cu	Cu	0.35200 0.20491 0.24035 0.78900
Cu	Cu	0.09373 0.29567 0.83792 0.81700
C 	C 	0.21760 0.23230 0.10040 -0.31600
N 	N 	0.16470 0.25230 0.00710 -0.18900
C 	C 	0.42810 0.00200 0.26450 -0.25600
C 	C 	0.97730 0.11430 0.78340 -0.17800
C 	C 	0.00010 0.49140 0.81160 -0.21500
C 	C 	0.44710 0.39640 0.28590 -0.22700
C 	C 	0.21470 0.29160 0.77020 -0.22800
Cu	Cu	0.85200 0.79509 0.74035 0.78900
Cu	Cu	0.59373 0.70433 0.33792 0.81900
C 	C 	0.71760 0.76770 0.60040 -0.31600
N 	N 	0.66470 0.74770 0.50710 -0.19000
C 	C 	0.92810 0.99800 0.76450 -0.25900
C 	C 	0.47730 0.88570 0.28340 -0.18300
C 	C 	0.50010 0.50860 0.31160 -0.21000
C 	C 	0.94710 0.60360 0.78590 -0.22200
C 	C 	0.71470 0.70840 0.27020 -0.22700
Cu	Cu	0.64800 0.79509 0.75965 0.78900
Cu	Cu	0.90627 0.70433 0.16208 0.81700
C 	C 	0.78240 0.76770 0.89960 -0.31600
N 	N 	0.83530 0.74770 0.99290 -0.18900
C 	C 	0.57190 0.99800 0.73550 -0.25600
C 	C 	0.02270 0.88570 0.21660 -0.17800
C 	C 	0.99990 0.50860 0.18840 -0.21500
C 	C 	0.55290 0.60360 0.71410 -0.22700
C 	C 	0.78530 0.70840 0.22980 -0.22800
