data_crystal

_cell_length_a 9.04200
_cell_length_b 9.04200
_cell_length_c 12.02700
_cell_angle_alpha 90.00000
_cell_angle_beta  90.00000
_cell_angle_gamma 90.00000

_symmetry_space_group_name_	'P 1'
_symmetry_space_group_name_H-M	'P 1'

loop_
_symmetry_equiv_pos_as_xyz
  x,y,z

loop_
_atom_site_label
_atom_site_type_symbol
_atom_site_fract_x
_atom_site_fract_y
_atom_site_fract_z
_atom_site_charge
Cd	Cd	0.69022 0.69022 -0.00000 1.09900
Cd	Cd	0.30978 0.30978 0.50000 1.13900
Cd	Cd	0.80978 0.19022 0.75000 1.14200
Cd	Cd	0.19022 0.80978 0.25000 1.13100
C 	C 	0.73300 0.88760 0.89390 -0.22700
C 	C 	0.26700 0.11240 0.39390 -0.31600
C 	C 	0.61240 0.23300 0.64390 -0.30000
C 	C 	0.38760 0.76700 0.14390 -0.34000
C 	C 	0.76700 0.38760 0.85610 -0.27800
C 	C 	0.23300 0.61240 0.35610 -0.31600
C 	C 	0.88760 0.73300 0.10610 -0.36400
C 	C 	0.11240 0.26700 0.60610 -0.29800
N 	N 	0.48930 0.73940 0.09410 -0.28300
N 	N 	0.51070 0.26060 0.59410 -0.25900
N 	N 	0.76060 0.98930 0.84410 -0.25800
N 	N 	0.23940 0.01070 0.34410 -0.26500
N 	N 	0.01070 0.23940 0.65590 -0.25400
N 	N 	0.98930 0.76060 0.15590 -0.26500
N 	N 	0.73940 0.48930 0.90590 -0.22600
N 	N 	0.26060 0.51070 0.40590 -0.26200
