data_crystal

_cell_length_a 12.78160
_cell_length_b 12.78160
_cell_length_c 13.06200
_cell_angle_alpha 90.00000
_cell_angle_beta  90.00000
_cell_angle_gamma 90.00000

_symmetry_space_group_name_	'P 1'
_symmetry_space_group_name_H-M	'P 1'

loop_
_symmetry_equiv_pos_as_xyz
  x,y,z

loop_
_atom_site_label
_atom_site_type_symbol
_atom_site_fract_x
_atom_site_fract_y
_atom_site_fract_z
_atom_site_charge
N 	N 	0.10190 0.58510 0.12040 -0.24000
C 	C 	0.15740 0.63550 0.07160 -0.19000
C 	C 	0.22910 0.40050 0.25250 -0.01000
C 	C 	0.30770 0.32520 0.25170 -0.04100
N 	N 	0.60190 0.08510 0.62040 -0.24100
C 	C 	0.65740 0.13550 0.57160 -0.17400
C 	C 	0.72910 0.90050 0.75250 0.05900
C 	C 	0.80770 0.82520 0.75170 0.00500
N 	N 	0.39810 0.91490 0.62040 -0.17400
C 	C 	0.34260 0.86450 0.57160 -0.12300
C 	C 	0.27090 0.09950 0.75250 -0.05500
C 	C 	0.19230 0.17480 0.75170 -0.06300
N 	N 	0.89810 0.41490 0.12040 -0.17600
C 	C 	0.84260 0.36450 0.07160 -0.13800
C 	C 	0.77090 0.59950 0.25250 0.00600
C 	C 	0.69230 0.67480 0.25170 -0.04200
N 	N 	0.08510 0.60190 0.37960 -0.24100
C 	C 	0.13550 0.65740 0.42840 -0.17100
C 	C 	0.90050 0.72910 0.24750 0.05900
C 	C 	0.82520 0.80770 0.24830 -0.00500
N 	N 	0.58510 0.10190 0.87960 -0.24200
C 	C 	0.63550 0.15740 0.92840 -0.13200
C 	C 	0.40050 0.22910 0.74750 -0.00300
C 	C 	0.32520 0.30770 0.74830 -0.02600
N 	N 	0.41490 0.89810 0.87960 -0.18100
C 	C 	0.36450 0.84260 0.92840 -0.08300
C 	C 	0.59950 0.77090 0.74750 0.01300
C 	C 	0.67480 0.69230 0.74830 -0.02900
N 	N 	0.91490 0.39810 0.37960 -0.17300
C 	C 	0.86450 0.34260 0.42840 -0.12100
C 	C 	0.09950 0.27090 0.24750 -0.05800
C 	C 	0.17480 0.19230 0.24830 -0.07600
Cd	Cd	-0.00000 0.50000 0.25000 1.13400
Cd	Cd	0.50000 0.00000 0.75000 1.13600
N 	N 	0.12670 0.37330 0.25000 -0.23800
C 	C 	0.27960 0.22040 0.25000 -0.03800
N 	N 	0.37330 0.12670 0.75000 -0.23800
C 	C 	0.22040 0.27960 0.75000 -0.01500
N 	N 	0.87330 0.62670 0.25000 -0.21100
C 	C 	0.72040 0.77960 0.25000 -0.00100
N 	N 	0.62670 0.87330 0.75000 -0.21100
C 	C 	0.77960 0.72040 0.75000 0.02000
Ag	Ag	0.25855 0.74145 -0.00000 0.41700
Ag	Ag	0.75855 0.24145 0.50000 0.44900
Ag	Ag	0.24145 0.75855 0.50000 0.44900
Ag	Ag	0.74145 0.25855 -0.00000 0.41800
N 	N 	0.41490 0.60190 0.37040 -0.21300
C 	C 	0.36450 0.65740 0.32160 -0.14600
C 	C 	0.59950 0.72910 0.50250 0.00200
C 	C 	0.67480 0.80770 0.50170 -0.01100
N 	N 	0.91490 0.10190 0.87040 -0.18400
C 	C 	0.86450 0.15740 0.82160 -0.12500
C 	C 	0.09950 0.22910 0.00250 -0.08600
C 	C 	0.17480 0.30770 0.00170 -0.03900
N 	N 	0.08510 0.89810 0.87040 -0.18600
C 	C 	0.13550 0.84260 0.82160 -0.13800
C 	C 	0.90050 0.77090 0.00250 0.03900
C 	C 	0.82520 0.69230 0.00170 -0.02600
N 	N 	0.58510 0.39810 0.37040 -0.21200
C 	C 	0.63550 0.34260 0.32160 -0.16000
C 	C 	0.40050 0.27090 0.50250 -0.00500
C 	C 	0.32520 0.19230 0.50170 -0.06600
N 	N 	0.39810 0.58510 0.62960 -0.21200
C 	C 	0.34260 0.63550 0.67840 -0.14400
C 	C 	0.27090 0.40050 0.49750 -0.00300
C 	C 	0.19230 0.32520 0.49830 -0.06300
N 	N 	0.89810 0.08510 0.12960 -0.21000
C 	C 	0.84260 0.13550 0.17840 -0.16400
C 	C 	0.77090 0.90050 0.99750 0.10400
C 	C 	0.69230 0.82520 0.99830 0.03900
N 	N 	0.10190 0.91490 0.12960 -0.20800
C 	C 	0.15740 0.86450 0.17840 -0.15000
C 	C 	0.22910 0.09950 0.99750 -0.00800
C 	C 	0.30770 0.17480 0.99830 0.03100
N 	N 	0.60190 0.41490 0.62960 -0.21200
C 	C 	0.65740 0.36450 0.67840 -0.13100
C 	C 	0.72910 0.59950 0.49750 0.00400
C 	C 	0.80770 0.67480 0.49830 -0.00800
Cd	Cd	0.50000 0.50000 0.50000 1.17900
Cd	Cd	-0.00000 0.00000 -0.00000 1.07500
N 	N 	0.62670 0.62670 0.50000 -0.22900
C 	C 	0.77960 0.77960 0.50000 0.02200
N 	N 	0.87330 0.87330 -0.00000 -0.22600
C 	C 	0.72040 0.72040 -0.00000 -0.08600
N 	N 	0.37330 0.37330 0.50000 -0.22900
C 	C 	0.22040 0.22040 0.50000 -0.04200
N 	N 	0.12670 0.12670 -0.00000 -0.28300
C 	C 	0.27960 0.27960 -0.00000 -0.09900
Ag	Ag	0.25855 0.75855 0.25000 0.45000
Ag	Ag	0.75855 0.25855 0.75000 0.46200
Ag	Ag	0.24145 0.74145 0.75000 0.45200
Ag	Ag	0.74145 0.24145 0.25000 0.44000
