data_crystal

_cell_length_a 12.53500
_cell_length_b 29.51700
_cell_length_c 14.70400
_cell_angle_alpha 90.00000
_cell_angle_beta  93.95000
_cell_angle_gamma 90.00000

_symmetry_space_group_name_	'P 1'
_symmetry_space_group_name_H-M	'P 1'

loop_
_symmetry_equiv_pos_as_xyz
  x,y,z

loop_
_atom_site_label
_atom_site_type_symbol
_atom_site_fract_x
_atom_site_fract_y
_atom_site_fract_z
_atom_site_charge
Ag	Ag	0.45200 0.77237 0.62330 0.52900
Ag	Ag	0.95800 0.75394 0.68280 0.53600
Ag	Ag	0.73540 0.90557 0.43230 0.51100
Ag	Ag	0.70900 0.60371 0.45040 0.51900
Ag	Ag	0.26140 0.91356 0.26634 0.49900
Ag	Ag	0.21000 0.92768 0.82445 0.53300
N 	N 	0.45570 0.82860 0.51230 -0.20100
C 	C 	0.54530 0.85280 0.51260 0.10000
H 	H 	0.59350 0.85070 0.56330 -0.03700
N 	N 	0.56960 0.87940 0.44610 -0.21700
C 	C 	0.49670 0.88570 0.37820 0.09300
H 	H 	0.51320 0.90490 0.33100 -0.04700
N 	N 	0.40170 0.86640 0.37360 -0.19000
C 	C 	0.39010 0.83630 0.43760 0.09600
H 	H 	0.32950 0.81810 0.43050 -0.01900
N 	N 	0.31060 0.72980 0.66310 -0.20800
C 	C 	0.21150 0.74600 0.65850 0.10700
H 	H 	0.20050 0.77550 0.63740 -0.03200
N 	N 	0.12870 0.72320 0.68160 -0.20100
C 	C 	0.14620 0.68050 0.70860 0.09900
H 	H 	0.08720 0.66380 0.72410 -0.03100
N 	N 	0.24030 0.84010 0.21520 -0.20100
C 	C 	0.32090 0.68780 0.69180 0.09700
H 	H 	0.38970 0.67590 0.69660 -0.02800
N 	N 	0.60650 0.72940 0.60360 -0.20300
C 	C 	0.61010 0.69290 0.55650 0.10200
H 	H 	0.54560 0.68210 0.52990 -0.03000
N 	N 	0.69910 0.66860 0.54200 -0.20100
C 	C 	0.79010 0.68840 0.57670 0.09400
H 	H 	0.85430 0.67460 0.56470 -0.02600
N 	N 	0.79610 0.72550 0.62580 -0.20000
C 	C 	0.70230 0.74620 0.63530 0.08800
H 	H 	0.70330 0.77380 0.66570 -0.02900
N 	N 	0.96390 0.81690 0.77820 -0.19800
C 	C 	0.89560 0.82550 0.84400 0.09500
H 	H 	0.84120 0.80450 0.85050 -0.02000
N 	N 	0.89900 0.85990 0.89850 -0.18500
C 	C 	0.97960 0.88700 0.88790 0.09500
H 	H 	0.98520 0.91200 0.92660 -0.02100
N 	N 	0.05540 0.88320 0.82810 -0.20100
C 	C 	0.04070 0.84920 0.77340 0.09800
H 	H 	0.08670 0.84660 0.72660 -0.03000
N 	N 	0.87810 0.85170 0.44200 -0.19700
C 	C 	0.90800 0.82960 0.51670 0.10500
H 	H 	0.88520 0.84090 0.57120 -0.03400
N 	N 	0.96720 0.79300 0.52120 -0.18100
C 	C 	0.99900 0.77770 0.43750 0.09700
H 	H 	0.04500 0.75300 0.43780 -0.00900
N 	N 	0.96930 0.79520 0.36090 -0.16900
C 	C 	0.91110 0.83420 0.36290 0.07600
H 	H 	0.89340 0.84930 0.30840 -0.02100
N 	N 	0.74750 0.52770 0.44560 -0.20400
C 	C 	0.75870 0.50570 0.52510 0.08600
H 	H 	0.76090 0.52240 0.57870 -0.03700
N 	N 	0.23280 0.96030 0.96940 -0.19900
C 	C 	0.23310 0.93870 0.04910 0.10000
H 	H 	0.22240 0.90760 0.04740 -0.02900
N 	N 	0.24690 0.95760 0.12950 -0.20600
C 	C 	0.74260 0.50230 0.37010 0.09500
H 	H 	0.73120 0.51680 0.31420 -0.03900
N 	N 	0.13740 0.97850 0.72000 -0.20700
C 	C 	0.19540 0.00930 0.67980 0.10100
H 	H 	0.26790 0.01000 0.69770 -0.04400
N 	N 	0.83860 0.96140 0.38240 -0.22000
C 	C 	0.93700 0.96520 0.40850 0.11100
H 	H 	0.96260 0.94580 0.45490 -0.02200
N 	N 	0.00730 0.99390 0.37640 -0.16500
C 	C 	0.03660 0.97900 0.68720 0.09600
H 	H 	0.99150 0.95780 0.71160 -0.01800
N 	N 	0.37550 0.89810 0.80030 -0.20700
C 	C 	0.38540 0.86450 0.73870 0.09400
H 	H 	0.32970 0.86060 0.69420 -0.03000
N 	N 	0.46700 0.83720 0.73720 -0.19500
C 	C 	0.54430 0.84550 0.79900 0.10900
H 	H 	0.60330 0.82630 0.80060 -0.03200
N 	N 	0.54640 0.62180 0.35860 -0.20300
C 	C 	0.45820 0.90370 0.85730 0.10000
H 	H 	0.45600 0.92690 0.89990 -0.03400
Ag	Ag	0.54800 0.27237 0.87670 0.52800
Ag	Ag	0.04200 0.25394 0.81720 0.53600
Ag	Ag	0.26460 0.40557 0.06770 0.51000
Ag	Ag	0.29100 0.10371 0.04960 0.51800
Ag	Ag	0.73860 0.41356 0.23366 0.49900
Ag	Ag	0.79000 0.42768 0.67555 0.53200
N 	N 	0.54430 0.32860 0.98770 -0.20100
C 	C 	0.45470 0.35280 0.98740 0.10100
H 	H 	0.40650 0.35070 0.93670 -0.03700
N 	N 	0.43040 0.37940 0.05390 -0.21700
C 	C 	0.50330 0.38570 0.12180 0.09300
H 	H 	0.48680 0.40490 0.16900 -0.04700
N 	N 	0.59830 0.36640 0.12640 -0.19000
C 	C 	0.60990 0.33630 0.06240 0.09600
H 	H 	0.67050 0.31810 0.06950 -0.01900
N 	N 	0.68940 0.22980 0.83690 -0.20800
C 	C 	0.78850 0.24600 0.84150 0.10700
H 	H 	0.79950 0.27550 0.86260 -0.03200
N 	N 	0.87130 0.22320 0.81840 -0.20100
C 	C 	0.85380 0.18050 0.79140 0.09900
H 	H 	0.91280 0.16380 0.77590 -0.03100
N 	N 	0.75970 0.34010 0.28480 -0.20100
C 	C 	0.67910 0.18780 0.80820 0.09700
H 	H 	0.61030 0.17590 0.80340 -0.02800
N 	N 	0.39350 0.22940 0.89640 -0.20300
C 	C 	0.38990 0.19290 0.94350 0.10200
H 	H 	0.45440 0.18210 0.97010 -0.03000
N 	N 	0.30090 0.16860 0.95800 -0.20000
C 	C 	0.20990 0.18840 0.92330 0.09400
H 	H 	0.14570 0.17460 0.93530 -0.02600
N 	N 	0.20390 0.22550 0.87420 -0.20000
C 	C 	0.29770 0.24620 0.86470 0.08800
H 	H 	0.29670 0.27380 0.83430 -0.02900
N 	N 	0.03610 0.31690 0.72180 -0.19700
C 	C 	0.10440 0.32550 0.65600 0.09500
H 	H 	0.15880 0.30450 0.64950 -0.02000
N 	N 	0.10100 0.35990 0.60150 -0.18500
C 	C 	0.02040 0.38700 0.61210 0.09600
H 	H 	0.01480 0.41200 0.57340 -0.02100
N 	N 	0.94460 0.38320 0.67190 -0.20100
C 	C 	0.95930 0.34920 0.72660 0.09700
H 	H 	0.91330 0.34660 0.77340 -0.03000
N 	N 	0.12190 0.35170 0.05800 -0.19700
C 	C 	0.09200 0.32960 0.98330 0.10500
H 	H 	0.11480 0.34090 0.92880 -0.03400
N 	N 	0.03280 0.29300 0.97880 -0.18100
C 	C 	0.00100 0.27770 0.06250 0.09500
H 	H 	0.95500 0.25300 0.06220 -0.00800
N 	N 	0.03070 0.29520 0.13910 -0.16900
C 	C 	0.08890 0.33420 0.13710 0.07600
H 	H 	0.10660 0.34930 0.19160 -0.02100
N 	N 	0.25250 0.02770 0.05440 -0.20500
C 	C 	0.24130 0.00570 0.97490 0.08600
H 	H 	0.23910 0.02240 0.92130 -0.03700
N 	N 	0.76720 0.46030 0.53060 -0.19900
C 	C 	0.76690 0.43870 0.45090 0.10000
H 	H 	0.77760 0.40760 0.45260 -0.02900
N 	N 	0.75310 0.45760 0.37050 -0.20600
C 	C 	0.25740 0.00230 0.12990 0.09400
H 	H 	0.26880 0.01680 0.18580 -0.03900
N 	N 	0.86260 0.47850 0.78000 -0.20600
C 	C 	0.80460 0.50930 0.82020 0.10100
H 	H 	0.73210 0.51000 0.80230 -0.04400
N 	N 	0.16140 0.46140 0.11760 -0.22000
C 	C 	0.06300 0.46520 0.09150 0.11000
H 	H 	0.03740 0.44580 0.04510 -0.02200
N 	N 	0.99270 0.49390 0.12360 -0.16500
C 	C 	0.96340 0.47900 0.81280 0.09400
H 	H 	0.00850 0.45780 0.78840 -0.01600
N 	N 	0.62450 0.39810 0.69970 -0.20700
C 	C 	0.61460 0.36450 0.76130 0.09400
H 	H 	0.67030 0.36060 0.80580 -0.03000
N 	N 	0.53300 0.33720 0.76280 -0.19500
C 	C 	0.45570 0.34550 0.70100 0.10900
H 	H 	0.39670 0.32630 0.69940 -0.03200
N 	N 	0.45360 0.12180 0.14140 -0.20300
C 	C 	0.54180 0.40370 0.64270 0.10000
H 	H 	0.54400 0.42690 0.60010 -0.03400
Ag	Ag	0.54800 0.22763 0.37670 0.52800
Ag	Ag	0.04200 0.24606 0.31720 0.53500
Ag	Ag	0.26460 0.09443 0.56770 0.51000
Ag	Ag	0.29100 0.39629 0.54960 0.51800
Ag	Ag	0.73860 0.08644 0.73366 0.49900
Ag	Ag	0.79000 0.07232 0.17555 0.53300
N 	N 	0.54430 0.17140 0.48770 -0.20100
C 	C 	0.45470 0.14720 0.48740 0.10000
H 	H 	0.40650 0.14930 0.43670 -0.03700
N 	N 	0.43040 0.12060 0.55390 -0.21700
C 	C 	0.50330 0.11430 0.62180 0.09300
H 	H 	0.48680 0.09510 0.66900 -0.04700
N 	N 	0.59830 0.13360 0.62640 -0.19000
C 	C 	0.60990 0.16370 0.56240 0.09600
H 	H 	0.67050 0.18190 0.56950 -0.01900
N 	N 	0.68940 0.27020 0.33690 -0.20800
C 	C 	0.78850 0.25400 0.34150 0.10700
H 	H 	0.79950 0.22450 0.36260 -0.03200
N 	N 	0.87130 0.27680 0.31840 -0.20100
C 	C 	0.85380 0.31950 0.29140 0.09900
H 	H 	0.91280 0.33620 0.27590 -0.03100
N 	N 	0.75970 0.15990 0.78480 -0.20100
C 	C 	0.67910 0.31220 0.30820 0.09700
H 	H 	0.61030 0.32410 0.30340 -0.02800
N 	N 	0.39350 0.27060 0.39640 -0.20300
C 	C 	0.38990 0.30710 0.44350 0.10200
H 	H 	0.45440 0.31790 0.47010 -0.03000
N 	N 	0.30090 0.33140 0.45800 -0.20100
C 	C 	0.20990 0.31160 0.42330 0.09400
H 	H 	0.14570 0.32540 0.43530 -0.02600
N 	N 	0.20390 0.27450 0.37420 -0.20000
C 	C 	0.29770 0.25380 0.36470 0.08800
H 	H 	0.29670 0.22620 0.33430 -0.02900
N 	N 	0.03610 0.18310 0.22180 -0.19800
C 	C 	0.10440 0.17450 0.15600 0.09500
H 	H 	0.15880 0.19550 0.14950 -0.02000
N 	N 	0.10100 0.14010 0.10150 -0.18500
C 	C 	0.02040 0.11300 0.11210 0.09500
H 	H 	0.01480 0.08800 0.07340 -0.02100
N 	N 	0.94460 0.11680 0.17190 -0.20100
C 	C 	0.95930 0.15080 0.22660 0.09800
H 	H 	0.91330 0.15340 0.27340 -0.03000
N 	N 	0.12190 0.14830 0.55800 -0.19700
C 	C 	0.09200 0.17040 0.48330 0.10500
H 	H 	0.11480 0.15910 0.42880 -0.03400
N 	N 	0.03280 0.20700 0.47880 -0.18100
C 	C 	0.00100 0.22230 0.56250 0.09700
H 	H 	0.95500 0.24700 0.56220 -0.00900
N 	N 	0.03070 0.20480 0.63910 -0.16900
C 	C 	0.08890 0.16580 0.63710 0.07600
H 	H 	0.10660 0.15070 0.69160 -0.02100
N 	N 	0.25250 0.47230 0.55440 -0.20400
C 	C 	0.24130 0.49430 0.47490 0.08600
H 	H 	0.23910 0.47760 0.42130 -0.03700
N 	N 	0.76720 0.03970 0.03060 -0.19900
C 	C 	0.76690 0.06130 0.95090 0.10000
H 	H 	0.77760 0.09240 0.95260 -0.02900
N 	N 	0.75310 0.04240 0.87050 -0.20600
C 	C 	0.25740 0.49770 0.62990 0.09500
H 	H 	0.26880 0.48320 0.68580 -0.03900
N 	N 	0.86260 0.02150 0.28000 -0.20700
C 	C 	0.80460 0.99070 0.32020 0.10100
H 	H 	0.73210 0.99000 0.30230 -0.04400
N 	N 	0.16140 0.03860 0.61760 -0.22000
C 	C 	0.06300 0.03480 0.59150 0.11100
H 	H 	0.03740 0.05420 0.54510 -0.02200
N 	N 	0.99270 0.00610 0.62360 -0.16500
C 	C 	0.96340 0.02100 0.31280 0.09600
H 	H 	0.00850 0.04220 0.28840 -0.01800
N 	N 	0.62450 0.10190 0.19970 -0.20700
C 	C 	0.61460 0.13550 0.26130 0.09400
H 	H 	0.67030 0.13940 0.30580 -0.03000
N 	N 	0.53300 0.16280 0.26280 -0.19500
C 	C 	0.45570 0.15450 0.20100 0.10900
H 	H 	0.39670 0.17370 0.19940 -0.03200
N 	N 	0.45360 0.37820 0.64140 -0.20300
C 	C 	0.54180 0.09630 0.14270 0.10000
H 	H 	0.54400 0.07310 0.10010 -0.03400
Ag	Ag	0.45200 0.72763 0.12330 0.52800
Ag	Ag	0.95800 0.74606 0.18280 0.53600
Ag	Ag	0.73540 0.59443 0.93230 0.51000
Ag	Ag	0.70900 0.89629 0.95040 0.51800
Ag	Ag	0.26140 0.58644 0.76634 0.49900
Ag	Ag	0.21000 0.57232 0.32445 0.53200
N 	N 	0.45570 0.67140 0.01230 -0.20100
C 	C 	0.54530 0.64720 0.01260 0.10100
H 	H 	0.59350 0.64930 0.06330 -0.03700
N 	N 	0.56960 0.62060 0.94610 -0.21700
C 	C 	0.49670 0.61430 0.87820 0.09300
H 	H 	0.51320 0.59510 0.83100 -0.04700
N 	N 	0.40170 0.63360 0.87360 -0.19000
C 	C 	0.39010 0.66370 0.93760 0.09600
H 	H 	0.32950 0.68190 0.93050 -0.01900
N 	N 	0.31060 0.77020 0.16310 -0.20800
C 	C 	0.21150 0.75400 0.15850 0.10700
H 	H 	0.20050 0.72450 0.13740 -0.03200
N 	N 	0.12870 0.77680 0.18160 -0.20100
C 	C 	0.14620 0.81950 0.20860 0.09900
H 	H 	0.08720 0.83620 0.22410 -0.03100
N 	N 	0.24030 0.65990 0.71520 -0.20100
C 	C 	0.32090 0.81220 0.19180 0.09700
H 	H 	0.38970 0.82410 0.19660 -0.02800
N 	N 	0.60650 0.77060 0.10360 -0.20300
C 	C 	0.61010 0.80710 0.05650 0.10200
H 	H 	0.54560 0.81790 0.02990 -0.03000
N 	N 	0.69910 0.83140 0.04200 -0.20000
C 	C 	0.79010 0.81160 0.07670 0.09400
H 	H 	0.85430 0.82540 0.06470 -0.02600
N 	N 	0.79610 0.77450 0.12580 -0.20000
C 	C 	0.70230 0.75380 0.13530 0.08800
H 	H 	0.70330 0.72620 0.16570 -0.02900
N 	N 	0.96390 0.68310 0.27820 -0.19700
C 	C 	0.89560 0.67450 0.34400 0.09500
H 	H 	0.84120 0.69550 0.35050 -0.02000
N 	N 	0.89900 0.64010 0.39850 -0.18500
C 	C 	0.97960 0.61300 0.38790 0.09600
H 	H 	0.98520 0.58800 0.42660 -0.02100
N 	N 	0.05540 0.61680 0.32810 -0.20100
C 	C 	0.04070 0.65080 0.27340 0.09700
H 	H 	0.08670 0.65340 0.22660 -0.03000
N 	N 	0.87810 0.64830 0.94200 -0.19700
C 	C 	0.90800 0.67040 0.01670 0.10500
H 	H 	0.88520 0.65910 0.07120 -0.03400
N 	N 	0.96720 0.70700 0.02120 -0.18100
C 	C 	0.99900 0.72230 0.93750 0.09500
H 	H 	0.04500 0.74700 0.93780 -0.00800
N 	N 	0.96930 0.70480 0.86090 -0.16900
C 	C 	0.91110 0.66580 0.86290 0.07600
H 	H 	0.89340 0.65070 0.80840 -0.02100
N 	N 	0.74750 0.97230 0.94560 -0.20500
C 	C 	0.75870 0.99430 0.02510 0.08600
H 	H 	0.76090 0.97760 0.07870 -0.03700
N 	N 	0.23280 0.53970 0.46940 -0.19900
C 	C 	0.23310 0.56130 0.54910 0.10000
H 	H 	0.22240 0.59240 0.54740 -0.02900
N 	N 	0.24690 0.54240 0.62950 -0.20600
C 	C 	0.74260 0.99770 0.87010 0.09400
H 	H 	0.73120 0.98320 0.81420 -0.03900
N 	N 	0.13740 0.52150 0.22000 -0.20600
C 	C 	0.19540 0.49070 0.17980 0.10100
H 	H 	0.26790 0.49000 0.19770 -0.04400
N 	N 	0.83860 0.53860 0.88240 -0.22000
C 	C 	0.93700 0.53480 0.90850 0.11000
H 	H 	0.96260 0.55420 0.95490 -0.02200
N 	N 	0.00730 0.50610 0.87640 -0.16500
C 	C 	0.03660 0.52100 0.18720 0.09400
H 	H 	0.99150 0.54220 0.21160 -0.01600
N 	N 	0.37550 0.60190 0.30030 -0.20700
C 	C 	0.38540 0.63550 0.23870 0.09400
H 	H 	0.32970 0.63940 0.19420 -0.03000
N 	N 	0.46700 0.66280 0.23720 -0.19500
C 	C 	0.54430 0.65450 0.29900 0.10900
H 	H 	0.60330 0.67370 0.30060 -0.03200
N 	N 	0.54640 0.87820 0.85860 -0.20300
C 	C 	0.45820 0.59630 0.35730 0.10000
H 	H 	0.45600 0.57310 0.39990 -0.03400
