data_crystal

_cell_length_a 12.79560
_cell_length_b 12.79560
_cell_length_c 12.79560
_cell_angle_alpha 90.00000
_cell_angle_beta  90.00000
_cell_angle_gamma 90.00000

_symmetry_space_group_name_	'P 1'
_symmetry_space_group_name_H-M	'P 1'

loop_
_symmetry_equiv_pos_as_xyz
  x,y,z

loop_
_atom_site_label
_atom_site_type_symbol
_atom_site_fract_x
_atom_site_fract_y
_atom_site_fract_z
_atom_site_charge
N 	N 	0.64284 0.93734 0.95494 -0.08100
N 	N 	0.72578 0.97966 0.96379 0.09000
N 	N 	0.80774 0.01789 0.97022 -0.11800
N 	N 	0.85716 0.06266 0.45494 -0.13700
N 	N 	0.77422 0.02034 0.46379 -0.11200
N 	N 	0.69226 0.98211 0.47022 0.01700
N 	N 	0.35716 0.43734 0.54506 -0.17400
N 	N 	0.27422 0.47966 0.53621 -0.02800
N 	N 	0.19226 0.51789 0.52978 -0.11600
N 	N 	0.14284 0.56266 0.04506 -0.22800
N 	N 	0.22578 0.52034 0.03621 -0.04900
N 	N 	0.30774 0.48211 0.02978 -0.14000
N 	N 	0.95494 0.64284 0.93734 -0.08100
N 	N 	0.96379 0.72578 0.97966 0.09000
N 	N 	0.97022 0.80774 0.01789 -0.11800
N 	N 	0.45494 0.85716 0.06266 -0.13700
N 	N 	0.46379 0.77422 0.02034 -0.11200
N 	N 	0.47022 0.69226 0.98211 0.01700
N 	N 	0.54506 0.35716 0.43734 -0.17400
N 	N 	0.53621 0.27422 0.47966 -0.02800
N 	N 	0.52978 0.19226 0.51789 -0.11600
N 	N 	0.04506 0.14284 0.56266 -0.22800
N 	N 	0.03621 0.22578 0.52034 -0.04900
N 	N 	0.02978 0.30774 0.48211 -0.14000
N 	N 	0.93734 0.95494 0.64284 -0.08100
N 	N 	0.97966 0.96379 0.72578 0.09000
N 	N 	0.01789 0.97022 0.80774 -0.11800
N 	N 	0.06266 0.45494 0.85716 -0.13700
N 	N 	0.02034 0.46379 0.77422 -0.11200
N 	N 	0.98211 0.47022 0.69226 0.01700
N 	N 	0.43734 0.54506 0.35716 -0.17400
N 	N 	0.47966 0.53621 0.27422 -0.02800
N 	N 	0.51789 0.52978 0.19226 -0.11600
N 	N 	0.56266 0.04506 0.14284 -0.22800
N 	N 	0.52034 0.03621 0.22578 -0.04900
N 	N 	0.48211 0.02978 0.30774 -0.14000
N 	N 	0.35716 0.06266 0.04506 -0.22200
N 	N 	0.27422 0.02034 0.03621 -0.14400
N 	N 	0.19226 0.98211 0.02978 -0.04800
N 	N 	0.14284 0.93734 0.54506 -0.16100
N 	N 	0.22578 0.97966 0.53621 0.06800
N 	N 	0.30774 0.01789 0.52978 -0.20000
N 	N 	0.64284 0.56266 0.45494 -0.16300
N 	N 	0.72578 0.52034 0.46379 -0.02100
N 	N 	0.80774 0.48211 0.47022 -0.06700
N 	N 	0.85716 0.43734 0.95494 -0.07400
N 	N 	0.77422 0.47966 0.96379 0.00200
N 	N 	0.69226 0.51789 0.97022 -0.04200
N 	N 	0.04506 0.35716 0.06266 -0.22200
N 	N 	0.03621 0.27422 0.02034 -0.14400
N 	N 	0.02978 0.19226 0.98211 -0.04800
N 	N 	0.54506 0.14284 0.93734 -0.16100
N 	N 	0.53621 0.22578 0.97966 0.06800
N 	N 	0.52978 0.30774 0.01789 -0.20000
N 	N 	0.45494 0.64284 0.56266 -0.16300
N 	N 	0.46379 0.72578 0.52034 -0.02100
N 	N 	0.47022 0.80774 0.48211 -0.06700
N 	N 	0.95494 0.85716 0.43734 -0.07400
N 	N 	0.96379 0.77422 0.47966 0.00200
N 	N 	0.97022 0.69226 0.51789 -0.04200
N 	N 	0.06266 0.04506 0.35716 -0.22200
N 	N 	0.02034 0.03621 0.27422 -0.14400
N 	N 	0.98211 0.02978 0.19226 -0.04800
N 	N 	0.93734 0.54506 0.14284 -0.16100
N 	N 	0.97966 0.53621 0.22578 0.06800
N 	N 	0.01789 0.52978 0.30774 -0.20000
N 	N 	0.56266 0.45494 0.64284 -0.16300
N 	N 	0.52034 0.46379 0.72578 -0.02100
N 	N 	0.48211 0.47022 0.80774 -0.06700
N 	N 	0.43734 0.95494 0.85716 -0.07400
N 	N 	0.47966 0.96379 0.77422 0.00200
N 	N 	0.51789 0.97022 0.69226 -0.04200
Fe	Fe	0.50000 0.00000 -0.00000 1.02000
Fe	Fe	0.00000 0.00000 0.50000 1.02000
Fe	Fe	0.50000 0.50000 0.50000 1.16500
Fe	Fe	-0.00000 0.50000 -0.00000 1.02000
Na	Na	-0.00000 0.00000 -0.00000 0.52400
Na	Na	0.50000 0.00000 0.50000 0.56500
Na	Na	0.00000 0.50000 0.50000 0.56500
Na	Na	0.50000 0.50000 -0.00000 0.56500
