data_crystal

_cell_length_a 13.03380
_cell_length_b 13.03380
_cell_length_c 13.03380
_cell_angle_alpha 90.00000
_cell_angle_beta  90.00000
_cell_angle_gamma 90.00000

_symmetry_space_group_name_	'P 1'
_symmetry_space_group_name_H-M	'P 1'

loop_
_symmetry_equiv_pos_as_xyz
  x,y,z

loop_
_atom_site_label
_atom_site_type_symbol
_atom_site_fract_x
_atom_site_fract_y
_atom_site_fract_z
_atom_site_charge
N 	N 	0.46680 0.14440 0.94120 -0.07600
N 	N 	0.46680 0.64440 0.44120 -0.03300
N 	N 	0.96680 0.14440 0.44120 0.03800
N 	N 	0.96680 0.64440 0.94120 -0.00300
N 	N 	0.53320 0.85560 0.94120 -0.03400
N 	N 	0.53320 0.35560 0.44120 -0.03200
N 	N 	0.03320 0.85560 0.44120 -0.04400
N 	N 	0.03320 0.35560 0.94120 -0.13200
N 	N 	0.53320 0.14440 0.05880 0.00200
N 	N 	0.53320 0.64440 0.55880 -0.03400
N 	N 	0.03320 0.14440 0.55880 -0.09800
N 	N 	0.03320 0.64440 0.05880 -0.04900
N 	N 	0.46680 0.85560 0.05880 -0.02600
N 	N 	0.46680 0.35560 0.55880 -0.03300
N 	N 	0.96680 0.85560 0.55880 -0.02800
N 	N 	0.96680 0.35560 0.05880 0.05000
N 	N 	0.94120 0.46680 0.14440 -0.07600
N 	N 	0.94120 0.96680 0.64440 -0.00300
N 	N 	0.44120 0.46680 0.64440 -0.03300
N 	N 	0.44120 0.96680 0.14440 0.03800
N 	N 	0.94120 0.53320 0.85560 -0.03400
N 	N 	0.94120 0.03320 0.35560 -0.13200
N 	N 	0.44120 0.53320 0.35560 -0.03200
N 	N 	0.44120 0.03320 0.85560 -0.04400
N 	N 	0.05880 0.53320 0.14440 0.00200
N 	N 	0.05880 0.03320 0.64440 -0.04900
N 	N 	0.55880 0.53320 0.64440 -0.03400
N 	N 	0.55880 0.03320 0.14440 -0.09800
N 	N 	0.05880 0.46680 0.85560 -0.02600
N 	N 	0.05880 0.96680 0.35560 0.05000
N 	N 	0.55880 0.46680 0.35560 -0.03300
N 	N 	0.55880 0.96680 0.85560 -0.02800
N 	N 	0.14440 0.94120 0.46680 -0.07600
N 	N 	0.14440 0.44120 0.96680 0.03800
N 	N 	0.64440 0.94120 0.96680 -0.00300
N 	N 	0.64440 0.44120 0.46680 -0.03300
N 	N 	0.85560 0.94120 0.53320 -0.03400
N 	N 	0.85560 0.44120 0.03320 -0.04400
N 	N 	0.35560 0.94120 0.03320 -0.13200
N 	N 	0.35560 0.44120 0.53320 -0.03200
N 	N 	0.14440 0.05880 0.53320 0.00200
N 	N 	0.14440 0.55880 0.03320 -0.09800
N 	N 	0.64440 0.05880 0.03320 -0.04900
N 	N 	0.64440 0.55880 0.53320 -0.03400
N 	N 	0.85560 0.05880 0.46680 -0.02600
N 	N 	0.85560 0.55880 0.96680 -0.02800
N 	N 	0.35560 0.05880 0.96680 0.05000
N 	N 	0.35560 0.55880 0.46680 -0.03300
N 	N 	0.14440 0.46680 0.05880 0.00900
N 	N 	0.14440 0.96680 0.55880 0.03700
N 	N 	0.64440 0.46680 0.55880 -0.03400
N 	N 	0.64440 0.96680 0.05880 -0.00000
N 	N 	0.85560 0.53320 0.05880 -0.03200
N 	N 	0.85560 0.03320 0.55880 -0.04200
N 	N 	0.35560 0.53320 0.55880 -0.03200
N 	N 	0.35560 0.03320 0.05880 -0.07300
N 	N 	0.14440 0.53320 0.94120 -0.07100
N 	N 	0.14440 0.03320 0.44120 -0.10000
N 	N 	0.64440 0.53320 0.44120 -0.03400
N 	N 	0.64440 0.03320 0.94120 -0.08700
N 	N 	0.85560 0.46680 0.94120 -0.03900
N 	N 	0.85560 0.96680 0.44120 -0.02800
N 	N 	0.35560 0.46680 0.44120 -0.03300
N 	N 	0.35560 0.96680 0.94120 0.02700
N 	N 	0.46680 0.94120 0.85560 -0.03900
N 	N 	0.46680 0.44120 0.35560 -0.03300
N 	N 	0.96680 0.94120 0.35560 0.02700
N 	N 	0.96680 0.44120 0.85560 -0.02800
N 	N 	0.53320 0.94120 0.14440 -0.07100
N 	N 	0.53320 0.44120 0.64440 -0.03400
N 	N 	0.03320 0.94120 0.64440 -0.08700
N 	N 	0.03320 0.44120 0.14440 -0.10000
N 	N 	0.53320 0.05880 0.85560 -0.03200
N 	N 	0.53320 0.55880 0.35560 -0.03200
N 	N 	0.03320 0.05880 0.35560 -0.07300
N 	N 	0.03320 0.55880 0.85560 -0.04200
N 	N 	0.46680 0.05880 0.14440 0.00900
N 	N 	0.46680 0.55880 0.64440 -0.03400
N 	N 	0.96680 0.05880 0.64440 -0.00000
N 	N 	0.96680 0.55880 0.14440 0.03700
N 	N 	0.94120 0.14440 0.53320 -0.07100
N 	N 	0.94120 0.64440 0.03320 -0.08700
N 	N 	0.44120 0.14440 0.03320 -0.10000
N 	N 	0.44120 0.64440 0.53320 -0.03400
N 	N 	0.94120 0.85560 0.46680 -0.03900
N 	N 	0.94120 0.35560 0.96680 0.02700
N 	N 	0.44120 0.85560 0.96680 -0.02800
N 	N 	0.44120 0.35560 0.46680 -0.03300
N 	N 	0.05880 0.14440 0.46680 0.00900
N 	N 	0.05880 0.64440 0.96680 -0.00000
N 	N 	0.55880 0.14440 0.96680 0.03700
N 	N 	0.55880 0.64440 0.46680 -0.03400
N 	N 	0.05880 0.85560 0.53320 -0.03200
N 	N 	0.05880 0.35560 0.03320 -0.07300
N 	N 	0.55880 0.85560 0.03320 -0.04200
N 	N 	0.55880 0.35560 0.53320 -0.03200
N 	N 	0.53320 0.85560 0.05880 -0.03200
N 	N 	0.53320 0.35560 0.55880 -0.03200
N 	N 	0.03320 0.85560 0.55880 -0.04200
N 	N 	0.03320 0.35560 0.05880 -0.07300
N 	N 	0.46680 0.14440 0.05880 0.00900
N 	N 	0.46680 0.64440 0.55880 -0.03400
N 	N 	0.96680 0.14440 0.55880 0.03700
N 	N 	0.96680 0.64440 0.05880 -0.00000
N 	N 	0.46680 0.85560 0.94120 -0.03900
N 	N 	0.46680 0.35560 0.44120 -0.03300
N 	N 	0.96680 0.85560 0.44120 -0.02800
N 	N 	0.96680 0.35560 0.94120 0.02700
N 	N 	0.53320 0.14440 0.94120 -0.07100
N 	N 	0.53320 0.64440 0.44120 -0.03400
N 	N 	0.03320 0.14440 0.44120 -0.10000
N 	N 	0.03320 0.64440 0.94120 -0.08700
N 	N 	0.05880 0.53320 0.85560 -0.03200
N 	N 	0.05880 0.03320 0.35560 -0.07300
N 	N 	0.55880 0.53320 0.35560 -0.03200
N 	N 	0.55880 0.03320 0.85560 -0.04200
N 	N 	0.05880 0.46680 0.14440 0.00900
N 	N 	0.05880 0.96680 0.64440 -0.00000
N 	N 	0.55880 0.46680 0.64440 -0.03400
N 	N 	0.55880 0.96680 0.14440 0.03700
N 	N 	0.94120 0.46680 0.85560 -0.03900
N 	N 	0.94120 0.96680 0.35560 0.02700
N 	N 	0.44120 0.46680 0.35560 -0.03300
N 	N 	0.44120 0.96680 0.85560 -0.02800
N 	N 	0.94120 0.53320 0.14440 -0.07100
N 	N 	0.94120 0.03320 0.64440 -0.08700
N 	N 	0.44120 0.53320 0.64440 -0.03400
N 	N 	0.44120 0.03320 0.14440 -0.10000
N 	N 	0.85560 0.05880 0.53320 -0.03200
N 	N 	0.85560 0.55880 0.03320 -0.04200
N 	N 	0.35560 0.05880 0.03320 -0.07300
N 	N 	0.35560 0.55880 0.53320 -0.03200
N 	N 	0.14440 0.05880 0.46680 0.00900
N 	N 	0.14440 0.55880 0.96680 0.03700
N 	N 	0.64440 0.05880 0.96680 -0.00000
N 	N 	0.64440 0.55880 0.46680 -0.03400
N 	N 	0.85560 0.94120 0.46680 -0.03900
N 	N 	0.85560 0.44120 0.96680 -0.02800
N 	N 	0.35560 0.94120 0.96680 0.02700
N 	N 	0.35560 0.44120 0.46680 -0.03300
N 	N 	0.14440 0.94120 0.53320 -0.07100
N 	N 	0.14440 0.44120 0.03320 -0.10000
N 	N 	0.64440 0.94120 0.03320 -0.08700
N 	N 	0.64440 0.44120 0.53320 -0.03400
N 	N 	0.85560 0.53320 0.94120 -0.03400
N 	N 	0.85560 0.03320 0.44120 -0.04400
N 	N 	0.35560 0.53320 0.44120 -0.03200
N 	N 	0.35560 0.03320 0.94120 -0.13200
N 	N 	0.14440 0.46680 0.94120 -0.07600
N 	N 	0.14440 0.96680 0.44120 0.03800
N 	N 	0.64440 0.46680 0.44120 -0.03300
N 	N 	0.64440 0.96680 0.94120 -0.00300
N 	N 	0.85560 0.46680 0.05880 -0.02600
N 	N 	0.85560 0.96680 0.55880 -0.02800
N 	N 	0.35560 0.46680 0.55880 -0.03300
N 	N 	0.35560 0.96680 0.05880 0.05000
N 	N 	0.14440 0.53320 0.05880 0.00200
N 	N 	0.14440 0.03320 0.55880 -0.09800
N 	N 	0.64440 0.53320 0.55880 -0.03400
N 	N 	0.64440 0.03320 0.05880 -0.04900
N 	N 	0.53320 0.05880 0.14440 0.00200
N 	N 	0.53320 0.55880 0.64440 -0.03400
N 	N 	0.03320 0.05880 0.64440 -0.04900
N 	N 	0.03320 0.55880 0.14440 -0.09800
N 	N 	0.46680 0.05880 0.85560 -0.02600
N 	N 	0.46680 0.55880 0.35560 -0.03300
N 	N 	0.96680 0.05880 0.35560 0.05000
N 	N 	0.96680 0.55880 0.85560 -0.02800
N 	N 	0.46680 0.94120 0.14440 -0.07600
N 	N 	0.46680 0.44120 0.64440 -0.03300
N 	N 	0.96680 0.94120 0.64440 -0.00300
N 	N 	0.96680 0.44120 0.14440 0.03800
N 	N 	0.53320 0.94120 0.85560 -0.03400
N 	N 	0.53320 0.44120 0.35560 -0.03200
N 	N 	0.03320 0.94120 0.35560 -0.13200
N 	N 	0.03320 0.44120 0.85560 -0.04400
N 	N 	0.05880 0.85560 0.46680 -0.02600
N 	N 	0.05880 0.35560 0.96680 0.05000
N 	N 	0.55880 0.85560 0.96680 -0.02800
N 	N 	0.55880 0.35560 0.46680 -0.03300
N 	N 	0.05880 0.14440 0.53320 0.00200
N 	N 	0.05880 0.64440 0.03320 -0.04900
N 	N 	0.55880 0.14440 0.03320 -0.09800
N 	N 	0.55880 0.64440 0.53320 -0.03400
N 	N 	0.94120 0.85560 0.53320 -0.03400
N 	N 	0.94120 0.35560 0.03320 -0.13200
N 	N 	0.44120 0.85560 0.03320 -0.04400
N 	N 	0.44120 0.35560 0.53320 -0.03200
N 	N 	0.94120 0.14440 0.46680 -0.07600
N 	N 	0.94120 0.64440 0.96680 -0.00300
N 	N 	0.44120 0.14440 0.96680 0.03800
N 	N 	0.44120 0.64440 0.46680 -0.03300
Fe	Fe	0.50000 0.00000 -0.00000 1.28000
Fe	Fe	0.50000 0.50000 0.50000 1.26400
Fe	Fe	0.00000 0.00000 0.50000 1.28000
Fe	Fe	-0.00000 0.50000 -0.00000 1.28000
Na	Na	0.50000 0.50000 -0.00000 0.58900
Na	Na	0.00000 0.50000 0.50000 0.58900
Na	Na	0.50000 0.00000 0.50000 0.58900
Na	Na	-0.00000 0.00000 -0.00000 0.59600
N 	N 	0.48030 0.22620 0.98030 -0.06800
N 	N 	0.48030 0.72620 0.48030 0.00400
N 	N 	0.51970 0.77380 0.98030 -0.03700
N 	N 	0.51970 0.27380 0.48030 0.00600
N 	N 	0.01970 0.77380 0.48030 0.04400
N 	N 	0.51970 0.22620 0.01970 0.08100
N 	N 	0.51970 0.72620 0.51970 0.00500
N 	N 	0.01970 0.72620 0.01970 0.20100
N 	N 	0.48030 0.77380 0.01970 0.04400
N 	N 	0.48030 0.27380 0.51970 0.00600
N 	N 	0.98030 0.48030 0.22620 -0.06800
N 	N 	0.98030 0.98030 0.72620 -0.26200
N 	N 	0.48030 0.48030 0.72620 0.00400
N 	N 	0.98030 0.51970 0.77380 -0.03700
N 	N 	0.98030 0.01970 0.27380 0.04000
N 	N 	0.48030 0.01970 0.77380 0.04400
N 	N 	0.01970 0.51970 0.22620 0.08100
N 	N 	0.01970 0.01970 0.72620 0.20100
N 	N 	0.01970 0.48030 0.77380 0.04400
N 	N 	0.01970 0.98030 0.27380 0.04000
N 	N 	0.22620 0.98030 0.48030 -0.06800
N 	N 	0.72620 0.98030 0.98030 -0.26200
N 	N 	0.72620 0.48030 0.48030 0.00400
N 	N 	0.77380 0.98030 0.51970 -0.03700
N 	N 	0.77380 0.48030 0.01970 0.04400
N 	N 	0.27380 0.98030 0.01970 0.04000
N 	N 	0.22620 0.01970 0.51970 0.08100
N 	N 	0.72620 0.01970 0.01970 0.20100
N 	N 	0.77380 0.01970 0.48030 0.04400
N 	N 	0.27380 0.01970 0.98030 0.04000
N 	N 	0.22620 0.48030 0.01970 0.10700
N 	N 	0.72620 0.48030 0.51970 0.00500
N 	N 	0.77380 0.51970 0.01970 0.03000
N 	N 	0.27380 0.51970 0.51970 -0.01700
N 	N 	0.27380 0.01970 0.01970 0.48100
N 	N 	0.22620 0.51970 0.98030 -0.09900
N 	N 	0.22620 0.01970 0.48030 0.10700
N 	N 	0.72620 0.51970 0.48030 0.00500
N 	N 	0.77380 0.48030 0.98030 -0.01800
N 	N 	0.27380 0.48030 0.48030 0.02800
N 	N 	0.48030 0.98030 0.77380 -0.01800
N 	N 	0.48030 0.48030 0.27380 0.02800
N 	N 	0.51970 0.98030 0.22620 -0.09900
N 	N 	0.51970 0.48030 0.72620 0.00500
N 	N 	0.01970 0.48030 0.22620 0.10700
N 	N 	0.51970 0.01970 0.77380 0.03000
N 	N 	0.51970 0.51970 0.27380 -0.01700
N 	N 	0.01970 0.01970 0.27380 0.48100
N 	N 	0.48030 0.01970 0.22620 0.10700
N 	N 	0.48030 0.51970 0.72620 0.00500
N 	N 	0.98030 0.22620 0.51970 -0.09900
N 	N 	0.98030 0.72620 0.01970 0.03800
N 	N 	0.48030 0.22620 0.01970 0.10700
N 	N 	0.98030 0.77380 0.48030 -0.01800
N 	N 	0.98030 0.27380 0.98030 -0.53900
N 	N 	0.48030 0.27380 0.48030 0.02800
N 	N 	0.01970 0.22620 0.48030 0.10700
N 	N 	0.01970 0.72620 0.98030 0.03800
N 	N 	0.01970 0.77380 0.51970 0.03000
N 	N 	0.01970 0.27380 0.01970 0.48100
N 	N 	0.51970 0.77380 0.01970 0.03000
N 	N 	0.51970 0.27380 0.51970 -0.01700
N 	N 	0.48030 0.72620 0.51970 0.00500
N 	N 	0.48030 0.77380 0.98030 -0.01800
N 	N 	0.51970 0.22620 0.98030 -0.09900
N 	N 	0.51970 0.72620 0.48030 0.00500
N 	N 	0.01970 0.51970 0.77380 0.03000
N 	N 	0.01970 0.98030 0.72620 0.03800
N 	N 	0.98030 0.48030 0.77380 -0.01800
N 	N 	0.98030 0.98030 0.27380 -0.53900
N 	N 	0.98030 0.51970 0.22620 -0.09900
N 	N 	0.98030 0.01970 0.72620 0.03800
N 	N 	0.77380 0.01970 0.51970 0.03000
N 	N 	0.72620 0.01970 0.98030 0.03800
N 	N 	0.77380 0.98030 0.48030 -0.01800
N 	N 	0.27380 0.98030 0.98030 -0.53900
N 	N 	0.22620 0.98030 0.51970 -0.09900
N 	N 	0.72620 0.98030 0.01970 0.03800
N 	N 	0.77380 0.51970 0.98030 -0.03700
N 	N 	0.27380 0.51970 0.48030 0.00600
N 	N 	0.22620 0.48030 0.98030 -0.06800
N 	N 	0.27380 0.48030 0.51970 0.00600
N 	N 	0.22620 0.51970 0.01970 0.08100
N 	N 	0.72620 0.51970 0.51970 0.00500
N 	N 	0.51970 0.01970 0.22620 0.08100
N 	N 	0.51970 0.51970 0.72620 0.00500
N 	N 	0.48030 0.51970 0.27380 0.00600
N 	N 	0.48030 0.98030 0.22620 -0.06800
N 	N 	0.51970 0.98030 0.77380 -0.03700
N 	N 	0.51970 0.48030 0.27380 0.00600
N 	N 	0.01970 0.27380 0.98030 0.04000
N 	N 	0.01970 0.22620 0.51970 0.08100
N 	N 	0.98030 0.77380 0.51970 -0.03700
N 	N 	0.98030 0.27380 0.01970 0.04000
N 	N 	0.98030 0.22620 0.48030 -0.06800
N 	N 	0.98030 0.72620 0.98030 -0.26200
N 	N 	0.50000 0.30700 0.01800 -0.25800
N 	N 	0.50000 0.80700 0.51800 -0.02200
N 	N 	0.00000 0.30700 0.51800 0.01600
N 	N 	0.00000 0.80700 0.01800 -0.46200
N 	N 	0.50000 0.69300 0.01800 -0.12800
N 	N 	0.50000 0.19300 0.51800 0.02200
N 	N 	-0.00000 0.69300 0.51800 0.00600
N 	N 	0.00000 0.19300 0.01800 -0.90100
N 	N 	0.50000 0.30700 0.98200 0.25700
N 	N 	0.50000 0.80700 0.48200 -0.01600
N 	N 	-0.00000 0.30700 0.48200 -0.07500
N 	N 	0.00000 0.80700 0.98200 0.41400
N 	N 	0.50000 0.69300 0.98200 0.10100
N 	N 	0.50000 0.19300 0.48200 -0.05100
N 	N 	-0.00000 0.69300 0.48200 -0.04800
N 	N 	0.00000 0.19300 0.98200 0.88500
N 	N 	0.01800 0.50000 0.30700 -0.25800
N 	N 	0.01800 0.00000 0.80700 -0.46200
N 	N 	0.51800 0.50000 0.80700 -0.02200
N 	N 	0.51800 -0.00000 0.30700 0.01600
N 	N 	0.01800 0.50000 0.69300 -0.12800
N 	N 	0.01800 0.00000 0.19300 -0.90100
N 	N 	0.51800 0.50000 0.19300 0.02200
N 	N 	0.51800 -0.00000 0.69300 0.00600
N 	N 	0.98200 0.50000 0.30700 0.25700
N 	N 	0.98200 0.00000 0.80700 0.41400
N 	N 	0.48200 0.50000 0.80700 -0.01600
N 	N 	0.48200 -0.00000 0.30700 -0.07500
N 	N 	0.98200 0.50000 0.69300 0.10100
N 	N 	0.98200 0.00000 0.19300 0.88500
N 	N 	0.48200 0.50000 0.19300 -0.05100
N 	N 	0.48200 -0.00000 0.69300 -0.04800
N 	N 	0.30700 0.01800 0.50000 -0.25800
N 	N 	0.30700 0.51800 -0.00000 0.01600
N 	N 	0.80700 0.01800 -0.00000 -0.46200
N 	N 	0.80700 0.51800 0.50000 -0.02200
N 	N 	0.69300 0.01800 0.50000 -0.12800
N 	N 	0.69300 0.51800 -0.00000 0.00600
N 	N 	0.19300 0.01800 -0.00000 -0.90100
N 	N 	0.19300 0.51800 0.50000 0.02200
N 	N 	0.30700 0.98200 0.50000 0.25700
N 	N 	0.30700 0.48200 -0.00000 -0.07500
N 	N 	0.80700 0.98200 -0.00000 0.41400
N 	N 	0.80700 0.48200 0.50000 -0.01600
N 	N 	0.69300 0.98200 0.50000 0.10100
N 	N 	0.69300 0.48200 -0.00000 -0.04800
N 	N 	0.19300 0.98200 -0.00000 0.88500
N 	N 	0.19300 0.48200 0.50000 -0.05100
N 	N 	0.30700 0.50000 0.98200 0.25700
N 	N 	0.30700 -0.00000 0.48200 -0.07500
N 	N 	0.80700 0.50000 0.48200 -0.01600
N 	N 	0.80700 0.00000 0.98200 0.41400
N 	N 	0.69300 0.50000 0.98200 0.10100
N 	N 	0.69300 -0.00000 0.48200 -0.04800
N 	N 	0.19300 0.50000 0.48200 -0.05100
N 	N 	0.19300 0.00000 0.98200 0.88500
N 	N 	0.30700 0.50000 0.01800 -0.25800
N 	N 	0.30700 0.00000 0.51800 0.01600
N 	N 	0.80700 0.50000 0.51800 -0.02200
N 	N 	0.80700 0.00000 0.01800 -0.46200
N 	N 	0.69300 0.50000 0.01800 -0.12800
N 	N 	0.69300 0.00000 0.51800 0.00600
N 	N 	0.19300 0.50000 0.51800 0.02200
N 	N 	0.19300 0.00000 0.01800 -0.90100
N 	N 	0.50000 0.01800 0.69300 -0.12800
N 	N 	0.50000 0.51800 0.19300 0.02200
N 	N 	0.00000 0.01800 0.19300 -0.90100
N 	N 	-0.00000 0.51800 0.69300 0.00600
N 	N 	0.50000 0.01800 0.30700 -0.25800
N 	N 	0.50000 0.51800 0.80700 -0.02200
N 	N 	0.00000 0.01800 0.80700 -0.46200
N 	N 	-0.00000 0.51800 0.30700 0.01600
N 	N 	0.50000 0.98200 0.69300 0.10100
N 	N 	0.50000 0.48200 0.19300 -0.05100
N 	N 	0.00000 0.98200 0.19300 0.88500
N 	N 	-0.00000 0.48200 0.69300 -0.04800
N 	N 	0.50000 0.98200 0.30700 0.25700
N 	N 	0.50000 0.48200 0.80700 -0.01600
N 	N 	0.00000 0.98200 0.80700 0.41400
N 	N 	-0.00000 0.48200 0.30700 -0.07500
N 	N 	0.01800 0.30700 0.50000 -0.25800
N 	N 	0.01800 0.80700 -0.00000 -0.46200
N 	N 	0.51800 0.30700 -0.00000 0.01600
N 	N 	0.51800 0.80700 0.50000 -0.02200
N 	N 	0.01800 0.69300 0.50000 -0.12800
N 	N 	0.01800 0.19300 -0.00000 -0.90100
N 	N 	0.51800 0.69300 -0.00000 0.00600
N 	N 	0.51800 0.19300 0.50000 0.02200
N 	N 	0.98200 0.30700 0.50000 0.25700
N 	N 	0.98200 0.80700 -0.00000 0.41400
N 	N 	0.48200 0.30700 -0.00000 -0.07500
N 	N 	0.48200 0.80700 0.50000 -0.01600
N 	N 	0.98200 0.69300 0.50000 0.10100
N 	N 	0.98200 0.19300 -0.00000 0.88500
N 	N 	0.48200 0.69300 -0.00000 -0.04800
N 	N 	0.48200 0.19300 0.50000 -0.05100
