data_crystal

_cell_length_a 12.85500
_cell_length_b 12.85500
_cell_length_c 12.85500
_cell_angle_alpha 90.00000
_cell_angle_beta  90.00000
_cell_angle_gamma 90.00000

_symmetry_space_group_name_	'P 1'
_symmetry_space_group_name_H-M	'P 1'

loop_
_symmetry_equiv_pos_as_xyz
  x,y,z

loop_
_atom_site_label
_atom_site_type_symbol
_atom_site_fract_x
_atom_site_fract_y
_atom_site_fract_z
_atom_site_charge
N 	N 	0.64305 0.93917 0.95579 -0.08200
N 	N 	0.72559 0.98056 0.96480 0.09000
N 	N 	0.80730 0.01761 0.97136 -0.11900
N 	N 	0.85695 0.06083 0.45579 -0.14000
N 	N 	0.77441 0.01944 0.46480 -0.11200
N 	N 	0.69270 0.98239 0.47136 0.01600
N 	N 	0.35695 0.43917 0.54421 -0.17600
N 	N 	0.27441 0.48056 0.53520 -0.02800
N 	N 	0.19270 0.51761 0.52864 -0.11600
N 	N 	0.14305 0.56083 0.04421 -0.22800
N 	N 	0.22559 0.51944 0.03520 -0.04800
N 	N 	0.30730 0.48239 0.02864 -0.14000
N 	N 	0.95579 0.64305 0.93917 -0.08100
N 	N 	0.96480 0.72559 0.98056 0.09100
N 	N 	0.97136 0.80730 0.01761 -0.11800
N 	N 	0.45579 0.85695 0.06083 -0.13900
N 	N 	0.46480 0.77441 0.01944 -0.11100
N 	N 	0.47136 0.69270 0.98239 0.01700
N 	N 	0.54421 0.35695 0.43917 -0.17500
N 	N 	0.53520 0.27441 0.48056 -0.02700
N 	N 	0.52864 0.19270 0.51761 -0.11600
N 	N 	0.04421 0.14305 0.56083 -0.22800
N 	N 	0.03520 0.22559 0.51944 -0.04800
N 	N 	0.02864 0.30730 0.48239 -0.14000
N 	N 	0.93917 0.95579 0.64305 -0.08100
N 	N 	0.98056 0.96480 0.72559 0.09100
N 	N 	0.01761 0.97136 0.80730 -0.11800
N 	N 	0.06083 0.45579 0.85695 -0.13900
N 	N 	0.01944 0.46480 0.77441 -0.11100
N 	N 	0.98239 0.47136 0.69270 0.01700
N 	N 	0.43917 0.54421 0.35695 -0.17500
N 	N 	0.48056 0.53520 0.27441 -0.02700
N 	N 	0.51761 0.52864 0.19270 -0.11600
N 	N 	0.56083 0.04421 0.14305 -0.22800
N 	N 	0.51944 0.03520 0.22559 -0.04800
N 	N 	0.48239 0.02864 0.30730 -0.14000
N 	N 	0.35695 0.06083 0.04421 -0.22200
N 	N 	0.27441 0.01944 0.03520 -0.14200
N 	N 	0.19270 0.98239 0.02864 -0.04800
N 	N 	0.14305 0.93917 0.54421 -0.16100
N 	N 	0.22559 0.98056 0.53520 0.06900
N 	N 	0.30730 0.01761 0.52864 -0.20000
N 	N 	0.64305 0.56083 0.45579 -0.16400
N 	N 	0.72559 0.51944 0.46480 -0.02000
N 	N 	0.80730 0.48239 0.47136 -0.06700
N 	N 	0.85695 0.43917 0.95579 -0.07500
N 	N 	0.77441 0.48056 0.96480 0.00300
N 	N 	0.69270 0.51761 0.97136 -0.04200
N 	N 	0.04421 0.35695 0.06083 -0.22200
N 	N 	0.03520 0.27441 0.01944 -0.14200
N 	N 	0.02864 0.19270 0.98239 -0.04800
N 	N 	0.54421 0.14305 0.93917 -0.16100
N 	N 	0.53520 0.22559 0.98056 0.06900
N 	N 	0.52864 0.30730 0.01761 -0.20000
N 	N 	0.45579 0.64305 0.56083 -0.16400
N 	N 	0.46480 0.72559 0.51944 -0.02000
N 	N 	0.47136 0.80730 0.48239 -0.06700
N 	N 	0.95579 0.85695 0.43917 -0.07500
N 	N 	0.96480 0.77441 0.48056 0.00300
N 	N 	0.97136 0.69270 0.51761 -0.04200
N 	N 	0.06083 0.04421 0.35695 -0.22200
N 	N 	0.01944 0.03520 0.27441 -0.14200
N 	N 	0.98239 0.02864 0.19270 -0.04800
N 	N 	0.93917 0.54421 0.14305 -0.16100
N 	N 	0.98056 0.53520 0.22559 0.06900
N 	N 	0.01761 0.52864 0.30730 -0.20000
N 	N 	0.56083 0.45579 0.64305 -0.16400
N 	N 	0.51944 0.46480 0.72559 -0.02000
N 	N 	0.48239 0.47136 0.80730 -0.06700
N 	N 	0.43917 0.95579 0.85695 -0.07500
N 	N 	0.48056 0.96480 0.77441 0.00300
N 	N 	0.51761 0.97136 0.69270 -0.04200
Fe	Fe	0.50000 0.00000 -0.00000 1.02000
Fe	Fe	0.00000 -0.00000 0.50000 1.02000
Fe	Fe	0.50000 0.50000 0.50000 1.16400
Fe	Fe	-0.00000 0.50000 -0.00000 1.02000
Na	Na	-0.00000 0.00000 -0.00000 0.52400
Na	Na	0.50000 -0.00000 0.50000 0.56400
Na	Na	0.00000 0.50000 0.50000 0.56400
Na	Na	0.50000 0.50000 -0.00000 0.56400
