data_crystal

_cell_length_a 13.03230
_cell_length_b 13.03230
_cell_length_c 13.03230
_cell_angle_alpha 90.00000
_cell_angle_beta  90.00000
_cell_angle_gamma 90.00000

_symmetry_space_group_name_	'P 1'
_symmetry_space_group_name_H-M	'P 1'

loop_
_symmetry_equiv_pos_as_xyz
  x,y,z

loop_
_atom_site_label
_atom_site_type_symbol
_atom_site_fract_x
_atom_site_fract_y
_atom_site_fract_z
_atom_site_charge
N 	N 	0.46630 0.14410 0.93940 0.07700
N 	N 	0.46630 0.64410 0.43940 -0.03000
N 	N 	0.96630 0.14410 0.43940 -0.15300
N 	N 	0.96630 0.64410 0.93940 -0.06800
N 	N 	0.53370 0.85590 0.93940 0.07700
N 	N 	0.53370 0.35590 0.43940 -0.04000
N 	N 	0.03370 0.85590 0.43940 0.11600
N 	N 	0.03370 0.35590 0.93940 0.21500
N 	N 	0.53370 0.14410 0.06060 -0.13200
N 	N 	0.53370 0.64410 0.56060 -0.04000
N 	N 	0.03370 0.14410 0.56060 0.09900
N 	N 	0.03370 0.64410 0.06060 0.00700
N 	N 	0.46630 0.85590 0.06060 -0.15400
N 	N 	0.46630 0.35590 0.56060 -0.02400
N 	N 	0.96630 0.85590 0.56060 -0.19300
N 	N 	0.96630 0.35590 0.06060 -0.28400
N 	N 	0.93940 0.46630 0.14410 0.07800
N 	N 	0.93940 0.96630 0.64410 -0.06700
N 	N 	0.43940 0.46630 0.64410 -0.02900
N 	N 	0.43940 0.96630 0.14410 -0.15200
N 	N 	0.93940 0.53370 0.85590 0.07800
N 	N 	0.93940 0.03370 0.35590 0.21600
N 	N 	0.43940 0.53370 0.35590 -0.03900
N 	N 	0.43940 0.03370 0.85590 0.11700
N 	N 	0.06060 0.53370 0.14410 -0.13100
N 	N 	0.06060 0.03370 0.64410 0.00700
N 	N 	0.56060 0.53370 0.64410 -0.03900
N 	N 	0.56060 0.03370 0.14410 0.09900
N 	N 	0.06060 0.46630 0.85590 -0.15400
N 	N 	0.06060 0.96630 0.35590 -0.28400
N 	N 	0.56060 0.46630 0.35590 -0.02400
N 	N 	0.56060 0.96630 0.85590 -0.19300
N 	N 	0.14410 0.93940 0.46630 0.07800
N 	N 	0.14410 0.43940 0.96630 -0.15200
N 	N 	0.64410 0.93940 0.96630 -0.06700
N 	N 	0.64410 0.43940 0.46630 -0.02900
N 	N 	0.85590 0.93940 0.53370 0.07800
N 	N 	0.85590 0.43940 0.03370 0.11700
N 	N 	0.35590 0.93940 0.03370 0.21600
N 	N 	0.35590 0.43940 0.53370 -0.03900
N 	N 	0.14410 0.06060 0.53370 -0.13100
N 	N 	0.14410 0.56060 0.03370 0.09900
N 	N 	0.64410 0.06060 0.03370 0.00700
N 	N 	0.64410 0.56060 0.53370 -0.03900
N 	N 	0.85590 0.06060 0.46630 -0.15400
N 	N 	0.85590 0.56060 0.96630 -0.19300
N 	N 	0.35590 0.06060 0.96630 -0.28400
N 	N 	0.35590 0.56060 0.46630 -0.02400
N 	N 	0.14410 0.46630 0.06060 -0.12300
N 	N 	0.14410 0.96630 0.56060 -0.15000
N 	N 	0.64410 0.46630 0.56060 -0.02400
N 	N 	0.64410 0.96630 0.06060 -0.30300
N 	N 	0.85590 0.53370 0.06060 -0.17300
N 	N 	0.85590 0.03370 0.56060 0.12400
N 	N 	0.35590 0.53370 0.56060 -0.03500
N 	N 	0.35590 0.03370 0.06060 0.00900
N 	N 	0.14410 0.53370 0.93940 0.07300
N 	N 	0.14410 0.03370 0.43940 0.09700
N 	N 	0.64410 0.53370 0.43940 -0.04400
N 	N 	0.64410 0.03370 0.93940 0.23100
N 	N 	0.85590 0.46630 0.93940 0.09400
N 	N 	0.85590 0.96630 0.43940 -0.19900
N 	N 	0.35590 0.46630 0.43940 -0.02800
N 	N 	0.35590 0.96630 0.93940 -0.06500
N 	N 	0.46630 0.93940 0.85590 0.09400
N 	N 	0.46630 0.43940 0.35590 -0.02800
N 	N 	0.96630 0.93940 0.35590 -0.06500
N 	N 	0.96630 0.43940 0.85590 -0.19900
N 	N 	0.53370 0.93940 0.14410 0.07300
N 	N 	0.53370 0.43940 0.64410 -0.04400
N 	N 	0.03370 0.93940 0.64410 0.23100
N 	N 	0.03370 0.43940 0.14410 0.09700
N 	N 	0.53370 0.06060 0.85590 -0.17300
N 	N 	0.53370 0.56060 0.35590 -0.03500
N 	N 	0.03370 0.06060 0.35590 0.00900
N 	N 	0.03370 0.56060 0.85590 0.12400
N 	N 	0.46630 0.06060 0.14410 -0.12300
N 	N 	0.46630 0.56060 0.64410 -0.02400
N 	N 	0.96630 0.06060 0.64410 -0.30300
N 	N 	0.96630 0.56060 0.14410 -0.15000
N 	N 	0.93940 0.14410 0.53370 0.07300
N 	N 	0.93940 0.64410 0.03370 0.23100
N 	N 	0.43940 0.14410 0.03370 0.09700
N 	N 	0.43940 0.64410 0.53370 -0.04400
N 	N 	0.93940 0.85590 0.46630 0.09400
N 	N 	0.93940 0.35590 0.96630 -0.06500
N 	N 	0.43940 0.85590 0.96630 -0.19900
N 	N 	0.43940 0.35590 0.46630 -0.02800
N 	N 	0.06060 0.14410 0.46630 -0.12300
N 	N 	0.06060 0.64410 0.96630 -0.30300
N 	N 	0.56060 0.14410 0.96630 -0.15000
N 	N 	0.56060 0.64410 0.46630 -0.02400
N 	N 	0.06060 0.85590 0.53370 -0.17300
N 	N 	0.06060 0.35590 0.03370 0.00900
N 	N 	0.56060 0.85590 0.03370 0.12400
N 	N 	0.56060 0.35590 0.53370 -0.03500
N 	N 	0.53370 0.85590 0.06060 -0.17300
N 	N 	0.53370 0.35590 0.56060 -0.03500
N 	N 	0.03370 0.85590 0.56060 0.12400
N 	N 	0.03370 0.35590 0.06060 0.00900
N 	N 	0.46630 0.14410 0.06060 -0.12300
N 	N 	0.46630 0.64410 0.56060 -0.02400
N 	N 	0.96630 0.14410 0.56060 -0.15000
N 	N 	0.96630 0.64410 0.06060 -0.30300
N 	N 	0.46630 0.85590 0.93940 0.09400
N 	N 	0.46630 0.35590 0.43940 -0.02800
N 	N 	0.96630 0.85590 0.43940 -0.19900
N 	N 	0.96630 0.35590 0.93940 -0.06500
N 	N 	0.53370 0.14410 0.93940 0.07300
N 	N 	0.53370 0.64410 0.43940 -0.04400
N 	N 	0.03370 0.14410 0.43940 0.09700
N 	N 	0.03370 0.64410 0.93940 0.23100
N 	N 	0.06060 0.53370 0.85590 -0.17300
N 	N 	0.06060 0.03370 0.35590 0.00900
N 	N 	0.56060 0.53370 0.35590 -0.03500
N 	N 	0.56060 0.03370 0.85590 0.12400
N 	N 	0.06060 0.46630 0.14410 -0.12300
N 	N 	0.06060 0.96630 0.64410 -0.30300
N 	N 	0.56060 0.46630 0.64410 -0.02400
N 	N 	0.56060 0.96630 0.14410 -0.15000
N 	N 	0.93940 0.46630 0.85590 0.09400
N 	N 	0.93940 0.96630 0.35590 -0.06500
N 	N 	0.43940 0.46630 0.35590 -0.02800
N 	N 	0.43940 0.96630 0.85590 -0.19900
N 	N 	0.93940 0.53370 0.14410 0.07300
N 	N 	0.93940 0.03370 0.64410 0.23100
N 	N 	0.43940 0.53370 0.64410 -0.04400
N 	N 	0.43940 0.03370 0.14410 0.09700
N 	N 	0.85590 0.06060 0.53370 -0.17300
N 	N 	0.85590 0.56060 0.03370 0.12400
N 	N 	0.35590 0.06060 0.03370 0.00900
N 	N 	0.35590 0.56060 0.53370 -0.03500
N 	N 	0.14410 0.06060 0.46630 -0.12300
N 	N 	0.14410 0.56060 0.96630 -0.15000
N 	N 	0.64410 0.06060 0.96630 -0.30300
N 	N 	0.64410 0.56060 0.46630 -0.02400
N 	N 	0.85590 0.93940 0.46630 0.09400
N 	N 	0.85590 0.43940 0.96630 -0.19900
N 	N 	0.35590 0.93940 0.96630 -0.06500
N 	N 	0.35590 0.43940 0.46630 -0.02800
N 	N 	0.14410 0.93940 0.53370 0.07300
N 	N 	0.14410 0.43940 0.03370 0.09700
N 	N 	0.64410 0.93940 0.03370 0.23100
N 	N 	0.64410 0.43940 0.53370 -0.04400
N 	N 	0.85590 0.53370 0.93940 0.07800
N 	N 	0.85590 0.03370 0.43940 0.11700
N 	N 	0.35590 0.53370 0.43940 -0.03900
N 	N 	0.35590 0.03370 0.93940 0.21600
N 	N 	0.14410 0.46630 0.93940 0.07800
N 	N 	0.14410 0.96630 0.43940 -0.15200
N 	N 	0.64410 0.46630 0.43940 -0.02900
N 	N 	0.64410 0.96630 0.93940 -0.06700
N 	N 	0.85590 0.46630 0.06060 -0.15400
N 	N 	0.85590 0.96630 0.56060 -0.19300
N 	N 	0.35590 0.46630 0.56060 -0.02400
N 	N 	0.35590 0.96630 0.06060 -0.28400
N 	N 	0.14410 0.53370 0.06060 -0.13100
N 	N 	0.14410 0.03370 0.56060 0.09900
N 	N 	0.64410 0.53370 0.56060 -0.03900
N 	N 	0.64410 0.03370 0.06060 0.00700
N 	N 	0.53370 0.06060 0.14410 -0.13100
N 	N 	0.53370 0.56060 0.64410 -0.03900
N 	N 	0.03370 0.06060 0.64410 0.00700
N 	N 	0.03370 0.56060 0.14410 0.09900
N 	N 	0.46630 0.06060 0.85590 -0.15400
N 	N 	0.46630 0.56060 0.35590 -0.02400
N 	N 	0.96630 0.06060 0.35590 -0.28400
N 	N 	0.96630 0.56060 0.85590 -0.19300
N 	N 	0.46630 0.93940 0.14410 0.07800
N 	N 	0.46630 0.43940 0.64410 -0.02900
N 	N 	0.96630 0.93940 0.64410 -0.06700
N 	N 	0.96630 0.43940 0.14410 -0.15200
N 	N 	0.53370 0.93940 0.85590 0.07800
N 	N 	0.53370 0.43940 0.35590 -0.03900
N 	N 	0.03370 0.93940 0.35590 0.21600
N 	N 	0.03370 0.43940 0.85590 0.11700
N 	N 	0.06060 0.85590 0.46630 -0.15400
N 	N 	0.06060 0.35590 0.96630 -0.28400
N 	N 	0.56060 0.85590 0.96630 -0.19300
N 	N 	0.56060 0.35590 0.46630 -0.02400
N 	N 	0.06060 0.14410 0.53370 -0.13100
N 	N 	0.06060 0.64410 0.03370 0.00700
N 	N 	0.56060 0.14410 0.03370 0.09900
N 	N 	0.56060 0.64410 0.53370 -0.03900
N 	N 	0.93940 0.85590 0.53370 0.07800
N 	N 	0.93940 0.35590 0.03370 0.21600
N 	N 	0.43940 0.85590 0.03370 0.11700
N 	N 	0.43940 0.35590 0.53370 -0.03900
N 	N 	0.93940 0.14410 0.46630 0.07800
N 	N 	0.93940 0.64410 0.96630 -0.06700
N 	N 	0.43940 0.14410 0.96630 -0.15200
N 	N 	0.43940 0.64410 0.46630 -0.02900
Fe	Fe	0.50000 0.00000 -0.00000 1.23800
Fe	Fe	0.50000 0.50000 0.50000 1.26400
Fe	Fe	0.00000 0.00000 0.50000 1.23800
Fe	Fe	-0.00000 0.50000 -0.00000 1.23800
Na	Na	0.50000 0.50000 -0.00000 0.58600
Na	Na	0.00000 0.50000 0.50000 0.58600
Na	Na	0.50000 0.00000 0.50000 0.58600
Na	Na	-0.00000 0.00000 -0.00000 0.58200
N 	N 	0.48000 0.22600 0.98000 -0.12700
N 	N 	0.48000 0.72600 0.48000 -0.01600
N 	N 	0.52000 0.77400 0.98000 -0.12600
N 	N 	0.52000 0.27400 0.48000 0.00700
N 	N 	0.02000 0.77400 0.48000 0.13700
N 	N 	0.52000 0.22600 0.02000 0.14000
N 	N 	0.52000 0.72600 0.52000 0.02400
N 	N 	0.02000 0.72600 0.02000 0.18400
N 	N 	0.48000 0.77400 0.02000 0.13700
N 	N 	0.48000 0.27400 0.52000 0.00700
N 	N 	0.98000 0.48000 0.22600 -0.12700
N 	N 	0.98000 0.98000 0.72600 -0.19400
N 	N 	0.48000 0.48000 0.72600 -0.01600
N 	N 	0.98000 0.52000 0.77400 -0.12600
N 	N 	0.98000 0.02000 0.27400 0.01800
N 	N 	0.48000 0.02000 0.77400 0.13700
N 	N 	0.02000 0.52000 0.22600 0.14000
N 	N 	0.02000 0.02000 0.72600 0.18400
N 	N 	0.02000 0.48000 0.77400 0.13700
N 	N 	0.02000 0.98000 0.27400 0.01800
N 	N 	0.22600 0.98000 0.48000 -0.12700
N 	N 	0.72600 0.98000 0.98000 -0.19400
N 	N 	0.72600 0.48000 0.48000 -0.01600
N 	N 	0.77400 0.98000 0.52000 -0.12600
N 	N 	0.77400 0.48000 0.02000 0.13700
N 	N 	0.27400 0.98000 0.02000 0.01800
N 	N 	0.22600 0.02000 0.52000 0.14000
N 	N 	0.72600 0.02000 0.02000 0.18400
N 	N 	0.77400 0.02000 0.48000 0.13700
N 	N 	0.27400 0.02000 0.98000 0.01800
N 	N 	0.22600 0.48000 0.02000 0.12400
N 	N 	0.72600 0.48000 0.52000 0.00400
N 	N 	0.77400 0.52000 0.02000 0.15500
N 	N 	0.27400 0.52000 0.52000 0.01100
N 	N 	0.27400 0.02000 0.02000 0.13800
N 	N 	0.22600 0.52000 0.98000 -0.11200
N 	N 	0.22600 0.02000 0.48000 0.12400
N 	N 	0.72600 0.52000 0.48000 0.00400
N 	N 	0.77400 0.48000 0.98000 -0.14200
N 	N 	0.27400 0.48000 0.48000 0.00200
N 	N 	0.48000 0.98000 0.77400 -0.14200
N 	N 	0.48000 0.48000 0.27400 0.00200
N 	N 	0.52000 0.98000 0.22600 -0.11200
N 	N 	0.52000 0.48000 0.72600 0.00400
N 	N 	0.02000 0.48000 0.22600 0.12400
N 	N 	0.52000 0.02000 0.77400 0.15500
N 	N 	0.52000 0.52000 0.27400 0.01100
N 	N 	0.02000 0.02000 0.27400 0.13800
N 	N 	0.48000 0.02000 0.22600 0.12400
N 	N 	0.48000 0.52000 0.72600 0.00400
N 	N 	0.98000 0.22600 0.52000 -0.11200
N 	N 	0.98000 0.72600 0.02000 0.01700
N 	N 	0.48000 0.22600 0.02000 0.12400
N 	N 	0.98000 0.77400 0.48000 -0.14200
N 	N 	0.98000 0.27400 0.98000 -0.14300
N 	N 	0.48000 0.27400 0.48000 0.00200
N 	N 	0.02000 0.22600 0.48000 0.12400
N 	N 	0.02000 0.72600 0.98000 0.01700
N 	N 	0.02000 0.77400 0.52000 0.15500
N 	N 	0.02000 0.27400 0.02000 0.13800
N 	N 	0.52000 0.77400 0.02000 0.15500
N 	N 	0.52000 0.27400 0.52000 0.01100
N 	N 	0.48000 0.72600 0.52000 0.00400
N 	N 	0.48000 0.77400 0.98000 -0.14200
N 	N 	0.52000 0.22600 0.98000 -0.11200
N 	N 	0.52000 0.72600 0.48000 0.00400
N 	N 	0.02000 0.52000 0.77400 0.15500
N 	N 	0.02000 0.98000 0.72600 0.01700
N 	N 	0.98000 0.48000 0.77400 -0.14200
N 	N 	0.98000 0.98000 0.27400 -0.14300
N 	N 	0.98000 0.52000 0.22600 -0.11200
N 	N 	0.98000 0.02000 0.72600 0.01700
N 	N 	0.77400 0.02000 0.52000 0.15500
N 	N 	0.72600 0.02000 0.98000 0.01700
N 	N 	0.77400 0.98000 0.48000 -0.14200
N 	N 	0.27400 0.98000 0.98000 -0.14300
N 	N 	0.22600 0.98000 0.52000 -0.11200
N 	N 	0.72600 0.98000 0.02000 0.01700
N 	N 	0.77400 0.52000 0.98000 -0.12600
N 	N 	0.27400 0.52000 0.48000 0.00700
N 	N 	0.22600 0.48000 0.98000 -0.12700
N 	N 	0.27400 0.48000 0.52000 0.00700
N 	N 	0.22600 0.52000 0.02000 0.14000
N 	N 	0.72600 0.52000 0.52000 0.02400
N 	N 	0.52000 0.02000 0.22600 0.14000
N 	N 	0.52000 0.52000 0.72600 0.02400
N 	N 	0.48000 0.52000 0.27400 0.00700
N 	N 	0.48000 0.98000 0.22600 -0.12700
N 	N 	0.52000 0.98000 0.77400 -0.12600
N 	N 	0.52000 0.48000 0.27400 0.00700
N 	N 	0.02000 0.27400 0.98000 0.01800
N 	N 	0.02000 0.22600 0.52000 0.14000
N 	N 	0.98000 0.77400 0.52000 -0.12600
N 	N 	0.98000 0.27400 0.02000 0.01800
N 	N 	0.98000 0.22600 0.48000 -0.12700
N 	N 	0.98000 0.72600 0.98000 -0.19400
N 	N 	0.50000 0.30690 0.01900 -0.62200
N 	N 	0.50000 0.80690 0.51900 -0.06900
N 	N 	-0.00000 0.30690 0.51900 -0.02500
N 	N 	-0.00000 0.80690 0.01900 -0.50100
N 	N 	0.50000 0.69310 0.01900 -0.70000
N 	N 	0.50000 0.19310 0.51900 -0.02500
N 	N 	0.00000 0.69310 0.51900 -0.02800
N 	N 	-0.00000 0.19310 0.01900 -0.38200
N 	N 	0.50000 0.30690 0.98100 0.53400
N 	N 	0.50000 0.80690 0.48100 0.02500
N 	N 	0.00000 0.30690 0.48100 0.04400
N 	N 	0.00000 0.80690 0.98100 0.45400
N 	N 	0.50000 0.69310 0.98100 0.60300
N 	N 	0.50000 0.19310 0.48100 0.00500
N 	N 	0.00000 0.69310 0.48100 0.05100
N 	N 	0.00000 0.19310 0.98100 0.35300
N 	N 	0.01900 0.50000 0.30690 -0.62200
N 	N 	0.01900 -0.00000 0.80690 -0.50100
N 	N 	0.51900 0.50000 0.80690 -0.06900
N 	N 	0.51900 0.00000 0.30690 -0.02500
N 	N 	0.01900 0.50000 0.69310 -0.70000
N 	N 	0.01900 -0.00000 0.19310 -0.38200
N 	N 	0.51900 0.50000 0.19310 -0.02500
N 	N 	0.51900 0.00000 0.69310 -0.02800
N 	N 	0.98100 0.50000 0.30690 0.53400
N 	N 	0.98100 -0.00000 0.80690 0.45400
N 	N 	0.48100 0.50000 0.80690 0.02500
N 	N 	0.48100 0.00000 0.30690 0.04400
N 	N 	0.98100 0.50000 0.69310 0.60300
N 	N 	0.98100 -0.00000 0.19310 0.35300
N 	N 	0.48100 0.50000 0.19310 0.00500
N 	N 	0.48100 0.00000 0.69310 0.05100
N 	N 	0.30690 0.01900 0.50000 -0.62200
N 	N 	0.30690 0.51900 -0.00000 -0.02500
N 	N 	0.80690 0.01900 -0.00000 -0.50100
N 	N 	0.80690 0.51900 0.50000 -0.06900
N 	N 	0.69310 0.01900 0.50000 -0.70000
N 	N 	0.69310 0.51900 -0.00000 -0.02800
N 	N 	0.19310 0.01900 -0.00000 -0.38200
N 	N 	0.19310 0.51900 0.50000 -0.02500
N 	N 	0.30690 0.98100 0.50000 0.53400
N 	N 	0.30690 0.48100 -0.00000 0.04400
N 	N 	0.80690 0.98100 -0.00000 0.45400
N 	N 	0.80690 0.48100 0.50000 0.02500
N 	N 	0.69310 0.98100 0.50000 0.60300
N 	N 	0.69310 0.48100 -0.00000 0.05100
N 	N 	0.19310 0.98100 -0.00000 0.35300
N 	N 	0.19310 0.48100 0.50000 0.00500
N 	N 	0.30690 0.50000 0.98100 0.53400
N 	N 	0.30690 0.00000 0.48100 0.04400
N 	N 	0.80690 0.50000 0.48100 0.02500
N 	N 	0.80690 0.00000 0.98100 0.45400
N 	N 	0.69310 0.50000 0.98100 0.60300
N 	N 	0.69310 0.00000 0.48100 0.05100
N 	N 	0.19310 0.50000 0.48100 0.00500
N 	N 	0.19310 0.00000 0.98100 0.35300
N 	N 	0.30690 0.50000 0.01900 -0.62200
N 	N 	0.30690 0.00000 0.51900 -0.02500
N 	N 	0.80690 0.50000 0.51900 -0.06900
N 	N 	0.80690 0.00000 0.01900 -0.50100
N 	N 	0.69310 0.50000 0.01900 -0.70000
N 	N 	0.69310 0.00000 0.51900 -0.02800
N 	N 	0.19310 0.50000 0.51900 -0.02500
N 	N 	0.19310 0.00000 0.01900 -0.38200
N 	N 	0.50000 0.01900 0.69310 -0.70000
N 	N 	0.50000 0.51900 0.19310 -0.02500
N 	N 	-0.00000 0.01900 0.19310 -0.38200
N 	N 	-0.00000 0.51900 0.69310 -0.02800
N 	N 	0.50000 0.01900 0.30690 -0.62200
N 	N 	0.50000 0.51900 0.80690 -0.06900
N 	N 	-0.00000 0.01900 0.80690 -0.50100
N 	N 	-0.00000 0.51900 0.30690 -0.02500
N 	N 	0.50000 0.98100 0.69310 0.60300
N 	N 	0.50000 0.48100 0.19310 0.00500
N 	N 	0.00000 0.98100 0.19310 0.35300
N 	N 	-0.00000 0.48100 0.69310 0.05100
N 	N 	0.50000 0.98100 0.30690 0.53400
N 	N 	0.50000 0.48100 0.80690 0.02500
N 	N 	0.00000 0.98100 0.80690 0.45400
N 	N 	0.00000 0.48100 0.30690 0.04400
N 	N 	0.01900 0.30690 0.50000 -0.62200
N 	N 	0.01900 0.80690 -0.00000 -0.50100
N 	N 	0.51900 0.30690 -0.00000 -0.02500
N 	N 	0.51900 0.80690 0.50000 -0.06900
N 	N 	0.01900 0.69310 0.50000 -0.70000
N 	N 	0.01900 0.19310 -0.00000 -0.38200
N 	N 	0.51900 0.69310 -0.00000 -0.02800
N 	N 	0.51900 0.19310 0.50000 -0.02500
N 	N 	0.98100 0.30690 0.50000 0.53400
N 	N 	0.98100 0.80690 -0.00000 0.45400
N 	N 	0.48100 0.30690 -0.00000 0.04400
N 	N 	0.48100 0.80690 0.50000 0.02500
N 	N 	0.98100 0.69310 0.50000 0.60300
N 	N 	0.98100 0.19310 -0.00000 0.35300
N 	N 	0.48100 0.69310 -0.00000 0.05100
N 	N 	0.48100 0.19310 0.50000 0.00500
