data_crystal

_cell_length_a 13.36070
_cell_length_b 13.36070
_cell_length_c 13.36070
_cell_angle_alpha 90.00000
_cell_angle_beta  90.00000
_cell_angle_gamma 90.00000

_symmetry_space_group_name_	'P 1'
_symmetry_space_group_name_H-M	'P 1'

loop_
_symmetry_equiv_pos_as_xyz
  x,y,z

loop_
_atom_site_label
_atom_site_type_symbol
_atom_site_fract_x
_atom_site_fract_y
_atom_site_fract_z
_atom_site_charge
N 	N 	0.43900 0.13870 0.96540 0.28500
N 	N 	0.43900 0.63870 0.46540 -0.04500
N 	N 	0.93900 0.13870 0.46540 -0.30500
N 	N 	0.93900 0.63870 0.96540 0.11700
N 	N 	0.56100 0.86130 0.96540 0.61200
N 	N 	0.56100 0.36130 0.46540 -0.06200
N 	N 	0.06100 0.86130 0.46540 0.39700
N 	N 	0.06100 0.36130 0.96540 0.79000
N 	N 	0.56100 0.13870 0.03460 -0.39400
N 	N 	0.56100 0.63870 0.53460 -0.02300
N 	N 	0.06100 0.13870 0.53460 0.19800
N 	N 	0.06100 0.63870 0.03460 -0.21000
N 	N 	0.43900 0.86130 0.03460 -0.64400
N 	N 	0.43900 0.36130 0.53460 -0.01000
N 	N 	0.93900 0.86130 0.53460 -0.43200
N 	N 	0.93900 0.36130 0.03460 -0.83700
N 	N 	0.96540 0.43900 0.13870 0.28600
N 	N 	0.96540 0.93900 0.63870 0.11800
N 	N 	0.46540 0.43900 0.63870 -0.04400
N 	N 	0.46540 0.93900 0.13870 -0.30400
N 	N 	0.96540 0.56100 0.86130 0.61300
N 	N 	0.96540 0.06100 0.36130 0.79100
N 	N 	0.46540 0.56100 0.36130 -0.06100
N 	N 	0.46540 0.06100 0.86130 0.39800
N 	N 	0.03460 0.56100 0.13870 -0.39300
N 	N 	0.03460 0.06100 0.63870 -0.20900
N 	N 	0.53460 0.56100 0.63870 -0.02200
N 	N 	0.53460 0.06100 0.13870 0.19900
N 	N 	0.03460 0.43900 0.86130 -0.64400
N 	N 	0.03460 0.93900 0.36130 -0.83700
N 	N 	0.53460 0.43900 0.36130 -0.01000
N 	N 	0.53460 0.93900 0.86130 -0.43200
N 	N 	0.13870 0.96540 0.43900 0.28600
N 	N 	0.13870 0.46540 0.93900 -0.30400
N 	N 	0.63870 0.96540 0.93900 0.11800
N 	N 	0.63870 0.46540 0.43900 -0.04400
N 	N 	0.86130 0.96540 0.56100 0.61300
N 	N 	0.86130 0.46540 0.06100 0.39800
N 	N 	0.36130 0.96540 0.06100 0.79100
N 	N 	0.36130 0.46540 0.56100 -0.06100
N 	N 	0.13870 0.03460 0.56100 -0.39300
N 	N 	0.13870 0.53460 0.06100 0.19900
N 	N 	0.63870 0.03460 0.06100 -0.20900
N 	N 	0.63870 0.53460 0.56100 -0.02200
N 	N 	0.86130 0.03460 0.43900 -0.64400
N 	N 	0.86130 0.53460 0.93900 -0.43200
N 	N 	0.36130 0.03460 0.93900 -0.83700
N 	N 	0.36130 0.53460 0.43900 -0.01000
N 	N 	0.13870 0.43900 0.03460 -0.40500
N 	N 	0.13870 0.93900 0.53460 -0.33200
N 	N 	0.63870 0.43900 0.53460 0.01200
N 	N 	0.63870 0.93900 0.03460 -0.95600
N 	N 	0.86130 0.56100 0.03460 -0.70100
N 	N 	0.86130 0.06100 0.53460 0.49800
N 	N 	0.36130 0.56100 0.53460 -0.03100
N 	N 	0.36130 0.06100 0.03460 -0.19200
N 	N 	0.13870 0.56100 0.96540 0.29800
N 	N 	0.13870 0.06100 0.46540 0.21500
N 	N 	0.63870 0.56100 0.46540 -0.07700
N 	N 	0.63870 0.06100 0.96540 0.91400
N 	N 	0.86130 0.43900 0.96540 0.67000
N 	N 	0.86130 0.93900 0.46540 -0.52000
N 	N 	0.36130 0.43900 0.46540 -0.04100
N 	N 	0.36130 0.93900 0.96540 0.09600
N 	N 	0.43900 0.96540 0.86130 0.67000
N 	N 	0.43900 0.46540 0.36130 -0.04100
N 	N 	0.93900 0.96540 0.36130 0.09600
N 	N 	0.93900 0.46540 0.86130 -0.52000
N 	N 	0.56100 0.96540 0.13870 0.29800
N 	N 	0.56100 0.46540 0.63870 -0.07700
N 	N 	0.06100 0.96540 0.63870 0.91400
N 	N 	0.06100 0.46540 0.13870 0.21500
N 	N 	0.56100 0.03460 0.86130 -0.70100
N 	N 	0.56100 0.53460 0.36130 -0.03100
N 	N 	0.06100 0.03460 0.36130 -0.19200
N 	N 	0.06100 0.53460 0.86130 0.49800
N 	N 	0.43900 0.03460 0.13870 -0.40500
N 	N 	0.43900 0.53460 0.63870 0.01200
N 	N 	0.93900 0.03460 0.63870 -0.95600
N 	N 	0.93900 0.53460 0.13870 -0.33200
N 	N 	0.96540 0.13870 0.56100 0.29800
N 	N 	0.96540 0.63870 0.06100 0.91400
N 	N 	0.46540 0.13870 0.06100 0.21500
N 	N 	0.46540 0.63870 0.56100 -0.07700
N 	N 	0.96540 0.86130 0.43900 0.67000
N 	N 	0.96540 0.36130 0.93900 0.09600
N 	N 	0.46540 0.86130 0.93900 -0.52000
N 	N 	0.46540 0.36130 0.43900 -0.04100
N 	N 	0.03460 0.13870 0.43900 -0.40500
N 	N 	0.03460 0.63870 0.93900 -0.95600
N 	N 	0.53460 0.13870 0.93900 -0.33200
N 	N 	0.53460 0.63870 0.43900 0.01200
N 	N 	0.03460 0.86130 0.56100 -0.70100
N 	N 	0.03460 0.36130 0.06100 -0.19200
N 	N 	0.53460 0.86130 0.06100 0.49800
N 	N 	0.53460 0.36130 0.56100 -0.03100
N 	N 	0.56100 0.86130 0.03460 -0.70100
N 	N 	0.56100 0.36130 0.53460 -0.03100
N 	N 	0.06100 0.86130 0.53460 0.49800
N 	N 	0.06100 0.36130 0.03460 -0.19200
N 	N 	0.43900 0.13870 0.03460 -0.40500
N 	N 	0.43900 0.63870 0.53460 0.01200
N 	N 	0.93900 0.13870 0.53460 -0.33200
N 	N 	0.93900 0.63870 0.03460 -0.95600
N 	N 	0.43900 0.86130 0.96540 0.67000
N 	N 	0.43900 0.36130 0.46540 -0.04100
N 	N 	0.93900 0.86130 0.46540 -0.52000
N 	N 	0.93900 0.36130 0.96540 0.09600
N 	N 	0.56100 0.13870 0.96540 0.29800
N 	N 	0.56100 0.63870 0.46540 -0.07700
N 	N 	0.06100 0.13870 0.46540 0.21500
N 	N 	0.06100 0.63870 0.96540 0.91400
N 	N 	0.03460 0.56100 0.86130 -0.70100
N 	N 	0.03460 0.06100 0.36130 -0.19200
N 	N 	0.53460 0.56100 0.36130 -0.03100
N 	N 	0.53460 0.06100 0.86130 0.49800
N 	N 	0.03460 0.43900 0.13870 -0.40500
N 	N 	0.03460 0.93900 0.63870 -0.95600
N 	N 	0.53460 0.43900 0.63870 0.01200
N 	N 	0.53460 0.93900 0.13870 -0.33200
N 	N 	0.96540 0.43900 0.86130 0.67000
N 	N 	0.96540 0.93900 0.36130 0.09600
N 	N 	0.46540 0.43900 0.36130 -0.04100
N 	N 	0.46540 0.93900 0.86130 -0.52000
N 	N 	0.96540 0.56100 0.13870 0.29800
N 	N 	0.96540 0.06100 0.63870 0.91400
N 	N 	0.46540 0.56100 0.63870 -0.07700
N 	N 	0.46540 0.06100 0.13870 0.21500
N 	N 	0.86130 0.03460 0.56100 -0.70100
N 	N 	0.86130 0.53460 0.06100 0.49800
N 	N 	0.36130 0.03460 0.06100 -0.19200
N 	N 	0.36130 0.53460 0.56100 -0.03100
N 	N 	0.13870 0.03460 0.43900 -0.40500
N 	N 	0.13870 0.53460 0.93900 -0.33200
N 	N 	0.63870 0.03460 0.93900 -0.95600
N 	N 	0.63870 0.53460 0.43900 0.01200
N 	N 	0.86130 0.96540 0.43900 0.67000
N 	N 	0.86130 0.46540 0.93900 -0.52000
N 	N 	0.36130 0.96540 0.93900 0.09600
N 	N 	0.36130 0.46540 0.43900 -0.04100
N 	N 	0.13870 0.96540 0.56100 0.29800
N 	N 	0.13870 0.46540 0.06100 0.21500
N 	N 	0.63870 0.96540 0.06100 0.91400
N 	N 	0.63870 0.46540 0.56100 -0.07700
N 	N 	0.86130 0.56100 0.96540 0.61300
N 	N 	0.86130 0.06100 0.46540 0.39800
N 	N 	0.36130 0.56100 0.46540 -0.06100
N 	N 	0.36130 0.06100 0.96540 0.79100
N 	N 	0.13870 0.43900 0.96540 0.28600
N 	N 	0.13870 0.93900 0.46540 -0.30400
N 	N 	0.63870 0.43900 0.46540 -0.04400
N 	N 	0.63870 0.93900 0.96540 0.11800
N 	N 	0.86130 0.43900 0.03460 -0.64400
N 	N 	0.86130 0.93900 0.53460 -0.43200
N 	N 	0.36130 0.43900 0.53460 -0.01000
N 	N 	0.36130 0.93900 0.03460 -0.83700
N 	N 	0.13870 0.56100 0.03460 -0.39300
N 	N 	0.13870 0.06100 0.53460 0.19900
N 	N 	0.63870 0.56100 0.53460 -0.02200
N 	N 	0.63870 0.06100 0.03460 -0.20900
N 	N 	0.56100 0.03460 0.13870 -0.39300
N 	N 	0.56100 0.53460 0.63870 -0.02200
N 	N 	0.06100 0.03460 0.63870 -0.20900
N 	N 	0.06100 0.53460 0.13870 0.19900
N 	N 	0.43900 0.03460 0.86130 -0.64400
N 	N 	0.43900 0.53460 0.36130 -0.01000
N 	N 	0.93900 0.03460 0.36130 -0.83700
N 	N 	0.93900 0.53460 0.86130 -0.43200
N 	N 	0.43900 0.96540 0.13870 0.28600
N 	N 	0.43900 0.46540 0.63870 -0.04400
N 	N 	0.93900 0.96540 0.63870 0.11800
N 	N 	0.93900 0.46540 0.13870 -0.30400
N 	N 	0.56100 0.96540 0.86130 0.61300
N 	N 	0.56100 0.46540 0.36130 -0.06100
N 	N 	0.06100 0.96540 0.36130 0.79100
N 	N 	0.06100 0.46540 0.86130 0.39800
N 	N 	0.03460 0.86130 0.43900 -0.64400
N 	N 	0.03460 0.36130 0.93900 -0.83700
N 	N 	0.53460 0.86130 0.93900 -0.43200
N 	N 	0.53460 0.36130 0.43900 -0.01000
N 	N 	0.03460 0.13870 0.56100 -0.39300
N 	N 	0.03460 0.63870 0.06100 -0.20900
N 	N 	0.53460 0.13870 0.06100 0.19900
N 	N 	0.53460 0.63870 0.56100 -0.02200
N 	N 	0.96540 0.86130 0.56100 0.61300
N 	N 	0.96540 0.36130 0.06100 0.79100
N 	N 	0.46540 0.86130 0.06100 0.39800
N 	N 	0.46540 0.36130 0.56100 -0.06100
N 	N 	0.96540 0.13870 0.43900 0.28600
N 	N 	0.96540 0.63870 0.93900 0.11800
N 	N 	0.46540 0.13870 0.93900 -0.30400
N 	N 	0.46540 0.63870 0.43900 -0.04400
K 	K 	0.50000 0.50000 -0.00000 0.66800
K 	K 	0.00000 0.50000 0.50000 0.66800
K 	K 	0.50000 0.00000 0.50000 0.66800
K 	K 	-0.00000 0.00000 -0.00000 0.66800
N 	N 	0.47930 0.21620 0.97930 0.10800
N 	N 	0.47930 0.71620 0.47930 0.01400
N 	N 	0.52070 0.78380 0.97930 0.12900
N 	N 	0.52070 0.28380 0.47930 0.00400
N 	N 	0.02070 0.78380 0.47930 -0.12300
N 	N 	0.52070 0.21620 0.02070 -0.09700
N 	N 	0.52070 0.71620 0.52070 -0.00300
N 	N 	0.02070 0.71620 0.02070 -0.09100
N 	N 	0.47930 0.78380 0.02070 -0.12300
N 	N 	0.47930 0.28380 0.52070 0.00400
N 	N 	0.97930 0.47930 0.21620 0.10800
N 	N 	0.97930 0.97930 0.71620 0.15200
N 	N 	0.47930 0.47930 0.71620 0.01400
N 	N 	0.97930 0.52070 0.78380 0.12900
N 	N 	0.97930 0.02070 0.28380 -0.02400
N 	N 	0.47930 0.02070 0.78380 -0.12300
N 	N 	0.02070 0.52070 0.21620 -0.09700
N 	N 	0.02070 0.02070 0.71620 -0.09100
N 	N 	0.02070 0.47930 0.78380 -0.12300
N 	N 	0.02070 0.97930 0.28380 -0.02400
N 	N 	0.21620 0.97930 0.47930 0.10800
N 	N 	0.71620 0.97930 0.97930 0.15200
N 	N 	0.71620 0.47930 0.47930 0.01400
N 	N 	0.78380 0.97930 0.52070 0.12900
N 	N 	0.78380 0.47930 0.02070 -0.12300
N 	N 	0.28380 0.97930 0.02070 -0.02400
N 	N 	0.21620 0.02070 0.52070 -0.09700
N 	N 	0.71620 0.02070 0.02070 -0.09100
N 	N 	0.78380 0.02070 0.47930 -0.12300
N 	N 	0.28380 0.02070 0.97930 -0.02400
N 	N 	0.21620 0.47930 0.02070 -0.08600
N 	N 	0.71620 0.47930 0.52070 0.00600
N 	N 	0.78380 0.52070 0.02070 -0.13100
N 	N 	0.28380 0.52070 0.52070 0.00700
N 	N 	0.28380 0.02070 0.02070 -0.00500
N 	N 	0.21620 0.52070 0.97930 0.09900
N 	N 	0.21620 0.02070 0.47930 -0.08600
N 	N 	0.71620 0.52070 0.47930 0.00600
N 	N 	0.78380 0.47930 0.97930 0.13600
N 	N 	0.28380 0.47930 0.47930 0.00000
N 	N 	0.47930 0.97930 0.78380 0.13600
N 	N 	0.47930 0.47930 0.28380 0.00000
N 	N 	0.52070 0.97930 0.21620 0.09900
N 	N 	0.52070 0.47930 0.71620 0.00600
N 	N 	0.02070 0.47930 0.21620 -0.08600
N 	N 	0.52070 0.02070 0.78380 -0.13100
N 	N 	0.52070 0.52070 0.28380 0.00700
N 	N 	0.02070 0.02070 0.28380 -0.00500
N 	N 	0.47930 0.02070 0.21620 -0.08600
N 	N 	0.47930 0.52070 0.71620 0.00600
N 	N 	0.97930 0.21620 0.52070 0.09900
N 	N 	0.97930 0.71620 0.02070 -0.02400
N 	N 	0.47930 0.21620 0.02070 -0.08600
N 	N 	0.97930 0.78380 0.47930 0.13600
N 	N 	0.97930 0.28380 0.97930 0.06700
N 	N 	0.47930 0.28380 0.47930 0.00000
N 	N 	0.02070 0.21620 0.47930 -0.08600
N 	N 	0.02070 0.71620 0.97930 -0.02400
N 	N 	0.02070 0.78380 0.52070 -0.13100
N 	N 	0.02070 0.28380 0.02070 -0.00500
N 	N 	0.52070 0.78380 0.02070 -0.13100
N 	N 	0.52070 0.28380 0.52070 0.00700
N 	N 	0.47930 0.71620 0.52070 0.00600
N 	N 	0.47930 0.78380 0.97930 0.13600
N 	N 	0.52070 0.21620 0.97930 0.09900
N 	N 	0.52070 0.71620 0.47930 0.00600
N 	N 	0.02070 0.52070 0.78380 -0.13100
N 	N 	0.02070 0.97930 0.71620 -0.02400
N 	N 	0.97930 0.47930 0.78380 0.13600
N 	N 	0.97930 0.97930 0.28380 0.06700
N 	N 	0.97930 0.52070 0.21620 0.09900
N 	N 	0.97930 0.02070 0.71620 -0.02400
N 	N 	0.78380 0.02070 0.52070 -0.13100
N 	N 	0.71620 0.02070 0.97930 -0.02400
N 	N 	0.78380 0.97930 0.47930 0.13600
N 	N 	0.28380 0.97930 0.97930 0.06700
N 	N 	0.21620 0.97930 0.52070 0.09900
N 	N 	0.71620 0.97930 0.02070 -0.02400
N 	N 	0.78380 0.52070 0.97930 0.12900
N 	N 	0.28380 0.52070 0.47930 0.00400
N 	N 	0.21620 0.47930 0.97930 0.10800
N 	N 	0.28380 0.47930 0.52070 0.00400
N 	N 	0.21620 0.52070 0.02070 -0.09700
N 	N 	0.71620 0.52070 0.52070 -0.00300
N 	N 	0.52070 0.02070 0.21620 -0.09700
N 	N 	0.52070 0.52070 0.71620 -0.00300
N 	N 	0.47930 0.52070 0.28380 0.00400
N 	N 	0.47930 0.97930 0.21620 0.10800
N 	N 	0.52070 0.97930 0.78380 0.12900
N 	N 	0.52070 0.47930 0.28380 0.00400
N 	N 	0.02070 0.28380 0.97930 -0.02400
N 	N 	0.02070 0.21620 0.52070 -0.09700
N 	N 	0.97930 0.78380 0.52070 0.12900
N 	N 	0.97930 0.28380 0.02070 -0.02400
N 	N 	0.97930 0.21620 0.47930 0.10800
N 	N 	0.97930 0.71620 0.97930 0.15200
N 	N 	0.51900 0.29250 -0.00000 -0.01300
N 	N 	0.51900 0.79250 0.50000 0.01400
N 	N 	0.01900 0.29250 0.50000 0.34500
N 	N 	0.01900 0.79250 -0.00000 0.21000
N 	N 	0.48100 0.70750 -0.00000 -0.06600
N 	N 	0.48100 0.20750 0.50000 -0.02100
N 	N 	0.98100 0.70750 0.50000 -0.46100
N 	N 	0.98100 0.20750 -0.00000 -0.04900
N 	N 	0.48100 0.29250 -0.00000 -0.05600
N 	N 	0.48100 0.79250 0.50000 -0.04300
N 	N 	0.98100 0.29250 0.50000 -0.34800
N 	N 	0.98100 0.79250 -0.00000 -0.23700
N 	N 	0.51900 0.70750 -0.00000 -0.01400
N 	N 	0.51900 0.20750 0.50000 -0.02100
N 	N 	0.01900 0.70750 0.50000 0.48300
N 	N 	0.01900 0.20750 -0.00000 0.01500
N 	N 	0.00000 0.51900 0.29250 -0.01300
N 	N 	0.00000 0.01900 0.79250 0.21000
N 	N 	0.50000 0.51900 0.79250 0.01400
N 	N 	0.50000 0.01900 0.29250 0.34500
N 	N 	0.00000 0.48100 0.70750 -0.06600
N 	N 	0.00000 0.98100 0.20750 -0.04900
N 	N 	0.50000 0.48100 0.20750 -0.02100
N 	N 	0.50000 0.98100 0.70750 -0.46100
N 	N 	0.00000 0.48100 0.29250 -0.05600
N 	N 	-0.00000 0.98100 0.79250 -0.23700
N 	N 	0.50000 0.48100 0.79250 -0.04300
N 	N 	0.50000 0.98100 0.29250 -0.34800
N 	N 	-0.00000 0.51900 0.70750 -0.01400
N 	N 	0.00000 0.01900 0.20750 0.01500
N 	N 	0.50000 0.51900 0.20750 -0.02100
N 	N 	0.50000 0.01900 0.70750 0.48300
N 	N 	0.29250 0.00000 0.51900 -0.01300
N 	N 	0.29250 0.50000 0.01900 0.34500
N 	N 	0.79250 -0.00000 0.01900 0.21000
N 	N 	0.79250 0.50000 0.51900 0.01400
N 	N 	0.70750 0.00000 0.48100 -0.06600
N 	N 	0.70750 0.50000 0.98100 -0.46100
N 	N 	0.20750 0.00000 0.98100 -0.04900
N 	N 	0.20750 0.50000 0.48100 -0.02100
N 	N 	0.29250 0.00000 0.48100 -0.05600
N 	N 	0.29250 0.50000 0.98100 -0.34800
N 	N 	0.79250 0.00000 0.98100 -0.23700
N 	N 	0.79250 0.50000 0.48100 -0.04300
N 	N 	0.70750 0.00000 0.51900 -0.01400
N 	N 	0.70750 0.50000 0.01900 0.48300
N 	N 	0.20750 -0.00000 0.01900 0.01500
N 	N 	0.20750 0.50000 0.51900 -0.02100
N 	N 	0.29250 0.51900 -0.00000 -0.01300
N 	N 	0.29250 0.01900 0.50000 0.34500
N 	N 	0.79250 0.51900 0.50000 0.01400
N 	N 	0.79250 0.01900 -0.00000 0.21000
N 	N 	0.70750 0.48100 -0.00000 -0.06600
N 	N 	0.70750 0.98100 0.50000 -0.46100
N 	N 	0.20750 0.48100 0.50000 -0.02100
N 	N 	0.20750 0.98100 -0.00000 -0.04900
N 	N 	0.29250 0.48100 -0.00000 -0.05600
N 	N 	0.29250 0.98100 0.50000 -0.34800
N 	N 	0.79250 0.48100 0.50000 -0.04300
N 	N 	0.79250 0.98100 -0.00000 -0.23700
N 	N 	0.70750 0.51900 -0.00000 -0.01400
N 	N 	0.70750 0.01900 0.50000 0.48300
N 	N 	0.20750 0.51900 0.50000 -0.02100
N 	N 	0.20750 0.01900 -0.00000 0.01500
N 	N 	0.51900 0.00000 0.70750 -0.01400
N 	N 	0.51900 0.50000 0.20750 -0.02100
N 	N 	0.01900 0.00000 0.20750 0.01500
N 	N 	0.01900 0.50000 0.70750 0.48300
N 	N 	0.48100 0.00000 0.29250 -0.05600
N 	N 	0.48100 0.50000 0.79250 -0.04300
N 	N 	0.98100 0.00000 0.79250 -0.23700
N 	N 	0.98100 0.50000 0.29250 -0.34800
N 	N 	0.48100 0.00000 0.70750 -0.06600
N 	N 	0.48100 0.50000 0.20750 -0.02100
N 	N 	0.98100 0.00000 0.20750 -0.04900
N 	N 	0.98100 0.50000 0.70750 -0.46100
N 	N 	0.51900 0.00000 0.29250 -0.01300
N 	N 	0.51900 0.50000 0.79250 0.01400
N 	N 	0.01900 0.00000 0.79250 0.21000
N 	N 	0.01900 0.50000 0.29250 0.34500
N 	N 	0.00000 0.29250 0.48100 -0.05600
N 	N 	-0.00000 0.79250 0.98100 -0.23700
N 	N 	0.50000 0.29250 0.98100 -0.34800
N 	N 	0.50000 0.79250 0.48100 -0.04300
N 	N 	0.00000 0.70750 0.51900 -0.01400
N 	N 	0.00000 0.20750 0.01900 0.01500
N 	N 	0.50000 0.70750 0.01900 0.48300
N 	N 	0.50000 0.20750 0.51900 -0.02100
N 	N 	0.00000 0.29250 0.51900 -0.01300
N 	N 	0.00000 0.79250 0.01900 0.21000
N 	N 	0.50000 0.29250 0.01900 0.34500
N 	N 	0.50000 0.79250 0.51900 0.01400
N 	N 	0.00000 0.70750 0.48100 -0.06600
N 	N 	0.00000 0.20750 0.98100 -0.04900
N 	N 	0.50000 0.70750 0.98100 -0.46100
N 	N 	0.50000 0.20750 0.48100 -0.02100
Fe	Fe	0.50000 0.00000 -0.00000 1.28500
Fe	Fe	0.50000 0.50000 0.50000 1.27000
Fe	Fe	0.00000 0.00000 0.50000 1.28500
Fe	Fe	-0.00000 0.50000 -0.00000 1.28500
