data_crystal

_cell_length_a 13.16760
_cell_length_b 13.16760
_cell_length_c 13.16760
_cell_angle_alpha 90.00000
_cell_angle_beta  90.00000
_cell_angle_gamma 90.00000

_symmetry_space_group_name_	'P 1'
_symmetry_space_group_name_H-M	'P 1'

loop_
_symmetry_equiv_pos_as_xyz
  x,y,z

loop_
_atom_site_label
_atom_site_type_symbol
_atom_site_fract_x
_atom_site_fract_y
_atom_site_fract_z
_atom_site_charge
N 	N 	0.63696 0.93517 0.95472 -0.08300
N 	N 	0.71536 0.97992 0.96006 0.08600
N 	N 	0.79265 0.02143 0.96375 -0.12100
N 	N 	0.86304 0.06483 0.45472 -0.13700
N 	N 	0.78464 0.02008 0.46006 -0.11800
N 	N 	0.70735 0.97857 0.46375 0.01500
N 	N 	0.36304 0.43517 0.54528 -0.17600
N 	N 	0.28464 0.47992 0.53994 -0.03400
N 	N 	0.20735 0.52143 0.53625 -0.11600
N 	N 	0.13696 0.56483 0.04528 -0.23100
N 	N 	0.21536 0.52008 0.03994 -0.05400
N 	N 	0.29265 0.47857 0.03625 -0.14200
N 	N 	0.95472 0.63696 0.93517 -0.08200
N 	N 	0.96006 0.71536 0.97992 0.08600
N 	N 	0.96375 0.79265 0.02143 -0.12100
N 	N 	0.45472 0.86304 0.06483 -0.13700
N 	N 	0.46006 0.78464 0.02008 -0.11800
N 	N 	0.46375 0.70735 0.97857 0.01500
N 	N 	0.54528 0.36304 0.43517 -0.17600
N 	N 	0.53994 0.28464 0.47992 -0.03400
N 	N 	0.53625 0.20735 0.52143 -0.11600
N 	N 	0.04528 0.13696 0.56483 -0.23100
N 	N 	0.03994 0.21536 0.52008 -0.05400
N 	N 	0.03625 0.29265 0.47857 -0.14200
N 	N 	0.93517 0.95472 0.63696 -0.08200
N 	N 	0.97992 0.96006 0.71536 0.08600
N 	N 	0.02143 0.96375 0.79265 -0.12100
N 	N 	0.06483 0.45472 0.86304 -0.13700
N 	N 	0.02008 0.46006 0.78464 -0.11800
N 	N 	0.97857 0.46375 0.70735 0.01500
N 	N 	0.43517 0.54528 0.36304 -0.17600
N 	N 	0.47992 0.53994 0.28464 -0.03400
N 	N 	0.52143 0.53625 0.20735 -0.11600
N 	N 	0.56483 0.04528 0.13696 -0.23100
N 	N 	0.52008 0.03994 0.21536 -0.05400
N 	N 	0.47857 0.03625 0.29265 -0.14200
N 	N 	0.36304 0.06483 0.04528 -0.22300
N 	N 	0.28464 0.02008 0.03994 -0.14900
N 	N 	0.20735 0.97857 0.03625 -0.04500
N 	N 	0.13696 0.93517 0.54528 -0.16400
N 	N 	0.21536 0.97992 0.53994 0.06400
N 	N 	0.29265 0.02143 0.53625 -0.20300
N 	N 	0.63696 0.56483 0.45472 -0.16500
N 	N 	0.71536 0.52008 0.46006 -0.02700
N 	N 	0.79265 0.47857 0.46375 -0.07200
N 	N 	0.86304 0.43517 0.95472 -0.07400
N 	N 	0.78464 0.47992 0.96006 -0.00300
N 	N 	0.70735 0.52143 0.96375 -0.04400
N 	N 	0.04528 0.36304 0.06483 -0.22300
N 	N 	0.03994 0.28464 0.02008 -0.14900
N 	N 	0.03625 0.20735 0.97857 -0.04500
N 	N 	0.54528 0.13696 0.93517 -0.16400
N 	N 	0.53994 0.21536 0.97992 0.06400
N 	N 	0.53625 0.29265 0.02143 -0.20300
N 	N 	0.45472 0.63696 0.56483 -0.16500
N 	N 	0.46006 0.71536 0.52008 -0.02700
N 	N 	0.46375 0.79265 0.47857 -0.07200
N 	N 	0.95472 0.86304 0.43517 -0.07400
N 	N 	0.96006 0.78464 0.47992 -0.00300
N 	N 	0.96375 0.70735 0.52143 -0.04400
N 	N 	0.06483 0.04528 0.36304 -0.22300
N 	N 	0.02008 0.03994 0.28464 -0.14900
N 	N 	0.97857 0.03625 0.20735 -0.04500
N 	N 	0.93517 0.54528 0.13696 -0.16400
N 	N 	0.97992 0.53994 0.21536 0.06400
N 	N 	0.02143 0.53625 0.29265 -0.20300
N 	N 	0.56483 0.45472 0.63696 -0.16500
N 	N 	0.52008 0.46006 0.71536 -0.02700
N 	N 	0.47857 0.46375 0.79265 -0.07200
N 	N 	0.43517 0.95472 0.86304 -0.07400
N 	N 	0.47992 0.96006 0.78464 -0.00300
N 	N 	0.52143 0.96375 0.70735 -0.04400
Fe	Fe	0.50000 0.00000 -0.00000 1.01700
Fe	Fe	0.00000 0.00000 0.50000 1.01700
Fe	Fe	0.50000 0.50000 0.50000 1.16300
Fe	Fe	-0.00000 0.50000 -0.00000 1.01700
K 	K 	-0.00000 0.00000 -0.00000 0.56000
K 	K 	0.50000 0.00000 0.50000 0.62400
K 	K 	0.00000 0.50000 0.50000 0.62400
K 	K 	0.50000 0.50000 -0.00000 0.62400
