data_crystal

_cell_length_a 13.35110
_cell_length_b 13.35110
_cell_length_c 13.35110
_cell_angle_alpha 90.00000
_cell_angle_beta  90.00000
_cell_angle_gamma 90.00000

_symmetry_space_group_name_	'P 1'
_symmetry_space_group_name_H-M	'P 1'

loop_
_symmetry_equiv_pos_as_xyz
  x,y,z

loop_
_atom_site_label
_atom_site_type_symbol
_atom_site_fract_x
_atom_site_fract_y
_atom_site_fract_z
_atom_site_charge
N 	N 	0.43860 0.13870 0.96510 -0.01200
N 	N 	0.43860 0.63870 0.46510 -0.05000
N 	N 	0.93860 0.13870 0.46510 -0.06600
N 	N 	0.93860 0.63870 0.96510 0.06400
N 	N 	0.56140 0.86130 0.96510 0.47100
N 	N 	0.56140 0.36130 0.46510 -0.05300
N 	N 	0.06140 0.86130 0.46510 0.26900
N 	N 	0.06140 0.36130 0.96510 0.40000
N 	N 	0.56140 0.13870 0.03490 -0.07600
N 	N 	0.56140 0.63870 0.53490 -0.01800
N 	N 	0.06140 0.13870 0.53490 -0.02000
N 	N 	0.06140 0.63870 0.03490 -0.16100
N 	N 	0.43860 0.86130 0.03490 -0.52100
N 	N 	0.43860 0.36130 0.53490 -0.01800
N 	N 	0.93860 0.86130 0.53490 -0.32200
N 	N 	0.93860 0.36130 0.03490 -0.44100
N 	N 	0.96510 0.43860 0.13870 -0.01100
N 	N 	0.96510 0.93860 0.63870 0.06500
N 	N 	0.46510 0.43860 0.63870 -0.04900
N 	N 	0.46510 0.93860 0.13870 -0.06500
N 	N 	0.96510 0.56140 0.86130 0.47200
N 	N 	0.96510 0.06140 0.36130 0.40100
N 	N 	0.46510 0.56140 0.36130 -0.05200
N 	N 	0.46510 0.06140 0.86130 0.27000
N 	N 	0.03490 0.56140 0.13870 -0.07600
N 	N 	0.03490 0.06140 0.63870 -0.16100
N 	N 	0.53490 0.56140 0.63870 -0.01800
N 	N 	0.53490 0.06140 0.13870 -0.02000
N 	N 	0.03490 0.43860 0.86130 -0.52100
N 	N 	0.03490 0.93860 0.36130 -0.44100
N 	N 	0.53490 0.43860 0.36130 -0.01800
N 	N 	0.53490 0.93860 0.86130 -0.32200
N 	N 	0.13870 0.96510 0.43860 -0.01100
N 	N 	0.13870 0.46510 0.93860 -0.06500
N 	N 	0.63870 0.96510 0.93860 0.06500
N 	N 	0.63870 0.46510 0.43860 -0.04900
N 	N 	0.86130 0.96510 0.56140 0.47200
N 	N 	0.86130 0.46510 0.06140 0.27000
N 	N 	0.36130 0.96510 0.06140 0.40100
N 	N 	0.36130 0.46510 0.56140 -0.05200
N 	N 	0.13870 0.03490 0.56140 -0.07600
N 	N 	0.13870 0.53490 0.06140 -0.02000
N 	N 	0.63870 0.03490 0.06140 -0.16100
N 	N 	0.63870 0.53490 0.56140 -0.01800
N 	N 	0.86130 0.03490 0.43860 -0.52100
N 	N 	0.86130 0.53490 0.93860 -0.32200
N 	N 	0.36130 0.03490 0.93860 -0.44100
N 	N 	0.36130 0.53490 0.43860 -0.01800
N 	N 	0.13870 0.43860 0.03490 -0.11500
N 	N 	0.13870 0.93860 0.53490 -0.13600
N 	N 	0.63870 0.43860 0.53490 0.04100
N 	N 	0.63870 0.93860 0.03490 -0.62400
N 	N 	0.86130 0.56140 0.03490 -0.60600
N 	N 	0.86130 0.06140 0.53490 0.41600
N 	N 	0.36130 0.56140 0.53490 -0.03500
N 	N 	0.36130 0.06140 0.03490 -0.12600
N 	N 	0.13870 0.56140 0.96510 0.02300
N 	N 	0.13870 0.06140 0.46510 0.03700
N 	N 	0.63870 0.56140 0.46510 -0.10500
N 	N 	0.63870 0.06140 0.96510 0.58700
N 	N 	0.86130 0.43860 0.96510 0.56200
N 	N 	0.86130 0.93860 0.46510 -0.45300
N 	N 	0.36130 0.43860 0.46510 -0.03700
N 	N 	0.36130 0.93860 0.96510 0.02700
N 	N 	0.43860 0.96510 0.86130 0.56200
N 	N 	0.43860 0.46510 0.36130 -0.03700
N 	N 	0.93860 0.96510 0.36130 0.02700
N 	N 	0.93860 0.46510 0.86130 -0.45300
N 	N 	0.56140 0.96510 0.13870 0.02300
N 	N 	0.56140 0.46510 0.63870 -0.10500
N 	N 	0.06140 0.96510 0.63870 0.58700
N 	N 	0.06140 0.46510 0.13870 0.03700
N 	N 	0.56140 0.03490 0.86130 -0.60600
N 	N 	0.56140 0.53490 0.36130 -0.03500
N 	N 	0.06140 0.03490 0.36130 -0.12600
N 	N 	0.06140 0.53490 0.86130 0.41600
N 	N 	0.43860 0.03490 0.13870 -0.11500
N 	N 	0.43860 0.53490 0.63870 0.04100
N 	N 	0.93860 0.03490 0.63870 -0.62400
N 	N 	0.93860 0.53490 0.13870 -0.13600
N 	N 	0.96510 0.13870 0.56140 0.02300
N 	N 	0.96510 0.63870 0.06140 0.58700
N 	N 	0.46510 0.13870 0.06140 0.03700
N 	N 	0.46510 0.63870 0.56140 -0.10500
N 	N 	0.96510 0.86130 0.43860 0.56200
N 	N 	0.96510 0.36130 0.93860 0.02700
N 	N 	0.46510 0.86130 0.93860 -0.45300
N 	N 	0.46510 0.36130 0.43860 -0.03700
N 	N 	0.03490 0.13870 0.43860 -0.11500
N 	N 	0.03490 0.63870 0.93860 -0.62400
N 	N 	0.53490 0.13870 0.93860 -0.13600
N 	N 	0.53490 0.63870 0.43860 0.04100
N 	N 	0.03490 0.86130 0.56140 -0.60600
N 	N 	0.03490 0.36130 0.06140 -0.12600
N 	N 	0.53490 0.86130 0.06140 0.41600
N 	N 	0.53490 0.36130 0.56140 -0.03500
N 	N 	0.56140 0.86130 0.03490 -0.60600
N 	N 	0.56140 0.36130 0.53490 -0.03500
N 	N 	0.06140 0.86130 0.53490 0.41600
N 	N 	0.06140 0.36130 0.03490 -0.12600
N 	N 	0.43860 0.13870 0.03490 -0.11500
N 	N 	0.43860 0.63870 0.53490 0.04100
N 	N 	0.93860 0.13870 0.53490 -0.13600
N 	N 	0.93860 0.63870 0.03490 -0.62400
N 	N 	0.43860 0.86130 0.96510 0.56200
N 	N 	0.43860 0.36130 0.46510 -0.03700
N 	N 	0.93860 0.86130 0.46510 -0.45300
N 	N 	0.93860 0.36130 0.96510 0.02700
N 	N 	0.56140 0.13870 0.96510 0.02300
N 	N 	0.56140 0.63870 0.46510 -0.10500
N 	N 	0.06140 0.13870 0.46510 0.03700
N 	N 	0.06140 0.63870 0.96510 0.58700
N 	N 	0.03490 0.56140 0.86130 -0.60600
N 	N 	0.03490 0.06140 0.36130 -0.12600
N 	N 	0.53490 0.56140 0.36130 -0.03500
N 	N 	0.53490 0.06140 0.86130 0.41600
N 	N 	0.03490 0.43860 0.13870 -0.11500
N 	N 	0.03490 0.93860 0.63870 -0.62400
N 	N 	0.53490 0.43860 0.63870 0.04100
N 	N 	0.53490 0.93860 0.13870 -0.13600
N 	N 	0.96510 0.43860 0.86130 0.56200
N 	N 	0.96510 0.93860 0.36130 0.02700
N 	N 	0.46510 0.43860 0.36130 -0.03700
N 	N 	0.46510 0.93860 0.86130 -0.45300
N 	N 	0.96510 0.56140 0.13870 0.02300
N 	N 	0.96510 0.06140 0.63870 0.58700
N 	N 	0.46510 0.56140 0.63870 -0.10500
N 	N 	0.46510 0.06140 0.13870 0.03700
N 	N 	0.86130 0.03490 0.56140 -0.60600
N 	N 	0.86130 0.53490 0.06140 0.41600
N 	N 	0.36130 0.03490 0.06140 -0.12600
N 	N 	0.36130 0.53490 0.56140 -0.03500
N 	N 	0.13870 0.03490 0.43860 -0.11500
N 	N 	0.13870 0.53490 0.93860 -0.13600
N 	N 	0.63870 0.03490 0.93860 -0.62400
N 	N 	0.63870 0.53490 0.43860 0.04100
N 	N 	0.86130 0.96510 0.43860 0.56200
N 	N 	0.86130 0.46510 0.93860 -0.45300
N 	N 	0.36130 0.96510 0.93860 0.02700
N 	N 	0.36130 0.46510 0.43860 -0.03700
N 	N 	0.13870 0.96510 0.56140 0.02300
N 	N 	0.13870 0.46510 0.06140 0.03700
N 	N 	0.63870 0.96510 0.06140 0.58700
N 	N 	0.63870 0.46510 0.56140 -0.10500
N 	N 	0.86130 0.56140 0.96510 0.47200
N 	N 	0.86130 0.06140 0.46510 0.27000
N 	N 	0.36130 0.56140 0.46510 -0.05200
N 	N 	0.36130 0.06140 0.96510 0.40100
N 	N 	0.13870 0.43860 0.96510 -0.01100
N 	N 	0.13870 0.93860 0.46510 -0.06500
N 	N 	0.63870 0.43860 0.46510 -0.04900
N 	N 	0.63870 0.93860 0.96510 0.06500
N 	N 	0.86130 0.43860 0.03490 -0.52100
N 	N 	0.86130 0.93860 0.53490 -0.32200
N 	N 	0.36130 0.43860 0.53490 -0.01800
N 	N 	0.36130 0.93860 0.03490 -0.44100
N 	N 	0.13870 0.56140 0.03490 -0.07600
N 	N 	0.13870 0.06140 0.53490 -0.02000
N 	N 	0.63870 0.56140 0.53490 -0.01800
N 	N 	0.63870 0.06140 0.03490 -0.16100
N 	N 	0.56140 0.03490 0.13870 -0.07600
N 	N 	0.56140 0.53490 0.63870 -0.01800
N 	N 	0.06140 0.03490 0.63870 -0.16100
N 	N 	0.06140 0.53490 0.13870 -0.02000
N 	N 	0.43860 0.03490 0.86130 -0.52100
N 	N 	0.43860 0.53490 0.36130 -0.01800
N 	N 	0.93860 0.03490 0.36130 -0.44100
N 	N 	0.93860 0.53490 0.86130 -0.32200
N 	N 	0.43860 0.96510 0.13870 -0.01100
N 	N 	0.43860 0.46510 0.63870 -0.04900
N 	N 	0.93860 0.96510 0.63870 0.06500
N 	N 	0.93860 0.46510 0.13870 -0.06500
N 	N 	0.56140 0.96510 0.86130 0.47200
N 	N 	0.56140 0.46510 0.36130 -0.05200
N 	N 	0.06140 0.96510 0.36130 0.40100
N 	N 	0.06140 0.46510 0.86130 0.27000
N 	N 	0.03490 0.86130 0.43860 -0.52100
N 	N 	0.03490 0.36130 0.93860 -0.44100
N 	N 	0.53490 0.86130 0.93860 -0.32200
N 	N 	0.53490 0.36130 0.43860 -0.01800
N 	N 	0.03490 0.13870 0.56140 -0.07600
N 	N 	0.03490 0.63870 0.06140 -0.16100
N 	N 	0.53490 0.13870 0.06140 -0.02000
N 	N 	0.53490 0.63870 0.56140 -0.01800
N 	N 	0.96510 0.86130 0.56140 0.47200
N 	N 	0.96510 0.36130 0.06140 0.40100
N 	N 	0.46510 0.86130 0.06140 0.27000
N 	N 	0.46510 0.36130 0.56140 -0.05200
N 	N 	0.96510 0.13870 0.43860 -0.01100
N 	N 	0.96510 0.63870 0.93860 0.06500
N 	N 	0.46510 0.13870 0.93860 -0.06500
N 	N 	0.46510 0.63870 0.43860 -0.04900
K 	K 	0.50000 0.50000 -0.00000 0.66500
K 	K 	0.00000 0.50000 0.50000 0.66500
K 	K 	0.50000 0.00000 0.50000 0.66500
K 	K 	-0.00000 0.00000 -0.00000 0.66200
N 	N 	0.47900 0.21620 0.97900 0.03300
N 	N 	0.47900 0.71620 0.47900 0.00500
N 	N 	0.52100 0.78380 0.97900 0.06800
N 	N 	0.52100 0.28380 0.47900 0.00500
N 	N 	0.02100 0.78380 0.47900 -0.06200
N 	N 	0.52100 0.21620 0.02100 -0.02000
N 	N 	0.52100 0.71620 0.52100 0.00400
N 	N 	0.02100 0.71620 0.02100 -0.00500
N 	N 	0.47900 0.78380 0.02100 -0.06200
N 	N 	0.47900 0.28380 0.52100 0.00500
N 	N 	0.97900 0.47900 0.21620 0.03300
N 	N 	0.97900 0.97900 0.71620 0.04500
N 	N 	0.47900 0.47900 0.71620 0.00500
N 	N 	0.97900 0.52100 0.78380 0.06800
N 	N 	0.97900 0.02100 0.28380 -0.01100
N 	N 	0.47900 0.02100 0.78380 -0.06200
N 	N 	0.02100 0.52100 0.21620 -0.02000
N 	N 	0.02100 0.02100 0.71620 -0.00500
N 	N 	0.02100 0.47900 0.78380 -0.06200
N 	N 	0.02100 0.97900 0.28380 -0.01100
N 	N 	0.21620 0.97900 0.47900 0.03300
N 	N 	0.71620 0.97900 0.97900 0.04500
N 	N 	0.71620 0.47900 0.47900 0.00500
N 	N 	0.78380 0.97900 0.52100 0.06800
N 	N 	0.78380 0.47900 0.02100 -0.06200
N 	N 	0.28380 0.97900 0.02100 -0.01100
N 	N 	0.21620 0.02100 0.52100 -0.02000
N 	N 	0.71620 0.02100 0.02100 -0.00500
N 	N 	0.78380 0.02100 0.47900 -0.06200
N 	N 	0.28380 0.02100 0.97900 -0.01100
N 	N 	0.21620 0.47900 0.02100 -0.01600
N 	N 	0.71620 0.47900 0.52100 0.00600
N 	N 	0.78380 0.52100 0.02100 -0.05800
N 	N 	0.28380 0.52100 0.52100 0.01300
N 	N 	0.28380 0.02100 0.02100 0.06000
N 	N 	0.21620 0.52100 0.97900 0.02600
N 	N 	0.21620 0.02100 0.47900 -0.01600
N 	N 	0.71620 0.52100 0.47900 0.00600
N 	N 	0.78380 0.47900 0.97900 0.06600
N 	N 	0.28380 0.47900 0.47900 -0.00500
N 	N 	0.47900 0.97900 0.78380 0.06600
N 	N 	0.47900 0.47900 0.28380 -0.00500
N 	N 	0.52100 0.97900 0.21620 0.02600
N 	N 	0.52100 0.47900 0.71620 0.00600
N 	N 	0.02100 0.47900 0.21620 -0.01600
N 	N 	0.52100 0.02100 0.78380 -0.05800
N 	N 	0.52100 0.52100 0.28380 0.01300
N 	N 	0.02100 0.02100 0.28380 0.06000
N 	N 	0.47900 0.02100 0.21620 -0.01600
N 	N 	0.47900 0.52100 0.71620 0.00600
N 	N 	0.97900 0.21620 0.52100 0.02600
N 	N 	0.97900 0.71620 0.02100 -0.01100
N 	N 	0.47900 0.21620 0.02100 -0.01600
N 	N 	0.97900 0.78380 0.47900 0.06600
N 	N 	0.97900 0.28380 0.97900 -0.01900
N 	N 	0.47900 0.28380 0.47900 -0.00500
N 	N 	0.02100 0.21620 0.47900 -0.01600
N 	N 	0.02100 0.71620 0.97900 -0.01100
N 	N 	0.02100 0.78380 0.52100 -0.05800
N 	N 	0.02100 0.28380 0.02100 0.06000
N 	N 	0.52100 0.78380 0.02100 -0.05800
N 	N 	0.52100 0.28380 0.52100 0.01300
N 	N 	0.47900 0.71620 0.52100 0.00600
N 	N 	0.47900 0.78380 0.97900 0.06600
N 	N 	0.52100 0.21620 0.97900 0.02600
N 	N 	0.52100 0.71620 0.47900 0.00600
N 	N 	0.02100 0.52100 0.78380 -0.05800
N 	N 	0.02100 0.97900 0.71620 -0.01100
N 	N 	0.97900 0.47900 0.78380 0.06600
N 	N 	0.97900 0.97900 0.28380 -0.01900
N 	N 	0.97900 0.52100 0.21620 0.02600
N 	N 	0.97900 0.02100 0.71620 -0.01100
N 	N 	0.78380 0.02100 0.52100 -0.05800
N 	N 	0.71620 0.02100 0.97900 -0.01100
N 	N 	0.78380 0.97900 0.47900 0.06600
N 	N 	0.28380 0.97900 0.97900 -0.01900
N 	N 	0.21620 0.97900 0.52100 0.02600
N 	N 	0.71620 0.97900 0.02100 -0.01100
N 	N 	0.78380 0.52100 0.97900 0.06800
N 	N 	0.28380 0.52100 0.47900 0.00500
N 	N 	0.21620 0.47900 0.97900 0.03300
N 	N 	0.28380 0.47900 0.52100 0.00500
N 	N 	0.21620 0.52100 0.02100 -0.02000
N 	N 	0.71620 0.52100 0.52100 0.00400
N 	N 	0.52100 0.02100 0.21620 -0.02000
N 	N 	0.52100 0.52100 0.71620 0.00400
N 	N 	0.47900 0.52100 0.28380 0.00500
N 	N 	0.47900 0.97900 0.21620 0.03300
N 	N 	0.52100 0.97900 0.78380 0.06800
N 	N 	0.52100 0.47900 0.28380 0.00500
N 	N 	0.02100 0.28380 0.97900 -0.01100
N 	N 	0.02100 0.21620 0.52100 -0.02000
N 	N 	0.97900 0.78380 0.52100 0.06800
N 	N 	0.97900 0.28380 0.02100 -0.01100
N 	N 	0.97900 0.21620 0.47900 0.03300
N 	N 	0.97900 0.71620 0.97900 0.04500
N 	N 	0.51900 0.29260 -0.00000 -0.01000
N 	N 	0.51900 0.79260 0.50000 -0.00100
N 	N 	0.01900 0.29260 0.50000 0.04000
N 	N 	0.01900 0.79260 -0.00000 -0.01900
N 	N 	0.48100 0.70740 -0.00000 -0.03000
N 	N 	0.48100 0.20740 0.50000 -0.00300
N 	N 	0.98100 0.70740 0.50000 -0.18000
N 	N 	0.98100 0.20740 -0.00000 0.11900
N 	N 	0.48100 0.29260 -0.00000 -0.02500
N 	N 	0.48100 0.79260 0.50000 -0.03100
N 	N 	0.98100 0.29260 0.50000 -0.07700
N 	N 	0.98100 0.79260 -0.00000 -0.01400
N 	N 	0.51900 0.70740 -0.00000 -0.01300
N 	N 	0.51900 0.20740 0.50000 -0.03400
N 	N 	0.01900 0.70740 0.50000 0.15900
N 	N 	0.01900 0.20740 -0.00000 -0.15300
N 	N 	-0.00000 0.51900 0.29260 -0.01000
N 	N 	-0.00000 0.01900 0.79260 -0.01900
N 	N 	0.50000 0.51900 0.79260 -0.00100
N 	N 	0.50000 0.01900 0.29260 0.04000
N 	N 	0.00000 0.48100 0.70740 -0.03000
N 	N 	0.00000 0.98100 0.20740 0.11900
N 	N 	0.50000 0.48100 0.20740 -0.00300
N 	N 	0.50000 0.98100 0.70740 -0.18000
N 	N 	-0.00000 0.48100 0.29260 -0.02500
N 	N 	-0.00000 0.98100 0.79260 -0.01400
N 	N 	0.50000 0.48100 0.79260 -0.03100
N 	N 	0.50000 0.98100 0.29260 -0.07700
N 	N 	-0.00000 0.51900 0.70740 -0.01300
N 	N 	0.00000 0.01900 0.20740 -0.15300
N 	N 	0.50000 0.51900 0.20740 -0.03400
N 	N 	0.50000 0.01900 0.70740 0.15900
N 	N 	0.29260 0.00000 0.51900 -0.01000
N 	N 	0.29260 0.50000 0.01900 0.04000
N 	N 	0.79260 -0.00000 0.01900 -0.01900
N 	N 	0.79260 0.50000 0.51900 -0.00100
N 	N 	0.70740 0.00000 0.48100 -0.03000
N 	N 	0.70740 0.50000 0.98100 -0.18000
N 	N 	0.20740 0.00000 0.98100 0.11900
N 	N 	0.20740 0.50000 0.48100 -0.00300
N 	N 	0.29260 0.00000 0.48100 -0.02500
N 	N 	0.29260 0.50000 0.98100 -0.07700
N 	N 	0.79260 0.00000 0.98100 -0.01400
N 	N 	0.79260 0.50000 0.48100 -0.03100
N 	N 	0.70740 0.00000 0.51900 -0.01300
N 	N 	0.70740 0.50000 0.01900 0.15900
N 	N 	0.20740 -0.00000 0.01900 -0.15300
N 	N 	0.20740 0.50000 0.51900 -0.03400
N 	N 	0.29260 0.51900 -0.00000 -0.01000
N 	N 	0.29260 0.01900 0.50000 0.04000
N 	N 	0.79260 0.51900 0.50000 -0.00100
N 	N 	0.79260 0.01900 -0.00000 -0.01900
N 	N 	0.70740 0.48100 -0.00000 -0.03000
N 	N 	0.70740 0.98100 0.50000 -0.18000
N 	N 	0.20740 0.48100 0.50000 -0.00300
N 	N 	0.20740 0.98100 -0.00000 0.11900
N 	N 	0.29260 0.48100 -0.00000 -0.02500
N 	N 	0.29260 0.98100 0.50000 -0.07700
N 	N 	0.79260 0.48100 0.50000 -0.03100
N 	N 	0.79260 0.98100 -0.00000 -0.01400
N 	N 	0.70740 0.51900 -0.00000 -0.01300
N 	N 	0.70740 0.01900 0.50000 0.15900
N 	N 	0.20740 0.51900 0.50000 -0.03400
N 	N 	0.20740 0.01900 -0.00000 -0.15300
N 	N 	0.51900 0.00000 0.70740 -0.01300
N 	N 	0.51900 0.50000 0.20740 -0.03400
N 	N 	0.01900 0.00000 0.20740 -0.15300
N 	N 	0.01900 0.50000 0.70740 0.15900
N 	N 	0.48100 -0.00000 0.29260 -0.02500
N 	N 	0.48100 0.50000 0.79260 -0.03100
N 	N 	0.98100 0.00000 0.79260 -0.01400
N 	N 	0.98100 0.50000 0.29260 -0.07700
N 	N 	0.48100 0.00000 0.70740 -0.03000
N 	N 	0.48100 0.50000 0.20740 -0.00300
N 	N 	0.98100 0.00000 0.20740 0.11900
N 	N 	0.98100 0.50000 0.70740 -0.18000
N 	N 	0.51900 -0.00000 0.29260 -0.01000
N 	N 	0.51900 0.50000 0.79260 -0.00100
N 	N 	0.01900 0.00000 0.79260 -0.01900
N 	N 	0.01900 0.50000 0.29260 0.04000
N 	N 	-0.00000 0.29260 0.48100 -0.02500
N 	N 	-0.00000 0.79260 0.98100 -0.01400
N 	N 	0.50000 0.29260 0.98100 -0.07700
N 	N 	0.50000 0.79260 0.48100 -0.03100
N 	N 	-0.00000 0.70740 0.51900 -0.01300
N 	N 	-0.00000 0.20740 0.01900 -0.15300
N 	N 	0.50000 0.70740 0.01900 0.15900
N 	N 	0.50000 0.20740 0.51900 -0.03400
N 	N 	-0.00000 0.29260 0.51900 -0.01000
N 	N 	-0.00000 0.79260 0.01900 -0.01900
N 	N 	0.50000 0.29260 0.01900 0.04000
N 	N 	0.50000 0.79260 0.51900 -0.00100
N 	N 	0.00000 0.70740 0.48100 -0.03000
N 	N 	0.00000 0.20740 0.98100 0.11900
N 	N 	0.50000 0.70740 0.98100 -0.18000
N 	N 	0.50000 0.20740 0.48100 -0.00300
Fe	Fe	0.50000 0.00000 -0.00000 1.26800
Fe	Fe	0.50000 0.50000 0.50000 1.26900
Fe	Fe	0.00000 0.00000 0.50000 1.26800
Fe	Fe	-0.00000 0.50000 -0.00000 1.26800
