data_crystal

_cell_length_a 13.20190
_cell_length_b 13.20190
_cell_length_c 13.20190
_cell_angle_alpha 90.00000
_cell_angle_beta  90.00000
_cell_angle_gamma 90.00000

_symmetry_space_group_name_	'P 1'
_symmetry_space_group_name_H-M	'P 1'

loop_
_symmetry_equiv_pos_as_xyz
  x,y,z

loop_
_atom_site_label
_atom_site_type_symbol
_atom_site_fract_x
_atom_site_fract_y
_atom_site_fract_z
_atom_site_charge
N 	N 	0.63704 0.93598 0.95499 -0.08100
N 	N 	0.71544 0.98025 0.96075 0.08800
N 	N 	0.79256 0.02117 0.96450 -0.12100
N 	N 	0.86296 0.06402 0.45499 -0.13700
N 	N 	0.78456 0.01975 0.46075 -0.11800
N 	N 	0.70744 0.97883 0.46450 0.01500
N 	N 	0.36296 0.43598 0.54501 -0.17700
N 	N 	0.28456 0.48025 0.53925 -0.03300
N 	N 	0.20744 0.52117 0.53550 -0.11600
N 	N 	0.13704 0.56402 0.04501 -0.23100
N 	N 	0.21544 0.51975 0.03925 -0.05400
N 	N 	0.29256 0.47883 0.03550 -0.14200
N 	N 	0.95499 0.63704 0.93598 -0.08200
N 	N 	0.96075 0.71544 0.98025 0.08700
N 	N 	0.96450 0.79256 0.02117 -0.12200
N 	N 	0.45499 0.86296 0.06402 -0.13700
N 	N 	0.46075 0.78456 0.01975 -0.11800
N 	N 	0.46450 0.70744 0.97883 0.01500
N 	N 	0.54501 0.36296 0.43598 -0.17700
N 	N 	0.53925 0.28456 0.48025 -0.03300
N 	N 	0.53550 0.20744 0.52117 -0.11600
N 	N 	0.04501 0.13704 0.56402 -0.23100
N 	N 	0.03925 0.21544 0.51975 -0.05400
N 	N 	0.03550 0.29256 0.47883 -0.14200
N 	N 	0.93598 0.95499 0.63704 -0.08200
N 	N 	0.98025 0.96075 0.71544 0.08700
N 	N 	0.02117 0.96450 0.79256 -0.12200
N 	N 	0.06402 0.45499 0.86296 -0.13700
N 	N 	0.01975 0.46075 0.78456 -0.11800
N 	N 	0.97883 0.46450 0.70744 0.01500
N 	N 	0.43598 0.54501 0.36296 -0.17700
N 	N 	0.48025 0.53925 0.28456 -0.03300
N 	N 	0.52117 0.53550 0.20744 -0.11600
N 	N 	0.56402 0.04501 0.13704 -0.23100
N 	N 	0.51975 0.03925 0.21544 -0.05400
N 	N 	0.47883 0.03550 0.29256 -0.14200
N 	N 	0.36296 0.06402 0.04501 -0.22300
N 	N 	0.28456 0.01975 0.03925 -0.14900
N 	N 	0.20744 0.97883 0.03550 -0.04500
N 	N 	0.13704 0.93598 0.54501 -0.16500
N 	N 	0.21544 0.98025 0.53925 0.06400
N 	N 	0.29256 0.02117 0.53550 -0.20300
N 	N 	0.63704 0.56402 0.45499 -0.16500
N 	N 	0.71544 0.51975 0.46075 -0.02600
N 	N 	0.79256 0.47883 0.46450 -0.07200
N 	N 	0.86296 0.43598 0.95499 -0.07400
N 	N 	0.78456 0.48025 0.96075 -0.00300
N 	N 	0.70744 0.52117 0.96450 -0.04500
N 	N 	0.04501 0.36296 0.06402 -0.22300
N 	N 	0.03925 0.28456 0.01975 -0.14900
N 	N 	0.03550 0.20744 0.97883 -0.04500
N 	N 	0.54501 0.13704 0.93598 -0.16500
N 	N 	0.53925 0.21544 0.98025 0.06400
N 	N 	0.53550 0.29256 0.02117 -0.20300
N 	N 	0.45499 0.63704 0.56402 -0.16500
N 	N 	0.46075 0.71544 0.51975 -0.02600
N 	N 	0.46450 0.79256 0.47883 -0.07200
N 	N 	0.95499 0.86296 0.43598 -0.07400
N 	N 	0.96075 0.78456 0.48025 -0.00300
N 	N 	0.96450 0.70744 0.52117 -0.04500
N 	N 	0.06402 0.04501 0.36296 -0.22300
N 	N 	0.01975 0.03925 0.28456 -0.14900
N 	N 	0.97883 0.03550 0.20744 -0.04500
N 	N 	0.93598 0.54501 0.13704 -0.16500
N 	N 	0.98025 0.53925 0.21544 0.06400
N 	N 	0.02117 0.53550 0.29256 -0.20300
N 	N 	0.56402 0.45499 0.63704 -0.16500
N 	N 	0.51975 0.46075 0.71544 -0.02600
N 	N 	0.47883 0.46450 0.79256 -0.07200
N 	N 	0.43598 0.95499 0.86296 -0.07400
N 	N 	0.48025 0.96075 0.78456 -0.00300
N 	N 	0.52117 0.96450 0.70744 -0.04500
Fe	Fe	0.50000 0.00000 -0.00000 1.01700
Fe	Fe	0.00000 0.00000 0.50000 1.01700
Fe	Fe	0.50000 0.50000 0.50000 1.16200
Fe	Fe	-0.00000 0.50000 -0.00000 1.01700
K 	K 	-0.00000 0.00000 -0.00000 0.56000
K 	K 	0.50000 0.00000 0.50000 0.62400
K 	K 	0.00000 0.50000 0.50000 0.62400
K 	K 	0.50000 0.50000 -0.00000 0.62400
