data_crystal

_cell_length_a 13.10260
_cell_length_b 13.10260
_cell_length_c 13.10260
_cell_angle_alpha 90.00000
_cell_angle_beta  90.00000
_cell_angle_gamma 90.00000

_symmetry_space_group_name_	'P 1'
_symmetry_space_group_name_H-M	'P 1'

loop_
_symmetry_equiv_pos_as_xyz
  x,y,z

loop_
_atom_site_label
_atom_site_type_symbol
_atom_site_fract_x
_atom_site_fract_y
_atom_site_fract_z
_atom_site_charge
N 	N 	0.63660 0.93300 0.95382 -0.08200
N 	N 	0.71529 0.97901 0.95863 0.08600
N 	N 	0.79281 0.02178 0.96191 -0.12100
N 	N 	0.86340 0.06700 0.45382 -0.13600
N 	N 	0.78471 0.02099 0.45863 -0.11900
N 	N 	0.70719 0.97822 0.46191 0.01600
N 	N 	0.36340 0.43300 0.54618 -0.17600
N 	N 	0.28471 0.47901 0.54137 -0.03500
N 	N 	0.20719 0.52178 0.53809 -0.11600
N 	N 	0.13660 0.56700 0.04618 -0.23000
N 	N 	0.21529 0.52099 0.04137 -0.05500
N 	N 	0.29281 0.47822 0.03809 -0.14200
N 	N 	0.95382 0.63660 0.93300 -0.08100
N 	N 	0.95863 0.71529 0.97901 0.08600
N 	N 	0.96191 0.79281 0.02178 -0.12100
N 	N 	0.45382 0.86340 0.06700 -0.13600
N 	N 	0.45863 0.78471 0.02099 -0.11900
N 	N 	0.46191 0.70719 0.97822 0.01600
N 	N 	0.54618 0.36340 0.43300 -0.17600
N 	N 	0.54137 0.28471 0.47901 -0.03500
N 	N 	0.53809 0.20719 0.52178 -0.11600
N 	N 	0.04618 0.13660 0.56700 -0.23000
N 	N 	0.04137 0.21529 0.52099 -0.05500
N 	N 	0.03809 0.29281 0.47822 -0.14200
N 	N 	0.93300 0.95382 0.63660 -0.08100
N 	N 	0.97901 0.95863 0.71529 0.08600
N 	N 	0.02178 0.96191 0.79281 -0.12100
N 	N 	0.06700 0.45382 0.86340 -0.13600
N 	N 	0.02099 0.45863 0.78471 -0.11900
N 	N 	0.97822 0.46191 0.70719 0.01600
N 	N 	0.43300 0.54618 0.36340 -0.17600
N 	N 	0.47901 0.54137 0.28471 -0.03500
N 	N 	0.52178 0.53809 0.20719 -0.11600
N 	N 	0.56700 0.04618 0.13660 -0.23000
N 	N 	0.52099 0.04137 0.21529 -0.05500
N 	N 	0.47822 0.03809 0.29281 -0.14200
N 	N 	0.36340 0.06700 0.04618 -0.22200
N 	N 	0.28471 0.02099 0.04137 -0.15100
N 	N 	0.20719 0.97822 0.03809 -0.04500
N 	N 	0.13660 0.93300 0.54618 -0.16400
N 	N 	0.21529 0.97901 0.54137 0.06300
N 	N 	0.29281 0.02178 0.53809 -0.20200
N 	N 	0.63660 0.56700 0.45382 -0.16400
N 	N 	0.71529 0.52099 0.45863 -0.02800
N 	N 	0.79281 0.47822 0.46191 -0.07200
N 	N 	0.86340 0.43300 0.95382 -0.07200
N 	N 	0.78471 0.47901 0.95863 -0.00400
N 	N 	0.70719 0.52178 0.96191 -0.04400
N 	N 	0.04618 0.36340 0.06700 -0.22200
N 	N 	0.04137 0.28471 0.02099 -0.15100
N 	N 	0.03809 0.20719 0.97822 -0.04500
N 	N 	0.54618 0.13660 0.93300 -0.16400
N 	N 	0.54137 0.21529 0.97901 0.06300
N 	N 	0.53809 0.29281 0.02178 -0.20200
N 	N 	0.45382 0.63660 0.56700 -0.16400
N 	N 	0.45863 0.71529 0.52099 -0.02800
N 	N 	0.46191 0.79281 0.47822 -0.07200
N 	N 	0.95382 0.86340 0.43300 -0.07200
N 	N 	0.95863 0.78471 0.47901 -0.00400
N 	N 	0.96191 0.70719 0.52178 -0.04400
N 	N 	0.06700 0.04618 0.36340 -0.22200
N 	N 	0.02099 0.04137 0.28471 -0.15100
N 	N 	0.97822 0.03809 0.20719 -0.04500
N 	N 	0.93300 0.54618 0.13660 -0.16400
N 	N 	0.97901 0.54137 0.21529 0.06300
N 	N 	0.02178 0.53809 0.29281 -0.20200
N 	N 	0.56700 0.45382 0.63660 -0.16400
N 	N 	0.52099 0.45863 0.71529 -0.02800
N 	N 	0.47822 0.46191 0.79281 -0.07200
N 	N 	0.43300 0.95382 0.86340 -0.07200
N 	N 	0.47901 0.95863 0.78471 -0.00400
N 	N 	0.52178 0.96191 0.70719 -0.04400
Fe	Fe	0.50000 0.00000 -0.00000 1.01600
Fe	Fe	-0.00000 0.00000 0.50000 1.01600
Fe	Fe	0.50000 0.50000 0.50000 1.16300
Fe	Fe	-0.00000 0.50000 -0.00000 1.01600
K 	K 	-0.00000 0.00000 -0.00000 0.56000
K 	K 	0.50000 0.00000 0.50000 0.62400
K 	K 	-0.00000 0.50000 0.50000 0.62400
K 	K 	0.50000 0.50000 -0.00000 0.62400
