data_crystal

_cell_length_a 13.24000
_cell_length_b 13.24000
_cell_length_c 13.24000
_cell_angle_alpha 90.00000
_cell_angle_beta  90.00000
_cell_angle_gamma 90.00000

_symmetry_space_group_name_	'P 1'
_symmetry_space_group_name_H-M	'P 1'

loop_
_symmetry_equiv_pos_as_xyz
  x,y,z

loop_
_atom_site_label
_atom_site_type_symbol
_atom_site_fract_x
_atom_site_fract_y
_atom_site_fract_z
_atom_site_charge
N 	N 	0.63699 0.93696 0.95581 -0.08400
N 	N 	0.71569 0.98082 0.96236 0.08700
N 	N 	0.79240 0.02040 0.96630 -0.12200
N 	N 	0.86301 0.06304 0.45581 -0.13800
N 	N 	0.78431 0.01918 0.46236 -0.11800
N 	N 	0.70760 0.97960 0.46630 0.01600
N 	N 	0.36301 0.43696 0.54419 -0.17700
N 	N 	0.28431 0.48082 0.53764 -0.03300
N 	N 	0.20760 0.52040 0.53370 -0.11600
N 	N 	0.13699 0.56304 0.04419 -0.23100
N 	N 	0.21569 0.51918 0.03764 -0.05300
N 	N 	0.29240 0.47960 0.03370 -0.14200
N 	N 	0.95581 0.63699 0.93696 -0.08300
N 	N 	0.96236 0.71569 0.98082 0.08700
N 	N 	0.96630 0.79240 0.02040 -0.12200
N 	N 	0.45581 0.86301 0.06304 -0.13800
N 	N 	0.46236 0.78431 0.01918 -0.11800
N 	N 	0.46630 0.70760 0.97960 0.01600
N 	N 	0.54419 0.36301 0.43696 -0.17700
N 	N 	0.53764 0.28431 0.48082 -0.03300
N 	N 	0.53370 0.20760 0.52040 -0.11600
N 	N 	0.04419 0.13699 0.56304 -0.23100
N 	N 	0.03764 0.21569 0.51918 -0.05300
N 	N 	0.03370 0.29240 0.47960 -0.14200
N 	N 	0.93696 0.95581 0.63699 -0.08300
N 	N 	0.98082 0.96236 0.71569 0.08700
N 	N 	0.02040 0.96630 0.79240 -0.12200
N 	N 	0.06304 0.45581 0.86301 -0.13800
N 	N 	0.01918 0.46236 0.78431 -0.11800
N 	N 	0.97960 0.46630 0.70760 0.01600
N 	N 	0.43696 0.54419 0.36301 -0.17700
N 	N 	0.48082 0.53764 0.28431 -0.03300
N 	N 	0.52040 0.53370 0.20760 -0.11600
N 	N 	0.56304 0.04419 0.13699 -0.23100
N 	N 	0.51918 0.03764 0.21569 -0.05300
N 	N 	0.47960 0.03370 0.29240 -0.14200
N 	N 	0.36301 0.06304 0.04419 -0.22400
N 	N 	0.28431 0.01918 0.03764 -0.14900
N 	N 	0.20760 0.97960 0.03370 -0.04400
N 	N 	0.13699 0.93696 0.54419 -0.16500
N 	N 	0.21569 0.98082 0.53764 0.06500
N 	N 	0.29240 0.02040 0.53370 -0.20300
N 	N 	0.63699 0.56304 0.45581 -0.16600
N 	N 	0.71569 0.51918 0.46236 -0.02600
N 	N 	0.79240 0.47960 0.46630 -0.07200
N 	N 	0.86301 0.43696 0.95581 -0.07500
N 	N 	0.78431 0.48082 0.96236 -0.00200
N 	N 	0.70760 0.52040 0.96630 -0.04500
N 	N 	0.04419 0.36301 0.06304 -0.22400
N 	N 	0.03764 0.28431 0.01918 -0.14900
N 	N 	0.03370 0.20760 0.97960 -0.04400
N 	N 	0.54419 0.13699 0.93696 -0.16500
N 	N 	0.53764 0.21569 0.98082 0.06500
N 	N 	0.53370 0.29240 0.02040 -0.20300
N 	N 	0.45581 0.63699 0.56304 -0.16600
N 	N 	0.46236 0.71569 0.51918 -0.02600
N 	N 	0.46630 0.79240 0.47960 -0.07200
N 	N 	0.95581 0.86301 0.43696 -0.07500
N 	N 	0.96236 0.78431 0.48082 -0.00200
N 	N 	0.96630 0.70760 0.52040 -0.04500
N 	N 	0.06304 0.04419 0.36301 -0.22400
N 	N 	0.01918 0.03764 0.28431 -0.14900
N 	N 	0.97960 0.03370 0.20760 -0.04400
N 	N 	0.93696 0.54419 0.13699 -0.16500
N 	N 	0.98082 0.53764 0.21569 0.06500
N 	N 	0.02040 0.53370 0.29240 -0.20300
N 	N 	0.56304 0.45581 0.63699 -0.16600
N 	N 	0.51918 0.46236 0.71569 -0.02600
N 	N 	0.47960 0.46630 0.79240 -0.07200
N 	N 	0.43696 0.95581 0.86301 -0.07500
N 	N 	0.48082 0.96236 0.78431 -0.00200
N 	N 	0.52040 0.96630 0.70760 -0.04500
Fe	Fe	0.50000 0.00000 -0.00000 1.01800
Fe	Fe	0.00000 0.00000 0.50000 1.01800
Fe	Fe	0.50000 0.50000 0.50000 1.16300
Fe	Fe	0.00000 0.50000 -0.00000 1.01800
K 	K 	-0.00000 0.00000 -0.00000 0.56000
K 	K 	0.50000 0.00000 0.50000 0.62400
K 	K 	0.00000 0.50000 0.50000 0.62400
K 	K 	0.50000 0.50000 -0.00000 0.62400
