data_crystal

_cell_length_a 12.95210
_cell_length_b 12.95210
_cell_length_c 12.95210
_cell_angle_alpha 90.00000
_cell_angle_beta  90.00000
_cell_angle_gamma 90.00000

_symmetry_space_group_name_	'P 1'
_symmetry_space_group_name_H-M	'P 1'

loop_
_symmetry_equiv_pos_as_xyz
  x,y,z

loop_
_atom_site_label
_atom_site_type_symbol
_atom_site_fract_x
_atom_site_fract_y
_atom_site_fract_z
_atom_site_charge
N 	N 	0.46670 0.14190 0.94170 -0.00600
N 	N 	0.46670 0.64190 0.44170 -0.03800
N 	N 	0.96670 0.14190 0.44170 -0.05900
N 	N 	0.96670 0.64190 0.94170 -0.03600
N 	N 	0.53330 0.85810 0.94170 -0.01300
N 	N 	0.53330 0.35810 0.44170 -0.04400
N 	N 	0.03330 0.85810 0.44170 -0.02000
N 	N 	0.03330 0.35810 0.94170 0.01300
N 	N 	0.53330 0.14190 0.05830 -0.07100
N 	N 	0.53330 0.64190 0.55830 -0.04800
N 	N 	0.03330 0.14190 0.55830 -0.02000
N 	N 	0.03330 0.64190 0.05830 -0.04600
N 	N 	0.46670 0.85810 0.05830 -0.07600
N 	N 	0.46670 0.35810 0.55830 -0.03800
N 	N 	0.96670 0.85810 0.55830 -0.06600
N 	N 	0.96670 0.35810 0.05830 -0.09600
N 	N 	0.94170 0.46670 0.14190 -0.00500
N 	N 	0.94170 0.96670 0.64190 -0.03500
N 	N 	0.44170 0.46670 0.64190 -0.03700
N 	N 	0.44170 0.96670 0.14190 -0.05800
N 	N 	0.94170 0.53330 0.85810 -0.01200
N 	N 	0.94170 0.03330 0.35810 0.01400
N 	N 	0.44170 0.53330 0.35810 -0.04300
N 	N 	0.44170 0.03330 0.85810 -0.01900
N 	N 	0.05830 0.53330 0.14190 -0.07000
N 	N 	0.05830 0.03330 0.64190 -0.04600
N 	N 	0.55830 0.53330 0.64190 -0.04700
N 	N 	0.55830 0.03330 0.14190 -0.02000
N 	N 	0.05830 0.46670 0.85810 -0.07600
N 	N 	0.05830 0.96670 0.35810 -0.09600
N 	N 	0.55830 0.46670 0.35810 -0.03800
N 	N 	0.55830 0.96670 0.85810 -0.06600
N 	N 	0.14190 0.94170 0.46670 -0.00500
N 	N 	0.14190 0.44170 0.96670 -0.05800
N 	N 	0.64190 0.94170 0.96670 -0.03500
N 	N 	0.64190 0.44170 0.46670 -0.03700
N 	N 	0.85810 0.94170 0.53330 -0.01200
N 	N 	0.85810 0.44170 0.03330 -0.01900
N 	N 	0.35810 0.94170 0.03330 0.01400
N 	N 	0.35810 0.44170 0.53330 -0.04300
N 	N 	0.14190 0.05830 0.53330 -0.07000
N 	N 	0.14190 0.55830 0.03330 -0.02000
N 	N 	0.64190 0.05830 0.03330 -0.04600
N 	N 	0.64190 0.55830 0.53330 -0.04700
N 	N 	0.85810 0.05830 0.46670 -0.07600
N 	N 	0.85810 0.55830 0.96670 -0.06600
N 	N 	0.35810 0.05830 0.96670 -0.09600
N 	N 	0.35810 0.55830 0.46670 -0.03800
N 	N 	0.14190 0.46670 0.05830 -0.06500
N 	N 	0.14190 0.96670 0.55830 -0.05800
N 	N 	0.64190 0.46670 0.55830 -0.03800
N 	N 	0.64190 0.96670 0.05830 -0.10100
N 	N 	0.85810 0.53330 0.05830 -0.08400
N 	N 	0.85810 0.03330 0.55830 -0.01900
N 	N 	0.35810 0.53330 0.55830 -0.04200
N 	N 	0.35810 0.03330 0.05830 -0.04200
N 	N 	0.14190 0.53330 0.94170 -0.01000
N 	N 	0.14190 0.03330 0.44170 -0.02000
N 	N 	0.64190 0.53330 0.44170 -0.04600
N 	N 	0.64190 0.03330 0.94170 0.01500
N 	N 	0.85810 0.46670 0.94170 -0.00500
N 	N 	0.85810 0.96670 0.44170 -0.06600
N 	N 	0.35810 0.46670 0.44170 -0.03800
N 	N 	0.35810 0.96670 0.94170 -0.03600
N 	N 	0.46670 0.94170 0.85810 -0.00500
N 	N 	0.46670 0.44170 0.35810 -0.03800
N 	N 	0.96670 0.94170 0.35810 -0.03600
N 	N 	0.96670 0.44170 0.85810 -0.06600
N 	N 	0.53330 0.94170 0.14190 -0.01000
N 	N 	0.53330 0.44170 0.64190 -0.04600
N 	N 	0.03330 0.94170 0.64190 0.01500
N 	N 	0.03330 0.44170 0.14190 -0.02000
N 	N 	0.53330 0.05830 0.85810 -0.08400
N 	N 	0.53330 0.55830 0.35810 -0.04200
N 	N 	0.03330 0.05830 0.35810 -0.04200
N 	N 	0.03330 0.55830 0.85810 -0.01900
N 	N 	0.46670 0.05830 0.14190 -0.06500
N 	N 	0.46670 0.55830 0.64190 -0.03800
N 	N 	0.96670 0.05830 0.64190 -0.10100
N 	N 	0.96670 0.55830 0.14190 -0.05800
N 	N 	0.94170 0.14190 0.53330 -0.01000
N 	N 	0.94170 0.64190 0.03330 0.01500
N 	N 	0.44170 0.14190 0.03330 -0.02000
N 	N 	0.44170 0.64190 0.53330 -0.04600
N 	N 	0.94170 0.85810 0.46670 -0.00500
N 	N 	0.94170 0.35810 0.96670 -0.03600
N 	N 	0.44170 0.85810 0.96670 -0.06600
N 	N 	0.44170 0.35810 0.46670 -0.03800
N 	N 	0.05830 0.14190 0.46670 -0.06500
N 	N 	0.05830 0.64190 0.96670 -0.10100
N 	N 	0.55830 0.14190 0.96670 -0.05800
N 	N 	0.55830 0.64190 0.46670 -0.03800
N 	N 	0.05830 0.85810 0.53330 -0.08400
N 	N 	0.05830 0.35810 0.03330 -0.04200
N 	N 	0.55830 0.85810 0.03330 -0.01900
N 	N 	0.55830 0.35810 0.53330 -0.04200
N 	N 	0.53330 0.85810 0.05830 -0.08400
N 	N 	0.53330 0.35810 0.55830 -0.04200
N 	N 	0.03330 0.85810 0.55830 -0.01900
N 	N 	0.03330 0.35810 0.05830 -0.04200
N 	N 	0.46670 0.14190 0.05830 -0.06500
N 	N 	0.46670 0.64190 0.55830 -0.03800
N 	N 	0.96670 0.14190 0.55830 -0.05800
N 	N 	0.96670 0.64190 0.05830 -0.10100
N 	N 	0.46670 0.85810 0.94170 -0.00500
N 	N 	0.46670 0.35810 0.44170 -0.03800
N 	N 	0.96670 0.85810 0.44170 -0.06600
N 	N 	0.96670 0.35810 0.94170 -0.03600
N 	N 	0.53330 0.14190 0.94170 -0.01000
N 	N 	0.53330 0.64190 0.44170 -0.04600
N 	N 	0.03330 0.14190 0.44170 -0.02000
N 	N 	0.03330 0.64190 0.94170 0.01500
N 	N 	0.05830 0.53330 0.85810 -0.08400
N 	N 	0.05830 0.03330 0.35810 -0.04200
N 	N 	0.55830 0.53330 0.35810 -0.04200
N 	N 	0.55830 0.03330 0.85810 -0.01900
N 	N 	0.05830 0.46670 0.14190 -0.06500
N 	N 	0.05830 0.96670 0.64190 -0.10100
N 	N 	0.55830 0.46670 0.64190 -0.03800
N 	N 	0.55830 0.96670 0.14190 -0.05800
N 	N 	0.94170 0.46670 0.85810 -0.00500
N 	N 	0.94170 0.96670 0.35810 -0.03600
N 	N 	0.44170 0.46670 0.35810 -0.03800
N 	N 	0.44170 0.96670 0.85810 -0.06600
N 	N 	0.94170 0.53330 0.14190 -0.01000
N 	N 	0.94170 0.03330 0.64190 0.01500
N 	N 	0.44170 0.53330 0.64190 -0.04600
N 	N 	0.44170 0.03330 0.14190 -0.02000
N 	N 	0.85810 0.05830 0.53330 -0.08400
N 	N 	0.85810 0.55830 0.03330 -0.01900
N 	N 	0.35810 0.05830 0.03330 -0.04200
N 	N 	0.35810 0.55830 0.53330 -0.04200
N 	N 	0.14190 0.05830 0.46670 -0.06500
N 	N 	0.14190 0.55830 0.96670 -0.05800
N 	N 	0.64190 0.05830 0.96670 -0.10100
N 	N 	0.64190 0.55830 0.46670 -0.03800
N 	N 	0.85810 0.94170 0.46670 -0.00500
N 	N 	0.85810 0.44170 0.96670 -0.06600
N 	N 	0.35810 0.94170 0.96670 -0.03600
N 	N 	0.35810 0.44170 0.46670 -0.03800
N 	N 	0.14190 0.94170 0.53330 -0.01000
N 	N 	0.14190 0.44170 0.03330 -0.02000
N 	N 	0.64190 0.94170 0.03330 0.01500
N 	N 	0.64190 0.44170 0.53330 -0.04600
N 	N 	0.85810 0.53330 0.94170 -0.01200
N 	N 	0.85810 0.03330 0.44170 -0.01900
N 	N 	0.35810 0.53330 0.44170 -0.04300
N 	N 	0.35810 0.03330 0.94170 0.01400
N 	N 	0.14190 0.46670 0.94170 -0.00500
N 	N 	0.14190 0.96670 0.44170 -0.05800
N 	N 	0.64190 0.46670 0.44170 -0.03700
N 	N 	0.64190 0.96670 0.94170 -0.03500
N 	N 	0.85810 0.46670 0.05830 -0.07600
N 	N 	0.85810 0.96670 0.55830 -0.06600
N 	N 	0.35810 0.46670 0.55830 -0.03800
N 	N 	0.35810 0.96670 0.05830 -0.09600
N 	N 	0.14190 0.53330 0.05830 -0.07000
N 	N 	0.14190 0.03330 0.55830 -0.02000
N 	N 	0.64190 0.53330 0.55830 -0.04700
N 	N 	0.64190 0.03330 0.05830 -0.04600
N 	N 	0.53330 0.05830 0.14190 -0.07000
N 	N 	0.53330 0.55830 0.64190 -0.04700
N 	N 	0.03330 0.05830 0.64190 -0.04600
N 	N 	0.03330 0.55830 0.14190 -0.02000
N 	N 	0.46670 0.05830 0.85810 -0.07600
N 	N 	0.46670 0.55830 0.35810 -0.03800
N 	N 	0.96670 0.05830 0.35810 -0.09600
N 	N 	0.96670 0.55830 0.85810 -0.06600
N 	N 	0.46670 0.94170 0.14190 -0.00500
N 	N 	0.46670 0.44170 0.64190 -0.03700
N 	N 	0.96670 0.94170 0.64190 -0.03500
N 	N 	0.96670 0.44170 0.14190 -0.05800
N 	N 	0.53330 0.94170 0.85810 -0.01200
N 	N 	0.53330 0.44170 0.35810 -0.04300
N 	N 	0.03330 0.94170 0.35810 0.01400
N 	N 	0.03330 0.44170 0.85810 -0.01900
N 	N 	0.05830 0.85810 0.46670 -0.07600
N 	N 	0.05830 0.35810 0.96670 -0.09600
N 	N 	0.55830 0.85810 0.96670 -0.06600
N 	N 	0.55830 0.35810 0.46670 -0.03800
N 	N 	0.05830 0.14190 0.53330 -0.07000
N 	N 	0.05830 0.64190 0.03330 -0.04600
N 	N 	0.55830 0.14190 0.03330 -0.02000
N 	N 	0.55830 0.64190 0.53330 -0.04700
N 	N 	0.94170 0.85810 0.53330 -0.01200
N 	N 	0.94170 0.35810 0.03330 0.01400
N 	N 	0.44170 0.85810 0.03330 -0.01900
N 	N 	0.44170 0.35810 0.53330 -0.04300
N 	N 	0.94170 0.14190 0.46670 -0.00500
N 	N 	0.94170 0.64190 0.96670 -0.03500
N 	N 	0.44170 0.14190 0.96670 -0.05800
N 	N 	0.44170 0.64190 0.46670 -0.03700
Na	Na	0.50000 0.50000 -0.00000 0.58700
Na	Na	0.00000 0.50000 0.50000 0.58700
Na	Na	0.50000 0.00000 0.50000 0.58700
Na	Na	-0.00000 0.00000 -0.00000 0.58500
N 	N 	0.48080 0.22420 0.98080 -0.12600
N 	N 	0.48080 0.72420 0.48080 -0.03300
N 	N 	0.51920 0.77580 0.98080 -0.12800
N 	N 	0.51920 0.27580 0.48080 0.00900
N 	N 	0.01920 0.77580 0.48080 0.14400
N 	N 	0.51920 0.22420 0.01920 0.14400
N 	N 	0.51920 0.72420 0.51920 0.04700
N 	N 	0.01920 0.72420 0.01920 0.19700
N 	N 	0.48080 0.77580 0.01920 0.14400
N 	N 	0.48080 0.27580 0.51920 0.00900
N 	N 	0.98080 0.48080 0.22420 -0.12600
N 	N 	0.98080 0.98080 0.72420 -0.19200
N 	N 	0.48080 0.48080 0.72420 -0.03300
N 	N 	0.98080 0.51920 0.77580 -0.12800
N 	N 	0.98080 0.01920 0.27580 0.01500
N 	N 	0.48080 0.01920 0.77580 0.14400
N 	N 	0.01920 0.51920 0.22420 0.14400
N 	N 	0.01920 0.01920 0.72420 0.19700
N 	N 	0.01920 0.48080 0.77580 0.14400
N 	N 	0.01920 0.98080 0.27580 0.01500
N 	N 	0.22420 0.98080 0.48080 -0.12600
N 	N 	0.72420 0.98080 0.98080 -0.19200
N 	N 	0.72420 0.48080 0.48080 -0.03300
N 	N 	0.77580 0.98080 0.51920 -0.12800
N 	N 	0.77580 0.48080 0.01920 0.14400
N 	N 	0.27580 0.98080 0.01920 0.01500
N 	N 	0.22420 0.01920 0.51920 0.14400
N 	N 	0.72420 0.01920 0.01920 0.19700
N 	N 	0.77580 0.01920 0.48080 0.14400
N 	N 	0.27580 0.01920 0.98080 0.01500
N 	N 	0.22420 0.48080 0.01920 0.12200
N 	N 	0.72420 0.48080 0.51920 0.00700
N 	N 	0.77580 0.51920 0.01920 0.16900
N 	N 	0.27580 0.51920 0.51920 0.01000
N 	N 	0.27580 0.01920 0.01920 0.15900
N 	N 	0.22420 0.51920 0.98080 -0.10400
N 	N 	0.22420 0.01920 0.48080 0.12200
N 	N 	0.72420 0.51920 0.48080 0.00700
N 	N 	0.77580 0.48080 0.98080 -0.15200
N 	N 	0.27580 0.48080 0.48080 0.00900
N 	N 	0.48080 0.98080 0.77580 -0.15200
N 	N 	0.48080 0.48080 0.27580 0.00900
N 	N 	0.51920 0.98080 0.22420 -0.10400
N 	N 	0.51920 0.48080 0.72420 0.00700
N 	N 	0.01920 0.48080 0.22420 0.12200
N 	N 	0.51920 0.01920 0.77580 0.16900
N 	N 	0.51920 0.51920 0.27580 0.01000
N 	N 	0.01920 0.01920 0.27580 0.15900
N 	N 	0.48080 0.01920 0.22420 0.12200
N 	N 	0.48080 0.51920 0.72420 0.00700
N 	N 	0.98080 0.22420 0.51920 -0.10400
N 	N 	0.98080 0.72420 0.01920 0.01400
N 	N 	0.48080 0.22420 0.01920 0.12200
N 	N 	0.98080 0.77580 0.48080 -0.15200
N 	N 	0.98080 0.27580 0.98080 -0.15000
N 	N 	0.48080 0.27580 0.48080 0.00900
N 	N 	0.01920 0.22420 0.48080 0.12200
N 	N 	0.01920 0.72420 0.98080 0.01400
N 	N 	0.01920 0.77580 0.51920 0.16900
N 	N 	0.01920 0.27580 0.01920 0.15900
N 	N 	0.51920 0.77580 0.01920 0.16900
N 	N 	0.51920 0.27580 0.51920 0.01000
N 	N 	0.48080 0.72420 0.51920 0.00700
N 	N 	0.48080 0.77580 0.98080 -0.15200
N 	N 	0.51920 0.22420 0.98080 -0.10400
N 	N 	0.51920 0.72420 0.48080 0.00700
N 	N 	0.01920 0.51920 0.77580 0.16900
N 	N 	0.01920 0.98080 0.72420 0.01400
N 	N 	0.98080 0.48080 0.77580 -0.15200
N 	N 	0.98080 0.98080 0.27580 -0.15000
N 	N 	0.98080 0.51920 0.22420 -0.10400
N 	N 	0.98080 0.01920 0.72420 0.01400
N 	N 	0.77580 0.01920 0.51920 0.16900
N 	N 	0.72420 0.01920 0.98080 0.01400
N 	N 	0.77580 0.98080 0.48080 -0.15200
N 	N 	0.27580 0.98080 0.98080 -0.15000
N 	N 	0.22420 0.98080 0.51920 -0.10400
N 	N 	0.72420 0.98080 0.01920 0.01400
N 	N 	0.77580 0.51920 0.98080 -0.12800
N 	N 	0.27580 0.51920 0.48080 0.00900
N 	N 	0.22420 0.48080 0.98080 -0.12600
N 	N 	0.27580 0.48080 0.51920 0.00900
N 	N 	0.22420 0.51920 0.01920 0.14400
N 	N 	0.72420 0.51920 0.51920 0.04700
N 	N 	0.51920 0.01920 0.22420 0.14400
N 	N 	0.51920 0.51920 0.72420 0.04700
N 	N 	0.48080 0.51920 0.27580 0.00900
N 	N 	0.48080 0.98080 0.22420 -0.12600
N 	N 	0.51920 0.98080 0.77580 -0.12800
N 	N 	0.51920 0.48080 0.27580 0.00900
N 	N 	0.01920 0.27580 0.98080 0.01500
N 	N 	0.01920 0.22420 0.51920 0.14400
N 	N 	0.98080 0.77580 0.51920 -0.12800
N 	N 	0.98080 0.27580 0.01920 0.01500
N 	N 	0.98080 0.22420 0.48080 -0.12600
N 	N 	0.98080 0.72420 0.98080 -0.19200
N 	N 	0.50000 0.30600 0.01900 -0.55100
N 	N 	0.50000 0.80600 0.51900 -0.09900
N 	N 	-0.00000 0.30600 0.51900 -0.04200
N 	N 	0.00000 0.80600 0.01900 -0.45600
N 	N 	0.50000 0.69400 0.01900 -0.65200
N 	N 	0.50000 0.19400 0.51900 -0.01600
N 	N 	0.00000 0.69400 0.51900 -0.04600
N 	N 	0.00000 0.19400 0.01900 -0.36700
N 	N 	0.50000 0.30600 0.98100 0.48200
N 	N 	0.50000 0.80600 0.48100 0.05600
N 	N 	-0.00000 0.30600 0.48100 0.04400
N 	N 	0.00000 0.80600 0.98100 0.41200
N 	N 	0.50000 0.69400 0.98100 0.57800
N 	N 	0.50000 0.19400 0.48100 -0.00500
N 	N 	0.00000 0.69400 0.48100 0.05000
N 	N 	-0.00000 0.19400 0.98100 0.34000
N 	N 	0.01900 0.50000 0.30600 -0.55100
N 	N 	0.01900 0.00000 0.80600 -0.45600
N 	N 	0.51900 0.50000 0.80600 -0.09900
N 	N 	0.51900 0.00000 0.30600 -0.04200
N 	N 	0.01900 0.50000 0.69400 -0.65200
N 	N 	0.01900 0.00000 0.19400 -0.36700
N 	N 	0.51900 0.50000 0.19400 -0.01600
N 	N 	0.51900 0.00000 0.69400 -0.04600
N 	N 	0.98100 0.50000 0.30600 0.48200
N 	N 	0.98100 0.00000 0.80600 0.41200
N 	N 	0.48100 0.50000 0.80600 0.05600
N 	N 	0.48100 0.00000 0.30600 0.04400
N 	N 	0.98100 0.50000 0.69400 0.57800
N 	N 	0.98100 0.00000 0.19400 0.34000
N 	N 	0.48100 0.50000 0.19400 -0.00500
N 	N 	0.48100 0.00000 0.69400 0.05000
N 	N 	0.30600 0.01900 0.50000 -0.55100
N 	N 	0.30600 0.51900 -0.00000 -0.04200
N 	N 	0.80600 0.01900 -0.00000 -0.45600
N 	N 	0.80600 0.51900 0.50000 -0.09900
N 	N 	0.69400 0.01900 0.50000 -0.65200
N 	N 	0.69400 0.51900 -0.00000 -0.04600
N 	N 	0.19400 0.01900 -0.00000 -0.36700
N 	N 	0.19400 0.51900 0.50000 -0.01600
N 	N 	0.30600 0.98100 0.50000 0.48200
N 	N 	0.30600 0.48100 -0.00000 0.04400
N 	N 	0.80600 0.98100 -0.00000 0.41200
N 	N 	0.80600 0.48100 0.50000 0.05600
N 	N 	0.69400 0.98100 0.50000 0.57800
N 	N 	0.69400 0.48100 -0.00000 0.05000
N 	N 	0.19400 0.98100 -0.00000 0.34000
N 	N 	0.19400 0.48100 0.50000 -0.00500
N 	N 	0.30600 0.50000 0.98100 0.48200
N 	N 	0.30600 0.00000 0.48100 0.04400
N 	N 	0.80600 0.50000 0.48100 0.05600
N 	N 	0.80600 0.00000 0.98100 0.41200
N 	N 	0.69400 0.50000 0.98100 0.57800
N 	N 	0.69400 0.00000 0.48100 0.05000
N 	N 	0.19400 0.50000 0.48100 -0.00500
N 	N 	0.19400 0.00000 0.98100 0.34000
N 	N 	0.30600 0.50000 0.01900 -0.55100
N 	N 	0.30600 0.00000 0.51900 -0.04200
N 	N 	0.80600 0.50000 0.51900 -0.09900
N 	N 	0.80600 -0.00000 0.01900 -0.45600
N 	N 	0.69400 0.50000 0.01900 -0.65200
N 	N 	0.69400 0.00000 0.51900 -0.04600
N 	N 	0.19400 0.50000 0.51900 -0.01600
N 	N 	0.19400 -0.00000 0.01900 -0.36700
N 	N 	0.50000 0.01900 0.69400 -0.65200
N 	N 	0.50000 0.51900 0.19400 -0.01600
N 	N 	0.00000 0.01900 0.19400 -0.36700
N 	N 	0.00000 0.51900 0.69400 -0.04600
N 	N 	0.50000 0.01900 0.30600 -0.55100
N 	N 	0.50000 0.51900 0.80600 -0.09900
N 	N 	0.00000 0.01900 0.80600 -0.45600
N 	N 	0.00000 0.51900 0.30600 -0.04200
N 	N 	0.50000 0.98100 0.69400 0.57800
N 	N 	0.50000 0.48100 0.19400 -0.00500
N 	N 	-0.00000 0.98100 0.19400 0.34000
N 	N 	0.00000 0.48100 0.69400 0.05000
N 	N 	0.50000 0.98100 0.30600 0.48200
N 	N 	0.50000 0.48100 0.80600 0.05600
N 	N 	-0.00000 0.98100 0.80600 0.41200
N 	N 	0.00000 0.48100 0.30600 0.04400
N 	N 	0.01900 0.30600 0.50000 -0.55100
N 	N 	0.01900 0.80600 -0.00000 -0.45600
N 	N 	0.51900 0.30600 -0.00000 -0.04200
N 	N 	0.51900 0.80600 0.50000 -0.09900
N 	N 	0.01900 0.69400 0.50000 -0.65200
N 	N 	0.01900 0.19400 -0.00000 -0.36700
N 	N 	0.51900 0.69400 -0.00000 -0.04600
N 	N 	0.51900 0.19400 0.50000 -0.01600
N 	N 	0.98100 0.30600 0.50000 0.48200
N 	N 	0.98100 0.80600 -0.00000 0.41200
N 	N 	0.48100 0.30600 -0.00000 0.04400
N 	N 	0.48100 0.80600 0.50000 0.05600
N 	N 	0.98100 0.69400 0.50000 0.57800
N 	N 	0.98100 0.19400 -0.00000 0.34000
N 	N 	0.48100 0.69400 -0.00000 0.05000
N 	N 	0.48100 0.19400 0.50000 -0.00500
Cr	Cr	0.50000 0.00000 -0.00000 1.57800
Cr	Cr	0.50000 0.50000 0.50000 1.59100
Cr	Cr	0.00000 0.00000 0.50000 1.57800
Cr	Cr	-0.00000 0.50000 -0.00000 1.57800
