data_crystal

_cell_length_a 13.14970
_cell_length_b 13.14970
_cell_length_c 13.14970
_cell_angle_alpha 90.00000
_cell_angle_beta  90.00000
_cell_angle_gamma 90.00000

_symmetry_space_group_name_	'P 1'
_symmetry_space_group_name_H-M	'P 1'

loop_
_symmetry_equiv_pos_as_xyz
  x,y,z

loop_
_atom_site_label
_atom_site_type_symbol
_atom_site_fract_x
_atom_site_fract_y
_atom_site_fract_z
_atom_site_charge
N 	N 	0.43760 0.45670 0.13536 -0.27900
N 	N 	0.48130 0.46280 0.21406 -0.04300
N 	N 	0.51920 0.46620 0.29220 -0.11500
N 	N 	0.06240 0.54330 0.63536 -0.23500
N 	N 	0.01870 0.53720 0.71406 -0.14900
N 	N 	0.98080 0.53380 0.79220 0.08400
N 	N 	0.56240 0.95670 0.36464 -0.15600
N 	N 	0.51870 0.96280 0.28594 -0.00800
N 	N 	0.48080 0.96620 0.20780 -0.07500
N 	N 	0.93760 0.04330 0.86464 -0.15600
N 	N 	0.98130 0.03720 0.78594 0.08500
N 	N 	0.01920 0.03380 0.70780 -0.27600
N 	N 	0.13536 0.43760 0.45670 -0.27800
N 	N 	0.21406 0.48130 0.46280 -0.04200
N 	N 	0.29220 0.51920 0.46620 -0.11400
N 	N 	0.63536 0.06240 0.54330 -0.23400
N 	N 	0.71406 0.01870 0.53720 -0.14800
N 	N 	0.79220 0.98080 0.53380 0.08500
N 	N 	0.36464 0.56240 0.95670 -0.15500
N 	N 	0.28594 0.51870 0.96280 -0.00800
N 	N 	0.20780 0.48080 0.96620 -0.07500
N 	N 	0.86464 0.93760 0.04330 -0.15600
N 	N 	0.78594 0.98130 0.03720 0.08500
N 	N 	0.70780 0.01920 0.03380 -0.27600
N 	N 	0.45670 0.13536 0.43760 -0.27800
N 	N 	0.46280 0.21406 0.48130 -0.04200
N 	N 	0.46620 0.29220 0.51920 -0.11400
N 	N 	0.54330 0.63536 0.06240 -0.23400
N 	N 	0.53720 0.71406 0.01870 -0.14800
N 	N 	0.53380 0.79220 0.98080 0.08500
N 	N 	0.95670 0.36464 0.56240 -0.15500
N 	N 	0.96280 0.28594 0.51870 -0.00800
N 	N 	0.96620 0.20780 0.48080 -0.07500
N 	N 	0.04330 0.86464 0.93760 -0.15600
N 	N 	0.03720 0.78594 0.98130 0.08500
N 	N 	0.03380 0.70780 0.01920 -0.27600
N 	N 	0.56240 0.54330 0.86464 -0.14500
N 	N 	0.51870 0.53720 0.78594 -0.01700
N 	N 	0.48080 0.53380 0.70780 -0.08900
N 	N 	0.93760 0.45670 0.36464 -0.18700
N 	N 	0.98130 0.46280 0.28594 0.09500
N 	N 	0.01920 0.46620 0.20780 -0.27700
N 	N 	0.43760 0.04330 0.63536 -0.26500
N 	N 	0.48130 0.03720 0.71406 -0.05000
N 	N 	0.51920 0.03380 0.79220 -0.10700
N 	N 	0.06240 0.95670 0.13536 -0.22300
N 	N 	0.01870 0.96280 0.21406 -0.13500
N 	N 	0.98080 0.96620 0.29220 0.08900
N 	N 	0.86464 0.56240 0.54330 -0.14500
N 	N 	0.78594 0.51870 0.53720 -0.01700
N 	N 	0.70780 0.48080 0.53380 -0.08900
N 	N 	0.36464 0.93760 0.45670 -0.18700
N 	N 	0.28594 0.98130 0.46280 0.09500
N 	N 	0.20780 0.01920 0.46620 -0.27700
N 	N 	0.63536 0.43760 0.04330 -0.26500
N 	N 	0.71406 0.48130 0.03720 -0.05000
N 	N 	0.79220 0.51920 0.03380 -0.10700
N 	N 	0.13536 0.06240 0.95670 -0.22300
N 	N 	0.21406 0.01870 0.96280 -0.13500
N 	N 	0.29220 0.98080 0.96620 0.08900
N 	N 	0.54330 0.86464 0.56240 -0.14500
N 	N 	0.53720 0.78594 0.51870 -0.01700
N 	N 	0.53380 0.70780 0.48080 -0.08900
N 	N 	0.45670 0.36464 0.93760 -0.18700
N 	N 	0.46280 0.28594 0.98130 0.09500
N 	N 	0.46620 0.20780 0.01920 -0.27700
N 	N 	0.04330 0.63536 0.43760 -0.26500
N 	N 	0.03720 0.71406 0.48130 -0.05000
N 	N 	0.03380 0.79220 0.51920 -0.10700
N 	N 	0.95670 0.13536 0.06240 -0.22300
N 	N 	0.96280 0.21406 0.01870 -0.13500
N 	N 	0.96620 0.29220 0.98080 0.08900
Cr	Cr	0.50000 0.50000 -0.00000 1.41900
Cr	Cr	-0.00000 0.50000 0.50000 1.41900
Cr	Cr	0.50000 -0.00000 0.50000 1.41900
Cr	Cr	-0.00000 0.00000 -0.00000 1.26900
K 	K 	0.50000 0.50000 0.50000 0.65500
K 	K 	-0.00000 0.50000 -0.00000 0.56900
K 	K 	0.50000 0.00000 -0.00000 0.56900
K 	K 	-0.00000 -0.00000 0.50000 0.56900
