data_crystal

_cell_length_a 13.09730
_cell_length_b 13.09730
_cell_length_c 13.09730
_cell_angle_alpha 90.00000
_cell_angle_beta  90.00000
_cell_angle_gamma 90.00000

_symmetry_space_group_name_	'P 1'
_symmetry_space_group_name_H-M	'P 1'

loop_
_symmetry_equiv_pos_as_xyz
  x,y,z

loop_
_atom_site_label
_atom_site_type_symbol
_atom_site_fract_x
_atom_site_fract_y
_atom_site_fract_z
_atom_site_charge
N 	N 	0.43631 0.45599 0.13520 -0.27900
N 	N 	0.48052 0.46111 0.21404 -0.04400
N 	N 	0.52010 0.46450 0.29246 -0.11400
N 	N 	0.06369 0.54401 0.63520 -0.23400
N 	N 	0.01948 0.53889 0.71404 -0.14700
N 	N 	0.97990 0.53550 0.79246 0.08400
N 	N 	0.56369 0.95599 0.36480 -0.15400
N 	N 	0.51948 0.96111 0.28596 -0.00800
N 	N 	0.47990 0.96450 0.20754 -0.07500
N 	N 	0.93631 0.04401 0.86480 -0.15500
N 	N 	0.98052 0.03889 0.78596 0.08400
N 	N 	0.02010 0.03550 0.70754 -0.27500
N 	N 	0.13520 0.43631 0.45599 -0.27800
N 	N 	0.21404 0.48052 0.46111 -0.04300
N 	N 	0.29246 0.52010 0.46450 -0.11400
N 	N 	0.63520 0.06369 0.54401 -0.23400
N 	N 	0.71404 0.01948 0.53889 -0.14700
N 	N 	0.79246 0.97990 0.53550 0.08400
N 	N 	0.36480 0.56369 0.95599 -0.15400
N 	N 	0.28596 0.51948 0.96111 -0.00800
N 	N 	0.20754 0.47990 0.96450 -0.07500
N 	N 	0.86480 0.93631 0.04401 -0.15500
N 	N 	0.78596 0.98052 0.03889 0.08400
N 	N 	0.70754 0.02010 0.03550 -0.27500
N 	N 	0.45599 0.13520 0.43631 -0.27800
N 	N 	0.46111 0.21404 0.48052 -0.04300
N 	N 	0.46450 0.29246 0.52010 -0.11400
N 	N 	0.54401 0.63520 0.06369 -0.23400
N 	N 	0.53889 0.71404 0.01948 -0.14700
N 	N 	0.53550 0.79246 0.97990 0.08400
N 	N 	0.95599 0.36480 0.56369 -0.15400
N 	N 	0.96111 0.28596 0.51948 -0.00800
N 	N 	0.96450 0.20754 0.47990 -0.07500
N 	N 	0.04401 0.86480 0.93631 -0.15500
N 	N 	0.03889 0.78596 0.98052 0.08400
N 	N 	0.03550 0.70754 0.02010 -0.27500
N 	N 	0.56369 0.54401 0.86480 -0.14400
N 	N 	0.51948 0.53889 0.78596 -0.01800
N 	N 	0.47990 0.53550 0.70754 -0.08900
N 	N 	0.93631 0.45599 0.36480 -0.18600
N 	N 	0.98052 0.46111 0.28596 0.09300
N 	N 	0.02010 0.46450 0.20754 -0.27700
N 	N 	0.43631 0.04401 0.63520 -0.26500
N 	N 	0.48052 0.03889 0.71404 -0.05100
N 	N 	0.52010 0.03550 0.79246 -0.10700
N 	N 	0.06369 0.95599 0.13520 -0.22300
N 	N 	0.01948 0.96111 0.21404 -0.13500
N 	N 	0.97990 0.96450 0.29246 0.08900
N 	N 	0.86480 0.56369 0.54401 -0.14400
N 	N 	0.78596 0.51948 0.53889 -0.01800
N 	N 	0.70754 0.47990 0.53550 -0.08900
N 	N 	0.36480 0.93631 0.45599 -0.18600
N 	N 	0.28596 0.98052 0.46111 0.09300
N 	N 	0.20754 0.02010 0.46450 -0.27700
N 	N 	0.63520 0.43631 0.04401 -0.26500
N 	N 	0.71404 0.48052 0.03889 -0.05100
N 	N 	0.79246 0.52010 0.03550 -0.10700
N 	N 	0.13520 0.06369 0.95599 -0.22300
N 	N 	0.21404 0.01948 0.96111 -0.13500
N 	N 	0.29246 0.97990 0.96450 0.08900
N 	N 	0.54401 0.86480 0.56369 -0.14400
N 	N 	0.53889 0.78596 0.51948 -0.01800
N 	N 	0.53550 0.70754 0.47990 -0.08900
N 	N 	0.45599 0.36480 0.93631 -0.18600
N 	N 	0.46111 0.28596 0.98052 0.09300
N 	N 	0.46450 0.20754 0.02010 -0.27700
N 	N 	0.04401 0.63520 0.43631 -0.26500
N 	N 	0.03889 0.71404 0.48052 -0.05100
N 	N 	0.03550 0.79246 0.52010 -0.10700
N 	N 	0.95599 0.13520 0.06369 -0.22300
N 	N 	0.96111 0.21404 0.01948 -0.13500
N 	N 	0.96450 0.29246 0.97990 0.08900
Cr	Cr	0.50000 0.50000 -0.00000 1.41900
Cr	Cr	0.00000 0.50000 0.50000 1.41900
Cr	Cr	0.50000 0.00000 0.50000 1.41900
Cr	Cr	-0.00000 0.00000 -0.00000 1.26700
K 	K 	0.50000 0.50000 0.50000 0.65500
K 	K 	-0.00000 0.50000 -0.00000 0.56900
K 	K 	0.50000 0.00000 -0.00000 0.56900
K 	K 	0.00000 0.00000 0.50000 0.56900
