data_crystal

_cell_length_a 13.06760
_cell_length_b 13.06760
_cell_length_c 13.06760
_cell_angle_alpha 90.00000
_cell_angle_beta  90.00000
_cell_angle_gamma 90.00000

_symmetry_space_group_name_	'P 1'
_symmetry_space_group_name_H-M	'P 1'

loop_
_symmetry_equiv_pos_as_xyz
  x,y,z

loop_
_atom_site_label
_atom_site_type_symbol
_atom_site_fract_x
_atom_site_fract_y
_atom_site_fract_z
_atom_site_charge
N 	N 	0.43504 0.45523 0.13499 -0.27800
N 	N 	0.48005 0.46026 0.21418 -0.04500
N 	N 	0.52070 0.46320 0.29254 -0.11300
N 	N 	0.06496 0.54477 0.63499 -0.23300
N 	N 	0.01995 0.53974 0.71418 -0.14900
N 	N 	0.97930 0.53680 0.79254 0.08500
N 	N 	0.56496 0.95523 0.36501 -0.15300
N 	N 	0.51995 0.96026 0.28582 -0.00900
N 	N 	0.47930 0.96320 0.20746 -0.07500
N 	N 	0.93504 0.04477 0.86501 -0.15400
N 	N 	0.98005 0.03974 0.78582 0.08200
N 	N 	0.02070 0.03680 0.70746 -0.27500
N 	N 	0.13499 0.43504 0.45523 -0.27700
N 	N 	0.21418 0.48005 0.46026 -0.04400
N 	N 	0.29254 0.52070 0.46320 -0.11300
N 	N 	0.63499 0.06496 0.54477 -0.23300
N 	N 	0.71418 0.01995 0.53974 -0.14900
N 	N 	0.79254 0.97930 0.53680 0.08500
N 	N 	0.36501 0.56496 0.95523 -0.15300
N 	N 	0.28582 0.51995 0.96026 -0.00900
N 	N 	0.20746 0.47930 0.96320 -0.07500
N 	N 	0.86501 0.93504 0.04477 -0.15400
N 	N 	0.78582 0.98005 0.03974 0.08200
N 	N 	0.70746 0.02070 0.03680 -0.27500
N 	N 	0.45523 0.13499 0.43504 -0.27700
N 	N 	0.46026 0.21418 0.48005 -0.04400
N 	N 	0.46320 0.29254 0.52070 -0.11300
N 	N 	0.54477 0.63499 0.06496 -0.23300
N 	N 	0.53974 0.71418 0.01995 -0.14900
N 	N 	0.53680 0.79254 0.97930 0.08500
N 	N 	0.95523 0.36501 0.56496 -0.15300
N 	N 	0.96026 0.28582 0.51995 -0.00900
N 	N 	0.96320 0.20746 0.47930 -0.07500
N 	N 	0.04477 0.86501 0.93504 -0.15400
N 	N 	0.03974 0.78582 0.98005 0.08200
N 	N 	0.03680 0.70746 0.02070 -0.27500
N 	N 	0.56496 0.54477 0.86501 -0.14300
N 	N 	0.51995 0.53974 0.78582 -0.01900
N 	N 	0.47930 0.53680 0.70746 -0.08900
N 	N 	0.93504 0.45523 0.36501 -0.18500
N 	N 	0.98005 0.46026 0.28582 0.09200
N 	N 	0.02070 0.46320 0.20746 -0.27600
N 	N 	0.43504 0.04477 0.63499 -0.26400
N 	N 	0.48005 0.03974 0.71418 -0.05300
N 	N 	0.52070 0.03680 0.79254 -0.10600
N 	N 	0.06496 0.95523 0.13499 -0.22200
N 	N 	0.01995 0.96026 0.21418 -0.13600
N 	N 	0.97930 0.96320 0.29254 0.08900
N 	N 	0.86501 0.56496 0.54477 -0.14300
N 	N 	0.78582 0.51995 0.53974 -0.01900
N 	N 	0.70746 0.47930 0.53680 -0.08900
N 	N 	0.36501 0.93504 0.45523 -0.18500
N 	N 	0.28582 0.98005 0.46026 0.09200
N 	N 	0.20746 0.02070 0.46320 -0.27600
N 	N 	0.63499 0.43504 0.04477 -0.26400
N 	N 	0.71418 0.48005 0.03974 -0.05300
N 	N 	0.79254 0.52070 0.03680 -0.10600
N 	N 	0.13499 0.06496 0.95523 -0.22200
N 	N 	0.21418 0.01995 0.96026 -0.13600
N 	N 	0.29254 0.97930 0.96320 0.08900
N 	N 	0.54477 0.86501 0.56496 -0.14300
N 	N 	0.53974 0.78582 0.51995 -0.01900
N 	N 	0.53680 0.70746 0.47930 -0.08900
N 	N 	0.45523 0.36501 0.93504 -0.18500
N 	N 	0.46026 0.28582 0.98005 0.09200
N 	N 	0.46320 0.20746 0.02070 -0.27600
N 	N 	0.04477 0.63499 0.43504 -0.26400
N 	N 	0.03974 0.71418 0.48005 -0.05300
N 	N 	0.03680 0.79254 0.52070 -0.10600
N 	N 	0.95523 0.13499 0.06496 -0.22200
N 	N 	0.96026 0.21418 0.01995 -0.13600
N 	N 	0.96320 0.29254 0.97930 0.08900
Cr	Cr	0.50000 0.50000 -0.00000 1.41800
Cr	Cr	-0.00000 0.50000 0.50000 1.41800
Cr	Cr	0.50000 0.00000 0.50000 1.41800
Cr	Cr	-0.00000 0.00000 -0.00000 1.26600
K 	K 	0.50000 0.50000 0.50000 0.65600
K 	K 	-0.00000 0.50000 -0.00000 0.56900
K 	K 	0.50000 0.00000 -0.00000 0.56900
K 	K 	-0.00000 0.00000 0.50000 0.56900
