data_crystal

_cell_length_a 13.27120
_cell_length_b 13.27120
_cell_length_c 13.27120
_cell_angle_alpha 90.00000
_cell_angle_beta  90.00000
_cell_angle_gamma 90.00000

_symmetry_space_group_name_	'P 1'
_symmetry_space_group_name_H-M	'P 1'

loop_
_symmetry_equiv_pos_as_xyz
  x,y,z

loop_
_atom_site_label
_atom_site_type_symbol
_atom_site_fract_x
_atom_site_fract_y
_atom_site_fract_z
_atom_site_charge
N 	N 	0.44000 0.13700 0.96570 0.19900
N 	N 	0.44000 0.63700 0.46570 -0.04400
N 	N 	0.94000 0.13700 0.46570 -0.21800
N 	N 	0.94000 0.63700 0.96570 0.03800
N 	N 	0.56000 0.86300 0.96570 0.20900
N 	N 	0.56000 0.36300 0.46570 -0.04100
N 	N 	0.06000 0.86300 0.46570 0.12800
N 	N 	0.06000 0.36300 0.96570 0.37100
N 	N 	0.56000 0.13700 0.03430 -0.30200
N 	N 	0.56000 0.63700 0.53430 -0.04500
N 	N 	0.06000 0.13700 0.53430 0.11400
N 	N 	0.06000 0.63700 0.03430 -0.12700
N 	N 	0.44000 0.86300 0.03430 -0.28400
N 	N 	0.44000 0.36300 0.53430 -0.04500
N 	N 	0.94000 0.86300 0.53430 -0.20200
N 	N 	0.94000 0.36300 0.03430 -0.45900
N 	N 	0.96570 0.44000 0.13700 0.19900
N 	N 	0.96570 0.94000 0.63700 0.03800
N 	N 	0.46570 0.44000 0.63700 -0.04400
N 	N 	0.46570 0.94000 0.13700 -0.21800
N 	N 	0.96570 0.56000 0.86300 0.20900
N 	N 	0.96570 0.06000 0.36300 0.37100
N 	N 	0.46570 0.56000 0.36300 -0.04100
N 	N 	0.46570 0.06000 0.86300 0.12800
N 	N 	0.03430 0.56000 0.13700 -0.30200
N 	N 	0.03430 0.06000 0.63700 -0.12700
N 	N 	0.53430 0.56000 0.63700 -0.04500
N 	N 	0.53430 0.06000 0.13700 0.11400
N 	N 	0.03430 0.44000 0.86300 -0.28300
N 	N 	0.03430 0.94000 0.36300 -0.45800
N 	N 	0.53430 0.44000 0.36300 -0.04400
N 	N 	0.53430 0.94000 0.86300 -0.20100
N 	N 	0.13700 0.96570 0.44000 0.20000
N 	N 	0.13700 0.46570 0.94000 -0.21700
N 	N 	0.63700 0.96570 0.94000 0.03900
N 	N 	0.63700 0.46570 0.44000 -0.04300
N 	N 	0.86300 0.96570 0.56000 0.21000
N 	N 	0.86300 0.46570 0.06000 0.12900
N 	N 	0.36300 0.96570 0.06000 0.37200
N 	N 	0.36300 0.46570 0.56000 -0.04000
N 	N 	0.13700 0.03430 0.56000 -0.30100
N 	N 	0.13700 0.53430 0.06000 0.11500
N 	N 	0.63700 0.03430 0.06000 -0.12600
N 	N 	0.63700 0.53430 0.56000 -0.04400
N 	N 	0.86300 0.03430 0.44000 -0.28300
N 	N 	0.86300 0.53430 0.94000 -0.20100
N 	N 	0.36300 0.03430 0.94000 -0.45800
N 	N 	0.36300 0.53430 0.44000 -0.04400
N 	N 	0.13700 0.44000 0.03430 -0.30200
N 	N 	0.13700 0.94000 0.53430 -0.21900
N 	N 	0.63700 0.44000 0.53430 -0.04500
N 	N 	0.63700 0.94000 0.03430 -0.45600
N 	N 	0.86300 0.56000 0.03430 -0.28100
N 	N 	0.86300 0.06000 0.53430 0.12500
N 	N 	0.36300 0.56000 0.53430 -0.04300
N 	N 	0.36300 0.06000 0.03430 -0.12600
N 	N 	0.13700 0.56000 0.96570 0.20100
N 	N 	0.13700 0.06000 0.46570 0.11800
N 	N 	0.63700 0.56000 0.46570 -0.04200
N 	N 	0.63700 0.06000 0.96570 0.36700
N 	N 	0.86300 0.44000 0.96570 0.20900
N 	N 	0.86300 0.94000 0.46570 -0.19900
N 	N 	0.36300 0.44000 0.46570 -0.04100
N 	N 	0.36300 0.94000 0.96570 0.04100
N 	N 	0.44000 0.96570 0.86300 0.20900
N 	N 	0.44000 0.46570 0.36300 -0.04100
N 	N 	0.94000 0.96570 0.36300 0.04100
N 	N 	0.94000 0.46570 0.86300 -0.19900
N 	N 	0.56000 0.96570 0.13700 0.20100
N 	N 	0.56000 0.46570 0.63700 -0.04200
N 	N 	0.06000 0.96570 0.63700 0.36700
N 	N 	0.06000 0.46570 0.13700 0.11800
N 	N 	0.56000 0.03430 0.86300 -0.28100
N 	N 	0.56000 0.53430 0.36300 -0.04300
N 	N 	0.06000 0.03430 0.36300 -0.12600
N 	N 	0.06000 0.53430 0.86300 0.12500
N 	N 	0.44000 0.03430 0.13700 -0.30200
N 	N 	0.44000 0.53430 0.63700 -0.04500
N 	N 	0.94000 0.03430 0.63700 -0.45600
N 	N 	0.94000 0.53430 0.13700 -0.21900
N 	N 	0.96570 0.13700 0.56000 0.20100
N 	N 	0.96570 0.63700 0.06000 0.36700
N 	N 	0.46570 0.13700 0.06000 0.11800
N 	N 	0.46570 0.63700 0.56000 -0.04200
N 	N 	0.96570 0.86300 0.44000 0.20900
N 	N 	0.96570 0.36300 0.94000 0.04100
N 	N 	0.46570 0.86300 0.94000 -0.19900
N 	N 	0.46570 0.36300 0.44000 -0.04100
N 	N 	0.03430 0.13700 0.44000 -0.30200
N 	N 	0.03430 0.63700 0.94000 -0.45600
N 	N 	0.53430 0.13700 0.94000 -0.21900
N 	N 	0.53430 0.63700 0.44000 -0.04500
N 	N 	0.03430 0.86300 0.56000 -0.28100
N 	N 	0.03430 0.36300 0.06000 -0.12600
N 	N 	0.53430 0.86300 0.06000 0.12500
N 	N 	0.53430 0.36300 0.56000 -0.04300
N 	N 	0.56000 0.86300 0.03430 -0.28100
N 	N 	0.56000 0.36300 0.53430 -0.04300
N 	N 	0.06000 0.86300 0.53430 0.12500
N 	N 	0.06000 0.36300 0.03430 -0.12600
N 	N 	0.44000 0.13700 0.03430 -0.30200
N 	N 	0.44000 0.63700 0.53430 -0.04500
N 	N 	0.94000 0.13700 0.53430 -0.21900
N 	N 	0.94000 0.63700 0.03430 -0.45600
N 	N 	0.44000 0.86300 0.96570 0.20900
N 	N 	0.44000 0.36300 0.46570 -0.04100
N 	N 	0.94000 0.86300 0.46570 -0.19900
N 	N 	0.94000 0.36300 0.96570 0.04100
N 	N 	0.56000 0.13700 0.96570 0.20100
N 	N 	0.56000 0.63700 0.46570 -0.04200
N 	N 	0.06000 0.13700 0.46570 0.11800
N 	N 	0.06000 0.63700 0.96570 0.36700
N 	N 	0.03430 0.56000 0.86300 -0.28100
N 	N 	0.03430 0.06000 0.36300 -0.12600
N 	N 	0.53430 0.56000 0.36300 -0.04300
N 	N 	0.53430 0.06000 0.86300 0.12500
N 	N 	0.03430 0.44000 0.13700 -0.30200
N 	N 	0.03430 0.94000 0.63700 -0.45600
N 	N 	0.53430 0.44000 0.63700 -0.04500
N 	N 	0.53430 0.94000 0.13700 -0.21900
N 	N 	0.96570 0.44000 0.86300 0.20900
N 	N 	0.96570 0.94000 0.36300 0.04100
N 	N 	0.46570 0.44000 0.36300 -0.04100
N 	N 	0.46570 0.94000 0.86300 -0.19900
N 	N 	0.96570 0.56000 0.13700 0.20100
N 	N 	0.96570 0.06000 0.63700 0.36700
N 	N 	0.46570 0.56000 0.63700 -0.04200
N 	N 	0.46570 0.06000 0.13700 0.11800
N 	N 	0.86300 0.03430 0.56000 -0.28100
N 	N 	0.86300 0.53430 0.06000 0.12500
N 	N 	0.36300 0.03430 0.06000 -0.12600
N 	N 	0.36300 0.53430 0.56000 -0.04300
N 	N 	0.13700 0.03430 0.44000 -0.30200
N 	N 	0.13700 0.53430 0.94000 -0.21900
N 	N 	0.63700 0.03430 0.94000 -0.45600
N 	N 	0.63700 0.53430 0.44000 -0.04500
N 	N 	0.86300 0.96570 0.44000 0.20900
N 	N 	0.86300 0.46570 0.94000 -0.19900
N 	N 	0.36300 0.96570 0.94000 0.04100
N 	N 	0.36300 0.46570 0.44000 -0.04100
N 	N 	0.13700 0.96570 0.56000 0.20100
N 	N 	0.13700 0.46570 0.06000 0.11800
N 	N 	0.63700 0.96570 0.06000 0.36700
N 	N 	0.63700 0.46570 0.56000 -0.04200
N 	N 	0.86300 0.56000 0.96570 0.21000
N 	N 	0.86300 0.06000 0.46570 0.12900
N 	N 	0.36300 0.56000 0.46570 -0.04000
N 	N 	0.36300 0.06000 0.96570 0.37200
N 	N 	0.13700 0.44000 0.96570 0.20000
N 	N 	0.13700 0.94000 0.46570 -0.21700
N 	N 	0.63700 0.44000 0.46570 -0.04300
N 	N 	0.63700 0.94000 0.96570 0.03900
N 	N 	0.86300 0.44000 0.03430 -0.28300
N 	N 	0.86300 0.94000 0.53430 -0.20100
N 	N 	0.36300 0.44000 0.53430 -0.04400
N 	N 	0.36300 0.94000 0.03430 -0.45800
N 	N 	0.13700 0.56000 0.03430 -0.30100
N 	N 	0.13700 0.06000 0.53430 0.11500
N 	N 	0.63700 0.56000 0.53430 -0.04400
N 	N 	0.63700 0.06000 0.03430 -0.12600
N 	N 	0.56000 0.03430 0.13700 -0.30100
N 	N 	0.56000 0.53430 0.63700 -0.04400
N 	N 	0.06000 0.03430 0.63700 -0.12600
N 	N 	0.06000 0.53430 0.13700 0.11500
N 	N 	0.44000 0.03430 0.86300 -0.28300
N 	N 	0.44000 0.53430 0.36300 -0.04400
N 	N 	0.94000 0.03430 0.36300 -0.45800
N 	N 	0.94000 0.53430 0.86300 -0.20100
N 	N 	0.44000 0.96570 0.13700 0.20000
N 	N 	0.44000 0.46570 0.63700 -0.04300
N 	N 	0.94000 0.96570 0.63700 0.03900
N 	N 	0.94000 0.46570 0.13700 -0.21700
N 	N 	0.56000 0.96570 0.86300 0.21000
N 	N 	0.56000 0.46570 0.36300 -0.04000
N 	N 	0.06000 0.96570 0.36300 0.37200
N 	N 	0.06000 0.46570 0.86300 0.12900
N 	N 	0.03430 0.86300 0.44000 -0.28300
N 	N 	0.03430 0.36300 0.94000 -0.45800
N 	N 	0.53430 0.86300 0.94000 -0.20100
N 	N 	0.53430 0.36300 0.44000 -0.04400
N 	N 	0.03430 0.13700 0.56000 -0.30100
N 	N 	0.03430 0.63700 0.06000 -0.12600
N 	N 	0.53430 0.13700 0.06000 0.11500
N 	N 	0.53430 0.63700 0.56000 -0.04400
N 	N 	0.96570 0.86300 0.56000 0.21000
N 	N 	0.96570 0.36300 0.06000 0.37200
N 	N 	0.46570 0.86300 0.06000 0.12900
N 	N 	0.46570 0.36300 0.56000 -0.04000
N 	N 	0.96570 0.13700 0.44000 0.20000
N 	N 	0.96570 0.63700 0.94000 0.03900
N 	N 	0.46570 0.13700 0.94000 -0.21700
N 	N 	0.46570 0.63700 0.44000 -0.04300
K 	K 	0.50000 0.50000 -0.00000 0.67100
K 	K 	0.00000 0.50000 0.50000 0.67100
K 	K 	0.50000 0.00000 0.50000 0.67100
K 	K 	-0.00000 0.00000 -0.00000 0.68300
N 	N 	0.47980 0.21420 0.97980 -0.10300
N 	N 	0.47980 0.71420 0.47980 0.01000
N 	N 	0.52020 0.78580 0.97980 -0.10700
N 	N 	0.52020 0.28580 0.47980 0.00800
N 	N 	0.02020 0.78580 0.47980 0.11800
N 	N 	0.52020 0.21420 0.02020 0.11800
N 	N 	0.52020 0.71420 0.52020 0.00300
N 	N 	0.02020 0.71420 0.02020 0.22400
N 	N 	0.47980 0.78580 0.02020 0.11800
N 	N 	0.47980 0.28580 0.52020 0.00800
N 	N 	0.97980 0.47980 0.21420 -0.10300
N 	N 	0.97980 0.97980 0.71420 -0.21800
N 	N 	0.47980 0.47980 0.71420 0.01000
N 	N 	0.97980 0.52020 0.78580 -0.10700
N 	N 	0.97980 0.02020 0.28580 0.00800
N 	N 	0.47980 0.02020 0.78580 0.11800
N 	N 	0.02020 0.52020 0.21420 0.11800
N 	N 	0.02020 0.02020 0.71420 0.22400
N 	N 	0.02020 0.47980 0.78580 0.11800
N 	N 	0.02020 0.97980 0.28580 0.00800
N 	N 	0.21420 0.97980 0.47980 -0.10300
N 	N 	0.71420 0.97980 0.97980 -0.21800
N 	N 	0.71420 0.47980 0.47980 0.01000
N 	N 	0.78580 0.97980 0.52020 -0.10700
N 	N 	0.78580 0.47980 0.02020 0.11800
N 	N 	0.28580 0.97980 0.02020 0.00800
N 	N 	0.21420 0.02020 0.52020 0.11800
N 	N 	0.71420 0.02020 0.02020 0.22400
N 	N 	0.78580 0.02020 0.47980 0.11800
N 	N 	0.28580 0.02020 0.97980 0.00800
N 	N 	0.21420 0.47980 0.02020 0.12200
N 	N 	0.71420 0.47980 0.52020 0.00700
N 	N 	0.78580 0.52020 0.02020 0.11400
N 	N 	0.28580 0.52020 0.52020 0.00400
N 	N 	0.28580 0.02020 0.02020 0.23000
N 	N 	0.21420 0.52020 0.97980 -0.10700
N 	N 	0.21420 0.02020 0.47980 0.12200
N 	N 	0.71420 0.52020 0.47980 0.00700
N 	N 	0.78580 0.47980 0.97980 -0.10300
N 	N 	0.28580 0.47980 0.47980 0.01200
N 	N 	0.47980 0.97980 0.78580 -0.10300
N 	N 	0.47980 0.47980 0.28580 0.01200
N 	N 	0.52020 0.97980 0.21420 -0.10700
N 	N 	0.52020 0.47980 0.71420 0.00700
N 	N 	0.02020 0.47980 0.21420 0.12200
N 	N 	0.52020 0.02020 0.78580 0.11400
N 	N 	0.52020 0.52020 0.28580 0.00400
N 	N 	0.02020 0.02020 0.28580 0.23000
N 	N 	0.47980 0.02020 0.21420 0.12200
N 	N 	0.47980 0.52020 0.71420 0.00700
N 	N 	0.97980 0.21420 0.52020 -0.10700
N 	N 	0.97980 0.71420 0.02020 0.00700
N 	N 	0.47980 0.21420 0.02020 0.12200
N 	N 	0.97980 0.78580 0.47980 -0.10300
N 	N 	0.97980 0.28580 0.97980 -0.22200
N 	N 	0.47980 0.28580 0.47980 0.01200
N 	N 	0.02020 0.21420 0.47980 0.12200
N 	N 	0.02020 0.71420 0.97980 0.00700
N 	N 	0.02020 0.78580 0.52020 0.11400
N 	N 	0.02020 0.28580 0.02020 0.23000
N 	N 	0.52020 0.78580 0.02020 0.11400
N 	N 	0.52020 0.28580 0.52020 0.00400
N 	N 	0.47980 0.71420 0.52020 0.00700
N 	N 	0.47980 0.78580 0.97980 -0.10300
N 	N 	0.52020 0.21420 0.97980 -0.10700
N 	N 	0.52020 0.71420 0.47980 0.00700
N 	N 	0.02020 0.52020 0.78580 0.11400
N 	N 	0.02020 0.97980 0.71420 0.00700
N 	N 	0.97980 0.47980 0.78580 -0.10300
N 	N 	0.97980 0.97980 0.28580 -0.22200
N 	N 	0.97980 0.52020 0.21420 -0.10700
N 	N 	0.97980 0.02020 0.71420 0.00700
N 	N 	0.78580 0.02020 0.52020 0.11400
N 	N 	0.71420 0.02020 0.97980 0.00700
N 	N 	0.78580 0.97980 0.47980 -0.10300
N 	N 	0.28580 0.97980 0.97980 -0.22200
N 	N 	0.21420 0.97980 0.52020 -0.10700
N 	N 	0.71420 0.97980 0.02020 0.00700
N 	N 	0.78580 0.52020 0.97980 -0.10700
N 	N 	0.28580 0.52020 0.47980 0.00800
N 	N 	0.21420 0.47980 0.97980 -0.10300
N 	N 	0.28580 0.47980 0.52020 0.00800
N 	N 	0.21420 0.52020 0.02020 0.11800
N 	N 	0.71420 0.52020 0.52020 0.00300
N 	N 	0.52020 0.02020 0.21420 0.11800
N 	N 	0.52020 0.52020 0.71420 0.00300
N 	N 	0.47980 0.52020 0.28580 0.00800
N 	N 	0.47980 0.97980 0.21420 -0.10300
N 	N 	0.52020 0.97980 0.78580 -0.10700
N 	N 	0.52020 0.47980 0.28580 0.00800
N 	N 	0.02020 0.28580 0.97980 0.00800
N 	N 	0.02020 0.21420 0.52020 0.11800
N 	N 	0.97980 0.78580 0.52020 -0.10700
N 	N 	0.97980 0.28580 0.02020 0.00800
N 	N 	0.97980 0.21420 0.47980 -0.10300
N 	N 	0.97980 0.71420 0.97980 -0.21800
N 	N 	0.51700 0.29160 -0.00000 -0.04500
N 	N 	0.51700 0.79160 0.50000 -0.01600
N 	N 	0.01700 0.29160 0.50000 -0.30400
N 	N 	0.01700 0.79160 -0.00000 -0.33900
N 	N 	0.48300 0.70840 -0.00000 -0.05300
N 	N 	0.48300 0.20840 0.50000 -0.01800
N 	N 	0.98300 0.70840 0.50000 0.33900
N 	N 	0.98300 0.20840 -0.00000 0.31900
N 	N 	0.48300 0.29160 -0.00000 -0.05400
N 	N 	0.48300 0.79160 0.50000 -0.02400
N 	N 	0.98300 0.29160 0.50000 0.34400
N 	N 	0.98300 0.79160 -0.00000 0.30600
N 	N 	0.51700 0.70840 -0.00000 -0.04500
N 	N 	0.51700 0.20840 0.50000 -0.01000
N 	N 	0.01700 0.70840 0.50000 -0.30000
N 	N 	0.01700 0.20840 -0.00000 -0.34000
N 	N 	0.00000 0.51700 0.29160 -0.04500
N 	N 	0.00000 0.01700 0.79160 -0.33900
N 	N 	0.50000 0.51700 0.79160 -0.01600
N 	N 	0.50000 0.01700 0.29160 -0.30400
N 	N 	-0.00000 0.48300 0.70840 -0.05300
N 	N 	-0.00000 0.98300 0.20840 0.31900
N 	N 	0.50000 0.48300 0.20840 -0.01800
N 	N 	0.50000 0.98300 0.70840 0.33900
N 	N 	0.00000 0.48300 0.29160 -0.05400
N 	N 	0.00000 0.98300 0.79160 0.30600
N 	N 	0.50000 0.48300 0.79160 -0.02400
N 	N 	0.50000 0.98300 0.29160 0.34400
N 	N 	-0.00000 0.51700 0.70840 -0.04500
N 	N 	0.00000 0.01700 0.20840 -0.34000
N 	N 	0.50000 0.51700 0.20840 -0.01000
N 	N 	0.50000 0.01700 0.70840 -0.30000
N 	N 	0.29160 0.00000 0.51700 -0.04500
N 	N 	0.29160 0.50000 0.01700 -0.30400
N 	N 	0.79160 0.00000 0.01700 -0.33900
N 	N 	0.79160 0.50000 0.51700 -0.01600
N 	N 	0.70840 -0.00000 0.48300 -0.05300
N 	N 	0.70840 0.50000 0.98300 0.33900
N 	N 	0.20840 0.00000 0.98300 0.31900
N 	N 	0.20840 0.50000 0.48300 -0.01800
N 	N 	0.29160 -0.00000 0.48300 -0.05400
N 	N 	0.29160 0.50000 0.98300 0.34400
N 	N 	0.79160 0.00000 0.98300 0.30600
N 	N 	0.79160 0.50000 0.48300 -0.02400
N 	N 	0.70840 0.00000 0.51700 -0.04500
N 	N 	0.70840 0.50000 0.01700 -0.30000
N 	N 	0.20840 0.00000 0.01700 -0.34000
N 	N 	0.20840 0.50000 0.51700 -0.01000
N 	N 	0.29160 0.51700 -0.00000 -0.04500
N 	N 	0.29160 0.01700 0.50000 -0.30400
N 	N 	0.79160 0.51700 0.50000 -0.01600
N 	N 	0.79160 0.01700 -0.00000 -0.33900
N 	N 	0.70840 0.48300 -0.00000 -0.05300
N 	N 	0.70840 0.98300 0.50000 0.33900
N 	N 	0.20840 0.48300 0.50000 -0.01800
N 	N 	0.20840 0.98300 -0.00000 0.31900
N 	N 	0.29160 0.48300 -0.00000 -0.05400
N 	N 	0.29160 0.98300 0.50000 0.34400
N 	N 	0.79160 0.48300 0.50000 -0.02400
N 	N 	0.79160 0.98300 -0.00000 0.30600
N 	N 	0.70840 0.51700 -0.00000 -0.04500
N 	N 	0.70840 0.01700 0.50000 -0.30000
N 	N 	0.20840 0.51700 0.50000 -0.01000
N 	N 	0.20840 0.01700 -0.00000 -0.34000
N 	N 	0.51700 -0.00000 0.70840 -0.04500
N 	N 	0.51700 0.50000 0.20840 -0.01000
N 	N 	0.01700 0.00000 0.20840 -0.34000
N 	N 	0.01700 0.50000 0.70840 -0.30000
N 	N 	0.48300 0.00000 0.29160 -0.05400
N 	N 	0.48300 0.50000 0.79160 -0.02400
N 	N 	0.98300 0.00000 0.79160 0.30600
N 	N 	0.98300 0.50000 0.29160 0.34400
N 	N 	0.48300 -0.00000 0.70840 -0.05300
N 	N 	0.48300 0.50000 0.20840 -0.01800
N 	N 	0.98300 0.00000 0.20840 0.31900
N 	N 	0.98300 0.50000 0.70840 0.33900
N 	N 	0.51700 0.00000 0.29160 -0.04500
N 	N 	0.51700 0.50000 0.79160 -0.01600
N 	N 	0.01700 0.00000 0.79160 -0.33900
N 	N 	0.01700 0.50000 0.29160 -0.30400
N 	N 	0.00000 0.29160 0.48300 -0.05400
N 	N 	0.00000 0.79160 0.98300 0.30600
N 	N 	0.50000 0.29160 0.98300 0.34400
N 	N 	0.50000 0.79160 0.48300 -0.02400
N 	N 	-0.00000 0.70840 0.51700 -0.04500
N 	N 	0.00000 0.20840 0.01700 -0.34000
N 	N 	0.50000 0.70840 0.01700 -0.30000
N 	N 	0.50000 0.20840 0.51700 -0.01000
N 	N 	0.00000 0.29160 0.51700 -0.04500
N 	N 	0.00000 0.79160 0.01700 -0.33900
N 	N 	0.50000 0.29160 0.01700 -0.30400
N 	N 	0.50000 0.79160 0.51700 -0.01600
N 	N 	-0.00000 0.70840 0.48300 -0.05300
N 	N 	-0.00000 0.20840 0.98300 0.31900
N 	N 	0.50000 0.70840 0.98300 0.33900
N 	N 	0.50000 0.20840 0.48300 -0.01800
Cr	Cr	0.50000 0.00000 -0.00000 1.62200
Cr	Cr	0.50000 0.50000 0.50000 1.59500
Cr	Cr	0.00000 0.00000 0.50000 1.62200
Cr	Cr	0.00000 0.50000 -0.00000 1.62200
