data_crystal

_cell_length_a 8.43630
_cell_length_b 13.14850
_cell_length_c 17.83300
_cell_angle_alpha 90.00000
_cell_angle_beta  90.00000
_cell_angle_gamma 90.00000

_symmetry_space_group_name_	'P 1'
_symmetry_space_group_name_H-M	'P 1'

loop_
_symmetry_equiv_pos_as_xyz
  x,y,z

loop_
_atom_site_label
_atom_site_type_symbol
_atom_site_fract_x
_atom_site_fract_y
_atom_site_fract_z
_atom_site_charge
C 	C 	0.61930 0.06010 0.36990 0.30000
C 	C 	0.68200 0.99490 0.43310 -0.05200
C 	C 	0.76500 0.03920 0.49120 0.04200
H 	H 	0.77440 0.10970 0.49250 0.04100
C 	C 	0.83430 0.98140 0.54810 -0.11200
H 	H 	0.90030 0.01120 0.58360 0.10500
C 	C 	0.80240 0.88050 0.54980 0.08700
H 	H 	0.84440 0.84130 0.58840 0.03500
C 	C 	0.65550 0.89100 0.43930 0.01400
C 	C 	0.55580 0.83000 0.38650 0.27800
C 	C 	0.77960 0.31390 0.57310 0.33400
C 	C 	0.69540 0.38340 0.51820 -0.07500
C 	C 	0.61400 0.33910 0.45840 0.03800
H 	H 	0.61180 0.26870 0.45360 0.04400
C 	C 	0.53700 0.39780 0.40710 -0.12000
H 	H 	0.48100 0.36820 0.36790 0.09600
C 	C 	0.54460 0.50230 0.41450 0.07600
H 	H 	0.49350 0.54320 0.37950 0.03000
C 	C 	0.69840 0.48880 0.52200 0.01200
C 	C 	0.78450 0.54910 0.58210 0.28600
N 	N 	0.71200 0.83520 0.49760 -0.20100
N 	N 	0.62390 0.54580 0.47110 -0.20700
O 	O 	0.68790 0.05360 0.30610 -0.16600
O 	O 	0.51090 0.11970 0.38590 -0.22000
O 	O 	0.48960 0.87400 0.33310 -0.17900
O 	O 	0.54440 0.73580 0.40050 -0.34800
O 	O 	0.77300 0.64490 0.57700 -0.34300
O 	O 	0.85610 0.50560 0.63230 -0.19800
O 	O 	0.91540 0.28520 0.56080 -0.31500
O 	O 	0.69120 0.28320 0.62590 -0.19500
Cu	Cu	0.64650 0.69147 0.49257 0.91900
U 	U 	0.81798 0.17818 0.23286 0.00300
C 	C 	0.38070 0.93990 0.86990 0.28900
C 	C 	0.31800 0.00510 0.93310 -0.02500
C 	C 	0.23500 0.96080 0.99120 -0.05500
H 	H 	0.22560 0.89030 0.99250 0.05700
C 	C 	0.16570 0.01860 0.04810 -0.02400
H 	H 	0.09970 0.98880 0.08360 0.08300
C 	C 	0.19760 0.11950 0.04980 0.10600
H 	H 	0.15560 0.15870 0.08840 0.03600
C 	C 	0.34450 0.10900 0.93930 -0.00500
C 	C 	0.44420 0.17000 0.88650 0.28200
C 	C 	0.22040 0.68610 0.07310 0.31600
C 	C 	0.30460 0.61660 0.01820 -0.00200
C 	C 	0.38600 0.66090 0.95840 -0.06700
H 	H 	0.38820 0.73130 0.95360 0.06800
C 	C 	0.46300 0.60220 0.90710 -0.06800
H 	H 	0.51900 0.63180 0.86790 0.07500
C 	C 	0.45540 0.49770 0.91450 0.03900
H 	H 	0.50650 0.45680 0.87950 0.04000
C 	C 	0.30160 0.51120 0.02200 0.03700
C 	C 	0.21550 0.45090 0.08210 0.28500
N 	N 	0.28800 0.16480 0.99760 -0.22500
N 	N 	0.37610 0.45420 0.97110 -0.23000
O 	O 	0.31210 0.94640 0.80610 -0.16500
O 	O 	0.48910 0.88030 0.88590 -0.22300
O 	O 	0.51040 0.12600 0.83310 -0.18200
O 	O 	0.45560 0.26420 0.90050 -0.35500
O 	O 	0.22700 0.35510 0.07700 -0.32400
O 	O 	0.14390 0.49440 0.13230 -0.19800
O 	O 	0.08460 0.71480 0.06080 -0.28900
O 	O 	0.30880 0.71680 0.12590 -0.18500
Cu	Cu	0.35350 0.30853 0.99257 0.90000
U 	U 	0.18202 0.82182 0.73286 -0.00000
C 	C 	0.11930 0.93990 0.36990 0.30000
C 	C 	0.18200 0.00510 0.43310 -0.05400
C 	C 	0.26500 0.96080 0.49120 0.04100
H 	H 	0.27440 0.89030 0.49250 0.04100
C 	C 	0.33430 0.01860 0.54810 -0.11000
H 	H 	0.40030 0.98880 0.58360 0.10300
C 	C 	0.30240 0.11950 0.54980 0.08600
H 	H 	0.34440 0.15870 0.58840 0.03500
C 	C 	0.15550 0.10900 0.43930 0.01400
C 	C 	0.05580 0.17000 0.38650 0.27400
C 	C 	0.27960 0.68610 0.57310 0.33500
C 	C 	0.19540 0.61660 0.51820 -0.07600
C 	C 	0.11400 0.66090 0.45840 0.03900
H 	H 	0.11180 0.73130 0.45360 0.04300
C 	C 	0.03700 0.60220 0.40710 -0.12200
H 	H 	0.98100 0.63180 0.36790 0.09700
C 	C 	0.04460 0.49770 0.41450 0.07200
H 	H 	0.99350 0.45680 0.37950 0.03300
C 	C 	0.19840 0.51120 0.52200 0.01200
C 	C 	0.28450 0.45090 0.58210 0.28600
N 	N 	0.21200 0.16480 0.49760 -0.20100
N 	N 	0.12390 0.45420 0.47110 -0.20700
O 	O 	0.18790 0.94640 0.30610 -0.16700
O 	O 	0.01090 0.88030 0.38590 -0.22000
O 	O 	0.98960 0.12600 0.33310 -0.17600
O 	O 	0.04440 0.26420 0.40050 -0.34900
O 	O 	0.27300 0.35510 0.57700 -0.34300
O 	O 	0.35610 0.49440 0.63230 -0.19900
O 	O 	0.41540 0.71480 0.56080 -0.31600
O 	O 	0.19120 0.71680 0.62590 -0.19600
Cu	Cu	0.14650 0.30853 0.49257 0.91900
U 	U 	0.31798 0.82182 0.23286 0.00200
C 	C 	0.88070 0.06010 0.86990 0.28900
C 	C 	0.81800 0.99490 0.93310 -0.02400
C 	C 	0.73500 0.03920 0.99120 -0.05600
H 	H 	0.72560 0.10970 0.99250 0.05800
C 	C 	0.66570 0.98140 0.04810 -0.02000
H 	H 	0.59970 0.01120 0.08360 0.08200
C 	C 	0.69760 0.88050 0.04980 0.10500
H 	H 	0.65560 0.84130 0.08840 0.03700
C 	C 	0.84450 0.89100 0.93930 -0.00600
C 	C 	0.94420 0.83000 0.88650 0.28300
C 	C 	0.72040 0.31390 0.07310 0.31500
C 	C 	0.80460 0.38340 0.01820 -0.00100
C 	C 	0.88600 0.33910 0.95840 -0.06900
H 	H 	0.88820 0.26870 0.95360 0.06900
C 	C 	0.96300 0.39780 0.90710 -0.06300
H 	H 	0.01900 0.36820 0.86790 0.07200
C 	C 	0.95540 0.50230 0.91450 0.04000
H 	H 	0.00650 0.54320 0.87950 0.03800
C 	C 	0.80160 0.48880 0.02200 0.03700
C 	C 	0.71550 0.54910 0.08210 0.28600
N 	N 	0.78800 0.83520 0.99760 -0.22400
N 	N 	0.87610 0.54580 0.97110 -0.22900
O 	O 	0.81210 0.05360 0.80610 -0.16400
O 	O 	0.98910 0.11970 0.88590 -0.22200
O 	O 	0.01040 0.87400 0.83310 -0.18300
O 	O 	0.95560 0.73580 0.90050 -0.35500
O 	O 	0.72700 0.64490 0.07700 -0.32300
O 	O 	0.64390 0.50560 0.13230 -0.19700
O 	O 	0.58460 0.28520 0.06080 -0.28800
O 	O 	0.80880 0.28320 0.12590 -0.18400
Cu	Cu	0.85350 0.69147 0.99257 0.90100
U 	U 	0.68202 0.17818 0.73286 0.00000
