data_crystal

_cell_length_a 8.86940
_cell_length_b 17.82700
_cell_length_c 9.40620
_cell_angle_alpha 90.00000
_cell_angle_beta  107.25000
_cell_angle_gamma 90.00000

_symmetry_space_group_name_	'P 1'
_symmetry_space_group_name_H-M	'P 1'

loop_
_symmetry_equiv_pos_as_xyz
  x,y,z

loop_
_atom_site_label
_atom_site_type_symbol
_atom_site_fract_x
_atom_site_fract_y
_atom_site_fract_z
_atom_site_charge
Cd	Cd	0.42282 0.57294 0.84954 1.22000
Cl	Cl	0.69792 0.51416 0.98770 -0.59400
N 	N 	0.45630 0.66832 0.02290 -0.26100
N 	N 	0.49360 0.77058 0.20070 -0.17900
N 	N 	0.67780 0.87420 0.22800 -0.25200
N 	N 	0.37740 0.48435 0.66080 -0.26500
N 	N 	0.33520 0.38170 0.48780 -0.18200
N 	N 	0.45820 0.35308 0.29670 -0.24600
C 	C 	0.47900 0.71707 0.10380 0.19400
C 	C 	0.59370 0.82407 0.21030 0.18700
C 	C 	0.36720 0.43761 0.57880 0.19600
C 	C 	0.40490 0.36966 0.38780 0.18000
Cd	Cd	0.07718 0.07294 0.65046 1.21800
Cl	Cl	0.80208 0.01416 0.51230 -0.59300
N 	N 	0.04370 0.16832 0.47710 -0.26200
N 	N 	0.00640 0.27058 0.29930 -0.17900
N 	N 	0.82220 0.37420 0.27200 -0.25100
N 	N 	0.12260 0.98435 0.83920 -0.26300
N 	N 	0.16480 0.88170 0.01220 -0.18000
N 	N 	0.04180 0.85308 0.20330 -0.24400
C 	C 	0.02100 0.21707 0.39620 0.19300
C 	C 	0.90630 0.32407 0.28970 0.18800
C 	C 	0.13280 0.93761 0.92120 0.19300
C 	C 	0.09510 0.86966 0.11220 0.18200
Cd	Cd	0.57718 0.42706 0.15046 1.22000
Cl	Cl	0.30208 0.48584 0.01230 -0.59400
N 	N 	0.54370 0.33168 0.97710 -0.26100
N 	N 	0.50640 0.22942 0.79930 -0.17900
N 	N 	0.32220 0.12580 0.77200 -0.25200
N 	N 	0.62260 0.51565 0.33920 -0.26500
N 	N 	0.66480 0.61830 0.51220 -0.18200
N 	N 	0.54180 0.64692 0.70330 -0.24600
C 	C 	0.52100 0.28293 0.89620 0.19400
C 	C 	0.40630 0.17593 0.78970 0.18700
C 	C 	0.63280 0.56239 0.42120 0.19600
C 	C 	0.59510 0.63034 0.61220 0.18000
Cd	Cd	0.92282 0.92706 0.34954 1.21800
Cl	Cl	0.19792 0.98584 0.48770 -0.59300
N 	N 	0.95630 0.83168 0.52290 -0.26200
N 	N 	0.99360 0.72942 0.70070 -0.17900
N 	N 	0.17780 0.62580 0.72800 -0.25100
N 	N 	0.87740 0.01565 0.16080 -0.26300
N 	N 	0.83520 0.11830 0.98780 -0.18000
N 	N 	0.95820 0.14692 0.79670 -0.24400
C 	C 	0.97900 0.78293 0.60380 0.19300
C 	C 	0.09370 0.67593 0.71030 0.18800
C 	C 	0.86720 0.06239 0.07880 0.19300
C 	C 	0.90490 0.13034 0.88780 0.18200
