data_crystal

_cell_length_a 23.18850
_cell_length_b 23.18850
_cell_length_c 23.18850
_cell_angle_alpha 90.00000
_cell_angle_beta  90.00000
_cell_angle_gamma 90.00000

_symmetry_space_group_name_	'P 1'
_symmetry_space_group_name_H-M	'P 1'

loop_
_symmetry_equiv_pos_as_xyz
  x,y,z

loop_
_atom_site_label
_atom_site_type_symbol
_atom_site_fract_x
_atom_site_fract_y
_atom_site_fract_z
_atom_site_charge
O 	O 	0.32400 0.22320 0.29190 -0.22500
N 	N 	0.32400 0.22100 0.34920 -0.06800
C 	C 	0.36200 0.25280 0.37810 0.06200
H 	H 	0.38760 0.27610 0.35780 0.02800
C 	C 	0.36410 0.25200 0.43590 -0.11200
H 	H 	0.39070 0.27510 0.45490 0.06800
C 	C 	0.32670 0.21660 0.46840 0.04500
C 	C 	0.28980 0.18280 0.43690 -0.09200
H 	H 	0.26490 0.15820 0.45640 0.06800
C 	C 	0.28810 0.18390 0.37600 0.03500
H 	H 	0.26330 0.16010 0.35540 0.04500
O 	O 	0.82400 0.72320 0.79190 -0.22500
N 	N 	0.82400 0.72100 0.84920 -0.06800
C 	C 	0.86200 0.75280 0.87810 0.06200
H 	H 	0.88760 0.77610 0.85780 0.02800
C 	C 	0.86410 0.75200 0.93590 -0.11200
H 	H 	0.89070 0.77510 0.95490 0.06800
C 	C 	0.82670 0.71660 0.96840 0.04500
C 	C 	0.78980 0.68280 0.93690 -0.09200
H 	H 	0.76490 0.65820 0.95640 0.06800
C 	C 	0.78810 0.68390 0.87600 0.03500
H 	H 	0.76330 0.66010 0.85540 0.04500
O 	O 	0.67600 0.77680 0.29190 -0.22500
N 	N 	0.67600 0.77900 0.34920 -0.06800
C 	C 	0.63800 0.74720 0.37810 0.06100
H 	H 	0.61240 0.72390 0.35780 0.02700
C 	C 	0.63590 0.74800 0.43590 -0.11300
H 	H 	0.60930 0.72490 0.45490 0.06700
C 	C 	0.67330 0.78340 0.46840 0.04400
C 	C 	0.71020 0.81720 0.43690 -0.09300
H 	H 	0.73510 0.84180 0.45640 0.06700
C 	C 	0.71190 0.81610 0.37600 0.03400
H 	H 	0.73670 0.83990 0.35540 0.04400
O 	O 	0.17600 0.27680 0.79190 -0.22600
N 	N 	0.17600 0.27900 0.84920 -0.06900
C 	C 	0.13800 0.24720 0.87810 0.06100
H 	H 	0.11240 0.22390 0.85780 0.02700
C 	C 	0.13590 0.24800 0.93590 -0.11300
H 	H 	0.10930 0.22490 0.95490 0.06700
C 	C 	0.17330 0.28340 0.96840 0.04400
C 	C 	0.21020 0.31720 0.93690 -0.09300
H 	H 	0.23510 0.34180 0.95640 0.06700
C 	C 	0.21190 0.31610 0.87600 0.03400
H 	H 	0.23670 0.33990 0.85540 0.04400
O 	O 	0.67600 0.22320 0.70810 -0.22600
N 	N 	0.67600 0.22100 0.65080 -0.06900
C 	C 	0.63800 0.25280 0.62190 0.06100
H 	H 	0.61240 0.27610 0.64220 0.02700
C 	C 	0.63590 0.25200 0.56410 -0.11300
H 	H 	0.60930 0.27510 0.54510 0.06700
C 	C 	0.67330 0.21660 0.53160 0.04400
C 	C 	0.71020 0.18280 0.56310 -0.09300
H 	H 	0.73510 0.15820 0.54360 0.06700
C 	C 	0.71190 0.18390 0.62400 0.03400
H 	H 	0.73670 0.16010 0.64460 0.04400
O 	O 	0.17600 0.72320 0.20810 -0.22600
N 	N 	0.17600 0.72100 0.15080 -0.06900
C 	C 	0.13800 0.75280 0.12190 0.06100
H 	H 	0.11240 0.77610 0.14220 0.02700
C 	C 	0.13590 0.75200 0.06410 -0.11300
H 	H 	0.10930 0.77510 0.04510 0.06700
C 	C 	0.17330 0.71660 0.03160 0.04400
C 	C 	0.21020 0.68280 0.06310 -0.09300
H 	H 	0.23510 0.65820 0.04360 0.06700
C 	C 	0.21190 0.68390 0.12400 0.03400
H 	H 	0.23670 0.66010 0.14460 0.04400
O 	O 	0.32400 0.77680 0.70810 -0.22600
N 	N 	0.32400 0.77900 0.65080 -0.06900
C 	C 	0.36200 0.74720 0.62190 0.06100
H 	H 	0.38760 0.72390 0.64220 0.02700
C 	C 	0.36410 0.74800 0.56410 -0.11300
H 	H 	0.39070 0.72490 0.54510 0.06700
C 	C 	0.32670 0.78340 0.53160 0.04400
C 	C 	0.28980 0.81720 0.56310 -0.09300
H 	H 	0.26490 0.84180 0.54360 0.06700
C 	C 	0.28810 0.81610 0.62400 0.03400
H 	H 	0.26330 0.83990 0.64460 0.04400
O 	O 	0.82400 0.27680 0.20810 -0.22600
N 	N 	0.82400 0.27900 0.15080 -0.06900
C 	C 	0.86200 0.24720 0.12190 0.06100
H 	H 	0.88760 0.22390 0.14220 0.02700
C 	C 	0.86410 0.24800 0.06410 -0.11300
H 	H 	0.89070 0.22490 0.04510 0.06700
C 	C 	0.82670 0.28340 0.03160 0.04400
C 	C 	0.78980 0.31720 0.06310 -0.09300
H 	H 	0.76490 0.34180 0.04360 0.06700
C 	C 	0.78810 0.31610 0.12400 0.03400
H 	H 	0.76330 0.33990 0.14460 0.04400
O 	O 	0.29190 0.32400 0.22320 -0.22600
N 	N 	0.34920 0.32400 0.22100 -0.06900
C 	C 	0.37810 0.36200 0.25280 0.06100
H 	H 	0.35780 0.38760 0.27610 0.02700
C 	C 	0.43590 0.36410 0.25200 -0.11300
H 	H 	0.45490 0.39070 0.27510 0.06700
C 	C 	0.46840 0.32670 0.21660 0.04400
C 	C 	0.43690 0.28980 0.18280 -0.09300
H 	H 	0.45640 0.26490 0.15820 0.06700
C 	C 	0.37600 0.28810 0.18390 0.03400
H 	H 	0.35540 0.26330 0.16010 0.04400
O 	O 	0.79190 0.82400 0.72320 -0.22600
N 	N 	0.84920 0.82400 0.72100 -0.06900
C 	C 	0.87810 0.86200 0.75280 0.06100
H 	H 	0.85780 0.88760 0.77610 0.02700
C 	C 	0.93590 0.86410 0.75200 -0.11300
H 	H 	0.95490 0.89070 0.77510 0.06700
C 	C 	0.96840 0.82670 0.71660 0.04400
C 	C 	0.93690 0.78980 0.68280 -0.09300
H 	H 	0.95640 0.76490 0.65820 0.06700
C 	C 	0.87600 0.78810 0.68390 0.03400
H 	H 	0.85540 0.76330 0.66010 0.04400
O 	O 	0.29190 0.67600 0.77680 -0.22600
N 	N 	0.34920 0.67600 0.77900 -0.06900
C 	C 	0.37810 0.63800 0.74720 0.06100
H 	H 	0.35780 0.61240 0.72390 0.02700
C 	C 	0.43590 0.63590 0.74800 -0.11300
H 	H 	0.45490 0.60930 0.72490 0.06700
C 	C 	0.46840 0.67330 0.78340 0.04400
C 	C 	0.43690 0.71020 0.81720 -0.09300
H 	H 	0.45640 0.73510 0.84180 0.06700
C 	C 	0.37600 0.71190 0.81610 0.03400
H 	H 	0.35540 0.73670 0.83990 0.04400
O 	O 	0.79190 0.17600 0.27680 -0.22600
N 	N 	0.84920 0.17600 0.27900 -0.06900
C 	C 	0.87810 0.13800 0.24720 0.06100
H 	H 	0.85780 0.11240 0.22390 0.02700
C 	C 	0.93590 0.13590 0.24800 -0.11300
H 	H 	0.95490 0.10930 0.22490 0.06700
C 	C 	0.96840 0.17330 0.28340 0.04400
C 	C 	0.93690 0.21020 0.31720 -0.09300
H 	H 	0.95640 0.23510 0.34180 0.06700
C 	C 	0.87600 0.21190 0.31610 0.03400
H 	H 	0.85540 0.23670 0.33990 0.04400
O 	O 	0.70810 0.67600 0.22320 -0.22600
N 	N 	0.65080 0.67600 0.22100 -0.06900
C 	C 	0.62190 0.63800 0.25280 0.06100
H 	H 	0.64220 0.61240 0.27610 0.02700
C 	C 	0.56410 0.63590 0.25200 -0.11300
H 	H 	0.54510 0.60930 0.27510 0.06700
C 	C 	0.53160 0.67330 0.21660 0.04400
C 	C 	0.56310 0.71020 0.18280 -0.09300
H 	H 	0.54360 0.73510 0.15820 0.06700
C 	C 	0.62400 0.71190 0.18390 0.03400
H 	H 	0.64460 0.73670 0.16010 0.04400
O 	O 	0.20810 0.17600 0.72320 -0.22600
N 	N 	0.15080 0.17600 0.72100 -0.06900
C 	C 	0.12190 0.13800 0.75280 0.06100
H 	H 	0.14220 0.11240 0.77610 0.02700
C 	C 	0.06410 0.13590 0.75200 -0.11300
H 	H 	0.04510 0.10930 0.77510 0.06700
C 	C 	0.03160 0.17330 0.71660 0.04400
C 	C 	0.06310 0.21020 0.68280 -0.09300
H 	H 	0.04360 0.23510 0.65820 0.06700
C 	C 	0.12400 0.21190 0.68390 0.03400
H 	H 	0.14460 0.23670 0.66010 0.04400
O 	O 	0.70810 0.32400 0.77680 -0.22600
N 	N 	0.65080 0.32400 0.77900 -0.06900
C 	C 	0.62190 0.36200 0.74720 0.06100
H 	H 	0.64220 0.38760 0.72390 0.02700
C 	C 	0.56410 0.36410 0.74800 -0.11300
H 	H 	0.54510 0.39070 0.72490 0.06700
C 	C 	0.53160 0.32670 0.78340 0.04400
C 	C 	0.56310 0.28980 0.81720 -0.09300
H 	H 	0.54360 0.26490 0.84180 0.06700
C 	C 	0.62400 0.28810 0.81610 0.03400
H 	H 	0.64460 0.26330 0.83990 0.04400
O 	O 	0.20810 0.82400 0.27680 -0.22600
N 	N 	0.15080 0.82400 0.27900 -0.06900
C 	C 	0.12190 0.86200 0.24720 0.06100
H 	H 	0.14220 0.88760 0.22390 0.02700
C 	C 	0.06410 0.86410 0.24800 -0.11300
H 	H 	0.04510 0.89070 0.22490 0.06700
C 	C 	0.03160 0.82670 0.28340 0.04400
C 	C 	0.06310 0.78980 0.31720 -0.09300
H 	H 	0.04360 0.76490 0.34180 0.06700
C 	C 	0.12400 0.78810 0.31610 0.03400
H 	H 	0.14460 0.76330 0.33990 0.04400
O 	O 	0.22320 0.29190 0.32400 -0.22600
N 	N 	0.22100 0.34920 0.32400 -0.06900
C 	C 	0.25280 0.37810 0.36200 0.06100
H 	H 	0.27610 0.35780 0.38760 0.02700
C 	C 	0.25200 0.43590 0.36410 -0.11300
H 	H 	0.27510 0.45490 0.39070 0.06700
C 	C 	0.21660 0.46840 0.32670 0.04400
C 	C 	0.18280 0.43690 0.28980 -0.09300
H 	H 	0.15820 0.45640 0.26490 0.06700
C 	C 	0.18390 0.37600 0.28810 0.03400
H 	H 	0.16010 0.35540 0.26330 0.04400
O 	O 	0.72320 0.79190 0.82400 -0.22600
N 	N 	0.72100 0.84920 0.82400 -0.06900
C 	C 	0.75280 0.87810 0.86200 0.06100
H 	H 	0.77610 0.85780 0.88760 0.02700
C 	C 	0.75200 0.93590 0.86410 -0.11300
H 	H 	0.77510 0.95490 0.89070 0.06700
C 	C 	0.71660 0.96840 0.82670 0.04400
C 	C 	0.68280 0.93690 0.78980 -0.09300
H 	H 	0.65820 0.95640 0.76490 0.06700
C 	C 	0.68390 0.87600 0.78810 0.03400
H 	H 	0.66010 0.85540 0.76330 0.04400
O 	O 	0.77680 0.29190 0.67600 -0.22600
N 	N 	0.77900 0.34920 0.67600 -0.06900
C 	C 	0.74720 0.37810 0.63800 0.06100
H 	H 	0.72390 0.35780 0.61240 0.02700
C 	C 	0.74800 0.43590 0.63590 -0.11300
H 	H 	0.72490 0.45490 0.60930 0.06700
C 	C 	0.78340 0.46840 0.67330 0.04400
C 	C 	0.81720 0.43690 0.71020 -0.09300
H 	H 	0.84180 0.45640 0.73510 0.06700
C 	C 	0.81610 0.37600 0.71190 0.03400
H 	H 	0.83990 0.35540 0.73670 0.04400
O 	O 	0.27680 0.79190 0.17600 -0.22600
N 	N 	0.27900 0.84920 0.17600 -0.06900
C 	C 	0.24720 0.87810 0.13800 0.06100
H 	H 	0.22390 0.85780 0.11240 0.02700
C 	C 	0.24800 0.93590 0.13590 -0.11300
H 	H 	0.22490 0.95490 0.10930 0.06700
C 	C 	0.28340 0.96840 0.17330 0.04400
C 	C 	0.31720 0.93690 0.21020 -0.09300
H 	H 	0.34180 0.95640 0.23510 0.06700
C 	C 	0.31610 0.87600 0.21190 0.03400
H 	H 	0.33990 0.85540 0.23670 0.04400
O 	O 	0.22320 0.70810 0.67600 -0.22600
N 	N 	0.22100 0.65080 0.67600 -0.06900
C 	C 	0.25280 0.62190 0.63800 0.06100
H 	H 	0.27610 0.64220 0.61240 0.02700
C 	C 	0.25200 0.56410 0.63590 -0.11300
H 	H 	0.27510 0.54510 0.60930 0.06700
C 	C 	0.21660 0.53160 0.67330 0.04400
C 	C 	0.18280 0.56310 0.71020 -0.09300
H 	H 	0.15820 0.54360 0.73510 0.06700
C 	C 	0.18390 0.62400 0.71190 0.03400
H 	H 	0.16010 0.64460 0.73670 0.04400
O 	O 	0.72320 0.20810 0.17600 -0.22600
N 	N 	0.72100 0.15080 0.17600 -0.06900
C 	C 	0.75280 0.12190 0.13800 0.06100
H 	H 	0.77610 0.14220 0.11240 0.02700
C 	C 	0.75200 0.06410 0.13590 -0.11300
H 	H 	0.77510 0.04510 0.10930 0.06700
C 	C 	0.71660 0.03160 0.17330 0.04400
C 	C 	0.68280 0.06310 0.21020 -0.09300
H 	H 	0.65820 0.04360 0.23510 0.06700
C 	C 	0.68390 0.12400 0.21190 0.03400
H 	H 	0.66010 0.14460 0.23670 0.04400
O 	O 	0.77680 0.70810 0.32400 -0.22600
N 	N 	0.77900 0.65080 0.32400 -0.06900
C 	C 	0.74720 0.62190 0.36200 0.06100
H 	H 	0.72390 0.64220 0.38760 0.02700
C 	C 	0.74800 0.56410 0.36410 -0.11300
H 	H 	0.72490 0.54510 0.39070 0.06700
C 	C 	0.78340 0.53160 0.32670 0.04400
C 	C 	0.81720 0.56310 0.28980 -0.09300
H 	H 	0.84180 0.54360 0.26490 0.06700
C 	C 	0.81610 0.62400 0.28810 0.03400
H 	H 	0.83990 0.64460 0.26330 0.04400
O 	O 	0.27680 0.20810 0.82400 -0.22600
N 	N 	0.27900 0.15080 0.82400 -0.06900
C 	C 	0.24720 0.12190 0.86200 0.06100
H 	H 	0.22390 0.14220 0.88760 0.02700
C 	C 	0.24800 0.06410 0.86410 -0.11300
H 	H 	0.22490 0.04510 0.89070 0.06700
C 	C 	0.28340 0.03160 0.82670 0.04400
C 	C 	0.31720 0.06310 0.78980 -0.09300
H 	H 	0.34180 0.04360 0.76490 0.06700
C 	C 	0.31610 0.12400 0.78810 0.03400
H 	H 	0.33990 0.14460 0.76330 0.04400
O 	O 	0.67600 0.77680 0.70810 -0.22600
N 	N 	0.67600 0.77900 0.65080 -0.06900
C 	C 	0.63800 0.74720 0.62190 0.06100
H 	H 	0.61240 0.72390 0.64220 0.02700
C 	C 	0.63590 0.74800 0.56410 -0.11300
H 	H 	0.60930 0.72490 0.54510 0.06700
C 	C 	0.67330 0.78340 0.53160 0.04400
C 	C 	0.71020 0.81720 0.56310 -0.09300
H 	H 	0.73510 0.84180 0.54360 0.06700
C 	C 	0.71190 0.81610 0.62400 0.03400
H 	H 	0.73670 0.83990 0.64460 0.04400
O 	O 	0.17600 0.27680 0.20810 -0.22600
N 	N 	0.17600 0.27900 0.15080 -0.06900
C 	C 	0.13800 0.24720 0.12190 0.06100
H 	H 	0.11240 0.22390 0.14220 0.02700
C 	C 	0.13590 0.24800 0.06410 -0.11300
H 	H 	0.10930 0.22490 0.04510 0.06700
C 	C 	0.17330 0.28340 0.03160 0.04400
C 	C 	0.21020 0.31720 0.06310 -0.09300
H 	H 	0.23510 0.34180 0.04360 0.06700
C 	C 	0.21190 0.31610 0.12400 0.03400
H 	H 	0.23670 0.33990 0.14460 0.04400
O 	O 	0.32400 0.22320 0.70810 -0.22600
N 	N 	0.32400 0.22100 0.65080 -0.06900
C 	C 	0.36200 0.25280 0.62190 0.06100
H 	H 	0.38760 0.27610 0.64220 0.02700
C 	C 	0.36410 0.25200 0.56410 -0.11300
H 	H 	0.39070 0.27510 0.54510 0.06700
C 	C 	0.32670 0.21660 0.53160 0.04400
C 	C 	0.28980 0.18280 0.56310 -0.09300
H 	H 	0.26490 0.15820 0.54360 0.06700
C 	C 	0.28810 0.18390 0.62400 0.03400
H 	H 	0.26330 0.16010 0.64460 0.04400
O 	O 	0.82400 0.72320 0.20810 -0.22600
N 	N 	0.82400 0.72100 0.15080 -0.06900
C 	C 	0.86200 0.75280 0.12190 0.06100
H 	H 	0.88760 0.77610 0.14220 0.02700
C 	C 	0.86410 0.75200 0.06410 -0.11300
H 	H 	0.89070 0.77510 0.04510 0.06700
C 	C 	0.82670 0.71660 0.03160 0.04400
C 	C 	0.78980 0.68280 0.06310 -0.09300
H 	H 	0.76490 0.65820 0.04360 0.06700
C 	C 	0.78810 0.68390 0.12400 0.03400
H 	H 	0.76330 0.66010 0.14460 0.04400
O 	O 	0.32400 0.77680 0.29190 -0.22600
N 	N 	0.32400 0.77900 0.34920 -0.06900
C 	C 	0.36200 0.74720 0.37810 0.06100
H 	H 	0.38760 0.72390 0.35780 0.02700
C 	C 	0.36410 0.74800 0.43590 -0.11300
H 	H 	0.39070 0.72490 0.45490 0.06700
C 	C 	0.32670 0.78340 0.46840 0.04400
C 	C 	0.28980 0.81720 0.43690 -0.09300
H 	H 	0.26490 0.84180 0.45640 0.06700
C 	C 	0.28810 0.81610 0.37600 0.03400
H 	H 	0.26330 0.83990 0.35540 0.04400
O 	O 	0.82400 0.27680 0.79190 -0.22600
N 	N 	0.82400 0.27900 0.84920 -0.06900
C 	C 	0.86200 0.24720 0.87810 0.06100
H 	H 	0.88760 0.22390 0.85780 0.02700
C 	C 	0.86410 0.24800 0.93590 -0.11300
H 	H 	0.89070 0.22490 0.95490 0.06700
C 	C 	0.82670 0.28340 0.96840 0.04400
C 	C 	0.78980 0.31720 0.93690 -0.09300
H 	H 	0.76490 0.34180 0.95640 0.06700
C 	C 	0.78810 0.31610 0.87600 0.03400
H 	H 	0.76330 0.33990 0.85540 0.04400
O 	O 	0.67600 0.22320 0.29190 -0.22600
N 	N 	0.67600 0.22100 0.34920 -0.06900
C 	C 	0.63800 0.25280 0.37810 0.06100
H 	H 	0.61240 0.27610 0.35780 0.02700
C 	C 	0.63590 0.25200 0.43590 -0.11300
H 	H 	0.60930 0.27510 0.45490 0.06700
C 	C 	0.67330 0.21660 0.46840 0.04400
C 	C 	0.71020 0.18280 0.43690 -0.09300
H 	H 	0.73510 0.15820 0.45640 0.06700
C 	C 	0.71190 0.18390 0.37600 0.03400
H 	H 	0.73670 0.16010 0.35540 0.04400
O 	O 	0.17600 0.72320 0.79190 -0.22600
N 	N 	0.17600 0.72100 0.84920 -0.06900
C 	C 	0.13800 0.75280 0.87810 0.06100
H 	H 	0.11240 0.77610 0.85780 0.02700
C 	C 	0.13590 0.75200 0.93590 -0.11300
H 	H 	0.10930 0.77510 0.95490 0.06700
C 	C 	0.17330 0.71660 0.96840 0.04400
C 	C 	0.21020 0.68280 0.93690 -0.09300
H 	H 	0.23510 0.65820 0.95640 0.06700
C 	C 	0.21190 0.68390 0.87600 0.03400
H 	H 	0.23670 0.66010 0.85540 0.04400
O 	O 	0.70810 0.67600 0.77680 -0.22600
N 	N 	0.65080 0.67600 0.77900 -0.06900
C 	C 	0.62190 0.63800 0.74720 0.06100
H 	H 	0.64220 0.61240 0.72390 0.02700
C 	C 	0.56410 0.63590 0.74800 -0.11300
H 	H 	0.54510 0.60930 0.72490 0.06700
C 	C 	0.53160 0.67330 0.78340 0.04400
C 	C 	0.56310 0.71020 0.81720 -0.09300
H 	H 	0.54360 0.73510 0.84180 0.06700
C 	C 	0.62400 0.71190 0.81610 0.03400
H 	H 	0.64460 0.73670 0.83990 0.04400
O 	O 	0.20810 0.17600 0.27680 -0.22600
N 	N 	0.15080 0.17600 0.27900 -0.06900
C 	C 	0.12190 0.13800 0.24720 0.06100
H 	H 	0.14220 0.11240 0.22390 0.02700
C 	C 	0.06410 0.13590 0.24800 -0.11300
H 	H 	0.04510 0.10930 0.22490 0.06700
C 	C 	0.03160 0.17330 0.28340 0.04400
C 	C 	0.06310 0.21020 0.31720 -0.09300
H 	H 	0.04360 0.23510 0.34180 0.06700
C 	C 	0.12400 0.21190 0.31610 0.03400
H 	H 	0.14460 0.23670 0.33990 0.04400
O 	O 	0.70810 0.32400 0.22320 -0.22600
N 	N 	0.65080 0.32400 0.22100 -0.06900
C 	C 	0.62190 0.36200 0.25280 0.06100
H 	H 	0.64220 0.38760 0.27610 0.02700
C 	C 	0.56410 0.36410 0.25200 -0.11300
H 	H 	0.54510 0.39070 0.27510 0.06700
C 	C 	0.53160 0.32670 0.21660 0.04400
C 	C 	0.56310 0.28980 0.18280 -0.09300
H 	H 	0.54360 0.26490 0.15820 0.06700
C 	C 	0.62400 0.28810 0.18390 0.03400
H 	H 	0.64460 0.26330 0.16010 0.04400
O 	O 	0.20810 0.82400 0.72320 -0.22600
N 	N 	0.15080 0.82400 0.72100 -0.06900
C 	C 	0.12190 0.86200 0.75280 0.06100
H 	H 	0.14220 0.88760 0.77610 0.02700
C 	C 	0.06410 0.86410 0.75200 -0.11300
H 	H 	0.04510 0.89070 0.77510 0.06700
C 	C 	0.03160 0.82670 0.71660 0.04400
C 	C 	0.06310 0.78980 0.68280 -0.09300
H 	H 	0.04360 0.76490 0.65820 0.06700
C 	C 	0.12400 0.78810 0.68390 0.03400
H 	H 	0.14460 0.76330 0.66010 0.04400
O 	O 	0.29190 0.32400 0.77680 -0.22600
N 	N 	0.34920 0.32400 0.77900 -0.06900
C 	C 	0.37810 0.36200 0.74720 0.06100
H 	H 	0.35780 0.38760 0.72390 0.02700
C 	C 	0.43590 0.36410 0.74800 -0.11300
H 	H 	0.45490 0.39070 0.72490 0.06700
C 	C 	0.46840 0.32670 0.78340 0.04400
C 	C 	0.43690 0.28980 0.81720 -0.09300
H 	H 	0.45640 0.26490 0.84180 0.06700
C 	C 	0.37600 0.28810 0.81610 0.03400
H 	H 	0.35540 0.26330 0.83990 0.04400
O 	O 	0.79190 0.82400 0.27680 -0.22600
N 	N 	0.84920 0.82400 0.27900 -0.06900
C 	C 	0.87810 0.86200 0.24720 0.06100
H 	H 	0.85780 0.88760 0.22390 0.02700
C 	C 	0.93590 0.86410 0.24800 -0.11300
H 	H 	0.95490 0.89070 0.22490 0.06700
C 	C 	0.96840 0.82670 0.28340 0.04400
C 	C 	0.93690 0.78980 0.31720 -0.09300
H 	H 	0.95640 0.76490 0.34180 0.06700
C 	C 	0.87600 0.78810 0.31610 0.03400
H 	H 	0.85540 0.76330 0.33990 0.04400
O 	O 	0.29190 0.67600 0.22320 -0.22600
N 	N 	0.34920 0.67600 0.22100 -0.06900
C 	C 	0.37810 0.63800 0.25280 0.06100
H 	H 	0.35780 0.61240 0.27610 0.02700
C 	C 	0.43590 0.63590 0.25200 -0.11300
H 	H 	0.45490 0.60930 0.27510 0.06700
C 	C 	0.46840 0.67330 0.21660 0.04400
C 	C 	0.43690 0.71020 0.18280 -0.09300
H 	H 	0.45640 0.73510 0.15820 0.06700
C 	C 	0.37600 0.71190 0.18390 0.03400
H 	H 	0.35540 0.73670 0.16010 0.04400
O 	O 	0.79190 0.17600 0.72320 -0.22600
N 	N 	0.84920 0.17600 0.72100 -0.06900
C 	C 	0.87810 0.13800 0.75280 0.06100
H 	H 	0.85780 0.11240 0.77610 0.02700
C 	C 	0.93590 0.13590 0.75200 -0.11300
H 	H 	0.95490 0.10930 0.77510 0.06700
C 	C 	0.96840 0.17330 0.71660 0.04400
C 	C 	0.93690 0.21020 0.68280 -0.09300
H 	H 	0.95640 0.23510 0.65820 0.06700
C 	C 	0.87600 0.21190 0.68390 0.03400
H 	H 	0.85540 0.23670 0.66010 0.04400
O 	O 	0.77680 0.70810 0.67600 -0.22600
N 	N 	0.77900 0.65080 0.67600 -0.06900
C 	C 	0.74720 0.62190 0.63800 0.06100
H 	H 	0.72390 0.64220 0.61240 0.02700
C 	C 	0.74800 0.56410 0.63590 -0.11300
H 	H 	0.72490 0.54510 0.60930 0.06700
C 	C 	0.78340 0.53160 0.67330 0.04400
C 	C 	0.81720 0.56310 0.71020 -0.09300
H 	H 	0.84180 0.54360 0.73510 0.06700
C 	C 	0.81610 0.62400 0.71190 0.03400
H 	H 	0.83990 0.64460 0.73670 0.04400
O 	O 	0.27680 0.20810 0.17600 -0.22600
N 	N 	0.27900 0.15080 0.17600 -0.06900
C 	C 	0.24720 0.12190 0.13800 0.06100
H 	H 	0.22390 0.14220 0.11240 0.02700
C 	C 	0.24800 0.06410 0.13590 -0.11300
H 	H 	0.22490 0.04510 0.10930 0.06700
C 	C 	0.28340 0.03160 0.17330 0.04400
C 	C 	0.31720 0.06310 0.21020 -0.09300
H 	H 	0.34180 0.04360 0.23510 0.06700
C 	C 	0.31610 0.12400 0.21190 0.03400
H 	H 	0.33990 0.14460 0.23670 0.04400
O 	O 	0.22320 0.70810 0.32400 -0.22600
N 	N 	0.22100 0.65080 0.32400 -0.06900
C 	C 	0.25280 0.62190 0.36200 0.06100
H 	H 	0.27610 0.64220 0.38760 0.02700
C 	C 	0.25200 0.56410 0.36410 -0.11300
H 	H 	0.27510 0.54510 0.39070 0.06700
C 	C 	0.21660 0.53160 0.32670 0.04400
C 	C 	0.18280 0.56310 0.28980 -0.09300
H 	H 	0.15820 0.54360 0.26490 0.06700
C 	C 	0.18390 0.62400 0.28810 0.03400
H 	H 	0.16010 0.64460 0.26330 0.04400
O 	O 	0.72320 0.20810 0.82400 -0.22600
N 	N 	0.72100 0.15080 0.82400 -0.06900
C 	C 	0.75280 0.12190 0.86200 0.06100
H 	H 	0.77610 0.14220 0.88760 0.02700
C 	C 	0.75200 0.06410 0.86410 -0.11300
H 	H 	0.77510 0.04510 0.89070 0.06700
C 	C 	0.71660 0.03160 0.82670 0.04400
C 	C 	0.68280 0.06310 0.78980 -0.09300
H 	H 	0.65820 0.04360 0.76490 0.06700
C 	C 	0.68390 0.12400 0.78810 0.03400
H 	H 	0.66010 0.14460 0.76330 0.04400
O 	O 	0.77680 0.29190 0.32400 -0.22600
N 	N 	0.77900 0.34920 0.32400 -0.06900
C 	C 	0.74720 0.37810 0.36200 0.06100
H 	H 	0.72390 0.35780 0.38760 0.02700
C 	C 	0.74800 0.43590 0.36410 -0.11300
H 	H 	0.72490 0.45490 0.39070 0.06700
C 	C 	0.78340 0.46840 0.32670 0.04400
C 	C 	0.81720 0.43690 0.28980 -0.09300
H 	H 	0.84180 0.45640 0.26490 0.06700
C 	C 	0.81610 0.37600 0.28810 0.03400
H 	H 	0.83990 0.35540 0.26330 0.04400
O 	O 	0.27680 0.79190 0.82400 -0.22600
N 	N 	0.27900 0.84920 0.82400 -0.06900
C 	C 	0.24720 0.87810 0.86200 0.06100
H 	H 	0.22390 0.85780 0.88760 0.02700
C 	C 	0.24800 0.93590 0.86410 -0.11300
H 	H 	0.22490 0.95490 0.89070 0.06700
C 	C 	0.28340 0.96840 0.82670 0.04400
C 	C 	0.31720 0.93690 0.78980 -0.09300
H 	H 	0.34180 0.95640 0.76490 0.06700
C 	C 	0.31610 0.87600 0.78810 0.03400
H 	H 	0.33990 0.85540 0.76330 0.04400
O 	O 	0.22320 0.29190 0.67600 -0.22600
N 	N 	0.22100 0.34920 0.67600 -0.06900
C 	C 	0.25280 0.37810 0.63800 0.06100
H 	H 	0.27610 0.35780 0.61240 0.02700
C 	C 	0.25200 0.43590 0.63590 -0.11300
H 	H 	0.27510 0.45490 0.60930 0.06700
C 	C 	0.21660 0.46840 0.67330 0.04400
C 	C 	0.18280 0.43690 0.71020 -0.09300
H 	H 	0.15820 0.45640 0.73510 0.06700
C 	C 	0.18390 0.37600 0.71190 0.03400
H 	H 	0.16010 0.35540 0.73670 0.04400
O 	O 	0.72320 0.79190 0.17600 -0.22600
N 	N 	0.72100 0.84920 0.17600 -0.06900
C 	C 	0.75280 0.87810 0.13800 0.06100
H 	H 	0.77610 0.85780 0.11240 0.02700
C 	C 	0.75200 0.93590 0.13590 -0.11300
H 	H 	0.77510 0.95490 0.10930 0.06700
C 	C 	0.71660 0.96840 0.17330 0.04400
C 	C 	0.68280 0.93690 0.21020 -0.09300
H 	H 	0.65820 0.95640 0.23510 0.06700
C 	C 	0.68390 0.87600 0.21190 0.03400
H 	H 	0.66010 0.85540 0.23670 0.04400
Cu	Cu	0.25000 0.25000 0.25000 0.93900
Cu	Cu	0.75000 0.75000 0.25000 0.93900
Cu	Cu	0.75000 0.25000 0.75000 0.93900
Cu	Cu	0.25000 0.75000 0.75000 0.93900
Cu	Cu	0.75000 0.75000 0.75000 0.93900
Cu	Cu	0.25000 0.25000 0.75000 0.93900
Cu	Cu	0.25000 0.75000 0.25000 0.93900
Cu	Cu	0.75000 0.25000 0.25000 0.93900
