data_crystal

_cell_length_a 17.61220
_cell_length_b 18.14050
_cell_length_c 18.38160
_cell_angle_alpha 90.00000
_cell_angle_beta  91.82600
_cell_angle_gamma 90.00000

_symmetry_space_group_name_	'P 1'
_symmetry_space_group_name_H-M	'P 1'

loop_
_symmetry_equiv_pos_as_xyz
  x,y,z

loop_
_atom_site_label
_atom_site_type_symbol
_atom_site_fract_x
_atom_site_fract_y
_atom_site_fract_z
_atom_site_charge
Co	Co	0.39672 0.52745 0.19795 1.15000
Co	Co	0.32123 0.39531 0.12560 1.14400
Co	Co	0.39533 0.23486 0.06495 1.15300
O 	O 	0.38238 0.42489 0.21871 -0.54100
O 	O 	0.64376 0.51349 0.94116 -0.46300
O 	O 	0.55892 0.43642 0.89067 -0.45300
O 	O 	0.29312 0.21073 0.10246 -0.43600
O 	O 	0.76677 0.96251 0.34231 -0.41800
O 	O 	0.41673 0.33482 0.09825 -0.54200
O 	O 	0.70744 0.06173 0.29433 -0.43900
O 	O 	0.27576 0.30666 0.17728 -0.41500
O 	O 	0.49558 0.26794 0.48509 -0.35500
O 	O 	0.37794 0.29980 0.46213 -0.41900
C 	C 	0.59353 0.46493 0.94622 0.33700
N 	N 	0.45983 0.16408 0.13358 -0.18600
C 	C 	0.52611 0.39230 0.15598 -0.06700
C 	C 	0.61479 0.45768 0.08045 -0.03700
H 	H 	0.65940 0.48660 0.07640 0.04000
C 	C 	0.50743 0.39572 0.02569 -0.14100
H 	H 	0.47950 0.38100 0.98310 0.09000
N 	N 	0.53851 0.08279 0.22358 -0.19900
C 	C 	0.48276 0.37370 0.09302 0.17200
C 	C 	0.57215 0.43896 0.01880 -0.03600
C 	C 	0.25717 0.24576 0.15057 0.21900
C 	C 	0.55747 0.32927 0.27400 -0.00900
H 	H 	0.60700 0.32040 0.25710 0.02700
C 	C 	0.41298 0.35456 0.32321 -0.17000
H 	H 	0.36300 0.36210 0.33960 0.10400
C 	C 	0.46613 0.31659 0.36746 -0.00500
C 	C 	0.18709 0.20968 0.17871 0.26800
C 	C 	0.43256 0.38106 0.25599 0.20200
C 	C 	0.76646 0.02395 0.31184 0.24000
C 	C 	0.59223 0.43407 0.14834 -0.04000
H 	H 	0.62220 0.44650 0.19040 0.03300
C 	C 	0.44609 0.29281 0.44207 0.27100
C 	C 	0.50483 0.36691 0.22921 -0.08600
C 	C 	0.54013 0.18836 0.13780 -0.06800
H 	H 	0.54260 0.24080 0.15250 0.04200
H 	H 	0.56240 0.18390 0.08920 0.05000
C 	C 	0.53895 0.30483 0.34217 -0.07200
H 	H 	0.57580 0.27990 0.37190 0.06000
C 	C 	0.50620 0.03844 0.16260 -0.05100
H 	H 	0.47400 0.99880 0.18220 0.03000
H 	H 	0.54800 0.01490 0.13630 0.02900
C 	C 	0.42825 0.16720 0.20722 -0.05900
H 	H 	0.37480 0.15030 0.20490 0.03600
H 	H 	0.42900 0.21880 0.22480 0.03800
C 	C 	0.47392 0.11895 0.26022 -0.06000
H 	H 	0.49380 0.14950 0.30120 0.04200
H 	H 	0.44040 0.08070 0.28030 0.03200
C 	C 	0.14008 0.25065 0.22227 -0.49800
H 	H 	0.15330 0.29990 0.23490 0.20300
C 	C 	0.16818 0.13819 0.16150 -0.58700
H 	H 	0.20030 0.10950 0.13210 0.21300
C 	C 	0.45841 0.08595 0.10924 -0.05300
H 	H 	0.47900 0.08230 0.05990 0.03200
H 	H 	0.40540 0.06780 0.10700 0.02600
C 	C 	0.58625 0.14184 0.19259 -0.04900
H 	H 	0.62990 0.11940 0.16820 0.02500
H 	H 	0.60640 0.17380 0.23230 0.02600
C 	C 	0.84054 0.05658 0.29250 0.25800
C 	C 	0.07383 0.22010 0.24750 0.59800
C 	C 	0.05330 0.14820 0.22930 -0.36900
C 	C 	0.90721 0.01950 0.30660 -0.50100
H 	H 	0.90610 0.97270 0.32990 0.20100
C 	C 	0.10180 0.10821 0.18740 0.77000
H 	H 	0.08950 0.05850 0.17590 -0.96400
C 	C 	0.97957 0.11680 0.25270 -0.37700
C 	C 	0.91240 0.15360 0.23870 0.76400
H 	H 	0.91360 0.20020 0.21520 -0.93900
C 	C 	0.84300 0.12490 0.25800 -0.56000
H 	H 	0.79750 0.15150 0.24770 0.22800
O 	O 	0.02980 0.26040 0.29330 0.58500
H 	H 	0.04990 0.30190 0.30070 -0.11000
O 	O 	0.04201 0.00940 0.30250 0.59400
H 	H 	0.03070 0.96710 0.31740 -0.11700
C 	C 	0.97614 0.04910 0.28750 0.61700
O 	O 	0.91010 0.22010 0.19750 0.86200
H 	H 	0.86660 0.23880 0.19900 -0.21500
O 	O 	0.09080 0.03330 0.16850 0.87000
H 	H 	0.08100 0.00890 0.20590 -0.19200
H 	H 	0.04210 0.24850 0.27750 -0.69700
H 	H 	0.02170 0.02280 0.29830 -0.69200
Co	Co	0.60328 0.02745 0.30205 1.15000
Co	Co	0.67877 0.89531 0.37440 1.14500
Co	Co	0.60467 0.73486 0.43505 1.15300
O 	O 	0.61762 0.92489 0.28129 -0.54000
O 	O 	0.35624 0.01349 0.55884 -0.46200
O 	O 	0.44108 0.93642 0.60933 -0.45300
O 	O 	0.70688 0.71073 0.39754 -0.43600
O 	O 	0.23323 0.46251 0.15769 -0.42000
O 	O 	0.58327 0.83482 0.40175 -0.54100
O 	O 	0.29256 0.56173 0.20567 -0.43900
O 	O 	0.72424 0.80666 0.32272 -0.41500
O 	O 	0.50442 0.76794 0.01491 -0.35400
O 	O 	0.62206 0.79980 0.03787 -0.41800
C 	C 	0.40647 0.96493 0.55378 0.33600
N 	N 	0.54017 0.66408 0.36642 -0.18500
C 	C 	0.47389 0.89230 0.34402 -0.06600
C 	C 	0.38521 0.95768 0.41955 -0.03600
H 	H 	0.34060 0.98660 0.42360 0.04000
C 	C 	0.49257 0.89572 0.47431 -0.14000
H 	H 	0.52050 0.88100 0.51690 0.08900
N 	N 	0.46149 0.58279 0.27642 -0.19900
C 	C 	0.51724 0.87370 0.40698 0.17100
C 	C 	0.42785 0.93896 0.48120 -0.03600
C 	C 	0.74283 0.74576 0.34943 0.21900
C 	C 	0.44253 0.82927 0.22600 -0.00900
H 	H 	0.39300 0.82040 0.24290 0.02700
C 	C 	0.58702 0.85456 0.17679 -0.17000
H 	H 	0.63700 0.86210 0.16040 0.10400
C 	C 	0.53387 0.81659 0.13254 -0.00400
C 	C 	0.81291 0.70968 0.32129 0.26800
C 	C 	0.56744 0.88106 0.24401 0.20200
C 	C 	0.23354 0.52395 0.18816 0.24300
C 	C 	0.40777 0.93407 0.35166 -0.04100
H 	H 	0.37780 0.94650 0.30960 0.03300
C 	C 	0.55391 0.79281 0.05793 0.27100
C 	C 	0.49517 0.86691 0.27079 -0.08600
C 	C 	0.45987 0.68836 0.36220 -0.06800
H 	H 	0.45740 0.74080 0.34750 0.04200
H 	H 	0.43760 0.68390 0.41080 0.05000
C 	C 	0.46105 0.80483 0.15783 -0.07200
H 	H 	0.42420 0.77990 0.12810 0.06000
C 	C 	0.49380 0.53844 0.33740 -0.04700
H 	H 	0.52600 0.49880 0.31780 0.02800
H 	H 	0.45200 0.51490 0.36370 0.02900
C 	C 	0.57175 0.66720 0.29278 -0.05900
H 	H 	0.62520 0.65030 0.29510 0.03700
H 	H 	0.57100 0.71880 0.27520 0.03800
C 	C 	0.52608 0.61895 0.23978 -0.06000
H 	H 	0.50620 0.64950 0.19880 0.04200
H 	H 	0.55960 0.58070 0.21970 0.03200
C 	C 	0.85992 0.75065 0.27773 -0.49700
H 	H 	0.84670 0.79990 0.26510 0.20400
C 	C 	0.83182 0.63819 0.33850 -0.58600
H 	H 	0.79970 0.60950 0.36790 0.21300
C 	C 	0.54159 0.58595 0.39076 -0.05500
H 	H 	0.52100 0.58230 0.44010 0.03300
H 	H 	0.59460 0.56780 0.39300 0.02700
C 	C 	0.41375 0.64184 0.30741 -0.04900
H 	H 	0.37010 0.61940 0.33180 0.02600
H 	H 	0.39360 0.67380 0.26770 0.02600
C 	C 	0.15946 0.55658 0.20750 0.25500
C 	C 	0.92617 0.72010 0.25250 0.59800
C 	C 	0.94670 0.64820 0.27070 -0.36900
C 	C 	0.09279 0.51950 0.19340 -0.49600
H 	H 	0.09390 0.47270 0.17010 0.19800
C 	C 	0.89820 0.60821 0.31260 0.76900
H 	H 	0.91050 0.55850 0.32410 -0.96400
C 	C 	0.02043 0.61680 0.24730 -0.37700
C 	C 	0.08760 0.65360 0.26130 0.76300
H 	H 	0.08640 0.70020 0.28480 -0.93900
C 	C 	0.15700 0.62490 0.24200 -0.55900
H 	H 	0.20250 0.65150 0.25230 0.22700
O 	O 	0.97020 0.76040 0.20670 0.58500
H 	H 	0.95010 0.80190 0.19930 -0.11000
O 	O 	0.95799 0.50940 0.19750 0.59500
H 	H 	0.96930 0.46710 0.18260 -0.11800
C 	C 	0.02386 0.54910 0.21250 0.61600
O 	O 	0.08990 0.72010 0.30250 0.86200
H 	H 	0.13340 0.73880 0.30100 -0.21500
O 	O 	0.90920 0.53330 0.33150 0.87000
H 	H 	0.91900 0.50890 0.29410 -0.19200
H 	H 	0.95790 0.74850 0.22250 -0.69700
H 	H 	0.97830 0.52280 0.20170 -0.69200
Co	Co	0.60328 0.47255 0.80205 1.15100
Co	Co	0.67877 0.60469 0.87440 1.14500
Co	Co	0.60467 0.76514 0.93505 1.15300
O 	O 	0.61762 0.57511 0.78129 -0.54100
O 	O 	0.35624 0.48651 0.05884 -0.46300
O 	O 	0.44108 0.56358 0.10933 -0.45300
O 	O 	0.70688 0.78927 0.89754 -0.43600
O 	O 	0.23323 0.03749 0.65769 -0.41800
O 	O 	0.58327 0.66518 0.90175 -0.54200
O 	O 	0.29256 0.93827 0.70567 -0.43900
O 	O 	0.72424 0.69334 0.82272 -0.41500
O 	O 	0.50442 0.73206 0.51491 -0.35500
O 	O 	0.62206 0.70020 0.53787 -0.41900
C 	C 	0.40647 0.53507 0.05378 0.33700
N 	N 	0.54017 0.83592 0.86642 -0.18600
C 	C 	0.47389 0.60770 0.84402 -0.06700
C 	C 	0.38521 0.54232 0.91955 -0.03700
H 	H 	0.34060 0.51340 0.92360 0.04000
C 	C 	0.49257 0.60428 0.97431 -0.14100
H 	H 	0.52050 0.61900 0.01690 0.09000
N 	N 	0.46149 0.91721 0.77642 -0.19900
C 	C 	0.51724 0.62630 0.90698 0.17200
C 	C 	0.42785 0.56104 0.98120 -0.03600
C 	C 	0.74283 0.75424 0.84943 0.21900
C 	C 	0.44253 0.67073 0.72600 -0.00900
H 	H 	0.39300 0.67960 0.74290 0.02700
C 	C 	0.58702 0.64544 0.67679 -0.17000
H 	H 	0.63700 0.63790 0.66040 0.10400
C 	C 	0.53387 0.68341 0.63254 -0.00500
C 	C 	0.81291 0.79032 0.82129 0.26800
C 	C 	0.56744 0.61894 0.74401 0.20200
C 	C 	0.23354 0.97605 0.68816 0.24000
C 	C 	0.40777 0.56593 0.85166 -0.04000
H 	H 	0.37780 0.55350 0.80960 0.03300
C 	C 	0.55391 0.70719 0.55793 0.27100
C 	C 	0.49517 0.63309 0.77079 -0.08600
C 	C 	0.45987 0.81164 0.86220 -0.06800
H 	H 	0.45740 0.75920 0.84750 0.04200
H 	H 	0.43760 0.81610 0.91080 0.05000
C 	C 	0.46105 0.69517 0.65783 -0.07200
H 	H 	0.42420 0.72010 0.62810 0.06000
C 	C 	0.49380 0.96156 0.83740 -0.05100
H 	H 	0.52600 0.00120 0.81780 0.03000
H 	H 	0.45200 0.98510 0.86370 0.02900
C 	C 	0.57175 0.83280 0.79278 -0.05900
H 	H 	0.62520 0.84970 0.79510 0.03600
H 	H 	0.57100 0.78120 0.77520 0.03800
C 	C 	0.52608 0.88105 0.73978 -0.06000
H 	H 	0.50620 0.85050 0.69880 0.04200
H 	H 	0.55960 0.91930 0.71970 0.03200
C 	C 	0.85992 0.74935 0.77773 -0.49800
H 	H 	0.84670 0.70010 0.76510 0.20300
C 	C 	0.83182 0.86181 0.83850 -0.58700
H 	H 	0.79970 0.89050 0.86790 0.21300
C 	C 	0.54159 0.91405 0.89076 -0.05300
H 	H 	0.52100 0.91770 0.94010 0.03200
H 	H 	0.59460 0.93220 0.89300 0.02600
C 	C 	0.41375 0.85816 0.80741 -0.04900
H 	H 	0.37010 0.88060 0.83180 0.02500
H 	H 	0.39360 0.82620 0.76770 0.02600
C 	C 	0.15946 0.94342 0.70750 0.25800
C 	C 	0.92617 0.77990 0.75250 0.59800
C 	C 	0.94670 0.85180 0.77070 -0.36900
C 	C 	0.09279 0.98050 0.69340 -0.50100
H 	H 	0.09390 0.02730 0.67010 0.20100
C 	C 	0.89820 0.89179 0.81260 0.77000
H 	H 	0.91050 0.94150 0.82410 -0.96400
C 	C 	0.02043 0.88320 0.74730 -0.37700
C 	C 	0.08760 0.84640 0.76130 0.76400
H 	H 	0.08640 0.79980 0.78480 -0.93900
C 	C 	0.15700 0.87510 0.74200 -0.56000
H 	H 	0.20250 0.84850 0.75230 0.22800
O 	O 	0.97020 0.73960 0.70670 0.58500
H 	H 	0.95010 0.69810 0.69930 -0.11000
O 	O 	0.95799 0.99060 0.69750 0.59400
H 	H 	0.96930 0.03290 0.68260 -0.11700
C 	C 	0.02386 0.95090 0.71250 0.61700
O 	O 	0.08990 0.77990 0.80250 0.86200
H 	H 	0.13340 0.76120 0.80100 -0.21500
O 	O 	0.90920 0.96670 0.83150 0.87000
H 	H 	0.91900 0.99110 0.79410 -0.19200
H 	H 	0.95790 0.75150 0.72250 -0.69700
H 	H 	0.97830 0.97720 0.70170 -0.69200
Co	Co	0.39672 0.97255 0.69795 1.15000
Co	Co	0.32123 0.10469 0.62560 1.14500
Co	Co	0.39533 0.26514 0.56495 1.15300
O 	O 	0.38238 0.07511 0.71871 -0.54000
O 	O 	0.64376 0.98651 0.44116 -0.46200
O 	O 	0.55892 0.06358 0.39067 -0.45300
O 	O 	0.29312 0.28927 0.60246 -0.43600
O 	O 	0.76677 0.53749 0.84231 -0.42000
O 	O 	0.41673 0.16518 0.59825 -0.54100
O 	O 	0.70744 0.43827 0.79433 -0.43900
O 	O 	0.27576 0.19334 0.67728 -0.41500
O 	O 	0.49558 0.23206 0.98509 -0.35400
O 	O 	0.37794 0.20020 0.96213 -0.41800
C 	C 	0.59353 0.03507 0.44622 0.33600
N 	N 	0.45983 0.33592 0.63358 -0.18500
C 	C 	0.52611 0.10770 0.65598 -0.06600
C 	C 	0.61479 0.04232 0.58045 -0.03600
H 	H 	0.65940 0.01340 0.57640 0.04000
C 	C 	0.50743 0.10428 0.52569 -0.14000
H 	H 	0.47950 0.11900 0.48310 0.08900
N 	N 	0.53851 0.41721 0.72358 -0.19900
C 	C 	0.48276 0.12630 0.59302 0.17100
C 	C 	0.57215 0.06104 0.51880 -0.03600
C 	C 	0.25717 0.25424 0.65057 0.21900
C 	C 	0.55747 0.17073 0.77400 -0.00900
H 	H 	0.60700 0.17960 0.75710 0.02700
C 	C 	0.41298 0.14544 0.82321 -0.17000
H 	H 	0.36300 0.13790 0.83960 0.10400
C 	C 	0.46613 0.18341 0.86746 -0.00400
C 	C 	0.18709 0.29032 0.67871 0.26800
C 	C 	0.43256 0.11894 0.75599 0.20200
C 	C 	0.76646 0.47605 0.81184 0.24300
C 	C 	0.59223 0.06593 0.64834 -0.04100
H 	H 	0.62220 0.05350 0.69040 0.03300
C 	C 	0.44609 0.20719 0.94207 0.27100
C 	C 	0.50483 0.13309 0.72921 -0.08600
C 	C 	0.54013 0.31164 0.63780 -0.06800
H 	H 	0.54260 0.25920 0.65250 0.04200
H 	H 	0.56240 0.31610 0.58920 0.05000
C 	C 	0.53895 0.19517 0.84217 -0.07200
H 	H 	0.57580 0.22010 0.87190 0.06000
C 	C 	0.50620 0.46156 0.66260 -0.04700
H 	H 	0.47400 0.50120 0.68220 0.02800
H 	H 	0.54800 0.48510 0.63630 0.02900
C 	C 	0.42825 0.33280 0.70722 -0.05900
H 	H 	0.37480 0.34970 0.70490 0.03700
H 	H 	0.42900 0.28120 0.72480 0.03800
C 	C 	0.47392 0.38105 0.76022 -0.06000
H 	H 	0.49380 0.35050 0.80120 0.04200
H 	H 	0.44040 0.41930 0.78030 0.03200
C 	C 	0.14008 0.24935 0.72227 -0.49700
H 	H 	0.15330 0.20010 0.73490 0.20400
C 	C 	0.16818 0.36181 0.66150 -0.58600
H 	H 	0.20030 0.39050 0.63210 0.21300
C 	C 	0.45841 0.41405 0.60924 -0.05500
H 	H 	0.47900 0.41770 0.55990 0.03300
H 	H 	0.40540 0.43220 0.60700 0.02700
C 	C 	0.58625 0.35816 0.69259 -0.04900
H 	H 	0.62990 0.38060 0.66820 0.02600
H 	H 	0.60640 0.32620 0.73230 0.02600
C 	C 	0.84054 0.44342 0.79250 0.25500
C 	C 	0.07383 0.27990 0.74750 0.59800
C 	C 	0.05330 0.35180 0.72930 -0.36900
C 	C 	0.90721 0.48050 0.80660 -0.49600
H 	H 	0.90610 0.52730 0.82990 0.19800
C 	C 	0.10180 0.39179 0.68740 0.76900
H 	H 	0.08950 0.44150 0.67590 -0.96400
C 	C 	0.97957 0.38320 0.75270 -0.37700
C 	C 	0.91240 0.34640 0.73870 0.76300
H 	H 	0.91360 0.29980 0.71520 -0.93900
C 	C 	0.84300 0.37510 0.75800 -0.55900
H 	H 	0.79750 0.34850 0.74770 0.22700
O 	O 	0.02980 0.23960 0.79330 0.58500
H 	H 	0.04990 0.19810 0.80070 -0.11000
O 	O 	0.04201 0.49060 0.80250 0.59500
H 	H 	0.03070 0.53290 0.81740 -0.11800
C 	C 	0.97614 0.45090 0.78750 0.61600
O 	O 	0.91010 0.27990 0.69750 0.86200
H 	H 	0.86660 0.26120 0.69900 -0.21500
O 	O 	0.09080 0.46670 0.66850 0.87000
H 	H 	0.08100 0.49110 0.70590 -0.19200
H 	H 	0.04210 0.25150 0.77750 -0.69700
H 	H 	0.02170 0.47720 0.79830 -0.69200
