data_crystal

_cell_length_a 17.54140
_cell_length_b 18.10040
_cell_length_c 18.47290
_cell_angle_alpha 90.00000
_cell_angle_beta  91.85800
_cell_angle_gamma 90.00000

_symmetry_space_group_name_	'P 1'
_symmetry_space_group_name_H-M	'P 1'

loop_
_symmetry_equiv_pos_as_xyz
  x,y,z

loop_
_atom_site_label
_atom_site_type_symbol
_atom_site_fract_x
_atom_site_fract_y
_atom_site_fract_z
_atom_site_charge
Zn	Zn	0.39796 0.52486 0.20083 1.21100
Zn	Zn	0.39733 0.23271 0.06408 1.21200
Zn	Zn	0.32041 0.39205 0.12431 1.20900
O 	O 	0.38319 0.42101 0.21728 -0.56900
O 	O 	0.64504 0.51695 0.94238 -0.47600
O 	O 	0.41775 0.33346 0.09500 -0.57400
O 	O 	0.29334 0.20661 0.09681 -0.46100
O 	O 	0.56087 0.43976 0.88940 -0.47300
N 	N 	0.46262 0.57974 0.27752 -0.21200
C 	C 	0.59498 0.46780 0.94495 0.35000
O 	O 	0.70656 0.06040 0.29479 -0.45200
O 	O 	0.76632 0.95928 0.34050 -0.43300
C 	C 	0.61634 0.45817 0.07869 -0.04100
H 	H 	0.66030 0.48850 0.07510 0.04100
O 	O 	0.38670 0.29360 0.46052 -0.44400
O 	O 	0.27812 0.30101 0.17353 -0.44600
C 	C 	0.52785 0.39049 0.15280 -0.07100
O 	O 	0.50883 0.27349 0.48212 -0.34000
N 	N 	0.54035 0.66170 0.36743 -0.19700
C 	C 	0.50838 0.39571 0.02296 -0.14500
H 	H 	0.48010 0.38200 0.98030 0.09000
C 	C 	0.41720 0.35048 0.32121 -0.17300
H 	H 	0.36720 0.35670 0.33850 0.10200
C 	C 	0.56114 0.32734 0.26920 -0.00600
H 	H 	0.61050 0.31860 0.25120 0.02600
C 	C 	0.47182 0.31424 0.36400 -0.00000
C 	C 	0.48384 0.37223 0.09016 0.18200
C 	C 	0.43475 0.37787 0.25322 0.20600
C 	C 	0.57284 0.66518 0.29412 -0.06200
H 	H 	0.62670 0.64880 0.29680 0.03800
H 	H 	0.57150 0.71680 0.27650 0.03900
C 	C 	0.57348 0.43886 0.01712 -0.03200
C 	C 	0.52731 0.61571 0.24090 -0.06000
H 	H 	0.50740 0.64580 0.19970 0.04000
H 	H 	0.56130 0.57730 0.22150 0.03200
C 	C 	0.50724 0.36442 0.22579 -0.09000
C 	C 	0.18737 0.20613 0.17367 0.19900
C 	C 	0.59398 0.43243 0.14608 -0.03800
H 	H 	0.62440 0.44370 0.18810 0.03300
C 	C 	0.76574 0.02157 0.31124 0.22500
C 	C 	0.49390 0.53504 0.33875 -0.05000
H 	H 	0.52630 0.49500 0.32000 0.02800
H 	H 	0.45150 0.51200 0.36470 0.02700
C 	C 	0.54452 0.30290 0.33785 -0.07600
H 	H 	0.58240 0.27850 0.36700 0.06100
C 	C 	0.41364 0.63921 0.30711 -0.05100
H 	H 	0.36950 0.61680 0.33100 0.02200
H 	H 	0.39390 0.67090 0.26700 0.02400
C 	C 	0.45959 0.68625 0.36192 -0.07000
H 	H 	0.45750 0.73870 0.34680 0.04100
H 	H 	0.43660 0.68230 0.41000 0.05000
C 	C 	0.54160 0.58367 0.39167 -0.05300
H 	H 	0.52070 0.58020 0.44070 0.03000
H 	H 	0.59490 0.56560 0.39430 0.02700
C 	C 	0.07485 0.21648 0.24436 0.56500
C 	C 	0.84048 0.05472 0.29180 0.31800
O 	O 	0.03350 0.25770 0.29111 0.65400
H 	H 	0.98900 0.26330 0.27390 -0.09200
C 	C 	0.05349 0.14538 0.22591 -0.27000
C 	C 	0.90689 0.01651 0.30536 -0.54900
H 	H 	0.90520 0.96960 0.32830 0.20800
C 	C 	0.97965 0.11368 0.24995 -0.48800
C 	C 	0.97656 0.04550 0.28593 0.64200
C 	C 	0.84252 0.12293 0.25660 -0.70200
H 	H 	0.79680 0.14960 0.24650 0.26900
C 	C 	0.91185 0.15110 0.23670 0.99300
H 	H 	0.91310 0.19770 0.21320 -1.24400
O 	O 	0.04260 0.00796 0.30320 0.54300
H 	H 	0.04110 0.96610 0.28360 -0.08600
C 	C 	0.45568 0.29180 0.43993 0.27300
C 	C 	0.25818 0.24082 0.14578 0.25000
C 	C 	0.14147 0.24682 0.21818 -0.45500
H 	H 	0.15550 0.29590 0.23100 0.17800
C 	C 	0.16713 0.13430 0.15671 -0.44800
H 	H 	0.19840 0.10520 0.12690 0.17600
C 	C 	0.10088 0.10524 0.18358 0.55500
H 	H 	0.08780 0.05560 0.17220 -0.71300
O 	O 	0.91040 0.21480 0.19200 1.15200
H 	H 	0.88090 0.24640 0.20910 -0.23500
O 	O 	0.08560 0.03230 0.16790 0.62600
H 	H 	0.10350 0.00550 0.20140 -0.13200
H 	H 	0.04390 0.24490 0.27510 -0.75900
H 	H 	0.02230 0.01910 0.29700 -0.67800
Zn	Zn	0.60204 0.02486 0.29917 1.21000
Zn	Zn	0.60267 0.73271 0.43592 1.21100
Zn	Zn	0.67959 0.89205 0.37569 1.20800
O 	O 	0.61681 0.92101 0.28272 -0.56900
O 	O 	0.35496 0.01695 0.55762 -0.47600
O 	O 	0.58225 0.83346 0.40500 -0.57300
O 	O 	0.70666 0.70661 0.40319 -0.46000
O 	O 	0.43913 0.93976 0.61060 -0.47300
N 	N 	0.53738 0.07974 0.22248 -0.21200
C 	C 	0.40502 0.96780 0.55505 0.34900
O 	O 	0.29344 0.56040 0.20521 -0.45200
O 	O 	0.23368 0.45928 0.15950 -0.43500
C 	C 	0.38366 0.95817 0.42131 -0.04000
H 	H 	0.33970 0.98850 0.42490 0.04100
O 	O 	0.61330 0.79360 0.03948 -0.44300
O 	O 	0.72188 0.80101 0.32647 -0.44600
C 	C 	0.47215 0.89049 0.34720 -0.07000
O 	O 	0.49117 0.77349 0.01788 -0.33900
N 	N 	0.45965 0.16170 0.13257 -0.19800
C 	C 	0.49162 0.89571 0.47704 -0.14400
H 	H 	0.51990 0.88200 0.51970 0.08900
C 	C 	0.58280 0.85048 0.17879 -0.17300
H 	H 	0.63280 0.85670 0.16150 0.10300
C 	C 	0.43886 0.82734 0.23080 -0.00600
H 	H 	0.38950 0.81860 0.24880 0.02600
C 	C 	0.52818 0.81424 0.13600 0.00000
C 	C 	0.51616 0.87223 0.40984 0.18200
C 	C 	0.56525 0.87787 0.24678 0.20600
C 	C 	0.42716 0.16518 0.20588 -0.06200
H 	H 	0.37330 0.14880 0.20320 0.03800
H 	H 	0.42850 0.21680 0.22350 0.03900
C 	C 	0.42652 0.93886 0.48288 -0.03200
C 	C 	0.47269 0.11571 0.25910 -0.06000
H 	H 	0.49260 0.14580 0.30030 0.04000
H 	H 	0.43870 0.07730 0.27850 0.03100
C 	C 	0.49276 0.86442 0.27421 -0.09000
C 	C 	0.81263 0.70613 0.32633 0.19900
C 	C 	0.40602 0.93243 0.35392 -0.03800
H 	H 	0.37560 0.94370 0.31190 0.03300
C 	C 	0.23426 0.52157 0.18876 0.22800
C 	C 	0.50610 0.03504 0.16125 -0.05300
H 	H 	0.47370 0.99500 0.18000 0.03000
H 	H 	0.54850 0.01200 0.13530 0.02800
C 	C 	0.45548 0.80290 0.16215 -0.07600
H 	H 	0.41760 0.77850 0.13300 0.06200
C 	C 	0.58636 0.13921 0.19289 -0.05100
H 	H 	0.63050 0.11680 0.16900 0.02200
H 	H 	0.60610 0.17090 0.23300 0.02400
C 	C 	0.54041 0.18625 0.13808 -0.07000
H 	H 	0.54250 0.23870 0.15320 0.04000
H 	H 	0.56340 0.18230 0.09000 0.04900
C 	C 	0.45840 0.08367 0.10833 -0.05100
H 	H 	0.47930 0.08020 0.05930 0.02900
H 	H 	0.40510 0.06560 0.10570 0.02600
C 	C 	0.92515 0.71648 0.25564 0.56400
C 	C 	0.15952 0.55472 0.20820 0.31600
O 	O 	0.96650 0.75770 0.20889 0.65300
H 	H 	0.01100 0.76330 0.22610 -0.09200
C 	C 	0.94651 0.64538 0.27409 -0.27000
C 	C 	0.09311 0.51651 0.19464 -0.54500
H 	H 	0.09480 0.46960 0.17170 0.20600
C 	C 	0.02035 0.61368 0.25005 -0.48700
C 	C 	0.02344 0.54550 0.21407 0.64100
C 	C 	0.15748 0.62293 0.24340 -0.70100
H 	H 	0.20320 0.64960 0.25350 0.26900
C 	C 	0.08815 0.65110 0.26330 0.99200
H 	H 	0.08690 0.69770 0.28680 -1.24400
O 	O 	0.95740 0.50796 0.19680 0.54300
H 	H 	0.95890 0.46610 0.21640 -0.08700
C 	C 	0.54432 0.79180 0.06007 0.27300
C 	C 	0.74182 0.74082 0.35422 0.25100
C 	C 	0.85853 0.74682 0.28182 -0.45500
H 	H 	0.84450 0.79590 0.26900 0.17800
C 	C 	0.83287 0.63430 0.34329 -0.44800
H 	H 	0.80160 0.60520 0.37310 0.17600
C 	C 	0.89912 0.60524 0.31642 0.55500
H 	H 	0.91220 0.55560 0.32780 -0.71300
O 	O 	0.08960 0.71480 0.30800 1.15300
H 	H 	0.11910 0.74640 0.29090 -0.23600
O 	O 	0.91440 0.53230 0.33210 0.62500
H 	H 	0.89650 0.50550 0.29860 -0.13200
H 	H 	0.95610 0.74490 0.22490 -0.75800
H 	H 	0.97770 0.51910 0.20300 -0.67800
Zn	Zn	0.60204 0.47513 0.79917 1.21000
Zn	Zn	0.60267 0.76729 0.93592 1.21100
Zn	Zn	0.67959 0.60795 0.87569 1.20800
O 	O 	0.61681 0.57899 0.78272 -0.56900
O 	O 	0.35496 0.48305 0.05762 -0.47600
O 	O 	0.58225 0.66654 0.90500 -0.57400
O 	O 	0.70666 0.79339 0.90319 -0.46100
O 	O 	0.43913 0.56024 0.11060 -0.47300
N 	N 	0.53738 0.42026 0.72248 -0.21200
C 	C 	0.40502 0.53220 0.05505 0.35000
O 	O 	0.29344 0.93960 0.70521 -0.45200
O 	O 	0.23368 0.04072 0.65950 -0.43300
C 	C 	0.38366 0.54183 0.92131 -0.04100
H 	H 	0.33970 0.51150 0.92490 0.04100
O 	O 	0.61330 0.70640 0.53948 -0.44400
O 	O 	0.72188 0.69899 0.82647 -0.44600
C 	C 	0.47215 0.60951 0.84720 -0.07100
O 	O 	0.49117 0.72651 0.51788 -0.34000
N 	N 	0.45965 0.33830 0.63257 -0.19700
C 	C 	0.49162 0.60429 0.97704 -0.14500
H 	H 	0.51990 0.61800 0.01970 0.09000
C 	C 	0.58280 0.64952 0.67879 -0.17300
H 	H 	0.63280 0.64330 0.66150 0.10200
C 	C 	0.43886 0.67266 0.73080 -0.00600
H 	H 	0.38950 0.68140 0.74880 0.02600
C 	C 	0.52818 0.68576 0.63600 -0.00000
C 	C 	0.51616 0.62777 0.90984 0.18200
C 	C 	0.56525 0.62213 0.74678 0.20600
C 	C 	0.42716 0.33482 0.70588 -0.06200
H 	H 	0.37330 0.35120 0.70320 0.03800
H 	H 	0.42850 0.28320 0.72350 0.03900
C 	C 	0.42652 0.56114 0.98288 -0.03200
C 	C 	0.47269 0.38429 0.75910 -0.06000
H 	H 	0.49260 0.35420 0.80030 0.04000
H 	H 	0.43870 0.42270 0.77850 0.03200
C 	C 	0.49276 0.63558 0.77421 -0.09000
C 	C 	0.81263 0.79387 0.82633 0.19900
C 	C 	0.40602 0.56757 0.85392 -0.03800
H 	H 	0.37560 0.55630 0.81190 0.03300
C 	C 	0.23426 0.97843 0.68876 0.22500
C 	C 	0.50610 0.46496 0.66125 -0.04900
H 	H 	0.47370 0.50500 0.68000 0.02800
H 	H 	0.54850 0.48800 0.63530 0.02700
C 	C 	0.45548 0.69710 0.66215 -0.07600
H 	H 	0.41760 0.72150 0.63300 0.06100
C 	C 	0.58636 0.36079 0.69289 -0.05100
H 	H 	0.63050 0.38320 0.66900 0.02200
H 	H 	0.60610 0.32910 0.73300 0.02400
C 	C 	0.54041 0.31375 0.63808 -0.07000
H 	H 	0.54250 0.26130 0.65320 0.04100
H 	H 	0.56340 0.31770 0.59000 0.05000
C 	C 	0.45840 0.41633 0.60833 -0.05300
H 	H 	0.47930 0.41980 0.55930 0.03000
H 	H 	0.40510 0.43440 0.60570 0.02700
C 	C 	0.92515 0.78352 0.75564 0.56500
C 	C 	0.15952 0.94528 0.70820 0.31800
O 	O 	0.96650 0.74230 0.70889 0.65400
H 	H 	0.01100 0.73670 0.72610 -0.09200
C 	C 	0.94651 0.85462 0.77409 -0.27000
C 	C 	0.09311 0.98349 0.69464 -0.54900
H 	H 	0.09480 0.03040 0.67170 0.20800
C 	C 	0.02035 0.88632 0.75005 -0.48800
C 	C 	0.02344 0.95450 0.71407 0.64200
C 	C 	0.15748 0.87707 0.74340 -0.70200
H 	H 	0.20320 0.85040 0.75350 0.26900
C 	C 	0.08815 0.84890 0.76330 0.99300
H 	H 	0.08690 0.80230 0.78680 -1.24400
O 	O 	0.95740 0.99204 0.69680 0.54300
H 	H 	0.95890 0.03390 0.71640 -0.08600
C 	C 	0.54432 0.70820 0.56007 0.27300
C 	C 	0.74182 0.75918 0.85422 0.25000
C 	C 	0.85853 0.75318 0.78182 -0.45500
H 	H 	0.84450 0.70410 0.76900 0.17800
C 	C 	0.83287 0.86570 0.84329 -0.44800
H 	H 	0.80160 0.89480 0.87310 0.17600
C 	C 	0.89912 0.89476 0.81642 0.55500
H 	H 	0.91220 0.94440 0.82780 -0.71300
O 	O 	0.08960 0.78520 0.80800 1.15200
H 	H 	0.11910 0.75360 0.79090 -0.23500
O 	O 	0.91440 0.96770 0.83210 0.62600
H 	H 	0.89650 0.99450 0.79860 -0.13200
H 	H 	0.95610 0.75510 0.72490 -0.75900
H 	H 	0.97770 0.98090 0.70300 -0.67800
Zn	Zn	0.39796 0.97513 0.70083 1.21000
Zn	Zn	0.39733 0.26729 0.56408 1.21100
Zn	Zn	0.32041 0.10795 0.62431 1.20800
O 	O 	0.38319 0.07899 0.71728 -0.56900
O 	O 	0.64504 0.98305 0.44238 -0.47600
O 	O 	0.41775 0.16654 0.59500 -0.57300
O 	O 	0.29334 0.29339 0.59681 -0.46000
O 	O 	0.56087 0.06024 0.38940 -0.47300
N 	N 	0.46262 0.92026 0.77752 -0.21200
C 	C 	0.59498 0.03220 0.44495 0.34900
O 	O 	0.70656 0.43960 0.79479 -0.45200
O 	O 	0.76632 0.54072 0.84050 -0.43500
C 	C 	0.61634 0.04183 0.57869 -0.04000
H 	H 	0.66030 0.01150 0.57510 0.04100
O 	O 	0.38670 0.20640 0.96052 -0.44300
O 	O 	0.27812 0.19899 0.67353 -0.44600
C 	C 	0.52785 0.10951 0.65280 -0.07000
O 	O 	0.50883 0.22651 0.98212 -0.33900
N 	N 	0.54035 0.83830 0.86743 -0.19800
C 	C 	0.50838 0.10429 0.52296 -0.14400
H 	H 	0.48010 0.11800 0.48030 0.08900
C 	C 	0.41720 0.14952 0.82121 -0.17300
H 	H 	0.36720 0.14330 0.83850 0.10300
C 	C 	0.56114 0.17266 0.76920 -0.00600
H 	H 	0.61050 0.18140 0.75120 0.02600
C 	C 	0.47182 0.18576 0.86400 0.00000
C 	C 	0.48384 0.12777 0.59016 0.18200
C 	C 	0.43475 0.12213 0.75322 0.20600
C 	C 	0.57284 0.83482 0.79412 -0.06200
H 	H 	0.62670 0.85120 0.79680 0.03800
H 	H 	0.57150 0.78320 0.77650 0.03900
C 	C 	0.57348 0.06114 0.51712 -0.03200
C 	C 	0.52731 0.88429 0.74090 -0.06000
H 	H 	0.50740 0.85420 0.69970 0.04000
H 	H 	0.56130 0.92270 0.72150 0.03100
C 	C 	0.50724 0.13558 0.72579 -0.09000
C 	C 	0.18737 0.29387 0.67367 0.19900
C 	C 	0.59398 0.06757 0.64608 -0.03800
H 	H 	0.62440 0.05630 0.68810 0.03300
C 	C 	0.76574 0.47843 0.81124 0.22800
C 	C 	0.49390 0.96496 0.83875 -0.05300
H 	H 	0.52630 0.00500 0.82000 0.03000
H 	H 	0.45150 0.98800 0.86470 0.02800
C 	C 	0.54452 0.19710 0.83785 -0.07600
H 	H 	0.58240 0.22150 0.86700 0.06200
C 	C 	0.41364 0.86079 0.80711 -0.05100
H 	H 	0.36950 0.88320 0.83100 0.02200
H 	H 	0.39390 0.82910 0.76700 0.02400
C 	C 	0.45959 0.81375 0.86192 -0.07000
H 	H 	0.45750 0.76130 0.84680 0.04000
H 	H 	0.43660 0.81770 0.91000 0.04900
C 	C 	0.54160 0.91633 0.89167 -0.05100
H 	H 	0.52070 0.91980 0.94070 0.02900
H 	H 	0.59490 0.93440 0.89430 0.02600
C 	C 	0.07485 0.28352 0.74436 0.56400
C 	C 	0.84048 0.44528 0.79180 0.31600
O 	O 	0.03350 0.24230 0.79111 0.65300
H 	H 	0.98900 0.23670 0.77390 -0.09200
C 	C 	0.05349 0.35462 0.72591 -0.27000
C 	C 	0.90689 0.48349 0.80536 -0.54500
H 	H 	0.90520 0.53040 0.82830 0.20600
C 	C 	0.97965 0.38632 0.74995 -0.48700
C 	C 	0.97656 0.45450 0.78593 0.64100
C 	C 	0.84252 0.37707 0.75660 -0.70100
H 	H 	0.79680 0.35040 0.74650 0.26900
C 	C 	0.91185 0.34890 0.73670 0.99200
H 	H 	0.91310 0.30230 0.71320 -1.24400
O 	O 	0.04260 0.49204 0.80320 0.54300
H 	H 	0.04110 0.53390 0.78360 -0.08700
C 	C 	0.45568 0.20820 0.93993 0.27300
C 	C 	0.25818 0.25918 0.64578 0.25100
C 	C 	0.14147 0.25318 0.71818 -0.45500
H 	H 	0.15550 0.20410 0.73100 0.17800
C 	C 	0.16713 0.36570 0.65671 -0.44800
H 	H 	0.19840 0.39480 0.62690 0.17600
C 	C 	0.10088 0.39476 0.68358 0.55500
H 	H 	0.08780 0.44440 0.67220 -0.71300
O 	O 	0.91040 0.28520 0.69200 1.15300
H 	H 	0.88090 0.25360 0.70910 -0.23600
O 	O 	0.08560 0.46770 0.66790 0.62500
H 	H 	0.10350 0.49450 0.70140 -0.13200
H 	H 	0.04390 0.25510 0.77510 -0.75800
H 	H 	0.02230 0.48090 0.79700 -0.67800
