data_crystal

_cell_length_a 17.61200
_cell_length_b 18.05200
_cell_length_c 18.65200
_cell_angle_alpha 90.00000
_cell_angle_beta  92.38000
_cell_angle_gamma 90.00000

_symmetry_space_group_name_	'P 1'
_symmetry_space_group_name_H-M	'P 1'

loop_
_symmetry_equiv_pos_as_xyz
  x,y,z

loop_
_atom_site_label
_atom_site_type_symbol
_atom_site_fract_x
_atom_site_fract_y
_atom_site_fract_z
_atom_site_charge
Zn	Zn	0.39673 0.48285 0.28981 1.21200
Zn	Zn	0.32886 0.61844 0.36410 1.20900
Zn	Zn	0.41435 0.76978 0.43507 1.21400
O 	O 	0.30911 0.80029 0.40869 -0.45000
O 	O 	0.56166 0.55593 0.61923 -0.47100
O 	O 	0.70928 0.95456 0.22294 -0.45400
O 	O 	0.64523 0.47752 0.57360 -0.48400
O 	O 	0.76081 0.06145 0.18633 -0.42500
O 	O 	0.29184 0.71727 0.31954 -0.43000
C 	C 	0.59583 0.52757 0.56699 0.34500
C 	C 	0.43598 0.65496 0.17759 -0.16800
H 	H 	0.38680 0.65160 0.15490 0.10000
C 	C 	0.60084 0.56413 0.36838 -0.03400
H 	H 	0.63190 0.55230 0.32960 0.03000
C 	C 	0.57608 0.55687 0.49365 -0.03000
C 	C 	0.56674 0.69523 0.17473 -0.07100
H 	H 	0.60710 0.71730 0.15010 0.05600
C 	C 	0.51291 0.60233 0.48271 -0.14700
H 	H 	0.48400 0.61630 0.52240 0.08800
C 	C 	0.76488 0.99755 0.21204 0.21000
C 	C 	0.62009 0.53698 0.43616 -0.04300
H 	H 	0.66270 0.50520 0.44350 0.04000
C 	C 	0.44826 0.62723 0.24741 0.20300
C 	C 	0.49479 0.68736 0.14109 -0.00800
C 	C 	0.84184 0.96693 0.23197 0.35800
C 	C 	0.19881 0.81035 0.33220 0.27500
C 	C 	0.51999 0.63652 0.28235 -0.08600
C 	C 	0.57833 0.67028 0.24467 -0.01200
H 	H 	0.62700 0.67610 0.26780 0.02400
C 	C 	0.53654 0.60869 0.35589 -0.06900
C 	C 	0.27169 0.77263 0.35530 0.20600
C 	C 	0.84879 0.89325 0.25090 -0.72000
H 	H 	0.80510 0.86250 0.25110 0.27000
C 	C 	0.92009 0.86420 0.26980 0.97700
H 	H 	0.92460 0.81350 0.28300 -1.15000
C 	C 	0.15713 0.78327 0.27316 -0.50800
H 	H 	0.17530 0.74180 0.24760 0.20400
C 	C 	0.98470 0.90819 0.26960 -0.53100
C 	C 	0.17246 0.87066 0.37002 -0.61700
H 	H 	0.20140 0.88960 0.41000 0.23800
C 	C 	0.08881 0.81660 0.25110 0.60800
C 	C 	0.10359 0.90315 0.34923 0.85000
H 	H 	0.08550 0.94420 0.37540 -1.11500
C 	C 	0.90554 0.01169 0.23091 -0.65700
H 	H 	0.90090 0.06230 0.21730 0.23400
C 	C 	0.97682 0.98199 0.25000 0.85500
O 	O 	0.42786 0.66931 0.40363 -0.58200
O 	O 	0.39226 0.58873 0.27720 -0.56900
N 	N 	0.52575 0.33938 0.12957 -0.20200
N 	N 	0.45532 0.42343 0.21700 -0.21200
O 	O 	0.41453 0.70533 0.03688 -0.45100
O 	O 	0.53616 0.72881 0.02776 -0.32500
C 	C 	0.49149 0.62775 0.41416 0.18500
C 	C 	0.48259 0.70920 0.06424 0.28500
C 	C 	0.51814 0.38291 0.25574 -0.05800
H 	H 	0.49720 0.35220 0.29420 0.04100
H 	H 	0.55420 0.41890 0.27830 0.03100
C 	C 	0.55998 0.33338 0.20379 -0.06500
H 	H 	0.61410 0.34810 0.20380 0.03800
H 	H 	0.55750 0.28130 0.22010 0.03900
C 	C 	0.53030 0.41833 0.10707 -0.05400
H 	H 	0.50710 0.42400 0.05810 0.03000
H 	H 	0.58420 0.43360 0.10590 0.02700
C 	C 	0.44418 0.31858 0.13088 -0.06600
H 	H 	0.43970 0.26610 0.14560 0.03800
H 	H 	0.42040 0.32370 0.08210 0.04500
C 	C 	0.40233 0.36798 0.18320 -0.05200
H 	H 	0.36010 0.39390 0.15710 0.02400
H 	H 	0.38050 0.33690 0.22090 0.02400
C 	C 	0.48861 0.46829 0.15938 -0.05100
H 	H 	0.52470 0.50480 0.18100 0.02700
H 	H 	0.44770 0.49580 0.13290 0.02600
C 	C 	0.06066 0.87638 0.29051 -0.33900
O 	O 	0.05080 0.79390 0.18870 0.64100
H 	H 	0.07050 0.75460 0.17400 -0.12600
O 	O 	0.04130 0.02870 0.24240 0.88300
H 	H 	0.08120 0.00460 0.25240 -0.20300
O 	O 	0.91910 0.78750 0.29320 1.06400
H 	H 	0.89750 0.76140 0.26110 -0.28600
O 	O 	0.08330 0.96950 0.38500 1.04800
H 	H 	0.08520 0.96230 0.42950 -0.22900
H 	H 	0.02050 0.01280 0.24940 -1.00800
H 	H 	0.06130 0.79910 0.20970 -0.74300
Zn	Zn	0.60327 0.98285 0.21019 1.21000
Zn	Zn	0.67114 0.11844 0.13590 1.20800
Zn	Zn	0.58565 0.26978 0.06493 1.21300
O 	O 	0.69089 0.30029 0.09131 -0.45000
O 	O 	0.43834 0.05593 0.88077 -0.47000
O 	O 	0.29072 0.45456 0.27706 -0.45300
O 	O 	0.35477 0.97752 0.92640 -0.47800
O 	O 	0.23919 0.56145 0.31367 -0.42900
O 	O 	0.70816 0.21727 0.18046 -0.43000
C 	C 	0.40417 0.02757 0.93301 0.33500
C 	C 	0.56402 0.15496 0.32241 -0.16800
H 	H 	0.61320 0.15160 0.34510 0.10100
C 	C 	0.39916 0.06413 0.13162 -0.03300
H 	H 	0.36810 0.05230 0.17040 0.03000
C 	C 	0.42392 0.05687 0.00635 -0.02500
C 	C 	0.43326 0.19523 0.32527 -0.07100
H 	H 	0.39290 0.21730 0.34990 0.05600
C 	C 	0.48709 0.10233 0.01729 -0.14200
H 	H 	0.51600 0.11630 0.97760 0.08400
C 	C 	0.23512 0.49755 0.28796 0.21200
C 	C 	0.37991 0.03698 0.06384 -0.04500
H 	H 	0.33730 0.00520 0.05650 0.04100
C 	C 	0.55174 0.12723 0.25259 0.20300
C 	C 	0.50521 0.18736 0.35891 -0.00700
C 	C 	0.15816 0.46693 0.26803 0.36700
C 	C 	0.80119 0.31035 0.16780 0.27600
C 	C 	0.48001 0.13652 0.21765 -0.08600
C 	C 	0.42167 0.17028 0.25533 -0.01100
H 	H 	0.37300 0.17610 0.23220 0.02400
C 	C 	0.46346 0.10869 0.14411 -0.06900
C 	C 	0.72831 0.27263 0.14470 0.20600
C 	C 	0.15121 0.39325 0.24910 -0.72400
H 	H 	0.19490 0.36250 0.24890 0.27200
C 	C 	0.07991 0.36420 0.23020 0.97900
H 	H 	0.07540 0.31350 0.21700 -1.14800
C 	C 	0.84287 0.28327 0.22684 -0.50800
H 	H 	0.82470 0.24180 0.25240 0.20500
C 	C 	0.01530 0.40819 0.23040 -0.53200
C 	C 	0.82754 0.37066 0.12998 -0.61700
H 	H 	0.79860 0.38960 0.09000 0.23800
C 	C 	0.91119 0.31660 0.24890 0.60800
C 	C 	0.89641 0.40315 0.15077 0.85100
H 	H 	0.91450 0.44420 0.12460 -1.11600
C 	C 	0.09446 0.51169 0.26909 -0.67300
H 	H 	0.09910 0.56230 0.28270 0.23800
C 	C 	0.02318 0.48199 0.25000 0.86300
O 	O 	0.57214 0.16931 0.09637 -0.58100
O 	O 	0.60774 0.08873 0.22280 -0.56700
N 	N 	0.47425 0.83938 0.37043 -0.20300
N 	N 	0.54468 0.92343 0.28300 -0.21200
O 	O 	0.58547 0.20533 0.46312 -0.45000
O 	O 	0.46384 0.22881 0.47224 -0.32400
C 	C 	0.50851 0.12775 0.08584 0.18400
C 	C 	0.51741 0.20920 0.43576 0.28500
C 	C 	0.48186 0.88291 0.24426 -0.05800
H 	H 	0.50280 0.85220 0.20580 0.04100
H 	H 	0.44580 0.91890 0.22170 0.03000
C 	C 	0.44002 0.83338 0.29621 -0.06500
H 	H 	0.38590 0.84810 0.29620 0.03700
H 	H 	0.44250 0.78130 0.27990 0.03900
C 	C 	0.46970 0.91833 0.39293 -0.05300
H 	H 	0.49290 0.92400 0.44190 0.02900
H 	H 	0.41580 0.93360 0.39410 0.02600
C 	C 	0.55582 0.81858 0.36912 -0.06600
H 	H 	0.56030 0.76610 0.35440 0.03800
H 	H 	0.57960 0.82370 0.41790 0.04500
C 	C 	0.59767 0.86798 0.31680 -0.05200
H 	H 	0.63990 0.89390 0.34290 0.02300
H 	H 	0.61950 0.83690 0.27910 0.02300
C 	C 	0.51139 0.96829 0.34062 -0.05400
H 	H 	0.47530 0.00480 0.31900 0.02900
H 	H 	0.55230 0.99580 0.36710 0.02600
C 	C 	0.93934 0.37638 0.20949 -0.34100
O 	O 	0.94920 0.29390 0.31130 0.64100
H 	H 	0.92950 0.25460 0.32600 -0.12600
O 	O 	0.95870 0.52870 0.25760 0.86800
H 	H 	0.91880 0.50460 0.24760 -0.19900
O 	O 	0.08090 0.28750 0.20680 1.06000
H 	H 	0.10250 0.26140 0.23890 -0.28400
O 	O 	0.91670 0.46950 0.11500 1.04900
H 	H 	0.91480 0.46230 0.07050 -0.23000
H 	H 	0.97950 0.51280 0.25060 -1.00000
H 	H 	0.93870 0.29910 0.29030 -0.74200
Zn	Zn	0.60327 0.51715 0.71019 1.21100
Zn	Zn	0.67114 0.38156 0.63590 1.20800
Zn	Zn	0.58565 0.23022 0.56493 1.21300
O 	O 	0.69089 0.19971 0.59131 -0.45100
O 	O 	0.43834 0.44407 0.38077 -0.47100
O 	O 	0.29072 0.04544 0.77706 -0.45400
O 	O 	0.35477 0.52248 0.42640 -0.48400
O 	O 	0.23919 0.93855 0.81367 -0.42500
O 	O 	0.70816 0.28273 0.68046 -0.43000
C 	C 	0.40417 0.47243 0.43301 0.34500
C 	C 	0.56402 0.34504 0.82241 -0.16800
H 	H 	0.61320 0.34840 0.84510 0.10000
C 	C 	0.39916 0.43587 0.63162 -0.03400
H 	H 	0.36810 0.44770 0.67040 0.03000
C 	C 	0.42392 0.44313 0.50635 -0.03000
C 	C 	0.43326 0.30477 0.82527 -0.07100
H 	H 	0.39290 0.28270 0.84990 0.05600
C 	C 	0.48709 0.39767 0.51729 -0.14700
H 	H 	0.51600 0.38370 0.47760 0.08800
C 	C 	0.23512 0.00245 0.78796 0.21000
C 	C 	0.37991 0.46302 0.56384 -0.04300
H 	H 	0.33730 0.49480 0.55650 0.04000
C 	C 	0.55174 0.37277 0.75259 0.20300
C 	C 	0.50521 0.31264 0.85891 -0.00800
C 	C 	0.15816 0.03307 0.76803 0.35800
C 	C 	0.80119 0.18965 0.66780 0.27500
C 	C 	0.48001 0.36348 0.71765 -0.08600
C 	C 	0.42167 0.32972 0.75533 -0.01200
H 	H 	0.37300 0.32390 0.73220 0.02400
C 	C 	0.46346 0.39131 0.64411 -0.06900
C 	C 	0.72831 0.22737 0.64470 0.20600
C 	C 	0.15121 0.10675 0.74910 -0.72000
H 	H 	0.19490 0.13750 0.74890 0.27000
C 	C 	0.07991 0.13580 0.73020 0.97700
H 	H 	0.07540 0.18650 0.71700 -1.15000
C 	C 	0.84287 0.21673 0.72684 -0.50800
H 	H 	0.82470 0.25820 0.75240 0.20400
C 	C 	0.01530 0.09181 0.73040 -0.53100
C 	C 	0.82754 0.12934 0.62998 -0.61700
H 	H 	0.79860 0.11040 0.59000 0.23800
C 	C 	0.91119 0.18340 0.74890 0.60800
C 	C 	0.89641 0.09685 0.65077 0.85000
H 	H 	0.91450 0.05580 0.62460 -1.11500
C 	C 	0.09446 0.98831 0.76909 -0.65700
H 	H 	0.09910 0.93770 0.78270 0.23400
C 	C 	0.02318 0.01801 0.75000 0.85500
O 	O 	0.57214 0.33069 0.59637 -0.58200
O 	O 	0.60774 0.41127 0.72280 -0.56900
N 	N 	0.47425 0.66062 0.87043 -0.20200
N 	N 	0.54468 0.57657 0.78300 -0.21200
O 	O 	0.58547 0.29467 0.96312 -0.45100
O 	O 	0.46384 0.27119 0.97224 -0.32500
C 	C 	0.50851 0.37225 0.58584 0.18500
C 	C 	0.51741 0.29080 0.93576 0.28500
C 	C 	0.48186 0.61709 0.74426 -0.05800
H 	H 	0.50280 0.64780 0.70580 0.04100
H 	H 	0.44580 0.58110 0.72170 0.03100
C 	C 	0.44002 0.66662 0.79621 -0.06500
H 	H 	0.38590 0.65190 0.79620 0.03800
H 	H 	0.44250 0.71870 0.77990 0.03900
C 	C 	0.46970 0.58167 0.89293 -0.05400
H 	H 	0.49290 0.57600 0.94190 0.03000
H 	H 	0.41580 0.56640 0.89410 0.02700
C 	C 	0.55582 0.68142 0.86912 -0.06600
H 	H 	0.56030 0.73390 0.85440 0.03800
H 	H 	0.57960 0.67630 0.91790 0.04500
C 	C 	0.59767 0.63202 0.81680 -0.05200
H 	H 	0.63990 0.60610 0.84290 0.02400
H 	H 	0.61950 0.66310 0.77910 0.02400
C 	C 	0.51139 0.53171 0.84062 -0.05100
H 	H 	0.47530 0.49520 0.81900 0.02700
H 	H 	0.55230 0.50420 0.86710 0.02600
C 	C 	0.93934 0.12362 0.70949 -0.33900
O 	O 	0.94920 0.20610 0.81130 0.64100
H 	H 	0.92950 0.24540 0.82600 -0.12600
O 	O 	0.95870 0.97130 0.75760 0.88300
H 	H 	0.91880 0.99540 0.74760 -0.20300
O 	O 	0.08090 0.21250 0.70680 1.06400
H 	H 	0.10250 0.23860 0.73890 -0.28600
O 	O 	0.91670 0.03050 0.61500 1.04800
H 	H 	0.91480 0.03770 0.57050 -0.22900
H 	H 	0.97950 0.98720 0.75060 -1.00800
H 	H 	0.93870 0.20090 0.79030 -0.74300
Zn	Zn	0.39673 0.01715 0.78980 1.21000
Zn	Zn	0.32886 0.88156 0.86410 1.20800
Zn	Zn	0.41435 0.73022 0.93507 1.21300
O 	O 	0.30911 0.69971 0.90869 -0.45000
O 	O 	0.56166 0.94407 0.11923 -0.47000
O 	O 	0.70928 0.54544 0.72294 -0.45300
O 	O 	0.64523 0.02248 0.07360 -0.47800
O 	O 	0.76081 0.43855 0.68633 -0.42900
O 	O 	0.29184 0.78273 0.81954 -0.43000
C 	C 	0.59583 0.97243 0.06699 0.33500
C 	C 	0.43598 0.84504 0.67759 -0.16800
H 	H 	0.38680 0.84840 0.65490 0.10100
C 	C 	0.60084 0.93587 0.86838 -0.03300
H 	H 	0.63190 0.94770 0.82960 0.03000
C 	C 	0.57608 0.94313 0.99365 -0.02500
C 	C 	0.56674 0.80477 0.67473 -0.07100
H 	H 	0.60710 0.78270 0.65010 0.05600
C 	C 	0.51291 0.89767 0.98271 -0.14200
H 	H 	0.48400 0.88370 0.02240 0.08400
C 	C 	0.76488 0.50245 0.71204 0.21200
C 	C 	0.62009 0.96302 0.93616 -0.04500
H 	H 	0.66270 0.99480 0.94350 0.04100
C 	C 	0.44826 0.87277 0.74741 0.20300
C 	C 	0.49479 0.81264 0.64109 -0.00700
C 	C 	0.84184 0.53307 0.73197 0.36700
C 	C 	0.19881 0.68965 0.83220 0.27600
C 	C 	0.51999 0.86348 0.78235 -0.08600
C 	C 	0.57833 0.82972 0.74467 -0.01100
H 	H 	0.62700 0.82390 0.76780 0.02400
C 	C 	0.53654 0.89131 0.85589 -0.06900
C 	C 	0.27169 0.72737 0.85530 0.20600
C 	C 	0.84879 0.60675 0.75090 -0.72400
H 	H 	0.80510 0.63750 0.75110 0.27200
C 	C 	0.92009 0.63580 0.76980 0.97900
H 	H 	0.92460 0.68650 0.78300 -1.14800
C 	C 	0.15713 0.71673 0.77316 -0.50800
H 	H 	0.17530 0.75820 0.74760 0.20500
C 	C 	0.98470 0.59181 0.76960 -0.53200
C 	C 	0.17246 0.62934 0.87002 -0.61700
H 	H 	0.20140 0.61040 0.91000 0.23800
C 	C 	0.08881 0.68340 0.75110 0.60800
C 	C 	0.10359 0.59685 0.84923 0.85100
H 	H 	0.08550 0.55580 0.87540 -1.11600
C 	C 	0.90554 0.48831 0.73091 -0.67300
H 	H 	0.90090 0.43770 0.71730 0.23800
C 	C 	0.97682 0.51801 0.75000 0.86300
O 	O 	0.42786 0.83069 0.90363 -0.58100
O 	O 	0.39226 0.91127 0.77720 -0.56700
N 	N 	0.52575 0.16062 0.62957 -0.20300
N 	N 	0.45532 0.07657 0.71700 -0.21200
O 	O 	0.41453 0.79467 0.53688 -0.45000
O 	O 	0.53616 0.77119 0.52776 -0.32400
C 	C 	0.49149 0.87225 0.91416 0.18400
C 	C 	0.48259 0.79080 0.56424 0.28500
C 	C 	0.51814 0.11709 0.75574 -0.05800
H 	H 	0.49720 0.14780 0.79420 0.04100
H 	H 	0.55420 0.08110 0.77830 0.03000
C 	C 	0.55998 0.16662 0.70379 -0.06500
H 	H 	0.61410 0.15190 0.70380 0.03700
H 	H 	0.55750 0.21870 0.72010 0.03900
C 	C 	0.53030 0.08167 0.60707 -0.05300
H 	H 	0.50710 0.07600 0.55810 0.02900
H 	H 	0.58420 0.06640 0.60590 0.02600
C 	C 	0.44418 0.18142 0.63088 -0.06600
H 	H 	0.43970 0.23390 0.64560 0.03800
H 	H 	0.42040 0.17630 0.58210 0.04500
C 	C 	0.40233 0.13202 0.68320 -0.05200
H 	H 	0.36010 0.10610 0.65710 0.02300
H 	H 	0.38050 0.16310 0.72090 0.02300
C 	C 	0.48861 0.03171 0.65938 -0.05400
H 	H 	0.52470 0.99520 0.68100 0.02900
H 	H 	0.44770 0.00420 0.63290 0.02600
C 	C 	0.06066 0.62362 0.79051 -0.34100
O 	O 	0.05080 0.70610 0.68870 0.64100
H 	H 	0.07050 0.74540 0.67400 -0.12600
O 	O 	0.04130 0.47130 0.74240 0.86800
H 	H 	0.08120 0.49540 0.75240 -0.19900
O 	O 	0.91910 0.71250 0.79320 1.06000
H 	H 	0.89750 0.73860 0.76110 -0.28400
O 	O 	0.08330 0.53050 0.88500 1.04900
H 	H 	0.08520 0.53770 0.92950 -0.23000
H 	H 	0.02050 0.48720 0.74940 -1.00000
H 	H 	0.06130 0.70090 0.70970 -0.74200
