data_crystal

_cell_length_a 11.34160
_cell_length_b 14.74040
_cell_length_c 15.19790
_cell_angle_alpha 90.00000
_cell_angle_beta  90.00000
_cell_angle_gamma 90.00000

_symmetry_space_group_name_	'P 1'
_symmetry_space_group_name_H-M	'P 1'

loop_
_symmetry_equiv_pos_as_xyz
  x,y,z

loop_
_atom_site_label
_atom_site_type_symbol
_atom_site_fract_x
_atom_site_fract_y
_atom_site_fract_z
_atom_site_charge
Mn	Mn	0.19392 0.69358 0.52249 1.19700
Mn	Mn	0.69392 0.80642 0.52249 1.19700
Mn	Mn	0.69392 0.80642 0.97751 1.19600
Mn	Mn	0.30608 0.19358 0.02249 1.19600
Mn	Mn	0.80608 0.30642 0.47751 1.19600
Mn	Mn	0.19392 0.69358 0.97751 1.19600
Mn	Mn	0.30608 0.19358 0.47751 1.19600
Mn	Mn	0.80608 0.30642 0.02249 1.19600
H 	H 	0.24860 0.00270 0.17400 0.02600
H 	H 	0.48090 0.70420 0.82560 0.01800
H 	H 	0.98090 0.79580 0.82560 0.01800
H 	H 	0.48090 0.70420 0.67440 0.01800
H 	H 	0.24860 0.00270 0.32600 0.02700
H 	H 	0.75140 0.99730 0.82600 0.02600
H 	H 	0.74860 0.49730 0.32600 0.02700
H 	H 	0.51910 0.29580 0.32560 0.01800
H 	H 	0.74860 0.49730 0.17400 0.02700
H 	H 	0.25140 0.50270 0.67400 0.02700
H 	H 	0.98090 0.79580 0.67440 0.01800
H 	H 	0.01910 0.20420 0.32560 0.01800
H 	H 	0.51910 0.29580 0.17440 0.01800
H 	H 	0.75140 0.99730 0.67400 0.02700
H 	H 	0.01910 0.20420 0.17440 0.01800
H 	H 	0.25140 0.50270 0.82600 0.02700
W 	W 	0.63272 0.04700 0.25000 0.49200
W 	W 	0.36728 0.95300 0.75000 0.49200
W 	W 	0.86728 0.54700 0.75000 0.49600
W 	W 	0.13272 0.45300 0.25000 0.49600
C 	C 	0.71470 0.14557 0.16404 -0.03300
C 	C 	0.28530 0.85443 0.83596 -0.03300
C 	C 	0.21470 0.35443 0.33596 -0.03200
C 	C 	0.00100 0.39594 0.16360 -0.03400
C 	C 	0.34360 0.04080 0.86196 -0.04500
C 	C 	0.20480 0.04571 0.20470 -0.01700
C 	C 	0.43130 0.66517 0.70502 -0.01000
C 	C 	0.79520 0.95429 0.79530 -0.01700
C 	C 	0.50100 0.10406 0.33640 -0.03500
C 	C 	0.93130 0.83483 0.70502 -0.01000
C 	C 	0.78530 0.64557 0.66404 -0.03200
C 	C 	0.49900 0.89594 0.83640 -0.03600
C 	C 	0.15640 0.54080 0.13804 -0.04800
C 	C 	0.68340 0.50590 0.75000 -0.06000
C 	C 	0.84360 0.45920 0.86196 -0.04800
C 	C 	0.56870 0.33483 0.29498 -0.01000
C 	C 	0.50810 0.05220 0.75000 -0.06400
C 	C 	0.65640 0.95920 0.13804 -0.04500
C 	C 	0.29520 0.54571 0.70470 -0.01700
C 	C 	0.79520 0.95429 0.70470 -0.01700
C 	C 	0.71470 0.14557 0.33596 -0.03200
C 	C 	0.06870 0.16517 0.29498 -0.01000
C 	C 	0.56870 0.33483 0.20502 -0.01000
C 	C 	0.81660 0.00590 0.25000 -0.06600
C 	C 	0.99190 0.55220 0.25000 -0.06700
C 	C 	0.93130 0.83483 0.79498 -0.01000
C 	C 	0.28530 0.85443 0.66404 -0.03200
C 	C 	0.49900 0.89594 0.66360 -0.03500
C 	C 	0.50100 0.10406 0.16360 -0.03600
C 	C 	0.84360 0.45920 0.63804 -0.04900
C 	C 	0.21470 0.35443 0.16404 -0.03200
C 	C 	0.99900 0.60406 0.66360 -0.03500
C 	C 	0.18340 0.99410 0.75000 -0.06600
C 	C 	0.43130 0.66517 0.79498 -0.01000
C 	C 	0.70480 0.45429 0.20470 -0.01700
C 	C 	0.65640 0.95920 0.36196 -0.04600
C 	C 	0.78530 0.64557 0.83596 -0.03200
C 	C 	0.06870 0.16517 0.20502 -0.01000
C 	C 	0.20480 0.04571 0.29530 -0.01700
C 	C 	0.70480 0.45429 0.29530 -0.01700
C 	C 	0.99900 0.60406 0.83640 -0.03400
C 	C 	0.00100 0.39594 0.33640 -0.03500
C 	C 	0.49190 0.94780 0.25000 -0.06400
C 	C 	0.29520 0.54571 0.79530 -0.01700
C 	C 	0.34360 0.04080 0.63804 -0.04600
C 	C 	0.00810 0.44780 0.75000 -0.06700
C 	C 	0.31660 0.49410 0.25000 -0.06000
C 	C 	0.15640 0.54080 0.36196 -0.04900
N 	N 	0.64116 0.39188 0.16052 -0.05400
N 	N 	0.43070 0.13312 0.38331 -0.25300
N 	N 	0.08650 0.01720 0.75000 -0.10500
N 	N 	0.14116 0.10812 0.33948 -0.05400
N 	N 	0.75560 0.19966 0.11824 -0.25600
N 	N 	0.91750 0.60500 0.25000 -0.13700
N 	N 	0.08250 0.39500 0.75000 -0.13700
N 	N 	0.43070 0.13312 0.11669 -0.25300
N 	N 	0.58250 0.10500 0.75000 -0.13700
N 	N 	0.24440 0.80034 0.61824 -0.25500
N 	N 	0.35884 0.60812 0.83948 -0.05400
N 	N 	0.66610 0.91182 0.42201 -0.26700
N 	N 	0.25560 0.30034 0.38176 -0.25500
N 	N 	0.85884 0.89188 0.83948 -0.05400
N 	N 	0.56930 0.86688 0.61669 -0.25300
N 	N 	0.74440 0.69966 0.88176 -0.25500
N 	N 	0.91350 0.98280 0.25000 -0.10500
N 	N 	0.14116 0.10812 0.16052 -0.05400
N 	N 	0.33390 0.08818 0.57799 -0.26700
N 	N 	0.16610 0.58818 0.07799 -0.26500
N 	N 	0.58650 0.48280 0.75000 -0.10900
N 	N 	0.41350 0.51720 0.25000 -0.10900
N 	N 	0.25560 0.30034 0.11824 -0.25500
N 	N 	0.85884 0.89188 0.66052 -0.05400
N 	N 	0.24440 0.80034 0.88176 -0.25600
N 	N 	0.93070 0.36688 0.11669 -0.25300
N 	N 	0.56930 0.86688 0.88331 -0.25300
N 	N 	0.83390 0.41182 0.57799 -0.26700
N 	N 	0.06930 0.63312 0.88331 -0.25300
N 	N 	0.06930 0.63312 0.61669 -0.25300
N 	N 	0.41750 0.89500 0.25000 -0.13700
N 	N 	0.35884 0.60812 0.66052 -0.05400
N 	N 	0.16610 0.58818 0.42201 -0.26700
N 	N 	0.64116 0.39188 0.33948 -0.05400
N 	N 	0.93070 0.36688 0.38331 -0.25300
N 	N 	0.74440 0.69966 0.61824 -0.25500
N 	N 	0.66610 0.91182 0.07799 -0.26500
N 	N 	0.75560 0.19966 0.38176 -0.25500
N 	N 	0.33390 0.08818 0.92201 -0.26500
N 	N 	0.83390 0.41182 0.92201 -0.26500
O 	O 	0.84880 0.88519 0.92510 -0.33300
O 	O 	0.34880 0.61481 0.57490 -0.33200
O 	O 	0.15120 0.11481 0.42510 -0.33200
O 	O 	0.15120 0.11481 0.07490 -0.33300
O 	O 	0.34880 0.61481 0.92510 -0.33200
O 	O 	0.84880 0.88519 0.57490 -0.33200
O 	O 	0.65120 0.38519 0.42510 -0.33200
O 	O 	0.65120 0.38519 0.07490 -0.33200
