data_crystal

_cell_length_a 16.74460
_cell_length_b 16.74460
_cell_length_c 15.19640
_cell_angle_alpha 90.00000
_cell_angle_beta  90.00000
_cell_angle_gamma 120.00000

_symmetry_space_group_name_	'P 1'
_symmetry_space_group_name_H-M	'P 1'

loop_
_symmetry_equiv_pos_as_xyz
  x,y,z

loop_
_atom_site_label
_atom_site_type_symbol
_atom_site_fract_x
_atom_site_fract_y
_atom_site_fract_z
_atom_site_charge
O 	O 	0.47800 0.82430 0.34600 -0.44600
C 	C 	0.41190 0.96380 0.46980 0.10800
N 	N 	0.32120 0.93060 0.44300 -0.30800
H 	H 	0.29640 0.88650 0.40530 0.17800
H 	H 	0.28990 0.95420 0.46410 0.14000
O 	O 	0.17570 0.65370 0.34600 -0.44600
C 	C 	0.03620 0.44810 0.46980 0.10800
N 	N 	0.06940 0.39060 0.44300 -0.30800
H 	H 	0.11350 0.40990 0.40530 0.17900
H 	H 	0.04580 0.33570 0.46410 0.14100
O 	O 	0.34630 0.52200 0.34600 -0.44500
C 	C 	0.55190 0.58810 0.46980 0.10900
N 	N 	0.60940 0.67880 0.44300 -0.30700
H 	H 	0.59010 0.70360 0.40530 0.17900
H 	H 	0.66430 0.71010 0.46410 0.14100
O 	O 	0.52200 0.17570 0.84600 -0.44500
C 	C 	0.58810 0.03620 0.96980 0.10900
N 	N 	0.67880 0.06940 0.94300 -0.30700
H 	H 	0.70360 0.11350 0.90530 0.17900
H 	H 	0.71010 0.04580 0.96410 0.14100
O 	O 	0.82430 0.34630 0.84600 -0.44500
C 	C 	0.96380 0.55190 0.96980 0.10900
N 	N 	0.93060 0.60940 0.94300 -0.30700
H 	H 	0.88650 0.59010 0.90530 0.17900
H 	H 	0.95420 0.66430 0.96410 0.14100
O 	O 	0.65370 0.47800 0.84600 -0.44500
C 	C 	0.44810 0.41190 0.96980 0.10900
N 	N 	0.39060 0.32120 0.94300 -0.30700
H 	H 	0.40990 0.29640 0.90530 0.17900
H 	H 	0.33570 0.28990 0.96410 0.14100
O 	O 	0.82430 0.47800 0.65400 -0.44500
C 	C 	0.96380 0.41190 0.53020 0.10900
N 	N 	0.93060 0.32120 0.55700 -0.30700
H 	H 	0.88650 0.29640 0.59470 0.17900
H 	H 	0.95420 0.28990 0.53590 0.14100
O 	O 	0.65370 0.17570 0.65400 -0.44500
C 	C 	0.44810 0.03620 0.53020 0.10900
N 	N 	0.39060 0.06940 0.55700 -0.30700
H 	H 	0.40990 0.11350 0.59470 0.17900
H 	H 	0.33570 0.04580 0.53590 0.14100
O 	O 	0.52200 0.34630 0.65400 -0.44500
C 	C 	0.58810 0.55190 0.53020 0.10900
N 	N 	0.67880 0.60940 0.55700 -0.30700
H 	H 	0.70360 0.59010 0.59470 0.17900
H 	H 	0.71010 0.66430 0.53590 0.14100
O 	O 	0.17570 0.52200 0.15400 -0.44500
C 	C 	0.03620 0.58810 0.03020 0.10900
N 	N 	0.06940 0.67880 0.05700 -0.30700
H 	H 	0.11350 0.70360 0.09470 0.17900
H 	H 	0.04580 0.71010 0.03590 0.14100
O 	O 	0.34630 0.82430 0.15400 -0.44500
C 	C 	0.55190 0.96380 0.03020 0.10900
N 	N 	0.60940 0.93060 0.05700 -0.30700
H 	H 	0.59010 0.88650 0.09470 0.17900
H 	H 	0.66430 0.95420 0.03590 0.14100
O 	O 	0.47800 0.65370 0.15400 -0.44500
C 	C 	0.41190 0.44810 0.03020 0.10900
N 	N 	0.32120 0.39060 0.05700 -0.30700
H 	H 	0.29640 0.40990 0.09470 0.17900
H 	H 	0.28990 0.33570 0.03590 0.14100
O 	O 	0.52200 0.17570 0.65400 -0.44500
C 	C 	0.58810 0.03620 0.53020 0.10900
N 	N 	0.67880 0.06940 0.55700 -0.30700
H 	H 	0.70360 0.11350 0.59470 0.17900
H 	H 	0.71010 0.04580 0.53590 0.14100
O 	O 	0.82430 0.34630 0.65400 -0.44500
C 	C 	0.96380 0.55190 0.53020 0.10900
N 	N 	0.93060 0.60940 0.55700 -0.30700
H 	H 	0.88650 0.59010 0.59470 0.17900
H 	H 	0.95420 0.66430 0.53590 0.14100
O 	O 	0.65370 0.47800 0.65400 -0.44500
C 	C 	0.44810 0.41190 0.53020 0.10900
N 	N 	0.39060 0.32120 0.55700 -0.30700
H 	H 	0.40990 0.29640 0.59470 0.17900
H 	H 	0.33570 0.28990 0.53590 0.14100
O 	O 	0.47800 0.82430 0.15400 -0.44500
C 	C 	0.41190 0.96380 0.03020 0.10900
N 	N 	0.32120 0.93060 0.05700 -0.30700
H 	H 	0.29640 0.88650 0.09470 0.17900
H 	H 	0.28990 0.95420 0.03590 0.14100
O 	O 	0.17570 0.65370 0.15400 -0.44500
C 	C 	0.03620 0.44810 0.03020 0.10900
N 	N 	0.06940 0.39060 0.05700 -0.30700
H 	H 	0.11350 0.40990 0.09470 0.17900
H 	H 	0.04580 0.33570 0.03590 0.14100
O 	O 	0.34630 0.52200 0.15400 -0.44500
C 	C 	0.55190 0.58810 0.03020 0.10900
N 	N 	0.60940 0.67880 0.05700 -0.30700
H 	H 	0.59010 0.70360 0.09470 0.17900
H 	H 	0.66430 0.71010 0.03590 0.14100
O 	O 	0.17570 0.52200 0.34600 -0.44500
C 	C 	0.03620 0.58810 0.46980 0.10900
N 	N 	0.06940 0.67880 0.44300 -0.30700
H 	H 	0.11350 0.70360 0.40530 0.17900
H 	H 	0.04580 0.71010 0.46410 0.14100
O 	O 	0.34630 0.82430 0.34600 -0.44500
C 	C 	0.55190 0.96380 0.46980 0.10900
N 	N 	0.60940 0.93060 0.44300 -0.30700
H 	H 	0.59010 0.88650 0.40530 0.17900
H 	H 	0.66430 0.95420 0.46410 0.14100
O 	O 	0.47800 0.65370 0.34600 -0.44500
C 	C 	0.41190 0.44810 0.46980 0.10900
N 	N 	0.32120 0.39060 0.44300 -0.30700
H 	H 	0.29640 0.40990 0.40530 0.17900
H 	H 	0.28990 0.33570 0.46410 0.14100
O 	O 	0.82430 0.47800 0.84600 -0.44500
C 	C 	0.96380 0.41190 0.96980 0.10900
N 	N 	0.93060 0.32120 0.94300 -0.30700
H 	H 	0.88650 0.29640 0.90530 0.17900
H 	H 	0.95420 0.28990 0.96410 0.14100
O 	O 	0.65370 0.17570 0.84600 -0.44500
C 	C 	0.44810 0.03620 0.96980 0.10900
N 	N 	0.39060 0.06940 0.94300 -0.30700
H 	H 	0.40990 0.11350 0.90530 0.17900
H 	H 	0.33570 0.04580 0.96410 0.14100
O 	O 	0.52200 0.34630 0.84600 -0.44500
C 	C 	0.58810 0.55190 0.96980 0.10900
N 	N 	0.67880 0.60940 0.94300 -0.30700
H 	H 	0.70360 0.59010 0.90530 0.17900
H 	H 	0.71010 0.66430 0.96410 0.14100
Ni	Ni	0.47055 0.73528 0.25000 1.13700
N 	N 	0.61560 0.80780 0.25000 -0.21700
C 	C 	0.91030 0.95515 0.25000 0.09300
C 	C 	0.80690 0.90345 0.25000 0.06200
Ni	Ni	0.26472 0.73528 0.25000 1.13700
N 	N 	0.19220 0.80780 0.25000 -0.21700
C 	C 	0.04485 0.95515 0.25000 0.09300
C 	C 	0.09655 0.90345 0.25000 0.06200
Ni	Ni	0.26472 0.52945 0.25000 1.13700
N 	N 	0.19220 0.38440 0.25000 -0.21700
C 	C 	0.04485 0.08970 0.25000 0.09300
C 	C 	0.09655 0.19310 0.25000 0.06200
Ni	Ni	0.52945 0.26472 0.75000 1.13700
N 	N 	0.38440 0.19220 0.75000 -0.21700
C 	C 	0.08970 0.04485 0.75000 0.09300
C 	C 	0.19310 0.09655 0.75000 0.06200
Ni	Ni	0.73528 0.26472 0.75000 1.13700
N 	N 	0.80780 0.19220 0.75000 -0.21700
C 	C 	0.95515 0.04485 0.75000 0.09300
C 	C 	0.90345 0.09655 0.75000 0.06200
Ni	Ni	0.73528 0.47055 0.75000 1.13700
N 	N 	0.80780 0.61560 0.75000 -0.21700
C 	C 	0.95515 0.91030 0.75000 0.09300
C 	C 	0.90345 0.80690 0.75000 0.06200
O 	O 	0.33333 0.66667 0.25000 -0.55800
O 	O 	0.66667 0.33333 0.75000 -0.55800
C 	C 	0.42655 0.85310 0.37130 0.44600
C 	C 	0.46420 0.92840 0.43800 -0.18900
C 	C 	0.14690 0.57345 0.37130 0.44600
C 	C 	0.07160 0.53580 0.43800 -0.18900
C 	C 	0.42655 0.57345 0.37130 0.44600
C 	C 	0.46420 0.53580 0.43800 -0.18900
C 	C 	0.57345 0.14690 0.87130 0.44600
C 	C 	0.53580 0.07160 0.93800 -0.18900
C 	C 	0.85310 0.42655 0.87130 0.44600
C 	C 	0.92840 0.46420 0.93800 -0.18900
C 	C 	0.57345 0.42655 0.87130 0.44600
C 	C 	0.53580 0.46420 0.93800 -0.18900
C 	C 	0.85310 0.42655 0.62870 0.44600
C 	C 	0.92840 0.46420 0.56200 -0.18900
C 	C 	0.57345 0.14690 0.62870 0.44600
C 	C 	0.53580 0.07160 0.56200 -0.18900
C 	C 	0.57345 0.42655 0.62870 0.44600
C 	C 	0.53580 0.46420 0.56200 -0.18900
C 	C 	0.14690 0.57345 0.12870 0.44600
C 	C 	0.07160 0.53580 0.06200 -0.18900
C 	C 	0.42655 0.85310 0.12870 0.44600
C 	C 	0.46420 0.92840 0.06200 -0.18900
C 	C 	0.42655 0.57345 0.12870 0.44600
C 	C 	0.46420 0.53580 0.06200 -0.18900
N 	N 	0.95320 0.04680 0.25000 -0.14300
N 	N 	0.95320 0.90640 0.25000 -0.14300
N 	N 	0.09360 0.04680 0.25000 -0.14300
N 	N 	0.04680 0.95320 0.75000 -0.14300
N 	N 	0.04680 0.09360 0.75000 -0.14300
N 	N 	0.90640 0.95320 0.75000 -0.14300
C 	C 	0.75910 0.94960 0.25000 -0.14200
H 	H 	0.79020 0.01370 0.25000 0.08300
C 	C 	0.66450 0.90010 0.25000 0.06900
H 	H 	0.63270 0.93240 0.25000 0.00700
C 	C 	0.05040 0.80950 0.25000 -0.14200
H 	H 	0.98630 0.77650 0.25000 0.08300
C 	C 	0.09990 0.76440 0.25000 0.06800
H 	H 	0.06760 0.70030 0.25000 0.00700
C 	C 	0.19050 0.24090 0.25000 -0.14200
H 	H 	0.22350 0.20980 0.25000 0.08300
C 	C 	0.23560 0.33550 0.25000 0.06900
H 	H 	0.29970 0.36730 0.25000 0.00700
C 	C 	0.24090 0.05040 0.75000 -0.14200
H 	H 	0.20980 0.98630 0.75000 0.08300
C 	C 	0.33550 0.09990 0.75000 0.06900
H 	H 	0.36730 0.06760 0.75000 0.00700
C 	C 	0.94960 0.19050 0.75000 -0.14200
H 	H 	0.01370 0.22350 0.75000 0.08300
C 	C 	0.90010 0.23560 0.75000 0.06800
H 	H 	0.93240 0.29970 0.75000 0.00700
C 	C 	0.80950 0.75910 0.75000 -0.14200
H 	H 	0.77650 0.79020 0.75000 0.08300
C 	C 	0.76440 0.66450 0.75000 0.06900
H 	H 	0.70030 0.63270 0.75000 0.00700
C 	C 	0.94960 0.75910 0.75000 -0.14200
H 	H 	0.01370 0.79020 0.75000 0.08300
C 	C 	0.90010 0.66450 0.75000 0.06900
H 	H 	0.93240 0.63270 0.75000 0.00700
C 	C 	0.80950 0.05040 0.75000 -0.14200
H 	H 	0.77650 0.98630 0.75000 0.08300
C 	C 	0.76440 0.09990 0.75000 0.06800
H 	H 	0.70030 0.06760 0.75000 0.00700
C 	C 	0.24090 0.19050 0.75000 -0.14200
H 	H 	0.20980 0.22350 0.75000 0.08300
C 	C 	0.33550 0.23560 0.75000 0.06900
H 	H 	0.36730 0.29970 0.75000 0.00700
C 	C 	0.05040 0.24090 0.25000 -0.14200
H 	H 	0.98630 0.20980 0.25000 0.08300
C 	C 	0.09990 0.33550 0.25000 0.06900
H 	H 	0.06760 0.36730 0.25000 0.00700
C 	C 	0.19050 0.94960 0.25000 -0.14200
H 	H 	0.22350 0.01370 0.25000 0.08300
C 	C 	0.23560 0.90010 0.25000 0.06800
H 	H 	0.29970 0.93240 0.25000 0.00700
C 	C 	0.75910 0.80950 0.25000 -0.14200
H 	H 	0.79020 0.77650 0.25000 0.08300
C 	C 	0.66450 0.76440 0.25000 0.06900
H 	H 	0.63270 0.70030 0.25000 0.00700
