data_crystal

_cell_length_a 19.09830
_cell_length_b 14.42210
_cell_length_c 30.55600
_cell_angle_alpha 90.00000
_cell_angle_beta  90.00000
_cell_angle_gamma 90.00000

_symmetry_space_group_name_	'P 1'
_symmetry_space_group_name_H-M	'P 1'

loop_
_symmetry_equiv_pos_as_xyz
  x,y,z

loop_
_atom_site_label
_atom_site_type_symbol
_atom_site_fract_x
_atom_site_fract_y
_atom_site_fract_z
_atom_site_charge
Er	Er	0.14126 0.46220 0.74751 1.61600
O 	O 	0.12024 0.34040 0.69900 -0.50200
O 	O 	0.16780 0.61670 0.73385 -0.46800
O 	O 	0.08212 0.55310 0.80315 -0.38600
O 	O 	0.19060 0.50820 0.81640 -0.43200
O 	O 	0.73660 0.02980 0.70156 -0.53000
O 	O 	0.52714 0.00170 0.72169 -0.46400
C 	C 	0.13550 0.31710 0.66020 0.46000
C 	C 	0.19360 0.67060 0.70770 0.48300
C 	C 	0.13510 0.55640 0.82700 0.33000
Er	Er	0.18785 0.52419 0.62327 1.64600
O 	O 	0.16590 0.36890 0.63210 -0.45300
C 	C 	0.11650 0.21990 0.64580 -0.21700
O 	O 	0.20850 0.65030 0.66744 -0.50200
C 	C 	0.21190 0.76770 0.72300 -0.21800
C 	C 	0.13850 0.61700 0.86590 -0.16400
O 	O 	0.33900 0.96700 0.05599 -0.48800
O 	O 	0.80270 0.02100 0.64316 -0.47100
C 	C 	0.11840 0.19720 0.60210 0.04600
C 	C 	0.09540 0.15060 0.67620 0.25600
C 	C 	0.20350 0.78640 0.76640 0.05100
C 	C 	0.23290 0.83940 0.69270 0.24500
C 	C 	0.08180 0.67450 0.87380 0.00200
C 	C 	0.19900 0.62110 0.89420 0.22400
C 	C 	0.36230 0.99520 0.01910 0.42100
H 	H 	0.13020 0.24290 0.58200 0.04500
C 	C 	0.10340 0.11000 0.58720 -0.03400
O 	O 	0.09040 0.16900 0.71935 -0.43600
C 	C 	0.07970 0.06200 0.66190 -0.08200
H 	H 	0.18870 0.73990 0.78540 0.02900
C 	C 	0.21750 0.87780 0.78300 -0.03900
O 	O 	0.23910 0.82220 0.64908 -0.43000
C 	C 	0.24750 0.92820 0.70740 -0.07700
H 	H 	0.04380 0.67470 0.85490 0.04800
C 	C 	0.08230 0.73370 0.91160 -0.00600
C 	C 	0.20360 0.68360 0.92810 -0.07100
O 	O 	0.25220 0.56150 0.88661 -0.44700
O 	O 	0.38890 0.07070 0.01329 -0.32400
C 	C 	0.35240 0.92940 0.98100 -0.20900
C 	C 	0.10720 0.08920 0.54180 -0.02900
C 	C 	0.08570 0.03910 0.61770 0.07300
H 	H 	0.09750 0.22440 0.72360 0.25700
C 	C 	0.05930 0.99000 0.69690 -0.03400
C 	C 	0.20780 0.89660 0.82700 -0.02100
C 	C 	0.23770 0.94860 0.75340 0.07000
H 	H 	0.25060 0.76810 0.64530 0.25900
C 	C 	0.26650 0.00050 0.67390 -0.03500
C 	C 	0.14390 0.73860 0.93780 0.04000
C 	C 	0.02380 0.78700 0.92200 -0.05900
C 	C 	0.27040 0.69240 0.95480 -0.08500
H 	H 	0.24170 0.52700 0.86630 0.28200
C 	C 	0.37910 0.95550 0.94130 0.04600
C 	C 	0.31870 0.84200 0.98520 0.23700
H 	H 	0.11720 0.13640 0.52200 0.04800
C 	C 	0.09670 0.00320 0.52700 -0.06400
C 	C 	0.07570 0.94840 0.60040 -0.09400
H 	H 	0.06020 0.92930 0.68320 0.05200
H 	H 	0.09530 0.99030 0.71930 0.05600
C 	C 	0.98930 0.00130 0.71920 -0.09100
H 	H 	0.19530 0.84900 0.84600 0.04400
C 	C 	0.21640 0.98490 0.84270 -0.07300
C 	C 	0.24520 0.03920 0.77130 -0.10400
H 	H 	0.26570 0.06030 0.68840 0.05300
H 	H 	0.22970 0.00120 0.65210 0.05700
C 	C 	0.33650 0.99240 0.64970 -0.09400
C 	C 	0.14100 0.79730 0.97510 -0.08000
C 	C 	0.02400 0.84400 0.95770 -0.02900
H 	H 	0.98410 0.78390 0.90440 0.05600
C 	C 	0.31090 0.78340 0.94880 -0.08500
H 	H 	0.25860 0.68590 0.98550 0.07600
H 	H 	0.30120 0.64140 0.94720 0.07400
H 	H 	0.40100 0.01280 0.93870 0.02600
C 	C 	0.37410 0.89710 0.90400 -0.05100
O 	O 	0.29260 0.81450 0.02424 -0.43100
H 	H 	0.09860 0.99080 0.49710 0.05000
C 	C 	0.08240 0.93030 0.55750 0.00200
H 	H 	0.06420 0.90030 0.61930 0.07400
C 	C 	0.98110 0.99420 0.76510 0.08600
C 	C 	0.92910 0.00850 0.69250 0.27700
H 	H 	0.21050 0.99780 0.87230 0.05500
C 	C 	0.23430 0.05530 0.81320 0.01600
H 	H 	0.25800 0.08800 0.75310 0.07400
C 	C 	0.34210 0.99510 0.60420 0.08400
C 	C 	0.39810 0.99170 0.67400 0.27100
C 	C 	0.08070 0.84800 0.98430 -0.03500
H 	H 	0.17970 0.80190 0.99340 0.07200
H 	H 	0.98490 0.88020 0.96390 0.03700
C 	C 	0.33970 0.81020 0.90870 0.07700
C 	C 	0.40290 0.92260 0.86310 0.00200
H 	H 	0.28380 0.86020 0.03920 0.26900
H 	H 	0.07770 0.86980 0.54760 0.02900
C 	C 	0.03810 0.98290 0.79390 -0.12100
C 	C 	0.91290 0.99910 0.78340 -0.07200
O 	O 	0.93610 0.00690 0.64921 -0.44900
C 	C 	0.86050 0.01730 0.71230 -0.26200
H 	H 	0.23870 0.11560 0.82360 0.01700
C 	C 	0.28310 0.99850 0.57490 -0.11800
C 	C 	0.40880 0.99880 0.58330 -0.06400
O 	O 	0.39151 0.99410 0.71860 -0.43900
C 	C 	0.46450 0.99040 0.65430 -0.25700
H 	H 	0.07940 0.88530 0.00910 0.04800
C 	C 	0.33990 0.75140 0.87100 -0.13600
H 	H 	0.42510 0.97970 0.86040 0.03300
C 	C 	0.39900 0.86700 0.82820 -0.09400
H 	H 	0.08350 0.98020 0.78310 0.08300
C 	C 	0.02640 0.97600 0.83800 0.02700
C 	C 	0.90500 0.99160 0.82990 -0.00100
C 	C 	0.85410 0.01010 0.75570 0.10100
H 	H 	0.89740 0.01070 0.63770 0.28800
C 	C 	0.79800 0.02480 0.68490 0.44300
H 	H 	0.23830 0.99290 0.58660 0.08400
C 	C 	0.28990 0.00930 0.53170 0.02800
C 	C 	0.41440 0.00670 0.53820 -0.00300
C 	C 	0.46850 0.99410 0.60970 0.09100
H 	H 	0.43040 0.99950 0.72970 0.28500
C 	C 	0.53030 0.99000 0.68100 0.48000
C 	C 	0.36830 0.78070 0.83290 0.04100
H 	H 	0.32040 0.69240 0.87270 0.10000
H 	H 	0.41660 0.88590 0.80120 0.08000
H 	H 	0.06470 0.96870 0.85640 0.02200
C 	C 	0.96020 0.97950 0.85630 -0.09000
H 	H 	0.86040 0.99520 0.84200 0.03700
H 	H 	0.80960 0.01250 0.76810 -0.01700
H 	H 	0.24970 0.01340 0.51460 0.02400
C 	C 	0.35610 0.01460 0.51090 -0.08400
H 	H 	0.45870 0.00690 0.52560 0.04000
H 	H 	0.51230 0.99340 0.59650 -0.00700
O 	O 	0.58852 0.97890 0.66244 -0.53700
H 	H 	0.36710 0.74120 0.80880 0.02300
H 	H 	0.95420 0.97350 0.88640 0.06100
H 	H 	0.36040 0.02280 0.48080 0.06500
Er	Er	0.85874 0.53780 0.24751 1.61700
O 	O 	0.87976 0.65960 0.19900 -0.50100
O 	O 	0.83220 0.38330 0.23385 -0.46700
O 	O 	0.91788 0.44690 0.30315 -0.38500
O 	O 	0.80940 0.49180 0.31640 -0.43100
O 	O 	0.26340 0.97020 0.20156 -0.52900
O 	O 	0.47286 0.99830 0.22169 -0.46300
C 	C 	0.86450 0.68290 0.16020 0.45900
C 	C 	0.80640 0.32940 0.20770 0.48200
C 	C 	0.86490 0.44360 0.32700 0.33100
Er	Er	0.81215 0.47581 0.12327 1.64700
O 	O 	0.83410 0.63110 0.13210 -0.45300
C 	C 	0.88350 0.78010 0.14580 -0.21300
O 	O 	0.79150 0.34970 0.16744 -0.50200
C 	C 	0.78810 0.23230 0.22300 -0.21700
C 	C 	0.86150 0.38300 0.36590 -0.16700
O 	O 	0.66100 0.03300 0.55599 -0.48800
O 	O 	0.19730 0.97900 0.14316 -0.47100
C 	C 	0.88160 0.80280 0.10210 0.03900
C 	C 	0.90460 0.84940 0.17620 0.25300
C 	C 	0.79650 0.21360 0.26640 0.05100
C 	C 	0.76710 0.16060 0.19270 0.24500
C 	C 	0.91820 0.32550 0.37380 0.00800
C 	C 	0.80100 0.37890 0.39420 0.22700
C 	C 	0.63770 0.00480 0.51910 0.41500
H 	H 	0.86980 0.75710 0.08200 0.04800
C 	C 	0.89660 0.89000 0.08720 -0.02300
O 	O 	0.90960 0.83100 0.21935 -0.43500
C 	C 	0.92030 0.93800 0.16190 -0.07800
H 	H 	0.81130 0.26010 0.28540 0.03000
C 	C 	0.78250 0.12220 0.28300 -0.03900
O 	O 	0.76090 0.17780 0.14908 -0.43000
C 	C 	0.75250 0.07180 0.20740 -0.07600
H 	H 	0.95620 0.32530 0.35490 0.04600
C 	C 	0.91770 0.26630 0.41160 -0.01600
C 	C 	0.79640 0.31640 0.42810 -0.07500
O 	O 	0.74780 0.43850 0.38661 -0.44800
O 	O 	0.61110 0.92930 0.51329 -0.32500
C 	C 	0.64760 0.07060 0.48100 -0.20400
C 	C 	0.89280 0.91080 0.04180 -0.04800
C 	C 	0.91430 0.96090 0.11770 0.06400
H 	H 	0.90250 0.77560 0.22360 0.25700
C 	C 	0.94070 0.01000 0.19690 -0.03600
C 	C 	0.79220 0.10340 0.32700 -0.02100
C 	C 	0.76230 0.05140 0.25340 0.06900
H 	H 	0.74940 0.23190 0.14530 0.25900
C 	C 	0.73350 0.99950 0.17390 -0.03900
C 	C 	0.85610 0.26140 0.43780 0.05100
C 	C 	0.97620 0.21300 0.42200 -0.04400
C 	C 	0.72960 0.30760 0.45480 -0.08300
H 	H 	0.75830 0.47300 0.36630 0.28300
C 	C 	0.62090 0.04450 0.44130 0.04500
C 	C 	0.68130 0.15800 0.48520 0.24200
H 	H 	0.88280 0.86360 0.02200 0.05700
C 	C 	0.90330 0.99680 0.02700 -0.03700
C 	C 	0.92430 0.05160 0.10040 -0.08100
H 	H 	0.93980 0.07070 0.18320 0.05300
H 	H 	0.90470 0.00970 0.21930 0.05600
C 	C 	0.01070 0.99870 0.21920 -0.09100
H 	H 	0.80470 0.15100 0.34600 0.04400
C 	C 	0.78360 0.01510 0.34270 -0.07200
C 	C 	0.75480 0.96080 0.27130 -0.10300
H 	H 	0.73430 0.93970 0.18840 0.05400
H 	H 	0.77030 0.99880 0.15210 0.05800
C 	C 	0.66350 0.00760 0.14970 -0.08900
C 	C 	0.85900 0.20270 0.47510 -0.09700
C 	C 	0.97600 0.15600 0.45770 -0.05100
H 	H 	0.01590 0.21610 0.40440 0.05100
C 	C 	0.68910 0.21660 0.44880 -0.08600
H 	H 	0.74140 0.31410 0.48550 0.07800
H 	H 	0.69880 0.35860 0.44720 0.07500
H 	H 	0.59900 0.98720 0.43870 0.02700
C 	C 	0.62590 0.10290 0.40400 -0.05100
O 	O 	0.70740 0.18550 0.52424 -0.43800
H 	H 	0.90140 0.00920 0.99710 0.03600
C 	C 	0.91760 0.06970 0.05750 -0.01600
H 	H 	0.93580 0.09970 0.11930 0.07000
C 	C 	0.01890 0.00580 0.26510 0.08600
C 	C 	0.07090 0.99150 0.19250 0.27700
H 	H 	0.78950 0.00220 0.37230 0.05500
C 	C 	0.76570 0.94470 0.31320 0.01500
H 	H 	0.74200 0.91200 0.25310 0.07400
C 	C 	0.65790 0.00490 0.10420 0.07500
C 	C 	0.60190 0.00830 0.17400 0.26800
C 	C 	0.91930 0.15200 0.48430 -0.00500
H 	H 	0.82030 0.19810 0.49340 0.08000
H 	H 	0.01510 0.11980 0.46390 0.04600
C 	C 	0.66030 0.18980 0.40870 0.07800
C 	C 	0.59710 0.07740 0.36310 0.00200
H 	H 	0.71620 0.13980 0.53920 0.27000
H 	H 	0.92230 0.13020 0.04760 0.03600
C 	C 	0.96190 0.01710 0.29390 -0.12100
C 	C 	0.08710 0.00090 0.28340 -0.07200
O 	O 	0.06390 0.99310 0.14921 -0.44900
C 	C 	0.13950 0.98270 0.21230 -0.26100
H 	H 	0.76130 0.88440 0.32360 0.01800
C 	C 	0.71690 0.00150 0.07490 -0.10300
C 	C 	0.59120 0.00120 0.08330 -0.05300
O 	O 	0.60849 0.00590 0.21860 -0.43800
C 	C 	0.53550 0.00960 0.15430 -0.25400
H 	H 	0.92060 0.11470 0.50910 0.03300
C 	C 	0.66010 0.24860 0.37100 -0.13500
H 	H 	0.57490 0.02030 0.36040 0.03400
C 	C 	0.60100 0.13300 0.32820 -0.09400
H 	H 	0.91650 0.01980 0.28310 0.08300
C 	C 	0.97360 0.02400 0.33800 0.02700
C 	C 	0.09500 0.00840 0.32990 -0.00100
C 	C 	0.14590 0.98990 0.25570 0.10000
H 	H 	0.10260 0.98930 0.13770 0.28800
C 	C 	0.20200 0.97520 0.18490 0.44300
H 	H 	0.76170 0.00710 0.08660 0.08000
C 	C 	0.71010 0.99070 0.03170 0.00900
C 	C 	0.58560 0.99330 0.03820 -0.02000
C 	C 	0.53150 0.00590 0.10970 0.08400
H 	H 	0.56960 0.00050 0.22970 0.28500
C 	C 	0.46970 0.01000 0.18100 0.47900
C 	C 	0.63170 0.21930 0.33290 0.04100
H 	H 	0.67960 0.30760 0.37270 0.10000
H 	H 	0.58340 0.11410 0.30120 0.08000
H 	H 	0.93530 0.03130 0.35640 0.02200
C 	C 	0.03980 0.02050 0.35630 -0.09000
H 	H 	0.13960 0.00480 0.34200 0.03700
H 	H 	0.19040 0.98750 0.26810 -0.01700
H 	H 	0.75030 0.98660 0.01460 0.03300
C 	C 	0.64390 0.98540 0.01090 -0.05700
H 	H 	0.54130 0.99310 0.02560 0.04800
H 	H 	0.48770 0.00660 0.09650 -0.00400
O 	O 	0.41148 0.02110 0.16244 -0.53700
H 	H 	0.63290 0.25880 0.30880 0.02300
H 	H 	0.04580 0.02650 0.38640 0.06100
H 	H 	0.63960 0.97720 0.98080 0.05100
Er	Er	0.64126 0.03780 0.74751 1.61800
O 	O 	0.62024 0.15960 0.69900 -0.50100
O 	O 	0.66780 0.88330 0.73385 -0.46700
O 	O 	0.58212 0.94690 0.80315 -0.38500
O 	O 	0.69060 0.99180 0.81640 -0.43200
O 	O 	0.23660 0.47020 0.70156 -0.53000
O 	O 	0.02714 0.49830 0.72169 -0.46400
C 	C 	0.63550 0.18290 0.66020 0.46000
C 	C 	0.69360 0.82940 0.70770 0.48300
C 	C 	0.63510 0.94360 0.82700 0.33000
Er	Er	0.68785 0.97581 0.62327 1.64400
O 	O 	0.66590 0.13110 0.63210 -0.45300
C 	C 	0.61650 0.28010 0.64580 -0.21700
O 	O 	0.70850 0.84970 0.66744 -0.50200
C 	C 	0.71190 0.73230 0.72300 -0.21800
C 	C 	0.63850 0.88300 0.86590 -0.16400
O 	O 	0.83900 0.53300 0.05599 -0.48900
O 	O 	0.30270 0.47900 0.64316 -0.47200
C 	C 	0.61840 0.30280 0.60210 0.04700
C 	C 	0.59540 0.34940 0.67620 0.25600
C 	C 	0.70350 0.71360 0.76640 0.05100
C 	C 	0.73290 0.66060 0.69270 0.24500
C 	C 	0.58180 0.82550 0.87380 0.00200
C 	C 	0.69900 0.87890 0.89420 0.22400
C 	C 	0.86230 0.50480 0.01910 0.41900
H 	H 	0.63020 0.25710 0.58200 0.04500
C 	C 	0.60340 0.39000 0.58720 -0.03400
O 	O 	0.59040 0.33100 0.71935 -0.43600
C 	C 	0.57970 0.43800 0.66190 -0.08200
H 	H 	0.68870 0.76010 0.78540 0.02900
C 	C 	0.71750 0.62220 0.78300 -0.04000
O 	O 	0.73910 0.67780 0.64908 -0.43000
C 	C 	0.74750 0.57180 0.70740 -0.07700
H 	H 	0.54380 0.82530 0.85490 0.04800
C 	C 	0.58230 0.76630 0.91160 -0.00600
C 	C 	0.70360 0.81640 0.92810 -0.07100
O 	O 	0.75220 0.93850 0.88661 -0.44700
O 	O 	0.88890 0.42930 0.01329 -0.32400
C 	C 	0.85240 0.57060 0.98100 -0.20900
C 	C 	0.60720 0.41080 0.54180 -0.02900
C 	C 	0.58570 0.46090 0.61770 0.07300
H 	H 	0.59750 0.27560 0.72360 0.25700
C 	C 	0.55930 0.51000 0.69690 -0.03300
C 	C 	0.70780 0.60340 0.82700 -0.02000
C 	C 	0.73770 0.55140 0.75340 0.07000
H 	H 	0.75060 0.73190 0.64530 0.25800
C 	C 	0.76650 0.49950 0.67390 -0.03600
C 	C 	0.64390 0.76140 0.93780 0.04100
C 	C 	0.52380 0.71300 0.92200 -0.05900
C 	C 	0.77040 0.80760 0.95480 -0.08500
H 	H 	0.74170 0.97300 0.86630 0.28200
C 	C 	0.87910 0.54450 0.94130 0.04500
C 	C 	0.81870 0.65800 0.98520 0.23600
H 	H 	0.61720 0.36360 0.52200 0.04800
C 	C 	0.59670 0.49680 0.52700 -0.06500
C 	C 	0.57570 0.55160 0.60040 -0.09500
H 	H 	0.56020 0.57070 0.68320 0.05200
H 	H 	0.59530 0.50970 0.71930 0.05500
C 	C 	0.48930 0.49870 0.71920 -0.09300
H 	H 	0.69530 0.65100 0.84600 0.04400
C 	C 	0.71640 0.51510 0.84270 -0.07400
C 	C 	0.74520 0.46080 0.77130 -0.10400
H 	H 	0.76570 0.43970 0.68840 0.05300
H 	H 	0.72970 0.49880 0.65210 0.05700
C 	C 	0.83650 0.50760 0.64970 -0.09300
C 	C 	0.64100 0.70270 0.97510 -0.08100
C 	C 	0.52400 0.65600 0.95770 -0.03100
H 	H 	0.48410 0.71610 0.90440 0.05600
C 	C 	0.81090 0.71660 0.94880 -0.08500
H 	H 	0.75860 0.81410 0.98550 0.07600
H 	H 	0.80120 0.85860 0.94720 0.07400
H 	H 	0.90100 0.48720 0.93870 0.02600
C 	C 	0.87410 0.60290 0.90400 -0.05100
O 	O 	0.79260 0.68550 0.02424 -0.43100
H 	H 	0.59860 0.50920 0.49710 0.05000
C 	C 	0.58240 0.56970 0.55750 0.00200
H 	H 	0.56420 0.59970 0.61930 0.07500
C 	C 	0.48110 0.50580 0.76510 0.08900
C 	C 	0.42910 0.49150 0.69250 0.27800
H 	H 	0.71050 0.50220 0.87230 0.05500
C 	C 	0.73430 0.44470 0.81320 0.01700
H 	H 	0.75800 0.41200 0.75310 0.07400
C 	C 	0.84210 0.50490 0.60420 0.08300
C 	C 	0.89810 0.50830 0.67400 0.27000
C 	C 	0.58070 0.65200 0.98430 -0.03400
H 	H 	0.67970 0.69810 0.99340 0.07200
H 	H 	0.48490 0.61980 0.96390 0.03800
C 	C 	0.83970 0.68980 0.90870 0.07700
C 	C 	0.90290 0.57740 0.86310 0.00200
H 	H 	0.78380 0.63980 0.03920 0.26900
H 	H 	0.57770 0.63020 0.54760 0.02900
C 	C 	0.53810 0.51710 0.79390 -0.12300
C 	C 	0.41290 0.50090 0.78340 -0.07200
O 	O 	0.43610 0.49310 0.64921 -0.44900
C 	C 	0.36050 0.48270 0.71230 -0.26200
H 	H 	0.73870 0.38440 0.82360 0.01700
C 	C 	0.78310 0.50150 0.57490 -0.11600
C 	C 	0.90880 0.50120 0.58330 -0.06300
O 	O 	0.89151 0.50590 0.71860 -0.43900
C 	C 	0.96450 0.50960 0.65430 -0.25700
H 	H 	0.57940 0.61470 0.00910 0.04800
C 	C 	0.83990 0.74860 0.87100 -0.13500
H 	H 	0.92510 0.52030 0.86040 0.03300
C 	C 	0.89900 0.63300 0.82820 -0.09400
H 	H 	0.58350 0.51980 0.78310 0.08300
C 	C 	0.52640 0.52400 0.83800 0.02600
C 	C 	0.40500 0.50840 0.82990 -0.00200
C 	C 	0.35410 0.48990 0.75570 0.10000
H 	H 	0.39740 0.48930 0.63770 0.28700
C 	C 	0.29800 0.47520 0.68490 0.44300
H 	H 	0.73830 0.50710 0.58660 0.08400
C 	C 	0.78990 0.49070 0.53170 0.02600
C 	C 	0.91440 0.49330 0.53820 -0.00500
C 	C 	0.96850 0.50590 0.60970 0.09000
H 	H 	0.93040 0.50050 0.72970 0.28500
C 	C 	0.03030 0.51000 0.68100 0.48000
C 	C 	0.86830 0.71930 0.83290 0.04100
H 	H 	0.82040 0.80760 0.87270 0.10000
H 	H 	0.91660 0.61410 0.80120 0.08000
H 	H 	0.56470 0.53130 0.85640 0.02200
C 	C 	0.46020 0.52050 0.85630 -0.08900
H 	H 	0.36040 0.50480 0.84200 0.03700
H 	H 	0.30960 0.48750 0.76810 -0.01700
H 	H 	0.74970 0.48660 0.51460 0.02500
C 	C 	0.85610 0.48540 0.51090 -0.08300
H 	H 	0.95870 0.49310 0.52560 0.04100
H 	H 	0.01230 0.50660 0.59650 -0.00700
O 	O 	0.08852 0.52110 0.66244 -0.53700
H 	H 	0.86710 0.75880 0.80880 0.02300
H 	H 	0.45420 0.52650 0.88640 0.06100
H 	H 	0.86040 0.47720 0.48080 0.06500
Er	Er	0.35874 0.96220 0.24751 1.61700
O 	O 	0.37976 0.84040 0.19900 -0.50100
O 	O 	0.33220 0.11670 0.23385 -0.46700
O 	O 	0.41788 0.05310 0.30315 -0.38500
O 	O 	0.30940 0.00820 0.31640 -0.43200
O 	O 	0.76340 0.52980 0.20156 -0.53000
O 	O 	0.97286 0.50170 0.22169 -0.46400
C 	C 	0.36450 0.81710 0.16020 0.45900
C 	C 	0.30640 0.17060 0.20770 0.48200
C 	C 	0.36490 0.05640 0.32700 0.33100
Er	Er	0.31215 0.02419 0.12327 1.64600
O 	O 	0.33410 0.86890 0.13210 -0.45300
C 	C 	0.38350 0.71990 0.14580 -0.21200
O 	O 	0.29150 0.15030 0.16744 -0.50200
C 	C 	0.28810 0.26770 0.22300 -0.21800
C 	C 	0.36150 0.11700 0.36590 -0.16700
O 	O 	0.16100 0.46700 0.55599 -0.48800
O 	O 	0.69730 0.52100 0.14316 -0.47200
C 	C 	0.38160 0.69720 0.10210 0.03900
C 	C 	0.40460 0.65060 0.17620 0.25300
C 	C 	0.29650 0.28640 0.26640 0.05100
C 	C 	0.26710 0.33940 0.19270 0.24500
C 	C 	0.41820 0.17450 0.37380 0.00800
C 	C 	0.30100 0.12110 0.39420 0.22700
C 	C 	0.13770 0.49520 0.51910 0.41300
H 	H 	0.36980 0.74290 0.08200 0.04800
C 	C 	0.39660 0.61000 0.08720 -0.02200
O 	O 	0.40960 0.66900 0.21935 -0.43500
C 	C 	0.42030 0.56200 0.16190 -0.07700
H 	H 	0.31130 0.23990 0.28540 0.02900
C 	C 	0.28250 0.37780 0.28300 -0.03900
O 	O 	0.26090 0.32220 0.14908 -0.43000
C 	C 	0.25250 0.42820 0.20740 -0.07600
H 	H 	0.45620 0.17470 0.35490 0.04600
C 	C 	0.41770 0.23370 0.41160 -0.01600
C 	C 	0.29640 0.18360 0.42810 -0.07500
O 	O 	0.24780 0.06150 0.38661 -0.44700
O 	O 	0.11110 0.57070 0.51329 -0.32400
C 	C 	0.14760 0.42940 0.48100 -0.20300
C 	C 	0.39280 0.58920 0.04180 -0.04900
C 	C 	0.41430 0.53910 0.11770 0.06300
H 	H 	0.40250 0.72440 0.22360 0.25700
C 	C 	0.44070 0.49000 0.19690 -0.03600
C 	C 	0.29220 0.39660 0.32700 -0.02000
C 	C 	0.26230 0.44860 0.25340 0.06900
H 	H 	0.24940 0.26810 0.14530 0.25900
C 	C 	0.23350 0.50050 0.17390 -0.03900
C 	C 	0.35610 0.23860 0.43780 0.05100
C 	C 	0.47620 0.28700 0.42200 -0.04400
C 	C 	0.22960 0.19240 0.45480 -0.08400
H 	H 	0.25830 0.02700 0.36630 0.28300
C 	C 	0.12090 0.45550 0.44130 0.04300
C 	C 	0.18130 0.34200 0.48520 0.24200
H 	H 	0.38280 0.63640 0.02200 0.05700
C 	C 	0.40330 0.50320 0.02700 -0.03500
C 	C 	0.42430 0.44840 0.10040 -0.08000
H 	H 	0.43980 0.42930 0.18320 0.05300
H 	H 	0.40470 0.49030 0.21930 0.05600
C 	C 	0.51070 0.50130 0.21920 -0.09200
H 	H 	0.30470 0.34900 0.34600 0.04400
C 	C 	0.28360 0.48490 0.34270 -0.07400
C 	C 	0.25480 0.53920 0.27130 -0.10400
H 	H 	0.23430 0.56030 0.18840 0.05400
H 	H 	0.27030 0.50120 0.15210 0.05800
C 	C 	0.16350 0.49240 0.14970 -0.08900
C 	C 	0.35900 0.29730 0.47510 -0.09800
C 	C 	0.47600 0.34400 0.45770 -0.05200
H 	H 	0.51590 0.28390 0.40440 0.05100
C 	C 	0.18910 0.28340 0.44880 -0.08600
H 	H 	0.24140 0.18590 0.48550 0.07800
H 	H 	0.19880 0.14140 0.44720 0.07500
H 	H 	0.09900 0.51280 0.43870 0.02800
C 	C 	0.12590 0.39710 0.40400 -0.05000
O 	O 	0.20740 0.31450 0.52424 -0.43800
H 	H 	0.40140 0.49080 0.99710 0.03500
C 	C 	0.41760 0.43030 0.05750 -0.01800
H 	H 	0.43580 0.40030 0.11930 0.07000
C 	C 	0.51890 0.49420 0.26510 0.08800
C 	C 	0.57090 0.50850 0.19250 0.27700
H 	H 	0.28950 0.49780 0.37230 0.05600
C 	C 	0.26570 0.55530 0.31320 0.01700
H 	H 	0.24200 0.58800 0.25310 0.07400
C 	C 	0.15790 0.49510 0.10420 0.07500
C 	C 	0.10190 0.49170 0.17400 0.26800
C 	C 	0.41930 0.34800 0.48430 -0.00400
H 	H 	0.32030 0.30190 0.49340 0.08100
H 	H 	0.51510 0.38020 0.46390 0.04700
C 	C 	0.16030 0.31020 0.40870 0.07700
C 	C 	0.09710 0.42260 0.36310 0.00100
H 	H 	0.21620 0.36020 0.53920 0.26900
H 	H 	0.42230 0.36980 0.04760 0.03700
C 	C 	0.46190 0.48290 0.29390 -0.12200
C 	C 	0.58710 0.49910 0.28340 -0.07100
O 	O 	0.56390 0.50690 0.14921 -0.44900
C 	C 	0.63950 0.51730 0.21230 -0.26100
H 	H 	0.26130 0.61560 0.32360 0.01700
C 	C 	0.21690 0.49850 0.07490 -0.10300
C 	C 	0.09120 0.49880 0.08330 -0.05300
O 	O 	0.10849 0.49410 0.21860 -0.43800
C 	C 	0.03550 0.49040 0.15430 -0.25400
H 	H 	0.42060 0.38530 0.50910 0.03300
C 	C 	0.16010 0.25140 0.37100 -0.13500
H 	H 	0.07490 0.47970 0.36040 0.03400
C 	C 	0.10100 0.36700 0.32820 -0.09300
H 	H 	0.41650 0.48020 0.28310 0.08300
C 	C 	0.47360 0.47600 0.33800 0.02600
C 	C 	0.59500 0.49160 0.32990 -0.00200
C 	C 	0.64590 0.51010 0.25570 0.10000
H 	H 	0.60260 0.51070 0.13770 0.28800
C 	C 	0.70200 0.52480 0.18490 0.44300
H 	H 	0.26170 0.49290 0.08660 0.07900
C 	C 	0.21010 0.50930 0.03170 0.00800
C 	C 	0.08560 0.50670 0.03820 -0.02000
C 	C 	0.03150 0.49410 0.10970 0.08300
H 	H 	0.06960 0.49950 0.22970 0.28500
C 	C 	0.96970 0.49000 0.18100 0.47900
C 	C 	0.13170 0.28070 0.33290 0.04000
H 	H 	0.17960 0.19240 0.37270 0.10000
H 	H 	0.08340 0.38590 0.30120 0.08000
H 	H 	0.43530 0.46870 0.35640 0.02200
C 	C 	0.53980 0.47950 0.35630 -0.08800
H 	H 	0.63960 0.49520 0.34200 0.03800
H 	H 	0.69040 0.51250 0.26810 -0.01700
H 	H 	0.25030 0.51340 0.01460 0.03300
C 	C 	0.14390 0.51460 0.01090 -0.05700
H 	H 	0.04130 0.50690 0.02560 0.04800
H 	H 	0.98770 0.49340 0.09650 -0.00400
O 	O 	0.91148 0.47890 0.16244 -0.53700
H 	H 	0.13290 0.24120 0.30880 0.02400
H 	H 	0.54580 0.47350 0.38640 0.06100
H 	H 	0.13960 0.52280 0.98080 0.05100
