data_crystal

_cell_length_a 19.09940
_cell_length_b 14.41800
_cell_length_c 30.59300
_cell_angle_alpha 90.00000
_cell_angle_beta  90.00000
_cell_angle_gamma 90.00000

_symmetry_space_group_name_	'P 1'
_symmetry_space_group_name_H-M	'P 1'

loop_
_symmetry_equiv_pos_as_xyz
  x,y,z

loop_
_atom_site_label
_atom_site_type_symbol
_atom_site_fract_x
_atom_site_fract_y
_atom_site_fract_z
_atom_site_charge
Ho	Ho	0.31145 0.02725 0.37080 1.67800
Ho	Ho	0.35751 0.96480 0.24681 1.64400
O 	O 	0.37794 0.84146 0.29536 -0.50100
O 	O 	0.33428 0.87090 0.36247 -0.46600
O 	O 	0.40855 0.67140 0.27474 -0.43200
H 	H 	0.40280 0.72720 0.27070 0.25600
O 	O 	0.69554 0.51840 0.35140 -0.47900
O 	O 	0.76124 0.52758 0.29330 -0.54300
O 	O 	0.56104 0.50580 0.34517 -0.44300
H 	H 	0.59960 0.50490 0.35690 0.28400
O 	O 	0.10950 0.57460 0.98081 -0.32500
O 	O 	0.16060 0.47050 0.93828 -0.49100
O 	O 	0.20670 0.31840 0.97004 -0.43600
H 	H 	0.20110 0.35960 0.95190 0.28100
O 	O 	0.41622 0.05530 0.19032 -0.39700
O 	O 	0.30847 0.01180 0.17735 -0.44400
O 	O 	0.24481 0.06600 0.10856 -0.44700
H 	H 	0.25440 0.03180 0.12910 0.28400
O 	O 	0.83027 0.37940 0.25981 -0.46200
O 	O 	0.79021 0.34670 0.32651 -0.50700
O 	O 	0.75892 0.17460 0.34478 -0.43300
H 	H 	0.73980 0.22490 0.34830 0.25600
O 	O 	0.41057 0.02300 0.33083 -0.54400
O 	O 	0.47297 0.99950 0.27189 -0.46500
O 	O 	0.60775 0.00580 0.27579 -0.44700
H 	H 	0.56890 0.00170 0.26460 0.28900
C 	C 	0.36360 0.81840 0.33488 0.46700
C 	C 	0.38230 0.72260 0.34869 -0.22600
C 	C 	0.37930 0.70030 0.39183 0.05500
H 	H 	0.36660 0.74600 0.41170 0.03700
C 	C 	0.39460 0.61130 0.40763 -0.03600
C 	C 	0.39100 0.58960 0.45284 -0.02700
H 	H 	0.38190 0.63680 0.47280 0.04600
C 	C 	0.40030 0.50250 0.46760 -0.06700
H 	H 	0.39710 0.48940 0.49730 0.05100
C 	C 	0.41520 0.43130 0.43720 0.00300
H 	H 	0.42030 0.37090 0.44730 0.02800
C 	C 	0.42200 0.44780 0.39420 -0.09200
H 	H 	0.43290 0.39920 0.37540 0.07300
C 	C 	0.41276 0.54040 0.37682 0.06900
C 	C 	0.41898 0.56390 0.33204 -0.07700
C 	C 	0.40324 0.65250 0.31831 0.25100
C 	C 	0.43850 0.49040 0.29748 -0.03600
H 	H 	0.43680 0.42980 0.31120 0.05300
H 	H 	0.40300 0.49130 0.27480 0.05600
C 	C 	0.50960 0.50180 0.27602 -0.09200
C 	C 	0.51670 0.49630 0.22922 0.08200
C 	C 	0.46070 0.48560 0.20067 -0.11600
H 	H 	0.41520 0.48450 0.21160 0.08100
C 	C 	0.47190 0.47650 0.15630 0.01700
H 	H 	0.43360 0.46790 0.13800 0.02500
C 	C 	0.53910 0.48000 0.13790 -0.08100
H 	H 	0.54550 0.47360 0.10800 0.05800
C 	C 	0.59380 0.49250 0.16436 -0.00900
H 	H 	0.63830 0.49640 0.15220 0.03900
C 	C 	0.58640 0.50030 0.21097 -0.06400
C 	C 	0.64430 0.51040 0.23788 0.08500
H 	H 	0.68870 0.51370 0.22550 -0.01400
C 	C 	0.63740 0.51570 0.28273 -0.25300
C 	C 	0.56910 0.50830 0.30148 0.27400
C 	C 	0.70110 0.52280 0.31024 0.45500
C 	C 	0.46920 0.01100 0.31272 0.47400
C 	C 	0.53420 0.00980 0.33950 -0.25600
C 	C 	0.52920 0.00550 0.38457 0.08600
H 	H 	0.48510 0.00620 0.39750 -0.00700
C 	C 	0.58820 0.00010 0.41110 -0.06100
C 	C 	0.58300 0.98850 0.45650 -0.00300
H 	H 	0.53880 0.98590 0.46920 0.04000
C 	C 	0.64020 0.98100 0.48250 -0.08300
H 	H 	0.63540 0.97280 0.51250 0.06400
C 	C 	0.70670 0.98580 0.46320 0.02400
H 	H 	0.74620 0.98090 0.48080 0.02500
C 	C 	0.71470 0.99720 0.41990 -0.11200
H 	H 	0.75980 0.00190 0.40860 0.08200
C 	C 	0.65610 0.00250 0.39040 0.07800
C 	C 	0.66280 0.00520 0.34423 -0.09300
C 	C 	0.60120 0.00630 0.31968 0.27500
C 	C 	0.73250 0.99700 0.32113 -0.03100
H 	H 	0.73410 0.93660 0.30720 0.05100
H 	H 	0.76890 0.99780 0.34330 0.05600
C 	C 	0.75120 0.06870 0.28706 -0.08400
C 	C 	0.76070 0.04750 0.24187 0.07300
C 	C 	0.75160 0.95700 0.22380 -0.10000
H 	H 	0.73780 0.90850 0.24190 0.07300
C 	C 	0.76280 0.94040 0.18070 0.00800
H 	H 	0.75860 0.88000 0.17030 0.02000
C 	C 	0.78010 0.01050 0.15190 -0.06700
H 	H 	0.78500 0.99800 0.12220 0.05200
C 	C 	0.79010 0.09870 0.16753 -0.02300
H 	H 	0.80300 0.14600 0.14850 0.04500
C 	C 	0.78090 0.11770 0.21223 -0.04100
C 	C 	0.79400 0.20830 0.22826 0.05600
H 	H 	0.80820 0.25480 0.20910 0.02800
C 	C 	0.78600 0.22760 0.27157 -0.22400
C 	C 	0.76550 0.15750 0.30157 0.25600
C 	C 	0.80360 0.32560 0.28667 0.47900
C 	C 	0.36290 0.05950 0.16735 0.35300
C 	C 	0.35980 0.12030 0.12822 -0.17600
C 	C 	0.41610 0.17460 0.11829 0.01600
H 	H 	0.45560 0.17130 0.13600 0.04300
C 	C 	0.41710 0.23520 0.08250 -0.01700
C 	C 	0.47600 0.28680 0.07130 -0.04800
H 	H 	0.51600 0.28230 0.08850 0.05200
C 	C 	0.47650 0.34340 0.03620 -0.04300
H 	H 	0.51590 0.37890 0.03010 0.04200
C 	C 	0.41890 0.34850 0.00950 -0.02100
H 	H 	0.42080 0.38540 0.98460 0.04400
C 	C 	0.35750 0.29980 0.01888 -0.09200
H 	H 	0.31880 0.30490 0.00060 0.08200
C 	C 	0.35460 0.24280 0.05638 0.04700
C 	C 	0.29430 0.18760 0.06657 -0.07100
C 	C 	0.29980 0.12370 0.10054 0.22500
C 	C 	0.22620 0.19760 0.04035 -0.08700
H 	H 	0.23700 0.18950 0.00960 0.07800
H 	H 	0.19490 0.14780 0.04880 0.07500
C 	C 	0.18800 0.28790 0.04566 -0.07700
C 	C 	0.15830 0.31550 0.08638 0.07000
C 	C 	0.15920 0.25700 0.12366 -0.12800
H 	H 	0.17950 0.19850 0.12190 0.09800
C 	C 	0.13060 0.28620 0.16185 0.03100
H 	H 	0.13170 0.24700 0.18600 0.02600
C 	C 	0.09950 0.37310 0.16596 -0.08300
H 	H 	0.08190 0.39200 0.19290 0.07600
C 	C 	0.09470 0.43040 0.13090 -0.00900
H 	H 	0.07220 0.48730 0.13350 0.03600
C 	C 	0.12410 0.40300 0.09004 -0.04500
C 	C 	0.12010 0.46040 0.05303 0.04200
H 	H 	0.09900 0.51830 0.05570 0.02700
C 	C 	0.14610 0.43420 0.01337 -0.20600
C 	C 	0.18010 0.34690 0.00965 0.22800
C 	C 	0.13680 0.50020 0.97579 0.41100
Ho	Ho	0.68855 0.97275 0.87080 1.67900
Ho	Ho	0.64249 0.03520 0.74681 1.64500
O 	O 	0.62206 0.15854 0.79536 -0.50000
O 	O 	0.66572 0.12910 0.86247 -0.46500
O 	O 	0.59145 0.32860 0.77474 -0.43100
H 	H 	0.59720 0.27280 0.77070 0.25600
O 	O 	0.30446 0.48160 0.85140 -0.47900
O 	O 	0.23876 0.47242 0.79330 -0.54300
O 	O 	0.43896 0.49420 0.84517 -0.44300
H 	H 	0.40040 0.49510 0.85690 0.28400
O 	O 	0.89050 0.42540 0.48081 -0.32600
O 	O 	0.83940 0.52950 0.43828 -0.49100
O 	O 	0.79330 0.68160 0.47004 -0.44200
H 	H 	0.79890 0.64040 0.45190 0.28100
O 	O 	0.58378 0.94470 0.69032 -0.39700
O 	O 	0.69153 0.98820 0.67735 -0.44400
O 	O 	0.75519 0.93400 0.60856 -0.44700
H 	H 	0.74560 0.96820 0.62910 0.28400
O 	O 	0.16973 0.62060 0.75981 -0.46200
O 	O 	0.20979 0.65330 0.82651 -0.50700
O 	O 	0.24108 0.82540 0.84478 -0.43300
H 	H 	0.26020 0.77510 0.84830 0.25600
O 	O 	0.58943 0.97700 0.83083 -0.54400
O 	O 	0.52703 0.00050 0.77189 -0.46400
O 	O 	0.39225 0.99420 0.77579 -0.44600
H 	H 	0.43110 0.99830 0.76460 0.28800
C 	C 	0.63640 0.18160 0.83488 0.46700
C 	C 	0.61770 0.27740 0.84869 -0.22600
C 	C 	0.62070 0.29970 0.89183 0.05400
H 	H 	0.63340 0.25400 0.91170 0.03800
C 	C 	0.60540 0.38870 0.90763 -0.03500
C 	C 	0.60900 0.41040 0.95284 -0.02700
H 	H 	0.61810 0.36320 0.97280 0.04800
C 	C 	0.59970 0.49750 0.96760 -0.06700
H 	H 	0.60290 0.51060 0.99730 0.05200
C 	C 	0.58480 0.56870 0.93720 0.00300
H 	H 	0.57970 0.62910 0.94730 0.02900
C 	C 	0.57800 0.55220 0.89420 -0.09100
H 	H 	0.56710 0.60080 0.87540 0.07300
C 	C 	0.58724 0.45960 0.87682 0.06900
C 	C 	0.58102 0.43610 0.83204 -0.07700
C 	C 	0.59676 0.34750 0.81831 0.25100
C 	C 	0.56150 0.50960 0.79748 -0.03600
H 	H 	0.56320 0.57020 0.81120 0.05300
H 	H 	0.59700 0.50870 0.77480 0.05600
C 	C 	0.49040 0.49820 0.77602 -0.09200
C 	C 	0.48330 0.50370 0.72922 0.08200
C 	C 	0.53930 0.51440 0.70067 -0.11600
H 	H 	0.58480 0.51550 0.71160 0.08100
C 	C 	0.52810 0.52350 0.65630 0.01700
H 	H 	0.56640 0.53210 0.63800 0.02500
C 	C 	0.46090 0.52000 0.63790 -0.08100
H 	H 	0.45450 0.52640 0.60800 0.05900
C 	C 	0.40620 0.50750 0.66436 -0.00800
H 	H 	0.36170 0.50360 0.65220 0.03900
C 	C 	0.41360 0.49970 0.71097 -0.06400
C 	C 	0.35570 0.48960 0.73788 0.08500
H 	H 	0.31130 0.48630 0.72550 -0.01400
C 	C 	0.36260 0.48430 0.78273 -0.25300
C 	C 	0.43090 0.49170 0.80148 0.27400
C 	C 	0.29890 0.47720 0.81024 0.45400
C 	C 	0.53080 0.98900 0.81272 0.47300
C 	C 	0.46580 0.99020 0.83950 -0.25300
C 	C 	0.47080 0.99450 0.88457 0.08000
H 	H 	0.51490 0.99380 0.89750 -0.00500
C 	C 	0.41180 0.99990 0.91110 -0.05100
C 	C 	0.41700 0.01150 0.95650 -0.02000
H 	H 	0.46120 0.01410 0.96920 0.04700
C 	C 	0.35980 0.01900 0.98250 -0.05600
H 	H 	0.36460 0.02720 0.01250 0.05100
C 	C 	0.29330 0.01420 0.96320 0.00500
H 	H 	0.25380 0.01910 0.98080 0.03300
C 	C 	0.28530 0.00280 0.91990 -0.09800
H 	H 	0.24020 0.99810 0.90860 0.07700
C 	C 	0.34390 0.99750 0.89040 0.07000
C 	C 	0.33720 0.99480 0.84423 -0.08900
C 	C 	0.39880 0.99370 0.81968 0.27200
C 	C 	0.26750 0.00300 0.82113 -0.03400
H 	H 	0.26590 0.06340 0.80720 0.05200
H 	H 	0.23110 0.00220 0.84330 0.05700
C 	C 	0.24880 0.93130 0.78706 -0.08300
C 	C 	0.23930 0.95250 0.74187 0.07200
C 	C 	0.24840 0.04300 0.72380 -0.09800
H 	H 	0.26220 0.09150 0.74190 0.07200
C 	C 	0.23720 0.05960 0.68070 0.00600
H 	H 	0.24140 0.12000 0.67030 0.02100
C 	C 	0.21990 0.98950 0.65190 -0.06400
H 	H 	0.21500 0.00200 0.62220 0.05100
C 	C 	0.20990 0.90130 0.66753 -0.02500
H 	H 	0.19700 0.85400 0.64850 0.04600
C 	C 	0.21910 0.88230 0.71223 -0.04000
C 	C 	0.20600 0.79170 0.72826 0.05500
H 	H 	0.19180 0.74520 0.70910 0.02800
C 	C 	0.21400 0.77240 0.77157 -0.22300
C 	C 	0.23450 0.84250 0.80157 0.25500
C 	C 	0.19640 0.67440 0.78667 0.47900
C 	C 	0.63710 0.94050 0.66735 0.35400
C 	C 	0.64020 0.87970 0.62822 -0.17900
C 	C 	0.58390 0.82540 0.61829 0.02100
H 	H 	0.54440 0.82870 0.63600 0.04200
C 	C 	0.58290 0.76480 0.58250 -0.02500
C 	C 	0.52400 0.71320 0.57130 -0.03500
H 	H 	0.48400 0.71770 0.58850 0.04800
C 	C 	0.52350 0.65660 0.53620 -0.06000
H 	H 	0.48410 0.62110 0.53010 0.05000
C 	C 	0.58110 0.65150 0.50950 0.00300
H 	H 	0.57920 0.61460 0.48460 0.03200
C 	C 	0.64250 0.70020 0.51888 -0.10600
H 	H 	0.68120 0.69510 0.50060 0.08900
C 	C 	0.64540 0.75720 0.55638 0.05500
C 	C 	0.70570 0.81240 0.56657 -0.07300
C 	C 	0.70020 0.87630 0.60054 0.22700
C 	C 	0.77380 0.80240 0.54035 -0.08700
H 	H 	0.76300 0.81050 0.50960 0.08000
H 	H 	0.80510 0.85220 0.54880 0.07500
C 	C 	0.81200 0.71210 0.54566 -0.07800
C 	C 	0.84170 0.68450 0.58638 0.07000
C 	C 	0.84080 0.74300 0.62366 -0.12800
H 	H 	0.82050 0.80150 0.62190 0.09800
C 	C 	0.86940 0.71380 0.66185 0.03100
H 	H 	0.86830 0.75300 0.68600 0.02700
C 	C 	0.90050 0.62690 0.66596 -0.08200
H 	H 	0.91810 0.60800 0.69290 0.07500
C 	C 	0.90530 0.56960 0.63090 -0.00900
H 	H 	0.92780 0.51270 0.63350 0.03700
C 	C 	0.87590 0.59700 0.59004 -0.04400
C 	C 	0.87990 0.53960 0.55303 0.04000
H 	H 	0.90100 0.48170 0.55570 0.02900
C 	C 	0.85390 0.56580 0.51337 -0.20100
C 	C 	0.81990 0.65310 0.50965 0.23200
C 	C 	0.86320 0.49980 0.47579 0.40600
Ho	Ho	0.81145 0.47275 0.37080 1.68300
Ho	Ho	0.85751 0.53520 0.24681 1.64300
O 	O 	0.87794 0.65854 0.29536 -0.50000
O 	O 	0.83428 0.62910 0.36247 -0.46600
O 	O 	0.90855 0.82860 0.27474 -0.43100
H 	H 	0.90280 0.77280 0.27070 0.25600
O 	O 	0.19554 0.98160 0.35140 -0.47800
O 	O 	0.26124 0.97242 0.29330 -0.54200
O 	O 	0.06104 0.99420 0.34517 -0.44200
H 	H 	0.09960 0.99510 0.35690 0.28400
O 	O 	0.60950 0.92540 0.98081 -0.32500
O 	O 	0.66060 0.02950 0.93828 -0.48900
O 	O 	0.70670 0.18160 0.97004 -0.43600
H 	H 	0.70110 0.14040 0.95190 0.28100
O 	O 	0.91622 0.44470 0.19032 -0.39600
O 	O 	0.80847 0.48820 0.17735 -0.44300
O 	O 	0.74481 0.43400 0.10856 -0.44700
H 	H 	0.75440 0.46820 0.12910 0.28400
O 	O 	0.33027 0.12060 0.25981 -0.46300
O 	O 	0.29021 0.15330 0.32651 -0.50700
O 	O 	0.25892 0.32540 0.34478 -0.43300
H 	H 	0.23980 0.27510 0.34830 0.25500
O 	O 	0.91057 0.47700 0.33083 -0.54400
O 	O 	0.97297 0.50050 0.27189 -0.46600
O 	O 	0.10775 0.49420 0.27579 -0.44700
H 	H 	0.06890 0.49830 0.26460 0.28900
C 	C 	0.86360 0.68160 0.33488 0.46700
C 	C 	0.88230 0.77740 0.34869 -0.22600
C 	C 	0.87930 0.79970 0.39183 0.05400
H 	H 	0.86660 0.75400 0.41170 0.03700
C 	C 	0.89460 0.88870 0.40763 -0.03500
C 	C 	0.89100 0.91040 0.45284 -0.02700
H 	H 	0.88190 0.86320 0.47280 0.04600
C 	C 	0.90030 0.99750 0.46760 -0.06800
H 	H 	0.89710 0.01060 0.49730 0.05100
C 	C 	0.91520 0.06870 0.43720 0.00300
H 	H 	0.92030 0.12910 0.44730 0.02800
C 	C 	0.92200 0.05220 0.39420 -0.09100
H 	H 	0.93290 0.10080 0.37540 0.07300
C 	C 	0.91276 0.95960 0.37682 0.06800
C 	C 	0.91898 0.93610 0.33204 -0.07600
C 	C 	0.90324 0.84750 0.31831 0.25000
C 	C 	0.93850 0.00960 0.29748 -0.04000
H 	H 	0.93680 0.07020 0.31120 0.05400
H 	H 	0.90300 0.00870 0.27480 0.05800
C 	C 	0.00960 0.99820 0.27602 -0.08500
C 	C 	0.01670 0.00370 0.22922 0.07200
C 	C 	0.96070 0.01440 0.20067 -0.10700
H 	H 	0.91520 0.01550 0.21160 0.07800
C 	C 	0.97190 0.02350 0.15630 0.01200
H 	H 	0.93360 0.03210 0.13800 0.02700
C 	C 	0.03910 0.02000 0.13790 -0.07600
H 	H 	0.04550 0.02640 0.10800 0.05600
C 	C 	0.09380 0.00750 0.16436 -0.01600
H 	H 	0.13830 0.00360 0.15220 0.04100
C 	C 	0.08640 0.99970 0.21097 -0.05500
C 	C 	0.14430 0.98960 0.23788 0.07900
H 	H 	0.18870 0.98630 0.22550 -0.01200
C 	C 	0.13740 0.98430 0.28273 -0.24900
C 	C 	0.06910 0.99170 0.30148 0.27000
C 	C 	0.20110 0.97720 0.31024 0.45300
C 	C 	0.96920 0.48900 0.31272 0.47500
C 	C 	0.03420 0.49020 0.33950 -0.25600
C 	C 	0.02920 0.49450 0.38457 0.08500
H 	H 	0.98510 0.49380 0.39750 -0.00700
C 	C 	0.08820 0.49990 0.41110 -0.06100
C 	C 	0.08300 0.51150 0.45650 -0.00400
H 	H 	0.03880 0.51410 0.46920 0.04000
C 	C 	0.14020 0.51900 0.48250 -0.08300
H 	H 	0.13540 0.52720 0.51250 0.06400
C 	C 	0.20670 0.51420 0.46320 0.02400
H 	H 	0.24620 0.51910 0.48080 0.02500
C 	C 	0.21470 0.50280 0.41990 -0.11400
H 	H 	0.25980 0.49810 0.40860 0.08200
C 	C 	0.15610 0.49750 0.39040 0.07900
C 	C 	0.16280 0.49480 0.34423 -0.09400
C 	C 	0.10120 0.49370 0.31968 0.27500
C 	C 	0.23250 0.50300 0.32113 -0.03100
H 	H 	0.23410 0.56340 0.30720 0.05100
H 	H 	0.26890 0.50220 0.34330 0.05600
C 	C 	0.25120 0.43130 0.28706 -0.08400
C 	C 	0.26070 0.45250 0.24187 0.07400
C 	C 	0.25160 0.54300 0.22380 -0.10200
H 	H 	0.23780 0.59150 0.24190 0.07400
C 	C 	0.26280 0.55960 0.18070 0.01300
H 	H 	0.25860 0.62000 0.17030 0.01800
C 	C 	0.28010 0.48950 0.15190 -0.07300
H 	H 	0.28500 0.50200 0.12220 0.05500
C 	C 	0.29010 0.40130 0.16753 -0.02000
H 	H 	0.30300 0.35400 0.14850 0.04400
C 	C 	0.28090 0.38230 0.21223 -0.04400
C 	C 	0.29400 0.29170 0.22826 0.05700
H 	H 	0.30820 0.24520 0.20910 0.02700
C 	C 	0.28600 0.27240 0.27157 -0.22400
C 	C 	0.26550 0.34250 0.30157 0.25600
C 	C 	0.30360 0.17440 0.28667 0.47900
C 	C 	0.86290 0.44050 0.16735 0.35300
C 	C 	0.85980 0.37970 0.12822 -0.17600
C 	C 	0.91610 0.32540 0.11829 0.01500
H 	H 	0.95560 0.32870 0.13600 0.04400
C 	C 	0.91710 0.26480 0.08250 -0.01600
C 	C 	0.97600 0.21320 0.07130 -0.04900
H 	H 	0.01600 0.21770 0.08850 0.05200
C 	C 	0.97650 0.15660 0.03620 -0.03900
H 	H 	0.01590 0.12110 0.03010 0.04000
C 	C 	0.91890 0.15150 0.00950 -0.02400
H 	H 	0.92080 0.11460 0.98460 0.04500
C 	C 	0.85750 0.20020 0.01888 -0.09000
H 	H 	0.81880 0.19510 0.00060 0.08100
C 	C 	0.85460 0.25720 0.05638 0.04600
C 	C 	0.79430 0.31240 0.06657 -0.07000
C 	C 	0.79980 0.37630 0.10054 0.22500
C 	C 	0.72620 0.30240 0.04035 -0.08800
H 	H 	0.73700 0.31050 0.00960 0.07800
H 	H 	0.69490 0.35220 0.04880 0.07500
C 	C 	0.68800 0.21210 0.04566 -0.07700
C 	C 	0.65830 0.18450 0.08638 0.06900
C 	C 	0.65920 0.24300 0.12366 -0.12800
H 	H 	0.67950 0.30150 0.12190 0.09800
C 	C 	0.63060 0.21380 0.16185 0.03100
H 	H 	0.63170 0.25300 0.18600 0.02700
C 	C 	0.59950 0.12690 0.16596 -0.08200
H 	H 	0.58190 0.10800 0.19290 0.07600
C 	C 	0.59470 0.06960 0.13090 -0.00900
H 	H 	0.57220 0.01270 0.13350 0.03600
C 	C 	0.62410 0.09700 0.09004 -0.04500
C 	C 	0.62010 0.03960 0.05303 0.04200
H 	H 	0.59900 0.98170 0.05570 0.02700
C 	C 	0.64610 0.06580 0.01337 -0.20400
C 	C 	0.68010 0.15310 0.00965 0.22700
C 	C 	0.63680 0.99980 0.97579 0.40700
Ho	Ho	0.18855 0.52725 0.87080 1.68300
Ho	Ho	0.14249 0.46480 0.74681 1.64400
O 	O 	0.12206 0.34146 0.79536 -0.50000
O 	O 	0.16572 0.37090 0.86247 -0.46500
O 	O 	0.09145 0.17140 0.77474 -0.43100
H 	H 	0.09720 0.22720 0.77070 0.25600
O 	O 	0.80446 0.01840 0.85140 -0.47800
O 	O 	0.73876 0.02758 0.79330 -0.54200
O 	O 	0.93896 0.00580 0.84517 -0.44200
H 	H 	0.90040 0.00490 0.85690 0.28400
O 	O 	0.39050 0.07460 0.48081 -0.32500
O 	O 	0.33940 0.97050 0.43828 -0.48900
O 	O 	0.29330 0.81840 0.47004 -0.44100
H 	H 	0.29890 0.85960 0.45190 0.28200
O 	O 	0.08378 0.55530 0.69032 -0.39600
O 	O 	0.19153 0.51180 0.67735 -0.44300
O 	O 	0.25519 0.56600 0.60856 -0.44700
H 	H 	0.24560 0.53180 0.62910 0.28400
O 	O 	0.66973 0.87940 0.75981 -0.46300
O 	O 	0.70979 0.84670 0.82651 -0.50700
O 	O 	0.74108 0.67460 0.84478 -0.43300
H 	H 	0.76020 0.72490 0.84830 0.25500
O 	O 	0.08943 0.52300 0.83083 -0.54400
O 	O 	0.02703 0.49950 0.77189 -0.46500
O 	O 	0.89225 0.50580 0.77579 -0.44600
H 	H 	0.93110 0.50170 0.76460 0.28900
C 	C 	0.13640 0.31840 0.83488 0.46700
C 	C 	0.11770 0.22260 0.84869 -0.22500
C 	C 	0.12070 0.20030 0.89183 0.05400
H 	H 	0.13340 0.24600 0.91170 0.03800
C 	C 	0.10540 0.11130 0.90763 -0.03400
C 	C 	0.10900 0.08960 0.95284 -0.02900
H 	H 	0.11810 0.13680 0.97280 0.04800
C 	C 	0.09970 0.00250 0.96760 -0.06400
H 	H 	0.10290 0.98940 0.99730 0.05100
C 	C 	0.08480 0.93130 0.93720 0.00100
H 	H 	0.07970 0.87090 0.94730 0.03000
C 	C 	0.07800 0.94780 0.89420 -0.09000
H 	H 	0.06710 0.89920 0.87540 0.07200
C 	C 	0.08724 0.04040 0.87682 0.06800
C 	C 	0.08102 0.06390 0.83204 -0.07600
C 	C 	0.09676 0.15250 0.81831 0.25000
C 	C 	0.06150 0.99040 0.79748 -0.04000
H 	H 	0.06320 0.92980 0.81120 0.05400
H 	H 	0.09700 0.99130 0.77480 0.05800
C 	C 	0.99040 0.00180 0.77602 -0.08600
C 	C 	0.98330 0.99630 0.72922 0.07200
C 	C 	0.03930 0.98560 0.70067 -0.10800
H 	H 	0.08480 0.98450 0.71160 0.07800
C 	C 	0.02810 0.97650 0.65630 0.01300
H 	H 	0.06640 0.96790 0.63800 0.02700
C 	C 	0.96090 0.98000 0.63790 -0.07700
H 	H 	0.95450 0.97360 0.60800 0.05700
C 	C 	0.90620 0.99250 0.66436 -0.01500
H 	H 	0.86170 0.99640 0.65220 0.04100
C 	C 	0.91360 0.00030 0.71097 -0.05600
C 	C 	0.85570 0.01040 0.73788 0.08000
H 	H 	0.81130 0.01370 0.72550 -0.01200
C 	C 	0.86260 0.01570 0.78273 -0.24900
C 	C 	0.93090 0.00830 0.80148 0.27100
C 	C 	0.79890 0.02280 0.81024 0.45300
C 	C 	0.03080 0.51100 0.81272 0.47400
C 	C 	0.96580 0.50980 0.83950 -0.25400
C 	C 	0.97080 0.50550 0.88457 0.08000
H 	H 	0.01490 0.50620 0.89750 -0.00500
C 	C 	0.91180 0.50010 0.91110 -0.05200
C 	C 	0.91700 0.48850 0.95650 -0.01900
H 	H 	0.96120 0.48590 0.96920 0.04700
C 	C 	0.85980 0.48100 0.98250 -0.05900
H 	H 	0.86460 0.47280 0.01250 0.05200
C 	C 	0.79330 0.48580 0.96320 0.00800
H 	H 	0.75380 0.48090 0.98080 0.03200
C 	C 	0.78530 0.49720 0.91990 -0.10200
H 	H 	0.74020 0.50190 0.90860 0.07900
C 	C 	0.84390 0.50250 0.89040 0.07200
C 	C 	0.83720 0.50520 0.84423 -0.09000
C 	C 	0.89880 0.50630 0.81968 0.27300
C 	C 	0.76750 0.49700 0.82113 -0.03400
H 	H 	0.76590 0.43660 0.80720 0.05200
H 	H 	0.73110 0.49780 0.84330 0.05700
C 	C 	0.74880 0.56870 0.78706 -0.08300
C 	C 	0.73930 0.54750 0.74187 0.07400
C 	C 	0.74840 0.45700 0.72380 -0.10200
H 	H 	0.76220 0.40850 0.74190 0.07400
C 	C 	0.73720 0.44040 0.68070 0.01300
H 	H 	0.74140 0.38000 0.67030 0.01800
C 	C 	0.71990 0.51050 0.65190 -0.07200
H 	H 	0.71500 0.49800 0.62220 0.05500
C 	C 	0.70990 0.59870 0.66753 -0.02000
H 	H 	0.69700 0.64600 0.64850 0.04400
C 	C 	0.71910 0.61770 0.71223 -0.04300
C 	C 	0.70600 0.70830 0.72826 0.05600
H 	H 	0.69180 0.75480 0.70910 0.02700
C 	C 	0.71400 0.72760 0.77157 -0.22400
C 	C 	0.73450 0.65750 0.80157 0.25600
C 	C 	0.69640 0.82560 0.78667 0.47900
C 	C 	0.13710 0.55950 0.66735 0.35400
C 	C 	0.14020 0.62030 0.62822 -0.17900
C 	C 	0.08390 0.67460 0.61829 0.02000
H 	H 	0.04440 0.67130 0.63600 0.04200
C 	C 	0.08290 0.73520 0.58250 -0.02400
C 	C 	0.02400 0.78680 0.57130 -0.03500
H 	H 	0.98400 0.78230 0.58850 0.04700
C 	C 	0.02350 0.84340 0.53620 -0.05700
H 	H 	0.98410 0.87890 0.53010 0.04800
C 	C 	0.08110 0.84850 0.50950 0.00100
H 	H 	0.07920 0.88540 0.48460 0.03300
C 	C 	0.14250 0.79980 0.51888 -0.10400
H 	H 	0.18120 0.80490 0.50060 0.08900
C 	C 	0.14540 0.74280 0.55638 0.05500
C 	C 	0.20570 0.68760 0.56657 -0.07300
C 	C 	0.20020 0.62370 0.60054 0.22700
C 	C 	0.27380 0.69760 0.54035 -0.08700
H 	H 	0.26300 0.68950 0.50960 0.08000
H 	H 	0.30510 0.64780 0.54880 0.07500
C 	C 	0.31200 0.78790 0.54566 -0.07700
C 	C 	0.34170 0.81550 0.58638 0.07000
C 	C 	0.34080 0.75700 0.62366 -0.12800
H 	H 	0.32050 0.69850 0.62190 0.09800
C 	C 	0.36940 0.78620 0.66185 0.03100
H 	H 	0.36830 0.74700 0.68600 0.02700
C 	C 	0.40050 0.87310 0.66596 -0.08200
H 	H 	0.41810 0.89200 0.69290 0.07600
C 	C 	0.40530 0.93040 0.63090 -0.00900
H 	H 	0.42780 0.98730 0.63350 0.03700
C 	C 	0.37590 0.90300 0.59004 -0.04400
C 	C 	0.37990 0.96040 0.55303 0.04200
H 	H 	0.40100 0.01830 0.55570 0.02800
C 	C 	0.35390 0.93420 0.51337 -0.20000
C 	C 	0.31990 0.84690 0.50965 0.23200
C 	C 	0.36320 0.00020 0.47579 0.40300
