data_crystal

_cell_length_a 19.08920
_cell_length_b 14.38720
_cell_length_c 30.54620
_cell_angle_alpha 90.00000
_cell_angle_beta  90.00000
_cell_angle_gamma 90.00000

_symmetry_space_group_name_	'P 1'
_symmetry_space_group_name_H-M	'P 1'

loop_
_symmetry_equiv_pos_as_xyz
  x,y,z

loop_
_atom_site_label
_atom_site_type_symbol
_atom_site_fract_x
_atom_site_fract_y
_atom_site_fract_z
_atom_site_charge
Yb	Yb	0.14135 0.46269 0.37020 1.50900
O 	O 	0.23722 0.46930 0.41451 -0.50100
O 	O 	0.16678 0.61610 0.38426 -0.42700
O 	O 	0.02943 0.49950 0.39746 -0.43600
O 	O 	0.19032 0.50910 0.30225 -0.42900
O 	O 	0.08231 0.55310 0.31451 -0.38000
O 	O 	0.12145 0.34200 0.41896 -0.47600
Yb	Yb	0.18911 0.52419 0.49444 1.50900
C 	C 	0.19510 0.67030 0.41049 0.42100
C 	C 	0.13570 0.55630 0.29143 0.33800
C 	C 	0.13660 0.31830 0.45722 0.42700
O 	O 	0.16160 0.46680 0.56149 -0.46200
O 	O 	0.30208 0.47790 0.47338 -0.44500
O 	O 	0.21057 0.64850 0.45031 -0.46200
O 	O 	0.08936 0.52110 0.45781 -0.49800
O 	O 	0.16718 0.37000 0.48522 -0.42600
C 	C 	0.21190 0.76600 0.39520 -0.19300
C 	C 	0.13860 0.61790 0.25214 -0.17400
C 	C 	0.11680 0.22200 0.47132 -0.20300
C 	C 	0.23330 0.83800 0.42473 0.22800
C 	C 	0.20380 0.78630 0.35160 0.03100
C 	C 	0.08200 0.67310 0.24328 0.01900
C 	C 	0.19910 0.62090 0.22374 0.23500
C 	C 	0.09590 0.15230 0.44195 0.25100
C 	C 	0.11960 0.20020 0.51556 0.03500
O 	O 	0.24060 0.82080 0.46896 -0.41700
C 	C 	0.24810 0.92710 0.41073 -0.06500
H 	H 	0.18890 0.74010 0.33250 0.03800
C 	C 	0.21760 0.87640 0.33530 -0.02400
C 	C 	0.08240 0.73480 0.20673 -0.02500
H 	H 	0.04280 0.67040 0.26130 0.04300
O 	O 	0.25250 0.56230 0.23193 -0.45300
C 	C 	0.20350 0.68400 0.19017 -0.08000
C 	C 	0.07990 0.06470 0.45521 -0.07400
O 	O 	0.09097 0.17070 0.39825 -0.42900
H 	H 	0.13230 0.24580 0.53560 0.04800
C 	C 	0.10370 0.11110 0.53048 -0.02500
H 	H 	0.25800 0.76930 0.47250 0.25400
C 	C 	0.23840 0.94760 0.36493 0.05600
C 	C 	0.26810 0.99990 0.44411 -0.05000
C 	C 	0.20810 0.89430 0.29045 -0.03600
C 	C 	0.02270 0.78460 0.19560 -0.03300
C 	C 	0.14350 0.73890 0.17974 0.06000
H 	H 	0.24530 0.53490 0.25500 0.28800
C 	C 	0.27120 0.69300 0.16358 -0.08600
C 	C 	0.08540 0.04000 0.50026 0.06500
C 	C 	0.06100 0.99060 0.42019 -0.04700
H 	H 	0.09750 0.22630 0.39400 0.25800
C 	C 	0.10740 0.08870 0.57585 -0.03500
C 	C 	0.24730 0.03870 0.34660 -0.08700
C 	C 	0.33670 0.99060 0.46767 -0.07500
H 	H 	0.26800 0.05970 0.42940 0.05900
H 	H 	0.23130 0.00180 0.46600 0.06100
H 	H 	0.19470 0.84700 0.27150 0.05000
C 	C 	0.21880 0.98220 0.27530 -0.05600
C 	C 	0.02150 0.84070 0.15930 -0.06400
H 	H 	0.98290 0.77990 0.21310 0.04700
C 	C 	0.13950 0.79760 0.14240 -0.11000
C 	C 	0.30990 0.78310 0.16891 -0.07200
H 	H 	0.25990 0.68510 0.13280 0.08000
H 	H 	0.30230 0.64270 0.17180 0.07600
C 	C 	0.07580 0.94800 0.51650 -0.08700
C 	C 	0.98890 0.00180 0.39840 -0.07400
H 	H 	0.09650 0.99210 0.39750 0.06100
H 	H 	0.06290 0.92980 0.43380 0.05700
C 	C 	0.09690 0.00220 0.59060 -0.06100
H 	H 	0.11740 0.13560 0.59580 0.04900
H 	H 	0.26100 0.08730 0.36480 0.07100
C 	C 	0.23640 0.05490 0.30460 -0.00200
C 	C 	0.39880 0.98970 0.44395 0.24900
C 	C 	0.34230 0.99450 0.51431 0.06600
H 	H 	0.21450 0.99460 0.24550 0.05100
C 	C 	0.08050 0.84700 0.13390 0.01200
H 	H 	0.98130 0.87390 0.15210 0.05200
H 	H 	0.17770 0.80210 0.12360 0.09000
C 	C 	0.31870 0.84270 0.13247 0.22800
C 	C 	0.34020 0.81150 0.20833 0.06100
C 	C 	0.08200 0.93100 0.56040 -0.00200
H 	H 	0.06540 0.89980 0.49730 0.07400
C 	C 	0.92880 0.00910 0.42383 0.26100
C 	C 	0.98140 0.99570 0.35223 0.06100
H 	H 	0.09940 0.98930 0.62040 0.05000
H 	H 	0.24030 0.11530 0.29410 0.02700
O 	O 	0.39317 0.99230 0.39920 -0.43000
C 	C 	0.46590 0.98920 0.46441 -0.21900
C 	C 	0.40980 0.99650 0.53489 -0.04100
C 	C 	0.28250 0.99870 0.54300 -0.10400
H 	H 	0.08000 0.88670 0.10990 0.03000
C 	C 	0.35230 0.93010 0.13583 -0.19200
O 	O 	0.29160 0.81420 0.09310 -0.43500
C 	C 	0.33960 0.75200 0.24669 -0.11700
C 	C 	0.37450 0.89920 0.21289 -0.03600
H 	H 	0.07630 0.87060 0.57060 0.03300
O 	O 	0.93662 0.00760 0.46778 -0.43600
C 	C 	0.86140 0.01770 0.40447 -0.22500
C 	C 	0.91350 0.00170 0.33355 -0.03900
C 	C 	0.03940 0.98470 0.32280 -0.09300
H 	H 	0.43190 0.98440 0.38820 0.28200
C 	C 	0.53160 0.98830 0.43796 0.42900
C 	C 	0.46870 0.99310 0.50935 0.05900
C 	C 	0.41380 0.00540 0.58136 -0.01900
H 	H 	0.23770 0.99560 0.53110 0.08000
C 	C 	0.28960 0.00700 0.58610 0.01800
C 	C 	0.37900 0.95530 0.17583 0.03400
C 	C 	0.36150 0.99580 0.09818 0.39200
H 	H 	0.29240 0.85770 0.07570 0.27700
H 	H 	0.31900 0.69350 0.24520 0.09300
C 	C 	0.36880 0.78140 0.28450 0.02200
C 	C 	0.40340 0.92570 0.25400 -0.01700
H 	H 	0.89810 0.01110 0.47950 0.28400
C 	C 	0.85490 0.01210 0.35999 0.06000
C 	C 	0.79730 0.02590 0.43186 0.40900
C 	C 	0.90580 0.99400 0.28620 -0.03100
C 	C 	0.02780 0.97570 0.27830 -0.00100
H 	H 	0.08490 0.98360 0.33370 0.07300
H 	H 	0.51230 0.99350 0.52290 0.01200
H 	H 	0.45740 0.00740 0.59480 0.04800
C 	C 	0.35460 0.01110 0.60650 -0.07200
H 	H 	0.24940 0.01010 0.60330 0.02800
H 	H 	0.40120 0.01260 0.17830 0.03400
O 	O 	0.38950 0.07030 0.10354 -0.31300
H 	H 	0.36780 0.74170 0.30850 0.03000
C 	C 	0.40050 0.86820 0.28940 -0.07400
H 	H 	0.42480 0.98340 0.25670 0.04200
H 	H 	0.81070 0.01540 0.34730 0.00100
C 	C 	0.96100 0.98070 0.26020 -0.06000
H 	H 	0.86140 0.99850 0.27390 0.04800
H 	H 	0.06580 0.96590 0.25980 0.03300
H 	H 	0.35780 0.01770 0.63670 0.06200
H 	H 	0.41910 0.88640 0.31620 0.07200
H 	H 	0.95490 0.97480 0.23010 0.05200
Yb	Yb	0.85865 0.53731 0.87020 1.50800
O 	O 	0.76278 0.53070 0.91451 -0.50200
O 	O 	0.83322 0.38390 0.88426 -0.42800
O 	O 	0.97057 0.50050 0.89746 -0.43800
O 	O 	0.80968 0.49090 0.80225 -0.42900
O 	O 	0.91769 0.44690 0.81451 -0.38000
O 	O 	0.87855 0.65800 0.91896 -0.47700
Yb	Yb	0.81089 0.47581 0.99444 1.50700
C 	C 	0.80490 0.32970 0.91049 0.42200
C 	C 	0.86430 0.44370 0.79143 0.33800
C 	C 	0.86340 0.68170 0.95722 0.43200
O 	O 	0.83840 0.53320 0.06149 -0.45800
O 	O 	0.69792 0.52210 0.97338 -0.44700
O 	O 	0.78943 0.35150 0.95031 -0.46300
O 	O 	0.91064 0.47890 0.95781 -0.50100
O 	O 	0.83282 0.63000 0.98522 -0.43000
C 	C 	0.78810 0.23400 0.89520 -0.19400
C 	C 	0.86140 0.38210 0.75214 -0.17400
C 	C 	0.88320 0.77800 0.97132 -0.21800
C 	C 	0.76670 0.16200 0.92473 0.23000
C 	C 	0.79620 0.21370 0.85160 0.03300
C 	C 	0.91800 0.32690 0.74328 0.01900
C 	C 	0.80090 0.37910 0.72374 0.23500
C 	C 	0.90410 0.84770 0.94195 0.25800
C 	C 	0.88040 0.79980 0.01556 0.05300
O 	O 	0.75940 0.17920 0.96896 -0.42000
C 	C 	0.75190 0.07290 0.91073 -0.07000
H 	H 	0.81110 0.25990 0.83250 0.03700
C 	C 	0.78240 0.12360 0.83530 -0.02600
C 	C 	0.91760 0.26520 0.70673 -0.02500
H 	H 	0.95720 0.32960 0.76130 0.04300
O 	O 	0.74750 0.43770 0.73193 -0.45300
C 	C 	0.79650 0.31600 0.69017 -0.08000
C 	C 	0.92010 0.93530 0.95521 -0.08500
O 	O 	0.90903 0.82930 0.89825 -0.43100
H 	H 	0.86770 0.75420 0.03560 0.04400
C 	C 	0.89630 0.88890 0.03048 -0.03100
H 	H 	0.74200 0.23070 0.97250 0.25400
C 	C 	0.76160 0.05240 0.86493 0.05800
C 	C 	0.73190 0.00010 0.94411 -0.03700
C 	C 	0.79190 0.10570 0.79045 -0.03500
C 	C 	0.97730 0.21540 0.69560 -0.03200
C 	C 	0.85650 0.26110 0.67974 0.06000
H 	H 	0.75470 0.46510 0.75500 0.28800
C 	C 	0.72880 0.30700 0.66358 -0.08600
C 	C 	0.91460 0.96000 0.00026 0.07200
C 	C 	0.93900 0.00940 0.92019 -0.04300
H 	H 	0.90250 0.77370 0.89400 0.25900
C 	C 	0.89260 0.91130 0.07585 -0.03300
C 	C 	0.75270 0.96130 0.84660 -0.08900
C 	C 	0.66330 0.00940 0.96767 -0.09500
H 	H 	0.73200 0.94030 0.92940 0.05500
H 	H 	0.76870 0.99820 0.96600 0.05400
H 	H 	0.80530 0.15300 0.77150 0.04900
C 	C 	0.78120 0.01780 0.77530 -0.05700
C 	C 	0.97850 0.15930 0.65930 -0.06400
H 	H 	0.01710 0.22010 0.71310 0.04700
C 	C 	0.86050 0.20240 0.64240 -0.11000
C 	C 	0.69010 0.21690 0.66891 -0.07300
H 	H 	0.74010 0.31490 0.63280 0.08000
H 	H 	0.69770 0.35730 0.67180 0.07600
C 	C 	0.92420 0.05200 0.01650 -0.07000
C 	C 	0.01110 0.99820 0.89840 -0.07600
H 	H 	0.90350 0.00790 0.89750 0.06000
H 	H 	0.93710 0.07020 0.93380 0.05500
C 	C 	0.90310 0.99780 0.09060 -0.05900
H 	H 	0.88260 0.86440 0.09580 0.04900
H 	H 	0.73900 0.91270 0.86480 0.07100
C 	C 	0.76360 0.94510 0.80460 0.00000
C 	C 	0.60120 0.01030 0.94395 0.26100
C 	C 	0.65770 0.00550 0.01431 0.09000
H 	H 	0.78550 0.00540 0.74550 0.05200
C 	C 	0.91950 0.15300 0.63390 0.01200
H 	H 	0.01870 0.12610 0.65210 0.05100
H 	H 	0.82230 0.19790 0.62360 0.09000
C 	C 	0.68130 0.15730 0.63247 0.22900
C 	C 	0.65980 0.18850 0.70833 0.06200
C 	C 	0.91800 0.06900 0.06040 -0.00900
H 	H 	0.93460 0.10020 0.99730 0.06300
C 	C 	0.07120 0.99090 0.92383 0.26200
C 	C 	0.01860 0.00430 0.85223 0.06200
H 	H 	0.90060 0.01070 0.12040 0.05000
H 	H 	0.75970 0.88470 0.79410 0.02600
O 	O 	0.60683 0.00770 0.89920 -0.43300
C 	C 	0.53410 0.01080 0.96441 -0.23900
C 	C 	0.59020 0.00350 0.03489 -0.05800
C 	C 	0.71750 0.00130 0.04300 -0.12000
H 	H 	0.92000 0.11330 0.60990 0.02900
C 	C 	0.64770 0.06990 0.63583 -0.19300
O 	O 	0.70840 0.18580 0.59310 -0.43500
C 	C 	0.66040 0.24800 0.74669 -0.11700
C 	C 	0.62550 0.10080 0.71289 -0.03700
H 	H 	0.92370 0.12940 0.07060 0.03700
O 	O 	0.06338 0.99240 0.96778 -0.43800
C 	C 	0.13860 0.98230 0.90447 -0.22600
C 	C 	0.08650 0.99830 0.83355 -0.03900
C 	C 	0.96060 0.01530 0.82280 -0.09300
H 	H 	0.56810 0.01560 0.88820 0.28400
C 	C 	0.46840 0.01170 0.93796 0.43500
C 	C 	0.53130 0.00690 0.00935 0.08600
C 	C 	0.58620 0.99460 0.08136 -0.00300
H 	H 	0.76230 0.00440 0.03110 0.08800
C 	C 	0.71040 0.99300 0.08610 0.03300
C 	C 	0.62100 0.04470 0.67583 0.03500
C 	C 	0.63850 0.00420 0.59818 0.39300
H 	H 	0.70760 0.14230 0.57570 0.27500
H 	H 	0.68100 0.30650 0.74520 0.09300
C 	C 	0.63120 0.21860 0.78450 0.02200
C 	C 	0.59660 0.07430 0.75400 -0.01600
H 	H 	0.10190 0.98890 0.97950 0.28300
C 	C 	0.14510 0.98790 0.85999 0.06100
C 	C 	0.20270 0.97410 0.93186 0.40900
C 	C 	0.09420 0.00600 0.78620 -0.03000
C 	C 	0.97220 0.02430 0.77830 -0.00000
H 	H 	0.91510 0.01640 0.83370 0.07400
H 	H 	0.48770 0.00650 0.02290 0.00500
H 	H 	0.54260 0.99260 0.09480 0.04300
C 	C 	0.64540 0.98890 0.10650 -0.08600
H 	H 	0.75060 0.98990 0.10330 0.02300
H 	H 	0.59880 0.98740 0.67830 0.03300
O 	O 	0.61050 0.92970 0.60354 -0.31600
H 	H 	0.63220 0.25830 0.80850 0.03000
C 	C 	0.59950 0.13180 0.78940 -0.07500
H 	H 	0.57520 0.01660 0.75670 0.04200
H 	H 	0.18930 0.98460 0.84730 0.00100
C 	C 	0.03900 0.01930 0.76020 -0.06100
H 	H 	0.13860 0.00150 0.77390 0.04700
H 	H 	0.93420 0.03410 0.75980 0.03200
H 	H 	0.64220 0.98230 0.13670 0.06700
H 	H 	0.58090 0.11360 0.81620 0.07200
H 	H 	0.04510 0.02520 0.73010 0.05200
Yb	Yb	0.64135 0.03731 0.37020 1.50800
O 	O 	0.73722 0.03070 0.41451 -0.50100
O 	O 	0.66678 0.88390 0.38426 -0.42800
O 	O 	0.52943 0.00050 0.39746 -0.43600
O 	O 	0.69032 0.99090 0.30225 -0.42900
O 	O 	0.58231 0.94690 0.31451 -0.38000
O 	O 	0.62145 0.15800 0.41896 -0.47600
Yb	Yb	0.68911 0.97581 0.49444 1.50900
C 	C 	0.69510 0.82970 0.41049 0.42100
C 	C 	0.63570 0.94370 0.29143 0.33800
C 	C 	0.63660 0.18170 0.45722 0.42700
O 	O 	0.66160 0.03320 0.56149 -0.46200
O 	O 	0.80208 0.02210 0.47338 -0.44500
O 	O 	0.71057 0.85150 0.45031 -0.46200
O 	O 	0.58936 0.97890 0.45781 -0.49800
O 	O 	0.66718 0.13000 0.48522 -0.42500
C 	C 	0.71190 0.73400 0.39520 -0.19300
C 	C 	0.63860 0.88210 0.25214 -0.17400
C 	C 	0.61680 0.27800 0.47132 -0.20300
C 	C 	0.73330 0.66200 0.42473 0.22800
C 	C 	0.70380 0.71370 0.35160 0.03100
C 	C 	0.58200 0.82690 0.24328 0.01900
C 	C 	0.69910 0.87910 0.22374 0.23500
C 	C 	0.59590 0.34770 0.44195 0.25100
C 	C 	0.61960 0.29980 0.51556 0.03400
O 	O 	0.74060 0.67920 0.46896 -0.41700
C 	C 	0.74810 0.57290 0.41073 -0.06500
H 	H 	0.68890 0.75990 0.33250 0.03800
C 	C 	0.71760 0.62360 0.33530 -0.02400
C 	C 	0.58240 0.76520 0.20673 -0.02500
H 	H 	0.54280 0.82960 0.26130 0.04300
O 	O 	0.75250 0.93770 0.23193 -0.45300
C 	C 	0.70350 0.81600 0.19017 -0.08000
C 	C 	0.57990 0.43530 0.45521 -0.07400
O 	O 	0.59097 0.32930 0.39825 -0.42900
H 	H 	0.63230 0.25420 0.53560 0.04800
C 	C 	0.60370 0.38890 0.53048 -0.02400
H 	H 	0.75800 0.73070 0.47250 0.25400
C 	C 	0.73840 0.55240 0.36493 0.05500
C 	C 	0.76810 0.50010 0.44411 -0.05100
C 	C 	0.70810 0.60570 0.29045 -0.03600
C 	C 	0.52270 0.71540 0.19560 -0.03200
C 	C 	0.64350 0.76110 0.17974 0.06000
H 	H 	0.74530 0.96510 0.25500 0.28800
C 	C 	0.77120 0.80700 0.16358 -0.08600
C 	C 	0.58540 0.46000 0.50026 0.06500
C 	C 	0.56100 0.50940 0.42019 -0.04600
H 	H 	0.59750 0.27370 0.39400 0.25800
C 	C 	0.60740 0.41130 0.57585 -0.03600
C 	C 	0.74730 0.46130 0.34660 -0.08700
C 	C 	0.83670 0.50940 0.46767 -0.07400
H 	H 	0.76800 0.44030 0.42940 0.06000
H 	H 	0.73130 0.49820 0.46600 0.06100
H 	H 	0.69470 0.65300 0.27150 0.04900
C 	C 	0.71880 0.51780 0.27530 -0.05700
C 	C 	0.52150 0.65930 0.15930 -0.06600
H 	H 	0.48290 0.72010 0.21310 0.04700
C 	C 	0.63950 0.70240 0.14240 -0.11100
C 	C 	0.80990 0.71690 0.16891 -0.07200
H 	H 	0.75990 0.81490 0.13280 0.08000
H 	H 	0.80230 0.85730 0.17180 0.07600
C 	C 	0.57580 0.55200 0.51650 -0.08700
C 	C 	0.48890 0.49820 0.39840 -0.07800
H 	H 	0.59650 0.50790 0.39750 0.06000
H 	H 	0.56290 0.57020 0.43380 0.05700
C 	C 	0.59690 0.49780 0.59060 -0.05900
H 	H 	0.61740 0.36440 0.59580 0.05000
H 	H 	0.76100 0.41270 0.36480 0.07100
C 	C 	0.73640 0.44510 0.30460 -0.00100
C 	C 	0.89880 0.51030 0.44395 0.24900
C 	C 	0.84230 0.50550 0.51431 0.06600
H 	H 	0.71450 0.50540 0.24550 0.05100
C 	C 	0.58050 0.65300 0.13390 0.01300
H 	H 	0.48130 0.62610 0.15210 0.05300
H 	H 	0.67770 0.69790 0.12360 0.09000
C 	C 	0.81870 0.65730 0.13247 0.22800
C 	C 	0.84020 0.68850 0.20833 0.06100
C 	C 	0.58200 0.56900 0.56040 -0.00400
H 	H 	0.56540 0.60020 0.49730 0.07400
C 	C 	0.42880 0.49090 0.42383 0.26300
C 	C 	0.48140 0.50430 0.35223 0.06700
H 	H 	0.59940 0.51070 0.62040 0.04900
H 	H 	0.74030 0.38470 0.29410 0.02700
O 	O 	0.89317 0.50770 0.39920 -0.43000
C 	C 	0.96590 0.51080 0.46441 -0.21900
C 	C 	0.90980 0.50350 0.53489 -0.04000
C 	C 	0.78250 0.50130 0.54300 -0.10300
H 	H 	0.58000 0.61330 0.10990 0.03000
C 	C 	0.85230 0.56990 0.13583 -0.19100
O 	O 	0.79160 0.68580 0.09310 -0.43500
C 	C 	0.83960 0.74800 0.24669 -0.11700
C 	C 	0.87450 0.60080 0.21289 -0.03600
H 	H 	0.57630 0.62940 0.57060 0.03400
O 	O 	0.43662 0.49240 0.46778 -0.43700
C 	C 	0.36140 0.48230 0.40447 -0.22700
C 	C 	0.41350 0.49830 0.33355 -0.04400
C 	C 	0.53940 0.51530 0.32280 -0.09700
H 	H 	0.93190 0.51560 0.38820 0.28200
C 	C 	0.03160 0.51170 0.43796 0.43000
C 	C 	0.96870 0.50690 0.50935 0.05800
C 	C 	0.91380 0.49460 0.58136 -0.02000
H 	H 	0.73770 0.50440 0.53110 0.07900
C 	C 	0.78960 0.49300 0.58610 0.01700
C 	C 	0.87900 0.54470 0.17583 0.03200
C 	C 	0.86150 0.50420 0.09818 0.39100
H 	H 	0.79240 0.64230 0.07570 0.27700
H 	H 	0.81900 0.80650 0.24520 0.09200
C 	C 	0.86880 0.71860 0.28450 0.02200
C 	C 	0.90340 0.57430 0.25400 -0.01700
H 	H 	0.39810 0.48890 0.47950 0.28400
C 	C 	0.35490 0.48790 0.35999 0.06300
C 	C 	0.29730 0.47410 0.43186 0.40900
C 	C 	0.40580 0.50600 0.28620 -0.02600
C 	C 	0.52780 0.52430 0.27830 0.00100
H 	H 	0.58490 0.51640 0.33370 0.07500
H 	H 	0.01230 0.50650 0.52290 0.01200
H 	H 	0.95740 0.49260 0.59480 0.04800
C 	C 	0.85460 0.48890 0.60650 -0.07100
H 	H 	0.74940 0.48990 0.60330 0.02800
H 	H 	0.90120 0.48740 0.17830 0.03400
O 	O 	0.88950 0.42970 0.10354 -0.31300
H 	H 	0.86780 0.75830 0.30850 0.03000
C 	C 	0.90050 0.63180 0.28940 -0.07400
H 	H 	0.92480 0.51660 0.25670 0.04200
H 	H 	0.31070 0.48460 0.34730 0.00000
C 	C 	0.46100 0.51930 0.26020 -0.06300
H 	H 	0.36140 0.50150 0.27390 0.04600
H 	H 	0.56580 0.53410 0.25980 0.03200
H 	H 	0.85780 0.48230 0.63670 0.06200
H 	H 	0.91910 0.61360 0.31620 0.07200
H 	H 	0.45490 0.52520 0.23010 0.05300
Yb	Yb	0.35865 0.96269 0.87020 1.50800
O 	O 	0.26278 0.96930 0.91451 -0.50100
O 	O 	0.33322 0.11610 0.88426 -0.42800
O 	O 	0.47057 0.99950 0.89746 -0.43800
O 	O 	0.30968 0.00910 0.80225 -0.42900
O 	O 	0.41769 0.05310 0.81451 -0.38000
O 	O 	0.37855 0.84200 0.91896 -0.47700
Yb	Yb	0.31089 0.02419 0.99444 1.50600
C 	C 	0.30490 0.17030 0.91049 0.42200
C 	C 	0.36430 0.05630 0.79143 0.33800
C 	C 	0.36340 0.81830 0.95722 0.43200
O 	O 	0.33840 0.96680 0.06149 -0.45800
O 	O 	0.19792 0.97790 0.97338 -0.44600
O 	O 	0.28943 0.14850 0.95031 -0.46300
O 	O 	0.41064 0.02110 0.95781 -0.50100
O 	O 	0.33282 0.87000 0.98522 -0.43000
C 	C 	0.28810 0.26600 0.89520 -0.19400
C 	C 	0.36140 0.11790 0.75214 -0.17400
C 	C 	0.38320 0.72200 0.97132 -0.21800
C 	C 	0.26670 0.33800 0.92473 0.23000
C 	C 	0.29620 0.28630 0.85160 0.03300
C 	C 	0.41800 0.17310 0.74328 0.01900
C 	C 	0.30090 0.12090 0.72374 0.23500
C 	C 	0.40410 0.65230 0.94195 0.25800
C 	C 	0.38040 0.70020 0.01556 0.05300
O 	O 	0.25940 0.32080 0.96896 -0.42000
C 	C 	0.25190 0.42710 0.91073 -0.07000
H 	H 	0.31110 0.24010 0.83250 0.03700
C 	C 	0.28240 0.37640 0.83530 -0.02600
C 	C 	0.41760 0.23480 0.70673 -0.02500
H 	H 	0.45720 0.17040 0.76130 0.04300
O 	O 	0.24750 0.06230 0.73193 -0.45300
C 	C 	0.29650 0.18400 0.69017 -0.08000
C 	C 	0.42010 0.56470 0.95521 -0.08600
O 	O 	0.40903 0.67070 0.89825 -0.43100
H 	H 	0.36770 0.74580 0.03560 0.04400
C 	C 	0.39630 0.61110 0.03048 -0.03000
H 	H 	0.24200 0.26930 0.97250 0.25400
C 	C 	0.26160 0.44760 0.86493 0.05800
C 	C 	0.23190 0.49990 0.94411 -0.03700
C 	C 	0.29190 0.39430 0.79045 -0.03400
C 	C 	0.47730 0.28460 0.69560 -0.03200
C 	C 	0.35650 0.23890 0.67974 0.06000
H 	H 	0.25470 0.03490 0.75500 0.28800
C 	C 	0.22880 0.19300 0.66358 -0.08600
C 	C 	0.41460 0.54000 0.00026 0.07300
C 	C 	0.43900 0.49060 0.92019 -0.04000
H 	H 	0.40250 0.72630 0.89400 0.25900
C 	C 	0.39260 0.58870 0.07585 -0.03400
C 	C 	0.25270 0.53870 0.84660 -0.08900
C 	C 	0.16330 0.49060 0.96767 -0.09400
H 	H 	0.23200 0.55970 0.92940 0.05500
H 	H 	0.26870 0.50180 0.96600 0.05500
H 	H 	0.30530 0.34700 0.77150 0.04900
C 	C 	0.28120 0.48220 0.77530 -0.05900
C 	C 	0.47850 0.34070 0.65930 -0.06700
H 	H 	0.51710 0.27990 0.71310 0.04700
C 	C 	0.36050 0.29760 0.64240 -0.11100
C 	C 	0.19010 0.28310 0.66891 -0.07300
H 	H 	0.24010 0.18510 0.63280 0.08000
H 	H 	0.19770 0.14270 0.67180 0.07600
C 	C 	0.42420 0.44800 0.01650 -0.07100
C 	C 	0.51110 0.50180 0.89840 -0.08100
H 	H 	0.40350 0.49210 0.89750 0.05900
H 	H 	0.43710 0.42980 0.93380 0.05400
C 	C 	0.40310 0.50220 0.09060 -0.05600
H 	H 	0.38260 0.63560 0.09580 0.05000
H 	H 	0.23900 0.58730 0.86480 0.07200
C 	C 	0.26360 0.55490 0.80460 0.00100
C 	C 	0.10120 0.48970 0.94395 0.26000
C 	C 	0.15770 0.49450 0.01431 0.08900
H 	H 	0.28550 0.49460 0.74550 0.05200
C 	C 	0.41950 0.34700 0.63390 0.01300
H 	H 	0.51870 0.37390 0.65210 0.05300
H 	H 	0.32230 0.30210 0.62360 0.09000
C 	C 	0.18130 0.34270 0.63247 0.22800
C 	C 	0.15980 0.31150 0.70833 0.06100
C 	C 	0.41800 0.43100 0.06040 -0.01100
H 	H 	0.43460 0.39980 0.99730 0.06300
C 	C 	0.57120 0.50910 0.92383 0.26400
C 	C 	0.51860 0.49570 0.85223 0.06900
H 	H 	0.40060 0.48930 0.12040 0.04800
H 	H 	0.25970 0.61530 0.79410 0.02600
O 	O 	0.10683 0.49230 0.89920 -0.43300
C 	C 	0.03410 0.48920 0.96441 -0.23800
C 	C 	0.09020 0.49650 0.03489 -0.05800
C 	C 	0.21750 0.49870 0.04300 -0.12000
H 	H 	0.42000 0.38670 0.60990 0.02900
C 	C 	0.14770 0.43010 0.63583 -0.19200
O 	O 	0.20840 0.31420 0.59310 -0.43500
C 	C 	0.16040 0.25200 0.74669 -0.11700
C 	C 	0.12550 0.39920 0.71289 -0.03600
H 	H 	0.42370 0.37060 0.07060 0.03800
O 	O 	0.56338 0.50760 0.96778 -0.43900
C 	C 	0.63860 0.51770 0.90447 -0.22900
C 	C 	0.58650 0.50170 0.83355 -0.04500
C 	C 	0.46060 0.48470 0.82280 -0.09800
H 	H 	0.06810 0.48440 0.88820 0.28400
C 	C 	0.96840 0.48830 0.93796 0.43600
C 	C 	0.03130 0.49310 0.00935 0.08400
C 	C 	0.08620 0.50540 0.08136 -0.00400
H 	H 	0.26230 0.49560 0.03110 0.08800
C 	C 	0.21040 0.50700 0.08610 0.03400
C 	C 	0.12100 0.45530 0.67583 0.03300
C 	C 	0.13850 0.49580 0.59818 0.39200
H 	H 	0.20760 0.35770 0.57570 0.27500
H 	H 	0.18100 0.19350 0.74520 0.09200
C 	C 	0.13120 0.28140 0.78450 0.02200
C 	C 	0.09660 0.42570 0.75400 -0.01700
H 	H 	0.60190 0.51110 0.97950 0.28300
C 	C 	0.64510 0.51210 0.85999 0.06400
C 	C 	0.70270 0.52590 0.93186 0.41000
C 	C 	0.59420 0.49400 0.78620 -0.02500
C 	C 	0.47220 0.47570 0.77830 0.00200
H 	H 	0.41510 0.48360 0.83370 0.07500
H 	H 	0.98770 0.49350 0.02290 0.00600
H 	H 	0.04260 0.50740 0.09480 0.04300
C 	C 	0.14540 0.51110 0.10650 -0.08700
H 	H 	0.25060 0.51010 0.10330 0.02300
H 	H 	0.09880 0.51260 0.67830 0.03400
O 	O 	0.11050 0.57030 0.60354 -0.31500
H 	H 	0.13220 0.24170 0.80850 0.03000
C 	C 	0.09950 0.36820 0.78940 -0.07400
H 	H 	0.07520 0.48340 0.75670 0.04200
H 	H 	0.68930 0.51540 0.84730 -0.00000
C 	C 	0.53900 0.48070 0.76020 -0.06300
H 	H 	0.63860 0.49850 0.77390 0.04600
H 	H 	0.43420 0.46590 0.75980 0.03100
H 	H 	0.14220 0.51770 0.13670 0.06700
H 	H 	0.08090 0.38640 0.81620 0.07200
H 	H 	0.54510 0.47480 0.73010 0.05300
