data_crystal

_cell_length_a 22.73900
_cell_length_b 16.03800
_cell_length_c 9.70460
_cell_angle_alpha 90.00000
_cell_angle_beta  94.00000
_cell_angle_gamma 90.00000

_symmetry_space_group_name_	'P 1'
_symmetry_space_group_name_H-M	'P 1'

loop_
_symmetry_equiv_pos_as_xyz
  x,y,z

loop_
_atom_site_label
_atom_site_type_symbol
_atom_site_fract_x
_atom_site_fract_y
_atom_site_fract_z
_atom_site_charge
S 	S 	0.85887 0.41436 0.51029 -0.00700
S 	S 	0.83504 0.52186 0.60011 -0.01300
C 	C 	0.94271 0.17428 0.95320 0.48400
C 	C 	0.91742 0.23548 0.84820 -0.15200
C 	C 	0.92404 0.22312 0.70840 0.10900
H 	H 	0.94230 0.17310 0.68060 0.05200
C 	C 	0.87936 0.34745 0.65190 0.12100
C 	C 	0.86874 0.36390 0.78820 -0.14400
H 	H 	0.84830 0.41280 0.81260 0.10600
C 	C 	0.88878 0.30700 0.88720 0.10400
H 	H 	0.88290 0.31680 0.98180 0.04000
C 	C 	0.75979 0.50632 0.63660 0.11200
C 	C 	0.67161 0.43460 0.62070 0.10000
H 	H 	0.64790 0.39020 0.58350 0.01000
C 	C 	0.64728 0.49124 0.70780 -0.16100
C 	C 	0.68170 0.55748 0.75590 0.10600
H 	H 	0.66590 0.59730 0.81560 0.02600
C 	C 	0.73833 0.56642 0.71850 -0.15500
H 	H 	0.76180 0.61290 0.74850 0.10400
C 	C 	0.58634 0.47708 0.75340 0.40100
N 	N 	0.90603 0.27815 0.61140 -0.13300
N 	N 	0.72850 0.44048 0.58650 -0.13500
O 	O 	0.96720 0.11114 0.90780 -0.39000
O 	O 	0.93914 0.19244 0.07800 -0.50500
O 	O 	0.55214 0.43310 0.67117 -0.56000
O 	O 	0.57422 0.50641 0.86684 -0.40700
S 	S 	0.35887 0.91436 0.51029 0.01000
S 	S 	0.33504 0.02186 0.60011 -0.07100
C 	C 	0.44271 0.67428 0.95320 0.49700
C 	C 	0.41742 0.73548 0.84820 -0.18200
C 	C 	0.42404 0.72312 0.70840 0.10800
H 	H 	0.44230 0.67310 0.68060 0.01900
C 	C 	0.37936 0.84745 0.65190 0.11500
C 	C 	0.36874 0.86390 0.78820 -0.15700
H 	H 	0.34830 0.91280 0.81260 0.12000
C 	C 	0.38878 0.80700 0.88720 0.11000
H 	H 	0.38290 0.81680 0.98180 0.02900
C 	C 	0.25979 0.00632 0.63660 0.05000
C 	C 	0.17161 0.93460 0.62070 0.08100
H 	H 	0.14790 0.89020 0.58350 0.01500
C 	C 	0.14728 0.99124 0.70780 -0.08600
C 	C 	0.18170 0.05748 0.75590 -0.00100
H 	H 	0.16590 0.09730 0.81560 0.05700
C 	C 	0.23833 0.06642 0.71850 -0.09400
H 	H 	0.26180 0.11290 0.74850 0.08100
C 	C 	0.08634 0.97708 0.75340 0.45000
N 	N 	0.40603 0.77815 0.61140 -0.15200
N 	N 	0.22850 0.94048 0.58650 -0.09900
O 	O 	0.46720 0.61114 0.90780 -0.45700
O 	O 	0.43914 0.69244 0.07800 -0.55700
O 	O 	0.05214 0.93310 0.67117 -0.59700
O 	O 	0.07422 0.00641 0.86684 -0.48000
S 	S 	0.14113 0.41436 0.98971 -0.00900
S 	S 	0.16496 0.52186 0.89989 -0.03100
C 	C 	0.05729 0.17428 0.54680 0.41300
C 	C 	0.08258 0.23548 0.65180 -0.18900
C 	C 	0.07596 0.22312 0.79160 0.08900
H 	H 	0.05770 0.17310 0.81940 -0.00200
C 	C 	0.12064 0.34745 0.84810 0.10000
C 	C 	0.13126 0.36390 0.71180 -0.16400
H 	H 	0.15170 0.41280 0.68740 0.08900
C 	C 	0.11122 0.30700 0.61280 0.08700
H 	H 	0.11710 0.31680 0.51820 -0.00300
C 	C 	0.24021 0.50632 0.86340 0.12400
C 	C 	0.32839 0.43460 0.87930 0.10500
H 	H 	0.35210 0.39020 0.91650 0.02700
C 	C 	0.35272 0.49124 0.79220 -0.16200
C 	C 	0.31830 0.55748 0.74410 0.10800
H 	H 	0.33410 0.59730 0.68440 0.01400
C 	C 	0.26167 0.56642 0.78150 -0.16200
H 	H 	0.23820 0.61290 0.75150 0.09700
C 	C 	0.41366 0.47708 0.74660 0.40400
N 	N 	0.09397 0.27815 0.88860 -0.15300
N 	N 	0.27150 0.44048 0.91350 -0.12500
O 	O 	0.03280 0.11114 0.59220 -0.52200
O 	O 	0.06086 0.19244 0.42200 -0.52500
O 	O 	0.44786 0.43310 0.82883 -0.54300
O 	O 	0.42578 0.50641 0.63316 -0.43400
S 	S 	0.64113 0.91436 0.98971 0.05300
S 	S 	0.66496 0.02186 0.89989 -0.05300
C 	C 	0.55729 0.67428 0.54680 0.41500
C 	C 	0.58258 0.73548 0.65180 -0.16200
C 	C 	0.57596 0.72312 0.79160 0.09700
H 	H 	0.55770 0.67310 0.81940 0.02900
C 	C 	0.62064 0.84745 0.84810 0.10700
C 	C 	0.63126 0.86390 0.71180 -0.14800
H 	H 	0.65170 0.91280 0.68740 0.10200
C 	C 	0.61122 0.80700 0.61280 0.09000
H 	H 	0.61710 0.81680 0.51820 0.00900
C 	C 	0.74021 0.00632 0.86340 0.05600
C 	C 	0.82839 0.93460 0.87930 0.07600
H 	H 	0.85210 0.89020 0.91650 0.04100
C 	C 	0.85272 0.99124 0.79220 -0.07700
C 	C 	0.81830 0.05748 0.74410 -0.00400
H 	H 	0.83410 0.09730 0.68440 0.04600
C 	C 	0.76167 0.06642 0.78150 -0.09600
H 	H 	0.73820 0.11290 0.75150 0.07500
C 	C 	0.91366 0.97708 0.74660 0.42200
N 	N 	0.59397 0.77815 0.88860 -0.13700
N 	N 	0.77150 0.94048 0.91350 -0.09000
O 	O 	0.53280 0.61114 0.59220 -0.45800
O 	O 	0.56086 0.69244 0.42200 -0.49200
O 	O 	0.94786 0.93310 0.82883 -0.46200
O 	O 	0.92578 0.00641 0.63316 -0.42800
S 	S 	0.14113 0.58564 0.48971 -0.05100
S 	S 	0.16496 0.47814 0.39989 -0.07000
C 	C 	0.05729 0.82572 0.04680 0.32600
C 	C 	0.08258 0.76452 0.15180 -0.16200
C 	C 	0.07596 0.77688 0.29160 0.07200
H 	H 	0.05770 0.82690 0.31940 0.00100
C 	C 	0.12064 0.65255 0.34810 0.09500
C 	C 	0.13126 0.63610 0.21180 -0.16100
H 	H 	0.15170 0.58720 0.18740 0.07400
C 	C 	0.11122 0.69300 0.11280 0.06300
H 	H 	0.11710 0.68320 0.01820 -0.01700
C 	C 	0.24021 0.49368 0.36340 0.11800
C 	C 	0.32839 0.56540 0.37930 0.10000
H 	H 	0.35210 0.60980 0.41650 0.00700
C 	C 	0.35272 0.50876 0.29220 -0.17900
C 	C 	0.31830 0.44252 0.24410 0.10500
H 	H 	0.33410 0.40270 0.18440 0.00100
C 	C 	0.26167 0.43358 0.28150 -0.17400
H 	H 	0.23820 0.38710 0.25150 0.08300
C 	C 	0.41366 0.52292 0.24660 0.40900
N 	N 	0.09397 0.72185 0.38860 -0.16100
N 	N 	0.27150 0.55952 0.41350 -0.13800
O 	O 	0.03280 0.88886 0.09220 -0.48100
O 	O 	0.06086 0.80756 0.92200 -0.44000
O 	O 	0.44786 0.56690 0.32883 -0.56600
O 	O 	0.42578 0.49359 0.13316 -0.45700
S 	S 	0.64113 0.08564 0.48971 -0.06900
S 	S 	0.66496 0.97814 0.39989 -0.01200
C 	C 	0.55729 0.32572 0.04680 0.32600
C 	C 	0.58258 0.26452 0.15180 -0.14100
C 	C 	0.57596 0.27688 0.29160 0.07800
H 	H 	0.55770 0.32690 0.31940 0.02900
C 	C 	0.62064 0.15255 0.34810 0.10100
C 	C 	0.63126 0.13610 0.21180 -0.15100
H 	H 	0.65170 0.08720 0.18740 0.06200
C 	C 	0.61122 0.19300 0.11280 0.06000
H 	H 	0.61710 0.18320 0.01820 -0.00900
C 	C 	0.74021 0.99368 0.36340 0.17600
C 	C 	0.82839 0.06540 0.37930 0.11400
H 	H 	0.85210 0.10980 0.41650 0.00700
C 	C 	0.85272 0.00876 0.29220 -0.24000
C 	C 	0.81830 0.94252 0.24410 0.20100
H 	H 	0.83410 0.90270 0.18440 -0.02500
C 	C 	0.76167 0.93358 0.28150 -0.22800
H 	H 	0.73820 0.88710 0.25150 0.10400
C 	C 	0.91366 0.02292 0.24660 0.34900
N 	N 	0.59397 0.22185 0.38860 -0.14500
N 	N 	0.77150 0.05952 0.41350 -0.17200
O 	O 	0.53280 0.38886 0.09220 -0.45100
O 	O 	0.56086 0.30756 0.92200 -0.41600
O 	O 	0.94786 0.06690 0.32883 -0.48300
O 	O 	0.92578 0.99359 0.13316 -0.35400
S 	S 	0.85887 0.58564 0.01029 -0.04600
S 	S 	0.83504 0.47814 0.10011 -0.05000
C 	C 	0.94271 0.82572 0.45320 0.40100
C 	C 	0.91742 0.76452 0.34820 -0.12700
C 	C 	0.92404 0.77688 0.20840 0.09300
H 	H 	0.94230 0.82690 0.18060 0.05400
C 	C 	0.87936 0.65255 0.15190 0.11600
C 	C 	0.86874 0.63610 0.28820 -0.14100
H 	H 	0.84830 0.58720 0.31260 0.09200
C 	C 	0.88878 0.69300 0.38720 0.08100
H 	H 	0.88290 0.68320 0.48180 0.02600
C 	C 	0.75979 0.49368 0.13660 0.10700
C 	C 	0.67161 0.56540 0.12070 0.09500
H 	H 	0.64790 0.60980 0.08350 -0.00800
C 	C 	0.64728 0.50876 0.20780 -0.17700
C 	C 	0.68170 0.44252 0.25590 0.10400
H 	H 	0.66590 0.40270 0.31560 0.01300
C 	C 	0.73833 0.43358 0.21850 -0.16800
H 	H 	0.76180 0.38710 0.24850 0.09100
C 	C 	0.58634 0.52292 0.25340 0.40800
N 	N 	0.90603 0.72185 0.11140 -0.14000
N 	N 	0.72850 0.55952 0.08650 -0.14800
O 	O 	0.96720 0.88886 0.40780 -0.36400
O 	O 	0.93914 0.80756 0.57800 -0.42500
O 	O 	0.55214 0.56690 0.17117 -0.57700
O 	O 	0.57422 0.49359 0.36684 -0.43700
S 	S 	0.35887 0.08564 0.01029 -0.12100
S 	S 	0.33504 0.97814 0.10011 -0.02400
C 	C 	0.44271 0.32572 0.45320 0.41200
C 	C 	0.41742 0.26452 0.34820 -0.16100
C 	C 	0.42404 0.27688 0.20840 0.08800
H 	H 	0.44230 0.32690 0.18060 0.01900
C 	C 	0.37936 0.15255 0.15190 0.11000
C 	C 	0.36874 0.13610 0.28820 -0.16100
H 	H 	0.34830 0.08720 0.31260 0.07800
C 	C 	0.38878 0.19300 0.38720 0.08200
H 	H 	0.38290 0.18320 0.48180 0.01200
C 	C 	0.25979 0.99368 0.13660 0.18400
C 	C 	0.17161 0.06540 0.12070 0.12400
H 	H 	0.14790 0.10980 0.08350 -0.02300
C 	C 	0.14728 0.00876 0.20780 -0.26500
C 	C 	0.18170 0.94252 0.25590 0.22700
H 	H 	0.16590 0.90270 0.31560 -0.02200
C 	C 	0.23833 0.93358 0.21850 -0.24100
H 	H 	0.26180 0.88710 0.24850 0.11500
C 	C 	0.08634 0.02292 0.25340 0.37200
N 	N 	0.40603 0.22185 0.11140 -0.16100
N 	N 	0.22850 0.05952 0.08650 -0.18800
O 	O 	0.46720 0.38886 0.40780 -0.45800
O 	O 	0.43914 0.30756 0.57800 -0.48500
O 	O 	0.05214 0.06690 0.17117 -0.61800
O 	O 	0.07422 0.99359 0.36684 -0.40500
Mn	Mn	-0.00000 0.00000 -0.00000 1.20900
Mn	Mn	0.50000 0.50000 -0.00000 1.28800
Mn	Mn	0.00000 0.00000 0.50000 1.23400
Mn	Mn	0.50000 0.50000 0.50000 1.31300
Mn	Mn	0.00000 0.16922 0.25000 1.19400
Mn	Mn	0.50000 0.66922 0.25000 1.25500
Mn	Mn	0.00000 0.83078 0.75000 1.20800
Mn	Mn	0.50000 0.33078 0.75000 1.26200
