data_crystal

_cell_length_a 9.09900
_cell_length_b 9.67320
_cell_length_c 22.29900
_cell_angle_alpha 90.00000
_cell_angle_beta  90.00000
_cell_angle_gamma 117.87400

_symmetry_space_group_name_	'P 1'
_symmetry_space_group_name_H-M	'P 1'

loop_
_symmetry_equiv_pos_as_xyz
  x,y,z

loop_
_atom_site_label
_atom_site_type_symbol
_atom_site_fract_x
_atom_site_fract_y
_atom_site_fract_z
_atom_site_charge
Tb	Tb	0.35588 0.11751 0.00853 2.09100
Tb	Tb	0.64412 0.38249 0.50853 2.09100
Tb	Tb	0.64412 0.88249 0.99147 2.09000
Tb	Tb	0.35588 0.61751 0.49147 2.09000
Ag	Ag	0.32053 0.98093 0.35157 0.55500
Ag	Ag	0.67947 0.51907 0.85157 0.55600
Ag	Ag	0.67947 0.01907 0.64843 0.55500
Ag	Ag	0.32053 0.48093 0.14843 0.55600
H 	H 	0.59880 0.89530 0.33200 -0.02500
H 	H 	0.74970 0.86840 0.25680 0.11700
H 	H 	0.69400 0.89910 0.15850 -0.02600
H 	H 	0.35910 0.01230 0.21760 -0.02300
H 	H 	0.81660 0.28560 0.83740 -0.02300
H 	H 	0.03270 0.24830 0.86750 0.11800
H 	H 	0.22910 0.44440 0.92790 -0.00200
H 	H 	0.96670 0.67750 0.93280 -0.02100
H 	H 	0.40120 0.60470 0.83200 -0.02600
H 	H 	0.25030 0.63160 0.75680 0.11700
H 	H 	0.30600 0.60090 0.65850 -0.02600
H 	H 	0.64090 0.48770 0.71760 -0.02600
H 	H 	0.18340 0.21440 0.33740 -0.02400
H 	H 	0.96730 0.25170 0.36750 0.11900
H 	H 	0.77090 0.05560 0.42790 -0.00200
H 	H 	0.03330 0.82250 0.43280 -0.01900
H 	H 	0.40120 0.10470 0.66800 -0.02500
H 	H 	0.25030 0.13160 0.74320 0.11700
H 	H 	0.30600 0.10090 0.84150 -0.02600
H 	H 	0.64090 0.98770 0.78240 -0.02300
H 	H 	0.18340 0.71440 0.16260 -0.02300
H 	H 	0.96730 0.75170 0.13250 0.11800
H 	H 	0.77090 0.55560 0.07210 -0.00200
H 	H 	0.03330 0.32250 0.06720 -0.02100
H 	H 	0.59880 0.39530 0.16800 -0.02600
H 	H 	0.74970 0.36840 0.24320 0.11700
H 	H 	0.69400 0.39910 0.34150 -0.02600
H 	H 	0.35910 0.51230 0.28240 -0.02600
H 	H 	0.81660 0.78560 0.66260 -0.02400
H 	H 	0.03270 0.74830 0.63250 0.11900
H 	H 	0.22910 0.94440 0.57210 -0.00200
H 	H 	0.96670 0.17750 0.56720 -0.01900
C 	C 	0.57810 0.91320 0.29270 0.15700
C 	C 	0.66660 0.89540 0.24790 -0.25200
C 	C 	0.63600 0.91660 0.18940 0.18100
C 	C 	0.52130 0.96300 0.17720 -0.27600
C 	C 	0.43920 0.98030 0.22510 0.15000
C 	C 	0.48170 0.99220 0.11480 0.54900
C 	C 	0.89610 0.35790 0.86300 0.11500
C 	C 	0.02140 0.33500 0.87930 -0.20000
C 	C 	0.13540 0.45200 0.91580 0.13500
C 	C 	0.11730 0.58480 0.93580 -0.22200
C 	C 	0.98520 0.59600 0.91930 0.13300
C 	C 	0.24310 0.71970 0.97320 0.53700
C 	C 	0.48010 0.50330 0.03320 0.22600
C 	C 	0.99180 0.99220 0.03460 0.30400
C 	C 	0.42190 0.58680 0.79270 0.15800
C 	C 	0.33340 0.60460 0.74790 -0.25400
C 	C 	0.36400 0.58340 0.68940 0.18300
C 	C 	0.47870 0.53700 0.67720 -0.27800
C 	C 	0.56080 0.51970 0.72510 0.15500
C 	C 	0.51830 0.50780 0.61480 0.55200
C 	C 	0.10390 0.14210 0.36300 0.12000
C 	C 	0.97860 0.16500 0.37930 -0.20500
C 	C 	0.86460 0.04800 0.41580 0.13400
C 	C 	0.88270 0.91520 0.43580 -0.21800
C 	C 	0.01480 0.90400 0.41930 0.12700
C 	C 	0.75690 0.78030 0.47320 0.53600
C 	C 	0.51990 0.99670 0.53320 0.22700
C 	C 	0.00820 0.50780 0.53460 0.30200
C 	C 	0.42190 0.08680 0.70730 0.15700
C 	C 	0.33340 0.10460 0.75210 -0.25200
C 	C 	0.36400 0.08340 0.81060 0.18100
C 	C 	0.47870 0.03700 0.82280 -0.27600
C 	C 	0.56080 0.01970 0.77490 0.15000
C 	C 	0.51830 0.00780 0.88520 0.54900
C 	C 	0.10390 0.64210 0.13700 0.11500
C 	C 	0.97860 0.66500 0.12070 -0.20000
C 	C 	0.86460 0.54800 0.08420 0.13500
C 	C 	0.88270 0.41520 0.06420 -0.22200
C 	C 	0.01480 0.40400 0.08070 0.13300
C 	C 	0.75690 0.28030 0.02680 0.53700
C 	C 	0.51990 0.49670 0.96680 0.22600
C 	C 	0.00820 0.00780 0.96540 0.30400
C 	C 	0.57810 0.41320 0.20730 0.15800
C 	C 	0.66660 0.39540 0.25210 -0.25400
C 	C 	0.63600 0.41660 0.31060 0.18300
C 	C 	0.52130 0.46300 0.32280 -0.27800
C 	C 	0.43920 0.48030 0.27490 0.15500
C 	C 	0.48170 0.49220 0.38520 0.55200
C 	C 	0.89610 0.85790 0.63700 0.12000
C 	C 	0.02140 0.83500 0.62070 -0.20500
C 	C 	0.13540 0.95200 0.58420 0.13400
C 	C 	0.11730 0.08480 0.56420 -0.21800
C 	C 	0.98520 0.09600 0.58070 0.12700
C 	C 	0.24310 0.21970 0.52680 0.53600
C 	C 	0.48010 0.00330 0.46680 0.22700
C 	C 	0.99180 0.49220 0.46540 0.30200
N 	N 	0.46470 0.95480 0.28210 -0.23100
N 	N 	0.87650 0.48500 0.88210 -0.21500
N 	N 	0.53530 0.54520 0.78210 -0.23200
N 	N 	0.12350 0.01500 0.38210 -0.21300
N 	N 	0.53530 0.04520 0.71790 -0.23100
N 	N 	0.12350 0.51500 0.11790 -0.21500
N 	N 	0.46470 0.45480 0.21790 -0.23200
N 	N 	0.87650 0.98500 0.61790 -0.21300
O 	O 	0.54140 0.95490 0.07209 -0.60000
O 	O 	0.39110 0.05440 0.10909 -0.50600
O 	O 	0.21090 0.82320 0.99849 -0.46800
O 	O 	0.37060 0.71780 0.97500 -0.57700
O 	O 	0.38350 0.36570 0.05648 -0.39900
O 	O 	0.54270 0.63900 0.05910 -0.37600
O 	O 	0.11710 0.04840 0.06369 -0.45600
O 	O 	0.85640 0.92360 0.05591 -0.47000
O 	O 	0.45860 0.54510 0.57209 -0.60100
O 	O 	0.60890 0.44560 0.60909 -0.50700
O 	O 	0.78910 0.67680 0.49849 -0.46700
O 	O 	0.62940 0.78220 0.47500 -0.57700
O 	O 	0.61650 0.13430 0.55648 -0.40000
O 	O 	0.45730 0.86100 0.55910 -0.37600
O 	O 	0.88290 0.45160 0.56369 -0.45500
O 	O 	0.14360 0.57640 0.55591 -0.47000
O 	O 	0.45860 0.04510 0.92791 -0.60000
O 	O 	0.60890 0.94560 0.89091 -0.50600
O 	O 	0.78910 0.17680 0.00151 -0.46800
O 	O 	0.62940 0.28220 0.02500 -0.57700
O 	O 	0.61650 0.63430 0.94352 -0.39900
O 	O 	0.45730 0.36100 0.94090 -0.37600
O 	O 	0.88290 0.95160 0.93631 -0.45600
O 	O 	0.14360 0.07640 0.94409 -0.47000
O 	O 	0.54140 0.45490 0.42791 -0.60100
O 	O 	0.39110 0.55440 0.39091 -0.50700
O 	O 	0.21090 0.32320 0.50151 -0.46700
O 	O 	0.37060 0.21780 0.52500 -0.57700
O 	O 	0.38350 0.86570 0.44352 -0.40000
O 	O 	0.54270 0.13900 0.44090 -0.37600
O 	O 	0.11710 0.54840 0.43631 -0.45500
O 	O 	0.85640 0.42360 0.44409 -0.47000
