data_crystal

_cell_length_a 9.28640
_cell_length_b 9.88400
_cell_length_c 22.44600
_cell_angle_alpha 90.00000
_cell_angle_beta  90.00000
_cell_angle_gamma 116.56400

_symmetry_space_group_name_	'P 1'
_symmetry_space_group_name_H-M	'P 1'

loop_
_symmetry_equiv_pos_as_xyz
  x,y,z

loop_
_atom_site_label
_atom_site_type_symbol
_atom_site_fract_x
_atom_site_fract_y
_atom_site_fract_z
_atom_site_charge
La	La	0.35977 0.11562 0.00884 1.71100
La	La	0.64023 0.38438 0.50884 1.71100
La	La	0.64023 0.88438 0.99116 1.71000
La	La	0.35977 0.61562 0.49116 1.71000
Ag	Ag	0.31779 0.97450 0.35346 0.55500
Ag	Ag	0.68221 0.52550 0.85346 0.55500
Ag	Ag	0.68221 0.02550 0.64654 0.55500
Ag	Ag	0.31779 0.47450 0.14654 0.55500
H 	H 	0.59880 0.89010 0.33190 -0.01200
H 	H 	0.73800 0.86080 0.25510 0.10100
H 	H 	0.68190 0.89820 0.15760 -0.01100
H 	H 	0.35730 0.01030 0.22220 -0.01300
H 	H 	0.81100 0.28910 0.84030 -0.01300
H 	H 	0.02180 0.24560 0.86970 0.10400
H 	H 	0.21660 0.43570 0.92690 0.01900
H 	H 	0.96990 0.67890 0.92920 -0.00100
H 	H 	0.40120 0.60990 0.83190 -0.01300
H 	H 	0.26200 0.63920 0.75510 0.10200
H 	H 	0.31810 0.60180 0.65760 -0.01200
H 	H 	0.64270 0.48970 0.72220 -0.01500
H 	H 	0.18900 0.21090 0.34030 -0.01300
H 	H 	0.97820 0.25440 0.36970 0.10500
H 	H 	0.78340 0.06430 0.42690 0.01900
H 	H 	0.03010 0.82110 0.42920 0.00100
H 	H 	0.40120 0.10990 0.66810 -0.01200
H 	H 	0.26200 0.13920 0.74490 0.10100
H 	H 	0.31810 0.10180 0.84240 -0.01100
H 	H 	0.64270 0.98970 0.77780 -0.01300
H 	H 	0.18900 0.71090 0.15970 -0.01300
H 	H 	0.97820 0.75440 0.13030 0.10400
H 	H 	0.78340 0.56430 0.07310 0.01900
H 	H 	0.03010 0.32110 0.07080 -0.00100
H 	H 	0.59880 0.39010 0.16810 -0.01300
H 	H 	0.73800 0.36080 0.24490 0.10200
H 	H 	0.68190 0.39820 0.34240 -0.01200
H 	H 	0.35730 0.51030 0.27780 -0.01500
H 	H 	0.81100 0.78910 0.65970 -0.01300
H 	H 	0.02180 0.74560 0.63030 0.10500
H 	H 	0.21660 0.93570 0.57310 0.01900
H 	H 	0.96990 0.17890 0.57080 0.00100
C 	C 	0.57580 0.90870 0.29330 0.12700
C 	C 	0.65770 0.89040 0.24750 -0.20400
C 	C 	0.62650 0.91430 0.18920 0.12600
C 	C 	0.51340 0.96140 0.17990 -0.21600
C 	C 	0.43610 0.97820 0.22840 0.12100
C 	C 	0.47030 0.99700 0.11960 0.42300
C 	C 	0.89070 0.35940 0.86450 0.09100
C 	C 	0.01310 0.33250 0.88050 -0.16400
C 	C 	0.12610 0.44580 0.91490 0.08600
C 	C 	0.11210 0.58080 0.93360 -0.15700
C 	C 	0.98500 0.59610 0.91710 0.09200
C 	C 	0.23810 0.71310 0.96950 0.42000
C 	C 	0.47510 0.49810 0.03340 0.21000
C 	C 	0.99260 0.99200 0.03352 0.23900
C 	C 	0.42420 0.59130 0.79330 0.12800
C 	C 	0.34230 0.60960 0.74750 -0.20500
C 	C 	0.37350 0.58570 0.68920 0.12800
C 	C 	0.48660 0.53860 0.67990 -0.21800
C 	C 	0.56390 0.52180 0.72840 0.12500
C 	C 	0.52970 0.50300 0.61960 0.42500
C 	C 	0.10930 0.14060 0.36450 0.09500
C 	C 	0.98690 0.16750 0.38050 -0.16800
C 	C 	0.87390 0.05420 0.41490 0.08400
C 	C 	0.88790 0.91920 0.43360 -0.15300
C 	C 	0.01500 0.90390 0.41710 0.08700
C 	C 	0.76190 0.78690 0.46950 0.41900
C 	C 	0.52490 0.00190 0.53340 0.20900
C 	C 	0.00740 0.50800 0.53352 0.23700
C 	C 	0.42420 0.09130 0.70670 0.12700
C 	C 	0.34230 0.10960 0.75250 -0.20400
C 	C 	0.37350 0.08570 0.81080 0.12600
C 	C 	0.48660 0.03860 0.82010 -0.21600
C 	C 	0.56390 0.02180 0.77160 0.12100
C 	C 	0.52970 0.00300 0.88040 0.42300
C 	C 	0.10930 0.64060 0.13550 0.09100
C 	C 	0.98690 0.66750 0.11950 -0.16400
C 	C 	0.87390 0.55420 0.08510 0.08600
C 	C 	0.88790 0.41920 0.06640 -0.15700
C 	C 	0.01500 0.40390 0.08290 0.09200
C 	C 	0.76190 0.28690 0.03050 0.42000
C 	C 	0.52490 0.50190 0.96660 0.21000
C 	C 	0.00740 0.00800 0.96648 0.23900
C 	C 	0.57580 0.40870 0.20670 0.12800
C 	C 	0.65770 0.39040 0.25250 -0.20500
C 	C 	0.62650 0.41430 0.31080 0.12800
C 	C 	0.51340 0.46140 0.32010 -0.21800
C 	C 	0.43610 0.47820 0.27160 0.12500
C 	C 	0.47030 0.49700 0.38040 0.42500
C 	C 	0.89070 0.85940 0.63550 0.09500
C 	C 	0.01310 0.83250 0.61950 -0.16800
C 	C 	0.12610 0.94580 0.58510 0.08400
C 	C 	0.11210 0.08080 0.56640 -0.15300
C 	C 	0.98500 0.09610 0.58290 0.08700
C 	C 	0.23810 0.21310 0.53050 0.41900
C 	C 	0.47510 0.99810 0.46660 0.20900
C 	C 	0.99260 0.49200 0.46648 0.23700
N 	N 	0.46400 0.95220 0.28430 -0.21700
N 	N 	0.87580 0.48650 0.88180 -0.20000
N 	N 	0.53600 0.54780 0.78430 -0.21700
N 	N 	0.12420 0.01350 0.38180 -0.19800
N 	N 	0.53600 0.04780 0.71570 -0.21700
N 	N 	0.12420 0.51350 0.11820 -0.20000
N 	N 	0.46400 0.45220 0.21570 -0.21700
N 	N 	0.87580 0.98650 0.61820 -0.19800
O 	O 	0.52010 0.96060 0.07337 -0.50100
O 	O 	0.38370 0.06220 0.11804 -0.40800
O 	O 	0.20870 0.81740 0.99345 -0.39800
O 	O 	0.36210 0.70700 0.97100 -0.45500
O 	O 	0.38180 0.37280 0.05519 -0.36400
O 	O 	0.53900 0.63550 0.05903 -0.33600
O 	O 	0.11460 0.05120 0.06415 -0.37200
O 	O 	0.85930 0.92190 0.05590 -0.38300
O 	O 	0.47990 0.53940 0.57337 -0.50200
O 	O 	0.61630 0.43780 0.61804 -0.40900
O 	O 	0.79130 0.68260 0.49345 -0.39700
O 	O 	0.63790 0.79300 0.47100 -0.45500
O 	O 	0.61820 0.12720 0.55519 -0.36400
O 	O 	0.46100 0.86450 0.55903 -0.33600
O 	O 	0.88540 0.44880 0.56415 -0.37100
O 	O 	0.14070 0.57810 0.55590 -0.38300
O 	O 	0.47990 0.03940 0.92663 -0.50100
O 	O 	0.61630 0.93780 0.88196 -0.40800
O 	O 	0.79130 0.18260 0.00655 -0.39800
O 	O 	0.63790 0.29300 0.02900 -0.45500
O 	O 	0.61820 0.62720 0.94481 -0.36400
O 	O 	0.46100 0.36450 0.94097 -0.33600
O 	O 	0.88540 0.94880 0.93585 -0.37200
O 	O 	0.14070 0.07810 0.94410 -0.38300
O 	O 	0.52010 0.46060 0.42663 -0.50200
O 	O 	0.38370 0.56220 0.38196 -0.40900
O 	O 	0.20870 0.31740 0.50655 -0.39700
O 	O 	0.36210 0.20700 0.52900 -0.45500
O 	O 	0.38180 0.87280 0.44481 -0.36400
O 	O 	0.53900 0.13550 0.44097 -0.33600
O 	O 	0.11460 0.55120 0.43585 -0.37100
O 	O 	0.85930 0.42190 0.44410 -0.38300
