data_crystal

_cell_length_a 10.00000
_cell_length_b 10.00000
_cell_length_c 10.00000
_cell_angle_alpha 90.00000
_cell_angle_beta  90.00000
_cell_angle_gamma 90.00000

_symmetry_space_group_name_	'P 1'
_symmetry_space_group_name_H-M	'P 1'

loop_
_symmetry_equiv_pos_as_xyz
  x,y,z

loop_
_atom_site_label
_atom_site_type_symbol
_atom_site_fract_x
_atom_site_fract_y
_atom_site_fract_z
_atom_site_charge
O 	O 	0.05480 0.64725 0.58930 -0.09000
O 	O 	0.10084 0.58208 0.66850 -3.08900
C 	C 	0.09190 0.63140 0.64200 -0.59800
C 	C 	0.13166 0.67358 0.67640 3.15800
C 	C 	0.17060 0.66031 0.74100 0.84800
H 	H 	0.17120 0.62460 0.76640 -1.36900
C 	C 	0.20860 0.69934 0.76840 0.80700
H 	H 	0.23530 0.69010 0.81230 3.62300
C 	C 	0.16870 0.76483 0.66650 -0.05600
C 	C 	0.16960 0.81790 0.61410 0.13100
H 	H 	0.19800 0.84200 0.63850 0.31600
H 	H 	0.13380 0.83590 0.61900 -0.27600
H 	H 	0.17750 0.81010 0.55080 0.09400
C 	C 	0.20763 0.75157 0.73120 -3.55800
C 	C 	0.13068 0.72581 0.63910 1.91300
H 	H 	0.10410 0.73480 0.59500 -1.83100
C 	C 	0.24740 0.68170 0.84200 0.35900
H 	H 	0.24220 0.64440 0.86090 -0.78700
H 	H 	0.28340 0.68580 0.81680 -1.95400
H 	H 	0.24350 0.70570 0.89270 -0.17200
H 	H 	0.16580 0.79950 0.64330 0.25900
O 	O 	0.94520 0.35275 0.58930 -0.20400
O 	O 	0.89916 0.41792 0.66850 -2.83200
C 	C 	0.90810 0.36860 0.64200 -0.70500
C 	C 	0.86834 0.32642 0.67640 2.98400
C 	C 	0.82940 0.33969 0.74100 0.86400
H 	H 	0.82880 0.37540 0.76640 -1.27700
C 	C 	0.79140 0.30066 0.76840 0.70400
H 	H 	0.76470 0.30990 0.81230 3.05200
C 	C 	0.83130 0.23517 0.66650 -0.10700
C 	C 	0.83040 0.18210 0.61410 0.14300
H 	H 	0.80200 0.15800 0.63850 0.41300
H 	H 	0.86620 0.16410 0.61900 -0.18700
H 	H 	0.82250 0.18990 0.55080 0.07500
C 	C 	0.79237 0.24843 0.73120 -3.15400
C 	C 	0.86932 0.27419 0.63910 1.75800
H 	H 	0.89590 0.26520 0.59500 -1.61800
C 	C 	0.75260 0.31830 0.84200 0.33600
H 	H 	0.75780 0.35560 0.86090 -0.62900
H 	H 	0.71660 0.31420 0.81680 -1.64200
H 	H 	0.75650 0.29430 0.89270 -0.14800
H 	H 	0.83420 0.20050 0.64330 0.03800
O 	O 	0.35275 0.05480 0.08930 -0.16700
O 	O 	0.41792 0.10084 0.16850 -3.00800
C 	C 	0.36860 0.09190 0.14200 -0.55600
C 	C 	0.32642 0.13166 0.17640 3.21200
C 	C 	0.33969 0.17060 0.24100 0.83000
H 	H 	0.37540 0.17120 0.26640 -1.43900
C 	C 	0.30066 0.20860 0.26840 0.88800
H 	H 	0.30990 0.23530 0.31230 4.09700
C 	C 	0.23517 0.16870 0.16650 -0.01500
C 	C 	0.18210 0.16960 0.11410 0.09100
H 	H 	0.15800 0.19800 0.13850 0.27300
H 	H 	0.16410 0.13380 0.11900 -0.35200
H 	H 	0.18990 0.17750 0.05080 -0.01500
C 	C 	0.24843 0.20763 0.23120 -3.85000
C 	C 	0.27419 0.13068 0.13910 1.96300
H 	H 	0.26520 0.10410 0.09500 -1.92600
C 	C 	0.31830 0.24740 0.34200 0.36800
H 	H 	0.35560 0.24220 0.36090 -0.89900
H 	H 	0.31420 0.28340 0.31680 -2.21300
H 	H 	0.29430 0.24350 0.39270 -0.22700
H 	H 	0.20050 0.16580 0.14330 0.48300
O 	O 	0.64725 0.94520 0.08930 -0.23200
O 	O 	0.58208 0.89916 0.16850 -2.96600
C 	C 	0.63140 0.90810 0.14200 -0.59500
C 	C 	0.67358 0.86834 0.17640 3.16900
C 	C 	0.66031 0.82940 0.24100 0.82800
H 	H 	0.62460 0.82880 0.26640 -1.41200
C 	C 	0.69934 0.79140 0.26840 0.85500
H 	H 	0.69010 0.76470 0.31230 3.99100
C 	C 	0.76483 0.83130 0.16650 -0.00200
C 	C 	0.81790 0.83040 0.11410 0.09400
H 	H 	0.84200 0.80200 0.13850 0.27500
H 	H 	0.83590 0.86620 0.11900 -0.37100
H 	H 	0.81010 0.82250 0.05080 0.00600
C 	C 	0.75157 0.79237 0.23120 -3.78300
C 	C 	0.72581 0.86932 0.13910 1.95300
H 	H 	0.73480 0.89590 0.09500 -1.88000
C 	C 	0.68170 0.75260 0.34200 0.36800
H 	H 	0.64440 0.75780 0.36090 -0.87900
H 	H 	0.68580 0.71660 0.31680 -2.13700
H 	H 	0.70570 0.75650 0.39270 -0.22000
H 	H 	0.79950 0.83420 0.14330 0.44300
O 	O 	0.94520 0.64725 0.41070 -0.26400
O 	O 	0.89916 0.58208 0.33150 -2.90700
C 	C 	0.90810 0.63140 0.35800 -0.57700
C 	C 	0.86834 0.67358 0.32360 3.13500
C 	C 	0.82940 0.66031 0.25900 0.81600
H 	H 	0.82880 0.62460 0.23360 -1.41600
C 	C 	0.79140 0.69934 0.23160 0.88000
H 	H 	0.76470 0.69010 0.18770 4.03400
C 	C 	0.83130 0.76483 0.33350 -0.02600
C 	C 	0.83040 0.81790 0.38590 0.13400
H 	H 	0.80200 0.84200 0.36150 0.26900
H 	H 	0.86620 0.83590 0.38100 -0.40700
H 	H 	0.82250 0.81010 0.44920 0.09700
C 	C 	0.79237 0.75157 0.26880 -3.80800
C 	C 	0.86932 0.72581 0.36090 1.95000
H 	H 	0.89590 0.73480 0.40500 -1.84400
C 	C 	0.75260 0.68170 0.15800 0.36200
H 	H 	0.75780 0.64440 0.13910 -0.89000
H 	H 	0.71660 0.68580 0.18320 -2.17600
H 	H 	0.75650 0.70570 0.10730 -0.25100
H 	H 	0.83420 0.79950 0.35670 0.45500
O 	O 	0.05480 0.35275 0.41070 -0.14200
O 	O 	0.10084 0.41792 0.33150 -3.09400
C 	C 	0.09190 0.36860 0.35800 -0.52100
C 	C 	0.13166 0.32642 0.32360 3.24100
C 	C 	0.17060 0.33969 0.25900 0.83400
H 	H 	0.17120 0.37540 0.23360 -1.45500
C 	C 	0.20860 0.30066 0.23160 0.91300
H 	H 	0.23530 0.30990 0.18770 4.10300
C 	C 	0.16870 0.23517 0.33350 -0.05600
C 	C 	0.16960 0.18210 0.38590 0.14000
H 	H 	0.19800 0.15800 0.36150 0.28300
H 	H 	0.13380 0.16410 0.38100 -0.35000
H 	H 	0.17750 0.18990 0.44920 0.09400
C 	C 	0.20763 0.24843 0.26880 -3.86100
C 	C 	0.13068 0.27419 0.36090 1.98600
H 	H 	0.10410 0.26520 0.40500 -1.92000
C 	C 	0.24740 0.31830 0.15800 0.35800
H 	H 	0.24220 0.35560 0.13910 -0.91600
H 	H 	0.28340 0.31420 0.18320 -2.21400
H 	H 	0.24350 0.29430 0.10730 -0.25500
H 	H 	0.16580 0.20050 0.35670 0.43500
O 	O 	0.64725 0.05480 0.91070 0.12700
O 	O 	0.58208 0.10084 0.83150 -3.27300
C 	C 	0.63140 0.09190 0.85800 -0.64600
C 	C 	0.67358 0.13166 0.82360 3.13800
C 	C 	0.66031 0.17060 0.75900 0.90100
H 	H 	0.62460 0.17120 0.73360 -1.29900
C 	C 	0.69934 0.20860 0.73160 0.71900
H 	H 	0.69010 0.23530 0.68770 2.95400
C 	C 	0.76483 0.16870 0.83350 -0.14500
C 	C 	0.81790 0.16960 0.88590 0.18300
H 	H 	0.84200 0.19800 0.86150 0.42500
H 	H 	0.83590 0.13380 0.88100 -0.09600
H 	H 	0.81010 0.17750 0.94920 0.19300
C 	C 	0.75157 0.20763 0.76880 -3.10100
C 	C 	0.72581 0.13068 0.86090 1.82700
H 	H 	0.73480 0.10410 0.90500 -1.72800
C 	C 	0.68170 0.24740 0.65800 0.31700
H 	H 	0.64440 0.24220 0.63910 -0.64900
H 	H 	0.68580 0.28340 0.68320 -1.53900
H 	H 	0.70570 0.24350 0.60730 -0.16600
H 	H 	0.79950 0.16580 0.85670 -0.10800
O 	O 	0.35275 0.94520 0.91070 -0.24100
O 	O 	0.41792 0.89916 0.83150 -3.11800
C 	C 	0.36860 0.90810 0.85800 -0.66500
C 	C 	0.32642 0.86834 0.82360 3.26400
C 	C 	0.33969 0.82940 0.75900 0.90700
H 	H 	0.37540 0.82880 0.73360 -1.42800
C 	C 	0.30066 0.79140 0.73160 0.82000
H 	H 	0.30990 0.76470 0.68770 3.57700
C 	C 	0.23517 0.83130 0.83350 -0.10900
C 	C 	0.18210 0.83040 0.88590 0.17600
H 	H 	0.15800 0.80200 0.86150 0.41400
H 	H 	0.16410 0.86620 0.88100 -0.27100
H 	H 	0.18990 0.82250 0.94920 0.17600
C 	C 	0.24843 0.79237 0.76880 -3.53700
C 	C 	0.27419 0.86932 0.86090 1.93800
H 	H 	0.26520 0.89590 0.90500 -1.79400
C 	C 	0.31830 0.75260 0.65800 0.34400
H 	H 	0.35560 0.75780 0.63910 -0.76900
H 	H 	0.31420 0.71660 0.68320 -1.91200
H 	H 	0.29430 0.75650 0.60730 -0.20700
H 	H 	0.20050 0.83420 0.85670 0.11300
O 	O 	0.94520 0.35275 0.41070 -0.29900
O 	O 	0.89916 0.41792 0.33150 -3.02600
C 	C 	0.90810 0.36860 0.35800 -0.53900
C 	C 	0.86834 0.32642 0.32360 3.27700
C 	C 	0.82940 0.33969 0.25900 0.83300
H 	H 	0.82880 0.37540 0.23360 -1.49700
C 	C 	0.79140 0.30066 0.23160 0.94300
H 	H 	0.76470 0.30990 0.18770 4.33100
C 	C 	0.83130 0.23517 0.33350 -0.03500
C 	C 	0.83040 0.18210 0.38590 0.13900
H 	H 	0.80200 0.15800 0.36150 0.27500
H 	H 	0.86620 0.16410 0.38100 -0.43200
H 	H 	0.82250 0.18990 0.44920 0.09900
C 	C 	0.79237 0.24843 0.26880 -4.02300
C 	C 	0.86932 0.27419 0.36090 2.03000
H 	H 	0.89590 0.26520 0.40500 -1.93900
C 	C 	0.75260 0.31830 0.15800 0.36900
H 	H 	0.75780 0.35560 0.13910 -0.96100
H 	H 	0.71660 0.31420 0.18320 -2.34500
H 	H 	0.75650 0.29430 0.10730 -0.27000
H 	H 	0.83420 0.20050 0.35670 0.52000
O 	O 	0.05480 0.64725 0.41070 -0.10700
O 	O 	0.10084 0.58208 0.33150 -2.97600
C 	C 	0.09190 0.63140 0.35800 -0.55900
C 	C 	0.13166 0.67358 0.32360 3.10000
C 	C 	0.17060 0.66031 0.25900 0.81700
H 	H 	0.17120 0.62460 0.23360 -1.37500
C 	C 	0.20860 0.69934 0.23160 0.85000
H 	H 	0.23530 0.69010 0.18770 3.80900
C 	C 	0.16870 0.76483 0.33350 -0.04800
C 	C 	0.16960 0.81790 0.38590 0.13600
H 	H 	0.19800 0.84200 0.36150 0.27700
H 	H 	0.13380 0.83590 0.38100 -0.32400
H 	H 	0.17750 0.81010 0.44920 0.09300
C 	C 	0.20763 0.75157 0.26880 -3.64700
C 	C 	0.13068 0.72581 0.36090 1.90700
H 	H 	0.10410 0.73480 0.40500 -1.82600
C 	C 	0.24740 0.68170 0.15800 0.35000
H 	H 	0.24220 0.64440 0.13910 -0.84600
H 	H 	0.28340 0.68580 0.18320 -2.04600
H 	H 	0.24350 0.70570 0.10730 -0.23700
H 	H 	0.16580 0.79950 0.35670 0.37100
O 	O 	0.64725 0.94520 0.91070 -0.23900
O 	O 	0.58208 0.89916 0.83150 -3.14400
C 	C 	0.63140 0.90810 0.85800 -0.64700
C 	C 	0.67358 0.86834 0.82360 3.28400
C 	C 	0.66031 0.82940 0.75900 0.89500
H 	H 	0.62460 0.82880 0.73360 -1.44300
C 	C 	0.69934 0.79140 0.73160 0.84300
H 	H 	0.69010 0.76470 0.68770 3.74200
C 	C 	0.76483 0.83130 0.83350 -0.08100
C 	C 	0.81790 0.83040 0.88590 0.17000
H 	H 	0.84200 0.80200 0.86150 0.37400
H 	H 	0.83590 0.86620 0.88100 -0.32100
H 	H 	0.81010 0.82250 0.94920 0.18500
C 	C 	0.75157 0.79237 0.76880 -3.65300
C 	C 	0.72581 0.86932 0.86090 1.97800
H 	H 	0.73480 0.89590 0.90500 -1.83900
C 	C 	0.68170 0.75260 0.65800 0.35400
H 	H 	0.64440 0.75780 0.63910 -0.81300
H 	H 	0.68580 0.71660 0.68320 -2.00100
H 	H 	0.70570 0.75650 0.60730 -0.21300
H 	H 	0.79950 0.83420 0.85670 0.19400
O 	O 	0.35275 0.05480 0.91070 0.12500
O 	O 	0.41792 0.10084 0.83150 -3.24700
C 	C 	0.36860 0.09190 0.85800 -0.66400
C 	C 	0.32642 0.13166 0.82360 3.11700
C 	C 	0.33969 0.17060 0.75900 0.91400
H 	H 	0.37540 0.17120 0.73360 -1.28400
C 	C 	0.30066 0.20860 0.73160 0.69600
H 	H 	0.30990 0.23530 0.68770 2.78700
C 	C 	0.23517 0.16870 0.83350 -0.17300
C 	C 	0.18210 0.16960 0.88590 0.18900
H 	H 	0.15800 0.19800 0.86150 0.46500
H 	H 	0.16410 0.13380 0.88100 -0.04600
H 	H 	0.18990 0.17750 0.94920 0.18300
C 	C 	0.24843 0.20763 0.76880 -2.98400
C 	C 	0.27419 0.13068 0.86090 1.78600
H 	H 	0.26520 0.10410 0.90500 -1.68200
C 	C 	0.31830 0.24740 0.65800 0.30800
H 	H 	0.35560 0.24220 0.63910 -0.60500
H 	H 	0.31420 0.28340 0.68320 -1.44900
H 	H 	0.29430 0.24350 0.60730 -0.16000
H 	H 	0.20050 0.16580 0.85670 -0.18900
O 	O 	0.05480 0.35275 0.58930 -0.05700
O 	O 	0.10084 0.41792 0.66850 -2.90100
C 	C 	0.09190 0.36860 0.64200 -0.68200
C 	C 	0.13166 0.32642 0.67640 2.95700
C 	C 	0.17060 0.33969 0.74100 0.86300
H 	H 	0.17120 0.37540 0.76640 -1.24400
C 	C 	0.20860 0.30066 0.76840 0.68300
H 	H 	0.23530 0.30990 0.81230 2.88100
C 	C 	0.16870 0.23517 0.66650 -0.12500
C 	C 	0.16960 0.18210 0.61410 0.14400
H 	H 	0.19800 0.15800 0.63850 0.41500
H 	H 	0.13380 0.16410 0.61900 -0.11800
H 	H 	0.17750 0.18990 0.55080 0.07200
C 	C 	0.20763 0.24843 0.73120 -3.03100
C 	C 	0.13068 0.27419 0.63910 1.72500
H 	H 	0.10410 0.26520 0.59500 -1.61200
C 	C 	0.24740 0.31830 0.84200 0.32600
H 	H 	0.24220 0.35560 0.86090 -0.59700
H 	H 	0.28340 0.31420 0.81680 -1.54400
H 	H 	0.24350 0.29430 0.89270 -0.13700
H 	H 	0.16580 0.20050 0.64330 -0.02200
O 	O 	0.94520 0.64725 0.58930 -0.23900
O 	O 	0.89916 0.58208 0.66850 -3.02100
C 	C 	0.90810 0.63140 0.64200 -0.62200
C 	C 	0.86834 0.67358 0.67640 3.18400
C 	C 	0.82940 0.66031 0.74100 0.85000
H 	H 	0.82880 0.62460 0.76640 -1.40100
C 	C 	0.79140 0.69934 0.76840 0.82800
H 	H 	0.76470 0.69010 0.81230 3.79100
C 	C 	0.83130 0.76483 0.66650 -0.03900
C 	C 	0.83040 0.81790 0.61410 0.13000
H 	H 	0.80200 0.84200 0.63850 0.31400
H 	H 	0.86620 0.83590 0.61900 -0.34500
H 	H 	0.82250 0.81010 0.55080 0.09700
C 	C 	0.79237 0.75157 0.73120 -3.67900
C 	C 	0.86932 0.72581 0.63910 1.94500
H 	H 	0.89590 0.73480 0.59500 -1.83600
C 	C 	0.75260 0.68170 0.84200 0.36800
H 	H 	0.75780 0.64440 0.86090 -0.81800
H 	H 	0.71660 0.68580 0.81680 -2.05000
H 	H 	0.75650 0.70570 0.89270 -0.18300
H 	H 	0.83420 0.79950 0.64330 0.31900
O 	O 	0.35275 0.94520 0.08930 -0.23100
O 	O 	0.41792 0.89916 0.16850 -2.92600
C 	C 	0.36860 0.90810 0.14200 -0.61800
C 	C 	0.32642 0.86834 0.17640 3.13300
C 	C 	0.33969 0.82940 0.24100 0.84100
H 	H 	0.37540 0.82880 0.26640 -1.38700
C 	C 	0.30066 0.79140 0.26840 0.82400
H 	H 	0.30990 0.76470 0.31230 3.77400
C 	C 	0.23517 0.83130 0.16650 -0.03500
C 	C 	0.18210 0.83040 0.11410 0.10200
H 	H 	0.15800 0.80200 0.13850 0.32000
H 	H 	0.16410 0.86620 0.11900 -0.31100
H 	H 	0.18990 0.82250 0.05080 -0.00200
C 	C 	0.24843 0.79237 0.23120 -3.63100
C 	C 	0.27419 0.86932 0.13910 1.89900
H 	H 	0.26520 0.89590 0.09500 -1.81900
C 	C 	0.31830 0.75260 0.34200 0.35600
H 	H 	0.35560 0.75780 0.36090 -0.82200
H 	H 	0.31420 0.71660 0.31680 -2.01900
H 	H 	0.29430 0.75650 0.39270 -0.21200
H 	H 	0.20050 0.83420 0.14330 0.34300
O 	O 	0.64725 0.05480 0.08930 -0.16900
O 	O 	0.58208 0.10084 0.16850 -3.04900
C 	C 	0.63140 0.09190 0.14200 -0.53300
C 	C 	0.67358 0.13166 0.17640 3.24900
C 	C 	0.66031 0.17060 0.24100 0.81700
H 	H 	0.62460 0.17120 0.26640 -1.46500
C 	C 	0.69934 0.20860 0.26840 0.92000
H 	H 	0.69010 0.23530 0.31230 4.31500
C 	C 	0.76483 0.16870 0.16650 0.01800
C 	C 	0.81790 0.16960 0.11410 0.08300
H 	H 	0.84200 0.19800 0.13850 0.22700
H 	H 	0.83590 0.13380 0.11900 -0.41200
H 	H 	0.81010 0.17750 0.05080 -0.00700
C 	C 	0.75157 0.20763 0.23120 -4.00400
C 	C 	0.72581 0.13068 0.13910 2.01700
H 	H 	0.73480 0.10410 0.09500 -1.98700
C 	C 	0.68170 0.24740 0.34200 0.37900
H 	H 	0.64440 0.24220 0.36090 -0.95600
H 	H 	0.68580 0.28340 0.31680 -2.33200
H 	H 	0.70570 0.24350 0.39270 -0.23500
H 	H 	0.79950 0.16580 0.14330 0.58300
Zr	Zr	0.07167 0.50000 0.61938 4.19200
O 	O 	0.05430 0.50000 0.76480 0.60900
O 	O 	0.16149 0.50000 0.60840 -0.09800
H 	H 	0.17070 0.50000 0.55330 0.09400
C 	C 	0.04934 0.50000 0.95300 0.40300
H 	H 	0.08310 0.50000 0.92110 0.51400
Zr	Zr	0.92833 0.50000 0.61938 4.18900
O 	O 	0.94570 0.50000 0.76480 0.48200
O 	O 	0.83851 0.50000 0.60840 -0.14300
H 	H 	0.82930 0.50000 0.55330 0.10700
C 	C 	0.95066 0.50000 0.95300 0.50300
H 	H 	0.91690 0.50000 0.92110 0.42500
Zr	Zr	0.50000 0.07167 0.11938 4.20400
O 	O 	0.50000 0.05430 0.26480 0.82000
O 	O 	0.50000 0.16149 0.10840 -0.39100
H 	H 	0.50000 0.17070 0.05330 0.38800
C 	C 	0.50000 0.04934 0.45300 0.63300
H 	H 	0.50000 0.08310 0.42110 0.47400
Zr	Zr	0.50000 0.92833 0.11938 4.19400
O 	O 	0.50000 0.94570 0.26480 0.65600
O 	O 	0.50000 0.83851 0.10840 -0.31900
H 	H 	0.50000 0.82930 0.05330 0.27200
C 	C 	0.50000 0.95066 0.45300 0.75500
H 	H 	0.50000 0.91690 0.42110 0.35300
Zr	Zr	0.92833 0.50000 0.38062 4.19700
O 	O 	0.94570 0.50000 0.23520 0.65700
O 	O 	0.83851 0.50000 0.39160 -0.39300
H 	H 	0.82930 0.50000 0.44670 0.36300
C 	C 	0.95066 0.50000 0.04700 0.78100
H 	H 	0.91690 0.50000 0.07890 0.31600
Zr	Zr	0.07167 0.50000 0.38062 4.20000
O 	O 	0.05430 0.50000 0.23520 0.78400
O 	O 	0.16149 0.50000 0.39160 -0.33400
H 	H 	0.17070 0.50000 0.44670 0.33500
C 	C 	0.04934 0.50000 0.04700 0.67300
H 	H 	0.08310 0.50000 0.07890 0.41100
Zr	Zr	0.50000 0.07167 0.88062 4.18400
O 	O 	0.50000 0.05430 0.73520 0.79200
O 	O 	0.50000 0.16149 0.89160 0.30800
H 	H 	0.50000 0.17070 0.94670 -0.03900
C 	C 	0.50000 0.04934 0.54700 0.63000
H 	H 	0.50000 0.08310 0.57890 0.39500
Zr	Zr	0.50000 0.92833 0.88062 4.18300
O 	O 	0.50000 0.94570 0.73520 0.61300
O 	O 	0.50000 0.83851 0.89160 0.05900
H 	H 	0.50000 0.82930 0.94670 0.12900
C 	C 	0.50000 0.95066 0.54700 0.77400
H 	H 	0.50000 0.91690 0.57890 0.27900
Zr	Zr	0.00000 0.60101 0.50000 3.90500
Zr	Zr	-0.00000 0.39899 0.50000 3.90500
Zr	Zr	0.39899 0.00000 -0.00000 3.88500
Zr	Zr	0.60101 0.00000 -0.00000 3.88500
O 	O 	0.00000 0.54410 0.59870 -2.36500
O 	O 	0.00000 0.55580 0.63340 -0.80400
H 	H 	0.00000 0.57930 0.68360 2.24100
O 	O 	0.00000 0.45590 0.59870 -2.40400
O 	O 	0.00000 0.44420 0.63340 -0.83500
H 	H 	0.00000 0.42070 0.68360 2.20800
O 	O 	0.45590 -0.00000 0.09870 -2.34600
O 	O 	0.44420 0.00000 0.13340 -0.79700
H 	H 	0.42070 0.00000 0.18360 2.13900
O 	O 	0.54410 -0.00000 0.09870 -2.34600
O 	O 	0.55580 0.00000 0.13340 -0.79700
H 	H 	0.57930 0.00000 0.18360 2.15000
O 	O 	0.00000 0.54410 0.40130 -2.36800
O 	O 	0.00000 0.55580 0.36660 -0.84100
H 	H 	0.00000 0.57930 0.31640 2.16000
O 	O 	0.00000 0.45590 0.40130 -2.32300
O 	O 	0.00000 0.44420 0.36660 -0.80600
H 	H 	0.00000 0.42070 0.31640 2.17200
O 	O 	0.54410 0.00000 0.90130 -2.35400
O 	O 	0.55580 0.00000 0.86660 -0.70800
H 	H 	0.57930 0.00000 0.81640 2.22000
O 	O 	0.45590 0.00000 0.90130 -2.35000
O 	O 	0.44420 0.00000 0.86660 -0.70500
H 	H 	0.42070 0.00000 0.81640 2.21100
O 	O 	0.06280 0.54160 0.50000 -1.36600
O 	O 	0.08160 0.55650 0.50000 -0.09400
H 	H 	0.11290 0.57920 0.50000 0.52400
O 	O 	0.93720 0.45840 0.50000 -1.44300
O 	O 	0.91840 0.44350 0.50000 -0.13400
H 	H 	0.88710 0.42080 0.50000 0.64400
O 	O 	0.45840 0.06280 -0.00000 -1.39500
O 	O 	0.44350 0.08160 -0.00000 -0.13800
H 	H 	0.42080 0.11290 -0.00000 0.44800
O 	O 	0.54160 0.93720 -0.00000 -1.45600
O 	O 	0.55650 0.91840 -0.00000 -0.15900
H 	H 	0.57920 0.88710 -0.00000 0.59100
O 	O 	0.93720 0.54160 0.50000 -1.43800
O 	O 	0.91840 0.55650 0.50000 -0.13100
H 	H 	0.88710 0.57920 0.50000 0.64200
O 	O 	0.06280 0.45840 0.50000 -1.37100
O 	O 	0.08160 0.44350 0.50000 -0.09800
H 	H 	0.11290 0.42080 0.50000 0.52600
O 	O 	0.54160 0.06280 -0.00000 -1.39100
O 	O 	0.55650 0.08160 -0.00000 -0.13500
H 	H 	0.57920 0.11290 -0.00000 0.44600
O 	O 	0.45840 0.93720 -0.00000 -1.46000
O 	O 	0.44350 0.91840 -0.00000 -0.16200
H 	H 	0.42080 0.88710 -0.00000 0.59300
C 	C 	0.00000 0.50000 0.80510 -0.70400
C 	C 	-0.00000 0.50000 0.90640 -1.54200
C 	C 	0.50000 0.00000 0.30510 -0.87500
C 	C 	0.50000 -0.00000 0.40640 -1.97200
C 	C 	-0.00000 0.50000 0.19490 -0.85100
C 	C 	0.00000 0.50000 0.09360 -1.98100
C 	C 	0.50000 0.00000 0.69490 -0.83300
C 	C 	0.50000 0.00000 0.59360 -1.85400
