data_crystal

_cell_length_a 14.66750
_cell_length_b 14.66750
_cell_length_c 14.66750
_cell_angle_alpha 60.00000
_cell_angle_beta  60.00000
_cell_angle_gamma 60.00000

_symmetry_space_group_name_	'P 1'
_symmetry_space_group_name_H-M	'P 1'

loop_
_symmetry_equiv_pos_as_xyz
  x,y,z

loop_
_atom_site_label
_atom_site_type_symbol
_atom_site_fract_x
_atom_site_fract_y
_atom_site_fract_z
_atom_site_charge
C 	C 	0.91980 0.08020 0.44840 0.08000
O 	O 	0.92340 0.07660 0.26860 -0.61700
H 	H 	0.85249 0.14751 0.40954 0.03200
C 	C 	0.08020 0.91980 0.55160 0.08600
O 	O 	0.07660 0.92340 0.73140 -0.59700
H 	H 	0.14751 0.85249 0.59046 0.03200
C 	C 	0.44840 0.55160 0.91980 0.09300
O 	O 	0.26860 0.73140 0.92340 -0.60800
H 	H 	0.40954 0.59046 0.85249 0.03500
C 	C 	0.55160 0.44840 0.08020 0.01700
O 	O 	0.73140 0.26860 0.07660 -0.67800
H 	H 	0.59046 0.40954 0.14751 0.04000
C 	C 	0.44840 0.91980 0.08020 0.08100
O 	O 	0.26860 0.92340 0.07660 -0.61600
H 	H 	0.40954 0.85249 0.14751 0.03300
C 	C 	0.55160 0.08020 0.91980 0.08700
O 	O 	0.73140 0.07660 0.92340 -0.59600
H 	H 	0.59046 0.14751 0.85249 0.03300
C 	C 	0.91980 0.44840 0.55160 0.09400
O 	O 	0.92340 0.26860 0.73140 -0.60700
H 	H 	0.85249 0.40954 0.59046 0.03600
C 	C 	0.08020 0.55160 0.44840 0.01800
O 	O 	0.07660 0.73140 0.26860 -0.67700
H 	H 	0.14751 0.59046 0.40954 0.04000
C 	C 	0.08020 0.44840 0.91980 0.08100
O 	O 	0.07660 0.26860 0.92340 -0.61600
H 	H 	0.14751 0.40954 0.85249 0.03300
C 	C 	0.91980 0.55160 0.08020 0.08700
O 	O 	0.92340 0.73140 0.07660 -0.59600
H 	H 	0.85249 0.59046 0.14751 0.03300
C 	C 	0.55160 0.91980 0.44840 0.09400
O 	O 	0.73140 0.92340 0.26860 -0.60700
H 	H 	0.59046 0.85249 0.40954 0.03600
C 	C 	0.44840 0.08020 0.55160 0.01800
O 	O 	0.26860 0.07660 0.73140 -0.67700
H 	H 	0.40954 0.14751 0.59046 0.04000
C 	C 	0.08020 0.91980 0.44840 0.08100
O 	O 	0.07660 0.92340 0.26860 -0.61600
H 	H 	0.14751 0.85249 0.40954 0.03300
C 	C 	0.91980 0.08020 0.55160 0.08700
O 	O 	0.92340 0.07660 0.73140 -0.59600
H 	H 	0.85249 0.14751 0.59046 0.03300
C 	C 	0.55160 0.44840 0.91980 0.09400
O 	O 	0.73140 0.26860 0.92340 -0.60700
H 	H 	0.59046 0.40954 0.85249 0.03600
C 	C 	0.44840 0.55160 0.08020 0.01800
O 	O 	0.26860 0.73140 0.07660 -0.67700
H 	H 	0.40954 0.59046 0.14751 0.04000
C 	C 	0.91980 0.44840 0.08020 0.08100
O 	O 	0.92340 0.26860 0.07660 -0.61600
H 	H 	0.85249 0.40954 0.14751 0.03300
C 	C 	0.08020 0.55160 0.91980 0.08700
O 	O 	0.07660 0.73140 0.92340 -0.59600
H 	H 	0.14751 0.59046 0.85249 0.03300
C 	C 	0.44840 0.91980 0.55160 0.09400
O 	O 	0.26860 0.92340 0.73140 -0.60700
H 	H 	0.40954 0.85249 0.59046 0.03600
C 	C 	0.55160 0.08020 0.44840 0.01800
O 	O 	0.73140 0.07660 0.26860 -0.67700
H 	H 	0.59046 0.14751 0.40954 0.04000
C 	C 	0.44840 0.08020 0.91980 0.08100
O 	O 	0.26860 0.07660 0.92340 -0.61600
H 	H 	0.40954 0.14751 0.85249 0.03300
C 	C 	0.55160 0.91980 0.08020 0.08700
O 	O 	0.73140 0.92340 0.07660 -0.59600
H 	H 	0.59046 0.85249 0.14751 0.03300
C 	C 	0.91980 0.55160 0.44840 0.09400
O 	O 	0.92340 0.73140 0.26860 -0.60700
H 	H 	0.85249 0.59046 0.40954 0.03600
C 	C 	0.08020 0.44840 0.55160 0.01800
O 	O 	0.07660 0.26860 0.73140 -0.67700
H 	H 	0.14751 0.40954 0.59046 0.04000
Zr	Zr	0.87960 0.12040 0.12040 3.21300
Zr	Zr	0.12040 0.87960 0.87960 3.21800
Zr	Zr	0.12040 0.87960 0.12040 3.21300
Zr	Zr	0.87960 0.12040 0.87960 3.21800
Zr	Zr	0.12040 0.12040 0.87960 3.21300
Zr	Zr	0.87960 0.87960 0.12040 3.21800
C 	C 	-0.00000 0.00000 0.29460 0.42900
C 	C 	-0.00000 0.00000 0.40380 -0.23500
C 	C 	0.00000 0.00000 0.70540 0.39500
C 	C 	-0.00000 0.00000 0.59620 -0.23700
C 	C 	0.29460 0.70540 -0.00000 0.48900
C 	C 	0.40380 0.59620 -0.00000 -0.18000
C 	C 	0.70540 0.29460 -0.00000 0.48900
C 	C 	0.59620 0.40380 -0.00000 -0.18000
C 	C 	0.29460 0.00000 -0.00000 0.42900
C 	C 	0.40380 0.00000 -0.00000 -0.23500
C 	C 	0.70540 0.00000 -0.00000 0.39500
C 	C 	0.59620 0.00000 -0.00000 -0.23700
C 	C 	0.00000 0.29460 0.70540 0.48900
C 	C 	0.00000 0.40380 0.59620 -0.18000
C 	C 	-0.00000 0.70540 0.29460 0.48900
C 	C 	0.00000 0.59620 0.40380 -0.18000
C 	C 	-0.00000 0.29460 -0.00000 0.42900
C 	C 	-0.00000 0.40380 -0.00000 -0.23500
C 	C 	0.00000 0.70540 -0.00000 0.39500
C 	C 	-0.00000 0.59620 -0.00000 -0.23700
C 	C 	0.70540 0.00000 0.29460 0.48900
C 	C 	0.59620 0.00000 0.40380 -0.18000
C 	C 	0.29460 0.00000 0.70540 0.48900
C 	C 	0.40380 0.00000 0.59620 -0.18000
O 	O 	0.94390 0.16830 0.94390 -1.14900
O 	O 	0.05610 0.83170 0.05610 -1.33800
O 	O 	0.16830 0.94390 0.94390 -1.14900
O 	O 	0.83170 0.05610 0.05610 -1.33800
O 	O 	0.94390 0.94390 0.94390 -1.07200
O 	O 	0.05610 0.05610 0.05610 -1.36000
O 	O 	0.94390 0.94390 0.16830 -1.14900
O 	O 	0.05610 0.05610 0.83170 -1.33800
H 	H 	0.09200 0.09200 0.09200 0.03400
H 	H 	0.09200 0.09200 0.72400 0.03700
H 	H 	0.09200 0.72400 0.09200 0.03700
H 	H 	0.72400 0.09200 0.09200 0.03700
