data_crystal

_cell_length_a 12.45800
_cell_length_b 12.45800
_cell_length_c 24.67300
_cell_angle_alpha 90.00000
_cell_angle_beta  90.00000
_cell_angle_gamma 120.00000

_symmetry_space_group_name_	'P 1'
_symmetry_space_group_name_H-M	'P 1'

loop_
_symmetry_equiv_pos_as_xyz
  x,y,z

loop_
_atom_site_label
_atom_site_type_symbol
_atom_site_fract_x
_atom_site_fract_y
_atom_site_fract_z
_atom_site_charge
Zn	Zn	-0.00000 0.00000 0.66667 1.19100
Zn	Zn	0.00000 0.00000 0.33333 1.19000
Zn	Zn	-0.00000 0.00000 -0.00000 1.18800
H 	H 	0.35220 0.07710 0.75530 0.07400
H 	H 	0.32830 0.02510 0.69960 0.07500
H 	H 	0.23300 0.89130 0.79500 0.07800
H 	H 	0.13360 0.66570 0.79450 0.16700
H 	H 	0.11850 0.59090 0.73960 0.15800
H 	H 	0.03720 0.65600 0.74920 0.17000
H 	H 	0.20710 0.70570 0.65240 0.18400
H 	H 	0.27080 0.85350 0.65150 0.22200
H 	H 	0.12370 0.76960 0.65800 0.18400
H 	H 	0.72490 0.64780 0.42197 0.09800
H 	H 	0.69680 0.67170 0.36627 0.11300
H 	H 	0.65830 0.76700 0.46167 0.08800
H 	H 	0.53210 0.86640 0.46117 0.23900
H 	H 	0.47240 0.88150 0.40627 0.24100
H 	H 	0.61880 0.96280 0.41587 0.27000
H 	H 	0.49860 0.79290 0.31907 0.22500
H 	H 	0.58270 0.72920 0.31817 0.23300
H 	H 	0.64590 0.87630 0.32467 0.25400
H 	H 	0.92290 0.27510 0.08863 0.08900
H 	H 	0.97490 0.30320 0.03293 0.11800
H 	H 	0.10870 0.34170 0.12833 0.07900
H 	H 	0.33430 0.46790 0.12783 0.20600
H 	H 	0.40910 0.52760 0.07293 0.20600
H 	H 	0.34400 0.38120 0.08253 0.21800
H 	H 	0.29430 0.50140 0.98573 0.23300
H 	H 	0.14650 0.41730 0.98483 0.22800
H 	H 	0.23040 0.35410 0.99133 0.24100
H 	H 	0.64780 0.92290 0.75530 0.10800
H 	H 	0.67170 0.97490 0.69960 0.14300
H 	H 	0.76700 0.10870 0.79500 0.08500
H 	H 	0.86640 0.33430 0.79450 0.22400
H 	H 	0.88150 0.40910 0.73960 0.22500
H 	H 	0.96280 0.34400 0.74920 0.24800
H 	H 	0.79290 0.29430 0.65240 0.20900
H 	H 	0.72920 0.14650 0.65150 0.20000
H 	H 	0.87630 0.23040 0.65800 0.22900
H 	H 	0.27510 0.35220 0.42197 0.08100
H 	H 	0.30320 0.32830 0.36627 0.10200
H 	H 	0.34170 0.23300 0.46167 0.07100
H 	H 	0.46790 0.13360 0.46117 0.15300
H 	H 	0.52760 0.11850 0.40627 0.14500
H 	H 	0.38120 0.03720 0.41587 0.14800
H 	H 	0.50140 0.20710 0.31907 0.16600
H 	H 	0.41730 0.27080 0.31817 0.18000
H 	H 	0.35410 0.12370 0.32467 0.15500
H 	H 	0.07710 0.72490 0.08863 0.08900
H 	H 	0.02510 0.69680 0.03293 0.09000
H 	H 	0.89130 0.65830 0.12833 0.08400
H 	H 	0.66570 0.53210 0.12783 0.20600
H 	H 	0.59090 0.47240 0.07293 0.20100
H 	H 	0.65600 0.61880 0.08253 0.22100
H 	H 	0.70570 0.49860 0.98573 0.24100
H 	H 	0.85350 0.58270 0.98483 0.26300
H 	H 	0.76960 0.64590 0.99133 0.25300
H 	H 	0.27510 0.92290 0.91137 0.10200
H 	H 	0.30320 0.97490 0.96707 0.14400
H 	H 	0.34170 0.10870 0.87167 0.07400
H 	H 	0.46790 0.33430 0.87217 0.18600
H 	H 	0.52760 0.40910 0.92707 0.18400
H 	H 	0.38120 0.34400 0.91747 0.19800
H 	H 	0.50140 0.29430 0.01427 0.14600
H 	H 	0.41730 0.14650 0.01517 0.13800
H 	H 	0.35410 0.23040 0.00867 0.15200
H 	H 	0.07710 0.35220 0.24470 0.07500
H 	H 	0.02510 0.32830 0.30040 0.08400
H 	H 	0.89130 0.23300 0.20500 0.07100
H 	H 	0.66570 0.13360 0.20550 0.15300
H 	H 	0.59090 0.11850 0.26040 0.14300
H 	H 	0.65600 0.03720 0.25080 0.14900
H 	H 	0.70570 0.20710 0.34760 0.17100
H 	H 	0.85350 0.27080 0.34850 0.19800
H 	H 	0.76960 0.12370 0.34200 0.16300
H 	H 	0.64780 0.72490 0.57803 0.10000
H 	H 	0.67170 0.69680 0.63373 0.11500
H 	H 	0.76700 0.65830 0.53833 0.08500
H 	H 	0.86640 0.53210 0.53883 0.22300
H 	H 	0.88150 0.47240 0.59373 0.22200
H 	H 	0.96280 0.61880 0.58413 0.24800
H 	H 	0.79290 0.49860 0.68093 0.21400
H 	H 	0.72920 0.58270 0.68183 0.22400
H 	H 	0.87630 0.64590 0.67533 0.23600
H 	H 	0.72490 0.07710 0.91137 0.08300
H 	H 	0.69680 0.02510 0.96707 0.08600
H 	H 	0.65830 0.89130 0.87167 0.07900
H 	H 	0.53210 0.66570 0.87217 0.18500
H 	H 	0.47240 0.59090 0.92707 0.17800
H 	H 	0.61880 0.65600 0.91747 0.19800
H 	H 	0.49860 0.70570 0.01427 0.16400
H 	H 	0.58270 0.85350 0.01517 0.19900
H 	H 	0.64590 0.76960 0.00867 0.17500
H 	H 	0.92290 0.64780 0.24470 0.10000
H 	H 	0.97490 0.67170 0.30040 0.12800
H 	H 	0.10870 0.76700 0.20500 0.08500
H 	H 	0.33430 0.86640 0.20550 0.24100
H 	H 	0.40910 0.88150 0.26040 0.24400
H 	H 	0.34400 0.96280 0.25080 0.27100
H 	H 	0.29430 0.79290 0.34760 0.22200
H 	H 	0.14650 0.72920 0.34850 0.21500
H 	H 	0.23040 0.87630 0.34200 0.25000
H 	H 	0.35220 0.27510 0.57803 0.07900
H 	H 	0.32830 0.30320 0.63373 0.10100
H 	H 	0.23300 0.34170 0.53833 0.07300
H 	H 	0.13360 0.46790 0.53883 0.16800
H 	H 	0.11850 0.52760 0.59373 0.16300
H 	H 	0.03720 0.38120 0.58413 0.16800
H 	H 	0.20710 0.50140 0.68093 0.17600
H 	H 	0.27080 0.41730 0.68183 0.18800
H 	H 	0.12370 0.35410 0.67533 0.17200
Pt	Pt	0.50000 0.00000 0.73834 0.22600
Pt	Pt	0.50000 0.50000 0.40501 0.32100
Pt	Pt	1.00000 0.50000 0.07167 0.37800
Pt	Pt	0.50000 0.00000 0.92833 0.22800
Pt	Pt	1.00000 0.50000 0.26166 0.38000
Pt	Pt	0.50000 0.50000 0.59499 0.32100
Au	Au	0.39311 0.78622 0.83333 0.29100
Au	Au	0.39311 0.60690 0.50000 0.27700
Au	Au	0.21379 0.60690 0.16667 0.26800
Au	Au	0.60689 0.21378 0.83333 0.27100
Au	Au	0.60689 0.39310 0.50000 0.27400
Au	Au	0.78621 0.39310 0.16667 0.27600
C 	C 	0.21830 0.78010 0.72920 0.30000
C 	C 	0.22740 0.89640 0.75470 -0.14500
C 	C 	0.11810 0.66290 0.75550 -0.59400
C 	C 	0.20360 0.77690 0.66710 -0.61000
C 	C 	0.11240 0.90640 0.74100 0.36400
C 	C 	0.56180 0.78170 0.39587 0.38400
C 	C 	0.66900 0.77260 0.42137 -0.23700
C 	C 	0.54480 0.88190 0.42217 -0.75200
C 	C 	0.57330 0.79640 0.33377 -0.71300
C 	C 	0.79400 0.88760 0.40767 0.37100
C 	C 	0.21990 0.43820 0.06253 0.38400
C 	C 	0.10360 0.33100 0.08803 -0.29800
C 	C 	0.33710 0.45520 0.08883 -0.70000
C 	C 	0.22310 0.42670 0.00043 -0.75700
C 	C 	0.09360 0.20600 0.07433 0.39400
C 	C 	0.78170 0.21990 0.72920 0.37700
C 	C 	0.77260 0.10360 0.75470 -0.30600
C 	C 	0.88190 0.33710 0.75550 -0.72400
C 	C 	0.79640 0.22310 0.66710 -0.67900
C 	C 	0.88760 0.09360 0.74100 0.38500
C 	C 	0.43820 0.21830 0.39587 0.29500
C 	C 	0.33100 0.22740 0.42137 -0.22200
C 	C 	0.45520 0.11810 0.42217 -0.56900
C 	C 	0.42670 0.20360 0.33377 -0.57300
C 	C 	0.20600 0.11240 0.40767 0.38100
C 	C 	0.78010 0.56180 0.06253 0.37100
C 	C 	0.89640 0.66900 0.08803 -0.19600
C 	C 	0.66290 0.54480 0.08883 -0.69300
C 	C 	0.77690 0.57330 0.00043 -0.76800
C 	C 	0.90640 0.79400 0.07433 0.36700
C 	C 	0.43820 0.21990 0.93747 0.30900
C 	C 	0.33100 0.10360 0.91197 -0.28900
C 	C 	0.45520 0.33710 0.91117 -0.62800
C 	C 	0.42670 0.22310 0.99957 -0.50700
C 	C 	0.20600 0.09360 0.92567 0.38500
C 	C 	0.78010 0.21830 0.27080 0.29000
C 	C 	0.89640 0.22740 0.24530 -0.17300
C 	C 	0.66290 0.11810 0.24450 -0.56700
C 	C 	0.77690 0.20360 0.33290 -0.58300
C 	C 	0.90640 0.11240 0.25900 0.37000
C 	C 	0.78170 0.56180 0.60413 0.36700
C 	C 	0.77260 0.66900 0.57863 -0.23100
C 	C 	0.88190 0.54480 0.57783 -0.71800
C 	C 	0.79640 0.57330 0.66623 -0.68700
C 	C 	0.88760 0.79400 0.59233 0.36800
C 	C 	0.56180 0.78010 0.93747 0.29300
C 	C 	0.66900 0.89640 0.91197 -0.13800
C 	C 	0.54480 0.66290 0.91117 -0.61900
C 	C 	0.57330 0.77690 0.99957 -0.54200
C 	C 	0.79400 0.90640 0.92567 0.35600
C 	C 	0.21990 0.78170 0.27080 0.39200
C 	C 	0.10360 0.77260 0.24530 -0.28600
C 	C 	0.33710 0.88190 0.24450 -0.75800
C 	C 	0.22310 0.79640 0.33290 -0.70800
C 	C 	0.09360 0.88760 0.25900 0.38100
C 	C 	0.21830 0.43820 0.60413 0.31000
C 	C 	0.22740 0.33100 0.57863 -0.22800
C 	C 	0.11810 0.45520 0.57783 -0.60100
C 	C 	0.20360 0.42670 0.66623 -0.59600
C 	C 	0.11240 0.20600 0.59233 0.38300
S 	S 	0.37051 0.78842 0.74110 -0.20400
S 	S 	0.41791 0.62949 0.40777 -0.27500
S 	S 	0.21158 0.58209 0.07443 -0.29700
S 	S 	0.62949 0.21158 0.74110 -0.27500
S 	S 	0.58209 0.37051 0.40777 -0.25100
S 	S 	0.78842 0.41791 0.07443 -0.27500
S 	S 	0.58209 0.21158 0.92557 -0.25600
S 	S 	0.78842 0.37051 0.25890 -0.25100
S 	S 	0.62949 0.41791 0.59223 -0.27500
S 	S 	0.41791 0.78842 0.92557 -0.20600
S 	S 	0.21158 0.62949 0.25890 -0.30300
S 	S 	0.37051 0.58209 0.59223 -0.25000
N 	N 	0.34120 0.01060 0.73490 -0.26800
N 	N 	0.66940 0.65880 0.40157 -0.23200
N 	N 	0.98940 0.33060 0.06823 -0.20000
N 	N 	0.65880 0.98940 0.73490 -0.17300
N 	N 	0.33060 0.34120 0.40157 -0.22800
N 	N 	0.01060 0.66940 0.06823 -0.26600
N 	N 	0.33060 0.98940 0.93177 -0.17200
N 	N 	0.01060 0.34120 0.26510 -0.26700
N 	N 	0.65880 0.66940 0.59843 -0.23300
N 	N 	0.66940 0.01060 0.93177 -0.27100
N 	N 	0.98940 0.65880 0.26510 -0.20800
N 	N 	0.34120 0.33060 0.59843 -0.22700
O 	O 	0.12440 0.97200 0.69940 -0.41100
O 	O 	0.01880 0.84940 0.76850 -0.31500
O 	O 	0.84760 0.87560 0.36607 -0.40400
O 	O 	0.83060 0.98120 0.43517 -0.24300
O 	O 	0.02800 0.15240 0.03273 -0.53300
O 	O 	0.15060 0.16940 0.10183 -0.36200
O 	O 	0.87560 0.02800 0.69940 -0.49300
O 	O 	0.98120 0.15060 0.76850 -0.30300
O 	O 	0.15240 0.12440 0.36607 -0.51000
O 	O 	0.16940 0.01880 0.43517 -0.38300
O 	O 	0.97200 0.84760 0.03273 -0.39000
O 	O 	0.84940 0.83060 0.10183 -0.26700
O 	O 	0.15240 0.02800 0.96727 -0.53100
O 	O 	0.16940 0.15060 0.89817 -0.35600
O 	O 	0.97200 0.12440 0.30060 -0.44600
O 	O 	0.84940 0.01880 0.23150 -0.34500
O 	O 	0.87560 0.84760 0.63393 -0.40300
O 	O 	0.98120 0.83060 0.56483 -0.25100
O 	O 	0.84760 0.97200 0.96727 -0.37000
O 	O 	0.83060 0.84940 0.89817 -0.26600
O 	O 	0.02800 0.87560 0.30060 -0.45800
O 	O 	0.15060 0.98120 0.23150 -0.27400
O 	O 	0.12440 0.15240 0.63393 -0.51000
O 	O 	0.01880 0.16940 0.56483 -0.37500
