data_crystal

_cell_length_a 18.43650
_cell_length_b 16.75530
_cell_length_c 20.24410
_cell_angle_alpha 90.00000
_cell_angle_beta  114.32200
_cell_angle_gamma 90.00000

_symmetry_space_group_name_	'P 1'
_symmetry_space_group_name_H-M	'P 1'

loop_
_symmetry_equiv_pos_as_xyz
  x,y,z

loop_
_atom_site_label
_atom_site_type_symbol
_atom_site_fract_x
_atom_site_fract_y
_atom_site_fract_z
_atom_site_charge
Ag	Ag	0.01880 0.10457 0.51264 0.55900
Ag	Ag	0.17649 0.14670 0.53683 0.49900
Ag	Ag	0.04207 0.26572 0.49238 0.50600
Ag	Ag	0.13893 0.25378 0.40595 0.45200
Ag	Ag	0.02440 0.25890 0.24700 -0.11000
C 	C 	0.06710 0.16230 0.43750 -0.38700
C 	C 	0.04880 0.13440 0.37800 0.04700
C 	C 	0.02310 0.08920 0.31150 0.06900
C 	C 	0.02490 0.00660 0.31410 -0.00300
H 	H 	0.04250 0.97980 0.35820 0.09500
O 	O 	0.95240 0.14760 0.57610 -0.13500
O 	O 	0.96640 0.27670 0.55940 -0.09600
C 	C 	0.94010 0.21820 0.57980 0.09800
C 	C 	0.88580 0.23820 0.61860 1.22300
F 	F 	0.89600 0.19200 0.67170 -0.27300
F 	F 	0.81300 0.23400 0.57530 -0.25200
F 	F 	0.89600 0.30850 0.64600 -0.24200
O 	O 	0.08320 0.98760 0.56710 -0.24700
O 	O 	0.20900 0.02420 0.59800 -0.13700
C 	C 	0.15520 0.97810 0.59640 0.08000
C 	C 	0.18350 0.90000 0.64000 1.20300
F 	F 	0.14320 0.87470 0.67040 -0.36800
F 	F 	0.25260 0.90260 0.68750 -0.32100
F 	F 	0.18700 0.84450 0.59920 -0.27600
O 	O 	0.35980 0.20350 0.75270 -0.13300
O 	O 	0.27330 0.20850 0.63850 -0.28800
C 	C 	0.29360 0.19980 0.70450 0.05500
C 	C 	0.22500 0.18460 0.72790 1.32400
F 	F 	0.16020 0.16510 0.67720 -0.36900
F 	F 	0.21180 0.24590 0.75800 -0.22500
F 	F 	0.24290 0.12700 0.77400 -0.27600
F 	F 	0.85000 0.30410 0.59500 -0.27200
F 	F 	0.93070 0.24500 0.68590 -0.25700
F 	F 	0.83340 0.18380 0.60900 -0.26700
F 	F 	0.14010 0.84070 0.60590 -0.33400
F 	F 	0.25690 0.88280 0.65700 -0.14300
F 	F 	0.17500 0.91020 0.70090 -0.25000
F 	F 	0.25820 0.29770 0.20860 -0.29300
F 	F 	0.29760 0.38530 0.27930 -0.34300
F 	F 	0.33490 0.27400 0.30740 -0.34500
Ag	Ag	0.98120 0.10457 0.98736 0.58800
Ag	Ag	0.82351 0.14670 0.96317 0.50100
Ag	Ag	0.95793 0.26572 0.00762 0.53400
Ag	Ag	0.86107 0.25378 0.09405 0.45900
Ag	Ag	0.97560 0.25890 0.25300 -0.04600
C 	C 	0.93290 0.16230 0.06250 -0.37200
C 	C 	0.95120 0.13440 0.12200 0.05600
C 	C 	0.97690 0.08920 0.18850 0.09800
C 	C 	0.97510 0.00660 0.18590 0.03200
H 	H 	0.95750 0.97980 0.14180 0.09300
O 	O 	0.04760 0.14760 0.92390 -0.16000
O 	O 	0.03360 0.27670 0.94060 -0.12600
C 	C 	0.05990 0.21820 0.92020 0.09700
C 	C 	0.11420 0.23820 0.88140 1.22700
F 	F 	0.10400 0.19200 0.82830 -0.27900
F 	F 	0.18700 0.23400 0.92470 -0.25300
F 	F 	0.10400 0.30850 0.85400 -0.25000
O 	O 	0.91680 0.98760 0.93290 -0.22300
O 	O 	0.79100 0.02420 0.90200 -0.13600
C 	C 	0.84480 0.97810 0.90360 0.07900
C 	C 	0.81650 0.90000 0.86000 1.20100
F 	F 	0.85680 0.87470 0.82960 -0.35900
F 	F 	0.74740 0.90260 0.81250 -0.32100
F 	F 	0.81300 0.84450 0.90080 -0.27600
O 	O 	0.64020 0.20350 0.74730 -0.13300
O 	O 	0.72670 0.20850 0.86150 -0.28700
C 	C 	0.70640 0.19980 0.79550 0.05800
C 	C 	0.77500 0.18460 0.77210 1.31800
F 	F 	0.83980 0.16510 0.82280 -0.36200
F 	F 	0.78820 0.24590 0.74200 -0.22100
F 	F 	0.75710 0.12700 0.72600 -0.27400
F 	F 	0.15000 0.30410 0.90500 -0.27400
F 	F 	0.06930 0.24500 0.81410 -0.27100
F 	F 	0.16660 0.18380 0.89100 -0.26800
F 	F 	0.85990 0.84070 0.89410 -0.32400
F 	F 	0.74310 0.88280 0.84300 -0.14200
F 	F 	0.82500 0.91020 0.79910 -0.24800
F 	F 	0.74180 0.29770 0.29140 -0.29200
F 	F 	0.70240 0.38530 0.22070 -0.34200
F 	F 	0.66510 0.27400 0.19260 -0.34400
Ag	Ag	0.48120 0.39543 0.48736 0.57400
Ag	Ag	0.32351 0.35330 0.46317 0.50000
Ag	Ag	0.45793 0.23428 0.50762 0.51800
Ag	Ag	0.36107 0.24622 0.59405 0.45400
Ag	Ag	0.47560 0.24110 0.75300 -0.03700
C 	C 	0.43290 0.33770 0.56250 -0.37900
C 	C 	0.45120 0.36560 0.62200 0.04400
C 	C 	0.47690 0.41080 0.68850 0.09300
C 	C 	0.47510 0.49340 0.68590 -0.04300
H 	H 	0.45750 0.52020 0.64180 0.11300
O 	O 	0.54760 0.35240 0.42390 -0.14800
O 	O 	0.53360 0.22330 0.44060 -0.11100
C 	C 	0.55990 0.28180 0.42020 0.09800
C 	C 	0.61420 0.26180 0.38140 1.22400
F 	F 	0.60400 0.30800 0.32830 -0.27700
F 	F 	0.68700 0.26600 0.42470 -0.25200
F 	F 	0.60400 0.19150 0.35400 -0.24700
O 	O 	0.41680 0.51240 0.43290 -0.23500
O 	O 	0.29100 0.47580 0.40200 -0.13700
C 	C 	0.34480 0.52190 0.40360 0.07800
C 	C 	0.31650 0.60000 0.36000 1.20300
F 	F 	0.35680 0.62530 0.32960 -0.36500
F 	F 	0.24740 0.59740 0.31250 -0.32300
F 	F 	0.31300 0.65550 0.40080 -0.27600
O 	O 	0.14020 0.29650 0.24730 -0.13400
O 	O 	0.22670 0.29150 0.36150 -0.28800
C 	C 	0.20640 0.30020 0.29550 0.05600
C 	C 	0.27500 0.31540 0.27210 1.32100
F 	F 	0.33980 0.33490 0.32280 -0.36600
F 	F 	0.28820 0.25410 0.24200 -0.22300
F 	F 	0.25710 0.37300 0.22600 -0.27700
F 	F 	0.65000 0.19590 0.40500 -0.27300
F 	F 	0.56930 0.25500 0.31410 -0.26400
F 	F 	0.66660 0.31620 0.39100 -0.26700
F 	F 	0.35990 0.65930 0.39410 -0.33000
F 	F 	0.24310 0.61720 0.34300 -0.14400
F 	F 	0.32500 0.58980 0.29910 -0.25000
F 	F 	0.24180 0.20230 0.79140 -0.29300
F 	F 	0.20240 0.11470 0.72070 -0.34400
F 	F 	0.16510 0.22600 0.69260 -0.34800
Ag	Ag	0.51880 0.39543 0.01264 0.57500
Ag	Ag	0.67649 0.35330 0.03683 0.50300
Ag	Ag	0.54207 0.23428 0.99238 0.51800
Ag	Ag	0.63893 0.24622 0.90595 0.45400
Ag	Ag	0.52440 0.24110 0.74700 -0.03700
C 	C 	0.56710 0.33770 0.93750 -0.37900
C 	C 	0.54880 0.36560 0.87800 0.04500
C 	C 	0.52310 0.41080 0.81150 0.09300
C 	C 	0.52490 0.49340 0.81410 -0.04300
H 	H 	0.54250 0.52020 0.85820 0.11400
O 	O 	0.45240 0.35240 0.07610 -0.14800
O 	O 	0.46640 0.22330 0.05940 -0.11000
C 	C 	0.44010 0.28180 0.07980 0.09800
C 	C 	0.38580 0.26180 0.11860 1.22500
F 	F 	0.39600 0.30800 0.17170 -0.27700
F 	F 	0.31300 0.26600 0.07530 -0.25200
F 	F 	0.39600 0.19150 0.14600 -0.24700
O 	O 	0.58320 0.51240 0.06710 -0.23400
O 	O 	0.70900 0.47580 0.09800 -0.13300
C 	C 	0.65520 0.52190 0.09640 0.07800
C 	C 	0.68350 0.60000 0.14000 1.20200
F 	F 	0.64320 0.62530 0.17040 -0.36500
F 	F 	0.75260 0.59740 0.18750 -0.31900
F 	F 	0.68700 0.65550 0.09920 -0.27500
O 	O 	0.85980 0.29650 0.25270 -0.12400
O 	O 	0.77330 0.29150 0.13850 -0.28500
C 	C 	0.79360 0.30020 0.20450 0.05600
C 	C 	0.72500 0.31540 0.22790 1.32100
F 	F 	0.66020 0.33490 0.17720 -0.36600
F 	F 	0.71180 0.25410 0.25800 -0.22300
F 	F 	0.74290 0.37300 0.27400 -0.27400
F 	F 	0.35000 0.19590 0.09500 -0.27300
F 	F 	0.43070 0.25500 0.18590 -0.26400
F 	F 	0.33340 0.31620 0.10900 -0.26800
F 	F 	0.64010 0.65930 0.10590 -0.32900
F 	F 	0.75690 0.61720 0.15700 -0.14200
F 	F 	0.67500 0.58980 0.20090 -0.24800
F 	F 	0.75820 0.20230 0.70860 -0.29200
F 	F 	0.79760 0.11470 0.77930 -0.34000
F 	F 	0.83490 0.22600 0.80740 -0.34000
Ag	Ag	0.00000 0.26500 0.25000 0.65900
N 	N 	0.00000 0.13080 0.25000 -0.17400
C 	C 	0.00000 0.96530 0.25000 -0.01400
H 	H 	0.00000 0.90980 0.25000 0.19200
Ag	Ag	0.50000 0.23500 0.75000 0.59100
N 	N 	0.50000 0.36920 0.75000 -0.16300
C 	C 	0.50000 0.53470 0.75000 0.07000
H 	H 	0.50000 0.59020 0.75000 0.17300
Ag	Ag	0.51880 0.60457 0.51264 0.57400
Ag	Ag	0.67649 0.64670 0.53683 0.50200
Ag	Ag	0.54207 0.76572 0.49238 0.51800
Ag	Ag	0.63893 0.75378 0.40595 0.45400
Ag	Ag	0.52440 0.75890 0.24700 -0.03700
C 	C 	0.56710 0.66230 0.43750 -0.37900
C 	C 	0.54880 0.63440 0.37800 0.04500
C 	C 	0.52310 0.58920 0.31150 0.09300
C 	C 	0.52490 0.50660 0.31410 -0.04300
H 	H 	0.54250 0.47980 0.35820 0.11400
O 	O 	0.45240 0.64760 0.57610 -0.14900
O 	O 	0.46640 0.77670 0.55940 -0.11100
C 	C 	0.44010 0.71820 0.57980 0.09700
C 	C 	0.38580 0.73820 0.61860 1.22500
F 	F 	0.39600 0.69200 0.67170 -0.27700
F 	F 	0.31300 0.73400 0.57530 -0.25300
F 	F 	0.39600 0.80850 0.64600 -0.24700
O 	O 	0.58320 0.48760 0.56710 -0.23500
O 	O 	0.70900 0.52420 0.59800 -0.13300
C 	C 	0.65520 0.47810 0.59640 0.07800
C 	C 	0.68350 0.40000 0.64000 1.20200
F 	F 	0.64320 0.37470 0.67040 -0.36500
F 	F 	0.75260 0.40260 0.68750 -0.31900
F 	F 	0.68700 0.34450 0.59920 -0.27500
O 	O 	0.85980 0.70350 0.75270 -0.12400
O 	O 	0.77330 0.70850 0.63850 -0.28600
C 	C 	0.79360 0.69980 0.70450 0.05600
C 	C 	0.72500 0.68460 0.72790 1.32100
F 	F 	0.66020 0.66510 0.67720 -0.36600
F 	F 	0.71180 0.74590 0.75800 -0.22300
F 	F 	0.74290 0.62700 0.77400 -0.27400
F 	F 	0.35000 0.80410 0.59500 -0.27300
F 	F 	0.43070 0.74500 0.68590 -0.26500
F 	F 	0.33340 0.68380 0.60900 -0.26800
F 	F 	0.64010 0.34070 0.60590 -0.33000
F 	F 	0.75690 0.38280 0.65700 -0.14200
F 	F 	0.67500 0.41020 0.70090 -0.24800
F 	F 	0.75820 0.79770 0.20860 -0.29200
F 	F 	0.79760 0.88530 0.27930 -0.34000
F 	F 	0.83490 0.77400 0.30740 -0.34000
Ag	Ag	0.48120 0.60457 0.98736 0.57400
Ag	Ag	0.32351 0.64670 0.96317 0.50100
Ag	Ag	0.45793 0.76572 0.00762 0.51900
Ag	Ag	0.36107 0.75378 0.09405 0.45400
Ag	Ag	0.47560 0.75890 0.25300 -0.03700
C 	C 	0.43290 0.66230 0.06250 -0.37800
C 	C 	0.45120 0.63440 0.12200 0.04400
C 	C 	0.47690 0.58920 0.18850 0.09300
C 	C 	0.47510 0.50660 0.18590 -0.04300
H 	H 	0.45750 0.47980 0.14180 0.11300
O 	O 	0.54760 0.64760 0.92390 -0.14800
O 	O 	0.53360 0.77670 0.94060 -0.11100
C 	C 	0.55990 0.71820 0.92020 0.09800
C 	C 	0.61420 0.73820 0.88140 1.22400
F 	F 	0.60400 0.69200 0.82830 -0.27700
F 	F 	0.68700 0.73400 0.92470 -0.25200
F 	F 	0.60400 0.80850 0.85400 -0.24700
O 	O 	0.41680 0.48760 0.93290 -0.23500
O 	O 	0.29100 0.52420 0.90200 -0.13700
C 	C 	0.34480 0.47810 0.90360 0.07800
C 	C 	0.31650 0.40000 0.86000 1.20300
F 	F 	0.35680 0.37470 0.82960 -0.36500
F 	F 	0.24740 0.40260 0.81250 -0.32300
F 	F 	0.31300 0.34450 0.90080 -0.27600
O 	O 	0.14020 0.70350 0.74730 -0.13400
O 	O 	0.22670 0.70850 0.86150 -0.28800
C 	C 	0.20640 0.69980 0.79550 0.05600
C 	C 	0.27500 0.68460 0.77210 1.32100
F 	F 	0.33980 0.66510 0.82280 -0.36600
F 	F 	0.28820 0.74590 0.74200 -0.22300
F 	F 	0.25710 0.62700 0.72600 -0.27700
F 	F 	0.65000 0.80410 0.90500 -0.27300
F 	F 	0.56930 0.74500 0.81410 -0.26400
F 	F 	0.66660 0.68380 0.89100 -0.26700
F 	F 	0.35990 0.34070 0.89410 -0.33000
F 	F 	0.24310 0.38280 0.84300 -0.14400
F 	F 	0.32500 0.41020 0.79910 -0.25000
F 	F 	0.24180 0.79770 0.29140 -0.29300
F 	F 	0.20240 0.88530 0.22070 -0.34400
F 	F 	0.16510 0.77400 0.19260 -0.34800
Ag	Ag	0.98120 0.89543 0.48736 0.58900
Ag	Ag	0.82351 0.85330 0.46317 0.50200
Ag	Ag	0.95793 0.73428 0.50762 0.53200
Ag	Ag	0.86107 0.74622 0.59405 0.45800
Ag	Ag	0.97560 0.74110 0.75300 -0.04600
C 	C 	0.93290 0.83770 0.56250 -0.37500
C 	C 	0.95120 0.86560 0.62200 0.05500
C 	C 	0.97690 0.91080 0.68850 0.09700
C 	C 	0.97510 0.99340 0.68590 0.02900
H 	H 	0.95750 0.02020 0.64180 0.09500
O 	O 	0.04760 0.85240 0.42390 -0.15900
O 	O 	0.03360 0.72330 0.44060 -0.12600
C 	C 	0.05990 0.78180 0.42020 0.09700
C 	C 	0.11420 0.76180 0.38140 1.22700
F 	F 	0.10400 0.80800 0.32830 -0.27900
F 	F 	0.18700 0.76600 0.42470 -0.25300
F 	F 	0.10400 0.69150 0.35400 -0.25000
O 	O 	0.91680 0.01240 0.43290 -0.22300
O 	O 	0.79100 0.97580 0.40200 -0.13500
C 	C 	0.84480 0.02190 0.40360 0.07800
C 	C 	0.81650 0.10000 0.36000 1.20100
F 	F 	0.85680 0.12530 0.32960 -0.35900
F 	F 	0.74740 0.09740 0.31250 -0.32100
F 	F 	0.81300 0.15550 0.40080 -0.27600
O 	O 	0.64020 0.79650 0.24730 -0.13300
O 	O 	0.72670 0.79150 0.36150 -0.28700
C 	C 	0.70640 0.80020 0.29550 0.05800
C 	C 	0.77500 0.81540 0.27210 1.31700
F 	F 	0.83980 0.83490 0.32280 -0.36200
F 	F 	0.78820 0.75410 0.24200 -0.22100
F 	F 	0.75710 0.87300 0.22600 -0.27400
F 	F 	0.15000 0.69590 0.40500 -0.27400
F 	F 	0.06930 0.75500 0.31410 -0.27100
F 	F 	0.16660 0.81620 0.39100 -0.26800
F 	F 	0.85990 0.15930 0.39410 -0.32400
F 	F 	0.74310 0.11720 0.34300 -0.14200
F 	F 	0.82500 0.08980 0.29910 -0.24700
F 	F 	0.74180 0.70230 0.79140 -0.29200
F 	F 	0.70240 0.61470 0.72070 -0.34200
F 	F 	0.66510 0.72600 0.69260 -0.34400
Ag	Ag	0.01880 0.89543 0.01264 0.56000
Ag	Ag	0.17649 0.85330 0.03683 0.50100
Ag	Ag	0.04207 0.73428 0.99238 0.50800
Ag	Ag	0.13893 0.74622 0.90595 0.45300
Ag	Ag	0.02440 0.74110 0.74700 -0.10800
C 	C 	0.06710 0.83770 0.93750 -0.38600
C 	C 	0.04880 0.86560 0.87800 0.04800
C 	C 	0.02310 0.91080 0.81150 0.06800
C 	C 	0.02490 0.99340 0.81410 0.00100
H 	H 	0.04250 0.02020 0.85820 0.09200
O 	O 	0.95240 0.85240 0.07610 -0.13500
O 	O 	0.96640 0.72330 0.05940 -0.09500
C 	C 	0.94010 0.78180 0.07980 0.09800
C 	C 	0.88580 0.76180 0.11860 1.22300
F 	F 	0.89600 0.80800 0.17170 -0.27300
F 	F 	0.81300 0.76600 0.07530 -0.25200
F 	F 	0.89600 0.69150 0.14600 -0.24200
O 	O 	0.08320 0.01240 0.06710 -0.24600
O 	O 	0.20900 0.97580 0.09800 -0.13800
C 	C 	0.15520 0.02190 0.09640 0.08100
C 	C 	0.18350 0.10000 0.14000 1.20200
F 	F 	0.14320 0.12530 0.17040 -0.36800
F 	F 	0.25260 0.09740 0.18750 -0.32100
F 	F 	0.18700 0.15550 0.09920 -0.27500
O 	O 	0.35980 0.79650 0.25270 -0.13300
O 	O 	0.27330 0.79150 0.13850 -0.28800
C 	C 	0.29360 0.80020 0.20450 0.05500
C 	C 	0.22500 0.81540 0.22790 1.32400
F 	F 	0.16020 0.83490 0.17720 -0.36900
F 	F 	0.21180 0.75410 0.25800 -0.22400
F 	F 	0.24290 0.87300 0.27400 -0.27600
F 	F 	0.85000 0.69590 0.09500 -0.27100
F 	F 	0.93070 0.75500 0.18590 -0.25700
F 	F 	0.83340 0.81620 0.10900 -0.26700
F 	F 	0.14010 0.15930 0.10590 -0.33400
F 	F 	0.25690 0.11720 0.15700 -0.14300
F 	F 	0.17500 0.08980 0.20090 -0.25000
F 	F 	0.25820 0.70230 0.70860 -0.29300
F 	F 	0.29760 0.61470 0.77930 -0.34300
F 	F 	0.33490 0.72600 0.80740 -0.34400
Ag	Ag	0.50000 0.76500 0.25000 0.59100
N 	N 	0.50000 0.63080 0.25000 -0.16300
C 	C 	0.50000 0.46530 0.25000 0.07000
H 	H 	0.50000 0.40980 0.25000 0.17300
Ag	Ag	0.00000 0.73500 0.75000 0.65700
N 	N 	0.00000 0.86920 0.75000 -0.17300
C 	C 	0.00000 0.03470 0.75000 -0.01500
H 	H 	0.00000 0.09020 0.75000 0.19200
