data_crystal

_cell_length_a 8.61940
_cell_length_b 21.69500
_cell_length_c 13.35340
_cell_angle_alpha 90.00000
_cell_angle_beta  108.23800
_cell_angle_gamma 90.00000

_symmetry_space_group_name_	'P 1'
_symmetry_space_group_name_H-M	'P 1'

loop_
_symmetry_equiv_pos_as_xyz
  x,y,z

loop_
_atom_site_label
_atom_site_type_symbol
_atom_site_fract_x
_atom_site_fract_y
_atom_site_fract_z
_atom_site_charge
Ag	Ag	0.78561 0.52800 0.47393 0.51300
Ag	Ag	0.47713 0.55414 0.69872 0.51100
Ag	Ag	0.38729 0.53665 0.41144 0.44800
Ag	Ag	0.90200 0.53137 0.71179 0.36300
Ag	Ag	0.86337 0.67453 0.86010 0.60600
N 	N 	0.69160 0.71539 0.69830 -0.10800
N 	N 	0.50510 0.77472 0.51230 -0.10600
C 	C 	0.65540 0.56259 0.59340 -0.42700
C 	C 	0.64360 0.61821 0.60500 0.07000
C 	C 	0.62450 0.68433 0.60690 0.06400
C 	C 	0.66090 0.77580 0.69400 0.09600
H 	H 	0.70340 0.79910 0.75490 0.08000
C 	C 	0.56920 0.80502 0.60330 0.09400
H 	H 	0.55110 0.84720 0.60530 0.04900
C 	C 	0.53360 0.71404 0.51470 0.08900
H 	H 	0.49180 0.69110 0.45330 0.07100
O 	O 	0.67840 0.56475 0.30100 -0.25200
O 	O 	0.45780 0.61247 0.31840 -0.24500
C 	C 	0.57390 0.60673 0.28360 0.13400
C 	C 	0.58640 0.65880 0.20770 0.86600
F 	F 	0.44980 0.66290 0.12770 -0.70100
F 	F 	0.69400 0.65120 0.16400 -0.42000
F 	F 	0.59600 0.71390 0.25140 -0.22300
O 	O 	0.26170 0.61715 0.47230 -0.22900
O 	O 	0.05320 0.56327 0.48970 -0.29300
C 	C 	0.12540 0.61177 0.48140 0.04700
C 	C 	0.03660 0.67270 0.48390 1.15800
F 	F 	0.88110 0.66640 0.45030 -0.26100
F 	F 	0.07500 0.71630 0.43200 -0.25000
F 	F 	0.08300 0.69310 0.58100 -0.26500
O 	O 	0.24620 0.57371 0.72950 -0.27300
O 	O 	0.06180 0.62129 0.78550 -0.25400
C 	C 	0.20070 0.61480 0.77950 0.17700
C 	C 	0.33080 0.66120 0.83870 0.82500
F 	F 	0.37830 0.69520 0.77070 -0.40600
F 	F 	0.46300 0.63390 0.89980 -0.46600
F 	F 	0.28140 0.69907 0.89950 -0.37600
Ag	Ag	0.08900 0.45190 0.29630 0.11700
F 	F 	0.73700 0.66330 0.20300 -0.05200
F 	F 	0.56100 0.71180 0.24850 -0.13600
F 	F 	0.48900 0.65220 0.11740 0.28800
F 	F 	0.12010 0.71330 0.53800 -0.29100
F 	F 	0.91000 0.66980 0.50900 -0.33700
F 	F 	0.99800 0.69670 0.39090 -0.29200
Ag	Ag	0.71439 0.02800 0.02607 0.51100
Ag	Ag	0.02287 0.05414 0.80128 0.51300
Ag	Ag	0.11271 0.03665 0.08856 0.44600
Ag	Ag	0.59800 0.03137 0.78821 0.36100
Ag	Ag	0.63663 0.17453 0.63990 0.60600
N 	N 	0.80840 0.21539 0.80170 -0.10900
N 	N 	0.99490 0.27472 0.98770 -0.10700
C 	C 	0.84460 0.06259 0.90660 -0.42600
C 	C 	0.85640 0.11821 0.89500 0.06800
C 	C 	0.87550 0.18433 0.89310 0.06500
C 	C 	0.83910 0.27580 0.80600 0.09600
H 	H 	0.79660 0.29910 0.74510 0.08000
C 	C 	0.93080 0.30502 0.89670 0.09400
H 	H 	0.94890 0.34720 0.89470 0.04900
C 	C 	0.96640 0.21404 0.98530 0.08700
H 	H 	0.00820 0.19110 0.04670 0.07100
O 	O 	0.82160 0.06475 0.19900 -0.25200
O 	O 	0.04220 0.11247 0.18160 -0.24400
C 	C 	0.92610 0.10673 0.21640 0.13300
C 	C 	0.91360 0.15880 0.29230 0.86600
F 	F 	0.05020 0.16290 0.37230 -0.69000
F 	F 	0.80600 0.15120 0.33600 -0.42000
F 	F 	0.90400 0.21390 0.24860 -0.22500
O 	O 	0.23830 0.11715 0.02770 -0.23000
O 	O 	0.44680 0.06327 0.01030 -0.29400
C 	C 	0.37460 0.11177 0.01860 0.04700
C 	C 	0.46340 0.17270 0.01610 1.15700
F 	F 	0.61890 0.16640 0.04970 -0.26400
F 	F 	0.42500 0.21630 0.06800 -0.24800
F 	F 	0.41700 0.19310 0.91900 -0.26400
O 	O 	0.25380 0.07371 0.77050 -0.27100
O 	O 	0.43820 0.12129 0.71450 -0.25300
C 	C 	0.29930 0.11480 0.72050 0.17700
C 	C 	0.16920 0.16120 0.66130 0.82500
F 	F 	0.12170 0.19520 0.72930 -0.40500
F 	F 	0.03700 0.13390 0.60020 -0.46500
F 	F 	0.21860 0.19907 0.60050 -0.37600
Ag	Ag	0.41100 0.95190 0.20370 0.12000
F 	F 	0.76300 0.16330 0.29700 -0.05300
F 	F 	0.93900 0.21180 0.25150 -0.13500
F 	F 	0.01100 0.15220 0.38260 0.27800
F 	F 	0.37990 0.21330 0.96200 -0.29000
F 	F 	0.59000 0.16980 0.99100 -0.33500
F 	F 	0.50200 0.19670 0.10910 -0.29500
Ag	Ag	0.21439 0.47200 0.52607 0.51200
Ag	Ag	0.52287 0.44586 0.30128 0.51000
Ag	Ag	0.61271 0.46335 0.58856 0.44700
Ag	Ag	0.09800 0.46863 0.28821 0.36200
Ag	Ag	0.13663 0.32547 0.13990 0.60600
N 	N 	0.30840 0.28461 0.30170 -0.10800
N 	N 	0.49490 0.22528 0.48770 -0.10600
C 	C 	0.34460 0.43741 0.40660 -0.42700
C 	C 	0.35640 0.38179 0.39500 0.07000
C 	C 	0.37550 0.31567 0.39310 0.06400
C 	C 	0.33910 0.22420 0.30600 0.09600
H 	H 	0.29660 0.20090 0.24510 0.08000
C 	C 	0.43080 0.19498 0.39670 0.09400
H 	H 	0.44890 0.15280 0.39470 0.04900
C 	C 	0.46640 0.28596 0.48530 0.08900
H 	H 	0.50820 0.30890 0.54670 0.07100
O 	O 	0.32160 0.43525 0.69900 -0.25200
O 	O 	0.54220 0.38753 0.68160 -0.24500
C 	C 	0.42610 0.39327 0.71640 0.13400
C 	C 	0.41360 0.34120 0.79230 0.86600
F 	F 	0.55020 0.33710 0.87230 -0.70100
F 	F 	0.30600 0.34880 0.83600 -0.42000
F 	F 	0.40400 0.28610 0.74860 -0.22300
O 	O 	0.73830 0.38285 0.52770 -0.22900
O 	O 	0.94680 0.43673 0.51030 -0.29300
C 	C 	0.87460 0.38823 0.51860 0.04700
C 	C 	0.96340 0.32730 0.51610 1.15800
F 	F 	0.11890 0.33360 0.54970 -0.26100
F 	F 	0.92500 0.28370 0.56800 -0.25000
F 	F 	0.91700 0.30690 0.41900 -0.26500
O 	O 	0.75380 0.42629 0.27050 -0.27300
O 	O 	0.93820 0.37871 0.21450 -0.25400
C 	C 	0.79930 0.38520 0.22050 0.17700
C 	C 	0.66920 0.33880 0.16130 0.82500
F 	F 	0.62170 0.30480 0.22930 -0.40600
F 	F 	0.53700 0.36610 0.10020 -0.46600
F 	F 	0.71860 0.30093 0.10050 -0.37600
Ag	Ag	0.91100 0.54810 0.70370 0.11700
F 	F 	0.26300 0.33670 0.79700 -0.05200
F 	F 	0.43900 0.28820 0.75150 -0.13600
F 	F 	0.51100 0.34780 0.88260 0.28800
F 	F 	0.87990 0.28670 0.46200 -0.29100
F 	F 	0.09000 0.33020 0.49100 -0.33700
F 	F 	0.00200 0.30330 0.60910 -0.29200
Ag	Ag	0.28561 0.97200 0.97393 0.51100
Ag	Ag	0.97713 0.94586 0.19872 0.51300
Ag	Ag	0.88729 0.96335 0.91144 0.44600
Ag	Ag	0.40200 0.96863 0.21179 0.36100
Ag	Ag	0.36337 0.82547 0.36010 0.60600
N 	N 	0.19160 0.78461 0.19830 -0.10900
N 	N 	0.00510 0.72528 0.01230 -0.10700
C 	C 	0.15540 0.93741 0.09340 -0.42600
C 	C 	0.14360 0.88179 0.10500 0.06800
C 	C 	0.12450 0.81567 0.10690 0.06500
C 	C 	0.16090 0.72420 0.19400 0.09600
H 	H 	0.20340 0.70090 0.25490 0.08000
C 	C 	0.06920 0.69498 0.10330 0.09400
H 	H 	0.05110 0.65280 0.10530 0.04900
C 	C 	0.03360 0.78596 0.01470 0.08700
H 	H 	0.99180 0.80890 0.95330 0.07100
O 	O 	0.17840 0.93525 0.80100 -0.25200
O 	O 	0.95780 0.88753 0.81840 -0.24400
C 	C 	0.07390 0.89327 0.78360 0.13300
C 	C 	0.08640 0.84120 0.70770 0.86600
F 	F 	0.94980 0.83710 0.62770 -0.69000
F 	F 	0.19400 0.84880 0.66400 -0.42000
F 	F 	0.09600 0.78610 0.75140 -0.22500
O 	O 	0.76170 0.88285 0.97230 -0.23000
O 	O 	0.55320 0.93673 0.98970 -0.29400
C 	C 	0.62540 0.88823 0.98140 0.04700
C 	C 	0.53660 0.82730 0.98390 1.15700
F 	F 	0.38110 0.83360 0.95030 -0.26400
F 	F 	0.57500 0.78370 0.93200 -0.24800
F 	F 	0.58300 0.80690 0.08100 -0.26400
O 	O 	0.74620 0.92629 0.22950 -0.27100
O 	O 	0.56180 0.87871 0.28550 -0.25300
C 	C 	0.70070 0.88520 0.27950 0.17700
C 	C 	0.83080 0.83880 0.33870 0.82500
F 	F 	0.87830 0.80480 0.27070 -0.40500
F 	F 	0.96300 0.86610 0.39980 -0.46500
F 	F 	0.78140 0.80093 0.39950 -0.37600
Ag	Ag	0.58900 0.04810 0.79630 0.12000
F 	F 	0.23700 0.83670 0.70300 -0.05300
F 	F 	0.06100 0.78820 0.74850 -0.13500
F 	F 	0.98900 0.84780 0.61740 0.27800
F 	F 	0.62010 0.78670 0.03800 -0.29000
F 	F 	0.41000 0.83020 0.00900 -0.33500
F 	F 	0.49800 0.80330 0.89090 -0.29500
