data_crystal

_cell_length_a 15.53380
_cell_length_b 16.06010
_cell_length_c 17.22270
_cell_angle_alpha 90.00000
_cell_angle_beta  90.00000
_cell_angle_gamma 90.00000

_symmetry_space_group_name_	'P 1'
_symmetry_space_group_name_H-M	'P 1'

loop_
_symmetry_equiv_pos_as_xyz
  x,y,z

loop_
_atom_site_label
_atom_site_type_symbol
_atom_site_fract_x
_atom_site_fract_y
_atom_site_fract_z
_atom_site_charge
Ag	Ag	0.71893 0.29700 0.98184 0.51100
Ag	Ag	0.75869 0.45332 0.90260 0.43800
Ag	Ag	0.68826 0.31570 0.81691 0.33300
Ag	Ag	0.80979 0.17569 0.85841 0.22900
C 	C 	0.98170 0.29770 0.87100 -0.35000
C 	C 	0.02590 0.31110 0.80340 0.06800
H 	H 	0.99600 0.33090 0.76050 -0.15400
C 	C 	0.15010 0.26870 0.85950 0.24100
H 	H 	0.20880 0.25840 0.85540 -0.18700
C 	C 	0.02990 0.26750 0.93460 0.22700
H 	H 	0.00220 0.25710 0.98150 -0.12300
C 	C 	0.88940 0.31180 0.87790 -0.02600
C 	C 	0.81380 0.32940 0.87930 -0.46500
C 	C 	0.57240 0.49260 0.86500 -5.93300
C 	C 	0.48950 0.54380 0.88440 12.01500
F 	F 	0.42180 0.49340 0.88090 -1.00700
F 	F 	0.47760 0.60310 0.83010 -43.17400
F 	F 	0.49240 0.58090 0.95360 -0.26600
C 	C 	0.48630 0.53900 0.84620 4.35600
F 	F 	0.45110 0.55010 0.91630 -4.84600
F 	F 	0.43380 0.49500 0.80100 -0.75600
F 	F 	0.50100 0.61270 0.81340 38.96200
N 	N 	0.11370 0.25360 0.92870 -0.19500
N 	N 	0.11090 0.29670 0.79660 -0.28700
O 	O 	0.56610 0.41670 0.85710 1.21300
O 	O 	0.63790 0.53540 0.87130 0.32300
Ag	Ag	0.78107 0.70300 0.48184 0.48200
Ag	Ag	0.74131 0.54668 0.40260 0.41700
Ag	Ag	0.81174 0.68430 0.31691 0.34900
Ag	Ag	0.69021 0.82431 0.35841 -0.28800
C 	C 	0.51830 0.70230 0.37100 -0.54000
C 	C 	0.47410 0.68890 0.30340 -0.22300
H 	H 	0.50400 0.66910 0.26050 -0.26000
C 	C 	0.34990 0.73130 0.35950 0.46100
H 	H 	0.29120 0.74160 0.35540 -0.07300
C 	C 	0.47010 0.73250 0.43460 0.36400
H 	H 	0.49780 0.74290 0.48150 -0.19100
C 	C 	0.61060 0.68820 0.37790 -0.26200
C 	C 	0.68620 0.67060 0.37930 -0.47000
C 	C 	0.92760 0.50740 0.36500 -4.35200
C 	C 	0.01050 0.45620 0.38440 8.87400
F 	F 	0.07820 0.50660 0.38090 -0.82900
F 	F 	0.02240 0.39690 0.33010 -31.84700
F 	F 	0.00760 0.41910 0.45360 -0.23900
C 	C 	0.01370 0.46100 0.34620 3.47300
F 	F 	0.04890 0.44990 0.41630 -3.66800
F 	F 	0.06620 0.50500 0.30100 -0.68600
F 	F 	0.99900 0.38730 0.31340 28.57100
N 	N 	0.38630 0.74640 0.42870 -0.04800
N 	N 	0.38910 0.70330 0.29660 -0.30600
O 	O 	0.93390 0.58330 0.35710 0.87700
O 	O 	0.86210 0.46460 0.37130 0.16300
Ag	Ag	0.28107 0.79700 0.51816 0.53000
Ag	Ag	0.24131 0.95332 0.59740 0.44700
Ag	Ag	0.31174 0.81570 0.68309 0.30300
Ag	Ag	0.19021 0.67569 0.64159 -0.13200
C 	C 	0.01830 0.79770 0.62900 -0.66500
C 	C 	0.97410 0.81110 0.69660 0.17500
H 	H 	0.00400 0.83090 0.73950 -0.29400
C 	C 	0.84990 0.76870 0.64050 0.46300
H 	H 	0.79120 0.75840 0.64460 -0.17700
C 	C 	0.97010 0.76750 0.56540 0.48700
H 	H 	0.99780 0.75710 0.51850 -0.13100
C 	C 	0.11060 0.81180 0.62210 -0.07400
C 	C 	0.18620 0.82940 0.62070 -0.49300
C 	C 	0.42760 0.99260 0.63500 -5.48100
C 	C 	0.51050 0.04380 0.61560 11.06000
F 	F 	0.57820 0.99340 0.61910 -0.92500
F 	F 	0.52240 0.10310 0.66990 -39.86600
F 	F 	0.50760 0.08090 0.54640 -0.25500
C 	C 	0.51370 0.03900 0.65380 4.10400
F 	F 	0.54890 0.05010 0.58370 -4.48500
F 	F 	0.56620 0.99500 0.69900 -0.71500
F 	F 	0.49900 0.11270 0.68660 35.93100
N 	N 	0.88630 0.75360 0.57130 -0.10700
N 	N 	0.88910 0.79670 0.70340 -0.32000
O 	O 	0.43390 0.91670 0.64290 1.09400
O 	O 	0.36210 0.03540 0.62870 0.28400
Ag	Ag	0.21893 0.20300 0.01816 0.40200
Ag	Ag	0.25869 0.04668 0.09740 0.43600
Ag	Ag	0.18826 0.18430 0.18309 0.36600
Ag	Ag	0.30979 0.32431 0.14159 -0.34800
C 	C 	0.48170 0.20230 0.12900 -0.56900
C 	C 	0.52590 0.18890 0.19660 -0.24400
H 	H 	0.49600 0.16910 0.23950 -0.25900
C 	C 	0.65010 0.23130 0.14050 0.49200
H 	H 	0.70880 0.24160 0.14460 -0.14100
C 	C 	0.52990 0.23250 0.06540 0.38500
H 	H 	0.50220 0.24290 0.01850 -0.19600
C 	C 	0.38940 0.18820 0.12210 -0.27700
C 	C 	0.31380 0.17060 0.12070 -0.47000
C 	C 	0.07240 0.00740 0.13500 -1.41100
C 	C 	0.98950 0.95620 0.11560 3.54100
F 	F 	0.92180 0.00660 0.11910 -0.60100
F 	F 	0.97760 0.89690 0.16990 -12.27200
F 	F 	0.99240 0.91910 0.04640 -0.25400
C 	C 	0.98630 0.96100 0.15380 1.83600
F 	F 	0.95110 0.94990 0.08370 -1.62300
F 	F 	0.93380 0.00500 0.19900 -0.61400
F 	F 	0.00100 0.88730 0.18660 10.64100
N 	N 	0.61370 0.24640 0.07130 -0.04400
N 	N 	0.61090 0.20330 0.20340 -0.32400
O 	O 	0.06610 0.08330 0.14290 0.14600
O 	O 	0.13790 0.96460 0.12870 -0.25400
Ag	Ag	0.28107 0.70300 0.01816 0.51200
Ag	Ag	0.24131 0.54668 0.09740 0.43900
Ag	Ag	0.31174 0.68430 0.18309 0.33400
Ag	Ag	0.19021 0.82431 0.14159 0.23000
C 	C 	0.01830 0.70230 0.12900 -0.35000
C 	C 	0.97410 0.68890 0.19660 0.06800
H 	H 	0.00400 0.66910 0.23950 -0.15400
C 	C 	0.84990 0.73130 0.14050 0.24100
H 	H 	0.79120 0.74160 0.14460 -0.18700
C 	C 	0.97010 0.73250 0.06540 0.22700
H 	H 	0.99780 0.74290 0.01850 -0.12300
C 	C 	0.11060 0.68820 0.12210 -0.02600
C 	C 	0.18620 0.67060 0.12070 -0.46500
C 	C 	0.42760 0.50740 0.13500 -5.93300
C 	C 	0.51050 0.45620 0.11560 12.01500
F 	F 	0.57820 0.50660 0.11910 -1.00700
F 	F 	0.52240 0.39690 0.16990 -43.17400
F 	F 	0.50760 0.41910 0.04640 -0.26600
C 	C 	0.51370 0.46100 0.15380 4.35600
F 	F 	0.54890 0.44990 0.08370 -4.84600
F 	F 	0.56620 0.50500 0.19900 -0.75600
F 	F 	0.49900 0.38730 0.18660 38.96200
N 	N 	0.88630 0.74640 0.07130 -0.19500
N 	N 	0.88910 0.70330 0.20340 -0.28700
O 	O 	0.43390 0.58330 0.14290 1.21300
O 	O 	0.36210 0.46460 0.12870 0.32300
Ag	Ag	0.21893 0.29700 0.51816 0.48200
Ag	Ag	0.25869 0.45332 0.59740 0.41700
Ag	Ag	0.18826 0.31570 0.68309 0.34900
Ag	Ag	0.30979 0.17569 0.64159 -0.28800
C 	C 	0.48170 0.29770 0.62900 -0.54000
C 	C 	0.52590 0.31110 0.69660 -0.22300
H 	H 	0.49600 0.33090 0.73950 -0.26000
C 	C 	0.65010 0.26870 0.64050 0.46100
H 	H 	0.70880 0.25840 0.64460 -0.07300
C 	C 	0.52990 0.26750 0.56540 0.36400
H 	H 	0.50220 0.25710 0.51850 -0.19100
C 	C 	0.38940 0.31180 0.62210 -0.26200
C 	C 	0.31380 0.32940 0.62070 -0.47000
C 	C 	0.07240 0.49260 0.63500 -4.35200
C 	C 	0.98950 0.54380 0.61560 8.87400
F 	F 	0.92180 0.49340 0.61910 -0.82900
F 	F 	0.97760 0.60310 0.66990 -31.84700
F 	F 	0.99240 0.58090 0.54640 -0.23900
C 	C 	0.98630 0.53900 0.65380 3.47300
F 	F 	0.95110 0.55010 0.58370 -3.66800
F 	F 	0.93380 0.49500 0.69900 -0.68600
F 	F 	0.00100 0.61270 0.68660 28.57100
N 	N 	0.61370 0.25360 0.57130 -0.04800
N 	N 	0.61090 0.29670 0.70340 -0.30600
O 	O 	0.06610 0.41670 0.64290 0.87700
O 	O 	0.13790 0.53540 0.62870 0.16300
Ag	Ag	0.71893 0.20300 0.48184 0.53000
Ag	Ag	0.75869 0.04668 0.40260 0.44700
Ag	Ag	0.68826 0.18430 0.31691 0.30300
Ag	Ag	0.80979 0.32431 0.35841 -0.13200
C 	C 	0.98170 0.20230 0.37100 -0.66500
C 	C 	0.02590 0.18890 0.30340 0.17500
H 	H 	0.99600 0.16910 0.26050 -0.29400
C 	C 	0.15010 0.23130 0.35950 0.46300
H 	H 	0.20880 0.24160 0.35540 -0.17700
C 	C 	0.02990 0.23250 0.43460 0.48700
H 	H 	0.00220 0.24290 0.48150 -0.13100
C 	C 	0.88940 0.18820 0.37790 -0.07400
C 	C 	0.81380 0.17060 0.37930 -0.49300
C 	C 	0.57240 0.00740 0.36500 -5.48100
C 	C 	0.48950 0.95620 0.38440 11.06000
F 	F 	0.42180 0.00660 0.38090 -0.92500
F 	F 	0.47760 0.89690 0.33010 -39.86600
F 	F 	0.49240 0.91910 0.45360 -0.25500
C 	C 	0.48630 0.96100 0.34620 4.10400
F 	F 	0.45110 0.94990 0.41630 -4.48500
F 	F 	0.43380 0.00500 0.30100 -0.71500
F 	F 	0.50100 0.88730 0.31340 35.93100
N 	N 	0.11370 0.24640 0.42870 -0.10700
N 	N 	0.11090 0.20330 0.29660 -0.32000
O 	O 	0.56610 0.08330 0.35710 1.09400
O 	O 	0.63790 0.96460 0.37130 0.28400
Ag	Ag	0.78107 0.79700 0.98184 0.40200
Ag	Ag	0.74131 0.95332 0.90260 0.43600
Ag	Ag	0.81174 0.81570 0.81691 0.36600
Ag	Ag	0.69021 0.67569 0.85841 -0.34800
C 	C 	0.51830 0.79770 0.87100 -0.56900
C 	C 	0.47410 0.81110 0.80340 -0.24400
H 	H 	0.50400 0.83090 0.76050 -0.25900
C 	C 	0.34990 0.76870 0.85950 0.49200
H 	H 	0.29120 0.75840 0.85540 -0.14100
C 	C 	0.47010 0.76750 0.93460 0.38500
H 	H 	0.49780 0.75710 0.98150 -0.19600
C 	C 	0.61060 0.81180 0.87790 -0.27700
C 	C 	0.68620 0.82940 0.87930 -0.47000
C 	C 	0.92760 0.99260 0.86500 -1.41100
C 	C 	0.01050 0.04380 0.88440 3.54100
F 	F 	0.07820 0.99340 0.88090 -0.60100
F 	F 	0.02240 0.10310 0.83010 -12.27200
F 	F 	0.00760 0.08090 0.95360 -0.25400
C 	C 	0.01370 0.03900 0.84620 1.83600
F 	F 	0.04890 0.05010 0.91630 -1.62300
F 	F 	0.06620 0.99500 0.80100 -0.61400
F 	F 	0.99900 0.11270 0.81340 10.64100
N 	N 	0.38630 0.75360 0.92870 -0.04400
N 	N 	0.38910 0.79670 0.79660 -0.32400
O 	O 	0.93390 0.91670 0.85710 0.14600
O 	O 	0.86210 0.03540 0.87130 -0.25400
