data_crystal

_cell_length_a 10.72520
_cell_length_b 11.51850
_cell_length_c 17.74800
_cell_angle_alpha 99.14900
_cell_angle_beta  103.43800
_cell_angle_gamma 104.69700

_symmetry_space_group_name_	'P 1'
_symmetry_space_group_name_H-M	'P 1'

loop_
_symmetry_equiv_pos_as_xyz
  x,y,z

loop_
_atom_site_label
_atom_site_type_symbol
_atom_site_fract_x
_atom_site_fract_y
_atom_site_fract_z
_atom_site_charge
Ag	Ag	0.16853 0.67522 0.10130 0.51100
Ag	Ag	0.94928 0.58984 0.89674 0.44400
Ag	Ag	0.06308 0.59599 0.23247 0.44700
Ag	Ag	0.21110 0.41362 0.26674 0.47300
Ag	Ag	0.81087 0.47481 0.40340 0.57000
Ag	Ag	0.07928 0.64184 0.73778 0.39700
Ag	Ag	0.10089 0.55017 0.39164 0.50700
Ag	Ag	0.73879 0.03846 0.26579 0.58100
N 	N 	0.67540 0.83840 0.25870 -0.13700
C 	C 	0.23090 0.54290 0.18380 -0.40900
C 	C 	0.35080 0.59210 0.20380 0.14500
C 	C 	0.49410 0.65140 0.22870 -0.03900
C 	C 	0.54320 0.77790 0.23500 0.10900
H 	H 	0.48240 0.82170 0.22230 0.02400
C 	C 	0.76360 0.77620 0.27760 0.11300
H 	H 	0.85510 0.81830 0.29390 0.07000
C 	C 	0.72170 0.65000 0.27360 -0.03000
C 	C 	0.58500 0.58650 0.24760 0.05700
H 	H 	0.55500 0.50180 0.24290 0.04600
C 	C 	0.82100 0.58680 0.29460 0.12800
C 	C 	0.91220 0.54270 0.30790 -0.40800
O 	O 	0.83510 0.22320 0.36150 -0.30200
O 	O 	0.91820 0.35430 0.47790 -0.30200
C 	C 	0.88960 0.25130 0.43330 0.15600
C 	C 	0.92590 0.14910 0.47060 0.87500
F 	F 	0.82900 0.04880 0.45180 -0.29400
F 	F 	0.01900 0.12500 0.44100 -0.23900
F 	F 	0.97300 0.18200 0.54630 -0.17000
F 	F 	0.81700 0.07200 0.47110 -0.10500
F 	F 	0.98200 0.08500 0.43140 -0.18300
F 	F 	0.00200 0.18500 0.54130 -0.26200
O 	O 	0.88870 0.64120 0.14480 -0.26200
O 	O 	0.94400 0.63230 0.03160 -0.33900
C 	C 	0.86630 0.63480 0.07370 0.10100
C 	C 	0.72350 0.62930 0.02930 0.88700
F 	F 	0.65400 0.53120 0.97870 -0.26100
F 	F 	0.72800 0.70900 0.98700 0.12400
F 	F 	0.64600 0.65000 0.06850 -0.26700
F 	F 	0.67020 0.68650 0.07760 -0.21900
F 	F 	0.65300 0.51150 0.00700 -0.24500
F 	F 	0.71700 0.67700 0.96630 -0.63100
O 	O 	0.29490 0.35710 0.37500 -0.17100
O 	O 	0.22560 0.45470 0.46820 -0.25500
C 	C 	0.28520 0.38620 0.44280 0.11600
C 	C 	0.36550 0.33550 0.50580 1.05500
F 	F 	0.29600 0.28400 0.54750 -0.29400
F 	F 	0.46300 0.42500 0.55530 -0.21500
F 	F 	0.41500 0.25900 0.47540 -0.15100
F 	F 	0.46200 0.30500 0.48660 -0.30900
F 	F 	0.29100 0.24000 0.51590 -0.19900
F 	F 	0.42000 0.41010 0.57270 -0.33800
O 	O 	0.28920 0.72530 0.41700 -0.12800
O 	O 	0.20700 0.79800 0.31640 -0.11100
C 	C 	0.29010 0.81030 0.38160 0.06100
C 	C 	0.40900 0.93070 0.40710 1.05100
F 	F 	0.51700 0.91340 0.39990 -0.44100
F 	F 	0.43590 0.98070 0.47960 -0.31700
F 	F 	0.39400 0.01430 0.37090 -0.53400
O 	O 	0.26280 0.87340 0.18580 -0.19400
O 	O 	0.19230 0.79960 0.29610 -0.09100
C 	C 	0.22640 0.87600 0.25090 -0.02300
C 	C 	0.28600 0.00400 0.31910 1.19600
F 	F 	0.40400 0.05600 0.32040 -0.37100
F 	F 	0.28400 0.00940 0.38920 -0.43400
F 	F 	0.22000 0.07300 0.29370 -0.56400
Ag	Ag	0.83147 0.32478 0.89870 0.51100
Ag	Ag	0.05072 0.41016 0.10326 0.44400
Ag	Ag	0.93692 0.40401 0.76753 0.44700
Ag	Ag	0.78890 0.58638 0.73326 0.47300
Ag	Ag	0.18913 0.52519 0.59660 0.57000
Ag	Ag	0.92072 0.35816 0.26222 0.39700
Ag	Ag	0.89911 0.44983 0.60836 0.50700
Ag	Ag	0.26121 0.96154 0.73421 0.58100
N 	N 	0.32460 0.16160 0.74130 -0.13700
C 	C 	0.76910 0.45710 0.81620 -0.40900
C 	C 	0.64920 0.40790 0.79620 0.14500
C 	C 	0.50590 0.34860 0.77130 -0.03900
C 	C 	0.45680 0.22210 0.76500 0.10900
H 	H 	0.51760 0.17830 0.77770 0.02400
C 	C 	0.23640 0.22380 0.72240 0.11300
H 	H 	0.14490 0.18170 0.70610 0.07000
C 	C 	0.27830 0.35000 0.72640 -0.03000
C 	C 	0.41500 0.41350 0.75240 0.05700
H 	H 	0.44500 0.49820 0.75710 0.04600
C 	C 	0.17900 0.41320 0.70540 0.12800
C 	C 	0.08780 0.45730 0.69210 -0.40800
O 	O 	0.16490 0.77680 0.63850 -0.30200
O 	O 	0.08180 0.64570 0.52210 -0.30200
C 	C 	0.11040 0.74870 0.56670 0.15600
C 	C 	0.07410 0.85090 0.52940 0.87500
F 	F 	0.17100 0.95120 0.54820 -0.29400
F 	F 	0.98100 0.87500 0.55900 -0.23900
F 	F 	0.02700 0.81800 0.45370 -0.17000
F 	F 	0.18300 0.92800 0.52890 -0.10500
F 	F 	0.01800 0.91500 0.56860 -0.18300
F 	F 	0.99800 0.81500 0.45870 -0.26200
O 	O 	0.11130 0.35880 0.85520 -0.26200
O 	O 	0.05600 0.36770 0.96840 -0.33900
C 	C 	0.13370 0.36520 0.92630 0.10100
C 	C 	0.27650 0.37070 0.97070 0.88700
F 	F 	0.34600 0.46880 0.02130 -0.26100
F 	F 	0.27200 0.29100 0.01300 0.12400
F 	F 	0.35400 0.35000 0.93150 -0.26700
F 	F 	0.32980 0.31350 0.92240 -0.21900
F 	F 	0.34700 0.48850 0.99300 -0.24500
F 	F 	0.28300 0.32300 0.03370 -0.63100
O 	O 	0.70510 0.64290 0.62500 -0.17100
O 	O 	0.77440 0.54530 0.53180 -0.25500
C 	C 	0.71480 0.61380 0.55720 0.11600
C 	C 	0.63450 0.66450 0.49420 1.05500
F 	F 	0.70400 0.71600 0.45250 -0.29400
F 	F 	0.53700 0.57500 0.44470 -0.21500
F 	F 	0.58500 0.74100 0.52460 -0.15100
F 	F 	0.53800 0.69500 0.51340 -0.30900
F 	F 	0.70900 0.76000 0.48410 -0.19900
F 	F 	0.58000 0.58990 0.42730 -0.33800
O 	O 	0.71080 0.27470 0.58300 -0.12800
O 	O 	0.79300 0.20200 0.68360 -0.11100
C 	C 	0.70990 0.18970 0.61840 0.06100
C 	C 	0.59100 0.06930 0.59290 1.05100
F 	F 	0.48300 0.08660 0.60010 -0.44100
F 	F 	0.56410 0.01930 0.52040 -0.31700
F 	F 	0.60600 0.98570 0.62910 -0.53400
O 	O 	0.73720 0.12660 0.81420 -0.19400
O 	O 	0.80770 0.20040 0.70390 -0.09100
C 	C 	0.77360 0.12400 0.74910 -0.02300
C 	C 	0.71400 0.99600 0.68090 1.19600
F 	F 	0.59600 0.94400 0.67960 -0.37100
F 	F 	0.71600 0.99060 0.61080 -0.43400
F 	F 	0.78000 0.92700 0.70630 -0.56400
