data_crystal

_cell_length_a 18.79580
_cell_length_b 8.26220
_cell_length_c 18.85500
_cell_angle_alpha 90.00000
_cell_angle_beta  90.00000
_cell_angle_gamma 90.00000

_symmetry_space_group_name_	'P 1'
_symmetry_space_group_name_H-M	'P 1'

loop_
_symmetry_equiv_pos_as_xyz
  x,y,z

loop_
_atom_site_label
_atom_site_type_symbol
_atom_site_fract_x
_atom_site_fract_y
_atom_site_fract_z
_atom_site_charge
Ni	Ni	0.06364 0.98636 0.24743 1.11500
P 	P 	0.97321 0.79840 0.36017 0.44600
P 	P 	0.95890 0.16290 0.34609 0.44000
O 	O 	0.94000 0.63990 0.33800 -0.34400
O 	O 	0.96410 0.81540 0.44080 -0.34200
O 	O 	0.04980 0.82620 0.33600 -0.40500
O 	O 	0.91180 0.29850 0.31970 -0.35700
O 	O 	0.03450 0.16940 0.31550 -0.44900
O 	O 	0.95900 0.15970 0.42670 -0.35500
O 	O 	0.94958 0.95400 0.24127 -0.41600
H 	H 	0.93930 0.86270 0.22320 0.24700
N 	N 	0.67120 0.03860 0.23347 -0.22800
C 	C 	0.92517 0.96310 0.31462 -0.01100
C 	C 	0.84451 0.94040 0.32209 -0.06400
H 	H 	0.84210 0.03520 0.35140 0.03900
H 	H 	0.82570 0.87640 0.36030 0.06000
C 	C 	0.79429 0.01890 0.26917 -0.02900
C 	C 	0.81403 0.11870 0.21329 -0.03300
H 	H 	0.86300 0.14710 0.20590 0.06700
C 	C 	0.76085 0.17690 0.16790 -0.07000
H 	H 	0.77340 0.24480 0.12850 0.04600
C 	C 	0.69032 0.13700 0.17971 0.03100
H 	H 	0.65430 0.18030 0.14900 0.00800
C 	C 	0.72272 0.98190 0.27660 0.07000
H 	H 	0.70900 0.91170 0.31480 0.02300
Ni	Ni	0.43636 0.01364 0.74743 1.10400
P 	P 	0.52679 0.20160 0.86017 0.39400
P 	P 	0.54110 0.83710 0.84609 0.41200
O 	O 	0.56000 0.36010 0.83800 -0.33900
O 	O 	0.53590 0.18460 0.94080 -0.33700
O 	O 	0.45020 0.17380 0.83600 -0.36400
O 	O 	0.58820 0.70150 0.81970 -0.35600
O 	O 	0.46550 0.83060 0.81550 -0.38700
O 	O 	0.54100 0.84030 0.92670 -0.32500
O 	O 	0.55042 0.04600 0.74127 -0.47600
H 	H 	0.56070 0.13730 0.72320 0.25900
N 	N 	0.82880 0.96140 0.73347 -0.15200
C 	C 	0.57483 0.03690 0.81462 0.01400
C 	C 	0.65549 0.05960 0.82209 -0.31300
H 	H 	0.65790 0.96480 0.85140 0.14400
H 	H 	0.67430 0.12360 0.86030 0.12800
C 	C 	0.70571 0.98110 0.76917 0.20000
C 	C 	0.68597 0.88130 0.71329 -0.15300
H 	H 	0.63700 0.85290 0.70590 0.12000
C 	C 	0.73915 0.82310 0.66790 0.02200
H 	H 	0.72660 0.75520 0.62850 0.03400
C 	C 	0.80968 0.86300 0.67971 -0.00600
H 	H 	0.84570 0.81970 0.64900 0.04000
C 	C 	0.77728 0.01810 0.77660 -0.13800
H 	H 	0.79100 0.08830 0.81480 0.08100
Ni	Ni	0.93636 0.48636 0.25257 1.12500
P 	P 	0.02679 0.29840 0.13983 0.35600
P 	P 	0.04110 0.66290 0.15391 0.36400
O 	O 	0.06000 0.13990 0.16200 -0.37400
O 	O 	0.03590 0.31540 0.05920 -0.41500
O 	O 	0.95020 0.32620 0.16400 -0.33500
O 	O 	0.08820 0.79850 0.18030 -0.36200
O 	O 	0.96550 0.66940 0.18450 -0.36100
O 	O 	0.04100 0.65970 0.07330 -0.40500
O 	O 	0.05042 0.45400 0.25873 -0.48100
H 	H 	0.06070 0.36270 0.27680 0.25500
N 	N 	0.32880 0.53860 0.26653 -0.19400
C 	C 	0.07483 0.46310 0.18538 -0.00000
C 	C 	0.15549 0.44040 0.17791 -0.16900
H 	H 	0.15790 0.53520 0.14860 0.07900
H 	H 	0.17430 0.37640 0.13970 0.07500
C 	C 	0.20571 0.51890 0.23083 0.07100
C 	C 	0.18597 0.61870 0.28671 -0.08200
H 	H 	0.13700 0.64710 0.29410 0.08800
C 	C 	0.23915 0.67690 0.33210 -0.03000
H 	H 	0.22660 0.74480 0.37150 0.04900
C 	C 	0.30968 0.63700 0.32029 0.01700
H 	H 	0.34570 0.68030 0.35100 0.02700
C 	C 	0.27728 0.48190 0.22340 -0.02500
H 	H 	0.29100 0.41170 0.18520 0.04100
Ni	Ni	0.56364 0.51364 0.75257 1.11600
P 	P 	0.47321 0.70160 0.63983 0.39900
P 	P 	0.45890 0.33710 0.65391 0.40600
O 	O 	0.44000 0.86010 0.66200 -0.33600
O 	O 	0.46410 0.68460 0.55920 -0.36900
O 	O 	0.54980 0.67380 0.66400 -0.36600
O 	O 	0.41180 0.20150 0.68030 -0.36700
O 	O 	0.53450 0.33060 0.68450 -0.40300
O 	O 	0.45900 0.34030 0.57330 -0.37500
O 	O 	0.44958 0.54600 0.75873 -0.45500
H 	H 	0.43930 0.63730 0.77680 0.25600
N 	N 	0.17120 0.46140 0.76653 -0.19200
C 	C 	0.42517 0.53690 0.68538 -0.00100
C 	C 	0.34451 0.55960 0.67791 -0.17400
H 	H 	0.34210 0.46480 0.64860 0.08300
H 	H 	0.32570 0.62360 0.63970 0.08600
C 	C 	0.29429 0.48110 0.73083 0.07500
C 	C 	0.31403 0.38130 0.78671 -0.08300
H 	H 	0.36300 0.35290 0.79410 0.09300
C 	C 	0.26085 0.32310 0.83210 -0.02700
H 	H 	0.27340 0.25520 0.87150 0.05500
C 	C 	0.19032 0.36300 0.82029 0.02000
H 	H 	0.15430 0.31970 0.85100 0.03000
C 	C 	0.22272 0.51810 0.72340 -0.02600
H 	H 	0.20900 0.58830 0.68520 0.04600
Ni	Ni	0.93636 0.01364 0.75257 1.11300
P 	P 	0.02679 0.20160 0.63983 0.35300
P 	P 	0.04110 0.83710 0.65391 0.37000
O 	O 	0.06000 0.36010 0.66200 -0.35400
O 	O 	0.03590 0.18460 0.55920 -0.39000
O 	O 	0.95020 0.17380 0.66400 -0.33200
O 	O 	0.08820 0.70150 0.68030 -0.36400
O 	O 	0.96550 0.83060 0.68450 -0.35100
O 	O 	0.04100 0.84030 0.57330 -0.37600
O 	O 	0.05042 0.04600 0.75873 -0.49700
H 	H 	0.06070 0.13730 0.77680 0.26100
N 	N 	0.32880 0.96140 0.76653 -0.15500
C 	C 	0.07483 0.03690 0.68538 0.01200
C 	C 	0.15549 0.05960 0.67791 -0.29300
H 	H 	0.15790 0.96480 0.64860 0.13200
H 	H 	0.17430 0.12360 0.63970 0.11300
C 	C 	0.20571 0.98110 0.73083 0.18500
C 	C 	0.18597 0.88130 0.78671 -0.14100
H 	H 	0.13700 0.85290 0.79410 0.11600
C 	C 	0.23915 0.82310 0.83210 0.01600
H 	H 	0.22660 0.75520 0.87150 0.04700
C 	C 	0.30968 0.86300 0.82029 0.00100
H 	H 	0.34570 0.81970 0.85100 0.04500
C 	C 	0.27728 0.01810 0.72340 -0.12800
H 	H 	0.29100 0.08830 0.68520 0.07300
Ni	Ni	0.56364 0.98636 0.25257 1.12700
P 	P 	0.47321 0.79840 0.13983 0.40300
P 	P 	0.45890 0.16290 0.15391 0.40000
O 	O 	0.44000 0.63990 0.16200 -0.35700
O 	O 	0.46410 0.81540 0.05920 -0.39100
O 	O 	0.54980 0.82620 0.16400 -0.36900
O 	O 	0.41180 0.29850 0.18030 -0.36500
O 	O 	0.53450 0.16940 0.18450 -0.41300
O 	O 	0.45900 0.15970 0.07330 -0.40000
O 	O 	0.44958 0.95400 0.25873 -0.43900
H 	H 	0.43930 0.86270 0.27680 0.24900
N 	N 	0.17120 0.03860 0.26653 -0.22700
C 	C 	0.42517 0.96310 0.18538 -0.01100
C 	C 	0.34451 0.94040 0.17791 -0.05900
H 	H 	0.34210 0.03520 0.14860 0.03400
H 	H 	0.32570 0.87640 0.13970 0.05000
C 	C 	0.29429 0.01890 0.23083 -0.03000
C 	C 	0.31403 0.11870 0.28671 -0.02900
H 	H 	0.36300 0.14710 0.29410 0.06600
C 	C 	0.26085 0.17690 0.33210 -0.07000
H 	H 	0.27340 0.24480 0.37150 0.05600
C 	C 	0.19032 0.13700 0.32029 0.03500
H 	H 	0.15430 0.18030 0.35100 0.01300
C 	C 	0.22272 0.98190 0.22340 0.06800
H 	H 	0.20900 0.91170 0.18520 0.01700
Ni	Ni	0.06364 0.51364 0.74743 1.10600
P 	P 	0.97321 0.70160 0.86017 0.44100
P 	P 	0.95890 0.33710 0.84609 0.44500
O 	O 	0.94000 0.86010 0.83800 -0.32000
O 	O 	0.96410 0.68460 0.94080 -0.30600
O 	O 	0.04980 0.67380 0.83600 -0.39700
O 	O 	0.91180 0.20150 0.81970 -0.35900
O 	O 	0.03450 0.33060 0.81550 -0.43800
O 	O 	0.95900 0.34030 0.92670 -0.31700
O 	O 	0.94958 0.54600 0.74127 -0.43300
H 	H 	0.93930 0.63730 0.72320 0.25400
N 	N 	0.67120 0.46140 0.73347 -0.19100
C 	C 	0.92517 0.53690 0.81462 0.00200
C 	C 	0.84451 0.55960 0.82209 -0.18800
H 	H 	0.84210 0.46480 0.85140 0.09200
H 	H 	0.82570 0.62360 0.86030 0.09900
C 	C 	0.79429 0.48110 0.76917 0.08400
C 	C 	0.81403 0.38130 0.71329 -0.09200
H 	H 	0.86300 0.35290 0.70590 0.09500
C 	C 	0.76085 0.32310 0.66790 -0.02500
H 	H 	0.77340 0.25520 0.62850 0.04300
C 	C 	0.69032 0.36300 0.67971 0.01400
H 	H 	0.65430 0.31970 0.64900 0.02400
C 	C 	0.72272 0.51810 0.77660 -0.03000
H 	H 	0.70900 0.58830 0.81480 0.05300
Ni	Ni	0.43636 0.48636 0.24743 1.11500
P 	P 	0.52679 0.29840 0.36017 0.39900
P 	P 	0.54110 0.66290 0.34609 0.40600
O 	O 	0.56000 0.13990 0.33800 -0.36000
O 	O 	0.53590 0.31540 0.44080 -0.37600
O 	O 	0.45020 0.32620 0.33600 -0.37000
O 	O 	0.58820 0.79850 0.31970 -0.35400
O 	O 	0.46550 0.66940 0.31550 -0.40000
O 	O 	0.54100 0.65970 0.42670 -0.36800
O 	O 	0.55042 0.45400 0.24127 -0.45800
H 	H 	0.56070 0.36270 0.22320 0.25200
N 	N 	0.82880 0.53860 0.23347 -0.19300
C 	C 	0.57483 0.46310 0.31462 -0.00000
C 	C 	0.65549 0.44040 0.32209 -0.18000
H 	H 	0.65790 0.53520 0.35140 0.08700
H 	H 	0.67430 0.37640 0.36030 0.08600
C 	C 	0.70571 0.51890 0.26917 0.07800
C 	C 	0.68597 0.61870 0.21329 -0.09000
H 	H 	0.63700 0.64710 0.20590 0.09000
C 	C 	0.73915 0.67690 0.16790 -0.02700
H 	H 	0.72660 0.74480 0.12850 0.03800
C 	C 	0.80968 0.63700 0.17971 0.01200
H 	H 	0.84570 0.68030 0.14900 0.02300
C 	C 	0.77728 0.48190 0.27660 -0.02900
H 	H 	0.79100 0.41170 0.31480 0.04800
Ni	Ni	0.00000 0.00000 0.50000 1.05100
Ni	Ni	0.50000 0.00000 -0.00000 1.03900
Ni	Ni	-0.00000 0.50000 -0.00000 1.02500
Ni	Ni	0.50000 0.50000 0.50000 1.08600
