data_crystal

_cell_length_a 22.74100
_cell_length_b 22.74100
_cell_length_c 30.38000
_cell_angle_alpha 90.00000
_cell_angle_beta  90.00000
_cell_angle_gamma 120.00000

_symmetry_space_group_name_	'P 1'
_symmetry_space_group_name_H-M	'P 1'

loop_
_symmetry_equiv_pos_as_xyz
  x,y,z

loop_
_atom_site_label
_atom_site_type_symbol
_atom_site_fract_x
_atom_site_fract_y
_atom_site_fract_z
_atom_site_charge
Cu	Cu	0.82630 0.29400 0.11940 0.48400
Cu	Cu	0.81998 0.43126 0.13015 0.87700
Cu	Cu	0.67635 0.27839 0.13264 0.87400
Cu	Cu	0.10599 0.51049 0.17683 0.90300
N 	N 	0.73080 0.42540 0.12930 -0.24800
N 	N 	0.67330 0.36490 0.13180 -0.23800
N 	N 	0.64440 0.44330 0.13770 -0.30200
N 	N 	0.68530 0.19540 0.13420 -0.25000
N 	N 	0.74920 0.20330 0.13270 -0.27300
N 	N 	0.67820 0.09750 0.14830 -0.31400
N 	N 	0.91080 0.37720 0.13630 -0.25800
N 	N 	0.90840 0.43580 0.13660 -0.25300
N 	N 	0.01100 0.46170 0.15690 -0.30800
O 	O 	0.77550 0.33350 0.14980 -0.72000
H 	H 	0.77950 0.33210 0.17830 0.19400
O 	O 	0.85880 0.51360 0.09500 -0.43600
O 	O 	0.85730 0.45800 0.03620 -0.32100
O 	O 	0.97670 0.68270 0.89020 -0.37000
O 	O 	0.97130 0.58560 0.89980 -0.40400
O 	O 	0.59540 0.23280 0.09590 -0.41700
O 	O 	0.66800 0.26050 0.04110 -0.31300
O 	O 	0.47670 0.13080 0.87590 -0.40300
O 	O 	0.57810 0.14900 0.89600 -0.33400
C 	C 	0.75990 0.54810 0.13230 -0.83400
H 	H 	0.80160 0.55940 0.14700 0.26200
H 	H 	0.73860 0.57000 0.14690 0.25600
H 	H 	0.76920 0.56300 0.10230 0.27700
C 	C 	0.71340 0.47260 0.13350 0.29800
C 	C 	0.62160 0.37720 0.13560 0.27600
C 	C 	0.54650 0.32170 0.14070 -0.77000
H 	H 	0.52310 0.33890 0.15800 0.24400
H 	H 	0.54390 0.28290 0.15520 0.23800
H 	H 	0.52580 0.30860 0.11220 0.25900
C 	C 	0.56880 0.10200 0.15370 -0.83700
H 	H 	0.55880 0.13670 0.16220 0.25500
H 	H 	0.55530 0.06880 0.17670 0.25900
H 	H 	0.54430 0.08040 0.12720 0.27100
C 	C 	0.64300 0.13290 0.14560 0.30300
C 	C 	0.74190 0.14160 0.14110 0.34400
C 	C 	0.79780 0.12670 0.14210 -0.92000
H 	H 	0.78770 0.09140 0.16320 0.29200
H 	H 	0.83910 0.16690 0.15030 0.27400
H 	H 	0.80300 0.11200 0.11350 0.30400
C 	C 	0.99670 0.34330 0.15560 -0.72200
H 	H 	0.95830 0.29810 0.15670 0.21400
H 	H 	0.02160 0.35310 0.18270 0.21800
H 	H 	0.02560 0.34670 0.13150 0.23600
C 	C 	0.97230 0.39360 0.14910 0.27600
C 	C 	0.96920 0.48480 0.14790 0.31000
C 	C 	0.99020 0.55860 0.15160 -0.78400
H 	H 	0.95190 0.56280 0.16040 0.24200
H 	H 	0.00660 0.58030 0.12360 0.25600
H 	H 	0.02550 0.57990 0.17320 0.24500
C 	C 	0.87090 0.50990 0.05490 0.36800
C 	C 	0.90190 0.57540 0.02980 -0.12800
C 	C 	0.91610 0.63520 0.05030 0.03700
H 	H 	0.90790 0.63540 0.08030 0.01100
C 	C 	0.94300 0.69560 0.02610 -0.11100
H 	H 	0.94910 0.73520 0.03930 0.05900
C 	C 	0.96040 0.69590 0.98160 0.03100
H 	H 	0.98000 0.73580 0.96530 0.02300
C 	C 	0.94770 0.63530 0.96270 -0.10800
C 	C 	0.91980 0.57720 0.98520 0.04600
H 	H 	0.91190 0.53750 0.97140 0.03400
C 	C 	0.96440 0.62800 0.91270 0.35600
C 	C 	0.60900 0.23500 0.05480 0.32600
C 	C 	0.54920 0.20410 0.02270 -0.11200
C 	C 	0.48680 0.19070 0.03530 0.03600
H 	H 	0.48010 0.20100 0.06390 0.01100
C 	C 	0.43250 0.16160 0.00600 -0.11300
H 	H 	0.38880 0.15000 0.01480 0.05800
C 	C 	0.44650 0.15050 0.96240 0.03100
H 	H 	0.41190 0.13390 0.94160 0.01900
C 	C 	0.51020 0.16360 0.95000 -0.11200
C 	C 	0.56190 0.19300 0.98000 0.04000
H 	H 	0.60600 0.20550 0.97150 0.03700
C 	C 	0.52420 0.14710 0.90440 0.32000
C 	C 	0.05320 0.49890 0.25790 0.30700
C 	C 	0.02580 0.51920 0.29730 -0.09200
C 	C 	0.02340 0.57720 0.29560 0.01000
H 	H 	0.03690 0.60330 0.27010 0.02500
O 	O 	0.08000 0.54600 0.22800 -0.40000
O 	O 	0.04720 0.44230 0.25540 -0.32300
O 	O 	0.87570 0.25730 0.08690 -0.32000
Cu	Cu	0.82870 0.28950 0.13600 0.44800
Cu	Cu	0.70600 0.53230 0.78607 0.48600
Cu	Cu	0.56874 0.38872 0.79682 0.87800
Cu	Cu	0.72161 0.39796 0.79931 0.87500
Cu	Cu	0.48951 0.59550 0.84350 0.90500
N 	N 	0.57460 0.30540 0.79597 -0.24700
N 	N 	0.63510 0.30840 0.79847 -0.23700
N 	N 	0.55670 0.20110 0.80437 -0.30100
N 	N 	0.80460 0.48990 0.80087 -0.24900
N 	N 	0.79670 0.54590 0.79937 -0.27200
N 	N 	0.90250 0.58070 0.81497 -0.31100
N 	N 	0.62280 0.53360 0.80297 -0.26000
N 	N 	0.56420 0.47260 0.80327 -0.25500
N 	N 	0.53830 0.54930 0.82357 -0.30700
O 	O 	0.66650 0.44200 0.81647 -0.72000
H 	H 	0.66790 0.44740 0.84497 0.19400
O 	O 	0.48640 0.34520 0.76167 -0.43800
O 	O 	0.54200 0.39930 0.70287 -0.32200
O 	O 	0.31730 0.29400 0.55687 -0.37400
O 	O 	0.41440 0.38570 0.56647 -0.40700
O 	O 	0.76720 0.36260 0.76257 -0.41600
O 	O 	0.73950 0.40750 0.70777 -0.31200
O 	O 	0.86920 0.34590 0.54257 -0.40300
O 	O 	0.85100 0.42910 0.56267 -0.33300
C 	C 	0.45190 0.21180 0.79897 -0.83000
H 	H 	0.44060 0.24220 0.81367 0.25900
H 	H 	0.43000 0.16860 0.81357 0.25400
H 	H 	0.43700 0.20620 0.76897 0.27500
C 	C 	0.52740 0.24080 0.80017 0.29700
C 	C 	0.62280 0.24440 0.80227 0.27700
C 	C 	0.67830 0.22480 0.80737 -0.77100
H 	H 	0.66110 0.18420 0.82467 0.24500
H 	H 	0.71710 0.26100 0.82187 0.23900
H 	H 	0.69140 0.21720 0.77887 0.25900
C 	C 	0.89800 0.46680 0.82037 -0.84800
H 	H 	0.86330 0.42210 0.82887 0.26000
H 	H 	0.93120 0.48650 0.84337 0.26600
H 	H 	0.91960 0.46390 0.79387 0.27800
C 	C 	0.86710 0.51010 0.81227 0.30700
C 	C 	0.85840 0.60030 0.80777 0.34800
C 	C 	0.87330 0.67110 0.80877 -0.92700
H 	H 	0.90860 0.69630 0.82987 0.29700
H 	H 	0.83310 0.67220 0.81697 0.27600
H 	H 	0.88800 0.69100 0.78017 0.31000
C 	C 	0.65670 0.65340 0.82227 -0.79300
H 	H 	0.70190 0.66020 0.82337 0.23400
H 	H 	0.64690 0.66850 0.84937 0.24400
H 	H 	0.65330 0.67890 0.79817 0.26300
C 	C 	0.60640 0.57870 0.81577 0.28600
C 	C 	0.51520 0.48440 0.81457 0.32000
C 	C 	0.44140 0.43160 0.81827 -0.85600
H 	H 	0.43720 0.38910 0.82707 0.26100
H 	H 	0.41970 0.42630 0.79027 0.28200
H 	H 	0.42010 0.44560 0.83987 0.27100
C 	C 	0.49010 0.36100 0.72157 0.36800
C 	C 	0.42460 0.32650 0.69647 -0.13000
C 	C 	0.36480 0.28090 0.71697 0.03700
H 	H 	0.36460 0.27250 0.74697 0.00900
C 	C 	0.30440 0.24740 0.69277 -0.11400
H 	H 	0.26480 0.21390 0.70597 0.05600
C 	C 	0.30410 0.26450 0.64827 0.03100
H 	H 	0.26420 0.24420 0.63197 0.01900
C 	C 	0.36470 0.31240 0.62937 -0.11100
C 	C 	0.42280 0.34260 0.65187 0.04700
H 	H 	0.46250 0.37440 0.63807 0.03300
C 	C 	0.37200 0.33640 0.57937 0.35700
C 	C 	0.76500 0.37400 0.72147 0.32700
C 	C 	0.79590 0.34510 0.68937 -0.11200
C 	C 	0.80930 0.29610 0.70197 0.03700
H 	H 	0.79900 0.27910 0.73057 0.01200
C 	C 	0.83840 0.27090 0.67267 -0.11300
H 	H 	0.85000 0.23880 0.68147 0.05900
C 	C 	0.84950 0.29600 0.62907 0.03300
H 	H 	0.86610 0.27800 0.60827 0.01900
C 	C 	0.83640 0.34660 0.61667 -0.11100
C 	C 	0.80700 0.36890 0.64667 0.04100
H 	H 	0.79450 0.40050 0.63817 0.03700
C 	C 	0.85290 0.37710 0.57107 0.32100
C 	C 	0.50110 0.55430 0.92457 0.30800
C 	C 	0.48080 0.50660 0.96397 -0.09300
C 	C 	0.42280 0.44620 0.96227 0.00800
H 	H 	0.39670 0.43360 0.93677 0.02600
O 	O 	0.45400 0.53400 0.89467 -0.40100
O 	O 	0.55770 0.60490 0.92207 -0.32200
O 	O 	0.74270 0.61840 0.75357 -0.32100
Cu	Cu	0.71050 0.53920 0.80267 0.44700
Cu	Cu	0.46770 0.17370 0.45273 0.48600
Cu	Cu	0.61128 0.18002 0.46348 0.87800
Cu	Cu	0.60204 0.32365 0.46597 0.87500
Cu	Cu	0.40450 0.89401 0.51016 0.90500
N 	N 	0.69460 0.26920 0.46263 -0.24700
N 	N 	0.69160 0.32670 0.46513 -0.23700
N 	N 	0.79890 0.35560 0.47103 -0.30100
N 	N 	0.51010 0.31470 0.46753 -0.24900
N 	N 	0.45410 0.25080 0.46603 -0.27200
N 	N 	0.41930 0.32180 0.48163 -0.31200
N 	N 	0.46640 0.08920 0.46963 -0.26300
N 	N 	0.52740 0.09160 0.46993 -0.25800
N 	N 	0.45070 0.98900 0.49023 -0.30600
O 	O 	0.55800 0.22450 0.48313 -0.72000
H 	H 	0.55260 0.22050 0.51163 0.19300
O 	O 	0.65480 0.14120 0.42833 -0.43900
O 	O 	0.60070 0.14270 0.36953 -0.32300
O 	O 	0.70600 0.02330 0.22353 -0.37600
O 	O 	0.61430 0.02870 0.23313 -0.41000
O 	O 	0.63740 0.40460 0.42923 -0.41600
O 	O 	0.59250 0.33200 0.37443 -0.31300
O 	O 	0.65410 0.52330 0.20923 -0.40300
O 	O 	0.57090 0.42190 0.22933 -0.33400
C 	C 	0.78820 0.24010 0.46563 -0.82900
H 	H 	0.75780 0.19840 0.48033 0.25800
H 	H 	0.83140 0.26140 0.48023 0.25300
H 	H 	0.79380 0.23080 0.43563 0.27500
C 	C 	0.75920 0.28660 0.46683 0.29600
C 	C 	0.75560 0.37840 0.46893 0.27700
C 	C 	0.77520 0.45350 0.47403 -0.77200
H 	H 	0.81580 0.47690 0.49133 0.24500
H 	H 	0.73900 0.45610 0.48853 0.23900
H 	H 	0.78280 0.47420 0.44553 0.26000
C 	C 	0.53320 0.43120 0.48703 -0.84400
H 	H 	0.57790 0.44120 0.49553 0.25800
H 	H 	0.51350 0.44470 0.51003 0.26300
H 	H 	0.53610 0.45570 0.46053 0.27500
C 	C 	0.48990 0.35700 0.47893 0.30500
C 	C 	0.39970 0.25810 0.47443 0.34300
C 	C 	0.32890 0.20220 0.47543 -0.91500
H 	H 	0.30370 0.21230 0.49653 0.29000
H 	H 	0.32780 0.16090 0.48363 0.27000
H 	H 	0.30900 0.19700 0.44683 0.30300
C 	C 	0.34660 0.00330 0.48893 -0.85700
H 	H 	0.33980 0.04170 0.49003 0.25000
H 	H 	0.33150 0.97840 0.51603 0.26700
H 	H 	0.32110 0.97440 0.46483 0.28500
C 	C 	0.42130 0.02770 0.48243 0.29400
C 	C 	0.51560 0.03080 0.48123 0.33000
C 	C 	0.56840 0.00980 0.48493 -0.92900
H 	H 	0.61090 0.04810 0.49373 0.28100
H 	H 	0.57370 0.99340 0.45693 0.31000
H 	H 	0.55440 0.97450 0.50653 0.29700
C 	C 	0.63900 0.12910 0.38823 0.36800
C 	C 	0.67350 0.09810 0.36313 -0.13100
C 	C 	0.71910 0.08390 0.38363 0.03800
H 	H 	0.72750 0.09210 0.41363 0.00800
C 	C 	0.75260 0.05700 0.35943 -0.11500
H 	H 	0.78610 0.05090 0.37263 0.05700
C 	C 	0.73550 0.03960 0.31493 0.03200
H 	H 	0.75580 0.02000 0.29863 0.01900
C 	C 	0.68760 0.05230 0.29603 -0.11200
C 	C 	0.65740 0.08020 0.31853 0.04800
H 	H 	0.62560 0.08810 0.30473 0.03200
C 	C 	0.66360 0.03560 0.24603 0.35800
C 	C 	0.62600 0.39100 0.38813 0.32700
C 	C 	0.65490 0.45080 0.35603 -0.11200
C 	C 	0.70390 0.51320 0.36863 0.03800
H 	H 	0.72090 0.51990 0.39723 0.01200
C 	C 	0.72910 0.56750 0.33933 -0.11300
H 	H 	0.76120 0.61120 0.34813 0.06000
C 	C 	0.70400 0.55350 0.29573 0.03300
H 	H 	0.72200 0.58810 0.27493 0.02000
C 	C 	0.65340 0.48980 0.28333 -0.11100
C 	C 	0.63110 0.43810 0.31333 0.04100
H 	H 	0.59950 0.39400 0.30483 0.03700
C 	C 	0.62290 0.47580 0.23773 0.32100
C 	C 	0.44570 0.94680 0.59123 0.30800
C 	C 	0.49340 0.97420 0.63063 -0.08600
C 	C 	0.55380 0.97660 0.62893 0.01800
H 	H 	0.56640 0.96310 0.60343 0.02400
O 	O 	0.46600 0.92000 0.56133 -0.40100
O 	O 	0.39510 0.95280 0.58873 -0.32000
O 	O 	0.38160 0.12430 0.42023 -0.32400
Cu	Cu	0.46080 0.17130 0.46933 0.44700
Cu	Cu	0.29400 0.82630 0.88060 0.48600
Cu	Cu	0.43126 0.81998 0.86985 0.87800
Cu	Cu	0.27839 0.67635 0.86736 0.87500
Cu	Cu	0.51049 0.10599 0.82317 0.90400
N 	N 	0.42540 0.73080 0.87070 -0.24700
N 	N 	0.36490 0.67330 0.86820 -0.23700
N 	N 	0.44330 0.64440 0.86230 -0.30100
N 	N 	0.19540 0.68530 0.86580 -0.24900
N 	N 	0.20330 0.74920 0.86730 -0.27200
N 	N 	0.09750 0.67820 0.85170 -0.31300
N 	N 	0.37720 0.91080 0.86370 -0.25700
N 	N 	0.43580 0.90840 0.86340 -0.25200
N 	N 	0.46170 0.01100 0.84310 -0.30800
O 	O 	0.33350 0.77550 0.85020 -0.72000
H 	H 	0.33210 0.77950 0.82170 0.19400
O 	O 	0.51360 0.85880 0.90500 -0.43600
O 	O 	0.45800 0.85730 0.96380 -0.32100
O 	O 	0.68270 0.97670 0.10980 -0.37000
O 	O 	0.58560 0.97130 0.10020 -0.40400
O 	O 	0.23280 0.59540 0.90410 -0.41700
O 	O 	0.26050 0.66800 0.95890 -0.31300
O 	O 	0.13080 0.47670 0.12410 -0.40300
O 	O 	0.14900 0.57810 0.10400 -0.33400
C 	C 	0.54810 0.75990 0.86770 -0.83400
H 	H 	0.55940 0.80160 0.85300 0.26200
H 	H 	0.57000 0.73860 0.85310 0.25600
H 	H 	0.56300 0.76920 0.89770 0.27700
C 	C 	0.47260 0.71340 0.86650 0.29800
C 	C 	0.37720 0.62160 0.86440 0.27600
C 	C 	0.32170 0.54650 0.85930 -0.77000
H 	H 	0.33890 0.52310 0.84200 0.24400
H 	H 	0.28290 0.54390 0.84480 0.23800
H 	H 	0.30860 0.52580 0.88780 0.25900
C 	C 	0.10200 0.56880 0.84630 -0.83700
H 	H 	0.13670 0.55880 0.83780 0.25500
H 	H 	0.06880 0.55530 0.82330 0.25900
H 	H 	0.08040 0.54430 0.87280 0.27100
C 	C 	0.13290 0.64300 0.85440 0.30300
C 	C 	0.14160 0.74190 0.85890 0.34400
C 	C 	0.12670 0.79780 0.85790 -0.92000
H 	H 	0.09140 0.78770 0.83680 0.29200
H 	H 	0.16690 0.83910 0.84970 0.27400
H 	H 	0.11200 0.80300 0.88650 0.30400
C 	C 	0.34330 0.99670 0.84440 -0.72200
H 	H 	0.29810 0.95830 0.84330 0.21400
H 	H 	0.35310 0.02160 0.81730 0.21800
H 	H 	0.34670 0.02560 0.86850 0.23600
C 	C 	0.39360 0.97230 0.85090 0.27600
C 	C 	0.48480 0.96920 0.85210 0.31000
C 	C 	0.55860 0.99020 0.84840 -0.78400
H 	H 	0.56280 0.95190 0.83960 0.24200
H 	H 	0.58030 0.00660 0.87640 0.25600
H 	H 	0.57990 0.02550 0.82680 0.24500
C 	C 	0.50990 0.87090 0.94510 0.36700
C 	C 	0.57540 0.90190 0.97020 -0.12700
C 	C 	0.63520 0.91610 0.94970 0.03600
H 	H 	0.63540 0.90790 0.91970 0.01100
C 	C 	0.69560 0.94300 0.97390 -0.11000
H 	H 	0.73520 0.94910 0.96070 0.05900
C 	C 	0.69590 0.96040 0.01840 0.03000
H 	H 	0.73580 0.98000 0.03470 0.02300
C 	C 	0.63530 0.94770 0.03730 -0.10700
C 	C 	0.57720 0.91980 0.01480 0.04500
H 	H 	0.53750 0.91190 0.02860 0.03400
C 	C 	0.62800 0.96440 0.08730 0.35600
C 	C 	0.23500 0.60900 0.94520 0.32600
C 	C 	0.20410 0.54920 0.97730 -0.11200
C 	C 	0.19070 0.48680 0.96470 0.03600
H 	H 	0.20100 0.48010 0.93610 0.01200
C 	C 	0.16160 0.43250 0.99400 -0.11200
H 	H 	0.15000 0.38880 0.98520 0.05700
C 	C 	0.15050 0.44650 0.03760 0.03100
H 	H 	0.13390 0.41190 0.05840 0.01900
C 	C 	0.16360 0.51020 0.05000 -0.11100
C 	C 	0.19300 0.56190 0.02000 0.03900
H 	H 	0.20550 0.60600 0.02850 0.03700
C 	C 	0.14710 0.52420 0.09560 0.32000
C 	C 	0.49890 0.05320 0.74210 0.30700
C 	C 	0.51920 0.02580 0.70270 -0.09200
C 	C 	0.57720 0.02340 0.70440 0.01000
H 	H 	0.60330 0.03690 0.72990 0.02500
O 	O 	0.54600 0.08000 0.77200 -0.40000
O 	O 	0.44230 0.04720 0.74460 -0.32300
O 	O 	0.25730 0.87570 0.91310 -0.32000
Cu	Cu	0.28950 0.82870 0.86400 0.44800
Cu	Cu	0.53230 0.70600 0.21393 0.48600
Cu	Cu	0.38872 0.56874 0.20318 0.87800
Cu	Cu	0.39796 0.72161 0.20069 0.87500
Cu	Cu	0.59550 0.48951 0.15650 0.90500
N 	N 	0.30540 0.57460 0.20403 -0.24700
N 	N 	0.30840 0.63510 0.20153 -0.23700
N 	N 	0.20110 0.55670 0.19563 -0.30100
N 	N 	0.48990 0.80460 0.19913 -0.24900
N 	N 	0.54590 0.79670 0.20063 -0.27200
N 	N 	0.58070 0.90250 0.18503 -0.31100
N 	N 	0.53360 0.62280 0.19703 -0.26000
N 	N 	0.47260 0.56420 0.19673 -0.25500
N 	N 	0.54930 0.53830 0.17643 -0.30700
O 	O 	0.44200 0.66650 0.18353 -0.72000
H 	H 	0.44740 0.66790 0.15503 0.19400
O 	O 	0.34520 0.48640 0.23833 -0.43800
O 	O 	0.39930 0.54200 0.29713 -0.32200
O 	O 	0.29400 0.31730 0.44313 -0.37400
O 	O 	0.38570 0.41440 0.43353 -0.40700
O 	O 	0.36260 0.76720 0.23743 -0.41600
O 	O 	0.40750 0.73950 0.29223 -0.31200
O 	O 	0.34590 0.86920 0.45743 -0.40300
O 	O 	0.42910 0.85100 0.43733 -0.33300
C 	C 	0.21180 0.45190 0.20103 -0.83000
H 	H 	0.24220 0.44060 0.18633 0.25900
H 	H 	0.16860 0.43000 0.18643 0.25400
H 	H 	0.20620 0.43700 0.23103 0.27500
C 	C 	0.24080 0.52740 0.19983 0.29700
C 	C 	0.24440 0.62280 0.19773 0.27700
C 	C 	0.22480 0.67830 0.19263 -0.77100
H 	H 	0.18420 0.66110 0.17533 0.24500
H 	H 	0.26100 0.71710 0.17813 0.23900
H 	H 	0.21720 0.69140 0.22113 0.25900
C 	C 	0.46680 0.89800 0.17963 -0.84800
H 	H 	0.42210 0.86330 0.17113 0.26000
H 	H 	0.48650 0.93120 0.15663 0.26600
H 	H 	0.46390 0.91960 0.20613 0.27800
C 	C 	0.51010 0.86710 0.18773 0.30700
C 	C 	0.60030 0.85840 0.19223 0.34800
C 	C 	0.67110 0.87330 0.19123 -0.92700
H 	H 	0.69630 0.90860 0.17013 0.29700
H 	H 	0.67220 0.83310 0.18303 0.27600
H 	H 	0.69100 0.88800 0.21983 0.31000
C 	C 	0.65340 0.65670 0.17773 -0.79300
H 	H 	0.66020 0.70190 0.17663 0.23400
H 	H 	0.66850 0.64690 0.15063 0.24400
H 	H 	0.67890 0.65330 0.20183 0.26300
C 	C 	0.57870 0.60640 0.18423 0.28600
C 	C 	0.48440 0.51520 0.18543 0.32000
C 	C 	0.43160 0.44140 0.18173 -0.85600
H 	H 	0.38910 0.43720 0.17293 0.26100
H 	H 	0.42630 0.41970 0.20973 0.28200
H 	H 	0.44560 0.42010 0.16013 0.27100
C 	C 	0.36100 0.49010 0.27843 0.36800
C 	C 	0.32650 0.42460 0.30353 -0.13000
C 	C 	0.28090 0.36480 0.28303 0.03700
H 	H 	0.27250 0.36460 0.25303 0.00900
C 	C 	0.24740 0.30440 0.30723 -0.11400
H 	H 	0.21390 0.26480 0.29403 0.05600
C 	C 	0.26450 0.30410 0.35173 0.03100
H 	H 	0.24420 0.26420 0.36803 0.01900
C 	C 	0.31240 0.36470 0.37063 -0.11100
C 	C 	0.34260 0.42280 0.34813 0.04700
H 	H 	0.37440 0.46250 0.36193 0.03300
C 	C 	0.33640 0.37200 0.42063 0.35700
C 	C 	0.37400 0.76500 0.27853 0.32700
C 	C 	0.34510 0.79590 0.31063 -0.11200
C 	C 	0.29610 0.80930 0.29803 0.03700
H 	H 	0.27910 0.79900 0.26943 0.01200
C 	C 	0.27090 0.83840 0.32733 -0.11300
H 	H 	0.23880 0.85000 0.31853 0.05900
C 	C 	0.29600 0.84950 0.37093 0.03300
H 	H 	0.27800 0.86610 0.39173 0.01900
C 	C 	0.34660 0.83640 0.38333 -0.11100
C 	C 	0.36890 0.80700 0.35333 0.04100
H 	H 	0.40050 0.79450 0.36183 0.03700
C 	C 	0.37710 0.85290 0.42893 0.32100
C 	C 	0.55430 0.50110 0.07543 0.30800
C 	C 	0.50660 0.48080 0.03603 -0.09300
C 	C 	0.44620 0.42280 0.03773 0.00800
H 	H 	0.43360 0.39670 0.06323 0.02600
O 	O 	0.53400 0.45400 0.10533 -0.40100
O 	O 	0.60490 0.55770 0.07793 -0.32200
O 	O 	0.61840 0.74270 0.24643 -0.32100
Cu	Cu	0.53920 0.71050 0.19733 0.44700
Cu	Cu	0.17370 0.46770 0.54727 0.48600
Cu	Cu	0.18002 0.61128 0.53652 0.87800
Cu	Cu	0.32365 0.60204 0.53403 0.87500
Cu	Cu	0.89401 0.40450 0.48984 0.90500
N 	N 	0.26920 0.69460 0.53737 -0.24700
N 	N 	0.32670 0.69160 0.53487 -0.23700
N 	N 	0.35560 0.79890 0.52897 -0.30100
N 	N 	0.31470 0.51010 0.53247 -0.24900
N 	N 	0.25080 0.45410 0.53397 -0.27200
N 	N 	0.32180 0.41930 0.51837 -0.31200
N 	N 	0.08920 0.46640 0.53037 -0.26300
N 	N 	0.09160 0.52740 0.53007 -0.25800
N 	N 	0.98900 0.45070 0.50977 -0.30600
O 	O 	0.22450 0.55800 0.51687 -0.72000
H 	H 	0.22050 0.55260 0.48837 0.19300
O 	O 	0.14120 0.65480 0.57167 -0.43900
O 	O 	0.14270 0.60070 0.63047 -0.32300
O 	O 	0.02330 0.70600 0.77647 -0.37600
O 	O 	0.02870 0.61430 0.76687 -0.41000
O 	O 	0.40460 0.63740 0.57077 -0.41600
O 	O 	0.33200 0.59250 0.62557 -0.31300
O 	O 	0.52330 0.65410 0.79077 -0.40300
O 	O 	0.42190 0.57090 0.77067 -0.33400
C 	C 	0.24010 0.78820 0.53437 -0.82900
H 	H 	0.19840 0.75780 0.51967 0.25800
H 	H 	0.26140 0.83140 0.51977 0.25300
H 	H 	0.23080 0.79380 0.56437 0.27500
C 	C 	0.28660 0.75920 0.53317 0.29600
C 	C 	0.37840 0.75560 0.53107 0.27700
C 	C 	0.45350 0.77520 0.52597 -0.77200
H 	H 	0.47690 0.81580 0.50867 0.24500
H 	H 	0.45610 0.73900 0.51147 0.23900
H 	H 	0.47420 0.78280 0.55447 0.26000
C 	C 	0.43120 0.53320 0.51297 -0.84400
H 	H 	0.44120 0.57790 0.50447 0.25800
H 	H 	0.44470 0.51350 0.48997 0.26300
H 	H 	0.45570 0.53610 0.53947 0.27500
C 	C 	0.35700 0.48990 0.52107 0.30500
C 	C 	0.25810 0.39970 0.52557 0.34300
C 	C 	0.20220 0.32890 0.52457 -0.91500
H 	H 	0.21230 0.30370 0.50347 0.29000
H 	H 	0.16090 0.32780 0.51637 0.27000
H 	H 	0.19700 0.30900 0.55317 0.30300
C 	C 	0.00330 0.34660 0.51107 -0.85700
H 	H 	0.04170 0.33980 0.50997 0.25000
H 	H 	0.97840 0.33150 0.48397 0.26700
H 	H 	0.97440 0.32110 0.53517 0.28500
C 	C 	0.02770 0.42130 0.51757 0.29400
C 	C 	0.03080 0.51560 0.51877 0.33000
C 	C 	0.00980 0.56840 0.51507 -0.92900
H 	H 	0.04810 0.61090 0.50627 0.28100
H 	H 	0.99340 0.57370 0.54307 0.31000
H 	H 	0.97450 0.55440 0.49347 0.29700
C 	C 	0.12910 0.63900 0.61177 0.36800
C 	C 	0.09810 0.67350 0.63687 -0.13100
C 	C 	0.08390 0.71910 0.61637 0.03800
H 	H 	0.09210 0.72750 0.58637 0.00800
C 	C 	0.05700 0.75260 0.64057 -0.11500
H 	H 	0.05090 0.78610 0.62737 0.05700
C 	C 	0.03960 0.73550 0.68507 0.03200
H 	H 	0.02000 0.75580 0.70137 0.01900
C 	C 	0.05230 0.68760 0.70397 -0.11200
C 	C 	0.08020 0.65740 0.68147 0.04800
H 	H 	0.08810 0.62560 0.69527 0.03200
C 	C 	0.03560 0.66360 0.75397 0.35800
C 	C 	0.39100 0.62600 0.61187 0.32700
C 	C 	0.45080 0.65490 0.64397 -0.11200
C 	C 	0.51320 0.70390 0.63137 0.03800
H 	H 	0.51990 0.72090 0.60277 0.01200
C 	C 	0.56750 0.72910 0.66067 -0.11300
H 	H 	0.61120 0.76120 0.65187 0.06000
C 	C 	0.55350 0.70400 0.70427 0.03300
H 	H 	0.58810 0.72200 0.72507 0.02000
C 	C 	0.48980 0.65340 0.71667 -0.11100
C 	C 	0.43810 0.63110 0.68667 0.04100
H 	H 	0.39400 0.59950 0.69517 0.03700
C 	C 	0.47580 0.62290 0.76227 0.32100
C 	C 	0.94680 0.44570 0.40877 0.30800
C 	C 	0.97420 0.49340 0.36937 -0.08600
C 	C 	0.97660 0.55380 0.37107 0.01800
H 	H 	0.96310 0.56640 0.39657 0.02400
O 	O 	0.92000 0.46600 0.43867 -0.40100
O 	O 	0.95280 0.39510 0.41127 -0.32000
O 	O 	0.12430 0.38160 0.57977 -0.32400
Cu	Cu	0.17130 0.46080 0.53067 0.44700
Cu	Cu	0.63663 0.00000 0.16667 0.89600
Cu	Cu	0.00000 0.63663 0.83333 0.89600
Cu	Cu	0.36337 0.36337 0.50000 0.89900
C 	C 	0.00000 0.59910 0.33333 -0.10200
H 	H 	0.00000 0.64000 0.33333 0.05100
C 	C 	0.00000 0.47600 0.33333 0.00600
H 	H 	0.00000 0.43510 0.33333 0.04200
C 	C 	0.40090 0.40090 -0.00000 -0.09100
H 	H 	0.36000 0.36000 -0.00000 0.04800
C 	C 	0.52400 0.52400 -0.00000 0.01600
H 	H 	0.56490 0.56490 -0.00000 0.04100
C 	C 	0.59910 0.00000 0.66667 -0.10200
H 	H 	0.64000 0.00000 0.66667 0.05100
C 	C 	0.47600 0.00000 0.66667 0.00600
H 	H 	0.43510 0.00000 0.66667 0.04200
