data_crystal

_cell_length_a 11.43000
_cell_length_b 7.22000
_cell_length_c 6.65500
_cell_angle_alpha 90.00000
_cell_angle_beta  109.91200
_cell_angle_gamma 90.00000

_symmetry_space_group_name_	'P 1'
_symmetry_space_group_name_H-M	'P 1'

loop_
_symmetry_equiv_pos_as_xyz
  x,y,z

loop_
_atom_site_label
_atom_site_type_symbol
_atom_site_fract_x
_atom_site_fract_y
_atom_site_fract_z
_atom_site_charge
O 	O 	0.99160 0.27170 0.66270 -0.12500
O 	O 	0.82740 0.21550 0.88400 -0.39500
O 	O 	0.65390 0.08000 0.88260 -0.40900
C 	C 	0.76250 0.12300 0.96200 0.85100
H 	H 	0.80250 0.07980 0.10010 -0.26100
O 	O 	0.49160 0.77170 0.66270 -0.41200
O 	O 	0.32740 0.71550 0.88400 -0.53800
O 	O 	0.15390 0.58000 0.88260 -0.57000
C 	C 	0.26250 0.62300 0.96200 0.94400
H 	H 	0.30250 0.57980 0.10010 -0.37700
O 	O 	0.00840 0.27170 0.33730 -0.39600
O 	O 	0.17260 0.21550 0.11600 -0.41300
O 	O 	0.34610 0.08000 0.11740 -0.35500
C 	C 	0.23750 0.12300 0.03800 0.26400
H 	H 	0.19750 0.07980 0.89990 0.04300
O 	O 	0.50840 0.77170 0.33730 -0.46300
O 	O 	0.67260 0.71550 0.11600 -0.42900
O 	O 	0.84610 0.58000 0.11740 -0.37000
C 	C 	0.73750 0.62300 0.03800 0.23900
H 	H 	0.69750 0.57980 0.89990 0.04800
Sm	Sm	-0.00000 0.41855 -0.00000 1.28600
Sm	Sm	0.50000 0.91855 -0.00000 1.39000
C 	C 	0.00000 0.34600 0.50000 0.23100
H 	H 	0.00000 0.47460 0.50000 -0.10300
C 	C 	0.50000 0.84600 0.50000 0.53500
H 	H 	0.50000 0.97460 0.50000 -0.21500
