data_crystal

_cell_length_a 11.38000
_cell_length_b 7.18200
_cell_length_c 6.62800
_cell_angle_alpha 90.00000
_cell_angle_beta  109.75400
_cell_angle_gamma 90.00000

_symmetry_space_group_name_	'P 1'
_symmetry_space_group_name_H-M	'P 1'

loop_
_symmetry_equiv_pos_as_xyz
  x,y,z

loop_
_atom_site_label
_atom_site_type_symbol
_atom_site_fract_x
_atom_site_fract_y
_atom_site_fract_z
_atom_site_charge
O 	O 	0.50820 0.30260 0.33760 -0.38700
O 	O 	0.67300 0.24950 0.11620 -0.35300
O 	O 	0.84720 0.11260 0.11850 -0.26000
C 	C 	0.73580 0.15320 0.03500 0.22500
H 	H 	0.69510 0.10710 0.89810 0.07000
O 	O 	0.00820 0.80260 0.33760 -0.30900
O 	O 	0.17300 0.74950 0.11620 -0.38900
O 	O 	0.34720 0.61260 0.11850 -0.41200
C 	C 	0.23580 0.65320 0.03500 0.24700
H 	H 	0.19510 0.60710 0.89810 0.01500
O 	O 	0.49180 0.30260 0.66240 -0.34400
O 	O 	0.32700 0.24950 0.88380 -0.43200
O 	O 	0.15280 0.11260 0.88150 -0.39800
C 	C 	0.26420 0.15320 0.96500 0.77700
H 	H 	0.30490 0.10710 0.10190 -0.26300
O 	O 	0.99180 0.80260 0.66240 -0.11200
O 	O 	0.82700 0.74950 0.88380 -0.39000
O 	O 	0.65280 0.61260 0.88150 -0.45800
C 	C 	0.76420 0.65320 0.96500 0.77100
H 	H 	0.80490 0.60710 0.10190 -0.26800
Gd	Gd	0.50000 0.44955 -0.00000 1.31300
Gd	Gd	-0.00000 0.94955 -0.00000 0.90800
C 	C 	0.50000 0.38100 0.50000 0.48800
H 	H 	0.50000 0.51070 0.50000 -0.13400
C 	C 	0.00000 0.88100 0.50000 0.02100
H 	H 	0.00000 0.01070 0.50000 0.07400
