data_crystal

_cell_length_a 6.76680
_cell_length_b 18.71890
_cell_length_c 8.57170
_cell_angle_alpha 90.00000
_cell_angle_beta  90.00000
_cell_angle_gamma 90.00000

_symmetry_space_group_name_	'P 1'
_symmetry_space_group_name_H-M	'P 1'

loop_
_symmetry_equiv_pos_as_xyz
  x,y,z

loop_
_atom_site_label
_atom_site_type_symbol
_atom_site_fract_x
_atom_site_fract_y
_atom_site_fract_z
_atom_site_charge
O 	O 	0.98430 0.54905 0.93270 -0.18400
O 	O 	0.33730 0.59341 0.77040 -0.46700
O 	O 	0.82290 0.68295 0.98440 -0.41700
O 	O 	0.68240 0.75652 0.15280 -0.51700
C 	C 	0.76660 0.74251 0.02770 0.59700
H 	H 	0.78940 0.78050 0.96020 -0.13600
O 	O 	0.48430 0.04905 0.93270 -0.55200
O 	O 	0.83730 0.09341 0.77040 -0.33300
O 	O 	0.32290 0.18295 0.98440 -0.52300
O 	O 	0.18240 0.25652 0.15280 -0.55700
C 	C 	0.26660 0.24251 0.02770 0.59400
H 	H 	0.28940 0.28050 0.96020 -0.18700
O 	O 	0.01570 0.45095 0.43270 -0.80900
O 	O 	0.66270 0.40659 0.27040 -0.42000
O 	O 	0.17710 0.31705 0.48440 -0.52400
O 	O 	0.31760 0.24348 0.65280 -0.57000
C 	C 	0.23340 0.25749 0.52770 0.65700
H 	H 	0.21060 0.21950 0.46020 -0.22800
O 	O 	0.51570 0.95095 0.43270 -0.50500
O 	O 	0.16270 0.90659 0.27040 -0.45300
O 	O 	0.67710 0.81705 0.48440 -0.49200
O 	O 	0.81760 0.74348 0.65280 -0.44100
C 	C 	0.73340 0.75749 0.52770 0.64500
H 	H 	0.71060 0.71950 0.46020 -0.17000
O 	O 	0.01570 0.54905 0.56730 -0.80900
O 	O 	0.66270 0.59341 0.72960 -0.41900
O 	O 	0.17710 0.68295 0.51560 -0.52400
O 	O 	0.31760 0.75652 0.34720 -0.57100
C 	C 	0.23340 0.74251 0.47230 0.65400
H 	H 	0.21060 0.78050 0.53980 -0.22100
O 	O 	0.51570 0.04905 0.56730 -0.56200
O 	O 	0.16270 0.09341 0.72960 -0.47700
O 	O 	0.67710 0.18295 0.51560 -0.50100
O 	O 	0.81760 0.25652 0.34720 -0.44600
C 	C 	0.73340 0.24251 0.47230 0.64500
H 	H 	0.71060 0.28050 0.53980 -0.16800
O 	O 	0.98430 0.45095 0.06730 -0.19600
O 	O 	0.33730 0.40659 0.22960 -0.47200
O 	O 	0.82290 0.31705 0.01560 -0.47100
O 	O 	0.68240 0.24348 0.84720 -0.54400
C 	C 	0.76660 0.25749 0.97230 0.71800
H 	H 	0.78940 0.21950 0.03980 -0.20100
O 	O 	0.48430 0.95095 0.06730 -0.50900
O 	O 	0.83730 0.90659 0.22960 -0.31200
O 	O 	0.32290 0.81705 0.01560 -0.56900
O 	O 	0.18240 0.74348 0.84720 -0.57900
C 	C 	0.26660 0.75749 0.97230 0.71400
H 	H 	0.28940 0.71950 0.03980 -0.24700
Sm	Sm	-0.00000 0.64250 0.75000 2.04700
Sm	Sm	0.50000 0.14250 0.75000 2.45300
Sm	Sm	-0.00000 0.35750 0.25000 2.04100
Sm	Sm	0.50000 0.85750 0.25000 2.46100
C 	C 	0.50000 0.62371 0.75000 0.58300
H 	H 	0.50000 0.67340 0.75000 -0.17400
C 	C 	-0.00000 0.12371 0.75000 0.35400
H 	H 	-0.00000 0.17340 0.75000 -0.16700
C 	C 	0.50000 0.37629 0.25000 0.58200
H 	H 	0.50000 0.32660 0.25000 -0.17700
C 	C 	0.00000 0.87629 0.25000 0.35100
H 	H 	0.00000 0.82660 0.25000 -0.16700
C 	C 	0.07230 0.50000 -0.00000 0.02500
H 	H 	0.20980 0.50000 -0.00000 0.01700
C 	C 	0.57230 0.00000 -0.00000 0.60500
H 	H 	0.70980 0.00000 -0.00000 -0.16200
C 	C 	0.92770 0.50000 0.50000 1.31400
H 	H 	0.79020 0.50000 0.50000 -0.35700
C 	C 	0.42770 0.00000 0.50000 0.64800
H 	H 	0.29020 0.00000 0.50000 -0.21800
