data_crystal

_cell_length_a 6.66670
_cell_length_b 18.40800
_cell_length_c 8.44680
_cell_angle_alpha 90.00000
_cell_angle_beta  90.00000
_cell_angle_gamma 90.00000

_symmetry_space_group_name_	'P 1'
_symmetry_space_group_name_H-M	'P 1'

loop_
_symmetry_equiv_pos_as_xyz
  x,y,z

loop_
_atom_site_label
_atom_site_type_symbol
_atom_site_fract_x
_atom_site_fract_y
_atom_site_fract_z
_atom_site_charge
O 	O 	0.01270 0.54980 0.06960 -0.73400
O 	O 	0.66480 0.59460 0.22830 -0.38700
O 	O 	0.68040 0.75780 0.65220 -0.48800
O 	O 	0.82490 0.68340 0.48180 -0.40700
C 	C 	0.76410 0.74340 0.52520 0.62500
H 	H 	0.78300 0.78190 0.45530 -0.14400
O 	O 	0.51270 0.04980 0.06960 -0.50500
O 	O 	0.16480 0.09460 0.22830 -0.43600
O 	O 	0.18040 0.25780 0.65220 -0.53200
O 	O 	0.32490 0.18340 0.48180 -0.50700
C 	C 	0.26410 0.24340 0.52520 0.63100
H 	H 	0.28300 0.28190 0.45530 -0.19500
O 	O 	0.98730 0.45020 0.56960 -0.17800
O 	O 	0.33520 0.40540 0.72830 -0.43000
O 	O 	0.31960 0.24220 0.15220 -0.50000
O 	O 	0.17510 0.31660 0.98180 -0.43300
C 	C 	0.23590 0.25660 0.02520 0.50800
H 	H 	0.21700 0.21810 0.95530 -0.14000
O 	O 	0.48730 0.95020 0.56960 -0.46800
O 	O 	0.83520 0.90540 0.72830 -0.27700
O 	O 	0.81960 0.74220 0.15220 -0.38100
O 	O 	0.67510 0.81660 0.98180 -0.39700
C 	C 	0.73590 0.75660 0.02520 0.48600
H 	H 	0.71700 0.71810 0.95530 -0.08200
O 	O 	0.98730 0.54980 0.43040 -0.17800
O 	O 	0.33520 0.59460 0.27170 -0.43200
O 	O 	0.31960 0.75780 0.84780 -0.55400
O 	O 	0.17510 0.68340 0.01820 -0.53700
C 	C 	0.23590 0.74340 0.97480 0.74200
H 	H 	0.21700 0.78190 0.04470 -0.25000
O 	O 	0.48730 0.04980 0.43040 -0.52000
O 	O 	0.83520 0.09460 0.27170 -0.30500
O 	O 	0.81960 0.25780 0.84780 -0.44400
O 	O 	0.67510 0.18340 0.01820 -0.51900
C 	C 	0.73590 0.24340 0.97480 0.74600
H 	H 	0.71700 0.28190 0.04470 -0.20900
O 	O 	0.01270 0.45020 0.93040 -0.71100
O 	O 	0.66480 0.40540 0.77170 -0.37600
O 	O 	0.68040 0.24220 0.34780 -0.49100
O 	O 	0.82490 0.31660 0.51820 -0.41000
C 	C 	0.76410 0.25660 0.47480 0.62500
H 	H 	0.78300 0.21810 0.54470 -0.14500
O 	O 	0.51270 0.95020 0.93040 -0.42800
O 	O 	0.16480 0.90540 0.77170 -0.40200
O 	O 	0.18040 0.74220 0.34780 -0.52800
O 	O 	0.32490 0.81660 0.51820 -0.50000
C 	C 	0.26410 0.75660 0.47480 0.62800
H 	H 	0.28300 0.71810 0.54470 -0.19100
Ho	Ho	0.00000 0.64269 0.25000 1.77500
Ho	Ho	0.50000 0.14269 0.25000 2.11300
Ho	Ho	-0.00000 0.35731 0.75000 1.78000
Ho	Ho	0.50000 0.85731 0.75000 2.12800
C 	C 	0.50000 0.62560 0.25000 0.54700
H 	H 	0.50000 0.67620 0.25000 -0.15200
C 	C 	0.00000 0.12560 0.25000 0.33500
H 	H 	0.00000 0.17620 0.25000 -0.14400
C 	C 	0.50000 0.37440 0.75000 0.54900
H 	H 	0.50000 0.32380 0.75000 -0.14900
C 	C 	0.00000 0.87440 0.75000 0.33100
H 	H 	0.00000 0.82380 0.75000 -0.13800
C 	C 	0.92530 0.50000 -0.00000 1.17000
H 	H 	0.78580 0.50000 -0.00000 -0.31100
C 	C 	0.42530 0.00000 -0.00000 0.56200
H 	H 	0.28580 0.00000 -0.00000 -0.18100
C 	C 	0.07470 0.50000 0.50000 0.05800
H 	H 	0.21420 0.50000 0.50000 0.02500
C 	C 	0.57470 0.00000 0.50000 0.60300
H 	H 	0.71420 0.00000 0.50000 -0.14100
