data_crystal

_cell_length_a 6.63750
_cell_length_b 18.29530
_cell_length_c 8.40580
_cell_angle_alpha 90.00000
_cell_angle_beta  90.00000
_cell_angle_gamma 90.00000

_symmetry_space_group_name_	'P 1'
_symmetry_space_group_name_H-M	'P 1'

loop_
_symmetry_equiv_pos_as_xyz
  x,y,z

loop_
_atom_site_label
_atom_site_type_symbol
_atom_site_fract_x
_atom_site_fract_y
_atom_site_fract_z
_atom_site_charge
O 	O 	0.01470 0.05000 0.42920 -0.59900
O 	O 	0.33520 0.09485 0.22750 -0.38500
O 	O 	0.17950 0.24207 0.15310 -0.43500
O 	O 	0.32610 0.31653 0.98090 -0.38800
C 	C 	0.26450 0.25630 0.02380 0.45100
H 	H 	0.28290 0.21770 0.95350 -0.11300
O 	O 	0.51470 0.55000 0.42920 -0.39600
O 	O 	0.83520 0.59485 0.22750 -0.22900
O 	O 	0.67950 0.74207 0.15310 -0.37500
O 	O 	0.82610 0.81653 0.98090 -0.32700
C 	C 	0.76450 0.75630 0.02380 0.44500
H 	H 	0.78290 0.71770 0.95350 -0.07000
O 	O 	0.98530 0.95000 0.92920 -0.08900
O 	O 	0.66480 0.90515 0.72750 -0.32400
O 	O 	0.82050 0.75793 0.65310 -0.34300
O 	O 	0.67390 0.68347 0.48090 -0.36500
C 	C 	0.73550 0.74370 0.52380 0.47700
H 	H 	0.71710 0.78230 0.45350 -0.08800
O 	O 	0.48530 0.45000 0.92920 -0.39300
O 	O 	0.16480 0.40515 0.72750 -0.33700
O 	O 	0.32050 0.25793 0.65310 -0.41800
O 	O 	0.17390 0.18347 0.48090 -0.41500
C 	C 	0.23550 0.24370 0.52380 0.48400
H 	H 	0.21710 0.28230 0.45350 -0.13200
O 	O 	0.98530 0.05000 0.07080 -0.14000
O 	O 	0.66480 0.09485 0.27250 -0.34600
O 	O 	0.82050 0.24207 0.34690 -0.34500
O 	O 	0.67390 0.31653 0.51910 -0.36600
C 	C 	0.73550 0.25630 0.47620 0.47900
H 	H 	0.71710 0.21770 0.54650 -0.09200
O 	O 	0.48530 0.55000 0.07080 -0.40200
O 	O 	0.16480 0.59485 0.27250 -0.33800
O 	O 	0.32050 0.74207 0.34690 -0.41500
O 	O 	0.17390 0.81653 0.51910 -0.40800
C 	C 	0.23550 0.75630 0.47620 0.48300
H 	H 	0.21710 0.71770 0.54650 -0.13100
O 	O 	0.01470 0.95000 0.57080 -0.55900
O 	O 	0.33520 0.90515 0.77250 -0.36300
O 	O 	0.17950 0.75793 0.84690 -0.45100
O 	O 	0.32610 0.68347 0.01910 -0.42100
C 	C 	0.26450 0.74370 0.97620 0.52300
H 	H 	0.28290 0.78230 0.04650 -0.14500
O 	O 	0.51470 0.45000 0.57080 -0.39600
O 	O 	0.83520 0.40515 0.77250 -0.22600
O 	O 	0.67950 0.25793 0.84690 -0.39500
O 	O 	0.82610 0.18347 0.01910 -0.36700
C 	C 	0.76450 0.24370 0.97620 0.52000
H 	H 	0.78290 0.28230 0.04650 -0.10700
Tm	Tm	0.00000 0.14281 0.25000 1.52700
Tm	Tm	0.50000 0.64281 0.25000 1.61500
Tm	Tm	-0.00000 0.85719 0.75000 1.52800
Tm	Tm	0.50000 0.35719 0.75000 1.61600
C 	C 	0.50000 0.12600 0.25000 0.46000
H 	H 	0.50000 0.17690 0.25000 -0.11100
C 	C 	-0.00000 0.62600 0.25000 0.24300
H 	H 	0.00000 0.67690 0.25000 -0.08500
C 	C 	0.50000 0.87400 0.75000 0.45800
H 	H 	0.50000 0.82310 0.75000 -0.10800
C 	C 	0.00000 0.37400 0.75000 0.24400
H 	H 	-0.00000 0.32310 0.75000 -0.08400
C 	C 	0.92430 0.00000 0.50000 0.88800
H 	H 	0.78420 0.00000 0.50000 -0.21800
C 	C 	0.42430 0.50000 0.50000 0.51300
H 	H 	0.28420 0.50000 0.50000 -0.11800
C 	C 	0.07570 0.00000 -0.00000 -0.07300
H 	H 	0.21580 0.00000 -0.00000 0.06400
C 	C 	0.57570 0.50000 -0.00000 0.48800
H 	H 	0.71580 0.50000 -0.00000 -0.07500
