data_crystal

_cell_length_a 6.61740
_cell_length_b 18.20000
_cell_length_c 8.37770
_cell_angle_alpha 90.00000
_cell_angle_beta  90.00000
_cell_angle_gamma 90.00000

_symmetry_space_group_name_	'P 1'
_symmetry_space_group_name_H-M	'P 1'

loop_
_symmetry_equiv_pos_as_xyz
  x,y,z

loop_
_atom_site_label
_atom_site_type_symbol
_atom_site_fract_x
_atom_site_fract_y
_atom_site_fract_z
_atom_site_charge
O 	O 	0.33370 0.09550 0.27030 -0.34600
O 	O 	0.98460 0.05060 0.42860 -0.12400
O 	O 	0.17370 0.18410 0.02030 -0.41300
O 	O 	0.32030 0.25890 0.84700 -0.39900
C 	C 	0.23610 0.24400 0.97730 0.56300
H 	H 	0.21950 0.28270 0.04860 -0.15900
O 	O 	0.83370 0.59550 0.27030 -0.21800
O 	O 	0.48460 0.55060 0.42860 -0.35600
O 	O 	0.67370 0.68410 0.02030 -0.37900
O 	O 	0.82030 0.75890 0.84700 -0.33000
C 	C 	0.73610 0.74400 0.97730 0.56500
H 	H 	0.71950 0.78270 0.04860 -0.12500
O 	O 	0.66630 0.90450 0.77030 -0.29000
O 	O 	0.01540 0.94940 0.92860 -0.45000
O 	O 	0.82630 0.81590 0.52030 -0.31000
O 	O 	0.67970 0.74110 0.34700 -0.35000
C 	C 	0.76390 0.75600 0.47730 0.47300
H 	H 	0.78050 0.71730 0.54860 -0.07700
O 	O 	0.16630 0.40450 0.77030 -0.30600
O 	O 	0.51540 0.44940 0.92860 -0.32600
O 	O 	0.32630 0.31590 0.52030 -0.37000
O 	O 	0.17970 0.24110 0.34700 -0.39700
C 	C 	0.26390 0.25600 0.47730 0.47800
H 	H 	0.28050 0.21730 0.54860 -0.11500
O 	O 	0.66630 0.09550 0.22970 -0.31600
O 	O 	0.01540 0.05060 0.07140 -0.50400
O 	O 	0.82630 0.18410 0.47970 -0.31600
O 	O 	0.67970 0.25890 0.65300 -0.35300
C 	C 	0.76390 0.24400 0.52270 0.47600
H 	H 	0.78050 0.28270 0.45140 -0.08100
O 	O 	0.16630 0.59550 0.22970 -0.31400
O 	O 	0.51540 0.55060 0.07140 -0.34500
O 	O 	0.32630 0.68410 0.47970 -0.36800
O 	O 	0.17970 0.75890 0.65300 -0.39500
C 	C 	0.26390 0.74400 0.52270 0.47800
H 	H 	0.28050 0.78270 0.45140 -0.11400
O 	O 	0.33370 0.90450 0.72970 -0.32800
O 	O 	0.98460 0.94940 0.57140 -0.08500
O 	O 	0.17370 0.81590 0.97970 -0.32800
O 	O 	0.32030 0.74110 0.15300 -0.35700
C 	C 	0.23610 0.75600 0.02270 0.38600
H 	H 	0.21950 0.71730 0.95140 -0.07300
O 	O 	0.83370 0.40450 0.72970 -0.21400
O 	O 	0.48460 0.44940 0.57140 -0.35600
O 	O 	0.67370 0.31590 0.97970 -0.29400
O 	O 	0.82030 0.24110 0.15300 -0.29000
C 	C 	0.73610 0.25600 0.02270 0.37600
H 	H 	0.71950 0.21730 0.95140 -0.03600
Lu	Lu	0.00000 0.14278 0.25000 1.20000
Lu	Lu	0.50000 0.64278 0.25000 1.32500
Lu	Lu	-0.00000 0.85722 0.75000 1.20300
Lu	Lu	0.50000 0.35722 0.75000 1.32700
C 	C 	0.50000 0.12600 0.25000 0.45500
H 	H 	0.50000 0.17710 0.25000 -0.10100
C 	C 	-0.00000 0.62600 0.25000 0.27200
H 	H 	-0.00000 0.67710 0.25000 -0.08100
C 	C 	0.50000 0.87400 0.75000 0.45500
H 	H 	0.50000 0.82290 0.75000 -0.09700
C 	C 	-0.00000 0.37400 0.75000 0.27100
H 	H 	0.00000 0.32290 0.75000 -0.07800
C 	C 	0.07650 0.00000 0.50000 -0.01600
H 	H 	0.21700 0.00000 0.50000 0.05600
C 	C 	0.57650 0.50000 0.50000 0.47200
H 	H 	0.71700 0.50000 0.50000 -0.06400
C 	C 	0.92350 0.00000 -0.00000 0.73900
H 	H 	0.78300 0.00000 -0.00000 -0.17200
C 	C 	0.42350 0.50000 -0.00000 0.44200
H 	H 	0.28300 0.50000 -0.00000 -0.09600
