data_crystal

_cell_length_a 11.26210
_cell_length_b 7.13740
_cell_length_c 6.58670
_cell_angle_alpha 90.00000
_cell_angle_beta  109.52300
_cell_angle_gamma 90.00000

_symmetry_space_group_name_	'P 1'
_symmetry_space_group_name_H-M	'P 1'

loop_
_symmetry_equiv_pos_as_xyz
  x,y,z

loop_
_atom_site_label
_atom_site_type_symbol
_atom_site_fract_x
_atom_site_fract_y
_atom_site_fract_z
_atom_site_charge
O 	O 	0.99210 0.80260 0.66430 -0.10400
O 	O 	0.16990 0.74990 0.11430 -0.69300
O 	O 	0.34610 0.60850 0.11800 -0.61500
C 	C 	0.23500 0.65300 0.03360 0.11000
H 	H 	0.19510 0.60960 0.89420 0.06200
O 	O 	0.49210 0.30260 0.66430 -0.46500
O 	O 	0.66990 0.24990 0.11430 -0.50600
O 	O 	0.84610 0.10850 0.11800 -0.37900
C 	C 	0.73500 0.15300 0.03360 0.06600
H 	H 	0.69510 0.10960 0.89420 0.18100
O 	O 	0.00790 0.80260 0.33570 -0.51700
O 	O 	0.83010 0.74990 0.88570 -0.68400
O 	O 	0.65390 0.60850 0.88200 -0.71000
C 	C 	0.76500 0.65300 0.96640 1.19600
H 	H 	0.80490 0.60960 0.10580 -0.52100
O 	O 	0.50790 0.30260 0.33570 -0.55100
O 	O 	0.33010 0.24990 0.88570 -0.66100
O 	O 	0.15390 0.10850 0.88200 -0.66500
C 	C 	0.26500 0.15300 0.96640 1.20200
H 	H 	0.30490 0.10960 0.10580 -0.50300
Y 	Y 	-0.00000 0.94810 -0.00000 2.27200
Y 	Y 	0.50000 0.44810 -0.00000 2.33700
C 	C 	0.00000 0.88310 0.50000 -0.35100
H 	H 	0.00000 0.01340 0.50000 0.16900
C 	C 	0.50000 0.38310 0.50000 0.55000
H 	H 	0.50000 0.51340 0.50000 -0.22000
