data_crystal

_cell_length_a 16.80800
_cell_length_b 12.96400
_cell_length_c 14.51300
_cell_angle_alpha 90.00000
_cell_angle_beta  108.46000
_cell_angle_gamma 90.00000

_symmetry_space_group_name_	'P 1'
_symmetry_space_group_name_H-M	'P 1'

loop_
_symmetry_equiv_pos_as_xyz
  x,y,z

loop_
_atom_site_label
_atom_site_type_symbol
_atom_site_fract_x
_atom_site_fract_y
_atom_site_fract_z
_atom_site_charge
Zn	Zn	0.31802 0.48702 0.81944 1.23400
O 	O 	0.23154 0.58640 0.75540 -0.47700
O 	O 	0.35698 0.38470 0.74640 -0.43500
O 	O 	0.27256 0.41494 0.91379 -0.59100
O 	O 	0.42369 0.55880 0.88370 -0.42600
C 	C 	0.15630 0.59880 0.75010 0.39100
Zn	Zn	0.15464 0.44689 0.90055 1.22900
C 	C 	0.32246 0.36600 0.99450 0.25200
O 	O 	0.11563 0.54270 0.78860 -0.47500
C 	C 	0.11270 0.69090 0.69280 -0.02600
O 	O 	0.08846 0.32230 0.85940 -0.41100
O 	O 	0.12231 0.51140 0.00380 -0.44600
C 	C 	0.40780 0.38970 0.03290 -0.19400
C 	C 	0.28890 0.29070 0.04180 -0.19000
C 	C 	0.15560 0.75460 0.64800 -0.03700
C 	C 	0.03060 0.71360 0.68770 -0.13100
C 	C 	0.45840 0.34210 0.11740 0.02800
H 	H 	0.43160 0.43910 0.00110 0.10800
C 	C 	0.33990 0.24190 0.12520 0.02300
H 	H 	0.23120 0.27310 0.01670 0.09500
C 	C 	0.11570 0.84270 0.59870 0.00300
H 	H 	0.21140 0.73860 0.65070 0.08300
C 	C 	0.99000 0.80250 0.64060 0.22900
H 	H 	0.00130 0.66780 0.71670 0.10800
C 	C 	0.54840 0.37560 0.16370 0.30600
C 	C 	0.42440 0.26830 0.16360 -0.07100
C 	C 	0.30480 0.16190 0.17730 0.30600
C 	C 	0.16000 0.90670 0.54290 0.31700
C 	C 	0.03430 0.86720 0.59630 -0.16500
O 	O 	0.58990 0.34180 0.24340 -0.26400
H 	H 	0.45860 0.23610 0.22130 0.09100
O 	O 	0.22830 0.14480 0.15010 -0.28300
O 	O 	0.22660 0.87880 0.53400 -0.28900
H 	H 	0.00850 0.92840 0.56450 0.10000
Zn	Zn	0.68198 0.98702 0.68056 1.23400
O 	O 	0.76846 0.08640 0.74460 -0.47400
O 	O 	0.64302 0.88470 0.75360 -0.43400
O 	O 	0.72744 0.91494 0.58621 -0.59100
O 	O 	0.57631 0.05880 0.61630 -0.42500
C 	C 	0.84370 0.09880 0.74990 0.39200
Zn	Zn	0.84536 0.94689 0.59945 1.22800
C 	C 	0.67754 0.86600 0.50550 0.25500
O 	O 	0.88437 0.04270 0.71140 -0.47100
C 	C 	0.88730 0.19090 0.80720 -0.02800
O 	O 	0.91154 0.82230 0.64060 -0.41200
O 	O 	0.87769 0.01140 0.49620 -0.44400
C 	C 	0.59220 0.88970 0.46710 -0.19600
C 	C 	0.71110 0.79070 0.45820 -0.19300
C 	C 	0.84440 0.25460 0.85200 -0.03400
C 	C 	0.96940 0.21360 0.81230 -0.12300
C 	C 	0.54160 0.84210 0.38260 0.02900
H 	H 	0.56840 0.93910 0.49890 0.10900
C 	C 	0.66010 0.74190 0.37480 0.02500
H 	H 	0.76880 0.77310 0.48330 0.09600
C 	C 	0.88430 0.34270 0.90130 -0.00100
H 	H 	0.78860 0.23860 0.84930 0.08300
C 	C 	0.01000 0.30250 0.85940 0.22000
H 	H 	0.99870 0.16780 0.78330 0.10800
C 	C 	0.45160 0.87560 0.33630 0.30500
C 	C 	0.57560 0.76830 0.33640 -0.07200
C 	C 	0.69520 0.66190 0.32270 0.30500
C 	C 	0.84000 0.40670 0.95710 0.31800
C 	C 	0.96570 0.36720 0.90370 -0.15800
O 	O 	0.41010 0.84180 0.25660 -0.26300
H 	H 	0.54140 0.73610 0.27870 0.09200
O 	O 	0.77170 0.64480 0.34990 -0.28200
O 	O 	0.77340 0.37880 0.96600 -0.29000
H 	H 	0.99150 0.42840 0.93550 0.09800
Zn	Zn	0.68198 0.51298 0.18056 1.23500
O 	O 	0.76846 0.41360 0.24460 -0.47600
O 	O 	0.64302 0.61530 0.25360 -0.43400
O 	O 	0.72744 0.58506 0.08621 -0.59000
O 	O 	0.57631 0.44120 0.11630 -0.42600
C 	C 	0.84370 0.40120 0.24990 0.39100
Zn	Zn	0.84536 0.55311 0.09945 1.22900
C 	C 	0.67754 0.63400 0.00550 0.25200
O 	O 	0.88437 0.45730 0.21140 -0.47500
C 	C 	0.88730 0.30910 0.30720 -0.02600
O 	O 	0.91154 0.67770 0.14060 -0.41100
O 	O 	0.87769 0.48860 0.99620 -0.44600
C 	C 	0.59220 0.61030 0.96710 -0.19400
C 	C 	0.71110 0.70930 0.95820 -0.19000
C 	C 	0.84440 0.24540 0.35200 -0.03700
C 	C 	0.96940 0.28640 0.31230 -0.13100
C 	C 	0.54160 0.65790 0.88260 0.02800
H 	H 	0.56840 0.56090 0.99890 0.10800
C 	C 	0.66010 0.75810 0.87480 0.02300
H 	H 	0.76880 0.72690 0.98330 0.09500
C 	C 	0.88430 0.15730 0.40130 0.00300
H 	H 	0.78860 0.26140 0.34930 0.08300
C 	C 	0.01000 0.19750 0.35940 0.22900
H 	H 	0.99870 0.33220 0.28330 0.10800
C 	C 	0.45160 0.62440 0.83630 0.30600
C 	C 	0.57560 0.73170 0.83640 -0.07100
C 	C 	0.69520 0.83810 0.82270 0.30600
C 	C 	0.84000 0.09330 0.45710 0.31700
C 	C 	0.96570 0.13280 0.40370 -0.16500
O 	O 	0.41010 0.65820 0.75660 -0.26400
H 	H 	0.54140 0.76390 0.77870 0.09100
O 	O 	0.77170 0.85520 0.84990 -0.28300
O 	O 	0.77340 0.12120 0.46600 -0.28900
H 	H 	0.99150 0.07160 0.43550 0.10000
Zn	Zn	0.31802 0.01298 0.31944 1.23400
O 	O 	0.23154 0.91360 0.25540 -0.47400
O 	O 	0.35698 0.11530 0.24640 -0.43400
O 	O 	0.27256 0.08506 0.41379 -0.59100
O 	O 	0.42369 0.94120 0.38370 -0.42500
C 	C 	0.15630 0.90120 0.25010 0.39200
Zn	Zn	0.15464 0.05311 0.40055 1.22800
C 	C 	0.32246 0.13400 0.49450 0.25500
O 	O 	0.11563 0.95730 0.28860 -0.47100
C 	C 	0.11270 0.80910 0.19280 -0.02800
O 	O 	0.08846 0.17770 0.35940 -0.41200
O 	O 	0.12231 0.98860 0.50380 -0.44400
C 	C 	0.40780 0.11030 0.53290 -0.19600
C 	C 	0.28890 0.20930 0.54180 -0.19300
C 	C 	0.15560 0.74540 0.14800 -0.03400
C 	C 	0.03060 0.78640 0.18770 -0.12300
C 	C 	0.45840 0.15790 0.61740 0.02900
H 	H 	0.43160 0.06090 0.50110 0.10900
C 	C 	0.33990 0.25810 0.62520 0.02500
H 	H 	0.23120 0.22690 0.51670 0.09600
C 	C 	0.11570 0.65730 0.09870 -0.00100
H 	H 	0.21140 0.76140 0.15070 0.08300
C 	C 	0.99000 0.69750 0.14060 0.22000
H 	H 	0.00130 0.83220 0.21670 0.10800
C 	C 	0.54840 0.12440 0.66370 0.30500
C 	C 	0.42440 0.23170 0.66360 -0.07200
C 	C 	0.30480 0.33810 0.67730 0.30500
C 	C 	0.16000 0.59330 0.04290 0.31800
C 	C 	0.03430 0.63280 0.09630 -0.15800
O 	O 	0.58990 0.15820 0.74340 -0.26300
H 	H 	0.45860 0.26390 0.72130 0.09200
O 	O 	0.22830 0.35520 0.65010 -0.28200
O 	O 	0.22660 0.62120 0.03400 -0.29000
H 	H 	0.00850 0.57160 0.06450 0.09800
