data_crystal

_cell_length_a 14.32880
_cell_length_b 13.26430
_cell_length_c 14.35630
_cell_angle_alpha 90.00000
_cell_angle_beta  91.29600
_cell_angle_gamma 90.00000

_symmetry_space_group_name_	'P 1'
_symmetry_space_group_name_H-M	'P 1'

loop_
_symmetry_equiv_pos_as_xyz
  x,y,z

loop_
_atom_site_label
_atom_site_type_symbol
_atom_site_fract_x
_atom_site_fract_y
_atom_site_fract_z
_atom_site_charge
O 	O 	0.58530 0.66590 0.31090 -0.40500
O 	O 	0.23050 0.89880 0.32300 -0.46100
O 	O 	0.20890 0.09430 0.19880 -0.60200
O 	O 	0.36660 0.51190 0.54800 -0.43200
O 	O 	0.36610 0.95070 0.26460 -0.46600
O 	O 	0.13250 0.42020 0.92050 -0.42700
O 	O 	0.97600 0.47010 0.21480 -0.41400
C 	C 	0.31520 0.88820 0.30790 0.36900
C 	C 	0.45790 0.62910 0.41620 -0.17500
H 	H 	0.48850 0.57030 0.43940 0.10100
C 	C 	0.17260 0.18250 0.16690 0.26000
C 	C 	0.19950 0.22240 0.08220 -0.19200
H 	H 	0.24550 0.18890 0.04690 0.08900
C 	C 	0.50040 0.68620 0.34740 0.22900
O 	O 	0.96450 0.34050 0.31260 -0.24700
O 	O 	0.26640 0.63630 0.57780 -0.27300
C 	C 	0.10760 0.23560 0.22010 -0.18700
H 	H 	0.08930 0.20950 0.27860 0.08900
O 	O 	0.25130 0.31200 0.91220 -0.27700
C 	C 	0.36340 0.79600 0.34680 -0.01500
C 	C 	0.09490 0.36350 0.10030 -0.06700
H 	H 	0.06780 0.42410 0.07690 0.08800
C 	C 	0.45080 0.77150 0.31400 -0.13300
H 	H 	0.47800 0.81290 0.26790 0.10900
C 	C 	0.32300 0.74010 0.41650 -0.04500
H 	H 	0.26380 0.75810 0.43980 0.08000
C 	C 	0.15910 0.31210 0.04840 0.02600
C 	C 	0.06940 0.32680 0.18750 0.02200
C 	C 	0.18450 0.34940 0.95230 0.30200
C 	C 	0.99770 0.38010 0.24380 0.29500
C 	C 	0.33020 0.59960 0.53070 0.28300
C 	C 	0.37190 0.65610 0.45180 0.01600
Zn	Zn	0.33592 0.04960 0.16657 1.22800
Zn	Zn	0.15203 0.01798 0.29943 1.23100
O 	O 	0.41470 0.16590 0.18910 -0.40700
O 	O 	0.76950 0.39880 0.17700 -0.46500
O 	O 	0.79110 0.59430 0.30120 -0.60000
O 	O 	0.63340 0.01190 0.95200 -0.42900
O 	O 	0.63390 0.45070 0.23540 -0.47000
O 	O 	0.86750 0.92020 0.57950 -0.42900
O 	O 	0.02400 0.97010 0.28520 -0.40800
C 	C 	0.68480 0.38820 0.19210 0.37100
C 	C 	0.54210 0.12910 0.08380 -0.17000
H 	H 	0.51150 0.07030 0.06060 0.09700
C 	C 	0.82740 0.68250 0.33310 0.26100
C 	C 	0.80050 0.72240 0.41780 -0.19200
H 	H 	0.75450 0.68890 0.45310 0.09100
C 	C 	0.49960 0.18620 0.15260 0.22600
O 	O 	0.03550 0.84050 0.18740 -0.24500
O 	O 	0.73360 0.13630 0.92220 -0.27200
C 	C 	0.89240 0.73560 0.27990 -0.18500
H 	H 	0.91070 0.70950 0.22140 0.09000
O 	O 	0.74870 0.81200 0.58780 -0.27800
C 	C 	0.63660 0.29600 0.15320 -0.01800
C 	C 	0.90510 0.86350 0.39970 -0.06600
H 	H 	0.93220 0.92410 0.42310 0.08600
C 	C 	0.54920 0.27150 0.18600 -0.13100
H 	H 	0.52200 0.31290 0.23210 0.10700
C 	C 	0.67700 0.24010 0.08350 -0.04000
H 	H 	0.73620 0.25810 0.06020 0.07700
C 	C 	0.84090 0.81210 0.45160 0.02800
C 	C 	0.93060 0.82680 0.31250 0.01800
C 	C 	0.81550 0.84940 0.54770 0.30000
C 	C 	0.00230 0.88010 0.25620 0.29700
C 	C 	0.66980 0.09960 0.96930 0.29000
C 	C 	0.62810 0.15610 0.04820 0.00600
Zn	Zn	0.66408 0.54960 0.33343 1.23000
Zn	Zn	0.84797 0.51798 0.20057 1.23300
O 	O 	0.41470 0.33410 0.68910 -0.40600
O 	O 	0.76950 0.10120 0.67700 -0.46200
O 	O 	0.79110 0.90570 0.80120 -0.60300
O 	O 	0.63340 0.48810 0.45200 -0.43300
O 	O 	0.63390 0.04930 0.73540 -0.46600
O 	O 	0.86750 0.57980 0.07950 -0.42700
O 	O 	0.02400 0.52990 0.78520 -0.41400
C 	C 	0.68480 0.11180 0.69210 0.36900
C 	C 	0.54210 0.37090 0.58380 -0.17500
H 	H 	0.51150 0.42970 0.56060 0.10100
C 	C 	0.82740 0.81750 0.83310 0.26000
C 	C 	0.80050 0.77760 0.91780 -0.19200
H 	H 	0.75450 0.81110 0.95310 0.08900
C 	C 	0.49960 0.31380 0.65260 0.22900
O 	O 	0.03550 0.65950 0.68740 -0.24700
O 	O 	0.73360 0.36370 0.42220 -0.27300
C 	C 	0.89240 0.76440 0.77990 -0.18700
H 	H 	0.91070 0.79050 0.72140 0.08900
O 	O 	0.74870 0.68800 0.08780 -0.27700
C 	C 	0.63660 0.20400 0.65320 -0.01500
C 	C 	0.90510 0.63650 0.89970 -0.06700
H 	H 	0.93220 0.57590 0.92310 0.08800
C 	C 	0.54920 0.22850 0.68600 -0.13300
H 	H 	0.52200 0.18710 0.73210 0.10900
C 	C 	0.67700 0.25990 0.58350 -0.04500
H 	H 	0.73620 0.24190 0.56020 0.08000
C 	C 	0.84090 0.68790 0.95160 0.02600
C 	C 	0.93060 0.67320 0.81250 0.02200
C 	C 	0.81550 0.65060 0.04770 0.30200
C 	C 	0.00230 0.61990 0.75620 0.29500
C 	C 	0.66980 0.40040 0.46930 0.28300
C 	C 	0.62810 0.34390 0.54820 0.01600
Zn	Zn	0.66408 0.95040 0.83343 1.22800
Zn	Zn	0.84797 0.98202 0.70057 1.23100
O 	O 	0.58530 0.83410 0.81090 -0.40700
O 	O 	0.23050 0.60120 0.82300 -0.46500
O 	O 	0.20890 0.40570 0.69880 -0.60000
O 	O 	0.36660 0.98810 0.04800 -0.42900
O 	O 	0.36610 0.54930 0.76460 -0.47000
O 	O 	0.13250 0.07980 0.42050 -0.42900
O 	O 	0.97600 0.02990 0.71480 -0.40800
C 	C 	0.31520 0.61180 0.80790 0.37100
C 	C 	0.45790 0.87090 0.91620 -0.17000
H 	H 	0.48850 0.92970 0.93940 0.09700
C 	C 	0.17260 0.31750 0.66690 0.26100
C 	C 	0.19950 0.27760 0.58220 -0.19200
H 	H 	0.24550 0.31110 0.54690 0.09100
C 	C 	0.50040 0.81380 0.84740 0.22600
O 	O 	0.96450 0.15950 0.81260 -0.24500
O 	O 	0.26640 0.86370 0.07780 -0.27200
C 	C 	0.10760 0.26440 0.72010 -0.18500
H 	H 	0.08930 0.29050 0.77860 0.09000
O 	O 	0.25130 0.18800 0.41220 -0.27800
C 	C 	0.36340 0.70400 0.84680 -0.01800
C 	C 	0.09490 0.13650 0.60030 -0.06600
H 	H 	0.06780 0.07590 0.57690 0.08600
C 	C 	0.45080 0.72850 0.81400 -0.13100
H 	H 	0.47800 0.68710 0.76790 0.10700
C 	C 	0.32300 0.75990 0.91650 -0.04000
H 	H 	0.26380 0.74190 0.93980 0.07700
C 	C 	0.15910 0.18790 0.54840 0.02800
C 	C 	0.06940 0.17320 0.68750 0.01800
C 	C 	0.18450 0.15060 0.45230 0.30000
C 	C 	0.99770 0.11990 0.74380 0.29700
C 	C 	0.33020 0.90040 0.03070 0.29000
C 	C 	0.37190 0.84390 0.95180 0.00600
Zn	Zn	0.33592 0.45040 0.66657 1.23000
Zn	Zn	0.15203 0.48202 0.79943 1.23300
