data_crystal

_cell_length_a 23.65190
_cell_length_b 13.05460
_cell_length_c 26.46200
_cell_angle_alpha 90.00000
_cell_angle_beta  115.42400
_cell_angle_gamma 90.00000

_symmetry_space_group_name_	'P 1'
_symmetry_space_group_name_H-M	'P 1'

loop_
_symmetry_equiv_pos_as_xyz
  x,y,z

loop_
_atom_site_label
_atom_site_type_symbol
_atom_site_fract_x
_atom_site_fract_y
_atom_site_fract_z
_atom_site_charge
O 	O 	0.00680 0.59400 0.18630 -0.15500
C 	C 	0.06840 0.61990 0.20260 0.13000
C 	C 	0.11160 0.57140 0.25030 -0.10500
H 	H 	0.09790 0.52170 0.26890 0.09500
C 	C 	0.17480 0.59600 0.27090 -0.02500
C 	C 	0.19480 0.66800 0.24370 -0.01000
H 	H 	0.23800 0.68480 0.25780 -0.01800
C 	C 	0.15150 0.71700 0.19600 -0.05400
C 	C 	0.08830 0.69260 0.17550 -0.06400
H 	H 	0.05880 0.72570 0.14290 0.06300
C 	C 	0.22500 0.54880 0.31850 0.36900
C 	C 	0.17050 0.80790 0.16780 0.35300
Zn	Zn	0.25241 0.36531 0.38626 1.23200
Zn	Zn	0.35934 0.51385 0.39631 1.21400
O 	O 	0.32760 0.43390 0.44300 -0.60100
O 	O 	0.54930 0.48190 0.57770 -0.42700
O 	O 	0.28670 0.22210 0.58040 -0.46200
O 	O 	0.22050 0.78830 0.16300 -0.45900
C 	C 	0.52970 0.42020 0.60390 0.27100
O 	O 	0.56670 0.37870 0.65000 -0.26500
C 	C 	0.46230 0.39580 0.57770 0.02700
O 	O 	0.28100 0.56410 0.33220 -0.47900
C 	C 	0.34150 0.24950 0.60590 0.31600
C 	C 	0.36240 0.40150 0.49640 0.25600
O 	O 	0.37220 0.22240 0.65760 -0.26100
O 	O 	0.13700 0.88580 0.14870 -0.43400
C 	C 	0.43470 0.33800 0.60590 -0.06400
H 	H 	0.45950 0.31690 0.64330 0.08800
C 	C 	0.42610 0.42570 0.52410 -0.20400
H 	H 	0.44480 0.46440 0.50490 0.09700
O 	O 	0.20510 0.48190 0.34360 -0.46700
C 	C 	0.33510 0.34380 0.52580 -0.18800
H 	H 	0.29180 0.32730 0.50830 0.10800
C 	C 	0.37210 0.31140 0.58020 0.00200
O 	O 	0.02010 0.71200 0.23290 -0.12000
C 	C 	0.07610 0.69480 0.23730 0.10500
C 	C 	0.12150 0.63240 0.27630 -0.01900
H 	H 	0.11210 0.59400 0.30220 0.06700
C 	C 	0.18080 0.62600 0.27750 -0.02600
C 	C 	0.19460 0.68200 0.23970 0.00800
H 	H 	0.23510 0.67830 0.24050 0.08100
C 	C 	0.14920 0.74500 0.20060 0.00900
C 	C 	0.09000 0.75100 0.19940 -0.05600
H 	H 	0.05890 0.79360 0.17270 0.07400
O 	O 	0.50680 0.09400 0.18630 -0.15500
C 	C 	0.56840 0.11990 0.20260 0.13100
C 	C 	0.61160 0.07140 0.25030 -0.10500
H 	H 	0.59790 0.02170 0.26890 0.09500
C 	C 	0.67480 0.09600 0.27090 -0.02500
C 	C 	0.69480 0.16800 0.24370 -0.01000
H 	H 	0.73800 0.18480 0.25780 -0.01800
C 	C 	0.65150 0.21700 0.19600 -0.05400
C 	C 	0.58830 0.19260 0.17550 -0.06400
H 	H 	0.55880 0.22570 0.14290 0.06300
C 	C 	0.72500 0.04880 0.31850 0.36800
C 	C 	0.67050 0.30790 0.16780 0.35300
Zn	Zn	0.75241 0.86531 0.38626 1.23200
Zn	Zn	0.85934 0.01385 0.39631 1.21300
O 	O 	0.82760 0.93390 0.44300 -0.60100
O 	O 	0.04930 0.98190 0.57770 -0.42800
O 	O 	0.78670 0.72210 0.58040 -0.46200
O 	O 	0.72050 0.28830 0.16300 -0.45900
C 	C 	0.02970 0.92020 0.60390 0.27100
O 	O 	0.06670 0.87870 0.65000 -0.26500
C 	C 	0.96230 0.89580 0.57770 0.02700
O 	O 	0.78100 0.06410 0.33220 -0.47900
C 	C 	0.84150 0.74950 0.60590 0.31600
C 	C 	0.86240 0.90150 0.49640 0.25600
O 	O 	0.87220 0.72240 0.65760 -0.26100
O 	O 	0.63700 0.38580 0.14870 -0.43500
C 	C 	0.93470 0.83800 0.60590 -0.06400
H 	H 	0.95950 0.81690 0.64330 0.08700
C 	C 	0.92610 0.92570 0.52410 -0.20400
H 	H 	0.94480 0.96440 0.50490 0.09700
O 	O 	0.70510 0.98190 0.34360 -0.46600
C 	C 	0.83510 0.84380 0.52580 -0.18800
H 	H 	0.79180 0.82730 0.50830 0.10800
C 	C 	0.87210 0.81140 0.58020 0.00100
O 	O 	0.52010 0.21200 0.23290 -0.12000
C 	C 	0.57610 0.19480 0.23730 0.10500
C 	C 	0.62150 0.13240 0.27630 -0.01900
H 	H 	0.61210 0.09400 0.30220 0.06700
C 	C 	0.68080 0.12600 0.27750 -0.02600
C 	C 	0.69460 0.18200 0.23970 0.00800
H 	H 	0.73510 0.17830 0.24050 0.08100
C 	C 	0.64920 0.24500 0.20060 0.00900
C 	C 	0.59000 0.25100 0.19940 -0.05600
H 	H 	0.55890 0.29360 0.17270 0.07400
O 	O 	0.99320 0.59400 0.31370 -0.15500
C 	C 	0.93160 0.61990 0.29740 0.12900
C 	C 	0.88840 0.57140 0.24970 -0.10300
H 	H 	0.90210 0.52170 0.23110 0.09500
C 	C 	0.82520 0.59600 0.22910 -0.02400
C 	C 	0.80520 0.66800 0.25630 -0.01000
H 	H 	0.76200 0.68480 0.24220 -0.01600
C 	C 	0.84850 0.71700 0.30400 -0.05300
C 	C 	0.91170 0.69260 0.32450 -0.06200
H 	H 	0.94120 0.72570 0.35710 0.06200
C 	C 	0.77500 0.54880 0.18150 0.36800
C 	C 	0.82950 0.80790 0.33220 0.35300
Zn	Zn	0.74759 0.36531 0.11374 1.23200
Zn	Zn	0.64066 0.51385 0.10369 1.21400
O 	O 	0.67240 0.43390 0.05700 -0.60100
O 	O 	0.45070 0.48190 0.92230 -0.42700
O 	O 	0.71330 0.22210 0.91960 -0.46200
O 	O 	0.77950 0.78830 0.33700 -0.45900
C 	C 	0.47030 0.42020 0.89610 0.27100
O 	O 	0.43330 0.37870 0.85000 -0.26500
C 	C 	0.53770 0.39580 0.92230 0.02700
O 	O 	0.71900 0.56410 0.16780 -0.47900
C 	C 	0.65850 0.24950 0.89410 0.31600
C 	C 	0.63760 0.40150 0.00360 0.25500
O 	O 	0.62780 0.22240 0.84240 -0.26100
O 	O 	0.86300 0.88580 0.35130 -0.43500
C 	C 	0.56530 0.33800 0.89410 -0.06300
H 	H 	0.54050 0.31690 0.85670 0.08800
C 	C 	0.57390 0.42570 0.97590 -0.20300
H 	H 	0.55520 0.46440 0.99510 0.09600
O 	O 	0.79490 0.48190 0.15640 -0.46700
C 	C 	0.66490 0.34380 0.97420 -0.18800
H 	H 	0.70820 0.32730 0.99170 0.10800
C 	C 	0.62790 0.31140 0.91980 0.00100
O 	O 	0.97990 0.71200 0.26710 -0.12000
C 	C 	0.92390 0.69480 0.26270 0.10600
C 	C 	0.87850 0.63240 0.22370 -0.02000
H 	H 	0.88790 0.59400 0.19780 0.06700
C 	C 	0.81920 0.62600 0.22250 -0.02600
C 	C 	0.80540 0.68200 0.26030 0.00800
H 	H 	0.76490 0.67830 0.25950 0.08000
C 	C 	0.85080 0.74500 0.29940 0.00900
C 	C 	0.91000 0.75100 0.30060 -0.05800
H 	H 	0.94110 0.79360 0.32730 0.07400
O 	O 	0.49320 0.09400 0.31370 -0.15500
C 	C 	0.43160 0.11990 0.29740 0.13200
C 	C 	0.38840 0.07140 0.24970 -0.10600
H 	H 	0.40210 0.02170 0.23110 0.09600
C 	C 	0.32520 0.09600 0.22910 -0.02500
C 	C 	0.30520 0.16800 0.25630 -0.01000
H 	H 	0.26200 0.18480 0.24220 -0.01800
C 	C 	0.34850 0.21700 0.30400 -0.05400
C 	C 	0.41170 0.19260 0.32450 -0.06500
H 	H 	0.44120 0.22570 0.35710 0.06300
C 	C 	0.27500 0.04880 0.18150 0.36700
C 	C 	0.32950 0.30790 0.33220 0.35300
Zn	Zn	0.24759 0.86531 0.11374 1.23200
Zn	Zn	0.14066 0.01385 0.10369 1.21300
O 	O 	0.17240 0.93390 0.05700 -0.60100
O 	O 	0.95070 0.98190 0.92230 -0.42800
O 	O 	0.21330 0.72210 0.91960 -0.46200
O 	O 	0.27950 0.28830 0.33700 -0.45900
C 	C 	0.97030 0.92020 0.89610 0.27000
O 	O 	0.93330 0.87870 0.85000 -0.26500
C 	C 	0.03770 0.89580 0.92230 0.02900
O 	O 	0.21900 0.06410 0.16780 -0.47900
C 	C 	0.15850 0.74950 0.89410 0.31600
C 	C 	0.13760 0.90150 0.00360 0.25900
O 	O 	0.12780 0.72240 0.84240 -0.26100
O 	O 	0.36300 0.38580 0.35130 -0.43500
C 	C 	0.06530 0.83800 0.89410 -0.06500
H 	H 	0.04050 0.81690 0.85670 0.08800
C 	C 	0.07390 0.92570 0.97590 -0.20700
H 	H 	0.05520 0.96440 0.99510 0.09700
O 	O 	0.29490 0.98190 0.15640 -0.46500
C 	C 	0.16490 0.84380 0.97420 -0.19100
H 	H 	0.20820 0.82730 0.99170 0.10800
C 	C 	0.12790 0.81140 0.91980 0.00300
O 	O 	0.47990 0.21200 0.26710 -0.12000
C 	C 	0.42390 0.19480 0.26270 0.10300
C 	C 	0.37850 0.13240 0.22370 -0.01800
H 	H 	0.38790 0.09400 0.19780 0.06600
C 	C 	0.31920 0.12600 0.22250 -0.02500
C 	C 	0.30540 0.18200 0.26030 0.00800
H 	H 	0.26490 0.17830 0.25950 0.08100
C 	C 	0.35080 0.24500 0.29940 0.01000
C 	C 	0.41000 0.25100 0.30060 -0.05500
H 	H 	0.44110 0.29360 0.32730 0.07300
O 	O 	0.99320 0.40600 0.81370 -0.15500
C 	C 	0.93160 0.38010 0.79740 0.13000
C 	C 	0.88840 0.42860 0.74970 -0.10500
H 	H 	0.90210 0.47830 0.73110 0.09500
C 	C 	0.82520 0.40400 0.72910 -0.02500
C 	C 	0.80520 0.33200 0.75630 -0.01000
H 	H 	0.76200 0.31520 0.74220 -0.01800
C 	C 	0.84850 0.28300 0.80400 -0.05400
C 	C 	0.91170 0.30740 0.82450 -0.06400
H 	H 	0.94120 0.27430 0.85710 0.06300
C 	C 	0.77500 0.45120 0.68150 0.36900
C 	C 	0.82950 0.19210 0.83220 0.35300
Zn	Zn	0.74759 0.63469 0.61374 1.23200
Zn	Zn	0.64066 0.48615 0.60369 1.21400
O 	O 	0.67240 0.56610 0.55700 -0.60100
O 	O 	0.45070 0.51810 0.42230 -0.42700
O 	O 	0.71330 0.77790 0.41960 -0.46200
O 	O 	0.77950 0.21170 0.83700 -0.45900
C 	C 	0.47030 0.57980 0.39610 0.27100
O 	O 	0.43330 0.62130 0.35000 -0.26500
C 	C 	0.53770 0.60420 0.42230 0.02700
O 	O 	0.71900 0.43590 0.66780 -0.47900
C 	C 	0.65850 0.75050 0.39410 0.31600
C 	C 	0.63760 0.59850 0.50360 0.25600
O 	O 	0.62780 0.77760 0.34240 -0.26100
O 	O 	0.86300 0.11420 0.85130 -0.43400
C 	C 	0.56530 0.66200 0.39410 -0.06400
H 	H 	0.54050 0.68310 0.35670 0.08800
C 	C 	0.57390 0.57430 0.47590 -0.20400
H 	H 	0.55520 0.53560 0.49510 0.09700
O 	O 	0.79490 0.51810 0.65640 -0.46700
C 	C 	0.66490 0.65620 0.47420 -0.18800
H 	H 	0.70820 0.67270 0.49170 0.10800
C 	C 	0.62790 0.68860 0.41980 0.00200
O 	O 	0.97990 0.28800 0.76710 -0.12000
C 	C 	0.92390 0.30520 0.76270 0.10500
C 	C 	0.87850 0.36760 0.72370 -0.01900
H 	H 	0.88790 0.40600 0.69780 0.06700
C 	C 	0.81920 0.37400 0.72250 -0.02600
C 	C 	0.80540 0.31800 0.76030 0.00800
H 	H 	0.76490 0.32170 0.75950 0.08100
C 	C 	0.85080 0.25500 0.79940 0.00900
C 	C 	0.91000 0.24900 0.80060 -0.05600
H 	H 	0.94110 0.20640 0.82730 0.07400
O 	O 	0.49320 0.90600 0.81370 -0.15500
C 	C 	0.43160 0.88010 0.79740 0.13100
C 	C 	0.38840 0.92860 0.74970 -0.10500
H 	H 	0.40210 0.97830 0.73110 0.09500
C 	C 	0.32520 0.90400 0.72910 -0.02500
C 	C 	0.30520 0.83200 0.75630 -0.01000
H 	H 	0.26200 0.81520 0.74220 -0.01800
C 	C 	0.34850 0.78300 0.80400 -0.05400
C 	C 	0.41170 0.80740 0.82450 -0.06400
H 	H 	0.44120 0.77430 0.85710 0.06300
C 	C 	0.27500 0.95120 0.68150 0.36800
C 	C 	0.32950 0.69210 0.83220 0.35300
Zn	Zn	0.24759 0.13469 0.61374 1.23200
Zn	Zn	0.14066 0.98615 0.60369 1.21300
O 	O 	0.17240 0.06610 0.55700 -0.60100
O 	O 	0.95070 0.01810 0.42230 -0.42800
O 	O 	0.21330 0.27790 0.41960 -0.46200
O 	O 	0.27950 0.71170 0.83700 -0.45900
C 	C 	0.97030 0.07980 0.39610 0.27100
O 	O 	0.93330 0.12130 0.35000 -0.26500
C 	C 	0.03770 0.10420 0.42230 0.02700
O 	O 	0.21900 0.93590 0.66780 -0.47900
C 	C 	0.15850 0.25050 0.39410 0.31600
C 	C 	0.13760 0.09850 0.50360 0.25600
O 	O 	0.12780 0.27760 0.34240 -0.26100
O 	O 	0.36300 0.61420 0.85130 -0.43500
C 	C 	0.06530 0.16200 0.39410 -0.06400
H 	H 	0.04050 0.18310 0.35670 0.08700
C 	C 	0.07390 0.07430 0.47590 -0.20400
H 	H 	0.05520 0.03560 0.49510 0.09700
O 	O 	0.29490 0.01810 0.65640 -0.46600
C 	C 	0.16490 0.15620 0.47420 -0.18800
H 	H 	0.20820 0.17270 0.49170 0.10800
C 	C 	0.12790 0.18860 0.41980 0.00100
O 	O 	0.47990 0.78800 0.76710 -0.12000
C 	C 	0.42390 0.80520 0.76270 0.10500
C 	C 	0.37850 0.86760 0.72370 -0.01900
H 	H 	0.38790 0.90600 0.69780 0.06700
C 	C 	0.31920 0.87400 0.72250 -0.02600
C 	C 	0.30540 0.81800 0.76030 0.00800
H 	H 	0.26490 0.82170 0.75950 0.08100
C 	C 	0.35080 0.75500 0.79940 0.00900
C 	C 	0.41000 0.74900 0.80060 -0.05600
H 	H 	0.44110 0.70640 0.82730 0.07400
O 	O 	0.00680 0.40600 0.68630 -0.15500
C 	C 	0.06840 0.38010 0.70260 0.12900
C 	C 	0.11160 0.42860 0.75030 -0.10300
H 	H 	0.09790 0.47830 0.76890 0.09500
C 	C 	0.17480 0.40400 0.77090 -0.02400
C 	C 	0.19480 0.33200 0.74370 -0.01000
H 	H 	0.23800 0.31520 0.75780 -0.01600
C 	C 	0.15150 0.28300 0.69600 -0.05300
C 	C 	0.08830 0.30740 0.67550 -0.06200
H 	H 	0.05880 0.27430 0.64290 0.06200
C 	C 	0.22500 0.45120 0.81850 0.36800
C 	C 	0.17050 0.19210 0.66780 0.35300
Zn	Zn	0.25241 0.63469 0.88626 1.23200
Zn	Zn	0.35934 0.48615 0.89631 1.21400
O 	O 	0.32760 0.56610 0.94300 -0.60100
O 	O 	0.54930 0.51810 0.07770 -0.42700
O 	O 	0.28670 0.77790 0.08040 -0.46200
O 	O 	0.22050 0.21170 0.66300 -0.45900
C 	C 	0.52970 0.57980 0.10390 0.27100
O 	O 	0.56670 0.62130 0.15000 -0.26500
C 	C 	0.46230 0.60420 0.07770 0.02700
O 	O 	0.28100 0.43590 0.83220 -0.47900
C 	C 	0.34150 0.75050 0.10590 0.31600
C 	C 	0.36240 0.59850 0.99640 0.25500
O 	O 	0.37220 0.77760 0.15760 -0.26100
O 	O 	0.13700 0.11420 0.64870 -0.43500
C 	C 	0.43470 0.66200 0.10590 -0.06300
H 	H 	0.45950 0.68310 0.14330 0.08800
C 	C 	0.42610 0.57430 0.02410 -0.20300
H 	H 	0.44480 0.53560 0.00490 0.09600
O 	O 	0.20510 0.51810 0.84360 -0.46700
C 	C 	0.33510 0.65620 0.02580 -0.18800
H 	H 	0.29180 0.67270 0.00830 0.10800
C 	C 	0.37210 0.68860 0.08020 0.00100
O 	O 	0.02010 0.28800 0.73290 -0.12000
C 	C 	0.07610 0.30520 0.73730 0.10600
C 	C 	0.12150 0.36760 0.77630 -0.02000
H 	H 	0.11210 0.40600 0.80220 0.06700
C 	C 	0.18080 0.37400 0.77750 -0.02600
C 	C 	0.19460 0.31800 0.73970 0.00800
H 	H 	0.23510 0.32170 0.74050 0.08000
C 	C 	0.14920 0.25500 0.70060 0.00900
C 	C 	0.09000 0.24900 0.69940 -0.05800
H 	H 	0.05890 0.20640 0.67270 0.07400
O 	O 	0.50680 0.90600 0.68630 -0.15500
C 	C 	0.56840 0.88010 0.70260 0.13200
C 	C 	0.61160 0.92860 0.75030 -0.10600
H 	H 	0.59790 0.97830 0.76890 0.09600
C 	C 	0.67480 0.90400 0.77090 -0.02500
C 	C 	0.69480 0.83200 0.74370 -0.01000
H 	H 	0.73800 0.81520 0.75780 -0.01800
C 	C 	0.65150 0.78300 0.69600 -0.05400
C 	C 	0.58830 0.80740 0.67550 -0.06500
H 	H 	0.55880 0.77430 0.64290 0.06300
C 	C 	0.72500 0.95120 0.81850 0.36700
C 	C 	0.67050 0.69210 0.66780 0.35300
Zn	Zn	0.75241 0.13469 0.88626 1.23200
Zn	Zn	0.85934 0.98615 0.89631 1.21300
O 	O 	0.82760 0.06610 0.94300 -0.60100
O 	O 	0.04930 0.01810 0.07770 -0.42800
O 	O 	0.78670 0.27790 0.08040 -0.46200
O 	O 	0.72050 0.71170 0.66300 -0.45900
C 	C 	0.02970 0.07980 0.10390 0.27000
O 	O 	0.06670 0.12130 0.15000 -0.26500
C 	C 	0.96230 0.10420 0.07770 0.02900
O 	O 	0.78100 0.93590 0.83220 -0.47900
C 	C 	0.84150 0.25050 0.10590 0.31600
C 	C 	0.86240 0.09850 0.99640 0.25900
O 	O 	0.87220 0.27760 0.15760 -0.26100
O 	O 	0.63700 0.61420 0.64870 -0.43500
C 	C 	0.93470 0.16200 0.10590 -0.06500
H 	H 	0.95950 0.18310 0.14330 0.08800
C 	C 	0.92610 0.07430 0.02410 -0.20700
H 	H 	0.94480 0.03560 0.00490 0.09700
O 	O 	0.70510 0.01810 0.84360 -0.46500
C 	C 	0.83510 0.15620 0.02580 -0.19100
H 	H 	0.79180 0.17270 0.00830 0.10800
C 	C 	0.87210 0.18860 0.08020 0.00300
O 	O 	0.52010 0.78800 0.73290 -0.12000
C 	C 	0.57610 0.80520 0.73730 0.10300
C 	C 	0.62150 0.86760 0.77630 -0.01800
H 	H 	0.61210 0.90600 0.80220 0.06600
C 	C 	0.68080 0.87400 0.77750 -0.02500
C 	C 	0.69460 0.81800 0.73970 0.00800
H 	H 	0.73510 0.82170 0.74050 0.08100
C 	C 	0.64920 0.75500 0.70060 0.01000
C 	C 	0.59000 0.74900 0.69940 -0.05500
H 	H 	0.55890 0.70640 0.67270 0.07300
