data_crystal

_cell_length_a 16.16820
_cell_length_b 15.10200
_cell_length_c 7.98460
_cell_angle_alpha 90.00000
_cell_angle_beta  92.84500
_cell_angle_gamma 90.00000

_symmetry_space_group_name_	'P 1'
_symmetry_space_group_name_H-M	'P 1'

loop_
_symmetry_equiv_pos_as_xyz
  x,y,z

loop_
_atom_site_label
_atom_site_type_symbol
_atom_site_fract_x
_atom_site_fract_y
_atom_site_fract_z
_atom_site_charge
Dy	Dy	0.45454 0.61618 0.04948 1.86200
Ag	Ag	0.97316 0.73989 0.60071 0.47800
O 	O 	0.35829 0.81592 0.71900 -0.48900
O 	O 	0.38143 0.68117 0.82810 -0.52400
O 	O 	0.57620 0.63300 0.90800 -0.49500
O 	O 	0.63060 0.49745 0.86320 -0.48300
O 	O 	0.53470 0.61490 0.31470 -0.48300
O 	O 	0.54781 0.49700 0.16070 -0.59600
N 	N 	0.09430 0.75270 0.99810 -0.19200
N 	N 	0.85760 0.69670 0.69910 -0.19700
C 	C 	0.25160 0.74940 0.86950 -0.11500
C 	C 	0.21160 0.67100 0.91120 -0.01500
H 	H 	0.23720 0.61650 0.89670 0.01600
C 	C 	0.13360 0.67530 0.97410 -0.00200
H 	H 	0.10720 0.62290 0.00080 -0.00700
C 	C 	0.13330 0.82840 0.95890 -0.00000
H 	H 	0.10680 0.88210 0.97600 -0.01000
C 	C 	0.21090 0.82940 0.89450 -0.02900
H 	H 	0.23580 0.88280 0.86800 0.03900
C 	C 	0.33670 0.74950 0.80080 0.43500
C 	C 	0.63320 0.58090 0.86370 0.42300
C 	C 	0.71130 0.62310 0.80580 -0.09900
C 	C 	0.71560 0.71230 0.76130 -0.03700
H 	H 	0.66930 0.74860 0.76680 0.04100
C 	C 	0.78940 0.74580 0.70880 0.01000
H 	H 	0.79170 0.80530 0.67910 -0.00100
C 	C 	0.85330 0.61080 0.74570 -0.00200
H 	H 	0.90090 0.57630 0.74270 -0.01600
C 	C 	0.78180 0.57190 0.79750 -0.04500
H 	H 	0.78100 0.51230 0.82640 0.04100
C 	C 	0.56970 0.54110 0.28980 0.47300
C 	C 	0.62710 0.50150 0.42100 -0.35400
H 	H 	0.67190 0.54180 0.44670 0.20000
H 	H 	0.64870 0.44680 0.38040 0.49200
H 	H 	0.59760 0.49050 0.52030 0.18100
C 	C 	0.64440 0.51270 0.39300 -0.13000
H 	H 	0.65030 0.54880 0.49150 -0.02100
H 	H 	0.69260 0.51910 0.32820 -0.00800
H 	H 	0.63850 0.45180 0.42460 -0.33600
Dy	Dy	0.54546 0.11618 0.45052 1.86500
Ag	Ag	0.02684 0.23989 0.89929 0.47900
O 	O 	0.64171 0.31592 0.78100 -0.49000
O 	O 	0.61857 0.18117 0.67190 -0.52500
O 	O 	0.42380 0.13300 0.59200 -0.49500
O 	O 	0.36940 0.99745 0.63680 -0.48300
O 	O 	0.46530 0.11490 0.18530 -0.48300
O 	O 	0.45219 0.99700 0.33930 -0.59800
N 	N 	0.90570 0.25270 0.50190 -0.19200
N 	N 	0.14240 0.19670 0.80090 -0.19800
C 	C 	0.74840 0.24940 0.63050 -0.11600
C 	C 	0.78840 0.17100 0.58880 -0.01400
H 	H 	0.76280 0.11650 0.60330 0.01500
C 	C 	0.86640 0.17530 0.52590 -0.00500
H 	H 	0.89280 0.12290 0.49920 -0.00500
C 	C 	0.86670 0.32840 0.54110 -0.00100
H 	H 	0.89320 0.38210 0.52400 -0.01100
C 	C 	0.78910 0.32940 0.60550 -0.02900
H 	H 	0.76420 0.38280 0.63200 0.03800
C 	C 	0.66330 0.24950 0.69920 0.43500
C 	C 	0.36680 0.08090 0.63630 0.42200
C 	C 	0.28870 0.12310 0.69420 -0.10000
C 	C 	0.28440 0.21230 0.73870 -0.03700
H 	H 	0.33070 0.24860 0.73320 0.04000
C 	C 	0.21060 0.24580 0.79120 0.00900
H 	H 	0.20830 0.30530 0.82090 -0.00100
C 	C 	0.14670 0.11080 0.75430 -0.00200
H 	H 	0.09910 0.07630 0.75730 -0.01700
C 	C 	0.21820 0.07190 0.70250 -0.04600
H 	H 	0.21900 0.01230 0.67360 0.04000
C 	C 	0.43030 0.04110 0.21020 0.47500
C 	C 	0.37290 0.00150 0.07900 -0.35400
H 	H 	0.32810 0.04180 0.05330 0.20100
H 	H 	0.35130 0.94680 0.11960 0.48700
H 	H 	0.40240 0.99050 0.97970 0.18200
C 	C 	0.35560 0.01270 0.10700 -0.13200
H 	H 	0.34970 0.04880 0.00850 -0.02100
H 	H 	0.30740 0.01910 0.17180 -0.00700
H 	H 	0.36150 0.95180 0.07540 -0.33200
Dy	Dy	0.54546 0.38382 0.95052 1.86300
Ag	Ag	0.02684 0.26011 0.39929 0.47900
O 	O 	0.64171 0.18408 0.28100 -0.48900
O 	O 	0.61857 0.31883 0.17190 -0.52400
O 	O 	0.42380 0.36700 0.09200 -0.49500
O 	O 	0.36940 0.50255 0.13680 -0.48300
O 	O 	0.46530 0.38510 0.68530 -0.48300
O 	O 	0.45219 0.50300 0.83930 -0.59600
N 	N 	0.90570 0.24730 0.00190 -0.19200
N 	N 	0.14240 0.30330 0.30090 -0.19700
C 	C 	0.74840 0.25060 0.13050 -0.11500
C 	C 	0.78840 0.32900 0.08880 -0.01500
H 	H 	0.76280 0.38350 0.10330 0.01600
C 	C 	0.86640 0.32470 0.02590 -0.00200
H 	H 	0.89280 0.37710 0.99920 -0.00700
C 	C 	0.86670 0.17160 0.04110 -0.00000
H 	H 	0.89320 0.11790 0.02400 -0.01000
C 	C 	0.78910 0.17060 0.10550 -0.02900
H 	H 	0.76420 0.11720 0.13200 0.03900
C 	C 	0.66330 0.25050 0.19920 0.43500
C 	C 	0.36680 0.41910 0.13630 0.42300
C 	C 	0.28870 0.37690 0.19420 -0.09900
C 	C 	0.28440 0.28770 0.23870 -0.03700
H 	H 	0.33070 0.25140 0.23320 0.04100
C 	C 	0.21060 0.25420 0.29120 0.01000
H 	H 	0.20830 0.19470 0.32090 -0.00100
C 	C 	0.14670 0.38920 0.25430 -0.00200
H 	H 	0.09910 0.42370 0.25730 -0.01600
C 	C 	0.21820 0.42810 0.20250 -0.04500
H 	H 	0.21900 0.48770 0.17360 0.04100
C 	C 	0.43030 0.45890 0.71020 0.47300
C 	C 	0.37290 0.49850 0.57900 -0.35400
H 	H 	0.32810 0.45820 0.55330 0.20000
H 	H 	0.35130 0.55320 0.61960 0.49200
H 	H 	0.40240 0.50950 0.47970 0.18100
C 	C 	0.35560 0.48730 0.60700 -0.13000
H 	H 	0.34970 0.45120 0.50850 -0.02100
H 	H 	0.30740 0.48090 0.67180 -0.00800
H 	H 	0.36150 0.54820 0.57540 -0.33600
Dy	Dy	0.45454 0.88382 0.54948 1.86500
Ag	Ag	0.97316 0.76011 0.10071 0.47900
O 	O 	0.35829 0.68408 0.21900 -0.49000
O 	O 	0.38143 0.81883 0.32810 -0.52500
O 	O 	0.57620 0.86700 0.40800 -0.49500
O 	O 	0.63060 0.00255 0.36320 -0.48300
O 	O 	0.53470 0.88510 0.81470 -0.48300
O 	O 	0.54781 0.00300 0.66070 -0.59800
N 	N 	0.09430 0.74730 0.49810 -0.19200
N 	N 	0.85760 0.80330 0.19910 -0.19800
C 	C 	0.25160 0.75060 0.36950 -0.11600
C 	C 	0.21160 0.82900 0.41120 -0.01400
H 	H 	0.23720 0.88350 0.39670 0.01500
C 	C 	0.13360 0.82470 0.47410 -0.00500
H 	H 	0.10720 0.87710 0.50080 -0.00500
C 	C 	0.13330 0.67160 0.45890 -0.00100
H 	H 	0.10680 0.61790 0.47600 -0.01100
C 	C 	0.21090 0.67060 0.39450 -0.02900
H 	H 	0.23580 0.61720 0.36800 0.03800
C 	C 	0.33670 0.75050 0.30080 0.43500
C 	C 	0.63320 0.91910 0.36370 0.42200
C 	C 	0.71130 0.87690 0.30580 -0.10000
C 	C 	0.71560 0.78770 0.26130 -0.03700
H 	H 	0.66930 0.75140 0.26680 0.04000
C 	C 	0.78940 0.75420 0.20880 0.00900
H 	H 	0.79170 0.69470 0.17910 -0.00100
C 	C 	0.85330 0.88920 0.24570 -0.00200
H 	H 	0.90090 0.92370 0.24270 -0.01700
C 	C 	0.78180 0.92810 0.29750 -0.04600
H 	H 	0.78100 0.98770 0.32640 0.04000
C 	C 	0.56970 0.95890 0.78980 0.47500
C 	C 	0.62710 0.99850 0.92100 -0.35400
H 	H 	0.67190 0.95820 0.94670 0.20100
H 	H 	0.64870 0.05320 0.88040 0.48700
H 	H 	0.59760 0.00950 0.02030 0.18200
C 	C 	0.64440 0.98730 0.89300 -0.13200
H 	H 	0.65030 0.95120 0.99150 -0.02100
H 	H 	0.69260 0.98090 0.82820 -0.00700
H 	H 	0.63850 0.04820 0.92460 -0.33200
