data_crystal

_cell_length_a 6.71200
_cell_length_b 11.24860
_cell_length_c 17.96500
_cell_angle_alpha 90.00000
_cell_angle_beta  91.97500
_cell_angle_gamma 90.00000

_symmetry_space_group_name_	'P 1'
_symmetry_space_group_name_H-M	'P 1'

loop_
_symmetry_equiv_pos_as_xyz
  x,y,z

loop_
_atom_site_label
_atom_site_type_symbol
_atom_site_fract_x
_atom_site_fract_y
_atom_site_fract_z
_atom_site_charge
O 	O 	0.39440 0.87850 0.42750 -0.52900
C 	C 	0.23800 0.86920 0.39460 0.51500
C 	C 	0.24030 0.80300 0.31870 -0.04300
C 	C 	0.07160 0.78340 0.27780 -0.13800
C 	C 	0.08060 0.72860 0.20820 -0.12400
O 	O 	0.43020 0.59800 0.08750 -0.62100
H 	H 	0.55460 0.79000 0.32370 0.08000
H 	H 	0.56970 0.68900 0.20180 0.06000
H 	H 	0.25000 0.33420 -0.00000 0.16400
O 	O 	0.89440 0.37850 0.92750 -0.46800
C 	C 	0.73800 0.36920 0.89460 0.51400
C 	C 	0.74030 0.30300 0.81870 -0.13100
C 	C 	0.57160 0.28340 0.77780 -0.00800
C 	C 	0.58060 0.22860 0.70820 0.01600
O 	O 	0.93020 0.09800 0.58750 -0.61300
H 	H 	0.05460 0.29000 0.82370 -0.08700
H 	H 	0.06970 0.18900 0.70180 -0.12600
H 	H 	0.75000 0.83420 0.50000 0.25200
O 	O 	0.10560 0.87850 0.57250 -0.59700
C 	C 	0.26200 0.86920 0.60540 0.51900
C 	C 	0.25970 0.80300 0.68130 -0.04900
C 	C 	0.42840 0.78340 0.72220 0.02100
C 	C 	0.41940 0.72860 0.79180 0.01300
O 	O 	0.06980 0.59800 0.91250 -0.58600
H 	H 	0.94540 0.79000 0.67630 0.19700
H 	H 	0.93030 0.68900 0.79820 0.19400
O 	O 	0.60560 0.37850 0.07250 -0.67700
C 	C 	0.76200 0.36920 0.10540 0.53700
C 	C 	0.75970 0.30300 0.18130 -0.17200
C 	C 	0.92840 0.28340 0.22220 0.15100
C 	C 	0.91940 0.22860 0.29180 0.15000
O 	O 	0.56980 0.09800 0.41250 -0.70100
H 	H 	0.44540 0.29000 0.17630 0.01000
H 	H 	0.43030 0.18900 0.29820 -0.00300
O 	O 	0.60560 0.12150 0.57250 -0.70000
C 	C 	0.76200 0.13080 0.60540 0.53900
C 	C 	0.75970 0.19700 0.68130 -0.19000
C 	C 	0.92840 0.21660 0.72220 0.17200
C 	C 	0.91940 0.27140 0.79180 0.12900
O 	O 	0.56980 0.40200 0.91250 -0.53300
H 	H 	0.44540 0.21000 0.67630 0.00700
H 	H 	0.43030 0.31100 0.79820 0.03200
O 	O 	0.10560 0.62150 0.07250 -0.71700
C 	C 	0.26200 0.63080 0.10540 0.52700
C 	C 	0.25970 0.69700 0.18130 -0.08200
C 	C 	0.42840 0.71660 0.22220 0.02100
C 	C 	0.41940 0.77140 0.29180 0.00200
O 	O 	0.06980 0.90200 0.41250 -0.56200
H 	H 	0.94540 0.71000 0.17630 0.18400
H 	H 	0.93030 0.81100 0.29820 0.20400
H 	H 	0.25000 0.16580 0.50000 0.24900
O 	O 	0.89440 0.12150 0.42750 -0.61900
C 	C 	0.73800 0.13080 0.39460 0.53400
C 	C 	0.74030 0.19700 0.31870 -0.18300
C 	C 	0.57160 0.21660 0.27780 0.00500
C 	C 	0.58060 0.27140 0.20820 -0.00600
O 	O 	0.93020 0.40200 0.08750 -0.55600
H 	H 	0.05460 0.21000 0.32370 -0.11900
H 	H 	0.06970 0.31100 0.20180 -0.10900
H 	H 	0.75000 0.66580 -0.00000 0.26400
O 	O 	0.39440 0.62150 0.92750 -0.51500
C 	C 	0.23800 0.63080 0.89460 0.50500
C 	C 	0.24030 0.69700 0.81870 -0.04300
C 	C 	0.07160 0.71660 0.77780 -0.12800
C 	C 	0.08060 0.77140 0.70820 -0.12300
O 	O 	0.43020 0.90200 0.58750 -0.48800
H 	H 	0.55460 0.71000 0.82370 0.08800
H 	H 	0.56970 0.81100 0.70180 0.08700
Ga	Ga	0.50000 0.00000 0.50000 2.03500
Ga	Ga	-0.00000 0.50000 -0.00000 2.04100
Ga	Ga	0.00000 0.00000 0.50000 2.00400
Ga	Ga	0.50000 0.50000 -0.00000 2.07200
O 	O 	0.25000 0.07690 0.50000 -1.07500
O 	O 	0.75000 0.57690 -0.00000 -0.95000
O 	O 	0.75000 0.92310 0.50000 -0.70800
O 	O 	0.25000 0.42310 -0.00000 -1.01500
