data_crystal

_cell_length_a 16.32610
_cell_length_b 16.32610
_cell_length_c 6.54950
_cell_angle_alpha 90.00000
_cell_angle_beta  90.00000
_cell_angle_gamma 90.00000

_symmetry_space_group_name_	'P 1'
_symmetry_space_group_name_H-M	'P 1'

loop_
_symmetry_equiv_pos_as_xyz
  x,y,z

loop_
_atom_site_label
_atom_site_type_symbol
_atom_site_fract_x
_atom_site_fract_y
_atom_site_fract_z
_atom_site_charge
N 	N 	0.96420 0.18170 0.21070 -0.33500
H 	H 	0.88320 0.30540 0.54380 0.29200
H 	H 	0.92320 0.22170 0.60560 0.32200
H 	H 	0.84160 0.22280 0.47940 0.28800
C 	C 	0.00480 0.20760 0.03950 -0.04400
C 	C 	0.03620 0.14740 0.89120 0.30000
O 	O 	0.01763 0.07389 0.92300 -0.50000
O 	O 	0.07680 0.17100 0.73860 -0.24600
N 	N 	0.53580 0.31830 0.21070 -0.32900
H 	H 	0.61680 0.19460 0.54380 0.29600
H 	H 	0.57680 0.27830 0.60560 0.32700
H 	H 	0.65840 0.27720 0.47940 0.29100
C 	C 	0.49520 0.29240 0.03950 -0.05400
C 	C 	0.46380 0.35260 0.89120 0.30400
O 	O 	0.48237 0.42611 0.92300 -0.50800
O 	O 	0.42320 0.32900 0.73860 -0.24900
N 	N 	0.31830 0.96420 0.71070 -0.31400
H 	H 	0.19460 0.88320 0.04380 0.24200
H 	H 	0.27830 0.92320 0.10560 0.26500
H 	H 	0.27720 0.84160 0.97940 0.22500
C 	C 	0.29240 0.00480 0.53950 -0.04600
C 	C 	0.35260 0.03620 0.39120 0.30200
O 	O 	0.42611 0.01763 0.42300 -0.50700
O 	O 	0.32900 0.07680 0.23860 -0.24500
N 	N 	0.18170 0.53580 0.71070 -0.31600
H 	H 	0.30540 0.61680 0.04380 0.25700
H 	H 	0.22170 0.57680 0.10560 0.28200
H 	H 	0.22280 0.65840 0.97940 0.24200
C 	C 	0.20760 0.49520 0.53950 -0.05000
C 	C 	0.14740 0.46380 0.39120 0.30200
O 	O 	0.07389 0.48237 0.42300 -0.50700
O 	O 	0.17100 0.42320 0.23860 -0.24500
N 	N 	0.03580 0.68170 0.78930 -0.33200
H 	H 	0.11680 0.80540 0.45620 0.29300
H 	H 	0.07680 0.72170 0.39440 0.32400
H 	H 	0.15840 0.72280 0.52060 0.28900
C 	C 	0.99520 0.70760 0.96050 -0.04600
C 	C 	0.96380 0.64740 0.10880 0.30000
O 	O 	0.98237 0.57389 0.07700 -0.50700
O 	O 	0.92320 0.67100 0.26140 -0.24700
N 	N 	0.46420 0.81830 0.78930 -0.32800
H 	H 	0.38320 0.69460 0.45620 0.29600
H 	H 	0.42320 0.77830 0.39440 0.32700
H 	H 	0.34160 0.77720 0.52060 0.29200
C 	C 	0.50480 0.79240 0.96050 -0.05600
C 	C 	0.53620 0.85260 0.10880 0.30600
O 	O 	0.51763 0.92611 0.07700 -0.50500
O 	O 	0.57680 0.82900 0.26140 -0.24900
N 	N 	0.68170 0.46420 0.28930 -0.31600
H 	H 	0.80540 0.38320 0.95620 0.25800
H 	H 	0.72170 0.42320 0.89440 0.28200
H 	H 	0.72280 0.34160 0.02060 0.24400
C 	C 	0.70760 0.50480 0.46050 -0.05000
C 	C 	0.64740 0.53620 0.60880 0.30200
O 	O 	0.57389 0.51763 0.57700 -0.50800
O 	O 	0.67100 0.57680 0.76140 -0.24600
N 	N 	0.81830 0.03580 0.28930 -0.31600
H 	H 	0.69460 0.11680 0.95620 0.24200
H 	H 	0.77830 0.07680 0.89440 0.26500
H 	H 	0.77720 0.15840 0.02060 0.22300
C 	C 	0.79240 0.99520 0.46050 -0.04200
C 	C 	0.85260 0.96380 0.60880 0.30000
O 	O 	0.92611 0.98237 0.57700 -0.50200
O 	O 	0.82900 0.92320 0.76140 -0.24400
N 	N 	0.03580 0.81830 0.78930 -0.33400
H 	H 	0.11680 0.69460 0.45620 0.29300
H 	H 	0.07680 0.77830 0.39440 0.32300
H 	H 	0.15840 0.77720 0.52060 0.28900
C 	C 	0.99520 0.79240 0.96050 -0.04400
C 	C 	0.96380 0.85260 0.10880 0.30000
O 	O 	0.98237 0.92611 0.07700 -0.50000
O 	O 	0.92320 0.82900 0.26140 -0.24600
N 	N 	0.46420 0.68170 0.78930 -0.32900
H 	H 	0.38320 0.80540 0.45620 0.29600
H 	H 	0.42320 0.72170 0.39440 0.32700
H 	H 	0.34160 0.72280 0.52060 0.29100
C 	C 	0.50480 0.70760 0.96050 -0.05400
C 	C 	0.53620 0.64740 0.10880 0.30400
O 	O 	0.51763 0.57389 0.07700 -0.50800
O 	O 	0.57680 0.67100 0.26140 -0.24900
N 	N 	0.68170 0.03580 0.28930 -0.31400
H 	H 	0.80540 0.11680 0.95620 0.24200
H 	H 	0.72170 0.07680 0.89440 0.26500
H 	H 	0.72280 0.15840 0.02060 0.22500
C 	C 	0.70760 0.99520 0.46050 -0.04600
C 	C 	0.64740 0.96380 0.60880 0.30200
O 	O 	0.57389 0.98237 0.57700 -0.50700
O 	O 	0.67100 0.92320 0.76140 -0.24500
N 	N 	0.81830 0.46420 0.28930 -0.31600
H 	H 	0.69460 0.38320 0.95620 0.25700
H 	H 	0.77830 0.42320 0.89440 0.28200
H 	H 	0.77720 0.34160 0.02060 0.24200
C 	C 	0.79240 0.50480 0.46050 -0.05000
C 	C 	0.85260 0.53620 0.60880 0.30200
O 	O 	0.92611 0.51763 0.57700 -0.50700
O 	O 	0.82900 0.57680 0.76140 -0.24500
N 	N 	0.96420 0.31830 0.21070 -0.33200
H 	H 	0.88320 0.19460 0.54380 0.29300
H 	H 	0.92320 0.27830 0.60560 0.32400
H 	H 	0.84160 0.27720 0.47940 0.28900
C 	C 	0.00480 0.29240 0.03950 -0.04600
C 	C 	0.03620 0.35260 0.89120 0.30000
O 	O 	0.01763 0.42611 0.92300 -0.50700
O 	O 	0.07680 0.32900 0.73860 -0.24700
N 	N 	0.53580 0.18170 0.21070 -0.32800
H 	H 	0.61680 0.30540 0.54380 0.29600
H 	H 	0.57680 0.22170 0.60560 0.32700
H 	H 	0.65840 0.22280 0.47940 0.29200
C 	C 	0.49520 0.20760 0.03950 -0.05600
C 	C 	0.46380 0.14740 0.89120 0.30600
O 	O 	0.48237 0.07389 0.92300 -0.50500
O 	O 	0.42320 0.17100 0.73860 -0.24900
N 	N 	0.31830 0.53580 0.71070 -0.31600
H 	H 	0.19460 0.61680 0.04380 0.25800
H 	H 	0.27830 0.57680 0.10560 0.28200
H 	H 	0.27720 0.65840 0.97940 0.24400
C 	C 	0.29240 0.49520 0.53950 -0.05000
C 	C 	0.35260 0.46380 0.39120 0.30200
O 	O 	0.42611 0.48237 0.42300 -0.50800
O 	O 	0.32900 0.42320 0.23860 -0.24600
N 	N 	0.18170 0.96420 0.71070 -0.31600
H 	H 	0.30540 0.88320 0.04380 0.24200
H 	H 	0.22170 0.92320 0.10560 0.26500
H 	H 	0.22280 0.84160 0.97940 0.22300
C 	C 	0.20760 0.00480 0.53950 -0.04200
C 	C 	0.14740 0.03620 0.39120 0.30000
O 	O 	0.07389 0.01763 0.42300 -0.50200
O 	O 	0.17100 0.07680 0.23860 -0.24400
Cd	Cd	0.95540 0.04460 0.25000 1.21500
Cd	Cd	0.54460 0.45540 0.25000 1.22000
Cd	Cd	0.45540 0.95540 0.75000 1.21900
Cd	Cd	0.04460 0.54460 0.75000 1.22000
Cd	Cd	0.04460 0.95540 0.75000 1.21500
Cd	Cd	0.45540 0.54460 0.75000 1.22000
Cd	Cd	0.54460 0.04460 0.25000 1.21900
Cd	Cd	0.95540 0.45540 0.25000 1.22000
C 	C 	0.94090 0.25000 0.30870 0.55200
C 	C 	0.89300 0.25000 0.50140 -1.89600
C 	C 	0.55910 0.25000 0.30870 0.55700
C 	C 	0.60700 0.25000 0.50140 -1.91100
C 	C 	0.25000 0.94090 0.80870 0.45700
C 	C 	0.25000 0.89300 0.00140 -1.55600
C 	C 	0.25000 0.55910 0.80870 0.48600
C 	C 	0.25000 0.60700 0.00140 -1.65600
C 	C 	0.05910 0.75000 0.69130 0.55200
C 	C 	0.10700 0.75000 0.49860 -1.89600
C 	C 	0.44090 0.75000 0.69130 0.55700
C 	C 	0.39300 0.75000 0.49860 -1.91100
C 	C 	0.75000 0.44090 0.19130 0.48600
C 	C 	0.75000 0.39300 0.99860 -1.65600
C 	C 	0.75000 0.05910 0.19130 0.45700
C 	C 	0.75000 0.10700 0.99860 -1.55600
