data_crystal

_cell_length_a 13.59260
_cell_length_b 19.95730
_cell_length_c 19.86630
_cell_angle_alpha 90.00000
_cell_angle_beta  90.00000
_cell_angle_gamma 90.00000

_symmetry_space_group_name_	'P 1'
_symmetry_space_group_name_H-M	'P 1'

loop_
_symmetry_equiv_pos_as_xyz
  x,y,z

loop_
_atom_site_label
_atom_site_type_symbol
_atom_site_fract_x
_atom_site_fract_y
_atom_site_fract_z
_atom_site_charge
N 	N 	0.75046 0.42716 0.07567 -0.16000
N 	N 	0.74970 0.33138 0.17734 -0.21300
C 	C 	0.67510 0.38431 0.08340 0.00300
H 	H 	0.62080 0.38690 0.05340 0.06200
C 	C 	0.67440 0.33646 0.13372 0.01500
H 	H 	0.62010 0.30680 0.13750 0.00300
C 	C 	0.82550 0.42118 0.11881 0.00300
H 	H 	0.88060 0.45020 0.11430 0.03100
C 	C 	0.82530 0.37388 0.16989 0.01000
H 	H 	0.87950 0.37150 0.20000 0.00200
H 	H 	0.92670 0.54090 0.00060 0.32700
N 	N 	0.74954 0.57284 0.57567 -0.16500
N 	N 	0.75030 0.66862 0.67734 -0.21400
C 	C 	0.82490 0.61569 0.58340 0.00000
H 	H 	0.87920 0.61310 0.55340 0.05500
C 	C 	0.82560 0.66354 0.63372 0.01200
H 	H 	0.87990 0.69320 0.63750 0.00000
C 	C 	0.67450 0.57882 0.61881 -0.00100
H 	H 	0.61940 0.54980 0.61430 0.02700
C 	C 	0.67470 0.62612 0.66989 0.00800
H 	H 	0.62050 0.62850 0.70000 0.00100
H 	H 	0.57330 0.45910 0.50060 0.32300
N 	N 	0.74954 0.42716 0.42433 -0.16500
N 	N 	0.75030 0.33138 0.32266 -0.21400
C 	C 	0.82490 0.38431 0.41660 0.00000
H 	H 	0.87920 0.38690 0.44660 0.05500
C 	C 	0.82560 0.33646 0.36628 0.01200
H 	H 	0.87990 0.30680 0.36250 0.00000
C 	C 	0.67450 0.42118 0.38119 -0.00100
H 	H 	0.61940 0.45020 0.38570 0.02700
C 	C 	0.67470 0.37388 0.33011 0.00800
H 	H 	0.62050 0.37150 0.30000 0.00100
H 	H 	0.57330 0.54090 0.49940 0.32300
N 	N 	0.75046 0.57284 0.92433 -0.17500
N 	N 	0.74970 0.66862 0.82266 -0.21400
C 	C 	0.67510 0.61569 0.91660 -0.00200
H 	H 	0.62080 0.61310 0.94660 0.04400
C 	C 	0.67440 0.66354 0.86628 0.00800
H 	H 	0.62010 0.69320 0.86250 -0.00100
C 	C 	0.82550 0.57882 0.88119 -0.00300
H 	H 	0.88060 0.54980 0.88570 0.02200
C 	C 	0.82530 0.62612 0.83011 0.00600
H 	H 	0.87950 0.62850 0.80000 0.00100
H 	H 	0.92670 0.45910 0.99940 0.29300
N 	N 	0.74936 0.81163 0.82092 -0.21500
N 	N 	0.74980 0.91420 0.91584 -0.16000
C 	C 	0.67180 0.85292 0.82751 0.00300
H 	H 	0.61600 0.84740 0.79920 -0.00100
C 	C 	0.67290 0.90341 0.87534 -0.00300
H 	H 	0.61680 0.93150 0.87950 0.01300
C 	C 	0.82660 0.82151 0.86133 0.00800
H 	H 	0.88240 0.79300 0.85790 -0.00400
C 	C 	0.82610 0.87289 0.90814 -0.00500
H 	H 	0.88240 0.87900 0.93590 0.03600
N 	N 	0.75064 0.18837 0.32092 -0.21500
N 	N 	0.75020 0.08580 0.41584 -0.14000
C 	C 	0.82820 0.14708 0.32751 0.00900
H 	H 	0.88400 0.15260 0.29920 0.00200
C 	C 	0.82710 0.09659 0.37534 0.00200
H 	H 	0.88320 0.06850 0.37950 0.03100
C 	C 	0.67340 0.17849 0.36133 0.01500
H 	H 	0.61760 0.20700 0.35790 -0.00200
C 	C 	0.67390 0.12711 0.40814 -0.00000
H 	H 	0.61760 0.12100 0.43590 0.05200
N 	N 	0.75064 0.81163 0.67908 -0.21500
N 	N 	0.75020 0.91420 0.58416 -0.15200
C 	C 	0.82820 0.85292 0.67249 0.00400
H 	H 	0.88400 0.84740 0.70080 -0.00100
C 	C 	0.82710 0.90341 0.62466 -0.00100
H 	H 	0.88320 0.93150 0.62050 0.01600
C 	C 	0.67340 0.82151 0.63867 0.01100
H 	H 	0.61760 0.79300 0.64210 -0.00200
C 	C 	0.67390 0.87289 0.59186 -0.00300
H 	H 	0.61760 0.87900 0.56410 0.04600
N 	N 	0.74936 0.18837 0.17908 -0.21500
N 	N 	0.74980 0.08580 0.08416 -0.13800
C 	C 	0.67180 0.14708 0.17249 0.01100
H 	H 	0.61600 0.15260 0.20080 0.00200
C 	C 	0.67290 0.09659 0.12466 0.00300
H 	H 	0.61680 0.06850 0.12050 0.03200
C 	C 	0.82660 0.17849 0.13867 0.01700
H 	H 	0.88240 0.20700 0.14210 0.00000
C 	C 	0.82610 0.12711 0.09186 0.00200
H 	H 	0.88240 0.12100 0.06410 0.05800
Cu	Cu	0.75052 0.50000 -0.00000 0.97600
F 	F 	0.61010 0.50000 -0.00000 -0.47100
F 	F 	0.89080 0.50000 -0.00000 -0.86600
Cu	Cu	0.74948 0.50000 0.50000 0.96600
F 	F 	0.88990 0.50000 0.50000 -0.48400
F 	F 	0.60920 0.50000 0.50000 -0.89500
Cu	Cu	0.75000 0.26032 0.25000 0.85000
Cu	Cu	0.75000 0.73968 0.75000 0.84900
N 	N 	0.75064 0.68837 0.17908 -0.21500
N 	N 	0.75020 0.58580 0.08416 -0.14100
C 	C 	0.82820 0.64708 0.17249 0.00800
H 	H 	0.88400 0.65260 0.20080 0.00000
C 	C 	0.82710 0.59659 0.12466 0.00200
H 	H 	0.88320 0.56850 0.12050 0.02600
C 	C 	0.67340 0.67849 0.13867 0.01600
H 	H 	0.61760 0.70700 0.14210 0.00000
C 	C 	0.67390 0.62711 0.09186 0.00000
H 	H 	0.61760 0.62100 0.06410 0.05700
N 	N 	0.74936 0.31163 0.67908 -0.21500
N 	N 	0.74980 0.41420 0.58416 -0.14300
C 	C 	0.67180 0.35292 0.67249 0.00700
H 	H 	0.61600 0.34740 0.70080 0.00000
C 	C 	0.67290 0.40341 0.62466 0.00000
H 	H 	0.61680 0.43150 0.62050 0.02400
C 	C 	0.82660 0.32151 0.63867 0.01300
H 	H 	0.88240 0.29300 0.64210 -0.00200
C 	C 	0.82610 0.37289 0.59186 -0.00200
H 	H 	0.88240 0.37900 0.56410 0.05100
N 	N 	0.74936 0.68837 0.32092 -0.21500
N 	N 	0.74980 0.58580 0.41584 -0.14300
C 	C 	0.67180 0.64708 0.32751 0.00700
H 	H 	0.61600 0.65260 0.29920 0.00000
C 	C 	0.67290 0.59659 0.37534 0.00000
H 	H 	0.61680 0.56850 0.37950 0.02400
C 	C 	0.82660 0.67849 0.36133 0.01400
H 	H 	0.88240 0.70700 0.35790 -0.00200
C 	C 	0.82610 0.62711 0.40814 -0.00200
H 	H 	0.88240 0.62100 0.43590 0.05100
N 	N 	0.75064 0.31163 0.82092 -0.21500
N 	N 	0.75020 0.41420 0.91584 -0.15100
C 	C 	0.82820 0.35292 0.82751 0.00500
H 	H 	0.88400 0.34740 0.79920 0.00000
C 	C 	0.82710 0.40341 0.87534 -0.00100
H 	H 	0.88320 0.43150 0.87950 0.02200
C 	C 	0.67340 0.32151 0.86133 0.01000
H 	H 	0.61760 0.29300 0.85790 -0.00400
C 	C 	0.67390 0.37289 0.90814 -0.00400
H 	H 	0.61760 0.37900 0.93590 0.04100
N 	N 	0.74954 0.07284 0.92433 -0.17200
N 	N 	0.75030 0.16862 0.82266 -0.21400
C 	C 	0.82490 0.11569 0.91660 0.00000
H 	H 	0.87920 0.11310 0.94660 0.04500
C 	C 	0.82560 0.16354 0.86628 0.01000
H 	H 	0.87990 0.19320 0.86250 -0.00100
C 	C 	0.67450 0.07882 0.88119 -0.00100
H 	H 	0.61940 0.04980 0.88570 0.02900
C 	C 	0.67470 0.12612 0.83011 0.00800
H 	H 	0.62050 0.12850 0.80000 0.00300
H 	H 	0.57330 0.95910 0.99940 0.26800
N 	N 	0.75046 0.92716 0.42433 -0.17500
N 	N 	0.74970 0.83138 0.32266 -0.21400
C 	C 	0.67510 0.88431 0.41660 -0.00200
H 	H 	0.62080 0.88690 0.44660 0.04900
C 	C 	0.67440 0.83646 0.36628 0.00900
H 	H 	0.62010 0.80680 0.36250 0.00000
C 	C 	0.82550 0.92118 0.38119 -0.00200
H 	H 	0.88060 0.95020 0.38570 0.01800
C 	C 	0.82530 0.87388 0.33011 0.00500
H 	H 	0.87950 0.87150 0.30000 -0.00100
H 	H 	0.92670 0.04090 0.49940 0.32100
N 	N 	0.75046 0.07284 0.57567 -0.16200
N 	N 	0.74970 0.16862 0.67734 -0.21400
C 	C 	0.67510 0.11569 0.58340 0.00200
H 	H 	0.62080 0.11310 0.55340 0.05600
C 	C 	0.67440 0.16354 0.63372 0.01300
H 	H 	0.62010 0.19320 0.63750 0.00100
C 	C 	0.82550 0.07882 0.61881 0.00100
H 	H 	0.88060 0.04980 0.61430 0.03500
C 	C 	0.82530 0.12612 0.66989 0.01100
H 	H 	0.87950 0.12850 0.70000 0.00300
H 	H 	0.92670 0.95910 0.50060 0.29800
N 	N 	0.74954 0.92716 0.07567 -0.17100
N 	N 	0.75030 0.83138 0.17734 -0.21400
C 	C 	0.82490 0.88431 0.08340 0.00000
H 	H 	0.87920 0.88690 0.05340 0.05600
C 	C 	0.82560 0.83646 0.13372 0.01200
H 	H 	0.87990 0.80680 0.13750 0.00200
C 	C 	0.67450 0.92118 0.11881 0.00000
H 	H 	0.61940 0.95020 0.11430 0.02100
C 	C 	0.67470 0.87388 0.16989 0.00600
H 	H 	0.62050 0.87150 0.20000 -0.00000
H 	H 	0.57330 0.04090 0.00060 0.32600
Cu	Cu	0.74948 0.00000 -0.00000 0.98600
F 	F 	0.88990 0.00000 -0.00000 -0.45800
F 	F 	0.60920 0.00000 -0.00000 -0.83500
Cu	Cu	0.75052 0.00000 0.50000 0.97700
F 	F 	0.61010 0.00000 0.50000 -0.47000
F 	F 	0.89080 0.00000 0.50000 -0.86400
Cu	Cu	0.75000 0.76032 0.25000 0.85000
Cu	Cu	0.75000 0.23968 0.75000 0.85000
N 	N 	0.25046 0.92716 0.07567 -0.17100
N 	N 	0.24970 0.83138 0.17734 -0.21400
C 	C 	0.17510 0.88431 0.08340 0.00000
H 	H 	0.12080 0.88690 0.05340 0.05600
C 	C 	0.17440 0.83646 0.13372 0.01200
H 	H 	0.12010 0.80680 0.13750 0.00200
C 	C 	0.32550 0.92118 0.11881 0.00000
H 	H 	0.38060 0.95020 0.11430 0.02100
C 	C 	0.32530 0.87388 0.16989 0.00600
H 	H 	0.37950 0.87150 0.20000 -0.00000
H 	H 	0.42670 0.04090 0.00060 0.32600
N 	N 	0.24954 0.07284 0.57567 -0.16200
N 	N 	0.25030 0.16862 0.67734 -0.21400
C 	C 	0.32490 0.11569 0.58340 0.00200
H 	H 	0.37920 0.11310 0.55340 0.05600
C 	C 	0.32560 0.16354 0.63372 0.01300
H 	H 	0.37990 0.19320 0.63750 0.00100
C 	C 	0.17450 0.07882 0.61881 0.00100
H 	H 	0.11940 0.04980 0.61430 0.03500
C 	C 	0.17470 0.12612 0.66989 0.01100
H 	H 	0.12050 0.12850 0.70000 0.00300
H 	H 	0.07330 0.95910 0.50060 0.29800
N 	N 	0.24954 0.92716 0.42433 -0.17500
N 	N 	0.25030 0.83138 0.32266 -0.21400
C 	C 	0.32490 0.88431 0.41660 -0.00200
H 	H 	0.37920 0.88690 0.44660 0.04900
C 	C 	0.32560 0.83646 0.36628 0.00900
H 	H 	0.37990 0.80680 0.36250 0.00000
C 	C 	0.17450 0.92118 0.38119 -0.00200
H 	H 	0.11940 0.95020 0.38570 0.01800
C 	C 	0.17470 0.87388 0.33011 0.00500
H 	H 	0.12050 0.87150 0.30000 -0.00100
H 	H 	0.07330 0.04090 0.49940 0.32100
N 	N 	0.25046 0.07284 0.92433 -0.17200
N 	N 	0.24970 0.16862 0.82266 -0.21400
C 	C 	0.17510 0.11569 0.91660 0.00000
H 	H 	0.12080 0.11310 0.94660 0.04500
C 	C 	0.17440 0.16354 0.86628 0.01000
H 	H 	0.12010 0.19320 0.86250 -0.00100
C 	C 	0.32550 0.07882 0.88119 -0.00100
H 	H 	0.38060 0.04980 0.88570 0.02900
C 	C 	0.32530 0.12612 0.83011 0.00800
H 	H 	0.37950 0.12850 0.80000 0.00300
H 	H 	0.42670 0.95910 0.99940 0.26800
N 	N 	0.24936 0.31163 0.82092 -0.21500
N 	N 	0.24980 0.41420 0.91584 -0.15100
C 	C 	0.17180 0.35292 0.82751 0.00500
H 	H 	0.11600 0.34740 0.79920 0.00000
C 	C 	0.17290 0.40341 0.87534 -0.00100
H 	H 	0.11680 0.43150 0.87950 0.02200
C 	C 	0.32660 0.32151 0.86133 0.01000
H 	H 	0.38240 0.29300 0.85790 -0.00400
C 	C 	0.32610 0.37289 0.90814 -0.00400
H 	H 	0.38240 0.37900 0.93590 0.04100
N 	N 	0.25064 0.68837 0.32092 -0.21500
N 	N 	0.25020 0.58580 0.41584 -0.14300
C 	C 	0.32820 0.64708 0.32751 0.00700
H 	H 	0.38400 0.65260 0.29920 0.00000
C 	C 	0.32710 0.59659 0.37534 0.00000
H 	H 	0.38320 0.56850 0.37950 0.02400
C 	C 	0.17340 0.67849 0.36133 0.01400
H 	H 	0.11760 0.70700 0.35790 -0.00200
C 	C 	0.17390 0.62711 0.40814 -0.00200
H 	H 	0.11760 0.62100 0.43590 0.05100
N 	N 	0.25064 0.31163 0.67908 -0.21500
N 	N 	0.25020 0.41420 0.58416 -0.14300
C 	C 	0.32820 0.35292 0.67249 0.00700
H 	H 	0.38400 0.34740 0.70080 0.00000
C 	C 	0.32710 0.40341 0.62466 0.00000
H 	H 	0.38320 0.43150 0.62050 0.02400
C 	C 	0.17340 0.32151 0.63867 0.01300
H 	H 	0.11760 0.29300 0.64210 -0.00200
C 	C 	0.17390 0.37289 0.59186 -0.00200
H 	H 	0.11760 0.37900 0.56410 0.05100
N 	N 	0.24936 0.68837 0.17908 -0.21500
N 	N 	0.24980 0.58580 0.08416 -0.14100
C 	C 	0.17180 0.64708 0.17249 0.00800
H 	H 	0.11600 0.65260 0.20080 0.00000
C 	C 	0.17290 0.59659 0.12466 0.00200
H 	H 	0.11680 0.56850 0.12050 0.02600
C 	C 	0.32660 0.67849 0.13867 0.01600
H 	H 	0.38240 0.70700 0.14210 0.00000
C 	C 	0.32610 0.62711 0.09186 0.00000
H 	H 	0.38240 0.62100 0.06410 0.05700
Cu	Cu	0.25052 0.00000 -0.00000 0.98600
F 	F 	0.11010 0.00000 -0.00000 -0.45800
F 	F 	0.39080 0.00000 -0.00000 -0.83500
Cu	Cu	0.24948 0.00000 0.50000 0.97700
F 	F 	0.38990 0.00000 0.50000 -0.47000
F 	F 	0.10920 0.00000 0.50000 -0.86400
Cu	Cu	0.25000 0.23968 0.75000 0.85000
Cu	Cu	0.25000 0.76032 0.25000 0.85000
N 	N 	0.25064 0.18837 0.17908 -0.21500
N 	N 	0.25020 0.08580 0.08416 -0.13800
C 	C 	0.32820 0.14708 0.17249 0.01100
H 	H 	0.38400 0.15260 0.20080 0.00200
C 	C 	0.32710 0.09659 0.12466 0.00300
H 	H 	0.38320 0.06850 0.12050 0.03200
C 	C 	0.17340 0.17849 0.13867 0.01700
H 	H 	0.11760 0.20700 0.14210 0.00000
C 	C 	0.17390 0.12711 0.09186 0.00200
H 	H 	0.11760 0.12100 0.06410 0.05800
N 	N 	0.24936 0.81163 0.67908 -0.21500
N 	N 	0.24980 0.91420 0.58416 -0.15200
C 	C 	0.17180 0.85292 0.67249 0.00400
H 	H 	0.11600 0.84740 0.70080 -0.00100
C 	C 	0.17290 0.90341 0.62466 -0.00100
H 	H 	0.11680 0.93150 0.62050 0.01600
C 	C 	0.32660 0.82151 0.63867 0.01100
H 	H 	0.38240 0.79300 0.64210 -0.00200
C 	C 	0.32610 0.87289 0.59186 -0.00300
H 	H 	0.38240 0.87900 0.56410 0.04600
N 	N 	0.24936 0.18837 0.32092 -0.21500
N 	N 	0.24980 0.08580 0.41584 -0.14000
C 	C 	0.17180 0.14708 0.32751 0.00900
H 	H 	0.11600 0.15260 0.29920 0.00200
C 	C 	0.17290 0.09659 0.37534 0.00200
H 	H 	0.11680 0.06850 0.37950 0.03100
C 	C 	0.32660 0.17849 0.36133 0.01500
H 	H 	0.38240 0.20700 0.35790 -0.00200
C 	C 	0.32610 0.12711 0.40814 -0.00000
H 	H 	0.38240 0.12100 0.43590 0.05200
N 	N 	0.25064 0.81163 0.82092 -0.21500
N 	N 	0.25020 0.91420 0.91584 -0.16000
C 	C 	0.32820 0.85292 0.82751 0.00300
H 	H 	0.38400 0.84740 0.79920 -0.00100
C 	C 	0.32710 0.90341 0.87534 -0.00300
H 	H 	0.38320 0.93150 0.87950 0.01300
C 	C 	0.17340 0.82151 0.86133 0.00800
H 	H 	0.11760 0.79300 0.85790 -0.00400
C 	C 	0.17390 0.87289 0.90814 -0.00500
H 	H 	0.11760 0.87900 0.93590 0.03600
N 	N 	0.24954 0.57284 0.92433 -0.17500
N 	N 	0.25030 0.66862 0.82266 -0.21400
C 	C 	0.32490 0.61569 0.91660 -0.00200
H 	H 	0.37920 0.61310 0.94660 0.04400
C 	C 	0.32560 0.66354 0.86628 0.00800
H 	H 	0.37990 0.69320 0.86250 -0.00100
C 	C 	0.17450 0.57882 0.88119 -0.00300
H 	H 	0.11940 0.54980 0.88570 0.02200
C 	C 	0.17470 0.62612 0.83011 0.00600
H 	H 	0.12050 0.62850 0.80000 0.00100
H 	H 	0.07330 0.45910 0.99940 0.29300
N 	N 	0.25046 0.42716 0.42433 -0.16500
N 	N 	0.24970 0.33138 0.32266 -0.21400
C 	C 	0.17510 0.38431 0.41660 0.00000
H 	H 	0.12080 0.38690 0.44660 0.05500
C 	C 	0.17440 0.33646 0.36628 0.01200
H 	H 	0.12010 0.30680 0.36250 0.00000
C 	C 	0.32550 0.42118 0.38119 -0.00100
H 	H 	0.38060 0.45020 0.38570 0.02700
C 	C 	0.32530 0.37388 0.33011 0.00800
H 	H 	0.37950 0.37150 0.30000 0.00100
H 	H 	0.42670 0.54090 0.49940 0.32300
N 	N 	0.25046 0.57284 0.57567 -0.16500
N 	N 	0.24970 0.66862 0.67734 -0.21400
C 	C 	0.17510 0.61569 0.58340 0.00000
H 	H 	0.12080 0.61310 0.55340 0.05500
C 	C 	0.17440 0.66354 0.63372 0.01200
H 	H 	0.12010 0.69320 0.63750 0.00000
C 	C 	0.32550 0.57882 0.61881 -0.00100
H 	H 	0.38060 0.54980 0.61430 0.02700
C 	C 	0.32530 0.62612 0.66989 0.00800
H 	H 	0.37950 0.62850 0.70000 0.00100
H 	H 	0.42670 0.45910 0.50060 0.32300
N 	N 	0.24954 0.42716 0.07567 -0.16100
N 	N 	0.25030 0.33138 0.17734 -0.21400
C 	C 	0.32490 0.38431 0.08340 0.00200
H 	H 	0.37920 0.38690 0.05340 0.06100
C 	C 	0.32560 0.33646 0.13372 0.01400
H 	H 	0.37990 0.30680 0.13750 0.00200
C 	C 	0.17450 0.42118 0.11881 0.00200
H 	H 	0.11940 0.45020 0.11430 0.03000
C 	C 	0.17470 0.37388 0.16989 0.01000
H 	H 	0.12050 0.37150 0.20000 0.00200
H 	H 	0.07330 0.54090 0.00060 0.32700
Cu	Cu	0.24948 0.50000 -0.00000 0.97600
F 	F 	0.38990 0.50000 -0.00000 -0.47100
F 	F 	0.10920 0.50000 -0.00000 -0.86600
Cu	Cu	0.25052 0.50000 0.50000 0.96600
F 	F 	0.11010 0.50000 0.50000 -0.48400
F 	F 	0.39080 0.50000 0.50000 -0.89500
Cu	Cu	0.25000 0.73968 0.75000 0.84900
Cu	Cu	0.25000 0.26032 0.25000 0.85000
