data_crystal

_cell_length_a 20.91600
_cell_length_b 12.29600
_cell_length_c 11.20400
_cell_angle_alpha 90.00000
_cell_angle_beta  90.00000
_cell_angle_gamma 90.00000

_symmetry_space_group_name_	'P 1'
_symmetry_space_group_name_H-M	'P 1'

loop_
_symmetry_equiv_pos_as_xyz
  x,y,z

loop_
_atom_site_label
_atom_site_type_symbol
_atom_site_fract_x
_atom_site_fract_y
_atom_site_fract_z
_atom_site_charge
Ag	Ag	0.22354 0.63250 0.75593 0.49500
C 	C 	0.35540 0.75420 0.66720 0.01300
H 	H 	0.36750 0.68620 0.62950 -0.01300
H 	H 	0.36640 0.74950 0.75110 -0.01400
C 	C 	0.26900 0.77710 0.52620 0.00800
H 	H 	0.28080 0.70960 0.48710 -0.00600
H 	H 	0.22330 0.78710 0.51690 -0.01200
C 	C 	0.37370 0.85160 0.48300 0.01200
H 	H 	0.39680 0.91090 0.44560 -0.01600
H 	H 	0.38590 0.78460 0.44350 -0.01800
C 	C 	0.21390 0.52830 0.02870 0.00100
H 	H 	0.19090 0.46840 0.99230 -0.00000
H 	H 	0.25930 0.51500 0.01880 -0.00500
C 	C 	0.26650 0.87460 0.71250 0.00900
H 	H 	0.27590 0.87100 0.79720 -0.00800
H 	H 	0.22090 0.88600 0.70320 -0.01500
C 	C 	0.37230 0.94760 0.67050 0.01100
H 	H 	0.38360 0.94420 0.75430 -0.01400
H 	H 	0.39530 0.00800 0.63500 -0.02000
N 	N 	0.39153 0.84540 0.61130 -0.17000
N 	N 	0.28490 0.77000 0.65490 -0.16000
N 	N 	0.19660 0.63050 0.96800 -0.15400
N 	N 	0.19840 0.46680 0.65870 -0.16100
Ag	Ag	0.72353 0.13250 0.75593 0.49500
C 	C 	0.85540 0.25420 0.66720 0.00800
H 	H 	0.86750 0.18620 0.62950 -0.00700
H 	H 	0.86640 0.24950 0.75110 -0.00800
C 	C 	0.76900 0.27710 0.52620 0.00700
H 	H 	0.78080 0.20960 0.48710 -0.00400
H 	H 	0.72330 0.28710 0.51690 -0.00900
C 	C 	0.87370 0.35160 0.48300 0.00700
H 	H 	0.89680 0.41090 0.44560 -0.00700
H 	H 	0.88590 0.28460 0.44350 -0.01000
C 	C 	0.71390 0.02830 0.02870 0.00100
H 	H 	0.69090 0.96840 0.99230 0.00100
H 	H 	0.75930 0.01500 0.01880 -0.00300
C 	C 	0.76650 0.37460 0.71250 0.00800
H 	H 	0.77590 0.37100 0.79720 -0.00600
H 	H 	0.72090 0.38600 0.70320 -0.01300
C 	C 	0.87230 0.44760 0.67050 0.00600
H 	H 	0.88360 0.44420 0.75430 -0.00700
H 	H 	0.89530 0.50800 0.63500 -0.01100
N 	N 	0.89153 0.34540 0.61130 -0.16100
N 	N 	0.78490 0.27000 0.65490 -0.15800
N 	N 	0.69660 0.13050 0.96800 -0.15400
N 	N 	0.69840 0.96680 0.65870 -0.15900
Ag	Ag	0.77646 0.36750 0.25593 0.49600
C 	C 	0.64460 0.24580 0.16720 0.01200
H 	H 	0.63250 0.31380 0.12950 -0.01500
H 	H 	0.63360 0.25050 0.25110 -0.01500
C 	C 	0.73100 0.22290 0.02620 0.00000
H 	H 	0.71920 0.29040 0.98710 -0.00200
H 	H 	0.77670 0.21290 0.01690 -0.00600
C 	C 	0.62630 0.14840 0.98300 0.01300
H 	H 	0.60320 0.08910 0.94560 -0.01600
H 	H 	0.61410 0.21540 0.94350 -0.01800
C 	C 	0.78610 0.47170 0.52870 0.00800
H 	H 	0.80910 0.53160 0.49230 -0.00200
H 	H 	0.74070 0.48500 0.51880 -0.00600
C 	C 	0.73350 0.12540 0.21250 0.00700
H 	H 	0.72410 0.12900 0.29720 -0.00600
H 	H 	0.77910 0.11400 0.20320 -0.01000
C 	C 	0.62770 0.05240 0.17050 0.01300
H 	H 	0.61640 0.05580 0.25430 -0.01500
H 	H 	0.60470 0.99200 0.13500 -0.02200
N 	N 	0.60847 0.15460 0.11130 -0.17100
N 	N 	0.71510 0.23000 0.15490 -0.15800
N 	N 	0.80340 0.36950 0.46800 -0.15600
N 	N 	0.80160 0.53320 0.15870 -0.15800
Ag	Ag	0.27646 0.86750 0.25593 0.49300
C 	C 	0.14460 0.74580 0.16720 0.01500
H 	H 	0.13250 0.81380 0.12950 -0.02000
H 	H 	0.13360 0.75050 0.25110 -0.02000
C 	C 	0.23100 0.72290 0.02620 -0.00300
H 	H 	0.21920 0.79040 0.98710 -0.00100
H 	H 	0.27670 0.71290 0.01690 -0.00800
C 	C 	0.12630 0.64840 0.98300 0.01900
H 	H 	0.10320 0.58910 0.94560 -0.02200
H 	H 	0.11410 0.71540 0.94350 -0.02300
C 	C 	0.28610 0.97170 0.52870 0.00900
H 	H 	0.30910 0.03160 0.49230 -0.00300
H 	H 	0.24070 0.98500 0.51880 -0.00800
C 	C 	0.23350 0.62540 0.21250 0.00800
H 	H 	0.22410 0.62900 0.29720 -0.00800
H 	H 	0.27910 0.61400 0.20320 -0.01300
C 	C 	0.12770 0.55240 0.17050 0.01400
H 	H 	0.11640 0.55580 0.25430 -0.01900
H 	H 	0.10470 0.49200 0.13500 -0.02700
N 	N 	0.10847 0.65460 0.11130 -0.17500
N 	N 	0.21510 0.73000 0.15490 -0.15900
N 	N 	0.30340 0.86950 0.46800 -0.15800
N 	N 	0.30160 0.03320 0.15870 -0.16000
Ag	Ag	0.22354 0.36750 0.25593 0.49300
C 	C 	0.35540 0.24580 0.16720 0.01200
H 	H 	0.36750 0.31380 0.12950 -0.01500
H 	H 	0.36640 0.25050 0.25110 -0.01600
C 	C 	0.26900 0.22290 0.02620 0.00200
H 	H 	0.28080 0.29040 0.98710 -0.00200
H 	H 	0.22330 0.21290 0.01690 -0.01000
C 	C 	0.37370 0.14840 0.98300 0.01400
H 	H 	0.39680 0.08910 0.94560 -0.01600
H 	H 	0.38590 0.21540 0.94350 -0.01800
C 	C 	0.21390 0.47170 0.52870 0.00900
H 	H 	0.19090 0.53160 0.49230 -0.00500
H 	H 	0.25930 0.48500 0.51880 -0.00700
C 	C 	0.26650 0.12540 0.21250 0.00900
H 	H 	0.27590 0.12900 0.29720 -0.00800
H 	H 	0.22090 0.11400 0.20320 -0.01500
C 	C 	0.37230 0.05240 0.17050 0.01300
H 	H 	0.38360 0.05580 0.25430 -0.01500
H 	H 	0.39530 0.99200 0.13500 -0.02200
N 	N 	0.39153 0.15460 0.11130 -0.17100
N 	N 	0.28490 0.23000 0.15490 -0.15900
N 	N 	0.19660 0.36950 0.46800 -0.15800
N 	N 	0.19840 0.53320 0.15870 -0.16000
Ag	Ag	0.72353 0.86750 0.25593 0.49500
C 	C 	0.85540 0.74580 0.16720 0.00800
H 	H 	0.86750 0.81380 0.12950 -0.00800
H 	H 	0.86640 0.75050 0.25110 -0.00900
C 	C 	0.76900 0.72290 0.02620 -0.00300
H 	H 	0.78080 0.79040 0.98710 0.00100
H 	H 	0.72330 0.71290 0.01690 -0.00800
C 	C 	0.87370 0.64840 0.98300 0.00900
H 	H 	0.89680 0.58910 0.94560 -0.00700
H 	H 	0.88590 0.71540 0.94350 -0.01000
C 	C 	0.71390 0.97170 0.52870 0.00700
H 	H 	0.69090 0.03160 0.49230 -0.00300
H 	H 	0.75930 0.98500 0.51880 -0.00400
C 	C 	0.76650 0.62540 0.21250 0.00800
H 	H 	0.77590 0.62900 0.29720 -0.00700
H 	H 	0.72090 0.61400 0.20320 -0.01300
C 	C 	0.87230 0.55240 0.17050 0.00500
H 	H 	0.88360 0.55580 0.25430 -0.00700
H 	H 	0.89530 0.49200 0.13500 -0.01100
N 	N 	0.89153 0.65460 0.11130 -0.16200
N 	N 	0.78490 0.73000 0.15490 -0.15700
N 	N 	0.69660 0.86950 0.46800 -0.15700
N 	N 	0.69840 0.03320 0.15870 -0.15900
Ag	Ag	0.77646 0.63250 0.75593 0.49600
C 	C 	0.64460 0.75420 0.66720 0.01200
H 	H 	0.63250 0.68620 0.62950 -0.01400
H 	H 	0.63360 0.74950 0.75110 -0.01500
C 	C 	0.73100 0.77710 0.52620 0.00600
H 	H 	0.71920 0.70960 0.48710 -0.00500
H 	H 	0.77670 0.78710 0.51690 -0.00700
C 	C 	0.62630 0.85160 0.48300 0.01200
H 	H 	0.60320 0.91090 0.44560 -0.01600
H 	H 	0.61410 0.78460 0.44350 -0.01800
C 	C 	0.78610 0.52830 0.02870 0.00000
H 	H 	0.80910 0.46840 0.99230 0.00200
H 	H 	0.74070 0.51500 0.01880 -0.00500
C 	C 	0.73350 0.87460 0.71250 0.00700
H 	H 	0.72410 0.87100 0.79720 -0.00600
H 	H 	0.77910 0.88600 0.70320 -0.01000
C 	C 	0.62770 0.94760 0.67050 0.01000
H 	H 	0.61640 0.94420 0.75430 -0.01400
H 	H 	0.60470 0.00800 0.63500 -0.02000
N 	N 	0.60847 0.84540 0.61130 -0.17000
N 	N 	0.71510 0.77000 0.65490 -0.15800
N 	N 	0.80340 0.63050 0.96800 -0.15300
N 	N 	0.80160 0.46680 0.65870 -0.15900
Ag	Ag	0.27646 0.13250 0.75593 0.49400
C 	C 	0.14460 0.25420 0.66720 0.01500
H 	H 	0.13250 0.18620 0.62950 -0.01900
H 	H 	0.13360 0.24950 0.75110 -0.02000
C 	C 	0.23100 0.27710 0.52620 0.00800
H 	H 	0.21920 0.20960 0.48710 -0.00600
H 	H 	0.27670 0.28710 0.51690 -0.01000
C 	C 	0.12630 0.35160 0.48300 0.01600
H 	H 	0.10320 0.41090 0.44560 -0.02200
H 	H 	0.11410 0.28460 0.44350 -0.02400
C 	C 	0.28610 0.02830 0.02870 0.00200
H 	H 	0.30910 0.96840 0.99230 0.00100
H 	H 	0.24070 0.01500 0.01880 -0.00700
C 	C 	0.23350 0.37460 0.71250 0.00800
H 	H 	0.22410 0.37100 0.79720 -0.00800
H 	H 	0.27910 0.38600 0.70320 -0.01300
C 	C 	0.12770 0.44760 0.67050 0.01400
H 	H 	0.11640 0.44420 0.75430 -0.01900
H 	H 	0.10470 0.50800 0.63500 -0.02600
N 	N 	0.10847 0.34540 0.61130 -0.17400
N 	N 	0.21510 0.27000 0.65490 -0.16000
N 	N 	0.30340 0.13050 0.96800 -0.15500
N 	N 	0.30160 0.96680 0.65870 -0.16000
Ag	Ag	0.50000 0.83056 0.63046 0.47200
Ag	Ag	0.00000 0.33056 0.63046 0.45100
Ag	Ag	0.50000 0.16944 0.13046 0.47100
Ag	Ag	-0.00000 0.66944 0.13046 0.45000
