data_crystal

_cell_length_a 14.34400
_cell_length_b 14.34400
_cell_length_c 15.47000
_cell_angle_alpha 90.00000
_cell_angle_beta  90.00000
_cell_angle_gamma 120.00000

_symmetry_space_group_name_	'P 1'
_symmetry_space_group_name_H-M	'P 1'

loop_
_symmetry_equiv_pos_as_xyz
  x,y,z

loop_
_atom_site_label
_atom_site_type_symbol
_atom_site_fract_x
_atom_site_fract_y
_atom_site_fract_z
_atom_site_charge
Yb	Yb	0.33333 0.66666 0.75000 1.58100
Yb	Yb	0.66667 0.33334 0.75000 1.57800
Yb	Yb	0.66667 0.33334 0.25000 1.57600
Yb	Yb	0.33333 0.66666 0.25000 1.57900
Cu	Cu	0.50000 0.50000 0.50000 0.95200
Cu	Cu	1.00000 0.50000 0.50000 0.90600
Cu	Cu	0.50000 0.00000 0.50000 0.90700
Cu	Cu	1.00000 0.50000 -0.00000 0.84800
Cu	Cu	0.50000 0.50000 -0.00000 0.89300
Cu	Cu	0.50000 0.00000 -0.00000 0.84800
C 	C 	0.26100 0.40900 0.69100 0.04000
C 	C 	0.35200 0.48700 0.63700 0.37000
C 	C 	0.14800 0.73900 0.69100 0.08400
C 	C 	0.13500 0.64800 0.63700 0.35600
C 	C 	0.59100 0.85200 0.69100 0.05400
C 	C 	0.51300 0.86500 0.63700 0.36000
C 	C 	0.73900 0.59100 0.69100 0.02000
C 	C 	0.64800 0.51300 0.63700 0.37000
C 	C 	0.85200 0.26100 0.69100 -0.02300
C 	C 	0.86500 0.35200 0.63700 0.37900
C 	C 	0.40900 0.14800 0.69100 0.00600
C 	C 	0.48700 0.13500 0.63700 0.37400
C 	C 	0.85200 0.59100 0.80900 0.02400
C 	C 	0.86500 0.51300 0.86300 0.36600
C 	C 	0.40900 0.26100 0.80900 0.03800
C 	C 	0.48700 0.35200 0.86300 0.36200
C 	C 	0.73900 0.14800 0.80900 -0.00500
C 	C 	0.64800 0.13500 0.86300 0.37100
C 	C 	0.14800 0.40900 0.80900 0.07200
C 	C 	0.13500 0.48700 0.86300 0.35300
C 	C 	0.59100 0.73900 0.80900 0.05800
C 	C 	0.51300 0.64800 0.86300 0.36200
C 	C 	0.26100 0.85200 0.80900 0.10100
C 	C 	0.35200 0.86500 0.86300 0.34800
C 	C 	0.73900 0.59100 0.30900 0.00800
C 	C 	0.64800 0.51300 0.36300 0.37300
C 	C 	0.85200 0.26100 0.30900 -0.03500
C 	C 	0.86500 0.35200 0.36300 0.38200
C 	C 	0.40900 0.14800 0.30900 -0.00500
C 	C 	0.48700 0.13500 0.36300 0.37700
C 	C 	0.26100 0.40900 0.30900 0.02900
C 	C 	0.35200 0.48700 0.36300 0.37200
C 	C 	0.14800 0.73900 0.30900 0.07500
C 	C 	0.13500 0.64800 0.36300 0.35800
C 	C 	0.59100 0.85200 0.30900 0.04400
C 	C 	0.51300 0.86500 0.36300 0.36300
C 	C 	0.14800 0.40900 0.19100 0.02900
C 	C 	0.13500 0.48700 0.13700 0.36400
C 	C 	0.59100 0.73900 0.19100 0.01400
C 	C 	0.51300 0.64800 0.13700 0.37400
C 	C 	0.26100 0.85200 0.19100 0.06000
C 	C 	0.35200 0.86500 0.13700 0.35900
C 	C 	0.85200 0.59100 0.19100 -0.02000
C 	C 	0.86500 0.51300 0.13700 0.37800
C 	C 	0.40900 0.26100 0.19100 -0.00600
C 	C 	0.48700 0.35200 0.13700 0.37400
C 	C 	0.73900 0.14800 0.19100 -0.05000
C 	C 	0.64800 0.13500 0.13700 0.38300
O 	O 	0.38600 0.58230 0.64570 -0.39000
O 	O 	0.38900 0.44340 0.58900 -0.36800
O 	O 	0.19630 0.61400 0.64570 -0.37100
O 	O 	0.05440 0.61100 0.58900 -0.30700
O 	O 	0.41770 0.80370 0.64570 -0.37300
O 	O 	0.55660 0.94560 0.58900 -0.31700
O 	O 	0.61400 0.41770 0.64570 -0.39300
O 	O 	0.61100 0.55660 0.58900 -0.37200
O 	O 	0.80370 0.38600 0.64570 -0.40700
O 	O 	0.94560 0.38900 0.58900 -0.41400
O 	O 	0.58230 0.19630 0.64570 -0.40500
O 	O 	0.44340 0.05440 0.58900 -0.40400
O 	O 	0.80370 0.41770 0.85430 -0.37800
O 	O 	0.94560 0.55660 0.91100 -0.34300
O 	O 	0.58230 0.38600 0.85430 -0.36600
O 	O 	0.44340 0.38900 0.91100 -0.31100
O 	O 	0.61400 0.19630 0.85430 -0.38100
O 	O 	0.61100 0.05440 0.91100 -0.35300
O 	O 	0.19630 0.58230 0.85430 -0.34800
O 	O 	0.05440 0.44340 0.91100 -0.25900
O 	O 	0.41770 0.61400 0.85430 -0.36400
O 	O 	0.55660 0.61100 0.91100 -0.30700
O 	O 	0.38600 0.80370 0.85430 -0.34500
O 	O 	0.38900 0.94560 0.91100 -0.25000
O 	O 	0.61400 0.41770 0.35430 -0.39300
O 	O 	0.61100 0.55660 0.41100 -0.37300
O 	O 	0.80370 0.38600 0.35430 -0.40800
O 	O 	0.94560 0.38900 0.41100 -0.41600
O 	O 	0.58230 0.19630 0.35430 -0.40600
O 	O 	0.44340 0.05440 0.41100 -0.40600
O 	O 	0.38600 0.58230 0.35430 -0.39000
O 	O 	0.38900 0.44340 0.41100 -0.36900
O 	O 	0.19630 0.61400 0.35430 -0.37100
O 	O 	0.05440 0.61100 0.41100 -0.30800
O 	O 	0.41770 0.80370 0.35430 -0.37300
O 	O 	0.55660 0.94560 0.41100 -0.31800
O 	O 	0.19630 0.58230 0.14570 -0.39200
O 	O 	0.05440 0.44340 0.08900 -0.35200
O 	O 	0.41770 0.61400 0.14570 -0.40900
O 	O 	0.55660 0.61100 0.08900 -0.40400
O 	O 	0.38600 0.80370 0.14570 -0.39000
O 	O 	0.38900 0.94560 0.08900 -0.34100
O 	O 	0.80370 0.41770 0.14570 -0.42500
O 	O 	0.94560 0.55660 0.08900 -0.44100
O 	O 	0.58230 0.38600 0.14570 -0.41300
O 	O 	0.44340 0.38900 0.08900 -0.40800
O 	O 	0.61400 0.19630 0.14570 -0.42700
O 	O 	0.61100 0.05440 0.08900 -0.45100
O 	O 	0.23620 0.47240 0.75000 -0.26900
O 	O 	0.23620 0.76380 0.75000 -0.27300
O 	O 	0.52760 0.76380 0.75000 -0.26900
O 	O 	0.76380 0.52760 0.75000 -0.26800
O 	O 	0.76380 0.23620 0.75000 -0.26400
O 	O 	0.47240 0.23620 0.75000 -0.26800
O 	O 	0.76380 0.52760 0.25000 -0.26400
O 	O 	0.76380 0.23620 0.25000 -0.26000
O 	O 	0.47240 0.23620 0.25000 -0.26400
O 	O 	0.23620 0.47240 0.25000 -0.26500
O 	O 	0.23620 0.76380 0.25000 -0.26900
O 	O 	0.52760 0.76380 0.25000 -0.26500
