data_crystal

_cell_length_a 7.31000
_cell_length_b 13.14400
_cell_length_c 13.80000
_cell_angle_alpha 83.46000
_cell_angle_beta  82.88000
_cell_angle_gamma 84.71000

_symmetry_space_group_name_	'P 1'
_symmetry_space_group_name_H-M	'P 1'

loop_
_symmetry_equiv_pos_as_xyz
  x,y,z

loop_
_atom_site_label
_atom_site_type_symbol
_atom_site_fract_x
_atom_site_fract_y
_atom_site_fract_z
_atom_site_charge
N 	N 	0.79640 0.78810 0.78960 -0.23800
N 	N 	0.53540 0.82000 0.60940 -0.24000
N 	N 	0.90370 0.63320 0.61730 -0.25100
N 	N 	0.49350 0.62730 0.78070 -0.24600
C 	C 	0.92600 0.85200 0.75770 0.08600
C 	C 	0.99460 0.91360 0.81680 -0.15900
C 	C 	0.92960 0.91030 0.91530 0.09500
C 	C 	0.79610 0.84130 0.94930 -0.15900
C 	C 	0.73310 0.78370 0.88490 0.08000
C 	C 	0.43880 0.79570 0.54080 0.08700
C 	C 	0.28820 0.85590 0.50890 -0.16900
C 	C 	0.23390 0.94900 0.54620 0.11000
C 	C 	0.34250 0.97840 0.61270 -0.16600
C 	C 	0.48790 0.91250 0.64190 0.08500
C 	C 	0.06860 0.01400 0.52100 -0.09000
C 	C 	0.02320 0.56950 0.66770 0.08400
C 	C 	0.19180 0.53080 0.62610 -0.16700
C 	C 	0.24910 0.55710 0.52650 0.10800
C 	C 	0.12160 0.61860 0.47470 -0.16800
C 	C 	0.95360 0.65490 0.52120 0.09000
C 	C 	0.42840 0.52310 0.47850 -0.09800
C 	C 	0.51230 0.52640 0.81090 0.08800
C 	C 	0.37790 0.47660 0.87280 -0.17200
C 	C 	0.21700 0.53130 0.91020 0.11300
C 	C 	0.20040 0.63590 0.87960 -0.17400
C 	C 	0.33820 0.67940 0.81510 0.09200
C 	C 	0.07230 0.47810 0.97450 -0.09100
C 	C 	0.94990 0.95730 0.00920 -0.00600
C 	C 	0.02830 0.99270 0.95410 -0.03500
H 	H 	0.97380 0.85550 0.69100 -0.01800
H 	H 	0.08600 0.95790 0.79000 0.08300
H 	H 	0.74930 0.83420 0.01600 0.07900
H 	H 	0.64090 0.73900 0.90920 -0.01500
H 	H 	0.47490 0.73410 0.51240 -0.02000
H 	H 	0.22250 0.83370 0.46190 0.08300
H 	H 	0.31690 0.04260 0.63740 0.08100
H 	H 	0.55830 0.93350 0.68750 -0.01500
H 	H 	0.05980 0.08230 0.53630 0.05200
H 	H 	0.98890 0.55070 0.73480 -0.02000
H 	H 	0.26900 0.48650 0.66460 0.08300
H 	H 	0.14990 0.63590 0.40680 0.08000
H 	H 	0.87110 0.69650 0.48370 -0.02500
H 	H 	0.44540 0.53500 0.40960 0.05000
H 	H 	0.62150 0.48810 0.78890 -0.02300
H 	H 	0.39500 0.40540 0.89000 0.08300
H 	H 	0.09550 0.67680 0.90290 0.08900
H 	H 	0.32160 0.74980 0.79410 -0.02100
H 	H 	0.08390 0.40590 0.97990 0.05600
Cu	Cu	0.68850 0.70770 0.69090 0.85000
N 	N 	0.20360 0.21190 0.21040 -0.23900
N 	N 	0.46460 0.18000 0.39060 -0.24100
N 	N 	0.09630 0.36680 0.38270 -0.25100
N 	N 	0.50650 0.37270 0.21930 -0.24600
C 	C 	0.07400 0.14800 0.24230 0.08600
C 	C 	0.00540 0.08640 0.18320 -0.15900
C 	C 	0.07040 0.08970 0.08470 0.09500
C 	C 	0.20390 0.15870 0.05070 -0.15900
C 	C 	0.26690 0.21630 0.11510 0.08000
C 	C 	0.56120 0.20430 0.45920 0.08700
C 	C 	0.71180 0.14410 0.49110 -0.16900
C 	C 	0.76610 0.05100 0.45380 0.11000
C 	C 	0.65750 0.02160 0.38730 -0.16600
C 	C 	0.51210 0.08750 0.35810 0.08500
C 	C 	0.93140 0.98600 0.47900 -0.09000
C 	C 	0.97680 0.43050 0.33230 0.08400
C 	C 	0.80820 0.46920 0.37390 -0.16700
C 	C 	0.75090 0.44290 0.47350 0.10800
C 	C 	0.87840 0.38140 0.52530 -0.16800
C 	C 	0.04640 0.34510 0.47880 0.09000
C 	C 	0.57160 0.47690 0.52150 -0.09800
C 	C 	0.48770 0.47360 0.18910 0.08800
C 	C 	0.62210 0.52340 0.12720 -0.17200
C 	C 	0.78300 0.46870 0.08980 0.11300
C 	C 	0.79960 0.36410 0.12040 -0.17400
C 	C 	0.66180 0.32060 0.18490 0.09200
C 	C 	0.92770 0.52190 0.02550 -0.09100
C 	C 	0.05010 0.04270 0.99080 -0.00600
C 	C 	0.97170 0.00730 0.04590 -0.03500
H 	H 	0.02620 0.14450 0.30900 -0.01800
H 	H 	0.91400 0.04210 0.21000 0.08300
H 	H 	0.25070 0.16580 0.98400 0.07900
H 	H 	0.35910 0.26100 0.09080 -0.01500
H 	H 	0.52510 0.26590 0.48760 -0.02000
H 	H 	0.77750 0.16630 0.53810 0.08300
H 	H 	0.68310 0.95740 0.36260 0.08100
H 	H 	0.44170 0.06650 0.31250 -0.01500
H 	H 	0.94020 0.91770 0.46370 0.05200
H 	H 	0.01110 0.44930 0.26520 -0.02000
H 	H 	0.73100 0.51350 0.33540 0.08300
H 	H 	0.85010 0.36410 0.59320 0.08000
H 	H 	0.12890 0.30350 0.51630 -0.02500
H 	H 	0.55460 0.46500 0.59040 0.05000
H 	H 	0.37850 0.51190 0.21110 -0.02300
H 	H 	0.60500 0.59460 0.11000 0.08300
H 	H 	0.90450 0.32320 0.09710 0.08900
H 	H 	0.67840 0.25020 0.20590 -0.02100
H 	H 	0.91610 0.59410 0.02010 0.05600
Cu	Cu	0.31150 0.29230 0.30910 0.85000
