data_crystal

_cell_length_a 13.29280
_cell_length_b 6.57000
_cell_length_c 13.64610
_cell_angle_alpha 90.00000
_cell_angle_beta  119.06900
_cell_angle_gamma 90.00000

_symmetry_space_group_name_	'P 1'
_symmetry_space_group_name_H-M	'P 1'

loop_
_symmetry_equiv_pos_as_xyz
  x,y,z

loop_
_atom_site_label
_atom_site_type_symbol
_atom_site_fract_x
_atom_site_fract_y
_atom_site_fract_z
_atom_site_charge
Fe	Fe	0.24739 0.24548 0.49570 1.37500
Fe	Fe	0.49483 0.59155 0.99451 1.20600
Zn	Zn	0.95027 0.40171 0.99672 1.24000
F 	F 	0.10760 0.14890 0.48620 -0.44100
F 	F 	0.18680 0.51780 0.46460 -0.46400
F 	F 	0.30770 0.97700 0.52330 -0.46300
F 	F 	0.38670 0.34470 0.50330 -0.43700
F 	F 	0.97010 0.15600 0.92290 -0.71000
F 	F 	0.47580 0.34360 0.07140 -0.67300
N 	N 	0.17550 0.18720 0.31880 -0.15400
N 	N 	0.12460 0.34200 0.24310 -0.01800
N 	N 	0.07710 0.26390 0.14390 -0.15400
N 	N 	0.09190 0.05540 0.14930 -0.24000
N 	N 	0.18920 0.82690 0.30130 -0.37400
H 	H 	0.17400 0.72430 0.25720 0.23800
H 	H 	0.22800 0.81000 0.37280 0.28700
C 	C 	0.15250 0.01380 0.25860 0.27300
N 	N 	0.80310 0.35640 0.00130 -0.23600
N 	N 	0.73780 0.51550 0.99960 -0.05300
N 	N 	0.64900 0.44490 0.00500 -0.13000
N 	N 	0.65190 0.23970 0.00910 -0.21500
N 	N 	0.78430 0.99120 0.01240 -0.32300
H 	H 	0.74520 0.89260 0.01870 0.18600
H 	H 	0.84660 0.96630 0.01010 0.14400
C 	C 	0.74700 0.18930 0.00610 0.22700
N 	N 	0.31520 0.30430 0.66820 -0.15800
N 	N 	0.35470 0.15250 0.74470 -0.02700
N 	N 	0.40330 0.23300 0.84410 -0.15000
N 	N 	0.39910 0.43740 0.83880 -0.21600
N 	N 	0.31830 0.66980 0.68350 -0.37900
H 	H 	0.33810 0.77450 0.72670 0.23100
H 	H 	0.28250 0.68530 0.61190 0.29100
C 	C 	0.34350 0.48020 0.72830 0.28200
Zn	Zn	0.50517 0.09155 0.00549 1.22800
Fe	Fe	0.75261 0.74548 0.50430 1.38200
Zn	Zn	0.04973 0.90171 0.00328 1.24400
F 	F 	0.89240 0.64890 0.51380 -0.43400
F 	F 	0.81320 0.01780 0.53540 -0.47500
F 	F 	0.69230 0.47700 0.47670 -0.47400
F 	F 	0.61330 0.84470 0.49670 -0.42900
F 	F 	0.02990 0.65600 0.07710 -0.69900
F 	F 	0.52420 0.84360 0.92860 -0.66500
N 	N 	0.82450 0.68720 0.68120 -0.15300
N 	N 	0.87540 0.84200 0.75690 -0.01300
N 	N 	0.92290 0.76390 0.85610 -0.15200
N 	N 	0.90810 0.55540 0.85070 -0.23700
N 	N 	0.81080 0.32690 0.69870 -0.38300
H 	H 	0.82600 0.22430 0.74280 0.23300
H 	H 	0.77200 0.31000 0.62720 0.28400
C 	C 	0.84750 0.51380 0.74140 0.28900
N 	N 	0.19690 0.85640 0.99870 -0.23000
N 	N 	0.26220 0.01550 0.00040 -0.06300
N 	N 	0.35100 0.94490 0.99500 -0.12900
N 	N 	0.34810 0.73970 0.99090 -0.20500
N 	N 	0.21570 0.49120 0.98760 -0.33000
H 	H 	0.25480 0.39260 0.98130 0.18200
H 	H 	0.15340 0.46630 0.98990 0.13900
C 	C 	0.25300 0.68930 0.99390 0.23900
N 	N 	0.68480 0.80430 0.33180 -0.15700
N 	N 	0.64530 0.65250 0.25530 -0.02300
N 	N 	0.59670 0.73300 0.15590 -0.13700
N 	N 	0.60090 0.93740 0.16120 -0.22200
N 	N 	0.68170 0.16980 0.31650 -0.38800
H 	H 	0.66190 0.27450 0.27330 0.22700
H 	H 	0.71750 0.18530 0.38810 0.28800
C 	C 	0.65650 0.98020 0.27170 0.29800
