data_crystal

_cell_length_a 6.55760
_cell_length_b 9.71500
_cell_length_c 8.63580
_cell_angle_alpha 90.00000
_cell_angle_beta  90.57900
_cell_angle_gamma 90.00000

_symmetry_space_group_name_	'P 1'
_symmetry_space_group_name_H-M	'P 1'

loop_
_symmetry_equiv_pos_as_xyz
  x,y,z

loop_
_atom_site_label
_atom_site_type_symbol
_atom_site_fract_x
_atom_site_fract_y
_atom_site_fract_z
_atom_site_charge
N 	N 	0.14150 0.15570 0.86260 -0.17300
N 	N 	0.41570 0.25500 0.77670 -0.03200
N 	N 	0.34800 0.15570 0.86100 -0.09600
N 	N 	0.25300 0.32410 0.71710 -0.24800
C 	C 	0.08560 0.26120 0.77280 0.14300
N 	N 	0.89050 0.29520 0.73760 -0.28500
H 	H 	0.79170 0.24720 0.77400 0.21700
H 	H 	0.86530 0.36470 0.67880 0.14900
N 	N 	0.85850 0.15570 0.13740 -0.25600
N 	N 	0.58430 0.25500 0.22330 -0.08200
N 	N 	0.65200 0.15570 0.13900 -0.20600
N 	N 	0.74700 0.32410 0.28290 -0.27000
C 	C 	0.91440 0.26120 0.22720 0.25600
N 	N 	0.10950 0.29520 0.26240 -0.39500
H 	H 	0.20830 0.24720 0.22600 0.14000
H 	H 	0.13470 0.36470 0.32120 0.09800
N 	N 	0.85850 0.84430 0.13740 -0.21600
N 	N 	0.58430 0.74500 0.22330 -0.06900
N 	N 	0.65200 0.84430 0.13900 -0.16200
N 	N 	0.74700 0.67590 0.28290 -0.26600
C 	C 	0.91440 0.73880 0.22720 0.27400
N 	N 	0.10950 0.70480 0.26240 -0.39800
H 	H 	0.20830 0.75280 0.22600 0.16800
H 	H 	0.13470 0.63530 0.32120 0.10600
N 	N 	0.14150 0.84430 0.86260 -0.13700
N 	N 	0.41570 0.74500 0.77670 -0.02000
N 	N 	0.34800 0.84430 0.86100 -0.05900
N 	N 	0.25300 0.67590 0.71710 -0.24400
C 	C 	0.08560 0.73880 0.77280 0.16500
N 	N 	0.89050 0.70480 0.73760 -0.29100
H 	H 	0.79170 0.75280 0.77400 0.24000
H 	H 	0.86530 0.63530 0.67880 0.15600
Zn	Zn	0.29709 0.50000 0.59708 1.20400
F 	F 	0.38520 0.50000 0.38220 -0.72700
Zn	Zn	0.70291 0.50000 0.40292 1.21000
F 	F 	0.61480 0.50000 0.61780 -0.68500
Zn	Zn	-0.00000 0.00000 -0.00000 1.08200
Zn	Zn	0.50000 0.00000 -0.00000 1.12000
F 	F 	0.25790 0.00000 0.13830 -0.81700
F 	F 	0.74210 -0.00000 0.86170 -0.59400
