data_crystal

_cell_length_a 5.95400
_cell_length_b 13.52100
_cell_length_c 13.94200
_cell_angle_alpha 95.02000
_cell_angle_beta  94.33000
_cell_angle_gamma 99.72000

_symmetry_space_group_name_	'P 1'
_symmetry_space_group_name_H-M	'P 1'

loop_
_symmetry_equiv_pos_as_xyz
  x,y,z

loop_
_atom_site_label
_atom_site_type_symbol
_atom_site_fract_x
_atom_site_fract_y
_atom_site_fract_z
_atom_site_charge
Zn	Zn	0.27390 0.05515 0.50156 1.22100
O 	O 	0.24380 0.94930 0.39390 -0.50300
C 	C 	0.29410 0.86250 0.39770 0.39400
O 	O 	0.46080 0.84430 0.45200 -0.48400
C 	C 	0.14980 0.77540 0.33640 -0.15400
C 	C 	0.93940 0.78470 0.29250 0.08300
H 	H 	0.88830 0.84760 0.29920 0.00700
C 	C 	0.80250 0.70220 0.23870 -0.16900
H 	H 	0.65640 0.70870 0.21030 0.08500
C 	C 	0.87580 0.61060 0.22600 0.12900
C 	C 	0.09010 0.60240 0.26730 -0.16200
H 	H 	0.14470 0.54060 0.25730 0.08800
C 	C 	0.22600 0.68410 0.32330 0.08100
H 	H 	0.37120 0.67740 0.35260 0.01700
C 	C 	0.72260 0.51800 0.17200 -0.15600
H 	H 	0.65840 0.47300 0.21930 0.08000
H 	H 	0.59350 0.53920 0.13500 0.07000
N 	N 	0.84490 0.46290 0.10650 -0.06900
C 	C 	0.72150 0.35770 0.08280 -0.16200
H 	H 	0.77170 0.32880 0.02200 0.07700
H 	H 	0.55530 0.35780 0.07220 0.07200
C 	C 	0.76450 0.29270 0.16200 0.12900
C 	C 	0.98410 0.30340 0.21100 -0.16200
H 	H 	0.10530 0.35170 0.19340 0.08400
C 	C 	0.02510 0.24580 0.28290 0.08500
H 	H 	0.17310 0.25620 0.31670 0.01400
C 	C 	0.85210 0.17050 0.30830 -0.16000
C 	C 	0.63570 0.15970 0.26100 0.09400
H 	H 	0.51610 0.10990 0.27750 0.00700
C 	C 	0.59210 0.22040 0.19010 -0.17300
H 	H 	0.44130 0.21290 0.15950 0.08600
C 	C 	0.90090 0.10680 0.38490 0.40100
O 	O 	0.07710 0.13750 0.44360 -0.48900
O 	O 	0.76810 0.02180 0.38680 -0.49500
C 	C 	0.89590 0.51520 0.02180 -0.06500
H 	H 	0.92510 0.58890 0.04030 0.05200
H 	H 	0.76220 0.49890 0.97290 0.04700
Zn	Zn	0.72610 0.94485 0.49844 1.22100
O 	O 	0.75620 0.05070 0.60610 -0.50300
C 	C 	0.70590 0.13750 0.60230 0.39400
O 	O 	0.53920 0.15570 0.54800 -0.48400
C 	C 	0.85020 0.22460 0.66360 -0.15400
C 	C 	0.06060 0.21530 0.70750 0.08300
H 	H 	0.11170 0.15240 0.70080 0.00700
C 	C 	0.19750 0.29780 0.76130 -0.16900
H 	H 	0.34360 0.29130 0.78970 0.08500
C 	C 	0.12420 0.38940 0.77400 0.12900
C 	C 	0.90990 0.39760 0.73270 -0.16200
H 	H 	0.85530 0.45940 0.74270 0.08800
C 	C 	0.77400 0.31590 0.67670 0.08100
H 	H 	0.62880 0.32260 0.64740 0.01700
C 	C 	0.27740 0.48200 0.82800 -0.15600
H 	H 	0.34160 0.52700 0.78070 0.08000
H 	H 	0.40650 0.46080 0.86500 0.07000
N 	N 	0.15510 0.53710 0.89350 -0.06900
C 	C 	0.27850 0.64230 0.91720 -0.16200
H 	H 	0.22830 0.67120 0.97800 0.07700
H 	H 	0.44470 0.64220 0.92780 0.07200
C 	C 	0.23550 0.70730 0.83800 0.12900
C 	C 	0.01590 0.69660 0.78900 -0.16200
H 	H 	0.89470 0.64830 0.80660 0.08400
C 	C 	0.97490 0.75420 0.71710 0.08500
H 	H 	0.82690 0.74380 0.68330 0.01400
C 	C 	0.14790 0.82950 0.69170 -0.16000
C 	C 	0.36430 0.84030 0.73900 0.09400
H 	H 	0.48390 0.89010 0.72250 0.00700
C 	C 	0.40790 0.77960 0.80990 -0.17300
H 	H 	0.55870 0.78710 0.84050 0.08600
C 	C 	0.09910 0.89320 0.61510 0.40100
O 	O 	0.92290 0.86250 0.55640 -0.48900
O 	O 	0.23190 0.97820 0.61320 -0.49500
C 	C 	0.10410 0.48480 0.97820 -0.06500
H 	H 	0.07490 0.41110 0.95970 0.05200
H 	H 	0.23780 0.50110 0.02710 0.04700
