data_crystal

_cell_length_a 18.35170
_cell_length_b 18.35170
_cell_length_c 17.77200
_cell_angle_alpha 90.00000
_cell_angle_beta  90.00000
_cell_angle_gamma 90.00000

_symmetry_space_group_name_	'P 1'
_symmetry_space_group_name_H-M	'P 1'

loop_
_symmetry_equiv_pos_as_xyz
  x,y,z

loop_
_atom_site_label
_atom_site_type_symbol
_atom_site_fract_x
_atom_site_fract_y
_atom_site_fract_z
_atom_site_charge
O 	O 	0.14248 0.22844 0.07969 -0.72100
C 	C 	0.28636 0.18974 0.21580 0.09200
N 	N 	0.34055 0.13892 0.18266 -0.06500
O 	O 	0.64248 0.72844 0.57969 -0.67300
C 	C 	0.78636 0.68974 0.71580 0.10600
N 	N 	0.84055 0.63892 0.68266 -0.05600
O 	O 	0.85752 0.77156 0.07969 -0.73200
C 	C 	0.71364 0.81026 0.21580 0.08500
N 	N 	0.65945 0.86108 0.18266 -0.07600
O 	O 	0.35752 0.27156 0.57969 -0.67000
C 	C 	0.21364 0.31026 0.71580 0.11000
N 	N 	0.15945 0.36108 0.68266 -0.04400
O 	O 	0.77156 0.14248 0.07969 -0.72200
C 	C 	0.81026 0.28636 0.21580 0.08700
N 	N 	0.86108 0.34055 0.18266 -0.07600
O 	O 	0.27156 0.64248 0.57969 -0.67100
C 	C 	0.31026 0.78636 0.71580 0.10700
N 	N 	0.36108 0.84055 0.68266 -0.05400
O 	O 	0.22844 0.85752 0.07969 -0.73000
C 	C 	0.18974 0.71364 0.21580 0.09100
N 	N 	0.13892 0.65945 0.18266 -0.06500
O 	O 	0.72844 0.35752 0.57969 -0.67200
C 	C 	0.68974 0.21364 0.71580 0.10800
N 	N 	0.63892 0.15945 0.68266 -0.04600
O 	O 	0.85752 0.22844 0.92031 -0.52400
C 	C 	0.71364 0.18974 0.78420 0.10500
N 	N 	0.65945 0.13892 0.81734 0.00400
O 	O 	0.35752 0.72844 0.42031 -0.67600
C 	C 	0.21364 0.68974 0.28420 0.09100
N 	N 	0.15945 0.63892 0.31734 -0.06000
O 	O 	0.14248 0.77156 0.92031 -0.51500
C 	C 	0.28636 0.81026 0.78420 0.10100
N 	N 	0.34055 0.86108 0.81734 -0.00600
O 	O 	0.64248 0.27156 0.42031 -0.67500
C 	C 	0.78636 0.31026 0.28420 0.09000
N 	N 	0.84055 0.36108 0.31734 -0.06900
O 	O 	0.22844 0.14248 0.92031 -0.51300
C 	C 	0.18974 0.28636 0.78420 0.10700
N 	N 	0.13892 0.34055 0.81734 0.00500
O 	O 	0.72844 0.64248 0.42031 -0.67700
C 	C 	0.68974 0.78636 0.28420 0.08900
N 	N 	0.63892 0.84055 0.31734 -0.07000
O 	O 	0.77156 0.85752 0.92031 -0.52600
C 	C 	0.81026 0.71364 0.78420 0.10000
N 	N 	0.86108 0.65945 0.81734 -0.00700
O 	O 	0.27156 0.35752 0.42031 -0.67400
C 	C 	0.31026 0.21364 0.28420 0.09200
N 	N 	0.36108 0.15945 0.31734 -0.05900
O 	O 	0.85752 0.77156 0.92031 -0.52600
C 	C 	0.71364 0.81026 0.78420 0.10000
N 	N 	0.65945 0.86108 0.81734 -0.00700
O 	O 	0.35752 0.27156 0.42031 -0.67400
C 	C 	0.21364 0.31026 0.28420 0.09200
N 	N 	0.15945 0.36108 0.31734 -0.05900
O 	O 	0.14248 0.22844 0.92031 -0.51300
C 	C 	0.28636 0.18974 0.78420 0.10700
N 	N 	0.34055 0.13892 0.81734 0.00500
O 	O 	0.64248 0.72844 0.42031 -0.67700
C 	C 	0.78636 0.68974 0.28420 0.08900
N 	N 	0.84055 0.63892 0.31734 -0.07000
O 	O 	0.22844 0.85752 0.92031 -0.52400
C 	C 	0.18974 0.71364 0.78420 0.10500
N 	N 	0.13892 0.65945 0.81734 0.00400
O 	O 	0.72844 0.35752 0.42031 -0.67600
C 	C 	0.68974 0.21364 0.28420 0.09100
N 	N 	0.63892 0.15945 0.31734 -0.06000
O 	O 	0.77156 0.14248 0.92031 -0.51500
C 	C 	0.81026 0.28636 0.78420 0.10100
N 	N 	0.86108 0.34055 0.81734 -0.00600
O 	O 	0.27156 0.64248 0.42031 -0.67500
C 	C 	0.31026 0.78636 0.28420 0.09000
N 	N 	0.36108 0.84055 0.31734 -0.06900
O 	O 	0.14248 0.77156 0.07969 -0.72200
C 	C 	0.28636 0.81026 0.21580 0.08700
N 	N 	0.34055 0.86108 0.18266 -0.07600
O 	O 	0.64248 0.27156 0.57969 -0.67100
C 	C 	0.78636 0.31026 0.71580 0.10700
N 	N 	0.84055 0.36108 0.68266 -0.05400
O 	O 	0.85752 0.22844 0.07969 -0.73000
C 	C 	0.71364 0.18974 0.21580 0.09100
N 	N 	0.65945 0.13892 0.18266 -0.06500
O 	O 	0.35752 0.72844 0.57969 -0.67200
C 	C 	0.21364 0.68974 0.71580 0.10800
N 	N 	0.15945 0.63892 0.68266 -0.04600
O 	O 	0.77156 0.85752 0.07969 -0.73200
C 	C 	0.81026 0.71364 0.21580 0.08500
N 	N 	0.86108 0.65945 0.18266 -0.07600
O 	O 	0.27156 0.35752 0.57969 -0.67000
C 	C 	0.31026 0.21364 0.71580 0.11000
N 	N 	0.36108 0.15945 0.68266 -0.04400
O 	O 	0.22844 0.14248 0.07969 -0.72100
C 	C 	0.18974 0.28636 0.21580 0.09200
N 	N 	0.13892 0.34055 0.18266 -0.06500
O 	O 	0.72844 0.64248 0.57969 -0.67300
C 	C 	0.68974 0.78636 0.71580 0.10600
N 	N 	0.63892 0.84055 0.68266 -0.05600
Al	Al	0.07866 0.20660 -0.00000 2.38500
O 	O 	0.06052 0.31030 -0.00000 -0.73000
C 	C 	0.06769 0.46344 -0.00000 0.06400
N 	N 	0.14358 0.43184 -0.00000 -0.11600
Al	Al	0.57866 0.70660 0.50000 2.39800
O 	O 	0.56052 0.81030 0.50000 -0.60900
C 	C 	0.56769 0.96344 0.50000 0.03000
N 	N 	0.64358 0.93184 0.50000 -0.05800
Al	Al	0.92134 0.79340 -0.00000 2.38300
O 	O 	0.93948 0.68970 -0.00000 -0.76300
C 	C 	0.93231 0.53656 -0.00000 0.03500
N 	N 	0.85642 0.56816 -0.00000 -0.11700
Al	Al	0.42134 0.29340 0.50000 2.39800
O 	O 	0.43948 0.18970 0.50000 -0.61300
C 	C 	0.43231 0.03656 0.50000 0.16200
N 	N 	0.35642 0.06816 0.50000 -0.04700
Al	Al	0.79340 0.07866 -0.00000 2.38500
O 	O 	0.68970 0.06052 -0.00000 -0.72900
C 	C 	0.53656 0.06769 -0.00000 0.06400
N 	N 	0.56816 0.14358 -0.00000 -0.11600
Al	Al	0.29340 0.57866 0.50000 2.39800
O 	O 	0.18970 0.56052 0.50000 -0.61400
C 	C 	0.03656 0.56769 0.50000 0.16200
N 	N 	0.06816 0.64358 0.50000 -0.05000
Al	Al	0.20660 0.92134 -0.00000 2.38300
O 	O 	0.31030 0.93948 -0.00000 -0.76300
C 	C 	0.46344 0.93231 -0.00000 0.03500
N 	N 	0.43184 0.85642 -0.00000 -0.11700
Al	Al	0.70660 0.42134 0.50000 2.39800
O 	O 	0.81030 0.43948 0.50000 -0.60800
C 	C 	0.96344 0.43231 0.50000 0.03100
N 	N 	0.93184 0.35642 0.50000 -0.05500
Al	Al	0.92134 0.20660 -0.00000 2.38300
O 	O 	0.93948 0.31030 -0.00000 -0.76300
C 	C 	0.93231 0.46344 -0.00000 0.03500
N 	N 	0.85642 0.43184 -0.00000 -0.11700
Al	Al	0.42134 0.70660 0.50000 2.39800
O 	O 	0.43948 0.81030 0.50000 -0.60800
C 	C 	0.43231 0.96344 0.50000 0.03100
N 	N 	0.35642 0.93184 0.50000 -0.05500
Al	Al	0.07866 0.79340 -0.00000 2.38500
O 	O 	0.06052 0.68970 -0.00000 -0.72900
C 	C 	0.06769 0.53656 -0.00000 0.06400
N 	N 	0.14358 0.56816 -0.00000 -0.11600
Al	Al	0.57866 0.29340 0.50000 2.39800
O 	O 	0.56052 0.18970 0.50000 -0.61400
C 	C 	0.56769 0.03656 0.50000 0.16200
N 	N 	0.64358 0.06816 0.50000 -0.05000
Al	Al	0.20660 0.07866 -0.00000 2.38500
O 	O 	0.31030 0.06052 -0.00000 -0.73000
C 	C 	0.46344 0.06769 -0.00000 0.06400
N 	N 	0.43184 0.14358 -0.00000 -0.11600
Al	Al	0.70660 0.57866 0.50000 2.39800
O 	O 	0.81030 0.56052 0.50000 -0.60900
C 	C 	0.96344 0.56769 0.50000 0.03000
N 	N 	0.93184 0.64358 0.50000 -0.05800
Al	Al	0.79340 0.92134 -0.00000 2.38300
O 	O 	0.68970 0.93948 -0.00000 -0.76300
C 	C 	0.53656 0.93231 -0.00000 0.03500
N 	N 	0.56816 0.85642 -0.00000 -0.11700
Al	Al	0.29340 0.42134 0.50000 2.39800
O 	O 	0.18970 0.43948 0.50000 -0.61300
C 	C 	0.03656 0.43231 0.50000 0.16200
N 	N 	0.06816 0.35642 0.50000 -0.04700
O 	O 	0.11024 0.11024 -0.00000 -1.04100
O 	O 	0.61024 0.61024 0.50000 -0.88200
O 	O 	0.88976 0.88976 -0.00000 -1.07800
O 	O 	0.38976 0.38976 0.50000 -0.88300
O 	O 	0.88976 0.11024 -0.00000 -1.06000
O 	O 	0.38976 0.61024 0.50000 -0.88300
O 	O 	0.11024 0.88976 -0.00000 -1.06000
O 	O 	0.61024 0.38976 0.50000 -0.88300
O 	O 	-0.00000 0.19291 0.06616 -0.91900
C 	C 	0.00000 0.18470 0.14796 0.20700
O 	O 	0.50000 0.69291 0.56616 -0.87900
C 	C 	0.50000 0.68470 0.64796 0.21100
O 	O 	-0.00000 0.80709 0.06616 -0.92100
C 	C 	-0.00000 0.81530 0.14796 0.19300
O 	O 	0.50000 0.30709 0.56616 -0.87900
C 	C 	0.50000 0.31530 0.64796 0.21200
O 	O 	0.80709 -0.00000 0.06616 -0.92100
C 	C 	0.81530 0.00000 0.14796 0.19300
O 	O 	0.30709 0.50000 0.56616 -0.87900
C 	C 	0.31530 0.50000 0.64796 0.21200
O 	O 	0.19291 -0.00000 0.06616 -0.91900
C 	C 	0.18470 0.00000 0.14796 0.20700
O 	O 	0.69291 0.50000 0.56616 -0.87900
C 	C 	0.68470 0.50000 0.64796 0.21100
O 	O 	0.00000 0.19291 0.93384 -0.67500
C 	C 	-0.00000 0.18470 0.85204 0.23800
O 	O 	0.50000 0.69291 0.43384 -0.87600
C 	C 	0.50000 0.68470 0.35204 0.15800
O 	O 	-0.00000 0.80709 0.93384 -0.67800
C 	C 	-0.00000 0.81530 0.85204 0.22300
O 	O 	0.50000 0.30709 0.43384 -0.87500
C 	C 	0.50000 0.31530 0.35204 0.15900
O 	O 	0.19291 -0.00000 0.93384 -0.67500
C 	C 	0.18470 -0.00000 0.85204 0.23800
O 	O 	0.69291 0.50000 0.43384 -0.87600
C 	C 	0.68470 0.50000 0.35204 0.15800
O 	O 	0.80709 -0.00000 0.93384 -0.67800
C 	C 	0.81530 -0.00000 0.85204 0.22300
O 	O 	0.30709 0.50000 0.43384 -0.87500
C 	C 	0.31530 0.50000 0.35204 0.15900
C 	C 	-0.00000 0.34196 -0.00000 0.56600
C 	C 	-0.00000 0.42527 -0.00000 -0.13500
C 	C 	0.50000 0.84196 0.50000 0.51300
C 	C 	0.50000 0.92527 0.50000 -0.09300
C 	C 	-0.00000 0.65804 -0.00000 0.56600
C 	C 	-0.00000 0.57473 -0.00000 -0.13500
C 	C 	0.50000 0.15804 0.50000 0.53600
C 	C 	0.50000 0.07473 0.50000 -0.15300
C 	C 	0.65804 0.00000 -0.00000 0.56600
C 	C 	0.57473 0.00000 -0.00000 -0.13500
C 	C 	0.15804 0.50000 0.50000 0.53600
C 	C 	0.07473 0.50000 0.50000 -0.15300
C 	C 	0.34196 0.00000 -0.00000 0.56600
C 	C 	0.42527 0.00000 -0.00000 -0.13500
C 	C 	0.84196 0.50000 0.50000 0.51300
C 	C 	0.92527 0.50000 0.50000 -0.09300
C 	C 	0.19687 0.19687 0.10774 0.56100
C 	C 	0.22431 0.22431 0.18267 -0.16600
C 	C 	0.69687 0.69687 0.60774 0.56700
C 	C 	0.72431 0.72431 0.68267 -0.15500
C 	C 	0.80313 0.80313 0.10774 0.56000
C 	C 	0.77569 0.77569 0.18267 -0.17200
C 	C 	0.30313 0.30313 0.60774 0.56900
C 	C 	0.27569 0.27569 0.68267 -0.15100
C 	C 	0.80313 0.19687 0.10774 0.56000
C 	C 	0.77569 0.22431 0.18267 -0.16900
C 	C 	0.30313 0.69687 0.60774 0.56800
C 	C 	0.27569 0.72431 0.68267 -0.15300
C 	C 	0.19687 0.80313 0.10774 0.56000
C 	C 	0.22431 0.77569 0.18267 -0.16900
C 	C 	0.69687 0.30313 0.60774 0.56800
C 	C 	0.72431 0.27569 0.68267 -0.15300
C 	C 	0.80313 0.19687 0.89226 0.54400
C 	C 	0.77569 0.22431 0.81733 -0.11800
C 	C 	0.30313 0.69687 0.39226 0.56300
C 	C 	0.27569 0.72431 0.31733 -0.16100
C 	C 	0.19687 0.80313 0.89226 0.54400
C 	C 	0.22431 0.77569 0.81733 -0.11800
C 	C 	0.69687 0.30313 0.39226 0.56300
C 	C 	0.72431 0.27569 0.31733 -0.16100
C 	C 	0.19687 0.19687 0.89226 0.54400
C 	C 	0.22431 0.22431 0.81733 -0.11500
C 	C 	0.69687 0.69687 0.39226 0.56200
C 	C 	0.72431 0.72431 0.31733 -0.16300
C 	C 	0.80313 0.80313 0.89226 0.54400
C 	C 	0.77569 0.77569 0.81733 -0.12100
C 	C 	0.30313 0.30313 0.39226 0.56500
C 	C 	0.27569 0.27569 0.31733 -0.15900
