data_crystal

_cell_length_a 23.50300
_cell_length_b 23.50300
_cell_length_c 23.50300
_cell_angle_alpha 90.00000
_cell_angle_beta  90.00000
_cell_angle_gamma 90.00000

_symmetry_space_group_name_	'P 1'
_symmetry_space_group_name_H-M	'P 1'

loop_
_symmetry_equiv_pos_as_xyz
  x,y,z

loop_
_atom_site_label
_atom_site_type_symbol
_atom_site_fract_x
_atom_site_fract_y
_atom_site_fract_z
_atom_site_charge
Zn	Zn	0.76263 0.70659 0.82052 1.22900
O 	O 	0.56370 0.94410 0.95250 -0.38900
O 	O 	0.55730 0.93500 0.04770 -0.42600
O 	O 	0.74260 0.75850 0.88400 -0.47700
O 	O 	0.69790 0.83100 0.84390 -0.49800
O 	O 	0.66800 0.78690 0.14330 -0.45300
O 	O 	0.72940 0.73350 0.09810 -0.31200
C 	C 	0.62240 0.87590 0.99760 0.02400
C 	C 	0.63900 0.84590 0.04640 -0.03800
H 	H 	0.62250 0.85540 0.08110 0.07600
C 	C 	0.67800 0.80370 0.04470 -0.13700
C 	C 	0.70480 0.79100 0.99210 0.11200
H 	H 	0.73390 0.76410 0.99040 0.04200
C 	C 	0.68770 0.81840 0.94460 -0.11000
C 	C 	0.64690 0.86010 0.94620 0.01500
H 	H 	0.63560 0.87790 0.91270 0.06500
C 	C 	0.57740 0.92330 0.00070 0.26600
C 	C 	0.71070 0.80130 0.88510 0.42400
C 	C 	0.69380 0.77380 0.09760 0.34200
Zn	Zn	0.26263 0.20659 0.32052 1.22700
O 	O 	0.06370 0.44410 0.45250 -0.48300
O 	O 	0.05730 0.43500 0.54770 -0.48300
O 	O 	0.24260 0.25850 0.38400 -0.48900
O 	O 	0.19790 0.33100 0.34390 -0.50900
O 	O 	0.16800 0.28690 0.64330 -0.45800
O 	O 	0.22940 0.23350 0.59810 -0.30600
C 	C 	0.12240 0.37590 0.49760 -0.13500
C 	C 	0.13900 0.34590 0.54640 0.07500
H 	H 	0.12250 0.35540 0.58110 0.03500
C 	C 	0.17800 0.30370 0.54470 -0.13500
C 	C 	0.20480 0.29100 0.49210 0.07900
H 	H 	0.23390 0.26410 0.49040 0.03200
C 	C 	0.18770 0.31840 0.44460 -0.14500
C 	C 	0.14690 0.36010 0.44620 0.07900
H 	H 	0.13560 0.37790 0.41270 0.03000
C 	C 	0.07740 0.42330 0.50070 0.40200
C 	C 	0.21070 0.30130 0.38510 0.42800
C 	C 	0.19380 0.27380 0.59760 0.34500
Zn	Zn	0.23737 0.29341 0.82052 1.22700
O 	O 	0.43630 0.05590 0.95250 -0.42500
O 	O 	0.44270 0.06500 0.04770 -0.45900
O 	O 	0.25740 0.24150 0.88400 -0.48500
O 	O 	0.30210 0.16900 0.84390 -0.50900
O 	O 	0.33200 0.21310 0.14330 -0.46100
O 	O 	0.27060 0.26650 0.09810 -0.32100
C 	C 	0.37760 0.12410 0.99760 0.00500
C 	C 	0.36100 0.15410 0.04640 -0.03300
H 	H 	0.37750 0.14460 0.08110 0.06500
C 	C 	0.32200 0.19630 0.04470 -0.15100
C 	C 	0.29520 0.20900 0.99210 0.11700
H 	H 	0.26610 0.23590 0.99040 0.03300
C 	C 	0.31230 0.18160 0.94460 -0.12600
C 	C 	0.35310 0.13990 0.94620 0.02100
H 	H 	0.36440 0.12210 0.91270 0.05200
C 	C 	0.42260 0.07670 0.00070 0.26900
C 	C 	0.28930 0.19870 0.88510 0.42400
C 	C 	0.30620 0.22620 0.09760 0.34200
Zn	Zn	0.73737 0.79341 0.32052 1.22700
O 	O 	0.93630 0.55590 0.45250 -0.45200
O 	O 	0.94270 0.56500 0.54770 -0.44900
O 	O 	0.75740 0.74150 0.38400 -0.48600
O 	O 	0.80210 0.66900 0.34390 -0.50500
O 	O 	0.83200 0.71310 0.64330 -0.45100
O 	O 	0.77060 0.76650 0.59810 -0.30100
C 	C 	0.87760 0.62410 0.49760 -0.11900
C 	C 	0.86100 0.65410 0.54640 0.06700
H 	H 	0.87750 0.64460 0.58110 0.04500
C 	C 	0.82200 0.69630 0.54470 -0.12400
C 	C 	0.79520 0.70900 0.49210 0.07300
H 	H 	0.76610 0.73590 0.49040 0.03700
C 	C 	0.81230 0.68160 0.44460 -0.13500
C 	C 	0.85310 0.63990 0.44620 0.07300
H 	H 	0.86440 0.62210 0.41270 0.03900
C 	C 	0.92260 0.57670 0.50070 0.39700
C 	C 	0.78930 0.69870 0.38510 0.42700
C 	C 	0.80620 0.72620 0.59760 0.34300
Zn	Zn	0.23737 0.70659 0.17948 1.22600
O 	O 	0.43630 0.94410 0.04750 -0.51100
O 	O 	0.44270 0.93500 0.95230 -0.47500
O 	O 	0.25740 0.75850 0.11600 -0.49400
O 	O 	0.30210 0.83100 0.15610 -0.50800
O 	O 	0.33200 0.78690 0.85670 -0.45000
O 	O 	0.27060 0.73350 0.90190 -0.29100
C 	C 	0.37760 0.87590 0.00240 -0.26100
C 	C 	0.36100 0.84590 0.95360 0.17400
H 	H 	0.37750 0.85540 0.91890 0.01200
C 	C 	0.32200 0.80370 0.95530 -0.11300
C 	C 	0.29520 0.79100 0.00790 0.03600
H 	H 	0.26610 0.76410 0.00960 0.03300
C 	C 	0.31230 0.81840 0.05540 -0.15800
C 	C 	0.35310 0.86010 0.05380 0.13100
H 	H 	0.36440 0.87790 0.08730 0.01600
C 	C 	0.42260 0.92330 0.99930 0.53100
C 	C 	0.28930 0.80130 0.11490 0.43000
C 	C 	0.30620 0.77380 0.90240 0.34700
Zn	Zn	0.73737 0.20659 0.67948 1.22700
O 	O 	0.93630 0.44410 0.54750 -0.45200
O 	O 	0.94270 0.43500 0.45230 -0.44900
O 	O 	0.75740 0.25850 0.61600 -0.48800
O 	O 	0.80210 0.33100 0.65610 -0.50600
O 	O 	0.83200 0.28690 0.35670 -0.45100
O 	O 	0.77060 0.23350 0.40190 -0.30400
C 	C 	0.87760 0.37590 0.50240 -0.12000
C 	C 	0.86100 0.34590 0.45360 0.06800
H 	H 	0.87750 0.35540 0.41890 0.04400
C 	C 	0.82200 0.30370 0.45530 -0.12600
C 	C 	0.79520 0.29100 0.50790 0.07400
H 	H 	0.76610 0.26410 0.50960 0.03500
C 	C 	0.81230 0.31840 0.55540 -0.13700
C 	C 	0.85310 0.36010 0.55380 0.07300
H 	H 	0.86440 0.37790 0.58730 0.03900
C 	C 	0.92260 0.42330 0.49930 0.39700
C 	C 	0.78930 0.30130 0.61490 0.42800
C 	C 	0.80620 0.27380 0.40240 0.34400
Zn	Zn	0.76263 0.29341 0.17948 1.22600
O 	O 	0.56370 0.05590 0.04750 -0.54500
O 	O 	0.55730 0.06500 0.95230 -0.50600
O 	O 	0.74260 0.24150 0.11600 -0.49400
O 	O 	0.69790 0.16900 0.15610 -0.51400
O 	O 	0.66800 0.21310 0.85670 -0.45400
O 	O 	0.72940 0.26650 0.90190 -0.29000
C 	C 	0.62240 0.12410 0.00240 -0.27600
C 	C 	0.63900 0.15410 0.95360 0.18000
H 	H 	0.62250 0.14460 0.91890 0.00400
C 	C 	0.67800 0.19630 0.95530 -0.12000
C 	C 	0.70480 0.20900 0.00790 0.04000
H 	H 	0.73390 0.23590 0.00960 0.03200
C 	C 	0.68770 0.18160 0.05540 -0.16500
C 	C 	0.64690 0.13990 0.05380 0.13600
H 	H 	0.63560 0.12210 0.08730 0.00600
C 	C 	0.57740 0.07670 0.99930 0.53500
C 	C 	0.71070 0.19870 0.11490 0.43200
C 	C 	0.69380 0.22620 0.90240 0.34800
Zn	Zn	0.26263 0.79341 0.67948 1.22700
O 	O 	0.06370 0.55590 0.54750 -0.48400
O 	O 	0.05730 0.56500 0.45230 -0.48400
O 	O 	0.24260 0.74150 0.61600 -0.48800
O 	O 	0.19790 0.66900 0.65610 -0.51000
O 	O 	0.16800 0.71310 0.35670 -0.45800
O 	O 	0.22940 0.76650 0.40190 -0.30300
C 	C 	0.12240 0.62410 0.50240 -0.13500
C 	C 	0.13900 0.65410 0.45360 0.07300
H 	H 	0.12250 0.64460 0.41890 0.03400
C 	C 	0.17800 0.69630 0.45530 -0.13400
C 	C 	0.20480 0.70900 0.50790 0.07700
H 	H 	0.23390 0.73590 0.50960 0.03500
C 	C 	0.18770 0.68160 0.55540 -0.14400
C 	C 	0.14690 0.63990 0.55380 0.07800
H 	H 	0.13560 0.62210 0.58730 0.03000
C 	C 	0.07740 0.57670 0.49930 0.40200
C 	C 	0.21070 0.69870 0.61490 0.42800
C 	C 	0.19380 0.72620 0.40240 0.34400
Zn	Zn	0.82052 0.76263 0.70659 1.22800
O 	O 	0.95250 0.56370 0.94410 -0.39000
O 	O 	0.04770 0.55730 0.93500 -0.42700
O 	O 	0.88400 0.74260 0.75850 -0.47800
O 	O 	0.84390 0.69790 0.83100 -0.49900
O 	O 	0.14330 0.66800 0.78690 -0.45400
O 	O 	0.09810 0.72940 0.73350 -0.31300
C 	C 	0.99760 0.62240 0.87590 0.02300
C 	C 	0.04640 0.63900 0.84590 -0.03900
H 	H 	0.08110 0.62250 0.85540 0.07500
C 	C 	0.04470 0.67800 0.80370 -0.13800
C 	C 	0.99210 0.70480 0.79100 0.11100
H 	H 	0.99040 0.73390 0.76410 0.04100
C 	C 	0.94460 0.68770 0.81840 -0.11100
C 	C 	0.94620 0.64690 0.86010 0.01400
H 	H 	0.91270 0.63560 0.87790 0.06400
C 	C 	0.00070 0.57740 0.92330 0.26500
C 	C 	0.88510 0.71070 0.80130 0.42300
C 	C 	0.09760 0.69380 0.77380 0.34100
Zn	Zn	0.32052 0.26263 0.20659 1.22600
O 	O 	0.45250 0.06370 0.44410 -0.48400
O 	O 	0.54770 0.05730 0.43500 -0.48400
O 	O 	0.38400 0.24260 0.25850 -0.49000
O 	O 	0.34390 0.19790 0.33100 -0.51000
O 	O 	0.64330 0.16800 0.28690 -0.45900
O 	O 	0.59810 0.22940 0.23350 -0.30700
C 	C 	0.49760 0.12240 0.37590 -0.13600
C 	C 	0.54640 0.13900 0.34590 0.07400
H 	H 	0.58110 0.12250 0.35540 0.03400
C 	C 	0.54470 0.17800 0.30370 -0.13600
C 	C 	0.49210 0.20480 0.29100 0.07800
H 	H 	0.49040 0.23390 0.26410 0.03200
C 	C 	0.44460 0.18770 0.31840 -0.14500
C 	C 	0.44620 0.14690 0.36010 0.07900
H 	H 	0.41270 0.13560 0.37790 0.03000
C 	C 	0.50070 0.07740 0.42330 0.40200
C 	C 	0.38510 0.21070 0.30130 0.42800
C 	C 	0.59760 0.19380 0.27380 0.34500
Zn	Zn	0.82052 0.23737 0.29341 1.22700
O 	O 	0.95250 0.43630 0.05590 -0.42500
O 	O 	0.04770 0.44270 0.06500 -0.45900
O 	O 	0.88400 0.25740 0.24150 -0.48500
O 	O 	0.84390 0.30210 0.16900 -0.50900
O 	O 	0.14330 0.33200 0.21310 -0.46100
O 	O 	0.09810 0.27060 0.26650 -0.32100
C 	C 	0.99760 0.37760 0.12410 0.00500
C 	C 	0.04640 0.36100 0.15410 -0.03300
H 	H 	0.08110 0.37750 0.14460 0.06500
C 	C 	0.04470 0.32200 0.19630 -0.15100
C 	C 	0.99210 0.29520 0.20900 0.11700
H 	H 	0.99040 0.26610 0.23590 0.03300
C 	C 	0.94460 0.31230 0.18160 -0.12600
C 	C 	0.94620 0.35310 0.13990 0.02100
H 	H 	0.91270 0.36440 0.12210 0.05200
C 	C 	0.00070 0.42260 0.07670 0.26900
C 	C 	0.88510 0.28930 0.19870 0.42400
C 	C 	0.09760 0.30620 0.22620 0.34200
Zn	Zn	0.32052 0.73737 0.79341 1.22700
O 	O 	0.45250 0.93630 0.55590 -0.45200
O 	O 	0.54770 0.94270 0.56500 -0.44900
O 	O 	0.38400 0.75740 0.74150 -0.48600
O 	O 	0.34390 0.80210 0.66900 -0.50500
O 	O 	0.64330 0.83200 0.71310 -0.45100
O 	O 	0.59810 0.77060 0.76650 -0.30100
C 	C 	0.49760 0.87760 0.62410 -0.11900
C 	C 	0.54640 0.86100 0.65410 0.06700
H 	H 	0.58110 0.87750 0.64460 0.04500
C 	C 	0.54470 0.82200 0.69630 -0.12400
C 	C 	0.49210 0.79520 0.70900 0.07300
H 	H 	0.49040 0.76610 0.73590 0.03700
C 	C 	0.44460 0.81230 0.68160 -0.13500
C 	C 	0.44620 0.85310 0.63990 0.07300
H 	H 	0.41270 0.86440 0.62210 0.03900
C 	C 	0.50070 0.92260 0.57670 0.39700
C 	C 	0.38510 0.78930 0.69870 0.42700
C 	C 	0.59760 0.80620 0.72620 0.34300
Zn	Zn	0.17948 0.23737 0.70659 1.22600
O 	O 	0.04750 0.43630 0.94410 -0.51100
O 	O 	0.95230 0.44270 0.93500 -0.47500
O 	O 	0.11600 0.25740 0.75850 -0.49400
O 	O 	0.15610 0.30210 0.83100 -0.50800
O 	O 	0.85670 0.33200 0.78690 -0.45000
O 	O 	0.90190 0.27060 0.73350 -0.29100
C 	C 	0.00240 0.37760 0.87590 -0.26100
C 	C 	0.95360 0.36100 0.84590 0.17400
H 	H 	0.91890 0.37750 0.85540 0.01200
C 	C 	0.95530 0.32200 0.80370 -0.11300
C 	C 	0.00790 0.29520 0.79100 0.03600
H 	H 	0.00960 0.26610 0.76410 0.03300
C 	C 	0.05540 0.31230 0.81840 -0.15800
C 	C 	0.05380 0.35310 0.86010 0.13100
H 	H 	0.08730 0.36440 0.87790 0.01600
C 	C 	0.99930 0.42260 0.92330 0.53100
C 	C 	0.11490 0.28930 0.80130 0.43000
C 	C 	0.90240 0.30620 0.77380 0.34700
Zn	Zn	0.67948 0.73737 0.20659 1.22700
O 	O 	0.54750 0.93630 0.44410 -0.45200
O 	O 	0.45230 0.94270 0.43500 -0.44900
O 	O 	0.61600 0.75740 0.25850 -0.48800
O 	O 	0.65610 0.80210 0.33100 -0.50600
O 	O 	0.35670 0.83200 0.28690 -0.45100
O 	O 	0.40190 0.77060 0.23350 -0.30400
C 	C 	0.50240 0.87760 0.37590 -0.12000
C 	C 	0.45360 0.86100 0.34590 0.06800
H 	H 	0.41890 0.87750 0.35540 0.04400
C 	C 	0.45530 0.82200 0.30370 -0.12600
C 	C 	0.50790 0.79520 0.29100 0.07400
H 	H 	0.50960 0.76610 0.26410 0.03500
C 	C 	0.55540 0.81230 0.31840 -0.13700
C 	C 	0.55380 0.85310 0.36010 0.07300
H 	H 	0.58730 0.86440 0.37790 0.03900
C 	C 	0.49930 0.92260 0.42330 0.39700
C 	C 	0.61490 0.78930 0.30130 0.42800
C 	C 	0.40240 0.80620 0.27380 0.34400
Zn	Zn	0.17948 0.76263 0.29341 1.22600
O 	O 	0.04750 0.56370 0.05590 -0.54500
O 	O 	0.95230 0.55730 0.06500 -0.50600
O 	O 	0.11600 0.74260 0.24150 -0.49400
O 	O 	0.15610 0.69790 0.16900 -0.51400
O 	O 	0.85670 0.66800 0.21310 -0.45400
O 	O 	0.90190 0.72940 0.26650 -0.29000
C 	C 	0.00240 0.62240 0.12410 -0.27600
C 	C 	0.95360 0.63900 0.15410 0.18000
H 	H 	0.91890 0.62250 0.14460 0.00400
C 	C 	0.95530 0.67800 0.19630 -0.12000
C 	C 	0.00790 0.70480 0.20900 0.04000
H 	H 	0.00960 0.73390 0.23590 0.03200
C 	C 	0.05540 0.68770 0.18160 -0.16500
C 	C 	0.05380 0.64690 0.13990 0.13600
H 	H 	0.08730 0.63560 0.12210 0.00600
C 	C 	0.99930 0.57740 0.07670 0.53500
C 	C 	0.11490 0.71070 0.19870 0.43200
C 	C 	0.90240 0.69380 0.22620 0.34800
Zn	Zn	0.67948 0.26263 0.79341 1.22700
O 	O 	0.54750 0.06370 0.55590 -0.48400
O 	O 	0.45230 0.05730 0.56500 -0.48400
O 	O 	0.61600 0.24260 0.74150 -0.48800
O 	O 	0.65610 0.19790 0.66900 -0.51000
O 	O 	0.35670 0.16800 0.71310 -0.45800
O 	O 	0.40190 0.22940 0.76650 -0.30300
C 	C 	0.50240 0.12240 0.62410 -0.13500
C 	C 	0.45360 0.13900 0.65410 0.07300
H 	H 	0.41890 0.12250 0.64460 0.03400
C 	C 	0.45530 0.17800 0.69630 -0.13400
C 	C 	0.50790 0.20480 0.70900 0.07700
H 	H 	0.50960 0.23390 0.73590 0.03500
C 	C 	0.55540 0.18770 0.68160 -0.14400
C 	C 	0.55380 0.14690 0.63990 0.07800
H 	H 	0.58730 0.13560 0.62210 0.03000
C 	C 	0.49930 0.07740 0.57670 0.40200
C 	C 	0.61490 0.21070 0.69870 0.42800
C 	C 	0.40240 0.19380 0.72620 0.34400
Zn	Zn	0.70659 0.82052 0.76263 1.22800
O 	O 	0.94410 0.95250 0.56370 -0.39000
O 	O 	0.93500 0.04770 0.55730 -0.42700
O 	O 	0.75850 0.88400 0.74260 -0.47800
O 	O 	0.83100 0.84390 0.69790 -0.49900
O 	O 	0.78690 0.14330 0.66800 -0.45400
O 	O 	0.73350 0.09810 0.72940 -0.31300
C 	C 	0.87590 0.99760 0.62240 0.02300
C 	C 	0.84590 0.04640 0.63900 -0.03900
H 	H 	0.85540 0.08110 0.62250 0.07500
C 	C 	0.80370 0.04470 0.67800 -0.13800
C 	C 	0.79100 0.99210 0.70480 0.11100
H 	H 	0.76410 0.99040 0.73390 0.04100
C 	C 	0.81840 0.94460 0.68770 -0.11100
C 	C 	0.86010 0.94620 0.64690 0.01400
H 	H 	0.87790 0.91270 0.63560 0.06400
C 	C 	0.92330 0.00070 0.57740 0.26500
C 	C 	0.80130 0.88510 0.71070 0.42300
C 	C 	0.77380 0.09760 0.69380 0.34100
Zn	Zn	0.20659 0.32052 0.26263 1.22600
O 	O 	0.44410 0.45250 0.06370 -0.48400
O 	O 	0.43500 0.54770 0.05730 -0.48400
O 	O 	0.25850 0.38400 0.24260 -0.49000
O 	O 	0.33100 0.34390 0.19790 -0.51000
O 	O 	0.28690 0.64330 0.16800 -0.45900
O 	O 	0.23350 0.59810 0.22940 -0.30700
C 	C 	0.37590 0.49760 0.12240 -0.13600
C 	C 	0.34590 0.54640 0.13900 0.07400
H 	H 	0.35540 0.58110 0.12250 0.03400
C 	C 	0.30370 0.54470 0.17800 -0.13600
C 	C 	0.29100 0.49210 0.20480 0.07800
H 	H 	0.26410 0.49040 0.23390 0.03200
C 	C 	0.31840 0.44460 0.18770 -0.14500
C 	C 	0.36010 0.44620 0.14690 0.07900
H 	H 	0.37790 0.41270 0.13560 0.03000
C 	C 	0.42330 0.50070 0.07740 0.40200
C 	C 	0.30130 0.38510 0.21070 0.42800
C 	C 	0.27380 0.59760 0.19380 0.34500
Zn	Zn	0.29341 0.82052 0.23737 1.22700
O 	O 	0.05590 0.95250 0.43630 -0.42500
O 	O 	0.06500 0.04770 0.44270 -0.45900
O 	O 	0.24150 0.88400 0.25740 -0.48500
O 	O 	0.16900 0.84390 0.30210 -0.50900
O 	O 	0.21310 0.14330 0.33200 -0.46100
O 	O 	0.26650 0.09810 0.27060 -0.32100
C 	C 	0.12410 0.99760 0.37760 0.00500
C 	C 	0.15410 0.04640 0.36100 -0.03300
H 	H 	0.14460 0.08110 0.37750 0.06500
C 	C 	0.19630 0.04470 0.32200 -0.15100
C 	C 	0.20900 0.99210 0.29520 0.11700
H 	H 	0.23590 0.99040 0.26610 0.03300
C 	C 	0.18160 0.94460 0.31230 -0.12600
C 	C 	0.13990 0.94620 0.35310 0.02100
H 	H 	0.12210 0.91270 0.36440 0.05200
C 	C 	0.07670 0.00070 0.42260 0.26900
C 	C 	0.19870 0.88510 0.28930 0.42400
C 	C 	0.22620 0.09760 0.30620 0.34200
Zn	Zn	0.79341 0.32052 0.73737 1.22700
O 	O 	0.55590 0.45250 0.93630 -0.45200
O 	O 	0.56500 0.54770 0.94270 -0.44900
O 	O 	0.74150 0.38400 0.75740 -0.48600
O 	O 	0.66900 0.34390 0.80210 -0.50500
O 	O 	0.71310 0.64330 0.83200 -0.45100
O 	O 	0.76650 0.59810 0.77060 -0.30100
C 	C 	0.62410 0.49760 0.87760 -0.11900
C 	C 	0.65410 0.54640 0.86100 0.06700
H 	H 	0.64460 0.58110 0.87750 0.04500
C 	C 	0.69630 0.54470 0.82200 -0.12400
C 	C 	0.70900 0.49210 0.79520 0.07300
H 	H 	0.73590 0.49040 0.76610 0.03700
C 	C 	0.68160 0.44460 0.81230 -0.13500
C 	C 	0.63990 0.44620 0.85310 0.07300
H 	H 	0.62210 0.41270 0.86440 0.03900
C 	C 	0.57670 0.50070 0.92260 0.39700
C 	C 	0.69870 0.38510 0.78930 0.42700
C 	C 	0.72620 0.59760 0.80620 0.34300
Zn	Zn	0.70659 0.17948 0.23737 1.22600
O 	O 	0.94410 0.04750 0.43630 -0.51100
O 	O 	0.93500 0.95230 0.44270 -0.47500
O 	O 	0.75850 0.11600 0.25740 -0.49400
O 	O 	0.83100 0.15610 0.30210 -0.50800
O 	O 	0.78690 0.85670 0.33200 -0.45000
O 	O 	0.73350 0.90190 0.27060 -0.29100
C 	C 	0.87590 0.00240 0.37760 -0.26100
C 	C 	0.84590 0.95360 0.36100 0.17400
H 	H 	0.85540 0.91890 0.37750 0.01200
C 	C 	0.80370 0.95530 0.32200 -0.11300
C 	C 	0.79100 0.00790 0.29520 0.03600
H 	H 	0.76410 0.00960 0.26610 0.03300
C 	C 	0.81840 0.05540 0.31230 -0.15800
C 	C 	0.86010 0.05380 0.35310 0.13100
H 	H 	0.87790 0.08730 0.36440 0.01600
C 	C 	0.92330 0.99930 0.42260 0.53100
C 	C 	0.80130 0.11490 0.28930 0.43000
C 	C 	0.77380 0.90240 0.30620 0.34700
Zn	Zn	0.20659 0.67948 0.73737 1.22700
O 	O 	0.44410 0.54750 0.93630 -0.45200
O 	O 	0.43500 0.45230 0.94270 -0.44900
O 	O 	0.25850 0.61600 0.75740 -0.48800
O 	O 	0.33100 0.65610 0.80210 -0.50600
O 	O 	0.28690 0.35670 0.83200 -0.45100
O 	O 	0.23350 0.40190 0.77060 -0.30400
C 	C 	0.37590 0.50240 0.87760 -0.12000
C 	C 	0.34590 0.45360 0.86100 0.06800
H 	H 	0.35540 0.41890 0.87750 0.04400
C 	C 	0.30370 0.45530 0.82200 -0.12600
C 	C 	0.29100 0.50790 0.79520 0.07400
H 	H 	0.26410 0.50960 0.76610 0.03500
C 	C 	0.31840 0.55540 0.81230 -0.13700
C 	C 	0.36010 0.55380 0.85310 0.07300
H 	H 	0.37790 0.58730 0.86440 0.03900
C 	C 	0.42330 0.49930 0.92260 0.39700
C 	C 	0.30130 0.61490 0.78930 0.42800
C 	C 	0.27380 0.40240 0.80620 0.34400
Zn	Zn	0.29341 0.17948 0.76263 1.22600
O 	O 	0.05590 0.04750 0.56370 -0.54500
O 	O 	0.06500 0.95230 0.55730 -0.50600
O 	O 	0.24150 0.11600 0.74260 -0.49400
O 	O 	0.16900 0.15610 0.69790 -0.51400
O 	O 	0.21310 0.85670 0.66800 -0.45400
O 	O 	0.26650 0.90190 0.72940 -0.29000
C 	C 	0.12410 0.00240 0.62240 -0.27600
C 	C 	0.15410 0.95360 0.63900 0.18000
H 	H 	0.14460 0.91890 0.62250 0.00400
C 	C 	0.19630 0.95530 0.67800 -0.12000
C 	C 	0.20900 0.00790 0.70480 0.04000
H 	H 	0.23590 0.00960 0.73390 0.03200
C 	C 	0.18160 0.05540 0.68770 -0.16500
C 	C 	0.13990 0.05380 0.64690 0.13600
H 	H 	0.12210 0.08730 0.63560 0.00600
C 	C 	0.07670 0.99930 0.57740 0.53500
C 	C 	0.19870 0.11490 0.71070 0.43200
C 	C 	0.22620 0.90240 0.69380 0.34800
Zn	Zn	0.79341 0.67948 0.26263 1.22700
O 	O 	0.55590 0.54750 0.06370 -0.48400
O 	O 	0.56500 0.45230 0.05730 -0.48400
O 	O 	0.74150 0.61600 0.24260 -0.48800
O 	O 	0.66900 0.65610 0.19790 -0.51000
O 	O 	0.71310 0.35670 0.16800 -0.45800
O 	O 	0.76650 0.40190 0.22940 -0.30300
C 	C 	0.62410 0.50240 0.12240 -0.13500
C 	C 	0.65410 0.45360 0.13900 0.07300
H 	H 	0.64460 0.41890 0.12250 0.03400
C 	C 	0.69630 0.45530 0.17800 -0.13400
C 	C 	0.70900 0.50790 0.20480 0.07700
H 	H 	0.73590 0.50960 0.23390 0.03500
C 	C 	0.68160 0.55540 0.18770 -0.14400
C 	C 	0.63990 0.55380 0.14690 0.07800
H 	H 	0.62210 0.58730 0.13560 0.03000
C 	C 	0.57670 0.49930 0.07740 0.40200
C 	C 	0.69870 0.61490 0.21070 0.42800
C 	C 	0.72620 0.40240 0.19380 0.34400
Zn	Zn	0.50000 0.00000 0.93640 1.18500
Zn	Zn	0.00000 0.50000 0.43640 1.18100
Zn	Zn	0.50000 0.00000 0.06360 1.17800
Zn	Zn	0.00000 0.50000 0.56360 1.18100
Zn	Zn	0.93640 0.50000 -0.00000 1.18500
Zn	Zn	0.43640 0.00000 0.50000 1.18100
Zn	Zn	0.06360 0.50000 -0.00000 1.17800
Zn	Zn	0.56360 0.00000 0.50000 1.18100
Zn	Zn	0.00000 0.93640 0.50000 1.18500
Zn	Zn	0.50000 0.43640 -0.00000 1.18100
Zn	Zn	0.00000 0.06360 0.50000 1.17800
Zn	Zn	0.50000 0.56360 -0.00000 1.18100
O 	O 	0.74800 0.74800 0.74800 -0.70100
O 	O 	0.24800 0.24800 0.24800 -0.70700
O 	O 	0.25200 0.25200 0.74800 -0.70300
O 	O 	0.75200 0.75200 0.24800 -0.70100
O 	O 	0.25200 0.74800 0.25200 -0.70300
O 	O 	0.75200 0.24800 0.75200 -0.70100
O 	O 	0.74800 0.25200 0.25200 -0.70300
O 	O 	0.24800 0.75200 0.75200 -0.70100
