data_crystal

_cell_length_a 7.28100
_cell_length_b 7.44100
_cell_length_c 7.46000
_cell_angle_alpha 90.00000
_cell_angle_beta  90.00000
_cell_angle_gamma 95.81400

_symmetry_space_group_name_	'P 1'
_symmetry_space_group_name_H-M	'P 1'

loop_
_symmetry_equiv_pos_as_xyz
  x,y,z

loop_
_atom_site_label
_atom_site_type_symbol
_atom_site_fract_x
_atom_site_fract_y
_atom_site_fract_z
_atom_site_charge
Fe	Fe	-0.00000 0.50000 0.50000 1.05000
H 	H 	0.65840 0.49120 0.76120 0.03400
H 	H 	0.34160 0.50880 0.76120 -0.00400
H 	H 	0.34160 0.50880 0.23880 -0.00900
H 	H 	0.65840 0.49120 0.23880 0.03000
Pt	Pt	-0.00000 0.00000 -0.00000 0.08100
C 	C 	0.59600 0.49500 0.65300 -0.00100
C 	C 	0.99140 0.18900 0.81100 0.10600
C 	C 	0.40400 0.50500 0.65300 0.00300
C 	C 	0.00860 0.81100 0.81100 -0.02300
C 	C 	0.40400 0.50500 0.34700 0.00300
C 	C 	0.00860 0.81100 0.18900 -0.03500
C 	C 	0.59600 0.49500 0.34700 -0.00100
C 	C 	0.99140 0.18900 0.18900 0.09400
N 	N 	0.99050 0.30000 0.70470 -0.20300
N 	N 	0.00950 0.70000 0.70470 -0.26400
N 	N 	0.00950 0.70000 0.29530 -0.26400
N 	N 	0.99050 0.30000 0.29530 -0.20200
N 	N 	0.68970 0.48900 0.50000 -0.17400
N 	N 	0.31030 0.51100 0.50000 -0.22100
