data_crystal

_cell_length_a 6.73700
_cell_length_b 7.12200
_cell_length_c 7.17500
_cell_angle_alpha 90.00000
_cell_angle_beta  90.00000
_cell_angle_gamma 90.00000

_symmetry_space_group_name_	'P 1'
_symmetry_space_group_name_H-M	'P 1'

loop_
_symmetry_equiv_pos_as_xyz
  x,y,z

loop_
_atom_site_label
_atom_site_type_symbol
_atom_site_fract_x
_atom_site_fract_y
_atom_site_fract_z
_atom_site_charge
Pt	Pt	0.50000 0.50000 0.50000 0.30600
Fe	Fe	0.50000 0.00000 -0.00000 1.11700
N 	N 	0.50000 0.19130 0.81010 -0.21000
C 	C 	0.50000 0.30370 0.69520 0.00600
N 	N 	0.50000 0.80870 0.81010 -0.17700
C 	C 	0.50000 0.69630 0.69520 0.02800
N 	N 	0.50000 0.19130 0.18990 -0.26000
C 	C 	0.50000 0.30370 0.30480 -0.02400
N 	N 	0.50000 0.80870 0.18990 -0.22400
C 	C 	0.50000 0.69630 0.30480 -0.00200
N 	N 	0.20740 0.00000 -0.00000 -0.29400
N 	N 	0.79260 0.00000 -0.00000 -0.29400
C 	C 	0.10200 0.84080 -0.00000 0.06000
H 	H 	0.17040 0.72420 -0.00000 -0.02100
C 	C 	0.89800 0.15920 -0.00000 -0.01900
H 	H 	0.82960 0.27580 -0.00000 -0.00600
C 	C 	0.89800 0.84080 -0.00000 0.06000
H 	H 	0.82960 0.72420 -0.00000 -0.02100
C 	C 	0.10200 0.15920 -0.00000 -0.01900
H 	H 	0.17040 0.27580 -0.00000 -0.00600
