data_crystal

_cell_length_a 22.45770
_cell_length_b 11.34060
_cell_length_c 12.07730
_cell_angle_alpha 90.00000
_cell_angle_beta  113.55600
_cell_angle_gamma 90.00000

_symmetry_space_group_name_	'P 1'
_symmetry_space_group_name_H-M	'P 1'

loop_
_symmetry_equiv_pos_as_xyz
  x,y,z

loop_
_atom_site_label
_atom_site_type_symbol
_atom_site_fract_x
_atom_site_fract_y
_atom_site_fract_z
_atom_site_charge
C 	C 	0.21308 0.21700 0.65389 0.39500
C 	C 	0.20904 0.18281 0.77136 -0.10700
C 	C 	0.24512 0.08700 0.83570 0.05900
H 	H 	0.27040 0.04580 0.80370 0.00700
C 	C 	0.20668 0.10940 0.98460 0.03500
H 	H 	0.20530 0.08400 0.05670 0.03100
C 	C 	0.16908 0.20490 0.92610 -0.07000
H 	H 	0.14290 0.24240 0.95840 0.05000
C 	C 	0.17079 0.24443 0.81833 -0.01900
C 	C 	0.13040 0.35110 0.75689 0.33400
C 	C 	0.38154 0.34080 0.68020 0.09500
H 	H 	0.35810 0.36640 0.60150 -0.01400
C 	C 	0.41760 0.42170 0.76480 -0.17200
H 	H 	0.41780 0.50050 0.74360 0.10300
C 	C 	0.45360 0.38510 0.88210 0.11700
C 	C 	0.44921 0.26880 0.90880 -0.18900
H 	H 	0.47140 0.24120 0.98710 0.10800
C 	C 	0.41191 0.19370 0.81940 0.09900
H 	H 	0.40970 0.11510 0.83910 -0.01500
C 	C 	0.51580 0.45600 0.97230 0.04000
N 	N 	0.24524 0.05153 0.94136 -0.21400
N 	N 	0.37852 0.22740 0.70542 -0.24900
O 	O 	0.22977 0.13915 0.59937 -0.45100
O 	O 	0.19818 0.32015 0.61969 -0.44700
O 	O 	0.15313 0.44999 0.79510 -0.40800
O 	O 	0.07585 0.33164 0.67447 -0.27000
Cd	Cd	0.31681 0.09418 0.55701 1.21300
C 	C 	0.46370 0.48990 0.98100 -0.07200
C 	C 	0.71308 0.71700 0.65389 0.39700
C 	C 	0.70904 0.68281 0.77136 -0.10800
C 	C 	0.74512 0.58700 0.83570 0.06200
H 	H 	0.77040 0.54580 0.80370 0.00800
C 	C 	0.70668 0.60940 0.98460 0.05200
H 	H 	0.70530 0.58400 0.05670 0.02000
C 	C 	0.66908 0.70490 0.92610 -0.07900
H 	H 	0.64290 0.74240 0.95840 0.05600
C 	C 	0.67079 0.74443 0.81833 -0.01400
C 	C 	0.63040 0.85110 0.75689 0.33200
C 	C 	0.88154 0.84080 0.68020 0.09100
H 	H 	0.85810 0.86640 0.60150 -0.01200
C 	C 	0.91760 0.92170 0.76480 -0.16200
H 	H 	0.91780 0.00050 0.74360 0.09800
C 	C 	0.95360 0.88510 0.88210 0.11300
C 	C 	0.94921 0.76880 0.90880 -0.18600
H 	H 	0.97140 0.74120 0.98710 0.10900
C 	C 	0.91191 0.69370 0.81940 0.09800
H 	H 	0.90970 0.61510 0.83910 -0.01300
C 	C 	0.01580 0.95600 0.97230 0.12200
N 	N 	0.74524 0.55153 0.94136 -0.21600
N 	N 	0.87852 0.72740 0.70542 -0.24800
O 	O 	0.72977 0.63915 0.59937 -0.45100
O 	O 	0.69818 0.82015 0.61969 -0.44700
O 	O 	0.65313 0.94999 0.79510 -0.40500
O 	O 	0.57585 0.83164 0.67447 -0.26900
Cd	Cd	0.81681 0.59418 0.55701 1.21300
C 	C 	0.96370 0.98990 0.98100 -0.15100
C 	C 	0.78692 0.21700 0.84611 0.39700
C 	C 	0.79096 0.18281 0.72864 -0.10800
C 	C 	0.75488 0.08700 0.66430 0.06100
H 	H 	0.72960 0.04580 0.69630 0.00700
C 	C 	0.79332 0.10940 0.51540 0.04700
H 	H 	0.79470 0.08400 0.44330 0.02300
C 	C 	0.83092 0.20490 0.57390 -0.07600
H 	H 	0.85710 0.24240 0.54160 0.05300
C 	C 	0.82921 0.24443 0.68167 -0.01600
C 	C 	0.86960 0.35110 0.74311 0.33300
C 	C 	0.61846 0.34080 0.81980 0.09500
H 	H 	0.64190 0.36640 0.89850 -0.01400
C 	C 	0.58240 0.42170 0.73520 -0.17200
H 	H 	0.58220 0.50050 0.75640 0.10300
C 	C 	0.54640 0.38510 0.61790 0.11800
C 	C 	0.55079 0.26880 0.59120 -0.18900
H 	H 	0.52860 0.24120 0.51290 0.10900
C 	C 	0.58809 0.19370 0.68060 0.10000
H 	H 	0.59030 0.11510 0.66090 -0.01500
C 	C 	0.48420 0.45600 0.52770 0.03700
N 	N 	0.75476 0.05153 0.55864 -0.21500
N 	N 	0.62148 0.22740 0.79458 -0.24900
O 	O 	0.77023 0.13915 0.90063 -0.45200
O 	O 	0.80182 0.32015 0.88031 -0.44800
O 	O 	0.84687 0.44999 0.70490 -0.40700
O 	O 	0.92415 0.33164 0.82553 -0.27000
Cd	Cd	0.68319 0.09418 0.94299 1.21300
C 	C 	0.53630 0.48990 0.51900 -0.06900
C 	C 	0.28692 0.71700 0.84611 0.39700
C 	C 	0.29096 0.68281 0.72864 -0.10800
C 	C 	0.25488 0.58700 0.66430 0.06100
H 	H 	0.22960 0.54580 0.69630 0.00800
C 	C 	0.29332 0.60940 0.51540 0.04700
H 	H 	0.29470 0.58400 0.44330 0.02300
C 	C 	0.33092 0.70490 0.57390 -0.07700
H 	H 	0.35710 0.74240 0.54160 0.05400
C 	C 	0.32921 0.74443 0.68167 -0.01600
C 	C 	0.36960 0.85110 0.74311 0.33300
C 	C 	0.11846 0.84080 0.81980 0.09100
H 	H 	0.14190 0.86640 0.89850 -0.01200
C 	C 	0.08240 0.92170 0.73520 -0.16600
H 	H 	0.08220 0.00050 0.75640 0.09900
C 	C 	0.04640 0.88510 0.61790 0.11500
C 	C 	0.05079 0.76880 0.59120 -0.18700
H 	H 	0.02860 0.74120 0.51290 0.10800
C 	C 	0.08809 0.69370 0.68060 0.09800
H 	H 	0.09030 0.61510 0.66090 -0.01400
C 	C 	0.98420 0.95600 0.52770 0.03000
N 	N 	0.25476 0.55153 0.55864 -0.21500
N 	N 	0.12148 0.72740 0.79458 -0.24800
O 	O 	0.27023 0.63915 0.90063 -0.45000
O 	O 	0.30182 0.82015 0.88031 -0.44600
O 	O 	0.34687 0.94999 0.70490 -0.40600
O 	O 	0.42415 0.83164 0.82553 -0.26800
Cd	Cd	0.18319 0.59418 0.94299 1.21300
C 	C 	0.03630 0.98990 0.51900 -0.06100
C 	C 	0.78692 0.78300 0.34611 0.39600
C 	C 	0.79096 0.81719 0.22864 -0.10600
C 	C 	0.75488 0.91300 0.16430 0.06000
H 	H 	0.72960 0.95420 0.19630 0.00800
C 	C 	0.79332 0.89060 0.01540 0.03500
H 	H 	0.79470 0.91600 0.94330 0.03100
C 	C 	0.83092 0.79510 0.07390 -0.07000
H 	H 	0.85710 0.75760 0.04160 0.05000
C 	C 	0.82921 0.75557 0.18167 -0.01900
C 	C 	0.86960 0.64890 0.24311 0.33400
C 	C 	0.61846 0.65920 0.31980 0.09500
H 	H 	0.64190 0.63360 0.39850 -0.01400
C 	C 	0.58240 0.57830 0.23520 -0.17200
H 	H 	0.58220 0.49950 0.25640 0.10300
C 	C 	0.54640 0.61490 0.11790 0.11700
C 	C 	0.55079 0.73120 0.09120 -0.18900
H 	H 	0.52860 0.75880 0.01290 0.10800
C 	C 	0.58809 0.80630 0.18060 0.09900
H 	H 	0.59030 0.88490 0.16090 -0.01500
C 	C 	0.48420 0.54400 0.02770 0.04000
N 	N 	0.75476 0.94847 0.05864 -0.21400
N 	N 	0.62148 0.77260 0.29458 -0.24900
O 	O 	0.77023 0.86085 0.40063 -0.45100
O 	O 	0.80182 0.67985 0.38031 -0.44700
O 	O 	0.84687 0.55001 0.20490 -0.40800
O 	O 	0.92415 0.66836 0.32553 -0.27000
Cd	Cd	0.68319 0.90582 0.44299 1.21300
C 	C 	0.53630 0.51010 0.01900 -0.07200
C 	C 	0.28692 0.28300 0.34611 0.39700
C 	C 	0.29096 0.31719 0.22864 -0.10800
C 	C 	0.25488 0.41300 0.16430 0.06200
H 	H 	0.22960 0.45420 0.19630 0.00800
C 	C 	0.29332 0.39060 0.01540 0.05200
H 	H 	0.29470 0.41600 0.94330 0.02000
C 	C 	0.33092 0.29510 0.07390 -0.07900
H 	H 	0.35710 0.25760 0.04160 0.05600
C 	C 	0.32921 0.25557 0.18167 -0.01400
C 	C 	0.36960 0.14890 0.24311 0.33200
C 	C 	0.11846 0.15920 0.31980 0.09100
H 	H 	0.14190 0.13360 0.39850 -0.01200
C 	C 	0.08240 0.07830 0.23520 -0.16200
H 	H 	0.08220 0.99950 0.25640 0.09800
C 	C 	0.04640 0.11490 0.11790 0.11300
C 	C 	0.05079 0.23120 0.09120 -0.18600
H 	H 	0.02860 0.25880 0.01290 0.10900
C 	C 	0.08809 0.30630 0.18060 0.09800
H 	H 	0.09030 0.38490 0.16090 -0.01300
C 	C 	0.98420 0.04400 0.02770 0.12200
N 	N 	0.25476 0.44847 0.05864 -0.21600
N 	N 	0.12148 0.27260 0.29458 -0.24800
O 	O 	0.27023 0.36085 0.40063 -0.45100
O 	O 	0.30182 0.17985 0.38031 -0.44700
O 	O 	0.34687 0.05001 0.20490 -0.40500
O 	O 	0.42415 0.16836 0.32553 -0.26900
Cd	Cd	0.18319 0.40582 0.44299 1.21300
C 	C 	0.03630 0.01010 0.01900 -0.15100
C 	C 	0.21308 0.78300 0.15389 0.39700
C 	C 	0.20904 0.81719 0.27136 -0.10800
C 	C 	0.24512 0.91300 0.33570 0.06100
H 	H 	0.27040 0.95420 0.30370 0.00700
C 	C 	0.20668 0.89060 0.48460 0.04700
H 	H 	0.20530 0.91600 0.55670 0.02300
C 	C 	0.16908 0.79510 0.42610 -0.07600
H 	H 	0.14290 0.75760 0.45840 0.05300
C 	C 	0.17079 0.75557 0.31833 -0.01600
C 	C 	0.13040 0.64890 0.25689 0.33300
C 	C 	0.38154 0.65920 0.18020 0.09500
H 	H 	0.35810 0.63360 0.10150 -0.01400
C 	C 	0.41760 0.57830 0.26480 -0.17200
H 	H 	0.41780 0.49950 0.24360 0.10300
C 	C 	0.45360 0.61490 0.38210 0.11800
C 	C 	0.44921 0.73120 0.40880 -0.18900
H 	H 	0.47140 0.75880 0.48710 0.10900
C 	C 	0.41191 0.80630 0.31940 0.10000
H 	H 	0.40970 0.88490 0.33910 -0.01500
C 	C 	0.51580 0.54400 0.47230 0.03700
N 	N 	0.24524 0.94847 0.44136 -0.21500
N 	N 	0.37852 0.77260 0.20542 -0.24900
O 	O 	0.22977 0.86085 0.09937 -0.45200
O 	O 	0.19818 0.67985 0.11969 -0.44800
O 	O 	0.15313 0.55001 0.29510 -0.40700
O 	O 	0.07585 0.66836 0.17447 -0.27000
Cd	Cd	0.31681 0.90582 0.05701 1.21300
C 	C 	0.46370 0.51010 0.48100 -0.06900
C 	C 	0.71308 0.28300 0.15389 0.39700
C 	C 	0.70904 0.31719 0.27136 -0.10800
C 	C 	0.74512 0.41300 0.33570 0.06100
H 	H 	0.77040 0.45420 0.30370 0.00800
C 	C 	0.70668 0.39060 0.48460 0.04700
H 	H 	0.70530 0.41600 0.55670 0.02300
C 	C 	0.66908 0.29510 0.42610 -0.07700
H 	H 	0.64290 0.25760 0.45840 0.05400
C 	C 	0.67079 0.25557 0.31833 -0.01600
C 	C 	0.63040 0.14890 0.25689 0.33300
C 	C 	0.88154 0.15920 0.18020 0.09100
H 	H 	0.85810 0.13360 0.10150 -0.01200
C 	C 	0.91760 0.07830 0.26480 -0.16600
H 	H 	0.91780 0.99950 0.24360 0.09900
C 	C 	0.95360 0.11490 0.38210 0.11500
C 	C 	0.94921 0.23120 0.40880 -0.18700
H 	H 	0.97140 0.25880 0.48710 0.10800
C 	C 	0.91191 0.30630 0.31940 0.09800
H 	H 	0.90970 0.38490 0.33910 -0.01400
C 	C 	0.01580 0.04400 0.47230 0.03000
N 	N 	0.74524 0.44847 0.44136 -0.21500
N 	N 	0.87852 0.27260 0.20542 -0.24800
O 	O 	0.72977 0.36085 0.09937 -0.45000
O 	O 	0.69818 0.17985 0.11969 -0.44600
O 	O 	0.65313 0.05001 0.29510 -0.40600
O 	O 	0.57585 0.16836 0.17447 -0.26800
Cd	Cd	0.81681 0.40582 0.05701 1.21300
C 	C 	0.96370 0.01010 0.48100 -0.06100
