data_crystal

_cell_length_a 10.47100
_cell_length_b 11.35900
_cell_length_c 13.09300
_cell_angle_alpha 107.54100
_cell_angle_beta  90.08400
_cell_angle_gamma 92.35500

_symmetry_space_group_name_	'P 1'
_symmetry_space_group_name_H-M	'P 1'

loop_
_symmetry_equiv_pos_as_xyz
  x,y,z

loop_
_atom_site_label
_atom_site_type_symbol
_atom_site_fract_x
_atom_site_fract_y
_atom_site_fract_z
_atom_site_charge
Nd	Nd	0.48068 0.45342 0.33946 2.13800
C 	C 	0.49870 0.23350 0.17060 0.34700
C 	C 	0.50890 0.74620 0.50720 0.50600
C 	C 	0.26680 0.49130 0.56120 0.43500
C 	C 	0.49980 0.11540 0.08610 -0.11300
C 	C 	0.50640 0.87990 0.50690 -0.16700
C 	C 	0.12880 0.49660 0.52840 -0.15600
C 	C 	0.45140 0.00600 0.10100 0.05100
C 	C 	0.39120 0.93970 0.52570 0.04900
C 	C 	0.07640 0.40290 0.44090 0.02500
C 	C 	0.40330 0.00050 0.20510 -0.08000
H 	H 	0.41100 0.07120 0.26370 0.07600
C 	C 	0.27690 0.88310 0.55250 -0.07600
H 	H 	0.27920 0.80400 0.55920 0.05300
C 	C 	0.14950 0.30280 0.38130 -0.07100
H 	H 	0.23460 0.29900 0.40010 0.03000
C 	C 	0.34860 0.89680 0.21870 -0.02700
H 	H 	0.31350 0.89930 0.28450 0.03800
C 	C 	0.16550 0.94170 0.56850 -0.03800
H 	H 	0.09180 0.90140 0.58320 0.04400
C 	C 	0.09540 0.21220 0.29650 -0.05000
H 	H 	0.14360 0.14670 0.25820 0.05000
C 	C 	0.34390 0.78310 0.13360 -0.03600
H 	H 	0.30910 0.71110 0.14400 0.01500
C 	C 	0.16040 0.06270 0.56310 -0.01900
H 	H 	0.08320 0.10200 0.57370 0.03400
C 	C 	0.96650 0.21810 0.26710 -0.01500
H 	H 	0.93130 0.15730 0.20820 0.03900
C 	C 	0.39190 0.78270 0.03620 -0.07200
H 	H 	0.38830 0.70850 0.98100 0.04100
C 	C 	0.26740 0.12350 0.54270 -0.09300
H 	H 	0.26310 0.20510 0.54270 0.06400
C 	C 	0.89310 0.31080 0.32310 -0.09900
H 	H 	0.80770 0.31140 0.30370 0.07900
C 	C 	0.44750 0.89050 0.01450 0.03700
C 	C 	0.38630 0.06400 0.52130 0.06100
C 	C 	0.94610 0.40770 0.41190 0.05500
O 	O 	0.39090 0.28100 0.19510 -0.48600
O 	O 	0.49290 0.66700 0.41590 -0.57800
O 	O 	0.35740 0.50530 0.50210 -0.63900
O 	O 	0.59850 0.28330 0.21720 -0.44900
O 	O 	0.52770 0.72420 0.59280 -0.52400
O 	O 	0.28870 0.48380 0.65240 -0.47900
Nd	Nd	0.51932 0.54658 0.66054 2.13800
C 	C 	0.50130 0.76650 0.82940 0.34700
C 	C 	0.49110 0.25380 0.49280 0.50600
C 	C 	0.73320 0.50870 0.43880 0.43500
C 	C 	0.50020 0.88460 0.91390 -0.11300
C 	C 	0.49360 0.12010 0.49310 -0.16700
C 	C 	0.87120 0.50340 0.47160 -0.15600
C 	C 	0.54860 0.99400 0.89900 0.05100
C 	C 	0.60880 0.06030 0.47430 0.04900
C 	C 	0.92360 0.59710 0.55910 0.02500
C 	C 	0.59670 0.99950 0.79490 -0.08000
H 	H 	0.58900 0.92880 0.73630 0.07600
C 	C 	0.72310 0.11690 0.44750 -0.07600
H 	H 	0.72080 0.19600 0.44080 0.05300
C 	C 	0.85050 0.69720 0.61870 -0.07100
H 	H 	0.76540 0.70100 0.59990 0.03000
C 	C 	0.65140 0.10320 0.78130 -0.02700
H 	H 	0.68650 0.10070 0.71550 0.03800
C 	C 	0.83450 0.05830 0.43150 -0.03800
H 	H 	0.90820 0.09860 0.41680 0.04400
C 	C 	0.90460 0.78780 0.70350 -0.05000
H 	H 	0.85640 0.85330 0.74180 0.05000
C 	C 	0.65610 0.21690 0.86640 -0.03600
H 	H 	0.69090 0.28890 0.85600 0.01500
C 	C 	0.83960 0.93730 0.43690 -0.01900
H 	H 	0.91680 0.89800 0.42630 0.03400
C 	C 	0.03350 0.78190 0.73290 -0.01500
H 	H 	0.06870 0.84270 0.79180 0.03900
C 	C 	0.60810 0.21730 0.96380 -0.07200
H 	H 	0.61170 0.29150 0.01900 0.04100
C 	C 	0.73260 0.87650 0.45730 -0.09300
H 	H 	0.73690 0.79490 0.45730 0.06400
C 	C 	0.10690 0.68920 0.67690 -0.09900
H 	H 	0.19230 0.68860 0.69630 0.07900
C 	C 	0.55250 0.10950 0.98550 0.03700
C 	C 	0.61370 0.93600 0.47870 0.06100
C 	C 	0.05390 0.59230 0.58810 0.05500
O 	O 	0.60910 0.71900 0.80490 -0.48600
O 	O 	0.50710 0.33300 0.58410 -0.57800
O 	O 	0.64260 0.49470 0.49790 -0.63900
O 	O 	0.40150 0.71670 0.78280 -0.44900
O 	O 	0.47230 0.27580 0.40720 -0.52400
O 	O 	0.71130 0.51620 0.34760 -0.47900
