data_crystal

_cell_length_a 10.46800
_cell_length_b 11.35600
_cell_length_c 13.08900
_cell_angle_alpha 107.53900
_cell_angle_beta  90.08600
_cell_angle_gamma 92.35600

_symmetry_space_group_name_	'P 1'
_symmetry_space_group_name_H-M	'P 1'

loop_
_symmetry_equiv_pos_as_xyz
  x,y,z

loop_
_atom_site_label
_atom_site_type_symbol
_atom_site_fract_x
_atom_site_fract_y
_atom_site_fract_z
_atom_site_charge
Tb	Tb	0.48066 0.45339 0.33946 1.70600
C 	C 	0.49890 0.23330 0.17040 0.34500
C 	C 	0.50840 0.74560 0.50640 0.46100
C 	C 	0.26710 0.49130 0.56060 0.40600
C 	C 	0.50070 0.11540 0.08680 -0.11700
C 	C 	0.50620 0.88010 0.50670 -0.15200
C 	C 	0.12950 0.49620 0.52810 -0.14700
C 	C 	0.45200 0.00550 0.10170 0.05400
C 	C 	0.39140 0.93980 0.52560 0.04900
C 	C 	0.07680 0.40280 0.44120 0.03200
C 	C 	0.40320 0.00070 0.20570 -0.08400
H 	H 	0.41040 0.07160 0.26430 0.07900
C 	C 	0.27630 0.88450 0.55270 -0.07600
H 	H 	0.27840 0.80540 0.55960 0.05900
C 	C 	0.14830 0.30310 0.38110 -0.07300
H 	H 	0.23340 0.29900 0.40000 0.04200
C 	C 	0.34900 0.89800 0.21880 -0.02000
H 	H 	0.31450 0.90040 0.28480 0.03800
C 	C 	0.16580 0.94190 0.56860 -0.03600
H 	H 	0.09180 0.90140 0.58240 0.04400
C 	C 	0.09560 0.21300 0.29630 -0.04500
H 	H 	0.14420 0.14790 0.25810 0.05100
C 	C 	0.34270 0.78460 0.13360 -0.03500
H 	H 	0.30630 0.71320 0.14430 0.02500
C 	C 	0.16210 0.06340 0.56440 -0.01600
H 	H 	0.08550 0.10370 0.57720 0.03600
C 	C 	0.96700 0.21840 0.26660 -0.01200
H 	H 	0.93180 0.15750 0.20760 0.04000
C 	C 	0.39140 0.78220 0.03520 -0.07300
H 	H 	0.38750 0.70780 0.98010 0.04900
C 	C 	0.26710 0.12310 0.54230 -0.09300
H 	H 	0.26200 0.20420 0.54080 0.06800
C 	C 	0.89420 0.31110 0.32260 -0.09900
H 	H 	0.80890 0.31190 0.30280 0.08300
C 	C 	0.44770 0.88990 0.01420 0.04100
C 	C 	0.38580 0.06420 0.52110 0.06000
C 	C 	0.94640 0.40790 0.41210 0.05600
O 	O 	0.39110 0.28140 0.19520 -0.42900
O 	O 	0.49310 0.66700 0.41580 -0.50000
O 	O 	0.35700 0.50520 0.50180 -0.54100
O 	O 	0.59820 0.28280 0.21720 -0.40200
O 	O 	0.52740 0.72440 0.59250 -0.45600
O 	O 	0.28850 0.48310 0.65200 -0.41800
Tb	Tb	0.51934 0.54661 0.66054 1.70600
C 	C 	0.50110 0.76670 0.82960 0.34500
C 	C 	0.49160 0.25440 0.49360 0.46100
C 	C 	0.73290 0.50870 0.43940 0.40600
C 	C 	0.49930 0.88460 0.91320 -0.11700
C 	C 	0.49380 0.11990 0.49330 -0.15200
C 	C 	0.87050 0.50380 0.47190 -0.14700
C 	C 	0.54800 0.99450 0.89830 0.05400
C 	C 	0.60860 0.06020 0.47440 0.04900
C 	C 	0.92320 0.59720 0.55880 0.03200
C 	C 	0.59680 0.99930 0.79430 -0.08400
H 	H 	0.58960 0.92840 0.73570 0.07900
C 	C 	0.72370 0.11550 0.44730 -0.07600
H 	H 	0.72160 0.19460 0.44040 0.05900
C 	C 	0.85170 0.69690 0.61890 -0.07300
H 	H 	0.76660 0.70100 0.60000 0.04200
C 	C 	0.65100 0.10200 0.78120 -0.02000
H 	H 	0.68550 0.09960 0.71520 0.03800
C 	C 	0.83420 0.05810 0.43140 -0.03600
H 	H 	0.90820 0.09860 0.41760 0.04400
C 	C 	0.90440 0.78700 0.70370 -0.04500
H 	H 	0.85580 0.85210 0.74190 0.05100
C 	C 	0.65730 0.21540 0.86640 -0.03500
H 	H 	0.69370 0.28680 0.85570 0.02500
C 	C 	0.83790 0.93660 0.43560 -0.01600
H 	H 	0.91450 0.89630 0.42280 0.03600
C 	C 	0.03300 0.78160 0.73340 -0.01200
H 	H 	0.06820 0.84250 0.79240 0.04000
C 	C 	0.60860 0.21780 0.96480 -0.07300
H 	H 	0.61250 0.29220 0.01990 0.04900
C 	C 	0.73290 0.87690 0.45770 -0.09300
H 	H 	0.73800 0.79580 0.45920 0.06800
C 	C 	0.10580 0.68890 0.67740 -0.09900
H 	H 	0.19110 0.68810 0.69720 0.08300
C 	C 	0.55230 0.11010 0.98580 0.04100
C 	C 	0.61420 0.93580 0.47890 0.06000
C 	C 	0.05360 0.59210 0.58790 0.05600
O 	O 	0.60890 0.71860 0.80480 -0.42900
O 	O 	0.50690 0.33300 0.58420 -0.50000
O 	O 	0.64300 0.49480 0.49820 -0.54100
O 	O 	0.40180 0.71720 0.78280 -0.40200
O 	O 	0.47260 0.27560 0.40750 -0.45600
O 	O 	0.71150 0.51690 0.34800 -0.41800
