data_crystal

_cell_length_a 30.35220
_cell_length_b 30.35220
_cell_length_c 30.35220
_cell_angle_alpha 60.00000
_cell_angle_beta  60.00000
_cell_angle_gamma 60.00000

_symmetry_space_group_name_	'P 1'
_symmetry_space_group_name_H-M	'P 1'

loop_
_symmetry_equiv_pos_as_xyz
  x,y,z

loop_
_atom_site_label
_atom_site_type_symbol
_atom_site_fract_x
_atom_site_fract_y
_atom_site_fract_z
_atom_site_charge
Zn	Zn	0.22383 0.32851 0.22383 1.21700
Zn	Zn	0.32851 0.22383 0.22383 1.21800
Zn	Zn	0.22383 0.22383 0.22383 1.21800
Zn	Zn	0.22383 0.22383 0.32851 1.21800
Zn	Zn	0.67149 0.77617 0.77617 1.21800
Zn	Zn	0.77617 0.67149 0.77617 1.21800
Zn	Zn	0.77617 0.77617 0.77617 1.21800
Zn	Zn	0.77617 0.77617 0.67149 1.21800
H 	H 	0.95863 0.39745 0.18012 0.04900
H 	H 	0.46439 0.95766 0.39746 0.04900
H 	H 	0.96682 0.17704 0.45791 0.05000
H 	H 	0.40802 0.43821 0.17108 0.05200
H 	H 	0.18131 0.39758 0.46564 0.04900
H 	H 	0.40159 0.97565 0.17372 0.05100
H 	H 	0.53942 0.79897 0.09700 0.04400
H 	H 	0.58548 0.52802 0.08183 0.04600
H 	H 	0.81057 0.06613 0.52712 0.04700
H 	H 	0.57677 0.80163 0.53168 0.04500
H 	H 	0.83000 0.56929 0.01445 0.05200
H 	H 	0.80290 0.52975 0.08654 0.04500
H 	H 	0.80967 0.59491 0.06854 0.04700
H 	H 	0.52749 0.81149 0.59733 0.04800
H 	H 	0.58970 0.82945 0.56494 0.05200
H 	H 	0.80225 0.08829 0.57881 0.04600
H 	H 	0.82975 0.01512 0.58803 0.05300
H 	H 	0.52681 0.59139 0.07429 0.04600
H 	H 	0.58166 0.57455 0.01340 0.05200
H 	H 	0.03530 0.54039 0.60215 0.05000
H 	H 	0.03440 0.60200 0.54110 0.05000
H 	H 	0.09983 0.55156 0.55070 0.04400
H 	H 	0.55278 0.82682 0.02291 0.05000
H 	H 	0.60176 0.81678 0.04962 0.04800
H 	H 	0.17451 0.45146 0.40047 0.05000
H 	H 	0.20162 0.45701 0.43994 0.04400
H 	H 	0.46715 0.95255 0.18241 0.04800
H 	H 	0.43731 0.90227 0.20130 0.04400
H 	H 	0.90021 0.20208 0.45045 0.04300
H 	H 	0.96344 0.17831 0.39769 0.04900
H 	H 	0.42626 0.46665 0.19919 0.04400
H 	H 	0.47176 0.40118 0.18717 0.04700
H 	H 	0.90077 0.45455 0.20187 0.04300
H 	H 	0.97108 0.45405 0.17544 0.05000
H 	H 	0.39973 0.97186 0.45326 0.05000
H 	H 	0.44193 0.90095 0.45532 0.04400
H 	H 	0.12795 0.30104 0.12795 0.02900
H 	H 	0.06913 0.36235 0.06913 0.04800
H 	H 	0.30104 0.12795 0.44306 0.02900
H 	H 	0.35791 0.07166 0.49877 0.04700
H 	H 	0.12795 0.44306 0.12795 0.02900
H 	H 	0.07166 0.49877 0.07166 0.04700
H 	H 	0.44306 0.12795 0.30104 0.02900
H 	H 	0.49877 0.07166 0.35791 0.04700
H 	H 	0.12795 0.12795 0.44306 0.02900
H 	H 	0.06913 0.06913 0.49939 0.04800
H 	H 	0.30104 0.44306 0.12795 0.02900
H 	H 	0.35791 0.49877 0.07166 0.04800
H 	H 	0.12795 0.12795 0.30104 0.02900
H 	H 	0.06913 0.06913 0.36235 0.04800
H 	H 	0.44306 0.30104 0.12795 0.02900
H 	H 	0.49877 0.35791 0.07166 0.04800
H 	H 	0.12795 0.44306 0.30104 0.02900
H 	H 	0.07166 0.49877 0.35791 0.04700
H 	H 	0.30104 0.12795 0.12795 0.02900
H 	H 	0.35791 0.07166 0.07166 0.04700
H 	H 	0.12795 0.30104 0.44306 0.02900
H 	H 	0.06913 0.36235 0.49939 0.04800
H 	H 	0.44306 0.12795 0.12795 0.02900
H 	H 	0.49877 0.07166 0.07166 0.04800
H 	H 	0.69896 0.87205 0.87205 0.02900
H 	H 	0.64209 0.92834 0.92834 0.04700
H 	H 	0.87205 0.69896 0.55694 0.02900
H 	H 	0.92834 0.64209 0.50123 0.04700
H 	H 	0.55694 0.87205 0.87205 0.02900
H 	H 	0.50061 0.93087 0.93087 0.04800
H 	H 	0.87205 0.55694 0.69896 0.02900
H 	H 	0.92834 0.50123 0.64209 0.04700
H 	H 	0.87205 0.87205 0.55694 0.02900
H 	H 	0.93087 0.93087 0.50061 0.04800
H 	H 	0.55694 0.69896 0.87205 0.02900
H 	H 	0.50123 0.64209 0.92834 0.04800
H 	H 	0.87205 0.87205 0.69896 0.02900
H 	H 	0.92834 0.92834 0.64209 0.04800
H 	H 	0.69896 0.55694 0.87205 0.02900
H 	H 	0.64209 0.50123 0.92834 0.04800
H 	H 	0.55694 0.87205 0.69896 0.02900
H 	H 	0.50123 0.92834 0.64209 0.04800
H 	H 	0.87205 0.69896 0.87205 0.02900
H 	H 	0.92834 0.64209 0.92834 0.04800
H 	H 	0.69896 0.87205 0.55694 0.02900
H 	H 	0.64209 0.92834 0.50123 0.04800
H 	H 	0.87205 0.55694 0.87205 0.02900
H 	H 	0.93087 0.50061 0.93087 0.04800
H 	H 	0.85007 0.49666 0.15660 0.01600
H 	H 	0.49666 0.85007 0.49666 0.01600
H 	H 	0.85007 0.15660 0.49666 0.01600
H 	H 	0.49666 0.49666 0.15660 0.01700
H 	H 	0.15660 0.49666 0.49666 0.01600
H 	H 	0.49666 0.85007 0.15660 0.01600
C 	C 	0.16630 0.33370 0.16630 0.35400
C 	C 	0.13360 0.36640 0.13360 -0.14300
C 	C 	0.06490 0.43510 0.06490 0.06000
C 	C 	0.03280 0.46720 0.03280 -0.03700
C 	C 	0.33370 0.16630 0.33370 0.35400
C 	C 	0.36640 0.13360 0.36640 -0.14200
C 	C 	0.43510 0.06490 0.43510 0.06000
C 	C 	0.46720 0.03280 0.46720 -0.03600
C 	C 	0.16630 0.16630 0.33370 0.35400
C 	C 	0.13360 0.13360 0.36640 -0.14300
C 	C 	0.06490 0.06490 0.43510 0.05900
C 	C 	0.03280 0.03280 0.46720 -0.03700
C 	C 	0.33370 0.33370 0.16630 0.35400
C 	C 	0.36640 0.36640 0.13360 -0.14200
C 	C 	0.43510 0.43510 0.06490 0.06000
C 	C 	0.46720 0.46720 0.03280 -0.03700
C 	C 	0.16630 0.33370 0.33370 0.35400
C 	C 	0.13360 0.36640 0.36640 -0.14300
C 	C 	0.06490 0.43510 0.43510 0.06000
C 	C 	0.03280 0.46720 0.46720 -0.03700
C 	C 	0.33370 0.16630 0.16630 0.35400
C 	C 	0.36640 0.13360 0.13360 -0.14200
C 	C 	0.43510 0.06490 0.06490 0.06100
C 	C 	0.46720 0.03280 0.03280 -0.03700
C 	C 	0.66630 0.83370 0.83370 0.35400
C 	C 	0.63360 0.86640 0.86640 -0.14300
C 	C 	0.56490 0.93510 0.93510 0.05900
C 	C 	0.53280 0.96720 0.96720 -0.03600
C 	C 	0.83370 0.66630 0.66630 0.35400
C 	C 	0.86640 0.63360 0.63360 -0.14200
C 	C 	0.93510 0.56490 0.56490 0.06100
C 	C 	0.96720 0.53280 0.53280 -0.03700
C 	C 	0.83370 0.83370 0.66630 0.35400
C 	C 	0.86640 0.86640 0.63360 -0.14300
C 	C 	0.93510 0.93510 0.56490 0.05900
C 	C 	0.96720 0.96720 0.53280 -0.03700
C 	C 	0.66630 0.66630 0.83370 0.35400
C 	C 	0.63360 0.63360 0.86640 -0.14200
C 	C 	0.56490 0.56490 0.93510 0.05900
C 	C 	0.53280 0.53280 0.96720 -0.03500
C 	C 	0.66630 0.83370 0.66630 0.35400
C 	C 	0.63360 0.86640 0.63360 -0.14200
C 	C 	0.56490 0.93510 0.56490 0.06000
C 	C 	0.53280 0.96720 0.53280 -0.03700
C 	C 	0.83370 0.66630 0.83370 0.35400
C 	C 	0.86640 0.63360 0.86640 -0.14300
C 	C 	0.93510 0.56490 0.93510 0.05900
C 	C 	0.96720 0.53280 0.96720 -0.03600
C 	C 	0.11610 0.34650 0.11610 0.04600
C 	C 	0.08290 0.38070 0.08290 -0.08500
C 	C 	0.34650 0.11610 0.42130 0.04500
C 	C 	0.38070 0.08290 0.45350 -0.08400
C 	C 	0.11610 0.42130 0.11610 0.04500
C 	C 	0.08290 0.45350 0.08290 -0.08400
C 	C 	0.42130 0.11610 0.34650 0.04500
C 	C 	0.45350 0.08290 0.38070 -0.08400
C 	C 	0.11610 0.11610 0.42130 0.04600
C 	C 	0.08290 0.08290 0.45350 -0.08400
C 	C 	0.34650 0.42130 0.11610 0.04500
C 	C 	0.38070 0.45350 0.08290 -0.08500
C 	C 	0.11610 0.11610 0.34650 0.04600
C 	C 	0.08290 0.08290 0.38070 -0.08400
C 	C 	0.42130 0.34650 0.11610 0.04500
C 	C 	0.45350 0.38070 0.08290 -0.08400
C 	C 	0.11610 0.42130 0.34650 0.04500
C 	C 	0.08290 0.45350 0.38070 -0.08400
C 	C 	0.34650 0.11610 0.11610 0.04500
C 	C 	0.38070 0.08290 0.08290 -0.08500
C 	C 	0.11610 0.34650 0.42130 0.04600
C 	C 	0.08290 0.38070 0.45350 -0.08400
C 	C 	0.42130 0.11610 0.11610 0.04500
C 	C 	0.45350 0.08290 0.08290 -0.08400
C 	C 	0.65350 0.88390 0.88390 0.04500
C 	C 	0.61930 0.91710 0.91710 -0.08300
C 	C 	0.88390 0.65350 0.57870 0.04500
C 	C 	0.91710 0.61930 0.54650 -0.08400
C 	C 	0.57870 0.88390 0.88390 0.04500
C 	C 	0.54650 0.91710 0.91710 -0.08500
C 	C 	0.88390 0.57870 0.65350 0.04500
C 	C 	0.91710 0.54650 0.61930 -0.08400
C 	C 	0.88390 0.88390 0.57870 0.04600
C 	C 	0.91710 0.91710 0.54650 -0.08500
C 	C 	0.57870 0.65350 0.88390 0.04400
C 	C 	0.54650 0.61930 0.91710 -0.08400
C 	C 	0.88390 0.88390 0.65350 0.04500
C 	C 	0.91710 0.91710 0.61930 -0.08400
C 	C 	0.65350 0.57870 0.88390 0.04400
C 	C 	0.61930 0.54650 0.91710 -0.08400
C 	C 	0.57870 0.88390 0.65350 0.04500
C 	C 	0.54650 0.91710 0.61930 -0.08400
C 	C 	0.88390 0.65350 0.88390 0.04500
C 	C 	0.91710 0.61930 0.91710 -0.08400
C 	C 	0.65350 0.88390 0.57870 0.04400
C 	C 	0.61930 0.91710 0.54650 -0.08500
C 	C 	0.88390 0.57870 0.88390 0.04500
C 	C 	0.91710 0.54650 0.91710 -0.08500
C 	C 	0.05540 0.48340 0.97780 -0.02600
C 	C 	0.48340 0.05540 0.48340 -0.02700
C 	C 	0.97780 0.48340 0.05540 0.03600
C 	C 	0.94280 0.44280 0.17160 -0.08900
C 	C 	0.48340 0.97780 0.48340 0.03600
C 	C 	0.44280 0.94280 0.44280 -0.08900
C 	C 	0.05540 0.97780 0.48340 -0.02800
C 	C 	0.48340 0.48340 0.97780 -0.02600
C 	C 	0.97780 0.05540 0.48340 0.03500
C 	C 	0.94280 0.17160 0.44280 -0.08900
C 	C 	0.48340 0.48340 0.05540 0.03600
C 	C 	0.44280 0.44280 0.17160 -0.09000
C 	C 	0.05540 0.48340 0.48340 0.03600
C 	C 	0.17160 0.44280 0.44280 -0.08900
C 	C 	0.48340 0.97780 0.05540 0.03600
C 	C 	0.44280 0.94280 0.17160 -0.08900
C 	C 	0.97780 0.48340 0.48340 -0.02700
C 	C 	0.48340 0.05540 0.97780 -0.02600
C 	C 	0.51660 0.94460 0.02220 0.03500
C 	C 	0.55720 0.82840 0.05720 -0.08900
C 	C 	0.94460 0.51660 0.51660 -0.02700
C 	C 	0.51660 0.02220 0.94460 -0.02700
C 	C 	0.02220 0.51660 0.51660 0.03600
C 	C 	0.05720 0.55720 0.55720 -0.08900
C 	C 	0.02220 0.94460 0.51660 -0.02700
C 	C 	0.51660 0.51660 0.02220 0.03500
C 	C 	0.55720 0.55720 0.05720 -0.09000
C 	C 	0.94460 0.02220 0.51660 0.03600
C 	C 	0.82840 0.05720 0.55720 -0.09000
C 	C 	0.51660 0.51660 0.94460 -0.02800
C 	C 	0.51660 0.94460 0.51660 0.03600
C 	C 	0.55720 0.82840 0.55720 -0.09000
C 	C 	0.02220 0.51660 0.94460 -0.02800
C 	C 	0.51660 0.02220 0.51660 -0.02700
C 	C 	0.94460 0.51660 0.02220 0.03500
C 	C 	0.82840 0.55720 0.05720 -0.09000
C 	C 	0.88400 0.50000 0.11600 0.04800
C 	C 	0.50000 0.88400 0.50000 0.04800
C 	C 	0.88400 0.11600 0.50000 0.04800
C 	C 	0.50000 0.50000 0.11600 0.04700
C 	C 	0.11600 0.50000 0.50000 0.04800
C 	C 	0.50000 0.88400 0.11600 0.04800
N 	N 	0.94000 0.47300 0.11400 -0.10500
N 	N 	0.47300 0.94000 0.47300 -0.10400
N 	N 	0.94000 0.11400 0.47300 -0.10400
N 	N 	0.47300 0.47300 0.11400 -0.10400
N 	N 	0.11400 0.47300 0.47300 -0.10400
N 	N 	0.47300 0.94000 0.11400 -0.10400
N 	N 	0.52700 0.88600 0.06000 -0.10400
N 	N 	0.06000 0.52700 0.52700 -0.10400
N 	N 	0.52700 0.52700 0.06000 -0.10400
N 	N 	0.88600 0.06000 0.52700 -0.10400
N 	N 	0.52700 0.88600 0.52700 -0.10400
N 	N 	0.88600 0.52700 0.06000 -0.10400
O 	O 	0.18080 0.35740 0.18080 -0.49300
O 	O 	0.35740 0.18080 0.28100 -0.49300
O 	O 	0.18080 0.28100 0.18080 -0.49300
O 	O 	0.28100 0.18080 0.35740 -0.49300
O 	O 	0.18080 0.18080 0.28100 -0.49300
O 	O 	0.35740 0.28100 0.18080 -0.49300
O 	O 	0.18080 0.18080 0.35740 -0.49300
O 	O 	0.28100 0.35740 0.18080 -0.49300
O 	O 	0.18080 0.28100 0.35740 -0.49300
O 	O 	0.35740 0.18080 0.18080 -0.49300
O 	O 	0.18080 0.35740 0.28100 -0.49300
O 	O 	0.28100 0.18080 0.18080 -0.49300
O 	O 	0.64260 0.81920 0.81920 -0.49300
O 	O 	0.81920 0.64260 0.71900 -0.49300
O 	O 	0.71900 0.81920 0.81920 -0.49300
O 	O 	0.81920 0.71900 0.64260 -0.49300
O 	O 	0.81920 0.81920 0.71900 -0.49300
O 	O 	0.71900 0.64260 0.81920 -0.49300
O 	O 	0.81920 0.81920 0.64260 -0.49300
O 	O 	0.64260 0.71900 0.81920 -0.49300
O 	O 	0.71900 0.81920 0.64260 -0.49300
O 	O 	0.81920 0.64260 0.81920 -0.49300
O 	O 	0.64260 0.81920 0.71900 -0.49300
O 	O 	0.81920 0.71900 0.81920 -0.49300
O 	O 	0.25000 0.25000 0.25000 -0.95600
O 	O 	0.75000 0.75000 0.75000 -0.95600
H 	H 	0.10116 0.47035 0.95814 0.03300
H 	H 	0.47035 0.10116 0.47035 0.03300
H 	H 	0.10116 0.95814 0.47035 0.03300
H 	H 	0.47035 0.47035 0.95814 0.03300
H 	H 	0.95814 0.47035 0.47035 0.03300
H 	H 	0.47035 0.10116 0.95814 0.03300
H 	H 	0.89879 0.52988 0.52988 0.03300
H 	H 	0.52965 0.04186 0.89884 0.03300
H 	H 	0.04145 0.89879 0.52988 0.03300
H 	H 	0.52988 0.52988 0.89879 0.03400
H 	H 	0.04145 0.52988 0.89879 0.03400
H 	H 	0.52965 0.04186 0.52965 0.03300
