data_crystal

_cell_length_a 12.94600
_cell_length_b 17.32100
_cell_length_c 22.15300
_cell_angle_alpha 70.13000
_cell_angle_beta  76.08000
_cell_angle_gamma 73.31000

_symmetry_space_group_name_	'P 1'
_symmetry_space_group_name_H-M	'P 1'

loop_
_symmetry_equiv_pos_as_xyz
  x,y,z

loop_
_atom_site_label
_atom_site_type_symbol
_atom_site_fract_x
_atom_site_fract_y
_atom_site_fract_z
_atom_site_charge
Cd	Cd	0.16515 0.54865 0.01310 1.23200
Cd	Cd	0.17809 0.73405 0.09075 1.22500
Cd	Cd	0.17465 0.77685 0.24808 1.22100
Cd	Cd	0.17631 0.81187 0.40831 1.23000
Cd	Cd	0.16746 0.00526 0.48319 1.25200
Cl	Cl	0.29231 0.62030 0.03149 -0.61000
Cl	Cl	0.05532 0.83723 0.15491 -0.63000
Cl	Cl	0.27952 0.70458 0.34725 -0.60600
Cl	Cl	0.05536 0.91954 0.46810 -0.70600
N 	N 	0.13990 0.63600 0.52520 -0.09800
N 	N 	0.16310 0.71300 0.51100 -0.18300
N 	N 	0.16280 0.65360 0.61430 -0.16500
N 	N 	0.01680 0.62630 0.06500 -0.20400
N 	N 	0.01590 0.68980 0.08880 -0.18800
N 	N 	0.84740 0.68190 0.09780 -0.16600
N 	N 	0.18740 0.62420 0.19030 -0.19600
N 	N 	0.17370 0.64280 0.24740 -0.20000
N 	N 	0.17300 0.51040 0.27020 -0.16400
N 	N 	0.18090 0.90940 0.25050 -0.19700
N 	N 	0.17910 0.92530 0.30730 -0.18600
N 	N 	0.17950 0.04240 0.22800 -0.16400
N 	N 	0.01120 0.80280 0.38150 -0.19000
N 	N 	0.01170 0.79230 0.32220 -0.19900
N 	N 	0.84270 0.81810 0.37190 -0.16300
N 	N 	0.14090 0.91930 0.97950 -0.09100
N 	N 	0.15910 0.83250 0.99190 -0.19200
N 	N 	0.15830 0.89020 0.88820 -0.16400
C 	C 	0.14200 0.60320 0.58630 0.11600
H 	H 	0.13030 0.54960 0.60910 0.00200
C 	C 	0.17610 0.72220 0.56310 0.11600
H 	H 	0.19260 0.76970 0.56570 0.01100
C 	C 	0.16730 0.63880 0.68210 0.18700
C 	C 	0.12520 0.70380 0.70970 -0.19900
H 	H 	0.09600 0.75730 0.68420 0.12100
C 	C 	0.12580 0.69050 0.77440 0.09700
H 	H 	0.09610 0.73440 0.79300 0.01800
C 	C 	0.17140 0.61030 0.81180 -0.13600
C 	C 	0.21380 0.54520 0.78320 0.09500
H 	H 	0.24390 0.49160 0.80800 0.01800
C 	C 	0.21140 0.55980 0.71810 -0.20000
H 	H 	0.23960 0.51630 0.69900 0.10900
C 	C 	0.17260 0.59430 0.88300 0.33200
C 	C 	0.91520 0.62160 0.07120 0.09600
H 	H 	0.89300 0.58300 0.05920 0.01000
C 	C 	0.91450 0.72180 0.10820 0.10100
H 	H 	0.89120 0.76590 0.12680 0.00600
C 	C 	0.72990 0.70080 0.10780 0.21600
C 	C 	0.67220 0.70510 0.16680 -0.23900
H 	H 	0.70780 0.69500 0.20140 0.12000
C 	C 	0.55920 0.72470 0.17470 0.14500
H 	H 	0.51850 0.72890 0.21460 0.00600
C 	C 	0.50650 0.73790 0.12360 -0.19700
C 	C 	0.56830 0.72420 0.06760 0.15500
H 	H 	0.53370 0.72460 0.03520 0.00600
C 	C 	0.68030 0.70980 0.05740 -0.24200
H 	H 	0.72100 0.70630 0.01730 0.12800
C 	C 	0.38230 0.75760 0.13360 0.45800
C 	C 	0.18720 0.54520 0.20400 0.10900
H 	H 	0.19540 0.51670 0.17380 -0.00000
C 	C 	0.16560 0.57390 0.29470 0.11400
H 	H 	0.15620 0.56910 0.33870 -0.00300
C 	C 	0.16680 0.42470 0.30600 0.18700
C 	C 	0.19840 0.39040 0.36580 -0.20300
H 	H 	0.22030 0.42260 0.38440 0.11500
C 	C 	0.19710 0.30590 0.39870 0.10400
H 	H 	0.21990 0.28140 0.43910 0.01600
C 	C 	0.16280 0.25920 0.37230 -0.14300
C 	C 	0.12740 0.29580 0.31260 0.10200
H 	H 	0.10320 0.26420 0.29440 0.01300
C 	C 	0.12800 0.37930 0.28010 -0.20300
H 	H 	0.10220 0.40470 0.24060 0.11300
C 	C 	0.16430 0.16770 0.40720 0.33100
C 	C 	0.17870 0.00530 0.29300 0.10200
H 	H 	0.17790 0.03260 0.32280 0.00400
C 	C 	0.18010 0.98020 0.20350 0.11200
H 	H 	0.18000 0.98680 0.16010 -0.00200
C 	C 	0.17590 0.12970 0.19300 0.18700
C 	C 	0.11030 0.16880 0.14650 -0.20700
H 	H 	0.06840 0.13940 0.13780 0.11200
C 	C 	0.10670 0.25310 0.11240 0.10300
H 	H 	0.06250 0.28010 0.08040 0.01100
C 	C 	0.16800 0.29710 0.12540 -0.15200
C 	C 	0.23520 0.25500 0.17240 0.10000
H 	H 	0.27740 0.28380 0.18150 0.01700
C 	C 	0.24030 0.17080 0.20600 -0.20200
H 	H 	0.28650 0.14270 0.23690 0.11500
C 	C 	0.15980 0.39050 0.09040 0.34900
C 	C 	0.90740 0.80330 0.31780 0.10200
H 	H 	0.88290 0.80100 0.28250 0.00100
C 	C 	0.91180 0.81750 0.40980 0.11000
H 	H 	0.88990 0.82650 0.45050 0.01700
C 	C 	0.72500 0.83250 0.38650 0.19600
C 	C 	0.66910 0.88980 0.41920 -0.22300
H 	H 	0.70680 0.91780 0.43250 0.13100
C 	C 	0.55650 0.90620 0.43240 0.13300
H 	H 	0.51810 0.94510 0.45470 0.00100
C 	C 	0.50070 0.86400 0.41200 -0.17700
C 	C 	0.55840 0.80740 0.37770 0.12100
H 	H 	0.52090 0.78070 0.36290 0.01200
C 	C 	0.67210 0.78980 0.36490 -0.20900
H 	H 	0.71130 0.75080 0.34270 0.11000
C 	C 	0.37730 0.88360 0.42440 0.42800
C 	C 	0.14020 0.95040 0.91860 0.11800
H 	H 	0.12870 0.00780 0.89720 0.01900
C 	C 	0.16760 0.81780 0.93780 0.11000
H 	H 	0.17870 0.76450 0.93330 0.00300
C 	C 	0.16970 0.89850 0.82070 0.18300
C 	C 	0.10500 0.96660 0.78180 -0.19700
H 	H 	0.05340 0.00630 0.79950 0.11300
C 	C 	0.11910 0.97440 0.71600 0.11400
H 	H 	0.07880 0.02100 0.68880 0.00600
C 	C 	0.19200 0.91360 0.69080 -0.14500
C 	C 	0.25510 0.84490 0.73090 0.09800
H 	H 	0.30410 0.80370 0.71370 0.01700
C 	C 	0.24520 0.83760 0.79580 -0.19700
H 	H 	0.28850 0.79260 0.82240 0.11800
C 	C 	0.20580 0.91990 0.61950 0.34400
O 	O 	0.20250 0.51960 0.91680 -0.38700
O 	O 	0.14360 0.65480 0.90630 -0.35800
O 	O 	0.34140 0.75600 0.08880 -0.43600
O 	O 	0.33600 0.77290 0.18380 -0.46600
O 	O 	0.19730 0.13740 0.46150 -0.37000
O 	O 	0.13570 0.12480 0.38170 -0.34500
O 	O 	0.21420 0.42830 0.10360 -0.37700
O 	O 	0.09800 0.42470 0.04920 -0.40200
O 	O 	0.33330 0.82970 0.42310 -0.43700
O 	O 	0.33100 0.95350 0.43410 -0.43800
O 	O 	0.24420 0.85700 0.60020 -0.30000
O 	O 	0.17160 0.99370 0.58370 -0.39400
Cd	Cd	0.83485 0.45135 0.98690 1.23100
Cd	Cd	0.82191 0.26595 0.90925 1.22400
Cd	Cd	0.82535 0.22315 0.75192 1.22000
Cd	Cd	0.82369 0.18813 0.59169 1.22900
Cd	Cd	0.83254 0.99474 0.51681 1.25200
Cl	Cl	0.70769 0.37970 0.96851 -0.61000
Cl	Cl	0.94468 0.16277 0.84509 -0.63000
Cl	Cl	0.72048 0.29542 0.65275 -0.60600
Cl	Cl	0.94464 0.08046 0.53190 -0.70600
N 	N 	0.86010 0.36400 0.47480 -0.09800
N 	N 	0.83690 0.28700 0.48900 -0.18300
N 	N 	0.83720 0.34640 0.38570 -0.16500
N 	N 	0.98320 0.37370 0.93500 -0.20400
N 	N 	0.98410 0.31020 0.91120 -0.18800
N 	N 	0.15260 0.31810 0.90220 -0.16600
N 	N 	0.81260 0.37580 0.80970 -0.19600
N 	N 	0.82630 0.35720 0.75260 -0.20000
N 	N 	0.82700 0.48960 0.72980 -0.16400
N 	N 	0.81910 0.09060 0.74950 -0.19700
N 	N 	0.82090 0.07470 0.69270 -0.18600
N 	N 	0.82050 0.95760 0.77200 -0.16400
N 	N 	0.98880 0.19720 0.61850 -0.19000
N 	N 	0.98830 0.20770 0.67780 -0.19900
N 	N 	0.15730 0.18190 0.62810 -0.16300
N 	N 	0.85910 0.08070 0.02050 -0.09100
N 	N 	0.84090 0.16750 0.00810 -0.19200
N 	N 	0.84170 0.10980 0.11180 -0.16400
C 	C 	0.85800 0.39680 0.41370 0.11600
H 	H 	0.86970 0.45040 0.39090 0.00200
C 	C 	0.82390 0.27780 0.43690 0.11600
H 	H 	0.80740 0.23030 0.43430 0.01100
C 	C 	0.83270 0.36120 0.31790 0.18700
C 	C 	0.87480 0.29620 0.29030 -0.19900
H 	H 	0.90400 0.24270 0.31580 0.12100
C 	C 	0.87420 0.30950 0.22560 0.09700
H 	H 	0.90390 0.26560 0.20700 0.01800
C 	C 	0.82860 0.38970 0.18820 -0.13600
C 	C 	0.78620 0.45480 0.21680 0.09500
H 	H 	0.75610 0.50840 0.19200 0.01800
C 	C 	0.78860 0.44020 0.28190 -0.20000
H 	H 	0.76040 0.48370 0.30100 0.10900
C 	C 	0.82740 0.40570 0.11700 0.33200
C 	C 	0.08480 0.37840 0.92880 0.09600
H 	H 	0.10700 0.41700 0.94080 0.01000
C 	C 	0.08550 0.27820 0.89180 0.10100
H 	H 	0.10880 0.23410 0.87320 0.00600
C 	C 	0.27010 0.29920 0.89220 0.21600
C 	C 	0.32780 0.29490 0.83320 -0.23900
H 	H 	0.29220 0.30500 0.79860 0.12000
C 	C 	0.44080 0.27530 0.82530 0.14500
H 	H 	0.48150 0.27110 0.78540 0.00600
C 	C 	0.49350 0.26210 0.87640 -0.19700
C 	C 	0.43170 0.27580 0.93240 0.15500
H 	H 	0.46630 0.27540 0.96480 0.00600
C 	C 	0.31970 0.29020 0.94260 -0.24200
H 	H 	0.27900 0.29370 0.98270 0.12800
C 	C 	0.61770 0.24240 0.86640 0.45800
C 	C 	0.81280 0.45480 0.79600 0.10900
H 	H 	0.80460 0.48330 0.82620 -0.00000
C 	C 	0.83440 0.42610 0.70530 0.11400
H 	H 	0.84380 0.43090 0.66130 -0.00300
C 	C 	0.83320 0.57530 0.69400 0.18700
C 	C 	0.80160 0.60960 0.63420 -0.20300
H 	H 	0.77970 0.57740 0.61560 0.11500
C 	C 	0.80290 0.69410 0.60130 0.10400
H 	H 	0.78010 0.71860 0.56090 0.01600
C 	C 	0.83720 0.74080 0.62770 -0.14300
C 	C 	0.87260 0.70420 0.68740 0.10200
H 	H 	0.89680 0.73580 0.70560 0.01300
C 	C 	0.87200 0.62070 0.71990 -0.20300
H 	H 	0.89780 0.59530 0.75940 0.11300
C 	C 	0.83570 0.83230 0.59280 0.33100
C 	C 	0.82130 0.99470 0.70700 0.10200
H 	H 	0.82210 0.96740 0.67720 0.00400
C 	C 	0.81990 0.01980 0.79650 0.11200
H 	H 	0.82000 0.01320 0.83990 -0.00200
C 	C 	0.82410 0.87030 0.80700 0.18700
C 	C 	0.88970 0.83120 0.85350 -0.20700
H 	H 	0.93160 0.86060 0.86220 0.11200
C 	C 	0.89330 0.74690 0.88760 0.10300
H 	H 	0.93750 0.71990 0.91960 0.01100
C 	C 	0.83200 0.70290 0.87460 -0.15200
C 	C 	0.76480 0.74500 0.82760 0.10000
H 	H 	0.72260 0.71620 0.81850 0.01700
C 	C 	0.75970 0.82920 0.79400 -0.20200
H 	H 	0.71350 0.85730 0.76310 0.11500
C 	C 	0.84020 0.60950 0.90960 0.34900
C 	C 	0.09260 0.19670 0.68220 0.10200
H 	H 	0.11710 0.19900 0.71750 0.00100
C 	C 	0.08820 0.18250 0.59020 0.11000
H 	H 	0.11010 0.17350 0.54950 0.01700
C 	C 	0.27500 0.16750 0.61350 0.19600
C 	C 	0.33090 0.11020 0.58080 -0.22300
H 	H 	0.29320 0.08220 0.56750 0.13100
C 	C 	0.44350 0.09380 0.56760 0.13300
H 	H 	0.48190 0.05490 0.54530 0.00100
C 	C 	0.49930 0.13600 0.58800 -0.17700
C 	C 	0.44160 0.19260 0.62230 0.12100
H 	H 	0.47910 0.21930 0.63710 0.01200
C 	C 	0.32790 0.21020 0.63510 -0.20900
H 	H 	0.28870 0.24920 0.65730 0.11000
C 	C 	0.62270 0.11640 0.57560 0.42800
C 	C 	0.85980 0.04960 0.08140 0.11800
H 	H 	0.87130 0.99220 0.10280 0.01900
C 	C 	0.83240 0.18220 0.06220 0.11000
H 	H 	0.82130 0.23550 0.06670 0.00300
C 	C 	0.83030 0.10150 0.17930 0.18300
C 	C 	0.89500 0.03340 0.21820 -0.19700
H 	H 	0.94660 0.99370 0.20050 0.11300
C 	C 	0.88090 0.02560 0.28400 0.11400
H 	H 	0.92120 0.97900 0.31120 0.00600
C 	C 	0.80800 0.08640 0.30920 -0.14500
C 	C 	0.74490 0.15510 0.26910 0.09800
H 	H 	0.69590 0.19630 0.28630 0.01700
C 	C 	0.75480 0.16240 0.20420 -0.19700
H 	H 	0.71150 0.20740 0.17760 0.11800
C 	C 	0.79420 0.08010 0.38050 0.34400
O 	O 	0.79750 0.48040 0.08320 -0.38700
O 	O 	0.85640 0.34520 0.09370 -0.35800
O 	O 	0.65860 0.24400 0.91120 -0.43600
O 	O 	0.66400 0.22710 0.81620 -0.46600
O 	O 	0.80270 0.86260 0.53850 -0.37000
O 	O 	0.86430 0.87520 0.61830 -0.34500
O 	O 	0.78580 0.57170 0.89640 -0.37700
O 	O 	0.90200 0.57530 0.95080 -0.40200
O 	O 	0.66670 0.17030 0.57690 -0.43700
O 	O 	0.66900 0.04650 0.56590 -0.43800
O 	O 	0.75580 0.14300 0.39980 -0.30000
O 	O 	0.82840 0.00630 0.41630 -0.39400
