data_crystal

_cell_length_a 14.42110
_cell_length_b 12.11810
_cell_length_c 14.06920
_cell_angle_alpha 90.00000
_cell_angle_beta  90.00000
_cell_angle_gamma 90.00000

_symmetry_space_group_name_	'P 1'
_symmetry_space_group_name_H-M	'P 1'

loop_
_symmetry_equiv_pos_as_xyz
  x,y,z

loop_
_atom_site_label
_atom_site_type_symbol
_atom_site_fract_x
_atom_site_fract_y
_atom_site_fract_z
_atom_site_charge
S 	S 	0.16309 0.86626 0.18859 0.33500
O 	O 	0.22140 0.87900 0.09650 -0.37500
O 	O 	0.22390 0.90440 0.26650 -0.18500
O 	O 	0.09170 0.95730 0.17380 -0.34900
S 	S 	0.16309 0.36626 0.68859 0.33100
O 	O 	0.22140 0.37900 0.59650 -0.38800
O 	O 	0.22390 0.40440 0.76650 -0.22300
O 	O 	0.09170 0.45730 0.67380 -0.41000
S 	S 	0.66309 0.86626 0.68859 0.36400
O 	O 	0.72140 0.87900 0.59650 -0.34900
O 	O 	0.72390 0.90440 0.76650 -0.15400
O 	O 	0.59170 0.95730 0.67380 -0.30600
S 	S 	0.66309 0.36626 0.18859 0.35200
O 	O 	0.72140 0.37900 0.09650 -0.38500
O 	O 	0.72390 0.40440 0.26650 -0.20400
O 	O 	0.59170 0.45730 0.17380 -0.37600
S 	S 	0.83691 0.13374 0.18859 0.39300
O 	O 	0.77860 0.12100 0.09650 -0.41700
O 	O 	0.77610 0.09560 0.26650 -0.24800
O 	O 	0.90830 0.04270 0.17380 -0.38000
S 	S 	0.83691 0.63374 0.68859 0.40300
O 	O 	0.77860 0.62100 0.59650 -0.38200
O 	O 	0.77610 0.59560 0.76650 -0.20000
O 	O 	0.90830 0.54270 0.67380 -0.32600
S 	S 	0.33691 0.13374 0.68859 0.37100
O 	O 	0.27860 0.12100 0.59650 -0.42100
O 	O 	0.27610 0.09560 0.76650 -0.27000
O 	O 	0.40830 0.04270 0.67380 -0.43100
S 	S 	0.33691 0.63374 0.18859 0.37600
O 	O 	0.27860 0.62100 0.09650 -0.40700
O 	O 	0.27610 0.59560 0.26650 -0.23400
O 	O 	0.40830 0.54270 0.17380 -0.38700
S 	S 	0.41309 0.38374 0.43859 0.36500
O 	O 	0.47140 0.37100 0.34650 -0.39700
O 	O 	0.47390 0.34560 0.51650 -0.22600
O 	O 	0.34170 0.29270 0.42380 -0.39600
S 	S 	0.41309 0.88374 0.93859 0.46700
O 	O 	0.47140 0.87100 0.84650 -0.35000
O 	O 	0.47390 0.84560 0.01650 -0.23200
O 	O 	0.34170 0.79270 0.92380 -0.36900
S 	S 	0.91309 0.38374 0.93859 0.44300
O 	O 	0.97140 0.37100 0.84650 -0.33400
O 	O 	0.97390 0.34560 0.01650 -0.21600
O 	O 	0.84170 0.29270 0.92380 -0.37300
S 	S 	0.91309 0.88374 0.43859 0.44800
O 	O 	0.97140 0.87100 0.34650 -0.28800
O 	O 	0.97390 0.84560 0.51650 -0.14900
O 	O 	0.84170 0.79270 0.42380 -0.36300
S 	S 	0.08691 0.11626 0.43859 0.28600
O 	O 	0.02860 0.12900 0.34650 -0.45700
O 	O 	0.02610 0.15440 0.51650 -0.28500
O 	O 	0.15830 0.20730 0.42380 -0.39200
S 	S 	0.08691 0.61626 0.93859 0.38500
O 	O 	0.02860 0.62900 0.84650 -0.42500
O 	O 	0.02610 0.65440 0.01650 -0.28900
O 	O 	0.15830 0.70730 0.92380 -0.36400
S 	S 	0.58691 0.11626 0.93859 0.36200
O 	O 	0.52860 0.12900 0.84650 -0.41000
O 	O 	0.52610 0.15440 0.01650 -0.27600
O 	O 	0.65830 0.20730 0.92380 -0.36900
S 	S 	0.58691 0.61626 0.43859 0.36500
O 	O 	0.52860 0.62900 0.34650 -0.37600
O 	O 	0.52610 0.65440 0.51650 -0.20800
O 	O 	0.65830 0.70730 0.42380 -0.35800
Zn	Zn	0.25000 0.75000 0.01900 1.22100
Zn	Zn	0.25000 0.25000 0.51900 1.22500
Zn	Zn	0.75000 0.25000 0.01900 1.22000
Zn	Zn	0.75000 0.75000 0.51900 1.23500
Zn	Zn	0.50000 0.50000 0.26900 1.23000
Zn	Zn	0.50000 0.00000 0.76900 1.19100
Zn	Zn	0.00000 0.00000 0.26900 1.15000
Zn	Zn	0.00000 0.50000 0.76900 1.19100
