data_crystal

_cell_length_a 7.15990
_cell_length_b 39.15900
_cell_length_c 9.71270
_cell_angle_alpha 90.00000
_cell_angle_beta  90.00000
_cell_angle_gamma 90.00000

_symmetry_space_group_name_	'P 1'
_symmetry_space_group_name_H-M	'P 1'

loop_
_symmetry_equiv_pos_as_xyz
  x,y,z

loop_
_atom_site_label
_atom_site_type_symbol
_atom_site_fract_x
_atom_site_fract_y
_atom_site_fract_z
_atom_site_charge
C 	C 	0.09490 0.12430 0.69260 0.22300
C 	C 	0.07080 0.15496 0.62610 -0.26500
H 	H 	0.03280 0.15580 0.53460 0.11100
C 	C 	0.10550 0.18500 0.70130 0.20800
C 	C 	0.16170 0.18410 0.83720 -0.26900
H 	H 	0.18470 0.20410 0.88560 0.12000
C 	C 	0.18300 0.15240 0.89970 0.21300
C 	C 	0.14970 0.12260 0.82950 -0.26900
H 	H 	0.16380 0.10160 0.87300 0.13900
C 	C 	0.11170 0.06110 0.66440 0.01100
H 	H 	0.19530 0.05620 0.73500 0.03900
C 	C 	0.02370 0.03850 0.58250 0.00800
H 	H 	0.03350 0.01490 0.58820 0.03000
C 	C 	0.93870 0.08870 0.51460 0.10400
H 	H 	0.88370 0.10640 0.46570 -0.02600
C 	C 	0.09450 0.22140 0.48890 -0.00900
H 	H 	0.10620 0.20480 0.42120 -0.00200
C 	C 	0.07780 0.25590 0.47120 -0.01200
H 	H 	0.07460 0.26700 0.38650 0.02300
C 	C 	0.07320 0.24720 0.69180 0.10000
H 	H 	0.06720 0.25070 0.78640 -0.03900
C 	C 	0.19300 0.12380 0.12990 0.01200
H 	H 	0.12060 0.10490 0.10830 0.03300
C 	C 	0.27070 0.13040 0.25110 -0.01500
H 	H 	0.26190 0.11670 0.32890 0.03000
C 	C 	0.34430 0.17250 0.11260 0.07900
H 	H 	0.39370 0.19260 0.07730 -0.02900
C 	C 	0.10360 0.38020 0.26470 -0.08500
C 	C 	0.09850 0.41470 0.24800 0.01400
H 	H 	0.06110 0.42830 0.32140 0.01900
C 	C 	0.14780 0.43020 0.12430 -0.05700
C 	C 	0.19240 0.40960 0.01120 -0.04800
C 	C 	0.19410 0.37490 0.03110 -0.04000
H 	H 	0.22350 0.36100 0.95640 0.03600
C 	C 	0.15500 0.35940 0.15500 -0.00700
H 	H 	0.16280 0.33580 0.16520 0.03900
C 	C 	0.05290 0.36490 0.40520 0.33300
C 	C 	0.13770 0.46960 0.12450 0.33100
C 	C 	0.23300 0.42360 0.86900 0.32000
Co	Co	0.05255 0.32250 0.61794 1.09600
N 	N 	0.91530 0.05644 0.48750 -0.28000
N 	N 	0.05340 0.09274 0.62300 -0.15300
N 	N 	0.06630 0.27200 0.59880 -0.27200
N 	N 	0.08990 0.21670 0.63280 -0.16400
N 	N 	0.36660 0.16090 0.24350 -0.26500
N 	N 	0.23860 0.14993 0.04250 -0.15400
O 	O 	0.06470 0.33338 0.41950 -0.45700
O 	O 	0.00470 0.38437 0.49960 -0.36400
O 	O 	0.28510 0.48642 0.12390 -0.47000
O 	O 	0.98010 0.48163 0.13410 -0.30900
O 	O 	0.21560 0.45480 0.85190 -0.46300
O 	O 	0.27040 0.40295 0.77370 -0.36400
Zn	Zn	0.74231 0.03567 0.34774 1.18900
C 	C 	0.40510 0.87570 0.19260 0.22700
C 	C 	0.42920 0.84504 0.12610 -0.26800
H 	H 	0.46720 0.84420 0.03460 0.11100
C 	C 	0.39450 0.81500 0.20130 0.21200
C 	C 	0.33830 0.81590 0.33720 -0.27200
H 	H 	0.31530 0.79590 0.38560 0.12200
C 	C 	0.31700 0.84760 0.39970 0.22000
C 	C 	0.35030 0.87740 0.32950 -0.27200
H 	H 	0.33620 0.89840 0.37300 0.14100
C 	C 	0.38830 0.93890 0.16440 0.01500
H 	H 	0.30470 0.94380 0.23500 0.04000
C 	C 	0.47630 0.96150 0.08250 -0.00200
H 	H 	0.46650 0.98510 0.08820 0.03100
C 	C 	0.56130 0.91130 0.01460 0.13400
H 	H 	0.61630 0.89360 0.96570 -0.03900
C 	C 	0.40550 0.77860 0.98890 -0.00900
H 	H 	0.39380 0.79520 0.92120 -0.00100
C 	C 	0.42220 0.74410 0.97120 -0.01000
H 	H 	0.42540 0.73300 0.88650 0.02400
C 	C 	0.42680 0.75280 0.19180 0.10200
H 	H 	0.43280 0.74930 0.28640 -0.03800
C 	C 	0.30700 0.87620 0.62990 0.01300
H 	H 	0.37940 0.89510 0.60830 0.03000
C 	C 	0.22930 0.86960 0.75110 -0.01400
H 	H 	0.23810 0.88330 0.82890 0.03100
C 	C 	0.15570 0.82750 0.61260 0.08200
H 	H 	0.10630 0.80740 0.57730 -0.02600
C 	C 	0.39640 0.61980 0.76470 -0.08200
C 	C 	0.40150 0.58530 0.74800 0.01700
H 	H 	0.43890 0.57170 0.82140 0.02200
C 	C 	0.35220 0.56980 0.62430 -0.06100
C 	C 	0.30760 0.59040 0.51120 -0.04200
C 	C 	0.30590 0.62510 0.53110 -0.03200
H 	H 	0.27650 0.63900 0.45640 0.03300
C 	C 	0.34500 0.64060 0.65500 -0.00900
H 	H 	0.33720 0.66420 0.66520 0.04200
C 	C 	0.44710 0.63510 0.90520 0.33200
C 	C 	0.36230 0.53040 0.62450 0.35700
C 	C 	0.26700 0.57640 0.36900 0.31500
Co	Co	0.44745 0.67750 0.11794 1.09900
N 	N 	0.58470 0.94356 0.98750 -0.28100
N 	N 	0.44660 0.90726 0.12300 -0.16100
N 	N 	0.43370 0.72800 0.09880 -0.27100
N 	N 	0.41010 0.78330 0.13280 -0.16300
N 	N 	0.13340 0.83910 0.74350 -0.26000
N 	N 	0.26140 0.85007 0.54250 -0.15600
O 	O 	0.43530 0.66662 0.91950 -0.45200
O 	O 	0.49530 0.61563 0.99960 -0.35400
O 	O 	0.21490 0.51358 0.62390 -0.47800
O 	O 	0.51990 0.51837 0.63410 -0.32800
O 	O 	0.28440 0.54520 0.35190 -0.46300
O 	O 	0.22960 0.59705 0.27370 -0.36400
Zn	Zn	0.75769 0.96433 0.84774 1.18800
C 	C 	0.90510 0.62430 0.80740 0.22500
C 	C 	0.92920 0.65496 0.87390 -0.26800
H 	H 	0.96720 0.65580 0.96540 0.11100
C 	C 	0.89450 0.68500 0.79870 0.20900
C 	C 	0.83830 0.68410 0.66280 -0.27100
H 	H 	0.81530 0.70410 0.61440 0.12100
C 	C 	0.81700 0.65240 0.60030 0.21700
C 	C 	0.85030 0.62260 0.67050 -0.27200
H 	H 	0.83620 0.60160 0.62700 0.14000
C 	C 	0.88830 0.56110 0.83560 0.00900
H 	H 	0.80470 0.55620 0.76500 0.04100
C 	C 	0.97630 0.53850 0.91750 0.01300
H 	H 	0.96650 0.51490 0.91180 0.02900
C 	C 	0.06130 0.58870 0.98540 0.12300
H 	H 	0.11630 0.60640 0.03430 -0.03700
C 	C 	0.90550 0.72140 0.01110 -0.01100
H 	H 	0.89380 0.70480 0.07880 -0.00200
C 	C 	0.92220 0.75590 0.02880 -0.01000
H 	H 	0.92540 0.76700 0.11350 0.02200
C 	C 	0.92680 0.74720 0.80820 0.10000
H 	H 	0.93280 0.75070 0.71360 -0.03900
C 	C 	0.80700 0.62380 0.37010 0.01100
H 	H 	0.87940 0.60490 0.39170 0.03200
C 	C 	0.72930 0.63040 0.24890 -0.01500
H 	H 	0.73810 0.61670 0.17110 0.02900
C 	C 	0.65570 0.67250 0.38740 0.07900
H 	H 	0.60630 0.69260 0.42270 -0.02900
C 	C 	0.89640 0.88020 0.23530 -0.08200
C 	C 	0.90150 0.91470 0.25200 0.01200
H 	H 	0.93890 0.92830 0.17860 0.02000
C 	C 	0.85220 0.93020 0.37570 -0.05600
C 	C 	0.80760 0.90960 0.48880 -0.04600
C 	C 	0.80590 0.87490 0.46890 -0.03100
H 	H 	0.77650 0.86100 0.54360 0.03100
C 	C 	0.84500 0.85940 0.34500 -0.01200
H 	H 	0.83720 0.83580 0.33480 0.04100
C 	C 	0.94710 0.86490 0.09480 0.33100
C 	C 	0.86230 0.96960 0.37550 0.33200
C 	C 	0.76700 0.92360 0.63100 0.31700
Co	Co	0.94745 0.82250 0.88206 1.09400
N 	N 	0.08470 0.55644 0.01250 -0.28800
N 	N 	0.94660 0.59274 0.87700 -0.15600
N 	N 	0.93370 0.77200 0.90120 -0.27300
N 	N 	0.91010 0.71670 0.86720 -0.16400
N 	N 	0.63340 0.66090 0.25650 -0.26500
N 	N 	0.76140 0.64993 0.45750 -0.15600
O 	O 	0.93530 0.83338 0.08050 -0.45500
O 	O 	0.99530 0.88437 0.00040 -0.36100
O 	O 	0.71490 0.98642 0.37610 -0.46900
O 	O 	0.01990 0.98163 0.36590 -0.30800
O 	O 	0.78440 0.95480 0.64810 -0.46500
O 	O 	0.72960 0.90295 0.72630 -0.36400
Zn	Zn	0.25769 0.53567 0.15226 1.18800
C 	C 	0.59490 0.37570 0.30740 0.22400
C 	C 	0.57080 0.34504 0.37390 -0.26600
H 	H 	0.53280 0.34420 0.46540 0.10900
C 	C 	0.60550 0.31500 0.29870 0.21000
C 	C 	0.66170 0.31590 0.16280 -0.27000
H 	H 	0.68470 0.29590 0.11440 0.12100
C 	C 	0.68300 0.34760 0.10030 0.21600
C 	C 	0.64970 0.37740 0.17050 -0.26900
H 	H 	0.66380 0.39840 0.12700 0.13900
C 	C 	0.61170 0.43890 0.33560 0.01700
H 	H 	0.69530 0.44380 0.26500 0.03800
C 	C 	0.52370 0.46150 0.41750 -0.00900
H 	H 	0.53350 0.48510 0.41180 0.03100
C 	C 	0.43870 0.41130 0.48540 0.11800
H 	H 	0.38370 0.39360 0.53430 -0.02900
C 	C 	0.59450 0.27860 0.51110 -0.00700
H 	H 	0.60620 0.29520 0.57880 -0.00200
C 	C 	0.57780 0.24410 0.52880 -0.01100
H 	H 	0.57460 0.23300 0.61350 0.02500
C 	C 	0.57320 0.25280 0.30820 0.10200
H 	H 	0.56720 0.24930 0.21360 -0.03700
C 	C 	0.69300 0.37620 0.87010 0.01300
H 	H 	0.62060 0.39510 0.89170 0.03100
C 	C 	0.77070 0.36960 0.74890 -0.01400
H 	H 	0.76190 0.38330 0.67110 0.03300
C 	C 	0.84430 0.32750 0.88740 0.08200
H 	H 	0.89370 0.30740 0.92270 -0.02600
C 	C 	0.60360 0.11980 0.73530 -0.08400
C 	C 	0.59850 0.08530 0.75200 0.01900
H 	H 	0.56110 0.07170 0.67860 0.02100
C 	C 	0.64780 0.06980 0.87570 -0.06300
C 	C 	0.69240 0.09040 0.98880 -0.04400
C 	C 	0.69410 0.12510 0.96890 -0.04100
H 	H 	0.72350 0.13900 0.04360 0.03800
C 	C 	0.65500 0.14060 0.84500 -0.00400
H 	H 	0.66280 0.16420 0.83480 0.04000
C 	C 	0.55290 0.13510 0.59480 0.33300
C 	C 	0.63770 0.03040 0.87550 0.35600
C 	C 	0.73300 0.07640 0.13100 0.31900
Co	Co	0.55255 0.17750 0.38206 1.10000
N 	N 	0.41530 0.44356 0.51250 -0.27300
N 	N 	0.55340 0.40726 0.37700 -0.15900
N 	N 	0.56630 0.22800 0.40120 -0.27000
N 	N 	0.58990 0.28330 0.36720 -0.16400
N 	N 	0.86660 0.33910 0.75650 -0.26000
N 	N 	0.73860 0.35007 0.95750 -0.15400
O 	O 	0.56470 0.16662 0.58050 -0.45300
O 	O 	0.50470 0.11563 0.50040 -0.35700
O 	O 	0.78510 0.01358 0.87610 -0.48000
O 	O 	0.48010 0.01837 0.86590 -0.33000
O 	O 	0.71560 0.04520 0.14810 -0.46200
O 	O 	0.77040 0.09705 0.22630 -0.36300
Zn	Zn	0.24231 0.46433 0.65226 1.18900
