data_crystal

_cell_length_a 28.12400
_cell_length_b 20.00700
_cell_length_c 16.21400
_cell_angle_alpha 90.00000
_cell_angle_beta  114.09600
_cell_angle_gamma 90.00000

_symmetry_space_group_name_	'P 1'
_symmetry_space_group_name_H-M	'P 1'

loop_
_symmetry_equiv_pos_as_xyz
  x,y,z

loop_
_atom_site_label
_atom_site_type_symbol
_atom_site_fract_x
_atom_site_fract_y
_atom_site_fract_z
_atom_site_charge
Cu	Cu	0.65362 0.79801 0.17837 0.90000
O 	O 	0.60320 0.86690 0.11510 -0.44200
O 	O 	0.63510 0.94200 0.22580 -0.39200
O 	O 	0.61520 0.06690 0.08690 -0.40000
O 	O 	0.58270 0.14190 0.15100 -0.46500
C 	C 	0.60040 0.92130 0.15230 0.35700
C 	C 	0.55250 0.96290 0.10300 -0.20900
H 	H 	0.54800 0.96730 0.04060 0.08500
H 	H 	0.52260 0.93880 0.10290 0.06800
C 	C 	0.58520 0.08250 0.12160 0.38700
C 	C 	0.55240 0.03160 0.13990 -0.24900
H 	H 	0.56370 0.02800 0.20480 0.09000
H 	H 	0.51670 0.04770 0.11530 0.08500
Cu	Cu	0.62407 0.21808 0.14752 0.86300
Cu	Cu	0.63713 0.70164 0.50471 0.91800
Cu	Cu	0.64652 0.70584 0.31356 0.89500
O 	O 	0.63430 0.79910 0.28310 -0.64100
H 	H 	0.59790 0.81200 0.26630 0.14000
O 	O 	0.60040 0.69660 0.37480 -0.62100
H 	H 	0.56640 0.71880 0.34740 0.13100
Cu	Cu	0.68416 0.86997 0.35288 0.91900
Cu	Cu	0.76186 0.75585 0.30317 0.90800
O 	O 	0.72610 0.84010 0.29010 -0.60900
H 	H 	0.74210 0.87670 0.27030 0.14600
O 	O 	0.79760 0.67140 0.33130 -0.60600
H 	H 	0.78460 0.63760 0.28360 0.15000
Cu	Cu	0.71588 0.59659 0.46100 0.90700
Cu	Cu	0.67206 0.86345 0.54477 0.92700
O 	O 	0.64530 0.89720 0.42370 -0.69000
H 	H 	0.61250 0.90140 0.39600 0.24500
Cu	Cu	0.69746 0.99899 0.46872 0.80300
O 	O 	0.75850 0.76480 0.15670 -0.40200
O 	O 	0.67380 0.78760 0.07650 -0.44000
C 	C 	0.71810 0.77020 0.08350 0.31600
C 	C 	0.72450 0.76020 0.99780 -0.14600
H 	H 	0.69940 0.72680 0.96280 0.05800
H 	H 	0.71510 0.80170 0.96400 0.04800
O 	O 	0.69030 0.71660 0.24650 -0.63500
H 	H 	0.68810 0.67850 0.20700 0.13600
O 	O 	0.66090 0.61110 0.34070 -0.65800
H 	H 	0.66420 0.58460 0.29240 0.12400
O 	O 	0.77240 0.56680 0.42860 -0.54600
O 	O 	0.65710 0.60740 0.49590 -0.62600
H 	H 	0.65810 0.57830 0.54520 0.14000
O 	O 	0.61700 0.79270 0.52030 -0.61900
H 	H 	0.58220 0.80590 0.47710 0.14900
O 	O 	0.66730 0.70500 0.63820 -0.63600
H 	H 	0.66260 0.66390 0.66680 0.14100
O 	O 	0.73540 0.93790 0.42170 -0.65100
H 	H 	0.75240 0.96030 0.38710 0.12700
Cu	Cu	0.60104 0.58484 0.37303 0.84200
O 	O 	0.55230 0.55010 0.42120 -0.47000
C 	C 	0.50240 0.54170 0.50500 -0.21600
H 	H 	0.46770 0.55950 0.47210 0.06900
H 	H 	0.51180 0.55180 0.56840 0.08000
C 	C 	0.54000 0.58300 0.47500 0.33300
O 	O 	0.55150 0.63980 0.51400 -0.38100
O 	O 	0.73870 0.81360 0.50380 -0.44300
O 	O 	0.70300 0.75990 0.48650 -0.36900
O 	O 	0.71290 0.71000 0.46930 -0.37900
Cu	Cu	0.15362 0.29801 0.17837 0.90000
O 	O 	0.10320 0.36690 0.11510 -0.44100
O 	O 	0.13510 0.44200 0.22580 -0.39200
O 	O 	0.11520 0.56690 0.08690 -0.40000
O 	O 	0.08270 0.64190 0.15100 -0.46400
C 	C 	0.10040 0.42130 0.15230 0.35700
C 	C 	0.05250 0.46290 0.10300 -0.21000
H 	H 	0.04800 0.46730 0.04060 0.08600
H 	H 	0.02260 0.43880 0.10290 0.06900
C 	C 	0.08520 0.58250 0.12160 0.38700
C 	C 	0.05240 0.53160 0.13990 -0.24900
H 	H 	0.06370 0.52800 0.20480 0.09000
H 	H 	0.01670 0.54770 0.11530 0.08600
Cu	Cu	0.12407 0.71808 0.14752 0.86400
Cu	Cu	0.13713 0.20164 0.50471 0.91800
Cu	Cu	0.14652 0.20584 0.31356 0.89500
O 	O 	0.13430 0.29910 0.28310 -0.64100
H 	H 	0.09790 0.31200 0.26630 0.14100
O 	O 	0.10040 0.19660 0.37480 -0.62100
H 	H 	0.06640 0.21880 0.34740 0.13100
Cu	Cu	0.18416 0.36997 0.35288 0.91900
Cu	Cu	0.26186 0.25585 0.30317 0.90800
O 	O 	0.22610 0.34010 0.29010 -0.60900
H 	H 	0.24210 0.37670 0.27030 0.14600
O 	O 	0.29760 0.17140 0.33130 -0.60600
H 	H 	0.28460 0.13760 0.28360 0.15000
Cu	Cu	0.21588 0.09659 0.46100 0.90700
Cu	Cu	0.17206 0.36345 0.54477 0.92700
O 	O 	0.14530 0.39720 0.42370 -0.69000
H 	H 	0.11250 0.40140 0.39600 0.24500
Cu	Cu	0.19746 0.49899 0.46872 0.80300
O 	O 	0.25850 0.26480 0.15670 -0.40200
O 	O 	0.17380 0.28760 0.07650 -0.44000
C 	C 	0.21810 0.27020 0.08350 0.31900
C 	C 	0.22450 0.26020 0.99780 -0.15200
H 	H 	0.19940 0.22680 0.96280 0.06000
H 	H 	0.21510 0.30170 0.96400 0.04900
O 	O 	0.19030 0.21660 0.24650 -0.63500
H 	H 	0.18810 0.17850 0.20700 0.13600
O 	O 	0.16090 0.11110 0.34070 -0.65800
H 	H 	0.16420 0.08460 0.29240 0.12500
O 	O 	0.27240 0.06680 0.42860 -0.54600
O 	O 	0.15710 0.10740 0.49590 -0.62600
H 	H 	0.15810 0.07830 0.54520 0.14000
O 	O 	0.11700 0.29270 0.52030 -0.61900
H 	H 	0.08220 0.30590 0.47710 0.15000
O 	O 	0.16730 0.20500 0.63820 -0.63600
H 	H 	0.16260 0.16390 0.66680 0.14100
O 	O 	0.23540 0.43790 0.42170 -0.65100
H 	H 	0.25240 0.46030 0.38710 0.12700
Cu	Cu	0.10104 0.08484 0.37303 0.84200
O 	O 	0.05230 0.05010 0.42120 -0.46900
C 	C 	0.00240 0.04170 0.50500 -0.20600
H 	H 	0.96770 0.05950 0.47210 0.06500
H 	H 	0.01180 0.05180 0.56840 0.07800
C 	C 	0.04000 0.08300 0.47500 0.33000
O 	O 	0.05150 0.13980 0.51400 -0.38000
O 	O 	0.23870 0.31360 0.50380 -0.44300
O 	O 	0.20300 0.25990 0.48650 -0.36900
O 	O 	0.21290 0.21000 0.46930 -0.37900
Cu	Cu	0.34638 0.79801 0.32163 0.90000
O 	O 	0.39680 0.86690 0.38490 -0.43900
O 	O 	0.36490 0.94200 0.27420 -0.39300
O 	O 	0.38480 0.06690 0.41310 -0.39700
O 	O 	0.41730 0.14190 0.34900 -0.46400
C 	C 	0.39960 0.92130 0.34770 0.35900
C 	C 	0.44750 0.96290 0.39700 -0.21200
H 	H 	0.45200 0.96730 0.45940 0.09100
H 	H 	0.47740 0.93880 0.39710 0.07100
C 	C 	0.41480 0.08250 0.37840 0.38700
C 	C 	0.44760 0.03160 0.36010 -0.24700
H 	H 	0.43630 0.02800 0.29520 0.08900
H 	H 	0.48330 0.04770 0.38470 0.08700
Cu	Cu	0.37593 0.21808 0.35248 0.86300
Cu	Cu	0.36287 0.70164 0.99529 0.92400
Cu	Cu	0.35348 0.70584 0.18644 0.89500
O 	O 	0.36570 0.79910 0.21690 -0.64100
H 	H 	0.40210 0.81200 0.23370 0.14100
O 	O 	0.39960 0.69660 0.12520 -0.62400
H 	H 	0.43360 0.71880 0.15260 0.13000
Cu	Cu	0.31584 0.86997 0.14712 0.91800
Cu	Cu	0.23814 0.75585 0.19683 0.90800
O 	O 	0.27390 0.84010 0.20990 -0.61000
H 	H 	0.25790 0.87670 0.22970 0.14600
O 	O 	0.20240 0.67140 0.16870 -0.60600
H 	H 	0.21540 0.63760 0.21640 0.15100
Cu	Cu	0.28412 0.59659 0.03900 0.90400
Cu	Cu	0.32794 0.86345 0.95523 0.93000
O 	O 	0.35470 0.89720 0.07630 -0.69600
H 	H 	0.38750 0.90140 0.10400 0.24500
Cu	Cu	0.30254 0.99899 0.03128 0.79800
O 	O 	0.24150 0.76480 0.34330 -0.40800
O 	O 	0.32620 0.78760 0.42350 -0.44500
C 	C 	0.28190 0.77020 0.41650 0.35100
C 	C 	0.27550 0.76020 0.50220 -0.22400
H 	H 	0.30060 0.72680 0.53720 0.07600
H 	H 	0.28490 0.80170 0.53600 0.06600
O 	O 	0.30970 0.71660 0.25350 -0.63500
H 	H 	0.31190 0.67850 0.29300 0.13700
O 	O 	0.33910 0.61110 0.15930 -0.65800
H 	H 	0.33580 0.58460 0.20760 0.12400
O 	O 	0.22760 0.56680 0.07140 -0.55100
O 	O 	0.34290 0.60740 0.00410 -0.64200
H 	H 	0.34190 0.57830 0.95480 0.15100
O 	O 	0.38300 0.79270 0.97970 -0.60600
H 	H 	0.41780 0.80590 0.02290 0.13700
O 	O 	0.33270 0.70500 0.86180 -0.63600
H 	H 	0.33740 0.66390 0.83320 0.14100
O 	O 	0.26460 0.93790 0.07830 -0.65700
H 	H 	0.24760 0.96030 0.11290 0.12700
Cu	Cu	0.39896 0.58484 0.12697 0.84000
O 	O 	0.44770 0.55010 0.07880 -0.46200
C 	C 	0.49760 0.54170 0.99500 -0.12700
H 	H 	0.53230 0.55950 0.02790 0.03500
H 	H 	0.48820 0.55180 0.93160 0.05700
C 	C 	0.46000 0.58300 0.02500 0.28500
O 	O 	0.44850 0.63980 0.98600 -0.35800
O 	O 	0.26130 0.81360 0.99620 -0.42600
O 	O 	0.29700 0.75990 0.01350 -0.37600
O 	O 	0.28710 0.71000 0.03070 -0.37100
Cu	Cu	0.84638 0.29801 0.32163 0.90000
O 	O 	0.89680 0.36690 0.38490 -0.44000
O 	O 	0.86490 0.44200 0.27420 -0.39300
O 	O 	0.88480 0.56690 0.41310 -0.39700
O 	O 	0.91730 0.64190 0.34900 -0.46400
C 	C 	0.89960 0.42130 0.34770 0.35900
C 	C 	0.94750 0.46290 0.39700 -0.21300
H 	H 	0.95200 0.46730 0.45940 0.09000
H 	H 	0.97740 0.43880 0.39710 0.07100
C 	C 	0.91480 0.58250 0.37840 0.38700
C 	C 	0.94760 0.53160 0.36010 -0.24600
H 	H 	0.93630 0.52800 0.29520 0.08800
H 	H 	0.98330 0.54770 0.38470 0.08600
Cu	Cu	0.87593 0.71808 0.35248 0.86300
Cu	Cu	0.86287 0.20164 0.99529 0.92400
Cu	Cu	0.85348 0.20584 0.18644 0.89500
O 	O 	0.86570 0.29910 0.21690 -0.64100
H 	H 	0.90210 0.31200 0.23370 0.14000
O 	O 	0.89960 0.19660 0.12520 -0.62400
H 	H 	0.93360 0.21880 0.15260 0.13000
Cu	Cu	0.81584 0.36997 0.14712 0.91800
Cu	Cu	0.73814 0.25585 0.19683 0.90800
O 	O 	0.77390 0.34010 0.20990 -0.61000
H 	H 	0.75790 0.37670 0.22970 0.14600
O 	O 	0.70240 0.17140 0.16870 -0.60600
H 	H 	0.71540 0.13760 0.21640 0.15100
Cu	Cu	0.78412 0.09659 0.03900 0.90400
Cu	Cu	0.82794 0.36345 0.95523 0.93000
O 	O 	0.85470 0.39720 0.07630 -0.69600
H 	H 	0.88750 0.40140 0.10400 0.24500
Cu	Cu	0.80254 0.49899 0.03128 0.79800
O 	O 	0.74150 0.26480 0.34330 -0.40800
O 	O 	0.82620 0.28760 0.42350 -0.44500
C 	C 	0.78190 0.27020 0.41650 0.35100
C 	C 	0.77550 0.26020 0.50220 -0.22400
H 	H 	0.80060 0.22680 0.53720 0.07600
H 	H 	0.78490 0.30170 0.53600 0.06600
O 	O 	0.80970 0.21660 0.25350 -0.63500
H 	H 	0.81190 0.17850 0.29300 0.13700
O 	O 	0.83910 0.11110 0.15930 -0.65800
H 	H 	0.83580 0.08460 0.20760 0.12400
O 	O 	0.72760 0.06680 0.07140 -0.55100
O 	O 	0.84290 0.10740 0.00410 -0.64200
H 	H 	0.84190 0.07830 0.95480 0.15100
O 	O 	0.88300 0.29270 0.97970 -0.60600
H 	H 	0.91780 0.30590 0.02290 0.13600
O 	O 	0.83270 0.20500 0.86180 -0.63600
H 	H 	0.83740 0.16390 0.83320 0.14100
O 	O 	0.76460 0.43790 0.07830 -0.65700
H 	H 	0.74760 0.46030 0.11290 0.12700
Cu	Cu	0.89896 0.08484 0.12697 0.84000
O 	O 	0.94770 0.05010 0.07880 -0.46400
C 	C 	0.99760 0.04170 0.99500 -0.14000
H 	H 	0.03230 0.05950 0.02790 0.04100
H 	H 	0.98820 0.05180 0.93160 0.06000
C 	C 	0.96000 0.08300 0.02500 0.28900
O 	O 	0.94850 0.13980 0.98600 -0.36100
O 	O 	0.76130 0.31360 0.99620 -0.42600
O 	O 	0.79700 0.25990 0.01350 -0.37600
O 	O 	0.78710 0.21000 0.03070 -0.37100
Cu	Cu	0.34638 0.20199 0.82163 0.90100
O 	O 	0.39680 0.13310 0.88490 -0.43700
O 	O 	0.36490 0.05800 0.77420 -0.39300
O 	O 	0.38480 0.93310 0.91310 -0.39300
O 	O 	0.41730 0.85810 0.84900 -0.46000
C 	C 	0.39960 0.07870 0.84770 0.36100
C 	C 	0.44750 0.03710 0.89700 -0.21800
H 	H 	0.45200 0.03270 0.95940 0.09600
H 	H 	0.47740 0.06120 0.89710 0.07500
C 	C 	0.41480 0.91750 0.87840 0.38800
C 	C 	0.44760 0.96840 0.86010 -0.24300
H 	H 	0.43630 0.97200 0.79520 0.08900
H 	H 	0.48330 0.95230 0.88470 0.08900
Cu	Cu	0.37593 0.78192 0.85248 0.86400
Cu	Cu	0.36287 0.29836 0.49529 0.91800
Cu	Cu	0.35348 0.29416 0.68644 0.89500
O 	O 	0.36570 0.20090 0.71690 -0.64100
H 	H 	0.40210 0.18800 0.73370 0.14100
O 	O 	0.39960 0.30340 0.62520 -0.62100
H 	H 	0.43360 0.28120 0.65260 0.13100
Cu	Cu	0.31584 0.13003 0.64712 0.91900
Cu	Cu	0.23814 0.24415 0.69683 0.90900
O 	O 	0.27390 0.15990 0.70990 -0.60900
H 	H 	0.25790 0.12330 0.72970 0.14700
O 	O 	0.20240 0.32860 0.66870 -0.60600
H 	H 	0.21540 0.36240 0.71640 0.15200
Cu	Cu	0.28412 0.40341 0.53900 0.90700
Cu	Cu	0.32794 0.13655 0.45523 0.92700
O 	O 	0.35470 0.10280 0.57630 -0.69000
H 	H 	0.38750 0.09860 0.60400 0.24500
Cu	Cu	0.30254 0.00101 0.53128 0.80300
O 	O 	0.24150 0.23520 0.84330 -0.41400
O 	O 	0.32620 0.21240 0.92350 -0.45000
C 	C 	0.28190 0.22980 0.91650 0.38200
C 	C 	0.27550 0.23980 0.00220 -0.29500
H 	H 	0.30060 0.27320 0.03720 0.09200
H 	H 	0.28490 0.19830 0.03600 0.08200
O 	O 	0.30970 0.28340 0.75350 -0.63500
H 	H 	0.31190 0.32150 0.79300 0.13700
O 	O 	0.33910 0.38890 0.65930 -0.65800
H 	H 	0.33580 0.41540 0.70760 0.12500
O 	O 	0.22760 0.43320 0.57140 -0.54600
O 	O 	0.34290 0.39260 0.50410 -0.62600
H 	H 	0.34190 0.42170 0.45480 0.13900
O 	O 	0.38300 0.20730 0.47970 -0.61900
H 	H 	0.41780 0.19410 0.52290 0.14900
O 	O 	0.33270 0.29500 0.36180 -0.63700
H 	H 	0.33740 0.33610 0.33320 0.14000
O 	O 	0.26460 0.06210 0.57830 -0.65100
H 	H 	0.24760 0.03970 0.61290 0.12800
Cu	Cu	0.39896 0.41516 0.62697 0.84200
O 	O 	0.44770 0.44990 0.57880 -0.46900
C 	C 	0.49760 0.45830 0.49500 -0.21500
H 	H 	0.53230 0.44050 0.52790 0.06900
H 	H 	0.48820 0.44820 0.43160 0.07900
C 	C 	0.46000 0.41700 0.52500 0.33200
O 	O 	0.44850 0.36020 0.48600 -0.38200
O 	O 	0.26130 0.18640 0.49620 -0.44300
O 	O 	0.29700 0.24010 0.51350 -0.36900
O 	O 	0.28710 0.29000 0.53070 -0.37900
Cu	Cu	0.84638 0.70199 0.82163 0.90100
O 	O 	0.89680 0.63310 0.88490 -0.43700
O 	O 	0.86490 0.55800 0.77420 -0.39300
O 	O 	0.88480 0.43310 0.91310 -0.39400
O 	O 	0.91730 0.35810 0.84900 -0.46100
C 	C 	0.89960 0.57870 0.84770 0.36000
C 	C 	0.94750 0.53710 0.89700 -0.21600
H 	H 	0.95200 0.53270 0.95940 0.09500
H 	H 	0.97740 0.56120 0.89710 0.07400
C 	C 	0.91480 0.41750 0.87840 0.38800
C 	C 	0.94760 0.46840 0.86010 -0.24500
H 	H 	0.93630 0.47200 0.79520 0.08900
H 	H 	0.98330 0.45230 0.88470 0.08800
Cu	Cu	0.87593 0.28192 0.85248 0.86400
Cu	Cu	0.86287 0.79836 0.49529 0.91800
Cu	Cu	0.85348 0.79416 0.68644 0.89500
O 	O 	0.86570 0.70090 0.71690 -0.64100
H 	H 	0.90210 0.68800 0.73370 0.14100
O 	O 	0.89960 0.80340 0.62520 -0.62100
H 	H 	0.93360 0.78120 0.65260 0.13100
Cu	Cu	0.81584 0.63003 0.64712 0.91900
Cu	Cu	0.73814 0.74415 0.69683 0.90900
O 	O 	0.77390 0.65990 0.70990 -0.60900
H 	H 	0.75790 0.62330 0.72970 0.14700
O 	O 	0.70240 0.82860 0.66870 -0.60600
H 	H 	0.71540 0.86240 0.71640 0.15200
Cu	Cu	0.78412 0.90341 0.53900 0.90700
Cu	Cu	0.82794 0.63655 0.45523 0.92700
O 	O 	0.85470 0.60280 0.57630 -0.69000
H 	H 	0.88750 0.59860 0.60400 0.24500
Cu	Cu	0.80254 0.50101 0.53128 0.80300
O 	O 	0.74150 0.73520 0.84330 -0.41400
O 	O 	0.82620 0.71240 0.92350 -0.45100
C 	C 	0.78190 0.72980 0.91650 0.38500
C 	C 	0.77550 0.73980 0.00220 -0.30100
H 	H 	0.80060 0.77320 0.03720 0.09400
H 	H 	0.78490 0.69830 0.03600 0.08400
O 	O 	0.80970 0.78340 0.75350 -0.63500
H 	H 	0.81190 0.82150 0.79300 0.13700
O 	O 	0.83910 0.88890 0.65930 -0.65800
H 	H 	0.83580 0.91540 0.70760 0.12500
O 	O 	0.72760 0.93320 0.57140 -0.54600
O 	O 	0.84290 0.89260 0.50410 -0.62600
H 	H 	0.84190 0.92170 0.45480 0.13900
O 	O 	0.88300 0.70730 0.47970 -0.61900
H 	H 	0.91780 0.69410 0.52290 0.14900
O 	O 	0.83270 0.79500 0.36180 -0.63700
H 	H 	0.83740 0.83610 0.33320 0.14000
O 	O 	0.76460 0.56210 0.57830 -0.65100
H 	H 	0.74760 0.53970 0.61290 0.12800
Cu	Cu	0.89896 0.91516 0.62697 0.84200
O 	O 	0.94770 0.94990 0.57880 -0.47000
C 	C 	0.99760 0.95830 0.49500 -0.22500
H 	H 	0.03230 0.94050 0.52790 0.07400
H 	H 	0.98820 0.94820 0.43160 0.08100
C 	C 	0.96000 0.91700 0.52500 0.33500
O 	O 	0.94850 0.86020 0.48600 -0.38300
O 	O 	0.76130 0.68640 0.49620 -0.44300
O 	O 	0.79700 0.74010 0.51350 -0.36900
O 	O 	0.78710 0.79000 0.53070 -0.37900
Cu	Cu	0.65362 0.20199 0.67837 0.90000
O 	O 	0.60320 0.13310 0.61510 -0.44000
O 	O 	0.63510 0.05800 0.72580 -0.39200
O 	O 	0.61520 0.93310 0.58690 -0.39700
O 	O 	0.58270 0.85810 0.65100 -0.46200
C 	C 	0.60040 0.07870 0.65230 0.35900
C 	C 	0.55250 0.03710 0.60300 -0.21300
H 	H 	0.54800 0.03270 0.54060 0.09100
H 	H 	0.52260 0.06120 0.60290 0.07200
C 	C 	0.58520 0.91750 0.62160 0.38800
C 	C 	0.55240 0.96840 0.63990 -0.24600
H 	H 	0.56370 0.97200 0.70480 0.09100
H 	H 	0.51670 0.95230 0.61530 0.08700
Cu	Cu	0.62407 0.78192 0.64752 0.86400
Cu	Cu	0.63713 0.29836 0.00471 0.91200
Cu	Cu	0.64652 0.29416 0.81356 0.89500
O 	O 	0.63430 0.20090 0.78310 -0.64000
H 	H 	0.59790 0.18800 0.76630 0.14100
O 	O 	0.60040 0.30340 0.87480 -0.61800
H 	H 	0.56640 0.28120 0.84740 0.13200
Cu	Cu	0.68416 0.13003 0.85288 0.92000
Cu	Cu	0.76186 0.24415 0.80317 0.90900
O 	O 	0.72610 0.15990 0.79010 -0.60800
H 	H 	0.74210 0.12330 0.77030 0.14600
O 	O 	0.79760 0.32860 0.83130 -0.60600
H 	H 	0.78460 0.36240 0.78360 0.15100
Cu	Cu	0.71588 0.40341 0.96100 0.90900
Cu	Cu	0.67206 0.13655 0.04477 0.92400
O 	O 	0.64530 0.10280 0.92370 -0.68400
H 	H 	0.61250 0.09860 0.89600 0.24500
Cu	Cu	0.69746 0.00101 0.96872 0.80800
O 	O 	0.75850 0.23520 0.65670 -0.40800
O 	O 	0.67380 0.21240 0.57650 -0.44500
C 	C 	0.71810 0.22980 0.58350 0.35000
C 	C 	0.72450 0.23980 0.49780 -0.22300
H 	H 	0.69940 0.27320 0.46280 0.07600
H 	H 	0.71510 0.19830 0.46400 0.06600
O 	O 	0.69030 0.28340 0.74650 -0.63500
H 	H 	0.68810 0.32150 0.70700 0.13700
O 	O 	0.66090 0.38890 0.84070 -0.65800
H 	H 	0.66420 0.41540 0.79240 0.12500
O 	O 	0.77240 0.43320 0.92860 -0.54100
O 	O 	0.65710 0.39260 0.99590 -0.61100
H 	H 	0.65810 0.42170 0.04520 0.12800
O 	O 	0.61700 0.20730 0.02030 -0.63300
H 	H 	0.58220 0.19410 0.97710 0.16200
O 	O 	0.66730 0.29500 0.13820 -0.63800
H 	H 	0.66260 0.33610 0.16680 0.14000
O 	O 	0.73540 0.06210 0.92170 -0.64600
H 	H 	0.75240 0.03970 0.88710 0.12800
Cu	Cu	0.60104 0.41516 0.87303 0.84300
O 	O 	0.55230 0.44990 0.92120 -0.47700
C 	C 	0.50240 0.45830 0.00500 -0.30300
H 	H 	0.46770 0.44050 0.97210 0.10300
H 	H 	0.51180 0.44820 0.06840 0.10200
C 	C 	0.54000 0.41700 0.97500 0.37900
O 	O 	0.55150 0.36020 0.01400 -0.40500
O 	O 	0.73870 0.18640 0.00380 -0.44800
O 	O 	0.70300 0.24010 0.98650 -0.35000
O 	O 	0.71290 0.29000 0.96930 -0.37500
Cu	Cu	0.15362 0.70199 0.67837 0.90000
O 	O 	0.10320 0.63310 0.61510 -0.43900
O 	O 	0.13510 0.55800 0.72580 -0.39200
O 	O 	0.11520 0.43310 0.58690 -0.39700
O 	O 	0.08270 0.35810 0.65100 -0.46200
C 	C 	0.10040 0.57870 0.65230 0.35900
C 	C 	0.05250 0.53710 0.60300 -0.21300
H 	H 	0.04800 0.53270 0.54060 0.09100
H 	H 	0.02260 0.56120 0.60290 0.07200
C 	C 	0.08520 0.41750 0.62160 0.38800
C 	C 	0.05240 0.46840 0.63990 -0.24800
H 	H 	0.06370 0.47200 0.70480 0.09100
H 	H 	0.01670 0.45230 0.61530 0.08800
Cu	Cu	0.12407 0.28192 0.64752 0.86400
Cu	Cu	0.13713 0.79836 0.00471 0.91200
Cu	Cu	0.14652 0.79416 0.81356 0.89500
O 	O 	0.13430 0.70090 0.78310 -0.64000
H 	H 	0.09790 0.68800 0.76630 0.14100
O 	O 	0.10040 0.80340 0.87480 -0.61800
H 	H 	0.06640 0.78120 0.84740 0.13200
Cu	Cu	0.18416 0.63003 0.85288 0.92000
Cu	Cu	0.26186 0.74415 0.80317 0.90900
O 	O 	0.22610 0.65990 0.79010 -0.60800
H 	H 	0.24210 0.62330 0.77030 0.14600
O 	O 	0.29760 0.82860 0.83130 -0.60600
H 	H 	0.28460 0.86240 0.78360 0.15100
Cu	Cu	0.21588 0.90341 0.96100 0.90900
Cu	Cu	0.17206 0.63655 0.04477 0.92400
O 	O 	0.14530 0.60280 0.92370 -0.68400
H 	H 	0.11250 0.59860 0.89600 0.24600
Cu	Cu	0.19746 0.50101 0.96872 0.80800
O 	O 	0.25850 0.73520 0.65670 -0.40800
O 	O 	0.17380 0.71240 0.57650 -0.44500
C 	C 	0.21810 0.72980 0.58350 0.35000
C 	C 	0.22450 0.73980 0.49780 -0.22300
H 	H 	0.19940 0.77320 0.46280 0.07600
H 	H 	0.21510 0.69830 0.46400 0.06600
O 	O 	0.19030 0.78340 0.74650 -0.63500
H 	H 	0.18810 0.82150 0.70700 0.13700
O 	O 	0.16090 0.88890 0.84070 -0.65800
H 	H 	0.16420 0.91540 0.79240 0.12600
O 	O 	0.27240 0.93320 0.92860 -0.54100
O 	O 	0.15710 0.89260 0.99590 -0.61100
H 	H 	0.15810 0.92170 0.04520 0.12800
O 	O 	0.11700 0.70730 0.02030 -0.63300
H 	H 	0.08220 0.69410 0.97710 0.16200
O 	O 	0.16730 0.79500 0.13820 -0.63800
H 	H 	0.16260 0.83610 0.16680 0.14000
O 	O 	0.23540 0.56210 0.92170 -0.64600
H 	H 	0.25240 0.53970 0.88710 0.12800
Cu	Cu	0.10104 0.91516 0.87303 0.84300
O 	O 	0.05230 0.94990 0.92120 -0.47500
C 	C 	0.00240 0.95830 0.00500 -0.29300
H 	H 	0.96770 0.94050 0.97210 0.09900
H 	H 	0.01180 0.94820 0.06840 0.10000
C 	C 	0.04000 0.91700 0.97500 0.37700
O 	O 	0.05150 0.86020 0.01400 -0.40300
O 	O 	0.23870 0.68640 0.00380 -0.44800
O 	O 	0.20300 0.74010 0.98650 -0.35000
O 	O 	0.21290 0.79000 0.96930 -0.37500
C 	C 	0.75000 0.75000 0.50000 0.89800
C 	C 	0.25000 0.75000 -0.00000 0.86800
C 	C 	0.25000 0.25000 0.50000 0.89800
C 	C 	0.75000 0.25000 -0.00000 0.86800
