data_crystal

_cell_length_a 9.49100
_cell_length_b 10.05200
_cell_length_c 11.34400
_cell_angle_alpha 94.42900
_cell_angle_beta  97.91400
_cell_angle_gamma 111.38600

_symmetry_space_group_name_	'P 1'
_symmetry_space_group_name_H-M	'P 1'

loop_
_symmetry_equiv_pos_as_xyz
  x,y,z

loop_
_atom_site_label
_atom_site_type_symbol
_atom_site_fract_x
_atom_site_fract_y
_atom_site_fract_z
_atom_site_charge
La	La	0.21401 0.45409 0.01294 1.66400
La	La	0.78599 0.54591 0.98706 1.66400
H 	H 	0.81990 0.99670 0.03930 0.04600
H 	H 	0.68880 0.28680 0.21120 0.06800
H 	H 	0.41640 0.86380 0.15770 0.09200
H 	H 	0.65420 0.08890 0.42540 0.14100
H 	H 	0.74490 0.21200 0.61470 -0.00900
H 	H 	0.43790 0.39430 0.57250 -0.01400
H 	H 	0.35220 0.28500 0.37290 0.15200
H 	H 	0.96000 0.19200 0.87000 0.23000
H 	H 	0.07000 0.26000 0.81000 0.19600
H 	H 	0.18010 0.00330 0.96070 0.04700
H 	H 	0.31120 0.71320 0.78880 0.06900
H 	H 	0.58360 0.13620 0.84230 0.09200
H 	H 	0.34580 0.91110 0.57460 0.14100
H 	H 	0.25510 0.78800 0.38530 -0.00900
H 	H 	0.56210 0.60570 0.42750 -0.01400
H 	H 	0.64780 0.71500 0.62710 0.15200
H 	H 	0.04000 0.80800 0.13000 0.23000
H 	H 	0.93000 0.74000 0.19000 0.19600
C 	C 	0.58060 0.75860 0.03200 0.40500
C 	C 	0.61270 0.90780 0.08720 -0.07600
C 	C 	0.74800 0.01760 0.07720 0.00000
C 	C 	0.77740 0.15970 0.12380 -0.05700
C 	C 	0.92300 0.27580 0.10600 0.32200
C 	C 	0.67210 0.19200 0.18290 -0.11900
C 	C 	0.54290 0.07970 0.19810 0.18400
C 	C 	0.50730 0.93700 0.14930 -0.11200
C 	C 	0.49510 0.17580 0.37860 0.29200
C 	C 	0.61250 0.15330 0.45330 -0.29100
C 	C 	0.66540 0.22610 0.56650 0.17500
C 	C 	0.60460 0.32000 0.61190 -0.21000
C 	C 	0.66570 0.40210 0.73390 0.35100
C 	C 	0.48450 0.33630 0.54070 0.15900
C 	C 	0.42970 0.26850 0.42150 -0.27900
C 	C 	0.41940 0.24140 0.96800 0.40500
C 	C 	0.38730 0.09220 0.91280 -0.07600
C 	C 	0.25200 0.98240 0.92280 0.00000
C 	C 	0.22260 0.84030 0.87620 -0.05700
C 	C 	0.07700 0.72420 0.89400 0.32200
C 	C 	0.32790 0.80800 0.81710 -0.11900
C 	C 	0.45710 0.92030 0.80190 0.18400
C 	C 	0.49270 0.06300 0.85070 -0.11200
C 	C 	0.50490 0.82420 0.62140 0.29200
C 	C 	0.38750 0.84670 0.54670 -0.29100
C 	C 	0.33460 0.77390 0.43350 0.17500
C 	C 	0.39540 0.68000 0.38810 -0.21000
C 	C 	0.33430 0.59790 0.26610 0.35100
C 	C 	0.51550 0.66370 0.45930 0.15900
C 	C 	0.57030 0.73150 0.57850 -0.27900
O 	O 	0.44700 0.66340 0.02700 -0.45800
O 	O 	0.68530 0.73890 0.99230 -0.44500
O 	O 	0.04470 0.25190 0.11390 -0.37300
O 	O 	0.91920 0.39660 0.07860 -0.44400
O 	O 	0.43790 0.10770 0.26160 -0.27700
O 	O 	0.77310 0.37940 0.79990 -0.35800
O 	O 	0.61740 0.49450 0.77260 -0.37100
O 	O 	0.00290 0.27840 0.84830 -0.58500
O 	O 	0.55300 0.33660 0.97300 -0.45800
O 	O 	0.31470 0.26110 0.00770 -0.44500
O 	O 	0.95530 0.74810 0.88610 -0.37300
O 	O 	0.08080 0.60340 0.92140 -0.44400
O 	O 	0.56210 0.89230 0.73840 -0.27700
O 	O 	0.22690 0.62060 0.20010 -0.35800
O 	O 	0.38260 0.50550 0.22740 -0.37100
O 	O 	0.99710 0.72160 0.15170 -0.58500
