data_crystal

_cell_length_a 20.62710
_cell_length_b 13.66690
_cell_length_c 20.68390
_cell_angle_alpha 90.00000
_cell_angle_beta  90.00000
_cell_angle_gamma 90.00000

_symmetry_space_group_name_	'P 1'
_symmetry_space_group_name_H-M	'P 1'

loop_
_symmetry_equiv_pos_as_xyz
  x,y,z

loop_
_atom_site_label
_atom_site_type_symbol
_atom_site_fract_x
_atom_site_fract_y
_atom_site_fract_z
_atom_site_charge
Cd	Cd	0.67189 0.62744 0.81044 1.17500
O 	O 	0.57500 0.69990 0.83130 -0.47200
O 	O 	0.61900 0.79320 0.75730 -0.40100
N 	N 	0.62240 0.52580 0.73440 -0.28000
N 	N 	0.71750 0.73230 0.89090 -0.27000
C 	C 	0.57510 0.77710 0.79620 0.48300
C 	C 	0.57040 0.55130 0.70040 0.15300
C 	C 	0.64200 0.43320 0.72910 0.14000
C 	C 	0.78020 0.72660 0.90650 0.13000
C 	C 	0.68220 0.79800 0.92380 0.12000
C 	C 	0.52060 0.84780 0.80740 -0.61900
H 	H 	0.55630 0.61570 0.70320 -0.03600
C 	C 	0.53670 0.48940 0.66210 -0.27200
C 	C 	0.61120 0.36490 0.69110 -0.26700
H 	H 	0.67840 0.41370 0.75230 -0.05900
H 	H 	0.80560 0.68140 0.88440 -0.05800
C 	C 	0.80920 0.78230 0.95240 -0.25800
C 	C 	0.70850 0.86020 0.97020 -0.25400
H 	H 	0.63800 0.80230 0.91510 -0.03400
H 	H 	0.53310 0.89170 0.84210 0.20600
H 	H 	0.48320 0.81110 0.82220 0.22700
H 	H 	0.50020 0.51110 0.64000 0.10900
C 	C 	0.55740 0.39300 0.65600 0.24300
H 	H 	0.62630 0.30090 0.68900 0.11900
H 	H 	0.85280 0.77270 0.96220 0.10700
C 	C 	0.77380 0.85420 0.98510 0.22500
H 	H 	0.68220 0.90560 0.99120 0.10600
H 	H 	0.53550 0.95060 0.73780 -0.11500
C 	C 	0.52050 0.32080 0.61480 -0.39500
C 	C 	0.80610 0.92010 0.03320 -0.35400
H 	H 	0.54840 0.26600 0.60380 0.13400
H 	H 	0.50700 0.35200 0.57490 0.13000
C 	C 	0.46150 0.28440 0.65150 0.19100
H 	H 	0.83360 0.88140 0.06130 0.12600
H 	H 	0.77320 0.95110 0.05990 0.13300
H 	H 	0.43370 0.33980 0.66100 -0.04200
H 	H 	0.47570 0.25700 0.69240 -0.02800
C 	C 	0.42170 0.20720 0.61540 -0.43100
H 	H 	0.87380 0.03590 0.02890 -0.01500
C 	C 	0.36200 0.18070 0.65450 0.31300
H 	H 	0.40870 0.23250 0.57360 0.14000
H 	H 	0.44790 0.14920 0.60840 0.14200
C 	C 	0.30830 0.23450 0.65350 -0.34400
C 	C 	0.36220 0.10570 0.69680 -0.34900
C 	C 	0.25830 0.21830 0.69570 0.18900
H 	H 	0.30470 0.28460 0.62340 0.12700
H 	H 	0.39690 0.06230 0.69830 0.14600
C 	C 	0.31060 0.09450 0.73750 0.20400
H 	H 	0.22260 0.25970 0.69440 -0.05500
N 	N 	0.25870 0.14750 0.73730 -0.30400
H 	H 	0.31290 0.04450 0.76800 -0.07600
Cd	Cd	0.17189 0.12744 0.81044 1.17500
O 	O 	0.07500 0.19990 0.83130 -0.47500
O 	O 	0.11900 0.29320 0.75730 -0.39800
N 	N 	0.12240 0.02580 0.73440 -0.28100
N 	N 	0.21750 0.23230 0.89090 -0.27100
C 	C 	0.07510 0.27710 0.79620 0.47400
C 	C 	0.07040 0.05130 0.70040 0.13900
C 	C 	0.14200 0.93320 0.72910 0.14300
C 	C 	0.28020 0.22660 0.90650 0.13000
C 	C 	0.18220 0.29800 0.92380 0.12000
C 	C 	0.02060 0.34780 0.80740 -0.59700
H 	H 	0.05630 0.11570 0.70320 -0.03300
C 	C 	0.03670 0.98940 0.66210 -0.25800
C 	C 	0.11120 0.86490 0.69110 -0.26900
H 	H 	0.17840 0.91370 0.75230 -0.06000
H 	H 	0.30560 0.18140 0.88440 -0.06000
C 	C 	0.30920 0.28230 0.95240 -0.26000
C 	C 	0.20850 0.36020 0.97020 -0.25600
H 	H 	0.13800 0.30230 0.91510 -0.03500
H 	H 	0.03310 0.39170 0.84210 0.19500
H 	H 	0.98320 0.31110 0.82220 0.22800
H 	H 	0.00020 0.01110 0.64000 0.09700
C 	C 	0.05740 0.89300 0.65600 0.24200
H 	H 	0.12630 0.80090 0.68900 0.11900
H 	H 	0.35280 0.27270 0.96220 0.10600
C 	C 	0.27380 0.35420 0.98510 0.22600
H 	H 	0.18220 0.40560 0.99120 0.10500
H 	H 	0.03550 0.45060 0.73780 -0.09100
C 	C 	0.02050 0.82080 0.61480 -0.41600
C 	C 	0.30610 0.42010 0.03320 -0.36200
H 	H 	0.04840 0.76600 0.60380 0.13700
H 	H 	0.00700 0.85200 0.57490 0.13200
C 	C 	0.96150 0.78440 0.65150 0.21900
H 	H 	0.33360 0.38140 0.06130 0.12700
H 	H 	0.27320 0.45110 0.05990 0.13500
H 	H 	0.93370 0.83980 0.66100 -0.04700
H 	H 	0.97570 0.75700 0.69240 -0.03200
C 	C 	0.92170 0.70720 0.61540 -0.45000
H 	H 	0.37380 0.53590 0.02890 -0.02000
C 	C 	0.86200 0.68070 0.65450 0.32400
H 	H 	0.90870 0.73250 0.57360 0.14800
H 	H 	0.94790 0.64920 0.60840 0.15000
C 	C 	0.80830 0.73450 0.65350 -0.35200
C 	C 	0.86220 0.60570 0.69680 -0.35600
C 	C 	0.75830 0.71830 0.69570 0.19300
H 	H 	0.80470 0.78460 0.62340 0.13000
H 	H 	0.89690 0.56230 0.69830 0.15000
C 	C 	0.81060 0.59450 0.73750 0.20900
H 	H 	0.72260 0.75970 0.69440 -0.05600
N 	N 	0.75870 0.64750 0.73730 -0.30500
H 	H 	0.81290 0.54450 0.76800 -0.07600
Cd	Cd	0.32811 0.37256 0.31044 1.17500
O 	O 	0.42500 0.30010 0.33130 -0.47300
O 	O 	0.38100 0.20680 0.25730 -0.40200
N 	N 	0.37760 0.47420 0.23440 -0.28000
N 	N 	0.28250 0.26770 0.39090 -0.27000
C 	C 	0.42490 0.22290 0.29620 0.48300
C 	C 	0.42960 0.44870 0.20040 0.15200
C 	C 	0.35800 0.56680 0.22910 0.14000
C 	C 	0.21980 0.27340 0.40650 0.12800
C 	C 	0.31780 0.20200 0.42380 0.11700
C 	C 	0.47940 0.15220 0.30740 -0.62000
H 	H 	0.44370 0.38430 0.20320 -0.03600
C 	C 	0.46330 0.51060 0.16210 -0.27200
C 	C 	0.38880 0.63510 0.19110 -0.26700
H 	H 	0.32160 0.58630 0.25230 -0.05900
H 	H 	0.19440 0.31860 0.38440 -0.06000
C 	C 	0.19080 0.21770 0.45240 -0.25600
C 	C 	0.29150 0.13980 0.47020 -0.25300
H 	H 	0.36200 0.19770 0.41510 -0.03400
H 	H 	0.46690 0.10830 0.34210 0.20400
H 	H 	0.51680 0.18890 0.32220 0.22600
H 	H 	0.49980 0.48890 0.14000 0.10800
C 	C 	0.44260 0.60700 0.15600 0.24200
H 	H 	0.37370 0.69910 0.18900 0.11900
H 	H 	0.14720 0.22730 0.46220 0.10300
C 	C 	0.22620 0.14580 0.48510 0.22000
H 	H 	0.31780 0.09440 0.49120 0.10100
H 	H 	0.46450 0.04940 0.23780 -0.11800
C 	C 	0.47950 0.67920 0.11480 -0.39300
C 	C 	0.19390 0.07990 0.53320 -0.36100
H 	H 	0.45160 0.73400 0.10380 0.13300
H 	H 	0.49300 0.64800 0.07490 0.12800
C 	C 	0.53850 0.71560 0.15150 0.19000
H 	H 	0.16640 0.11860 0.56130 0.12700
H 	H 	0.22680 0.04890 0.55990 0.13400
H 	H 	0.56630 0.66020 0.16100 -0.04200
H 	H 	0.52430 0.74300 0.19240 -0.02700
C 	C 	0.57830 0.79280 0.11540 -0.43000
H 	H 	0.12620 0.96410 0.52890 -0.02100
C 	C 	0.63800 0.81930 0.15450 0.31200
H 	H 	0.59130 0.76750 0.07360 0.13800
H 	H 	0.55210 0.85080 0.10840 0.14100
C 	C 	0.69170 0.76550 0.15350 -0.34400
C 	C 	0.63780 0.89430 0.19680 -0.34800
C 	C 	0.74170 0.78170 0.19570 0.18900
H 	H 	0.69530 0.71540 0.12340 0.12600
H 	H 	0.60310 0.93770 0.19830 0.14700
C 	C 	0.68940 0.90550 0.23750 0.20400
H 	H 	0.77740 0.74030 0.19440 -0.05500
N 	N 	0.74130 0.85250 0.23730 -0.30300
H 	H 	0.68710 0.95550 0.26800 -0.07400
Cd	Cd	0.82811 0.87256 0.31044 1.17600
O 	O 	0.92500 0.80010 0.33130 -0.46100
O 	O 	0.88100 0.70680 0.25730 -0.39300
N 	N 	0.87760 0.97420 0.23440 -0.27800
N 	N 	0.78250 0.76770 0.39090 -0.27000
C 	C 	0.92490 0.72290 0.29620 0.45700
C 	C 	0.92960 0.94870 0.20040 0.16100
C 	C 	0.85800 0.06680 0.22910 0.13700
C 	C 	0.71980 0.77340 0.40650 0.13000
C 	C 	0.81780 0.70200 0.42380 0.12000
C 	C 	0.97940 0.65220 0.30740 -0.53100
H 	H 	0.94370 0.88430 0.20320 -0.03600
C 	C 	0.96330 0.01060 0.16210 -0.27900
C 	C 	0.88880 0.13510 0.19110 -0.26300
H 	H 	0.82160 0.08630 0.25230 -0.05900
H 	H 	0.69440 0.81860 0.38440 -0.05900
C 	C 	0.69080 0.71770 0.45240 -0.26000
C 	C 	0.79150 0.63980 0.47020 -0.25700
H 	H 	0.86200 0.69770 0.41510 -0.03400
H 	H 	0.96690 0.60830 0.34210 0.18100
H 	H 	0.01680 0.68890 0.32220 0.19300
H 	H 	0.99980 0.98890 0.14000 0.11600
C 	C 	0.94260 0.10700 0.15600 0.24000
H 	H 	0.87370 0.19910 0.18900 0.11800
H 	H 	0.64720 0.72730 0.46220 0.10600
C 	C 	0.72620 0.64580 0.48510 0.22700
H 	H 	0.81780 0.59440 0.49120 0.10400
H 	H 	0.96450 0.54940 0.23780 -0.08200
C 	C 	0.97950 0.17920 0.11480 -0.37000
C 	C 	0.69390 0.57990 0.53320 -0.37500
H 	H 	0.95160 0.23400 0.10380 0.12900
H 	H 	0.99300 0.14800 0.07490 0.12500
C 	C 	0.03850 0.21560 0.15150 0.16200
H 	H 	0.66640 0.61860 0.56130 0.13300
H 	H 	0.72680 0.54890 0.55990 0.14000
H 	H 	0.06630 0.16020 0.16100 -0.03700
H 	H 	0.02430 0.24300 0.19240 -0.02400
C 	C 	0.07830 0.29280 0.11540 -0.41200
H 	H 	0.62620 0.46410 0.52890 -0.03100
C 	C 	0.13800 0.31930 0.15450 0.30200
H 	H 	0.09130 0.26750 0.07360 0.13100
H 	H 	0.05210 0.35080 0.10840 0.13300
C 	C 	0.19170 0.26550 0.15350 -0.33600
C 	C 	0.13780 0.39430 0.19680 -0.34100
C 	C 	0.24170 0.28170 0.19570 0.18400
H 	H 	0.19530 0.21540 0.12340 0.12300
H 	H 	0.10310 0.43770 0.19830 0.14200
C 	C 	0.18940 0.40550 0.23750 0.20000
H 	H 	0.27740 0.24030 0.19440 -0.05400
N 	N 	0.24130 0.35250 0.23730 -0.30200
H 	H 	0.18710 0.45550 0.26800 -0.07500
Cd	Cd	0.32811 0.62744 0.68956 1.17600
O 	O 	0.42500 0.69990 0.66870 -0.47300
O 	O 	0.38100 0.79320 0.74270 -0.40000
N 	N 	0.37760 0.52580 0.76560 -0.28000
N 	N 	0.28250 0.73230 0.60910 -0.27000
C 	C 	0.42490 0.77710 0.70380 0.48300
C 	C 	0.42960 0.55130 0.79960 0.15300
C 	C 	0.35800 0.43320 0.77090 0.14100
C 	C 	0.21980 0.72660 0.59350 0.12800
C 	C 	0.31780 0.79800 0.57620 0.11800
C 	C 	0.47940 0.84780 0.69260 -0.61900
H 	H 	0.44370 0.61570 0.79680 -0.03600
C 	C 	0.46330 0.48940 0.83790 -0.27300
C 	C 	0.38880 0.36490 0.80890 -0.26800
H 	H 	0.32160 0.41370 0.74770 -0.06000
H 	H 	0.19440 0.68140 0.61560 -0.05900
C 	C 	0.19080 0.78230 0.54760 -0.25600
C 	C 	0.29150 0.86020 0.52980 -0.25200
H 	H 	0.36200 0.80230 0.58490 -0.03400
H 	H 	0.46690 0.89170 0.65790 0.20500
H 	H 	0.51680 0.81110 0.67780 0.22700
H 	H 	0.49980 0.51110 0.86000 0.11000
C 	C 	0.44260 0.39300 0.84400 0.24400
H 	H 	0.37370 0.30090 0.81100 0.11900
H 	H 	0.14720 0.77270 0.53780 0.10300
C 	C 	0.22620 0.85420 0.51490 0.22000
H 	H 	0.31780 0.90560 0.50880 0.10300
H 	H 	0.46450 0.95060 0.76220 -0.11500
C 	C 	0.47950 0.32080 0.88520 -0.39700
C 	C 	0.19390 0.92010 0.46680 -0.35800
H 	H 	0.45160 0.26600 0.89620 0.13500
H 	H 	0.49300 0.35200 0.92510 0.13100
C 	C 	0.53850 0.28440 0.84850 0.19400
H 	H 	0.16640 0.88140 0.43870 0.12800
H 	H 	0.22680 0.95110 0.44010 0.13600
H 	H 	0.56630 0.33980 0.83900 -0.04300
H 	H 	0.52430 0.25700 0.80760 -0.02900
C 	C 	0.57830 0.20720 0.88460 -0.43400
H 	H 	0.12620 0.03590 0.47110 -0.02500
C 	C 	0.63800 0.18070 0.84550 0.31500
H 	H 	0.59130 0.23250 0.92640 0.14200
H 	H 	0.55210 0.14920 0.89160 0.14300
C 	C 	0.69170 0.23450 0.84650 -0.34600
C 	C 	0.63780 0.10570 0.80320 -0.35000
C 	C 	0.74170 0.21830 0.80430 0.19000
H 	H 	0.69530 0.28460 0.87660 0.12900
H 	H 	0.60310 0.06230 0.80170 0.14600
C 	C 	0.68940 0.09450 0.76250 0.20500
H 	H 	0.77740 0.25970 0.80560 -0.05500
N 	N 	0.74130 0.14750 0.76270 -0.30400
H 	H 	0.68710 0.04450 0.73200 -0.07700
Cd	Cd	0.82811 0.12744 0.68956 1.17500
O 	O 	0.92500 0.19990 0.66870 -0.46100
O 	O 	0.88100 0.29320 0.74270 -0.39200
N 	N 	0.87760 0.02580 0.76560 -0.27700
N 	N 	0.78250 0.23230 0.60910 -0.27000
C 	C 	0.92490 0.27710 0.70380 0.45600
C 	C 	0.92960 0.05130 0.79960 0.13500
C 	C 	0.85800 0.93320 0.77090 0.13900
C 	C 	0.71980 0.22660 0.59350 0.13000
C 	C 	0.81780 0.29800 0.57620 0.12000
C 	C 	0.97940 0.34780 0.69260 -0.53000
H 	H 	0.94370 0.11570 0.79680 -0.02700
C 	C 	0.96330 0.98940 0.83790 -0.24300
C 	C 	0.88880 0.86490 0.80890 -0.25600
H 	H 	0.82160 0.91370 0.74770 -0.05800
H 	H 	0.69440 0.18140 0.61560 -0.06000
C 	C 	0.69080 0.28230 0.54760 -0.26000
C 	C 	0.79150 0.36020 0.52980 -0.25700
H 	H 	0.86200 0.30230 0.58490 -0.03400
H 	H 	0.96690 0.39170 0.65790 0.18100
H 	H 	0.01680 0.31110 0.67780 0.19200
H 	H 	0.99980 0.01110 0.86000 0.10000
C 	C 	0.94260 0.89300 0.84400 0.22600
H 	H 	0.87370 0.80090 0.81100 0.11600
H 	H 	0.64720 0.27270 0.53780 0.10600
C 	C 	0.72620 0.35420 0.51490 0.22600
H 	H 	0.81780 0.40560 0.50880 0.10400
H 	H 	0.96450 0.45060 0.76220 -0.08100
C 	C 	0.97950 0.82080 0.88520 -0.36200
C 	C 	0.69390 0.42010 0.46680 -0.37500
H 	H 	0.95160 0.76600 0.89620 0.12800
H 	H 	0.99300 0.85200 0.92510 0.12500
C 	C 	0.03850 0.78440 0.84850 0.16000
H 	H 	0.66640 0.38140 0.43870 0.13200
H 	H 	0.72680 0.45110 0.44010 0.14000
H 	H 	0.06630 0.83980 0.83900 -0.03500
H 	H 	0.02430 0.75700 0.80760 -0.02300
C 	C 	0.07830 0.70720 0.88460 -0.41300
H 	H 	0.62620 0.53590 0.47110 -0.03100
C 	C 	0.13800 0.68070 0.84550 0.30500
H 	H 	0.09130 0.73250 0.92640 0.13400
H 	H 	0.05210 0.64920 0.89160 0.13500
C 	C 	0.19170 0.73450 0.84650 -0.33800
C 	C 	0.13780 0.60570 0.80320 -0.34300
C 	C 	0.24170 0.71830 0.80430 0.18600
H 	H 	0.19530 0.78460 0.87660 0.12600
H 	H 	0.10310 0.56230 0.80170 0.14300
C 	C 	0.18940 0.59450 0.76250 0.20100
H 	H 	0.27740 0.75970 0.80560 -0.05300
N 	N 	0.24130 0.64750 0.76270 -0.30200
H 	H 	0.18710 0.54450 0.73200 -0.07500
Cd	Cd	0.67189 0.37256 0.18956 1.17500
O 	O 	0.57500 0.30010 0.16870 -0.47300
O 	O 	0.61900 0.20680 0.24270 -0.40200
N 	N 	0.62240 0.47420 0.26560 -0.28000
N 	N 	0.71750 0.26770 0.10910 -0.26800
C 	C 	0.57510 0.22290 0.20380 0.48300
C 	C 	0.57040 0.44870 0.29960 0.15300
C 	C 	0.64200 0.56680 0.27090 0.14000
C 	C 	0.78020 0.27340 0.09350 0.12200
C 	C 	0.68220 0.20200 0.07620 0.11200
C 	C 	0.52060 0.15220 0.19260 -0.61900
H 	H 	0.55630 0.38430 0.29680 -0.03600
C 	C 	0.53670 0.51060 0.33790 -0.27300
C 	C 	0.61120 0.63510 0.30890 -0.26800
H 	H 	0.67840 0.58630 0.24770 -0.06000
H 	H 	0.80560 0.31860 0.11560 -0.05700
C 	C 	0.80920 0.21770 0.04760 -0.24700
C 	C 	0.70850 0.13980 0.02980 -0.24400
H 	H 	0.63800 0.19770 0.08490 -0.03300
H 	H 	0.53310 0.10830 0.15790 0.20400
H 	H 	0.48320 0.18890 0.17780 0.22600
H 	H 	0.50020 0.48890 0.36000 0.10900
C 	C 	0.55740 0.60700 0.34400 0.24400
H 	H 	0.62630 0.69910 0.31100 0.11900
H 	H 	0.85280 0.22730 0.03780 0.10100
C 	C 	0.77380 0.14580 0.01490 0.20500
H 	H 	0.68220 0.09440 0.00880 0.09700
H 	H 	0.53550 0.04940 0.26220 -0.11800
C 	C 	0.52050 0.67920 0.38520 -0.39600
C 	C 	0.80610 0.07990 0.96680 -0.33300
H 	H 	0.54840 0.73400 0.39620 0.13400
H 	H 	0.50700 0.64800 0.42510 0.13000
C 	C 	0.46150 0.71560 0.34850 0.19300
H 	H 	0.83360 0.11860 0.93870 0.12100
H 	H 	0.77320 0.04890 0.94010 0.12700
H 	H 	0.43370 0.66020 0.33900 -0.04300
H 	H 	0.47570 0.74300 0.30760 -0.02800
C 	C 	0.42170 0.79280 0.38460 -0.43400
H 	H 	0.87380 0.96410 0.97110 -0.00700
C 	C 	0.36200 0.81930 0.34550 0.31500
H 	H 	0.40870 0.76750 0.42640 0.14100
H 	H 	0.44790 0.85080 0.39160 0.14300
C 	C 	0.30830 0.76550 0.34650 -0.34600
C 	C 	0.36220 0.89430 0.30320 -0.35000
C 	C 	0.25830 0.78170 0.30430 0.19000
H 	H 	0.30470 0.71540 0.37660 0.12700
H 	H 	0.39690 0.93770 0.30170 0.14800
C 	C 	0.31060 0.90550 0.26250 0.20600
H 	H 	0.22260 0.74030 0.30560 -0.05500
N 	N 	0.25870 0.85250 0.26270 -0.30400
H 	H 	0.31290 0.95550 0.23200 -0.07500
Cd	Cd	0.17189 0.87256 0.18956 1.17500
O 	O 	0.07500 0.80010 0.16870 -0.47500
O 	O 	0.11900 0.70680 0.24270 -0.39800
N 	N 	0.12240 0.97420 0.26560 -0.28200
N 	N 	0.21750 0.76770 0.10910 -0.26800
C 	C 	0.07510 0.72290 0.20380 0.47400
C 	C 	0.07040 0.94870 0.29960 0.16600
C 	C 	0.14200 0.06680 0.27090 0.14200
C 	C 	0.28020 0.77340 0.09350 0.12300
C 	C 	0.18220 0.70200 0.07620 0.11300
C 	C 	0.02060 0.65220 0.19260 -0.59700
H 	H 	0.05630 0.88430 0.29680 -0.04200
C 	C 	0.03670 0.01060 0.33790 -0.29700
C 	C 	0.11120 0.13510 0.30890 -0.27800
H 	H 	0.17840 0.08630 0.24770 -0.06100
H 	H 	0.30560 0.81860 0.11560 -0.05700
C 	C 	0.30920 0.71770 0.04760 -0.24800
C 	C 	0.20850 0.63980 0.02980 -0.24500
H 	H 	0.13800 0.69770 0.08490 -0.03400
H 	H 	0.03310 0.60830 0.15790 0.19400
H 	H 	0.98320 0.68890 0.17780 0.22800
H 	H 	0.00020 0.98890 0.36000 0.11500
C 	C 	0.05740 0.10700 0.34400 0.25800
H 	H 	0.12630 0.19910 0.31100 0.12200
H 	H 	0.35280 0.72730 0.03780 0.10000
C 	C 	0.27380 0.64580 0.01490 0.20600
H 	H 	0.18220 0.59440 0.00880 0.09700
H 	H 	0.03550 0.54940 0.26220 -0.09100
C 	C 	0.02050 0.17920 0.38520 -0.43000
C 	C 	0.30610 0.57990 0.96680 -0.33900
H 	H 	0.04840 0.23400 0.39620 0.14100
H 	H 	0.00700 0.14800 0.42510 0.13500
C 	C 	0.96150 0.21560 0.34850 0.22700
H 	H 	0.33360 0.61860 0.93870 0.12300
H 	H 	0.27320 0.54890 0.94010 0.13000
H 	H 	0.93370 0.16020 0.33900 -0.05100
H 	H 	0.97570 0.24300 0.30760 -0.03500
C 	C 	0.92170 0.29280 0.38460 -0.45500
H 	H 	0.37380 0.46410 0.97110 -0.01500
C 	C 	0.86200 0.31930 0.34550 0.32600
H 	H 	0.90870 0.26750 0.42640 0.14900
H 	H 	0.94790 0.35080 0.39160 0.15200
C 	C 	0.80830 0.26550 0.34650 -0.35400
C 	C 	0.86220 0.39430 0.30320 -0.35800
C 	C 	0.75830 0.28170 0.30430 0.19400
H 	H 	0.80470 0.21540 0.37660 0.13000
H 	H 	0.89690 0.43770 0.30170 0.15000
C 	C 	0.81060 0.40550 0.26250 0.21000
H 	H 	0.72260 0.24030 0.30560 -0.05700
N 	N 	0.75870 0.35250 0.26270 -0.30600
H 	H 	0.81290 0.45550 0.23200 -0.07700
C 	C 	0.50000 0.90920 0.75000 0.44900
C 	C 	-0.00000 0.40920 0.75000 0.35900
C 	C 	0.50000 0.09080 0.25000 0.45100
C 	C 	0.00000 0.59080 0.25000 0.35900
C 	C 	0.84730 0.00000 -0.00000 0.11300
C 	C 	0.34730 0.50000 -0.00000 0.12900
C 	C 	0.15270 0.00000 0.50000 0.14300
C 	C 	0.65270 0.50000 0.50000 0.16800
