data_crystal

_cell_length_a 12.17700
_cell_length_b 13.17500
_cell_length_c 15.81400
_cell_angle_alpha 66.02800
_cell_angle_beta  87.24900
_cell_angle_gamma 89.98600

_symmetry_space_group_name_	'P 1'
_symmetry_space_group_name_H-M	'P 1'

loop_
_symmetry_equiv_pos_as_xyz
  x,y,z

loop_
_atom_site_label
_atom_site_type_symbol
_atom_site_fract_x
_atom_site_fract_y
_atom_site_fract_z
_atom_site_charge
C 	C 	0.25650 0.30140 0.44720 0.25300
C 	C 	0.28720 0.41230 0.37070 0.29700
H 	H 	0.23000 0.46560 0.36830 -0.02400
C 	C 	0.29740 0.40240 0.28000 -0.88400
H 	H 	0.31660 0.47370 0.23160 0.32400
H 	H 	0.22850 0.37670 0.26800 0.31700
H 	H 	0.35350 0.35050 0.28210 0.31100
C 	C 	0.09300 0.15210 0.70510 0.39400
C 	C 	0.06170 0.13910 0.80120 -0.06300
C 	C 	0.12180 0.07770 0.87080 -0.04600
H 	H 	0.18350 0.04210 0.86020 0.08300
C 	C 	0.09030 0.06690 0.96310 0.10300
C 	C 	0.01310 0.12680 0.98250 -0.04400
C 	C 	0.95030 0.19410 0.90560 0.12900
C 	C 	0.97450 0.19610 0.81840 -0.03600
H 	H 	0.93060 0.23720 0.77010 0.09400
C 	C 	0.99530 0.13010 0.07460 0.04800
C 	C 	0.06420 0.19530 0.10600 0.08200
C 	C 	0.05360 0.19130 0.19380 -0.09800
H 	H 	0.10050 0.23410 0.21150 0.09900
C 	C 	0.97390 0.12450 0.25620 0.01400
C 	C 	0.90300 0.05780 0.23180 -0.07200
H 	H 	0.85020 0.01050 0.27380 0.09300
C 	C 	0.91640 0.06680 0.14100 0.09600
C 	C 	0.96880 0.12090 0.35290 0.31800
C 	C 	0.82660 0.96600 0.65040 0.34800
C 	C 	0.80050 0.86930 0.74630 -0.00900
C 	C 	0.86250 0.86430 0.82190 -0.08700
H 	H 	0.91900 0.91570 0.81330 0.10200
C 	C 	0.83760 0.78450 0.90520 0.11000
C 	C 	0.75930 0.69890 0.92330 -0.00600
C 	C 	0.70260 0.70420 0.84900 0.10000
C 	C 	0.72030 0.79590 0.75980 -0.06400
H 	H 	0.67530 0.80350 0.71180 0.07900
C 	C 	0.74050 0.60060 0.01570 -0.00200
C 	C 	0.65260 0.60520 0.07410 0.10000
C 	C 	0.63010 0.51630 0.16270 -0.07800
H 	H 	0.57030 0.51820 0.20090 0.08300
C 	C 	0.69990 0.42770 0.18970 -0.00300
C 	C 	0.78430 0.42180 0.13430 -0.08700
H 	H 	0.82940 0.36040 0.15370 0.10800
C 	C 	0.80370 0.50680 0.04920 0.11900
C 	C 	0.67340 0.33210 0.28600 0.34000
C 	C 	0.14970 0.91200 0.62170 0.30100
C 	C 	0.07500 0.81920 0.62130 0.01400
C 	C 	0.01280 0.83280 0.54960 -0.11900
H 	H 	0.00840 0.90220 0.50090 0.09600
C 	C 	0.95460 0.74170 0.54900 0.12400
C 	C 	0.95830 0.63540 0.61890 -0.00400
C 	C 	0.02200 0.62720 0.69140 0.10900
C 	C 	0.07510 0.71340 0.69360 -0.10700
H 	H 	0.11430 0.70330 0.74540 0.11700
C 	C 	0.91640 0.53910 0.60440 0.01100
C 	C 	0.98240 0.49790 0.55100 0.10000
C 	C 	0.94060 0.41030 0.52520 -0.04400
H 	H 	0.98590 0.38070 0.49230 0.07500
C 	C 	0.83180 0.37210 0.55060 -0.05900
C 	C 	0.76840 0.40660 0.60920 -0.06400
H 	H 	0.70030 0.37280 0.63350 0.06700
C 	C 	0.80500 0.48780 0.63040 0.09000
C 	C 	0.79300 0.28080 0.52130 0.38300
C 	C 	0.49650 0.03300 0.48890 0.22300
C 	C 	0.55620 0.96310 0.44100 0.34300
H 	H 	0.50670 0.95540 0.39680 -0.04800
C 	C 	0.57570 0.84820 0.51410 -0.92100
H 	H 	0.61190 0.80440 0.48570 0.33700
H 	H 	0.50650 0.81340 0.54290 0.32700
H 	H 	0.62110 0.85400 0.56000 0.32500
N 	N 	0.03520 0.51750 0.76410 -0.02300
N 	N 	0.15870 0.98890 0.03860 -0.00300
N 	N 	0.86260 0.25880 0.92060 -0.00900
N 	N 	0.15230 0.26870 0.04280 0.00400
N 	N 	0.84160 0.99330 0.11770 -0.00900
N 	N 	0.89450 0.79250 0.98390 -0.00600
N 	N 	0.57520 0.69570 0.05350 -0.00900
N 	N 	0.89930 0.50390 0.99250 -0.01200
N 	N 	0.61120 0.62550 0.85490 -0.00000
N 	N 	0.73660 0.52380 0.69180 -0.00000
N 	N 	0.09140 0.53620 0.51820 -0.01300
N 	N 	0.89100 0.75820 0.46870 -0.01200
O 	O 	0.33860 0.24160 0.48950 -0.50300
O 	O 	0.15830 0.27980 0.46570 -0.38500
O 	O 	0.39070 0.44970 0.39210 -0.48900
H 	H 	0.40530 0.52480 0.37570 0.20700
O 	O 	0.18810 0.12040 0.69510 -0.45600
O 	O 	0.02360 0.18700 0.64640 -0.42100
O 	O 	0.25200 0.97190 0.01750 -0.08800
O 	O 	0.11300 0.94060 0.11190 -0.08400
O 	O 	0.78640 0.28010 0.86470 -0.07600
O 	O 	0.86130 0.29060 0.98190 -0.06900
O 	O 	0.17120 0.26590 0.97160 -0.08400
O 	O 	0.19220 0.33790 0.06490 -0.09300
O 	O 	0.79840 0.03550 0.04270 -0.06900
O 	O 	0.82240 0.90040 0.17640 -0.07700
O 	O 	0.89500 0.05450 0.41060 -0.39400
O 	O 	0.03830 0.17730 0.37080 -0.39600
O 	O 	0.91990 0.00330 0.63380 -0.40100
O 	O 	0.74430 0.98710 0.59740 -0.41400
O 	O 	0.93140 0.87650 0.97530 -0.08000
O 	O 	0.92400 0.70430 0.04360 -0.07200
O 	O 	0.61860 0.53080 0.91340 -0.07500
O 	O 	0.54050 0.65830 0.80210 -0.09700
O 	O 	0.61830 0.79170 0.01360 -0.08300
O 	O 	0.48120 0.68220 0.06540 -0.09500
O 	O 	0.90410 0.55130 0.90880 -0.06200
O 	O 	0.97310 0.44920 0.03250 -0.06500
O 	O 	0.74600 0.26210 0.31370 -0.40000
O 	O 	0.58440 0.33920 0.32980 -0.43800
O 	O 	0.21940 0.89110 0.68090 -0.35700
O 	O 	0.14710 0.00620 0.55280 -0.47400
O 	O 	0.11870 0.50430 0.81320 -0.07300
O 	O 	0.96580 0.44450 0.77900 -0.05800
O 	O 	0.94140 0.81960 0.39150 -0.08600
O 	O 	0.80380 0.71230 0.48010 -0.12100
O 	O 	0.76020 0.60560 0.70280 -0.09000
O 	O 	0.64970 0.47660 0.71840 -0.09600
O 	O 	0.15370 0.51910 0.58170 -0.10600
O 	O 	0.11630 0.57880 0.44190 -0.10200
O 	O 	0.69190 0.25820 0.53320 -0.50100
O 	O 	0.86130 0.24140 0.48410 -0.50300
O 	O 	0.54780 0.11580 0.48950 -0.46700
O 	O 	0.39920 0.00080 0.52010 -0.37800
O 	O 	0.65350 0.01050 0.39350 -0.49900
H 	H 	0.68250 0.99940 0.34250 0.22900
Cd	Cd	0.52000 0.31511 0.46936 1.20600
Cd	Cd	0.30249 0.07061 0.60559 1.21800
Cd	Cd	0.02208 0.14372 0.52316 1.24400
Cd	Cd	0.73680 0.12133 0.45528 1.24800
