data_crystal

_cell_length_a 22.90700
_cell_length_b 15.21500
_cell_length_c 25.12800
_cell_angle_alpha 90.00000
_cell_angle_beta  102.67700
_cell_angle_gamma 90.00000

_symmetry_space_group_name_	'P 1'
_symmetry_space_group_name_H-M	'P 1'

loop_
_symmetry_equiv_pos_as_xyz
  x,y,z

loop_
_atom_site_label
_atom_site_type_symbol
_atom_site_fract_x
_atom_site_fract_y
_atom_site_fract_z
_atom_site_charge
Gd	Gd	0.85954 0.23614 0.01439 1.34700
C 	C 	0.73140 0.19440 0.90885 0.41200
C 	C 	0.74460 0.16000 0.85660 -0.05800
C 	C 	0.80180 0.13250 0.85450 -0.03400
H 	H 	0.83250 0.13480 0.88560 0.06500
C 	C 	0.81290 0.10160 0.80596 0.08600
C 	C 	0.76940 0.09680 0.75743 0.01900
C 	C 	0.71270 0.12530 0.76148 0.09600
C 	C 	0.69980 0.15540 0.80976 -0.04000
H 	H 	0.66110 0.17260 0.81060 0.09600
C 	C 	0.78350 0.06410 0.70513 -0.01200
C 	C 	0.78680 0.97540 0.69286 0.11800
C 	C 	0.80190 0.94440 0.64588 -0.08400
H 	H 	0.80330 0.88430 0.63960 0.09800
C 	C 	0.81490 0.00330 0.60836 0.01000
C 	C 	0.81190 0.09210 0.61821 -0.09100
H 	H 	0.82040 0.13270 0.59330 0.11800
C 	C 	0.79630 0.12050 0.66558 0.14000
C 	C 	0.83530 0.96990 0.55865 0.31100
C 	C 	0.87300 0.32510 0.89310 0.33400
C 	C 	0.95920 0.26800 0.85630 -0.08100
H 	H 	0.96960 0.23220 0.88690 0.10100
C 	C 	0.91030 0.32230 0.85010 0.00400
C 	C 	0.89550 0.37460 0.80450 -0.08400
H 	H 	0.86210 0.41100 0.79930 0.12400
C 	C 	0.93110 0.37240 0.76632 0.12500
C 	C 	0.98090 0.31920 0.77090 0.00200
C 	C 	0.99260 0.26690 0.81690 0.12100
N 	N 	0.87468 0.07380 0.80773 0.00800
N 	N 	0.66240 0.12200 0.71396 0.00700
N 	N 	0.77690 0.90920 0.73279 -0.00900
N 	N 	0.79600 0.21590 0.67425 -0.04100
N 	N 	0.91380 0.42900 0.71950 0.00500
N 	N 	0.03420 0.19140 0.81390 -0.00000
O 	O 	0.77431 0.19930 0.94925 -0.43400
O 	O 	0.67837 0.21470 0.90859 -0.41900
O 	O 	0.61570 0.16560 0.71720 -0.05400
O 	O 	0.67610 0.13860 0.66830 -0.04400
O 	O 	0.90790 0.06320 0.84930 -0.04900
O 	O 	0.89180 0.09120 0.76300 -0.04700
O 	O 	0.76960 0.25850 0.62880 -0.26000
O 	O 	0.82320 0.24070 0.72550 -0.09600
O 	O 	0.74311 0.92850 0.76268 -0.07600
O 	O 	0.80352 0.83890 0.73381 -0.08300
O 	O 	0.81671 0.89400 0.54239 -0.37500
O 	O 	0.86862 0.01740 0.53812 -0.23800
O 	O 	0.89297 0.28120 0.93568 -0.41100
O 	O 	0.82703 0.37090 0.88304 -0.25000
O 	O 	0.06240 0.17460 0.86320 -0.01400
O 	O 	0.04570 0.16300 0.77300 -0.04900
O 	O 	0.91530 0.38440 0.67470 -0.06900
O 	O 	0.88750 0.48790 0.71930 -0.04600
N 	N 	0.05470 0.22190 0.83720 0.00000
O 	O 	0.61420 0.11220 0.71850 -0.03600
O 	O 	0.66510 0.07450 0.67640 -0.06300
O 	O 	0.91580 0.10230 0.84180 -0.05000
O 	O 	0.88170 0.00600 0.77960 -0.05700
O 	O 	0.79410 0.26570 0.63840 0.20300
O 	O 	0.79600 0.24640 0.71570 0.03100
O 	O 	0.05110 0.14880 0.85570 -0.06400
O 	O 	0.09980 0.25710 0.82830 -0.06300
O 	O 	0.96270 0.48790 0.71500 -0.06500
O 	O 	0.86650 0.45890 0.69910 -0.03200
Gd	Gd	0.35954 0.73614 0.01439 1.35000
C 	C 	0.23140 0.69440 0.90885 0.41300
C 	C 	0.24460 0.66000 0.85660 -0.05800
C 	C 	0.30180 0.63250 0.85450 -0.03400
H 	H 	0.33250 0.63480 0.88560 0.06500
C 	C 	0.31290 0.60160 0.80596 0.08600
C 	C 	0.26940 0.59680 0.75743 0.01900
C 	C 	0.21270 0.62530 0.76148 0.09600
C 	C 	0.19980 0.65540 0.80976 -0.04000
H 	H 	0.16110 0.67260 0.81060 0.09600
C 	C 	0.28350 0.56410 0.70513 -0.01300
C 	C 	0.28680 0.47540 0.69286 0.11900
C 	C 	0.30190 0.44440 0.64588 -0.08400
H 	H 	0.30330 0.38430 0.63960 0.09800
C 	C 	0.31490 0.50330 0.60836 0.01000
C 	C 	0.31190 0.59210 0.61821 -0.09100
H 	H 	0.32040 0.63270 0.59330 0.11800
C 	C 	0.29630 0.62050 0.66558 0.14000
C 	C 	0.33530 0.46990 0.55865 0.31200
C 	C 	0.37300 0.82510 0.89310 0.33400
C 	C 	0.45920 0.76800 0.85630 -0.08100
H 	H 	0.46960 0.73220 0.88690 0.10100
C 	C 	0.41030 0.82230 0.85010 0.00400
C 	C 	0.39550 0.87460 0.80450 -0.08400
H 	H 	0.36210 0.91100 0.79930 0.12400
C 	C 	0.43110 0.87240 0.76632 0.12500
C 	C 	0.48090 0.81920 0.77090 0.00200
C 	C 	0.49260 0.76690 0.81690 0.12000
N 	N 	0.37468 0.57380 0.80773 0.00800
N 	N 	0.16240 0.62200 0.71396 0.00700
N 	N 	0.27690 0.40920 0.73279 -0.00900
N 	N 	0.29600 0.71590 0.67425 -0.04100
N 	N 	0.41380 0.92900 0.71950 0.00500
N 	N 	0.53420 0.69140 0.81390 -0.00000
O 	O 	0.27431 0.69930 0.94925 -0.43500
O 	O 	0.17837 0.71470 0.90859 -0.41900
O 	O 	0.11570 0.66560 0.71720 -0.05400
O 	O 	0.17610 0.63860 0.66830 -0.04400
O 	O 	0.40790 0.56320 0.84930 -0.05000
O 	O 	0.39180 0.59120 0.76300 -0.04700
O 	O 	0.26960 0.75850 0.62880 -0.26000
O 	O 	0.32320 0.74070 0.72550 -0.09600
O 	O 	0.24311 0.42850 0.76268 -0.07600
O 	O 	0.30352 0.33890 0.73381 -0.08300
O 	O 	0.31671 0.39400 0.54239 -0.37500
O 	O 	0.36862 0.51740 0.53812 -0.23800
O 	O 	0.39297 0.78120 0.93568 -0.41100
O 	O 	0.32703 0.87090 0.88304 -0.25100
O 	O 	0.56240 0.67460 0.86320 -0.01400
O 	O 	0.54570 0.66300 0.77300 -0.04900
O 	O 	0.41530 0.88440 0.67470 -0.06900
O 	O 	0.38750 0.98790 0.71930 -0.04600
N 	N 	0.55470 0.72190 0.83720 0.00000
O 	O 	0.11420 0.61220 0.71850 -0.03600
O 	O 	0.16510 0.57450 0.67640 -0.06300
O 	O 	0.41580 0.60230 0.84180 -0.05000
O 	O 	0.38170 0.50600 0.77960 -0.05700
O 	O 	0.29410 0.76570 0.63840 0.20300
O 	O 	0.29600 0.74640 0.71570 0.03100
O 	O 	0.55110 0.64880 0.85570 -0.06400
O 	O 	0.59980 0.75710 0.82830 -0.06300
O 	O 	0.46270 0.98790 0.71500 -0.06600
O 	O 	0.36650 0.95890 0.69910 -0.03200
Gd	Gd	0.14046 0.23614 0.48561 1.34700
C 	C 	0.26860 0.19440 0.59115 0.41200
C 	C 	0.25540 0.16000 0.64340 -0.05800
C 	C 	0.19820 0.13250 0.64550 -0.03400
H 	H 	0.16750 0.13480 0.61440 0.06500
C 	C 	0.18710 0.10160 0.69404 0.08600
C 	C 	0.23060 0.09680 0.74257 0.01900
C 	C 	0.28730 0.12530 0.73852 0.09600
C 	C 	0.30020 0.15540 0.69024 -0.04000
H 	H 	0.33890 0.17260 0.68940 0.09600
C 	C 	0.21650 0.06410 0.79487 -0.01300
C 	C 	0.21320 0.97540 0.80714 0.11800
C 	C 	0.19810 0.94440 0.85412 -0.08500
H 	H 	0.19670 0.88430 0.86040 0.09800
C 	C 	0.18510 0.00330 0.89164 0.01200
C 	C 	0.18810 0.09210 0.88179 -0.09200
H 	H 	0.17960 0.13270 0.90670 0.11800
C 	C 	0.20370 0.12050 0.83442 0.14000
C 	C 	0.16470 0.96990 0.94135 0.31000
C 	C 	0.12700 0.32510 0.60690 0.33400
C 	C 	0.04080 0.26800 0.64370 -0.08100
H 	H 	0.03040 0.23220 0.61310 0.10100
C 	C 	0.08970 0.32230 0.64990 0.00400
C 	C 	0.10450 0.37460 0.69550 -0.08400
H 	H 	0.13790 0.41100 0.70070 0.12400
C 	C 	0.06890 0.37240 0.73368 0.12500
C 	C 	0.01910 0.31920 0.72910 0.00100
C 	C 	0.00740 0.26690 0.68310 0.12000
N 	N 	0.12532 0.07380 0.69227 0.00800
N 	N 	0.33760 0.12200 0.78604 0.00700
N 	N 	0.22310 0.90920 0.76721 -0.00900
N 	N 	0.20400 0.21590 0.82575 -0.04100
N 	N 	0.08620 0.42900 0.78050 0.00500
N 	N 	0.96580 0.19140 0.68610 0.00000
O 	O 	0.22569 0.19930 0.55075 -0.43500
O 	O 	0.32163 0.21470 0.59141 -0.41900
O 	O 	0.38430 0.16560 0.78280 -0.05400
O 	O 	0.32390 0.13860 0.83170 -0.04400
O 	O 	0.09210 0.06320 0.65070 -0.05000
O 	O 	0.10820 0.09120 0.73700 -0.04700
O 	O 	0.23040 0.25850 0.87120 -0.25900
O 	O 	0.17680 0.24070 0.77450 -0.09600
O 	O 	0.25689 0.92850 0.73732 -0.07600
O 	O 	0.19648 0.83890 0.76619 -0.08300
O 	O 	0.18329 0.89400 0.95761 -0.37500
O 	O 	0.13138 0.01740 0.96188 -0.23700
O 	O 	0.10703 0.28120 0.56432 -0.41100
O 	O 	0.17297 0.37090 0.61696 -0.25100
O 	O 	0.93760 0.17460 0.63680 -0.01400
O 	O 	0.95430 0.16300 0.72700 -0.04900
O 	O 	0.08470 0.38440 0.82530 -0.06900
O 	O 	0.11250 0.48790 0.78070 -0.04600
N 	N 	0.94530 0.22190 0.66280 0.00000
O 	O 	0.38580 0.11220 0.78150 -0.03600
O 	O 	0.33490 0.07450 0.82360 -0.06300
O 	O 	0.08420 0.10230 0.65820 -0.05000
O 	O 	0.11830 0.00600 0.72040 -0.05800
O 	O 	0.20590 0.26570 0.86160 0.20200
O 	O 	0.20400 0.24640 0.78430 0.03100
O 	O 	0.94890 0.14880 0.64430 -0.06400
O 	O 	0.90020 0.25710 0.67170 -0.06300
O 	O 	0.03730 0.48790 0.78500 -0.06600
O 	O 	0.13350 0.45890 0.80090 -0.03200
Gd	Gd	0.64046 0.73614 0.48561 1.34700
C 	C 	0.76860 0.69440 0.59115 0.41200
C 	C 	0.75540 0.66000 0.64340 -0.05800
C 	C 	0.69820 0.63250 0.64550 -0.03400
H 	H 	0.66750 0.63480 0.61440 0.06500
C 	C 	0.68710 0.60160 0.69404 0.08600
C 	C 	0.73060 0.59680 0.74257 0.01900
C 	C 	0.78730 0.62530 0.73852 0.09600
C 	C 	0.80020 0.65540 0.69024 -0.04000
H 	H 	0.83890 0.67260 0.68940 0.09600
C 	C 	0.71650 0.56410 0.79487 -0.01300
C 	C 	0.71320 0.47540 0.80714 0.11900
C 	C 	0.69810 0.44440 0.85412 -0.08400
H 	H 	0.69670 0.38430 0.86040 0.09800
C 	C 	0.68510 0.50330 0.89164 0.01000
C 	C 	0.68810 0.59210 0.88179 -0.09100
H 	H 	0.67960 0.63270 0.90670 0.11800
C 	C 	0.70370 0.62050 0.83442 0.14000
C 	C 	0.66470 0.46990 0.94135 0.31200
C 	C 	0.62700 0.82510 0.60690 0.33400
C 	C 	0.54080 0.76800 0.64370 -0.08100
H 	H 	0.53040 0.73220 0.61310 0.10100
C 	C 	0.58970 0.82230 0.64990 0.00400
C 	C 	0.60450 0.87460 0.69550 -0.08400
H 	H 	0.63790 0.91100 0.70070 0.12400
C 	C 	0.56890 0.87240 0.73368 0.12500
C 	C 	0.51910 0.81920 0.72910 0.00200
C 	C 	0.50740 0.76690 0.68310 0.12000
N 	N 	0.62532 0.57380 0.69227 0.00800
N 	N 	0.83760 0.62200 0.78604 0.00700
N 	N 	0.72310 0.40920 0.76721 -0.00900
N 	N 	0.70400 0.71590 0.82575 -0.04100
N 	N 	0.58620 0.92900 0.78050 0.00500
N 	N 	0.46580 0.69140 0.68610 -0.00000
O 	O 	0.72569 0.69930 0.55075 -0.43500
O 	O 	0.82163 0.71470 0.59141 -0.41900
O 	O 	0.88430 0.66560 0.78280 -0.05400
O 	O 	0.82390 0.63860 0.83170 -0.04400
O 	O 	0.59210 0.56320 0.65070 -0.05000
O 	O 	0.60820 0.59120 0.73700 -0.04700
O 	O 	0.73040 0.75850 0.87120 -0.25900
O 	O 	0.67680 0.74070 0.77450 -0.09600
O 	O 	0.75689 0.42850 0.73732 -0.07600
O 	O 	0.69648 0.33890 0.76619 -0.08300
O 	O 	0.68329 0.39400 0.95761 -0.37500
O 	O 	0.63138 0.51740 0.96188 -0.23700
O 	O 	0.60703 0.78120 0.56432 -0.41100
O 	O 	0.67297 0.87090 0.61696 -0.25100
O 	O 	0.43760 0.67460 0.63680 -0.01400
O 	O 	0.45430 0.66300 0.72700 -0.04900
O 	O 	0.58470 0.88440 0.82530 -0.06900
O 	O 	0.61250 0.98790 0.78070 -0.04600
N 	N 	0.44530 0.72190 0.66280 0.00000
O 	O 	0.88580 0.61220 0.78150 -0.03600
O 	O 	0.83490 0.57450 0.82360 -0.06300
O 	O 	0.58420 0.60230 0.65820 -0.05000
O 	O 	0.61830 0.50600 0.72040 -0.05800
O 	O 	0.70590 0.76570 0.86160 0.20200
O 	O 	0.70400 0.74640 0.78430 0.03100
O 	O 	0.44890 0.64880 0.64430 -0.06400
O 	O 	0.40020 0.75710 0.67170 -0.06300
O 	O 	0.53730 0.98790 0.78500 -0.06600
O 	O 	0.63350 0.95890 0.80090 -0.03200
Gd	Gd	0.14046 0.76386 0.98561 1.34700
C 	C 	0.26860 0.80560 0.09115 0.41200
C 	C 	0.25540 0.84000 0.14340 -0.05800
C 	C 	0.19820 0.86750 0.14550 -0.03400
H 	H 	0.16750 0.86520 0.11440 0.06500
C 	C 	0.18710 0.89840 0.19404 0.08600
C 	C 	0.23060 0.90320 0.24257 0.01900
C 	C 	0.28730 0.87470 0.23852 0.09600
C 	C 	0.30020 0.84460 0.19024 -0.04000
H 	H 	0.33890 0.82740 0.18940 0.09600
C 	C 	0.21650 0.93590 0.29487 -0.01200
C 	C 	0.21320 0.02460 0.30714 0.11800
C 	C 	0.19810 0.05560 0.35412 -0.08400
H 	H 	0.19670 0.11570 0.36040 0.09800
C 	C 	0.18510 0.99670 0.39164 0.01000
C 	C 	0.18810 0.90790 0.38179 -0.09100
H 	H 	0.17960 0.86730 0.40670 0.11800
C 	C 	0.20370 0.87950 0.33442 0.14000
C 	C 	0.16470 0.03010 0.44135 0.31100
C 	C 	0.12700 0.67490 0.10690 0.33400
C 	C 	0.04080 0.73200 0.14370 -0.08100
H 	H 	0.03040 0.76780 0.11310 0.10100
C 	C 	0.08970 0.67770 0.14990 0.00400
C 	C 	0.10450 0.62540 0.19550 -0.08400
H 	H 	0.13790 0.58900 0.20070 0.12400
C 	C 	0.06890 0.62760 0.23368 0.12500
C 	C 	0.01910 0.68080 0.22910 0.00200
C 	C 	0.00740 0.73310 0.18310 0.12100
N 	N 	0.12532 0.92620 0.19227 0.00800
N 	N 	0.33760 0.87800 0.28604 0.00700
N 	N 	0.22310 0.09080 0.26721 -0.00900
N 	N 	0.20400 0.78410 0.32575 -0.04100
N 	N 	0.08620 0.57100 0.28050 0.00500
N 	N 	0.96580 0.80860 0.18610 -0.00000
O 	O 	0.22569 0.80070 0.05075 -0.43400
O 	O 	0.32163 0.78530 0.09141 -0.41900
O 	O 	0.38430 0.83440 0.28280 -0.05400
O 	O 	0.32390 0.86140 0.33170 -0.04400
O 	O 	0.09210 0.93680 0.15070 -0.04900
O 	O 	0.10820 0.90880 0.23700 -0.04700
O 	O 	0.23040 0.74150 0.37120 -0.26000
O 	O 	0.17680 0.75930 0.27450 -0.09600
O 	O 	0.25689 0.07150 0.23732 -0.07600
O 	O 	0.19648 0.16110 0.26619 -0.08300
O 	O 	0.18329 0.10600 0.45761 -0.37500
O 	O 	0.13138 0.98260 0.46188 -0.23800
O 	O 	0.10703 0.71880 0.06432 -0.41100
O 	O 	0.17297 0.62910 0.11696 -0.25000
O 	O 	0.93760 0.82540 0.13680 -0.01400
O 	O 	0.95430 0.83700 0.22700 -0.04900
O 	O 	0.08470 0.61560 0.32530 -0.06900
O 	O 	0.11250 0.51210 0.28070 -0.04600
N 	N 	0.94530 0.77810 0.16280 0.00000
O 	O 	0.38580 0.88780 0.28150 -0.03600
O 	O 	0.33490 0.92550 0.32360 -0.06300
O 	O 	0.08420 0.89770 0.15820 -0.05000
O 	O 	0.11830 0.99400 0.22040 -0.05700
O 	O 	0.20590 0.73430 0.36160 0.20300
O 	O 	0.20400 0.75360 0.28430 0.03100
O 	O 	0.94890 0.85120 0.14430 -0.06400
O 	O 	0.90020 0.74290 0.17170 -0.06300
O 	O 	0.03730 0.51210 0.28500 -0.06500
O 	O 	0.13350 0.54110 0.30090 -0.03200
Gd	Gd	0.64046 0.26386 0.98561 1.35000
C 	C 	0.76860 0.30560 0.09115 0.41300
C 	C 	0.75540 0.34000 0.14340 -0.05800
C 	C 	0.69820 0.36750 0.14550 -0.03400
H 	H 	0.66750 0.36520 0.11440 0.06500
C 	C 	0.68710 0.39840 0.19404 0.08600
C 	C 	0.73060 0.40320 0.24257 0.01900
C 	C 	0.78730 0.37470 0.23852 0.09600
C 	C 	0.80020 0.34460 0.19024 -0.04000
H 	H 	0.83890 0.32740 0.18940 0.09600
C 	C 	0.71650 0.43590 0.29487 -0.01300
C 	C 	0.71320 0.52460 0.30714 0.11900
C 	C 	0.69810 0.55560 0.35412 -0.08400
H 	H 	0.69670 0.61570 0.36040 0.09800
C 	C 	0.68510 0.49670 0.39164 0.01000
C 	C 	0.68810 0.40790 0.38179 -0.09100
H 	H 	0.67960 0.36730 0.40670 0.11800
C 	C 	0.70370 0.37950 0.33442 0.14000
C 	C 	0.66470 0.53010 0.44135 0.31200
C 	C 	0.62700 0.17490 0.10690 0.33400
C 	C 	0.54080 0.23200 0.14370 -0.08100
H 	H 	0.53040 0.26780 0.11310 0.10100
C 	C 	0.58970 0.17770 0.14990 0.00400
C 	C 	0.60450 0.12540 0.19550 -0.08400
H 	H 	0.63790 0.08900 0.20070 0.12400
C 	C 	0.56890 0.12760 0.23368 0.12500
C 	C 	0.51910 0.18080 0.22910 0.00200
C 	C 	0.50740 0.23310 0.18310 0.12000
N 	N 	0.62532 0.42620 0.19227 0.00800
N 	N 	0.83760 0.37800 0.28604 0.00700
N 	N 	0.72310 0.59080 0.26721 -0.00900
N 	N 	0.70400 0.28410 0.32575 -0.04100
N 	N 	0.58620 0.07100 0.28050 0.00500
N 	N 	0.46580 0.30860 0.18610 -0.00000
O 	O 	0.72569 0.30070 0.05075 -0.43500
O 	O 	0.82163 0.28530 0.09141 -0.41900
O 	O 	0.88430 0.33440 0.28280 -0.05400
O 	O 	0.82390 0.36140 0.33170 -0.04400
O 	O 	0.59210 0.43680 0.15070 -0.05000
O 	O 	0.60820 0.40880 0.23700 -0.04700
O 	O 	0.73040 0.24150 0.37120 -0.26000
O 	O 	0.67680 0.25930 0.27450 -0.09600
O 	O 	0.75689 0.57150 0.23732 -0.07600
O 	O 	0.69648 0.66110 0.26619 -0.08300
O 	O 	0.68329 0.60600 0.45761 -0.37500
O 	O 	0.63138 0.48260 0.46188 -0.23800
O 	O 	0.60703 0.21880 0.06432 -0.41100
O 	O 	0.67297 0.12910 0.11696 -0.25100
O 	O 	0.43760 0.32540 0.13680 -0.01400
O 	O 	0.45430 0.33700 0.22700 -0.04900
O 	O 	0.58470 0.11560 0.32530 -0.06900
O 	O 	0.61250 0.01210 0.28070 -0.04600
N 	N 	0.44530 0.27810 0.16280 0.00000
O 	O 	0.88580 0.38780 0.28150 -0.03600
O 	O 	0.83490 0.42550 0.32360 -0.06300
O 	O 	0.58420 0.39770 0.15820 -0.05000
O 	O 	0.61830 0.49400 0.22040 -0.05700
O 	O 	0.70590 0.23430 0.36160 0.20300
O 	O 	0.70400 0.25360 0.28430 0.03100
O 	O 	0.44890 0.35120 0.14430 -0.06400
O 	O 	0.40020 0.24290 0.17170 -0.06300
O 	O 	0.53730 0.01210 0.28500 -0.06600
O 	O 	0.63350 0.04110 0.30090 -0.03200
Gd	Gd	0.85954 0.76386 0.51439 1.34700
C 	C 	0.73140 0.80560 0.40885 0.41200
C 	C 	0.74460 0.84000 0.35660 -0.05800
C 	C 	0.80180 0.86750 0.35450 -0.03400
H 	H 	0.83250 0.86520 0.38560 0.06500
C 	C 	0.81290 0.89840 0.30596 0.08600
C 	C 	0.76940 0.90320 0.25743 0.01900
C 	C 	0.71270 0.87470 0.26148 0.09600
C 	C 	0.69980 0.84460 0.30976 -0.04000
H 	H 	0.66110 0.82740 0.31060 0.09600
C 	C 	0.78350 0.93590 0.20513 -0.01300
C 	C 	0.78680 0.02460 0.19286 0.11800
C 	C 	0.80190 0.05560 0.14588 -0.08500
H 	H 	0.80330 0.11570 0.13960 0.09800
C 	C 	0.81490 0.99670 0.10836 0.01200
C 	C 	0.81190 0.90790 0.11821 -0.09200
H 	H 	0.82040 0.86730 0.09330 0.11800
C 	C 	0.79630 0.87950 0.16558 0.14000
C 	C 	0.83530 0.03010 0.05865 0.31000
C 	C 	0.87300 0.67490 0.39310 0.33400
C 	C 	0.95920 0.73200 0.35630 -0.08100
H 	H 	0.96960 0.76780 0.38690 0.10100
C 	C 	0.91030 0.67770 0.35010 0.00400
C 	C 	0.89550 0.62540 0.30450 -0.08400
H 	H 	0.86210 0.58900 0.29930 0.12400
C 	C 	0.93110 0.62760 0.26632 0.12500
C 	C 	0.98090 0.68080 0.27090 0.00100
C 	C 	0.99260 0.73310 0.31690 0.12000
N 	N 	0.87468 0.92620 0.30773 0.00800
N 	N 	0.66240 0.87800 0.21396 0.00700
N 	N 	0.77690 0.09080 0.23279 -0.00900
N 	N 	0.79600 0.78410 0.17425 -0.04100
N 	N 	0.91380 0.57100 0.21950 0.00500
N 	N 	0.03420 0.80860 0.31390 0.00000
O 	O 	0.77431 0.80070 0.44925 -0.43500
O 	O 	0.67837 0.78530 0.40859 -0.41900
O 	O 	0.61570 0.83440 0.21720 -0.05400
O 	O 	0.67610 0.86140 0.16830 -0.04400
O 	O 	0.90790 0.93680 0.34930 -0.05000
O 	O 	0.89180 0.90880 0.26300 -0.04700
O 	O 	0.76960 0.74150 0.12880 -0.25900
O 	O 	0.82320 0.75930 0.22550 -0.09600
O 	O 	0.74311 0.07150 0.26268 -0.07600
O 	O 	0.80352 0.16110 0.23381 -0.08300
O 	O 	0.81671 0.10600 0.04239 -0.37500
O 	O 	0.86862 0.98260 0.03812 -0.23700
O 	O 	0.89297 0.71880 0.43568 -0.41100
O 	O 	0.82703 0.62910 0.38304 -0.25100
O 	O 	0.06240 0.82540 0.36320 -0.01400
O 	O 	0.04570 0.83700 0.27300 -0.04900
O 	O 	0.91530 0.61560 0.17470 -0.06900
O 	O 	0.88750 0.51210 0.21930 -0.04600
N 	N 	0.05470 0.77810 0.33720 0.00000
O 	O 	0.61420 0.88780 0.21850 -0.03600
O 	O 	0.66510 0.92550 0.17640 -0.06300
O 	O 	0.91580 0.89770 0.34180 -0.05000
O 	O 	0.88170 0.99400 0.27960 -0.05800
O 	O 	0.79410 0.73430 0.13840 0.20200
O 	O 	0.79600 0.75360 0.21570 0.03100
O 	O 	0.05110 0.85120 0.35570 -0.06400
O 	O 	0.09980 0.74290 0.32830 -0.06300
O 	O 	0.96270 0.51210 0.21500 -0.06600
O 	O 	0.86650 0.54110 0.19910 -0.03200
Gd	Gd	0.35954 0.26386 0.51439 1.34700
C 	C 	0.23140 0.30560 0.40885 0.41200
C 	C 	0.24460 0.34000 0.35660 -0.05800
C 	C 	0.30180 0.36750 0.35450 -0.03400
H 	H 	0.33250 0.36520 0.38560 0.06500
C 	C 	0.31290 0.39840 0.30596 0.08600
C 	C 	0.26940 0.40320 0.25743 0.01900
C 	C 	0.21270 0.37470 0.26148 0.09600
C 	C 	0.19980 0.34460 0.30976 -0.04000
H 	H 	0.16110 0.32740 0.31060 0.09600
C 	C 	0.28350 0.43590 0.20513 -0.01300
C 	C 	0.28680 0.52460 0.19286 0.11900
C 	C 	0.30190 0.55560 0.14588 -0.08400
H 	H 	0.30330 0.61570 0.13960 0.09800
C 	C 	0.31490 0.49670 0.10836 0.01000
C 	C 	0.31190 0.40790 0.11821 -0.09100
H 	H 	0.32040 0.36730 0.09330 0.11800
C 	C 	0.29630 0.37950 0.16558 0.14000
C 	C 	0.33530 0.53010 0.05865 0.31200
C 	C 	0.37300 0.17490 0.39310 0.33400
C 	C 	0.45920 0.23200 0.35630 -0.08100
H 	H 	0.46960 0.26780 0.38690 0.10100
C 	C 	0.41030 0.17770 0.35010 0.00400
C 	C 	0.39550 0.12540 0.30450 -0.08400
H 	H 	0.36210 0.08900 0.29930 0.12400
C 	C 	0.43110 0.12760 0.26632 0.12500
C 	C 	0.48090 0.18080 0.27090 0.00200
C 	C 	0.49260 0.23310 0.31690 0.12000
N 	N 	0.37468 0.42620 0.30773 0.00800
N 	N 	0.16240 0.37800 0.21396 0.00700
N 	N 	0.27690 0.59080 0.23279 -0.00900
N 	N 	0.29600 0.28410 0.17425 -0.04100
N 	N 	0.41380 0.07100 0.21950 0.00500
N 	N 	0.53420 0.30860 0.31390 -0.00000
O 	O 	0.27431 0.30070 0.44925 -0.43500
O 	O 	0.17837 0.28530 0.40859 -0.41900
O 	O 	0.11570 0.33440 0.21720 -0.05400
O 	O 	0.17610 0.36140 0.16830 -0.04400
O 	O 	0.40790 0.43680 0.34930 -0.05000
O 	O 	0.39180 0.40880 0.26300 -0.04700
O 	O 	0.26960 0.24150 0.12880 -0.25900
O 	O 	0.32320 0.25930 0.22550 -0.09600
O 	O 	0.24311 0.57150 0.26268 -0.07600
O 	O 	0.30352 0.66110 0.23381 -0.08300
O 	O 	0.31671 0.60600 0.04239 -0.37500
O 	O 	0.36862 0.48260 0.03812 -0.23700
O 	O 	0.39297 0.21880 0.43568 -0.41100
O 	O 	0.32703 0.12910 0.38304 -0.25100
O 	O 	0.56240 0.32540 0.36320 -0.01400
O 	O 	0.54570 0.33700 0.27300 -0.04900
O 	O 	0.41530 0.11560 0.17470 -0.06900
O 	O 	0.38750 0.01210 0.21930 -0.04600
N 	N 	0.55470 0.27810 0.33720 0.00000
O 	O 	0.11420 0.38780 0.21850 -0.03600
O 	O 	0.16510 0.42550 0.17640 -0.06300
O 	O 	0.41580 0.39770 0.34180 -0.05000
O 	O 	0.38170 0.49400 0.27960 -0.05800
O 	O 	0.29410 0.23430 0.13840 0.20200
O 	O 	0.29600 0.25360 0.21570 0.03100
O 	O 	0.55110 0.35120 0.35570 -0.06400
O 	O 	0.59980 0.24290 0.32830 -0.06300
O 	O 	0.46270 0.01210 0.21500 -0.06600
O 	O 	0.36650 0.04110 0.19910 -0.03200
