data_crystal

_cell_length_a 24.19700
_cell_length_b 24.19700
_cell_length_c 13.14260
_cell_angle_alpha 90.00000
_cell_angle_beta  90.00000
_cell_angle_gamma 120.00000

_symmetry_space_group_name_	'P 1'
_symmetry_space_group_name_H-M	'P 1'

loop_
_symmetry_equiv_pos_as_xyz
  x,y,z

loop_
_atom_site_label
_atom_site_type_symbol
_atom_site_fract_x
_atom_site_fract_y
_atom_site_fract_z
_atom_site_charge
O 	O 	0.76426 0.03560 0.10840 -0.40000
O 	O 	0.71559 0.06953 0.00170 -0.46500
O 	O 	0.99360 0.56750 0.08420 -0.41600
C 	C 	0.94160 0.25220 0.01240 0.20500
C 	C 	0.88440 0.24670 0.97610 -0.23100
H 	H 	0.88440 0.28120 0.94540 0.12000
C 	C 	0.82750 0.18850 0.98680 0.14100
H 	H 	0.79010 0.18490 0.96130 -0.02200
C 	C 	0.82530 0.13790 0.03280 -0.19300
C 	C 	0.94060 0.20020 0.06230 -0.21800
H 	H 	0.97780 0.20370 0.08840 0.11800
C 	C 	0.88210 0.14300 0.07210 0.11800
H 	H 	0.88070 0.10820 0.10460 0.00400
C 	C 	0.76610 0.07630 0.04860 0.36600
C 	C 	0.97270 0.38400 0.07890 -0.21900
H 	H 	0.95300 0.35500 0.13150 0.11800
C 	C 	0.97470 0.44180 0.07980 0.18900
H 	H 	0.95860 0.45280 0.13550 -0.01800
O 	O 	0.43093 0.36893 0.44173 -0.38800
O 	O 	0.38226 0.40286 0.33503 -0.45800
O 	O 	0.66027 0.90083 0.41753 -0.44800
C 	C 	0.60827 0.58553 0.34573 0.16700
C 	C 	0.55107 0.58003 0.30943 -0.21000
H 	H 	0.55107 0.61453 0.27873 0.10600
C 	C 	0.49417 0.52183 0.32013 0.12500
H 	H 	0.45677 0.51823 0.29463 -0.01700
C 	C 	0.49197 0.47123 0.36613 -0.18000
C 	C 	0.60727 0.53353 0.39563 -0.19900
H 	H 	0.64447 0.53703 0.42173 0.10100
C 	C 	0.54877 0.47633 0.40543 0.10100
H 	H 	0.54737 0.44153 0.43793 0.01000
C 	C 	0.43277 0.40963 0.38193 0.36200
C 	C 	0.63937 0.71733 0.41223 -0.26500
H 	H 	0.61967 0.68833 0.46483 0.12800
C 	C 	0.64137 0.77513 0.41313 0.16400
H 	H 	0.62527 0.78613 0.46883 -0.01600
O 	O 	0.09759 0.70227 0.77507 -0.39300
O 	O 	0.04892 0.73620 0.66837 -0.46700
O 	O 	0.32693 0.23417 0.75087 -0.45800
C 	C 	0.27493 0.91887 0.67907 0.17300
C 	C 	0.21773 0.91337 0.64277 -0.21200
H 	H 	0.21773 0.94787 0.61207 0.11400
C 	C 	0.16083 0.85517 0.65347 0.12900
H 	H 	0.12343 0.85157 0.62797 -0.01800
C 	C 	0.15863 0.80457 0.69947 -0.18300
C 	C 	0.27393 0.86687 0.72897 -0.20000
H 	H 	0.31113 0.87037 0.75507 0.10200
C 	C 	0.21543 0.80967 0.73877 0.10400
H 	H 	0.21403 0.77487 0.77127 0.01000
C 	C 	0.09943 0.74297 0.71527 0.36400
C 	C 	0.30603 0.05067 0.74557 -0.24200
H 	H 	0.28633 0.02167 0.79817 0.10900
C 	C 	0.30803 0.10847 0.74647 0.14200
H 	H 	0.29193 0.11947 0.80217 -0.01200
O 	O 	0.96440 0.72866 0.10840 -0.37200
O 	O 	0.93047 0.64606 0.00170 -0.45200
O 	O 	0.43250 0.42610 0.08420 -0.45800
C 	C 	0.74780 0.68940 0.01240 0.16100
C 	C 	0.75330 0.63770 0.97610 -0.20300
H 	H 	0.71880 0.60320 0.94540 0.10600
C 	C 	0.81150 0.63900 0.98680 0.12600
H 	H 	0.81510 0.60520 0.96130 -0.01600
C 	C 	0.86210 0.68740 0.03280 -0.18000
C 	C 	0.79980 0.74040 0.06230 -0.19500
H 	H 	0.79630 0.77410 0.08840 0.10100
C 	C 	0.85700 0.73910 0.07210 0.10000
H 	H 	0.89180 0.77250 0.10460 0.01600
C 	C 	0.92370 0.68980 0.04860 0.36100
C 	C 	0.61600 0.58870 0.07890 -0.26400
H 	H 	0.64500 0.59800 0.13150 0.12700
C 	C 	0.55820 0.53290 0.07980 0.16400
H 	H 	0.54720 0.50580 0.13550 -0.01700
O 	O 	0.63107 0.06199 0.44173 -0.38500
O 	O 	0.59714 0.97939 0.33503 -0.43300
O 	O 	0.09917 0.75943 0.41753 -0.46000
C 	C 	0.41447 0.02273 0.34573 0.14000
C 	C 	0.41997 0.97103 0.30943 -0.18400
H 	H 	0.38547 0.93653 0.27873 0.10200
C 	C 	0.47817 0.97233 0.32013 0.15600
H 	H 	0.48177 0.93853 0.29463 -0.02300
C 	C 	0.52877 0.02073 0.36613 -0.20800
C 	C 	0.46647 0.07373 0.39563 -0.19500
H 	H 	0.46297 0.10743 0.42173 0.09900
C 	C 	0.52367 0.07243 0.40543 0.10300
H 	H 	0.55847 0.10583 0.43793 0.00900
C 	C 	0.59037 0.02313 0.38193 0.33900
C 	C 	0.28267 0.92203 0.41223 -0.29000
H 	H 	0.31167 0.93133 0.46483 0.14100
C 	C 	0.22487 0.86623 0.41313 0.18500
H 	H 	0.21387 0.83913 0.46883 -0.02400
O 	O 	0.29773 0.39533 0.77507 -0.38700
O 	O 	0.26380 0.31273 0.66837 -0.46000
O 	O 	0.76583 0.09277 0.75087 -0.46200
C 	C 	0.08113 0.35607 0.67907 0.16400
C 	C 	0.08663 0.30437 0.64277 -0.21000
H 	H 	0.05213 0.26987 0.61207 0.09800
C 	C 	0.14483 0.30567 0.65347 0.12300
H 	H 	0.14843 0.27187 0.62797 -0.01900
C 	C 	0.19543 0.35407 0.69947 -0.18000
C 	C 	0.13313 0.40707 0.72897 -0.19700
H 	H 	0.12963 0.44077 0.75507 0.10100
C 	C 	0.19033 0.40577 0.73877 0.10000
H 	H 	0.22513 0.43917 0.77127 0.01100
C 	C 	0.25703 0.35647 0.71527 0.36200
C 	C 	0.94933 0.25537 0.74557 -0.29100
H 	H 	0.97833 0.26467 0.79817 0.14700
C 	C 	0.89153 0.19957 0.74647 0.18700
H 	H 	0.88053 0.17247 0.80217 -0.02400
O 	O 	0.27134 0.23574 0.10840 -0.39100
O 	O 	0.35394 0.28441 0.00170 -0.46200
O 	O 	0.57390 0.00640 0.08420 -0.46400
C 	C 	0.31060 0.05840 0.01240 0.15900
C 	C 	0.36230 0.11560 0.97610 -0.20600
H 	H 	0.39680 0.11560 0.94540 0.10500
C 	C 	0.36100 0.17250 0.98680 0.12900
H 	H 	0.39480 0.20990 0.96130 -0.01700
C 	C 	0.31260 0.17470 0.03280 -0.18700
C 	C 	0.25960 0.05940 0.06230 -0.20200
H 	H 	0.22590 0.02220 0.08840 0.08900
C 	C 	0.26090 0.11790 0.07210 0.10000
H 	H 	0.22750 0.11930 0.10460 0.00500
C 	C 	0.31020 0.23390 0.04860 0.36300
C 	C 	0.41130 0.02730 0.07890 -0.25400
H 	H 	0.40200 0.04700 0.13150 0.12100
C 	C 	0.46710 0.02530 0.07980 0.15800
H 	H 	0.49420 0.04140 0.13550 -0.01800
O 	O 	0.93801 0.56907 0.44173 -0.38400
O 	O 	0.02061 0.61774 0.33503 -0.48200
O 	O 	0.24057 0.33973 0.41753 -0.45800
C 	C 	0.97727 0.39173 0.34573 0.19900
C 	C 	0.02897 0.44893 0.30943 -0.23900
H 	H 	0.06347 0.44893 0.27873 0.11200
C 	C 	0.02767 0.50583 0.32013 0.09100
H 	H 	0.06147 0.54323 0.29463 -0.01000
C 	C 	0.97927 0.50803 0.36613 -0.14900
C 	C 	0.92627 0.39273 0.39563 -0.20300
H 	H 	0.89257 0.35553 0.42173 0.10200
C 	C 	0.92757 0.45123 0.40543 0.09900
H 	H 	0.89417 0.45263 0.43793 0.01200
C 	C 	0.97687 0.56723 0.38193 0.38600
C 	C 	0.07797 0.36063 0.41223 -0.24300
H 	H 	0.06867 0.38033 0.46483 0.11500
C 	C 	0.13377 0.35863 0.41313 0.14500
H 	H 	0.16087 0.37473 0.46883 -0.01100
O 	O 	0.60467 0.90241 0.77507 -0.37900
O 	O 	0.68727 0.95108 0.66837 -0.44000
O 	O 	0.90723 0.67307 0.75087 -0.45300
C 	C 	0.64393 0.72507 0.67907 0.16600
C 	C 	0.69563 0.78227 0.64277 -0.20600
H 	H 	0.73013 0.78227 0.61207 0.10800
C 	C 	0.69433 0.83917 0.65347 0.12100
H 	H 	0.72813 0.87657 0.62797 -0.01000
C 	C 	0.64593 0.84137 0.69947 -0.17500
C 	C 	0.59293 0.72607 0.72897 -0.19600
H 	H 	0.55923 0.68887 0.75507 0.10000
C 	C 	0.59423 0.78457 0.73877 0.09800
H 	H 	0.56083 0.78597 0.77127 0.01200
C 	C 	0.64353 0.90057 0.71527 0.35800
C 	C 	0.74463 0.69397 0.74557 -0.26300
H 	H 	0.73533 0.71367 0.79817 0.12800
C 	C 	0.80043 0.69197 0.74647 0.16400
H 	H 	0.82753 0.70807 0.80217 -0.01400
O 	O 	0.03560 0.76426 0.89160 -0.39800
O 	O 	0.06953 0.71559 0.99830 -0.46000
O 	O 	0.56750 0.99360 0.91580 -0.41800
C 	C 	0.25220 0.94160 0.98760 0.21600
C 	C 	0.24670 0.88440 0.02390 -0.24100
H 	H 	0.28120 0.88440 0.05460 0.11900
C 	C 	0.18850 0.82750 0.01320 0.12700
H 	H 	0.18490 0.79010 0.03870 -0.02000
C 	C 	0.13790 0.82530 0.96720 -0.17800
C 	C 	0.20020 0.94060 0.93770 -0.21800
H 	H 	0.20370 0.97780 0.91160 0.12000
C 	C 	0.14300 0.88210 0.92790 0.11500
H 	H 	0.10820 0.88070 0.89540 0.00700
C 	C 	0.07630 0.76610 0.95140 0.36300
C 	C 	0.38400 0.97270 0.92110 -0.21900
H 	H 	0.35500 0.95300 0.86850 0.11900
C 	C 	0.44180 0.97470 0.92020 0.18900
H 	H 	0.45280 0.95860 0.86450 -0.01800
O 	O 	0.70227 0.09759 0.22493 -0.39400
O 	O 	0.73620 0.04892 0.33163 -0.46700
O 	O 	0.23417 0.32693 0.24913 -0.45900
C 	C 	0.91887 0.27493 0.32093 0.17300
C 	C 	0.91337 0.21773 0.35723 -0.21200
H 	H 	0.94787 0.21773 0.38793 0.11500
C 	C 	0.85517 0.16083 0.34653 0.12900
H 	H 	0.85157 0.12343 0.37203 -0.01800
C 	C 	0.80457 0.15863 0.30053 -0.18300
C 	C 	0.86687 0.27393 0.27103 -0.20100
H 	H 	0.87037 0.31113 0.24493 0.10200
C 	C 	0.80967 0.21543 0.26123 0.10400
H 	H 	0.77487 0.21403 0.22873 0.00900
C 	C 	0.74297 0.09943 0.28473 0.36400
C 	C 	0.05067 0.30603 0.25443 -0.24200
H 	H 	0.02167 0.28633 0.20183 0.10800
C 	C 	0.10847 0.30803 0.25353 0.14300
H 	H 	0.11947 0.29193 0.19783 -0.01400
O 	O 	0.36893 0.43093 0.55827 -0.38800
O 	O 	0.40286 0.38226 0.66497 -0.45800
O 	O 	0.90083 0.66027 0.58247 -0.44800
C 	C 	0.58553 0.60827 0.65427 0.16700
C 	C 	0.58003 0.55107 0.69057 -0.21000
H 	H 	0.61453 0.55107 0.72127 0.10700
C 	C 	0.52183 0.49417 0.67987 0.12500
H 	H 	0.51823 0.45677 0.70537 -0.01600
C 	C 	0.47123 0.49197 0.63387 -0.18000
C 	C 	0.53353 0.60727 0.60437 -0.19900
H 	H 	0.53703 0.64447 0.57827 0.10100
C 	C 	0.47633 0.54877 0.59457 0.10100
H 	H 	0.44153 0.54737 0.56207 0.01000
C 	C 	0.40963 0.43277 0.61807 0.36200
C 	C 	0.71733 0.63937 0.58777 -0.26400
H 	H 	0.68833 0.61967 0.53517 0.12700
C 	C 	0.77513 0.64137 0.58687 0.16300
H 	H 	0.78613 0.62527 0.53117 -0.01600
O 	O 	0.72866 0.96440 0.89160 -0.36900
O 	O 	0.64606 0.93047 0.99830 -0.44600
O 	O 	0.42610 0.43250 0.91580 -0.45400
C 	C 	0.68940 0.74780 0.98760 0.17600
C 	C 	0.63770 0.75330 0.02390 -0.21400
H 	H 	0.60320 0.71880 0.05460 0.10700
C 	C 	0.63900 0.81150 0.01320 0.11300
H 	H 	0.60520 0.81510 0.03870 -0.01500
C 	C 	0.68740 0.86210 0.96720 -0.16700
C 	C 	0.74040 0.79980 0.93770 -0.19700
H 	H 	0.77410 0.79630 0.91160 0.10400
C 	C 	0.73910 0.85700 0.92790 0.09800
H 	H 	0.77250 0.89180 0.89540 0.01800
C 	C 	0.68980 0.92370 0.95140 0.35800
C 	C 	0.58870 0.61600 0.92110 -0.25900
H 	H 	0.59800 0.64500 0.86850 0.12600
C 	C 	0.53290 0.55820 0.92020 0.16900
H 	H 	0.50580 0.54720 0.86450 -0.01800
O 	O 	0.39533 0.29773 0.22493 -0.38800
O 	O 	0.31273 0.26380 0.33163 -0.46000
O 	O 	0.09277 0.76583 0.24913 -0.46300
C 	C 	0.35607 0.08113 0.32093 0.16400
C 	C 	0.30437 0.08663 0.35723 -0.21000
H 	H 	0.26987 0.05213 0.38793 0.09800
C 	C 	0.30567 0.14483 0.34653 0.12300
H 	H 	0.27187 0.14843 0.37203 -0.01900
C 	C 	0.35407 0.19543 0.30053 -0.18000
C 	C 	0.40707 0.13313 0.27103 -0.19700
H 	H 	0.44077 0.12963 0.24493 0.10000
C 	C 	0.40577 0.19033 0.26123 0.10000
H 	H 	0.43917 0.22513 0.22873 0.01000
C 	C 	0.35647 0.25703 0.28473 0.36200
C 	C 	0.25537 0.94933 0.25443 -0.29100
H 	H 	0.26467 0.97833 0.20183 0.14600
C 	C 	0.19957 0.89153 0.25353 0.18700
H 	H 	0.17247 0.88053 0.19783 -0.02600
O 	O 	0.06199 0.63107 0.55827 -0.38500
O 	O 	0.97939 0.59714 0.66497 -0.43300
O 	O 	0.75943 0.09917 0.58247 -0.46000
C 	C 	0.02273 0.41447 0.65427 0.14000
C 	C 	0.97103 0.41997 0.69057 -0.18400
H 	H 	0.93653 0.38547 0.72127 0.10200
C 	C 	0.97233 0.47817 0.67987 0.15600
H 	H 	0.93853 0.48177 0.70537 -0.02200
C 	C 	0.02073 0.52877 0.63387 -0.20800
C 	C 	0.07373 0.46647 0.60437 -0.19500
H 	H 	0.10743 0.46297 0.57827 0.09900
C 	C 	0.07243 0.52367 0.59457 0.10300
H 	H 	0.10583 0.55847 0.56207 0.00900
C 	C 	0.02313 0.59037 0.61807 0.33900
C 	C 	0.92203 0.28267 0.58777 -0.29000
H 	H 	0.93133 0.31167 0.53517 0.14100
C 	C 	0.86623 0.22487 0.58687 0.18500
H 	H 	0.83913 0.21387 0.53117 -0.02400
O 	O 	0.23574 0.27134 0.89160 -0.38800
O 	O 	0.28441 0.35394 0.99830 -0.45500
O 	O 	0.00640 0.57390 0.91580 -0.45500
C 	C 	0.05840 0.31060 0.98760 0.17600
C 	C 	0.11560 0.36230 0.02390 -0.21900
H 	H 	0.11560 0.39680 0.05460 0.10700
C 	C 	0.17250 0.36100 0.01320 0.11700
H 	H 	0.20990 0.39480 0.03870 -0.01600
C 	C 	0.17470 0.31260 0.96720 -0.17300
C 	C 	0.05940 0.25960 0.93770 -0.20500
H 	H 	0.02220 0.22590 0.91160 0.09200
C 	C 	0.11790 0.26090 0.92790 0.09900
H 	H 	0.11930 0.22750 0.89540 0.00700
C 	C 	0.23390 0.31020 0.95140 0.36000
C 	C 	0.02730 0.41130 0.92110 -0.24400
H 	H 	0.04700 0.40200 0.86850 0.11900
C 	C 	0.02530 0.46710 0.92020 0.16600
H 	H 	0.04140 0.49420 0.86450 -0.02000
O 	O 	0.90241 0.60467 0.22493 -0.37900
O 	O 	0.95108 0.68727 0.33163 -0.43900
O 	O 	0.67307 0.90723 0.24913 -0.45400
C 	C 	0.72507 0.64393 0.32093 0.16600
C 	C 	0.78227 0.69563 0.35723 -0.20700
H 	H 	0.78227 0.73013 0.38793 0.10800
C 	C 	0.83917 0.69433 0.34653 0.12100
H 	H 	0.87657 0.72813 0.37203 -0.01000
C 	C 	0.84137 0.64593 0.30053 -0.17500
C 	C 	0.72607 0.59293 0.27103 -0.19700
H 	H 	0.68887 0.55923 0.24493 0.10000
C 	C 	0.78457 0.59423 0.26123 0.09800
H 	H 	0.78597 0.56083 0.22873 0.01100
C 	C 	0.90057 0.64353 0.28473 0.35800
C 	C 	0.69397 0.74463 0.25443 -0.26400
H 	H 	0.71367 0.73533 0.20183 0.12800
C 	C 	0.69197 0.80043 0.25353 0.16400
H 	H 	0.70807 0.82753 0.19783 -0.01500
O 	O 	0.56907 0.93801 0.55827 -0.38400
O 	O 	0.61774 0.02061 0.66497 -0.48100
O 	O 	0.33973 0.24057 0.58247 -0.45800
C 	C 	0.39173 0.97727 0.65427 0.19900
C 	C 	0.44893 0.02897 0.69057 -0.23900
H 	H 	0.44893 0.06347 0.72127 0.11200
C 	C 	0.50583 0.02767 0.67987 0.09200
H 	H 	0.54323 0.06147 0.70537 -0.01000
C 	C 	0.50803 0.97927 0.63387 -0.14900
C 	C 	0.39273 0.92627 0.60437 -0.20300
H 	H 	0.35553 0.89257 0.57827 0.10200
C 	C 	0.45123 0.92757 0.59457 0.09900
H 	H 	0.45263 0.89417 0.56207 0.01200
C 	C 	0.56723 0.97687 0.61807 0.38600
C 	C 	0.36063 0.07797 0.58777 -0.24300
H 	H 	0.38033 0.06867 0.53517 0.11500
C 	C 	0.35863 0.13377 0.58687 0.14500
H 	H 	0.37473 0.16087 0.53117 -0.01000
La	La	0.64828 0.98161 0.16667 1.67300
La	La	0.31495 0.31495 0.50000 1.64600
La	La	0.01839 0.66667 0.16667 1.61100
La	La	0.68505 0.00000 0.50000 1.61900
La	La	0.33333 0.35172 0.16667 1.64600
La	La	-0.00000 0.68505 0.50000 1.61800
La	La	0.98161 0.64828 0.83333 1.67700
La	La	0.66667 0.01839 0.83333 1.61500
La	La	0.35172 0.33333 0.83333 1.64900
N 	N 	-0.00000 0.31000 -0.00000 -0.21500
C 	C 	-0.00000 0.36970 -0.00000 0.16300
C 	C 	0.00000 0.48350 -0.00000 -0.26300
C 	C 	0.00000 0.54570 -0.00000 0.37700
N 	N 	0.66667 0.64333 0.33333 -0.19900
C 	C 	0.66667 0.70303 0.33333 0.21600
C 	C 	0.66667 0.81683 0.33333 -0.23000
C 	C 	0.66667 0.87903 0.33333 0.41900
N 	N 	0.33333 0.97667 0.66667 -0.18700
C 	C 	0.33333 0.03637 0.66667 0.17800
C 	C 	0.33333 0.15017 0.66667 -0.22000
C 	C 	0.33333 0.21237 0.66667 0.41400
N 	N 	0.69000 0.69000 -0.00000 -0.20100
C 	C 	0.63030 0.63030 -0.00000 0.20900
C 	C 	0.51650 0.51650 -0.00000 -0.23700
C 	C 	0.45430 0.45430 -0.00000 0.41400
N 	N 	0.35667 0.02333 0.33333 -0.21000
C 	C 	0.29697 0.96363 0.33333 0.25500
C 	C 	0.18317 0.84983 0.33333 -0.24900
C 	C 	0.12097 0.78763 0.33333 0.42500
N 	N 	0.02333 0.35667 0.66667 -0.21000
C 	C 	0.96363 0.29697 0.66667 0.25500
C 	C 	0.84983 0.18317 0.66667 -0.24800
C 	C 	0.78763 0.12097 0.66667 0.42400
N 	N 	0.31000 0.00000 -0.00000 -0.21300
C 	C 	0.36970 0.00000 -0.00000 0.17300
C 	C 	0.48350 0.00000 -0.00000 -0.25600
C 	C 	0.54570 0.00000 -0.00000 0.38700
N 	N 	0.97667 0.33333 0.33333 -0.18700
C 	C 	0.03637 0.33333 0.33333 0.17800
C 	C 	0.15017 0.33333 0.33333 -0.22000
C 	C 	0.21237 0.33333 0.33333 0.41400
N 	N 	0.64333 0.66667 0.66667 -0.19900
C 	C 	0.70303 0.66667 0.66667 0.21600
C 	C 	0.81683 0.66667 0.66667 -0.22900
C 	C 	0.87903 0.66667 0.66667 0.41900
