data_crystal

_cell_length_a 24.31300
_cell_length_b 24.31300
_cell_length_c 13.18400
_cell_angle_alpha 90.00000
_cell_angle_beta  90.00000
_cell_angle_gamma 120.00000

_symmetry_space_group_name_	'P 1'
_symmetry_space_group_name_H-M	'P 1'

loop_
_symmetry_equiv_pos_as_xyz
  x,y,z

loop_
_atom_site_label
_atom_site_type_symbol
_atom_site_fract_x
_atom_site_fract_y
_atom_site_fract_z
_atom_site_charge
O 	O 	0.76740 0.03830 0.10530 -0.40800
O 	O 	0.71920 0.07240 0.99740 -0.44700
O 	O 	0.99920 0.57150 0.08500 -0.44000
C 	C 	0.94240 0.25570 0.01320 0.20500
C 	C 	0.88680 0.25050 0.97430 -0.22600
H 	H 	0.88780 0.28520 0.94270 0.11800
C 	C 	0.82980 0.19350 0.98260 0.13200
H 	H 	0.79270 0.19010 0.95660 -0.01300
C 	C 	0.82840 0.14170 0.02980 -0.18300
C 	C 	0.88400 0.14690 0.06870 0.12100
H 	H 	0.88300 0.11220 0.10030 0.00200
C 	C 	0.94090 0.20390 0.06040 -0.22600
H 	H 	0.97810 0.20740 0.08630 0.11900
C 	C 	0.77050 0.07910 0.04590 0.34100
C 	C 	0.97290 0.38510 0.07550 -0.21600
H 	H 	0.95360 0.35670 0.12870 0.11500
C 	C 	0.97280 0.44240 0.07680 0.16800
H 	H 	0.95370 0.45070 0.13110 -0.01200
O 	O 	0.43407 0.37163 0.43863 -0.39300
O 	O 	0.38587 0.40573 0.33073 -0.44200
O 	O 	0.66587 0.90483 0.41833 -0.47200
C 	C 	0.60907 0.58903 0.34653 0.17600
C 	C 	0.55347 0.58383 0.30763 -0.20900
H 	H 	0.55447 0.61853 0.27603 0.10600
C 	C 	0.49647 0.52683 0.31593 0.11200
H 	H 	0.45937 0.52343 0.28993 -0.00700
C 	C 	0.49507 0.47503 0.36313 -0.16600
C 	C 	0.55067 0.48023 0.40203 0.10300
H 	H 	0.54967 0.44553 0.43363 0.00900
C 	C 	0.60757 0.53723 0.39373 -0.20600
H 	H 	0.64477 0.54073 0.41963 0.10200
C 	C 	0.43717 0.41243 0.37923 0.34000
C 	C 	0.63957 0.71843 0.40883 -0.26600
H 	H 	0.62027 0.69003 0.46203 0.12700
C 	C 	0.63947 0.77573 0.41013 0.15100
H 	H 	0.62037 0.78403 0.46443 -0.01200
O 	O 	0.10073 0.70497 0.77197 -0.39900
O 	O 	0.05253 0.73907 0.66407 -0.45100
O 	O 	0.33253 0.23817 0.75167 -0.48200
C 	C 	0.27573 0.92237 0.67987 0.18100
C 	C 	0.22013 0.91717 0.64097 -0.21000
H 	H 	0.22113 0.95187 0.60937 0.11500
C 	C 	0.16313 0.86017 0.64927 0.11600
H 	H 	0.12603 0.85677 0.62327 -0.00800
C 	C 	0.16173 0.80837 0.69647 -0.16800
C 	C 	0.21733 0.81357 0.73537 0.10600
H 	H 	0.21633 0.77887 0.76697 0.00900
C 	C 	0.27423 0.87057 0.72707 -0.20800
H 	H 	0.31143 0.87407 0.75297 0.10400
C 	C 	0.10383 0.74577 0.71257 0.34200
C 	C 	0.30623 0.05177 0.74217 -0.24200
H 	H 	0.28693 0.02337 0.79537 0.10800
C 	C 	0.30613 0.10907 0.74347 0.13100
H 	H 	0.28703 0.11737 0.79777 -0.00800
O 	O 	0.96170 0.72910 0.10530 -0.37500
O 	O 	0.92760 0.64680 0.99740 -0.42900
O 	O 	0.42850 0.42770 0.08500 -0.48200
C 	C 	0.74430 0.68670 0.01320 0.16500
C 	C 	0.74950 0.63630 0.97430 -0.19700
H 	H 	0.71480 0.60260 0.94270 0.10500
C 	C 	0.80650 0.63630 0.98260 0.11400
H 	H 	0.80990 0.60260 0.95660 -0.00600
C 	C 	0.85830 0.68670 0.02980 -0.16700
C 	C 	0.85310 0.73710 0.06870 0.10000
H 	H 	0.88780 0.77080 0.10030 0.01500
C 	C 	0.79610 0.73700 0.06040 -0.20100
H 	H 	0.79260 0.77070 0.08630 0.10200
C 	C 	0.92090 0.69140 0.04590 0.33400
C 	C 	0.61490 0.58780 0.07550 -0.26300
H 	H 	0.64330 0.59690 0.12870 0.12500
C 	C 	0.55760 0.53040 0.07680 0.15000
H 	H 	0.54930 0.50300 0.13110 -0.01200
O 	O 	0.62837 0.06243 0.43863 -0.39000
O 	O 	0.59427 0.98013 0.33073 -0.41700
O 	O 	0.09517 0.76103 0.41833 -0.48500
C 	C 	0.41097 0.02003 0.34653 0.14400
C 	C 	0.41617 0.96963 0.30763 -0.17700
H 	H 	0.38147 0.93593 0.27603 0.10000
C 	C 	0.47317 0.96963 0.31593 0.13700
H 	H 	0.47657 0.93593 0.28993 -0.01100
C 	C 	0.52497 0.02003 0.36313 -0.19100
C 	C 	0.51977 0.07043 0.40203 0.10200
H 	H 	0.55447 0.10413 0.43363 0.00800
C 	C 	0.46277 0.07033 0.39373 -0.20000
H 	H 	0.45927 0.10403 0.41963 0.10000
C 	C 	0.58757 0.02473 0.37923 0.31700
C 	C 	0.28157 0.92113 0.40883 -0.29300
H 	H 	0.30997 0.93023 0.46203 0.14100
C 	C 	0.22427 0.86373 0.41013 0.17200
H 	H 	0.21597 0.83633 0.46443 -0.01900
O 	O 	0.29503 0.39577 0.77197 -0.39200
O 	O 	0.26093 0.31347 0.66407 -0.44300
O 	O 	0.76183 0.09437 0.75167 -0.48500
C 	C 	0.07763 0.35337 0.67987 0.17200
C 	C 	0.08283 0.30297 0.64097 -0.20900
H 	H 	0.04813 0.26927 0.60937 0.09700
C 	C 	0.13983 0.30297 0.64927 0.11000
H 	H 	0.14323 0.26927 0.62327 -0.00900
C 	C 	0.19163 0.35337 0.69647 -0.16600
C 	C 	0.18643 0.40377 0.73537 0.10200
H 	H 	0.22113 0.43747 0.76697 0.01000
C 	C 	0.12943 0.40367 0.72707 -0.20400
H 	H 	0.12593 0.43737 0.75297 0.10300
C 	C 	0.25423 0.35807 0.71257 0.34000
C 	C 	0.94823 0.25447 0.74217 -0.29400
H 	H 	0.97663 0.26357 0.79537 0.14700
C 	C 	0.89093 0.19707 0.74347 0.17400
H 	H 	0.88263 0.16967 0.79777 -0.01900
O 	O 	0.27090 0.23260 0.10530 -0.39500
O 	O 	0.35320 0.28080 0.99740 -0.43500
O 	O 	0.57230 0.00080 0.08500 -0.48700
C 	C 	0.31330 0.05760 0.01320 0.16100
C 	C 	0.36370 0.11320 0.97430 -0.19800
H 	H 	0.39740 0.11220 0.94270 0.10300
C 	C 	0.36370 0.17020 0.98260 0.11500
H 	H 	0.39740 0.20730 0.95660 -0.00600
C 	C 	0.31330 0.17160 0.02980 -0.17100
C 	C 	0.26290 0.11600 0.06870 0.09900
H 	H 	0.22920 0.11700 0.10030 0.00400
C 	C 	0.26300 0.05910 0.06040 -0.20600
H 	H 	0.22930 0.02190 0.08630 0.08900
C 	C 	0.30860 0.22950 0.04590 0.33300
C 	C 	0.41220 0.02710 0.07550 -0.25100
H 	H 	0.40310 0.04640 0.12870 0.11800
C 	C 	0.46960 0.02720 0.07680 0.13900
H 	H 	0.49700 0.04630 0.13110 -0.01200
O 	O 	0.93757 0.56593 0.43863 -0.38900
O 	O 	0.01987 0.61413 0.33073 -0.46500
O 	O 	0.23897 0.33413 0.41833 -0.48300
C 	C 	0.97997 0.39093 0.34653 0.21000
C 	C 	0.03037 0.44653 0.30763 -0.24200
H 	H 	0.06407 0.44553 0.27603 0.11300
C 	C 	0.03037 0.50353 0.31593 0.08500
H 	H 	0.06407 0.54063 0.28993 -0.00200
C 	C 	0.97997 0.50493 0.36313 -0.13900
C 	C 	0.92957 0.44933 0.40203 0.10300
H 	H 	0.89587 0.45033 0.43363 0.01000
C 	C 	0.92967 0.39243 0.39373 -0.21300
H 	H 	0.89597 0.35523 0.41963 0.10500
C 	C 	0.97527 0.56283 0.37923 0.36400
C 	C 	0.07887 0.36043 0.40883 -0.24200
H 	H 	0.06977 0.37973 0.46203 0.11400
C 	C 	0.13627 0.36053 0.41013 0.13300
H 	H 	0.16367 0.37963 0.46443 -0.00600
O 	O 	0.60423 0.89927 0.77197 -0.38300
O 	O 	0.68653 0.94747 0.66407 -0.42400
O 	O 	0.90563 0.66747 0.75167 -0.47800
C 	C 	0.64663 0.72427 0.67987 0.17400
C 	C 	0.69703 0.77987 0.64097 -0.20500
H 	H 	0.73073 0.77887 0.60937 0.10800
C 	C 	0.69703 0.83687 0.64927 0.10800
H 	H 	0.73073 0.87397 0.62327 0.00000
C 	C 	0.64663 0.83827 0.69647 -0.16100
C 	C 	0.59623 0.78267 0.73537 0.10000
H 	H 	0.56253 0.78367 0.76697 0.01100
C 	C 	0.59633 0.72577 0.72707 -0.20300
H 	H 	0.56263 0.68857 0.75297 0.10200
C 	C 	0.64193 0.89617 0.71257 0.33600
C 	C 	0.74553 0.69377 0.74217 -0.26400
H 	H 	0.73643 0.71307 0.79537 0.12800
C 	C 	0.80293 0.69387 0.74347 0.15100
H 	H 	0.83033 0.71297 0.79777 -0.00900
O 	O 	0.03830 0.76740 0.89470 -0.40700
O 	O 	0.07240 0.71920 0.00260 -0.46000
O 	O 	0.57150 0.99920 0.91500 -0.43700
C 	C 	0.25570 0.94240 0.98680 0.22900
C 	C 	0.25050 0.88680 0.02570 -0.24500
H 	H 	0.28520 0.88780 0.05730 0.12100
C 	C 	0.19350 0.82980 0.01740 0.12200
H 	H 	0.19010 0.79270 0.04340 -0.01200
C 	C 	0.14170 0.82840 0.97020 -0.17200
C 	C 	0.14690 0.88400 0.93130 0.12400
H 	H 	0.11220 0.88300 0.89970 0.00300
C 	C 	0.20390 0.94090 0.93960 -0.23200
H 	H 	0.20740 0.97810 0.91370 0.12400
C 	C 	0.07910 0.77050 0.95410 0.35400
C 	C 	0.38510 0.97290 0.92450 -0.21300
H 	H 	0.35670 0.95360 0.87130 0.11500
C 	C 	0.44240 0.97280 0.92320 0.17300
H 	H 	0.45070 0.95370 0.86890 -0.01200
O 	O 	0.70497 0.10073 0.22803 -0.40000
O 	O 	0.73907 0.05253 0.33593 -0.45100
O 	O 	0.23817 0.33253 0.24833 -0.48300
C 	C 	0.92237 0.27573 0.32013 0.18100
C 	C 	0.91717 0.22013 0.35903 -0.21100
H 	H 	0.95187 0.22113 0.39063 0.11500
C 	C 	0.86017 0.16313 0.35073 0.11600
H 	H 	0.85677 0.12603 0.37673 -0.00800
C 	C 	0.80837 0.16173 0.30353 -0.16900
C 	C 	0.81357 0.21733 0.26463 0.10600
H 	H 	0.77887 0.21633 0.23303 0.00700
C 	C 	0.87057 0.27423 0.27293 -0.20900
H 	H 	0.87407 0.31143 0.24703 0.10400
C 	C 	0.74577 0.10383 0.28743 0.34300
C 	C 	0.05177 0.30623 0.25783 -0.24200
H 	H 	0.02337 0.28693 0.20463 0.10700
C 	C 	0.10907 0.30613 0.25653 0.13100
H 	H 	0.11737 0.28703 0.20223 -0.01000
O 	O 	0.37163 0.43407 0.56137 -0.39300
O 	O 	0.40573 0.38587 0.66927 -0.44200
O 	O 	0.90483 0.66587 0.58167 -0.47200
C 	C 	0.58903 0.60907 0.65347 0.17600
C 	C 	0.58383 0.55347 0.69237 -0.20800
H 	H 	0.61853 0.55447 0.72397 0.10700
C 	C 	0.52683 0.49647 0.68407 0.11200
H 	H 	0.52343 0.45937 0.71007 -0.00600
C 	C 	0.47503 0.49507 0.63687 -0.16600
C 	C 	0.48023 0.55067 0.59797 0.10300
H 	H 	0.44553 0.54967 0.56637 0.00900
C 	C 	0.53723 0.60757 0.60627 -0.20600
H 	H 	0.54073 0.64477 0.58037 0.10200
C 	C 	0.41243 0.43717 0.62077 0.34000
C 	C 	0.71843 0.63957 0.59117 -0.26500
H 	H 	0.69003 0.62027 0.53797 0.12700
C 	C 	0.77573 0.63947 0.58987 0.15100
H 	H 	0.78403 0.62037 0.53557 -0.01200
O 	O 	0.72910 0.96170 0.89470 -0.37600
O 	O 	0.64680 0.92760 0.00260 -0.44300
O 	O 	0.42770 0.42850 0.91500 -0.47500
C 	C 	0.68670 0.74430 0.98680 0.19000
C 	C 	0.63630 0.74950 0.02570 -0.21900
H 	H 	0.60260 0.71480 0.05730 0.10900
C 	C 	0.63630 0.80650 0.01740 0.10500
H 	H 	0.60260 0.80990 0.04340 -0.00600
C 	C 	0.68670 0.85830 0.97020 -0.15700
C 	C 	0.73710 0.85310 0.93130 0.10400
H 	H 	0.77080 0.88780 0.89970 0.01500
C 	C 	0.73700 0.79610 0.93960 -0.20900
H 	H 	0.77070 0.79260 0.91370 0.10800
C 	C 	0.69140 0.92090 0.95410 0.34700
C 	C 	0.58780 0.61490 0.92450 -0.25600
H 	H 	0.59690 0.64330 0.87130 0.12400
C 	C 	0.53040 0.55760 0.92320 0.15700
H 	H 	0.50300 0.54930 0.86890 -0.01300
O 	O 	0.39577 0.29503 0.22803 -0.39400
O 	O 	0.31347 0.26093 0.33593 -0.44400
O 	O 	0.09437 0.76183 0.24833 -0.48600
C 	C 	0.35337 0.07763 0.32013 0.17200
C 	C 	0.30297 0.08283 0.35903 -0.20900
H 	H 	0.26927 0.04813 0.39063 0.09800
C 	C 	0.30297 0.13983 0.35073 0.11000
H 	H 	0.26927 0.14323 0.37673 -0.01000
C 	C 	0.35337 0.19163 0.30353 -0.16600
C 	C 	0.40377 0.18643 0.26463 0.10200
H 	H 	0.43747 0.22113 0.23303 0.00800
C 	C 	0.40367 0.12943 0.27293 -0.20500
H 	H 	0.43737 0.12593 0.24703 0.10200
C 	C 	0.35807 0.25423 0.28743 0.34000
C 	C 	0.25447 0.94823 0.25783 -0.29500
H 	H 	0.26357 0.97663 0.20463 0.14600
C 	C 	0.19707 0.89093 0.25653 0.17400
H 	H 	0.16967 0.88263 0.20223 -0.02100
O 	O 	0.06243 0.62837 0.56137 -0.39000
O 	O 	0.98013 0.59427 0.66927 -0.41700
O 	O 	0.76103 0.09517 0.58167 -0.48400
C 	C 	0.02003 0.41097 0.65347 0.14400
C 	C 	0.96963 0.41617 0.69237 -0.17700
H 	H 	0.93593 0.38147 0.72397 0.10000
C 	C 	0.96963 0.47317 0.68407 0.13800
H 	H 	0.93593 0.47657 0.71007 -0.01000
C 	C 	0.02003 0.52497 0.63687 -0.19100
C 	C 	0.07043 0.51977 0.59797 0.10300
H 	H 	0.10413 0.55447 0.56637 0.00800
C 	C 	0.07033 0.46277 0.60627 -0.20000
H 	H 	0.10403 0.45927 0.58037 0.10000
C 	C 	0.02473 0.58757 0.62077 0.31700
C 	C 	0.92113 0.28157 0.59117 -0.29300
H 	H 	0.93023 0.30997 0.53797 0.14100
C 	C 	0.86373 0.22427 0.58987 0.17200
H 	H 	0.83633 0.21597 0.53557 -0.01900
O 	O 	0.23260 0.27090 0.89470 -0.39500
O 	O 	0.28080 0.35320 0.00260 -0.45000
O 	O 	0.00080 0.57230 0.91500 -0.47800
C 	C 	0.05760 0.31330 0.98680 0.18700
C 	C 	0.11320 0.36370 0.02570 -0.22100
H 	H 	0.11220 0.39740 0.05730 0.10800
C 	C 	0.17020 0.36370 0.01740 0.10600
H 	H 	0.20730 0.39740 0.04340 -0.00600
C 	C 	0.17160 0.31330 0.97020 -0.16100
C 	C 	0.11600 0.26290 0.93130 0.10300
H 	H 	0.11700 0.22920 0.89970 0.00500
C 	C 	0.05910 0.26300 0.93960 -0.21400
H 	H 	0.02190 0.22930 0.91370 0.09500
C 	C 	0.22950 0.30860 0.95410 0.34700
C 	C 	0.02710 0.41220 0.92450 -0.24000
H 	H 	0.04640 0.40310 0.87130 0.11600
C 	C 	0.02720 0.46960 0.92320 0.14700
H 	H 	0.04630 0.49700 0.86890 -0.01200
O 	O 	0.89927 0.60423 0.22803 -0.38500
O 	O 	0.94747 0.68653 0.33593 -0.42400
O 	O 	0.66747 0.90563 0.24833 -0.47900
C 	C 	0.72427 0.64663 0.32013 0.17400
C 	C 	0.77987 0.69703 0.35903 -0.20600
H 	H 	0.77887 0.73073 0.39063 0.10800
C 	C 	0.83687 0.69703 0.35073 0.10900
H 	H 	0.87397 0.73073 0.37673 -0.00000
C 	C 	0.83827 0.64663 0.30353 -0.16200
C 	C 	0.78267 0.59623 0.26463 0.10000
H 	H 	0.78367 0.56253 0.23303 0.00900
C 	C 	0.72577 0.59633 0.27293 -0.20400
H 	H 	0.68857 0.56263 0.24703 0.10100
C 	C 	0.89617 0.64193 0.28743 0.33700
C 	C 	0.69377 0.74553 0.25783 -0.26500
H 	H 	0.71307 0.73643 0.20463 0.12700
C 	C 	0.69387 0.80293 0.25653 0.15200
H 	H 	0.71297 0.83033 0.20223 -0.01000
O 	O 	0.56593 0.93757 0.56137 -0.38900
O 	O 	0.61413 0.01987 0.66927 -0.46500
O 	O 	0.33413 0.23897 0.58167 -0.48300
C 	C 	0.39093 0.97997 0.65347 0.21000
C 	C 	0.44653 0.03037 0.69237 -0.24100
H 	H 	0.44553 0.06407 0.72397 0.11400
C 	C 	0.50353 0.03037 0.68407 0.08500
H 	H 	0.54063 0.06407 0.71007 -0.00200
C 	C 	0.50493 0.97997 0.63687 -0.13900
C 	C 	0.44933 0.92957 0.59797 0.10300
H 	H 	0.45033 0.89587 0.56637 0.01000
C 	C 	0.39243 0.92967 0.60627 -0.21300
H 	H 	0.35523 0.89597 0.58037 0.10500
C 	C 	0.56283 0.97527 0.62077 0.36400
C 	C 	0.36043 0.07887 0.59117 -0.24200
H 	H 	0.37973 0.06977 0.53797 0.11400
C 	C 	0.36053 0.13627 0.58987 0.13300
H 	H 	0.37963 0.16367 0.53557 -0.00600
La	La	0.65366 0.98699 0.16667 1.67300
La	La	0.32032 0.32032 0.50000 1.64200
La	La	0.01301 0.66667 0.16667 1.60700
La	La	0.67967 0.00000 0.50000 1.61400
La	La	0.33333 0.34634 0.16667 1.64100
La	La	-0.00000 0.67968 0.50000 1.61300
La	La	0.98699 0.65366 0.83333 1.67700
La	La	0.66667 0.01301 0.83333 1.61200
La	La	0.34634 0.33333 0.83333 1.64500
N 	N 	-0.00000 0.31360 -0.00000 -0.22700
C 	C 	-0.00000 0.36930 -0.00000 0.18000
C 	C 	-0.00000 0.48780 -0.00000 -0.24000
C 	C 	-0.00000 0.55060 -0.00000 0.41400
N 	N 	0.66667 0.64693 0.33333 -0.21300
C 	C 	0.66667 0.70263 0.33333 0.23800
C 	C 	0.66667 0.82113 0.33333 -0.21400
C 	C 	0.66667 0.88393 0.33333 0.46200
N 	N 	0.33333 0.98027 0.66667 -0.20000
C 	C 	0.33333 0.03597 0.66667 0.19600
C 	C 	0.33333 0.15447 0.66667 -0.20500
C 	C 	0.33333 0.21727 0.66667 0.45700
N 	N 	0.68640 0.68640 -0.00000 -0.21600
C 	C 	0.63070 0.63070 -0.00000 0.22700
C 	C 	0.51220 0.51220 -0.00000 -0.22100
C 	C 	0.44940 0.44940 -0.00000 0.45300
N 	N 	0.35307 0.01973 0.33333 -0.22800
C 	C 	0.29737 0.96403 0.33333 0.28200
C 	C 	0.17887 0.84553 0.33333 -0.23100
C 	C 	0.11607 0.78273 0.33333 0.46600
N 	N 	0.01973 0.35307 0.66667 -0.22800
C 	C 	0.96403 0.29737 0.66667 0.28200
C 	C 	0.84553 0.17887 0.66667 -0.23000
C 	C 	0.78273 0.11607 0.66667 0.46600
N 	N 	0.31360 0.00000 -0.00000 -0.22600
C 	C 	0.36930 0.00000 -0.00000 0.18600
C 	C 	0.48780 0.00000 -0.00000 -0.23700
C 	C 	0.55060 0.00000 -0.00000 0.42100
N 	N 	0.98027 0.33333 0.33333 -0.19900
C 	C 	0.03597 0.33333 0.33333 0.19500
C 	C 	0.15447 0.33333 0.33333 -0.20500
C 	C 	0.21727 0.33333 0.33333 0.45700
N 	N 	0.64693 0.66667 0.66667 -0.21300
C 	C 	0.70263 0.66667 0.66667 0.23700
C 	C 	0.82113 0.66667 0.66667 -0.21300
C 	C 	0.88393 0.66667 0.66667 0.46200
