data_crystal

_cell_length_a 24.18800
_cell_length_b 24.18800
_cell_length_c 13.14890
_cell_angle_alpha 90.00000
_cell_angle_beta  90.00000
_cell_angle_gamma 120.00000

_symmetry_space_group_name_	'P 1'
_symmetry_space_group_name_H-M	'P 1'

loop_
_symmetry_equiv_pos_as_xyz
  x,y,z

loop_
_atom_site_label
_atom_site_type_symbol
_atom_site_fract_x
_atom_site_fract_y
_atom_site_fract_z
_atom_site_charge
O 	O 	0.56900 0.93840 0.05920 -0.49200
O 	O 	0.61750 0.02030 0.16720 -0.61800
O 	O 	0.34210 0.24320 0.08270 -0.59600
C 	C 	0.39180 0.97830 0.15410 0.22400
C 	C 	0.50420 0.02800 0.18040 0.10500
H 	H 	0.54160 0.06210 0.20570 -0.03500
C 	C 	0.44800 0.02920 0.19260 -0.29200
H 	H 	0.44770 0.06300 0.22550 0.12000
C 	C 	0.50800 0.98070 0.13450 -0.18800
C 	C 	0.45180 0.93010 0.09410 0.10900
H 	H 	0.45330 0.89730 0.05950 -0.02100
C 	C 	0.39230 0.92830 0.10560 -0.24600
H 	H 	0.35480 0.89410 0.08080 0.08200
C 	C 	0.56690 0.97820 0.11910 0.40400
C 	C 	0.36010 0.08060 0.08400 -0.20400
H 	H 	0.37980 0.07170 0.03080 0.04700
C 	C 	0.35680 0.13520 0.08330 0.09600
H 	H 	0.37040 0.16130 0.02620 -0.04100
O 	O 	0.23567 0.27173 0.39253 -0.44800
O 	O 	0.28417 0.35363 0.50053 -0.56100
O 	O 	0.00877 0.57653 0.41603 -0.55400
C 	C 	0.05847 0.31163 0.48743 0.18700
C 	C 	0.17087 0.36133 0.51373 0.15200
H 	H 	0.20827 0.39543 0.53903 -0.02800
C 	C 	0.11467 0.36253 0.52593 -0.23700
H 	H 	0.11437 0.39633 0.55883 0.11600
C 	C 	0.17467 0.31403 0.46783 -0.20400
C 	C 	0.11847 0.26343 0.42743 0.11800
H 	H 	0.11997 0.23063 0.39283 -0.00300
C 	C 	0.05897 0.26163 0.43893 -0.22400
H 	H 	0.02147 0.22743 0.41413 0.09200
C 	C 	0.23357 0.31153 0.45243 0.37300
C 	C 	0.02677 0.41393 0.41733 -0.21000
H 	H 	0.04647 0.40503 0.36413 0.10500
C 	C 	0.02347 0.46853 0.41663 0.12200
H 	H 	0.03707 0.49463 0.35953 -0.00700
O 	O 	0.90233 0.60507 0.72587 -0.43200
O 	O 	0.95083 0.68697 0.83387 -0.51200
O 	O 	0.67543 0.90987 0.74937 -0.52700
C 	C 	0.72513 0.64497 0.82077 0.20500
C 	C 	0.83753 0.69467 0.84707 0.15900
H 	H 	0.87493 0.72877 0.87237 0.00100
C 	C 	0.78133 0.69587 0.85927 -0.21800
H 	H 	0.78103 0.72967 0.89217 0.14300
C 	C 	0.84133 0.64737 0.80117 -0.18100
C 	C 	0.78513 0.59677 0.76077 0.12100
H 	H 	0.78663 0.56397 0.72617 0.01000
C 	C 	0.72563 0.59497 0.77227 -0.21400
H 	H 	0.68813 0.56077 0.74747 0.10800
C 	C 	0.90023 0.64487 0.78577 0.36700
C 	C 	0.69343 0.74727 0.75067 -0.20700
H 	H 	0.71313 0.73837 0.69747 0.10900
C 	C 	0.69013 0.80187 0.74997 0.12300
H 	H 	0.70373 0.82797 0.69287 0.00400
O 	O 	0.06160 0.63060 0.05920 -0.49200
O 	O 	0.97970 0.59720 0.16720 -0.54700
O 	O 	0.75680 0.09890 0.08270 -0.60000
C 	C 	0.02170 0.41350 0.15410 0.14000
C 	C 	0.97200 0.47620 0.18040 0.18600
H 	H 	0.93790 0.47950 0.20570 -0.04900
C 	C 	0.97080 0.41880 0.19260 -0.21500
H 	H 	0.93700 0.38470 0.22550 0.10500
C 	C 	0.01930 0.52730 0.13450 -0.26100
C 	C 	0.06990 0.52170 0.09410 0.11000
H 	H 	0.10270 0.55600 0.05950 -0.02300
C 	C 	0.07170 0.46400 0.10560 -0.22900
H 	H 	0.10590 0.46070 0.08080 0.07500
C 	C 	0.02180 0.58870 0.11910 0.34000
C 	C 	0.91940 0.27950 0.08400 -0.24500
H 	H 	0.92830 0.30810 0.03080 0.07300
C 	C 	0.86480 0.22160 0.08330 0.13400
H 	H 	0.83870 0.20910 0.02620 -0.05400
O 	O 	0.72827 0.96393 0.39253 -0.42500
O 	O 	0.64637 0.93053 0.50053 -0.54900
O 	O 	0.42347 0.43223 0.41603 -0.54900
C 	C 	0.68837 0.74683 0.48743 0.19200
C 	C 	0.63867 0.80953 0.51373 0.15000
H 	H 	0.60457 0.81283 0.53903 -0.02700
C 	C 	0.63747 0.75213 0.52593 -0.23700
H 	H 	0.60367 0.71803 0.55883 0.11700
C 	C 	0.68597 0.86063 0.46783 -0.19700
C 	C 	0.73657 0.85503 0.42743 0.11900
H 	H 	0.76937 0.88933 0.39283 0.01000
C 	C 	0.73837 0.79733 0.43893 -0.21800
H 	H 	0.77257 0.79403 0.41413 0.10900
C 	C 	0.68847 0.92203 0.45243 0.37000
C 	C 	0.58607 0.61283 0.41733 -0.21300
H 	H 	0.59497 0.64143 0.36413 0.11000
C 	C 	0.53147 0.55493 0.41663 0.12400
H 	H 	0.50537 0.54243 0.35953 -0.00300
O 	O 	0.39493 0.29727 0.72587 -0.43900
O 	O 	0.31303 0.26387 0.83387 -0.53000
O 	O 	0.09013 0.76557 0.74937 -0.54500
C 	C 	0.35503 0.08017 0.82077 0.20100
C 	C 	0.30533 0.14287 0.84707 0.16000
H 	H 	0.27123 0.14617 0.87237 -0.00800
C 	C 	0.30413 0.08547 0.85927 -0.22100
H 	H 	0.27033 0.05137 0.89217 0.13000
C 	C 	0.35263 0.19397 0.80117 -0.18500
C 	C 	0.40323 0.18837 0.76077 0.12300
H 	H 	0.43603 0.22267 0.72617 0.01000
C 	C 	0.40503 0.13067 0.77227 -0.21300
H 	H 	0.43923 0.12737 0.74747 0.10800
C 	C 	0.35513 0.25537 0.78577 0.37100
C 	C 	0.25273 0.94617 0.75067 -0.23300
H 	H 	0.26163 0.97477 0.69747 0.13100
C 	C 	0.19813 0.88827 0.74997 0.14500
H 	H 	0.17203 0.87577 0.69287 -0.00600
O 	O 	0.36940 0.43100 0.05920 -0.49500
O 	O 	0.40280 0.38250 0.16720 -0.58000
O 	O 	0.90110 0.65790 0.08270 -0.58400
C 	C 	0.58650 0.60820 0.15410 0.17700
C 	C 	0.52380 0.49580 0.18040 0.14900
H 	H 	0.52050 0.45840 0.20570 -0.04300
C 	C 	0.58120 0.55200 0.19260 -0.25000
H 	H 	0.61530 0.55230 0.22550 0.11100
C 	C 	0.47270 0.49200 0.13450 -0.22900
C 	C 	0.47830 0.54820 0.09410 0.10900
H 	H 	0.44400 0.54670 0.05950 -0.02200
C 	C 	0.53600 0.60770 0.10560 -0.23700
H 	H 	0.53930 0.64520 0.08080 0.07800
C 	C 	0.41130 0.43310 0.11910 0.36900
C 	C 	0.72050 0.63990 0.08400 -0.22200
H 	H 	0.69190 0.62020 0.03080 0.06000
C 	C 	0.77840 0.64320 0.08330 0.11400
H 	H 	0.79090 0.62960 0.02620 -0.04600
O 	O 	0.03607 0.76433 0.39253 -0.46100
O 	O 	0.06947 0.71583 0.50053 -0.57200
O 	O 	0.56777 0.99123 0.41603 -0.50400
C 	C 	0.25317 0.94153 0.48743 0.24100
C 	C 	0.19047 0.82913 0.51373 0.18000
H 	H 	0.18717 0.79173 0.53903 -0.03800
C 	C 	0.24787 0.88533 0.52593 -0.27100
H 	H 	0.28197 0.88563 0.55883 0.13400
C 	C 	0.13937 0.82533 0.46783 -0.22400
C 	C 	0.14497 0.88153 0.42743 0.14500
H 	H 	0.11067 0.88003 0.39283 -0.00600
C 	C 	0.20267 0.94103 0.43893 -0.25000
H 	H 	0.20597 0.97853 0.41413 0.13000
C 	C 	0.07797 0.76643 0.45243 0.38100
C 	C 	0.38717 0.97323 0.41733 -0.17000
H 	H 	0.35857 0.95353 0.36413 0.10300
C 	C 	0.44507 0.97653 0.41663 0.15800
H 	H 	0.45757 0.96293 0.35953 -0.00400
O 	O 	0.70273 0.09767 0.72587 -0.44600
O 	O 	0.73613 0.04917 0.83387 -0.54200
O 	O 	0.23443 0.32457 0.74937 -0.53800
C 	C 	0.91983 0.27487 0.82077 0.21400
C 	C 	0.85713 0.16247 0.84707 0.17000
H 	H 	0.85383 0.12507 0.87237 -0.00800
C 	C 	0.91453 0.21867 0.85927 -0.22600
H 	H 	0.94863 0.21897 0.89217 0.15000
C 	C 	0.80603 0.15867 0.80117 -0.19000
C 	C 	0.81163 0.21487 0.76077 0.12900
H 	H 	0.77733 0.21337 0.72617 0.00800
C 	C 	0.86933 0.27437 0.77227 -0.22000
H 	H 	0.87263 0.31187 0.74747 0.11100
C 	C 	0.74463 0.09977 0.78577 0.37500
C 	C 	0.05383 0.30657 0.75067 -0.19100
H 	H 	0.02523 0.28687 0.69747 0.09100
C 	C 	0.11173 0.30987 0.74997 0.10600
H 	H 	0.12423 0.29627 0.69287 0.00300
O 	O 	0.93840 0.56900 0.94080 -0.37800
O 	O 	0.02030 0.61750 0.83280 -0.56800
O 	O 	0.24320 0.34210 0.91730 -0.48500
C 	C 	0.97830 0.39180 0.84590 0.24600
C 	C 	0.02800 0.50420 0.81960 0.12400
H 	H 	0.06210 0.54160 0.79430 -0.01200
C 	C 	0.02920 0.44800 0.80740 -0.26400
H 	H 	0.06300 0.44770 0.77450 0.12700
C 	C 	0.98070 0.50800 0.86550 -0.14700
C 	C 	0.93010 0.45180 0.90590 0.13100
H 	H 	0.89730 0.45330 0.94050 0.03400
C 	C 	0.92830 0.39230 0.89440 -0.21600
H 	H 	0.89410 0.35480 0.91920 0.14200
C 	C 	0.97820 0.56690 0.88090 0.40300
C 	C 	0.08060 0.36010 0.91600 -0.18300
H 	H 	0.07170 0.37980 0.96920 0.14600
C 	C 	0.13520 0.35680 0.91670 0.11600
H 	H 	0.16130 0.37040 0.97380 0.04700
O 	O 	0.60507 0.90233 0.27413 -0.43700
O 	O 	0.68697 0.95083 0.16613 -0.55900
O 	O 	0.90987 0.67543 0.25063 -0.54600
C 	C 	0.64497 0.72513 0.17923 0.17600
C 	C 	0.69467 0.83753 0.15293 0.13700
H 	H 	0.72877 0.87493 0.12763 -0.04500
C 	C 	0.69587 0.78133 0.14073 -0.25200
H 	H 	0.72967 0.78103 0.10783 0.09300
C 	C 	0.64737 0.84133 0.19883 -0.21200
C 	C 	0.59677 0.78513 0.23923 0.11000
H 	H 	0.56397 0.78663 0.27383 0.00300
C 	C 	0.59497 0.72563 0.22773 -0.22500
H 	H 	0.56077 0.68813 0.25253 0.10600
C 	C 	0.64487 0.90023 0.21423 0.36400
C 	C 	0.74727 0.69343 0.24933 -0.21200
H 	H 	0.73837 0.71313 0.30253 0.10900
C 	C 	0.80187 0.69013 0.25003 0.12300
H 	H 	0.82797 0.70373 0.30713 -0.00200
O 	O 	0.27173 0.23567 0.60747 -0.44300
O 	O 	0.35363 0.28417 0.49947 -0.56300
O 	O 	0.57653 0.00877 0.58397 -0.55400
C 	C 	0.31163 0.05847 0.51257 0.18400
C 	C 	0.36133 0.17087 0.48627 0.15000
H 	H 	0.39543 0.20827 0.46097 -0.03200
C 	C 	0.36253 0.11467 0.47407 -0.23700
H 	H 	0.39633 0.11437 0.44117 0.11200
C 	C 	0.31403 0.17467 0.53217 -0.20400
C 	C 	0.26343 0.11847 0.57257 0.11400
H 	H 	0.23063 0.11997 0.60717 0.00400
C 	C 	0.26163 0.05897 0.56107 -0.22400
H 	H 	0.22743 0.02147 0.58587 0.09500
C 	C 	0.31153 0.23357 0.54757 0.37000
C 	C 	0.41393 0.02677 0.58267 -0.20800
H 	H 	0.40503 0.04647 0.63587 0.10200
C 	C 	0.46853 0.02347 0.58337 0.12200
H 	H 	0.49463 0.03707 0.64047 -0.00800
O 	O 	0.63060 0.06160 0.94080 -0.37800
O 	O 	0.59720 0.97970 0.83280 -0.50200
O 	O 	0.09890 0.75680 0.91730 -0.49100
C 	C 	0.41350 0.02170 0.84590 0.16700
C 	C 	0.47620 0.97200 0.81960 0.19800
H 	H 	0.47950 0.93790 0.79430 -0.02500
C 	C 	0.41880 0.97080 0.80740 -0.19300
H 	H 	0.38470 0.93700 0.77450 0.11400
C 	C 	0.52730 0.01930 0.86550 -0.21500
C 	C 	0.52170 0.06990 0.90590 0.13100
H 	H 	0.55600 0.10270 0.94050 0.03200
C 	C 	0.46400 0.07170 0.89440 -0.20000
H 	H 	0.46070 0.10590 0.91920 0.13600
C 	C 	0.58870 0.02180 0.88090 0.34300
C 	C 	0.27950 0.91940 0.91600 -0.22100
H 	H 	0.30810 0.92830 0.96920 0.16800
C 	C 	0.22160 0.86480 0.91670 0.15000
H 	H 	0.20910 0.83870 0.97380 0.03400
O 	O 	0.29727 0.39493 0.27413 -0.44500
O 	O 	0.26387 0.31303 0.16613 -0.58200
O 	O 	0.76557 0.09013 0.25063 -0.56500
C 	C 	0.08017 0.35503 0.17923 0.17200
C 	C 	0.14287 0.30533 0.15293 0.14000
H 	H 	0.14617 0.27123 0.12763 -0.05700
C 	C 	0.08547 0.30413 0.14073 -0.25600
H 	H 	0.05137 0.27033 0.10783 0.08000
C 	C 	0.19397 0.35263 0.19883 -0.21800
C 	C 	0.18837 0.40323 0.23923 0.11200
H 	H 	0.22267 0.43603 0.27383 0.00200
C 	C 	0.13067 0.40503 0.22773 -0.22500
H 	H 	0.12737 0.43923 0.25253 0.10600
C 	C 	0.25537 0.35513 0.21423 0.36900
C 	C 	0.94617 0.25273 0.24933 -0.23800
H 	H 	0.97477 0.26163 0.30253 0.12900
C 	C 	0.88827 0.19813 0.25003 0.14400
H 	H 	0.87577 0.17203 0.30713 -0.01300
O 	O 	0.96393 0.72827 0.60747 -0.42300
O 	O 	0.93053 0.64637 0.49947 -0.55200
O 	O 	0.43223 0.42347 0.58397 -0.54800
C 	C 	0.74683 0.68837 0.51257 0.19000
C 	C 	0.80953 0.63867 0.48627 0.15000
H 	H 	0.81283 0.60457 0.46097 -0.03100
C 	C 	0.75213 0.63747 0.47407 -0.23700
H 	H 	0.71803 0.60367 0.44117 0.11300
C 	C 	0.86063 0.68597 0.53217 -0.19800
C 	C 	0.85503 0.73657 0.57257 0.11600
H 	H 	0.88933 0.76937 0.60717 0.01600
C 	C 	0.79733 0.73837 0.56107 -0.21900
H 	H 	0.79403 0.77257 0.58587 0.11300
C 	C 	0.92203 0.68847 0.54757 0.36800
C 	C 	0.61283 0.58607 0.58267 -0.21300
H 	H 	0.64143 0.59497 0.63587 0.10800
C 	C 	0.55493 0.53147 0.58337 0.12500
H 	H 	0.54243 0.50537 0.64047 -0.00400
O 	O 	0.43100 0.36940 0.94080 -0.37800
O 	O 	0.38250 0.40280 0.83280 -0.53700
O 	O 	0.65790 0.90110 0.91730 -0.47600
C 	C 	0.60820 0.58650 0.84590 0.20800
C 	C 	0.49580 0.52380 0.81960 0.15900
H 	H 	0.45840 0.52050 0.79430 -0.01800
C 	C 	0.55200 0.58120 0.80740 -0.23000
H 	H 	0.55230 0.61530 0.77450 0.12000
C 	C 	0.49200 0.47270 0.86550 -0.17900
C 	C 	0.54820 0.47830 0.90590 0.13100
H 	H 	0.54670 0.44400 0.94050 0.03300
C 	C 	0.60770 0.53600 0.89440 -0.20800
H 	H 	0.64520 0.53930 0.91920 0.13900
C 	C 	0.43310 0.41130 0.88090 0.37400
C 	C 	0.63990 0.72050 0.91600 -0.19800
H 	H 	0.62020 0.69190 0.96920 0.15600
C 	C 	0.64320 0.77840 0.91670 0.13000
H 	H 	0.62960 0.79090 0.97380 0.04200
O 	O 	0.09767 0.70273 0.27413 -0.45200
O 	O 	0.04917 0.73613 0.16613 -0.59200
O 	O 	0.32457 0.23443 0.25063 -0.55700
C 	C 	0.27487 0.91983 0.17923 0.18700
C 	C 	0.16247 0.85713 0.15293 0.14900
H 	H 	0.12507 0.85383 0.12763 -0.05500
C 	C 	0.21867 0.91453 0.14073 -0.26000
H 	H 	0.21897 0.94863 0.10783 0.10300
C 	C 	0.15867 0.80603 0.19883 -0.22300
C 	C 	0.21487 0.81163 0.23923 0.11900
H 	H 	0.21337 0.77733 0.27383 0.00000
C 	C 	0.27437 0.86933 0.22773 -0.23200
H 	H 	0.31187 0.87263 0.25253 0.10900
C 	C 	0.09977 0.74463 0.21423 0.37300
C 	C 	0.30657 0.05383 0.24933 -0.19300
H 	H 	0.28687 0.02523 0.30253 0.08700
C 	C 	0.30987 0.11173 0.25003 0.10200
H 	H 	0.29627 0.12423 0.30713 -0.00200
O 	O 	0.76433 0.03607 0.60747 -0.45800
O 	O 	0.71583 0.06947 0.49947 -0.57500
O 	O 	0.99123 0.56777 0.58397 -0.50900
C 	C 	0.94153 0.25317 0.51257 0.23400
C 	C 	0.82913 0.19047 0.48627 0.17600
H 	H 	0.79173 0.18717 0.46097 -0.04100
C 	C 	0.88533 0.24787 0.47407 -0.26700
H 	H 	0.88563 0.28197 0.44117 0.12800
C 	C 	0.82533 0.13937 0.53217 -0.22200
C 	C 	0.88153 0.14497 0.57257 0.13900
H 	H 	0.88003 0.11067 0.60717 0.00000
C 	C 	0.94103 0.20267 0.56107 -0.24700
H 	H 	0.97853 0.20597 0.58587 0.13100
C 	C 	0.76643 0.07797 0.54757 0.37800
C 	C 	0.97323 0.38717 0.58267 -0.17600
H 	H 	0.95353 0.35857 0.63587 0.10200
C 	C 	0.97653 0.44507 0.58337 0.15400
H 	H 	0.96293 0.45757 0.64047 -0.00600
Ce	Ce	0.68414 0.00000 -0.00000 2.05500
Ce	Ce	0.35081 0.33333 0.33333 2.12800
Ce	Ce	0.01747 0.66667 0.66667 2.11600
Ce	Ce	-0.00000 0.68414 -0.00000 2.05900
Ce	Ce	0.66667 0.01747 0.33333 2.11200
Ce	Ce	0.33333 0.35081 0.66667 2.13000
Ce	Ce	0.31586 0.31586 -0.00000 2.07000
Ce	Ce	0.98253 0.64919 0.33333 2.14200
Ce	Ce	0.64919 0.98253 0.66667 2.14600
N 	N 	0.33333 0.97692 0.16667 -0.18900
C 	C 	0.33333 0.03742 0.16667 0.10500
C 	C 	0.33333 0.15252 0.16667 -0.21600
C 	C 	0.33333 0.21482 0.16667 0.44100
N 	N 	0.00000 0.31025 0.50000 -0.21300
C 	C 	0.00000 0.37075 0.50000 0.12600
C 	C 	-0.00000 0.48585 0.50000 -0.23400
C 	C 	-0.00000 0.54815 0.50000 0.41000
N 	N 	0.02308 0.35642 0.16667 -0.21400
C 	C 	0.96258 0.29592 0.16667 0.18900
C 	C 	0.84748 0.18082 0.16667 -0.24100
C 	C 	0.78518 0.11852 0.16667 0.45200
N 	N 	0.68975 0.68975 0.50000 -0.19800
C 	C 	0.62925 0.62925 0.50000 0.16300
C 	C 	0.51415 0.51415 0.50000 -0.20800
C 	C 	0.45185 0.45185 0.50000 0.44400
N 	N 	0.64358 0.66667 0.16667 -0.20200
C 	C 	0.70408 0.66667 0.16667 0.14900
C 	C 	0.81918 0.66667 0.16667 -0.22200
C 	C 	0.88148 0.66667 0.16667 0.44600
N 	N 	0.31025 0.00000 0.50000 -0.21600
C 	C 	0.37075 0.00000 0.50000 0.12000
C 	C 	0.48585 0.00000 0.50000 -0.23800
C 	C 	0.54815 0.00000 0.50000 0.40400
N 	N 	0.97692 0.33333 0.83333 -0.18300
C 	C 	0.03742 0.33333 0.83333 0.14000
C 	C 	0.15252 0.33333 0.83333 -0.17600
C 	C 	0.21482 0.33333 0.83333 0.43200
N 	N 	0.35642 0.02308 0.83333 -0.20600
C 	C 	0.29592 0.96258 0.83333 0.21700
C 	C 	0.18082 0.84748 0.83333 -0.20000
C 	C 	0.11852 0.78518 0.83333 0.44200
N 	N 	0.66667 0.64358 0.83333 -0.19300
C 	C 	0.66667 0.70408 0.83333 0.17500
C 	C 	0.66667 0.81918 0.83333 -0.18200
C 	C 	0.66667 0.88148 0.83333 0.43600
