data_crystal

_cell_length_a 35.24200
_cell_length_b 35.24200
_cell_length_c 13.49300
_cell_angle_alpha 90.00000
_cell_angle_beta  90.00000
_cell_angle_gamma 120.00000

_symmetry_space_group_name_	'P 1'
_symmetry_space_group_name_H-M	'P 1'

loop_
_symmetry_equiv_pos_as_xyz
  x,y,z

loop_
_atom_site_label
_atom_site_type_symbol
_atom_site_fract_x
_atom_site_fract_y
_atom_site_fract_z
_atom_site_charge
O 	O 	0.31302 0.05391 0.10000 -0.47900
O 	O 	0.04338 0.32977 0.16509 -0.45700
O 	O 	0.06674 0.38444 0.27937 -0.45400
C 	C 	0.35355 0.15054 0.24313 0.08700
C 	C 	0.35355 0.18942 0.24313 -0.13300
C 	C 	0.29433 0.31479 0.16890 -0.14500
C 	C 	0.29433 0.35311 0.16890 0.09400
C 	C 	0.25437 0.35526 0.17599 -0.04800
C 	C 	0.22290 0.35695 0.18157 -0.02700
C 	C 	0.18376 0.35905 0.18851 0.06100
C 	C 	0.14679 0.32799 0.13891 -0.11700
C 	C 	0.10930 0.33000 0.14556 0.05600
C 	C 	0.10987 0.36302 0.20161 -0.12800
C 	C 	0.14684 0.39408 0.25121 0.04500
C 	C 	0.18433 0.39207 0.24456 -0.10600
C 	C 	0.06991 0.36517 0.20870 0.38100
H 	H 	0.36831 0.14241 0.29894 0.00200
H 	H 	0.36831 0.20967 0.29894 0.06700
H 	H 	0.26586 0.28702 0.17053 0.07100
H 	H 	0.14677 0.30387 0.09792 0.04000
H 	H 	0.08191 0.30735 0.10943 0.00000
H 	H 	0.14686 0.41821 0.29220 0.02700
H 	H 	0.21172 0.41472 0.28070 0.06000
O 	O 	0.97969 0.38724 0.43333 -0.47000
O 	O 	0.71005 0.66310 0.49842 -0.46100
O 	O 	0.73341 0.71777 0.61270 -0.45000
C 	C 	0.02022 0.48387 0.57646 0.09100
C 	C 	0.02022 0.52275 0.57646 -0.13000
C 	C 	0.96100 0.64812 0.50223 -0.13500
C 	C 	0.96100 0.68644 0.50223 0.11300
C 	C 	0.92104 0.68859 0.50932 -0.04300
C 	C 	0.88957 0.69028 0.51490 -0.01600
C 	C 	0.85043 0.69238 0.52184 0.06600
C 	C 	0.81346 0.66132 0.47224 -0.11300
C 	C 	0.77597 0.66333 0.47889 0.06300
C 	C 	0.77654 0.69635 0.53494 -0.12700
C 	C 	0.81351 0.72741 0.58454 0.04800
C 	C 	0.85100 0.72540 0.57789 -0.10400
C 	C 	0.73658 0.69850 0.54203 0.38400
H 	H 	0.03498 0.47574 0.63227 0.00500
H 	H 	0.03498 0.54300 0.63227 0.07000
H 	H 	0.93253 0.62035 0.50386 0.07700
H 	H 	0.81344 0.63720 0.43125 0.05900
H 	H 	0.74858 0.64068 0.44276 0.01000
H 	H 	0.81353 0.75154 0.62553 0.03100
H 	H 	0.87839 0.74805 0.61403 0.06600
O 	O 	0.64635 0.72058 0.76667 -0.46700
O 	O 	0.37671 0.99644 0.83176 -0.43100
O 	O 	0.40007 0.05111 0.94604 -0.40600
C 	C 	0.68688 0.81721 0.90980 0.09300
C 	C 	0.68688 0.85609 0.90980 -0.12100
C 	C 	0.62766 0.98146 0.83557 -0.13000
C 	C 	0.62766 0.01978 0.83557 0.09800
C 	C 	0.58770 0.02193 0.84266 -0.03500
C 	C 	0.55623 0.02362 0.84824 -0.01000
C 	C 	0.51709 0.02572 0.85518 0.05800
C 	C 	0.48012 0.99466 0.80558 -0.09400
C 	C 	0.44263 0.99667 0.81223 0.07300
C 	C 	0.44320 0.02969 0.86828 -0.12400
C 	C 	0.48017 0.06075 0.91788 0.05100
C 	C 	0.51766 0.05874 0.91123 -0.09300
C 	C 	0.40324 0.03184 0.87537 0.36800
H 	H 	0.70164 0.80908 0.96561 0.02600
H 	H 	0.70164 0.87634 0.96561 0.08800
H 	H 	0.59919 0.95369 0.83720 0.08700
H 	H 	0.48010 0.97054 0.76459 0.06100
H 	H 	0.41524 0.97402 0.77610 0.01400
H 	H 	0.48019 0.08488 0.95887 0.04100
H 	H 	0.54505 0.08139 0.94737 0.07200
O 	O 	0.94609 0.25911 0.10000 -0.47500
O 	O 	0.67023 0.71361 0.16509 -0.45500
O 	O 	0.61556 0.68230 0.27937 -0.45000
C 	C 	0.84946 0.20301 0.24313 0.08700
C 	C 	0.81058 0.16413 0.24313 -0.13400
C 	C 	0.68521 0.97954 0.16890 -0.13100
C 	C 	0.64689 0.94122 0.16890 0.09200
C 	C 	0.64474 0.89911 0.17599 -0.04600
C 	C 	0.64305 0.86595 0.18157 -0.02700
C 	C 	0.64095 0.82471 0.18851 0.06200
C 	C 	0.67201 0.81880 0.13891 -0.11700
C 	C 	0.67000 0.77930 0.14556 0.05600
C 	C 	0.63698 0.74685 0.20161 -0.12800
C 	C 	0.60592 0.75276 0.25121 0.04500
C 	C 	0.60793 0.79226 0.24456 -0.10600
C 	C 	0.63483 0.70474 0.20870 0.38100
H 	H 	0.85759 0.22590 0.29894 0.00200
H 	H 	0.79033 0.15864 0.29894 0.06800
H 	H 	0.71298 0.97884 0.17053 0.07100
H 	H 	0.69613 0.84290 0.09792 0.04200
H 	H 	0.69265 0.77456 0.10943 0.00100
H 	H 	0.58179 0.72865 0.29220 0.02700
H 	H 	0.58528 0.79700 0.28070 0.06000
O 	O 	0.61276 0.59244 0.43333 -0.47800
O 	O 	0.33690 0.04694 0.49842 -0.46300
O 	O 	0.28223 0.01563 0.61270 -0.45700
C 	C 	0.51613 0.53634 0.57646 0.09100
C 	C 	0.47725 0.49746 0.57646 -0.13100
C 	C 	0.35188 0.31287 0.50223 -0.14400
C 	C 	0.31356 0.27455 0.50223 0.10200
C 	C 	0.31141 0.23244 0.50932 -0.04100
C 	C 	0.30972 0.19928 0.51490 -0.02000
C 	C 	0.30762 0.15804 0.52184 0.06700
C 	C 	0.33868 0.15213 0.47224 -0.11400
C 	C 	0.33667 0.11263 0.47889 0.06300
C 	C 	0.30365 0.08018 0.53494 -0.12800
C 	C 	0.27259 0.08609 0.58454 0.04800
C 	C 	0.27460 0.12559 0.57789 -0.10600
C 	C 	0.30150 0.03807 0.54203 0.38200
H 	H 	0.52426 0.55923 0.63227 0.00600
H 	H 	0.45700 0.49197 0.63227 0.07200
H 	H 	0.37965 0.31217 0.50386 0.07800
H 	H 	0.36280 0.17623 0.43125 0.05900
H 	H 	0.35932 0.10789 0.44276 0.01000
H 	H 	0.24846 0.06198 0.62553 0.02800
H 	H 	0.25195 0.13033 0.61403 0.06300
O 	O 	0.27942 0.92578 0.76667 -0.46700
O 	O 	0.00356 0.38028 0.83176 -0.44700
O 	O 	0.94889 0.34897 0.94604 -0.40800
C 	C 	0.18279 0.86968 0.90980 0.09300
C 	C 	0.14391 0.83080 0.90980 -0.12200
C 	C 	0.01854 0.64621 0.83557 -0.15400
C 	C 	0.98022 0.60789 0.83557 0.12400
C 	C 	0.97807 0.56578 0.84266 -0.03300
C 	C 	0.97638 0.53262 0.84824 -0.00800
C 	C 	0.97428 0.49138 0.85518 0.08300
C 	C 	0.00534 0.48547 0.80558 -0.11700
C 	C 	0.00333 0.44597 0.81223 0.05600
C 	C 	0.97031 0.41352 0.86828 -0.10500
C 	C 	0.93925 0.41943 0.91788 0.05000
C 	C 	0.94126 0.45893 0.91123 -0.09800
C 	C 	0.96816 0.37141 0.87537 0.38600
H 	H 	0.19092 0.89257 0.96561 0.02600
H 	H 	0.12366 0.82531 0.96561 0.08700
H 	H 	0.04631 0.64551 0.83720 0.09000
H 	H 	0.02946 0.50957 0.76459 0.06500
H 	H 	0.02598 0.44123 0.77610 0.01800
H 	H 	0.91512 0.39532 0.95887 0.04100
H 	H 	0.91861 0.46367 0.94737 0.07400
O 	O 	0.74089 0.68698 0.10000 -0.48000
O 	O 	0.28639 0.95662 0.16509 -0.44700
O 	O 	0.31770 0.93326 0.27937 -0.44400
C 	C 	0.79699 0.64645 0.24313 0.08700
C 	C 	0.83587 0.64645 0.24313 -0.13300
C 	C 	0.02046 0.70567 0.16890 -0.15900
C 	C 	0.05878 0.70567 0.16890 0.09600
C 	C 	0.10089 0.74563 0.17599 -0.05000
C 	C 	0.13405 0.77710 0.18157 -0.02600
C 	C 	0.17529 0.81624 0.18851 0.06000
C 	C 	0.18120 0.85321 0.13891 -0.11600
C 	C 	0.22070 0.89070 0.14556 0.05400
C 	C 	0.25315 0.89013 0.20161 -0.12600
C 	C 	0.24724 0.85316 0.25121 0.04400
C 	C 	0.20774 0.81567 0.24456 -0.10500
C 	C 	0.29526 0.93009 0.20870 0.37900
H 	H 	0.77410 0.63169 0.29894 0.00200
H 	H 	0.84136 0.63169 0.29894 0.06800
H 	H 	0.02116 0.73414 0.17053 0.07300
H 	H 	0.15710 0.85323 0.09792 0.04100
H 	H 	0.22544 0.91809 0.10943 0.00300
H 	H 	0.27135 0.85314 0.29220 0.02800
H 	H 	0.20300 0.78828 0.28070 0.06000
O 	O 	0.40756 0.02031 0.43333 -0.47600
O 	O 	0.95306 0.28995 0.49842 -0.45800
O 	O 	0.98437 0.26659 0.61270 -0.44400
C 	C 	0.46366 0.97978 0.57646 0.10100
C 	C 	0.50254 0.97978 0.57646 -0.12000
C 	C 	0.68713 0.03900 0.50223 -0.14400
C 	C 	0.72545 0.03900 0.50223 0.10600
C 	C 	0.76756 0.07896 0.50932 -0.04400
C 	C 	0.80072 0.11043 0.51490 -0.01800
C 	C 	0.84196 0.14957 0.52184 0.06600
C 	C 	0.84787 0.18654 0.47224 -0.11300
C 	C 	0.88737 0.22403 0.47889 0.06300
C 	C 	0.91982 0.22346 0.53494 -0.12700
C 	C 	0.91391 0.18649 0.58454 0.04800
C 	C 	0.87441 0.14900 0.57789 -0.10400
C 	C 	0.96193 0.26342 0.54203 0.38600
H 	H 	0.44077 0.96502 0.63227 0.00400
H 	H 	0.50803 0.96502 0.63227 0.07100
H 	H 	0.68783 0.06747 0.50386 0.07800
H 	H 	0.82377 0.18656 0.43125 0.05900
H 	H 	0.89211 0.25142 0.44276 0.01000
H 	H 	0.93802 0.18647 0.62553 0.03200
H 	H 	0.86967 0.12161 0.61403 0.06400
O 	O 	0.07422 0.35365 0.76667 -0.46500
O 	O 	0.61972 0.62329 0.83176 -0.44100
O 	O 	0.65103 0.59993 0.94604 -0.41000
C 	C 	0.13032 0.31312 0.90980 0.09200
C 	C 	0.16920 0.31312 0.90980 -0.12200
C 	C 	0.35379 0.37234 0.83557 -0.14200
C 	C 	0.39211 0.37234 0.83557 0.11100
C 	C 	0.43422 0.41230 0.84266 -0.03400
C 	C 	0.46738 0.44377 0.84824 -0.00900
C 	C 	0.50862 0.48291 0.85518 0.07100
C 	C 	0.51453 0.51988 0.80558 -0.10600
C 	C 	0.55403 0.55737 0.81223 0.06400
C 	C 	0.58648 0.55680 0.86828 -0.11500
C 	C 	0.58057 0.51983 0.91788 0.05100
C 	C 	0.54107 0.48234 0.91123 -0.09600
C 	C 	0.62859 0.59676 0.87537 0.37700
H 	H 	0.10743 0.29836 0.96561 0.02500
H 	H 	0.17469 0.29836 0.96561 0.08700
H 	H 	0.35449 0.40081 0.83720 0.08800
H 	H 	0.49043 0.51990 0.76459 0.06300
H 	H 	0.55877 0.58476 0.77610 0.01600
H 	H 	0.60468 0.51981 0.95887 0.04100
H 	H 	0.53633 0.45495 0.94737 0.07300
O 	O 	0.05391 0.31302 0.90000 -0.43800
O 	O 	0.32977 0.04338 0.83491 -0.44100
O 	O 	0.38444 0.06674 0.72063 -0.45500
C 	C 	0.15054 0.35355 0.75687 0.08800
C 	C 	0.18942 0.35355 0.75687 -0.12600
C 	C 	0.31479 0.29433 0.83110 -0.14300
C 	C 	0.35311 0.29433 0.83110 0.11100
C 	C 	0.35526 0.25437 0.82401 -0.03500
C 	C 	0.35695 0.22290 0.81843 -0.01000
C 	C 	0.35905 0.18376 0.81149 0.07100
C 	C 	0.32799 0.14679 0.86109 -0.10600
C 	C 	0.33000 0.10930 0.85444 0.06700
C 	C 	0.36302 0.10987 0.79839 -0.12100
C 	C 	0.39408 0.14684 0.74879 0.04900
C 	C 	0.39207 0.18433 0.75544 -0.10200
C 	C 	0.36517 0.06991 0.79130 0.38200
H 	H 	0.14241 0.36831 0.70106 0.00700
H 	H 	0.20967 0.36831 0.70106 0.07100
H 	H 	0.28702 0.26586 0.82947 0.08600
H 	H 	0.30387 0.14677 0.90208 0.07800
H 	H 	0.30735 0.08191 0.89057 0.02700
H 	H 	0.41821 0.14686 0.70780 0.02900
H 	H 	0.41472 0.21172 0.71930 0.06300
O 	O 	0.72058 0.64635 0.23333 -0.47900
O 	O 	0.99644 0.37671 0.16824 -0.45400
O 	O 	0.05111 0.40007 0.05396 -0.45800
C 	C 	0.81721 0.68688 0.09020 0.08300
C 	C 	0.85609 0.68688 0.09020 -0.13600
C 	C 	0.98146 0.62766 0.16443 -0.13300
C 	C 	0.01978 0.62766 0.16443 0.08200
C 	C 	0.02193 0.58770 0.15734 -0.04900
C 	C 	0.02362 0.55623 0.15176 -0.03000
C 	C 	0.02572 0.51709 0.14482 0.05100
C 	C 	0.99466 0.48012 0.19442 -0.10900
C 	C 	0.99667 0.44263 0.18777 0.07100
C 	C 	0.02969 0.44320 0.13172 -0.14800
C 	C 	0.06075 0.48017 0.08212 0.04600
C 	C 	0.05874 0.51766 0.08877 -0.11100
C 	C 	0.03184 0.40324 0.12463 0.38000
H 	H 	0.80908 0.70164 0.03439 -0.01300
H 	H 	0.87634 0.70164 0.03439 0.05200
H 	H 	0.95369 0.59919 0.16280 0.06800
H 	H 	0.97054 0.48010 0.23541 0.05500
H 	H 	0.97402 0.41524 0.22390 0.00500
H 	H 	0.08488 0.48019 0.04113 0.01500
H 	H 	0.08139 0.54505 0.05263 0.05000
O 	O 	0.38724 0.97969 0.56667 -0.46800
O 	O 	0.66310 0.71005 0.50158 -0.46000
O 	O 	0.71777 0.73341 0.38730 -0.45200
C 	C 	0.48387 0.02022 0.42354 0.09000
C 	C 	0.52275 0.02022 0.42354 -0.13000
C 	C 	0.64812 0.96100 0.49777 -0.13400
C 	C 	0.68644 0.96100 0.49777 0.11400
C 	C 	0.68859 0.92104 0.49068 -0.04200
C 	C 	0.69028 0.88957 0.48510 -0.01600
C 	C 	0.69238 0.85043 0.47816 0.06700
C 	C 	0.66132 0.81346 0.52776 -0.11300
C 	C 	0.66333 0.77597 0.52111 0.06400
C 	C 	0.69635 0.77654 0.46506 -0.12700
C 	C 	0.72741 0.81351 0.41546 0.04900
C 	C 	0.72540 0.85100 0.42211 -0.10400
C 	C 	0.69850 0.73658 0.45797 0.38500
H 	H 	0.47574 0.03498 0.36773 0.00200
H 	H 	0.54300 0.03498 0.36773 0.06500
H 	H 	0.62035 0.93253 0.49614 0.07900
H 	H 	0.63720 0.81344 0.56875 0.06100
H 	H 	0.64068 0.74858 0.55724 0.01200
H 	H 	0.75154 0.81353 0.37447 0.02600
H 	H 	0.74805 0.87839 0.38597 0.06100
O 	O 	0.25911 0.94609 0.90000 -0.43200
O 	O 	0.71361 0.67023 0.83491 -0.43800
O 	O 	0.68230 0.61556 0.72063 -0.45000
C 	C 	0.20301 0.84946 0.75687 0.08900
C 	C 	0.16413 0.81058 0.75687 -0.12600
C 	C 	0.97954 0.68521 0.83110 -0.13000
C 	C 	0.94122 0.64689 0.83110 0.10900
C 	C 	0.89911 0.64474 0.82401 -0.03300
C 	C 	0.86595 0.64305 0.81843 -0.01100
C 	C 	0.82471 0.64095 0.81149 0.07200
C 	C 	0.81880 0.67201 0.86109 -0.10700
C 	C 	0.77930 0.67000 0.85444 0.06700
C 	C 	0.74685 0.63698 0.79839 -0.12100
C 	C 	0.75276 0.60592 0.74879 0.05000
C 	C 	0.79226 0.60793 0.75544 -0.10200
C 	C 	0.70474 0.63483 0.79130 0.38100
H 	H 	0.22590 0.85759 0.70106 0.00700
H 	H 	0.15864 0.79033 0.70106 0.07100
H 	H 	0.97884 0.71298 0.82947 0.08600
H 	H 	0.84290 0.69613 0.90208 0.07900
H 	H 	0.77456 0.69265 0.89057 0.02800
H 	H 	0.72865 0.58179 0.70780 0.02900
H 	H 	0.79700 0.58528 0.71930 0.06400
O 	O 	0.92578 0.27942 0.23333 -0.47900
O 	O 	0.38028 0.00356 0.16824 -0.47100
O 	O 	0.34897 0.94889 0.05396 -0.45900
C 	C 	0.86968 0.18279 0.09020 0.08300
C 	C 	0.83080 0.14391 0.09020 -0.13700
C 	C 	0.64621 0.01854 0.16443 -0.15900
C 	C 	0.60789 0.98022 0.16443 0.10800
C 	C 	0.56578 0.97807 0.15734 -0.04700
C 	C 	0.53262 0.97638 0.15176 -0.02700
C 	C 	0.49138 0.97428 0.14482 0.07700
C 	C 	0.48547 0.00534 0.19442 -0.13300
C 	C 	0.44597 0.00333 0.18777 0.05300
C 	C 	0.41352 0.97031 0.13172 -0.12800
C 	C 	0.41943 0.93925 0.08212 0.04600
C 	C 	0.45893 0.94126 0.08877 -0.11600
C 	C 	0.37141 0.96816 0.12463 0.39900
H 	H 	0.89257 0.19092 0.03439 -0.01300
H 	H 	0.82531 0.12366 0.03439 0.05000
H 	H 	0.64551 0.04631 0.16280 0.07200
H 	H 	0.50957 0.02946 0.23541 0.05800
H 	H 	0.44123 0.02598 0.22390 0.00900
H 	H 	0.39532 0.91512 0.04113 0.01600
H 	H 	0.46367 0.91861 0.05263 0.05300
O 	O 	0.59244 0.61276 0.56667 -0.47700
O 	O 	0.04694 0.33690 0.50158 -0.46200
O 	O 	0.01563 0.28223 0.38730 -0.45900
C 	C 	0.53634 0.51613 0.42354 0.09000
C 	C 	0.49746 0.47725 0.42354 -0.13100
C 	C 	0.31287 0.35188 0.49777 -0.14400
C 	C 	0.27455 0.31356 0.49777 0.10200
C 	C 	0.23244 0.31141 0.49068 -0.04100
C 	C 	0.19928 0.30972 0.48510 -0.01900
C 	C 	0.15804 0.30762 0.47816 0.06800
C 	C 	0.15213 0.33868 0.52776 -0.11400
C 	C 	0.11263 0.33667 0.52111 0.06400
C 	C 	0.08018 0.30365 0.46506 -0.12800
C 	C 	0.08609 0.27259 0.41546 0.04900
C 	C 	0.12559 0.27460 0.42211 -0.10600
C 	C 	0.03807 0.30150 0.45797 0.38400
H 	H 	0.55923 0.52426 0.36773 0.00200
H 	H 	0.49197 0.45700 0.36773 0.06700
H 	H 	0.31217 0.37965 0.49614 0.08000
H 	H 	0.17623 0.36280 0.56875 0.06100
H 	H 	0.10789 0.35932 0.55724 0.01200
H 	H 	0.06198 0.24846 0.37447 0.02300
H 	H 	0.13033 0.25195 0.38597 0.05900
O 	O 	0.68698 0.74089 0.90000 -0.43800
O 	O 	0.95662 0.28639 0.83491 -0.43100
O 	O 	0.93326 0.31770 0.72063 -0.44500
C 	C 	0.64645 0.79699 0.75687 0.08900
C 	C 	0.64645 0.83587 0.75687 -0.12500
C 	C 	0.70567 0.02046 0.83110 -0.15700
C 	C 	0.70567 0.05878 0.83110 0.11400
C 	C 	0.74563 0.10089 0.82401 -0.03700
C 	C 	0.77710 0.13405 0.81843 -0.00900
C 	C 	0.81624 0.17529 0.81149 0.07000
C 	C 	0.85321 0.18120 0.86109 -0.10500
C 	C 	0.89070 0.22070 0.85444 0.06600
C 	C 	0.89013 0.25315 0.79839 -0.11900
C 	C 	0.85316 0.24724 0.74879 0.04800
C 	C 	0.81567 0.20774 0.75544 -0.10100
C 	C 	0.93009 0.29526 0.79130 0.37900
H 	H 	0.63169 0.77410 0.70106 0.00700
H 	H 	0.63169 0.84136 0.70106 0.07100
H 	H 	0.73414 0.02116 0.82947 0.08800
H 	H 	0.85323 0.15710 0.90208 0.07800
H 	H 	0.91809 0.22544 0.89057 0.03000
H 	H 	0.85314 0.27135 0.70780 0.03000
H 	H 	0.78828 0.20300 0.71930 0.06300
O 	O 	0.35365 0.07422 0.23333 -0.47700
O 	O 	0.62329 0.61972 0.16824 -0.46400
O 	O 	0.59993 0.65103 0.05396 -0.46100
C 	C 	0.31312 0.13032 0.09020 0.08200
C 	C 	0.31312 0.16920 0.09020 -0.13700
C 	C 	0.37234 0.35379 0.16443 -0.14600
C 	C 	0.37234 0.39211 0.16443 0.09400
C 	C 	0.41230 0.43422 0.15734 -0.04800
C 	C 	0.44377 0.46738 0.15176 -0.02900
C 	C 	0.48291 0.50862 0.14482 0.06300
C 	C 	0.51988 0.51453 0.19442 -0.12000
C 	C 	0.55737 0.55403 0.18777 0.06200
C 	C 	0.55680 0.58648 0.13172 -0.13900
C 	C 	0.51983 0.58057 0.08212 0.04600
C 	C 	0.48234 0.54107 0.08877 -0.11400
C 	C 	0.59676 0.62859 0.12463 0.38900
H 	H 	0.29836 0.10743 0.03439 -0.01500
H 	H 	0.29836 0.17469 0.03439 0.05000
H 	H 	0.40081 0.35449 0.16280 0.07000
H 	H 	0.51990 0.49043 0.23541 0.05600
H 	H 	0.58476 0.55877 0.22390 0.00600
H 	H 	0.51981 0.60468 0.04113 0.01500
H 	H 	0.45495 0.53633 0.05263 0.05100
O 	O 	0.02031 0.40756 0.56667 -0.47500
O 	O 	0.28995 0.95306 0.50158 -0.45800
O 	O 	0.26659 0.98437 0.38730 -0.44500
C 	C 	0.97978 0.46366 0.42354 0.10000
C 	C 	0.97978 0.50254 0.42354 -0.12000
C 	C 	0.03900 0.68713 0.49777 -0.14400
C 	C 	0.03900 0.72545 0.49777 0.10600
C 	C 	0.07896 0.76756 0.49068 -0.04300
C 	C 	0.11043 0.80072 0.48510 -0.01800
C 	C 	0.14957 0.84196 0.47816 0.06700
C 	C 	0.18654 0.84787 0.52776 -0.11300
C 	C 	0.22403 0.88737 0.52111 0.06400
C 	C 	0.22346 0.91982 0.46506 -0.12700
C 	C 	0.18649 0.91391 0.41546 0.04900
C 	C 	0.14900 0.87441 0.42211 -0.10400
C 	C 	0.26342 0.96193 0.45797 0.38700
H 	H 	0.96502 0.44077 0.36773 0.00100
H 	H 	0.96502 0.50803 0.36773 0.06700
H 	H 	0.06747 0.68783 0.49614 0.08000
H 	H 	0.18656 0.82377 0.56875 0.06100
H 	H 	0.25142 0.89211 0.55724 0.01100
H 	H 	0.18647 0.93802 0.37447 0.02700
H 	H 	0.12161 0.86967 0.38597 0.06000
Eu	Eu	0.32428 0.00000 -0.00000 1.54400
Eu	Eu	0.99095 0.33333 0.33333 1.71700
Eu	Eu	0.65761 0.66667 0.66667 1.70600
Eu	Eu	-0.00000 0.32428 -0.00000 1.54600
Eu	Eu	0.66667 0.65761 0.33333 1.69800
Eu	Eu	0.33333 0.99095 0.66667 1.72600
Eu	Eu	0.67572 0.67572 -0.00000 1.56900
Eu	Eu	0.34239 0.00905 0.33333 1.67700
Eu	Eu	0.00905 0.34239 0.66667 1.68600
C 	C 	0.33333 0.08134 0.16667 0.44600
C 	C 	0.33333 0.12306 0.16667 -0.20100
C 	C 	0.33333 0.20029 0.16667 0.07400
C 	C 	0.33333 0.24067 0.16667 -0.03500
C 	C 	0.33333 0.27359 0.16667 -0.04200
C 	C 	0.33333 0.31396 0.16667 0.08700
C 	C 	0.33333 0.39116 0.16667 -0.14800
H 	H 	0.33333 0.41954 0.16667 0.07300
C 	C 	0.00000 0.41468 0.50000 0.44300
C 	C 	0.00000 0.45639 0.50000 -0.20600
C 	C 	-0.00000 0.53363 0.50000 0.06900
C 	C 	-0.00000 0.57400 0.50000 -0.02700
C 	C 	-0.00000 0.60693 0.50000 -0.03600
C 	C 	-0.00000 0.64730 0.50000 0.08500
C 	C 	-0.00000 0.72450 0.50000 -0.16200
H 	H 	-0.00000 0.75288 0.50000 0.08100
C 	C 	0.91866 0.25199 0.16667 0.44800
C 	C 	0.87694 0.21027 0.16667 -0.20100
C 	C 	0.79971 0.13304 0.16667 0.07500
C 	C 	0.75933 0.09266 0.16667 -0.03700
C 	C 	0.72641 0.05974 0.16667 -0.04100
C 	C 	0.68604 0.01937 0.16667 0.07700
C 	C 	0.60884 0.94217 0.16667 -0.15000
H 	H 	0.58046 0.91379 0.16667 0.07400
C 	C 	0.58532 0.58532 0.50000 0.45300
C 	C 	0.54360 0.54360 0.50000 -0.19700
C 	C 	0.46637 0.46637 0.50000 0.08000
C 	C 	0.42599 0.42599 0.50000 -0.02600
C 	C 	0.39307 0.39307 0.50000 -0.03400
C 	C 	0.35270 0.35270 0.50000 0.09500
C 	C 	0.27550 0.27550 0.50000 -0.14700
H 	H 	0.24712 0.24712 0.50000 0.07800
C 	C 	0.74801 0.66667 0.16667 0.44800
C 	C 	0.78973 0.66667 0.16667 -0.20100
C 	C 	0.86696 0.66667 0.16667 0.07400
C 	C 	0.90734 0.66667 0.16667 -0.03200
C 	C 	0.94026 0.66667 0.16667 -0.04300
C 	C 	0.98063 0.66667 0.16667 0.09700
C 	C 	0.05783 0.66667 0.16667 -0.14600
H 	H 	0.08621 0.66667 0.16667 0.07200
C 	C 	0.41468 0.00000 0.50000 0.44200
C 	C 	0.45640 0.00000 0.50000 -0.20700
C 	C 	0.53363 0.00000 0.50000 0.06800
C 	C 	0.57400 0.00000 0.50000 -0.02700
C 	C 	0.60693 0.00000 0.50000 -0.03600
C 	C 	0.64730 0.00000 0.50000 0.08400
C 	C 	0.72450 0.00000 0.50000 -0.16300
H 	H 	0.75288 0.00000 0.50000 0.08100
C 	C 	0.08134 0.33333 0.83333 0.44500
C 	C 	0.12306 0.33333 0.83333 -0.18400
C 	C 	0.20029 0.33333 0.83333 0.08400
C 	C 	0.24067 0.33333 0.83333 -0.01600
C 	C 	0.27359 0.33333 0.83333 -0.02800
C 	C 	0.31396 0.33333 0.83333 0.10400
C 	C 	0.39116 0.33333 0.83333 -0.14600
H 	H 	0.41954 0.33333 0.83333 0.08500
C 	C 	0.25199 0.91866 0.83333 0.44600
C 	C 	0.21027 0.87694 0.83333 -0.18400
C 	C 	0.13304 0.79971 0.83333 0.08400
C 	C 	0.09266 0.75933 0.83333 -0.01800
C 	C 	0.05974 0.72641 0.83333 -0.02600
C 	C 	0.01937 0.68604 0.83333 0.09600
C 	C 	0.94217 0.60884 0.83333 -0.14800
H 	H 	0.91379 0.58046 0.83333 0.08600
C 	C 	0.66667 0.74801 0.83333 0.44700
C 	C 	0.66667 0.78973 0.83333 -0.18400
C 	C 	0.66667 0.86696 0.83333 0.08400
C 	C 	0.66667 0.90734 0.83333 -0.01300
C 	C 	0.66667 0.94026 0.83333 -0.02900
C 	C 	0.66667 0.98063 0.83333 0.11400
C 	C 	0.66667 0.05783 0.83333 -0.14500
H 	H 	0.66667 0.08621 0.83333 0.08500
