data_crystal

_cell_length_a 28.32000
_cell_length_b 28.32000
_cell_length_c 12.83500
_cell_angle_alpha 90.00000
_cell_angle_beta  90.00000
_cell_angle_gamma 120.00000

_symmetry_space_group_name_	'P 1'
_symmetry_space_group_name_H-M	'P 1'

loop_
_symmetry_equiv_pos_as_xyz
  x,y,z

loop_
_atom_site_label
_atom_site_type_symbol
_atom_site_fract_x
_atom_site_fract_y
_atom_site_fract_z
_atom_site_charge
O 	O 	0.31352 0.06760 0.24209 -0.44800
O 	O 	0.04293 0.31024 0.19712 -0.44500
O 	O 	0.08196 0.38617 0.10584 -0.37000
C 	C 	0.29538 0.15668 0.22403 0.05700
C 	C 	0.29538 0.20505 0.22403 -0.11500
C 	C 	0.28498 0.29978 0.16396 -0.09000
C 	C 	0.28498 0.34817 0.16396 0.02300
C 	C 	0.23345 0.34817 0.16107 0.02500
C 	C 	0.18843 0.30767 0.21030 -0.09200
C 	C 	0.14008 0.30768 0.20759 0.02200
C 	C 	0.13674 0.34819 0.15564 -0.12400
C 	C 	0.18175 0.38869 0.10641 0.02000
C 	C 	0.23011 0.38867 0.10912 -0.09900
C 	C 	0.08486 0.34820 0.15273 0.28900
H 	H 	0.26768 0.12517 0.26591 0.01100
H 	H 	0.26768 0.20886 0.26591 0.05700
H 	H 	0.24968 0.26448 0.16197 0.04300
H 	H 	0.19087 0.27812 0.24822 0.05100
H 	H 	0.10722 0.27813 0.24353 0.02100
H 	H 	0.17931 0.41824 0.06849 0.01300
H 	H 	0.26296 0.41823 0.07318 0.02900
O 	O 	0.98019 0.40093 0.57542 -0.42000
O 	O 	0.70960 0.64357 0.53045 -0.43100
O 	O 	0.74863 0.71950 0.43917 -0.35000
C 	C 	0.96205 0.49001 0.55736 0.07500
C 	C 	0.96205 0.53838 0.55736 -0.08700
C 	C 	0.95165 0.63311 0.49729 -0.07300
C 	C 	0.95165 0.68150 0.49729 0.05800
C 	C 	0.90012 0.68150 0.49440 0.02300
C 	C 	0.85510 0.64100 0.54363 -0.07900
C 	C 	0.80675 0.64101 0.54092 0.01900
C 	C 	0.80341 0.68152 0.48897 -0.10700
C 	C 	0.84842 0.72202 0.43974 0.02500
C 	C 	0.89678 0.72200 0.44245 -0.07800
C 	C 	0.75153 0.68153 0.48606 0.28700
H 	H 	0.93435 0.45850 0.59924 0.01500
H 	H 	0.93435 0.54219 0.59924 0.05500
H 	H 	0.91635 0.59781 0.49530 0.05300
H 	H 	0.85754 0.61145 0.58155 0.05300
H 	H 	0.77389 0.61146 0.57686 0.03000
H 	H 	0.84598 0.75157 0.40182 0.03700
H 	H 	0.92963 0.75156 0.40651 0.05200
O 	O 	0.64685 0.73427 0.90876 -0.39700
O 	O 	0.37626 0.97691 0.86379 -0.38400
O 	O 	0.41529 0.05284 0.77251 -0.34600
C 	C 	0.62871 0.82335 0.89070 0.05600
C 	C 	0.62871 0.87172 0.89070 -0.08700
C 	C 	0.61831 0.96645 0.83063 -0.07300
C 	C 	0.61831 0.01484 0.83063 0.03500
C 	C 	0.56678 0.01484 0.82774 0.01600
C 	C 	0.52176 0.97434 0.87697 -0.05300
C 	C 	0.47341 0.97435 0.87426 0.04400
C 	C 	0.47007 0.01486 0.82231 -0.11200
C 	C 	0.51508 0.05536 0.77308 0.02800
C 	C 	0.56344 0.05534 0.77579 -0.07400
C 	C 	0.41819 0.01487 0.81940 0.27000
H 	H 	0.60101 0.79184 0.93258 0.04600
H 	H 	0.60101 0.87553 0.93258 0.07800
H 	H 	0.58301 0.93115 0.82864 0.05900
H 	H 	0.52420 0.94479 0.91489 0.06700
H 	H 	0.44055 0.94480 0.91020 0.04600
H 	H 	0.51264 0.08491 0.73516 0.04000
H 	H 	0.59629 0.08490 0.73985 0.04900
O 	O 	0.93240 0.24592 0.24209 -0.44100
O 	O 	0.68976 0.73269 0.19712 -0.43300
O 	O 	0.61383 0.69579 0.10584 -0.36700
C 	C 	0.84332 0.13870 0.22403 0.06100
C 	C 	0.79495 0.09033 0.22403 -0.11800
C 	C 	0.70022 0.98520 0.16396 -0.06000
C 	C 	0.65183 0.93681 0.16396 0.01800
C 	C 	0.65183 0.88528 0.16107 0.03100
C 	C 	0.69233 0.88076 0.21030 -0.09300
C 	C 	0.69232 0.83240 0.20759 0.02400
C 	C 	0.65181 0.78855 0.15564 -0.12300
C 	C 	0.61131 0.79306 0.10641 0.02100
C 	C 	0.61133 0.84144 0.10912 -0.10000
C 	C 	0.65180 0.73666 0.15273 0.28800
H 	H 	0.87483 0.14251 0.26591 0.01300
H 	H 	0.79114 0.05882 0.26591 0.05600
H 	H 	0.73552 0.98520 0.16197 0.04300
H 	H 	0.72188 0.91275 0.24822 0.05700
H 	H 	0.72187 0.82909 0.24353 0.02600
H 	H 	0.58176 0.76107 0.06849 0.01300
H 	H 	0.58177 0.84473 0.07318 0.03000
O 	O 	0.59907 0.57925 0.57542 -0.44100
O 	O 	0.35643 0.06602 0.53045 -0.43800
O 	O 	0.28050 0.02912 0.43917 -0.36000
C 	C 	0.50999 0.47203 0.55736 0.05800
C 	C 	0.46162 0.42366 0.55736 -0.10600
C 	C 	0.36689 0.31853 0.49729 -0.08700
C 	C 	0.31850 0.27014 0.49729 0.03500
C 	C 	0.31850 0.21861 0.49440 0.03100
C 	C 	0.35900 0.21409 0.54363 -0.08600
C 	C 	0.35899 0.16573 0.54092 0.02300
C 	C 	0.31848 0.12188 0.48897 -0.11300
C 	C 	0.27798 0.12639 0.43974 0.02800
C 	C 	0.27800 0.17477 0.44245 -0.08600
C 	C 	0.31847 0.06999 0.48606 0.29000
H 	H 	0.54150 0.47584 0.59924 0.01800
H 	H 	0.45781 0.39215 0.59924 0.05800
H 	H 	0.40219 0.31853 0.49530 0.05400
H 	H 	0.38855 0.24608 0.58155 0.05400
H 	H 	0.38854 0.16242 0.57686 0.02900
H 	H 	0.24843 0.09440 0.40182 0.03100
H 	H 	0.24844 0.17806 0.40651 0.04700
O 	O 	0.26573 0.91259 0.90876 -0.39300
O 	O 	0.02309 0.39936 0.86379 -0.42000
O 	O 	0.94716 0.36246 0.77251 -0.34500
C 	C 	0.17665 0.80537 0.89070 0.06100
C 	C 	0.12828 0.75700 0.89070 -0.09500
C 	C 	0.03355 0.65187 0.83063 -0.10200
C 	C 	0.98516 0.60348 0.83063 0.06200
C 	C 	0.98516 0.55195 0.82774 0.05200
C 	C 	0.02566 0.54743 0.87697 -0.09100
C 	C 	0.02565 0.49907 0.87426 0.00800
C 	C 	0.98514 0.45522 0.82231 -0.08000
C 	C 	0.94464 0.45973 0.77308 0.02600
C 	C 	0.94466 0.50811 0.77579 -0.08000
C 	C 	0.98513 0.40333 0.81940 0.30600
H 	H 	0.20816 0.80918 0.93258 0.04400
H 	H 	0.12447 0.72549 0.93258 0.08000
H 	H 	0.06885 0.65187 0.82864 0.06300
H 	H 	0.05521 0.57942 0.91489 0.07300
H 	H 	0.05520 0.49576 0.91020 0.05100
H 	H 	0.91509 0.42774 0.73516 0.04100
H 	H 	0.91510 0.51140 0.73985 0.05100
O 	O 	0.75408 0.68648 0.24209 -0.44300
O 	O 	0.26731 0.95707 0.19712 -0.42100
O 	O 	0.30421 0.91804 0.10584 -0.36000
C 	C 	0.86130 0.70462 0.22403 0.05700
C 	C 	0.90967 0.70462 0.22403 -0.10700
C 	C 	0.01480 0.71502 0.16396 -0.11900
C 	C 	0.06319 0.71502 0.16396 0.03300
C 	C 	0.11472 0.76655 0.16107 0.01900
C 	C 	0.11924 0.81157 0.21030 -0.08600
C 	C 	0.16760 0.85992 0.20759 0.01700
C 	C 	0.21145 0.86326 0.15564 -0.11700
C 	C 	0.20694 0.81825 0.10641 0.01500
C 	C 	0.15856 0.76989 0.10912 -0.09300
C 	C 	0.26334 0.91514 0.15273 0.28500
H 	H 	0.85749 0.73232 0.26591 0.01500
H 	H 	0.94118 0.73232 0.26591 0.06100
H 	H 	0.01480 0.75032 0.16197 0.04800
H 	H 	0.08725 0.80913 0.24822 0.05000
H 	H 	0.17091 0.89278 0.24353 0.02800
H 	H 	0.23893 0.82069 0.06849 0.01500
H 	H 	0.15527 0.73704 0.07318 0.02700
O 	O 	0.42075 0.01981 0.57542 -0.44400
O 	O 	0.93398 0.29040 0.53045 -0.42500
O 	O 	0.97088 0.25137 0.43917 -0.34200
C 	C 	0.52797 0.03795 0.55736 0.05800
C 	C 	0.57634 0.03795 0.55736 -0.10400
C 	C 	0.68147 0.04835 0.49729 -0.09000
C 	C 	0.72986 0.04835 0.49729 0.04400
C 	C 	0.78139 0.09988 0.49440 0.02400
C 	C 	0.78591 0.14490 0.54363 -0.08000
C 	C 	0.83427 0.19325 0.54092 0.01800
C 	C 	0.87812 0.19659 0.48897 -0.10600
C 	C 	0.87361 0.15158 0.43974 0.02300
C 	C 	0.82523 0.10322 0.44245 -0.08000
C 	C 	0.93001 0.24847 0.48606 0.28500
H 	H 	0.52416 0.06565 0.59924 0.01700
H 	H 	0.60785 0.06565 0.59924 0.05700
H 	H 	0.68147 0.08365 0.49530 0.05500
H 	H 	0.75392 0.14246 0.58155 0.05200
H 	H 	0.83758 0.22611 0.57686 0.03100
H 	H 	0.90560 0.15402 0.40182 0.03700
H 	H 	0.82194 0.07037 0.40651 0.04500
O 	O 	0.08741 0.35315 0.90876 -0.39700
O 	O 	0.60064 0.62374 0.86379 -0.40400
O 	O 	0.63754 0.58471 0.77251 -0.34600
C 	C 	0.19463 0.37129 0.89070 0.05900
C 	C 	0.24300 0.37129 0.89070 -0.09100
C 	C 	0.34813 0.38169 0.83063 -0.08700
C 	C 	0.39652 0.38169 0.83063 0.04700
C 	C 	0.44805 0.43322 0.82774 0.03400
C 	C 	0.45257 0.47824 0.87697 -0.07200
C 	C 	0.50093 0.52659 0.87426 0.02700
C 	C 	0.54478 0.52993 0.82231 -0.09700
C 	C 	0.54027 0.48492 0.77308 0.02700
C 	C 	0.49189 0.43656 0.77579 -0.07700
C 	C 	0.59667 0.58181 0.81940 0.28800
H 	H 	0.19082 0.39899 0.93258 0.04500
H 	H 	0.27451 0.39899 0.93258 0.07900
H 	H 	0.34813 0.41699 0.82864 0.06100
H 	H 	0.42058 0.47580 0.91489 0.07000
H 	H 	0.50424 0.55945 0.91020 0.04800
H 	H 	0.57226 0.48736 0.73516 0.04000
H 	H 	0.48860 0.40371 0.73985 0.05000
O 	O 	0.06760 0.31352 0.75791 -0.43400
O 	O 	0.31024 0.04293 0.80288 -0.42500
O 	O 	0.38617 0.08196 0.89416 -0.31700
C 	C 	0.15668 0.29538 0.77597 0.05500
C 	C 	0.20505 0.29538 0.77597 -0.09700
C 	C 	0.29978 0.28498 0.83604 -0.08500
C 	C 	0.34817 0.28498 0.83604 0.04700
C 	C 	0.34817 0.23345 0.83893 0.03500
C 	C 	0.30767 0.18843 0.78970 -0.07800
C 	C 	0.30768 0.14008 0.79241 0.02400
C 	C 	0.34819 0.13674 0.84436 -0.09800
C 	C 	0.38869 0.18175 0.89359 0.03500
C 	C 	0.38867 0.23011 0.89088 -0.07200
C 	C 	0.34820 0.08486 0.84727 0.29200
H 	H 	0.12517 0.26768 0.73409 0.02100
H 	H 	0.20886 0.26768 0.73409 0.05800
H 	H 	0.26448 0.24968 0.83803 0.06400
H 	H 	0.27812 0.19087 0.75178 0.05500
H 	H 	0.27813 0.10722 0.75647 0.03200
H 	H 	0.41824 0.17931 0.93151 0.05900
H 	H 	0.41823 0.26296 0.92682 0.07100
O 	O 	0.73427 0.64685 0.09124 -0.46100
O 	O 	0.97691 0.37626 0.13621 -0.41900
O 	O 	0.05284 0.41529 0.22749 -0.35200
C 	C 	0.82335 0.62871 0.10930 0.05200
C 	C 	0.87172 0.62871 0.10930 -0.11400
C 	C 	0.96645 0.61831 0.16937 -0.07300
C 	C 	0.01484 0.61831 0.16937 0.01200
C 	C 	0.01484 0.56678 0.17226 0.00600
C 	C 	0.97434 0.52176 0.12303 -0.07300
C 	C 	0.97435 0.47341 0.12574 0.03400
C 	C 	0.01486 0.47007 0.17769 -0.13500
C 	C 	0.05536 0.51508 0.22692 0.02500
C 	C 	0.05534 0.56344 0.22421 -0.08800
C 	C 	0.01487 0.41819 0.18060 0.26500
H 	H 	0.79184 0.60101 0.06742 -0.00800
H 	H 	0.87553 0.60101 0.06742 0.03600
H 	H 	0.93115 0.58301 0.17136 0.04800
H 	H 	0.94479 0.52420 0.08511 0.03500
H 	H 	0.94480 0.44055 0.08980 0.01100
H 	H 	0.08491 0.51264 0.26484 0.03200
H 	H 	0.08490 0.59629 0.26015 0.04700
O 	O 	0.40093 0.98019 0.42458 -0.41900
O 	O 	0.64357 0.70960 0.46955 -0.43000
O 	O 	0.71950 0.74863 0.56083 -0.34800
C 	C 	0.49001 0.96205 0.44264 0.07600
C 	C 	0.53838 0.96205 0.44264 -0.08600
C 	C 	0.63311 0.95165 0.50271 -0.07300
C 	C 	0.68150 0.95165 0.50271 0.05700
C 	C 	0.68150 0.90012 0.50560 0.02300
C 	C 	0.64100 0.85510 0.45637 -0.07800
C 	C 	0.64101 0.80675 0.45908 0.01900
C 	C 	0.68152 0.80341 0.51103 -0.10600
C 	C 	0.72202 0.84842 0.56026 0.02300
C 	C 	0.72200 0.89678 0.55755 -0.07900
C 	C 	0.68153 0.75153 0.51394 0.28600
H 	H 	0.45850 0.93435 0.40076 0.01400
H 	H 	0.54219 0.93435 0.40076 0.05500
H 	H 	0.59781 0.91635 0.50470 0.05300
H 	H 	0.61145 0.85754 0.41845 0.05300
H 	H 	0.61146 0.77389 0.42314 0.03000
H 	H 	0.75157 0.84598 0.59818 0.04100
H 	H 	0.75156 0.92963 0.59349 0.05400
O 	O 	0.24592 0.93240 0.75791 -0.42900
O 	O 	0.73269 0.68976 0.80288 -0.41500
O 	O 	0.69579 0.61383 0.89416 -0.31600
C 	C 	0.13870 0.84332 0.77597 0.05800
C 	C 	0.09033 0.79495 0.77597 -0.10200
C 	C 	0.98520 0.70022 0.83604 -0.05700
C 	C 	0.93681 0.65183 0.83604 0.04100
C 	C 	0.88528 0.65183 0.83893 0.03900
C 	C 	0.88076 0.69233 0.78970 -0.07900
C 	C 	0.83240 0.69232 0.79241 0.02600
C 	C 	0.78855 0.65181 0.84436 -0.09600
C 	C 	0.79306 0.61131 0.89359 0.03500
C 	C 	0.84144 0.61133 0.89088 -0.07400
C 	C 	0.73666 0.65180 0.84727 0.29000
H 	H 	0.14251 0.87483 0.73409 0.02300
H 	H 	0.05882 0.79114 0.73409 0.05700
H 	H 	0.98520 0.73552 0.83803 0.06400
H 	H 	0.91275 0.72188 0.75178 0.06000
H 	H 	0.82909 0.72187 0.75647 0.03600
H 	H 	0.76107 0.58176 0.93151 0.05800
H 	H 	0.84473 0.58177 0.92682 0.07100
O 	O 	0.91259 0.26573 0.09124 -0.45700
O 	O 	0.39936 0.02309 0.13621 -0.45600
O 	O 	0.36246 0.94716 0.22749 -0.35200
C 	C 	0.80537 0.17665 0.10930 0.05700
C 	C 	0.75700 0.12828 0.10930 -0.12300
C 	C 	0.65187 0.03355 0.16937 -0.10400
C 	C 	0.60348 0.98516 0.16937 0.04100
C 	C 	0.55195 0.98516 0.17226 0.04500
C 	C 	0.54743 0.02566 0.12303 -0.11400
C 	C 	0.49907 0.02565 0.12574 -0.00300
C 	C 	0.45522 0.98514 0.17769 -0.10100
C 	C 	0.45973 0.94464 0.22692 0.02300
C 	C 	0.50811 0.94466 0.22421 -0.09300
C 	C 	0.40333 0.98513 0.18060 0.30400
H 	H 	0.80918 0.20816 0.06742 -0.00900
H 	H 	0.72549 0.12447 0.06742 0.03800
H 	H 	0.65187 0.06885 0.17136 0.05200
H 	H 	0.57942 0.05521 0.08511 0.04100
H 	H 	0.49576 0.05520 0.08980 0.01600
H 	H 	0.42774 0.91509 0.26484 0.03300
H 	H 	0.51140 0.91510 0.26015 0.04900
O 	O 	0.57925 0.59907 0.42458 -0.44100
O 	O 	0.06602 0.35643 0.46955 -0.43700
O 	O 	0.02912 0.28050 0.56083 -0.35900
C 	C 	0.47203 0.50999 0.44264 0.05900
C 	C 	0.42366 0.46162 0.44264 -0.10600
C 	C 	0.31853 0.36689 0.50271 -0.08700
C 	C 	0.27014 0.31850 0.50271 0.03500
C 	C 	0.21861 0.31850 0.50560 0.03100
C 	C 	0.21409 0.35900 0.45637 -0.08500
C 	C 	0.16573 0.35899 0.45908 0.02400
C 	C 	0.12188 0.31848 0.51103 -0.11200
C 	C 	0.12639 0.27798 0.56026 0.02700
C 	C 	0.17477 0.27800 0.55755 -0.08700
C 	C 	0.06999 0.31847 0.51394 0.28900
H 	H 	0.47584 0.54150 0.40076 0.01700
H 	H 	0.39215 0.45781 0.40076 0.05800
H 	H 	0.31853 0.40219 0.50470 0.05500
H 	H 	0.24608 0.38855 0.41845 0.05400
H 	H 	0.16242 0.38854 0.42314 0.02900
H 	H 	0.09440 0.24843 0.59818 0.03400
H 	H 	0.17806 0.24844 0.59349 0.05000
O 	O 	0.68648 0.75408 0.75791 -0.43100
O 	O 	0.95707 0.26731 0.80288 -0.40300
O 	O 	0.91804 0.30421 0.89416 -0.31000
C 	C 	0.70462 0.86130 0.77597 0.05400
C 	C 	0.70462 0.90967 0.77597 -0.09100
C 	C 	0.71502 0.01480 0.83604 -0.11300
C 	C 	0.71502 0.06319 0.83604 0.05600
C 	C 	0.76655 0.11472 0.83893 0.02800
C 	C 	0.81157 0.11924 0.78970 -0.07200
C 	C 	0.85992 0.16760 0.79241 0.02000
C 	C 	0.86326 0.21145 0.84436 -0.09100
C 	C 	0.81825 0.20694 0.89359 0.03000
C 	C 	0.76989 0.15856 0.89088 -0.06800
C 	C 	0.91514 0.26334 0.84727 0.28800
H 	H 	0.73232 0.85749 0.73409 0.02500
H 	H 	0.73232 0.94118 0.73409 0.06200
H 	H 	0.75032 0.01480 0.83803 0.06900
H 	H 	0.80913 0.08725 0.75178 0.05300
H 	H 	0.89278 0.17091 0.75647 0.03800
H 	H 	0.82069 0.23893 0.93151 0.06000
H 	H 	0.73704 0.15527 0.92682 0.06900
O 	O 	0.35315 0.08741 0.09124 -0.46200
O 	O 	0.62374 0.60064 0.13621 -0.44000
O 	O 	0.58471 0.63754 0.22749 -0.35200
C 	C 	0.37129 0.19463 0.10930 0.05500
C 	C 	0.37129 0.24300 0.10930 -0.11900
C 	C 	0.38169 0.34813 0.16937 -0.08800
C 	C 	0.38169 0.39652 0.16937 0.02500
C 	C 	0.43322 0.44805 0.17226 0.02500
C 	C 	0.47824 0.45257 0.12303 -0.09400
C 	C 	0.52659 0.50093 0.12574 0.01600
C 	C 	0.52993 0.54478 0.17769 -0.11900
C 	C 	0.48492 0.54027 0.22692 0.02400
C 	C 	0.43656 0.49189 0.22421 -0.09100
C 	C 	0.58181 0.59667 0.18060 0.28400
H 	H 	0.39899 0.19082 0.06742 -0.00900
H 	H 	0.39899 0.27451 0.06742 0.03700
H 	H 	0.41699 0.34813 0.17136 0.04900
H 	H 	0.47580 0.42058 0.08511 0.03800
H 	H 	0.55945 0.50424 0.08980 0.01300
H 	H 	0.48736 0.57226 0.26484 0.03200
H 	H 	0.40371 0.48860 0.26015 0.04800
O 	O 	0.01981 0.42075 0.42458 -0.44400
O 	O 	0.29040 0.93398 0.46955 -0.42400
O 	O 	0.25137 0.97088 0.56083 -0.34000
C 	C 	0.03795 0.52797 0.44264 0.05900
C 	C 	0.03795 0.57634 0.44264 -0.10300
C 	C 	0.04835 0.68147 0.50271 -0.09000
C 	C 	0.04835 0.72986 0.50271 0.04400
C 	C 	0.09988 0.78139 0.50560 0.02400
C 	C 	0.14490 0.78591 0.45637 -0.07900
C 	C 	0.19325 0.83427 0.45908 0.01900
C 	C 	0.19659 0.87812 0.51103 -0.10500
C 	C 	0.15158 0.87361 0.56026 0.02200
C 	C 	0.10322 0.82523 0.55755 -0.08000
C 	C 	0.24847 0.93001 0.51394 0.28400
H 	H 	0.06565 0.52416 0.40076 0.01700
H 	H 	0.06565 0.60785 0.40076 0.05700
H 	H 	0.08365 0.68147 0.50470 0.05600
H 	H 	0.14246 0.75392 0.41845 0.05200
H 	H 	0.22611 0.83758 0.42314 0.03100
H 	H 	0.15402 0.90560 0.59818 0.04100
H 	H 	0.07037 0.82194 0.59349 0.04800
La	La	0.32245 0.00000 -0.00000 1.49300
La	La	0.98912 0.33333 0.33333 1.62600
La	La	0.65578 0.66667 0.66667 1.60600
La	La	-0.00000 0.32245 -0.00000 1.49300
La	La	0.66667 0.65578 0.33333 1.60400
La	La	0.33333 0.98912 0.66667 1.62800
La	La	0.67755 0.67755 -0.00000 1.51600
La	La	0.34422 0.01088 0.33333 1.58200
La	La	0.01088 0.34422 0.66667 1.58400
C 	C 	0.33333 0.09957 0.16667 0.38600
C 	C 	0.33333 0.15147 0.16667 -0.17500
C 	C 	0.33333 0.24823 0.16667 0.04500
C 	C 	0.33333 0.29978 0.16667 0.02000
C 	C 	0.33333 0.39652 0.16667 -0.09500
H 	H 	0.33333 0.43183 0.16667 0.04600
C 	C 	-0.00000 0.43290 0.50000 0.36500
C 	C 	-0.00000 0.48481 0.50000 -0.17800
C 	C 	-0.00000 0.58157 0.50000 0.02800
C 	C 	-0.00000 0.63312 0.50000 0.01700
C 	C 	0.00000 0.72986 0.50000 -0.12300
H 	H 	-0.00000 0.76517 0.50000 0.05700
C 	C 	0.90043 0.23376 0.16667 0.38700
C 	C 	0.84853 0.18186 0.16667 -0.17500
C 	C 	0.75177 0.08510 0.16667 0.05100
C 	C 	0.70022 0.03355 0.16667 -0.00100
C 	C 	0.60348 0.93681 0.16667 -0.09400
H 	H 	0.56817 0.90150 0.16667 0.04600
C 	C 	0.56710 0.56710 0.50000 0.38500
C 	C 	0.51519 0.51520 0.50000 -0.16100
C 	C 	0.41844 0.41844 0.50000 0.04800
C 	C 	0.36688 0.36688 0.50000 0.03100
C 	C 	0.27014 0.27014 0.50000 -0.09200
H 	H 	0.23483 0.23483 0.50000 0.05200
C 	C 	0.76624 0.66667 0.16667 0.38600
C 	C 	0.81814 0.66667 0.16667 -0.17100
C 	C 	0.91490 0.66667 0.16667 0.03900
C 	C 	0.96645 0.66667 0.16667 0.04300
C 	C 	0.06319 0.66667 0.16667 -0.09800
H 	H 	0.09850 0.66667 0.16667 0.04700
C 	C 	0.43290 0.00000 0.50000 0.36500
C 	C 	0.48481 0.00000 0.50000 -0.17800
C 	C 	0.58157 0.00000 0.50000 0.02900
C 	C 	0.63312 0.00000 0.50000 0.01700
C 	C 	0.72986 0.00000 0.50000 -0.12200
H 	H 	0.76517 0.00000 0.50000 0.05700
C 	C 	0.09957 0.33333 0.83333 0.37700
C 	C 	0.15147 0.33333 0.83333 -0.14400
C 	C 	0.24823 0.33333 0.83333 0.04900
C 	C 	0.29978 0.33333 0.83333 0.04300
C 	C 	0.39652 0.33333 0.83333 -0.09000
H 	H 	0.43183 0.33333 0.83333 0.06200
C 	C 	0.23376 0.90043 0.83333 0.37800
C 	C 	0.18186 0.84853 0.83333 -0.14500
C 	C 	0.08510 0.75177 0.83333 0.05500
C 	C 	0.03355 0.70022 0.83333 0.02300
C 	C 	0.93681 0.60348 0.83333 -0.08900
H 	H 	0.90150 0.56817 0.83333 0.06200
C 	C 	0.66667 0.76624 0.83333 0.37800
C 	C 	0.66667 0.81814 0.83333 -0.14100
C 	C 	0.66667 0.91490 0.83333 0.04300
C 	C 	0.66667 0.96645 0.83333 0.06400
C 	C 	0.66667 0.06319 0.83333 -0.09300
H 	H 	0.66667 0.09850 0.83333 0.06300
