data_crystal

_cell_length_a 16.21110
_cell_length_b 11.86830
_cell_length_c 17.99230
_cell_angle_alpha 90.00000
_cell_angle_beta  103.70000
_cell_angle_gamma 90.00000

_symmetry_space_group_name_	'P 1'
_symmetry_space_group_name_H-M	'P 1'

loop_
_symmetry_equiv_pos_as_xyz
  x,y,z

loop_
_atom_site_label
_atom_site_type_symbol
_atom_site_fract_x
_atom_site_fract_y
_atom_site_fract_z
_atom_site_charge
Mo	Mo	0.21690 0.64127 0.06744 1.06900
Mo	Mo	0.21593 0.34798 0.03711 1.06600
Mo	Mo	0.11768 0.76708 0.96676 1.09200
Mo	Mo	0.97955 0.64577 0.80495 1.10100
Mo	Mo	0.97646 0.42919 0.78692 1.10100
Mo	Mo	0.11124 0.25542 0.92195 1.08400
Mn	Mn	0.37607 0.50208 0.86574 1.33000
P 	P 	0.06137 0.20096 0.73750 0.48000
P 	P 	0.17269 0.52450 0.88601 0.52400
P 	P 	0.12328 0.83689 0.79012 0.52900
P 	P 	0.38927 0.50764 0.05842 0.52100
O 	O 	0.09286 0.63490 0.02412 -0.66000
O 	O 	0.23931 0.74560 0.99174 -0.45500
O 	O 	0.09189 0.36120 0.00114 -0.65800
O 	O 	0.23400 0.27370 0.94658 -0.45100
O 	O 	0.02900 0.32360 0.72188 -0.37900
O 	O 	0.11425 0.42290 0.85860 -0.42200
O 	O 	0.20514 0.48050 0.11464 -0.47300
O 	O 	0.12230 0.19590 0.81840 -0.36400
O 	O 	0.34354 0.39350 0.06116 -0.39300
O 	O 	0.01760 0.55000 0.73244 -0.48600
O 	O 	0.21187 0.50950 0.97309 -0.41900
O 	O 	0.13430 0.86230 0.87628 -0.37700
O 	O 	0.96427 0.52360 0.87488 -0.59900
O 	O 	0.03840 0.77500 0.76023 -0.39100
O 	O 	0.34197 0.60040 0.09155 -0.40700
O 	O 	0.99159 0.75450 0.90058 -0.43800
O 	O 	0.13020 0.94350 0.74782 -0.34200
O 	O 	0.11563 0.63130 0.87741 -0.42100
O 	O 	0.98624 0.29040 0.86273 -0.44300
O 	O 	0.24014 0.54050 0.84182 -0.33600
O 	O 	0.98530 0.12220 0.73462 -0.23600
O 	O 	0.47729 0.49750 0.11739 -0.32300
O 	O 	0.40230 0.53980 0.98191 -0.37600
O 	O 	0.19990 0.76040 0.78050 -0.16500
O 	O 	0.10870 0.16900 0.67742 -0.34100
O 	O 	0.37760 0.31790 0.89470 -0.43400
H 	H 	0.42680 0.29720 0.91170 0.25700
Mo	Mo	0.28310 0.14127 0.43256 1.07100
Mo	Mo	0.28407 0.84798 0.46289 1.08700
Mo	Mo	0.38232 0.26708 0.53324 1.08200
Mo	Mo	0.52045 0.14577 0.69505 1.08100
Mo	Mo	0.52354 0.92919 0.71308 1.10200
Mo	Mo	0.38876 0.75542 0.57805 1.08600
Mn	Mn	0.12393 0.00208 0.63426 1.31000
P 	P 	0.43863 0.70096 0.76250 0.51300
P 	P 	0.32731 0.02450 0.61399 0.49500
P 	P 	0.37672 0.33689 0.70988 0.53000
P 	P 	0.11073 0.00764 0.44158 0.49100
O 	O 	0.40714 0.13490 0.47588 -0.63900
O 	O 	0.26069 0.24560 0.50826 -0.48400
O 	O 	0.40811 0.86120 0.49886 -0.61200
O 	O 	0.26600 0.77370 0.55342 -0.45900
O 	O 	0.47100 0.82360 0.77812 -0.35000
O 	O 	0.38575 0.92290 0.64140 -0.38500
O 	O 	0.29486 0.98050 0.38536 -0.44500
O 	O 	0.37770 0.69590 0.68160 -0.35300
O 	O 	0.15646 0.89350 0.43884 -0.35300
O 	O 	0.48240 0.05000 0.76756 -0.48000
O 	O 	0.28813 0.00950 0.52691 -0.46100
O 	O 	0.36570 0.36230 0.62372 -0.38600
O 	O 	0.53573 0.02360 0.62512 -0.64100
O 	O 	0.46160 0.27500 0.73977 -0.37900
O 	O 	0.15803 0.10040 0.40845 -0.41300
O 	O 	0.50841 0.25450 0.59942 -0.47100
O 	O 	0.36980 0.44350 0.75218 -0.36300
O 	O 	0.38437 0.13130 0.62259 -0.41400
O 	O 	0.51376 0.79040 0.63727 -0.46500
O 	O 	0.25986 0.04050 0.65818 -0.34600
O 	O 	0.51470 0.62220 0.76538 -0.26000
O 	O 	0.02271 0.99750 0.38261 -0.30100
O 	O 	0.09770 0.03980 0.51809 -0.42500
O 	O 	0.30010 0.26040 0.71950 -0.17200
O 	O 	0.39130 0.66900 0.82258 -0.32600
O 	O 	0.12240 0.81790 0.60530 -0.42300
H 	H 	0.07320 0.79720 0.58830 0.24400
Mo	Mo	0.78310 0.35873 0.93256 1.09400
Mo	Mo	0.78407 0.65202 0.96289 1.09900
Mo	Mo	0.88232 0.23292 0.03324 1.07700
Mo	Mo	0.02045 0.35423 0.19505 1.06000
Mo	Mo	0.02354 0.57081 0.21308 1.06300
Mo	Mo	0.88876 0.74458 0.07805 1.08600
Mn	Mn	0.62393 0.49792 0.13426 1.32800
P 	P 	0.93863 0.79904 0.26250 0.53800
P 	P 	0.82731 0.47550 0.11399 0.52300
P 	P 	0.87672 0.16311 0.20988 0.53100
P 	P 	0.61073 0.49236 0.94158 0.58200
O 	O 	0.90714 0.36510 0.97588 -0.59000
O 	O 	0.76069 0.25440 0.00826 -0.50400
O 	O 	0.90811 0.63880 0.99886 -0.58200
O 	O 	0.76600 0.72630 0.05342 -0.47400
O 	O 	0.97100 0.67640 0.27812 -0.34800
O 	O 	0.88575 0.57710 0.14140 -0.40800
O 	O 	0.79486 0.51950 0.88536 -0.46100
O 	O 	0.87770 0.80410 0.18160 -0.34600
O 	O 	0.65646 0.60650 0.93884 -0.36800
O 	O 	0.98240 0.45000 0.26756 -0.43900
O 	O 	0.78813 0.49050 0.02691 -0.46700
O 	O 	0.86570 0.13770 0.12372 -0.38900
O 	O 	0.03573 0.47640 0.12512 -0.63800
O 	O 	0.96160 0.22500 0.23977 -0.36300
O 	O 	0.65803 0.39960 0.90845 -0.39600
O 	O 	0.00841 0.24550 0.09942 -0.51300
O 	O 	0.86980 0.05650 0.25218 -0.37700
O 	O 	0.88437 0.36870 0.12259 -0.40500
O 	O 	0.01376 0.70960 0.13727 -0.49500
O 	O 	0.75986 0.45950 0.15818 -0.33700
O 	O 	0.01470 0.87780 0.26538 -0.28100
O 	O 	0.52271 0.50250 0.88261 -0.32100
O 	O 	0.59770 0.46020 0.01809 -0.44000
O 	O 	0.80010 0.23960 0.21950 -0.17300
O 	O 	0.89130 0.83100 0.32258 -0.32500
O 	O 	0.62240 0.68210 0.10530 -0.43800
H 	H 	0.57320 0.70280 0.08830 0.24800
Mo	Mo	0.71690 0.85873 0.56744 1.08900
Mo	Mo	0.71593 0.15202 0.53711 1.07900
Mo	Mo	0.61768 0.73292 0.46676 1.08200
Mo	Mo	0.47955 0.85423 0.30495 1.08400
Mo	Mo	0.47646 0.07081 0.28692 1.06100
Mo	Mo	0.61124 0.24458 0.42195 1.08600
Mn	Mn	0.87607 0.99792 0.36574 1.34300
P 	P 	0.56137 0.29904 0.23750 0.51400
P 	P 	0.67269 0.97550 0.38601 0.54800
P 	P 	0.62328 0.66311 0.29012 0.53000
P 	P 	0.88927 0.99236 0.55842 0.59400
O 	O 	0.59286 0.86510 0.52412 -0.61700
O 	O 	0.73931 0.75440 0.49174 -0.47800
O 	O 	0.59189 0.13880 0.50114 -0.62900
O 	O 	0.73400 0.22630 0.44658 -0.46400
O 	O 	0.52900 0.17640 0.22188 -0.37600
O 	O 	0.61425 0.07710 0.35860 -0.44300
O 	O 	0.70514 0.01950 0.61464 -0.48500
O 	O 	0.62230 0.30410 0.31840 -0.35400
O 	O 	0.84354 0.10650 0.56116 -0.39800
O 	O 	0.51760 0.95000 0.23244 -0.44700
O 	O 	0.71187 0.99050 0.47309 -0.43000
O 	O 	0.63430 0.63770 0.37628 -0.38400
O 	O 	0.46427 0.97640 0.37488 -0.59900
O 	O 	0.53840 0.72500 0.26023 -0.38000
O 	O 	0.84197 0.89960 0.59155 -0.39100
O 	O 	0.49159 0.74550 0.40058 -0.47200
O 	O 	0.63020 0.55650 0.24782 -0.36200
O 	O 	0.61563 0.86870 0.37741 -0.41500
O 	O 	0.48624 0.20960 0.36273 -0.47700
O 	O 	0.74014 0.95950 0.34182 -0.32900
O 	O 	0.48530 0.37780 0.23462 -0.26500
O 	O 	0.97729 0.00250 0.61739 -0.32900
O 	O 	0.90230 0.96020 0.48191 -0.39500
O 	O 	0.69990 0.73960 0.28050 -0.16800
O 	O 	0.60870 0.33100 0.17742 -0.33700
O 	O 	0.87760 0.18210 0.39470 -0.44600
H 	H 	0.92680 0.20280 0.41170 0.26300
Mn	Mn	-0.00000 0.50000 -0.00000 1.29000
Mn	Mn	0.50000 -0.00000 0.50000 1.30500
