data_crystal

_cell_length_a 5.61600
_cell_length_b 15.43100
_cell_length_c 9.44500
_cell_angle_alpha 90.00000
_cell_angle_beta  91.72000
_cell_angle_gamma 90.00000

_symmetry_space_group_name_	'P 1'
_symmetry_space_group_name_H-M	'P 1'

loop_
_symmetry_equiv_pos_as_xyz
  x,y,z

loop_
_atom_site_label
_atom_site_type_symbol
_atom_site_fract_x
_atom_site_fract_y
_atom_site_fract_z
_atom_site_charge
Mn	Mn	0.21529 0.66826 0.55653 1.28800
P 	P 	0.70743 0.69725 0.35161 0.43200
H 	H 	0.70993 0.60400 0.34803 -0.02500
O 	O 	0.66300 0.72749 0.19952 -0.39300
O 	O 	0.50690 0.72322 0.44733 -0.39700
O 	O 	0.95370 0.72566 0.40694 -0.38200
O 	O 	0.23450 0.55257 0.41746 -0.36700
O 	O 	0.06740 0.42317 0.37042 -0.36800
C 	C 	0.08710 0.49322 0.43890 0.21000
Mn	Mn	0.28471 0.16826 0.94347 1.28700
P 	P 	0.79257 0.19725 0.14839 0.43300
H 	H 	0.79007 0.10400 0.15197 -0.02400
O 	O 	0.83700 0.22749 0.30048 -0.39300
O 	O 	0.99310 0.22322 0.05267 -0.39700
O 	O 	0.54630 0.22566 0.09306 -0.37900
O 	O 	0.26550 0.05257 0.08254 -0.36000
O 	O 	0.43260 0.92317 0.12958 -0.36900
C 	C 	0.41290 0.99322 0.06110 0.20300
Mn	Mn	0.78471 0.33174 0.44347 1.28900
P 	P 	0.29257 0.30275 0.64839 0.43300
H 	H 	0.29007 0.39600 0.65197 -0.02500
O 	O 	0.33700 0.27251 0.80048 -0.39300
O 	O 	0.49310 0.27678 0.55267 -0.39700
O 	O 	0.04630 0.27434 0.59306 -0.38200
O 	O 	0.76550 0.44743 0.58254 -0.36700
O 	O 	0.93260 0.57683 0.62958 -0.36800
C 	C 	0.91290 0.50678 0.56110 0.21000
Mn	Mn	0.71529 0.83174 0.05653 1.28700
P 	P 	0.20743 0.80275 0.85161 0.43300
H 	H 	0.20993 0.89600 0.84803 -0.02400
O 	O 	0.16300 0.77251 0.69952 -0.39300
O 	O 	0.00690 0.77678 0.94733 -0.39700
O 	O 	0.45370 0.77434 0.90694 -0.37900
O 	O 	0.73450 0.94743 0.91746 -0.36000
O 	O 	0.56740 0.07683 0.87042 -0.36900
C 	C 	0.58710 0.00678 0.93890 0.20300
