data_crystal

_cell_length_a 9.98630
_cell_length_b 10.37220
_cell_length_c 15.75020
_cell_angle_alpha 91.75500
_cell_angle_beta  99.02900
_cell_angle_gamma 95.04200

_symmetry_space_group_name_	'P 1'
_symmetry_space_group_name_H-M	'P 1'

loop_
_symmetry_equiv_pos_as_xyz
  x,y,z

loop_
_atom_site_label
_atom_site_type_symbol
_atom_site_fract_x
_atom_site_fract_y
_atom_site_fract_z
_atom_site_charge
C 	C 	0.80710 0.27280 0.90705 -0.01900
H 	H 	0.80860 0.32530 0.86030 -0.00500
C 	C 	0.91560 0.25490 0.96616 0.00600
H 	H 	0.00470 0.29070 0.96760 0.01800
C 	C 	0.73380 0.14370 0.99689 0.08800
H 	H 	0.67740 0.08950 0.02480 -0.08400
C 	C 	0.14490 0.24120 0.78415 -0.00300
H 	H 	0.11740 0.22610 0.83700 -0.00100
C 	C 	0.06150 0.26580 0.71204 0.00400
H 	H 	0.96800 0.27100 0.70590 0.02900
C 	C 	0.27060 0.26650 0.68687 0.08400
H 	H 	0.34580 0.27280 0.65860 -0.04600
C 	C 	0.28120 0.99710 0.47052 0.08800
H 	H 	0.28550 0.03320 0.52580 -0.00300
C 	C 	0.19810 0.04840 0.40408 -0.17300
H 	H 	0.14710 0.11610 0.41510 0.09300
C 	C 	0.19130 0.99810 0.32065 0.10200
C 	C 	0.27110 0.89760 0.30983 -0.17800
H 	H 	0.27180 0.86160 0.25510 0.04300
C 	C 	0.34840 0.85190 0.37969 0.07800
H 	H 	0.39950 0.78340 0.37060 -0.02800
C 	C 	0.01790 0.44260 0.15817 0.09800
H 	H 	0.08070 0.45000 0.12040 -0.01600
C 	C 	0.06370 0.41410 0.24226 -0.17900
H 	H 	0.15550 0.40480 0.26020 0.07800
C 	C 	0.97190 0.39930 0.29992 0.12400
C 	C 	0.83670 0.41390 0.26798 -0.18400
H 	H 	0.77060 0.40290 0.30340 0.08100
C 	C 	0.80080 0.44470 0.18335 0.10100
H 	H 	0.70990 0.45560 0.16360 -0.04900
C 	C 	0.01610 0.36850 0.39079 -0.08600
C 	C 	0.14640 0.41070 0.43354 0.04300
H 	H 	0.20650 0.45810 0.40420 0.00500
C 	C 	0.18820 0.38360 0.51815 -0.16500
H 	H 	0.27510 0.41390 0.54570 0.08000
C 	C 	0.10090 0.31160 0.56174 0.14600
C 	C 	0.97150 0.26820 0.52087 -0.17000
H 	H 	0.91240 0.21930 0.55020 0.09700
C 	C 	0.93010 0.29730 0.43654 0.04600
H 	H 	0.84240 0.26850 0.40980 0.00700
C 	C 	0.94760 0.12820 0.09904 0.12000
C 	C 	0.08100 0.10360 0.09647 -0.15100
H 	H 	0.11800 0.11460 0.04620 0.06400
C 	C 	0.15820 0.06290 0.16904 0.03000
H 	H 	0.24770 0.04600 0.16730 -0.01800
C 	C 	0.10550 0.04620 0.24510 -0.07200
C 	C 	0.97140 0.07140 0.24604 0.01700
H 	H 	0.93440 0.06140 0.29640 0.01700
C 	C 	0.89220 0.11100 0.17361 -0.14600
H 	H 	0.80210 0.12600 0.17480 0.05000
Cd	Cd	0.47879 0.20674 0.85471 1.10900
N 	N 	0.69323 0.20182 0.92609 -0.29200
N 	N 	0.86848 0.17278 0.02407 -0.14800
N 	N 	0.35540 0.89920 0.46020 -0.14500
N 	N 	0.27630 0.24150 0.76850 -0.27900
N 	N 	0.14254 0.28190 0.64895 -0.14700
N 	N 	0.88890 0.45990 0.12818 -0.15800
C 	C 	0.19290 0.72720 0.09295 -0.02000
H 	H 	0.19140 0.67470 0.13970 -0.00600
C 	C 	0.08440 0.74510 0.03384 0.00600
H 	H 	0.99530 0.70930 0.03240 0.01800
C 	C 	0.26620 0.85630 0.00311 0.08800
H 	H 	0.32260 0.91050 0.97520 -0.08400
C 	C 	0.85510 0.75880 0.21585 -0.00300
H 	H 	0.88260 0.77390 0.16300 -0.00100
C 	C 	0.93850 0.73420 0.28796 0.00400
H 	H 	0.03200 0.72900 0.29410 0.02900
C 	C 	0.72940 0.73350 0.31313 0.08400
H 	H 	0.65420 0.72720 0.34140 -0.04600
C 	C 	0.71880 0.00290 0.52948 0.08800
H 	H 	0.71450 0.96680 0.47420 -0.00300
C 	C 	0.80190 0.95160 0.59592 -0.17300
H 	H 	0.85290 0.88390 0.58490 0.09300
C 	C 	0.80870 0.00190 0.67935 0.10200
C 	C 	0.72890 0.10240 0.69017 -0.17800
H 	H 	0.72820 0.13840 0.74490 0.04300
C 	C 	0.65160 0.14810 0.62031 0.07800
H 	H 	0.60050 0.21660 0.62940 -0.02800
C 	C 	0.98210 0.55740 0.84183 0.09800
H 	H 	0.91930 0.55000 0.87960 -0.01600
C 	C 	0.93630 0.58590 0.75774 -0.17900
H 	H 	0.84450 0.59520 0.73980 0.07800
C 	C 	0.02810 0.60070 0.70008 0.12400
C 	C 	0.16330 0.58610 0.73202 -0.18400
H 	H 	0.22940 0.59710 0.69660 0.08100
C 	C 	0.19920 0.55530 0.81665 0.10100
H 	H 	0.29010 0.54440 0.83640 -0.04900
C 	C 	0.98390 0.63150 0.60921 -0.08600
C 	C 	0.85360 0.58930 0.56646 0.04300
H 	H 	0.79350 0.54190 0.59580 0.00500
C 	C 	0.81180 0.61640 0.48185 -0.16500
H 	H 	0.72490 0.58610 0.45430 0.08000
C 	C 	0.89910 0.68840 0.43826 0.14600
C 	C 	0.02850 0.73180 0.47913 -0.17000
H 	H 	0.08760 0.78070 0.44980 0.09700
C 	C 	0.06990 0.70270 0.56346 0.04600
H 	H 	0.15760 0.73150 0.59020 0.00700
C 	C 	0.05240 0.87180 0.90096 0.12000
C 	C 	0.91900 0.89640 0.90353 -0.15100
H 	H 	0.88200 0.88540 0.95380 0.06400
C 	C 	0.84180 0.93710 0.83096 0.03000
H 	H 	0.75230 0.95400 0.83270 -0.01800
C 	C 	0.89450 0.95380 0.75490 -0.07200
C 	C 	0.02860 0.92860 0.75396 0.01700
H 	H 	0.06560 0.93860 0.70360 0.01700
C 	C 	0.10780 0.88900 0.82639 -0.14600
H 	H 	0.19790 0.87400 0.82520 0.05000
Cd	Cd	0.52121 0.79326 0.14529 1.10900
N 	N 	0.30677 0.79818 0.07391 -0.29200
N 	N 	0.13152 0.82722 0.97593 -0.14800
N 	N 	0.64460 0.10080 0.53980 -0.14500
N 	N 	0.72370 0.75850 0.23150 -0.27900
N 	N 	0.85746 0.71810 0.35105 -0.14700
N 	N 	0.11110 0.54010 0.87182 -0.15800
