data_crystal

_cell_length_a 8.23400
_cell_length_b 11.87200
_cell_length_c 14.21200
_cell_angle_alpha 104.37000
_cell_angle_beta  94.85000
_cell_angle_gamma 96.85000

_symmetry_space_group_name_	'P 1'
_symmetry_space_group_name_H-M	'P 1'

loop_
_symmetry_equiv_pos_as_xyz
  x,y,z

loop_
_atom_site_label
_atom_site_type_symbol
_atom_site_fract_x
_atom_site_fract_y
_atom_site_fract_z
_atom_site_charge
N 	N 	0.69940 0.32906 0.95871 -0.12200
N 	N 	0.57500 0.91396 0.23767 -0.11600
N 	N 	0.02618 0.58412 0.64199 -0.26300
N 	N 	0.09972 0.36511 0.53325 -0.24400
C 	C 	0.98930 0.69490 0.68306 0.12900
C 	C 	0.03170 0.72614 0.78785 -0.08200
H 	H 	0.01670 0.79710 0.83270 -0.00900
C 	C 	0.09700 0.63481 0.81011 -0.09900
H 	H 	0.13860 0.63040 0.87330 0.06600
C 	C 	0.09090 0.54588 0.71940 0.09900
C 	C 	0.14380 0.43677 0.71330 -0.14900
C 	C 	0.14650 0.35264 0.62531 0.10000
C 	C 	0.19550 0.23842 0.61857 -0.09100
H 	H 	0.23240 0.20860 0.67150 0.07100
C 	C 	0.17850 0.18180 0.52180 -0.06700
H 	H 	0.20180 0.10480 0.49420 0.05500
C 	C 	0.11840 0.26042 0.46891 0.07500
C 	C 	0.07800 0.23160 0.36749 -0.10100
C 	C 	0.39890 0.36336 0.91937 0.07300
C 	C 	0.35370 0.38807 0.83029 -0.16100
H 	H 	0.43230 0.39120 0.78540 0.08600
C 	C 	0.19390 0.40814 0.80724 0.13700
C 	C 	0.07920 0.40126 0.87430 -0.20900
H 	H 	0.96930 0.41380 0.85910 0.12100
C 	C 	0.12510 0.37619 0.96280 0.07500
H 	H 	0.04610 0.37170 0.00720 -0.01800
C 	C 	0.28500 0.35780 0.98655 -0.14100
H 	H 	0.31660 0.34180 0.04720 0.06200
C 	C 	0.56590 0.34414 0.94157 0.04700
C 	C 	0.28090 0.97121 0.24570 0.06700
C 	C 	0.26070 0.08212 0.30248 -0.14200
H 	H 	0.35410 0.13630 0.33630 0.07900
C 	C 	0.10310 0.11283 0.30923 0.06500
C 	C 	0.96720 0.03053 0.25935 -0.12900
H 	H 	0.85920 0.05020 0.26440 0.08100
C 	C 	0.98820 0.92045 0.20254 0.04200
H 	H 	0.89470 0.86590 0.16930 0.00100
C 	C 	0.14520 0.89007 0.19439 -0.16900
H 	H 	0.16030 0.81570 0.15480 0.07600
C 	C 	0.44450 0.93972 0.24046 0.05600
N 	N 	0.30060 0.67094 0.04129 -0.13200
N 	N 	0.42500 0.08604 0.76233 -0.11900
N 	N 	0.97382 0.41588 0.35801 -0.22100
N 	N 	0.90028 0.63489 0.46675 -0.23900
C 	C 	0.01070 0.30510 0.31694 0.01300
C 	C 	0.96830 0.27386 0.21215 0.02400
H 	H 	0.98330 0.20290 0.16730 -0.02800
C 	C 	0.90300 0.36519 0.18989 -0.13200
H 	H 	0.86140 0.36960 0.12670 0.08600
C 	C 	0.90910 0.45412 0.28060 0.11200
C 	C 	0.85620 0.56323 0.28670 -0.12200
C 	C 	0.85350 0.64736 0.37469 0.09400
C 	C 	0.80450 0.76158 0.38143 -0.07500
H 	H 	0.76760 0.79140 0.32850 0.06800
C 	C 	0.82150 0.81820 0.47820 -0.08100
H 	H 	0.79820 0.89520 0.50580 0.06600
C 	C 	0.88160 0.73958 0.53109 0.10500
C 	C 	0.92200 0.76840 0.63251 -0.14900
C 	C 	0.60110 0.63664 0.08063 0.03400
C 	C 	0.64630 0.61193 0.16971 -0.11500
H 	H 	0.56770 0.60880 0.21460 0.06900
C 	C 	0.80610 0.59186 0.19276 0.07600
C 	C 	0.92080 0.59874 0.12570 -0.06000
H 	H 	0.03070 0.58620 0.14090 0.03500
C 	C 	0.87490 0.62381 0.03720 -0.01200
H 	H 	0.95390 0.62830 0.99280 0.03200
C 	C 	0.71500 0.64220 0.01345 -0.08000
H 	H 	0.68340 0.65820 0.95280 0.04500
C 	C 	0.43410 0.65586 0.05843 0.06100
C 	C 	0.71910 0.02879 0.75430 0.05800
C 	C 	0.73930 0.91788 0.69752 -0.15700
H 	H 	0.64590 0.86370 0.66370 0.08400
C 	C 	0.89690 0.88717 0.69077 0.13700
C 	C 	0.03280 0.96947 0.74065 -0.18600
H 	H 	0.14080 0.94980 0.73560 0.09200
C 	C 	0.01180 0.07955 0.79746 -0.01600
H 	H 	0.10530 0.13410 0.83070 0.01400
C 	C 	0.85480 0.10993 0.80561 -0.09700
H 	H 	0.83970 0.18430 0.84520 0.06400
C 	C 	0.55550 0.06028 0.75954 0.06100
Cu	Cu	-0.00000 0.50000 0.50000 0.84500
O 	O 	0.22970 0.12460 0.07300 0.23800
O 	O 	0.11290 0.95950 0.97890 1.99600
N 	N 	0.23020 0.03000 0.01590 0.08500
C 	C 	0.39530 0.99850 0.99450 0.77100
C 	C 	0.40710 0.89200 0.92910 0.26400
H 	H 	0.31000 0.84060 0.89710 -0.49100
C 	C 	0.56090 0.86080 0.91030 -1.92600
H 	H 	0.56890 0.78810 0.86560 0.48800
C 	C 	0.70290 0.93610 0.95700 0.65200
H 	H 	0.80800 0.91470 0.94420 -0.93200
C 	C 	0.69120 0.04250 0.02250 -0.10400
H 	H 	0.78830 0.09390 0.05450 -0.14800
C 	C 	0.53740 0.07370 0.04130 -0.78500
H 	H 	0.52940 0.14640 0.08600 1.26400
O 	O 	0.83370 0.93760 0.97280 0.57700
O 	O 	0.62990 0.81920 0.87530 0.31600
N 	N 	0.68600 0.90440 0.94110 0.52800
C 	C 	0.56190 0.97520 0.98510 0.32900
C 	C 	0.61440 0.08330 0.05220 -0.29600
H 	H 	0.72880 0.11110 0.06920 0.51400
C 	C 	0.49940 0.15060 0.09430 0.06800
H 	H 	0.53530 0.22450 0.14010 -0.21700
C 	C 	0.33210 0.10990 0.06940 -0.75300
H 	H 	0.25350 0.15600 0.09820 0.06300
C 	C 	0.27960 0.00190 0.00230 -0.12400
H 	H 	0.16520 0.97410 0.98530 -1.99600
C 	C 	0.39450 0.93450 0.96020 -0.43000
H 	H 	0.35870 0.86060 0.91430 0.24800
O 	O 	0.77030 0.87540 0.92700 0.23700
O 	O 	0.88710 0.04050 0.02110 1.96900
N 	N 	0.76980 0.97000 0.98410 0.09100
C 	C 	0.60470 0.00150 0.00550 0.79000
C 	C 	0.59290 0.10800 0.07090 0.25300
H 	H 	0.69000 0.15940 0.10290 -0.46100
C 	C 	0.43910 0.13920 0.08970 -1.92600
H 	H 	0.43110 0.21190 0.13440 0.49800
C 	C 	0.29710 0.06390 0.04300 0.66100
H 	H 	0.19200 0.08530 0.05580 -0.93800
C 	C 	0.30880 0.95750 0.97750 -0.07100
H 	H 	0.21170 0.90610 0.94550 -0.15900
C 	C 	0.46260 0.92630 0.95870 -0.81700
H 	H 	0.47060 0.85360 0.91400 1.26300
O 	O 	0.16630 0.06240 0.02720 0.57400
O 	O 	0.37010 0.18080 0.12470 0.30200
N 	N 	0.31400 0.09560 0.05890 0.52900
C 	C 	0.43810 0.02480 0.01490 0.30900
C 	C 	0.38560 0.91670 0.94780 -0.29200
H 	H 	0.27120 0.88890 0.93080 0.51400
C 	C 	0.50060 0.84940 0.90570 0.06600
H 	H 	0.46470 0.77550 0.85990 -0.21300
C 	C 	0.66790 0.89010 0.93060 -0.74700
H 	H 	0.74650 0.84400 0.90180 0.06300
C 	C 	0.72040 0.99810 0.99770 -0.14200
H 	H 	0.83480 0.02590 0.01470 -1.95700
C 	C 	0.60550 0.06550 0.03980 -0.41900
H 	H 	0.64130 0.13940 0.08570 0.21900
