data_crystal

_cell_length_a 9.47000
_cell_length_b 12.35100
_cell_length_c 13.57500
_cell_angle_alpha 90.00000
_cell_angle_beta  94.32700
_cell_angle_gamma 90.00000

_symmetry_space_group_name_	'P 1'
_symmetry_space_group_name_H-M	'P 1'

loop_
_symmetry_equiv_pos_as_xyz
  x,y,z

loop_
_atom_site_label
_atom_site_type_symbol
_atom_site_fract_x
_atom_site_fract_y
_atom_site_fract_z
_atom_site_charge
Zn	Zn	0.89147 0.67955 0.05911 1.21100
Zn	Zn	0.62372 0.81579 0.17921 1.23400
O 	O 	0.95140 0.81180 0.13360 -0.48000
O 	O 	0.80700 0.81390 0.25670 -0.47200
O 	O 	0.86060 0.56250 0.14960 -0.47000
O 	O 	0.07190 0.59420 0.22540 -0.29000
O 	O 	0.70690 0.68390 0.98600 -0.35100
O 	O 	0.56330 0.68080 0.11130 -0.42200
O 	O 	0.66080 0.92540 0.08350 -0.43900
O 	O 	0.45020 0.88600 0.00570 -0.28700
O 	O 	0.46230 0.82330 0.25830 -0.42100
O 	O 	0.52410 0.97920 0.33230 -0.26600
O 	O 	0.05290 0.68400 0.98090 -0.37900
O 	O 	0.98550 0.55640 0.87140 -0.25200
C 	C 	0.92350 0.83270 0.22080 0.39200
C 	C 	0.03660 0.88430 0.28780 -0.11100
C 	C 	0.17710 0.87230 0.26830 0.05900
H 	H 	0.20110 0.83070 0.21320 0.04700
C 	C 	0.28360 0.92130 0.32970 -0.09900
C 	C 	0.24610 0.98360 0.40800 0.06400
H 	H 	0.31770 0.01860 0.44920 0.03600
C 	C 	0.10590 0.99590 0.42710 -0.08000
C 	C 	0.99970 0.94600 0.36660 0.04600
H 	H 	0.90310 0.95440 0.37950 0.05400
C 	C 	0.95300 0.55240 0.22130 0.34400
C 	C 	0.91200 0.48370 0.30480 -0.10100
C 	C 	0.76840 0.46370 0.31790 0.04300
H 	H 	0.69680 0.48990 0.27100 0.04700
C 	C 	0.01300 0.44150 0.37230 0.05200
H 	H 	0.11020 0.45290 0.36280 0.05000
C 	C 	0.59040 0.66370 0.02310 0.20600
C 	C 	0.47700 0.61700 0.95350 -0.02600
C 	C 	0.33410 0.63400 0.96840 0.17800
H 	H 	0.30790 0.67200 0.02510 -0.03800
C 	C 	0.23170 0.59490 0.90000 -0.11700
C 	C 	0.56500 0.93420 0.01060 0.22900
C 	C 	0.43540 0.91000 0.30650 0.33700
C 	C 	0.07610 0.61090 0.91690 0.35100
Zn	Zn	0.39147 0.32045 0.55911 1.23700
Zn	Zn	0.12372 0.18421 0.67921 1.23600
O 	O 	0.45140 0.18820 0.63360 -0.45100
O 	O 	0.30700 0.18610 0.75670 -0.46000
O 	O 	0.36060 0.43750 0.64960 -0.44400
O 	O 	0.57190 0.40580 0.72540 -0.27300
O 	O 	0.20690 0.31610 0.48600 -0.47000
O 	O 	0.06330 0.31920 0.61130 -0.45100
O 	O 	0.16080 0.07460 0.58350 -0.43400
O 	O 	0.95020 0.11400 0.50570 -0.27300
O 	O 	0.96230 0.17670 0.75830 -0.40800
O 	O 	0.02410 0.02080 0.83230 -0.26000
O 	O 	0.55290 0.31600 0.48090 -0.42400
O 	O 	0.48550 0.44360 0.37140 -0.27200
C 	C 	0.42350 0.16730 0.72080 0.37800
C 	C 	0.53660 0.11570 0.78780 -0.07100
C 	C 	0.67710 0.12770 0.76830 0.02400
H 	H 	0.70110 0.16930 0.71320 0.06600
C 	C 	0.78360 0.07870 0.82970 -0.04600
C 	C 	0.74610 0.01640 0.90800 -0.02800
H 	H 	0.81770 0.98140 0.94920 0.10500
C 	C 	0.60590 0.00410 0.92710 0.02800
C 	C 	0.49970 0.05400 0.86660 -0.00400
H 	H 	0.40310 0.04560 0.87950 0.08400
C 	C 	0.45300 0.44760 0.72130 0.34100
C 	C 	0.41200 0.51630 0.80480 -0.08600
C 	C 	0.26840 0.53630 0.81790 0.05600
H 	H 	0.19680 0.51010 0.77100 0.05200
C 	C 	0.51300 0.55850 0.87230 0.02700
H 	H 	0.61020 0.54710 0.86280 0.07100
C 	C 	0.09040 0.33630 0.52310 0.37700
C 	C 	0.97700 0.38300 0.45350 -0.10100
C 	C 	0.83410 0.36600 0.46840 0.05400
H 	H 	0.80790 0.32800 0.52510 0.05700
C 	C 	0.73170 0.40510 0.40000 -0.09100
C 	C 	0.06500 0.06580 0.51060 0.30700
C 	C 	0.93540 0.09000 0.80650 0.32800
C 	C 	0.57610 0.38910 0.41690 0.34000
