data_crystal

_cell_length_a 9.84380
_cell_length_b 9.18970
_cell_length_c 22.89480
_cell_angle_alpha 90.00000
_cell_angle_beta  90.00000
_cell_angle_gamma 90.00000

_symmetry_space_group_name_	'P 1'
_symmetry_space_group_name_H-M	'P 1'

loop_
_symmetry_equiv_pos_as_xyz
  x,y,z

loop_
_atom_site_label
_atom_site_type_symbol
_atom_site_fract_x
_atom_site_fract_y
_atom_site_fract_z
_atom_site_charge
N 	N 	0.84250 0.46500 0.71416 -0.33400
H 	H 	0.80430 0.53870 0.69780 0.13700
H 	H 	0.92430 0.44160 0.70500 0.15800
N 	N 	0.82890 0.26990 0.78205 -0.24400
C 	C 	0.73910 0.11350 0.86260 0.04800
N 	N 	0.14540 0.91600 0.72898 -0.24800
C 	C 	0.77320 0.38520 0.75474 0.18600
C 	C 	0.72810 0.22490 0.81951 0.01200
C 	C 	0.11660 0.81260 0.68760 -0.10600
N 	N 	0.89820 0.77290 0.62910 -0.14400
N 	N 	0.74180 0.03150 0.90000 -0.10500
C 	C 	0.99210 0.79620 0.65650 0.15900
N 	N 	0.15750 0.46500 0.78584 -0.31700
H 	H 	0.19570 0.53870 0.80220 0.11500
H 	H 	0.07570 0.44160 0.79500 0.09300
N 	N 	0.17110 0.26990 0.71795 -0.27500
C 	C 	0.26090 0.11350 0.63740 0.02300
N 	N 	0.85460 0.91600 0.77102 -0.25100
C 	C 	0.22680 0.38520 0.74526 0.15700
C 	C 	0.27190 0.22490 0.68049 0.00400
C 	C 	0.88340 0.81260 0.81240 0.13400
N 	N 	0.10180 0.77290 0.87090 -0.11100
N 	N 	0.25820 0.03150 0.60000 -0.12300
C 	C 	0.00790 0.79620 0.84350 -0.10400
N 	N 	0.34250 0.96500 0.78584 -0.32100
H 	H 	0.30430 0.03870 0.80220 0.11700
H 	H 	0.42430 0.94160 0.79500 0.12300
N 	N 	0.32890 0.76990 0.71795 -0.26800
C 	C 	0.23910 0.61350 0.63740 0.00100
N 	N 	0.64540 0.41600 0.77102 -0.25500
C 	C 	0.27320 0.88520 0.74526 0.17000
C 	C 	0.22810 0.72490 0.68049 0.04200
C 	C 	0.61660 0.31260 0.81240 0.01300
N 	N 	0.39820 0.27290 0.87090 -0.13400
N 	N 	0.24180 0.53150 0.60000 -0.11900
C 	C 	0.49210 0.29620 0.84350 0.02500
N 	N 	0.65750 0.96500 0.71416 -0.32400
H 	H 	0.69570 0.03870 0.69780 0.13100
H 	H 	0.57570 0.94160 0.70500 0.12600
N 	N 	0.67110 0.76990 0.78205 -0.25800
C 	C 	0.76090 0.61350 0.86260 0.06900
N 	N 	0.35460 0.41600 0.72898 -0.25200
C 	C 	0.72680 0.88520 0.75474 0.17300
C 	C 	0.77190 0.72490 0.81951 -0.02700
C 	C 	0.38340 0.31260 0.68760 0.01400
N 	N 	0.60180 0.27290 0.62910 -0.12200
N 	N 	0.75820 0.53150 0.90000 -0.10800
C 	C 	0.50790 0.29620 0.65650 0.02500
Cd	Cd	0.00000 0.11224 0.75000 1.13300
Cd	Cd	0.50000 0.61224 0.75000 1.16200
N 	N 	0.65750 0.03500 0.21416 -0.32300
H 	H 	0.69570 0.96130 0.19780 0.13000
H 	H 	0.57570 0.05840 0.20500 0.12600
N 	N 	0.67110 0.23010 0.28205 -0.25800
C 	C 	0.76090 0.38650 0.36260 0.06900
N 	N 	0.35460 0.58400 0.22898 -0.25200
C 	C 	0.72680 0.11480 0.25474 0.17300
C 	C 	0.77190 0.27510 0.31951 -0.02700
C 	C 	0.38340 0.68740 0.18760 0.01400
N 	N 	0.60180 0.72710 0.12910 -0.12200
N 	N 	0.75820 0.46850 0.40000 -0.10800
C 	C 	0.50790 0.70380 0.15650 0.02500
N 	N 	0.34250 0.03500 0.28584 -0.32100
H 	H 	0.30430 0.96130 0.30220 0.11700
H 	H 	0.42430 0.05840 0.29500 0.12300
N 	N 	0.32890 0.23010 0.21795 -0.26800
C 	C 	0.23910 0.38650 0.13740 0.00100
N 	N 	0.64540 0.58400 0.27102 -0.25500
C 	C 	0.27320 0.11480 0.24526 0.17000
C 	C 	0.22810 0.27510 0.18049 0.04200
C 	C 	0.61660 0.68740 0.31240 0.01300
N 	N 	0.39820 0.72710 0.37090 -0.13400
N 	N 	0.24180 0.46850 0.10000 -0.11900
C 	C 	0.49210 0.70380 0.34350 0.02500
N 	N 	0.15750 0.53500 0.28584 -0.31700
H 	H 	0.19570 0.46130 0.30220 0.11500
H 	H 	0.07570 0.55840 0.29500 0.09300
N 	N 	0.17110 0.73010 0.21795 -0.27500
C 	C 	0.26090 0.88650 0.13740 0.02200
N 	N 	0.85460 0.08400 0.27102 -0.25100
C 	C 	0.22680 0.61480 0.24526 0.15700
C 	C 	0.27190 0.77510 0.18049 0.00400
C 	C 	0.88340 0.18740 0.31240 0.13400
N 	N 	0.10180 0.22710 0.37090 -0.11100
N 	N 	0.25820 0.96850 0.10000 -0.12400
C 	C 	0.00790 0.20380 0.34350 -0.10400
N 	N 	0.84250 0.53500 0.21416 -0.33300
H 	H 	0.80430 0.46130 0.19780 0.13700
H 	H 	0.92430 0.55840 0.20500 0.15800
N 	N 	0.82890 0.73010 0.28205 -0.24400
C 	C 	0.73910 0.88650 0.36260 0.04800
N 	N 	0.14540 0.08400 0.22898 -0.24800
C 	C 	0.77320 0.61480 0.25474 0.18600
C 	C 	0.72810 0.77510 0.31951 0.01200
C 	C 	0.11660 0.18740 0.18760 -0.10500
N 	N 	0.89820 0.22710 0.12910 -0.14400
N 	N 	0.74180 0.96850 0.40000 -0.10500
C 	C 	0.99210 0.20380 0.15650 0.15900
Cd	Cd	0.50000 0.38776 0.25000 1.16200
Cd	Cd	0.00000 0.88776 0.25000 1.13300
