data_crystal

_cell_length_a 10.88730
_cell_length_b 11.47360
_cell_length_c 13.45210
_cell_angle_alpha 87.80600
_cell_angle_beta  88.43800
_cell_angle_gamma 69.24700

_symmetry_space_group_name_	'P 1'
_symmetry_space_group_name_H-M	'P 1'

loop_
_symmetry_equiv_pos_as_xyz
  x,y,z

loop_
_atom_site_label
_atom_site_type_symbol
_atom_site_fract_x
_atom_site_fract_y
_atom_site_fract_z
_atom_site_charge
C 	C 	0.70739 0.61642 0.06845 0.09500
H 	H 	0.75920 0.55280 0.02820 -0.08900
C 	C 	0.76566 0.68803 0.11402 -0.21500
H 	H 	0.85510 0.67200 0.10480 0.07100
C 	C 	0.69097 0.78450 0.17387 0.13900
C 	C 	0.55913 0.80238 0.18463 -0.20800
H 	H 	0.50520 0.86540 0.22430 0.10400
C 	C 	0.50767 0.72651 0.13636 0.10600
H 	H 	0.41840 0.74070 0.14410 -0.06600
C 	C 	0.75650 0.86203 0.22443 -0.14000
H 	H 	0.79560 0.81850 0.28540 0.08100
H 	H 	0.82710 0.86830 0.18150 0.05000
C 	C 	0.61362 0.01456 0.33667 0.13400
C 	C 	0.53430 0.15399 0.34664 0.17000
C 	C 	0.37890 0.30411 0.45589 -0.13400
H 	H 	0.29350 0.30050 0.47410 0.07100
H 	H 	0.36800 0.35870 0.39730 0.07700
C 	C 	0.42750 0.35853 0.53972 0.15700
C 	C 	0.55910 0.33030 0.55632 -0.19500
H 	H 	0.62180 0.27410 0.51640 0.10700
C 	C 	0.59720 0.38600 0.63254 0.11000
H 	H 	0.68660 0.36630 0.64230 -0.01100
C 	C 	0.38740 0.49280 0.67703 0.12000
H 	H 	0.32700 0.54930 0.71820 -0.01800
C 	C 	0.34000 0.44170 0.60283 -0.20400
H 	H 	0.25000 0.46290 0.59520 0.09400
N 	N 	0.57979 0.63372 0.07909 -0.30700
N 	N 	0.67090 0.98639 0.24834 -0.17900
H 	H 	0.65650 0.04470 0.20320 0.09800
N 	N 	0.46717 0.18011 0.43155 -0.20000
H 	H 	0.47640 0.12030 0.47460 0.15100
N 	N 	0.51320 0.46647 0.69309 -0.16500
O 	O 	0.61981 0.93940 0.40575 -0.22000
O 	O 	0.53583 0.22861 0.28007 -0.26800
C 	C 	0.29261 0.38358 0.93155 0.11300
H 	H 	0.24080 0.44720 0.97180 -0.04200
C 	C 	0.23434 0.31197 0.88598 -0.20300
H 	H 	0.14490 0.32800 0.89520 0.09800
C 	C 	0.30903 0.21550 0.82613 0.15500
C 	C 	0.44087 0.19762 0.81537 -0.19900
H 	H 	0.49480 0.13460 0.77570 0.11500
C 	C 	0.49233 0.27349 0.86364 0.12100
H 	H 	0.58160 0.25930 0.85590 -0.03900
C 	C 	0.24350 0.13797 0.77557 -0.13800
H 	H 	0.20440 0.18150 0.71460 0.08200
H 	H 	0.17290 0.13170 0.81850 0.06900
C 	C 	0.38638 0.98544 0.66333 0.15700
C 	C 	0.46570 0.84601 0.65336 0.16500
C 	C 	0.62110 0.69589 0.54411 -0.14500
H 	H 	0.70650 0.69950 0.52590 0.08000
H 	H 	0.63200 0.64130 0.60270 0.09000
C 	C 	0.57250 0.64147 0.46028 0.16600
C 	C 	0.44090 0.66970 0.44368 -0.20500
H 	H 	0.37820 0.72590 0.48360 0.10900
C 	C 	0.40280 0.61400 0.36746 0.11500
H 	H 	0.31340 0.63370 0.35770 -0.02400
C 	C 	0.61260 0.50720 0.32297 0.12700
H 	H 	0.67300 0.45070 0.28180 -0.03200
C 	C 	0.66000 0.55830 0.39717 -0.21300
H 	H 	0.75000 0.53710 0.40480 0.09700
N 	N 	0.42021 0.36628 0.92091 -0.27400
N 	N 	0.32910 0.01361 0.75166 -0.19200
H 	H 	0.34350 0.95530 0.79680 0.12900
N 	N 	0.53283 0.81989 0.56845 -0.19300
H 	H 	0.52360 0.87970 0.52540 0.15000
N 	N 	0.48680 0.53353 0.30691 -0.17800
O 	O 	0.38019 0.06060 0.59425 -0.23100
O 	O 	0.46417 0.77139 0.71993 -0.23900
Cd	Cd	0.50000 0.50000 -0.00000 1.09300
