data_crystal

_cell_length_a 10.33360
_cell_length_b 14.39840
_cell_length_c 15.26490
_cell_angle_alpha 90.67300
_cell_angle_beta  98.12000
_cell_angle_gamma 110.76100

_symmetry_space_group_name_	'P 1'
_symmetry_space_group_name_H-M	'P 1'

loop_
_symmetry_equiv_pos_as_xyz
  x,y,z

loop_
_atom_site_label
_atom_site_type_symbol
_atom_site_fract_x
_atom_site_fract_y
_atom_site_fract_z
_atom_site_charge
C 	C 	0.18120 0.42880 0.38770 -0.04700
C 	C 	0.24300 0.45821 0.47640 -0.00700
C 	C 	0.25750 0.55645 0.50517 -0.02100
C 	C 	0.21500 0.61977 0.44780 -0.02200
C 	C 	0.15570 0.58829 0.35810 -0.00900
C 	C 	0.13790 0.49097 0.33217 -0.04500
C 	C 	0.06840 0.43477 0.24478 0.20200
C 	C 	0.15400 0.33317 0.33483 0.20500
C 	C 	0.11320 0.65298 0.29307 0.06100
C 	C 	0.17630 0.67690 0.21840 -0.09800
H 	H 	0.25260 0.65700 0.21060 0.05700
C 	C 	0.12860 0.72990 0.15480 0.02100
H 	H 	0.17300 0.74670 0.10380 0.01900
C 	C 	0.01810 0.75850 0.16480 -0.09000
H 	H 	0.98410 0.79310 0.12000 0.07000
C 	C 	0.95710 0.73690 0.23970 0.02200
H 	H 	0.88150 0.75750 0.24750 0.01800
C 	C 	0.00510 0.68540 0.30380 -0.10200
H 	H 	0.96340 0.67190 0.35610 0.06700
C 	C 	0.23380 0.72254 0.48178 0.05900
C 	C 	0.31700 0.80530 0.44450 -0.10000
H 	H 	0.36070 0.79700 0.39580 0.06200
C 	C 	0.33720 0.89990 0.47740 0.01200
H 	H 	0.39460 0.95630 0.45130 0.02400
C 	C 	0.27390 0.91280 0.54840 -0.08400
H 	H 	0.28890 0.97800 0.57160 0.05300
C 	C 	0.19000 0.83160 0.58500 0.01400
H 	H 	0.14560 0.84020 0.63330 0.02900
C 	C 	0.16960 0.73720 0.55206 -0.10200
H 	H 	0.11060 0.68120 0.57780 0.07100
C 	C 	0.31980 0.59491 0.59910 0.05700
C 	C 	0.44830 0.67270 0.61892 -0.09800
H 	H 	0.49990 0.70040 0.57270 0.07700
C 	C 	0.50090 0.70970 0.70560 0.01500
H 	H 	0.58890 0.76270 0.71870 0.04300
C 	C 	0.42780 0.67080 0.77280 -0.08000
H 	H 	0.46420 0.69750 0.83210 0.06000
C 	C 	0.30190 0.59320 0.75458 0.00900
H 	H 	0.25150 0.56550 0.80130 0.03900
C 	C 	0.24860 0.55540 0.66821 -0.09700
H 	H 	0.16160 0.50130 0.65600 0.06900
C 	C 	0.29150 0.39208 0.53592 0.05600
C 	C 	0.42470 0.42530 0.58625 -0.10000
H 	H 	0.48640 0.49170 0.58250 0.07200
C 	C 	0.46840 0.36370 0.64130 0.01100
H 	H 	0.55990 0.38780 0.67490 0.02400
C 	C 	0.38150 0.26790 0.64830 -0.08400
H 	H 	0.41160 0.22590 0.68700 0.03500
C 	C 	0.25070 0.23340 0.59890 0.01000
H 	H 	0.19030 0.16670 0.60290 0.02300
C 	C 	0.20560 0.29470 0.54328 -0.09500
H 	H 	0.11430 0.26950 0.50960 0.07300
C 	C 	0.03710 0.26727 0.18019 0.12000
C 	C 	0.89690 0.22500 0.14403 -0.07400
H 	H 	0.82910 0.24380 0.16790 0.07400
C 	C 	0.85600 0.15485 0.07257 -0.07800
C 	C 	0.95690 0.12884 0.03781 -0.00600
H 	H 	0.92920 0.07990 0.98970 0.05200
C 	C 	0.09760 0.17370 0.07278 -0.04100
C 	C 	0.13730 0.24164 0.14548 -0.08500
H 	H 	0.23310 0.27050 0.17140 0.08200
C 	C 	0.21070 0.15265 0.03247 0.29800
C 	C 	0.70360 0.10917 0.03119 0.35500
Mn	Mn	0.41926 0.12182 0.97735 1.24300
N 	N 	0.08109 0.34133 0.25275 -0.18100
O 	O 	0.18705 0.26302 0.35369 -0.23300
O 	O 	0.01130 0.45931 0.17947 -0.22600
O 	O 	0.62636 0.15721 0.04385 -0.47200
O 	O 	0.66394 0.02934 0.98531 -0.48200
O 	O 	0.18580 0.11786 0.95409 -0.39400
O 	O 	0.32789 0.17261 0.08006 -0.41000
C 	C 	0.81880 0.57120 0.61230 -0.04700
C 	C 	0.75700 0.54179 0.52360 -0.00700
C 	C 	0.74250 0.44355 0.49483 -0.02100
C 	C 	0.78500 0.38023 0.55220 -0.02200
C 	C 	0.84430 0.41171 0.64190 -0.00900
C 	C 	0.86210 0.50903 0.66783 -0.04500
C 	C 	0.93160 0.56523 0.75522 0.20200
C 	C 	0.84600 0.66683 0.66517 0.20500
C 	C 	0.88680 0.34702 0.70693 0.06100
C 	C 	0.82370 0.32310 0.78160 -0.09800
H 	H 	0.74740 0.34300 0.78940 0.05700
C 	C 	0.87140 0.27010 0.84520 0.02100
H 	H 	0.82700 0.25330 0.89620 0.01900
C 	C 	0.98190 0.24150 0.83520 -0.09000
H 	H 	0.01590 0.20690 0.88000 0.07000
C 	C 	0.04290 0.26310 0.76030 0.02200
H 	H 	0.11850 0.24250 0.75250 0.01800
C 	C 	0.99490 0.31460 0.69620 -0.10200
H 	H 	0.03660 0.32810 0.64390 0.06700
C 	C 	0.76620 0.27746 0.51822 0.05900
C 	C 	0.68300 0.19470 0.55550 -0.10000
H 	H 	0.63930 0.20300 0.60420 0.06200
C 	C 	0.66280 0.10010 0.52260 0.01200
H 	H 	0.60540 0.04370 0.54870 0.02400
C 	C 	0.72610 0.08720 0.45160 -0.08400
H 	H 	0.71110 0.02200 0.42840 0.05300
C 	C 	0.81000 0.16840 0.41500 0.01400
H 	H 	0.85440 0.15980 0.36670 0.02900
C 	C 	0.83040 0.26280 0.44794 -0.10200
H 	H 	0.88940 0.31880 0.42220 0.07100
C 	C 	0.68020 0.40509 0.40090 0.05700
C 	C 	0.55170 0.32730 0.38108 -0.09800
H 	H 	0.50010 0.29960 0.42730 0.07700
C 	C 	0.49910 0.29030 0.29440 0.01500
H 	H 	0.41110 0.23730 0.28130 0.04300
C 	C 	0.57220 0.32920 0.22720 -0.08000
H 	H 	0.53580 0.30250 0.16790 0.06000
C 	C 	0.69810 0.40680 0.24542 0.00900
H 	H 	0.74850 0.43450 0.19870 0.03900
C 	C 	0.75140 0.44460 0.33179 -0.09700
H 	H 	0.83840 0.49870 0.34400 0.06900
C 	C 	0.70850 0.60792 0.46408 0.05600
C 	C 	0.57530 0.57470 0.41375 -0.10000
H 	H 	0.51360 0.50830 0.41750 0.07200
C 	C 	0.53160 0.63630 0.35870 0.01100
H 	H 	0.44010 0.61220 0.32510 0.02400
C 	C 	0.61850 0.73210 0.35170 -0.08400
H 	H 	0.58840 0.77410 0.31300 0.03500
C 	C 	0.74930 0.76660 0.40110 0.01000
H 	H 	0.80970 0.83330 0.39710 0.02300
C 	C 	0.79440 0.70530 0.45672 -0.09500
H 	H 	0.88570 0.73050 0.49040 0.07300
C 	C 	0.96290 0.73273 0.81981 0.12000
C 	C 	0.10310 0.77500 0.85597 -0.07400
H 	H 	0.17090 0.75620 0.83210 0.07400
C 	C 	0.14400 0.84515 0.92743 -0.07800
C 	C 	0.04310 0.87116 0.96219 -0.00600
H 	H 	0.07080 0.92010 0.01030 0.05200
C 	C 	0.90240 0.82630 0.92722 -0.04100
C 	C 	0.86270 0.75836 0.85452 -0.08500
H 	H 	0.76690 0.72950 0.82860 0.08200
C 	C 	0.78930 0.84735 0.96753 0.29800
C 	C 	0.29640 0.89083 0.96881 0.35500
Mn	Mn	0.58074 0.87818 0.02265 1.24300
N 	N 	0.91891 0.65867 0.74725 -0.18100
O 	O 	0.81295 0.73698 0.64631 -0.23300
O 	O 	0.98870 0.54069 0.82053 -0.22600
O 	O 	0.37364 0.84279 0.95615 -0.47200
O 	O 	0.33606 0.97066 0.01469 -0.48200
O 	O 	0.81420 0.88214 0.04591 -0.39400
O 	O 	0.67211 0.82739 0.91994 -0.41000
