data_crystal

_cell_length_a 11.14400
_cell_length_b 11.59900
_cell_length_c 13.52900
_cell_angle_alpha 104.05000
_cell_angle_beta  97.18000
_cell_angle_gamma 108.05000

_symmetry_space_group_name_	'P 1'
_symmetry_space_group_name_H-M	'P 1'

loop_
_symmetry_equiv_pos_as_xyz
  x,y,z

loop_
_atom_site_label
_atom_site_type_symbol
_atom_site_fract_x
_atom_site_fract_y
_atom_site_fract_z
_atom_site_charge
Cd	Cd	0.67001 0.40072 0.07387 1.19100
O 	O 	0.05310 0.67010 0.69750 -0.40100
O 	O 	0.06280 0.86110 0.69100 -0.38400
O 	O 	0.78460 0.47300 0.93330 -0.35900
O 	O 	0.71890 0.59780 0.04650 -0.40600
N 	N 	0.72810 0.22530 0.01370 -0.25100
C 	C 	0.02530 0.76900 0.72480 0.30000
C 	C 	0.77300 0.57780 0.96990 0.29900
C 	C 	0.93850 0.77390 0.80450 -0.06600
C 	C 	0.89490 0.67430 0.84580 0.01200
H 	H 	0.91510 0.59980 0.82280 0.04300
C 	C 	0.82040 0.68400 0.92220 -0.07500
C 	C 	0.79060 0.79350 0.95240 -0.00900
H 	H 	0.73970 0.79990 0.00340 0.03600
C 	C 	0.83180 0.89330 0.91130 -0.03000
C 	C 	0.90600 0.88190 0.83630 -0.01400
H 	H 	0.93500 0.94890 0.80630 0.04800
C 	C 	0.79560 0.00780 0.94590 0.08600
C 	C 	0.69390 0.00630 0.99410 -0.13500
H 	H 	0.64390 0.92960 0.00510 0.06400
C 	C 	0.66290 0.11310 0.02660 0.05800
H 	H 	0.59190 0.10740 0.05970 -0.01300
C 	C 	0.82340 0.22810 0.96650 0.08100
H 	H 	0.87040 0.30600 0.95570 -0.00700
C 	C 	0.86120 0.12240 0.93050 -0.14200
H 	H 	0.93110 0.13010 0.89590 0.08000
Cd	Cd	0.17676 0.74890 0.57963 1.18800
O 	O 	0.21720 0.56310 0.54680 -0.41000
O 	O 	0.30520 0.67220 0.44580 -0.35000
O 	O 	0.53950 0.47990 0.18640 -0.36800
O 	O 	0.55000 0.29210 0.18340 -0.39600
N 	N 	0.22870 0.92480 0.51660 -0.24500
C 	C 	0.28310 0.57270 0.47470 0.29100
C 	C 	0.51160 0.38190 0.22040 0.29000
C 	C 	0.32980 0.47170 0.42720 -0.08200
C 	C 	0.39600 0.47740 0.34870 0.02600
H 	H 	0.41440 0.55010 0.32470 0.04900
C 	C 	0.43700 0.37880 0.30330 -0.08100
C 	C 	0.39770 0.26870 0.33270 -0.00700
H 	H 	0.41900 0.19850 0.29790 0.03600
C 	C 	0.32930 0.25630 0.40980 -0.02900
C 	C 	0.29260 0.35770 0.45710 -0.00700
H 	H 	0.24310 0.35080 0.50900 0.03400
C 	C 	0.29280 0.14090 0.44650 0.07700
C 	C 	0.36060 0.05910 0.43200 -0.12500
H 	H 	0.43130 0.07560 0.39830 0.06000
C 	C 	0.32530 0.95230 0.46660 0.05600
H 	H 	0.37210 0.89620 0.45420 0.00200
C 	C 	0.16030 0.99990 0.52720 0.06200
H 	H 	0.08850 0.97980 0.55920 -0.00600
C 	C 	0.18940 0.10710 0.49330 -0.12700
H 	H 	0.13710 0.15820 0.50250 0.06200
Cd	Cd	0.32999 0.59928 0.92613 1.19000
O 	O 	0.94690 0.32990 0.30250 -0.40200
O 	O 	0.93720 0.13890 0.30900 -0.38500
O 	O 	0.21540 0.52700 0.06670 -0.36000
O 	O 	0.28110 0.40220 0.95350 -0.40700
N 	N 	0.27190 0.77470 0.98630 -0.25200
C 	C 	0.97470 0.23100 0.27520 0.29900
C 	C 	0.22700 0.42220 0.03010 0.29800
C 	C 	0.06150 0.22610 0.19550 -0.06700
C 	C 	0.10510 0.32570 0.15420 0.01100
H 	H 	0.08490 0.40020 0.17720 0.04200
C 	C 	0.17960 0.31600 0.07780 -0.07600
C 	C 	0.20940 0.20650 0.04760 -0.00900
H 	H 	0.26030 0.20010 0.99660 0.03600
C 	C 	0.16820 0.10670 0.08870 -0.03000
C 	C 	0.09400 0.11810 0.16370 -0.01400
H 	H 	0.06500 0.05110 0.19370 0.04800
C 	C 	0.20440 0.99220 0.05410 0.08600
C 	C 	0.30610 0.99370 0.00590 -0.13500
H 	H 	0.35610 0.07040 0.99490 0.06400
C 	C 	0.33710 0.88690 0.97340 0.05800
H 	H 	0.40810 0.89260 0.94030 -0.01300
C 	C 	0.17660 0.77190 0.03350 0.08100
H 	H 	0.12960 0.69400 0.04430 -0.00700
C 	C 	0.13880 0.87760 0.06950 -0.14200
H 	H 	0.06890 0.86990 0.10410 0.08000
Cd	Cd	0.82324 0.25110 0.42037 1.18800
O 	O 	0.78280 0.43690 0.45320 -0.41000
O 	O 	0.69480 0.32780 0.55420 -0.35000
O 	O 	0.46050 0.52010 0.81360 -0.36800
O 	O 	0.45000 0.70790 0.81660 -0.39600
N 	N 	0.77130 0.07520 0.48340 -0.24500
C 	C 	0.71690 0.42730 0.52530 0.29100
C 	C 	0.48840 0.61810 0.77960 0.29000
C 	C 	0.67020 0.52830 0.57280 -0.08200
C 	C 	0.60400 0.52260 0.65130 0.02600
H 	H 	0.58560 0.44990 0.67530 0.04900
C 	C 	0.56300 0.62120 0.69670 -0.08100
C 	C 	0.60230 0.73130 0.66730 -0.00700
H 	H 	0.58100 0.80150 0.70210 0.03600
C 	C 	0.67070 0.74370 0.59020 -0.02900
C 	C 	0.70740 0.64230 0.54290 -0.00700
H 	H 	0.75690 0.64920 0.49100 0.03400
C 	C 	0.70720 0.85910 0.55350 0.07700
C 	C 	0.63940 0.94090 0.56800 -0.12500
H 	H 	0.56870 0.92440 0.60170 0.06000
C 	C 	0.67470 0.04770 0.53340 0.05600
H 	H 	0.62790 0.10380 0.54580 0.00200
C 	C 	0.83970 0.00010 0.47280 0.06200
H 	H 	0.91150 0.02020 0.44080 -0.00600
C 	C 	0.81060 0.89290 0.50670 -0.12700
H 	H 	0.86290 0.84180 0.49750 0.06200
