data_crystal

_cell_length_a 12.63720
_cell_length_b 12.98500
_cell_length_c 14.70760
_cell_angle_alpha 77.68000
_cell_angle_beta  68.35500
_cell_angle_gamma 87.31900

_symmetry_space_group_name_	'P 1'
_symmetry_space_group_name_H-M	'P 1'

loop_
_symmetry_equiv_pos_as_xyz
  x,y,z

loop_
_atom_site_label
_atom_site_type_symbol
_atom_site_fract_x
_atom_site_fract_y
_atom_site_fract_z
_atom_site_charge
Ag	Ag	0.70364 0.36935 0.70554 0.52400
Ag	Ag	0.66611 0.15202 0.34833 0.51800
C 	C 	0.84480 0.27560 0.84750 -0.07500
H 	H 	0.88390 0.24490 0.79150 0.06200
C 	C 	0.86360 0.23920 0.93520 0.17500
C 	C 	0.80670 0.28030 0.01860 -0.12700
H 	H 	0.81860 0.25510 0.07950 0.09000
C 	C 	0.73170 0.35960 0.01030 -0.00900
H 	H 	0.69060 0.39040 0.06580 0.03800
C 	C 	0.71760 0.39320 0.92000 0.00500
H 	H 	0.66590 0.44770 0.91480 0.01900
C 	C 	0.22700 0.97940 0.81570 -0.07300
H 	H 	0.17050 0.98360 0.78690 0.05900
C 	C 	0.20850 0.02510 0.89630 0.18600
C 	C 	0.28730 0.01960 0.94100 -0.13600
H 	H 	0.27400 0.04890 0.99810 0.08800
C 	C 	0.38720 0.96940 0.89920 -0.00900
H 	H 	0.44520 0.96550 0.92620 0.02600
C 	C 	0.40230 0.92530 0.81840 0.00200
H 	H 	0.47120 0.89090 0.79090 0.01000
C 	C 	0.16680 0.63080 0.77950 -0.07900
H 	H 	0.23750 0.59810 0.77210 0.06300
C 	C 	0.06660 0.57280 0.83800 0.19500
C 	C 	0.96300 0.61770 0.84850 -0.14400
H 	H 	0.89360 0.57890 0.88830 0.10100
C 	C 	0.96350 0.72100 0.79910 0.00200
H 	H 	0.89390 0.75450 0.80350 0.02400
C 	C 	0.06630 0.77490 0.74340 0.00000
H 	H 	0.06560 0.84630 0.71070 0.01400
C 	C 	0.17430 0.48770 0.50170 -0.08000
H 	H 	0.22910 0.43940 0.47360 0.05700
C 	C 	0.09100 0.45430 0.59410 0.18700
C 	C 	0.00830 0.52140 0.63530 -0.14600
H 	H 	0.94860 0.49800 0.69820 0.08400
C 	C 	0.01480 0.62360 0.58260 -0.00100
H 	H 	0.95980 0.67250 0.60890 0.02600
C 	C 	0.10200 0.65430 0.49090 0.00300
H 	H 	0.10700 0.72550 0.45570 0.01300
C 	C 	0.52110 0.24550 0.90260 -0.00400
H 	H 	0.58480 0.20400 0.90350 0.02100
C 	C 	0.42130 0.22580 0.98500 -0.00500
H 	H 	0.41720 0.17280 0.04200 0.02300
C 	C 	0.32760 0.28380 0.98410 -0.14400
H 	H 	0.25750 0.27170 0.03980 0.08700
C 	C 	0.33890 0.35980 0.89980 0.17200
C 	C 	0.44100 0.37730 0.81990 -0.08100
H 	H 	0.44700 0.43060 0.76270 0.04800
C 	C 	0.57780 0.14580 0.57600 -0.01100
H 	H 	0.64960 0.11470 0.56670 0.00500
C 	C 	0.51200 0.16230 0.66930 -0.01400
H 	H 	0.53830 0.14260 0.72320 0.02300
C 	C 	0.40690 0.20780 0.68440 -0.14600
H 	H 	0.35980 0.22040 0.74810 0.08600
C 	C 	0.37380 0.23400 0.60330 0.17300
C 	C 	0.44380 0.21490 0.51170 -0.08100
H 	H 	0.41910 0.23300 0.45680 0.04600
N 	N 	0.10260 0.27360 0.93085 -0.17800
N 	N 	0.20560 0.38970 0.74410 -0.18900
N 	N 	0.11350 0.19580 0.77210 -0.18600
N 	N 	0.77350 0.35260 0.83900 -0.14300
N 	N 	0.32290 0.92910 0.77700 -0.15200
N 	N 	0.54500 0.17180 0.49760 -0.16000
N 	N 	0.17990 0.58730 0.45000 -0.15700
N 	N 	0.16690 0.73100 0.73330 -0.14300
N 	N 	0.53210 0.32080 0.82100 -0.15400
O 	O 	0.24810 0.42395 0.89527 -0.26300
O 	O 	0.06235 0.46913 0.89021 -0.24900
O 	O 	0.10442 0.07092 0.93818 -0.23600
O 	O 	0.93661 0.15625 0.94144 -0.24100
O 	O 	0.27246 0.28164 0.60444 -0.26800
O 	O 	0.08385 0.34899 0.64455 -0.26400
P 	P 	0.15470 0.38271 0.86127 0.36400
P 	P 	0.16905 0.30287 0.69935 0.36400
P 	P 	0.06979 0.18092 0.88994 0.36500
Ag	Ag	0.29636 0.63065 0.29446 0.52400
Ag	Ag	0.33389 0.84798 0.65167 0.51800
C 	C 	0.15520 0.72440 0.15250 -0.07500
H 	H 	0.11610 0.75510 0.20850 0.06200
C 	C 	0.13640 0.76080 0.06480 0.17500
C 	C 	0.19330 0.71970 0.98140 -0.12700
H 	H 	0.18140 0.74490 0.92050 0.09000
C 	C 	0.26830 0.64040 0.98970 -0.00900
H 	H 	0.30940 0.60960 0.93420 0.03800
C 	C 	0.28240 0.60680 0.08000 0.00500
H 	H 	0.33410 0.55230 0.08520 0.01900
C 	C 	0.77300 0.02060 0.18430 -0.07300
H 	H 	0.82950 0.01640 0.21310 0.05900
C 	C 	0.79150 0.97490 0.10370 0.18600
C 	C 	0.71270 0.98040 0.05900 -0.13600
H 	H 	0.72600 0.95110 0.00190 0.08800
C 	C 	0.61280 0.03060 0.10080 -0.00900
H 	H 	0.55480 0.03450 0.07380 0.02600
C 	C 	0.59770 0.07470 0.18160 0.00200
H 	H 	0.52880 0.10910 0.20910 0.01000
C 	C 	0.83320 0.36920 0.22050 -0.07900
H 	H 	0.76250 0.40190 0.22790 0.06300
C 	C 	0.93340 0.42720 0.16200 0.19500
C 	C 	0.03700 0.38230 0.15150 -0.14400
H 	H 	0.10640 0.42110 0.11170 0.10100
C 	C 	0.03650 0.27900 0.20090 0.00200
H 	H 	0.10610 0.24550 0.19650 0.02400
C 	C 	0.93370 0.22510 0.25660 0.00000
H 	H 	0.93440 0.15370 0.28930 0.01400
C 	C 	0.82570 0.51230 0.49830 -0.08000
H 	H 	0.77090 0.56060 0.52640 0.05700
C 	C 	0.90900 0.54570 0.40590 0.18700
C 	C 	0.99170 0.47860 0.36470 -0.14600
H 	H 	0.05140 0.50200 0.30180 0.08400
C 	C 	0.98520 0.37640 0.41740 -0.00100
H 	H 	0.04020 0.32750 0.39110 0.02600
C 	C 	0.89800 0.34570 0.50910 0.00300
H 	H 	0.89300 0.27450 0.54430 0.01300
C 	C 	0.47890 0.75450 0.09740 -0.00400
H 	H 	0.41520 0.79600 0.09650 0.02100
C 	C 	0.57870 0.77420 0.01500 -0.00500
H 	H 	0.58280 0.82720 0.95800 0.02300
C 	C 	0.67240 0.71620 0.01590 -0.14400
H 	H 	0.74250 0.72830 0.96020 0.08700
C 	C 	0.66110 0.64020 0.10020 0.17200
C 	C 	0.55900 0.62270 0.18010 -0.08100
H 	H 	0.55300 0.56940 0.23730 0.04800
C 	C 	0.42220 0.85420 0.42400 -0.01100
H 	H 	0.35040 0.88530 0.43330 0.00500
C 	C 	0.48800 0.83770 0.33070 -0.01400
H 	H 	0.46170 0.85740 0.27680 0.02300
C 	C 	0.59310 0.79220 0.31560 -0.14600
H 	H 	0.64020 0.77960 0.25190 0.08600
C 	C 	0.62620 0.76600 0.39670 0.17300
C 	C 	0.55620 0.78510 0.48830 -0.08100
H 	H 	0.58090 0.76700 0.54320 0.04600
N 	N 	0.89740 0.72640 0.06915 -0.17800
N 	N 	0.79440 0.61030 0.25590 -0.18900
N 	N 	0.88650 0.80420 0.22790 -0.18600
N 	N 	0.22650 0.64740 0.16100 -0.14300
N 	N 	0.67710 0.07090 0.22300 -0.15200
N 	N 	0.45500 0.82820 0.50240 -0.16000
N 	N 	0.82010 0.41270 0.55000 -0.15700
N 	N 	0.83310 0.26900 0.26670 -0.14300
N 	N 	0.46790 0.67920 0.17900 -0.15400
O 	O 	0.75190 0.57605 0.10473 -0.26300
O 	O 	0.93765 0.53087 0.10979 -0.24900
O 	O 	0.89558 0.92908 0.06182 -0.23600
O 	O 	0.06339 0.84375 0.05856 -0.24100
O 	O 	0.72754 0.71836 0.39556 -0.26800
O 	O 	0.91615 0.65101 0.35545 -0.26400
P 	P 	0.84530 0.61729 0.13873 0.36400
P 	P 	0.83095 0.69713 0.30065 0.36400
P 	P 	0.93021 0.81908 0.11006 0.36500
