data_crystal

_cell_length_a 36.66200
_cell_length_b 37.05500
_cell_length_c 5.10920
_cell_angle_alpha 90.00000
_cell_angle_beta  90.00000
_cell_angle_gamma 90.00000

_symmetry_space_group_name_	'P 1'
_symmetry_space_group_name_H-M	'P 1'

loop_
_symmetry_equiv_pos_as_xyz
  x,y,z

loop_
_atom_site_label
_atom_site_type_symbol
_atom_site_fract_x
_atom_site_fract_y
_atom_site_fract_z
_atom_site_charge
S 	S 	0.52234 0.60900 0.98570 -0.10000
N 	N 	0.45629 0.51067 0.32950 -0.29300
C 	C 	0.43670 0.48530 0.22100 0.07200
H 	H 	0.44120 0.46110 0.27320 -0.02600
C 	C 	0.41000 0.49140 0.03700 -0.14200
H 	H 	0.39710 0.47170 0.96190 0.06400
C 	C 	0.40180 0.52640 0.96030 0.07400
C 	C 	0.42210 0.55390 0.08100 -0.14700
H 	H 	0.41790 0.57850 0.03850 0.07600
C 	C 	0.44840 0.54420 0.26400 0.07200
H 	H 	0.46170 0.56300 0.34670 -0.02400
C 	C 	0.37520 0.53540 0.75860 -0.07700
H 	H 	0.37140 0.56040 0.72810 0.05300
C 	C 	0.35670 0.51430 0.62000 -0.06900
H 	H 	0.36100 0.48920 0.64520 0.04900
C 	C 	0.32860 0.52400 0.42000 0.08900
C 	C 	0.31360 0.49590 0.27000 -0.12300
H 	H 	0.32100 0.47170 0.30040 0.06700
C 	C 	0.28830 0.50330 0.07900 0.03000
H 	H 	0.27860 0.48460 0.97290 0.01800
C 	C 	0.27670 0.54060 0.04400 -0.10300
H 	H 	0.25890 0.54670 0.91580 0.06400
C 	C 	0.29150 0.56590 0.19300 0.04300
H 	H 	0.28470 0.59040 0.16770 0.01600
C 	C 	0.31610 0.55750 0.38300 -0.13400
H 	H 	0.32480 0.57620 0.49390 0.07500
N 	N 	0.50990 0.54420 0.74100 -0.32900
C 	C 	0.51470 0.57180 0.83700 0.10500
S 	S 	0.47766 0.39100 0.98570 -0.09900
N 	N 	0.54371 0.48933 0.32950 -0.29200
C 	C 	0.56330 0.51470 0.22100 0.07300
H 	H 	0.55880 0.53890 0.27320 -0.02500
C 	C 	0.59000 0.50860 0.03700 -0.14100
H 	H 	0.60290 0.52830 0.96190 0.06500
C 	C 	0.59820 0.47360 0.96030 0.07400
C 	C 	0.57790 0.44610 0.08100 -0.14600
H 	H 	0.58210 0.42150 0.03850 0.07600
C 	C 	0.55160 0.45580 0.26400 0.07200
H 	H 	0.53830 0.43700 0.34670 -0.02400
C 	C 	0.62480 0.46460 0.75860 -0.07700
H 	H 	0.62860 0.43960 0.72810 0.05300
C 	C 	0.64330 0.48570 0.62000 -0.06900
H 	H 	0.63900 0.51080 0.64520 0.04900
C 	C 	0.67140 0.47600 0.42000 0.08900
C 	C 	0.68640 0.50410 0.27000 -0.12300
H 	H 	0.67900 0.52830 0.30040 0.06700
C 	C 	0.71170 0.49670 0.07900 0.03000
H 	H 	0.72140 0.51540 0.97290 0.01800
C 	C 	0.72330 0.45940 0.04400 -0.10200
H 	H 	0.74110 0.45330 0.91580 0.06400
C 	C 	0.70850 0.43410 0.19300 0.04300
H 	H 	0.71530 0.40960 0.16770 0.01600
C 	C 	0.68390 0.44250 0.38300 -0.13400
H 	H 	0.67520 0.42380 0.49390 0.07500
N 	N 	0.49010 0.45580 0.74100 -0.32900
C 	C 	0.48530 0.42820 0.83700 0.10500
Zn	Zn	0.50000 0.50000 0.56060 1.17800
S 	S 	0.52234 0.10900 0.48570 -0.09300
N 	N 	0.45629 0.01067 0.82950 -0.29900
C 	C 	0.43670 0.98530 0.72100 0.09800
H 	H 	0.44120 0.96110 0.77320 -0.03100
C 	C 	0.41000 0.99140 0.53700 -0.17600
H 	H 	0.39710 0.97170 0.46190 0.08200
C 	C 	0.40180 0.02640 0.46030 0.10200
C 	C 	0.42210 0.05390 0.58100 -0.17100
H 	H 	0.41790 0.07850 0.53850 0.08100
C 	C 	0.44840 0.04420 0.76400 0.08300
H 	H 	0.46170 0.06300 0.84670 -0.02500
C 	C 	0.37520 0.03540 0.25860 -0.09500
H 	H 	0.37140 0.06040 0.22810 0.05900
C 	C 	0.35670 0.01430 0.12000 -0.06400
H 	H 	0.36100 0.98920 0.14520 0.05000
C 	C 	0.32860 0.02400 0.92000 0.06200
C 	C 	0.31360 0.99590 0.77000 -0.07600
H 	H 	0.32100 0.97170 0.80040 0.05200
C 	C 	0.28830 0.00330 0.57900 -0.02500
H 	H 	0.27860 0.98460 0.47290 0.04200
C 	C 	0.27670 0.04060 0.54400 -0.06900
H 	H 	0.25890 0.04670 0.41580 0.05300
C 	C 	0.29150 0.06590 0.69300 0.01200
H 	H 	0.28470 0.09040 0.66770 0.02600
C 	C 	0.31610 0.05750 0.88300 -0.10700
H 	H 	0.32480 0.07620 0.99390 0.06700
N 	N 	0.50990 0.04420 0.24100 -0.33100
C 	C 	0.51470 0.07180 0.33700 0.10400
S 	S 	0.47766 0.89100 0.48570 -0.09200
N 	N 	0.54371 0.98933 0.82950 -0.29200
C 	C 	0.56330 0.01470 0.72100 0.09000
H 	H 	0.55880 0.03890 0.77320 -0.03100
C 	C 	0.59000 0.00860 0.53700 -0.19400
H 	H 	0.60290 0.02830 0.46190 0.08600
C 	C 	0.59820 0.97360 0.46030 0.12000
C 	C 	0.57790 0.94610 0.58100 -0.17800
H 	H 	0.58210 0.92150 0.53850 0.08300
C 	C 	0.55160 0.95580 0.76400 0.08900
H 	H 	0.53830 0.93700 0.84670 -0.02700
C 	C 	0.62480 0.96460 0.25860 -0.09700
H 	H 	0.62860 0.93960 0.22810 0.05800
C 	C 	0.64330 0.98570 0.12000 -0.06300
H 	H 	0.63900 0.01080 0.14520 0.04200
C 	C 	0.67140 0.97600 0.92000 0.12100
C 	C 	0.68640 0.00410 0.77000 -0.16900
H 	H 	0.67900 0.02830 0.80040 0.08100
C 	C 	0.71170 0.99670 0.57900 0.07700
H 	H 	0.72140 0.01540 0.47290 0.00000
C 	C 	0.72330 0.95940 0.54400 -0.14100
H 	H 	0.74110 0.95330 0.41580 0.07900
C 	C 	0.70850 0.93410 0.69300 0.07800
H 	H 	0.71530 0.90960 0.66770 0.00400
C 	C 	0.68390 0.94250 0.88300 -0.16600
H 	H 	0.67520 0.92380 0.99390 0.08700
N 	N 	0.49010 0.95580 0.24100 -0.32800
C 	C 	0.48530 0.92820 0.33700 0.10400
Zn	Zn	0.50000 0.00000 0.06060 1.17300
S 	S 	0.02234 0.60900 0.48570 -0.09600
N 	N 	0.95629 0.51067 0.82950 -0.29400
C 	C 	0.93670 0.48530 0.72100 0.09400
H 	H 	0.94120 0.46110 0.77320 -0.03100
C 	C 	0.91000 0.49140 0.53700 -0.18500
H 	H 	0.89710 0.47170 0.46190 0.08400
C 	C 	0.90180 0.52640 0.46030 0.11200
C 	C 	0.92210 0.55390 0.58100 -0.17400
H 	H 	0.91790 0.57850 0.53850 0.08300
C 	C 	0.94840 0.54420 0.76400 0.08700
H 	H 	0.96170 0.56300 0.84670 -0.02300
C 	C 	0.87520 0.53540 0.25860 -0.09600
H 	H 	0.87140 0.56040 0.22810 0.05900
C 	C 	0.85670 0.51430 0.12000 -0.06300
H 	H 	0.86100 0.48920 0.14520 0.04600
C 	C 	0.82860 0.52400 0.92000 0.09200
C 	C 	0.81360 0.49590 0.77000 -0.12300
H 	H 	0.82100 0.47170 0.80040 0.06700
C 	C 	0.78830 0.50330 0.57900 0.02600
H 	H 	0.77860 0.48460 0.47290 0.02100
C 	C 	0.77670 0.54060 0.54400 -0.10500
H 	H 	0.75890 0.54670 0.41580 0.06600
C 	C 	0.79150 0.56590 0.69300 0.04500
H 	H 	0.78470 0.59040 0.66770 0.01500
C 	C 	0.81610 0.55750 0.88300 -0.13700
H 	H 	0.82480 0.57620 0.99390 0.07700
N 	N 	0.00990 0.54420 0.24100 -0.33200
C 	C 	0.01470 0.57180 0.33700 0.10200
S 	S 	0.97766 0.39100 0.48570 -0.08900
N 	N 	0.04371 0.48933 0.82950 -0.29700
C 	C 	0.06330 0.51470 0.72100 0.09400
H 	H 	0.05880 0.53890 0.77320 -0.03100
C 	C 	0.09000 0.50860 0.53700 -0.18500
H 	H 	0.10290 0.52830 0.46190 0.08400
C 	C 	0.09820 0.47360 0.46030 0.11100
C 	C 	0.07790 0.44610 0.58100 -0.17500
H 	H 	0.08210 0.42150 0.53850 0.08100
C 	C 	0.05160 0.45580 0.76400 0.08500
H 	H 	0.03830 0.43700 0.84670 -0.02900
C 	C 	0.12480 0.46460 0.25860 -0.09600
H 	H 	0.12860 0.43960 0.22810 0.05800
C 	C 	0.14330 0.48570 0.12000 -0.06300
H 	H 	0.13900 0.51080 0.14520 0.04600
C 	C 	0.17140 0.47600 0.92000 0.09200
C 	C 	0.18640 0.50410 0.77000 -0.12200
H 	H 	0.17900 0.52830 0.80040 0.06700
C 	C 	0.21170 0.49670 0.57900 0.02600
H 	H 	0.22140 0.51540 0.47290 0.02100
C 	C 	0.22330 0.45940 0.54400 -0.10500
H 	H 	0.24110 0.45330 0.41580 0.06600
C 	C 	0.20850 0.43410 0.69300 0.04500
H 	H 	0.21530 0.40960 0.66770 0.01500
C 	C 	0.18390 0.44250 0.88300 -0.13700
H 	H 	0.17520 0.42380 0.99390 0.07700
N 	N 	0.99010 0.45580 0.24100 -0.32700
C 	C 	0.98530 0.42820 0.33700 0.10600
Zn	Zn	0.00000 0.50000 0.06060 1.17200
S 	S 	0.02234 0.10900 0.98570 -0.10200
N 	N 	0.95629 0.01067 0.32950 -0.29400
C 	C 	0.93670 0.98530 0.22100 0.07700
H 	H 	0.94120 0.96110 0.27320 -0.02500
C 	C 	0.91000 0.99140 0.03700 -0.13100
H 	H 	0.89710 0.97170 0.96190 0.06300
C 	C 	0.90180 0.02640 0.96030 0.06500
C 	C 	0.92210 0.05390 0.08100 -0.14200
H 	H 	0.91790 0.07850 0.03850 0.07500
C 	C 	0.94840 0.04420 0.26400 0.07000
H 	H 	0.96170 0.06300 0.34670 -0.02100
C 	C 	0.87520 0.03540 0.75860 -0.07600
H 	H 	0.87140 0.06040 0.72810 0.05400
C 	C 	0.85670 0.01430 0.62000 -0.06900
H 	H 	0.86100 0.98920 0.64520 0.05300
C 	C 	0.82860 0.02400 0.42000 0.05900
C 	C 	0.81360 0.99590 0.27000 -0.07600
H 	H 	0.82100 0.97170 0.30040 0.05200
C 	C 	0.78830 0.00330 0.07900 -0.02000
H 	H 	0.77860 0.98460 0.97290 0.03800
C 	C 	0.77670 0.04060 0.04400 -0.06600
H 	H 	0.75890 0.04670 0.91580 0.05100
C 	C 	0.79150 0.06590 0.19300 0.01000
H 	H 	0.78470 0.09040 0.16770 0.02800
C 	C 	0.81610 0.05750 0.38300 -0.10400
H 	H 	0.82480 0.07620 0.49390 0.06500
N 	N 	0.00990 0.04420 0.74100 -0.33200
C 	C 	0.01470 0.07180 0.83700 0.10300
S 	S 	0.97766 0.89100 0.98570 -0.09500
N 	N 	0.04371 0.98933 0.32950 -0.28900
C 	C 	0.06330 0.01470 0.22100 0.06900
H 	H 	0.05880 0.03890 0.27320 -0.02500
C 	C 	0.09000 0.00860 0.03700 -0.15000
H 	H 	0.10290 0.02830 0.96190 0.06700
C 	C 	0.09820 0.97360 0.96030 0.08300
C 	C 	0.07790 0.94610 0.08100 -0.15100
H 	H 	0.08210 0.92150 0.03850 0.07600
C 	C 	0.05160 0.95580 0.26400 0.07500
H 	H 	0.03830 0.93700 0.34670 -0.02700
C 	C 	0.12480 0.96460 0.75860 -0.07800
H 	H 	0.12860 0.93960 0.72810 0.05200
C 	C 	0.14330 0.98570 0.62000 -0.06900
H 	H 	0.13900 0.01080 0.64520 0.04500
C 	C 	0.17140 0.97600 0.42000 0.11900
C 	C 	0.18640 0.00410 0.27000 -0.17000
H 	H 	0.17900 0.02830 0.30040 0.08100
C 	C 	0.21170 0.99670 0.07900 0.08100
H 	H 	0.22140 0.01540 0.97290 -0.00300
C 	C 	0.22330 0.95940 0.04400 -0.13900
H 	H 	0.24110 0.95330 0.91580 0.07700
C 	C 	0.20850 0.93410 0.19300 0.07700
H 	H 	0.21530 0.90960 0.16770 0.00500
C 	C 	0.18390 0.94250 0.38300 -0.16500
H 	H 	0.17520 0.92380 0.49390 0.08400
N 	N 	0.99010 0.95580 0.74100 -0.32400
C 	C 	0.98530 0.92820 0.83700 0.10600
Zn	Zn	0.00000 0.00000 0.56060 1.17400
S 	S 	0.77234 0.64100 0.23570 -0.09300
N 	N 	0.70629 0.73933 0.57950 -0.29900
C 	C 	0.68670 0.76470 0.47100 0.09300
H 	H 	0.69120 0.78890 0.52320 -0.03300
C 	C 	0.66000 0.75860 0.28700 -0.18400
H 	H 	0.64710 0.77830 0.21190 0.08400
C 	C 	0.65180 0.72360 0.21030 0.11000
C 	C 	0.67210 0.69610 0.33100 -0.17400
H 	H 	0.66790 0.67150 0.28850 0.08300
C 	C 	0.69840 0.70580 0.51400 0.08500
H 	H 	0.71170 0.68700 0.59670 -0.02900
C 	C 	0.62520 0.71460 0.00860 -0.08800
H 	H 	0.62140 0.68960 0.97810 0.05600
C 	C 	0.60670 0.73570 0.87000 -0.06200
H 	H 	0.61100 0.76080 0.89520 0.04700
C 	C 	0.57860 0.72600 0.67000 0.08300
C 	C 	0.56360 0.75410 0.52000 -0.11700
H 	H 	0.57100 0.77830 0.55040 0.06400
C 	C 	0.53830 0.74670 0.32900 0.02200
H 	H 	0.52860 0.76540 0.22290 0.02200
C 	C 	0.52670 0.70940 0.29400 -0.10000
H 	H 	0.50890 0.70330 0.16580 0.06500
C 	C 	0.54150 0.68410 0.44300 0.03900
H 	H 	0.53470 0.65960 0.41770 0.01800
C 	C 	0.56610 0.69250 0.63300 -0.13000
H 	H 	0.57480 0.67380 0.74390 0.07300
N 	N 	0.75990 0.70580 0.99100 -0.32900
C 	C 	0.76470 0.67820 0.08700 0.10800
S 	S 	0.72766 0.85900 0.23570 -0.09300
N 	N 	0.79371 0.76067 0.57950 -0.29900
C 	C 	0.81330 0.73530 0.47100 0.09300
H 	H 	0.80880 0.71110 0.52320 -0.03300
C 	C 	0.84000 0.74140 0.28700 -0.18400
H 	H 	0.85290 0.72170 0.21190 0.08400
C 	C 	0.84820 0.77640 0.21030 0.11000
C 	C 	0.82790 0.80390 0.33100 -0.17400
H 	H 	0.83210 0.82850 0.28850 0.08300
C 	C 	0.80160 0.79420 0.51400 0.08500
H 	H 	0.78830 0.81300 0.59670 -0.02900
C 	C 	0.87480 0.78540 0.00860 -0.08800
H 	H 	0.87860 0.81040 0.97810 0.05600
C 	C 	0.89330 0.76430 0.87000 -0.06200
H 	H 	0.88900 0.73920 0.89520 0.04700
C 	C 	0.92140 0.77400 0.67000 0.08300
C 	C 	0.93640 0.74590 0.52000 -0.11700
H 	H 	0.92900 0.72170 0.55040 0.06500
C 	C 	0.96170 0.75330 0.32900 0.02300
H 	H 	0.97140 0.73460 0.22290 0.02500
C 	C 	0.97330 0.79060 0.29400 -0.09900
H 	H 	0.99110 0.79670 0.16580 0.06700
C 	C 	0.95850 0.81590 0.44300 0.04000
H 	H 	0.96530 0.84040 0.41770 0.01900
C 	C 	0.93390 0.80750 0.63300 -0.13000
H 	H 	0.92520 0.82620 0.74390 0.07300
N 	N 	0.74010 0.79420 0.99100 -0.32900
C 	C 	0.73530 0.82180 0.08700 0.10800
Zn	Zn	0.75000 0.75000 0.81060 1.17900
S 	S 	0.77234 0.14100 0.73570 -0.09400
N 	N 	0.70629 0.23933 0.07950 -0.29800
C 	C 	0.68670 0.26470 0.97100 0.09000
H 	H 	0.69120 0.28890 0.02320 -0.03100
C 	C 	0.66000 0.25860 0.78700 -0.18500
H 	H 	0.64710 0.27830 0.71190 0.08400
C 	C 	0.65180 0.22360 0.71030 0.11400
C 	C 	0.67210 0.19610 0.83100 -0.17600
H 	H 	0.66790 0.17150 0.78850 0.08300
C 	C 	0.69840 0.20580 0.01400 0.08500
H 	H 	0.71170 0.18700 0.09670 -0.02900
C 	C 	0.62520 0.21460 0.50860 -0.10100
H 	H 	0.62140 0.18960 0.47810 0.06200
C 	C 	0.60670 0.23570 0.37000 -0.05200
H 	H 	0.61100 0.26080 0.39520 0.04400
C 	C 	0.57860 0.22600 0.17000 0.08200
C 	C 	0.56360 0.25410 0.02000 -0.11800
H 	H 	0.57100 0.27830 0.05040 0.06500
C 	C 	0.53830 0.24670 0.82900 0.02300
H 	H 	0.52860 0.26540 0.72290 0.02200
C 	C 	0.52670 0.20940 0.79400 -0.10400
H 	H 	0.50890 0.20330 0.66580 0.06500
C 	C 	0.54150 0.18410 0.94300 0.04700
H 	H 	0.53470 0.15960 0.91770 0.01600
C 	C 	0.56610 0.19250 0.13300 -0.13600
H 	H 	0.57480 0.17380 0.24390 0.07400
N 	N 	0.75990 0.20580 0.49100 -0.32800
C 	C 	0.76470 0.17820 0.58700 0.10600
S 	S 	0.72766 0.35900 0.73570 -0.09400
N 	N 	0.79371 0.26067 0.07950 -0.29800
C 	C 	0.81330 0.23530 0.97100 0.09000
H 	H 	0.80880 0.21110 0.02320 -0.03100
C 	C 	0.84000 0.24140 0.78700 -0.18600
H 	H 	0.85290 0.22170 0.71190 0.08500
C 	C 	0.84820 0.27640 0.71030 0.11500
C 	C 	0.82790 0.30390 0.83100 -0.17600
H 	H 	0.83210 0.32850 0.78850 0.08300
C 	C 	0.80160 0.29420 0.01400 0.08600
H 	H 	0.78830 0.31300 0.09670 -0.02900
C 	C 	0.87480 0.28540 0.50860 -0.10200
H 	H 	0.87860 0.31040 0.47810 0.06200
C 	C 	0.89330 0.26430 0.37000 -0.05200
H 	H 	0.88900 0.23920 0.39520 0.04400
C 	C 	0.92140 0.27400 0.17000 0.08300
C 	C 	0.93640 0.24590 0.02000 -0.11800
H 	H 	0.92900 0.22170 0.05040 0.06600
C 	C 	0.96170 0.25330 0.82900 0.02400
H 	H 	0.97140 0.23460 0.72290 0.02400
C 	C 	0.97330 0.29060 0.79400 -0.10300
H 	H 	0.99110 0.29670 0.66580 0.06800
C 	C 	0.95850 0.31590 0.94300 0.04700
H 	H 	0.96530 0.34040 0.91770 0.01700
C 	C 	0.93390 0.30750 0.13300 -0.13600
H 	H 	0.92520 0.32620 0.24390 0.07400
N 	N 	0.74010 0.29420 0.49100 -0.32800
C 	C 	0.73530 0.32180 0.58700 0.10600
Zn	Zn	0.75000 0.25000 0.31060 1.17900
S 	S 	0.27234 0.64100 0.73570 -0.09400
N 	N 	0.20629 0.73933 0.07950 -0.29800
C 	C 	0.18670 0.76470 0.97100 0.09000
H 	H 	0.19120 0.78890 0.02320 -0.03100
C 	C 	0.16000 0.75860 0.78700 -0.18500
H 	H 	0.14710 0.77830 0.71190 0.08400
C 	C 	0.15180 0.72360 0.71030 0.11500
C 	C 	0.17210 0.69610 0.83100 -0.17600
H 	H 	0.16790 0.67150 0.78850 0.08300
C 	C 	0.19840 0.70580 0.01400 0.08600
H 	H 	0.21170 0.68700 0.09670 -0.02900
C 	C 	0.12520 0.71460 0.50860 -0.10200
H 	H 	0.12140 0.68960 0.47810 0.06200
C 	C 	0.10670 0.73570 0.37000 -0.05200
H 	H 	0.11100 0.76080 0.39520 0.04300
C 	C 	0.07860 0.72600 0.17000 0.08200
C 	C 	0.06360 0.75410 0.02000 -0.11900
H 	H 	0.07100 0.77830 0.05040 0.06400
C 	C 	0.03830 0.74670 0.82900 0.02200
H 	H 	0.02860 0.76540 0.72290 0.02000
C 	C 	0.02670 0.70940 0.79400 -0.10400
H 	H 	0.00890 0.70330 0.66580 0.06300
C 	C 	0.04150 0.68410 0.94300 0.04600
H 	H 	0.03470 0.65960 0.91770 0.01600
C 	C 	0.06610 0.69250 0.13300 -0.13600
H 	H 	0.07480 0.67380 0.24390 0.07400
N 	N 	0.25990 0.70580 0.49100 -0.32800
C 	C 	0.26470 0.67820 0.58700 0.10600
S 	S 	0.22766 0.85900 0.73570 -0.09400
N 	N 	0.29371 0.76067 0.07950 -0.29800
C 	C 	0.31330 0.73530 0.97100 0.09000
H 	H 	0.30880 0.71110 0.02320 -0.03100
C 	C 	0.34000 0.74140 0.78700 -0.18500
H 	H 	0.35290 0.72170 0.71190 0.08400
C 	C 	0.34820 0.77640 0.71030 0.11500
C 	C 	0.32790 0.80390 0.83100 -0.17600
H 	H 	0.33210 0.82850 0.78850 0.08300
C 	C 	0.30160 0.79420 0.01400 0.08600
H 	H 	0.28830 0.81300 0.09670 -0.02900
C 	C 	0.37480 0.78540 0.50860 -0.10200
H 	H 	0.37860 0.81040 0.47810 0.06200
C 	C 	0.39330 0.76430 0.37000 -0.05200
H 	H 	0.38900 0.73920 0.39520 0.04400
C 	C 	0.42140 0.77400 0.17000 0.08200
C 	C 	0.43640 0.74590 0.02000 -0.11800
H 	H 	0.42900 0.72170 0.05040 0.06500
C 	C 	0.46170 0.75330 0.82900 0.02300
H 	H 	0.47140 0.73460 0.72290 0.02200
C 	C 	0.47330 0.79060 0.79400 -0.10400
H 	H 	0.49110 0.79670 0.66580 0.06500
C 	C 	0.45850 0.81590 0.94300 0.04600
H 	H 	0.46530 0.84040 0.91770 0.01600
C 	C 	0.43390 0.80750 0.13300 -0.13600
H 	H 	0.42520 0.82620 0.24390 0.07400
N 	N 	0.24010 0.79420 0.49100 -0.32800
C 	C 	0.23530 0.82180 0.58700 0.10600
Zn	Zn	0.25000 0.75000 0.31060 1.17900
S 	S 	0.27234 0.14100 0.23570 -0.09400
N 	N 	0.20629 0.23933 0.57950 -0.29900
C 	C 	0.18670 0.26470 0.47100 0.09300
H 	H 	0.19120 0.28890 0.52320 -0.03300
C 	C 	0.16000 0.25860 0.28700 -0.18400
H 	H 	0.14710 0.27830 0.21190 0.08400
C 	C 	0.15180 0.22360 0.21030 0.11100
C 	C 	0.17210 0.19610 0.33100 -0.17400
H 	H 	0.16790 0.17150 0.28850 0.08300
C 	C 	0.19840 0.20580 0.51400 0.08500
H 	H 	0.21170 0.18700 0.59670 -0.02900
C 	C 	0.12520 0.21460 0.00860 -0.09000
H 	H 	0.12140 0.18960 0.97810 0.05600
C 	C 	0.10670 0.23570 0.87000 -0.06000
H 	H 	0.11100 0.26080 0.89520 0.04600
C 	C 	0.07860 0.22600 0.67000 0.08200
C 	C 	0.06360 0.25410 0.52000 -0.11700
H 	H 	0.07100 0.27830 0.55040 0.06300
C 	C 	0.03830 0.24670 0.32900 0.02000
H 	H 	0.02860 0.26540 0.22290 0.02000
C 	C 	0.02670 0.20940 0.29400 -0.10000
H 	H 	0.00890 0.20330 0.16580 0.06300
C 	C 	0.04150 0.18410 0.44300 0.03800
H 	H 	0.03470 0.15960 0.41770 0.01800
C 	C 	0.06610 0.19250 0.63300 -0.13000
H 	H 	0.07480 0.17380 0.74390 0.07300
N 	N 	0.25990 0.20580 0.99100 -0.32900
C 	C 	0.26470 0.17820 0.08700 0.10700
S 	S 	0.22766 0.35900 0.23570 -0.09300
N 	N 	0.29371 0.26067 0.57950 -0.29900
C 	C 	0.31330 0.23530 0.47100 0.09300
H 	H 	0.30880 0.21110 0.52320 -0.03300
C 	C 	0.34000 0.24140 0.28700 -0.18400
H 	H 	0.35290 0.22170 0.21190 0.08400
C 	C 	0.34820 0.27640 0.21030 0.11000
C 	C 	0.32790 0.30390 0.33100 -0.17400
H 	H 	0.33210 0.32850 0.28850 0.08300
C 	C 	0.30160 0.29420 0.51400 0.08500
H 	H 	0.28830 0.31300 0.59670 -0.02900
C 	C 	0.37480 0.28540 0.00860 -0.08900
H 	H 	0.37860 0.31040 0.97810 0.05600
C 	C 	0.39330 0.26430 0.87000 -0.06100
H 	H 	0.38900 0.23920 0.89520 0.04600
C 	C 	0.42140 0.27400 0.67000 0.08200
C 	C 	0.43640 0.24590 0.52000 -0.11700
H 	H 	0.42900 0.22170 0.55040 0.06400
C 	C 	0.46170 0.25330 0.32900 0.02100
H 	H 	0.47140 0.23460 0.22290 0.02200
C 	C 	0.47330 0.29060 0.29400 -0.10000
H 	H 	0.49110 0.29670 0.16580 0.06500
C 	C 	0.45850 0.31590 0.44300 0.03900
H 	H 	0.46530 0.34040 0.41770 0.01800
C 	C 	0.43390 0.30750 0.63300 -0.12900
H 	H 	0.42520 0.32620 0.74390 0.07300
N 	N 	0.24010 0.29420 0.99100 -0.32900
C 	C 	0.23530 0.32180 0.08700 0.10700
Zn	Zn	0.25000 0.25000 0.81060 1.17900
