data_crystal

_cell_length_a 10.66630
_cell_length_b 14.31400
_cell_length_c 14.57300
_cell_angle_alpha 85.40300
_cell_angle_beta  73.42100
_cell_angle_gamma 82.02000

_symmetry_space_group_name_	'P 1'
_symmetry_space_group_name_H-M	'P 1'

loop_
_symmetry_equiv_pos_as_xyz
  x,y,z

loop_
_atom_site_label
_atom_site_type_symbol
_atom_site_fract_x
_atom_site_fract_y
_atom_site_fract_z
_atom_site_charge
Co	Co	0.04386 0.23362 0.27813 1.11700
N 	N 	0.03240 0.36640 0.20030 -0.22900
N 	N 	0.20480 0.20940 0.15250 -0.23100
N 	N 	0.89510 0.18270 0.22980 -0.23000
N 	N 	0.05440 0.08890 0.33080 -0.23000
N 	N 	0.91000 0.28610 0.40890 -0.22700
N 	N 	0.17570 0.28170 0.34820 -0.22400
C 	C 	0.94700 0.44280 0.22560 0.04500
H 	H 	0.87930 0.44030 0.28320 -0.00100
C 	C 	0.95420 0.52760 0.16950 -0.07600
H 	H 	0.89230 0.58070 0.18910 0.05300
C 	C 	0.05310 0.53130 0.08580 -0.04200
H 	H 	0.05910 0.58750 0.04770 0.04500
C 	C 	0.14550 0.45230 0.05640 0.01100
C 	C 	0.25110 0.44930 0.97030 -0.05700
H 	H 	0.25890 0.50290 0.92830 0.04700
C 	C 	0.33920 0.37290 0.94720 -0.05400
H 	H 	0.40860 0.37420 0.89060 0.04500
C 	C 	0.32880 0.28840 0.00860 0.00500
C 	C 	0.42000 0.20730 0.99090 -0.03500
H 	H 	0.49320 0.20570 0.93650 0.03900
C 	C 	0.40240 0.13030 0.05290 -0.08600
H 	H 	0.46340 0.07540 0.04200 0.05300
C 	C 	0.29270 0.13450 0.13250 0.05200
H 	H 	0.28070 0.08090 0.17430 -0.00300
C 	C 	0.22330 0.28700 0.09160 0.01900
C 	C 	0.13010 0.37030 0.11670 0.01600
C 	C 	0.81680 0.22850 0.18190 0.05300
H 	H 	0.82660 0.29210 0.16370 -0.00300
C 	C 	0.71930 0.18870 0.15620 -0.08500
H 	H 	0.66660 0.22440 0.12100 0.05600
C 	C 	0.70310 0.09690 0.18370 -0.03700
H 	H 	0.63820 0.06840 0.16790 0.04000
C 	C 	0.78280 0.04550 0.23530 0.01000
C 	C 	0.77480 0.94750 0.26530 -0.05600
H 	H 	0.71140 0.91570 0.25140 0.04700
C 	C 	0.85760 0.90100 0.31300 -0.05800
H 	H 	0.85040 0.83710 0.33130 0.04900
C 	C 	0.95510 0.94450 0.33670 0.01100
C 	C 	0.04410 0.89960 0.38470 -0.04100
H 	H 	0.04260 0.83520 0.40280 0.04700
C 	C 	0.13340 0.94780 0.40600 -0.07400
H 	H 	0.19310 0.91730 0.43860 0.05500
C 	C 	0.13400 0.04490 0.37760 0.04900
H 	H 	0.19400 0.07880 0.39320 -0.00200
C 	C 	0.96500 0.04120 0.30870 0.01800
C 	C 	0.87930 0.09130 0.25750 0.01800
C 	C 	0.78110 0.28800 0.43800 0.04500
H 	H 	0.73960 0.25930 0.40070 -0.00000
C 	C 	0.70210 0.33090 0.52250 -0.07900
H 	H 	0.61040 0.32990 0.54140 0.05100
C 	C 	0.76160 0.37430 0.57670 -0.04400
H 	H 	0.71050 0.40500 0.63220 0.04300
C 	C 	0.89830 0.37240 0.54890 0.01400
C 	C 	0.96910 0.41490 0.60160 -0.05800
H 	H 	0.92190 0.44580 0.65800 0.05100
C 	C 	0.10080 0.41150 0.57250 -0.05300
H 	H 	0.14410 0.43850 0.60980 0.04500
C 	C 	0.17700 0.36740 0.48540 0.00900
C 	C 	0.31400 0.36440 0.45070 -0.03900
H 	H 	0.36140 0.39190 0.48470 0.03900
C 	C 	0.37800 0.32130 0.36740 -0.08000
H 	H 	0.47000 0.31910 0.34290 0.05300
C 	C 	0.30530 0.28010 0.31860 0.04800
H 	H 	0.35110 0.24970 0.26160 0.00300
C 	C 	0.11100 0.32500 0.43110 0.01700
C 	C 	0.96970 0.32750 0.46380 0.01500
Co	Co	0.95614 0.76638 0.72187 1.11800
N 	N 	0.96760 0.63360 0.79970 -0.22800
N 	N 	0.79520 0.79060 0.84750 -0.23100
N 	N 	0.10490 0.81730 0.77020 -0.23000
N 	N 	0.94560 0.91110 0.66920 -0.23000
N 	N 	0.09000 0.71390 0.59110 -0.22700
N 	N 	0.82430 0.71830 0.65180 -0.22400
C 	C 	0.05300 0.55720 0.77440 0.04500
H 	H 	0.12070 0.55970 0.71680 -0.00100
C 	C 	0.04580 0.47240 0.83050 -0.07600
H 	H 	0.10770 0.41930 0.81090 0.05300
C 	C 	0.94690 0.46870 0.91420 -0.04200
H 	H 	0.94090 0.41250 0.95230 0.04500
C 	C 	0.85450 0.54770 0.94360 0.01100
C 	C 	0.74890 0.55070 0.02970 -0.05700
H 	H 	0.74110 0.49710 0.07170 0.04700
C 	C 	0.66080 0.62710 0.05280 -0.05400
H 	H 	0.59140 0.62580 0.10940 0.04500
C 	C 	0.67120 0.71160 0.99140 0.00500
C 	C 	0.58000 0.79270 0.00910 -0.03500
H 	H 	0.50680 0.79430 0.06350 0.03900
C 	C 	0.59760 0.86970 0.94710 -0.08600
H 	H 	0.53660 0.92460 0.95800 0.05300
C 	C 	0.70730 0.86550 0.86750 0.05200
H 	H 	0.71930 0.91910 0.82570 -0.00300
C 	C 	0.77670 0.71300 0.90840 0.01900
C 	C 	0.86990 0.62970 0.88330 0.01600
C 	C 	0.18320 0.77150 0.81810 0.05300
H 	H 	0.17340 0.70790 0.83630 -0.00300
C 	C 	0.28070 0.81130 0.84380 -0.08500
H 	H 	0.33340 0.77560 0.87900 0.05600
C 	C 	0.29690 0.90310 0.81630 -0.03700
H 	H 	0.36180 0.93160 0.83210 0.04000
C 	C 	0.21720 0.95450 0.76470 0.01000
C 	C 	0.22520 0.05250 0.73470 -0.05600
H 	H 	0.28860 0.08430 0.74860 0.04700
C 	C 	0.14240 0.09900 0.68700 -0.05800
H 	H 	0.14960 0.16290 0.66870 0.04900
C 	C 	0.04490 0.05550 0.66330 0.01100
C 	C 	0.95590 0.10040 0.61530 -0.04100
H 	H 	0.95740 0.16480 0.59720 0.04700
C 	C 	0.86660 0.05220 0.59400 -0.07400
H 	H 	0.80690 0.08270 0.56140 0.05500
C 	C 	0.86600 0.95510 0.62240 0.04900
H 	H 	0.80600 0.92120 0.60680 -0.00200
C 	C 	0.03500 0.95880 0.69130 0.01800
C 	C 	0.12070 0.90870 0.74250 0.01800
C 	C 	0.21890 0.71200 0.56200 0.04500
H 	H 	0.26040 0.74070 0.59930 -0.00000
C 	C 	0.29790 0.66910 0.47750 -0.07900
H 	H 	0.38960 0.67010 0.45860 0.05100
C 	C 	0.23840 0.62570 0.42330 -0.04400
H 	H 	0.28950 0.59500 0.36780 0.04300
C 	C 	0.10170 0.62760 0.45110 0.01400
C 	C 	0.03090 0.58510 0.39840 -0.05800
H 	H 	0.07810 0.55420 0.34200 0.05100
C 	C 	0.89920 0.58850 0.42750 -0.05300
H 	H 	0.85590 0.56150 0.39020 0.04500
C 	C 	0.82300 0.63260 0.51460 0.00900
C 	C 	0.68600 0.63560 0.54930 -0.03900
H 	H 	0.63860 0.60810 0.51530 0.03900
C 	C 	0.62200 0.67870 0.63260 -0.08000
H 	H 	0.53000 0.68090 0.65710 0.05300
C 	C 	0.69470 0.71990 0.68140 0.04800
H 	H 	0.64890 0.75030 0.73840 0.00300
C 	C 	0.88900 0.67500 0.56890 0.01700
C 	C 	0.03030 0.67250 0.53620 0.01500
