data_crystal

_cell_length_a 14.64800
_cell_length_b 12.40060
_cell_length_c 16.60620
_cell_angle_alpha 90.00000
_cell_angle_beta  90.00000
_cell_angle_gamma 90.00000

_symmetry_space_group_name_	'P 1'
_symmetry_space_group_name_H-M	'P 1'

loop_
_symmetry_equiv_pos_as_xyz
  x,y,z

loop_
_atom_site_label
_atom_site_type_symbol
_atom_site_fract_x
_atom_site_fract_y
_atom_site_fract_z
_atom_site_charge
Mn	Mn	0.60520 0.48195 0.57808 1.30500
O 	O 	0.70980 0.48030 0.48340 -0.39000
O 	O 	0.70010 0.62990 0.55080 -0.34700
O 	O 	0.59520 0.34430 0.66550 -0.35800
O 	O 	0.49900 0.58020 0.62620 -0.40700
C 	C 	0.34910 0.78170 0.54050 0.04900
H 	H 	0.34580 0.75610 0.48790 0.03600
O 	O 	0.52320 0.38050 0.50250 -0.45500
C 	C 	0.73290 0.57530 0.49490 0.32300
C 	C 	0.69500 0.41090 0.85930 0.03500
H 	H 	0.72560 0.47370 0.84500 0.06100
C 	C 	0.63720 0.39950 0.71730 0.31000
C 	C 	0.70230 0.37160 0.93730 -0.08900
C 	C 	0.46330 0.63620 0.57100 0.35700
O 	O 	0.67420 0.48600 0.70070 -0.35600
C 	C 	0.59290 0.26740 0.82520 0.04500
H 	H 	0.55790 0.23160 0.78690 0.05900
C 	C 	0.40540 0.72960 0.59610 -0.10100
C 	C 	0.64270 0.35770 0.80300 -0.07600
Mn	Mn	0.89480 0.51805 0.07808 1.30400
O 	O 	0.79020 0.51970 0.98340 -0.39300
O 	O 	0.79990 0.37010 0.05080 -0.35000
O 	O 	0.90480 0.65570 0.16550 -0.35800
O 	O 	0.00100 0.41980 0.12620 -0.40600
C 	C 	0.15090 0.21830 0.04050 0.03600
H 	H 	0.15420 0.24390 0.98790 0.04300
O 	O 	0.97680 0.61950 0.00250 -0.45400
C 	C 	0.76710 0.42470 0.99490 0.32800
C 	C 	0.80500 0.58910 0.35930 0.03000
H 	H 	0.77440 0.52630 0.34500 0.06200
C 	C 	0.86280 0.60050 0.21730 0.30800
C 	C 	0.79770 0.62840 0.43730 -0.08300
C 	C 	0.03670 0.36380 0.07100 0.35300
O 	O 	0.82580 0.51400 0.20070 -0.35600
C 	C 	0.90710 0.73260 0.32520 0.04000
H 	H 	0.94210 0.76840 0.28690 0.06100
C 	C 	0.09460 0.27040 0.09610 -0.09500
C 	C 	0.85730 0.64230 0.30300 -0.07300
Mn	Mn	0.39480 0.98195 0.92192 1.30200
O 	O 	0.29020 0.98030 0.01660 -0.38000
O 	O 	0.29990 0.12990 0.94920 -0.33700
O 	O 	0.40480 0.84430 0.83450 -0.35900
O 	O 	0.50100 0.08020 0.87380 -0.40600
C 	C 	0.65090 0.28170 0.95950 0.06100
H 	H 	0.65420 0.25610 0.01210 0.03000
O 	O 	0.47680 0.88050 0.99750 -0.46200
C 	C 	0.26710 0.07530 0.00510 0.30400
C 	C 	0.30500 0.91090 0.64070 0.03100
H 	H 	0.27440 0.97370 0.65500 0.06200
C 	C 	0.36280 0.89950 0.78270 0.30900
C 	C 	0.29770 0.87160 0.56270 -0.08300
C 	C 	0.53670 0.13620 0.92900 0.36600
O 	O 	0.32580 0.98600 0.79930 -0.35700
C 	C 	0.40710 0.76740 0.67480 0.04100
H 	H 	0.44210 0.73160 0.71310 0.06000
C 	C 	0.59460 0.22960 0.90390 -0.10800
C 	C 	0.35730 0.85770 0.69700 -0.07400
Mn	Mn	0.10520 0.01805 0.42192 1.30400
O 	O 	0.20980 0.01970 0.51660 -0.39100
O 	O 	0.20010 0.87010 0.44920 -0.34600
O 	O 	0.09520 0.15570 0.33450 -0.35800
O 	O 	0.99900 0.91980 0.37380 -0.40600
C 	C 	0.84910 0.71830 0.45950 0.04900
H 	H 	0.84580 0.74390 0.51210 0.03600
O 	O 	0.02320 0.11950 0.49750 -0.45600
C 	C 	0.23290 0.92470 0.50510 0.32300
C 	C 	0.19500 0.08910 0.14070 0.02300
H 	H 	0.22560 0.02630 0.15500 0.06300
C 	C 	0.13720 0.10050 0.28270 0.30700
C 	C 	0.20230 0.12840 0.06270 -0.07300
C 	C 	0.96330 0.86380 0.42900 0.35700
O 	O 	0.17420 0.01400 0.29930 -0.35600
C 	C 	0.09290 0.23260 0.17480 0.03500
H 	H 	0.05790 0.26840 0.21310 0.06200
C 	C 	0.90540 0.77040 0.40390 -0.10100
C 	C 	0.14270 0.14230 0.19700 -0.06900
Mn	Mn	0.39480 0.51805 0.42192 1.30400
O 	O 	0.29020 0.51970 0.51660 -0.39100
O 	O 	0.29990 0.37010 0.44920 -0.34700
O 	O 	0.40480 0.65570 0.33450 -0.35800
O 	O 	0.50100 0.41980 0.37380 -0.40700
C 	C 	0.65090 0.21830 0.45950 0.04900
H 	H 	0.65420 0.24390 0.51210 0.03600
O 	O 	0.47680 0.61950 0.49750 -0.45500
C 	C 	0.26710 0.42470 0.50510 0.32300
C 	C 	0.30500 0.58910 0.14070 0.03500
H 	H 	0.27440 0.52630 0.15500 0.06100
C 	C 	0.36280 0.60050 0.28270 0.31000
C 	C 	0.29770 0.62840 0.06270 -0.08900
C 	C 	0.53670 0.36380 0.42900 0.35700
O 	O 	0.32580 0.51400 0.29930 -0.35600
C 	C 	0.40710 0.73260 0.17480 0.04500
H 	H 	0.44210 0.76840 0.21310 0.05900
C 	C 	0.59460 0.27040 0.40390 -0.10100
C 	C 	0.35730 0.64230 0.19700 -0.07600
Mn	Mn	0.10520 0.48195 0.92192 1.30400
O 	O 	0.20980 0.48030 0.01660 -0.39300
O 	O 	0.20010 0.62990 0.94920 -0.35000
O 	O 	0.09520 0.34430 0.83450 -0.35800
O 	O 	0.99900 0.58020 0.87380 -0.40600
C 	C 	0.84910 0.78170 0.95950 0.03600
H 	H 	0.84580 0.75610 0.01210 0.04300
O 	O 	0.02320 0.38050 0.99750 -0.45400
C 	C 	0.23290 0.57530 0.00510 0.32800
C 	C 	0.19500 0.41090 0.64070 0.03000
H 	H 	0.22560 0.47370 0.65500 0.06200
C 	C 	0.13720 0.39950 0.78270 0.30800
C 	C 	0.20230 0.37160 0.56270 -0.08300
C 	C 	0.96330 0.63620 0.92900 0.35300
O 	O 	0.17420 0.48600 0.79930 -0.35600
C 	C 	0.09290 0.26740 0.67480 0.04000
H 	H 	0.05790 0.23160 0.71310 0.06100
C 	C 	0.90540 0.72960 0.90390 -0.09500
C 	C 	0.14270 0.35770 0.69700 -0.07300
Mn	Mn	0.60520 0.01805 0.07808 1.30200
O 	O 	0.70980 0.01970 0.98340 -0.38000
O 	O 	0.70010 0.87010 0.05080 -0.33700
O 	O 	0.59520 0.15570 0.16550 -0.35900
O 	O 	0.49900 0.91980 0.12620 -0.40600
C 	C 	0.34910 0.71830 0.04050 0.06100
H 	H 	0.34580 0.74390 0.98790 0.03000
O 	O 	0.52320 0.11950 0.00250 -0.46200
C 	C 	0.73290 0.92470 0.99490 0.30400
C 	C 	0.69500 0.08910 0.35930 0.03100
H 	H 	0.72560 0.02630 0.34500 0.06200
C 	C 	0.63720 0.10050 0.21730 0.30900
C 	C 	0.70230 0.12840 0.43730 -0.08300
C 	C 	0.46330 0.86380 0.07100 0.36600
O 	O 	0.67420 0.01400 0.20070 -0.35700
C 	C 	0.59290 0.23260 0.32520 0.04100
H 	H 	0.55790 0.26840 0.28690 0.06000
C 	C 	0.40540 0.77040 0.09610 -0.10800
C 	C 	0.64270 0.14230 0.30300 -0.07400
Mn	Mn	0.89480 0.98195 0.57808 1.30400
O 	O 	0.79020 0.98030 0.48340 -0.39100
O 	O 	0.79990 0.12990 0.55080 -0.34600
O 	O 	0.90480 0.84430 0.66550 -0.35800
O 	O 	0.00100 0.08020 0.62620 -0.40600
C 	C 	0.15090 0.28170 0.54050 0.04900
H 	H 	0.15420 0.25610 0.48790 0.03600
O 	O 	0.97680 0.88050 0.50250 -0.45600
C 	C 	0.76710 0.07530 0.49490 0.32300
C 	C 	0.80500 0.91090 0.85930 0.02300
H 	H 	0.77440 0.97370 0.84500 0.06300
C 	C 	0.86280 0.89950 0.71730 0.30700
C 	C 	0.79770 0.87160 0.93730 -0.07300
C 	C 	0.03670 0.13620 0.57100 0.35700
O 	O 	0.82580 0.98600 0.70070 -0.35600
C 	C 	0.90710 0.76740 0.82520 0.03500
H 	H 	0.94210 0.73160 0.78690 0.06200
C 	C 	0.09460 0.22960 0.59610 -0.10100
C 	C 	0.85730 0.85770 0.80300 -0.06900
