data_crystal

_cell_length_a 16.40830
_cell_length_b 17.63900
_cell_length_c 21.66040
_cell_angle_alpha 90.00000
_cell_angle_beta  94.47700
_cell_angle_gamma 90.00000

_symmetry_space_group_name_	'P 1'
_symmetry_space_group_name_H-M	'P 1'

loop_
_symmetry_equiv_pos_as_xyz
  x,y,z

loop_
_atom_site_label
_atom_site_type_symbol
_atom_site_fract_x
_atom_site_fract_y
_atom_site_fract_z
_atom_site_charge
C 	C 	0.96850 0.62380 0.64414 0.08200
C 	C 	0.95840 0.70270 0.64602 -0.12100
H 	H 	0.98290 0.73330 0.61780 0.05200
C 	C 	0.91270 0.73480 0.68920 0.01000
H 	H 	0.90660 0.78720 0.69020 0.02800
C 	C 	0.87480 0.68970 0.73216 -0.06200
H 	H 	0.84390 0.71260 0.76120 0.05100
C 	C 	0.88290 0.61230 0.73161 -0.04500
H 	H 	0.85740 0.58290 0.76010 0.04600
C 	C 	0.93030 0.57680 0.68752 -0.00200
C 	C 	0.94170 0.49760 0.68532 -0.04800
H 	H 	0.91610 0.46600 0.71230 0.04700
C 	C 	0.99060 0.46770 0.64322 -0.04600
H 	H 	0.00000 0.41580 0.64170 0.04900
C 	C 	0.02670 0.51770 0.60201 0.00600
C 	C 	0.07940 0.49220 0.55591 0.12700
C 	C 	0.15190 0.42290 0.50228 0.15700
C 	C 	0.25040 0.37090 0.41701 -0.14700
H 	H 	0.21470 0.39330 0.38420 0.08100
H 	H 	0.29050 0.40840 0.43200 0.08400
C 	C 	0.29240 0.30090 0.39380 -0.04100
H 	H 	0.32490 0.27790 0.42820 0.05700
H 	H 	0.25100 0.26450 0.37920 0.04600
C 	C 	0.34690 0.31680 0.34240 -0.14300
H 	H 	0.31430 0.34040 0.30840 0.07300
H 	H 	0.36670 0.26890 0.32750 0.07500
C 	C 	0.48770 0.31780 0.41623 0.16100
C 	C 	0.58190 0.29070 0.48572 0.13300
C 	C 	0.65370 0.29450 0.52948 0.01600
C 	C 	0.70300 0.35950 0.53870 -0.05700
H 	H 	0.69070 0.40410 0.51700 0.06200
C 	C 	0.76960 0.35490 0.58060 -0.06000
H 	H 	0.80320 0.39690 0.58800 0.04800
C 	C 	0.78730 0.28670 0.61261 -0.00400
C 	C 	0.85580 0.27750 0.65626 -0.04600
H 	H 	0.89020 0.31850 0.66580 0.04500
C 	C 	0.87170 0.20930 0.68438 -0.05300
H 	H 	0.91730 0.20390 0.71240 0.04800
C 	C 	0.81920 0.14640 0.67110 0.00600
H 	H 	0.83080 0.10000 0.69020 0.02900
C 	C 	0.75180 0.15390 0.63057 -0.11600
H 	H 	0.71700 0.11280 0.62280 0.04700
C 	C 	0.73440 0.22370 0.60031 0.07500
Cu	Cu	0.08010 0.64655 0.53552 0.85400
N 	N 	0.01596 0.59258 0.60146 -0.22000
N 	N 	0.11272 0.53696 0.51713 -0.20400
N 	N 	0.16100 0.49120 0.48135 -0.11400
N 	N 	0.53763 0.23046 0.47625 -0.20200
N 	N 	0.47450 0.24780 0.43043 -0.10800
N 	N 	0.66716 0.22884 0.55879 -0.22000
O 	O 	0.10084 0.41860 0.54919 -0.25000
O 	O 	0.55465 0.34928 0.44887 -0.23000
S 	S 	0.19173 0.33790 0.47979 -0.02300
S 	S 	0.43429 0.37731 0.36357 -0.01900
C 	C 	0.46850 0.12380 0.64414 0.07900
C 	C 	0.45840 0.20270 0.64602 -0.12200
H 	H 	0.48290 0.23330 0.61780 0.05000
C 	C 	0.41270 0.23480 0.68920 0.00900
H 	H 	0.40660 0.28720 0.69020 0.02700
C 	C 	0.37480 0.18970 0.73216 -0.06400
H 	H 	0.34390 0.21260 0.76120 0.05000
C 	C 	0.38290 0.11230 0.73161 -0.04500
H 	H 	0.35740 0.08290 0.76010 0.04400
C 	C 	0.43030 0.07680 0.68752 -0.00600
C 	C 	0.44170 0.99760 0.68532 -0.04200
H 	H 	0.41610 0.96600 0.71230 0.04300
C 	C 	0.49060 0.96770 0.64322 -0.06100
H 	H 	0.50000 0.91580 0.64170 0.05600
C 	C 	0.52670 0.01770 0.60201 0.01400
C 	C 	0.57940 0.99220 0.55591 0.12500
C 	C 	0.65190 0.92290 0.50228 0.15700
C 	C 	0.75040 0.87090 0.41701 -0.14700
H 	H 	0.71470 0.89330 0.38420 0.08200
H 	H 	0.79050 0.90840 0.43200 0.08400
C 	C 	0.79240 0.80090 0.39380 -0.04100
H 	H 	0.82490 0.77790 0.42820 0.05700
H 	H 	0.75100 0.76450 0.37920 0.04600
C 	C 	0.84690 0.81680 0.34240 -0.14400
H 	H 	0.81430 0.84040 0.30840 0.07300
H 	H 	0.86670 0.76890 0.32750 0.07500
C 	C 	0.98770 0.81780 0.41623 0.16400
C 	C 	0.08190 0.79070 0.48572 0.13300
C 	C 	0.15370 0.79450 0.52948 0.01600
C 	C 	0.20300 0.85950 0.53870 -0.05700
H 	H 	0.19070 0.90410 0.51700 0.06200
C 	C 	0.26960 0.85490 0.58060 -0.06000
H 	H 	0.30320 0.89690 0.58800 0.04800
C 	C 	0.28730 0.78670 0.61261 -0.00400
C 	C 	0.35580 0.77750 0.65626 -0.04600
H 	H 	0.39020 0.81850 0.66580 0.04400
C 	C 	0.37170 0.70930 0.68438 -0.05300
H 	H 	0.41730 0.70390 0.71240 0.04700
C 	C 	0.31920 0.64640 0.67110 0.00500
H 	H 	0.33080 0.60000 0.69020 0.02900
C 	C 	0.25180 0.65390 0.63057 -0.11600
H 	H 	0.21700 0.61280 0.62280 0.04700
C 	C 	0.23440 0.72370 0.60031 0.07500
Cu	Cu	0.58010 0.14655 0.53552 0.85400
N 	N 	0.51596 0.09258 0.60146 -0.21900
N 	N 	0.61272 0.03696 0.51713 -0.20300
N 	N 	0.66100 0.99120 0.48135 -0.11300
N 	N 	0.03763 0.73046 0.47625 -0.20400
N 	N 	0.97450 0.74780 0.43043 -0.10700
N 	N 	0.16716 0.72884 0.55879 -0.22000
O 	O 	0.60084 0.91860 0.54919 -0.24900
O 	O 	0.05465 0.84928 0.44887 -0.23300
S 	S 	0.69173 0.83790 0.47979 -0.02300
S 	S 	0.93429 0.87731 0.36357 -0.01800
C 	C 	0.03150 0.62380 0.85586 0.07700
C 	C 	0.04160 0.70270 0.85398 -0.12100
H 	H 	0.01710 0.73330 0.88220 0.04900
C 	C 	0.08730 0.73480 0.81080 0.00800
H 	H 	0.09340 0.78720 0.80980 0.02700
C 	C 	0.12520 0.68970 0.76784 -0.06400
H 	H 	0.15610 0.71260 0.73880 0.04900
C 	C 	0.11710 0.61230 0.76839 -0.04500
H 	H 	0.14260 0.58290 0.73990 0.04400
C 	C 	0.06970 0.57680 0.81248 -0.00600
C 	C 	0.05830 0.49760 0.81468 -0.04000
H 	H 	0.08390 0.46600 0.78770 0.04300
C 	C 	0.00940 0.46770 0.85678 -0.06500
H 	H 	-0.00000 0.41580 0.85830 0.05600
C 	C 	0.97330 0.51770 0.89799 0.01700
C 	C 	0.92060 0.49220 0.94409 0.12500
C 	C 	0.84810 0.42290 0.99772 0.15500
C 	C 	0.74960 0.37090 0.08299 -0.14700
H 	H 	0.78530 0.39330 0.11580 0.08200
H 	H 	0.70950 0.40840 0.06800 0.08400
C 	C 	0.70760 0.30090 0.10620 -0.04100
H 	H 	0.67510 0.27790 0.07180 0.05700
H 	H 	0.74900 0.26450 0.12080 0.04600
C 	C 	0.65310 0.31680 0.15760 -0.14300
H 	H 	0.68570 0.34040 0.19160 0.07300
H 	H 	0.63330 0.26890 0.17250 0.07500
C 	C 	0.51230 0.31780 0.08377 0.16100
C 	C 	0.41810 0.29070 0.01428 0.13200
C 	C 	0.34630 0.29450 0.97052 0.01700
C 	C 	0.29700 0.35950 0.96130 -0.05700
H 	H 	0.30930 0.40410 0.98300 0.06200
C 	C 	0.23040 0.35490 0.91940 -0.05900
H 	H 	0.19680 0.39690 0.91200 0.04800
C 	C 	0.21270 0.28670 0.88739 -0.00400
C 	C 	0.14420 0.27750 0.84374 -0.04600
H 	H 	0.10980 0.31850 0.83420 0.04400
C 	C 	0.12830 0.20930 0.81562 -0.05300
H 	H 	0.08270 0.20390 0.78760 0.04700
C 	C 	0.18080 0.14640 0.82890 0.00500
H 	H 	0.16920 0.10000 0.80980 0.02900
C 	C 	0.24820 0.15390 0.86943 -0.11600
H 	H 	0.28300 0.11280 0.87720 0.04700
C 	C 	0.26560 0.22370 0.89969 0.07500
Cu	Cu	0.91990 0.64655 0.96448 0.85400
N 	N 	0.98404 0.59258 0.89854 -0.21800
N 	N 	0.88728 0.53696 0.98287 -0.20300
N 	N 	0.83900 0.49120 0.01865 -0.11200
N 	N 	0.46237 0.23046 0.02375 -0.20200
N 	N 	0.52550 0.24780 0.06957 -0.10800
N 	N 	0.33284 0.22884 0.94121 -0.22000
O 	O 	0.89916 0.41860 0.95081 -0.24800
O 	O 	0.44535 0.34928 0.05113 -0.23000
S 	S 	0.80827 0.33790 0.02021 -0.02100
S 	S 	0.56571 0.37731 0.13643 -0.01900
C 	C 	0.53150 0.12380 0.85586 0.07900
C 	C 	0.54160 0.20270 0.85398 -0.12200
H 	H 	0.51710 0.23330 0.88220 0.05000
C 	C 	0.58730 0.23480 0.81080 0.00900
H 	H 	0.59340 0.28720 0.80980 0.02700
C 	C 	0.62520 0.18970 0.76784 -0.06400
H 	H 	0.65610 0.21260 0.73880 0.05000
C 	C 	0.61710 0.11230 0.76839 -0.04500
H 	H 	0.64260 0.08290 0.73990 0.04400
C 	C 	0.56970 0.07680 0.81248 -0.00600
C 	C 	0.55830 0.99760 0.81468 -0.04200
H 	H 	0.58390 0.96600 0.78770 0.04300
C 	C 	0.50940 0.96770 0.85678 -0.06100
H 	H 	0.50000 0.91580 0.85830 0.05600
C 	C 	0.47330 0.01770 0.89799 0.01400
C 	C 	0.42060 0.99220 0.94409 0.12400
C 	C 	0.34810 0.92290 0.99772 0.15700
C 	C 	0.24960 0.87090 0.08299 -0.14600
H 	H 	0.28530 0.89330 0.11580 0.08100
H 	H 	0.20950 0.90840 0.06800 0.08300
C 	C 	0.20760 0.80090 0.10620 -0.04200
H 	H 	0.17510 0.77790 0.07180 0.05700
H 	H 	0.24900 0.76450 0.12080 0.04600
C 	C 	0.15310 0.81680 0.15760 -0.14300
H 	H 	0.18570 0.84040 0.19160 0.07300
H 	H 	0.13330 0.76890 0.17250 0.07400
C 	C 	0.01230 0.81780 0.08377 0.15700
C 	C 	0.91810 0.79070 0.01428 0.13400
C 	C 	0.84630 0.79450 0.97052 0.01500
C 	C 	0.79700 0.85950 0.96130 -0.05700
H 	H 	0.80930 0.90410 0.98300 0.06100
C 	C 	0.73040 0.85490 0.91940 -0.06000
H 	H 	0.69680 0.89690 0.91200 0.04800
C 	C 	0.71270 0.78670 0.88739 -0.00400
C 	C 	0.64420 0.77750 0.84374 -0.04600
H 	H 	0.60980 0.81850 0.83420 0.04400
C 	C 	0.62830 0.70930 0.81562 -0.05300
H 	H 	0.58270 0.70390 0.78760 0.04700
C 	C 	0.68080 0.64640 0.82890 0.00500
H 	H 	0.66920 0.60000 0.80980 0.02900
C 	C 	0.74820 0.65390 0.86943 -0.11600
H 	H 	0.78300 0.61280 0.87720 0.04700
C 	C 	0.76560 0.72370 0.89969 0.07500
Cu	Cu	0.41990 0.14655 0.96448 0.85400
N 	N 	0.48404 0.09258 0.89854 -0.21900
N 	N 	0.38728 0.03696 0.98287 -0.20300
N 	N 	0.33900 0.99120 0.01865 -0.11400
N 	N 	0.96237 0.73046 0.02375 -0.20000
N 	N 	0.02550 0.74780 0.06957 -0.10900
N 	N 	0.83284 0.72884 0.94121 -0.22000
O 	O 	0.39916 0.91860 0.95081 -0.24900
O 	O 	0.94535 0.84928 0.05113 -0.22600
S 	S 	0.30827 0.83790 0.02021 -0.02300
S 	S 	0.06571 0.87731 0.13643 -0.02100
C 	C 	0.03150 0.37620 0.35586 0.07600
C 	C 	0.04160 0.29730 0.35398 -0.12100
H 	H 	0.01710 0.26670 0.38220 0.04900
C 	C 	0.08730 0.26520 0.31080 0.00700
H 	H 	0.09340 0.21280 0.30980 0.02700
C 	C 	0.12520 0.31030 0.26784 -0.06400
H 	H 	0.15610 0.28740 0.23880 0.04900
C 	C 	0.11710 0.38770 0.26839 -0.04600
H 	H 	0.14260 0.41710 0.23990 0.04400
C 	C 	0.06970 0.42320 0.31248 -0.00600
C 	C 	0.05830 0.50240 0.31468 -0.04000
H 	H 	0.08390 0.53400 0.28770 0.04200
C 	C 	0.00940 0.53230 0.35678 -0.06700
H 	H 	0.00000 0.58420 0.35830 0.05700
C 	C 	0.97330 0.48230 0.39799 0.01900
C 	C 	0.92060 0.50780 0.44409 0.12400
C 	C 	0.84810 0.57710 0.49772 0.15700
C 	C 	0.74960 0.62910 0.58299 -0.14700
H 	H 	0.78530 0.60670 0.61580 0.08100
H 	H 	0.70950 0.59160 0.56800 0.08400
C 	C 	0.70760 0.69910 0.60620 -0.04100
H 	H 	0.67510 0.72210 0.57180 0.05700
H 	H 	0.74900 0.73550 0.62080 0.04600
C 	C 	0.65310 0.68320 0.65760 -0.14300
H 	H 	0.68570 0.65960 0.69160 0.07300
H 	H 	0.63330 0.73110 0.67250 0.07500
C 	C 	0.51230 0.68220 0.58377 0.16100
C 	C 	0.41810 0.70930 0.51428 0.13300
C 	C 	0.34630 0.70550 0.47052 0.01600
C 	C 	0.29700 0.64050 0.46130 -0.05700
H 	H 	0.30930 0.59590 0.48300 0.06200
C 	C 	0.23040 0.64510 0.41940 -0.06000
H 	H 	0.19680 0.60310 0.41200 0.04800
C 	C 	0.21270 0.71330 0.38739 -0.00400
C 	C 	0.14420 0.72250 0.34374 -0.04600
H 	H 	0.10980 0.68150 0.33420 0.04400
C 	C 	0.12830 0.79070 0.31562 -0.05300
H 	H 	0.08270 0.79610 0.28760 0.04600
C 	C 	0.18080 0.85360 0.32890 0.00500
H 	H 	0.16920 0.90000 0.30980 0.02900
C 	C 	0.24820 0.84610 0.36943 -0.11600
H 	H 	0.28300 0.88720 0.37720 0.04700
C 	C 	0.26560 0.77630 0.39969 0.07500
Cu	Cu	0.91990 0.35345 0.46448 0.85500
N 	N 	0.98404 0.40742 0.39854 -0.21800
N 	N 	0.88728 0.46304 0.48287 -0.20300
N 	N 	0.83900 0.50880 0.51865 -0.11300
N 	N 	0.46237 0.76954 0.52375 -0.20200
N 	N 	0.52550 0.75220 0.56957 -0.10800
N 	N 	0.33284 0.77116 0.44121 -0.22000
O 	O 	0.89916 0.58140 0.45081 -0.24800
O 	O 	0.44535 0.65072 0.55113 -0.23000
S 	S 	0.80827 0.66210 0.52021 -0.02200
S 	S 	0.56571 0.62269 0.63643 -0.01900
C 	C 	0.53150 0.87620 0.35586 0.07900
C 	C 	0.54160 0.79730 0.35398 -0.12200
H 	H 	0.51710 0.76670 0.38220 0.05000
C 	C 	0.58730 0.76520 0.31080 0.00900
H 	H 	0.59340 0.71280 0.30980 0.02700
C 	C 	0.62520 0.81030 0.26784 -0.06400
H 	H 	0.65610 0.78740 0.23880 0.05000
C 	C 	0.61710 0.88770 0.26839 -0.04500
H 	H 	0.64260 0.91710 0.23990 0.04400
C 	C 	0.56970 0.92320 0.31248 -0.00500
C 	C 	0.55830 0.00240 0.31468 -0.04200
H 	H 	0.58390 0.03400 0.28770 0.04400
C 	C 	0.50940 0.03230 0.35678 -0.06100
H 	H 	0.50000 0.08420 0.35830 0.05600
C 	C 	0.47330 0.98230 0.39799 0.01300
C 	C 	0.42060 0.00780 0.44409 0.12500
C 	C 	0.34810 0.07710 0.49772 0.15700
C 	C 	0.24960 0.12910 0.58299 -0.14600
H 	H 	0.28530 0.10670 0.61580 0.08100
H 	H 	0.20950 0.09160 0.56800 0.08300
C 	C 	0.20760 0.19910 0.60620 -0.04200
H 	H 	0.17510 0.22210 0.57180 0.05700
H 	H 	0.24900 0.23550 0.62080 0.04600
C 	C 	0.15310 0.18320 0.65760 -0.14300
H 	H 	0.18570 0.15960 0.69160 0.07300
H 	H 	0.13330 0.23110 0.67250 0.07500
C 	C 	0.01230 0.18220 0.58377 0.15800
C 	C 	0.91810 0.20930 0.51428 0.13300
C 	C 	0.84630 0.20550 0.47052 0.01700
C 	C 	0.79700 0.14050 0.46130 -0.05700
H 	H 	0.80930 0.09590 0.48300 0.06200
C 	C 	0.73040 0.14510 0.41940 -0.05900
H 	H 	0.69680 0.10310 0.41200 0.04800
C 	C 	0.71270 0.21330 0.38739 -0.00400
C 	C 	0.64420 0.22250 0.34374 -0.04600
H 	H 	0.60980 0.18150 0.33420 0.04400
C 	C 	0.62830 0.29070 0.31562 -0.05300
H 	H 	0.58270 0.29610 0.28760 0.04700
C 	C 	0.68080 0.35360 0.32890 0.00600
H 	H 	0.66920 0.40000 0.30980 0.02900
C 	C 	0.74820 0.34610 0.36943 -0.11600
H 	H 	0.78300 0.38720 0.37720 0.04700
C 	C 	0.76560 0.27630 0.39969 0.07600
Cu	Cu	0.41990 0.85345 0.46448 0.85400
N 	N 	0.48404 0.90742 0.39854 -0.21900
N 	N 	0.38728 0.96304 0.48287 -0.20300
N 	N 	0.33900 0.00880 0.51865 -0.11300
N 	N 	0.96237 0.26954 0.52375 -0.20100
N 	N 	0.02550 0.25220 0.56957 -0.10900
N 	N 	0.83284 0.27116 0.44121 -0.22000
O 	O 	0.39916 0.08140 0.45081 -0.24900
O 	O 	0.94535 0.15072 0.55113 -0.22700
S 	S 	0.30827 0.16210 0.52021 -0.02300
S 	S 	0.06571 0.12269 0.63643 -0.02100
C 	C 	0.96850 0.37620 0.14414 0.08100
C 	C 	0.95840 0.29730 0.14602 -0.12200
H 	H 	0.98290 0.26670 0.11780 0.05200
C 	C 	0.91270 0.26520 0.18920 0.00800
H 	H 	0.90660 0.21280 0.19020 0.02800
C 	C 	0.87480 0.31030 0.23216 -0.06200
H 	H 	0.84390 0.28740 0.26120 0.04900
C 	C 	0.88290 0.38770 0.23161 -0.04700
H 	H 	0.85740 0.41710 0.26010 0.04500
C 	C 	0.93030 0.42320 0.18752 -0.00100
C 	C 	0.94170 0.50240 0.18532 -0.05200
H 	H 	0.91610 0.53400 0.21230 0.04800
C 	C 	0.99060 0.53230 0.14322 -0.04000
H 	H 	0.00000 0.58420 0.14170 0.04600
C 	C 	0.02670 0.48230 0.10201 0.00300
C 	C 	0.07940 0.50780 0.05591 0.12800
C 	C 	0.15190 0.57710 0.00228 0.15500
C 	C 	0.25040 0.62910 0.91701 -0.14700
H 	H 	0.21470 0.60670 0.88420 0.08200
H 	H 	0.29050 0.59160 0.93200 0.08400
C 	C 	0.29240 0.69910 0.89380 -0.04100
H 	H 	0.32490 0.72210 0.92820 0.05700
H 	H 	0.25100 0.73550 0.87920 0.04600
C 	C 	0.34690 0.68320 0.84240 -0.14300
H 	H 	0.31430 0.65960 0.80840 0.07300
H 	H 	0.36670 0.73110 0.82750 0.07500
C 	C 	0.48770 0.68220 0.91623 0.16100
C 	C 	0.58190 0.70930 0.98572 0.13200
C 	C 	0.65370 0.70550 0.02948 0.01700
C 	C 	0.70300 0.64050 0.03870 -0.05700
H 	H 	0.69070 0.59590 0.01700 0.06200
C 	C 	0.76960 0.64510 0.08060 -0.05900
H 	H 	0.80320 0.60310 0.08800 0.04900
C 	C 	0.78730 0.71330 0.11261 -0.00400
C 	C 	0.85580 0.72250 0.15626 -0.04600
H 	H 	0.89020 0.68150 0.16580 0.04500
C 	C 	0.87170 0.79070 0.18438 -0.05300
H 	H 	0.91730 0.79610 0.21240 0.04800
C 	C 	0.81920 0.85360 0.17110 0.00600
H 	H 	0.83080 0.90000 0.19020 0.03000
C 	C 	0.75180 0.84610 0.13057 -0.11600
H 	H 	0.71700 0.88720 0.12280 0.04700
C 	C 	0.73440 0.77630 0.10031 0.07500
Cu	Cu	0.08010 0.35345 0.03552 0.85300
N 	N 	0.01596 0.40742 0.10146 -0.22000
N 	N 	0.11272 0.46304 0.01713 -0.20400
N 	N 	0.16100 0.50880 0.98135 -0.11300
N 	N 	0.53763 0.76954 0.97625 -0.20200
N 	N 	0.47450 0.75220 0.93043 -0.10800
N 	N 	0.66716 0.77116 0.05879 -0.22000
O 	O 	0.10084 0.58140 0.04919 -0.25000
O 	O 	0.55465 0.65072 0.94887 -0.23000
S 	S 	0.19173 0.66210 0.97979 -0.02200
S 	S 	0.43429 0.62269 0.86357 -0.01900
C 	C 	0.46850 0.87620 0.14414 0.07900
C 	C 	0.45840 0.79730 0.14602 -0.12200
H 	H 	0.48290 0.76670 0.11780 0.05000
C 	C 	0.41270 0.76520 0.18920 0.00900
H 	H 	0.40660 0.71280 0.19020 0.02700
C 	C 	0.37480 0.81030 0.23216 -0.06400
H 	H 	0.34390 0.78740 0.26120 0.05000
C 	C 	0.38290 0.88770 0.23161 -0.04500
H 	H 	0.35740 0.91710 0.26010 0.04400
C 	C 	0.43030 0.92320 0.18752 -0.00600
C 	C 	0.44170 0.00240 0.18532 -0.04200
H 	H 	0.41610 0.03400 0.21230 0.04300
C 	C 	0.49060 0.03230 0.14322 -0.06100
H 	H 	0.50000 0.08420 0.14170 0.05600
C 	C 	0.52670 0.98230 0.10201 0.01400
C 	C 	0.57940 0.00780 0.05591 0.12400
C 	C 	0.65190 0.07710 0.00228 0.15700
C 	C 	0.75040 0.12910 0.91701 -0.14700
H 	H 	0.71470 0.10670 0.88420 0.08100
H 	H 	0.79050 0.09160 0.93200 0.08400
C 	C 	0.79240 0.19910 0.89380 -0.04100
H 	H 	0.82490 0.22210 0.92820 0.05700
H 	H 	0.75100 0.23550 0.87920 0.04600
C 	C 	0.84690 0.18320 0.84240 -0.14400
H 	H 	0.81430 0.15960 0.80840 0.07300
H 	H 	0.86670 0.23110 0.82750 0.07500
C 	C 	0.98770 0.18220 0.91623 0.16300
C 	C 	0.08190 0.20930 0.98572 0.13400
C 	C 	0.15370 0.20550 0.02948 0.01400
C 	C 	0.20300 0.14050 0.03870 -0.05600
H 	H 	0.19070 0.09590 0.01700 0.06100
C 	C 	0.26960 0.14510 0.08060 -0.06100
H 	H 	0.30320 0.10310 0.08800 0.04800
C 	C 	0.28730 0.21330 0.11261 -0.00300
C 	C 	0.35580 0.22250 0.15626 -0.04600
H 	H 	0.39020 0.18150 0.16580 0.04400
C 	C 	0.37170 0.29070 0.18438 -0.05300
H 	H 	0.41730 0.29610 0.21240 0.04700
C 	C 	0.31920 0.35360 0.17110 0.00500
H 	H 	0.33080 0.40000 0.19020 0.02900
C 	C 	0.25180 0.34610 0.13057 -0.11600
H 	H 	0.21700 0.38720 0.12280 0.04700
C 	C 	0.23440 0.27630 0.10031 0.07500
Cu	Cu	0.58010 0.85345 0.03552 0.85400
N 	N 	0.51596 0.90742 0.10146 -0.21900
N 	N 	0.61272 0.96304 0.01713 -0.20300
N 	N 	0.66100 0.00880 0.98135 -0.11400
N 	N 	0.03763 0.26954 0.97625 -0.20300
N 	N 	0.97450 0.25220 0.93043 -0.10700
N 	N 	0.16716 0.27116 0.05879 -0.22000
O 	O 	0.60084 0.08140 0.04919 -0.24900
O 	O 	0.05465 0.15072 0.94887 -0.23200
S 	S 	0.69173 0.16210 0.97979 -0.02300
S 	S 	0.93429 0.12269 0.86357 -0.01800
