data_crystal

_cell_length_a 16.38750
_cell_length_b 16.61360
_cell_length_c 14.79590
_cell_angle_alpha 90.00000
_cell_angle_beta  90.65400
_cell_angle_gamma 90.00000

_symmetry_space_group_name_	'P 1'
_symmetry_space_group_name_H-M	'P 1'

loop_
_symmetry_equiv_pos_as_xyz
  x,y,z

loop_
_atom_site_label
_atom_site_type_symbol
_atom_site_fract_x
_atom_site_fract_y
_atom_site_fract_z
_atom_site_charge
N 	N 	0.99965 0.41543 0.59766 -0.21200
N 	N 	0.99997 0.09067 0.90635 -0.19900
C 	C 	0.99894 0.28967 0.72282 0.08700
C 	C 	0.99910 0.22170 0.78738 0.08600
C 	C 	0.07202 0.18464 0.81404 -0.16800
H 	H 	0.12270 0.20380 0.79200 0.07200
C 	C 	0.93540 0.34570 0.71891 -0.13400
H 	H 	0.89110 0.34180 0.75950 0.07700
C 	C 	0.06999 0.11997 0.87270 0.04400
H 	H 	0.12000 0.09520 0.89000 -0.01700
C 	C 	0.06262 0.29879 0.66202 -0.16900
H 	H 	0.10660 0.26160 0.66200 0.07000
C 	C 	0.92679 0.19167 0.82304 -0.13100
H 	H 	0.87600 0.21560 0.80720 0.07100
C 	C 	0.92965 0.12663 0.88184 0.08200
H 	H 	0.88000 0.10680 0.90570 -0.01700
C 	C 	0.93748 0.40681 0.65549 0.08200
H 	H 	0.89350 0.44400 0.65270 -0.01600
C 	C 	0.06131 0.36237 0.60178 0.04000
H 	H 	0.10580 0.36870 0.56180 -0.01800
N 	N 	0.00035 0.91543 0.90234 -0.22300
N 	N 	0.00003 0.59067 0.59365 -0.25500
C 	C 	0.00106 0.78967 0.77718 0.01600
C 	C 	0.00090 0.72170 0.71262 0.01700
C 	C 	0.92798 0.68464 0.68596 -0.08200
H 	H 	0.87730 0.70380 0.70800 0.06300
C 	C 	0.06460 0.84570 0.78109 -0.10700
H 	H 	0.10890 0.84180 0.74050 0.06800
C 	C 	0.93001 0.61997 0.62730 0.09600
H 	H 	0.88000 0.59520 0.61000 -0.02300
C 	C 	0.93738 0.79879 0.83798 -0.07400
H 	H 	0.89340 0.76160 0.83800 0.06700
C 	C 	0.07321 0.69167 0.67696 -0.11400
H 	H 	0.12400 0.71560 0.69280 0.06600
C 	C 	0.07035 0.62663 0.61816 0.05800
H 	H 	0.12000 0.60680 0.59430 -0.02000
C 	C 	0.06252 0.90681 0.84451 0.06300
H 	H 	0.10650 0.94400 0.84730 0.00900
C 	C 	0.93869 0.86237 0.89822 0.10000
H 	H 	0.89420 0.86870 0.93820 0.00500
N 	N 	0.00035 0.58457 0.40234 -0.25900
N 	N 	0.00003 0.90933 0.09365 -0.24400
C 	C 	0.00106 0.71033 0.27718 0.01000
C 	C 	0.00090 0.77830 0.21262 0.00800
C 	C 	0.92798 0.81536 0.18596 -0.07900
H 	H 	0.87730 0.79620 0.20800 0.05700
C 	C 	0.06460 0.65430 0.28109 -0.11700
H 	H 	0.10890 0.65820 0.24050 0.05500
C 	C 	0.93001 0.88003 0.12730 0.08800
H 	H 	0.88000 0.90480 0.11000 -0.01700
C 	C 	0.93738 0.70121 0.33798 -0.08200
H 	H 	0.89340 0.73840 0.33800 0.06300
C 	C 	0.07321 0.80833 0.17696 -0.11400
H 	H 	0.12400 0.78440 0.19280 0.05900
C 	C 	0.07035 0.87337 0.11816 0.05200
H 	H 	0.12000 0.89320 0.09430 -0.01900
C 	C 	0.06252 0.59319 0.34451 0.05200
H 	H 	0.10650 0.55600 0.34730 -0.01900
C 	C 	0.93869 0.63763 0.39822 0.09500
H 	H 	0.89420 0.63130 0.43820 -0.02200
N 	N 	0.99965 0.08457 0.09766 -0.22600
N 	N 	0.99997 0.40933 0.40635 -0.20600
C 	C 	0.99894 0.21033 0.22282 0.08400
C 	C 	0.99910 0.27830 0.28738 0.08100
C 	C 	0.07202 0.31536 0.31404 -0.17000
H 	H 	0.12270 0.29620 0.29200 0.06700
C 	C 	0.93540 0.15430 0.21891 -0.14200
H 	H 	0.89110 0.15820 0.25950 0.06500
C 	C 	0.06999 0.38003 0.37270 0.03800
H 	H 	0.12000 0.40480 0.39000 -0.01800
C 	C 	0.06262 0.20121 0.16202 -0.18000
H 	H 	0.10660 0.23840 0.16200 0.06600
C 	C 	0.92679 0.30833 0.32304 -0.13300
H 	H 	0.87600 0.28440 0.30720 0.06400
C 	C 	0.92965 0.37337 0.38184 0.07700
H 	H 	0.88000 0.39320 0.40570 -0.02300
C 	C 	0.93748 0.09319 0.15549 0.07100
H 	H 	0.89350 0.05600 0.15270 -0.04000
C 	C 	0.06131 0.13763 0.10178 0.02800
H 	H 	0.10580 0.13130 0.06180 -0.04100
Cu	Cu	0.00000 0.50000 0.50000 0.83200
Cu	Cu	-0.00000 0.00000 -0.00000 0.77200
N 	N 	0.50157 0.08206 0.10342 -0.25100
N 	N 	0.50009 0.40834 0.41061 -0.23700
C 	C 	0.50172 0.27683 0.29304 0.04100
C 	C 	0.56598 0.33166 0.29579 -0.12500
H 	H 	0.61140 0.32500 0.25720 0.06000
C 	C 	0.50242 0.20746 0.23027 0.04300
C 	C 	0.43162 0.11255 0.13529 0.05700
H 	H 	0.38140 0.09070 0.11390 -0.04700
C 	C 	0.43615 0.29027 0.35038 -0.12400
H 	H 	0.39110 0.25430 0.35040 0.05800
C 	C 	0.56320 0.39594 0.35523 0.06300
H 	H 	0.60760 0.43270 0.35690 -0.02000
C 	C 	0.42956 0.17432 0.19781 -0.13400
H 	H 	0.37870 0.19410 0.21860 0.05700
C 	C 	0.43721 0.35642 0.40738 0.06200
H 	H 	0.39190 0.36540 0.44550 -0.02200
C 	C 	0.57206 0.11186 0.13636 0.05700
H 	H 	0.62200 0.08970 0.11580 -0.04200
C 	C 	0.57484 0.17385 0.19922 -0.13200
H 	H 	0.62590 0.19330 0.22100 0.06000
N 	N 	0.49843 0.58206 0.39658 -0.23300
N 	N 	0.49991 0.90834 0.08939 -0.22700
C 	C 	0.49828 0.77683 0.20696 0.04700
C 	C 	0.43402 0.83166 0.20421 -0.12300
H 	H 	0.38860 0.82500 0.24280 0.06900
C 	C 	0.49758 0.70746 0.26973 0.04700
C 	C 	0.56838 0.61255 0.36471 0.06700
H 	H 	0.61860 0.59070 0.38610 -0.02100
C 	C 	0.56385 0.79027 0.14962 -0.12500
H 	H 	0.60890 0.75430 0.14960 0.06100
C 	C 	0.43680 0.89594 0.14477 0.06700
H 	H 	0.39240 0.93270 0.14310 -0.00600
C 	C 	0.57044 0.67432 0.30219 -0.12400
H 	H 	0.62130 0.69410 0.28140 0.06600
C 	C 	0.56279 0.85642 0.09262 0.06500
H 	H 	0.60810 0.86540 0.05450 -0.02600
C 	C 	0.42794 0.61186 0.36364 0.06600
H 	H 	0.37800 0.58970 0.38420 -0.02300
C 	C 	0.42516 0.67385 0.30078 -0.12500
H 	H 	0.37410 0.69330 0.27900 0.06300
N 	N 	0.49843 0.91794 0.89658 -0.20000
N 	N 	0.49991 0.59166 0.58939 -0.23700
C 	C 	0.49828 0.72317 0.70696 0.05600
C 	C 	0.43402 0.66834 0.70421 -0.12600
H 	H 	0.38860 0.67500 0.74280 0.07300
C 	C 	0.49758 0.79254 0.76973 0.05100
C 	C 	0.56838 0.88745 0.86471 0.07800
H 	H 	0.61860 0.90930 0.88610 0.00700
C 	C 	0.56385 0.70973 0.64962 -0.12500
H 	H 	0.60890 0.74570 0.64960 0.07300
C 	C 	0.43680 0.60406 0.64477 0.07200
H 	H 	0.39240 0.56730 0.64310 -0.01900
C 	C 	0.57044 0.82568 0.80219 -0.11400
H 	H 	0.62130 0.80590 0.78140 0.07300
C 	C 	0.56279 0.64358 0.59262 0.07200
H 	H 	0.60810 0.63460 0.55450 -0.01800
C 	C 	0.42794 0.88814 0.86364 0.07600
H 	H 	0.37800 0.91030 0.88420 0.00400
C 	C 	0.42516 0.82615 0.80078 -0.11400
H 	H 	0.37410 0.80670 0.77900 0.07100
N 	N 	0.50157 0.41794 0.60342 -0.23300
N 	N 	0.50009 0.09166 0.91061 -0.22900
C 	C 	0.50172 0.22317 0.79304 0.04900
C 	C 	0.56598 0.16834 0.79579 -0.12600
H 	H 	0.61140 0.17500 0.75720 0.06400
C 	C 	0.50242 0.29254 0.73027 0.04900
C 	C 	0.43162 0.38745 0.63529 0.06900
H 	H 	0.38140 0.40930 0.61390 -0.02300
C 	C 	0.43615 0.20973 0.85038 -0.12200
H 	H 	0.39110 0.24570 0.85040 0.07100
C 	C 	0.56320 0.10406 0.85523 0.06800
H 	H 	0.60760 0.06730 0.85690 -0.02600
C 	C 	0.42956 0.32568 0.69781 -0.12500
H 	H 	0.37870 0.30590 0.71860 0.06500
C 	C 	0.43721 0.14358 0.90738 0.06800
H 	H 	0.39190 0.13460 0.94550 -0.00700
C 	C 	0.57206 0.38814 0.63636 0.06900
H 	H 	0.62200 0.41030 0.61580 -0.02000
C 	C 	0.57484 0.32615 0.69922 -0.12300
H 	H 	0.62590 0.30670 0.72100 0.06800
Cu	Cu	0.50000 0.50000 0.50000 0.84900
Cu	Cu	0.50000 0.00000 -0.00000 0.79000
