data_crystal

_cell_length_a 11.70790
_cell_length_b 12.85540
_cell_length_c 16.86050
_cell_angle_alpha 90.00000
_cell_angle_beta  100.66600
_cell_angle_gamma 90.00000

_symmetry_space_group_name_	'P 1'
_symmetry_space_group_name_H-M	'P 1'

loop_
_symmetry_equiv_pos_as_xyz
  x,y,z

loop_
_atom_site_label
_atom_site_type_symbol
_atom_site_fract_x
_atom_site_fract_y
_atom_site_fract_z
_atom_site_charge
Mn	Mn	0.74628 0.76846 0.22839 1.25000
N 	N 	0.61074 0.89564 0.19832 -0.27500
N 	N 	0.39155 0.16138 0.24729 -0.28600
N 	N 	0.87200 0.88691 0.20105 -0.28900
N 	N 	0.75660 0.82617 0.35578 -0.27700
N 	N 	0.70787 0.78840 0.60278 -0.28800
N 	N 	0.11265 0.15605 0.22827 -0.29300
N 	N 	0.99200 0.01770 0.15650 -0.10400
N 	N 	0.55914 0.07753 0.20807 -0.18800
N 	N 	0.67251 0.87664 0.47185 -0.18600
C 	C 	0.58035 0.97855 0.20509 0.16700
C 	C 	0.46705 0.11580 0.23033 0.17500
C 	C 	0.92101 0.95737 0.18454 0.17800
C 	C 	0.71835 0.84555 0.41181 0.16500
C 	C 	0.69296 0.82596 0.54026 0.17000
C 	C 	0.04553 0.09709 0.19934 0.17900
N 	N 	0.95510 0.04970 0.15950 -0.10000
Mn	Mn	0.25372 0.26846 0.27162 1.25100
N 	N 	0.38926 0.39564 0.30168 -0.27400
N 	N 	0.60845 0.66138 0.25271 -0.28600
N 	N 	0.12800 0.38691 0.29895 -0.29000
N 	N 	0.24340 0.32617 0.14422 -0.27700
N 	N 	0.29213 0.28840 0.89722 -0.28800
N 	N 	0.88735 0.65605 0.27173 -0.29300
N 	N 	0.00800 0.51770 0.34350 -0.10700
N 	N 	0.44086 0.57753 0.29193 -0.18900
N 	N 	0.32749 0.37664 0.02815 -0.18600
C 	C 	0.41965 0.47855 0.29491 0.16900
C 	C 	0.53295 0.61580 0.26967 0.17400
C 	C 	0.07899 0.45737 0.31546 0.18300
C 	C 	0.28165 0.34555 0.08819 0.16500
C 	C 	0.30704 0.32596 0.95974 0.16900
C 	C 	0.95447 0.59709 0.30066 0.18100
N 	N 	0.04490 0.54970 0.34050 -0.10100
Mn	Mn	0.25372 0.23154 0.77162 1.25100
N 	N 	0.38926 0.10436 0.80168 -0.27400
N 	N 	0.60845 0.83862 0.75271 -0.28600
N 	N 	0.12800 0.11309 0.79895 -0.28900
N 	N 	0.24340 0.17383 0.64422 -0.27700
N 	N 	0.29213 0.21160 0.39722 -0.28800
N 	N 	0.88735 0.84395 0.77173 -0.29300
N 	N 	0.00800 0.98230 0.84350 -0.10400
N 	N 	0.44086 0.92247 0.79193 -0.18800
N 	N 	0.32749 0.12336 0.52815 -0.18600
C 	C 	0.41965 0.02145 0.79491 0.16700
C 	C 	0.53295 0.88420 0.76967 0.17500
C 	C 	0.07899 0.04263 0.81546 0.17800
C 	C 	0.28165 0.15445 0.58819 0.16500
C 	C 	0.30704 0.17404 0.45974 0.17000
C 	C 	0.95447 0.90291 0.80066 0.17900
N 	N 	0.04490 0.95030 0.84050 -0.10000
Mn	Mn	0.74628 0.73154 0.72839 1.25100
N 	N 	0.61074 0.60436 0.69832 -0.27400
N 	N 	0.39155 0.33862 0.74729 -0.28600
N 	N 	0.87200 0.61309 0.70105 -0.29000
N 	N 	0.75660 0.67383 0.85578 -0.27700
N 	N 	0.70787 0.71160 0.10278 -0.28800
N 	N 	0.11265 0.34395 0.72827 -0.29300
N 	N 	0.99200 0.48230 0.65650 -0.10700
N 	N 	0.55914 0.42247 0.70807 -0.18900
N 	N 	0.67251 0.62336 0.97185 -0.18600
C 	C 	0.58035 0.52145 0.70509 0.16900
C 	C 	0.46705 0.38420 0.73033 0.17400
C 	C 	0.92101 0.54263 0.68454 0.18300
C 	C 	0.71835 0.65445 0.91181 0.16500
C 	C 	0.69296 0.67404 0.04026 0.16900
C 	C 	0.04553 0.40291 0.69934 0.18100
N 	N 	0.95510 0.45030 0.65950 -0.10100
