data_crystal

_cell_length_a 14.71470
_cell_length_b 19.58490
_cell_length_c 19.65320
_cell_angle_alpha 90.00000
_cell_angle_beta  90.00000
_cell_angle_gamma 90.00000

_symmetry_space_group_name_	'P 1'
_symmetry_space_group_name_H-M	'P 1'

loop_
_symmetry_equiv_pos_as_xyz
  x,y,z

loop_
_atom_site_label
_atom_site_type_symbol
_atom_site_fract_x
_atom_site_fract_y
_atom_site_fract_z
_atom_site_charge
Cd	Cd	0.12157 0.44811 0.26401 1.21800
Ba	Ba	0.36614 0.38731 0.28626 1.66800
C 	C 	0.11530 0.31080 0.25130 0.43700
C 	C 	0.10790 0.23560 0.25260 -0.16700
C 	C 	0.17560 0.18630 0.25950 0.02500
H 	H 	0.23690 0.19650 0.26490 -0.01100
C 	C 	0.14290 0.12330 0.25750 -0.04300
H 	H 	0.18040 0.08540 0.26250 0.03700
C 	C 	0.05380 0.11710 0.24810 -0.08600
C 	C 	0.99420 0.05440 0.24310 0.34300
C 	C 	0.21960 0.47520 0.14870 0.35700
C 	C 	0.27250 0.49900 0.08950 -0.11800
C 	C 	0.36280 0.51540 0.08610 -0.00900
H 	H 	0.40180 0.51400 0.12330 0.02700
C 	C 	0.39020 0.53470 0.02050 -0.02000
H 	H 	0.44970 0.54610 0.00940 0.03900
C 	C 	0.32080 0.53510 0.97510 -0.10900
C 	C 	0.32780 0.54800 0.90010 0.35200
O 	O 	0.04260 0.34280 0.24290 -0.57900
O 	O 	0.19000 0.33620 0.26570 -0.57000
O 	O 	0.91110 0.06530 0.23110 -0.39600
O 	O 	0.02920 0.99630 0.25180 -0.52600
O 	O 	0.26010 0.46970 0.20480 -0.52100
O 	O 	0.13570 0.46530 0.14270 -0.41800
O 	O 	0.40520 0.56230 0.87760 -0.43100
O 	O 	0.25760 0.54130 0.86440 -0.50000
S 	S 	0.00600 0.19427 0.24050 -0.01200
S 	S 	0.22010 0.51059 0.01204 0.00700
Cd	Cd	0.37843 0.55189 0.76401 1.21900
Ba	Ba	0.13386 0.61269 0.78626 1.66800
C 	C 	0.38470 0.68920 0.75130 0.43800
C 	C 	0.39210 0.76440 0.75260 -0.16600
C 	C 	0.32440 0.81370 0.75950 0.02500
H 	H 	0.26310 0.80350 0.76490 -0.01000
C 	C 	0.35710 0.87670 0.75750 -0.04100
H 	H 	0.31960 0.91460 0.76250 0.03700
C 	C 	0.44620 0.88290 0.74810 -0.08800
C 	C 	0.50580 0.94560 0.74310 0.34500
C 	C 	0.28040 0.52480 0.64870 0.35700
C 	C 	0.22750 0.50100 0.58950 -0.11800
C 	C 	0.13720 0.48460 0.58610 -0.00900
H 	H 	0.09820 0.48600 0.62330 0.02700
C 	C 	0.10980 0.46530 0.52050 -0.02100
H 	H 	0.05030 0.45390 0.50940 0.03900
C 	C 	0.17920 0.46490 0.47510 -0.10800
C 	C 	0.17220 0.45200 0.40010 0.35200
O 	O 	0.45740 0.65720 0.74290 -0.57900
O 	O 	0.31000 0.66380 0.76570 -0.57000
O 	O 	0.58890 0.93470 0.73110 -0.39600
O 	O 	0.47080 0.00370 0.75180 -0.52600
O 	O 	0.23990 0.53030 0.70480 -0.52100
O 	O 	0.36430 0.53470 0.64270 -0.41800
O 	O 	0.09480 0.43770 0.37760 -0.43100
O 	O 	0.24240 0.45870 0.36440 -0.50000
S 	S 	0.49400 0.80573 0.74050 -0.01200
S 	S 	0.27990 0.48941 0.51204 0.00700
Cd	Cd	0.87843 0.94811 0.23599 1.21900
Ba	Ba	0.63386 0.88731 0.21374 1.66900
C 	C 	0.88470 0.81080 0.24870 0.43800
C 	C 	0.89210 0.73560 0.24740 -0.16600
C 	C 	0.82440 0.68630 0.24050 0.02500
H 	H 	0.76310 0.69650 0.23510 -0.01000
C 	C 	0.85710 0.62330 0.24250 -0.04100
H 	H 	0.81960 0.58540 0.23750 0.03700
C 	C 	0.94620 0.61710 0.25190 -0.08800
C 	C 	0.00580 0.55440 0.25690 0.34500
C 	C 	0.78040 0.97520 0.35130 0.35700
C 	C 	0.72750 0.99900 0.41050 -0.11600
C 	C 	0.63720 0.01540 0.41390 -0.01100
H 	H 	0.59820 0.01400 0.37670 0.02700
C 	C 	0.60980 0.03470 0.47950 -0.02000
H 	H 	0.55030 0.04610 0.49060 0.03900
C 	C 	0.67920 0.03510 0.52490 -0.10800
C 	C 	0.67220 0.04800 0.59990 0.35200
O 	O 	0.95740 0.84280 0.25710 -0.57800
O 	O 	0.81000 0.83620 0.23430 -0.56900
O 	O 	0.08890 0.56530 0.26890 -0.39600
O 	O 	0.97080 0.49630 0.24820 -0.52600
O 	O 	0.73990 0.96970 0.29520 -0.52100
O 	O 	0.86430 0.96530 0.35730 -0.41700
O 	O 	0.59480 0.06230 0.62240 -0.43100
O 	O 	0.74240 0.04130 0.63560 -0.50100
S 	S 	0.99400 0.69427 0.25950 -0.01200
S 	S 	0.77990 0.01059 0.48796 0.00500
Cd	Cd	0.62157 0.05189 0.73599 1.21900
Ba	Ba	0.86614 0.11269 0.71374 1.66700
C 	C 	0.61530 0.18920 0.74870 0.43800
C 	C 	0.60790 0.26440 0.74740 -0.16600
C 	C 	0.67560 0.31370 0.74050 0.02500
H 	H 	0.73690 0.30350 0.73510 -0.01000
C 	C 	0.64290 0.37670 0.74250 -0.04100
H 	H 	0.68040 0.41460 0.73750 0.03700
C 	C 	0.55380 0.38290 0.75190 -0.08800
C 	C 	0.49420 0.44560 0.75690 0.34500
C 	C 	0.71960 0.02480 0.85130 0.35800
C 	C 	0.77250 0.00100 0.91050 -0.12000
C 	C 	0.86280 0.98460 0.91390 -0.00700
H 	H 	0.90180 0.98600 0.87670 0.02600
C 	C 	0.89020 0.96530 0.97950 -0.02200
H 	H 	0.94970 0.95390 0.99060 0.04000
C 	C 	0.82080 0.96490 0.02490 -0.10800
C 	C 	0.82780 0.95200 0.09990 0.35200
O 	O 	0.54260 0.15720 0.75710 -0.57900
O 	O 	0.69000 0.16380 0.73430 -0.56900
O 	O 	0.41110 0.43470 0.76890 -0.39600
O 	O 	0.52920 0.50370 0.74820 -0.52600
O 	O 	0.76010 0.03030 0.79520 -0.52200
O 	O 	0.63570 0.03470 0.85730 -0.41800
O 	O 	0.90520 0.93770 0.12240 -0.43000
O 	O 	0.75760 0.95870 0.13560 -0.50000
S 	S 	0.50600 0.30573 0.75950 -0.01200
S 	S 	0.72010 0.98941 0.98796 0.00700
Cd	Cd	0.87843 0.55189 0.73599 1.21900
Ba	Ba	0.63386 0.61269 0.71374 1.66900
C 	C 	0.88470 0.68920 0.74870 0.43800
C 	C 	0.89210 0.76440 0.74740 -0.16600
C 	C 	0.82440 0.81370 0.74050 0.02600
H 	H 	0.76310 0.80350 0.73510 -0.01000
C 	C 	0.85710 0.87670 0.74250 -0.04200
H 	H 	0.81960 0.91460 0.73750 0.03800
C 	C 	0.94620 0.88290 0.75190 -0.08600
C 	C 	0.00580 0.94560 0.75690 0.34300
C 	C 	0.78040 0.52480 0.85130 0.35700
C 	C 	0.72750 0.50100 0.91050 -0.11800
C 	C 	0.63720 0.48460 0.91390 -0.00900
H 	H 	0.59820 0.48600 0.87670 0.02700
C 	C 	0.60980 0.46530 0.97950 -0.02000
H 	H 	0.55030 0.45390 0.99060 0.03900
C 	C 	0.67920 0.46490 0.02490 -0.10900
C 	C 	0.67220 0.45200 0.09990 0.35200
O 	O 	0.95740 0.65720 0.75710 -0.57900
O 	O 	0.81000 0.66380 0.73430 -0.57000
O 	O 	0.08890 0.93470 0.76890 -0.39600
O 	O 	0.97080 0.00370 0.74820 -0.52600
O 	O 	0.73990 0.53030 0.79520 -0.52100
O 	O 	0.86430 0.53470 0.85730 -0.41800
O 	O 	0.59480 0.43770 0.12240 -0.43100
O 	O 	0.74240 0.45870 0.13560 -0.50000
S 	S 	0.99400 0.80573 0.75950 -0.01200
S 	S 	0.77990 0.48941 0.98796 0.00700
Cd	Cd	0.62157 0.44811 0.23599 1.21900
Ba	Ba	0.86614 0.38731 0.21374 1.66800
C 	C 	0.61530 0.31080 0.24870 0.43800
C 	C 	0.60790 0.23560 0.24740 -0.16600
C 	C 	0.67560 0.18630 0.24050 0.02500
H 	H 	0.73690 0.19650 0.23510 -0.01000
C 	C 	0.64290 0.12330 0.24250 -0.04100
H 	H 	0.68040 0.08540 0.23750 0.03700
C 	C 	0.55380 0.11710 0.25190 -0.08800
C 	C 	0.49420 0.05440 0.25690 0.34500
C 	C 	0.71960 0.47520 0.35130 0.35700
C 	C 	0.77250 0.49900 0.41050 -0.11800
C 	C 	0.86280 0.51540 0.41390 -0.00900
H 	H 	0.90180 0.51400 0.37670 0.02700
C 	C 	0.89020 0.53470 0.47950 -0.02100
H 	H 	0.94970 0.54610 0.49060 0.03900
C 	C 	0.82080 0.53510 0.52490 -0.10800
C 	C 	0.82780 0.54800 0.59990 0.35200
O 	O 	0.54260 0.34280 0.25710 -0.57900
O 	O 	0.69000 0.33620 0.23430 -0.57000
O 	O 	0.41110 0.06530 0.26890 -0.39600
O 	O 	0.52920 0.99630 0.24820 -0.52600
O 	O 	0.76010 0.46970 0.29520 -0.52100
O 	O 	0.63570 0.46530 0.35730 -0.41800
O 	O 	0.90520 0.56230 0.62240 -0.43100
O 	O 	0.75760 0.54130 0.63560 -0.50000
S 	S 	0.50600 0.19427 0.25950 -0.01200
S 	S 	0.72010 0.51059 0.48796 0.00700
Cd	Cd	0.12157 0.05189 0.76401 1.21900
Ba	Ba	0.36614 0.11269 0.78626 1.66900
C 	C 	0.11530 0.18920 0.75130 0.43800
C 	C 	0.10790 0.26440 0.75260 -0.16600
C 	C 	0.17560 0.31370 0.75950 0.02500
H 	H 	0.23690 0.30350 0.76490 -0.01000
C 	C 	0.14290 0.37670 0.75750 -0.04100
H 	H 	0.18040 0.41460 0.76250 0.03700
C 	C 	0.05380 0.38290 0.74810 -0.08800
C 	C 	0.99420 0.44560 0.74310 0.34500
C 	C 	0.21960 0.02480 0.64870 0.35700
C 	C 	0.27250 0.00100 0.58950 -0.11600
C 	C 	0.36280 0.98460 0.58610 -0.01100
H 	H 	0.40180 0.98600 0.62330 0.02700
C 	C 	0.39020 0.96530 0.52050 -0.02000
H 	H 	0.44970 0.95390 0.50940 0.03900
C 	C 	0.32080 0.96490 0.47510 -0.10800
C 	C 	0.32780 0.95200 0.40010 0.35200
O 	O 	0.04260 0.15720 0.74290 -0.57800
O 	O 	0.19000 0.16380 0.76570 -0.56900
O 	O 	0.91110 0.43470 0.73110 -0.39600
O 	O 	0.02920 0.50370 0.75180 -0.52600
O 	O 	0.26010 0.03030 0.70480 -0.52100
O 	O 	0.13570 0.03470 0.64270 -0.41700
O 	O 	0.40520 0.93770 0.37760 -0.43100
O 	O 	0.25760 0.95870 0.36440 -0.50100
S 	S 	0.00600 0.30573 0.74050 -0.01200
S 	S 	0.22010 0.98941 0.51204 0.00500
Cd	Cd	0.37843 0.94811 0.26401 1.21900
Ba	Ba	0.13386 0.88731 0.28626 1.66700
C 	C 	0.38470 0.81080 0.25130 0.43800
C 	C 	0.39210 0.73560 0.25260 -0.16600
C 	C 	0.32440 0.68630 0.25950 0.02500
H 	H 	0.26310 0.69650 0.26490 -0.01000
C 	C 	0.35710 0.62330 0.25750 -0.04100
H 	H 	0.31960 0.58540 0.26250 0.03700
C 	C 	0.44620 0.61710 0.24810 -0.08800
C 	C 	0.50580 0.55440 0.24310 0.34500
C 	C 	0.28040 0.97520 0.14870 0.35800
C 	C 	0.22750 0.99900 0.08950 -0.12000
C 	C 	0.13720 0.01540 0.08610 -0.00700
H 	H 	0.09820 0.01400 0.12330 0.02600
C 	C 	0.10980 0.03470 0.02050 -0.02200
H 	H 	0.05030 0.04610 0.00940 0.04000
C 	C 	0.17920 0.03510 0.97510 -0.10800
C 	C 	0.17220 0.04800 0.90010 0.35200
O 	O 	0.45740 0.84280 0.24290 -0.57900
O 	O 	0.31000 0.83620 0.26570 -0.56900
O 	O 	0.58890 0.56530 0.23110 -0.39600
O 	O 	0.47080 0.49630 0.25180 -0.52600
O 	O 	0.23990 0.96970 0.20480 -0.52200
O 	O 	0.36430 0.96530 0.14270 -0.41800
O 	O 	0.09480 0.06230 0.87760 -0.43000
O 	O 	0.24240 0.04130 0.86440 -0.50000
S 	S 	0.49400 0.69427 0.24050 -0.01200
S 	S 	0.27990 0.01059 0.01204 0.00700
