data_crystal

_cell_length_a 13.21700
_cell_length_b 22.04320
_cell_length_c 22.04320
_cell_angle_alpha 71.07970
_cell_angle_beta  72.55470
_cell_angle_gamma 72.55450

_symmetry_space_group_name_	'P 1'
_symmetry_space_group_name_H-M	'P 1'

loop_
_symmetry_equiv_pos_as_xyz
  x,y,z

loop_
_atom_site_label
_atom_site_type_symbol
_atom_site_fract_x
_atom_site_fract_y
_atom_site_fract_z
_atom_site_charge
Al	Al	0.25322 0.25145 0.00027 2.39600
Al	Al	0.00378 0.25094 0.00003 2.39300
C 	C 	0.07535 0.03414 0.00276 -0.59200
C 	C 	0.17982 0.24703 0.21771 0.00500
C 	C 	0.14468 0.25136 0.28333 -0.00200
C 	C 	0.11105 0.46926 0.49625 0.07600
C 	C 	0.42895 0.46914 0.49632 0.00700
C 	C 	0.32696 0.25148 0.28334 0.00100
C 	C 	0.36201 0.24691 0.21777 0.00800
C 	C 	0.39317 0.03422 0.00264 -0.46800
C 	C 	0.46594 0.06789 0.00578 0.10200
C 	C 	0.43017 0.13877 0.00768 0.42300
C 	C 	0.28901 0.24509 0.18362 -0.15200
C 	C 	0.32477 0.24490 0.11226 0.52600
C 	C 	0.21784 0.25334 0.31743 -0.12800
C 	C 	0.18174 0.25495 0.38843 0.52400
C 	C 	0.03872 0.43535 0.49311 -0.24400
C 	C 	0.07594 0.36404 0.49194 0.54900
O 	O 	0.32980 0.16825 0.00764 -0.75800
O 	O 	0.42520 0.24529 0.08281 -0.77100
O 	O 	0.25270 0.25543 0.41765 -0.67500
O 	O 	0.00484 0.33434 0.49239 -0.71700
O 	O 	0.17642 0.33491 0.49289 -0.68200
O 	O 	0.08135 0.25454 0.41757 -0.69400
O 	O 	0.25293 0.24589 0.08303 -0.77800
O 	O 	0.00232 0.16795 0.00653 -0.82600
O 	O 	0.37785 0.28006 0.47279 -1.16400
O 	O 	0.12679 0.22507 0.02958 -1.36200
H 	H 	0.13389 0.05786 0.00544 0.12100
H 	H 	0.12093 0.24605 0.19334 0.01100
H 	H 	0.05970 0.25368 0.30700 0.02100
H 	H 	0.19545 0.44514 0.49480 0.02300
H 	H 	0.36993 0.44501 0.49508 0.04200
H 	H 	0.38539 0.25409 0.30715 0.04100
H 	H 	0.44627 0.24578 0.19336 0.02600
H 	H 	0.30834 0.05820 0.00512 0.09500
H 	H 	0.37660 0.31503 0.44061 0.42100
H 	H 	0.12403 0.19444 0.06579 0.46000
Al	Al	0.75322 0.25145 0.00027 2.39500
Al	Al	0.50378 0.25094 0.00003 2.39500
C 	C 	0.57535 0.03414 0.00276 -0.46700
C 	C 	0.67982 0.24703 0.21771 0.00800
C 	C 	0.64468 0.25136 0.28333 0.00400
C 	C 	0.61105 0.46926 0.49625 0.00800
C 	C 	0.92895 0.46914 0.49632 0.13900
C 	C 	0.82696 0.25148 0.28334 0.00800
C 	C 	0.86201 0.24691 0.21777 0.01300
C 	C 	0.89317 0.03422 0.00264 -0.51900
C 	C 	0.96594 0.06789 0.00578 0.20800
C 	C 	0.93017 0.13877 0.00768 0.47900
C 	C 	0.78901 0.24509 0.18362 -0.13900
C 	C 	0.82477 0.24490 0.11226 0.52300
C 	C 	0.71784 0.25334 0.31743 -0.11900
C 	C 	0.68174 0.25495 0.38843 0.52300
C 	C 	0.53872 0.43535 0.49311 -0.11800
C 	C 	0.57594 0.36404 0.49194 0.51700
O 	O 	0.82980 0.16825 0.00764 -0.76100
O 	O 	0.92520 0.24529 0.08281 -0.72700
O 	O 	0.75270 0.25543 0.41765 -0.66700
O 	O 	0.50484 0.33434 0.49239 -0.67100
O 	O 	0.67642 0.33491 0.49289 -0.66700
O 	O 	0.58135 0.25454 0.41757 -0.67500
O 	O 	0.75293 0.24589 0.08303 -0.76600
O 	O 	0.50232 0.16795 0.00653 -0.75500
O 	O 	0.87785 0.28006 0.47279 -1.14100
O 	O 	0.62679 0.22507 0.02958 -1.35600
H 	H 	0.63389 0.05786 0.00544 0.10000
H 	H 	0.62093 0.24605 0.19334 0.02800
H 	H 	0.55970 0.25368 0.30700 0.04200
H 	H 	0.69545 0.44514 0.49480 0.04800
H 	H 	0.86993 0.44501 0.49508 0.02500
H 	H 	0.88539 0.25409 0.30715 0.05900
H 	H 	0.94627 0.24578 0.19336 0.05000
H 	H 	0.80834 0.05820 0.00512 0.11500
H 	H 	0.87660 0.31503 0.44061 0.43300
H 	H 	0.62403 0.19444 0.06579 0.47200
Al	Al	0.25322 0.75145 0.00027 2.39500
Al	Al	0.00378 0.75094 0.00003 2.39200
C 	C 	0.07535 0.53414 0.00276 -0.71400
C 	C 	0.17982 0.74703 0.21771 0.00100
C 	C 	0.14468 0.75136 0.28333 -0.00500
C 	C 	0.11105 0.96926 0.49625 -0.03600
C 	C 	0.42895 0.96914 0.49632 -0.10500
C 	C 	0.32696 0.75148 0.28334 -0.00200
C 	C 	0.36201 0.74691 0.21777 0.00500
C 	C 	0.39317 0.53422 0.00264 -0.58700
C 	C 	0.46594 0.56789 0.00578 0.16300
C 	C 	0.43017 0.63877 0.00768 0.39800
C 	C 	0.28901 0.74509 0.18362 -0.15500
C 	C 	0.32477 0.74490 0.11226 0.52400
C 	C 	0.21784 0.75334 0.31743 -0.13100
C 	C 	0.18174 0.75495 0.38843 0.52200
C 	C 	0.03872 0.93535 0.49311 -0.18500
C 	C 	0.07594 0.86404 0.49194 0.52500
O 	O 	0.32980 0.66825 0.00764 -0.75500
O 	O 	0.42520 0.74529 0.08281 -0.77300
O 	O 	0.25270 0.75543 0.41765 -0.67700
O 	O 	0.00484 0.83434 0.49239 -0.71300
O 	O 	0.17642 0.83491 0.49289 -0.67900
O 	O 	0.08135 0.75454 0.41757 -0.69600
O 	O 	0.25293 0.74589 0.08303 -0.78000
O 	O 	0.00232 0.66795 0.00653 -0.82300
O 	O 	0.37785 0.78006 0.47279 -1.16400
O 	O 	0.12679 0.72507 0.02958 -1.36300
H 	H 	0.13389 0.55786 0.00544 0.13800
H 	H 	0.12093 0.74605 0.19334 0.00800
H 	H 	0.05970 0.75368 0.30700 0.01900
H 	H 	0.19545 0.94514 0.49480 0.03900
H 	H 	0.36993 0.94501 0.49508 0.05800
H 	H 	0.38539 0.75409 0.30715 0.03900
H 	H 	0.44627 0.74578 0.19336 0.02400
H 	H 	0.30834 0.55820 0.00512 0.11100
H 	H 	0.37660 0.81503 0.44061 0.41700
H 	H 	0.12403 0.69444 0.06579 0.45700
Al	Al	0.75322 0.75145 0.00027 2.39500
Al	Al	0.50378 0.75094 0.00003 2.39500
C 	C 	0.57535 0.53414 0.00276 -0.58600
C 	C 	0.67982 0.74703 0.21771 0.00500
C 	C 	0.64468 0.75136 0.28333 0.00100
C 	C 	0.61105 0.96926 0.49625 -0.10400
C 	C 	0.92895 0.96914 0.49632 0.02500
C 	C 	0.82696 0.75148 0.28334 0.00400
C 	C 	0.86201 0.74691 0.21777 0.01000
C 	C 	0.89317 0.53422 0.00264 -0.63900
C 	C 	0.96594 0.56789 0.00578 0.27200
C 	C 	0.93017 0.63877 0.00768 0.45400
C 	C 	0.78901 0.74509 0.18362 -0.14300
C 	C 	0.82477 0.74490 0.11226 0.52100
C 	C 	0.71784 0.75334 0.31743 -0.12200
C 	C 	0.68174 0.75495 0.38843 0.52100
C 	C 	0.53872 0.93535 0.49311 -0.06100
C 	C 	0.57594 0.86404 0.49194 0.49300
O 	O 	0.82980 0.66825 0.00764 -0.75800
O 	O 	0.92520 0.74529 0.08281 -0.72900
O 	O 	0.75270 0.75543 0.41765 -0.66900
O 	O 	0.50484 0.83434 0.49239 -0.66800
O 	O 	0.67642 0.83491 0.49289 -0.66400
O 	O 	0.58135 0.75454 0.41757 -0.67700
O 	O 	0.75293 0.74589 0.08303 -0.76800
O 	O 	0.50232 0.66795 0.00653 -0.75200
O 	O 	0.87785 0.78006 0.47279 -1.14100
O 	O 	0.62679 0.72507 0.02958 -1.35600
H 	H 	0.63389 0.55786 0.00544 0.11700
H 	H 	0.62093 0.74605 0.19334 0.02500
H 	H 	0.55970 0.75368 0.30700 0.03900
H 	H 	0.69545 0.94514 0.49480 0.06400
H 	H 	0.86993 0.94501 0.49508 0.04000
H 	H 	0.88539 0.75409 0.30715 0.05600
H 	H 	0.94627 0.74578 0.19336 0.04700
H 	H 	0.80834 0.55820 0.00512 0.13200
H 	H 	0.87660 0.81503 0.44061 0.42900
H 	H 	0.62403 0.69444 0.06579 0.46800
Al	Al	0.25322 0.25145 0.50027 2.41500
Al	Al	0.00378 0.25094 0.50003 2.41300
C 	C 	0.07535 0.03414 0.50276 0.00200
C 	C 	0.17982 0.24703 0.71771 0.01700
C 	C 	0.14468 0.25136 0.78333 0.01000
C 	C 	0.11105 0.46926 0.99625 0.67500
C 	C 	0.42895 0.46914 0.99632 0.60300
C 	C 	0.32696 0.25148 0.78334 0.01400
C 	C 	0.36201 0.24691 0.71777 0.02100
C 	C 	0.39317 0.03422 0.50264 0.12200
C 	C 	0.46594 0.06789 0.50578 -0.18000
C 	C 	0.43017 0.13877 0.50768 0.54900
C 	C 	0.28901 0.24509 0.68362 -0.12300
C 	C 	0.32477 0.24490 0.61226 0.52900
C 	C 	0.21784 0.25334 0.81743 -0.09800
C 	C 	0.18174 0.25495 0.88843 0.52200
C 	C 	0.03872 0.43535 0.99311 -0.52500
C 	C 	0.07594 0.36404 0.99194 0.67100
O 	O 	0.32980 0.16825 0.50764 -0.67700
O 	O 	0.42520 0.24529 0.58281 -0.67100
O 	O 	0.25270 0.25543 0.91765 -0.56600
O 	O 	0.00484 0.33434 0.99239 -0.62900
O 	O 	0.17642 0.33491 0.99289 -0.59100
O 	O 	0.08135 0.25454 0.91757 -0.58600
O 	O 	0.25293 0.24589 0.58303 -0.67800
O 	O 	0.00232 0.16795 0.50653 -0.74100
O 	O 	0.37785 0.28006 0.97279 -0.96400
O 	O 	0.12679 0.22507 0.52958 -1.17800
H 	H 	0.13389 0.05786 0.50544 0.05100
H 	H 	0.12093 0.24605 0.69334 0.03100
H 	H 	0.05970 0.25368 0.80700 0.04200
H 	H 	0.19545 0.44514 0.99480 -0.04700
H 	H 	0.36993 0.44501 0.99508 -0.02600
H 	H 	0.38539 0.25409 0.80715 0.06200
H 	H 	0.44627 0.24578 0.69336 0.04700
H 	H 	0.30834 0.05820 0.50512 0.02600
H 	H 	0.37660 0.31503 0.94061 0.38100
H 	H 	0.12403 0.19444 0.56579 0.42300
Al	Al	0.75322 0.25145 0.50027 2.41500
Al	Al	0.50378 0.25094 0.50003 2.41500
C 	C 	0.57535 0.03414 0.50276 0.12500
C 	C 	0.67982 0.24703 0.71771 0.02200
C 	C 	0.64468 0.25136 0.78333 0.01600
C 	C 	0.61105 0.46926 0.99625 0.60700
C 	C 	0.92895 0.46914 0.99632 0.72400
C 	C 	0.82696 0.25148 0.78334 0.01900
C 	C 	0.86201 0.24691 0.71777 0.02600
C 	C 	0.89317 0.03422 0.50264 0.06100
C 	C 	0.96594 0.06789 0.50578 -0.07700
C 	C 	0.93017 0.13877 0.50768 0.59900
C 	C 	0.78901 0.24509 0.68362 -0.11200
C 	C 	0.82477 0.24490 0.61226 0.52600
C 	C 	0.71784 0.25334 0.81743 -0.08800
C 	C 	0.68174 0.25495 0.88843 0.52100
C 	C 	0.53872 0.43535 0.99311 -0.40100
C 	C 	0.57594 0.36404 0.99194 0.64000
O 	O 	0.82980 0.16825 0.50764 -0.68100
O 	O 	0.92520 0.24529 0.58281 -0.63300
O 	O 	0.75270 0.25543 0.91765 -0.55900
O 	O 	0.50484 0.33434 0.99239 -0.58100
O 	O 	0.67642 0.33491 0.99289 -0.57700
O 	O 	0.58135 0.25454 0.91757 -0.56600
O 	O 	0.75293 0.24589 0.58303 -0.66900
O 	O 	0.50232 0.16795 0.50653 -0.67300
O 	O 	0.87785 0.28006 0.97279 -0.94400
O 	O 	0.62679 0.22507 0.52958 -1.17200
H 	H 	0.63389 0.05786 0.50544 0.03000
H 	H 	0.62093 0.24605 0.69334 0.04800
H 	H 	0.55970 0.25368 0.80700 0.06300
H 	H 	0.69545 0.44514 0.99480 -0.02300
H 	H 	0.86993 0.44501 0.99508 -0.04200
H 	H 	0.88539 0.25409 0.80715 0.07800
H 	H 	0.94627 0.24578 0.69336 0.06800
H 	H 	0.80834 0.05820 0.50512 0.04700
H 	H 	0.87660 0.31503 0.94061 0.39300
H 	H 	0.62403 0.19444 0.56579 0.43500
Al	Al	0.25322 0.75145 0.50027 2.41500
Al	Al	0.00378 0.75094 0.50003 2.41200
C 	C 	0.07535 0.53414 0.50276 -0.11000
C 	C 	0.17982 0.74703 0.71771 0.01400
C 	C 	0.14468 0.75136 0.78333 0.00700
C 	C 	0.11105 0.96926 0.99625 0.55400
C 	C 	0.42895 0.96914 0.99632 0.48500
C 	C 	0.32696 0.75148 0.78334 0.01100
C 	C 	0.36201 0.74691 0.71777 0.01800
C 	C 	0.39317 0.53422 0.50264 0.01100
C 	C 	0.46594 0.56789 0.50578 -0.12300
C 	C 	0.43017 0.63877 0.50768 0.52500
C 	C 	0.28901 0.74509 0.68362 -0.12700
C 	C 	0.32477 0.74490 0.61226 0.52700
C 	C 	0.21784 0.75334 0.81743 -0.10000
C 	C 	0.18174 0.75495 0.88843 0.52000
C 	C 	0.03872 0.93535 0.99311 -0.46000
C 	C 	0.07594 0.86404 0.99194 0.64500
O 	O 	0.32980 0.66825 0.50764 -0.67400
O 	O 	0.42520 0.74529 0.58281 -0.67400
O 	O 	0.25270 0.75543 0.91765 -0.56700
O 	O 	0.00484 0.83434 0.99239 -0.62400
O 	O 	0.17642 0.83491 0.99289 -0.58700
O 	O 	0.08135 0.75454 0.91757 -0.58600
O 	O 	0.25293 0.74589 0.58303 -0.68100
O 	O 	0.00232 0.66795 0.50653 -0.73800
O 	O 	0.37785 0.78006 0.97279 -0.96300
O 	O 	0.12679 0.72507 0.52958 -1.17800
H 	H 	0.13389 0.55786 0.50544 0.06700
H 	H 	0.12093 0.74605 0.69334 0.02900
H 	H 	0.05970 0.75368 0.80700 0.04000
H 	H 	0.19545 0.94514 0.99480 -0.03000
H 	H 	0.36993 0.94501 0.99508 -0.01000
H 	H 	0.38539 0.75409 0.80715 0.06000
H 	H 	0.44627 0.74578 0.69336 0.04400
H 	H 	0.30834 0.55820 0.50512 0.04100
H 	H 	0.37660 0.81503 0.94061 0.37700
H 	H 	0.12403 0.69444 0.56579 0.41900
Al	Al	0.75322 0.75145 0.50027 2.41500
Al	Al	0.50378 0.75094 0.50003 2.41500
C 	C 	0.57535 0.53414 0.50276 0.01300
C 	C 	0.67982 0.74703 0.71771 0.01800
C 	C 	0.64468 0.75136 0.78333 0.01300
C 	C 	0.61105 0.96926 0.99625 0.48700
C 	C 	0.92895 0.96914 0.99632 0.60200
C 	C 	0.82696 0.75148 0.78334 0.01600
C 	C 	0.86201 0.74691 0.71777 0.02300
C 	C 	0.89317 0.53422 0.50264 -0.05100
C 	C 	0.96594 0.56789 0.50578 -0.01800
C 	C 	0.93017 0.63877 0.50768 0.57500
C 	C 	0.78901 0.74509 0.68362 -0.11500
C 	C 	0.82477 0.74490 0.61226 0.52400
C 	C 	0.71784 0.75334 0.81743 -0.09100
C 	C 	0.68174 0.75495 0.88843 0.51900
C 	C 	0.53872 0.93535 0.99311 -0.34000
C 	C 	0.57594 0.86404 0.99194 0.61500
O 	O 	0.82980 0.66825 0.50764 -0.67800
O 	O 	0.92520 0.74529 0.58281 -0.63500
O 	O 	0.75270 0.75543 0.91765 -0.56100
O 	O 	0.50484 0.83434 0.99239 -0.57800
O 	O 	0.67642 0.83491 0.99289 -0.57400
O 	O 	0.58135 0.75454 0.91757 -0.56700
O 	O 	0.75293 0.74589 0.58303 -0.67100
O 	O 	0.50232 0.66795 0.50653 -0.67000
O 	O 	0.87785 0.78006 0.97279 -0.94300
O 	O 	0.62679 0.72507 0.52958 -1.17200
H 	H 	0.63389 0.55786 0.50544 0.04600
H 	H 	0.62093 0.74605 0.69334 0.04600
H 	H 	0.55970 0.75368 0.80700 0.06000
H 	H 	0.69545 0.94514 0.99480 -0.00600
H 	H 	0.86993 0.94501 0.99508 -0.02500
H 	H 	0.88539 0.75409 0.80715 0.07600
H 	H 	0.94627 0.74578 0.69336 0.06500
H 	H 	0.80834 0.55820 0.50512 0.06300
H 	H 	0.87660 0.81503 0.94061 0.38800
H 	H 	0.62403 0.69444 0.56579 0.43100
