data_crystal

_cell_length_a 17.12900
_cell_length_b 6.62840
_cell_length_c 12.18160
_cell_angle_alpha 90.00000
_cell_angle_beta  90.00000
_cell_angle_gamma 90.00000

_symmetry_space_group_name_	'P 1'
_symmetry_space_group_name_H-M	'P 1'

loop_
_symmetry_equiv_pos_as_xyz
  x,y,z

loop_
_atom_site_label
_atom_site_type_symbol
_atom_site_fract_x
_atom_site_fract_y
_atom_site_fract_z
_atom_site_charge
O 	O 	0.08295 0.92756 0.08189 -0.72800
O 	O 	0.43312 0.92799 0.39387 -0.58600
C 	C 	0.22872 0.93670 0.19502 0.17700
C 	C 	0.29944 0.93681 0.25417 0.16500
H 	H 	0.20344 0.07928 0.17100 -0.15300
H 	H 	0.32573 0.07955 0.27542 -0.13100
O 	O 	0.41958 0.08310 0.57835 -0.74400
O 	O 	0.07025 0.08486 0.89497 -0.67000
C 	C 	0.27318 0.07140 0.69256 -0.15800
C 	C 	0.20192 0.07178 0.75098 -0.15400
H 	H 	0.29906 0.92886 0.67006 0.20900
H 	H 	0.17610 0.92868 0.77357 0.21100
O 	O 	0.91868 0.42746 0.91654 -0.44500
O 	O 	0.56964 0.42801 0.60310 -0.65900
C 	C 	0.77142 0.43670 0.80673 0.01300
C 	C 	0.70082 0.43685 0.74719 0.03500
H 	H 	0.79674 0.57957 0.83025 0.10100
H 	H 	0.67486 0.57972 0.72493 0.07000
O 	O 	0.58352 0.58315 0.41688 -0.67800
O 	O 	0.93250 0.58439 0.09914 -0.68100
C 	C 	0.72987 0.57114 0.30225 0.00400
C 	C 	0.80087 0.57158 0.24361 0.00100
H 	H 	0.70477 0.42860 0.32652 0.02200
H 	H 	0.82731 0.42877 0.22221 0.02400
O 	O 	0.91829 0.08423 0.91904 -0.53500
O 	O 	0.57171 0.08591 0.59858 -0.75300
C 	C 	0.77155 0.07344 0.80614 -0.15100
C 	C 	0.70097 0.07362 0.74645 -0.13300
H 	H 	0.79709 0.93047 0.82929 0.23500
H 	H 	0.67514 0.93071 0.72384 0.20800
O 	O 	0.58293 0.92635 0.41246 -0.58600
O 	O 	0.93337 0.92749 0.10242 -0.57900
C 	C 	0.72994 0.93450 0.30253 0.17600
C 	C 	0.80090 0.93487 0.24420 0.17400
H 	H 	0.70489 0.07746 0.32704 -0.12000
H 	H 	0.82734 0.07745 0.22321 -0.11900
O 	O 	0.08348 0.58500 0.07900 -0.83200
O 	O 	0.43136 0.58522 0.39797 -0.68500
C 	C 	0.22857 0.57340 0.19548 -0.00200
C 	C 	0.29926 0.57338 0.25488 -0.01100
H 	H 	0.20314 0.43077 0.17175 -0.00600
H 	H 	0.32534 0.43037 0.27655 0.01400
O 	O 	0.41998 0.42618 0.58233 -0.65200
O 	O 	0.06916 0.42744 0.89141 -0.58200
C 	C 	0.27313 0.43452 0.69225 0.01400
C 	C 	0.20191 0.43507 0.75039 0.01200
H 	H 	0.29897 0.57742 0.66955 0.06700
H 	H 	0.17617 0.57802 0.77264 0.07300
Al	Al	0.00184 0.00815 -0.00109 2.36900
Al	Al	0.50246 0.00700 0.49631 2.40200
Al	Al	0.00180 0.50804 -0.00372 2.38100
Al	Al	0.50149 0.50826 0.49995 2.41400
O 	O 	0.00033 0.75904 0.93824 -0.99700
C 	C 	0.40499 0.75581 0.36276 0.52000
C 	C 	0.11410 0.75578 0.10647 0.52200
C 	C 	0.33504 0.75518 0.28738 -0.16400
C 	C 	0.19073 0.75512 0.16757 -0.20200
O 	O 	0.50752 0.25915 0.43997 -1.18700
C 	C 	0.09648 0.25525 0.85941 0.49800
C 	C 	0.38857 0.25366 0.60574 0.50200
C 	C 	0.16579 0.25390 0.78301 -0.06800
C 	C 	0.31116 0.25317 0.66510 -0.07400
O 	O 	0.00901 0.25908 0.05589 -1.50300
C 	C 	0.59727 0.25599 0.63482 0.52200
C 	C 	0.88710 0.25546 0.89295 0.49000
C 	C 	0.66547 0.25545 0.71300 -0.08100
C 	C 	0.80956 0.25497 0.83393 -0.02200
O 	O 	0.50121 0.75932 0.55804 -1.13300
C 	C 	0.90602 0.75505 0.13439 0.51400
C 	C 	0.61417 0.75373 0.38894 0.52300
C 	C 	0.83658 0.75367 0.21089 -0.15400
C 	C 	0.69136 0.75312 0.32891 -0.16000
H 	H 	0.51416 0.26019 0.36979 0.36800
H 	H 	0.50215 0.76047 0.62887 0.47300
H 	H 	0.01841 0.26004 0.12543 0.41500
H 	H 	-0.00035 0.76007 0.86745 0.36000
