data_crystal

_cell_length_a 19.50420
_cell_length_b 15.20140
_cell_length_c 6.56930
_cell_angle_alpha 90.00000
_cell_angle_beta  104.18000
_cell_angle_gamma 90.00000

_symmetry_space_group_name_	'P 1'
_symmetry_space_group_name_H-M	'P 1'

loop_
_symmetry_equiv_pos_as_xyz
  x,y,z

loop_
_atom_site_label
_atom_site_type_symbol
_atom_site_fract_x
_atom_site_fract_y
_atom_site_fract_z
_atom_site_charge
Al	Al	0.50030 0.24370 0.51080 2.40400
O 	O 	0.49990 0.30250 0.26510 -1.19000
O 	O 	0.99560 0.55210 0.23840 -1.00900
O 	O 	0.91590 0.06960 0.87220 -0.48600
O 	O 	0.93550 0.08900 0.54930 -0.50600
O 	O 	0.55730 0.15890 0.44510 -0.74400
O 	O 	0.58250 0.18480 0.14100 -0.69500
C 	C 	0.81980 0.10662 0.58950 -0.06600
C 	C 	0.77270 0.10664 0.71540 -0.06400
C 	C 	0.70070 0.12479 0.62810 0.04000
C 	C 	0.67570 0.14239 0.41760 -0.21300
C 	C 	0.72300 0.14221 0.29360 0.04200
C 	C 	0.79480 0.12424 0.38110 -0.07600
C 	C 	0.89540 0.08731 0.67500 0.39300
C 	C 	0.60090 0.16242 0.33010 0.54200
H 	H 	0.78950 0.09399 0.86510 0.07200
H 	H 	0.66720 0.12510 0.71860 0.02400
H 	H 	0.70620 0.15493 0.14440 -0.00800
H 	H 	0.82830 0.12390 0.29140 0.05700
O 	O 	0.41410 0.30640 0.86650 -0.60300
O 	O 	0.44240 0.34660 0.56720 -0.58200
O 	O 	0.06320 0.41690 0.45680 -0.83600
O 	O 	0.08610 0.42970 0.14010 -0.73900
C 	C 	0.32370 0.35710 0.58960 -0.08500
C 	C 	0.27500 0.34440 0.70670 -0.02400
C 	C 	0.20280 0.36360 0.62200 0.03900
C 	C 	0.17990 0.39517 0.42140 -0.17000
C 	C 	0.22870 0.40830 0.30190 0.02600
C 	C 	0.30100 0.38900 0.38750 -0.02400
C 	C 	0.39850 0.33603 0.67850 0.45000
C 	C 	0.10480 0.41529 0.33560 0.51400
H 	H 	0.29080 0.32170 0.84910 0.09000
H 	H 	0.16810 0.35450 0.70660 0.04600
H 	H 	0.21270 0.43100 0.15920 0.01300
H 	H 	0.33610 0.39790 0.30330 0.04100
H 	H 	0.49500 0.36060 0.27900 0.37800
H 	H 	0.99300 0.61020 0.24500 0.44700
Al	Al	0.49970 0.74370 0.98920 2.40900
O 	O 	0.50010 0.80250 0.23490 -1.19200
O 	O 	0.00440 0.05210 0.26160 -1.53200
O 	O 	0.08410 0.56960 0.62780 -0.71200
O 	O 	0.06450 0.58900 0.95070 -0.73000
O 	O 	0.44270 0.65890 0.05490 -0.78400
O 	O 	0.41750 0.68480 0.35900 -0.65500
C 	C 	0.18020 0.60662 0.91050 0.12500
C 	C 	0.22730 0.60664 0.78460 -0.20100
C 	C 	0.29930 0.62479 0.87190 0.30700
C 	C 	0.32430 0.64239 0.08240 -0.42300
C 	C 	0.27700 0.64221 0.20640 0.22400
C 	C 	0.20520 0.62424 0.11890 -0.30000
C 	C 	0.10460 0.58731 0.82500 0.42200
C 	C 	0.39910 0.66242 0.16990 0.62400
H 	H 	0.21050 0.59399 0.63490 0.10200
H 	H 	0.33280 0.62510 0.78140 -0.02800
H 	H 	0.29380 0.65493 0.35560 -0.02700
H 	H 	0.17170 0.62390 0.20860 0.09000
O 	O 	0.58590 0.80640 0.63350 -0.61700
O 	O 	0.55760 0.84660 0.93280 -0.49300
O 	O 	0.93680 0.91690 0.04320 -0.57100
O 	O 	0.91390 0.92970 0.35990 -0.44800
C 	C 	0.67630 0.85710 0.91040 0.14700
C 	C 	0.72500 0.84440 0.79330 -0.16200
C 	C 	0.79720 0.86360 0.87800 0.28700
C 	C 	0.82010 0.89517 0.07860 -0.32100
C 	C 	0.77130 0.90830 0.19810 0.19700
C 	C 	0.69900 0.88900 0.11250 -0.23200
C 	C 	0.60150 0.83603 0.82150 0.40200
C 	C 	0.89520 0.91529 0.16440 0.58400
H 	H 	0.70920 0.82170 0.65090 0.11900
H 	H 	0.83190 0.85450 0.79340 0.01000
H 	H 	0.78730 0.93100 0.34080 0.03900
H 	H 	0.66390 0.89790 0.19670 0.13600
H 	H 	0.50500 0.86060 0.22100 0.40800
H 	H 	0.00700 0.11020 0.25500 0.35400
Al	Al	0.49970 0.75630 0.48920 2.40300
O 	O 	0.50010 0.69750 0.73490 -1.14900
O 	O 	0.00440 0.44790 0.76160 -1.36100
O 	O 	0.08410 0.93040 0.12780 -0.69700
O 	O 	0.06450 0.91100 0.45070 -0.74700
O 	O 	0.44270 0.84110 0.55490 -0.67800
O 	O 	0.41750 0.81520 0.85900 -0.57200
C 	C 	0.18020 0.89338 0.41050 -0.13500
C 	C 	0.22730 0.89336 0.28460 0.03600
C 	C 	0.29930 0.87521 0.37190 0.01700
C 	C 	0.32430 0.85761 0.58240 -0.10700
C 	C 	0.27700 0.85779 0.70640 0.01800
C 	C 	0.20520 0.87576 0.61890 0.04300
C 	C 	0.10460 0.91269 0.32500 0.52800
C 	C 	0.39910 0.83758 0.66990 0.53700
H 	H 	0.21050 0.90601 0.13490 0.03800
H 	H 	0.33280 0.87490 0.28140 0.05400
H 	H 	0.29380 0.84507 0.85560 0.08500
H 	H 	0.17170 0.87610 0.70860 0.05000
O 	O 	0.58590 0.69360 0.13350 -0.69600
O 	O 	0.55760 0.65340 0.43280 -0.59300
O 	O 	0.93680 0.58310 0.54320 -0.56100
O 	O 	0.91390 0.57030 0.85990 -0.45400
C 	C 	0.67630 0.64290 0.41040 -0.13200
C 	C 	0.72500 0.65560 0.29330 0.01200
C 	C 	0.79720 0.63640 0.37800 -0.00900
C 	C 	0.82010 0.60483 0.57860 -0.09800
C 	C 	0.77130 0.59170 0.69810 -0.00500
C 	C 	0.69900 0.61100 0.61250 0.01500
C 	C 	0.60150 0.66397 0.32150 0.47300
C 	C 	0.89520 0.58471 0.66440 0.49000
H 	H 	0.70920 0.67830 0.15090 0.02400
H 	H 	0.83190 0.64550 0.29340 0.04900
H 	H 	0.78730 0.56900 0.84080 0.07700
H 	H 	0.66390 0.60210 0.69670 0.05700
H 	H 	0.50500 0.63940 0.72100 0.40500
H 	H 	0.00700 0.38980 0.75500 0.36200
Al	Al	0.50030 0.25630 0.01080 2.39600
O 	O 	0.49990 0.19750 0.76510 -1.14400
O 	O 	0.99560 0.94790 0.73840 -0.84200
O 	O 	0.91590 0.43040 0.37220 -0.48400
O 	O 	0.93550 0.41100 0.04930 -0.52900
O 	O 	0.55730 0.34110 0.94510 -0.63500
O 	O 	0.58250 0.31520 0.64100 -0.60700
C 	C 	0.81980 0.39338 0.08950 -0.33000
C 	C 	0.77270 0.39336 0.21540 0.17600
C 	C 	0.70070 0.37521 0.12810 -0.25500
C 	C 	0.67570 0.35761 0.91760 0.10800
C 	C 	0.72300 0.35779 0.79360 -0.16700
C 	C 	0.79480 0.37576 0.88110 0.26800
C 	C 	0.89540 0.41269 0.17500 0.50300
C 	C 	0.60090 0.33758 0.83010 0.45300
H 	H 	0.78950 0.40601 0.36510 0.00300
H 	H 	0.66720 0.37490 0.21860 0.10500
H 	H 	0.70620 0.34507 0.64440 0.10600
H 	H 	0.82830 0.37610 0.79140 0.01600
O 	O 	0.41410 0.19360 0.36650 -0.68900
O 	O 	0.44240 0.15340 0.06720 -0.69200
O 	O 	0.06320 0.08310 0.95680 -0.80400
O 	O 	0.08610 0.07030 0.64010 -0.73400
C 	C 	0.32370 0.14290 0.08960 -0.40600
C 	C 	0.27500 0.15560 0.20670 0.18400
C 	C 	0.20280 0.13640 0.12200 -0.30800
C 	C 	0.17990 0.10483 0.92140 0.09900
C 	C 	0.22870 0.09170 0.80190 -0.20900
C 	C 	0.30100 0.11100 0.88750 0.26900
C 	C 	0.39850 0.16397 0.17850 0.53600
C 	C 	0.10480 0.08471 0.83560 0.40200
H 	H 	0.29080 0.17830 0.34910 -0.01900
H 	H 	0.16810 0.14550 0.20660 0.09400
H 	H 	0.21270 0.06900 0.65920 0.06300
H 	H 	0.33610 0.10210 0.80330 -0.04800
H 	H 	0.49500 0.13940 0.77900 0.37900
H 	H 	0.99300 0.88980 0.74500 0.44800
Al	Al	-0.00000 0.50000 -0.00000 2.36900
Al	Al	0.00000 0.00000 0.50000 2.36100
Al	Al	0.00000 0.50000 0.50000 2.37500
Al	Al	-0.00000 0.00000 -0.00000 2.35400
