data_crystal

_cell_length_a 10.42500
_cell_length_b 10.62000
_cell_length_c 11.32300
_cell_angle_alpha 83.41000
_cell_angle_beta  74.96000
_cell_angle_gamma 69.67000

_symmetry_space_group_name_	'P 1'
_symmetry_space_group_name_H-M	'P 1'

loop_
_symmetry_equiv_pos_as_xyz
  x,y,z

loop_
_atom_site_label
_atom_site_type_symbol
_atom_site_fract_x
_atom_site_fract_y
_atom_site_fract_z
_atom_site_charge
Dy	Dy	0.58699 0.59728 0.63175 1.76400
O 	O 	0.39660 0.61680 0.40510 -0.51700
O 	O 	0.47160 0.74170 0.49640 -0.49300
O 	O 	0.28290 0.24910 0.43960 -0.46100
O 	O 	0.05140 0.31870 0.45450 -0.44000
O 	O 	0.87130 0.06270 0.26230 -0.11100
O 	O 	0.94940 0.84840 0.27470 -0.09700
O 	O 	0.00290 0.44110 0.66950 -0.44300
O 	O 	0.77080 0.49620 0.71980 -0.52100
O 	O 	0.52900 0.48140 0.16490 -0.36000
O 	O 	0.65830 0.39120 0.29780 -0.39400
O 	O 	0.17600 0.24770 0.15880 -0.13400
O 	O 	0.27110 0.23410 0.96790 -0.10800
N 	N 	0.96020 0.95600 0.28310 0.00900
N 	N 	0.16920 0.26130 0.05200 -0.00300
C 	C 	0.28140 0.85280 0.40600 -0.12200
C 	C 	0.28210 0.97800 0.43140 0.05100
H 	H 	0.35430 0.98340 0.46240 0.04400
C 	C 	0.17550 0.09500 0.41080 -0.07400
C 	C 	0.06780 0.08670 0.36380 -0.08700
H 	H 	0.99410 0.16330 0.35200 0.12200
C 	C 	0.07320 0.96200 0.33540 0.06000
C 	C 	0.17750 0.84390 0.35530 -0.01400
H 	H 	0.17780 0.76130 0.33530 0.05300
C 	C 	0.39190 0.72720 0.43730 0.48500
C 	C 	0.17120 0.23180 0.43710 0.42100
C 	C 	0.89430 0.41820 0.87660 -0.05800
C 	C 	0.77180 0.44390 0.96950 0.02100
H 	H 	0.68460 0.48400 0.95060 0.05700
C 	C 	0.77930 0.40990 0.09050 -0.05100
C 	C 	0.90990 0.34940 0.11890 -0.01100
H 	H 	0.91680 0.32610 0.19930 0.08000
C 	C 	0.02820 0.32510 0.02460 0.05300
C 	C 	0.02470 0.35710 0.90460 -0.06400
H 	H 	0.10730 0.33840 0.84340 0.09500
C 	C 	0.88790 0.45540 0.74640 0.47200
C 	C 	0.64800 0.43040 0.18990 0.30100
Dy	Dy	0.41301 0.40272 0.36825 1.75300
O 	O 	0.60340 0.38320 0.59490 -0.51700
O 	O 	0.52840 0.25830 0.50360 -0.49400
O 	O 	0.71710 0.75090 0.56040 -0.46400
O 	O 	0.94860 0.68130 0.54550 -0.41000
O 	O 	0.12870 0.93730 0.73770 -0.12300
O 	O 	0.05060 0.15160 0.72530 -0.12000
O 	O 	0.99710 0.55890 0.33050 -0.37200
O 	O 	0.22920 0.50380 0.28020 -0.50800
O 	O 	0.47100 0.51860 0.83510 -0.35800
O 	O 	0.34170 0.60880 0.70220 -0.39400
O 	O 	0.82400 0.75230 0.84120 -0.11900
O 	O 	0.72890 0.76590 0.03210 -0.10700
N 	N 	0.03980 0.04400 0.71690 -0.01100
N 	N 	0.83080 0.73870 0.94800 -0.01000
C 	C 	0.71860 0.14720 0.59400 -0.14000
C 	C 	0.71790 0.02200 0.56860 0.08600
H 	H 	0.64570 0.01660 0.53760 0.03300
C 	C 	0.82450 0.90500 0.58920 -0.12700
C 	C 	0.93220 0.91330 0.63620 0.06400
H 	H 	0.00590 0.83670 0.64800 0.02200
C 	C 	0.92680 0.03800 0.66460 0.06100
C 	C 	0.82250 0.15610 0.64470 0.00800
H 	H 	0.82220 0.23870 0.66470 0.06000
C 	C 	0.60810 0.27280 0.56270 0.49300
C 	C 	0.82880 0.76820 0.56290 0.43900
C 	C 	0.10570 0.58180 0.12340 -0.10600
C 	C 	0.22820 0.55610 0.03050 0.01400
H 	H 	0.31540 0.51600 0.04940 0.06000
C 	C 	0.22070 0.59010 0.90950 -0.02400
C 	C 	0.09010 0.65060 0.88110 -0.11500
H 	H 	0.08320 0.67390 0.80070 0.10000
C 	C 	0.97180 0.67490 0.97540 0.12900
C 	C 	0.97530 0.64290 0.09540 -0.00800
H 	H 	0.89270 0.66160 0.15660 0.08200
C 	C 	0.11210 0.54460 0.25360 0.40000
C 	C 	0.35200 0.56960 0.81010 0.29000
Cu	Cu	0.00000 0.50000 0.50000 0.90800
