data_crystal

_cell_length_a 10.59900
_cell_length_b 10.68100
_cell_length_c 11.42400
_cell_angle_alpha 82.67000
_cell_angle_beta  74.14000
_cell_angle_gamma 69.32000

_symmetry_space_group_name_	'P 1'
_symmetry_space_group_name_H-M	'P 1'

loop_
_symmetry_equiv_pos_as_xyz
  x,y,z

loop_
_atom_site_label
_atom_site_type_symbol
_atom_site_fract_x
_atom_site_fract_y
_atom_site_fract_z
_atom_site_charge
Pr	Pr	0.58905 0.59790 0.62865 2.04500
O 	O 	0.39700 0.62390 0.40860 -0.55700
O 	O 	0.47090 0.75300 0.49100 -0.51300
O 	O 	0.26750 0.25440 0.44750 -0.50500
O 	O 	0.04080 0.32150 0.45520 -0.43700
O 	O 	0.87760 0.06020 0.26040 -0.11400
O 	O 	0.95660 0.84760 0.27470 -0.09700
O 	O 	0.00800 0.43960 0.66780 -0.44700
O 	O 	0.78110 0.48530 0.71640 -0.55200
O 	O 	0.53590 0.47780 0.15970 -0.40000
O 	O 	0.66170 0.38650 0.29270 -0.43500
O 	O 	0.17120 0.25130 0.15740 -0.13900
O 	O 	0.27050 0.23980 0.96710 -0.11200
N 	N 	0.96270 0.95630 0.28500 0.00900
N 	N 	0.16760 0.26520 0.05100 -0.00300
C 	C 	0.28000 0.85830 0.40500 -0.10700
C 	C 	0.27580 0.98430 0.43140 0.03700
H 	H 	0.34520 0.99130 0.46270 0.04600
C 	C 	0.16920 0.09840 0.41140 -0.06600
C 	C 	0.06480 0.08830 0.36430 -0.09400
H 	H 	0.99100 0.16390 0.35270 0.12400
C 	C 	0.07400 0.96380 0.33540 0.06900
C 	C 	0.17780 0.84790 0.35550 -0.02900
H 	H 	0.17960 0.76500 0.33650 0.05600
C 	C 	0.39100 0.73520 0.43570 0.44900
C 	C 	0.16080 0.23510 0.44020 0.40400
C 	C 	0.89900 0.41370 0.87390 -0.05800
C 	C 	0.77760 0.43810 0.96500 0.01900
H 	H 	0.69210 0.47650 0.94540 0.05400
C 	C 	0.78250 0.40550 0.08630 -0.05000
C 	C 	0.91090 0.34740 0.11540 -0.01100
H 	H 	0.91580 0.32470 0.19570 0.08200
C 	C 	0.03070 0.32410 0.02220 0.05400
C 	C 	0.02800 0.35530 0.90180 -0.06100
H 	H 	0.11010 0.33790 0.84080 0.09200
C 	C 	0.89470 0.44950 0.74330 0.46900
C 	C 	0.65070 0.42660 0.18540 0.30100
Pr	Pr	0.41095 0.40210 0.37135 2.04400
O 	O 	0.60300 0.37610 0.59140 -0.55500
O 	O 	0.52910 0.24700 0.50900 -0.51500
O 	O 	0.73250 0.74560 0.55250 -0.50600
O 	O 	0.95920 0.67850 0.54480 -0.40600
O 	O 	0.12240 0.93980 0.73960 -0.12600
O 	O 	0.04340 0.15240 0.72530 -0.12100
O 	O 	0.99200 0.56040 0.33220 -0.37700
O 	O 	0.21890 0.51470 0.28360 -0.54100
O 	O 	0.46410 0.52220 0.84030 -0.39700
O 	O 	0.33830 0.61350 0.70730 -0.43500
O 	O 	0.82880 0.74870 0.84260 -0.12400
O 	O 	0.72950 0.76020 0.03290 -0.11100
N 	N 	0.03730 0.04370 0.71500 -0.01000
N 	N 	0.83240 0.73480 0.94900 -0.01000
C 	C 	0.72000 0.14170 0.59500 -0.12400
C 	C 	0.72420 0.01570 0.56860 0.07100
H 	H 	0.65480 0.00870 0.53730 0.03500
C 	C 	0.83080 0.90160 0.58860 -0.11700
C 	C 	0.93520 0.91170 0.63570 0.05600
H 	H 	0.00900 0.83610 0.64730 0.02600
C 	C 	0.92600 0.03620 0.66460 0.06800
C 	C 	0.82220 0.15210 0.64450 -0.00700
H 	H 	0.82040 0.23500 0.66350 0.06300
C 	C 	0.60900 0.26480 0.56430 0.45600
C 	C 	0.83920 0.76490 0.55980 0.42200
C 	C 	0.10100 0.58630 0.12610 -0.10600
C 	C 	0.22240 0.56190 0.03500 0.01300
H 	H 	0.30790 0.52350 0.05460 0.05600
C 	C 	0.21750 0.59450 0.91370 -0.02400
C 	C 	0.08910 0.65260 0.88460 -0.11200
H 	H 	0.08420 0.67530 0.80430 0.10100
C 	C 	0.96930 0.67590 0.97780 0.12700
C 	C 	0.97200 0.64470 0.09820 -0.00500
H 	H 	0.88990 0.66210 0.15920 0.07900
C 	C 	0.10530 0.55050 0.25670 0.39700
C 	C 	0.34930 0.57340 0.81460 0.29000
Cu	Cu	0.00000 0.50000 0.50000 0.90200
