data_crystal

_cell_length_a 10.39900
_cell_length_b 10.60600
_cell_length_c 11.30000
_cell_angle_alpha 83.50000
_cell_angle_beta  75.15000
_cell_angle_gamma 69.62000

_symmetry_space_group_name_	'P 1'
_symmetry_space_group_name_H-M	'P 1'

loop_
_symmetry_equiv_pos_as_xyz
  x,y,z

loop_
_atom_site_label
_atom_site_type_symbol
_atom_site_fract_x
_atom_site_fract_y
_atom_site_fract_z
_atom_site_charge
Er	Er	0.58641 0.59630 0.63277 1.69200
O 	O 	0.39550 0.61550 0.40590 -0.50600
O 	O 	0.47170 0.73960 0.49910 -0.48000
O 	O 	0.28670 0.24830 0.43680 -0.44900
O 	O 	0.05400 0.31810 0.45450 -0.43500
O 	O 	0.87070 0.06270 0.26290 -0.11000
O 	O 	0.94960 0.84860 0.27350 -0.09600
O 	O 	0.00110 0.44270 0.67060 -0.44400
O 	O 	0.76890 0.49770 0.72000 -0.51700
O 	O 	0.52770 0.48320 0.16460 -0.35200
O 	O 	0.65710 0.39400 0.29870 -0.38500
O 	O 	0.17510 0.24620 0.16000 -0.13200
O 	O 	0.27150 0.23310 0.96820 -0.10600
N 	N 	0.95770 0.95690 0.28570 0.00900
N 	N 	0.16880 0.26170 0.05280 -0.00500
C 	C 	0.28180 0.85100 0.40710 -0.11900
C 	C 	0.28380 0.97650 0.43160 0.04800
H 	H 	0.35670 0.98150 0.46220 0.04700
C 	C 	0.17700 0.09440 0.41070 -0.07100
C 	C 	0.06920 0.08610 0.36450 -0.08800
H 	H 	0.99560 0.16330 0.35280 0.12300
C 	C 	0.07280 0.96180 0.33610 0.06100
C 	C 	0.17650 0.84390 0.35700 -0.01500
H 	H 	0.17550 0.76130 0.33780 0.05500
C 	C 	0.39130 0.72560 0.43870 0.47600
C 	C 	0.17490 0.23060 0.43580 0.41600
C 	C 	0.89270 0.41950 0.87730 -0.05500
C 	C 	0.76990 0.44580 0.96990 0.01800
H 	H 	0.68250 0.48650 0.95080 0.06000
C 	C 	0.77770 0.41150 0.09100 -0.04800
C 	C 	0.90930 0.35040 0.11950 -0.01300
H 	H 	0.91620 0.32750 0.20000 0.08100
C 	C 	0.02900 0.32490 0.02470 0.05700
C 	C 	0.02440 0.35750 0.90510 -0.06800
H 	H 	0.10680 0.33900 0.84360 0.09700
C 	C 	0.88610 0.45630 0.74630 0.47700
C 	C 	0.64620 0.43310 0.19060 0.30000
Er	Er	0.41359 0.40370 0.36723 1.67900
O 	O 	0.60450 0.38450 0.59410 -0.50600
O 	O 	0.52830 0.26040 0.50090 -0.48100
O 	O 	0.71330 0.75170 0.56320 -0.45200
O 	O 	0.94600 0.68190 0.54550 -0.40400
O 	O 	0.12930 0.93730 0.73710 -0.12100
O 	O 	0.05040 0.15140 0.72650 -0.11900
O 	O 	0.99890 0.55730 0.32940 -0.37200
O 	O 	0.23110 0.50230 0.28000 -0.50300
O 	O 	0.47230 0.51680 0.83540 -0.35000
O 	O 	0.34290 0.60600 0.70130 -0.38500
O 	O 	0.82490 0.75380 0.84000 -0.11600
O 	O 	0.72850 0.76690 0.03180 -0.10500
N 	N 	0.04230 0.04310 0.71430 -0.01000
N 	N 	0.83120 0.73830 0.94720 -0.01200
C 	C 	0.71820 0.14900 0.59290 -0.13700
C 	C 	0.71620 0.02350 0.56840 0.08300
H 	H 	0.64330 0.01850 0.53780 0.03500
C 	C 	0.82300 0.90560 0.58930 -0.12500
C 	C 	0.93080 0.91390 0.63550 0.06500
H 	H 	0.00440 0.83670 0.64720 0.02300
C 	C 	0.92720 0.03820 0.66390 0.06100
C 	C 	0.82350 0.15610 0.64300 0.00700
H 	H 	0.82450 0.23870 0.66220 0.06200
C 	C 	0.60870 0.27440 0.56130 0.48400
C 	C 	0.82510 0.76940 0.56420 0.43600
C 	C 	0.10730 0.58050 0.12270 -0.10300
C 	C 	0.23010 0.55420 0.03010 0.01200
H 	H 	0.31750 0.51350 0.04920 0.06200
C 	C 	0.22230 0.58850 0.90900 -0.02200
C 	C 	0.09070 0.64960 0.88050 -0.11600
H 	H 	0.08380 0.67250 0.80000 0.10100
C 	C 	0.97100 0.67510 0.97530 0.13100
C 	C 	0.97560 0.64250 0.09490 -0.01100
H 	H 	0.89320 0.66100 0.15640 0.08400
C 	C 	0.11390 0.54370 0.25370 0.40300
C 	C 	0.35380 0.56690 0.80940 0.28900
Cu	Cu	-0.00000 0.50000 0.50000 0.91000
