data_crystal

_cell_length_a 10.44500
_cell_length_b 10.63600
_cell_length_c 11.32600
_cell_angle_alpha 83.28000
_cell_angle_beta  74.83000
_cell_angle_gamma 69.60000

_symmetry_space_group_name_	'P 1'
_symmetry_space_group_name_H-M	'P 1'

loop_
_symmetry_equiv_pos_as_xyz
  x,y,z

loop_
_atom_site_label
_atom_site_type_symbol
_atom_site_fract_x
_atom_site_fract_y
_atom_site_fract_z
_atom_site_charge
Tb	Tb	0.58736 0.59682 0.63162 1.81100
O 	O 	0.39640 0.61840 0.40620 -0.52300
O 	O 	0.47100 0.74380 0.49650 -0.49800
O 	O 	0.28110 0.25040 0.44070 -0.46800
O 	O 	0.05060 0.31880 0.45440 -0.43900
O 	O 	0.87280 0.06160 0.26210 -0.11200
O 	O 	0.95090 0.84790 0.27430 -0.09800
O 	O 	0.00350 0.44160 0.66950 -0.44900
O 	O 	0.77280 0.49420 0.71900 -0.53000
O 	O 	0.53020 0.48200 0.16360 -0.36700
O 	O 	0.65820 0.39110 0.29700 -0.40300
O 	O 	0.17400 0.24740 0.15950 -0.13500
O 	O 	0.27150 0.23530 0.96890 -0.10900
N 	N 	0.95870 0.95680 0.28540 0.01000
N 	N 	0.16860 0.26250 0.05260 -0.00400
C 	C 	0.28150 0.85350 0.40620 -0.12800
C 	C 	0.28130 0.97930 0.43140 0.05600
H 	H 	0.35310 0.98500 0.46230 0.04200
C 	C 	0.17500 0.09570 0.41070 -0.08000
C 	C 	0.06740 0.08640 0.36450 -0.08300
H 	H 	0.99320 0.16270 0.35330 0.12100
C 	C 	0.07330 0.96230 0.33570 0.05800
C 	C 	0.17690 0.84460 0.35570 -0.01100
H 	H 	0.17680 0.76210 0.33620 0.05100
C 	C 	0.39110 0.72900 0.43780 0.48800
C 	C 	0.17060 0.23170 0.43720 0.42300
C 	C 	0.89500 0.41730 0.87640 -0.06500
C 	C 	0.77270 0.44340 0.96850 0.02600
H 	H 	0.68580 0.48350 0.94920 0.05400
C 	C 	0.77970 0.40970 0.09030 -0.05500
C 	C 	0.90990 0.34920 0.11870 -0.00800
H 	H 	0.91610 0.32590 0.19920 0.07900
C 	C 	0.02990 0.32460 0.02450 0.05200
C 	C 	0.02550 0.35630 0.90430 -0.06000
H 	H 	0.10790 0.33740 0.84280 0.09300
C 	C 	0.88960 0.45370 0.74580 0.48300
C 	C 	0.64780 0.43090 0.18910 0.30600
Tb	Tb	0.41264 0.40318 0.36838 1.80000
O 	O 	0.60360 0.38160 0.59380 -0.52400
O 	O 	0.52900 0.25620 0.50350 -0.49900
O 	O 	0.71890 0.74960 0.55930 -0.47100
O 	O 	0.94940 0.68120 0.54560 -0.40900
O 	O 	0.12720 0.93840 0.73790 -0.12400
O 	O 	0.04910 0.15210 0.72570 -0.12100
O 	O 	0.99650 0.55840 0.33050 -0.37700
O 	O 	0.22720 0.50580 0.28100 -0.51700
O 	O 	0.46980 0.51800 0.83640 -0.36500
O 	O 	0.34180 0.60890 0.70300 -0.40300
O 	O 	0.82600 0.75260 0.84050 -0.11900
O 	O 	0.72850 0.76470 0.03110 -0.10800
N 	N 	0.04130 0.04320 0.71460 -0.01000
N 	N 	0.83140 0.73750 0.94740 -0.01000
C 	C 	0.71850 0.14650 0.59380 -0.14600
C 	C 	0.71870 0.02070 0.56860 0.09000
H 	H 	0.64690 0.01500 0.53770 0.03000
C 	C 	0.82500 0.90430 0.58930 -0.13300
C 	C 	0.93260 0.91360 0.63550 0.06800
H 	H 	0.00680 0.83730 0.64670 0.02100
C 	C 	0.92670 0.03770 0.66430 0.05700
C 	C 	0.82310 0.15540 0.64430 0.01100
H 	H 	0.82320 0.23790 0.66380 0.05800
C 	C 	0.60890 0.27100 0.56220 0.49600
C 	C 	0.82940 0.76830 0.56280 0.44100
C 	C 	0.10500 0.58270 0.12360 -0.11300
C 	C 	0.22730 0.55660 0.03150 0.02000
H 	H 	0.31420 0.51650 0.05080 0.05600
C 	C 	0.22030 0.59030 0.90970 -0.02900
C 	C 	0.09010 0.65080 0.88130 -0.11000
H 	H 	0.08390 0.67410 0.80080 0.09800
C 	C 	0.97010 0.67540 0.97550 0.12600
C 	C 	0.97450 0.64370 0.09570 -0.00300
H 	H 	0.89210 0.66260 0.15720 0.08000
C 	C 	0.11040 0.54630 0.25420 0.40900
C 	C 	0.35220 0.56910 0.81090 0.29500
Cu	Cu	0.00000 0.50000 0.50000 0.90700
