data_crystal

_cell_length_a 10.50000
_cell_length_b 10.63500
_cell_length_c 11.37300
_cell_angle_alpha 82.98000
_cell_angle_beta  74.42000
_cell_angle_gamma 69.60000

_symmetry_space_group_name_	'P 1'
_symmetry_space_group_name_H-M	'P 1'

loop_
_symmetry_equiv_pos_as_xyz
  x,y,z

loop_
_atom_site_label
_atom_site_type_symbol
_atom_site_fract_x
_atom_site_fract_y
_atom_site_fract_z
_atom_site_charge
Eu	Eu	0.58804 0.59837 0.62980 1.88700
O 	O 	0.39700 0.62000 0.40580 -0.53300
O 	O 	0.47270 0.74570 0.49240 -0.50900
O 	O 	0.27480 0.25160 0.44570 -0.48100
O 	O 	0.04600 0.31930 0.45460 -0.43900
O 	O 	0.87780 0.06050 0.25770 -0.11300
O 	O 	0.95260 0.84840 0.27420 -0.09900
O 	O 	0.00480 0.44070 0.66870 -0.45000
O 	O 	0.77460 0.49320 0.71910 -0.53700
O 	O 	0.53270 0.47630 0.16310 -0.37900
O 	O 	0.65900 0.38850 0.29650 -0.41200
O 	O 	0.17440 0.25080 0.15630 -0.13800
O 	O 	0.27120 0.23290 0.96590 -0.11100
N 	N 	0.96170 0.95640 0.28310 0.01100
N 	N 	0.16900 0.26200 0.05070 -0.00200
C 	C 	0.28190 0.85440 0.40420 -0.13400
C 	C 	0.27910 0.98070 0.43140 0.05700
H 	H 	0.34920 0.98700 0.46350 0.03800
C 	C 	0.17320 0.09560 0.41110 -0.08100
C 	C 	0.06650 0.08780 0.36380 -0.08100
H 	H 	0.99270 0.16410 0.35260 0.11900
C 	C 	0.07480 0.96180 0.33410 0.05500
C 	C 	0.17780 0.84600 0.35440 -0.00700
H 	H 	0.17810 0.76330 0.33520 0.04800
C 	C 	0.39180 0.73090 0.43590 0.49300
C 	C 	0.16680 0.23280 0.43900 0.42200
C 	C 	0.89630 0.41590 0.87530 -0.06600
C 	C 	0.77500 0.44020 0.96750 0.02800
H 	H 	0.68850 0.47970 0.94860 0.05200
C 	C 	0.78120 0.40590 0.08880 -0.05800
C 	C 	0.91010 0.34790 0.11690 -0.00600
H 	H 	0.91600 0.32560 0.19730 0.07700
C 	C 	0.03010 0.32380 0.02250 0.05000
C 	C 	0.02600 0.35570 0.90290 -0.05900
H 	H 	0.10820 0.33750 0.84140 0.09200
C 	C 	0.89020 0.45380 0.74510 0.48400
C 	C 	0.64930 0.42660 0.18800 0.31000
Eu	Eu	0.41196 0.40163 0.37020 1.87600
O 	O 	0.60300 0.38000 0.59420 -0.53400
O 	O 	0.52730 0.25430 0.50760 -0.51000
O 	O 	0.72520 0.74840 0.55430 -0.48400
O 	O 	0.95400 0.68070 0.54540 -0.40800
O 	O 	0.12220 0.93950 0.74230 -0.12500
O 	O 	0.04740 0.15160 0.72580 -0.12200
O 	O 	0.99520 0.55930 0.33130 -0.37900
O 	O 	0.22540 0.50680 0.28090 -0.52400
O 	O 	0.46730 0.52370 0.83690 -0.37700
O 	O 	0.34100 0.61150 0.70350 -0.41200
O 	O 	0.82560 0.74920 0.84370 -0.12200
O 	O 	0.72880 0.76710 0.03410 -0.11000
N 	N 	0.03830 0.04360 0.71690 -0.00800
N 	N 	0.83100 0.73800 0.94930 -0.00900
C 	C 	0.71810 0.14560 0.59580 -0.15100
C 	C 	0.72090 0.01930 0.56860 0.09100
H 	H 	0.65080 0.01300 0.53650 0.02700
C 	C 	0.82680 0.90440 0.58890 -0.13300
C 	C 	0.93350 0.91220 0.63620 0.06800
H 	H 	0.00730 0.83590 0.64740 0.02000
C 	C 	0.92520 0.03820 0.66590 0.05600
C 	C 	0.82220 0.15400 0.64560 0.01400
H 	H 	0.82190 0.23670 0.66480 0.05500
C 	C 	0.60820 0.26910 0.56410 0.50000
C 	C 	0.83320 0.76720 0.56100 0.43900
C 	C 	0.10370 0.58410 0.12470 -0.11400
C 	C 	0.22500 0.55980 0.03250 0.02100
H 	H 	0.31150 0.52030 0.05140 0.05500
C 	C 	0.21880 0.59410 0.91120 -0.03200
C 	C 	0.08990 0.65210 0.88310 -0.10700
H 	H 	0.08400 0.67440 0.80270 0.09700
C 	C 	0.96990 0.67620 0.97750 0.12300
C 	C 	0.97400 0.64430 0.09710 -0.00200
H 	H 	0.89180 0.66250 0.15860 0.07900
C 	C 	0.10980 0.54620 0.25490 0.41100
C 	C 	0.35070 0.57340 0.81200 0.29900
Cu	Cu	-0.00000 0.50000 0.50000 0.90400
