data_crystal

_cell_length_a 10.52800
_cell_length_b 10.67100
_cell_length_c 11.37800
_cell_angle_alpha 83.14000
_cell_angle_beta  74.61000
_cell_angle_gamma 69.34000

_symmetry_space_group_name_	'P 1'
_symmetry_space_group_name_H-M	'P 1'

loop_
_symmetry_equiv_pos_as_xyz
  x,y,z

loop_
_atom_site_label
_atom_site_type_symbol
_atom_site_fract_x
_atom_site_fract_y
_atom_site_fract_z
_atom_site_charge
Sm	Sm	0.58795 0.59672 0.63094 1.97100
O 	O 	0.39590 0.62080 0.40760 -0.55000
O 	O 	0.47030 0.74780 0.49540 -0.52200
O 	O 	0.27560 0.25220 0.44230 -0.49300
O 	O 	0.04670 0.32000 0.45480 -0.44400
O 	O 	0.87410 0.06100 0.26310 -0.11500
O 	O 	0.95370 0.84790 0.27440 -0.09900
O 	O 	0.00570 0.44090 0.66840 -0.45300
O 	O 	0.77630 0.48890 0.71780 -0.54800
O 	O 	0.53280 0.48090 0.16170 -0.38300
O 	O 	0.66050 0.38870 0.29510 -0.41800
O 	O 	0.17200 0.24910 0.15930 -0.13900
O 	O 	0.27150 0.23990 0.96810 -0.11300
N 	N 	0.96080 0.95680 0.28630 0.01000
N 	N 	0.16790 0.26450 0.05230 -0.00400
C 	C 	0.28090 0.85570 0.40610 -0.13400
C 	C 	0.27930 0.98150 0.43150 0.06000
H 	H 	0.35010 0.98780 0.46260 0.03700
C 	C 	0.17260 0.09710 0.41060 -0.08500
C 	C 	0.06680 0.08810 0.36490 -0.07800
H 	H 	0.99270 0.16430 0.35390 0.11700
C 	C 	0.07380 0.96320 0.33620 0.05300
C 	C 	0.17710 0.84590 0.35680 -0.00700
H 	H 	0.17730 0.76320 0.33840 0.04800
C 	C 	0.39090 0.73180 0.43810 0.49500
C 	C 	0.16740 0.23340 0.43770 0.43000
C 	C 	0.89730 0.41600 0.87490 -0.07000
C 	C 	0.77550 0.44130 0.96720 0.03100
H 	H 	0.68920 0.48120 0.94780 0.04800
C 	C 	0.78070 0.40790 0.08810 -0.05700
C 	C 	0.91020 0.34860 0.11730 -0.00700
H 	H 	0.91560 0.32570 0.19770 0.07800
C 	C 	0.03110 0.32470 0.02330 0.04900
C 	C 	0.02660 0.35640 0.90300 -0.05600
H 	H 	0.10870 0.33820 0.84170 0.08900
C 	C 	0.89260 0.45180 0.74480 0.48500
C 	C 	0.64920 0.42900 0.18700 0.30200
Sm	Sm	0.41205 0.40328 0.36906 1.95900
O 	O 	0.60410 0.37920 0.59240 -0.55000
O 	O 	0.52970 0.25220 0.50460 -0.52300
O 	O 	0.72440 0.74780 0.55770 -0.49700
O 	O 	0.95330 0.68000 0.54520 -0.41300
O 	O 	0.12590 0.93900 0.73690 -0.12600
O 	O 	0.04630 0.15210 0.72560 -0.12300
O 	O 	0.99430 0.55910 0.33160 -0.38200
O 	O 	0.22370 0.51110 0.28220 -0.53500
O 	O 	0.46720 0.51910 0.83830 -0.38100
O 	O 	0.33950 0.61130 0.70490 -0.41800
O 	O 	0.82800 0.75090 0.84070 -0.12300
O 	O 	0.72850 0.76010 0.03190 -0.11200
N 	N 	0.03920 0.04320 0.71370 -0.01000
N 	N 	0.83210 0.73550 0.94770 -0.01000
C 	C 	0.71910 0.14430 0.59390 -0.15100
C 	C 	0.72070 0.01850 0.56850 0.09400
H 	H 	0.64990 0.01220 0.53740 0.02600
C 	C 	0.82740 0.90290 0.58940 -0.13900
C 	C 	0.93320 0.91190 0.63510 0.07300
H 	H 	0.00730 0.83570 0.64610 0.01800
C 	C 	0.92620 0.03680 0.66380 0.05300
C 	C 	0.82290 0.15410 0.64320 0.01500
H 	H 	0.82270 0.23680 0.66160 0.05400
C 	C 	0.60910 0.26820 0.56190 0.50200
C 	C 	0.83260 0.76660 0.56230 0.44900
C 	C 	0.10270 0.58400 0.12510 -0.11900
C 	C 	0.22450 0.55870 0.03280 0.02500
H 	H 	0.31080 0.51880 0.05220 0.05100
C 	C 	0.21930 0.59210 0.91190 -0.03200
C 	C 	0.08980 0.65140 0.88270 -0.10500
H 	H 	0.08440 0.67430 0.80230 0.09600
C 	C 	0.96890 0.67530 0.97670 0.12100
C 	C 	0.97340 0.64360 0.09700 0.00200
H 	H 	0.89130 0.66180 0.15830 0.07600
C 	C 	0.10740 0.54820 0.25520 0.41200
C 	C 	0.35080 0.57100 0.81300 0.29200
Cu	Cu	-0.00000 0.50000 0.50000 0.90300
