data_crystal

_cell_length_a 10.46400
_cell_length_b 10.60700
_cell_length_c 11.35300
_cell_angle_alpha 83.08000
_cell_angle_beta  74.54000
_cell_angle_gamma 69.67000

_symmetry_space_group_name_	'P 1'
_symmetry_space_group_name_H-M	'P 1'

loop_
_symmetry_equiv_pos_as_xyz
  x,y,z

loop_
_atom_site_label
_atom_site_type_symbol
_atom_site_fract_x
_atom_site_fract_y
_atom_site_fract_z
_atom_site_charge
Gd	Gd	0.58787 0.59859 0.62986 1.53600
O 	O 	0.39670 0.61890 0.40440 -0.46500
O 	O 	0.47250 0.74500 0.49230 -0.44200
O 	O 	0.27690 0.25060 0.44540 -0.42600
O 	O 	0.04660 0.31960 0.45420 -0.42300
O 	O 	0.87900 0.06010 0.25760 -0.10800
O 	O 	0.95190 0.84860 0.27360 -0.09500
O 	O 	0.00460 0.44010 0.66900 -0.43400
O 	O 	0.77410 0.49450 0.71940 -0.47900
O 	O 	0.53200 0.47570 0.16380 -0.34500
O 	O 	0.65950 0.38830 0.29710 -0.36400
O 	O 	0.17500 0.25110 0.15630 -0.13000
O 	O 	0.27070 0.23230 0.96520 -0.10500
N 	N 	0.96180 0.95620 0.28310 0.00900
N 	N 	0.16810 0.26240 0.05040 -0.00600
C 	C 	0.28200 0.85350 0.40410 -0.10200
C 	C 	0.28010 0.98000 0.43110 0.03300
H 	H 	0.35090 0.98610 0.46280 0.05200
C 	C 	0.17400 0.09540 0.41070 -0.05700
C 	C 	0.06710 0.08720 0.36340 -0.09900
H 	H 	0.99320 0.16370 0.35220 0.12800
C 	C 	0.07420 0.96220 0.33380 0.07000
C 	C 	0.17830 0.84530 0.35310 -0.02900
H 	H 	0.17930 0.76270 0.33250 0.06100
C 	C 	0.39240 0.72950 0.43490 0.45000
C 	C 	0.16850 0.23190 0.43890 0.39300
C 	C 	0.89620 0.41590 0.87560 -0.04500
C 	C 	0.77340 0.44160 0.96820 0.01100
H 	H 	0.68670 0.48180 0.94930 0.06400
C 	C 	0.78030 0.40710 0.08880 -0.04300
C 	C 	0.91000 0.34850 0.11670 -0.01600
H 	H 	0.91580 0.32610 0.19730 0.08300
C 	C 	0.03080 0.32370 0.02270 0.06000
C 	C 	0.02490 0.35640 0.90230 -0.07200
H 	H 	0.10680 0.33840 0.84020 0.09900
C 	C 	0.88930 0.45380 0.74550 0.45700
C 	C 	0.64710 0.42730 0.18870 0.30500
Gd	Gd	0.41213 0.40141 0.37014 1.52500
O 	O 	0.60330 0.38110 0.59560 -0.46700
O 	O 	0.52750 0.25500 0.50770 -0.44400
O 	O 	0.72310 0.74940 0.55460 -0.43000
O 	O 	0.95340 0.68040 0.54580 -0.39200
O 	O 	0.12100 0.93990 0.74240 -0.12000
O 	O 	0.04810 0.15140 0.72640 -0.11800
O 	O 	0.99540 0.55990 0.33100 -0.36400
O 	O 	0.22590 0.50550 0.28060 -0.46600
O 	O 	0.46800 0.52430 0.83620 -0.34300
O 	O 	0.34050 0.61170 0.70290 -0.36400
O 	O 	0.82500 0.74890 0.84370 -0.11500
O 	O 	0.72930 0.76770 0.03480 -0.10400
N 	N 	0.03820 0.04380 0.71690 -0.01100
N 	N 	0.83190 0.73760 0.94960 -0.01200
C 	C 	0.71800 0.14650 0.59590 -0.12000
C 	C 	0.71990 0.02000 0.56890 0.06800
H 	H 	0.64910 0.01390 0.53720 0.04000
C 	C 	0.82600 0.90460 0.58930 -0.11000
C 	C 	0.93290 0.91280 0.63660 0.05300
H 	H 	0.00680 0.83630 0.64780 0.02800
C 	C 	0.92580 0.03780 0.66620 0.07100
C 	C 	0.82170 0.15470 0.64690 -0.00700
H 	H 	0.82070 0.23730 0.66750 0.06800
C 	C 	0.60760 0.27050 0.56510 0.45700
C 	C 	0.83150 0.76810 0.56110 0.41200
C 	C 	0.10380 0.58410 0.12440 -0.09700
C 	C 	0.22660 0.55840 0.03180 0.00600
H 	H 	0.31330 0.51820 0.05070 0.06500
C 	C 	0.21970 0.59290 0.91120 -0.01800
C 	C 	0.09000 0.65150 0.88330 -0.11700
H 	H 	0.08420 0.67390 0.80270 0.10200
C 	C 	0.96920 0.67630 0.97730 0.13200
C 	C 	0.97510 0.64360 0.09770 -0.01000
H 	H 	0.89320 0.66160 0.15980 0.08500
C 	C 	0.11070 0.54620 0.25450 0.38500
C 	C 	0.35290 0.57270 0.81130 0.29500
Cu	Cu	0.00000 0.50000 0.50000 0.91100
