data_crystal

_cell_length_a 6.83060
_cell_length_b 7.64270
_cell_length_c 10.58440
_cell_angle_alpha 111.16400
_cell_angle_beta  102.97500
_cell_angle_gamma 90.00000

_symmetry_space_group_name_	'P 1'
_symmetry_space_group_name_H-M	'P 1'

loop_
_symmetry_equiv_pos_as_xyz
  x,y,z

loop_
_atom_site_label
_atom_site_type_symbol
_atom_site_fract_x
_atom_site_fract_y
_atom_site_fract_z
_atom_site_charge
Fe	Fe	-0.00000 0.00000 -0.00000 0.97600
Fe	Fe	0.50000 0.00000 -0.00000 0.98900
H 	H 	0.19500 0.89710 0.33480 0.15300
H 	H 	0.66050 0.04970 0.43000 0.13900
H 	H 	0.30500 0.56230 0.66520 0.08500
H 	H 	0.83950 0.61970 0.57000 0.08500
H 	H 	0.80500 0.10290 0.66520 -0.04700
H 	H 	0.33950 0.95030 0.57000 -0.04000
H 	H 	0.69500 0.43770 0.33480 0.01900
H 	H 	0.16050 0.38030 0.43000 0.01300
C 	C 	0.91580 0.96900 0.36300 0.30300
C 	C 	0.11350 0.94010 0.40380 -0.34900
C 	C 	0.80230 0.02890 0.45920 -0.43200
C 	C 	0.82550 0.93590 0.21620 0.24600
C 	C 	0.58420 0.60600 0.63700 -0.01200
C 	C 	0.38650 0.53630 0.59620 -0.06300
C 	C 	0.69770 0.56970 0.54080 -0.05800
C 	C 	0.67450 0.71970 0.78380 0.32000
C 	C 	0.08420 0.03100 0.63700 -0.46200
C 	C 	0.88650 0.05990 0.59620 0.32800
C 	C 	0.19770 0.97110 0.54080 0.40900
C 	C 	0.17450 0.06410 0.78380 0.45200
C 	C 	0.41580 0.39400 0.36300 -0.15700
C 	C 	0.61350 0.46370 0.40380 0.04400
C 	C 	0.30230 0.43030 0.45920 0.04000
C 	C 	0.32550 0.28030 0.21620 0.38300
O 	O 	0.93240 0.88480 0.12740 -0.42100
O 	O 	0.64050 0.95820 0.17780 -0.37000
O 	O 	0.56760 0.75740 0.87260 -0.23900
O 	O 	0.85950 0.78040 0.82220 -0.24400
O 	O 	0.06760 0.11520 0.87260 -0.32900
O 	O 	0.35950 0.04180 0.82220 -0.36600
O 	O 	0.43240 0.24260 0.12740 -0.53400
O 	O 	0.14050 0.21960 0.17780 -0.50700
O 	O 	0.25000 0.88650 1.00000 -0.14500
O 	O 	0.75000 0.11350 1.00000 -0.20900
