data_crystal

_cell_length_a 15.96230
_cell_length_b 6.93510
_cell_length_c 14.39190
_cell_angle_alpha 90.00000
_cell_angle_beta  90.00000
_cell_angle_gamma 90.00000

_symmetry_space_group_name_	'P 1'
_symmetry_space_group_name_H-M	'P 1'

loop_
_symmetry_equiv_pos_as_xyz
  x,y,z

loop_
_atom_site_label
_atom_site_type_symbol
_atom_site_fract_x
_atom_site_fract_y
_atom_site_fract_z
_atom_site_charge
H 	H 	0.69490 0.04530 0.69510 -0.02200
C 	C 	0.71770 0.92290 0.71790 0.10000
O 	O 	0.58730 0.90860 0.58800 -0.37200
H 	H 	0.50000 0.75000 0.36862 0.19000
H 	H 	0.19490 0.54530 0.19510 0.03800
C 	C 	0.21770 0.42290 0.21790 -0.01700
O 	O 	0.08730 0.40860 0.08800 -0.45700
H 	H 	0.00000 0.25000 0.86862 0.13900
H 	H 	0.30510 0.45470 0.69510 0.04100
C 	C 	0.28230 0.57710 0.71790 0.00900
O 	O 	0.41270 0.59140 0.58800 -0.41300
H 	H 	0.80510 0.95470 0.19510 0.12000
C 	C 	0.78230 0.07710 0.21790 -0.09600
O 	O 	0.91270 0.09140 0.08800 -0.41100
H 	H 	0.30510 0.54530 0.30490 0.04800
C 	C 	0.28230 0.42290 0.28210 -0.02500
O 	O 	0.41270 0.40860 0.41200 -0.41400
H 	H 	0.50000 0.25000 0.63138 0.18300
H 	H 	0.80510 0.04530 0.80490 0.00100
C 	C 	0.78230 0.92290 0.78210 0.06200
O 	O 	0.91270 0.90860 0.91200 -0.25800
H 	H 	0.00000 0.75000 0.13138 0.18100
H 	H 	0.69490 0.95470 0.30490 0.11700
C 	C 	0.71770 0.07710 0.28210 -0.08800
O 	O 	0.58730 0.09140 0.41200 -0.44000
H 	H 	0.19490 0.45470 0.80490 0.05100
C 	C 	0.21770 0.57710 0.78210 -0.00900
O 	O 	0.08730 0.59140 0.91200 -0.35800
H 	H 	0.30510 0.95470 0.30490 0.11600
C 	C 	0.28230 0.07710 0.28210 -0.10300
O 	O 	0.41270 0.09140 0.41200 -0.44300
H 	H 	0.80510 0.45470 0.80490 0.06600
C 	C 	0.78230 0.57710 0.78210 -0.01200
O 	O 	0.91270 0.59140 0.91200 -0.29500
H 	H 	0.69490 0.54530 0.30490 0.05100
C 	C 	0.71770 0.42290 0.28210 -0.01100
O 	O 	0.58730 0.40860 0.41200 -0.41200
H 	H 	0.19490 0.04530 0.80490 -0.01600
C 	C 	0.21770 0.92290 0.78210 0.06900
O 	O 	0.08730 0.90860 0.91200 -0.31900
H 	H 	0.69490 0.45470 0.69510 0.04300
C 	C 	0.71770 0.57710 0.71790 0.02200
O 	O 	0.58730 0.59140 0.58800 -0.41100
H 	H 	0.19490 0.95470 0.19510 0.10600
C 	C 	0.21770 0.07710 0.21790 -0.09500
O 	O 	0.08730 0.09140 0.08800 -0.48600
H 	H 	0.30510 0.04530 0.69510 -0.02600
C 	C 	0.28230 0.92290 0.71790 0.08800
O 	O 	0.41270 0.90860 0.58800 -0.37400
H 	H 	0.80510 0.54530 0.19510 0.05500
C 	C 	0.78230 0.42290 0.21790 -0.02000
O 	O 	0.91270 0.40860 0.08800 -0.38300
Fe	Fe	0.50000 0.00000 0.50000 1.24100
Fe	Fe	-0.00000 0.50000 -0.00000 1.15500
Fe	Fe	0.50000 0.50000 0.50000 1.27900
Fe	Fe	-0.00000 0.00000 -0.00000 1.11800
C 	C 	0.68540 0.75000 0.68570 -0.11500
C 	C 	0.61690 0.75000 0.61750 0.39600
C 	C 	0.18540 0.25000 0.18570 -0.09200
C 	C 	0.11690 0.25000 0.11750 0.35900
C 	C 	0.31460 0.75000 0.68570 -0.11400
C 	C 	0.38310 0.75000 0.61750 0.39200
C 	C 	0.81460 0.25000 0.18570 -0.06300
C 	C 	0.88310 0.25000 0.11750 0.35100
C 	C 	0.31460 0.25000 0.31430 -0.07400
C 	C 	0.38310 0.25000 0.38250 0.36300
C 	C 	0.81460 0.75000 0.81430 -0.06400
C 	C 	0.88310 0.75000 0.88250 0.36200
C 	C 	0.68540 0.25000 0.31430 -0.07500
C 	C 	0.61690 0.25000 0.38250 0.36800
C 	C 	0.18540 0.75000 0.81430 -0.09000
C 	C 	0.11690 0.75000 0.88250 0.36900
O 	O 	0.00000 0.25000 0.93810 -0.48400
O 	O 	0.50000 0.75000 0.43810 -0.52800
O 	O 	-0.00000 0.75000 0.06190 -0.60800
O 	O 	0.50000 0.25000 0.56190 -0.55600
