data_crystal

_cell_length_a 12.92240
_cell_length_b 13.33430
_cell_length_c 13.50540
_cell_angle_alpha 68.59700
_cell_angle_beta  88.57500
_cell_angle_gamma 79.57100

_symmetry_space_group_name_	'P 1'
_symmetry_space_group_name_H-M	'P 1'

loop_
_symmetry_equiv_pos_as_xyz
  x,y,z

loop_
_atom_site_label
_atom_site_type_symbol
_atom_site_fract_x
_atom_site_fract_y
_atom_site_fract_z
_atom_site_charge
U 	U 	0.18267 0.79878 0.38145 0.01800
U 	U 	0.19062 0.29586 0.39385 0.01900
U 	U 	0.50957 0.77492 0.98758 -0.00400
O 	O 	0.41170 0.87810 0.90330 -0.05200
O 	O 	0.60700 0.66820 0.07220 -0.06900
O 	O 	0.42850 0.78910 0.14590 -0.13000
O 	O 	0.32660 0.82660 0.26460 -0.13200
O 	O 	0.40890 0.10770 0.94740 -0.16300
O 	O 	0.36160 0.09730 0.10610 -0.18900
O 	O 	0.07390 0.87360 0.48800 -0.18000
O 	O 	0.91130 0.83870 0.51490 -0.17700
O 	O 	0.75180 0.86510 0.64740 -0.13700
O 	O 	0.76610 0.03020 0.63760 -0.13800
O 	O 	0.03990 0.85790 0.95850 -0.28100
O 	O 	0.43600 0.26870 0.16400 -0.13300
O 	O 	0.33630 0.31560 0.28070 -0.13700
O 	O 	0.39860 0.65500 0.00640 -0.18100
O 	O 	0.44710 0.50170 0.14650 -0.17700
O 	O 	0.07830 0.37250 0.49920 -0.18900
O 	O 	0.91910 0.33540 0.53260 -0.17400
O 	O 	0.76540 0.35220 0.67710 -0.14800
O 	O 	0.77150 0.52510 0.64250 -0.14400
O 	O 	0.05260 0.39050 0.95910 -0.27700
C 	C 	0.34460 0.83880 0.16920 0.22900
C 	C 	0.26380 0.90700 0.08270 0.10300
C 	C 	0.27010 0.01300 0.01710 -0.12600
C 	C 	0.19500 0.06800 0.93220 0.14900
H 	H 	0.19630 0.14050 0.88950 0.00900
C 	C 	0.12140 0.01780 0.91160 -0.25700
H 	H 	0.07340 0.05430 0.85410 0.15000
C 	C 	0.11840 0.91180 0.97680 0.27600
C 	C 	0.18780 0.85570 0.06240 -0.21900
H 	H 	0.18380 0.78430 0.10610 0.14500
C 	C 	0.02920 0.86390 0.85380 0.27100
C 	C 	0.93020 0.88910 0.81040 -0.21200
H 	H 	0.87290 0.90450 0.84880 0.13900
C 	C 	0.91450 0.89170 0.70610 0.07400
C 	C 	0.00330 0.86610 0.65210 -0.09300
C 	C 	0.10290 0.84660 0.69770 0.11000
H 	H 	0.16110 0.83570 0.65850 0.04200
C 	C 	0.11870 0.84280 0.79860 -0.23400
H 	H 	0.18610 0.82690 0.82950 0.14600
C 	C 	0.80580 0.93140 0.65990 0.23100
C 	C 	0.99350 0.85970 0.54380 0.29800
C 	C 	0.35880 0.32810 0.18710 0.24400
C 	C 	0.28460 0.40670 0.09660 0.08700
C 	C 	0.30410 0.51160 0.03630 -0.10500
C 	C 	0.23480 0.57590 0.94760 0.11400
H 	H 	0.24520 0.64620 0.90680 0.02300
C 	C 	0.15260 0.53760 0.91980 -0.22800
H 	H 	0.10780 0.58130 0.86120 0.14000
C 	C 	0.13740 0.43290 0.98050 0.26500
C 	C 	0.20350 0.36710 0.06910 -0.20100
H 	H 	0.19260 0.29680 0.10920 0.14100
C 	C 	0.38920 0.55770 0.06680 0.30800
C 	C 	0.04210 0.38770 0.85750 0.27100
C 	C 	0.94330 0.40420 0.81720 -0.21000
H 	H 	0.88620 0.42000 0.85580 0.13500
C 	C 	0.92580 0.39760 0.71860 0.07600
C 	C 	0.01300 0.37330 0.66180 -0.09700
C 	C 	0.11360 0.35870 0.70400 0.10300
H 	H 	0.17110 0.34390 0.66540 0.04600
C 	C 	0.13140 0.36550 0.80290 -0.22600
H 	H 	0.19910 0.35580 0.83090 0.14800
C 	C 	0.00320 0.36010 0.55720 0.30700
C 	C 	0.81580 0.42700 0.67420 0.23300
C 	C 	0.35350 0.07430 0.02800 0.32000
U 	U 	0.49420 0.72810 0.00830 0.05100
U 	U 	0.81733 0.20122 0.61855 0.01700
U 	U 	0.80938 0.70414 0.60615 0.01800
U 	U 	0.49043 0.22508 0.01242 -0.00400
O 	O 	0.58830 0.12190 0.09670 -0.05200
O 	O 	0.39300 0.33180 0.92780 -0.06900
O 	O 	0.57150 0.21090 0.85410 -0.13000
O 	O 	0.67340 0.17340 0.73540 -0.13200
O 	O 	0.59110 0.89230 0.05260 -0.16300
O 	O 	0.63840 0.90270 0.89390 -0.18900
O 	O 	0.92610 0.12640 0.51200 -0.18000
O 	O 	0.08870 0.16130 0.48510 -0.17700
O 	O 	0.24820 0.13490 0.35260 -0.13700
O 	O 	0.23390 0.96980 0.36240 -0.13800
O 	O 	0.96010 0.14210 0.04150 -0.28100
O 	O 	0.56400 0.73130 0.83600 -0.13300
O 	O 	0.66370 0.68440 0.71930 -0.13700
O 	O 	0.60140 0.34500 0.99360 -0.18100
O 	O 	0.55290 0.49830 0.85350 -0.17700
O 	O 	0.92170 0.62750 0.50080 -0.18900
O 	O 	0.08090 0.66460 0.46740 -0.17400
O 	O 	0.23460 0.64780 0.32290 -0.14800
O 	O 	0.22850 0.47490 0.35750 -0.14400
O 	O 	0.94740 0.60950 0.04090 -0.27700
C 	C 	0.65540 0.16120 0.83080 0.22900
C 	C 	0.73620 0.09300 0.91730 0.10300
C 	C 	0.72990 0.98700 0.98290 -0.12600
C 	C 	0.80500 0.93200 0.06780 0.14900
H 	H 	0.80370 0.85950 0.11050 0.00900
C 	C 	0.87860 0.98220 0.08840 -0.25700
H 	H 	0.92660 0.94570 0.14590 0.15000
C 	C 	0.88160 0.08820 0.02320 0.27600
C 	C 	0.81220 0.14430 0.93760 -0.21900
H 	H 	0.81620 0.21570 0.89390 0.14500
C 	C 	0.97080 0.13610 0.14620 0.27100
C 	C 	0.06980 0.11090 0.18960 -0.21200
H 	H 	0.12710 0.09550 0.15120 0.13900
C 	C 	0.08550 0.10830 0.29390 0.07400
C 	C 	0.99670 0.13390 0.34790 -0.09300
C 	C 	0.89710 0.15340 0.30230 0.11000
H 	H 	0.83890 0.16430 0.34150 0.04200
C 	C 	0.88130 0.15720 0.20140 -0.23400
H 	H 	0.81390 0.17310 0.17050 0.14600
C 	C 	0.19420 0.06860 0.34010 0.23100
C 	C 	0.00650 0.14030 0.45620 0.29800
C 	C 	0.64120 0.67190 0.81290 0.24400
C 	C 	0.71540 0.59330 0.90340 0.08700
C 	C 	0.69590 0.48840 0.96370 -0.10500
C 	C 	0.76520 0.42410 0.05240 0.11400
H 	H 	0.75480 0.35380 0.09320 0.02300
C 	C 	0.84740 0.46240 0.08020 -0.22800
H 	H 	0.89220 0.41870 0.13880 0.14000
C 	C 	0.86260 0.56710 0.01950 0.26500
C 	C 	0.79650 0.63290 0.93090 -0.20100
H 	H 	0.80740 0.70320 0.89080 0.14100
C 	C 	0.61080 0.44230 0.93320 0.30800
C 	C 	0.95790 0.61230 0.14250 0.27100
C 	C 	0.05670 0.59580 0.18280 -0.21000
H 	H 	0.11380 0.58000 0.14420 0.13500
C 	C 	0.07420 0.60240 0.28140 0.07600
C 	C 	0.98700 0.62670 0.33820 -0.09700
C 	C 	0.88640 0.64130 0.29600 0.10300
H 	H 	0.82890 0.65610 0.33460 0.04600
C 	C 	0.86860 0.63450 0.19710 -0.22600
H 	H 	0.80090 0.64420 0.16910 0.14800
C 	C 	0.99680 0.63990 0.44280 0.30700
C 	C 	0.18420 0.57300 0.32580 0.23300
C 	C 	0.64650 0.92570 0.97200 0.32000
U 	U 	0.50580 0.27190 0.99170 0.05100
