data_crystal

_cell_length_a 14.95600
_cell_length_b 23.67100
_cell_length_c 9.02600
_cell_angle_alpha 90.00000
_cell_angle_beta  90.00000
_cell_angle_gamma 90.00000

_symmetry_space_group_name_	'P 1'
_symmetry_space_group_name_H-M	'P 1'

loop_
_symmetry_equiv_pos_as_xyz
  x,y,z

loop_
_atom_site_label
_atom_site_type_symbol
_atom_site_fract_x
_atom_site_fract_y
_atom_site_fract_z
_atom_site_charge
Fe	Fe	0.92451 0.94430 0.99939 1.17600
O 	O 	0.86710 0.92690 0.19500 -0.26200
O 	O 	0.58780 0.87590 0.19590 -0.25000
O 	O 	0.48340 0.93030 0.30390 -0.29800
O 	O 	0.76790 0.87020 0.30300 -0.27200
C 	C 	0.81160 0.88780 0.19580 0.21200
C 	C 	0.54400 0.89210 0.30200 0.23600
Cl	Cl	0.56865 0.74572 0.15520 -0.31700
Fe	Fe	0.92451 0.44430 0.49939 1.24600
O 	O 	0.86710 0.42690 0.69500 -0.32000
O 	O 	0.58780 0.37590 0.69590 -0.28200
O 	O 	0.48340 0.43030 0.80390 -0.33000
O 	O 	0.76790 0.37020 0.80300 -0.30000
C 	C 	0.81160 0.38780 0.69580 0.25600
C 	C 	0.54400 0.39210 0.80200 0.27600
Cl	Cl	0.56865 0.24572 0.65520 -0.37600
Fe	Fe	0.42451 0.94430 0.49939 1.24600
O 	O 	0.36710 0.92690 0.69500 -0.32000
O 	O 	0.08780 0.87590 0.69590 -0.28900
O 	O 	0.98340 0.93030 0.80390 -0.36600
O 	O 	0.26790 0.87020 0.80300 -0.30000
C 	C 	0.31160 0.88780 0.69580 0.25700
C 	C 	0.04400 0.89210 0.80200 0.30900
Cl	Cl	0.06865 0.74572 0.65520 -0.36300
Fe	Fe	0.42451 0.44430 0.99939 1.19200
O 	O 	0.36710 0.42690 0.19500 -0.24700
O 	O 	0.08780 0.37590 0.19590 -0.25200
O 	O 	0.98340 0.43030 0.30390 -0.31900
O 	O 	0.26790 0.37020 0.30300 -0.26800
C 	C 	0.31160 0.38780 0.19580 0.21100
C 	C 	0.04400 0.39210 0.30200 0.26700
Cl	Cl	0.06865 0.24572 0.15520 -0.30300
Fe	Fe	0.07549 0.05570 0.99939 1.20200
O 	O 	0.13290 0.07310 0.19500 -0.23900
O 	O 	0.41220 0.12410 0.19590 -0.24600
O 	O 	0.51660 0.06970 0.30390 -0.28400
O 	O 	0.23210 0.12980 0.30300 -0.26500
C 	C 	0.18840 0.11220 0.19580 0.21100
C 	C 	0.45600 0.10790 0.30200 0.23400
Cl	Cl	0.43135 0.25428 0.15520 -0.31600
Fe	Fe	0.07549 0.55570 0.49939 1.26000
O 	O 	0.13290 0.57310 0.69500 -0.30800
O 	O 	0.41220 0.62410 0.69590 -0.28300
O 	O 	0.51660 0.56970 0.80390 -0.33000
O 	O 	0.23210 0.62980 0.80300 -0.29700
C 	C 	0.18840 0.61220 0.69580 0.25700
C 	C 	0.45600 0.60790 0.80200 0.27600
Cl	Cl	0.43135 0.75428 0.65520 -0.37700
Fe	Fe	0.57549 0.05570 0.49939 1.26000
O 	O 	0.63290 0.07310 0.69500 -0.30800
O 	O 	0.91220 0.12410 0.69590 -0.27600
O 	O 	0.01660 0.06970 0.80390 -0.29700
O 	O 	0.73210 0.12980 0.80300 -0.29700
C 	C 	0.68840 0.11220 0.69580 0.25600
C 	C 	0.95600 0.10790 0.80200 0.24400
Cl	Cl	0.93135 0.25428 0.65520 -0.39000
Fe	Fe	0.57549 0.55570 0.99939 1.19200
O 	O 	0.63290 0.57310 0.19500 -0.24800
O 	O 	0.91220 0.62410 0.19590 -0.24500
O 	O 	0.01660 0.56970 0.30390 -0.26300
O 	O 	0.73210 0.62980 0.30300 -0.26800
C 	C 	0.68840 0.61220 0.19580 0.21000
C 	C 	0.95600 0.60790 0.30200 0.20200
Cl	Cl	0.93135 0.75428 0.15520 -0.33200
Fe	Fe	0.17451 0.30570 0.24939 1.25700
O 	O 	0.11710 0.32310 0.44500 -0.29800
O 	O 	0.83780 0.37410 0.44590 -0.26300
O 	O 	0.73340 0.31970 0.55390 -0.30000
O 	O 	0.01790 0.37980 0.55300 -0.27400
C 	C 	0.06160 0.36220 0.44580 0.24800
C 	C 	0.79400 0.35790 0.55200 0.23300
Cl	Cl	0.81865 0.50428 0.40520 -0.35300
Fe	Fe	0.17451 0.80570 0.74939 1.25300
O 	O 	0.11710 0.82310 0.94500 -0.28800
O 	O 	0.83780 0.87410 0.94590 -0.41100
O 	O 	0.73340 0.81970 0.05390 -0.31600
O 	O 	0.01790 0.87980 0.05300 -0.12500
C 	C 	0.06160 0.86220 0.94580 0.08700
C 	C 	0.79400 0.85790 0.05200 0.39600
Cl	Cl	0.81865 0.00428 0.90520 -0.40100
Fe	Fe	0.67451 0.30570 0.74939 1.25300
O 	O 	0.61710 0.32310 0.94500 -0.29400
O 	O 	0.33780 0.37410 0.94590 -0.40500
O 	O 	0.23340 0.31970 0.05390 -0.31300
O 	O 	0.51790 0.37980 0.05300 -0.13600
C 	C 	0.56160 0.36220 0.94580 0.09400
C 	C 	0.29400 0.35790 0.05200 0.40000
Cl	Cl	0.31865 0.50428 0.90520 -0.41600
Fe	Fe	0.67451 0.80570 0.24939 1.25600
O 	O 	0.61710 0.82310 0.44500 -0.30500
O 	O 	0.33780 0.87410 0.44590 -0.26200
O 	O 	0.23340 0.81970 0.55390 -0.29800
O 	O 	0.51790 0.87980 0.55300 -0.29300
C 	C 	0.56160 0.86220 0.44580 0.25600
C 	C 	0.29400 0.85790 0.55200 0.23300
Cl	Cl	0.31865 0.00428 0.40520 -0.32800
Fe	Fe	0.32549 0.19430 0.24939 1.25700
O 	O 	0.38290 0.17690 0.44500 -0.30300
O 	O 	0.66220 0.12590 0.44590 -0.25800
O 	O 	0.76660 0.18030 0.55390 -0.30000
O 	O 	0.48210 0.12020 0.55300 -0.28900
C 	C 	0.43840 0.13780 0.44580 0.25700
C 	C 	0.70600 0.14210 0.55200 0.23500
Cl	Cl	0.68135 0.99572 0.40520 -0.37400
Fe	Fe	0.32549 0.69430 0.74939 1.25300
O 	O 	0.38290 0.67690 0.94500 -0.29300
O 	O 	0.66220 0.62590 0.94590 -0.40700
O 	O 	0.76660 0.68030 0.05390 -0.31700
O 	O 	0.48210 0.62020 0.05300 -0.13600
C 	C 	0.43840 0.63780 0.94580 0.09400
C 	C 	0.70600 0.64210 0.05200 0.39900
Cl	Cl	0.68135 0.49572 0.90520 -0.41900
Fe	Fe	0.82549 0.19430 0.74939 1.25300
O 	O 	0.88290 0.17690 0.94500 -0.30000
O 	O 	0.16220 0.12590 0.94590 -0.39900
O 	O 	0.26660 0.18030 0.05390 -0.31300
O 	O 	0.98210 0.12020 0.05300 -0.15500
C 	C 	0.93840 0.13780 0.94580 0.10700
C 	C 	0.20600 0.14210 0.05200 0.40000
Cl	Cl	0.18135 0.99572 0.90520 -0.43600
Fe	Fe	0.82549 0.69430 0.24939 1.25600
O 	O 	0.88290 0.67690 0.44500 -0.31100
O 	O 	0.16220 0.62590 0.44590 -0.25600
O 	O 	0.26660 0.68030 0.55390 -0.29800
O 	O 	0.98210 0.62020 0.55300 -0.30800
C 	C 	0.93840 0.63780 0.44580 0.26500
C 	C 	0.20600 0.64210 0.55200 0.23500
Cl	Cl	0.18135 0.49572 0.40520 -0.34600
O 	O 	0.75000 0.75000 0.32710 -0.45800
O 	O 	0.75000 0.25000 0.82710 -0.47500
O 	O 	0.25000 0.25000 0.32710 -0.45500
O 	O 	0.25000 0.75000 0.82710 -0.47300
O 	O 	-0.00000 0.50000 0.57710 -0.44700
O 	O 	0.00000 0.00000 0.07710 -0.34100
O 	O 	0.50000 0.50000 0.07710 -0.36800
O 	O 	0.50000 0.00000 0.57710 -0.44800
