data_crystal

_cell_length_a 14.77900
_cell_length_b 23.75400
_cell_length_c 9.17470
_cell_angle_alpha 90.00000
_cell_angle_beta  90.00000
_cell_angle_gamma 90.00000

_symmetry_space_group_name_	'P 1'
_symmetry_space_group_name_H-M	'P 1'

loop_
_symmetry_equiv_pos_as_xyz
  x,y,z

loop_
_atom_site_label
_atom_site_type_symbol
_atom_site_fract_x
_atom_site_fract_y
_atom_site_fract_z
_atom_site_charge
Fe	Fe	0.32330 0.80426 0.12751 1.25100
O 	O 	0.23125 0.86914 0.07300 -0.28200
O 	O 	0.01717 0.92908 0.57720 -0.27600
O 	O 	0.91313 0.87481 0.68430 -0.26300
O 	O 	0.13252 0.92698 0.18140 -0.29200
C 	C 	0.18811 0.88773 0.18120 0.24300
C 	C 	0.95627 0.89083 0.57820 0.19900
Cl	Cl	0.18422 0.00396 0.47423 -0.33200
Fe	Fe	0.32330 0.30426 0.62751 1.25300
O 	O 	0.23125 0.36914 0.57300 -0.27400
O 	O 	0.01717 0.42908 0.07720 -0.27100
O 	O 	0.91313 0.37481 0.18430 -0.26100
O 	O 	0.13252 0.42698 0.68140 -0.27900
C 	C 	0.18811 0.38773 0.68120 0.24300
C 	C 	0.95627 0.39083 0.07820 0.18300
Cl	Cl	0.18422 0.50396 0.97423 -0.34500
Fe	Fe	0.82330 0.80426 0.62751 1.25300
O 	O 	0.73125 0.86914 0.57300 -0.27900
O 	O 	0.51717 0.92908 0.07720 -0.31300
O 	O 	0.41313 0.87481 0.18430 -0.26800
O 	O 	0.63252 0.92698 0.68140 -0.29400
C 	C 	0.68811 0.88773 0.68120 0.24200
C 	C 	0.45627 0.89083 0.07820 0.22200
Cl	Cl	0.68422 0.00396 0.97423 -0.32800
Fe	Fe	0.82330 0.30426 0.12751 1.25000
O 	O 	0.73125 0.36914 0.07300 -0.28200
O 	O 	0.51717 0.42908 0.57720 -0.29700
O 	O 	0.41313 0.37481 0.68430 -0.26400
O 	O 	0.63252 0.42698 0.18140 -0.28900
C 	C 	0.68811 0.38773 0.18120 0.24100
C 	C 	0.45627 0.39083 0.57820 0.23500
Cl	Cl	0.68422 0.50396 0.47423 -0.36200
Fe	Fe	0.67670 0.19574 0.12751 1.25100
O 	O 	0.76875 0.13086 0.07300 -0.28300
O 	O 	0.98283 0.07092 0.57720 -0.32500
O 	O 	0.08687 0.12519 0.68430 -0.26500
O 	O 	0.86748 0.07302 0.18140 -0.29200
C 	C 	0.81189 0.11227 0.18120 0.24300
C 	C 	0.04373 0.10917 0.57820 0.27300
Cl	Cl	0.81578 0.99604 0.47423 -0.39000
Fe	Fe	0.67670 0.69574 0.62751 1.25300
O 	O 	0.76875 0.63086 0.57300 -0.27900
O 	O 	0.98283 0.57092 0.07720 -0.33700
O 	O 	0.08687 0.62519 0.18430 -0.26900
O 	O 	0.86748 0.57302 0.68140 -0.29400
C 	C 	0.81189 0.61227 0.68120 0.24200
C 	C 	0.04373 0.60917 0.07820 0.25800
Cl	Cl	0.81578 0.49604 0.97423 -0.35300
Fe	Fe	0.17670 0.19574 0.62751 1.25400
O 	O 	0.26875 0.13086 0.57300 -0.27500
O 	O 	0.48283 0.07092 0.07720 -0.29600
O 	O 	0.58687 0.12519 0.18430 -0.26100
O 	O 	0.36748 0.07302 0.68140 -0.27900
C 	C 	0.31189 0.11227 0.68120 0.24300
C 	C 	0.54373 0.10917 0.07820 0.21900
Cl	Cl	0.31578 0.99604 0.97423 -0.37300
Fe	Fe	0.17670 0.69574 0.12751 1.25100
O 	O 	0.26875 0.63086 0.07300 -0.28200
O 	O 	0.48283 0.57092 0.57720 -0.29700
O 	O 	0.58687 0.62519 0.68430 -0.26300
O 	O 	0.36748 0.57302 0.18140 -0.28800
C 	C 	0.31189 0.61227 0.18120 0.24300
C 	C 	0.54373 0.60917 0.57820 0.23400
Cl	Cl	0.31578 0.49604 0.47423 -0.35700
Fe	Fe	0.57330 0.44574 0.37751 1.25300
O 	O 	0.48125 0.38086 0.32300 -0.27700
O 	O 	0.26717 0.32092 0.82720 -0.29400
O 	O 	0.16313 0.37519 0.93430 -0.25500
O 	O 	0.38252 0.32302 0.43140 -0.28500
C 	C 	0.43811 0.36227 0.43120 0.24200
C 	C 	0.20627 0.35917 0.82820 0.23500
Cl	Cl	0.43422 0.24604 0.72423 -0.35500
Fe	Fe	0.57330 0.94574 0.87751 1.24400
O 	O 	0.48125 0.88086 0.82300 -0.28000
O 	O 	0.26717 0.82092 0.32720 -0.29800
O 	O 	0.16313 0.87519 0.43430 -0.26400
O 	O 	0.38252 0.82302 0.93140 -0.28000
C 	C 	0.43811 0.86227 0.93120 0.25300
C 	C 	0.20627 0.85917 0.32820 0.23300
Cl	Cl	0.43422 0.74604 0.22423 -0.36300
Fe	Fe	0.07330 0.44574 0.87751 1.26100
O 	O 	0.98125 0.38086 0.82300 -0.29900
O 	O 	0.76717 0.32092 0.32720 -0.30000
O 	O 	0.66313 0.37519 0.43430 -0.26600
O 	O 	0.88252 0.32302 0.93140 -0.28700
C 	C 	0.93811 0.36227 0.93120 0.26300
C 	C 	0.70627 0.35917 0.32820 0.23400
Cl	Cl	0.93422 0.24604 0.22423 -0.38000
Fe	Fe	0.07330 0.94574 0.37751 1.24500
O 	O 	0.98125 0.88086 0.32300 -0.30100
O 	O 	0.76717 0.82092 0.82720 -0.29800
O 	O 	0.66313 0.87519 0.93430 -0.26500
O 	O 	0.88252 0.82302 0.43140 -0.29400
C 	C 	0.93811 0.86227 0.43120 0.24900
C 	C 	0.70627 0.85917 0.82820 0.23200
Cl	Cl	0.93422 0.74604 0.72423 -0.37300
Fe	Fe	0.92670 0.05426 0.37751 1.24600
O 	O 	0.01875 0.11914 0.32300 -0.25700
O 	O 	0.23283 0.17908 0.82720 -0.29200
O 	O 	0.33687 0.12481 0.93430 -0.25600
O 	O 	0.11748 0.17698 0.43140 -0.27800
C 	C 	0.06189 0.13773 0.43120 0.23300
C 	C 	0.29373 0.14083 0.82820 0.23500
Cl	Cl	0.06578 0.25396 0.72423 -0.33700
Fe	Fe	0.92670 0.55426 0.87751 1.24400
O 	O 	0.01875 0.61914 0.82300 -0.25800
O 	O 	0.23283 0.67908 0.32720 -0.29600
O 	O 	0.33687 0.62481 0.43430 -0.26400
O 	O 	0.11748 0.67698 0.93140 -0.27300
C 	C 	0.06189 0.63773 0.93120 0.24600
C 	C 	0.29373 0.64083 0.32820 0.23400
Cl	Cl	0.06578 0.75396 0.22423 -0.34600
Fe	Fe	0.42670 0.05426 0.87751 1.26200
O 	O 	0.51875 0.11914 0.82300 -0.27600
O 	O 	0.73283 0.17908 0.32720 -0.29800
O 	O 	0.83687 0.12481 0.43430 -0.26600
O 	O 	0.61748 0.17698 0.93140 -0.28000
C 	C 	0.56189 0.13773 0.93120 0.25500
C 	C 	0.79373 0.14083 0.32820 0.23400
Cl	Cl	0.56578 0.25396 0.22423 -0.36200
Fe	Fe	0.42670 0.55426 0.37751 1.25300
O 	O 	0.51875 0.61914 0.32300 -0.27800
O 	O 	0.73283 0.67908 0.82720 -0.29600
O 	O 	0.83687 0.62481 0.93430 -0.26500
O 	O 	0.61748 0.67698 0.43140 -0.28700
C 	C 	0.56189 0.63773 0.43120 0.24200
C 	C 	0.79373 0.64083 0.82820 0.23300
Cl	Cl	0.56578 0.75396 0.72423 -0.35600
O 	O 	0.00000 -0.00000 0.30540 -0.45900
O 	O 	0.00000 0.50000 0.80540 -0.47400
O 	O 	0.50000 0.00000 0.80540 -0.47500
O 	O 	0.50000 0.50000 0.30540 -0.49700
O 	O 	0.25000 0.25000 0.55540 -0.49400
O 	O 	0.25000 0.75000 0.05540 -0.49900
O 	O 	0.75000 0.25000 0.05540 -0.50100
O 	O 	0.75000 0.75000 0.55540 -0.49700
