data_crystal

_cell_length_a 20.13700
_cell_length_b 10.70200
_cell_length_c 11.41800
_cell_angle_alpha 90.00000
_cell_angle_beta  90.00000
_cell_angle_gamma 90.00000

_symmetry_space_group_name_	'P 1'
_symmetry_space_group_name_H-M	'P 1'

loop_
_symmetry_equiv_pos_as_xyz
  x,y,z

loop_
_atom_site_label
_atom_site_type_symbol
_atom_site_fract_x
_atom_site_fract_y
_atom_site_fract_z
_atom_site_charge
Zn	Zn	0.07895 0.12913 0.45551 1.22200
C 	C 	0.10350 0.89640 0.34260 0.41000
C 	C 	0.14200 0.82570 0.25090 -0.15500
C 	C 	0.12470 0.70740 0.21110 0.09000
C 	C 	0.16960 0.64390 0.13920 -0.14200
H 	H 	0.15940 0.56340 0.11450 0.08700
C 	C 	0.22800 0.69630 0.10430 0.06400
H 	H 	0.25630 0.65310 0.05430 0.03400
C 	C 	0.24520 0.81680 0.14470 -0.13100
C 	C 	0.20350 0.87790 0.21580 0.08000
H 	H 	0.21520 0.95680 0.24290 0.02700
C 	C 	0.30960 0.87310 0.10360 0.36300
C 	C 	0.06070 0.64540 0.24020 -0.00000
C 	C 	0.06080 0.52290 0.28290 -0.02900
H 	H 	0.10080 0.48250 0.29790 0.05200
O 	O 	0.07370 0.83830 0.41890 -0.52000
O 	O 	0.10470 0.01620 0.33170 -0.48200
O 	O 	0.32200 0.98260 0.13570 -0.31500
O 	O 	0.34620 0.80870 0.03880 -0.45200
O 	O 	0.05520 0.28280 0.37050 -0.48100
Zn	Zn	0.42105 0.87087 0.95551 1.19900
C 	C 	0.39650 0.10360 0.84260 0.43600
C 	C 	0.35800 0.17430 0.75090 -0.17900
C 	C 	0.37530 0.29260 0.71110 0.10600
C 	C 	0.33040 0.35610 0.63920 -0.16700
H 	H 	0.34060 0.43660 0.61450 0.08400
C 	C 	0.27200 0.30370 0.60430 0.07700
H 	H 	0.24370 0.34690 0.55430 0.01100
C 	C 	0.25480 0.18320 0.64470 -0.16000
C 	C 	0.29650 0.12210 0.71580 0.09600
H 	H 	0.28480 0.04320 0.74290 0.01300
C 	C 	0.19040 0.12690 0.60360 0.37100
C 	C 	0.43930 0.35460 0.74020 -0.02900
C 	C 	0.43920 0.47710 0.78290 -0.01500
H 	H 	0.39920 0.51750 0.79790 0.03700
O 	O 	0.42630 0.16170 0.91890 -0.54300
O 	O 	0.39530 0.98380 0.83170 -0.51800
O 	O 	0.17800 0.01740 0.63570 -0.34500
O 	O 	0.15380 0.19130 0.53880 -0.49700
O 	O 	0.44480 0.71720 0.87050 -0.50900
Zn	Zn	0.57895 0.87087 0.95551 1.19900
C 	C 	0.60350 0.10360 0.84260 0.43500
C 	C 	0.64200 0.17430 0.75090 -0.17700
C 	C 	0.62470 0.29260 0.71110 0.10600
C 	C 	0.66960 0.35610 0.63920 -0.16500
H 	H 	0.65940 0.43660 0.61450 0.08500
C 	C 	0.72800 0.30370 0.60430 0.07600
H 	H 	0.75630 0.34690 0.55430 0.01300
C 	C 	0.74520 0.18320 0.64470 -0.15600
C 	C 	0.70350 0.12210 0.71580 0.09400
H 	H 	0.71520 0.04320 0.74290 0.01400
C 	C 	0.80960 0.12690 0.60360 0.37100
C 	C 	0.56070 0.35460 0.74020 -0.02800
C 	C 	0.56080 0.47710 0.78290 -0.01500
H 	H 	0.60080 0.51750 0.79790 0.03800
O 	O 	0.57370 0.16170 0.91890 -0.54300
O 	O 	0.60470 0.98380 0.83170 -0.51700
O 	O 	0.82200 0.01740 0.63570 -0.33800
O 	O 	0.84620 0.19130 0.53880 -0.49100
O 	O 	0.55520 0.71720 0.87050 -0.50900
Zn	Zn	0.92105 0.12913 0.45551 1.22900
C 	C 	0.89650 0.89640 0.34260 0.41300
C 	C 	0.85800 0.82570 0.25090 -0.14600
C 	C 	0.87530 0.70740 0.21110 0.08800
C 	C 	0.83040 0.64390 0.13920 -0.13600
H 	H 	0.84060 0.56340 0.11450 0.08900
C 	C 	0.77200 0.69630 0.10430 0.06300
H 	H 	0.74370 0.65310 0.05430 0.03600
C 	C 	0.75480 0.81680 0.14470 -0.12700
C 	C 	0.79650 0.87790 0.21580 0.07700
H 	H 	0.78480 0.95680 0.24290 0.03000
C 	C 	0.69040 0.87310 0.10360 0.36200
C 	C 	0.93930 0.64540 0.24020 0.02400
C 	C 	0.93920 0.52290 0.28290 0.00200
H 	H 	0.89920 0.48250 0.29790 0.04700
O 	O 	0.92630 0.83830 0.41890 -0.49900
O 	O 	0.89530 0.01620 0.33170 -0.47500
O 	O 	0.67800 0.98260 0.13570 -0.31300
O 	O 	0.65380 0.80870 0.03880 -0.45100
O 	O 	0.94480 0.28280 0.37050 -0.45400
Zn	Zn	0.00000 0.86070 0.54570 1.14200
C 	C 	-0.00000 0.70620 0.22040 -0.10400
H 	H 	-0.00000 0.78830 0.19360 0.06600
C 	C 	-0.00000 0.46050 0.30320 -0.11900
C 	C 	-0.00000 0.33470 0.35170 0.35200
O 	O 	0.00000 0.06270 0.53420 -0.95500
H 	H 	-0.00000 0.10870 0.59190 0.25100
Zn	Zn	0.50000 0.13930 0.04570 1.17900
C 	C 	0.50000 0.29380 0.72040 -0.04600
H 	H 	0.50000 0.21170 0.69360 0.05200
C 	C 	0.50000 0.53950 0.80320 -0.11700
C 	C 	0.50000 0.66530 0.85170 0.38800
O 	O 	0.50000 0.93730 0.03420 -0.89000
H 	H 	0.50000 0.89130 0.09190 0.26000
