data_crystal

_cell_length_a 21.91770
_cell_length_b 21.91770
_cell_length_c 12.23510
_cell_angle_alpha 90.00000
_cell_angle_beta  90.00000
_cell_angle_gamma 120.00000

_symmetry_space_group_name_	'P 1'
_symmetry_space_group_name_H-M	'P 1'

loop_
_symmetry_equiv_pos_as_xyz
  x,y,z

loop_
_atom_site_label
_atom_site_type_symbol
_atom_site_fract_x
_atom_site_fract_y
_atom_site_fract_z
_atom_site_charge
C 	C 	0.31460 0.43890 0.10600 0.25600
C 	C 	0.35190 0.47320 0.00030 0.03100
C 	C 	0.30920 0.66280 0.95440 0.28500
C 	C 	0.24320 0.59040 0.93500 0.23200
O 	O 	0.29140 0.47450 0.15730 -0.43000
O 	O 	0.36590 0.53690 0.98440 -0.31200
O 	O 	0.30530 0.37810 0.12210 -0.42900
O 	O 	0.37150 0.43710 0.94000 -0.31400
O 	O 	0.35280 0.66950 0.02840 -0.47400
O 	O 	0.23900 0.54320 0.99430 -0.37200
O 	O 	0.31710 0.71280 0.89950 -0.37400
O 	O 	0.20540 0.58600 0.85730 -0.38800
Cr	Cr	0.32517 0.57269 0.09640 1.51700
C 	C 	0.22960 0.20090 0.04480 0.16200
O 	O 	0.29270 0.24280 0.07410 -0.40100
O 	O 	0.18980 0.14060 0.07820 -0.41800
O 	O 	0.12780 0.04220 0.89820 -0.40200
O 	O 	0.00730 0.04400 0.89580 -0.34300
Mn	Mn	0.24752 0.67483 0.76307 1.33600
C 	C 	0.56110 0.87570 0.43933 0.21900
C 	C 	0.52680 0.87870 0.33363 0.19200
C 	C 	0.33720 0.64640 0.28773 0.19800
C 	C 	0.40960 0.65280 0.26833 0.25700
O 	O 	0.52550 0.81690 0.49063 -0.39600
O 	O 	0.46310 0.82900 0.31773 -0.40600
O 	O 	0.62190 0.92720 0.45543 -0.36900
O 	O 	0.56290 0.93440 0.27333 -0.37700
O 	O 	0.33050 0.68330 0.36173 -0.39700
O 	O 	0.45680 0.69580 0.32763 -0.41400
O 	O 	0.28720 0.60430 0.23283 -0.40400
O 	O 	0.41400 0.61940 0.19063 -0.44000
Cr	Cr	0.42731 0.75248 0.42973 1.53600
C 	C 	0.79910 0.02870 0.37813 0.15700
O 	O 	0.75720 0.04990 0.40743 -0.39600
O 	O 	0.85940 0.04920 0.41153 -0.40900
O 	O 	0.95780 0.08560 0.23153 -0.39400
O 	O 	0.95600 0.96330 0.22913 -0.24500
C 	C 	0.12430 0.68540 0.77267 0.21600
C 	C 	0.12130 0.64810 0.66697 0.19000
C 	C 	0.35360 0.69080 0.62107 0.20100
C 	C 	0.34720 0.75680 0.60167 0.25500
O 	O 	0.18310 0.70860 0.82397 -0.36100
O 	O 	0.17100 0.63410 0.65107 -0.37500
O 	O 	0.07280 0.69470 0.78877 -0.40900
O 	O 	0.06560 0.62850 0.60667 -0.41900
O 	O 	0.31670 0.64720 0.69507 -0.36600
O 	O 	0.30420 0.76100 0.66097 -0.37800
O 	O 	0.39570 0.68290 0.56617 -0.39300
O 	O 	0.38060 0.79460 0.52397 -0.42700
C 	C 	0.97130 0.77040 0.71147 0.28900
O 	O 	0.95010 0.70730 0.74077 -0.37900
O 	O 	0.95080 0.81020 0.74487 -0.39100
O 	O 	0.91440 0.87220 0.56487 -0.39600
O 	O 	0.03670 0.99270 0.56247 -0.43900
C 	C 	0.43890 0.31460 0.89400 0.18100
C 	C 	0.47320 0.35190 0.99970 0.34900
C 	C 	0.66280 0.30920 0.04560 0.11200
C 	C 	0.59040 0.24320 0.06500 0.27700
O 	O 	0.47450 0.29140 0.84270 -0.38000
O 	O 	0.53690 0.36590 0.01560 -0.49800
O 	O 	0.37810 0.30530 0.87790 -0.37400
O 	O 	0.43710 0.37150 0.06000 -0.48200
O 	O 	0.66950 0.35280 0.97160 -0.31800
O 	O 	0.54320 0.23900 0.00570 -0.45200
O 	O 	0.71280 0.31710 0.10050 -0.35500
O 	O 	0.58600 0.20540 0.14270 -0.41200
Cr	Cr	0.57269 0.32517 0.90360 1.55500
C 	C 	0.20090 0.22960 0.95520 0.28700
O 	O 	0.24280 0.29270 0.92590 -0.39200
O 	O 	0.14060 0.18980 0.92180 -0.41200
O 	O 	0.04220 0.12780 0.10180 -0.45700
O 	O 	0.04400 0.00730 0.10420 -0.38800
Mn	Mn	0.67483 0.24752 0.23693 1.33500
C 	C 	0.87570 0.56110 0.56067 0.21900
C 	C 	0.87870 0.52680 0.66637 0.19000
C 	C 	0.64640 0.33720 0.71227 0.19600
C 	C 	0.65280 0.40960 0.73167 0.25300
O 	O 	0.81690 0.52550 0.50937 -0.40000
O 	O 	0.82900 0.46310 0.68227 -0.40200
O 	O 	0.92720 0.62190 0.54457 -0.37600
O 	O 	0.93440 0.56290 0.72667 -0.37300
O 	O 	0.68330 0.33050 0.63827 -0.39400
O 	O 	0.69580 0.45680 0.67237 -0.41100
O 	O 	0.60430 0.28720 0.76717 -0.38500
O 	O 	0.61940 0.41400 0.80937 -0.42000
Cr	Cr	0.75248 0.42731 0.57027 1.53600
C 	C 	0.02870 0.79910 0.62187 0.16500
O 	O 	0.04990 0.75720 0.59257 -0.39700
O 	O 	0.04920 0.85940 0.58847 -0.41000
O 	O 	0.08560 0.95780 0.76847 -0.37700
O 	O 	0.96330 0.95600 0.77087 -0.23600
C 	C 	0.68540 0.12430 0.22733 0.21800
C 	C 	0.64810 0.12130 0.33303 0.18800
C 	C 	0.69080 0.35360 0.37893 0.19900
C 	C 	0.75680 0.34720 0.39833 0.25400
O 	O 	0.70860 0.18310 0.17603 -0.38600
O 	O 	0.63410 0.17100 0.34893 -0.37400
O 	O 	0.69470 0.07280 0.21123 -0.43100
O 	O 	0.62850 0.06560 0.39333 -0.41900
O 	O 	0.64720 0.31670 0.30493 -0.36600
O 	O 	0.76100 0.30420 0.33903 -0.38600
O 	O 	0.68290 0.39570 0.43383 -0.39400
O 	O 	0.79460 0.38060 0.47603 -0.42900
C 	C 	0.77040 0.97130 0.28853 0.29300
O 	O 	0.70730 0.95010 0.25923 -0.38800
O 	O 	0.81020 0.95080 0.25513 -0.40400
O 	O 	0.87220 0.91440 0.43513 -0.39400
O 	O 	0.99270 0.03670 0.43753 -0.44300
Cr	Cr	0.34138 0.34138 -0.00000 1.51700
Cr	Cr	0.09387 0.09387 -0.00000 1.50600
Cr	Cr	0.65862 0.00000 0.33333 1.51600
Cr	Cr	0.90613 0.00000 0.33333 1.50600
Cr	Cr	-0.00000 0.65862 0.66667 1.51800
Cr	Cr	-0.00000 0.90613 0.66667 1.50900
C 	C 	0.08280 0.00000 0.83333 0.21300
C 	C 	0.01230 0.00000 0.83333 0.04900
C 	C 	-0.00000 0.08280 0.16667 0.21500
C 	C 	-0.00000 0.01230 0.16667 0.03800
C 	C 	0.91720 0.91720 0.50000 0.22300
C 	C 	0.98770 0.98770 0.50000 0.35100
N 	N 	0.70020 0.69060 0.10120 -0.25000
N 	N 	0.55050 0.58790 0.88470 -0.25300
N 	N 	0.58440 0.68420 0.02730 -0.29200
C 	C 	0.67860 0.73460 0.14780 0.07900
C 	C 	0.76200 0.69370 0.13630 0.16500
C 	C 	0.53040 0.53630 0.80940 0.24300
C 	C 	0.51800 0.62550 0.87350 0.09900
C 	C 	0.53520 0.67860 0.96190 0.08800
C 	C 	0.61420 0.73430 0.10800 0.04900
C 	C 	0.71890 0.78170 0.22950 0.16800
C 	C 	0.80230 0.74080 0.21800 -0.20900
H 	H 	0.77670 0.66370 0.10450 -0.02100
N 	N 	0.48570 0.52670 0.72310 -0.17500
N 	N 	0.55590 0.49450 0.81370 -0.33600
N 	N 	0.47620 0.62420 0.79510 -0.14900
C 	C 	0.50840 0.72370 0.97720 0.01700
C 	C 	0.58580 0.77870 0.12500 -0.04300
H 	H 	0.70420 0.81170 0.26130 0.06700
C 	C 	0.78070 0.78480 0.26460 -0.12500
H 	H 	0.84450 0.74300 0.24200 0.11500
C 	C 	0.46290 0.57260 0.72190 0.23500
H 	H 	0.58610 0.49980 0.86530 0.17200
H 	H 	0.54310 0.46070 0.76490 0.18000
H 	H 	0.47280 0.72080 0.92950 0.06300
C 	C 	0.53220 0.77110 0.05900 -0.09100
H 	H 	0.60350 0.81310 0.18120 0.06300
H 	H 	0.80820 0.81700 0.32040 0.08700
N 	N 	0.42070 0.56680 0.63660 -0.32200
H 	H 	0.51160 0.79980 0.07020 0.06900
H 	H 	0.41010 0.53410 0.58670 0.16400
H 	H 	0.40390 0.59570 0.63120 0.19200
N 	N 	0.68080 0.69320 0.14390 -0.04700
C 	C 	0.65570 0.73380 0.19200 -0.08000
C 	C 	0.68680 0.77160 0.28700 -0.24900
H 	H 	0.66960 0.79940 0.31940 0.11300
C 	C 	0.74300 0.76880 0.33300 -0.03800
H 	H 	0.76440 0.79470 0.39820 0.05500
C 	C 	0.76830 0.72820 0.28600 0.17300
H 	H 	0.80680 0.72630 0.31750 -0.00700
C 	C 	0.73720 0.69040 0.19100 -0.03300
H 	H 	0.75440 0.66270 0.15790 -0.03100
N 	N 	0.69060 0.70020 0.89880 -0.20300
N 	N 	0.58790 0.55050 0.11530 -0.27400
N 	N 	0.68420 0.58440 0.97270 -0.23000
C 	C 	0.73460 0.67860 0.85220 0.15000
C 	C 	0.69370 0.76200 0.86370 0.19500
C 	C 	0.53630 0.53040 0.19060 0.23200
C 	C 	0.62550 0.51800 0.12650 0.08200
C 	C 	0.67860 0.53520 0.03810 0.06200
C 	C 	0.73430 0.61420 0.89200 0.13100
C 	C 	0.78170 0.71890 0.77050 0.27500
C 	C 	0.74080 0.80230 0.78200 -0.13800
H 	H 	0.66370 0.77670 0.89550 0.00700
N 	N 	0.52670 0.48570 0.27690 -0.17400
N 	N 	0.49450 0.55590 0.18630 -0.33000
N 	N 	0.62420 0.47620 0.20490 -0.14700
C 	C 	0.72370 0.50840 0.02280 -0.26300
C 	C 	0.77870 0.58580 0.87500 -0.18100
H 	H 	0.81170 0.70420 0.73870 0.06700
C 	C 	0.78480 0.78070 0.73540 -0.24600
H 	H 	0.74300 0.84450 0.75800 0.10300
C 	C 	0.57260 0.46290 0.27810 0.23300
H 	H 	0.49980 0.58610 0.13470 0.14600
H 	H 	0.46070 0.54310 0.23510 0.17400
H 	H 	0.72080 0.47280 0.07050 0.12800
C 	C 	0.77110 0.53220 0.94100 0.22200
H 	H 	0.81310 0.60350 0.81880 0.11600
H 	H 	0.81700 0.80820 0.67960 0.12300
N 	N 	0.56680 0.42070 0.36340 -0.32200
H 	H 	0.79980 0.51160 0.92980 -0.00400
H 	H 	0.53410 0.41010 0.41330 0.16400
H 	H 	0.59570 0.40390 0.36880 0.19100
N 	N 	0.69320 0.68080 0.85610 -0.08200
C 	C 	0.73380 0.65570 0.80800 -0.15500
C 	C 	0.77160 0.68680 0.71300 -0.35400
H 	H 	0.79940 0.66960 0.68060 0.14800
C 	C 	0.76880 0.74300 0.66700 0.05100
H 	H 	0.79470 0.76440 0.60180 0.02200
C 	C 	0.72820 0.76830 0.71400 0.17600
H 	H 	0.72630 0.80680 0.68250 -0.01100
C 	C 	0.69040 0.73720 0.80900 -0.06600
H 	H 	0.66270 0.75440 0.84210 -0.04000
Fe	Fe	0.63178 0.63178 -0.00000 1.14600
N 	N 	0.30940 0.00960 0.43453 -0.39300
N 	N 	0.41210 0.96260 0.21803 -0.25600
N 	N 	0.31580 0.90020 0.36063 -0.24800
C 	C 	0.26540 0.94400 0.48113 -0.15900
C 	C 	0.30630 0.06830 0.46963 0.15200
C 	C 	0.46370 0.99410 0.14273 0.30100
C 	C 	0.37450 0.89250 0.20683 0.09100
C 	C 	0.32140 0.85660 0.29523 0.06900
C 	C 	0.26570 0.87990 0.44133 0.07000
C 	C 	0.21830 0.93720 0.56283 -0.08100
C 	C 	0.25920 0.06150 0.55133 -0.28900
H 	H 	0.33630 0.11300 0.43783 0.01100
N 	N 	0.47330 0.95900 0.05643 -0.17400
N 	N 	0.50550 0.06140 0.14703 -0.37500
N 	N 	0.37580 0.85200 0.12843 -0.15200
C 	C 	0.27630 0.78470 0.31053 -0.12200
C 	C 	0.22130 0.80710 0.45833 -0.11200
H 	H 	0.18830 0.89250 0.59463 0.10000
C 	C 	0.21520 0.99590 0.59793 0.36800
H 	H 	0.25700 0.10150 0.57533 0.11400
C 	C 	0.42740 0.89030 0.05523 0.18900
H 	H 	0.50020 0.08630 0.19863 0.15900
H 	H 	0.53930 0.08240 0.09823 0.16500
H 	H 	0.27920 0.75200 0.26283 0.08700
C 	C 	0.22890 0.76110 0.39233 0.05900
H 	H 	0.18690 0.79040 0.51453 0.08400
H 	H 	0.18300 0.99120 0.65373 -0.05800
N 	N 	0.43320 0.85390 0.96993 -0.29100
H 	H 	0.20020 0.71180 0.40353 0.02900
H 	H 	0.46590 0.87600 0.92003 0.18700
H 	H 	0.40430 0.80820 0.96453 0.20800
N 	N 	0.30680 0.98760 0.47723 0.15300
C 	C 	0.26620 0.92190 0.52533 0.14700
C 	C 	0.22840 0.91520 0.62033 -0.09100
H 	H 	0.20060 0.87020 0.65273 0.05200
C 	C 	0.23120 0.97420 0.66633 -0.13200
H 	H 	0.20530 0.96970 0.73153 0.11800
C 	C 	0.27180 0.04010 0.61933 -0.17300
H 	H 	0.27370 0.08050 0.65083 0.10500
C 	C 	0.30960 0.04680 0.52433 0.09800
H 	H 	0.33730 0.09170 0.49123 -0.07600
N 	N 	0.29980 0.99040 0.23213 -0.05700
N 	N 	0.44950 0.03740 0.44863 -0.27200
N 	N 	0.41560 0.09980 0.30603 -0.26800
C 	C 	0.32140 0.05600 0.18553 0.12900
C 	C 	0.23800 0.93170 0.19703 0.04000
C 	C 	0.46960 0.00590 0.52393 0.16900
C 	C 	0.48200 0.10750 0.45983 0.08700
C 	C 	0.46480 0.14340 0.37143 0.07300
C 	C 	0.38580 0.12010 0.22533 0.09100
C 	C 	0.28110 0.06280 0.10383 0.44800
C 	C 	0.19770 0.93850 0.11533 -0.10900
H 	H 	0.22330 0.88700 0.22883 0.00400
N 	N 	0.51430 0.04100 0.61023 -0.17600
N 	N 	0.44410 0.93860 0.51963 -0.29100
N 	N 	0.52380 0.14800 0.53823 -0.14700
C 	C 	0.49160 0.21530 0.35613 -0.12100
C 	C 	0.41420 0.19290 0.20833 -0.11700
H 	H 	0.29580 0.10750 0.07203 0.02800
C 	C 	0.21930 0.00410 0.06873 -0.50900
H 	H 	0.15550 0.89850 0.09133 0.08200
C 	C 	0.53710 0.10970 0.61143 0.23300
H 	H 	0.41390 0.91370 0.46803 0.15700
H 	H 	0.45690 0.91760 0.56843 0.18400
H 	H 	0.52720 0.24800 0.40383 0.09400
C 	C 	0.46780 0.23890 0.27433 0.06200
H 	H 	0.39650 0.20960 0.15213 0.07900
H 	H 	0.19180 0.00880 0.01293 0.17100
N 	N 	0.57930 0.14610 0.69673 -0.32300
H 	H 	0.48840 0.28820 0.26313 0.03000
H 	H 	0.58990 0.12400 0.74663 0.16800
H 	H 	0.59610 0.19180 0.70213 0.19500
N 	N 	0.31920 0.01240 0.18943 -0.22000
C 	C 	0.34430 0.07810 0.14133 -0.15800
C 	C 	0.31320 0.08480 0.04633 -0.43700
H 	H 	0.33040 0.12980 0.01393 0.16400
C 	C 	0.25700 0.02580 0.00033 -0.08400
H 	H 	0.23560 0.03030 0.93513 0.09200
C 	C 	0.23170 0.95990 0.04733 0.45500
H 	H 	0.19320 0.91950 0.01583 -0.12100
C 	C 	0.26280 0.95320 0.14233 -0.07400
H 	H 	0.24560 0.90830 0.17543 0.03500
Fe	Fe	0.36822 0.00000 0.33333 1.14700
N 	N 	0.99040 0.29980 0.76787 -0.07100
N 	N 	0.03740 0.44950 0.55137 -0.27100
N 	N 	0.09980 0.41560 0.69397 -0.27700
C 	C 	0.05600 0.32140 0.81447 0.60700
C 	C 	0.93170 0.23800 0.80297 0.35200
C 	C 	0.00590 0.46960 0.47607 0.16900
C 	C 	0.10750 0.48200 0.54017 0.08400
C 	C 	0.14340 0.46480 0.62857 0.07600
C 	C 	0.12010 0.38580 0.77467 0.11800
C 	C 	0.06280 0.28110 0.89617 0.53800
C 	C 	0.93850 0.19770 0.88467 -0.04900
H 	H 	0.88700 0.22330 0.77117 -0.06900
N 	N 	0.04100 0.51430 0.38977 -0.18100
N 	N 	0.93860 0.44410 0.48037 -0.29300
N 	N 	0.14800 0.52380 0.46177 -0.14700
C 	C 	0.21530 0.49160 0.64387 -0.12500
C 	C 	0.19290 0.41420 0.79167 -0.11600
H 	H 	0.10750 0.29580 0.92797 0.03000
C 	C 	0.00410 0.21930 0.93127 -0.95000
H 	H 	0.89850 0.15550 0.90867 0.08300
C 	C 	0.10970 0.53710 0.38857 0.22300
H 	H 	0.91370 0.41390 0.53197 0.15500
H 	H 	0.91760 0.45690 0.43157 0.17800
H 	H 	0.24800 0.52720 0.59617 0.09400
C 	C 	0.23890 0.46780 0.72567 0.06500
H 	H 	0.20960 0.39650 0.84787 0.09800
H 	H 	0.00880 0.19180 0.98707 0.34400
N 	N 	0.14610 0.57930 0.30327 -0.31800
H 	H 	0.28820 0.48840 0.73687 0.03100
H 	H 	0.12400 0.58990 0.25337 0.14400
H 	H 	0.19180 0.59610 0.29787 0.18400
N 	N 	0.01240 0.31920 0.81057 -0.32000
C 	C 	0.07810 0.34430 0.85867 -0.57100
C 	C 	0.08480 0.31320 0.95367 -0.51600
H 	H 	0.12980 0.33040 0.98607 0.23200
C 	C 	0.02580 0.25700 0.99967 0.35500
H 	H 	0.03030 0.23560 0.06487 -0.16500
C 	C 	0.95990 0.23170 0.95267 0.61500
H 	H 	0.91950 0.19320 0.98417 -0.14300
C 	C 	0.95320 0.26280 0.85767 -0.31500
H 	H 	0.90830 0.24560 0.82457 -0.01400
N 	N 	0.00960 0.30940 0.56547 -0.39400
N 	N 	0.96260 0.41210 0.78197 -0.25500
N 	N 	0.90020 0.31580 0.63937 -0.25100
C 	C 	0.94400 0.26540 0.51887 -0.14700
C 	C 	0.06830 0.30630 0.53037 0.15500
C 	C 	0.99410 0.46370 0.85727 0.31300
C 	C 	0.89250 0.37450 0.79317 0.09900
C 	C 	0.85660 0.32140 0.70477 0.08000
C 	C 	0.87990 0.26570 0.55867 0.07300
C 	C 	0.93720 0.21830 0.43717 -0.06900
C 	C 	0.06150 0.25920 0.44867 -0.28700
H 	H 	0.11300 0.33630 0.56217 0.00000
N 	N 	0.95900 0.47330 0.94357 -0.16500
N 	N 	0.06140 0.50550 0.85297 -0.37500
N 	N 	0.85200 0.37580 0.87157 -0.14700
C 	C 	0.78470 0.27630 0.68947 -0.12400
C 	C 	0.80710 0.22130 0.54167 -0.11500
H 	H 	0.89250 0.18830 0.40537 0.09900
C 	C 	0.99590 0.21520 0.40207 0.34900
H 	H 	0.10150 0.25700 0.42467 0.11200
C 	C 	0.89030 0.42740 0.94477 0.29200
H 	H 	0.08630 0.50020 0.80137 0.16700
H 	H 	0.08240 0.53930 0.90177 0.18700
H 	H 	0.75200 0.27920 0.73717 0.09900
C 	C 	0.76110 0.22890 0.60767 0.06700
H 	H 	0.79040 0.18690 0.48547 0.08500
H 	H 	0.99120 0.18300 0.34627 -0.05200
N 	N 	0.85390 0.43320 0.03007 -0.35800
H 	H 	0.71180 0.20020 0.59647 0.02900
H 	H 	0.87600 0.46590 0.07997 0.16400
H 	H 	0.80820 0.40430 0.03547 0.18000
N 	N 	0.98760 0.30680 0.52277 0.14600
C 	C 	0.92190 0.26620 0.47467 0.12700
C 	C 	0.91520 0.22840 0.37967 -0.09700
H 	H 	0.87020 0.20060 0.34727 0.04700
C 	C 	0.97420 0.23120 0.33367 -0.14200
H 	H 	0.96970 0.20530 0.26847 0.10700
C 	C 	0.04010 0.27180 0.38067 -0.15500
H 	H 	0.08050 0.27370 0.34917 0.09200
C 	C 	0.04680 0.30960 0.47567 0.08200
H 	H 	0.09170 0.33730 0.50877 -0.07100
Fe	Fe	-0.00000 0.36822 0.66667 1.14800
