data_crystal

_cell_length_a 19.98530
_cell_length_b 19.98530
_cell_length_c 19.98530
_cell_angle_alpha 90.00000
_cell_angle_beta  90.00000
_cell_angle_gamma 90.00000

_symmetry_space_group_name_	'P 1'
_symmetry_space_group_name_H-M	'P 1'

loop_
_symmetry_equiv_pos_as_xyz
  x,y,z

loop_
_atom_site_label
_atom_site_type_symbol
_atom_site_fract_x
_atom_site_fract_y
_atom_site_fract_z
_atom_site_charge
Pr	Pr	0.51204 0.74408 0.34638 1.97800
O 	O 	0.55063 0.64175 0.29195 -0.57700
O 	O 	0.58086 0.57990 0.20462 -0.52300
O 	O 	0.40902 0.88459 0.19987 -0.53300
O 	O 	0.46156 0.83834 0.28616 -0.57400
N 	N 	0.50060 0.73581 0.21688 -0.21700
C 	C 	0.44563 0.84130 0.22543 0.37100
C 	C 	0.55497 0.63062 0.22963 0.36000
C 	C 	0.47291 0.78560 0.18191 -0.11100
C 	C 	0.52595 0.68365 0.18435 -0.10600
C 	C 	0.47010 0.78560 0.11316 0.00500
H 	H 	0.45040 0.82070 0.08980 -0.01100
C 	C 	0.52530 0.67930 0.11572 0.00200
H 	H 	0.54290 0.64210 0.09400 0.00000
C 	C 	0.49780 0.73140 0.07989 -0.09500
H 	H 	0.49790 0.73020 0.03340 0.01600
Pr	Pr	0.98796 0.25592 0.84638 1.97900
O 	O 	0.94937 0.35825 0.79195 -0.57600
O 	O 	0.91914 0.42010 0.70462 -0.52100
O 	O 	0.09098 0.11541 0.69987 -0.53200
O 	O 	0.03844 0.16166 0.78616 -0.57300
N 	N 	0.99940 0.26419 0.71688 -0.21600
C 	C 	0.05437 0.15870 0.72543 0.37100
C 	C 	0.94503 0.36938 0.72963 0.36100
C 	C 	0.02709 0.21440 0.68191 -0.10900
C 	C 	0.97405 0.31635 0.68435 -0.10400
C 	C 	0.02990 0.21440 0.61316 0.00500
H 	H 	0.04960 0.17930 0.58980 -0.00900
C 	C 	0.97470 0.32070 0.61572 0.00100
H 	H 	0.95710 0.35790 0.59400 0.00100
C 	C 	0.00220 0.26860 0.57989 -0.09300
H 	H 	0.00210 0.26980 0.53340 0.01700
Pr	Pr	0.48796 0.24408 0.15362 1.97900
O 	O 	0.44937 0.14175 0.20805 -0.57600
O 	O 	0.41914 0.07990 0.29538 -0.52100
O 	O 	0.59098 0.38459 0.30013 -0.53200
O 	O 	0.53844 0.33834 0.21384 -0.57300
N 	N 	0.49940 0.23581 0.28312 -0.21600
C 	C 	0.55437 0.34130 0.27457 0.37200
C 	C 	0.44503 0.13062 0.27037 0.36100
C 	C 	0.52709 0.28560 0.31809 -0.10900
C 	C 	0.47405 0.18365 0.31565 -0.10500
C 	C 	0.52990 0.28560 0.38684 0.00600
H 	H 	0.54960 0.32070 0.41020 -0.01000
C 	C 	0.47470 0.17930 0.38428 0.00200
H 	H 	0.45710 0.14210 0.40600 0.00000
C 	C 	0.50220 0.23140 0.42011 -0.09400
H 	H 	0.50210 0.23020 0.46660 0.01700
Pr	Pr	0.01204 0.75592 0.65362 1.97800
O 	O 	0.05063 0.85825 0.70805 -0.57700
O 	O 	0.08086 0.92010 0.79538 -0.52200
O 	O 	0.90902 0.61541 0.80013 -0.53100
O 	O 	0.96156 0.66166 0.71384 -0.57200
N 	N 	0.00060 0.76419 0.78312 -0.21900
C 	C 	0.94563 0.65870 0.77457 0.37000
C 	C 	0.05497 0.86938 0.77037 0.36000
C 	C 	0.97291 0.71440 0.81809 -0.10400
C 	C 	0.02595 0.81635 0.81565 -0.10200
C 	C 	0.97010 0.71440 0.88684 -0.00000
H 	H 	0.95040 0.67930 0.91020 -0.00700
C 	C 	0.02530 0.82070 0.88428 -0.00700
H 	H 	0.04290 0.85790 0.90600 0.00300
C 	C 	0.99780 0.76860 0.92011 -0.08300
H 	H 	0.99790 0.76980 0.96660 0.01500
Pr	Pr	0.34638 0.51204 0.74408 1.97900
O 	O 	0.29195 0.55063 0.64175 -0.57600
O 	O 	0.20462 0.58086 0.57990 -0.52200
O 	O 	0.19987 0.40902 0.88459 -0.53200
O 	O 	0.28616 0.46156 0.83834 -0.57300
N 	N 	0.21688 0.50060 0.73581 -0.21600
C 	C 	0.22543 0.44563 0.84130 0.37200
C 	C 	0.22963 0.55497 0.63062 0.36100
C 	C 	0.18191 0.47291 0.78560 -0.11000
C 	C 	0.18435 0.52595 0.68365 -0.10500
C 	C 	0.11316 0.47010 0.78560 0.00600
H 	H 	0.08980 0.45040 0.82070 -0.01000
C 	C 	0.11572 0.52530 0.67930 0.00200
H 	H 	0.09400 0.54290 0.64210 0.00000
C 	C 	0.07989 0.49780 0.73140 -0.09500
H 	H 	0.03340 0.49790 0.73020 0.01600
Pr	Pr	0.84638 0.98796 0.25592 1.97900
O 	O 	0.79195 0.94937 0.35825 -0.57600
O 	O 	0.70462 0.91914 0.42010 -0.52100
O 	O 	0.69987 0.09098 0.11541 -0.53200
O 	O 	0.78616 0.03844 0.16166 -0.57300
N 	N 	0.71688 0.99940 0.26419 -0.21600
C 	C 	0.72543 0.05437 0.15870 0.37100
C 	C 	0.72963 0.94503 0.36938 0.36100
C 	C 	0.68191 0.02709 0.21440 -0.10900
C 	C 	0.68435 0.97405 0.31635 -0.10400
C 	C 	0.61316 0.02990 0.21440 0.00500
H 	H 	0.58980 0.04960 0.17930 -0.00900
C 	C 	0.61572 0.97470 0.32070 0.00100
H 	H 	0.59400 0.95710 0.35790 0.00100
C 	C 	0.57989 0.00220 0.26860 -0.09300
H 	H 	0.53340 0.00210 0.26980 0.01700
Pr	Pr	0.15362 0.48796 0.24408 1.97900
O 	O 	0.20805 0.44937 0.14175 -0.57600
O 	O 	0.29538 0.41914 0.07990 -0.52100
O 	O 	0.30013 0.59098 0.38459 -0.53200
O 	O 	0.21384 0.53844 0.33834 -0.57300
N 	N 	0.28312 0.49940 0.23581 -0.21600
C 	C 	0.27457 0.55437 0.34130 0.37200
C 	C 	0.27037 0.44503 0.13062 0.36100
C 	C 	0.31809 0.52709 0.28560 -0.10900
C 	C 	0.31565 0.47405 0.18365 -0.10500
C 	C 	0.38684 0.52990 0.28560 0.00600
H 	H 	0.41020 0.54960 0.32070 -0.01000
C 	C 	0.38428 0.47470 0.17930 0.00200
H 	H 	0.40600 0.45710 0.14210 0.00000
C 	C 	0.42011 0.50220 0.23140 -0.09400
H 	H 	0.46660 0.50210 0.23020 0.01700
Pr	Pr	0.65362 0.01204 0.75592 1.97800
O 	O 	0.70805 0.05063 0.85825 -0.57700
O 	O 	0.79538 0.08086 0.92010 -0.52200
O 	O 	0.80013 0.90902 0.61541 -0.53100
O 	O 	0.71384 0.96156 0.66166 -0.57200
N 	N 	0.78312 0.00060 0.76419 -0.21900
C 	C 	0.77457 0.94563 0.65870 0.37000
C 	C 	0.77037 0.05497 0.86938 0.36000
C 	C 	0.81809 0.97291 0.71440 -0.10400
C 	C 	0.81565 0.02595 0.81635 -0.10200
C 	C 	0.88684 0.97010 0.71440 -0.00000
H 	H 	0.91020 0.95040 0.67930 -0.00700
C 	C 	0.88428 0.02530 0.82070 -0.00700
H 	H 	0.90600 0.04290 0.85790 0.00300
C 	C 	0.92011 0.99780 0.76860 -0.08300
H 	H 	0.96660 0.99790 0.76980 0.01500
Pr	Pr	0.74408 0.34638 0.51204 1.97900
O 	O 	0.64175 0.29195 0.55063 -0.57600
O 	O 	0.57990 0.20462 0.58086 -0.52200
O 	O 	0.88459 0.19987 0.40902 -0.53200
O 	O 	0.83834 0.28616 0.46156 -0.57300
N 	N 	0.73581 0.21688 0.50060 -0.21600
C 	C 	0.84130 0.22543 0.44563 0.37200
C 	C 	0.63062 0.22963 0.55497 0.36100
C 	C 	0.78560 0.18191 0.47291 -0.11000
C 	C 	0.68365 0.18435 0.52595 -0.10500
C 	C 	0.78560 0.11316 0.47010 0.00600
H 	H 	0.82070 0.08980 0.45040 -0.01000
C 	C 	0.67930 0.11572 0.52530 0.00200
H 	H 	0.64210 0.09400 0.54290 0.00000
C 	C 	0.73140 0.07989 0.49780 -0.09500
H 	H 	0.73020 0.03340 0.49790 0.01600
Pr	Pr	0.25592 0.84638 0.98796 1.97900
O 	O 	0.35825 0.79195 0.94937 -0.57600
O 	O 	0.42010 0.70462 0.91914 -0.52100
O 	O 	0.11541 0.69987 0.09098 -0.53200
O 	O 	0.16166 0.78616 0.03844 -0.57300
N 	N 	0.26419 0.71688 0.99940 -0.21600
C 	C 	0.15870 0.72543 0.05437 0.37100
C 	C 	0.36938 0.72963 0.94503 0.36100
C 	C 	0.21440 0.68191 0.02709 -0.10900
C 	C 	0.31635 0.68435 0.97405 -0.10400
C 	C 	0.21440 0.61316 0.02990 0.00500
H 	H 	0.17930 0.58980 0.04960 -0.00900
C 	C 	0.32070 0.61572 0.97470 0.00100
H 	H 	0.35790 0.59400 0.95710 0.00100
C 	C 	0.26860 0.57989 0.00220 -0.09300
H 	H 	0.26980 0.53340 0.00210 0.01700
Pr	Pr	0.24408 0.15362 0.48796 1.97900
O 	O 	0.14175 0.20805 0.44937 -0.57600
O 	O 	0.07990 0.29538 0.41914 -0.52100
O 	O 	0.38459 0.30013 0.59098 -0.53200
O 	O 	0.33834 0.21384 0.53844 -0.57300
N 	N 	0.23581 0.28312 0.49940 -0.21600
C 	C 	0.34130 0.27457 0.55437 0.37200
C 	C 	0.13062 0.27037 0.44503 0.36100
C 	C 	0.28560 0.31809 0.52709 -0.10900
C 	C 	0.18365 0.31565 0.47405 -0.10500
C 	C 	0.28560 0.38684 0.52990 0.00600
H 	H 	0.32070 0.41020 0.54960 -0.01000
C 	C 	0.17930 0.38428 0.47470 0.00200
H 	H 	0.14210 0.40600 0.45710 0.00000
C 	C 	0.23140 0.42011 0.50220 -0.09400
H 	H 	0.23020 0.46660 0.50210 0.01700
Pr	Pr	0.75592 0.65362 0.01204 1.97800
O 	O 	0.85825 0.70805 0.05063 -0.57700
O 	O 	0.92010 0.79538 0.08086 -0.52200
O 	O 	0.61541 0.80013 0.90902 -0.53100
O 	O 	0.66166 0.71384 0.96156 -0.57200
N 	N 	0.76419 0.78312 0.00060 -0.21900
C 	C 	0.65870 0.77457 0.94563 0.37000
C 	C 	0.86938 0.77037 0.05497 0.36000
C 	C 	0.71440 0.81809 0.97291 -0.10400
C 	C 	0.81635 0.81565 0.02595 -0.10200
C 	C 	0.71440 0.88684 0.97010 -0.00000
H 	H 	0.67930 0.91020 0.95040 -0.00700
C 	C 	0.82070 0.88428 0.02530 -0.00700
H 	H 	0.85790 0.90600 0.04290 0.00300
C 	C 	0.76860 0.92011 0.99780 -0.08300
H 	H 	0.76980 0.96660 0.99790 0.01500
Pr	Pr	0.48796 0.25592 0.65362 1.97900
O 	O 	0.44937 0.35825 0.70805 -0.57600
O 	O 	0.41914 0.42010 0.79538 -0.52200
O 	O 	0.59098 0.11541 0.80013 -0.53200
O 	O 	0.53844 0.16166 0.71384 -0.57300
N 	N 	0.49940 0.26419 0.78312 -0.21600
C 	C 	0.55437 0.15870 0.77457 0.37200
C 	C 	0.44503 0.36938 0.77037 0.36100
C 	C 	0.52709 0.21440 0.81809 -0.11000
C 	C 	0.47405 0.31635 0.81565 -0.10500
C 	C 	0.52990 0.21440 0.88684 0.00600
H 	H 	0.54960 0.17930 0.91020 -0.01000
C 	C 	0.47470 0.32070 0.88428 0.00200
H 	H 	0.45710 0.35790 0.90600 0.00000
C 	C 	0.50220 0.26860 0.92011 -0.09500
H 	H 	0.50210 0.26980 0.96660 0.01600
Pr	Pr	0.01204 0.74408 0.15362 1.97900
O 	O 	0.05063 0.64175 0.20805 -0.57600
O 	O 	0.08086 0.57990 0.29538 -0.52100
O 	O 	0.90902 0.88459 0.30013 -0.53200
O 	O 	0.96156 0.83834 0.21384 -0.57300
N 	N 	0.00060 0.73581 0.28312 -0.21600
C 	C 	0.94563 0.84130 0.27457 0.37100
C 	C 	0.05497 0.63062 0.27037 0.36100
C 	C 	0.97291 0.78560 0.31809 -0.10900
C 	C 	0.02595 0.68365 0.31565 -0.10400
C 	C 	0.97010 0.78560 0.38684 0.00500
H 	H 	0.95040 0.82070 0.41020 -0.00900
C 	C 	0.02530 0.67930 0.38428 0.00100
H 	H 	0.04290 0.64210 0.40600 0.00100
C 	C 	0.99780 0.73140 0.42011 -0.09300
H 	H 	0.99790 0.73020 0.46660 0.01700
Pr	Pr	0.51204 0.75592 0.84638 1.97900
O 	O 	0.55063 0.85825 0.79195 -0.57600
O 	O 	0.58086 0.92010 0.70462 -0.52100
O 	O 	0.40902 0.61541 0.69987 -0.53200
O 	O 	0.46156 0.66166 0.78616 -0.57300
N 	N 	0.50060 0.76419 0.71688 -0.21600
C 	C 	0.44563 0.65870 0.72543 0.37200
C 	C 	0.55497 0.86938 0.72963 0.36100
C 	C 	0.47291 0.71440 0.68191 -0.10900
C 	C 	0.52595 0.81635 0.68435 -0.10500
C 	C 	0.47010 0.71440 0.61316 0.00600
H 	H 	0.45040 0.67930 0.58980 -0.01000
C 	C 	0.52530 0.82070 0.61572 0.00200
H 	H 	0.54290 0.85790 0.59400 0.00000
C 	C 	0.49780 0.76860 0.57989 -0.09400
H 	H 	0.49790 0.76980 0.53340 0.01700
Pr	Pr	0.98796 0.24408 0.34638 1.97800
O 	O 	0.94937 0.14175 0.29195 -0.57700
O 	O 	0.91914 0.07990 0.20462 -0.52200
O 	O 	0.09098 0.38459 0.19987 -0.53100
O 	O 	0.03844 0.33834 0.28616 -0.57200
N 	N 	0.99940 0.23581 0.21688 -0.21900
C 	C 	0.05437 0.34130 0.22543 0.37000
C 	C 	0.94503 0.13062 0.22963 0.36000
C 	C 	0.02709 0.28560 0.18191 -0.10400
C 	C 	0.97405 0.18365 0.18435 -0.10200
C 	C 	0.02990 0.28560 0.11316 -0.00000
H 	H 	0.04960 0.32070 0.08980 -0.00700
C 	C 	0.97470 0.17930 0.11572 -0.00700
H 	H 	0.95710 0.14210 0.09400 0.00300
C 	C 	0.00220 0.23140 0.07989 -0.08300
H 	H 	0.00210 0.23020 0.03340 0.01500
Pr	Pr	0.65362 0.48796 0.25592 1.97900
O 	O 	0.70805 0.44937 0.35825 -0.57600
O 	O 	0.79538 0.41914 0.42010 -0.52200
O 	O 	0.80013 0.59098 0.11541 -0.53200
O 	O 	0.71384 0.53844 0.16166 -0.57300
N 	N 	0.78312 0.49940 0.26419 -0.21600
C 	C 	0.77457 0.55437 0.15870 0.37200
C 	C 	0.77037 0.44503 0.36938 0.36100
C 	C 	0.81809 0.52709 0.21440 -0.11000
C 	C 	0.81565 0.47405 0.31635 -0.10500
C 	C 	0.88684 0.52990 0.21440 0.00600
H 	H 	0.91020 0.54960 0.17930 -0.01000
C 	C 	0.88428 0.47470 0.32070 0.00200
H 	H 	0.90600 0.45710 0.35790 0.00000
C 	C 	0.92011 0.50220 0.26860 -0.09500
H 	H 	0.96660 0.50210 0.26980 0.01600
Pr	Pr	0.15362 0.01204 0.74408 1.97900
O 	O 	0.20805 0.05063 0.64175 -0.57600
O 	O 	0.29538 0.08086 0.57990 -0.52100
O 	O 	0.30013 0.90902 0.88459 -0.53200
O 	O 	0.21384 0.96156 0.83834 -0.57300
N 	N 	0.28312 0.00060 0.73581 -0.21600
C 	C 	0.27457 0.94563 0.84130 0.37100
C 	C 	0.27037 0.05497 0.63062 0.36100
C 	C 	0.31809 0.97291 0.78560 -0.10900
C 	C 	0.31565 0.02595 0.68365 -0.10400
C 	C 	0.38684 0.97010 0.78560 0.00500
H 	H 	0.41020 0.95040 0.82070 -0.00900
C 	C 	0.38428 0.02530 0.67930 0.00100
H 	H 	0.40600 0.04290 0.64210 0.00100
C 	C 	0.42011 0.99780 0.73140 -0.09300
H 	H 	0.46660 0.99790 0.73020 0.01700
Pr	Pr	0.84638 0.51204 0.75592 1.97900
O 	O 	0.79195 0.55063 0.85825 -0.57600
O 	O 	0.70462 0.58086 0.92010 -0.52100
O 	O 	0.69987 0.40902 0.61541 -0.53200
O 	O 	0.78616 0.46156 0.66166 -0.57300
N 	N 	0.71688 0.50060 0.76419 -0.21600
C 	C 	0.72543 0.44563 0.65870 0.37200
C 	C 	0.72963 0.55497 0.86938 0.36100
C 	C 	0.68191 0.47291 0.71440 -0.10900
C 	C 	0.68435 0.52595 0.81635 -0.10500
C 	C 	0.61316 0.47010 0.71440 0.00600
H 	H 	0.58980 0.45040 0.67930 -0.01000
C 	C 	0.61572 0.52530 0.82070 0.00200
H 	H 	0.59400 0.54290 0.85790 0.00000
C 	C 	0.57989 0.49780 0.76860 -0.09400
H 	H 	0.53340 0.49790 0.76980 0.01700
Pr	Pr	0.34638 0.98796 0.24408 1.97800
O 	O 	0.29195 0.94937 0.14175 -0.57700
O 	O 	0.20462 0.91914 0.07990 -0.52200
O 	O 	0.19987 0.09098 0.38459 -0.53100
O 	O 	0.28616 0.03844 0.33834 -0.57200
N 	N 	0.21688 0.99940 0.23581 -0.21900
C 	C 	0.22543 0.05437 0.34130 0.37000
C 	C 	0.22963 0.94503 0.13062 0.36000
C 	C 	0.18191 0.02709 0.28560 -0.10400
C 	C 	0.18435 0.97405 0.18365 -0.10200
C 	C 	0.11316 0.02990 0.28560 -0.00000
H 	H 	0.08980 0.04960 0.32070 -0.00700
C 	C 	0.11572 0.97470 0.17930 -0.00700
H 	H 	0.09400 0.95710 0.14210 0.00300
C 	C 	0.07989 0.00220 0.23140 -0.08300
H 	H 	0.03340 0.00210 0.23020 0.01500
Pr	Pr	0.25592 0.65362 0.48796 1.97900
O 	O 	0.35825 0.70805 0.44937 -0.57600
O 	O 	0.42010 0.79538 0.41914 -0.52200
O 	O 	0.11541 0.80013 0.59098 -0.53200
O 	O 	0.16166 0.71384 0.53844 -0.57300
N 	N 	0.26419 0.78312 0.49940 -0.21600
C 	C 	0.15870 0.77457 0.55437 0.37200
C 	C 	0.36938 0.77037 0.44503 0.36100
C 	C 	0.21440 0.81809 0.52709 -0.11000
C 	C 	0.31635 0.81565 0.47405 -0.10500
C 	C 	0.21440 0.88684 0.52990 0.00600
H 	H 	0.17930 0.91020 0.54960 -0.01000
C 	C 	0.32070 0.88428 0.47470 0.00200
H 	H 	0.35790 0.90600 0.45710 0.00000
C 	C 	0.26860 0.92011 0.50220 -0.09500
H 	H 	0.26980 0.96660 0.50210 0.01600
Pr	Pr	0.74408 0.15362 0.01204 1.97900
O 	O 	0.64175 0.20805 0.05063 -0.57600
O 	O 	0.57990 0.29538 0.08086 -0.52100
O 	O 	0.88459 0.30013 0.90902 -0.53200
O 	O 	0.83834 0.21384 0.96156 -0.57300
N 	N 	0.73581 0.28312 0.00060 -0.21600
C 	C 	0.84130 0.27457 0.94563 0.37100
C 	C 	0.63062 0.27037 0.05497 0.36100
C 	C 	0.78560 0.31809 0.97291 -0.10900
C 	C 	0.68365 0.31565 0.02595 -0.10400
C 	C 	0.78560 0.38684 0.97010 0.00500
H 	H 	0.82070 0.41020 0.95040 -0.00900
C 	C 	0.67930 0.38428 0.02530 0.00100
H 	H 	0.64210 0.40600 0.04290 0.00100
C 	C 	0.73140 0.42011 0.99780 -0.09300
H 	H 	0.73020 0.46660 0.99790 0.01700
Pr	Pr	0.75592 0.84638 0.51204 1.97900
O 	O 	0.85825 0.79195 0.55063 -0.57600
O 	O 	0.92010 0.70462 0.58086 -0.52100
O 	O 	0.61541 0.69987 0.40902 -0.53200
O 	O 	0.66166 0.78616 0.46156 -0.57300
N 	N 	0.76419 0.71688 0.50060 -0.21600
C 	C 	0.65870 0.72543 0.44563 0.37200
C 	C 	0.86938 0.72963 0.55497 0.36100
C 	C 	0.71440 0.68191 0.47291 -0.10900
C 	C 	0.81635 0.68435 0.52595 -0.10500
C 	C 	0.71440 0.61316 0.47010 0.00600
H 	H 	0.67930 0.58980 0.45040 -0.01000
C 	C 	0.82070 0.61572 0.52530 0.00200
H 	H 	0.85790 0.59400 0.54290 0.00000
C 	C 	0.76860 0.57989 0.49780 -0.09400
H 	H 	0.76980 0.53340 0.49790 0.01700
Pr	Pr	0.24408 0.34638 0.98796 1.97800
O 	O 	0.14175 0.29195 0.94937 -0.57700
O 	O 	0.07990 0.20462 0.91914 -0.52200
O 	O 	0.38459 0.19987 0.09098 -0.53100
O 	O 	0.33834 0.28616 0.03844 -0.57200
N 	N 	0.23581 0.21688 0.99940 -0.21900
C 	C 	0.34130 0.22543 0.05437 0.37000
C 	C 	0.13062 0.22963 0.94503 0.36000
C 	C 	0.28560 0.18191 0.02709 -0.10400
C 	C 	0.18365 0.18435 0.97405 -0.10200
C 	C 	0.28560 0.11316 0.02990 -0.00000
H 	H 	0.32070 0.08980 0.04960 -0.00700
C 	C 	0.17930 0.11572 0.97470 -0.00700
H 	H 	0.14210 0.09400 0.95710 0.00300
C 	C 	0.23140 0.07989 0.00220 -0.08300
H 	H 	0.23020 0.03340 0.00210 0.01500
