data_crystal

_cell_length_a 19.90910
_cell_length_b 19.90910
_cell_length_c 19.90910
_cell_angle_alpha 90.00000
_cell_angle_beta  90.00000
_cell_angle_gamma 90.00000

_symmetry_space_group_name_	'P 1'
_symmetry_space_group_name_H-M	'P 1'

loop_
_symmetry_equiv_pos_as_xyz
  x,y,z

loop_
_atom_site_label
_atom_site_type_symbol
_atom_site_fract_x
_atom_site_fract_y
_atom_site_fract_z
_atom_site_charge
Nd	Nd	0.49227 0.25293 0.65244 1.72500
O 	O 	0.45090 0.35402 0.70727 -0.52700
O 	O 	0.54033 0.15721 0.71111 -0.53200
N 	N 	0.49961 0.25834 0.78130 -0.19700
O 	O 	0.58530 0.20469 0.58109 -0.49400
O 	O 	0.39190 0.29811 0.58914 -0.50000
C 	C 	0.44555 0.36457 0.76974 0.38500
C 	C 	0.55431 0.15278 0.77253 0.39300
C 	C 	0.52666 0.20810 0.81633 -0.09800
C 	C 	0.47410 0.31090 0.81499 -0.09500
C 	C 	0.52940 0.20800 0.88567 -0.00000
C 	C 	0.47350 0.31370 0.88400 -0.00000
H 	H 	0.54950 0.17270 0.90880 -0.00200
C 	C 	0.50160 0.26170 0.91960 -0.08700
H 	H 	0.45450 0.35010 0.90610 0.00200
H 	H 	0.50180 0.26260 0.96630 0.02000
Nd	Nd	0.00773 0.74707 0.15244 1.72600
O 	O 	0.04910 0.64598 0.20727 -0.52600
O 	O 	0.95967 0.84279 0.21111 -0.53100
N 	N 	0.00039 0.74166 0.28130 -0.19600
O 	O 	0.91470 0.79531 0.08109 -0.49300
O 	O 	0.10810 0.70189 0.08914 -0.49900
C 	C 	0.05445 0.63543 0.26974 0.38500
C 	C 	0.94569 0.84722 0.27253 0.39400
C 	C 	0.97334 0.79190 0.31633 -0.09700
C 	C 	0.02590 0.68910 0.31499 -0.09500
C 	C 	0.97060 0.79200 0.38567 -0.00100
C 	C 	0.02650 0.68630 0.38400 -0.00200
H 	H 	0.95050 0.82730 0.40880 -0.00200
C 	C 	0.99840 0.73830 0.41960 -0.08500
H 	H 	0.04550 0.64990 0.40610 0.00300
H 	H 	0.99820 0.73740 0.46630 0.02000
Nd	Nd	0.50773 0.75293 0.84756 1.72600
O 	O 	0.54910 0.85402 0.79273 -0.52600
O 	O 	0.45967 0.65721 0.78889 -0.53100
N 	N 	0.50039 0.75834 0.71870 -0.19600
O 	O 	0.41470 0.70469 0.91891 -0.49300
O 	O 	0.60810 0.79811 0.91086 -0.49800
C 	C 	0.55445 0.86457 0.73026 0.38500
C 	C 	0.44569 0.65278 0.72747 0.39400
C 	C 	0.47334 0.70810 0.68367 -0.09800
C 	C 	0.52590 0.81090 0.68501 -0.09500
C 	C 	0.47060 0.70800 0.61433 -0.00000
C 	C 	0.52650 0.81370 0.61600 -0.00000
H 	H 	0.45050 0.67270 0.59120 -0.00200
C 	C 	0.49840 0.76170 0.58040 -0.08700
H 	H 	0.54550 0.85010 0.59390 0.00200
H 	H 	0.49820 0.76260 0.53370 0.02000
Nd	Nd	0.99227 0.24707 0.34756 1.72300
O 	O 	0.95090 0.14598 0.29273 -0.52600
O 	O 	0.04033 0.34279 0.28889 -0.52900
N 	N 	0.99961 0.24166 0.21870 -0.19800
O 	O 	0.08530 0.29531 0.41891 -0.49200
O 	O 	0.89190 0.20189 0.41086 -0.49900
C 	C 	0.94555 0.13543 0.23026 0.38400
C 	C 	0.05431 0.34722 0.22747 0.39200
C 	C 	0.02666 0.29190 0.18367 -0.09300
C 	C 	0.97410 0.18910 0.18501 -0.09300
C 	C 	0.02940 0.29200 0.11433 -0.00600
C 	C 	0.97350 0.18630 0.11600 -0.00900
H 	H 	0.04950 0.32730 0.09120 0.00000
C 	C 	0.00160 0.23830 0.08040 -0.07700
H 	H 	0.95450 0.14990 0.09390 0.00500
H 	H 	0.00180 0.23740 0.03370 0.01800
Nd	Nd	0.65244 0.49227 0.25293 1.72600
O 	O 	0.70727 0.45090 0.35402 -0.52600
O 	O 	0.71111 0.54033 0.15721 -0.53100
N 	N 	0.78130 0.49961 0.25834 -0.19600
O 	O 	0.58109 0.58530 0.20469 -0.49300
O 	O 	0.58914 0.39190 0.29811 -0.49900
C 	C 	0.76974 0.44555 0.36457 0.38500
C 	C 	0.77253 0.55431 0.15278 0.39300
C 	C 	0.81633 0.52666 0.20810 -0.09800
C 	C 	0.81499 0.47410 0.31090 -0.09500
C 	C 	0.88567 0.52940 0.20800 -0.00000
C 	C 	0.88400 0.47350 0.31370 -0.00000
H 	H 	0.90880 0.54950 0.17270 -0.00200
C 	C 	0.91960 0.50160 0.26170 -0.08700
H 	H 	0.90610 0.45450 0.35010 0.00200
H 	H 	0.96630 0.50180 0.26260 0.02000
Nd	Nd	0.15244 0.00773 0.74707 1.72600
O 	O 	0.20727 0.04910 0.64598 -0.52600
O 	O 	0.21111 0.95967 0.84279 -0.53100
N 	N 	0.28130 0.00039 0.74166 -0.19600
O 	O 	0.08109 0.91470 0.79531 -0.49300
O 	O 	0.08914 0.10810 0.70189 -0.49900
C 	C 	0.26974 0.05445 0.63543 0.38500
C 	C 	0.27253 0.94569 0.84722 0.39400
C 	C 	0.31633 0.97334 0.79190 -0.09700
C 	C 	0.31499 0.02590 0.68910 -0.09500
C 	C 	0.38567 0.97060 0.79200 -0.00100
C 	C 	0.38400 0.02650 0.68630 -0.00200
H 	H 	0.40880 0.95050 0.82730 -0.00200
C 	C 	0.41960 0.99840 0.73830 -0.08500
H 	H 	0.40610 0.04550 0.64990 0.00300
H 	H 	0.46630 0.99820 0.73740 0.02000
Nd	Nd	0.84756 0.50773 0.75293 1.72600
O 	O 	0.79273 0.54910 0.85402 -0.52600
O 	O 	0.78889 0.45967 0.65721 -0.53100
N 	N 	0.71870 0.50039 0.75834 -0.19600
O 	O 	0.91891 0.41470 0.70469 -0.49300
O 	O 	0.91086 0.60810 0.79811 -0.49800
C 	C 	0.73026 0.55445 0.86457 0.38500
C 	C 	0.72747 0.44569 0.65278 0.39400
C 	C 	0.68367 0.47334 0.70810 -0.09800
C 	C 	0.68501 0.52590 0.81090 -0.09500
C 	C 	0.61433 0.47060 0.70800 -0.00000
C 	C 	0.61600 0.52650 0.81370 -0.00000
H 	H 	0.59120 0.45050 0.67270 -0.00200
C 	C 	0.58040 0.49840 0.76170 -0.08700
H 	H 	0.59390 0.54550 0.85010 0.00200
H 	H 	0.53370 0.49820 0.76260 0.02000
Nd	Nd	0.34756 0.99227 0.24707 1.72300
O 	O 	0.29273 0.95090 0.14598 -0.52600
O 	O 	0.28889 0.04033 0.34279 -0.52900
N 	N 	0.21870 0.99961 0.24166 -0.19800
O 	O 	0.41891 0.08530 0.29531 -0.49200
O 	O 	0.41086 0.89190 0.20189 -0.49900
C 	C 	0.23026 0.94555 0.13543 0.38400
C 	C 	0.22747 0.05431 0.34722 0.39200
C 	C 	0.18367 0.02666 0.29190 -0.09300
C 	C 	0.18501 0.97410 0.18910 -0.09300
C 	C 	0.11433 0.02940 0.29200 -0.00600
C 	C 	0.11600 0.97350 0.18630 -0.00900
H 	H 	0.09120 0.04950 0.32730 0.00000
C 	C 	0.08040 0.00160 0.23830 -0.07700
H 	H 	0.09390 0.95450 0.14990 0.00500
H 	H 	0.03370 0.00180 0.23740 0.01800
Nd	Nd	0.25293 0.65244 0.49227 1.72600
O 	O 	0.35402 0.70727 0.45090 -0.52600
O 	O 	0.15721 0.71111 0.54033 -0.53100
N 	N 	0.25834 0.78130 0.49961 -0.19600
O 	O 	0.20469 0.58109 0.58530 -0.49300
O 	O 	0.29811 0.58914 0.39190 -0.49900
C 	C 	0.36457 0.76974 0.44555 0.38500
C 	C 	0.15278 0.77253 0.55431 0.39300
C 	C 	0.20810 0.81633 0.52666 -0.09800
C 	C 	0.31090 0.81499 0.47410 -0.09500
C 	C 	0.20800 0.88567 0.52940 -0.00000
C 	C 	0.31370 0.88400 0.47350 -0.00000
H 	H 	0.17270 0.90880 0.54950 -0.00200
C 	C 	0.26170 0.91960 0.50160 -0.08700
H 	H 	0.35010 0.90610 0.45450 0.00200
H 	H 	0.26260 0.96630 0.50180 0.02000
Nd	Nd	0.74707 0.15244 0.00773 1.72600
O 	O 	0.64598 0.20727 0.04910 -0.52600
O 	O 	0.84279 0.21111 0.95967 -0.53100
N 	N 	0.74166 0.28130 0.00039 -0.19600
O 	O 	0.79531 0.08109 0.91470 -0.49300
O 	O 	0.70189 0.08914 0.10810 -0.49900
C 	C 	0.63543 0.26974 0.05445 0.38500
C 	C 	0.84722 0.27253 0.94569 0.39400
C 	C 	0.79190 0.31633 0.97334 -0.09700
C 	C 	0.68910 0.31499 0.02590 -0.09500
C 	C 	0.79200 0.38567 0.97060 -0.00100
C 	C 	0.68630 0.38400 0.02650 -0.00200
H 	H 	0.82730 0.40880 0.95050 -0.00200
C 	C 	0.73830 0.41960 0.99840 -0.08500
H 	H 	0.64990 0.40610 0.04550 0.00300
H 	H 	0.73740 0.46630 0.99820 0.02000
Nd	Nd	0.75293 0.84756 0.50773 1.72600
O 	O 	0.85402 0.79273 0.54910 -0.52600
O 	O 	0.65721 0.78889 0.45967 -0.53100
N 	N 	0.75834 0.71870 0.50039 -0.19600
O 	O 	0.70469 0.91891 0.41470 -0.49300
O 	O 	0.79811 0.91086 0.60810 -0.49800
C 	C 	0.86457 0.73026 0.55445 0.38500
C 	C 	0.65278 0.72747 0.44569 0.39400
C 	C 	0.70810 0.68367 0.47334 -0.09800
C 	C 	0.81090 0.68501 0.52590 -0.09500
C 	C 	0.70800 0.61433 0.47060 -0.00000
C 	C 	0.81370 0.61600 0.52650 -0.00000
H 	H 	0.67270 0.59120 0.45050 -0.00200
C 	C 	0.76170 0.58040 0.49840 -0.08700
H 	H 	0.85010 0.59390 0.54550 0.00200
H 	H 	0.76260 0.53370 0.49820 0.02000
Nd	Nd	0.24707 0.34756 0.99227 1.72300
O 	O 	0.14598 0.29273 0.95090 -0.52600
O 	O 	0.34279 0.28889 0.04033 -0.52900
N 	N 	0.24166 0.21870 0.99961 -0.19800
O 	O 	0.29531 0.41891 0.08530 -0.49200
O 	O 	0.20189 0.41086 0.89190 -0.49900
C 	C 	0.13543 0.23026 0.94555 0.38400
C 	C 	0.34722 0.22747 0.05431 0.39200
C 	C 	0.29190 0.18367 0.02666 -0.09300
C 	C 	0.18910 0.18501 0.97410 -0.09300
C 	C 	0.29200 0.11433 0.02940 -0.00600
C 	C 	0.18630 0.11600 0.97350 -0.00900
H 	H 	0.32730 0.09120 0.04950 0.00000
C 	C 	0.23830 0.08040 0.00160 -0.07700
H 	H 	0.14990 0.09390 0.95450 0.00500
H 	H 	0.23740 0.03370 0.00180 0.01800
Nd	Nd	0.50773 0.74707 0.34756 1.72600
O 	O 	0.54910 0.64598 0.29273 -0.52600
O 	O 	0.45967 0.84279 0.28889 -0.53100
N 	N 	0.50039 0.74166 0.21870 -0.19600
O 	O 	0.41470 0.79531 0.41891 -0.49300
O 	O 	0.60810 0.70189 0.41086 -0.49900
C 	C 	0.55445 0.63543 0.23026 0.38500
C 	C 	0.44569 0.84722 0.22747 0.39300
C 	C 	0.47334 0.79190 0.18367 -0.09800
C 	C 	0.52590 0.68910 0.18501 -0.09500
C 	C 	0.47060 0.79200 0.11433 -0.00000
C 	C 	0.52650 0.68630 0.11600 -0.00000
H 	H 	0.45050 0.82730 0.09120 -0.00200
C 	C 	0.49840 0.73830 0.08040 -0.08700
H 	H 	0.54550 0.64990 0.09390 0.00200
H 	H 	0.49820 0.73740 0.03370 0.02000
Nd	Nd	0.99227 0.25293 0.84756 1.72600
O 	O 	0.95090 0.35402 0.79273 -0.52600
O 	O 	0.04033 0.15721 0.78889 -0.53100
N 	N 	0.99961 0.25834 0.71870 -0.19600
O 	O 	0.08530 0.20469 0.91891 -0.49300
O 	O 	0.89190 0.29811 0.91086 -0.49900
C 	C 	0.94555 0.36457 0.73026 0.38500
C 	C 	0.05431 0.15278 0.72747 0.39400
C 	C 	0.02666 0.20810 0.68367 -0.09700
C 	C 	0.97410 0.31090 0.68501 -0.09500
C 	C 	0.02940 0.20800 0.61433 -0.00100
C 	C 	0.97350 0.31370 0.61600 -0.00200
H 	H 	0.04950 0.17270 0.59120 -0.00200
C 	C 	0.00160 0.26170 0.58040 -0.08500
H 	H 	0.95450 0.35010 0.59390 0.00300
H 	H 	0.00180 0.26260 0.53370 0.02000
Nd	Nd	0.49227 0.24707 0.15244 1.72600
O 	O 	0.45090 0.14598 0.20727 -0.52600
O 	O 	0.54033 0.34279 0.21111 -0.53100
N 	N 	0.49961 0.24166 0.28130 -0.19600
O 	O 	0.58530 0.29531 0.08109 -0.49300
O 	O 	0.39190 0.20189 0.08914 -0.49800
C 	C 	0.44555 0.13543 0.26974 0.38500
C 	C 	0.55431 0.34722 0.27253 0.39400
C 	C 	0.52666 0.29190 0.31633 -0.09800
C 	C 	0.47410 0.18910 0.31499 -0.09500
C 	C 	0.52940 0.29200 0.38567 -0.00000
C 	C 	0.47350 0.18630 0.38400 -0.00000
H 	H 	0.54950 0.32730 0.40880 -0.00200
C 	C 	0.50160 0.23830 0.41960 -0.08700
H 	H 	0.45450 0.14990 0.40610 0.00200
H 	H 	0.50180 0.23740 0.46630 0.02000
Nd	Nd	0.00773 0.75293 0.65244 1.72300
O 	O 	0.04910 0.85402 0.70727 -0.52600
O 	O 	0.95967 0.65721 0.71111 -0.52900
N 	N 	0.00039 0.75834 0.78130 -0.19800
O 	O 	0.91470 0.70469 0.58109 -0.49200
O 	O 	0.10810 0.79811 0.58914 -0.49900
C 	C 	0.05445 0.86457 0.76974 0.38400
C 	C 	0.94569 0.65278 0.77253 0.39200
C 	C 	0.97334 0.70810 0.81633 -0.09300
C 	C 	0.02590 0.81090 0.81499 -0.09300
C 	C 	0.97060 0.70800 0.88567 -0.00600
C 	C 	0.02650 0.81370 0.88400 -0.00900
H 	H 	0.95050 0.67270 0.90880 0.00000
C 	C 	0.99840 0.76170 0.91960 -0.07700
H 	H 	0.04550 0.85010 0.90610 0.00500
H 	H 	0.99820 0.76260 0.96630 0.01800
Nd	Nd	0.34756 0.50773 0.74707 1.72600
O 	O 	0.29273 0.54910 0.64598 -0.52600
O 	O 	0.28889 0.45967 0.84279 -0.53100
N 	N 	0.21870 0.50039 0.74166 -0.19600
O 	O 	0.41891 0.41470 0.79531 -0.49300
O 	O 	0.41086 0.60810 0.70189 -0.49900
C 	C 	0.23026 0.55445 0.63543 0.38500
C 	C 	0.22747 0.44569 0.84722 0.39300
C 	C 	0.18367 0.47334 0.79190 -0.09800
C 	C 	0.18501 0.52590 0.68910 -0.09500
C 	C 	0.11433 0.47060 0.79200 -0.00000
C 	C 	0.11600 0.52650 0.68630 -0.00000
H 	H 	0.09120 0.45050 0.82730 -0.00200
C 	C 	0.08040 0.49840 0.73830 -0.08700
H 	H 	0.09390 0.54550 0.64990 0.00200
H 	H 	0.03370 0.49820 0.73740 0.02000
Nd	Nd	0.84756 0.99227 0.25293 1.72600
O 	O 	0.79273 0.95090 0.35402 -0.52600
O 	O 	0.78889 0.04033 0.15721 -0.53100
N 	N 	0.71870 0.99961 0.25834 -0.19600
O 	O 	0.91891 0.08530 0.20469 -0.49300
O 	O 	0.91086 0.89190 0.29811 -0.49900
C 	C 	0.73026 0.94555 0.36457 0.38500
C 	C 	0.72747 0.05431 0.15278 0.39400
C 	C 	0.68367 0.02666 0.20810 -0.09700
C 	C 	0.68501 0.97410 0.31090 -0.09500
C 	C 	0.61433 0.02940 0.20800 -0.00100
C 	C 	0.61600 0.97350 0.31370 -0.00200
H 	H 	0.59120 0.04950 0.17270 -0.00200
C 	C 	0.58040 0.00160 0.26170 -0.08500
H 	H 	0.59390 0.95450 0.35010 0.00300
H 	H 	0.53370 0.00180 0.26260 0.02000
Nd	Nd	0.15244 0.49227 0.24707 1.72600
O 	O 	0.20727 0.45090 0.14598 -0.52600
O 	O 	0.21111 0.54033 0.34279 -0.53100
N 	N 	0.28130 0.49961 0.24166 -0.19600
O 	O 	0.08109 0.58530 0.29531 -0.49300
O 	O 	0.08914 0.39190 0.20189 -0.49800
C 	C 	0.26974 0.44555 0.13543 0.38500
C 	C 	0.27253 0.55431 0.34722 0.39400
C 	C 	0.31633 0.52666 0.29190 -0.09800
C 	C 	0.31499 0.47410 0.18910 -0.09500
C 	C 	0.38567 0.52940 0.29200 -0.00000
C 	C 	0.38400 0.47350 0.18630 -0.00000
H 	H 	0.40880 0.54950 0.32730 -0.00200
C 	C 	0.41960 0.50160 0.23830 -0.08700
H 	H 	0.40610 0.45450 0.14990 0.00200
H 	H 	0.46630 0.50180 0.23740 0.02000
Nd	Nd	0.65244 0.00773 0.75293 1.72300
O 	O 	0.70727 0.04910 0.85402 -0.52600
O 	O 	0.71111 0.95967 0.65721 -0.52900
N 	N 	0.78130 0.00039 0.75834 -0.19800
O 	O 	0.58109 0.91470 0.70469 -0.49200
O 	O 	0.58914 0.10810 0.79811 -0.49900
C 	C 	0.76974 0.05445 0.86457 0.38400
C 	C 	0.77253 0.94569 0.65278 0.39200
C 	C 	0.81633 0.97334 0.70810 -0.09300
C 	C 	0.81499 0.02590 0.81090 -0.09300
C 	C 	0.88567 0.97060 0.70800 -0.00600
C 	C 	0.88400 0.02650 0.81370 -0.00900
H 	H 	0.90880 0.95050 0.67270 0.00000
C 	C 	0.91960 0.99840 0.76170 -0.07700
H 	H 	0.90610 0.04550 0.85010 0.00500
H 	H 	0.96630 0.99820 0.76260 0.01800
Nd	Nd	0.74707 0.34756 0.50773 1.72600
O 	O 	0.64598 0.29273 0.54910 -0.52600
O 	O 	0.84279 0.28889 0.45967 -0.53100
N 	N 	0.74166 0.21870 0.50039 -0.19600
O 	O 	0.79531 0.41891 0.41470 -0.49300
O 	O 	0.70189 0.41086 0.60810 -0.49900
C 	C 	0.63543 0.23026 0.55445 0.38500
C 	C 	0.84722 0.22747 0.44569 0.39300
C 	C 	0.79190 0.18367 0.47334 -0.09800
C 	C 	0.68910 0.18501 0.52590 -0.09500
C 	C 	0.79200 0.11433 0.47060 -0.00000
C 	C 	0.68630 0.11600 0.52650 -0.00000
H 	H 	0.82730 0.09120 0.45050 -0.00200
C 	C 	0.73830 0.08040 0.49840 -0.08700
H 	H 	0.64990 0.09390 0.54550 0.00200
H 	H 	0.73740 0.03370 0.49820 0.02000
Nd	Nd	0.25293 0.84756 0.99227 1.72600
O 	O 	0.35402 0.79273 0.95090 -0.52600
O 	O 	0.15721 0.78889 0.04033 -0.53100
N 	N 	0.25834 0.71870 0.99961 -0.19600
O 	O 	0.20469 0.91891 0.08530 -0.49300
O 	O 	0.29811 0.91086 0.89190 -0.49900
C 	C 	0.36457 0.73026 0.94555 0.38500
C 	C 	0.15278 0.72747 0.05431 0.39400
C 	C 	0.20810 0.68367 0.02666 -0.09700
C 	C 	0.31090 0.68501 0.97410 -0.09500
C 	C 	0.20800 0.61433 0.02940 -0.00100
C 	C 	0.31370 0.61600 0.97350 -0.00200
H 	H 	0.17270 0.59120 0.04950 -0.00200
C 	C 	0.26170 0.58040 0.00160 -0.08500
H 	H 	0.35010 0.59390 0.95450 0.00300
H 	H 	0.26260 0.53370 0.00180 0.02000
Nd	Nd	0.24707 0.15244 0.49227 1.72600
O 	O 	0.14598 0.20727 0.45090 -0.52600
O 	O 	0.34279 0.21111 0.54033 -0.53100
N 	N 	0.24166 0.28130 0.49961 -0.19600
O 	O 	0.29531 0.08109 0.58530 -0.49300
O 	O 	0.20189 0.08914 0.39190 -0.49800
C 	C 	0.13543 0.26974 0.44555 0.38500
C 	C 	0.34722 0.27253 0.55431 0.39400
C 	C 	0.29190 0.31633 0.52666 -0.09800
C 	C 	0.18910 0.31499 0.47410 -0.09500
C 	C 	0.29200 0.38567 0.52940 -0.00000
C 	C 	0.18630 0.38400 0.47350 -0.00000
H 	H 	0.32730 0.40880 0.54950 -0.00200
C 	C 	0.23830 0.41960 0.50160 -0.08700
H 	H 	0.14990 0.40610 0.45450 0.00200
H 	H 	0.23740 0.46630 0.50180 0.02000
Nd	Nd	0.75293 0.65244 0.00773 1.72300
O 	O 	0.85402 0.70727 0.04910 -0.52600
O 	O 	0.65721 0.71111 0.95967 -0.52900
N 	N 	0.75834 0.78130 0.00039 -0.19800
O 	O 	0.70469 0.58109 0.91470 -0.49200
O 	O 	0.79811 0.58914 0.10810 -0.49900
C 	C 	0.86457 0.76974 0.05445 0.38400
C 	C 	0.65278 0.77253 0.94569 0.39200
C 	C 	0.70810 0.81633 0.97334 -0.09300
C 	C 	0.81090 0.81499 0.02590 -0.09300
C 	C 	0.70800 0.88567 0.97060 -0.00600
C 	C 	0.81370 0.88400 0.02650 -0.00900
H 	H 	0.67270 0.90880 0.95050 0.00000
C 	C 	0.76170 0.91960 0.99840 -0.07700
H 	H 	0.85010 0.90610 0.04550 0.00500
H 	H 	0.76260 0.96630 0.99820 0.01800
