data_crystal

_cell_length_a 19.83300
_cell_length_b 19.83300
_cell_length_c 19.83300
_cell_angle_alpha 90.00000
_cell_angle_beta  90.00000
_cell_angle_gamma 90.00000

_symmetry_space_group_name_	'P 1'
_symmetry_space_group_name_H-M	'P 1'

loop_
_symmetry_equiv_pos_as_xyz
  x,y,z

loop_
_atom_site_label
_atom_site_type_symbol
_atom_site_fract_x
_atom_site_fract_y
_atom_site_fract_z
_atom_site_charge
Sm	Sm	0.50657 0.74734 0.34724 1.60300
O 	O 	0.54910 0.64697 0.29367 -0.50000
O 	O 	0.45881 0.84316 0.29060 -0.50300
O 	O 	0.41150 0.89418 0.20290 -0.47400
O 	O 	0.58215 0.58639 0.20539 -0.47200
N 	N 	0.50039 0.74283 0.21944 -0.19100
C 	C 	0.55490 0.63650 0.23070 0.37500
C 	C 	0.44580 0.84850 0.22840 0.37700
C 	C 	0.47320 0.79330 0.18410 -0.08500
C 	C 	0.52620 0.69030 0.18580 -0.08500
C 	C 	0.47080 0.79360 0.11490 -0.00700
H 	H 	0.45130 0.82930 0.09160 0.00700
C 	C 	0.52680 0.68750 0.11600 -0.00700
H 	H 	0.54620 0.65120 0.09360 0.01000
C 	C 	0.49830 0.73950 0.08100 -0.07700
H 	H 	0.49730 0.73840 0.03410 0.02300
Sm	Sm	0.99343 0.25266 0.84724 1.60500
O 	O 	0.95090 0.35303 0.79367 -0.49900
O 	O 	0.04119 0.15684 0.79060 -0.50200
O 	O 	0.08850 0.10582 0.70290 -0.47300
O 	O 	0.91785 0.41361 0.70539 -0.47100
N 	N 	0.99961 0.25717 0.71944 -0.19100
C 	C 	0.94510 0.36350 0.73070 0.37500
C 	C 	0.05420 0.15150 0.72840 0.37700
C 	C 	0.02680 0.20670 0.68410 -0.08500
C 	C 	0.97380 0.30970 0.68580 -0.08500
C 	C 	0.02920 0.20640 0.61490 -0.00800
H 	H 	0.04870 0.17070 0.59160 0.00700
C 	C 	0.97320 0.31250 0.61600 -0.00800
H 	H 	0.95380 0.34880 0.59360 0.01100
C 	C 	0.00170 0.26050 0.58100 -0.07600
H 	H 	0.00270 0.26160 0.53410 0.02300
Sm	Sm	0.49343 0.24734 0.15276 1.60400
O 	O 	0.45090 0.14697 0.20633 -0.49900
O 	O 	0.54119 0.34316 0.20940 -0.50200
O 	O 	0.58850 0.39418 0.29710 -0.47300
O 	O 	0.41785 0.08639 0.29461 -0.47000
N 	N 	0.49961 0.24283 0.28056 -0.19000
C 	C 	0.44510 0.13650 0.26930 0.37500
C 	C 	0.55420 0.34850 0.27160 0.37700
C 	C 	0.52680 0.29330 0.31590 -0.08500
C 	C 	0.47380 0.19030 0.31420 -0.08500
C 	C 	0.52920 0.29360 0.38510 -0.00700
H 	H 	0.54870 0.32930 0.40840 0.00700
C 	C 	0.47320 0.18750 0.38400 -0.00700
H 	H 	0.45380 0.15120 0.40640 0.01000
C 	C 	0.50170 0.23950 0.41900 -0.07700
H 	H 	0.50270 0.23840 0.46590 0.02300
Sm	Sm	0.00657 0.75266 0.65276 1.60100
O 	O 	0.04910 0.85303 0.70633 -0.49900
O 	O 	0.95881 0.65684 0.70940 -0.50100
O 	O 	0.91150 0.60582 0.79710 -0.47200
O 	O 	0.08215 0.91361 0.79461 -0.47100
N 	N 	0.00039 0.75717 0.78056 -0.19200
C 	C 	0.05490 0.86350 0.76930 0.37400
C 	C 	0.94580 0.65150 0.77160 0.37600
C 	C 	0.97320 0.70670 0.81590 -0.08100
C 	C 	0.02620 0.80970 0.81420 -0.08300
C 	C 	0.97080 0.70640 0.88510 -0.01200
H 	H 	0.95130 0.67070 0.90840 0.00900
C 	C 	0.02680 0.81250 0.88400 -0.01500
H 	H 	0.04620 0.84880 0.90640 0.01200
C 	C 	0.99830 0.76050 0.91900 -0.06800
H 	H 	0.99730 0.76160 0.96590 0.02200
Sm	Sm	0.34724 0.50657 0.74734 1.60400
O 	O 	0.29367 0.54910 0.64697 -0.49900
O 	O 	0.29060 0.45881 0.84316 -0.50200
O 	O 	0.20290 0.41150 0.89418 -0.47300
O 	O 	0.20539 0.58215 0.58639 -0.47100
N 	N 	0.21944 0.50039 0.74283 -0.19000
C 	C 	0.23070 0.55490 0.63650 0.37500
C 	C 	0.22840 0.44580 0.84850 0.37700
C 	C 	0.18410 0.47320 0.79330 -0.08500
C 	C 	0.18580 0.52620 0.69030 -0.08500
C 	C 	0.11490 0.47080 0.79360 -0.00700
H 	H 	0.09160 0.45130 0.82930 0.00700
C 	C 	0.11600 0.52680 0.68750 -0.00700
H 	H 	0.09360 0.54620 0.65120 0.01000
C 	C 	0.08100 0.49830 0.73950 -0.07700
H 	H 	0.03410 0.49730 0.73840 0.02300
Sm	Sm	0.84724 0.99343 0.25266 1.60500
O 	O 	0.79367 0.95090 0.35303 -0.49900
O 	O 	0.79060 0.04119 0.15684 -0.50200
O 	O 	0.70290 0.08850 0.10582 -0.47300
O 	O 	0.70539 0.91785 0.41361 -0.47100
N 	N 	0.71944 0.99961 0.25717 -0.19100
C 	C 	0.73070 0.94510 0.36350 0.37500
C 	C 	0.72840 0.05420 0.15150 0.37700
C 	C 	0.68410 0.02680 0.20670 -0.08500
C 	C 	0.68580 0.97380 0.30970 -0.08500
C 	C 	0.61490 0.02920 0.20640 -0.00800
H 	H 	0.59160 0.04870 0.17070 0.00700
C 	C 	0.61600 0.97320 0.31250 -0.00800
H 	H 	0.59360 0.95380 0.34880 0.01100
C 	C 	0.58100 0.00170 0.26050 -0.07600
H 	H 	0.53410 0.00270 0.26160 0.02300
Sm	Sm	0.15276 0.49343 0.24734 1.60400
O 	O 	0.20633 0.45090 0.14697 -0.49900
O 	O 	0.20940 0.54119 0.34316 -0.50200
O 	O 	0.29710 0.58850 0.39418 -0.47300
O 	O 	0.29461 0.41785 0.08639 -0.47000
N 	N 	0.28056 0.49961 0.24283 -0.19000
C 	C 	0.26930 0.44510 0.13650 0.37500
C 	C 	0.27160 0.55420 0.34850 0.37700
C 	C 	0.31590 0.52680 0.29330 -0.08500
C 	C 	0.31420 0.47380 0.19030 -0.08500
C 	C 	0.38510 0.52920 0.29360 -0.00700
H 	H 	0.40840 0.54870 0.32930 0.00700
C 	C 	0.38400 0.47320 0.18750 -0.00700
H 	H 	0.40640 0.45380 0.15120 0.01000
C 	C 	0.41900 0.50170 0.23950 -0.07700
H 	H 	0.46590 0.50270 0.23840 0.02300
Sm	Sm	0.65276 0.00657 0.75266 1.60100
O 	O 	0.70633 0.04910 0.85303 -0.49900
O 	O 	0.70940 0.95881 0.65684 -0.50100
O 	O 	0.79710 0.91150 0.60582 -0.47200
O 	O 	0.79461 0.08215 0.91361 -0.47100
N 	N 	0.78056 0.00039 0.75717 -0.19200
C 	C 	0.76930 0.05490 0.86350 0.37400
C 	C 	0.77160 0.94580 0.65150 0.37600
C 	C 	0.81590 0.97320 0.70670 -0.08100
C 	C 	0.81420 0.02620 0.80970 -0.08300
C 	C 	0.88510 0.97080 0.70640 -0.01200
H 	H 	0.90840 0.95130 0.67070 0.00900
C 	C 	0.88400 0.02680 0.81250 -0.01500
H 	H 	0.90640 0.04620 0.84880 0.01200
C 	C 	0.91900 0.99830 0.76050 -0.06800
H 	H 	0.96590 0.99730 0.76160 0.02200
Sm	Sm	0.74734 0.34724 0.50657 1.60400
O 	O 	0.64697 0.29367 0.54910 -0.49900
O 	O 	0.84316 0.29060 0.45881 -0.50200
O 	O 	0.89418 0.20290 0.41150 -0.47300
O 	O 	0.58639 0.20539 0.58215 -0.47100
N 	N 	0.74283 0.21944 0.50039 -0.19000
C 	C 	0.63650 0.23070 0.55490 0.37500
C 	C 	0.84850 0.22840 0.44580 0.37700
C 	C 	0.79330 0.18410 0.47320 -0.08500
C 	C 	0.69030 0.18580 0.52620 -0.08500
C 	C 	0.79360 0.11490 0.47080 -0.00700
H 	H 	0.82930 0.09160 0.45130 0.00700
C 	C 	0.68750 0.11600 0.52680 -0.00700
H 	H 	0.65120 0.09360 0.54620 0.01000
C 	C 	0.73950 0.08100 0.49830 -0.07700
H 	H 	0.73840 0.03410 0.49730 0.02300
Sm	Sm	0.25266 0.84724 0.99343 1.60500
O 	O 	0.35303 0.79367 0.95090 -0.49900
O 	O 	0.15684 0.79060 0.04119 -0.50200
O 	O 	0.10582 0.70290 0.08850 -0.47300
O 	O 	0.41361 0.70539 0.91785 -0.47100
N 	N 	0.25717 0.71944 0.99961 -0.19100
C 	C 	0.36350 0.73070 0.94510 0.37500
C 	C 	0.15150 0.72840 0.05420 0.37700
C 	C 	0.20670 0.68410 0.02680 -0.08500
C 	C 	0.30970 0.68580 0.97380 -0.08500
C 	C 	0.20640 0.61490 0.02920 -0.00800
H 	H 	0.17070 0.59160 0.04870 0.00700
C 	C 	0.31250 0.61600 0.97320 -0.00800
H 	H 	0.34880 0.59360 0.95380 0.01100
C 	C 	0.26050 0.58100 0.00170 -0.07600
H 	H 	0.26160 0.53410 0.00270 0.02300
Sm	Sm	0.24734 0.15276 0.49343 1.60400
O 	O 	0.14697 0.20633 0.45090 -0.49900
O 	O 	0.34316 0.20940 0.54119 -0.50200
O 	O 	0.39418 0.29710 0.58850 -0.47300
O 	O 	0.08639 0.29461 0.41785 -0.47000
N 	N 	0.24283 0.28056 0.49961 -0.19000
C 	C 	0.13650 0.26930 0.44510 0.37500
C 	C 	0.34850 0.27160 0.55420 0.37700
C 	C 	0.29330 0.31590 0.52680 -0.08500
C 	C 	0.19030 0.31420 0.47380 -0.08500
C 	C 	0.29360 0.38510 0.52920 -0.00700
H 	H 	0.32930 0.40840 0.54870 0.00700
C 	C 	0.18750 0.38400 0.47320 -0.00700
H 	H 	0.15120 0.40640 0.45380 0.01000
C 	C 	0.23950 0.41900 0.50170 -0.07700
H 	H 	0.23840 0.46590 0.50270 0.02300
Sm	Sm	0.75266 0.65276 0.00657 1.60100
O 	O 	0.85303 0.70633 0.04910 -0.49900
O 	O 	0.65684 0.70940 0.95881 -0.50100
O 	O 	0.60582 0.79710 0.91150 -0.47200
O 	O 	0.91361 0.79461 0.08215 -0.47100
N 	N 	0.75717 0.78056 0.00039 -0.19200
C 	C 	0.86350 0.76930 0.05490 0.37400
C 	C 	0.65150 0.77160 0.94580 0.37600
C 	C 	0.70670 0.81590 0.97320 -0.08100
C 	C 	0.80970 0.81420 0.02620 -0.08300
C 	C 	0.70640 0.88510 0.97080 -0.01200
H 	H 	0.67070 0.90840 0.95130 0.00900
C 	C 	0.81250 0.88400 0.02680 -0.01500
H 	H 	0.84880 0.90640 0.04620 0.01200
C 	C 	0.76050 0.91900 0.99830 -0.06800
H 	H 	0.76160 0.96590 0.99730 0.02200
Sm	Sm	0.49343 0.25266 0.65276 1.60400
O 	O 	0.45090 0.35303 0.70633 -0.49900
O 	O 	0.54119 0.15684 0.70940 -0.50200
O 	O 	0.58850 0.10582 0.79710 -0.47300
O 	O 	0.41785 0.41361 0.79461 -0.47100
N 	N 	0.49961 0.25717 0.78056 -0.19000
C 	C 	0.44510 0.36350 0.76930 0.37500
C 	C 	0.55420 0.15150 0.77160 0.37700
C 	C 	0.52680 0.20670 0.81590 -0.08500
C 	C 	0.47380 0.30970 0.81420 -0.08500
C 	C 	0.52920 0.20640 0.88510 -0.00700
H 	H 	0.54870 0.17070 0.90840 0.00700
C 	C 	0.47320 0.31250 0.88400 -0.00700
H 	H 	0.45380 0.34880 0.90640 0.01000
C 	C 	0.50170 0.26050 0.91900 -0.07700
H 	H 	0.50270 0.26160 0.96590 0.02300
Sm	Sm	0.00657 0.74734 0.15276 1.60500
O 	O 	0.04910 0.64697 0.20633 -0.49900
O 	O 	0.95881 0.84316 0.20940 -0.50200
O 	O 	0.91150 0.89418 0.29710 -0.47300
O 	O 	0.08215 0.58639 0.29461 -0.47100
N 	N 	0.00039 0.74283 0.28056 -0.19100
C 	C 	0.05490 0.63650 0.26930 0.37500
C 	C 	0.94580 0.84850 0.27160 0.37700
C 	C 	0.97320 0.79330 0.31590 -0.08500
C 	C 	0.02620 0.69030 0.31420 -0.08500
C 	C 	0.97080 0.79360 0.38510 -0.00800
H 	H 	0.95130 0.82930 0.40840 0.00700
C 	C 	0.02680 0.68750 0.38400 -0.00800
H 	H 	0.04620 0.65120 0.40640 0.01100
C 	C 	0.99830 0.73950 0.41900 -0.07600
H 	H 	0.99730 0.73840 0.46590 0.02300
Sm	Sm	0.50657 0.75266 0.84724 1.60400
O 	O 	0.54910 0.85303 0.79367 -0.49900
O 	O 	0.45881 0.65684 0.79060 -0.50200
O 	O 	0.41150 0.60582 0.70290 -0.47300
O 	O 	0.58215 0.91361 0.70539 -0.47000
N 	N 	0.50039 0.75717 0.71944 -0.19000
C 	C 	0.55490 0.86350 0.73070 0.37500
C 	C 	0.44580 0.65150 0.72840 0.37700
C 	C 	0.47320 0.70670 0.68410 -0.08500
C 	C 	0.52620 0.80970 0.68580 -0.08500
C 	C 	0.47080 0.70640 0.61490 -0.00700
H 	H 	0.45130 0.67070 0.59160 0.00700
C 	C 	0.52680 0.81250 0.61600 -0.00700
H 	H 	0.54620 0.84880 0.59360 0.01000
C 	C 	0.49830 0.76050 0.58100 -0.07700
H 	H 	0.49730 0.76160 0.53410 0.02300
Sm	Sm	0.99343 0.24734 0.34724 1.60100
O 	O 	0.95090 0.14697 0.29367 -0.49900
O 	O 	0.04119 0.34316 0.29060 -0.50100
O 	O 	0.08850 0.39418 0.20290 -0.47200
O 	O 	0.91785 0.08639 0.20539 -0.47100
N 	N 	0.99961 0.24283 0.21944 -0.19200
C 	C 	0.94510 0.13650 0.23070 0.37400
C 	C 	0.05420 0.34850 0.22840 0.37600
C 	C 	0.02680 0.29330 0.18410 -0.08100
C 	C 	0.97380 0.19030 0.18580 -0.08300
C 	C 	0.02920 0.29360 0.11490 -0.01200
H 	H 	0.04870 0.32930 0.09160 0.00900
C 	C 	0.97320 0.18750 0.11600 -0.01500
H 	H 	0.95380 0.15120 0.09360 0.01200
C 	C 	0.00170 0.23950 0.08100 -0.06800
H 	H 	0.00270 0.23840 0.03410 0.02200
Sm	Sm	0.65276 0.49343 0.25266 1.60400
O 	O 	0.70633 0.45090 0.35303 -0.49900
O 	O 	0.70940 0.54119 0.15684 -0.50200
O 	O 	0.79710 0.58850 0.10582 -0.47300
O 	O 	0.79461 0.41785 0.41361 -0.47100
N 	N 	0.78056 0.49961 0.25717 -0.19000
C 	C 	0.76930 0.44510 0.36350 0.37500
C 	C 	0.77160 0.55420 0.15150 0.37700
C 	C 	0.81590 0.52680 0.20670 -0.08500
C 	C 	0.81420 0.47380 0.30970 -0.08500
C 	C 	0.88510 0.52920 0.20640 -0.00700
H 	H 	0.90840 0.54870 0.17070 0.00700
C 	C 	0.88400 0.47320 0.31250 -0.00700
H 	H 	0.90640 0.45380 0.34880 0.01000
C 	C 	0.91900 0.50170 0.26050 -0.07700
H 	H 	0.96590 0.50270 0.26160 0.02300
Sm	Sm	0.15276 0.00657 0.74734 1.60500
O 	O 	0.20633 0.04910 0.64697 -0.49900
O 	O 	0.20940 0.95881 0.84316 -0.50200
O 	O 	0.29710 0.91150 0.89418 -0.47300
O 	O 	0.29461 0.08215 0.58639 -0.47100
N 	N 	0.28056 0.00039 0.74283 -0.19100
C 	C 	0.26930 0.05490 0.63650 0.37500
C 	C 	0.27160 0.94580 0.84850 0.37700
C 	C 	0.31590 0.97320 0.79330 -0.08500
C 	C 	0.31420 0.02620 0.69030 -0.08500
C 	C 	0.38510 0.97080 0.79360 -0.00800
H 	H 	0.40840 0.95130 0.82930 0.00700
C 	C 	0.38400 0.02680 0.68750 -0.00800
H 	H 	0.40640 0.04620 0.65120 0.01100
C 	C 	0.41900 0.99830 0.73950 -0.07600
H 	H 	0.46590 0.99730 0.73840 0.02300
Sm	Sm	0.84724 0.50657 0.75266 1.60400
O 	O 	0.79367 0.54910 0.85303 -0.49900
O 	O 	0.79060 0.45881 0.65684 -0.50200
O 	O 	0.70290 0.41150 0.60582 -0.47300
O 	O 	0.70539 0.58215 0.91361 -0.47000
N 	N 	0.71944 0.50039 0.75717 -0.19000
C 	C 	0.73070 0.55490 0.86350 0.37500
C 	C 	0.72840 0.44580 0.65150 0.37700
C 	C 	0.68410 0.47320 0.70670 -0.08500
C 	C 	0.68580 0.52620 0.80970 -0.08500
C 	C 	0.61490 0.47080 0.70640 -0.00700
H 	H 	0.59160 0.45130 0.67070 0.00700
C 	C 	0.61600 0.52680 0.81250 -0.00700
H 	H 	0.59360 0.54620 0.84880 0.01000
C 	C 	0.58100 0.49830 0.76050 -0.07700
H 	H 	0.53410 0.49730 0.76160 0.02300
Sm	Sm	0.34724 0.99343 0.24734 1.60100
O 	O 	0.29367 0.95090 0.14697 -0.49900
O 	O 	0.29060 0.04119 0.34316 -0.50100
O 	O 	0.20290 0.08850 0.39418 -0.47200
O 	O 	0.20539 0.91785 0.08639 -0.47100
N 	N 	0.21944 0.99961 0.24283 -0.19200
C 	C 	0.23070 0.94510 0.13650 0.37400
C 	C 	0.22840 0.05420 0.34850 0.37600
C 	C 	0.18410 0.02680 0.29330 -0.08100
C 	C 	0.18580 0.97380 0.19030 -0.08300
C 	C 	0.11490 0.02920 0.29360 -0.01200
H 	H 	0.09160 0.04870 0.32930 0.00900
C 	C 	0.11600 0.97320 0.18750 -0.01500
H 	H 	0.09360 0.95380 0.15120 0.01200
C 	C 	0.08100 0.00170 0.23950 -0.06800
H 	H 	0.03410 0.00270 0.23840 0.02200
Sm	Sm	0.25266 0.65276 0.49343 1.60400
O 	O 	0.35303 0.70633 0.45090 -0.49900
O 	O 	0.15684 0.70940 0.54119 -0.50200
O 	O 	0.10582 0.79710 0.58850 -0.47300
O 	O 	0.41361 0.79461 0.41785 -0.47100
N 	N 	0.25717 0.78056 0.49961 -0.19000
C 	C 	0.36350 0.76930 0.44510 0.37500
C 	C 	0.15150 0.77160 0.55420 0.37700
C 	C 	0.20670 0.81590 0.52680 -0.08500
C 	C 	0.30970 0.81420 0.47380 -0.08500
C 	C 	0.20640 0.88510 0.52920 -0.00700
H 	H 	0.17070 0.90840 0.54870 0.00700
C 	C 	0.31250 0.88400 0.47320 -0.00700
H 	H 	0.34880 0.90640 0.45380 0.01000
C 	C 	0.26050 0.91900 0.50170 -0.07700
H 	H 	0.26160 0.96590 0.50270 0.02300
Sm	Sm	0.74734 0.15276 0.00657 1.60500
O 	O 	0.64697 0.20633 0.04910 -0.49900
O 	O 	0.84316 0.20940 0.95881 -0.50200
O 	O 	0.89418 0.29710 0.91150 -0.47300
O 	O 	0.58639 0.29461 0.08215 -0.47100
N 	N 	0.74283 0.28056 0.00039 -0.19100
C 	C 	0.63650 0.26930 0.05490 0.37500
C 	C 	0.84850 0.27160 0.94580 0.37700
C 	C 	0.79330 0.31590 0.97320 -0.08500
C 	C 	0.69030 0.31420 0.02620 -0.08500
C 	C 	0.79360 0.38510 0.97080 -0.00800
H 	H 	0.82930 0.40840 0.95130 0.00700
C 	C 	0.68750 0.38400 0.02680 -0.00800
H 	H 	0.65120 0.40640 0.04620 0.01100
C 	C 	0.73950 0.41900 0.99830 -0.07600
H 	H 	0.73840 0.46590 0.99730 0.02300
Sm	Sm	0.75266 0.84724 0.50657 1.60400
O 	O 	0.85303 0.79367 0.54910 -0.49900
O 	O 	0.65684 0.79060 0.45881 -0.50200
O 	O 	0.60582 0.70290 0.41150 -0.47300
O 	O 	0.91361 0.70539 0.58215 -0.47000
N 	N 	0.75717 0.71944 0.50039 -0.19000
C 	C 	0.86350 0.73070 0.55490 0.37500
C 	C 	0.65150 0.72840 0.44580 0.37700
C 	C 	0.70670 0.68410 0.47320 -0.08500
C 	C 	0.80970 0.68580 0.52620 -0.08500
C 	C 	0.70640 0.61490 0.47080 -0.00700
H 	H 	0.67070 0.59160 0.45130 0.00700
C 	C 	0.81250 0.61600 0.52680 -0.00700
H 	H 	0.84880 0.59360 0.54620 0.01000
C 	C 	0.76050 0.58100 0.49830 -0.07700
H 	H 	0.76160 0.53410 0.49730 0.02300
Sm	Sm	0.24734 0.34724 0.99343 1.60100
O 	O 	0.14697 0.29367 0.95090 -0.49900
O 	O 	0.34316 0.29060 0.04119 -0.50100
O 	O 	0.39418 0.20290 0.08850 -0.47200
O 	O 	0.08639 0.20539 0.91785 -0.47100
N 	N 	0.24283 0.21944 0.99961 -0.19200
C 	C 	0.13650 0.23070 0.94510 0.37400
C 	C 	0.34850 0.22840 0.05420 0.37600
C 	C 	0.29330 0.18410 0.02680 -0.08100
C 	C 	0.19030 0.18580 0.97380 -0.08300
C 	C 	0.29360 0.11490 0.02920 -0.01200
H 	H 	0.32930 0.09160 0.04870 0.00900
C 	C 	0.18750 0.11600 0.97320 -0.01500
H 	H 	0.15120 0.09360 0.95380 0.01200
C 	C 	0.23950 0.08100 0.00170 -0.06800
H 	H 	0.23840 0.03410 0.00270 0.02200
