data_crystal

_cell_length_a 8.55300
_cell_length_b 9.11400
_cell_length_c 10.39900
_cell_angle_alpha 105.16000
_cell_angle_beta  97.83000
_cell_angle_gamma 114.41000

_symmetry_space_group_name_	'P 1'
_symmetry_space_group_name_H-M	'P 1'

loop_
_symmetry_equiv_pos_as_xyz
  x,y,z

loop_
_atom_site_label
_atom_site_type_symbol
_atom_site_fract_x
_atom_site_fract_y
_atom_site_fract_z
_atom_site_charge
Cu	Cu	0.82825 0.95790 0.29730 0.90900
P 	P 	0.23604 0.09973 0.42397 0.40400
O 	O 	0.08050 0.12640 0.36490 -0.39100
O 	O 	0.40100 0.27050 0.50450 -0.43200
O 	O 	0.19320 0.98870 0.51390 -0.38400
C 	C 	0.28740 0.98810 0.27990 -0.03900
C 	C 	0.22950 0.98270 0.14660 -0.03200
H 	H 	0.15830 0.03390 0.13040 0.05000
C 	C 	0.27580 0.90280 0.03800 -0.03300
C 	C 	0.38210 0.82540 0.06180 -0.09900
H 	H 	0.41140 0.76850 0.98850 0.06800
C 	C 	0.44340 0.83350 0.19380 0.09600
C 	C 	0.39400 0.91150 0.30200 -0.10900
H 	H 	0.43250 0.91260 0.39050 0.07600
N 	N 	0.56720 0.76850 0.22300 -0.31900
H 	H 	0.55500 0.68000 0.14500 0.08500
H 	H 	0.54000 0.71700 0.28600 0.10800
C 	C 	0.22190 0.90360 0.89520 0.30100
O 	O 	0.21730 0.79390 0.79370 -0.29700
O 	O 	0.18620 0.02470 0.88740 -0.38600
Cu	Cu	0.17175 0.04210 0.70270 0.90900
P 	P 	0.76396 0.90027 0.57603 0.40400
O 	O 	0.91950 0.87360 0.63510 -0.39100
O 	O 	0.59900 0.72950 0.49550 -0.43200
O 	O 	0.80680 0.01130 0.48610 -0.38400
C 	C 	0.71260 0.01190 0.72010 -0.03900
C 	C 	0.77050 0.01730 0.85340 -0.03200
H 	H 	0.84170 0.96610 0.86960 0.05000
C 	C 	0.72420 0.09720 0.96200 -0.03300
C 	C 	0.61790 0.17460 0.93820 -0.09900
H 	H 	0.58860 0.23150 0.01150 0.06800
C 	C 	0.55660 0.16650 0.80620 0.09600
C 	C 	0.60600 0.08850 0.69800 -0.10900
H 	H 	0.56750 0.08740 0.60950 0.07600
N 	N 	0.43280 0.23150 0.77700 -0.31900
H 	H 	0.44500 0.32000 0.85500 0.08500
H 	H 	0.46000 0.28300 0.71400 0.10800
C 	C 	0.77810 0.09640 0.10480 0.30100
O 	O 	0.78270 0.20610 0.20630 -0.29700
O 	O 	0.81380 0.97530 0.11260 -0.38600
Cu	Cu	0.50000 0.50000 0.50000 0.84800
