data_crystal

_cell_length_a 12.66800
_cell_length_b 12.66800
_cell_length_c 12.66800
_cell_angle_alpha 90.00000
_cell_angle_beta  90.00000
_cell_angle_gamma 90.00000

_symmetry_space_group_name_	'P 1'
_symmetry_space_group_name_H-M	'P 1'

loop_
_symmetry_equiv_pos_as_xyz
  x,y,z

loop_
_atom_site_label
_atom_site_type_symbol
_atom_site_fract_x
_atom_site_fract_y
_atom_site_fract_z
_atom_site_charge
Cd	Cd	0.37500 0.37500 0.37500 1.16000
Cd	Cd	0.37500 0.87500 0.87500 1.16000
Cd	Cd	0.87500 0.87500 0.37500 1.16000
Cd	Cd	0.87500 0.37500 0.87500 1.16000
Cd	Cd	0.12500 0.62500 0.12500 1.16000
Cd	Cd	0.62500 0.62500 0.62500 1.16000
Cd	Cd	0.62500 0.12500 0.12500 1.16000
Cd	Cd	0.12500 0.12500 0.62500 1.16000
C 	C 	0.47300 0.47300 0.47300 -0.29000
C 	C 	0.47300 0.97300 0.97300 -0.29000
C 	C 	0.97300 0.47300 0.97300 -0.29000
C 	C 	0.97300 0.97300 0.47300 -0.29000
C 	C 	0.27700 0.77700 0.97300 -0.29000
C 	C 	0.27700 0.27700 0.47300 -0.29000
C 	C 	0.77700 0.97300 0.27700 -0.29000
C 	C 	0.77700 0.47300 0.77700 -0.29000
C 	C 	0.27700 0.47300 0.27700 -0.29000
C 	C 	0.97300 0.27700 0.77700 -0.29000
C 	C 	0.47300 0.27700 0.27700 -0.29000
C 	C 	0.22300 0.72300 0.02700 -0.29000
C 	C 	0.22300 0.22300 0.52700 -0.29000
C 	C 	0.52700 0.52700 0.52700 -0.29000
C 	C 	0.52700 0.02700 0.02700 -0.29000
C 	C 	0.02700 0.52700 0.02700 -0.29000
C 	C 	0.02700 0.02700 0.52700 -0.29000
C 	C 	0.72300 0.02700 0.22300 -0.29000
C 	C 	0.72300 0.52700 0.72300 -0.29000
C 	C 	0.22300 0.52700 0.22300 -0.29000
C 	C 	0.02700 0.22300 0.72300 -0.29000
C 	C 	0.52700 0.22300 0.22300 -0.29000
C 	C 	0.72300 0.22300 0.02700 -0.29000
C 	C 	0.72300 0.72300 0.52700 -0.29000
C 	C 	0.22300 0.02700 0.72300 -0.29000
C 	C 	0.02700 0.72300 0.22300 -0.29000
C 	C 	0.52700 0.72300 0.72300 -0.29000
C 	C 	0.77700 0.27700 0.97300 -0.29000
C 	C 	0.77700 0.77700 0.47300 -0.29000
C 	C 	0.27700 0.97300 0.77700 -0.29000
C 	C 	0.97300 0.77700 0.27700 -0.29000
C 	C 	0.47300 0.77700 0.77700 -0.29000
