data_crystal

_cell_length_a 18.69800
_cell_length_b 19.29200
_cell_length_c 19.38300
_cell_angle_alpha 90.00000
_cell_angle_beta  91.04500
_cell_angle_gamma 90.00000

_symmetry_space_group_name_	'P 1'
_symmetry_space_group_name_H-M	'P 1'

loop_
_symmetry_equiv_pos_as_xyz
  x,y,z

loop_
_atom_site_label
_atom_site_type_symbol
_atom_site_fract_x
_atom_site_fract_y
_atom_site_fract_z
_atom_site_charge
O 	O 	0.18070 0.03820 0.58200 -0.51800
O 	O 	0.27630 0.00190 0.64210 -0.35000
C 	C 	0.21240 0.01620 0.64080 0.29400
C 	C 	0.16740 0.00600 0.70210 -0.09800
C 	C 	0.09280 0.00420 0.69170 -0.04000
H 	H 	0.07290 0.01150 0.64800 0.01700
Fe	Fe	0.72948 0.98591 0.47907 1.20000
Fe	Fe	0.22984 0.52276 0.51696 1.19800
Fe	Fe	0.86962 0.86663 0.45568 1.07900
Fe	Fe	0.36756 0.55582 0.63798 1.08000
O 	O 	0.77860 0.97240 0.57140 -0.44400
O 	O 	0.73100 0.02690 0.81970 -0.47300
O 	O 	0.82430 0.02300 0.89400 -0.44200
O 	O 	0.32010 0.58460 0.53810 -0.53100
O 	O 	0.22440 0.64230 0.50210 -0.34700
O 	O 	0.77040 0.82100 0.47950 -0.48100
O 	O 	0.14520 0.99100 0.94540 -0.37500
O 	O 	0.71850 0.56990 0.46030 -0.45400
O 	O 	0.25780 0.90300 0.52130 -0.36500
O 	O 	0.67750 0.89540 0.47950 -0.45100
O 	O 	0.25220 0.97740 0.90280 -0.34800
O 	O 	0.61710 0.54320 0.40370 -0.45700
O 	O 	0.88070 0.91410 0.55170 -0.45900
O 	O 	0.36070 0.94840 0.49030 -0.35700
C 	C 	0.29060 0.64080 0.51550 0.30800
C 	C 	0.45260 0.74750 0.47960 -0.00300
C 	C 	0.86690 0.97030 0.65940 -0.11900
C 	C 	0.96770 0.98670 0.73710 -0.02000
C 	C 	0.84760 0.00520 0.77660 -0.11500
C 	C 	0.63030 0.65570 0.45030 -0.11600
C 	C 	0.82120 0.98830 0.71100 0.04800
H 	H 	0.77210 0.98920 0.70220 0.02800
C 	C 	0.35070 0.82510 0.49560 -0.07000
C 	C 	0.65410 0.77630 0.47190 -0.10900
C 	C 	0.07950 0.98820 0.81430 -0.04200
H 	H 	0.05030 0.98510 0.85250 0.06100
C 	C 	0.83960 0.95150 0.58910 0.37600
C 	C 	0.70670 0.83670 0.47790 0.39700
C 	C 	0.53190 0.73540 0.46940 -0.01600
C 	C 	0.40630 0.69380 0.49320 -0.02500
H 	H 	0.42510 0.64920 0.49460 0.02400
C 	C 	0.33620 0.70120 0.50450 -0.10900
C 	C 	0.18570 0.98420 0.89420 0.29500
C 	C 	0.58060 0.78830 0.47750 -0.01200
H 	H 	0.56440 0.83290 0.48680 0.04900
C 	C 	0.94160 0.96830 0.67400 -0.01100
H 	H 	0.97280 0.95430 0.64000 0.03200
C 	C 	0.15440 0.98990 0.82440 -0.07000
C 	C 	0.30780 0.76880 0.50500 0.01400
H 	H 	0.25920 0.77520 0.51190 0.04800
C 	C 	0.04840 0.99100 0.74870 0.00900
C 	C 	0.79610 0.02020 0.83420 0.38300
C 	C 	0.67890 0.71000 0.46050 0.04200
H 	H 	0.72780 0.70140 0.45950 0.02600
C 	C 	0.92090 0.00470 0.78830 -0.01000
H 	H 	0.93890 0.01680 0.83160 0.04500
C 	C 	0.42180 0.81470 0.48220 -0.03800
H 	H 	0.45080 0.85310 0.47460 0.05700
C 	C 	0.55700 0.66860 0.45350 -0.01100
H 	H 	0.52460 0.63290 0.44520 0.03300
C 	C 	0.32170 0.89620 0.50210 0.28400
C 	C 	0.65950 0.58400 0.43730 0.39600
C 	C 	0.19660 0.99780 0.76550 0.01700
H 	H 	0.24610 0.99730 0.77060 0.04800
O 	O 	0.81930 0.53820 0.91800 -0.51900
O 	O 	0.72370 0.50190 0.85790 -0.34900
C 	C 	0.78760 0.51620 0.85920 0.29400
C 	C 	0.83260 0.50600 0.79790 -0.09800
C 	C 	0.90720 0.50420 0.80830 -0.03400
H 	H 	0.92710 0.51150 0.85200 0.01400
Fe	Fe	0.27052 0.48591 0.02093 1.20000
Fe	Fe	0.77016 0.02276 0.98304 1.19600
Fe	Fe	0.13038 0.36663 0.04432 1.07900
Fe	Fe	0.63244 0.05582 0.86202 1.07900
O 	O 	0.22140 0.47240 0.92860 -0.44300
O 	O 	0.26900 0.52690 0.68030 -0.47200
O 	O 	0.17570 0.52300 0.60600 -0.44000
O 	O 	0.67990 0.08460 0.96190 -0.53200
O 	O 	0.77560 0.14230 0.99790 -0.34900
O 	O 	0.22960 0.32100 0.02050 -0.48100
O 	O 	0.85480 0.49100 0.55460 -0.37900
O 	O 	0.28150 0.06990 0.03970 -0.45200
O 	O 	0.74220 0.40300 0.97870 -0.36500
O 	O 	0.32250 0.39540 0.02050 -0.45100
O 	O 	0.74780 0.47740 0.59720 -0.35100
O 	O 	0.38290 0.04320 0.09630 -0.45600
O 	O 	0.11930 0.41410 0.94830 -0.45800
O 	O 	0.63930 0.44840 0.00970 -0.35400
C 	C 	0.70940 0.14080 0.98450 0.30900
C 	C 	0.54740 0.24750 0.02040 -0.00300
C 	C 	0.13310 0.47030 0.84060 -0.11500
C 	C 	0.03230 0.48670 0.76290 -0.01300
C 	C 	0.15240 0.50520 0.72340 -0.11000
C 	C 	0.36970 0.15570 0.04970 -0.11600
C 	C 	0.17880 0.48830 0.78900 0.04300
H 	H 	0.22790 0.48920 0.79780 0.03000
C 	C 	0.64930 0.32510 0.00440 -0.06300
C 	C 	0.34590 0.27630 0.02810 -0.10900
C 	C 	0.92050 0.48820 0.68570 -0.03700
H 	H 	0.94970 0.48510 0.64750 0.05800
C 	C 	0.16040 0.45150 0.91090 0.37500
C 	C 	0.29330 0.33670 0.02210 0.39700
C 	C 	0.46810 0.23540 0.03060 -0.01500
C 	C 	0.59370 0.19380 0.00680 -0.02000
H 	H 	0.57490 0.14920 0.00540 0.02300
C 	C 	0.66380 0.20120 0.99550 -0.11200
C 	C 	0.81430 0.48420 0.60580 0.29500
C 	C 	0.41940 0.28830 0.02250 -0.01200
H 	H 	0.43560 0.33290 0.01320 0.04900
C 	C 	0.05840 0.46830 0.82600 -0.01600
H 	H 	0.02720 0.45430 0.86000 0.03500
C 	C 	0.84560 0.48990 0.67560 -0.07300
C 	C 	0.69220 0.26880 0.99500 0.00900
H 	H 	0.74080 0.27520 0.98810 0.04900
C 	C 	0.95160 0.49100 0.75130 -0.00100
C 	C 	0.20390 0.52020 0.66580 0.38100
C 	C 	0.32110 0.21000 0.03950 0.04200
H 	H 	0.27220 0.20140 0.04050 0.02600
C 	C 	0.07910 0.50470 0.71170 -0.01300
H 	H 	0.06110 0.51680 0.66840 0.04800
C 	C 	0.57820 0.31470 0.01780 -0.04000
H 	H 	0.54920 0.35310 0.02540 0.05800
C 	C 	0.44300 0.16860 0.04650 -0.01100
H 	H 	0.47540 0.13290 0.05480 0.03400
C 	C 	0.67830 0.39620 0.99790 0.27800
C 	C 	0.34050 0.08400 0.06270 0.39600
C 	C 	0.80340 0.49780 0.73450 0.01600
H 	H 	0.75390 0.49730 0.72940 0.04700
O 	O 	0.81930 0.96180 0.41800 -0.51800
O 	O 	0.72370 0.99810 0.35790 -0.35000
C 	C 	0.78760 0.98380 0.35920 0.29400
C 	C 	0.83260 0.99400 0.29790 -0.09800
C 	C 	0.90720 0.99580 0.30830 -0.04000
H 	H 	0.92710 0.98850 0.35200 0.01700
Fe	Fe	0.27052 0.01409 0.52093 1.20000
Fe	Fe	0.77016 0.47724 0.48304 1.19800
Fe	Fe	0.13038 0.13337 0.54432 1.07900
Fe	Fe	0.63244 0.44418 0.36202 1.08000
O 	O 	0.22140 0.02760 0.42860 -0.44400
O 	O 	0.26900 0.97310 0.18030 -0.47300
O 	O 	0.17570 0.97700 0.10600 -0.44200
O 	O 	0.67990 0.41540 0.46190 -0.53100
O 	O 	0.77560 0.35770 0.49790 -0.34700
O 	O 	0.22960 0.17900 0.52050 -0.48100
O 	O 	0.85480 0.00900 0.05460 -0.37500
O 	O 	0.28150 0.43010 0.53970 -0.45400
O 	O 	0.74220 0.09700 0.47870 -0.36500
O 	O 	0.32250 0.10460 0.52050 -0.45100
O 	O 	0.74780 0.02260 0.09720 -0.34800
O 	O 	0.38290 0.45680 0.59630 -0.45700
O 	O 	0.11930 0.08590 0.44830 -0.45900
O 	O 	0.63930 0.05160 0.50970 -0.35700
C 	C 	0.70940 0.35920 0.48450 0.30800
C 	C 	0.54740 0.25250 0.52040 -0.00300
C 	C 	0.13310 0.02970 0.34060 -0.11900
C 	C 	0.03230 0.01330 0.26290 -0.02000
C 	C 	0.15240 0.99480 0.22340 -0.11500
C 	C 	0.36970 0.34430 0.54970 -0.11600
C 	C 	0.17880 0.01170 0.28900 0.04800
H 	H 	0.22790 0.01080 0.29780 0.02800
C 	C 	0.64930 0.17490 0.50440 -0.07000
C 	C 	0.34590 0.22370 0.52810 -0.10900
C 	C 	0.92050 0.01180 0.18570 -0.04200
H 	H 	0.94970 0.01490 0.14750 0.06100
C 	C 	0.16040 0.04850 0.41090 0.37600
C 	C 	0.29330 0.16330 0.52210 0.39700
C 	C 	0.46810 0.26460 0.53060 -0.01600
C 	C 	0.59370 0.30620 0.50680 -0.02500
H 	H 	0.57490 0.35080 0.50540 0.02400
C 	C 	0.66380 0.29880 0.49550 -0.10900
C 	C 	0.81430 0.01580 0.10580 0.29500
C 	C 	0.41940 0.21170 0.52250 -0.01200
H 	H 	0.43560 0.16710 0.51320 0.04900
C 	C 	0.05840 0.03170 0.32600 -0.01100
H 	H 	0.02720 0.04570 0.36000 0.03200
C 	C 	0.84560 0.01010 0.17560 -0.07000
C 	C 	0.69220 0.23120 0.49500 0.01400
H 	H 	0.74080 0.22480 0.48810 0.04800
C 	C 	0.95160 0.00900 0.25130 0.00900
C 	C 	0.20390 0.97980 0.16580 0.38300
C 	C 	0.32110 0.29000 0.53950 0.04200
H 	H 	0.27220 0.29860 0.54050 0.02600
C 	C 	0.07910 0.99530 0.21170 -0.01000
H 	H 	0.06110 0.98320 0.16840 0.04500
C 	C 	0.57820 0.18530 0.51780 -0.03800
H 	H 	0.54920 0.14690 0.52540 0.05700
C 	C 	0.44300 0.33140 0.54650 -0.01100
H 	H 	0.47540 0.36710 0.55480 0.03300
C 	C 	0.67830 0.10380 0.49790 0.28400
C 	C 	0.34050 0.41600 0.56270 0.39600
C 	C 	0.80340 0.00220 0.23450 0.01700
H 	H 	0.75390 0.00270 0.22940 0.04800
O 	O 	0.18070 0.46180 0.08200 -0.51900
O 	O 	0.27630 0.49810 0.14210 -0.34900
C 	C 	0.21240 0.48380 0.14080 0.29400
C 	C 	0.16740 0.49400 0.20210 -0.09800
C 	C 	0.09280 0.49580 0.19170 -0.03400
H 	H 	0.07290 0.48850 0.14800 0.01400
Fe	Fe	0.72948 0.51409 0.97907 1.20000
Fe	Fe	0.22984 0.97724 0.01696 1.19600
Fe	Fe	0.86962 0.63337 0.95568 1.07900
Fe	Fe	0.36756 0.94418 0.13798 1.07900
O 	O 	0.77860 0.52760 0.07140 -0.44300
O 	O 	0.73100 0.47310 0.31970 -0.47200
O 	O 	0.82430 0.47700 0.39400 -0.44000
O 	O 	0.32010 0.91540 0.03810 -0.53200
O 	O 	0.22440 0.85770 0.00210 -0.34900
O 	O 	0.77040 0.67900 0.97950 -0.48100
O 	O 	0.14520 0.50900 0.44540 -0.37900
O 	O 	0.71850 0.93010 0.96030 -0.45200
O 	O 	0.25780 0.59700 0.02130 -0.36500
O 	O 	0.67750 0.60460 0.97950 -0.45100
O 	O 	0.25220 0.52260 0.40280 -0.35100
O 	O 	0.61710 0.95680 0.90370 -0.45600
O 	O 	0.88070 0.58590 0.05170 -0.45800
O 	O 	0.36070 0.55160 0.99030 -0.35400
C 	C 	0.29060 0.85920 0.01550 0.30900
C 	C 	0.45260 0.75250 0.97960 -0.00300
C 	C 	0.86690 0.52970 0.15940 -0.11500
C 	C 	0.96770 0.51330 0.23710 -0.01300
C 	C 	0.84760 0.49480 0.27660 -0.11000
C 	C 	0.63030 0.84430 0.95030 -0.11600
C 	C 	0.82120 0.51170 0.21100 0.04300
H 	H 	0.77210 0.51080 0.20220 0.03000
C 	C 	0.35070 0.67490 0.99560 -0.06300
C 	C 	0.65410 0.72370 0.97190 -0.10900
C 	C 	0.07950 0.51180 0.31430 -0.03700
H 	H 	0.05030 0.51490 0.35250 0.05800
C 	C 	0.83960 0.54850 0.08910 0.37500
C 	C 	0.70670 0.66330 0.97790 0.39700
C 	C 	0.53190 0.76460 0.96940 -0.01500
C 	C 	0.40630 0.80620 0.99320 -0.02000
H 	H 	0.42510 0.85080 0.99460 0.02300
C 	C 	0.33620 0.79880 0.00450 -0.11200
C 	C 	0.18570 0.51580 0.39420 0.29500
C 	C 	0.58060 0.71170 0.97750 -0.01200
H 	H 	0.56440 0.66710 0.98680 0.04900
C 	C 	0.94160 0.53170 0.17400 -0.01600
H 	H 	0.97280 0.54570 0.14000 0.03500
C 	C 	0.15440 0.51010 0.32440 -0.07300
C 	C 	0.30780 0.73120 0.00500 0.00900
H 	H 	0.25920 0.72480 0.01190 0.04900
C 	C 	0.04840 0.50900 0.24870 -0.00100
C 	C 	0.79610 0.47980 0.33420 0.38100
C 	C 	0.67890 0.79000 0.96050 0.04200
H 	H 	0.72780 0.79860 0.95950 0.02600
C 	C 	0.92090 0.49530 0.28830 -0.01300
H 	H 	0.93890 0.48320 0.33160 0.04800
C 	C 	0.42180 0.68530 0.98220 -0.04000
H 	H 	0.45080 0.64690 0.97460 0.05800
C 	C 	0.55700 0.83140 0.95350 -0.01100
H 	H 	0.52460 0.86710 0.94520 0.03400
C 	C 	0.32170 0.60380 0.00210 0.27800
C 	C 	0.65950 0.91600 0.93730 0.39600
C 	C 	0.19660 0.50220 0.26550 0.01600
H 	H 	0.24610 0.50270 0.27060 0.04700
