data_crystal

_cell_length_a 19.80270
_cell_length_b 19.80270
_cell_length_c 19.80270
_cell_angle_alpha 90.00000
_cell_angle_beta  90.00000
_cell_angle_gamma 90.00000

_symmetry_space_group_name_	'P 1'
_symmetry_space_group_name_H-M	'P 1'

loop_
_symmetry_equiv_pos_as_xyz
  x,y,z

loop_
_atom_site_label
_atom_site_type_symbol
_atom_site_fract_x
_atom_site_fract_y
_atom_site_fract_z
_atom_site_charge
O 	O 	0.70636 0.45450 0.34776 -0.48800
C 	C 	0.76930 0.44560 0.35600 0.36700
C 	C 	0.81400 0.47380 0.30200 -0.07300
C 	C 	0.88400 0.47240 0.30360 -0.00800
H 	H 	0.90700 0.45330 0.33990 0.03200
O 	O 	0.79510 0.41510 0.40470 -0.45400
O 	O 	0.20636 0.95450 0.84776 -0.41600
C 	C 	0.26930 0.94560 0.85600 0.36400
C 	C 	0.31400 0.97380 0.80200 -0.04200
C 	C 	0.38400 0.97240 0.80360 0.15200
H 	H 	0.40700 0.95330 0.83990 -0.01400
O 	O 	0.29510 0.91510 0.90470 -0.40100
O 	O 	0.79364 0.54550 0.84776 -0.46700
C 	C 	0.73070 0.55440 0.85600 0.36000
C 	C 	0.68600 0.52620 0.80200 -0.06800
C 	C 	0.61600 0.52760 0.80360 -0.01800
H 	H 	0.59300 0.54670 0.83990 0.02500
O 	O 	0.70490 0.58490 0.90470 -0.41200
O 	O 	0.29364 0.04550 0.34776 -0.49100
C 	C 	0.23070 0.05440 0.35600 0.37200
C 	C 	0.18600 0.02620 0.30200 -0.13100
C 	C 	0.11600 0.02760 0.30360 0.06600
H 	H 	0.09300 0.04670 0.33990 -0.03700
O 	O 	0.20490 0.08490 0.40470 -0.47500
O 	O 	0.29364 0.95450 0.15224 -0.43500
C 	C 	0.23070 0.94560 0.14400 0.36700
C 	C 	0.18600 0.97380 0.19800 -0.05500
C 	C 	0.11600 0.97240 0.19640 0.14700
H 	H 	0.09300 0.95330 0.16010 -0.03900
O 	O 	0.20490 0.91510 0.09530 -0.44600
O 	O 	0.79364 0.45450 0.65224 -0.48700
C 	C 	0.73070 0.44560 0.64400 0.36800
C 	C 	0.68600 0.47380 0.69800 -0.07600
C 	C 	0.61600 0.47240 0.69640 -0.01600
H 	H 	0.59300 0.45330 0.66010 0.01500
O 	O 	0.70490 0.41510 0.59530 -0.46000
O 	O 	0.20636 0.04550 0.65224 -0.49200
C 	C 	0.26930 0.05440 0.64400 0.37300
C 	C 	0.31400 0.02620 0.69800 -0.12600
C 	C 	0.38400 0.02760 0.69640 0.07200
H 	H 	0.40700 0.04670 0.66010 -0.02600
O 	O 	0.29510 0.08490 0.59530 -0.47200
O 	O 	0.70636 0.54550 0.15224 -0.48800
C 	C 	0.76930 0.55440 0.14400 0.36400
C 	C 	0.81400 0.52620 0.19800 -0.07300
C 	C 	0.88400 0.52760 0.19640 -0.00700
H 	H 	0.90700 0.54670 0.16010 0.02800
O 	O 	0.79510 0.58490 0.09530 -0.44900
O 	O 	0.34776 0.70636 0.45450 -0.48700
C 	C 	0.35600 0.76930 0.44560 0.36800
C 	C 	0.30200 0.81400 0.47380 -0.07200
C 	C 	0.30360 0.88400 0.47240 -0.00700
H 	H 	0.33990 0.90700 0.45330 0.03300
O 	O 	0.40470 0.79510 0.41510 -0.45300
O 	O 	0.84776 0.20636 0.95450 -0.41500
C 	C 	0.85600 0.26930 0.94560 0.36500
C 	C 	0.80200 0.31400 0.97380 -0.04100
C 	C 	0.80360 0.38400 0.97240 0.15300
H 	H 	0.83990 0.40700 0.95330 -0.01300
O 	O 	0.90470 0.29510 0.91510 -0.40000
O 	O 	0.84776 0.79364 0.54550 -0.46600
C 	C 	0.85600 0.73070 0.55440 0.36100
C 	C 	0.80200 0.68600 0.52620 -0.06700
C 	C 	0.80360 0.61600 0.52760 -0.01800
H 	H 	0.83990 0.59300 0.54670 0.02500
O 	O 	0.90470 0.70490 0.58490 -0.41200
O 	O 	0.34776 0.29364 0.04550 -0.49100
C 	C 	0.35600 0.23070 0.05440 0.37200
C 	C 	0.30200 0.18600 0.02620 -0.13100
C 	C 	0.30360 0.11600 0.02760 0.06600
H 	H 	0.33990 0.09300 0.04670 -0.03700
O 	O 	0.40470 0.20490 0.08490 -0.47500
O 	O 	0.15224 0.29364 0.95450 -0.43500
C 	C 	0.14400 0.23070 0.94560 0.36700
C 	C 	0.19800 0.18600 0.97380 -0.05500
C 	C 	0.19640 0.11600 0.97240 0.14700
H 	H 	0.16010 0.09300 0.95330 -0.03900
O 	O 	0.09530 0.20490 0.91510 -0.44600
O 	O 	0.65224 0.79364 0.45450 -0.48700
C 	C 	0.64400 0.73070 0.44560 0.36800
C 	C 	0.69800 0.68600 0.47380 -0.07600
C 	C 	0.69640 0.61600 0.47240 -0.01600
H 	H 	0.66010 0.59300 0.45330 0.01500
O 	O 	0.59530 0.70490 0.41510 -0.46000
O 	O 	0.65224 0.20636 0.04550 -0.49200
C 	C 	0.64400 0.26930 0.05440 0.37300
C 	C 	0.69800 0.31400 0.02620 -0.12600
C 	C 	0.69640 0.38400 0.02760 0.07200
H 	H 	0.66010 0.40700 0.04670 -0.02600
O 	O 	0.59530 0.29510 0.08490 -0.47200
O 	O 	0.15224 0.70636 0.54550 -0.48800
C 	C 	0.14400 0.76930 0.55440 0.36400
C 	C 	0.19800 0.81400 0.52620 -0.07300
C 	C 	0.19640 0.88400 0.52760 -0.00700
H 	H 	0.16010 0.90700 0.54670 0.02800
O 	O 	0.09530 0.79510 0.58490 -0.44900
O 	O 	0.45450 0.34776 0.70636 -0.48700
C 	C 	0.44560 0.35600 0.76930 0.36800
C 	C 	0.47380 0.30200 0.81400 -0.07200
C 	C 	0.47240 0.30360 0.88400 -0.00700
H 	H 	0.45330 0.33990 0.90700 0.03300
O 	O 	0.41510 0.40470 0.79510 -0.45300
O 	O 	0.95450 0.84776 0.20636 -0.41500
C 	C 	0.94560 0.85600 0.26930 0.36500
C 	C 	0.97380 0.80200 0.31400 -0.04100
C 	C 	0.97240 0.80360 0.38400 0.15300
H 	H 	0.95330 0.83990 0.40700 -0.01300
O 	O 	0.91510 0.90470 0.29510 -0.40000
O 	O 	0.54550 0.84776 0.79364 -0.46600
C 	C 	0.55440 0.85600 0.73070 0.36100
C 	C 	0.52620 0.80200 0.68600 -0.06700
C 	C 	0.52760 0.80360 0.61600 -0.01800
H 	H 	0.54670 0.83990 0.59300 0.02500
O 	O 	0.58490 0.90470 0.70490 -0.41200
O 	O 	0.04550 0.34776 0.29364 -0.49100
C 	C 	0.05440 0.35600 0.23070 0.37200
C 	C 	0.02620 0.30200 0.18600 -0.13100
C 	C 	0.02760 0.30360 0.11600 0.06600
H 	H 	0.04670 0.33990 0.09300 -0.03700
O 	O 	0.08490 0.40470 0.20490 -0.47500
O 	O 	0.95450 0.15224 0.29364 -0.43500
C 	C 	0.94560 0.14400 0.23070 0.36700
C 	C 	0.97380 0.19800 0.18600 -0.05500
C 	C 	0.97240 0.19640 0.11600 0.14700
H 	H 	0.95330 0.16010 0.09300 -0.03900
O 	O 	0.91510 0.09530 0.20490 -0.44600
O 	O 	0.45450 0.65224 0.79364 -0.48700
C 	C 	0.44560 0.64400 0.73070 0.36800
C 	C 	0.47380 0.69800 0.68600 -0.07600
C 	C 	0.47240 0.69640 0.61600 -0.01600
H 	H 	0.45330 0.66010 0.59300 0.01500
O 	O 	0.41510 0.59530 0.70490 -0.46000
O 	O 	0.04550 0.65224 0.20636 -0.49200
C 	C 	0.05440 0.64400 0.26930 0.37300
C 	C 	0.02620 0.69800 0.31400 -0.12600
C 	C 	0.02760 0.69640 0.38400 0.07200
H 	H 	0.04670 0.66010 0.40700 -0.02600
O 	O 	0.08490 0.59530 0.29510 -0.47200
O 	O 	0.54550 0.15224 0.70636 -0.48800
C 	C 	0.55440 0.14400 0.76930 0.36400
C 	C 	0.52620 0.19800 0.81400 -0.07300
C 	C 	0.52760 0.19640 0.88400 -0.00700
H 	H 	0.54670 0.16010 0.90700 0.02800
O 	O 	0.58490 0.09530 0.79510 -0.44900
O 	O 	0.29364 0.54550 0.65224 -0.48800
C 	C 	0.23070 0.55440 0.64400 0.36700
C 	C 	0.18600 0.52620 0.69800 -0.07700
C 	C 	0.11600 0.52760 0.69640 -0.02500
H 	H 	0.09300 0.54670 0.66010 0.00500
O 	O 	0.20490 0.58490 0.59530 -0.46200
O 	O 	0.79364 0.04550 0.15224 -0.49000
C 	C 	0.73070 0.05440 0.14400 0.37000
C 	C 	0.68600 0.02620 0.19800 -0.13100
C 	C 	0.61600 0.02760 0.19640 0.07600
H 	H 	0.59300 0.04670 0.16010 -0.03300
O 	O 	0.70490 0.08490 0.09530 -0.46800
O 	O 	0.20636 0.45450 0.15224 -0.48900
C 	C 	0.26930 0.44560 0.14400 0.36300
C 	C 	0.31400 0.47380 0.19800 -0.08100
C 	C 	0.38400 0.47240 0.19640 -0.01300
H 	H 	0.40700 0.45330 0.16010 0.00800
O 	O 	0.29510 0.41510 0.09530 -0.45600
O 	O 	0.70636 0.95450 0.65224 -0.43400
C 	C 	0.76930 0.94560 0.64400 0.37200
C 	C 	0.81400 0.97380 0.69800 -0.04200
C 	C 	0.88400 0.97240 0.69640 0.15900
H 	H 	0.90700 0.95330 0.66010 -0.00300
O 	O 	0.79510 0.91510 0.59530 -0.44000
O 	O 	0.70636 0.04550 0.84776 -0.47100
C 	C 	0.76930 0.05440 0.85600 0.36600
C 	C 	0.81400 0.02620 0.80200 -0.11000
C 	C 	0.88400 0.02760 0.80360 0.07400
H 	H 	0.90700 0.04670 0.83990 0.00300
O 	O 	0.79510 0.08490 0.90470 -0.41800
O 	O 	0.20636 0.54550 0.34776 -0.48700
C 	C 	0.26930 0.55440 0.35600 0.36800
C 	C 	0.31400 0.52620 0.30200 -0.08000
C 	C 	0.38400 0.52760 0.30360 -0.01200
H 	H 	0.40700 0.54670 0.33990 0.01300
O 	O 	0.29510 0.58490 0.40470 -0.46000
O 	O 	0.79364 0.95450 0.34776 -0.43200
C 	C 	0.73070 0.94560 0.35600 0.37300
C 	C 	0.68600 0.97380 0.30200 -0.05300
C 	C 	0.61600 0.97240 0.30360 0.15900
H 	H 	0.59300 0.95330 0.33990 -0.02500
O 	O 	0.70490 0.91510 0.40470 -0.44800
O 	O 	0.29364 0.45450 0.84776 -0.46800
C 	C 	0.23070 0.44560 0.85600 0.35900
C 	C 	0.18600 0.47380 0.80200 -0.06800
C 	C 	0.11600 0.47240 0.80360 -0.02700
H 	H 	0.09300 0.45330 0.83990 0.01500
O 	O 	0.20490 0.41510 0.90470 -0.41500
O 	O 	0.65224 0.29364 0.54550 -0.48800
C 	C 	0.64400 0.23070 0.55440 0.36700
C 	C 	0.69800 0.18600 0.52620 -0.07700
C 	C 	0.69640 0.11600 0.52760 -0.02500
H 	H 	0.66010 0.09300 0.54670 0.00500
O 	O 	0.59530 0.20490 0.58490 -0.46200
O 	O 	0.15224 0.79364 0.04550 -0.49000
C 	C 	0.14400 0.73070 0.05440 0.37000
C 	C 	0.19800 0.68600 0.02620 -0.13100
C 	C 	0.19640 0.61600 0.02760 0.07600
H 	H 	0.16010 0.59300 0.04670 -0.03300
O 	O 	0.09530 0.70490 0.08490 -0.46800
O 	O 	0.15224 0.20636 0.45450 -0.48900
C 	C 	0.14400 0.26930 0.44560 0.36300
C 	C 	0.19800 0.31400 0.47380 -0.08100
C 	C 	0.19640 0.38400 0.47240 -0.01300
H 	H 	0.16010 0.40700 0.45330 0.00800
O 	O 	0.09530 0.29510 0.41510 -0.45600
O 	O 	0.65224 0.70636 0.95450 -0.43400
C 	C 	0.64400 0.76930 0.94560 0.37200
C 	C 	0.69800 0.81400 0.97380 -0.04200
C 	C 	0.69640 0.88400 0.97240 0.15900
H 	H 	0.66010 0.90700 0.95330 -0.00300
O 	O 	0.59530 0.79510 0.91510 -0.44000
O 	O 	0.84776 0.70636 0.04550 -0.47100
C 	C 	0.85600 0.76930 0.05440 0.36600
C 	C 	0.80200 0.81400 0.02620 -0.11000
C 	C 	0.80360 0.88400 0.02760 0.07400
H 	H 	0.83990 0.90700 0.04670 0.00300
O 	O 	0.90470 0.79510 0.08490 -0.41800
O 	O 	0.34776 0.20636 0.54550 -0.48700
C 	C 	0.35600 0.26930 0.55440 0.36800
C 	C 	0.30200 0.31400 0.52620 -0.08000
C 	C 	0.30360 0.38400 0.52760 -0.01200
H 	H 	0.33990 0.40700 0.54670 0.01300
O 	O 	0.40470 0.29510 0.58490 -0.46000
O 	O 	0.34776 0.79364 0.95450 -0.43200
C 	C 	0.35600 0.73070 0.94560 0.37300
C 	C 	0.30200 0.68600 0.97380 -0.05300
C 	C 	0.30360 0.61600 0.97240 0.15900
H 	H 	0.33990 0.59300 0.95330 -0.02500
O 	O 	0.40470 0.70490 0.91510 -0.44800
O 	O 	0.84776 0.29364 0.45450 -0.46800
C 	C 	0.85600 0.23070 0.44560 0.35900
C 	C 	0.80200 0.18600 0.47380 -0.06800
C 	C 	0.80360 0.11600 0.47240 -0.02700
H 	H 	0.83990 0.09300 0.45330 0.01500
O 	O 	0.90470 0.20490 0.41510 -0.41500
O 	O 	0.54550 0.65224 0.29364 -0.48800
C 	C 	0.55440 0.64400 0.23070 0.36700
C 	C 	0.52620 0.69800 0.18600 -0.07700
C 	C 	0.52760 0.69640 0.11600 -0.02500
H 	H 	0.54670 0.66010 0.09300 0.00500
O 	O 	0.58490 0.59530 0.20490 -0.46200
O 	O 	0.04550 0.15224 0.79364 -0.49000
C 	C 	0.05440 0.14400 0.73070 0.37000
C 	C 	0.02620 0.19800 0.68600 -0.13100
C 	C 	0.02760 0.19640 0.61600 0.07600
H 	H 	0.04670 0.16010 0.59300 -0.03300
O 	O 	0.08490 0.09530 0.70490 -0.46800
O 	O 	0.45450 0.15224 0.20636 -0.48900
C 	C 	0.44560 0.14400 0.26930 0.36300
C 	C 	0.47380 0.19800 0.31400 -0.08100
C 	C 	0.47240 0.19640 0.38400 -0.01300
H 	H 	0.45330 0.16010 0.40700 0.00800
O 	O 	0.41510 0.09530 0.29510 -0.45600
O 	O 	0.95450 0.65224 0.70636 -0.43400
C 	C 	0.94560 0.64400 0.76930 0.37200
C 	C 	0.97380 0.69800 0.81400 -0.04200
C 	C 	0.97240 0.69640 0.88400 0.15900
H 	H 	0.95330 0.66010 0.90700 -0.00300
O 	O 	0.91510 0.59530 0.79510 -0.44000
O 	O 	0.04550 0.84776 0.70636 -0.47100
C 	C 	0.05440 0.85600 0.76930 0.36600
C 	C 	0.02620 0.80200 0.81400 -0.11000
C 	C 	0.02760 0.80360 0.88400 0.07400
H 	H 	0.04670 0.83990 0.90700 0.00300
O 	O 	0.08490 0.90470 0.79510 -0.41800
O 	O 	0.54550 0.34776 0.20636 -0.48700
C 	C 	0.55440 0.35600 0.26930 0.36800
C 	C 	0.52620 0.30200 0.31400 -0.08000
C 	C 	0.52760 0.30360 0.38400 -0.01200
H 	H 	0.54670 0.33990 0.40700 0.01300
O 	O 	0.58490 0.40470 0.29510 -0.46000
O 	O 	0.95450 0.34776 0.79364 -0.43200
C 	C 	0.94560 0.35600 0.73070 0.37300
C 	C 	0.97380 0.30200 0.68600 -0.05300
C 	C 	0.97240 0.30360 0.61600 0.15900
H 	H 	0.95330 0.33990 0.59300 -0.02500
O 	O 	0.91510 0.40470 0.70490 -0.44800
O 	O 	0.45450 0.84776 0.29364 -0.46800
C 	C 	0.44560 0.85600 0.23070 0.35900
C 	C 	0.47380 0.80200 0.18600 -0.06800
C 	C 	0.47240 0.80360 0.11600 -0.02700
H 	H 	0.45330 0.83990 0.09300 0.01500
O 	O 	0.41510 0.90470 0.20490 -0.41500
Eu	Eu	0.65219 0.50000 0.25000 1.55400
N 	N 	0.77950 0.50000 0.25000 -0.18800
C 	C 	0.91850 0.50000 0.25000 -0.05900
H 	H 	0.96550 0.50000 0.25000 0.05200
Eu	Eu	0.84781 0.50000 0.75000 1.59500
N 	N 	0.72050 0.50000 0.75000 -0.19100
C 	C 	0.58150 0.50000 0.75000 -0.06100
H 	H 	0.53450 0.50000 0.75000 0.02200
Eu	Eu	0.34781 0.00000 0.25000 1.39700
N 	N 	0.22050 0.00000 0.25000 -0.21400
C 	C 	0.08150 0.00000 0.25000 -0.26800
H 	H 	0.03450 0.00000 0.25000 0.03900
Eu	Eu	0.15219 0.00000 0.75000 1.39100
N 	N 	0.27950 0.00000 0.75000 -0.21400
C 	C 	0.41850 0.00000 0.75000 -0.26100
H 	H 	0.46550 0.00000 0.75000 0.06900
Eu	Eu	0.25000 0.65219 0.50000 1.55400
N 	N 	0.25000 0.77950 0.50000 -0.18800
C 	C 	0.25000 0.91850 0.50000 -0.05900
H 	H 	0.25000 0.96550 0.50000 0.05200
Eu	Eu	0.75000 0.84781 0.50000 1.59500
N 	N 	0.75000 0.72050 0.50000 -0.19100
C 	C 	0.75000 0.58150 0.50000 -0.06100
H 	H 	0.75000 0.53450 0.50000 0.02200
Eu	Eu	0.25000 0.34781 -0.00000 1.39700
N 	N 	0.25000 0.22050 -0.00000 -0.21400
C 	C 	0.25000 0.08150 -0.00000 -0.26800
H 	H 	0.25000 0.03450 -0.00000 0.03900
Eu	Eu	0.75000 0.15219 -0.00000 1.39100
N 	N 	0.75000 0.27950 -0.00000 -0.21400
C 	C 	0.75000 0.41850 -0.00000 -0.26100
H 	H 	0.75000 0.46550 -0.00000 0.06900
Eu	Eu	0.50000 0.25000 0.65219 1.55400
N 	N 	0.50000 0.25000 0.77950 -0.18800
C 	C 	0.50000 0.25000 0.91850 -0.05900
H 	H 	0.50000 0.25000 0.96550 0.05200
Eu	Eu	0.50000 0.75000 0.84781 1.59500
N 	N 	0.50000 0.75000 0.72050 -0.19100
C 	C 	0.50000 0.75000 0.58150 -0.06100
H 	H 	0.50000 0.75000 0.53450 0.02200
Eu	Eu	0.00000 0.25000 0.34781 1.39700
N 	N 	0.00000 0.25000 0.22050 -0.21400
C 	C 	0.00000 0.25000 0.08150 -0.26800
H 	H 	0.00000 0.25000 0.03450 0.03900
Eu	Eu	-0.00000 0.75000 0.15219 1.39100
N 	N 	-0.00000 0.75000 0.27950 -0.21400
C 	C 	0.00000 0.75000 0.41850 -0.26100
H 	H 	-0.00000 0.75000 0.46550 0.06900
Eu	Eu	0.34781 0.50000 0.75000 1.56300
N 	N 	0.22050 0.50000 0.75000 -0.19100
C 	C 	0.08150 0.50000 0.75000 -0.06200
H 	H 	0.03450 0.50000 0.75000 -0.00800
Eu	Eu	0.15219 0.50000 0.25000 1.52700
N 	N 	0.27950 0.50000 0.25000 -0.18700
C 	C 	0.41850 0.50000 0.25000 -0.07100
H 	H 	0.46550 0.50000 0.25000 0.02200
Eu	Eu	0.65219 0.00000 0.75000 1.41500
N 	N 	0.77950 0.00000 0.75000 -0.21600
C 	C 	0.91850 0.00000 0.75000 -0.24700
H 	H 	0.96550 0.00000 0.75000 0.09800
Eu	Eu	0.84781 0.00000 0.25000 1.42700
N 	N 	0.72050 0.00000 0.25000 -0.21500
C 	C 	0.58150 0.00000 0.25000 -0.27100
H 	H 	0.53450 0.00000 0.25000 0.06900
Eu	Eu	0.75000 0.34781 0.50000 1.56300
N 	N 	0.75000 0.22050 0.50000 -0.19100
C 	C 	0.75000 0.08150 0.50000 -0.06200
H 	H 	0.75000 0.03450 0.50000 -0.00800
Eu	Eu	0.25000 0.15219 0.50000 1.52700
N 	N 	0.25000 0.27950 0.50000 -0.18700
C 	C 	0.25000 0.41850 0.50000 -0.07100
H 	H 	0.25000 0.46550 0.50000 0.02200
Eu	Eu	0.75000 0.65219 -0.00000 1.41500
N 	N 	0.75000 0.77950 -0.00000 -0.21600
C 	C 	0.75000 0.91850 -0.00000 -0.24700
H 	H 	0.75000 0.96550 -0.00000 0.09800
Eu	Eu	0.25000 0.84781 -0.00000 1.42700
N 	N 	0.25000 0.72050 -0.00000 -0.21500
C 	C 	0.25000 0.58150 -0.00000 -0.27100
H 	H 	0.25000 0.53450 -0.00000 0.06900
Eu	Eu	0.50000 0.75000 0.34781 1.56300
N 	N 	0.50000 0.75000 0.22050 -0.19100
C 	C 	0.50000 0.75000 0.08150 -0.06200
H 	H 	0.50000 0.75000 0.03450 -0.00800
Eu	Eu	0.50000 0.25000 0.15219 1.52700
N 	N 	0.50000 0.25000 0.27950 -0.18700
C 	C 	0.50000 0.25000 0.41850 -0.07100
H 	H 	0.50000 0.25000 0.46550 0.02200
Eu	Eu	-0.00000 0.75000 0.65219 1.41500
N 	N 	0.00000 0.75000 0.77950 -0.21600
C 	C 	0.00000 0.75000 0.91850 -0.24700
H 	H 	-0.00000 0.75000 0.96550 0.09800
Eu	Eu	0.00000 0.25000 0.84781 1.42700
N 	N 	-0.00000 0.25000 0.72050 -0.21500
C 	C 	-0.00000 0.25000 0.58150 -0.27100
H 	H 	0.00000 0.25000 0.53450 0.06900
