data_crystal

_cell_length_a 19.33070
_cell_length_b 19.33070
_cell_length_c 19.48100
_cell_angle_alpha 119.74500
_cell_angle_beta  119.74500
_cell_angle_gamma 90.00010

_symmetry_space_group_name_	'P 1'
_symmetry_space_group_name_H-M	'P 1'

loop_
_symmetry_equiv_pos_as_xyz
  x,y,z

loop_
_atom_site_label
_atom_site_type_symbol
_atom_site_fract_x
_atom_site_fract_y
_atom_site_fract_z
_atom_site_charge
Fe	Fe	0.72045 0.72045 0.44090 1.15800
Fe	Fe	0.27955 0.27955 0.55910 1.15800
Fe	Fe	0.52955 0.02955 0.05910 1.14700
Fe	Fe	0.97045 0.47045 0.94090 1.14700
Fe	Fe	0.92024 0.87500 0.25000 1.14200
Fe	Fe	0.32976 0.37500 0.25000 1.14600
Fe	Fe	0.12500 0.67024 0.75000 1.14700
Fe	Fe	0.62500 0.07976 0.75000 1.14100
H 	H 	0.83900 0.88270 0.99500 0.09500
H 	H 	0.72500 0.77660 0.84160 0.01200
H 	H 	0.62950 0.67960 0.81840 0.05600
H 	H 	0.65360 0.68640 0.95020 0.03300
H 	H 	0.65960 0.75940 0.08280 0.04800
H 	H 	0.59480 0.74010 0.15320 0.07700
H 	H 	0.60240 0.71800 0.26320 -0.00300
H 	H 	0.84030 0.73640 0.37700 -0.00500
H 	H 	0.84230 0.75850 0.27260 0.07200
H 	H 	0.83950 0.51500 0.42960 0.09700
H 	H 	0.83170 0.44560 0.49480 0.00900
H 	H 	0.78570 0.49860 0.59900 0.05800
H 	H 	0.73070 0.60750 0.61440 0.03400
H 	H 	0.65440 0.68090 0.58480 0.05100
H 	H 	0.54270 0.75900 0.56920 0.08000
H 	H 	0.52380 0.88920 0.62100 0.00400
H 	H 	0.74710 0.99470 0.70320 0.00800
H 	H 	0.77410 0.86880 0.65460 0.07200
H 	H 	0.15600 0.11230 0.99500 0.09200
H 	H 	0.11660 0.06500 0.84160 0.01100
H 	H 	0.18890 0.13880 0.81840 0.05400
H 	H 	0.29660 0.26380 0.95020 0.03300
H 	H 	0.42320 0.32340 0.08280 0.04600
H 	H 	0.55840 0.41310 0.15320 0.07600
H 	H 	0.66080 0.54520 0.26320 -0.00400
H 	H 	0.53670 0.64060 0.37700 -0.00100
H 	H 	0.43030 0.51410 0.27260 0.07400
H 	H 	0.59010 0.91460 0.42960 0.10000
H 	H 	0.66310 0.04920 0.49480 0.00700
H 	H 	0.81330 0.10040 0.59900 0.08100
H 	H 	0.88370 0.00690 0.61440 -0.02400
H 	H 	0.93040 0.90390 0.58480 0.04500
H 	H 	0.02650 0.81020 0.56920 0.06800
H 	H 	0.09720 0.73180 0.62100 0.00800
H 	H 	0.95610 0.70850 0.70320 0.00800
H 	H 	0.88050 0.78580 0.65460 0.05700
H 	H 	0.11730 0.84400 0.00500 0.10000
H 	H 	0.22340 0.88340 0.15840 0.01800
H 	H 	0.32040 0.81110 0.18160 0.05700
H 	H 	0.31360 0.70340 0.04980 0.03300
H 	H 	0.24060 0.57680 0.91720 0.04800
H 	H 	0.25990 0.44160 0.84680 0.07700
H 	H 	0.28200 0.33920 0.73680 -0.00300
H 	H 	0.26360 0.46330 0.62300 -0.00200
H 	H 	0.24150 0.56970 0.72740 0.07400
H 	H 	0.48500 0.40990 0.57040 0.09900
H 	H 	0.55440 0.33690 0.50520 0.01200
H 	H 	0.50140 0.18670 0.40100 0.05800
H 	H 	0.39250 0.11630 0.38560 0.03000
H 	H 	0.31910 0.06960 0.41520 0.03700
H 	H 	0.24100 0.97350 0.43080 0.06700
H 	H 	0.11080 0.90280 0.37900 0.01400
H 	H 	0.00530 0.04390 0.29680 0.01700
H 	H 	0.13120 0.11950 0.34540 0.05700
H 	H 	0.88770 0.16100 0.00500 0.08600
H 	H 	0.93500 0.27500 0.15840 0.00500
H 	H 	0.86120 0.37050 0.18160 0.05300
H 	H 	0.73620 0.34640 0.04980 0.03200
H 	H 	0.67660 0.34040 0.91720 0.04700
H 	H 	0.58690 0.40520 0.84680 0.07600
H 	H 	0.45480 0.39760 0.73680 -0.00300
H 	H 	0.35940 0.15970 0.62300 -0.00500
H 	H 	0.48590 0.15770 0.72740 0.07200
H 	H 	0.08540 0.16050 0.57040 0.09800
H 	H 	0.95080 0.16830 0.50520 0.00400
H 	H 	0.89960 0.21430 0.40100 0.08100
H 	H 	0.99310 0.26930 0.38560 -0.02000
H 	H 	0.09610 0.34560 0.41520 0.05900
H 	H 	0.18980 0.45730 0.43080 0.08200
H 	H 	0.26820 0.47620 0.37900 -0.00200
H 	H 	0.29150 0.25290 0.29680 -0.00100
H 	H 	0.21420 0.22590 0.34540 0.07200
H 	H 	0.09400 0.86730 0.50500 0.07600
H 	H 	0.13340 0.97340 0.65840 0.03300
H 	H 	0.06110 0.07040 0.68160 0.03500
H 	H 	0.95340 0.06360 0.54980 0.06000
H 	H 	0.82680 0.99060 0.41720 0.05500
H 	H 	0.69160 0.00990 0.34680 0.07900
H 	H 	0.58920 0.03200 0.23680 -0.01200
H 	H 	0.71330 0.01360 0.12300 0.00200
H 	H 	0.81970 0.99150 0.22740 0.06600
H 	H 	0.65990 0.23500 0.07040 0.09900
H 	H 	0.58690 0.30440 0.00520 0.01100
H 	H 	0.43670 0.25140 0.90100 0.06100
H 	H 	0.36630 0.14250 0.88560 0.03100
H 	H 	0.31960 0.06910 0.91520 0.06000
H 	H 	0.22350 0.99100 0.93080 0.09800
H 	H 	0.15280 0.86080 0.87900 -0.00100
H 	H 	0.29390 0.75530 0.79680 -0.00400
H 	H 	0.36950 0.88120 0.84540 0.08300
H 	H 	0.41100 0.63770 0.50500 0.09500
H 	H 	0.52500 0.68500 0.65840 0.01300
H 	H 	0.62050 0.61120 0.68160 0.05600
H 	H 	0.59640 0.48620 0.54980 0.03300
H 	H 	0.59040 0.42660 0.41720 0.04700
H 	H 	0.65520 0.33690 0.34680 0.07600
H 	H 	0.64760 0.20480 0.23680 -0.00400
H 	H 	0.40970 0.10940 0.12300 -0.00700
H 	H 	0.40770 0.23590 0.22740 0.07300
H 	H 	0.41050 0.83540 0.07040 0.10000
H 	H 	0.41830 0.70080 0.00520 0.01400
H 	H 	0.46430 0.64960 0.90100 0.05900
H 	H 	0.51930 0.74310 0.88560 0.03600
H 	H 	0.59560 0.84610 0.91520 0.04400
H 	H 	0.70730 0.93980 0.93080 0.06200
H 	H 	0.72620 0.01820 0.87900 0.00900
H 	H 	0.50290 0.04150 0.79680 0.01400
H 	H 	0.47590 0.96420 0.84540 0.05500
H 	H 	0.36230 0.90600 0.49500 0.07000
H 	H 	0.31500 0.86660 0.34160 0.04000
H 	H 	0.38880 0.93890 0.31840 0.02700
H 	H 	0.51380 0.04660 0.45020 0.05900
H 	H 	0.57340 0.17320 0.58280 0.04500
H 	H 	0.66310 0.30840 0.65320 0.07500
H 	H 	0.79520 0.41080 0.76320 -0.00400
H 	H 	0.89060 0.28670 0.87700 -0.00700
H 	H 	0.76410 0.18030 0.77260 0.07100
H 	H 	0.16460 0.34010 0.92960 0.09900
H 	H 	0.29920 0.41310 0.99480 0.01500
H 	H 	0.35040 0.56330 0.09900 0.05900
H 	H 	0.25690 0.63370 0.11440 0.03600
H 	H 	0.15390 0.68040 0.08480 0.04400
H 	H 	0.06020 0.77650 0.06920 0.06400
H 	H 	0.98180 0.84720 0.12100 0.01300
H 	H 	0.95850 0.70610 0.20320 0.01400
H 	H 	0.03580 0.63050 0.15460 0.05500
H 	H 	0.13270 0.58900 0.49500 0.10000
H 	H 	0.02660 0.47500 0.34160 0.00600
H 	H 	0.92960 0.37950 0.31840 0.06400
H 	H 	0.93640 0.40360 0.45020 0.03400
H 	H 	0.00940 0.40960 0.58280 0.05700
H 	H 	0.99010 0.34480 0.65320 0.08000
H 	H 	0.96800 0.35240 0.76320 -0.01200
H 	H 	0.98640 0.59030 0.87700 0.00200
H 	H 	0.00850 0.59230 0.77260 0.06900
H 	H 	0.76500 0.58950 0.92960 0.10000
H 	H 	0.69560 0.58170 0.99480 0.00900
H 	H 	0.74860 0.53570 0.09900 0.06100
H 	H 	0.85750 0.48070 0.11440 0.03100
H 	H 	0.93090 0.40440 0.08480 0.06000
H 	H 	0.00900 0.29270 0.06920 0.09600
H 	H 	0.13920 0.27380 0.12100 -0.00500
H 	H 	0.24470 0.49710 0.20320 -0.00400
H 	H 	0.11880 0.52410 0.15460 0.08300
C 	C 	0.81560 0.85010 0.06880 0.17600
C 	C 	0.80140 0.84340 0.98720 -0.17100
C 	C 	0.73320 0.78010 0.89560 0.04200
C 	C 	0.67690 0.72200 0.88140 -0.09700
C 	C 	0.69090 0.72720 0.95960 -0.01200
C 	C 	0.75720 0.78930 0.05200 -0.04100
C 	C 	0.71412 0.76912 0.13324 -0.03000
C 	C 	0.71990 0.75520 0.20280 0.07600
C 	C 	0.64640 0.74020 0.19900 -0.13800
C 	C 	0.65140 0.72570 0.26400 0.07900
C 	C 	0.78980 0.73640 0.33020 0.08500
C 	C 	0.79190 0.75110 0.26940 -0.14600
C 	C 	0.78470 0.60130 0.47620 0.18400
C 	C 	0.81600 0.53360 0.46600 -0.17500
C 	C 	0.81340 0.49350 0.50660 0.04200
C 	C 	0.78360 0.52320 0.56640 -0.09800
C 	C 	0.75190 0.58800 0.57580 -0.00700
C 	C 	0.74980 0.62660 0.53080 -0.04600
C 	C 	0.67738 0.71858 0.57796 -0.04400
C 	C 	0.66217 0.79907 0.60694 0.08000
C 	C 	0.58620 0.80670 0.59700 -0.14300
C 	C 	0.57570 0.88500 0.62840 0.08800
C 	C 	0.70510 0.94590 0.67580 0.08400
C 	C 	0.72180 0.87100 0.64700 -0.14400
C 	C 	0.25320 0.21870 0.06880 0.17000
C 	C 	0.18580 0.14380 0.98720 -0.16700
C 	C 	0.16240 0.11550 0.89560 0.03800
C 	C 	0.20450 0.15940 0.88140 -0.09600
C 	C 	0.26870 0.23240 0.95960 -0.00900
C 	C 	0.29480 0.26270 0.05200 -0.04400
C 	C 	0.41912 0.36412 0.13324 -0.03100
C 	C 	0.48290 0.44760 0.20280 0.07500
C 	C 	0.55260 0.45880 0.19900 -0.13900
C 	C 	0.61260 0.53830 0.26400 0.07800
C 	C 	0.54040 0.59380 0.33020 0.08400
C 	C 	0.47750 0.51830 0.26940 -0.14500
C 	C 	0.69150 0.87490 0.47620 0.19500
C 	C 	0.65000 0.93240 0.46600 -0.15700
C 	C 	0.69320 0.01310 0.50660 0.04100
C 	C 	0.78280 0.04320 0.56640 -0.17400
C 	C 	0.82390 0.98780 0.57580 0.10400
C 	C 	0.78100 0.90420 0.53080 -0.07900
C 	C 	0.90058 0.85938 0.57796 -0.02500
C 	C 	0.94477 0.80787 0.60694 0.02600
C 	C 	0.01080 0.79030 0.59700 -0.08200
C 	C 	0.05270 0.74340 0.62840 0.06500
C 	C 	0.97070 0.72990 0.67580 0.03400
C 	C 	0.92520 0.77600 0.64700 -0.10700
C 	C 	0.14990 0.74680 0.93120 0.17400
C 	C 	0.15660 0.81420 0.01280 -0.16700
C 	C 	0.21990 0.83760 0.10440 0.04200
C 	C 	0.27800 0.79550 0.11860 -0.09400
C 	C 	0.27280 0.73130 0.04040 -0.01000
C 	C 	0.21070 0.70520 0.94800 -0.04100
C 	C 	0.23088 0.58088 0.86676 -0.03000
C 	C 	0.24480 0.51710 0.79720 0.07600
C 	C 	0.25980 0.44740 0.80100 -0.13800
C 	C 	0.27430 0.38740 0.73600 0.07900
C 	C 	0.26360 0.45960 0.66980 0.08500
C 	C 	0.24890 0.52250 0.73060 -0.14500
C 	C 	0.39870 0.30850 0.52380 0.18500
C 	C 	0.46640 0.35000 0.53400 -0.17300
C 	C 	0.50650 0.30680 0.49340 0.04400
C 	C 	0.47680 0.21720 0.43360 -0.09800
C 	C 	0.41200 0.17610 0.42420 -0.00600
C 	C 	0.37340 0.21900 0.46920 -0.04600
C 	C 	0.28142 0.09942 0.42204 -0.02200
C 	C 	0.20093 0.05523 0.39306 0.02100
C 	C 	0.19330 0.98920 0.40300 -0.08000
C 	C 	0.11500 0.94730 0.37160 0.06500
C 	C 	0.05410 0.02930 0.32420 0.03400
C 	C 	0.12900 0.07480 0.35300 -0.10300
C 	C 	0.78130 0.18440 0.93120 0.17200
C 	C 	0.85620 0.19860 0.01280 -0.17200
C 	C 	0.88450 0.26680 0.10440 0.03800
C 	C 	0.84060 0.32310 0.11860 -0.09900
C 	C 	0.76760 0.30910 0.04040 -0.01000
C 	C 	0.73730 0.24280 0.94800 -0.04300
C 	C 	0.63588 0.28588 0.86676 -0.03100
C 	C 	0.55240 0.28010 0.79720 0.07500
C 	C 	0.54120 0.35360 0.80100 -0.13900
C 	C 	0.46170 0.34860 0.73600 0.07800
C 	C 	0.40620 0.21020 0.66980 0.08500
C 	C 	0.48170 0.20810 0.73060 -0.14600
C 	C 	0.12510 0.21530 0.52380 0.19400
C 	C 	0.06760 0.18400 0.53400 -0.15900
C 	C 	0.98690 0.18660 0.49340 0.04000
C 	C 	0.95680 0.21640 0.43360 -0.17500
C 	C 	0.01220 0.24810 0.42420 0.10300
C 	C 	0.09580 0.25020 0.46920 -0.07900
C 	C 	0.14062 0.32262 0.42204 -0.04800
C 	C 	0.19213 0.33783 0.39306 0.08400
C 	C 	0.20970 0.41380 0.40300 -0.14500
C 	C 	0.25660 0.42430 0.37160 0.08800
C 	C 	0.27010 0.29490 0.32420 0.08400
C 	C 	0.22400 0.27820 0.35300 -0.14700
C 	C 	0.99680 0.89990 0.43120 0.10900
C 	C 	0.06420 0.90660 0.51280 -0.09600
C 	C 	0.08760 0.96990 0.60440 0.00900
C 	C 	0.04550 0.02800 0.61860 -0.02800
C 	C 	0.98130 0.02280 0.54040 -0.12600
C 	C 	0.95520 0.96070 0.44800 0.02500
C 	C 	0.83088 0.98088 0.36676 -0.03100
C 	C 	0.76710 0.99480 0.29720 0.09700
C 	C 	0.69740 0.00980 0.30100 -0.17500
C 	C 	0.63740 0.02430 0.23600 0.08400
C 	C 	0.70960 0.01360 0.16980 0.04300
C 	C 	0.77250 0.99890 0.23060 -0.10800
C 	C 	0.55850 0.14870 0.02380 0.18400
C 	C 	0.60000 0.21640 0.03400 -0.17500
C 	C 	0.55680 0.25650 0.99340 0.04700
C 	C 	0.46720 0.22680 0.93360 -0.10000
C 	C 	0.42610 0.16200 0.92420 -0.00400
C 	C 	0.46900 0.12340 0.96920 -0.04900
C 	C 	0.34942 0.03142 0.92204 -0.08600
C 	C 	0.30523 0.95093 0.89306 0.12300
C 	C 	0.23920 0.94330 0.90300 -0.16400
C 	C 	0.19730 0.86500 0.87160 0.10000
C 	C 	0.27930 0.80410 0.82420 0.09500
C 	C 	0.32480 0.87900 0.85300 -0.16800
C 	C 	0.43440 0.53130 0.43120 0.17300
C 	C 	0.44860 0.60620 0.51280 -0.16900
C 	C 	0.51680 0.63450 0.60440 0.04100
C 	C 	0.57310 0.59060 0.61860 -0.09700
C 	C 	0.55910 0.51760 0.54040 -0.01000
C 	C 	0.49280 0.48730 0.44800 -0.04300
C 	C 	0.53588 0.38588 0.36676 -0.03100
C 	C 	0.53010 0.30240 0.29720 0.07600
C 	C 	0.60360 0.29120 0.30100 -0.14000
C 	C 	0.59860 0.21170 0.23600 0.07800
C 	C 	0.46020 0.15620 0.16980 0.08400
C 	C 	0.45810 0.23170 0.23060 -0.14600
C 	C 	0.46530 0.87510 0.02380 0.18400
C 	C 	0.43400 0.81760 0.03400 -0.16800
C 	C 	0.43660 0.73690 0.99340 0.04000
C 	C 	0.46640 0.70680 0.93360 -0.09300
C 	C 	0.49810 0.76220 0.92420 -0.00900
C 	C 	0.50020 0.84580 0.96920 -0.04100
C 	C 	0.57262 0.89062 0.92204 -0.02100
C 	C 	0.58783 0.94213 0.89306 0.03900
C 	C 	0.66380 0.95970 0.90300 -0.07600
C 	C 	0.67430 0.00660 0.87160 0.02800
C 	C 	0.54490 0.02010 0.82420 0.02300
C 	C 	0.52820 0.97400 0.85300 -0.07500
C 	C 	0.46870 0.00320 0.56880 0.10600
C 	C 	0.39380 0.93580 0.48720 -0.08100
C 	C 	0.36550 0.91240 0.39560 -0.03600
C 	C 	0.40940 0.95450 0.38140 0.01100
C 	C 	0.48240 0.01870 0.45960 -0.10800
C 	C 	0.51270 0.04480 0.55200 0.00200
C 	C 	0.61412 0.16912 0.63324 -0.02900
C 	C 	0.69760 0.23290 0.70280 0.07400
C 	C 	0.70880 0.30260 0.69900 -0.13900
C 	C 	0.78830 0.36260 0.76400 0.07800
C 	C 	0.84380 0.29040 0.83020 0.08300
C 	C 	0.76830 0.22750 0.76940 -0.14500
C 	C 	0.12490 0.44150 0.97620 0.18400
C 	C 	0.18240 0.40000 0.96600 -0.16600
C 	C 	0.26310 0.44320 0.00660 0.03700
C 	C 	0.29320 0.53280 0.06640 -0.09100
C 	C 	0.23780 0.57390 0.07580 -0.01000
C 	C 	0.15420 0.53100 0.03080 -0.04100
C 	C 	0.10938 0.65058 0.07796 -0.02000
C 	C 	0.05787 0.69477 0.10694 0.03900
C 	C 	0.04030 0.76080 0.09700 -0.07500
C 	C 	0.99340 0.80270 0.12840 0.02800
C 	C 	0.97990 0.72070 0.17580 0.02400
C 	C 	0.02600 0.67520 0.14700 -0.07500
C 	C 	0.10010 0.56560 0.56880 0.17400
C 	C 	0.09340 0.55140 0.48720 -0.18200
C 	C 	0.03010 0.48320 0.39560 0.08400
C 	C 	0.97200 0.42690 0.38140 -0.13200
C 	C 	0.97720 0.44090 0.45960 -0.03200
C 	C 	0.03930 0.50720 0.55200 -0.01900
C 	C 	0.01912 0.46412 0.63324 -0.03300
C 	C 	0.00520 0.46990 0.70280 0.09900
C 	C 	0.99020 0.39640 0.69900 -0.17600
C 	C 	0.97570 0.40140 0.76400 0.08400
C 	C 	0.98640 0.53980 0.83020 0.04400
C 	C 	0.00110 0.54190 0.76940 -0.10900
C 	C 	0.85130 0.53470 0.97620 0.18500
C 	C 	0.78360 0.56600 0.96600 -0.17800
C 	C 	0.74350 0.56340 0.00660 0.05000
C 	C 	0.77320 0.53360 0.06640 -0.10100
C 	C 	0.83800 0.50190 0.07580 -0.00400
C 	C 	0.87660 0.49980 0.03080 -0.05000
C 	C 	0.96858 0.42738 0.07796 -0.08600
C 	C 	0.04907 0.41217 0.10694 0.12300
C 	C 	0.05670 0.33620 0.09700 -0.16600
C 	C 	0.13500 0.32570 0.12840 0.10000
C 	C 	0.19590 0.45510 0.17580 0.09500
C 	C 	0.12100 0.47180 0.14700 -0.16800
N 	N 	0.77739 0.79359 0.13498 -0.17900
N 	N 	0.72016 0.72186 0.32732 -0.22600
N 	N 	0.72198 0.69748 0.54276 -0.18600
N 	N 	0.63284 0.95414 0.66768 -0.22000
N 	N 	0.35759 0.34139 0.13498 -0.17800
N 	N 	0.60716 0.60546 0.32732 -0.22600
N 	N 	0.82078 0.84528 0.54276 -0.18400
N 	N 	0.03484 0.71354 0.66768 -0.20600
N 	N 	0.20641 0.64241 0.86502 -0.17900
N 	N 	0.27814 0.39284 0.67268 -0.22600
N 	N 	0.30252 0.17922 0.45724 -0.19100
N 	N 	0.04586 0.96516 0.33232 -0.19600
N 	N 	0.65861 0.22261 0.86502 -0.17800
N 	N 	0.39454 0.27984 0.67268 -0.22600
N 	N 	0.15472 0.27802 0.45724 -0.17900
N 	N 	0.28646 0.36716 0.33232 -0.23000
N 	N 	0.89241 0.95641 0.36502 -0.18700
N 	N 	0.64284 0.02814 0.17268 -0.22600
N 	N 	0.42922 0.05252 0.95724 -0.18400
N 	N 	0.21516 0.79586 0.83232 -0.23400
N 	N 	0.47261 0.40861 0.36502 -0.17800
N 	N 	0.52984 0.14454 0.17268 -0.22800
N 	N 	0.52802 0.90472 0.95724 -0.18600
N 	N 	0.61716 0.03646 0.83232 -0.21300
N 	N 	0.59139 0.10759 0.63498 -0.18800
N 	N 	0.85546 0.35716 0.82732 -0.22800
N 	N 	0.09528 0.57078 0.04276 -0.18600
N 	N 	0.96354 0.78484 0.16768 -0.21300
N 	N 	0.04359 0.52739 0.63498 -0.17800
N 	N 	0.97186 0.47016 0.82732 -0.22600
N 	N 	0.94748 0.47198 0.04276 -0.18300
N 	N 	0.20414 0.38284 0.16768 -0.23400
O 	O 	0.87914 0.90984 0.15716 -0.38200
O 	O 	0.78777 0.64062 0.43864 -0.38300
O 	O 	0.27802 0.24732 0.15716 -0.38200
O 	O 	0.65087 0.79802 0.43864 -0.38300
O 	O 	0.09016 0.72198 0.84284 -0.37500
O 	O 	0.35938 0.34913 0.56136 -0.38100
O 	O 	0.75268 0.12086 0.84284 -0.38900
O 	O 	0.20198 0.21223 0.56136 -0.38500
O 	O 	0.97198 0.84016 0.34284 -0.37500
O 	O 	0.59913 0.10938 0.06136 -0.38700
O 	O 	0.37086 0.50268 0.34284 -0.38200
O 	O 	0.46223 0.95198 0.06136 -0.36600
O 	O 	0.49732 0.02802 0.65716 -0.37400
O 	O 	0.04802 0.40087 0.93864 -0.36600
O 	O 	0.15984 0.62914 0.65716 -0.38200
O 	O 	0.89062 0.53777 0.93864 -0.38700
