data_crystal

_cell_length_a 19.80850
_cell_length_b 19.80850
_cell_length_c 19.80850
_cell_angle_alpha 90.00000
_cell_angle_beta  90.00000
_cell_angle_gamma 90.00000

_symmetry_space_group_name_	'P 1'
_symmetry_space_group_name_H-M	'P 1'

loop_
_symmetry_equiv_pos_as_xyz
  x,y,z

loop_
_atom_site_label
_atom_site_type_symbol
_atom_site_fract_x
_atom_site_fract_y
_atom_site_fract_z
_atom_site_charge
Eu	Eu	0.49325 0.24701 0.15309 1.54500
O 	O 	0.45080 0.14720 0.20600 -0.49000
O 	O 	0.54130 0.34230 0.20920 -0.48700
O 	O 	0.41740 0.08600 0.29430 -0.46000
O 	O 	0.58920 0.39350 0.29690 -0.45900
N 	N 	0.49950 0.24190 0.28050 -0.18400
C 	C 	0.44510 0.13570 0.26870 0.37700
C 	C 	0.55440 0.34800 0.27170 0.37300
C 	C 	0.52740 0.29280 0.31590 -0.08300
C 	C 	0.47430 0.18880 0.31420 -0.08100
C 	C 	0.52980 0.29300 0.38510 -0.00500
H 	H 	0.54920 0.32870 0.40860 0.01000
C 	C 	0.47370 0.18670 0.38400 -0.00600
H 	H 	0.45410 0.15060 0.40680 0.01300
C 	C 	0.50240 0.23850 0.41880 -0.07700
H 	H 	0.50360 0.23710 0.46570 0.02600
Eu	Eu	0.00675 0.75299 0.65309 1.54100
O 	O 	0.04920 0.85280 0.70600 -0.49100
O 	O 	0.95870 0.65770 0.70920 -0.48700
O 	O 	0.08260 0.91400 0.79430 -0.46200
O 	O 	0.91080 0.60650 0.79690 -0.45900
N 	N 	0.00050 0.75810 0.78050 -0.18700
C 	C 	0.05490 0.86430 0.76870 0.37500
C 	C 	0.94560 0.65200 0.77170 0.37100
C 	C 	0.97260 0.70720 0.81590 -0.07900
C 	C 	0.02570 0.81120 0.81420 -0.08000
C 	C 	0.97020 0.70700 0.88510 -0.01100
H 	H 	0.95080 0.67130 0.90860 0.01100
C 	C 	0.02630 0.81330 0.88400 -0.01400
H 	H 	0.04590 0.84940 0.90680 0.01500
C 	C 	0.99760 0.76150 0.91880 -0.06800
H 	H 	0.99640 0.76290 0.96570 0.02500
Eu	Eu	0.50675 0.74701 0.34691 1.54300
O 	O 	0.54920 0.64720 0.29400 -0.49100
O 	O 	0.45870 0.84230 0.29080 -0.48800
O 	O 	0.58260 0.58600 0.20570 -0.46200
O 	O 	0.41080 0.89350 0.20310 -0.46000
N 	N 	0.50050 0.74190 0.21950 -0.18500
C 	C 	0.55490 0.63570 0.23130 0.37600
C 	C 	0.44560 0.84800 0.22830 0.37200
C 	C 	0.47260 0.79280 0.18410 -0.08400
C 	C 	0.52570 0.68880 0.18580 -0.08200
C 	C 	0.47020 0.79300 0.11490 -0.00600
H 	H 	0.45080 0.82870 0.09140 0.00900
C 	C 	0.52630 0.68670 0.11600 -0.00600
H 	H 	0.54590 0.65060 0.09320 0.01300
C 	C 	0.49760 0.73850 0.08120 -0.07700
H 	H 	0.49640 0.73710 0.03430 0.02600
Eu	Eu	0.99325 0.25299 0.84691 1.54400
O 	O 	0.95080 0.35280 0.79400 -0.49100
O 	O 	0.04130 0.15770 0.79080 -0.48800
O 	O 	0.91740 0.41400 0.70570 -0.46200
O 	O 	0.08920 0.10650 0.70310 -0.46000
N 	N 	0.99950 0.25810 0.71950 -0.18500
C 	C 	0.94510 0.36430 0.73130 0.37600
C 	C 	0.05440 0.15200 0.72830 0.37200
C 	C 	0.02740 0.20720 0.68410 -0.08300
C 	C 	0.97430 0.31120 0.68580 -0.08200
C 	C 	0.02980 0.20700 0.61490 -0.00700
H 	H 	0.04920 0.17130 0.59140 0.00900
C 	C 	0.97370 0.31330 0.61600 -0.00700
H 	H 	0.95410 0.34940 0.59320 0.01300
C 	C 	0.00240 0.26150 0.58120 -0.07500
H 	H 	0.00360 0.26290 0.53430 0.02600
Eu	Eu	0.15309 0.49325 0.24701 1.54400
O 	O 	0.20600 0.45080 0.14720 -0.49100
O 	O 	0.20920 0.54130 0.34230 -0.48800
O 	O 	0.29430 0.41740 0.08600 -0.46100
O 	O 	0.29690 0.58920 0.39350 -0.46000
N 	N 	0.28050 0.49950 0.24190 -0.18500
C 	C 	0.26870 0.44510 0.13570 0.37600
C 	C 	0.27170 0.55440 0.34800 0.37200
C 	C 	0.31590 0.52740 0.29280 -0.08400
C 	C 	0.31420 0.47430 0.18880 -0.08200
C 	C 	0.38510 0.52980 0.29300 -0.00600
H 	H 	0.40860 0.54920 0.32870 0.00900
C 	C 	0.38400 0.47370 0.18670 -0.00600
H 	H 	0.40680 0.45410 0.15060 0.01300
C 	C 	0.41880 0.50240 0.23850 -0.07700
H 	H 	0.46570 0.50360 0.23710 0.02600
Eu	Eu	0.65309 0.00675 0.75299 1.54100
O 	O 	0.70600 0.04920 0.85280 -0.49100
O 	O 	0.70920 0.95870 0.65770 -0.48700
O 	O 	0.79430 0.08260 0.91400 -0.46200
O 	O 	0.79690 0.91080 0.60650 -0.45900
N 	N 	0.78050 0.00050 0.75810 -0.18700
C 	C 	0.76870 0.05490 0.86430 0.37500
C 	C 	0.77170 0.94560 0.65200 0.37100
C 	C 	0.81590 0.97260 0.70720 -0.07900
C 	C 	0.81420 0.02570 0.81120 -0.08000
C 	C 	0.88510 0.97020 0.70700 -0.01100
H 	H 	0.90860 0.95080 0.67130 0.01100
C 	C 	0.88400 0.02630 0.81330 -0.01400
H 	H 	0.90680 0.04590 0.84940 0.01500
C 	C 	0.91880 0.99760 0.76150 -0.06800
H 	H 	0.96570 0.99640 0.76290 0.02500
Eu	Eu	0.34691 0.50675 0.74701 1.54300
O 	O 	0.29400 0.54920 0.64720 -0.49100
O 	O 	0.29080 0.45870 0.84230 -0.48800
O 	O 	0.20570 0.58260 0.58600 -0.46200
O 	O 	0.20310 0.41080 0.89350 -0.46000
N 	N 	0.21950 0.50050 0.74190 -0.18500
C 	C 	0.23130 0.55490 0.63570 0.37600
C 	C 	0.22830 0.44560 0.84800 0.37200
C 	C 	0.18410 0.47260 0.79280 -0.08400
C 	C 	0.18580 0.52570 0.68880 -0.08200
C 	C 	0.11490 0.47020 0.79300 -0.00600
H 	H 	0.09140 0.45080 0.82870 0.00900
C 	C 	0.11600 0.52630 0.68670 -0.00600
H 	H 	0.09320 0.54590 0.65060 0.01300
C 	C 	0.08120 0.49760 0.73850 -0.07700
H 	H 	0.03430 0.49640 0.73710 0.02600
Eu	Eu	0.84691 0.99325 0.25299 1.54400
O 	O 	0.79400 0.95080 0.35280 -0.49100
O 	O 	0.79080 0.04130 0.15770 -0.48800
O 	O 	0.70570 0.91740 0.41400 -0.46200
O 	O 	0.70310 0.08920 0.10650 -0.46000
N 	N 	0.71950 0.99950 0.25810 -0.18500
C 	C 	0.73130 0.94510 0.36430 0.37600
C 	C 	0.72830 0.05440 0.15200 0.37200
C 	C 	0.68410 0.02740 0.20720 -0.08300
C 	C 	0.68580 0.97430 0.31120 -0.08200
C 	C 	0.61490 0.02980 0.20700 -0.00700
H 	H 	0.59140 0.04920 0.17130 0.00900
C 	C 	0.61600 0.97370 0.31330 -0.00700
H 	H 	0.59320 0.95410 0.34940 0.01300
C 	C 	0.58120 0.00240 0.26150 -0.07500
H 	H 	0.53430 0.00360 0.26290 0.02600
Eu	Eu	0.24701 0.15309 0.49325 1.54400
O 	O 	0.14720 0.20600 0.45080 -0.49100
O 	O 	0.34230 0.20920 0.54130 -0.48800
O 	O 	0.08600 0.29430 0.41740 -0.46100
O 	O 	0.39350 0.29690 0.58920 -0.46000
N 	N 	0.24190 0.28050 0.49950 -0.18500
C 	C 	0.13570 0.26870 0.44510 0.37600
C 	C 	0.34800 0.27170 0.55440 0.37200
C 	C 	0.29280 0.31590 0.52740 -0.08400
C 	C 	0.18880 0.31420 0.47430 -0.08200
C 	C 	0.29300 0.38510 0.52980 -0.00600
H 	H 	0.32870 0.40860 0.54920 0.00900
C 	C 	0.18670 0.38400 0.47370 -0.00600
H 	H 	0.15060 0.40680 0.45410 0.01300
C 	C 	0.23850 0.41880 0.50240 -0.07700
H 	H 	0.23710 0.46570 0.50360 0.02600
Eu	Eu	0.75299 0.65309 0.00675 1.54100
O 	O 	0.85280 0.70600 0.04920 -0.49100
O 	O 	0.65770 0.70920 0.95870 -0.48700
O 	O 	0.91400 0.79430 0.08260 -0.46200
O 	O 	0.60650 0.79690 0.91080 -0.45900
N 	N 	0.75810 0.78050 0.00050 -0.18700
C 	C 	0.86430 0.76870 0.05490 0.37500
C 	C 	0.65200 0.77170 0.94560 0.37100
C 	C 	0.70720 0.81590 0.97260 -0.07900
C 	C 	0.81120 0.81420 0.02570 -0.08000
C 	C 	0.70700 0.88510 0.97020 -0.01100
H 	H 	0.67130 0.90860 0.95080 0.01100
C 	C 	0.81330 0.88400 0.02630 -0.01400
H 	H 	0.84940 0.90680 0.04590 0.01500
C 	C 	0.76150 0.91880 0.99760 -0.06800
H 	H 	0.76290 0.96570 0.99640 0.02500
Eu	Eu	0.74701 0.34691 0.50675 1.54300
O 	O 	0.64720 0.29400 0.54920 -0.49100
O 	O 	0.84230 0.29080 0.45870 -0.48800
O 	O 	0.58600 0.20570 0.58260 -0.46200
O 	O 	0.89350 0.20310 0.41080 -0.46000
N 	N 	0.74190 0.21950 0.50050 -0.18500
C 	C 	0.63570 0.23130 0.55490 0.37600
C 	C 	0.84800 0.22830 0.44560 0.37200
C 	C 	0.79280 0.18410 0.47260 -0.08400
C 	C 	0.68880 0.18580 0.52570 -0.08200
C 	C 	0.79300 0.11490 0.47020 -0.00600
H 	H 	0.82870 0.09140 0.45080 0.00900
C 	C 	0.68670 0.11600 0.52630 -0.00600
H 	H 	0.65060 0.09320 0.54590 0.01300
C 	C 	0.73850 0.08120 0.49760 -0.07700
H 	H 	0.73710 0.03430 0.49640 0.02600
Eu	Eu	0.25299 0.84691 0.99325 1.54400
O 	O 	0.35280 0.79400 0.95080 -0.49100
O 	O 	0.15770 0.79080 0.04130 -0.48800
O 	O 	0.41400 0.70570 0.91740 -0.46200
O 	O 	0.10650 0.70310 0.08920 -0.46000
N 	N 	0.25810 0.71950 0.99950 -0.18500
C 	C 	0.36430 0.73130 0.94510 0.37600
C 	C 	0.15200 0.72830 0.05440 0.37200
C 	C 	0.20720 0.68410 0.02740 -0.08300
C 	C 	0.31120 0.68580 0.97430 -0.08200
C 	C 	0.20700 0.61490 0.02980 -0.00700
H 	H 	0.17130 0.59140 0.04920 0.00900
C 	C 	0.31330 0.61600 0.97370 -0.00700
H 	H 	0.34940 0.59320 0.95410 0.01300
C 	C 	0.26150 0.58120 0.00240 -0.07500
H 	H 	0.26290 0.53430 0.00360 0.02600
Eu	Eu	0.50675 0.75299 0.84691 1.54400
O 	O 	0.54920 0.85280 0.79400 -0.49100
O 	O 	0.45870 0.65770 0.79080 -0.48800
O 	O 	0.58260 0.91400 0.70570 -0.46100
O 	O 	0.41080 0.60650 0.70310 -0.46000
N 	N 	0.50050 0.75810 0.71950 -0.18500
C 	C 	0.55490 0.86430 0.73130 0.37600
C 	C 	0.44560 0.65200 0.72830 0.37200
C 	C 	0.47260 0.70720 0.68410 -0.08400
C 	C 	0.52570 0.81120 0.68580 -0.08200
C 	C 	0.47020 0.70700 0.61490 -0.00600
H 	H 	0.45080 0.67130 0.59140 0.00900
C 	C 	0.52630 0.81330 0.61600 -0.00600
H 	H 	0.54590 0.84940 0.59320 0.01300
C 	C 	0.49760 0.76150 0.58120 -0.07700
H 	H 	0.49640 0.76290 0.53430 0.02600
Eu	Eu	0.99325 0.24701 0.34691 1.54100
O 	O 	0.95080 0.14720 0.29400 -0.49100
O 	O 	0.04130 0.34230 0.29080 -0.48700
O 	O 	0.91740 0.08600 0.20570 -0.46200
O 	O 	0.08920 0.39350 0.20310 -0.45900
N 	N 	0.99950 0.24190 0.21950 -0.18700
C 	C 	0.94510 0.13570 0.23130 0.37500
C 	C 	0.05440 0.34800 0.22830 0.37100
C 	C 	0.02740 0.29280 0.18410 -0.07900
C 	C 	0.97430 0.18880 0.18580 -0.08000
C 	C 	0.02980 0.29300 0.11490 -0.01100
H 	H 	0.04920 0.32870 0.09140 0.01100
C 	C 	0.97370 0.18670 0.11600 -0.01400
H 	H 	0.95410 0.15060 0.09320 0.01500
C 	C 	0.00240 0.23850 0.08120 -0.06800
H 	H 	0.00360 0.23710 0.03430 0.02500
Eu	Eu	0.49325 0.25299 0.65309 1.54300
O 	O 	0.45080 0.35280 0.70600 -0.49100
O 	O 	0.54130 0.15770 0.70920 -0.48800
O 	O 	0.41740 0.41400 0.79430 -0.46200
O 	O 	0.58920 0.10650 0.79690 -0.46000
N 	N 	0.49950 0.25810 0.78050 -0.18500
C 	C 	0.44510 0.36430 0.76870 0.37600
C 	C 	0.55440 0.15200 0.77170 0.37200
C 	C 	0.52740 0.20720 0.81590 -0.08400
C 	C 	0.47430 0.31120 0.81420 -0.08200
C 	C 	0.52980 0.20700 0.88510 -0.00600
H 	H 	0.54920 0.17130 0.90860 0.00900
C 	C 	0.47370 0.31330 0.88400 -0.00600
H 	H 	0.45410 0.34940 0.90680 0.01300
C 	C 	0.50240 0.26150 0.91880 -0.07700
H 	H 	0.50360 0.26290 0.96570 0.02600
Eu	Eu	0.00675 0.74701 0.15309 1.54400
O 	O 	0.04920 0.64720 0.20600 -0.49100
O 	O 	0.95870 0.84230 0.20920 -0.48800
O 	O 	0.08260 0.58600 0.29430 -0.46200
O 	O 	0.91080 0.89350 0.29690 -0.46000
N 	N 	0.00050 0.74190 0.28050 -0.18500
C 	C 	0.05490 0.63570 0.26870 0.37600
C 	C 	0.94560 0.84800 0.27170 0.37200
C 	C 	0.97260 0.79280 0.31590 -0.08300
C 	C 	0.02570 0.68880 0.31420 -0.08200
C 	C 	0.97020 0.79300 0.38510 -0.00700
H 	H 	0.95080 0.82870 0.40860 0.00900
C 	C 	0.02630 0.68670 0.38400 -0.00700
H 	H 	0.04590 0.65060 0.40680 0.01300
C 	C 	0.99760 0.73850 0.41880 -0.07500
H 	H 	0.99640 0.73710 0.46570 0.02600
Eu	Eu	0.84691 0.50675 0.75299 1.54400
O 	O 	0.79400 0.54920 0.85280 -0.49100
O 	O 	0.79080 0.45870 0.65770 -0.48800
O 	O 	0.70570 0.58260 0.91400 -0.46100
O 	O 	0.70310 0.41080 0.60650 -0.46000
N 	N 	0.71950 0.50050 0.75810 -0.18500
C 	C 	0.73130 0.55490 0.86430 0.37600
C 	C 	0.72830 0.44560 0.65200 0.37200
C 	C 	0.68410 0.47260 0.70720 -0.08400
C 	C 	0.68580 0.52570 0.81120 -0.08200
C 	C 	0.61490 0.47020 0.70700 -0.00600
H 	H 	0.59140 0.45080 0.67130 0.00900
C 	C 	0.61600 0.52630 0.81330 -0.00600
H 	H 	0.59320 0.54590 0.84940 0.01300
C 	C 	0.58120 0.49760 0.76150 -0.07700
H 	H 	0.53430 0.49640 0.76290 0.02600
Eu	Eu	0.34691 0.99325 0.24701 1.54100
O 	O 	0.29400 0.95080 0.14720 -0.49100
O 	O 	0.29080 0.04130 0.34230 -0.48700
O 	O 	0.20570 0.91740 0.08600 -0.46200
O 	O 	0.20310 0.08920 0.39350 -0.45900
N 	N 	0.21950 0.99950 0.24190 -0.18700
C 	C 	0.23130 0.94510 0.13570 0.37500
C 	C 	0.22830 0.05440 0.34800 0.37100
C 	C 	0.18410 0.02740 0.29280 -0.07900
C 	C 	0.18580 0.97430 0.18880 -0.08000
C 	C 	0.11490 0.02980 0.29300 -0.01100
H 	H 	0.09140 0.04920 0.32870 0.01100
C 	C 	0.11600 0.97370 0.18670 -0.01400
H 	H 	0.09320 0.95410 0.15060 0.01500
C 	C 	0.08120 0.00240 0.23850 -0.06800
H 	H 	0.03430 0.00360 0.23710 0.02500
Eu	Eu	0.65309 0.49325 0.25299 1.54300
O 	O 	0.70600 0.45080 0.35280 -0.49100
O 	O 	0.70920 0.54130 0.15770 -0.48800
O 	O 	0.79430 0.41740 0.41400 -0.46200
O 	O 	0.79690 0.58920 0.10650 -0.46000
N 	N 	0.78050 0.49950 0.25810 -0.18500
C 	C 	0.76870 0.44510 0.36430 0.37600
C 	C 	0.77170 0.55440 0.15200 0.37200
C 	C 	0.81590 0.52740 0.20720 -0.08400
C 	C 	0.81420 0.47430 0.31120 -0.08200
C 	C 	0.88510 0.52980 0.20700 -0.00600
H 	H 	0.90860 0.54920 0.17130 0.00900
C 	C 	0.88400 0.47370 0.31330 -0.00600
H 	H 	0.90680 0.45410 0.34940 0.01300
C 	C 	0.91880 0.50240 0.26150 -0.07700
H 	H 	0.96570 0.50360 0.26290 0.02600
Eu	Eu	0.15309 0.00675 0.74701 1.54400
O 	O 	0.20600 0.04920 0.64720 -0.49100
O 	O 	0.20920 0.95870 0.84230 -0.48800
O 	O 	0.29430 0.08260 0.58600 -0.46200
O 	O 	0.29690 0.91080 0.89350 -0.46000
N 	N 	0.28050 0.00050 0.74190 -0.18500
C 	C 	0.26870 0.05490 0.63570 0.37600
C 	C 	0.27170 0.94560 0.84800 0.37200
C 	C 	0.31590 0.97260 0.79280 -0.08300
C 	C 	0.31420 0.02570 0.68880 -0.08200
C 	C 	0.38510 0.97020 0.79300 -0.00700
H 	H 	0.40860 0.95080 0.82870 0.00900
C 	C 	0.38400 0.02630 0.68670 -0.00700
H 	H 	0.40680 0.04590 0.65060 0.01300
C 	C 	0.41880 0.99760 0.73850 -0.07500
H 	H 	0.46570 0.99640 0.73710 0.02600
Eu	Eu	0.75299 0.84691 0.50675 1.54400
O 	O 	0.85280 0.79400 0.54920 -0.49100
O 	O 	0.65770 0.79080 0.45870 -0.48800
O 	O 	0.91400 0.70570 0.58260 -0.46100
O 	O 	0.60650 0.70310 0.41080 -0.46000
N 	N 	0.75810 0.71950 0.50050 -0.18500
C 	C 	0.86430 0.73130 0.55490 0.37600
C 	C 	0.65200 0.72830 0.44560 0.37200
C 	C 	0.70720 0.68410 0.47260 -0.08400
C 	C 	0.81120 0.68580 0.52570 -0.08200
C 	C 	0.70700 0.61490 0.47020 -0.00600
H 	H 	0.67130 0.59140 0.45080 0.00900
C 	C 	0.81330 0.61600 0.52630 -0.00600
H 	H 	0.84940 0.59320 0.54590 0.01300
C 	C 	0.76150 0.58120 0.49760 -0.07700
H 	H 	0.76290 0.53430 0.49640 0.02600
Eu	Eu	0.24701 0.34691 0.99325 1.54100
O 	O 	0.14720 0.29400 0.95080 -0.49100
O 	O 	0.34230 0.29080 0.04130 -0.48700
O 	O 	0.08600 0.20570 0.91740 -0.46200
O 	O 	0.39350 0.20310 0.08920 -0.45900
N 	N 	0.24190 0.21950 0.99950 -0.18700
C 	C 	0.13570 0.23130 0.94510 0.37500
C 	C 	0.34800 0.22830 0.05440 0.37100
C 	C 	0.29280 0.18410 0.02740 -0.07900
C 	C 	0.18880 0.18580 0.97430 -0.08000
C 	C 	0.29300 0.11490 0.02980 -0.01100
H 	H 	0.32870 0.09140 0.04920 0.01100
C 	C 	0.18670 0.11600 0.97370 -0.01400
H 	H 	0.15060 0.09320 0.95410 0.01500
C 	C 	0.23850 0.08120 0.00240 -0.06800
H 	H 	0.23710 0.03430 0.00360 0.02500
Eu	Eu	0.25299 0.65309 0.49325 1.54300
O 	O 	0.35280 0.70600 0.45080 -0.49100
O 	O 	0.15770 0.70920 0.54130 -0.48800
O 	O 	0.41400 0.79430 0.41740 -0.46200
O 	O 	0.10650 0.79690 0.58920 -0.46000
N 	N 	0.25810 0.78050 0.49950 -0.18500
C 	C 	0.36430 0.76870 0.44510 0.37600
C 	C 	0.15200 0.77170 0.55440 0.37200
C 	C 	0.20720 0.81590 0.52740 -0.08400
C 	C 	0.31120 0.81420 0.47430 -0.08200
C 	C 	0.20700 0.88510 0.52980 -0.00600
H 	H 	0.17130 0.90860 0.54920 0.00900
C 	C 	0.31330 0.88400 0.47370 -0.00600
H 	H 	0.34940 0.90680 0.45410 0.01300
C 	C 	0.26150 0.91880 0.50240 -0.07700
H 	H 	0.26290 0.96570 0.50360 0.02600
Eu	Eu	0.74701 0.15309 0.00675 1.54400
O 	O 	0.64720 0.20600 0.04920 -0.49100
O 	O 	0.84230 0.20920 0.95870 -0.48800
O 	O 	0.58600 0.29430 0.08260 -0.46200
O 	O 	0.89350 0.29690 0.91080 -0.46000
N 	N 	0.74190 0.28050 0.00050 -0.18500
C 	C 	0.63570 0.26870 0.05490 0.37600
C 	C 	0.84800 0.27170 0.94560 0.37200
C 	C 	0.79280 0.31590 0.97260 -0.08300
C 	C 	0.68880 0.31420 0.02570 -0.08200
C 	C 	0.79300 0.38510 0.97020 -0.00700
H 	H 	0.82870 0.40860 0.95080 0.00900
C 	C 	0.68670 0.38400 0.02630 -0.00700
H 	H 	0.65060 0.40680 0.04590 0.01300
C 	C 	0.73850 0.41880 0.99760 -0.07500
H 	H 	0.73710 0.46570 0.99640 0.02600
