data_crystal

_cell_length_a 19.83460
_cell_length_b 19.83460
_cell_length_c 19.83460
_cell_angle_alpha 90.00000
_cell_angle_beta  90.00000
_cell_angle_gamma 90.00000

_symmetry_space_group_name_	'P 1'
_symmetry_space_group_name_H-M	'P 1'

loop_
_symmetry_equiv_pos_as_xyz
  x,y,z

loop_
_atom_site_label
_atom_site_type_symbol
_atom_site_fract_x
_atom_site_fract_y
_atom_site_fract_z
_atom_site_charge
O 	O 	0.45440 0.65180 0.79323 -0.49900
O 	O 	0.41530 0.59550 0.70440 -0.47200
C 	C 	0.44590 0.64390 0.73030 0.37000
C 	C 	0.47360 0.69840 0.68580 -0.08100
C 	C 	0.47220 0.69660 0.61620 -0.01500
H 	H 	0.45300 0.66050 0.59320 0.01000
O 	O 	0.95440 0.15180 0.29323 -0.44400
O 	O 	0.91530 0.09550 0.20440 -0.45600
C 	C 	0.94590 0.14390 0.23030 0.37200
C 	C 	0.97360 0.19840 0.18580 -0.06100
C 	C 	0.97220 0.19660 0.11620 0.16100
H 	H 	0.95300 0.16050 0.09320 -0.04600
O 	O 	0.04560 0.34820 0.29323 -0.50100
O 	O 	0.08470 0.40450 0.20440 -0.48600
C 	C 	0.05410 0.35610 0.23030 0.37600
C 	C 	0.02640 0.30160 0.18580 -0.13800
C 	C 	0.02780 0.30340 0.11620 0.07800
H 	H 	0.04700 0.33950 0.09320 -0.04500
O 	O 	0.54560 0.84820 0.79323 -0.47700
O 	O 	0.58470 0.90450 0.70440 -0.42100
C 	C 	0.55410 0.85610 0.73030 0.36400
C 	C 	0.52640 0.80160 0.68580 -0.07000
C 	C 	0.52780 0.80340 0.61620 -0.01600
H 	H 	0.54700 0.83950 0.59320 0.02100
O 	O 	0.54560 0.15180 0.70677 -0.49800
O 	O 	0.58470 0.09550 0.79560 -0.45900
C 	C 	0.55410 0.14390 0.76970 0.36700
C 	C 	0.52640 0.19840 0.81420 -0.07700
C 	C 	0.52780 0.19660 0.88380 -0.00600
H 	H 	0.54700 0.16050 0.90680 0.02500
O 	O 	0.04560 0.65180 0.20677 -0.50200
O 	O 	0.08470 0.59550 0.29560 -0.48300
C 	C 	0.05410 0.64390 0.26970 0.37700
C 	C 	0.02640 0.69840 0.31420 -0.13400
C 	C 	0.02780 0.69660 0.38380 0.08500
H 	H 	0.04700 0.66050 0.40680 -0.03400
O 	O 	0.95440 0.84820 0.20677 -0.42300
O 	O 	0.91530 0.90450 0.29560 -0.40900
C 	C 	0.94590 0.85610 0.26970 0.36900
C 	C 	0.97360 0.80160 0.31420 -0.04700
C 	C 	0.97220 0.80340 0.38380 0.16800
H 	H 	0.95300 0.83950 0.40680 -0.02100
O 	O 	0.45440 0.34820 0.70677 -0.49800
O 	O 	0.41530 0.40450 0.79560 -0.46400
C 	C 	0.44590 0.35610 0.76970 0.37100
C 	C 	0.47360 0.30160 0.81420 -0.07600
C 	C 	0.47220 0.30340 0.88380 -0.00500
H 	H 	0.45300 0.33950 0.90680 0.03000
O 	O 	0.79323 0.45440 0.65180 -0.49800
O 	O 	0.70440 0.41530 0.59550 -0.47100
C 	C 	0.73030 0.44590 0.64390 0.37100
C 	C 	0.68580 0.47360 0.69840 -0.08000
C 	C 	0.61620 0.47220 0.69660 -0.01400
H 	H 	0.59320 0.45300 0.66050 0.01100
O 	O 	0.29323 0.95440 0.15180 -0.44400
O 	O 	0.20440 0.91530 0.09550 -0.45600
C 	C 	0.23030 0.94590 0.14390 0.37200
C 	C 	0.18580 0.97360 0.19840 -0.06100
C 	C 	0.11620 0.97220 0.19660 0.16100
H 	H 	0.09320 0.95300 0.16050 -0.04600
O 	O 	0.29323 0.04560 0.34820 -0.50100
O 	O 	0.20440 0.08470 0.40450 -0.48600
C 	C 	0.23030 0.05410 0.35610 0.37600
C 	C 	0.18580 0.02640 0.30160 -0.13800
C 	C 	0.11620 0.02780 0.30340 0.07800
H 	H 	0.09320 0.04700 0.33950 -0.04500
O 	O 	0.79323 0.54560 0.84820 -0.47700
O 	O 	0.70440 0.58470 0.90450 -0.42100
C 	C 	0.73030 0.55410 0.85610 0.36400
C 	C 	0.68580 0.52640 0.80160 -0.07000
C 	C 	0.61620 0.52780 0.80340 -0.01600
H 	H 	0.59320 0.54700 0.83950 0.02100
O 	O 	0.70677 0.54560 0.15180 -0.49800
O 	O 	0.79560 0.58470 0.09550 -0.45900
C 	C 	0.76970 0.55410 0.14390 0.36700
C 	C 	0.81420 0.52640 0.19840 -0.07700
C 	C 	0.88380 0.52780 0.19660 -0.00600
H 	H 	0.90680 0.54700 0.16050 0.02500
O 	O 	0.20677 0.04560 0.65180 -0.50200
O 	O 	0.29560 0.08470 0.59550 -0.48300
C 	C 	0.26970 0.05410 0.64390 0.37700
C 	C 	0.31420 0.02640 0.69840 -0.13400
C 	C 	0.38380 0.02780 0.69660 0.08500
H 	H 	0.40680 0.04700 0.66050 -0.03400
O 	O 	0.20677 0.95440 0.84820 -0.42300
O 	O 	0.29560 0.91530 0.90450 -0.40900
C 	C 	0.26970 0.94590 0.85610 0.36900
C 	C 	0.31420 0.97360 0.80160 -0.04700
C 	C 	0.38380 0.97220 0.80340 0.16800
H 	H 	0.40680 0.95300 0.83950 -0.02100
O 	O 	0.70677 0.45440 0.34820 -0.49800
O 	O 	0.79560 0.41530 0.40450 -0.46400
C 	C 	0.76970 0.44590 0.35610 0.37100
C 	C 	0.81420 0.47360 0.30160 -0.07600
C 	C 	0.88380 0.47220 0.30340 -0.00500
H 	H 	0.90680 0.45300 0.33950 0.03000
O 	O 	0.65180 0.79323 0.45440 -0.49800
O 	O 	0.59550 0.70440 0.41530 -0.47100
C 	C 	0.64390 0.73030 0.44590 0.37100
C 	C 	0.69840 0.68580 0.47360 -0.08000
C 	C 	0.69660 0.61620 0.47220 -0.01400
H 	H 	0.66050 0.59320 0.45300 0.01100
O 	O 	0.15180 0.29323 0.95440 -0.44400
O 	O 	0.09550 0.20440 0.91530 -0.45600
C 	C 	0.14390 0.23030 0.94590 0.37200
C 	C 	0.19840 0.18580 0.97360 -0.06100
C 	C 	0.19660 0.11620 0.97220 0.16100
H 	H 	0.16050 0.09320 0.95300 -0.04600
O 	O 	0.34820 0.29323 0.04560 -0.50100
O 	O 	0.40450 0.20440 0.08470 -0.48600
C 	C 	0.35610 0.23030 0.05410 0.37600
C 	C 	0.30160 0.18580 0.02640 -0.13800
C 	C 	0.30340 0.11620 0.02780 0.07800
H 	H 	0.33950 0.09320 0.04700 -0.04500
O 	O 	0.84820 0.79323 0.54560 -0.47700
O 	O 	0.90450 0.70440 0.58470 -0.42100
C 	C 	0.85610 0.73030 0.55410 0.36400
C 	C 	0.80160 0.68580 0.52640 -0.07000
C 	C 	0.80340 0.61620 0.52780 -0.01600
H 	H 	0.83950 0.59320 0.54700 0.02100
O 	O 	0.15180 0.70677 0.54560 -0.49800
O 	O 	0.09550 0.79560 0.58470 -0.45900
C 	C 	0.14390 0.76970 0.55410 0.36700
C 	C 	0.19840 0.81420 0.52640 -0.07700
C 	C 	0.19660 0.88380 0.52780 -0.00600
H 	H 	0.16050 0.90680 0.54700 0.02500
O 	O 	0.65180 0.20677 0.04560 -0.50200
O 	O 	0.59550 0.29560 0.08470 -0.48300
C 	C 	0.64390 0.26970 0.05410 0.37700
C 	C 	0.69840 0.31420 0.02640 -0.13400
C 	C 	0.69660 0.38380 0.02780 0.08500
H 	H 	0.66050 0.40680 0.04700 -0.03400
O 	O 	0.84820 0.20677 0.95440 -0.42300
O 	O 	0.90450 0.29560 0.91530 -0.40900
C 	C 	0.85610 0.26970 0.94590 0.36900
C 	C 	0.80160 0.31420 0.97360 -0.04700
C 	C 	0.80340 0.38380 0.97220 0.16800
H 	H 	0.83950 0.40680 0.95300 -0.02100
O 	O 	0.34820 0.70677 0.45440 -0.49800
O 	O 	0.40450 0.79560 0.41530 -0.46400
C 	C 	0.35610 0.76970 0.44590 0.37100
C 	C 	0.30160 0.81420 0.47360 -0.07600
C 	C 	0.30340 0.88380 0.47220 -0.00500
H 	H 	0.33950 0.90680 0.45300 0.03000
O 	O 	0.54560 0.34820 0.20677 -0.49800
O 	O 	0.58470 0.40450 0.29560 -0.47100
C 	C 	0.55410 0.35610 0.26970 0.37100
C 	C 	0.52640 0.30160 0.31420 -0.08300
C 	C 	0.52780 0.30340 0.38380 -0.01000
H 	H 	0.54700 0.33950 0.40680 0.00900
O 	O 	0.04560 0.84820 0.70677 -0.48000
O 	O 	0.08470 0.90450 0.79560 -0.42600
C 	C 	0.05410 0.85610 0.76970 0.37000
C 	C 	0.02640 0.80160 0.81420 -0.11700
C 	C 	0.02780 0.80340 0.88380 0.08700
H 	H 	0.04700 0.83950 0.90680 -0.00400
O 	O 	0.95440 0.65180 0.70677 -0.44300
O 	O 	0.91530 0.59550 0.79560 -0.45100
C 	C 	0.94590 0.64390 0.76970 0.37800
C 	C 	0.97360 0.69840 0.81420 -0.04800
C 	C 	0.97220 0.69660 0.88380 0.17300
H 	H 	0.95300 0.66050 0.90680 -0.01000
O 	O 	0.45440 0.15180 0.20677 -0.49900
O 	O 	0.41530 0.09550 0.29560 -0.46600
C 	C 	0.44590 0.14390 0.26970 0.36600
C 	C 	0.47360 0.19840 0.31420 -0.08400
C 	C 	0.47220 0.19660 0.38380 -0.01100
H 	H 	0.45300 0.16050 0.40680 0.00400
O 	O 	0.45440 0.84820 0.29323 -0.47800
O 	O 	0.41530 0.90450 0.20440 -0.42300
C 	C 	0.44590 0.85610 0.23030 0.36200
C 	C 	0.47360 0.80160 0.18580 -0.07100
C 	C 	0.47220 0.80340 0.11620 -0.02600
H 	H 	0.45300 0.83950 0.09320 0.01200
O 	O 	0.95440 0.34820 0.79323 -0.44200
O 	O 	0.91530 0.40450 0.70440 -0.45900
C 	C 	0.94590 0.35610 0.73030 0.37800
C 	C 	0.97360 0.30160 0.68580 -0.06000
C 	C 	0.97220 0.30340 0.61620 0.17400
H 	H 	0.95300 0.33950 0.59320 -0.03300
O 	O 	0.04560 0.15180 0.79323 -0.50000
O 	O 	0.08470 0.09550 0.70440 -0.47800
C 	C 	0.05410 0.14390 0.73030 0.37400
C 	C 	0.02640 0.19840 0.68580 -0.13900
C 	C 	0.02780 0.19660 0.61620 0.08900
H 	H 	0.04700 0.16050 0.59320 -0.04100
O 	O 	0.54560 0.65180 0.29323 -0.49900
O 	O 	0.58470 0.59550 0.20440 -0.47300
C 	C 	0.55410 0.64390 0.23030 0.37000
C 	C 	0.52640 0.69840 0.18580 -0.08100
C 	C 	0.52780 0.69660 0.11620 -0.02400
H 	H 	0.54700 0.66050 0.09320 0.00100
O 	O 	0.20677 0.54560 0.34820 -0.49800
O 	O 	0.29560 0.58470 0.40450 -0.47100
C 	C 	0.26970 0.55410 0.35610 0.37100
C 	C 	0.31420 0.52640 0.30160 -0.08300
C 	C 	0.38380 0.52780 0.30340 -0.01000
H 	H 	0.40680 0.54700 0.33950 0.00900
O 	O 	0.70677 0.04560 0.84820 -0.48000
O 	O 	0.79560 0.08470 0.90450 -0.42600
C 	C 	0.76970 0.05410 0.85610 0.37000
C 	C 	0.81420 0.02640 0.80160 -0.11700
C 	C 	0.88380 0.02780 0.80340 0.08700
H 	H 	0.90680 0.04700 0.83950 -0.00400
O 	O 	0.70677 0.95440 0.65180 -0.44300
O 	O 	0.79560 0.91530 0.59550 -0.45100
C 	C 	0.76970 0.94590 0.64390 0.37800
C 	C 	0.81420 0.97360 0.69840 -0.04800
C 	C 	0.88380 0.97220 0.69660 0.17300
H 	H 	0.90680 0.95300 0.66050 -0.01000
O 	O 	0.20677 0.45440 0.15180 -0.49900
O 	O 	0.29560 0.41530 0.09550 -0.46600
C 	C 	0.26970 0.44590 0.14390 0.36600
C 	C 	0.31420 0.47360 0.19840 -0.08400
C 	C 	0.38380 0.47220 0.19660 -0.01100
H 	H 	0.40680 0.45300 0.16050 0.00400
O 	O 	0.29323 0.45440 0.84820 -0.47800
O 	O 	0.20440 0.41530 0.90450 -0.42300
C 	C 	0.23030 0.44590 0.85610 0.36200
C 	C 	0.18580 0.47360 0.80160 -0.07100
C 	C 	0.11620 0.47220 0.80340 -0.02600
H 	H 	0.09320 0.45300 0.83950 0.01200
O 	O 	0.79323 0.95440 0.34820 -0.44200
O 	O 	0.70440 0.91530 0.40450 -0.45900
C 	C 	0.73030 0.94590 0.35610 0.37800
C 	C 	0.68580 0.97360 0.30160 -0.06000
C 	C 	0.61620 0.97220 0.30340 0.17400
H 	H 	0.59320 0.95300 0.33950 -0.03300
O 	O 	0.79323 0.04560 0.15180 -0.50000
O 	O 	0.70440 0.08470 0.09550 -0.47800
C 	C 	0.73030 0.05410 0.14390 0.37400
C 	C 	0.68580 0.02640 0.19840 -0.13900
C 	C 	0.61620 0.02780 0.19660 0.08900
H 	H 	0.59320 0.04700 0.16050 -0.04100
O 	O 	0.29323 0.54560 0.65180 -0.49900
O 	O 	0.20440 0.58470 0.59550 -0.47300
C 	C 	0.23030 0.55410 0.64390 0.37000
C 	C 	0.18580 0.52640 0.69840 -0.08100
C 	C 	0.11620 0.52780 0.69660 -0.02400
H 	H 	0.09320 0.54700 0.66050 0.00100
O 	O 	0.34820 0.20677 0.54560 -0.49800
O 	O 	0.40450 0.29560 0.58470 -0.47100
C 	C 	0.35610 0.26970 0.55410 0.37100
C 	C 	0.30160 0.31420 0.52640 -0.08300
C 	C 	0.30340 0.38380 0.52780 -0.01000
H 	H 	0.33950 0.40680 0.54700 0.00900
O 	O 	0.84820 0.70677 0.04560 -0.48000
O 	O 	0.90450 0.79560 0.08470 -0.42600
C 	C 	0.85610 0.76970 0.05410 0.37000
C 	C 	0.80160 0.81420 0.02640 -0.11700
C 	C 	0.80340 0.88380 0.02780 0.08700
H 	H 	0.83950 0.90680 0.04700 -0.00400
O 	O 	0.65180 0.70677 0.95440 -0.44300
O 	O 	0.59550 0.79560 0.91530 -0.45100
C 	C 	0.64390 0.76970 0.94590 0.37800
C 	C 	0.69840 0.81420 0.97360 -0.04800
C 	C 	0.69660 0.88380 0.97220 0.17300
H 	H 	0.66050 0.90680 0.95300 -0.01000
O 	O 	0.15180 0.20677 0.45440 -0.49900
O 	O 	0.09550 0.29560 0.41530 -0.46600
C 	C 	0.14390 0.26970 0.44590 0.36600
C 	C 	0.19840 0.31420 0.47360 -0.08400
C 	C 	0.19660 0.38380 0.47220 -0.01100
H 	H 	0.16050 0.40680 0.45300 0.00400
O 	O 	0.84820 0.29323 0.45440 -0.47800
O 	O 	0.90450 0.20440 0.41530 -0.42300
C 	C 	0.85610 0.23030 0.44590 0.36200
C 	C 	0.80160 0.18580 0.47360 -0.07100
C 	C 	0.80340 0.11620 0.47220 -0.02600
H 	H 	0.83950 0.09320 0.45300 0.01200
O 	O 	0.34820 0.79323 0.95440 -0.44200
O 	O 	0.40450 0.70440 0.91530 -0.45900
C 	C 	0.35610 0.73030 0.94590 0.37800
C 	C 	0.30160 0.68580 0.97360 -0.06000
C 	C 	0.30340 0.61620 0.97220 0.17400
H 	H 	0.33950 0.59320 0.95300 -0.03300
O 	O 	0.15180 0.79323 0.04560 -0.50000
O 	O 	0.09550 0.70440 0.08470 -0.47800
C 	C 	0.14390 0.73030 0.05410 0.37400
C 	C 	0.19840 0.68580 0.02640 -0.13900
C 	C 	0.19660 0.61620 0.02780 0.08900
H 	H 	0.16050 0.59320 0.04700 -0.04100
O 	O 	0.65180 0.29323 0.54560 -0.49900
O 	O 	0.59550 0.20440 0.58470 -0.47300
C 	C 	0.64390 0.23030 0.55410 0.37000
C 	C 	0.69840 0.18580 0.52640 -0.08100
C 	C 	0.69660 0.11620 0.52780 -0.02400
H 	H 	0.66050 0.09320 0.54700 0.00100
Sm	Sm	0.50000 0.75000 0.84796 1.65800
N 	N 	0.50000 0.75000 0.72100 -0.19800
C 	C 	0.50000 0.75000 0.58240 -0.06400
H 	H 	0.50000 0.75000 0.53550 0.02000
Sm	Sm	0.00000 0.25000 0.34796 1.44500
N 	N 	-0.00000 0.25000 0.22100 -0.22000
C 	C 	-0.00000 0.25000 0.08240 -0.28600
H 	H 	-0.00000 0.25000 0.03550 0.04100
Sm	Sm	0.50000 0.25000 0.65204 1.61400
N 	N 	0.50000 0.25000 0.77900 -0.19500
C 	C 	0.50000 0.25000 0.91760 -0.06200
H 	H 	0.50000 0.25000 0.96450 0.05000
Sm	Sm	-0.00000 0.75000 0.15204 1.43900
N 	N 	0.00000 0.75000 0.27900 -0.21900
C 	C 	0.00000 0.75000 0.41760 -0.27900
H 	H 	0.00000 0.75000 0.46450 0.07100
Sm	Sm	0.84796 0.50000 0.75000 1.65800
N 	N 	0.72100 0.50000 0.75000 -0.19800
C 	C 	0.58240 0.50000 0.75000 -0.06400
H 	H 	0.53550 0.50000 0.75000 0.02000
Sm	Sm	0.34796 0.00000 0.25000 1.44500
N 	N 	0.22100 0.00000 0.25000 -0.22000
C 	C 	0.08240 0.00000 0.25000 -0.28600
H 	H 	0.03550 0.00000 0.25000 0.04100
Sm	Sm	0.65204 0.50000 0.25000 1.61400
N 	N 	0.77900 0.50000 0.25000 -0.19500
C 	C 	0.91760 0.50000 0.25000 -0.06200
H 	H 	0.96450 0.50000 0.25000 0.05000
Sm	Sm	0.15204 0.00000 0.75000 1.43900
N 	N 	0.27900 0.00000 0.75000 -0.21900
C 	C 	0.41760 0.00000 0.75000 -0.27900
H 	H 	0.46450 0.00000 0.75000 0.07100
Sm	Sm	0.75000 0.84796 0.50000 1.65800
N 	N 	0.75000 0.72100 0.50000 -0.19800
C 	C 	0.75000 0.58240 0.50000 -0.06400
H 	H 	0.75000 0.53550 0.50000 0.02000
Sm	Sm	0.25000 0.34796 -0.00000 1.44500
N 	N 	0.25000 0.22100 -0.00000 -0.22000
C 	C 	0.25000 0.08240 -0.00000 -0.28600
H 	H 	0.25000 0.03550 -0.00000 0.04100
Sm	Sm	0.25000 0.65204 0.50000 1.61400
N 	N 	0.25000 0.77900 0.50000 -0.19500
C 	C 	0.25000 0.91760 0.50000 -0.06200
H 	H 	0.25000 0.96450 0.50000 0.05000
Sm	Sm	0.75000 0.15204 -0.00000 1.43900
N 	N 	0.75000 0.27900 -0.00000 -0.21900
C 	C 	0.75000 0.41760 -0.00000 -0.27900
H 	H 	0.75000 0.46450 -0.00000 0.07100
Sm	Sm	0.50000 0.25000 0.15204 1.58500
N 	N 	0.50000 0.25000 0.27900 -0.19300
C 	C 	0.50000 0.25000 0.41760 -0.07400
H 	H 	0.50000 0.25000 0.46450 0.02000
Sm	Sm	0.00000 0.75000 0.65204 1.46500
N 	N 	0.00000 0.75000 0.77900 -0.22100
C 	C 	-0.00000 0.75000 0.91760 -0.26500
H 	H 	0.00000 0.75000 0.96450 0.10100
Sm	Sm	0.50000 0.75000 0.34796 1.62400
N 	N 	0.50000 0.75000 0.22100 -0.19800
C 	C 	0.50000 0.75000 0.08240 -0.06400
H 	H 	0.50000 0.75000 0.03550 -0.01100
Sm	Sm	-0.00000 0.25000 0.84796 1.47900
N 	N 	-0.00000 0.25000 0.72100 -0.22000
C 	C 	0.00000 0.25000 0.58240 -0.28900
H 	H 	-0.00000 0.25000 0.53550 0.07200
Sm	Sm	0.15204 0.50000 0.25000 1.58500
N 	N 	0.27900 0.50000 0.25000 -0.19300
C 	C 	0.41760 0.50000 0.25000 -0.07400
H 	H 	0.46450 0.50000 0.25000 0.02000
Sm	Sm	0.65204 0.00000 0.75000 1.46500
N 	N 	0.77900 0.00000 0.75000 -0.22100
C 	C 	0.91760 0.00000 0.75000 -0.26500
H 	H 	0.96450 0.00000 0.75000 0.10100
Sm	Sm	0.34796 0.50000 0.75000 1.62400
N 	N 	0.22100 0.50000 0.75000 -0.19800
C 	C 	0.08240 0.50000 0.75000 -0.06400
H 	H 	0.03550 0.50000 0.75000 -0.01100
Sm	Sm	0.84796 0.00000 0.25000 1.47900
N 	N 	0.72100 0.00000 0.25000 -0.22000
C 	C 	0.58240 0.00000 0.25000 -0.28900
H 	H 	0.53550 0.00000 0.25000 0.07200
Sm	Sm	0.25000 0.15204 0.50000 1.58500
N 	N 	0.25000 0.27900 0.50000 -0.19300
C 	C 	0.25000 0.41760 0.50000 -0.07400
H 	H 	0.25000 0.46450 0.50000 0.02000
Sm	Sm	0.75000 0.65204 -0.00000 1.46500
N 	N 	0.75000 0.77900 -0.00000 -0.22100
C 	C 	0.75000 0.91760 -0.00000 -0.26500
H 	H 	0.75000 0.96450 -0.00000 0.10100
Sm	Sm	0.75000 0.34796 0.50000 1.62400
N 	N 	0.75000 0.22100 0.50000 -0.19800
C 	C 	0.75000 0.08240 0.50000 -0.06400
H 	H 	0.75000 0.03550 0.50000 -0.01100
Sm	Sm	0.25000 0.84796 -0.00000 1.47900
N 	N 	0.25000 0.72100 -0.00000 -0.22000
C 	C 	0.25000 0.58240 -0.00000 -0.28900
H 	H 	0.25000 0.53550 -0.00000 0.07200
