data_crystal

_cell_length_a 8.19700
_cell_length_b 8.71360
_cell_length_c 12.13560
_cell_angle_alpha 74.69230
_cell_angle_beta  70.26160
_cell_angle_gamma 61.94240

_symmetry_space_group_name_	'P 1'
_symmetry_space_group_name_H-M	'P 1'

loop_
_symmetry_equiv_pos_as_xyz
  x,y,z

loop_
_atom_site_label
_atom_site_type_symbol
_atom_site_fract_x
_atom_site_fract_y
_atom_site_fract_z
_atom_site_charge
Mn	Mn	0.07756 0.75000 0.25000 1.26500
Mn	Mn	0.92244 0.25000 0.75000 1.27800
H 	H 	0.49400 0.83100 0.61700 0.15400
H 	H 	0.37000 0.02500 0.60500 0.15600
H 	H 	0.94200 0.66900 0.88300 0.15700
H 	H 	0.00000 0.47500 0.89500 0.14400
H 	H 	0.50600 0.16900 0.38300 0.15400
H 	H 	0.63000 0.97500 0.39500 0.15800
H 	H 	0.05800 0.33100 0.11700 0.14900
H 	H 	0.00000 0.52500 0.10500 0.14700
C 	C 	0.30956 0.91838 0.75790 0.32800
C 	C 	0.36340 0.75540 0.83340 -0.25100
C 	C 	0.26789 0.75142 0.95340 0.17200
C 	C 	0.51331 0.59998 0.79140 0.15600
C 	C 	0.98584 0.58162 0.74210 0.35600
C 	C 	0.95220 0.74460 0.66660 -0.25600
C 	C 	0.97271 0.74858 0.54660 0.18400
C 	C 	0.90469 0.90002 0.70860 0.16700
C 	C 	0.69044 0.08162 0.24210 0.33000
C 	C 	0.63660 0.24460 0.16660 -0.24700
C 	C 	0.73211 0.24858 0.04660 0.17700
C 	C 	0.48669 0.40002 0.20860 0.15800
C 	C 	0.01416 0.41838 0.25790 0.30600
C 	C 	0.04780 0.25540 0.33340 -0.24200
C 	C 	0.02729 0.25142 0.45340 0.16300
C 	C 	0.09531 0.09998 0.29140 0.15100
N 	N 	0.39710 0.92420 0.64500 -0.37600
N 	N 	0.19149 0.74682 0.05180 -0.27700
N 	N 	0.63571 0.47331 0.75607 -0.27900
N 	N 	0.96630 0.57580 0.85500 -0.36600
N 	N 	0.99011 0.75318 0.44820 -0.26700
N 	N 	0.86509 0.02669 0.74393 -0.28100
N 	N 	0.60290 0.07580 0.35500 -0.37500
N 	N 	0.80851 0.25318 0.94820 -0.27000
N 	N 	0.36429 0.52669 0.24393 -0.28200
N 	N 	0.03370 0.42420 0.14500 -0.36600
N 	N 	0.00989 0.24682 0.55180 -0.27600
N 	N 	0.13491 0.97331 0.25607 -0.28500
O 	O 	0.17969 0.05703 0.80019 -0.43400
O 	O 	0.03691 0.44297 0.69981 -0.45300
O 	O 	0.82031 0.94297 0.19981 -0.42000
O 	O 	0.96309 0.55703 0.30019 -0.40700
