data_crystal

_cell_length_a 9.59300
_cell_length_b 13.79500
_cell_length_c 16.87500
_cell_angle_alpha 90.00000
_cell_angle_beta  90.00000
_cell_angle_gamma 90.00000

_symmetry_space_group_name_	'P 1'
_symmetry_space_group_name_H-M	'P 1'

loop_
_symmetry_equiv_pos_as_xyz
  x,y,z

loop_
_atom_site_label
_atom_site_type_symbol
_atom_site_fract_x
_atom_site_fract_y
_atom_site_fract_z
_atom_site_charge
C 	C 	0.07900 0.59800 0.46520 0.03100
O 	O 	0.62000 0.90600 0.07830 -0.39500
O 	O 	0.38940 0.60240 0.41600 -0.46600
Br	Br	0.28100 0.80970 0.39150 -0.09300
Br	Br	0.27700 0.69250 0.10960 -0.18400
C 	C 	0.39400 0.67900 0.26000 0.03200
C 	C 	0.40600 0.73700 0.19200 0.11900
C 	C 	0.40100 0.76100 0.30600 0.11000
C 	C 	0.58300 0.83000 0.23200 0.09800
C 	C 	0.92100 0.40200 0.46520 0.02700
O 	O 	0.38000 0.09400 0.07830 -0.48600
O 	O 	0.61060 0.39760 0.41600 -0.46800
Br	Br	0.71900 0.19030 0.39150 -0.18400
Br	Br	0.72300 0.30750 0.10960 -0.20700
C 	C 	0.60600 0.32100 0.26000 0.03300
C 	C 	0.59400 0.26300 0.19200 0.11300
C 	C 	0.59900 0.23900 0.30600 0.12200
C 	C 	0.41700 0.17000 0.23200 0.02300
C 	C 	0.92100 0.59800 0.53480 0.03100
O 	O 	0.38000 0.90600 0.92170 -0.31800
O 	O 	0.61060 0.60240 0.58400 -0.46800
Br	Br	0.71900 0.80970 0.60850 -0.09100
Br	Br	0.72300 0.69250 0.89040 -0.06100
C 	C 	0.60600 0.67900 0.74000 0.04200
C 	C 	0.59400 0.73700 0.80800 0.10700
C 	C 	0.59900 0.76100 0.69400 0.11200
C 	C 	0.41700 0.83000 0.76800 0.09200
C 	C 	0.07900 0.40200 0.53480 0.02900
O 	O 	0.62000 0.09400 0.92170 -0.39700
O 	O 	0.38940 0.39760 0.58400 -0.46900
Br	Br	0.28100 0.19030 0.60850 -0.17900
Br	Br	0.27700 0.30750 0.89040 -0.07700
C 	C 	0.39400 0.32100 0.74000 0.04400
C 	C 	0.40600 0.26300 0.80800 0.10100
C 	C 	0.40100 0.23900 0.69400 0.12400
C 	C 	0.58300 0.17000 0.76800 0.02000
C 	C 	0.92100 0.40200 0.53480 0.02900
O 	O 	0.38000 0.09400 0.92170 -0.39700
O 	O 	0.61060 0.39760 0.58400 -0.46900
Br	Br	0.71900 0.19030 0.60850 -0.17900
Br	Br	0.72300 0.30750 0.89040 -0.07700
C 	C 	0.60600 0.32100 0.74000 0.04400
C 	C 	0.59400 0.26300 0.80800 0.10100
C 	C 	0.59900 0.23900 0.69400 0.12400
C 	C 	0.41700 0.17000 0.76800 0.02000
C 	C 	0.07900 0.59800 0.53480 0.03100
O 	O 	0.62000 0.90600 0.92170 -0.31800
O 	O 	0.38940 0.60240 0.58400 -0.46800
Br	Br	0.28100 0.80970 0.60850 -0.09100
Br	Br	0.27700 0.69250 0.89040 -0.06100
C 	C 	0.39400 0.67900 0.74000 0.04200
C 	C 	0.40600 0.73700 0.80800 0.10700
C 	C 	0.40100 0.76100 0.69400 0.11200
C 	C 	0.58300 0.83000 0.76800 0.09200
C 	C 	0.07900 0.40200 0.46520 0.02700
O 	O 	0.62000 0.09400 0.07830 -0.48600
O 	O 	0.38940 0.39760 0.41600 -0.46800
Br	Br	0.28100 0.19030 0.39150 -0.18400
Br	Br	0.27700 0.30750 0.10960 -0.20700
C 	C 	0.39400 0.32100 0.26000 0.03300
C 	C 	0.40600 0.26300 0.19200 0.11300
C 	C 	0.40100 0.23900 0.30600 0.12200
C 	C 	0.58300 0.17000 0.23200 0.02300
C 	C 	0.92100 0.59800 0.46520 0.03000
O 	O 	0.38000 0.90600 0.07830 -0.39600
O 	O 	0.61060 0.60240 0.41600 -0.46700
Br	Br	0.71900 0.80970 0.39150 -0.09400
Br	Br	0.72300 0.69250 0.10960 -0.18500
C 	C 	0.60600 0.67900 0.26000 0.03200
C 	C 	0.59400 0.73700 0.19200 0.11900
C 	C 	0.59900 0.76100 0.30600 0.11000
C 	C 	0.41700 0.83000 0.23200 0.09800
C 	C 	0.50000 0.87300 0.11400 0.37600
C 	C 	0.50000 0.80700 0.18280 -0.25000
C 	C 	0.50000 0.63000 0.38680 0.53600
C 	C 	0.50000 0.69000 0.32280 -0.22500
C 	C 	0.50000 0.12700 0.11400 0.34300
C 	C 	0.50000 0.19300 0.18280 -0.18700
C 	C 	0.50000 0.37000 0.38680 0.54100
C 	C 	0.50000 0.31000 0.32280 -0.23600
C 	C 	0.50000 0.87300 0.88600 0.36700
C 	C 	0.50000 0.80700 0.81720 -0.22100
C 	C 	0.50000 0.63000 0.61320 0.54000
C 	C 	0.50000 0.69000 0.67720 -0.23200
C 	C 	0.50000 0.12700 0.88600 0.33500
C 	C 	0.50000 0.19300 0.81720 -0.16000
C 	C 	0.50000 0.37000 0.61320 0.54500
C 	C 	0.50000 0.31000 0.67720 -0.24300
C 	C 	0.06200 0.50000 0.42200 0.03000
C 	C 	0.93800 0.50000 0.42200 0.03000
C 	C 	0.93800 0.50000 0.57800 0.03200
C 	C 	0.06200 0.50000 0.57800 0.03200
Zn	Zn	0.64790 0.00000 -0.00000 1.15400
Zn	Zn	0.35210 0.00000 -0.00000 1.15400
N 	N 	0.13500 0.50000 0.50000 -0.22100
Zn	Zn	0.34860 0.50000 0.50000 1.22600
N 	N 	0.86500 0.50000 0.50000 -0.22100
Zn	Zn	0.65140 0.50000 0.50000 1.22600
