data_crystal

_cell_length_a 21.94400
_cell_length_b 21.94400
_cell_length_c 9.58000
_cell_angle_alpha 90.00000
_cell_angle_beta  90.00000
_cell_angle_gamma 90.00000

_symmetry_space_group_name_	'P 1'
_symmetry_space_group_name_H-M	'P 1'

loop_
_symmetry_equiv_pos_as_xyz
  x,y,z

loop_
_atom_site_label
_atom_site_type_symbol
_atom_site_fract_x
_atom_site_fract_y
_atom_site_fract_z
_atom_site_charge
O 	O 	0.84970 0.74670 0.38750 -0.44200
O 	O 	0.17000 0.75640 0.61800 -0.41300
C 	C 	0.03720 0.71360 0.60200 0.02600
C 	C 	0.03290 0.79490 0.41200 0.11300
C 	C 	0.98270 0.71390 0.60600 0.05000
C 	C 	0.97610 0.78970 0.42700 0.13100
Cl	Cl	0.07200 0.84300 0.27800 -0.16100
C 	C 	0.78700 0.79700 0.09300 0.06400
C 	C 	0.73300 0.81900 0.07500 0.01100
C 	C 	0.77610 0.67280 0.10100 0.02600
Cl	Cl	0.94700 0.84200 0.32000 -0.18300
O 	O 	0.15030 0.25330 0.38750 -0.44200
O 	O 	0.83000 0.24360 0.61800 -0.41300
C 	C 	0.96280 0.28640 0.60200 0.02600
C 	C 	0.96710 0.20510 0.41200 0.11300
C 	C 	0.01730 0.28610 0.60600 0.05000
C 	C 	0.02390 0.21030 0.42700 0.13200
Cl	Cl	0.92800 0.15700 0.27800 -0.16000
C 	C 	0.21300 0.20300 0.09300 0.06500
C 	C 	0.26700 0.18100 0.07500 0.01200
C 	C 	0.22390 0.32720 0.10100 0.02700
Cl	Cl	0.05300 0.15800 0.32000 -0.18200
O 	O 	0.25330 0.84970 0.38750 -0.44100
O 	O 	0.24360 0.17000 0.61800 -0.41200
C 	C 	0.28640 0.03720 0.60200 0.02700
C 	C 	0.20510 0.03290 0.41200 0.11400
C 	C 	0.28610 0.98270 0.60600 0.05100
C 	C 	0.21030 0.97610 0.42700 0.13200
Cl	Cl	0.15700 0.07200 0.27800 -0.16000
C 	C 	0.20300 0.78700 0.09300 0.06500
C 	C 	0.18100 0.73300 0.07500 0.01200
C 	C 	0.32720 0.77610 0.10100 0.02700
Cl	Cl	0.15800 0.94700 0.32000 -0.18200
O 	O 	0.74670 0.15030 0.38750 -0.44100
O 	O 	0.75640 0.83000 0.61800 -0.41200
C 	C 	0.71360 0.96280 0.60200 0.02700
C 	C 	0.79490 0.96710 0.41200 0.11400
C 	C 	0.71390 0.01730 0.60600 0.05100
C 	C 	0.78970 0.02390 0.42700 0.13200
Cl	Cl	0.84300 0.92800 0.27800 -0.16000
C 	C 	0.79700 0.21300 0.09300 0.06500
C 	C 	0.81900 0.26700 0.07500 0.01200
C 	C 	0.67280 0.22390 0.10100 0.02700
Cl	Cl	0.84200 0.05300 0.32000 -0.18200
O 	O 	0.65030 0.24670 0.61250 -0.44100
O 	O 	0.33000 0.25640 0.38200 -0.41200
C 	C 	0.46280 0.21360 0.39800 0.02700
C 	C 	0.46710 0.29490 0.58800 0.11400
C 	C 	0.51730 0.21390 0.39400 0.05100
C 	C 	0.52390 0.28970 0.57300 0.13200
Cl	Cl	0.42800 0.34300 0.72200 -0.16000
C 	C 	0.71300 0.29700 0.90700 0.06500
C 	C 	0.76700 0.31900 0.92500 0.01200
C 	C 	0.72390 0.17280 0.89900 0.02700
Cl	Cl	0.55300 0.34200 0.68000 -0.18200
O 	O 	0.34970 0.75330 0.61250 -0.44100
O 	O 	0.67000 0.74360 0.38200 -0.41200
C 	C 	0.53720 0.78640 0.39800 0.02700
C 	C 	0.53290 0.70510 0.58800 0.11400
C 	C 	0.48270 0.78610 0.39400 0.05100
C 	C 	0.47610 0.71030 0.57300 0.13200
Cl	Cl	0.57200 0.65700 0.72200 -0.16000
C 	C 	0.28700 0.70300 0.90700 0.06500
C 	C 	0.23300 0.68100 0.92500 0.01200
C 	C 	0.27610 0.82720 0.89900 0.02700
Cl	Cl	0.44700 0.65800 0.68000 -0.18200
O 	O 	0.24670 0.34970 0.61250 -0.44100
O 	O 	0.25640 0.67000 0.38200 -0.41200
C 	C 	0.21360 0.53720 0.39800 0.02700
C 	C 	0.29490 0.53290 0.58800 0.11400
C 	C 	0.21390 0.48270 0.39400 0.05100
C 	C 	0.28970 0.47610 0.57300 0.13200
Cl	Cl	0.34300 0.57200 0.72200 -0.16000
C 	C 	0.29700 0.28700 0.90700 0.06500
C 	C 	0.31900 0.23300 0.92500 0.01200
C 	C 	0.17280 0.27610 0.89900 0.02700
Cl	Cl	0.34200 0.44700 0.68000 -0.18200
O 	O 	0.75330 0.65030 0.61250 -0.44100
O 	O 	0.74360 0.33000 0.38200 -0.41200
C 	C 	0.78640 0.46280 0.39800 0.02700
C 	C 	0.70510 0.46710 0.58800 0.11400
C 	C 	0.78610 0.51730 0.39400 0.05100
C 	C 	0.71030 0.52390 0.57300 0.13200
Cl	Cl	0.65700 0.42800 0.72200 -0.16000
C 	C 	0.70300 0.71300 0.90700 0.06500
C 	C 	0.68100 0.76700 0.92500 0.01200
C 	C 	0.82720 0.72390 0.89900 0.02700
Cl	Cl	0.65800 0.55300 0.68000 -0.18200
O 	O 	0.15030 0.25330 0.61250 -0.44100
O 	O 	0.83000 0.24360 0.38200 -0.41200
C 	C 	0.96280 0.28640 0.39800 0.02700
C 	C 	0.96710 0.20510 0.58800 0.11400
C 	C 	0.01730 0.28610 0.39400 0.05100
C 	C 	0.02390 0.21030 0.57300 0.13200
Cl	Cl	0.92800 0.15700 0.72200 -0.16000
C 	C 	0.21300 0.20300 0.90700 0.06500
C 	C 	0.26700 0.18100 0.92500 0.01200
C 	C 	0.22390 0.32720 0.89900 0.02700
Cl	Cl	0.05300 0.15800 0.68000 -0.18200
O 	O 	0.84970 0.74670 0.61250 -0.44100
O 	O 	0.17000 0.75640 0.38200 -0.41200
C 	C 	0.03720 0.71360 0.39800 0.02700
C 	C 	0.03290 0.79490 0.58800 0.11400
C 	C 	0.98270 0.71390 0.39400 0.05100
C 	C 	0.97610 0.78970 0.57300 0.13200
Cl	Cl	0.07200 0.84300 0.72200 -0.16000
C 	C 	0.78700 0.79700 0.90700 0.06500
C 	C 	0.73300 0.81900 0.92500 0.01200
C 	C 	0.77610 0.67280 0.89900 0.02700
Cl	Cl	0.94700 0.84200 0.68000 -0.18200
O 	O 	0.74670 0.15030 0.61250 -0.44100
O 	O 	0.75640 0.83000 0.38200 -0.41200
C 	C 	0.71360 0.96280 0.39800 0.02700
C 	C 	0.79490 0.96710 0.58800 0.11400
C 	C 	0.71390 0.01730 0.39400 0.05100
C 	C 	0.78970 0.02390 0.57300 0.13200
Cl	Cl	0.84300 0.92800 0.72200 -0.16000
C 	C 	0.79700 0.21300 0.90700 0.06500
C 	C 	0.81900 0.26700 0.92500 0.01200
C 	C 	0.67280 0.22390 0.89900 0.02700
Cl	Cl	0.84200 0.05300 0.68000 -0.18200
O 	O 	0.25330 0.84970 0.61250 -0.44100
O 	O 	0.24360 0.17000 0.38200 -0.41200
C 	C 	0.28640 0.03720 0.39800 0.02700
C 	C 	0.20510 0.03290 0.58800 0.11400
C 	C 	0.28610 0.98270 0.39400 0.05100
C 	C 	0.21030 0.97610 0.57300 0.13200
Cl	Cl	0.15700 0.07200 0.72200 -0.16000
C 	C 	0.20300 0.78700 0.90700 0.06500
C 	C 	0.18100 0.73300 0.92500 0.01200
C 	C 	0.32720 0.77610 0.89900 0.02700
Cl	Cl	0.15800 0.94700 0.68000 -0.18200
O 	O 	0.34970 0.75330 0.38750 -0.44100
O 	O 	0.67000 0.74360 0.61800 -0.41200
C 	C 	0.53720 0.78640 0.60200 0.02700
C 	C 	0.53290 0.70510 0.41200 0.11400
C 	C 	0.48270 0.78610 0.60600 0.05100
C 	C 	0.47610 0.71030 0.42700 0.13200
Cl	Cl	0.57200 0.65700 0.27800 -0.16000
C 	C 	0.28700 0.70300 0.09300 0.06500
C 	C 	0.23300 0.68100 0.07500 0.01200
C 	C 	0.27610 0.82720 0.10100 0.02700
Cl	Cl	0.44700 0.65800 0.32000 -0.18200
O 	O 	0.65030 0.24670 0.38750 -0.44100
O 	O 	0.33000 0.25640 0.61800 -0.41200
C 	C 	0.46280 0.21360 0.60200 0.02700
C 	C 	0.46710 0.29490 0.41200 0.11400
C 	C 	0.51730 0.21390 0.60600 0.05100
C 	C 	0.52390 0.28970 0.42700 0.13200
Cl	Cl	0.42800 0.34300 0.27800 -0.16000
C 	C 	0.71300 0.29700 0.09300 0.06500
C 	C 	0.76700 0.31900 0.07500 0.01200
C 	C 	0.72390 0.17280 0.10100 0.02700
Cl	Cl	0.55300 0.34200 0.32000 -0.18200
O 	O 	0.75330 0.65030 0.38750 -0.44100
O 	O 	0.74360 0.33000 0.61800 -0.41200
C 	C 	0.78640 0.46280 0.60200 0.02700
C 	C 	0.70510 0.46710 0.41200 0.11400
C 	C 	0.78610 0.51730 0.60600 0.05100
C 	C 	0.71030 0.52390 0.42700 0.13200
Cl	Cl	0.65700 0.42800 0.27800 -0.16000
C 	C 	0.70300 0.71300 0.09300 0.06500
C 	C 	0.68100 0.76700 0.07500 0.01200
C 	C 	0.82720 0.72390 0.10100 0.02700
Cl	Cl	0.65800 0.55300 0.32000 -0.18200
O 	O 	0.24670 0.34970 0.38750 -0.44100
O 	O 	0.25640 0.67000 0.61800 -0.41200
C 	C 	0.21360 0.53720 0.60200 0.02700
C 	C 	0.29490 0.53290 0.41200 0.11400
C 	C 	0.21390 0.48270 0.60600 0.05100
C 	C 	0.28970 0.47610 0.42700 0.13200
Cl	Cl	0.34300 0.57200 0.27800 -0.16000
C 	C 	0.29700 0.28700 0.09300 0.06500
C 	C 	0.31900 0.23300 0.07500 0.01200
C 	C 	0.17280 0.27610 0.10100 0.02700
Cl	Cl	0.34200 0.44700 0.32000 -0.18200
Zn	Zn	0.75739 0.74261 0.34900 1.22500
N 	N 	0.75760 0.74240 0.13000 -0.21900
Zn	Zn	0.24261 0.25739 0.34900 1.22500
N 	N 	0.24240 0.25760 0.13000 -0.21900
Zn	Zn	0.25739 0.75739 0.34900 1.22500
N 	N 	0.25760 0.75760 0.13000 -0.21900
Zn	Zn	0.74261 0.24261 0.34900 1.22500
N 	N 	0.74240 0.24240 0.13000 -0.21900
Zn	Zn	0.74261 0.24261 0.65100 1.22500
N 	N 	0.74240 0.24240 0.87000 -0.21900
Zn	Zn	0.25739 0.75739 0.65100 1.22500
N 	N 	0.25760 0.75760 0.87000 -0.21900
Zn	Zn	0.24261 0.25739 0.65100 1.22500
N 	N 	0.24240 0.25760 0.87000 -0.21900
Zn	Zn	0.75739 0.74261 0.65100 1.22500
N 	N 	0.75760 0.74240 0.87000 -0.21900
C 	C 	0.13670 0.75950 0.50000 0.39000
C 	C 	0.87830 0.75530 0.50000 0.50700
C 	C 	0.93970 0.75050 0.50000 -0.22100
C 	C 	0.07480 0.75770 0.50000 -0.14600
C 	C 	0.86330 0.24050 0.50000 0.39000
C 	C 	0.12170 0.24470 0.50000 0.50700
C 	C 	0.06030 0.24950 0.50000 -0.22100
C 	C 	0.92520 0.24230 0.50000 -0.14600
C 	C 	0.24050 0.13670 0.50000 0.39000
C 	C 	0.24470 0.87830 0.50000 0.50700
C 	C 	0.24950 0.93970 0.50000 -0.22100
C 	C 	0.24230 0.07480 0.50000 -0.14600
C 	C 	0.75950 0.86330 0.50000 0.39000
C 	C 	0.75530 0.12170 0.50000 0.50700
C 	C 	0.75050 0.06030 0.50000 -0.22100
C 	C 	0.75770 0.92520 0.50000 -0.14600
C 	C 	0.36330 0.25950 0.50000 0.39000
C 	C 	0.62170 0.25530 0.50000 0.50700
C 	C 	0.56030 0.25050 0.50000 -0.22100
C 	C 	0.42520 0.25770 0.50000 -0.14600
C 	C 	0.63670 0.74050 0.50000 0.39000
C 	C 	0.37830 0.74470 0.50000 0.50700
C 	C 	0.43970 0.74950 0.50000 -0.22100
C 	C 	0.57480 0.74230 0.50000 -0.14600
C 	C 	0.25950 0.63670 0.50000 0.39000
C 	C 	0.25530 0.37830 0.50000 0.50700
C 	C 	0.25050 0.43970 0.50000 -0.22100
C 	C 	0.25770 0.57480 0.50000 -0.14600
C 	C 	0.74050 0.36330 0.50000 0.39000
C 	C 	0.74470 0.62170 0.50000 0.50700
C 	C 	0.74950 0.56030 0.50000 -0.22100
C 	C 	0.74230 0.42520 0.50000 -0.14600
