data_crystal

_cell_length_a 24.99190
_cell_length_b 24.99190
_cell_length_c 24.76880
_cell_angle_alpha 90.00000
_cell_angle_beta  90.00000
_cell_angle_gamma 120.00000

_symmetry_space_group_name_	'P 1'
_symmetry_space_group_name_H-M	'P 1'

loop_
_symmetry_equiv_pos_as_xyz
  x,y,z

loop_
_atom_site_label
_atom_site_type_symbol
_atom_site_fract_x
_atom_site_fract_y
_atom_site_fract_z
_atom_site_charge
Zr	Zr	0.38893 0.46909 0.47478 3.19500
O 	O 	0.43040 0.44380 0.54200 -1.23600
O 	O 	0.33160 0.46350 0.53860 -0.83900
O 	O 	0.39330 0.50440 0.60820 -0.68600
C 	C 	0.33820 0.48240 0.58890 0.49700
C 	C 	0.29070 0.49430 0.61840 -0.05700
C 	C 	0.29260 0.52350 0.66930 0.01500
O 	O 	0.36910 0.43830 0.39095 -0.80000
O 	O 	0.44740 0.44870 0.35110 -0.69700
C 	C 	0.39300 0.43900 0.34490 0.54300
C 	C 	0.34960 0.41860 0.29660 -0.09400
C 	C 	0.29130 0.41160 0.27910 -0.03400
Zr	Zr	0.53091 0.91984 0.47478 3.19500
O 	O 	0.55620 0.98660 0.54200 -1.23600
O 	O 	0.53650 0.86810 0.53860 -0.83900
O 	O 	0.49560 0.88890 0.60820 -0.68600
C 	C 	0.51760 0.85580 0.58890 0.49600
C 	C 	0.50570 0.79640 0.61840 -0.05800
C 	C 	0.47650 0.76910 0.66930 0.01400
O 	O 	0.56170 0.93080 0.39095 -0.80100
O 	O 	0.55130 0.99870 0.35110 -0.69900
C 	C 	0.56100 0.95400 0.34490 0.54200
C 	C 	0.58140 0.93100 0.29660 -0.09600
C 	C 	0.58840 0.87970 0.27910 -0.03500
Zr	Zr	0.08016 0.61107 0.47478 3.19400
O 	O 	0.01340 0.56960 0.54200 -1.23700
O 	O 	0.13190 0.66840 0.53860 -0.84000
O 	O 	0.11110 0.60670 0.60820 -0.68700
C 	C 	0.14420 0.66180 0.58890 0.49600
C 	C 	0.20360 0.70930 0.61840 -0.05800
C 	C 	0.23090 0.70740 0.66930 0.01400
O 	O 	0.06920 0.63090 0.39095 -0.80200
O 	O 	0.00130 0.55260 0.35110 -0.69900
C 	C 	0.04600 0.60700 0.34490 0.54200
C 	C 	0.06900 0.65040 0.29660 -0.09600
C 	C 	0.12030 0.70870 0.27910 -0.03500
Zr	Zr	0.61107 0.53091 0.97478 3.19400
O 	O 	0.56960 0.55620 0.04200 -1.23700
O 	O 	0.66840 0.53650 0.03860 -0.83900
O 	O 	0.60670 0.49560 0.10820 -0.68700
C 	C 	0.66180 0.51760 0.08890 0.49600
C 	C 	0.70930 0.50570 0.11840 -0.05800
C 	C 	0.70740 0.47650 0.16930 0.01400
O 	O 	0.63090 0.56170 0.89095 -0.80100
O 	O 	0.55260 0.55130 0.85110 -0.69800
C 	C 	0.60700 0.56100 0.84490 0.54200
C 	C 	0.65040 0.58140 0.79660 -0.09500
C 	C 	0.70870 0.58840 0.77910 -0.03500
Zr	Zr	0.46909 0.08016 0.97478 3.19300
O 	O 	0.44380 0.01340 0.04200 -1.23400
O 	O 	0.46350 0.13190 0.03860 -0.83800
O 	O 	0.50440 0.11110 0.10820 -0.68600
C 	C 	0.48240 0.14420 0.08890 0.49600
C 	C 	0.49430 0.20360 0.11840 -0.05700
C 	C 	0.52350 0.23090 0.16930 0.01400
O 	O 	0.43830 0.06920 0.89095 -0.80300
O 	O 	0.44870 0.00130 0.85110 -0.70100
C 	C 	0.43900 0.04600 0.84490 0.54200
C 	C 	0.41860 0.06900 0.79660 -0.09600
C 	C 	0.41160 0.12030 0.77910 -0.03500
Zr	Zr	0.91984 0.38893 0.97478 3.19300
O 	O 	0.98660 0.43040 0.04200 -1.23300
O 	O 	0.86810 0.33160 0.03860 -0.83700
O 	O 	0.88890 0.39330 0.10820 -0.68600
C 	C 	0.85580 0.33820 0.08890 0.49600
C 	C 	0.79640 0.29070 0.11840 -0.05700
C 	C 	0.76910 0.29260 0.16930 0.01500
O 	O 	0.93080 0.36910 0.89095 -0.80400
O 	O 	0.99870 0.44740 0.85110 -0.70100
C 	C 	0.95400 0.39300 0.84490 0.54200
C 	C 	0.93100 0.34960 0.79660 -0.09600
C 	C 	0.87970 0.29130 0.77910 -0.03500
Zr	Zr	0.46909 0.38893 0.52522 3.19400
O 	O 	0.44380 0.43040 0.45800 -1.23700
O 	O 	0.46350 0.33160 0.46140 -0.84000
O 	O 	0.50440 0.39330 0.39180 -0.68700
C 	C 	0.48240 0.33820 0.41110 0.49600
C 	C 	0.49430 0.29070 0.38160 -0.05800
C 	C 	0.52350 0.29260 0.33070 0.01400
O 	O 	0.43830 0.36910 0.60905 -0.80100
O 	O 	0.44870 0.44740 0.64890 -0.69800
C 	C 	0.43900 0.39300 0.65510 0.54200
C 	C 	0.41860 0.34960 0.70340 -0.09500
C 	C 	0.41160 0.29130 0.72090 -0.03500
Zr	Zr	0.91984 0.53091 0.52522 3.19400
O 	O 	0.98660 0.55620 0.45800 -1.23700
O 	O 	0.86810 0.53650 0.46140 -0.84000
O 	O 	0.88890 0.49560 0.39180 -0.68700
C 	C 	0.85580 0.51760 0.41110 0.49600
C 	C 	0.79640 0.50570 0.38160 -0.05800
C 	C 	0.76910 0.47650 0.33070 0.01400
O 	O 	0.93080 0.56170 0.60905 -0.80100
O 	O 	0.99870 0.55130 0.64890 -0.69900
C 	C 	0.95400 0.56100 0.65510 0.54200
C 	C 	0.93100 0.58140 0.70340 -0.09600
C 	C 	0.87970 0.58840 0.72090 -0.03500
Zr	Zr	0.61107 0.08016 0.52522 3.19400
O 	O 	0.56960 0.01340 0.45800 -1.23700
O 	O 	0.66840 0.13190 0.46140 -0.84000
O 	O 	0.60670 0.11110 0.39180 -0.68700
C 	C 	0.66180 0.14420 0.41110 0.49600
C 	C 	0.70930 0.20360 0.38160 -0.05800
C 	C 	0.70740 0.23090 0.33070 0.01400
O 	O 	0.63090 0.06920 0.60905 -0.80200
O 	O 	0.55260 0.00130 0.64890 -0.69900
C 	C 	0.60700 0.04600 0.65510 0.54200
C 	C 	0.65040 0.06900 0.70340 -0.09600
C 	C 	0.70870 0.12030 0.72090 -0.03500
Zr	Zr	0.53091 0.61107 0.02522 3.19400
O 	O 	0.55620 0.56960 0.95800 -1.23700
O 	O 	0.53650 0.66840 0.96140 -0.83900
O 	O 	0.49560 0.60670 0.89180 -0.68700
C 	C 	0.51760 0.66180 0.91110 0.49600
C 	C 	0.50570 0.70930 0.88160 -0.05800
C 	C 	0.47650 0.70740 0.83070 0.01400
O 	O 	0.56170 0.63090 0.10905 -0.80100
O 	O 	0.55130 0.55260 0.14890 -0.69800
C 	C 	0.56100 0.60700 0.15510 0.54200
C 	C 	0.58140 0.65040 0.20340 -0.09500
C 	C 	0.58840 0.70870 0.22090 -0.03500
Zr	Zr	0.08016 0.46909 0.02522 3.19300
O 	O 	0.01340 0.44380 0.95800 -1.23400
O 	O 	0.13190 0.46350 0.96140 -0.83800
O 	O 	0.11110 0.50440 0.89180 -0.68600
C 	C 	0.14420 0.48240 0.91110 0.49600
C 	C 	0.20360 0.49430 0.88160 -0.05700
C 	C 	0.23090 0.52350 0.83070 0.01400
O 	O 	0.06920 0.43830 0.10905 -0.80300
O 	O 	0.00130 0.44870 0.14890 -0.70100
C 	C 	0.04600 0.43900 0.15510 0.54200
C 	C 	0.06900 0.41860 0.20340 -0.09600
C 	C 	0.12030 0.41160 0.22090 -0.03500
Zr	Zr	0.38893 0.91984 0.02522 3.19300
O 	O 	0.43040 0.98660 0.95800 -1.23300
O 	O 	0.33160 0.86810 0.96140 -0.83700
O 	O 	0.39330 0.88890 0.89180 -0.68600
C 	C 	0.33820 0.85580 0.91110 0.49600
C 	C 	0.29070 0.79640 0.88160 -0.05700
C 	C 	0.29260 0.76910 0.83070 0.01500
O 	O 	0.36910 0.93080 0.10905 -0.80400
O 	O 	0.44740 0.99870 0.14890 -0.70100
C 	C 	0.39300 0.95400 0.15510 0.54200
C 	C 	0.34960 0.93100 0.20340 -0.09600
C 	C 	0.29130 0.87970 0.22090 -0.03500
Zr	Zr	0.61107 0.53091 0.52522 3.19400
O 	O 	0.56960 0.55620 0.45800 -1.23700
O 	O 	0.66840 0.53650 0.46140 -0.84000
O 	O 	0.60670 0.49560 0.39180 -0.68700
C 	C 	0.66180 0.51760 0.41110 0.49600
C 	C 	0.70930 0.50570 0.38160 -0.05800
C 	C 	0.70740 0.47650 0.33070 0.01400
O 	O 	0.63090 0.56170 0.60905 -0.80100
O 	O 	0.55260 0.55130 0.64890 -0.69800
C 	C 	0.60700 0.56100 0.65510 0.54200
C 	C 	0.65040 0.58140 0.70340 -0.09500
C 	C 	0.70870 0.58840 0.72090 -0.03500
Zr	Zr	0.46909 0.08016 0.52522 3.19400
O 	O 	0.44380 0.01340 0.45800 -1.23700
O 	O 	0.46350 0.13190 0.46140 -0.84000
O 	O 	0.50440 0.11110 0.39180 -0.68700
C 	C 	0.48240 0.14420 0.41110 0.49600
C 	C 	0.49430 0.20360 0.38160 -0.05800
C 	C 	0.52350 0.23090 0.33070 0.01400
O 	O 	0.43830 0.06920 0.60905 -0.80100
O 	O 	0.44870 0.00130 0.64890 -0.69900
C 	C 	0.43900 0.04600 0.65510 0.54200
C 	C 	0.41860 0.06900 0.70340 -0.09600
C 	C 	0.41160 0.12030 0.72090 -0.03500
Zr	Zr	0.91984 0.38893 0.52522 3.19400
O 	O 	0.98660 0.43040 0.45800 -1.23700
O 	O 	0.86810 0.33160 0.46140 -0.84000
O 	O 	0.88890 0.39330 0.39180 -0.68700
C 	C 	0.85580 0.33820 0.41110 0.49600
C 	C 	0.79640 0.29070 0.38160 -0.05800
C 	C 	0.76910 0.29260 0.33070 0.01400
O 	O 	0.93080 0.36910 0.60905 -0.80200
O 	O 	0.99870 0.44740 0.64890 -0.69900
C 	C 	0.95400 0.39300 0.65510 0.54200
C 	C 	0.93100 0.34960 0.70340 -0.09600
C 	C 	0.87970 0.29130 0.72090 -0.03500
Zr	Zr	0.38893 0.46909 0.02522 3.19400
O 	O 	0.43040 0.44380 0.95800 -1.23700
O 	O 	0.33160 0.46350 0.96140 -0.83900
O 	O 	0.39330 0.50440 0.89180 -0.68700
C 	C 	0.33820 0.48240 0.91110 0.49600
C 	C 	0.29070 0.49430 0.88160 -0.05800
C 	C 	0.29260 0.52350 0.83070 0.01400
O 	O 	0.36910 0.43830 0.10905 -0.80100
O 	O 	0.44740 0.44870 0.14890 -0.69800
C 	C 	0.39300 0.43900 0.15510 0.54200
C 	C 	0.34960 0.41860 0.20340 -0.09500
C 	C 	0.29130 0.41160 0.22090 -0.03500
Zr	Zr	0.53091 0.91984 0.02522 3.19300
O 	O 	0.55620 0.98660 0.95800 -1.23400
O 	O 	0.53650 0.86810 0.96140 -0.83800
O 	O 	0.49560 0.88890 0.89180 -0.68600
C 	C 	0.51760 0.85580 0.91110 0.49600
C 	C 	0.50570 0.79640 0.88160 -0.05700
C 	C 	0.47650 0.76910 0.83070 0.01400
O 	O 	0.56170 0.93080 0.10905 -0.80300
O 	O 	0.55130 0.99870 0.14890 -0.70100
C 	C 	0.56100 0.95400 0.15510 0.54200
C 	C 	0.58140 0.93100 0.20340 -0.09600
C 	C 	0.58840 0.87970 0.22090 -0.03500
Zr	Zr	0.08016 0.61107 0.02522 3.19300
O 	O 	0.01340 0.56960 0.95800 -1.23300
O 	O 	0.13190 0.66840 0.96140 -0.83700
O 	O 	0.11110 0.60670 0.89180 -0.68600
C 	C 	0.14420 0.66180 0.91110 0.49600
C 	C 	0.20360 0.70930 0.88160 -0.05700
C 	C 	0.23090 0.70740 0.83070 0.01500
O 	O 	0.06920 0.63090 0.10905 -0.80400
O 	O 	0.00130 0.55260 0.14890 -0.70100
C 	C 	0.04600 0.60700 0.15510 0.54200
C 	C 	0.06900 0.65040 0.20340 -0.09600
C 	C 	0.12030 0.70870 0.22090 -0.03500
Zr	Zr	0.53091 0.61107 0.47478 3.19400
O 	O 	0.55620 0.56960 0.54200 -1.23700
O 	O 	0.53650 0.66840 0.53860 -0.84000
O 	O 	0.49560 0.60670 0.60820 -0.68700
C 	C 	0.51760 0.66180 0.58890 0.49600
C 	C 	0.50570 0.70930 0.61840 -0.05800
C 	C 	0.47650 0.70740 0.66930 0.01400
O 	O 	0.56170 0.63090 0.39095 -0.80100
O 	O 	0.55130 0.55260 0.35110 -0.69800
C 	C 	0.56100 0.60700 0.34490 0.54200
C 	C 	0.58140 0.65040 0.29660 -0.09500
C 	C 	0.58840 0.70870 0.27910 -0.03500
Zr	Zr	0.08016 0.46909 0.47478 3.19400
O 	O 	0.01340 0.44380 0.54200 -1.23700
O 	O 	0.13190 0.46350 0.53860 -0.84000
O 	O 	0.11110 0.50440 0.60820 -0.68700
C 	C 	0.14420 0.48240 0.58890 0.49600
C 	C 	0.20360 0.49430 0.61840 -0.05800
C 	C 	0.23090 0.52350 0.66930 0.01400
O 	O 	0.06920 0.43830 0.39095 -0.80100
O 	O 	0.00130 0.44870 0.35110 -0.69900
C 	C 	0.04600 0.43900 0.34490 0.54200
C 	C 	0.06900 0.41860 0.29660 -0.09600
C 	C 	0.12030 0.41160 0.27910 -0.03500
Zr	Zr	0.38893 0.91984 0.47478 3.19400
O 	O 	0.43040 0.98660 0.54200 -1.23700
O 	O 	0.33160 0.86810 0.53860 -0.84000
O 	O 	0.39330 0.88890 0.60820 -0.68700
C 	C 	0.33820 0.85580 0.58890 0.49600
C 	C 	0.29070 0.79640 0.61840 -0.05800
C 	C 	0.29260 0.76910 0.66930 0.01400
O 	O 	0.36910 0.93080 0.39095 -0.80200
O 	O 	0.44740 0.99870 0.35110 -0.69900
C 	C 	0.39300 0.95400 0.34490 0.54200
C 	C 	0.34960 0.93100 0.29660 -0.09600
C 	C 	0.29130 0.87970 0.27910 -0.03500
Zr	Zr	0.46909 0.38893 0.97478 3.19400
O 	O 	0.44380 0.43040 0.04200 -1.23700
O 	O 	0.46350 0.33160 0.03860 -0.83900
O 	O 	0.50440 0.39330 0.10820 -0.68700
C 	C 	0.48240 0.33820 0.08890 0.49600
C 	C 	0.49430 0.29070 0.11840 -0.05800
C 	C 	0.52350 0.29260 0.16930 0.01400
O 	O 	0.43830 0.36910 0.89095 -0.80100
O 	O 	0.44870 0.44740 0.85110 -0.69800
C 	C 	0.43900 0.39300 0.84490 0.54200
C 	C 	0.41860 0.34960 0.79660 -0.09500
C 	C 	0.41160 0.29130 0.77910 -0.03500
Zr	Zr	0.91984 0.53091 0.97478 3.19300
O 	O 	0.98660 0.55620 0.04200 -1.23400
O 	O 	0.86810 0.53650 0.03860 -0.83800
O 	O 	0.88890 0.49560 0.10820 -0.68600
C 	C 	0.85580 0.51760 0.08890 0.49600
C 	C 	0.79640 0.50570 0.11840 -0.05700
C 	C 	0.76910 0.47650 0.16930 0.01400
O 	O 	0.93080 0.56170 0.89095 -0.80300
O 	O 	0.99870 0.55130 0.85110 -0.70100
C 	C 	0.95400 0.56100 0.84490 0.54200
C 	C 	0.93100 0.58140 0.79660 -0.09600
C 	C 	0.87970 0.58840 0.77910 -0.03500
Zr	Zr	0.61107 0.08016 0.97478 3.19300
O 	O 	0.56960 0.01340 0.04200 -1.23300
O 	O 	0.66840 0.13190 0.03860 -0.83700
O 	O 	0.60670 0.11110 0.10820 -0.68600
C 	C 	0.66180 0.14420 0.08890 0.49600
C 	C 	0.70930 0.20360 0.11840 -0.05700
C 	C 	0.70740 0.23090 0.16930 0.01500
O 	O 	0.63090 0.06920 0.89095 -0.80400
O 	O 	0.55260 0.00130 0.85110 -0.70100
C 	C 	0.60700 0.04600 0.84490 0.54200
C 	C 	0.65040 0.06900 0.79660 -0.09600
C 	C 	0.70870 0.12030 0.77910 -0.03500
Zr	Zr	0.48144 0.51856 0.59274 3.24000
O 	O 	0.46970 0.53030 0.43420 -1.24500
O 	O 	0.45520 0.54480 0.51760 -1.27300
Zr	Zr	0.48144 0.96289 0.59274 3.24100
O 	O 	0.46970 0.93940 0.43420 -1.24500
O 	O 	0.45520 0.91040 0.51760 -1.27300
Zr	Zr	0.03711 0.51856 0.59274 3.24100
O 	O 	0.06060 0.53030 0.43420 -1.24500
O 	O 	0.08960 0.54480 0.51760 -1.27300
Zr	Zr	0.51856 0.48144 0.09274 3.24000
O 	O 	0.53030 0.46970 0.93420 -1.24500
O 	O 	0.54480 0.45520 0.01760 -1.27100
Zr	Zr	0.51856 0.03711 0.09274 3.24100
O 	O 	0.53030 0.06060 0.93420 -1.24900
O 	O 	0.54480 0.08960 0.01760 -1.26900
Zr	Zr	0.96289 0.48144 0.09274 3.24100
O 	O 	0.93940 0.46970 0.93420 -1.24900
O 	O 	0.91040 0.45520 0.01760 -1.26900
Zr	Zr	0.51856 0.48144 0.40726 3.24000
O 	O 	0.53030 0.46970 0.56580 -1.24500
O 	O 	0.54480 0.45520 0.48240 -1.27300
Zr	Zr	0.96289 0.48144 0.40726 3.24100
O 	O 	0.93940 0.46970 0.56580 -1.24500
O 	O 	0.91040 0.45520 0.48240 -1.27300
Zr	Zr	0.51856 0.03711 0.40726 3.24100
O 	O 	0.53030 0.06060 0.56580 -1.24500
O 	O 	0.54480 0.08960 0.48240 -1.27300
Zr	Zr	0.48144 0.51856 0.90726 3.24000
O 	O 	0.46970 0.53030 0.06580 -1.24500
O 	O 	0.45520 0.54480 0.98240 -1.27100
Zr	Zr	0.03711 0.51856 0.90726 3.24100
O 	O 	0.06060 0.53030 0.06580 -1.24900
O 	O 	0.08960 0.54480 0.98240 -1.26900
Zr	Zr	0.48144 0.96289 0.90726 3.24100
O 	O 	0.46970 0.93940 0.06580 -1.24900
O 	O 	0.45520 0.91040 0.98240 -1.26900
O 	O 	0.23965 0.47930 0.58530 -0.18800
O 	O 	0.52070 0.76035 0.58530 -0.18800
O 	O 	0.23965 0.76035 0.58530 -0.18900
O 	O 	0.76035 0.52070 0.08530 -0.18800
O 	O 	0.47930 0.23965 0.08530 -0.18800
O 	O 	0.76035 0.23965 0.08530 -0.18700
O 	O 	0.47930 0.23965 0.41470 -0.18800
O 	O 	0.76035 0.52070 0.41470 -0.18800
O 	O 	0.76035 0.23965 0.41470 -0.18900
O 	O 	0.52070 0.76035 0.91470 -0.18800
O 	O 	0.23965 0.47930 0.91470 -0.18800
O 	O 	0.23965 0.76035 0.91470 -0.18700
O 	O 	0.37600 0.41050 0.25000 -0.12500
O 	O 	0.58950 0.96550 0.25000 -0.12600
O 	O 	0.03450 0.62400 0.25000 -0.12600
O 	O 	0.62400 0.58950 0.75000 -0.12500
O 	O 	0.41050 0.03450 0.75000 -0.12600
O 	O 	0.96550 0.37600 0.75000 -0.12600
O 	O 	0.41050 0.37600 0.75000 -0.12500
O 	O 	0.96550 0.58950 0.75000 -0.12600
O 	O 	0.62400 0.03450 0.75000 -0.12600
O 	O 	0.58950 0.62400 0.25000 -0.12500
O 	O 	0.03450 0.41050 0.25000 -0.12600
O 	O 	0.37600 0.96550 0.25000 -0.12600
