data_crystal

_cell_length_a 22.62400
_cell_length_b 12.64500
_cell_length_c 14.73500
_cell_angle_alpha 90.00000
_cell_angle_beta  94.92000
_cell_angle_gamma 90.00000

_symmetry_space_group_name_	'P 1'
_symmetry_space_group_name_H-M	'P 1'

loop_
_symmetry_equiv_pos_as_xyz
  x,y,z

loop_
_atom_site_label
_atom_site_type_symbol
_atom_site_fract_x
_atom_site_fract_y
_atom_site_fract_z
_atom_site_charge
Cd	Cd	0.25439 0.91556 0.75341 1.18300
C 	C 	0.13440 0.06400 0.76910 0.03400
H 	H 	0.13040 0.06350 0.70300 -0.05300
H 	H 	0.11500 0.00110 0.78990 -0.06200
C 	C 	0.22550 0.16220 0.77130 -0.00900
H 	H 	0.26730 0.16310 0.79240 -0.00100
H 	H 	0.22250 0.16350 0.70530 0.00400
C 	C 	0.20260 0.06440 0.90480 -0.03100
H 	H 	0.18480 0.00100 0.92760 0.01500
H 	H 	0.24400 0.06580 0.92830 0.05100
C 	C 	0.11250 0.15630 0.90260 0.04100
H 	H 	0.09180 0.21670 0.92530 -0.03900
H 	H 	0.09420 0.09290 0.92450 -0.04600
C 	C 	0.13430 0.25470 0.76980 -0.00800
H 	H 	0.13050 0.25690 0.70370 -0.01500
H 	H 	0.11470 0.31670 0.79190 -0.01600
C 	C 	0.20250 0.25210 0.90470 -0.01600
H 	H 	0.24360 0.25030 0.92640 0.02200
H 	H 	0.18540 0.31590 0.92800 0.03200
C 	C 	0.34090 0.04900 0.43330 0.32800
C 	C 	0.38390 0.09520 0.50650 -0.10800
H 	H 	0.41740 0.12900 0.48840 0.04200
C 	C 	0.37730 0.09100 0.59450 -0.13800
H 	H 	0.40650 0.12070 0.63490 0.06300
C 	C 	0.32400 0.03960 0.63270 0.33600
N 	N 	0.10470 0.15710 0.80130 -0.24000
N 	N 	0.19875 0.06050 0.80190 -0.20400
N 	N 	0.17180 0.15950 0.93850 -0.11100
N 	N 	0.19806 0.25640 0.80330 -0.18400
O 	O 	0.33501 0.99820 0.71240 -0.41900
O 	O 	0.27572 0.03690 0.59170 -0.35300
O 	O 	0.34163 0.95240 0.41790 -0.29300
O 	O 	0.30733 0.11760 0.38930 -0.41100
Cd	Cd	0.74561 0.91556 0.74659 1.18600
C 	C 	0.86560 0.06400 0.73090 0.02100
H 	H 	0.86960 0.06350 0.79700 -0.03500
H 	H 	0.88500 0.00110 0.71010 -0.04100
C 	C 	0.77450 0.16220 0.72870 -0.01000
H 	H 	0.73270 0.16310 0.70760 -0.00000
H 	H 	0.77750 0.16350 0.79470 0.00600
C 	C 	0.79740 0.06440 0.59520 -0.03300
H 	H 	0.81520 0.00100 0.57240 0.02100
H 	H 	0.75600 0.06580 0.57170 0.05200
C 	C 	0.88750 0.15630 0.59740 0.02200
H 	H 	0.90820 0.21670 0.57470 -0.01100
H 	H 	0.90580 0.09290 0.57550 -0.01800
C 	C 	0.86570 0.25470 0.73020 -0.01800
H 	H 	0.86950 0.25690 0.79630 0.00000
H 	H 	0.88530 0.31670 0.70810 0.00300
C 	C 	0.79750 0.25210 0.59530 -0.01800
H 	H 	0.75640 0.25030 0.57360 0.02200
H 	H 	0.81460 0.31590 0.57200 0.03600
C 	C 	0.65910 0.04900 0.06670 0.31800
C 	C 	0.61610 0.09520 0.99350 -0.09500
H 	H 	0.58260 0.12900 0.01160 0.03600
C 	C 	0.62270 0.09100 0.90550 -0.14400
H 	H 	0.59350 0.12070 0.86510 0.06600
C 	C 	0.67600 0.03960 0.86730 0.33800
N 	N 	0.89530 0.15710 0.69870 -0.21800
N 	N 	0.80125 0.06050 0.69810 -0.20100
N 	N 	0.82820 0.15950 0.56150 -0.10500
N 	N 	0.80194 0.25640 0.69670 -0.18200
O 	O 	0.66499 0.99820 0.78760 -0.42100
O 	O 	0.72428 0.03690 0.90830 -0.35100
O 	O 	0.65837 0.95240 0.08210 -0.28900
O 	O 	0.69267 0.11760 0.11070 -0.40900
Cd	Cd	0.74561 0.08444 0.24659 1.18600
C 	C 	0.86560 0.93600 0.23090 0.02100
H 	H 	0.86960 0.93650 0.29700 -0.03500
H 	H 	0.88500 0.99890 0.21010 -0.04100
C 	C 	0.77450 0.83780 0.22870 -0.01000
H 	H 	0.73270 0.83690 0.20760 -0.00000
H 	H 	0.77750 0.83650 0.29470 0.00600
C 	C 	0.79740 0.93560 0.09520 -0.03400
H 	H 	0.81520 0.99900 0.07240 0.02200
H 	H 	0.75600 0.93420 0.07170 0.05300
C 	C 	0.88750 0.84370 0.09740 0.02200
H 	H 	0.90820 0.78330 0.07470 -0.01000
H 	H 	0.90580 0.90710 0.07550 -0.01800
C 	C 	0.86570 0.74530 0.23020 -0.01800
H 	H 	0.86950 0.74310 0.29630 0.00000
H 	H 	0.88530 0.68330 0.20810 0.00400
C 	C 	0.79750 0.74790 0.09530 -0.01800
H 	H 	0.75640 0.74970 0.07360 0.02200
H 	H 	0.81460 0.68410 0.07200 0.03600
C 	C 	0.65910 0.95100 0.56670 0.32700
C 	C 	0.61610 0.90480 0.49350 -0.10800
H 	H 	0.58260 0.87100 0.51160 0.04200
C 	C 	0.62270 0.90900 0.40550 -0.13700
H 	H 	0.59350 0.87930 0.36510 0.06300
C 	C 	0.67600 0.96040 0.36730 0.33500
N 	N 	0.89530 0.84290 0.19870 -0.21800
N 	N 	0.80125 0.93950 0.19810 -0.20100
N 	N 	0.82820 0.84050 0.06150 -0.10400
N 	N 	0.80194 0.74360 0.19670 -0.18200
O 	O 	0.66499 0.00180 0.28760 -0.41900
O 	O 	0.72428 0.96310 0.40830 -0.35100
O 	O 	0.65837 0.04760 0.58210 -0.29300
O 	O 	0.69267 0.88240 0.61070 -0.41000
Cd	Cd	0.25439 0.08444 0.25341 1.18400
C 	C 	0.13440 0.93600 0.26910 0.03400
H 	H 	0.13040 0.93650 0.20300 -0.05300
H 	H 	0.11500 0.99890 0.28990 -0.06300
C 	C 	0.22550 0.83780 0.27130 -0.00900
H 	H 	0.26730 0.83690 0.29240 -0.00100
H 	H 	0.22250 0.83650 0.20530 0.00400
C 	C 	0.20260 0.93560 0.40480 -0.03000
H 	H 	0.18480 0.99900 0.42760 0.01400
H 	H 	0.24400 0.93420 0.42830 0.05100
C 	C 	0.11250 0.84370 0.40260 0.04200
H 	H 	0.09180 0.78330 0.42530 -0.04000
H 	H 	0.09420 0.90710 0.42450 -0.04700
C 	C 	0.13430 0.74530 0.26980 -0.00800
H 	H 	0.13050 0.74310 0.20370 -0.01500
H 	H 	0.11470 0.68330 0.29190 -0.01600
C 	C 	0.20250 0.74790 0.40470 -0.01600
H 	H 	0.24360 0.74970 0.42640 0.02100
H 	H 	0.18540 0.68410 0.42800 0.03100
C 	C 	0.34090 0.95100 0.93330 0.31800
C 	C 	0.38390 0.90480 0.00650 -0.09300
H 	H 	0.41740 0.87100 0.98840 0.03500
C 	C 	0.37730 0.90900 0.09450 -0.14600
H 	H 	0.40650 0.87930 0.13490 0.06600
C 	C 	0.32400 0.96040 0.13270 0.33900
N 	N 	0.10470 0.84290 0.30130 -0.24000
N 	N 	0.19875 0.93950 0.30190 -0.20500
N 	N 	0.17180 0.84050 0.43850 -0.11100
N 	N 	0.19806 0.74360 0.30330 -0.18400
O 	O 	0.33501 0.00180 0.21240 -0.42100
O 	O 	0.27572 0.96310 0.09170 -0.35300
O 	O 	0.34163 0.04760 0.91790 -0.28900
O 	O 	0.30733 0.88240 0.88930 -0.41000
Cd	Cd	0.00000 0.16791 0.75000 1.08100
Cd	Cd	0.00000 0.83209 0.25000 1.08100
Cd	Cd	0.75439 0.41556 0.75341 1.18500
C 	C 	0.63440 0.56400 0.76910 0.02800
H 	H 	0.63040 0.56350 0.70300 -0.04500
H 	H 	0.61500 0.50110 0.78990 -0.05300
C 	C 	0.72550 0.66220 0.77130 -0.01100
H 	H 	0.76730 0.66310 0.79240 0.00100
H 	H 	0.72250 0.66350 0.70530 0.00500
C 	C 	0.70260 0.56440 0.90480 -0.03200
H 	H 	0.68480 0.50100 0.92760 0.01700
H 	H 	0.74400 0.56580 0.92830 0.05100
C 	C 	0.61250 0.65630 0.90260 0.03300
H 	H 	0.59180 0.71670 0.92530 -0.02700
H 	H 	0.59420 0.59290 0.92450 -0.03400
C 	C 	0.63430 0.75470 0.76980 -0.01200
H 	H 	0.63050 0.75690 0.70370 -0.00900
H 	H 	0.61470 0.81670 0.79190 -0.00800
C 	C 	0.70250 0.75210 0.90470 -0.01700
H 	H 	0.74360 0.75030 0.92640 0.02100
H 	H 	0.68540 0.81590 0.92800 0.03200
C 	C 	0.84090 0.54900 0.43330 0.33100
C 	C 	0.88390 0.59520 0.50650 -0.10600
H 	H 	0.91740 0.62900 0.48840 0.05700
C 	C 	0.87730 0.59100 0.59450 -0.13300
H 	H 	0.90650 0.62070 0.63490 0.07400
C 	C 	0.82400 0.53960 0.63270 0.33500
N 	N 	0.60470 0.65710 0.80130 -0.23200
N 	N 	0.69875 0.56050 0.80190 -0.20300
N 	N 	0.67180 0.65950 0.93850 -0.10900
N 	N 	0.69806 0.75640 0.80330 -0.18300
O 	O 	0.83501 0.49820 0.71240 -0.41200
O 	O 	0.77572 0.53690 0.59170 -0.35100
O 	O 	0.84163 0.45240 0.41790 -0.28700
O 	O 	0.80733 0.61760 0.38930 -0.40900
Cd	Cd	0.24561 0.41556 0.74659 1.18500
C 	C 	0.36560 0.56400 0.73090 0.02900
H 	H 	0.36960 0.56350 0.79700 -0.04500
H 	H 	0.38500 0.50110 0.71010 -0.05300
C 	C 	0.27450 0.66220 0.72870 -0.00800
H 	H 	0.23270 0.66310 0.70760 -0.00300
H 	H 	0.27750 0.66350 0.79470 0.00300
C 	C 	0.29740 0.56440 0.59520 -0.03200
H 	H 	0.31520 0.50100 0.57240 0.01700
H 	H 	0.25600 0.56580 0.57170 0.05100
C 	C 	0.38750 0.65630 0.59740 0.03200
H 	H 	0.40820 0.71670 0.57470 -0.02700
H 	H 	0.40580 0.59290 0.57550 -0.03400
C 	C 	0.36570 0.75470 0.73020 -0.01200
H 	H 	0.36950 0.75690 0.79630 -0.00900
H 	H 	0.38530 0.81670 0.70810 -0.00800
C 	C 	0.29750 0.75210 0.59530 -0.01600
H 	H 	0.25640 0.75030 0.57360 0.02000
H 	H 	0.31460 0.81590 0.57200 0.03300
C 	C 	0.15910 0.54900 0.06670 0.32700
C 	C 	0.11610 0.59520 0.99350 -0.11500
H 	H 	0.08260 0.62900 0.01160 0.03100
C 	C 	0.12270 0.59100 0.90550 -0.13800
H 	H 	0.09350 0.62070 0.86510 0.05100
C 	C 	0.17600 0.53960 0.86730 0.33100
N 	N 	0.39530 0.65710 0.69870 -0.23200
N 	N 	0.30125 0.56050 0.69810 -0.20300
N 	N 	0.32820 0.65950 0.56150 -0.10800
N 	N 	0.30194 0.75640 0.69670 -0.18400
O 	O 	0.16499 0.49820 0.78760 -0.42200
O 	O 	0.22428 0.53690 0.90830 -0.35100
O 	O 	0.15837 0.45240 0.08210 -0.30100
O 	O 	0.19267 0.61760 0.11070 -0.41200
Cd	Cd	0.24561 0.58444 0.24659 1.18500
C 	C 	0.36560 0.43600 0.23090 0.02800
H 	H 	0.36960 0.43650 0.29700 -0.04500
H 	H 	0.38500 0.49890 0.21010 -0.05300
C 	C 	0.27450 0.33780 0.22870 -0.00800
H 	H 	0.23270 0.33690 0.20760 -0.00300
H 	H 	0.27750 0.33650 0.29470 0.00400
C 	C 	0.29740 0.43560 0.09520 -0.03200
H 	H 	0.31520 0.49900 0.07240 0.01700
H 	H 	0.25600 0.43420 0.07170 0.05100
C 	C 	0.38750 0.34370 0.09740 0.03300
H 	H 	0.40820 0.28330 0.07470 -0.02700
H 	H 	0.40580 0.40710 0.07550 -0.03400
C 	C 	0.36570 0.24530 0.23020 -0.01200
H 	H 	0.36950 0.24310 0.29630 -0.00900
H 	H 	0.38530 0.18330 0.20810 -0.00800
C 	C 	0.29750 0.24790 0.09530 -0.01600
H 	H 	0.25640 0.24970 0.07360 0.02000
H 	H 	0.31460 0.18410 0.07200 0.03200
C 	C 	0.15910 0.45100 0.56670 0.32600
C 	C 	0.11610 0.40480 0.49350 -0.11200
H 	H 	0.08260 0.37100 0.51160 0.03000
C 	C 	0.12270 0.40900 0.40550 -0.13900
H 	H 	0.09350 0.37930 0.36510 0.05100
C 	C 	0.17600 0.46040 0.36730 0.33100
N 	N 	0.39530 0.34290 0.19870 -0.23200
N 	N 	0.30125 0.43950 0.19810 -0.20300
N 	N 	0.32820 0.34050 0.06150 -0.10900
N 	N 	0.30194 0.24360 0.19670 -0.18400
O 	O 	0.16499 0.50180 0.28760 -0.42200
O 	O 	0.22428 0.46310 0.40830 -0.35100
O 	O 	0.15837 0.54760 0.58210 -0.30000
O 	O 	0.19267 0.38240 0.61070 -0.41200
Cd	Cd	0.75439 0.58444 0.25341 1.18500
C 	C 	0.63440 0.43600 0.26910 0.02800
H 	H 	0.63040 0.43650 0.20300 -0.04500
H 	H 	0.61500 0.49890 0.28990 -0.05300
C 	C 	0.72550 0.33780 0.27130 -0.01100
H 	H 	0.76730 0.33690 0.29240 0.00100
H 	H 	0.72250 0.33650 0.20530 0.00500
C 	C 	0.70260 0.43560 0.40480 -0.03200
H 	H 	0.68480 0.49900 0.42760 0.01700
H 	H 	0.74400 0.43420 0.42830 0.05100
C 	C 	0.61250 0.34370 0.40260 0.03200
H 	H 	0.59180 0.28330 0.42530 -0.02700
H 	H 	0.59420 0.40710 0.42450 -0.03400
C 	C 	0.63430 0.24530 0.26980 -0.01200
H 	H 	0.63050 0.24310 0.20370 -0.00900
H 	H 	0.61470 0.18330 0.29190 -0.00700
C 	C 	0.70250 0.24790 0.40470 -0.01800
H 	H 	0.74360 0.24970 0.42640 0.02300
H 	H 	0.68540 0.18410 0.42800 0.03400
C 	C 	0.84090 0.45100 0.93330 0.33100
C 	C 	0.88390 0.40480 0.00650 -0.10700
H 	H 	0.91740 0.37100 0.98840 0.05700
C 	C 	0.87730 0.40900 0.09450 -0.13300
H 	H 	0.90650 0.37930 0.13490 0.07400
C 	C 	0.82400 0.46040 0.13270 0.33500
N 	N 	0.60470 0.34290 0.30130 -0.23200
N 	N 	0.69875 0.43950 0.30190 -0.20300
N 	N 	0.67180 0.34050 0.43850 -0.10800
N 	N 	0.69806 0.24360 0.30330 -0.18300
O 	O 	0.83501 0.50180 0.21240 -0.41200
O 	O 	0.77572 0.46310 0.09170 -0.35200
O 	O 	0.84163 0.54760 0.91790 -0.28800
O 	O 	0.80733 0.38240 0.88930 -0.40900
Cd	Cd	0.50000 0.66791 0.75000 1.10300
Cd	Cd	0.50000 0.33209 0.25000 1.10300
