data_crystal

_cell_length_a 12.73000
_cell_length_b 15.81000
_cell_length_c 16.73000
_cell_angle_alpha 90.00000
_cell_angle_beta  90.00000
_cell_angle_gamma 90.00000

_symmetry_space_group_name_	'P 1'
_symmetry_space_group_name_H-M	'P 1'

loop_
_symmetry_equiv_pos_as_xyz
  x,y,z

loop_
_atom_site_label
_atom_site_type_symbol
_atom_site_fract_x
_atom_site_fract_y
_atom_site_fract_z
_atom_site_charge
Mn	Mn	0.73120 0.75736 0.11087 1.31100
Mn	Mn	0.47918 0.73553 0.00016 1.32400
O 	O 	0.65100 0.71614 0.99014 -0.61800
O 	O 	0.61210 0.70790 0.18312 -0.44300
O 	O 	0.48890 0.65307 0.10280 -0.43300
O 	O 	0.36170 0.37246 0.40967 -0.41300
O 	O 	0.53260 0.34318 0.41831 -0.42700
O 	O 	0.98120 0.67022 0.09140 -0.45400
O 	O 	0.81920 0.64540 0.13510 -0.44800
O 	O 	0.03500 0.35979 0.40621 -0.42700
C 	C 	0.72890 0.74470 0.95250 0.74500
O 	O 	0.80610 0.77478 0.99045 -0.63400
C 	C 	0.54010 0.65530 0.16560 0.36800
C 	C 	0.51780 0.58810 0.22850 -0.07600
C 	C 	0.45870 0.38500 0.39220 0.35700
C 	C 	0.47950 0.45780 0.33620 -0.07500
C 	C 	0.57090 0.50560 0.34310 -0.02100
H 	H 	0.62020 0.49330 0.38250 0.04400
C 	C 	0.58730 0.57230 0.28980 -0.01800
H 	H 	0.64610 0.60670 0.29570 0.04800
C 	C 	0.42740 0.53970 0.22150 -0.02200
H 	H 	0.37970 0.55020 0.18050 0.04600
C 	C 	0.40900 0.47570 0.27610 -0.01700
H 	H 	0.34760 0.44410 0.27220 0.04500
C 	C 	0.91470 0.63030 0.13150 0.39200
C 	C 	0.95610 0.55830 0.18260 -0.08600
C 	C 	0.89490 0.52530 0.24360 -0.01500
H 	H 	0.82660 0.54480 0.25060 0.04500
C 	C 	0.93420 0.46340 0.29440 -0.02400
H 	H 	0.89280 0.44230 0.33560 0.03900
C 	C 	0.03600 0.43310 0.28340 -0.07500
C 	C 	0.09550 0.46360 0.22050 -0.02100
H 	H 	0.16220 0.44170 0.21140 0.04900
C 	C 	0.05630 0.52700 0.17030 -0.01900
H 	H 	0.09750 0.54810 0.12890 0.04500
C 	C 	0.08230 0.37010 0.34240 0.37300
O 	O 	0.16740 0.33490 0.32105 -0.43600
C 	C 	0.73140 0.74240 0.86190 -1.32700
H 	H 	0.79610 0.76660 0.84330 0.43600
H 	H 	0.67340 0.77430 0.84110 0.43200
H 	H 	0.72640 0.68490 0.84400 0.43300
Mn	Mn	0.76880 0.24264 0.61087 1.31000
Mn	Mn	0.02082 0.26447 0.50016 1.32300
O 	O 	0.84900 0.28386 0.49014 -0.61900
O 	O 	0.88790 0.29210 0.68312 -0.44300
O 	O 	0.01110 0.34693 0.60280 -0.43300
O 	O 	0.13830 0.62754 0.90967 -0.41300
O 	O 	0.96740 0.65682 0.91831 -0.42600
O 	O 	0.51880 0.32978 0.59140 -0.45400
O 	O 	0.68080 0.35460 0.63510 -0.44800
O 	O 	0.46500 0.64021 0.90621 -0.42700
C 	C 	0.77110 0.25530 0.45250 0.74500
O 	O 	0.69390 0.22522 0.49045 -0.63500
C 	C 	0.95990 0.34470 0.66560 0.36800
C 	C 	0.98220 0.41190 0.72850 -0.07700
C 	C 	0.04130 0.61500 0.89220 0.35700
C 	C 	0.02050 0.54220 0.83620 -0.07500
C 	C 	0.92910 0.49440 0.84310 -0.02100
H 	H 	0.87980 0.50670 0.88250 0.04500
C 	C 	0.91270 0.42770 0.78980 -0.01800
H 	H 	0.85390 0.39330 0.79570 0.04800
C 	C 	0.07260 0.46030 0.72150 -0.02100
H 	H 	0.12030 0.44980 0.68050 0.04600
C 	C 	0.09100 0.52430 0.77610 -0.01800
H 	H 	0.15240 0.55590 0.77220 0.04500
C 	C 	0.58530 0.36970 0.63150 0.39200
C 	C 	0.54390 0.44170 0.68260 -0.08600
C 	C 	0.60510 0.47470 0.74360 -0.01500
H 	H 	0.67340 0.45520 0.75060 0.04500
C 	C 	0.56580 0.53660 0.79440 -0.02400
H 	H 	0.60720 0.55770 0.83560 0.03900
C 	C 	0.46400 0.56690 0.78340 -0.07400
C 	C 	0.40450 0.53640 0.72050 -0.02100
H 	H 	0.33780 0.55830 0.71140 0.05000
C 	C 	0.44370 0.47300 0.67030 -0.01800
H 	H 	0.40250 0.45190 0.62890 0.04500
C 	C 	0.41770 0.62990 0.84240 0.37300
O 	O 	0.33260 0.66510 0.82105 -0.43600
C 	C 	0.76860 0.25760 0.36190 -1.32700
H 	H 	0.70390 0.23340 0.34330 0.43500
H 	H 	0.82660 0.22570 0.34110 0.43200
H 	H 	0.77360 0.31510 0.34400 0.43200
Mn	Mn	0.26880 0.25736 0.38913 1.31000
Mn	Mn	0.52082 0.23553 0.49984 1.32300
O 	O 	0.34900 0.21614 0.50986 -0.61900
O 	O 	0.38790 0.20790 0.31688 -0.44400
O 	O 	0.51110 0.15307 0.39720 -0.43400
O 	O 	0.63830 0.87246 0.09033 -0.41400
O 	O 	0.46740 0.84318 0.08169 -0.42700
O 	O 	0.01880 0.17022 0.40860 -0.45400
O 	O 	0.18080 0.14540 0.36490 -0.44800
O 	O 	0.96500 0.85979 0.09379 -0.42700
C 	C 	0.27110 0.24470 0.54750 0.74600
O 	O 	0.19390 0.27478 0.50955 -0.63500
C 	C 	0.45990 0.15530 0.33440 0.36800
C 	C 	0.48220 0.08810 0.27150 -0.07600
C 	C 	0.54130 0.88500 0.10780 0.35700
C 	C 	0.52050 0.95780 0.16380 -0.07500
C 	C 	0.42910 0.00560 0.15690 -0.02100
H 	H 	0.37980 0.99330 0.11750 0.04400
C 	C 	0.41270 0.07230 0.21020 -0.01800
H 	H 	0.35390 0.10670 0.20430 0.04800
C 	C 	0.57260 0.03970 0.27850 -0.02200
H 	H 	0.62030 0.05020 0.31950 0.04600
C 	C 	0.59100 0.97570 0.22390 -0.01700
H 	H 	0.65240 0.94410 0.22780 0.04500
C 	C 	0.08530 0.13030 0.36850 0.39200
C 	C 	0.04390 0.05830 0.31740 -0.08500
C 	C 	0.10510 0.02530 0.25640 -0.01500
H 	H 	0.17340 0.04480 0.24940 0.04500
C 	C 	0.06580 0.96340 0.20560 -0.02600
H 	H 	0.10720 0.94230 0.16440 0.03900
C 	C 	0.96400 0.93310 0.21660 -0.07400
C 	C 	0.90450 0.96360 0.27950 -0.02000
H 	H 	0.83780 0.94170 0.28860 0.04900
C 	C 	0.94370 0.02700 0.32970 -0.02000
H 	H 	0.90250 0.04810 0.37110 0.04500
C 	C 	0.91770 0.87010 0.15760 0.37300
O 	O 	0.83260 0.83490 0.17895 -0.43600
C 	C 	0.26860 0.24240 0.63810 -1.32700
H 	H 	0.20390 0.26660 0.65670 0.43600
H 	H 	0.32660 0.27430 0.65890 0.43200
H 	H 	0.27360 0.18490 0.65600 0.43300
Mn	Mn	0.23120 0.74264 0.88913 1.31100
Mn	Mn	0.97918 0.76447 0.99984 1.32400
O 	O 	0.15100 0.78386 0.00986 -0.62000
O 	O 	0.11210 0.79210 0.81688 -0.44400
O 	O 	0.98890 0.84693 0.89720 -0.43300
O 	O 	0.86170 0.12754 0.59033 -0.41400
O 	O 	0.03260 0.15682 0.58169 -0.42600
O 	O 	0.48120 0.82978 0.90860 -0.45400
O 	O 	0.31920 0.85460 0.86490 -0.44700
O 	O 	0.53500 0.14021 0.59379 -0.42700
C 	C 	0.22890 0.75530 0.04750 0.74600
O 	O 	0.30610 0.72522 0.00955 -0.63500
C 	C 	0.04010 0.84470 0.83440 0.36800
C 	C 	0.01780 0.91190 0.77150 -0.07900
C 	C 	0.95870 0.11500 0.60780 0.35600
C 	C 	0.97950 0.04220 0.66380 -0.07300
C 	C 	0.07090 0.99440 0.65690 -0.02400
H 	H 	0.12020 0.00670 0.61750 0.04600
C 	C 	0.08730 0.92770 0.71020 -0.01500
H 	H 	0.14610 0.89330 0.70430 0.04700
C 	C 	0.92740 0.96030 0.77850 -0.01800
H 	H 	0.87970 0.94980 0.81950 0.04500
C 	C 	0.90900 0.02430 0.72390 -0.02100
H 	H 	0.84760 0.05590 0.72780 0.04600
C 	C 	0.41470 0.86970 0.86850 0.39200
C 	C 	0.45610 0.94170 0.81740 -0.08600
C 	C 	0.39490 0.97470 0.75640 -0.01600
H 	H 	0.32660 0.95520 0.74940 0.04500
C 	C 	0.43420 0.03660 0.70560 -0.02400
H 	H 	0.39280 0.05770 0.66440 0.03900
C 	C 	0.53600 0.06690 0.71660 -0.07500
C 	C 	0.59550 0.03640 0.77950 -0.02100
H 	H 	0.66220 0.05830 0.78860 0.04900
C 	C 	0.55630 0.97300 0.82970 -0.01800
H 	H 	0.59750 0.95190 0.87110 0.04500
C 	C 	0.58230 0.12990 0.65760 0.37300
O 	O 	0.66740 0.16510 0.67895 -0.43600
C 	C 	0.23140 0.75760 0.13810 -1.32700
H 	H 	0.29610 0.73340 0.15670 0.43600
H 	H 	0.17340 0.72570 0.15890 0.43200
H 	H 	0.22640 0.81510 0.15600 0.43200
