data_crystal

_cell_length_a 15.80260
_cell_length_b 16.77560
_cell_length_c 12.85970
_cell_angle_alpha 90.00000
_cell_angle_beta  90.00000
_cell_angle_gamma 90.00000

_symmetry_space_group_name_	'P 1'
_symmetry_space_group_name_H-M	'P 1'

loop_
_symmetry_equiv_pos_as_xyz
  x,y,z

loop_
_atom_site_label
_atom_site_type_symbol
_atom_site_fract_x
_atom_site_fract_y
_atom_site_fract_z
_atom_site_charge
O 	O 	0.09020 0.08852 0.74760 -0.48100
O 	O 	0.39880 0.40781 0.74240 -0.43400
O 	O 	0.30870 0.43550 0.61210 -0.43500
O 	O 	0.13310 0.10613 0.91000 -0.49900
C 	C 	0.33210 0.39630 0.69010 0.31100
C 	C 	0.27640 0.32930 0.72560 0.02800
C 	C 	0.13090 0.12490 0.81640 0.45800
C 	C 	0.18020 0.19820 0.78510 -0.28700
C 	C 	0.24280 0.22620 0.84820 0.12900
H 	H 	0.25300 0.20160 0.91180 -0.02100
C 	C 	0.29150 0.29120 0.81820 -0.17000
H 	H 	0.33470 0.30900 0.86130 0.06000
C 	C 	0.20920 0.30280 0.66350 -0.26000
H 	H 	0.19550 0.33090 0.60350 0.12500
C 	C 	0.16280 0.23600 0.68910 0.34500
O 	O 	0.10610 0.21140 0.62530 -0.43500
H 	H 	0.06510 0.19350 0.57900 0.17200
O 	O 	0.99325 0.01908 0.07985 -0.73400
H 	H 	0.83710 0.03650 0.94820 0.49500
H 	H 	0.83710 0.94730 0.98460 0.46300
H 	H 	0.83710 0.01610 0.06720 0.51600
O 	O 	0.59020 0.58852 0.74760 -0.47900
O 	O 	0.89880 0.90781 0.74240 -0.39500
O 	O 	0.80870 0.93550 0.61210 -0.43200
O 	O 	0.63310 0.60613 0.91000 -0.48200
C 	C 	0.83210 0.89630 0.69010 0.31200
C 	C 	0.77640 0.82930 0.72560 0.04500
C 	C 	0.63090 0.62490 0.81640 0.46400
C 	C 	0.68020 0.69820 0.78510 -0.28700
C 	C 	0.74280 0.72620 0.84820 0.14100
H 	H 	0.75300 0.70160 0.91180 -0.02000
C 	C 	0.79150 0.79120 0.81820 -0.17200
H 	H 	0.83470 0.80900 0.86130 0.07600
C 	C 	0.70920 0.80280 0.66350 -0.26500
H 	H 	0.69550 0.83090 0.60350 0.13500
C 	C 	0.66280 0.73600 0.68910 0.35900
O 	O 	0.60610 0.71140 0.62530 -0.43400
H 	H 	0.56510 0.69350 0.57900 0.19200
O 	O 	0.49325 0.51908 0.07985 -0.87500
H 	H 	0.33710 0.53650 0.94820 0.59900
H 	H 	0.33710 0.44730 0.98460 0.59000
H 	H 	0.33710 0.51610 0.06720 0.62100
O 	O 	0.90980 0.91148 0.24760 -0.43900
O 	O 	0.60120 0.59219 0.24240 -0.43500
O 	O 	0.69130 0.56450 0.11210 -0.41300
O 	O 	0.86690 0.89387 0.41000 -0.45100
C 	C 	0.66790 0.60370 0.19010 0.30800
C 	C 	0.72360 0.67070 0.22560 0.04200
C 	C 	0.86910 0.87510 0.31640 0.46200
C 	C 	0.81980 0.80180 0.28510 -0.27000
C 	C 	0.75720 0.77380 0.34820 0.13300
H 	H 	0.74700 0.79840 0.41180 -0.01200
C 	C 	0.70850 0.70880 0.31820 -0.16700
H 	H 	0.66530 0.69100 0.36130 0.05900
C 	C 	0.79080 0.69720 0.16350 -0.26200
H 	H 	0.80450 0.66910 0.10350 0.15500
C 	C 	0.83720 0.76400 0.18910 0.37600
O 	O 	0.89390 0.78860 0.12530 -0.41500
H 	H 	0.93490 0.80650 0.07900 0.22900
O 	O 	0.00675 0.98092 0.57985 -0.98100
H 	H 	0.16290 0.96350 0.44820 0.62100
H 	H 	0.16290 0.05270 0.48460 0.63600
H 	H 	0.16290 0.98390 0.56720 0.62300
O 	O 	0.40980 0.41148 0.24760 -0.46700
O 	O 	0.10120 0.09219 0.24240 -0.45400
O 	O 	0.19130 0.06450 0.11210 -0.41500
O 	O 	0.36690 0.39387 0.41000 -0.46600
C 	C 	0.16790 0.10370 0.19010 0.30900
C 	C 	0.22360 0.17070 0.22560 0.03700
C 	C 	0.36910 0.37510 0.31640 0.45800
C 	C 	0.31980 0.30180 0.28510 -0.28000
C 	C 	0.25720 0.27380 0.34820 0.13000
H 	H 	0.24700 0.29840 0.41180 -0.01600
C 	C 	0.20850 0.20880 0.31820 -0.17000
H 	H 	0.16530 0.19100 0.36130 0.05800
C 	C 	0.29080 0.19720 0.16350 -0.26400
H 	H 	0.30450 0.16910 0.10350 0.14900
C 	C 	0.33720 0.26400 0.18910 0.36400
O 	O 	0.39390 0.28860 0.12530 -0.42500
H 	H 	0.43490 0.30650 0.07900 0.20600
O 	O 	0.50675 0.48092 0.57985 -0.96300
H 	H 	0.66290 0.46350 0.44820 0.81400
H 	H 	0.66290 0.55270 0.48460 0.80600
H 	H 	0.66290 0.48390 0.56720 0.81600
O 	O 	0.90980 0.08852 0.75240 -0.40900
O 	O 	0.60120 0.40781 0.75760 -0.44000
O 	O 	0.69130 0.43550 0.88790 -0.44000
O 	O 	0.86690 0.10613 0.59000 -0.42800
C 	C 	0.66790 0.39630 0.80990 0.31200
C 	C 	0.72360 0.32930 0.77440 0.02700
C 	C 	0.86910 0.12490 0.68360 0.45600
C 	C 	0.81980 0.19820 0.71490 -0.25900
C 	C 	0.75720 0.22620 0.65180 0.12300
H 	H 	0.74700 0.20160 0.58820 -0.00500
C 	C 	0.70850 0.29120 0.68180 -0.15600
H 	H 	0.66530 0.30900 0.63870 0.05600
C 	C 	0.79080 0.30280 0.83650 -0.25200
H 	H 	0.80450 0.33090 0.89650 0.13300
C 	C 	0.83720 0.23600 0.81090 0.36000
O 	O 	0.89390 0.21140 0.87470 -0.41800
H 	H 	0.93490 0.19350 0.92100 0.21200
O 	O 	0.00675 0.01908 0.42015 -0.93600
H 	H 	0.16290 0.03650 0.55180 0.69600
H 	H 	0.16290 0.94730 0.51540 0.66400
H 	H 	0.16290 0.01610 0.43280 0.69800
O 	O 	0.40980 0.58852 0.75240 -0.47000
O 	O 	0.10120 0.90781 0.75760 -0.47100
O 	O 	0.19130 0.93550 0.88790 -0.46900
O 	O 	0.36690 0.60613 0.59000 -0.46700
C 	C 	0.16790 0.89630 0.80990 0.31500
C 	C 	0.22360 0.82930 0.77440 0.01400
C 	C 	0.36910 0.62490 0.68360 0.45400
C 	C 	0.31980 0.69820 0.71490 -0.27500
C 	C 	0.25720 0.72620 0.65180 0.11600
H 	H 	0.24700 0.70160 0.58820 -0.01300
C 	C 	0.20850 0.79120 0.68180 -0.16100
H 	H 	0.16530 0.80900 0.63870 0.05100
C 	C 	0.29080 0.80280 0.83650 -0.25500
H 	H 	0.30450 0.83090 0.89650 0.12100
C 	C 	0.33720 0.73600 0.81090 0.34300
O 	O 	0.39390 0.71140 0.87470 -0.43000
H 	H 	0.43490 0.69350 0.92100 0.18400
O 	O 	0.50675 0.51908 0.42015 -0.96400
H 	H 	0.66290 0.53650 0.55180 0.81400
H 	H 	0.66290 0.44730 0.51540 0.80600
H 	H 	0.66290 0.51610 0.43280 0.81600
O 	O 	0.09020 0.91148 0.25240 -0.51100
O 	O 	0.39880 0.59219 0.25760 -0.43000
O 	O 	0.30870 0.56450 0.38790 -0.43400
O 	O 	0.13310 0.89387 0.09000 -0.49300
C 	C 	0.33210 0.60370 0.30990 0.31300
C 	C 	0.27640 0.67070 0.27440 0.02800
C 	C 	0.13090 0.87510 0.18360 0.45500
C 	C 	0.18020 0.80180 0.21490 -0.28300
C 	C 	0.24280 0.77380 0.15180 0.12600
H 	H 	0.25300 0.79840 0.08820 -0.00500
C 	C 	0.29150 0.70880 0.18180 -0.16400
H 	H 	0.33470 0.69100 0.13870 0.06900
C 	C 	0.20920 0.69720 0.33650 -0.25800
H 	H 	0.19550 0.66910 0.39650 0.12400
C 	C 	0.16280 0.76400 0.31090 0.34200
O 	O 	0.10610 0.78860 0.37470 -0.43500
H 	H 	0.06510 0.80650 0.42100 0.16800
O 	O 	0.99325 0.98092 0.92015 -0.80900
H 	H 	0.83710 0.96350 0.05180 0.49200
H 	H 	0.83710 0.05270 0.01540 0.51000
H 	H 	0.83710 0.98390 0.93280 0.47100
O 	O 	0.59020 0.41148 0.25240 -0.47400
O 	O 	0.89880 0.09219 0.25760 -0.38100
O 	O 	0.80870 0.06450 0.38790 -0.40400
O 	O 	0.63310 0.39387 0.09000 -0.45200
C 	C 	0.83210 0.10370 0.30990 0.31200
C 	C 	0.77640 0.17070 0.27440 0.05400
C 	C 	0.63090 0.37510 0.18360 0.45900
C 	C 	0.68020 0.30180 0.21490 -0.27600
C 	C 	0.74280 0.27380 0.15180 0.14200
H 	H 	0.75300 0.29840 0.08820 0.00100
C 	C 	0.79150 0.20880 0.18180 -0.16500
H 	H 	0.83470 0.19100 0.13870 0.08900
C 	C 	0.70920 0.19720 0.33650 -0.26200
H 	H 	0.69550 0.16910 0.39650 0.14200
C 	C 	0.66280 0.26400 0.31090 0.36100
O 	O 	0.60610 0.28860 0.37470 -0.43100
H 	H 	0.56510 0.30650 0.42100 0.19400
O 	O 	0.49325 0.48092 0.92015 -0.90800
H 	H 	0.33710 0.46350 0.05180 0.66700
H 	H 	0.33710 0.55270 0.01540 0.66300
H 	H 	0.33710 0.48390 0.93280 0.64700
Mn	Mn	0.00000 0.00796 0.25000 1.30900
Mn	Mn	0.50000 0.50796 0.25000 1.34400
Mn	Mn	0.00000 0.99204 0.75000 1.28600
Mn	Mn	0.50000 0.49204 0.75000 1.34400
Mn	Mn	0.12119 0.00000 -0.00000 1.32700
C 	C 	0.95270 0.00000 -0.00000 1.32000
C 	C 	0.85730 0.00000 -0.00000 -2.88400
Mn	Mn	0.62119 0.50000 -0.00000 1.33600
C 	C 	0.45270 0.50000 -0.00000 1.53700
C 	C 	0.35730 0.50000 -0.00000 -3.72800
Mn	Mn	0.87881 -0.00000 0.50000 1.35900
C 	C 	0.04730 -0.00000 0.50000 1.59200
C 	C 	0.14270 -0.00000 0.50000 -3.86700
Mn	Mn	0.37881 0.50000 0.50000 1.32000
C 	C 	0.54730 0.50000 0.50000 1.79600
C 	C 	0.64270 0.50000 0.50000 -4.76300
