data_crystal

_cell_length_a 18.40000
_cell_length_b 11.38770
_cell_length_c 18.92300
_cell_angle_alpha 90.00000
_cell_angle_beta  108.24600
_cell_angle_gamma 90.00000

_symmetry_space_group_name_	'P 1'
_symmetry_space_group_name_H-M	'P 1'

loop_
_symmetry_equiv_pos_as_xyz
  x,y,z

loop_
_atom_site_label
_atom_site_type_symbol
_atom_site_fract_x
_atom_site_fract_y
_atom_site_fract_z
_atom_site_charge
C 	C 	0.89750 0.83010 0.92770 0.53700
C 	C 	0.83040 0.75410 0.89010 -0.22700
C 	C 	0.79290 0.69840 0.93390 0.05000
H 	H 	0.81380 0.70190 0.98540 0.00700
C 	C 	0.72580 0.63790 0.90311 -0.05900
H 	H 	0.70100 0.60280 0.93360 0.02400
C 	C 	0.69508 0.62970 0.82596 -0.13500
C 	C 	0.73340 0.67950 0.78160 -0.10500
H 	H 	0.71400 0.67070 0.73030 0.03800
C 	C 	0.80090 0.74320 0.81230 0.15600
C 	C 	0.61957 0.57000 0.79188 0.47800
C 	C 	0.88370 0.15420 0.97140 0.42900
C 	C 	0.81523 0.20570 0.98625 -0.06600
C 	C 	0.79050 0.15950 0.04230 0.11300
H 	H 	0.82000 0.09900 0.07100 -0.02600
C 	C 	0.78020 0.30760 0.94810 -0.45000
N 	N 	0.79620 0.35670 0.88920 -1.43300
H 	H 	0.83200 0.33400 0.87300 0.42100
H 	H 	0.78100 0.42400 0.87200 0.49600
N 	N 	0.83360 0.79100 0.76290 -0.29800
H 	H 	0.81000 0.80200 0.71560 0.09100
H 	H 	0.86800 0.84600 0.77700 0.14900
O 	O 	0.92365 0.89580 0.88830 -0.57800
O 	O 	0.92364 0.82480 0.99753 -0.58800
O 	O 	0.58862 0.52210 0.83565 -0.60100
O 	O 	0.59127 0.56990 0.72308 -0.58400
O 	O 	0.92064 0.07300 0.01121 -0.59200
O 	O 	0.90226 0.19260 0.91736 -0.56000
Nd	Nd	0.00079 0.06512 0.89819 2.24700
C 	C 	0.76910 0.29070 0.93880 0.03500
H 	H 	0.77880 0.31290 0.89530 1.03900
C 	C 	0.39750 0.33010 0.92770 0.53900
C 	C 	0.33040 0.25410 0.89010 -0.23100
C 	C 	0.29290 0.19840 0.93390 0.05000
H 	H 	0.31380 0.20190 0.98540 0.00100
C 	C 	0.22580 0.13790 0.90311 -0.06100
H 	H 	0.20100 0.10280 0.93360 0.02200
C 	C 	0.19508 0.12970 0.82596 -0.13600
C 	C 	0.23340 0.17950 0.78160 -0.10600
H 	H 	0.21400 0.17070 0.73030 0.03700
C 	C 	0.30090 0.24320 0.81230 0.15600
C 	C 	0.11957 0.07000 0.79188 0.47800
C 	C 	0.38370 0.65420 0.97140 0.43100
C 	C 	0.31523 0.70570 0.98625 -0.06800
C 	C 	0.29050 0.65950 0.04230 0.11500
H 	H 	0.32000 0.59900 0.07100 -0.02800
C 	C 	0.28020 0.80760 0.94810 -0.44900
N 	N 	0.29620 0.85670 0.88920 -1.43300
H 	H 	0.33200 0.83400 0.87300 0.42100
H 	H 	0.28100 0.92400 0.87200 0.49600
N 	N 	0.33360 0.29100 0.76290 -0.29800
H 	H 	0.31000 0.30200 0.71560 0.09000
H 	H 	0.36800 0.34600 0.77700 0.14700
O 	O 	0.42365 0.39580 0.88830 -0.58600
O 	O 	0.42364 0.32480 0.99753 -0.59800
O 	O 	0.08862 0.02210 0.83565 -0.60100
O 	O 	0.09127 0.06990 0.72308 -0.58600
O 	O 	0.42064 0.57300 0.01121 -0.59600
O 	O 	0.40226 0.69260 0.91736 -0.56400
Nd	Nd	0.50079 0.56512 0.89819 2.27100
C 	C 	0.26910 0.79070 0.93880 0.03500
H 	H 	0.27880 0.81290 0.89530 1.03900
C 	C 	0.10250 0.83010 0.57230 0.53900
C 	C 	0.16960 0.75410 0.60990 -0.23000
C 	C 	0.20710 0.69840 0.56610 0.05000
H 	H 	0.18620 0.70190 0.51460 0.00400
C 	C 	0.27420 0.63790 0.59689 -0.06100
H 	H 	0.29900 0.60280 0.56640 0.02400
C 	C 	0.30492 0.62970 0.67404 -0.13500
C 	C 	0.26660 0.67950 0.71840 -0.10600
H 	H 	0.28600 0.67070 0.76970 0.03800
C 	C 	0.19910 0.74320 0.68770 0.15700
C 	C 	0.38043 0.57000 0.70812 0.47800
C 	C 	0.11630 0.15420 0.52860 0.43100
C 	C 	0.18477 0.20570 0.51375 -0.06700
C 	C 	0.20950 0.15950 0.45770 0.11500
H 	H 	0.18000 0.09900 0.42900 -0.02800
C 	C 	0.21980 0.30760 0.55190 -0.44900
N 	N 	0.20380 0.35670 0.61080 -1.43200
H 	H 	0.16800 0.33400 0.62700 0.42100
H 	H 	0.21900 0.42400 0.62800 0.49500
N 	N 	0.16640 0.79100 0.73710 -0.29800
H 	H 	0.19000 0.80200 0.78440 0.09100
H 	H 	0.13200 0.84600 0.72300 0.14800
O 	O 	0.07635 0.89580 0.61170 -0.58600
O 	O 	0.07636 0.82480 0.50247 -0.59600
O 	O 	0.41138 0.52210 0.66435 -0.60100
O 	O 	0.40873 0.56990 0.77692 -0.58400
O 	O 	0.07936 0.07300 0.48879 -0.59600
O 	O 	0.09774 0.19260 0.58264 -0.56500
Nd	Nd	0.99921 0.06512 0.60181 2.27900
C 	C 	0.23090 0.29070 0.56120 0.03500
H 	H 	0.22120 0.31290 0.60470 1.03800
C 	C 	0.60250 0.33010 0.57230 0.53900
C 	C 	0.66960 0.25410 0.60990 -0.23000
C 	C 	0.70710 0.19840 0.56610 0.05000
H 	H 	0.68620 0.20190 0.51460 0.00300
C 	C 	0.77420 0.13790 0.59689 -0.06100
H 	H 	0.79900 0.10280 0.56640 0.02400
C 	C 	0.80492 0.12970 0.67404 -0.13500
C 	C 	0.76660 0.17950 0.71840 -0.10600
H 	H 	0.78600 0.17070 0.76970 0.03800
C 	C 	0.69910 0.24320 0.68770 0.15600
C 	C 	0.88043 0.07000 0.70812 0.47700
C 	C 	0.61630 0.65420 0.52860 0.43000
C 	C 	0.68477 0.70570 0.51375 -0.06600
C 	C 	0.70950 0.65950 0.45770 0.11400
H 	H 	0.68000 0.59900 0.42900 -0.02800
C 	C 	0.71980 0.80760 0.55190 -0.45000
N 	N 	0.70380 0.85670 0.61080 -1.43400
H 	H 	0.66800 0.83400 0.62700 0.42100
H 	H 	0.71900 0.92400 0.62800 0.49600
N 	N 	0.66640 0.29100 0.73710 -0.29800
H 	H 	0.69000 0.30200 0.78440 0.09000
H 	H 	0.63200 0.34600 0.72300 0.14700
O 	O 	0.57635 0.39580 0.61170 -0.58600
O 	O 	0.57636 0.32480 0.50247 -0.59600
O 	O 	0.91138 0.02210 0.66435 -0.60100
O 	O 	0.90873 0.06990 0.77692 -0.58000
O 	O 	0.57936 0.57300 0.48879 -0.59500
O 	O 	0.59774 0.69260 0.58264 -0.56400
Nd	Nd	0.49921 0.56512 0.60181 2.26900
C 	C 	0.73090 0.79070 0.56120 0.03400
H 	H 	0.72120 0.81290 0.60470 1.04000
C 	C 	0.10250 0.16990 0.07230 0.53600
C 	C 	0.16960 0.24590 0.10990 -0.22800
C 	C 	0.20710 0.30160 0.06610 0.04900
H 	H 	0.18620 0.29810 0.01460 0.00600
C 	C 	0.27420 0.36210 0.09689 -0.05900
H 	H 	0.29900 0.39720 0.06640 0.02400
C 	C 	0.30492 0.37030 0.17404 -0.13500
C 	C 	0.26660 0.32050 0.21840 -0.10500
H 	H 	0.28600 0.32930 0.26970 0.03800
C 	C 	0.19910 0.25680 0.18770 0.15600
C 	C 	0.38043 0.43000 0.20812 0.47800
C 	C 	0.11630 0.84580 0.02860 0.42900
C 	C 	0.18477 0.79430 0.01375 -0.06600
C 	C 	0.20950 0.84050 0.95770 0.11300
H 	H 	0.18000 0.90100 0.92900 -0.02600
C 	C 	0.21980 0.69240 0.05190 -0.45000
N 	N 	0.20380 0.64330 0.11080 -1.43300
H 	H 	0.16800 0.66600 0.12700 0.42100
H 	H 	0.21900 0.57600 0.12800 0.49600
N 	N 	0.16640 0.20900 0.23710 -0.29800
H 	H 	0.19000 0.19800 0.28440 0.09100
H 	H 	0.13200 0.15400 0.22300 0.14900
O 	O 	0.07635 0.10420 0.11170 -0.57800
O 	O 	0.07636 0.17520 0.00247 -0.58800
O 	O 	0.41138 0.47790 0.16435 -0.60100
O 	O 	0.40873 0.43010 0.27692 -0.58400
O 	O 	0.07936 0.92700 0.98879 -0.59200
O 	O 	0.09774 0.80740 0.08264 -0.56000
Nd	Nd	0.99921 0.93488 0.10181 2.24700
C 	C 	0.23090 0.70930 0.06120 0.03500
H 	H 	0.22120 0.68710 0.10470 1.03900
C 	C 	0.60250 0.66990 0.07230 0.53900
C 	C 	0.66960 0.74590 0.10990 -0.23100
C 	C 	0.70710 0.80160 0.06610 0.05000
H 	H 	0.68620 0.79810 0.01460 0.00100
C 	C 	0.77420 0.86210 0.09689 -0.06100
H 	H 	0.79900 0.89720 0.06640 0.02200
C 	C 	0.80492 0.87030 0.17404 -0.13600
C 	C 	0.76660 0.82050 0.21840 -0.10600
H 	H 	0.78600 0.82930 0.26970 0.03700
C 	C 	0.69910 0.75680 0.18770 0.15600
C 	C 	0.88043 0.93000 0.20812 0.47800
C 	C 	0.61630 0.34580 0.02860 0.43100
C 	C 	0.68477 0.29430 0.01375 -0.06800
C 	C 	0.70950 0.34050 0.95770 0.11500
H 	H 	0.68000 0.40100 0.92900 -0.02800
C 	C 	0.71980 0.19240 0.05190 -0.44900
N 	N 	0.70380 0.14330 0.11080 -1.43300
H 	H 	0.66800 0.16600 0.12700 0.42100
H 	H 	0.71900 0.07600 0.12800 0.49600
N 	N 	0.66640 0.70900 0.23710 -0.29800
H 	H 	0.69000 0.69800 0.28440 0.09000
H 	H 	0.63200 0.65400 0.22300 0.14700
O 	O 	0.57635 0.60420 0.11170 -0.58600
O 	O 	0.57636 0.67520 0.00247 -0.59800
O 	O 	0.91138 0.97790 0.16435 -0.60100
O 	O 	0.90873 0.93010 0.27692 -0.58600
O 	O 	0.57936 0.42700 0.98879 -0.59600
O 	O 	0.59774 0.30740 0.08264 -0.56400
Nd	Nd	0.49921 0.43488 0.10181 2.27100
C 	C 	0.73090 0.20930 0.06120 0.03500
H 	H 	0.72120 0.18710 0.10470 1.03900
C 	C 	0.89750 0.16990 0.42770 0.53900
C 	C 	0.83040 0.24590 0.39010 -0.23000
C 	C 	0.79290 0.30160 0.43390 0.05000
H 	H 	0.81380 0.29810 0.48540 0.00400
C 	C 	0.72580 0.36210 0.40311 -0.06100
H 	H 	0.70100 0.39720 0.43360 0.02400
C 	C 	0.69508 0.37030 0.32596 -0.13500
C 	C 	0.73340 0.32050 0.28160 -0.10600
H 	H 	0.71400 0.32930 0.23030 0.03800
C 	C 	0.80090 0.25680 0.31230 0.15700
C 	C 	0.61957 0.43000 0.29188 0.47800
C 	C 	0.88370 0.84580 0.47140 0.43100
C 	C 	0.81523 0.79430 0.48625 -0.06700
C 	C 	0.79050 0.84050 0.54230 0.11500
H 	H 	0.82000 0.90100 0.57100 -0.02800
C 	C 	0.78020 0.69240 0.44810 -0.44900
N 	N 	0.79620 0.64330 0.38920 -1.43200
H 	H 	0.83200 0.66600 0.37300 0.42100
H 	H 	0.78100 0.57600 0.37200 0.49500
N 	N 	0.83360 0.20900 0.26290 -0.29800
H 	H 	0.81000 0.19800 0.21560 0.09100
H 	H 	0.86800 0.15400 0.27700 0.14800
O 	O 	0.92365 0.10420 0.38830 -0.58600
O 	O 	0.92364 0.17520 0.49753 -0.59600
O 	O 	0.58862 0.47790 0.33565 -0.60100
O 	O 	0.59127 0.43010 0.22308 -0.58400
O 	O 	0.92064 0.92700 0.51121 -0.59600
O 	O 	0.90226 0.80740 0.41736 -0.56500
Nd	Nd	0.00079 0.93488 0.39819 2.27900
C 	C 	0.76910 0.70930 0.43880 0.03500
H 	H 	0.77880 0.68710 0.39530 1.03800
C 	C 	0.39750 0.66990 0.42770 0.53900
C 	C 	0.33040 0.74590 0.39010 -0.23000
C 	C 	0.29290 0.80160 0.43390 0.05000
H 	H 	0.31380 0.79810 0.48540 0.00300
C 	C 	0.22580 0.86210 0.40311 -0.06100
H 	H 	0.20100 0.89720 0.43360 0.02400
C 	C 	0.19508 0.87030 0.32596 -0.13500
C 	C 	0.23340 0.82050 0.28160 -0.10600
H 	H 	0.21400 0.82930 0.23030 0.03800
C 	C 	0.30090 0.75680 0.31230 0.15600
C 	C 	0.11957 0.93000 0.29188 0.47700
C 	C 	0.38370 0.34580 0.47140 0.43000
C 	C 	0.31523 0.29430 0.48625 -0.06600
C 	C 	0.29050 0.34050 0.54230 0.11400
H 	H 	0.32000 0.40100 0.57100 -0.02800
C 	C 	0.28020 0.19240 0.44810 -0.45000
N 	N 	0.29620 0.14330 0.38920 -1.43400
H 	H 	0.33200 0.16600 0.37300 0.42100
H 	H 	0.28100 0.07600 0.37200 0.49600
N 	N 	0.33360 0.70900 0.26290 -0.29800
H 	H 	0.31000 0.69800 0.21560 0.09000
H 	H 	0.36800 0.65400 0.27700 0.14700
O 	O 	0.42365 0.60420 0.38830 -0.58600
O 	O 	0.42364 0.67520 0.49753 -0.59600
O 	O 	0.08862 0.97790 0.33565 -0.60100
O 	O 	0.09127 0.93010 0.22308 -0.58000
O 	O 	0.42064 0.42700 0.51121 -0.59500
O 	O 	0.40226 0.30740 0.41736 -0.56400
Nd	Nd	0.50079 0.43488 0.39819 2.26900
C 	C 	0.26910 0.20930 0.43880 0.03400
H 	H 	0.27880 0.18710 0.39530 1.04000
