data_crystal

_cell_length_a 18.43690
_cell_length_b 11.41190
_cell_length_c 18.96430
_cell_angle_alpha 90.00000
_cell_angle_beta  108.26500
_cell_angle_gamma 90.00000

_symmetry_space_group_name_	'P 1'
_symmetry_space_group_name_H-M	'P 1'

loop_
_symmetry_equiv_pos_as_xyz
  x,y,z

loop_
_atom_site_label
_atom_site_type_symbol
_atom_site_fract_x
_atom_site_fract_y
_atom_site_fract_z
_atom_site_charge
C 	C 	0.89749 0.82840 0.92741 0.47300
C 	C 	0.83017 0.75350 0.88980 -0.21200
C 	C 	0.79267 0.69800 0.93355 0.06900
H 	H 	0.81360 0.70180 0.98490 0.00800
C 	C 	0.72581 0.63800 0.90322 -0.08000
H 	H 	0.70120 0.60290 0.93380 0.04000
C 	C 	0.69487 0.62970 0.82627 -0.06300
C 	C 	0.73290 0.67970 0.78174 -0.13400
H 	H 	0.71330 0.67090 0.73050 0.08600
C 	C 	0.80020 0.74310 0.81210 0.19600
C 	C 	0.61950 0.56980 0.79200 0.40400
C 	C 	0.88328 0.15520 0.97056 0.42100
C 	C 	0.81481 0.20620 0.98583 -0.13400
C 	C 	0.79081 0.15990 0.04206 -0.17600
H 	H 	0.81800 0.09900 0.06800 0.10300
C 	C 	0.76920 0.29900 0.94630 0.22200
N 	N 	0.79420 0.35660 0.88790 0.59800
H 	H 	0.83000 0.33500 0.87200 -0.02700
H 	H 	0.78200 0.42700 0.87600 -0.12700
N 	N 	0.83340 0.79040 0.76300 -0.31400
H 	H 	0.81000 0.80300 0.71580 0.14100
H 	H 	0.86800 0.84400 0.77700 0.16700
O 	O 	0.92405 0.89380 0.88821 -0.52700
O 	O 	0.92353 0.82360 0.99705 -0.53900
O 	O 	0.58899 0.52150 0.83579 -0.53800
O 	O 	0.59146 0.56920 0.72353 -0.52200
O 	O 	0.92004 0.07290 0.00972 -0.56900
O 	O 	0.90151 0.19460 0.91676 -0.48000
Pr	Pr	0.00061 0.06544 0.89836 2.06100
C 	C 	0.77840 0.30100 0.94030 0.06300
H 	H 	0.79570 0.33400 0.90380 -0.60400
C 	C 	0.39749 0.32840 0.92741 0.47500
C 	C 	0.33017 0.25350 0.88980 -0.21300
C 	C 	0.29267 0.19800 0.93355 0.07000
H 	H 	0.31360 0.20180 0.98490 0.00500
C 	C 	0.22581 0.13800 0.90322 -0.08000
H 	H 	0.20120 0.10290 0.93380 0.03800
C 	C 	0.19487 0.12970 0.82627 -0.06400
C 	C 	0.23290 0.17970 0.78174 -0.13400
H 	H 	0.21330 0.17090 0.73050 0.08500
C 	C 	0.30020 0.24310 0.81210 0.19500
C 	C 	0.11950 0.06980 0.79200 0.40400
C 	C 	0.38328 0.65520 0.97056 0.42200
C 	C 	0.31481 0.70620 0.98583 -0.13500
C 	C 	0.29081 0.65990 0.04206 -0.17600
H 	H 	0.31800 0.59900 0.06800 0.10200
C 	C 	0.26920 0.79900 0.94630 0.22200
N 	N 	0.29420 0.85660 0.88790 0.59900
H 	H 	0.33000 0.83500 0.87200 -0.02700
H 	H 	0.28200 0.92700 0.87600 -0.12600
N 	N 	0.33340 0.29040 0.76300 -0.31400
H 	H 	0.31000 0.30300 0.71580 0.14000
H 	H 	0.36800 0.34400 0.77700 0.16600
O 	O 	0.42405 0.39380 0.88821 -0.53100
O 	O 	0.42353 0.32360 0.99705 -0.54500
O 	O 	0.08899 0.02150 0.83579 -0.54000
O 	O 	0.09146 0.06920 0.72353 -0.52300
O 	O 	0.42004 0.57290 0.00972 -0.56900
O 	O 	0.40151 0.69460 0.91676 -0.48100
Pr	Pr	0.50061 0.56544 0.89836 2.06400
C 	C 	0.27840 0.80100 0.94030 0.06300
H 	H 	0.29570 0.83400 0.90380 -0.60500
C 	C 	0.10251 0.82840 0.57259 0.47400
C 	C 	0.16983 0.75350 0.61020 -0.21200
C 	C 	0.20733 0.69800 0.56645 0.07000
H 	H 	0.18640 0.70180 0.51510 0.00800
C 	C 	0.27419 0.63800 0.59678 -0.08000
H 	H 	0.29880 0.60290 0.56620 0.04100
C 	C 	0.30513 0.62970 0.67373 -0.06300
C 	C 	0.26710 0.67970 0.71826 -0.13400
H 	H 	0.28670 0.67090 0.76950 0.08600
C 	C 	0.19980 0.74310 0.68790 0.19600
C 	C 	0.38050 0.56980 0.70800 0.40400
C 	C 	0.11672 0.15520 0.52944 0.42200
C 	C 	0.18519 0.20620 0.51417 -0.13300
C 	C 	0.20919 0.15990 0.45794 -0.17500
H 	H 	0.18200 0.09900 0.43200 0.10200
C 	C 	0.23080 0.29900 0.55370 0.22100
N 	N 	0.20580 0.35660 0.61210 0.59800
H 	H 	0.17000 0.33500 0.62800 -0.02800
H 	H 	0.21800 0.42700 0.62400 -0.12700
N 	N 	0.16660 0.79040 0.73700 -0.31400
H 	H 	0.19000 0.80300 0.78420 0.14100
H 	H 	0.13200 0.84400 0.72300 0.16700
O 	O 	0.07595 0.89380 0.61179 -0.53000
O 	O 	0.07647 0.82360 0.50295 -0.54200
O 	O 	0.41101 0.52150 0.66421 -0.53800
O 	O 	0.40854 0.56920 0.77647 -0.52200
O 	O 	0.07996 0.07290 0.49028 -0.56800
O 	O 	0.09849 0.19460 0.58324 -0.48100
Pr	Pr	0.99939 0.06544 0.60164 2.06500
C 	C 	0.22160 0.30100 0.55970 0.06300
H 	H 	0.20430 0.33400 0.59620 -0.60400
C 	C 	0.60251 0.32840 0.57259 0.47400
C 	C 	0.66983 0.25350 0.61020 -0.21200
C 	C 	0.70733 0.19800 0.56645 0.07000
H 	H 	0.68640 0.20180 0.51510 0.00700
C 	C 	0.77419 0.13800 0.59678 -0.08000
H 	H 	0.79880 0.10290 0.56620 0.04000
C 	C 	0.80513 0.12970 0.67373 -0.06300
C 	C 	0.76710 0.17970 0.71826 -0.13400
H 	H 	0.78670 0.17090 0.76950 0.08600
C 	C 	0.69980 0.24310 0.68790 0.19500
C 	C 	0.88050 0.06980 0.70800 0.40300
C 	C 	0.61672 0.65520 0.52944 0.42200
C 	C 	0.68519 0.70620 0.51417 -0.13400
C 	C 	0.70919 0.65990 0.45794 -0.17500
H 	H 	0.68200 0.59900 0.43200 0.10200
C 	C 	0.73080 0.79900 0.55370 0.22100
N 	N 	0.70580 0.85660 0.61210 0.59800
H 	H 	0.67000 0.83500 0.62800 -0.02800
H 	H 	0.71800 0.92700 0.62400 -0.12700
N 	N 	0.66660 0.29040 0.73700 -0.31400
H 	H 	0.69000 0.30300 0.78420 0.14000
H 	H 	0.63200 0.34400 0.72300 0.16600
O 	O 	0.57595 0.39380 0.61179 -0.53100
O 	O 	0.57647 0.32360 0.50295 -0.54300
O 	O 	0.91101 0.02150 0.66421 -0.53700
O 	O 	0.90854 0.06920 0.77647 -0.52200
O 	O 	0.57996 0.57290 0.49028 -0.56900
O 	O 	0.59849 0.69460 0.58324 -0.48100
Pr	Pr	0.49939 0.56544 0.60164 2.06400
C 	C 	0.72160 0.80100 0.55970 0.06300
H 	H 	0.70430 0.83400 0.59620 -0.60400
C 	C 	0.10251 0.17160 0.07259 0.47400
C 	C 	0.16983 0.24650 0.11020 -0.21100
C 	C 	0.20733 0.30200 0.06645 0.07000
H 	H 	0.18640 0.29820 0.01510 0.00900
C 	C 	0.27419 0.36200 0.09678 -0.07900
H 	H 	0.29880 0.39710 0.06620 0.04100
C 	C 	0.30513 0.37030 0.17373 -0.06300
C 	C 	0.26710 0.32030 0.21826 -0.13400
H 	H 	0.28670 0.32910 0.26950 0.08600
C 	C 	0.19980 0.25690 0.18790 0.19600
C 	C 	0.38050 0.43020 0.20800 0.40400
C 	C 	0.11672 0.84480 0.02944 0.42100
C 	C 	0.18519 0.79380 0.01417 -0.13400
C 	C 	0.20919 0.84010 0.95794 -0.17600
H 	H 	0.18200 0.90100 0.93200 0.10300
C 	C 	0.23080 0.70100 0.05370 0.22200
N 	N 	0.20580 0.64340 0.11210 0.59800
H 	H 	0.17000 0.66500 0.12800 -0.02700
H 	H 	0.21800 0.57300 0.12400 -0.12700
N 	N 	0.16660 0.20960 0.23700 -0.31400
H 	H 	0.19000 0.19700 0.28420 0.14100
H 	H 	0.13200 0.15600 0.22300 0.16700
O 	O 	0.07595 0.10620 0.11179 -0.52700
O 	O 	0.07647 0.17640 0.00295 -0.53900
O 	O 	0.41101 0.47850 0.16421 -0.53800
O 	O 	0.40854 0.43080 0.27647 -0.52200
O 	O 	0.07996 0.92710 0.99028 -0.56900
O 	O 	0.09849 0.80540 0.08324 -0.48000
Pr	Pr	0.99939 0.93456 0.10164 2.06100
C 	C 	0.22160 0.69900 0.05970 0.06300
H 	H 	0.20430 0.66600 0.09620 -0.60400
C 	C 	0.60251 0.67160 0.07259 0.47500
C 	C 	0.66983 0.74650 0.11020 -0.21300
C 	C 	0.70733 0.80200 0.06645 0.07000
H 	H 	0.68640 0.79820 0.01510 0.00500
C 	C 	0.77419 0.86200 0.09678 -0.08000
H 	H 	0.79880 0.89710 0.06620 0.03800
C 	C 	0.80513 0.87030 0.17373 -0.06400
C 	C 	0.76710 0.82030 0.21826 -0.13400
H 	H 	0.78670 0.82910 0.26950 0.08500
C 	C 	0.69980 0.75690 0.18790 0.19500
C 	C 	0.88050 0.93020 0.20800 0.40400
C 	C 	0.61672 0.34480 0.02944 0.42200
C 	C 	0.68519 0.29380 0.01417 -0.13500
C 	C 	0.70919 0.34010 0.95794 -0.17600
H 	H 	0.68200 0.40100 0.93200 0.10200
C 	C 	0.73080 0.20100 0.05370 0.22200
N 	N 	0.70580 0.14340 0.11210 0.59900
H 	H 	0.67000 0.16500 0.12800 -0.02700
H 	H 	0.71800 0.07300 0.12400 -0.12600
N 	N 	0.66660 0.70960 0.23700 -0.31400
H 	H 	0.69000 0.69700 0.28420 0.14000
H 	H 	0.63200 0.65600 0.22300 0.16600
O 	O 	0.57595 0.60620 0.11179 -0.53100
O 	O 	0.57647 0.67640 0.00295 -0.54500
O 	O 	0.91101 0.97850 0.16421 -0.54000
O 	O 	0.90854 0.93080 0.27647 -0.52300
O 	O 	0.57996 0.42710 0.99028 -0.56900
O 	O 	0.59849 0.30540 0.08324 -0.48100
Pr	Pr	0.49939 0.43456 0.10164 2.06400
C 	C 	0.72160 0.19900 0.05970 0.06300
H 	H 	0.70430 0.16600 0.09620 -0.60500
C 	C 	0.89749 0.17160 0.42741 0.47400
C 	C 	0.83017 0.24650 0.38980 -0.21200
C 	C 	0.79267 0.30200 0.43355 0.07000
H 	H 	0.81360 0.29820 0.48490 0.00800
C 	C 	0.72581 0.36200 0.40322 -0.08000
H 	H 	0.70120 0.39710 0.43380 0.04100
C 	C 	0.69487 0.37030 0.32627 -0.06300
C 	C 	0.73290 0.32030 0.28174 -0.13400
H 	H 	0.71330 0.32910 0.23050 0.08600
C 	C 	0.80020 0.25690 0.31210 0.19600
C 	C 	0.61950 0.43020 0.29200 0.40400
C 	C 	0.88328 0.84480 0.47056 0.42200
C 	C 	0.81481 0.79380 0.48583 -0.13300
C 	C 	0.79081 0.84010 0.54206 -0.17500
H 	H 	0.81800 0.90100 0.56800 0.10200
C 	C 	0.76920 0.70100 0.44630 0.22100
N 	N 	0.79420 0.64340 0.38790 0.59800
H 	H 	0.83000 0.66500 0.37200 -0.02800
H 	H 	0.78200 0.57300 0.37600 -0.12700
N 	N 	0.83340 0.20960 0.26300 -0.31400
H 	H 	0.81000 0.19700 0.21580 0.14100
H 	H 	0.86800 0.15600 0.27700 0.16700
O 	O 	0.92405 0.10620 0.38821 -0.53000
O 	O 	0.92353 0.17640 0.49705 -0.54200
O 	O 	0.58899 0.47850 0.33579 -0.53800
O 	O 	0.59146 0.43080 0.22353 -0.52200
O 	O 	0.92004 0.92710 0.50972 -0.56800
O 	O 	0.90151 0.80540 0.41676 -0.48100
Pr	Pr	0.00061 0.93456 0.39836 2.06500
C 	C 	0.77840 0.69900 0.44030 0.06300
H 	H 	0.79570 0.66600 0.40380 -0.60400
C 	C 	0.39749 0.67160 0.42741 0.47400
C 	C 	0.33017 0.74650 0.38980 -0.21200
C 	C 	0.29267 0.80200 0.43355 0.07000
H 	H 	0.31360 0.79820 0.48490 0.00700
C 	C 	0.22581 0.86200 0.40322 -0.08000
H 	H 	0.20120 0.89710 0.43380 0.04000
C 	C 	0.19487 0.87030 0.32627 -0.06300
C 	C 	0.23290 0.82030 0.28174 -0.13400
H 	H 	0.21330 0.82910 0.23050 0.08600
C 	C 	0.30020 0.75690 0.31210 0.19500
C 	C 	0.11950 0.93020 0.29200 0.40300
C 	C 	0.38328 0.34480 0.47056 0.42200
C 	C 	0.31481 0.29380 0.48583 -0.13400
C 	C 	0.29081 0.34010 0.54206 -0.17500
H 	H 	0.31800 0.40100 0.56800 0.10200
C 	C 	0.26920 0.20100 0.44630 0.22100
N 	N 	0.29420 0.14340 0.38790 0.59800
H 	H 	0.33000 0.16500 0.37200 -0.02800
H 	H 	0.28200 0.07300 0.37600 -0.12700
N 	N 	0.33340 0.70960 0.26300 -0.31400
H 	H 	0.31000 0.69700 0.21580 0.14000
H 	H 	0.36800 0.65600 0.27700 0.16600
O 	O 	0.42405 0.60620 0.38821 -0.53100
O 	O 	0.42353 0.67640 0.49705 -0.54300
O 	O 	0.08899 0.97850 0.33579 -0.53700
O 	O 	0.09146 0.93080 0.22353 -0.52200
O 	O 	0.42004 0.42710 0.50972 -0.56900
O 	O 	0.40151 0.30540 0.41676 -0.48100
Pr	Pr	0.50061 0.43456 0.39836 2.06400
C 	C 	0.27840 0.19900 0.44030 0.06300
H 	H 	0.29570 0.16600 0.40380 -0.60400
