data_crystal

_cell_length_a 18.37800
_cell_length_b 11.41460
_cell_length_c 18.87360
_cell_angle_alpha 90.00000
_cell_angle_beta  108.42600
_cell_angle_gamma 90.00000

_symmetry_space_group_name_	'P 1'
_symmetry_space_group_name_H-M	'P 1'

loop_
_symmetry_equiv_pos_as_xyz
  x,y,z

loop_
_atom_site_label
_atom_site_type_symbol
_atom_site_fract_x
_atom_site_fract_y
_atom_site_fract_z
_atom_site_charge
Dy	Dy	0.00090 0.93449 0.39795 1.81500
O 	O 	0.92330 0.10040 0.38820 -0.46800
O 	O 	0.90340 0.81140 0.41820 -0.44400
O 	O 	0.58730 0.47640 0.33580 -0.49100
O 	O 	0.92100 0.92850 0.51410 -0.50500
O 	O 	0.92450 0.17340 0.49810 -0.50000
O 	O 	0.58910 0.42880 0.22190 -0.47200
N 	N 	0.83300 0.20880 0.26130 -0.10300
C 	C 	0.89760 0.16710 0.42790 0.47200
C 	C 	0.83060 0.24460 0.39020 -0.16600
C 	C 	0.80070 0.25560 0.31090 0.14000
C 	C 	0.73250 0.31880 0.28090 -0.07600
H 	H 	0.71170 0.32730 0.22830 0.08000
C 	C 	0.79340 0.30000 0.43440 0.03200
H 	H 	0.81460 0.29530 0.48720 0.02200
C 	C 	0.72670 0.36160 0.40340 -0.03700
H 	H 	0.70230 0.39900 0.43480 0.03300
C 	C 	0.88430 0.84830 0.47300 0.42800
C 	C 	0.81500 0.79540 0.48690 -0.12600
C 	C 	0.77560 0.70110 0.44340 0.11600
C 	C 	0.79000 0.84120 0.54340 -0.04800
H 	H 	0.81830 0.90280 0.57360 0.06600
C 	C 	0.61880 0.42910 0.29180 0.43200
C 	C 	0.69480 0.36920 0.32610 -0.08600
N 	N 	0.79700 0.64770 0.38850 -0.10200
Dy	Dy	0.50090 0.43449 0.39795 1.80700
O 	O 	0.42330 0.60040 0.38820 -0.46900
O 	O 	0.40340 0.31140 0.41820 -0.44500
O 	O 	0.08730 0.97640 0.33580 -0.49200
O 	O 	0.42100 0.42850 0.51410 -0.50400
O 	O 	0.42450 0.67340 0.49810 -0.50000
O 	O 	0.08910 0.92880 0.22190 -0.47000
N 	N 	0.33300 0.70880 0.26130 -0.10400
C 	C 	0.39760 0.66710 0.42790 0.47100
C 	C 	0.33060 0.74460 0.39020 -0.16700
C 	C 	0.30070 0.75560 0.31090 0.14000
C 	C 	0.23250 0.81880 0.28090 -0.07700
H 	H 	0.21170 0.82730 0.22830 0.08000
C 	C 	0.29340 0.80000 0.43440 0.03200
H 	H 	0.31460 0.79530 0.48720 0.02200
C 	C 	0.22670 0.86160 0.40340 -0.03700
H 	H 	0.20230 0.89900 0.43480 0.03300
C 	C 	0.38430 0.34830 0.47300 0.42800
C 	C 	0.31500 0.29540 0.48690 -0.12600
C 	C 	0.27560 0.20110 0.44340 0.11600
C 	C 	0.29000 0.34120 0.54340 -0.04800
H 	H 	0.31830 0.40280 0.57360 0.06600
C 	C 	0.11880 0.92910 0.29180 0.43100
C 	C 	0.19480 0.86920 0.32610 -0.08600
N 	N 	0.29700 0.14770 0.38850 -0.10200
Dy	Dy	0.99910 0.93449 0.10205 1.79200
O 	O 	0.07670 0.10040 0.11180 -0.46400
O 	O 	0.09660 0.81140 0.08180 -0.44200
O 	O 	0.41270 0.47640 0.16420 -0.49200
O 	O 	0.07900 0.92850 0.98590 -0.50100
O 	O 	0.07550 0.17340 0.00190 -0.49400
O 	O 	0.41090 0.42880 0.27810 -0.47200
N 	N 	0.16700 0.20880 0.23870 -0.10300
C 	C 	0.10240 0.16710 0.07210 0.46900
C 	C 	0.16940 0.24460 0.10980 -0.16400
C 	C 	0.19930 0.25560 0.18910 0.13900
C 	C 	0.26750 0.31880 0.21910 -0.07600
H 	H 	0.28830 0.32730 0.27170 0.08000
C 	C 	0.20660 0.30000 0.06560 0.03100
H 	H 	0.18540 0.29530 0.01280 0.02400
C 	C 	0.27330 0.36160 0.09660 -0.03500
H 	H 	0.29770 0.39900 0.06520 0.03300
C 	C 	0.11570 0.84830 0.02700 0.42600
C 	C 	0.18500 0.79540 0.01310 -0.12600
C 	C 	0.22440 0.70110 0.05660 0.11600
C 	C 	0.21000 0.84120 0.95660 -0.04800
H 	H 	0.18170 0.90280 0.92640 0.06700
C 	C 	0.38120 0.42910 0.20820 0.43200
C 	C 	0.30520 0.36920 0.17390 -0.08700
N 	N 	0.20300 0.64770 0.11150 -0.10200
Dy	Dy	0.49910 0.43449 0.10205 1.80900
O 	O 	0.57670 0.60040 0.11180 -0.47000
O 	O 	0.59660 0.31140 0.08180 -0.44400
O 	O 	0.91270 0.97640 0.16420 -0.49300
O 	O 	0.57900 0.42850 0.98590 -0.50500
O 	O 	0.57550 0.67340 0.00190 -0.50200
O 	O 	0.91090 0.92880 0.27810 -0.47300
N 	N 	0.66700 0.70880 0.23870 -0.10400
C 	C 	0.60240 0.66710 0.07210 0.47100
C 	C 	0.66940 0.74460 0.10980 -0.16700
C 	C 	0.69930 0.75560 0.18910 0.13900
C 	C 	0.76750 0.81880 0.21910 -0.07700
H 	H 	0.78830 0.82730 0.27170 0.08000
C 	C 	0.70660 0.80000 0.06560 0.03200
H 	H 	0.68540 0.79530 0.01280 0.02000
C 	C 	0.77330 0.86160 0.09660 -0.03700
H 	H 	0.79770 0.89900 0.06520 0.03100
C 	C 	0.61570 0.34830 0.02700 0.42800
C 	C 	0.68500 0.29540 0.01310 -0.12600
C 	C 	0.72440 0.20110 0.05660 0.11700
C 	C 	0.71000 0.34120 0.95660 -0.04900
H 	H 	0.68170 0.40280 0.92640 0.06600
C 	C 	0.88120 0.92910 0.20820 0.43100
C 	C 	0.80520 0.86920 0.17390 -0.08700
N 	N 	0.70300 0.14770 0.11150 -0.10200
Dy	Dy	0.99910 0.06551 0.60205 1.81400
O 	O 	0.07670 0.89960 0.61180 -0.46900
O 	O 	0.09660 0.18860 0.58180 -0.44500
O 	O 	0.41270 0.52360 0.66420 -0.49200
O 	O 	0.07900 0.07150 0.48590 -0.50500
O 	O 	0.07550 0.82660 0.50190 -0.50000
O 	O 	0.41090 0.57120 0.77810 -0.47200
N 	N 	0.16700 0.79120 0.73870 -0.10300
C 	C 	0.10240 0.83290 0.57210 0.47200
C 	C 	0.16940 0.75540 0.60980 -0.16600
C 	C 	0.19930 0.74440 0.68910 0.14000
C 	C 	0.26750 0.68120 0.71910 -0.07600
H 	H 	0.28830 0.67270 0.77170 0.08000
C 	C 	0.20660 0.70000 0.56560 0.03200
H 	H 	0.18540 0.70470 0.51280 0.02200
C 	C 	0.27330 0.63840 0.59660 -0.03700
H 	H 	0.29770 0.60100 0.56520 0.03300
C 	C 	0.11570 0.15170 0.52700 0.42800
C 	C 	0.18500 0.20460 0.51310 -0.12600
C 	C 	0.22440 0.29890 0.55660 0.11600
C 	C 	0.21000 0.15880 0.45660 -0.04800
H 	H 	0.18170 0.09720 0.42640 0.06600
C 	C 	0.38120 0.57090 0.70820 0.43200
C 	C 	0.30520 0.63080 0.67390 -0.08600
N 	N 	0.20300 0.35230 0.61150 -0.10200
Dy	Dy	0.49910 0.56551 0.60205 1.80700
O 	O 	0.57670 0.39960 0.61180 -0.46900
O 	O 	0.59660 0.68860 0.58180 -0.44500
O 	O 	0.91270 0.02360 0.66420 -0.49200
O 	O 	0.57900 0.57150 0.48590 -0.50400
O 	O 	0.57550 0.32660 0.50190 -0.50000
O 	O 	0.91090 0.07120 0.77810 -0.47000
N 	N 	0.66700 0.29120 0.73870 -0.10400
C 	C 	0.60240 0.33290 0.57210 0.47100
C 	C 	0.66940 0.25540 0.60980 -0.16700
C 	C 	0.69930 0.24440 0.68910 0.14000
C 	C 	0.76750 0.18120 0.71910 -0.07700
H 	H 	0.78830 0.17270 0.77170 0.08000
C 	C 	0.70660 0.20000 0.56560 0.03200
H 	H 	0.68540 0.20470 0.51280 0.02200
C 	C 	0.77330 0.13840 0.59660 -0.03700
H 	H 	0.79770 0.10100 0.56520 0.03300
C 	C 	0.61570 0.65170 0.52700 0.42800
C 	C 	0.68500 0.70460 0.51310 -0.12600
C 	C 	0.72440 0.79890 0.55660 0.11600
C 	C 	0.71000 0.65880 0.45660 -0.04800
H 	H 	0.68170 0.59720 0.42640 0.06600
C 	C 	0.88120 0.07090 0.70820 0.43100
C 	C 	0.80520 0.13080 0.67390 -0.08600
N 	N 	0.70300 0.85230 0.61150 -0.10200
Dy	Dy	0.00090 0.06551 0.89795 1.79200
O 	O 	0.92330 0.89960 0.88820 -0.46400
O 	O 	0.90340 0.18860 0.91820 -0.44200
O 	O 	0.58730 0.52360 0.83580 -0.49200
O 	O 	0.92100 0.07150 0.01410 -0.50100
O 	O 	0.92450 0.82660 0.99810 -0.49400
O 	O 	0.58910 0.57120 0.72190 -0.47200
N 	N 	0.83300 0.79120 0.76130 -0.10300
C 	C 	0.89760 0.83290 0.92790 0.46900
C 	C 	0.83060 0.75540 0.89020 -0.16400
C 	C 	0.80070 0.74440 0.81090 0.13900
C 	C 	0.73250 0.68120 0.78090 -0.07600
H 	H 	0.71170 0.67270 0.72830 0.08000
C 	C 	0.79340 0.70000 0.93440 0.03100
H 	H 	0.81460 0.70470 0.98720 0.02400
C 	C 	0.72670 0.63840 0.90340 -0.03500
H 	H 	0.70230 0.60100 0.93480 0.03300
C 	C 	0.88430 0.15170 0.97300 0.42600
C 	C 	0.81500 0.20460 0.98690 -0.12600
C 	C 	0.77560 0.29890 0.94340 0.11600
C 	C 	0.79000 0.15880 0.04340 -0.04800
H 	H 	0.81830 0.09720 0.07360 0.06700
C 	C 	0.61880 0.57090 0.79180 0.43200
C 	C 	0.69480 0.63080 0.82610 -0.08700
N 	N 	0.79700 0.35230 0.88850 -0.10200
Dy	Dy	0.50090 0.56551 0.89795 1.80900
O 	O 	0.42330 0.39960 0.88820 -0.47000
O 	O 	0.40340 0.68860 0.91820 -0.44400
O 	O 	0.08730 0.02360 0.83580 -0.49300
O 	O 	0.42100 0.57150 0.01410 -0.50500
O 	O 	0.42450 0.32660 0.99810 -0.50200
O 	O 	0.08910 0.07120 0.72190 -0.47300
N 	N 	0.33300 0.29120 0.76130 -0.10400
C 	C 	0.39760 0.33290 0.92790 0.47100
C 	C 	0.33060 0.25540 0.89020 -0.16700
C 	C 	0.30070 0.24440 0.81090 0.13900
C 	C 	0.23250 0.18120 0.78090 -0.07700
H 	H 	0.21170 0.17270 0.72830 0.08000
C 	C 	0.29340 0.20000 0.93440 0.03200
H 	H 	0.31460 0.20470 0.98720 0.02000
C 	C 	0.22670 0.13840 0.90340 -0.03700
H 	H 	0.20230 0.10100 0.93480 0.03100
C 	C 	0.38430 0.65170 0.97300 0.42800
C 	C 	0.31500 0.70460 0.98690 -0.12600
C 	C 	0.27560 0.79890 0.94340 0.11700
C 	C 	0.29000 0.65880 0.04340 -0.04900
H 	H 	0.31830 0.59720 0.07360 0.06600
C 	C 	0.11880 0.07090 0.79180 0.43100
C 	C 	0.19480 0.13080 0.82610 -0.08700
N 	N 	0.29700 0.85230 0.88850 -0.10200
