data_crystal

_cell_length_a 18.17410
_cell_length_b 11.30880
_cell_length_c 18.60050
_cell_angle_alpha 90.00000
_cell_angle_beta  108.16600
_cell_angle_gamma 90.00000

_symmetry_space_group_name_	'P 1'
_symmetry_space_group_name_H-M	'P 1'

loop_
_symmetry_equiv_pos_as_xyz
  x,y,z

loop_
_atom_site_label
_atom_site_type_symbol
_atom_site_fract_x
_atom_site_fract_y
_atom_site_fract_z
_atom_site_charge
Tb	Tb	0.50125 0.06493 0.39780 1.96000
O 	O 	0.42190 0.06990 0.51480 -0.54700
O 	O 	0.58889 0.07120 0.22184 -0.51500
O 	O 	0.58744 0.02080 0.33671 -0.54300
O 	O 	0.92632 0.32620 0.49885 -0.54300
O 	O 	0.40420 0.18720 0.41691 -0.48800
O 	O 	0.92370 0.40050 0.38700 -0.51400
C 	C 	0.61820 0.07040 0.29190 0.45300
C 	C 	0.79440 0.19790 0.43480 0.05500
H 	H 	0.81590 0.20150 0.48710 0.00800
C 	C 	0.31620 0.20460 0.48680 -0.14600
C 	C 	0.27550 0.29860 0.44310 0.12900
C 	C 	0.21010 0.34150 0.45650 -0.07500
H 	H 	0.18290 0.40310 0.42670 0.06000
C 	C 	0.72610 0.13810 0.40460 -0.06900
H 	H 	0.70090 0.10410 0.43590 0.03600
C 	C 	0.89930 0.33150 0.42770 0.50500
C 	C 	0.69500 0.12900 0.32590 -0.09200
C 	C 	0.73350 0.17730 0.28040 -0.11200
H 	H 	0.71390 0.16720 0.22830 0.07200
C 	C 	0.38520 0.15110 0.47270 0.45200
N 	N 	0.83560 0.29100 0.26060 -0.29200
H 	H 	0.87750 0.25310 0.26380 0.14000
H 	H 	0.80420 0.28490 0.21530 0.12500
C 	C 	0.83240 0.25300 0.39030 -0.21100
C 	C 	0.80250 0.24220 0.31140 0.16100
N 	N 	0.29830 0.35580 0.38840 -0.28300
H 	H 	0.26850 0.33550 0.34380 0.12700
H 	H 	0.29510 0.43180 0.39320 0.13700
Tb	Tb	0.00125 0.56493 0.39780 1.97100
O 	O 	0.92190 0.56990 0.51480 -0.54700
O 	O 	0.08889 0.57120 0.22184 -0.51200
O 	O 	0.08744 0.52080 0.33671 -0.54200
O 	O 	0.42632 0.82620 0.49885 -0.54100
O 	O 	0.90420 0.68720 0.41691 -0.48800
O 	O 	0.42370 0.90050 0.38700 -0.51200
C 	C 	0.11820 0.57040 0.29190 0.45400
C 	C 	0.29440 0.69790 0.43480 0.05500
H 	H 	0.31590 0.70150 0.48710 0.00700
C 	C 	0.81620 0.70460 0.48680 -0.14600
C 	C 	0.77550 0.79860 0.44310 0.13000
C 	C 	0.71010 0.84150 0.45650 -0.07600
H 	H 	0.68290 0.90310 0.42670 0.06100
C 	C 	0.22610 0.63810 0.40460 -0.06800
H 	H 	0.20090 0.60410 0.43590 0.03600
C 	C 	0.39930 0.83150 0.42770 0.50400
C 	C 	0.19500 0.62900 0.32590 -0.09200
C 	C 	0.23350 0.67730 0.28040 -0.11200
H 	H 	0.21390 0.66720 0.22830 0.07200
C 	C 	0.88520 0.65110 0.47270 0.45300
N 	N 	0.33560 0.79100 0.26060 -0.29200
H 	H 	0.37750 0.75310 0.26380 0.14100
H 	H 	0.30420 0.78490 0.21530 0.12600
C 	C 	0.33240 0.75300 0.39030 -0.21100
C 	C 	0.30250 0.74220 0.31140 0.16100
N 	N 	0.79830 0.85580 0.38840 -0.28300
H 	H 	0.76850 0.83550 0.34380 0.12700
H 	H 	0.79510 0.93180 0.39320 0.13800
Tb	Tb	0.49875 0.06493 0.10220 1.95100
O 	O 	0.57810 0.06990 0.98520 -0.54000
O 	O 	0.41111 0.07120 0.27816 -0.51400
O 	O 	0.41256 0.02080 0.16329 -0.54200
O 	O 	0.07368 0.32620 0.00115 -0.53900
O 	O 	0.59580 0.18720 0.08309 -0.48600
O 	O 	0.07630 0.40050 0.11300 -0.51000
C 	C 	0.38180 0.07040 0.20810 0.45300
C 	C 	0.20560 0.19790 0.06520 0.05400
H 	H 	0.18410 0.20150 0.01290 0.00700
C 	C 	0.68380 0.20460 0.01320 -0.15500
C 	C 	0.72450 0.29860 0.05690 0.13500
C 	C 	0.78990 0.34150 0.04350 -0.08700
H 	H 	0.81710 0.40310 0.07330 0.06400
C 	C 	0.27390 0.13810 0.09540 -0.06900
H 	H 	0.29910 0.10410 0.06410 0.03500
C 	C 	0.10070 0.33150 0.07230 0.50400
C 	C 	0.30500 0.12900 0.17410 -0.09300
C 	C 	0.26650 0.17730 0.21960 -0.11200
H 	H 	0.28610 0.16720 0.27170 0.07200
C 	C 	0.61480 0.15110 0.02730 0.44700
N 	N 	0.16440 0.29100 0.23940 -0.29300
H 	H 	0.12250 0.25310 0.23620 0.14100
H 	H 	0.19580 0.28490 0.28470 0.12600
C 	C 	0.16760 0.25300 0.10970 -0.21100
C 	C 	0.19750 0.24220 0.18860 0.16100
N 	N 	0.70170 0.35580 0.11160 -0.28400
H 	H 	0.73150 0.33550 0.15620 0.12700
H 	H 	0.70490 0.43180 0.10680 0.13700
Tb	Tb	0.99875 0.56493 0.10220 1.95800
O 	O 	0.07810 0.56990 0.98520 -0.55100
O 	O 	0.91111 0.57120 0.27816 -0.51500
O 	O 	0.91256 0.52080 0.16329 -0.54200
O 	O 	0.57368 0.82620 0.00115 -0.53900
O 	O 	0.09580 0.68720 0.08309 -0.48600
O 	O 	0.57630 0.90050 0.11300 -0.51000
C 	C 	0.88180 0.57040 0.20810 0.45400
C 	C 	0.70560 0.69790 0.06520 0.05400
H 	H 	0.68410 0.70150 0.01290 0.00800
C 	C 	0.18380 0.70460 0.01320 -0.13800
C 	C 	0.22450 0.79860 0.05690 0.12500
C 	C 	0.28990 0.84150 0.04350 -0.06400
H 	H 	0.31710 0.90310 0.07330 0.05800
C 	C 	0.77390 0.63810 0.09540 -0.06800
H 	H 	0.79910 0.60410 0.06410 0.03500
C 	C 	0.60070 0.83150 0.07230 0.50300
C 	C 	0.80500 0.62900 0.17410 -0.09300
C 	C 	0.76650 0.67730 0.21960 -0.11100
H 	H 	0.78610 0.66720 0.27170 0.07200
C 	C 	0.11480 0.65110 0.02730 0.45600
N 	N 	0.66440 0.79100 0.23940 -0.29200
H 	H 	0.62250 0.75310 0.23620 0.14100
H 	H 	0.69580 0.78490 0.28470 0.12600
C 	C 	0.66760 0.75300 0.10970 -0.21000
C 	C 	0.69750 0.74220 0.18860 0.16000
N 	N 	0.20170 0.85580 0.11160 -0.28200
H 	H 	0.23150 0.83550 0.15620 0.12700
H 	H 	0.20490 0.93180 0.10680 0.13800
Tb	Tb	0.49875 0.93507 0.60220 1.96100
O 	O 	0.57810 0.93010 0.48520 -0.54600
O 	O 	0.41111 0.92880 0.77816 -0.51400
O 	O 	0.41256 0.97920 0.66329 -0.54200
O 	O 	0.07368 0.67380 0.50115 -0.54200
O 	O 	0.59580 0.81280 0.58309 -0.48700
O 	O 	0.07630 0.59950 0.61300 -0.51400
C 	C 	0.38180 0.92960 0.70810 0.45300
C 	C 	0.20560 0.80210 0.56520 0.05500
H 	H 	0.18410 0.79850 0.51290 0.00800
C 	C 	0.68380 0.79540 0.51320 -0.14600
C 	C 	0.72450 0.70140 0.55690 0.12900
C 	C 	0.78990 0.65850 0.54350 -0.07500
H 	H 	0.81710 0.59690 0.57330 0.06000
C 	C 	0.27390 0.86190 0.59540 -0.06900
H 	H 	0.29910 0.89590 0.56410 0.03600
C 	C 	0.10070 0.66850 0.57230 0.50500
C 	C 	0.30500 0.87100 0.67410 -0.09200
C 	C 	0.26650 0.82270 0.71960 -0.11200
H 	H 	0.28610 0.83280 0.77170 0.07200
C 	C 	0.61480 0.84890 0.52730 0.45200
N 	N 	0.16440 0.70900 0.73940 -0.29200
H 	H 	0.12250 0.74690 0.73620 0.14000
H 	H 	0.19580 0.71510 0.78470 0.12500
C 	C 	0.16760 0.74700 0.60970 -0.21100
C 	C 	0.19750 0.75780 0.68860 0.16100
N 	N 	0.70170 0.64420 0.61160 -0.28300
H 	H 	0.73150 0.66450 0.65620 0.12700
H 	H 	0.70490 0.56820 0.60680 0.13700
Tb	Tb	0.99875 0.43507 0.60220 1.97100
O 	O 	0.07810 0.43010 0.48520 -0.54700
O 	O 	0.91111 0.42880 0.77816 -0.51200
O 	O 	0.91256 0.47920 0.66329 -0.54200
O 	O 	0.57368 0.17380 0.50115 -0.54100
O 	O 	0.09580 0.31280 0.58309 -0.48800
O 	O 	0.57630 0.09950 0.61300 -0.51200
C 	C 	0.88180 0.42960 0.70810 0.45400
C 	C 	0.70560 0.30210 0.56520 0.05500
H 	H 	0.68410 0.29850 0.51290 0.00700
C 	C 	0.18380 0.29540 0.51320 -0.14600
C 	C 	0.22450 0.20140 0.55690 0.13000
C 	C 	0.28990 0.15850 0.54350 -0.07600
H 	H 	0.31710 0.09690 0.57330 0.06100
C 	C 	0.77390 0.36190 0.59540 -0.06800
H 	H 	0.79910 0.39590 0.56410 0.03600
C 	C 	0.60070 0.16850 0.57230 0.50400
C 	C 	0.80500 0.37100 0.67410 -0.09200
C 	C 	0.76650 0.32270 0.71960 -0.11200
H 	H 	0.78610 0.33280 0.77170 0.07200
C 	C 	0.11480 0.34890 0.52730 0.45300
N 	N 	0.66440 0.20900 0.73940 -0.29200
H 	H 	0.62250 0.24690 0.73620 0.14100
H 	H 	0.69580 0.21510 0.78470 0.12600
C 	C 	0.66760 0.24700 0.60970 -0.21100
C 	C 	0.69750 0.25780 0.68860 0.16100
N 	N 	0.20170 0.14420 0.61160 -0.28300
H 	H 	0.23150 0.16450 0.65620 0.12700
H 	H 	0.20490 0.06820 0.60680 0.13800
Tb	Tb	0.50125 0.93507 0.89780 1.95100
O 	O 	0.42190 0.93010 0.01480 -0.54000
O 	O 	0.58889 0.92880 0.72184 -0.51400
O 	O 	0.58744 0.97920 0.83671 -0.54200
O 	O 	0.92632 0.67380 0.99885 -0.53900
O 	O 	0.40420 0.81280 0.91691 -0.48600
O 	O 	0.92370 0.59950 0.88700 -0.51000
C 	C 	0.61820 0.92960 0.79190 0.45300
C 	C 	0.79440 0.80210 0.93480 0.05400
H 	H 	0.81590 0.79850 0.98710 0.00700
C 	C 	0.31620 0.79540 0.98680 -0.15500
C 	C 	0.27550 0.70140 0.94310 0.13500
C 	C 	0.21010 0.65850 0.95650 -0.08700
H 	H 	0.18290 0.59690 0.92670 0.06400
C 	C 	0.72610 0.86190 0.90460 -0.06900
H 	H 	0.70090 0.89590 0.93590 0.03500
C 	C 	0.89930 0.66850 0.92770 0.50400
C 	C 	0.69500 0.87100 0.82590 -0.09300
C 	C 	0.73350 0.82270 0.78040 -0.11200
H 	H 	0.71390 0.83280 0.72830 0.07200
C 	C 	0.38520 0.84890 0.97270 0.44700
N 	N 	0.83560 0.70900 0.76060 -0.29300
H 	H 	0.87750 0.74690 0.76380 0.14100
H 	H 	0.80420 0.71510 0.71530 0.12600
C 	C 	0.83240 0.74700 0.89030 -0.21100
C 	C 	0.80250 0.75780 0.81140 0.16100
N 	N 	0.29830 0.64420 0.88840 -0.28400
H 	H 	0.26850 0.66450 0.84380 0.12700
H 	H 	0.29510 0.56820 0.89320 0.13700
Tb	Tb	0.00125 0.43507 0.89780 1.95800
O 	O 	0.92190 0.43010 0.01480 -0.55100
O 	O 	0.08889 0.42880 0.72184 -0.51500
O 	O 	0.08744 0.47920 0.83671 -0.54200
O 	O 	0.42632 0.17380 0.99885 -0.53900
O 	O 	0.90420 0.31280 0.91691 -0.48600
O 	O 	0.42370 0.09950 0.88700 -0.51000
C 	C 	0.11820 0.42960 0.79190 0.45400
C 	C 	0.29440 0.30210 0.93480 0.05400
H 	H 	0.31590 0.29850 0.98710 0.00800
C 	C 	0.81620 0.29540 0.98680 -0.13800
C 	C 	0.77550 0.20140 0.94310 0.12500
C 	C 	0.71010 0.15850 0.95650 -0.06400
H 	H 	0.68290 0.09690 0.92670 0.05800
C 	C 	0.22610 0.36190 0.90460 -0.06800
H 	H 	0.20090 0.39590 0.93590 0.03500
C 	C 	0.39930 0.16850 0.92770 0.50300
C 	C 	0.19500 0.37100 0.82590 -0.09300
C 	C 	0.23350 0.32270 0.78040 -0.11100
H 	H 	0.21390 0.33280 0.72830 0.07200
C 	C 	0.88520 0.34890 0.97270 0.45600
N 	N 	0.33560 0.20900 0.76060 -0.29200
H 	H 	0.37750 0.24690 0.76380 0.14100
H 	H 	0.30420 0.21510 0.71530 0.12600
C 	C 	0.33240 0.24700 0.89030 -0.21000
C 	C 	0.30250 0.25780 0.81140 0.16000
N 	N 	0.79830 0.14420 0.88840 -0.28200
H 	H 	0.76850 0.16450 0.84380 0.12700
H 	H 	0.79510 0.06820 0.89320 0.13800
