data_crystal

_cell_length_a 18.31540
_cell_length_b 11.39430
_cell_length_c 18.86090
_cell_angle_alpha 90.00000
_cell_angle_beta  108.57600
_cell_angle_gamma 90.00000

_symmetry_space_group_name_	'P 1'
_symmetry_space_group_name_H-M	'P 1'

loop_
_symmetry_equiv_pos_as_xyz
  x,y,z

loop_
_atom_site_label
_atom_site_type_symbol
_atom_site_fract_x
_atom_site_fract_y
_atom_site_fract_z
_atom_site_charge
C 	C 	0.89710 0.83590 0.92860 0.47000
C 	C 	0.83040 0.75850 0.89050 -0.20700
C 	C 	0.79360 0.70140 0.93440 0.03900
H 	H 	0.81500 0.70470 0.98620 0.01500
C 	C 	0.72630 0.63990 0.90350 -0.08800
H 	H 	0.70220 0.60360 0.93410 0.04900
C 	C 	0.69450 0.63240 0.82610 -0.11300
C 	C 	0.73260 0.68300 0.78130 -0.11800
H 	H 	0.71300 0.67410 0.72960 0.01900
C 	C 	0.80030 0.74760 0.81270 0.13500
C 	C 	0.61810 0.57340 0.79150 0.40400
C 	C 	0.88500 0.14890 0.97590 0.30300
C 	C 	0.81580 0.20400 0.98820 0.16600
C 	C 	0.78950 0.15950 0.04380 0.55900
H 	H 	0.81600 0.10400 0.07100 -0.22500
C 	C 	0.78300 0.30400 0.94600 -0.98700
N 	N 	0.79980 0.35360 0.89040 -3.47100
H 	H 	0.83500 0.32200 0.87700 0.92600
H 	H 	0.79400 0.42500 0.87700 1.16700
N 	N 	0.83300 0.79550 0.76240 -0.28100
H 	H 	0.80800 0.80400 0.71500 0.05800
H 	H 	0.86500 0.85500 0.77500 0.14400
O 	O 	0.92136 0.90470 0.88906 -0.47000
O 	O 	0.92447 0.82930 0.99838 -0.48100
O 	O 	0.58688 0.52660 0.83554 -0.48000
O 	O 	0.58991 0.57200 0.72214 -0.47900
O 	O 	0.92176 0.07220 0.01931 -0.44600
O 	O 	0.90333 0.18200 0.92017 -0.49900
Gd	Gd	0.00083 0.06582 0.89725 1.60500
C 	C 	0.77000 0.29100 0.94200 -0.62000
H 	H 	0.78210 0.31490 0.90000 2.90400
C 	C 	0.39710 0.33590 0.92860 0.47300
C 	C 	0.33040 0.25850 0.89050 -0.20800
C 	C 	0.29360 0.20140 0.93440 0.03900
H 	H 	0.31500 0.20470 0.98620 0.01200
C 	C 	0.22630 0.13990 0.90350 -0.09000
H 	H 	0.20220 0.10360 0.93410 0.04700
C 	C 	0.19450 0.13240 0.82610 -0.11300
C 	C 	0.23260 0.18300 0.78130 -0.11800
H 	H 	0.21300 0.17410 0.72960 0.01900
C 	C 	0.30030 0.24760 0.81270 0.13500
C 	C 	0.11810 0.07340 0.79150 0.40300
C 	C 	0.38500 0.64890 0.97590 0.30600
C 	C 	0.31580 0.70400 0.98820 0.15800
C 	C 	0.28950 0.65950 0.04380 0.57000
H 	H 	0.31600 0.60400 0.07100 -0.23000
C 	C 	0.28300 0.80400 0.94600 -0.98000
N 	N 	0.29980 0.85360 0.89040 -3.45900
H 	H 	0.33500 0.82200 0.87700 0.92300
H 	H 	0.29400 0.92500 0.87700 1.16300
N 	N 	0.33300 0.29550 0.76240 -0.28100
H 	H 	0.30800 0.30400 0.71500 0.05800
H 	H 	0.36500 0.35500 0.77500 0.14300
O 	O 	0.42136 0.40470 0.88906 -0.47500
O 	O 	0.42447 0.32930 0.99838 -0.48800
O 	O 	0.08688 0.02660 0.83554 -0.48000
O 	O 	0.08991 0.07200 0.72214 -0.48000
O 	O 	0.42176 0.57220 0.01931 -0.44800
O 	O 	0.40333 0.68200 0.92017 -0.50100
Gd	Gd	0.50083 0.56582 0.89725 1.61900
C 	C 	0.27000 0.79100 0.94200 -0.61500
H 	H 	0.28210 0.81490 0.90000 2.89300
C 	C 	0.10290 0.83590 0.57140 0.47300
C 	C 	0.16960 0.75850 0.60950 -0.20800
C 	C 	0.20640 0.70140 0.56560 0.04000
H 	H 	0.18500 0.70470 0.51380 0.01300
C 	C 	0.27370 0.63990 0.59650 -0.08900
H 	H 	0.29780 0.60360 0.56590 0.04800
C 	C 	0.30550 0.63240 0.67390 -0.11200
C 	C 	0.26740 0.68300 0.71870 -0.11800
H 	H 	0.28700 0.67410 0.77040 0.01900
C 	C 	0.19970 0.74760 0.68730 0.13500
C 	C 	0.38190 0.57340 0.70850 0.40400
C 	C 	0.11500 0.14890 0.52410 0.30600
C 	C 	0.18420 0.20400 0.51180 0.16100
C 	C 	0.21050 0.15950 0.45620 0.56700
H 	H 	0.18400 0.10400 0.42900 -0.22900
C 	C 	0.21700 0.30400 0.55400 -0.98200
N 	N 	0.20020 0.35360 0.60960 -3.46100
H 	H 	0.16500 0.32200 0.62300 0.92300
H 	H 	0.20600 0.42500 0.62300 1.16300
N 	N 	0.16700 0.79550 0.73760 -0.28100
H 	H 	0.19200 0.80400 0.78500 0.05800
H 	H 	0.13500 0.85500 0.72500 0.14400
O 	O 	0.07864 0.90470 0.61094 -0.47500
O 	O 	0.07553 0.82930 0.50162 -0.48600
O 	O 	0.41312 0.52660 0.66446 -0.48000
O 	O 	0.41009 0.57200 0.77786 -0.47900
O 	O 	0.07824 0.07220 0.48069 -0.44800
O 	O 	0.09667 0.18200 0.57983 -0.50200
Gd	Gd	0.99917 0.06582 0.60275 1.62300
C 	C 	0.23000 0.29100 0.55800 -0.61700
H 	H 	0.21790 0.31490 0.60000 2.89500
C 	C 	0.60290 0.33590 0.57140 0.47300
C 	C 	0.66960 0.25850 0.60950 -0.20800
C 	C 	0.70640 0.20140 0.56560 0.03900
H 	H 	0.68500 0.20470 0.51380 0.01300
C 	C 	0.77370 0.13990 0.59650 -0.08900
H 	H 	0.79780 0.10360 0.56590 0.04800
C 	C 	0.80550 0.13240 0.67390 -0.11200
C 	C 	0.76740 0.18300 0.71870 -0.11800
H 	H 	0.78700 0.17410 0.77040 0.01900
C 	C 	0.69970 0.24760 0.68730 0.13500
C 	C 	0.88190 0.07340 0.70850 0.40300
C 	C 	0.61500 0.64890 0.52410 0.30400
C 	C 	0.68420 0.70400 0.51180 0.16400
C 	C 	0.71050 0.65950 0.45620 0.56300
H 	H 	0.68400 0.60400 0.42900 -0.22700
C 	C 	0.71700 0.80400 0.55400 -0.98500
N 	N 	0.70020 0.85360 0.60960 -3.46800
H 	H 	0.66500 0.82200 0.62300 0.92500
H 	H 	0.70600 0.92500 0.62300 1.16600
N 	N 	0.66700 0.29550 0.73760 -0.28100
H 	H 	0.69200 0.30400 0.78500 0.05700
H 	H 	0.63500 0.35500 0.72500 0.14300
O 	O 	0.57864 0.40470 0.61094 -0.47400
O 	O 	0.57553 0.32930 0.50162 -0.48600
O 	O 	0.91312 0.02660 0.66446 -0.48000
O 	O 	0.91009 0.07200 0.77786 -0.47600
O 	O 	0.57824 0.57220 0.48069 -0.44700
O 	O 	0.59667 0.68200 0.57983 -0.50100
Gd	Gd	0.49917 0.56582 0.60275 1.61800
C 	C 	0.73000 0.79100 0.55800 -0.61900
H 	H 	0.71790 0.81490 0.60000 2.90200
C 	C 	0.10290 0.16410 0.07140 0.47100
C 	C 	0.16960 0.24150 0.10950 -0.20600
C 	C 	0.20640 0.29860 0.06560 0.03900
H 	H 	0.18500 0.29530 0.01380 0.01500
C 	C 	0.27370 0.36010 0.09650 -0.08800
H 	H 	0.29780 0.39640 0.06590 0.04900
C 	C 	0.30550 0.36760 0.17390 -0.11300
C 	C 	0.26740 0.31700 0.21870 -0.11800
H 	H 	0.28700 0.32590 0.27040 0.01900
C 	C 	0.19970 0.25240 0.18730 0.13500
C 	C 	0.38190 0.42660 0.20850 0.40400
C 	C 	0.11500 0.85110 0.02410 0.30300
C 	C 	0.18420 0.79600 0.01180 0.16600
C 	C 	0.21050 0.84050 0.95620 0.55900
H 	H 	0.18400 0.89600 0.92900 -0.22500
C 	C 	0.21700 0.69600 0.05400 -0.98700
N 	N 	0.20020 0.64640 0.10960 -3.47100
H 	H 	0.16500 0.67800 0.12300 0.92600
H 	H 	0.20600 0.57500 0.12300 1.16700
N 	N 	0.16700 0.20450 0.23760 -0.28100
H 	H 	0.19200 0.19600 0.28500 0.05800
H 	H 	0.13500 0.14500 0.22500 0.14400
O 	O 	0.07864 0.09530 0.11094 -0.47000
O 	O 	0.07553 0.17070 0.00162 -0.48100
O 	O 	0.41312 0.47340 0.16446 -0.48000
O 	O 	0.41009 0.42800 0.27786 -0.47900
O 	O 	0.07824 0.92780 0.98069 -0.44600
O 	O 	0.09667 0.81800 0.07983 -0.49900
Gd	Gd	0.99917 0.93418 0.10275 1.60500
C 	C 	0.23000 0.70900 0.05800 -0.62000
H 	H 	0.21790 0.68510 0.10000 2.90400
C 	C 	0.60290 0.66410 0.07140 0.47300
C 	C 	0.66960 0.74150 0.10950 -0.20800
C 	C 	0.70640 0.79860 0.06560 0.03900
H 	H 	0.68500 0.79530 0.01380 0.01200
C 	C 	0.77370 0.86010 0.09650 -0.09000
H 	H 	0.79780 0.89640 0.06590 0.04700
C 	C 	0.80550 0.86760 0.17390 -0.11300
C 	C 	0.76740 0.81700 0.21870 -0.11800
H 	H 	0.78700 0.82590 0.27040 0.01900
C 	C 	0.69970 0.75240 0.18730 0.13500
C 	C 	0.88190 0.92660 0.20850 0.40300
C 	C 	0.61500 0.35110 0.02410 0.30600
C 	C 	0.68420 0.29600 0.01180 0.15800
C 	C 	0.71050 0.34050 0.95620 0.57000
H 	H 	0.68400 0.39600 0.92900 -0.23000
C 	C 	0.71700 0.19600 0.05400 -0.98000
N 	N 	0.70020 0.14640 0.10960 -3.45900
H 	H 	0.66500 0.17800 0.12300 0.92300
H 	H 	0.70600 0.07500 0.12300 1.16300
N 	N 	0.66700 0.70450 0.23760 -0.28100
H 	H 	0.69200 0.69600 0.28500 0.05800
H 	H 	0.63500 0.64500 0.22500 0.14300
O 	O 	0.57864 0.59530 0.11094 -0.47500
O 	O 	0.57553 0.67070 0.00162 -0.48800
O 	O 	0.91312 0.97340 0.16446 -0.48000
O 	O 	0.91009 0.92800 0.27786 -0.48000
O 	O 	0.57824 0.42780 0.98069 -0.44800
O 	O 	0.59667 0.31800 0.07983 -0.50100
Gd	Gd	0.49917 0.43418 0.10275 1.61900
C 	C 	0.73000 0.20900 0.05800 -0.61500
H 	H 	0.71790 0.18510 0.10000 2.89300
C 	C 	0.89710 0.16410 0.42860 0.47300
C 	C 	0.83040 0.24150 0.39050 -0.20800
C 	C 	0.79360 0.29860 0.43440 0.04000
H 	H 	0.81500 0.29530 0.48620 0.01300
C 	C 	0.72630 0.36010 0.40350 -0.08900
H 	H 	0.70220 0.39640 0.43410 0.04800
C 	C 	0.69450 0.36760 0.32610 -0.11200
C 	C 	0.73260 0.31700 0.28130 -0.11800
H 	H 	0.71300 0.32590 0.22960 0.01900
C 	C 	0.80030 0.25240 0.31270 0.13500
C 	C 	0.61810 0.42660 0.29150 0.40400
C 	C 	0.88500 0.85110 0.47590 0.30600
C 	C 	0.81580 0.79600 0.48820 0.16100
C 	C 	0.78950 0.84050 0.54380 0.56700
H 	H 	0.81600 0.89600 0.57100 -0.22900
C 	C 	0.78300 0.69600 0.44600 -0.98200
N 	N 	0.79980 0.64640 0.39040 -3.46100
H 	H 	0.83500 0.67800 0.37700 0.92300
H 	H 	0.79400 0.57500 0.37700 1.16300
N 	N 	0.83300 0.20450 0.26240 -0.28100
H 	H 	0.80800 0.19600 0.21500 0.05800
H 	H 	0.86500 0.14500 0.27500 0.14400
O 	O 	0.92136 0.09530 0.38906 -0.47500
O 	O 	0.92447 0.17070 0.49838 -0.48600
O 	O 	0.58688 0.47340 0.33554 -0.48000
O 	O 	0.58991 0.42800 0.22214 -0.47900
O 	O 	0.92176 0.92780 0.51931 -0.44800
O 	O 	0.90333 0.81800 0.42017 -0.50200
Gd	Gd	0.00083 0.93418 0.39725 1.62300
C 	C 	0.77000 0.70900 0.44200 -0.61700
H 	H 	0.78210 0.68510 0.40000 2.89500
C 	C 	0.39710 0.66410 0.42860 0.47300
C 	C 	0.33040 0.74150 0.39050 -0.20800
C 	C 	0.29360 0.79860 0.43440 0.03900
H 	H 	0.31500 0.79530 0.48620 0.01300
C 	C 	0.22630 0.86010 0.40350 -0.08900
H 	H 	0.20220 0.89640 0.43410 0.04800
C 	C 	0.19450 0.86760 0.32610 -0.11200
C 	C 	0.23260 0.81700 0.28130 -0.11800
H 	H 	0.21300 0.82590 0.22960 0.01900
C 	C 	0.30030 0.75240 0.31270 0.13500
C 	C 	0.11810 0.92660 0.29150 0.40300
C 	C 	0.38500 0.35110 0.47590 0.30400
C 	C 	0.31580 0.29600 0.48820 0.16400
C 	C 	0.28950 0.34050 0.54380 0.56300
H 	H 	0.31600 0.39600 0.57100 -0.22700
C 	C 	0.28300 0.19600 0.44600 -0.98500
N 	N 	0.29980 0.14640 0.39040 -3.46800
H 	H 	0.33500 0.17800 0.37700 0.92500
H 	H 	0.29400 0.07500 0.37700 1.16600
N 	N 	0.33300 0.70450 0.26240 -0.28100
H 	H 	0.30800 0.69600 0.21500 0.05700
H 	H 	0.36500 0.64500 0.27500 0.14300
O 	O 	0.42136 0.59530 0.38906 -0.47400
O 	O 	0.42447 0.67070 0.49838 -0.48600
O 	O 	0.08688 0.97340 0.33554 -0.48000
O 	O 	0.08991 0.92800 0.22214 -0.47600
O 	O 	0.42176 0.42780 0.51931 -0.44700
O 	O 	0.40333 0.31800 0.42017 -0.50100
Gd	Gd	0.50083 0.43418 0.39725 1.61800
C 	C 	0.27000 0.20900 0.44200 -0.61900
H 	H 	0.28210 0.18510 0.40000 2.90200
