data_crystal

_cell_length_a 18.23370
_cell_length_b 11.32280
_cell_length_c 18.70670
_cell_angle_alpha 90.00000
_cell_angle_beta  108.39000
_cell_angle_gamma 90.00000

_symmetry_space_group_name_	'P 1'
_symmetry_space_group_name_H-M	'P 1'

loop_
_symmetry_equiv_pos_as_xyz
  x,y,z

loop_
_atom_site_label
_atom_site_type_symbol
_atom_site_fract_x
_atom_site_fract_y
_atom_site_fract_z
_atom_site_charge
Ho	Ho	0.50129 0.93406 0.39693 1.85700
O 	O 	0.58860 0.92670 0.22140 -0.50800
O 	O 	0.57760 0.06990 0.47980 -0.52100
O 	O 	0.58650 0.97530 0.33610 -0.52500
O 	O 	0.92190 0.59390 0.38840 -0.50800
O 	O 	0.92610 0.67120 0.49920 -0.52600
C 	C 	0.61730 0.92690 0.29100 0.43800
C 	C 	0.79460 0.79960 0.43520 0.05200
H 	H 	0.81640 0.79700 0.48740 0.01200
C 	C 	0.89870 0.66410 0.42900 0.50300
C 	C 	0.72620 0.86010 0.40410 -0.06200
H 	H 	0.70140 0.89520 0.43510 0.03900
C 	C 	0.69460 0.86850 0.32610 -0.08800
C 	C 	0.83150 0.74270 0.39060 -0.20200
C 	C 	0.73310 0.81820 0.28040 -0.11000
H 	H 	0.71330 0.82650 0.22840 0.06600
C 	C 	0.80180 0.75480 0.31230 0.15900
N 	N 	0.83480 0.70530 0.26140 -0.25700
H 	H 	0.80470 0.71480 0.21580 0.12300
O 	O 	0.59490 0.18090 0.58010 -0.48800
C 	C 	0.68340 0.20340 0.51160 -0.14800
C 	C 	0.72320 0.29710 0.55660 0.13000
C 	C 	0.71050 0.15890 0.45530 -0.06700
H 	H 	0.68340 0.09800 0.42490 0.06000
C 	C 	0.61420 0.14910 0.52430 0.45500
N 	N 	0.70020 0.35560 0.61030 -0.28900
H 	H 	0.69440 0.30640 0.64370 0.14100
H 	H 	0.73560 0.40610 0.63290 0.13500
H 	H 	0.87300 0.63500 0.27500 0.12000
Ho	Ho	0.00129 0.43406 0.39693 1.86700
O 	O 	0.08860 0.42670 0.22140 -0.50500
O 	O 	0.07760 0.56990 0.47980 -0.52200
O 	O 	0.08650 0.47530 0.33610 -0.52500
O 	O 	0.42190 0.09390 0.38840 -0.50700
O 	O 	0.42610 0.17120 0.49920 -0.52500
C 	C 	0.11730 0.42690 0.29100 0.43900
C 	C 	0.29460 0.29960 0.43520 0.05200
H 	H 	0.31640 0.29700 0.48740 0.01200
C 	C 	0.39870 0.16410 0.42900 0.50200
C 	C 	0.22620 0.36010 0.40410 -0.06100
H 	H 	0.20140 0.39520 0.43510 0.03800
C 	C 	0.19460 0.36850 0.32610 -0.08800
C 	C 	0.33150 0.24270 0.39060 -0.20200
C 	C 	0.23310 0.31820 0.28040 -0.10900
H 	H 	0.21330 0.32650 0.22840 0.06700
C 	C 	0.30180 0.25480 0.31230 0.16000
N 	N 	0.33480 0.20530 0.26140 -0.25700
H 	H 	0.30470 0.21480 0.21580 0.12400
O 	O 	0.09490 0.68090 0.58010 -0.48900
C 	C 	0.18340 0.70340 0.51160 -0.14800
C 	C 	0.22320 0.79710 0.55660 0.13100
C 	C 	0.21050 0.65890 0.45530 -0.06600
H 	H 	0.18340 0.59800 0.42490 0.06000
C 	C 	0.11420 0.64910 0.52430 0.45600
N 	N 	0.20020 0.85560 0.61030 -0.28900
H 	H 	0.19440 0.80640 0.64370 0.14100
H 	H 	0.23560 0.90610 0.63290 0.13500
H 	H 	0.37300 0.13500 0.27500 0.12100
Ho	Ho	0.49871 0.93406 0.10307 1.84900
O 	O 	0.41140 0.92670 0.27860 -0.50800
O 	O 	0.42240 0.06990 0.02020 -0.51500
O 	O 	0.41350 0.97530 0.16390 -0.52500
O 	O 	0.07810 0.59390 0.11160 -0.50500
O 	O 	0.07390 0.67120 0.00080 -0.52300
C 	C 	0.38270 0.92690 0.20900 0.43900
C 	C 	0.20540 0.79960 0.06480 0.05200
H 	H 	0.18360 0.79700 0.01260 0.01200
C 	C 	0.10130 0.66410 0.07100 0.50200
C 	C 	0.27380 0.86010 0.09590 -0.06100
H 	H 	0.29860 0.89520 0.06490 0.03800
C 	C 	0.30540 0.86850 0.17390 -0.08900
C 	C 	0.16850 0.74270 0.10940 -0.20100
C 	C 	0.26690 0.81820 0.21960 -0.10900
H 	H 	0.28670 0.82650 0.27160 0.06600
C 	C 	0.19820 0.75480 0.18770 0.15900
N 	N 	0.16520 0.70530 0.23860 -0.25600
H 	H 	0.19530 0.71480 0.28420 0.12300
O 	O 	0.40510 0.18090 0.91990 -0.48700
C 	C 	0.31660 0.20340 0.98840 -0.15600
C 	C 	0.27680 0.29710 0.94340 0.13500
C 	C 	0.28950 0.15890 0.04470 -0.05700
H 	H 	0.31660 0.09800 0.07510 0.05800
C 	C 	0.38580 0.14910 0.97570 0.45100
N 	N 	0.29980 0.35560 0.88970 -0.29000
H 	H 	0.30560 0.30640 0.85630 0.14100
H 	H 	0.26440 0.40610 0.86710 0.13500
H 	H 	0.12700 0.63500 0.22500 0.12000
Ho	Ho	0.99871 0.43406 0.10307 1.85500
O 	O 	0.91140 0.42670 0.27860 -0.50800
O 	O 	0.92240 0.56990 0.02020 -0.52500
O 	O 	0.91350 0.47530 0.16390 -0.52500
O 	O 	0.57810 0.09390 0.11160 -0.50400
O 	O 	0.57390 0.17120 0.00080 -0.52300
C 	C 	0.88270 0.42690 0.20900 0.43900
C 	C 	0.70540 0.29960 0.06480 0.05200
H 	H 	0.68360 0.29700 0.01260 0.01200
C 	C 	0.60130 0.16410 0.07100 0.50100
C 	C 	0.77380 0.36010 0.09590 -0.06100
H 	H 	0.79860 0.39520 0.06490 0.03800
C 	C 	0.80540 0.36850 0.17390 -0.08900
C 	C 	0.66850 0.24270 0.10940 -0.20100
C 	C 	0.76690 0.31820 0.21960 -0.10900
H 	H 	0.78670 0.32650 0.27160 0.06600
C 	C 	0.69820 0.25480 0.18770 0.15900
N 	N 	0.66520 0.20530 0.23860 -0.25700
H 	H 	0.69530 0.21480 0.28420 0.12400
O 	O 	0.90510 0.68090 0.91990 -0.48600
C 	C 	0.81660 0.70340 0.98840 -0.14000
C 	C 	0.77680 0.79710 0.94340 0.12700
C 	C 	0.78950 0.65890 0.04470 -0.07800
H 	H 	0.81660 0.59800 0.07510 0.06300
C 	C 	0.88580 0.64910 0.97570 0.45900
N 	N 	0.79980 0.85560 0.88970 -0.28800
H 	H 	0.80560 0.80640 0.85630 0.14100
H 	H 	0.76440 0.90610 0.86710 0.13500
H 	H 	0.62700 0.13500 0.22500 0.12100
Ho	Ho	0.49871 0.06594 0.60307 1.85800
O 	O 	0.41140 0.07330 0.77860 -0.50700
O 	O 	0.42240 0.93010 0.52020 -0.52100
O 	O 	0.41350 0.02470 0.66390 -0.52500
O 	O 	0.07810 0.40610 0.61160 -0.50800
O 	O 	0.07390 0.32880 0.50080 -0.52600
C 	C 	0.38270 0.07310 0.70900 0.43800
C 	C 	0.20540 0.20040 0.56480 0.05200
H 	H 	0.18360 0.20300 0.51260 0.01200
C 	C 	0.10130 0.33590 0.57100 0.50300
C 	C 	0.27380 0.13990 0.59590 -0.06200
H 	H 	0.29860 0.10480 0.56490 0.03900
C 	C 	0.30540 0.13150 0.67390 -0.08800
C 	C 	0.16850 0.25730 0.60940 -0.20200
C 	C 	0.26690 0.18180 0.71960 -0.11000
H 	H 	0.28670 0.17350 0.77160 0.06600
C 	C 	0.19820 0.24520 0.68770 0.15900
N 	N 	0.16520 0.29470 0.73860 -0.25700
H 	H 	0.19530 0.28520 0.78420 0.12300
O 	O 	0.40510 0.81910 0.41990 -0.48800
C 	C 	0.31660 0.79660 0.48840 -0.14800
C 	C 	0.27680 0.70290 0.44340 0.13000
C 	C 	0.28950 0.84110 0.54470 -0.06700
H 	H 	0.31660 0.90200 0.57510 0.06000
C 	C 	0.38580 0.85090 0.47570 0.45500
N 	N 	0.29980 0.64440 0.38970 -0.28900
H 	H 	0.30560 0.69360 0.35630 0.14100
H 	H 	0.26440 0.59390 0.36710 0.13500
H 	H 	0.12700 0.36500 0.72500 0.12000
Ho	Ho	0.99871 0.56594 0.60307 1.86700
O 	O 	0.91140 0.57330 0.77860 -0.50500
O 	O 	0.92240 0.43010 0.52020 -0.52200
O 	O 	0.91350 0.52470 0.66390 -0.52500
O 	O 	0.57810 0.90610 0.61160 -0.50700
O 	O 	0.57390 0.82880 0.50080 -0.52500
C 	C 	0.88270 0.57310 0.70900 0.43900
C 	C 	0.70540 0.70040 0.56480 0.05200
H 	H 	0.68360 0.70300 0.51260 0.01200
C 	C 	0.60130 0.83590 0.57100 0.50200
C 	C 	0.77380 0.63990 0.59590 -0.06100
H 	H 	0.79860 0.60480 0.56490 0.03800
C 	C 	0.80540 0.63150 0.67390 -0.08800
C 	C 	0.66850 0.75730 0.60940 -0.20200
C 	C 	0.76690 0.68180 0.71960 -0.10900
H 	H 	0.78670 0.67350 0.77160 0.06700
C 	C 	0.69820 0.74520 0.68770 0.16000
N 	N 	0.66520 0.79470 0.73860 -0.25700
H 	H 	0.69530 0.78520 0.78420 0.12400
O 	O 	0.90510 0.31910 0.41990 -0.48900
C 	C 	0.81660 0.29660 0.48840 -0.14800
C 	C 	0.77680 0.20290 0.44340 0.13100
C 	C 	0.78950 0.34110 0.54470 -0.06600
H 	H 	0.81660 0.40200 0.57510 0.06000
C 	C 	0.88580 0.35090 0.47570 0.45600
N 	N 	0.79980 0.14440 0.38970 -0.28900
H 	H 	0.80560 0.19360 0.35630 0.14100
H 	H 	0.76440 0.09390 0.36710 0.13500
H 	H 	0.62700 0.86500 0.72500 0.12100
Ho	Ho	0.50129 0.06594 0.89693 1.84900
O 	O 	0.58860 0.07330 0.72140 -0.50800
O 	O 	0.57760 0.93010 0.97980 -0.51500
O 	O 	0.58650 0.02470 0.83610 -0.52500
O 	O 	0.92190 0.40610 0.88840 -0.50500
O 	O 	0.92610 0.32880 0.99920 -0.52300
C 	C 	0.61730 0.07310 0.79100 0.43900
C 	C 	0.79460 0.20040 0.93520 0.05200
H 	H 	0.81640 0.20300 0.98740 0.01200
C 	C 	0.89870 0.33590 0.92900 0.50200
C 	C 	0.72620 0.13990 0.90410 -0.06100
H 	H 	0.70140 0.10480 0.93510 0.03800
C 	C 	0.69460 0.13150 0.82610 -0.08900
C 	C 	0.83150 0.25730 0.89060 -0.20100
C 	C 	0.73310 0.18180 0.78040 -0.10900
H 	H 	0.71330 0.17350 0.72840 0.06600
C 	C 	0.80180 0.24520 0.81230 0.15900
N 	N 	0.83480 0.29470 0.76140 -0.25600
H 	H 	0.80470 0.28520 0.71580 0.12300
O 	O 	0.59490 0.81910 0.08010 -0.48700
C 	C 	0.68340 0.79660 0.01160 -0.15600
C 	C 	0.72320 0.70290 0.05660 0.13500
C 	C 	0.71050 0.84110 0.95530 -0.05700
H 	H 	0.68340 0.90200 0.92490 0.05800
C 	C 	0.61420 0.85090 0.02430 0.45100
N 	N 	0.70020 0.64440 0.11030 -0.29000
H 	H 	0.69440 0.69360 0.14370 0.14100
H 	H 	0.73560 0.59390 0.13290 0.13500
H 	H 	0.87300 0.36500 0.77500 0.12000
Ho	Ho	0.00129 0.56594 0.89693 1.85500
O 	O 	0.08860 0.57330 0.72140 -0.50800
O 	O 	0.07760 0.43010 0.97980 -0.52500
O 	O 	0.08650 0.52470 0.83610 -0.52500
O 	O 	0.42190 0.90610 0.88840 -0.50400
O 	O 	0.42610 0.82880 0.99920 -0.52300
C 	C 	0.11730 0.57310 0.79100 0.43900
C 	C 	0.29460 0.70040 0.93520 0.05200
H 	H 	0.31640 0.70300 0.98740 0.01200
C 	C 	0.39870 0.83590 0.92900 0.50100
C 	C 	0.22620 0.63990 0.90410 -0.06100
H 	H 	0.20140 0.60480 0.93510 0.03800
C 	C 	0.19460 0.63150 0.82610 -0.08900
C 	C 	0.33150 0.75730 0.89060 -0.20100
C 	C 	0.23310 0.68180 0.78040 -0.10900
H 	H 	0.21330 0.67350 0.72840 0.06600
C 	C 	0.30180 0.74520 0.81230 0.15900
N 	N 	0.33480 0.79470 0.76140 -0.25700
H 	H 	0.30470 0.78520 0.71580 0.12400
O 	O 	0.09490 0.31910 0.08010 -0.48600
C 	C 	0.18340 0.29660 0.01160 -0.14000
C 	C 	0.22320 0.20290 0.05660 0.12700
C 	C 	0.21050 0.34110 0.95530 -0.07800
H 	H 	0.18340 0.40200 0.92490 0.06300
C 	C 	0.11420 0.35090 0.02430 0.45900
N 	N 	0.20020 0.14440 0.11030 -0.28800
H 	H 	0.19440 0.19360 0.14370 0.14100
H 	H 	0.23560 0.09390 0.13290 0.13500
H 	H 	0.37300 0.86500 0.77500 0.12100
