data_crystal

_cell_length_a 18.18870
_cell_length_b 11.34160
_cell_length_c 18.68350
_cell_angle_alpha 90.00000
_cell_angle_beta  108.66300
_cell_angle_gamma 90.00000

_symmetry_space_group_name_	'P 1'
_symmetry_space_group_name_H-M	'P 1'

loop_
_symmetry_equiv_pos_as_xyz
  x,y,z

loop_
_atom_site_label
_atom_site_type_symbol
_atom_site_fract_x
_atom_site_fract_y
_atom_site_fract_z
_atom_site_charge
Y 	Y 	0.50124 0.06707 0.39611 2.39200
O 	O 	0.91140 0.42570 0.77850 -0.61100
O 	O 	0.42200 0.06740 0.52670 -0.62400
O 	O 	0.57910 0.08510 0.61230 -0.57500
O 	O 	0.91460 0.47020 0.66530 -0.64200
O 	O 	0.57480 0.16590 0.49960 -0.61400
O 	O 	0.40580 0.17160 0.42150 -0.59000
C 	C 	0.69800 0.24790 0.68920 0.15600
C 	C 	0.31660 0.20170 0.48980 -0.15200
C 	C 	0.70630 0.29760 0.56400 0.03800
H 	H 	0.68500 0.29490 0.51170 0.01500
C 	C 	0.77380 0.35890 0.59600 -0.05700
H 	H 	0.79790 0.39810 0.56580 0.03400
C 	C 	0.80630 0.36170 0.67550 -0.10500
C 	C 	0.28840 0.16080 0.54480 -0.07000
H 	H 	0.31500 0.10020 0.57590 0.06700
C 	C 	0.66780 0.23730 0.60970 -0.18800
C 	C 	0.22230 0.20510 0.55650 0.14000
C 	C 	0.38530 0.14370 0.47840 0.46500
C 	C 	0.60230 0.15860 0.57100 0.48600
C 	C 	0.76860 0.31600 0.71960 -0.09700
H 	H 	0.78820 0.32830 0.77140 0.06000
C 	C 	0.88540 0.42500 0.70920 0.50400
N 	N 	0.66550 0.20200 0.73840 -0.29200
H 	H 	0.68580 0.13300 0.75310 0.14100
H 	H 	0.67360 0.24640 0.77780 0.13200
N 	N 	0.19700 0.16500 0.61300 -0.27400
H 	H 	0.23540 0.14460 0.65400 0.11500
H 	H 	0.16710 0.21560 0.62920 0.14200
Y 	Y 	0.00124 0.56707 0.39611 2.39300
O 	O 	0.41140 0.92570 0.77850 -0.61200
O 	O 	0.92200 0.56740 0.52670 -0.62200
O 	O 	0.07910 0.58510 0.61230 -0.57400
O 	O 	0.41460 0.97020 0.66530 -0.64300
O 	O 	0.07480 0.66590 0.49960 -0.61200
O 	O 	0.90580 0.67160 0.42150 -0.58800
C 	C 	0.19800 0.74790 0.68920 0.15600
C 	C 	0.81660 0.70170 0.48980 -0.15100
C 	C 	0.20630 0.79760 0.56400 0.03800
H 	H 	0.18500 0.79490 0.51170 0.01600
C 	C 	0.27380 0.85890 0.59600 -0.05600
H 	H 	0.29790 0.89810 0.56580 0.03400
C 	C 	0.30630 0.86170 0.67550 -0.10600
C 	C 	0.78840 0.66080 0.54480 -0.07000
H 	H 	0.81500 0.60020 0.57590 0.06700
C 	C 	0.16780 0.73730 0.60970 -0.18800
C 	C 	0.72230 0.70510 0.55650 0.14000
C 	C 	0.88530 0.64370 0.47840 0.46500
C 	C 	0.10230 0.65860 0.57100 0.48600
C 	C 	0.26860 0.81600 0.71960 -0.09700
H 	H 	0.28820 0.82830 0.77140 0.05900
C 	C 	0.38540 0.92500 0.70920 0.50400
N 	N 	0.16550 0.70200 0.73840 -0.29200
H 	H 	0.18580 0.63300 0.75310 0.14000
H 	H 	0.17360 0.74640 0.77780 0.13100
N 	N 	0.69700 0.66500 0.61300 -0.27400
H 	H 	0.73540 0.64460 0.65400 0.11400
H 	H 	0.66710 0.71560 0.62920 0.14200
Y 	Y 	0.49876 0.06707 0.10389 2.39200
O 	O 	0.08860 0.42570 0.72150 -0.61100
O 	O 	0.57800 0.06740 0.97330 -0.61800
O 	O 	0.42090 0.08510 0.88770 -0.57400
O 	O 	0.08540 0.47020 0.83470 -0.64200
O 	O 	0.42520 0.16590 0.00040 -0.61800
O 	O 	0.59420 0.17160 0.07850 -0.58900
C 	C 	0.30200 0.24790 0.81080 0.15700
C 	C 	0.68340 0.20170 0.01020 -0.15900
C 	C 	0.29370 0.29760 0.93600 0.03900
H 	H 	0.31500 0.29490 0.98830 0.01500
C 	C 	0.22620 0.35890 0.90400 -0.05700
H 	H 	0.20210 0.39810 0.93420 0.03400
C 	C 	0.19370 0.36170 0.82450 -0.10500
C 	C 	0.71160 0.16080 0.95520 -0.06100
H 	H 	0.68500 0.10020 0.92410 0.06500
C 	C 	0.33220 0.23730 0.89030 -0.18900
C 	C 	0.77770 0.20510 0.94350 0.13600
C 	C 	0.61470 0.14370 0.02160 0.46100
C 	C 	0.39770 0.15860 0.92900 0.49000
C 	C 	0.23140 0.31600 0.78040 -0.09700
H 	H 	0.21180 0.32830 0.72860 0.06000
C 	C 	0.11460 0.42500 0.79080 0.50400
N 	N 	0.33450 0.20200 0.76160 -0.29200
H 	H 	0.31420 0.13300 0.74690 0.14100
H 	H 	0.32640 0.24640 0.72220 0.13200
N 	N 	0.80300 0.16500 0.88700 -0.27300
H 	H 	0.76460 0.14460 0.84600 0.11500
H 	H 	0.83290 0.21560 0.87080 0.14200
Y 	Y 	0.99876 0.56707 0.10389 2.39300
O 	O 	0.58860 0.92570 0.72150 -0.61200
O 	O 	0.07800 0.56740 0.97330 -0.62600
O 	O 	0.92090 0.58510 0.88770 -0.57300
O 	O 	0.58540 0.97020 0.83470 -0.64400
O 	O 	0.92520 0.66590 0.00040 -0.61400
O 	O 	0.09420 0.67160 0.07850 -0.58700
C 	C 	0.80200 0.74790 0.81080 0.15700
C 	C 	0.18340 0.70170 0.01020 -0.14500
C 	C 	0.79370 0.79760 0.93600 0.03800
H 	H 	0.81500 0.79490 0.98830 0.01500
C 	C 	0.72620 0.85890 0.90400 -0.05600
H 	H 	0.70210 0.89810 0.93420 0.03300
C 	C 	0.69370 0.86170 0.82450 -0.10600
C 	C 	0.21160 0.66080 0.95520 -0.07900
H 	H 	0.18500 0.60020 0.92410 0.07000
C 	C 	0.83220 0.73730 0.89030 -0.18800
C 	C 	0.27770 0.70510 0.94350 0.14400
C 	C 	0.11470 0.64370 0.02160 0.46600
C 	C 	0.89770 0.65860 0.92900 0.48700
C 	C 	0.73140 0.81600 0.78040 -0.09700
H 	H 	0.71180 0.82830 0.72860 0.06000
C 	C 	0.61460 0.92500 0.79080 0.50400
N 	N 	0.83450 0.70200 0.76160 -0.29200
H 	H 	0.81420 0.63300 0.74690 0.14000
H 	H 	0.82640 0.74640 0.72220 0.13200
N 	N 	0.30300 0.66500 0.88700 -0.27600
H 	H 	0.26460 0.64460 0.84600 0.11500
H 	H 	0.33290 0.71560 0.87080 0.14200
Y 	Y 	0.49876 0.93293 0.60389 2.39300
O 	O 	0.08860 0.57430 0.22150 -0.61000
O 	O 	0.57800 0.93260 0.47330 -0.62300
O 	O 	0.42090 0.91490 0.38770 -0.57400
O 	O 	0.08540 0.52980 0.33470 -0.64100
O 	O 	0.42520 0.83410 0.50040 -0.61300
O 	O 	0.59420 0.82840 0.57850 -0.58900
C 	C 	0.30200 0.75210 0.31080 0.15700
C 	C 	0.68340 0.79830 0.51020 -0.15100
C 	C 	0.29370 0.70240 0.43600 0.03900
H 	H 	0.31500 0.70510 0.48830 0.01500
C 	C 	0.22620 0.64110 0.40400 -0.05700
H 	H 	0.20210 0.60190 0.43420 0.03400
C 	C 	0.19370 0.63830 0.32450 -0.10500
C 	C 	0.71160 0.83920 0.45520 -0.07000
H 	H 	0.68500 0.89980 0.42410 0.06700
C 	C 	0.33220 0.76270 0.39030 -0.18800
C 	C 	0.77770 0.79490 0.44350 0.14000
C 	C 	0.61470 0.85630 0.52160 0.46500
C 	C 	0.39770 0.84140 0.42900 0.48600
C 	C 	0.23140 0.68400 0.28040 -0.09700
H 	H 	0.21180 0.67170 0.22860 0.06000
C 	C 	0.11460 0.57500 0.29080 0.50400
N 	N 	0.33450 0.79800 0.26160 -0.29200
H 	H 	0.31420 0.86700 0.24690 0.14100
H 	H 	0.32640 0.75360 0.22220 0.13200
N 	N 	0.80300 0.83500 0.38700 -0.27400
H 	H 	0.76460 0.85540 0.34600 0.11500
H 	H 	0.83290 0.78440 0.37080 0.14200
Y 	Y 	0.99876 0.43293 0.60389 2.39300
O 	O 	0.58860 0.07430 0.22150 -0.61200
O 	O 	0.07800 0.43260 0.47330 -0.62200
O 	O 	0.92090 0.41490 0.38770 -0.57400
O 	O 	0.58540 0.02980 0.33470 -0.64300
O 	O 	0.92520 0.33410 0.50040 -0.61200
O 	O 	0.09420 0.32840 0.57850 -0.58800
C 	C 	0.80200 0.25210 0.31080 0.15600
C 	C 	0.18340 0.29830 0.51020 -0.15100
C 	C 	0.79370 0.20240 0.43600 0.03800
H 	H 	0.81500 0.20510 0.48830 0.01600
C 	C 	0.72620 0.14110 0.40400 -0.05600
H 	H 	0.70210 0.10190 0.43420 0.03400
C 	C 	0.69370 0.13830 0.32450 -0.10600
C 	C 	0.21160 0.33920 0.45520 -0.07000
H 	H 	0.18500 0.39980 0.42410 0.06700
C 	C 	0.83220 0.26270 0.39030 -0.18800
C 	C 	0.27770 0.29490 0.44350 0.14000
C 	C 	0.11470 0.35630 0.52160 0.46500
C 	C 	0.89770 0.34140 0.42900 0.48600
C 	C 	0.73140 0.18400 0.28040 -0.09700
H 	H 	0.71180 0.17170 0.22860 0.05900
C 	C 	0.61460 0.07500 0.29080 0.50400
N 	N 	0.83450 0.29800 0.26160 -0.29200
H 	H 	0.81420 0.36700 0.24690 0.14000
H 	H 	0.82640 0.25360 0.22220 0.13100
N 	N 	0.30300 0.33500 0.38700 -0.27400
H 	H 	0.26460 0.35540 0.34600 0.11400
H 	H 	0.33290 0.28440 0.37080 0.14200
Y 	Y 	0.50124 0.93293 0.89611 2.39200
O 	O 	0.91140 0.57430 0.27850 -0.61100
O 	O 	0.42200 0.93260 0.02670 -0.61800
O 	O 	0.57910 0.91490 0.11230 -0.57400
O 	O 	0.91460 0.52980 0.16530 -0.64200
O 	O 	0.57480 0.83410 0.99960 -0.61800
O 	O 	0.40580 0.82840 0.92150 -0.58900
C 	C 	0.69800 0.75210 0.18920 0.15700
C 	C 	0.31660 0.79830 0.98980 -0.15900
C 	C 	0.70630 0.70240 0.06400 0.03900
H 	H 	0.68500 0.70510 0.01170 0.01500
C 	C 	0.77380 0.64110 0.09600 -0.05700
H 	H 	0.79790 0.60190 0.06580 0.03400
C 	C 	0.80630 0.63830 0.17550 -0.10500
C 	C 	0.28840 0.83920 0.04480 -0.06100
H 	H 	0.31500 0.89980 0.07590 0.06500
C 	C 	0.66780 0.76270 0.10970 -0.18900
C 	C 	0.22230 0.79490 0.05650 0.13600
C 	C 	0.38530 0.85630 0.97840 0.46100
C 	C 	0.60230 0.84140 0.07100 0.49000
C 	C 	0.76860 0.68400 0.21960 -0.09700
H 	H 	0.78820 0.67170 0.27140 0.06000
C 	C 	0.88540 0.57500 0.20920 0.50400
N 	N 	0.66550 0.79800 0.23840 -0.29200
H 	H 	0.68580 0.86700 0.25310 0.14100
H 	H 	0.67360 0.75360 0.27780 0.13200
N 	N 	0.19700 0.83500 0.11300 -0.27300
H 	H 	0.23540 0.85540 0.15400 0.11500
H 	H 	0.16710 0.78440 0.12920 0.14200
Y 	Y 	0.00124 0.43293 0.89611 2.39300
O 	O 	0.41140 0.07430 0.27850 -0.61200
O 	O 	0.92200 0.43260 0.02670 -0.62600
O 	O 	0.07910 0.41490 0.11230 -0.57300
O 	O 	0.41460 0.02980 0.16530 -0.64400
O 	O 	0.07480 0.33410 0.99960 -0.61400
O 	O 	0.90580 0.32840 0.92150 -0.58700
C 	C 	0.19800 0.25210 0.18920 0.15700
C 	C 	0.81660 0.29830 0.98980 -0.14500
C 	C 	0.20630 0.20240 0.06400 0.03800
H 	H 	0.18500 0.20510 0.01170 0.01500
C 	C 	0.27380 0.14110 0.09600 -0.05600
H 	H 	0.29790 0.10190 0.06580 0.03300
C 	C 	0.30630 0.13830 0.17550 -0.10600
C 	C 	0.78840 0.33920 0.04480 -0.07900
H 	H 	0.81500 0.39980 0.07590 0.07000
C 	C 	0.16780 0.26270 0.10970 -0.18800
C 	C 	0.72230 0.29490 0.05650 0.14400
C 	C 	0.88530 0.35630 0.97840 0.46600
C 	C 	0.10230 0.34140 0.07100 0.48700
C 	C 	0.26860 0.18400 0.21960 -0.09700
H 	H 	0.28820 0.17170 0.27140 0.06000
C 	C 	0.38540 0.07500 0.20920 0.50400
N 	N 	0.16550 0.29800 0.23840 -0.29200
H 	H 	0.18580 0.36700 0.25310 0.14000
H 	H 	0.17360 0.25360 0.27780 0.13200
N 	N 	0.69700 0.33500 0.11300 -0.27600
H 	H 	0.73540 0.35540 0.15400 0.11500
H 	H 	0.66710 0.28440 0.12920 0.14200
