data_crystal

_cell_length_a 13.80900
_cell_length_b 13.80900
_cell_length_c 14.83600
_cell_angle_alpha 90.00000
_cell_angle_beta  90.00000
_cell_angle_gamma 120.00000

_symmetry_space_group_name_	'P 1'
_symmetry_space_group_name_H-M	'P 1'

loop_
_symmetry_equiv_pos_as_xyz
  x,y,z

loop_
_atom_site_label
_atom_site_type_symbol
_atom_site_fract_x
_atom_site_fract_y
_atom_site_fract_z
_atom_site_charge
Al	Al	0.99690 0.22560 0.10340 2.39800
P 	P 	0.99650 0.22450 0.89120 0.81200
O 	O 	0.99600 0.25510 0.99090 -0.82200
O 	O 	0.88380 0.12270 0.86460 -0.77300
O 	O 	0.08920 0.19560 0.87290 -0.82900
O 	O 	0.01400 0.32380 0.83220 -0.77200
Al	Al	0.66357 0.55893 0.43673 2.39800
P 	P 	0.66317 0.55783 0.22453 0.80000
O 	O 	0.66267 0.58843 0.32423 -0.83000
O 	O 	0.55047 0.45603 0.19793 -0.77900
O 	O 	0.75587 0.52893 0.20623 -0.82400
O 	O 	0.68067 0.65713 0.16553 -0.76500
Al	Al	0.33023 0.89227 0.77007 2.39800
P 	P 	0.32983 0.89117 0.55787 0.80000
O 	O 	0.32933 0.92177 0.65757 -0.83100
O 	O 	0.21713 0.78937 0.53127 -0.77800
O 	O 	0.42253 0.86227 0.53957 -0.82300
O 	O 	0.34733 0.99047 0.49887 -0.76400
Al	Al	0.77440 0.77130 0.10340 2.39800
P 	P 	0.77550 0.77200 0.89120 0.80000
O 	O 	0.74490 0.74090 0.99090 -0.83200
O 	O 	0.87730 0.76110 0.86460 -0.77600
O 	O 	0.80440 0.89360 0.87290 -0.82500
O 	O 	0.67620 0.69020 0.83220 -0.76500
Al	Al	0.44107 0.10463 0.43673 2.39800
P 	P 	0.44217 0.10533 0.22453 0.80000
O 	O 	0.41157 0.07423 0.32423 -0.83100
O 	O 	0.54397 0.09443 0.19793 -0.78000
O 	O 	0.47107 0.22693 0.20623 -0.82400
O 	O 	0.34287 0.02353 0.16553 -0.76800
Al	Al	0.10773 0.43797 0.77007 2.39800
P 	P 	0.10883 0.43867 0.55787 0.80000
O 	O 	0.07823 0.40757 0.65757 -0.83100
O 	O 	0.21063 0.42777 0.53127 -0.77800
O 	O 	0.13773 0.56027 0.53957 -0.82300
O 	O 	0.00953 0.35687 0.49887 -0.76400
Al	Al	0.22870 0.00310 0.10340 2.39700
P 	P 	0.22800 0.00350 0.89120 0.81000
O 	O 	0.25910 0.00400 0.99090 -0.82900
O 	O 	0.23890 0.11620 0.86460 -0.77800
O 	O 	0.10640 0.91080 0.87290 -0.83300
O 	O 	0.30980 0.98600 0.83220 -0.77200
Al	Al	0.89537 0.33643 0.43673 2.39800
P 	P 	0.89467 0.33683 0.22453 0.80000
O 	O 	0.92577 0.33733 0.32423 -0.83100
O 	O 	0.90557 0.44953 0.19793 -0.78000
O 	O 	0.77307 0.24413 0.20623 -0.82500
O 	O 	0.97647 0.31933 0.16553 -0.77000
Al	Al	0.56203 0.66977 0.77007 2.39800
P 	P 	0.56133 0.67017 0.55787 0.80000
O 	O 	0.59243 0.67067 0.65757 -0.83000
O 	O 	0.57223 0.78287 0.53127 -0.77800
O 	O 	0.43973 0.57747 0.53957 -0.82300
O 	O 	0.64313 0.65267 0.49887 -0.76500
Al	Al	0.00310 0.77440 0.89660 2.39700
P 	P 	0.00350 0.77550 0.10880 0.81100
O 	O 	0.00400 0.74490 0.00910 -0.82300
O 	O 	0.11620 0.87730 0.13540 -0.77400
O 	O 	0.91080 0.80440 0.12710 -0.82900
O 	O 	0.98600 0.67620 0.16780 -0.77200
Al	Al	0.66977 0.10773 0.22993 2.39800
P 	P 	0.67017 0.10883 0.44213 0.80000
O 	O 	0.67067 0.07823 0.34243 -0.83100
O 	O 	0.78287 0.21063 0.46873 -0.77800
O 	O 	0.57747 0.13773 0.46043 -0.82300
O 	O 	0.65267 0.00953 0.50113 -0.76400
Al	Al	0.33643 0.44107 0.56327 2.39800
P 	P 	0.33683 0.44217 0.77547 0.80000
O 	O 	0.33733 0.41157 0.67577 -0.83000
O 	O 	0.44953 0.54397 0.80207 -0.77900
O 	O 	0.24413 0.47107 0.79377 -0.82400
O 	O 	0.31933 0.34287 0.83447 -0.76500
Al	Al	0.22560 0.22870 0.89660 2.39800
P 	P 	0.22450 0.22800 0.10880 0.80000
O 	O 	0.25510 0.25910 0.00910 -0.83200
O 	O 	0.12270 0.23890 0.13540 -0.77600
O 	O 	0.19560 0.10640 0.12710 -0.82500
O 	O 	0.32380 0.30980 0.16780 -0.76500
Al	Al	0.89227 0.56203 0.22993 2.39800
P 	P 	0.89117 0.56133 0.44213 0.80000
O 	O 	0.92177 0.59243 0.34243 -0.83100
O 	O 	0.78937 0.57223 0.46873 -0.77800
O 	O 	0.86227 0.43973 0.46043 -0.82300
O 	O 	0.99047 0.64313 0.50113 -0.76400
Al	Al	0.55893 0.89537 0.56327 2.39800
P 	P 	0.55783 0.89467 0.77547 0.80000
O 	O 	0.58843 0.92577 0.67577 -0.83100
O 	O 	0.45603 0.90557 0.80207 -0.78000
O 	O 	0.52893 0.77307 0.79377 -0.82400
O 	O 	0.65713 0.97647 0.83447 -0.76800
Al	Al	0.77130 0.99690 0.89660 2.39700
P 	P 	0.77200 0.99650 0.10880 0.81000
O 	O 	0.74090 0.99600 0.00910 -0.82900
O 	O 	0.76110 0.88380 0.13540 -0.77800
O 	O 	0.89360 0.08920 0.12710 -0.83300
O 	O 	0.69020 0.01400 0.16780 -0.77200
Al	Al	0.43797 0.33023 0.22993 2.39800
P 	P 	0.43867 0.32983 0.44213 0.80000
O 	O 	0.40757 0.32933 0.34243 -0.83000
O 	O 	0.42777 0.21713 0.46873 -0.77800
O 	O 	0.56027 0.42253 0.46043 -0.82300
O 	O 	0.35687 0.34733 0.50113 -0.76500
Al	Al	0.10463 0.66357 0.56327 2.39800
P 	P 	0.10533 0.66317 0.77547 0.80000
O 	O 	0.07423 0.66267 0.67577 -0.83100
O 	O 	0.09443 0.55047 0.80207 -0.78000
O 	O 	0.22693 0.75587 0.79377 -0.82500
O 	O 	0.02353 0.68067 0.83447 -0.77000
