data_crystal

_cell_length_a 15.22990
_cell_length_b 15.22990
_cell_length_c 18.51410
_cell_angle_alpha 76.08200
_cell_angle_beta  76.08200
_cell_angle_gamma 68.20430

_symmetry_space_group_name_	'P 1'
_symmetry_space_group_name_H-M	'P 1'

loop_
_symmetry_equiv_pos_as_xyz
  x,y,z

loop_
_atom_site_label
_atom_site_type_symbol
_atom_site_fract_x
_atom_site_fract_y
_atom_site_fract_z
_atom_site_charge
Ho	Ho	0.96184 0.04366 0.10434 1.89100
Ho	Ho	0.95634 0.03816 0.39566 1.90000
Ho	Ho	0.03816 0.95634 0.89566 1.89100
Ho	Ho	0.04366 0.96184 0.60434 1.90000
H 	H 	0.98690 0.28550 0.78680 0.00000
H 	H 	0.97920 0.43960 0.75630 0.08800
H 	H 	0.95950 0.44930 0.97170 0.09100
H 	H 	0.96690 0.29450 0.00350 -0.04100
H 	H 	0.65310 0.07670 0.09340 0.00000
H 	H 	0.50670 0.06770 0.09100 0.07600
H 	H 	0.61690 0.95890 0.90240 0.07900
H 	H 	0.76280 0.96700 0.90390 0.01100
H 	H 	0.89510 0.76250 0.90670 -0.00500
H 	H 	0.88400 0.61200 0.93530 0.08200
H 	H 	0.04840 0.55640 0.73570 0.08100
H 	H 	0.05100 0.70760 0.70630 -0.00900
H 	H 	0.71450 0.01310 0.71320 0.00200
H 	H 	0.56040 0.02080 0.74370 0.08500
H 	H 	0.55070 0.04050 0.52830 0.08500
H 	H 	0.70550 0.03310 0.49650 -0.03000
H 	H 	0.92330 0.34690 0.40660 -0.00200
H 	H 	0.93230 0.49330 0.40900 0.07600
H 	H 	0.04110 0.38310 0.59760 0.07900
H 	H 	0.03300 0.23720 0.59610 0.00900
H 	H 	0.23750 0.10490 0.59330 -0.00600
H 	H 	0.38800 0.11600 0.56470 0.08300
H 	H 	0.44360 0.95160 0.76430 0.08100
H 	H 	0.29240 0.94900 0.79370 -0.01000
H 	H 	0.01310 0.71450 0.21320 -0.00100
H 	H 	0.02080 0.56040 0.24370 0.08700
H 	H 	0.04050 0.55070 0.02830 0.09100
H 	H 	0.03310 0.70550 0.99650 -0.04100
H 	H 	0.34690 0.92330 0.90660 0.00000
H 	H 	0.49330 0.93230 0.90900 0.07600
H 	H 	0.38310 0.04110 0.09760 0.07900
H 	H 	0.23720 0.03300 0.09610 0.01100
H 	H 	0.10490 0.23750 0.09330 -0.00500
H 	H 	0.11600 0.38800 0.06470 0.08200
H 	H 	0.95160 0.44360 0.26430 0.08100
H 	H 	0.94900 0.29240 0.29370 -0.00900
H 	H 	0.28550 0.98690 0.28680 0.00200
H 	H 	0.43960 0.97920 0.25630 0.08500
H 	H 	0.44930 0.95950 0.47170 0.08500
H 	H 	0.29450 0.96690 0.50350 -0.03000
H 	H 	0.07670 0.65310 0.59340 -0.00200
H 	H 	0.06770 0.50670 0.59100 0.07600
H 	H 	0.95890 0.61690 0.40240 0.07900
H 	H 	0.96700 0.76280 0.40390 0.00900
H 	H 	0.76250 0.89510 0.40670 -0.00600
H 	H 	0.61200 0.88400 0.43530 0.08300
H 	H 	0.55640 0.04840 0.23570 0.08100
H 	H 	0.70760 0.05100 0.20630 -0.01000
C 	C 	0.99230 0.16630 0.91960 0.50600
C 	C 	0.98250 0.26910 0.90030 -0.23500
C 	C 	0.98290 0.31810 0.82460 0.12300
C 	C 	0.97780 0.41060 0.80660 -0.17300
C 	C 	0.97020 0.46480 0.85940 0.08100
C 	C 	0.96610 0.41610 0.93350 -0.19000
C 	C 	0.97120 0.32260 0.95290 0.15700
C 	C 	0.81910 0.03170 0.99910 0.51400
C 	C 	0.72450 0.02350 0.99790 -0.19900
C 	C 	0.64610 0.05230 0.05440 0.09400
C 	C 	0.55850 0.04530 0.05380 -0.15300
C 	C 	0.54690 0.00570 0.99900 0.06800
C 	C 	0.62430 0.98110 0.94250 -0.15300
C 	C 	0.71180 0.98740 0.94230 0.10700
C 	C 	0.98410 0.85030 0.78580 0.55100
C 	C 	0.97580 0.75220 0.80460 -0.22600
C 	C 	0.92590 0.72090 0.87200 0.11400
C 	C 	0.92020 0.62980 0.88980 -0.15700
C 	C 	0.96790 0.56390 0.84070 0.05800
C 	C 	0.01700 0.59760 0.77070 -0.16100
C 	C 	0.01950 0.68770 0.75340 0.10900
C 	C 	0.83370 0.00770 0.58040 0.50100
C 	C 	0.73090 0.01750 0.59970 -0.22500
C 	C 	0.68190 0.01710 0.67540 0.11400
C 	C 	0.58940 0.02220 0.69340 -0.16500
C 	C 	0.53520 0.02980 0.64060 0.07300
C 	C 	0.58390 0.03390 0.56650 -0.17700
C 	C 	0.67740 0.02880 0.54710 0.13600
C 	C 	0.96830 0.18090 0.50090 0.51100
C 	C 	0.97650 0.27550 0.50210 -0.20700
C 	C 	0.94770 0.35390 0.44560 0.10100
C 	C 	0.95470 0.44150 0.44620 -0.15100
C 	C 	0.99430 0.45310 0.50100 0.06400
C 	C 	0.01890 0.37570 0.55750 -0.15200
C 	C 	0.01260 0.28820 0.55770 0.11300
C 	C 	0.14970 0.01590 0.71420 0.55100
C 	C 	0.24780 0.02420 0.69540 -0.22800
C 	C 	0.27910 0.07410 0.62800 0.11500
C 	C 	0.37020 0.07980 0.61020 -0.16000
C 	C 	0.43610 0.03210 0.65930 0.06100
C 	C 	0.40240 0.98300 0.72930 -0.16200
C 	C 	0.31230 0.98050 0.74660 0.11200
C 	C 	0.00770 0.83370 0.08040 0.50600
C 	C 	0.01750 0.73090 0.09970 -0.23500
C 	C 	0.01710 0.68190 0.17540 0.12300
C 	C 	0.02220 0.58940 0.19340 -0.17300
C 	C 	0.02980 0.53520 0.14060 0.08100
C 	C 	0.03390 0.58390 0.06650 -0.19000
C 	C 	0.02880 0.67740 0.04710 0.15700
C 	C 	0.18090 0.96830 0.00090 0.51400
C 	C 	0.27550 0.97650 0.00210 -0.19900
C 	C 	0.35390 0.94770 0.94560 0.09400
C 	C 	0.44150 0.95470 0.94620 -0.15300
C 	C 	0.45310 0.99430 0.00100 0.06800
C 	C 	0.37570 0.01890 0.05750 -0.15300
C 	C 	0.28820 0.01260 0.05770 0.10700
C 	C 	0.01590 0.14970 0.21420 0.55100
C 	C 	0.02420 0.24780 0.19540 -0.22600
C 	C 	0.07410 0.27910 0.12800 0.11400
C 	C 	0.07980 0.37020 0.11020 -0.15700
C 	C 	0.03210 0.43610 0.15930 0.05800
C 	C 	0.98300 0.40240 0.22930 -0.16100
C 	C 	0.98050 0.31230 0.24660 0.10900
C 	C 	0.16630 0.99230 0.41960 0.50100
C 	C 	0.26910 0.98250 0.40030 -0.22500
C 	C 	0.31810 0.98290 0.32460 0.11400
C 	C 	0.41060 0.97780 0.30660 -0.16500
C 	C 	0.46480 0.97020 0.35940 0.07300
C 	C 	0.41610 0.96610 0.43350 -0.17700
C 	C 	0.32260 0.97120 0.45290 0.13600
C 	C 	0.03170 0.81910 0.49910 0.51100
C 	C 	0.02350 0.72450 0.49790 -0.20700
C 	C 	0.05230 0.64610 0.55440 0.10100
C 	C 	0.04530 0.55850 0.55380 -0.15100
C 	C 	0.00570 0.54690 0.49900 0.06400
C 	C 	0.98110 0.62430 0.44250 -0.15200
C 	C 	0.98740 0.71180 0.44230 0.11300
C 	C 	0.85030 0.98410 0.28580 0.55100
C 	C 	0.75220 0.97580 0.30460 -0.22800
C 	C 	0.72090 0.92590 0.37200 0.11500
C 	C 	0.62980 0.92020 0.38980 -0.16000
C 	C 	0.56390 0.96790 0.34070 0.06100
C 	C 	0.59760 0.01700 0.27070 -0.16200
C 	C 	0.68770 0.01950 0.25340 0.11200
O 	O 	0.98680 0.12900 0.98730 -0.56600
O 	O 	0.96076 0.89656 0.83900 -0.52900
O 	O 	0.83260 0.04400 0.06030 -0.52700
O 	O 	0.01950 0.87590 0.72090 -0.56400
O 	O 	0.98950 0.88010 0.13340 -0.47700
O 	O 	0.87770 0.02450 0.94050 -0.51500
O 	O 	0.87100 0.01320 0.51270 -0.56900
O 	O 	0.10344 0.03924 0.66100 -0.53000
O 	O 	0.95600 0.16740 0.43970 -0.52300
O 	O 	0.12410 0.98050 0.77910 -0.56300
O 	O 	0.11990 0.01050 0.36660 -0.47500
O 	O 	0.97550 0.12230 0.55950 -0.51700
O 	O 	0.01320 0.87100 0.01270 -0.56600
O 	O 	0.03924 0.10344 0.16100 -0.52900
O 	O 	0.16740 0.95600 0.93970 -0.52700
O 	O 	0.98050 0.12410 0.27910 -0.56400
O 	O 	0.01050 0.11990 0.86660 -0.47700
O 	O 	0.12230 0.97550 0.05950 -0.51500
O 	O 	0.12900 0.98680 0.48730 -0.56900
O 	O 	0.89656 0.96076 0.33900 -0.53000
O 	O 	0.04400 0.83260 0.56030 -0.52300
O 	O 	0.87590 0.01950 0.22090 -0.56300
O 	O 	0.88010 0.98950 0.63340 -0.47500
O 	O 	0.02450 0.87770 0.44050 -0.51700
