data_crystal

_cell_length_a 15.20400
_cell_length_b 15.20400
_cell_length_c 18.53540
_cell_angle_alpha 76.27240
_cell_angle_beta  76.27240
_cell_angle_gamma 68.39320

_symmetry_space_group_name_	'P 1'
_symmetry_space_group_name_H-M	'P 1'

loop_
_symmetry_equiv_pos_as_xyz
  x,y,z

loop_
_atom_site_label
_atom_site_type_symbol
_atom_site_fract_x
_atom_site_fract_y
_atom_site_fract_z
_atom_site_charge
Er	Er	0.04343 0.96215 0.10455 1.84000
Er	Er	0.03785 0.95657 0.39545 1.84900
Er	Er	0.95657 0.03785 0.89545 1.84000
Er	Er	0.96215 0.04343 0.60455 1.84900
H 	H 	0.07750 0.65430 0.09330 0.00200
H 	H 	0.06860 0.50700 0.09130 0.07500
H 	H 	0.95330 0.61710 0.90410 0.07600
H 	H 	0.97360 0.76080 0.90220 0.01800
H 	H 	0.29290 0.97010 0.00500 -0.03000
H 	H 	0.45410 0.95610 0.97240 0.08400
H 	H 	0.44060 0.97880 0.75720 0.08400
H 	H 	0.28260 0.98740 0.78890 0.00500
H 	H 	0.76590 0.89210 0.90640 0.00500
H 	H 	0.61300 0.88440 0.93620 0.07500
H 	H 	0.55500 0.04520 0.73530 0.07300
H 	H 	0.71100 0.04860 0.70530 0.00300
H 	H 	0.34570 0.92250 0.40670 -0.00000
H 	H 	0.49300 0.93140 0.40870 0.07500
H 	H 	0.38290 0.04670 0.59590 0.07600
H 	H 	0.23920 0.02640 0.59780 0.01600
H 	H 	0.02990 0.70710 0.49500 -0.02000
H 	H 	0.04390 0.54590 0.52760 0.08000
H 	H 	0.02120 0.55940 0.74280 0.08200
H 	H 	0.01260 0.71740 0.71110 0.00800
H 	H 	0.10790 0.23410 0.59360 0.00500
H 	H 	0.11560 0.38700 0.56380 0.07600
H 	H 	0.95480 0.44500 0.76470 0.07300
H 	H 	0.95140 0.28900 0.79470 0.00200
H 	H 	0.92250 0.34570 0.90670 0.00200
H 	H 	0.93140 0.49300 0.90870 0.07500
H 	H 	0.04670 0.38290 0.09590 0.07600
H 	H 	0.02640 0.23920 0.09780 0.01800
H 	H 	0.70710 0.02990 0.99500 -0.03000
H 	H 	0.54590 0.04390 0.02760 0.08400
H 	H 	0.55940 0.02120 0.24280 0.08400
H 	H 	0.71740 0.01260 0.21110 0.00500
H 	H 	0.23410 0.10790 0.09360 0.00500
H 	H 	0.38700 0.11560 0.06380 0.07500
H 	H 	0.44500 0.95480 0.26470 0.07300
H 	H 	0.28900 0.95140 0.29470 0.00300
H 	H 	0.65430 0.07750 0.59330 -0.00000
H 	H 	0.50700 0.06860 0.59130 0.07500
H 	H 	0.61710 0.95330 0.40410 0.07600
H 	H 	0.76080 0.97360 0.40220 0.01600
H 	H 	0.97010 0.29290 0.50500 -0.02000
H 	H 	0.95610 0.45410 0.47240 0.08000
H 	H 	0.97880 0.44060 0.25720 0.08200
H 	H 	0.98740 0.28260 0.28890 0.00800
H 	H 	0.89210 0.76590 0.40640 0.00500
H 	H 	0.88440 0.61300 0.43620 0.07600
H 	H 	0.04520 0.55500 0.23530 0.07300
H 	H 	0.04860 0.71100 0.20530 0.00200
C 	C 	0.03100 0.82000 0.99970 0.50500
C 	C 	0.02500 0.72400 0.99880 -0.19000
C 	C 	0.05310 0.64710 0.05440 0.09000
C 	C 	0.04610 0.55850 0.05410 -0.14700
C 	C 	0.00600 0.54620 0.99930 0.06300
C 	C 	0.97910 0.62350 0.94250 -0.14200
C 	C 	0.99020 0.71080 0.94190 0.09100
C 	C 	0.16700 0.99200 0.92080 0.49500
C 	C 	0.27030 0.98170 0.90030 -0.21700
C 	C 	0.32220 0.97180 0.95480 0.12600
C 	C 	0.41940 0.96440 0.93480 -0.16900
C 	C 	0.46470 0.96910 0.86030 0.07700
C 	C 	0.41160 0.97720 0.80750 -0.16100
C 	C 	0.31620 0.98280 0.82630 0.11100
C 	C 	0.85140 0.98340 0.78510 0.50600
C 	C 	0.75370 0.97410 0.80320 -0.19500
C 	C 	0.72360 0.92320 0.87230 0.08400
C 	C 	0.63150 0.91910 0.89020 -0.13800
C 	C 	0.56630 0.96550 0.84100 0.04800
C 	C 	0.59680 0.01480 0.76990 -0.13800
C 	C 	0.69060 0.01720 0.75230 0.08000
C 	C 	0.18000 0.96900 0.50030 0.50200
C 	C 	0.27600 0.97500 0.50120 -0.19800
C 	C 	0.35290 0.94690 0.44560 0.09700
C 	C 	0.44150 0.95390 0.44590 -0.14600
C 	C 	0.45380 0.99400 0.50070 0.05900
C 	C 	0.37650 0.02090 0.55750 -0.14000
C 	C 	0.28920 0.00980 0.55810 0.09700
C 	C 	0.00800 0.83300 0.57920 0.49000
C 	C 	0.01830 0.72970 0.59970 -0.20900
C 	C 	0.02820 0.67780 0.54520 0.10800
C 	C 	0.03560 0.58060 0.56520 -0.15900
C 	C 	0.03090 0.53530 0.63970 0.07100
C 	C 	0.02280 0.58840 0.69250 -0.15500
C 	C 	0.01720 0.68380 0.67370 0.10400
C 	C 	0.01660 0.14860 0.71490 0.50600
C 	C 	0.02590 0.24630 0.69680 -0.19700
C 	C 	0.07680 0.27640 0.62770 0.08500
C 	C 	0.08090 0.36850 0.60980 -0.14000
C 	C 	0.03450 0.43370 0.65900 0.05000
C 	C 	0.98520 0.40320 0.73010 -0.13800
C 	C 	0.98280 0.30940 0.74770 0.08200
C 	C 	0.96900 0.18000 0.00030 0.50500
C 	C 	0.97500 0.27600 0.00120 -0.19000
C 	C 	0.94690 0.35290 0.94560 0.09000
C 	C 	0.95390 0.44150 0.94590 -0.14700
C 	C 	0.99400 0.45380 0.00070 0.06300
C 	C 	0.02090 0.37650 0.05750 -0.14200
C 	C 	0.00980 0.28920 0.05810 0.09100
C 	C 	0.83300 0.00800 0.07920 0.49500
C 	C 	0.72970 0.01830 0.09970 -0.21700
C 	C 	0.67780 0.02820 0.04520 0.12600
C 	C 	0.58060 0.03560 0.06520 -0.16900
C 	C 	0.53530 0.03090 0.13970 0.07700
C 	C 	0.58840 0.02280 0.19250 -0.16100
C 	C 	0.68380 0.01720 0.17370 0.11100
C 	C 	0.14860 0.01660 0.21490 0.50600
C 	C 	0.24630 0.02590 0.19680 -0.19500
C 	C 	0.27640 0.07680 0.12770 0.08400
C 	C 	0.36850 0.08090 0.10980 -0.13800
C 	C 	0.43370 0.03450 0.15900 0.04800
C 	C 	0.40320 0.98520 0.23010 -0.13800
C 	C 	0.30940 0.98280 0.24770 0.08000
C 	C 	0.82000 0.03100 0.49970 0.50200
C 	C 	0.72400 0.02500 0.49880 -0.19800
C 	C 	0.64710 0.05310 0.55440 0.09700
C 	C 	0.55850 0.04610 0.55410 -0.14600
C 	C 	0.54620 0.00600 0.49930 0.05900
C 	C 	0.62350 0.97910 0.44250 -0.14000
C 	C 	0.71080 0.99020 0.44190 0.09700
C 	C 	0.99200 0.16700 0.42080 0.49000
C 	C 	0.98170 0.27030 0.40030 -0.20900
C 	C 	0.97180 0.32220 0.45480 0.10800
C 	C 	0.96440 0.41940 0.43480 -0.15900
C 	C 	0.96910 0.46470 0.36030 0.07100
C 	C 	0.97720 0.41160 0.30750 -0.15500
C 	C 	0.98280 0.31620 0.32630 0.10400
C 	C 	0.98340 0.85140 0.28510 0.50600
C 	C 	0.97410 0.75370 0.30320 -0.19700
C 	C 	0.92320 0.72360 0.37230 0.08500
C 	C 	0.91910 0.63150 0.39020 -0.14000
C 	C 	0.96550 0.56630 0.34100 0.05000
C 	C 	0.01480 0.59680 0.26990 -0.13800
C 	C 	0.01720 0.69060 0.25230 0.08200
O 	O 	0.04280 0.83360 0.06040 -0.52100
O 	O 	0.97590 0.12090 0.05960 -0.50400
O 	O 	0.12910 0.98710 0.98920 -0.55200
O 	O 	0.12140 0.00980 0.86860 -0.46600
O 	O 	0.90032 0.95792 0.83790 -0.50200
O 	O 	0.87850 0.01730 0.71900 -0.54600
O 	O 	0.16640 0.95720 0.43960 -0.51800
O 	O 	0.87910 0.02410 0.44040 -0.50600
O 	O 	0.01290 0.87090 0.51080 -0.55500
O 	O 	0.99020 0.87860 0.63140 -0.46300
O 	O 	0.04208 0.09968 0.66210 -0.50300
O 	O 	0.98270 0.12150 0.78100 -0.54400
O 	O 	0.95720 0.16640 0.93960 -0.52100
O 	O 	0.02410 0.87910 0.94040 -0.50400
O 	O 	0.87090 0.01290 0.01080 -0.55200
O 	O 	0.87860 0.99020 0.13140 -0.46600
O 	O 	0.09968 0.04208 0.16210 -0.50200
O 	O 	0.12150 0.98270 0.28100 -0.54600
O 	O 	0.83360 0.04280 0.56040 -0.51800
O 	O 	0.12090 0.97590 0.55960 -0.50600
O 	O 	0.98710 0.12910 0.48920 -0.55500
O 	O 	0.00980 0.12140 0.36860 -0.46300
O 	O 	0.95792 0.90032 0.33790 -0.50300
O 	O 	0.01730 0.87850 0.21900 -0.54400
