data_crystal

_cell_length_a 15.16500
_cell_length_b 26.90700
_cell_length_c 23.71500
_cell_angle_alpha 90.00000
_cell_angle_beta  106.91000
_cell_angle_gamma 90.00000

_symmetry_space_group_name_	'P 1'
_symmetry_space_group_name_H-M	'P 1'

loop_
_symmetry_equiv_pos_as_xyz
  x,y,z

loop_
_atom_site_label
_atom_site_type_symbol
_atom_site_fract_x
_atom_site_fract_y
_atom_site_fract_z
_atom_site_charge
W 	W 	0.36878 0.62042 0.54343 0.39700
Cu	Cu	0.27167 0.55000 0.57722 0.75700
Cu	Cu	0.26015 0.65649 0.60510 0.75900
Cu	Cu	0.19231 0.62327 0.48064 0.76400
S 	S 	0.28350 0.55822 0.48705 -0.58800
Cu	Cu	0.16079 0.76883 0.74164 0.81100
S 	S 	0.37164 0.60023 0.63817 -0.56400
S 	S 	0.27451 0.68886 0.52167 -0.56000
Cu	Cu	0.13589 0.39661 0.63495 0.80600
N 	N 	0.57560 0.58550 0.55400 -0.29100
N 	N 	0.48520 0.67670 0.58560 -0.16800
N 	N 	0.51160 0.64290 0.46950 -0.29700
N 	N 	0.49270 0.56850 0.55780 -0.16600
C 	C 	0.06930 0.61990 0.43100 -0.28000
N 	N 	0.21660 0.49180 0.59810 -0.24100
C 	C 	0.18450 0.45600 0.61140 -0.26900
N 	N 	0.41850 0.63950 0.46400 -0.16500
N 	N 	0.56750 0.67610 0.57120 -0.29700
N 	N 	0.24160 0.82080 0.78420 -0.22200
N 	N 	0.99500 0.61360 0.40330 -0.22300
N 	N 	0.19790 0.72180 0.69210 -0.22100
C 	C 	0.21900 0.69520 0.65910 -0.26700
C 	C 	0.64240 0.55130 0.57300 0.35900
C 	C 	0.28930 0.85070 0.81250 -0.26400
C 	C 	0.60130 0.50930 0.58790 -0.45600
H 	H 	0.62990 0.47910 0.60110 0.18300
C 	C 	0.50930 0.52080 0.57900 0.38500
C 	C 	0.62390 0.71210 0.60150 0.34600
C 	C 	0.52340 0.65160 0.41620 0.33500
C 	C 	0.44040 0.48600 0.59000 -0.86700
H 	H 	0.41460 0.49990 0.61890 0.23200
H 	H 	0.46970 0.45490 0.60410 0.26900
H 	H 	0.39230 0.48050 0.55390 0.24800
C 	C 	0.37380 0.64700 0.40670 0.32700
C 	C 	0.43780 0.65540 0.37610 -0.43200
H 	H 	0.42510 0.66230 0.33610 0.11700
C 	C 	0.49380 0.71450 0.62480 0.36900
C 	C 	0.74080 0.55890 0.57500 -0.80200
H 	H 	0.74520 0.56170 0.53550 0.20900
H 	H 	0.77680 0.53100 0.59420 0.23300
H 	H 	0.76360 0.58870 0.59640 0.20800
C 	C 	0.42290 0.73040 0.65440 -0.84000
H 	H 	0.37160 0.74550 0.62580 0.24100
H 	H 	0.44990 0.75400 0.68490 0.24600
H 	H 	0.40200 0.70190 0.67120 0.23600
C 	C 	0.03730 0.76840 0.74790 -0.24300
B 	B 	0.58440 0.63760 0.52860 0.71300
C 	C 	0.27180 0.64910 0.37960 -0.77500
H 	H 	0.24650 0.61630 0.37830 0.21000
H 	H 	0.25830 0.66200 0.34020 0.21300
H 	H 	0.24500 0.67030 0.40270 0.20400
C 	C 	0.57910 0.73560 0.63520 -0.48100
H 	H 	0.60210 0.76170 0.66100 0.15800
C 	C 	0.61580 0.65960 0.40720 -0.78400
H 	H 	0.64220 0.68980 0.42640 0.20200
H 	H 	0.60920 0.66210 0.36580 0.21900
H 	H 	0.65540 0.63220 0.42350 0.19800
C 	C 	0.71790 0.72100 0.59380 -0.76500
H 	H 	0.73870 0.75370 0.60750 0.20100
H 	H 	0.71450 0.71800 0.55290 0.19100
H 	H 	0.76050 0.69680 0.61620 0.19000
W 	W 	0.86878 0.12042 0.54343 0.39500
Cu	Cu	0.77167 0.05000 0.57722 0.75600
Cu	Cu	0.76015 0.15649 0.60510 0.75800
Cu	Cu	0.69231 0.12327 0.48064 0.76300
S 	S 	0.78350 0.05822 0.48705 -0.58900
Cu	Cu	0.66079 0.26883 0.74164 0.81000
S 	S 	0.87164 0.10023 0.63817 -0.56500
S 	S 	0.77451 0.18886 0.52167 -0.56000
Cu	Cu	0.63589 0.89661 0.63495 0.80600
N 	N 	0.07560 0.08550 0.55400 -0.29100
N 	N 	0.98520 0.17670 0.58560 -0.16800
N 	N 	0.01160 0.14290 0.46950 -0.29700
N 	N 	0.99270 0.06850 0.55780 -0.16600
C 	C 	0.56930 0.11990 0.43100 -0.27900
N 	N 	0.71660 0.99180 0.59810 -0.24100
C 	C 	0.68450 0.95600 0.61140 -0.26900
N 	N 	0.91850 0.13950 0.46400 -0.16500
N 	N 	0.06750 0.17610 0.57120 -0.29700
N 	N 	0.74160 0.32080 0.78420 -0.22200
N 	N 	0.49500 0.11360 0.40330 -0.22300
N 	N 	0.69790 0.22180 0.69210 -0.22100
C 	C 	0.71900 0.19520 0.65910 -0.26700
C 	C 	0.14240 0.05130 0.57300 0.36000
C 	C 	0.78930 0.35070 0.81250 -0.26400
C 	C 	0.10130 0.00930 0.58790 -0.45700
H 	H 	0.12990 0.97910 0.60110 0.18300
C 	C 	0.00930 0.02080 0.57900 0.38500
C 	C 	0.12390 0.21210 0.60150 0.34600
C 	C 	0.02340 0.15160 0.41620 0.33400
C 	C 	0.94040 0.98600 0.59000 -0.86700
H 	H 	0.91460 0.99990 0.61890 0.23200
H 	H 	0.96970 0.95490 0.60410 0.26900
H 	H 	0.89230 0.98050 0.55390 0.24800
C 	C 	0.87380 0.14700 0.40670 0.32700
C 	C 	0.93780 0.15540 0.37610 -0.43200
H 	H 	0.92510 0.16230 0.33610 0.11700
C 	C 	0.99380 0.21450 0.62480 0.36900
C 	C 	0.24080 0.05890 0.57500 -0.80300
H 	H 	0.24520 0.06170 0.53550 0.20900
H 	H 	0.27680 0.03100 0.59420 0.23300
H 	H 	0.26360 0.08870 0.59640 0.20800
C 	C 	0.92290 0.23040 0.65440 -0.83900
H 	H 	0.87160 0.24550 0.62580 0.24100
H 	H 	0.94990 0.25400 0.68490 0.24600
H 	H 	0.90200 0.20190 0.67120 0.23600
C 	C 	0.53730 0.26840 0.74790 -0.24400
B 	B 	0.08440 0.13760 0.52860 0.71200
C 	C 	0.77180 0.14910 0.37960 -0.77500
H 	H 	0.74650 0.11630 0.37830 0.21000
H 	H 	0.75830 0.16200 0.34020 0.21300
H 	H 	0.74500 0.17030 0.40270 0.20400
C 	C 	0.07910 0.23560 0.63520 -0.48000
H 	H 	0.10210 0.26170 0.66100 0.15700
C 	C 	0.11580 0.15960 0.40720 -0.78300
H 	H 	0.14220 0.18980 0.42640 0.20100
H 	H 	0.10920 0.16210 0.36580 0.21900
H 	H 	0.15540 0.13220 0.42350 0.19800
C 	C 	0.21790 0.22100 0.59380 -0.76500
H 	H 	0.23870 0.25370 0.60750 0.20100
H 	H 	0.21450 0.21800 0.55290 0.19000
H 	H 	0.26050 0.19680 0.61620 0.19000
W 	W 	0.63122 0.62042 0.95657 0.39600
Cu	Cu	0.72833 0.55000 0.92278 0.75600
Cu	Cu	0.73985 0.65649 0.89490 0.75800
Cu	Cu	0.80769 0.62327 0.01936 0.76300
S 	S 	0.71650 0.55822 0.01295 -0.58900
Cu	Cu	0.83921 0.76883 0.75836 0.81000
S 	S 	0.62836 0.60023 0.86183 -0.56500
S 	S 	0.72549 0.68886 0.97833 -0.56000
Cu	Cu	0.86411 0.39661 0.86505 0.80600
N 	N 	0.42440 0.58550 0.94600 -0.29100
N 	N 	0.51480 0.67670 0.91440 -0.16800
N 	N 	0.48840 0.64290 0.03050 -0.29700
N 	N 	0.50730 0.56850 0.94220 -0.16600
C 	C 	0.93070 0.61990 0.06900 -0.27900
N 	N 	0.78340 0.49180 0.90190 -0.24100
C 	C 	0.81550 0.45600 0.88860 -0.26900
N 	N 	0.58150 0.63950 0.03600 -0.16500
N 	N 	0.43250 0.67610 0.92880 -0.29700
N 	N 	0.75840 0.82080 0.71580 -0.22200
N 	N 	0.00500 0.61360 0.09670 -0.22300
N 	N 	0.80210 0.72180 0.80790 -0.22100
C 	C 	0.78100 0.69520 0.84090 -0.26700
C 	C 	0.35760 0.55130 0.92700 0.36000
C 	C 	0.71070 0.85070 0.68750 -0.26400
C 	C 	0.39870 0.50930 0.91210 -0.45600
H 	H 	0.37010 0.47910 0.89890 0.18300
C 	C 	0.49070 0.52080 0.92100 0.38500
C 	C 	0.37610 0.71210 0.89850 0.34700
C 	C 	0.47660 0.65160 0.08380 0.33500
C 	C 	0.55960 0.48600 0.91000 -0.86700
H 	H 	0.58540 0.49990 0.88110 0.23200
H 	H 	0.53030 0.45490 0.89590 0.26900
H 	H 	0.60770 0.48050 0.94610 0.24800
C 	C 	0.62620 0.64700 0.09330 0.32700
C 	C 	0.56220 0.65540 0.12390 -0.43200
H 	H 	0.57490 0.66230 0.16390 0.11700
C 	C 	0.50620 0.71450 0.87520 0.36900
C 	C 	0.25920 0.55890 0.92500 -0.80300
H 	H 	0.25480 0.56170 0.96450 0.21000
H 	H 	0.22320 0.53100 0.90580 0.23300
H 	H 	0.23640 0.58870 0.90360 0.20800
C 	C 	0.57710 0.73040 0.84560 -0.84000
H 	H 	0.62840 0.74550 0.87420 0.24100
H 	H 	0.55010 0.75400 0.81510 0.24600
H 	H 	0.59800 0.70190 0.82880 0.23600
C 	C 	0.96270 0.76840 0.75210 -0.24400
B 	B 	0.41560 0.63760 0.97140 0.71300
C 	C 	0.72820 0.64910 0.12040 -0.77500
H 	H 	0.75350 0.61630 0.12170 0.21000
H 	H 	0.74170 0.66200 0.15980 0.21300
H 	H 	0.75500 0.67030 0.09730 0.20400
C 	C 	0.42090 0.73560 0.86480 -0.48100
H 	H 	0.39790 0.76170 0.83900 0.15800
C 	C 	0.38420 0.65960 0.09280 -0.78300
H 	H 	0.35780 0.68980 0.07360 0.20100
H 	H 	0.39080 0.66210 0.13420 0.21900
H 	H 	0.34460 0.63220 0.07650 0.19800
C 	C 	0.28210 0.72100 0.90620 -0.76600
H 	H 	0.26130 0.75370 0.89250 0.20100
H 	H 	0.28550 0.71800 0.94710 0.19100
H 	H 	0.23950 0.69680 0.88380 0.19100
W 	W 	0.13122 0.12042 0.95657 0.39500
Cu	Cu	0.22833 0.05000 0.92278 0.75600
Cu	Cu	0.23985 0.15649 0.89490 0.75800
Cu	Cu	0.30769 0.12327 0.01936 0.76300
S 	S 	0.21650 0.05822 0.01295 -0.58800
Cu	Cu	0.33921 0.26883 0.75836 0.81000
S 	S 	0.12836 0.10023 0.86183 -0.56500
S 	S 	0.22549 0.18886 0.97833 -0.56100
Cu	Cu	0.36411 0.89661 0.86505 0.80600
N 	N 	0.92440 0.08550 0.94600 -0.29100
N 	N 	0.01480 0.17670 0.91440 -0.16800
N 	N 	0.98840 0.14290 0.03050 -0.29600
N 	N 	0.00730 0.06850 0.94220 -0.16600
C 	C 	0.43070 0.11990 0.06900 -0.27900
N 	N 	0.28340 0.99180 0.90190 -0.24100
C 	C 	0.31550 0.95600 0.88860 -0.26900
N 	N 	0.08150 0.13950 0.03600 -0.16500
N 	N 	0.93250 0.17610 0.92880 -0.29700
N 	N 	0.25840 0.32080 0.71580 -0.22200
N 	N 	0.50500 0.11360 0.09670 -0.22300
N 	N 	0.30210 0.22180 0.80790 -0.22100
C 	C 	0.28100 0.19520 0.84090 -0.26700
C 	C 	0.85760 0.05130 0.92700 0.35900
C 	C 	0.21070 0.35070 0.68750 -0.26400
C 	C 	0.89870 0.00930 0.91210 -0.45700
H 	H 	0.87010 0.97910 0.89890 0.18300
C 	C 	0.99070 0.02080 0.92100 0.38300
C 	C 	0.87610 0.21210 0.89850 0.34600
C 	C 	0.97660 0.15160 0.08380 0.33600
C 	C 	0.05960 0.98600 0.91000 -0.86300
H 	H 	0.08540 0.99990 0.88110 0.23100
H 	H 	0.03030 0.95490 0.89590 0.26800
H 	H 	0.10770 0.98050 0.94610 0.24700
C 	C 	0.12620 0.14700 0.09330 0.32800
C 	C 	0.06220 0.15540 0.12390 -0.43400
H 	H 	0.07490 0.16230 0.16390 0.11700
C 	C 	0.00620 0.21450 0.87520 0.37000
C 	C 	0.75920 0.05890 0.92500 -0.80200
H 	H 	0.75480 0.06170 0.96450 0.20900
H 	H 	0.72320 0.03100 0.90580 0.23200
H 	H 	0.73640 0.08870 0.90360 0.20700
C 	C 	0.07710 0.23040 0.84560 -0.84000
H 	H 	0.12840 0.24550 0.87420 0.24100
H 	H 	0.05010 0.25400 0.81510 0.24600
H 	H 	0.09800 0.20190 0.82880 0.23600
C 	C 	0.46270 0.26840 0.75210 -0.24400
B 	B 	0.91560 0.13760 0.97140 0.71100
C 	C 	0.22820 0.14910 0.12040 -0.77600
H 	H 	0.25350 0.11630 0.12170 0.21000
H 	H 	0.24170 0.16200 0.15980 0.21300
H 	H 	0.25500 0.17030 0.09730 0.20400
C 	C 	0.92090 0.23560 0.86480 -0.48100
H 	H 	0.89790 0.26170 0.83900 0.15800
C 	C 	0.88420 0.15960 0.09280 -0.78500
H 	H 	0.85780 0.18980 0.07360 0.20200
H 	H 	0.89080 0.16210 0.13420 0.22000
H 	H 	0.84460 0.13220 0.07650 0.19900
C 	C 	0.78210 0.22100 0.90620 -0.76500
H 	H 	0.76130 0.25370 0.89250 0.20100
H 	H 	0.78550 0.21800 0.94710 0.19000
H 	H 	0.73950 0.19680 0.88380 0.19000
W 	W 	0.63122 0.37958 0.45657 0.39600
Cu	Cu	0.72833 0.45000 0.42278 0.75600
Cu	Cu	0.73985 0.34351 0.39490 0.75800
Cu	Cu	0.80769 0.37673 0.51936 0.76300
S 	S 	0.71650 0.44178 0.51295 -0.58900
Cu	Cu	0.83921 0.23117 0.25836 0.81000
S 	S 	0.62836 0.39977 0.36183 -0.56400
S 	S 	0.72549 0.31114 0.47833 -0.56000
Cu	Cu	0.86411 0.60339 0.36505 0.80600
N 	N 	0.42440 0.41450 0.44600 -0.29100
N 	N 	0.51480 0.32330 0.41440 -0.16800
N 	N 	0.48840 0.35710 0.53050 -0.29700
N 	N 	0.50730 0.43150 0.44220 -0.16600
C 	C 	0.93070 0.38010 0.56900 -0.28000
N 	N 	0.78340 0.50820 0.40190 -0.24100
C 	C 	0.81550 0.54400 0.38860 -0.26900
N 	N 	0.58150 0.36050 0.53600 -0.16500
N 	N 	0.43250 0.32390 0.42880 -0.29700
N 	N 	0.75840 0.17920 0.21580 -0.22200
N 	N 	0.00500 0.38640 0.59670 -0.22300
N 	N 	0.80210 0.27820 0.30790 -0.22100
C 	C 	0.78100 0.30480 0.34090 -0.26700
C 	C 	0.35760 0.44870 0.42700 0.35900
C 	C 	0.71070 0.14930 0.18750 -0.26400
C 	C 	0.39870 0.49070 0.41210 -0.45600
H 	H 	0.37010 0.52090 0.39890 0.18300
C 	C 	0.49070 0.47920 0.42100 0.38500
C 	C 	0.37610 0.28790 0.39850 0.34600
C 	C 	0.47660 0.34840 0.58380 0.33500
C 	C 	0.55960 0.51400 0.41000 -0.86700
H 	H 	0.58540 0.50010 0.38110 0.23200
H 	H 	0.53030 0.54510 0.39590 0.26900
H 	H 	0.60770 0.51950 0.44610 0.24800
C 	C 	0.62620 0.35300 0.59330 0.32700
C 	C 	0.56220 0.34460 0.62390 -0.43200
H 	H 	0.57490 0.33770 0.66390 0.11700
C 	C 	0.50620 0.28550 0.37520 0.36900
C 	C 	0.25920 0.44110 0.42500 -0.80200
H 	H 	0.25480 0.43830 0.46450 0.20900
H 	H 	0.22320 0.46900 0.40580 0.23300
H 	H 	0.23640 0.41130 0.40360 0.20800
C 	C 	0.57710 0.26960 0.34560 -0.84000
H 	H 	0.62840 0.25450 0.37420 0.24100
H 	H 	0.55010 0.24600 0.31510 0.24600
H 	H 	0.59800 0.29810 0.32880 0.23600
C 	C 	0.96270 0.23160 0.25210 -0.24300
B 	B 	0.41560 0.36240 0.47140 0.71300
C 	C 	0.72820 0.35090 0.62040 -0.77500
H 	H 	0.75350 0.38370 0.62170 0.21000
H 	H 	0.74170 0.33800 0.65980 0.21300
H 	H 	0.75500 0.32970 0.59730 0.20400
C 	C 	0.42090 0.26440 0.36480 -0.48100
H 	H 	0.39790 0.23830 0.33900 0.15800
C 	C 	0.38420 0.34040 0.59280 -0.78400
H 	H 	0.35780 0.31020 0.57360 0.20200
H 	H 	0.39080 0.33790 0.63420 0.21900
H 	H 	0.34460 0.36780 0.57650 0.19800
C 	C 	0.28210 0.27900 0.40620 -0.76500
H 	H 	0.26130 0.24630 0.39250 0.20100
H 	H 	0.28550 0.28200 0.44710 0.19100
H 	H 	0.23950 0.30320 0.38380 0.19000
W 	W 	0.13122 0.87958 0.45657 0.39500
Cu	Cu	0.22833 0.95000 0.42278 0.75600
Cu	Cu	0.23985 0.84351 0.39490 0.75800
Cu	Cu	0.30769 0.87673 0.51936 0.76300
S 	S 	0.21650 0.94178 0.51295 -0.58900
Cu	Cu	0.33921 0.73117 0.25836 0.81000
S 	S 	0.12836 0.89977 0.36183 -0.56500
S 	S 	0.22549 0.81114 0.47833 -0.56000
Cu	Cu	0.36411 0.10339 0.36505 0.80600
N 	N 	0.92440 0.91450 0.44600 -0.29100
N 	N 	0.01480 0.82330 0.41440 -0.16800
N 	N 	0.98840 0.85710 0.53050 -0.29700
N 	N 	0.00730 0.93150 0.44220 -0.16600
C 	C 	0.43070 0.88010 0.56900 -0.27900
N 	N 	0.28340 0.00820 0.40190 -0.24100
C 	C 	0.31550 0.04400 0.38860 -0.26900
N 	N 	0.08150 0.86050 0.53600 -0.16500
N 	N 	0.93250 0.82390 0.42880 -0.29700
N 	N 	0.25840 0.67920 0.21580 -0.22200
N 	N 	0.50500 0.88640 0.59670 -0.22300
N 	N 	0.30210 0.77820 0.30790 -0.22100
C 	C 	0.28100 0.80480 0.34090 -0.26700
C 	C 	0.85760 0.94870 0.42700 0.36000
C 	C 	0.21070 0.64930 0.18750 -0.26400
C 	C 	0.89870 0.99070 0.41210 -0.45700
H 	H 	0.87010 0.02090 0.39890 0.18300
C 	C 	0.99070 0.97920 0.42100 0.38500
C 	C 	0.87610 0.78790 0.39850 0.34600
C 	C 	0.97660 0.84840 0.58380 0.33400
C 	C 	0.05960 0.01400 0.41000 -0.86700
H 	H 	0.08540 0.00010 0.38110 0.23200
H 	H 	0.03030 0.04510 0.39590 0.26900
H 	H 	0.10770 0.01950 0.44610 0.24800
C 	C 	0.12620 0.85300 0.59330 0.32700
C 	C 	0.06220 0.84460 0.62390 -0.43200
H 	H 	0.07490 0.83770 0.66390 0.11700
C 	C 	0.00620 0.78550 0.37520 0.36900
C 	C 	0.75920 0.94110 0.42500 -0.80300
H 	H 	0.75480 0.93830 0.46450 0.20900
H 	H 	0.72320 0.96900 0.40580 0.23300
H 	H 	0.73640 0.91130 0.40360 0.20800
C 	C 	0.07710 0.76960 0.34560 -0.83900
H 	H 	0.12840 0.75450 0.37420 0.24100
H 	H 	0.05010 0.74600 0.31510 0.24600
H 	H 	0.09800 0.79810 0.32880 0.23600
C 	C 	0.46270 0.73160 0.25210 -0.24400
B 	B 	0.91560 0.86240 0.47140 0.71200
C 	C 	0.22820 0.85090 0.62040 -0.77500
H 	H 	0.25350 0.88370 0.62170 0.21000
H 	H 	0.24170 0.83800 0.65980 0.21300
H 	H 	0.25500 0.82970 0.59730 0.20400
C 	C 	0.92090 0.76440 0.36480 -0.48000
H 	H 	0.89790 0.73830 0.33900 0.15700
C 	C 	0.88420 0.84040 0.59280 -0.78300
H 	H 	0.85780 0.81020 0.57360 0.20100
H 	H 	0.89080 0.83790 0.63420 0.21900
H 	H 	0.84460 0.86780 0.57650 0.19800
C 	C 	0.78210 0.77900 0.40620 -0.76500
H 	H 	0.76130 0.74630 0.39250 0.20100
H 	H 	0.78550 0.78200 0.44710 0.19000
H 	H 	0.73950 0.80320 0.38380 0.19000
W 	W 	0.36878 0.37958 0.04343 0.39600
Cu	Cu	0.27167 0.45000 0.07722 0.75600
Cu	Cu	0.26015 0.34351 0.10510 0.75800
Cu	Cu	0.19231 0.37673 0.98064 0.76300
S 	S 	0.28350 0.44178 0.98705 -0.58900
Cu	Cu	0.16079 0.23117 0.24164 0.81000
S 	S 	0.37164 0.39977 0.13817 -0.56500
S 	S 	0.27451 0.31114 0.02167 -0.56000
Cu	Cu	0.13589 0.60339 0.13495 0.80600
N 	N 	0.57560 0.41450 0.05400 -0.29100
N 	N 	0.48520 0.32330 0.08560 -0.16800
N 	N 	0.51160 0.35710 0.96950 -0.29700
N 	N 	0.49270 0.43150 0.05780 -0.16600
C 	C 	0.06930 0.38010 0.93100 -0.27900
N 	N 	0.21660 0.50820 0.09810 -0.24100
C 	C 	0.18450 0.54400 0.11140 -0.26900
N 	N 	0.41850 0.36050 0.96400 -0.16500
N 	N 	0.56750 0.32390 0.07120 -0.29700
N 	N 	0.24160 0.17920 0.28420 -0.22200
N 	N 	0.99500 0.38640 0.90330 -0.22300
N 	N 	0.19790 0.27820 0.19210 -0.22100
C 	C 	0.21900 0.30480 0.15910 -0.26700
C 	C 	0.64240 0.44870 0.07300 0.36000
C 	C 	0.28930 0.14930 0.31250 -0.26400
C 	C 	0.60130 0.49070 0.08790 -0.45600
H 	H 	0.62990 0.52090 0.10110 0.18300
C 	C 	0.50930 0.47920 0.07900 0.38500
C 	C 	0.62390 0.28790 0.10150 0.34700
C 	C 	0.52340 0.34840 0.91620 0.33500
C 	C 	0.44040 0.51400 0.09000 -0.86700
H 	H 	0.41460 0.50010 0.11890 0.23200
H 	H 	0.46970 0.54510 0.10410 0.26900
H 	H 	0.39230 0.51950 0.05390 0.24800
C 	C 	0.37380 0.35300 0.90670 0.32700
C 	C 	0.43780 0.34460 0.87610 -0.43200
H 	H 	0.42510 0.33770 0.83610 0.11700
C 	C 	0.49380 0.28550 0.12480 0.36900
C 	C 	0.74080 0.44110 0.07500 -0.80300
H 	H 	0.74520 0.43830 0.03550 0.21000
H 	H 	0.77680 0.46900 0.09420 0.23300
H 	H 	0.76360 0.41130 0.09640 0.20800
C 	C 	0.42290 0.26960 0.15440 -0.84000
H 	H 	0.37160 0.25450 0.12580 0.24100
H 	H 	0.44990 0.24600 0.18490 0.24600
H 	H 	0.40200 0.29810 0.17120 0.23600
C 	C 	0.03730 0.23160 0.24790 -0.24400
B 	B 	0.58440 0.36240 0.02860 0.71300
C 	C 	0.27180 0.35090 0.87960 -0.77500
H 	H 	0.24650 0.38370 0.87830 0.21000
H 	H 	0.25830 0.33800 0.84020 0.21300
H 	H 	0.24500 0.32970 0.90270 0.20400
C 	C 	0.57910 0.26440 0.13520 -0.48100
H 	H 	0.60210 0.23830 0.16100 0.15800
C 	C 	0.61580 0.34040 0.90720 -0.78300
H 	H 	0.64220 0.31020 0.92640 0.20100
H 	H 	0.60920 0.33790 0.86580 0.21900
H 	H 	0.65540 0.36780 0.92350 0.19800
C 	C 	0.71790 0.27900 0.09380 -0.76600
H 	H 	0.73870 0.24630 0.10750 0.20100
H 	H 	0.71450 0.28200 0.05290 0.19100
H 	H 	0.76050 0.30320 0.11620 0.19100
W 	W 	0.86878 0.87958 0.04343 0.39500
Cu	Cu	0.77167 0.95000 0.07722 0.75600
Cu	Cu	0.76015 0.84351 0.10510 0.75800
Cu	Cu	0.69231 0.87673 0.98064 0.76300
S 	S 	0.78350 0.94178 0.98705 -0.58800
Cu	Cu	0.66079 0.73117 0.24164 0.81000
S 	S 	0.87164 0.89977 0.13817 -0.56500
S 	S 	0.77451 0.81114 0.02167 -0.56100
Cu	Cu	0.63589 0.10339 0.13495 0.80600
N 	N 	0.07560 0.91450 0.05400 -0.29100
N 	N 	0.98520 0.82330 0.08560 -0.16800
N 	N 	0.01160 0.85710 0.96950 -0.29600
N 	N 	0.99270 0.93150 0.05780 -0.16600
C 	C 	0.56930 0.88010 0.93100 -0.27900
N 	N 	0.71660 0.00820 0.09810 -0.24100
C 	C 	0.68450 0.04400 0.11140 -0.26900
N 	N 	0.91850 0.86050 0.96400 -0.16500
N 	N 	0.06750 0.82390 0.07120 -0.29700
N 	N 	0.74160 0.67920 0.28420 -0.22200
N 	N 	0.49500 0.88640 0.90330 -0.22300
N 	N 	0.69790 0.77820 0.19210 -0.22100
C 	C 	0.71900 0.80480 0.15910 -0.26700
C 	C 	0.14240 0.94870 0.07300 0.35900
C 	C 	0.78930 0.64930 0.31250 -0.26400
C 	C 	0.10130 0.99070 0.08790 -0.45700
H 	H 	0.12990 0.02090 0.10110 0.18300
C 	C 	0.00930 0.97920 0.07900 0.38300
C 	C 	0.12390 0.78790 0.10150 0.34600
C 	C 	0.02340 0.84840 0.91620 0.33600
C 	C 	0.94040 0.01400 0.09000 -0.86300
H 	H 	0.91460 0.00010 0.11890 0.23100
H 	H 	0.96970 0.04510 0.10410 0.26800
H 	H 	0.89230 0.01950 0.05390 0.24700
C 	C 	0.87380 0.85300 0.90670 0.32800
C 	C 	0.93780 0.84460 0.87610 -0.43400
H 	H 	0.92510 0.83770 0.83610 0.11700
C 	C 	0.99380 0.78550 0.12480 0.37000
C 	C 	0.24080 0.94110 0.07500 -0.80200
H 	H 	0.24520 0.93830 0.03550 0.20900
H 	H 	0.27680 0.96900 0.09420 0.23200
H 	H 	0.26360 0.91130 0.09640 0.20700
C 	C 	0.92290 0.76960 0.15440 -0.84000
H 	H 	0.87160 0.75450 0.12580 0.24100
H 	H 	0.94990 0.74600 0.18490 0.24600
H 	H 	0.90200 0.79810 0.17120 0.23600
C 	C 	0.53730 0.73160 0.24790 -0.24400
B 	B 	0.08440 0.86240 0.02860 0.71100
C 	C 	0.77180 0.85090 0.87960 -0.77600
H 	H 	0.74650 0.88370 0.87830 0.21000
H 	H 	0.75830 0.83800 0.84020 0.21300
H 	H 	0.74500 0.82970 0.90270 0.20400
C 	C 	0.07910 0.76440 0.13520 -0.48100
H 	H 	0.10210 0.73830 0.16100 0.15800
C 	C 	0.11580 0.84040 0.90720 -0.78500
H 	H 	0.14220 0.81020 0.92640 0.20200
H 	H 	0.10920 0.83790 0.86580 0.22000
H 	H 	0.15540 0.86780 0.92350 0.19900
C 	C 	0.21790 0.77900 0.09380 -0.76500
H 	H 	0.23870 0.74630 0.10750 0.20100
H 	H 	0.21450 0.78200 0.05290 0.19000
H 	H 	0.26050 0.80320 0.11620 0.19000
