data_crystal

_cell_length_a 9.39720
_cell_length_b 9.51030
_cell_length_c 15.60940
_cell_angle_alpha 90.00000
_cell_angle_beta  90.00000
_cell_angle_gamma 90.00000

_symmetry_space_group_name_	'P 1'
_symmetry_space_group_name_H-M	'P 1'

loop_
_symmetry_equiv_pos_as_xyz
  x,y,z

loop_
_atom_site_label
_atom_site_type_symbol
_atom_site_fract_x
_atom_site_fract_y
_atom_site_fract_z
_atom_site_charge
Bi	Bi	0.40421 0.60740 0.34696 1.78000
Bi	Bi	0.34620 0.37248 0.15713 1.78100
O 	O 	0.62560 0.72110 0.32190 -0.66900
O 	O 	0.82860 0.70310 0.25100 -0.52700
O 	O 	0.49310 0.53190 0.22530 -0.69100
O 	O 	0.11210 0.27720 0.18110 -0.68800
O 	O 	0.91650 0.29190 0.26030 -0.56800
O 	O 	0.24820 0.47070 0.27360 -0.68400
C 	C 	0.70060 0.66710 0.26370 0.28500
C 	C 	0.63800 0.55650 0.20640 -0.03900
C 	C 	0.04290 0.32630 0.24450 0.28900
C 	C 	0.11250 0.43050 0.30340 -0.03000
H 	H 	0.69130 0.46860 0.21470 -0.04000
H 	H 	0.64730 0.58780 0.14710 -0.08000
H 	H 	0.12080 0.38910 0.35980 -0.08400
H 	H 	0.05240 0.51370 0.30740 -0.03300
Bi	Bi	0.90421 0.89260 0.34696 1.77900
Bi	Bi	0.84620 0.12752 0.15713 1.78100
O 	O 	0.12560 0.77890 0.32190 -0.66800
O 	O 	0.32860 0.79690 0.25100 -0.52600
O 	O 	0.99310 0.96810 0.22530 -0.69500
O 	O 	0.61210 0.22280 0.18110 -0.68800
O 	O 	0.41650 0.20810 0.26030 -0.56600
O 	O 	0.74820 0.02930 0.27360 -0.68400
C 	C 	0.20060 0.83290 0.26370 0.28400
C 	C 	0.13800 0.94350 0.20640 -0.03500
C 	C 	0.54290 0.17370 0.24450 0.28600
C 	C 	0.61250 0.06950 0.30340 -0.02700
H 	H 	0.19130 0.03140 0.21470 -0.04000
H 	H 	0.14730 0.91220 0.14710 -0.08100
H 	H 	0.62080 0.11090 0.35980 -0.08500
H 	H 	0.55240 0.98630 0.30740 -0.03500
Bi	Bi	0.59579 0.39260 0.84696 1.78000
Bi	Bi	0.65380 0.62752 0.65713 1.78000
O 	O 	0.37440 0.27890 0.82190 -0.66900
O 	O 	0.17140 0.29690 0.75100 -0.52700
O 	O 	0.50690 0.46810 0.72530 -0.69100
O 	O 	0.88790 0.72280 0.68110 -0.68900
O 	O 	0.08350 0.70810 0.76030 -0.56800
O 	O 	0.75180 0.52930 0.77360 -0.68400
C 	C 	0.29940 0.33290 0.76370 0.28500
C 	C 	0.36200 0.44350 0.70640 -0.03900
C 	C 	0.95710 0.67370 0.74450 0.28800
C 	C 	0.88750 0.56950 0.80340 -0.03000
H 	H 	0.30870 0.53140 0.71470 -0.04000
H 	H 	0.35270 0.41220 0.64710 -0.08100
H 	H 	0.87920 0.61090 0.85980 -0.08400
H 	H 	0.94760 0.48630 0.80740 -0.03300
Bi	Bi	0.09579 0.10740 0.84696 1.77900
Bi	Bi	0.15380 0.87248 0.65713 1.78000
O 	O 	0.87440 0.22110 0.82190 -0.66700
O 	O 	0.67140 0.20310 0.75100 -0.52600
O 	O 	0.00690 0.03190 0.72530 -0.69400
O 	O 	0.38790 0.77720 0.68110 -0.68800
O 	O 	0.58350 0.79190 0.76030 -0.56600
O 	O 	0.25180 0.97070 0.77360 -0.68400
C 	C 	0.79940 0.16710 0.76370 0.28300
C 	C 	0.86200 0.05650 0.70640 -0.03200
C 	C 	0.45710 0.82630 0.74450 0.28700
C 	C 	0.38750 0.93050 0.80340 -0.03000
H 	H 	0.80870 0.96860 0.71470 -0.04200
H 	H 	0.85270 0.08780 0.64710 -0.08200
H 	H 	0.37920 0.88910 0.85980 -0.08500
H 	H 	0.44760 0.01370 0.80740 -0.03300
