data_crystal

_cell_length_a 25.87840
_cell_length_b 25.87840
_cell_length_c 6.96690
_cell_angle_alpha 90.00000
_cell_angle_beta  90.00000
_cell_angle_gamma 120.00000

_symmetry_space_group_name_	'P 1'
_symmetry_space_group_name_H-M	'P 1'

loop_
_symmetry_equiv_pos_as_xyz
  x,y,z

loop_
_atom_site_label
_atom_site_type_symbol
_atom_site_fract_x
_atom_site_fract_y
_atom_site_fract_z
_atom_site_charge
Fe	Fe	0.38770 0.35230 0.14500 1.15500
O 	O 	0.31830 0.29390 0.34880 -0.52000
O 	O 	0.30440 0.22750 0.59520 -0.42700
O 	O 	0.35580 0.27480 0.00630 -0.53300
C 	C 	0.31670 0.24710 0.41930 0.33400
C 	C 	0.32540 0.20550 0.28360 -0.16600
C 	C 	0.34310 0.22480 0.09540 0.17100
C 	C 	0.31710 0.15200 0.34930 -0.06000
H 	H 	0.30210 0.13860 0.50200 0.05400
Fe	Fe	0.05437 0.68563 0.47833 1.15500
O 	O 	0.98497 0.62723 0.68213 -0.52100
O 	O 	0.97107 0.56083 0.92853 -0.42800
O 	O 	0.02247 0.60813 0.33963 -0.53400
C 	C 	0.98337 0.58043 0.75263 0.33300
C 	C 	0.99207 0.53883 0.61693 -0.16700
C 	C 	0.00977 0.55813 0.42873 0.17000
C 	C 	0.98377 0.48533 0.68263 -0.06100
H 	H 	0.96877 0.47193 0.83533 0.05300
Fe	Fe	0.72103 0.01897 0.81167 1.15500
O 	O 	0.65163 0.96057 0.01547 -0.52100
O 	O 	0.63773 0.89417 0.26187 -0.42800
O 	O 	0.68913 0.94147 0.67297 -0.53400
C 	C 	0.65003 0.91377 0.08597 0.33300
C 	C 	0.65873 0.87217 0.95027 -0.16800
C 	C 	0.67643 0.89147 0.76207 0.17000
C 	C 	0.65043 0.81867 0.01597 -0.06000
H 	H 	0.63543 0.80527 0.16867 0.05200
Fe	Fe	0.64770 0.03540 0.14500 1.15400
O 	O 	0.70610 0.02440 0.34880 -0.52000
O 	O 	0.77250 0.07690 0.59520 -0.42800
O 	O 	0.72520 0.08100 0.00630 -0.53400
C 	C 	0.75290 0.06960 0.41930 0.33300
C 	C 	0.79450 0.11990 0.28360 -0.16600
C 	C 	0.77520 0.11830 0.09540 0.16900
C 	C 	0.84800 0.16510 0.34930 -0.06100
H 	H 	0.86140 0.16350 0.50200 0.05300
Fe	Fe	0.31437 0.36873 0.47833 1.15400
O 	O 	0.37277 0.35773 0.68213 -0.52100
O 	O 	0.43917 0.41023 0.92853 -0.42800
O 	O 	0.39187 0.41433 0.33963 -0.53400
C 	C 	0.41957 0.40293 0.75263 0.33300
C 	C 	0.46117 0.45323 0.61693 -0.16700
C 	C 	0.44187 0.45163 0.42873 0.17000
C 	C 	0.51467 0.49843 0.68263 -0.06100
H 	H 	0.52807 0.49683 0.83533 0.05300
Fe	Fe	0.98103 0.70207 0.81167 1.15500
O 	O 	0.03943 0.69107 0.01547 -0.52000
O 	O 	0.10583 0.74357 0.26187 -0.42800
O 	O 	0.05853 0.74767 0.67297 -0.53400
C 	C 	0.08623 0.73627 0.08597 0.33400
C 	C 	0.12783 0.78657 0.95027 -0.16800
C 	C 	0.10853 0.78497 0.76207 0.17000
C 	C 	0.18133 0.83177 0.01597 -0.05900
H 	H 	0.19473 0.83017 0.16867 0.05200
Fe	Fe	0.96460 0.61230 0.14500 1.15400
O 	O 	0.97560 0.68170 0.34880 -0.52100
O 	O 	0.92310 0.69560 0.59520 -0.42800
O 	O 	0.91900 0.64420 0.00630 -0.53400
C 	C 	0.93040 0.68330 0.41930 0.33300
C 	C 	0.88010 0.67460 0.28360 -0.16700
C 	C 	0.88170 0.65690 0.09540 0.17000
C 	C 	0.83490 0.68290 0.34930 -0.06100
H 	H 	0.83650 0.69790 0.50200 0.05300
Fe	Fe	0.63127 0.94563 0.47833 1.15400
O 	O 	0.64227 0.01503 0.68213 -0.52000
O 	O 	0.58977 0.02893 0.92853 -0.42800
O 	O 	0.58567 0.97753 0.33963 -0.53400
C 	C 	0.59707 0.01663 0.75263 0.33300
C 	C 	0.54677 0.00793 0.61693 -0.16700
C 	C 	0.54837 0.99023 0.42873 0.17000
C 	C 	0.50157 0.01623 0.68263 -0.06100
H 	H 	0.50317 0.03123 0.83533 0.05300
Fe	Fe	0.29793 0.27897 0.81167 1.15400
O 	O 	0.30893 0.34837 0.01547 -0.52100
O 	O 	0.25643 0.36227 0.26187 -0.42800
O 	O 	0.25233 0.31087 0.67297 -0.53400
C 	C 	0.26373 0.34997 0.08597 0.33300
C 	C 	0.21343 0.34127 0.95027 -0.16800
C 	C 	0.21503 0.32357 0.76207 0.17000
C 	C 	0.16823 0.34957 0.01597 -0.06000
H 	H 	0.16983 0.36457 0.16867 0.05200
Fe	Fe	0.61230 0.64770 0.85500 1.15400
O 	O 	0.68170 0.70610 0.65120 -0.52100
O 	O 	0.69560 0.77250 0.40480 -0.42800
O 	O 	0.64420 0.72520 0.99370 -0.53400
C 	C 	0.68330 0.75290 0.58070 0.33300
C 	C 	0.67460 0.79450 0.71640 -0.16700
C 	C 	0.65690 0.77520 0.90460 0.17000
C 	C 	0.68290 0.84800 0.65070 -0.06100
H 	H 	0.69790 0.86140 0.49800 0.05300
Fe	Fe	0.27897 0.98103 0.18833 1.15500
O 	O 	0.34837 0.03943 0.98453 -0.52100
O 	O 	0.36227 0.10583 0.73813 -0.42800
O 	O 	0.31087 0.05853 0.32703 -0.53400
C 	C 	0.34997 0.08623 0.91403 0.33300
C 	C 	0.34127 0.12783 0.04973 -0.16800
C 	C 	0.32357 0.10853 0.23793 0.17000
C 	C 	0.34957 0.18133 0.98403 -0.06000
H 	H 	0.36457 0.19473 0.83133 0.05200
Fe	Fe	0.94563 0.31437 0.52167 1.15400
O 	O 	0.01503 0.37277 0.31787 -0.52100
O 	O 	0.02893 0.43917 0.07147 -0.42800
O 	O 	0.97753 0.39187 0.66037 -0.53400
C 	C 	0.01663 0.41957 0.24737 0.33300
C 	C 	0.00793 0.46117 0.38307 -0.16700
C 	C 	0.99023 0.44187 0.57127 0.17000
C 	C 	0.01623 0.51467 0.31737 -0.06100
H 	H 	0.03123 0.52807 0.16467 0.05300
Fe	Fe	0.35230 0.96460 0.85500 1.15400
O 	O 	0.29390 0.97560 0.65120 -0.52000
O 	O 	0.22750 0.92310 0.40480 -0.42800
O 	O 	0.27480 0.91900 0.99370 -0.53400
C 	C 	0.24710 0.93040 0.58070 0.33300
C 	C 	0.20550 0.88010 0.71640 -0.16600
C 	C 	0.22480 0.88170 0.90460 0.16900
C 	C 	0.15200 0.83490 0.65070 -0.06100
H 	H 	0.13860 0.83650 0.49800 0.05300
Fe	Fe	0.01897 0.29793 0.18833 1.15500
O 	O 	0.96057 0.30893 0.98453 -0.52000
O 	O 	0.89417 0.25643 0.73813 -0.42800
O 	O 	0.94147 0.25233 0.32703 -0.53400
C 	C 	0.91377 0.26373 0.91403 0.33400
C 	C 	0.87217 0.21343 0.04973 -0.16800
C 	C 	0.89147 0.21503 0.23793 0.17000
C 	C 	0.81867 0.16823 0.98403 -0.05900
H 	H 	0.80527 0.16983 0.83133 0.05200
Fe	Fe	0.68563 0.63127 0.52167 1.15400
O 	O 	0.62723 0.64227 0.31787 -0.52100
O 	O 	0.56083 0.58977 0.07147 -0.42800
O 	O 	0.60813 0.58567 0.66037 -0.53400
C 	C 	0.58043 0.59707 0.24737 0.33300
C 	C 	0.53883 0.54677 0.38307 -0.16700
C 	C 	0.55813 0.54837 0.57127 0.17000
C 	C 	0.48533 0.50157 0.31737 -0.06100
H 	H 	0.47193 0.50317 0.16467 0.05300
Fe	Fe	0.03540 0.38770 0.85500 1.15400
O 	O 	0.02440 0.31830 0.65120 -0.52100
O 	O 	0.07690 0.30440 0.40480 -0.42800
O 	O 	0.08100 0.35580 0.99370 -0.53400
C 	C 	0.06960 0.31670 0.58070 0.33300
C 	C 	0.11990 0.32540 0.71640 -0.16700
C 	C 	0.11830 0.34310 0.90460 0.17000
C 	C 	0.16510 0.31710 0.65070 -0.06100
H 	H 	0.16350 0.30210 0.49800 0.05300
Fe	Fe	0.70207 0.72103 0.18833 1.15400
O 	O 	0.69107 0.65163 0.98453 -0.52100
O 	O 	0.74357 0.63773 0.73813 -0.42800
O 	O 	0.74767 0.68913 0.32703 -0.53400
C 	C 	0.73627 0.65003 0.91403 0.33300
C 	C 	0.78657 0.65873 0.04973 -0.16800
C 	C 	0.78497 0.67643 0.23793 0.17000
C 	C 	0.83177 0.65043 0.98403 -0.06000
H 	H 	0.83017 0.63543 0.83133 0.05200
Fe	Fe	0.36873 0.05437 0.52167 1.15400
O 	O 	0.35773 0.98497 0.31787 -0.52000
O 	O 	0.41023 0.97107 0.07147 -0.42800
O 	O 	0.41433 0.02247 0.66037 -0.53400
C 	C 	0.40293 0.98337 0.24737 0.33300
C 	C 	0.45323 0.99207 0.38307 -0.16700
C 	C 	0.45163 0.00977 0.57127 0.17000
C 	C 	0.49843 0.98377 0.31737 -0.06100
H 	H 	0.49683 0.96877 0.16467 0.05300
