data_crystal

_cell_length_a 25.92020
_cell_length_b 25.92020
_cell_length_c 6.95050
_cell_angle_alpha 90.00000
_cell_angle_beta  90.00000
_cell_angle_gamma 120.00000

_symmetry_space_group_name_	'P 1'
_symmetry_space_group_name_H-M	'P 1'

loop_
_symmetry_equiv_pos_as_xyz
  x,y,z

loop_
_atom_site_label
_atom_site_type_symbol
_atom_site_fract_x
_atom_site_fract_y
_atom_site_fract_z
_atom_site_charge
Fe	Fe	0.38617 0.35147 0.14850 1.14500
O 	O 	0.31842 0.29222 0.34750 -0.54600
O 	O 	0.30258 0.22647 0.59150 -0.44800
O 	O 	0.35286 0.27109 0.00940 -0.53500
C 	C 	0.31409 0.24580 0.42330 0.37400
C 	C 	0.32761 0.20593 0.28220 -0.16900
C 	C 	0.34350 0.22139 0.09120 0.19300
C 	C 	0.31563 0.15232 0.36050 -0.08300
H 	H 	0.30630 0.14200 0.50840 0.06100
Fe	Fe	0.05284 0.68480 0.48183 1.14500
O 	O 	0.98509 0.62555 0.68083 -0.54600
O 	O 	0.96925 0.55980 0.92483 -0.44800
O 	O 	0.01953 0.60442 0.34273 -0.53500
C 	C 	0.98076 0.57913 0.75663 0.37400
C 	C 	0.99428 0.53926 0.61553 -0.16900
C 	C 	0.01017 0.55472 0.42453 0.19300
C 	C 	0.98230 0.48565 0.69383 -0.08200
H 	H 	0.97297 0.47533 0.84173 0.06200
Fe	Fe	0.71950 0.01814 0.81517 1.14600
O 	O 	0.65175 0.95889 0.01417 -0.54500
O 	O 	0.63591 0.89314 0.25817 -0.44700
O 	O 	0.68619 0.93776 0.67607 -0.53400
C 	C 	0.64742 0.91247 0.08997 0.37600
C 	C 	0.66094 0.87260 0.94887 -0.16900
C 	C 	0.67683 0.88806 0.75787 0.19500
C 	C 	0.64896 0.81899 0.02717 -0.08100
H 	H 	0.63963 0.80867 0.17507 0.06200
Fe	Fe	0.64853 0.03470 0.14850 1.14600
O 	O 	0.70778 0.02620 0.34750 -0.54500
O 	O 	0.77353 0.07611 0.59150 -0.44700
O 	O 	0.72891 0.08177 0.00940 -0.53400
C 	C 	0.75420 0.06829 0.42330 0.37500
C 	C 	0.79407 0.12168 0.28220 -0.16800
C 	C 	0.77861 0.12211 0.09120 0.19300
C 	C 	0.84768 0.16331 0.36050 -0.08300
H 	H 	0.85800 0.16430 0.50840 0.06200
Fe	Fe	0.31520 0.36803 0.48183 1.14600
O 	O 	0.37445 0.35953 0.68083 -0.54600
O 	O 	0.44020 0.40944 0.92483 -0.44700
O 	O 	0.39558 0.41510 0.34273 -0.53400
C 	C 	0.42087 0.40162 0.75663 0.37500
C 	C 	0.46074 0.45501 0.61553 -0.16900
C 	C 	0.44528 0.45544 0.42453 0.19400
C 	C 	0.51435 0.49664 0.69383 -0.08200
H 	H 	0.52467 0.49763 0.84173 0.06200
Fe	Fe	0.98186 0.70137 0.81517 1.14600
O 	O 	0.04111 0.69287 0.01417 -0.54500
O 	O 	0.10686 0.74278 0.25817 -0.44700
O 	O 	0.06224 0.74844 0.67607 -0.53400
C 	C 	0.08753 0.73496 0.08997 0.37600
C 	C 	0.12740 0.78835 0.94887 -0.17000
C 	C 	0.11194 0.78878 0.75787 0.19500
C 	C 	0.18101 0.82998 0.02717 -0.08000
H 	H 	0.19133 0.83097 0.17507 0.06100
Fe	Fe	0.96530 0.61383 0.14850 1.14600
O 	O 	0.97380 0.68158 0.34750 -0.54500
O 	O 	0.92389 0.69742 0.59150 -0.44700
O 	O 	0.91823 0.64714 0.00940 -0.53400
C 	C 	0.93171 0.68591 0.42330 0.37500
C 	C 	0.87832 0.67239 0.28220 -0.16800
C 	C 	0.87789 0.65650 0.09120 0.19400
C 	C 	0.83669 0.68437 0.36050 -0.08300
H 	H 	0.83570 0.69370 0.50840 0.06200
Fe	Fe	0.63197 0.94716 0.48183 1.14600
O 	O 	0.64047 0.01491 0.68083 -0.54500
O 	O 	0.59056 0.03075 0.92483 -0.44700
O 	O 	0.58490 0.98047 0.34273 -0.53400
C 	C 	0.59838 0.01924 0.75663 0.37500
C 	C 	0.54499 0.00572 0.61553 -0.16800
C 	C 	0.54456 0.98983 0.42453 0.19400
C 	C 	0.50336 0.01770 0.69383 -0.08200
H 	H 	0.50237 0.02703 0.84173 0.06200
Fe	Fe	0.29863 0.28050 0.81517 1.14600
O 	O 	0.30713 0.34825 0.01417 -0.54600
O 	O 	0.25722 0.36409 0.25817 -0.44700
O 	O 	0.25156 0.31381 0.67607 -0.53400
C 	C 	0.26504 0.35258 0.08997 0.37600
C 	C 	0.21165 0.33906 0.94887 -0.16900
C 	C 	0.21122 0.32317 0.75787 0.19500
C 	C 	0.17002 0.35104 0.02717 -0.08100
H 	H 	0.16903 0.36037 0.17507 0.06200
Fe	Fe	0.61383 0.64853 0.85150 1.14600
O 	O 	0.68158 0.70778 0.65250 -0.54500
O 	O 	0.69742 0.77353 0.40850 -0.44700
O 	O 	0.64714 0.72891 0.99060 -0.53400
C 	C 	0.68591 0.75420 0.57670 0.37500
C 	C 	0.67239 0.79407 0.71780 -0.16800
C 	C 	0.65650 0.77861 0.90880 0.19400
C 	C 	0.68437 0.84768 0.63950 -0.08200
H 	H 	0.69370 0.85800 0.49160 0.06200
Fe	Fe	0.28050 0.98186 0.18483 1.14600
O 	O 	0.34825 0.04111 0.98583 -0.54500
O 	O 	0.36409 0.10686 0.74183 -0.44700
O 	O 	0.31381 0.06224 0.32393 -0.53400
C 	C 	0.35258 0.08753 0.91003 0.37600
C 	C 	0.33906 0.12740 0.05113 -0.16900
C 	C 	0.32317 0.11194 0.24213 0.19500
C 	C 	0.35104 0.18101 0.97283 -0.08100
H 	H 	0.36037 0.19133 0.82493 0.06200
Fe	Fe	0.94716 0.31520 0.51817 1.14600
O 	O 	0.01491 0.37445 0.31917 -0.54500
O 	O 	0.03075 0.44020 0.07517 -0.44700
O 	O 	0.98047 0.39558 0.65727 -0.53400
C 	C 	0.01924 0.42087 0.24337 0.37500
C 	C 	0.00572 0.46074 0.38447 -0.16800
C 	C 	0.98983 0.44528 0.57547 0.19400
C 	C 	0.01770 0.51435 0.30617 -0.08200
H 	H 	0.02703 0.52467 0.15827 0.06200
Fe	Fe	0.35147 0.96530 0.85150 1.14600
O 	O 	0.29222 0.97380 0.65250 -0.54500
O 	O 	0.22647 0.92389 0.40850 -0.44700
O 	O 	0.27109 0.91823 0.99060 -0.53400
C 	C 	0.24580 0.93171 0.57670 0.37500
C 	C 	0.20593 0.87832 0.71780 -0.16800
C 	C 	0.22139 0.87789 0.90880 0.19300
C 	C 	0.15232 0.83669 0.63950 -0.08300
H 	H 	0.14200 0.83570 0.49160 0.06200
Fe	Fe	0.01814 0.29863 0.18483 1.14600
O 	O 	0.95889 0.30713 0.98583 -0.54500
O 	O 	0.89314 0.25722 0.74183 -0.44700
O 	O 	0.93776 0.25156 0.32393 -0.53400
C 	C 	0.91247 0.26504 0.91003 0.37600
C 	C 	0.87260 0.21165 0.05113 -0.17000
C 	C 	0.88806 0.21122 0.24213 0.19500
C 	C 	0.81899 0.17002 0.97283 -0.08000
H 	H 	0.80867 0.16903 0.82493 0.06100
Fe	Fe	0.68480 0.63197 0.51817 1.14600
O 	O 	0.62555 0.64047 0.31917 -0.54600
O 	O 	0.55980 0.59056 0.07517 -0.44700
O 	O 	0.60442 0.58490 0.65727 -0.53400
C 	C 	0.57913 0.59838 0.24337 0.37500
C 	C 	0.53926 0.54499 0.38447 -0.16900
C 	C 	0.55472 0.54456 0.57547 0.19400
C 	C 	0.48565 0.50336 0.30617 -0.08200
H 	H 	0.47533 0.50237 0.15827 0.06200
Fe	Fe	0.03470 0.38617 0.85150 1.14600
O 	O 	0.02620 0.31842 0.65250 -0.54500
O 	O 	0.07611 0.30258 0.40850 -0.44700
O 	O 	0.08177 0.35286 0.99060 -0.53400
C 	C 	0.06829 0.31409 0.57670 0.37500
C 	C 	0.12168 0.32761 0.71780 -0.16800
C 	C 	0.12211 0.34350 0.90880 0.19400
C 	C 	0.16331 0.31563 0.63950 -0.08300
H 	H 	0.16430 0.30630 0.49160 0.06200
Fe	Fe	0.70137 0.71950 0.18483 1.14600
O 	O 	0.69287 0.65175 0.98583 -0.54600
O 	O 	0.74278 0.63591 0.74183 -0.44700
O 	O 	0.74844 0.68619 0.32393 -0.53400
C 	C 	0.73496 0.64742 0.91003 0.37600
C 	C 	0.78835 0.66094 0.05113 -0.16900
C 	C 	0.78878 0.67683 0.24213 0.19500
C 	C 	0.82998 0.64896 0.97283 -0.08100
H 	H 	0.83097 0.63963 0.82493 0.06200
Fe	Fe	0.36803 0.05284 0.51817 1.14600
O 	O 	0.35953 0.98509 0.31917 -0.54500
O 	O 	0.40944 0.96925 0.07517 -0.44700
O 	O 	0.41510 0.01953 0.65727 -0.53400
C 	C 	0.40162 0.98076 0.24337 0.37500
C 	C 	0.45501 0.99428 0.38447 -0.16800
C 	C 	0.45544 0.01017 0.57547 0.19400
C 	C 	0.49664 0.98230 0.30617 -0.08200
H 	H 	0.49763 0.97297 0.15827 0.06200
