data_crystal

_cell_length_a 6.85510
_cell_length_b 15.23170
_cell_length_c 15.23170
_cell_angle_alpha 62.20940
_cell_angle_beta  81.37200
_cell_angle_gamma 98.62800

_symmetry_space_group_name_	'P 1'
_symmetry_space_group_name_H-M	'P 1'

loop_
_symmetry_equiv_pos_as_xyz
  x,y,z

loop_
_atom_site_label
_atom_site_type_symbol
_atom_site_fract_x
_atom_site_fract_y
_atom_site_fract_z
_atom_site_charge
Fe	Fe	0.88677 0.67935 0.58884 1.18000
Fe	Fe	0.47561 0.58884 0.73181 1.18000
Fe	Fe	0.20742 0.73181 0.67935 1.18000
Fe	Fe	0.11323 0.32065 0.41116 1.18000
Fe	Fe	0.52439 0.41116 0.26819 1.18100
Fe	Fe	0.79258 0.26819 0.32065 1.18100
H 	H 	0.65670 0.01960 0.53750 0.05400
H 	H 	0.19420 0.53750 0.44290 0.05500
H 	H 	0.63710 0.44290 0.01960 0.05500
H 	H 	0.34330 0.98040 0.46250 0.05400
H 	H 	0.80580 0.46250 0.55710 0.05500
H 	H 	0.36290 0.55710 0.98040 0.05500
C 	C 	0.65165 0.82609 0.61234 0.41500
C 	C 	0.83409 0.91670 0.55403 -0.17600
C 	C 	0.03285 0.89555 0.54020 0.17200
C 	C 	0.80121 0.01021 0.51788 -0.05800
C 	C 	0.26399 0.61234 0.56157 0.41500
C 	C 	0.38812 0.55403 0.52927 -0.17500
C 	C 	0.57305 0.54020 0.56425 0.17200
C 	C 	0.31909 0.51788 0.47191 -0.05800
C 	C 	0.82556 0.56157 0.82609 0.41400
C 	C 	0.91739 0.52927 0.91670 -0.17400
C 	C 	0.13730 0.56425 0.89555 0.17100
C 	C 	0.79100 0.47191 0.01021 -0.06000
C 	C 	0.34835 0.17391 0.38766 0.41500
C 	C 	0.16591 0.08330 0.44597 -0.17600
C 	C 	0.96715 0.10445 0.45980 0.17200
C 	C 	0.19879 0.98979 0.48212 -0.05800
C 	C 	0.73601 0.38766 0.43843 0.41500
C 	C 	0.61188 0.44597 0.47073 -0.17500
C 	C 	0.42695 0.45980 0.43575 0.17200
C 	C 	0.68091 0.48212 0.52809 -0.05800
C 	C 	0.17444 0.43843 0.17391 0.41400
C 	C 	0.08261 0.47073 0.08330 -0.17400
C 	C 	0.86270 0.43575 0.10445 0.17100
C 	C 	0.20900 0.52809 0.98979 -0.06000
O 	O 	0.67773 0.73653 0.64224 -0.57400
O 	O 	0.48200 0.84360 0.62490 -0.46200
O 	O 	0.06542 0.79974 0.57648 -0.55200
O 	O 	0.31997 0.64224 0.62123 -0.57400
O 	O 	0.10690 0.62490 0.53150 -0.46200
O 	O 	0.64190 0.57648 0.62378 -0.55200
O 	O 	0.94120 0.62123 0.73653 -0.57300
O 	O 	0.63840 0.53150 0.84360 -0.46200
O 	O 	0.26568 0.62378 0.79974 -0.55200
O 	O 	0.32227 0.26347 0.35776 -0.57400
O 	O 	0.51800 0.15640 0.37510 -0.46200
O 	O 	0.93458 0.20026 0.42352 -0.55200
O 	O 	0.68003 0.35776 0.37877 -0.57400
O 	O 	0.89310 0.37510 0.46850 -0.46200
O 	O 	0.35810 0.42352 0.37622 -0.55200
O 	O 	0.05880 0.37877 0.26347 -0.57300
O 	O 	0.36160 0.46850 0.15640 -0.46200
O 	O 	0.73432 0.37622 0.20026 -0.55200
