data_crystal

_cell_length_a 6.82820
_cell_length_b 15.20940
_cell_length_c 15.20940
_cell_angle_alpha 62.19860
_cell_angle_beta  81.39350
_cell_angle_gamma 98.60650

_symmetry_space_group_name_	'P 1'
_symmetry_space_group_name_H-M	'P 1'

loop_
_symmetry_equiv_pos_as_xyz
  x,y,z

loop_
_atom_site_label
_atom_site_type_symbol
_atom_site_fract_x
_atom_site_fract_y
_atom_site_fract_z
_atom_site_charge
Fe	Fe	0.88619 0.68344 0.58837 1.14900
Fe	Fe	0.47456 0.58837 0.72819 1.14900
Fe	Fe	0.20275 0.72819 0.68344 1.14900
Fe	Fe	0.11381 0.31656 0.41163 1.14900
Fe	Fe	0.52544 0.41163 0.27181 1.14900
Fe	Fe	0.79725 0.27181 0.31656 1.14900
H 	H 	0.67030 0.03200 0.53250 0.06100
H 	H 	0.20280 0.53250 0.43550 0.06100
H 	H 	0.63830 0.43550 0.03200 0.06100
H 	H 	0.32970 0.96800 0.46750 0.06100
H 	H 	0.79720 0.46750 0.56450 0.06100
H 	H 	0.36170 0.56450 0.96800 0.06100
C 	C 	0.65590 0.82700 0.61040 0.46700
C 	C 	0.82258 0.91706 0.54812 -0.20200
C 	C 	0.02840 0.89490 0.53790 0.22800
C 	C 	0.80670 0.01290 0.51760 -0.05900
C 	C 	0.26630 0.61040 0.56260 0.46700
C 	C 	0.37070 0.54812 0.53482 -0.20300
C 	C 	0.56630 0.53790 0.56720 0.22800
C 	C 	0.32430 0.51760 0.46950 -0.05900
C 	C 	0.82890 0.56260 0.82700 0.46600
C 	C 	0.90552 0.53482 0.91706 -0.20000
C 	C 	0.13350 0.56720 0.89490 0.22700
C 	C 	0.79380 0.46950 0.01290 -0.06100
C 	C 	0.34410 0.17300 0.38960 0.46700
C 	C 	0.17742 0.08294 0.45188 -0.20200
C 	C 	0.97160 0.10510 0.46210 0.22800
C 	C 	0.19330 0.98710 0.48240 -0.05900
C 	C 	0.73370 0.38960 0.43740 0.46700
C 	C 	0.62930 0.45188 0.46518 -0.20300
C 	C 	0.43370 0.46210 0.43280 0.22800
C 	C 	0.67570 0.48240 0.53050 -0.05900
C 	C 	0.17110 0.43740 0.17300 0.46600
C 	C 	0.09448 0.46518 0.08294 -0.20000
C 	C 	0.86650 0.43280 0.10510 0.22700
C 	C 	0.20620 0.53050 0.98710 -0.06100
O 	O 	0.68290 0.73900 0.63880 -0.62600
O 	O 	0.51610 0.86310 0.61470 -0.44800
O 	O 	0.07060 0.81030 0.57690 -0.57000
O 	O 	0.32170 0.63880 0.62220 -0.62600
O 	O 	0.13080 0.61470 0.52220 -0.44800
O 	O 	0.64750 0.57690 0.61280 -0.56900
O 	O 	0.94390 0.62220 0.73900 -0.62500
O 	O 	0.65300 0.52220 0.86310 -0.44800
O 	O 	0.26030 0.61280 0.81030 -0.56900
O 	O 	0.31710 0.26100 0.36120 -0.62600
O 	O 	0.48390 0.13690 0.38530 -0.44800
O 	O 	0.92940 0.18970 0.42310 -0.57000
O 	O 	0.67830 0.36120 0.37780 -0.62600
O 	O 	0.86920 0.38530 0.47780 -0.44800
O 	O 	0.35250 0.42310 0.38720 -0.56900
O 	O 	0.05610 0.37780 0.26100 -0.62500
O 	O 	0.34700 0.47780 0.13690 -0.44800
O 	O 	0.73970 0.38720 0.18970 -0.56900
