data_crystal

_cell_length_a 6.94480
_cell_length_b 15.13040
_cell_length_c 15.13040
_cell_angle_alpha 62.29710
_cell_angle_beta  81.19920
_cell_angle_gamma 98.80080

_symmetry_space_group_name_	'P 1'
_symmetry_space_group_name_H-M	'P 1'

loop_
_symmetry_equiv_pos_as_xyz
  x,y,z

loop_
_atom_site_label
_atom_site_type_symbol
_atom_site_fract_x
_atom_site_fract_y
_atom_site_fract_z
_atom_site_charge
Fe	Fe	0.87630 0.68030 0.58010 1.16700
Fe	Fe	0.45640 0.58010 0.73960 1.16700
Fe	Fe	0.19600 0.73960 0.68030 1.16700
Fe	Fe	0.12370 0.31970 0.41990 1.16700
Fe	Fe	0.54360 0.41990 0.26040 1.16600
Fe	Fe	0.80400 0.26040 0.31970 1.16600
H 	H 	0.64390 0.00890 0.54720 0.04200
H 	H 	0.19110 0.54720 0.44390 0.04200
H 	H 	0.63500 0.44390 0.00890 0.04200
H 	H 	0.35610 0.99110 0.45280 0.04200
H 	H 	0.80890 0.45280 0.55610 0.04200
H 	H 	0.36500 0.55610 0.99110 0.04200
C 	C 	0.65870 0.82860 0.60300 0.32800
C 	C 	0.83940 0.91730 0.55280 -0.17500
C 	C 	0.02580 0.89300 0.54530 0.13000
C 	C 	0.81490 0.01230 0.51910 -0.03700
C 	C 	0.26170 0.60300 0.56840 0.32800
C 	C 	0.39220 0.55280 0.52990 -0.17400
C 	C 	0.57110 0.54530 0.56170 0.13000
C 	C 	0.33400 0.51910 0.46860 -0.03700
C 	C 	0.83010 0.56840 0.82860 0.32700
C 	C 	0.92210 0.52990 0.91730 -0.17200
C 	C 	0.13280 0.56170 0.89300 0.12900
C 	C 	0.80260 0.46860 0.01230 -0.03900
C 	C 	0.34130 0.17140 0.39700 0.32800
C 	C 	0.16060 0.08270 0.44720 -0.17500
C 	C 	0.97420 0.10700 0.45470 0.13000
C 	C 	0.18510 0.98770 0.48090 -0.03700
C 	C 	0.73830 0.39700 0.43160 0.32800
C 	C 	0.60780 0.44720 0.47010 -0.17400
C 	C 	0.42890 0.45470 0.43830 0.13000
C 	C 	0.66600 0.48090 0.53140 -0.03700
C 	C 	0.16990 0.43160 0.17140 0.32700
C 	C 	0.07790 0.47010 0.08270 -0.17200
C 	C 	0.86720 0.43830 0.10700 0.12900
C 	C 	0.19740 0.53140 0.98770 -0.03900
O 	O 	0.66830 0.73040 0.65870 -0.49900
O 	O 	0.47980 0.83720 0.62450 -0.42600
O 	O 	0.07710 0.80150 0.56510 -0.53000
O 	O 	0.32700 0.65870 0.61090 -0.49900
O 	O 	0.10430 0.62450 0.53830 -0.42600
O 	O 	0.64220 0.56510 0.63340 -0.53000
O 	O 	0.93790 0.61090 0.73040 -0.49800
O 	O 	0.64260 0.53830 0.83720 -0.42600
O 	O 	0.27560 0.63340 0.80150 -0.53000
O 	O 	0.33170 0.26960 0.34130 -0.49900
O 	O 	0.52020 0.16280 0.37550 -0.42600
O 	O 	0.92290 0.19850 0.43490 -0.53000
O 	O 	0.67300 0.34130 0.38910 -0.49900
O 	O 	0.89570 0.37550 0.46170 -0.42600
O 	O 	0.35780 0.43490 0.36660 -0.53000
O 	O 	0.06210 0.38910 0.26960 -0.49800
O 	O 	0.35740 0.46170 0.16280 -0.42600
O 	O 	0.72440 0.36660 0.19850 -0.53000
