data_crystal

_cell_length_a 15.74700
_cell_length_b 22.89790
_cell_length_c 22.89790
_cell_angle_alpha 83.20980
_cell_angle_beta  69.88820
_cell_angle_gamma 69.88820

_symmetry_space_group_name_	'P 1'
_symmetry_space_group_name_H-M	'P 1'

loop_
_symmetry_equiv_pos_as_xyz
  x,y,z

loop_
_atom_site_label
_atom_site_type_symbol
_atom_site_fract_x
_atom_site_fract_y
_atom_site_fract_z
_atom_site_charge
Gd	Gd	0.58828 0.25325 0.20678 1.52000
Gd	Gd	0.34075 0.25107 0.19375 1.66100
Gd	Gd	0.04831 0.74675 0.79322 1.48400
Gd	Gd	0.78557 0.74893 0.80625 1.66800
Gd	Gd	0.04506 0.29322 0.75325 1.47600
Gd	Gd	0.78450 0.30625 0.75107 1.66500
Gd	Gd	0.09153 0.70678 0.24675 1.50100
Gd	Gd	0.84182 0.69375 0.24893 1.67000
Gd	Gd	0.54831 0.79322 0.74675 1.52100
Gd	Gd	0.28557 0.80625 0.74893 1.66300
Gd	Gd	0.08828 0.20678 0.25325 1.49400
Gd	Gd	0.84075 0.19375 0.25107 1.67800
Gd	Gd	0.59153 0.24675 0.70678 1.52300
Gd	Gd	0.34182 0.24893 0.69375 1.66400
Gd	Gd	0.54506 0.75325 0.29322 1.52100
Gd	Gd	0.28450 0.75107 0.30625 1.66300
H 	H 	0.59290 0.32220 0.99920 0.05100
H 	H 	0.61060 0.31690 0.89430 0.03700
H 	H 	0.56230 0.13090 0.87610 0.09400
H 	H 	0.52830 0.05390 0.94390 0.03200
H 	H 	0.52170 0.05690 0.04610 0.04800
H 	H 	0.54020 0.13790 0.08230 0.06300
H 	H 	0.26400 0.29550 0.50770 0.05600
H 	H 	0.26890 0.29460 0.40600 0.02900
H 	H 	0.51300 0.11770 0.32090 0.06100
H 	H 	0.61320 0.03770 0.35710 0.03900
H 	H 	0.60350 0.02940 0.46060 0.04300
H 	H 	0.49590 0.10930 0.52770 0.08000
H 	H 	0.45340 0.45070 0.17530 0.03300
H 	H 	0.42210 0.55340 0.19520 0.03800
H 	H 	0.17850 0.59110 0.38230 0.05200
H 	H 	0.08870 0.53650 0.44990 0.03600
H 	H 	0.11380 0.43390 0.42570 0.03100
H 	H 	0.23350 0.38700 0.33720 0.08300
H 	H 	0.91430 0.67780 0.00080 0.05600
H 	H 	0.82180 0.68310 0.10570 0.03700
H 	H 	0.56930 0.86910 0.12390 0.08800
H 	H 	0.52610 0.94610 0.05610 0.04000
H 	H 	0.62470 0.94310 0.95390 0.04000
H 	H 	0.76040 0.86210 0.91770 0.06900
H 	H 	0.06720 0.70450 0.49230 0.05200
H 	H 	0.96950 0.70540 0.59400 0.03800
H 	H 	0.95160 0.88230 0.67910 0.00600
H 	H 	0.00800 0.96230 0.64290 0.08700
H 	H 	0.09350 0.97060 0.53940 0.00100
H 	H 	0.13290 0.89070 0.47230 0.10900
H 	H 	0.07940 0.54930 0.82470 0.03500
H 	H 	0.17070 0.44660 0.80480 0.02800
H 	H 	0.15190 0.40890 0.61770 0.08700
H 	H 	0.07510 0.46350 0.55010 -0.01100
H 	H 	0.97340 0.56610 0.57430 0.11800
H 	H 	0.95770 0.61300 0.66280 0.02700
H 	H 	0.84210 0.50080 0.82220 0.05400
H 	H 	0.75490 0.60570 0.81690 0.03700
H 	H 	0.68840 0.62390 0.63090 0.09100
H 	H 	0.72220 0.55610 0.55390 0.03700
H 	H 	0.81780 0.45390 0.55690 0.04500
H 	H 	0.87250 0.41770 0.63790 0.06800
H 	H 	0.02170 0.99230 0.79550 0.08600
H 	H 	0.92490 0.09400 0.79460 -0.01000
H 	H 	0.08390 0.17910 0.61770 0.07300
H 	H 	0.22030 0.14290 0.53770 0.02300
H 	H 	0.31410 0.03940 0.52940 0.05700
H 	H 	0.27360 0.97230 0.60930 0.06500
H 	H 	0.87870 0.32470 0.95070 0.03200
H 	H 	0.86730 0.30480 0.05340 0.04500
H 	H 	0.81080 0.11770 0.09110 0.04900
H 	H 	0.78860 0.05010 0.03650 0.04900
H 	H 	0.78950 0.07430 0.93390 0.02900
H 	H 	0.82070 0.16280 0.88700 0.09000
H 	H 	0.16510 0.49920 0.17780 0.03200
H 	H 	0.17750 0.39430 0.18310 0.05300
H 	H 	0.94320 0.37610 0.36910 0.06300
H 	H 	0.83220 0.44390 0.44610 0.06700
H 	H 	0.82860 0.54610 0.44310 0.01500
H 	H 	0.92810 0.58230 0.36210 0.09700
H 	H 	0.80950 0.00770 0.20450 0.06100
H 	H 	0.81350 0.90600 0.20540 0.03000
H 	H 	0.88070 0.82090 0.38230 0.06300
H 	H 	0.90090 0.85710 0.46230 0.04400
H 	H 	0.88290 0.96060 0.47060 0.04700
H 	H 	0.85520 0.02770 0.39070 0.08300
H 	H 	0.15410 0.67530 0.04930 -0.00400
H 	H 	0.22550 0.69520 0.94660 0.06900
H 	H 	0.01960 0.88230 0.90890 -0.03500
H 	H 	0.87520 0.94990 0.96350 0.10100
H 	H 	0.79770 0.92570 0.06610 -0.01200
H 	H 	0.87050 0.83720 0.11300 0.13000
H 	H 	0.41430 0.00080 0.67780 0.05100
H 	H 	0.32180 0.10570 0.68310 0.03600
H 	H 	0.06930 0.12390 0.86910 0.08700
H 	H 	0.02610 0.05610 0.94610 0.03000
H 	H 	0.12470 0.95390 0.94310 0.04200
H 	H 	0.26040 0.91770 0.86210 0.06500
H 	H 	0.56720 0.49230 0.70450 0.05700
H 	H 	0.46950 0.59400 0.70540 0.03000
H 	H 	0.45160 0.67910 0.88230 0.06000
H 	H 	0.50800 0.64290 0.96230 0.04000
H 	H 	0.59350 0.53940 0.97060 0.04400
H 	H 	0.63290 0.47230 0.89070 0.08000
H 	H 	0.57940 0.82470 0.54930 0.03300
H 	H 	0.67070 0.80480 0.44660 0.03800
H 	H 	0.65190 0.61770 0.40890 0.05200
H 	H 	0.57510 0.55010 0.46350 0.04100
H 	H 	0.47340 0.57430 0.56610 0.03400
H 	H 	0.45770 0.66280 0.61300 0.08300
H 	H 	0.09290 0.99920 0.32220 0.04700
H 	H 	0.11060 0.89430 0.31690 0.03500
H 	H 	0.06230 0.87610 0.13090 0.08800
H 	H 	0.02830 0.94390 0.05390 0.03100
H 	H 	0.02170 0.04610 0.05690 0.03800
H 	H 	0.04020 0.08230 0.13790 0.06200
H 	H 	0.76400 0.50770 0.29550 0.06700
H 	H 	0.76890 0.40600 0.29460 0.02000
H 	H 	0.01300 0.32090 0.11770 0.09100
H 	H 	0.11320 0.35710 0.03770 0.00100
H 	H 	0.10350 0.46060 0.02940 0.07900
H 	H 	0.99590 0.52770 0.10930 0.05000
H 	H 	0.95340 0.17530 0.45070 0.03900
H 	H 	0.92210 0.19520 0.55340 0.04200
H 	H 	0.67850 0.38230 0.59110 0.05300
H 	H 	0.58870 0.44990 0.53650 0.04100
H 	H 	0.61380 0.42570 0.43390 0.03400
H 	H 	0.73350 0.33720 0.38700 0.08400
H 	H 	0.66510 0.17780 0.49920 0.05200
H 	H 	0.67750 0.18310 0.39430 0.03600
H 	H 	0.44320 0.36910 0.37610 0.09100
H 	H 	0.33220 0.44610 0.44390 0.03600
H 	H 	0.32860 0.44310 0.54610 0.04400
H 	H 	0.42810 0.36210 0.58230 0.06500
H 	H 	0.30950 0.20450 0.00770 0.04900
H 	H 	0.31350 0.20540 0.90600 0.03300
H 	H 	0.38070 0.38230 0.82090 0.06000
H 	H 	0.40090 0.46230 0.85710 0.03900
H 	H 	0.38290 0.47060 0.96060 0.04400
H 	H 	0.35520 0.39070 0.02770 0.07700
H 	H 	0.65410 0.04930 0.67530 0.03300
H 	H 	0.72550 0.94660 0.69520 0.04000
H 	H 	0.51960 0.90890 0.88230 0.05200
H 	H 	0.37520 0.96350 0.94990 0.04300
H 	H 	0.29770 0.06610 0.92570 0.03300
H 	H 	0.37050 0.11300 0.83720 0.08400
H 	H 	0.34210 0.82220 0.50080 0.05100
H 	H 	0.25490 0.81690 0.60570 0.03600
H 	H 	0.18840 0.63090 0.62390 0.08900
H 	H 	0.22220 0.55390 0.55610 0.03500
H 	H 	0.31780 0.55690 0.45390 0.04300
H 	H 	0.37250 0.63790 0.41770 0.06600
H 	H 	0.52170 0.79550 0.99230 0.06600
H 	H 	0.42490 0.79460 0.09400 0.02600
H 	H 	0.58390 0.61770 0.17910 0.06200
H 	H 	0.72030 0.53770 0.14290 0.03800
H 	H 	0.81410 0.52940 0.03940 0.04500
H 	H 	0.77360 0.60930 0.97230 0.08500
H 	H 	0.37870 0.95070 0.32470 0.03300
H 	H 	0.36730 0.05340 0.30480 0.03700
H 	H 	0.31080 0.09110 0.11770 0.05300
H 	H 	0.28860 0.03650 0.05010 0.03900
H 	H 	0.28950 0.93390 0.07430 0.03500
H 	H 	0.32070 0.88700 0.16280 0.08200
C 	C 	0.56940 0.24100 0.02340 -0.10500
C 	C 	0.58770 0.28790 0.98430 -0.01100
C 	C 	0.59860 0.28440 0.92060 0.01300
C 	C 	0.59190 0.23530 0.89710 -0.12000
C 	C 	0.57100 0.18560 0.93700 0.06800
C 	C 	0.55760 0.13340 0.91740 -0.10500
C 	C 	0.53800 0.08690 0.95770 -0.00100
C 	C 	0.53290 0.08930 0.01930 -0.04900
C 	C 	0.54390 0.13770 0.04090 -0.06100
C 	C 	0.56120 0.18850 0.00170 0.03000
C 	C 	0.56570 0.24720 0.08880 0.38100
C 	C 	0.60450 0.23650 0.82970 0.37100
C 	C 	0.36870 0.21390 0.50550 -0.07400
C 	C 	0.30810 0.26250 0.48190 -0.04200
C 	C 	0.31240 0.26260 0.42020 0.01500
C 	C 	0.38000 0.21600 0.37960 -0.12800
C 	C 	0.44140 0.16570 0.40150 0.05800
C 	C 	0.50870 0.11710 0.36250 -0.09300
C 	C 	0.56770 0.06890 0.38450 -0.01900
C 	C 	0.56350 0.06400 0.44640 -0.03100
C 	C 	0.49830 0.11160 0.48640 -0.07900
C 	C 	0.43540 0.16370 0.46630 0.03200
C 	C 	0.35650 0.22070 0.57290 0.30500
C 	C 	0.37800 0.22200 0.31380 0.39500
C 	C 	0.35230 0.43410 0.24810 -0.14200
C 	C 	0.40400 0.46900 0.21080 0.01300
C 	C 	0.38670 0.53070 0.22290 -0.01500
C 	C 	0.31600 0.55810 0.27690 -0.11300
C 	C 	0.26170 0.52280 0.31860 0.03700
C 	C 	0.18950 0.55010 0.37330 -0.07400
C 	C 	0.13540 0.51810 0.41350 -0.04200
C 	C 	0.15130 0.45610 0.39910 -0.01300
C 	C 	0.22260 0.42830 0.34550 -0.10000
C 	C 	0.27890 0.46110 0.30330 0.07100
C 	C 	0.37670 0.36860 0.22840 0.45300
C 	C 	0.29990 0.62320 0.28980 0.39500
C 	C 	0.83380 0.75900 0.97660 -0.09800
C 	C 	0.85990 0.71210 0.01570 -0.02100
C 	C 	0.80360 0.71560 0.07940 0.01600
C 	C 	0.72430 0.76470 0.10290 -0.11700
C 	C 	0.69360 0.81440 0.06300 0.05400
C 	C 	0.60840 0.86660 0.08260 -0.08900
C 	C 	0.58260 0.91310 0.04230 -0.02800
C 	C 	0.64150 0.91070 0.98070 -0.02200
C 	C 	0.72250 0.86230 0.95910 -0.07700
C 	C 	0.75140 0.81150 0.99830 0.04300
C 	C 	0.90170 0.75280 0.91120 0.37800
C 	C 	0.67070 0.76350 0.17030 0.37000
C 	C 	0.08810 0.78610 0.49450 -0.10200
C 	C 	0.05250 0.73750 0.51810 -0.04400
C 	C 	0.99520 0.73740 0.57980 0.00900
C 	C 	0.97560 0.78400 0.62040 -0.06000
C 	C 	0.00860 0.83430 0.59850 -0.06800
C 	C 	0.98830 0.88290 0.63750 0.08400
C 	C 	0.02110 0.93110 0.61550 -0.17700
C 	C 	0.07390 0.93600 0.55360 0.08000
C 	C 	0.09630 0.88840 0.51360 -0.16700
C 	C 	0.06540 0.83630 0.53370 0.09800
C 	C 	0.15010 0.77930 0.42710 0.31200
C 	C 	0.91380 0.77800 0.68620 0.37200
C 	C 	0.03450 0.56590 0.75190 -0.13200
C 	C 	0.08380 0.53100 0.78920 -0.00700
C 	C 	0.14030 0.46930 0.77710 0.00800
C 	C 	0.15100 0.44190 0.72310 -0.14800
C 	C 	0.10310 0.47720 0.68140 0.10600
C 	C 	0.11290 0.44990 0.62670 -0.17600
C 	C 	0.06700 0.48190 0.58650 0.09100
C 	C 	0.00650 0.54390 0.60090 -0.20800
C 	C 	0.99640 0.57170 0.65450 0.07300
C 	C 	0.04330 0.53890 0.69670 -0.02600
C 	C 	0.97370 0.63140 0.77160 0.49000
C 	C 	0.21290 0.37680 0.71020 0.40600
C 	C 	0.84280 0.47660 0.74100 -0.09900
C 	C 	0.82200 0.51570 0.78790 -0.01500
C 	C 	0.76920 0.57940 0.78440 0.01500
C 	C 	0.73900 0.60290 0.73530 -0.11900
C 	C 	0.75800 0.56300 0.68560 0.06200
C 	C 	0.72500 0.58260 0.63340 -0.09700
C 	C 	0.74570 0.54230 0.58690 -0.01400
C 	C 	0.80220 0.48070 0.58930 -0.03400
C 	C 	0.83480 0.45910 0.63770 -0.06700
C 	C 	0.81290 0.49830 0.68850 0.03800
C 	C 	0.90450 0.41120 0.74720 0.37900
C 	C 	0.68420 0.67030 0.73650 0.37100
C 	C 	0.12420 0.99450 0.71390 -0.02500
C 	C 	0.04000 0.01810 0.76250 -0.14300
C 	C 	0.98260 0.07980 0.76260 0.14800
C 	C 	0.00960 0.12040 0.71600 -0.22800
C 	C 	0.09290 0.09850 0.66570 0.11500
C 	C 	0.12120 0.13750 0.61710 -0.14300
C 	C 	0.20220 0.11550 0.56890 0.02300
C 	C 	0.25990 0.05360 0.56400 -0.07100
C 	C 	0.23470 0.01360 0.61160 -0.03800
C 	C 	0.15170 0.03370 0.66370 -0.01600
C 	C 	0.17940 0.92710 0.72070 0.28600
C 	C 	0.94180 0.18620 0.72200 0.44300
C 	C 	0.85040 0.25190 0.93410 -0.14800
C 	C 	0.86480 0.28920 0.96900 0.03000
C 	C 	0.85960 0.27710 0.03070 -0.02900
C 	C 	0.84290 0.22310 0.05810 -0.10100
C 	C 	0.83030 0.18140 0.02280 0.02300
C 	C 	0.81280 0.12670 0.05010 -0.05400
C 	C 	0.79890 0.08650 0.01810 -0.06000
C 	C 	0.80040 0.10090 0.95610 0.00900
C 	C 	0.81810 0.15450 0.92830 -0.11100
C 	C 	0.83220 0.19670 0.96110 0.08800
C 	C 	0.85510 0.27160 0.86860 0.45500
C 	C 	0.83970 0.21020 0.12320 0.39100
C 	C 	0.06040 0.52340 0.25900 -0.16800
C 	C 	0.12560 0.48430 0.21210 0.03400
C 	C 	0.13300 0.42060 0.21560 -0.03800
C 	C 	0.07720 0.39710 0.26470 -0.07200
C 	C 	0.00660 0.43700 0.31440 -0.04200
C 	C 	0.94100 0.41740 0.36660 0.00400
C 	C 	0.87490 0.45770 0.41310 -0.09800
C 	C 	0.87220 0.51930 0.41070 0.04900
C 	C 	0.93160 0.54090 0.36230 -0.14900
C 	C 	0.99970 0.50170 0.31150 0.13900
C 	C 	0.06290 0.58880 0.25280 0.37500
C 	C 	0.09100 0.32970 0.26350 0.35100
C 	C 	0.83260 0.00550 0.28610 -0.06700
C 	C 	0.82060 0.98190 0.23750 -0.04500
C 	C 	0.82500 0.92020 0.23740 0.02000
C 	C 	0.84600 0.87960 0.28400 -0.12500
C 	C 	0.85710 0.90150 0.33430 0.06100
C 	C 	0.87580 0.86250 0.38290 -0.09000
C 	C 	0.88660 0.88450 0.43110 -0.01700
C 	C 	0.87750 0.94640 0.43600 -0.02800
C 	C 	0.85990 0.98640 0.38840 -0.07800
C 	C 	0.84910 0.96630 0.33630 0.03300
C 	C 	0.82720 0.07290 0.27930 0.30500
C 	C 	0.85000 0.81380 0.27800 0.39400
C 	C 	0.03640 0.74810 0.06590 -0.27500
C 	C 	0.12300 0.71080 0.03100 0.11400
C 	C 	0.16740 0.72290 0.96930 -0.10600
C 	C 	0.12410 0.77690 0.94190 -0.02700
C 	C 	0.03450 0.81860 0.97720 -0.13200
C 	C 	0.98960 0.87330 0.94990 0.14000
C 	C 	0.90350 0.91350 0.98190 -0.19600
C 	C 	0.85740 0.89910 0.04390 0.11900
C 	C 	0.90090 0.84550 0.07170 -0.22800
C 	C 	0.99000 0.80330 0.03890 0.23000
C 	C 	0.99530 0.72840 0.13140 0.54000
C 	C 	0.17310 0.78980 0.87680 0.36200
C 	C 	0.33380 0.97660 0.75900 -0.10400
C 	C 	0.35990 0.01570 0.71210 -0.01400
C 	C 	0.30360 0.07940 0.71560 0.01400
C 	C 	0.22430 0.10290 0.76470 -0.12000
C 	C 	0.19360 0.06300 0.81440 0.06100
C 	C 	0.10840 0.08260 0.86660 -0.10000
C 	C 	0.08260 0.04230 0.91310 -0.01500
C 	C 	0.14150 0.98070 0.91070 -0.03700
C 	C 	0.22250 0.95910 0.86230 -0.06800
C 	C 	0.25140 0.99830 0.81150 0.03600
C 	C 	0.40170 0.91120 0.75280 0.38100
C 	C 	0.17070 0.17030 0.76350 0.37100
C 	C 	0.58810 0.49450 0.78610 -0.07400
C 	C 	0.55250 0.51810 0.73750 -0.04200
C 	C 	0.49520 0.57980 0.73740 0.01500
C 	C 	0.47560 0.62040 0.78400 -0.12800
C 	C 	0.50860 0.59850 0.83430 0.05800
C 	C 	0.48830 0.63750 0.88290 -0.09300
C 	C 	0.52110 0.61550 0.93110 -0.01900
C 	C 	0.57390 0.55360 0.93600 -0.03100
C 	C 	0.59630 0.51360 0.88840 -0.07900
C 	C 	0.56540 0.53370 0.83630 0.03200
C 	C 	0.65010 0.42710 0.77930 0.30400
C 	C 	0.41380 0.68620 0.77800 0.39500
C 	C 	0.53450 0.75190 0.56590 -0.14200
C 	C 	0.58380 0.78920 0.53100 0.01400
C 	C 	0.64030 0.77710 0.46930 -0.01500
C 	C 	0.65100 0.72310 0.44190 -0.11300
C 	C 	0.60310 0.68140 0.47720 0.03600
C 	C 	0.61290 0.62670 0.44990 -0.07100
C 	C 	0.56700 0.58650 0.48190 -0.04300
C 	C 	0.50650 0.60090 0.54390 -0.01100
C 	C 	0.49640 0.65450 0.57170 -0.10000
C 	C 	0.54330 0.69670 0.53890 0.07100
C 	C 	0.47370 0.77160 0.63140 0.45300
C 	C 	0.71290 0.71020 0.37680 0.39600
C 	C 	0.06940 0.02340 0.24100 -0.10800
C 	C 	0.08770 0.98430 0.28790 -0.01600
C 	C 	0.09860 0.92060 0.28440 0.01000
C 	C 	0.09190 0.89710 0.23530 -0.12000
C 	C 	0.07100 0.93700 0.18560 0.05700
C 	C 	0.05760 0.91740 0.13340 -0.09900
C 	C 	0.03800 0.95770 0.08690 -0.01800
C 	C 	0.03290 0.01930 0.08930 -0.03600
C 	C 	0.04390 0.04090 0.13770 -0.07300
C 	C 	0.06120 0.00170 0.18850 0.03600
C 	C 	0.06570 0.08880 0.24720 0.38200
C 	C 	0.10450 0.82970 0.23650 0.36800
C 	C 	0.86870 0.50550 0.21390 -0.03900
C 	C 	0.80810 0.48190 0.26250 -0.07200
C 	C 	0.81240 0.42020 0.26260 0.04800
C 	C 	0.88000 0.37960 0.21600 -0.16100
C 	C 	0.94140 0.40150 0.16570 0.13900
C 	C 	0.00870 0.36250 0.11710 -0.20400
C 	C 	0.06770 0.38450 0.06890 0.08000
C 	C 	0.06350 0.44640 0.06400 -0.14900
C 	C 	0.99830 0.48640 0.11160 0.02600
C 	C 	0.93540 0.46630 0.16370 -0.02700
C 	C 	0.85650 0.57290 0.22070 0.29300
C 	C 	0.87800 0.31380 0.22200 0.40800
C 	C 	0.85230 0.24810 0.43410 -0.13800
C 	C 	0.90400 0.21080 0.46900 0.01300
C 	C 	0.88670 0.22290 0.53070 -0.01300
C 	C 	0.81600 0.27690 0.55810 -0.11200
C 	C 	0.76170 0.31860 0.52280 0.03700
C 	C 	0.68950 0.37330 0.55010 -0.07200
C 	C 	0.63540 0.41350 0.51810 -0.04200
C 	C 	0.65130 0.39910 0.45610 -0.01200
C 	C 	0.72260 0.34550 0.42830 -0.09900
C 	C 	0.77890 0.30330 0.46110 0.07100
C 	C 	0.87670 0.22840 0.36860 0.45100
C 	C 	0.79990 0.28980 0.62320 0.39600
C 	C 	0.56040 0.25900 0.52340 -0.10300
C 	C 	0.62560 0.21210 0.48430 -0.01500
C 	C 	0.63300 0.21560 0.42060 0.01400
C 	C 	0.57720 0.26470 0.39710 -0.11900
C 	C 	0.50660 0.31440 0.43700 0.06100
C 	C 	0.44100 0.36660 0.41740 -0.09800
C 	C 	0.37490 0.41310 0.45770 -0.01400
C 	C 	0.37220 0.41070 0.51930 -0.03600
C 	C 	0.43160 0.36230 0.54090 -0.06900
C 	C 	0.49970 0.31150 0.50170 0.03700
C 	C 	0.56290 0.25280 0.58880 0.38100
C 	C 	0.59100 0.26350 0.32970 0.37100
C 	C 	0.33260 0.28610 0.00550 -0.08400
C 	C 	0.32060 0.23750 0.98190 -0.02700
C 	C 	0.32500 0.23740 0.92020 0.00600
C 	C 	0.34600 0.28400 0.87960 -0.12300
C 	C 	0.35710 0.33430 0.90150 0.05400
C 	C 	0.37580 0.38290 0.86250 -0.09100
C 	C 	0.38660 0.43110 0.88450 -0.02000
C 	C 	0.37750 0.43600 0.94640 -0.03200
C 	C 	0.35990 0.38840 0.98640 -0.07700
C 	C 	0.34910 0.33630 0.96630 0.03800
C 	C 	0.32720 0.27930 0.07290 0.30700
C 	C 	0.35000 0.27800 0.81380 0.39300
C 	C 	0.53640 0.06590 0.74810 -0.14400
C 	C 	0.62300 0.03100 0.71080 0.01600
C 	C 	0.66740 0.96930 0.72290 -0.01800
C 	C 	0.62410 0.94190 0.77690 -0.11100
C 	C 	0.53450 0.97720 0.81860 0.03400
C 	C 	0.48960 0.94990 0.87330 -0.06900
C 	C 	0.40350 0.98190 0.91350 -0.04500
C 	C 	0.35740 0.04390 0.89910 -0.00800
C 	C 	0.40090 0.07170 0.84550 -0.10200
C 	C 	0.49000 0.03890 0.80330 0.07400
C 	C 	0.49530 0.13140 0.72840 0.45400
C 	C 	0.67310 0.87680 0.78980 0.39500
C 	C 	0.34280 0.74100 0.47660 -0.10400
C 	C 	0.32200 0.78790 0.51570 -0.01500
C 	C 	0.26920 0.78440 0.57940 0.01300
C 	C 	0.23900 0.73530 0.60290 -0.11900
C 	C 	0.25800 0.68560 0.56300 0.06000
C 	C 	0.22500 0.63340 0.58260 -0.09800
C 	C 	0.24570 0.58690 0.54230 -0.01600
C 	C 	0.30220 0.58930 0.48070 -0.03500
C 	C 	0.33480 0.63770 0.45910 -0.06900
C 	C 	0.31290 0.68850 0.49830 0.03700
C 	C 	0.40450 0.74720 0.41120 0.38100
C 	C 	0.18420 0.73650 0.67030 0.36900
C 	C 	0.62420 0.71390 0.99450 -0.06000
C 	C 	0.54000 0.76250 0.01810 -0.06200
C 	C 	0.48260 0.76260 0.07980 0.02600
C 	C 	0.50960 0.71600 0.12040 -0.13400
C 	C 	0.59290 0.66570 0.09850 0.06300
C 	C 	0.62120 0.61710 0.13750 -0.09600
C 	C 	0.70220 0.56890 0.11550 -0.01800
C 	C 	0.75990 0.56400 0.05360 -0.03000
C 	C 	0.73470 0.61160 0.01360 -0.08200
C 	C 	0.65170 0.66370 0.03370 0.02500
C 	C 	0.67940 0.72070 0.92710 0.30000
C 	C 	0.44180 0.72200 0.18620 0.39700
C 	C 	0.35040 0.93410 0.25190 -0.14100
C 	C 	0.36480 0.96900 0.28920 0.01100
C 	C 	0.35960 0.03070 0.27710 -0.01300
C 	C 	0.34290 0.05810 0.22310 -0.11500
C 	C 	0.33030 0.02280 0.18140 0.03900
C 	C 	0.31280 0.05010 0.12670 -0.07500
C 	C 	0.29890 0.01810 0.08650 -0.03900
C 	C 	0.30040 0.95610 0.10090 -0.01400
C 	C 	0.31810 0.92830 0.15450 -0.09700
C 	C 	0.33220 0.96110 0.19670 0.06900
C 	C 	0.35510 0.86860 0.27160 0.45200
C 	C 	0.33970 0.12320 0.21020 0.39500
O 	O 	0.50684 0.22890 0.13522 -0.49900
O 	O 	0.62094 0.26967 0.09765 -0.41600
O 	O 	0.64356 0.27395 0.79353 -0.49300
O 	O 	0.57843 0.20023 0.80811 -0.40600
O 	O 	0.40717 0.18112 0.60114 -0.37200
O 	O 	0.29449 0.26965 0.60237 -0.39500
O 	O 	0.45163 0.22166 0.26788 -0.48300
O 	O 	0.30075 0.22913 0.30577 -0.41100
O 	O 	0.46360 0.34080 0.20060 -0.47000
O 	O 	0.31450 0.34440 0.23860 -0.46500
O 	O 	0.36014 0.63682 0.30390 -0.40100
O 	O 	0.22829 0.66677 0.28285 -0.51100
O 	O 	0.87096 0.77110 0.86478 -0.49200
O 	O 	0.98826 0.73033 0.90235 -0.39600
O 	O 	0.71104 0.72605 0.20647 -0.49300
O 	O 	0.58677 0.79977 0.19189 -0.40600
O 	O 	0.18943 0.81888 0.39886 -0.37700
O 	O 	0.16651 0.73035 0.39763 -0.39800
O 	O 	0.94117 0.77834 0.73212 -0.46300
O 	O 	0.83565 0.77087 0.69423 -0.40300
O 	O 	0.00500 0.65920 0.79940 -0.49500
O 	O 	0.89750 0.65560 0.76140 -0.46900
O 	O 	0.30086 0.36318 0.69610 -0.40400
O 	O 	0.17791 0.33323 0.71715 -0.51500
O 	O 	0.89206 0.36478 0.72890 -0.49200
O 	O 	0.96859 0.40235 0.76967 -0.39700
O 	O 	0.68709 0.70647 0.77395 -0.49300
O 	O 	0.63654 0.69189 0.70023 -0.40600
O 	O 	0.25831 0.89886 0.68112 -0.36700
O 	O 	0.14686 0.89763 0.76965 -0.39000
O 	O 	0.96951 0.23212 0.72166 -0.48000
O 	O 	0.85652 0.19423 0.72913 -0.42000
O 	O 	0.91420 0.29940 0.84080 -0.45800
O 	O 	0.80310 0.26140 0.84440 -0.46400
O 	O 	0.91404 0.19610 0.13682 -0.39300
O 	O 	0.76114 0.21715 0.16677 -0.51100
O 	O 	0.98574 0.63522 0.27110 -0.48300
O 	O 	0.14061 0.59765 0.23033 -0.41300
O 	O 	0.16751 0.29353 0.22605 -0.48800
O 	O 	0.02866 0.30811 0.29977 -0.41000
O 	O 	0.83829 0.10114 0.31888 -0.36900
O 	O 	0.81414 0.10237 0.23035 -0.39100
O 	O 	0.92329 0.76788 0.27834 -0.47300
O 	O 	0.77988 0.80577 0.27087 -0.41100
O 	O 	0.05440 0.70060 0.15920 -0.50500
O 	O 	0.90890 0.73860 0.15560 -0.48800
O 	O 	0.24696 0.80390 0.86318 -0.39200
O 	O 	0.14506 0.78285 0.83323 -0.50300
O 	O 	0.37096 0.86478 0.77110 -0.50000
O 	O 	0.48826 0.90235 0.73033 -0.41500
O 	O 	0.21104 0.20647 0.72605 -0.49100
O 	O 	0.08677 0.19189 0.79977 -0.41100
O 	O 	0.68943 0.39886 0.81888 -0.37200
O 	O 	0.66651 0.39763 0.73035 -0.39400
O 	O 	0.44117 0.73212 0.77834 -0.48300
O 	O 	0.33565 0.69423 0.77087 -0.41100
O 	O 	0.50500 0.79940 0.65920 -0.47000
O 	O 	0.39750 0.76140 0.65560 -0.46500
O 	O 	0.80086 0.69610 0.36318 -0.40100
O 	O 	0.67791 0.71715 0.33323 -0.51300
O 	O 	0.00684 0.13522 0.22890 -0.51200
O 	O 	0.12094 0.09765 0.26967 -0.41600
O 	O 	0.14356 0.79353 0.27395 -0.49400
O 	O 	0.07843 0.80811 0.20023 -0.41000
O 	O 	0.90717 0.60114 0.18112 -0.36300
O 	O 	0.79449 0.60237 0.26965 -0.39200
O 	O 	0.95163 0.26788 0.22166 -0.47300
O 	O 	0.80075 0.30577 0.22913 -0.41400
O 	O 	0.96360 0.20060 0.34080 -0.45400
O 	O 	0.81450 0.23860 0.34440 -0.46400
O 	O 	0.86014 0.30390 0.63682 -0.39800
O 	O 	0.72829 0.28285 0.66677 -0.51200
O 	O 	0.48574 0.27110 0.63522 -0.50000
O 	O 	0.64061 0.23033 0.59765 -0.41400
O 	O 	0.66751 0.22605 0.29353 -0.49400
O 	O 	0.52866 0.29977 0.30811 -0.40700
O 	O 	0.33829 0.31888 0.10114 -0.37400
O 	O 	0.31414 0.23035 0.10237 -0.39500
O 	O 	0.42329 0.27834 0.76788 -0.48300
O 	O 	0.27988 0.27087 0.80577 -0.41100
O 	O 	0.55440 0.15920 0.70060 -0.46900
O 	O 	0.40890 0.15560 0.73860 -0.46500
O 	O 	0.74696 0.86318 0.80390 -0.39900
O 	O 	0.64506 0.83323 0.78285 -0.51200
O 	O 	0.39206 0.72890 0.36478 -0.50000
O 	O 	0.46859 0.76967 0.40235 -0.41500
O 	O 	0.18709 0.77395 0.70647 -0.49300
O 	O 	0.13654 0.70023 0.69189 -0.40900
O 	O 	0.75831 0.68112 0.89886 -0.36900
O 	O 	0.64686 0.76965 0.89763 -0.39300
O 	O 	0.46951 0.72166 0.23212 -0.48300
O 	O 	0.35652 0.72913 0.19423 -0.41100
O 	O 	0.41420 0.84080 0.29940 -0.47000
O 	O 	0.30310 0.84440 0.26140 -0.46500
O 	O 	0.41404 0.13682 0.19610 -0.40100
O 	O 	0.26114 0.16677 0.21715 -0.51000
