data_crystal

_cell_length_a 15.73700
_cell_length_b 22.88560
_cell_length_c 22.88560
_cell_angle_alpha 83.21110
_cell_angle_beta  69.89030
_cell_angle_gamma 69.89030

_symmetry_space_group_name_	'P 1'
_symmetry_space_group_name_H-M	'P 1'

loop_
_symmetry_equiv_pos_as_xyz
  x,y,z

loop_
_atom_site_label
_atom_site_type_symbol
_atom_site_fract_x
_atom_site_fract_y
_atom_site_fract_z
_atom_site_charge
Eu	Eu	0.58836 0.25256 0.20536 1.85500
Eu	Eu	0.34222 0.24973 0.19455 2.04000
Eu	Eu	0.04628 0.74744 0.79464 1.76700
Eu	Eu	0.78650 0.75027 0.80545 2.04600
Eu	Eu	0.04372 0.29464 0.75256 1.77700
Eu	Eu	0.78676 0.30546 0.74973 2.04600
Eu	Eu	0.09092 0.70536 0.24744 1.81900
Eu	Eu	0.84196 0.69454 0.25027 2.05500
Eu	Eu	0.54628 0.79464 0.74744 1.85400
Eu	Eu	0.28649 0.80546 0.75027 2.04000
Eu	Eu	0.08836 0.20536 0.25256 1.80700
Eu	Eu	0.84223 0.19454 0.24973 2.06700
Eu	Eu	0.59092 0.24744 0.70536 1.85600
Eu	Eu	0.34195 0.25027 0.69455 2.04100
Eu	Eu	0.54372 0.75256 0.29464 1.85300
Eu	Eu	0.28677 0.74973 0.30545 2.04100
H 	H 	0.59100 0.32190 0.99790 0.05100
H 	H 	0.60800 0.31720 0.89340 0.02600
H 	H 	0.56000 0.13020 0.87580 0.09600
H 	H 	0.52800 0.05340 0.94200 0.02600
H 	H 	0.52100 0.05590 0.04430 0.05200
H 	H 	0.54240 0.13590 0.08010 0.05300
H 	H 	0.26430 0.29340 0.50740 0.05300
H 	H 	0.27150 0.29290 0.40530 0.02400
H 	H 	0.51910 0.11430 0.32170 0.05000
H 	H 	0.61910 0.03520 0.35940 0.03900
H 	H 	0.60300 0.02710 0.46270 0.04000
H 	H 	0.49620 0.10840 0.53040 0.08200
H 	H 	0.45530 0.44500 0.18220 0.02200
H 	H 	0.42670 0.54820 0.19900 0.03600
H 	H 	0.17520 0.59130 0.38470 0.04000
H 	H 	0.08090 0.53890 0.45030 0.03400
H 	H 	0.10270 0.43680 0.42820 0.02600
H 	H 	0.22780 0.38670 0.34330 0.08400
H 	H 	0.91080 0.67810 0.00210 0.05800
H 	H 	0.81860 0.68280 0.10660 0.02700
H 	H 	0.56600 0.86980 0.12420 0.08600
H 	H 	0.52340 0.94660 0.05800 0.03900
H 	H 	0.62120 0.94410 0.95570 0.03900
H 	H 	0.75840 0.86410 0.91990 0.06500
H 	H 	0.06510 0.70660 0.49260 0.04900
H 	H 	0.96970 0.70710 0.59470 0.03800
H 	H 	0.95510 0.88570 0.67830 -0.02700
H 	H 	0.01370 0.96480 0.64060 0.11100
H 	H 	0.09280 0.97290 0.53730 -0.02200
H 	H 	0.13500 0.89160 0.46960 0.12200
H 	H 	0.08250 0.55500 0.81780 0.02600
H 	H 	0.17390 0.45180 0.80100 0.02000
H 	H 	0.15120 0.40870 0.61530 0.09500
H 	H 	0.07010 0.46110 0.54970 -0.03700
H 	H 	0.96770 0.56320 0.57180 0.16000
H 	H 	0.95780 0.61330 0.65670 0.00200
H 	H 	0.83890 0.50210 0.82190 0.05600
H 	H 	0.75140 0.60660 0.81720 0.02700
H 	H 	0.68580 0.62420 0.63020 0.09100
H 	H 	0.72000 0.55800 0.55340 0.03400
H 	H 	0.81530 0.45570 0.55590 0.04600
H 	H 	0.87250 0.41990 0.63590 0.06300
H 	H 	0.02170 0.99260 0.79340 0.09900
H 	H 	0.92680 0.09470 0.79290 -0.03800
H 	H 	0.09080 0.17830 0.61430 0.06700
H 	H 	0.22850 0.14060 0.53520 0.01600
H 	H 	0.31570 0.03730 0.52710 0.06000
H 	H 	0.27660 0.96960 0.60840 0.06000
H 	H 	0.88750 0.31780 0.94500 0.02200
H 	H 	0.87570 0.30100 0.04820 0.04700
H 	H 	0.80990 0.11530 0.09130 0.03700
H 	H 	0.78120 0.04970 0.03890 0.05400
H 	H 	0.78090 0.07180 0.93680 0.02300
H 	H 	0.82110 0.15670 0.88670 0.09600
H 	H 	0.16290 0.49790 0.17810 0.02200
H 	H 	0.17520 0.39340 0.18280 0.05200
H 	H 	0.94020 0.37580 0.36980 0.04100
H 	H 	0.83140 0.44200 0.44660 0.08800
H 	H 	0.82690 0.54430 0.44410 -0.00500
H 	H 	0.92830 0.58010 0.36410 0.11300
H 	H 	0.80770 0.00740 0.20660 0.06100
H 	H 	0.81440 0.90530 0.20710 0.02400
H 	H 	0.88340 0.82170 0.38570 0.05400
H 	H 	0.90430 0.85940 0.46480 0.04800
H 	H 	0.88010 0.96270 0.47290 0.04500
H 	H 	0.85460 0.03040 0.39160 0.08600
H 	H 	0.15030 0.68220 0.05500 -0.03100
H 	H 	0.22490 0.69900 0.95180 0.08100
H 	H 	0.01650 0.88470 0.90870 -0.08700
H 	H 	0.86980 0.95030 0.96110 0.13000
H 	H 	0.78950 0.92820 0.06320 -0.03700
H 	H 	0.86450 0.84330 0.11330 0.15200
H 	H 	0.41080 0.00210 0.67810 0.05100
H 	H 	0.31860 0.10660 0.68280 0.02600
H 	H 	0.06600 0.12420 0.86980 0.08400
H 	H 	0.02340 0.05800 0.94660 0.02300
H 	H 	0.12120 0.95570 0.94410 0.04400
H 	H 	0.25840 0.91990 0.86410 0.05700
H 	H 	0.56510 0.49260 0.70660 0.05500
H 	H 	0.46970 0.59470 0.70710 0.02500
H 	H 	0.45510 0.67830 0.88570 0.05000
H 	H 	0.51370 0.64060 0.96480 0.04100
H 	H 	0.59280 0.53730 0.97290 0.04200
H 	H 	0.63500 0.46960 0.89160 0.08200
H 	H 	0.58250 0.81780 0.55500 0.02200
H 	H 	0.67390 0.80100 0.45180 0.03600
H 	H 	0.65120 0.61530 0.40870 0.04100
H 	H 	0.57010 0.54970 0.46110 0.04300
H 	H 	0.46770 0.57180 0.56320 0.03000
H 	H 	0.45780 0.65670 0.61330 0.08500
H 	H 	0.09100 0.99790 0.32190 0.04500
H 	H 	0.10800 0.89340 0.31720 0.02400
H 	H 	0.06000 0.87580 0.13020 0.08500
H 	H 	0.02800 0.94200 0.05340 0.02500
H 	H 	0.02100 0.04430 0.05590 0.03700
H 	H 	0.04240 0.08010 0.13590 0.05300
H 	H 	0.76430 0.50740 0.29340 0.06900
H 	H 	0.77150 0.40530 0.29290 0.01000
H 	H 	0.01910 0.32170 0.11430 0.09200
H 	H 	0.11910 0.35940 0.03520 -0.01500
H 	H 	0.10300 0.46270 0.02710 0.09000
H 	H 	0.99620 0.53040 0.10840 0.04000
H 	H 	0.95530 0.18220 0.44500 0.03200
H 	H 	0.92670 0.19900 0.54820 0.04300
H 	H 	0.67520 0.38470 0.59130 0.04200
H 	H 	0.58090 0.45030 0.53890 0.04200
H 	H 	0.60270 0.42820 0.43680 0.03100
H 	H 	0.72780 0.34330 0.38670 0.08600
H 	H 	0.66290 0.17810 0.49790 0.05200
H 	H 	0.67520 0.18280 0.39340 0.02600
H 	H 	0.44020 0.36980 0.37580 0.09100
H 	H 	0.33140 0.44660 0.44200 0.03200
H 	H 	0.32690 0.44410 0.54430 0.04600
H 	H 	0.42830 0.36410 0.58010 0.05700
H 	H 	0.30770 0.20660 0.00740 0.04400
H 	H 	0.31440 0.20710 0.90530 0.02900
H 	H 	0.38340 0.38570 0.82170 0.04900
H 	H 	0.40430 0.46480 0.85940 0.03900
H 	H 	0.38010 0.47290 0.96270 0.04100
H 	H 	0.35460 0.39160 0.03040 0.07700
H 	H 	0.65030 0.05500 0.68220 0.02300
H 	H 	0.72490 0.95180 0.69900 0.04000
H 	H 	0.51650 0.90870 0.88470 0.04000
H 	H 	0.36980 0.96110 0.95030 0.04500
H 	H 	0.28950 0.06320 0.92820 0.02900
H 	H 	0.36450 0.11330 0.84330 0.08600
H 	H 	0.33890 0.82190 0.50210 0.05100
H 	H 	0.25140 0.81720 0.60660 0.02600
H 	H 	0.18580 0.63020 0.62420 0.08700
H 	H 	0.22000 0.55340 0.55800 0.03100
H 	H 	0.31530 0.55590 0.45570 0.04500
H 	H 	0.37250 0.63590 0.41990 0.05800
H 	H 	0.52170 0.79340 0.99260 0.06800
H 	H 	0.42680 0.79290 0.09470 0.01900
H 	H 	0.59080 0.61430 0.17830 0.05100
H 	H 	0.72850 0.53520 0.14060 0.03900
H 	H 	0.81570 0.52710 0.03730 0.04200
H 	H 	0.77660 0.60840 0.96960 0.08900
H 	H 	0.38750 0.94500 0.31780 0.02300
H 	H 	0.37570 0.04820 0.30100 0.03400
H 	H 	0.30990 0.09130 0.11530 0.04300
H 	H 	0.28120 0.03890 0.04970 0.03900
H 	H 	0.28090 0.93680 0.07180 0.03100
H 	H 	0.32110 0.88670 0.15670 0.08400
C 	C 	0.57030 0.23990 0.02210 -0.10700
C 	C 	0.58650 0.28740 0.98280 -0.01400
C 	C 	0.59650 0.28450 0.91970 0.02100
C 	C 	0.58980 0.23480 0.89600 -0.13000
C 	C 	0.56850 0.18490 0.93650 0.07700
C 	C 	0.55570 0.13250 0.91710 -0.11900
C 	C 	0.53740 0.08650 0.95610 0.01600
C 	C 	0.53270 0.08830 0.01750 -0.06600
C 	C 	0.54490 0.13630 0.03890 -0.04800
C 	C 	0.56140 0.18710 0.00070 0.02000
C 	C 	0.56680 0.24570 0.08730 0.38900
C 	C 	0.60580 0.23490 0.82790 0.39000
C 	C 	0.36760 0.21220 0.50680 -0.07800
C 	C 	0.30870 0.26020 0.48200 -0.04200
C 	C 	0.31360 0.26030 0.42010 0.01800
C 	C 	0.37960 0.21310 0.38110 -0.13700
C 	C 	0.44280 0.16350 0.40270 0.05200
C 	C 	0.51320 0.11400 0.36360 -0.08500
C 	C 	0.57190 0.06630 0.38650 -0.02800
C 	C 	0.56430 0.06220 0.44800 -0.02700
C 	C 	0.49860 0.11030 0.48910 -0.08400
C 	C 	0.43630 0.16170 0.46750 0.03500
C 	C 	0.35760 0.21950 0.57350 0.31300
C 	C 	0.37900 0.21880 0.31420 0.43000
C 	C 	0.35060 0.42990 0.25210 -0.16500
C 	C 	0.40420 0.46440 0.21640 0.02700
C 	C 	0.38900 0.52680 0.22680 -0.02300
C 	C 	0.31720 0.55540 0.27880 -0.11700
C 	C 	0.25810 0.52130 0.32090 0.02500
C 	C 	0.18480 0.55050 0.37570 -0.06600
C 	C 	0.12890 0.51930 0.41470 -0.05100
C 	C 	0.14270 0.45780 0.40200 -0.00800
C 	C 	0.21720 0.42840 0.34980 -0.10900
C 	C 	0.27750 0.45810 0.30610 0.08300
C 	C 	0.37140 0.36540 0.23340 0.47400
C 	C 	0.30080 0.62150 0.29050 0.42400
C 	C 	0.83230 0.76010 0.97790 -0.09700
C 	C 	0.85670 0.71260 0.01720 -0.02700
C 	C 	0.80070 0.71550 0.08030 0.02400
C 	C 	0.72060 0.76520 0.10400 -0.12500
C 	C 	0.68990 0.81510 0.06350 0.05300
C 	C 	0.60530 0.86750 0.08290 -0.09000
C 	C 	0.58000 0.91350 0.04390 -0.02800
C 	C 	0.63850 0.91170 0.98250 -0.02200
C 	C 	0.72010 0.86370 0.96110 -0.07600
C 	C 	0.74920 0.81290 0.99930 0.04200
C 	C 	0.89980 0.75430 0.91270 0.38500
C 	C 	0.66860 0.76510 0.17210 0.38800
C 	C 	0.08660 0.78780 0.49320 -0.11700
C 	C 	0.05090 0.73980 0.51800 -0.04900
C 	C 	0.99400 0.73970 0.57990 0.01200
C 	C 	0.97380 0.78690 0.61890 -0.03800
C 	C 	0.00900 0.83650 0.59730 -0.12700
C 	C 	0.99080 0.88600 0.63640 0.16900
C 	C 	0.02470 0.93370 0.61350 -0.26200
C 	C 	0.07450 0.93780 0.55200 0.13500
C 	C 	0.09800 0.88970 0.51090 -0.20900
C 	C 	0.06550 0.83830 0.53250 0.12600
C 	C 	0.15060 0.78050 0.42650 0.32300
C 	C 	0.91200 0.78120 0.68580 0.39700
C 	C 	0.03260 0.57010 0.74790 -0.13400
C 	C 	0.08500 0.53560 0.78360 -0.01300
C 	C 	0.14260 0.47320 0.77320 0.01600
C 	C 	0.15140 0.44460 0.72120 -0.16600
C 	C 	0.10030 0.47870 0.67910 0.12400
C 	C 	0.11100 0.44950 0.62430 -0.22100
C 	C 	0.06290 0.48070 0.58530 0.15500
C 	C 	0.00250 0.54220 0.59800 -0.30700
C 	C 	0.99540 0.57160 0.65020 0.15300
C 	C 	0.04170 0.54190 0.69390 -0.06700
C 	C 	0.97020 0.63460 0.76660 0.48100
C 	C 	0.21280 0.37850 0.70950 0.43900
C 	C 	0.84240 0.47790 0.73990 -0.10000
C 	C 	0.81930 0.51720 0.78740 -0.01900
C 	C 	0.76620 0.58030 0.78450 0.02300
C 	C 	0.73580 0.60400 0.73480 -0.12700
C 	C 	0.75500 0.56350 0.68490 0.06600
C 	C 	0.72280 0.58290 0.63250 -0.10400
C 	C 	0.74350 0.54390 0.58650 -0.00600
C 	C 	0.80020 0.48250 0.58830 -0.04100
C 	C 	0.83380 0.46110 0.63630 -0.06000
C 	C 	0.81210 0.49930 0.68710 0.03400
C 	C 	0.90410 0.41270 0.74570 0.38800
C 	C 	0.68370 0.67210 0.73490 0.38900
C 	C 	0.12440 0.99320 0.71220 -0.00500
C 	C 	0.04070 0.01800 0.76020 -0.19800
C 	C 	0.98370 0.07990 0.76030 0.22600
C 	C 	0.01070 0.11890 0.71310 -0.29000
C 	C 	0.09550 0.09730 0.66350 0.13600
C 	C 	0.12680 0.13640 0.61400 -0.15700
C 	C 	0.20840 0.11350 0.56630 0.03400
C 	C 	0.26230 0.05200 0.56220 -0.08500
C 	C 	0.23770 0.01090 0.61030 -0.02600
C 	C 	0.15380 0.03250 0.66170 -0.03600
C 	C 	0.18110 0.92650 0.71950 0.28500
C 	C 	0.94320 0.18580 0.71880 0.50100
C 	C 	0.85270 0.24790 0.92990 -0.17300
C 	C 	0.87060 0.28360 0.96440 0.05000
C 	C 	0.86580 0.27320 0.02680 -0.04200
C 	C 	0.84600 0.22120 0.05540 -0.10000
C 	C 	0.82900 0.17910 0.02130 0.00600
C 	C 	0.81050 0.12430 0.05050 -0.03700
C 	C 	0.79360 0.08530 0.01930 -0.07800
C 	C 	0.79470 0.09800 0.95780 0.02600
C 	C 	0.81700 0.15020 0.92840 -0.12500
C 	C 	0.83360 0.19390 0.95810 0.10700
C 	C 	0.85480 0.26660 0.86540 0.47600
C 	C 	0.84130 0.20950 0.12150 0.41900
C 	C 	0.06020 0.52210 0.26010 -0.20800
C 	C 	0.12390 0.48280 0.21260 0.06000
C 	C 	0.13100 0.41970 0.21550 -0.06000
C 	C 	0.07460 0.39600 0.26520 -0.05400
C 	C 	0.00340 0.43650 0.31510 -0.10200
C 	C 	0.93820 0.41710 0.36750 0.07200
C 	C 	0.87390 0.45610 0.41350 -0.15800
C 	C 	0.87100 0.51750 0.41170 0.10400
C 	C 	0.93120 0.53890 0.36370 -0.20100
C 	C 	0.99850 0.50070 0.31290 0.19800
C 	C 	0.06250 0.58730 0.25430 0.38200
C 	C 	0.09070 0.32790 0.26510 0.35800
C 	C 	0.82980 0.00680 0.28780 -0.06900
C 	C 	0.81890 0.98200 0.23980 -0.04600
C 	C 	0.82390 0.92010 0.23970 0.02600
C 	C 	0.84270 0.88110 0.28690 -0.13300
C 	C 	0.85630 0.90270 0.33650 0.05600
C 	C 	0.87720 0.86360 0.38600 -0.08100
C 	C 	0.88820 0.88650 0.43370 -0.02600
C 	C 	0.87650 0.94800 0.43780 -0.02100
C 	C 	0.85890 0.98910 0.38970 -0.08200
C 	C 	0.84800 0.96750 0.33830 0.03600
C 	C 	0.82710 0.07350 0.28050 0.31400
C 	C 	0.84780 0.81420 0.28120 0.42800
C 	C 	0.03050 0.75210 0.07010 -0.36600
C 	C 	0.11860 0.71640 0.03560 0.17400
C 	C 	0.16580 0.72680 0.97320 -0.15400
C 	C 	0.12260 0.77880 0.94460 0.00000
C 	C 	0.02940 0.82090 0.97870 -0.21100
C 	C 	0.98530 0.87570 0.94950 0.24500
C 	C 	0.89820 0.91470 0.98070 -0.27800
C 	C 	0.85050 0.90200 0.04220 0.18700
C 	C 	0.89560 0.84980 0.07160 -0.29200
C 	C 	0.98560 0.80610 0.04190 0.31300
C 	C 	0.98680 0.73340 0.13460 0.60800
C 	C 	0.17230 0.79050 0.87850 0.37800
C 	C 	0.33230 0.97790 0.76010 -0.10600
C 	C 	0.35670 0.01720 0.71260 -0.01800
C 	C 	0.30070 0.08030 0.71550 0.02100
C 	C 	0.22060 0.10400 0.76520 -0.12900
C 	C 	0.18990 0.06350 0.81510 0.06600
C 	C 	0.10530 0.08290 0.86750 -0.10900
C 	C 	0.08000 0.04390 0.91350 -0.00400
C 	C 	0.13850 0.98250 0.91170 -0.04900
C 	C 	0.22010 0.96110 0.86370 -0.06000
C 	C 	0.24920 0.99930 0.81290 0.03000
C 	C 	0.39980 0.91270 0.75430 0.39000
C 	C 	0.16860 0.17210 0.76510 0.39000
C 	C 	0.58660 0.49320 0.78780 -0.07800
C 	C 	0.55090 0.51800 0.73980 -0.04300
C 	C 	0.49400 0.57990 0.73970 0.01900
C 	C 	0.47380 0.61890 0.78690 -0.13600
C 	C 	0.50900 0.59730 0.83650 0.05200
C 	C 	0.49080 0.63640 0.88600 -0.08500
C 	C 	0.52470 0.61350 0.93370 -0.02800
C 	C 	0.57450 0.55200 0.93780 -0.02600
C 	C 	0.59800 0.51090 0.88970 -0.08400
C 	C 	0.56550 0.53250 0.83830 0.03400
C 	C 	0.65060 0.42650 0.78050 0.31200
C 	C 	0.41200 0.68580 0.78120 0.43000
C 	C 	0.53260 0.74790 0.57010 -0.16500
C 	C 	0.58500 0.78360 0.53560 0.02800
C 	C 	0.64260 0.77320 0.47320 -0.02300
C 	C 	0.65140 0.72120 0.44460 -0.11600
C 	C 	0.60030 0.67910 0.47870 0.02400
C 	C 	0.61100 0.62430 0.44950 -0.06100
C 	C 	0.56290 0.58530 0.48070 -0.05200
C 	C 	0.50250 0.59800 0.54220 -0.00400
C 	C 	0.49540 0.65020 0.57160 -0.10900
C 	C 	0.54170 0.69390 0.54190 0.08400
C 	C 	0.47020 0.76660 0.63460 0.47400
C 	C 	0.71280 0.70950 0.37850 0.42500
C 	C 	0.07030 0.02210 0.23990 -0.11300
C 	C 	0.08650 0.98280 0.28740 -0.02000
C 	C 	0.09650 0.91970 0.28450 0.01500
C 	C 	0.08980 0.89600 0.23480 -0.13000
C 	C 	0.06850 0.93650 0.18490 0.05800
C 	C 	0.05570 0.91710 0.13250 -0.10600
C 	C 	0.03740 0.95610 0.08650 -0.01300
C 	C 	0.03270 0.01750 0.08830 -0.04500
C 	C 	0.04490 0.03890 0.13630 -0.06900
C 	C 	0.06140 0.00070 0.18710 0.03100
C 	C 	0.06680 0.08730 0.24570 0.39100
C 	C 	0.10580 0.82790 0.23490 0.38500
C 	C 	0.86760 0.50680 0.21220 -0.03100
C 	C 	0.80870 0.48200 0.26020 -0.08300
C 	C 	0.81360 0.42010 0.26030 0.06500
C 	C 	0.87960 0.38110 0.21310 -0.18200
C 	C 	0.94280 0.40270 0.16350 0.16500
C 	C 	0.01320 0.36360 0.11400 -0.23900
C 	C 	0.07190 0.38650 0.06630 0.11500
C 	C 	0.06430 0.44800 0.06220 -0.19400
C 	C 	0.99860 0.48910 0.11030 0.06200
C 	C 	0.93630 0.46750 0.16170 -0.04600
C 	C 	0.85760 0.57350 0.21950 0.29700
C 	C 	0.87900 0.31420 0.21880 0.44700
C 	C 	0.85060 0.25210 0.42990 -0.15800
C 	C 	0.90420 0.21640 0.46440 0.02600
C 	C 	0.88900 0.22680 0.52680 -0.01900
C 	C 	0.81720 0.27880 0.55540 -0.11500
C 	C 	0.75810 0.32090 0.52130 0.02500
C 	C 	0.68480 0.37570 0.55050 -0.06400
C 	C 	0.62890 0.41470 0.51930 -0.05200
C 	C 	0.64270 0.40200 0.45780 -0.00500
C 	C 	0.71720 0.34980 0.42840 -0.10700
C 	C 	0.77750 0.30610 0.45810 0.08200
C 	C 	0.87140 0.23340 0.36540 0.47000
C 	C 	0.80080 0.29050 0.62150 0.42500
C 	C 	0.56020 0.26010 0.52210 -0.10500
C 	C 	0.62390 0.21260 0.48280 -0.01900
C 	C 	0.63100 0.21550 0.41970 0.02200
C 	C 	0.57460 0.26520 0.39600 -0.12800
C 	C 	0.50340 0.31510 0.43650 0.06600
C 	C 	0.43820 0.36750 0.41710 -0.10600
C 	C 	0.37390 0.41350 0.45610 -0.00400
C 	C 	0.37100 0.41170 0.51750 -0.04700
C 	C 	0.43120 0.36370 0.53890 -0.06100
C 	C 	0.49850 0.31290 0.50070 0.03000
C 	C 	0.56250 0.25430 0.58730 0.38900
C 	C 	0.59070 0.26510 0.32790 0.38900
C 	C 	0.32980 0.28780 0.00680 -0.09300
C 	C 	0.31890 0.23980 0.98200 -0.02100
C 	C 	0.32390 0.23970 0.92010 0.00600
C 	C 	0.34270 0.28690 0.88110 -0.13000
C 	C 	0.35630 0.33650 0.90270 0.04700
C 	C 	0.37720 0.38600 0.86360 -0.08300
C 	C 	0.38820 0.43370 0.88650 -0.02900
C 	C 	0.37650 0.43780 0.94800 -0.02800
C 	C 	0.35890 0.38970 0.98910 -0.08100
C 	C 	0.34800 0.33830 0.96750 0.04200
C 	C 	0.32710 0.28050 0.07350 0.31700
C 	C 	0.34780 0.28120 0.81420 0.42800
C 	C 	0.53050 0.07010 0.75210 -0.16800
C 	C 	0.61860 0.03560 0.71640 0.03100
C 	C 	0.66580 0.97320 0.72680 -0.02600
C 	C 	0.62260 0.94460 0.77880 -0.11400
C 	C 	0.52940 0.97870 0.82090 0.02100
C 	C 	0.48530 0.94950 0.87570 -0.05800
C 	C 	0.39820 0.98070 0.91470 -0.05600
C 	C 	0.35050 0.04220 0.90200 0.00000
C 	C 	0.39560 0.07160 0.84980 -0.11200
C 	C 	0.48560 0.04190 0.80610 0.08700
C 	C 	0.48680 0.13460 0.73340 0.47500
C 	C 	0.67230 0.87850 0.79050 0.42400
C 	C 	0.34240 0.73990 0.47790 -0.10500
C 	C 	0.31930 0.78740 0.51720 -0.01800
C 	C 	0.26620 0.78450 0.58030 0.02100
C 	C 	0.23580 0.73480 0.60400 -0.12900
C 	C 	0.25500 0.68490 0.56350 0.06400
C 	C 	0.22280 0.63250 0.58290 -0.10600
C 	C 	0.24350 0.58650 0.54390 -0.00700
C 	C 	0.30020 0.58830 0.48250 -0.04500
C 	C 	0.33380 0.63630 0.46110 -0.06300
C 	C 	0.31210 0.68710 0.49930 0.03200
C 	C 	0.40410 0.74570 0.41270 0.39000
C 	C 	0.18370 0.73490 0.67210 0.38700
C 	C 	0.62440 0.71220 0.99320 -0.05800
C 	C 	0.54070 0.76020 0.01800 -0.07200
C 	C 	0.48370 0.76030 0.07990 0.03600
C 	C 	0.51070 0.71310 0.11890 -0.14500
C 	C 	0.59550 0.66350 0.09730 0.05900
C 	C 	0.62680 0.61400 0.13640 -0.08900
C 	C 	0.70840 0.56630 0.11350 -0.02700
C 	C 	0.76230 0.56220 0.05200 -0.02500
C 	C 	0.73770 0.61030 0.01090 -0.09000
C 	C 	0.65380 0.66170 0.03250 0.02400
C 	C 	0.68110 0.71950 0.92650 0.30600
C 	C 	0.44320 0.71880 0.18580 0.43300
C 	C 	0.35270 0.92990 0.24790 -0.16200
C 	C 	0.37060 0.96440 0.28360 0.02200
C 	C 	0.36580 0.02680 0.27320 -0.02000
C 	C 	0.34600 0.05540 0.22120 -0.11900
C 	C 	0.32900 0.02130 0.17910 0.02900
C 	C 	0.31050 0.05050 0.12430 -0.06800
C 	C 	0.29360 0.01930 0.08530 -0.04500
C 	C 	0.29470 0.95780 0.09800 -0.01000
C 	C 	0.31700 0.92840 0.15020 -0.10400
C 	C 	0.33360 0.95810 0.19390 0.07900
C 	C 	0.35480 0.86540 0.26660 0.47200
C 	C 	0.34130 0.12150 0.20950 0.42400
O 	O 	0.51011 0.22593 0.13405 -0.57600
O 	O 	0.61894 0.27196 0.09576 -0.45700
O 	O 	0.64373 0.27353 0.79161 -0.56900
O 	O 	0.57960 0.19942 0.80558 -0.46000
O 	O 	0.40886 0.18051 0.60217 -0.41100
O 	O 	0.29590 0.26880 0.60240 -0.44600
O 	O 	0.45100 0.21986 0.26894 -0.56400
O 	O 	0.30210 0.22439 0.30641 -0.46600
O 	O 	0.45540 0.33670 0.20050 -0.53900
O 	O 	0.30660 0.34230 0.24630 -0.51200
O 	O 	0.36100 0.63482 0.30478 -0.45200
O 	O 	0.22966 0.66443 0.28305 -0.59300
O 	O 	0.87009 0.77407 0.86595 -0.56400
O 	O 	0.98666 0.72804 0.90424 -0.42700
O 	O 	0.70887 0.72647 0.20839 -0.56900
O 	O 	0.58460 0.80058 0.19442 -0.46000
O 	O 	0.19154 0.81949 0.39783 -0.41800
O 	O 	0.16710 0.73120 0.39760 -0.45100
O 	O 	0.93980 0.78014 0.73106 -0.53300
O 	O 	0.83290 0.77561 0.69359 -0.45500
O 	O 	0.99260 0.66330 0.79950 -0.51400
O 	O 	0.89520 0.65770 0.75370 -0.50500
O 	O 	0.30060 0.36518 0.69522 -0.45600
O 	O 	0.17714 0.33557 0.71695 -0.59700
O 	O 	0.89416 0.36595 0.72593 -0.56400
O 	O 	0.96470 0.40424 0.77196 -0.42900
O 	O 	0.68534 0.70839 0.77353 -0.56900
O 	O 	0.63518 0.69442 0.69942 -0.46000
O 	O 	0.26103 0.89783 0.68051 -0.40300
O 	O 	0.14830 0.89760 0.76880 -0.43900
O 	O 	0.96994 0.23106 0.71986 -0.55800
O 	O 	0.85851 0.19359 0.72439 -0.47900
O 	O 	0.90590 0.29950 0.83670 -0.52000
O 	O 	0.80290 0.25370 0.84230 -0.51100
O 	O 	0.91578 0.19522 0.13482 -0.43900
O 	O 	0.76271 0.21695 0.16443 -0.59400
O 	O 	0.98604 0.63405 0.27407 -0.55000
O 	O 	0.14090 0.59576 0.22804 -0.45200
O 	O 	0.16726 0.29161 0.22647 -0.56000
O 	O 	0.02902 0.30558 0.30058 -0.46400
O 	O 	0.83937 0.10217 0.31949 -0.40600
O 	O 	0.81470 0.10240 0.23120 -0.44100
O 	O 	0.92086 0.76894 0.28014 -0.54800
O 	O 	0.77649 0.80641 0.27561 -0.46500
O 	O 	0.04210 0.70050 0.16330 -0.59400
O 	O 	0.89890 0.74630 0.15770 -0.54700
O 	O 	0.24582 0.80478 0.86518 -0.43900
O 	O 	0.14409 0.78305 0.83557 -0.57800
O 	O 	0.37009 0.86595 0.77407 -0.57700
O 	O 	0.48666 0.90424 0.72804 -0.45600
O 	O 	0.20887 0.20839 0.72647 -0.56500
O 	O 	0.08460 0.19442 0.80058 -0.46600
O 	O 	0.69154 0.39783 0.81949 -0.41100
O 	O 	0.66710 0.39760 0.73120 -0.44600
O 	O 	0.43980 0.73106 0.78014 -0.56400
O 	O 	0.33290 0.69359 0.77561 -0.46500
O 	O 	0.49260 0.79950 0.66330 -0.53900
O 	O 	0.39520 0.75370 0.65770 -0.51100
O 	O 	0.80060 0.69522 0.36518 -0.45200
O 	O 	0.67714 0.71695 0.33557 -0.59600
O 	O 	0.01011 0.13405 0.22593 -0.59500
O 	O 	0.11894 0.09576 0.27196 -0.45800
O 	O 	0.14373 0.79161 0.27353 -0.56900
O 	O 	0.07960 0.80558 0.19942 -0.46500
O 	O 	0.90886 0.60217 0.18051 -0.39800
O 	O 	0.79590 0.60240 0.26880 -0.44200
O 	O 	0.95100 0.26894 0.21986 -0.54900
O 	O 	0.80210 0.30641 0.22439 -0.47000
O 	O 	0.95540 0.20050 0.33670 -0.51600
O 	O 	0.80660 0.24630 0.34230 -0.51100
O 	O 	0.86100 0.30478 0.63482 -0.44700
O 	O 	0.72966 0.28305 0.66443 -0.59400
O 	O 	0.48604 0.27407 0.63405 -0.57600
O 	O 	0.64090 0.22804 0.59576 -0.45500
O 	O 	0.66726 0.22647 0.29161 -0.57100
O 	O 	0.52902 0.30058 0.30558 -0.46100
O 	O 	0.33937 0.31949 0.10217 -0.41400
O 	O 	0.31470 0.23120 0.10240 -0.44700
O 	O 	0.42086 0.28014 0.76894 -0.56300
O 	O 	0.27649 0.27561 0.80641 -0.46600
O 	O 	0.54210 0.16330 0.70050 -0.53900
O 	O 	0.39890 0.15770 0.74630 -0.51200
O 	O 	0.74582 0.86518 0.80478 -0.44900
O 	O 	0.64409 0.83557 0.78305 -0.59500
O 	O 	0.39416 0.72593 0.36595 -0.57600
O 	O 	0.46470 0.77196 0.40424 -0.45600
O 	O 	0.18534 0.77353 0.70839 -0.56600
O 	O 	0.13518 0.69942 0.69442 -0.46400
O 	O 	0.76103 0.68051 0.89783 -0.40800
O 	O 	0.64830 0.76880 0.89760 -0.44400
O 	O 	0.46994 0.71986 0.23106 -0.56500
O 	O 	0.35851 0.72439 0.19359 -0.46500
O 	O 	0.40590 0.83670 0.29950 -0.53900
O 	O 	0.30290 0.84230 0.25370 -0.51100
O 	O 	0.41578 0.13482 0.19522 -0.45100
O 	O 	0.26271 0.16443 0.21695 -0.59100
