data_crystal

_cell_length_a 25.02130
_cell_length_b 9.30110
_cell_length_c 15.95640
_cell_angle_alpha 90.00000
_cell_angle_beta  109.68300
_cell_angle_gamma 90.00000

_symmetry_space_group_name_	'P 1'
_symmetry_space_group_name_H-M	'P 1'

loop_
_symmetry_equiv_pos_as_xyz
  x,y,z

loop_
_atom_site_label
_atom_site_type_symbol
_atom_site_fract_x
_atom_site_fract_y
_atom_site_fract_z
_atom_site_charge
N 	N 	0.01104 0.44690 0.02302 -0.17900
N 	N 	0.17100 0.33070 0.01268 -0.46500
N 	N 	0.01350 0.33650 0.24630 0.45900
O 	O 	0.06080 0.40430 0.25840 0.97700
O 	O 	0.02770 0.40180 0.24570 -0.92500
O 	O 	0.01320 0.21190 0.22420 0.08900
C 	C 	0.15506 0.29900 0.08260 1.37300
H 	H 	0.18100 0.24890 0.13120 -0.29300
C 	C 	0.10266 0.33550 0.08760 -2.49100
H 	H 	0.09230 0.30880 0.13750 3.39200
C 	C 	0.06574 0.41240 0.01730 1.22300
C 	C 	0.08162 0.44890 0.94460 -0.76400
H 	H 	0.05710 0.50260 0.89630 0.41100
C 	C 	0.13396 0.40460 0.94500 0.57800
H 	H 	0.14480 0.42720 0.89490 -0.07100
Cl	Cl	0.09050 0.29680 0.17960 -3.64300
N 	N 	0.51104 0.94690 0.02302 -0.18100
N 	N 	0.67100 0.83070 0.01268 -0.46500
N 	N 	0.51350 0.83650 0.24630 0.45800
O 	O 	0.56080 0.90430 0.25840 0.97700
O 	O 	0.52770 0.90180 0.24570 -0.92700
O 	O 	0.51320 0.71190 0.22420 0.08700
C 	C 	0.65506 0.79900 0.08260 1.37100
H 	H 	0.68100 0.74890 0.13120 -0.29300
C 	C 	0.60266 0.83550 0.08760 -2.48800
H 	H 	0.59230 0.80880 0.13750 3.39100
C 	C 	0.56574 0.91240 0.01730 1.21700
C 	C 	0.58162 0.94890 0.94460 -0.75500
H 	H 	0.55710 0.00260 0.89630 0.40600
C 	C 	0.63396 0.90460 0.94500 0.57700
H 	H 	0.64480 0.92720 0.89490 -0.07000
Cl	Cl	0.59050 0.79680 0.17960 -3.64300
N 	N 	0.98896 0.44690 0.47698 -0.17200
N 	N 	0.82900 0.33070 0.48732 -0.45100
N 	N 	0.98650 0.33650 0.25370 0.45600
O 	O 	0.93920 0.40430 0.24160 0.98200
O 	O 	0.97230 0.40180 0.25430 -0.93000
O 	O 	0.98680 0.21190 0.27580 0.08900
C 	C 	0.84494 0.29900 0.41740 1.39900
H 	H 	0.81900 0.24890 0.36880 -0.29900
C 	C 	0.89734 0.33550 0.41240 -2.52800
H 	H 	0.90770 0.30880 0.36250 3.42600
C 	C 	0.93426 0.41240 0.48270 1.28100
C 	C 	0.91838 0.44890 0.55540 -0.82000
H 	H 	0.94290 0.50260 0.60370 0.42200
C 	C 	0.86604 0.40460 0.55500 0.56200
H 	H 	0.85520 0.42720 0.60510 -0.07200
Cl	Cl	0.90950 0.29680 0.32040 -3.67200
N 	N 	0.48896 0.94690 0.47698 -0.17000
N 	N 	0.32900 0.83070 0.48732 -0.45100
N 	N 	0.48650 0.83650 0.25370 0.45600
O 	O 	0.43920 0.90430 0.24160 0.98000
O 	O 	0.47230 0.90180 0.25430 -0.92700
O 	O 	0.48680 0.71190 0.27580 0.09100
C 	C 	0.34494 0.79900 0.41740 1.39900
H 	H 	0.31900 0.74890 0.36880 -0.30000
C 	C 	0.39734 0.83550 0.41240 -2.52800
H 	H 	0.40770 0.80880 0.36250 3.42600
C 	C 	0.43426 0.91240 0.48270 1.28100
C 	C 	0.41838 0.94890 0.55540 -0.81900
H 	H 	0.44290 0.00260 0.60370 0.42300
C 	C 	0.36604 0.90460 0.55500 0.56200
H 	H 	0.35520 0.92720 0.60510 -0.07200
Cl	Cl	0.40950 0.79680 0.32040 -3.67200
N 	N 	0.98896 0.55310 0.97698 -0.15900
N 	N 	0.82900 0.66930 0.98732 -0.42700
N 	N 	0.98650 0.66350 0.75370 0.45500
O 	O 	0.93920 0.59570 0.74160 0.98300
O 	O 	0.97230 0.59820 0.75430 -0.92700
O 	O 	0.98680 0.78810 0.77580 0.09400
C 	C 	0.84494 0.70100 0.91740 1.41300
H 	H 	0.81900 0.75110 0.86880 -0.29700
C 	C 	0.89734 0.66450 0.91240 -2.53800
H 	H 	0.90770 0.69120 0.86250 3.42600
C 	C 	0.93426 0.58760 0.98270 1.33000
C 	C 	0.91838 0.55110 0.05540 -0.86800
H 	H 	0.94290 0.49740 0.10370 0.43300
C 	C 	0.86604 0.59540 0.05500 0.54200
H 	H 	0.85520 0.57280 0.10510 -0.07200
Cl	Cl	0.90950 0.70320 0.82040 -3.66100
N 	N 	0.48896 0.05310 0.97698 -0.15600
N 	N 	0.32900 0.16930 0.98732 -0.42700
N 	N 	0.48650 0.16350 0.75370 0.45500
O 	O 	0.43920 0.09570 0.74160 0.98000
O 	O 	0.47230 0.09820 0.75430 -0.92200
O 	O 	0.48680 0.28810 0.77580 0.09600
C 	C 	0.34494 0.20100 0.91740 1.40800
H 	H 	0.31900 0.25110 0.86880 -0.29500
C 	C 	0.39734 0.16450 0.91240 -2.52800
H 	H 	0.40770 0.19120 0.86250 3.41600
C 	C 	0.43426 0.08760 0.98270 1.32100
C 	C 	0.41838 0.05110 0.05540 -0.85400
H 	H 	0.44290 0.99740 0.10370 0.42700
C 	C 	0.36604 0.09540 0.05500 0.53900
H 	H 	0.35520 0.07280 0.10510 -0.07000
Cl	Cl	0.40950 0.20320 0.82040 -3.65100
N 	N 	0.01104 0.55310 0.52302 -0.16700
N 	N 	0.17100 0.66930 0.51268 -0.44800
N 	N 	0.01350 0.66350 0.74630 0.45600
O 	O 	0.06080 0.59570 0.75840 0.97700
O 	O 	0.02770 0.59820 0.74570 -0.92000
O 	O 	0.01320 0.78810 0.72420 0.09400
C 	C 	0.15506 0.70100 0.58260 1.38500
H 	H 	0.18100 0.75110 0.63120 -0.29200
C 	C 	0.10266 0.66450 0.58760 -2.49900
H 	H 	0.09230 0.69120 0.63750 3.38900
C 	C 	0.06574 0.58760 0.51730 1.27000
C 	C 	0.08162 0.55110 0.44460 -0.81300
H 	H 	0.05710 0.49740 0.39630 0.42100
C 	C 	0.13396 0.59540 0.44500 0.55800
H 	H 	0.14480 0.57280 0.39490 -0.07300
Cl	Cl	0.09050 0.70320 0.67960 -3.62800
N 	N 	0.51104 0.05310 0.52302 -0.16800
N 	N 	0.67100 0.16930 0.51268 -0.44800
N 	N 	0.51350 0.16350 0.74630 0.45500
O 	O 	0.56080 0.09570 0.75840 0.97800
O 	O 	0.52770 0.09820 0.74570 -0.92100
O 	O 	0.51320 0.28810 0.72420 0.09200
C 	C 	0.65506 0.20100 0.58260 1.38500
H 	H 	0.68100 0.25110 0.63120 -0.29200
C 	C 	0.60266 0.16450 0.58760 -2.50000
H 	H 	0.59230 0.19120 0.63750 3.39100
C 	C 	0.56574 0.08760 0.51730 1.26900
C 	C 	0.58162 0.05110 0.44460 -0.81000
H 	H 	0.55710 0.99740 0.39630 0.41900
C 	C 	0.63396 0.09540 0.44500 0.55700
H 	H 	0.64480 0.07280 0.39490 -0.07200
Cl	Cl	0.59050 0.20320 0.67960 -3.63000
Ag	Ag	0.25000 0.25000 -0.00000 0.60100
Ag	Ag	0.75000 0.25000 0.50000 0.61700
Ag	Ag	0.75000 0.75000 -0.00000 0.59900
Ag	Ag	0.25000 0.75000 0.50000 0.61700
