data_crystal

_cell_length_a 9.61160
_cell_length_b 11.25420
_cell_length_c 12.55650
_cell_angle_alpha 103.50200
_cell_angle_beta  94.52980
_cell_angle_gamma 98.32720

_symmetry_space_group_name_	'P 1'
_symmetry_space_group_name_H-M	'P 1'

loop_
_symmetry_equiv_pos_as_xyz
  x,y,z

loop_
_atom_site_label
_atom_site_type_symbol
_atom_site_fract_x
_atom_site_fract_y
_atom_site_fract_z
_atom_site_charge
Ni	Ni	0.19479 0.30318 0.41321 1.18900
O 	O 	0.19808 0.33257 0.27708 -0.43700
O 	O 	0.96844 0.35424 0.28951 -0.46900
O 	O 	0.99837 0.45226 0.51095 -0.40300
O 	O 	0.85656 0.17949 0.36839 -0.56800
N 	N 	0.39648 0.28860 0.45222 -0.17400
C 	C 	0.46677 0.38180 0.55339 -0.02800
C 	C 	0.43340 0.16415 0.46010 -0.03500
C 	C 	0.46781 0.32733 0.36389 -0.03200
C 	C 	0.07968 0.34963 0.23488 0.35900
C 	C 	0.05138 0.33694 0.11824 -0.13000
C 	C 	0.16209 0.32916 0.04763 0.00900
C 	C 	0.13238 0.31466 0.93603 -0.01600
C 	C 	0.24012 0.29752 0.86439 -0.05500
C 	C 	0.91225 0.33924 0.07635 0.05700
C 	C 	0.12087 0.50515 0.49236 0.27800
C 	C 	0.10799 0.62931 0.46272 -0.09300
C 	C 	0.98952 0.68058 0.48637 0.00600
C 	C 	0.97820 0.78859 0.45620 0.02700
C 	C 	0.85292 0.83898 0.47371 -0.05000
C 	C 	0.22655 0.68797 0.41929 0.00200
Ni	Ni	0.90232 0.32040 0.40886 1.17900
O 	O 	0.93205 0.30007 0.55543 -0.36600
O 	O 	0.15854 0.27147 0.54149 -0.43300
O 	O 	0.08612 0.17004 0.34005 -0.51400
O 	O 	0.22787 0.43930 0.48854 -0.48100
N 	N 	0.68266 0.30244 0.47169 -0.13400
C 	C 	0.63141 0.39080 0.56630 -0.02300
C 	C 	0.59573 0.17784 0.47192 -0.02100
C 	C 	0.62905 0.33822 0.37350 -0.05000
C 	C 	0.04847 0.28038 0.59694 0.33700
C 	C 	0.07406 0.29556 0.71355 -0.10500
C 	C 	0.96388 0.30887 0.78443 0.00400
C 	C 	0.99211 0.31711 0.89517 0.04100
C 	C 	0.88320 0.32954 0.96609 -0.07700
C 	C 	0.21105 0.28732 0.75451 0.02000
C 	C 	0.96073 0.12856 0.36355 0.40600
C 	C 	0.95523 0.99922 0.38907 -0.06400
C 	C 	0.07774 0.95509 0.37197 -0.01700
C 	C 	0.09364 0.84869 0.40693 -0.00700
C 	C 	0.21616 0.79790 0.38686 -0.04400
C 	C 	0.83939 0.94490 0.43713 0.01300
H 	H 	0.26902 0.32702 0.07911 0.03900
H 	H 	0.34696 0.29209 0.89307 0.04200
H 	H 	0.82526 0.34739 0.12854 0.02800
H 	H 	0.85769 0.31606 0.75387 0.04300
H 	H 	0.77440 0.32719 0.93536 0.04900
H 	H 	0.29656 0.27506 0.70161 0.03600
H 	H 	0.90220 0.63192 0.53097 0.03900
H 	H 	0.76418 0.79157 0.51793 0.03800
H 	H 	0.32705 0.64502 0.41167 0.03400
H 	H 	0.16538 0.00625 0.32917 0.04200
H 	H 	0.30690 0.84556 0.34443 0.03600
H 	H 	0.73930 0.98845 0.44463 0.03700
H 	H 	0.43175 0.36886 0.63328 0.04600
H 	H 	0.45701 0.47402 0.53559 0.05400
H 	H 	0.38661 0.08927 0.38449 0.02700
H 	H 	0.38577 0.13345 0.53287 0.03600
H 	H 	0.44407 0.42326 0.35747 0.03600
H 	H 	0.42357 0.25509 0.28623 0.03800
H 	H 	0.68880 0.49294 0.57089 0.03300
H 	H 	0.65930 0.36301 0.64425 0.04200
H 	H 	0.62625 0.15151 0.55002 0.04000
H 	H 	0.62178 0.10410 0.40256 0.04800
H 	H 	0.66037 0.27393 0.29993 0.02400
H 	H 	0.68142 0.44089 0.37511 0.01200
