data_crystal

_cell_length_a 12.30520
_cell_length_b 11.81240
_cell_length_c 12.68770
_cell_angle_alpha 90.00000
_cell_angle_beta  98.84000
_cell_angle_gamma 90.00000

_symmetry_space_group_name_	'P 1'
_symmetry_space_group_name_H-M	'P 1'

loop_
_symmetry_equiv_pos_as_xyz
  x,y,z

loop_
_atom_site_label
_atom_site_type_symbol
_atom_site_fract_x
_atom_site_fract_y
_atom_site_fract_z
_atom_site_charge
V 	V 	0.30204 0.20165 0.11804 1.72800
V 	V 	0.26394 0.49596 0.20821 1.82200
V 	V 	0.82140 0.24426 0.16086 1.79500
P 	P 	0.32471 0.20550 0.86475 0.47200
H 	H 	0.43800 0.19200 0.87600 -0.04500
P 	P 	0.56927 0.16104 0.13350 0.46000
H 	H 	0.55900 0.09400 0.03900 -0.06300
P 	P 	0.23295 0.75175 0.09974 0.46000
H 	H 	0.33700 0.80000 0.10300 -0.04200
P 	P 	0.05904 0.33561 0.11260 0.47200
H 	H 	0.01000 0.35200 0.00700 -0.01900
O 	O 	0.14070 0.24490 0.09560 -0.49000
O 	O 	0.32430 0.40480 0.14240 -0.64400
O 	O 	0.30200 0.25310 0.96810 -0.47400
O 	O 	0.46320 0.22250 0.14490 -0.48100
O 	O 	0.30380 0.29400 0.77770 -0.48700
O 	O 	0.25990 0.09720 0.83660 -0.49400
O 	O 	0.11000 0.44690 0.15540 -0.45200
O 	O 	0.59950 0.07410 0.22180 -0.48500
O 	O 	0.24330 0.62350 0.10520 -0.48600
O 	O 	0.16850 0.78490 0.99260 -0.46400
O 	O 	0.97800 0.29260 0.18370 -0.45300
O 	O 	0.16950 0.61240 0.30250 -0.67000
O 	O 	0.18060 0.80300 0.19080 -0.47000
O 	O 	0.65790 0.24960 0.12900 -0.49000
V 	V 	0.69796 0.70165 0.38196 1.72800
V 	V 	0.73606 0.99596 0.29179 1.82100
V 	V 	0.17860 0.74426 0.33914 1.79500
P 	P 	0.67529 0.70550 0.63525 0.47200
H 	H 	0.56200 0.69200 0.62400 -0.04400
P 	P 	0.43073 0.66104 0.36650 0.46000
H 	H 	0.44100 0.59400 0.46100 -0.06400
P 	P 	0.76705 0.25175 0.40026 0.46200
H 	H 	0.66300 0.30000 0.39700 -0.04100
P 	P 	0.94096 0.83561 0.38740 0.47400
H 	H 	0.99000 0.85200 0.49300 -0.01900
O 	O 	0.85930 0.74490 0.40440 -0.49000
O 	O 	0.67570 0.90480 0.35760 -0.64400
O 	O 	0.69800 0.75310 0.53190 -0.47400
O 	O 	0.53680 0.72250 0.35510 -0.48100
O 	O 	0.69620 0.79400 0.72230 -0.48800
O 	O 	0.74010 0.59720 0.66340 -0.49300
O 	O 	0.89000 0.94690 0.34460 -0.45300
O 	O 	0.40050 0.57410 0.27820 -0.48700
O 	O 	0.75670 0.12350 0.39480 -0.48400
O 	O 	0.83150 0.28490 0.50740 -0.46700
O 	O 	0.02200 0.79260 0.31630 -0.45500
O 	O 	0.83050 0.11240 0.19750 -0.66700
O 	O 	0.81940 0.30300 0.30920 -0.47000
O 	O 	0.34210 0.74960 0.37100 -0.49100
V 	V 	0.69796 0.79835 0.88196 1.72800
V 	V 	0.73606 0.50404 0.79179 1.82200
V 	V 	0.17860 0.75574 0.83914 1.79500
P 	P 	0.67529 0.79450 0.13525 0.47200
H 	H 	0.56200 0.80800 0.12400 -0.04500
P 	P 	0.43073 0.83896 0.86650 0.46000
H 	H 	0.44100 0.90600 0.96100 -0.06300
P 	P 	0.76705 0.24825 0.90026 0.46000
H 	H 	0.66300 0.20000 0.89700 -0.04200
P 	P 	0.94096 0.66439 0.88740 0.47200
H 	H 	0.99000 0.64800 0.99300 -0.01900
O 	O 	0.85930 0.75510 0.90440 -0.49000
O 	O 	0.67570 0.59520 0.85760 -0.64400
O 	O 	0.69800 0.74690 0.03190 -0.47400
O 	O 	0.53680 0.77750 0.85510 -0.48100
O 	O 	0.69620 0.70600 0.22230 -0.48700
O 	O 	0.74010 0.90280 0.16340 -0.49400
O 	O 	0.89000 0.55310 0.84460 -0.45200
O 	O 	0.40050 0.92590 0.77820 -0.48500
O 	O 	0.75670 0.37650 0.89480 -0.48600
O 	O 	0.83150 0.21510 0.00740 -0.46400
O 	O 	0.02200 0.70740 0.81630 -0.45300
O 	O 	0.83050 0.38760 0.69750 -0.67000
O 	O 	0.81940 0.19700 0.80920 -0.47000
O 	O 	0.34210 0.75040 0.87100 -0.49000
V 	V 	0.30204 0.29835 0.61804 1.72800
V 	V 	0.26394 0.00404 0.70821 1.82100
V 	V 	0.82140 0.25574 0.66086 1.79500
P 	P 	0.32471 0.29450 0.36475 0.47200
H 	H 	0.43800 0.30800 0.37600 -0.04400
P 	P 	0.56927 0.33896 0.63350 0.46000
H 	H 	0.55900 0.40600 0.53900 -0.06400
P 	P 	0.23295 0.74825 0.59974 0.46200
H 	H 	0.33700 0.70000 0.60300 -0.04100
P 	P 	0.05904 0.16439 0.61260 0.47400
H 	H 	0.01000 0.14800 0.50700 -0.01900
O 	O 	0.14070 0.25510 0.59560 -0.49000
O 	O 	0.32430 0.09520 0.64240 -0.64400
O 	O 	0.30200 0.24690 0.46810 -0.47400
O 	O 	0.46320 0.27750 0.64490 -0.48100
O 	O 	0.30380 0.20600 0.27770 -0.48800
O 	O 	0.25990 0.40280 0.33660 -0.49300
O 	O 	0.11000 0.05310 0.65540 -0.45300
O 	O 	0.59950 0.42590 0.72180 -0.48700
O 	O 	0.24330 0.87650 0.60520 -0.48400
O 	O 	0.16850 0.71510 0.49260 -0.46700
O 	O 	0.97800 0.20740 0.68370 -0.45500
O 	O 	0.16950 0.88760 0.80250 -0.66700
O 	O 	0.18060 0.69700 0.69080 -0.47000
O 	O 	0.65790 0.25040 0.62900 -0.49100
