data_crystal

_cell_length_a 8.41700
_cell_length_b 9.71600
_cell_length_c 10.11700
_cell_angle_alpha 61.95100
_cell_angle_beta  77.81600
_cell_angle_gamma 74.27900

_symmetry_space_group_name_	'P 1'
_symmetry_space_group_name_H-M	'P 1'

loop_
_symmetry_equiv_pos_as_xyz
  x,y,z

loop_
_atom_site_label
_atom_site_type_symbol
_atom_site_fract_x
_atom_site_fract_y
_atom_site_fract_z
_atom_site_charge
Nd	Nd	0.32863 0.36995 0.83849 2.27300
O 	O 	0.07400 0.30830 0.01370 -0.41100
O 	O 	0.31190 0.09190 0.92240 -0.43600
O 	O 	0.52670 0.30840 0.64720 -0.43600
O 	O 	0.53830 0.51820 0.81660 -0.41900
O 	O 	0.43000 0.83180 0.03310 -0.40700
O 	O 	0.87370 0.39380 0.15760 -0.41900
O 	O 	0.65600 0.60970 0.92750 -0.41800
O 	O 	0.65980 0.40150 0.41550 -0.42400
C 	C 	0.98570 0.41300 0.04900 0.26300
C 	C 	0.42540 0.97660 0.98860 0.27700
C 	C 	0.55350 0.41580 0.51740 0.26800
C 	C 	0.55720 0.53670 0.92660 0.28800
Nd	Nd	0.67137 0.63005 0.16151 2.27400
O 	O 	0.92600 0.69170 0.98630 -0.41000
O 	O 	0.68810 0.90810 0.07760 -0.43600
O 	O 	0.47330 0.69160 0.35280 -0.43600
O 	O 	0.46170 0.48180 0.18340 -0.41900
O 	O 	0.57000 0.16820 0.96690 -0.40700
O 	O 	0.12630 0.60620 0.84240 -0.41900
O 	O 	0.34400 0.39030 0.07250 -0.41800
O 	O 	0.34020 0.59850 0.58450 -0.42400
C 	C 	0.01430 0.58700 0.95100 0.26300
C 	C 	0.57460 0.02340 0.01140 0.27700
C 	C 	0.44650 0.58420 0.48260 0.26800
C 	C 	0.44280 0.46330 0.07340 0.28800
