data_crystal

_cell_length_a 8.53300
_cell_length_b 9.37000
_cell_length_c 10.00300
_cell_angle_alpha 63.28300
_cell_angle_beta  75.90500
_cell_angle_gamma 74.27600

_symmetry_space_group_name_	'P 1'
_symmetry_space_group_name_H-M	'P 1'

loop_
_symmetry_equiv_pos_as_xyz
  x,y,z

loop_
_atom_site_label
_atom_site_type_symbol
_atom_site_fract_x
_atom_site_fract_y
_atom_site_fract_z
_atom_site_charge
Gd	Gd	0.33250 0.36823 0.84050 1.60900
O 	O 	0.08320 0.30230 0.01700 -0.32100
O 	O 	0.32040 0.08660 0.91900 -0.34100
O 	O 	0.52990 0.30700 0.64650 -0.34400
O 	O 	0.53310 0.52330 0.81330 -0.33500
O 	O 	0.43140 0.82450 0.03940 -0.32300
O 	O 	0.86290 0.39480 0.14980 -0.33200
O 	O 	0.65810 0.60840 0.92550 -0.33400
O 	O 	0.65730 0.39990 0.40820 -0.32800
C 	C 	0.98470 0.41310 0.04840 0.24800
C 	C 	0.42870 0.97340 0.98810 0.26300
C 	C 	0.55480 0.41500 0.51570 0.25700
C 	C 	0.55630 0.53900 0.92410 0.28100
Gd	Gd	0.66750 0.63177 0.15950 1.60900
O 	O 	0.91680 0.69770 0.98300 -0.32100
O 	O 	0.67960 0.91340 0.08100 -0.34100
O 	O 	0.47010 0.69300 0.35350 -0.34400
O 	O 	0.46690 0.47670 0.18670 -0.33500
O 	O 	0.56860 0.17550 0.96060 -0.32300
O 	O 	0.13710 0.60520 0.85020 -0.33200
O 	O 	0.34190 0.39160 0.07450 -0.33400
O 	O 	0.34270 0.60010 0.59180 -0.32800
C 	C 	0.01530 0.58690 0.95160 0.24800
C 	C 	0.57130 0.02660 0.01190 0.26300
C 	C 	0.44520 0.58500 0.48430 0.25700
C 	C 	0.44370 0.46100 0.07590 0.28100
