data_crystal

_cell_length_a 9.79390
_cell_length_b 21.68800
_cell_length_c 27.67700
_cell_angle_alpha 90.00000
_cell_angle_beta  90.00000
_cell_angle_gamma 90.00000

_symmetry_space_group_name_	'P 1'
_symmetry_space_group_name_H-M	'P 1'

loop_
_symmetry_equiv_pos_as_xyz
  x,y,z

loop_
_atom_site_label
_atom_site_type_symbol
_atom_site_fract_x
_atom_site_fract_y
_atom_site_fract_z
_atom_site_charge
Cd	Cd	0.32895 0.52271 0.35622 1.19600
Cd	Cd	0.17105 0.47729 0.85622 1.19600
Cd	Cd	0.67105 0.02271 0.14378 1.19600
Cd	Cd	0.82895 0.97729 0.64378 1.19600
Cd	Cd	0.79653 0.34091 0.45818 1.20800
Cd	Cd	0.70347 0.65909 0.95818 1.20800
Cd	Cd	0.20347 0.84091 0.04182 1.21000
Cd	Cd	0.29653 0.15909 0.54182 1.20900
H 	H 	0.09680 0.28480 0.19930 0.05900
H 	H 	0.78410 0.18040 0.27800 0.12200
H 	H 	0.67730 0.09990 0.23950 -0.00100
H 	H 	0.43720 0.36200 0.46290 0.01100
H 	H 	0.32920 0.39710 0.43150 0.00100
H 	H 	0.12840 0.41180 0.36090 -0.02100
H 	H 	0.95480 0.25870 0.28110 0.08000
H 	H 	0.23940 0.37870 0.20330 0.10000
H 	H 	0.92970 0.11040 0.13150 -0.01800
H 	H 	0.32620 0.46050 0.24540 -0.00900
H 	H 	0.03510 0.32960 0.32170 0.10000
H 	H 	0.03750 0.19350 0.16480 0.10000
H 	H 	0.47560 0.29370 0.39780 0.15900
H 	H 	0.32350 0.29090 0.41530 0.17100
H 	H 	0.36110 0.32760 0.36840 0.17100
H 	H 	0.40320 0.71520 0.69930 0.05900
H 	H 	0.71590 0.81960 0.77800 0.12300
H 	H 	0.82270 0.90010 0.73950 -0.00200
H 	H 	0.06280 0.63800 0.96290 0.01100
H 	H 	0.17080 0.60290 0.93150 0.00100
H 	H 	0.37160 0.58820 0.86090 -0.02100
H 	H 	0.54520 0.74130 0.78110 0.08000
H 	H 	0.26060 0.62130 0.70330 0.10000
H 	H 	0.57030 0.88960 0.63150 -0.01800
H 	H 	0.17380 0.53950 0.74540 -0.00900
H 	H 	0.46490 0.67040 0.82170 0.10000
H 	H 	0.46250 0.80650 0.66480 0.10200
H 	H 	0.02440 0.70630 0.89780 0.16000
H 	H 	0.17650 0.70910 0.91530 0.17100
H 	H 	0.13890 0.67240 0.86840 0.17100
H 	H 	0.90320 0.78480 0.30070 0.05900
H 	H 	0.21590 0.68040 0.22200 0.12300
H 	H 	0.32270 0.59990 0.26050 -0.00200
H 	H 	0.56280 0.86200 0.03710 0.01100
H 	H 	0.67080 0.89710 0.06850 0.00100
H 	H 	0.87160 0.91180 0.13910 -0.02100
H 	H 	0.04520 0.75870 0.21890 0.08000
H 	H 	0.76060 0.87870 0.29670 0.10000
H 	H 	0.07030 0.61040 0.36850 -0.01800
H 	H 	0.67380 0.96050 0.25460 -0.00900
H 	H 	0.96490 0.82960 0.17830 0.10000
H 	H 	0.96250 0.69350 0.33520 0.10100
H 	H 	0.52440 0.79370 0.10220 0.15900
H 	H 	0.67650 0.79090 0.08470 0.17100
H 	H 	0.63890 0.82760 0.13160 0.17100
H 	H 	0.59680 0.21520 0.80070 0.05900
H 	H 	0.28410 0.31960 0.72200 0.12300
H 	H 	0.17730 0.40010 0.76050 -0.00200
H 	H 	0.93720 0.13800 0.53710 0.01100
H 	H 	0.82920 0.10290 0.56850 0.00000
H 	H 	0.62840 0.08820 0.63910 -0.02100
H 	H 	0.45480 0.24130 0.71890 0.08000
H 	H 	0.73940 0.12130 0.79670 0.10000
H 	H 	0.42970 0.38960 0.86850 -0.01800
H 	H 	0.82620 0.03950 0.75460 -0.00900
H 	H 	0.53510 0.17040 0.67830 0.10000
H 	H 	0.53750 0.30650 0.83520 0.10200
H 	H 	0.97560 0.20630 0.60220 0.16000
H 	H 	0.82350 0.20910 0.58470 0.17200
H 	H 	0.86110 0.17240 0.63160 0.17100
H 	H 	0.63270 0.20400 0.42570 0.02200
H 	H 	0.49420 0.17250 0.43980 0.01800
H 	H 	0.74940 0.13490 0.47650 0.17500
H 	H 	0.66870 0.09910 0.43640 0.19400
H 	H 	0.61050 0.10270 0.48910 0.17000
H 	H 	0.86730 0.79600 0.92570 0.02300
H 	H 	0.00580 0.82750 0.93980 0.01900
H 	H 	0.75060 0.86510 0.97650 0.17400
H 	H 	0.83130 0.90090 0.93640 0.19300
H 	H 	0.88950 0.89730 0.98910 0.16900
H 	H 	0.36730 0.70400 0.07430 0.02200
H 	H 	0.50580 0.67250 0.06020 0.01800
H 	H 	0.25060 0.63490 0.02350 0.17500
H 	H 	0.33130 0.59910 0.06360 0.19300
H 	H 	0.38950 0.60270 0.01090 0.17000
H 	H 	0.13270 0.29600 0.57430 0.02200
H 	H 	0.99420 0.32750 0.56020 0.01900
H 	H 	0.24940 0.36510 0.52350 0.17500
H 	H 	0.16870 0.40090 0.56360 0.19300
H 	H 	0.11050 0.39730 0.51090 0.16900
C 	C 	0.72290 0.45063 0.39387 -0.03800
C 	C 	0.62630 0.48575 0.37050 -0.02500
C 	C 	0.52310 0.41423 0.41068 0.08500
C 	C 	0.12530 0.34425 0.25727 0.13000
C 	C 	0.92000 0.19821 0.22514 0.14600
C 	C 	0.06850 0.29099 0.23101 -0.08700
C 	C 	0.63680 0.53740 0.33612 0.27300
C 	C 	0.87250 0.45705 0.39803 0.28600
C 	C 	0.81350 0.16800 0.24758 -0.18200
C 	C 	0.75090 0.11901 0.22444 0.12600
C 	C 	0.41380 0.37400 0.43013 -0.01300
C 	C 	0.15070 0.40520 0.32865 0.09100
C 	C 	0.98110 0.25183 0.24928 -0.09900
C 	C 	0.21450 0.38460 0.23535 -0.19000
C 	C 	0.89850 0.12568 0.16092 0.12100
C 	C 	0.26680 0.43370 0.26114 0.11200
C 	C 	0.09440 0.35570 0.30527 -0.18200
C 	C 	0.96420 0.17530 0.18072 -0.18900
C 	C 	0.39150 0.31620 0.40020 -0.48800
C 	C 	0.77710 0.54937 0.89387 -0.03800
C 	C 	0.87370 0.51425 0.87050 -0.02500
C 	C 	0.97690 0.58577 0.91068 0.08400
C 	C 	0.37470 0.65575 0.75727 0.12900
C 	C 	0.58000 0.80179 0.72514 0.14800
C 	C 	0.43150 0.70901 0.73101 -0.08500
C 	C 	0.86320 0.46260 0.83612 0.27300
C 	C 	0.62750 0.54295 0.89803 0.28600
C 	C 	0.68650 0.83200 0.74758 -0.18300
C 	C 	0.74910 0.88099 0.72444 0.12600
C 	C 	0.08620 0.62600 0.93013 -0.01200
C 	C 	0.34930 0.59480 0.82865 0.09100
C 	C 	0.51890 0.74817 0.74928 -0.10100
C 	C 	0.28550 0.61540 0.73535 -0.19000
C 	C 	0.60150 0.87432 0.66092 0.12200
C 	C 	0.23320 0.56630 0.76114 0.11200
C 	C 	0.40560 0.64430 0.80527 -0.18200
C 	C 	0.53580 0.82470 0.68072 -0.19100
C 	C 	0.10850 0.68380 0.90020 -0.48900
C 	C 	0.27710 0.95063 0.10613 -0.03900
C 	C 	0.37370 0.98575 0.12950 -0.02400
C 	C 	0.47690 0.91423 0.08932 0.08500
C 	C 	0.87470 0.84425 0.24273 0.13000
C 	C 	0.08000 0.69821 0.27486 0.14700
C 	C 	0.93150 0.79099 0.26899 -0.08700
C 	C 	0.36320 0.03740 0.16388 0.27300
C 	C 	0.12750 0.95705 0.10197 0.28700
C 	C 	0.18650 0.66800 0.25242 -0.18300
C 	C 	0.24910 0.61901 0.27556 0.12600
C 	C 	0.58620 0.87400 0.06987 -0.01300
C 	C 	0.84930 0.90520 0.17135 0.09100
C 	C 	0.01890 0.75183 0.25072 -0.09900
C 	C 	0.78550 0.88460 0.26465 -0.19000
C 	C 	0.10150 0.62568 0.33908 0.12100
C 	C 	0.73320 0.93370 0.23886 0.11200
C 	C 	0.90560 0.85570 0.19473 -0.18200
C 	C 	0.03580 0.67530 0.31928 -0.18900
C 	C 	0.60850 0.81620 0.09980 -0.48700
C 	C 	0.22290 0.04937 0.60613 -0.03800
C 	C 	0.12630 0.01425 0.62950 -0.02500
C 	C 	0.02310 0.08577 0.58932 0.08400
C 	C 	0.62530 0.15575 0.74273 0.12900
C 	C 	0.42000 0.30179 0.77486 0.14800
C 	C 	0.56850 0.20901 0.76899 -0.08500
C 	C 	0.13680 0.96260 0.66388 0.27400
C 	C 	0.37250 0.04295 0.60197 0.28600
C 	C 	0.31350 0.33200 0.75242 -0.18300
C 	C 	0.25090 0.38099 0.77556 0.12600
C 	C 	0.91380 0.12600 0.56987 -0.01100
C 	C 	0.65070 0.09480 0.67135 0.09100
C 	C 	0.48110 0.24817 0.75072 -0.10100
C 	C 	0.71450 0.11540 0.76465 -0.18900
C 	C 	0.39850 0.37432 0.83908 0.12200
C 	C 	0.76680 0.06630 0.73886 0.11200
C 	C 	0.59440 0.14430 0.69473 -0.18200
C 	C 	0.46420 0.32470 0.81928 -0.19100
C 	C 	0.89150 0.18380 0.59980 -0.48900
C 	C 	0.59850 0.30374 0.54127 -0.04900
C 	C 	0.56990 0.22652 0.49302 0.08600
C 	C 	0.65590 0.36304 0.55842 0.30400
C 	C 	0.58440 0.18326 0.45160 -0.01300
C 	C 	0.49830 0.26577 0.55997 -0.02600
C 	C 	0.41490 0.26789 0.60425 0.26100
C 	C 	0.66020 0.12460 0.46460 -0.50100
C 	C 	0.90150 0.69626 0.04127 -0.04900
C 	C 	0.93010 0.77348 0.99302 0.08600
C 	C 	0.84410 0.63696 0.05842 0.30400
C 	C 	0.91560 0.81674 0.95160 -0.01600
C 	C 	0.00170 0.73423 0.05997 -0.02500
C 	C 	0.08510 0.73211 0.10425 0.26100
C 	C 	0.83980 0.87540 0.96460 -0.49800
C 	C 	0.40150 0.80374 0.95873 -0.04900
C 	C 	0.43010 0.72652 0.00698 0.08600
C 	C 	0.34410 0.86304 0.94158 0.30400
C 	C 	0.41560 0.68326 0.04840 -0.01400
C 	C 	0.50170 0.76577 0.94003 -0.02500
C 	C 	0.58510 0.76789 0.89575 0.26100
C 	C 	0.33980 0.62460 0.03540 -0.50000
C 	C 	0.09850 0.19626 0.45873 -0.04900
C 	C 	0.06990 0.27348 0.50698 0.08600
C 	C 	0.15590 0.13696 0.44158 0.30400
C 	C 	0.08440 0.31674 0.54840 -0.01500
C 	C 	0.99830 0.23423 0.44003 -0.02500
C 	C 	0.91490 0.23211 0.39575 0.26100
C 	C 	0.16020 0.37540 0.53540 -0.49900
N 	N 	0.65720 0.40514 0.41884 -0.22900
N 	N 	0.50050 0.46299 0.38150 -0.23600
N 	N 	0.79120 0.09804 0.18179 -0.25200
N 	N 	0.23710 0.44474 0.30693 -0.25200
N 	N 	0.84280 0.59486 0.91884 -0.22900
N 	N 	0.99950 0.53701 0.88150 -0.23600
N 	N 	0.70880 0.90196 0.68179 -0.25200
N 	N 	0.26290 0.55526 0.80693 -0.25200
N 	N 	0.34280 0.90514 0.08116 -0.22900
N 	N 	0.49950 0.96299 0.11850 -0.23600
N 	N 	0.20880 0.59804 0.31821 -0.25200
N 	N 	0.76290 0.94474 0.19307 -0.25200
N 	N 	0.15720 0.09486 0.58116 -0.22900
N 	N 	0.00050 0.03701 0.61850 -0.23600
N 	N 	0.29120 0.40196 0.81821 -0.25200
N 	N 	0.73710 0.05526 0.69307 -0.25100
N 	N 	0.64330 0.27862 0.49874 -0.22300
N 	N 	0.48170 0.21710 0.52909 -0.23200
N 	N 	0.85670 0.72138 0.99874 -0.22400
N 	N 	0.01830 0.78290 0.02909 -0.23100
N 	N 	0.35670 0.77862 0.00126 -0.22300
N 	N 	0.51830 0.71710 0.97091 -0.23200
N 	N 	0.14330 0.22138 0.50126 -0.22300
N 	N 	0.98170 0.28290 0.47091 -0.23200
O 	O 	0.92890 0.50095 0.37490 -0.25000
O 	O 	0.93610 0.42141 0.42467 -0.38800
O 	O 	0.53400 0.55793 0.31678 -0.34500
O 	O 	0.75880 0.55884 0.32704 -0.20600
O 	O 	0.57110 0.49905 0.87490 -0.25000
O 	O 	0.56390 0.57859 0.92467 -0.38800
O 	O 	0.96600 0.44207 0.81678 -0.34500
O 	O 	0.74120 0.44116 0.82704 -0.20600
O 	O 	0.07110 0.00095 0.12510 -0.25000
O 	O 	0.06390 0.92141 0.07533 -0.38700
O 	O 	0.46600 0.05793 0.18322 -0.34400
O 	O 	0.24120 0.05884 0.17296 -0.20600
O 	O 	0.42890 0.99905 0.62510 -0.24900
O 	O 	0.43610 0.07859 0.57533 -0.38700
O 	O 	0.03400 0.94207 0.68322 -0.34400
O 	O 	0.25880 0.94116 0.67296 -0.20600
O 	O 	0.43220 0.31408 0.63404 -0.20400
O 	O 	0.75160 0.38680 0.53454 -0.41600
O 	O 	0.33010 0.22772 0.61290 -0.36500
O 	O 	0.60460 0.38673 0.59606 -0.35400
O 	O 	0.06780 0.68592 0.13404 -0.20400
O 	O 	0.74840 0.61320 0.03454 -0.41600
O 	O 	0.16990 0.77228 0.11290 -0.36500
O 	O 	0.89540 0.61327 0.09606 -0.35400
O 	O 	0.56780 0.81408 0.86596 -0.20400
O 	O 	0.24840 0.88680 0.96546 -0.41600
O 	O 	0.66990 0.72772 0.88710 -0.36500
O 	O 	0.39540 0.88673 0.90394 -0.35400
O 	O 	0.93220 0.18592 0.36596 -0.20400
O 	O 	0.25160 0.11320 0.46546 -0.41600
O 	O 	0.83010 0.27228 0.38710 -0.36500
O 	O 	0.10460 0.11327 0.40394 -0.35400
Cd	Cd	0.20347 0.65909 0.54182 1.20900
Cd	Cd	0.29653 0.34091 0.04182 1.20900
Cd	Cd	0.79653 0.15909 0.95818 1.21000
Cd	Cd	0.70347 0.84091 0.45818 1.20900
Cd	Cd	0.67105 0.47729 0.64378 1.19700
Cd	Cd	0.82895 0.52271 0.14378 1.19700
Cd	Cd	0.32895 0.97729 0.85622 1.19700
Cd	Cd	0.17105 0.02271 0.35622 1.19700
H 	H 	0.36730 0.79600 0.57430 0.02200
H 	H 	0.50580 0.82750 0.56020 0.01800
H 	H 	0.25060 0.86510 0.52350 0.17500
H 	H 	0.33130 0.90090 0.56360 0.19400
H 	H 	0.38950 0.89730 0.51090 0.17000
H 	H 	0.13270 0.20400 0.07430 0.02300
H 	H 	0.99420 0.17250 0.06020 0.01900
H 	H 	0.24940 0.13490 0.02350 0.17400
H 	H 	0.16870 0.09910 0.06360 0.19300
H 	H 	0.11050 0.10270 0.01090 0.16900
H 	H 	0.63270 0.29600 0.92570 0.02200
H 	H 	0.49420 0.32750 0.93980 0.01800
H 	H 	0.74940 0.36510 0.97650 0.17500
H 	H 	0.66870 0.40090 0.93640 0.19300
H 	H 	0.61050 0.39730 0.98910 0.17000
H 	H 	0.86730 0.70400 0.42570 0.02200
H 	H 	0.00580 0.67250 0.43980 0.01900
H 	H 	0.75060 0.63490 0.47650 0.17500
H 	H 	0.83130 0.59910 0.43640 0.19300
H 	H 	0.88950 0.60270 0.48910 0.16900
H 	H 	0.90320 0.71520 0.80070 0.05900
H 	H 	0.21590 0.81960 0.72200 0.12200
H 	H 	0.32270 0.90010 0.76050 -0.00100
H 	H 	0.56280 0.63800 0.53710 0.01100
H 	H 	0.67080 0.60290 0.56850 0.00100
H 	H 	0.87160 0.58820 0.63910 -0.02100
H 	H 	0.04520 0.74130 0.71890 0.08000
H 	H 	0.76060 0.62130 0.79670 0.10000
H 	H 	0.07030 0.88960 0.86850 -0.01800
H 	H 	0.67380 0.53950 0.75460 -0.00900
H 	H 	0.96490 0.67040 0.67830 0.10000
H 	H 	0.96250 0.80650 0.83520 0.10000
H 	H 	0.52440 0.70630 0.60220 0.15900
H 	H 	0.67650 0.70910 0.58470 0.17100
H 	H 	0.63890 0.67240 0.63160 0.17100
H 	H 	0.59680 0.28480 0.30070 0.05900
H 	H 	0.28410 0.18040 0.22200 0.12300
H 	H 	0.17730 0.09990 0.26050 -0.00200
H 	H 	0.93720 0.36200 0.03710 0.01100
H 	H 	0.82920 0.39710 0.06850 0.00100
H 	H 	0.62840 0.41180 0.13910 -0.02100
H 	H 	0.45480 0.25870 0.21890 0.08000
H 	H 	0.73940 0.37870 0.29670 0.10000
H 	H 	0.42970 0.11040 0.36850 -0.01800
H 	H 	0.82620 0.46050 0.25460 -0.00900
H 	H 	0.53510 0.32960 0.17830 0.10000
H 	H 	0.53750 0.19350 0.33520 0.10200
H 	H 	0.97560 0.29370 0.10220 0.16000
H 	H 	0.82350 0.29090 0.08470 0.17100
H 	H 	0.86110 0.32760 0.13160 0.17100
H 	H 	0.09680 0.21520 0.69930 0.05900
H 	H 	0.78410 0.31960 0.77800 0.12300
H 	H 	0.67730 0.40010 0.73950 -0.00200
H 	H 	0.43720 0.13800 0.96290 0.01100
H 	H 	0.32920 0.10290 0.93150 0.00100
H 	H 	0.12840 0.08820 0.86090 -0.02100
H 	H 	0.95480 0.24130 0.78110 0.08000
H 	H 	0.23940 0.12130 0.70330 0.10000
H 	H 	0.92970 0.38960 0.63150 -0.01800
H 	H 	0.32620 0.03950 0.74540 -0.00900
H 	H 	0.03510 0.17040 0.82170 0.10000
H 	H 	0.03750 0.30650 0.66480 0.10100
H 	H 	0.47560 0.20630 0.89780 0.15900
H 	H 	0.32350 0.20910 0.91530 0.17100
H 	H 	0.36110 0.17240 0.86840 0.17100
H 	H 	0.40320 0.78480 0.19930 0.05900
H 	H 	0.71590 0.68040 0.27800 0.12300
H 	H 	0.82270 0.59990 0.23950 -0.00200
H 	H 	0.06280 0.86200 0.46290 0.01100
H 	H 	0.17080 0.89710 0.43150 0.00000
H 	H 	0.37160 0.91180 0.36090 -0.02100
H 	H 	0.54520 0.75870 0.28110 0.08000
H 	H 	0.26060 0.87870 0.20330 0.10000
H 	H 	0.57030 0.61040 0.13150 -0.01800
H 	H 	0.17380 0.96050 0.24540 -0.00900
H 	H 	0.46490 0.82960 0.32170 0.10000
H 	H 	0.46250 0.69350 0.16480 0.10200
H 	H 	0.02440 0.79370 0.39780 0.16000
H 	H 	0.17650 0.79090 0.41530 0.17200
H 	H 	0.13890 0.82760 0.36840 0.17100
C 	C 	0.40150 0.69626 0.45873 -0.04900
C 	C 	0.43010 0.77348 0.50698 0.08600
C 	C 	0.34410 0.63696 0.44158 0.30400
C 	C 	0.41560 0.81674 0.54840 -0.01300
C 	C 	0.50170 0.73423 0.44003 -0.02600
C 	C 	0.58510 0.73211 0.39575 0.26100
C 	C 	0.33980 0.87540 0.53540 -0.50100
C 	C 	0.09850 0.30374 0.95873 -0.04900
C 	C 	0.06990 0.22652 0.00698 0.08600
C 	C 	0.15590 0.36304 0.94158 0.30400
C 	C 	0.08440 0.18326 0.04840 -0.01600
C 	C 	0.99830 0.26577 0.94003 -0.02500
C 	C 	0.91490 0.26789 0.89575 0.26100
C 	C 	0.16020 0.12460 0.03540 -0.49800
C 	C 	0.59850 0.19626 0.04127 -0.04900
C 	C 	0.56990 0.27348 0.99302 0.08600
C 	C 	0.65590 0.13696 0.05842 0.30400
C 	C 	0.58440 0.31674 0.95160 -0.01400
C 	C 	0.49830 0.23423 0.05997 -0.02500
C 	C 	0.41490 0.23211 0.10425 0.26100
C 	C 	0.66020 0.37540 0.96460 -0.50000
C 	C 	0.90150 0.80374 0.54127 -0.04900
C 	C 	0.93010 0.72652 0.49302 0.08600
C 	C 	0.84410 0.86304 0.55842 0.30400
C 	C 	0.91560 0.68326 0.45160 -0.01500
C 	C 	0.00170 0.76577 0.55997 -0.02500
C 	C 	0.08510 0.76789 0.60425 0.26100
C 	C 	0.83980 0.62460 0.46460 -0.49900
C 	C 	0.27710 0.54937 0.60613 -0.03800
C 	C 	0.37370 0.51425 0.62950 -0.02500
C 	C 	0.47690 0.58577 0.58932 0.08500
C 	C 	0.87470 0.65575 0.74273 0.13000
C 	C 	0.08000 0.80179 0.77486 0.14600
C 	C 	0.93150 0.70901 0.76899 -0.08700
C 	C 	0.36320 0.46260 0.66388 0.27300
C 	C 	0.12750 0.54295 0.60197 0.28600
C 	C 	0.18650 0.83200 0.75242 -0.18200
C 	C 	0.24910 0.88099 0.77556 0.12600
C 	C 	0.58620 0.62600 0.56987 -0.01300
C 	C 	0.84930 0.59480 0.67135 0.09100
C 	C 	0.01890 0.74817 0.75072 -0.09900
C 	C 	0.78550 0.61540 0.76465 -0.19000
C 	C 	0.10150 0.87432 0.83908 0.12100
C 	C 	0.73320 0.56630 0.73886 0.11200
C 	C 	0.90560 0.64430 0.69473 -0.18200
C 	C 	0.03580 0.82470 0.81928 -0.18900
C 	C 	0.60850 0.68380 0.59980 -0.48800
C 	C 	0.22290 0.45063 0.10613 -0.03800
C 	C 	0.12630 0.48575 0.12950 -0.02500
C 	C 	0.02310 0.41423 0.08932 0.08400
C 	C 	0.62530 0.34425 0.24273 0.12900
C 	C 	0.42000 0.19821 0.27486 0.14800
C 	C 	0.56850 0.29099 0.26899 -0.08500
C 	C 	0.13680 0.53740 0.16388 0.27300
C 	C 	0.37250 0.45705 0.10197 0.28600
C 	C 	0.31350 0.16800 0.25242 -0.18300
C 	C 	0.25090 0.11901 0.27556 0.12600
C 	C 	0.91380 0.37400 0.06987 -0.01200
C 	C 	0.65070 0.40520 0.17135 0.09100
C 	C 	0.48110 0.25183 0.25072 -0.10100
C 	C 	0.71450 0.38460 0.26465 -0.19000
C 	C 	0.39850 0.12568 0.33908 0.12200
C 	C 	0.76680 0.43370 0.23886 0.11200
C 	C 	0.59440 0.35570 0.19473 -0.18200
C 	C 	0.46420 0.17530 0.31928 -0.19100
C 	C 	0.89150 0.31620 0.09980 -0.48900
C 	C 	0.72290 0.04937 0.89387 -0.03900
C 	C 	0.62630 0.01425 0.87050 -0.02400
C 	C 	0.52310 0.08577 0.91068 0.08500
C 	C 	0.12530 0.15575 0.75727 0.13000
C 	C 	0.92000 0.30179 0.72514 0.14700
C 	C 	0.06850 0.20901 0.73101 -0.08700
C 	C 	0.63680 0.96260 0.83612 0.27300
C 	C 	0.87250 0.04295 0.89803 0.28700
C 	C 	0.81350 0.33200 0.74758 -0.18300
C 	C 	0.75090 0.38099 0.72444 0.12600
C 	C 	0.41380 0.12600 0.93013 -0.01300
C 	C 	0.15070 0.09480 0.82865 0.09100
C 	C 	0.98110 0.24817 0.74928 -0.09900
C 	C 	0.21450 0.11540 0.73535 -0.19000
C 	C 	0.89850 0.37432 0.66092 0.12100
C 	C 	0.26680 0.06630 0.76114 0.11200
C 	C 	0.09440 0.14430 0.80527 -0.18200
C 	C 	0.96420 0.32470 0.68072 -0.18900
C 	C 	0.39150 0.18380 0.90020 -0.48700
C 	C 	0.77710 0.95063 0.39387 -0.03800
C 	C 	0.87370 0.98575 0.37050 -0.02500
C 	C 	0.97690 0.91423 0.41068 0.08400
C 	C 	0.37470 0.84425 0.25727 0.12900
C 	C 	0.58000 0.69821 0.22514 0.14800
C 	C 	0.43150 0.79099 0.23101 -0.08500
C 	C 	0.86320 0.03740 0.33612 0.27400
C 	C 	0.62750 0.95705 0.39803 0.28600
C 	C 	0.68650 0.66800 0.24758 -0.18300
C 	C 	0.74910 0.61901 0.22444 0.12600
C 	C 	0.08620 0.87400 0.43013 -0.01100
C 	C 	0.34930 0.90520 0.32865 0.09100
C 	C 	0.51890 0.75183 0.24928 -0.10100
C 	C 	0.28550 0.88460 0.23535 -0.18900
C 	C 	0.60150 0.62568 0.16092 0.12200
C 	C 	0.23320 0.93370 0.26114 0.11200
C 	C 	0.40560 0.85570 0.30527 -0.18200
C 	C 	0.53580 0.67530 0.18072 -0.19100
C 	C 	0.10850 0.81620 0.40020 -0.48900
N 	N 	0.35670 0.72138 0.50126 -0.22300
N 	N 	0.51830 0.78290 0.47091 -0.23200
N 	N 	0.14330 0.27862 0.00126 -0.22400
N 	N 	0.98170 0.21710 0.97091 -0.23100
N 	N 	0.64330 0.22138 0.99874 -0.22300
N 	N 	0.48170 0.28290 0.02909 -0.23200
N 	N 	0.85670 0.77862 0.49874 -0.22300
N 	N 	0.01830 0.71710 0.52909 -0.23200
N 	N 	0.34280 0.59486 0.58116 -0.22900
N 	N 	0.49950 0.53701 0.61850 -0.23600
N 	N 	0.20880 0.90196 0.81821 -0.25200
N 	N 	0.76290 0.55526 0.69307 -0.25200
N 	N 	0.15720 0.40514 0.08116 -0.22900
N 	N 	0.00050 0.46299 0.11850 -0.23600
N 	N 	0.29120 0.09804 0.31821 -0.25200
N 	N 	0.73710 0.44474 0.19307 -0.25200
N 	N 	0.65720 0.09486 0.91884 -0.22900
N 	N 	0.50050 0.03701 0.88150 -0.23600
N 	N 	0.79120 0.40196 0.68179 -0.25200
N 	N 	0.23710 0.05526 0.80693 -0.25200
N 	N 	0.84280 0.90514 0.41884 -0.22900
N 	N 	0.99950 0.96299 0.38150 -0.23600
N 	N 	0.70880 0.59804 0.18179 -0.25200
N 	N 	0.26290 0.94474 0.30693 -0.25100
O 	O 	0.56780 0.68592 0.36596 -0.20400
O 	O 	0.24840 0.61320 0.46546 -0.41600
O 	O 	0.66990 0.77228 0.38710 -0.36500
O 	O 	0.39540 0.61327 0.40394 -0.35400
O 	O 	0.93220 0.31408 0.86596 -0.20400
O 	O 	0.25160 0.38680 0.96546 -0.41600
O 	O 	0.83010 0.22772 0.88710 -0.36500
O 	O 	0.10460 0.38673 0.90394 -0.35400
O 	O 	0.43220 0.18592 0.13404 -0.20400
O 	O 	0.75160 0.11320 0.03454 -0.41600
O 	O 	0.33010 0.27228 0.11290 -0.36500
O 	O 	0.60460 0.11327 0.09606 -0.35400
O 	O 	0.06780 0.81408 0.63404 -0.20400
O 	O 	0.74840 0.88680 0.53454 -0.41600
O 	O 	0.16990 0.72772 0.61290 -0.36500
O 	O 	0.89540 0.88673 0.59606 -0.35400
O 	O 	0.07110 0.49905 0.62510 -0.25000
O 	O 	0.06390 0.57859 0.57533 -0.38800
O 	O 	0.46600 0.44207 0.68322 -0.34500
O 	O 	0.24120 0.44116 0.67296 -0.20600
O 	O 	0.42890 0.50095 0.12510 -0.25000
O 	O 	0.43610 0.42141 0.07533 -0.38800
O 	O 	0.03400 0.55793 0.18322 -0.34500
O 	O 	0.25880 0.55884 0.17296 -0.20600
O 	O 	0.92890 0.99905 0.87490 -0.25000
O 	O 	0.93610 0.07859 0.92467 -0.38700
O 	O 	0.53400 0.94207 0.81678 -0.34400
O 	O 	0.75880 0.94116 0.82704 -0.20600
O 	O 	0.57110 0.00095 0.37490 -0.24900
O 	O 	0.56390 0.92141 0.42467 -0.38700
O 	O 	0.96600 0.05793 0.31678 -0.34400
O 	O 	0.74120 0.05884 0.32704 -0.20600
