data_crystal

_cell_length_a 11.93300
_cell_length_b 11.93300
_cell_length_c 8.54860
_cell_angle_alpha 90.00000
_cell_angle_beta  90.00000
_cell_angle_gamma 90.00000

_symmetry_space_group_name_	'P 1'
_symmetry_space_group_name_H-M	'P 1'

loop_
_symmetry_equiv_pos_as_xyz
  x,y,z

loop_
_atom_site_label
_atom_site_type_symbol
_atom_site_fract_x
_atom_site_fract_y
_atom_site_fract_z
_atom_site_charge
Ag	Ag	0.50000 0.50000 0.25000 0.54100
Ag	Ag	0.50000 0.50000 0.75000 0.54100
Ag	Ag	0.00000 0.50000 -0.00000 0.48800
Ag	Ag	0.50000 0.00000 0.50000 0.49000
C 	C 	0.24160 0.50000 0.12340 0.10600
C 	C 	0.20410 0.50000 0.29060 -0.11700
N 	N 	0.34900 0.50000 0.08150 -0.16000
C 	C 	0.75840 0.50000 0.12340 0.11100
C 	C 	0.79590 0.50000 0.29060 -0.08400
N 	N 	0.65100 0.50000 0.08150 -0.15800
C 	C 	0.50000 0.24160 0.62340 0.10600
C 	C 	0.50000 0.20410 0.79060 -0.11600
N 	N 	0.50000 0.34900 0.58150 -0.15800
C 	C 	0.50000 0.75840 0.62340 0.11100
C 	C 	0.50000 0.79590 0.79060 -0.08300
N 	N 	0.50000 0.65100 0.58150 -0.15600
C 	C 	0.75840 0.50000 0.87660 0.11300
C 	C 	0.79590 0.50000 0.70940 -0.08400
N 	N 	0.65100 0.50000 0.91850 -0.15600
C 	C 	0.24160 0.50000 0.87660 0.11100
C 	C 	0.20410 0.50000 0.70940 -0.11700
N 	N 	0.34900 0.50000 0.91850 -0.15700
C 	C 	0.50000 0.24160 0.37660 0.10700
C 	C 	0.50000 0.20410 0.20940 -0.11900
N 	N 	0.50000 0.34900 0.41850 -0.15900
C 	C 	0.50000 0.75840 0.37660 0.11100
C 	C 	0.50000 0.79590 0.20940 -0.08600
N 	N 	0.50000 0.65100 0.41850 -0.15700
N 	N 	0.17240 0.50000 -0.00000 -0.22900
N 	N 	0.82760 0.50000 -0.00000 -0.20800
N 	N 	0.50000 0.17240 0.50000 -0.22600
N 	N 	0.50000 0.82760 0.50000 -0.20600
