data_crystal

_cell_length_a 20.40400
_cell_length_b 20.40400
_cell_length_c 20.40400
_cell_angle_alpha 90.00000
_cell_angle_beta  90.00000
_cell_angle_gamma 90.00000

_symmetry_space_group_name_	'P 1'
_symmetry_space_group_name_H-M	'P 1'

loop_
_symmetry_equiv_pos_as_xyz
  x,y,z

loop_
_atom_site_label
_atom_site_type_symbol
_atom_site_fract_x
_atom_site_fract_y
_atom_site_fract_z
_atom_site_charge
Mo	Mo	0.10894 0.14913 0.94617 1.09400
Mo	Mo	0.00699 0.19221 0.00853 1.06100
P 	P 	0.26540 0.15230 0.98790 0.53100
Na	Na	0.14960 0.25760 0.11000 0.58600
O 	O 	0.02540 0.10740 0.96880 -0.52900
O 	O 	0.09730 0.22380 0.00330 -0.53300
O 	O 	0.14270 0.10080 0.04200 -0.44800
O 	O 	0.20890 0.17510 0.94630 -0.37800
O 	O 	0.14280 0.05460 0.92600 -0.44600
O 	O 	0.26670 0.18670 0.05530 -0.36300
O 	O 	0.33090 0.17080 0.95150 -0.24400
O 	O 	0.26760 0.07800 0.99440 -0.39900
Mo	Mo	0.39106 0.35087 0.94617 1.09500
Mo	Mo	0.49301 0.30779 0.00853 1.07300
P 	P 	0.23460 0.34770 0.98790 0.53100
Na	Na	0.35040 0.24240 0.11000 0.58700
O 	O 	0.47460 0.39260 0.96880 -0.51800
O 	O 	0.40270 0.27620 0.00330 -0.52800
O 	O 	0.35730 0.39920 0.04200 -0.44400
O 	O 	0.29110 0.32490 0.94630 -0.37700
O 	O 	0.35720 0.44540 0.92600 -0.43800
O 	O 	0.23330 0.31330 0.05530 -0.36200
O 	O 	0.16910 0.32920 0.95150 -0.24300
O 	O 	0.23240 0.42200 0.99440 -0.39700
Mo	Mo	0.39106 0.14913 0.55383 1.08700
Mo	Mo	0.49301 0.19221 0.49147 1.08200
P 	P 	0.23460 0.15230 0.51210 0.51500
Na	Na	0.35040 0.25760 0.39000 0.58800
O 	O 	0.47460 0.10740 0.53120 -0.53500
O 	O 	0.40270 0.22380 0.49670 -0.51400
O 	O 	0.35730 0.10080 0.45800 -0.43600
O 	O 	0.29110 0.17510 0.55370 -0.38100
O 	O 	0.35720 0.05460 0.57400 -0.45300
O 	O 	0.23330 0.18670 0.44470 -0.34800
O 	O 	0.16910 0.17080 0.54850 -0.25200
O 	O 	0.23240 0.07800 0.50560 -0.41200
Mo	Mo	0.10894 0.35087 0.55383 1.08700
Mo	Mo	0.00699 0.30779 0.49147 1.07200
P 	P 	0.26540 0.34770 0.51210 0.51500
Na	Na	0.14960 0.24240 0.39000 0.58800
O 	O 	0.02540 0.39260 0.53120 -0.54000
O 	O 	0.09730 0.27620 0.49670 -0.51900
O 	O 	0.14270 0.39920 0.45800 -0.43400
O 	O 	0.20890 0.32490 0.55370 -0.38100
O 	O 	0.14280 0.44540 0.57400 -0.44700
O 	O 	0.26670 0.31330 0.44470 -0.34600
O 	O 	0.33090 0.32920 0.54850 -0.24700
O 	O 	0.26760 0.42200 0.50560 -0.40700
Mo	Mo	0.94617 0.10894 0.14913 1.09500
Mo	Mo	0.00853 0.00699 0.19221 1.06200
P 	P 	0.98790 0.26540 0.15230 0.53200
Na	Na	0.11000 0.14960 0.25760 0.58700
O 	O 	0.96880 0.02540 0.10740 -0.52800
O 	O 	0.00330 0.09730 0.22380 -0.53200
O 	O 	0.04200 0.14270 0.10080 -0.44700
O 	O 	0.94630 0.20890 0.17510 -0.37700
O 	O 	0.92600 0.14280 0.05460 -0.44500
O 	O 	0.05530 0.26670 0.18670 -0.36200
O 	O 	0.95150 0.33090 0.17080 -0.24300
O 	O 	0.99440 0.26760 0.07800 -0.39800
Mo	Mo	0.94617 0.39106 0.35087 1.09600
Mo	Mo	0.00853 0.49301 0.30779 1.07400
P 	P 	0.98790 0.23460 0.34770 0.53200
Na	Na	0.11000 0.35040 0.24240 0.58800
O 	O 	0.96880 0.47460 0.39260 -0.51800
O 	O 	0.00330 0.40270 0.27620 -0.52800
O 	O 	0.04200 0.35730 0.39920 -0.44400
O 	O 	0.94630 0.29110 0.32490 -0.37700
O 	O 	0.92600 0.35720 0.44540 -0.43800
O 	O 	0.05530 0.23330 0.31330 -0.36200
O 	O 	0.95150 0.16910 0.32920 -0.24300
O 	O 	0.99440 0.23240 0.42200 -0.39700
Mo	Mo	0.55383 0.39106 0.14913 1.08700
Mo	Mo	0.49147 0.49301 0.19221 1.08200
P 	P 	0.51210 0.23460 0.15230 0.51500
Na	Na	0.39000 0.35040 0.25760 0.58800
O 	O 	0.53120 0.47460 0.10740 -0.53500
O 	O 	0.49670 0.40270 0.22380 -0.51400
O 	O 	0.45800 0.35730 0.10080 -0.43600
O 	O 	0.55370 0.29110 0.17510 -0.38100
O 	O 	0.57400 0.35720 0.05460 -0.45300
O 	O 	0.44470 0.23330 0.18670 -0.34800
O 	O 	0.54850 0.16910 0.17080 -0.25200
O 	O 	0.50560 0.23240 0.07800 -0.41200
Mo	Mo	0.55383 0.10894 0.35087 1.08700
Mo	Mo	0.49147 0.00699 0.30779 1.07200
P 	P 	0.51210 0.26540 0.34770 0.51500
Na	Na	0.39000 0.14960 0.24240 0.58800
O 	O 	0.53120 0.02540 0.39260 -0.54000
O 	O 	0.49670 0.09730 0.27620 -0.51900
O 	O 	0.45800 0.14270 0.39920 -0.43400
O 	O 	0.55370 0.20890 0.32490 -0.38100
O 	O 	0.57400 0.14280 0.44540 -0.44700
O 	O 	0.44470 0.26670 0.31330 -0.34600
O 	O 	0.54850 0.33090 0.32920 -0.24700
O 	O 	0.50560 0.26760 0.42200 -0.40700
Mo	Mo	0.14913 0.94617 0.10894 1.09500
Mo	Mo	0.19221 0.00853 0.00699 1.06200
P 	P 	0.15230 0.98790 0.26540 0.53200
Na	Na	0.25760 0.11000 0.14960 0.58700
O 	O 	0.10740 0.96880 0.02540 -0.52800
O 	O 	0.22380 0.00330 0.09730 -0.53200
O 	O 	0.10080 0.04200 0.14270 -0.44700
O 	O 	0.17510 0.94630 0.20890 -0.37700
O 	O 	0.05460 0.92600 0.14280 -0.44500
O 	O 	0.18670 0.05530 0.26670 -0.36200
O 	O 	0.17080 0.95150 0.33090 -0.24300
O 	O 	0.07800 0.99440 0.26760 -0.39800
Mo	Mo	0.35087 0.94617 0.39106 1.09600
Mo	Mo	0.30779 0.00853 0.49301 1.07400
P 	P 	0.34770 0.98790 0.23460 0.53200
Na	Na	0.24240 0.11000 0.35040 0.58800
O 	O 	0.39260 0.96880 0.47460 -0.51800
O 	O 	0.27620 0.00330 0.40270 -0.52800
O 	O 	0.39920 0.04200 0.35730 -0.44400
O 	O 	0.32490 0.94630 0.29110 -0.37700
O 	O 	0.44540 0.92600 0.35720 -0.43800
O 	O 	0.31330 0.05530 0.23330 -0.36200
O 	O 	0.32920 0.95150 0.16910 -0.24300
O 	O 	0.42200 0.99440 0.23240 -0.39700
Mo	Mo	0.14913 0.55383 0.39106 1.08700
Mo	Mo	0.19221 0.49147 0.49301 1.08200
P 	P 	0.15230 0.51210 0.23460 0.51500
Na	Na	0.25760 0.39000 0.35040 0.58800
O 	O 	0.10740 0.53120 0.47460 -0.53500
O 	O 	0.22380 0.49670 0.40270 -0.51400
O 	O 	0.10080 0.45800 0.35730 -0.43600
O 	O 	0.17510 0.55370 0.29110 -0.38100
O 	O 	0.05460 0.57400 0.35720 -0.45300
O 	O 	0.18670 0.44470 0.23330 -0.34800
O 	O 	0.17080 0.54850 0.16910 -0.25200
O 	O 	0.07800 0.50560 0.23240 -0.41200
Mo	Mo	0.35087 0.55383 0.10894 1.08700
Mo	Mo	0.30779 0.49147 0.00699 1.07200
P 	P 	0.34770 0.51210 0.26540 0.51500
Na	Na	0.24240 0.39000 0.14960 0.58800
O 	O 	0.39260 0.53120 0.02540 -0.54000
O 	O 	0.27620 0.49670 0.09730 -0.51900
O 	O 	0.39920 0.45800 0.14270 -0.43400
O 	O 	0.32490 0.55370 0.20890 -0.38100
O 	O 	0.44540 0.57400 0.14280 -0.44700
O 	O 	0.31330 0.44470 0.26670 -0.34600
O 	O 	0.32920 0.54850 0.33090 -0.24700
O 	O 	0.42200 0.50560 0.26760 -0.40700
Mo	Mo	0.89106 0.85087 0.05383 1.08500
Mo	Mo	0.99301 0.80779 0.99147 1.09400
P 	P 	0.73460 0.84770 0.01210 0.50300
Na	Na	0.85040 0.74240 0.89000 0.58900
O 	O 	0.97460 0.89260 0.03120 -0.52800
O 	O 	0.90270 0.77620 0.99670 -0.50200
O 	O 	0.85730 0.89920 0.95800 -0.42600
O 	O 	0.79110 0.82490 0.05370 -0.38100
O 	O 	0.85720 0.94540 0.07400 -0.44100
O 	O 	0.73330 0.81330 0.94470 -0.33500
O 	O 	0.66910 0.82920 0.04850 -0.24900
O 	O 	0.73240 0.92200 0.00560 -0.41000
Mo	Mo	0.60894 0.64913 0.05383 1.08200
Mo	Mo	0.50699 0.69221 0.99147 1.08900
P 	P 	0.76540 0.65230 0.01210 0.50300
Na	Na	0.64960 0.75760 0.89000 0.58900
O 	O 	0.52540 0.60740 0.03120 -0.54300
O 	O 	0.59730 0.72380 0.99670 -0.50300
O 	O 	0.64270 0.60080 0.95800 -0.42600
O 	O 	0.70890 0.67510 0.05370 -0.38300
O 	O 	0.64280 0.55460 0.07400 -0.45200
O 	O 	0.76670 0.68670 0.94470 -0.33500
O 	O 	0.83090 0.67080 0.04850 -0.24800
O 	O 	0.76760 0.57800 0.00560 -0.41400
Mo	Mo	0.60894 0.85087 0.44617 1.08900
Mo	Mo	0.50699 0.80779 0.50853 1.08200
P 	P 	0.76540 0.84770 0.48790 0.51500
Na	Na	0.64960 0.74240 0.61000 0.58800
O 	O 	0.52540 0.89260 0.46880 -0.52800
O 	O 	0.59730 0.77620 0.50330 -0.51400
O 	O 	0.64270 0.89920 0.54200 -0.43200
O 	O 	0.70890 0.82490 0.44630 -0.37900
O 	O 	0.64280 0.94540 0.42600 -0.43700
O 	O 	0.76670 0.81330 0.55530 -0.34500
O 	O 	0.83090 0.82920 0.45150 -0.24100
O 	O 	0.76760 0.92200 0.49440 -0.40200
Mo	Mo	0.89106 0.64913 0.44617 1.08900
Mo	Mo	0.99301 0.69221 0.50853 1.09000
P 	P 	0.73460 0.65230 0.48790 0.51500
Na	Na	0.85040 0.75760 0.61000 0.58900
O 	O 	0.97460 0.60740 0.46880 -0.52300
O 	O 	0.90270 0.72380 0.50330 -0.51100
O 	O 	0.85730 0.60080 0.54200 -0.43400
O 	O 	0.79110 0.67510 0.44630 -0.37900
O 	O 	0.85720 0.55460 0.42600 -0.44300
O 	O 	0.73330 0.68670 0.55530 -0.34600
O 	O 	0.66910 0.67080 0.45150 -0.24600
O 	O 	0.73240 0.57800 0.49440 -0.40700
Mo	Mo	0.05383 0.89106 0.85087 1.08500
Mo	Mo	0.99147 0.99301 0.80779 1.09400
P 	P 	0.01210 0.73460 0.84770 0.50300
Na	Na	0.89000 0.85040 0.74240 0.58900
O 	O 	0.03120 0.97460 0.89260 -0.52800
O 	O 	0.99670 0.90270 0.77620 -0.50200
O 	O 	0.95800 0.85730 0.89920 -0.42600
O 	O 	0.05370 0.79110 0.82490 -0.38100
O 	O 	0.07400 0.85720 0.94540 -0.44100
O 	O 	0.94470 0.73330 0.81330 -0.33500
O 	O 	0.04850 0.66910 0.82920 -0.24900
O 	O 	0.00560 0.73240 0.92200 -0.41000
Mo	Mo	0.05383 0.60894 0.64913 1.08200
Mo	Mo	0.99147 0.50699 0.69221 1.08900
P 	P 	0.01210 0.76540 0.65230 0.50300
Na	Na	0.89000 0.64960 0.75760 0.58900
O 	O 	0.03120 0.52540 0.60740 -0.54300
O 	O 	0.99670 0.59730 0.72380 -0.50300
O 	O 	0.95800 0.64270 0.60080 -0.42600
O 	O 	0.05370 0.70890 0.67510 -0.38300
O 	O 	0.07400 0.64280 0.55460 -0.45200
O 	O 	0.94470 0.76670 0.68670 -0.33500
O 	O 	0.04850 0.83090 0.67080 -0.24800
O 	O 	0.00560 0.76760 0.57800 -0.41400
Mo	Mo	0.44617 0.60894 0.85087 1.08900
Mo	Mo	0.50853 0.50699 0.80779 1.08200
P 	P 	0.48790 0.76540 0.84770 0.51500
Na	Na	0.61000 0.64960 0.74240 0.58800
O 	O 	0.46880 0.52540 0.89260 -0.52800
O 	O 	0.50330 0.59730 0.77620 -0.51400
O 	O 	0.54200 0.64270 0.89920 -0.43200
O 	O 	0.44630 0.70890 0.82490 -0.37900
O 	O 	0.42600 0.64280 0.94540 -0.43700
O 	O 	0.55530 0.76670 0.81330 -0.34500
O 	O 	0.45150 0.83090 0.82920 -0.24100
O 	O 	0.49440 0.76760 0.92200 -0.40200
Mo	Mo	0.44617 0.89106 0.64913 1.08900
Mo	Mo	0.50853 0.99301 0.69221 1.09000
P 	P 	0.48790 0.73460 0.65230 0.51500
Na	Na	0.61000 0.85040 0.75760 0.58900
O 	O 	0.46880 0.97460 0.60740 -0.52300
O 	O 	0.50330 0.90270 0.72380 -0.51100
O 	O 	0.54200 0.85730 0.60080 -0.43400
O 	O 	0.44630 0.79110 0.67510 -0.37900
O 	O 	0.42600 0.85720 0.55460 -0.44300
O 	O 	0.55530 0.73330 0.68670 -0.34600
O 	O 	0.45150 0.66910 0.67080 -0.24600
O 	O 	0.49440 0.73240 0.57800 -0.40700
Mo	Mo	0.85087 0.05383 0.89106 1.08500
Mo	Mo	0.80779 0.99147 0.99301 1.09400
P 	P 	0.84770 0.01210 0.73460 0.50300
Na	Na	0.74240 0.89000 0.85040 0.58900
O 	O 	0.89260 0.03120 0.97460 -0.52800
O 	O 	0.77620 0.99670 0.90270 -0.50200
O 	O 	0.89920 0.95800 0.85730 -0.42600
O 	O 	0.82490 0.05370 0.79110 -0.38100
O 	O 	0.94540 0.07400 0.85720 -0.44100
O 	O 	0.81330 0.94470 0.73330 -0.33500
O 	O 	0.82920 0.04850 0.66910 -0.24900
O 	O 	0.92200 0.00560 0.73240 -0.41000
Mo	Mo	0.64913 0.05383 0.60894 1.08200
Mo	Mo	0.69221 0.99147 0.50699 1.08900
P 	P 	0.65230 0.01210 0.76540 0.50300
Na	Na	0.75760 0.89000 0.64960 0.58900
O 	O 	0.60740 0.03120 0.52540 -0.54300
O 	O 	0.72380 0.99670 0.59730 -0.50300
O 	O 	0.60080 0.95800 0.64270 -0.42600
O 	O 	0.67510 0.05370 0.70890 -0.38300
O 	O 	0.55460 0.07400 0.64280 -0.45200
O 	O 	0.68670 0.94470 0.76670 -0.33500
O 	O 	0.67080 0.04850 0.83090 -0.24800
O 	O 	0.57800 0.00560 0.76760 -0.41400
Mo	Mo	0.85087 0.44617 0.60894 1.08900
Mo	Mo	0.80779 0.50853 0.50699 1.08200
P 	P 	0.84770 0.48790 0.76540 0.51500
Na	Na	0.74240 0.61000 0.64960 0.58800
O 	O 	0.89260 0.46880 0.52540 -0.52800
O 	O 	0.77620 0.50330 0.59730 -0.51400
O 	O 	0.89920 0.54200 0.64270 -0.43200
O 	O 	0.82490 0.44630 0.70890 -0.37900
O 	O 	0.94540 0.42600 0.64280 -0.43700
O 	O 	0.81330 0.55530 0.76670 -0.34500
O 	O 	0.82920 0.45150 0.83090 -0.24100
O 	O 	0.92200 0.49440 0.76760 -0.40200
Mo	Mo	0.64913 0.44617 0.89106 1.08900
Mo	Mo	0.69221 0.50853 0.99301 1.09000
P 	P 	0.65230 0.48790 0.73460 0.51500
Na	Na	0.75760 0.61000 0.85040 0.58900
O 	O 	0.60740 0.46880 0.97460 -0.52300
O 	O 	0.72380 0.50330 0.90270 -0.51100
O 	O 	0.60080 0.54200 0.85730 -0.43400
O 	O 	0.67510 0.44630 0.79110 -0.37900
O 	O 	0.55460 0.42600 0.85720 -0.44300
O 	O 	0.68670 0.55530 0.73330 -0.34600
O 	O 	0.67080 0.45150 0.66910 -0.24600
O 	O 	0.57800 0.49440 0.73240 -0.40700
P 	P 	0.11110 0.11110 0.11110 0.48300
O 	O 	0.15330 0.15330 0.15330 -0.41100
P 	P 	0.38890 0.38890 0.11110 0.48200
O 	O 	0.34670 0.34670 0.15330 -0.41000
P 	P 	0.38890 0.11110 0.38890 0.48200
O 	O 	0.34670 0.15330 0.34670 -0.41000
P 	P 	0.11110 0.38890 0.38890 0.48200
O 	O 	0.15330 0.34670 0.34670 -0.41000
P 	P 	0.88890 0.88890 0.88890 0.48100
O 	O 	0.84670 0.84670 0.84670 -0.40800
P 	P 	0.61110 0.61110 0.88890 0.48200
O 	O 	0.65330 0.65330 0.84670 -0.40900
P 	P 	0.61110 0.88890 0.61110 0.48200
O 	O 	0.65330 0.84670 0.65330 -0.40900
P 	P 	0.88890 0.61110 0.61110 0.48200
O 	O 	0.84670 0.65330 0.65330 -0.40900
P 	P 	0.25000 0.25000 0.25000 0.50900
P 	P 	0.75000 0.75000 0.75000 0.50800
Na	Na	-0.00000 0.00000 -0.00000 0.59500
Na	Na	0.50000 0.50000 -0.00000 0.60300
Na	Na	0.50000 0.00000 0.50000 0.60300
Na	Na	0.00000 0.50000 0.50000 0.60300
O 	O 	0.20620 0.29380 0.20620 -0.40800
O 	O 	0.29380 0.20620 0.20620 -0.40800
O 	O 	0.29380 0.29380 0.29380 -0.40700
O 	O 	0.20620 0.20620 0.29380 -0.40800
O 	O 	0.79380 0.70620 0.79380 -0.40600
O 	O 	0.70620 0.79380 0.79380 -0.40600
O 	O 	0.70620 0.70620 0.70620 -0.40700
O 	O 	0.79380 0.79380 0.70620 -0.40600
