data_crystal

_cell_length_a 9.29250
_cell_length_b 18.40660
_cell_length_c 20.42600
_cell_angle_alpha 113.80700
_cell_angle_beta  90.00000
_cell_angle_gamma 104.62100

_symmetry_space_group_name_	'P 1'
_symmetry_space_group_name_H-M	'P 1'

loop_
_symmetry_equiv_pos_as_xyz
  x,y,z

loop_
_atom_site_label
_atom_site_type_symbol
_atom_site_fract_x
_atom_site_fract_y
_atom_site_fract_z
_atom_site_charge
U 	U 	0.21818 0.32166 0.09426 -0.00100
U 	U 	0.89652 0.67834 0.40574 0.00000
U 	U 	0.78182 0.67834 0.90574 0.00000
U 	U 	0.10348 0.32166 0.59426 -0.00100
U 	U 	-0.00000 0.00000 -0.00000 0.01300
U 	U 	-0.00000 0.00000 0.50000 0.01400
H 	H 	0.92220 0.77360 0.10530 0.05900
H 	H 	0.79770 0.72680 0.13760 0.05200
H 	H 	0.03770 0.92780 0.17570 0.06200
H 	H 	0.05430 0.92360 0.25060 0.06900
H 	H 	0.82650 0.84860 0.29660 0.07200
H 	H 	0.69160 0.78300 0.23900 0.05500
H 	H 	0.79530 0.86740 0.10240 0.07000
H 	H 	0.72460 0.91940 0.16910 0.07600
H 	H 	0.59270 0.79020 0.32550 0.13600
H 	H 	0.35900 0.76400 0.38350 0.02200
H 	H 	0.27270 0.94780 0.34930 -0.00900
H 	H 	0.47310 0.96960 0.29190 0.15000
H 	H 	0.35530 0.70120 0.07670 0.14800
H 	H 	0.14210 0.71380 0.02970 0.00800
H 	H 	0.37570 0.92720 0.03110 -0.01000
H 	H 	0.58690 0.91840 0.08110 0.15100
H 	H 	0.21670 0.74040 0.23160 0.16500
H 	H 	0.28630 0.62120 0.20370 -0.01500
H 	H 	0.91860 0.49620 0.06780 -0.01600
H 	H 	0.85050 0.61760 0.09170 0.16200
H 	H 	0.14860 0.22640 0.39470 0.05900
H 	H 	0.07090 0.27320 0.36240 0.05300
H 	H 	0.10990 0.07220 0.32430 0.06800
H 	H 	0.13070 0.07640 0.24940 0.07500
H 	H 	0.97790 0.15140 0.20340 0.07300
H 	H 	0.90860 0.21700 0.26100 0.05500
H 	H 	0.92790 0.13260 0.39760 0.07300
H 	H 	0.80520 0.08060 0.33090 0.08100
H 	H 	0.80250 0.20980 0.17450 0.13600
H 	H 	0.59500 0.23600 0.11650 0.02200
H 	H 	0.32490 0.05220 0.15070 -0.00400
H 	H 	0.50350 0.03040 0.20810 0.15500
H 	H 	0.65410 0.29880 0.42330 0.14800
H 	H 	0.42830 0.28620 0.47030 0.00900
H 	H 	0.44850 0.07280 0.46890 -0.00400
H 	H 	0.66850 0.08160 0.41890 0.15400
H 	H 	0.47630 0.25960 0.26840 0.16600
H 	H 	0.66510 0.37880 0.29630 -0.01600
H 	H 	0.42240 0.50380 0.43220 -0.01700
H 	H 	0.23290 0.38240 0.40830 0.16300
H 	H 	0.07780 0.22640 0.89470 0.06000
H 	H 	0.20230 0.27320 0.86240 0.05300
H 	H 	0.96230 0.07220 0.82430 0.06700
H 	H 	0.94570 0.07640 0.74940 0.07400
H 	H 	0.17350 0.15140 0.70340 0.07400
H 	H 	0.30840 0.21700 0.76100 0.05500
H 	H 	0.20470 0.13260 0.89760 0.07300
H 	H 	0.27540 0.08060 0.83090 0.08100
H 	H 	0.40730 0.20980 0.67450 0.13600
H 	H 	0.64100 0.23600 0.61650 0.02200
H 	H 	0.72730 0.05220 0.65070 -0.00500
H 	H 	0.52690 0.03040 0.70810 0.15500
H 	H 	0.64470 0.29880 0.92330 0.14800
H 	H 	0.85790 0.28620 0.97030 0.01000
H 	H 	0.62430 0.07280 0.96890 -0.00400
H 	H 	0.41310 0.08160 0.91890 0.15400
H 	H 	0.78330 0.25960 0.76840 0.16500
H 	H 	0.71370 0.37880 0.79630 -0.01500
H 	H 	0.08140 0.50380 0.93220 -0.01600
H 	H 	0.14950 0.38240 0.90830 0.16300
H 	H 	0.85140 0.77360 0.60530 0.05800
H 	H 	0.92910 0.72680 0.63760 0.05200
H 	H 	0.89010 0.92780 0.67570 0.06600
H 	H 	0.86930 0.92360 0.75060 0.07300
H 	H 	0.02210 0.84860 0.79660 0.07100
H 	H 	0.09140 0.78300 0.73900 0.05400
H 	H 	0.07210 0.86740 0.60240 0.06900
H 	H 	0.19480 0.91940 0.66910 0.07600
H 	H 	0.19750 0.79020 0.82550 0.13600
H 	H 	0.40500 0.76400 0.88350 0.02200
H 	H 	0.67510 0.94780 0.84930 -0.00800
H 	H 	0.49650 0.96960 0.79190 0.15000
H 	H 	0.34590 0.70120 0.57670 0.14800
H 	H 	0.57170 0.71380 0.52970 0.00900
H 	H 	0.55150 0.92720 0.53110 -0.00900
H 	H 	0.33150 0.91840 0.58110 0.15100
H 	H 	0.52370 0.74040 0.73160 0.16600
H 	H 	0.33490 0.62120 0.70370 -0.01600
H 	H 	0.57760 0.49620 0.56780 -0.01700
H 	H 	0.76710 0.61760 0.59170 0.16300
C 	C 	0.84570 0.85380 0.19280 0.05400
C 	C 	0.88590 0.77320 0.14980 -0.00100
C 	C 	0.98630 0.92760 0.21700 -0.05300
C 	C 	0.75770 0.83860 0.25620 -0.01100
C 	C 	0.74590 0.86660 0.14410 -0.03000
C 	C 	0.54220 0.88240 0.30760 0.28300
C 	C 	0.52350 0.82040 0.33100 -0.23600
C 	C 	0.38230 0.80460 0.36610 0.10700
C 	C 	0.28990 0.85500 0.37080 -0.18600
C 	C 	0.33550 0.91400 0.34350 0.17700
C 	C 	0.45400 0.93000 0.31050 -0.31400
C 	C 	0.15290 0.84740 0.40380 0.35100
C 	C 	0.49160 0.81000 0.08800 0.30500
C 	C 	0.35910 0.74840 0.06940 -0.27200
C 	C 	0.23160 0.75500 0.04020 0.15800
C 	C 	0.23820 0.82520 0.02630 -0.19900
C 	C 	0.37000 0.88200 0.04150 0.18200
C 	C 	0.49760 0.87720 0.07170 -0.29100
C 	C 	0.10230 0.83380 0.99950 0.33800
C 	C 	0.02600 0.69020 0.16650 0.33200
C 	C 	0.15510 0.69060 0.19820 -0.31800
C 	C 	0.19680 0.61980 0.18220 0.20500
C 	C 	0.10350 0.54680 0.13380 -0.21800
C 	C 	0.97940 0.54640 0.10130 0.20800
C 	C 	0.93640 0.61860 0.11570 -0.31600
C 	C 	0.14560 0.46980 0.12150 0.34200
C 	C 	0.99190 0.14620 0.30720 0.05700
C 	C 	0.11270 0.22680 0.35020 -0.00200
C 	C 	0.05870 0.07240 0.28300 -0.05500
C 	C 	0.91910 0.16140 0.24380 -0.01200
C 	C 	0.87930 0.13340 0.35590 -0.03400
C 	C 	0.65980 0.11760 0.19240 0.28400
C 	C 	0.70310 0.17960 0.16900 -0.23500
C 	C 	0.57770 0.19540 0.13390 0.10700
C 	C 	0.43490 0.14500 0.12920 -0.18400
C 	C 	0.42150 0.08600 0.15650 0.17700
C 	C 	0.52400 0.07000 0.18950 -0.31200
C 	C 	0.30550 0.15260 0.09620 0.34900
C 	C 	0.68160 0.19000 0.41200 0.30400
C 	C 	0.61070 0.25160 0.43060 -0.26900
C 	C 	0.47660 0.24500 0.45980 0.15600
C 	C 	0.41300 0.17480 0.47370 -0.19400
C 	C 	0.48800 0.11800 0.45850 0.18000
C 	C 	0.62040 0.12280 0.42830 -0.28700
C 	C 	0.26850 0.16620 0.50050 0.33700
C 	C 	0.33580 0.30980 0.33350 0.33600
C 	C 	0.46450 0.30940 0.30180 -0.32000
C 	C 	0.57700 0.38020 0.31780 0.20600
C 	C 	0.55670 0.45320 0.36620 -0.21900
C 	C 	0.43300 0.45360 0.39870 0.20900
C 	C 	0.31780 0.38140 0.38430 -0.31900
C 	C 	0.67580 0.53020 0.37850 0.34200
C 	C 	0.15430 0.14620 0.80720 0.05800
C 	C 	0.11410 0.22680 0.85020 -0.00300
C 	C 	0.01370 0.07240 0.78300 -0.05500
C 	C 	0.24230 0.16140 0.74380 -0.01300
C 	C 	0.25410 0.13340 0.85590 -0.03500
C 	C 	0.45780 0.11760 0.69240 0.28400
C 	C 	0.47650 0.17960 0.66900 -0.23500
C 	C 	0.61770 0.19540 0.63390 0.10700
C 	C 	0.71010 0.14500 0.62920 -0.18400
C 	C 	0.66450 0.08600 0.65650 0.17800
C 	C 	0.54600 0.07000 0.68950 -0.31200
C 	C 	0.84710 0.15260 0.59620 0.34900
C 	C 	0.50840 0.19000 0.91200 0.30300
C 	C 	0.64090 0.25160 0.93060 -0.26800
C 	C 	0.76840 0.24500 0.95980 0.15400
C 	C 	0.76180 0.17480 0.97370 -0.19200
C 	C 	0.63000 0.11800 0.95850 0.17900
C 	C 	0.50240 0.12280 0.92830 -0.28600
C 	C 	0.89770 0.16620 0.00050 0.33600
C 	C 	0.97400 0.30980 0.83350 0.33600
C 	C 	0.84490 0.30940 0.80180 -0.31900
C 	C 	0.80320 0.38020 0.81780 0.20500
C 	C 	0.89650 0.45320 0.86620 -0.21700
C 	C 	0.02060 0.45360 0.89870 0.20700
C 	C 	0.06360 0.38140 0.88430 -0.31800
C 	C 	0.85440 0.53020 0.87850 0.34200
C 	C 	0.00810 0.85380 0.69280 0.05200
C 	C 	0.88730 0.77320 0.64980 0.00200
C 	C 	0.94130 0.92760 0.71700 -0.05900
C 	C 	0.08090 0.83860 0.75620 -0.01000
C 	C 	0.12070 0.86660 0.64410 -0.02900
C 	C 	0.34020 0.88240 0.80760 0.28200
C 	C 	0.29690 0.82040 0.83100 -0.23500
C 	C 	0.42230 0.80460 0.86610 0.10700
C 	C 	0.56510 0.85500 0.87080 -0.18500
C 	C 	0.57850 0.91400 0.84350 0.17600
C 	C 	0.47600 0.93000 0.81050 -0.31300
C 	C 	0.69450 0.84740 0.90380 0.35000
C 	C 	0.31840 0.81000 0.58800 0.30500
C 	C 	0.38930 0.74840 0.56940 -0.27100
C 	C 	0.52340 0.75500 0.54020 0.15700
C 	C 	0.58700 0.82520 0.52630 -0.19700
C 	C 	0.51200 0.88200 0.54150 0.18100
C 	C 	0.37960 0.87720 0.57170 -0.29000
C 	C 	0.73150 0.83380 0.49950 0.33900
C 	C 	0.66420 0.69020 0.66650 0.33700
C 	C 	0.53550 0.69060 0.69820 -0.32100
C 	C 	0.42300 0.61980 0.68220 0.20700
C 	C 	0.44330 0.54680 0.63380 -0.21900
C 	C 	0.56700 0.54640 0.60130 0.20900
C 	C 	0.68220 0.61860 0.61570 -0.31900
C 	C 	0.32420 0.46980 0.62150 0.34300
O 	O 	0.99470 0.76520 0.18990 -0.25200
O 	O 	0.67530 0.89860 0.27510 -0.21500
O 	O 	0.60681 0.80062 0.12090 -0.23300
O 	O 	0.26340 0.47060 0.15050 -0.21800
O 	O 	0.05660 0.40040 0.07980 -0.21300
O 	O 	0.11260 0.90040 0.99290 -0.20900
O 	O 	0.98310 0.77940 0.98170 -0.20800
O 	O 	0.10170 0.78700 0.41830 -0.21200
O 	O 	0.08660 0.90040 0.41530 -0.21900
O 	O 	0.22950 0.23480 0.31010 -0.25300
O 	O 	0.77670 0.10140 0.22490 -0.21100
O 	O 	0.80619 0.19938 0.37910 -0.23100
O 	O 	0.79280 0.52940 0.34950 -0.21800
O 	O 	0.65620 0.59960 0.42020 -0.21200
O 	O 	0.21220 0.09960 0.50710 -0.20300
O 	O 	0.20370 0.22060 0.51830 -0.21000
O 	O 	0.31470 0.21300 0.08170 -0.21100
O 	O 	0.18620 0.09960 0.08470 -0.21300
O 	O 	0.00530 0.23480 0.81010 -0.25300
O 	O 	0.32470 0.10140 0.72490 -0.21100
O 	O 	0.39319 0.19938 0.87910 -0.23100
O 	O 	0.73660 0.52940 0.84950 -0.21700
O 	O 	0.94340 0.59960 0.92020 -0.21100
O 	O 	0.88740 0.09960 0.00710 -0.20400
O 	O 	0.01690 0.22060 0.01830 -0.20900
O 	O 	0.89830 0.21300 0.58170 -0.21100
O 	O 	0.91340 0.09960 0.58470 -0.21300
O 	O 	0.77050 0.76520 0.68990 -0.25400
O 	O 	0.22330 0.89860 0.77510 -0.21600
O 	O 	0.19381 0.80062 0.62090 -0.23300
O 	O 	0.20720 0.47060 0.65050 -0.21800
O 	O 	0.34380 0.40040 0.57980 -0.21200
O 	O 	0.78780 0.90040 0.49290 -0.20800
O 	O 	0.79630 0.77940 0.48170 -0.21000
O 	O 	0.68530 0.78700 0.91830 -0.21100
O 	O 	0.81380 0.90040 0.91530 -0.21700
O 	O 	0.94180 0.00000 0.25000 -0.13300
O 	O 	0.05820 0.00000 0.75000 -0.13100
