data_crystal

_cell_length_a 9.88700
_cell_length_b 9.88700
_cell_length_c 37.03000
_cell_angle_alpha 90.00000
_cell_angle_beta  90.00000
_cell_angle_gamma 120.00000

_symmetry_space_group_name_	'P 1'
_symmetry_space_group_name_H-M	'P 1'

loop_
_symmetry_equiv_pos_as_xyz
  x,y,z

loop_
_atom_site_label
_atom_site_type_symbol
_atom_site_fract_x
_atom_site_fract_y
_atom_site_fract_z
_atom_site_charge
O 	O 	0.64210 0.10360 0.41951 -0.26700
C 	C 	0.53930 0.98250 0.40668 0.29300
O 	O 	0.49800 0.65020 0.36007 -0.31200
O 	O 	0.62240 0.51320 0.35777 -0.20600
O 	O 	0.49030 0.84450 0.41939 -0.31600
C 	C 	0.53010 0.54670 0.37131 0.22900
O 	O 	0.89640 0.53850 0.41951 -0.12500
C 	C 	0.01750 0.55680 0.40668 0.12700
O 	O 	0.34980 0.84780 0.36007 -0.33300
O 	O 	0.48680 0.10920 0.35777 -0.28100
O 	O 	0.15550 0.64580 0.41939 -0.30500
C 	C 	0.45330 0.98340 0.37131 0.29600
O 	O 	0.46150 0.35790 0.41951 -0.24000
C 	C 	0.44320 0.46070 0.40668 0.23700
O 	O 	0.15220 0.50200 0.36007 -0.31600
O 	O 	0.89080 0.37760 0.35777 -0.12500
O 	O 	0.35420 0.50970 0.41939 -0.32600
C 	C 	0.01660 0.46990 0.37131 0.12900
Fe	Fe	0.33333 0.66667 0.38855 1.24300
Na	Na	0.66667 0.33333 0.39180 0.60100
O 	O 	0.30877 0.43693 0.75284 -0.22900
C 	C 	0.20597 0.31583 0.74001 0.22500
O 	O 	0.16467 0.98353 0.69340 -0.29600
O 	O 	0.28907 0.84653 0.69110 -0.21000
O 	O 	0.15697 0.17783 0.75272 -0.34900
C 	C 	0.19677 0.88003 0.70464 0.22300
O 	O 	0.56307 0.87183 0.75284 -0.20400
C 	C 	0.68417 0.89013 0.74001 0.23600
O 	O 	0.01647 0.18113 0.69340 -0.38400
O 	O 	0.15347 0.44253 0.69110 -0.24500
O 	O 	0.82217 0.97913 0.75272 -0.23200
C 	C 	0.11997 0.31673 0.70464 0.23300
O 	O 	0.12817 0.69123 0.75284 -0.24600
C 	C 	0.10987 0.79403 0.74001 0.23900
O 	O 	0.81887 0.83533 0.69340 -0.25700
O 	O 	0.55747 0.71093 0.69110 -0.21400
O 	O 	0.02087 0.84303 0.75272 -0.33300
C 	C 	0.68327 0.80323 0.70464 0.24100
Fe	Fe	-0.00000 -0.00000 0.72188 1.16600
Na	Na	0.33333 0.66667 0.72513 0.60000
O 	O 	0.97543 0.77027 0.08618 -0.15700
C 	C 	0.87263 0.64917 0.07335 0.23400
O 	O 	0.83133 0.31687 0.02674 -0.30500
O 	O 	0.95573 0.17987 0.02444 -0.18600
O 	O 	0.82363 0.51117 0.08606 -0.29400
C 	C 	0.86343 0.21337 0.03798 0.22800
O 	O 	0.22973 0.20517 0.08618 -0.26400
C 	C 	0.35083 0.22347 0.07335 0.22600
O 	O 	0.68313 0.51447 0.02674 -0.31900
O 	O 	0.82013 0.77587 0.02444 -0.18000
O 	O 	0.48883 0.31247 0.08606 -0.31800
C 	C 	0.78663 0.65007 0.03798 0.24200
O 	O 	0.79483 0.02457 0.08618 -0.23200
C 	C 	0.77653 0.12737 0.07335 0.24200
O 	O 	0.48553 0.16867 0.02674 -0.33700
O 	O 	0.22413 0.04427 0.02444 -0.27800
O 	O 	0.68753 0.17637 0.08606 -0.32200
C 	C 	0.34993 0.13657 0.03798 0.23100
Fe	Fe	0.66667 0.33333 0.05522 1.24400
Na	Na	-0.00000 -0.00000 0.05847 0.57600
O 	O 	0.89640 0.35790 0.91951 -0.13400
C 	C 	0.01750 0.46070 0.90668 0.12700
O 	O 	0.34980 0.50200 0.86007 -0.33200
O 	O 	0.48680 0.37760 0.85777 -0.22900
O 	O 	0.15550 0.50970 0.91939 -0.31200
C 	C 	0.45330 0.46990 0.87131 0.23600
O 	O 	0.46150 0.10360 0.91951 -0.28900
C 	C 	0.44320 0.98250 0.90668 0.29900
O 	O 	0.15220 0.65020 0.86007 -0.30800
O 	O 	0.89080 0.51320 0.85777 -0.11800
O 	O 	0.35420 0.84450 0.91939 -0.32700
C 	C 	0.01660 0.54670 0.87131 0.12900
O 	O 	0.64210 0.53850 0.91951 -0.20900
C 	C 	0.53930 0.55680 0.90668 0.23000
O 	O 	0.49800 0.84780 0.86007 -0.32000
O 	O 	0.62240 0.10920 0.85777 -0.26500
O 	O 	0.49030 0.64580 0.91939 -0.30800
C 	C 	0.53010 0.98340 0.87131 0.28900
Fe	Fe	0.33333 0.66667 0.88855 1.24300
Na	Na	0.66667 0.33333 0.89180 0.60100
O 	O 	0.56307 0.69123 0.25284 -0.21700
C 	C 	0.68417 0.79403 0.24001 0.24000
O 	O 	0.01647 0.83533 0.19340 -0.34500
O 	O 	0.15347 0.71093 0.19110 -0.24000
O 	O 	0.82217 0.84303 0.25272 -0.24600
C 	C 	0.11997 0.80323 0.20464 0.24000
O 	O 	0.12817 0.43693 0.25284 -0.25100
C 	C 	0.10987 0.31583 0.24001 0.23200
O 	O 	0.81887 0.98353 0.19340 -0.23900
O 	O 	0.55747 0.84653 0.19110 -0.20300
O 	O 	0.02087 0.17783 0.25272 -0.37400
C 	C 	0.68327 0.88003 0.20464 0.23500
O 	O 	0.30877 0.87183 0.25284 -0.21100
C 	C 	0.20597 0.89013 0.24001 0.22600
O 	O 	0.16467 0.18113 0.19340 -0.35300
O 	O 	0.28907 0.44253 0.19110 -0.22600
O 	O 	0.15697 0.97913 0.25272 -0.29200
C 	C 	0.19677 0.31673 0.20464 0.22200
Fe	Fe	-0.00000 -0.00000 0.22188 1.16600
Na	Na	0.33333 0.66667 0.22513 0.60000
O 	O 	0.22973 0.02457 0.58618 -0.28200
C 	C 	0.35083 0.12737 0.57335 0.23100
O 	O 	0.68313 0.16867 0.52674 -0.33100
O 	O 	0.82013 0.04427 0.52444 -0.22100
O 	O 	0.48883 0.17637 0.58606 -0.32800
C 	C 	0.78663 0.13657 0.53798 0.24100
O 	O 	0.79483 0.77027 0.58618 -0.18800
C 	C 	0.77653 0.64917 0.57335 0.24300
O 	O 	0.48553 0.31687 0.52674 -0.32700
O 	O 	0.22413 0.17987 0.52444 -0.26600
O 	O 	0.68753 0.51117 0.58606 -0.31000
C 	C 	0.34993 0.21337 0.53798 0.22700
O 	O 	0.97543 0.20517 0.58618 -0.18100
C 	C 	0.87263 0.22347 0.57335 0.22800
O 	O 	0.83133 0.51447 0.52674 -0.30200
O 	O 	0.95573 0.77587 0.52444 -0.15700
O 	O 	0.82363 0.31247 0.58606 -0.29600
C 	C 	0.86343 0.65007 0.53798 0.23400
Fe	Fe	0.66667 0.33333 0.55522 1.24400
Na	Na	0.00000 0.00000 0.55847 0.57600
