data_crystal

_cell_length_a 10.08000
_cell_length_b 13.06300
_cell_length_c 17.81500
_cell_angle_alpha 79.02900
_cell_angle_beta  86.32500
_cell_angle_gamma 78.21100

_symmetry_space_group_name_	'P 1'
_symmetry_space_group_name_H-M	'P 1'

loop_
_symmetry_equiv_pos_as_xyz
  x,y,z

loop_
_atom_site_label
_atom_site_type_symbol
_atom_site_fract_x
_atom_site_fract_y
_atom_site_fract_z
_atom_site_charge
Cd	Cd	0.95709 0.90344 0.80099 1.21500
Cd	Cd	0.04291 0.09656 0.19901 1.21500
H 	H 	0.59320 0.18760 0.69620 0.03100
H 	H 	0.47080 0.91770 0.78960 0.04100
H 	H 	0.19670 0.17710 0.70480 0.03500
H 	H 	0.21310 0.73550 0.72320 0.02900
H 	H 	0.18620 0.57860 0.67150 0.05200
H 	H 	0.82900 0.71890 0.74340 -0.00000
H 	H 	0.82430 0.58150 0.65950 0.07700
H 	H 	0.96420 0.52750 0.62750 0.08000
H 	H 	0.07260 0.45080 0.79600 0.07600
H 	H 	0.06060 0.29610 0.88200 0.06600
H 	H 	0.73930 0.26180 0.77210 0.06600
H 	H 	0.75640 0.41470 0.68450 0.05800
H 	H 	0.89180 0.10700 0.86610 0.05700
H 	H 	0.78480 0.17630 0.91300 0.07100
H 	H 	0.15380 0.09940 0.90990 0.04000
H 	H 	0.23770 0.07000 0.03770 0.01900
H 	H 	0.84950 0.16870 0.04850 -0.00300
H 	H 	0.40680 0.81240 0.30380 0.03100
H 	H 	0.52920 0.08230 0.21040 0.04100
H 	H 	0.80330 0.82290 0.29520 0.03500
H 	H 	0.78690 0.26450 0.27680 0.02900
H 	H 	0.81380 0.42140 0.32850 0.05200
H 	H 	0.17100 0.28110 0.25660 -0.00000
H 	H 	0.17570 0.41850 0.34050 0.07700
H 	H 	0.03580 0.47250 0.37250 0.08000
H 	H 	0.92740 0.54920 0.20400 0.07600
H 	H 	0.93940 0.70390 0.11800 0.06600
H 	H 	0.26070 0.73820 0.22790 0.06600
H 	H 	0.24360 0.58530 0.31550 0.05800
H 	H 	0.10820 0.89300 0.13390 0.05700
H 	H 	0.21520 0.82370 0.08700 0.07100
H 	H 	0.84620 0.90060 0.09010 0.04000
H 	H 	0.76230 0.93000 0.96230 0.01900
H 	H 	0.15050 0.83130 0.95150 -0.00300
C 	C 	0.38710 0.19870 0.69581 -0.12500
C 	C 	0.52380 0.15020 0.71080 0.05500
C 	C 	0.55120 0.04510 0.74801 -0.10900
C 	C 	0.69450 0.98990 0.76817 0.32000
C 	C 	0.44890 0.98890 0.76658 0.04300
C 	C 	0.31220 0.03540 0.75197 -0.12300
C 	C 	0.20460 0.97550 0.77211 0.33700
C 	C 	0.28570 0.14320 0.71556 0.06300
C 	C 	0.13220 0.71240 0.72134 0.00200
C 	C 	0.11830 0.62600 0.69187 -0.01300
C 	C 	0.92150 0.70360 0.73210 0.08300
C 	C 	0.91650 0.54734 0.67321 -0.12900
C 	C 	0.91570 0.44754 0.73178 0.07300
C 	C 	0.00610 0.41258 0.79128 -0.06700
C 	C 	0.99710 0.32060 0.84370 -0.06500
C 	C 	0.89600 0.26500 0.84010 0.06600
C 	C 	0.80530 0.30010 0.77740 -0.06600
C 	C 	0.81610 0.39140 0.72470 -0.07000
C 	C 	0.87730 0.16660 0.89290 -0.11500
C 	C 	0.10180 0.10980 0.95379 -0.00300
C 	C 	0.14760 0.09490 0.02437 0.00500
C 	C 	0.93750 0.14800 0.03011 0.09100
C 	C 	0.61290 0.80130 0.30419 -0.12500
C 	C 	0.47620 0.84980 0.28920 0.05500
C 	C 	0.44880 0.95490 0.25199 -0.10900
C 	C 	0.30550 0.01010 0.23183 0.32000
C 	C 	0.55110 0.01110 0.23342 0.04300
C 	C 	0.68780 0.96460 0.24803 -0.12300
C 	C 	0.79540 0.02450 0.22789 0.33700
C 	C 	0.71430 0.85680 0.28444 0.06300
C 	C 	0.86780 0.28760 0.27866 0.00200
C 	C 	0.88170 0.37400 0.30813 -0.01300
C 	C 	0.07850 0.29640 0.26790 0.08300
C 	C 	0.08350 0.45266 0.32679 -0.12900
C 	C 	0.08430 0.55246 0.26822 0.07300
C 	C 	0.99390 0.58742 0.20872 -0.06700
C 	C 	0.00290 0.67940 0.15630 -0.06500
C 	C 	0.10400 0.73500 0.15990 0.06600
C 	C 	0.19470 0.69990 0.22260 -0.06600
C 	C 	0.18390 0.60860 0.27530 -0.07000
C 	C 	0.12270 0.83340 0.10710 -0.11500
C 	C 	0.89820 0.89020 0.04621 -0.00300
C 	C 	0.85240 0.90510 0.97563 0.00500
C 	C 	0.06250 0.85200 0.96989 0.09100
S 	S 	0.34497 0.33415 0.65077 0.57700
S 	S 	0.65503 0.66585 0.34923 0.57700
N 	N 	0.00650 0.76020 0.74817 -0.24300
N 	N 	0.97850 0.62448 0.69898 -0.10500
N 	N 	0.96820 0.14240 0.95775 -0.10900
N 	N 	0.04480 0.12110 0.07355 -0.25100
N 	N 	0.99350 0.23980 0.25183 -0.24300
N 	N 	0.02150 0.37552 0.30102 -0.10500
N 	N 	0.03180 0.85760 0.04225 -0.10900
N 	N 	0.95520 0.87890 0.92645 -0.25100
O 	O 	0.45790 0.35669 0.60061 -0.41200
O 	O 	0.32510 0.39309 0.70982 -0.30000
O 	O 	0.22770 0.34037 0.60888 -0.30600
O 	O 	0.78730 0.04222 0.75257 -0.39200
O 	O 	0.71850 0.89547 0.79658 -0.38600
O 	O 	0.23130 0.88182 0.80544 -0.34400
O 	O 	0.08420 0.02237 0.75746 -0.41500
O 	O 	0.54210 0.64331 0.39939 -0.41200
O 	O 	0.67490 0.60691 0.29018 -0.30000
O 	O 	0.77230 0.65963 0.39112 -0.30600
O 	O 	0.21270 0.95778 0.24743 -0.39200
O 	O 	0.28150 0.10453 0.20342 -0.38600
O 	O 	0.76870 0.11818 0.19456 -0.34400
O 	O 	0.91580 0.97763 0.24254 -0.41500
Cd	Cd	0.50000 0.50000 0.50000 1.21200
H 	H 	0.85140 0.49950 0.48020 0.02700
H 	H 	0.03320 0.35100 0.53500 0.05900
H 	H 	0.68280 0.25730 0.55950 0.01100
H 	H 	0.03030 0.16650 0.61590 0.09300
H 	H 	0.88940 0.13620 0.64050 0.09600
H 	H 	0.02670 0.95520 0.62900 0.03100
H 	H 	0.92620 0.17410 0.44590 0.07000
H 	H 	0.63140 0.70730 0.51420 0.01400
H 	H 	0.52350 0.69740 0.73220 0.04500
H 	H 	0.46540 0.54270 0.68690 0.03300
H 	H 	0.73780 0.82700 0.60450 0.07500
H 	H 	0.62830 0.86120 0.66650 0.08400
H 	H 	0.37670 0.90950 0.59140 0.06200
H 	H 	0.73150 0.96410 0.50180 0.06000
H 	H 	0.14860 0.50050 0.51980 0.02700
H 	H 	0.96680 0.64900 0.46500 0.05900
H 	H 	0.31720 0.74270 0.44050 0.01100
H 	H 	0.96970 0.83350 0.38410 0.09300
H 	H 	0.11060 0.86380 0.35950 0.09600
H 	H 	0.97330 0.04480 0.37100 0.03100
H 	H 	0.07380 0.82590 0.55410 0.07000
H 	H 	0.36860 0.29270 0.48580 0.01400
H 	H 	0.47650 0.30260 0.26780 0.04500
H 	H 	0.53460 0.45730 0.31310 0.03300
H 	H 	0.26220 0.17300 0.39550 0.07500
H 	H 	0.37170 0.13880 0.33350 0.08400
H 	H 	0.62330 0.09050 0.40860 0.06200
H 	H 	0.26850 0.03590 0.49820 0.06000
C 	C 	0.83900 0.43180 0.50298 0.01800
C 	C 	0.94150 0.34990 0.53316 -0.02400
C 	C 	0.74780 0.29940 0.54620 0.07800
C 	C 	0.94460 0.16090 0.59683 -0.14500
C 	C 	0.97130 0.07860 0.54489 0.07200
C 	C 	0.01550 0.97430 0.57644 -0.06600
C 	C 	0.95620 0.10350 0.46869 -0.08700
C 	C 	0.59640 0.68540 0.56289 0.07100
C 	C 	0.53790 0.68190 0.68312 -0.01100
C 	C 	0.50600 0.59520 0.65733 0.00800
C 	C 	0.64160 0.83820 0.61742 -0.14200
C 	C 	0.56740 0.92130 0.55849 0.07200
C 	C 	0.42770 0.94550 0.55403 -0.06400
C 	C 	0.63730 0.97780 0.50127 -0.07500
C 	C 	0.16100 0.56820 0.49702 0.01800
C 	C 	0.05850 0.65010 0.46684 -0.02400
C 	C 	0.25220 0.70060 0.45380 0.07800
C 	C 	0.05540 0.83910 0.40317 -0.14500
C 	C 	0.02870 0.92140 0.45511 0.07200
C 	C 	0.98450 0.02570 0.42356 -0.06600
C 	C 	0.04380 0.89650 0.53131 -0.08700
C 	C 	0.40360 0.31460 0.43711 0.07100
C 	C 	0.46210 0.31810 0.31688 -0.01100
C 	C 	0.49400 0.40480 0.34267 0.00800
C 	C 	0.35840 0.16180 0.38258 -0.14200
C 	C 	0.43260 0.07870 0.44151 0.07200
C 	C 	0.57230 0.05450 0.44597 -0.06400
C 	C 	0.36270 0.02220 0.49873 -0.07500
N 	N 	0.71950 0.40120 0.51075 -0.22300
N 	N 	0.87710 0.26561 0.56004 -0.09600
N 	N 	0.54330 0.59990 0.58351 -0.22900
N 	N 	0.59330 0.73760 0.62285 -0.10000
N 	N 	0.28050 0.59880 0.48925 -0.22300
N 	N 	0.12290 0.73439 0.43996 -0.09600
N 	N 	0.45670 0.40010 0.41649 -0.22900
N 	N 	0.40670 0.26240 0.37715 -0.10000
