data_crystal

_cell_length_a 17.08600
_cell_length_b 17.08600
_cell_length_c 17.08600
_cell_angle_alpha 90.00000
_cell_angle_beta  90.00000
_cell_angle_gamma 90.00000

_symmetry_space_group_name_	'P 1'
_symmetry_space_group_name_H-M	'P 1'

loop_
_symmetry_equiv_pos_as_xyz
  x,y,z

loop_
_atom_site_label
_atom_site_type_symbol
_atom_site_fract_x
_atom_site_fract_y
_atom_site_fract_z
_atom_site_charge
N 	N 	0.03006 0.68289 0.40946 -0.40100
C 	C 	0.09908 0.68870 0.36782 -0.03100
H 	H 	0.13960 0.72560 0.37690 -0.00600
H 	H 	0.91040 0.60320 0.46300 0.22000
N 	N 	0.53006 0.18289 0.90946 -0.29000
C 	C 	0.59908 0.18870 0.86782 -0.01200
H 	H 	0.63960 0.22560 0.87690 0.00500
H 	H 	0.41040 0.10320 0.96300 0.17100
N 	N 	0.96994 0.31711 0.40946 -0.21700
C 	C 	0.90092 0.31130 0.36782 -0.01400
H 	H 	0.86040 0.27440 0.37690 -0.00500
H 	H 	0.08960 0.39680 0.46300 0.08800
N 	N 	0.46994 0.81711 0.90946 -0.29700
C 	C 	0.40092 0.81130 0.86782 -0.00700
H 	H 	0.36040 0.77440 0.87690 0.00800
H 	H 	0.58960 0.89680 0.96300 0.24700
N 	N 	0.96994 0.68289 0.59054 -0.21500
C 	C 	0.90092 0.68870 0.63218 -0.00800
H 	H 	0.86040 0.72560 0.62310 -0.00100
H 	H 	0.08960 0.60320 0.53700 0.08900
N 	N 	0.46994 0.18289 0.09054 -0.32100
C 	C 	0.40092 0.18870 0.13218 -0.03500
H 	H 	0.36040 0.22560 0.12310 -0.02000
H 	H 	0.58960 0.10320 0.03700 0.07200
N 	N 	0.03006 0.31711 0.59054 -0.40000
C 	C 	0.09908 0.31130 0.63218 -0.03000
H 	H 	0.13960 0.27440 0.62310 -0.00500
H 	H 	0.91040 0.39680 0.53700 0.22100
N 	N 	0.53006 0.81711 0.09054 -0.32600
C 	C 	0.59908 0.81130 0.13218 -0.02700
H 	H 	0.63960 0.77440 0.12310 -0.00800
H 	H 	0.41040 0.89680 0.03700 0.13100
N 	N 	0.40946 0.03006 0.68289 -0.40000
C 	C 	0.36782 0.09908 0.68870 -0.03000
H 	H 	0.37690 0.13960 0.72560 -0.00500
H 	H 	0.46300 0.91040 0.60320 0.22100
N 	N 	0.90946 0.53006 0.18289 -0.28900
C 	C 	0.86782 0.59908 0.18870 -0.01100
H 	H 	0.87690 0.63960 0.22560 0.00600
H 	H 	0.96300 0.41040 0.10320 0.17200
N 	N 	0.40946 0.96994 0.31711 -0.21600
C 	C 	0.36782 0.90092 0.31130 -0.01300
H 	H 	0.37690 0.86040 0.27440 -0.00400
H 	H 	0.46300 0.08960 0.39680 0.08900
N 	N 	0.90946 0.46994 0.81711 -0.29700
C 	C 	0.86782 0.40092 0.81130 -0.00700
H 	H 	0.87690 0.36040 0.77440 0.00800
H 	H 	0.96300 0.58960 0.89680 0.24700
N 	N 	0.59054 0.96994 0.68289 -0.21500
C 	C 	0.63218 0.90092 0.68870 -0.00800
H 	H 	0.62310 0.86040 0.72560 -0.00100
H 	H 	0.53700 0.08960 0.60320 0.08900
N 	N 	0.09054 0.46994 0.18289 -0.32100
C 	C 	0.13218 0.40092 0.18870 -0.03500
H 	H 	0.12310 0.36040 0.22560 -0.02000
H 	H 	0.03700 0.58960 0.10320 0.07200
N 	N 	0.59054 0.03006 0.31711 -0.40000
C 	C 	0.63218 0.09908 0.31130 -0.03000
H 	H 	0.62310 0.13960 0.27440 -0.00500
H 	H 	0.53700 0.91040 0.39680 0.22100
N 	N 	0.09054 0.53006 0.81711 -0.32600
C 	C 	0.13218 0.59908 0.81130 -0.02700
H 	H 	0.12310 0.63960 0.77440 -0.00800
H 	H 	0.03700 0.41040 0.89680 0.13100
N 	N 	0.68289 0.40946 0.03006 -0.40000
C 	C 	0.68870 0.36782 0.09908 -0.03000
H 	H 	0.72560 0.37690 0.13960 -0.00500
H 	H 	0.60320 0.46300 0.91040 0.22100
N 	N 	0.18289 0.90946 0.53006 -0.28900
C 	C 	0.18870 0.86782 0.59908 -0.01100
H 	H 	0.22560 0.87690 0.63960 0.00600
H 	H 	0.10320 0.96300 0.41040 0.17200
N 	N 	0.31711 0.40946 0.96994 -0.21600
C 	C 	0.31130 0.36782 0.90092 -0.01300
H 	H 	0.27440 0.37690 0.86040 -0.00400
H 	H 	0.39680 0.46300 0.08960 0.08900
N 	N 	0.81711 0.90946 0.46994 -0.29700
C 	C 	0.81130 0.86782 0.40092 -0.00700
H 	H 	0.77440 0.87690 0.36040 0.00800
H 	H 	0.89680 0.96300 0.58960 0.24700
N 	N 	0.68289 0.59054 0.96994 -0.21500
C 	C 	0.68870 0.63218 0.90092 -0.00800
H 	H 	0.72560 0.62310 0.86040 -0.00100
H 	H 	0.60320 0.53700 0.08960 0.08900
N 	N 	0.18289 0.09054 0.46994 -0.32100
C 	C 	0.18870 0.13218 0.40092 -0.03500
H 	H 	0.22560 0.12310 0.36040 -0.02000
H 	H 	0.10320 0.03700 0.58960 0.07200
N 	N 	0.31711 0.59054 0.03006 -0.40000
C 	C 	0.31130 0.63218 0.09908 -0.03000
H 	H 	0.27440 0.62310 0.13960 -0.00500
H 	H 	0.39680 0.53700 0.91040 0.22100
N 	N 	0.81711 0.09054 0.53006 -0.32600
C 	C 	0.81130 0.13218 0.59908 -0.02700
H 	H 	0.77440 0.12310 0.63960 -0.00800
H 	H 	0.89680 0.03700 0.41040 0.13100
N 	N 	0.68289 0.03006 0.40946 -0.40000
C 	C 	0.68870 0.09908 0.36782 -0.03000
H 	H 	0.72560 0.13960 0.37690 -0.00500
H 	H 	0.60320 0.91040 0.46300 0.22100
N 	N 	0.18289 0.53006 0.90946 -0.28900
C 	C 	0.18870 0.59908 0.86782 -0.01100
H 	H 	0.22560 0.63960 0.87690 0.00600
H 	H 	0.10320 0.41040 0.96300 0.17200
N 	N 	0.31711 0.96994 0.40946 -0.21600
C 	C 	0.31130 0.90092 0.36782 -0.01300
H 	H 	0.27440 0.86040 0.37690 -0.00400
H 	H 	0.39680 0.08960 0.46300 0.08900
N 	N 	0.81711 0.46994 0.90946 -0.29700
C 	C 	0.81130 0.40092 0.86782 -0.00700
H 	H 	0.77440 0.36040 0.87690 0.00800
H 	H 	0.89680 0.58960 0.96300 0.24700
N 	N 	0.68289 0.96994 0.59054 -0.21500
C 	C 	0.68870 0.90092 0.63218 -0.00800
H 	H 	0.72560 0.86040 0.62310 -0.00100
H 	H 	0.60320 0.08960 0.53700 0.08900
N 	N 	0.18289 0.46994 0.09054 -0.32100
C 	C 	0.18870 0.40092 0.13218 -0.03500
H 	H 	0.22560 0.36040 0.12310 -0.02000
H 	H 	0.10320 0.58960 0.03700 0.07200
N 	N 	0.31711 0.03006 0.59054 -0.40000
C 	C 	0.31130 0.09908 0.63218 -0.03000
H 	H 	0.27440 0.13960 0.62310 -0.00500
H 	H 	0.39680 0.91040 0.53700 0.22100
N 	N 	0.81711 0.53006 0.09054 -0.32600
C 	C 	0.81130 0.59908 0.13218 -0.02700
H 	H 	0.77440 0.63960 0.12310 -0.00800
H 	H 	0.89680 0.41040 0.03700 0.13100
N 	N 	0.03006 0.40946 0.68289 -0.40000
C 	C 	0.09908 0.36782 0.68870 -0.03000
H 	H 	0.13960 0.37690 0.72560 -0.00500
H 	H 	0.91040 0.46300 0.60320 0.22100
N 	N 	0.53006 0.90946 0.18289 -0.28900
C 	C 	0.59908 0.86782 0.18870 -0.01100
H 	H 	0.63960 0.87690 0.22560 0.00600
H 	H 	0.41040 0.96300 0.10320 0.17200
N 	N 	0.96994 0.40946 0.31711 -0.21600
C 	C 	0.90092 0.36782 0.31130 -0.01300
H 	H 	0.86040 0.37690 0.27440 -0.00400
H 	H 	0.08960 0.46300 0.39680 0.08900
N 	N 	0.46994 0.90946 0.81711 -0.29700
C 	C 	0.40092 0.86782 0.81130 -0.00700
H 	H 	0.36040 0.87690 0.77440 0.00800
H 	H 	0.58960 0.96300 0.89680 0.24700
N 	N 	0.96994 0.59054 0.68289 -0.21500
C 	C 	0.90092 0.63218 0.68870 -0.00800
H 	H 	0.86040 0.62310 0.72560 -0.00100
H 	H 	0.08960 0.53700 0.60320 0.08900
N 	N 	0.46994 0.09054 0.18289 -0.32100
C 	C 	0.40092 0.13218 0.18870 -0.03500
H 	H 	0.36040 0.12310 0.22560 -0.02000
H 	H 	0.58960 0.03700 0.10320 0.07200
N 	N 	0.03006 0.59054 0.31711 -0.40000
C 	C 	0.09908 0.63218 0.31130 -0.03000
H 	H 	0.13960 0.62310 0.27440 -0.00500
H 	H 	0.91040 0.53700 0.39680 0.22100
N 	N 	0.53006 0.09054 0.81711 -0.32600
C 	C 	0.59908 0.13218 0.81130 -0.02700
H 	H 	0.63960 0.12310 0.77440 -0.00800
H 	H 	0.41040 0.03700 0.89680 0.13100
N 	N 	0.40946 0.68289 0.03006 -0.40000
C 	C 	0.36782 0.68870 0.09908 -0.03000
H 	H 	0.37690 0.72560 0.13960 -0.00500
H 	H 	0.46300 0.60320 0.91040 0.22100
N 	N 	0.90946 0.18289 0.53006 -0.28900
C 	C 	0.86782 0.18870 0.59908 -0.01100
H 	H 	0.87690 0.22560 0.63960 0.00600
H 	H 	0.96300 0.10320 0.41040 0.17200
N 	N 	0.40946 0.31711 0.96994 -0.21600
C 	C 	0.36782 0.31130 0.90092 -0.01300
H 	H 	0.37690 0.27440 0.86040 -0.00400
H 	H 	0.46300 0.39680 0.08960 0.08900
N 	N 	0.90946 0.81711 0.46994 -0.29700
C 	C 	0.86782 0.81130 0.40092 -0.00700
H 	H 	0.87690 0.77440 0.36040 0.00800
H 	H 	0.96300 0.89680 0.58960 0.24700
N 	N 	0.59054 0.68289 0.96994 -0.21500
C 	C 	0.63218 0.68870 0.90092 -0.00800
H 	H 	0.62310 0.72560 0.86040 -0.00100
H 	H 	0.53700 0.60320 0.08960 0.08900
N 	N 	0.09054 0.18289 0.46994 -0.32100
C 	C 	0.13218 0.18870 0.40092 -0.03500
H 	H 	0.12310 0.22560 0.36040 -0.02000
H 	H 	0.03700 0.10320 0.58960 0.07200
N 	N 	0.59054 0.31711 0.03006 -0.40000
C 	C 	0.63218 0.31130 0.09908 -0.03000
H 	H 	0.62310 0.27440 0.13960 -0.00500
H 	H 	0.53700 0.39680 0.91040 0.22100
N 	N 	0.09054 0.81711 0.53006 -0.32600
C 	C 	0.13218 0.81130 0.59908 -0.02700
H 	H 	0.12310 0.77440 0.63960 -0.00800
H 	H 	0.03700 0.89680 0.41040 0.13100
Zn	Zn	0.00000 0.75000 0.50000 1.13800
Zn	Zn	0.00000 0.25000 0.50000 1.13700
Zn	Zn	0.50000 0.00000 0.75000 1.13800
Zn	Zn	0.50000 0.00000 0.25000 1.13700
Zn	Zn	0.75000 0.50000 -0.00000 1.13800
Zn	Zn	0.25000 0.50000 -0.00000 1.13700
Zn	Zn	0.75000 0.00000 0.50000 1.13800
Zn	Zn	0.25000 0.00000 0.50000 1.13700
Zn	Zn	0.00000 0.50000 0.75000 1.13800
Zn	Zn	0.00000 0.50000 0.25000 1.13700
Zn	Zn	0.50000 0.75000 -0.00000 1.13800
Zn	Zn	0.50000 0.25000 -0.00000 1.13700
C 	C 	0.99170 0.62288 0.37712 0.43300
C 	C 	0.91440 0.59340 0.40660 -0.77200
H 	H 	0.87190 0.62060 0.37940 0.22100
C 	C 	0.49170 0.12288 0.87712 0.21100
C 	C 	0.41440 0.09340 0.90660 -0.58800
H 	H 	0.37190 0.12060 0.87940 0.16200
C 	C 	0.00830 0.37712 0.37712 -0.01000
C 	C 	0.08560 0.40660 0.40660 -0.41600
H 	H 	0.12810 0.37940 0.37940 0.11100
C 	C 	0.50830 0.87712 0.87712 0.27300
C 	C 	0.58560 0.90660 0.90660 -0.72500
H 	H 	0.62810 0.87940 0.87940 0.22800
C 	C 	0.00830 0.62288 0.62288 -0.00600
C 	C 	0.08560 0.59340 0.59340 -0.41800
H 	H 	0.12810 0.62060 0.62060 0.11400
C 	C 	0.50830 0.12288 0.12288 0.15600
C 	C 	0.58560 0.09340 0.09340 -0.48000
H 	H 	0.62810 0.12060 0.12060 0.11700
C 	C 	0.99170 0.37712 0.62288 0.43300
C 	C 	0.91440 0.40660 0.59340 -0.77200
H 	H 	0.87190 0.37940 0.62060 0.22100
C 	C 	0.49170 0.87712 0.12288 0.21100
C 	C 	0.41440 0.90660 0.09340 -0.58800
H 	H 	0.37190 0.87940 0.12060 0.16200
C 	C 	0.37712 0.99170 0.62288 0.43300
C 	C 	0.40660 0.91440 0.59340 -0.77200
H 	H 	0.37940 0.87190 0.62060 0.22100
C 	C 	0.87712 0.49170 0.12288 0.21100
C 	C 	0.90660 0.41440 0.09340 -0.58800
H 	H 	0.87940 0.37190 0.12060 0.16200
C 	C 	0.37712 0.00830 0.37712 -0.01000
C 	C 	0.40660 0.08560 0.40660 -0.41600
H 	H 	0.37940 0.12810 0.37940 0.11100
C 	C 	0.87712 0.50830 0.87712 0.27300
C 	C 	0.90660 0.58560 0.90660 -0.72500
H 	H 	0.87940 0.62810 0.87940 0.22800
C 	C 	0.62288 0.00830 0.62288 -0.00600
C 	C 	0.59340 0.08560 0.59340 -0.41800
H 	H 	0.62060 0.12810 0.62060 0.11400
C 	C 	0.12288 0.50830 0.12288 0.15600
C 	C 	0.09340 0.58560 0.09340 -0.48000
H 	H 	0.12060 0.62810 0.12060 0.11700
C 	C 	0.62288 0.99170 0.37712 0.43300
C 	C 	0.59340 0.91440 0.40660 -0.77200
H 	H 	0.62060 0.87190 0.37940 0.22100
C 	C 	0.12288 0.49170 0.87712 0.21100
C 	C 	0.09340 0.41440 0.90660 -0.58800
H 	H 	0.12060 0.37190 0.87940 0.16200
C 	C 	0.62288 0.37712 0.99170 0.43300
C 	C 	0.59340 0.40660 0.91440 -0.77200
H 	H 	0.62060 0.37940 0.87190 0.22100
C 	C 	0.12288 0.87712 0.49170 0.21100
C 	C 	0.09340 0.90660 0.41440 -0.58800
H 	H 	0.12060 0.87940 0.37190 0.16200
C 	C 	0.37712 0.37712 0.00830 -0.01000
C 	C 	0.40660 0.40660 0.08560 -0.41600
H 	H 	0.37940 0.37940 0.12810 0.11100
C 	C 	0.87712 0.87712 0.50830 0.27300
C 	C 	0.90660 0.90660 0.58560 -0.72500
H 	H 	0.87940 0.87940 0.62810 0.22800
C 	C 	0.62288 0.62288 0.00830 -0.00600
C 	C 	0.59340 0.59340 0.08560 -0.41800
H 	H 	0.62060 0.62060 0.12810 0.11400
C 	C 	0.12288 0.12288 0.50830 0.15600
C 	C 	0.09340 0.09340 0.58560 -0.48000
H 	H 	0.12060 0.12060 0.62810 0.11700
C 	C 	0.37712 0.62288 0.99170 0.43300
C 	C 	0.40660 0.59340 0.91440 -0.77200
H 	H 	0.37940 0.62060 0.87190 0.22100
C 	C 	0.87712 0.12288 0.49170 0.21100
C 	C 	0.90660 0.09340 0.41440 -0.58800
H 	H 	0.87940 0.12060 0.37190 0.16200
