data_crystal

_cell_length_a 17.12000
_cell_length_b 17.12000
_cell_length_c 17.12000
_cell_angle_alpha 90.00000
_cell_angle_beta  90.00000
_cell_angle_gamma 90.00000

_symmetry_space_group_name_	'P 1'
_symmetry_space_group_name_H-M	'P 1'

loop_
_symmetry_equiv_pos_as_xyz
  x,y,z

loop_
_atom_site_label
_atom_site_type_symbol
_atom_site_fract_x
_atom_site_fract_y
_atom_site_fract_z
_atom_site_charge
N 	N 	0.03210 0.68190 0.41100 -0.40100
C 	C 	0.10440 0.67550 0.37920 -0.02600
H 	H 	0.14850 0.70580 0.39400 -0.00700
H 	H 	0.89710 0.61990 0.44620 0.21500
N 	N 	0.53210 0.18190 0.91100 -0.29000
C 	C 	0.60440 0.17550 0.87920 -0.00800
H 	H 	0.64850 0.20580 0.89400 0.00600
H 	H 	0.39710 0.11990 0.94620 0.16700
N 	N 	0.96790 0.31810 0.41100 -0.21500
C 	C 	0.89560 0.32450 0.37920 -0.00900
H 	H 	0.85150 0.29420 0.39400 -0.00700
H 	H 	0.10290 0.38010 0.44620 0.08900
N 	N 	0.46790 0.81810 0.91100 -0.29600
C 	C 	0.39560 0.82450 0.87920 -0.00300
H 	H 	0.35150 0.79420 0.89400 0.01000
H 	H 	0.60290 0.88010 0.94620 0.23500
N 	N 	0.96790 0.68190 0.58900 -0.21400
C 	C 	0.89560 0.67550 0.62080 -0.00400
H 	H 	0.85150 0.70580 0.60600 -0.00600
H 	H 	0.10290 0.61990 0.55380 0.09000
N 	N 	0.46790 0.18190 0.08900 -0.32200
C 	C 	0.39560 0.17550 0.12080 -0.03100
H 	H 	0.35150 0.20580 0.10600 -0.02800
H 	H 	0.60290 0.11990 0.05380 0.08000
N 	N 	0.03210 0.31810 0.58900 -0.40200
C 	C 	0.10440 0.32450 0.62080 -0.02600
H 	H 	0.14850 0.29420 0.60600 -0.00600
H 	H 	0.89710 0.38010 0.55380 0.21500
N 	N 	0.53210 0.81810 0.08900 -0.32600
C 	C 	0.60440 0.82450 0.12080 -0.02300
H 	H 	0.64850 0.79420 0.10600 -0.01300
H 	H 	0.39710 0.88010 0.05380 0.13000
N 	N 	0.41100 0.03210 0.68190 -0.40100
C 	C 	0.37920 0.10440 0.67550 -0.02600
H 	H 	0.39400 0.14850 0.70580 -0.00700
H 	H 	0.44620 0.89710 0.61990 0.21500
N 	N 	0.91100 0.53210 0.18190 -0.29000
C 	C 	0.87920 0.60440 0.17550 -0.00800
H 	H 	0.89400 0.64850 0.20580 0.00600
H 	H 	0.94620 0.39710 0.11990 0.16700
N 	N 	0.41100 0.96790 0.31810 -0.21500
C 	C 	0.37920 0.89560 0.32450 -0.00900
H 	H 	0.39400 0.85150 0.29420 -0.00700
H 	H 	0.44620 0.10290 0.38010 0.08900
N 	N 	0.91100 0.46790 0.81810 -0.29600
C 	C 	0.87920 0.39560 0.82450 -0.00300
H 	H 	0.89400 0.35150 0.79420 0.01000
H 	H 	0.94620 0.60290 0.88010 0.23500
N 	N 	0.58900 0.96790 0.68190 -0.21400
C 	C 	0.62080 0.89560 0.67550 -0.00400
H 	H 	0.60600 0.85150 0.70580 -0.00600
H 	H 	0.55380 0.10290 0.61990 0.09000
N 	N 	0.08900 0.46790 0.18190 -0.32200
C 	C 	0.12080 0.39560 0.17550 -0.03100
H 	H 	0.10600 0.35150 0.20580 -0.02800
H 	H 	0.05380 0.60290 0.11990 0.08000
N 	N 	0.58900 0.03210 0.31810 -0.40200
C 	C 	0.62080 0.10440 0.32450 -0.02600
H 	H 	0.60600 0.14850 0.29420 -0.00600
H 	H 	0.55380 0.89710 0.38010 0.21500
N 	N 	0.08900 0.53210 0.81810 -0.32600
C 	C 	0.12080 0.60440 0.82450 -0.02300
H 	H 	0.10600 0.64850 0.79420 -0.01300
H 	H 	0.05380 0.39710 0.88010 0.13000
N 	N 	0.68190 0.41100 0.03210 -0.40100
C 	C 	0.67550 0.37920 0.10440 -0.02600
H 	H 	0.70580 0.39400 0.14850 -0.00700
H 	H 	0.61990 0.44620 0.89710 0.21500
N 	N 	0.18190 0.91100 0.53210 -0.29000
C 	C 	0.17550 0.87920 0.60440 -0.00800
H 	H 	0.20580 0.89400 0.64850 0.00600
H 	H 	0.11990 0.94620 0.39710 0.16700
N 	N 	0.31810 0.41100 0.96790 -0.21500
C 	C 	0.32450 0.37920 0.89560 -0.00900
H 	H 	0.29420 0.39400 0.85150 -0.00700
H 	H 	0.38010 0.44620 0.10290 0.08900
N 	N 	0.81810 0.91100 0.46790 -0.29600
C 	C 	0.82450 0.87920 0.39560 -0.00300
H 	H 	0.79420 0.89400 0.35150 0.01000
H 	H 	0.88010 0.94620 0.60290 0.23500
N 	N 	0.68190 0.58900 0.96790 -0.21400
C 	C 	0.67550 0.62080 0.89560 -0.00400
H 	H 	0.70580 0.60600 0.85150 -0.00600
H 	H 	0.61990 0.55380 0.10290 0.09000
N 	N 	0.18190 0.08900 0.46790 -0.32200
C 	C 	0.17550 0.12080 0.39560 -0.03100
H 	H 	0.20580 0.10600 0.35150 -0.02800
H 	H 	0.11990 0.05380 0.60290 0.08000
N 	N 	0.31810 0.58900 0.03210 -0.40200
C 	C 	0.32450 0.62080 0.10440 -0.02600
H 	H 	0.29420 0.60600 0.14850 -0.00600
H 	H 	0.38010 0.55380 0.89710 0.21500
N 	N 	0.81810 0.08900 0.53210 -0.32600
C 	C 	0.82450 0.12080 0.60440 -0.02300
H 	H 	0.79420 0.10600 0.64850 -0.01300
H 	H 	0.88010 0.05380 0.39710 0.13000
N 	N 	0.68190 0.03210 0.41100 -0.40100
C 	C 	0.67550 0.10440 0.37920 -0.02600
H 	H 	0.70580 0.14850 0.39400 -0.00700
H 	H 	0.61990 0.89710 0.44620 0.21500
N 	N 	0.18190 0.53210 0.91100 -0.29000
C 	C 	0.17550 0.60440 0.87920 -0.00800
H 	H 	0.20580 0.64850 0.89400 0.00600
H 	H 	0.11990 0.39710 0.94620 0.16700
N 	N 	0.31810 0.96790 0.41100 -0.21500
C 	C 	0.32450 0.89560 0.37920 -0.00900
H 	H 	0.29420 0.85150 0.39400 -0.00700
H 	H 	0.38010 0.10290 0.44620 0.08900
N 	N 	0.81810 0.46790 0.91100 -0.29600
C 	C 	0.82450 0.39560 0.87920 -0.00300
H 	H 	0.79420 0.35150 0.89400 0.01000
H 	H 	0.88010 0.60290 0.94620 0.23500
N 	N 	0.68190 0.96790 0.58900 -0.21400
C 	C 	0.67550 0.89560 0.62080 -0.00400
H 	H 	0.70580 0.85150 0.60600 -0.00600
H 	H 	0.61990 0.10290 0.55380 0.09000
N 	N 	0.18190 0.46790 0.08900 -0.32200
C 	C 	0.17550 0.39560 0.12080 -0.03100
H 	H 	0.20580 0.35150 0.10600 -0.02800
H 	H 	0.11990 0.60290 0.05380 0.08000
N 	N 	0.31810 0.03210 0.58900 -0.40200
C 	C 	0.32450 0.10440 0.62080 -0.02600
H 	H 	0.29420 0.14850 0.60600 -0.00600
H 	H 	0.38010 0.89710 0.55380 0.21500
N 	N 	0.81810 0.53210 0.08900 -0.32600
C 	C 	0.82450 0.60440 0.12080 -0.02300
H 	H 	0.79420 0.64850 0.10600 -0.01300
H 	H 	0.88010 0.39710 0.05380 0.13000
N 	N 	0.03210 0.41100 0.68190 -0.40100
C 	C 	0.10440 0.37920 0.67550 -0.02600
H 	H 	0.14850 0.39400 0.70580 -0.00700
H 	H 	0.89710 0.44620 0.61990 0.21500
N 	N 	0.53210 0.91100 0.18190 -0.29000
C 	C 	0.60440 0.87920 0.17550 -0.00800
H 	H 	0.64850 0.89400 0.20580 0.00600
H 	H 	0.39710 0.94620 0.11990 0.16700
N 	N 	0.96790 0.41100 0.31810 -0.21500
C 	C 	0.89560 0.37920 0.32450 -0.00900
H 	H 	0.85150 0.39400 0.29420 -0.00700
H 	H 	0.10290 0.44620 0.38010 0.08900
N 	N 	0.46790 0.91100 0.81810 -0.29600
C 	C 	0.39560 0.87920 0.82450 -0.00300
H 	H 	0.35150 0.89400 0.79420 0.01000
H 	H 	0.60290 0.94620 0.88010 0.23500
N 	N 	0.96790 0.58900 0.68190 -0.21400
C 	C 	0.89560 0.62080 0.67550 -0.00400
H 	H 	0.85150 0.60600 0.70580 -0.00600
H 	H 	0.10290 0.55380 0.61990 0.09000
N 	N 	0.46790 0.08900 0.18190 -0.32200
C 	C 	0.39560 0.12080 0.17550 -0.03100
H 	H 	0.35150 0.10600 0.20580 -0.02800
H 	H 	0.60290 0.05380 0.11990 0.08000
N 	N 	0.03210 0.58900 0.31810 -0.40200
C 	C 	0.10440 0.62080 0.32450 -0.02600
H 	H 	0.14850 0.60600 0.29420 -0.00600
H 	H 	0.89710 0.55380 0.38010 0.21500
N 	N 	0.53210 0.08900 0.81810 -0.32600
C 	C 	0.60440 0.12080 0.82450 -0.02300
H 	H 	0.64850 0.10600 0.79420 -0.01300
H 	H 	0.39710 0.05380 0.88010 0.13000
N 	N 	0.41100 0.68190 0.03210 -0.40100
C 	C 	0.37920 0.67550 0.10440 -0.02600
H 	H 	0.39400 0.70580 0.14850 -0.00700
H 	H 	0.44620 0.61990 0.89710 0.21500
N 	N 	0.91100 0.18190 0.53210 -0.29000
C 	C 	0.87920 0.17550 0.60440 -0.00800
H 	H 	0.89400 0.20580 0.64850 0.00600
H 	H 	0.94620 0.11990 0.39710 0.16700
N 	N 	0.41100 0.31810 0.96790 -0.21500
C 	C 	0.37920 0.32450 0.89560 -0.00900
H 	H 	0.39400 0.29420 0.85150 -0.00700
H 	H 	0.44620 0.38010 0.10290 0.08900
N 	N 	0.91100 0.81810 0.46790 -0.29600
C 	C 	0.87920 0.82450 0.39560 -0.00300
H 	H 	0.89400 0.79420 0.35150 0.01000
H 	H 	0.94620 0.88010 0.60290 0.23500
N 	N 	0.58900 0.68190 0.96790 -0.21400
C 	C 	0.62080 0.67550 0.89560 -0.00400
H 	H 	0.60600 0.70580 0.85150 -0.00600
H 	H 	0.55380 0.61990 0.10290 0.09000
N 	N 	0.08900 0.18190 0.46790 -0.32200
C 	C 	0.12080 0.17550 0.39560 -0.03100
H 	H 	0.10600 0.20580 0.35150 -0.02800
H 	H 	0.05380 0.11990 0.60290 0.08000
N 	N 	0.58900 0.31810 0.03210 -0.40200
C 	C 	0.62080 0.32450 0.10440 -0.02600
H 	H 	0.60600 0.29420 0.14850 -0.00600
H 	H 	0.55380 0.38010 0.89710 0.21500
N 	N 	0.08900 0.81810 0.53210 -0.32600
C 	C 	0.12080 0.82450 0.60440 -0.02300
H 	H 	0.10600 0.79420 0.64850 -0.01300
H 	H 	0.05380 0.88010 0.39710 0.13000
Zn	Zn	-0.00000 0.75000 0.50000 1.13700
Zn	Zn	-0.00000 0.25000 0.50000 1.13500
Zn	Zn	0.50000 0.00000 0.75000 1.13700
Zn	Zn	0.50000 -0.00000 0.25000 1.13500
Zn	Zn	0.75000 0.50000 -0.00000 1.13700
Zn	Zn	0.25000 0.50000 -0.00000 1.13500
Zn	Zn	0.75000 -0.00000 0.50000 1.13700
Zn	Zn	0.25000 -0.00000 0.50000 1.13500
Zn	Zn	-0.00000 0.50000 0.75000 1.13700
Zn	Zn	0.00000 0.50000 0.25000 1.13500
Zn	Zn	0.50000 0.75000 -0.00000 1.13700
Zn	Zn	0.50000 0.25000 -0.00000 1.13500
C 	C 	0.99070 0.62700 0.37300 0.43300
C 	C 	0.90750 0.60910 0.39090 -0.77000
H 	H 	0.87350 0.64160 0.35840 0.22300
C 	C 	0.49070 0.12700 0.87300 0.21100
C 	C 	0.40750 0.10910 0.89090 -0.58500
H 	H 	0.37350 0.14160 0.85840 0.16300
C 	C 	0.00930 0.37300 0.37300 -0.01000
C 	C 	0.09250 0.39090 0.39090 -0.41200
H 	H 	0.12650 0.35840 0.35840 0.11100
C 	C 	0.50930 0.87300 0.87300 0.26900
C 	C 	0.59250 0.89090 0.89090 -0.70900
H 	H 	0.62650 0.85840 0.85840 0.22000
C 	C 	0.00930 0.62700 0.62700 -0.00600
C 	C 	0.09250 0.60910 0.60910 -0.41500
H 	H 	0.12650 0.64160 0.64160 0.11400
C 	C 	0.50930 0.12700 0.12700 0.16100
C 	C 	0.59250 0.10910 0.10910 -0.49100
H 	H 	0.62650 0.14160 0.14160 0.12600
C 	C 	0.99070 0.37300 0.62700 0.43300
C 	C 	0.90750 0.39090 0.60910 -0.77000
H 	H 	0.87350 0.35840 0.64160 0.22300
C 	C 	0.49070 0.87300 0.12700 0.21100
C 	C 	0.40750 0.89090 0.10910 -0.58500
H 	H 	0.37350 0.85840 0.14160 0.16300
C 	C 	0.37300 0.99070 0.62700 0.43300
C 	C 	0.39090 0.90750 0.60910 -0.77000
H 	H 	0.35840 0.87350 0.64160 0.22300
C 	C 	0.87300 0.49070 0.12700 0.21100
C 	C 	0.89090 0.40750 0.10910 -0.58500
H 	H 	0.85840 0.37350 0.14160 0.16300
C 	C 	0.37300 0.00930 0.37300 -0.01000
C 	C 	0.39090 0.09250 0.39090 -0.41200
H 	H 	0.35840 0.12650 0.35840 0.11100
C 	C 	0.87300 0.50930 0.87300 0.26900
C 	C 	0.89090 0.59250 0.89090 -0.70900
H 	H 	0.85840 0.62650 0.85840 0.22000
C 	C 	0.62700 0.00930 0.62700 -0.00600
C 	C 	0.60910 0.09250 0.60910 -0.41500
H 	H 	0.64160 0.12650 0.64160 0.11400
C 	C 	0.12700 0.50930 0.12700 0.16100
C 	C 	0.10910 0.59250 0.10910 -0.49100
H 	H 	0.14160 0.62650 0.14160 0.12600
C 	C 	0.62700 0.99070 0.37300 0.43300
C 	C 	0.60910 0.90750 0.39090 -0.77000
H 	H 	0.64160 0.87350 0.35840 0.22300
C 	C 	0.12700 0.49070 0.87300 0.21100
C 	C 	0.10910 0.40750 0.89090 -0.58500
H 	H 	0.14160 0.37350 0.85840 0.16300
C 	C 	0.62700 0.37300 0.99070 0.43300
C 	C 	0.60910 0.39090 0.90750 -0.77000
H 	H 	0.64160 0.35840 0.87350 0.22300
C 	C 	0.12700 0.87300 0.49070 0.21100
C 	C 	0.10910 0.89090 0.40750 -0.58500
H 	H 	0.14160 0.85840 0.37350 0.16300
C 	C 	0.37300 0.37300 0.00930 -0.01000
C 	C 	0.39090 0.39090 0.09250 -0.41200
H 	H 	0.35840 0.35840 0.12650 0.11100
C 	C 	0.87300 0.87300 0.50930 0.26900
C 	C 	0.89090 0.89090 0.59250 -0.70900
H 	H 	0.85840 0.85840 0.62650 0.22000
C 	C 	0.62700 0.62700 0.00930 -0.00600
C 	C 	0.60910 0.60910 0.09250 -0.41500
H 	H 	0.64160 0.64160 0.12650 0.11400
C 	C 	0.12700 0.12700 0.50930 0.16100
C 	C 	0.10910 0.10910 0.59250 -0.49100
H 	H 	0.14160 0.14160 0.62650 0.12600
C 	C 	0.37300 0.62700 0.99070 0.43300
C 	C 	0.39090 0.60910 0.90750 -0.77000
H 	H 	0.35840 0.64160 0.87350 0.22300
C 	C 	0.87300 0.12700 0.49070 0.21100
C 	C 	0.89090 0.10910 0.40750 -0.58500
H 	H 	0.85840 0.14160 0.37350 0.16300
