data_crystal

_cell_length_a 17.06410
_cell_length_b 17.06410
_cell_length_c 17.06410
_cell_angle_alpha 90.00000
_cell_angle_beta  90.00000
_cell_angle_gamma 90.00000

_symmetry_space_group_name_	'P 1'
_symmetry_space_group_name_H-M	'P 1'

loop_
_symmetry_equiv_pos_as_xyz
  x,y,z

loop_
_atom_site_label
_atom_site_type_symbol
_atom_site_fract_x
_atom_site_fract_y
_atom_site_fract_z
_atom_site_charge
N 	N 	0.02595 0.68273 0.40844 -0.41700
C 	C 	0.09454 0.68773 0.36751 0.05200
H 	H 	0.13540 0.72440 0.37680 -0.03500
H 	H 	0.90110 0.60750 0.45880 0.22300
N 	N 	0.09454 0.63249 0.31227 -0.15700
N 	N 	0.52595 0.18273 0.90844 -0.30300
C 	C 	0.59454 0.18773 0.86751 0.07200
H 	H 	0.63540 0.22440 0.87680 -0.02200
H 	H 	0.40110 0.10750 0.95880 0.17300
N 	N 	0.59454 0.13249 0.81227 -0.15600
N 	N 	0.97405 0.31727 0.40844 -0.22700
C 	C 	0.90546 0.31227 0.36751 0.07400
H 	H 	0.86460 0.27560 0.37680 -0.03400
H 	H 	0.09890 0.39250 0.45880 0.09300
N 	N 	0.90546 0.36751 0.31227 -0.15100
N 	N 	0.47405 0.81727 0.90844 -0.31100
C 	C 	0.40546 0.81227 0.86751 0.08400
H 	H 	0.36460 0.77560 0.87680 -0.02300
H 	H 	0.59890 0.89250 0.95880 0.24800
N 	N 	0.40546 0.86751 0.81227 -0.15000
N 	N 	0.97405 0.68273 0.59156 -0.22700
C 	C 	0.90546 0.68773 0.63249 0.08100
H 	H 	0.86460 0.72440 0.62320 -0.03200
H 	H 	0.09890 0.60750 0.54120 0.09400
N 	N 	0.90546 0.63249 0.68773 -0.14900
N 	N 	0.47405 0.18273 0.09156 -0.33300
C 	C 	0.40546 0.18773 0.13249 0.04400
H 	H 	0.36460 0.22440 0.12320 -0.04800
H 	H 	0.59890 0.10750 0.04120 0.07900
N 	N 	0.40546 0.13249 0.18773 -0.15800
N 	N 	0.02595 0.31727 0.59156 -0.41600
C 	C 	0.09454 0.31227 0.63249 0.05300
H 	H 	0.13540 0.27560 0.62320 -0.03400
H 	H 	0.90110 0.39250 0.54120 0.22400
N 	N 	0.09454 0.36751 0.68773 -0.15700
N 	N 	0.52595 0.81727 0.09156 -0.33900
C 	C 	0.59454 0.81227 0.13249 0.06200
H 	H 	0.63540 0.77560 0.12320 -0.04000
H 	H 	0.40110 0.89250 0.04120 0.13600
N 	N 	0.59454 0.86751 0.18773 -0.15000
N 	N 	0.40844 0.02595 0.68273 -0.41600
C 	C 	0.36751 0.09454 0.68773 0.05300
H 	H 	0.37680 0.13540 0.72440 -0.03400
H 	H 	0.45880 0.90110 0.60750 0.22300
N 	N 	0.31227 0.09454 0.63249 -0.15700
N 	N 	0.90844 0.52595 0.18273 -0.30300
C 	C 	0.86751 0.59454 0.18773 0.07200
H 	H 	0.87680 0.63540 0.22440 -0.02200
H 	H 	0.95880 0.40110 0.10750 0.17300
N 	N 	0.81227 0.59454 0.13249 -0.15600
N 	N 	0.40844 0.97405 0.31727 -0.22700
C 	C 	0.36751 0.90546 0.31227 0.07400
H 	H 	0.37680 0.86460 0.27560 -0.03400
H 	H 	0.45880 0.09890 0.39250 0.09300
N 	N 	0.31227 0.90546 0.36751 -0.15100
N 	N 	0.90844 0.47405 0.81727 -0.31100
C 	C 	0.86751 0.40546 0.81227 0.08400
H 	H 	0.87680 0.36460 0.77560 -0.02300
H 	H 	0.95880 0.59890 0.89250 0.24800
N 	N 	0.81227 0.40546 0.86751 -0.15000
N 	N 	0.59156 0.97405 0.68273 -0.22700
C 	C 	0.63249 0.90546 0.68773 0.08100
H 	H 	0.62320 0.86460 0.72440 -0.03200
H 	H 	0.54120 0.09890 0.60750 0.09400
N 	N 	0.68773 0.90546 0.63249 -0.14900
N 	N 	0.09156 0.47405 0.18273 -0.33300
C 	C 	0.13249 0.40546 0.18773 0.04400
H 	H 	0.12320 0.36460 0.22440 -0.04800
H 	H 	0.04120 0.59890 0.10750 0.07900
N 	N 	0.18773 0.40546 0.13249 -0.15800
N 	N 	0.59156 0.02595 0.31727 -0.41600
C 	C 	0.63249 0.09454 0.31227 0.05300
H 	H 	0.62320 0.13540 0.27560 -0.03400
H 	H 	0.54120 0.90110 0.39250 0.22400
N 	N 	0.68773 0.09454 0.36751 -0.15700
N 	N 	0.09156 0.52595 0.81727 -0.33900
C 	C 	0.13249 0.59454 0.81227 0.06200
H 	H 	0.12320 0.63540 0.77560 -0.04000
H 	H 	0.04120 0.40110 0.89250 0.13600
N 	N 	0.18773 0.59454 0.86751 -0.15000
N 	N 	0.68273 0.40844 0.02595 -0.41600
C 	C 	0.68773 0.36751 0.09454 0.05300
H 	H 	0.72440 0.37680 0.13540 -0.03400
H 	H 	0.60750 0.45880 0.90110 0.22300
N 	N 	0.63249 0.31227 0.09454 -0.15700
N 	N 	0.18273 0.90844 0.52595 -0.30300
C 	C 	0.18773 0.86751 0.59454 0.07200
H 	H 	0.22440 0.87680 0.63540 -0.02200
H 	H 	0.10750 0.95880 0.40110 0.17300
N 	N 	0.13249 0.81227 0.59454 -0.15600
N 	N 	0.31727 0.40844 0.97405 -0.22700
C 	C 	0.31227 0.36751 0.90546 0.07400
H 	H 	0.27560 0.37680 0.86460 -0.03400
H 	H 	0.39250 0.45880 0.09890 0.09300
N 	N 	0.36751 0.31227 0.90546 -0.15100
N 	N 	0.81727 0.90844 0.47405 -0.31100
C 	C 	0.81227 0.86751 0.40546 0.08400
H 	H 	0.77560 0.87680 0.36460 -0.02300
H 	H 	0.89250 0.95880 0.59890 0.24800
N 	N 	0.86751 0.81227 0.40546 -0.15000
N 	N 	0.68273 0.59156 0.97405 -0.22700
C 	C 	0.68773 0.63249 0.90546 0.08100
H 	H 	0.72440 0.62320 0.86460 -0.03200
H 	H 	0.60750 0.54120 0.09890 0.09400
N 	N 	0.63249 0.68773 0.90546 -0.14900
N 	N 	0.18273 0.09156 0.47405 -0.33300
C 	C 	0.18773 0.13249 0.40546 0.04400
H 	H 	0.22440 0.12320 0.36460 -0.04800
H 	H 	0.10750 0.04120 0.59890 0.07900
N 	N 	0.13249 0.18773 0.40546 -0.15800
N 	N 	0.31727 0.59156 0.02595 -0.41600
C 	C 	0.31227 0.63249 0.09454 0.05300
H 	H 	0.27560 0.62320 0.13540 -0.03400
H 	H 	0.39250 0.54120 0.90110 0.22400
N 	N 	0.36751 0.68773 0.09454 -0.15700
N 	N 	0.81727 0.09156 0.52595 -0.33900
C 	C 	0.81227 0.13249 0.59454 0.06200
H 	H 	0.77560 0.12320 0.63540 -0.04000
H 	H 	0.89250 0.04120 0.40110 0.13600
N 	N 	0.86751 0.18773 0.59454 -0.15000
N 	N 	0.68273 0.02595 0.40844 -0.38200
H 	H 	0.72440 0.13540 0.37680 0.04700
H 	H 	0.60750 0.90110 0.45880 0.22400
N 	N 	0.18273 0.52595 0.90844 -0.26600
H 	H 	0.22440 0.63540 0.87680 0.06400
H 	H 	0.10750 0.40110 0.95880 0.17300
N 	N 	0.31727 0.97405 0.40844 -0.19000
H 	H 	0.27560 0.86460 0.37680 0.05300
H 	H 	0.39250 0.09890 0.45880 0.09400
N 	N 	0.81727 0.47405 0.90844 -0.27300
H 	H 	0.77560 0.36460 0.87680 0.06700
H 	H 	0.89250 0.59890 0.95880 0.24800
N 	N 	0.68273 0.97405 0.59156 -0.18800
H 	H 	0.72440 0.86460 0.62320 0.05800
H 	H 	0.60750 0.09890 0.54120 0.09400
N 	N 	0.18273 0.47405 0.09156 -0.30000
H 	H 	0.22440 0.36460 0.12320 0.03000
H 	H 	0.10750 0.59890 0.04120 0.07900
N 	N 	0.31727 0.02595 0.59156 -0.38200
H 	H 	0.27560 0.13540 0.62320 0.04800
H 	H 	0.39250 0.90110 0.54120 0.22400
N 	N 	0.81727 0.52595 0.09156 -0.30400
H 	H 	0.77560 0.63540 0.12320 0.04500
H 	H 	0.89250 0.40110 0.04120 0.13600
N 	N 	0.02595 0.40844 0.68273 -0.38200
H 	H 	0.13540 0.37680 0.72440 0.04700
H 	H 	0.90110 0.45880 0.60750 0.22400
N 	N 	0.52595 0.90844 0.18273 -0.26600
H 	H 	0.63540 0.87680 0.22440 0.06400
H 	H 	0.40110 0.95880 0.10750 0.17300
N 	N 	0.97405 0.40844 0.31727 -0.19000
H 	H 	0.86460 0.37680 0.27560 0.05300
H 	H 	0.09890 0.45880 0.39250 0.09400
N 	N 	0.47405 0.90844 0.81727 -0.27300
H 	H 	0.36460 0.87680 0.77560 0.06700
H 	H 	0.59890 0.95880 0.89250 0.24800
N 	N 	0.97405 0.59156 0.68273 -0.18800
H 	H 	0.86460 0.62320 0.72440 0.05800
H 	H 	0.09890 0.54120 0.60750 0.09400
N 	N 	0.47405 0.09156 0.18273 -0.30000
H 	H 	0.36460 0.12320 0.22440 0.03000
H 	H 	0.59890 0.04120 0.10750 0.07900
N 	N 	0.02595 0.59156 0.31727 -0.38200
H 	H 	0.13540 0.62320 0.27560 0.04800
H 	H 	0.90110 0.54120 0.39250 0.22400
N 	N 	0.52595 0.09156 0.81727 -0.30400
H 	H 	0.63540 0.12320 0.77560 0.04500
H 	H 	0.40110 0.04120 0.89250 0.13600
N 	N 	0.40844 0.68273 0.02595 -0.38200
H 	H 	0.37680 0.72440 0.13540 0.04700
H 	H 	0.45880 0.60750 0.90110 0.22400
N 	N 	0.90844 0.18273 0.52595 -0.26600
H 	H 	0.87680 0.22440 0.63540 0.06400
H 	H 	0.95880 0.10750 0.40110 0.17300
N 	N 	0.40844 0.31727 0.97405 -0.19000
H 	H 	0.37680 0.27560 0.86460 0.05300
H 	H 	0.45880 0.39250 0.09890 0.09400
N 	N 	0.90844 0.81727 0.47405 -0.27300
H 	H 	0.87680 0.77560 0.36460 0.06700
H 	H 	0.95880 0.89250 0.59890 0.24800
N 	N 	0.59156 0.68273 0.97405 -0.18800
H 	H 	0.62320 0.72440 0.86460 0.05800
H 	H 	0.54120 0.60750 0.09890 0.09400
N 	N 	0.09156 0.18273 0.47405 -0.30000
H 	H 	0.12320 0.22440 0.36460 0.03000
H 	H 	0.04120 0.10750 0.59890 0.07900
N 	N 	0.59156 0.31727 0.02595 -0.38200
H 	H 	0.62320 0.27560 0.13540 0.04800
H 	H 	0.54120 0.39250 0.90110 0.22400
N 	N 	0.09156 0.81727 0.52595 -0.30400
H 	H 	0.12320 0.77560 0.63540 0.04500
H 	H 	0.04120 0.89250 0.40110 0.13600
Zn	Zn	-0.00000 0.75000 0.50000 1.13900
Zn	Zn	-0.00000 0.25000 0.50000 1.13800
Zn	Zn	0.50000 -0.00000 0.75000 1.13900
Zn	Zn	0.50000 0.00000 0.25000 1.13800
Zn	Zn	0.75000 0.50000 -0.00000 1.13900
Zn	Zn	0.25000 0.50000 -0.00000 1.13800
Zn	Zn	0.75000 0.00000 0.50000 1.13900
Zn	Zn	0.25000 0.00000 0.50000 1.13800
Zn	Zn	0.00000 0.50000 0.75000 1.13900
Zn	Zn	-0.00000 0.50000 0.25000 1.13800
Zn	Zn	0.50000 0.75000 -0.00000 1.13900
Zn	Zn	0.50000 0.25000 -0.00000 1.13800
C 	C 	0.98670 0.62360 0.37640 0.44600
C 	C 	0.90700 0.59740 0.40260 -0.78400
H 	H 	0.86680 0.62635 0.37365 0.22700
C 	C 	0.48670 0.12360 0.87640 0.22000
C 	C 	0.40700 0.09740 0.90260 -0.59700
H 	H 	0.36680 0.12635 0.87365 0.16700
C 	C 	0.01330 0.37640 0.37640 -0.00300
C 	C 	0.09300 0.40260 0.40260 -0.42200
H 	H 	0.13320 0.37365 0.37365 0.11500
C 	C 	0.51330 0.87640 0.87640 0.28300
C 	C 	0.59300 0.90260 0.90260 -0.73200
H 	H 	0.63320 0.87365 0.87365 0.23100
C 	C 	0.01330 0.62360 0.62360 0.00100
C 	C 	0.09300 0.59740 0.59740 -0.42500
H 	H 	0.13320 0.62635 0.62635 0.11800
C 	C 	0.51330 0.12360 0.12360 0.16600
C 	C 	0.59300 0.09740 0.09740 -0.49300
H 	H 	0.63320 0.12635 0.12635 0.12500
C 	C 	0.98670 0.37640 0.62360 0.44600
C 	C 	0.90700 0.40260 0.59740 -0.78400
H 	H 	0.86680 0.37365 0.62635 0.22700
C 	C 	0.48670 0.87640 0.12360 0.22000
C 	C 	0.40700 0.90260 0.09740 -0.59700
H 	H 	0.36680 0.87365 0.12635 0.16700
C 	C 	0.37640 0.98670 0.62360 0.44600
C 	C 	0.40260 0.90700 0.59740 -0.78400
H 	H 	0.37365 0.86680 0.62635 0.22700
C 	C 	0.87640 0.48670 0.12360 0.22000
C 	C 	0.90260 0.40700 0.09740 -0.59700
H 	H 	0.87365 0.36680 0.12635 0.16700
C 	C 	0.37640 0.01330 0.37640 -0.00300
C 	C 	0.40260 0.09300 0.40260 -0.42200
H 	H 	0.37365 0.13320 0.37365 0.11500
C 	C 	0.87640 0.51330 0.87640 0.28300
C 	C 	0.90260 0.59300 0.90260 -0.73200
H 	H 	0.87365 0.63320 0.87365 0.23100
C 	C 	0.62360 0.01330 0.62360 0.00100
C 	C 	0.59740 0.09300 0.59740 -0.42500
H 	H 	0.62635 0.13320 0.62635 0.11800
C 	C 	0.12360 0.51330 0.12360 0.16600
C 	C 	0.09740 0.59300 0.09740 -0.49300
H 	H 	0.12635 0.63320 0.12635 0.12500
C 	C 	0.62360 0.98670 0.37640 0.44600
C 	C 	0.59740 0.90700 0.40260 -0.78400
H 	H 	0.62635 0.86680 0.37365 0.22700
C 	C 	0.12360 0.48670 0.87640 0.22000
C 	C 	0.09740 0.40700 0.90260 -0.59700
H 	H 	0.12635 0.36680 0.87365 0.16700
C 	C 	0.62360 0.37640 0.98670 0.44600
C 	C 	0.59740 0.40260 0.90700 -0.78400
H 	H 	0.62635 0.37365 0.86680 0.22700
C 	C 	0.12360 0.87640 0.48670 0.22000
C 	C 	0.09740 0.90260 0.40700 -0.59700
H 	H 	0.12635 0.87365 0.36680 0.16700
C 	C 	0.37640 0.37640 0.01330 -0.00300
C 	C 	0.40260 0.40260 0.09300 -0.42200
H 	H 	0.37365 0.37365 0.13320 0.11500
C 	C 	0.87640 0.87640 0.51330 0.28300
C 	C 	0.90260 0.90260 0.59300 -0.73200
H 	H 	0.87365 0.87365 0.63320 0.23100
C 	C 	0.62360 0.62360 0.01330 0.00100
C 	C 	0.59740 0.59740 0.09300 -0.42500
H 	H 	0.62635 0.62635 0.13320 0.11800
C 	C 	0.12360 0.12360 0.51330 0.16600
C 	C 	0.09740 0.09740 0.59300 -0.49300
H 	H 	0.12635 0.12635 0.63320 0.12500
C 	C 	0.37640 0.62360 0.98670 0.44600
C 	C 	0.40260 0.59740 0.90700 -0.78400
H 	H 	0.37365 0.62635 0.86680 0.22700
C 	C 	0.87640 0.12360 0.48670 0.22000
C 	C 	0.90260 0.09740 0.40700 -0.59700
H 	H 	0.87365 0.12635 0.36680 0.16700
