data_crystal

_cell_length_a 17.12360
_cell_length_b 17.12360
_cell_length_c 17.12360
_cell_angle_alpha 90.00000
_cell_angle_beta  90.00000
_cell_angle_gamma 90.00000

_symmetry_space_group_name_	'P 1'
_symmetry_space_group_name_H-M	'P 1'

loop_
_symmetry_equiv_pos_as_xyz
  x,y,z

loop_
_atom_site_label
_atom_site_type_symbol
_atom_site_fract_x
_atom_site_fract_y
_atom_site_fract_z
_atom_site_charge
N 	N 	0.03302 0.68104 0.41158 -0.39800
C 	C 	0.10911 0.66618 0.38997 -0.02900
H 	H 	0.15410 0.69100 0.41080 -0.00500
H 	H 	0.88590 0.63880 0.42720 0.20500
N 	N 	0.53302 0.18104 0.91158 -0.28600
C 	C 	0.60911 0.16618 0.88997 -0.01300
H 	H 	0.65410 0.19100 0.91080 0.01000
H 	H 	0.38590 0.13880 0.92720 0.16200
N 	N 	0.96698 0.31896 0.41158 -0.20900
C 	C 	0.89089 0.33382 0.38997 -0.01200
H 	H 	0.84590 0.30900 0.41080 -0.00600
H 	H 	0.11410 0.36120 0.42720 0.09200
N 	N 	0.46698 0.81896 0.91158 -0.29000
C 	C 	0.39089 0.83382 0.88997 -0.00500
H 	H 	0.34590 0.80900 0.91080 0.01400
H 	H 	0.61410 0.86120 0.92720 0.22100
N 	N 	0.96698 0.68104 0.58842 -0.20900
C 	C 	0.89089 0.66618 0.61003 -0.00800
H 	H 	0.84590 0.69100 0.58920 -0.00600
H 	H 	0.11410 0.63880 0.57280 0.09300
N 	N 	0.46698 0.18104 0.08842 -0.31900
C 	C 	0.39089 0.16618 0.11003 -0.03700
H 	H 	0.34590 0.19100 0.08920 -0.03200
H 	H 	0.61410 0.13880 0.07280 0.08600
N 	N 	0.03302 0.31896 0.58842 -0.39900
C 	C 	0.10911 0.33382 0.61003 -0.03000
H 	H 	0.15410 0.30900 0.58920 -0.00500
H 	H 	0.88590 0.36120 0.57280 0.20600
N 	N 	0.53302 0.81896 0.08842 -0.32100
C 	C 	0.60911 0.83382 0.11003 -0.02500
H 	H 	0.65410 0.80900 0.08920 -0.01500
H 	H 	0.38590 0.86120 0.07280 0.12700
N 	N 	0.41158 0.03302 0.68104 -0.39900
C 	C 	0.38997 0.10911 0.66618 -0.03000
H 	H 	0.41080 0.15410 0.69100 -0.00600
H 	H 	0.42720 0.88590 0.63880 0.20500
N 	N 	0.91158 0.53302 0.18104 -0.28600
C 	C 	0.88997 0.60911 0.16618 -0.01300
H 	H 	0.91080 0.65410 0.19100 0.01000
H 	H 	0.92720 0.38590 0.13880 0.16200
N 	N 	0.41158 0.96698 0.31896 -0.20900
C 	C 	0.38997 0.89089 0.33382 -0.01200
H 	H 	0.41080 0.84590 0.30900 -0.00600
H 	H 	0.42720 0.11410 0.36120 0.09200
N 	N 	0.91158 0.46698 0.81896 -0.29000
C 	C 	0.88997 0.39089 0.83382 -0.00500
H 	H 	0.91080 0.34590 0.80900 0.01400
H 	H 	0.92720 0.61410 0.86120 0.22100
N 	N 	0.58842 0.96698 0.68104 -0.20900
C 	C 	0.61003 0.89089 0.66618 -0.00800
H 	H 	0.58920 0.84590 0.69100 -0.00600
H 	H 	0.57280 0.11410 0.63880 0.09300
N 	N 	0.08842 0.46698 0.18104 -0.31900
C 	C 	0.11003 0.39089 0.16618 -0.03700
H 	H 	0.08920 0.34590 0.19100 -0.03200
H 	H 	0.07280 0.61410 0.13880 0.08600
N 	N 	0.58842 0.03302 0.31896 -0.39900
C 	C 	0.61003 0.10911 0.33382 -0.03000
H 	H 	0.58920 0.15410 0.30900 -0.00500
H 	H 	0.57280 0.88590 0.36120 0.20600
N 	N 	0.08842 0.53302 0.81896 -0.32100
C 	C 	0.11003 0.60911 0.83382 -0.02500
H 	H 	0.08920 0.65410 0.80900 -0.01500
H 	H 	0.07280 0.38590 0.86120 0.12700
N 	N 	0.68104 0.41158 0.03302 -0.39900
C 	C 	0.66618 0.38997 0.10911 -0.03000
H 	H 	0.69100 0.41080 0.15410 -0.00600
H 	H 	0.63880 0.42720 0.88590 0.20500
N 	N 	0.18104 0.91158 0.53302 -0.28600
C 	C 	0.16618 0.88997 0.60911 -0.01300
H 	H 	0.19100 0.91080 0.65410 0.01000
H 	H 	0.13880 0.92720 0.38590 0.16200
N 	N 	0.31896 0.41158 0.96698 -0.20900
C 	C 	0.33382 0.38997 0.89089 -0.01200
H 	H 	0.30900 0.41080 0.84590 -0.00600
H 	H 	0.36120 0.42720 0.11410 0.09200
N 	N 	0.81896 0.91158 0.46698 -0.29000
C 	C 	0.83382 0.88997 0.39089 -0.00500
H 	H 	0.80900 0.91080 0.34590 0.01400
H 	H 	0.86120 0.92720 0.61410 0.22100
N 	N 	0.68104 0.58842 0.96698 -0.20900
C 	C 	0.66618 0.61003 0.89089 -0.00800
H 	H 	0.69100 0.58920 0.84590 -0.00600
H 	H 	0.63880 0.57280 0.11410 0.09300
N 	N 	0.18104 0.08842 0.46698 -0.31900
C 	C 	0.16618 0.11003 0.39089 -0.03700
H 	H 	0.19100 0.08920 0.34590 -0.03200
H 	H 	0.13880 0.07280 0.61410 0.08600
N 	N 	0.31896 0.58842 0.03302 -0.39900
C 	C 	0.33382 0.61003 0.10911 -0.03000
H 	H 	0.30900 0.58920 0.15410 -0.00500
H 	H 	0.36120 0.57280 0.88590 0.20600
N 	N 	0.81896 0.08842 0.53302 -0.32100
C 	C 	0.83382 0.11003 0.60911 -0.02500
H 	H 	0.80900 0.08920 0.65410 -0.01500
H 	H 	0.86120 0.07280 0.38590 0.12700
N 	N 	0.68104 0.03302 0.41158 -0.39900
C 	C 	0.66618 0.10911 0.38997 -0.03000
H 	H 	0.69100 0.15410 0.41080 -0.00600
H 	H 	0.63880 0.88590 0.42720 0.20500
N 	N 	0.18104 0.53302 0.91158 -0.28600
C 	C 	0.16618 0.60911 0.88997 -0.01300
H 	H 	0.19100 0.65410 0.91080 0.01000
H 	H 	0.13880 0.38590 0.92720 0.16200
N 	N 	0.31896 0.96698 0.41158 -0.20900
C 	C 	0.33382 0.89089 0.38997 -0.01200
H 	H 	0.30900 0.84590 0.41080 -0.00600
H 	H 	0.36120 0.11410 0.42720 0.09200
N 	N 	0.81896 0.46698 0.91158 -0.29000
C 	C 	0.83382 0.39089 0.88997 -0.00500
H 	H 	0.80900 0.34590 0.91080 0.01400
H 	H 	0.86120 0.61410 0.92720 0.22100
N 	N 	0.68104 0.96698 0.58842 -0.20900
C 	C 	0.66618 0.89089 0.61003 -0.00800
H 	H 	0.69100 0.84590 0.58920 -0.00600
H 	H 	0.63880 0.11410 0.57280 0.09300
N 	N 	0.18104 0.46698 0.08842 -0.31900
C 	C 	0.16618 0.39089 0.11003 -0.03700
H 	H 	0.19100 0.34590 0.08920 -0.03200
H 	H 	0.13880 0.61410 0.07280 0.08600
N 	N 	0.31896 0.03302 0.58842 -0.39900
C 	C 	0.33382 0.10911 0.61003 -0.03000
H 	H 	0.30900 0.15410 0.58920 -0.00500
H 	H 	0.36120 0.88590 0.57280 0.20600
N 	N 	0.81896 0.53302 0.08842 -0.32100
C 	C 	0.83382 0.60911 0.11003 -0.02500
H 	H 	0.80900 0.65410 0.08920 -0.01500
H 	H 	0.86120 0.38590 0.07280 0.12700
N 	N 	0.03302 0.41158 0.68104 -0.39900
C 	C 	0.10911 0.38997 0.66618 -0.03000
H 	H 	0.15410 0.41080 0.69100 -0.00600
H 	H 	0.88590 0.42720 0.63880 0.20500
N 	N 	0.53302 0.91158 0.18104 -0.28600
C 	C 	0.60911 0.88997 0.16618 -0.01300
H 	H 	0.65410 0.91080 0.19100 0.01000
H 	H 	0.38590 0.92720 0.13880 0.16200
N 	N 	0.96698 0.41158 0.31896 -0.20900
C 	C 	0.89089 0.38997 0.33382 -0.01200
H 	H 	0.84590 0.41080 0.30900 -0.00600
H 	H 	0.11410 0.42720 0.36120 0.09200
N 	N 	0.46698 0.91158 0.81896 -0.29000
C 	C 	0.39089 0.88997 0.83382 -0.00500
H 	H 	0.34590 0.91080 0.80900 0.01400
H 	H 	0.61410 0.92720 0.86120 0.22100
N 	N 	0.96698 0.58842 0.68104 -0.20900
C 	C 	0.89089 0.61003 0.66618 -0.00800
H 	H 	0.84590 0.58920 0.69100 -0.00600
H 	H 	0.11410 0.57280 0.63880 0.09300
N 	N 	0.46698 0.08842 0.18104 -0.31900
C 	C 	0.39089 0.11003 0.16618 -0.03700
H 	H 	0.34590 0.08920 0.19100 -0.03200
H 	H 	0.61410 0.07280 0.13880 0.08600
N 	N 	0.03302 0.58842 0.31896 -0.39900
C 	C 	0.10911 0.61003 0.33382 -0.03000
H 	H 	0.15410 0.58920 0.30900 -0.00500
H 	H 	0.88590 0.57280 0.36120 0.20600
N 	N 	0.53302 0.08842 0.81896 -0.32100
C 	C 	0.60911 0.11003 0.83382 -0.02500
H 	H 	0.65410 0.08920 0.80900 -0.01500
H 	H 	0.38590 0.07280 0.86120 0.12700
N 	N 	0.41158 0.68104 0.03302 -0.39900
C 	C 	0.38997 0.66618 0.10911 -0.03000
H 	H 	0.41080 0.69100 0.15410 -0.00600
H 	H 	0.42720 0.63880 0.88590 0.20500
N 	N 	0.91158 0.18104 0.53302 -0.28600
C 	C 	0.88997 0.16618 0.60911 -0.01300
H 	H 	0.91080 0.19100 0.65410 0.01000
H 	H 	0.92720 0.13880 0.38590 0.16200
N 	N 	0.41158 0.31896 0.96698 -0.20900
C 	C 	0.38997 0.33382 0.89089 -0.01200
H 	H 	0.41080 0.30900 0.84590 -0.00600
H 	H 	0.42720 0.36120 0.11410 0.09200
N 	N 	0.91158 0.81896 0.46698 -0.29000
C 	C 	0.88997 0.83382 0.39089 -0.00500
H 	H 	0.91080 0.80900 0.34590 0.01400
H 	H 	0.92720 0.86120 0.61410 0.22100
N 	N 	0.58842 0.68104 0.96698 -0.20900
C 	C 	0.61003 0.66618 0.89089 -0.00800
H 	H 	0.58920 0.69100 0.84590 -0.00600
H 	H 	0.57280 0.63880 0.11410 0.09300
N 	N 	0.08842 0.18104 0.46698 -0.31900
C 	C 	0.11003 0.16618 0.39089 -0.03700
H 	H 	0.08920 0.19100 0.34590 -0.03200
H 	H 	0.07280 0.13880 0.61410 0.08600
N 	N 	0.58842 0.31896 0.03302 -0.39900
C 	C 	0.61003 0.33382 0.10911 -0.03000
H 	H 	0.58920 0.30900 0.15410 -0.00500
H 	H 	0.57280 0.36120 0.88590 0.20600
N 	N 	0.08842 0.81896 0.53302 -0.32100
C 	C 	0.11003 0.83382 0.60911 -0.02500
H 	H 	0.08920 0.80900 0.65410 -0.01500
H 	H 	0.07280 0.86120 0.38590 0.12700
Zn	Zn	0.00000 0.75000 0.50000 1.13500
Zn	Zn	0.00000 0.25000 0.50000 1.13400
Zn	Zn	0.50000 0.00000 0.75000 1.13500
Zn	Zn	0.50000 0.00000 0.25000 1.13400
Zn	Zn	0.75000 0.50000 -0.00000 1.13500
Zn	Zn	0.25000 0.50000 -0.00000 1.13400
Zn	Zn	0.75000 0.00000 0.50000 1.13500
Zn	Zn	0.25000 0.00000 0.50000 1.13400
Zn	Zn	0.00000 0.50000 0.75000 1.13500
Zn	Zn	0.00000 0.50000 0.25000 1.13400
Zn	Zn	0.50000 0.75000 -0.00000 1.13500
Zn	Zn	0.50000 0.25000 -0.00000 1.13400
C 	C 	0.99010 0.63222 0.36778 0.42000
C 	C 	0.90220 0.62613 0.37387 -0.74100
H 	H 	0.87800 0.66280 0.33720 0.21900
C 	C 	0.49010 0.13222 0.86778 0.20200
C 	C 	0.40220 0.12613 0.87387 -0.56900
H 	H 	0.37800 0.16280 0.83720 0.16200
C 	C 	0.00990 0.36778 0.36778 -0.01500
C 	C 	0.09780 0.37387 0.37387 -0.40800
H 	H 	0.12200 0.33720 0.33720 0.11100
C 	C 	0.50990 0.86778 0.86778 0.25300
C 	C 	0.59780 0.87387 0.87387 -0.67500
H 	H 	0.62200 0.83720 0.83720 0.20800
C 	C 	0.00990 0.63222 0.63222 -0.01000
C 	C 	0.09780 0.62613 0.62613 -0.41300
H 	H 	0.12200 0.66280 0.66280 0.11600
C 	C 	0.50990 0.13222 0.13222 0.15800
C 	C 	0.59780 0.12613 0.12613 -0.49100
H 	H 	0.62200 0.16280 0.16280 0.13300
C 	C 	0.99010 0.36778 0.63222 0.42000
C 	C 	0.90220 0.37387 0.62613 -0.74100
H 	H 	0.87800 0.33720 0.66280 0.21900
C 	C 	0.49010 0.86778 0.13222 0.20200
C 	C 	0.40220 0.87387 0.12613 -0.56900
H 	H 	0.37800 0.83720 0.16280 0.16200
C 	C 	0.36778 0.99010 0.63222 0.42000
C 	C 	0.37387 0.90220 0.62613 -0.74100
H 	H 	0.33720 0.87800 0.66280 0.21900
C 	C 	0.86778 0.49010 0.13222 0.20200
C 	C 	0.87387 0.40220 0.12613 -0.56900
H 	H 	0.83720 0.37800 0.16280 0.16200
C 	C 	0.36778 0.00990 0.36778 -0.01500
C 	C 	0.37387 0.09780 0.37387 -0.40800
H 	H 	0.33720 0.12200 0.33720 0.11100
C 	C 	0.86778 0.50990 0.86778 0.25300
C 	C 	0.87387 0.59780 0.87387 -0.67500
H 	H 	0.83720 0.62200 0.83720 0.20800
C 	C 	0.63222 0.00990 0.63222 -0.01000
C 	C 	0.62613 0.09780 0.62613 -0.41300
H 	H 	0.66280 0.12200 0.66280 0.11600
C 	C 	0.13222 0.50990 0.13222 0.15800
C 	C 	0.12613 0.59780 0.12613 -0.49100
H 	H 	0.16280 0.62200 0.16280 0.13300
C 	C 	0.63222 0.99010 0.36778 0.42000
C 	C 	0.62613 0.90220 0.37387 -0.74100
H 	H 	0.66280 0.87800 0.33720 0.21900
C 	C 	0.13222 0.49010 0.86778 0.20200
C 	C 	0.12613 0.40220 0.87387 -0.56900
H 	H 	0.16280 0.37800 0.83720 0.16200
C 	C 	0.63222 0.36778 0.99010 0.42000
C 	C 	0.62613 0.37387 0.90220 -0.74100
H 	H 	0.66280 0.33720 0.87800 0.21900
C 	C 	0.13222 0.86778 0.49010 0.20200
C 	C 	0.12613 0.87387 0.40220 -0.56900
H 	H 	0.16280 0.83720 0.37800 0.16200
C 	C 	0.36778 0.36778 0.00990 -0.01500
C 	C 	0.37387 0.37387 0.09780 -0.40800
H 	H 	0.33720 0.33720 0.12200 0.11100
C 	C 	0.86778 0.86778 0.50990 0.25300
C 	C 	0.87387 0.87387 0.59780 -0.67500
H 	H 	0.83720 0.83720 0.62200 0.20800
C 	C 	0.63222 0.63222 0.00990 -0.01000
C 	C 	0.62613 0.62613 0.09780 -0.41300
H 	H 	0.66280 0.66280 0.12200 0.11600
C 	C 	0.13222 0.13222 0.50990 0.15800
C 	C 	0.12613 0.12613 0.59780 -0.49100
H 	H 	0.16280 0.16280 0.62200 0.13300
C 	C 	0.36778 0.63222 0.99010 0.42000
C 	C 	0.37387 0.62613 0.90220 -0.74100
H 	H 	0.33720 0.66280 0.87800 0.21900
C 	C 	0.86778 0.13222 0.49010 0.20200
C 	C 	0.87387 0.12613 0.40220 -0.56900
H 	H 	0.83720 0.16280 0.37800 0.16200
