data_crystal

_cell_length_a 17.13300
_cell_length_b 17.13300
_cell_length_c 17.13300
_cell_angle_alpha 90.00000
_cell_angle_beta  90.00000
_cell_angle_gamma 90.00000

_symmetry_space_group_name_	'P 1'
_symmetry_space_group_name_H-M	'P 1'

loop_
_symmetry_equiv_pos_as_xyz
  x,y,z

loop_
_atom_site_label
_atom_site_type_symbol
_atom_site_fract_x
_atom_site_fract_y
_atom_site_fract_z
_atom_site_charge
N 	N 	0.03314 0.68114 0.41128 -0.39800
C 	C 	0.10931 0.66610 0.39010 -0.03100
H 	H 	0.15420 0.69080 0.41120 -0.00700
H 	H 	0.88590 0.63870 0.42730 0.20400
N 	N 	0.53314 0.18114 0.91128 -0.28600
C 	C 	0.60931 0.16610 0.89010 -0.01400
H 	H 	0.65420 0.19080 0.91120 0.00900
H 	H 	0.38590 0.13870 0.92730 0.16000
N 	N 	0.96686 0.31886 0.41128 -0.21000
C 	C 	0.89069 0.33390 0.39010 -0.01300
H 	H 	0.84580 0.30920 0.41120 -0.00700
H 	H 	0.11410 0.36130 0.42730 0.09000
N 	N 	0.46686 0.81886 0.91128 -0.29000
C 	C 	0.39069 0.83390 0.89010 -0.00600
H 	H 	0.34580 0.80920 0.91120 0.01300
H 	H 	0.61410 0.86130 0.92730 0.22000
N 	N 	0.96686 0.68114 0.58872 -0.20900
C 	C 	0.89069 0.66610 0.60990 -0.01000
H 	H 	0.84580 0.69080 0.58880 -0.00700
H 	H 	0.11410 0.63870 0.57270 0.09100
N 	N 	0.46686 0.18114 0.08872 -0.31800
C 	C 	0.39069 0.16610 0.10990 -0.03700
H 	H 	0.34580 0.19080 0.08880 -0.03200
H 	H 	0.61410 0.13870 0.07270 0.08600
N 	N 	0.03314 0.31886 0.58872 -0.39700
C 	C 	0.10931 0.33390 0.60990 -0.03000
H 	H 	0.15420 0.30920 0.58880 -0.00500
H 	H 	0.88590 0.36130 0.57270 0.20500
N 	N 	0.53314 0.81886 0.08872 -0.31900
C 	C 	0.60931 0.83390 0.10990 -0.02500
H 	H 	0.65420 0.80920 0.08880 -0.01500
H 	H 	0.38590 0.86130 0.07270 0.12700
N 	N 	0.41128 0.03314 0.68114 -0.39700
C 	C 	0.39010 0.10931 0.66610 -0.03000
H 	H 	0.41120 0.15420 0.69080 -0.00600
H 	H 	0.42730 0.88590 0.63870 0.20500
N 	N 	0.91128 0.53314 0.18114 -0.28500
C 	C 	0.89010 0.60931 0.16610 -0.01300
H 	H 	0.91120 0.65420 0.19080 0.01000
H 	H 	0.92730 0.38590 0.13870 0.16100
N 	N 	0.41128 0.96686 0.31886 -0.20900
C 	C 	0.39010 0.89069 0.33390 -0.01200
H 	H 	0.41120 0.84580 0.30920 -0.00600
H 	H 	0.42730 0.11410 0.36130 0.09100
N 	N 	0.91128 0.46686 0.81886 -0.28900
C 	C 	0.89010 0.39069 0.83390 -0.00500
H 	H 	0.91120 0.34580 0.80920 0.01400
H 	H 	0.92730 0.61410 0.86130 0.22100
N 	N 	0.58872 0.96686 0.68114 -0.20800
C 	C 	0.60990 0.89069 0.66610 -0.00900
H 	H 	0.58880 0.84580 0.69080 -0.00600
H 	H 	0.57270 0.11410 0.63870 0.09200
N 	N 	0.08872 0.46686 0.18114 -0.31700
C 	C 	0.10990 0.39069 0.16610 -0.03700
H 	H 	0.08880 0.34580 0.19080 -0.03200
H 	H 	0.07270 0.61410 0.13870 0.08600
N 	N 	0.58872 0.03314 0.31886 -0.39700
C 	C 	0.60990 0.10931 0.33390 -0.03000
H 	H 	0.58880 0.15420 0.30920 -0.00500
H 	H 	0.57270 0.88590 0.36130 0.20500
N 	N 	0.08872 0.53314 0.81886 -0.31900
C 	C 	0.10990 0.60931 0.83390 -0.02500
H 	H 	0.08880 0.65420 0.80920 -0.01500
H 	H 	0.07270 0.38590 0.86130 0.12700
N 	N 	0.68114 0.41128 0.03314 -0.39700
C 	C 	0.66610 0.39010 0.10931 -0.03000
H 	H 	0.69080 0.41120 0.15420 -0.00600
H 	H 	0.63870 0.42730 0.88590 0.20500
N 	N 	0.18114 0.91128 0.53314 -0.28500
C 	C 	0.16610 0.89010 0.60931 -0.01300
H 	H 	0.19080 0.91120 0.65420 0.01000
H 	H 	0.13870 0.92730 0.38590 0.16100
N 	N 	0.31886 0.41128 0.96686 -0.20900
C 	C 	0.33390 0.39010 0.89069 -0.01200
H 	H 	0.30920 0.41120 0.84580 -0.00600
H 	H 	0.36130 0.42730 0.11410 0.09100
N 	N 	0.81886 0.91128 0.46686 -0.28900
C 	C 	0.83390 0.89010 0.39069 -0.00500
H 	H 	0.80920 0.91120 0.34580 0.01400
H 	H 	0.86130 0.92730 0.61410 0.22100
N 	N 	0.68114 0.58872 0.96686 -0.20800
C 	C 	0.66610 0.60990 0.89069 -0.00900
H 	H 	0.69080 0.58880 0.84580 -0.00600
H 	H 	0.63870 0.57270 0.11410 0.09200
N 	N 	0.18114 0.08872 0.46686 -0.31700
C 	C 	0.16610 0.10990 0.39069 -0.03700
H 	H 	0.19080 0.08880 0.34580 -0.03200
H 	H 	0.13870 0.07270 0.61410 0.08600
N 	N 	0.31886 0.58872 0.03314 -0.39700
C 	C 	0.33390 0.60990 0.10931 -0.03000
H 	H 	0.30920 0.58880 0.15420 -0.00500
H 	H 	0.36130 0.57270 0.88590 0.20500
N 	N 	0.81886 0.08872 0.53314 -0.31900
C 	C 	0.83390 0.10990 0.60931 -0.02500
H 	H 	0.80920 0.08880 0.65420 -0.01500
H 	H 	0.86130 0.07270 0.38590 0.12700
N 	N 	0.68114 0.03314 0.41128 -0.39700
C 	C 	0.66610 0.10931 0.39010 -0.03000
H 	H 	0.69080 0.15420 0.41120 -0.00600
H 	H 	0.63870 0.88590 0.42730 0.20500
N 	N 	0.18114 0.53314 0.91128 -0.28500
C 	C 	0.16610 0.60931 0.89010 -0.01300
H 	H 	0.19080 0.65420 0.91120 0.01000
H 	H 	0.13870 0.38590 0.92730 0.16100
N 	N 	0.31886 0.96686 0.41128 -0.20900
C 	C 	0.33390 0.89069 0.39010 -0.01200
H 	H 	0.30920 0.84580 0.41120 -0.00600
H 	H 	0.36130 0.11410 0.42730 0.09100
N 	N 	0.81886 0.46686 0.91128 -0.28900
C 	C 	0.83390 0.39069 0.89010 -0.00500
H 	H 	0.80920 0.34580 0.91120 0.01400
H 	H 	0.86130 0.61410 0.92730 0.22100
N 	N 	0.68114 0.96686 0.58872 -0.20800
C 	C 	0.66610 0.89069 0.60990 -0.00900
H 	H 	0.69080 0.84580 0.58880 -0.00600
H 	H 	0.63870 0.11410 0.57270 0.09200
N 	N 	0.18114 0.46686 0.08872 -0.31700
C 	C 	0.16610 0.39069 0.10990 -0.03700
H 	H 	0.19080 0.34580 0.08880 -0.03200
H 	H 	0.13870 0.61410 0.07270 0.08600
N 	N 	0.31886 0.03314 0.58872 -0.39700
C 	C 	0.33390 0.10931 0.60990 -0.03000
H 	H 	0.30920 0.15420 0.58880 -0.00500
H 	H 	0.36130 0.88590 0.57270 0.20500
N 	N 	0.81886 0.53314 0.08872 -0.31900
C 	C 	0.83390 0.60931 0.10990 -0.02500
H 	H 	0.80920 0.65420 0.08880 -0.01500
H 	H 	0.86130 0.38590 0.07270 0.12700
N 	N 	0.03314 0.41128 0.68114 -0.39700
C 	C 	0.10931 0.39010 0.66610 -0.03000
H 	H 	0.15420 0.41120 0.69080 -0.00600
H 	H 	0.88590 0.42730 0.63870 0.20500
N 	N 	0.53314 0.91128 0.18114 -0.28500
C 	C 	0.60931 0.89010 0.16610 -0.01300
H 	H 	0.65420 0.91120 0.19080 0.01000
H 	H 	0.38590 0.92730 0.13870 0.16100
N 	N 	0.96686 0.41128 0.31886 -0.20900
C 	C 	0.89069 0.39010 0.33390 -0.01200
H 	H 	0.84580 0.41120 0.30920 -0.00600
H 	H 	0.11410 0.42730 0.36130 0.09100
N 	N 	0.46686 0.91128 0.81886 -0.28900
C 	C 	0.39069 0.89010 0.83390 -0.00500
H 	H 	0.34580 0.91120 0.80920 0.01400
H 	H 	0.61410 0.92730 0.86130 0.22100
N 	N 	0.96686 0.58872 0.68114 -0.20800
C 	C 	0.89069 0.60990 0.66610 -0.00900
H 	H 	0.84580 0.58880 0.69080 -0.00600
H 	H 	0.11410 0.57270 0.63870 0.09200
N 	N 	0.46686 0.08872 0.18114 -0.31700
C 	C 	0.39069 0.10990 0.16610 -0.03700
H 	H 	0.34580 0.08880 0.19080 -0.03200
H 	H 	0.61410 0.07270 0.13870 0.08600
N 	N 	0.03314 0.58872 0.31886 -0.39700
C 	C 	0.10931 0.60990 0.33390 -0.03000
H 	H 	0.15420 0.58880 0.30920 -0.00500
H 	H 	0.88590 0.57270 0.36130 0.20500
N 	N 	0.53314 0.08872 0.81886 -0.31900
C 	C 	0.60931 0.10990 0.83390 -0.02500
H 	H 	0.65420 0.08880 0.80920 -0.01500
H 	H 	0.38590 0.07270 0.86130 0.12700
N 	N 	0.41128 0.68114 0.03314 -0.39700
C 	C 	0.39010 0.66610 0.10931 -0.03000
H 	H 	0.41120 0.69080 0.15420 -0.00600
H 	H 	0.42730 0.63870 0.88590 0.20500
N 	N 	0.91128 0.18114 0.53314 -0.28500
C 	C 	0.89010 0.16610 0.60931 -0.01300
H 	H 	0.91120 0.19080 0.65420 0.01000
H 	H 	0.92730 0.13870 0.38590 0.16100
N 	N 	0.41128 0.31886 0.96686 -0.20900
C 	C 	0.39010 0.33390 0.89069 -0.01200
H 	H 	0.41120 0.30920 0.84580 -0.00600
H 	H 	0.42730 0.36130 0.11410 0.09100
N 	N 	0.91128 0.81886 0.46686 -0.28900
C 	C 	0.89010 0.83390 0.39069 -0.00500
H 	H 	0.91120 0.80920 0.34580 0.01400
H 	H 	0.92730 0.86130 0.61410 0.22100
N 	N 	0.58872 0.68114 0.96686 -0.20800
C 	C 	0.60990 0.66610 0.89069 -0.00900
H 	H 	0.58880 0.69080 0.84580 -0.00600
H 	H 	0.57270 0.63870 0.11410 0.09200
N 	N 	0.08872 0.18114 0.46686 -0.31700
C 	C 	0.10990 0.16610 0.39069 -0.03700
H 	H 	0.08880 0.19080 0.34580 -0.03200
H 	H 	0.07270 0.13870 0.61410 0.08600
N 	N 	0.58872 0.31886 0.03314 -0.39700
C 	C 	0.60990 0.33390 0.10931 -0.03000
H 	H 	0.58880 0.30920 0.15420 -0.00500
H 	H 	0.57270 0.36130 0.88590 0.20500
N 	N 	0.08872 0.81886 0.53314 -0.31900
C 	C 	0.10990 0.83390 0.60931 -0.02500
H 	H 	0.08880 0.80920 0.65420 -0.01500
H 	H 	0.07270 0.86130 0.38590 0.12700
Zn	Zn	-0.00000 0.75000 0.50000 1.13500
Zn	Zn	0.00000 0.25000 0.50000 1.13300
Zn	Zn	0.50000 0.00000 0.75000 1.13500
Zn	Zn	0.50000 0.00000 0.25000 1.13300
Zn	Zn	0.75000 0.50000 -0.00000 1.13500
Zn	Zn	0.25000 0.50000 -0.00000 1.13300
Zn	Zn	0.75000 0.00000 0.50000 1.13500
Zn	Zn	0.25000 0.00000 0.50000 1.13300
Zn	Zn	-0.00000 0.50000 0.75000 1.13500
Zn	Zn	0.00000 0.50000 0.25000 1.13300
Zn	Zn	0.50000 0.75000 -0.00000 1.13500
Zn	Zn	0.50000 0.25000 -0.00000 1.13300
C 	C 	0.99000 0.63219 0.36781 0.41800
C 	C 	0.90220 0.62600 0.37400 -0.73900
H 	H 	0.87790 0.66260 0.33740 0.21900
C 	C 	0.49000 0.13219 0.86781 0.20000
C 	C 	0.40220 0.12600 0.87400 -0.56700
H 	H 	0.37790 0.16260 0.83740 0.16200
C 	C 	0.01000 0.36781 0.36781 -0.01600
C 	C 	0.09780 0.37400 0.37400 -0.40700
H 	H 	0.12210 0.33740 0.33740 0.11100
C 	C 	0.51000 0.86781 0.86781 0.25100
C 	C 	0.59780 0.87400 0.87400 -0.67400
H 	H 	0.62210 0.83740 0.83740 0.20800
C 	C 	0.01000 0.63219 0.63219 -0.01100
C 	C 	0.09780 0.62600 0.62600 -0.41200
H 	H 	0.12210 0.66260 0.66260 0.11600
C 	C 	0.51000 0.13219 0.13219 0.15600
C 	C 	0.59780 0.12600 0.12600 -0.49000
H 	H 	0.62210 0.16260 0.16260 0.13300
C 	C 	0.99000 0.36781 0.63219 0.41800
C 	C 	0.90220 0.37400 0.62600 -0.73900
H 	H 	0.87790 0.33740 0.66260 0.21900
C 	C 	0.49000 0.86781 0.13219 0.20000
C 	C 	0.40220 0.87400 0.12600 -0.56700
H 	H 	0.37790 0.83740 0.16260 0.16200
C 	C 	0.36781 0.99000 0.63219 0.41800
C 	C 	0.37400 0.90220 0.62600 -0.73900
H 	H 	0.33740 0.87790 0.66260 0.21900
C 	C 	0.86781 0.49000 0.13219 0.20000
C 	C 	0.87400 0.40220 0.12600 -0.56700
H 	H 	0.83740 0.37790 0.16260 0.16200
C 	C 	0.36781 0.01000 0.36781 -0.01600
C 	C 	0.37400 0.09780 0.37400 -0.40700
H 	H 	0.33740 0.12210 0.33740 0.11100
C 	C 	0.86781 0.51000 0.86781 0.25100
C 	C 	0.87400 0.59780 0.87400 -0.67400
H 	H 	0.83740 0.62210 0.83740 0.20800
C 	C 	0.63219 0.01000 0.63219 -0.01100
C 	C 	0.62600 0.09780 0.62600 -0.41200
H 	H 	0.66260 0.12210 0.66260 0.11600
C 	C 	0.13219 0.51000 0.13219 0.15600
C 	C 	0.12600 0.59780 0.12600 -0.49000
H 	H 	0.16260 0.62210 0.16260 0.13300
C 	C 	0.63219 0.99000 0.36781 0.41800
C 	C 	0.62600 0.90220 0.37400 -0.73900
H 	H 	0.66260 0.87790 0.33740 0.21900
C 	C 	0.13219 0.49000 0.86781 0.20000
C 	C 	0.12600 0.40220 0.87400 -0.56700
H 	H 	0.16260 0.37790 0.83740 0.16200
C 	C 	0.63219 0.36781 0.99000 0.41800
C 	C 	0.62600 0.37400 0.90220 -0.73900
H 	H 	0.66260 0.33740 0.87790 0.21900
C 	C 	0.13219 0.86781 0.49000 0.20000
C 	C 	0.12600 0.87400 0.40220 -0.56700
H 	H 	0.16260 0.83740 0.37790 0.16200
C 	C 	0.36781 0.36781 0.01000 -0.01600
C 	C 	0.37400 0.37400 0.09780 -0.40700
H 	H 	0.33740 0.33740 0.12210 0.11100
C 	C 	0.86781 0.86781 0.51000 0.25100
C 	C 	0.87400 0.87400 0.59780 -0.67400
H 	H 	0.83740 0.83740 0.62210 0.20800
C 	C 	0.63219 0.63219 0.01000 -0.01100
C 	C 	0.62600 0.62600 0.09780 -0.41200
H 	H 	0.66260 0.66260 0.12210 0.11600
C 	C 	0.13219 0.13219 0.51000 0.15600
C 	C 	0.12600 0.12600 0.59780 -0.49000
H 	H 	0.16260 0.16260 0.62210 0.13300
C 	C 	0.36781 0.63219 0.99000 0.41800
C 	C 	0.37400 0.62600 0.90220 -0.73900
H 	H 	0.33740 0.66260 0.87790 0.21900
C 	C 	0.86781 0.13219 0.49000 0.20000
C 	C 	0.87400 0.12600 0.40220 -0.56700
H 	H 	0.83740 0.16260 0.37790 0.16200
