data_crystal

_cell_length_a 17.06590
_cell_length_b 17.06590
_cell_length_c 17.06590
_cell_angle_alpha 90.00000
_cell_angle_beta  90.00000
_cell_angle_gamma 90.00000

_symmetry_space_group_name_	'P 1'
_symmetry_space_group_name_H-M	'P 1'

loop_
_symmetry_equiv_pos_as_xyz
  x,y,z

loop_
_atom_site_label
_atom_site_type_symbol
_atom_site_fract_x
_atom_site_fract_y
_atom_site_fract_z
_atom_site_charge
N 	N 	0.02760 0.68220 0.40940 -0.41900
C 	C 	0.09870 0.68050 0.37480 0.05700
H 	H 	0.14170 0.71340 0.38760 -0.03400
H 	H 	0.89890 0.61350 0.45240 0.22500
N 	N 	0.09870 0.62520 0.31950 -0.15500
N 	N 	0.52760 0.18220 0.90940 -0.30500
C 	C 	0.59870 0.18050 0.87480 0.07400
H 	H 	0.64170 0.21340 0.88760 -0.02300
H 	H 	0.39890 0.11350 0.95240 0.17400
N 	N 	0.59870 0.12520 0.81950 -0.15600
N 	N 	0.97240 0.31780 0.40940 -0.22900
C 	C 	0.90130 0.31950 0.37480 0.07600
H 	H 	0.85830 0.28660 0.38760 -0.03600
H 	H 	0.10110 0.38650 0.45240 0.09300
N 	N 	0.90130 0.37480 0.31950 -0.15100
N 	N 	0.47240 0.81780 0.90940 -0.31400
C 	C 	0.40130 0.81950 0.87480 0.08700
H 	H 	0.35830 0.78660 0.88760 -0.02300
H 	H 	0.60110 0.88650 0.95240 0.24500
N 	N 	0.40130 0.87480 0.81950 -0.14900
N 	N 	0.97240 0.68220 0.59060 -0.22900
C 	C 	0.90130 0.68050 0.62520 0.08300
H 	H 	0.85830 0.71340 0.61240 -0.03500
H 	H 	0.10110 0.61350 0.54760 0.09400
N 	N 	0.90130 0.62520 0.68050 -0.14900
N 	N 	0.47240 0.18220 0.09060 -0.33700
C 	C 	0.40130 0.18050 0.12520 0.04600
H 	H 	0.35830 0.21340 0.11240 -0.05300
H 	H 	0.60110 0.11350 0.04760 0.08300
N 	N 	0.40130 0.12520 0.18050 -0.15700
N 	N 	0.02760 0.31780 0.59060 -0.42000
C 	C 	0.09870 0.31950 0.62520 0.05500
H 	H 	0.14170 0.28660 0.61240 -0.03500
H 	H 	0.89890 0.38650 0.54760 0.22400
N 	N 	0.09870 0.37480 0.68050 -0.15600
N 	N 	0.52760 0.81780 0.09060 -0.34200
C 	C 	0.59870 0.81950 0.12520 0.06400
H 	H 	0.64170 0.78660 0.11240 -0.04300
H 	H 	0.39890 0.88650 0.04760 0.13600
N 	N 	0.59870 0.87480 0.18050 -0.15000
N 	N 	0.40940 0.02760 0.68220 -0.42000
C 	C 	0.37480 0.09870 0.68050 0.05600
H 	H 	0.38760 0.14170 0.71340 -0.03500
H 	H 	0.45240 0.89890 0.61350 0.22400
N 	N 	0.31950 0.09870 0.62520 -0.15600
N 	N 	0.90940 0.52760 0.18220 -0.30600
C 	C 	0.87480 0.59870 0.18050 0.07400
H 	H 	0.88760 0.64170 0.21340 -0.02300
H 	H 	0.95240 0.39890 0.11350 0.17400
N 	N 	0.81950 0.59870 0.12520 -0.15600
N 	N 	0.40940 0.97240 0.31780 -0.22900
C 	C 	0.37480 0.90130 0.31950 0.07600
H 	H 	0.38760 0.85830 0.28660 -0.03600
H 	H 	0.45240 0.10110 0.38650 0.09300
N 	N 	0.31950 0.90130 0.37480 -0.15100
N 	N 	0.90940 0.47240 0.81780 -0.31400
C 	C 	0.87480 0.40130 0.81950 0.08700
H 	H 	0.88760 0.35830 0.78660 -0.02300
H 	H 	0.95240 0.60110 0.88650 0.24500
N 	N 	0.81950 0.40130 0.87480 -0.14900
N 	N 	0.59060 0.97240 0.68220 -0.22900
C 	C 	0.62520 0.90130 0.68050 0.08300
H 	H 	0.61240 0.85830 0.71340 -0.03500
H 	H 	0.54760 0.10110 0.61350 0.09400
N 	N 	0.68050 0.90130 0.62520 -0.14900
N 	N 	0.09060 0.47240 0.18220 -0.33700
C 	C 	0.12520 0.40130 0.18050 0.04600
H 	H 	0.11240 0.35830 0.21340 -0.05300
H 	H 	0.04760 0.60110 0.11350 0.08300
N 	N 	0.18050 0.40130 0.12520 -0.15700
N 	N 	0.59060 0.02760 0.31780 -0.42000
C 	C 	0.62520 0.09870 0.31950 0.05500
H 	H 	0.61240 0.14170 0.28660 -0.03500
H 	H 	0.54760 0.89890 0.38650 0.22400
N 	N 	0.68050 0.09870 0.37480 -0.15600
N 	N 	0.09060 0.52760 0.81780 -0.34200
C 	C 	0.12520 0.59870 0.81950 0.06400
H 	H 	0.11240 0.64170 0.78660 -0.04300
H 	H 	0.04760 0.39890 0.88650 0.13600
N 	N 	0.18050 0.59870 0.87480 -0.15000
N 	N 	0.68220 0.40940 0.02760 -0.42000
C 	C 	0.68050 0.37480 0.09870 0.05600
H 	H 	0.71340 0.38760 0.14170 -0.03500
H 	H 	0.61350 0.45240 0.89890 0.22400
N 	N 	0.62520 0.31950 0.09870 -0.15600
N 	N 	0.18220 0.90940 0.52760 -0.30600
C 	C 	0.18050 0.87480 0.59870 0.07400
H 	H 	0.21340 0.88760 0.64170 -0.02300
H 	H 	0.11350 0.95240 0.39890 0.17400
N 	N 	0.12520 0.81950 0.59870 -0.15600
N 	N 	0.31780 0.40940 0.97240 -0.22900
C 	C 	0.31950 0.37480 0.90130 0.07600
H 	H 	0.28660 0.38760 0.85830 -0.03600
H 	H 	0.38650 0.45240 0.10110 0.09300
N 	N 	0.37480 0.31950 0.90130 -0.15100
N 	N 	0.81780 0.90940 0.47240 -0.31400
C 	C 	0.81950 0.87480 0.40130 0.08700
H 	H 	0.78660 0.88760 0.35830 -0.02300
H 	H 	0.88650 0.95240 0.60110 0.24500
N 	N 	0.87480 0.81950 0.40130 -0.14900
N 	N 	0.68220 0.59060 0.97240 -0.22900
C 	C 	0.68050 0.62520 0.90130 0.08300
H 	H 	0.71340 0.61240 0.85830 -0.03500
H 	H 	0.61350 0.54760 0.10110 0.09400
N 	N 	0.62520 0.68050 0.90130 -0.14900
N 	N 	0.18220 0.09060 0.47240 -0.33700
C 	C 	0.18050 0.12520 0.40130 0.04600
H 	H 	0.21340 0.11240 0.35830 -0.05300
H 	H 	0.11350 0.04760 0.60110 0.08300
N 	N 	0.12520 0.18050 0.40130 -0.15700
N 	N 	0.31780 0.59060 0.02760 -0.42000
C 	C 	0.31950 0.62520 0.09870 0.05500
H 	H 	0.28660 0.61240 0.14170 -0.03500
H 	H 	0.38650 0.54760 0.89890 0.22400
N 	N 	0.37480 0.68050 0.09870 -0.15600
N 	N 	0.81780 0.09060 0.52760 -0.34200
C 	C 	0.81950 0.12520 0.59870 0.06400
H 	H 	0.78660 0.11240 0.64170 -0.04300
H 	H 	0.88650 0.04760 0.39890 0.13600
N 	N 	0.87480 0.18050 0.59870 -0.15000
N 	N 	0.68220 0.02760 0.40940 -0.38400
H 	H 	0.71340 0.14170 0.38760 0.04700
H 	H 	0.61350 0.89890 0.45240 0.22400
N 	N 	0.18220 0.52760 0.90940 -0.26800
H 	H 	0.21340 0.64170 0.88760 0.06400
H 	H 	0.11350 0.39890 0.95240 0.17400
N 	N 	0.31780 0.97240 0.40940 -0.19000
H 	H 	0.28660 0.85830 0.38760 0.05200
H 	H 	0.38650 0.10110 0.45240 0.09400
N 	N 	0.81780 0.47240 0.90940 -0.27300
H 	H 	0.78660 0.35830 0.88760 0.06900
H 	H 	0.88650 0.60110 0.95240 0.24500
N 	N 	0.68220 0.97240 0.59060 -0.18900
H 	H 	0.71340 0.85830 0.61240 0.05500
H 	H 	0.61350 0.10110 0.54760 0.09400
N 	N 	0.18220 0.47240 0.09060 -0.30200
H 	H 	0.21340 0.35830 0.11240 0.02600
H 	H 	0.11350 0.60110 0.04760 0.08300
N 	N 	0.31780 0.02760 0.59060 -0.38400
H 	H 	0.28660 0.14170 0.61240 0.04700
H 	H 	0.38650 0.89890 0.54760 0.22400
N 	N 	0.81780 0.52760 0.09060 -0.30500
H 	H 	0.78660 0.64170 0.11240 0.04200
H 	H 	0.88650 0.39890 0.04760 0.13600
N 	N 	0.02760 0.40940 0.68220 -0.38400
H 	H 	0.14170 0.38760 0.71340 0.04700
H 	H 	0.89890 0.45240 0.61350 0.22400
N 	N 	0.52760 0.90940 0.18220 -0.26800
H 	H 	0.64170 0.88760 0.21340 0.06400
H 	H 	0.39890 0.95240 0.11350 0.17400
N 	N 	0.97240 0.40940 0.31780 -0.19000
H 	H 	0.85830 0.38760 0.28660 0.05200
H 	H 	0.10110 0.45240 0.38650 0.09400
N 	N 	0.47240 0.90940 0.81780 -0.27300
H 	H 	0.35830 0.88760 0.78660 0.06900
H 	H 	0.60110 0.95240 0.88650 0.24500
N 	N 	0.97240 0.59060 0.68220 -0.18900
H 	H 	0.85830 0.61240 0.71340 0.05500
H 	H 	0.10110 0.54760 0.61350 0.09400
N 	N 	0.47240 0.09060 0.18220 -0.30200
H 	H 	0.35830 0.11240 0.21340 0.02600
H 	H 	0.60110 0.04760 0.11350 0.08300
N 	N 	0.02760 0.59060 0.31780 -0.38400
H 	H 	0.14170 0.61240 0.28660 0.04700
H 	H 	0.89890 0.54760 0.38650 0.22400
N 	N 	0.52760 0.09060 0.81780 -0.30500
H 	H 	0.64170 0.11240 0.78660 0.04200
H 	H 	0.39890 0.04760 0.88650 0.13600
N 	N 	0.40940 0.68220 0.02760 -0.38400
H 	H 	0.38760 0.71340 0.14170 0.04700
H 	H 	0.45240 0.61350 0.89890 0.22400
N 	N 	0.90940 0.18220 0.52760 -0.26800
H 	H 	0.88760 0.21340 0.64170 0.06400
H 	H 	0.95240 0.11350 0.39890 0.17400
N 	N 	0.40940 0.31780 0.97240 -0.19000
H 	H 	0.38760 0.28660 0.85830 0.05200
H 	H 	0.45240 0.38650 0.10110 0.09400
N 	N 	0.90940 0.81780 0.47240 -0.27300
H 	H 	0.88760 0.78660 0.35830 0.06900
H 	H 	0.95240 0.88650 0.60110 0.24500
N 	N 	0.59060 0.68220 0.97240 -0.18900
H 	H 	0.61240 0.71340 0.85830 0.05500
H 	H 	0.54760 0.61350 0.10110 0.09400
N 	N 	0.09060 0.18220 0.47240 -0.30200
H 	H 	0.11240 0.21340 0.35830 0.02600
H 	H 	0.04760 0.11350 0.60110 0.08300
N 	N 	0.59060 0.31780 0.02760 -0.38400
H 	H 	0.61240 0.28660 0.14170 0.04700
H 	H 	0.54760 0.38650 0.89890 0.22400
N 	N 	0.09060 0.81780 0.52760 -0.30500
H 	H 	0.11240 0.78660 0.64170 0.04200
H 	H 	0.04760 0.88650 0.39890 0.13600
Zn	Zn	0.00000 0.75000 0.50000 1.13900
Zn	Zn	0.00000 0.25000 0.50000 1.13700
Zn	Zn	0.50000 0.00000 0.75000 1.13900
Zn	Zn	0.50000 0.00000 0.25000 1.13700
Zn	Zn	0.75000 0.50000 -0.00000 1.13900
Zn	Zn	0.25000 0.50000 -0.00000 1.13700
Zn	Zn	0.75000 0.00000 0.50000 1.13900
Zn	Zn	0.25000 0.00000 0.50000 1.13700
Zn	Zn	0.00000 0.50000 0.75000 1.13900
Zn	Zn	0.00000 0.50000 0.25000 1.13700
Zn	Zn	0.50000 0.75000 -0.00000 1.13900
Zn	Zn	0.50000 0.25000 -0.00000 1.13700
C 	C 	0.98620 0.62770 0.37230 0.45500
C 	C 	0.90590 0.60380 0.39620 -0.79300
H 	H 	0.86720 0.63380 0.36620 0.22900
C 	C 	0.48620 0.12770 0.87230 0.22800
C 	C 	0.40590 0.10380 0.89620 -0.60200
H 	H 	0.36720 0.13380 0.86620 0.16800
C 	C 	0.01380 0.37230 0.37230 0.00300
C 	C 	0.09410 0.39620 0.39620 -0.42300
H 	H 	0.13280 0.36620 0.36620 0.11500
C 	C 	0.51380 0.87230 0.87230 0.28700
C 	C 	0.59410 0.89620 0.89620 -0.73200
H 	H 	0.63280 0.86620 0.86620 0.23000
C 	C 	0.01380 0.62770 0.62770 0.00800
C 	C 	0.09410 0.60380 0.60380 -0.42600
H 	H 	0.13280 0.63380 0.63380 0.11800
C 	C 	0.51380 0.12770 0.12770 0.17800
C 	C 	0.59410 0.10380 0.10380 -0.50200
H 	H 	0.63280 0.13380 0.13380 0.12800
C 	C 	0.98620 0.37230 0.62770 0.45500
C 	C 	0.90590 0.39620 0.60380 -0.79300
H 	H 	0.86720 0.36620 0.63380 0.22900
C 	C 	0.48620 0.87230 0.12770 0.22800
C 	C 	0.40590 0.89620 0.10380 -0.60100
H 	H 	0.36720 0.86620 0.13380 0.16800
C 	C 	0.37230 0.98620 0.62770 0.45500
C 	C 	0.39620 0.90590 0.60380 -0.79300
H 	H 	0.36620 0.86720 0.63380 0.22900
C 	C 	0.87230 0.48620 0.12770 0.22800
C 	C 	0.89620 0.40590 0.10380 -0.60200
H 	H 	0.86620 0.36720 0.13380 0.16800
C 	C 	0.37230 0.01380 0.37230 0.00300
C 	C 	0.39620 0.09410 0.39620 -0.42300
H 	H 	0.36620 0.13280 0.36620 0.11500
C 	C 	0.87230 0.51380 0.87230 0.28700
C 	C 	0.89620 0.59410 0.89620 -0.73200
H 	H 	0.86620 0.63280 0.86620 0.23000
C 	C 	0.62770 0.01380 0.62770 0.00800
C 	C 	0.60380 0.09410 0.60380 -0.42600
H 	H 	0.63380 0.13280 0.63380 0.11800
C 	C 	0.12770 0.51380 0.12770 0.17800
C 	C 	0.10380 0.59410 0.10380 -0.50200
H 	H 	0.13380 0.63280 0.13380 0.12800
C 	C 	0.62770 0.98620 0.37230 0.45500
C 	C 	0.60380 0.90590 0.39620 -0.79300
H 	H 	0.63380 0.86720 0.36620 0.22900
C 	C 	0.12770 0.48620 0.87230 0.22800
C 	C 	0.10380 0.40590 0.89620 -0.60100
H 	H 	0.13380 0.36720 0.86620 0.16800
C 	C 	0.62770 0.37230 0.98620 0.45500
C 	C 	0.60380 0.39620 0.90590 -0.79300
H 	H 	0.63380 0.36620 0.86720 0.22900
C 	C 	0.12770 0.87230 0.48620 0.22800
C 	C 	0.10380 0.89620 0.40590 -0.60200
H 	H 	0.13380 0.86620 0.36720 0.16800
C 	C 	0.37230 0.37230 0.01380 0.00300
C 	C 	0.39620 0.39620 0.09410 -0.42300
H 	H 	0.36620 0.36620 0.13280 0.11500
C 	C 	0.87230 0.87230 0.51380 0.28700
C 	C 	0.89620 0.89620 0.59410 -0.73200
H 	H 	0.86620 0.86620 0.63280 0.23000
C 	C 	0.62770 0.62770 0.01380 0.00800
C 	C 	0.60380 0.60380 0.09410 -0.42600
H 	H 	0.63380 0.63380 0.13280 0.11800
C 	C 	0.12770 0.12770 0.51380 0.17800
C 	C 	0.10380 0.10380 0.59410 -0.50200
H 	H 	0.13380 0.13380 0.63280 0.12800
C 	C 	0.37230 0.62770 0.98620 0.45500
C 	C 	0.39620 0.60380 0.90590 -0.79300
H 	H 	0.36620 0.63380 0.86720 0.22900
C 	C 	0.87230 0.12770 0.48620 0.22800
C 	C 	0.89620 0.10380 0.40590 -0.60100
H 	H 	0.86620 0.13380 0.36720 0.16800
