data_crystal

_cell_length_a 17.07970
_cell_length_b 17.07970
_cell_length_c 17.07970
_cell_angle_alpha 90.00000
_cell_angle_beta  90.00000
_cell_angle_gamma 90.00000

_symmetry_space_group_name_	'P 1'
_symmetry_space_group_name_H-M	'P 1'

loop_
_symmetry_equiv_pos_as_xyz
  x,y,z

loop_
_atom_site_label
_atom_site_type_symbol
_atom_site_fract_x
_atom_site_fract_y
_atom_site_fract_z
_atom_site_charge
N 	N 	0.03059 0.68037 0.41120 -0.41200
C 	C 	0.10658 0.66326 0.39184 0.05300
H 	H 	0.15180 0.68680 0.41410 -0.03300
H 	H 	0.88060 0.64470 0.42160 0.20900
N 	N 	0.10658 0.60816 0.33674 -0.15700
N 	N 	0.53059 0.18037 0.91120 -0.29900
C 	C 	0.60658 0.16326 0.89184 0.06900
H 	H 	0.65180 0.18680 0.91410 -0.01800
H 	H 	0.38060 0.14470 0.92160 0.16400
N 	N 	0.60658 0.10816 0.83674 -0.15500
N 	N 	0.96941 0.31963 0.41120 -0.22100
C 	C 	0.89342 0.33674 0.39184 0.07500
H 	H 	0.84820 0.31320 0.41410 -0.03600
H 	H 	0.11940 0.35530 0.42160 0.09500
N 	N 	0.89342 0.39184 0.33674 -0.15000
N 	N 	0.46941 0.81963 0.91120 -0.30400
C 	C 	0.39342 0.83674 0.89184 0.08600
H 	H 	0.34820 0.81320 0.91410 -0.01600
H 	H 	0.61940 0.85530 0.92160 0.22200
N 	N 	0.39342 0.89184 0.83674 -0.14900
N 	N 	0.96941 0.68037 0.58880 -0.22000
C 	C 	0.89342 0.66326 0.60816 0.07900
H 	H 	0.84820 0.68680 0.58590 -0.03600
H 	H 	0.11940 0.64470 0.57840 0.09600
N 	N 	0.89342 0.60816 0.66326 -0.14900
N 	N 	0.46941 0.18037 0.08880 -0.33100
C 	C 	0.39342 0.16326 0.10816 0.04000
H 	H 	0.34820 0.18680 0.08590 -0.06000
H 	H 	0.61940 0.14470 0.07840 0.09300
N 	N 	0.39342 0.10816 0.16326 -0.15800
N 	N 	0.03059 0.31963 0.58880 -0.41400
C 	C 	0.10658 0.33674 0.60816 0.05200
H 	H 	0.15180 0.31320 0.58590 -0.03300
H 	H 	0.88060 0.35530 0.57840 0.20900
N 	N 	0.10658 0.39184 0.66326 -0.15700
N 	N 	0.53059 0.81963 0.08880 -0.33400
C 	C 	0.60658 0.83674 0.10816 0.06200
H 	H 	0.65180 0.81320 0.08590 -0.04600
H 	H 	0.38060 0.85530 0.07840 0.13100
N 	N 	0.60658 0.89184 0.16326 -0.15100
N 	N 	0.41120 0.03059 0.68037 -0.41300
C 	C 	0.39184 0.10658 0.66326 0.05200
H 	H 	0.41410 0.15180 0.68680 -0.03400
H 	H 	0.42160 0.88060 0.64470 0.20900
N 	N 	0.33674 0.10658 0.60816 -0.15700
N 	N 	0.91120 0.53059 0.18037 -0.29900
C 	C 	0.89184 0.60658 0.16326 0.06900
H 	H 	0.91410 0.65180 0.18680 -0.01800
H 	H 	0.92160 0.38060 0.14470 0.16400
N 	N 	0.83674 0.60658 0.10816 -0.15500
N 	N 	0.41120 0.96941 0.31963 -0.22100
C 	C 	0.39184 0.89342 0.33674 0.07500
H 	H 	0.41410 0.84820 0.31320 -0.03600
H 	H 	0.42160 0.11940 0.35530 0.09500
N 	N 	0.33674 0.89342 0.39184 -0.15000
N 	N 	0.91120 0.46941 0.81963 -0.30400
C 	C 	0.89184 0.39342 0.83674 0.08600
H 	H 	0.91410 0.34820 0.81320 -0.01600
H 	H 	0.92160 0.61940 0.85530 0.22200
N 	N 	0.83674 0.39342 0.89184 -0.14900
N 	N 	0.58880 0.96941 0.68037 -0.22000
C 	C 	0.60816 0.89342 0.66326 0.07900
H 	H 	0.58590 0.84820 0.68680 -0.03600
H 	H 	0.57840 0.11940 0.64470 0.09600
N 	N 	0.66326 0.89342 0.60816 -0.14900
N 	N 	0.08880 0.46941 0.18037 -0.33100
C 	C 	0.10816 0.39342 0.16326 0.04000
H 	H 	0.08590 0.34820 0.18680 -0.06000
H 	H 	0.07840 0.61940 0.14470 0.09300
N 	N 	0.16326 0.39342 0.10816 -0.15800
N 	N 	0.58880 0.03059 0.31963 -0.41400
C 	C 	0.60816 0.10658 0.33674 0.05200
H 	H 	0.58590 0.15180 0.31320 -0.03300
H 	H 	0.57840 0.88060 0.35530 0.20900
N 	N 	0.66326 0.10658 0.39184 -0.15700
N 	N 	0.08880 0.53059 0.81963 -0.33400
C 	C 	0.10816 0.60658 0.83674 0.06200
H 	H 	0.08590 0.65180 0.81320 -0.04600
H 	H 	0.07840 0.38060 0.85530 0.13100
N 	N 	0.16326 0.60658 0.89184 -0.15100
N 	N 	0.68037 0.41120 0.03059 -0.41300
C 	C 	0.66326 0.39184 0.10658 0.05200
H 	H 	0.68680 0.41410 0.15180 -0.03400
H 	H 	0.64470 0.42160 0.88060 0.20900
N 	N 	0.60816 0.33674 0.10658 -0.15700
N 	N 	0.18037 0.91120 0.53059 -0.29900
C 	C 	0.16326 0.89184 0.60658 0.06900
H 	H 	0.18680 0.91410 0.65180 -0.01800
H 	H 	0.14470 0.92160 0.38060 0.16400
N 	N 	0.10816 0.83674 0.60658 -0.15500
N 	N 	0.31963 0.41120 0.96941 -0.22100
C 	C 	0.33674 0.39184 0.89342 0.07500
H 	H 	0.31320 0.41410 0.84820 -0.03600
H 	H 	0.35530 0.42160 0.11940 0.09500
N 	N 	0.39184 0.33674 0.89342 -0.15000
N 	N 	0.81963 0.91120 0.46941 -0.30400
C 	C 	0.83674 0.89184 0.39342 0.08600
H 	H 	0.81320 0.91410 0.34820 -0.01600
H 	H 	0.85530 0.92160 0.61940 0.22200
N 	N 	0.89184 0.83674 0.39342 -0.14900
N 	N 	0.68037 0.58880 0.96941 -0.22000
C 	C 	0.66326 0.60816 0.89342 0.07900
H 	H 	0.68680 0.58590 0.84820 -0.03600
H 	H 	0.64470 0.57840 0.11940 0.09600
N 	N 	0.60816 0.66326 0.89342 -0.14900
N 	N 	0.18037 0.08880 0.46941 -0.33100
C 	C 	0.16326 0.10816 0.39342 0.04000
H 	H 	0.18680 0.08590 0.34820 -0.06000
H 	H 	0.14470 0.07840 0.61940 0.09300
N 	N 	0.10816 0.16326 0.39342 -0.15800
N 	N 	0.31963 0.58880 0.03059 -0.41400
C 	C 	0.33674 0.60816 0.10658 0.05200
H 	H 	0.31320 0.58590 0.15180 -0.03300
H 	H 	0.35530 0.57840 0.88060 0.20900
N 	N 	0.39184 0.66326 0.10658 -0.15700
N 	N 	0.81963 0.08880 0.53059 -0.33400
C 	C 	0.83674 0.10816 0.60658 0.06200
H 	H 	0.81320 0.08590 0.65180 -0.04600
H 	H 	0.85530 0.07840 0.38060 0.13100
N 	N 	0.89184 0.16326 0.60658 -0.15100
N 	N 	0.68037 0.03059 0.41120 -0.37900
H 	H 	0.68680 0.15180 0.41410 0.04700
H 	H 	0.64470 0.88060 0.42160 0.20900
N 	N 	0.18037 0.53059 0.91120 -0.26300
H 	H 	0.18680 0.65180 0.91410 0.06800
H 	H 	0.14470 0.38060 0.92160 0.16400
N 	N 	0.31963 0.96941 0.41120 -0.18300
H 	H 	0.31320 0.84820 0.41410 0.05100
H 	H 	0.35530 0.11940 0.42160 0.09400
N 	N 	0.81963 0.46941 0.91120 -0.26500
H 	H 	0.81320 0.34820 0.91410 0.07400
H 	H 	0.85530 0.61940 0.92160 0.22200
N 	N 	0.68037 0.96941 0.58880 -0.18200
H 	H 	0.68680 0.84820 0.58590 0.05200
H 	H 	0.64470 0.11940 0.57840 0.09600
N 	N 	0.18037 0.46941 0.08880 -0.29800
H 	H 	0.18680 0.34820 0.08590 0.01700
H 	H 	0.14470 0.61940 0.07840 0.09200
N 	N 	0.31963 0.03059 0.58880 -0.37900
H 	H 	0.31320 0.15180 0.58590 0.04700
H 	H 	0.35530 0.88060 0.57840 0.20900
N 	N 	0.81963 0.53059 0.08880 -0.29800
H 	H 	0.81320 0.65180 0.08590 0.03800
H 	H 	0.85530 0.38060 0.07840 0.13100
N 	N 	0.03059 0.41120 0.68037 -0.37900
H 	H 	0.15180 0.41410 0.68680 0.04700
H 	H 	0.88060 0.42160 0.64470 0.20900
N 	N 	0.53059 0.91120 0.18037 -0.26300
H 	H 	0.65180 0.91410 0.18680 0.06800
H 	H 	0.38060 0.92160 0.14470 0.16400
N 	N 	0.96941 0.41120 0.31963 -0.18300
H 	H 	0.84820 0.41410 0.31320 0.05100
H 	H 	0.11940 0.42160 0.35530 0.09400
N 	N 	0.46941 0.91120 0.81963 -0.26500
H 	H 	0.34820 0.91410 0.81320 0.07400
H 	H 	0.61940 0.92160 0.85530 0.22200
N 	N 	0.96941 0.58880 0.68037 -0.18200
H 	H 	0.84820 0.58590 0.68680 0.05200
H 	H 	0.11940 0.57840 0.64470 0.09600
N 	N 	0.46941 0.08880 0.18037 -0.29800
H 	H 	0.34820 0.08590 0.18680 0.01700
H 	H 	0.61940 0.07840 0.14470 0.09200
N 	N 	0.03059 0.58880 0.31963 -0.37900
H 	H 	0.15180 0.58590 0.31320 0.04700
H 	H 	0.88060 0.57840 0.35530 0.20900
N 	N 	0.53059 0.08880 0.81963 -0.29800
H 	H 	0.65180 0.08590 0.81320 0.03800
H 	H 	0.38060 0.07840 0.85530 0.13100
N 	N 	0.41120 0.68037 0.03059 -0.37900
H 	H 	0.41410 0.68680 0.15180 0.04700
H 	H 	0.42160 0.64470 0.88060 0.20900
N 	N 	0.91120 0.18037 0.53059 -0.26300
H 	H 	0.91410 0.18680 0.65180 0.06800
H 	H 	0.92160 0.14470 0.38060 0.16400
N 	N 	0.41120 0.31963 0.96941 -0.18300
H 	H 	0.41410 0.31320 0.84820 0.05100
H 	H 	0.42160 0.35530 0.11940 0.09400
N 	N 	0.91120 0.81963 0.46941 -0.26500
H 	H 	0.91410 0.81320 0.34820 0.07400
H 	H 	0.92160 0.85530 0.61940 0.22200
N 	N 	0.58880 0.68037 0.96941 -0.18200
H 	H 	0.58590 0.68680 0.84820 0.05200
H 	H 	0.57840 0.64470 0.11940 0.09600
N 	N 	0.08880 0.18037 0.46941 -0.29800
H 	H 	0.08590 0.18680 0.34820 0.01700
H 	H 	0.07840 0.14470 0.61940 0.09200
N 	N 	0.58880 0.31963 0.03059 -0.37900
H 	H 	0.58590 0.31320 0.15180 0.04700
H 	H 	0.57840 0.35530 0.88060 0.20900
N 	N 	0.08880 0.81963 0.53059 -0.29800
H 	H 	0.08590 0.81320 0.65180 0.03800
H 	H 	0.07840 0.85530 0.38060 0.13100
Zn	Zn	0.00000 0.75000 0.50000 1.13600
Zn	Zn	0.00000 0.25000 0.50000 1.13400
Zn	Zn	0.50000 0.00000 0.75000 1.13600
Zn	Zn	0.50000 0.00000 0.25000 1.13400
Zn	Zn	0.75000 0.50000 -0.00000 1.13600
Zn	Zn	0.25000 0.50000 -0.00000 1.13400
Zn	Zn	0.75000 0.00000 0.50000 1.13600
Zn	Zn	0.25000 0.00000 0.50000 1.13400
Zn	Zn	0.00000 0.50000 0.75000 1.13600
Zn	Zn	0.00000 0.50000 0.25000 1.13400
Zn	Zn	0.50000 0.75000 -0.00000 1.13600
Zn	Zn	0.50000 0.25000 -0.00000 1.13400
C 	C 	0.98670 0.63382 0.36618 0.43200
C 	C 	0.89860 0.63120 0.36879 -0.75100
H 	H 	0.87720 0.66885 0.33115 0.22400
C 	C 	0.48670 0.13382 0.86618 0.21100
C 	C 	0.39860 0.13120 0.86879 -0.57500
H 	H 	0.37720 0.16885 0.83115 0.16500
C 	C 	0.01330 0.36618 0.36618 -0.00900
C 	C 	0.10140 0.36880 0.36879 -0.40900
H 	H 	0.12280 0.33115 0.33115 0.11100
C 	C 	0.51330 0.86618 0.86618 0.26100
C 	C 	0.60140 0.86880 0.86879 -0.67700
H 	H 	0.62280 0.83115 0.83115 0.20900
C 	C 	0.01330 0.63382 0.63382 -0.00400
C 	C 	0.10140 0.63120 0.63121 -0.41500
H 	H 	0.12280 0.66885 0.66885 0.11700
C 	C 	0.51330 0.13382 0.13382 0.16800
C 	C 	0.60140 0.13120 0.13121 -0.50100
H 	H 	0.62280 0.16885 0.16885 0.13800
C 	C 	0.98670 0.36618 0.63382 0.43200
C 	C 	0.89860 0.36880 0.63121 -0.75100
H 	H 	0.87720 0.33115 0.66885 0.22400
C 	C 	0.48670 0.86618 0.13382 0.21100
C 	C 	0.39860 0.86880 0.13121 -0.57400
H 	H 	0.37720 0.83115 0.16885 0.16500
C 	C 	0.36618 0.98670 0.63382 0.43200
C 	C 	0.36879 0.89860 0.63120 -0.75100
H 	H 	0.33115 0.87720 0.66885 0.22400
C 	C 	0.86618 0.48670 0.13382 0.21100
C 	C 	0.86879 0.39860 0.13120 -0.57500
H 	H 	0.83115 0.37720 0.16885 0.16500
C 	C 	0.36618 0.01330 0.36618 -0.00900
C 	C 	0.36879 0.10140 0.36880 -0.40900
H 	H 	0.33115 0.12280 0.33115 0.11100
C 	C 	0.86618 0.51330 0.86618 0.26100
C 	C 	0.86879 0.60140 0.86880 -0.67700
H 	H 	0.83115 0.62280 0.83115 0.20900
C 	C 	0.63382 0.01330 0.63382 -0.00400
C 	C 	0.63121 0.10140 0.63120 -0.41500
H 	H 	0.66885 0.12280 0.66885 0.11700
C 	C 	0.13382 0.51330 0.13382 0.16800
C 	C 	0.13121 0.60140 0.13120 -0.50100
H 	H 	0.16885 0.62280 0.16885 0.13800
C 	C 	0.63382 0.98670 0.36618 0.43200
C 	C 	0.63121 0.89860 0.36880 -0.75100
H 	H 	0.66885 0.87720 0.33115 0.22400
C 	C 	0.13382 0.48670 0.86618 0.21100
C 	C 	0.13121 0.39860 0.86880 -0.57400
H 	H 	0.16885 0.37720 0.83115 0.16500
C 	C 	0.63382 0.36618 0.98670 0.43200
C 	C 	0.63120 0.36879 0.89860 -0.75100
H 	H 	0.66885 0.33115 0.87720 0.22400
C 	C 	0.13382 0.86618 0.48670 0.21100
C 	C 	0.13120 0.86879 0.39860 -0.57500
H 	H 	0.16885 0.83115 0.37720 0.16500
C 	C 	0.36618 0.36618 0.01330 -0.00900
C 	C 	0.36880 0.36879 0.10140 -0.40900
H 	H 	0.33115 0.33115 0.12280 0.11100
C 	C 	0.86618 0.86618 0.51330 0.26100
C 	C 	0.86879 0.86879 0.60140 -0.67700
H 	H 	0.83115 0.83115 0.62280 0.20900
C 	C 	0.63382 0.63382 0.01330 -0.00400
C 	C 	0.63120 0.63121 0.10140 -0.41500
H 	H 	0.66885 0.66885 0.12280 0.11700
C 	C 	0.13382 0.13382 0.51330 0.16800
C 	C 	0.13120 0.13121 0.60140 -0.50100
H 	H 	0.16885 0.16885 0.62280 0.13800
C 	C 	0.36618 0.63382 0.98670 0.43200
C 	C 	0.36880 0.63121 0.89860 -0.75100
H 	H 	0.33115 0.66885 0.87720 0.22400
C 	C 	0.86618 0.13382 0.48670 0.21100
C 	C 	0.86879 0.13121 0.39860 -0.57400
H 	H 	0.83115 0.16885 0.37720 0.16500
