data_crystal

_cell_length_a 17.08200
_cell_length_b 17.08200
_cell_length_c 17.08200
_cell_angle_alpha 90.00000
_cell_angle_beta  90.00000
_cell_angle_gamma 90.00000

_symmetry_space_group_name_	'P 1'
_symmetry_space_group_name_H-M	'P 1'

loop_
_symmetry_equiv_pos_as_xyz
  x,y,z

loop_
_atom_site_label
_atom_site_type_symbol
_atom_site_fract_x
_atom_site_fract_y
_atom_site_fract_z
_atom_site_charge
N 	N 	0.03002 0.68066 0.41094 -0.40500
C 	C 	0.10550 0.66490 0.39000 -0.02600
H 	H 	0.15080 0.68930 0.41130 -0.00800
H 	H 	0.88040 0.64470 0.42180 0.21200
N 	N 	0.53002 0.18066 0.91094 -0.29000
C 	C 	0.60550 0.16490 0.89000 -0.01200
H 	H 	0.65080 0.18930 0.91130 0.00800
H 	H 	0.38040 0.14470 0.92180 0.16500
N 	N 	0.96998 0.31934 0.41094 -0.21000
C 	C 	0.89450 0.33510 0.39000 -0.01000
H 	H 	0.84920 0.31070 0.41130 -0.00800
H 	H 	0.11960 0.35530 0.42180 0.09500
N 	N 	0.46998 0.81934 0.91094 -0.29500
C 	C 	0.39450 0.83510 0.89000 -0.00400
H 	H 	0.34920 0.81070 0.91130 0.01200
H 	H 	0.61960 0.85530 0.92180 0.22300
N 	N 	0.96998 0.68066 0.58906 -0.21000
C 	C 	0.89450 0.66490 0.61000 -0.00800
H 	H 	0.84920 0.68930 0.58870 -0.00900
H 	H 	0.11960 0.64470 0.57820 0.09500
N 	N 	0.46998 0.18066 0.08906 -0.32300
C 	C 	0.39450 0.16490 0.11000 -0.03400
H 	H 	0.34920 0.18930 0.08870 -0.03500
H 	H 	0.61960 0.14470 0.07820 0.09300
N 	N 	0.03002 0.31934 0.58906 -0.40600
C 	C 	0.10550 0.33510 0.61000 -0.02800
H 	H 	0.15080 0.31070 0.58870 -0.00800
H 	H 	0.88040 0.35530 0.57820 0.21100
N 	N 	0.53002 0.81934 0.08906 -0.32500
C 	C 	0.60550 0.83510 0.11000 -0.02300
H 	H 	0.65080 0.81070 0.08870 -0.01800
H 	H 	0.38040 0.85530 0.07820 0.13200
N 	N 	0.41094 0.03002 0.68066 -0.40600
C 	C 	0.39000 0.10550 0.66490 -0.02700
H 	H 	0.41130 0.15080 0.68930 -0.00900
H 	H 	0.42180 0.88040 0.64470 0.21100
N 	N 	0.91094 0.53002 0.18066 -0.29100
C 	C 	0.89000 0.60550 0.16490 -0.01300
H 	H 	0.91130 0.65080 0.18930 0.00700
H 	H 	0.92180 0.38040 0.14470 0.16400
N 	N 	0.41094 0.96998 0.31934 -0.21100
C 	C 	0.39000 0.89450 0.33510 -0.01100
H 	H 	0.41130 0.84920 0.31070 -0.00900
H 	H 	0.42180 0.11960 0.35530 0.09400
N 	N 	0.91094 0.46998 0.81934 -0.29500
C 	C 	0.89000 0.39450 0.83510 -0.00400
H 	H 	0.91130 0.34920 0.81070 0.01200
H 	H 	0.92180 0.61960 0.85530 0.22300
N 	N 	0.58906 0.96998 0.68066 -0.21000
C 	C 	0.61000 0.89450 0.66490 -0.00800
H 	H 	0.58870 0.84920 0.68930 -0.00900
H 	H 	0.57820 0.11960 0.64470 0.09500
N 	N 	0.08906 0.46998 0.18066 -0.32300
C 	C 	0.11000 0.39450 0.16490 -0.03400
H 	H 	0.08870 0.34920 0.18930 -0.03500
H 	H 	0.07820 0.61960 0.14470 0.09300
N 	N 	0.58906 0.03002 0.31934 -0.40600
C 	C 	0.61000 0.10550 0.33510 -0.02800
H 	H 	0.58870 0.15080 0.31070 -0.00800
H 	H 	0.57820 0.88040 0.35530 0.21100
N 	N 	0.08906 0.53002 0.81934 -0.32500
C 	C 	0.11000 0.60550 0.83510 -0.02300
H 	H 	0.08870 0.65080 0.81070 -0.01800
H 	H 	0.07820 0.38040 0.85530 0.13200
N 	N 	0.68066 0.41094 0.03002 -0.40600
C 	C 	0.66490 0.39000 0.10550 -0.02700
H 	H 	0.68930 0.41130 0.15080 -0.00900
H 	H 	0.64470 0.42180 0.88040 0.21100
N 	N 	0.18066 0.91094 0.53002 -0.29100
C 	C 	0.16490 0.89000 0.60550 -0.01300
H 	H 	0.18930 0.91130 0.65080 0.00700
H 	H 	0.14470 0.92180 0.38040 0.16400
N 	N 	0.31934 0.41094 0.96998 -0.21100
C 	C 	0.33510 0.39000 0.89450 -0.01100
H 	H 	0.31070 0.41130 0.84920 -0.00900
H 	H 	0.35530 0.42180 0.11960 0.09400
N 	N 	0.81934 0.91094 0.46998 -0.29500
C 	C 	0.83510 0.89000 0.39450 -0.00400
H 	H 	0.81070 0.91130 0.34920 0.01200
H 	H 	0.85530 0.92180 0.61960 0.22300
N 	N 	0.68066 0.58906 0.96998 -0.21000
C 	C 	0.66490 0.61000 0.89450 -0.00800
H 	H 	0.68930 0.58870 0.84920 -0.00900
H 	H 	0.64470 0.57820 0.11960 0.09500
N 	N 	0.18066 0.08906 0.46998 -0.32300
C 	C 	0.16490 0.11000 0.39450 -0.03400
H 	H 	0.18930 0.08870 0.34920 -0.03500
H 	H 	0.14470 0.07820 0.61960 0.09300
N 	N 	0.31934 0.58906 0.03002 -0.40600
C 	C 	0.33510 0.61000 0.10550 -0.02800
H 	H 	0.31070 0.58870 0.15080 -0.00800
H 	H 	0.35530 0.57820 0.88040 0.21100
N 	N 	0.81934 0.08906 0.53002 -0.32500
C 	C 	0.83510 0.11000 0.60550 -0.02300
H 	H 	0.81070 0.08870 0.65080 -0.01800
H 	H 	0.85530 0.07820 0.38040 0.13200
N 	N 	0.68066 0.03002 0.41094 -0.40600
C 	C 	0.66490 0.10550 0.39000 -0.02700
H 	H 	0.68930 0.15080 0.41130 -0.00900
H 	H 	0.64470 0.88040 0.42180 0.21100
N 	N 	0.18066 0.53002 0.91094 -0.29100
C 	C 	0.16490 0.60550 0.89000 -0.01300
H 	H 	0.18930 0.65080 0.91130 0.00700
H 	H 	0.14470 0.38040 0.92180 0.16400
N 	N 	0.31934 0.96998 0.41094 -0.21100
C 	C 	0.33510 0.89450 0.39000 -0.01100
H 	H 	0.31070 0.84920 0.41130 -0.00900
H 	H 	0.35530 0.11960 0.42180 0.09400
N 	N 	0.81934 0.46998 0.91094 -0.29500
C 	C 	0.83510 0.39450 0.89000 -0.00400
H 	H 	0.81070 0.34920 0.91130 0.01200
H 	H 	0.85530 0.61960 0.92180 0.22300
N 	N 	0.68066 0.96998 0.58906 -0.21000
C 	C 	0.66490 0.89450 0.61000 -0.00800
H 	H 	0.68930 0.84920 0.58870 -0.00900
H 	H 	0.64470 0.11960 0.57820 0.09500
N 	N 	0.18066 0.46998 0.08906 -0.32300
C 	C 	0.16490 0.39450 0.11000 -0.03400
H 	H 	0.18930 0.34920 0.08870 -0.03500
H 	H 	0.14470 0.61960 0.07820 0.09300
N 	N 	0.31934 0.03002 0.58906 -0.40600
C 	C 	0.33510 0.10550 0.61000 -0.02800
H 	H 	0.31070 0.15080 0.58870 -0.00800
H 	H 	0.35530 0.88040 0.57820 0.21100
N 	N 	0.81934 0.53002 0.08906 -0.32500
C 	C 	0.83510 0.60550 0.11000 -0.02300
H 	H 	0.81070 0.65080 0.08870 -0.01800
H 	H 	0.85530 0.38040 0.07820 0.13200
N 	N 	0.03002 0.41094 0.68066 -0.40600
C 	C 	0.10550 0.39000 0.66490 -0.02700
H 	H 	0.15080 0.41130 0.68930 -0.00900
H 	H 	0.88040 0.42180 0.64470 0.21100
N 	N 	0.53002 0.91094 0.18066 -0.29100
C 	C 	0.60550 0.89000 0.16490 -0.01300
H 	H 	0.65080 0.91130 0.18930 0.00700
H 	H 	0.38040 0.92180 0.14470 0.16400
N 	N 	0.96998 0.41094 0.31934 -0.21100
C 	C 	0.89450 0.39000 0.33510 -0.01100
H 	H 	0.84920 0.41130 0.31070 -0.00900
H 	H 	0.11960 0.42180 0.35530 0.09400
N 	N 	0.46998 0.91094 0.81934 -0.29500
C 	C 	0.39450 0.89000 0.83510 -0.00400
H 	H 	0.34920 0.91130 0.81070 0.01200
H 	H 	0.61960 0.92180 0.85530 0.22300
N 	N 	0.96998 0.58906 0.68066 -0.21000
C 	C 	0.89450 0.61000 0.66490 -0.00800
H 	H 	0.84920 0.58870 0.68930 -0.00900
H 	H 	0.11960 0.57820 0.64470 0.09500
N 	N 	0.46998 0.08906 0.18066 -0.32300
C 	C 	0.39450 0.11000 0.16490 -0.03400
H 	H 	0.34920 0.08870 0.18930 -0.03500
H 	H 	0.61960 0.07820 0.14470 0.09300
N 	N 	0.03002 0.58906 0.31934 -0.40600
C 	C 	0.10550 0.61000 0.33510 -0.02800
H 	H 	0.15080 0.58870 0.31070 -0.00800
H 	H 	0.88040 0.57820 0.35530 0.21100
N 	N 	0.53002 0.08906 0.81934 -0.32500
C 	C 	0.60550 0.11000 0.83510 -0.02300
H 	H 	0.65080 0.08870 0.81070 -0.01800
H 	H 	0.38040 0.07820 0.85530 0.13200
N 	N 	0.41094 0.68066 0.03002 -0.40600
C 	C 	0.39000 0.66490 0.10550 -0.02700
H 	H 	0.41130 0.68930 0.15080 -0.00900
H 	H 	0.42180 0.64470 0.88040 0.21100
N 	N 	0.91094 0.18066 0.53002 -0.29100
C 	C 	0.89000 0.16490 0.60550 -0.01300
H 	H 	0.91130 0.18930 0.65080 0.00700
H 	H 	0.92180 0.14470 0.38040 0.16400
N 	N 	0.41094 0.31934 0.96998 -0.21100
C 	C 	0.39000 0.33510 0.89450 -0.01100
H 	H 	0.41130 0.31070 0.84920 -0.00900
H 	H 	0.42180 0.35530 0.11960 0.09400
N 	N 	0.91094 0.81934 0.46998 -0.29500
C 	C 	0.89000 0.83510 0.39450 -0.00400
H 	H 	0.91130 0.81070 0.34920 0.01200
H 	H 	0.92180 0.85530 0.61960 0.22300
N 	N 	0.58906 0.68066 0.96998 -0.21000
C 	C 	0.61000 0.66490 0.89450 -0.00800
H 	H 	0.58870 0.68930 0.84920 -0.00900
H 	H 	0.57820 0.64470 0.11960 0.09500
N 	N 	0.08906 0.18066 0.46998 -0.32300
C 	C 	0.11000 0.16490 0.39450 -0.03400
H 	H 	0.08870 0.18930 0.34920 -0.03500
H 	H 	0.07820 0.14470 0.61960 0.09300
N 	N 	0.58906 0.31934 0.03002 -0.40600
C 	C 	0.61000 0.33510 0.10550 -0.02800
H 	H 	0.58870 0.31070 0.15080 -0.00800
H 	H 	0.57820 0.35530 0.88040 0.21100
N 	N 	0.08906 0.81934 0.53002 -0.32500
C 	C 	0.11000 0.83510 0.60550 -0.02300
H 	H 	0.08870 0.81070 0.65080 -0.01800
H 	H 	0.07820 0.85530 0.38040 0.13200
Zn	Zn	0.00000 0.75000 0.50000 1.13600
Zn	Zn	-0.00000 0.25000 0.50000 1.13400
Zn	Zn	0.50000 0.00000 0.75000 1.13600
Zn	Zn	0.50000 0.00000 0.25000 1.13400
Zn	Zn	0.75000 0.50000 -0.00000 1.13600
Zn	Zn	0.25000 0.50000 -0.00000 1.13400
Zn	Zn	0.75000 0.00000 0.50000 1.13600
Zn	Zn	0.25000 0.00000 0.50000 1.13400
Zn	Zn	0.00000 0.50000 0.75000 1.13600
Zn	Zn	-0.00000 0.50000 0.25000 1.13400
Zn	Zn	0.50000 0.75000 -0.00000 1.13600
Zn	Zn	0.50000 0.25000 -0.00000 1.13400
C 	C 	0.98650 0.63250 0.36750 0.43800
C 	C 	0.89880 0.63070 0.36930 -0.76400
H 	H 	0.87800 0.66850 0.33150 0.22700
C 	C 	0.48650 0.13250 0.86750 0.21400
C 	C 	0.39880 0.13070 0.86930 -0.58200
H 	H 	0.37800 0.16850 0.83150 0.16600
C 	C 	0.01350 0.36750 0.36750 -0.00800
C 	C 	0.10120 0.36930 0.36930 -0.41100
H 	H 	0.12200 0.33150 0.33150 0.11100
C 	C 	0.51350 0.86750 0.86750 0.26600
C 	C 	0.60120 0.86930 0.86930 -0.68600
H 	H 	0.62200 0.83150 0.83150 0.21000
C 	C 	0.01350 0.63250 0.63250 -0.00300
C 	C 	0.10120 0.63070 0.63070 -0.41700
H 	H 	0.12200 0.66850 0.66850 0.11700
C 	C 	0.51350 0.13250 0.13250 0.17000
C 	C 	0.60120 0.13070 0.13070 -0.50800
H 	H 	0.62200 0.16850 0.16850 0.13900
C 	C 	0.98650 0.36750 0.63250 0.43800
C 	C 	0.89880 0.36930 0.63070 -0.76400
H 	H 	0.87800 0.33150 0.66850 0.22700
C 	C 	0.48650 0.86750 0.13250 0.21400
C 	C 	0.39880 0.86930 0.13070 -0.58200
H 	H 	0.37800 0.83150 0.16850 0.16600
C 	C 	0.36750 0.98650 0.63250 0.43800
C 	C 	0.36930 0.89880 0.63070 -0.76400
H 	H 	0.33150 0.87800 0.66850 0.22700
C 	C 	0.86750 0.48650 0.13250 0.21400
C 	C 	0.86930 0.39880 0.13070 -0.58200
H 	H 	0.83150 0.37800 0.16850 0.16600
C 	C 	0.36750 0.01350 0.36750 -0.00800
C 	C 	0.36930 0.10120 0.36930 -0.41100
H 	H 	0.33150 0.12200 0.33150 0.11100
C 	C 	0.86750 0.51350 0.86750 0.26600
C 	C 	0.86930 0.60120 0.86930 -0.68600
H 	H 	0.83150 0.62200 0.83150 0.21000
C 	C 	0.63250 0.01350 0.63250 -0.00300
C 	C 	0.63070 0.10120 0.63070 -0.41700
H 	H 	0.66850 0.12200 0.66850 0.11700
C 	C 	0.13250 0.51350 0.13250 0.17000
C 	C 	0.13070 0.60120 0.13070 -0.50800
H 	H 	0.16850 0.62200 0.16850 0.13900
C 	C 	0.63250 0.98650 0.36750 0.43800
C 	C 	0.63070 0.89880 0.36930 -0.76400
H 	H 	0.66850 0.87800 0.33150 0.22700
C 	C 	0.13250 0.48650 0.86750 0.21400
C 	C 	0.13070 0.39880 0.86930 -0.58200
H 	H 	0.16850 0.37800 0.83150 0.16600
C 	C 	0.63250 0.36750 0.98650 0.43800
C 	C 	0.63070 0.36930 0.89880 -0.76400
H 	H 	0.66850 0.33150 0.87800 0.22700
C 	C 	0.13250 0.86750 0.48650 0.21400
C 	C 	0.13070 0.86930 0.39880 -0.58200
H 	H 	0.16850 0.83150 0.37800 0.16600
C 	C 	0.36750 0.36750 0.01350 -0.00800
C 	C 	0.36930 0.36930 0.10120 -0.41100
H 	H 	0.33150 0.33150 0.12200 0.11100
C 	C 	0.86750 0.86750 0.51350 0.26600
C 	C 	0.86930 0.86930 0.60120 -0.68600
H 	H 	0.83150 0.83150 0.62200 0.21000
C 	C 	0.63250 0.63250 0.01350 -0.00300
C 	C 	0.63070 0.63070 0.10120 -0.41700
H 	H 	0.66850 0.66850 0.12200 0.11700
C 	C 	0.13250 0.13250 0.51350 0.17000
C 	C 	0.13070 0.13070 0.60120 -0.50800
H 	H 	0.16850 0.16850 0.62200 0.13900
C 	C 	0.36750 0.63250 0.98650 0.43800
C 	C 	0.36930 0.63070 0.89880 -0.76400
H 	H 	0.33150 0.66850 0.87800 0.22700
C 	C 	0.86750 0.13250 0.48650 0.21400
C 	C 	0.86930 0.13070 0.39880 -0.58200
H 	H 	0.83150 0.16850 0.37800 0.16600
