data_crystal

_cell_length_a 17.05500
_cell_length_b 17.05500
_cell_length_c 17.05500
_cell_angle_alpha 90.00000
_cell_angle_beta  90.00000
_cell_angle_gamma 90.00000

_symmetry_space_group_name_	'P 1'
_symmetry_space_group_name_H-M	'P 1'

loop_
_symmetry_equiv_pos_as_xyz
  x,y,z

loop_
_atom_site_label
_atom_site_type_symbol
_atom_site_fract_x
_atom_site_fract_y
_atom_site_fract_z
_atom_site_charge
N 	N 	0.02707 0.68242 0.40880 -0.40600
C 	C 	0.09540 0.68580 0.36900 -0.02500
H 	H 	0.13680 0.72170 0.37880 -0.01000
H 	H 	0.90150 0.60770 0.45840 0.21400
N 	N 	0.52707 0.18242 0.90880 -0.29300
C 	C 	0.59540 0.18580 0.86900 -0.00800
H 	H 	0.63680 0.22170 0.87880 0.00300
H 	H 	0.40150 0.10770 0.95840 0.16800
N 	N 	0.97293 0.31758 0.40880 -0.21600
C 	C 	0.90460 0.31420 0.36900 -0.00900
H 	H 	0.86320 0.27830 0.37880 -0.00700
H 	H 	0.09850 0.39230 0.45840 0.09100
N 	N 	0.47293 0.81758 0.90880 -0.29800
C 	C 	0.40460 0.81420 0.86900 -0.00300
H 	H 	0.36320 0.77830 0.87880 0.00500
H 	H 	0.59850 0.89230 0.95840 0.24100
N 	N 	0.97293 0.68242 0.59120 -0.21500
C 	C 	0.90460 0.68580 0.63100 -0.00400
H 	H 	0.86320 0.72170 0.62120 -0.00400
H 	H 	0.09850 0.60770 0.54160 0.09100
N 	N 	0.47293 0.18242 0.09120 -0.32400
C 	C 	0.40460 0.18580 0.13100 -0.03000
H 	H 	0.36320 0.22170 0.12120 -0.02500
H 	H 	0.59850 0.10770 0.04160 0.07400
N 	N 	0.02707 0.31758 0.59120 -0.40500
C 	C 	0.09540 0.31420 0.63100 -0.02500
H 	H 	0.13680 0.27830 0.62120 -0.00900
H 	H 	0.90150 0.39230 0.54160 0.21500
N 	N 	0.52707 0.81758 0.09120 -0.32800
C 	C 	0.59540 0.81420 0.13100 -0.02300
H 	H 	0.63680 0.77830 0.12120 -0.01300
H 	H 	0.40150 0.89230 0.04160 0.13000
N 	N 	0.40880 0.02707 0.68242 -0.40500
C 	C 	0.36900 0.09540 0.68580 -0.02400
H 	H 	0.37880 0.13680 0.72170 -0.00900
H 	H 	0.45840 0.90150 0.60770 0.21500
N 	N 	0.90880 0.52707 0.18242 -0.29200
C 	C 	0.86900 0.59540 0.18580 -0.00700
H 	H 	0.87880 0.63680 0.22170 0.00300
H 	H 	0.95840 0.40150 0.10770 0.16800
N 	N 	0.40880 0.97293 0.31758 -0.21600
C 	C 	0.36900 0.90460 0.31420 -0.00900
H 	H 	0.37880 0.86320 0.27830 -0.00700
H 	H 	0.45840 0.09850 0.39230 0.09100
N 	N 	0.90880 0.47293 0.81758 -0.29800
C 	C 	0.86900 0.40460 0.81420 -0.00300
H 	H 	0.87880 0.36320 0.77830 0.00500
H 	H 	0.95840 0.59850 0.89230 0.24100
N 	N 	0.59120 0.97293 0.68242 -0.21500
C 	C 	0.63100 0.90460 0.68580 -0.00400
H 	H 	0.62120 0.86320 0.72170 -0.00400
H 	H 	0.54160 0.09850 0.60770 0.09100
N 	N 	0.09120 0.47293 0.18242 -0.32400
C 	C 	0.13100 0.40460 0.18580 -0.03000
H 	H 	0.12120 0.36320 0.22170 -0.02500
H 	H 	0.04160 0.59850 0.10770 0.07400
N 	N 	0.59120 0.02707 0.31758 -0.40500
C 	C 	0.63100 0.09540 0.31420 -0.02500
H 	H 	0.62120 0.13680 0.27830 -0.00900
H 	H 	0.54160 0.90150 0.39230 0.21500
N 	N 	0.09120 0.52707 0.81758 -0.32800
C 	C 	0.13100 0.59540 0.81420 -0.02300
H 	H 	0.12120 0.63680 0.77830 -0.01300
H 	H 	0.04160 0.40150 0.89230 0.13000
N 	N 	0.68242 0.40880 0.02707 -0.40500
C 	C 	0.68580 0.36900 0.09540 -0.02400
H 	H 	0.72170 0.37880 0.13680 -0.00900
H 	H 	0.60770 0.45840 0.90150 0.21500
N 	N 	0.18242 0.90880 0.52707 -0.29200
C 	C 	0.18580 0.86900 0.59540 -0.00700
H 	H 	0.22170 0.87880 0.63680 0.00300
H 	H 	0.10770 0.95840 0.40150 0.16800
N 	N 	0.31758 0.40880 0.97293 -0.21600
C 	C 	0.31420 0.36900 0.90460 -0.00900
H 	H 	0.27830 0.37880 0.86320 -0.00700
H 	H 	0.39230 0.45840 0.09850 0.09100
N 	N 	0.81758 0.90880 0.47293 -0.29800
C 	C 	0.81420 0.86900 0.40460 -0.00300
H 	H 	0.77830 0.87880 0.36320 0.00500
H 	H 	0.89230 0.95840 0.59850 0.24100
N 	N 	0.68242 0.59120 0.97293 -0.21500
C 	C 	0.68580 0.63100 0.90460 -0.00400
H 	H 	0.72170 0.62120 0.86320 -0.00400
H 	H 	0.60770 0.54160 0.09850 0.09100
N 	N 	0.18242 0.09120 0.47293 -0.32400
C 	C 	0.18580 0.13100 0.40460 -0.03000
H 	H 	0.22170 0.12120 0.36320 -0.02500
H 	H 	0.10770 0.04160 0.59850 0.07400
N 	N 	0.31758 0.59120 0.02707 -0.40500
C 	C 	0.31420 0.63100 0.09540 -0.02500
H 	H 	0.27830 0.62120 0.13680 -0.00900
H 	H 	0.39230 0.54160 0.90150 0.21500
N 	N 	0.81758 0.09120 0.52707 -0.32800
C 	C 	0.81420 0.13100 0.59540 -0.02300
H 	H 	0.77830 0.12120 0.63680 -0.01300
H 	H 	0.89230 0.04160 0.40150 0.13000
N 	N 	0.68242 0.02707 0.40880 -0.40500
C 	C 	0.68580 0.09540 0.36900 -0.02400
H 	H 	0.72170 0.13680 0.37880 -0.00900
H 	H 	0.60770 0.90150 0.45840 0.21500
N 	N 	0.18242 0.52707 0.90880 -0.29200
C 	C 	0.18580 0.59540 0.86900 -0.00700
H 	H 	0.22170 0.63680 0.87880 0.00300
H 	H 	0.10770 0.40150 0.95840 0.16800
N 	N 	0.31758 0.97293 0.40880 -0.21600
C 	C 	0.31420 0.90460 0.36900 -0.00900
H 	H 	0.27830 0.86320 0.37880 -0.00700
H 	H 	0.39230 0.09850 0.45840 0.09100
N 	N 	0.81758 0.47293 0.90880 -0.29800
C 	C 	0.81420 0.40460 0.86900 -0.00300
H 	H 	0.77830 0.36320 0.87880 0.00500
H 	H 	0.89230 0.59850 0.95840 0.24100
N 	N 	0.68242 0.97293 0.59120 -0.21500
C 	C 	0.68580 0.90460 0.63100 -0.00400
H 	H 	0.72170 0.86320 0.62120 -0.00400
H 	H 	0.60770 0.09850 0.54160 0.09100
N 	N 	0.18242 0.47293 0.09120 -0.32400
C 	C 	0.18580 0.40460 0.13100 -0.03000
H 	H 	0.22170 0.36320 0.12120 -0.02500
H 	H 	0.10770 0.59850 0.04160 0.07400
N 	N 	0.31758 0.02707 0.59120 -0.40500
C 	C 	0.31420 0.09540 0.63100 -0.02500
H 	H 	0.27830 0.13680 0.62120 -0.00900
H 	H 	0.39230 0.90150 0.54160 0.21500
N 	N 	0.81758 0.52707 0.09120 -0.32800
C 	C 	0.81420 0.59540 0.13100 -0.02300
H 	H 	0.77830 0.63680 0.12120 -0.01300
H 	H 	0.89230 0.40150 0.04160 0.13000
N 	N 	0.02707 0.40880 0.68242 -0.40500
C 	C 	0.09540 0.36900 0.68580 -0.02400
H 	H 	0.13680 0.37880 0.72170 -0.00900
H 	H 	0.90150 0.45840 0.60770 0.21500
N 	N 	0.52707 0.90880 0.18242 -0.29200
C 	C 	0.59540 0.86900 0.18580 -0.00700
H 	H 	0.63680 0.87880 0.22170 0.00300
H 	H 	0.40150 0.95840 0.10770 0.16800
N 	N 	0.97293 0.40880 0.31758 -0.21600
C 	C 	0.90460 0.36900 0.31420 -0.00900
H 	H 	0.86320 0.37880 0.27830 -0.00700
H 	H 	0.09850 0.45840 0.39230 0.09100
N 	N 	0.47293 0.90880 0.81758 -0.29800
C 	C 	0.40460 0.86900 0.81420 -0.00300
H 	H 	0.36320 0.87880 0.77830 0.00500
H 	H 	0.59850 0.95840 0.89230 0.24100
N 	N 	0.97293 0.59120 0.68242 -0.21500
C 	C 	0.90460 0.63100 0.68580 -0.00400
H 	H 	0.86320 0.62120 0.72170 -0.00400
H 	H 	0.09850 0.54160 0.60770 0.09100
N 	N 	0.47293 0.09120 0.18242 -0.32400
C 	C 	0.40460 0.13100 0.18580 -0.03000
H 	H 	0.36320 0.12120 0.22170 -0.02500
H 	H 	0.59850 0.04160 0.10770 0.07400
N 	N 	0.02707 0.59120 0.31758 -0.40500
C 	C 	0.09540 0.63100 0.31420 -0.02500
H 	H 	0.13680 0.62120 0.27830 -0.00900
H 	H 	0.90150 0.54160 0.39230 0.21500
N 	N 	0.52707 0.09120 0.81758 -0.32800
C 	C 	0.59540 0.13100 0.81420 -0.02300
H 	H 	0.63680 0.12120 0.77830 -0.01300
H 	H 	0.40150 0.04160 0.89230 0.13000
N 	N 	0.40880 0.68242 0.02707 -0.40500
C 	C 	0.36900 0.68580 0.09540 -0.02400
H 	H 	0.37880 0.72170 0.13680 -0.00900
H 	H 	0.45840 0.60770 0.90150 0.21500
N 	N 	0.90880 0.18242 0.52707 -0.29200
C 	C 	0.86900 0.18580 0.59540 -0.00700
H 	H 	0.87880 0.22170 0.63680 0.00300
H 	H 	0.95840 0.10770 0.40150 0.16800
N 	N 	0.40880 0.31758 0.97293 -0.21600
C 	C 	0.36900 0.31420 0.90460 -0.00900
H 	H 	0.37880 0.27830 0.86320 -0.00700
H 	H 	0.45840 0.39230 0.09850 0.09100
N 	N 	0.90880 0.81758 0.47293 -0.29800
C 	C 	0.86900 0.81420 0.40460 -0.00300
H 	H 	0.87880 0.77830 0.36320 0.00500
H 	H 	0.95840 0.89230 0.59850 0.24100
N 	N 	0.59120 0.68242 0.97293 -0.21500
C 	C 	0.63100 0.68580 0.90460 -0.00400
H 	H 	0.62120 0.72170 0.86320 -0.00400
H 	H 	0.54160 0.60770 0.09850 0.09100
N 	N 	0.09120 0.18242 0.47293 -0.32400
C 	C 	0.13100 0.18580 0.40460 -0.03000
H 	H 	0.12120 0.22170 0.36320 -0.02500
H 	H 	0.04160 0.10770 0.59850 0.07400
N 	N 	0.59120 0.31758 0.02707 -0.40500
C 	C 	0.63100 0.31420 0.09540 -0.02500
H 	H 	0.62120 0.27830 0.13680 -0.00900
H 	H 	0.54160 0.39230 0.90150 0.21500
N 	N 	0.09120 0.81758 0.52707 -0.32800
C 	C 	0.13100 0.81420 0.59540 -0.02300
H 	H 	0.12120 0.77830 0.63680 -0.01300
H 	H 	0.04160 0.89230 0.40150 0.13000
Zn	Zn	-0.00000 0.75000 0.50000 1.13800
Zn	Zn	0.00000 0.25000 0.50000 1.13700
Zn	Zn	0.50000 0.00000 0.75000 1.13800
Zn	Zn	0.50000 -0.00000 0.25000 1.13700
Zn	Zn	0.75000 0.50000 -0.00000 1.13800
Zn	Zn	0.25000 0.50000 -0.00000 1.13700
Zn	Zn	0.75000 -0.00000 0.50000 1.13800
Zn	Zn	0.25000 -0.00000 0.50000 1.13700
Zn	Zn	0.00000 0.50000 0.75000 1.13800
Zn	Zn	0.00000 0.50000 0.25000 1.13700
Zn	Zn	0.50000 0.75000 -0.00000 1.13800
Zn	Zn	0.50000 0.25000 -0.00000 1.13700
C 	C 	0.98700 0.62520 0.37480 0.43400
C 	C 	0.90690 0.59790 0.40210 -0.75600
H 	H 	0.86610 0.62660 0.37340 0.21700
C 	C 	0.48700 0.12520 0.87480 0.21100
C 	C 	0.40690 0.09790 0.90210 -0.57900
H 	H 	0.36610 0.12660 0.87340 0.16000
C 	C 	0.01300 0.37480 0.37480 -0.00900
C 	C 	0.09310 0.40210 0.40210 -0.41500
H 	H 	0.13390 0.37340 0.37340 0.11200
C 	C 	0.51300 0.87480 0.87480 0.27000
C 	C 	0.59310 0.90210 0.90210 -0.71000
H 	H 	0.63390 0.87340 0.87340 0.22300
C 	C 	0.01300 0.62520 0.62520 -0.00500
C 	C 	0.09310 0.59790 0.59790 -0.41800
H 	H 	0.13390 0.62660 0.62660 0.11400
C 	C 	0.51300 0.12520 0.12520 0.16100
C 	C 	0.59310 0.09790 0.09790 -0.48000
H 	H 	0.63390 0.12660 0.12660 0.11900
C 	C 	0.98700 0.37480 0.62520 0.43400
C 	C 	0.90690 0.40210 0.59790 -0.75600
H 	H 	0.86610 0.37340 0.62660 0.21700
C 	C 	0.48700 0.87480 0.12520 0.21100
C 	C 	0.40690 0.90210 0.09790 -0.57900
H 	H 	0.36610 0.87340 0.12660 0.16000
C 	C 	0.37480 0.98700 0.62520 0.43400
C 	C 	0.40210 0.90690 0.59790 -0.75600
H 	H 	0.37340 0.86610 0.62660 0.21700
C 	C 	0.87480 0.48700 0.12520 0.21100
C 	C 	0.90210 0.40690 0.09790 -0.57900
H 	H 	0.87340 0.36610 0.12660 0.16000
C 	C 	0.37480 0.01300 0.37480 -0.00900
C 	C 	0.40210 0.09310 0.40210 -0.41500
H 	H 	0.37340 0.13390 0.37340 0.11200
C 	C 	0.87480 0.51300 0.87480 0.27000
C 	C 	0.90210 0.59310 0.90210 -0.71000
H 	H 	0.87340 0.63390 0.87340 0.22300
C 	C 	0.62520 0.01300 0.62520 -0.00500
C 	C 	0.59790 0.09310 0.59790 -0.41800
H 	H 	0.62660 0.13390 0.62660 0.11400
C 	C 	0.12520 0.51300 0.12520 0.16100
C 	C 	0.09790 0.59310 0.09790 -0.48000
H 	H 	0.12660 0.63390 0.12660 0.11900
C 	C 	0.62520 0.98700 0.37480 0.43400
C 	C 	0.59790 0.90690 0.40210 -0.75600
H 	H 	0.62660 0.86610 0.37340 0.21700
C 	C 	0.12520 0.48700 0.87480 0.21100
C 	C 	0.09790 0.40690 0.90210 -0.57900
H 	H 	0.12660 0.36610 0.87340 0.16000
C 	C 	0.62520 0.37480 0.98700 0.43400
C 	C 	0.59790 0.40210 0.90690 -0.75600
H 	H 	0.62660 0.37340 0.86610 0.21700
C 	C 	0.12520 0.87480 0.48700 0.21100
C 	C 	0.09790 0.90210 0.40690 -0.57900
H 	H 	0.12660 0.87340 0.36610 0.16000
C 	C 	0.37480 0.37480 0.01300 -0.00900
C 	C 	0.40210 0.40210 0.09310 -0.41500
H 	H 	0.37340 0.37340 0.13390 0.11200
C 	C 	0.87480 0.87480 0.51300 0.27000
C 	C 	0.90210 0.90210 0.59310 -0.71000
H 	H 	0.87340 0.87340 0.63390 0.22300
C 	C 	0.62520 0.62520 0.01300 -0.00500
C 	C 	0.59790 0.59790 0.09310 -0.41800
H 	H 	0.62660 0.62660 0.13390 0.11400
C 	C 	0.12520 0.12520 0.51300 0.16100
C 	C 	0.09790 0.09790 0.59310 -0.48000
H 	H 	0.12660 0.12660 0.63390 0.11900
C 	C 	0.37480 0.62520 0.98700 0.43400
C 	C 	0.40210 0.59790 0.90690 -0.75600
H 	H 	0.37340 0.62660 0.86610 0.21700
C 	C 	0.87480 0.12520 0.48700 0.21100
C 	C 	0.90210 0.09790 0.40690 -0.57900
H 	H 	0.87340 0.12660 0.36610 0.16000
