data_crystal

_cell_length_a 4.80130
_cell_length_b 19.49510
_cell_length_c 19.49510
_cell_angle_alpha 60.66660
_cell_angle_beta  85.29100
_cell_angle_gamma 94.70900

_symmetry_space_group_name_	'P 1'
_symmetry_space_group_name_H-M	'P 1'

loop_
_symmetry_equiv_pos_as_xyz
  x,y,z

loop_
_atom_site_label
_atom_site_type_symbol
_atom_site_fract_x
_atom_site_fract_y
_atom_site_fract_z
_atom_site_charge
Cu	Cu	0.50000 0.50000 0.50000 0.90900
Cu	Cu	-0.00000 0.50000 -0.00000 0.87100
Cu	Cu	-0.00000 0.00000 0.50000 0.87100
H 	H 	0.51700 0.55750 0.62940 0.02600
H 	H 	0.18460 0.34020 0.74090 0.09600
H 	H 	0.70870 0.52510 0.78210 0.06400
H 	H 	0.22800 0.35480 0.85120 0.06000
H 	H 	0.91630 0.40980 0.59990 0.14900
H 	H 	0.14640 0.62940 0.81310 0.01300
H 	H 	0.92550 0.74090 0.91890 0.14000
H 	H 	0.49080 0.78210 0.69280 0.03400
H 	H 	0.07920 0.85120 0.79400 -0.00800
H 	H 	0.51620 0.59990 0.99030 0.16900
H 	H 	0.95950 0.81310 0.55750 0.07000
H 	H 	0.84440 0.91890 0.34020 0.11400
H 	H 	0.18360 0.69280 0.52510 0.04300
H 	H 	0.87320 0.79400 0.35480 0.04100
H 	H 	0.50650 0.99030 0.40980 0.16300
H 	H 	0.48300 0.44250 0.37060 0.02600
H 	H 	0.81540 0.65980 0.25910 0.10100
H 	H 	0.29130 0.47490 0.21790 0.03100
H 	H 	0.77200 0.64520 0.14880 0.00800
H 	H 	0.08370 0.59020 0.40010 0.12600
H 	H 	0.85360 0.37060 0.18690 0.04100
H 	H 	0.07450 0.25910 0.08110 0.05400
H 	H 	0.50920 0.21790 0.30720 0.06200
H 	H 	0.92080 0.14880 0.20600 0.08200
H 	H 	0.48380 0.40010 0.00970 0.11100
H 	H 	0.04050 0.18690 0.44250 -0.01600
H 	H 	0.15560 0.08110 0.65980 0.08400
H 	H 	0.81640 0.30720 0.47490 0.05000
H 	H 	0.12680 0.20600 0.64520 0.02400
H 	H 	0.49350 0.00970 0.59020 0.11600
C 	C 	0.63185 0.51692 0.63937 0.03300
C 	C 	0.97179 0.44069 0.82672 0.01100
C 	C 	0.09014 0.37715 0.74893 -0.15600
C 	C 	0.80397 0.48851 0.77350 -0.03500
C 	C 	0.77979 0.48125 0.70558 -0.03500
C 	C 	0.11289 0.38620 0.81363 -0.02300
C 	C 	0.91856 0.42593 0.69475 0.15800
C 	C 	0.56362 0.65371 0.44715 0.31900
C 	C 	0.27122 0.63937 0.84371 0.04700
C 	C 	0.79851 0.82672 0.73259 -0.13200
C 	C 	0.83907 0.74893 0.87392 -0.20200
C 	C 	0.57747 0.77350 0.73799 0.04100
C 	C 	0.48537 0.70558 0.81317 -0.07800
C 	C 	0.92652 0.81363 0.80017 0.14700
C 	C 	0.61331 0.69475 0.87932 0.17500
C 	C 	0.01077 0.44715 0.89914 0.22400
C 	C 	0.11493 0.84371 0.51692 -0.02600
C 	C 	0.53110 0.73259 0.44069 -0.08900
C 	C 	0.71299 0.87392 0.37715 -0.14900
C 	C 	0.31546 0.73799 0.48851 -0.00700
C 	C 	0.29854 0.81317 0.48125 -0.03500
C 	C 	0.72669 0.80017 0.38620 0.05000
C 	C 	0.49263 0.87932 0.42593 0.14100
C 	C 	0.90991 0.89914 0.65371 0.37300
C 	C 	0.36815 0.48308 0.36063 0.04400
C 	C 	0.02821 0.55931 0.17328 -0.18800
C 	C 	0.90986 0.62285 0.25107 -0.14900
C 	C 	0.19603 0.51149 0.22650 0.04500
C 	C 	0.22021 0.51875 0.29442 -0.06800
C 	C 	0.88711 0.61380 0.18637 0.11500
C 	C 	0.08144 0.57407 0.30525 0.11700
C 	C 	0.43638 0.34629 0.55285 0.32400
C 	C 	0.72878 0.36063 0.15629 0.03000
C 	C 	0.20149 0.17328 0.26741 -0.04800
C 	C 	0.16093 0.25107 0.12608 -0.09400
C 	C 	0.42253 0.22650 0.26201 -0.03000
C 	C 	0.51463 0.29442 0.18683 -0.02300
C 	C 	0.07348 0.18637 0.19983 -0.06200
C 	C 	0.38669 0.30525 0.12068 0.09700
C 	C 	0.98923 0.55285 0.10086 0.40900
C 	C 	0.88507 0.15629 0.48308 0.10400
C 	C 	0.46890 0.26741 0.55931 -0.10000
C 	C 	0.28701 0.12608 0.62285 -0.15600
C 	C 	0.68454 0.26201 0.51149 0.02300
C 	C 	0.70146 0.18683 0.51875 -0.07000
C 	C 	0.27331 0.19983 0.61380 0.05100
C 	C 	0.50737 0.12068 0.57407 0.13500
C 	C 	0.09009 0.10086 0.34629 0.26100
N 	N 	0.67716 0.48569 0.59341 -0.16800
N 	N 	0.85037 0.43012 0.62721 -0.18800
N 	N 	0.27057 0.59341 0.92090 -0.16300
N 	N 	0.47758 0.62721 0.94267 -0.19500
N 	N 	0.19147 0.92090 0.48569 -0.15200
N 	N 	0.42025 0.94267 0.43012 -0.18700
N 	N 	0.32284 0.51431 0.40659 -0.17400
N 	N 	0.14963 0.56988 0.37279 -0.18300
N 	N 	0.72943 0.40659 0.07910 -0.16800
N 	N 	0.52242 0.37279 0.05733 -0.17500
N 	N 	0.80853 0.07910 0.51431 -0.17900
N 	N 	0.57975 0.05733 0.56988 -0.18400
O 	O 	0.37097 0.59584 0.49173 -0.39200
O 	O 	0.77477 0.64811 0.40990 -0.29800
O 	O 	0.86270 0.49173 0.91243 -0.31600
O 	O 	0.18467 0.40990 0.94199 -0.26100
O 	O 	0.77513 0.91243 0.59584 -0.36800
O 	O 	0.12666 0.94199 0.64811 -0.31300
O 	O 	0.62903 0.40416 0.50827 -0.38300
O 	O 	0.22523 0.35189 0.59010 -0.32200
O 	O 	0.13730 0.50827 0.08757 -0.44000
O 	O 	0.81533 0.59010 0.05801 -0.35000
O 	O 	0.22487 0.08757 0.40416 -0.39000
O 	O 	0.87334 0.05801 0.35189 -0.29500
