data_crystal

_cell_length_a 13.86800
_cell_length_b 26.59100
_cell_length_c 7.84000
_cell_angle_alpha 90.00000
_cell_angle_beta  90.00000
_cell_angle_gamma 90.00000

_symmetry_space_group_name_	'P 1'
_symmetry_space_group_name_H-M	'P 1'

loop_
_symmetry_equiv_pos_as_xyz
  x,y,z

loop_
_atom_site_label
_atom_site_type_symbol
_atom_site_fract_x
_atom_site_fract_y
_atom_site_fract_z
_atom_site_charge
Cd	Cd	0.67515 0.50000 0.62130 1.18100
Cd	Cd	0.75433 0.76473 0.61800 1.18100
Ni	Ni	0.73270 0.63186 0.11080 1.04600
N 	N 	0.70100 0.55640 0.83400 -0.19800
N 	N 	0.69400 0.55570 0.38300 -0.17500
N 	N 	0.83160 0.46720 0.60500 -0.17900
N 	N 	0.63900 0.44070 0.40500 -0.20500
N 	N 	0.50750 0.50320 0.59300 -0.23100
N 	N 	0.76400 0.71120 0.83800 -0.20400
N 	N 	0.76900 0.70750 0.39500 -0.19000
N 	N 	0.90800 0.79870 0.61800 -0.18400
N 	N 	0.72300 0.82400 0.39500 -0.20200
N 	N 	0.58400 0.75870 0.57500 -0.22700
C 	C 	0.71100 0.58410 0.94000 -0.24600
C 	C 	0.70900 0.58410 0.27400 -0.27000
C 	C 	0.88100 0.43440 0.56400 -0.23200
C 	C 	0.75400 0.68130 0.94300 -0.25200
C 	C 	0.75800 0.67880 0.29000 -0.23800
C 	C 	0.95800 0.82930 0.57300 -0.22800
C 	C 	0.53800 0.44600 0.35700 -0.06300
C 	C 	0.47700 0.46400 0.46500 0.01600
C 	C 	0.36900 0.46720 0.43200 -0.06600
C 	C 	0.61800 0.82400 0.35700 -0.06400
C 	C 	0.55400 0.79500 0.45600 0.02300
C 	C 	0.44900 0.79600 0.40200 -0.06900
Cd	Cd	0.32485 0.00000 0.37870 1.16100
Cd	Cd	0.24567 0.26473 0.38200 1.18100
Ni	Ni	0.26730 0.13186 0.88920 1.04200
N 	N 	0.29900 0.05640 0.16600 -0.21000
N 	N 	0.30600 0.05570 0.61700 -0.18700
N 	N 	0.16840 0.96720 0.39500 -0.16200
N 	N 	0.36100 0.94070 0.59500 -0.19200
N 	N 	0.49250 0.00320 0.40700 -0.27100
N 	N 	0.23600 0.21120 0.16200 -0.20400
N 	N 	0.23100 0.20750 0.60500 -0.19100
N 	N 	0.09200 0.29870 0.38200 -0.18400
N 	N 	0.27700 0.32400 0.60500 -0.20300
N 	N 	0.41600 0.25870 0.42500 -0.22700
C 	C 	0.28900 0.08410 0.06000 -0.25600
C 	C 	0.29100 0.08410 0.72600 -0.28400
C 	C 	0.11900 0.93440 0.43600 -0.22600
C 	C 	0.24600 0.18130 0.05700 -0.25300
C 	C 	0.24200 0.17880 0.71000 -0.24200
C 	C 	0.04200 0.32930 0.42700 -0.23100
C 	C 	0.46200 0.94600 0.64300 -0.06100
C 	C 	0.52300 0.96400 0.53500 0.05100
C 	C 	0.63100 0.96720 0.56800 -0.04600
C 	C 	0.38200 0.32400 0.64300 -0.06500
C 	C 	0.44600 0.29500 0.54400 0.02300
C 	C 	0.55100 0.29600 0.59800 -0.07100
Ni	Ni	0.96210 0.38259 0.49450 1.05900
N 	N 	0.13100 0.43390 0.66300 -0.15000
N 	N 	0.20810 0.83210 0.67500 -0.15300
C 	C 	0.06700 0.41500 0.59300 -0.24100
C 	C 	0.14600 0.85120 0.60500 -0.23100
Ni	Ni	0.03790 0.88259 0.50550 1.05700
N 	N 	0.86900 0.93390 0.33700 -0.13800
N 	N 	0.79190 0.33210 0.32500 -0.15300
C 	C 	0.93300 0.91500 0.40700 -0.23000
C 	C 	0.85400 0.35120 0.39500 -0.23000
Ni	Ni	0.46210 0.38259 0.00550 1.05700
N 	N 	0.63100 0.43390 0.83700 -0.15000
N 	N 	0.70810 0.83210 0.82500 -0.15300
C 	C 	0.56700 0.41500 0.90700 -0.23800
C 	C 	0.64600 0.85120 0.89500 -0.23100
Ni	Ni	0.53790 0.88259 0.99450 1.05600
N 	N 	0.36900 0.93390 0.16300 -0.13800
N 	N 	0.29190 0.33210 0.17500 -0.15300
C 	C 	0.43300 0.91500 0.09300 -0.22700
C 	C 	0.35400 0.35120 0.10500 -0.23100
Cd	Cd	0.17515 0.50000 0.87870 1.17900
Cd	Cd	0.25433 0.76473 0.88200 1.17900
Ni	Ni	0.23270 0.63186 0.38920 1.04500
N 	N 	0.20100 0.55640 0.66600 -0.19900
N 	N 	0.19400 0.55570 0.11700 -0.17500
N 	N 	0.33160 0.46720 0.89500 -0.18000
N 	N 	0.13900 0.44070 0.09500 -0.20500
N 	N 	0.00750 0.50320 0.90700 -0.23200
N 	N 	0.26400 0.71120 0.66200 -0.20400
N 	N 	0.26900 0.70750 0.10500 -0.18800
N 	N 	0.40800 0.79870 0.88200 -0.18400
N 	N 	0.22300 0.82400 0.10500 -0.20000
N 	N 	0.08400 0.75870 0.92500 -0.23300
C 	C 	0.21100 0.58410 0.56000 -0.24800
C 	C 	0.20900 0.58410 0.22600 -0.27000
C 	C 	0.38100 0.43440 0.93600 -0.23100
C 	C 	0.25400 0.68130 0.55700 -0.25200
C 	C 	0.25800 0.67880 0.21000 -0.23800
C 	C 	0.45800 0.82930 0.92700 -0.23300
C 	C 	0.03800 0.44600 0.14300 -0.06100
C 	C 	0.97700 0.46400 0.03500 0.01300
C 	C 	0.86900 0.46720 0.06800 -0.06800
C 	C 	0.11800 0.82400 0.14300 -0.06500
C 	C 	0.05400 0.79500 0.04400 0.03000
C 	C 	0.94900 0.79600 0.09800 -0.06900
Cd	Cd	0.82485 -0.00000 0.12130 1.16100
Cd	Cd	0.74567 0.26473 0.11800 1.18000
Ni	Ni	0.76730 0.13186 0.61080 1.04400
N 	N 	0.79900 0.05640 0.33400 -0.21000
N 	N 	0.80600 0.05570 0.88300 -0.18800
N 	N 	0.66840 0.96720 0.10500 -0.16200
N 	N 	0.86100 0.94070 0.90500 -0.19500
N 	N 	0.99250 0.00320 0.09300 -0.26500
N 	N 	0.73600 0.21120 0.33800 -0.20400
N 	N 	0.73100 0.20750 0.89500 -0.19000
N 	N 	0.59200 0.29870 0.11800 -0.18400
N 	N 	0.77700 0.32400 0.89500 -0.20100
N 	N 	0.91600 0.25870 0.07500 -0.23100
C 	C 	0.78900 0.08410 0.44000 -0.25900
C 	C 	0.79100 0.08410 0.77400 -0.28300
C 	C 	0.61900 0.93440 0.06400 -0.22000
C 	C 	0.74600 0.18130 0.44300 -0.25400
C 	C 	0.74200 0.17880 0.79000 -0.24100
C 	C 	0.54200 0.32930 0.07300 -0.23100
C 	C 	0.96200 0.94600 0.85700 -0.05000
C 	C 	0.02300 0.96400 0.96500 0.03400
C 	C 	0.13100 0.96720 0.93200 -0.04900
C 	C 	0.88200 0.32400 0.85700 -0.06600
C 	C 	0.94600 0.29500 0.95600 0.03100
C 	C 	0.05100 0.29600 0.90200 -0.07600
