data_crystal

_cell_length_a 25.12670
_cell_length_b 22.15140
_cell_length_c 13.60620
_cell_angle_alpha 90.00000
_cell_angle_beta  90.00000
_cell_angle_gamma 90.00000

_symmetry_space_group_name_	'P 1'
_symmetry_space_group_name_H-M	'P 1'

loop_
_symmetry_equiv_pos_as_xyz
  x,y,z

loop_
_atom_site_label
_atom_site_type_symbol
_atom_site_fract_x
_atom_site_fract_y
_atom_site_fract_z
_atom_site_charge
Gd	Gd	0.03291 0.82867 0.48271 1.22000
Ru	Ru	0.35137 0.69869 0.25896 0.93200
Ru	Ru	0.12938 0.65121 0.26092 0.92700
C 	C 	0.24244 0.66280 0.31180 0.06900
C 	C 	0.20290 0.60940 0.43540 0.09700
H 	H 	0.17290 0.59390 0.46620 -0.01400
C 	C 	0.25250 0.60120 0.47710 -0.16500
H 	H 	0.25590 0.57960 0.53550 0.09900
C 	C 	0.29660 0.62500 0.43200 0.09900
H 	H 	0.33000 0.61900 0.45970 -0.00700
C 	C 	0.23674 0.69580 0.21900 0.06200
C 	C 	0.18250 0.73160 0.09720 -0.00100
H 	H 	0.14890 0.73680 0.06970 0.03900
C 	C 	0.22680 0.75710 0.05110 0.07700
H 	H 	0.22310 0.77890 0.99300 -0.03600
C 	C 	0.27630 0.74930 0.09370 -0.00700
H 	H 	0.30630 0.76560 0.06340 0.06400
C 	C 	0.34470 0.77910 0.33190 -0.13600
C 	C 	0.10180 0.73930 0.66540 -0.16100
C 	C 	0.91380 0.82280 0.34080 -0.14300
C 	C 	0.35930 0.61960 0.18620 -0.13600
C 	C 	0.10340 0.72650 0.32970 -0.13700
C 	C 	0.07000 0.66360 0.16840 -0.14000
C 	C 	0.08330 0.60300 0.34820 -0.15900
C 	C 	0.15140 0.57510 0.18700 -0.12300
N 	N 	0.19797 0.63980 0.35070 -0.22100
N 	N 	0.29209 0.65710 0.34770 -0.21900
N 	N 	0.18785 0.69996 0.18040 -0.19700
N 	N 	0.28168 0.71822 0.17920 -0.19300
N 	N 	0.34240 0.82470 0.37130 -0.07800
N 	N 	0.07680 0.76830 0.60870 -0.17100
N 	N 	0.95080 0.83350 0.38810 -0.17100
N 	N 	0.36440 0.57370 0.14510 -0.07600
N 	N 	0.08510 0.76860 0.36670 -0.18200
N 	N 	0.03450 0.67100 0.11610 -0.14400
N 	N 	0.05787 0.57440 0.40150 -0.17500
N 	N 	0.16360 0.53180 0.14580 -0.05500
O 	O 	0.00190 0.93310 0.50870 -0.18300
O 	O 	0.95530 0.58160 0.07460 -0.15700
O 	O 	0.10700 0.88470 0.52610 -0.15400
O 	O 	0.87020 0.64140 0.98170 -0.25000
Gd	Gd	0.03291 0.32867 0.98271 1.04700
Ru	Ru	0.35137 0.19869 0.75896 0.93000
Ru	Ru	0.12938 0.15121 0.76092 0.92600
C 	C 	0.24244 0.16280 0.81180 0.07100
C 	C 	0.20290 0.10940 0.93540 0.20300
H 	H 	0.17290 0.09390 0.96620 -0.07400
C 	C 	0.25250 0.10120 0.97710 -0.41300
H 	H 	0.25590 0.07960 0.03550 0.23500
C 	C 	0.29660 0.12500 0.93200 0.20400
H 	H 	0.33000 0.11900 0.95970 -0.07200
C 	C 	0.23674 0.19580 0.71900 0.06200
C 	C 	0.18250 0.23160 0.59720 0.09500
H 	H 	0.14890 0.23680 0.56970 -0.02300
C 	C 	0.22680 0.25710 0.55110 -0.16200
H 	H 	0.22310 0.27890 0.49300 0.09500
C 	C 	0.27630 0.24930 0.59370 0.09200
H 	H 	0.30630 0.26560 0.56340 0.00100
C 	C 	0.34470 0.27910 0.83190 -0.14800
C 	C 	0.10180 0.23930 0.16540 -0.15100
C 	C 	0.91380 0.32280 0.84080 -0.16300
C 	C 	0.35930 0.11960 0.68620 -0.15600
C 	C 	0.10340 0.22650 0.82970 -0.15400
C 	C 	0.07000 0.16360 0.66840 -0.15000
C 	C 	0.08330 0.10300 0.84820 -0.17100
C 	C 	0.15140 0.07510 0.68700 -0.13700
N 	N 	0.19797 0.13980 0.85070 -0.24500
N 	N 	0.29209 0.15710 0.84770 -0.24400
N 	N 	0.18785 0.19996 0.68040 -0.22100
N 	N 	0.28168 0.21822 0.67920 -0.21700
N 	N 	0.34240 0.32470 0.87130 -0.09300
N 	N 	0.07680 0.26830 0.10870 -0.13800
N 	N 	0.95080 0.33350 0.88810 -0.17600
N 	N 	0.36440 0.07370 0.64510 -0.10400
N 	N 	0.08510 0.26860 0.86670 -0.18000
N 	N 	0.03450 0.17100 0.61610 -0.17300
N 	N 	0.05787 0.07440 0.90150 -0.17800
N 	N 	0.16360 0.03180 0.64580 -0.07200
O 	O 	0.00190 0.43310 0.00870 -0.15200
O 	O 	0.95530 0.08160 0.57460 -0.17900
O 	O 	0.10700 0.38470 0.02610 -0.04300
O 	O 	0.87020 0.14140 0.48170 -0.15000
Gd	Gd	0.96709 0.17133 0.48271 1.27400
Ru	Ru	0.64863 0.30131 0.25896 0.93300
Ru	Ru	0.87062 0.34879 0.26092 0.92900
C 	C 	0.75756 0.33720 0.31180 0.07000
C 	C 	0.79710 0.39060 0.43540 0.09800
H 	H 	0.82710 0.40610 0.46620 -0.01100
C 	C 	0.74750 0.39880 0.47710 -0.16400
H 	H 	0.74410 0.42040 0.53550 0.09900
C 	C 	0.70340 0.37500 0.43200 0.09900
H 	H 	0.67000 0.38100 0.45970 -0.00600
C 	C 	0.76326 0.30420 0.21900 0.06000
C 	C 	0.81750 0.26840 0.09720 -0.00400
H 	H 	0.85110 0.26320 0.06970 0.04100
C 	C 	0.77320 0.24290 0.05110 0.07800
H 	H 	0.77690 0.22110 0.99300 -0.04000
C 	C 	0.72370 0.25070 0.09370 -0.01000
H 	H 	0.69370 0.23440 0.06340 0.06300
C 	C 	0.65530 0.22090 0.33190 -0.13900
C 	C 	0.89820 0.26070 0.66540 -0.15600
C 	C 	0.08620 0.17720 0.34080 -0.15400
C 	C 	0.64070 0.38040 0.18620 -0.13500
C 	C 	0.89660 0.27350 0.32970 -0.13300
C 	C 	0.93000 0.33640 0.16840 -0.13200
C 	C 	0.91670 0.39700 0.34820 -0.15100
C 	C 	0.84860 0.42490 0.18700 -0.11800
N 	N 	0.80203 0.36020 0.35070 -0.22100
N 	N 	0.70791 0.34290 0.34770 -0.21900
N 	N 	0.81215 0.30004 0.18040 -0.19700
N 	N 	0.71832 0.28178 0.17920 -0.19400
N 	N 	0.65760 0.17530 0.37130 -0.08700
N 	N 	0.92320 0.23170 0.60870 -0.16900
N 	N 	0.04920 0.16650 0.38810 -0.19300
N 	N 	0.63560 0.42630 0.14510 -0.07600
N 	N 	0.91490 0.23140 0.36670 -0.18300
N 	N 	0.96550 0.32900 0.11610 -0.12300
N 	N 	0.94213 0.42560 0.40150 -0.16500
N 	N 	0.83640 0.46820 0.14580 -0.05300
O 	O 	0.99810 0.06690 0.50870 -0.17800
O 	O 	0.04470 0.41840 0.07460 -0.16400
O 	O 	0.89300 0.11530 0.52610 -0.16500
O 	O 	0.12980 0.35860 0.98170 -0.25000
Gd	Gd	0.96709 0.67133 0.98271 1.11200
Ru	Ru	0.64863 0.80131 0.75896 0.93100
Ru	Ru	0.87062 0.84879 0.76092 0.92800
C 	C 	0.75756 0.83720 0.81180 0.07300
C 	C 	0.79710 0.89060 0.93540 0.20500
H 	H 	0.82710 0.90610 0.96620 -0.06700
C 	C 	0.74750 0.89880 0.97710 -0.40700
H 	H 	0.74410 0.92040 0.03550 0.23900
C 	C 	0.70340 0.87500 0.93200 0.20600
H 	H 	0.67000 0.88100 0.95970 -0.06800
C 	C 	0.76326 0.80420 0.71900 0.06300
C 	C 	0.81750 0.76840 0.59720 0.09400
H 	H 	0.85110 0.76320 0.56970 -0.01900
C 	C 	0.77320 0.74290 0.55110 -0.16100
H 	H 	0.77690 0.72110 0.49300 0.09600
C 	C 	0.72370 0.75070 0.59370 0.09200
H 	H 	0.69370 0.73440 0.56340 0.00100
C 	C 	0.65530 0.72090 0.83190 -0.14800
C 	C 	0.89820 0.76070 0.16540 -0.14200
C 	C 	0.08620 0.67720 0.84080 -0.17000
C 	C 	0.64070 0.88040 0.68620 -0.15100
C 	C 	0.89660 0.77350 0.82970 -0.14700
C 	C 	0.93000 0.83640 0.66840 -0.13800
C 	C 	0.91670 0.89700 0.84820 -0.15500
C 	C 	0.84860 0.92490 0.68700 -0.12500
N 	N 	0.80203 0.86020 0.85070 -0.24400
N 	N 	0.70791 0.84290 0.84770 -0.24300
N 	N 	0.81215 0.80004 0.68040 -0.22000
N 	N 	0.71832 0.78178 0.67920 -0.21700
N 	N 	0.65760 0.67530 0.87130 -0.09300
N 	N 	0.92320 0.73170 0.10870 -0.13600
N 	N 	0.04920 0.66650 0.88810 -0.19700
N 	N 	0.63560 0.92630 0.64510 -0.09300
N 	N 	0.91490 0.73140 0.86670 -0.17900
N 	N 	0.96550 0.82900 0.61610 -0.15100
N 	N 	0.94213 0.92560 0.90150 -0.15500
N 	N 	0.83640 0.96820 0.64580 -0.05500
O 	O 	0.99810 0.56690 0.00870 -0.12900
O 	O 	0.04470 0.91840 0.57460 -0.17200
O 	O 	0.89300 0.61530 0.02610 -0.04600
O 	O 	0.12980 0.85860 0.48170 -0.14200
Gd	Gd	0.53291 0.67133 0.48271 1.24700
Ru	Ru	0.85137 0.80131 0.25896 0.93400
Ru	Ru	0.62938 0.84879 0.26092 0.92900
C 	C 	0.74244 0.83720 0.31180 0.07100
C 	C 	0.70290 0.89060 0.43540 0.10000
H 	H 	0.67290 0.90610 0.46620 -0.01000
C 	C 	0.75250 0.89880 0.47710 -0.16200
H 	H 	0.75590 0.92040 0.53550 0.10200
C 	C 	0.79660 0.87500 0.43200 0.10100
H 	H 	0.83000 0.88100 0.45970 -0.00400
C 	C 	0.73674 0.80420 0.21900 0.06100
C 	C 	0.68250 0.76840 0.09720 -0.00200
H 	H 	0.64890 0.76320 0.06970 0.03900
C 	C 	0.72680 0.74290 0.05110 0.07600
H 	H 	0.72310 0.72110 0.99300 -0.03800
C 	C 	0.77630 0.75070 0.09370 -0.00800
H 	H 	0.80630 0.73440 0.06340 0.06300
C 	C 	0.84470 0.72090 0.33190 -0.13600
C 	C 	0.60180 0.76070 0.66540 -0.15800
C 	C 	0.41380 0.67720 0.34080 -0.14900
C 	C 	0.85930 0.88040 0.18620 -0.13000
C 	C 	0.60340 0.77350 0.32970 -0.13500
C 	C 	0.57000 0.83640 0.16840 -0.13400
C 	C 	0.58330 0.89700 0.34820 -0.15100
C 	C 	0.65140 0.92490 0.18700 -0.11600
N 	N 	0.69797 0.86020 0.35070 -0.22100
N 	N 	0.79209 0.84290 0.34770 -0.21800
N 	N 	0.68785 0.80004 0.18040 -0.19700
N 	N 	0.78168 0.78178 0.17920 -0.19400
N 	N 	0.84240 0.67530 0.37130 -0.08100
N 	N 	0.57680 0.73170 0.60870 -0.17000
N 	N 	0.45080 0.66650 0.38810 -0.18200
N 	N 	0.86440 0.92630 0.14510 -0.06700
N 	N 	0.58510 0.73140 0.36670 -0.18300
N 	N 	0.53450 0.82900 0.11610 -0.13400
N 	N 	0.55787 0.92560 0.40150 -0.16200
N 	N 	0.66360 0.96820 0.14580 -0.04600
O 	O 	0.50190 0.56690 0.50870 -0.18200
O 	O 	0.45530 0.91840 0.07460 -0.15300
O 	O 	0.60700 0.61530 0.52610 -0.16000
O 	O 	0.37020 0.85860 0.98170 -0.24600
Gd	Gd	0.53291 0.17133 0.98271 1.07200
Ru	Ru	0.85137 0.30131 0.75896 0.93000
Ru	Ru	0.62938 0.34879 0.76092 0.92600
C 	C 	0.74244 0.33720 0.81180 0.07200
C 	C 	0.70290 0.39060 0.93540 0.20500
H 	H 	0.67290 0.40610 0.96620 -0.07200
C 	C 	0.75250 0.39880 0.97710 -0.41100
H 	H 	0.75590 0.42040 0.03550 0.23700
C 	C 	0.79660 0.37500 0.93200 0.20600
H 	H 	0.83000 0.38100 0.95970 -0.06900
C 	C 	0.73674 0.30420 0.71900 0.06200
C 	C 	0.68250 0.26840 0.59720 0.09300
H 	H 	0.64890 0.26320 0.56970 -0.02200
C 	C 	0.72680 0.24290 0.55110 -0.16200
H 	H 	0.72310 0.22110 0.49300 0.09400
C 	C 	0.77630 0.25070 0.59370 0.09100
H 	H 	0.80630 0.23440 0.56340 -0.00000
C 	C 	0.84470 0.22090 0.83190 -0.14700
C 	C 	0.60180 0.26070 0.16540 -0.14800
C 	C 	0.41380 0.17720 0.84080 -0.16900
C 	C 	0.85930 0.38040 0.68620 -0.15200
C 	C 	0.60340 0.27350 0.82970 -0.15200
C 	C 	0.57000 0.33640 0.66840 -0.14500
C 	C 	0.58330 0.39700 0.84820 -0.16400
C 	C 	0.65140 0.42490 0.68700 -0.13200
N 	N 	0.69797 0.36020 0.85070 -0.24500
N 	N 	0.79209 0.34290 0.84770 -0.24300
N 	N 	0.68785 0.30004 0.68040 -0.22000
N 	N 	0.78168 0.28178 0.67920 -0.21700
N 	N 	0.84240 0.17530 0.87130 -0.09500
N 	N 	0.57680 0.23170 0.10870 -0.13700
N 	N 	0.45080 0.16650 0.88810 -0.18800
N 	N 	0.86440 0.42630 0.64510 -0.09700
N 	N 	0.58510 0.23140 0.86670 -0.18000
N 	N 	0.53450 0.32900 0.61610 -0.16200
N 	N 	0.55787 0.42560 0.90150 -0.17800
N 	N 	0.66360 0.46820 0.64580 -0.06400
O 	O 	0.50190 0.06690 0.00870 -0.14900
O 	O 	0.45530 0.41840 0.57460 -0.17700
O 	O 	0.60700 0.11530 0.02610 -0.04900
O 	O 	0.37020 0.35860 0.48170 -0.14700
Gd	Gd	0.46709 0.32867 0.48271 1.24400
Ru	Ru	0.14863 0.19869 0.25896 0.93300
Ru	Ru	0.37062 0.15121 0.26092 0.92800
C 	C 	0.25756 0.16280 0.31180 0.06900
C 	C 	0.29710 0.10940 0.43540 0.09600
H 	H 	0.32710 0.09390 0.46620 -0.01400
C 	C 	0.24750 0.10120 0.47710 -0.16500
H 	H 	0.24410 0.07960 0.53550 0.09600
C 	C 	0.20340 0.12500 0.43200 0.09800
H 	H 	0.17000 0.11900 0.45970 -0.00900
C 	C 	0.26326 0.19580 0.21900 0.06100
C 	C 	0.31750 0.23160 0.09720 -0.00400
H 	H 	0.35110 0.23680 0.06970 0.04000
C 	C 	0.27320 0.25710 0.05110 0.07900
H 	H 	0.27690 0.27890 0.99300 -0.04000
C 	C 	0.22370 0.24930 0.09370 -0.01000
H 	H 	0.19370 0.26560 0.06340 0.06400
C 	C 	0.15530 0.27910 0.33190 -0.13900
C 	C 	0.39820 0.23930 0.66540 -0.16000
C 	C 	0.58620 0.32280 0.34080 -0.15000
C 	C 	0.14070 0.11960 0.18620 -0.13900
C 	C 	0.39660 0.22650 0.32970 -0.13600
C 	C 	0.43000 0.16360 0.16840 -0.13800
C 	C 	0.41670 0.10300 0.34820 -0.15900
C 	C 	0.34860 0.07510 0.18700 -0.12500
N 	N 	0.30203 0.13980 0.35070 -0.22100
N 	N 	0.20791 0.15710 0.34770 -0.21900
N 	N 	0.31215 0.19996 0.18040 -0.19700
N 	N 	0.21832 0.21822 0.17920 -0.19300
N 	N 	0.15760 0.32470 0.37130 -0.08500
N 	N 	0.42320 0.26830 0.60870 -0.17000
N 	N 	0.54920 0.33350 0.38810 -0.18300
N 	N 	0.13560 0.07370 0.14510 -0.08100
N 	N 	0.41490 0.26860 0.36670 -0.18300
N 	N 	0.46550 0.17100 0.11610 -0.13400
N 	N 	0.44213 0.07440 0.40150 -0.17500
N 	N 	0.33640 0.03180 0.14580 -0.06100
O 	O 	0.49810 0.43310 0.50870 -0.18200
O 	O 	0.54470 0.08160 0.07460 -0.16700
O 	O 	0.39300 0.38470 0.52610 -0.16000
O 	O 	0.62980 0.14140 0.98170 -0.25400
Gd	Gd	0.46709 0.82867 0.98271 1.08200
Ru	Ru	0.14863 0.69869 0.75896 0.93000
Ru	Ru	0.37062 0.65121 0.76092 0.92700
C 	C 	0.25756 0.66280 0.81180 0.07200
C 	C 	0.29710 0.60940 0.93540 0.20500
H 	H 	0.32710 0.59390 0.96620 -0.07300
C 	C 	0.24750 0.60120 0.97710 -0.41300
H 	H 	0.24410 0.57960 0.03550 0.23800
C 	C 	0.20340 0.62500 0.93200 0.20600
H 	H 	0.17000 0.61900 0.95970 -0.07200
C 	C 	0.26326 0.69580 0.71900 0.06300
C 	C 	0.31750 0.73160 0.59720 0.09600
H 	H 	0.35110 0.73680 0.56970 -0.02000
C 	C 	0.27320 0.75710 0.55110 -0.16100
H 	H 	0.27690 0.77890 0.49300 0.09800
C 	C 	0.22370 0.74930 0.59370 0.09300
H 	H 	0.19370 0.76560 0.56340 0.00200
C 	C 	0.15530 0.77910 0.83190 -0.14700
C 	C 	0.39820 0.73930 0.16540 -0.14600
C 	C 	0.58620 0.82280 0.84080 -0.16500
C 	C 	0.14070 0.61960 0.68620 -0.15600
C 	C 	0.39660 0.72650 0.82970 -0.15000
C 	C 	0.43000 0.66360 0.66840 -0.14400
C 	C 	0.41670 0.60300 0.84820 -0.16400
C 	C 	0.34860 0.57510 0.68700 -0.13200
N 	N 	0.30203 0.63980 0.85070 -0.24500
N 	N 	0.20791 0.65710 0.84770 -0.24400
N 	N 	0.31215 0.69996 0.68040 -0.22000
N 	N 	0.21832 0.71822 0.67920 -0.21600
N 	N 	0.15760 0.82470 0.87130 -0.08900
N 	N 	0.42320 0.76830 0.10870 -0.13700
N 	N 	0.54920 0.83350 0.88810 -0.18600
N 	N 	0.13560 0.57370 0.64510 -0.10100
N 	N 	0.41490 0.76860 0.86670 -0.17800
N 	N 	0.46550 0.67100 0.61610 -0.16200
N 	N 	0.44213 0.57440 0.90150 -0.17800
N 	N 	0.33640 0.53180 0.64580 -0.06500
O 	O 	0.49810 0.93310 0.00870 -0.13100
O 	O 	0.54470 0.58160 0.57460 -0.17700
O 	O 	0.39300 0.88470 0.02610 -0.04000
O 	O 	0.62980 0.64140 0.48170 -0.14700
Gd	Gd	-0.00000 0.50000 0.48378 0.78200
Gd	Gd	0.00000 0.00000 0.98378 0.66700
Gd	Gd	0.50000 0.00000 0.48378 0.77000
Gd	Gd	0.50000 0.50000 0.98378 0.74400
