data_crystal

_cell_length_a 12.37680
_cell_length_b 13.14380
_cell_length_c 14.30780
_cell_angle_alpha 81.53200
_cell_angle_beta  77.86000
_cell_angle_gamma 89.42600

_symmetry_space_group_name_	'P 1'
_symmetry_space_group_name_H-M	'P 1'

loop_
_symmetry_equiv_pos_as_xyz
  x,y,z

loop_
_atom_site_label
_atom_site_type_symbol
_atom_site_fract_x
_atom_site_fract_y
_atom_site_fract_z
_atom_site_charge
Yb	Yb	0.67802 0.86346 0.66556 1.43300
Yb	Yb	0.39802 0.40956 0.77536 1.42500
Ru	Ru	0.65895 0.25957 0.48300 0.92600
Ru	Ru	0.26403 0.66246 0.04309 0.93400
N 	N 	0.80620 0.31130 0.51430 -0.22200
C 	C 	0.81690 0.36500 0.58620 0.09400
H 	H 	0.75280 0.38550 0.62800 -0.02100
C 	C 	0.91990 0.39000 0.59870 -0.14800
H 	H 	0.92810 0.42800 0.64840 0.10600
C 	C 	0.01140 0.35830 0.53720 0.09600
H 	H 	0.08280 0.37260 0.54720 0.02600
O 	O 	0.70390 0.90560 0.81440 -0.21400
O 	O 	0.73980 0.84800 0.81310 -0.14500
N 	N 	0.00310 0.30880 0.46470 -0.11600
O 	O 	0.79390 0.73690 0.70080 -0.14800
O 	O 	0.78470 0.71520 0.66310 -0.17200
C 	C 	0.90150 0.28760 0.45540 0.09500
N 	N 	0.78010 0.22270 0.36680 -0.22700
C 	C 	0.76300 0.17960 0.29120 0.09600
H 	H 	0.69000 0.17020 0.28230 -0.02700
C 	C 	0.85280 0.14910 0.22650 -0.16400
H 	H 	0.84190 0.11730 0.17360 0.09300
C 	C 	0.95360 0.16460 0.23910 0.10900
H 	H 	0.01480 0.14390 0.19420 0.02200
N 	N 	0.97250 0.20880 0.31340 -0.11000
C 	C 	0.88530 0.23760 0.37310 0.10100
N 	N 	0.10940 0.66460 0.00370 -0.22200
C 	C 	0.07950 0.61520 0.93730 0.09200
H 	H 	0.13260 0.57590 0.90060 0.00900
C 	C 	0.97370 0.62000 0.92090 -0.14300
H 	H 	0.95110 0.58510 0.87430 0.10000
C 	C 	0.89990 0.68210 0.98000 0.09100
H 	H 	0.82650 0.68980 0.97020 0.00200
N 	N 	0.92740 0.72750 0.04480 -0.12800
C 	C 	0.03080 0.71850 0.05530 0.09000
N 	N 	0.16950 0.75590 0.13650 -0.22500
C 	C 	0.20430 0.80450 0.20200 0.10200
H 	H 	0.27850 0.79780 0.20990 -0.02100
C 	C 	0.13290 0.86330 0.25710 -0.16300
H 	H 	0.15690 0.89650 0.30400 0.10200
C 	C 	0.03280 0.87330 0.24500 0.10500
H 	H 	0.98440 0.91430 0.28400 0.02800
N 	N 	0.99330 0.82820 0.17920 -0.12100
C 	C 	0.06690 0.77030 0.12840 0.09900
C 	C 	0.67530 0.11680 0.55370 -0.12700
N 	N 	0.68270 0.03280 0.59110 -0.22100
C 	C 	0.55650 0.29390 0.59810 -0.16300
N 	N 	0.49570 0.31100 0.66620 -0.21800
C 	C 	0.47040 0.78940 0.55980 -0.16100
N 	N 	0.54430 0.81500 0.58790 -0.23900
C 	C 	0.63780 0.39810 0.40720 -0.13300
N 	N 	0.62090 0.47320 0.36080 -0.20600
C 	C 	0.31790 0.79040 0.94680 -0.14800
N 	N 	0.35160 0.86410 0.89380 -0.09500
C 	C 	0.33370 0.57520 0.94680 -0.14800
N 	N 	0.36840 0.52480 0.88900 -0.21600
C 	C 	0.60210 0.33780 0.90580 -0.16200
N 	N 	0.52410 0.34680 0.87250 -0.22100
C 	C 	0.22530 0.53650 0.14590 -0.14600
N 	N 	0.21800 0.46470 0.20660 -0.07200
N 	N 	0.17980 0.39810 0.74340 0.05500
O 	O 	0.20880 0.44830 0.80630 -0.28400
O 	O 	0.25230 0.34110 0.70280 -0.26000
O 	O 	0.08740 0.40380 0.72880 -0.12300
N 	N 	0.95280 0.96290 0.55940 0.04000
O 	O 	0.86730 0.92810 0.63540 -0.24500
O 	O 	0.03270 0.01650 0.56950 -0.07000
O 	O 	0.96800 0.93280 0.48070 -0.07500
Yb	Yb	0.32198 0.13654 0.33444 1.43200
Yb	Yb	0.60198 0.59044 0.22464 1.42400
Ru	Ru	0.34105 0.74043 0.51700 0.92600
Ru	Ru	0.73597 0.33754 0.95691 0.93400
N 	N 	0.19380 0.68870 0.48570 -0.22200
C 	C 	0.18310 0.63500 0.41380 0.09400
H 	H 	0.24720 0.61450 0.37200 -0.02100
C 	C 	0.08010 0.61000 0.40130 -0.14800
H 	H 	0.07190 0.57200 0.35160 0.10600
C 	C 	0.98860 0.64170 0.46280 0.09600
H 	H 	0.91720 0.62740 0.45280 0.02600
O 	O 	0.29610 0.09440 0.18560 -0.21400
O 	O 	0.26020 0.15200 0.18690 -0.14500
N 	N 	0.99690 0.69120 0.53530 -0.11600
O 	O 	0.20610 0.26310 0.29920 -0.14800
O 	O 	0.21530 0.28480 0.33690 -0.17200
C 	C 	0.09850 0.71240 0.54460 0.09500
N 	N 	0.21990 0.77730 0.63320 -0.22700
C 	C 	0.23700 0.82040 0.70880 0.09600
H 	H 	0.31000 0.82980 0.71770 -0.02700
C 	C 	0.14720 0.85090 0.77350 -0.16400
H 	H 	0.15810 0.88270 0.82640 0.09300
C 	C 	0.04640 0.83540 0.76090 0.10900
H 	H 	0.98520 0.85610 0.80580 0.02200
N 	N 	0.02750 0.79120 0.68660 -0.11000
C 	C 	0.11470 0.76240 0.62690 0.10100
N 	N 	0.89060 0.33540 0.99630 -0.22200
C 	C 	0.92050 0.38480 0.06270 0.09200
H 	H 	0.86740 0.42410 0.09940 0.00900
C 	C 	0.02630 0.38000 0.07910 -0.14300
H 	H 	0.04890 0.41490 0.12570 0.10000
C 	C 	0.10010 0.31790 0.02000 0.09100
H 	H 	0.17350 0.31020 0.02980 0.00200
N 	N 	0.07260 0.27250 0.95520 -0.12800
C 	C 	0.96920 0.28150 0.94470 0.09000
N 	N 	0.83050 0.24410 0.86350 -0.22500
C 	C 	0.79570 0.19550 0.79800 0.10200
H 	H 	0.72150 0.20220 0.79010 -0.02100
C 	C 	0.86710 0.13670 0.74290 -0.16300
H 	H 	0.84310 0.10350 0.69600 0.10200
C 	C 	0.96720 0.12670 0.75500 0.10500
H 	H 	0.01560 0.08570 0.71600 0.02800
N 	N 	0.00670 0.17180 0.82080 -0.12100
C 	C 	0.93310 0.22970 0.87160 0.09900
C 	C 	0.32470 0.88320 0.44630 -0.12700
N 	N 	0.31730 0.96720 0.40890 -0.22100
C 	C 	0.44350 0.70610 0.40190 -0.16300
N 	N 	0.50430 0.68900 0.33380 -0.21800
C 	C 	0.52960 0.21060 0.44020 -0.16100
N 	N 	0.45570 0.18500 0.41210 -0.23900
C 	C 	0.36220 0.60190 0.59280 -0.13300
N 	N 	0.37910 0.52680 0.63920 -0.20600
C 	C 	0.68210 0.20960 0.05320 -0.14800
N 	N 	0.64840 0.13590 0.10620 -0.09500
C 	C 	0.66630 0.42480 0.05320 -0.14800
N 	N 	0.63160 0.47520 0.11100 -0.21600
C 	C 	0.39790 0.66220 0.09420 -0.16200
N 	N 	0.47590 0.65320 0.12750 -0.22100
C 	C 	0.77470 0.46350 0.85410 -0.14600
N 	N 	0.78200 0.53530 0.79340 -0.07200
N 	N 	0.82020 0.60190 0.25660 0.05500
O 	O 	0.79120 0.55170 0.19370 -0.28400
O 	O 	0.74770 0.65890 0.29720 -0.26000
O 	O 	0.91260 0.59620 0.27120 -0.12300
N 	N 	0.04720 0.03710 0.44060 0.04000
O 	O 	0.13270 0.07190 0.36460 -0.24500
O 	O 	0.96730 0.98350 0.43050 -0.07000
O 	O 	0.03200 0.06720 0.51930 -0.07500
