data_crystal

_cell_length_a 12.39270
_cell_length_b 13.27520
_cell_length_c 14.35630
_cell_angle_alpha 81.02700
_cell_angle_beta  77.82800
_cell_angle_gamma 89.56500

_symmetry_space_group_name_	'P 1'
_symmetry_space_group_name_H-M	'P 1'

loop_
_symmetry_equiv_pos_as_xyz
  x,y,z

loop_
_atom_site_label
_atom_site_type_symbol
_atom_site_fract_x
_atom_site_fract_y
_atom_site_fract_z
_atom_site_charge
Er	Er	0.68069 0.86313 0.66363 1.30500
Er	Er	0.39816 0.40914 0.77594 1.24500
Ru	Ru	0.65763 0.25983 0.48399 0.92200
Ru	Ru	0.26305 0.66117 0.04208 0.92800
N 	N 	0.80510 0.31200 0.51420 -0.22500
C 	C 	0.81800 0.36430 0.58410 0.10800
H 	H 	0.75420 0.38460 0.62570 -0.02400
C 	C 	0.91920 0.38920 0.59760 -0.16000
H 	H 	0.92660 0.42640 0.64740 0.11000
C 	C 	0.01000 0.35910 0.53710 0.10100
H 	H 	0.08150 0.37320 0.54700 0.02600
O 	O 	0.70500 0.90140 0.81640 -0.13500
O 	O 	0.72800 0.84800 0.80990 -0.19800
N 	N 	0.00070 0.31000 0.46410 -0.11500
O 	O 	0.80080 0.73130 0.70080 -0.07600
O 	O 	0.78440 0.71500 0.65990 -0.21800
C 	C 	0.89970 0.28890 0.45410 0.09400
N 	N 	0.77800 0.22380 0.36710 -0.22500
C 	C 	0.76030 0.18140 0.29190 0.09500
H 	H 	0.68710 0.17190 0.28370 -0.02500
C 	C 	0.84890 0.15220 0.22710 -0.15900
H 	H 	0.83740 0.12260 0.17370 0.09100
C 	C 	0.95200 0.16580 0.24020 0.10600
H 	H 	0.01280 0.14370 0.19640 0.02200
N 	N 	0.97080 0.20970 0.31310 -0.11000
C 	C 	0.88380 0.23840 0.37390 0.09700
N 	N 	0.10800 0.66230 0.00180 -0.22600
C 	C 	0.08120 0.61410 0.93460 0.09900
H 	H 	0.13490 0.57600 0.89810 0.00600
C 	C 	0.97530 0.61970 0.91790 -0.15700
H 	H 	0.95390 0.58590 0.87070 0.10400
C 	C 	0.90220 0.67680 0.97350 0.10300
H 	H 	0.82930 0.68250 0.96250 0.00200
N 	N 	0.92660 0.72330 0.04000 -0.13000
C 	C 	0.03000 0.71460 0.05010 0.09400
N 	N 	0.16630 0.75400 0.13360 -0.22300
C 	C 	0.20240 0.80300 0.19830 0.08600
H 	H 	0.27700 0.79800 0.20500 -0.01500
C 	C 	0.12960 0.85980 0.25390 -0.14000
H 	H 	0.15160 0.89290 0.30120 0.09600
C 	C 	0.02530 0.86690 0.23860 0.09000
H 	H 	0.97460 0.90720 0.27540 0.03100
N 	N 	0.99080 0.82010 0.17470 -0.12200
C 	C 	0.06500 0.76680 0.12510 0.10400
C 	C 	0.67710 0.11800 0.55480 -0.11900
N 	N 	0.68610 0.03530 0.59160 -0.19900
C 	C 	0.55640 0.29240 0.59930 -0.15700
N 	N 	0.49720 0.30880 0.66760 -0.19100
C 	C 	0.47140 0.78930 0.55710 -0.15900
N 	N 	0.54730 0.81520 0.58320 -0.21400
C 	C 	0.63470 0.39750 0.40870 -0.12600
N 	N 	0.61960 0.47230 0.36180 -0.18200
C 	C 	0.31880 0.78800 0.94460 -0.14600
N 	N 	0.35170 0.86140 0.89210 -0.09300
C 	C 	0.33340 0.57510 0.94700 -0.14400
N 	N 	0.36870 0.52460 0.88990 -0.19000
C 	C 	0.60180 0.33770 0.90770 -0.15100
N 	N 	0.52460 0.34530 0.87520 -0.19400
C 	C 	0.22440 0.53640 0.14720 -0.14300
N 	N 	0.21520 0.46610 0.20830 -0.07100
N 	N 	0.17930 0.40070 0.74150 0.06200
O 	O 	0.20650 0.44820 0.80530 -0.25900
O 	O 	0.25250 0.34300 0.70300 -0.24000
O 	O 	0.08950 0.40770 0.72450 -0.12600
N 	N 	0.95450 0.96470 0.56520 0.04400
O 	O 	0.86860 0.92890 0.63740 -0.23200
O 	O 	0.02680 0.02200 0.57750 -0.08100
O 	O 	0.97120 0.93310 0.48650 -0.07100
Er	Er	0.31931 0.13687 0.33637 1.30500
Er	Er	0.60184 0.59086 0.22406 1.24500
Ru	Ru	0.34237 0.74017 0.51601 0.92200
Ru	Ru	0.73695 0.33883 0.95792 0.92800
N 	N 	0.19490 0.68800 0.48580 -0.22500
C 	C 	0.18200 0.63570 0.41590 0.10800
H 	H 	0.24580 0.61540 0.37430 -0.02400
C 	C 	0.08080 0.61080 0.40240 -0.16000
H 	H 	0.07340 0.57360 0.35260 0.11000
C 	C 	0.99000 0.64090 0.46290 0.10100
H 	H 	0.91850 0.62680 0.45300 0.02600
O 	O 	0.29500 0.09860 0.18360 -0.13500
O 	O 	0.27200 0.15200 0.19010 -0.19800
N 	N 	0.99930 0.69000 0.53590 -0.11500
O 	O 	0.19920 0.26870 0.29920 -0.07600
O 	O 	0.21560 0.28500 0.34010 -0.21800
C 	C 	0.10030 0.71110 0.54590 0.09400
N 	N 	0.22200 0.77620 0.63290 -0.22500
C 	C 	0.23970 0.81860 0.70810 0.09500
H 	H 	0.31290 0.82810 0.71630 -0.02500
C 	C 	0.15110 0.84780 0.77290 -0.15900
H 	H 	0.16260 0.87740 0.82630 0.09100
C 	C 	0.04800 0.83420 0.75980 0.10600
H 	H 	0.98720 0.85630 0.80360 0.02200
N 	N 	0.02920 0.79030 0.68690 -0.11000
C 	C 	0.11620 0.76160 0.62610 0.09700
N 	N 	0.89200 0.33770 0.99820 -0.22600
C 	C 	0.91880 0.38590 0.06540 0.09900
H 	H 	0.86510 0.42400 0.10190 0.00600
C 	C 	0.02470 0.38030 0.08210 -0.15700
H 	H 	0.04610 0.41410 0.12930 0.10400
C 	C 	0.09780 0.32320 0.02650 0.10300
H 	H 	0.17070 0.31750 0.03750 0.00200
N 	N 	0.07340 0.27670 0.96000 -0.13000
C 	C 	0.97000 0.28540 0.94990 0.09400
N 	N 	0.83370 0.24600 0.86640 -0.22300
C 	C 	0.79760 0.19700 0.80170 0.08600
H 	H 	0.72300 0.20200 0.79500 -0.01500
C 	C 	0.87040 0.14020 0.74610 -0.14000
H 	H 	0.84840 0.10710 0.69880 0.09600
C 	C 	0.97470 0.13310 0.76140 0.09000
H 	H 	0.02540 0.09280 0.72460 0.03100
N 	N 	0.00920 0.17990 0.82530 -0.12200
C 	C 	0.93500 0.23320 0.87490 0.10400
C 	C 	0.32290 0.88200 0.44520 -0.11900
N 	N 	0.31390 0.96470 0.40840 -0.19900
C 	C 	0.44360 0.70760 0.40070 -0.15700
N 	N 	0.50280 0.69120 0.33240 -0.19100
C 	C 	0.52860 0.21070 0.44290 -0.15900
N 	N 	0.45270 0.18480 0.41680 -0.21400
C 	C 	0.36530 0.60250 0.59130 -0.12600
N 	N 	0.38040 0.52770 0.63820 -0.18200
C 	C 	0.68120 0.21200 0.05540 -0.14600
N 	N 	0.64830 0.13860 0.10790 -0.09300
C 	C 	0.66660 0.42490 0.05300 -0.14400
N 	N 	0.63130 0.47540 0.11010 -0.19000
C 	C 	0.39820 0.66230 0.09230 -0.15100
N 	N 	0.47540 0.65470 0.12480 -0.19400
C 	C 	0.77560 0.46360 0.85280 -0.14300
N 	N 	0.78480 0.53390 0.79170 -0.07100
N 	N 	0.82070 0.59930 0.25850 0.06200
O 	O 	0.79350 0.55180 0.19470 -0.25900
O 	O 	0.74750 0.65700 0.29700 -0.24000
O 	O 	0.91050 0.59230 0.27550 -0.12600
N 	N 	0.04550 0.03530 0.43480 0.04400
O 	O 	0.13140 0.07110 0.36260 -0.23200
O 	O 	0.97320 0.97800 0.42250 -0.08100
O 	O 	0.02880 0.06690 0.51350 -0.07100
