data_crystal

_cell_length_a 24.98560
_cell_length_b 21.97190
_cell_length_c 13.48300
_cell_angle_alpha 90.00000
_cell_angle_beta  90.00000
_cell_angle_gamma 90.00000

_symmetry_space_group_name_	'P 1'
_symmetry_space_group_name_H-M	'P 1'

loop_
_symmetry_equiv_pos_as_xyz
  x,y,z

loop_
_atom_site_label
_atom_site_type_symbol
_atom_site_fract_x
_atom_site_fract_y
_atom_site_fract_z
_atom_site_charge
Yb	Yb	0.03149 0.32798 0.50086 1.42400
Ru	Ru	0.87128 0.34820 0.77940 0.92600
Ru	Ru	0.64833 0.29875 0.77681 0.93000
C 	C 	0.75754 0.33610 0.83030 0.06500
C 	C 	0.79650 0.39100 0.95400 -0.05000
H 	H 	0.82720 0.40760 0.98540 0.07000
C 	C 	0.74698 0.39940 0.99620 0.18500
H 	H 	0.74330 0.42210 0.05580 -0.09800
C 	C 	0.76376 0.30220 0.73620 0.06900
C 	C 	0.81760 0.26710 0.61330 0.09500
H 	H 	0.85200 0.26230 0.58430 -0.02300
C 	C 	0.77400 0.24170 0.56700 -0.15900
H 	H 	0.77800 0.21920 0.50720 0.08500
C 	C 	0.84920 0.42540 0.70530 -0.12800
C 	C 	0.91770 0.39770 0.86720 -0.13700
C 	C 	0.93090 0.33590 0.68540 -0.14200
C 	C 	0.89770 0.27290 0.85110 -0.12400
C 	C 	0.70260 0.37450 0.95060 -0.04400
H 	H 	0.66810 0.38050 0.97870 0.08300
C 	C 	0.72400 0.24960 0.60970 0.08900
H 	H 	0.69320 0.23340 0.57780 -0.00200
C 	C 	0.63927 0.37890 0.70330 -0.15000
C 	C 	0.10140 0.24350 0.68200 -0.16700
C 	C 	0.91500 0.31950 0.36020 -0.15700
C 	C 	0.65560 0.21740 0.84940 -0.12000
N 	N 	0.80226 0.35954 0.86870 -0.18800
N 	N 	0.81306 0.29818 0.69770 -0.22200
N 	N 	0.83710 0.46930 0.66410 -0.06400
N 	N 	0.94328 0.42710 0.91970 -0.20600
N 	N 	0.96649 0.32860 0.63130 -0.17900
N 	N 	0.91630 0.23200 0.89100 -0.19300
N 	N 	0.70772 0.34151 0.86600 -0.18300
N 	N 	0.71855 0.27995 0.69600 -0.21800
N 	N 	0.63410 0.42490 0.66350 -0.11100
N 	N 	0.07640 0.27260 0.62560 -0.20800
N 	N 	0.95140 0.32930 0.40830 -0.21100
N 	N 	0.65810 0.17140 0.88810 -0.07400
O 	O 	0.10500 0.38340 0.54020 -0.17200
O 	O 	0.87540 0.13780 0.99620 0.04800
O 	O 	0.00280 0.43030 0.52330 -0.24000
O 	O 	0.95920 0.08150 0.08790 -0.18600
Yb	Yb	0.03149 0.82798 0.00086 1.37300
Ru	Ru	0.87128 0.84820 0.27940 0.92400
Ru	Ru	0.64833 0.79875 0.27681 0.92600
C 	C 	0.75754 0.83610 0.33030 0.06800
C 	C 	0.79650 0.89100 0.45400 0.08900
H 	H 	0.82720 0.90760 0.48540 -0.00900
C 	C 	0.74698 0.89940 0.49620 -0.14800
H 	H 	0.74330 0.92210 0.55580 0.09600
C 	C 	0.76376 0.80220 0.23620 0.05800
C 	C 	0.81760 0.76710 0.11330 0.07800
H 	H 	0.85200 0.76230 0.08430 -0.04600
C 	C 	0.77400 0.74170 0.06700 -0.17200
H 	H 	0.77800 0.71920 0.00720 0.04700
C 	C 	0.84920 0.92540 0.20530 -0.13800
C 	C 	0.91770 0.89770 0.36720 -0.14700
C 	C 	0.93090 0.83590 0.18540 -0.15700
C 	C 	0.89770 0.77290 0.35110 -0.14400
C 	C 	0.70260 0.87450 0.45060 0.08700
H 	H 	0.66810 0.88050 0.47870 -0.00200
C 	C 	0.72400 0.74960 0.10970 0.07500
H 	H 	0.69320 0.73340 0.07780 -0.02800
C 	C 	0.63927 0.87890 0.20330 -0.17100
C 	C 	0.10140 0.74350 0.18200 -0.18500
C 	C 	0.91500 0.81950 0.86020 -0.12900
C 	C 	0.65560 0.71740 0.34940 -0.14600
N 	N 	0.80226 0.85954 0.36870 -0.22100
N 	N 	0.81306 0.79818 0.19770 -0.22500
N 	N 	0.83710 0.96930 0.16410 -0.06600
N 	N 	0.94328 0.92710 0.41970 -0.22400
N 	N 	0.96649 0.82860 0.13130 -0.19100
N 	N 	0.91630 0.73200 0.39100 -0.21800
N 	N 	0.70772 0.84151 0.36600 -0.21700
N 	N 	0.71855 0.77995 0.19600 -0.22200
N 	N 	0.63410 0.92490 0.16350 -0.13000
N 	N 	0.07640 0.77260 0.12560 -0.22400
N 	N 	0.95140 0.82930 0.90830 -0.16900
N 	N 	0.65810 0.67140 0.38810 -0.09400
O 	O 	0.10500 0.88340 0.04020 -0.35700
O 	O 	0.87540 0.63780 0.49620 -0.16800
O 	O 	0.00280 0.93030 0.02330 -0.26000
O 	O 	0.95920 0.58150 0.58790 -0.18100
Yb	Yb	0.96851 0.67202 0.50086 1.45800
Ru	Ru	0.12872 0.65180 0.77940 0.92600
Ru	Ru	0.35167 0.70125 0.77681 0.93100
C 	C 	0.24246 0.66390 0.83030 0.06600
C 	C 	0.20350 0.60900 0.95400 -0.04900
H 	H 	0.17280 0.59240 0.98540 0.06800
C 	C 	0.25302 0.60060 0.99620 0.18600
H 	H 	0.25670 0.57790 0.05580 -0.09900
C 	C 	0.23624 0.69780 0.73620 0.07200
C 	C 	0.18240 0.73290 0.61330 0.09900
H 	H 	0.14800 0.73770 0.58430 -0.02600
C 	C 	0.22600 0.75830 0.56700 -0.15800
H 	H 	0.22200 0.78080 0.50720 0.09200
C 	C 	0.15080 0.57460 0.70530 -0.13500
C 	C 	0.08230 0.60230 0.86720 -0.15100
C 	C 	0.06910 0.66410 0.68540 -0.15700
C 	C 	0.10230 0.72710 0.85110 -0.13000
C 	C 	0.29740 0.62550 0.95060 -0.04500
H 	H 	0.33190 0.61950 0.97870 0.08300
C 	C 	0.27600 0.75040 0.60970 0.09400
H 	H 	0.30680 0.76660 0.57780 0.00100
C 	C 	0.36073 0.62110 0.70330 -0.15100
C 	C 	0.89860 0.75650 0.68200 -0.15200
C 	C 	0.08500 0.68050 0.36020 -0.16900
C 	C 	0.34440 0.78260 0.84940 -0.11400
N 	N 	0.19774 0.64046 0.86870 -0.18800
N 	N 	0.18694 0.70182 0.69770 -0.22200
N 	N 	0.16290 0.53070 0.66410 -0.06700
N 	N 	0.05672 0.57290 0.91970 -0.22400
N 	N 	0.03351 0.67140 0.63130 -0.21000
N 	N 	0.08370 0.76800 0.89100 -0.19900
N 	N 	0.29228 0.65849 0.86600 -0.18300
N 	N 	0.28145 0.72005 0.69600 -0.21800
N 	N 	0.36590 0.57510 0.66350 -0.11100
N 	N 	0.92360 0.72740 0.62560 -0.19600
N 	N 	0.04860 0.67070 0.40830 -0.23800
N 	N 	0.34190 0.82860 0.88810 -0.05900
O 	O 	0.89500 0.61660 0.54020 -0.16600
O 	O 	0.12460 0.86220 0.99620 0.05800
O 	O 	0.99720 0.56970 0.52330 -0.19300
O 	O 	0.04080 0.91850 0.08790 -0.18000
Yb	Yb	0.96851 0.17202 0.00086 1.40200
Ru	Ru	0.12872 0.15180 0.27940 0.92100
Ru	Ru	0.35167 0.20125 0.27681 0.92500
C 	C 	0.24246 0.16390 0.33030 0.06500
C 	C 	0.20350 0.10900 0.45400 0.08300
H 	H 	0.17280 0.09240 0.48540 -0.01900
C 	C 	0.25302 0.10060 0.49620 -0.15200
H 	H 	0.25670 0.07790 0.55580 0.08400
C 	C 	0.23624 0.19780 0.23620 0.05700
C 	C 	0.18240 0.23290 0.11330 0.07800
H 	H 	0.14800 0.23770 0.08430 -0.05100
C 	C 	0.22600 0.25830 0.06700 -0.17300
H 	H 	0.22200 0.28080 0.00720 0.04600
C 	C 	0.15080 0.07460 0.20530 -0.15900
C 	C 	0.08230 0.10230 0.36720 -0.17400
C 	C 	0.06910 0.16410 0.18540 -0.18000
C 	C 	0.10230 0.22710 0.35110 -0.15600
C 	C 	0.29740 0.12550 0.45060 0.08200
H 	H 	0.33190 0.11950 0.47870 -0.00700
C 	C 	0.27600 0.25040 0.10970 0.07500
H 	H 	0.30680 0.26660 0.07780 -0.02800
C 	C 	0.36073 0.12110 0.20330 -0.18100
C 	C 	0.89860 0.25650 0.18200 -0.17600
C 	C 	0.08500 0.18050 0.86020 -0.14900
C 	C 	0.34440 0.28260 0.34940 -0.14600
N 	N 	0.19774 0.14046 0.36870 -0.22200
N 	N 	0.18694 0.20182 0.19770 -0.22600
N 	N 	0.16290 0.03070 0.16410 -0.09500
N 	N 	0.05672 0.07290 0.41970 -0.26400
N 	N 	0.03351 0.17140 0.13130 -0.22400
N 	N 	0.08370 0.26800 0.39100 -0.22800
N 	N 	0.29228 0.15849 0.36600 -0.21800
N 	N 	0.28145 0.22005 0.19600 -0.22200
N 	N 	0.36590 0.07510 0.16350 -0.14800
N 	N 	0.92360 0.22740 0.12560 -0.21400
N 	N 	0.04860 0.17070 0.90830 -0.19900
N 	N 	0.34190 0.32860 0.38810 -0.09500
O 	O 	0.89500 0.11660 0.04020 -0.37000
O 	O 	0.12460 0.36220 0.49620 -0.17100
O 	O 	0.99720 0.06970 0.02330 -0.24400
O 	O 	0.04080 0.41850 0.58790 -0.19900
Yb	Yb	0.53149 0.17202 0.50086 1.43900
Ru	Ru	0.37128 0.15180 0.77940 0.92600
Ru	Ru	0.14833 0.20125 0.77681 0.93000
C 	C 	0.25754 0.16390 0.83030 0.06500
C 	C 	0.29650 0.10900 0.95400 -0.05200
H 	H 	0.32720 0.09240 0.98540 0.06600
C 	C 	0.24698 0.10060 0.99620 0.18500
H 	H 	0.24330 0.07790 0.05580 -0.10500
C 	C 	0.26376 0.19780 0.73620 0.07000
C 	C 	0.31760 0.23290 0.61330 0.09700
H 	H 	0.35200 0.23770 0.58430 -0.02500
C 	C 	0.27400 0.25830 0.56700 -0.15800
H 	H 	0.27800 0.28080 0.50720 0.08800
C 	C 	0.34920 0.07460 0.70530 -0.13800
C 	C 	0.41770 0.10230 0.86720 -0.15100
C 	C 	0.43090 0.16410 0.68540 -0.15300
C 	C 	0.39770 0.22710 0.85110 -0.12800
C 	C 	0.20260 0.12550 0.95060 -0.04800
H 	H 	0.16810 0.11950 0.97870 0.07900
C 	C 	0.22400 0.25040 0.60970 0.09100
H 	H 	0.19320 0.26660 0.57780 -0.00100
C 	C 	0.13927 0.12110 0.70330 -0.15800
C 	C 	0.60140 0.25650 0.68200 -0.16200
C 	C 	0.41500 0.18050 0.36020 -0.16700
C 	C 	0.15560 0.28260 0.84940 -0.12000
N 	N 	0.30226 0.14046 0.86870 -0.18800
N 	N 	0.31306 0.20182 0.69770 -0.22200
N 	N 	0.33710 0.03070 0.66410 -0.07900
N 	N 	0.44328 0.07290 0.91970 -0.22400
N 	N 	0.46649 0.17140 0.63130 -0.19600
N 	N 	0.41630 0.26800 0.89100 -0.19600
N 	N 	0.20772 0.15849 0.86600 -0.18400
N 	N 	0.21855 0.22005 0.69600 -0.21800
N 	N 	0.13410 0.07510 0.66350 -0.12200
N 	N 	0.57640 0.22740 0.62560 -0.20300
N 	N 	0.45140 0.17070 0.40830 -0.22700
N 	N 	0.15810 0.32860 0.88810 -0.06900
O 	O 	0.60500 0.11660 0.54020 -0.17800
O 	O 	0.37540 0.36220 0.99620 0.05600
O 	O 	0.50280 0.06970 0.52330 -0.23200
O 	O 	0.45920 0.41850 0.08790 -0.18400
Yb	Yb	0.53149 0.67202 0.00086 1.38700
Ru	Ru	0.37128 0.65180 0.27940 0.92200
Ru	Ru	0.14833 0.70125 0.27681 0.92500
C 	C 	0.25754 0.66390 0.33030 0.06700
C 	C 	0.29650 0.60900 0.45400 0.08600
H 	H 	0.32720 0.59240 0.48540 -0.01500
C 	C 	0.24698 0.60060 0.49620 -0.15100
H 	H 	0.24330 0.57790 0.55580 0.09000
C 	C 	0.26376 0.69780 0.23620 0.05900
C 	C 	0.31760 0.73290 0.11330 0.08000
H 	H 	0.35200 0.73770 0.08430 -0.04700
C 	C 	0.27400 0.75830 0.06700 -0.17100
H 	H 	0.27800 0.78080 0.00720 0.05000
C 	C 	0.34920 0.57460 0.20530 -0.14900
C 	C 	0.41770 0.60230 0.36720 -0.16100
C 	C 	0.43090 0.66410 0.18540 -0.16800
C 	C 	0.39770 0.72710 0.35110 -0.14800
C 	C 	0.20260 0.62550 0.45060 0.08500
H 	H 	0.16810 0.61950 0.47870 -0.00600
C 	C 	0.22400 0.75040 0.10970 0.07700
H 	H 	0.19320 0.76660 0.07780 -0.02600
C 	C 	0.13927 0.62110 0.20330 -0.18000
C 	C 	0.60140 0.75650 0.18200 -0.17900
C 	C 	0.41500 0.68050 0.86020 -0.13800
C 	C 	0.15560 0.78260 0.34940 -0.14500
N 	N 	0.30226 0.64046 0.36870 -0.22200
N 	N 	0.31306 0.70182 0.19770 -0.22500
N 	N 	0.33710 0.53070 0.16410 -0.08200
N 	N 	0.44328 0.57290 0.41970 -0.25200
N 	N 	0.46649 0.67140 0.13130 -0.20700
N 	N 	0.41630 0.76800 0.39100 -0.22200
N 	N 	0.20772 0.65849 0.36600 -0.21800
N 	N 	0.21855 0.72005 0.19600 -0.22100
N 	N 	0.13410 0.57510 0.16350 -0.14300
N 	N 	0.57640 0.72740 0.12560 -0.21900
N 	N 	0.45140 0.67070 0.90830 -0.18400
N 	N 	0.15810 0.82860 0.38810 -0.08800
O 	O 	0.60500 0.61660 0.04020 -0.36500
O 	O 	0.37540 0.86220 0.49620 -0.16300
O 	O 	0.50280 0.56970 0.02330 -0.25400
O 	O 	0.45920 0.91850 0.58790 -0.17800
Yb	Yb	0.46851 0.82798 0.50086 1.44300
Ru	Ru	0.62872 0.84820 0.77940 0.92800
Ru	Ru	0.85167 0.79875 0.77681 0.93200
C 	C 	0.74246 0.83610 0.83030 0.06800
C 	C 	0.70350 0.89100 0.95400 -0.04300
H 	H 	0.67280 0.90760 0.98540 0.07100
C 	C 	0.75302 0.89940 0.99620 0.18100
H 	H 	0.75670 0.92210 0.05580 -0.08900
C 	C 	0.73624 0.80220 0.73620 0.07000
C 	C 	0.68240 0.76710 0.61330 0.09700
H 	H 	0.64800 0.76230 0.58430 -0.02500
C 	C 	0.72600 0.74170 0.56700 -0.15900
H 	H 	0.72200 0.71920 0.50720 0.08900
C 	C 	0.65080 0.92540 0.70530 -0.12400
C 	C 	0.58230 0.89770 0.86720 -0.13800
C 	C 	0.56910 0.83590 0.68540 -0.14600
C 	C 	0.60230 0.77290 0.85110 -0.12700
C 	C 	0.79740 0.87450 0.95060 -0.03900
H 	H 	0.83190 0.88050 0.97870 0.08600
C 	C 	0.77600 0.74960 0.60970 0.09200
H 	H 	0.80680 0.73340 0.57780 -0.00100
C 	C 	0.86073 0.87890 0.70330 -0.14200
C 	C 	0.39860 0.74350 0.68200 -0.15800
C 	C 	0.58500 0.81950 0.36020 -0.16000
C 	C 	0.84440 0.71740 0.84940 -0.11500
N 	N 	0.69774 0.85954 0.86870 -0.18800
N 	N 	0.68694 0.79818 0.69770 -0.22200
N 	N 	0.66290 0.96930 0.66410 -0.05200
N 	N 	0.55672 0.92710 0.91970 -0.20400
N 	N 	0.53351 0.82860 0.63130 -0.19400
N 	N 	0.58370 0.73200 0.89100 -0.19600
N 	N 	0.79228 0.84151 0.86600 -0.18300
N 	N 	0.78145 0.77995 0.69600 -0.21800
N 	N 	0.86590 0.92490 0.66350 -0.09700
N 	N 	0.42360 0.77260 0.62560 -0.20200
N 	N 	0.54860 0.82930 0.40830 -0.22300
N 	N 	0.84190 0.67140 0.88810 -0.06400
O 	O 	0.39500 0.88340 0.54020 -0.16000
O 	O 	0.62460 0.63780 0.99620 0.05400
O 	O 	0.49720 0.93030 0.52330 -0.20100
O 	O 	0.54080 0.58150 0.08790 -0.18400
Yb	Yb	0.46851 0.32798 0.00086 1.38500
Ru	Ru	0.62872 0.34820 0.27940 0.92200
Ru	Ru	0.85167 0.29875 0.27681 0.92500
C 	C 	0.74246 0.33610 0.33030 0.06600
C 	C 	0.70350 0.39100 0.45400 0.08600
H 	H 	0.67280 0.40760 0.48540 -0.01500
C 	C 	0.75302 0.39940 0.49620 -0.15000
H 	H 	0.75670 0.42210 0.55580 0.09000
C 	C 	0.73624 0.30220 0.23620 0.05600
C 	C 	0.68240 0.26710 0.11330 0.07600
H 	H 	0.64800 0.26230 0.08430 -0.05000
C 	C 	0.72600 0.24170 0.06700 -0.17400
H 	H 	0.72200 0.21920 0.00720 0.04400
C 	C 	0.65080 0.42540 0.20530 -0.14900
C 	C 	0.58230 0.39770 0.36720 -0.16100
C 	C 	0.56910 0.33590 0.18540 -0.17000
C 	C 	0.60230 0.27290 0.35110 -0.15200
C 	C 	0.79740 0.37450 0.45060 0.08400
H 	H 	0.83190 0.38050 0.47870 -0.00200
C 	C 	0.77600 0.24960 0.10970 0.07200
H 	H 	0.80680 0.23340 0.07780 -0.02900
C 	C 	0.86073 0.37890 0.20330 -0.17200
C 	C 	0.39860 0.24350 0.18200 -0.18200
C 	C 	0.58500 0.31950 0.86020 -0.14000
C 	C 	0.84440 0.21740 0.34940 -0.14600
N 	N 	0.69774 0.35954 0.36870 -0.22200
N 	N 	0.68694 0.29818 0.19770 -0.22600
N 	N 	0.66290 0.46930 0.16410 -0.08100
N 	N 	0.55672 0.42710 0.41970 -0.25200
N 	N 	0.53351 0.32860 0.13130 -0.20900
N 	N 	0.58370 0.23200 0.39100 -0.22500
N 	N 	0.79228 0.34151 0.36600 -0.21800
N 	N 	0.78145 0.27995 0.19600 -0.22200
N 	N 	0.86590 0.42490 0.16350 -0.13600
N 	N 	0.42360 0.27260 0.12560 -0.22000
N 	N 	0.54860 0.32930 0.90830 -0.18400
N 	N 	0.84190 0.17140 0.38810 -0.09900
O 	O 	0.39500 0.38340 0.04020 -0.36700
O 	O 	0.62460 0.13780 0.49620 -0.17600
O 	O 	0.49720 0.43030 0.02330 -0.25400
O 	O 	0.54080 0.08150 0.58790 -0.20200
Yb	Yb	-0.00000 0.50000 0.00063 1.16300
Yb	Yb	-0.00000 0.00000 0.50063 1.21500
Yb	Yb	0.50000 -0.00000 0.00063 1.15700
Yb	Yb	0.50000 0.50000 0.50063 1.26500
