data_crystal

_cell_length_a 25.16000
_cell_length_b 22.20000
_cell_length_c 13.62300
_cell_angle_alpha 90.00000
_cell_angle_beta  90.00000
_cell_angle_gamma 90.00000

_symmetry_space_group_name_	'P 1'
_symmetry_space_group_name_H-M	'P 1'

loop_
_symmetry_equiv_pos_as_xyz
  x,y,z

loop_
_atom_site_label
_atom_site_type_symbol
_atom_site_fract_x
_atom_site_fract_y
_atom_site_fract_z
_atom_site_charge
Eu	Eu	0.96695 0.17145 0.48257 1.39300
Ru	Ru	0.64885 0.30141 0.25917 0.92600
Ru	Ru	0.87055 0.34885 0.26090 0.92300
C 	C 	0.75780 0.33810 0.31190 0.06800
C 	C 	0.79680 0.39050 0.43550 0.09500
H 	H 	0.82680 0.40630 0.46610 -0.01700
C 	C 	0.74780 0.39860 0.47800 -0.16700
H 	H 	0.74440 0.41980 0.53650 0.09400
C 	C 	0.70370 0.37460 0.43240 0.09400
H 	H 	0.67030 0.38010 0.46030 -0.01000
C 	C 	0.76350 0.30430 0.21920 0.05400
C 	C 	0.81690 0.26820 0.09790 -0.02900
H 	H 	0.85040 0.26320 0.07030 0.05000
C 	C 	0.77350 0.24270 0.05230 0.12500
H 	H 	0.77740 0.22070 0.99460 -0.08300
C 	C 	0.72380 0.25070 0.09490 -0.03000
H 	H 	0.69390 0.23440 0.06480 0.04600
C 	C 	0.65530 0.22060 0.33200 -0.14900
C 	C 	0.89800 0.26020 0.66490 -0.16300
C 	C 	0.08640 0.17730 0.34120 -0.16000
C 	C 	0.64110 0.38040 0.18630 -0.14100
C 	C 	0.89630 0.27380 0.32960 -0.14500
C 	C 	0.93000 0.33630 0.16820 -0.13200
C 	C 	0.91660 0.39700 0.34860 -0.15600
C 	C 	0.84900 0.42460 0.18580 -0.12100
N 	N 	0.80229 0.36030 0.35050 -0.22500
N 	N 	0.70818 0.34300 0.34750 -0.22000
N 	N 	0.81222 0.29970 0.18040 -0.19300
N 	N 	0.71834 0.28190 0.17970 -0.19300
N 	N 	0.65850 0.17560 0.37090 -0.10000
N 	N 	0.92360 0.23220 0.60920 -0.21000
N 	N 	0.04970 0.16630 0.38840 -0.21600
N 	N 	0.63630 0.42620 0.14510 -0.08300
N 	N 	0.91390 0.23100 0.36630 -0.22400
N 	N 	0.96500 0.32880 0.11660 -0.13100
N 	N 	0.94210 0.42550 0.40140 -0.18800
N 	N 	0.83700 0.46750 0.14490 -0.06500
O 	O 	0.99890 0.06830 0.50900 -0.21700
O 	O 	0.04690 0.41840 0.07550 -0.21500
Eu	Eu	0.96695 0.67145 0.98257 1.17700
Ru	Ru	0.64885 0.80141 0.75917 0.92400
Ru	Ru	0.87055 0.84885 0.76090 0.92300
C 	C 	0.75780 0.83810 0.81190 0.07100
C 	C 	0.79680 0.89050 0.93550 0.23100
H 	H 	0.82680 0.90630 0.96610 -0.08700
C 	C 	0.74780 0.89860 0.97800 -0.47600
H 	H 	0.74440 0.91980 0.03650 0.27000
C 	C 	0.70370 0.87460 0.93240 0.22600
H 	H 	0.67030 0.88010 0.96030 -0.08700
C 	C 	0.76350 0.80430 0.71920 0.05600
C 	C 	0.81690 0.76820 0.59790 0.10400
H 	H 	0.85040 0.76320 0.57030 -0.02900
C 	C 	0.77350 0.74270 0.55230 -0.18200
H 	H 	0.77740 0.72070 0.49460 0.09200
C 	C 	0.72380 0.75070 0.59490 0.09900
H 	H 	0.69390 0.73440 0.56480 -0.02900
C 	C 	0.65530 0.72060 0.83200 -0.16100
C 	C 	0.89800 0.76020 0.16490 -0.14600
C 	C 	0.08640 0.67730 0.84120 -0.18100
C 	C 	0.64110 0.88040 0.68630 -0.16000
C 	C 	0.89630 0.77380 0.82960 -0.16400
C 	C 	0.93000 0.83630 0.66820 -0.13900
C 	C 	0.91660 0.89700 0.84860 -0.16300
C 	C 	0.84900 0.92460 0.68580 -0.13000
N 	N 	0.80229 0.86030 0.85050 -0.25500
N 	N 	0.70818 0.84300 0.84750 -0.25000
N 	N 	0.81222 0.79970 0.68040 -0.22500
N 	N 	0.71834 0.78190 0.67970 -0.22200
N 	N 	0.65850 0.67560 0.87090 -0.10900
N 	N 	0.92360 0.73220 0.10920 -0.16500
N 	N 	0.04970 0.66630 0.88840 -0.21900
N 	N 	0.63630 0.92620 0.64510 -0.10500
N 	N 	0.91390 0.73100 0.86630 -0.22100
N 	N 	0.96500 0.82880 0.61660 -0.16800
N 	N 	0.94210 0.92550 0.90140 -0.17500
N 	N 	0.83700 0.96750 0.64490 -0.07100
O 	O 	0.99890 0.56830 0.00900 -0.15200
O 	O 	0.04690 0.91840 0.57550 -0.24900
Eu	Eu	0.03305 0.82855 0.48257 1.33600
Ru	Ru	0.35115 0.69859 0.25917 0.92800
Ru	Ru	0.12945 0.65115 0.26090 0.92400
C 	C 	0.24220 0.66190 0.31190 0.06900
C 	C 	0.20320 0.60950 0.43550 0.09500
H 	H 	0.17320 0.59370 0.46610 -0.01800
C 	C 	0.25220 0.60140 0.47800 -0.16800
H 	H 	0.25560 0.58020 0.53650 0.09300
C 	C 	0.29630 0.62540 0.43240 0.09400
H 	H 	0.32970 0.61990 0.46030 -0.01000
C 	C 	0.23650 0.69570 0.21920 0.05500
C 	C 	0.18310 0.73180 0.09790 -0.02500
H 	H 	0.14960 0.73680 0.07030 0.04800
C 	C 	0.22650 0.75730 0.05230 0.12500
H 	H 	0.22260 0.77930 0.99460 -0.07800
C 	C 	0.27620 0.74930 0.09490 -0.02600
H 	H 	0.30610 0.76560 0.06480 0.04900
C 	C 	0.34470 0.77940 0.33200 -0.14400
C 	C 	0.10200 0.73980 0.66490 -0.16900
C 	C 	0.91360 0.82270 0.34120 -0.14700
C 	C 	0.35890 0.61960 0.18630 -0.14100
C 	C 	0.10370 0.72620 0.32960 -0.14900
C 	C 	0.07000 0.66370 0.16820 -0.14000
C 	C 	0.08340 0.60300 0.34860 -0.16500
C 	C 	0.15100 0.57540 0.18580 -0.12600
N 	N 	0.19771 0.63970 0.35050 -0.22500
N 	N 	0.29182 0.65700 0.34750 -0.22000
N 	N 	0.18778 0.70030 0.18040 -0.19300
N 	N 	0.28166 0.71810 0.17970 -0.19200
N 	N 	0.34150 0.82440 0.37090 -0.08900
N 	N 	0.07640 0.76780 0.60920 -0.21100
N 	N 	0.95030 0.83370 0.38840 -0.19100
N 	N 	0.36370 0.57380 0.14510 -0.08300
N 	N 	0.08610 0.76900 0.36630 -0.22100
N 	N 	0.03500 0.67120 0.11660 -0.15500
N 	N 	0.05790 0.57450 0.40140 -0.19900
N 	N 	0.16300 0.53250 0.14490 -0.06700
O 	O 	0.00110 0.93170 0.50900 -0.22200
O 	O 	0.95310 0.58160 0.07550 -0.20900
Eu	Eu	0.03305 0.32855 0.98257 1.09600
Ru	Ru	0.35115 0.19859 0.75917 0.92300
Ru	Ru	0.12945 0.15115 0.76090 0.92100
C 	C 	0.24220 0.16190 0.81190 0.06900
C 	C 	0.20320 0.10950 0.93550 0.22900
H 	H 	0.17320 0.09370 0.96610 -0.09500
C 	C 	0.25220 0.10140 0.97800 -0.48300
H 	H 	0.25560 0.08020 0.03650 0.26600
C 	C 	0.29630 0.12540 0.93240 0.22400
H 	H 	0.32970 0.11990 0.96030 -0.09100
C 	C 	0.23650 0.19570 0.71920 0.05600
C 	C 	0.18310 0.23180 0.59790 0.10500
H 	H 	0.14960 0.23680 0.57030 -0.03300
C 	C 	0.22650 0.25730 0.55230 -0.18400
H 	H 	0.22260 0.27930 0.49460 0.09100
C 	C 	0.27620 0.24930 0.59490 0.10000
H 	H 	0.30610 0.26560 0.56480 -0.02900
C 	C 	0.34470 0.27940 0.83200 -0.16100
C 	C 	0.10200 0.23980 0.16490 -0.15600
C 	C 	0.91360 0.32270 0.84120 -0.17300
C 	C 	0.35890 0.11960 0.68630 -0.16700
C 	C 	0.10370 0.22620 0.82960 -0.17200
C 	C 	0.07000 0.16370 0.66820 -0.15200
C 	C 	0.08340 0.10300 0.84860 -0.18000
C 	C 	0.15100 0.07540 0.68580 -0.14400
N 	N 	0.19771 0.13970 0.85050 -0.25600
N 	N 	0.29182 0.15700 0.84750 -0.25100
N 	N 	0.18778 0.20030 0.68040 -0.22600
N 	N 	0.28166 0.21810 0.67970 -0.22300
N 	N 	0.34150 0.32440 0.87090 -0.10900
N 	N 	0.07640 0.26780 0.10920 -0.16700
N 	N 	0.95030 0.33370 0.88840 -0.19600
N 	N 	0.36370 0.07380 0.64510 -0.11700
N 	N 	0.08610 0.26900 0.86630 -0.22100
N 	N 	0.03500 0.17120 0.61660 -0.19300
N 	N 	0.05790 0.07450 0.90140 -0.20100
N 	N 	0.16300 0.03250 0.64490 -0.09000
O 	O 	0.00110 0.43170 0.00900 -0.17700
O 	O 	0.95310 0.08160 0.57550 -0.26200
Eu	Eu	0.46695 0.32855 0.48257 1.36100
Ru	Ru	0.14885 0.19859 0.25917 0.92700
Ru	Ru	0.37055 0.15115 0.26090 0.92400
C 	C 	0.25780 0.16190 0.31190 0.06800
C 	C 	0.29680 0.10950 0.43550 0.09300
H 	H 	0.32680 0.09370 0.46610 -0.02000
C 	C 	0.24780 0.10140 0.47800 -0.16900
H 	H 	0.24440 0.08020 0.53650 0.09000
C 	C 	0.20370 0.12540 0.43240 0.09200
H 	H 	0.17030 0.11990 0.46030 -0.01300
C 	C 	0.26350 0.19570 0.21920 0.05400
C 	C 	0.31690 0.23180 0.09790 -0.02900
H 	H 	0.35040 0.23680 0.07030 0.04900
C 	C 	0.27350 0.25730 0.05230 0.12700
H 	H 	0.27740 0.27930 0.99460 -0.08300
C 	C 	0.22380 0.24930 0.09490 -0.02900
H 	H 	0.19390 0.26560 0.06480 0.04800
C 	C 	0.15530 0.27940 0.33200 -0.14900
C 	C 	0.39800 0.23980 0.66490 -0.16700
C 	C 	0.58640 0.32270 0.34120 -0.15500
C 	C 	0.14110 0.11960 0.18630 -0.14500
C 	C 	0.39630 0.22620 0.32960 -0.14800
C 	C 	0.43000 0.16370 0.16820 -0.13900
C 	C 	0.41660 0.10300 0.34860 -0.16500
C 	C 	0.34900 0.07540 0.18580 -0.12800
N 	N 	0.30229 0.13970 0.35050 -0.22500
N 	N 	0.20818 0.15700 0.34750 -0.22100
N 	N 	0.31222 0.20030 0.18040 -0.19300
N 	N 	0.21834 0.21810 0.17970 -0.19200
N 	N 	0.15850 0.32440 0.37090 -0.09700
N 	N 	0.42360 0.26780 0.60920 -0.21000
N 	N 	0.54970 0.33370 0.38840 -0.20400
N 	N 	0.13630 0.07380 0.14510 -0.08700
N 	N 	0.41390 0.26900 0.36630 -0.22300
N 	N 	0.46500 0.17120 0.11660 -0.14300
N 	N 	0.44210 0.07450 0.40140 -0.19800
N 	N 	0.33700 0.03250 0.14490 -0.07400
O 	O 	0.49890 0.43170 0.50900 -0.22100
O 	O 	0.54690 0.08160 0.07550 -0.22100
Eu	Eu	0.46695 0.82855 0.98257 1.14400
Ru	Ru	0.14885 0.69859 0.75917 0.92400
Ru	Ru	0.37055 0.65115 0.76090 0.92100
C 	C 	0.25780 0.66190 0.81190 0.07100
C 	C 	0.29680 0.60950 0.93550 0.23200
H 	H 	0.32680 0.59370 0.96610 -0.09400
C 	C 	0.24780 0.60140 0.97800 -0.48400
H 	H 	0.24440 0.58020 0.03650 0.26900
C 	C 	0.20370 0.62540 0.93240 0.22700
H 	H 	0.17030 0.61990 0.96030 -0.09200
C 	C 	0.26350 0.69570 0.71920 0.05700
C 	C 	0.31690 0.73180 0.59790 0.10600
H 	H 	0.35040 0.73680 0.57030 -0.03000
C 	C 	0.27350 0.75730 0.55230 -0.18200
H 	H 	0.27740 0.77930 0.49460 0.09400
C 	C 	0.22380 0.74930 0.59490 0.10100
H 	H 	0.19390 0.76560 0.56480 -0.02700
C 	C 	0.15530 0.77940 0.83200 -0.16000
C 	C 	0.39800 0.73980 0.16490 -0.15000
C 	C 	0.58640 0.82270 0.84120 -0.17500
C 	C 	0.14110 0.61960 0.68630 -0.16600
C 	C 	0.39630 0.72620 0.82960 -0.16700
C 	C 	0.43000 0.66370 0.66820 -0.14600
C 	C 	0.41660 0.60300 0.84860 -0.17200
C 	C 	0.34900 0.57540 0.68580 -0.13900
N 	N 	0.30229 0.63970 0.85050 -0.25600
N 	N 	0.20818 0.65700 0.84750 -0.25100
N 	N 	0.31222 0.70030 0.68040 -0.22500
N 	N 	0.21834 0.71810 0.67970 -0.22200
N 	N 	0.15850 0.82440 0.87090 -0.10300
N 	N 	0.42360 0.76780 0.10920 -0.16600
N 	N 	0.54970 0.83370 0.88840 -0.20700
N 	N 	0.13630 0.57380 0.64510 -0.11400
N 	N 	0.41390 0.76900 0.86630 -0.22000
N 	N 	0.46500 0.67120 0.61660 -0.18000
N 	N 	0.44210 0.57450 0.90140 -0.20300
N 	N 	0.33700 0.53250 0.64490 -0.08200
O 	O 	0.49890 0.93170 0.00900 -0.15400
O 	O 	0.54690 0.58160 0.57550 -0.25800
Eu	Eu	0.53305 0.67145 0.48257 1.36400
Ru	Ru	0.85115 0.80141 0.25917 0.92800
Ru	Ru	0.62945 0.84885 0.26090 0.92500
C 	C 	0.74220 0.83810 0.31190 0.07000
C 	C 	0.70320 0.89050 0.43550 0.09700
H 	H 	0.67320 0.90630 0.46610 -0.01500
C 	C 	0.75220 0.89860 0.47800 -0.16600
H 	H 	0.75560 0.91980 0.53650 0.09700
C 	C 	0.79630 0.87460 0.43240 0.09600
H 	H 	0.82970 0.88010 0.46030 -0.00700
C 	C 	0.73650 0.80430 0.21920 0.05400
C 	C 	0.68310 0.76820 0.09790 -0.02700
H 	H 	0.64960 0.76320 0.07030 0.04800
C 	C 	0.72650 0.74270 0.05230 0.12300
H 	H 	0.72260 0.72070 0.99460 -0.08100
C 	C 	0.77620 0.75070 0.09490 -0.02700
H 	H 	0.80610 0.73440 0.06480 0.04700
C 	C 	0.84470 0.72060 0.33200 -0.14500
C 	C 	0.60200 0.76020 0.66490 -0.16500
C 	C 	0.41360 0.67730 0.34120 -0.15400
C 	C 	0.85890 0.88040 0.18630 -0.13400
C 	C 	0.60370 0.77380 0.32960 -0.14700
C 	C 	0.57000 0.83630 0.16820 -0.13400
C 	C 	0.58340 0.89700 0.34860 -0.15600
C 	C 	0.65100 0.92460 0.18580 -0.11900
N 	N 	0.69771 0.86030 0.35050 -0.22400
N 	N 	0.79182 0.84300 0.34750 -0.22000
N 	N 	0.68778 0.79970 0.18040 -0.19300
N 	N 	0.78166 0.78190 0.17970 -0.19300
N 	N 	0.84150 0.67560 0.37090 -0.09300
N 	N 	0.57640 0.73220 0.60920 -0.21000
N 	N 	0.45030 0.66630 0.38840 -0.20400
N 	N 	0.86370 0.92620 0.14510 -0.07200
N 	N 	0.58610 0.73100 0.36630 -0.22300
N 	N 	0.53500 0.82880 0.11660 -0.14300
N 	N 	0.55790 0.92550 0.40140 -0.18400
N 	N 	0.66300 0.96750 0.14490 -0.05800
O 	O 	0.50110 0.56830 0.50900 -0.22100
O 	O 	0.45310 0.91840 0.07550 -0.20200
Eu	Eu	0.53305 0.17145 0.98257 1.12400
Ru	Ru	0.85115 0.30141 0.75917 0.92400
Ru	Ru	0.62945 0.34885 0.76090 0.92100
C 	C 	0.74220 0.33810 0.81190 0.07000
C 	C 	0.70320 0.39050 0.93550 0.23100
H 	H 	0.67320 0.40630 0.96610 -0.09300
C 	C 	0.75220 0.39860 0.97800 -0.48200
H 	H 	0.75560 0.41980 0.03650 0.26900
C 	C 	0.79630 0.37460 0.93240 0.22600
H 	H 	0.82970 0.38010 0.96030 -0.08900
C 	C 	0.73650 0.30430 0.71920 0.05500
C 	C 	0.68310 0.26820 0.59790 0.10300
H 	H 	0.64960 0.26320 0.57030 -0.03200
C 	C 	0.72650 0.24270 0.55230 -0.18400
H 	H 	0.72260 0.22070 0.49460 0.08900
C 	C 	0.77620 0.25070 0.59490 0.09800
H 	H 	0.80610 0.23440 0.56480 -0.03100
C 	C 	0.84470 0.22060 0.83200 -0.16000
C 	C 	0.60200 0.26020 0.16490 -0.15300
C 	C 	0.41360 0.17730 0.84120 -0.18000
C 	C 	0.85890 0.38040 0.68630 -0.16100
C 	C 	0.60370 0.27380 0.82960 -0.17000
C 	C 	0.57000 0.33630 0.66820 -0.14700
C 	C 	0.58340 0.39700 0.84860 -0.17200
C 	C 	0.65100 0.42460 0.68580 -0.13800
N 	N 	0.69771 0.36030 0.85050 -0.25600
N 	N 	0.79182 0.34300 0.84750 -0.25000
N 	N 	0.68778 0.29970 0.68040 -0.22500
N 	N 	0.78166 0.28190 0.67970 -0.22300
N 	N 	0.84150 0.17560 0.87090 -0.11000
N 	N 	0.57640 0.23220 0.10920 -0.16600
N 	N 	0.45030 0.16630 0.88840 -0.20800
N 	N 	0.86370 0.42620 0.64510 -0.10900
N 	N 	0.58610 0.23100 0.86630 -0.22200
N 	N 	0.53500 0.32880 0.61660 -0.18100
N 	N 	0.55790 0.42550 0.90140 -0.20300
N 	N 	0.66300 0.46750 0.64490 -0.08100
O 	O 	0.50110 0.06830 0.00900 -0.17400
O 	O 	0.45310 0.41840 0.57550 -0.25700
Eu	Eu	-0.00000 0.50000 0.48389 0.89900
Eu	Eu	0.00000 0.00000 0.98389 0.74400
Eu	Eu	0.50000 0.00000 0.48389 0.88300
Eu	Eu	0.50000 0.50000 0.98389 0.84100
