data_crystal

_cell_length_a 10.83880
_cell_length_b 10.94210
_cell_length_c 15.59180
_cell_angle_alpha 90.00000
_cell_angle_beta  90.00000
_cell_angle_gamma 100.51300

_symmetry_space_group_name_	'P 1'
_symmetry_space_group_name_H-M	'P 1'

loop_
_symmetry_equiv_pos_as_xyz
  x,y,z

loop_
_atom_site_label
_atom_site_type_symbol
_atom_site_fract_x
_atom_site_fract_y
_atom_site_fract_z
_atom_site_charge
Y 	Y 	0.14338 0.39735 0.89791 2.36900
Y 	Y 	0.35662 0.10265 0.39791 2.37000
Y 	Y 	0.85662 0.60265 0.10209 2.36900
Y 	Y 	0.64338 0.89735 0.60209 2.37000
H 	H 	0.60120 0.41120 0.95280 0.02000
H 	H 	0.44850 0.18130 0.76650 0.02300
H 	H 	0.81580 0.22120 0.81490 -0.02700
H 	H 	0.89880 0.08880 0.45280 0.02200
H 	H 	0.05150 0.31870 0.26650 0.02500
H 	H 	0.68420 0.27880 0.31490 -0.02800
H 	H 	0.39880 0.58880 0.04720 0.02000
H 	H 	0.55150 0.81870 0.23350 0.02300
H 	H 	0.18420 0.77880 0.18510 -0.02700
H 	H 	0.10120 0.91120 0.54720 0.02200
H 	H 	0.94850 0.68130 0.73350 0.02500
H 	H 	0.31580 0.72120 0.68510 -0.02800
C 	C 	0.84010 0.38420 0.94380 0.56300
C 	C 	0.37830 0.33580 0.87820 0.34400
C 	C 	0.64370 0.09600 0.70910 0.33100
C 	C 	0.72680 0.32440 0.89190 -0.23600
C 	C 	0.60910 0.35470 0.90950 0.10800
C 	C 	0.50390 0.30060 0.86260 -0.15500
C 	C 	0.51840 0.21780 0.79810 0.08000
C 	C 	0.63420 0.18730 0.77900 -0.16600
C 	C 	0.73780 0.24120 0.82680 0.12800
C 	C 	0.65990 0.11580 0.44380 0.56300
C 	C 	0.12170 0.16420 0.37820 0.34000
C 	C 	0.85630 0.40400 0.20910 0.33000
C 	C 	0.77320 0.17560 0.39190 -0.23600
C 	C 	0.89090 0.14530 0.40950 0.10600
C 	C 	0.99610 0.19940 0.36260 -0.15000
C 	C 	0.98160 0.28220 0.29810 0.07500
C 	C 	0.86580 0.31270 0.27900 -0.16500
C 	C 	0.76220 0.25880 0.32680 0.12700
C 	C 	0.15990 0.61580 0.05620 0.56300
C 	C 	0.62170 0.66420 0.12180 0.34400
C 	C 	0.35630 0.90400 0.29090 0.33100
C 	C 	0.27320 0.67560 0.10810 -0.23600
C 	C 	0.39090 0.64530 0.09050 0.10800
C 	C 	0.49610 0.69940 0.13740 -0.15500
C 	C 	0.48160 0.78220 0.20190 0.08000
C 	C 	0.36580 0.81270 0.22100 -0.16600
C 	C 	0.26220 0.75880 0.17320 0.12800
C 	C 	0.34010 0.88420 0.55620 0.56300
C 	C 	0.87830 0.83580 0.62180 0.34000
C 	C 	0.14370 0.59600 0.79090 0.33000
C 	C 	0.22680 0.82440 0.60810 -0.23600
C 	C 	0.10910 0.85470 0.59050 0.10600
C 	C 	0.00390 0.80060 0.63740 -0.15000
C 	C 	0.01840 0.71780 0.70190 0.07500
C 	C 	0.13420 0.68730 0.72100 -0.16500
C 	C 	0.23780 0.74120 0.67320 0.12700
O 	O 	0.93740 0.33790 0.93708 -0.66100
O 	O 	0.82880 0.47410 0.98996 -0.65400
O 	O 	0.36420 0.40950 0.93627 -0.49000
O 	O 	0.28850 0.28770 0.83012 -0.55200
O 	O 	0.54940 0.05970 0.66280 -0.51200
O 	O 	0.74330 0.05450 0.69912 -0.50600
O 	O 	0.56260 0.16210 0.43708 -0.66600
O 	O 	0.67120 0.02590 0.48996 -0.65500
O 	O 	0.13580 0.09050 0.43627 -0.49000
O 	O 	0.21150 0.21230 0.33012 -0.55000
O 	O 	0.95060 0.44030 0.16280 -0.51500
O 	O 	0.75670 0.44550 0.19912 -0.51000
O 	O 	0.06260 0.66210 0.06292 -0.66100
O 	O 	0.17120 0.52590 0.01004 -0.65400
O 	O 	0.63580 0.59050 0.06373 -0.49000
O 	O 	0.71150 0.71230 0.16988 -0.55200
O 	O 	0.45060 0.94030 0.33720 -0.51200
O 	O 	0.25670 0.94550 0.30088 -0.50600
O 	O 	0.43740 0.83790 0.56292 -0.66600
O 	O 	0.32880 0.97410 0.51004 -0.65500
O 	O 	0.86420 0.90950 0.56373 -0.49000
O 	O 	0.78850 0.78770 0.66988 -0.55000
O 	O 	0.04940 0.55970 0.83720 -0.51500
O 	O 	0.24330 0.55450 0.80088 -0.51000
