data_crystal

_cell_length_a 10.78200
_cell_length_b 10.88100
_cell_length_c 15.51000
_cell_angle_alpha 90.00000
_cell_angle_beta  90.00000
_cell_angle_gamma 100.26000

_symmetry_space_group_name_	'P 1'
_symmetry_space_group_name_H-M	'P 1'

loop_
_symmetry_equiv_pos_as_xyz
  x,y,z

loop_
_atom_site_label
_atom_site_type_symbol
_atom_site_fract_x
_atom_site_fract_y
_atom_site_fract_z
_atom_site_charge
Yb	Yb	0.14397 0.39856 0.89800 1.50300
Yb	Yb	0.35603 0.10144 0.39800 1.50500
Yb	Yb	0.85603 0.60144 0.10200 1.50300
Yb	Yb	0.64397 0.89856 0.60200 1.50500
H 	H 	0.44820 0.18350 0.76500 0.04300
H 	H 	0.81870 0.22290 0.81360 0.01300
H 	H 	0.60140 0.41220 0.95420 0.04400
H 	H 	0.05180 0.31650 0.26500 0.04400
H 	H 	0.68130 0.27710 0.31360 0.01200
H 	H 	0.89860 0.08780 0.45420 0.04500
H 	H 	0.55180 0.81650 0.23500 0.04300
H 	H 	0.18130 0.77710 0.18640 0.01300
H 	H 	0.39860 0.58780 0.04580 0.04400
H 	H 	0.94820 0.68350 0.73500 0.04400
H 	H 	0.31870 0.72290 0.68640 0.01200
H 	H 	0.10140 0.91220 0.54580 0.04500
C 	C 	0.37860 0.33620 0.87760 0.32100
C 	C 	0.50520 0.30290 0.86220 -0.11400
C 	C 	0.51830 0.21980 0.79680 0.04700
C 	C 	0.63600 0.18970 0.77810 -0.11700
C 	C 	0.74030 0.24310 0.82570 0.07400
C 	C 	0.72810 0.32690 0.89170 -0.15500
C 	C 	0.60990 0.35650 0.91000 0.06400
C 	C 	0.64450 0.09780 0.70760 0.30600
C 	C 	0.84200 0.38550 0.94300 0.43900
C 	C 	0.12140 0.16380 0.37760 0.31800
C 	C 	0.99480 0.19710 0.36220 -0.11000
C 	C 	0.98170 0.28020 0.29680 0.04400
C 	C 	0.86400 0.31030 0.27810 -0.11700
C 	C 	0.75970 0.25690 0.32570 0.07300
C 	C 	0.77190 0.17310 0.39170 -0.15500
C 	C 	0.89010 0.14350 0.41000 0.06300
C 	C 	0.85550 0.40220 0.20760 0.30600
C 	C 	0.65800 0.11450 0.44300 0.43900
C 	C 	0.62140 0.66380 0.12240 0.32100
C 	C 	0.49480 0.69710 0.13780 -0.11400
C 	C 	0.48170 0.78020 0.20320 0.04700
C 	C 	0.36400 0.81030 0.22190 -0.11700
C 	C 	0.25970 0.75690 0.17430 0.07400
C 	C 	0.27190 0.67310 0.10830 -0.15500
C 	C 	0.39010 0.64350 0.09000 0.06400
C 	C 	0.35550 0.90220 0.29240 0.30600
C 	C 	0.15800 0.61450 0.05700 0.43900
C 	C 	0.87860 0.83620 0.62240 0.31800
C 	C 	0.00520 0.80290 0.63780 -0.11000
C 	C 	0.01830 0.71980 0.70320 0.04400
C 	C 	0.13600 0.68970 0.72190 -0.11700
C 	C 	0.24030 0.74310 0.67430 0.07300
C 	C 	0.22810 0.82690 0.60830 -0.15500
C 	C 	0.10990 0.85650 0.59000 0.06300
C 	C 	0.14450 0.59780 0.79240 0.30600
C 	C 	0.34200 0.88550 0.55700 0.43900
O 	O 	0.28830 0.29030 0.82990 -0.41200
O 	O 	0.36400 0.41180 0.93680 -0.36700
O 	O 	0.74530 0.05500 0.69710 -0.37700
O 	O 	0.55000 0.06110 0.66140 -0.38300
O 	O 	0.83090 0.47720 0.98890 -0.45700
O 	O 	0.93960 0.33820 0.93680 -0.46700
O 	O 	0.21170 0.20970 0.32990 -0.41100
O 	O 	0.13600 0.08820 0.43680 -0.36800
O 	O 	0.75470 0.44500 0.19710 -0.37900
O 	O 	0.95000 0.43890 0.16140 -0.38500
O 	O 	0.66910 0.02280 0.48890 -0.45800
O 	O 	0.56040 0.16180 0.43680 -0.47100
O 	O 	0.71170 0.70970 0.17010 -0.41200
O 	O 	0.63600 0.58820 0.06320 -0.36700
O 	O 	0.25470 0.94500 0.30290 -0.37700
O 	O 	0.45000 0.93890 0.33860 -0.38300
O 	O 	0.16910 0.52280 0.01110 -0.45700
O 	O 	0.06040 0.66180 0.06320 -0.46700
O 	O 	0.78830 0.79030 0.67010 -0.41100
O 	O 	0.86400 0.91180 0.56320 -0.36800
O 	O 	0.24530 0.55500 0.80290 -0.37900
O 	O 	0.05000 0.56110 0.83860 -0.38500
O 	O 	0.33090 0.97720 0.51110 -0.45800
O 	O 	0.43960 0.83820 0.56320 -0.47100
