data_crystal

_cell_length_a 14.20600
_cell_length_b 33.30800
_cell_length_c 11.58700
_cell_angle_alpha 90.00000
_cell_angle_beta  90.00000
_cell_angle_gamma 90.00000

_symmetry_space_group_name_	'P 1'
_symmetry_space_group_name_H-M	'P 1'

loop_
_symmetry_equiv_pos_as_xyz
  x,y,z

loop_
_atom_site_label
_atom_site_type_symbol
_atom_site_fract_x
_atom_site_fract_y
_atom_site_fract_z
_atom_site_charge
V 	V 	0.79970 0.13990 0.83600 1.68400
V 	V 	0.95760 0.10860 0.68370 1.71000
P 	P 	0.64410 0.07340 0.80950 0.63300
P 	P 	0.12130 0.17340 0.70430 0.60100
O 	O 	0.93530 0.14390 0.81590 -1.23300
O 	O 	0.70660 0.09980 0.88500 -0.60400
O 	O 	0.70610 0.05530 0.71030 -0.83900
O 	O 	0.60510 0.03900 0.87860 -0.58500
O 	O 	0.81860 0.15030 0.00300 -0.52600
O 	O 	0.06070 0.14380 0.63480 -0.57900
O 	O 	0.05750 0.19320 0.79940 -0.84700
O 	O 	0.15700 0.20540 0.62460 -0.54500
O 	O 	0.94990 0.09970 0.51650 -0.55800
O 	O 	0.81990 0.10870 0.69340 -1.24900
B 	B 	0.00360 0.16660 0.87830 1.91500
V 	V 	0.79970 0.63990 0.33600 1.70700
V 	V 	0.95760 0.60860 0.18370 1.71800
P 	P 	0.64410 0.57340 0.30950 0.63400
P 	P 	0.12130 0.67340 0.20430 0.60200
O 	O 	0.93530 0.64390 0.31590 -1.20500
O 	O 	0.70660 0.59980 0.38500 -0.55900
O 	O 	0.70610 0.55530 0.21030 -0.81200
O 	O 	0.60510 0.53900 0.37860 -0.54500
O 	O 	0.81860 0.65030 0.50300 -0.57100
O 	O 	0.06070 0.64380 0.13480 -0.55400
O 	O 	0.05750 0.69320 0.29940 -0.82900
O 	O 	0.15700 0.70540 0.12460 -0.52200
O 	O 	0.94990 0.59970 0.01650 -0.46400
O 	O 	0.81990 0.60870 0.19340 -1.22400
B 	B 	0.00360 0.66660 0.37830 1.90000
V 	V 	0.29970 0.13990 0.33600 1.70500
V 	V 	0.45760 0.10860 0.18370 1.70200
P 	P 	0.14410 0.07340 0.30950 0.63300
P 	P 	0.62130 0.17340 0.20430 0.60800
O 	O 	0.43530 0.14390 0.31590 -1.28400
O 	O 	0.20660 0.09980 0.38500 -0.57000
O 	O 	0.20610 0.05530 0.21030 -0.82600
O 	O 	0.10510 0.03900 0.37860 -0.57200
O 	O 	0.31860 0.15030 0.50300 -0.58100
O 	O 	0.56070 0.14380 0.13480 -0.52800
O 	O 	0.55750 0.19320 0.29940 -0.84800
O 	O 	0.65700 0.20540 0.12460 -0.51500
O 	O 	0.44990 0.09970 0.01650 -0.49000
O 	O 	0.31990 0.10870 0.19340 -1.23000
B 	B 	0.50360 0.16660 0.37830 2.07600
V 	V 	0.29970 0.63990 0.83600 1.68300
V 	V 	0.45760 0.60860 0.68370 1.69700
P 	P 	0.14410 0.57340 0.80950 0.63300
P 	P 	0.62130 0.67340 0.70430 0.60800
O 	O 	0.43530 0.64390 0.81590 -1.31200
O 	O 	0.20660 0.59980 0.88500 -0.60900
O 	O 	0.20610 0.55530 0.71030 -0.83900
O 	O 	0.10510 0.53900 0.87860 -0.59100
O 	O 	0.31860 0.65030 0.00300 -0.53300
O 	O 	0.56070 0.64380 0.63480 -0.55000
O 	O 	0.55750 0.69320 0.79940 -0.86700
O 	O 	0.65700 0.70540 0.62460 -0.53700
O 	O 	0.44990 0.59970 0.51650 -0.58400
O 	O 	0.31990 0.60870 0.69340 -1.25200
B 	B 	0.50360 0.66660 0.87830 2.09400
V 	V 	0.20030 0.86010 0.83600 1.68500
V 	V 	0.04240 0.89140 0.68370 1.68500
P 	P 	0.35590 0.92660 0.80950 0.63300
P 	P 	0.87870 0.82660 0.70430 0.61400
O 	O 	0.06470 0.85610 0.81590 -1.38800
O 	O 	0.29340 0.90020 0.88500 -0.60400
O 	O 	0.29390 0.94470 0.71030 -0.82900
O 	O 	0.39490 0.96100 0.87860 -0.56300
O 	O 	0.18140 0.84970 0.00300 -0.53700
O 	O 	0.93930 0.85620 0.63480 -0.52000
O 	O 	0.94250 0.80680 0.79940 -0.88600
O 	O 	0.84300 0.79460 0.62460 -0.53100
O 	O 	0.05010 0.90030 0.51650 -0.60700
O 	O 	0.18010 0.89130 0.69340 -1.25200
B 	B 	0.99640 0.83340 0.87830 2.27300
V 	V 	0.20030 0.36010 0.33600 1.70700
V 	V 	0.04240 0.39140 0.18370 1.69000
P 	P 	0.35590 0.42660 0.30950 0.63400
P 	P 	0.87870 0.32660 0.20430 0.61400
O 	O 	0.06470 0.35610 0.31590 -1.36100
O 	O 	0.29340 0.40020 0.38500 -0.56400
O 	O 	0.29390 0.44470 0.21030 -0.81700
O 	O 	0.39490 0.46100 0.37860 -0.54800
O 	O 	0.18140 0.34970 0.50300 -0.58500
O 	O 	0.93930 0.35620 0.13480 -0.50000
O 	O 	0.94250 0.30680 0.29940 -0.86700
O 	O 	0.84300 0.29460 0.12460 -0.50900
O 	O 	0.05010 0.40030 0.01650 -0.51400
O 	O 	0.18010 0.39130 0.19340 -1.23000
B 	B 	0.99640 0.33340 0.37830 2.25600
V 	V 	0.70030 0.86010 0.33600 1.70900
V 	V 	0.54240 0.89140 0.18370 1.70500
P 	P 	0.85590 0.92660 0.30950 0.63300
P 	P 	0.37870 0.82660 0.20430 0.60800
O 	O 	0.56470 0.85610 0.31590 -1.28100
O 	O 	0.79340 0.90020 0.38500 -0.55400
O 	O 	0.79390 0.94470 0.21030 -0.80200
O 	O 	0.89490 0.96100 0.37860 -0.50800
O 	O 	0.68140 0.84970 0.50300 -0.57500
O 	O 	0.43930 0.85620 0.13480 -0.52600
O 	O 	0.44250 0.80680 0.29940 -0.84900
O 	O 	0.34300 0.79460 0.12460 -0.51600
O 	O 	0.55010 0.90030 0.01650 -0.48800
O 	O 	0.68010 0.89130 0.19340 -1.22500
B 	B 	0.49640 0.83340 0.37830 2.07600
V 	V 	0.70030 0.36010 0.83600 1.68600
V 	V 	0.54240 0.39140 0.68370 1.69700
P 	P 	0.85590 0.42660 0.80950 0.63400
P 	P 	0.37870 0.32660 0.70430 0.60800
O 	O 	0.56470 0.35610 0.81590 -1.31000
O 	O 	0.79340 0.40020 0.88500 -0.59800
O 	O 	0.79390 0.44470 0.71030 -0.83000
O 	O 	0.89490 0.46100 0.87860 -0.55200
O 	O 	0.68140 0.34970 0.00300 -0.52900
O 	O 	0.43930 0.35620 0.63480 -0.55000
O 	O 	0.44250 0.30680 0.79940 -0.86700
O 	O 	0.34300 0.29460 0.62460 -0.53800
O 	O 	0.55010 0.40030 0.51650 -0.58400
O 	O 	0.68010 0.39130 0.69340 -1.24900
B 	B 	0.49640 0.33340 0.87830 2.09400
V 	V 	0.04970 0.11010 0.08600 1.71000
V 	V 	0.20760 0.14140 0.93370 1.67200
P 	P 	0.89410 0.17660 0.05950 0.69300
P 	P 	0.37130 0.07660 0.95430 0.46600
O 	O 	0.18530 0.10610 0.06590 -1.23900
O 	O 	0.95660 0.15020 0.13500 -0.51600
O 	O 	0.95610 0.19470 0.96030 -0.83400
O 	O 	0.85510 0.21100 0.12860 -0.53300
O 	O 	0.06860 0.09970 0.25300 -0.59700
O 	O 	0.31070 0.10620 0.88480 -0.56400
O 	O 	0.30750 0.05680 0.04940 -0.77600
O 	O 	0.40700 0.04460 0.87460 -0.54700
O 	O 	0.19990 0.15030 0.76650 -0.59400
O 	O 	0.06990 0.14130 0.94340 -1.28200
B 	B 	0.25360 0.08340 0.12830 2.05200
V 	V 	0.04970 0.61010 0.58600 1.68800
V 	V 	0.20760 0.64140 0.43370 1.69700
P 	P 	0.89410 0.67660 0.55950 0.62600
P 	P 	0.37130 0.57660 0.45430 0.60700
O 	O 	0.18530 0.60610 0.56590 -1.29400
O 	O 	0.95660 0.65020 0.63500 -0.53600
O 	O 	0.95610 0.69470 0.46030 -0.75400
O 	O 	0.85510 0.71100 0.62860 -0.54500
O 	O 	0.06860 0.59970 0.75300 -0.61400
O 	O 	0.31070 0.60620 0.38480 -0.54700
O 	O 	0.30750 0.55680 0.54940 -0.85700
O 	O 	0.40700 0.54460 0.37460 -0.53300
O 	O 	0.19990 0.65030 0.26650 -0.58000
O 	O 	0.06990 0.64130 0.44340 -1.22600
B 	B 	0.25360 0.58340 0.62830 2.07700
V 	V 	0.54970 0.11010 0.58600 1.70300
V 	V 	0.70760 0.14140 0.43370 1.70100
P 	P 	0.39410 0.17660 0.55950 0.63500
P 	P 	0.87130 0.07660 0.45430 0.60700
O 	O 	0.68530 0.10610 0.56590 -1.28900
O 	O 	0.45660 0.15020 0.63500 -0.57100
O 	O 	0.45610 0.19470 0.46030 -0.82800
O 	O 	0.35510 0.21100 0.62860 -0.55500
O 	O 	0.56860 0.09970 0.75300 -0.59200
O 	O 	0.81070 0.10620 0.38480 -0.54000
O 	O 	0.80750 0.05680 0.54940 -0.85700
O 	O 	0.90700 0.04460 0.37460 -0.51500
O 	O 	0.69990 0.15030 0.26650 -0.57700
O 	O 	0.56990 0.14130 0.44340 -1.24600
B 	B 	0.75360 0.08340 0.62830 2.07800
V 	V 	0.54970 0.61010 0.08600 1.72700
V 	V 	0.70760 0.64140 0.93370 1.67600
P 	P 	0.39410 0.67660 0.05950 0.70300
P 	P 	0.87130 0.57660 0.95430 0.46900
O 	O 	0.68530 0.60610 0.06590 -1.23000
O 	O 	0.45660 0.65020 0.13500 -0.54900
O 	O 	0.45610 0.69470 0.96030 -0.91200
O 	O 	0.35510 0.71100 0.12860 -0.54200
O 	O 	0.56860 0.59970 0.25300 -0.57200
O 	O 	0.81070 0.60620 0.88480 -0.55400
O 	O 	0.80750 0.55680 0.04940 -0.76200
O 	O 	0.90700 0.54460 0.87460 -0.51100
O 	O 	0.69990 0.65030 0.76650 -0.58900
O 	O 	0.56990 0.64130 0.94340 -1.30000
B 	B 	0.75360 0.58340 0.12830 2.05000
V 	V 	0.45030 0.38990 0.08600 1.72700
V 	V 	0.29240 0.35860 0.93370 1.67300
P 	P 	0.60590 0.32340 0.05950 0.70300
P 	P 	0.12870 0.42340 0.95430 0.46600
O 	O 	0.31470 0.39390 0.06590 -1.23100
O 	O 	0.54340 0.34980 0.13500 -0.54900
O 	O 	0.54390 0.30530 0.96030 -0.91100
O 	O 	0.64490 0.28900 0.12860 -0.54100
O 	O 	0.43140 0.40030 0.25300 -0.57200
O 	O 	0.18930 0.39380 0.88480 -0.56600
O 	O 	0.19250 0.44320 0.04940 -0.76900
O 	O 	0.09300 0.45540 0.87460 -0.55200
O 	O 	0.30010 0.34970 0.76650 -0.59400
O 	O 	0.43010 0.35870 0.94340 -1.30100
B 	B 	0.24640 0.41660 0.12830 2.04900
V 	V 	0.45030 0.88990 0.58600 1.70600
V 	V 	0.29240 0.85860 0.43370 1.69900
P 	P 	0.60590 0.82340 0.55950 0.63500
P 	P 	0.12870 0.92340 0.45430 0.60600
O 	O 	0.31470 0.89390 0.56590 -1.28600
O 	O 	0.54340 0.84980 0.63500 -0.56900
O 	O 	0.54390 0.80530 0.46030 -0.82800
O 	O 	0.64490 0.78900 0.62860 -0.55300
O 	O 	0.43140 0.90030 0.75300 -0.58900
O 	O 	0.18930 0.89380 0.38480 -0.54800
O 	O 	0.19250 0.94320 0.54940 -0.84900
O 	O 	0.09300 0.95540 0.37460 -0.53200
O 	O 	0.30010 0.84970 0.26650 -0.58000
O 	O 	0.43010 0.85870 0.44340 -1.24400
B 	B 	0.24640 0.91660 0.62830 2.07300
V 	V 	0.95030 0.38990 0.58600 1.72100
V 	V 	0.79240 0.35860 0.43370 1.70200
P 	P 	0.10590 0.32340 0.55950 0.64400
P 	P 	0.62870 0.42340 0.45430 0.60700
O 	O 	0.81470 0.39390 0.56590 -1.28000
O 	O 	0.04340 0.34980 0.63500 -0.60300
O 	O 	0.04390 0.30530 0.46030 -0.90300
O 	O 	0.14490 0.28900 0.62860 -0.56200
O 	O 	0.93140 0.40030 0.75300 -0.56400
O 	O 	0.68930 0.39380 0.38480 -0.54200
O 	O 	0.69250 0.44320 0.54940 -0.85200
O 	O 	0.59300 0.45540 0.37460 -0.53000
O 	O 	0.80010 0.34970 0.26650 -0.57700
O 	O 	0.93010 0.35870 0.44340 -1.26400
B 	B 	0.74640 0.41660 0.62830 2.07500
V 	V 	0.95030 0.88990 0.08600 1.74400
V 	V 	0.79240 0.85860 0.93370 1.67700
P 	P 	0.10590 0.82340 0.05950 0.71100
P 	P 	0.62870 0.92340 0.95430 0.46700
O 	O 	0.81470 0.89390 0.06590 -1.22300
O 	O 	0.04340 0.84980 0.13500 -0.58100
O 	O 	0.04390 0.80530 0.96030 -0.98600
O 	O 	0.14490 0.78900 0.12860 -0.55000
O 	O 	0.93140 0.90030 0.25300 -0.54500
O 	O 	0.68930 0.89380 0.88480 -0.55500
O 	O 	0.69250 0.94320 0.04940 -0.75500
O 	O 	0.59300 0.95540 0.87460 -0.52000
O 	O 	0.80010 0.84970 0.76650 -0.58800
O 	O 	0.93010 0.85870 0.94340 -1.31800
B 	B 	0.74640 0.91660 0.12830 2.04600
V 	V 	0.50000 0.00000 0.90200 1.66900
V 	V 	0.50000 0.50000 0.40200 1.69700
V 	V 	-0.00000 0.00000 0.40200 1.66200
V 	V 	0.00000 0.50000 0.90200 1.66000
V 	V 	0.75000 0.25000 0.15200 1.70300
V 	V 	0.75000 0.75000 0.65200 1.69500
V 	V 	0.25000 0.25000 0.65200 1.69300
V 	V 	0.25000 0.75000 0.15200 1.70100
