data_crystal

_cell_length_a 10.36270
_cell_length_b 10.36270
_cell_length_c 14.33200
_cell_angle_alpha 90.00000
_cell_angle_beta  90.00000
_cell_angle_gamma 90.00000

_symmetry_space_group_name_	'P 1'
_symmetry_space_group_name_H-M	'P 1'

loop_
_symmetry_equiv_pos_as_xyz
  x,y,z

loop_
_atom_site_label
_atom_site_type_symbol
_atom_site_fract_x
_atom_site_fract_y
_atom_site_fract_z
_atom_site_charge
Eu	Eu	0.14179 0.85821 0.62500 2.16000
Eu	Eu	0.85821 0.14179 0.12500 2.12500
Eu	Eu	0.14179 0.14179 0.87500 2.11700
Eu	Eu	0.85821 0.85821 0.37500 2.22200
H 	H 	0.44530 0.94030 0.38220 -0.05500
H 	H 	0.55470 0.05970 0.88220 -0.03700
H 	H 	0.05970 0.44530 0.63220 -0.05000
H 	H 	0.94030 0.55470 0.13220 -0.04600
H 	H 	0.55470 0.94030 0.61780 -0.04700
H 	H 	0.44530 0.05970 0.11780 -0.05600
H 	H 	0.94030 0.44530 0.36780 -0.05500
H 	H 	0.05970 0.55470 0.86780 -0.04700
H 	H 	0.11180 0.00000 0.25000 -0.09600
H 	H 	0.88820 -0.00000 0.75000 -0.06100
H 	H 	0.00000 0.11180 0.50000 -0.09700
H 	H 	-0.00000 0.88820 -0.00000 -0.06000
C 	C 	0.19310 0.92160 0.41470 0.59000
C 	C 	0.26610 0.95910 0.32820 -0.31900
C 	C 	0.40070 0.96300 0.32840 0.30400
C 	C 	0.80690 0.07840 0.91470 0.56800
C 	C 	0.73390 0.04090 0.82820 -0.31300
C 	C 	0.59930 0.03700 0.82840 0.24300
C 	C 	0.07840 0.19310 0.66470 0.58600
C 	C 	0.04090 0.26610 0.57820 -0.34900
C 	C 	0.03700 0.40070 0.57840 0.26300
C 	C 	0.92160 0.80690 0.16470 0.57000
C 	C 	0.95910 0.73390 0.07820 -0.28600
C 	C 	0.96300 0.59930 0.07840 0.27800
C 	C 	0.80690 0.92160 0.58530 0.57500
C 	C 	0.73390 0.95910 0.67180 -0.28600
C 	C 	0.59930 0.96300 0.67160 0.28500
C 	C 	0.19310 0.07840 0.08530 0.58700
C 	C 	0.26610 0.04090 0.17180 -0.35200
C 	C 	0.40070 0.03700 0.17160 0.26500
C 	C 	0.92160 0.19310 0.33530 0.58800
C 	C 	0.95910 0.26610 0.42180 -0.31800
C 	C 	0.96300 0.40070 0.42160 0.30300
C 	C 	0.07840 0.80690 0.83530 0.56700
C 	C 	0.04090 0.73390 0.92180 -0.29600
C 	C 	0.03700 0.59930 0.92160 0.26600
C 	C 	0.46870 0.00000 0.25000 -0.39100
C 	C 	0.61510 0.00000 0.25000 0.61800
C 	C 	0.20150 0.00000 0.25000 0.23900
C 	C 	0.53130 -0.00000 0.75000 -0.36700
C 	C 	0.38490 -0.00000 0.75000 0.60700
C 	C 	0.79850 -0.00000 0.75000 0.21400
C 	C 	-0.00000 0.46870 0.50000 -0.38800
C 	C 	0.00000 0.61510 0.50000 0.61900
C 	C 	-0.00000 0.20150 0.50000 0.23900
C 	C 	-0.00000 0.53130 -0.00000 -0.38500
C 	C 	-0.00000 0.38490 -0.00000 0.58400
C 	C 	-0.00000 0.79850 -0.00000 0.18500
O 	O 	0.25340 0.91780 0.48930 -0.56400
O 	O 	0.07800 0.90060 0.40860 -0.61400
O 	O 	0.66840 0.93450 0.30890 -0.58800
O 	O 	0.74660 0.08220 0.98930 -0.54500
O 	O 	0.92200 0.09940 0.90860 -0.56500
O 	O 	0.33160 0.06550 0.80890 -0.60400
O 	O 	0.08220 0.25340 0.73930 -0.57300
O 	O 	0.09940 0.07800 0.65860 -0.62800
O 	O 	0.06550 0.66840 0.55890 -0.61800
O 	O 	0.91780 0.74660 0.23930 -0.56000
O 	O 	0.90060 0.92200 0.15860 -0.56200
O 	O 	0.93450 0.33160 0.05890 -0.57700
O 	O 	0.74660 0.91780 0.51070 -0.55900
O 	O 	0.92200 0.90060 0.59140 -0.56100
O 	O 	0.33160 0.93450 0.69110 -0.57500
O 	O 	0.25340 0.08220 0.01070 -0.58700
O 	O 	0.07800 0.09940 0.09140 -0.62800
O 	O 	0.66840 0.06550 0.19110 -0.61800
O 	O 	0.91780 0.25340 0.26070 -0.56100
O 	O 	0.90060 0.07800 0.34140 -0.61300
O 	O 	0.93450 0.66840 0.44110 -0.58800
O 	O 	0.08220 0.74660 0.76070 -0.56600
O 	O 	0.09940 0.92200 0.84140 -0.57200
O 	O 	0.06550 0.33160 0.94110 -0.58400
