data_crystal

_cell_length_a 8.24200
_cell_length_b 11.25900
_cell_length_c 12.89810
_cell_angle_alpha 104.23900
_cell_angle_beta  108.63300
_cell_angle_gamma 90.00000

_symmetry_space_group_name_	'P 1'
_symmetry_space_group_name_H-M	'P 1'

loop_
_symmetry_equiv_pos_as_xyz
  x,y,z

loop_
_atom_site_label
_atom_site_type_symbol
_atom_site_fract_x
_atom_site_fract_y
_atom_site_fract_z
_atom_site_charge
Ni	Ni	0.49144 0.43674 0.37130 1.09000
Ni	Ni	0.12014 0.56326 0.62870 1.09100
H 	H 	0.99850 0.70070 0.35680 0.06600
H 	H 	0.92640 0.78790 0.20520 0.00300
H 	H 	0.70750 0.69330 0.03980 0.12200
H 	H 	0.32030 0.59800 0.22340 0.00100
H 	H 	0.31420 0.79560 0.21680 0.08600
H 	H 	0.66180 0.88950 0.52860 0.08100
H 	H 	0.64850 0.68940 0.52900 -0.01000
H 	H 	0.73620 0.25530 0.46400 0.01000
H 	H 	0.73900 0.05420 0.46960 0.07300
H 	H 	0.25310 0.99300 0.26180 0.06900
H 	H 	0.26460 0.19700 0.25820 0.00100
H 	H 	0.64170 0.29930 0.64320 0.07100
H 	H 	0.72120 0.21210 0.79480 0.00500
H 	H 	0.66770 0.30670 0.96020 0.14300
H 	H 	0.09690 0.40200 0.77660 0.00600
H 	H 	0.09740 0.20440 0.78320 0.09300
H 	H 	0.13320 0.11050 0.47140 0.08500
H 	H 	0.11950 0.31060 0.47100 -0.00800
H 	H 	0.27220 0.74470 0.53600 0.01300
H 	H 	0.26940 0.94580 0.53040 0.07700
H 	H 	0.99130 0.00700 0.73820 0.05800
H 	H 	0.00640 0.80300 0.74180 0.00800
C 	C 	0.64320 0.55530 0.09660 0.20300
C 	C 	0.68390 0.50030 0.18860 -0.14200
C 	C 	0.81630 0.55880 0.28700 -0.02200
C 	C 	0.90760 0.66410 0.29140 -0.09300
C 	C 	0.86590 0.71580 0.20020 0.06800
C 	C 	0.73430 0.66020 0.10180 -0.20400
C 	C 	0.58540 0.38270 0.17760 0.32700
C 	C 	0.86040 0.50960 0.39120 0.33400
C 	C 	0.38980 0.65750 0.28580 0.08400
C 	C 	0.38790 0.77560 0.28020 -0.14100
C 	C 	0.49640 0.86880 0.36960 0.06600
C 	C 	0.59200 0.83190 0.46480 -0.15100
C 	C 	0.58300 0.71120 0.46420 0.09400
C 	C 	0.63700 0.20300 0.42300 0.07700
C 	C 	0.63930 0.08070 0.42640 -0.12200
C 	C 	0.50060 0.99900 0.36840 0.03900
C 	C 	0.35290 0.04440 0.30340 -0.10900
C 	C 	0.36070 0.16830 0.30300 0.06400
C 	C 	0.54660 0.44470 0.90340 0.23200
C 	C 	0.49530 0.49970 0.81140 -0.14400
C 	C 	0.52930 0.44120 0.71300 -0.02000
C 	C 	0.61620 0.33590 0.70860 -0.09600
C 	C 	0.66570 0.28420 0.79980 0.08200
C 	C 	0.63250 0.33980 0.89820 -0.21600
C 	C 	0.40780 0.61730 0.82240 0.33000
C 	C 	0.46920 0.49040 0.60880 0.35000
C 	C 	0.10400 0.34250 0.71420 0.08600
C 	C 	0.10770 0.22440 0.71980 -0.14100
C 	C 	0.12680 0.13120 0.63040 0.07000
C 	C 	0.12720 0.16810 0.53520 -0.15000
C 	C 	0.11880 0.28880 0.53580 0.09700
C 	C 	0.21400 0.79700 0.57700 0.08200
C 	C 	0.21290 0.91930 0.57360 -0.12800
C 	C 	0.13220 0.00100 0.63160 0.04700
C 	C 	0.04950 0.95560 0.69660 -0.09500
C 	C 	0.05770 0.83170 0.69700 0.06100
N 	N 	0.48602 0.62070 0.37624 -0.24100
N 	N 	0.49931 0.24890 0.36402 -0.22000
N 	N 	0.10978 0.37930 0.62376 -0.24000
N 	N 	0.13529 0.75110 0.63598 -0.21900
O 	O 	0.44471 0.38610 0.19722 -0.38400
O 	O 	0.64405 0.28440 0.13890 -0.25000
O 	O 	0.75352 0.44800 0.40824 -0.42000
O 	O 	0.01337 0.53760 0.45694 -0.39800
O 	O 	0.24749 0.61390 0.80278 -0.37700
O 	O 	0.50515 0.71560 0.86110 -0.23500
O 	O 	0.34528 0.55200 0.59176 -0.42200
O 	O 	0.55643 0.46240 0.54306 -0.41300
O 	O 	0.50360 0.50000 1.00000 -0.23400
