data_crystal

_cell_length_a 11.81500
_cell_length_b 12.81600
_cell_length_c 20.10900
_cell_angle_alpha 90.00000
_cell_angle_beta  96.71500
_cell_angle_gamma 90.00000

_symmetry_space_group_name_	'P 1'
_symmetry_space_group_name_H-M	'P 1'

loop_
_symmetry_equiv_pos_as_xyz
  x,y,z

loop_
_atom_site_label
_atom_site_type_symbol
_atom_site_fract_x
_atom_site_fract_y
_atom_site_fract_z
_atom_site_charge
Ag	Ag	0.22082 0.60887 0.32080 0.44800
Ag	Ag	0.33388 0.41360 0.27481 0.22300
Ag	Ag	0.33950 0.43200 0.27600 0.25100
Ag	Ag	0.09313 0.41805 0.28149 0.53300
Ag	Ag	0.31193 0.67784 0.19963 0.23500
Ag	Ag	0.32490 0.66700 0.19340 0.20300
Ag	Ag	0.07257 0.67630 0.20090 0.48000
C 	C 	0.19330 0.53940 0.22091 0.05100
C 	C 	0.17890 0.47820 0.17520 -1.03800
C 	C 	0.15930 0.41390 0.11210 3.03200
C 	C 	0.03880 0.38580 0.09950 -4.13700
H 	H 	0.99320 0.44800 0.09700 1.23800
H 	H 	0.01870 0.34240 0.13520 1.26600
H 	H 	0.02530 0.34860 0.05790 1.24300
C 	C 	0.19740 0.48360 0.05730 -3.54100
H 	H 	0.15190 0.54590 0.05350 1.02500
H 	H 	0.18820 0.44680 0.01540 1.04400
H 	H 	0.27610 0.50200 0.06850 1.06000
C 	C 	0.23290 0.31930 0.11460 -4.01400
H 	H 	0.21250 0.27290 0.14880 1.26900
H 	H 	0.31130 0.33940 0.12450 1.23800
H 	H 	0.22220 0.28450 0.07200 1.26400
O 	O 	0.28490 0.85810 0.21016 -0.24900
O 	O 	0.09910 0.85840 0.21900 -0.35700
O 	O 	0.11290 0.23350 0.28075 -0.35800
O 	O 	0.30090 0.23290 0.28024 -0.26000
C 	C 	0.19300 0.90040 0.21440 0.29500
C 	C 	0.19310 0.02200 0.21430 0.39700
C 	C 	0.20780 0.07050 0.28434 0.39700
C 	C 	0.20760 0.19090 0.28258 0.23900
F 	F 	0.27750 0.05828 0.18072 -0.39700
F 	F 	0.09330 0.05934 0.18207 -0.46500
F 	F 	0.30520 0.03333 0.31725 -0.43400
F 	F 	0.12180 0.03394 0.31742 -0.53600
O 	O 	0.10100 0.41070 0.39854 -0.26400
O 	O 	0.15260 0.57670 0.42174 -0.25800
C 	C 	0.11170 0.49070 0.43403 0.29300
C 	C 	0.06250 0.48300 0.50227 0.41600
F 	F 	0.06970 0.38432 0.52519 -0.45800
F 	F 	0.12360 0.54350 0.54863 -0.38500
O 	O 	0.44600 0.40700 0.37921 -0.22900
O 	O 	0.42750 0.57950 0.37663 -0.25000
C 	C 	0.46370 0.49600 0.40140 0.28400
C 	C 	0.53580 0.50290 0.47080 0.42100
F 	F 	0.59450 0.59310 0.47590 -0.41300
F 	F 	0.61300 0.42650 0.47810 -0.40100
O 	O 	0.49630 0.65160 0.25250 -0.16100
O 	O 	0.49930 0.41060 0.21850 -0.18400
Ag	Ag	0.77918 0.10887 0.17920 0.44800
Ag	Ag	0.66612 0.91360 0.22519 0.22700
Ag	Ag	0.66050 0.93200 0.22400 0.25300
Ag	Ag	0.90687 0.91805 0.21851 0.54000
Ag	Ag	0.68807 0.17784 0.30037 0.23800
Ag	Ag	0.67510 0.16700 0.30660 0.20500
Ag	Ag	0.92743 0.17630 0.29910 0.48000
C 	C 	0.80670 0.03940 0.27909 -0.01400
C 	C 	0.82110 0.97820 0.32480 -0.92200
C 	C 	0.84070 0.91390 0.38790 2.76700
C 	C 	0.96120 0.88580 0.40050 -3.78300
H 	H 	0.00680 0.94800 0.40300 1.12900
H 	H 	0.98130 0.84240 0.36480 1.16300
H 	H 	0.97470 0.84860 0.44210 1.14400
C 	C 	0.80260 0.98360 0.44270 -3.19200
H 	H 	0.84810 0.04590 0.44650 0.91700
H 	H 	0.81180 0.94680 0.48460 0.95000
H 	H 	0.72390 0.00200 0.43150 0.95100
C 	C 	0.76710 0.81930 0.38540 -3.72400
H 	H 	0.78750 0.77290 0.35120 1.18300
H 	H 	0.68870 0.83940 0.37550 1.15400
H 	H 	0.77780 0.78450 0.42800 1.18100
O 	O 	0.71510 0.35810 0.28984 -0.25000
O 	O 	0.90090 0.35840 0.28100 -0.35700
O 	O 	0.88710 0.73350 0.21925 -0.35800
O 	O 	0.69910 0.73290 0.21976 -0.25900
C 	C 	0.80700 0.40040 0.28560 0.30500
C 	C 	0.80690 0.52200 0.28570 0.38800
C 	C 	0.79220 0.57050 0.21566 0.40000
C 	C 	0.79240 0.69090 0.21742 0.23900
F 	F 	0.72250 0.55828 0.31928 -0.39500
F 	F 	0.90670 0.55934 0.31793 -0.46700
F 	F 	0.69480 0.53333 0.18275 -0.44000
F 	F 	0.87820 0.53394 0.18258 -0.54900
O 	O 	0.89900 0.91070 0.10146 -0.27000
O 	O 	0.84740 0.07670 0.07826 -0.27900
C 	C 	0.88830 0.99070 0.06597 0.31200
C 	C 	0.93750 0.98300 0.99773 0.42300
F 	F 	0.93030 0.88432 0.97481 -0.46300
F 	F 	0.87640 0.04350 0.95137 -0.39700
O 	O 	0.55400 0.90700 0.12079 -0.23100
O 	O 	0.57250 0.07950 0.12337 -0.25600
C 	C 	0.53630 0.99600 0.09860 0.29100
C 	C 	0.46420 0.00290 0.02920 0.41700
F 	F 	0.40550 0.09310 0.02410 -0.41600
F 	F 	0.38700 0.92650 0.02190 -0.40200
O 	O 	0.50370 0.15160 0.24750 -0.16100
O 	O 	0.50070 0.91060 0.28150 -0.17900
Ag	Ag	0.77918 0.39113 0.67919 0.44900
Ag	Ag	0.66612 0.58640 0.72519 0.22400
Ag	Ag	0.66050 0.56800 0.72400 0.25200
Ag	Ag	0.90687 0.58195 0.71851 0.53400
Ag	Ag	0.68807 0.32216 0.80037 0.23600
Ag	Ag	0.67510 0.33300 0.80660 0.20400
Ag	Ag	0.92743 0.32370 0.79910 0.48000
C 	C 	0.80670 0.46060 0.77909 0.05100
C 	C 	0.82110 0.52180 0.82480 -1.03800
C 	C 	0.84070 0.58610 0.88790 3.03200
C 	C 	0.96120 0.61420 0.90050 -4.13700
H 	H 	0.00680 0.55200 0.90300 1.23800
H 	H 	0.98130 0.65760 0.86480 1.26600
H 	H 	0.97470 0.65140 0.94210 1.24300
C 	C 	0.80260 0.51640 0.94270 -3.54100
H 	H 	0.84810 0.45410 0.94650 1.02500
H 	H 	0.81180 0.55320 0.98460 1.04400
H 	H 	0.72390 0.49800 0.93150 1.06000
C 	C 	0.76710 0.68070 0.88540 -4.01400
H 	H 	0.78750 0.72710 0.85120 1.26900
H 	H 	0.68870 0.66060 0.87550 1.23800
H 	H 	0.77780 0.71550 0.92800 1.26400
O 	O 	0.71510 0.14190 0.78984 -0.24900
O 	O 	0.90090 0.14160 0.78100 -0.35700
O 	O 	0.88710 0.76650 0.71925 -0.35800
O 	O 	0.69910 0.76710 0.71976 -0.26000
C 	C 	0.80700 0.09960 0.78560 0.29500
C 	C 	0.80690 0.97800 0.78570 0.39700
C 	C 	0.79220 0.92950 0.71566 0.39700
C 	C 	0.79240 0.80910 0.71742 0.23900
F 	F 	0.72250 0.94172 0.81928 -0.39700
F 	F 	0.90670 0.94066 0.81793 -0.46500
F 	F 	0.69480 0.96667 0.68275 -0.43400
F 	F 	0.87820 0.96606 0.68258 -0.53600
O 	O 	0.89900 0.58930 0.60146 -0.26400
O 	O 	0.84740 0.42330 0.57826 -0.25800
C 	C 	0.88830 0.50930 0.56597 0.29300
C 	C 	0.93750 0.51700 0.49773 0.41600
F 	F 	0.93030 0.61568 0.47481 -0.45800
F 	F 	0.87640 0.45650 0.45137 -0.38500
O 	O 	0.55400 0.59300 0.62079 -0.22900
O 	O 	0.57250 0.42050 0.62337 -0.25000
C 	C 	0.53630 0.50400 0.59860 0.28400
C 	C 	0.46420 0.49710 0.52920 0.42100
F 	F 	0.40550 0.40690 0.52410 -0.41300
F 	F 	0.38700 0.57350 0.52190 -0.40100
O 	O 	0.50370 0.34840 0.74750 -0.16100
O 	O 	0.50070 0.58940 0.78150 -0.18400
Ag	Ag	0.22082 0.89113 0.82080 0.44800
Ag	Ag	0.33388 0.08640 0.77481 0.22700
Ag	Ag	0.33950 0.06800 0.77600 0.25300
Ag	Ag	0.09313 0.08195 0.78149 0.54000
Ag	Ag	0.31193 0.82216 0.69963 0.23800
Ag	Ag	0.32490 0.83300 0.69340 0.20500
Ag	Ag	0.07257 0.82370 0.70090 0.48000
C 	C 	0.19330 0.96060 0.72091 -0.01400
C 	C 	0.17890 0.02180 0.67520 -0.92200
C 	C 	0.15930 0.08610 0.61210 2.76700
C 	C 	0.03880 0.11420 0.59950 -3.78300
H 	H 	0.99320 0.05200 0.59700 1.12900
H 	H 	0.01870 0.15760 0.63520 1.16300
H 	H 	0.02530 0.15140 0.55790 1.14400
C 	C 	0.19740 0.01640 0.55730 -3.19200
H 	H 	0.15190 0.95410 0.55350 0.91700
H 	H 	0.18820 0.05320 0.51540 0.95000
H 	H 	0.27610 0.99800 0.56850 0.95100
C 	C 	0.23290 0.18070 0.61460 -3.72400
H 	H 	0.21250 0.22710 0.64880 1.18300
H 	H 	0.31130 0.16060 0.62450 1.15400
H 	H 	0.22220 0.21550 0.57200 1.18100
O 	O 	0.28490 0.64190 0.71016 -0.25000
O 	O 	0.09910 0.64160 0.71900 -0.35700
O 	O 	0.11290 0.26650 0.78075 -0.35800
O 	O 	0.30090 0.26710 0.78024 -0.25900
C 	C 	0.19300 0.59960 0.71440 0.30500
C 	C 	0.19310 0.47800 0.71430 0.38800
C 	C 	0.20780 0.42950 0.78434 0.40000
C 	C 	0.20760 0.30910 0.78258 0.23900
F 	F 	0.27750 0.44172 0.68072 -0.39500
F 	F 	0.09330 0.44066 0.68207 -0.46700
F 	F 	0.30520 0.46667 0.81725 -0.44000
F 	F 	0.12180 0.46606 0.81742 -0.54900
O 	O 	0.10100 0.08930 0.89854 -0.27000
O 	O 	0.15260 0.92330 0.92174 -0.27900
C 	C 	0.11170 0.00930 0.93403 0.31200
C 	C 	0.06250 0.01700 0.00227 0.42300
F 	F 	0.06970 0.11568 0.02519 -0.46300
F 	F 	0.12360 0.95650 0.04863 -0.39700
O 	O 	0.44600 0.09300 0.87921 -0.23100
O 	O 	0.42750 0.92050 0.87663 -0.25600
C 	C 	0.46370 0.00400 0.90140 0.29100
C 	C 	0.53580 0.99710 0.97080 0.41700
F 	F 	0.59450 0.90690 0.97590 -0.41600
F 	F 	0.61300 0.07350 0.97810 -0.40200
O 	O 	0.49630 0.84840 0.75250 -0.16100
O 	O 	0.49930 0.08940 0.71850 -0.17900
