data_crystal

_cell_length_a 10.42900
_cell_length_b 10.42900
_cell_length_c 8.99000
_cell_angle_alpha 90.00000
_cell_angle_beta  90.00000
_cell_angle_gamma 90.00000

_symmetry_space_group_name_	'P 1'
_symmetry_space_group_name_H-M	'P 1'

loop_
_symmetry_equiv_pos_as_xyz
  x,y,z

loop_
_atom_site_label
_atom_site_type_symbol
_atom_site_fract_x
_atom_site_fract_y
_atom_site_fract_z
_atom_site_charge
Fe	Fe	0.11891 0.61886 0.15615 1.27000
P 	P 	0.89760 0.39759 0.20202 0.71200
O 	O 	0.99690 0.49720 0.24520 -0.37100
O 	O 	0.93590 0.28170 0.31600 -0.26400
O 	O 	0.07070 0.76880 0.28880 -0.23900
O 	O 	0.76910 0.43190 0.21160 -0.24400
O 	O 	0.28200 0.56230 0.18420 -0.26200
O 	O 	0.94090 0.33590 0.04610 -0.28900
O 	O 	0.16310 0.55890 0.95310 -0.29400
Zn	Zn	0.88109 0.11886 0.34385 1.27700
Fe	Fe	0.38109 0.88114 0.15615 1.26900
P 	P 	0.60240 0.10241 0.20202 0.71100
O 	O 	0.50310 0.00280 0.24520 -0.37200
O 	O 	0.56410 0.21830 0.31600 -0.26500
O 	O 	0.42930 0.73120 0.28880 -0.24000
O 	O 	0.73090 0.06810 0.21160 -0.24300
O 	O 	0.21800 0.93770 0.18420 -0.26500
O 	O 	0.55910 0.16410 0.04610 -0.29200
O 	O 	0.33690 0.94110 0.95310 -0.29200
Zn	Zn	0.61891 0.38114 0.34385 1.27500
P 	P 	0.10240 0.89759 0.29798 0.71200
O 	O 	0.00310 0.99720 0.25480 -0.38400
O 	O 	0.06410 0.78170 0.18400 -0.26800
O 	O 	0.92930 0.26880 0.21120 -0.24800
O 	O 	0.23090 0.93190 0.28840 -0.23500
O 	O 	0.71800 0.06230 0.31580 -0.26200
O 	O 	0.05910 0.83590 0.45390 -0.30100
O 	O 	0.83690 0.05890 0.54690 -0.30400
P 	P 	0.39760 0.60241 0.29798 0.71200
O 	O 	0.49690 0.50280 0.25480 -0.38100
O 	O 	0.43590 0.71830 0.18400 -0.26600
O 	O 	0.57070 0.23120 0.21120 -0.24900
O 	O 	0.26910 0.56810 0.28840 -0.23600
O 	O 	0.78200 0.43770 0.31580 -0.26200
O 	O 	0.44090 0.66410 0.45390 -0.30100
O 	O 	0.66310 0.44110 0.54690 -0.30400
Fe	Fe	0.88109 0.38114 0.84385 1.26900
P 	P 	0.10240 0.60241 0.79798 0.71100
O 	O 	0.00310 0.50280 0.75480 -0.37200
O 	O 	0.06410 0.71830 0.68400 -0.26500
O 	O 	0.92930 0.23120 0.71120 -0.24000
O 	O 	0.23090 0.56810 0.78840 -0.24500
O 	O 	0.71800 0.43770 0.81580 -0.26300
O 	O 	0.05910 0.66410 0.95390 -0.29000
O 	O 	0.83690 0.44110 0.04690 -0.29500
Zn	Zn	0.11891 0.88114 0.65615 1.27600
Fe	Fe	0.61891 0.11886 0.84385 1.26900
P 	P 	0.39760 0.89759 0.79798 0.71100
O 	O 	0.49690 0.99720 0.75480 -0.37200
O 	O 	0.43590 0.78170 0.68400 -0.26500
O 	O 	0.57070 0.26880 0.71120 -0.24000
O 	O 	0.26910 0.93190 0.78840 -0.24300
O 	O 	0.78200 0.06230 0.81580 -0.26500
O 	O 	0.44090 0.83590 0.95390 -0.29200
O 	O 	0.66310 0.05890 0.04690 -0.29200
Zn	Zn	0.38109 0.61886 0.65615 1.27500
P 	P 	0.89760 0.10241 0.70202 0.71200
O 	O 	0.99690 0.00280 0.74520 -0.38400
O 	O 	0.93590 0.21830 0.81600 -0.26800
O 	O 	0.07070 0.73120 0.78880 -0.24800
O 	O 	0.76910 0.06810 0.71160 -0.23500
O 	O 	0.28200 0.93770 0.68420 -0.26200
O 	O 	0.94090 0.16410 0.54610 -0.30100
O 	O 	0.16310 0.94110 0.45310 -0.30400
P 	P 	0.60240 0.39759 0.70202 0.71200
O 	O 	0.50310 0.49720 0.74520 -0.38100
O 	O 	0.56410 0.28170 0.81600 -0.26600
O 	O 	0.42930 0.76880 0.78880 -0.24900
O 	O 	0.73090 0.43190 0.71160 -0.23600
O 	O 	0.21800 0.56230 0.68420 -0.26200
O 	O 	0.55910 0.33590 0.54610 -0.30100
O 	O 	0.33690 0.55890 0.45310 -0.30400
