data_crystal

_cell_length_a 22.03060
_cell_length_b 22.03060
_cell_length_c 22.03060
_cell_angle_alpha 109.47100
_cell_angle_beta  109.47100
_cell_angle_gamma 109.47100

_symmetry_space_group_name_	'P 1'
_symmetry_space_group_name_H-M	'P 1'

loop_
_symmetry_equiv_pos_as_xyz
  x,y,z

loop_
_atom_site_label
_atom_site_type_symbol
_atom_site_fract_x
_atom_site_fract_y
_atom_site_fract_z
_atom_site_charge
Co	Co	0.40760 0.90760 0.50000 1.14200
Co	Co	0.59240 0.09240 0.50000 1.13800
Co	Co	0.50000 0.59240 0.09240 1.13800
Co	Co	0.50000 0.40760 0.90760 1.14200
Co	Co	0.90760 0.50000 0.40760 1.14200
Co	Co	0.09240 0.50000 0.59240 1.13800
Co	Co	0.09240 0.59240 0.50000 1.13800
Co	Co	0.90760 0.40760 0.50000 1.14200
Co	Co	0.40760 0.50000 0.90760 1.14200
Co	Co	0.59240 0.50000 0.09240 1.13800
Co	Co	0.50000 0.09240 0.59240 1.13800
Co	Co	0.50000 0.90760 0.40760 1.14200
H 	H 	0.80100 0.56270 0.11210 0.00900
H 	H 	0.90850 0.57300 0.10710 0.09400
H 	H 	0.45060 0.68890 0.88790 0.00600
H 	H 	0.46590 0.80140 0.89290 0.08700
H 	H 	0.54940 0.43730 0.23830 0.00700
H 	H 	0.53410 0.42700 0.33550 0.09300
H 	H 	0.19900 0.31110 0.76170 0.00800
H 	H 	0.09150 0.19860 0.66450 0.09100
H 	H 	0.23830 0.54940 0.43730 0.00700
H 	H 	0.33550 0.53410 0.42700 0.09300
H 	H 	0.76170 0.19900 0.31110 0.00800
H 	H 	0.66450 0.09150 0.19860 0.09100
H 	H 	0.11210 0.80100 0.56270 0.01000
H 	H 	0.10710 0.90850 0.57300 0.09500
H 	H 	0.88790 0.45060 0.68890 0.00700
H 	H 	0.89290 0.46590 0.80140 0.08700
H 	H 	0.68890 0.88790 0.45060 0.01500
H 	H 	0.80140 0.89290 0.46590 0.07400
H 	H 	0.56270 0.11210 0.80100 0.01000
H 	H 	0.57300 0.10710 0.90850 0.09500
H 	H 	0.31110 0.76170 0.19900 0.00800
H 	H 	0.19860 0.66450 0.09150 0.09000
H 	H 	0.43730 0.23830 0.54940 0.00700
H 	H 	0.42700 0.33550 0.53410 0.09300
H 	H 	0.43730 0.19900 0.88790 0.00500
H 	H 	0.42700 0.09150 0.89290 0.08400
H 	H 	0.31110 0.54940 0.11210 0.00800
H 	H 	0.19860 0.53410 0.10710 0.09000
H 	H 	0.56270 0.45060 0.76170 0.00800
H 	H 	0.57300 0.46590 0.66450 0.09500
H 	H 	0.68890 0.80100 0.23830 0.00900
H 	H 	0.80140 0.90850 0.33550 0.09600
H 	H 	0.45060 0.76170 0.56270 0.00800
H 	H 	0.46590 0.66450 0.57300 0.09500
H 	H 	0.80100 0.23830 0.68890 0.01000
H 	H 	0.90850 0.33550 0.80140 0.09600
H 	H 	0.19900 0.88790 0.43730 0.00500
H 	H 	0.09150 0.89290 0.42700 0.08500
H 	H 	0.54940 0.11210 0.31110 0.00800
H 	H 	0.53410 0.10710 0.19860 0.09100
H 	H 	0.11210 0.31110 0.54940 0.00700
H 	H 	0.10710 0.19860 0.53410 0.09300
H 	H 	0.88790 0.43730 0.19900 0.00500
H 	H 	0.89290 0.42700 0.09150 0.08500
H 	H 	0.23830 0.68890 0.80100 0.01000
H 	H 	0.33550 0.80140 0.90850 0.09600
H 	H 	0.76170 0.56270 0.45060 0.00800
H 	H 	0.66450 0.57300 0.46590 0.09500
H 	H 	0.19900 0.43730 0.88790 0.00500
H 	H 	0.09150 0.42700 0.89290 0.08500
H 	H 	0.54940 0.31110 0.11210 0.00800
H 	H 	0.53410 0.19860 0.10710 0.09000
H 	H 	0.45060 0.56270 0.76170 0.00800
H 	H 	0.46590 0.57300 0.66450 0.09500
H 	H 	0.80100 0.68890 0.23830 0.00900
H 	H 	0.90850 0.80140 0.33550 0.09800
H 	H 	0.76170 0.45060 0.56270 0.00800
H 	H 	0.66450 0.46590 0.57300 0.09500
H 	H 	0.23830 0.80100 0.68890 0.01000
H 	H 	0.33550 0.90850 0.80140 0.09600
H 	H 	0.88790 0.19900 0.43730 0.00300
H 	H 	0.89290 0.09150 0.42700 0.08500
H 	H 	0.11210 0.54940 0.31110 0.00800
H 	H 	0.10710 0.53410 0.19860 0.09100
H 	H 	0.31110 0.11210 0.54940 0.00800
H 	H 	0.19860 0.10710 0.53410 0.09100
H 	H 	0.43730 0.88790 0.19900 0.00500
H 	H 	0.42700 0.89290 0.09150 0.08500
H 	H 	0.68890 0.23830 0.80100 0.01000
H 	H 	0.80140 0.33550 0.90850 0.09600
H 	H 	0.56270 0.76170 0.45060 0.00800
H 	H 	0.57300 0.66450 0.46590 0.09500
H 	H 	0.56270 0.80100 0.11210 0.01000
H 	H 	0.57300 0.90850 0.10710 0.09500
H 	H 	0.68890 0.45060 0.88790 0.00700
H 	H 	0.80140 0.46590 0.89290 0.08700
H 	H 	0.43730 0.54940 0.23830 0.00700
H 	H 	0.42700 0.53410 0.33550 0.09300
H 	H 	0.31110 0.19900 0.76170 0.00800
H 	H 	0.19860 0.09150 0.66450 0.09100
H 	H 	0.54940 0.23830 0.43730 0.00700
H 	H 	0.53410 0.33550 0.42700 0.09300
H 	H 	0.19900 0.76170 0.31110 0.00800
H 	H 	0.09150 0.66450 0.19860 0.09100
H 	H 	0.80100 0.11210 0.56270 0.01900
H 	H 	0.90850 0.10710 0.57300 0.08200
H 	H 	0.45060 0.88790 0.68890 0.00700
H 	H 	0.46590 0.89290 0.80140 0.08700
H 	H 	0.88790 0.68890 0.45060 0.00700
H 	H 	0.89290 0.80140 0.46590 0.08700
H 	H 	0.11210 0.56270 0.80100 0.01000
H 	H 	0.10710 0.57300 0.90850 0.09500
H 	H 	0.76170 0.31110 0.19900 0.00800
H 	H 	0.66450 0.19860 0.09150 0.09000
H 	H 	0.23830 0.43730 0.54940 0.00700
H 	H 	0.33550 0.42700 0.53410 0.09300
C 	C 	0.80020 0.54370 0.06710 0.10700
C 	C 	0.86520 0.55470 0.06370 -0.14100
C 	C 	0.47660 0.73310 0.93290 0.12400
C 	C 	0.49100 0.80150 0.93630 -0.12100
C 	C 	0.52340 0.45630 0.25650 0.11100
C 	C 	0.50900 0.44530 0.31050 -0.15300
C 	C 	0.19980 0.26690 0.74350 0.10900
C 	C 	0.13480 0.19850 0.68950 -0.15000
C 	C 	0.25650 0.52340 0.45630 0.11100
C 	C 	0.31050 0.50900 0.44530 -0.15300
C 	C 	0.74350 0.19980 0.26690 0.10900
C 	C 	0.68950 0.13480 0.19850 -0.15100
C 	C 	0.06710 0.80020 0.54370 0.10700
C 	C 	0.06370 0.86520 0.55470 -0.14100
C 	C 	0.93290 0.47660 0.73310 0.12300
C 	C 	0.93630 0.49100 0.80150 -0.12200
C 	C 	0.73310 0.93290 0.47660 0.09900
C 	C 	0.80150 0.93630 0.49100 -0.08900
C 	C 	0.54370 0.06710 0.80020 0.10700
C 	C 	0.55470 0.06370 0.86520 -0.14100
C 	C 	0.26690 0.74350 0.19980 0.10900
C 	C 	0.19850 0.68950 0.13480 -0.15100
C 	C 	0.45630 0.25650 0.52340 0.11100
C 	C 	0.44530 0.31050 0.50900 -0.15300
C 	C 	0.45630 0.19980 0.93290 0.12400
C 	C 	0.44530 0.13480 0.93630 -0.12500
C 	C 	0.26690 0.52340 0.06710 0.10700
C 	C 	0.19850 0.50900 0.06370 -0.14600
C 	C 	0.54370 0.47660 0.74350 0.11300
C 	C 	0.55470 0.49100 0.68950 -0.15200
C 	C 	0.73310 0.80020 0.25650 0.11100
C 	C 	0.80150 0.86520 0.31050 -0.15000
C 	C 	0.47660 0.74350 0.54370 0.11300
C 	C 	0.49100 0.68950 0.55470 -0.15200
C 	C 	0.80020 0.25650 0.73310 0.10700
C 	C 	0.86520 0.31050 0.80150 -0.14300
C 	C 	0.19980 0.93290 0.45630 0.12400
C 	C 	0.13480 0.93630 0.44530 -0.12700
C 	C 	0.52340 0.06710 0.26690 0.10800
C 	C 	0.50900 0.06370 0.19850 -0.14600
C 	C 	0.06710 0.26690 0.52340 0.11200
C 	C 	0.06370 0.19850 0.50900 -0.15200
C 	C 	0.93290 0.45630 0.19980 0.12400
C 	C 	0.93630 0.44530 0.13480 -0.12600
C 	C 	0.25650 0.73310 0.80020 0.10700
C 	C 	0.31050 0.80150 0.86520 -0.14300
C 	C 	0.74350 0.54370 0.47660 0.11300
C 	C 	0.68950 0.55470 0.49100 -0.15200
C 	C 	0.19980 0.45630 0.93290 0.12400
C 	C 	0.13480 0.44530 0.93630 -0.12500
C 	C 	0.52340 0.26690 0.06710 0.10700
C 	C 	0.50900 0.19850 0.06370 -0.14600
C 	C 	0.47660 0.54370 0.74350 0.11300
C 	C 	0.49100 0.55470 0.68950 -0.15200
C 	C 	0.80020 0.73310 0.25650 0.11100
C 	C 	0.86520 0.80150 0.31050 -0.14900
C 	C 	0.74350 0.47660 0.54370 0.11300
C 	C 	0.68950 0.49100 0.55470 -0.15200
C 	C 	0.25650 0.80020 0.73310 0.10700
C 	C 	0.31050 0.86520 0.80150 -0.14300
C 	C 	0.93290 0.19980 0.45630 0.12800
C 	C 	0.93630 0.13480 0.44530 -0.13200
C 	C 	0.06710 0.52340 0.26690 0.10700
C 	C 	0.06370 0.50900 0.19850 -0.14600
C 	C 	0.26690 0.06710 0.52340 0.10800
C 	C 	0.19850 0.06370 0.50900 -0.14700
C 	C 	0.45630 0.93290 0.19980 0.12400
C 	C 	0.44530 0.93630 0.13480 -0.12600
C 	C 	0.73310 0.25650 0.80020 0.10700
C 	C 	0.80150 0.31050 0.86520 -0.14300
C 	C 	0.54370 0.74350 0.47660 0.11300
C 	C 	0.55470 0.68950 0.49100 -0.15200
C 	C 	0.54370 0.80020 0.06710 0.10700
C 	C 	0.55470 0.86520 0.06370 -0.14100
C 	C 	0.73310 0.47660 0.93290 0.12400
C 	C 	0.80150 0.49100 0.93630 -0.12100
C 	C 	0.45630 0.52340 0.25650 0.11100
C 	C 	0.44530 0.50900 0.31050 -0.15300
C 	C 	0.26690 0.19980 0.74350 0.10900
C 	C 	0.19850 0.13480 0.68950 -0.15000
C 	C 	0.52340 0.25650 0.45630 0.11100
C 	C 	0.50900 0.31050 0.44530 -0.15300
C 	C 	0.19980 0.74350 0.26690 0.10900
C 	C 	0.13480 0.68950 0.19850 -0.15100
C 	C 	0.80020 0.06710 0.54370 0.08200
C 	C 	0.86520 0.06370 0.55470 -0.10800
C 	C 	0.47660 0.93290 0.73310 0.12300
C 	C 	0.49100 0.93630 0.80150 -0.12200
C 	C 	0.93290 0.73310 0.47660 0.12300
C 	C 	0.93630 0.80150 0.49100 -0.12200
C 	C 	0.06710 0.54370 0.80020 0.10700
C 	C 	0.06370 0.55470 0.86520 -0.14100
C 	C 	0.74350 0.26690 0.19980 0.10900
C 	C 	0.68950 0.19850 0.13480 -0.15100
C 	C 	0.25650 0.45630 0.52340 0.11100
C 	C 	0.31050 0.44530 0.50900 -0.15300
C 	C 	0.66400 0.48000 -0.00000 0.52200
C 	C 	0.73510 0.50310 -0.00000 -0.23200
C 	C 	0.86760 0.53980 -0.00000 0.05200
C 	C 	0.93840 0.55700 -0.00000 0.10900
C 	C 	0.48000 0.66400 -0.00000 0.52200
C 	C 	0.50310 0.73510 -0.00000 -0.23200
C 	C 	0.53980 0.86760 -0.00000 0.05200
C 	C 	0.55700 0.93840 -0.00000 0.11000
C 	C 	0.52000 0.52000 0.18400 0.54800
C 	C 	0.49690 0.49690 0.23200 -0.22200
C 	C 	0.46020 0.46020 0.32780 0.07900
C 	C 	0.44300 0.44300 0.38140 0.10100
C 	C 	0.33600 0.33600 0.81600 0.54800
C 	C 	0.26490 0.26490 0.76800 -0.21900
C 	C 	0.13240 0.13240 0.67220 0.07700
C 	C 	0.06160 0.06160 0.61860 0.10000
C 	C 	0.18400 0.52000 0.52000 0.54800
C 	C 	0.23200 0.49690 0.49690 -0.22200
C 	C 	0.32780 0.46020 0.46020 0.07900
C 	C 	0.38140 0.44300 0.44300 0.10100
C 	C 	0.81600 0.33600 0.33600 0.54800
C 	C 	0.76800 0.26490 0.26490 -0.21900
C 	C 	0.67220 0.13240 0.13240 0.07700
C 	C 	0.61860 0.06160 0.06160 0.09900
C 	C 	-0.00000 0.66400 0.48000 0.52300
C 	C 	-0.00000 0.73510 0.50310 -0.23200
C 	C 	0.00000 0.86760 0.53980 0.05200
C 	C 	-0.00000 0.93840 0.55700 0.11100
C 	C 	0.00000 0.48000 0.66400 0.52300
C 	C 	0.00000 0.50310 0.73510 -0.23200
C 	C 	-0.00000 0.53980 0.86760 0.05300
C 	C 	-0.00000 0.55700 0.93840 0.11100
C 	C 	0.66400 0.00000 0.48000 0.51600
C 	C 	0.73510 0.00000 0.50310 -0.21300
C 	C 	0.86760 -0.00000 0.53980 0.00400
C 	C 	0.93840 1.00000 0.55700 0.17200
C 	C 	0.48000 0.00000 0.66400 0.52300
C 	C 	0.50310 0.00000 0.73510 -0.23200
C 	C 	0.53980 0.00000 0.86760 0.05300
C 	C 	0.55700 0.00000 0.93840 0.11100
C 	C 	0.33600 0.81600 0.33600 0.54800
C 	C 	0.26490 0.76800 0.26490 -0.21900
C 	C 	0.13240 0.67220 0.13240 0.07700
C 	C 	0.06160 0.61860 0.06160 0.09900
C 	C 	0.52000 0.18400 0.52000 0.54800
C 	C 	0.49690 0.23200 0.49690 -0.22200
C 	C 	0.46020 0.32780 0.46020 0.07900
C 	C 	0.44300 0.38140 0.44300 0.10100
C 	C 	0.52000 0.33600 -0.00000 0.52200
C 	C 	0.49690 0.26490 -0.00000 -0.23400
C 	C 	0.46020 0.13240 -0.00000 0.05400
C 	C 	0.44300 0.06160 -0.00000 0.08800
C 	C 	0.33600 0.52000 -0.00000 0.52200
C 	C 	0.26490 0.49690 -0.00000 -0.23400
C 	C 	0.13240 0.46020 -0.00000 0.05400
C 	C 	0.06160 0.44300 -0.00000 0.08800
C 	C 	0.48000 0.48000 0.81600 0.54900
C 	C 	0.50310 0.50310 0.76800 -0.22000
C 	C 	0.53980 0.53980 0.67220 0.08200
C 	C 	0.55700 0.55700 0.61860 0.10300
C 	C 	0.66400 0.66400 0.18400 0.54800
C 	C 	0.73510 0.73510 0.23200 -0.22000
C 	C 	0.86760 0.86760 0.32780 0.07800
C 	C 	0.93840 0.93840 0.38140 0.12200
C 	C 	0.48000 0.81600 0.48000 0.54900
C 	C 	0.50310 0.76800 0.50310 -0.22000
C 	C 	0.53980 0.67220 0.53980 0.08200
C 	C 	0.55700 0.61860 0.55700 0.10300
C 	C 	0.66400 0.18400 0.66400 0.54700
C 	C 	0.73510 0.23200 0.73510 -0.21700
C 	C 	0.86760 0.32780 0.86760 0.07100
C 	C 	0.93840 0.38140 0.93840 0.14000
C 	C 	0.33600 0.00000 0.52000 0.52400
C 	C 	0.26490 0.00000 0.49690 -0.23400
C 	C 	0.13240 0.00000 0.46020 0.05600
C 	C 	0.06160 0.00000 0.44300 0.08700
C 	C 	0.52000 0.00000 0.33600 0.52300
C 	C 	0.49690 -0.00000 0.26490 -0.23400
C 	C 	0.46020 0.00000 0.13240 0.05500
C 	C 	0.44300 0.00000 0.06160 0.08900
C 	C 	-0.00000 0.33600 0.52000 0.52500
C 	C 	-0.00000 0.26490 0.49690 -0.23700
C 	C 	-0.00000 0.13240 0.46020 0.06200
C 	C 	0.00000 0.06160 0.44300 0.07200
C 	C 	-0.00000 0.52000 0.33600 0.52300
C 	C 	-0.00000 0.49690 0.26490 -0.23400
C 	C 	-0.00000 0.46020 0.13240 0.05500
C 	C 	0.00000 0.44300 0.06160 0.08900
C 	C 	0.18400 0.66400 0.66400 0.54700
C 	C 	0.23200 0.73510 0.73510 -0.21700
C 	C 	0.32780 0.86760 0.86760 0.07100
C 	C 	0.38140 0.93840 0.93840 0.14000
C 	C 	0.81600 0.48000 0.48000 0.54900
C 	C 	0.76800 0.50310 0.50310 -0.22000
C 	C 	0.67220 0.53980 0.53980 0.08200
C 	C 	0.61860 0.55700 0.55700 0.10300
N 	N 	-0.00000 0.60110 0.06470 -0.15400
N 	N 	0.53640 0.93530 0.93530 -0.12700
N 	N 	0.46360 0.39890 0.39890 -0.14200
N 	N 	0.00000 0.06470 0.60110 -0.17000
N 	N 	0.39890 0.46360 0.39890 -0.14200
N 	N 	0.60110 0.00000 0.06470 -0.15400
N 	N 	0.06470 0.00000 0.60110 -0.15500
N 	N 	0.93530 0.53640 0.93530 -0.12600
N 	N 	0.93530 0.93530 0.53640 -0.14300
N 	N 	0.60110 0.06470 -0.00000 -0.15400
N 	N 	0.06470 0.60110 -0.00000 -0.15400
N 	N 	0.39890 0.39890 0.46360 -0.14200
N 	N 	0.39890 0.00000 0.93530 -0.14700
N 	N 	0.06470 0.46360 0.06470 -0.14100
N 	N 	0.60110 0.53640 0.60110 -0.14100
N 	N 	0.93530 1.00000 0.39890 -0.12000
N 	N 	0.53640 0.60110 0.60110 -0.14100
N 	N 	0.00000 0.39890 0.93530 -0.14700
N 	N 	-0.00000 0.93530 0.39890 -0.14400
N 	N 	0.46360 0.06470 0.06470 -0.14100
N 	N 	0.06470 0.06470 0.46360 -0.13800
N 	N 	0.93530 0.39890 -0.00000 -0.14800
N 	N 	0.39890 0.93530 -0.00000 -0.14800
N 	N 	0.60110 0.60110 0.53640 -0.14100
O 	O 	0.66300 0.49920 0.05680 -0.52500
O 	O 	0.44240 0.60620 0.94320 -0.50800
O 	O 	0.55760 0.50080 0.16380 -0.53100
O 	O 	0.33700 0.39380 0.83620 -0.52800
O 	O 	0.16380 0.55760 0.50080 -0.53100
O 	O 	0.83620 0.33700 0.39380 -0.52800
O 	O 	0.05680 0.66300 0.49920 -0.52600
O 	O 	0.94320 0.44240 0.60620 -0.50800
O 	O 	0.60620 0.94320 0.44240 -0.50600
O 	O 	0.49920 0.05680 0.66300 -0.52600
O 	O 	0.39380 0.83620 0.33700 -0.52800
O 	O 	0.50080 0.16380 0.55760 -0.53100
O 	O 	0.50080 0.33700 0.94320 -0.50800
O 	O 	0.39380 0.55760 0.05680 -0.52600
O 	O 	0.49920 0.44240 0.83620 -0.52800
O 	O 	0.60620 0.66300 0.16380 -0.53000
O 	O 	0.44240 0.83620 0.49920 -0.52800
O 	O 	0.66300 0.16380 0.60620 -0.53000
O 	O 	0.33700 0.94320 0.50080 -0.50900
O 	O 	0.55760 0.05680 0.39380 -0.52600
O 	O 	0.05680 0.39380 0.55760 -0.52700
O 	O 	0.94320 0.50080 0.33700 -0.50900
O 	O 	0.16380 0.60620 0.66300 -0.53000
O 	O 	0.83620 0.49920 0.44240 -0.52800
O 	O 	0.33700 0.50080 0.94320 -0.50800
O 	O 	0.55760 0.39380 0.05680 -0.52600
O 	O 	0.44240 0.49920 0.83620 -0.52800
O 	O 	0.66300 0.60620 0.16380 -0.53000
O 	O 	0.83620 0.44240 0.49920 -0.52800
O 	O 	0.16380 0.66300 0.60620 -0.53000
O 	O 	0.94320 0.33700 0.50080 -0.51000
O 	O 	0.05680 0.55760 0.39380 -0.52600
O 	O 	0.39380 0.05680 0.55760 -0.52600
O 	O 	0.50080 0.94320 0.33700 -0.50900
O 	O 	0.60620 0.16380 0.66300 -0.53000
O 	O 	0.49920 0.83620 0.44240 -0.52800
O 	O 	0.49920 0.66300 0.05680 -0.52500
O 	O 	0.60620 0.44240 0.94320 -0.50800
O 	O 	0.50080 0.55760 0.16380 -0.53100
O 	O 	0.39380 0.33700 0.83620 -0.52800
O 	O 	0.55760 0.16380 0.50080 -0.53100
O 	O 	0.33700 0.83620 0.39380 -0.52800
O 	O 	0.66300 0.05680 0.49920 -0.52300
O 	O 	0.44240 0.94320 0.60620 -0.50900
O 	O 	0.94320 0.60620 0.44240 -0.50800
O 	O 	0.05680 0.49920 0.66300 -0.52600
O 	O 	0.83620 0.39380 0.33700 -0.52800
O 	O 	0.16380 0.50080 0.55760 -0.53100
