data_crystal

_cell_length_a 10.76470
_cell_length_b 10.76470
_cell_length_c 26.75780
_cell_angle_alpha 90.00000
_cell_angle_beta  90.00000
_cell_angle_gamma 120.00000

_symmetry_space_group_name_	'P 1'
_symmetry_space_group_name_H-M	'P 1'

loop_
_symmetry_equiv_pos_as_xyz
  x,y,z

loop_
_atom_site_label
_atom_site_type_symbol
_atom_site_fract_x
_atom_site_fract_y
_atom_site_fract_z
_atom_site_charge
Ni	Ni	0.21877 0.05108 0.86668 1.10400
Ni	Ni	0.83231 0.78123 0.20001 1.10100
Ni	Ni	0.94892 0.16769 0.53335 1.10500
Ni	Ni	0.16769 0.94892 0.13332 1.09400
Ni	Ni	0.05108 0.21877 0.79999 1.09800
Ni	Ni	0.78123 0.83231 0.46665 1.09800
H 	H 	0.01500 0.46720 0.82890 0.01900
H 	H 	0.30440 0.81700 0.75700 0.04100
H 	H 	0.20580 0.42520 0.71160 0.01300
H 	H 	0.52140 0.87290 0.72360 0.10400
H 	H 	0.68680 0.97720 0.66090 0.00700
H 	H 	0.44600 0.64520 0.57100 0.02800
H 	H 	0.27840 0.53900 0.63400 0.08400
H 	H 	0.45220 0.98500 0.16223 0.02000
H 	H 	0.51260 0.69560 0.09033 0.04400
H 	H 	0.21940 0.79420 0.04493 0.01100
H 	H 	0.35150 0.47860 0.05693 0.10800
H 	H 	0.29040 0.31320 0.99423 0.01000
H 	H 	0.19920 0.55400 0.90433 0.02600
H 	H 	0.26060 0.72160 0.96733 0.08400
H 	H 	0.53280 0.54780 0.49557 0.02400
H 	H 	0.18300 0.48740 0.42367 0.04200
H 	H 	0.57480 0.78060 0.37827 0.01200
H 	H 	0.12710 0.64850 0.39027 0.10400
H 	H 	0.02280 0.70960 0.32757 0.00400
H 	H 	0.35480 0.80080 0.23767 0.02700
H 	H 	0.46100 0.73940 0.30067 0.08500
H 	H 	0.54780 0.53280 0.17110 0.02400
H 	H 	0.48740 0.18300 0.24300 0.04800
H 	H 	0.78060 0.57480 0.28840 0.01600
H 	H 	0.64850 0.12710 0.27640 0.11500
H 	H 	0.70960 0.02280 0.33910 0.01400
H 	H 	0.80080 0.35480 0.42900 0.02600
H 	H 	0.73940 0.46100 0.36600 0.08900
H 	H 	0.46720 0.01500 0.83777 0.02900
H 	H 	0.81700 0.30440 0.90967 0.04900
H 	H 	0.42520 0.20580 0.95507 0.01500
H 	H 	0.87290 0.52140 0.94307 0.11400
H 	H 	0.97720 0.68680 0.00577 0.01200
H 	H 	0.64520 0.44600 0.09567 0.02500
H 	H 	0.53900 0.27840 0.03267 0.09100
H 	H 	0.98500 0.45220 0.50443 0.02800
H 	H 	0.69560 0.51260 0.57633 0.04500
H 	H 	0.79420 0.21940 0.62173 0.01700
H 	H 	0.47860 0.35150 0.60973 0.10900
H 	H 	0.31320 0.29040 0.67243 0.00800
H 	H 	0.55400 0.19920 0.76233 0.02700
H 	H 	0.72160 0.26060 0.69933 0.09000
C 	C 	0.08120 0.50880 0.80309 0.07200
C 	C 	0.15310 0.65570 0.79860 -0.10800
C 	C 	0.25210 0.71770 0.76023 0.02100
C 	C 	0.27320 0.63190 0.72667 -0.06000
C 	C 	0.19400 0.48420 0.73419 0.04100
C 	C 	0.37990 0.69500 0.68532 0.10800
C 	C 	0.50500 0.82710 0.69281 -0.16400
C 	C 	0.60400 0.88980 0.65508 0.08800
C 	C 	0.58300 0.82560 0.60863 -0.14500
C 	C 	0.46050 0.69190 0.60152 0.07400
C 	C 	0.35980 0.62770 0.63945 -0.15000
C 	C 	0.13080 0.74900 0.83603 0.35300
C 	C 	0.68900 0.89807 0.56698 0.38700
C 	C 	0.42760 0.91880 0.13642 0.07200
C 	C 	0.50260 0.84690 0.13193 -0.10600
C 	C 	0.46560 0.74790 0.09356 0.02100
C 	C 	0.35870 0.72680 0.06000 -0.06000
C 	C 	0.29020 0.80600 0.06752 0.04100
C 	C 	0.31510 0.62010 0.01865 0.11000
C 	C 	0.32210 0.49500 0.02614 -0.16600
C 	C 	0.28580 0.39600 0.98841 0.09400
C 	C 	0.24260 0.41700 0.94196 -0.15100
C 	C 	0.23140 0.53950 0.93485 0.07800
C 	C 	0.26790 0.64020 0.97278 -0.15300
C 	C 	0.61820 0.86920 0.16936 0.35200
C 	C 	0.20907 0.31100 0.90031 0.40700
C 	C 	0.49120 0.57240 0.46976 0.07200
C 	C 	0.34430 0.49740 0.46527 -0.10500
C 	C 	0.28230 0.53440 0.42690 0.02100
C 	C 	0.36810 0.64130 0.39334 -0.06000
C 	C 	0.51580 0.70980 0.40086 0.04200
C 	C 	0.30500 0.68490 0.35199 0.10800
C 	C 	0.17290 0.67790 0.35948 -0.16600
C 	C 	0.11020 0.71420 0.32175 0.08900
C 	C 	0.17440 0.75740 0.27530 -0.14700
C 	C 	0.30810 0.76860 0.26819 0.07500
C 	C 	0.37230 0.73210 0.30612 -0.15200
C 	C 	0.25100 0.38180 0.50270 0.35200
C 	C 	0.10193 0.79093 0.23365 0.38700
C 	C 	0.57240 0.49120 0.19691 0.07100
C 	C 	0.49740 0.34430 0.20140 -0.10100
C 	C 	0.53440 0.28230 0.23977 0.02000
C 	C 	0.64130 0.36810 0.27333 -0.05700
C 	C 	0.70980 0.51580 0.26581 0.04300
C 	C 	0.68490 0.30500 0.31468 0.11600
C 	C 	0.67790 0.17290 0.30719 -0.16900
C 	C 	0.71420 0.11020 0.34492 0.10300
C 	C 	0.75740 0.17440 0.39137 -0.15500
C 	C 	0.76860 0.30810 0.39848 0.08700
C 	C 	0.73210 0.37230 0.36055 -0.15500
C 	C 	0.38180 0.25100 0.16397 0.35000
C 	C 	0.79093 0.10193 0.43302 0.43100
C 	C 	0.50880 0.08120 0.86358 0.07100
C 	C 	0.65570 0.15310 0.86807 -0.09800
C 	C 	0.71770 0.25210 0.90644 0.02000
C 	C 	0.63190 0.27320 0.94000 -0.05700
C 	C 	0.48420 0.19400 0.93248 0.04300
C 	C 	0.69500 0.37990 0.98135 0.11600
C 	C 	0.82710 0.50500 0.97386 -0.17100
C 	C 	0.88980 0.60400 0.01159 0.10400
C 	C 	0.82560 0.58300 0.05804 -0.15700
C 	C 	0.69190 0.46050 0.06515 0.08800
C 	C 	0.62770 0.35980 0.02722 -0.15600
C 	C 	0.74900 0.13080 0.83064 0.34900
C 	C 	0.89807 0.68900 0.09969 0.43000
C 	C 	0.91880 0.42760 0.53024 0.07200
C 	C 	0.84690 0.50260 0.53473 -0.10200
C 	C 	0.74790 0.46560 0.57310 0.02000
C 	C 	0.72680 0.35870 0.60666 -0.05700
C 	C 	0.80600 0.29020 0.59914 0.04300
C 	C 	0.62010 0.31510 0.64801 0.11400
C 	C 	0.49500 0.32210 0.64052 -0.16800
C 	C 	0.39600 0.28580 0.67825 0.09700
C 	C 	0.41700 0.24260 0.72470 -0.15100
C 	C 	0.53950 0.23140 0.73181 0.08300
C 	C 	0.64020 0.26790 0.69388 -0.15300
C 	C 	0.86920 0.61820 0.49730 0.35000
C 	C 	0.31100 0.20907 0.76635 0.41000
N 	N 	0.10158 0.42210 0.77219 -0.21700
N 	N 	0.32052 0.89842 0.10552 -0.21700
N 	N 	0.57790 0.67948 0.43886 -0.21500
N 	N 	0.67948 0.57790 0.22781 -0.21400
N 	N 	0.42210 0.10158 0.89448 -0.21200
N 	N 	0.89842 0.32052 0.56114 -0.21200
O 	O 	0.05270 0.68716 0.87253 -0.29900
O 	O 	0.19686 0.88012 0.82663 -0.41500
O 	O 	0.79576 0.01674 0.57711 -0.42900
O 	O 	0.66159 0.83424 0.52546 -0.41600
O 	O 	0.63446 0.94730 0.20586 -0.29500
O 	O 	0.68326 0.80314 0.15996 -0.40600
O 	O 	0.22098 0.20424 0.91044 -0.44700
O 	O 	0.17265 0.33841 0.85879 -0.41900
O 	O 	0.31284 0.36554 0.53920 -0.29200
O 	O 	0.11988 0.31674 0.49330 -0.41300
O 	O 	0.98326 0.77902 0.24378 -0.43300
O 	O 	0.16576 0.82735 0.19213 -0.41800
O 	O 	0.36554 0.31284 0.12747 -0.28900
O 	O 	0.31674 0.11988 0.17337 -0.39700
O 	O 	0.77902 0.98326 0.42289 -0.46600
O 	O 	0.82735 0.16576 0.47454 -0.41900
O 	O 	0.68716 0.05270 0.79414 -0.28200
O 	O 	0.88012 0.19686 0.84004 -0.39400
O 	O 	0.01674 0.79576 0.08956 -0.46800
O 	O 	0.83424 0.66159 0.14121 -0.42000
O 	O 	0.94730 0.63446 0.46080 -0.28700
O 	O 	0.80314 0.68326 0.50670 -0.40600
O 	O 	0.20424 0.22098 0.75622 -0.44800
O 	O 	0.33841 0.17265 0.80787 -0.41600
O 	O 	0.02371 0.02371 0.83333 -0.38000
O 	O 	1.00000 0.97629 0.16667 -0.37700
O 	O 	0.97629 -0.00000 0.50000 -0.36600
