data_crystal

_cell_length_a 17.12380
_cell_length_b 20.11500
_cell_length_c 27.12910
_cell_angle_alpha 90.00000
_cell_angle_beta  90.00000
_cell_angle_gamma 90.00000

_symmetry_space_group_name_	'P 1'
_symmetry_space_group_name_H-M	'P 1'

loop_
_symmetry_equiv_pos_as_xyz
  x,y,z

loop_
_atom_site_label
_atom_site_type_symbol
_atom_site_fract_x
_atom_site_fract_y
_atom_site_fract_z
_atom_site_charge
Zn	Zn	0.26005 0.82862 0.59043 1.21700
Zn	Zn	0.23995 0.17138 0.09043 1.21700
Zn	Zn	0.26005 0.67138 0.59043 1.21700
Zn	Zn	0.23995 0.32862 0.09043 1.21700
Zn	Zn	0.38628 0.75000 0.64912 1.21400
Zn	Zn	0.39455 0.75000 0.53265 1.21000
Zn	Zn	0.11372 0.25000 0.14912 1.21400
Zn	Zn	0.10545 0.25000 0.03265 1.21000
H 	H 	0.21370 0.97100 0.47860 0.06300
H 	H 	0.34900 0.85120 0.40300 0.05000
H 	H 	0.31550 0.90480 0.33210 0.02400
H 	H 	0.14100 0.05710 0.33850 0.14600
H 	H 	0.31550 0.97730 0.27480 0.14800
H 	H 	0.12450 0.12560 0.27230 -0.04700
H 	H 	0.28190 0.02710 0.20380 -0.05000
H 	H 	0.88260 0.84710 0.60330 0.07400
H 	H 	0.01500 0.84580 0.59960 0.00800
H 	H 	0.28630 0.02900 0.97860 0.06200
H 	H 	0.15100 0.14880 0.90300 0.04900
H 	H 	0.18450 0.09520 0.83210 0.02300
H 	H 	0.35900 0.94290 0.83850 0.14500
H 	H 	0.18450 0.02270 0.77480 0.14900
H 	H 	0.37550 0.87440 0.77230 -0.04700
H 	H 	0.21810 0.97290 0.70380 -0.05000
H 	H 	0.61740 0.15290 0.10330 0.07200
H 	H 	0.48500 0.15420 0.09960 0.01000
H 	H 	0.21370 0.52900 0.47860 0.06200
H 	H 	0.34900 0.64880 0.40300 0.04900
H 	H 	0.31550 0.59520 0.33210 0.02300
H 	H 	0.14100 0.44290 0.33850 0.14500
H 	H 	0.31550 0.52270 0.27480 0.14800
H 	H 	0.12450 0.37440 0.27230 -0.04700
H 	H 	0.28190 0.47290 0.20380 -0.05000
H 	H 	0.88260 0.65290 0.60330 0.07400
H 	H 	0.01500 0.65420 0.59960 0.00800
H 	H 	0.28630 0.47100 0.97860 0.06200
H 	H 	0.15100 0.35120 0.90300 0.04900
H 	H 	0.18450 0.40480 0.83210 0.02300
H 	H 	0.35900 0.55710 0.83850 0.14500
H 	H 	0.18450 0.47730 0.77480 0.14800
H 	H 	0.37550 0.62560 0.77230 -0.04700
H 	H 	0.21810 0.52710 0.70380 -0.05000
H 	H 	0.61740 0.34710 0.10330 0.07200
H 	H 	0.48500 0.34580 0.09960 0.01000
H 	H 	0.63740 0.75000 0.67310 -0.01700
H 	H 	0.62230 0.75000 0.52870 -0.01300
H 	H 	0.76410 0.75000 0.53190 0.09900
H 	H 	0.76750 0.75000 0.66740 0.12000
H 	H 	0.86260 0.25000 0.17310 -0.01900
H 	H 	0.87770 0.25000 0.02870 -0.01500
H 	H 	0.73590 0.25000 0.03190 0.10100
H 	H 	0.73250 0.25000 0.16740 0.12200
C 	C 	0.29790 0.86500 0.49420 0.38200
C 	C 	0.28690 0.90660 0.44870 -0.07000
C 	C 	0.23790 0.95820 0.44950 -0.04800
C 	C 	0.31590 0.88770 0.40460 -0.03500
C 	C 	0.29760 0.92120 0.36210 0.00100
C 	C 	0.22340 0.99330 0.40450 0.03200
C 	C 	0.25470 0.97700 0.36250 -0.11200
C 	C 	0.23770 0.01470 0.31720 0.26900
C 	C 	0.17710 0.05530 0.31290 -0.33500
C 	C 	0.27440 0.00750 0.27550 -0.34800
C 	C 	0.16530 0.09510 0.27170 0.27800
C 	C 	0.25830 0.04020 0.23310 0.27100
C 	C 	0.20780 0.09180 0.23330 -0.32900
C 	C 	0.19170 0.13120 0.18830 0.47400
C 	C 	0.90810 0.80650 0.60060 -0.13300
C 	C 	0.98810 0.80570 0.59850 0.10600
C 	C 	0.20210 0.13500 0.99420 0.38200
C 	C 	0.21310 0.09340 0.94870 -0.07000
C 	C 	0.26210 0.04180 0.94950 -0.04800
C 	C 	0.18410 0.11230 0.90460 -0.03500
C 	C 	0.20240 0.07880 0.86210 0.00100
C 	C 	0.27660 0.00670 0.90450 0.03200
C 	C 	0.24530 0.02300 0.86250 -0.11200
C 	C 	0.26230 0.98530 0.81720 0.26900
C 	C 	0.32290 0.94470 0.81290 -0.33500
C 	C 	0.22560 0.99250 0.77550 -0.34900
C 	C 	0.33470 0.90490 0.77170 0.27800
C 	C 	0.24170 0.95980 0.73310 0.27100
C 	C 	0.29220 0.90820 0.73330 -0.33000
C 	C 	0.30830 0.86880 0.68830 0.47400
C 	C 	0.59190 0.19350 0.10060 -0.12700
C 	C 	0.51190 0.19430 0.09850 0.09900
C 	C 	0.29790 0.63500 0.49420 0.38200
C 	C 	0.28690 0.59340 0.44870 -0.07000
C 	C 	0.23790 0.54180 0.44950 -0.04800
C 	C 	0.31590 0.61230 0.40460 -0.03500
C 	C 	0.29760 0.57880 0.36210 0.00100
C 	C 	0.22340 0.50670 0.40450 0.03200
C 	C 	0.25470 0.52300 0.36250 -0.11200
C 	C 	0.23770 0.48530 0.31720 0.26800
C 	C 	0.17710 0.44470 0.31290 -0.33500
C 	C 	0.27440 0.49250 0.27550 -0.34700
C 	C 	0.16530 0.40490 0.27170 0.27700
C 	C 	0.25830 0.45980 0.23310 0.27100
C 	C 	0.20780 0.40820 0.23330 -0.32900
C 	C 	0.19170 0.36880 0.18830 0.47400
C 	C 	0.90810 0.69350 0.60060 -0.13300
C 	C 	0.98810 0.69430 0.59850 0.10500
C 	C 	0.20210 0.36500 0.99420 0.38200
C 	C 	0.21310 0.40660 0.94870 -0.07000
C 	C 	0.26210 0.45820 0.94950 -0.04800
C 	C 	0.18410 0.38770 0.90460 -0.03500
C 	C 	0.20240 0.42120 0.86210 0.00100
C 	C 	0.27660 0.49330 0.90450 0.03200
C 	C 	0.24530 0.47700 0.86250 -0.11200
C 	C 	0.26230 0.51470 0.81720 0.26800
C 	C 	0.32290 0.55530 0.81290 -0.33500
C 	C 	0.22560 0.50750 0.77550 -0.34700
C 	C 	0.33470 0.59510 0.77170 0.27700
C 	C 	0.24170 0.54020 0.73310 0.27100
C 	C 	0.29220 0.59180 0.73330 -0.32900
C 	C 	0.30830 0.63120 0.68830 0.47400
C 	C 	0.59190 0.30650 0.10060 -0.12700
C 	C 	0.51190 0.30570 0.09850 0.09900
C 	C 	0.52900 0.75000 0.60430 0.47000
C 	C 	0.61880 0.75000 0.60150 -0.23100
C 	C 	0.66110 0.75000 0.64230 0.18300
C 	C 	0.65010 0.75000 0.55810 0.13900
C 	C 	0.73780 0.75000 0.56190 -0.20500
C 	C 	0.73970 0.75000 0.63790 -0.24600
C 	C 	0.78050 0.75000 0.59910 0.16000
C 	C 	0.86500 0.75000 0.59900 0.02200
C 	C 	0.02820 0.75000 0.59480 -0.20400
C 	C 	0.11530 0.75000 0.59410 0.48400
C 	C 	0.97100 0.25000 0.10430 0.47100
C 	C 	0.88120 0.25000 0.10150 -0.23500
C 	C 	0.83890 0.25000 0.14230 0.18900
C 	C 	0.84990 0.25000 0.05810 0.14300
C 	C 	0.76220 0.25000 0.06190 -0.21000
C 	C 	0.76030 0.25000 0.13790 -0.25300
C 	C 	0.71950 0.25000 0.09910 0.16700
C 	C 	0.63500 0.25000 0.09900 0.01500
C 	C 	0.47180 0.25000 0.09480 -0.19800
C 	C 	0.38470 0.25000 0.09410 0.48200
O 	O 	0.26400 0.88380 0.53249 -0.49900
O 	O 	0.35300 0.82390 0.49290 -0.51700
O 	O 	0.23160 0.12020 0.15008 -0.52800
O 	O 	0.14130 0.17610 0.19294 -0.51700
O 	O 	0.14830 0.80380 0.59280 -0.52400
O 	O 	0.23600 0.11620 0.03249 -0.49900
O 	O 	0.14700 0.17610 0.99290 -0.51700
O 	O 	0.26840 0.87980 0.65008 -0.52800
O 	O 	0.35870 0.82390 0.69294 -0.51700
O 	O 	0.35170 0.19620 0.09280 -0.52300
O 	O 	0.26400 0.61620 0.53249 -0.49900
O 	O 	0.35300 0.67610 0.49290 -0.51700
O 	O 	0.23160 0.37980 0.15008 -0.52800
O 	O 	0.14130 0.32390 0.19294 -0.51700
O 	O 	0.14830 0.69620 0.59280 -0.52300
O 	O 	0.23600 0.38380 0.03249 -0.49900
O 	O 	0.14700 0.32390 0.99290 -0.51700
O 	O 	0.26840 0.62020 0.65008 -0.52800
O 	O 	0.35870 0.67610 0.69294 -0.51700
O 	O 	0.35170 0.30380 0.09280 -0.52300
O 	O 	0.49830 0.75000 0.64460 -0.53200
O 	O 	0.49460 0.75000 0.56350 -0.57900
O 	O 	0.32340 0.75000 0.59054 -0.96500
O 	O 	0.00170 0.25000 0.14460 -0.53200
O 	O 	0.00540 0.25000 0.06350 -0.57900
O 	O 	0.17660 0.25000 0.09054 -0.96500
Zn	Zn	0.73995 0.32862 0.40957 1.21600
Zn	Zn	0.76005 0.67138 0.90957 1.21600
Zn	Zn	0.73995 0.17138 0.40957 1.21600
Zn	Zn	0.76005 0.82862 0.90957 1.21600
Zn	Zn	0.61372 0.25000 0.35088 1.21300
Zn	Zn	0.60545 0.25000 0.46735 1.20900
Zn	Zn	0.88628 0.75000 0.85088 1.21300
Zn	Zn	0.89455 0.75000 0.96735 1.20900
H 	H 	0.78630 0.47100 0.52140 0.06200
H 	H 	0.65100 0.35120 0.59700 0.04900
H 	H 	0.68450 0.40480 0.66790 0.02300
H 	H 	0.85900 0.55710 0.66150 0.14500
H 	H 	0.68450 0.47730 0.72520 0.14800
H 	H 	0.87550 0.62560 0.72770 -0.04700
H 	H 	0.71810 0.52710 0.79620 -0.05000
H 	H 	0.11740 0.34710 0.39670 0.07400
H 	H 	0.98500 0.34580 0.40040 0.00800
H 	H 	0.71370 0.52900 0.02140 0.06200
H 	H 	0.84900 0.64880 0.09700 0.04900
H 	H 	0.81550 0.59520 0.16790 0.02300
H 	H 	0.64100 0.44290 0.16150 0.14500
H 	H 	0.81550 0.52270 0.22520 0.14800
H 	H 	0.62450 0.37440 0.22770 -0.04700
H 	H 	0.78190 0.47290 0.29620 -0.05000
H 	H 	0.38260 0.65290 0.89670 0.07200
H 	H 	0.51500 0.65420 0.90040 0.01000
H 	H 	0.78630 0.02900 0.52140 0.06200
H 	H 	0.65100 0.14880 0.59700 0.04900
H 	H 	0.68450 0.09520 0.66790 0.02300
H 	H 	0.85900 0.94290 0.66150 0.14500
H 	H 	0.68450 0.02270 0.72520 0.14800
H 	H 	0.87550 0.87440 0.72770 -0.04700
H 	H 	0.71810 0.97290 0.79620 -0.05000
H 	H 	0.11740 0.15290 0.39670 0.07400
H 	H 	0.98500 0.15420 0.40040 0.00800
H 	H 	0.71370 0.97100 0.02140 0.06200
H 	H 	0.84900 0.85120 0.09700 0.04900
H 	H 	0.81550 0.90480 0.16790 0.02300
H 	H 	0.64100 0.05710 0.16150 0.14500
H 	H 	0.81550 0.97730 0.22520 0.14900
H 	H 	0.62450 0.12560 0.22770 -0.04700
H 	H 	0.78190 0.02710 0.29620 -0.05000
H 	H 	0.38260 0.84710 0.89670 0.07200
H 	H 	0.51500 0.84580 0.90040 0.01000
H 	H 	0.36260 0.25000 0.32690 -0.01700
H 	H 	0.37770 0.25000 0.47130 -0.01300
H 	H 	0.23590 0.25000 0.46810 0.09900
H 	H 	0.23250 0.25000 0.33260 0.12000
H 	H 	0.13740 0.75000 0.82690 -0.01900
H 	H 	0.12230 0.75000 0.97130 -0.01500
H 	H 	0.26410 0.75000 0.96810 0.10100
H 	H 	0.26750 0.75000 0.83260 0.12200
C 	C 	0.70210 0.36500 0.50580 0.38200
C 	C 	0.71310 0.40660 0.55130 -0.07000
C 	C 	0.76210 0.45820 0.55050 -0.04800
C 	C 	0.68410 0.38770 0.59540 -0.03500
C 	C 	0.70240 0.42120 0.63790 0.00100
C 	C 	0.77660 0.49330 0.59550 0.03200
C 	C 	0.74530 0.47700 0.63750 -0.11200
C 	C 	0.76230 0.51470 0.68280 0.26800
C 	C 	0.82290 0.55530 0.68710 -0.33500
C 	C 	0.72560 0.50750 0.72450 -0.34700
C 	C 	0.83470 0.59510 0.72830 0.27700
C 	C 	0.74170 0.54020 0.76690 0.27100
C 	C 	0.79220 0.59180 0.76670 -0.32900
C 	C 	0.80830 0.63120 0.81170 0.47400
C 	C 	0.09190 0.30650 0.39940 -0.13300
C 	C 	0.01190 0.30570 0.40150 0.10500
C 	C 	0.79790 0.63500 0.00580 0.38200
C 	C 	0.78690 0.59340 0.05130 -0.07000
C 	C 	0.73790 0.54180 0.05050 -0.04800
C 	C 	0.81590 0.61230 0.09540 -0.03500
C 	C 	0.79760 0.57880 0.13790 0.00100
C 	C 	0.72340 0.50670 0.09550 0.03200
C 	C 	0.75470 0.52300 0.13750 -0.11200
C 	C 	0.73770 0.48530 0.18280 0.26800
C 	C 	0.67710 0.44470 0.18710 -0.33500
C 	C 	0.77440 0.49250 0.22450 -0.34700
C 	C 	0.66530 0.40490 0.22830 0.27700
C 	C 	0.75830 0.45980 0.26690 0.27100
C 	C 	0.70780 0.40820 0.26670 -0.32900
C 	C 	0.69170 0.36880 0.31170 0.47400
C 	C 	0.40810 0.69350 0.89940 -0.12700
C 	C 	0.48810 0.69430 0.90150 0.09900
C 	C 	0.70210 0.13500 0.50580 0.38200
C 	C 	0.71310 0.09340 0.55130 -0.07000
C 	C 	0.76210 0.04180 0.55050 -0.04800
C 	C 	0.68410 0.11230 0.59540 -0.03500
C 	C 	0.70240 0.07880 0.63790 0.00100
C 	C 	0.77660 0.00670 0.59550 0.03200
C 	C 	0.74530 0.02300 0.63750 -0.11200
C 	C 	0.76230 0.98530 0.68280 0.26900
C 	C 	0.82290 0.94470 0.68710 -0.33500
C 	C 	0.72560 0.99250 0.72450 -0.34800
C 	C 	0.83470 0.90490 0.72830 0.27800
C 	C 	0.74170 0.95980 0.76690 0.27100
C 	C 	0.79220 0.90820 0.76670 -0.32900
C 	C 	0.80830 0.86880 0.81170 0.47400
C 	C 	0.09190 0.19350 0.39940 -0.13300
C 	C 	0.01190 0.19430 0.40150 0.10600
C 	C 	0.79790 0.86500 0.00580 0.38200
C 	C 	0.78690 0.90660 0.05130 -0.07000
C 	C 	0.73790 0.95820 0.05050 -0.04800
C 	C 	0.81590 0.88770 0.09540 -0.03500
C 	C 	0.79760 0.92120 0.13790 0.00100
C 	C 	0.72340 0.99330 0.09550 0.03200
C 	C 	0.75470 0.97700 0.13750 -0.11200
C 	C 	0.73770 0.01470 0.18280 0.26900
C 	C 	0.67710 0.05530 0.18710 -0.33500
C 	C 	0.77440 0.00750 0.22450 -0.34900
C 	C 	0.66530 0.09510 0.22830 0.27800
C 	C 	0.75830 0.04020 0.26690 0.27100
C 	C 	0.70780 0.09180 0.26670 -0.33000
C 	C 	0.69170 0.13120 0.31170 0.47400
C 	C 	0.40810 0.80650 0.89940 -0.12700
C 	C 	0.48810 0.80570 0.90150 0.09900
C 	C 	0.47100 0.25000 0.39570 0.47000
C 	C 	0.38120 0.25000 0.39850 -0.23100
C 	C 	0.33890 0.25000 0.35770 0.18300
C 	C 	0.34990 0.25000 0.44190 0.13900
C 	C 	0.26220 0.25000 0.43810 -0.20500
C 	C 	0.26030 0.25000 0.36210 -0.24600
C 	C 	0.21950 0.25000 0.40090 0.16000
C 	C 	0.13500 0.25000 0.40100 0.02200
C 	C 	0.97180 0.25000 0.40520 -0.20400
C 	C 	0.88470 0.25000 0.40590 0.48400
C 	C 	0.02900 0.75000 0.89570 0.47100
C 	C 	0.11880 0.75000 0.89850 -0.23500
C 	C 	0.16110 0.75000 0.85770 0.18900
C 	C 	0.15010 0.75000 0.94190 0.14300
C 	C 	0.23780 0.75000 0.93810 -0.21000
C 	C 	0.23970 0.75000 0.86210 -0.25300
C 	C 	0.28050 0.75000 0.90090 0.16700
C 	C 	0.36500 0.75000 0.90100 0.01500
C 	C 	0.52820 0.75000 0.90520 -0.19800
C 	C 	0.61530 0.75000 0.90590 0.48200
O 	O 	0.73600 0.38380 0.46751 -0.49900
O 	O 	0.64700 0.32390 0.50710 -0.51700
O 	O 	0.76840 0.62020 0.84992 -0.52800
O 	O 	0.85870 0.67610 0.80706 -0.51700
O 	O 	0.85170 0.30380 0.40720 -0.52300
O 	O 	0.76400 0.61620 0.96751 -0.49900
O 	O 	0.85300 0.67610 0.00710 -0.51700
O 	O 	0.73160 0.37980 0.34992 -0.52800
O 	O 	0.64130 0.32390 0.30706 -0.51700
O 	O 	0.64830 0.69620 0.90720 -0.52300
O 	O 	0.73600 0.11620 0.46751 -0.49900
O 	O 	0.64700 0.17610 0.50710 -0.51700
O 	O 	0.76840 0.87980 0.84992 -0.52800
O 	O 	0.85870 0.82390 0.80706 -0.51700
O 	O 	0.85170 0.19620 0.40720 -0.52400
O 	O 	0.76400 0.88380 0.96751 -0.49900
O 	O 	0.85300 0.82390 0.00710 -0.51700
O 	O 	0.73160 0.12020 0.34992 -0.52800
O 	O 	0.64130 0.17610 0.30706 -0.51700
O 	O 	0.64830 0.80380 0.90720 -0.52300
O 	O 	0.50170 0.25000 0.35540 -0.53200
O 	O 	0.50540 0.25000 0.43650 -0.57900
O 	O 	0.67660 0.25000 0.40946 -0.96500
O 	O 	0.99830 0.75000 0.85540 -0.53200
O 	O 	0.99460 0.75000 0.93650 -0.57900
O 	O 	0.82340 0.75000 0.90946 -0.96500
