data_crystal

_cell_length_a 8.43800
_cell_length_b 15.93400
_cell_length_c 27.79500
_cell_angle_alpha 90.00000
_cell_angle_beta  90.00000
_cell_angle_gamma 90.00000

_symmetry_space_group_name_	'P 1'
_symmetry_space_group_name_H-M	'P 1'

loop_
_symmetry_equiv_pos_as_xyz
  x,y,z

loop_
_atom_site_label
_atom_site_type_symbol
_atom_site_fract_x
_atom_site_fract_y
_atom_site_fract_z
_atom_site_charge
Er	Er	0.52312 0.69889 0.91868 1.86900
Er	Er	0.97688 0.19889 0.08132 1.85100
Er	Er	0.47688 0.30111 0.41868 1.86900
Er	Er	0.02312 0.80111 0.58132 1.85300
Er	Er	0.47688 0.30111 0.08132 1.86900
Er	Er	0.02312 0.80111 0.91868 1.85100
Er	Er	0.52312 0.69889 0.58132 1.86900
Er	Er	0.97688 0.19889 0.41868 1.85300
H 	H 	0.59520 0.81700 0.04400 0.00700
H 	H 	0.22670 0.97480 0.02300 -0.00900
H 	H 	0.60030 0.03830 0.10580 -0.00600
H 	H 	0.18400 0.90630 0.82080 -0.02000
H 	H 	0.90480 0.31700 0.95600 0.00600
H 	H 	0.27330 0.47480 0.97700 -0.01100
H 	H 	0.89970 0.53830 0.89420 -0.00700
H 	H 	0.31600 0.40630 0.17920 -0.01900
H 	H 	0.40480 0.18300 0.54400 0.00600
H 	H 	0.77330 0.02520 0.52300 -0.01100
H 	H 	0.39970 0.96170 0.60580 -0.00700
H 	H 	0.81600 0.09370 0.32080 -0.02100
H 	H 	0.09520 0.68300 0.45600 0.00600
H 	H 	0.72670 0.52520 0.47700 -0.01100
H 	H 	0.10030 0.46170 0.39420 -0.00700
H 	H 	0.68400 0.59370 0.67920 -0.01900
H 	H 	0.40480 0.18300 0.95600 0.00600
H 	H 	0.77330 0.02520 0.97700 -0.01000
H 	H 	0.39970 0.96170 0.89420 -0.00700
H 	H 	0.81600 0.09370 0.17920 -0.02100
H 	H 	0.09520 0.68300 0.04400 0.00500
H 	H 	0.72670 0.52520 0.02300 -0.01200
H 	H 	0.10030 0.46170 0.10580 -0.00700
H 	H 	0.68400 0.59370 0.82080 -0.01900
H 	H 	0.59520 0.81700 0.45600 0.00600
H 	H 	0.22670 0.97480 0.47700 -0.01100
H 	H 	0.60030 0.03830 0.39420 -0.00700
H 	H 	0.18400 0.90630 0.67920 -0.02100
H 	H 	0.90480 0.31700 0.54400 0.00600
H 	H 	0.27330 0.47480 0.52300 -0.01100
H 	H 	0.89970 0.53830 0.60580 -0.00700
H 	H 	0.31600 0.40630 0.32080 -0.01900
H 	H 	0.38920 0.71570 0.75000 0.00900
H 	H 	0.11080 0.21570 0.25000 0.01200
H 	H 	0.61080 0.28430 0.25000 0.00900
H 	H 	0.88920 0.78430 0.75000 0.01200
C 	C 	0.54570 0.86960 0.04970 0.13400
C 	C 	0.40000 0.88620 0.02760 -0.23200
C 	C 	0.32720 0.96240 0.03660 0.15900
C 	C 	0.40300 0.02060 0.06600 -0.22700
C 	C 	0.54800 0.99850 0.08590 0.13400
C 	C 	0.32790 0.82420 0.99480 0.51000
C 	C 	0.33310 0.10590 0.07410 0.51000
C 	C 	0.21160 0.88020 0.79120 0.13700
C 	C 	0.28960 0.80320 0.79280 -0.21300
C 	C 	0.33100 0.76580 0.83980 0.44500
C 	C 	0.95430 0.36960 0.95030 0.13800
C 	C 	0.10000 0.38620 0.97240 -0.23700
C 	C 	0.17280 0.46240 0.96340 0.16600
C 	C 	0.09700 0.52060 0.93400 -0.23700
C 	C 	0.95200 0.49850 0.91410 0.14200
C 	C 	0.17210 0.32420 0.00520 0.51300
C 	C 	0.16690 0.60590 0.92590 0.51300
C 	C 	0.28840 0.38020 0.20880 0.13800
C 	C 	0.21040 0.30320 0.20720 -0.21000
C 	C 	0.16900 0.26580 0.16020 0.44500
C 	C 	0.45430 0.13040 0.54970 0.13400
C 	C 	0.60000 0.11380 0.52760 -0.23200
C 	C 	0.67280 0.03760 0.53660 0.16000
C 	C 	0.59700 0.97940 0.56600 -0.22700
C 	C 	0.45200 0.00150 0.58590 0.13500
C 	C 	0.67210 0.17580 0.49480 0.51100
C 	C 	0.66690 0.89410 0.57410 0.51000
C 	C 	0.78840 0.11980 0.29120 0.13700
C 	C 	0.71040 0.19680 0.29280 -0.21300
C 	C 	0.66900 0.23420 0.33980 0.44500
C 	C 	0.04570 0.63040 0.45030 0.13500
C 	C 	0.90000 0.61380 0.47240 -0.23400
C 	C 	0.82720 0.53760 0.46340 0.16400
C 	C 	0.90300 0.47940 0.43400 -0.23500
C 	C 	0.04800 0.50150 0.41410 0.14000
C 	C 	0.82790 0.67580 0.50520 0.51100
C 	C 	0.83310 0.39410 0.42590 0.51200
C 	C 	0.71160 0.61980 0.70880 0.13800
C 	C 	0.78960 0.69680 0.70720 -0.21000
C 	C 	0.83100 0.73420 0.66020 0.44500
C 	C 	0.45430 0.13040 0.95030 0.13400
C 	C 	0.60000 0.11380 0.97240 -0.23200
C 	C 	0.67280 0.03760 0.96340 0.15900
C 	C 	0.59700 0.97940 0.93400 -0.22700
C 	C 	0.45200 0.00150 0.91410 0.13400
C 	C 	0.67210 0.17580 0.00520 0.51000
C 	C 	0.66690 0.89410 0.92590 0.51000
C 	C 	0.78840 0.11980 0.20880 0.13700
C 	C 	0.71040 0.19680 0.20720 -0.21300
C 	C 	0.66900 0.23420 0.16020 0.44500
C 	C 	0.04570 0.63040 0.04970 0.13800
C 	C 	0.90000 0.61380 0.02760 -0.23700
C 	C 	0.82720 0.53760 0.03660 0.16600
C 	C 	0.90300 0.47940 0.06600 -0.23700
C 	C 	0.04800 0.50150 0.08590 0.14200
C 	C 	0.82790 0.67580 0.99480 0.51300
C 	C 	0.83310 0.39410 0.07410 0.51300
C 	C 	0.71160 0.61980 0.79120 0.13800
C 	C 	0.78960 0.69680 0.79280 -0.21000
C 	C 	0.83100 0.73420 0.83980 0.44500
C 	C 	0.54570 0.86960 0.45030 0.13400
C 	C 	0.40000 0.88620 0.47240 -0.23200
C 	C 	0.32720 0.96240 0.46340 0.16000
C 	C 	0.40300 0.02060 0.43400 -0.22700
C 	C 	0.54800 0.99850 0.41410 0.13500
C 	C 	0.32790 0.82420 0.50520 0.51100
C 	C 	0.33310 0.10590 0.42590 0.51000
C 	C 	0.21160 0.88020 0.70880 0.13700
C 	C 	0.28960 0.80320 0.70720 -0.21300
C 	C 	0.33100 0.76580 0.66020 0.44500
C 	C 	0.95430 0.36960 0.54970 0.13500
C 	C 	0.10000 0.38620 0.52760 -0.23400
C 	C 	0.17280 0.46240 0.53660 0.16400
C 	C 	0.09700 0.52060 0.56600 -0.23500
C 	C 	0.95200 0.49850 0.58590 0.14000
C 	C 	0.17210 0.32420 0.49480 0.51100
C 	C 	0.16690 0.60590 0.57410 0.51200
C 	C 	0.28840 0.38020 0.29120 0.13800
C 	C 	0.21040 0.30320 0.29280 -0.21000
C 	C 	0.16900 0.26580 0.33980 0.44500
C 	C 	0.33110 0.76680 0.75000 0.14900
C 	C 	0.16890 0.26680 0.25000 0.14900
C 	C 	0.66890 0.23320 0.25000 0.14900
C 	C 	0.83110 0.73320 0.75000 0.14900
N 	N 	0.61800 0.92470 0.07850 -0.15400
N 	N 	0.88200 0.42470 0.92150 -0.15600
N 	N 	0.38200 0.07530 0.57850 -0.15400
N 	N 	0.11800 0.57530 0.42150 -0.15500
N 	N 	0.38200 0.07530 0.92150 -0.15400
N 	N 	0.11800 0.57530 0.07850 -0.15600
N 	N 	0.61800 0.92470 0.42150 -0.15400
N 	N 	0.88200 0.42470 0.57850 -0.15500
N 	N 	0.17300 0.91980 0.75000 -0.15200
N 	N 	0.32700 0.41980 0.25000 -0.14900
N 	N 	0.82700 0.08020 0.25000 -0.15200
N 	N 	0.67300 0.58020 0.75000 -0.14900
O 	O 	0.40800 0.75960 0.98460 -0.49300
O 	O 	0.19240 0.83880 0.97820 -0.51900
O 	O 	0.42380 0.16200 0.09000 -0.51000
O 	O 	0.18990 0.11530 0.06380 -0.51900
O 	O 	0.43510 0.70850 0.84090 -0.48200
O 	O 	0.26750 0.79210 0.87845 -0.52100
O 	O 	0.09200 0.25960 0.01540 -0.48900
O 	O 	0.30760 0.33880 0.02180 -0.52000
O 	O 	0.07620 0.66200 0.91000 -0.51200
O 	O 	0.31010 0.61530 0.93620 -0.52500
O 	O 	0.06490 0.20850 0.15910 -0.47400
O 	O 	0.23250 0.29210 0.12155 -0.52000
O 	O 	0.59200 0.24040 0.48460 -0.49300
O 	O 	0.80760 0.16120 0.47820 -0.51900
O 	O 	0.57620 0.83800 0.59000 -0.51000
O 	O 	0.81010 0.88470 0.56380 -0.51900
O 	O 	0.56490 0.29150 0.34090 -0.48200
O 	O 	0.73250 0.20790 0.37845 -0.52100
O 	O 	0.90800 0.74040 0.51540 -0.48900
O 	O 	0.69240 0.66120 0.52180 -0.52000
O 	O 	0.92380 0.33800 0.41000 -0.51200
O 	O 	0.68990 0.38470 0.43620 -0.52500
O 	O 	0.93510 0.79150 0.65910 -0.47500
O 	O 	0.76750 0.70790 0.62155 -0.52000
O 	O 	0.59200 0.24040 0.01540 -0.49300
O 	O 	0.80760 0.16120 0.02180 -0.51900
O 	O 	0.57620 0.83800 0.91000 -0.51000
O 	O 	0.81010 0.88470 0.93620 -0.51900
O 	O 	0.56490 0.29150 0.15910 -0.48200
O 	O 	0.73250 0.20790 0.12155 -0.52100
O 	O 	0.90800 0.74040 0.98460 -0.48900
O 	O 	0.69240 0.66120 0.97820 -0.52000
O 	O 	0.92380 0.33800 0.09000 -0.51200
O 	O 	0.68990 0.38470 0.06380 -0.52500
O 	O 	0.93510 0.79150 0.84090 -0.47400
O 	O 	0.76750 0.70790 0.87845 -0.52000
O 	O 	0.40800 0.75960 0.51540 -0.49300
O 	O 	0.19240 0.83880 0.52180 -0.51900
O 	O 	0.42380 0.16200 0.41000 -0.51000
O 	O 	0.18990 0.11530 0.43620 -0.51900
O 	O 	0.43510 0.70850 0.65910 -0.48200
O 	O 	0.26750 0.79210 0.62155 -0.52100
O 	O 	0.09200 0.25960 0.48460 -0.48900
O 	O 	0.30760 0.33880 0.47820 -0.52000
O 	O 	0.07620 0.66200 0.59000 -0.51200
O 	O 	0.31010 0.61530 0.56380 -0.52500
O 	O 	0.06490 0.20850 0.34090 -0.47500
O 	O 	0.23250 0.29210 0.37845 -0.52000
