data_crystal

_cell_length_a 8.50830
_cell_length_b 15.70400
_cell_length_c 28.45200
_cell_angle_alpha 90.00000
_cell_angle_beta  90.00000
_cell_angle_gamma 90.00000

_symmetry_space_group_name_	'P 1'
_symmetry_space_group_name_H-M	'P 1'

loop_
_symmetry_equiv_pos_as_xyz
  x,y,z

loop_
_atom_site_label
_atom_site_type_symbol
_atom_site_fract_x
_atom_site_fract_y
_atom_site_fract_z
_atom_site_charge
Y 	Y 	0.97378 0.80142 0.58486 2.38800
Y 	Y 	0.52622 0.30142 0.41514 2.39000
Y 	Y 	0.02622 0.19858 0.08486 2.38800
Y 	Y 	0.47378 0.69858 0.91514 2.39000
Y 	Y 	0.02622 0.19858 0.41514 2.38700
Y 	Y 	0.47378 0.69858 0.58486 2.38900
Y 	Y 	0.97378 0.80142 0.91514 2.38700
Y 	Y 	0.52622 0.30142 0.08486 2.38900
H 	H 	0.89870 0.46430 0.39840 -0.01100
H 	H 	0.27730 0.52640 0.47630 -0.00900
H 	H 	0.90240 0.68180 0.46470 0.00700
H 	H 	0.32630 0.59550 0.68070 -0.03300
H 	H 	0.60130 0.96430 0.60160 -0.01100
H 	H 	0.22270 0.02640 0.52370 -0.00900
H 	H 	0.59760 0.18180 0.53530 0.00800
H 	H 	0.17370 0.09550 0.31930 -0.03600
H 	H 	0.10130 0.53570 0.89840 -0.01100
H 	H 	0.72270 0.47360 0.97630 -0.01000
H 	H 	0.09760 0.31820 0.96470 0.00600
H 	H 	0.67370 0.40450 0.18070 -0.03300
H 	H 	0.39870 0.03570 0.10160 -0.01100
H 	H 	0.77730 0.97360 0.02370 -0.00800
H 	H 	0.40240 0.81820 0.03530 0.00800
H 	H 	0.82630 0.90450 0.81930 -0.03600
H 	H 	0.10130 0.53570 0.60160 -0.01100
H 	H 	0.72270 0.47360 0.52370 -0.00900
H 	H 	0.09760 0.31820 0.53530 0.00700
H 	H 	0.67370 0.40450 0.31930 -0.03300
H 	H 	0.39870 0.03570 0.39840 -0.01100
H 	H 	0.77730 0.97360 0.47630 -0.00900
H 	H 	0.40240 0.81820 0.46470 0.00800
H 	H 	0.82630 0.90450 0.68070 -0.03600
H 	H 	0.89870 0.46430 0.10160 -0.01100
H 	H 	0.27730 0.52640 0.02370 -0.01000
H 	H 	0.90240 0.68180 0.03530 0.00600
H 	H 	0.32630 0.59550 0.81930 -0.03300
H 	H 	0.60130 0.96430 0.89840 -0.01100
H 	H 	0.22270 0.02640 0.97630 -0.00800
H 	H 	0.59760 0.18180 0.96470 0.00800
H 	H 	0.17370 0.09550 0.18070 -0.03600
H 	H 	0.10320 0.78290 0.75000 0.01700
H 	H 	0.39680 0.28290 0.25000 0.01200
H 	H 	0.89680 0.21710 0.25000 0.01700
H 	H 	0.60320 0.71710 0.75000 0.01200
C 	C 	0.95140 0.50380 0.41816 0.14100
C 	C 	0.09920 0.48220 0.43478 -0.23800
C 	C 	0.17570 0.53910 0.46433 0.16300
C 	C 	0.10210 0.61400 0.47595 -0.21700
C 	C 	0.95310 0.62980 0.45673 0.12800
C 	C 	0.17270 0.67640 0.51058 0.50500
C 	C 	0.17080 0.39800 0.42396 0.51500
C 	C 	0.29520 0.62050 0.70964 0.14100
C 	C 	0.21050 0.69550 0.70796 -0.21700
C 	C 	0.16650 0.73330 0.66201 0.45800
C 	C 	0.54860 0.00380 0.58184 0.13400
C 	C 	0.40080 0.98220 0.56522 -0.22800
C 	C 	0.32430 0.03910 0.53567 0.15700
C 	C 	0.39790 0.11400 0.52405 -0.21500
C 	C 	0.54690 0.12980 0.54327 0.12600
C 	C 	0.32730 0.17640 0.48942 0.50500
C 	C 	0.32920 0.89800 0.57604 0.51200
C 	C 	0.20480 0.12050 0.29036 0.14000
C 	C 	0.28950 0.19550 0.29204 -0.22100
C 	C 	0.33350 0.23330 0.33799 0.45900
C 	C 	0.04860 0.49620 0.91816 0.14400
C 	C 	0.90080 0.51780 0.93478 -0.24100
C 	C 	0.82430 0.46090 0.96433 0.16500
C 	C 	0.89790 0.38600 0.97595 -0.22100
C 	C 	0.04690 0.37020 0.95673 0.13100
C 	C 	0.82730 0.32360 0.01058 0.50700
C 	C 	0.82920 0.60200 0.92396 0.51600
C 	C 	0.70480 0.37950 0.20964 0.14100
C 	C 	0.78950 0.30450 0.20796 -0.21700
C 	C 	0.83350 0.26670 0.16201 0.45800
C 	C 	0.45140 0.99620 0.08184 0.13300
C 	C 	0.59920 0.01780 0.06522 -0.22700
C 	C 	0.67570 0.96090 0.03567 0.15600
C 	C 	0.60210 0.88600 0.02405 -0.21500
C 	C 	0.45310 0.87020 0.04327 0.12600
C 	C 	0.67270 0.82360 0.98942 0.50400
C 	C 	0.67080 0.10200 0.07604 0.51200
C 	C 	0.79520 0.87950 0.79036 0.14000
C 	C 	0.71050 0.80450 0.79204 -0.22100
C 	C 	0.66650 0.76670 0.83799 0.45900
C 	C 	0.04860 0.49620 0.58184 0.14100
C 	C 	0.90080 0.51780 0.56522 -0.23800
C 	C 	0.82430 0.46090 0.53567 0.16300
C 	C 	0.89790 0.38600 0.52405 -0.21700
C 	C 	0.04690 0.37020 0.54327 0.12800
C 	C 	0.82730 0.32360 0.48942 0.50500
C 	C 	0.82920 0.60200 0.57604 0.51500
C 	C 	0.70480 0.37950 0.29036 0.14100
C 	C 	0.78950 0.30450 0.29204 -0.21700
C 	C 	0.83350 0.26670 0.33799 0.45800
C 	C 	0.45140 0.99620 0.41816 0.13400
C 	C 	0.59920 0.01780 0.43478 -0.22800
C 	C 	0.67570 0.96090 0.46433 0.15700
C 	C 	0.60210 0.88600 0.47595 -0.21500
C 	C 	0.45310 0.87020 0.45673 0.12600
C 	C 	0.67270 0.82360 0.51058 0.50500
C 	C 	0.67080 0.10200 0.42396 0.51200
C 	C 	0.79520 0.87950 0.70964 0.14000
C 	C 	0.71050 0.80450 0.70796 -0.22100
C 	C 	0.66650 0.76670 0.66201 0.45900
C 	C 	0.95140 0.50380 0.08184 0.14400
C 	C 	0.09920 0.48220 0.06522 -0.24100
C 	C 	0.17570 0.53910 0.03567 0.16500
C 	C 	0.10210 0.61400 0.02405 -0.22100
C 	C 	0.95310 0.62980 0.04327 0.13100
C 	C 	0.17270 0.67640 0.98942 0.50700
C 	C 	0.17080 0.39800 0.07604 0.51600
C 	C 	0.29520 0.62050 0.79036 0.14100
C 	C 	0.21050 0.69550 0.79204 -0.21700
C 	C 	0.16650 0.73330 0.83799 0.45800
C 	C 	0.54860 0.00380 0.91816 0.13300
C 	C 	0.40080 0.98220 0.93478 -0.22700
C 	C 	0.32430 0.03910 0.96433 0.15600
C 	C 	0.39790 0.11400 0.97595 -0.21500
C 	C 	0.54690 0.12980 0.95673 0.12600
C 	C 	0.32730 0.17640 0.01058 0.50400
C 	C 	0.32920 0.89800 0.92396 0.51200
C 	C 	0.20480 0.12050 0.20964 0.14000
C 	C 	0.28950 0.19550 0.20796 -0.22100
C 	C 	0.33350 0.23330 0.16201 0.45900
C 	C 	0.16500 0.73260 0.75000 0.15600
C 	C 	0.33500 0.23260 0.25000 0.15700
C 	C 	0.83500 0.26740 0.25000 0.15600
C 	C 	0.66500 0.76740 0.75000 0.15700
N 	N 	0.87890 0.57680 0.42825 -0.15600
N 	N 	0.62110 0.07680 0.57175 -0.15400
N 	N 	0.12110 0.42320 0.92825 -0.15700
N 	N 	0.37890 0.92320 0.07175 -0.15500
N 	N 	0.12110 0.42320 0.57175 -0.15600
N 	N 	0.37890 0.92320 0.42825 -0.15400
N 	N 	0.87890 0.57680 0.07175 -0.15700
N 	N 	0.62110 0.07680 0.92825 -0.15500
N 	N 	0.33680 0.58010 0.75000 -0.14700
N 	N 	0.16320 0.08010 0.25000 -0.15100
N 	N 	0.66320 0.41990 0.25000 -0.14700
N 	N 	0.83680 0.91990 0.75000 -0.15100
O 	O 	0.06090 0.78970 0.66135 -0.55000
O 	O 	0.22920 0.70770 0.62430 -0.64000
O 	O 	0.09300 0.74070 0.52072 -0.57900
O 	O 	0.30860 0.65880 0.52580 -0.59900
O 	O 	0.08130 0.34080 0.40826 -0.59300
O 	O 	0.31610 0.38870 0.43153 -0.60700
O 	O 	0.43910 0.28970 0.33865 -0.55700
O 	O 	0.27080 0.20770 0.37570 -0.64400
O 	O 	0.40700 0.24070 0.47928 -0.58200
O 	O 	0.19140 0.15880 0.47420 -0.60100
O 	O 	0.41870 0.84080 0.59174 -0.58800
O 	O 	0.18390 0.88870 0.56847 -0.60200
O 	O 	0.93910 0.21030 0.16135 -0.54900
O 	O 	0.77080 0.29230 0.12430 -0.64000
O 	O 	0.90700 0.25930 0.02072 -0.57900
O 	O 	0.69140 0.34120 0.02580 -0.59900
O 	O 	0.91870 0.65920 0.90826 -0.59400
O 	O 	0.68390 0.61130 0.93153 -0.60700
O 	O 	0.56090 0.71030 0.83865 -0.55700
O 	O 	0.72920 0.79230 0.87570 -0.64400
O 	O 	0.59300 0.75930 0.97928 -0.58200
O 	O 	0.80860 0.84120 0.97420 -0.60200
O 	O 	0.58130 0.15920 0.09174 -0.58800
O 	O 	0.81610 0.11130 0.06847 -0.60200
O 	O 	0.93910 0.21030 0.33865 -0.55000
O 	O 	0.77080 0.29230 0.37570 -0.64000
O 	O 	0.90700 0.25930 0.47928 -0.57900
O 	O 	0.69140 0.34120 0.47420 -0.59900
O 	O 	0.91870 0.65920 0.59174 -0.59300
O 	O 	0.68390 0.61130 0.56847 -0.60700
O 	O 	0.56090 0.71030 0.66135 -0.55700
O 	O 	0.72920 0.79230 0.62430 -0.64400
O 	O 	0.59300 0.75930 0.52072 -0.58200
O 	O 	0.80860 0.84120 0.52580 -0.60100
O 	O 	0.58130 0.15920 0.40826 -0.58800
O 	O 	0.81610 0.11130 0.43153 -0.60200
O 	O 	0.06090 0.78970 0.83865 -0.54900
O 	O 	0.22920 0.70770 0.87570 -0.64000
O 	O 	0.09300 0.74070 0.97928 -0.57900
O 	O 	0.30860 0.65880 0.97420 -0.59900
O 	O 	0.08130 0.34080 0.09174 -0.59400
O 	O 	0.31610 0.38870 0.06847 -0.60700
O 	O 	0.43910 0.28970 0.16135 -0.55700
O 	O 	0.27080 0.20770 0.12430 -0.64400
O 	O 	0.40700 0.24070 0.02072 -0.58200
O 	O 	0.19140 0.15880 0.02580 -0.60200
O 	O 	0.41870 0.84080 0.90826 -0.58800
O 	O 	0.18390 0.88870 0.93153 -0.60200
