data_crystal

_cell_length_a 18.81630
_cell_length_b 18.81630
_cell_length_c 38.07900
_cell_angle_alpha 90.00000
_cell_angle_beta  90.00000
_cell_angle_gamma 120.00000

_symmetry_space_group_name_	'P 1'
_symmetry_space_group_name_H-M	'P 1'

loop_
_symmetry_equiv_pos_as_xyz
  x,y,z

loop_
_atom_site_label
_atom_site_type_symbol
_atom_site_fract_x
_atom_site_fract_y
_atom_site_fract_z
_atom_site_charge
O 	O 	0.11150 0.48300 0.00459 -0.39600
O 	O 	0.03190 0.44460 0.95591 -0.39700
C 	C 	0.09450 0.45550 0.97384 0.33400
C 	C 	0.15310 0.43370 0.95653 -0.05800
C 	C 	0.13860 0.40470 0.92186 -0.03800
H 	H 	0.09130 0.39600 0.91030 0.06600
C 	C 	0.10280 0.31190 0.85570 0.04000
C 	C 	0.13910 0.38510 0.84580 -0.02300
N 	N 	0.08733 0.28157 0.82087 -0.11900
O 	O 	0.77817 0.81633 0.33792 -0.39500
O 	O 	0.69857 0.77793 0.28924 -0.39600
C 	C 	0.76117 0.78883 0.30717 0.33400
C 	C 	0.81977 0.76703 0.28986 -0.05800
C 	C 	0.80527 0.73803 0.25519 -0.03900
H 	H 	0.75797 0.72933 0.24363 0.06600
C 	C 	0.76947 0.64523 0.18903 0.04000
C 	C 	0.80577 0.71843 0.17913 -0.02300
N 	N 	0.75400 0.61490 0.15420 -0.11900
O 	O 	0.44483 0.14967 0.67126 -0.39500
O 	O 	0.36523 0.11127 0.62258 -0.39600
C 	C 	0.42783 0.12217 0.64051 0.33400
C 	C 	0.48643 0.10037 0.62320 -0.05800
C 	C 	0.47193 0.07137 0.58853 -0.03800
H 	H 	0.42463 0.06267 0.57697 0.06600
C 	C 	0.43613 0.97857 0.52237 0.04000
C 	C 	0.47243 0.05177 0.51247 -0.02300
N 	N 	0.42067 0.94823 0.48753 -0.11900
O 	O 	0.51700 0.62850 0.00459 -0.39500
O 	O 	0.55540 0.58730 0.95591 -0.39600
C 	C 	0.54450 0.63900 0.97384 0.33400
C 	C 	0.56630 0.71940 0.95653 -0.05800
C 	C 	0.59530 0.73390 0.92186 -0.03800
H 	H 	0.60400 0.69530 0.91030 0.06600
C 	C 	0.68810 0.79090 0.85570 0.04000
C 	C 	0.61490 0.75400 0.84580 -0.02300
N 	N 	0.71843 0.80577 0.82087 -0.11900
O 	O 	0.18367 0.96183 0.33792 -0.39500
O 	O 	0.22207 0.92063 0.28924 -0.39600
C 	C 	0.21117 0.97233 0.30717 0.33400
C 	C 	0.23297 0.05273 0.28986 -0.05800
C 	C 	0.26197 0.06723 0.25519 -0.03900
H 	H 	0.27067 0.02863 0.24363 0.06600
C 	C 	0.35477 0.12423 0.18903 0.04000
C 	C 	0.28157 0.08733 0.17913 -0.02300
N 	N 	0.38510 0.13910 0.15420 -0.11900
O 	O 	0.85033 0.29517 0.67126 -0.39500
O 	O 	0.88873 0.25397 0.62258 -0.39600
C 	C 	0.87783 0.30567 0.64051 0.33400
C 	C 	0.89963 0.38607 0.62320 -0.05800
C 	C 	0.92863 0.40057 0.58853 -0.03800
H 	H 	0.93733 0.36197 0.57697 0.06600
C 	C 	0.02143 0.45757 0.52237 0.04000
C 	C 	0.94823 0.42067 0.51247 -0.02300
N 	N 	0.05177 0.47243 0.48753 -0.11900
O 	O 	0.37150 0.88850 0.00459 -0.39500
O 	O 	0.41270 0.96810 0.95591 -0.39600
C 	C 	0.36100 0.90550 0.97384 0.33400
C 	C 	0.28060 0.84690 0.95653 -0.05800
C 	C 	0.26610 0.86140 0.92186 -0.03800
H 	H 	0.30470 0.90870 0.91030 0.06600
C 	C 	0.20910 0.89720 0.85570 0.04000
C 	C 	0.24600 0.86090 0.84580 -0.02300
N 	N 	0.19423 0.91267 0.82087 -0.11900
O 	O 	0.03817 0.22183 0.33792 -0.39500
O 	O 	0.07937 0.30143 0.28924 -0.39600
C 	C 	0.02767 0.23883 0.30717 0.33400
C 	C 	0.94727 0.18023 0.28986 -0.05800
C 	C 	0.93277 0.19473 0.25519 -0.03900
H 	H 	0.97137 0.24203 0.24363 0.06600
C 	C 	0.87577 0.23053 0.18903 0.04000
C 	C 	0.91267 0.19423 0.17913 -0.02300
N 	N 	0.86090 0.24600 0.15420 -0.11900
O 	O 	0.70483 0.55517 0.67126 -0.39500
O 	O 	0.74603 0.63477 0.62258 -0.39600
C 	C 	0.69433 0.57217 0.64051 0.33400
C 	C 	0.61393 0.51357 0.62320 -0.05800
C 	C 	0.59943 0.52807 0.58853 -0.03800
H 	H 	0.63803 0.57537 0.57697 0.06600
C 	C 	0.54243 0.56387 0.52237 0.04000
C 	C 	0.57933 0.52757 0.51247 -0.02300
N 	N 	0.52757 0.57933 0.48753 -0.11900
O 	O 	0.48300 0.11150 0.99541 -0.39500
O 	O 	0.44460 0.03190 0.04409 -0.39600
C 	C 	0.45550 0.09450 0.02616 0.33500
C 	C 	0.43370 0.15310 0.04347 -0.05800
C 	C 	0.40470 0.13860 0.07814 -0.03700
H 	H 	0.39600 0.09130 0.08970 0.06900
C 	C 	0.31190 0.10280 0.14430 0.05700
O 	O 	0.14967 0.44483 0.32874 -0.39500
O 	O 	0.11127 0.36523 0.37742 -0.39600
C 	C 	0.12217 0.42783 0.35949 0.33400
C 	C 	0.10037 0.48643 0.37680 -0.05800
C 	C 	0.07137 0.47193 0.41147 -0.03700
H 	H 	0.06267 0.42463 0.42303 0.06900
C 	C 	0.97857 0.43613 0.47763 0.05700
O 	O 	0.81633 0.77817 0.66208 -0.39500
O 	O 	0.77793 0.69857 0.71076 -0.39600
C 	C 	0.78883 0.76117 0.69283 0.33400
C 	C 	0.76703 0.81977 0.71014 -0.05800
C 	C 	0.73803 0.80527 0.74481 -0.03700
H 	H 	0.72933 0.75797 0.75637 0.06900
C 	C 	0.64523 0.76947 0.81097 0.05700
O 	O 	0.62850 0.51700 0.99541 -0.39500
O 	O 	0.58730 0.55540 0.04409 -0.39600
C 	C 	0.63900 0.54450 0.02616 0.33500
C 	C 	0.71940 0.56630 0.04347 -0.05800
C 	C 	0.73390 0.59530 0.07814 -0.03700
H 	H 	0.69530 0.60400 0.08970 0.06900
C 	C 	0.79090 0.68810 0.14430 0.05700
O 	O 	0.29517 0.85033 0.32874 -0.39500
O 	O 	0.25397 0.88873 0.37742 -0.39600
C 	C 	0.30567 0.87783 0.35949 0.33400
C 	C 	0.38607 0.89963 0.37680 -0.05800
C 	C 	0.40057 0.92863 0.41147 -0.03700
H 	H 	0.36197 0.93733 0.42303 0.06900
C 	C 	0.45757 0.02143 0.47763 0.05700
O 	O 	0.96183 0.18367 0.66208 -0.39500
O 	O 	0.92063 0.22207 0.71076 -0.39600
C 	C 	0.97233 0.21117 0.69283 0.33400
C 	C 	0.05273 0.23297 0.71014 -0.05800
C 	C 	0.06723 0.26197 0.74481 -0.03700
H 	H 	0.02863 0.27067 0.75637 0.06900
C 	C 	0.12423 0.35477 0.81097 0.05700
O 	O 	0.88850 0.37150 0.99541 -0.39500
O 	O 	0.96810 0.41270 0.04409 -0.39600
C 	C 	0.90550 0.36100 0.02616 0.33500
C 	C 	0.84690 0.28060 0.04347 -0.05800
C 	C 	0.86140 0.26610 0.07814 -0.03700
H 	H 	0.90870 0.30470 0.08970 0.06900
C 	C 	0.89720 0.20910 0.14430 0.05700
O 	O 	0.55517 0.70483 0.32874 -0.39500
O 	O 	0.63477 0.74603 0.37742 -0.39600
C 	C 	0.57217 0.69433 0.35949 0.33500
C 	C 	0.51357 0.61393 0.37680 -0.05800
C 	C 	0.52807 0.59943 0.41147 -0.03700
H 	H 	0.57537 0.63803 0.42303 0.06900
C 	C 	0.56387 0.54243 0.47763 0.05700
O 	O 	0.22183 0.03817 0.66208 -0.39500
O 	O 	0.30143 0.07937 0.71076 -0.39600
C 	C 	0.23883 0.02767 0.69283 0.33400
C 	C 	0.18023 0.94727 0.71014 -0.05800
C 	C 	0.19473 0.93277 0.74481 -0.03700
H 	H 	0.24203 0.97137 0.75637 0.06900
C 	C 	0.23053 0.87577 0.81097 0.05700
O 	O 	0.88850 0.51700 0.99541 -0.39500
O 	O 	0.96810 0.55540 0.04409 -0.39600
C 	C 	0.90550 0.54450 0.02616 0.33400
C 	C 	0.84690 0.56630 0.04347 -0.05800
C 	C 	0.86140 0.59530 0.07814 -0.03800
H 	H 	0.90870 0.60400 0.08970 0.06600
C 	C 	0.89720 0.68810 0.14430 0.04000
C 	C 	0.86090 0.61490 0.15420 -0.02300
N 	N 	0.91267 0.71843 0.17913 -0.11900
O 	O 	0.55517 0.85033 0.32874 -0.39500
O 	O 	0.63477 0.88873 0.37742 -0.39600
C 	C 	0.57217 0.87783 0.35949 0.33400
C 	C 	0.51357 0.89963 0.37680 -0.05800
C 	C 	0.52807 0.92863 0.41147 -0.03800
H 	H 	0.57537 0.93733 0.42303 0.06600
C 	C 	0.56387 0.02143 0.47763 0.04000
C 	C 	0.52757 0.94823 0.48753 -0.02300
N 	N 	0.57933 0.05177 0.51247 -0.11900
O 	O 	0.22183 0.18367 0.66208 -0.39500
O 	O 	0.30143 0.22207 0.71076 -0.39600
C 	C 	0.23883 0.21117 0.69283 0.33400
C 	C 	0.18023 0.23297 0.71014 -0.05800
C 	C 	0.19473 0.26197 0.74481 -0.03900
H 	H 	0.24203 0.27067 0.75637 0.06600
C 	C 	0.23053 0.35477 0.81097 0.04000
C 	C 	0.19423 0.28157 0.82087 -0.02300
N 	N 	0.24600 0.38510 0.84580 -0.11900
O 	O 	0.48300 0.37150 0.99541 -0.39500
O 	O 	0.44460 0.41270 0.04409 -0.39600
C 	C 	0.45550 0.36100 0.02616 0.33400
C 	C 	0.43370 0.28060 0.04347 -0.05800
C 	C 	0.40470 0.26610 0.07814 -0.03800
H 	H 	0.39600 0.30470 0.08970 0.06600
C 	C 	0.31190 0.20910 0.14430 0.04000
C 	C 	0.38510 0.24600 0.15420 -0.02300
N 	N 	0.28157 0.19423 0.17913 -0.11900
O 	O 	0.14967 0.70483 0.32874 -0.39500
O 	O 	0.11127 0.74603 0.37742 -0.39600
C 	C 	0.12217 0.69433 0.35949 0.33400
C 	C 	0.10037 0.61393 0.37680 -0.05800
C 	C 	0.07137 0.59943 0.41147 -0.03800
H 	H 	0.06267 0.63803 0.42303 0.06600
C 	C 	0.97857 0.54243 0.47763 0.04000
C 	C 	0.05177 0.57933 0.48753 -0.02300
N 	N 	0.94823 0.52757 0.51247 -0.11900
O 	O 	0.81633 0.03817 0.66208 -0.39500
O 	O 	0.77793 0.07937 0.71076 -0.39600
C 	C 	0.78883 0.02767 0.69283 0.33400
C 	C 	0.76703 0.94727 0.71014 -0.05800
C 	C 	0.73803 0.93277 0.74481 -0.03900
H 	H 	0.72933 0.97137 0.75637 0.06600
C 	C 	0.64523 0.87577 0.81097 0.04000
C 	C 	0.71843 0.91267 0.82087 -0.02300
N 	N 	0.61490 0.86090 0.84580 -0.11900
O 	O 	0.62850 0.11150 0.99541 -0.39500
O 	O 	0.58730 0.03190 0.04409 -0.39600
C 	C 	0.63900 0.09450 0.02616 0.33400
C 	C 	0.71940 0.15310 0.04347 -0.05800
C 	C 	0.73390 0.13860 0.07814 -0.03800
H 	H 	0.69530 0.09130 0.08970 0.06600
C 	C 	0.79090 0.10280 0.14430 0.04000
C 	C 	0.75400 0.13910 0.15420 -0.02300
N 	N 	0.80577 0.08733 0.17913 -0.11900
O 	O 	0.29517 0.44483 0.32874 -0.39500
O 	O 	0.25397 0.36523 0.37742 -0.39600
C 	C 	0.30567 0.42783 0.35949 0.33400
C 	C 	0.38607 0.48643 0.37680 -0.05800
C 	C 	0.40057 0.47193 0.41147 -0.03800
H 	H 	0.36197 0.42463 0.42303 0.06600
C 	C 	0.45757 0.43613 0.47763 0.04000
C 	C 	0.42067 0.47243 0.48753 -0.02300
N 	N 	0.47243 0.42067 0.51247 -0.11900
O 	O 	0.96183 0.77817 0.66208 -0.39500
O 	O 	0.92063 0.69857 0.71076 -0.39600
C 	C 	0.97233 0.76117 0.69283 0.33400
C 	C 	0.05273 0.81977 0.71014 -0.05800
C 	C 	0.06723 0.80527 0.74481 -0.03900
H 	H 	0.02863 0.75797 0.75637 0.06600
C 	C 	0.12423 0.76947 0.81097 0.04000
C 	C 	0.08733 0.80577 0.82087 -0.02300
N 	N 	0.13910 0.75400 0.84580 -0.11900
O 	O 	0.51700 0.88850 0.00459 -0.39500
O 	O 	0.55540 0.96810 0.95591 -0.39600
C 	C 	0.54450 0.90550 0.97384 0.33500
C 	C 	0.56630 0.84690 0.95653 -0.05800
C 	C 	0.59530 0.86140 0.92186 -0.03700
H 	H 	0.60400 0.90870 0.91030 0.06900
C 	C 	0.68810 0.89720 0.85570 0.05700
O 	O 	0.18367 0.22183 0.33792 -0.39500
O 	O 	0.22207 0.30143 0.28924 -0.39600
C 	C 	0.21117 0.23883 0.30717 0.33400
C 	C 	0.23297 0.18023 0.28986 -0.05800
C 	C 	0.26197 0.19473 0.25519 -0.03700
H 	H 	0.27067 0.24203 0.24363 0.06900
C 	C 	0.35477 0.23053 0.18903 0.05700
O 	O 	0.85033 0.55517 0.67126 -0.39500
O 	O 	0.88873 0.63477 0.62258 -0.39600
C 	C 	0.87783 0.57217 0.64051 0.33400
C 	C 	0.89963 0.51357 0.62320 -0.05800
C 	C 	0.92863 0.52807 0.58853 -0.03700
H 	H 	0.93733 0.57537 0.57697 0.06900
C 	C 	0.02143 0.56387 0.52237 0.05700
O 	O 	0.37150 0.48300 0.00459 -0.39500
O 	O 	0.41270 0.44460 0.95591 -0.39600
C 	C 	0.36100 0.45550 0.97384 0.33500
C 	C 	0.28060 0.43370 0.95653 -0.05800
C 	C 	0.26610 0.40470 0.92186 -0.03700
H 	H 	0.30470 0.39600 0.91030 0.06900
C 	C 	0.20910 0.31190 0.85570 0.05700
O 	O 	0.03817 0.81633 0.33792 -0.39500
O 	O 	0.07937 0.77793 0.28924 -0.39600
C 	C 	0.02767 0.78883 0.30717 0.33400
C 	C 	0.94727 0.76703 0.28986 -0.05800
C 	C 	0.93277 0.73803 0.25519 -0.03700
H 	H 	0.97137 0.72933 0.24363 0.06900
C 	C 	0.87577 0.64523 0.18903 0.05700
O 	O 	0.70483 0.14967 0.67126 -0.39500
O 	O 	0.74603 0.11127 0.62258 -0.39600
C 	C 	0.69433 0.12217 0.64051 0.33400
C 	C 	0.61393 0.10037 0.62320 -0.05800
C 	C 	0.59943 0.07137 0.58853 -0.03700
H 	H 	0.63803 0.06267 0.57697 0.06900
C 	C 	0.54243 0.97857 0.52237 0.05700
O 	O 	0.11150 0.62850 0.00459 -0.39500
O 	O 	0.03190 0.58730 0.95591 -0.39600
C 	C 	0.09450 0.63900 0.97384 0.33500
C 	C 	0.15310 0.71940 0.95653 -0.05800
C 	C 	0.13860 0.73390 0.92186 -0.03700
H 	H 	0.09130 0.69530 0.91030 0.06900
C 	C 	0.10280 0.79090 0.85570 0.05700
O 	O 	0.77817 0.96183 0.33792 -0.39500
O 	O 	0.69857 0.92063 0.28924 -0.39600
C 	C 	0.76117 0.97233 0.30717 0.33400
C 	C 	0.81977 0.05273 0.28986 -0.05800
C 	C 	0.80527 0.06723 0.25519 -0.03700
H 	H 	0.75797 0.02863 0.24363 0.06900
C 	C 	0.76947 0.12423 0.18903 0.05700
O 	O 	0.44483 0.29517 0.67126 -0.39500
O 	O 	0.36523 0.25397 0.62258 -0.39600
C 	C 	0.42783 0.30567 0.64051 0.33500
C 	C 	0.48643 0.38607 0.62320 -0.05800
C 	C 	0.47193 0.40057 0.58853 -0.03700
H 	H 	0.42463 0.36197 0.57697 0.06900
C 	C 	0.43613 0.45757 0.52237 0.05700
Cu	Cu	0.04598 0.52299 0.02875 0.90600
Cu	Cu	0.71265 0.85632 0.36208 0.90600
Cu	Cu	0.37931 0.18966 0.69542 0.90600
Cu	Cu	0.47701 0.52299 0.02875 0.90600
Cu	Cu	0.14368 0.85632 0.36208 0.90600
Cu	Cu	0.81034 0.18966 0.69542 0.90600
Cu	Cu	0.47701 0.95402 0.02875 0.90600
Cu	Cu	0.14368 0.28735 0.36208 0.90600
Cu	Cu	0.81034 0.62069 0.69542 0.90600
Cu	Cu	0.52299 0.04598 0.97125 0.90600
Cu	Cu	0.18966 0.37931 0.30458 0.90600
Cu	Cu	0.85632 0.71265 0.63792 0.90600
Cu	Cu	0.52299 0.47701 0.97125 0.90600
Cu	Cu	0.18966 0.81034 0.30458 0.90600
Cu	Cu	0.85632 0.14368 0.63792 0.90600
Cu	Cu	0.95402 0.47701 0.97125 0.90600
Cu	Cu	0.62069 0.81034 0.30458 0.90600
Cu	Cu	0.28735 0.14368 0.63792 0.90600
C 	C 	0.22440 0.44880 0.97350 0.00500
H 	H 	0.23460 0.46920 0.99630 0.06200
C 	C 	0.19445 0.38890 0.90460 0.02300
C 	C 	0.18100 0.36200 0.86730 0.01900
C 	C 	0.89107 0.78213 0.30683 0.00500
H 	H 	0.90127 0.80253 0.32963 0.06200
C 	C 	0.86112 0.72223 0.23793 0.02300
C 	C 	0.84767 0.69533 0.20063 0.01900
C 	C 	0.55773 0.11547 0.64017 0.00500
H 	H 	0.56793 0.13587 0.66297 0.06200
C 	C 	0.52778 0.05557 0.57127 0.02300
C 	C 	0.51433 0.02867 0.53397 0.01900
C 	C 	0.55120 0.77560 0.97350 0.00500
H 	H 	0.53080 0.76540 0.99630 0.06200
C 	C 	0.61110 0.80555 0.90460 0.02300
C 	C 	0.63800 0.81900 0.86730 0.01900
C 	C 	0.21787 0.10893 0.30683 0.00500
H 	H 	0.19747 0.09873 0.32963 0.06200
C 	C 	0.27777 0.13888 0.23793 0.02300
C 	C 	0.30467 0.15233 0.20063 0.01900
C 	C 	0.88453 0.44227 0.64017 0.00500
H 	H 	0.86413 0.43207 0.66297 0.06200
C 	C 	0.94443 0.47222 0.57127 0.02300
C 	C 	0.97133 0.48567 0.53397 0.01900
C 	C 	0.22440 0.77560 0.97350 0.00500
H 	H 	0.23460 0.76540 0.99630 0.06200
C 	C 	0.19445 0.80555 0.90460 0.02300
C 	C 	0.18100 0.81900 0.86730 0.01900
C 	C 	0.89107 0.10893 0.30683 0.00500
H 	H 	0.90127 0.09873 0.32963 0.06200
C 	C 	0.86112 0.13888 0.23793 0.02300
C 	C 	0.84767 0.15233 0.20063 0.01900
C 	C 	0.55773 0.44227 0.64017 0.00500
H 	H 	0.56793 0.43207 0.66297 0.06200
C 	C 	0.52778 0.47222 0.57127 0.02300
C 	C 	0.51433 0.48567 0.53397 0.01900
C 	C 	0.44880 0.22440 0.02650 0.00500
H 	H 	0.46920 0.23460 0.00370 0.06200
C 	C 	0.38890 0.19445 0.09540 0.02300
C 	C 	0.36200 0.18100 0.13270 0.01900
C 	C 	0.11547 0.55773 0.35983 0.00500
H 	H 	0.13587 0.56793 0.33703 0.06200
C 	C 	0.05557 0.52778 0.42873 0.02300
C 	C 	0.02867 0.51433 0.46603 0.01900
C 	C 	0.78213 0.89107 0.69317 0.00500
H 	H 	0.80253 0.90127 0.67037 0.06200
C 	C 	0.72223 0.86112 0.76207 0.02300
C 	C 	0.69533 0.84767 0.79937 0.01900
C 	C 	0.77560 0.55120 0.02650 0.00500
H 	H 	0.76540 0.53080 0.00370 0.06200
C 	C 	0.80555 0.61110 0.09540 0.02300
C 	C 	0.81900 0.63800 0.13270 0.01900
C 	C 	0.44227 0.88453 0.35983 0.00500
H 	H 	0.43207 0.86413 0.33703 0.06200
C 	C 	0.47222 0.94443 0.42873 0.02300
C 	C 	0.48567 0.97133 0.46603 0.01900
C 	C 	0.10893 0.21787 0.69317 0.00500
H 	H 	0.09873 0.19747 0.67037 0.06200
C 	C 	0.13888 0.27777 0.76207 0.02300
C 	C 	0.15233 0.30467 0.79937 0.01900
C 	C 	0.77560 0.22440 0.02650 0.00500
H 	H 	0.76540 0.23460 0.00370 0.06200
C 	C 	0.80555 0.19445 0.09540 0.02300
C 	C 	0.81900 0.18100 0.13270 0.01900
C 	C 	0.44227 0.55773 0.35983 0.00500
H 	H 	0.43207 0.56793 0.33703 0.06200
C 	C 	0.47222 0.52778 0.42873 0.02300
C 	C 	0.48567 0.51433 0.46603 0.01900
C 	C 	0.10893 0.89107 0.69317 0.00500
H 	H 	0.09873 0.90127 0.67037 0.06200
C 	C 	0.13888 0.86112 0.76207 0.02300
C 	C 	0.15233 0.84767 0.79937 0.01900
