data_crystal

_cell_length_a 22.06560
_cell_length_b 22.06560
_cell_length_c 15.27300
_cell_angle_alpha 90.00000
_cell_angle_beta  90.00000
_cell_angle_gamma 90.00000

_symmetry_space_group_name_	'P 1'
_symmetry_space_group_name_H-M	'P 1'

loop_
_symmetry_equiv_pos_as_xyz
  x,y,z

loop_
_atom_site_label
_atom_site_type_symbol
_atom_site_fract_x
_atom_site_fract_y
_atom_site_fract_z
_atom_site_charge
F 	F 	0.07380 0.98800 0.24020 -0.67500
F 	F 	0.07280 0.00870 0.74010 -0.83700
N 	N 	0.43190 0.43420 0.01890 -0.28200
C 	C 	0.42410 0.39090 0.08400 0.07800
H 	H 	0.44950 0.39260 0.13420 -0.03100
C 	C 	0.38210 0.34670 0.07920 -0.15300
H 	H 	0.38370 0.31450 0.12060 0.08200
C 	C 	0.33620 0.34600 0.01570 0.10400
C 	C 	0.34010 0.39420 0.95520 -0.13600
H 	H 	0.31000 0.39780 0.91100 0.09000
C 	C 	0.38680 0.43650 0.95850 0.08000
H 	H 	0.38720 0.46840 0.91670 -0.03000
C 	C 	0.29170 0.30110 0.01070 -0.05000
C 	C 	0.30840 0.23760 0.01880 -0.11200
H 	H 	0.34980 0.22710 0.02730 0.07800
C 	C 	0.26580 0.19280 0.01430 0.14500
C 	C 	0.20550 0.20710 0.00370 -0.04100
C 	C 	0.18720 0.26610 0.00460 -0.11500
H 	H 	0.14500 0.27450 0.00320 0.06500
C 	C 	0.22740 0.31450 0.00730 0.15000
O 	O 	0.28610 0.13370 0.01680 -0.21900
C 	C 	0.34940 0.11270 0.98710 0.07300
C 	C 	0.37540 0.14620 0.90640 -0.03500
C 	C 	0.34990 0.04930 0.02740 -0.04800
C 	C 	0.31830 0.00300 0.96700 -0.07300
O 	O 	0.21390 0.37120 0.99950 -0.19900
C 	C 	0.14600 0.38530 0.00780 0.04200
C 	C 	0.13000 0.44760 0.96800 0.30800
C 	C 	0.12740 0.38640 0.10610 -0.03500
C 	C 	0.17450 0.42370 0.15850 -0.00100
C 	C 	0.15630 0.15720 0.00120 0.09500
C 	C 	0.11320 0.15830 0.93530 -0.14900
H 	H 	0.11330 0.18900 0.89170 0.08500
C 	C 	0.06870 0.11160 0.93540 0.11100
H 	H 	0.03630 0.11330 0.89440 0.00700
N 	N 	0.07140 0.06840 0.98830 -0.23300
C 	C 	0.11330 0.06570 0.05510 0.05700
H 	H 	0.11130 0.03390 0.09690 0.03100
C 	C 	0.16040 0.11100 0.06170 -0.12400
H 	H 	0.19170 0.10910 0.10430 0.08900
N 	N 	0.43300 0.42930 0.51480 -0.28200
C 	C 	0.38900 0.42850 0.57940 0.06300
H 	H 	0.38950 0.45760 0.62530 -0.03200
C 	C 	0.34300 0.38360 0.57600 -0.16100
H 	H 	0.31140 0.38300 0.61820 0.08000
C 	C 	0.34490 0.33990 0.50890 0.13500
C 	C 	0.39100 0.34380 0.45090 -0.20500
H 	H 	0.39330 0.31480 0.40500 0.10500
C 	C 	0.43320 0.38650 0.45550 0.12600
H 	H 	0.46510 0.38610 0.41380 -0.04900
C 	C 	0.29570 0.29430 0.50660 -0.07900
C 	C 	0.30882 0.23310 0.49580 0.18000
C 	C 	0.26210 0.19110 0.48980 -0.13600
H 	H 	0.27100 0.14930 0.48240 0.07100
C 	C 	0.20210 0.21030 0.49460 -0.03000
C 	C 	0.18899 0.27140 0.50550 0.12500
C 	C 	0.23580 0.31340 0.51150 -0.09200
H 	H 	0.22680 0.35520 0.51890 0.05800
O 	O 	0.36630 0.21640 0.48800 -0.26900
C 	C 	0.38610 0.15240 0.51860 0.20600
H 	H 	0.36210 0.12600 0.47810 -0.04100
C 	C 	0.37730 0.11930 0.60620 -0.52700
H 	H 	0.41570 0.10100 0.62440 0.15500
H 	H 	0.34670 0.08740 0.59920 0.15000
H 	H 	0.36370 0.14820 0.65080 0.17800
C 	C 	0.45080 0.14210 0.48430 -0.09300
H 	H 	0.46710 0.10200 0.50140 0.02500
H 	H 	0.45370 0.14730 0.42000 0.05000
C 	C 	0.48100 0.19440 0.53460 -0.33900
H 	H 	0.45540 0.23050 0.53110 0.14400
H 	H 	0.52070 0.20310 0.50860 0.12000
H 	H 	0.48630 0.18270 0.59600 0.11600
O 	O 	0.12840 0.29030 0.50240 -0.25000
C 	C 	0.10940 0.35510 0.48570 0.21000
H 	H 	0.13350 0.38660 0.51750 -0.04500
C 	C 	0.12210 0.35030 0.38780 -0.15900
H 	H 	0.12800 0.30610 0.38120 0.09500
H 	H 	0.16350 0.36750 0.38460 0.07200
C 	C 	0.09720 0.36710 0.29720 -0.25600
H 	H 	0.05290 0.36810 0.29930 0.08200
H 	H 	0.11040 0.33690 0.25420 0.09800
H 	H 	0.11250 0.40710 0.28020 0.09400
C 	C 	0.04380 0.34730 0.51700 -0.48500
H 	H 	0.02830 0.30790 0.49760 0.15900
H 	H 	0.01860 0.37970 0.49240 0.13000
H 	H 	0.04250 0.34940 0.58110 0.14600
C 	C 	0.15160 0.16240 0.48950 0.08800
C 	C 	0.10410 0.16200 0.54920 -0.12600
H 	H 	0.10110 0.19310 0.59210 0.08500
C 	C 	0.06090 0.11620 0.54610 0.06000
H 	H 	0.02840 0.11600 0.58690 0.02300
N 	N 	0.06530 0.07080 0.48340 -0.22800
C 	C 	0.11280 0.07120 0.42370 0.07100
H 	H 	0.11580 0.04020 0.38080 0.02600
C 	C 	0.15600 0.11700 0.42670 -0.13700
H 	H 	0.18850 0.11730 0.38590 0.07500
C 	C 	0.35520 0.12970 0.88600 -0.00700
C 	C 	0.34820 0.04340 0.96850 0.06300
C 	C 	0.40550 0.01330 0.00630 -0.07800
C 	C 	0.15670 0.45190 0.97900 -0.32500
C 	C 	0.10680 0.45330 0.09800 -0.04700
F 	F 	0.92620 0.01200 0.24020 -0.73000
F 	F 	0.92720 0.99130 0.74010 -0.67900
N 	N 	0.56810 0.56580 0.01890 -0.28400
C 	C 	0.57590 0.60910 0.08400 0.07800
H 	H 	0.55050 0.60740 0.13420 -0.03200
C 	C 	0.61790 0.65330 0.07920 -0.16000
H 	H 	0.61630 0.68550 0.12060 0.08300
C 	C 	0.66380 0.65400 0.01570 0.10700
C 	C 	0.65990 0.60580 0.95520 -0.14100
H 	H 	0.69000 0.60220 0.91100 0.08900
C 	C 	0.61320 0.56350 0.95850 0.08000
H 	H 	0.61280 0.53160 0.91670 -0.03200
C 	C 	0.70830 0.69890 0.01070 -0.06800
C 	C 	0.69160 0.76240 0.01880 -0.09100
H 	H 	0.65020 0.77290 0.02730 0.05100
C 	C 	0.73420 0.80720 0.01430 0.12800
C 	C 	0.79450 0.79290 0.00370 -0.00900
C 	C 	0.81280 0.73390 0.00460 -0.14100
H 	H 	0.85500 0.72550 0.00320 0.09900
C 	C 	0.77260 0.68550 0.00730 0.17600
O 	O 	0.71390 0.86630 0.01680 -0.18800
C 	C 	0.65060 0.88730 0.98710 0.05400
C 	C 	0.62460 0.85380 0.90640 0.70700
C 	C 	0.65010 0.95070 0.02740 -0.04300
C 	C 	0.68170 0.99700 0.96700 0.05600
O 	O 	0.78610 0.62880 0.99950 -0.22300
C 	C 	0.85400 0.61470 0.00780 0.07600
C 	C 	0.87000 0.55240 0.96800 -0.00300
C 	C 	0.87260 0.61360 0.10610 -0.00900
C 	C 	0.82550 0.57630 0.15850 -0.01800
C 	C 	0.84370 0.84280 0.00120 0.08800
C 	C 	0.88680 0.84170 0.93530 -0.10600
H 	H 	0.88670 0.81100 0.89170 0.10300
C 	C 	0.93130 0.88840 0.93540 0.12400
H 	H 	0.96370 0.88670 0.89440 0.08300
N 	N 	0.92860 0.93160 0.98830 -0.16200
C 	C 	0.88670 0.93430 0.05510 0.07400
H 	H 	0.88870 0.96610 0.09690 0.10200
C 	C 	0.83960 0.88900 0.06170 -0.09300
H 	H 	0.80830 0.89090 0.10430 0.10100
N 	N 	0.56700 0.57070 0.51480 -0.28300
C 	C 	0.61100 0.57150 0.57940 0.06400
H 	H 	0.61050 0.54240 0.62530 -0.03300
C 	C 	0.65700 0.61640 0.57600 -0.16300
H 	H 	0.68860 0.61700 0.61820 0.08300
C 	C 	0.65510 0.66010 0.50890 0.13900
C 	C 	0.60900 0.65620 0.45090 -0.20800
H 	H 	0.60670 0.68520 0.40500 0.10800
C 	C 	0.56680 0.61350 0.45550 0.12800
H 	H 	0.53490 0.61390 0.41380 -0.05000
C 	C 	0.70430 0.70570 0.50660 -0.08200
C 	C 	0.69118 0.76690 0.49580 0.19100
C 	C 	0.73790 0.80890 0.48980 -0.14300
H 	H 	0.72900 0.85070 0.48240 0.09300
C 	C 	0.79790 0.78970 0.49460 -0.01700
C 	C 	0.81101 0.72860 0.50550 0.12600
C 	C 	0.76420 0.68660 0.51150 -0.08700
H 	H 	0.77320 0.64480 0.51890 0.05800
O 	O 	0.63370 0.78360 0.48800 -0.27500
C 	C 	0.61390 0.84760 0.51860 0.25000
H 	H 	0.63790 0.87400 0.47810 -0.02800
C 	C 	0.62270 0.88070 0.60620 -0.62800
H 	H 	0.58430 0.89900 0.62440 0.21700
H 	H 	0.65330 0.91260 0.59920 0.23000
H 	H 	0.63630 0.85180 0.65080 0.22500
C 	C 	0.54920 0.85790 0.48430 -0.13300
H 	H 	0.53290 0.89800 0.50140 0.06900
H 	H 	0.54630 0.85270 0.42000 0.07700
C 	C 	0.51900 0.80560 0.53460 -0.31200
H 	H 	0.54460 0.76950 0.53110 0.13600
H 	H 	0.47930 0.79690 0.50860 0.11500
H 	H 	0.51370 0.81730 0.59600 0.11400
O 	O 	0.87160 0.70970 0.50240 -0.24600
C 	C 	0.89060 0.64490 0.48570 0.25600
H 	H 	0.86650 0.61340 0.51750 -0.05000
C 	C 	0.87790 0.64970 0.38780 -0.14100
H 	H 	0.87200 0.69390 0.38120 0.09900
H 	H 	0.83650 0.63250 0.38460 0.06800
C 	C 	0.90280 0.63290 0.29720 -0.31700
H 	H 	0.94710 0.63190 0.29930 0.14400
H 	H 	0.88960 0.66310 0.25420 0.13500
H 	H 	0.88750 0.59290 0.28020 0.12800
C 	C 	0.95620 0.65270 0.51700 -0.62100
H 	H 	0.97170 0.69210 0.49760 0.24400
H 	H 	0.98140 0.62030 0.49240 0.22500
H 	H 	0.95750 0.65060 0.58110 0.22900
C 	C 	0.84840 0.83760 0.48950 0.09800
C 	C 	0.89590 0.83800 0.54920 -0.10700
H 	H 	0.89890 0.80690 0.59210 0.10300
C 	C 	0.93910 0.88380 0.54610 0.08900
H 	H 	0.97160 0.88400 0.58690 0.09400
N 	N 	0.93470 0.92920 0.48340 -0.15800
C 	C 	0.88720 0.92880 0.42370 0.10000
H 	H 	0.88420 0.95980 0.38080 0.09300
C 	C 	0.84400 0.88300 0.42670 -0.11700
H 	H 	0.81150 0.88270 0.38590 0.09500
C 	C 	0.64480 0.87030 0.88600 -0.71600
C 	C 	0.65180 0.95660 0.96850 0.06200
C 	C 	0.59450 0.98670 0.00630 0.01700
C 	C 	0.84330 0.54810 0.97900 -0.00000
C 	C 	0.89320 0.54670 0.09800 0.00600
F 	F 	0.01200 0.07380 0.24020 -0.78000
F 	F 	0.99130 0.07280 0.74010 -0.72400
N 	N 	0.56580 0.43190 0.01890 -0.28300
C 	C 	0.60910 0.42410 0.08400 0.07800
H 	H 	0.60740 0.44950 0.13420 -0.03100
C 	C 	0.65330 0.38210 0.07920 -0.15700
H 	H 	0.68550 0.38370 0.12060 0.08200
C 	C 	0.65400 0.33620 0.01570 0.10400
C 	C 	0.60580 0.34010 0.95520 -0.13800
H 	H 	0.60220 0.31000 0.91100 0.09000
C 	C 	0.56350 0.38680 0.95850 0.08000
H 	H 	0.53160 0.38720 0.91670 -0.03000
C 	C 	0.69890 0.29170 0.01070 -0.05800
C 	C 	0.76240 0.30840 0.01880 -0.10000
H 	H 	0.77290 0.34980 0.02730 0.05400
C 	C 	0.80720 0.26580 0.01430 0.13500
C 	C 	0.79290 0.20550 0.00370 -0.02500
C 	C 	0.73390 0.18720 0.00460 -0.12300
H 	H 	0.72550 0.14500 0.00320 0.06900
C 	C 	0.68550 0.22740 0.00730 0.15500
O 	O 	0.86630 0.28610 0.01680 -0.18900
C 	C 	0.88730 0.34940 0.98710 0.05400
C 	C 	0.85380 0.37540 0.90640 0.70500
C 	C 	0.95070 0.34990 0.02740 -0.03800
C 	C 	0.99700 0.31830 0.96700 0.05900
O 	O 	0.62880 0.21390 0.99950 -0.19900
C 	C 	0.61470 0.14600 0.00780 0.04200
C 	C 	0.55240 0.13000 0.96800 0.30600
C 	C 	0.61360 0.12740 0.10610 -0.03400
C 	C 	0.57630 0.17450 0.15850 -0.00100
C 	C 	0.84280 0.15630 0.00120 0.09000
C 	C 	0.84170 0.11320 0.93530 -0.13100
H 	H 	0.81100 0.11330 0.89170 0.08600
C 	C 	0.88840 0.06870 0.93540 0.11600
H 	H 	0.88670 0.03630 0.89440 0.02300
N 	N 	0.93160 0.07140 0.98830 -0.19400
C 	C 	0.93430 0.11330 0.05510 0.06600
H 	H 	0.96610 0.11130 0.09690 0.09300
C 	C 	0.88900 0.16040 0.06170 -0.10300
H 	H 	0.89090 0.19170 0.10430 0.10200
N 	N 	0.57070 0.43300 0.51480 -0.28300
C 	C 	0.57150 0.38900 0.57940 0.06300
H 	H 	0.54240 0.38950 0.62530 -0.03200
C 	C 	0.61640 0.34300 0.57600 -0.16300
H 	H 	0.61700 0.31140 0.61820 0.08100
C 	C 	0.66010 0.34490 0.50890 0.13800
C 	C 	0.65620 0.39100 0.45090 -0.20800
H 	H 	0.68520 0.39330 0.40500 0.10800
C 	C 	0.61350 0.43320 0.45550 0.12800
H 	H 	0.61390 0.46510 0.41380 -0.05000
C 	C 	0.70570 0.29570 0.50660 -0.08300
C 	C 	0.76690 0.30882 0.49580 0.19100
C 	C 	0.80890 0.26210 0.48980 -0.14400
H 	H 	0.85070 0.27100 0.48240 0.09300
C 	C 	0.78970 0.20210 0.49460 -0.01900
C 	C 	0.72860 0.18899 0.50550 0.12100
C 	C 	0.68660 0.23580 0.51150 -0.08700
H 	H 	0.64480 0.22680 0.51890 0.05600
O 	O 	0.78360 0.36630 0.48800 -0.27500
C 	C 	0.84760 0.38610 0.51860 0.25000
H 	H 	0.87400 0.36210 0.47810 -0.02700
C 	C 	0.88070 0.37730 0.60620 -0.62700
H 	H 	0.89900 0.41570 0.62440 0.21700
H 	H 	0.91260 0.34670 0.59920 0.23000
H 	H 	0.85180 0.36370 0.65080 0.22400
C 	C 	0.85790 0.45080 0.48430 -0.13300
H 	H 	0.89800 0.46710 0.50140 0.06900
H 	H 	0.85270 0.45370 0.42000 0.07700
C 	C 	0.80560 0.48100 0.53460 -0.31200
H 	H 	0.76950 0.45540 0.53110 0.13600
H 	H 	0.79690 0.52070 0.50860 0.11500
H 	H 	0.81730 0.48630 0.59600 0.11400
O 	O 	0.70970 0.12840 0.50240 -0.24900
C 	C 	0.64490 0.10940 0.48570 0.21100
H 	H 	0.61340 0.13350 0.51750 -0.04500
C 	C 	0.64970 0.12210 0.38780 -0.16000
H 	H 	0.69390 0.12800 0.38120 0.09500
H 	H 	0.63250 0.16350 0.38460 0.07200
C 	C 	0.63290 0.09720 0.29720 -0.25700
H 	H 	0.63190 0.05290 0.29930 0.08300
H 	H 	0.66310 0.11040 0.25420 0.09900
H 	H 	0.59290 0.11250 0.28020 0.09500
C 	C 	0.65270 0.04380 0.51700 -0.48700
H 	H 	0.69210 0.02830 0.49760 0.16100
H 	H 	0.62030 0.01860 0.49240 0.13100
H 	H 	0.65060 0.04250 0.58110 0.14800
C 	C 	0.83760 0.15160 0.48950 0.09300
C 	C 	0.83800 0.10410 0.54920 -0.11900
H 	H 	0.80690 0.10110 0.59210 0.08800
C 	C 	0.88380 0.06090 0.54610 0.07400
H 	H 	0.88400 0.02840 0.58690 0.03600
N 	N 	0.92920 0.06530 0.48340 -0.19000
C 	C 	0.92880 0.11280 0.42370 0.08900
H 	H 	0.95980 0.11580 0.38080 0.08700
C 	C 	0.88300 0.15600 0.42670 -0.12100
H 	H 	0.88270 0.18850 0.38590 0.09300
C 	C 	0.87030 0.35520 0.88600 -0.71500
C 	C 	0.95660 0.34820 0.96850 0.05600
C 	C 	0.98670 0.40550 0.00630 0.01800
C 	C 	0.54810 0.15670 0.97900 -0.32200
C 	C 	0.54670 0.10680 0.09800 -0.04700
F 	F 	0.98800 0.92620 0.24020 -0.63300
F 	F 	0.00870 0.92720 0.74010 -0.78100
N 	N 	0.43420 0.56810 0.01890 -0.28300
C 	C 	0.39090 0.57590 0.08400 0.07900
H 	H 	0.39260 0.55050 0.13420 -0.03100
C 	C 	0.34670 0.61790 0.07920 -0.15600
H 	H 	0.31450 0.61630 0.12060 0.08300
C 	C 	0.34600 0.66380 0.01570 0.10700
C 	C 	0.39420 0.65990 0.95520 -0.14000
H 	H 	0.39780 0.69000 0.91100 0.08900
C 	C 	0.43650 0.61320 0.95850 0.08000
H 	H 	0.46840 0.61280 0.91670 -0.03200
C 	C 	0.30110 0.70830 0.01070 -0.06000
C 	C 	0.23760 0.69160 0.01880 -0.10300
H 	H 	0.22710 0.65020 0.02730 0.07400
C 	C 	0.19280 0.73420 0.01430 0.13700
C 	C 	0.20710 0.79450 0.00370 -0.02400
C 	C 	0.26610 0.81280 0.00460 -0.13400
H 	H 	0.27450 0.85500 0.00320 0.09800
C 	C 	0.31450 0.77260 0.00730 0.17100
O 	O 	0.13370 0.71390 0.01680 -0.21600
C 	C 	0.11270 0.65060 0.98710 0.07200
C 	C 	0.14620 0.62460 0.90640 0.00000
C 	C 	0.04930 0.65010 0.02740 -0.05200
C 	C 	0.00300 0.68170 0.96700 -0.07100
O 	O 	0.37120 0.78610 0.99950 -0.22300
C 	C 	0.38530 0.85400 0.00780 0.07700
C 	C 	0.44760 0.87000 0.96800 -0.00400
C 	C 	0.38640 0.87260 0.10610 -0.00900
C 	C 	0.42370 0.82550 0.15850 -0.01900
C 	C 	0.15720 0.84370 0.00120 0.09200
C 	C 	0.15830 0.88680 0.93530 -0.12200
H 	H 	0.18900 0.88670 0.89170 0.10200
C 	C 	0.11160 0.93130 0.93540 0.12000
H 	H 	0.11330 0.96370 0.89440 0.07200
N 	N 	0.06840 0.92860 0.98830 -0.19700
C 	C 	0.06570 0.88670 0.05510 0.06600
H 	H 	0.03390 0.88870 0.09690 0.04400
C 	C 	0.11100 0.83960 0.06170 -0.11200
H 	H 	0.10910 0.80830 0.10430 0.08900
N 	N 	0.42930 0.56700 0.51480 -0.28200
C 	C 	0.42850 0.61100 0.57940 0.06300
H 	H 	0.45760 0.61050 0.62530 -0.03200
C 	C 	0.38360 0.65700 0.57600 -0.16100
H 	H 	0.38300 0.68860 0.61820 0.08200
C 	C 	0.33990 0.65510 0.50890 0.13500
C 	C 	0.34380 0.60900 0.45090 -0.20500
H 	H 	0.31480 0.60670 0.40500 0.10600
C 	C 	0.38650 0.56680 0.45550 0.12700
H 	H 	0.38610 0.53490 0.41380 -0.05000
C 	C 	0.29430 0.70430 0.50660 -0.07800
C 	C 	0.23310 0.69118 0.49580 0.18100
C 	C 	0.19110 0.73790 0.48980 -0.13500
H 	H 	0.14930 0.72900 0.48240 0.07200
C 	C 	0.21030 0.79790 0.49460 -0.02800
C 	C 	0.27140 0.81101 0.50550 0.12900
C 	C 	0.31340 0.76420 0.51150 -0.09300
H 	H 	0.35520 0.77320 0.51890 0.06000
O 	O 	0.21640 0.63370 0.48800 -0.26900
C 	C 	0.15240 0.61390 0.51860 0.20800
H 	H 	0.12600 0.63790 0.47810 -0.04000
C 	C 	0.11930 0.62270 0.60620 -0.53000
H 	H 	0.10100 0.58430 0.62440 0.15700
H 	H 	0.08740 0.65330 0.59920 0.15300
H 	H 	0.14820 0.63630 0.65080 0.18100
C 	C 	0.14210 0.54920 0.48430 -0.09400
H 	H 	0.10200 0.53290 0.50140 0.02600
H 	H 	0.14730 0.54630 0.42000 0.05000
C 	C 	0.19440 0.51900 0.53460 -0.33800
H 	H 	0.23050 0.54460 0.53110 0.14400
H 	H 	0.20310 0.47930 0.50860 0.11900
H 	H 	0.18270 0.51370 0.59600 0.11600
O 	O 	0.29030 0.87160 0.50240 -0.24700
C 	C 	0.35510 0.89060 0.48570 0.25600
H 	H 	0.38660 0.86650 0.51750 -0.05100
C 	C 	0.35030 0.87790 0.38780 -0.14100
H 	H 	0.30610 0.87200 0.38120 0.09800
H 	H 	0.36750 0.83650 0.38460 0.06800
C 	C 	0.36710 0.90280 0.29720 -0.31700
H 	H 	0.36810 0.94710 0.29930 0.14400
H 	H 	0.33690 0.88960 0.25420 0.13500
H 	H 	0.40710 0.88750 0.28020 0.12800
C 	C 	0.34730 0.95620 0.51700 -0.62200
H 	H 	0.30790 0.97170 0.49760 0.24500
H 	H 	0.37970 0.98140 0.49240 0.22600
H 	H 	0.34940 0.95750 0.58110 0.23000
C 	C 	0.16240 0.84840 0.48950 0.09400
C 	C 	0.16200 0.89590 0.54920 -0.11400
H 	H 	0.19310 0.89890 0.59210 0.10100
C 	C 	0.11620 0.93910 0.54610 0.07700
H 	H 	0.11600 0.97160 0.58690 0.08600
N 	N 	0.07080 0.93470 0.48340 -0.19100
C 	C 	0.07120 0.88720 0.42370 0.08400
H 	H 	0.04020 0.88420 0.38080 0.03700
C 	C 	0.11700 0.84400 0.42670 -0.13200
H 	H 	0.11730 0.81150 0.38590 0.07800
C 	C 	0.12970 0.64480 0.88600 -0.04000
C 	C 	0.04340 0.65180 0.96850 0.06900
C 	C 	0.01330 0.59450 0.00630 -0.07800
C 	C 	0.45190 0.84330 0.97900 0.00100
C 	C 	0.45330 0.89320 0.09800 0.00700
Zn	Zn	0.50000 0.50000 0.02092 1.15300
Zn	Zn	0.50000 0.50000 0.51983 1.14500
Zn	Zn	0.00000 0.00000 0.99105 1.21300
Zn	Zn	0.00000 0.00000 0.48979 1.21300
Si	Si	0.00000 0.00000 0.24050 2.86000
F 	F 	0.00000 0.00000 0.35520 -0.89000
F 	F 	-0.00000 0.00000 0.12570 -0.89600
Si	Si	0.00000 0.00000 0.74210 3.12900
F 	F 	-0.00000 0.00000 0.62770 -0.90600
F 	F 	-0.00000 0.00000 0.85580 -0.93000
