data_crystal

_cell_length_a 22.09270
_cell_length_b 22.09270
_cell_length_c 15.25030
_cell_angle_alpha 90.00000
_cell_angle_beta  90.00000
_cell_angle_gamma 90.00000

_symmetry_space_group_name_	'P 1'
_symmetry_space_group_name_H-M	'P 1'

loop_
_symmetry_equiv_pos_as_xyz
  x,y,z

loop_
_atom_site_label
_atom_site_type_symbol
_atom_site_fract_x
_atom_site_fract_y
_atom_site_fract_z
_atom_site_charge
F 	F 	0.99320 0.92552 0.66200 -0.65900
F 	F 	0.92592 0.01508 0.16650 -0.71600
N 	N 	0.43200 0.43261 0.91150 -0.22600
C 	C 	0.38700 0.43310 0.85570 0.11700
H 	H 	0.38660 0.46460 0.81320 0.04100
C 	C 	0.33990 0.39160 0.85310 -0.14200
H 	H 	0.30860 0.39520 0.81080 0.10400
C 	C 	0.33960 0.34430 0.91430 0.11200
C 	C 	0.39020 0.34240 0.97670 -0.14800
H 	H 	0.39340 0.31170 0.02010 0.10400
C 	C 	0.43130 0.38610 0.96880 0.10700
H 	H 	0.46430 0.38440 0.00870 0.04800
C 	C 	0.29330 0.29690 0.91730 -0.03800
C 	C 	0.23200 0.30770 0.92660 0.13700
C 	C 	0.19150 0.26370 0.92310 -0.11000
H 	H 	0.14980 0.27440 0.92300 0.06800
C 	C 	0.20630 0.20420 0.91950 -0.04800
C 	C 	0.26790 0.18830 0.91890 0.15000
C 	C 	0.31150 0.23680 0.91750 -0.10600
H 	H 	0.35350 0.22750 0.91680 0.07500
C 	C 	0.15860 0.15600 0.91850 0.12500
C 	C 	0.15710 0.11000 0.97800 -0.15700
H 	H 	0.18880 0.10720 0.01990 0.10800
C 	C 	0.11210 0.06800 0.97990 0.08200
H 	H 	0.11120 0.03820 0.02490 0.03100
N 	N 	0.06759 0.06896 0.91590 -0.23400
C 	C 	0.06780 0.11180 0.85430 0.08300
H 	H 	0.03730 0.11380 0.81060 0.03000
C 	C 	0.11660 0.15500 0.85720 -0.15600
H 	H 	0.11870 0.18460 0.81200 0.09000
O 	O 	0.21890 0.36960 0.94010 -0.19600
C 	C 	0.15910 0.38460 0.97040 -0.00400
H 	H 	0.14890 0.36060 0.02320 0.04800
H 	H 	0.12880 0.37550 0.92430 0.03800
C 	C 	0.15840 0.45320 0.99250 0.00800
C 	C 	0.09030 0.46830 0.01610 -0.04100
C 	C 	0.09600 0.45800 0.11940 0.01700
C 	C 	0.15510 0.48570 0.89930 -0.00900
C 	C 	0.31680 0.00940 0.90680 0.01200
C 	C 	0.42430 0.04860 0.89300 -0.03100
C 	C 	0.41070 0.03470 0.99060 -0.06500
O 	O 	0.28340 0.13240 0.94050 -0.21400
C 	C 	0.34470 0.11660 0.96230 0.00200
H 	H 	0.35970 0.14190 0.01130 0.04400
H 	H 	0.37160 0.12230 0.91110 0.04400
C 	C 	0.34210 0.04630 0.99040 -0.00300
C 	C 	0.21240 0.49290 0.96800 0.01000
C 	C 	0.10780 0.46960 0.05780 0.02400
C 	C 	0.10200 0.43800 0.14800 -0.04300
C 	C 	0.29900 0.01500 0.92300 -0.05400
C 	C 	0.40630 0.02600 0.01700 -0.00000
C 	C 	0.38800 0.96100 0.99200 0.06900
F 	F 	0.00680 0.07448 0.66200 -0.78300
F 	F 	0.07408 0.98492 0.16650 -0.66600
N 	N 	0.56800 0.56739 0.91150 -0.22700
C 	C 	0.61300 0.56690 0.85570 0.11800
H 	H 	0.61340 0.53540 0.81320 0.04100
C 	C 	0.66010 0.60840 0.85310 -0.14400
H 	H 	0.69140 0.60480 0.81080 0.10700
C 	C 	0.66040 0.65570 0.91430 0.11600
C 	C 	0.60980 0.65760 0.97670 -0.14900
H 	H 	0.60660 0.68830 0.02010 0.10500
C 	C 	0.56870 0.61390 0.96880 0.10800
H 	H 	0.53570 0.61560 0.00870 0.04800
C 	C 	0.70670 0.70310 0.91730 -0.04100
C 	C 	0.76800 0.69230 0.92660 0.14700
C 	C 	0.80850 0.73630 0.92310 -0.11800
H 	H 	0.85020 0.72560 0.92300 0.08900
C 	C 	0.79370 0.79580 0.91950 -0.03500
C 	C 	0.73210 0.81170 0.91890 0.14800
C 	C 	0.68850 0.76320 0.91750 -0.09900
H 	H 	0.64650 0.77250 0.91680 0.07400
C 	C 	0.84140 0.84400 0.91850 0.13300
C 	C 	0.84290 0.89000 0.97800 -0.14200
H 	H 	0.81120 0.89280 0.01990 0.12000
C 	C 	0.88790 0.93200 0.97990 0.10700
H 	H 	0.88880 0.96180 0.02490 0.08900
N 	N 	0.93241 0.93104 0.91590 -0.17300
C 	C 	0.93220 0.88820 0.85430 0.11800
H 	H 	0.96270 0.88620 0.81060 0.08000
C 	C 	0.88340 0.84500 0.85720 -0.13800
H 	H 	0.88130 0.81540 0.81200 0.10900
O 	O 	0.78110 0.63040 0.94010 -0.19300
C 	C 	0.84090 0.61540 0.97040 -0.01300
H 	H 	0.85110 0.63940 0.02320 0.05600
H 	H 	0.87120 0.62450 0.92430 0.05300
C 	C 	0.84160 0.54680 0.99250 0.00400
C 	C 	0.90970 0.53170 0.01610 0.03800
C 	C 	0.90400 0.54200 0.11940 -0.01700
C 	C 	0.84490 0.51430 0.89930 0.00300
C 	C 	0.68320 0.99060 0.90680 0.03600
C 	C 	0.57570 0.95140 0.89300 0.00200
C 	C 	0.58930 0.96530 0.99060 0.10400
O 	O 	0.71660 0.86760 0.94050 -0.20300
C 	C 	0.65530 0.88340 0.96230 -0.01000
H 	H 	0.64030 0.85810 0.01130 0.05000
H 	H 	0.62840 0.87770 0.91110 0.04600
C 	C 	0.65790 0.95370 0.99040 0.01900
C 	C 	0.78760 0.50710 0.96800 0.01100
C 	C 	0.89220 0.53040 0.05780 -0.02700
C 	C 	0.89800 0.56200 0.14800 0.04600
C 	C 	0.70100 0.98500 0.92300 0.02500
C 	C 	0.59370 0.97400 0.01700 -0.04200
C 	C 	0.61200 0.03900 0.99200 -0.09200
F 	F 	0.07448 0.99320 0.66200 -0.70000
F 	F 	0.98492 0.92592 0.16650 -0.62900
N 	N 	0.56739 0.43200 0.91150 -0.22700
C 	C 	0.56690 0.38700 0.85570 0.11700
H 	H 	0.53540 0.38660 0.81320 0.04100
C 	C 	0.60840 0.33990 0.85310 -0.14300
H 	H 	0.60480 0.30860 0.81080 0.10500
C 	C 	0.65570 0.33960 0.91430 0.11300
C 	C 	0.65760 0.39020 0.97670 -0.14800
H 	H 	0.68830 0.39340 0.02010 0.10500
C 	C 	0.61390 0.43130 0.96880 0.10800
H 	H 	0.61560 0.46430 0.00870 0.04800
C 	C 	0.70310 0.29330 0.91730 -0.03800
C 	C 	0.69230 0.23200 0.92660 0.13900
C 	C 	0.73630 0.19150 0.92310 -0.11200
H 	H 	0.72560 0.14980 0.92300 0.06900
C 	C 	0.79580 0.20630 0.91950 -0.04400
C 	C 	0.81170 0.26790 0.91890 0.15100
C 	C 	0.76320 0.31150 0.91750 -0.10300
H 	H 	0.77250 0.35350 0.91680 0.07600
C 	C 	0.84400 0.15860 0.91850 0.12700
C 	C 	0.89000 0.15710 0.97800 -0.14500
H 	H 	0.89280 0.18880 0.01990 0.11800
C 	C 	0.93200 0.11210 0.97990 0.09500
H 	H 	0.96180 0.11120 0.02490 0.08300
N 	N 	0.93104 0.06759 0.91590 -0.20000
C 	C 	0.88820 0.06780 0.85430 0.09900
H 	H 	0.88620 0.03730 0.81060 0.04200
C 	C 	0.84500 0.11660 0.85720 -0.14800
H 	H 	0.81540 0.11870 0.81200 0.09300
O 	O 	0.63040 0.21890 0.94010 -0.19600
C 	C 	0.61540 0.15910 0.97040 -0.00400
H 	H 	0.63940 0.14890 0.02320 0.04900
H 	H 	0.62450 0.12880 0.92430 0.03800
C 	C 	0.54680 0.15840 0.99250 0.00800
C 	C 	0.53170 0.09030 0.01610 -0.04000
C 	C 	0.54200 0.09600 0.11940 0.01700
C 	C 	0.51430 0.15510 0.89930 -0.00900
C 	C 	0.99060 0.31680 0.90680 0.03700
C 	C 	0.95140 0.42430 0.89300 0.00200
C 	C 	0.96530 0.41070 0.99060 0.10600
O 	O 	0.86760 0.28340 0.94050 -0.20400
C 	C 	0.88340 0.34470 0.96230 -0.00900
H 	H 	0.85810 0.35970 0.01130 0.05000
H 	H 	0.87770 0.37160 0.91110 0.04600
C 	C 	0.95370 0.34210 0.99040 0.01900
C 	C 	0.50710 0.21240 0.96800 0.01000
C 	C 	0.53040 0.10780 0.05780 0.02300
C 	C 	0.56200 0.10200 0.14800 -0.04200
C 	C 	0.98500 0.29900 0.92300 0.02500
C 	C 	0.97400 0.40630 0.01700 -0.04200
C 	C 	0.03900 0.38800 0.99200 -0.09400
F 	F 	0.92552 0.00680 0.66200 -0.73300
F 	F 	0.01508 0.07408 0.16650 -0.76400
N 	N 	0.43261 0.56800 0.91150 -0.22700
C 	C 	0.43310 0.61300 0.85570 0.11800
H 	H 	0.46460 0.61340 0.81320 0.04100
C 	C 	0.39160 0.66010 0.85310 -0.14400
H 	H 	0.39520 0.69140 0.81080 0.10700
C 	C 	0.34430 0.66040 0.91430 0.11500
C 	C 	0.34240 0.60980 0.97670 -0.14900
H 	H 	0.31170 0.60660 0.02010 0.10500
C 	C 	0.38610 0.56870 0.96880 0.10800
H 	H 	0.38440 0.53570 0.00870 0.04800
C 	C 	0.29690 0.70670 0.91730 -0.04100
C 	C 	0.30770 0.76800 0.92660 0.14500
C 	C 	0.26370 0.80850 0.92310 -0.11700
H 	H 	0.27440 0.85020 0.92300 0.08900
C 	C 	0.20420 0.79370 0.91950 -0.03900
C 	C 	0.18830 0.73210 0.91890 0.14800
C 	C 	0.23680 0.68850 0.91750 -0.10100
H 	H 	0.22750 0.64650 0.91680 0.07400
C 	C 	0.15600 0.84140 0.91850 0.13100
C 	C 	0.11000 0.84290 0.97800 -0.15300
H 	H 	0.10720 0.81120 0.01990 0.11100
C 	C 	0.06800 0.88790 0.97990 0.09600
H 	H 	0.03820 0.88880 0.02490 0.04200
N 	N 	0.06896 0.93241 0.91590 -0.20200
C 	C 	0.11180 0.93220 0.85430 0.10400
H 	H 	0.11380 0.96270 0.81060 0.07100
C 	C 	0.15500 0.88340 0.85720 -0.14500
H 	H 	0.18460 0.88130 0.81200 0.10600
O 	O 	0.36960 0.78110 0.94010 -0.19300
C 	C 	0.38460 0.84090 0.97040 -0.01300
H 	H 	0.36060 0.85110 0.02320 0.05600
H 	H 	0.37550 0.87120 0.92430 0.05300
C 	C 	0.45320 0.84160 0.99250 0.00400
C 	C 	0.46830 0.90970 0.01610 0.03800
C 	C 	0.45800 0.90400 0.11940 -0.01700
C 	C 	0.48570 0.84490 0.89930 0.00300
C 	C 	0.00940 0.68320 0.90680 0.01300
C 	C 	0.04860 0.57570 0.89300 -0.03100
C 	C 	0.03470 0.58930 0.99060 -0.06300
O 	O 	0.13240 0.71660 0.94050 -0.21300
C 	C 	0.11660 0.65530 0.96230 0.00100
H 	H 	0.14190 0.64030 0.01130 0.04400
H 	H 	0.12230 0.62840 0.91110 0.04500
C 	C 	0.04630 0.65790 0.99040 -0.00200
C 	C 	0.49290 0.78760 0.96800 0.01100
C 	C 	0.46960 0.89220 0.05780 -0.02700
C 	C 	0.43800 0.89800 0.14800 0.04700
C 	C 	0.01500 0.70100 0.92300 -0.05300
C 	C 	0.02600 0.59370 0.01700 -0.00100
C 	C 	0.96100 0.61200 0.99200 0.06600
Zn	Zn	0.00000 0.00000 0.91736 1.21700
Si	Si	-0.00000 0.00000 0.66500 3.03500
Si	Si	-0.00000 0.00000 0.16510 2.90400
F 	F 	0.00000 0.00000 0.78200 -0.89900
F 	F 	0.00000 0.00000 0.55800 -0.95200
F 	F 	0.00000 0.00000 0.05270 -0.92100
F 	F 	0.00000 0.00000 0.27650 -0.91000
Zn	Zn	0.50000 0.50000 0.91515 1.25900
N 	N 	0.93200 0.93261 0.41150 -0.18000
C 	C 	0.88700 0.93310 0.35570 0.12200
H 	H 	0.88660 0.96460 0.31320 0.08100
C 	C 	0.83990 0.89160 0.35310 -0.12900
H 	H 	0.80860 0.89520 0.31080 0.11100
C 	C 	0.83960 0.84430 0.41430 0.11500
C 	C 	0.89020 0.84240 0.47670 -0.13100
H 	H 	0.89340 0.81170 0.52010 0.11100
C 	C 	0.93130 0.88610 0.46880 0.12300
H 	H 	0.96430 0.88440 0.50870 0.07900
C 	C 	0.79330 0.79690 0.41730 -0.03100
C 	C 	0.73200 0.80770 0.42660 0.14200
C 	C 	0.69150 0.76370 0.42310 -0.11100
H 	H 	0.64980 0.77440 0.42300 0.07900
C 	C 	0.70630 0.70420 0.41950 -0.04300
C 	C 	0.76790 0.68830 0.41890 0.15500
C 	C 	0.81150 0.73680 0.41750 -0.10600
H 	H 	0.85350 0.72750 0.41680 0.08900
C 	C 	0.65860 0.65600 0.41850 0.13100
C 	C 	0.65710 0.61000 0.47800 -0.14800
H 	H 	0.68880 0.60720 0.51990 0.11200
C 	C 	0.61210 0.56800 0.47990 0.10100
H 	H 	0.61120 0.53820 0.52490 0.04700
N 	N 	0.56759 0.56896 0.41590 -0.21800
C 	C 	0.56780 0.61180 0.35430 0.10200
H 	H 	0.53730 0.61380 0.31060 0.04600
C 	C 	0.61660 0.65500 0.35720 -0.15000
H 	H 	0.61870 0.68460 0.31200 0.10100
O 	O 	0.71890 0.86960 0.44010 -0.19200
C 	C 	0.65910 0.88460 0.47040 0.00400
H 	H 	0.64890 0.86060 0.52320 0.04700
H 	H 	0.62880 0.87550 0.42430 0.04400
C 	C 	0.65840 0.95320 0.49250 -0.00500
C 	C 	0.59030 0.96830 0.51610 0.03700
C 	C 	0.59600 0.95800 0.61940 -0.01000
C 	C 	0.65510 0.98570 0.39930 0.03500
C 	C 	0.81680 0.50940 0.40680 0.02500
C 	C 	0.92430 0.54860 0.39300 0.02600
C 	C 	0.91070 0.53470 0.49060 0.02100
O 	O 	0.78340 0.63240 0.44050 -0.20800
C 	C 	0.84470 0.61660 0.46230 -0.00400
H 	H 	0.85970 0.64190 0.51130 0.05600
H 	H 	0.87160 0.62230 0.41110 0.05500
C 	C 	0.84210 0.54630 0.49040 0.01000
C 	C 	0.71240 0.99290 0.46800 0.05700
C 	C 	0.60780 0.96960 0.55780 -0.00300
C 	C 	0.60200 0.93800 0.64800 0.03800
C 	C 	0.79900 0.51500 0.42300 -0.01400
C 	C 	0.90630 0.52600 0.51700 -0.00300
C 	C 	0.88800 0.46100 0.49200 -0.00900
F 	F 	0.49320 0.42552 0.16200 -0.81100
F 	F 	0.42592 0.51508 0.66650 -0.78100
N 	N 	0.06800 0.06739 0.41150 -0.24600
C 	C 	0.11300 0.06690 0.35570 0.10600
H 	H 	0.11340 0.03540 0.31320 0.01900
C 	C 	0.16010 0.10840 0.35310 -0.14900
H 	H 	0.19140 0.10480 0.31080 0.09800
C 	C 	0.16040 0.15570 0.41430 0.10700
C 	C 	0.10980 0.15760 0.47670 -0.15000
H 	H 	0.10660 0.18830 0.52010 0.08700
C 	C 	0.06870 0.11390 0.46880 0.09600
H 	H 	0.03570 0.11560 0.50870 0.02400
C 	C 	0.20670 0.20310 0.41730 -0.04400
C 	C 	0.26800 0.19230 0.42660 0.14300
C 	C 	0.30850 0.23630 0.42310 -0.11700
H 	H 	0.35020 0.22560 0.42300 0.07900
C 	C 	0.29370 0.29580 0.41950 -0.04000
C 	C 	0.23210 0.31170 0.41890 0.14600
C 	C 	0.18850 0.26320 0.41750 -0.10000
H 	H 	0.14650 0.27250 0.41680 0.06300
C 	C 	0.34140 0.34400 0.41850 0.12700
C 	C 	0.34290 0.39000 0.47800 -0.14600
H 	H 	0.31120 0.39280 0.51990 0.10900
C 	C 	0.38790 0.43200 0.47990 0.09900
H 	H 	0.38880 0.46180 0.52490 0.04700
N 	N 	0.43241 0.43104 0.41590 -0.21800
C 	C 	0.43220 0.38820 0.35430 0.10100
H 	H 	0.46270 0.38620 0.31060 0.04600
C 	C 	0.38340 0.34500 0.35720 -0.14800
H 	H 	0.38130 0.31540 0.31200 0.09900
O 	O 	0.28110 0.13040 0.44010 -0.19900
C 	C 	0.34090 0.11540 0.47040 -0.00800
H 	H 	0.35110 0.13940 0.52320 0.04800
H 	H 	0.37120 0.12450 0.42430 0.04400
C 	C 	0.34160 0.04680 0.49250 0.02200
C 	C 	0.40970 0.03170 0.51610 -0.05600
C 	C 	0.40400 0.04200 0.61940 0.01600
C 	C 	0.34490 0.01430 0.39930 -0.04000
C 	C 	0.18320 0.49060 0.40680 0.02400
C 	C 	0.07570 0.45140 0.39300 -0.04500
C 	C 	0.08930 0.46530 0.49060 -0.01900
O 	O 	0.21660 0.36760 0.44050 -0.21200
C 	C 	0.15530 0.38340 0.46230 0.01200
H 	H 	0.14030 0.35810 0.51130 0.02700
H 	H 	0.12840 0.37770 0.41110 0.03100
C 	C 	0.15790 0.45370 0.49040 0.00800
C 	C 	0.28760 0.00710 0.46800 -0.03400
C 	C 	0.39220 0.03040 0.55780 0.00700
C 	C 	0.39800 0.06200 0.64800 -0.04300
C 	C 	0.20100 0.48500 0.42300 -0.01400
C 	C 	0.09370 0.47400 0.51700 -0.00700
C 	C 	0.11200 0.53900 0.49200 -0.01200
F 	F 	0.50680 0.57448 0.16200 -0.81000
F 	F 	0.57408 0.48492 0.66650 -0.78100
N 	N 	0.06739 0.93200 0.41150 -0.21200
C 	C 	0.06690 0.88700 0.35570 0.11500
H 	H 	0.03540 0.88660 0.31320 0.03100
C 	C 	0.10840 0.83990 0.35310 -0.14100
H 	H 	0.10480 0.80860 0.31080 0.10100
C 	C 	0.15570 0.83960 0.41430 0.11200
C 	C 	0.15760 0.89020 0.47670 -0.13700
H 	H 	0.18830 0.89340 0.52010 0.10900
C 	C 	0.11390 0.93130 0.46880 0.11200
H 	H 	0.11560 0.96430 0.50870 0.07000
C 	C 	0.20310 0.79330 0.41730 -0.03300
C 	C 	0.19230 0.73200 0.42660 0.13900
C 	C 	0.23630 0.69150 0.42310 -0.11100
H 	H 	0.22560 0.64980 0.42300 0.07800
C 	C 	0.29580 0.70630 0.41950 -0.04300
C 	C 	0.31170 0.76790 0.41890 0.15400
C 	C 	0.26320 0.81150 0.41750 -0.10600
H 	H 	0.27250 0.85350 0.41680 0.08900
C 	C 	0.34400 0.65860 0.41850 0.13000
C 	C 	0.39000 0.65710 0.47800 -0.14800
H 	H 	0.39280 0.68880 0.51990 0.11100
C 	C 	0.43200 0.61210 0.47990 0.10100
H 	H 	0.46180 0.61120 0.52490 0.04700
N 	N 	0.43104 0.56759 0.41590 -0.21800
C 	C 	0.38820 0.56780 0.35430 0.10200
H 	H 	0.38620 0.53730 0.31060 0.04600
C 	C 	0.34500 0.61660 0.35720 -0.14900
H 	H 	0.31540 0.61870 0.31200 0.10000
O 	O 	0.13040 0.71890 0.44010 -0.19700
C 	C 	0.11540 0.65910 0.47040 -0.00900
H 	H 	0.13940 0.64890 0.52320 0.04900
H 	H 	0.12450 0.62880 0.42430 0.04500
C 	C 	0.04680 0.65840 0.49250 0.02200
C 	C 	0.03170 0.59030 0.51610 -0.05500
C 	C 	0.04200 0.59600 0.61940 0.01700
C 	C 	0.01430 0.65510 0.39930 -0.03900
C 	C 	0.49060 0.81680 0.40680 0.02500
C 	C 	0.45140 0.92430 0.39300 0.02700
C 	C 	0.46530 0.91070 0.49060 0.02200
O 	O 	0.36760 0.78340 0.44050 -0.20800
C 	C 	0.38340 0.84470 0.46230 -0.00400
H 	H 	0.35810 0.85970 0.51130 0.05600
H 	H 	0.37770 0.87160 0.41110 0.05600
C 	C 	0.45370 0.84210 0.49040 0.01000
C 	C 	0.00710 0.71240 0.46800 -0.03200
C 	C 	0.03040 0.60780 0.55780 0.00600
C 	C 	0.06200 0.60200 0.64800 -0.04300
C 	C 	0.48500 0.79900 0.42300 -0.01400
C 	C 	0.47400 0.90630 0.51700 -0.00300
C 	C 	0.53900 0.88800 0.49200 -0.00900
F 	F 	0.57448 0.49320 0.16200 -0.81000
F 	F 	0.48492 0.42592 0.66650 -0.78100
N 	N 	0.93261 0.06800 0.41150 -0.21000
C 	C 	0.93310 0.11300 0.35570 0.11400
H 	H 	0.96460 0.11340 0.31320 0.07400
C 	C 	0.89160 0.16010 0.35310 -0.13500
H 	H 	0.89520 0.19140 0.31080 0.11000
C 	C 	0.84430 0.16040 0.41430 0.11000
C 	C 	0.84240 0.10980 0.47670 -0.14300
H 	H 	0.81170 0.10660 0.52010 0.09000
C 	C 	0.88610 0.06870 0.46880 0.10800
H 	H 	0.88440 0.03570 0.50870 0.03600
C 	C 	0.79690 0.20670 0.41730 -0.04100
C 	C 	0.80770 0.26800 0.42660 0.14500
C 	C 	0.76370 0.30850 0.42310 -0.11600
H 	H 	0.77440 0.35020 0.42300 0.08000
C 	C 	0.70420 0.29370 0.41950 -0.04000
C 	C 	0.68830 0.23210 0.41890 0.14700
C 	C 	0.73680 0.18850 0.41750 -0.10000
H 	H 	0.72750 0.14650 0.41680 0.06300
C 	C 	0.65600 0.34140 0.41850 0.12800
C 	C 	0.61000 0.34290 0.47800 -0.14600
H 	H 	0.60720 0.31120 0.51990 0.11000
C 	C 	0.56800 0.38790 0.47990 0.10000
H 	H 	0.53820 0.38880 0.52490 0.04700
N 	N 	0.56896 0.43241 0.41590 -0.21800
C 	C 	0.61180 0.43220 0.35430 0.10100
H 	H 	0.61380 0.46270 0.31060 0.04600
C 	C 	0.65500 0.38340 0.35720 -0.14800
H 	H 	0.68460 0.38130 0.31200 0.10000
O 	O 	0.86960 0.28110 0.44010 -0.19300
C 	C 	0.88460 0.34090 0.47040 0.00500
H 	H 	0.86060 0.35110 0.52320 0.04600
H 	H 	0.87550 0.37120 0.42430 0.04300
C 	C 	0.95320 0.34160 0.49250 -0.00600
C 	C 	0.96830 0.40970 0.51610 0.03700
C 	C 	0.95800 0.40400 0.61940 -0.01000
C 	C 	0.98570 0.34490 0.39930 0.03600
C 	C 	0.50940 0.18320 0.40680 0.02400
C 	C 	0.54860 0.07570 0.39300 -0.04500
C 	C 	0.53470 0.08930 0.49060 -0.01800
O 	O 	0.63240 0.21660 0.44050 -0.21200
C 	C 	0.61660 0.15530 0.46230 0.01100
H 	H 	0.64190 0.14030 0.51130 0.02800
H 	H 	0.62230 0.12840 0.41110 0.03200
C 	C 	0.54630 0.15790 0.49040 0.00800
C 	C 	0.99290 0.28760 0.46800 0.05900
C 	C 	0.96960 0.39220 0.55780 -0.00300
C 	C 	0.93800 0.39800 0.64800 0.03700
C 	C 	0.51500 0.20100 0.42300 -0.01500
C 	C 	0.52600 0.09370 0.51700 -0.00700
C 	C 	0.46100 0.11200 0.49200 -0.01200
F 	F 	0.42552 0.50680 0.16200 -0.81100
F 	F 	0.51508 0.57408 0.66650 -0.78100
Zn	Zn	0.00000 0.00000 0.41515 1.21500
Zn	Zn	0.50000 0.50000 0.41736 1.26000
Si	Si	0.50000 0.50000 0.16500 3.46700
Si	Si	0.50000 0.50000 0.66510 3.31400
F 	F 	0.50000 0.50000 0.28200 -0.87500
F 	F 	0.50000 0.50000 0.05800 -0.93800
F 	F 	0.50000 0.50000 0.55270 -0.90300
F 	F 	0.50000 0.50000 0.77650 -0.89000
