data_crystal

_cell_length_a 8.88410
_cell_length_b 12.05800
_cell_length_c 16.57630
_cell_angle_alpha 90.00000
_cell_angle_beta  90.00000
_cell_angle_gamma 109.25200

_symmetry_space_group_name_	'P 1'
_symmetry_space_group_name_H-M	'P 1'

loop_
_symmetry_equiv_pos_as_xyz
  x,y,z

loop_
_atom_site_label
_atom_site_type_symbol
_atom_site_fract_x
_atom_site_fract_y
_atom_site_fract_z
_atom_site_charge
Eu	Eu	0.93332 0.45230 0.88254 2.02600
Eu	Eu	0.56668 0.54770 0.38254 2.02800
Eu	Eu	0.06668 0.54770 0.11746 2.02600
Eu	Eu	0.43332 0.45230 0.61746 2.02800
H 	H 	0.47110 0.78080 0.93370 0.12600
H 	H 	0.38010 0.86260 0.96710 0.12600
H 	H 	0.62980 0.96520 0.93310 0.05100
H 	H 	0.82150 0.14190 0.90060 0.09200
H 	H 	0.59720 0.15320 0.69370 0.10500
H 	H 	0.40500 0.97500 0.72520 0.05700
H 	H 	0.91060 0.22460 0.67690 0.11800
H 	H 	0.82810 0.32110 0.66720 0.11300
H 	H 	0.62040 0.63860 0.98980 0.10400
H 	H 	0.75360 0.70530 0.92840 0.09100
H 	H 	0.98760 0.83450 0.92590 0.05600
H 	H 	0.79600 0.99590 0.08680 0.07800
H 	H 	0.02890 0.21920 0.43370 0.12700
H 	H 	0.11990 0.13740 0.46710 0.12600
H 	H 	0.87020 0.03480 0.43310 0.05300
H 	H 	0.67850 0.85810 0.40060 0.09100
H 	H 	0.90280 0.84680 0.19370 0.10300
H 	H 	0.09500 0.02500 0.22520 0.06000
H 	H 	0.58940 0.77540 0.17690 0.11800
H 	H 	0.67190 0.67890 0.16720 0.11300
H 	H 	0.87960 0.36140 0.48980 0.10300
H 	H 	0.74640 0.29470 0.42840 0.09000
H 	H 	0.51240 0.16550 0.42590 0.05400
H 	H 	0.70400 0.00410 0.58680 0.07900
H 	H 	0.52890 0.21920 0.06630 0.12600
H 	H 	0.61990 0.13740 0.03290 0.12600
H 	H 	0.37020 0.03480 0.06690 0.05100
H 	H 	0.17850 0.85810 0.09940 0.09200
H 	H 	0.40280 0.84680 0.30630 0.10500
H 	H 	0.59500 0.02500 0.27480 0.05700
H 	H 	0.08940 0.77540 0.32310 0.11800
H 	H 	0.17190 0.67890 0.33280 0.11300
H 	H 	0.37960 0.36140 0.01020 0.10400
H 	H 	0.24640 0.29470 0.07160 0.09100
H 	H 	0.01240 0.16550 0.07410 0.05600
H 	H 	0.20400 0.00410 0.91320 0.07800
H 	H 	0.97110 0.78080 0.56630 0.12700
H 	H 	0.88010 0.86260 0.53290 0.12600
H 	H 	0.12980 0.96520 0.56690 0.05300
H 	H 	0.32150 0.14190 0.59940 0.09100
H 	H 	0.09720 0.15320 0.80630 0.10300
H 	H 	0.90500 0.97500 0.77480 0.06000
H 	H 	0.41060 0.22460 0.82310 0.11800
H 	H 	0.32810 0.32110 0.83280 0.11300
H 	H 	0.12040 0.63860 0.51020 0.10300
H 	H 	0.25360 0.70530 0.57160 0.09000
H 	H 	0.48760 0.83450 0.57410 0.05400
H 	H 	0.29600 0.99590 0.41320 0.07900
C 	C 	0.22960 0.69530 0.94340 0.51700
C 	C 	0.37590 0.80250 0.92750 -0.27600
C 	C 	0.49520 0.95330 0.83300 0.09200
C 	C 	0.62200 0.00310 0.88510 -0.04700
C 	C 	0.73640 0.10890 0.86580 -0.15000
C 	C 	0.72500 0.16510 0.79560 0.20100
C 	C 	0.60270 0.11560 0.74210 -0.15700
C 	C 	0.48770 0.00910 0.76110 -0.04100
C 	C 	0.90080 0.29570 0.70020 -0.23100
C 	C 	0.06250 0.39090 0.70370 0.46800
C 	C 	0.84220 0.64040 0.02470 0.47000
C 	C 	0.72810 0.69350 0.98530 -0.24100
C 	C 	0.86950 0.89770 0.00870 0.13700
C 	C 	0.99220 0.90080 0.95590 -0.08600
C 	C 	0.87840 0.99720 0.05180 -0.09700
C 	C 	0.27040 0.30470 0.44340 0.51600
C 	C 	0.12410 0.19750 0.42750 -0.27600
C 	C 	0.00480 0.04670 0.33300 0.09600
C 	C 	0.87800 0.99690 0.38510 -0.05100
C 	C 	0.76360 0.89110 0.36580 -0.14600
C 	C 	0.77500 0.83490 0.29560 0.19800
C 	C 	0.89730 0.88440 0.24210 -0.15000
C 	C 	0.01230 0.99090 0.26110 -0.04900
C 	C 	0.59920 0.70430 0.20020 -0.23000
C 	C 	0.43750 0.60910 0.20370 0.46700
C 	C 	0.65780 0.35960 0.52470 0.46600
C 	C 	0.77190 0.30650 0.48530 -0.23600
C 	C 	0.63050 0.10230 0.50870 0.13500
C 	C 	0.50780 0.09920 0.45590 -0.08000
C 	C 	0.62160 0.00280 0.55180 -0.10200
C 	C 	0.77040 0.30470 0.05660 0.51700
C 	C 	0.62410 0.19750 0.07250 -0.27600
C 	C 	0.50480 0.04670 0.16700 0.09200
C 	C 	0.37800 0.99690 0.11490 -0.04700
C 	C 	0.26360 0.89110 0.13420 -0.15000
C 	C 	0.27500 0.83490 0.20440 0.20100
C 	C 	0.39730 0.88440 0.25790 -0.15700
C 	C 	0.51230 0.99090 0.23890 -0.04100
C 	C 	0.09920 0.70430 0.29980 -0.23100
C 	C 	0.93750 0.60910 0.29630 0.46800
C 	C 	0.15780 0.35960 0.97530 0.47000
C 	C 	0.27190 0.30650 0.01470 -0.24100
C 	C 	0.13050 0.10230 0.99130 0.13700
C 	C 	0.00780 0.09920 0.04410 -0.08600
C 	C 	0.12160 0.00280 0.94820 -0.09700
C 	C 	0.72960 0.69530 0.55660 0.51600
C 	C 	0.87590 0.80250 0.57250 -0.27600
C 	C 	0.99520 0.95330 0.66700 0.09600
C 	C 	0.12200 0.00310 0.61490 -0.05100
C 	C 	0.23640 0.10890 0.63420 -0.14600
C 	C 	0.22500 0.16510 0.70440 0.19800
C 	C 	0.10270 0.11560 0.75790 -0.15000
C 	C 	0.98770 0.00910 0.73890 -0.04900
C 	C 	0.40080 0.29570 0.79980 -0.23000
C 	C 	0.56250 0.39090 0.79630 0.46700
C 	C 	0.34220 0.64040 0.47530 0.46600
C 	C 	0.22810 0.69350 0.51470 -0.23600
C 	C 	0.36950 0.89770 0.49130 0.13500
C 	C 	0.49220 0.90080 0.54410 -0.08000
C 	C 	0.37840 0.99720 0.44820 -0.10200
O 	O 	0.15720 0.63080 0.88610 -0.50700
O 	O 	0.19790 0.68110 0.01650 -0.52500
O 	O 	0.37420 0.84910 0.84900 -0.14900
O 	O 	0.84150 0.27380 0.78160 -0.30200
O 	O 	0.14940 0.40000 0.64310 -0.49300
O 	O 	0.09510 0.45520 0.76500 -0.50200
O 	O 	0.86960 0.55780 0.98810 -0.59600
O 	O 	0.90130 0.67510 0.09140 -0.45600
O 	O 	0.73380 0.80270 0.02040 -0.17200
O 	O 	0.34280 0.36920 0.38610 -0.50800
O 	O 	0.30210 0.31890 0.51650 -0.52500
O 	O 	0.12580 0.15090 0.34900 -0.15000
O 	O 	0.65850 0.72620 0.28160 -0.30200
O 	O 	0.35060 0.60000 0.14310 -0.49200
O 	O 	0.40490 0.54480 0.26500 -0.50300
O 	O 	0.63040 0.44220 0.48810 -0.59400
O 	O 	0.59870 0.32490 0.59140 -0.45600
O 	O 	0.76620 0.19730 0.52040 -0.17300
O 	O 	0.84280 0.36920 0.11390 -0.50700
O 	O 	0.80210 0.31890 0.98350 -0.52500
O 	O 	0.62580 0.15090 0.15100 -0.14900
O 	O 	0.15850 0.72620 0.21840 -0.30200
O 	O 	0.85060 0.60000 0.35690 -0.49300
O 	O 	0.90490 0.54480 0.23500 -0.50200
O 	O 	0.13040 0.44220 0.01190 -0.59600
O 	O 	0.09870 0.32490 0.90860 -0.45600
O 	O 	0.26620 0.19730 0.97960 -0.17200
O 	O 	0.65720 0.63080 0.61390 -0.50800
O 	O 	0.69790 0.68110 0.48350 -0.52500
O 	O 	0.87420 0.84910 0.65100 -0.15000
O 	O 	0.34150 0.27380 0.71840 -0.30200
O 	O 	0.64940 0.40000 0.85690 -0.49200
O 	O 	0.59510 0.45520 0.73500 -0.50300
O 	O 	0.36960 0.55780 0.51190 -0.59400
O 	O 	0.40130 0.67510 0.40860 -0.45600
O 	O 	0.23380 0.80270 0.47960 -0.17300
