data_crystal

_cell_length_a 8.88530
_cell_length_b 12.07820
_cell_length_c 16.59030
_cell_angle_alpha 90.00000
_cell_angle_beta  90.00000
_cell_angle_gamma 109.33000

_symmetry_space_group_name_	'P 1'
_symmetry_space_group_name_H-M	'P 1'

loop_
_symmetry_equiv_pos_as_xyz
  x,y,z

loop_
_atom_site_label
_atom_site_type_symbol
_atom_site_fract_x
_atom_site_fract_y
_atom_site_fract_z
_atom_site_charge
Eu	Eu	0.56684 0.54759 0.38247 2.02200
Eu	Eu	0.43316 0.45240 0.61753 2.02200
Eu	Eu	0.06684 0.54759 0.11753 2.02000
Eu	Eu	0.93316 0.45240 0.88247 2.02000
H 	H 	0.40350 0.84690 0.30610 0.10600
H 	H 	0.01200 0.16560 0.07390 0.05700
H 	H 	0.48800 0.83440 0.57390 0.05500
H 	H 	0.37920 0.36150 0.00900 0.10700
H 	H 	0.67220 0.67940 0.16770 0.11700
H 	H 	0.75250 0.70490 0.92890 0.09300
H 	H 	0.32240 0.14150 0.59950 0.09100
H 	H 	0.47080 0.78080 0.93310 0.12800
H 	H 	0.59650 0.15310 0.69390 0.10600
H 	H 	0.70330 0.00460 0.58740 0.07900
H 	H 	0.62800 0.96520 0.93360 0.05100
H 	H 	0.25250 0.70490 0.57110 0.09100
H 	H 	0.37200 0.03480 0.06640 0.05100
H 	H 	0.32780 0.32060 0.83230 0.11600
H 	H 	0.41070 0.22470 0.82240 0.12000
H 	H 	0.82780 0.32060 0.66770 0.11600
H 	H 	0.90440 0.97430 0.77460 0.06000
H 	H 	0.17760 0.85850 0.09950 0.09100
H 	H 	0.87200 0.03480 0.43360 0.05300
H 	H 	0.91070 0.22470 0.67760 0.12000
H 	H 	0.62040 0.13800 0.03320 0.12600
H 	H 	0.09560 0.02570 0.22540 0.06000
H 	H 	0.12800 0.96520 0.56640 0.05300
H 	H 	0.17220 0.67940 0.33230 0.11600
H 	H 	0.79670 0.99540 0.08740 0.07700
H 	H 	0.52920 0.21920 0.06690 0.12700
H 	H 	0.74750 0.29510 0.42890 0.09100
H 	H 	0.37960 0.86200 0.96680 0.12600
H 	H 	0.29670 0.99540 0.41260 0.07800
H 	H 	0.12080 0.63850 0.50900 0.10500
H 	H 	0.59560 0.02570 0.27460 0.05700
H 	H 	0.97080 0.78080 0.56690 0.12700
H 	H 	0.58930 0.77530 0.17760 0.12000
H 	H 	0.98800 0.83440 0.92610 0.05600
H 	H 	0.62080 0.63850 0.99100 0.10600
H 	H 	0.87960 0.86200 0.53320 0.12700
H 	H 	0.51200 0.16560 0.42610 0.05400
H 	H 	0.67760 0.85850 0.40050 0.09000
H 	H 	0.20330 0.00460 0.91260 0.07700
H 	H 	0.09650 0.15310 0.80610 0.10300
H 	H 	0.87920 0.36150 0.49100 0.10500
H 	H 	0.24750 0.29510 0.07110 0.09200
H 	H 	0.12040 0.13800 0.46680 0.12700
H 	H 	0.90350 0.84690 0.19390 0.10300
H 	H 	0.02920 0.21920 0.43310 0.12700
H 	H 	0.08930 0.77530 0.32240 0.12000
H 	H 	0.40440 0.97430 0.72540 0.05700
H 	H 	0.82240 0.14150 0.90050 0.09100
C 	C 	0.27500 0.83510 0.20446 0.19900
C 	C 	0.62470 0.19790 0.07293 -0.27900
C 	C 	0.49600 0.95350 0.83318 0.09100
C 	C 	0.13050 0.10250 0.99138 0.13500
C 	C 	0.12130 0.00290 0.94791 -0.09600
C 	C 	0.40080 0.29580 0.79925 -0.24000
C 	C 	0.73050 0.69530 0.55653 0.51600
C 	C 	0.00770 0.09940 0.04411 -0.08600
C 	C 	0.15760 0.35930 0.97584 0.47200
C 	C 	0.09920 0.70420 0.29925 -0.24100
C 	C 	0.23050 0.69530 0.94347 0.51700
C 	C 	0.12120 0.00280 0.61455 -0.05400
C 	C 	0.84240 0.64070 0.02416 0.47200
C 	C 	0.22830 0.69340 0.51410 -0.24300
C 	C 	0.26310 0.89130 0.13408 -0.14700
C 	C 	0.34240 0.64070 0.47584 0.46800
C 	C 	0.10230 0.11550 0.75789 -0.14900
C 	C 	0.49230 0.90060 0.54411 -0.08000
C 	C 	0.65760 0.35930 0.52416 0.46800
C 	C 	0.37530 0.80210 0.92707 -0.27900
C 	C 	0.56110 0.39040 0.79662 0.47000
C 	C 	0.87880 0.99720 0.38545 -0.05400
C 	C 	0.63050 0.10250 0.50862 0.13300
C 	C 	0.27170 0.30660 0.01410 -0.24800
C 	C 	0.00400 0.04650 0.33318 0.09600
C 	C 	0.87530 0.80210 0.57293 -0.27900
C 	C 	0.26950 0.30470 0.44347 0.51600
C 	C 	0.51270 0.99140 0.23880 -0.04100
C 	C 	0.37880 0.99720 0.11455 -0.05000
C 	C 	0.62120 0.00280 0.88545 -0.05000
C 	C 	0.60230 0.11550 0.74211 -0.15600
C 	C 	0.48730 0.00860 0.76120 -0.04100
C 	C 	0.72500 0.16490 0.79554 0.19900
C 	C 	0.37870 0.99710 0.44791 -0.10100
C 	C 	0.23690 0.10870 0.63408 -0.14200
C 	C 	0.77500 0.83510 0.29554 0.19500
C 	C 	0.86950 0.89750 0.00862 0.13500
C 	C 	0.12470 0.19790 0.42707 -0.27900
C 	C 	0.50770 0.09940 0.45589 -0.08000
C 	C 	0.43890 0.60960 0.20338 0.47000
C 	C 	0.77170 0.30660 0.48590 -0.24300
C 	C 	0.39770 0.88450 0.25789 -0.15600
C 	C 	0.72830 0.69340 0.98590 -0.24800
C 	C 	0.98730 0.00860 0.73880 -0.05000
C 	C 	0.90080 0.29580 0.70075 -0.24100
C 	C 	0.73690 0.10870 0.86592 -0.14700
C 	C 	0.06110 0.39040 0.70338 0.47200
C 	C 	0.99600 0.95350 0.66682 0.09600
C 	C 	0.89770 0.88450 0.24211 -0.14900
C 	C 	0.22500 0.16490 0.70446 0.19500
C 	C 	0.36950 0.89750 0.49138 0.13300
C 	C 	0.59920 0.70420 0.20075 -0.24000
C 	C 	0.87870 0.99710 0.05209 -0.09600
C 	C 	0.62130 0.00290 0.55209 -0.10100
C 	C 	0.76310 0.89130 0.36592 -0.14200
C 	C 	0.93890 0.60960 0.29662 0.47200
C 	C 	0.01270 0.99140 0.26120 -0.05000
C 	C 	0.50400 0.04650 0.16682 0.09100
C 	C 	0.76950 0.30470 0.05653 0.51700
C 	C 	0.99230 0.90060 0.95589 -0.08600
O 	O 	0.84010 0.36865 0.11409 -0.50300
O 	O 	0.69800 0.68056 0.48339 -0.52400
O 	O 	0.35110 0.60015 0.14335 -0.49300
O 	O 	0.87370 0.84888 0.65102 -0.14800
O 	O 	0.40550 0.54478 0.26466 -0.50100
O 	O 	0.62630 0.15112 0.15102 -0.14700
O 	O 	0.59450 0.45522 0.73534 -0.50100
O 	O 	0.86920 0.55777 0.98804 -0.59500
O 	O 	0.84100 0.27386 0.78202 -0.30000
O 	O 	0.64890 0.39985 0.85665 -0.49300
O 	O 	0.14890 0.39985 0.64335 -0.49300
O 	O 	0.12630 0.15112 0.34898 -0.14800
O 	O 	0.37370 0.84888 0.84898 -0.14700
O 	O 	0.30200 0.31944 0.51661 -0.52400
O 	O 	0.90550 0.54478 0.23534 -0.50000
O 	O 	0.34010 0.36865 0.38591 -0.50400
O 	O 	0.40090 0.67393 0.40855 -0.45600
O 	O 	0.36920 0.55777 0.51196 -0.59300
O 	O 	0.26630 0.19782 0.97969 -0.17000
O 	O 	0.65990 0.63135 0.61409 -0.50400
O 	O 	0.09450 0.45522 0.76466 -0.50000
O 	O 	0.59910 0.32607 0.59145 -0.45600
O 	O 	0.15900 0.72614 0.21798 -0.30000
O 	O 	0.13080 0.44223 0.01196 -0.59500
O 	O 	0.63080 0.44223 0.48804 -0.59300
O 	O 	0.80200 0.31944 0.98339 -0.52500
O 	O 	0.34100 0.27386 0.71798 -0.29900
O 	O 	0.85110 0.60015 0.35665 -0.49300
O 	O 	0.15990 0.63135 0.88591 -0.50300
O 	O 	0.19800 0.68056 0.01661 -0.52500
O 	O 	0.76630 0.19782 0.52031 -0.17100
O 	O 	0.73370 0.80218 0.02031 -0.17000
O 	O 	0.90090 0.67393 0.09145 -0.45500
O 	O 	0.09910 0.32607 0.90855 -0.45500
O 	O 	0.65900 0.72614 0.28202 -0.29900
O 	O 	0.23370 0.80218 0.47969 -0.17100
