data_crystal

_cell_length_a 20.23800
_cell_length_b 5.28270
_cell_length_c 28.85900
_cell_angle_alpha 90.00000
_cell_angle_beta  112.66300
_cell_angle_gamma 90.00000

_symmetry_space_group_name_	'P 1'
_symmetry_space_group_name_H-M	'P 1'

loop_
_symmetry_equiv_pos_as_xyz
  x,y,z

loop_
_atom_site_label
_atom_site_type_symbol
_atom_site_fract_x
_atom_site_fract_y
_atom_site_fract_z
_atom_site_charge
Zn	Zn	0.96748 0.03554 0.76886 1.21300
Zn	Zn	0.53716 0.35290 0.73426 1.20900
Zn	Zn	0.65166 0.53749 0.89351 1.20400
Zn	Zn	0.84061 0.41960 0.77453 1.22700
Zn	Zn	0.84130 0.83521 0.61102 1.21200
Zn	Zn	0.66445 0.96565 0.73498 1.22100
P 	P 	0.80865 0.92840 0.70940 0.56500
P 	P 	0.49636 0.36460 0.82865 0.54000
P 	P 	0.69622 0.45930 0.80028 0.57000
P 	P 	0.00351 0.52470 0.83105 0.53900
P 	P 	0.74069 0.78460 0.49780 0.29300
O 	O 	0.00870 0.37950 0.78488 -0.68500
O 	O 	0.93070 0.47070 0.83188 -0.46600
O 	O 	0.82770 0.65320 0.72110 -0.54400
O 	O 	0.01440 0.80740 0.82350 -0.51300
O 	O 	0.86610 0.09180 0.75084 -0.64000
O 	O 	0.76940 0.38910 0.80147 -0.49800
O 	O 	0.64020 0.29550 0.75815 -0.64600
O 	O 	0.69310 0.38620 0.85043 -0.48600
O 	O 	0.50620 0.51080 0.78436 -0.69000
O 	O 	0.55240 0.44680 0.87818 -0.45300
O 	O 	0.50690 0.08180 0.82096 -0.51100
O 	O 	0.42190 0.42030 0.82617 -0.46800
O 	O 	0.73700 0.00230 0.70950 -0.49300
O 	O 	0.80980 0.99420 0.65862 -0.48800
O 	O 	0.06270 0.43450 0.87910 -0.44700
O 	O 	0.67650 0.73650 0.78860 -0.54900
O 	O 	0.76750 0.89100 0.54710 -0.49300
O 	O 	0.70250 0.04620 0.46300 -0.49200
O 	O 	0.79620 0.65700 0.48380 -0.15900
O 	O 	0.68120 0.56290 0.49660 -0.39400
H 	H 	0.69190 0.42840 0.48720 0.24900
P 	P 	0.77060 0.99440 0.50012 0.44000
O 	O 	0.79640 0.81000 0.47050 -0.21000
O 	O 	0.82750 0.22120 0.52150 -0.38800
H 	H 	0.81260 0.35930 0.50280 0.23300
Zn	Zn	0.03252 0.53554 0.73114 1.21300
Zn	Zn	0.46284 0.85290 0.76574 1.20700
Zn	Zn	0.34834 0.03749 0.60649 1.20600
Zn	Zn	0.15939 0.91960 0.72547 1.22800
Zn	Zn	0.15870 0.33521 0.88898 1.21300
Zn	Zn	0.33555 0.46565 0.76502 1.22600
P 	P 	0.19135 0.42840 0.79060 0.58100
P 	P 	0.50364 0.86460 0.67135 0.53500
P 	P 	0.30378 0.95930 0.69972 0.56700
P 	P 	0.99649 0.02470 0.66895 0.54500
P 	P 	0.25931 0.28460 0.00220 0.29200
O 	O 	0.99130 0.87950 0.71512 -0.68800
O 	O 	0.06930 0.97070 0.66812 -0.46800
O 	O 	0.17230 0.15320 0.77890 -0.54400
O 	O 	0.98560 0.30740 0.67650 -0.51100
O 	O 	0.13390 0.59180 0.74916 -0.64800
O 	O 	0.23060 0.88910 0.69853 -0.49900
O 	O 	0.35980 0.79550 0.74185 -0.65200
O 	O 	0.30690 0.88620 0.64957 -0.48700
O 	O 	0.49380 0.01080 0.71564 -0.68000
O 	O 	0.44760 0.94680 0.62182 -0.45300
O 	O 	0.49310 0.58180 0.67904 -0.51600
O 	O 	0.57810 0.92030 0.67383 -0.47200
O 	O 	0.26300 0.50230 0.79050 -0.50700
O 	O 	0.19020 0.49420 0.84138 -0.48600
O 	O 	0.93730 0.93450 0.62090 -0.44900
O 	O 	0.32350 0.23650 0.71140 -0.54200
O 	O 	0.23250 0.39100 0.95290 -0.49200
O 	O 	0.29750 0.54620 0.03700 -0.49700
O 	O 	0.20380 0.15700 0.01620 -0.16200
O 	O 	0.31880 0.06290 0.00340 -0.40200
H 	H 	0.30810 0.92840 0.01280 0.25500
P 	P 	0.22940 0.49440 0.99988 0.44900
O 	O 	0.20360 0.31000 0.02950 -0.21000
O 	O 	0.17250 0.72120 0.97850 -0.39400
H 	H 	0.18740 0.85930 0.99720 0.23600
Zn	Zn	0.03252 0.96446 0.23114 1.21400
Zn	Zn	0.46284 0.64710 0.26574 1.21000
Zn	Zn	0.34834 0.46251 0.10649 1.20500
Zn	Zn	0.15939 0.58040 0.22547 1.22800
Zn	Zn	0.15870 0.16479 0.38898 1.21300
Zn	Zn	0.33555 0.03435 0.26502 1.22200
P 	P 	0.19135 0.07160 0.29060 0.56600
P 	P 	0.50364 0.63540 0.17135 0.54100
P 	P 	0.30378 0.54070 0.19972 0.57000
P 	P 	0.99649 0.47530 0.16895 0.53900
P 	P 	0.25931 0.21540 0.50220 0.29300
O 	O 	0.99130 0.62050 0.21512 -0.68500
O 	O 	0.06930 0.52930 0.16812 -0.46600
O 	O 	0.17230 0.34680 0.27890 -0.54400
O 	O 	0.98560 0.19260 0.17650 -0.51300
O 	O 	0.13390 0.90820 0.24916 -0.64000
O 	O 	0.23060 0.61090 0.19853 -0.49800
O 	O 	0.35980 0.70450 0.24185 -0.64600
O 	O 	0.30690 0.61380 0.14957 -0.48600
O 	O 	0.49380 0.48920 0.21564 -0.69000
O 	O 	0.44760 0.55320 0.12182 -0.45300
O 	O 	0.49310 0.91820 0.17904 -0.51100
O 	O 	0.57810 0.57970 0.17383 -0.46800
O 	O 	0.26300 0.99770 0.29050 -0.49300
O 	O 	0.19020 0.00580 0.34138 -0.48800
O 	O 	0.93730 0.56550 0.12090 -0.44700
O 	O 	0.32350 0.26350 0.21140 -0.54900
O 	O 	0.23250 0.10900 0.45290 -0.49300
O 	O 	0.29750 0.95380 0.53700 -0.49200
O 	O 	0.20380 0.34300 0.51620 -0.15900
O 	O 	0.31880 0.43710 0.50340 -0.39400
H 	H 	0.30810 0.57160 0.51280 0.24900
P 	P 	0.22940 0.00560 0.49988 0.44000
O 	O 	0.20360 0.19000 0.52950 -0.21000
O 	O 	0.17250 0.77880 0.47850 -0.38800
H 	H 	0.18740 0.64070 0.49720 0.23300
Zn	Zn	0.96748 0.46446 0.26886 1.21300
Zn	Zn	0.53716 0.14710 0.23426 1.20700
Zn	Zn	0.65166 0.96251 0.39351 1.20600
Zn	Zn	0.84061 0.08040 0.27453 1.22800
Zn	Zn	0.84130 0.66479 0.11102 1.21300
Zn	Zn	0.66445 0.53435 0.23498 1.22600
P 	P 	0.80865 0.57160 0.20940 0.58100
P 	P 	0.49636 0.13540 0.32865 0.53500
P 	P 	0.69622 0.04070 0.30028 0.56700
P 	P 	0.00351 0.97530 0.33105 0.54500
P 	P 	0.74069 0.71540 0.99780 0.29200
O 	O 	0.00870 0.12050 0.28488 -0.68800
O 	O 	0.93070 0.02930 0.33188 -0.46800
O 	O 	0.82770 0.84680 0.22110 -0.54400
O 	O 	0.01440 0.69260 0.32350 -0.51100
O 	O 	0.86610 0.40820 0.25084 -0.64800
O 	O 	0.76940 0.11090 0.30147 -0.49900
O 	O 	0.64020 0.20450 0.25815 -0.65200
O 	O 	0.69310 0.11380 0.35043 -0.48700
O 	O 	0.50620 0.98920 0.28436 -0.68000
O 	O 	0.55240 0.05320 0.37818 -0.45300
O 	O 	0.50690 0.41820 0.32096 -0.51600
O 	O 	0.42190 0.07970 0.32617 -0.47200
O 	O 	0.73700 0.49770 0.20950 -0.50700
O 	O 	0.80980 0.50580 0.15862 -0.48600
O 	O 	0.06270 0.06550 0.37910 -0.44900
O 	O 	0.67650 0.76350 0.28860 -0.54200
O 	O 	0.76750 0.60900 0.04710 -0.49200
O 	O 	0.70250 0.45380 0.96300 -0.49700
O 	O 	0.79620 0.84300 0.98380 -0.16200
O 	O 	0.68120 0.93710 0.99660 -0.40200
H 	H 	0.69190 0.07160 0.98720 0.25500
P 	P 	0.77060 0.50560 0.00012 0.44900
O 	O 	0.79640 0.69000 0.97050 -0.21000
O 	O 	0.82750 0.27880 0.02150 -0.39400
H 	H 	0.81260 0.14070 0.00280 0.23600
