data_crystal

_cell_length_a 12.81300
_cell_length_b 18.55700
_cell_length_c 7.25900
_cell_angle_alpha 90.00000
_cell_angle_beta  111.97300
_cell_angle_gamma 90.00000

_symmetry_space_group_name_	'P 1'
_symmetry_space_group_name_H-M	'P 1'

loop_
_symmetry_equiv_pos_as_xyz
  x,y,z

loop_
_atom_site_label
_atom_site_type_symbol
_atom_site_fract_x
_atom_site_fract_y
_atom_site_fract_z
_atom_site_charge
N 	N 	0.11460 0.04840 0.23500 -0.25100
N 	N 	0.11800 0.04480 0.42300 -0.24200
C 	C 	0.19800 0.08860 0.24500 0.08400
H 	H 	0.21620 0.10010 0.13250 -0.04700
N 	N 	0.25800 0.11270 0.42600 -0.13600
C 	C 	0.20500 0.08470 0.53700 0.06100
H 	H 	0.22690 0.09190 0.67590 -0.02400
C 	C 	0.29700 0.23980 0.51600 -0.02600
H 	H 	0.35080 0.27750 0.55810 0.03300
C 	C 	0.34700 0.17130 0.50400 -0.07500
H 	H 	0.40120 0.15760 0.63730 0.04400
H 	H 	0.38920 0.17560 0.41440 0.03700
N 	N 	0.61460 0.54840 0.23500 -0.22500
N 	N 	0.61800 0.54480 0.42300 -0.21600
C 	C 	0.69800 0.58860 0.24500 0.10300
H 	H 	0.71620 0.60010 0.13250 -0.02600
N 	N 	0.75800 0.61270 0.42600 -0.12600
C 	C 	0.70500 0.58470 0.53700 0.07900
H 	H 	0.72690 0.59190 0.67590 -0.00400
C 	C 	0.79700 0.73980 0.51600 -0.01600
H 	H 	0.85080 0.77750 0.55810 0.04900
C 	C 	0.84700 0.67130 0.50400 -0.08900
H 	H 	0.90120 0.65760 0.63730 0.08000
H 	H 	0.88920 0.67560 0.41440 0.06900
N 	N 	0.88540 0.04840 0.26500 -0.20900
N 	N 	0.88200 0.04480 0.07700 -0.22600
C 	C 	0.80200 0.08860 0.25500 0.09800
H 	H 	0.78380 0.10010 0.36750 -0.02700
N 	N 	0.74200 0.11270 0.07400 -0.17400
C 	C 	0.79500 0.08470 0.96300 0.13200
H 	H 	0.77310 0.09190 0.82410 -0.03500
C 	C 	0.70300 0.23980 0.98400 -0.05900
H 	H 	0.64920 0.27750 0.94190 0.05500
C 	C 	0.65300 0.17130 0.99600 0.03100
H 	H 	0.59880 0.15760 0.86270 0.01400
H 	H 	0.61080 0.17560 0.08560 -0.00700
N 	N 	0.38540 0.54840 0.26500 -0.22500
N 	N 	0.38200 0.54480 0.07700 -0.24400
C 	C 	0.30200 0.58860 0.25500 0.10200
H 	H 	0.28380 0.60010 0.36750 -0.03200
N 	N 	0.24200 0.61270 0.07400 -0.18200
C 	C 	0.29500 0.58470 0.96300 0.14200
H 	H 	0.27310 0.59190 0.82410 -0.04000
C 	C 	0.20300 0.73980 0.98400 -0.06900
H 	H 	0.14920 0.77750 0.94190 0.04600
C 	C 	0.15300 0.67130 0.99600 0.04900
H 	H 	0.09880 0.65760 0.86270 -0.00800
H 	H 	0.11080 0.67560 0.08560 -0.02800
N 	N 	0.88540 0.95160 0.76500 -0.16700
N 	N 	0.88200 0.95520 0.57700 -0.16800
C 	C 	0.80200 0.91140 0.75500 0.11700
H 	H 	0.78380 0.89990 0.86750 0.00300
N 	N 	0.74200 0.88730 0.57400 -0.13100
C 	C 	0.79500 0.91530 0.46300 0.09500
H 	H 	0.77310 0.90810 0.32410 -0.00200
C 	C 	0.70300 0.76020 0.48400 -0.05000
H 	H 	0.64920 0.72250 0.44190 0.04200
C 	C 	0.65300 0.82870 0.49600 -0.05400
H 	H 	0.59880 0.84240 0.36270 0.04400
H 	H 	0.61080 0.82440 0.58560 0.04800
N 	N 	0.38540 0.45160 0.76500 -0.21700
N 	N 	0.38200 0.45520 0.57700 -0.21900
C 	C 	0.30200 0.41140 0.75500 0.10100
H 	H 	0.28380 0.39990 0.86750 -0.02400
N 	N 	0.24200 0.38730 0.57400 -0.14200
C 	C 	0.29500 0.41530 0.46300 0.07600
H 	H 	0.27310 0.40810 0.32410 -0.02800
C 	C 	0.20300 0.26020 0.48400 -0.06400
H 	H 	0.14920 0.22250 0.44190 0.03000
C 	C 	0.15300 0.32870 0.49600 -0.03800
H 	H 	0.09880 0.34240 0.36270 0.00700
H 	H 	0.11080 0.32440 0.58560 0.01600
N 	N 	0.11460 0.95160 0.73500 -0.20700
N 	N 	0.11800 0.95520 0.92300 -0.17300
C 	C 	0.19800 0.91140 0.74500 0.10500
H 	H 	0.21620 0.89990 0.63250 -0.01500
N 	N 	0.25800 0.88730 0.92600 -0.09000
C 	C 	0.20500 0.91530 0.03700 0.01800
H 	H 	0.22690 0.90810 0.17590 0.01300
C 	C 	0.29700 0.76020 0.01600 -0.01600
H 	H 	0.35080 0.72250 0.05810 0.01900
C 	C 	0.34700 0.82870 0.00400 -0.16500
H 	H 	0.40120 0.84240 0.13730 0.07500
H 	H 	0.38920 0.82440 0.91440 0.09500
N 	N 	0.61460 0.45160 0.73500 -0.22000
N 	N 	0.61800 0.45520 0.92300 -0.18900
C 	C 	0.69800 0.41140 0.74500 0.10200
H 	H 	0.71620 0.39990 0.63250 -0.01800
N 	N 	0.75800 0.38730 0.92600 -0.09000
C 	C 	0.70500 0.41530 0.03700 0.01700
H 	H 	0.72690 0.40810 0.17590 0.00800
C 	C 	0.79700 0.26020 0.01600 -0.01100
H 	H 	0.85080 0.22250 0.05810 0.03500
C 	C 	0.84700 0.32870 0.00400 -0.16900
H 	H 	0.90120 0.34240 0.13730 0.09500
H 	H 	0.88920 0.32440 0.91440 0.11000
Cu	Cu	-0.00000 0.00000 -0.00000 0.74500
Cu	Cu	0.50000 0.50000 -0.00000 0.82000
Cu	Cu	0.00000 0.00000 0.50000 0.75800
Cu	Cu	0.50000 0.50000 0.50000 0.83300
