data_crystal

_cell_length_a 6.87110
_cell_length_b 14.01000
_cell_length_c 14.91500
_cell_angle_alpha 90.00000
_cell_angle_beta  90.00000
_cell_angle_gamma 90.00000

_symmetry_space_group_name_	'P 1'
_symmetry_space_group_name_H-M	'P 1'

loop_
_symmetry_equiv_pos_as_xyz
  x,y,z

loop_
_atom_site_label
_atom_site_type_symbol
_atom_site_fract_x
_atom_site_fract_y
_atom_site_fract_z
_atom_site_charge
Cd	Cd	0.60896 0.29978 0.96060 1.21500
Cd	Cd	0.89104 0.70022 0.46060 1.21400
Cd	Cd	0.39104 0.79978 0.53940 1.21500
Cd	Cd	0.10896 0.20022 0.03940 1.21400
H 	H 	0.85190 0.24460 0.71450 0.06600
H 	H 	0.85110 0.29050 0.56690 0.03900
H 	H 	0.86210 0.17770 0.45300 0.03400
H 	H 	0.86660 0.01890 0.48590 0.07100
H 	H 	0.85490 0.83890 0.74670 0.03500
H 	H 	0.88160 0.95010 0.86160 0.04200
H 	H 	0.64810 0.75540 0.21450 0.06700
H 	H 	0.64890 0.70950 0.06690 0.04000
H 	H 	0.63790 0.82230 0.95300 0.03200
H 	H 	0.63340 0.98110 0.98590 0.06800
H 	H 	0.64510 0.16110 0.24670 0.03700
H 	H 	0.61840 0.04990 0.36160 0.04100
H 	H 	0.14810 0.74460 0.78550 0.06800
H 	H 	0.14890 0.79050 0.93310 0.03900
H 	H 	0.13790 0.67770 0.04700 0.03500
H 	H 	0.13340 0.51890 0.01410 0.07000
H 	H 	0.14510 0.33890 0.75330 0.03700
H 	H 	0.11840 0.45010 0.63840 0.04100
H 	H 	0.35190 0.25540 0.28550 0.06700
H 	H 	0.35110 0.20950 0.43310 0.03800
H 	H 	0.36210 0.32230 0.54700 0.03400
H 	H 	0.36660 0.48110 0.51410 0.07000
H 	H 	0.35490 0.66110 0.25330 0.03800
H 	H 	0.38160 0.54990 0.13840 0.04100
C 	C 	0.87680 0.13460 0.86500 0.37900
C 	C 	0.87110 0.06770 0.78530 -0.10000
C 	C 	0.86180 0.09970 0.69390 0.03700
C 	C 	0.85570 0.19840 0.66980 -0.07900
C 	C 	0.85520 0.22590 0.58130 -0.03500
C 	C 	0.86100 0.15790 0.51250 -0.02000
C 	C 	0.86500 0.06330 0.53220 -0.09500
C 	C 	0.86690 0.03080 0.62310 0.04200
C 	C 	0.86500 0.93170 0.64460 -0.12500
C 	C 	0.87290 0.85460 0.57450 0.32700
C 	C 	0.86300 0.90350 0.73290 -0.02000
C 	C 	0.87330 0.97110 0.80260 -0.02300
C 	C 	0.62320 0.86540 0.36500 0.38000
C 	C 	0.62890 0.93230 0.28530 -0.10400
C 	C 	0.63820 0.90030 0.19390 0.04000
C 	C 	0.64430 0.80160 0.16980 -0.08100
C 	C 	0.64480 0.77410 0.08130 -0.03500
C 	C 	0.63900 0.84210 0.01250 -0.01800
C 	C 	0.63500 0.93670 0.03220 -0.09000
C 	C 	0.63310 0.96920 0.12310 0.03800
C 	C 	0.63500 0.06830 0.14460 -0.12200
C 	C 	0.62710 0.14540 0.07450 0.33100
C 	C 	0.63700 0.09650 0.23290 -0.02300
C 	C 	0.62670 0.02890 0.30260 -0.01800
C 	C 	0.12320 0.63460 0.63500 0.38100
C 	C 	0.12890 0.56770 0.71470 -0.10500
C 	C 	0.13820 0.59970 0.80610 0.04100
C 	C 	0.14430 0.69840 0.83020 -0.08200
C 	C 	0.14480 0.72590 0.91870 -0.03200
C 	C 	0.13900 0.65790 0.98750 -0.02300
C 	C 	0.13500 0.56330 0.96780 -0.09100
C 	C 	0.13310 0.53080 0.87690 0.03800
C 	C 	0.13500 0.43170 0.85540 -0.12100
C 	C 	0.12710 0.35460 0.92550 0.33000
C 	C 	0.13700 0.40350 0.76710 -0.02400
C 	C 	0.12670 0.47110 0.69740 -0.01700
C 	C 	0.37680 0.36540 0.13500 0.38100
C 	C 	0.37110 0.43230 0.21470 -0.10500
C 	C 	0.36180 0.40030 0.30610 0.04000
C 	C 	0.35570 0.30160 0.33020 -0.08200
C 	C 	0.35520 0.27410 0.41870 -0.03300
C 	C 	0.36100 0.34210 0.48750 -0.02200
C 	C 	0.36500 0.43670 0.46780 -0.09200
C 	C 	0.36690 0.46920 0.37690 0.03800
C 	C 	0.36500 0.56830 0.35540 -0.12100
C 	C 	0.37290 0.64540 0.42550 0.33100
C 	C 	0.36300 0.59650 0.26710 -0.02400
C 	C 	0.37330 0.52890 0.19740 -0.01600
O 	O 	0.77690 0.20910 0.86122 -0.44700
O 	O 	0.98350 0.10789 0.92950 -0.43300
O 	O 	0.00560 0.85484 0.51661 -0.43400
O 	O 	0.74620 0.78860 0.57882 -0.47800
O 	O 	0.72310 0.79090 0.36122 -0.44800
O 	O 	0.51650 0.89211 0.42950 -0.43400
O 	O 	0.49440 0.14516 0.01661 -0.43900
O 	O 	0.75380 0.21140 0.07882 -0.47700
O 	O 	0.22310 0.70910 0.63878 -0.44700
O 	O 	0.01650 0.60789 0.57050 -0.43300
O 	O 	0.99440 0.35484 0.98339 -0.43800
O 	O 	0.25380 0.28860 0.92118 -0.47800
O 	O 	0.27690 0.29090 0.13878 -0.44800
O 	O 	0.48350 0.39211 0.07050 -0.43400
O 	O 	0.50560 0.64516 0.48339 -0.43900
O 	O 	0.24620 0.71140 0.42118 -0.47700
