data_crystal

_cell_length_a 19.12700
_cell_length_b 19.12700
_cell_length_c 19.12700
_cell_angle_alpha 109.47100
_cell_angle_beta  109.47100
_cell_angle_gamma 109.47100

_symmetry_space_group_name_	'P 1'
_symmetry_space_group_name_H-M	'P 1'

loop_
_symmetry_equiv_pos_as_xyz
  x,y,z

loop_
_atom_site_label
_atom_site_type_symbol
_atom_site_fract_x
_atom_site_fract_y
_atom_site_fract_z
_atom_site_charge
In	In	0.73606 0.23606 0.50000 1.96500
In	In	0.26394 0.76394 0.50000 1.96500
In	In	0.50000 0.26394 0.76394 1.96500
In	In	0.50000 0.73606 0.23606 1.96500
In	In	0.23606 0.50000 0.73606 1.96500
In	In	0.76394 0.50000 0.26394 1.96500
H 	H 	0.91690 0.26720 0.60570 -0.00500
H 	H 	0.99790 0.19870 0.60560 0.11700
H 	H 	0.78050 0.96990 0.43320 0.11500
H 	H 	0.69950 0.03840 0.43330 0.02200
H 	H 	0.66150 0.31120 0.39430 -0.00500
H 	H 	0.59310 0.39230 0.39440 0.11700
H 	H 	0.53670 0.34730 0.56680 0.11500
H 	H 	0.60510 0.26620 0.56670 0.02200
H 	H 	0.33850 0.73280 0.64970 -0.00400
H 	H 	0.40690 0.80130 0.79920 0.11600
H 	H 	0.46330 0.03010 0.81060 0.11300
H 	H 	0.39490 0.96160 0.66110 0.02100
H 	H 	0.08310 0.68880 0.35030 -0.00600
H 	H 	0.00210 0.60770 0.20080 0.11600
H 	H 	0.21950 0.65270 0.18940 0.11300
H 	H 	0.30050 0.73380 0.33890 0.02100
H 	H 	0.64970 0.33850 0.73280 -0.00500
H 	H 	0.79920 0.40690 0.80130 0.11600
H 	H 	0.81060 0.46330 0.03010 0.11300
H 	H 	0.66110 0.39490 0.96160 0.02100
H 	H 	0.35030 0.08310 0.68880 -0.00600
H 	H 	0.20080 0.00210 0.60770 0.11600
H 	H 	0.18940 0.21950 0.65270 0.11300
H 	H 	0.33890 0.30050 0.73380 0.02100
H 	H 	0.60570 0.91690 0.26720 -0.00600
H 	H 	0.60560 0.99790 0.19870 0.11600
H 	H 	0.43320 0.78050 0.96990 0.11400
H 	H 	0.43330 0.69950 0.03840 0.02100
H 	H 	0.39430 0.66150 0.31120 -0.00600
H 	H 	0.39440 0.59310 0.39230 0.11600
H 	H 	0.56680 0.53670 0.34730 0.11400
H 	H 	0.56670 0.60510 0.26620 0.02100
H 	H 	0.31120 0.39430 0.66150 -0.00600
H 	H 	0.39230 0.39440 0.59310 0.11600
H 	H 	0.34730 0.56680 0.53670 0.11400
H 	H 	0.26620 0.56670 0.60510 0.02100
H 	H 	0.26720 0.60570 0.91690 -0.00600
H 	H 	0.19870 0.60560 0.99790 0.11600
H 	H 	0.96990 0.43320 0.78050 0.11400
H 	H 	0.03840 0.43330 0.69950 0.02100
H 	H 	0.68880 0.35030 0.08310 -0.00600
H 	H 	0.60770 0.20080 0.00210 0.11600
H 	H 	0.65270 0.18940 0.21950 0.11300
H 	H 	0.73380 0.33890 0.30050 0.02100
H 	H 	0.73280 0.64970 0.33850 -0.00500
H 	H 	0.80130 0.79920 0.40690 0.11600
H 	H 	0.03010 0.81060 0.46330 0.11300
H 	H 	0.96160 0.66110 0.39490 0.02100
C 	C 	0.95070 0.03730 0.53420 0.09800
C 	C 	0.88920 0.20690 0.57070 0.05200
C 	C 	0.93730 0.16610 0.57060 -0.11000
C 	C 	0.89690 0.07790 0.51940 0.07400
C 	C 	0.80820 0.03020 0.46820 -0.12100
C 	C 	0.76000 0.07090 0.46830 0.07600
C 	C 	0.50310 0.41650 0.46580 0.09800
C 	C 	0.63620 0.31850 0.42930 0.05200
C 	C 	0.59550 0.36670 0.42940 -0.11000
C 	C 	0.55850 0.37750 0.48060 0.07400
C 	C 	0.56200 0.34000 0.53180 -0.12100
C 	C 	0.60260 0.29170 0.53170 0.07600
C 	C 	0.49690 0.96270 0.91340 0.09800
C 	C 	0.36380 0.79310 0.68230 0.05200
C 	C 	0.40450 0.83390 0.77120 -0.11000
C 	C 	0.44150 0.92210 0.81900 0.07400
C 	C 	0.43800 0.96980 0.77800 -0.12100
C 	C 	0.39740 0.92910 0.68910 0.07600
C 	C 	0.04930 0.58350 0.08660 0.09800
C 	C 	0.11080 0.68150 0.31770 0.05200
C 	C 	0.06270 0.63330 0.22880 -0.11000
C 	C 	0.10310 0.62250 0.18100 0.07400
C 	C 	0.19180 0.66000 0.22200 -0.12100
C 	C 	0.24000 0.70830 0.31090 0.07600
C 	C 	0.91340 0.49690 0.96270 0.09800
C 	C 	0.68230 0.36380 0.79310 0.05200
C 	C 	0.77120 0.40450 0.83390 -0.11000
C 	C 	0.81900 0.44150 0.92210 0.07400
C 	C 	0.77800 0.43800 0.96980 -0.12100
C 	C 	0.68910 0.39740 0.92910 0.07600
C 	C 	0.08660 0.04930 0.58350 0.09800
C 	C 	0.31770 0.11080 0.68150 0.05200
C 	C 	0.22880 0.06270 0.63330 -0.11000
C 	C 	0.18100 0.10310 0.62250 0.07400
C 	C 	0.22200 0.19180 0.66000 -0.12100
C 	C 	0.31090 0.24000 0.70830 0.07600
C 	C 	0.53420 0.95070 0.03730 0.09800
C 	C 	0.57070 0.88920 0.20690 0.05200
C 	C 	0.57060 0.93730 0.16610 -0.11000
C 	C 	0.51940 0.89690 0.07790 0.07400
C 	C 	0.46820 0.80820 0.03020 -0.12100
C 	C 	0.46830 0.76000 0.07090 0.07600
C 	C 	0.46580 0.50310 0.41650 0.09800
C 	C 	0.42930 0.63620 0.31850 0.05200
C 	C 	0.42940 0.59550 0.36670 -0.11000
C 	C 	0.48060 0.55850 0.37750 0.07400
C 	C 	0.53180 0.56200 0.34000 -0.12100
C 	C 	0.53170 0.60260 0.29170 0.07600
C 	C 	0.41650 0.46580 0.50310 0.09800
C 	C 	0.31850 0.42930 0.63620 0.05200
C 	C 	0.36670 0.42940 0.59550 -0.11000
C 	C 	0.37750 0.48060 0.55850 0.07400
C 	C 	0.34000 0.53180 0.56200 -0.12100
C 	C 	0.29170 0.53170 0.60260 0.07600
C 	C 	0.03730 0.53420 0.95070 0.09800
C 	C 	0.20690 0.57070 0.88920 0.05200
C 	C 	0.16610 0.57060 0.93730 -0.11000
C 	C 	0.07790 0.51940 0.89690 0.07400
C 	C 	0.03020 0.46820 0.80820 -0.12100
C 	C 	0.07090 0.46830 0.76000 0.07600
C 	C 	0.58350 0.08660 0.04930 0.09800
C 	C 	0.68150 0.31770 0.11080 0.05200
C 	C 	0.63330 0.22880 0.06270 -0.11000
C 	C 	0.62250 0.18100 0.10310 0.07400
C 	C 	0.66000 0.22200 0.19180 -0.12100
C 	C 	0.70830 0.31090 0.24000 0.07600
C 	C 	0.96270 0.91340 0.49690 0.09800
C 	C 	0.79310 0.68230 0.36380 0.05200
C 	C 	0.83390 0.77120 0.40450 -0.11000
C 	C 	0.92210 0.81900 0.44150 0.07400
C 	C 	0.96980 0.77800 0.43800 -0.12100
C 	C 	0.92910 0.68910 0.39740 0.07600
N 	N 	0.91030 0.94880 0.48930 -0.11900
N 	N 	0.80050 0.15920 0.51950 -0.27800
N 	N 	0.45950 0.42100 0.51070 -0.11900
N 	N 	0.63970 0.28100 0.48050 -0.27800
N 	N 	0.54050 0.05120 0.96150 -0.11900
N 	N 	0.36030 0.84080 0.64130 -0.27800
N 	N 	0.08970 0.57900 0.03850 -0.11900
N 	N 	0.19950 0.71900 0.35870 -0.27800
N 	N 	0.96150 0.54050 0.05120 -0.11900
N 	N 	0.64130 0.36030 0.84080 -0.27800
N 	N 	0.03850 0.08970 0.57900 -0.11900
N 	N 	0.35870 0.19950 0.71900 -0.27800
N 	N 	0.48930 0.91030 0.94880 -0.11900
N 	N 	0.51950 0.80050 0.15920 -0.27800
N 	N 	0.51070 0.45950 0.42100 -0.11900
N 	N 	0.48050 0.63970 0.28100 -0.27800
N 	N 	0.42100 0.51070 0.45950 -0.11900
N 	N 	0.28100 0.48050 0.63970 -0.27800
N 	N 	0.94880 0.48930 0.91030 -0.11900
N 	N 	0.15920 0.51950 0.80050 -0.27800
N 	N 	0.57900 0.03850 0.08970 -0.11900
N 	N 	0.71900 0.35870 0.19950 -0.27800
N 	N 	0.05120 0.96150 0.54050 -0.11900
N 	N 	0.84080 0.64130 0.36030 -0.27800
Cl	Cl	0.80166 0.31390 0.65596 -0.60800
Cl	Cl	0.65794 0.14570 0.34404 -0.60800
Cl	Cl	0.34206 0.68610 0.48776 -0.60800
Cl	Cl	0.19834 0.85430 0.51224 -0.60800
Cl	Cl	0.48776 0.34206 0.68610 -0.60800
Cl	Cl	0.51224 0.19834 0.85430 -0.60800
Cl	Cl	0.65596 0.80166 0.31390 -0.60800
Cl	Cl	0.34404 0.65794 0.14570 -0.60800
Cl	Cl	0.14570 0.34404 0.65794 -0.60800
Cl	Cl	0.31390 0.65596 0.80166 -0.60800
Cl	Cl	0.85430 0.51224 0.19834 -0.60800
Cl	Cl	0.68610 0.48776 0.34206 -0.60800
Cl	Cl	0.63080 0.13080 0.50000 -0.58400
Cl	Cl	0.36920 0.86920 0.50000 -0.58400
Cl	Cl	0.50000 0.36920 0.86920 -0.58400
Cl	Cl	0.50000 0.63080 0.13080 -0.58400
Cl	Cl	0.13080 0.50000 0.63080 -0.58400
Cl	Cl	0.86920 0.50000 0.36920 -0.58400
