data_crystal

_cell_length_a 11.25770
_cell_length_b 11.25770
_cell_length_c 15.90490
_cell_angle_alpha 115.84750
_cell_angle_beta  115.84750
_cell_angle_gamma 90.86570

_symmetry_space_group_name_	'P 1'
_symmetry_space_group_name_H-M	'P 1'

loop_
_symmetry_equiv_pos_as_xyz
  x,y,z

loop_
_atom_site_label
_atom_site_type_symbol
_atom_site_fract_x
_atom_site_fract_y
_atom_site_fract_z
_atom_site_charge
H 	H 	0.92044 0.81630 0.42645 0.07500
H 	H 	0.86776 0.98142 0.37253 0.07000
H 	H 	0.57251 0.68675 0.07747 0.02500
H 	H 	0.62519 0.52163 0.13139 0.04000
C 	C 	0.77718 0.65526 0.28339 -0.07300
C 	C 	0.84790 0.78930 0.35369 -0.01600
C 	C 	0.81718 0.88554 0.32225 0.02000
C 	C 	0.71577 0.84779 0.22053 -0.11400
C 	C 	0.64506 0.71376 0.15024 0.01200
C 	C 	0.67577 0.61751 0.18167 -0.02300
C 	C 	0.81015 0.55197 0.31712 0.36900
C 	C 	0.68280 0.95108 0.18680 0.44100
O 	O 	0.74655 0.42733 0.25127 -0.40900
O 	O 	0.90223 0.58739 0.41212 -0.37900
O 	O 	0.58367 0.91745 0.09469 -0.42100
O 	O 	0.75346 0.07394 0.24977 -0.45900
O 	O 	0.66183 0.14795 0.09335 -0.53600
H 	H 	0.19949 0.70703 0.56569 0.14700
H 	H 	0.18370 0.07956 0.07355 0.00700
H 	H 	0.01858 0.13224 0.12747 0.01300
H 	H 	0.31325 0.42749 0.42253 0.05200
H 	H 	0.47837 0.37481 0.36861 0.04200
C 	C 	0.34474 0.22282 0.21661 -0.11500
C 	C 	0.21070 0.15210 0.14631 -0.00100
C 	C 	0.11446 0.18282 0.17775 -0.03800
C 	C 	0.15221 0.28423 0.27947 -0.07400
C 	C 	0.28624 0.35494 0.34976 -0.02900
C 	C 	0.38249 0.32423 0.31833 0.00500
C 	C 	0.44803 0.18985 0.18288 0.37900
C 	C 	0.04892 0.31720 0.31320 0.30300
O 	O 	0.57267 0.25345 0.24873 -0.41800
O 	O 	0.41261 0.09777 0.08788 -0.44400
O 	O 	0.08255 0.41633 0.40531 -0.40900
O 	O 	0.92606 0.24654 0.25023 -0.36400
O 	O 	0.85205 0.33817 0.40665 -0.49700
H 	H 	0.29297 0.80051 0.93431 0.16200
H 	H 	0.07956 0.18370 0.57355 0.02300
H 	H 	0.13224 0.01858 0.62747 0.02600
H 	H 	0.42749 0.31325 0.92253 0.06900
H 	H 	0.37481 0.47837 0.86861 0.05500
C 	C 	0.22282 0.34474 0.71661 -0.10400
C 	C 	0.15210 0.21070 0.64631 0.00100
C 	C 	0.18282 0.11446 0.67775 -0.03200
C 	C 	0.28423 0.15221 0.77947 -0.06700
C 	C 	0.35494 0.28624 0.84976 -0.02400
C 	C 	0.32423 0.38249 0.81833 0.00800
C 	C 	0.18985 0.44803 0.68288 0.37800
C 	C 	0.31720 0.04892 0.81320 0.31200
O 	O 	0.25345 0.57267 0.74873 -0.41100
O 	O 	0.09777 0.41261 0.58788 -0.42600
O 	O 	0.41633 0.08255 0.90531 -0.37800
O 	O 	0.24654 0.92606 0.75023 -0.36800
O 	O 	0.33817 0.85205 0.90665 -0.47900
H 	H 	0.80051 0.29297 0.43431 0.14900
H 	H 	0.81630 0.92044 0.92645 0.09000
H 	H 	0.98142 0.86776 0.87253 0.08200
H 	H 	0.68675 0.57251 0.57747 0.04100
H 	H 	0.52163 0.62519 0.63139 0.05300
C 	C 	0.65526 0.77718 0.78339 -0.06200
C 	C 	0.78930 0.84790 0.85369 -0.01500
C 	C 	0.88554 0.81718 0.82225 0.02700
C 	C 	0.84779 0.71577 0.72053 -0.10900
C 	C 	0.71376 0.64506 0.65024 0.01900
C 	C 	0.61751 0.67577 0.68167 -0.02100
C 	C 	0.55197 0.81015 0.81712 0.36500
C 	C 	0.95108 0.68280 0.68680 0.45100
O 	O 	0.42733 0.74655 0.75127 -0.40000
O 	O 	0.58739 0.90223 0.91212 -0.35200
O 	O 	0.91745 0.58367 0.59469 -0.40100
O 	O 	0.07394 0.75346 0.74977 -0.46200
O 	O 	0.14795 0.66183 0.59335 -0.52800
H 	H 	0.70703 0.19949 0.06569 0.13400
Fe	Fe	0.75177 0.24823 0.25000 1.27400
Fe	Fe	0.24823 0.75177 0.75000 1.27500
Fe	Fe	0.50000 0.00000 -0.00000 1.21800
Fe	Fe	-0.00000 0.50000 0.50000 1.24600
