data_crystal

_cell_length_a 20.52660
_cell_length_b 9.19250
_cell_length_c 6.87630
_cell_angle_alpha 90.00000
_cell_angle_beta  113.08400
_cell_angle_gamma 90.00000

_symmetry_space_group_name_	'P 1'
_symmetry_space_group_name_H-M	'P 1'

loop_
_symmetry_equiv_pos_as_xyz
  x,y,z

loop_
_atom_site_label
_atom_site_type_symbol
_atom_site_fract_x
_atom_site_fract_y
_atom_site_fract_z
_atom_site_charge
Fe	Fe	0.99590 0.00530 0.96120 1.23200
O 	O 	0.06170 0.12670 0.63570 -0.37800
O 	O 	0.07900 0.09730 0.96980 -0.39800
O 	O 	0.41060 0.36510 0.93940 -0.40000
O 	O 	0.42780 0.33560 0.27350 -0.38200
C 	C 	0.17630 0.18440 0.89500 -0.16500
C 	C 	0.20250 0.21540 0.74460 0.06500
C 	C 	0.27100 0.26220 0.80420 -0.10300
C 	C 	0.31320 0.27800 0.01420 0.00400
C 	C 	0.28700 0.24700 0.16460 -0.07800
C 	C 	0.21850 0.20020 0.10500 0.09500
C 	C 	0.10210 0.13370 0.83040 0.41000
C 	C 	0.38740 0.32870 0.07880 0.36100
H 	H 	0.17230 0.20410 0.59440 0.04300
H 	H 	0.28970 0.28430 0.69660 0.07800
H 	H 	0.31730 0.25830 0.31490 0.07400
H 	H 	0.19980 0.17800 0.21260 0.03100
O 	O 	0.99680 0.90310 0.70300 -0.48200
Fe	Fe	0.49590 0.50530 0.96120 1.26700
O 	O 	0.56170 0.62670 0.63570 -0.43600
O 	O 	0.57900 0.59730 0.96980 -0.44600
O 	O 	0.91060 0.86510 0.93940 -0.40600
O 	O 	0.92780 0.83560 0.27350 -0.39900
C 	C 	0.67630 0.68440 0.89500 -0.17700
C 	C 	0.70250 0.71540 0.74460 0.06700
C 	C 	0.77100 0.76220 0.80420 -0.10400
C 	C 	0.81320 0.77800 0.01420 -0.00100
C 	C 	0.78700 0.74700 0.16460 -0.08100
C 	C 	0.71850 0.70020 0.10500 0.09600
C 	C 	0.60210 0.63370 0.83040 0.42100
C 	C 	0.88740 0.82870 0.07880 0.35500
H 	H 	0.67230 0.70410 0.59440 0.03400
H 	H 	0.78970 0.78430 0.69660 0.07600
H 	H 	0.81730 0.75830 0.31490 0.07200
H 	H 	0.69980 0.67800 0.21260 0.02600
O 	O 	0.49680 0.40310 0.70300 -0.43900
Fe	Fe	0.99590 0.99470 0.46120 1.24300
O 	O 	0.06170 0.87330 0.13570 -0.35600
O 	O 	0.07900 0.90270 0.46980 -0.37500
O 	O 	0.41060 0.63490 0.43940 -0.37100
O 	O 	0.42780 0.66440 0.77350 -0.38900
C 	C 	0.17630 0.81560 0.39500 -0.07000
C 	C 	0.20250 0.78460 0.24460 -0.00900
C 	C 	0.27100 0.73780 0.30420 -0.00400
C 	C 	0.31320 0.72200 0.51420 -0.07900
C 	C 	0.28700 0.75300 0.66460 -0.00800
C 	C 	0.21850 0.79980 0.60500 -0.00900
C 	C 	0.10210 0.86630 0.33040 0.37900
C 	C 	0.38740 0.67130 0.57880 0.34900
H 	H 	0.17230 0.79590 0.09440 0.07200
H 	H 	0.28970 0.71570 0.19660 0.05700
H 	H 	0.31730 0.74170 0.81490 0.04500
H 	H 	0.19980 0.82200 0.71260 0.05200
O 	O 	0.99680 0.09690 0.20300 -0.46000
Fe	Fe	0.49590 0.49470 0.46120 1.28100
O 	O 	0.56170 0.37330 0.13570 -0.40900
O 	O 	0.57900 0.40270 0.46980 -0.42300
O 	O 	0.91060 0.13490 0.43940 -0.38100
O 	O 	0.92780 0.16440 0.77350 -0.40500
C 	C 	0.67630 0.31560 0.39500 -0.08600
C 	C 	0.70250 0.28460 0.24460 -0.00200
C 	C 	0.77100 0.23780 0.30420 -0.01100
C 	C 	0.81320 0.22200 0.51420 -0.07800
C 	C 	0.78700 0.25300 0.66460 -0.01500
C 	C 	0.71850 0.29980 0.60500 -0.00300
C 	C 	0.60210 0.36630 0.33040 0.39200
C 	C 	0.88740 0.17130 0.57880 0.34800
H 	H 	0.67230 0.29590 0.09440 0.06500
H 	H 	0.78970 0.21570 0.19660 0.05700
H 	H 	0.81730 0.24170 0.81490 0.04300
H 	H 	0.69980 0.32200 0.71260 0.04500
O 	O 	0.49680 0.59690 0.20300 -0.41700
