data_crystal

_cell_length_a 6.90350
_cell_length_b 15.99590
_cell_length_c 14.34060
_cell_angle_alpha 90.00000
_cell_angle_beta  90.00000
_cell_angle_gamma 90.00000

_symmetry_space_group_name_	'P 1'
_symmetry_space_group_name_H-M	'P 1'

loop_
_symmetry_equiv_pos_as_xyz
  x,y,z

loop_
_atom_site_label
_atom_site_type_symbol
_atom_site_fract_x
_atom_site_fract_y
_atom_site_fract_z
_atom_site_charge
H 	H 	0.70334 0.55495 0.55515 0.04300
C 	C 	0.82627 0.53218 0.53229 0.00700
O 	O 	0.84082 0.66219 0.66276 -0.40100
H 	H 	0.20334 0.05495 0.05515 0.04300
C 	C 	0.32627 0.03218 0.03229 -0.00800
O 	O 	0.34082 0.16219 0.16276 -0.41600
H 	H 	0.29666 0.94505 0.55515 0.04700
C 	C 	0.17373 0.96782 0.53229 -0.00600
O 	O 	0.15918 0.83781 0.66276 -0.41300
H 	H 	0.79666 0.44505 0.05515 0.05100
C 	C 	0.67373 0.46782 0.03229 -0.00600
O 	O 	0.65918 0.33781 0.16276 -0.41100
H 	H 	0.29666 0.05495 0.44485 0.04700
C 	C 	0.17373 0.03218 0.46771 -0.00600
O 	O 	0.15918 0.16219 0.33724 -0.41300
H 	H 	0.79666 0.55495 0.94485 0.05100
C 	C 	0.67373 0.53218 0.96771 -0.00600
O 	O 	0.65918 0.66219 0.83724 -0.41100
H 	H 	0.70334 0.44505 0.44485 0.04400
C 	C 	0.82627 0.46782 0.46771 0.00800
O 	O 	0.84082 0.33781 0.33724 -0.40000
H 	H 	0.20334 0.94505 0.94485 0.04400
C 	C 	0.32627 0.96782 0.96771 -0.00700
O 	O 	0.34082 0.83781 0.83724 -0.41500
H 	H 	0.29666 0.44505 0.44485 0.04700
C 	C 	0.17373 0.46782 0.46771 -0.00600
O 	O 	0.15918 0.33781 0.33724 -0.41300
H 	H 	0.79666 0.94505 0.94485 0.05100
C 	C 	0.67373 0.96782 0.96771 -0.00600
O 	O 	0.65918 0.83781 0.83724 -0.41100
H 	H 	0.70334 0.05495 0.44485 0.04400
C 	C 	0.82627 0.03218 0.46771 0.00800
O 	O 	0.84082 0.16219 0.33724 -0.40000
H 	H 	0.20334 0.55495 0.94485 0.04400
C 	C 	0.32627 0.53218 0.96771 -0.00700
O 	O 	0.34082 0.66219 0.83724 -0.41500
H 	H 	0.70334 0.94505 0.55515 0.04400
C 	C 	0.82627 0.96782 0.53229 0.00800
O 	O 	0.84082 0.83781 0.66276 -0.40000
H 	H 	0.20334 0.44505 0.05515 0.04400
C 	C 	0.32627 0.46782 0.03229 -0.00700
O 	O 	0.34082 0.33781 0.16276 -0.41500
H 	H 	0.29666 0.55495 0.55515 0.04700
C 	C 	0.17373 0.53218 0.53229 -0.00600
O 	O 	0.15918 0.66219 0.66276 -0.41300
H 	H 	0.79666 0.05495 0.05515 0.05100
C 	C 	0.67373 0.03218 0.03229 -0.00600
O 	O 	0.65918 0.16219 0.16276 -0.41100
H 	H 	0.50000 0.25000 0.38215 0.18800
H 	H 	0.00000 0.75000 0.88215 0.18400
H 	H 	0.50000 0.75000 0.61785 0.18800
H 	H 	0.00000 0.25000 0.11785 0.18400
Fe	Fe	0.75000 0.25000 0.25000 1.28400
Fe	Fe	0.25000 0.25000 0.25000 1.28000
Fe	Fe	0.25000 0.75000 0.75000 1.28000
Fe	Fe	0.75000 0.75000 0.75000 1.28400
C 	C 	0.00000 0.56436 0.56459 -0.10500
C 	C 	-0.00000 0.63268 0.63314 0.36600
C 	C 	0.50000 0.06436 0.06459 -0.09100
C 	C 	0.50000 0.13268 0.13314 0.38100
C 	C 	0.00000 0.93564 0.56459 -0.10500
C 	C 	0.00000 0.86732 0.63314 0.36600
C 	C 	0.50000 0.43564 0.06459 -0.09100
C 	C 	0.50000 0.36732 0.13314 0.38100
C 	C 	-0.00000 0.06436 0.43541 -0.10500
C 	C 	0.00000 0.13268 0.36686 0.36600
C 	C 	0.50000 0.56436 0.93541 -0.09100
C 	C 	0.50000 0.63268 0.86686 0.38100
C 	C 	-0.00000 0.43564 0.43541 -0.10500
C 	C 	0.00000 0.36732 0.36686 0.36600
C 	C 	0.50000 0.93564 0.93541 -0.09100
C 	C 	0.50000 0.86732 0.86686 0.38100
O 	O 	0.50000 0.75000 0.68758 -0.55000
O 	O 	0.00000 0.25000 0.18758 -0.55700
O 	O 	0.50000 0.25000 0.31242 -0.55000
O 	O 	0.00000 0.75000 0.81242 -0.55700
