data_crystal

_cell_length_a 20.46330
_cell_length_b 9.28760
_cell_length_c 6.88390
_cell_angle_alpha 90.00000
_cell_angle_beta  112.71800
_cell_angle_gamma 90.00000

_symmetry_space_group_name_	'P 1'
_symmetry_space_group_name_H-M	'P 1'

loop_
_symmetry_equiv_pos_as_xyz
  x,y,z

loop_
_atom_site_label
_atom_site_type_symbol
_atom_site_fract_x
_atom_site_fract_y
_atom_site_fract_z
_atom_site_charge
Fe	Fe	0.00500 0.01050 0.01470 1.22600
O 	O 	0.06900 0.12710 0.69370 -0.43200
O 	O 	0.08530 0.09840 0.02640 -0.51100
O 	O 	0.41850 0.36950 0.99910 -0.29300
O 	O 	0.43480 0.34080 0.33180 -0.38500
C 	C 	0.18350 0.18650 0.95300 0.06900
C 	C 	0.21050 0.21610 0.80360 -0.13200
C 	C 	0.27890 0.26360 0.86330 0.17700
C 	C 	0.32030 0.28140 0.07250 -0.22800
C 	C 	0.29330 0.25170 0.22200 0.11300
C 	C 	0.22490 0.20430 0.16220 -0.19200
C 	C 	0.10890 0.13470 0.88780 0.42800
C 	C 	0.39500 0.33310 0.13780 0.31100
H 	H 	0.18090 0.20340 0.65390 0.09100
H 	H 	0.29820 0.28480 0.75640 0.00100
H 	H 	0.32300 0.26450 0.37160 0.01600
H 	H 	0.20570 0.18310 0.26910 0.10100
O 	O 	0.00520 0.90330 0.76290 -0.43800
Fe	Fe	0.50500 0.51050 0.01470 1.24800
O 	O 	0.56900 0.62710 0.69370 -0.42200
O 	O 	0.58530 0.59840 0.02640 -0.50700
O 	O 	0.91850 0.86950 0.99910 -0.26100
O 	O 	0.93480 0.84080 0.33180 -0.34300
C 	C 	0.68350 0.68650 0.95300 0.06300
C 	C 	0.71050 0.71610 0.80360 -0.12300
C 	C 	0.77890 0.76360 0.86330 0.16500
C 	C 	0.82030 0.78140 0.07250 -0.21200
C 	C 	0.79330 0.75170 0.22200 0.10400
C 	C 	0.72490 0.70430 0.16220 -0.18200
C 	C 	0.60890 0.63470 0.88780 0.43200
C 	C 	0.89500 0.83310 0.13780 0.30400
H 	H 	0.68090 0.70340 0.65390 0.09000
H 	H 	0.79820 0.78480 0.75640 0.00800
H 	H 	0.82300 0.76450 0.37160 0.02400
H 	H 	0.70570 0.68310 0.26910 0.10000
O 	O 	0.50520 0.40330 0.76290 -0.39900
Fe	Fe	0.00500 0.98950 0.51470 1.25400
O 	O 	0.06900 0.87290 0.19370 -0.45300
O 	O 	0.08530 0.90160 0.52640 -0.45500
O 	O 	0.41850 0.63050 0.49910 -0.36600
O 	O 	0.43480 0.65920 0.83180 -0.35700
C 	C 	0.18350 0.81350 0.45300 -0.10300
C 	C 	0.21050 0.78390 0.30360 0.00500
C 	C 	0.27890 0.73640 0.36330 -0.02800
C 	C 	0.32030 0.71860 0.57250 -0.05900
C 	C 	0.29330 0.74830 0.72200 -0.02500
C 	C 	0.22490 0.79570 0.66220 0.01200
C 	C 	0.10890 0.86530 0.38780 0.40000
C 	C 	0.39500 0.66690 0.63780 0.34100
H 	H 	0.18090 0.79660 0.15390 0.03000
H 	H 	0.29820 0.71520 0.25640 0.04100
H 	H 	0.32300 0.73550 0.87160 0.07600
H 	H 	0.20570 0.81690 0.76910 0.05900
O 	O 	0.00520 0.09670 0.26290 -0.47600
Fe	Fe	0.50500 0.48950 0.51470 1.28300
O 	O 	0.56900 0.37290 0.19370 -0.43900
O 	O 	0.58530 0.40160 0.52640 -0.44600
O 	O 	0.91850 0.13050 0.49910 -0.32600
O 	O 	0.93480 0.15920 0.83180 -0.31300
C 	C 	0.68350 0.31350 0.45300 -0.10300
C 	C 	0.71050 0.28390 0.30360 0.01200
C 	C 	0.77890 0.23640 0.36330 -0.03300
C 	C 	0.82030 0.21860 0.57250 -0.04400
C 	C 	0.79330 0.24830 0.72200 -0.03000
C 	C 	0.72490 0.29570 0.66220 0.01900
C 	C 	0.60890 0.36530 0.38780 0.40300
C 	C 	0.89500 0.16690 0.63780 0.33100
H 	H 	0.68090 0.29660 0.15390 0.03100
H 	H 	0.79820 0.21520 0.25640 0.04800
H 	H 	0.82300 0.23550 0.87160 0.08400
H 	H 	0.70570 0.31690 0.76910 0.06000
O 	O 	0.50520 0.59670 0.26290 -0.44400
