data_crystal

_cell_length_a 14.45800
_cell_length_b 16.91530
_cell_length_c 16.91530
_cell_angle_alpha 120.00000
_cell_angle_beta  90.00000
_cell_angle_gamma 90.00000

_symmetry_space_group_name_	'P 1'
_symmetry_space_group_name_H-M	'P 1'

loop_
_symmetry_equiv_pos_as_xyz
  x,y,z

loop_
_atom_site_label
_atom_site_type_symbol
_atom_site_fract_x
_atom_site_fract_y
_atom_site_fract_z
_atom_site_charge
Zn	Zn	0.00000 -0.00000 0.65265 1.18400
Zn	Zn	-0.00000 0.65265 1.00000 1.19500
Zn	Zn	-0.00000 0.34735 0.34735 1.20100
Cr	Cr	0.50000 0.11341 -0.00000 1.55500
Cr	Cr	0.50000 0.88659 0.88659 1.55600
Cr	Cr	0.50000 0.00000 0.11341 1.52400
H 	H 	0.71260 0.13040 0.82940 0.04700
H 	H 	0.84600 0.12630 0.75810 0.03100
H 	H 	0.71260 0.69900 0.86960 0.09600
H 	H 	0.84600 0.63180 0.87370 0.00700
H 	H 	0.71260 0.17060 0.30100 0.05100
H 	H 	0.84600 0.24190 0.36820 0.02400
H 	H 	0.28740 0.13040 0.82940 0.04300
H 	H 	0.15400 0.12630 0.75810 0.01700
H 	H 	0.28740 0.69900 0.86960 0.09600
H 	H 	0.15400 0.63180 0.87370 -0.00900
H 	H 	0.28740 0.17060 0.30100 0.04700
H 	H 	0.15400 0.24190 0.36820 0.01000
H 	H 	0.28740 0.30100 0.17060 0.05900
H 	H 	0.15400 0.36820 0.24190 0.01500
H 	H 	0.28740 0.82940 0.13040 0.10300
H 	H 	0.15400 0.75810 0.12630 -0.00900
H 	H 	0.28740 0.86960 0.69900 0.04000
H 	H 	0.15400 0.87370 0.63180 0.00800
H 	H 	0.71260 0.30100 0.17060 0.06200
H 	H 	0.84600 0.36820 0.24190 0.02900
H 	H 	0.71260 0.82940 0.13040 0.10200
H 	H 	0.84600 0.75810 0.12630 0.00700
H 	H 	0.71260 0.86960 0.69900 0.04400
H 	H 	0.84600 0.87370 0.63180 0.02300
H 	H 	0.00000 0.18450 0.54400 0.03600
H 	H 	0.00000 0.35950 0.81550 0.04100
H 	H 	-0.00000 0.45600 0.64050 0.04600
H 	H 	-0.00000 0.64050 0.45600 0.05100
H 	H 	0.00000 0.54400 0.18450 0.05300
H 	H 	0.00000 0.81550 0.35950 0.06100
C 	C 	0.74780 0.07650 0.80130 -0.01600
C 	C 	0.82720 0.07360 0.75900 0.00600
C 	C 	0.74780 0.72480 0.92350 -0.14700
C 	C 	0.82720 0.68540 0.92640 0.09200
C 	C 	0.74780 0.19870 0.27520 -0.03600
C 	C 	0.82720 0.24100 0.31460 0.03200
C 	C 	0.25220 0.07650 0.80130 -0.01900
C 	C 	0.17280 0.07360 0.75900 0.00000
C 	C 	0.25220 0.72480 0.92350 -0.16100
C 	C 	0.17280 0.68540 0.92640 0.09300
C 	C 	0.25220 0.19870 0.27520 -0.04000
C 	C 	0.17280 0.24100 0.31460 0.02700
C 	C 	0.25220 0.27520 0.19870 -0.03700
C 	C 	0.17280 0.31460 0.24100 0.03100
C 	C 	0.25220 0.80130 0.07650 -0.13300
C 	C 	0.17280 0.75900 0.07360 0.12800
C 	C 	0.25220 0.92350 0.72480 0.04500
C 	C 	0.17280 0.92640 0.68540 0.08100
C 	C 	0.74780 0.27520 0.19870 -0.03400
C 	C 	0.82720 0.31460 0.24100 0.03500
C 	C 	0.74780 0.80130 0.07650 -0.12100
C 	C 	0.82720 0.75900 0.07360 0.12100
C 	C 	0.74780 0.92350 0.72480 0.04700
C 	C 	0.82720 0.92640 0.68540 0.08200
C 	C 	-0.00000 0.18138 0.70118 0.34100
C 	C 	0.00000 0.25970 0.68225 -0.11500
C 	C 	0.00000 0.24455 0.59350 0.04100
C 	C 	0.00000 0.51980 0.81862 0.33800
C 	C 	-0.00000 0.42255 0.74030 -0.11000
C 	C 	-0.00000 0.34895 0.75545 0.04000
C 	C 	-0.00000 0.29882 0.48020 0.33900
C 	C 	0.00000 0.31775 0.57745 -0.11100
C 	C 	-0.00000 0.40650 0.65105 0.03900
C 	C 	0.00000 0.48020 0.29882 0.33400
C 	C 	0.00000 0.57745 0.31775 -0.09500
C 	C 	-0.00000 0.65105 0.40650 0.02800
C 	C 	-0.00000 0.70118 0.18138 0.33000
C 	C 	0.00000 0.68225 0.25970 -0.09000
C 	C 	0.00000 0.59350 0.24455 0.02800
C 	C 	0.00000 0.81862 0.51980 0.32900
C 	C 	0.00000 0.74030 0.42255 -0.09000
C 	C 	0.00000 0.75545 0.34895 0.02700
C 	C 	0.63050 0.00000 0.85171 0.35800
C 	C 	0.71780 0.00000 0.80332 -0.14400
C 	C 	0.63050 0.85171 1.00000 0.32700
C 	C 	0.71780 0.80332 -0.00000 0.06600
C 	C 	0.63050 0.14829 0.14829 0.42700
C 	C 	0.71780 0.19668 0.19668 -0.07500
C 	C 	0.36950 0.00000 0.85171 0.35600
C 	C 	0.28220 0.00000 0.80332 -0.15100
C 	C 	0.36950 0.85171 1.00000 0.31900
C 	C 	0.28220 0.80332 -0.00000 0.07400
C 	C 	0.36950 0.14829 0.14829 0.42600
C 	C 	0.28220 0.19668 0.19668 -0.07900
N 	N 	0.88065 0.00000 0.71833 -0.27100
N 	N 	0.88065 0.71833 1.00000 -0.27000
N 	N 	0.88065 0.28167 0.28167 -0.23500
N 	N 	0.11935 0.00000 0.71833 -0.29100
N 	N 	0.11935 0.71833 1.00000 -0.29300
N 	N 	0.11935 0.28167 0.28167 -0.25300
O 	O 	0.59865 0.07640 0.90770 -0.51800
O 	O 	0.59865 0.83130 0.92360 -0.48900
O 	O 	0.59865 0.09230 0.16870 -0.53600
O 	O 	0.40135 0.07640 0.90770 -0.52000
O 	O 	0.40135 0.83130 0.92360 -0.48900
O 	O 	0.40135 0.09230 0.16870 -0.53800
O 	O 	0.40135 0.16870 0.09230 -0.51700
O 	O 	0.40135 0.90770 0.07640 -0.43800
O 	O 	0.40135 0.92360 0.83130 -0.45500
O 	O 	0.59865 0.16870 0.09230 -0.51500
O 	O 	0.59865 0.90770 0.07640 -0.44000
O 	O 	0.59865 0.92360 0.83130 -0.45400
O 	O 	0.50000 0.00000 -0.00000 -0.83700
O 	O 	0.00000 0.19722 0.78012 -0.33400
O 	O 	-0.00000 0.10266 0.63027 -0.48200
O 	O 	-0.00000 0.58290 0.80278 -0.32300
O 	O 	0.00000 0.52761 0.89734 -0.46900
O 	O 	0.00000 0.21988 0.41710 -0.33600
O 	O 	0.00000 0.36973 0.47239 -0.46300
O 	O 	0.00000 0.41710 0.21988 -0.32100
O 	O 	0.00000 0.47239 0.36973 -0.46000
O 	O 	0.00000 0.78012 0.19722 -0.30300
O 	O 	0.00000 0.63027 0.10266 -0.44500
O 	O 	-0.00000 0.80278 0.58290 -0.30900
O 	O 	0.00000 0.89734 0.52761 -0.42500
