data_crystal

_cell_length_a 14.64620
_cell_length_b 16.78240
_cell_length_c 16.78240
_cell_angle_alpha 120.00000
_cell_angle_beta  90.00000
_cell_angle_gamma 90.00000

_symmetry_space_group_name_	'P 1'
_symmetry_space_group_name_H-M	'P 1'

loop_
_symmetry_equiv_pos_as_xyz
  x,y,z

loop_
_atom_site_label
_atom_site_type_symbol
_atom_site_fract_x
_atom_site_fract_y
_atom_site_fract_z
_atom_site_charge
Zn	Zn	-0.00000 0.34167 -0.00000 1.18300
Zn	Zn	1.00000 0.65833 0.65833 1.21800
Zn	Zn	-0.00000 1.00000 0.34167 1.15100
Cr	Cr	0.50000 1.00000 0.88570 1.52700
Cr	Cr	0.50000 0.88570 -0.00000 1.52700
Cr	Cr	0.50000 0.11430 0.11430 1.56700
H 	H 	0.28450 0.29480 0.13320 0.05200
H 	H 	0.11470 0.30970 0.13040 0.01800
H 	H 	0.28450 0.83840 0.70520 0.04400
H 	H 	0.11470 0.82070 0.69030 0.01100
H 	H 	0.28450 0.86680 0.16160 0.00800
H 	H 	0.11470 0.86960 0.17930 0.06300
H 	H 	0.71550 0.29480 0.13320 0.05500
H 	H 	0.88530 0.30970 0.13040 0.03200
H 	H 	0.71550 0.83840 0.70520 0.04600
H 	H 	0.88530 0.82070 0.69030 0.02500
H 	H 	0.71550 0.86680 0.16160 0.01100
H 	H 	0.88530 0.86960 0.17930 0.07700
H 	H 	0.71550 0.16160 0.86680 0.05800
H 	H 	0.88530 0.17930 0.86960 0.03600
H 	H 	0.71550 0.13320 0.29480 -0.00100
H 	H 	0.88530 0.13040 0.30970 0.05700
H 	H 	0.71550 0.70520 0.83840 0.06600
H 	H 	0.88530 0.69030 0.82070 0.03300
H 	H 	0.28450 0.16160 0.86680 0.05500
H 	H 	0.11470 0.17930 0.86960 0.02200
H 	H 	0.28450 0.13320 0.29480 -0.00400
H 	H 	0.11470 0.13040 0.30970 0.04300
H 	H 	0.28450 0.70520 0.83840 0.06400
H 	H 	0.11470 0.69030 0.82070 0.02000
H 	H 	0.50000 0.00000 0.53760 -0.11900
H 	H 	0.50000 0.53760 -0.00000 0.06300
H 	H 	0.50000 0.46240 0.46240 0.01500
H 	H 	0.00000 0.63760 0.18190 0.03500
H 	H 	1.00000 0.54430 0.36240 0.05500
H 	H 	-0.00000 0.81810 0.45570 0.04700
H 	H 	-0.00000 0.45570 0.81810 0.01000
H 	H 	1.00000 0.18190 0.63760 0.05600
H 	H 	1.00000 0.36240 0.54430 0.11500
H 	H 	0.50000 0.13740 0.81540 -0.06000
H 	H 	0.50000 0.13540 0.67260 0.19500
H 	H 	0.50000 0.67800 0.86260 0.02100
H 	H 	0.50000 0.53720 0.86460 0.02800
H 	H 	0.50000 0.18460 0.32200 0.03000
H 	H 	0.50000 0.32740 0.46280 0.07600
H 	H 	0.50000 0.32200 0.18460 0.00900
H 	H 	0.50000 0.46280 0.32740 0.06700
H 	H 	0.50000 0.81540 0.13740 0.02300
H 	H 	0.50000 0.67260 0.13540 0.02600
H 	H 	0.50000 0.86260 0.67800 -0.04700
H 	H 	0.50000 0.86460 0.53720 0.19900
C 	C 	0.25050 0.26970 0.07850 -0.02100
C 	C 	0.14950 0.27890 0.07620 0.00800
C 	C 	0.25050 0.80880 0.73030 -0.03000
C 	C 	0.14950 0.79730 0.72110 0.00800
C 	C 	0.25050 0.92150 0.19120 0.07400
C 	C 	0.14950 0.92380 0.20270 -0.17300
C 	C 	0.74950 0.26970 0.07850 -0.01900
C 	C 	0.85050 0.27890 0.07620 0.01400
C 	C 	0.74950 0.80880 0.73030 -0.02700
C 	C 	0.85050 0.79730 0.72110 0.01300
C 	C 	0.74950 0.92150 0.19120 0.07600
C 	C 	0.85050 0.92380 0.20270 -0.16600
C 	C 	0.74950 0.19120 0.92150 0.05100
C 	C 	0.85050 0.20270 0.92380 0.08600
C 	C 	0.74950 0.07850 0.26970 0.19900
C 	C 	0.85050 0.07620 0.27890 -0.03000
C 	C 	0.74950 0.73030 0.80880 -0.02300
C 	C 	0.85050 0.72110 0.79730 0.02000
C 	C 	0.25050 0.19120 0.92150 0.05200
C 	C 	0.14950 0.20270 0.92380 0.08600
C 	C 	0.25050 0.07850 0.26970 0.19700
C 	C 	0.14950 0.07620 0.27890 -0.03500
C 	C 	0.25050 0.73030 0.80880 -0.02600
C 	C 	0.14950 0.72110 0.79730 0.01600
C 	C 	0.50000 0.00000 0.59360 0.55900
C 	C 	0.50000 0.59360 -0.00000 -0.15400
C 	C 	0.50000 0.40640 0.40640 0.04800
C 	C 	0.37020 0.14860 -0.00000 0.34700
C 	C 	0.28230 0.19540 -0.00000 -0.13200
C 	C 	0.37020 0.85140 0.85140 0.41700
C 	C 	0.28230 0.80460 0.80460 -0.08200
C 	C 	0.37020 1.00000 0.14860 0.31800
C 	C 	0.28230 1.00000 0.19540 -0.27500
C 	C 	0.62980 0.14860 -0.00000 0.34800
C 	C 	0.71770 0.19540 -0.00000 -0.12600
C 	C 	0.62980 0.85140 0.85140 0.41700
C 	C 	0.71770 0.80460 0.80460 -0.08000
C 	C 	0.62980 1.00000 0.14860 0.31800
C 	C 	0.71770 1.00000 0.19540 -0.27200
C 	C 	0.00000 0.47860 0.18270 0.30600
C 	C 	0.00000 0.57640 0.25950 -0.13200
C 	C 	-0.00000 0.64910 0.24280 0.03900
C 	C 	-0.00000 0.70410 0.52140 0.30400
C 	C 	1.00000 0.68310 0.42360 -0.04100
C 	C 	1.00000 0.59370 0.35090 0.05800
C 	C 	0.00000 0.81730 0.29590 0.34600
C 	C 	-0.00000 0.74050 0.31690 -0.11000
C 	C 	-0.00000 0.75720 0.40630 -0.01600
C 	C 	-0.00000 0.29590 0.81730 0.32500
C 	C 	-0.00000 0.31690 0.74050 -0.17500
C 	C 	1.00000 0.40630 0.75720 0.11700
C 	C 	0.00000 0.18270 0.47860 0.29000
C 	C 	0.00000 0.25950 0.57640 -0.09900
C 	C 	1.00000 0.24280 0.64910 0.12200
C 	C 	-0.00000 0.52140 0.70410 0.21400
C 	C 	1.00000 0.42360 0.68310 -0.01000
C 	C 	-0.00000 0.35090 0.59370 -0.08400
C 	C 	0.50000 0.08100 0.75990 0.33800
C 	C 	0.50000 0.07970 0.67310 -0.42900
C 	C 	0.50000 0.67890 0.91900 0.06500
C 	C 	0.50000 0.59340 0.92030 0.05900
C 	C 	0.50000 0.24010 0.32110 0.06000
C 	C 	0.50000 0.32690 0.40660 -0.10800
C 	C 	0.50000 0.32110 0.24010 0.06100
C 	C 	0.50000 0.40660 0.32690 -0.11200
C 	C 	0.50000 0.75990 0.08100 0.00000
C 	C 	0.50000 0.67310 0.07970 -0.01300
C 	C 	0.50000 0.91900 0.67890 0.22400
C 	C 	0.50000 0.92030 0.59340 -0.55700
N 	N 	0.50000 1.00000 0.76140 -0.37000
N 	N 	0.50000 0.76140 -0.00000 -0.25700
N 	N 	0.50000 0.23860 0.23860 -0.23200
N 	N 	0.11780 0.27570 -0.00000 -0.29300
N 	N 	0.11780 0.72430 0.72430 -0.25300
N 	N 	0.11780 0.00000 0.27570 -0.13500
N 	N 	0.88220 0.27570 -0.00000 -0.27700
N 	N 	0.88220 0.72430 0.72430 -0.24100
N 	N 	0.88220 0.00000 0.27570 -0.12300
O 	O 	0.40259 0.09270 0.92343 -0.39100
O 	O 	0.40259 0.83073 0.90730 -0.48300
O 	O 	0.40259 0.07657 0.16927 -0.40500
O 	O 	0.59741 0.09270 0.92343 -0.39100
O 	O 	0.59741 0.83073 0.90730 -0.48300
O 	O 	0.59741 0.07657 0.16927 -0.40400
O 	O 	0.59741 0.16927 0.07657 -0.48500
O 	O 	0.59741 0.92343 0.09270 -0.51400
O 	O 	0.59741 0.90730 0.83073 -0.52500
O 	O 	0.40259 0.16927 0.07657 -0.48600
O 	O 	0.40259 0.92343 0.09270 -0.51500
O 	O 	0.40259 0.90730 0.83073 -0.52600
O 	O 	0.50000 0.00000 -0.00000 -0.75500
O 	O 	1.00000 0.41522 0.19912 -0.27700
O 	O 	-0.00000 0.46800 0.10220 -0.47300
O 	O 	-0.00000 0.78390 0.58478 -0.33600
O 	O 	0.00000 0.63420 0.53200 -0.46800
O 	O 	-0.00000 0.80088 0.21610 -0.35700
O 	O 	-0.00000 0.89780 0.36580 -0.50400
O 	O 	-0.00000 0.21610 0.80088 -0.30000
O 	O 	1.00000 0.36580 0.89780 -0.38100
O 	O 	1.00000 0.19912 0.41522 -0.26400
O 	O 	-0.00000 0.10220 0.46800 -0.40600
O 	O 	1.00000 0.58478 0.78390 -0.24600
O 	O 	1.00000 0.53200 0.63420 -0.39500
