data_crystal

_cell_length_a 25.68700
_cell_length_b 25.68700
_cell_length_c 13.22400
_cell_angle_alpha 90.00000
_cell_angle_beta  90.00000
_cell_angle_gamma 120.00000

_symmetry_space_group_name_	'P 1'
_symmetry_space_group_name_H-M	'P 1'

loop_
_symmetry_equiv_pos_as_xyz
  x,y,z

loop_
_atom_site_label
_atom_site_type_symbol
_atom_site_fract_x
_atom_site_fract_y
_atom_site_fract_z
_atom_site_charge
O 	O 	0.06100 0.11123 0.89300 -0.49000
C 	C 	0.13000 0.18270 0.73760 -0.06100
H 	H 	0.09880 0.18830 0.76180 0.06600
C 	C 	0.16650 0.21730 0.66260 0.04900
H 	H 	0.16130 0.24880 0.63830 0.00600
O 	O 	0.33010 0.23740 0.51300 -0.21300
O 	O 	0.35160 0.30790 0.39610 -0.27300
C 	C 	0.36600 0.27680 0.45290 0.21500
C 	C 	0.42950 0.28670 0.45240 -0.04200
C 	C 	0.43860 0.24610 0.50700 -0.01500
H 	H 	0.40740 0.21480 0.54410 0.04400
C 	C 	0.49820 0.25430 0.50400 -0.03000
H 	H 	0.50560 0.22480 0.53130 0.03300
C 	C 	0.54530 0.30660 0.46090 0.00400
C 	C 	0.53270 0.34530 0.40450 -0.06500
H 	H 	0.56410 0.37770 0.36970 0.04600
C 	C 	0.47500 0.33680 0.39920 -0.01900
H 	H 	0.46650 0.36290 0.36210 0.04700
C 	C 	0.65320 0.37820 0.45970 -0.05500
H 	H 	0.64360 0.40900 0.46230 0.03600
C 	C 	0.60750 0.31890 0.45780 0.01000
O 	O 	0.88877 0.94977 0.89300 -0.44000
C 	C 	0.81730 0.94730 0.73760 -0.01500
H 	H 	0.81170 0.91050 0.76180 0.06600
C 	C 	0.78270 0.94920 0.66260 0.07600
H 	H 	0.75120 0.91250 0.63830 0.00800
O 	O 	0.76260 0.09270 0.51300 -0.21200
O 	O 	0.69210 0.04370 0.39610 -0.28700
C 	C 	0.72320 0.08920 0.45290 0.21700
C 	C 	0.71330 0.14280 0.45240 -0.04300
C 	C 	0.75390 0.19250 0.50700 -0.01500
H 	H 	0.78520 0.19260 0.54410 0.04800
C 	C 	0.74570 0.24390 0.50400 -0.03000
H 	H 	0.77520 0.28080 0.53130 0.03600
C 	C 	0.69340 0.23870 0.46090 0.00500
C 	C 	0.65470 0.18740 0.40450 -0.06600
H 	H 	0.62230 0.18640 0.36970 0.04400
C 	C 	0.66320 0.13820 0.39920 -0.01800
H 	H 	0.63710 0.10360 0.36210 0.04200
C 	C 	0.62180 0.27500 0.45970 -0.05500
H 	H 	0.59100 0.23460 0.46230 0.03400
C 	C 	0.68110 0.28860 0.45780 0.01100
O 	O 	0.05023 0.93900 0.89300 -0.45700
C 	C 	0.05270 0.87000 0.73760 -0.04600
H 	H 	0.08950 0.90120 0.76180 0.07400
C 	C 	0.05080 0.83350 0.66260 0.04100
H 	H 	0.08750 0.83870 0.63830 0.01500
O 	O 	0.90730 0.66990 0.51300 -0.20600
O 	O 	0.95630 0.64840 0.39610 -0.25000
C 	C 	0.91080 0.63400 0.45290 0.21100
C 	C 	0.85720 0.57050 0.45240 -0.03800
C 	C 	0.80750 0.56140 0.50700 -0.01800
H 	H 	0.80740 0.59260 0.54410 0.04800
C 	C 	0.75610 0.50180 0.50400 -0.02900
H 	H 	0.71920 0.49440 0.53130 0.03500
C 	C 	0.76130 0.45470 0.46090 0.00400
C 	C 	0.81260 0.46730 0.40450 -0.06200
H 	H 	0.81360 0.43590 0.36970 0.04700
C 	C 	0.86180 0.52500 0.39920 -0.02000
H 	H 	0.89640 0.53350 0.36210 0.05400
C 	C 	0.72500 0.34680 0.45970 -0.05500
H 	H 	0.76540 0.35640 0.46230 0.03600
C 	C 	0.71140 0.39250 0.45780 0.01100
O 	O 	0.06100 0.11123 0.10700 -0.56400
C 	C 	0.13000 0.18270 0.26240 -0.04600
H 	H 	0.09880 0.18830 0.23820 0.04300
C 	C 	0.16650 0.21730 0.33740 0.02900
H 	H 	0.16130 0.24880 0.36170 0.00500
O 	O 	0.33010 0.23740 0.48700 -0.20800
O 	O 	0.35160 0.30790 0.60390 -0.25700
C 	C 	0.36600 0.27680 0.54710 0.21900
C 	C 	0.42950 0.28670 0.54760 -0.03000
C 	C 	0.43860 0.24610 0.49300 -0.01500
H 	H 	0.40740 0.21480 0.45590 0.03600
C 	C 	0.49820 0.25430 0.49600 -0.03000
H 	H 	0.50560 0.22480 0.46870 0.02400
C 	C 	0.54530 0.30660 0.53910 0.01700
C 	C 	0.53270 0.34530 0.59550 -0.06200
H 	H 	0.56410 0.37770 0.63030 0.06100
C 	C 	0.47500 0.33680 0.60080 -0.01400
H 	H 	0.46650 0.36290 0.63790 0.06300
C 	C 	0.65320 0.37820 0.54030 -0.05100
H 	H 	0.64360 0.40900 0.53770 0.04000
C 	C 	0.60750 0.31890 0.54220 0.02400
O 	O 	0.88877 0.94977 0.10700 -0.51400
C 	C 	0.81730 0.94730 0.26240 -0.00100
H 	H 	0.81170 0.91050 0.23820 0.04100
C 	C 	0.78270 0.94920 0.33740 0.05600
H 	H 	0.75120 0.91250 0.36170 0.00500
O 	O 	0.76260 0.09270 0.48700 -0.20800
O 	O 	0.69210 0.04370 0.60390 -0.27300
C 	C 	0.72320 0.08920 0.54710 0.22100
C 	C 	0.71330 0.14280 0.54760 -0.03200
C 	C 	0.75390 0.19250 0.49300 -0.01500
H 	H 	0.78520 0.19260 0.45590 0.04000
C 	C 	0.74570 0.24390 0.49600 -0.03000
H 	H 	0.77520 0.28080 0.46870 0.02800
C 	C 	0.69340 0.23870 0.53910 0.01800
C 	C 	0.65470 0.18740 0.59550 -0.06300
H 	H 	0.62230 0.18640 0.63030 0.05900
C 	C 	0.66320 0.13820 0.60080 -0.01300
H 	H 	0.63710 0.10360 0.63790 0.05700
C 	C 	0.62180 0.27500 0.54030 -0.05100
H 	H 	0.59100 0.23460 0.53770 0.03900
C 	C 	0.68110 0.28860 0.54220 0.02400
O 	O 	0.05023 0.93900 0.10700 -0.53100
C 	C 	0.05270 0.87000 0.26240 -0.03200
H 	H 	0.08950 0.90120 0.23820 0.04900
C 	C 	0.05080 0.83350 0.33740 0.02100
H 	H 	0.08750 0.83870 0.36170 0.01200
O 	O 	0.90730 0.66990 0.48700 -0.20200
O 	O 	0.95630 0.64840 0.60390 -0.23600
C 	C 	0.91080 0.63400 0.54710 0.21500
C 	C 	0.85720 0.57050 0.54760 -0.02600
C 	C 	0.80750 0.56140 0.49300 -0.01800
H 	H 	0.80740 0.59260 0.45590 0.04100
C 	C 	0.75610 0.50180 0.49600 -0.02900
H 	H 	0.71920 0.49440 0.46870 0.02600
C 	C 	0.76130 0.45470 0.53910 0.01700
C 	C 	0.81260 0.46730 0.59550 -0.05900
H 	H 	0.81360 0.43590 0.63030 0.06300
C 	C 	0.86180 0.52500 0.60080 -0.01500
H 	H 	0.89640 0.53350 0.63790 0.06900
C 	C 	0.72500 0.34680 0.54030 -0.05100
H 	H 	0.76540 0.35640 0.53770 0.04100
C 	C 	0.71140 0.39250 0.54220 0.02500
O 	O 	0.11123 0.06100 0.10700 -0.56400
C 	C 	0.18270 0.13000 0.26240 -0.04600
H 	H 	0.18830 0.09880 0.23820 0.04300
C 	C 	0.21730 0.16650 0.33740 0.02900
H 	H 	0.24880 0.16130 0.36170 0.00500
O 	O 	0.23740 0.33010 0.48700 -0.20800
O 	O 	0.30790 0.35160 0.60390 -0.25700
C 	C 	0.27680 0.36600 0.54710 0.21900
C 	C 	0.28670 0.42950 0.54760 -0.03000
C 	C 	0.24610 0.43860 0.49300 -0.01500
H 	H 	0.21480 0.40740 0.45590 0.03600
C 	C 	0.25430 0.49820 0.49600 -0.03000
H 	H 	0.22480 0.50560 0.46870 0.02400
C 	C 	0.30660 0.54530 0.53910 0.01700
C 	C 	0.34530 0.53270 0.59550 -0.06200
H 	H 	0.37770 0.56410 0.63030 0.06100
C 	C 	0.33680 0.47500 0.60080 -0.01400
H 	H 	0.36290 0.46650 0.63790 0.06300
C 	C 	0.37820 0.65320 0.54030 -0.05100
H 	H 	0.40900 0.64360 0.53770 0.04000
C 	C 	0.31890 0.60750 0.54220 0.02400
O 	O 	0.94977 0.88877 0.10700 -0.51400
C 	C 	0.94730 0.81730 0.26240 -0.00100
H 	H 	0.91050 0.81170 0.23820 0.04100
C 	C 	0.94920 0.78270 0.33740 0.05600
H 	H 	0.91250 0.75120 0.36170 0.00500
O 	O 	0.09270 0.76260 0.48700 -0.20800
O 	O 	0.04370 0.69210 0.60390 -0.27300
C 	C 	0.08920 0.72320 0.54710 0.22100
C 	C 	0.14280 0.71330 0.54760 -0.03200
C 	C 	0.19250 0.75390 0.49300 -0.01500
H 	H 	0.19260 0.78520 0.45590 0.04000
C 	C 	0.24390 0.74570 0.49600 -0.03000
H 	H 	0.28080 0.77520 0.46870 0.02800
C 	C 	0.23870 0.69340 0.53910 0.01800
C 	C 	0.18740 0.65470 0.59550 -0.06300
H 	H 	0.18640 0.62230 0.63030 0.05900
C 	C 	0.13820 0.66320 0.60080 -0.01300
H 	H 	0.10360 0.63710 0.63790 0.05700
C 	C 	0.27500 0.62180 0.54030 -0.05100
H 	H 	0.23460 0.59100 0.53770 0.03900
C 	C 	0.28860 0.68110 0.54220 0.02400
O 	O 	0.93900 0.05023 0.10700 -0.53100
C 	C 	0.87000 0.05270 0.26240 -0.03200
H 	H 	0.90120 0.08950 0.23820 0.04900
C 	C 	0.83350 0.05080 0.33740 0.02100
H 	H 	0.83870 0.08750 0.36170 0.01200
O 	O 	0.66990 0.90730 0.48700 -0.20200
O 	O 	0.64840 0.95630 0.60390 -0.23600
C 	C 	0.63400 0.91080 0.54710 0.21500
C 	C 	0.57050 0.85720 0.54760 -0.02600
C 	C 	0.56140 0.80750 0.49300 -0.01800
H 	H 	0.59260 0.80740 0.45590 0.04100
C 	C 	0.50180 0.75610 0.49600 -0.02900
H 	H 	0.49440 0.71920 0.46870 0.02600
C 	C 	0.45470 0.76130 0.53910 0.01700
C 	C 	0.46730 0.81260 0.59550 -0.05900
H 	H 	0.43590 0.81360 0.63030 0.06300
C 	C 	0.52500 0.86180 0.60080 -0.01500
H 	H 	0.53350 0.89640 0.63790 0.06900
C 	C 	0.34680 0.72500 0.54030 -0.05100
H 	H 	0.35640 0.76540 0.53770 0.04100
C 	C 	0.39250 0.71140 0.54220 0.02500
O 	O 	0.11123 0.06100 0.89300 -0.48900
C 	C 	0.18270 0.13000 0.73760 -0.06000
H 	H 	0.18830 0.09880 0.76180 0.06700
C 	C 	0.21730 0.16650 0.66260 0.05000
H 	H 	0.24880 0.16130 0.63830 0.00700
O 	O 	0.23740 0.33010 0.51300 -0.21200
O 	O 	0.30790 0.35160 0.39610 -0.27200
C 	C 	0.27680 0.36600 0.45290 0.21500
C 	C 	0.28670 0.42950 0.45240 -0.04200
C 	C 	0.24610 0.43860 0.50700 -0.01500
H 	H 	0.21480 0.40740 0.54410 0.04400
C 	C 	0.25430 0.49820 0.50400 -0.03000
H 	H 	0.22480 0.50560 0.53130 0.03300
C 	C 	0.30660 0.54530 0.46090 0.00400
C 	C 	0.34530 0.53270 0.40450 -0.06500
H 	H 	0.37770 0.56410 0.36970 0.04600
C 	C 	0.33680 0.47500 0.39920 -0.01900
H 	H 	0.36290 0.46650 0.36210 0.04700
C 	C 	0.37820 0.65320 0.45970 -0.05500
H 	H 	0.40900 0.64360 0.46230 0.03600
C 	C 	0.31890 0.60750 0.45780 0.01000
O 	O 	0.94977 0.88877 0.89300 -0.44000
C 	C 	0.94730 0.81730 0.73760 -0.01500
H 	H 	0.91050 0.81170 0.76180 0.06600
C 	C 	0.94920 0.78270 0.66260 0.07600
H 	H 	0.91250 0.75120 0.63830 0.00800
O 	O 	0.09270 0.76260 0.51300 -0.21200
O 	O 	0.04370 0.69210 0.39610 -0.28700
C 	C 	0.08920 0.72320 0.45290 0.21700
C 	C 	0.14280 0.71330 0.45240 -0.04300
C 	C 	0.19250 0.75390 0.50700 -0.01500
H 	H 	0.19260 0.78520 0.54410 0.04800
C 	C 	0.24390 0.74570 0.50400 -0.03000
H 	H 	0.28080 0.77520 0.53130 0.03600
C 	C 	0.23870 0.69340 0.46090 0.00500
C 	C 	0.18740 0.65470 0.40450 -0.06600
H 	H 	0.18640 0.62230 0.36970 0.04400
C 	C 	0.13820 0.66320 0.39920 -0.01800
H 	H 	0.10360 0.63710 0.36210 0.04200
C 	C 	0.27500 0.62180 0.45970 -0.05500
H 	H 	0.23460 0.59100 0.46230 0.03400
C 	C 	0.28860 0.68110 0.45780 0.01100
O 	O 	0.93900 0.05023 0.89300 -0.45700
C 	C 	0.87000 0.05270 0.73760 -0.04600
H 	H 	0.90120 0.08950 0.76180 0.07400
C 	C 	0.83350 0.05080 0.66260 0.04100
H 	H 	0.83870 0.08750 0.63830 0.01500
O 	O 	0.66990 0.90730 0.51300 -0.20600
O 	O 	0.64840 0.95630 0.39610 -0.25000
C 	C 	0.63400 0.91080 0.45290 0.21100
C 	C 	0.57050 0.85720 0.45240 -0.03800
C 	C 	0.56140 0.80750 0.50700 -0.01800
H 	H 	0.59260 0.80740 0.54410 0.04800
C 	C 	0.50180 0.75610 0.50400 -0.02900
H 	H 	0.49440 0.71920 0.53130 0.03500
C 	C 	0.45470 0.76130 0.46090 0.00400
C 	C 	0.46730 0.81260 0.40450 -0.06200
H 	H 	0.43590 0.81360 0.36970 0.04700
C 	C 	0.52500 0.86180 0.39920 -0.02000
H 	H 	0.53350 0.89640 0.36210 0.05400
C 	C 	0.34680 0.72500 0.45970 -0.05500
H 	H 	0.35640 0.76540 0.46230 0.03600
C 	C 	0.39250 0.71140 0.45780 0.01100
Zn	Zn	0.26209 0.26209 0.50000 1.21200
Zn	Zn	0.73791 0.00000 0.50000 1.20400
Zn	Zn	-0.00000 0.73791 0.50000 1.20400
Cr	Cr	-0.00000 0.07459 -0.00000 1.50300
Cr	Cr	0.92541 0.92541 -0.00000 1.52700
Cr	Cr	0.07459 0.00000 -0.00000 1.50300
O 	O 	-0.00000 0.00000 -0.00000 -0.89800
C 	C 	0.09900 0.09900 0.86250 0.42600
C 	C 	0.13970 0.13970 0.77690 -0.04300
N 	N 	0.20970 0.20970 0.62060 -0.24100
C 	C 	0.90100 0.00000 0.86250 0.39000
C 	C 	0.86030 0.00000 0.77690 -0.07400
N 	N 	0.79030 -0.00000 0.62060 -0.25800
C 	C 	-0.00000 0.90100 0.86250 0.39000
C 	C 	-0.00000 0.86030 0.77690 -0.07400
N 	N 	0.00000 0.79030 0.62060 -0.25800
C 	C 	0.09900 0.09900 0.13750 0.43900
C 	C 	0.13970 0.13970 0.22310 -0.08200
N 	N 	0.20970 0.20970 0.37940 -0.23900
C 	C 	0.90100 0.00000 0.13750 0.40300
C 	C 	0.86030 -0.00000 0.22310 -0.11200
N 	N 	0.79030 0.00000 0.37940 -0.25600
C 	C 	-0.00000 0.90100 0.13750 0.40300
C 	C 	-0.00000 0.86030 0.22310 -0.11200
N 	N 	0.00000 0.79030 0.37940 -0.25600
