data_crystal

_cell_length_a 13.23500
_cell_length_b 29.74900
_cell_length_c 29.74900
_cell_angle_alpha 120.00000
_cell_angle_beta  90.00000
_cell_angle_gamma 90.00000

_symmetry_space_group_name_	'P 1'
_symmetry_space_group_name_H-M	'P 1'

loop_
_symmetry_equiv_pos_as_xyz
  x,y,z

loop_
_atom_site_label
_atom_site_type_symbol
_atom_site_fract_x
_atom_site_fract_y
_atom_site_fract_z
_atom_site_charge
H 	H 	0.97490 0.63200 0.83440 0.04100
H 	H 	0.19130 0.60750 0.91440 0.04900
H 	H 	0.99500 0.54650 0.76350 0.03500
H 	H 	0.20830 0.52060 0.84510 0.11900
H 	H 	0.09380 0.46930 0.72600 0.12900
H 	H 	0.15820 0.34660 0.75080 0.04900
H 	H 	0.97490 0.20240 0.36800 0.03900
H 	H 	0.19130 0.30690 0.39250 0.04400
H 	H 	0.99500 0.21700 0.45350 0.03400
H 	H 	0.20830 0.32450 0.47940 0.11800
H 	H 	0.09380 0.25670 0.53070 0.12900
H 	H 	0.15820 0.40420 0.65340 0.04900
H 	H 	0.97490 0.16560 0.79760 0.04000
H 	H 	0.19130 0.08560 0.69310 0.03900
H 	H 	0.99500 0.23650 0.78300 0.03400
H 	H 	0.20830 0.15490 0.67550 0.11600
H 	H 	0.09380 0.27400 0.74330 0.12900
H 	H 	0.15820 0.24920 0.59580 0.04600
H 	H 	0.02510 0.63200 0.83440 0.03300
H 	H 	0.80870 0.60750 0.91440 0.05200
H 	H 	0.00500 0.54650 0.76350 0.04300
H 	H 	0.79170 0.52060 0.84510 0.11200
H 	H 	0.90620 0.46930 0.72600 0.12900
H 	H 	0.84180 0.34660 0.75080 0.05000
H 	H 	0.02510 0.20240 0.36800 0.03000
H 	H 	0.80870 0.30690 0.39250 0.04700
H 	H 	0.00500 0.21700 0.45350 0.04400
H 	H 	0.79170 0.32450 0.47940 0.11000
H 	H 	0.90620 0.25670 0.53070 0.12800
H 	H 	0.84180 0.40420 0.65340 0.05000
H 	H 	0.02510 0.16560 0.79760 0.03200
H 	H 	0.80870 0.08560 0.69310 0.04400
H 	H 	0.00500 0.23650 0.78300 0.04400
H 	H 	0.79170 0.15490 0.67550 0.10900
H 	H 	0.90620 0.27400 0.74330 0.12900
H 	H 	0.84180 0.24920 0.59580 0.04800
C 	C 	0.02210 0.60950 0.83640 -0.00700
C 	C 	0.06230 0.68150 0.92390 0.25300
C 	C 	0.07900 0.62600 0.87990 -0.06100
C 	C 	0.15090 0.59490 0.88460 0.04000
C 	C 	0.03390 0.55810 0.79380 -0.12900
C 	C 	0.10400 0.52540 0.79790 0.16500
C 	C 	0.16170 0.54300 0.84250 -0.15000
C 	C 	0.15410 0.43410 0.75580 0.22700
C 	C 	0.15400 0.38210 0.70660 -0.05400
C 	C 	0.15580 0.34100 0.71680 -0.00700
C 	C 	0.02210 0.22690 0.39050 -0.00400
C 	C 	0.06230 0.24240 0.31850 0.25600
C 	C 	0.07900 0.25390 0.37400 -0.06700
C 	C 	0.15090 0.28970 0.40510 0.04200
C 	C 	0.03390 0.23570 0.44190 -0.13700
C 	C 	0.10400 0.27250 0.47460 0.16800
C 	C 	0.16170 0.29950 0.45700 -0.15500
C 	C 	0.15410 0.32170 0.56590 0.22700
C 	C 	0.15400 0.32450 0.61790 -0.05500
C 	C 	0.15580 0.37580 0.65900 -0.00700
C 	C 	0.02210 0.16360 0.77310 -0.00400
C 	C 	0.06230 0.07610 0.75760 0.25800
C 	C 	0.07900 0.12010 0.74610 -0.06800
C 	C 	0.15090 0.11540 0.71030 0.04300
C 	C 	0.03390 0.20620 0.76430 -0.13300
C 	C 	0.10400 0.20210 0.72750 0.16800
C 	C 	0.16170 0.15750 0.70050 -0.15500
C 	C 	0.15410 0.24420 0.67830 0.22800
C 	C 	0.15400 0.29340 0.67550 -0.05500
C 	C 	0.15580 0.28320 0.62420 -0.00600
C 	C 	0.97790 0.60950 0.83640 0.00400
C 	C 	0.93770 0.68150 0.92390 0.26400
C 	C 	0.92100 0.62600 0.87990 -0.06200
C 	C 	0.84910 0.59490 0.88460 0.03100
C 	C 	0.96610 0.55810 0.79380 -0.02300
C 	C 	0.89600 0.52540 0.79790 0.12600
C 	C 	0.83830 0.54300 0.84250 -0.12800
C 	C 	0.84590 0.43410 0.75580 0.22600
C 	C 	0.84600 0.38210 0.70660 -0.05000
C 	C 	0.84420 0.34100 0.71680 -0.00800
C 	C 	0.97790 0.22690 0.39050 0.00800
C 	C 	0.93770 0.24240 0.31850 0.26900
C 	C 	0.92100 0.25390 0.37400 -0.06700
C 	C 	0.84910 0.28970 0.40510 0.03200
C 	C 	0.96610 0.23570 0.44190 -0.01900
C 	C 	0.89600 0.27250 0.47460 0.12400
C 	C 	0.83830 0.29950 0.45700 -0.13000
C 	C 	0.84590 0.32170 0.56590 0.22600
C 	C 	0.84600 0.32450 0.61790 -0.05100
C 	C 	0.84420 0.37580 0.65900 -0.00800
C 	C 	0.97790 0.16360 0.77310 0.00700
C 	C 	0.93770 0.07610 0.75760 0.27000
C 	C 	0.92100 0.12010 0.74610 -0.06800
C 	C 	0.84910 0.11540 0.71030 0.03200
C 	C 	0.96610 0.20620 0.76430 -0.02100
C 	C 	0.89600 0.20210 0.72750 0.12600
C 	C 	0.83830 0.15750 0.70050 -0.13200
C 	C 	0.84590 0.24420 0.67830 0.22700
C 	C 	0.84600 0.29340 0.67550 -0.05100
C 	C 	0.84420 0.28320 0.62420 -0.00800
N 	N 	0.11540 0.47450 0.75590 -0.24800
N 	N 	0.11540 0.28140 0.52550 -0.24900
N 	N 	0.11540 0.24410 0.71860 -0.24900
N 	N 	0.88460 0.47450 0.75590 -0.24000
N 	N 	0.88460 0.28140 0.52550 -0.24000
N 	N 	0.88460 0.24410 0.71860 -0.24000
O 	O 	0.11210 0.69600 0.96450 -0.26400
O 	O 	0.19450 0.43730 0.79530 -0.22100
O 	O 	0.11210 0.26850 0.30400 -0.27900
O 	O 	0.19450 0.35800 0.56270 -0.22300
O 	O 	0.11210 0.03550 0.73150 -0.29100
O 	O 	0.19450 0.20470 0.64200 -0.22500
O 	O 	0.88790 0.69600 0.96450 -0.26500
O 	O 	0.80550 0.43730 0.79530 -0.21800
O 	O 	0.88790 0.26850 0.30400 -0.28000
O 	O 	0.80550 0.35800 0.56270 -0.22000
O 	O 	0.88790 0.03550 0.73150 -0.29100
O 	O 	0.80550 0.20470 0.64200 -0.22200
O 	O 	0.00000 0.70780 0.91520 -0.43900
O 	O 	-0.00000 0.20740 0.29220 -0.44900
O 	O 	0.00000 0.08480 0.79260 -0.44800
H 	H 	0.02510 0.79760 0.16560 0.03200
H 	H 	0.80870 0.69310 0.08560 0.04400
H 	H 	0.00500 0.78300 0.23650 0.04400
H 	H 	0.79170 0.67550 0.15490 0.10900
H 	H 	0.90620 0.74330 0.27400 0.12900
H 	H 	0.84180 0.59580 0.24920 0.04800
H 	H 	0.02510 0.83440 0.63200 0.03300
H 	H 	0.80870 0.91440 0.60750 0.05200
H 	H 	0.00500 0.76350 0.54650 0.04300
H 	H 	0.79170 0.84510 0.52060 0.11200
H 	H 	0.90620 0.72600 0.46930 0.12900
H 	H 	0.84180 0.75080 0.34660 0.05000
H 	H 	0.02510 0.36800 0.20240 0.03000
H 	H 	0.80870 0.39250 0.30690 0.04700
H 	H 	0.00500 0.45350 0.21700 0.04400
H 	H 	0.79170 0.47940 0.32450 0.11000
H 	H 	0.90620 0.53070 0.25670 0.12800
H 	H 	0.84180 0.65340 0.40420 0.05000
H 	H 	0.97490 0.79760 0.16560 0.04000
H 	H 	0.19130 0.69310 0.08560 0.03900
H 	H 	0.99500 0.78300 0.23650 0.03400
H 	H 	0.20830 0.67550 0.15490 0.11600
H 	H 	0.09380 0.74330 0.27400 0.12900
H 	H 	0.15820 0.59580 0.24920 0.04600
H 	H 	0.97490 0.83440 0.63200 0.04000
H 	H 	0.19130 0.91440 0.60750 0.04800
H 	H 	0.99500 0.76350 0.54650 0.03400
H 	H 	0.20830 0.84510 0.52060 0.11800
H 	H 	0.09380 0.72600 0.46930 0.12800
H 	H 	0.15820 0.75080 0.34660 0.04800
H 	H 	0.97490 0.36800 0.20240 0.03800
H 	H 	0.19130 0.39250 0.30690 0.04300
H 	H 	0.99500 0.45350 0.21700 0.03300
H 	H 	0.20830 0.47940 0.32450 0.11700
H 	H 	0.09380 0.53070 0.25670 0.12800
H 	H 	0.15820 0.65340 0.40420 0.04800
C 	C 	0.97790 0.77310 0.16360 0.00700
C 	C 	0.93770 0.75760 0.07610 0.27000
C 	C 	0.92100 0.74610 0.12010 -0.06800
C 	C 	0.84910 0.71030 0.11540 0.03200
C 	C 	0.96610 0.76430 0.20620 -0.02100
C 	C 	0.89600 0.72750 0.20210 0.12600
C 	C 	0.83830 0.70050 0.15750 -0.13200
C 	C 	0.84590 0.67830 0.24420 0.22700
C 	C 	0.84600 0.67550 0.29340 -0.05100
C 	C 	0.84420 0.62420 0.28320 -0.00800
C 	C 	0.97790 0.83640 0.60950 0.00400
C 	C 	0.93770 0.92390 0.68150 0.26400
C 	C 	0.92100 0.87990 0.62600 -0.06200
C 	C 	0.84910 0.88460 0.59490 0.03100
C 	C 	0.96610 0.79380 0.55810 -0.02300
C 	C 	0.89600 0.79790 0.52540 0.12600
C 	C 	0.83830 0.84250 0.54300 -0.12800
C 	C 	0.84590 0.75580 0.43410 0.22600
C 	C 	0.84600 0.70660 0.38210 -0.05000
C 	C 	0.84420 0.71680 0.34100 -0.00800
C 	C 	0.97790 0.39050 0.22690 0.00800
C 	C 	0.93770 0.31850 0.24240 0.26900
C 	C 	0.92100 0.37400 0.25390 -0.06700
C 	C 	0.84910 0.40510 0.28970 0.03200
C 	C 	0.96610 0.44190 0.23570 -0.01900
C 	C 	0.89600 0.47460 0.27250 0.12400
C 	C 	0.83830 0.45700 0.29950 -0.13000
C 	C 	0.84590 0.56590 0.32170 0.22600
C 	C 	0.84600 0.61790 0.32450 -0.05100
C 	C 	0.84420 0.65900 0.37580 -0.00800
C 	C 	0.02210 0.77310 0.16360 -0.00400
C 	C 	0.06230 0.75760 0.07610 0.25800
C 	C 	0.07900 0.74610 0.12010 -0.06800
C 	C 	0.15090 0.71030 0.11540 0.04300
C 	C 	0.03390 0.76430 0.20620 -0.13300
C 	C 	0.10400 0.72750 0.20210 0.16800
C 	C 	0.16170 0.70050 0.15750 -0.15500
C 	C 	0.15410 0.67830 0.24420 0.22800
C 	C 	0.15400 0.67550 0.29340 -0.05500
C 	C 	0.15580 0.62420 0.28320 -0.00600
C 	C 	0.02210 0.83640 0.60950 -0.00700
C 	C 	0.06230 0.92390 0.68150 0.25300
C 	C 	0.07900 0.87990 0.62600 -0.06100
C 	C 	0.15090 0.88460 0.59490 0.04000
C 	C 	0.03390 0.79380 0.55810 -0.12900
C 	C 	0.10400 0.79790 0.52540 0.16500
C 	C 	0.16170 0.84250 0.54300 -0.15000
C 	C 	0.15410 0.75580 0.43410 0.22700
C 	C 	0.15400 0.70660 0.38210 -0.05400
C 	C 	0.15580 0.71680 0.34100 -0.00700
C 	C 	0.02210 0.39050 0.22690 -0.00400
C 	C 	0.06230 0.31850 0.24240 0.25600
C 	C 	0.07900 0.37400 0.25390 -0.06700
C 	C 	0.15090 0.40510 0.28970 0.04200
C 	C 	0.03390 0.44190 0.23570 -0.13700
C 	C 	0.10400 0.47460 0.27250 0.16800
C 	C 	0.16170 0.45700 0.29950 -0.15500
C 	C 	0.15410 0.56590 0.32170 0.22700
C 	C 	0.15400 0.61790 0.32450 -0.05500
C 	C 	0.15580 0.65900 0.37580 -0.00700
N 	N 	0.88460 0.71860 0.24410 -0.24000
N 	N 	0.88460 0.75590 0.47450 -0.24000
N 	N 	0.88460 0.52550 0.28140 -0.24000
N 	N 	0.11540 0.71860 0.24410 -0.24900
N 	N 	0.11540 0.75590 0.47450 -0.24800
N 	N 	0.11540 0.52550 0.28140 -0.24900
O 	O 	0.88790 0.73150 0.03550 -0.29100
O 	O 	0.80550 0.64200 0.20470 -0.22200
O 	O 	0.88790 0.96450 0.69600 -0.26500
O 	O 	0.80550 0.79530 0.43730 -0.21800
O 	O 	0.88790 0.30400 0.26850 -0.28000
O 	O 	0.80550 0.56270 0.35800 -0.22000
O 	O 	0.11210 0.73150 0.03550 -0.29100
O 	O 	0.19450 0.64200 0.20470 -0.22500
O 	O 	0.11210 0.96450 0.69600 -0.26400
O 	O 	0.19450 0.79530 0.43730 -0.22100
O 	O 	0.11210 0.30400 0.26850 -0.27900
O 	O 	0.19450 0.56270 0.35800 -0.22300
O 	O 	0.00000 0.79260 0.08480 -0.44800
O 	O 	0.00000 0.91520 0.70780 -0.43900
O 	O 	-0.00000 0.29220 0.20740 -0.44900
Zn	Zn	-0.00000 0.77003 -0.00000 1.20300
Zn	Zn	-0.00000 0.22997 0.22997 1.20800
Zn	Zn	-0.00000 0.00000 0.77003 1.20300
Cr	Cr	0.50000 0.93547 0.93547 1.55100
Cr	Cr	0.50000 -0.00000 0.06453 1.53500
Cr	Cr	0.50000 0.06453 -0.00000 1.53500
H 	H 	0.26510 0.83420 0.92570 0.05500
H 	H 	0.13330 0.78210 0.92590 0.00600
H 	H 	0.26510 0.09150 0.16580 0.05800
H 	H 	0.13330 0.14380 0.21790 0.00500
H 	H 	0.26510 0.07430 0.90850 0.06100
H 	H 	0.13330 0.07410 0.85620 0.01100
H 	H 	0.73490 0.83420 0.92570 0.05500
H 	H 	0.86670 0.78210 0.92590 0.00800
H 	H 	0.73490 0.09150 0.16580 0.05900
H 	H 	0.86670 0.14380 0.21790 0.00800
H 	H 	0.73490 0.07430 0.90850 0.06200
H 	H 	0.86670 0.07410 0.85620 0.01300
H 	H 	0.73490 0.90850 0.07430 0.06200
H 	H 	0.86670 0.85620 0.07410 0.01300
H 	H 	0.73490 0.92570 0.83420 0.05500
H 	H 	0.86670 0.92590 0.78210 0.00800
H 	H 	0.73490 0.16580 0.09150 0.05900
H 	H 	0.86670 0.21790 0.14380 0.00800
H 	H 	0.26510 0.90850 0.07430 0.06100
H 	H 	0.13330 0.85620 0.07410 0.01100
H 	H 	0.26510 0.92570 0.83420 0.05500
H 	H 	0.13330 0.92590 0.78210 0.00600
H 	H 	0.26510 0.16580 0.09150 0.05800
H 	H 	0.13330 0.21790 0.14380 0.00500
C 	C 	0.23910 0.84040 0.95770 -0.01300
C 	C 	0.15740 0.80880 0.95790 0.06500
C 	C 	0.23910 0.11730 0.15960 -0.05100
C 	C 	0.15740 0.14910 0.19120 0.04700
C 	C 	0.23910 0.04230 0.88270 -0.03800
C 	C 	0.15740 0.04210 0.85090 0.04000
C 	C 	0.76090 0.84040 0.95770 -0.01300
C 	C 	0.84260 0.80880 0.95790 0.06500
C 	C 	0.76090 0.11730 0.15960 -0.05000
C 	C 	0.84260 0.14910 0.19120 0.04800
C 	C 	0.76090 0.04230 0.88270 -0.03700
C 	C 	0.84260 0.04210 0.85090 0.04100
C 	C 	0.76090 0.88270 0.04230 -0.03700
C 	C 	0.84260 0.85090 0.04210 0.04100
C 	C 	0.76090 0.95770 0.84040 -0.01300
C 	C 	0.84260 0.95790 0.80880 0.06500
C 	C 	0.76090 0.15960 0.11730 -0.05000
C 	C 	0.84260 0.19120 0.14910 0.04800
C 	C 	0.23910 0.88270 0.04230 -0.03800
C 	C 	0.15740 0.85090 0.04210 0.04000
C 	C 	0.23910 0.95770 0.84040 -0.01300
C 	C 	0.15740 0.95790 0.80880 0.06500
C 	C 	0.23910 0.15960 0.11730 -0.05100
C 	C 	0.15740 0.19120 0.14910 0.04700
C 	C 	0.36070 0.91110 -0.00000 0.35600
C 	C 	0.27810 0.87690 -0.00000 -0.08600
C 	C 	0.36070 0.08890 0.08890 0.37400
C 	C 	0.27810 0.12310 0.12310 -0.05800
C 	C 	0.36070 -0.00000 0.91110 0.35600
C 	C 	0.27810 0.00000 0.87690 -0.08600
C 	C 	0.63930 0.91110 -0.00000 0.35600
C 	C 	0.72190 0.87690 -0.00000 -0.08500
C 	C 	0.63930 0.08890 0.08890 0.37400
C 	C 	0.72190 0.12310 0.12310 -0.05700
C 	C 	0.63930 -0.00000 0.91110 0.35600
C 	C 	0.72190 0.00000 0.87690 -0.08500
N 	N 	0.11490 0.81510 -0.00000 -0.26600
N 	N 	0.11490 0.18490 0.18490 -0.25400
N 	N 	0.11490 -0.00000 0.81510 -0.26600
N 	N 	0.88510 0.81510 -0.00000 -0.26300
N 	N 	0.88510 0.18490 0.18490 -0.25100
N 	N 	0.88510 -0.00000 0.81510 -0.26300
O 	O 	0.39160 0.90310 0.95580 -0.47100
O 	O 	0.39160 0.05270 0.09690 -0.50300
O 	O 	0.39160 0.04420 0.94730 -0.48300
O 	O 	0.60840 0.90310 0.95580 -0.47100
O 	O 	0.60840 0.05270 0.09690 -0.50200
O 	O 	0.60840 0.04420 0.94730 -0.48200
O 	O 	0.60840 0.94730 0.04420 -0.48200
O 	O 	0.60840 0.95580 0.90310 -0.47100
O 	O 	0.60840 0.09690 0.05270 -0.50200
O 	O 	0.39160 0.94730 0.04420 -0.48300
O 	O 	0.39160 0.95580 0.90310 -0.47100
O 	O 	0.39160 0.09690 0.05270 -0.50300
O 	O 	0.50000 0.00000 -0.00000 -0.83900
