data_crystal

_cell_length_a 26.77410
_cell_length_b 10.05350
_cell_length_c 22.08650
_cell_angle_alpha 90.00000
_cell_angle_beta  97.27500
_cell_angle_gamma 90.00000

_symmetry_space_group_name_	'P 1'
_symmetry_space_group_name_H-M	'P 1'

loop_
_symmetry_equiv_pos_as_xyz
  x,y,z

loop_
_atom_site_label
_atom_site_type_symbol
_atom_site_fract_x
_atom_site_fract_y
_atom_site_fract_z
_atom_site_charge
Zn	Zn	0.10045 0.66797 0.49271 1.14800
Mo	Mo	0.20130 0.47477 0.43740 1.14900
Mo	Mo	0.30752 0.54722 0.51933 1.05300
Mo	Mo	0.39159 0.31742 0.55436 1.15500
Mo	Mo	0.29442 0.23590 0.45034 1.14400
Mo	Mo	0.47626 0.13720 0.47173 1.02400
C 	C 	0.02615 0.52680 0.74770 -0.06500
C 	C 	0.05180 0.64770 0.74670 0.01400
C 	C 	0.02572 0.76760 0.74790 -0.06000
C 	C 	0.05230 0.39560 0.74380 -0.06200
H 	H 	0.03090 0.33560 0.71770 0.03400
H 	H 	0.08320 0.40840 0.72590 0.03200
C 	C 	0.07366 0.39380 0.85860 0.05700
H 	H 	0.07360 0.48490 0.86560 -0.05300
C 	C 	0.07910 0.18740 0.86960 0.03800
H 	H 	0.08450 0.10460 0.88800 -0.06000
C 	C 	0.10820 0.64560 0.74510 -0.09100
H 	H 	0.12380 0.71690 0.77040 0.04700
H 	H 	0.12190 0.56190 0.76170 0.04100
C 	C 	0.09203 0.64860 0.62940 0.09300
H 	H 	0.05800 0.62670 0.62440 -0.06800
C 	C 	0.16500 0.69460 0.61340 0.07800
H 	H 	0.19240 0.71340 0.59280 -0.05100
C 	C 	0.05410 0.89680 0.74610 -0.08000
H 	H 	0.03770 0.96450 0.76790 0.06100
H 	H 	0.08810 0.88530 0.76650 0.05600
C 	C 	0.02310 0.92870 0.63450 0.03400
H 	H 	0.99270 0.88320 0.63310 -0.01100
C 	C 	0.08310 0.04010 0.61120 0.03600
H 	H 	0.10330 0.08990 0.58850 -0.03000
N 	N 	0.08352 0.30220 0.90101 -0.33100
N 	N 	0.06386 0.33730 0.80470 -0.10400
N 	N 	0.06655 0.20220 0.81070 -0.11500
N 	N 	0.11856 0.67110 0.58476 -0.31800
N 	N 	0.12017 0.66140 0.68260 -0.09300
N 	N 	0.16813 0.68860 0.67360 -0.10800
N 	N 	0.03876 0.98940 0.58760 -0.29100
N 	N 	0.05612 0.94100 0.68348 -0.06500
N 	N 	0.09550 0.01350 0.66900 -0.18200
H 	H 	0.12230 0.03660 0.69230 0.09800
O 	O 	0.16771 0.57980 0.47939 -0.64800
O 	O 	0.16920 0.31580 0.46026 -0.57500
O 	O 	0.26368 0.56920 0.44351 -0.54800
O 	O 	0.34553 0.43820 0.58321 -0.52800
O 	O 	0.43605 0.43620 0.53944 -0.64100
O 	O 	0.41737 0.19680 0.49525 -0.60900
O 	O 	0.33905 0.37740 0.47071 -0.53200
O 	O 	0.24879 0.11770 0.48538 -0.58800
O 	O 	0.25070 0.31670 0.39646 -0.48700
O 	O 	0.45931 0.96060 0.50569 -0.68300
Zn	Zn	0.60045 0.16797 0.49271 1.14500
Mo	Mo	0.70130 0.97477 0.43740 1.16300
Mo	Mo	0.80752 0.04722 0.51933 1.03600
Mo	Mo	0.89159 0.81742 0.55436 1.15600
Mo	Mo	0.79442 0.73590 0.45034 1.14600
Mo	Mo	0.97626 0.63720 0.47173 1.04200
C 	C 	0.52615 0.02680 0.74770 -0.03700
C 	C 	0.55180 0.14770 0.74670 -0.01600
C 	C 	0.52572 0.26760 0.74790 -0.00900
C 	C 	0.55230 0.89560 0.74380 -0.05300
H 	H 	0.53090 0.83560 0.71770 0.04600
H 	H 	0.58320 0.90840 0.72590 0.04200
C 	C 	0.57366 0.89380 0.85860 0.06600
H 	H 	0.57360 0.98490 0.86560 -0.04100
C 	C 	0.57910 0.68740 0.86960 0.04400
H 	H 	0.58450 0.60460 0.88800 -0.04500
C 	C 	0.60820 0.14560 0.74510 -0.07300
H 	H 	0.62380 0.21690 0.77040 0.03700
H 	H 	0.62190 0.06190 0.76170 0.02500
C 	C 	0.59203 0.14860 0.62940 0.08800
H 	H 	0.55800 0.12670 0.62440 -0.06700
C 	C 	0.66500 0.19460 0.61340 0.07100
H 	H 	0.69240 0.21340 0.59280 -0.05400
C 	C 	0.55410 0.39680 0.74610 -0.09400
H 	H 	0.53770 0.46450 0.76790 0.06400
H 	H 	0.58810 0.38530 0.76650 0.05300
C 	C 	0.52310 0.42870 0.63450 0.08100
H 	H 	0.49270 0.38320 0.63310 -0.05000
C 	C 	0.58310 0.54010 0.61120 0.08000
H 	H 	0.60330 0.58990 0.58850 -0.03900
N 	N 	0.58352 0.80220 0.90101 -0.32700
N 	N 	0.56386 0.83730 0.80470 -0.09800
N 	N 	0.56655 0.70220 0.81070 -0.10400
N 	N 	0.61856 0.17110 0.58476 -0.32000
N 	N 	0.62017 0.16140 0.68260 -0.09700
N 	N 	0.66813 0.18860 0.67360 -0.11300
N 	N 	0.53876 0.48940 0.58760 -0.32100
N 	N 	0.55612 0.44100 0.68348 -0.08300
N 	N 	0.59550 0.51350 0.66900 -0.17600
H 	H 	0.62230 0.53660 0.69230 0.10900
O 	O 	0.66771 0.07980 0.47939 -0.66400
O 	O 	0.66920 0.81580 0.46026 -0.57000
O 	O 	0.76368 0.06920 0.44351 -0.56600
O 	O 	0.84553 0.93820 0.58321 -0.51300
O 	O 	0.93605 0.93620 0.53944 -0.62000
O 	O 	0.91737 0.69680 0.49525 -0.59700
O 	O 	0.83905 0.87740 0.47071 -0.52200
O 	O 	0.74879 0.61770 0.48538 -0.57700
O 	O 	0.75070 0.81670 0.39646 -0.47900
O 	O 	0.95931 0.46060 0.50569 -0.68600
Zn	Zn	0.89955 0.66797 0.00729 1.14200
Mo	Mo	0.79870 0.47477 0.06260 1.14300
Mo	Mo	0.69248 0.54722 0.98067 1.06800
Mo	Mo	0.60841 0.31742 0.94564 1.16400
Mo	Mo	0.70558 0.23590 0.04966 1.13500
Mo	Mo	0.52374 0.13720 0.02827 1.01300
C 	C 	0.97385 0.52680 0.75230 0.04700
C 	C 	0.94820 0.64770 0.75330 -0.05300
C 	C 	0.97428 0.76760 0.75210 0.05000
C 	C 	0.94770 0.39560 0.75620 -0.11600
H 	H 	0.96910 0.33560 0.78230 0.06700
H 	H 	0.91680 0.40840 0.77410 0.05000
C 	C 	0.92634 0.39380 0.64140 0.06200
H 	H 	0.92640 0.48490 0.63440 -0.05000
C 	C 	0.92090 0.18740 0.63040 0.04500
H 	H 	0.91550 0.10460 0.61200 -0.05800
C 	C 	0.89180 0.64560 0.75490 -0.05300
H 	H 	0.87620 0.71690 0.72960 0.03500
H 	H 	0.87810 0.56190 0.73830 0.02900
C 	C 	0.90797 0.64860 0.87060 0.09400
H 	H 	0.94200 0.62670 0.87560 -0.05400
C 	C 	0.83500 0.69460 0.88660 0.07900
H 	H 	0.80760 0.71340 0.90720 -0.04500
C 	C 	0.94590 0.89680 0.75390 -0.12300
H 	H 	0.96230 0.96450 0.73210 0.08700
H 	H 	0.91190 0.88530 0.73350 0.06800
C 	C 	0.97690 0.92870 0.86550 0.13900
H 	H 	0.00730 0.88320 0.86690 -0.08000
C 	C 	0.91690 0.04010 0.88880 0.03900
H 	H 	0.89670 0.08990 0.91150 -0.02600
N 	N 	0.91648 0.30220 0.59899 -0.32900
N 	N 	0.93614 0.33730 0.69530 -0.09100
N 	N 	0.93345 0.20220 0.68930 -0.10900
N 	N 	0.88144 0.67110 0.91524 -0.30600
N 	N 	0.87983 0.66140 0.81740 -0.09700
N 	N 	0.83187 0.68860 0.82640 -0.10800
N 	N 	0.96124 0.98940 0.91240 -0.29000
N 	N 	0.94388 0.94100 0.81652 -0.07300
N 	N 	0.90450 0.01350 0.83100 -0.18200
H 	H 	0.87770 0.03660 0.80770 0.10000
O 	O 	0.83229 0.57980 0.02061 -0.66200
O 	O 	0.83080 0.31580 0.03974 -0.59000
O 	O 	0.73632 0.56920 0.05649 -0.56300
O 	O 	0.65447 0.43820 0.91679 -0.52400
O 	O 	0.56395 0.43620 0.96056 -0.62300
O 	O 	0.58263 0.19680 0.00475 -0.63100
O 	O 	0.66095 0.37740 0.02929 -0.55200
O 	O 	0.75121 0.11770 0.01462 -0.60800
O 	O 	0.74930 0.31670 0.10354 -0.48900
O 	O 	0.54069 0.96060 0.99431 -0.65800
Zn	Zn	0.39955 0.16797 0.00729 1.13900
Mo	Mo	0.29870 0.97477 0.06260 1.15700
Mo	Mo	0.19248 0.04722 0.98067 1.04900
Mo	Mo	0.10841 0.81742 0.94564 1.16700
Mo	Mo	0.20558 0.73590 0.04966 1.13700
Mo	Mo	0.02374 0.63720 0.02827 1.01100
C 	C 	0.47385 0.02680 0.75230 -0.03700
C 	C 	0.44820 0.14770 0.75330 -0.01600
C 	C 	0.47428 0.26760 0.75210 -0.00900
C 	C 	0.44770 0.89560 0.75620 -0.05300
H 	H 	0.46910 0.83560 0.78230 0.04700
H 	H 	0.41680 0.90840 0.77410 0.04200
C 	C 	0.42634 0.89380 0.64140 0.06600
H 	H 	0.42640 0.98490 0.63440 -0.04300
C 	C 	0.42090 0.68740 0.63040 0.04300
H 	H 	0.41550 0.60460 0.61200 -0.04700
C 	C 	0.39180 0.14560 0.75490 -0.07300
H 	H 	0.37620 0.21690 0.72960 0.03700
H 	H 	0.37810 0.06190 0.73830 0.02500
C 	C 	0.40797 0.14860 0.87060 0.08900
H 	H 	0.44200 0.12670 0.87560 -0.06300
C 	C 	0.33500 0.19460 0.88660 0.07200
H 	H 	0.30760 0.21340 0.90720 -0.04800
C 	C 	0.44590 0.39680 0.75390 -0.09400
H 	H 	0.46230 0.46450 0.73210 0.06400
H 	H 	0.41190 0.38530 0.73350 0.05300
C 	C 	0.47690 0.42870 0.86550 0.08200
H 	H 	0.50730 0.38320 0.86690 -0.04800
C 	C 	0.41690 0.54010 0.88880 0.08200
H 	H 	0.39670 0.58990 0.91150 -0.03600
N 	N 	0.41648 0.80220 0.59899 -0.32900
N 	N 	0.43614 0.83730 0.69530 -0.09800
N 	N 	0.43345 0.70220 0.68930 -0.10400
N 	N 	0.38144 0.17110 0.91524 -0.31100
N 	N 	0.37983 0.16140 0.81740 -0.09700
N 	N 	0.33187 0.18860 0.82640 -0.11300
N 	N 	0.46124 0.48940 0.91240 -0.31400
N 	N 	0.44388 0.44100 0.81652 -0.08300
N 	N 	0.40450 0.51350 0.83100 -0.17600
H 	H 	0.37770 0.53660 0.80770 0.10900
O 	O 	0.33229 0.07980 0.02061 -0.67700
O 	O 	0.33080 0.81580 0.03974 -0.58800
O 	O 	0.23632 0.06920 0.05649 -0.57900
O 	O 	0.15447 0.93820 0.91679 -0.50700
O 	O 	0.06395 0.93620 0.96056 -0.61200
O 	O 	0.08263 0.69680 0.00475 -0.62600
O 	O 	0.16095 0.87740 0.02929 -0.54400
O 	O 	0.25121 0.61770 0.01462 -0.60100
O 	O 	0.24930 0.81670 0.10354 -0.48200
O 	O 	0.04069 0.46060 0.99431 -0.68600
Zn	Zn	0.89955 0.33203 0.50729 1.14600
Mo	Mo	0.79870 0.52523 0.56260 1.14700
Mo	Mo	0.69248 0.45278 0.48067 1.05100
Mo	Mo	0.60841 0.68258 0.44564 1.15600
Mo	Mo	0.70558 0.76410 0.54966 1.14800
Mo	Mo	0.52374 0.86280 0.52827 1.03800
C 	C 	0.97385 0.47320 0.25230 0.05000
C 	C 	0.94820 0.35230 0.25330 -0.05500
C 	C 	0.97428 0.23240 0.25210 0.05100
C 	C 	0.94770 0.60440 0.25620 -0.11900
H 	H 	0.96910 0.66440 0.28230 0.07200
H 	H 	0.91680 0.59160 0.27410 0.05200
C 	C 	0.92634 0.60620 0.14140 0.06400
H 	H 	0.92640 0.51510 0.13440 -0.05200
C 	C 	0.92090 0.81260 0.13040 0.04600
H 	H 	0.91550 0.89540 0.11200 -0.03600
C 	C 	0.89180 0.35440 0.25490 -0.05200
H 	H 	0.87620 0.28310 0.22960 0.03000
H 	H 	0.87810 0.43810 0.23830 0.02900
C 	C 	0.90797 0.35140 0.37060 0.09000
H 	H 	0.94200 0.37330 0.37560 -0.05800
C 	C 	0.83500 0.30540 0.38660 0.07100
H 	H 	0.80760 0.28660 0.40720 -0.05300
C 	C 	0.94590 0.10320 0.25390 -0.11300
H 	H 	0.96230 0.03550 0.23210 0.07000
H 	H 	0.91190 0.11470 0.23350 0.05400
C 	C 	0.97690 0.07130 0.36550 0.13400
H 	H 	0.00730 0.11680 0.36690 -0.08800
C 	C 	0.91690 0.95990 0.38880 0.11600
H 	H 	0.89670 0.91010 0.41150 -0.04700
N 	N 	0.91648 0.69780 0.09899 -0.32800
N 	N 	0.93614 0.66270 0.19530 -0.09000
N 	N 	0.93345 0.79780 0.18930 -0.09600
N 	N 	0.88144 0.32890 0.41524 -0.31900
N 	N 	0.87983 0.33860 0.31740 -0.09900
N 	N 	0.83187 0.31140 0.32640 -0.11300
N 	N 	0.96124 0.01060 0.41240 -0.34400
N 	N 	0.94388 0.05900 0.31652 -0.09900
N 	N 	0.90450 0.98650 0.33100 -0.17100
H 	H 	0.87770 0.96340 0.30770 0.11500
O 	O 	0.83229 0.42020 0.52061 -0.65000
O 	O 	0.83080 0.68420 0.53974 -0.57500
O 	O 	0.73632 0.43080 0.55649 -0.55000
O 	O 	0.65447 0.56180 0.41679 -0.52800
O 	O 	0.56395 0.56380 0.46056 -0.64100
O 	O 	0.58263 0.80320 0.50475 -0.59300
O 	O 	0.66095 0.62260 0.52929 -0.53100
O 	O 	0.75121 0.88230 0.51462 -0.56600
O 	O 	0.74930 0.68330 0.60354 -0.48200
O 	O 	0.54069 0.03940 0.49431 -0.71400
Zn	Zn	0.39955 0.83203 0.50729 1.14700
Mo	Mo	0.29870 0.02523 0.56260 1.13000
Mo	Mo	0.19248 0.95278 0.48067 1.06700
Mo	Mo	0.10841 0.18258 0.44564 1.15400
Mo	Mo	0.20558 0.26410 0.54966 1.14500
Mo	Mo	0.02374 0.36280 0.52827 1.01900
C 	C 	0.47385 0.97320 0.25230 0.01400
C 	C 	0.44820 0.85230 0.25330 -0.02200
C 	C 	0.47428 0.73240 0.25210 -0.00600
C 	C 	0.44770 0.10440 0.25620 -0.12100
H 	H 	0.46910 0.16440 0.28230 0.05800
H 	H 	0.41680 0.09160 0.27410 0.04100
C 	C 	0.42634 0.10620 0.14140 0.05600
H 	H 	0.42640 0.01510 0.13440 -0.06400
C 	C 	0.42090 0.31260 0.13040 0.03900
H 	H 	0.41550 0.39540 0.11200 -0.04700
C 	C 	0.39180 0.85440 0.25490 -0.07000
H 	H 	0.37620 0.78310 0.22960 0.04000
H 	H 	0.37810 0.93810 0.23830 0.04400
C 	C 	0.40797 0.85140 0.37060 0.09500
H 	H 	0.44200 0.87330 0.37560 -0.05900
C 	C 	0.33500 0.80540 0.38660 0.07700
H 	H 	0.30760 0.78660 0.40720 -0.05100
C 	C 	0.44590 0.60320 0.25390 -0.09500
H 	H 	0.46230 0.53550 0.23210 0.06400
H 	H 	0.41190 0.61470 0.23350 0.05400
C 	C 	0.47690 0.57130 0.36550 0.08100
H 	H 	0.50730 0.61680 0.36690 -0.04800
C 	C 	0.41690 0.45990 0.38880 0.07800
H 	H 	0.39670 0.41010 0.41150 -0.04000
N 	N 	0.41648 0.19780 0.09899 -0.33200
N 	N 	0.43614 0.16270 0.19530 -0.09600
N 	N 	0.43345 0.29780 0.18930 -0.10600
N 	N 	0.38144 0.82890 0.41524 -0.31700
N 	N 	0.37983 0.83860 0.31740 -0.09400
N 	N 	0.33187 0.81140 0.32640 -0.10800
N 	N 	0.46124 0.51060 0.41240 -0.32100
N 	N 	0.44388 0.55900 0.31652 -0.08300
N 	N 	0.40450 0.48650 0.33100 -0.17600
H 	H 	0.37770 0.46340 0.30770 0.10700
O 	O 	0.33229 0.92020 0.52061 -0.63300
O 	O 	0.33080 0.18420 0.53974 -0.58100
O 	O 	0.23632 0.93080 0.55649 -0.53100
O 	O 	0.15447 0.06180 0.41679 -0.54300
O 	O 	0.06395 0.06380 0.46056 -0.65700
O 	O 	0.08263 0.30320 0.50475 -0.60400
O 	O 	0.16095 0.12260 0.52929 -0.54100
O 	O 	0.25121 0.38230 0.51462 -0.57700
O 	O 	0.24930 0.18330 0.60354 -0.49100
O 	O 	0.04069 0.53940 0.49431 -0.70900
Zn	Zn	0.10045 0.33203 0.99271 1.15100
Mo	Mo	0.20130 0.52523 0.93740 1.15200
Mo	Mo	0.30752 0.45278 0.01933 1.03600
Mo	Mo	0.39159 0.68258 0.05436 1.14600
Mo	Mo	0.29442 0.76410 0.95034 1.15800
Mo	Mo	0.47626 0.86280 0.97173 1.04900
C 	C 	0.02615 0.47320 0.24770 -0.06900
C 	C 	0.05180 0.35230 0.24670 0.01700
C 	C 	0.02572 0.23240 0.24790 -0.06800
C 	C 	0.05230 0.60440 0.24380 -0.06100
H 	H 	0.03090 0.66440 0.21770 0.03800
H 	H 	0.08320 0.59160 0.22590 0.03300
C 	C 	0.07366 0.60620 0.35860 0.05900
H 	H 	0.07360 0.51510 0.36560 -0.05600
C 	C 	0.07910 0.81260 0.36960 0.03900
H 	H 	0.08450 0.89540 0.38800 -0.03500
C 	C 	0.10820 0.35440 0.24510 -0.09200
H 	H 	0.12380 0.28310 0.27040 0.04300
H 	H 	0.12190 0.43810 0.26170 0.04200
C 	C 	0.09203 0.35140 0.12940 0.08900
H 	H 	0.05800 0.37330 0.12440 -0.07200
C 	C 	0.16500 0.30540 0.11340 0.07000
H 	H 	0.19240 0.28660 0.09280 -0.05900
C 	C 	0.05410 0.10320 0.24610 -0.06600
H 	H 	0.03770 0.03550 0.26790 0.04000
H 	H 	0.08810 0.11470 0.26650 0.03900
C 	C 	0.02310 0.07130 0.13450 0.01700
H 	H 	0.99270 0.11680 0.13310 -0.01100
C 	C 	0.08310 0.95990 0.11120 0.11300
H 	H 	0.10330 0.91010 0.08850 -0.05100
N 	N 	0.08352 0.69780 0.40101 -0.32900
N 	N 	0.06386 0.66270 0.30470 -0.10300
N 	N 	0.06655 0.79780 0.31070 -0.10100
N 	N 	0.11856 0.32890 0.08476 -0.33000
N 	N 	0.12017 0.33860 0.18260 -0.09400
N 	N 	0.16813 0.31140 0.17360 -0.11300
N 	N 	0.03876 0.01060 0.08760 -0.34000
N 	N 	0.05612 0.05900 0.18348 -0.09000
N 	N 	0.09550 0.98650 0.16900 -0.17100
H 	H 	0.12230 0.96340 0.19230 0.11500
O 	O 	0.16771 0.42020 0.97939 -0.63400
O 	O 	0.16920 0.68420 0.96026 -0.55700
O 	O 	0.26368 0.43080 0.94351 -0.53500
O 	O 	0.34553 0.56180 0.08321 -0.53200
O 	O 	0.43605 0.56380 0.03944 -0.65500
O 	O 	0.41737 0.80320 0.99525 -0.56700
O 	O 	0.33905 0.62260 0.97071 -0.50900
O 	O 	0.24879 0.88230 0.98538 -0.54000
O 	O 	0.25070 0.68330 0.89646 -0.47900
O 	O 	0.45931 0.03940 0.00569 -0.73500
Zn	Zn	0.60045 0.83203 0.99271 1.15500
Mo	Mo	0.70130 0.02523 0.93740 1.13300
Mo	Mo	0.80752 0.95278 0.01933 1.05000
Mo	Mo	0.89159 0.18258 0.05436 1.14600
Mo	Mo	0.79442 0.26410 0.95034 1.15300
Mo	Mo	0.97626 0.36280 0.97173 1.04900
C 	C 	0.52615 0.97320 0.24770 0.01400
C 	C 	0.55180 0.85230 0.24670 -0.02200
C 	C 	0.52572 0.73240 0.24790 -0.00600
C 	C 	0.55230 0.10440 0.24380 -0.12000
H 	H 	0.53090 0.16440 0.21770 0.05800
H 	H 	0.58320 0.09160 0.22590 0.04100
C 	C 	0.57366 0.10620 0.35860 0.05600
H 	H 	0.57360 0.01510 0.36560 -0.06300
C 	C 	0.57910 0.31260 0.36960 0.04000
H 	H 	0.58450 0.39540 0.38800 -0.04600
C 	C 	0.60820 0.85440 0.24510 -0.07100
H 	H 	0.62380 0.78310 0.27040 0.04000
H 	H 	0.62190 0.93810 0.26170 0.04400
C 	C 	0.59203 0.85140 0.12940 0.09300
H 	H 	0.55800 0.87330 0.12440 -0.06400
C 	C 	0.66500 0.80540 0.11340 0.07600
H 	H 	0.69240 0.78660 0.09280 -0.05700
C 	C 	0.55410 0.60320 0.24610 -0.09500
H 	H 	0.53770 0.53550 0.26790 0.06400
H 	H 	0.58810 0.61470 0.26650 0.05400
C 	C 	0.52310 0.57130 0.13450 0.07900
H 	H 	0.49270 0.61680 0.13310 -0.04900
C 	C 	0.58310 0.45990 0.11120 0.07600
H 	H 	0.60330 0.41010 0.08850 -0.04300
N 	N 	0.58352 0.19780 0.40101 -0.33000
N 	N 	0.56386 0.16270 0.30470 -0.09600
N 	N 	0.56655 0.29780 0.31070 -0.10600
N 	N 	0.61856 0.82890 0.08476 -0.32800
N 	N 	0.62017 0.83860 0.18260 -0.09400
N 	N 	0.66813 0.81140 0.17360 -0.10900
N 	N 	0.53876 0.51060 0.08760 -0.32500
N 	N 	0.55612 0.55900 0.18348 -0.08300
N 	N 	0.59550 0.48650 0.16900 -0.17600
H 	H 	0.62230 0.46340 0.19230 0.10600
O 	O 	0.66771 0.92020 0.97939 -0.61700
O 	O 	0.66920 0.18420 0.96026 -0.56500
O 	O 	0.76368 0.93080 0.94351 -0.51500
O 	O 	0.84553 0.06180 0.08321 -0.54400
O 	O 	0.93605 0.06380 0.03944 -0.65500
O 	O 	0.91737 0.30320 0.99525 -0.57700
O 	O 	0.83905 0.12260 0.97071 -0.52200
O 	O 	0.74879 0.38230 0.98538 -0.55400
O 	O 	0.75070 0.18330 0.89646 -0.48800
O 	O 	0.95931 0.53940 0.00569 -0.70700
Zn	Zn	0.50000 0.50000 0.50000 1.13100
Zn	Zn	0.00000 0.00000 0.50000 1.11200
Zn	Zn	0.50000 0.50000 -0.00000 1.12000
Zn	Zn	-0.00000 0.00000 -0.00000 1.10200
