data_crystal

_cell_length_a 19.66300
_cell_length_b 19.66300
_cell_length_c 19.66300
_cell_angle_alpha 90.00000
_cell_angle_beta  90.00000
_cell_angle_gamma 90.00000

_symmetry_space_group_name_	'P 1'
_symmetry_space_group_name_H-M	'P 1'

loop_
_symmetry_equiv_pos_as_xyz
  x,y,z

loop_
_atom_site_label
_atom_site_type_symbol
_atom_site_fract_x
_atom_site_fract_y
_atom_site_fract_z
_atom_site_charge
C 	C 	0.55520 0.04490 0.01020 0.01700
C 	C 	0.61410 0.09380 0.02300 -0.09500
H 	H 	0.65190 0.06930 0.04310 0.07200
H 	H 	0.62920 0.11310 0.98020 0.06900
C 	C 	0.61550 0.16350 0.12910 0.07900
H 	H 	0.65150 0.14230 0.15130 -0.02600
C 	C 	0.53570 0.22860 0.10490 0.11400
H 	H 	0.50480 0.26440 0.10730 -0.02100
N 	N 	0.57870 0.21490 0.15390 -0.27400
N 	N 	0.59240 0.14770 0.06830 -0.08500
N 	N 	0.53950 0.18910 0.05360 -0.10400
C 	C 	0.94480 0.45510 0.01020 0.01700
C 	C 	0.88590 0.40620 0.02300 -0.09500
H 	H 	0.84810 0.43070 0.04310 0.07200
H 	H 	0.87080 0.38690 0.98020 0.06900
C 	C 	0.88450 0.33650 0.12910 0.07900
H 	H 	0.84850 0.35770 0.15130 -0.02600
C 	C 	0.96430 0.27140 0.10490 0.11400
H 	H 	0.99520 0.23560 0.10730 -0.02100
N 	N 	0.92130 0.28510 0.15390 -0.27400
N 	N 	0.90760 0.35230 0.06830 -0.08500
N 	N 	0.96050 0.31090 0.05360 -0.10400
C 	C 	0.94480 0.04490 0.48980 0.01700
C 	C 	0.88590 0.09380 0.47700 -0.09500
H 	H 	0.84810 0.06930 0.45690 0.07200
H 	H 	0.87080 0.11310 0.51980 0.06900
C 	C 	0.88450 0.16350 0.37090 0.07900
H 	H 	0.84850 0.14230 0.34870 -0.02600
C 	C 	0.96430 0.22860 0.39510 0.11400
H 	H 	0.99520 0.26440 0.39270 -0.02100
N 	N 	0.92130 0.21490 0.34610 -0.27400
N 	N 	0.90760 0.14770 0.43170 -0.08500
N 	N 	0.96050 0.18910 0.44640 -0.10400
C 	C 	0.55520 0.45510 0.48980 0.01700
C 	C 	0.61410 0.40620 0.47700 -0.09500
H 	H 	0.65190 0.43070 0.45690 0.07200
H 	H 	0.62920 0.38690 0.51980 0.06900
C 	C 	0.61550 0.33650 0.37090 0.07900
H 	H 	0.65150 0.35770 0.34870 -0.02600
C 	C 	0.53570 0.27140 0.39510 0.11400
H 	H 	0.50480 0.23560 0.39270 -0.02100
N 	N 	0.57870 0.28510 0.34610 -0.27400
N 	N 	0.59240 0.35230 0.43170 -0.08500
N 	N 	0.53950 0.31090 0.44640 -0.10400
C 	C 	0.01020 0.55520 0.04490 0.01700
C 	C 	0.02300 0.61410 0.09380 -0.09500
H 	H 	0.04310 0.65190 0.06930 0.07200
H 	H 	0.98020 0.62920 0.11310 0.06900
C 	C 	0.12910 0.61550 0.16350 0.07900
H 	H 	0.15130 0.65150 0.14230 -0.02600
C 	C 	0.10490 0.53570 0.22860 0.11400
H 	H 	0.10730 0.50480 0.26440 -0.02100
N 	N 	0.15390 0.57870 0.21490 -0.27400
N 	N 	0.06830 0.59240 0.14770 -0.08500
N 	N 	0.05360 0.53950 0.18910 -0.10400
C 	C 	0.01020 0.94480 0.45510 0.01700
C 	C 	0.02300 0.88590 0.40620 -0.09500
H 	H 	0.04310 0.84810 0.43070 0.07200
H 	H 	0.98020 0.87080 0.38690 0.06900
C 	C 	0.12910 0.88450 0.33650 0.07900
H 	H 	0.15130 0.84850 0.35770 -0.02600
C 	C 	0.10490 0.96430 0.27140 0.11400
H 	H 	0.10730 0.99520 0.23560 -0.02100
N 	N 	0.15390 0.92130 0.28510 -0.27400
N 	N 	0.06830 0.90760 0.35230 -0.08500
N 	N 	0.05360 0.96050 0.31090 -0.10400
C 	C 	0.48980 0.94480 0.04490 0.01700
C 	C 	0.47700 0.88590 0.09380 -0.09500
H 	H 	0.45690 0.84810 0.06930 0.07200
H 	H 	0.51980 0.87080 0.11310 0.06900
C 	C 	0.37090 0.88450 0.16350 0.07900
H 	H 	0.34870 0.84850 0.14230 -0.02600
C 	C 	0.39510 0.96430 0.22860 0.11300
H 	H 	0.39270 0.99520 0.26440 -0.02200
N 	N 	0.34610 0.92130 0.21490 -0.27500
N 	N 	0.43170 0.90760 0.14770 -0.08600
N 	N 	0.44640 0.96050 0.18910 -0.10500
C 	C 	0.48980 0.55520 0.45510 0.01600
C 	C 	0.47700 0.61410 0.40620 -0.09600
H 	H 	0.45690 0.65190 0.43070 0.07100
H 	H 	0.51980 0.62920 0.38690 0.06800
C 	C 	0.37090 0.61550 0.33650 0.07800
H 	H 	0.34870 0.65150 0.35770 -0.02700
C 	C 	0.39510 0.53570 0.27140 0.11300
H 	H 	0.39270 0.50480 0.23560 -0.02200
N 	N 	0.34610 0.57870 0.28510 -0.27500
N 	N 	0.43170 0.59240 0.35230 -0.08600
N 	N 	0.44640 0.53950 0.31090 -0.10500
C 	C 	0.04490 0.01020 0.55520 0.01600
C 	C 	0.09380 0.02300 0.61410 -0.09600
H 	H 	0.06930 0.04310 0.65190 0.07100
H 	H 	0.11310 0.98020 0.62920 0.06800
C 	C 	0.16350 0.12910 0.61550 0.07800
H 	H 	0.14230 0.15130 0.65150 -0.02700
C 	C 	0.22860 0.10490 0.53570 0.11300
H 	H 	0.26440 0.10730 0.50480 -0.02200
N 	N 	0.21490 0.15390 0.57870 -0.27500
N 	N 	0.14770 0.06830 0.59240 -0.08600
N 	N 	0.18910 0.05360 0.53950 -0.10500
C 	C 	0.45510 0.01020 0.94480 0.01600
C 	C 	0.40620 0.02300 0.88590 -0.09600
H 	H 	0.43070 0.04310 0.84810 0.07100
H 	H 	0.38690 0.98020 0.87080 0.06800
C 	C 	0.33650 0.12910 0.88450 0.07800
H 	H 	0.35770 0.15130 0.84850 -0.02700
C 	C 	0.27140 0.10490 0.96430 0.11300
H 	H 	0.23560 0.10730 0.99520 -0.02200
N 	N 	0.28510 0.15390 0.92130 -0.27500
N 	N 	0.35230 0.06830 0.90760 -0.08600
N 	N 	0.31090 0.05360 0.96050 -0.10500
C 	C 	0.04490 0.48980 0.94480 0.01600
C 	C 	0.09380 0.47700 0.88590 -0.09600
H 	H 	0.06930 0.45690 0.84810 0.07100
H 	H 	0.11310 0.51980 0.87080 0.06800
C 	C 	0.16350 0.37090 0.88450 0.07800
H 	H 	0.14230 0.34870 0.84850 -0.02700
C 	C 	0.22860 0.39510 0.96430 0.11300
H 	H 	0.26440 0.39270 0.99520 -0.02200
N 	N 	0.21490 0.34610 0.92130 -0.27500
N 	N 	0.14770 0.43170 0.90760 -0.08600
N 	N 	0.18910 0.44640 0.96050 -0.10500
C 	C 	0.45510 0.48980 0.55520 0.01600
C 	C 	0.40620 0.47700 0.61410 -0.09600
H 	H 	0.43070 0.45690 0.65190 0.07100
H 	H 	0.38690 0.51980 0.62920 0.06800
C 	C 	0.33650 0.37090 0.61550 0.07800
H 	H 	0.35770 0.34870 0.65150 -0.02700
C 	C 	0.27140 0.39510 0.53570 0.11300
H 	H 	0.23560 0.39270 0.50480 -0.02200
N 	N 	0.28510 0.34610 0.57870 -0.27500
N 	N 	0.35230 0.43170 0.59240 -0.08600
N 	N 	0.31090 0.44640 0.53950 -0.10500
C 	C 	0.04490 0.55520 0.48980 0.01600
C 	C 	0.09380 0.61410 0.47700 -0.09600
H 	H 	0.06930 0.65190 0.45690 0.07100
H 	H 	0.11310 0.62920 0.51980 0.06800
C 	C 	0.16350 0.61550 0.37090 0.07800
H 	H 	0.14230 0.65150 0.34870 -0.02700
C 	C 	0.22860 0.53570 0.39510 0.11300
H 	H 	0.26440 0.50480 0.39270 -0.02200
N 	N 	0.21490 0.57870 0.34610 -0.27500
N 	N 	0.14770 0.59240 0.43170 -0.08600
N 	N 	0.18910 0.53950 0.44640 -0.10500
C 	C 	0.45510 0.94480 0.48980 0.01600
C 	C 	0.40620 0.88590 0.47700 -0.09600
H 	H 	0.43070 0.84810 0.45690 0.07100
H 	H 	0.38690 0.87080 0.51980 0.06800
C 	C 	0.33650 0.88450 0.37090 0.07800
H 	H 	0.35770 0.84850 0.34870 -0.02700
C 	C 	0.27140 0.96430 0.39510 0.11300
H 	H 	0.23560 0.99520 0.39270 -0.02200
N 	N 	0.28510 0.92130 0.34610 -0.27500
N 	N 	0.35230 0.90760 0.43170 -0.08600
N 	N 	0.31090 0.96050 0.44640 -0.10500
C 	C 	0.04490 0.94480 0.01020 0.01600
C 	C 	0.09380 0.88590 0.02300 -0.09600
H 	H 	0.06930 0.84810 0.04310 0.07100
H 	H 	0.11310 0.87080 0.98020 0.06800
C 	C 	0.16350 0.88450 0.12910 0.07800
H 	H 	0.14230 0.84850 0.15130 -0.02700
C 	C 	0.22860 0.96430 0.10490 0.11300
H 	H 	0.26440 0.99520 0.10730 -0.02200
N 	N 	0.21490 0.92130 0.15390 -0.27500
N 	N 	0.14770 0.90760 0.06830 -0.08600
N 	N 	0.18910 0.96050 0.05360 -0.10500
C 	C 	0.45510 0.55520 0.01020 0.01600
C 	C 	0.40620 0.61410 0.02300 -0.09600
H 	H 	0.43070 0.65190 0.04310 0.07100
H 	H 	0.38690 0.62920 0.98020 0.06800
C 	C 	0.33650 0.61550 0.12910 0.07800
H 	H 	0.35770 0.65150 0.15130 -0.02700
C 	C 	0.27140 0.53570 0.10490 0.11300
H 	H 	0.23560 0.50480 0.10730 -0.02200
N 	N 	0.28510 0.57870 0.15390 -0.27500
N 	N 	0.35230 0.59240 0.06830 -0.08600
N 	N 	0.31090 0.53950 0.05360 -0.10500
C 	C 	0.55520 0.01020 0.45510 0.01600
C 	C 	0.61410 0.02300 0.40620 -0.09600
H 	H 	0.65190 0.04310 0.43070 0.07100
H 	H 	0.62920 0.98020 0.38690 0.06800
C 	C 	0.61550 0.12910 0.33650 0.07800
H 	H 	0.65150 0.15130 0.35770 -0.02700
C 	C 	0.53570 0.10490 0.27140 0.11300
H 	H 	0.50480 0.10730 0.23560 -0.02200
N 	N 	0.57870 0.15390 0.28510 -0.27500
N 	N 	0.59240 0.06830 0.35230 -0.08600
N 	N 	0.53950 0.05360 0.31090 -0.10500
C 	C 	0.94480 0.01020 0.04490 0.01600
C 	C 	0.88590 0.02300 0.09380 -0.09600
H 	H 	0.84810 0.04310 0.06930 0.07100
H 	H 	0.87080 0.98020 0.11310 0.06800
C 	C 	0.88450 0.12910 0.16350 0.07800
H 	H 	0.84850 0.15130 0.14230 -0.02700
C 	C 	0.96430 0.10490 0.22860 0.11300
H 	H 	0.99520 0.10730 0.26440 -0.02200
N 	N 	0.92130 0.15390 0.21490 -0.27500
N 	N 	0.90760 0.06830 0.14770 -0.08600
N 	N 	0.96050 0.05360 0.18910 -0.10500
C 	C 	0.94480 0.48980 0.45510 0.01600
C 	C 	0.88590 0.47700 0.40620 -0.09600
H 	H 	0.84810 0.45690 0.43070 0.07100
H 	H 	0.87080 0.51980 0.38690 0.06800
C 	C 	0.88450 0.37090 0.33650 0.07800
H 	H 	0.84850 0.34870 0.35770 -0.02700
C 	C 	0.96430 0.39510 0.27140 0.11300
H 	H 	0.99520 0.39270 0.23560 -0.02200
N 	N 	0.92130 0.34610 0.28510 -0.27500
N 	N 	0.90760 0.43170 0.35230 -0.08600
N 	N 	0.96050 0.44640 0.31090 -0.10500
C 	C 	0.55520 0.48980 0.04490 0.01600
C 	C 	0.61410 0.47700 0.09380 -0.09600
H 	H 	0.65190 0.45690 0.06930 0.07100
H 	H 	0.62920 0.51980 0.11310 0.06800
C 	C 	0.61550 0.37090 0.16350 0.07800
H 	H 	0.65150 0.34870 0.14230 -0.02700
C 	C 	0.53570 0.39510 0.22860 0.11300
H 	H 	0.50480 0.39270 0.26440 -0.02200
N 	N 	0.57870 0.34610 0.21490 -0.27500
N 	N 	0.59240 0.43170 0.14770 -0.08600
N 	N 	0.53950 0.44640 0.18910 -0.10500
C 	C 	0.01020 0.04490 0.94480 0.01600
C 	C 	0.02300 0.09380 0.88590 -0.09600
H 	H 	0.04310 0.06930 0.84810 0.07100
H 	H 	0.98020 0.11310 0.87080 0.06800
C 	C 	0.12910 0.16350 0.88450 0.07800
H 	H 	0.15130 0.14230 0.84850 -0.02700
C 	C 	0.10490 0.22860 0.96430 0.11300
H 	H 	0.10730 0.26440 0.99520 -0.02200
N 	N 	0.15390 0.21490 0.92130 -0.27500
N 	N 	0.06830 0.14770 0.90760 -0.08600
N 	N 	0.05360 0.18910 0.96050 -0.10500
C 	C 	0.01020 0.45510 0.55520 0.01600
C 	C 	0.02300 0.40620 0.61410 -0.09600
H 	H 	0.04310 0.43070 0.65190 0.07100
H 	H 	0.98020 0.38690 0.62920 0.06800
C 	C 	0.12910 0.33650 0.61550 0.07800
H 	H 	0.15130 0.35770 0.65150 -0.02700
C 	C 	0.10490 0.27140 0.53570 0.11300
H 	H 	0.10730 0.23560 0.50480 -0.02200
N 	N 	0.15390 0.28510 0.57870 -0.27500
N 	N 	0.06830 0.35230 0.59240 -0.08600
N 	N 	0.05360 0.31090 0.53950 -0.10500
C 	C 	0.48980 0.04490 0.55520 0.01600
C 	C 	0.47700 0.09380 0.61410 -0.09600
H 	H 	0.45690 0.06930 0.65190 0.07100
H 	H 	0.51980 0.11310 0.62920 0.06800
C 	C 	0.37090 0.16350 0.61550 0.07800
H 	H 	0.34870 0.14230 0.65150 -0.02700
C 	C 	0.39510 0.22860 0.53570 0.11300
H 	H 	0.39270 0.26440 0.50480 -0.02200
N 	N 	0.34610 0.21490 0.57870 -0.27500
N 	N 	0.43170 0.14770 0.59240 -0.08600
N 	N 	0.44640 0.18910 0.53950 -0.10500
C 	C 	0.48980 0.45510 0.94480 0.01600
C 	C 	0.47700 0.40620 0.88590 -0.09600
H 	H 	0.45690 0.43070 0.84810 0.07100
H 	H 	0.51980 0.38690 0.87080 0.06800
C 	C 	0.37090 0.33650 0.88450 0.07800
H 	H 	0.34870 0.35770 0.84850 -0.02700
C 	C 	0.39510 0.27140 0.96430 0.11300
H 	H 	0.39270 0.23560 0.99520 -0.02200
N 	N 	0.34610 0.28510 0.92130 -0.27500
N 	N 	0.43170 0.35230 0.90760 -0.08600
N 	N 	0.44640 0.31090 0.96050 -0.10500
C 	C 	0.44480 0.95510 0.98980 0.01600
C 	C 	0.38590 0.90620 0.97700 -0.09600
H 	H 	0.34810 0.93070 0.95690 0.07100
H 	H 	0.37080 0.88690 0.01980 0.06800
C 	C 	0.38450 0.83650 0.87090 0.07800
H 	H 	0.34850 0.85770 0.84870 -0.02700
C 	C 	0.46430 0.77140 0.89510 0.11300
H 	H 	0.49520 0.73560 0.89270 -0.02200
N 	N 	0.42130 0.78510 0.84610 -0.27500
N 	N 	0.40760 0.85230 0.93170 -0.08600
N 	N 	0.46050 0.81090 0.94640 -0.10500
C 	C 	0.05520 0.54490 0.98980 0.01600
C 	C 	0.11410 0.59380 0.97700 -0.09600
H 	H 	0.15190 0.56930 0.95690 0.07100
H 	H 	0.12920 0.61310 0.01980 0.06800
C 	C 	0.11550 0.66350 0.87090 0.07800
H 	H 	0.15150 0.64230 0.84870 -0.02700
C 	C 	0.03570 0.72860 0.89510 0.11300
H 	H 	0.00480 0.76440 0.89270 -0.02200
N 	N 	0.07870 0.71490 0.84610 -0.27500
N 	N 	0.09240 0.64770 0.93170 -0.08600
N 	N 	0.03950 0.68910 0.94640 -0.10500
C 	C 	0.05520 0.95510 0.51020 0.01600
C 	C 	0.11410 0.90620 0.52300 -0.09600
H 	H 	0.15190 0.93070 0.54310 0.07100
H 	H 	0.12920 0.88690 0.48020 0.06800
C 	C 	0.11550 0.83650 0.62910 0.07800
H 	H 	0.15150 0.85770 0.65130 -0.02700
C 	C 	0.03570 0.77140 0.60490 0.11300
H 	H 	0.00480 0.73560 0.60730 -0.02200
N 	N 	0.07870 0.78510 0.65390 -0.27500
N 	N 	0.09240 0.85230 0.56830 -0.08600
N 	N 	0.03950 0.81090 0.55360 -0.10500
C 	C 	0.44480 0.54490 0.51020 0.01600
C 	C 	0.38590 0.59380 0.52300 -0.09600
H 	H 	0.34810 0.56930 0.54310 0.07100
H 	H 	0.37080 0.61310 0.48020 0.06800
C 	C 	0.38450 0.66350 0.62910 0.07800
H 	H 	0.34850 0.64230 0.65130 -0.02700
C 	C 	0.46430 0.72860 0.60490 0.11300
H 	H 	0.49520 0.76440 0.60730 -0.02200
N 	N 	0.42130 0.71490 0.65390 -0.27500
N 	N 	0.40760 0.64770 0.56830 -0.08600
N 	N 	0.46050 0.68910 0.55360 -0.10500
C 	C 	0.98980 0.44480 0.95510 0.01600
C 	C 	0.97700 0.38590 0.90620 -0.09600
H 	H 	0.95690 0.34810 0.93070 0.07100
H 	H 	0.01980 0.37080 0.88690 0.06800
C 	C 	0.87090 0.38450 0.83650 0.07800
H 	H 	0.84870 0.34850 0.85770 -0.02700
C 	C 	0.89510 0.46430 0.77140 0.11300
H 	H 	0.89270 0.49520 0.73560 -0.02200
N 	N 	0.84610 0.42130 0.78510 -0.27500
N 	N 	0.93170 0.40760 0.85230 -0.08600
N 	N 	0.94640 0.46050 0.81090 -0.10500
C 	C 	0.98980 0.05520 0.54490 0.01600
C 	C 	0.97700 0.11410 0.59380 -0.09600
H 	H 	0.95690 0.15190 0.56930 0.07100
H 	H 	0.01980 0.12920 0.61310 0.06800
C 	C 	0.87090 0.11550 0.66350 0.07800
H 	H 	0.84870 0.15150 0.64230 -0.02700
C 	C 	0.89510 0.03570 0.72860 0.11300
H 	H 	0.89270 0.00480 0.76440 -0.02200
N 	N 	0.84610 0.07870 0.71490 -0.27500
N 	N 	0.93170 0.09240 0.64770 -0.08600
N 	N 	0.94640 0.03950 0.68910 -0.10500
C 	C 	0.51020 0.05520 0.95510 0.01600
C 	C 	0.52300 0.11410 0.90620 -0.09600
H 	H 	0.54310 0.15190 0.93070 0.07100
H 	H 	0.48020 0.12920 0.88690 0.06800
C 	C 	0.62910 0.11550 0.83650 0.07800
H 	H 	0.65130 0.15150 0.85770 -0.02700
C 	C 	0.60490 0.03570 0.77140 0.11300
H 	H 	0.60730 0.00480 0.73560 -0.02200
N 	N 	0.65390 0.07870 0.78510 -0.27500
N 	N 	0.56830 0.09240 0.85230 -0.08600
N 	N 	0.55360 0.03950 0.81090 -0.10500
C 	C 	0.51020 0.44480 0.54490 0.01600
C 	C 	0.52300 0.38590 0.59380 -0.09600
H 	H 	0.54310 0.34810 0.56930 0.07100
H 	H 	0.48020 0.37080 0.61310 0.06800
C 	C 	0.62910 0.38450 0.66350 0.07800
H 	H 	0.65130 0.34850 0.64230 -0.02700
C 	C 	0.60490 0.46430 0.72860 0.11300
H 	H 	0.60730 0.49520 0.76440 -0.02200
N 	N 	0.65390 0.42130 0.71490 -0.27500
N 	N 	0.56830 0.40760 0.64770 -0.08600
N 	N 	0.55360 0.46050 0.68910 -0.10500
C 	C 	0.95510 0.98980 0.44480 0.01600
C 	C 	0.90620 0.97700 0.38590 -0.09600
H 	H 	0.93070 0.95690 0.34810 0.07100
H 	H 	0.88690 0.01980 0.37080 0.06800
C 	C 	0.83650 0.87090 0.38450 0.07800
H 	H 	0.85770 0.84870 0.34850 -0.02700
C 	C 	0.77140 0.89510 0.46430 0.11300
H 	H 	0.73560 0.89270 0.49520 -0.02200
N 	N 	0.78510 0.84610 0.42130 -0.27500
N 	N 	0.85230 0.93170 0.40760 -0.08600
N 	N 	0.81090 0.94640 0.46050 -0.10500
C 	C 	0.54490 0.98980 0.05520 0.01600
C 	C 	0.59380 0.97700 0.11410 -0.09600
H 	H 	0.56930 0.95690 0.15190 0.07100
H 	H 	0.61310 0.01980 0.12920 0.06800
C 	C 	0.66350 0.87090 0.11550 0.07800
H 	H 	0.64230 0.84870 0.15150 -0.02700
C 	C 	0.72860 0.89510 0.03570 0.11300
H 	H 	0.76440 0.89270 0.00480 -0.02200
N 	N 	0.71490 0.84610 0.07870 -0.27500
N 	N 	0.64770 0.93170 0.09240 -0.08600
N 	N 	0.68910 0.94640 0.03950 -0.10500
C 	C 	0.95510 0.51020 0.05520 0.01600
C 	C 	0.90620 0.52300 0.11410 -0.09600
H 	H 	0.93070 0.54310 0.15190 0.07100
H 	H 	0.88690 0.48020 0.12920 0.06800
C 	C 	0.83650 0.62910 0.11550 0.07800
H 	H 	0.85770 0.65130 0.15150 -0.02700
C 	C 	0.77140 0.60490 0.03570 0.11300
H 	H 	0.73560 0.60730 0.00480 -0.02200
N 	N 	0.78510 0.65390 0.07870 -0.27500
N 	N 	0.85230 0.56830 0.09240 -0.08600
N 	N 	0.81090 0.55360 0.03950 -0.10500
C 	C 	0.54490 0.51020 0.44480 0.01600
C 	C 	0.59380 0.52300 0.38590 -0.09600
H 	H 	0.56930 0.54310 0.34810 0.07100
H 	H 	0.61310 0.48020 0.37080 0.06800
C 	C 	0.66350 0.62910 0.38450 0.07800
H 	H 	0.64230 0.65130 0.34850 -0.02700
C 	C 	0.72860 0.60490 0.46430 0.11300
H 	H 	0.76440 0.60730 0.49520 -0.02200
N 	N 	0.71490 0.65390 0.42130 -0.27500
N 	N 	0.64770 0.56830 0.40760 -0.08600
N 	N 	0.68910 0.55360 0.46050 -0.10500
C 	C 	0.95510 0.44480 0.51020 0.01600
C 	C 	0.90620 0.38590 0.52300 -0.09600
H 	H 	0.93070 0.34810 0.54310 0.07100
H 	H 	0.88690 0.37080 0.48020 0.06800
C 	C 	0.83650 0.38450 0.62910 0.07800
H 	H 	0.85770 0.34850 0.65130 -0.02700
C 	C 	0.77140 0.46430 0.60490 0.11300
H 	H 	0.73560 0.49520 0.60730 -0.02200
N 	N 	0.78510 0.42130 0.65390 -0.27500
N 	N 	0.85230 0.40760 0.56830 -0.08600
N 	N 	0.81090 0.46050 0.55360 -0.10500
C 	C 	0.54490 0.05520 0.51020 0.01600
C 	C 	0.59380 0.11410 0.52300 -0.09600
H 	H 	0.56930 0.15190 0.54310 0.07100
H 	H 	0.61310 0.12920 0.48020 0.06800
C 	C 	0.66350 0.11550 0.62910 0.07800
H 	H 	0.64230 0.15150 0.65130 -0.02700
C 	C 	0.72860 0.03570 0.60490 0.11300
H 	H 	0.76440 0.00480 0.60730 -0.02200
N 	N 	0.71490 0.07870 0.65390 -0.27500
N 	N 	0.64770 0.09240 0.56830 -0.08600
N 	N 	0.68910 0.03950 0.55360 -0.10500
C 	C 	0.95510 0.05520 0.98980 0.01600
C 	C 	0.90620 0.11410 0.97700 -0.09600
H 	H 	0.93070 0.15190 0.95690 0.07100
H 	H 	0.88690 0.12920 0.01980 0.06800
C 	C 	0.83650 0.11550 0.87090 0.07800
H 	H 	0.85770 0.15150 0.84870 -0.02700
C 	C 	0.77140 0.03570 0.89510 0.11300
H 	H 	0.73560 0.00480 0.89270 -0.02200
N 	N 	0.78510 0.07870 0.84610 -0.27500
N 	N 	0.85230 0.09240 0.93170 -0.08600
N 	N 	0.81090 0.03950 0.94640 -0.10500
C 	C 	0.54490 0.44480 0.98980 0.01600
C 	C 	0.59380 0.38590 0.97700 -0.09600
H 	H 	0.56930 0.34810 0.95690 0.07100
H 	H 	0.61310 0.37080 0.01980 0.06800
C 	C 	0.66350 0.38450 0.87090 0.07800
H 	H 	0.64230 0.34850 0.84870 -0.02700
C 	C 	0.72860 0.46430 0.89510 0.11300
H 	H 	0.76440 0.49520 0.89270 -0.02200
N 	N 	0.71490 0.42130 0.84610 -0.27500
N 	N 	0.64770 0.40760 0.93170 -0.08600
N 	N 	0.68910 0.46050 0.94640 -0.10500
C 	C 	0.44480 0.98980 0.54490 0.01600
C 	C 	0.38590 0.97700 0.59380 -0.09600
H 	H 	0.34810 0.95690 0.56930 0.07100
H 	H 	0.37080 0.01980 0.61310 0.06800
C 	C 	0.38450 0.87090 0.66350 0.07800
H 	H 	0.34850 0.84870 0.64230 -0.02700
C 	C 	0.46430 0.89510 0.72860 0.11300
H 	H 	0.49520 0.89270 0.76440 -0.02200
N 	N 	0.42130 0.84610 0.71490 -0.27500
N 	N 	0.40760 0.93170 0.64770 -0.08600
N 	N 	0.46050 0.94640 0.68910 -0.10500
C 	C 	0.05520 0.98980 0.95510 0.01600
C 	C 	0.11410 0.97700 0.90620 -0.09600
H 	H 	0.15190 0.95690 0.93070 0.07100
H 	H 	0.12920 0.01980 0.88690 0.06800
C 	C 	0.11550 0.87090 0.83650 0.07800
H 	H 	0.15150 0.84870 0.85770 -0.02700
C 	C 	0.03570 0.89510 0.77140 0.11300
H 	H 	0.00480 0.89270 0.73560 -0.02200
N 	N 	0.07870 0.84610 0.78510 -0.27500
N 	N 	0.09240 0.93170 0.85230 -0.08600
N 	N 	0.03950 0.94640 0.81090 -0.10500
C 	C 	0.05520 0.51020 0.54490 0.01600
C 	C 	0.11410 0.52300 0.59380 -0.09600
H 	H 	0.15190 0.54310 0.56930 0.07100
H 	H 	0.12920 0.48020 0.61310 0.06800
C 	C 	0.11550 0.62910 0.66350 0.07800
H 	H 	0.15150 0.65130 0.64230 -0.02700
C 	C 	0.03570 0.60490 0.72860 0.11300
H 	H 	0.00480 0.60730 0.76440 -0.02200
N 	N 	0.07870 0.65390 0.71490 -0.27500
N 	N 	0.09240 0.56830 0.64770 -0.08600
N 	N 	0.03950 0.55360 0.68910 -0.10500
C 	C 	0.44480 0.51020 0.95510 0.01600
C 	C 	0.38590 0.52300 0.90620 -0.09600
H 	H 	0.34810 0.54310 0.93070 0.07100
H 	H 	0.37080 0.48020 0.88690 0.06800
C 	C 	0.38450 0.62910 0.83650 0.07800
H 	H 	0.34850 0.65130 0.85770 -0.02700
C 	C 	0.46430 0.60490 0.77140 0.11300
H 	H 	0.49520 0.60730 0.73560 -0.02200
N 	N 	0.42130 0.65390 0.78510 -0.27500
N 	N 	0.40760 0.56830 0.85230 -0.08600
N 	N 	0.46050 0.55360 0.81090 -0.10500
C 	C 	0.98980 0.95510 0.05520 0.01600
C 	C 	0.97700 0.90620 0.11410 -0.09600
H 	H 	0.95690 0.93070 0.15190 0.07100
H 	H 	0.01980 0.88690 0.12920 0.06800
C 	C 	0.87090 0.83650 0.11550 0.07800
H 	H 	0.84870 0.85770 0.15150 -0.02700
C 	C 	0.89510 0.77140 0.03570 0.11300
H 	H 	0.89270 0.73560 0.00480 -0.02200
N 	N 	0.84610 0.78510 0.07870 -0.27500
N 	N 	0.93170 0.85230 0.09240 -0.08600
N 	N 	0.94640 0.81090 0.03950 -0.10500
C 	C 	0.98980 0.54490 0.44480 0.01600
C 	C 	0.97700 0.59380 0.38590 -0.09600
H 	H 	0.95690 0.56930 0.34810 0.07100
H 	H 	0.01980 0.61310 0.37080 0.06800
C 	C 	0.87090 0.66350 0.38450 0.07800
H 	H 	0.84870 0.64230 0.34850 -0.02700
C 	C 	0.89510 0.72860 0.46430 0.11300
H 	H 	0.89270 0.76440 0.49520 -0.02200
N 	N 	0.84610 0.71490 0.42130 -0.27500
N 	N 	0.93170 0.64770 0.40760 -0.08600
N 	N 	0.94640 0.68910 0.46050 -0.10500
C 	C 	0.51020 0.95510 0.44480 0.01600
C 	C 	0.52300 0.90620 0.38590 -0.09600
H 	H 	0.54310 0.93070 0.34810 0.07100
H 	H 	0.48020 0.88690 0.37080 0.06800
C 	C 	0.62910 0.83650 0.38450 0.07800
H 	H 	0.65130 0.85770 0.34850 -0.02700
C 	C 	0.60490 0.77140 0.46430 0.11300
H 	H 	0.60730 0.73560 0.49520 -0.02200
N 	N 	0.65390 0.78510 0.42130 -0.27500
N 	N 	0.56830 0.85230 0.40760 -0.08600
N 	N 	0.55360 0.81090 0.46050 -0.10500
C 	C 	0.51020 0.54490 0.05520 0.01600
C 	C 	0.52300 0.59380 0.11410 -0.09600
H 	H 	0.54310 0.56930 0.15190 0.07100
H 	H 	0.48020 0.61310 0.12920 0.06800
C 	C 	0.62910 0.66350 0.11550 0.07800
H 	H 	0.65130 0.64230 0.15150 -0.02700
C 	C 	0.60490 0.72860 0.03570 0.11300
H 	H 	0.60730 0.76440 0.00480 -0.02200
N 	N 	0.65390 0.71490 0.07870 -0.27500
N 	N 	0.56830 0.64770 0.09240 -0.08600
N 	N 	0.55360 0.68910 0.03950 -0.10500
Cu	Cu	0.56740 0.25000 0.25000 0.53900
Cu	Cu	0.60660 0.25000 0.25000 0.51500
Cu	Cu	0.93260 0.25000 0.25000 0.53900
Cu	Cu	0.89340 0.25000 0.25000 0.51500
Cu	Cu	0.25000 0.56740 0.25000 0.53900
Cu	Cu	0.25000 0.60660 0.25000 0.51500
Cu	Cu	0.25000 0.93260 0.25000 0.53900
Cu	Cu	0.25000 0.89340 0.25000 0.51500
Cu	Cu	0.25000 0.25000 0.56740 0.53900
Cu	Cu	0.25000 0.25000 0.60660 0.51500
Cu	Cu	0.25000 0.25000 0.93260 0.53900
Cu	Cu	0.25000 0.25000 0.89340 0.51500
Cu	Cu	0.43260 0.75000 0.75000 0.53900
Cu	Cu	0.39340 0.75000 0.75000 0.51500
Cu	Cu	0.06740 0.75000 0.75000 0.53900
Cu	Cu	0.10660 0.75000 0.75000 0.51500
Cu	Cu	0.75000 0.43260 0.75000 0.53900
Cu	Cu	0.75000 0.39340 0.75000 0.51500
Cu	Cu	0.75000 0.06740 0.75000 0.53900
Cu	Cu	0.75000 0.10660 0.75000 0.51500
Cu	Cu	0.75000 0.75000 0.43260 0.53900
Cu	Cu	0.75000 0.75000 0.39340 0.51500
Cu	Cu	0.75000 0.75000 0.06740 0.53900
Cu	Cu	0.75000 0.75000 0.10660 0.51500
