data_crystal

_cell_length_a 6.12000
_cell_length_b 9.71900
_cell_length_c 20.13300
_cell_angle_alpha 90.00000
_cell_angle_beta  90.00000
_cell_angle_gamma 90.00000

_symmetry_space_group_name_	'P 1'
_symmetry_space_group_name_H-M	'P 1'

loop_
_symmetry_equiv_pos_as_xyz
  x,y,z

loop_
_atom_site_label
_atom_site_type_symbol
_atom_site_fract_x
_atom_site_fract_y
_atom_site_fract_z
_atom_site_charge
Nd	Nd	0.71420 0.03400 0.31470 1.92400
Nd	Nd	0.78580 0.96600 0.81470 1.91900
Nd	Nd	0.28580 0.53400 0.18530 1.92400
Nd	Nd	0.21420 0.46600 0.68530 1.92300
C 	C 	0.21500 0.87220 0.62770 -0.11200
C 	C 	0.41980 0.93760 0.62620 -0.07400
C 	C 	0.50520 0.97790 0.56520 0.01600
C 	C 	0.39340 0.95430 0.50670 -0.10600
C 	C 	0.18610 0.89420 0.50910 -0.00300
C 	C 	0.10250 0.85190 0.56910 -0.00700
C 	C 	0.11550 0.82670 0.69270 0.44200
C 	C 	0.55260 0.95730 0.68680 0.31200
C 	C 	0.49590 0.99350 0.44160 0.33300
C 	C 	0.28500 0.12780 0.12770 -0.10800
C 	C 	0.08020 0.06240 0.12620 -0.08400
C 	C 	0.99480 0.02210 0.06520 0.02700
C 	C 	0.10660 0.04570 0.00670 -0.11300
C 	C 	0.31390 0.10580 0.00910 -0.00000
C 	C 	0.39750 0.14810 0.06910 -0.01100
C 	C 	0.38450 0.17330 0.19270 0.44100
C 	C 	0.94740 0.04270 0.18680 0.32000
C 	C 	0.00410 0.00650 0.94160 0.33200
C 	C 	0.78500 0.37220 0.87230 -0.11100
C 	C 	0.58020 0.43760 0.87380 -0.07500
C 	C 	0.49480 0.47790 0.93480 0.01800
C 	C 	0.60660 0.45430 0.99330 -0.10700
C 	C 	0.81390 0.39420 0.99090 -0.00200
C 	C 	0.89750 0.35190 0.93090 -0.00700
C 	C 	0.88450 0.32670 0.80730 0.44200
C 	C 	0.44740 0.45730 0.81320 0.31500
C 	C 	0.50410 0.49350 0.05840 0.33200
C 	C 	0.71500 0.62780 0.37230 -0.11100
C 	C 	0.91980 0.56240 0.37380 -0.07600
C 	C 	0.00520 0.52210 0.43480 0.01900
C 	C 	0.89340 0.54570 0.49330 -0.10800
C 	C 	0.68610 0.60580 0.49090 -0.00200
C 	C 	0.60250 0.64810 0.43090 -0.01000
C 	C 	0.61550 0.67330 0.30730 0.44200
C 	C 	0.05260 0.54270 0.31320 0.31600
C 	C 	0.99590 0.50650 0.55840 0.33200
O 	O 	0.07420 0.70090 0.70070 -0.50100
O 	O 	0.06580 0.92150 0.73240 -0.50400
O 	O 	0.64420 0.06990 0.69820 -0.40200
O 	O 	0.57130 0.85540 0.72600 -0.47100
O 	O 	0.69760 0.01580 0.43980 -0.46400
O 	O 	0.38160 0.00140 0.38990 -0.45400
O 	O 	0.42580 0.29910 0.20070 -0.50100
O 	O 	0.43420 0.07850 0.23240 -0.50500
O 	O 	0.85580 0.93010 0.19820 -0.40600
O 	O 	0.92870 0.14460 0.22600 -0.47300
O 	O 	0.80240 0.98420 0.93980 -0.46400
O 	O 	0.11840 0.99860 0.88990 -0.45100
O 	O 	0.92580 0.20090 0.79930 -0.50000
O 	O 	0.93420 0.42150 0.76760 -0.50500
O 	O 	0.35580 0.56990 0.80180 -0.40500
O 	O 	0.42870 0.35540 0.77400 -0.47200
O 	O 	0.30240 0.51580 0.06020 -0.46500
O 	O 	0.61840 0.50140 0.11010 -0.45300
O 	O 	0.57420 0.79910 0.29930 -0.50100
O 	O 	0.56580 0.57850 0.26760 -0.50500
O 	O 	0.14420 0.43010 0.30180 -0.40500
O 	O 	0.07130 0.64460 0.27400 -0.47200
O 	O 	0.19760 0.48420 0.56020 -0.46400
O 	O 	0.88160 0.49860 0.61010 -0.45300
H 	H 	0.67064 0.03157 0.56280 0.02800
H 	H 	0.08753 0.88053 0.46151 0.02200
H 	H 	0.93663 0.79870 0.57123 0.02500
H 	H 	0.82936 0.96843 0.06280 0.02500
H 	H 	0.41247 0.11947 0.96151 0.02100
H 	H 	0.56373 0.20102 0.06974 0.02700
H 	H 	0.32936 0.53157 0.93720 0.02700
H 	H 	0.91247 0.38053 0.03849 0.02100
H 	H 	0.06373 0.29898 0.93026 0.02500
H 	H 	0.17064 0.46843 0.43720 0.02600
H 	H 	0.58753 0.61947 0.53849 0.02100
H 	H 	0.43663 0.70130 0.42877 0.02600
