data_crystal

_cell_length_a 9.00850
_cell_length_b 9.00850
_cell_length_c 15.79900
_cell_angle_alpha 90.00000
_cell_angle_beta  90.00000
_cell_angle_gamma 90.00000

_symmetry_space_group_name_	'P 1'
_symmetry_space_group_name_H-M	'P 1'

loop_
_symmetry_equiv_pos_as_xyz
  x,y,z

loop_
_atom_site_label
_atom_site_type_symbol
_atom_site_fract_x
_atom_site_fract_y
_atom_site_fract_z
_atom_site_charge
Er	Er	0.03212 0.38941 0.39568 1.58900
Er	Er	0.46788 0.61059 0.89568 1.59400
Er	Er	0.96788 0.88941 0.10432 1.58900
Er	Er	0.53212 0.11059 0.60432 1.59500
P 	P 	0.12667 0.06673 0.29404 0.50900
P 	P 	0.37333 0.93327 0.79404 0.51900
P 	P 	0.87333 0.56673 0.20596 0.51600
P 	P 	0.62667 0.43327 0.70596 0.51600
H 	H 	0.14290 0.25030 0.18970 0.09000
H 	H 	0.29940 0.17680 0.20300 0.09500
H 	H 	0.44060 0.22020 0.31340 0.15600
H 	H 	0.46020 0.38880 0.33440 0.13900
H 	H 	0.37770 0.48020 0.21720 0.13100
H 	H 	0.20700 0.48740 0.19700 0.13700
H 	H 	0.26910 0.90390 0.32300 0.30700
H 	H 	0.35710 0.74970 0.68970 0.09100
H 	H 	0.20060 0.82320 0.70300 0.09700
H 	H 	0.05940 0.77980 0.81340 0.15700
H 	H 	0.03980 0.61120 0.83440 0.13900
H 	H 	0.12230 0.51980 0.71720 0.13100
H 	H 	0.29300 0.51260 0.69700 0.13600
H 	H 	0.23090 0.09610 0.82300 0.30900
H 	H 	0.85710 0.75030 0.31030 0.09100
H 	H 	0.70060 0.67680 0.29700 0.09600
H 	H 	0.55940 0.72020 0.18660 0.15600
H 	H 	0.53980 0.88880 0.16560 0.14000
H 	H 	0.62230 0.98020 0.28280 0.13200
H 	H 	0.79300 0.98740 0.30300 0.13700
H 	H 	0.73090 0.40390 0.17700 0.30800
H 	H 	0.64290 0.24970 0.81030 0.09100
H 	H 	0.79940 0.32320 0.79700 0.09700
H 	H 	0.94060 0.27980 0.68660 0.15800
H 	H 	0.96020 0.11120 0.66560 0.14200
H 	H 	0.87770 0.01980 0.78280 0.13200
H 	H 	0.70700 0.01260 0.80300 0.13600
H 	H 	0.76910 0.59610 0.67700 0.30800
C 	C 	0.21240 0.21470 0.23200 -0.25900
C 	C 	0.39250 0.30540 0.33910 -0.35900
C 	C 	0.36800 0.27300 0.43120 0.47800
C 	C 	0.27940 0.48000 0.24220 -0.32000
C 	C 	0.26310 0.61300 0.30240 0.39100
C 	C 	0.28760 0.78530 0.73200 -0.26100
C 	C 	0.10750 0.69460 0.83910 -0.35900
C 	C 	0.13200 0.72700 0.93120 0.47800
C 	C 	0.22060 0.52000 0.74220 -0.32000
C 	C 	0.23690 0.38700 0.80240 0.39100
C 	C 	0.78760 0.71470 0.26800 -0.26100
C 	C 	0.60750 0.80540 0.16090 -0.35900
C 	C 	0.63200 0.77300 0.06880 0.47800
C 	C 	0.72060 0.98000 0.25780 -0.32300
C 	C 	0.73690 0.11300 0.19760 0.39300
C 	C 	0.71240 0.28530 0.76800 -0.26100
C 	C 	0.89250 0.19460 0.66090 -0.36000
C 	C 	0.86800 0.22700 0.56880 0.47900
C 	C 	0.77940 0.02000 0.75780 -0.31700
C 	C 	0.76310 0.88700 0.69760 0.38800
N 	N 	0.25620 0.34010 0.28980 -0.05600
N 	N 	0.24380 0.65990 0.78980 -0.05600
N 	N 	0.74380 0.84010 0.21020 -0.05600
N 	N 	0.75620 0.15990 0.71020 -0.05600
O 	O 	0.24500 0.31360 0.46530 -0.45300
O 	O 	0.46920 0.20750 0.47110 -0.46500
O 	O 	0.31610 0.73740 0.27620 -0.32400
O 	O 	0.18930 0.59660 0.37010 -0.43300
O 	O 	0.24880 0.98250 0.34650 -0.47900
O 	O 	0.05070 0.96280 0.23330 -0.45900
O 	O 	0.02570 0.14370 0.35540 -0.42000
O 	O 	0.25500 0.68640 0.96530 -0.45300
O 	O 	0.03080 0.79250 0.97110 -0.46400
O 	O 	0.18390 0.26260 0.77620 -0.32700
O 	O 	0.31070 0.40340 0.87010 -0.43500
O 	O 	0.25120 0.01750 0.84650 -0.48800
O 	O 	0.44930 0.03720 0.73330 -0.46600
O 	O 	0.47430 0.85630 0.85540 -0.41900
O 	O 	0.75500 0.81360 0.03470 -0.45200
O 	O 	0.53080 0.70750 0.02890 -0.46400
O 	O 	0.68390 0.23740 0.22380 -0.32400
O 	O 	0.81070 0.09660 0.12990 -0.43100
O 	O 	0.75120 0.48250 0.15350 -0.48300
O 	O 	0.94930 0.46280 0.26670 -0.46200
O 	O 	0.97430 0.64370 0.14460 -0.41800
O 	O 	0.74500 0.18640 0.53470 -0.45200
O 	O 	0.96920 0.29250 0.52890 -0.46200
O 	O 	0.81610 0.76260 0.72380 -0.32400
O 	O 	0.68930 0.90340 0.62990 -0.43400
O 	O 	0.74880 0.51750 0.65350 -0.48400
O 	O 	0.55070 0.53720 0.76670 -0.46500
O 	O 	0.52570 0.35630 0.64460 -0.41900
