data_crystal

_cell_length_a 11.23740
_cell_length_b 11.23740
_cell_length_c 37.09600
_cell_angle_alpha 90.00000
_cell_angle_beta  90.00000
_cell_angle_gamma 90.00000

_symmetry_space_group_name_	'P 1'
_symmetry_space_group_name_H-M	'P 1'

loop_
_symmetry_equiv_pos_as_xyz
  x,y,z

loop_
_atom_site_label
_atom_site_type_symbol
_atom_site_fract_x
_atom_site_fract_y
_atom_site_fract_z
_atom_site_charge
Cu	Cu	0.69675 0.69699 0.56054 0.90000
O 	O 	0.60910 0.61780 0.59742 -0.48100
O 	O 	0.61720 0.60910 0.52314 -0.48900
O 	O 	0.48650 0.49080 0.62260 -0.43500
O 	O 	0.49190 0.48760 0.49750 -0.43000
N 	N 	0.79530 0.77090 0.59990 -0.23900
N 	N 	0.77380 0.79420 0.52130 -0.23700
N 	N 	0.15310 0.86630 0.75330 -0.14100
N 	N 	0.86900 0.15220 0.36700 -0.14300
C 	C 	0.91660 0.76440 0.59930 0.08300
H 	H 	0.95440 0.73970 0.57830 -0.02100
C 	C 	0.98300 0.79240 0.62810 -0.15200
H 	H 	0.06550 0.79340 0.62610 0.07800
C 	C 	0.93130 0.81940 0.66040 0.08400
C 	C 	0.81400 0.82910 0.66050 -0.16500
H 	H 	0.77550 0.85450 0.68140 0.08600
C 	C 	0.74800 0.80220 0.63040 0.10800
H 	H 	0.66550 0.80670 0.63200 -0.01100
C 	C 	0.00710 0.83890 0.69320 0.05100
C 	C 	0.13100 0.84060 0.69160 -0.13800
H 	H 	0.16840 0.83740 0.66920 0.07700
C 	C 	0.19540 0.84600 0.72080 0.08700
H 	H 	0.27710 0.83590 0.71840 0.01000
C 	C 	0.03830 0.87050 0.75510 0.07700
H 	H 	0.00400 0.88300 0.77760 0.00700
C 	C 	0.96320 0.85770 0.72580 -0.13100
H 	H 	0.88130 0.86220 0.72900 0.07100
C 	C 	0.76990 0.91310 0.52270 0.07600
H 	H 	0.75170 0.94950 0.54460 -0.01800
C 	C 	0.79170 0.98360 0.49320 -0.13800
H 	H 	0.78670 0.06590 0.49540 0.07300
C 	C 	0.82060 0.93390 0.46080 0.06600
C 	C 	0.82580 0.81040 0.45910 -0.14700
H 	H 	0.84520 0.77130 0.43780 0.08100
C 	C 	0.80090 0.74770 0.49060 0.09900
H 	H 	0.80410 0.66510 0.48940 -0.00600
C 	C 	0.83840 0.01030 0.42830 0.05800
C 	C 	0.83810 0.12910 0.43020 -0.13700
H 	H 	0.83010 0.16710 0.45230 0.07800
C 	C 	0.84980 0.19490 0.39890 0.08100
H 	H 	0.84330 0.27710 0.40100 0.01300
C 	C 	0.86730 0.03780 0.36580 0.08100
H 	H 	0.87490 0.00310 0.34310 0.00600
C 	C 	0.85540 0.96160 0.39460 -0.13500
H 	H 	0.85880 0.87960 0.39140 0.07300
C 	C 	0.53660 0.53330 0.52500 0.57300
C 	C 	0.48870 0.48800 0.56040 -0.78100
H 	H 	0.40310 0.49890 0.55970 0.26400
H 	H 	0.50280 0.40290 0.56080 0.26400
C 	C 	0.53030 0.53570 0.59560 0.57400
Cu	Cu	0.30325 0.30301 0.06054 0.90100
O 	O 	0.39090 0.38220 0.09742 -0.48000
O 	O 	0.38280 0.39090 0.02314 -0.48800
O 	O 	0.51350 0.50920 0.12260 -0.43400
O 	O 	0.50810 0.51240 0.99750 -0.42700
N 	N 	0.20470 0.22910 0.09990 -0.23800
N 	N 	0.22620 0.20580 0.02130 -0.23700
N 	N 	0.84690 0.13370 0.25330 -0.14000
N 	N 	0.13100 0.84780 0.86700 -0.14200
C 	C 	0.08340 0.23560 0.09930 0.08300
H 	H 	0.04560 0.26030 0.07830 -0.02100
C 	C 	0.01700 0.20760 0.12810 -0.15200
H 	H 	0.93450 0.20660 0.12610 0.07800
C 	C 	0.06870 0.18060 0.16040 0.08400
C 	C 	0.18600 0.17090 0.16050 -0.16500
H 	H 	0.22450 0.14550 0.18140 0.08600
C 	C 	0.25200 0.19780 0.13040 0.10800
H 	H 	0.33450 0.19330 0.13200 -0.01100
C 	C 	0.99290 0.16110 0.19320 0.05100
C 	C 	0.86900 0.15940 0.19160 -0.13800
H 	H 	0.83160 0.16260 0.16920 0.07700
C 	C 	0.80460 0.15400 0.22080 0.08700
H 	H 	0.72290 0.16410 0.21840 0.01000
C 	C 	0.96170 0.12950 0.25510 0.07700
H 	H 	0.99600 0.11700 0.27760 0.00700
C 	C 	0.03680 0.14230 0.22580 -0.13100
H 	H 	0.11870 0.13780 0.22900 0.07100
C 	C 	0.23010 0.08690 0.02270 0.07200
H 	H 	0.24830 0.05050 0.04460 -0.01700
C 	C 	0.20830 0.01640 0.99320 -0.13300
H 	H 	0.21330 0.93410 0.99540 0.07200
C 	C 	0.17940 0.06610 0.96080 0.06400
C 	C 	0.17420 0.18960 0.95910 -0.14600
H 	H 	0.15480 0.22870 0.93780 0.08100
C 	C 	0.19910 0.25230 0.99060 0.10100
H 	H 	0.19590 0.33490 0.98940 -0.00600
C 	C 	0.16160 0.98970 0.92830 0.06000
C 	C 	0.16190 0.87090 0.93020 -0.13800
H 	H 	0.16990 0.83290 0.95230 0.07900
C 	C 	0.15020 0.80510 0.89890 0.08100
H 	H 	0.15670 0.72290 0.90100 0.01200
C 	C 	0.13270 0.96220 0.86580 0.08200
H 	H 	0.12510 0.99690 0.84310 0.00600
C 	C 	0.14460 0.03840 0.89460 -0.13700
H 	H 	0.14120 0.12040 0.89140 0.07400
C 	C 	0.46340 0.46670 0.02500 0.56900
C 	C 	0.51130 0.51200 0.06040 -0.77900
H 	H 	0.59690 0.50110 0.05970 0.26300
H 	H 	0.49720 0.59710 0.06080 0.26300
C 	C 	0.46970 0.46430 0.09560 0.57300
Cu	Cu	0.30301 0.69675 0.31054 0.90100
O 	O 	0.38220 0.60910 0.34742 -0.48000
O 	O 	0.39090 0.61720 0.27314 -0.48800
O 	O 	0.50920 0.48650 0.37260 -0.43400
O 	O 	0.51240 0.49190 0.24750 -0.42900
N 	N 	0.22910 0.79530 0.34990 -0.23800
N 	N 	0.20580 0.77380 0.27130 -0.23600
N 	N 	0.13370 0.15310 0.50330 -0.14000
N 	N 	0.84780 0.86900 0.11700 -0.14200
C 	C 	0.23560 0.91660 0.34930 0.08300
H 	H 	0.26030 0.95440 0.32830 -0.02000
C 	C 	0.20760 0.98300 0.37810 -0.15100
H 	H 	0.20660 0.06550 0.37610 0.07800
C 	C 	0.18060 0.93130 0.41040 0.08400
C 	C 	0.17090 0.81400 0.41050 -0.16500
H 	H 	0.14550 0.77550 0.43140 0.08600
C 	C 	0.19780 0.74800 0.38040 0.10800
H 	H 	0.19330 0.66550 0.38200 -0.01100
C 	C 	0.16110 0.00710 0.44320 0.05100
C 	C 	0.15940 0.13100 0.44160 -0.13800
H 	H 	0.16260 0.16840 0.41920 0.07700
C 	C 	0.15400 0.19540 0.47080 0.08700
H 	H 	0.16410 0.27710 0.46840 0.01000
C 	C 	0.12950 0.03830 0.50510 0.07700
H 	H 	0.11700 0.00400 0.52760 0.00700
C 	C 	0.14230 0.96320 0.47580 -0.13100
H 	H 	0.13780 0.88130 0.47900 0.07100
C 	C 	0.08690 0.76990 0.27270 0.07600
H 	H 	0.05050 0.75170 0.29460 -0.01800
C 	C 	0.01640 0.79170 0.24320 -0.13800
H 	H 	0.93410 0.78670 0.24540 0.07300
C 	C 	0.06610 0.82060 0.21080 0.06500
C 	C 	0.18960 0.82580 0.20910 -0.14700
H 	H 	0.22870 0.84520 0.18780 0.08100
C 	C 	0.25230 0.80090 0.24060 0.09900
H 	H 	0.33490 0.80410 0.23940 -0.00600
C 	C 	0.98970 0.83840 0.17830 0.05900
C 	C 	0.87090 0.83810 0.18020 -0.13700
H 	H 	0.83290 0.83010 0.20230 0.07800
C 	C 	0.80510 0.84980 0.14890 0.08100
H 	H 	0.72290 0.84330 0.15100 0.01200
C 	C 	0.96220 0.86730 0.11580 0.08200
H 	H 	0.99690 0.87490 0.09310 0.00600
C 	C 	0.03840 0.85540 0.14460 -0.13600
H 	H 	0.12040 0.85880 0.14140 0.07300
C 	C 	0.46670 0.53660 0.27500 0.57300
C 	C 	0.51200 0.48870 0.31040 -0.78100
H 	H 	0.50110 0.40310 0.30970 0.26400
H 	H 	0.59710 0.50280 0.31080 0.26400
C 	C 	0.46430 0.53030 0.34560 0.57400
Cu	Cu	0.69699 0.30325 0.81054 0.90100
O 	O 	0.61780 0.39090 0.84742 -0.48000
O 	O 	0.60910 0.38280 0.77314 -0.48800
O 	O 	0.49080 0.51350 0.87260 -0.43400
O 	O 	0.48760 0.50810 0.74750 -0.42900
N 	N 	0.77090 0.20470 0.84990 -0.23800
N 	N 	0.79420 0.22620 0.77130 -0.23600
N 	N 	0.86630 0.84690 0.00330 -0.14100
N 	N 	0.15220 0.13100 0.61700 -0.14200
C 	C 	0.76440 0.08340 0.84930 0.08400
H 	H 	0.73970 0.04560 0.82830 -0.02000
C 	C 	0.79240 0.01700 0.87810 -0.15200
H 	H 	0.79340 0.93450 0.87610 0.07900
C 	C 	0.81940 0.06870 0.91040 0.08500
C 	C 	0.82910 0.18600 0.91050 -0.16600
H 	H 	0.85450 0.22450 0.93140 0.08700
C 	C 	0.80220 0.25200 0.88040 0.10800
H 	H 	0.80670 0.33450 0.88200 -0.01100
C 	C 	0.83890 0.99290 0.94320 0.05000
C 	C 	0.84060 0.86900 0.94160 -0.13800
H 	H 	0.83740 0.83160 0.91920 0.07700
C 	C 	0.84600 0.80460 0.97080 0.09000
H 	H 	0.83590 0.72290 0.96840 0.01000
C 	C 	0.87050 0.96170 0.00510 0.07300
H 	H 	0.88300 0.99600 0.02760 0.00800
C 	C 	0.85770 0.03680 0.97580 -0.12700
H 	H 	0.86220 0.11870 0.97900 0.07000
C 	C 	0.91310 0.23010 0.77270 0.07600
H 	H 	0.94950 0.24830 0.79460 -0.01800
C 	C 	0.98360 0.20830 0.74320 -0.13800
H 	H 	0.06590 0.21330 0.74540 0.07300
C 	C 	0.93390 0.17940 0.71080 0.06500
C 	C 	0.81040 0.17420 0.70910 -0.14700
H 	H 	0.77130 0.15480 0.68780 0.08100
C 	C 	0.74770 0.19910 0.74060 0.09900
H 	H 	0.66510 0.19590 0.73940 -0.00600
C 	C 	0.01030 0.16160 0.67830 0.05900
C 	C 	0.12910 0.16190 0.68020 -0.13700
H 	H 	0.16710 0.16990 0.70230 0.07800
C 	C 	0.19490 0.15020 0.64890 0.08100
H 	H 	0.27710 0.15670 0.65100 0.01300
C 	C 	0.03780 0.13270 0.61580 0.08200
H 	H 	0.00310 0.12510 0.59310 0.00600
C 	C 	0.96160 0.14460 0.64460 -0.13600
H 	H 	0.87960 0.14120 0.64140 0.07300
C 	C 	0.53330 0.46340 0.77500 0.57300
C 	C 	0.48800 0.51130 0.81040 -0.78100
H 	H 	0.49890 0.59690 0.80970 0.26400
H 	H 	0.40290 0.49720 0.81080 0.26400
C 	C 	0.53570 0.46970 0.84560 0.57400
Cu	Cu	0.49400 0.49983 0.68583 0.90100
N 	N 	0.30810 0.49970 0.68660 -0.21800
N 	N 	0.48750 0.31540 0.68534 -0.21200
N 	N 	0.67790 0.49930 0.68660 -0.21400
N 	N 	0.48850 0.68440 0.68770 -0.21700
C 	C 	0.24570 0.48180 0.65590 0.06900
H 	H 	0.28780 0.46700 0.63480 0.01000
C 	C 	0.12300 0.48440 0.65410 -0.13400
H 	H 	0.08380 0.47710 0.63210 0.07100
C 	C 	0.06050 0.49790 0.68560 0.06600
C 	C 	0.12490 0.51680 0.71570 -0.15700
H 	H 	0.08610 0.53090 0.73740 0.08000
C 	C 	0.24660 0.51550 0.71470 0.10700
H 	H 	0.28700 0.52710 0.73630 -0.00400
C 	C 	0.92820 0.49930 0.68620 0.06200
C 	C 	0.86290 0.53160 0.71540 -0.14200
H 	H 	0.90180 0.55410 0.73650 0.07300
C 	C 	0.74070 0.53170 0.71470 0.09500
H 	H 	0.70030 0.55620 0.73520 -0.00700
C 	C 	0.74100 0.46940 0.65640 0.06600
H 	H 	0.70000 0.44910 0.63550 0.00400
C 	C 	0.86600 0.46830 0.65600 -0.12600
H 	H 	0.90650 0.44650 0.63510 0.06800
C 	C 	0.52880 0.25000 0.65620 0.06200
H 	H 	0.55850 0.29020 0.63630 0.00500
C 	C 	0.52710 0.12780 0.65600 -0.13000
H 	H 	0.55400 0.08650 0.63580 0.06700
C 	C 	0.48540 0.06610 0.68560 0.05000
C 	C 	0.44260 0.13310 0.71440 -0.14600
H 	H 	0.41330 0.09560 0.73490 0.07500
C 	C 	0.44410 0.25560 0.71220 0.09300
H 	H 	0.41170 0.29830 0.73130 -0.00800
C 	C 	0.48580 0.93490 0.68630 0.05900
C 	C 	0.44410 0.86660 0.65720 -0.14500
H 	H 	0.41460 0.90400 0.63670 0.07500
C 	C 	0.44680 0.74670 0.65900 0.08100
H 	H 	0.41830 0.70410 0.63940 -0.00400
C 	C 	0.52720 0.74950 0.71470 0.09900
H 	H 	0.55720 0.71000 0.73480 -0.00800
C 	C 	0.52640 0.86890 0.71540 -0.15600
H 	H 	0.55360 0.90830 0.73580 0.07700
Cu	Cu	0.50600 0.50017 0.18583 0.90100
N 	N 	0.69190 0.50030 0.18660 -0.21800
N 	N 	0.51250 0.68460 0.18534 -0.21200
N 	N 	0.32210 0.50070 0.18660 -0.21400
N 	N 	0.51150 0.31560 0.18770 -0.21700
C 	C 	0.75430 0.51820 0.15590 0.06900
H 	H 	0.71220 0.53300 0.13480 0.01000
C 	C 	0.87700 0.51560 0.15410 -0.13400
H 	H 	0.91620 0.52290 0.13210 0.07100
C 	C 	0.93950 0.50210 0.18560 0.06600
C 	C 	0.87510 0.48320 0.21570 -0.15700
H 	H 	0.91390 0.46910 0.23740 0.08000
C 	C 	0.75340 0.48450 0.21470 0.10700
H 	H 	0.71300 0.47290 0.23630 -0.00400
C 	C 	0.07180 0.50070 0.18620 0.06200
C 	C 	0.13710 0.46840 0.21540 -0.14200
H 	H 	0.09820 0.44590 0.23650 0.07300
C 	C 	0.25930 0.46830 0.21470 0.09500
H 	H 	0.29970 0.44380 0.23520 -0.00700
C 	C 	0.25900 0.53060 0.15640 0.06600
H 	H 	0.30000 0.55090 0.13550 0.00400
C 	C 	0.13400 0.53170 0.15600 -0.12600
H 	H 	0.09350 0.55350 0.13510 0.06800
C 	C 	0.47120 0.75000 0.15620 0.06200
H 	H 	0.44150 0.70980 0.13630 0.00500
C 	C 	0.47290 0.87220 0.15600 -0.13000
H 	H 	0.44600 0.91350 0.13580 0.06700
C 	C 	0.51460 0.93390 0.18560 0.05100
C 	C 	0.55740 0.86690 0.21440 -0.14600
H 	H 	0.58670 0.90440 0.23490 0.07500
C 	C 	0.55590 0.74440 0.21220 0.09400
H 	H 	0.58830 0.70170 0.23130 -0.00800
C 	C 	0.51420 0.06510 0.18630 0.05800
C 	C 	0.55590 0.13340 0.15720 -0.14500
H 	H 	0.58540 0.09600 0.13670 0.07400
C 	C 	0.55320 0.25330 0.15900 0.08100
H 	H 	0.58170 0.29590 0.13940 -0.00400
C 	C 	0.47280 0.25050 0.21470 0.09900
H 	H 	0.44280 0.29000 0.23480 -0.00800
C 	C 	0.47360 0.13110 0.21540 -0.15600
H 	H 	0.44640 0.09170 0.23580 0.07700
Cu	Cu	0.50017 0.49400 0.43583 0.90100
N 	N 	0.50030 0.30810 0.43660 -0.21800
N 	N 	0.68460 0.48750 0.43534 -0.21200
N 	N 	0.50070 0.67790 0.43660 -0.21400
N 	N 	0.31560 0.48850 0.43770 -0.21700
C 	C 	0.51820 0.24570 0.40590 0.06900
H 	H 	0.53300 0.28780 0.38480 0.01000
C 	C 	0.51560 0.12300 0.40410 -0.13400
H 	H 	0.52290 0.08380 0.38210 0.07100
C 	C 	0.50210 0.06050 0.43560 0.06600
C 	C 	0.48320 0.12490 0.46570 -0.15700
H 	H 	0.46910 0.08610 0.48740 0.08000
C 	C 	0.48450 0.24660 0.46470 0.10700
H 	H 	0.47290 0.28700 0.48630 -0.00400
C 	C 	0.50070 0.92820 0.43620 0.06200
C 	C 	0.46840 0.86290 0.46540 -0.14200
H 	H 	0.44590 0.90180 0.48650 0.07300
C 	C 	0.46830 0.74070 0.46470 0.09500
H 	H 	0.44380 0.70030 0.48520 -0.00700
C 	C 	0.53060 0.74100 0.40640 0.06600
H 	H 	0.55090 0.70000 0.38550 0.00400
C 	C 	0.53170 0.86600 0.40600 -0.12600
H 	H 	0.55350 0.90650 0.38510 0.06800
C 	C 	0.75000 0.52880 0.40620 0.06200
H 	H 	0.70980 0.55850 0.38630 0.00500
C 	C 	0.87220 0.52710 0.40600 -0.13000
H 	H 	0.91350 0.55400 0.38580 0.06700
C 	C 	0.93390 0.48540 0.43560 0.05000
C 	C 	0.86690 0.44260 0.46440 -0.14600
H 	H 	0.90440 0.41330 0.48490 0.07500
C 	C 	0.74440 0.44410 0.46220 0.09400
H 	H 	0.70170 0.41170 0.48130 -0.00800
C 	C 	0.06510 0.48580 0.43630 0.05900
C 	C 	0.13340 0.44410 0.40720 -0.14500
H 	H 	0.09600 0.41460 0.38670 0.07500
C 	C 	0.25330 0.44680 0.40900 0.08100
H 	H 	0.29590 0.41830 0.38940 -0.00400
C 	C 	0.25050 0.52720 0.46470 0.09900
H 	H 	0.29000 0.55720 0.48480 -0.00800
C 	C 	0.13110 0.52640 0.46540 -0.15600
H 	H 	0.09170 0.55360 0.48580 0.07700
Cu	Cu	0.49983 0.50600 0.93583 0.90100
N 	N 	0.49970 0.69190 0.93660 -0.21800
N 	N 	0.31540 0.51250 0.93534 -0.21200
N 	N 	0.49930 0.32210 0.93660 -0.21400
N 	N 	0.68440 0.51150 0.93770 -0.21700
C 	C 	0.48180 0.75430 0.90590 0.06900
H 	H 	0.46700 0.71220 0.88480 0.01000
C 	C 	0.48440 0.87700 0.90410 -0.13400
H 	H 	0.47710 0.91620 0.88210 0.07100
C 	C 	0.49790 0.93950 0.93560 0.06600
C 	C 	0.51680 0.87510 0.96570 -0.15700
H 	H 	0.53090 0.91390 0.98740 0.08000
C 	C 	0.51550 0.75340 0.96470 0.10700
H 	H 	0.52710 0.71300 0.98630 -0.00400
C 	C 	0.49930 0.07180 0.93620 0.06100
C 	C 	0.53160 0.13710 0.96540 -0.14200
H 	H 	0.55410 0.09820 0.98650 0.07300
C 	C 	0.53170 0.25930 0.96470 0.09500
H 	H 	0.55620 0.29970 0.98520 -0.00600
C 	C 	0.46940 0.25900 0.90640 0.06600
H 	H 	0.44910 0.30000 0.88550 0.00400
C 	C 	0.46830 0.13400 0.90600 -0.12600
H 	H 	0.44650 0.09350 0.88510 0.06800
C 	C 	0.25000 0.47120 0.90620 0.06200
H 	H 	0.29020 0.44150 0.88630 0.00500
C 	C 	0.12780 0.47290 0.90600 -0.13000
H 	H 	0.08650 0.44600 0.88580 0.06700
C 	C 	0.06610 0.51460 0.93560 0.05000
C 	C 	0.13310 0.55740 0.96440 -0.14600
H 	H 	0.09560 0.58670 0.98490 0.07600
C 	C 	0.25560 0.55590 0.96220 0.09400
H 	H 	0.29830 0.58830 0.98130 -0.00800
C 	C 	0.93490 0.51420 0.93630 0.05900
C 	C 	0.86660 0.55590 0.90720 -0.14500
H 	H 	0.90400 0.58540 0.88670 0.07500
C 	C 	0.74670 0.55320 0.90900 0.08100
H 	H 	0.70410 0.58170 0.88940 -0.00400
C 	C 	0.74950 0.47280 0.96470 0.09900
H 	H 	0.71000 0.44280 0.98480 -0.00700
C 	C 	0.86890 0.47360 0.96540 -0.15600
H 	H 	0.90830 0.44640 0.98580 0.07700
