data_crystal

_cell_length_a 15.84700
_cell_length_b 9.68500
_cell_length_c 18.33300
_cell_angle_alpha 90.00000
_cell_angle_beta  115.50000
_cell_angle_gamma 90.00000

_symmetry_space_group_name_	'P 1'
_symmetry_space_group_name_H-M	'P 1'

loop_
_symmetry_equiv_pos_as_xyz
  x,y,z

loop_
_atom_site_label
_atom_site_type_symbol
_atom_site_fract_x
_atom_site_fract_y
_atom_site_fract_z
_atom_site_charge
Zn	Zn	0.41800 0.12490 0.58610 1.23900
O 	O 	0.35840 0.28470 0.50240 -0.32300
O 	O 	0.39360 0.96500 0.50250 -0.32400
O 	O 	0.46690 0.26260 0.68270 -0.32600
O 	O 	0.46620 0.98610 0.68350 -0.32400
O 	O 	0.22170 0.38550 0.43120 -0.32600
O 	O 	0.45920 0.86450 0.43130 -0.32400
C 	C 	0.27270 0.30070 0.48080 0.23500
C 	C 	0.45750 0.95010 0.48070 0.23500
Zn	Zn	0.91800 0.62490 0.58610 1.24500
O 	O 	0.85840 0.78470 0.50240 -0.31400
O 	O 	0.89360 0.46500 0.50250 -0.32300
O 	O 	0.96690 0.76260 0.68270 -0.28900
O 	O 	0.96620 0.48610 0.68350 -0.29000
O 	O 	0.72170 0.88550 0.43120 -0.32200
O 	O 	0.95920 0.36450 0.43130 -0.31100
C 	C 	0.77270 0.80070 0.48080 0.23600
C 	C 	0.95750 0.45010 0.48070 0.26600
Zn	Zn	0.58200 0.12490 0.91390 1.24000
O 	O 	0.64160 0.28470 0.99760 -0.32800
O 	O 	0.60640 0.96500 0.99750 -0.31900
O 	O 	0.53310 0.26260 0.81730 -0.32600
O 	O 	0.53380 0.98610 0.81650 -0.32300
O 	O 	0.77830 0.38550 0.06880 -0.32400
O 	O 	0.54080 0.86450 0.06870 -0.32200
C 	C 	0.72730 0.30070 0.01920 0.25000
C 	C 	0.54250 0.95010 0.01930 0.23500
Zn	Zn	0.08200 0.62490 0.91390 1.23600
O 	O 	0.14160 0.78470 0.99760 -0.33200
O 	O 	0.10640 0.46500 0.99750 -0.32700
O 	O 	0.03310 0.76260 0.81730 -0.32700
O 	O 	0.03380 0.48610 0.81650 -0.32900
O 	O 	0.27830 0.88550 0.06880 -0.33000
O 	O 	0.04080 0.36450 0.06870 -0.33400
C 	C 	0.22730 0.80070 0.01920 0.23800
C 	C 	0.04250 0.45010 0.01930 0.21100
Zn	Zn	0.58200 0.87510 0.41390 1.24000
O 	O 	0.64160 0.71530 0.49760 -0.32200
O 	O 	0.60640 0.03500 0.49750 -0.32100
O 	O 	0.53310 0.73740 0.31730 -0.32600
O 	O 	0.53380 0.01390 0.31650 -0.32300
O 	O 	0.77830 0.61450 0.56880 -0.32200
O 	O 	0.54080 0.13550 0.56870 -0.32200
C 	C 	0.72730 0.69930 0.51920 0.23700
C 	C 	0.54250 0.04990 0.51930 0.23400
Zn	Zn	0.08200 0.37510 0.41390 1.23600
O 	O 	0.14160 0.21530 0.49760 -0.33200
O 	O 	0.10640 0.53500 0.49750 -0.32200
O 	O 	0.03310 0.23740 0.31730 -0.32700
O 	O 	0.03380 0.51390 0.31650 -0.32900
O 	O 	0.27830 0.11450 0.56880 -0.32900
O 	O 	0.04080 0.63550 0.56870 -0.33300
C 	C 	0.22730 0.19930 0.51920 0.23800
C 	C 	0.04250 0.54990 0.51930 0.20300
Zn	Zn	0.41800 0.87510 0.08610 1.24000
O 	O 	0.35840 0.71530 0.00240 -0.32200
O 	O 	0.39360 0.03500 0.00250 -0.31500
O 	O 	0.46690 0.73740 0.18270 -0.32600
O 	O 	0.46620 0.01390 0.18350 -0.32200
O 	O 	0.22170 0.61450 0.93120 -0.32700
O 	O 	0.45920 0.13550 0.93130 -0.32300
C 	C 	0.27270 0.69930 0.98080 0.23400
C 	C 	0.45750 0.04990 0.98070 0.22300
Zn	Zn	0.91800 0.37510 0.08610 1.24500
O 	O 	0.85840 0.21530 0.00240 -0.30700
O 	O 	0.89360 0.53500 0.00250 -0.32100
O 	O 	0.96690 0.23740 0.18270 -0.28800
O 	O 	0.96620 0.51390 0.18350 -0.29100
O 	O 	0.72170 0.11450 0.93120 -0.32000
O 	O 	0.95920 0.63550 0.93130 -0.31000
C 	C 	0.77270 0.19930 0.98080 0.22300
C 	C 	0.95750 0.54990 0.98070 0.25900
C 	C 	0.50000 0.20470 0.75000 0.23000
C 	C 	0.50000 0.04400 0.75000 0.23300
C 	C 	-0.00000 0.70470 0.75000 0.19300
C 	C 	0.00000 0.54400 0.75000 0.20300
C 	C 	0.50000 0.79530 0.25000 0.23000
C 	C 	0.50000 0.95600 0.25000 0.23300
C 	C 	0.00000 0.29530 0.25000 0.19300
C 	C 	0.00000 0.45600 0.25000 0.20400
