data_crystal

_cell_length_a 8.58900
_cell_length_b 14.02000
_cell_length_c 16.60600
_cell_angle_alpha 90.00000
_cell_angle_beta  97.19000
_cell_angle_gamma 90.00000

_symmetry_space_group_name_	'P 1'
_symmetry_space_group_name_H-M	'P 1'

loop_
_symmetry_equiv_pos_as_xyz
  x,y,z

loop_
_atom_site_label
_atom_site_type_symbol
_atom_site_fract_x
_atom_site_fract_y
_atom_site_fract_z
_atom_site_charge
Zn	Zn	0.17309 0.22906 0.65468 1.23800
Zn	Zn	0.66617 0.40087 0.48445 1.23100
Zn	Zn	0.53676 0.13505 0.44625 1.23100
P 	P 	0.83720 0.22568 0.55754 0.45200
H 	H 	0.76200 0.21740 0.62500 -0.05400
P 	P 	0.32810 0.37392 0.54406 0.46100
H 	H 	0.27400 0.30800 0.49100 -0.05100
P 	P 	0.52700 0.29592 0.31777 0.41800
H 	H 	0.41200 0.34900 0.26700 -0.02800
P 	P 	0.66160 0.93750 0.41230 0.21300
O 	O 	0.74600 0.16760 0.49110 -0.46700
O 	O 	0.84360 0.33080 0.53780 -0.44400
O 	O 	0.00090 0.18520 0.57930 -0.43500
O 	O 	0.26960 0.34800 0.62380 -0.41800
O 	O 	0.26150 0.46830 0.51210 -0.44300
O 	O 	0.50440 0.36940 0.55050 -0.48500
O 	O 	0.62880 0.36810 0.36930 -0.44100
O 	O 	0.62100 0.24000 0.26160 -0.43200
O 	O 	0.43790 0.22990 0.36970 -0.43300
O 	O 	0.54920 0.01820 0.38470 -0.45400
O 	O 	0.61640 0.87730 0.47950 -0.48400
O 	O 	0.67970 0.87580 0.33610 -0.42500
P 	P 	0.56530 0.91670 0.39170 0.25300
Zn	Zn	0.32691 0.72906 0.84532 1.23700
Zn	Zn	0.83383 0.90087 0.01555 1.22500
Zn	Zn	0.96324 0.63505 0.05375 1.22800
P 	P 	0.66280 0.72568 0.94246 0.45300
H 	H 	0.73800 0.71740 0.87500 -0.05300
P 	P 	0.17190 0.87392 0.95594 0.45900
H 	H 	0.22600 0.80800 0.00900 -0.05200
P 	P 	0.97300 0.79592 0.18223 0.40900
H 	H 	0.08800 0.84900 0.23300 -0.02500
P 	P 	0.83840 0.43750 0.08770 0.21700
O 	O 	0.75400 0.66760 0.00890 -0.47200
O 	O 	0.65640 0.83080 0.96220 -0.44100
O 	O 	0.49910 0.68520 0.92070 -0.43100
O 	O 	0.23040 0.84800 0.87620 -0.41700
O 	O 	0.23850 0.96830 0.98790 -0.43900
O 	O 	0.99560 0.86940 0.94950 -0.47900
O 	O 	0.87120 0.86810 0.13070 -0.44500
O 	O 	0.87900 0.74000 0.23840 -0.43200
O 	O 	0.06210 0.72990 0.13030 -0.42800
O 	O 	0.95080 0.51820 0.11530 -0.45800
O 	O 	0.88360 0.37730 0.02050 -0.48400
O 	O 	0.82030 0.37580 0.16390 -0.42400
P 	P 	0.93470 0.41670 0.10830 0.25100
Zn	Zn	0.82691 0.77094 0.34532 1.23700
Zn	Zn	0.33383 0.59913 0.51555 1.23000
Zn	Zn	0.46324 0.86495 0.55375 1.23000
P 	P 	0.16280 0.77432 0.44246 0.45100
H 	H 	0.23800 0.78260 0.37500 -0.05400
P 	P 	0.67190 0.62608 0.45594 0.46100
H 	H 	0.72600 0.69200 0.50900 -0.05100
P 	P 	0.47300 0.70408 0.68223 0.41800
H 	H 	0.58800 0.65100 0.73300 -0.02800
P 	P 	0.33840 0.06250 0.58770 0.21300
O 	O 	0.25400 0.83240 0.50890 -0.46700
O 	O 	0.15640 0.66920 0.46220 -0.44400
O 	O 	0.99910 0.81480 0.42070 -0.43500
O 	O 	0.73040 0.65200 0.37620 -0.41800
O 	O 	0.73850 0.53170 0.48790 -0.44300
O 	O 	0.49560 0.63060 0.44950 -0.48500
O 	O 	0.37120 0.63190 0.63070 -0.44100
O 	O 	0.37900 0.76000 0.73840 -0.43200
O 	O 	0.56210 0.77010 0.63030 -0.43300
O 	O 	0.45080 0.98180 0.61530 -0.45400
O 	O 	0.38360 0.12270 0.52050 -0.48400
O 	O 	0.32030 0.12420 0.66390 -0.42500
P 	P 	0.43470 0.08330 0.60830 0.25300
Zn	Zn	0.67309 0.27094 0.15468 1.23700
Zn	Zn	0.16617 0.09913 0.98445 1.22500
Zn	Zn	0.03676 0.36495 0.94625 1.22800
P 	P 	0.33720 0.27432 0.05754 0.45300
H 	H 	0.26200 0.28260 0.12500 -0.05300
P 	P 	0.82810 0.12608 0.04406 0.45900
H 	H 	0.77400 0.19200 0.99100 -0.05200
P 	P 	0.02700 0.20408 0.81777 0.40900
H 	H 	0.91200 0.15100 0.76700 -0.02500
P 	P 	0.16160 0.56250 0.91230 0.21700
O 	O 	0.24600 0.33240 0.99110 -0.47200
O 	O 	0.34360 0.16920 0.03780 -0.44100
O 	O 	0.50090 0.31480 0.07930 -0.43100
O 	O 	0.76960 0.15200 0.12380 -0.41700
O 	O 	0.76150 0.03170 0.01210 -0.43900
O 	O 	0.00440 0.13060 0.05050 -0.47900
O 	O 	0.12880 0.13190 0.86930 -0.44500
O 	O 	0.12100 0.26000 0.76160 -0.43200
O 	O 	0.93790 0.27010 0.86970 -0.42800
O 	O 	0.04920 0.48180 0.88470 -0.45800
O 	O 	0.11640 0.62270 0.97950 -0.48400
O 	O 	0.17970 0.62420 0.83610 -0.42400
P 	P 	0.06530 0.58330 0.89170 0.25100
