data_crystal

_cell_length_a 16.12840
_cell_length_b 16.12840
_cell_length_c 5.21340
_cell_angle_alpha 90.00000
_cell_angle_beta  90.00000
_cell_angle_gamma 90.00000

_symmetry_space_group_name_	'P 1'
_symmetry_space_group_name_H-M	'P 1'

loop_
_symmetry_equiv_pos_as_xyz
  x,y,z

loop_
_atom_site_label
_atom_site_type_symbol
_atom_site_fract_x
_atom_site_fract_y
_atom_site_fract_z
_atom_site_charge
C 	C 	0.24613 0.05612 0.75810 0.04500
H 	H 	0.28520 0.07550 0.64130 0.01200
C 	C 	0.22691 0.97353 0.75720 -0.07900
H 	H 	0.25270 0.93760 0.64250 0.05600
C 	C 	0.16867 0.94419 0.92900 -0.02700
H 	H 	0.15500 0.88820 0.93240 0.04000
C 	C 	0.13104 0.99912 0.09600 -0.00400
C 	C 	0.15470 0.08182 0.08510 0.02100
H 	H 	0.13010 0.11910 0.19800 0.02800
C 	C 	0.06797 0.97074 0.27860 0.01500
H 	H 	0.05660 0.91430 0.29040 0.03800
N 	N 	0.21108 0.11017 0.92000 -0.20900
N 	N 	0.02871 0.02037 0.41980 -0.08400
C 	C 	0.25387 0.44388 0.75810 0.04600
H 	H 	0.21480 0.42450 0.64130 0.01300
C 	C 	0.27309 0.52647 0.75720 -0.07700
H 	H 	0.24730 0.56240 0.64250 0.05700
C 	C 	0.33133 0.55581 0.92900 -0.02900
H 	H 	0.34500 0.61180 0.93240 0.04000
C 	C 	0.36896 0.50088 0.09600 -0.00200
C 	C 	0.34530 0.41818 0.08510 0.01900
H 	H 	0.36990 0.38090 0.19800 0.02900
C 	C 	0.43203 0.52926 0.27860 0.01500
H 	H 	0.44340 0.58570 0.29040 0.03800
N 	N 	0.28892 0.38983 0.92000 -0.20800
N 	N 	0.47129 0.47963 0.41980 -0.08500
C 	C 	0.44388 0.24613 0.75810 0.04600
H 	H 	0.42450 0.28520 0.64130 0.01300
C 	C 	0.52647 0.22691 0.75720 -0.07700
H 	H 	0.56240 0.25270 0.64250 0.05700
C 	C 	0.55581 0.16867 0.92900 -0.02900
H 	H 	0.61180 0.15500 0.93240 0.04000
C 	C 	0.50088 0.13104 0.09600 -0.00200
C 	C 	0.41818 0.15470 0.08510 0.01900
H 	H 	0.38090 0.13010 0.19800 0.02900
C 	C 	0.52926 0.06797 0.27860 0.01500
H 	H 	0.58570 0.05660 0.29040 0.03800
N 	N 	0.38983 0.21108 0.92000 -0.20800
N 	N 	0.47963 0.02871 0.41980 -0.08500
C 	C 	0.05612 0.25387 0.75810 0.04600
H 	H 	0.07550 0.21480 0.64130 0.01300
C 	C 	0.97353 0.27309 0.75720 -0.07900
H 	H 	0.93760 0.24730 0.64250 0.05700
C 	C 	0.94419 0.33133 0.92900 -0.02700
H 	H 	0.88820 0.34500 0.93240 0.04000
C 	C 	0.99912 0.36896 0.09600 -0.00400
C 	C 	0.08182 0.34530 0.08510 0.02100
H 	H 	0.11910 0.36990 0.19800 0.02800
C 	C 	0.97074 0.43203 0.27860 0.01500
H 	H 	0.91430 0.44340 0.29040 0.03800
N 	N 	0.11017 0.28892 0.92000 -0.20900
N 	N 	0.02037 0.47129 0.41980 -0.08500
C 	C 	0.75387 0.94388 0.24190 0.04600
H 	H 	0.71480 0.92450 0.35870 0.01300
C 	C 	0.77309 0.02647 0.24280 -0.07800
H 	H 	0.74730 0.06240 0.35750 0.05700
C 	C 	0.83133 0.05581 0.07100 -0.02700
H 	H 	0.84500 0.11180 0.06760 0.04000
C 	C 	0.86896 0.00088 0.90400 -0.00400
C 	C 	0.84530 0.91818 0.91490 0.02100
H 	H 	0.86990 0.88090 0.80200 0.02800
C 	C 	0.93203 0.02926 0.72140 0.01500
H 	H 	0.94340 0.08570 0.70960 0.03800
N 	N 	0.78892 0.88983 0.08000 -0.20900
N 	N 	0.97129 0.97963 0.58020 -0.08400
C 	C 	0.74613 0.55612 0.24190 0.04600
H 	H 	0.78520 0.57550 0.35870 0.01300
C 	C 	0.72691 0.47353 0.24280 -0.07700
H 	H 	0.75270 0.43760 0.35750 0.05700
C 	C 	0.66867 0.44419 0.07100 -0.02900
H 	H 	0.65500 0.38820 0.06760 0.04000
C 	C 	0.63104 0.49912 0.90400 -0.00200
C 	C 	0.65470 0.58182 0.91490 0.01900
H 	H 	0.63010 0.61910 0.80200 0.02900
C 	C 	0.56797 0.47074 0.72140 0.01500
H 	H 	0.55660 0.41430 0.70960 0.03800
N 	N 	0.71108 0.61017 0.08000 -0.20800
N 	N 	0.52871 0.52037 0.58020 -0.08500
C 	C 	0.55612 0.75387 0.24190 0.04600
H 	H 	0.57550 0.71480 0.35870 0.01300
C 	C 	0.47353 0.77309 0.24280 -0.07700
H 	H 	0.43760 0.74730 0.35750 0.05700
C 	C 	0.44419 0.83133 0.07100 -0.02900
H 	H 	0.38820 0.84500 0.06760 0.04000
C 	C 	0.49912 0.86896 0.90400 -0.00200
C 	C 	0.58182 0.84530 0.91490 0.01900
H 	H 	0.61910 0.86990 0.80200 0.02900
C 	C 	0.47074 0.93203 0.72140 0.01500
H 	H 	0.41430 0.94340 0.70960 0.03800
N 	N 	0.61017 0.78892 0.08000 -0.20800
N 	N 	0.52037 0.97129 0.58020 -0.08500
C 	C 	0.94388 0.74613 0.24190 0.04600
H 	H 	0.92450 0.78520 0.35870 0.01300
C 	C 	0.02647 0.72691 0.24280 -0.07900
H 	H 	0.06240 0.75270 0.35750 0.05700
C 	C 	0.05581 0.66867 0.07100 -0.02700
H 	H 	0.11180 0.65500 0.06760 0.04000
C 	C 	0.00088 0.63104 0.90400 -0.00400
C 	C 	0.91818 0.65470 0.91490 0.02100
H 	H 	0.88090 0.63010 0.80200 0.02800
C 	C 	0.02926 0.56797 0.72140 0.01500
H 	H 	0.08570 0.55660 0.70960 0.03800
N 	N 	0.88983 0.71108 0.08000 -0.20900
N 	N 	0.97963 0.52871 0.58020 -0.08500
Cl	Cl	0.25000 0.25000 0.41877 -0.64400
Cd	Cd	0.25000 0.25000 0.91827 1.22400
Cl	Cl	0.75000 0.75000 0.58123 -0.64400
Cd	Cd	0.75000 0.75000 0.08173 1.22400
