data_crystal

_cell_length_a 17.66900
_cell_length_b 8.53700
_cell_length_c 10.25200
_cell_angle_alpha 90.00000
_cell_angle_beta  103.42000
_cell_angle_gamma 90.00000

_symmetry_space_group_name_	'P 1'
_symmetry_space_group_name_H-M	'P 1'

loop_
_symmetry_equiv_pos_as_xyz
  x,y,z

loop_
_atom_site_label
_atom_site_type_symbol
_atom_site_fract_x
_atom_site_fract_y
_atom_site_fract_z
_atom_site_charge
P 	P 	0.29060 0.60210 0.88520 0.65400
Al	Al	0.32920 0.35060 0.68320 2.39500
O 	O 	0.30180 0.44950 0.81210 -0.70900
O 	O 	0.20610 0.65760 0.82220 -0.70700
O 	O 	0.42930 0.34400 0.71590 -0.71600
O 	O 	0.34860 0.72680 0.88170 -0.32800
O 	O 	0.29050 0.55080 0.03160 -0.69800
O 	O 	0.49510 0.13160 0.86800 -0.23300
P 	P 	0.79060 0.10210 0.88520 0.65300
Al	Al	0.82920 0.85060 0.68320 2.39600
O 	O 	0.80180 0.94950 0.81210 -0.70000
O 	O 	0.70610 0.15760 0.82220 -0.70200
O 	O 	0.92930 0.84400 0.71590 -0.66400
O 	O 	0.84860 0.22680 0.88170 -0.31500
O 	O 	0.79050 0.05080 0.03160 -0.69100
O 	O 	0.99510 0.63160 0.86800 -0.16200
P 	P 	0.70940 0.60210 0.61480 0.65900
Al	Al	0.67080 0.35060 0.81680 2.39600
O 	O 	0.69820 0.44950 0.68790 -0.70300
O 	O 	0.79390 0.65760 0.67780 -0.69600
O 	O 	0.57070 0.34400 0.78410 -0.71700
O 	O 	0.65140 0.72680 0.61830 -0.32700
O 	O 	0.70950 0.55080 0.46840 -0.69800
O 	O 	0.50490 0.13160 0.63200 -0.23100
P 	P 	0.20940 0.10210 0.61480 0.65800
Al	Al	0.17080 0.85060 0.81680 2.39600
O 	O 	0.19820 0.94950 0.68790 -0.70900
O 	O 	0.29390 0.15760 0.67780 -0.70300
O 	O 	0.07070 0.84400 0.78410 -0.72300
O 	O 	0.15140 0.22680 0.61830 -0.34200
O 	O 	0.20950 0.05080 0.46840 -0.70400
O 	O 	0.00490 0.63160 0.63200 -0.25300
P 	P 	0.70940 0.39790 0.11480 0.66300
Al	Al	0.67080 0.64940 0.31680 2.39600
O 	O 	0.69820 0.55050 0.18790 -0.70300
O 	O 	0.79390 0.34240 0.17780 -0.69500
O 	O 	0.57070 0.65600 0.28410 -0.71500
O 	O 	0.65140 0.27320 0.11830 -0.32500
O 	O 	0.70950 0.44920 0.96840 -0.70300
O 	O 	0.50490 0.86840 0.13200 -0.22900
P 	P 	0.20940 0.89790 0.11480 0.66100
Al	Al	0.17080 0.14940 0.31680 2.39600
O 	O 	0.19820 0.05050 0.18790 -0.70800
O 	O 	0.29390 0.84240 0.17780 -0.70200
O 	O 	0.07070 0.15600 0.28410 -0.72100
O 	O 	0.15140 0.77320 0.11830 -0.34000
O 	O 	0.20950 0.94920 0.96840 -0.70700
O 	O 	0.00490 0.36840 0.13200 -0.25000
P 	P 	0.29060 0.39790 0.38520 0.65900
Al	Al	0.32920 0.64940 0.18320 2.39600
O 	O 	0.30180 0.55050 0.31210 -0.70600
O 	O 	0.20610 0.34240 0.32220 -0.70600
O 	O 	0.42930 0.65600 0.21590 -0.71500
O 	O 	0.34860 0.27320 0.38170 -0.32700
O 	O 	0.29050 0.44920 0.53160 -0.70200
O 	O 	0.49510 0.86840 0.36800 -0.23000
P 	P 	0.79060 0.89790 0.38520 0.65900
Al	Al	0.82920 0.14940 0.18320 2.39600
O 	O 	0.80180 0.05050 0.31210 -0.70000
O 	O 	0.70610 0.84240 0.32220 -0.70100
O 	O 	0.92930 0.15600 0.21590 -0.66300
O 	O 	0.84860 0.77320 0.38170 -0.31300
O 	O 	0.79050 0.94920 0.53160 -0.69700
O 	O 	0.99510 0.36840 0.36800 -0.16000
P 	P 	0.50000 0.23330 0.75000 0.65100
P 	P 	0.00000 0.73330 0.75000 0.55700
P 	P 	0.50000 0.76670 0.25000 0.65100
P 	P 	0.00000 0.26670 0.25000 0.55700
