data_crystal

_cell_length_a 13.63280
_cell_length_b 14.40830
_cell_length_c 25.84600
_cell_angle_alpha 90.00000
_cell_angle_beta  90.00000
_cell_angle_gamma 109.81900

_symmetry_space_group_name_	'P 1'
_symmetry_space_group_name_H-M	'P 1'

loop_
_symmetry_equiv_pos_as_xyz
  x,y,z

loop_
_atom_site_label
_atom_site_type_symbol
_atom_site_fract_x
_atom_site_fract_y
_atom_site_fract_z
_atom_site_charge
Cd	Cd	0.63487 0.14435 0.92826 1.17100
Cd	Cd	0.63141 0.85379 0.00358 1.23300
Cd	Cd	0.73484 0.75313 0.90081 1.23300
Cd	Cd	0.75769 0.76013 0.09973 1.23100
Cd	Cd	0.35733 0.35191 0.24865 1.20800
Cd	Cd	0.86513 0.35565 0.42826 1.17200
Cd	Cd	0.86859 0.64621 0.50358 1.23200
Cd	Cd	0.76516 0.74687 0.40081 1.23100
Cd	Cd	0.74231 0.73987 0.59973 1.23100
Cd	Cd	0.14267 0.14809 0.74865 1.20700
Cd	Cd	0.36513 0.85565 0.07174 1.17000
Cd	Cd	0.36859 0.14621 0.99642 1.23200
Cd	Cd	0.26516 0.24687 0.09919 1.23200
Cd	Cd	0.24231 0.23987 0.90027 1.23000
Cd	Cd	0.64267 0.64809 0.75135 1.20700
Cd	Cd	0.13487 0.64435 0.57174 1.17100
Cd	Cd	0.13141 0.35379 0.49642 1.23200
Cd	Cd	0.23484 0.25313 0.59919 1.23100
Cd	Cd	0.25769 0.26013 0.40027 1.23100
Cd	Cd	0.85733 0.85191 0.25135 1.20700
H 	H 	0.94980 0.13730 0.98210 0.04000
H 	H 	0.66000 0.47160 0.97820 0.04900
H 	H 	0.73370 0.53730 0.89930 0.01300
H 	H 	0.83330 0.43770 0.90760 0.08100
H 	H 	0.14620 0.55170 0.84530 0.08300
H 	H 	0.23460 0.44290 0.84730 0.00100
H 	H 	0.05370 0.28880 0.95480 0.00200
H 	H 	0.95410 0.38680 0.95210 0.09300
H 	H 	0.08550 0.67430 0.88050 0.08500
H 	H 	0.98020 0.76830 0.87500 0.00600
H 	H 	0.86260 0.06350 0.28400 0.00600
H 	H 	0.76180 0.16110 0.28980 0.06300
H 	H 	0.46740 0.05180 0.20730 0.06100
H 	H 	0.37050 0.15450 0.20540 -0.01900
H 	H 	0.52700 0.30860 0.32120 0.00700
H 	H 	0.62740 0.21000 0.32580 0.05300
H 	H 	0.51470 0.93070 0.24770 0.06700
H 	H 	0.62100 0.83700 0.24550 -0.02800
H 	H 	0.55020 0.36270 0.48210 0.04400
H 	H 	0.84000 0.02840 0.47820 0.04800
H 	H 	0.76630 0.96270 0.39930 0.01000
H 	H 	0.66670 0.06230 0.40760 0.08500
H 	H 	0.35380 0.94830 0.34530 0.08400
H 	H 	0.26540 0.05710 0.34730 0.00000
H 	H 	0.44630 0.21120 0.45480 0.00400
H 	H 	0.54590 0.11320 0.45210 0.09000
H 	H 	0.41450 0.82570 0.38050 0.08800
H 	H 	0.51980 0.73170 0.37500 0.00500
H 	H 	0.63740 0.43650 0.78400 0.00800
H 	H 	0.73820 0.33890 0.78980 0.06000
H 	H 	0.03260 0.44820 0.70730 0.06400
H 	H 	0.12950 0.34550 0.70540 -0.02000
H 	H 	0.97300 0.19140 0.82120 0.00600
H 	H 	0.87260 0.29000 0.82580 0.05500
H 	H 	0.98530 0.56930 0.74770 0.06400
H 	H 	0.87900 0.66300 0.74550 -0.02700
H 	H 	0.05020 0.86270 0.01790 0.04000
H 	H 	0.34000 0.52840 0.02180 0.04900
H 	H 	0.26630 0.46270 0.10070 0.01300
H 	H 	0.16670 0.56230 0.09240 0.08100
H 	H 	0.85380 0.44830 0.15470 0.08300
H 	H 	0.76540 0.55710 0.15270 0.00100
H 	H 	0.94630 0.71120 0.04520 0.00200
H 	H 	0.04590 0.61320 0.04790 0.09300
H 	H 	0.91450 0.32570 0.11950 0.08500
H 	H 	0.01980 0.23170 0.12500 0.00600
H 	H 	0.13740 0.93650 0.71600 0.00600
H 	H 	0.23820 0.83890 0.71020 0.06300
H 	H 	0.53260 0.94820 0.79270 0.06100
H 	H 	0.62950 0.84550 0.79460 -0.01900
H 	H 	0.47300 0.69140 0.67880 0.00700
H 	H 	0.37260 0.79000 0.67420 0.05300
H 	H 	0.48530 0.06930 0.75230 0.06700
H 	H 	0.37900 0.16300 0.75450 -0.02800
H 	H 	0.44980 0.63730 0.51790 0.04400
H 	H 	0.16000 0.97160 0.52180 0.04800
H 	H 	0.23370 0.03730 0.60070 0.01000
H 	H 	0.33330 0.93770 0.59240 0.08500
H 	H 	0.64620 0.05170 0.65470 0.08400
H 	H 	0.73460 0.94290 0.65270 0.00000
H 	H 	0.55370 0.78880 0.54520 0.00400
H 	H 	0.45410 0.88680 0.54790 0.09000
H 	H 	0.58550 0.17430 0.61950 0.08800
H 	H 	0.48020 0.26830 0.62500 0.00500
H 	H 	0.36260 0.56350 0.21600 0.00800
H 	H 	0.26180 0.66110 0.21020 0.06000
H 	H 	0.96740 0.55180 0.29270 0.06400
H 	H 	0.87050 0.65450 0.29460 -0.02000
H 	H 	0.02700 0.80860 0.17880 0.00600
H 	H 	0.12740 0.71000 0.17420 0.05500
H 	H 	0.01470 0.43070 0.25230 0.06400
H 	H 	0.12100 0.33700 0.25450 -0.02700
C 	C 	0.02900 0.09720 0.03860 -0.12300
C 	C 	0.01880 0.05170 0.08690 -0.02200
C 	C 	0.91810 0.01000 0.10810 -0.06000
C 	C 	0.83040 0.01750 0.08230 -0.03200
C 	C 	0.84350 0.06850 0.03560 -0.10600
C 	C 	0.94170 0.10570 0.01400 0.05700
C 	C 	0.13050 0.13390 0.00920 0.37800
C 	C 	0.10910 0.03900 0.11790 0.32000
C 	C 	0.90470 0.95500 0.15880 0.33300
C 	C 	0.72240 0.97130 0.10570 0.28600
C 	C 	0.75630 0.08100 0.00330 0.36800
C 	C 	0.61020 0.53540 0.03720 -0.11200
C 	C 	0.56460 0.51710 0.08620 -0.01500
C 	C 	0.52670 0.41870 0.10420 -0.06600
C 	C 	0.53780 0.34210 0.07500 -0.04100
C 	C 	0.58930 0.36140 0.02770 -0.08400
C 	C 	0.62500 0.45810 0.00970 0.03800
C 	C 	0.64150 0.63330 0.01060 0.36600
C 	C 	0.54720 0.59840 0.11960 0.31500
C 	C 	0.46980 0.39890 0.15550 0.34300
C 	C 	0.49580 0.23660 0.09510 0.30800
C 	C 	0.60660 0.28510 0.99210 0.33300
C 	C 	0.80580 0.56570 0.89660 0.06700
C 	C 	0.86460 0.50470 0.90090 -0.12200
C 	C 	0.97220 0.54650 0.89490 0.05100
C 	C 	0.03750 0.48080 0.89830 0.07000
C 	C 	0.12430 0.49730 0.86720 -0.13700
C 	C 	0.17760 0.43170 0.86920 0.07800
C 	C 	0.07140 0.34090 0.93130 0.08600
C 	C 	0.01200 0.40060 0.93060 -0.15200
C 	C 	0.01400 0.64500 0.88510 -0.12600
C 	C 	0.95020 0.70130 0.88210 0.06600
C 	C 	0.79170 0.03630 0.27690 0.08700
C 	C 	0.73200 0.09560 0.27960 -0.12800
C 	C 	0.62680 0.05770 0.26690 0.07000
C 	C 	0.56040 0.12110 0.26630 0.04500
C 	C 	0.48150 0.10410 0.23040 -0.11200
C 	C 	0.42390 0.16650 0.22960 0.07500
C 	C 	0.51580 0.25720 0.29760 0.05700
C 	C 	0.57590 0.19810 0.30060 -0.11100
C 	C 	0.58540 0.95930 0.25500 -0.13500
C 	C 	0.64980 0.90350 0.25400 0.08200
C 	C 	0.47100 0.40280 0.53860 -0.11500
C 	C 	0.48120 0.44830 0.58690 -0.01900
C 	C 	0.58190 0.49000 0.60810 -0.06800
C 	C 	0.66960 0.48250 0.58230 -0.03800
C 	C 	0.65650 0.43150 0.53560 -0.10200
C 	C 	0.55830 0.39430 0.51400 0.04500
C 	C 	0.36950 0.36610 0.50920 0.37400
C 	C 	0.39090 0.46100 0.61790 0.32300
C 	C 	0.59530 0.54500 0.65880 0.33900
C 	C 	0.77760 0.52870 0.60570 0.29600
C 	C 	0.74370 0.41900 0.50330 0.36400
C 	C 	0.88980 0.96460 0.53720 -0.11600
C 	C 	0.93540 0.98290 0.58620 -0.01900
C 	C 	0.97330 0.08130 0.60420 -0.05600
C 	C 	0.96220 0.15790 0.57500 -0.03900
C 	C 	0.91070 0.13860 0.52770 -0.08600
C 	C 	0.87500 0.04190 0.50970 0.04500
C 	C 	0.85850 0.86670 0.51060 0.36700
C 	C 	0.95280 0.90160 0.61960 0.31000
C 	C 	0.03020 0.10110 0.65550 0.32900
C 	C 	0.00420 0.26340 0.59510 0.30200
C 	C 	0.89340 0.21490 0.49210 0.33500
C 	C 	0.69420 0.93430 0.39660 0.07100
C 	C 	0.63540 0.99530 0.40090 -0.13200
C 	C 	0.52780 0.95350 0.39490 0.05800
C 	C 	0.46250 0.01920 0.39830 0.06600
C 	C 	0.37570 0.00270 0.36720 -0.13700
C 	C 	0.32240 0.06830 0.36920 0.07800
C 	C 	0.42860 0.15910 0.43130 0.08300
C 	C 	0.48800 0.09940 0.43060 -0.14600
C 	C 	0.48600 0.85500 0.38510 -0.13500
C 	C 	0.54980 0.79870 0.38210 0.07200
C 	C 	0.70830 0.46370 0.77690 0.07800
C 	C 	0.76800 0.40440 0.77960 -0.12100
C 	C 	0.87320 0.44230 0.76690 0.06100
C 	C 	0.93960 0.37890 0.76630 0.05300
C 	C 	0.01850 0.39590 0.73040 -0.11900
C 	C 	0.07610 0.33350 0.72960 0.07800
C 	C 	0.98420 0.24280 0.79760 0.06400
C 	C 	0.92410 0.30190 0.80060 -0.11700
C 	C 	0.91460 0.54070 0.75500 -0.12600
C 	C 	0.85020 0.59650 0.75400 0.07900
C 	C 	0.97100 0.90280 0.96140 -0.12300
C 	C 	0.98120 0.94830 0.91310 -0.02200
C 	C 	0.08190 0.99000 0.89190 -0.06000
C 	C 	0.16960 0.98250 0.91770 -0.03200
C 	C 	0.15650 0.93150 0.96440 -0.10600
C 	C 	0.05830 0.89430 0.98600 0.05700
C 	C 	0.86950 0.86610 0.99080 0.37800
C 	C 	0.89090 0.96100 0.88210 0.32000
C 	C 	0.09530 0.04500 0.84120 0.33300
C 	C 	0.27760 0.02870 0.89430 0.28600
C 	C 	0.24370 0.91900 0.99670 0.36800
C 	C 	0.38980 0.46460 0.96280 -0.11200
C 	C 	0.43540 0.48290 0.91380 -0.01500
C 	C 	0.47330 0.58130 0.89580 -0.06600
C 	C 	0.46220 0.65790 0.92500 -0.04100
C 	C 	0.41070 0.63860 0.97230 -0.08400
C 	C 	0.37500 0.54190 0.99030 0.03800
C 	C 	0.35850 0.36670 0.98940 0.36600
C 	C 	0.45280 0.40160 0.88040 0.31500
C 	C 	0.53020 0.60110 0.84450 0.34300
C 	C 	0.50420 0.76340 0.90490 0.30800
C 	C 	0.39340 0.71490 0.00790 0.33300
C 	C 	0.19420 0.43430 0.10340 0.06700
C 	C 	0.13540 0.49530 0.09910 -0.12200
C 	C 	0.02780 0.45350 0.10510 0.05100
C 	C 	0.96250 0.51920 0.10170 0.07000
C 	C 	0.87570 0.50270 0.13280 -0.13700
C 	C 	0.82240 0.56830 0.13080 0.07800
C 	C 	0.92860 0.65910 0.06870 0.08600
C 	C 	0.98800 0.59940 0.06940 -0.15200
C 	C 	0.98600 0.35500 0.11490 -0.12600
C 	C 	0.04980 0.29870 0.11790 0.06600
C 	C 	0.20830 0.96370 0.72310 0.08700
C 	C 	0.26800 0.90440 0.72040 -0.12800
C 	C 	0.37320 0.94230 0.73310 0.07000
C 	C 	0.43960 0.87890 0.73370 0.04500
C 	C 	0.51850 0.89590 0.76960 -0.11200
C 	C 	0.57610 0.83350 0.77040 0.07500
C 	C 	0.48420 0.74280 0.70240 0.05700
C 	C 	0.42410 0.80190 0.69940 -0.11100
C 	C 	0.41460 0.04070 0.74500 -0.13500
C 	C 	0.35020 0.09650 0.74600 0.08200
C 	C 	0.52900 0.59720 0.46140 -0.11500
C 	C 	0.51880 0.55170 0.41310 -0.01900
C 	C 	0.41810 0.51000 0.39190 -0.06800
C 	C 	0.33040 0.51750 0.41770 -0.03800
C 	C 	0.34350 0.56850 0.46440 -0.10200
C 	C 	0.44170 0.60570 0.48600 0.04500
C 	C 	0.63050 0.63390 0.49080 0.37400
C 	C 	0.60910 0.53900 0.38210 0.32300
C 	C 	0.40470 0.45500 0.34120 0.33900
C 	C 	0.22240 0.47130 0.39430 0.29600
C 	C 	0.25630 0.58100 0.49670 0.36400
C 	C 	0.11020 0.03540 0.46280 -0.11600
C 	C 	0.06460 0.01710 0.41380 -0.01900
C 	C 	0.02670 0.91870 0.39580 -0.05600
C 	C 	0.03780 0.84210 0.42500 -0.03900
C 	C 	0.08930 0.86140 0.47230 -0.08600
C 	C 	0.12500 0.95810 0.49030 0.04500
C 	C 	0.14150 0.13330 0.48940 0.36700
C 	C 	0.04720 0.09840 0.38040 0.31000
C 	C 	0.96980 0.89890 0.34450 0.32900
C 	C 	0.99580 0.73660 0.40490 0.30200
C 	C 	0.10660 0.78510 0.50790 0.33500
C 	C 	0.30580 0.06570 0.60340 0.07100
C 	C 	0.36460 0.00470 0.59910 -0.13200
C 	C 	0.47220 0.04650 0.60510 0.05800
C 	C 	0.53750 0.98080 0.60170 0.06600
C 	C 	0.62430 0.99730 0.63280 -0.13700
C 	C 	0.67760 0.93170 0.63080 0.07800
C 	C 	0.57140 0.84090 0.56870 0.08300
C 	C 	0.51200 0.90060 0.56940 -0.14600
C 	C 	0.51400 0.14500 0.61490 -0.13500
C 	C 	0.45020 0.20130 0.61790 0.07200
C 	C 	0.29170 0.53630 0.22310 0.07800
C 	C 	0.23200 0.59560 0.22040 -0.12100
C 	C 	0.12680 0.55770 0.23310 0.06100
C 	C 	0.06040 0.62110 0.23370 0.05300
C 	C 	0.98150 0.60410 0.26960 -0.11900
C 	C 	0.92390 0.66650 0.27040 0.07800
C 	C 	0.01580 0.75720 0.20240 0.06400
C 	C 	0.07590 0.69810 0.19940 -0.11700
C 	C 	0.08540 0.45930 0.24500 -0.12600
C 	C 	0.14980 0.40350 0.24600 0.07900
N 	N 	0.84610 0.66340 0.88884 -0.23100
N 	N 	0.15330 0.35270 0.90050 -0.23400
N 	N 	0.75200 0.94070 0.26453 -0.25100
N 	N 	0.44070 0.24300 0.26154 -0.24500
N 	N 	0.65390 0.83660 0.38884 -0.23300
N 	N 	0.34670 0.14730 0.40050 -0.23400
N 	N 	0.74800 0.55930 0.76453 -0.24700
N 	N 	0.05930 0.25700 0.76154 -0.24800
N 	N 	0.15390 0.33660 0.11116 -0.23100
N 	N 	0.84670 0.64730 0.09950 -0.23400
N 	N 	0.24800 0.05930 0.73547 -0.25100
N 	N 	0.55930 0.75700 0.73846 -0.24500
N 	N 	0.34610 0.16340 0.61116 -0.23300
N 	N 	0.65330 0.85270 0.59950 -0.23400
N 	N 	0.25200 0.44070 0.23547 -0.24700
N 	N 	0.94070 0.74300 0.23846 -0.24800
O 	O 	0.12950 0.16570 0.96472 -0.44500
O 	O 	0.21070 0.12900 0.03264 -0.53200
O 	O 	0.16800 0.11440 0.14198 -0.40700
O 	O 	0.11370 0.95580 0.12060 -0.27300
O 	O 	0.95640 0.99400 0.19681 -0.35200
O 	O 	0.83810 0.86730 0.16053 -0.53300
O 	O 	0.69050 0.02030 0.13555 -0.25300
O 	O 	0.67100 0.88140 0.09153 -0.48400
O 	O 	0.66640 0.01630 0.00458 -0.50200
O 	O 	0.77740 0.15500 0.97550 -0.42400
O 	O 	0.67480 0.63920 0.96541 -0.43200
O 	O 	0.62980 0.70540 0.03564 -0.52900
O 	O 	0.62630 0.65570 0.14367 -0.40300
O 	O 	0.45740 0.59940 0.12202 -0.26900
O 	O 	0.51050 0.44660 0.19409 -0.34500
O 	O 	0.38020 0.33190 0.15807 -0.53000
O 	O 	0.55280 0.20490 0.12076 -0.25300
O 	O 	0.40120 0.18500 0.08296 -0.49100
O 	O 	0.54320 0.19520 0.99462 -0.53000
O 	O 	0.68030 0.31020 0.96140 -0.38400
O 	O 	0.37050 0.33430 0.46472 -0.44200
O 	O 	0.28930 0.37100 0.53264 -0.53100
O 	O 	0.33200 0.38560 0.64198 -0.40700
O 	O 	0.38630 0.54420 0.62060 -0.27700
O 	O 	0.54360 0.50600 0.69681 -0.35000
O 	O 	0.66190 0.63270 0.66053 -0.53400
O 	O 	0.80950 0.47970 0.63555 -0.25900
O 	O 	0.82900 0.61860 0.59153 -0.48600
O 	O 	0.83360 0.48370 0.50458 -0.50300
O 	O 	0.72260 0.34500 0.47550 -0.42200
O 	O 	0.82520 0.86080 0.46541 -0.43400
O 	O 	0.87020 0.79460 0.53564 -0.52900
O 	O 	0.87370 0.84430 0.64367 -0.40300
O 	O 	0.04260 0.90060 0.62202 -0.26400
O 	O 	0.98950 0.05340 0.69409 -0.33700
O 	O 	0.11980 0.16810 0.65807 -0.52800
O 	O 	0.94720 0.29510 0.62076 -0.24900
O 	O 	0.09880 0.31500 0.58296 -0.49000
O 	O 	0.95680 0.30480 0.49462 -0.52800
O 	O 	0.81970 0.18980 0.46140 -0.38400
O 	O 	0.87050 0.83430 0.03528 -0.44500
O 	O 	0.78930 0.87100 0.96736 -0.53200
O 	O 	0.83200 0.88560 0.85802 -0.40700
O 	O 	0.88630 0.04420 0.87940 -0.27300
O 	O 	0.04360 0.00600 0.80319 -0.35200
O 	O 	0.16190 0.13270 0.83947 -0.53300
O 	O 	0.30950 0.97970 0.86445 -0.25300
O 	O 	0.32900 0.11860 0.90847 -0.48400
O 	O 	0.33360 0.98370 0.99542 -0.50200
O 	O 	0.22260 0.84500 0.02450 -0.42400
O 	O 	0.32520 0.36080 0.03459 -0.43200
O 	O 	0.37020 0.29460 0.96436 -0.52900
O 	O 	0.37370 0.34430 0.85633 -0.40300
O 	O 	0.54260 0.40060 0.87798 -0.26900
O 	O 	0.48950 0.55340 0.80591 -0.34500
O 	O 	0.61980 0.66810 0.84193 -0.53000
O 	O 	0.44720 0.79510 0.87924 -0.25300
O 	O 	0.59880 0.81500 0.91704 -0.49100
O 	O 	0.45680 0.80480 0.00538 -0.53000
O 	O 	0.31970 0.68980 0.03860 -0.38400
O 	O 	0.62950 0.66570 0.53528 -0.44200
O 	O 	0.71070 0.62900 0.46736 -0.53100
O 	O 	0.66800 0.61440 0.35802 -0.40700
O 	O 	0.61370 0.45580 0.37940 -0.27700
O 	O 	0.45640 0.49400 0.30319 -0.35000
O 	O 	0.33810 0.36730 0.33947 -0.53400
O 	O 	0.19050 0.52030 0.36445 -0.25900
O 	O 	0.17100 0.38140 0.40847 -0.48600
O 	O 	0.16640 0.51630 0.49542 -0.50300
O 	O 	0.27740 0.65500 0.52450 -0.42200
O 	O 	0.17480 0.13920 0.53459 -0.43400
O 	O 	0.12980 0.20540 0.46436 -0.52900
O 	O 	0.12630 0.15570 0.35633 -0.40300
O 	O 	0.95740 0.09940 0.37798 -0.26400
O 	O 	0.01050 0.94660 0.30591 -0.33700
O 	O 	0.88020 0.83190 0.34193 -0.52800
O 	O 	0.05280 0.70490 0.37924 -0.24900
O 	O 	0.90120 0.68500 0.41704 -0.49000
O 	O 	0.04320 0.69520 0.50538 -0.52800
O 	O 	0.18030 0.81020 0.53860 -0.38400
