data_crystal

_cell_length_a 23.44150
_cell_length_b 23.44150
_cell_length_c 23.44150
_cell_angle_alpha 83.11960
_cell_angle_beta  83.11960
_cell_angle_gamma 83.11960

_symmetry_space_group_name_	'P 1'
_symmetry_space_group_name_H-M	'P 1'

loop_
_symmetry_equiv_pos_as_xyz
  x,y,z

loop_
_atom_site_label
_atom_site_type_symbol
_atom_site_fract_x
_atom_site_fract_y
_atom_site_fract_z
_atom_site_charge
In	In	0.64291 0.70585 0.77305 1.98200
In	In	0.22691 0.29411 0.35702 1.98400
In	In	0.77305 0.64291 0.70585 1.98300
In	In	0.35702 0.22691 0.29411 1.98400
In	In	0.70585 0.77305 0.64291 1.98300
In	In	0.29411 0.35702 0.22691 1.98400
P 	P 	0.64942 0.49501 0.09825 0.53300
P 	P 	0.09825 0.64942 0.49501 0.53300
P 	P 	0.49501 0.09825 0.64942 0.53300
H 	H 	0.70080 0.66840 0.94410 -0.00900
H 	H 	0.82170 0.55660 0.87260 -0.03500
H 	H 	0.72220 0.62030 0.03710 0.12200
H 	H 	0.84770 0.52030 0.96150 0.12200
H 	H 	0.87830 0.51610 0.04460 0.03300
H 	H 	0.95520 0.47050 0.11470 0.03300
H 	H 	0.80170 0.43130 0.25760 0.06800
H 	H 	0.89700 0.40930 0.27490 0.02500
H 	H 	0.79030 0.56010 0.23950 0.04300
H 	H 	0.96320 0.34030 0.26660 0.12900
H 	H 	0.02720 0.45440 0.14460 0.13600
H 	H 	0.60220 0.48610 0.33870 0.06300
H 	H 	0.65110 0.53230 0.39330 0.07500
H 	H 	0.79640 0.59730 0.32640 0.06400
H 	H 	0.05830 0.30610 0.28400 -0.03000
H 	H 	0.11930 0.41680 0.16300 -0.03800
H 	H 	0.59830 0.36520 0.31320 0.07800
H 	H 	0.54270 0.48190 0.18070 0.09800
H 	H 	0.52130 0.30750 0.31320 0.01300
H 	H 	0.45650 0.42370 0.18080 0.03000
H 	H 	0.76040 0.51080 0.46270 0.07100
H 	H 	0.72520 0.67630 0.38430 0.07000
H 	H 	0.76410 0.55330 0.55180 0.01400
H 	H 	0.72570 0.71540 0.47490 0.01200
H 	H 	0.94410 0.70080 0.66840 -0.00900
H 	H 	0.87260 0.82170 0.55660 -0.03500
H 	H 	0.03710 0.72220 0.62030 0.12200
H 	H 	0.96150 0.84770 0.52030 0.12200
H 	H 	0.04460 0.87830 0.51610 0.03300
H 	H 	0.11470 0.95520 0.47050 0.03300
H 	H 	0.25760 0.80170 0.43130 0.06800
H 	H 	0.27490 0.89700 0.40930 0.02500
H 	H 	0.23950 0.79030 0.56010 0.04300
H 	H 	0.26660 0.96320 0.34030 0.12900
H 	H 	0.14460 0.02720 0.45440 0.13600
H 	H 	0.33870 0.60220 0.48610 0.06300
H 	H 	0.39330 0.65110 0.53230 0.07500
H 	H 	0.32640 0.79640 0.59730 0.06400
H 	H 	0.28400 0.05830 0.30610 -0.03000
H 	H 	0.16300 0.11930 0.41680 -0.03800
H 	H 	0.31320 0.59830 0.36520 0.07800
H 	H 	0.18070 0.54270 0.48190 0.09800
H 	H 	0.31320 0.52130 0.30750 0.01300
H 	H 	0.18080 0.45650 0.42370 0.03000
H 	H 	0.46270 0.76040 0.51080 0.07100
H 	H 	0.38430 0.72520 0.67630 0.07000
H 	H 	0.55180 0.76410 0.55330 0.01400
H 	H 	0.47490 0.72570 0.71540 0.01200
H 	H 	0.66840 0.94410 0.70080 -0.00900
H 	H 	0.55660 0.87260 0.82170 -0.03500
H 	H 	0.62030 0.03710 0.72220 0.12200
H 	H 	0.52030 0.96150 0.84770 0.12200
H 	H 	0.51610 0.04460 0.87830 0.03300
H 	H 	0.47050 0.11470 0.95520 0.03300
H 	H 	0.43130 0.25760 0.80170 0.06800
H 	H 	0.40930 0.27490 0.89700 0.02500
H 	H 	0.56010 0.23950 0.79030 0.04300
H 	H 	0.34030 0.26660 0.96320 0.12900
H 	H 	0.45440 0.14460 0.02720 0.13600
H 	H 	0.48610 0.33870 0.60220 0.06300
H 	H 	0.53230 0.39330 0.65110 0.07500
H 	H 	0.59730 0.32640 0.79640 0.06400
H 	H 	0.30610 0.28400 0.05830 -0.03000
H 	H 	0.41680 0.16300 0.11930 -0.03800
H 	H 	0.36520 0.31320 0.59830 0.07800
H 	H 	0.48190 0.18070 0.54270 0.09800
H 	H 	0.30750 0.31320 0.52130 0.01300
H 	H 	0.42370 0.18080 0.45650 0.03000
H 	H 	0.51080 0.46270 0.76040 0.07100
H 	H 	0.67630 0.38430 0.72520 0.07000
H 	H 	0.55330 0.55180 0.76410 0.01400
H 	H 	0.71540 0.47490 0.72570 0.01200
C 	C 	0.74810 0.65020 0.84090 0.50100
C 	C 	0.76280 0.61600 0.90180 -0.23100
C 	C 	0.72980 0.63660 0.94780 0.13700
C 	C 	0.80190 0.57150 0.90630 0.20200
C 	C 	0.74220 0.60670 0.00280 -0.20600
C 	C 	0.81420 0.54730 0.95900 -0.27500
C 	C 	0.78250 0.55860 0.00700 0.21700
C 	C 	0.79020 0.52710 0.06350 -0.12400
C 	C 	0.84840 0.50890 0.07480 -0.01200
C 	C 	0.75060 0.52170 0.11060 0.19800
C 	C 	0.86380 0.48120 0.12700 -0.01400
C 	C 	0.75860 0.49680 0.16230 -0.07300
C 	C 	0.81730 0.46960 0.17400 0.04900
C 	C 	0.92320 0.46050 0.14140 -0.02700
C 	C 	0.71290 0.49410 0.21190 -0.00900
C 	C 	0.83160 0.43990 0.22780 -0.09100
C 	C 	0.93290 0.42730 0.19220 -0.07200
C 	C 	0.71880 0.51800 0.26700 -0.02700
C 	C 	0.66540 0.46940 0.20730 0.13300
C 	C 	0.88800 0.42360 0.23690 0.00600
C 	C 	0.99170 0.39930 0.20310 0.23100
C 	C 	0.67610 0.51510 0.30990 0.07800
C 	C 	0.76260 0.55250 0.27180 -0.01400
C 	C 	0.62330 0.46160 0.25450 -0.04600
C 	C 	0.99560 0.35660 0.24550 -0.29500
C 	C 	0.03350 0.42340 0.17380 -0.31300
C 	C 	0.63100 0.48850 0.30660 -0.09300
C 	C 	0.68010 0.53750 0.36180 -0.13300
C 	C 	0.76580 0.57540 0.32250 -0.09200
C 	C 	0.57400 0.43090 0.25290 0.09200
C 	C 	0.05250 0.33840 0.25600 0.21400
C 	C 	0.08760 0.40190 0.18680 0.22600
C 	C 	0.72400 0.56580 0.36670 0.05100
C 	C 	0.56900 0.37850 0.28840 -0.13100
C 	C 	0.53610 0.44970 0.20840 -0.10800
C 	C 	0.09940 0.36170 0.23050 -0.29400
C 	C 	0.73420 0.59000 0.41930 0.04400
C 	C 	0.52140 0.34330 0.28930 0.08000
C 	C 	0.48350 0.41390 0.20860 0.03600
C 	C 	0.15919 0.34903 0.25181 0.53200
C 	C 	0.75170 0.55110 0.46530 -0.11800
C 	C 	0.72980 0.65150 0.41890 -0.11800
C 	C 	0.47721 0.36131 0.25641 -0.16900
C 	C 	0.75520 0.57810 0.51820 0.07100
C 	C 	0.73290 0.67480 0.47320 0.07600
C 	C 	0.42305 0.33465 0.25275 0.55300
C 	C 	0.74634 0.63854 0.52284 -0.19500
C 	C 	0.74777 0.66257 0.57697 0.54700
C 	C 	0.84090 0.74810 0.65020 0.50100
C 	C 	0.90180 0.76280 0.61600 -0.23100
C 	C 	0.94780 0.72980 0.63660 0.13700
C 	C 	0.90630 0.80190 0.57150 0.20200
C 	C 	0.00280 0.74220 0.60670 -0.20600
C 	C 	0.95900 0.81420 0.54730 -0.27500
C 	C 	0.00700 0.78250 0.55860 0.21700
C 	C 	0.06350 0.79020 0.52710 -0.12400
C 	C 	0.07480 0.84840 0.50890 -0.01200
C 	C 	0.11060 0.75060 0.52170 0.19800
C 	C 	0.12700 0.86380 0.48120 -0.01400
C 	C 	0.16230 0.75860 0.49680 -0.07300
C 	C 	0.17400 0.81730 0.46960 0.04900
C 	C 	0.14140 0.92320 0.46050 -0.02700
C 	C 	0.21190 0.71290 0.49410 -0.00900
C 	C 	0.22780 0.83160 0.43990 -0.09100
C 	C 	0.19220 0.93290 0.42730 -0.07200
C 	C 	0.26700 0.71880 0.51800 -0.02700
C 	C 	0.20730 0.66540 0.46940 0.13300
C 	C 	0.23690 0.88800 0.42360 0.00600
C 	C 	0.20310 0.99170 0.39930 0.23100
C 	C 	0.30990 0.67610 0.51510 0.07800
C 	C 	0.27180 0.76260 0.55250 -0.01400
C 	C 	0.25450 0.62330 0.46160 -0.04600
C 	C 	0.24550 0.99560 0.35660 -0.29500
C 	C 	0.17380 0.03350 0.42340 -0.31300
C 	C 	0.30660 0.63100 0.48850 -0.09300
C 	C 	0.36180 0.68010 0.53750 -0.13300
C 	C 	0.32250 0.76580 0.57540 -0.09200
C 	C 	0.25290 0.57400 0.43090 0.09200
C 	C 	0.25600 0.05250 0.33840 0.21400
C 	C 	0.18680 0.08760 0.40190 0.22600
C 	C 	0.36670 0.72400 0.56580 0.05100
C 	C 	0.28840 0.56900 0.37850 -0.13100
C 	C 	0.20840 0.53610 0.44970 -0.10800
C 	C 	0.23050 0.09940 0.36170 -0.29400
C 	C 	0.41930 0.73420 0.59000 0.04400
C 	C 	0.28930 0.52140 0.34330 0.08000
C 	C 	0.20860 0.48350 0.41390 0.03600
C 	C 	0.25181 0.15919 0.34903 0.53200
C 	C 	0.46530 0.75170 0.55110 -0.11800
C 	C 	0.41890 0.72980 0.65150 -0.11800
C 	C 	0.25641 0.47721 0.36131 -0.16900
C 	C 	0.51820 0.75520 0.57810 0.07100
C 	C 	0.47320 0.73290 0.67480 0.07600
C 	C 	0.25275 0.42305 0.33465 0.55300
C 	C 	0.52284 0.74634 0.63854 -0.19500
C 	C 	0.57697 0.74777 0.66257 0.54700
C 	C 	0.65020 0.84090 0.74810 0.50100
C 	C 	0.61600 0.90180 0.76280 -0.23100
C 	C 	0.63660 0.94780 0.72980 0.13700
C 	C 	0.57150 0.90630 0.80190 0.20200
C 	C 	0.60670 0.00280 0.74220 -0.20600
C 	C 	0.54730 0.95900 0.81420 -0.27500
C 	C 	0.55860 0.00700 0.78250 0.21700
C 	C 	0.52710 0.06350 0.79020 -0.12400
C 	C 	0.50890 0.07480 0.84840 -0.01200
C 	C 	0.52170 0.11060 0.75060 0.19800
C 	C 	0.48120 0.12700 0.86380 -0.01400
C 	C 	0.49680 0.16230 0.75860 -0.07300
C 	C 	0.46960 0.17400 0.81730 0.04900
C 	C 	0.46050 0.14140 0.92320 -0.02700
C 	C 	0.49410 0.21190 0.71290 -0.00900
C 	C 	0.43990 0.22780 0.83160 -0.09100
C 	C 	0.42730 0.19220 0.93290 -0.07200
C 	C 	0.51800 0.26700 0.71880 -0.02700
C 	C 	0.46940 0.20730 0.66540 0.13300
C 	C 	0.42360 0.23690 0.88800 0.00600
C 	C 	0.39930 0.20310 0.99170 0.23100
C 	C 	0.51510 0.30990 0.67610 0.07800
C 	C 	0.55250 0.27180 0.76260 -0.01400
C 	C 	0.46160 0.25450 0.62330 -0.04600
C 	C 	0.35660 0.24550 0.99560 -0.29500
C 	C 	0.42340 0.17380 0.03350 -0.31300
C 	C 	0.48850 0.30660 0.63100 -0.09300
C 	C 	0.53750 0.36180 0.68010 -0.13300
C 	C 	0.57540 0.32250 0.76580 -0.09200
C 	C 	0.43090 0.25290 0.57400 0.09200
C 	C 	0.33840 0.25600 0.05250 0.21400
C 	C 	0.40190 0.18680 0.08760 0.22600
C 	C 	0.56580 0.36670 0.72400 0.05100
C 	C 	0.37850 0.28840 0.56900 -0.13100
C 	C 	0.44970 0.20840 0.53610 -0.10800
C 	C 	0.36170 0.23050 0.09940 -0.29400
C 	C 	0.59000 0.41930 0.73420 0.04400
C 	C 	0.34330 0.28930 0.52140 0.08000
C 	C 	0.41390 0.20860 0.48350 0.03600
C 	C 	0.34903 0.25181 0.15919 0.53200
C 	C 	0.55110 0.46530 0.75170 -0.11800
C 	C 	0.65150 0.41890 0.72980 -0.11800
C 	C 	0.36131 0.25641 0.47721 -0.16900
C 	C 	0.57810 0.51820 0.75520 0.07100
C 	C 	0.67480 0.47320 0.73290 0.07600
C 	C 	0.33465 0.25275 0.42305 0.55300
C 	C 	0.63854 0.52284 0.74634 -0.19500
C 	C 	0.66257 0.57697 0.74777 0.54700
O 	O 	0.70232 0.68259 0.83902 -0.60600
O 	O 	0.77248 0.63636 0.61372 -0.64200
O 	O 	0.72076 0.71362 0.57702 -0.60400
O 	O 	0.78065 0.63505 0.79836 -0.60700
O 	O 	0.69461 0.54141 0.10011 -0.27100
O 	O 	0.66072 0.44892 0.15482 -0.24600
O 	O 	0.59475 0.52705 0.10435 -0.26200
O 	O 	0.66920 0.46260 0.05310 -0.25200
O 	O 	0.16073 0.31714 0.29788 -0.61300
O 	O 	0.20203 0.36536 0.21964 -0.61600
O 	O 	0.42325 0.28609 0.27876 -0.62200
O 	O 	0.38610 0.36293 0.22773 -0.63800
O 	O 	0.83902 0.70232 0.68259 -0.60600
O 	O 	0.61372 0.77248 0.63636 -0.64200
O 	O 	0.57702 0.72076 0.71362 -0.60400
O 	O 	0.79836 0.78065 0.63505 -0.60700
O 	O 	0.10011 0.69461 0.54141 -0.27100
O 	O 	0.15482 0.66072 0.44892 -0.24600
O 	O 	0.10435 0.59475 0.52705 -0.26200
O 	O 	0.05310 0.66920 0.46260 -0.25200
O 	O 	0.29788 0.16073 0.31714 -0.61300
O 	O 	0.21964 0.20203 0.36536 -0.61600
O 	O 	0.27876 0.42325 0.28609 -0.62200
O 	O 	0.22773 0.38610 0.36293 -0.63800
O 	O 	0.68259 0.83902 0.70232 -0.60600
O 	O 	0.63636 0.61372 0.77248 -0.64200
O 	O 	0.71362 0.57702 0.72076 -0.60400
O 	O 	0.63505 0.79836 0.78065 -0.60700
O 	O 	0.54141 0.10011 0.69461 -0.27100
O 	O 	0.44892 0.15482 0.66072 -0.24600
O 	O 	0.52705 0.10435 0.59475 -0.26200
O 	O 	0.46260 0.05310 0.66920 -0.25200
O 	O 	0.31714 0.29788 0.16073 -0.61300
O 	O 	0.36536 0.21964 0.20203 -0.61600
O 	O 	0.28609 0.27876 0.42325 -0.62200
O 	O 	0.36293 0.22773 0.38610 -0.63800
O 	O 	0.70853 0.70853 0.70853 -1.05300
O 	O 	0.29188 0.29188 0.29188 -1.05200
