data_crystal

_cell_length_a 9.85230
_cell_length_b 19.52440
_cell_length_c 19.66990
_cell_angle_alpha 89.71500
_cell_angle_beta  83.05800
_cell_angle_gamma 87.77600

_symmetry_space_group_name_	'P 1'
_symmetry_space_group_name_H-M	'P 1'

loop_
_symmetry_equiv_pos_as_xyz
  x,y,z

loop_
_atom_site_label
_atom_site_type_symbol
_atom_site_fract_x
_atom_site_fract_y
_atom_site_fract_z
_atom_site_charge
Cd	Cd	0.99924 0.15416 0.07684 1.22300
Cd	Cd	0.06366 0.57392 0.34431 1.22000
C 	C 	0.98390 0.22230 0.19600 0.40500
C 	C 	0.98570 0.25870 0.26380 -0.35400
C 	C 	0.00550 0.32930 0.26630 0.21100
H 	H 	0.01590 0.35530 0.22630 -0.05400
C 	C 	0.00940 0.35990 0.32990 -0.43900
C 	C 	0.99710 0.32010 0.39020 0.52500
H 	H 	0.00010 0.34110 0.43240 -0.21200
C 	C 	0.98070 0.25080 0.38740 -0.80700
C 	C 	0.97070 0.22040 0.32370 0.42300
H 	H 	0.95380 0.17400 0.32160 -0.21800
C 	C 	0.03340 0.43440 0.33260 0.41700
C 	C 	0.97440 0.20760 0.45240 1.59300
C 	C 	0.98400 0.13210 0.44260 -1.80800
H 	H 	0.06640 0.11970 0.41340 0.41500
H 	H 	0.90630 0.11790 0.42180 0.43600
H 	H 	0.98510 0.10990 0.48620 0.44900
C 	C 	0.09200 0.22210 0.49160 -2.04600
H 	H 	0.09180 0.27030 0.50120 0.62000
H 	H 	0.17660 0.20840 0.46480 0.55500
H 	H 	0.08290 0.19700 0.53390 0.55500
C 	C 	0.84600 0.22740 0.49700 -2.13200
H 	H 	0.84070 0.27630 0.50300 0.65600
H 	H 	0.84670 0.20550 0.54080 0.60200
H 	H 	0.76890 0.21330 0.47600 0.59200
C 	C 	0.75240 0.08470 0.08370 0.39500
C 	C 	0.62610 0.04480 0.08940 -0.44500
C 	C 	0.50000 0.07330 0.07890 0.35500
H 	H 	0.49210 0.11950 0.06760 -0.11300
C 	C 	0.38720 0.03480 0.08490 -0.48700
C 	C 	0.40130 0.96590 0.10350 0.56400
H 	H 	0.32410 0.93950 0.10620 -0.22100
C 	C 	0.52070 0.93490 0.11790 -0.91700
C 	C 	0.63750 0.97490 0.10820 0.49700
H 	H 	0.72270 0.95520 0.11410 -0.20200
C 	C 	0.24880 0.06280 0.07360 0.45100
C 	C 	0.40700 0.83210 0.17030 -2.66000
H 	H 	0.33530 0.84400 0.14280 0.81200
H 	H 	0.38390 0.85110 0.21540 0.74100
H 	H 	0.41700 0.78320 0.17340 0.78800
C 	C 	0.55800 0.81910 0.07190 -1.91900
H 	H 	0.64160 0.83270 0.04600 0.58900
H 	H 	0.48310 0.82830 0.04580 0.58700
H 	H 	0.56450 0.77100 0.08180 0.55400
C 	C 	0.66800 0.83330 0.15830 -2.36500
H 	H 	0.74110 0.85080 0.12680 0.72400
H 	H 	0.67250 0.78410 0.15650 0.70300
H 	H 	0.67830 0.84800 0.20380 0.66800
C 	C 	0.79480 0.58270 0.41200 0.42100
C 	C 	0.65710 0.58910 0.45340 -0.39900
C 	C 	0.54050 0.57770 0.42400 0.31100
H 	H 	0.54700 0.56580 0.37800 -0.09200
C 	C 	0.41210 0.58380 0.46280 -0.41100
C 	C 	0.40480 0.60400 0.53240 0.52900
H 	H 	0.31970 0.60740 0.55860 -0.21300
C 	C 	0.51860 0.61850 0.56210 -0.89700
C 	C 	0.65110 0.60800 0.52140 0.46500
H 	H 	0.73120 0.61410 0.54090 -0.17900
C 	C 	0.28020 0.57120 0.43550 0.45800
C 	C 	0.50200 0.64140 0.63790 2.08500
C 	C 	0.63300 0.64460 0.66840 -2.87400
H 	H 	0.69320 0.60710 0.65150 0.88700
H 	H 	0.61450 0.64160 0.71740 0.85500
H 	H 	0.67490 0.68710 0.65600 0.85300
C 	C 	0.42200 0.58640 0.67730 -2.50700
H 	H 	0.34150 0.57810 0.65630 0.77900
H 	H 	0.39680 0.60120 0.72370 0.74100
H 	H 	0.47810 0.54490 0.67700 0.76700
C 	C 	0.40000 0.69940 0.65130 -2.70600
H 	H 	0.31460 0.68690 0.63740 0.82500
H 	H 	0.43250 0.73890 0.62580 0.75600
H 	H 	0.38820 0.71000 0.69930 0.79200
C 	C 	0.06680 0.69340 0.27400 0.52300
C 	C 	0.04860 0.75950 0.23810 -0.77500
C 	C 	0.03410 0.81960 0.27570 1.11600
H 	H 	0.03080 0.81650 0.32300 -0.46600
C 	C 	0.02420 0.88510 0.24640 -1.94500
C 	C 	0.04250 0.76420 0.16800 0.64000
H 	H 	0.05080 0.72480 0.14110 -0.18700
C 	C 	0.02410 0.82700 0.13880 -0.80500
C 	C 	0.01610 0.88590 0.17500 1.12800
H 	H 	0.00520 0.92750 0.15270 -0.46000
C 	C 	0.00760 0.83230 0.06250 0.47800
C 	C 	0.01110 0.95010 0.28840 4.06300
C 	C 	0.11900 0.00020 0.25930 -4.34400
H 	H 	0.11600 0.00500 0.21090 1.30500
H 	H 	0.20770 0.98290 0.26760 1.25400
H 	H 	0.09980 0.04400 0.28100 1.24000
C 	C 	0.88900 0.99350 0.27790 -4.48700
H 	H 	0.88490 0.99950 0.22970 1.36300
H 	H 	0.89490 0.03740 0.29890 1.28600
H 	H 	0.80830 0.97180 0.29820 1.27800
C 	C 	0.01200 0.94430 0.36010 -5.64900
H 	H 	0.09190 0.91820 0.36950 1.62200
H 	H 	0.93150 0.92160 0.37960 1.63500
H 	H 	0.01210 0.98920 0.37970 1.60100
O 	O 	0.97210 0.16020 0.19650 -0.50200
O 	O 	0.99700 0.25640 0.14110 -0.41400
O 	O 	0.04800 0.45840 0.39230 -0.54900
O 	O 	0.04550 0.47130 0.28120 -0.44200
O 	O 	0.73910 0.14940 0.07470 -0.41000
O 	O 	0.86910 0.05440 0.08850 -0.56500
O 	O 	0.16160 0.01940 0.06490 -0.54100
O 	O 	0.22470 0.12720 0.07280 -0.51500
O 	O 	0.79850 0.57730 0.34980 -0.39300
O 	O 	0.90070 0.58640 0.44360 -0.52700
O 	O 	0.17980 0.56550 0.47850 -0.51900
O 	O 	0.27610 0.56960 0.37040 -0.49200
O 	O 	0.05990 0.63700 0.24090 -0.44000
O 	O 	0.07390 0.69350 0.33680 -0.49600
O 	O 	0.02170 0.77900 0.02570 -0.46000
O 	O 	0.98260 0.89070 0.03770 -0.53800
C 	C 	0.53420 0.85960 0.13910 1.85300
Cd	Cd	0.00076 0.84584 0.92316 1.22300
Cd	Cd	0.93634 0.42608 0.65569 1.23200
C 	C 	0.01610 0.77770 0.80400 0.40000
C 	C 	0.01430 0.74130 0.73620 -0.37100
C 	C 	0.99450 0.67070 0.73370 0.21900
H 	H 	0.98410 0.64470 0.77370 -0.02700
C 	C 	0.99060 0.64010 0.67010 -0.27400
C 	C 	0.00290 0.67990 0.60980 0.21900
H 	H 	0.99990 0.65890 0.56760 -0.05800
C 	C 	0.01930 0.74920 0.61260 -0.68000
C 	C 	0.02930 0.77960 0.67630 0.35200
H 	H 	0.04620 0.82600 0.67840 -0.19200
C 	C 	0.96660 0.56560 0.66740 0.36600
C 	C 	0.02560 0.79240 0.54760 1.46100
C 	C 	0.01600 0.86790 0.55740 -1.94700
H 	H 	0.93360 0.88030 0.58660 0.52000
H 	H 	0.09370 0.88210 0.57820 0.48300
H 	H 	0.01490 0.89010 0.51380 0.46800
C 	C 	0.90800 0.77790 0.50840 -1.82900
H 	H 	0.90820 0.72970 0.49880 0.57200
H 	H 	0.82340 0.79160 0.53520 0.50200
H 	H 	0.91710 0.80300 0.46610 0.50900
C 	C 	0.15400 0.77260 0.50300 -1.98900
H 	H 	0.15930 0.72370 0.49700 0.60100
H 	H 	0.15330 0.79450 0.45920 0.54700
H 	H 	0.23110 0.78670 0.52400 0.55000
C 	C 	0.24760 0.91530 0.91630 0.38100
C 	C 	0.37390 0.95520 0.91060 -0.35100
C 	C 	0.50000 0.92670 0.92110 0.29000
H 	H 	0.50790 0.88050 0.93240 -0.06800
C 	C 	0.61280 0.96520 0.91510 -0.38000
C 	C 	0.59870 0.03410 0.89650 0.47800
H 	H 	0.67590 0.06050 0.89380 -0.18600
C 	C 	0.47930 0.06510 0.88210 -0.84800
C 	C 	0.36250 0.02510 0.89180 0.42100
H 	H 	0.27730 0.04480 0.88590 -0.17800
C 	C 	0.75120 0.93720 0.92640 0.42400
C 	C 	0.59300 0.16790 0.82970 -2.63100
H 	H 	0.66470 0.15600 0.85720 0.80700
H 	H 	0.61610 0.14890 0.78460 0.73600
H 	H 	0.58300 0.21680 0.82660 0.78200
C 	C 	0.44200 0.18090 0.92810 -1.94500
H 	H 	0.35840 0.16730 0.95400 0.61300
H 	H 	0.51690 0.17170 0.95420 0.61700
H 	H 	0.43550 0.22900 0.91820 0.57000
C 	C 	0.33200 0.16670 0.84170 -2.30300
H 	H 	0.25890 0.14920 0.87320 0.69500
H 	H 	0.32750 0.21590 0.84350 0.67800
H 	H 	0.32170 0.15200 0.79620 0.64400
C 	C 	0.20520 0.41730 0.58800 0.42100
C 	C 	0.34290 0.41090 0.54660 -0.39700
C 	C 	0.45950 0.42230 0.57600 0.30400
H 	H 	0.45300 0.43420 0.62200 -0.09100
C 	C 	0.58790 0.41620 0.53720 -0.40000
C 	C 	0.59520 0.39600 0.46760 0.51200
H 	H 	0.68030 0.39260 0.44140 -0.20200
C 	C 	0.48140 0.38150 0.43790 -0.87600
C 	C 	0.34890 0.39200 0.47860 0.45300
H 	H 	0.26880 0.38590 0.45910 -0.17700
C 	C 	0.71980 0.42880 0.56450 0.44800
C 	C 	0.49800 0.35860 0.36210 2.03300
C 	C 	0.36700 0.35540 0.33160 -2.79300
H 	H 	0.30680 0.39290 0.34850 0.86000
H 	H 	0.38550 0.35840 0.28260 0.82400
H 	H 	0.32510 0.31290 0.34400 0.81800
C 	C 	0.57800 0.41360 0.32270 -2.46500
H 	H 	0.65850 0.42190 0.34370 0.77400
H 	H 	0.60320 0.39880 0.27630 0.72900
H 	H 	0.52190 0.45510 0.32300 0.75400
C 	C 	0.60000 0.30060 0.34870 -2.64200
H 	H 	0.68540 0.31310 0.36260 0.80800
H 	H 	0.56750 0.26110 0.37420 0.73200
H 	H 	0.61180 0.29000 0.30070 0.77000
C 	C 	0.93320 0.30660 0.72600 0.48100
C 	C 	0.95140 0.24050 0.76190 -0.65000
C 	C 	0.96590 0.18040 0.72430 0.92000
H 	H 	0.96920 0.18350 0.67700 -0.37300
C 	C 	0.97580 0.11490 0.75360 -1.60800
C 	C 	0.95750 0.23580 0.83200 0.53800
H 	H 	0.94920 0.27520 0.85890 -0.13700
C 	C 	0.97590 0.17300 0.86120 -0.69100
C 	C 	0.98390 0.11410 0.82500 0.93800
H 	H 	0.99480 0.07250 0.84730 -0.36400
C 	C 	0.99240 0.16770 0.93750 0.52100
C 	C 	0.98890 0.04990 0.71160 3.38000
C 	C 	0.88100 0.99980 0.74070 -3.54700
H 	H 	0.88400 0.99500 0.78910 1.09100
H 	H 	0.79230 0.01710 0.73240 1.00300
H 	H 	0.90020 0.95600 0.71900 1.03600
C 	C 	0.11100 0.00650 0.72210 -3.96500
H 	H 	0.11510 0.00050 0.77030 1.18000
H 	H 	0.10510 0.96260 0.70110 1.13700
H 	H 	0.19170 0.02820 0.70180 1.11500
C 	C 	0.98800 0.05570 0.63990 -4.49500
H 	H 	0.90810 0.08180 0.63050 1.28200
H 	H 	0.06850 0.07840 0.62040 1.24500
H 	H 	0.98790 0.01080 0.62030 1.27100
O 	O 	0.02790 0.83980 0.80350 -0.50300
O 	O 	0.00300 0.74360 0.85890 -0.42000
O 	O 	0.95200 0.54160 0.60770 -0.51500
O 	O 	0.95450 0.52870 0.71880 -0.40600
O 	O 	0.26090 0.85060 0.92530 -0.37800
O 	O 	0.13090 0.94560 0.91150 -0.54800
O 	O 	0.83840 0.98060 0.93510 -0.47000
O 	O 	0.77530 0.87280 0.92720 -0.45300
O 	O 	0.20150 0.42270 0.65020 -0.41800
O 	O 	0.09930 0.41360 0.55640 -0.55800
O 	O 	0.82020 0.43450 0.52150 -0.49500
O 	O 	0.72390 0.43040 0.62960 -0.48600
O 	O 	0.94010 0.36300 0.75910 -0.40800
O 	O 	0.92610 0.30650 0.66320 -0.46600
O 	O 	0.97830 0.22100 0.97430 -0.41200
O 	O 	0.01740 0.10930 0.96230 -0.58400
C 	C 	0.46580 0.14040 0.86090 1.82200
Cd	Cd	-0.00000 0.00000 -0.00000 1.22100
Cd	Cd	-0.00000 0.50000 0.50000 1.23300
