data_crystal

_cell_length_a 13.54940
_cell_length_b 13.54940
_cell_length_c 15.27950
_cell_angle_alpha 90.00000
_cell_angle_beta  90.00000
_cell_angle_gamma 120.00000

_symmetry_space_group_name_	'P 1'
_symmetry_space_group_name_H-M	'P 1'

loop_
_symmetry_equiv_pos_as_xyz
  x,y,z

loop_
_atom_site_label
_atom_site_type_symbol
_atom_site_fract_x
_atom_site_fract_y
_atom_site_fract_z
_atom_site_charge
Al	Al	0.09730 0.66210 0.06950 2.39600
P 	P 	0.32830 0.89790 0.06300 0.80500
O 	O 	0.21600 0.78960 0.04360 -0.80200
O 	O 	0.12590 0.55280 0.05200 -0.85300
O 	O 	0.98980 0.64960 0.00190 -0.75500
O 	O 	0.05390 0.66070 0.17730 -0.80600
Al	Al	0.76397 0.99543 0.40283 2.39700
P 	P 	0.99497 0.23123 0.39633 0.82000
O 	O 	0.88267 0.12293 0.37693 -0.79500
O 	O 	0.79257 0.88613 0.38533 -0.85000
O 	O 	0.65647 0.98293 0.33523 -0.76200
O 	O 	0.72057 0.99403 0.51063 -0.80200
Al	Al	0.43063 0.32877 0.73617 2.39800
P 	P 	0.66163 0.56457 0.72967 0.81500
O 	O 	0.54933 0.45627 0.71027 -0.79700
O 	O 	0.45923 0.21947 0.71867 -0.85000
O 	O 	0.32313 0.31627 0.66857 -0.76200
O 	O 	0.38723 0.32737 0.84397 -0.80200
Al	Al	0.33790 0.43520 0.06950 2.39800
P 	P 	0.10210 0.43040 0.06300 0.81000
O 	O 	0.21040 0.42640 0.04360 -0.79800
O 	O 	0.44720 0.57310 0.05200 -0.85100
O 	O 	0.35040 0.34020 0.00190 -0.76100
O 	O 	0.33930 0.39320 0.17730 -0.80200
Al	Al	0.00457 0.76853 0.40283 2.39700
P 	P 	0.76877 0.76373 0.39633 0.81500
O 	O 	0.87707 0.75973 0.37693 -0.79600
O 	O 	0.11387 0.90643 0.38533 -0.85300
O 	O 	0.01707 0.67353 0.33523 -0.76300
O 	O 	0.00597 0.72653 0.51063 -0.80200
Al	Al	0.67123 0.10187 0.73617 2.39800
P 	P 	0.43543 0.09707 0.72967 0.81600
O 	O 	0.54373 0.09307 0.71027 -0.79800
O 	O 	0.78053 0.23977 0.71867 -0.85000
O 	O 	0.68373 0.00687 0.66857 -0.76400
O 	O 	0.67263 0.05987 0.84397 -0.80400
Al	Al	0.56480 0.90270 0.06950 2.39700
P 	P 	0.56960 0.67170 0.06300 0.81500
O 	O 	0.57360 0.78400 0.04360 -0.80000
O 	O 	0.42690 0.87410 0.05200 -0.85200
O 	O 	0.65980 0.01020 0.00190 -0.74800
O 	O 	0.60680 0.94610 0.17730 -0.80400
Al	Al	0.23147 0.23603 0.40283 2.39800
P 	P 	0.23627 0.00503 0.39633 0.81900
O 	O 	0.24027 0.11733 0.37693 -0.79700
O 	O 	0.09357 0.20743 0.38533 -0.85200
O 	O 	0.32647 0.34353 0.33523 -0.76200
O 	O 	0.27347 0.27943 0.51063 -0.80200
Al	Al	0.89813 0.56937 0.73617 2.39800
P 	P 	0.90293 0.33837 0.72967 0.81500
O 	O 	0.90693 0.45067 0.71027 -0.79800
O 	O 	0.76023 0.54077 0.71867 -0.85000
O 	O 	0.99313 0.67687 0.66857 -0.76400
O 	O 	0.94013 0.61277 0.84397 -0.80300
Al	Al	0.90270 0.33790 0.93050 2.39700
P 	P 	0.67170 0.10210 0.93700 0.80600
O 	O 	0.78400 0.21040 0.95640 -0.80100
O 	O 	0.87410 0.44720 0.94800 -0.85200
O 	O 	0.01020 0.35040 0.99810 -0.75400
O 	O 	0.94610 0.33930 0.82270 -0.80500
Al	Al	0.56937 0.67123 0.26383 2.39800
P 	P 	0.33837 0.43543 0.27033 0.81500
O 	O 	0.45067 0.54373 0.28973 -0.79700
O 	O 	0.54077 0.78053 0.28133 -0.85000
O 	O 	0.67687 0.68373 0.33143 -0.76200
O 	O 	0.61277 0.67263 0.15603 -0.80200
Al	Al	0.23603 0.00457 0.59717 2.39700
P 	P 	0.00503 0.76877 0.60367 0.82000
O 	O 	0.11733 0.87707 0.62307 -0.79500
O 	O 	0.20743 0.11387 0.61467 -0.85000
O 	O 	0.34353 0.01707 0.66477 -0.76200
O 	O 	0.27943 0.00597 0.48937 -0.80200
Al	Al	0.66210 0.56480 0.93050 2.39800
P 	P 	0.89790 0.56960 0.93700 0.81000
O 	O 	0.78960 0.57360 0.95640 -0.79800
O 	O 	0.55280 0.42690 0.94800 -0.85100
O 	O 	0.64960 0.65980 0.99810 -0.76100
O 	O 	0.66070 0.60680 0.82270 -0.80200
Al	Al	0.32877 0.89813 0.26383 2.39800
P 	P 	0.56457 0.90293 0.27033 0.81600
O 	O 	0.45627 0.90693 0.28973 -0.79800
O 	O 	0.21947 0.76023 0.28133 -0.85000
O 	O 	0.31627 0.99313 0.33143 -0.76400
O 	O 	0.32737 0.94013 0.15603 -0.80400
Al	Al	0.99543 0.23147 0.59717 2.39700
P 	P 	0.23123 0.23627 0.60367 0.81500
O 	O 	0.12293 0.24027 0.62307 -0.79600
O 	O 	0.88613 0.09357 0.61467 -0.85300
O 	O 	0.98293 0.32647 0.66477 -0.76300
O 	O 	0.99403 0.27347 0.48937 -0.80200
Al	Al	0.43520 0.09730 0.93050 2.39700
P 	P 	0.43040 0.32830 0.93700 0.81500
O 	O 	0.42640 0.21600 0.95640 -0.80000
O 	O 	0.57310 0.12590 0.94800 -0.85200
O 	O 	0.34020 0.98980 0.99810 -0.74800
O 	O 	0.39320 0.05390 0.82270 -0.80400
Al	Al	0.10187 0.43063 0.26383 2.39800
P 	P 	0.09707 0.66163 0.27033 0.81500
O 	O 	0.09307 0.54933 0.28973 -0.79800
O 	O 	0.23977 0.45923 0.28133 -0.85000
O 	O 	0.00687 0.32313 0.33143 -0.76400
O 	O 	0.05987 0.38723 0.15603 -0.80300
Al	Al	0.76853 0.76397 0.59717 2.39800
P 	P 	0.76373 0.99497 0.60367 0.81900
O 	O 	0.75973 0.88267 0.62307 -0.79700
O 	O 	0.90643 0.79257 0.61467 -0.85200
O 	O 	0.67353 0.65647 0.66477 -0.76200
O 	O 	0.72653 0.72057 0.48937 -0.80200
