data_crystal

_cell_length_a 10.83700
_cell_length_b 18.13100
_cell_length_c 17.56100
_cell_angle_alpha 90.00000
_cell_angle_beta  104.30100
_cell_angle_gamma 90.00000

_symmetry_space_group_name_	'P 1'
_symmetry_space_group_name_H-M	'P 1'

loop_
_symmetry_equiv_pos_as_xyz
  x,y,z

loop_
_atom_site_label
_atom_site_type_symbol
_atom_site_fract_x
_atom_site_fract_y
_atom_site_fract_z
_atom_site_charge
Cu	Cu	0.95558 0.14045 0.62506 0.84700
Cu	Cu	0.55272 0.13269 0.86997 0.84800
N 	N 	0.84570 0.11399 0.70282 -0.21000
N 	N 	0.67820 0.11334 0.80299 -0.21500
C 	C 	0.72230 0.09640 0.67750 0.00100
H 	H 	0.69010 0.08370 0.62380 0.00500
C 	C 	0.63970 0.09610 0.72610 -0.00800
H 	H 	0.55300 0.08320 0.70470 0.00800
C 	C 	0.80350 0.12852 0.82910 -0.00400
H 	H 	0.83660 0.13910 0.88330 0.00900
C 	C 	0.88560 0.12924 0.78010 -0.00700
H 	H 	0.97280 0.14080 0.80160 0.00900
N 	N 	0.13390 0.15082 0.69451 -0.22000
N 	N 	0.37770 0.14672 0.79713 -0.21800
C 	C 	0.17830 0.09050 0.73660 -0.00000
H 	H 	0.12580 0.04790 0.73130 -0.00000
C 	C 	0.29780 0.08840 0.78750 -0.01000
H 	H 	0.32460 0.04460 0.81670 0.00800
C 	C 	0.33350 0.20620 0.75420 -0.00200
H 	H 	0.38660 0.24840 0.75810 0.00200
C 	C 	0.21220 0.20840 0.70380 0.00200
H 	H 	0.18450 0.25230 0.67530 -0.00000
N 	N 	0.98230 0.05348 0.55336 -0.21400
C 	C 	0.07420 0.05710 0.51750 0.00200
H 	H 	0.13190 0.09740 0.52860 -0.00000
C 	C 	0.90940 0.99560 0.53620 0.00700
H 	H 	0.84220 0.98930 0.56160 0.00200
N 	N 	0.83840 0.20841 0.55122 -0.22200
N 	N 	0.65460 0.29429 0.44902 -0.21600
C 	C 	0.78470 0.26720 0.57610 0.00000
H 	H 	0.80900 0.27990 0.63020 0.00000
C 	C 	0.69480 0.31000 0.52540 -0.00600
H 	H 	0.66070 0.35180 0.54560 0.01100
C 	C 	0.70730 0.23460 0.42480 -0.00300
H 	H 	0.68140 0.22090 0.37100 0.00100
C 	C 	0.79780 0.19260 0.47500 -0.00400
H 	H 	0.83240 0.15100 0.45470 0.00700
N 	N 	0.51890 0.05018 0.94356 -0.21100
C 	C 	0.59090 0.98928 0.96112 -0.00300
H 	H 	0.65580 0.98010 0.93460 0.00400
C 	C 	0.57210 0.93950 0.01740 -0.00300
H 	H 	0.62500 0.89710 0.02860 0.00200
Cu	Cu	0.04442 0.64045 0.87494 0.84700
Cu	Cu	0.44728 0.63269 0.63003 0.84800
N 	N 	0.15430 0.61399 0.79718 -0.21000
N 	N 	0.32180 0.61334 0.69701 -0.21500
C 	C 	0.27770 0.59640 0.82250 0.00100
H 	H 	0.30990 0.58370 0.87620 0.00500
C 	C 	0.36030 0.59610 0.77390 -0.00800
H 	H 	0.44700 0.58320 0.79530 0.00800
C 	C 	0.19650 0.62852 0.67090 -0.00400
H 	H 	0.16340 0.63910 0.61670 0.00900
C 	C 	0.11440 0.62924 0.71990 -0.00700
H 	H 	0.02720 0.64080 0.69840 0.00900
N 	N 	0.86610 0.65082 0.80549 -0.22000
N 	N 	0.62230 0.64672 0.70287 -0.21800
C 	C 	0.82170 0.59050 0.76340 -0.00000
H 	H 	0.87420 0.54790 0.76870 -0.00000
C 	C 	0.70220 0.58840 0.71250 -0.01000
H 	H 	0.67540 0.54460 0.68330 0.00800
C 	C 	0.66650 0.70620 0.74580 -0.00200
H 	H 	0.61340 0.74840 0.74190 0.00200
C 	C 	0.78780 0.70840 0.79620 0.00200
H 	H 	0.81550 0.75230 0.82470 0.00000
N 	N 	0.01770 0.55348 0.94664 -0.21300
C 	C 	0.92580 0.55710 0.98250 0.00300
H 	H 	0.86810 0.59740 0.97140 -0.00000
C 	C 	0.09060 0.49560 0.96380 0.00500
H 	H 	0.15780 0.48930 0.93840 0.00300
N 	N 	0.16160 0.70841 0.94878 -0.22300
N 	N 	0.34540 0.79429 0.05098 -0.21500
C 	C 	0.21530 0.76720 0.92390 0.00000
H 	H 	0.19100 0.77990 0.86980 -0.00000
C 	C 	0.30520 0.81000 0.97460 -0.00700
H 	H 	0.33930 0.85180 0.95440 0.01100
C 	C 	0.29270 0.73460 0.07520 -0.00300
H 	H 	0.31860 0.72090 0.12900 0.00100
C 	C 	0.20220 0.69260 0.02500 -0.00300
H 	H 	0.16760 0.65100 0.04530 0.00700
N 	N 	0.48110 0.55018 0.55644 -0.21100
C 	C 	0.40910 0.48928 0.53888 -0.00200
H 	H 	0.34420 0.48010 0.56540 0.00400
C 	C 	0.42790 0.43950 0.48260 -0.00400
H 	H 	0.37500 0.39710 0.47140 0.00300
Cu	Cu	0.04442 0.85955 0.37494 0.84700
Cu	Cu	0.44728 0.86731 0.13003 0.84800
N 	N 	0.15430 0.88601 0.29718 -0.21000
N 	N 	0.32180 0.88666 0.19701 -0.21500
C 	C 	0.27770 0.90360 0.32250 0.00100
H 	H 	0.30990 0.91630 0.37620 0.00500
C 	C 	0.36030 0.90390 0.27390 -0.00800
H 	H 	0.44700 0.91680 0.29530 0.00800
C 	C 	0.19650 0.87148 0.17090 -0.00400
H 	H 	0.16340 0.86090 0.11670 0.00900
C 	C 	0.11440 0.87076 0.21990 -0.00700
H 	H 	0.02720 0.85920 0.19840 0.00900
N 	N 	0.86610 0.84918 0.30549 -0.22000
N 	N 	0.62230 0.85328 0.20287 -0.21800
C 	C 	0.82170 0.90950 0.26340 -0.00000
H 	H 	0.87420 0.95210 0.26870 -0.00000
C 	C 	0.70220 0.91160 0.21250 -0.01000
H 	H 	0.67540 0.95540 0.18330 0.00800
C 	C 	0.66650 0.79380 0.24580 -0.00200
H 	H 	0.61340 0.75160 0.24190 0.00200
C 	C 	0.78780 0.79160 0.29620 0.00200
H 	H 	0.81550 0.74770 0.32470 -0.00000
N 	N 	0.01770 0.94652 0.44664 -0.21400
C 	C 	0.92580 0.94290 0.48250 0.00200
H 	H 	0.86810 0.90260 0.47140 -0.00000
C 	C 	0.09060 0.00440 0.46380 0.00700
H 	H 	0.15780 0.01070 0.43840 0.00200
N 	N 	0.16160 0.79159 0.44878 -0.22200
N 	N 	0.34540 0.70571 0.55098 -0.21600
C 	C 	0.21530 0.73280 0.42390 0.00000
H 	H 	0.19100 0.72010 0.36980 0.00000
C 	C 	0.30520 0.69000 0.47460 -0.00600
H 	H 	0.33930 0.64820 0.45440 0.01100
C 	C 	0.29270 0.76540 0.57520 -0.00300
H 	H 	0.31860 0.77910 0.62900 0.00100
C 	C 	0.20220 0.80740 0.52500 -0.00400
H 	H 	0.16760 0.84900 0.54530 0.00700
N 	N 	0.48110 0.94982 0.05644 -0.21100
C 	C 	0.40910 0.01072 0.03888 -0.00300
H 	H 	0.34420 0.01990 0.06540 0.00400
C 	C 	0.42790 0.06050 0.98260 -0.00300
H 	H 	0.37500 0.10290 0.97140 0.00200
Cu	Cu	0.95558 0.35955 0.12506 0.84700
Cu	Cu	0.55272 0.36731 0.36997 0.84800
N 	N 	0.84570 0.38601 0.20282 -0.21000
N 	N 	0.67820 0.38666 0.30299 -0.21500
C 	C 	0.72230 0.40360 0.17750 0.00100
H 	H 	0.69010 0.41630 0.12380 0.00500
C 	C 	0.63970 0.40390 0.22610 -0.00800
H 	H 	0.55300 0.41680 0.20470 0.00800
C 	C 	0.80350 0.37148 0.32910 -0.00400
H 	H 	0.83660 0.36090 0.38330 0.00900
C 	C 	0.88560 0.37076 0.28010 -0.00700
H 	H 	0.97280 0.35920 0.30160 0.00900
N 	N 	0.13390 0.34918 0.19451 -0.22000
N 	N 	0.37770 0.35328 0.29713 -0.21800
C 	C 	0.17830 0.40950 0.23660 -0.00000
H 	H 	0.12580 0.45210 0.23130 -0.00000
C 	C 	0.29780 0.41160 0.28750 -0.01000
H 	H 	0.32460 0.45540 0.31670 0.00800
C 	C 	0.33350 0.29380 0.25420 -0.00200
H 	H 	0.38660 0.25160 0.25810 0.00200
C 	C 	0.21220 0.29160 0.20380 0.00200
H 	H 	0.18450 0.24770 0.17530 0.00000
N 	N 	0.98230 0.44652 0.05336 -0.21300
C 	C 	0.07420 0.44290 0.01750 0.00300
H 	H 	0.13190 0.40260 0.02860 -0.00000
C 	C 	0.90940 0.50440 0.03620 0.00500
H 	H 	0.84220 0.51070 0.06160 0.00300
N 	N 	0.83840 0.29159 0.05122 -0.22300
N 	N 	0.65460 0.20571 0.94902 -0.21500
C 	C 	0.78470 0.23280 0.07610 0.00000
H 	H 	0.80900 0.22010 0.13020 -0.00000
C 	C 	0.69480 0.19000 0.02540 -0.00700
H 	H 	0.66070 0.14820 0.04560 0.01100
C 	C 	0.70730 0.26540 0.92480 -0.00300
H 	H 	0.68140 0.27910 0.87100 0.00100
C 	C 	0.79780 0.30740 0.97500 -0.00300
H 	H 	0.83240 0.34900 0.95470 0.00700
N 	N 	0.51890 0.44982 0.44356 -0.21100
C 	C 	0.59090 0.51072 0.46112 -0.00200
H 	H 	0.65580 0.51990 0.43460 0.00400
C 	C 	0.57210 0.56050 0.51740 -0.00400
H 	H 	0.62500 0.60290 0.52860 0.00300
