data_crystal

_cell_length_a 5.68200
_cell_length_b 13.70200
_cell_length_c 28.27400
_cell_angle_alpha 90.00000
_cell_angle_beta  93.20700
_cell_angle_gamma 90.00000

_symmetry_space_group_name_	'P 1'
_symmetry_space_group_name_H-M	'P 1'

loop_
_symmetry_equiv_pos_as_xyz
  x,y,z

loop_
_atom_site_label
_atom_site_type_symbol
_atom_site_fract_x
_atom_site_fract_y
_atom_site_fract_z
_atom_site_charge
Cu	Cu	0.04572 0.08696 0.03169 0.89600
O 	O 	0.18380 0.95790 0.01809 -0.73000
H 	H 	0.19400 0.92100 0.04230 0.25800
O 	O 	0.25690 0.11220 0.08690 -0.42000
O 	O 	0.59170 0.03890 0.06564 -0.46700
O 	O 	0.29480 0.80840 0.47944 -0.28000
O 	O 	0.59670 0.71340 0.45938 -0.38200
N 	N 	0.80040 0.14830 0.22905 -0.13300
N 	N 	0.80180 0.02990 0.39078 -0.14400
C 	C 	0.46690 0.08350 0.09393 0.33800
C 	C 	0.58490 0.10610 0.14250 -0.04000
C 	C 	0.48610 0.17410 0.17203 -0.07000
H 	H 	0.34660 0.20580 0.16260 0.06500
C 	C 	0.59830 0.19370 0.21554 0.03800
H 	H 	0.53320 0.23870 0.23570 0.01400
C 	C 	0.89700 0.08210 0.20102 0.07100
H 	H 	0.03500 0.05030 0.21140 -0.01000
C 	C 	0.79300 0.06080 0.15688 -0.07600
H 	H 	0.86280 0.01640 0.13710 0.04900
C 	C 	0.91080 0.16690 0.27741 0.03200
H 	H 	0.88530 0.23410 0.28660 0.02200
H 	H 	0.07920 0.15510 0.27780 0.00500
C 	C 	0.79750 0.09820 0.31152 -0.19700
H 	H 	0.62970 0.11160 0.31120 0.08700
H 	H 	0.81760 0.03150 0.30100 0.09000
C 	C 	0.90280 0.10860 0.36167 0.03500
H 	H 	0.07300 0.10250 0.36210 0.00100
H 	H 	0.86460 0.17210 0.37430 0.01800
C 	C 	0.61080 0.04610 0.41580 0.00200
H 	H 	0.54880 0.10880 0.41720 0.02800
C 	C 	0.50640 0.97190 0.43922 -0.03000
H 	H 	0.37380 0.98380 0.45620 0.06700
C 	C 	0.60090 0.87880 0.43732 -0.01700
C 	C 	0.80120 0.86290 0.41215 -0.09500
H 	H 	0.86850 0.80110 0.41100 0.09300
C 	C 	0.89660 0.93980 0.38924 0.11500
H 	H 	0.02990 0.92990 0.37220 -0.00600
C 	C 	0.48510 0.79390 0.46087 0.30300
Cu	Cu	0.45428 0.58696 0.46831 0.90800
O 	O 	0.31620 0.45790 0.48191 -0.74100
H 	H 	0.30600 0.42100 0.45770 0.25200
O 	O 	0.24310 0.61220 0.41310 -0.40200
O 	O 	0.90830 0.53890 0.43436 -0.43100
O 	O 	0.20520 0.30840 0.02056 -0.28200
O 	O 	0.90330 0.21340 0.04062 -0.37600
N 	N 	0.69960 0.64830 0.27095 -0.13300
N 	N 	0.69820 0.52990 0.10922 -0.12200
C 	C 	0.03310 0.58350 0.40607 0.28700
C 	C 	0.91510 0.60610 0.35750 0.02800
C 	C 	0.01390 0.67410 0.32797 -0.15200
H 	H 	0.15340 0.70580 0.33740 0.09400
C 	C 	0.90170 0.69370 0.28446 0.09200
H 	H 	0.96680 0.73870 0.26430 0.00600
C 	C 	0.60300 0.58210 0.29898 0.05600
H 	H 	0.46500 0.55030 0.28860 0.01000
C 	C 	0.70700 0.56080 0.34312 -0.09800
H 	H 	0.63720 0.51640 0.36290 0.05900
C 	C 	0.58920 0.66690 0.22259 -0.02500
H 	H 	0.61470 0.73410 0.21340 0.03900
H 	H 	0.42080 0.65510 0.22220 0.03500
C 	C 	0.70250 0.59820 0.18848 -0.15200
H 	H 	0.87030 0.61160 0.18880 0.08100
H 	H 	0.68240 0.53150 0.19900 0.08200
C 	C 	0.59720 0.60860 0.13833 -0.02400
H 	H 	0.42700 0.60250 0.13790 0.03400
H 	H 	0.63540 0.67210 0.12570 0.03400
C 	C 	0.88920 0.54610 0.08420 0.04200
H 	H 	0.95120 0.60880 0.08280 0.01900
C 	C 	0.99360 0.47190 0.06078 -0.06500
H 	H 	0.12620 0.48380 0.04380 0.06100
C 	C 	0.89910 0.37880 0.06268 -0.01000
C 	C 	0.69880 0.36290 0.08785 -0.07600
H 	H 	0.63150 0.30110 0.08900 0.08100
C 	C 	0.60340 0.43980 0.11076 0.04700
H 	H 	0.47010 0.42990 0.12780 0.01800
C 	C 	0.01490 0.29390 0.03913 0.28100
Cu	Cu	0.95428 0.91304 0.96831 0.92000
O 	O 	0.81620 0.04210 0.98191 -0.73600
H 	H 	0.80600 0.07900 0.95770 0.25100
O 	O 	0.74310 0.88780 0.91310 -0.40800
O 	O 	0.40830 0.96110 0.93436 -0.43800
O 	O 	0.70520 0.19160 0.52056 -0.27600
O 	O 	0.40330 0.28660 0.54062 -0.38400
N 	N 	0.19960 0.85170 0.77095 -0.11800
N 	N 	0.19820 0.97010 0.60922 -0.11000
C 	C 	0.53310 0.91650 0.90607 0.34100
C 	C 	0.41510 0.89390 0.85750 -0.04300
C 	C 	0.51390 0.82590 0.82797 -0.06200
H 	H 	0.65340 0.79420 0.83740 0.06500
C 	C 	0.40170 0.80630 0.78446 0.03300
H 	H 	0.46680 0.76130 0.76430 0.01700
C 	C 	0.10300 0.91790 0.79898 0.03300
H 	H 	0.96500 0.94970 0.78860 0.02400
C 	C 	0.20700 0.93920 0.84312 -0.05300
H 	H 	0.13720 0.98360 0.86290 0.05100
C 	C 	0.08920 0.83310 0.72259 -0.03200
H 	H 	0.11470 0.76590 0.71340 0.03600
H 	H 	0.92080 0.84490 0.72220 0.04000
C 	C 	0.20250 0.90180 0.68848 -0.14500
H 	H 	0.37030 0.88840 0.68880 0.07800
H 	H 	0.18240 0.96850 0.69900 0.08600
C 	C 	0.09720 0.89140 0.63833 -0.03400
H 	H 	0.92700 0.89750 0.63790 0.04700
H 	H 	0.13540 0.82790 0.62570 0.03500
C 	C 	0.38920 0.95390 0.58420 0.10500
H 	H 	0.45120 0.89120 0.58280 0.00100
C 	C 	0.49360 0.02810 0.56078 -0.13800
H 	H 	0.62620 0.01620 0.54380 0.08700
C 	C 	0.39910 0.12120 0.56268 -0.00700
C 	C 	0.19880 0.13710 0.58785 -0.06200
H 	H 	0.13150 0.19890 0.58900 0.07100
C 	C 	0.10340 0.06020 0.61076 -0.00800
H 	H 	0.97010 0.07010 0.62780 0.03600
C 	C 	0.51490 0.20610 0.53913 0.29500
Cu	Cu	0.54572 0.41304 0.53169 0.91000
O 	O 	0.68380 0.54210 0.51809 -0.73800
H 	H 	0.69400 0.57900 0.54230 0.25600
O 	O 	0.75690 0.38780 0.58690 -0.41900
O 	O 	0.09170 0.46110 0.56564 -0.47100
O 	O 	0.79480 0.69160 0.97944 -0.27000
O 	O 	0.09670 0.78660 0.95938 -0.37900
N 	N 	0.30040 0.35170 0.72905 -0.11200
N 	N 	0.30180 0.47010 0.89078 -0.12400
C 	C 	0.96690 0.41650 0.59393 0.37100
C 	C 	0.08490 0.39390 0.64250 -0.08100
C 	C 	0.98610 0.32590 0.67203 -0.02600
H 	H 	0.84660 0.29420 0.66260 0.05300
C 	C 	0.09830 0.30630 0.71554 0.00800
H 	H 	0.03320 0.26130 0.73570 0.02100
C 	C 	0.39700 0.41790 0.70102 0.01400
H 	H 	0.53500 0.44970 0.71140 0.02700
C 	C 	0.29300 0.43920 0.65688 -0.03000
H 	H 	0.36280 0.48360 0.63710 0.03600
C 	C 	0.41080 0.33310 0.77741 -0.03100
H 	H 	0.38530 0.26590 0.78660 0.03200
H 	H 	0.57920 0.34490 0.77780 0.03700
C 	C 	0.29750 0.40180 0.81152 -0.14800
H 	H 	0.12970 0.38840 0.81120 0.07500
H 	H 	0.31760 0.46850 0.80100 0.08000
C 	C 	0.40280 0.39140 0.86167 -0.02500
H 	H 	0.57300 0.39750 0.86210 0.03700
H 	H 	0.36460 0.32790 0.87430 0.03200
C 	C 	0.11080 0.45390 0.91580 0.05700
H 	H 	0.04880 0.39120 0.91720 0.01500
C 	C 	0.00640 0.52810 0.93922 -0.08800
H 	H 	0.87380 0.51620 0.95620 0.08500
C 	C 	0.10090 0.62120 0.93732 -0.00900
C 	C 	0.30120 0.63710 0.91215 -0.07500
H 	H 	0.36850 0.69890 0.91100 0.08100
C 	C 	0.39660 0.56020 0.88924 0.04900
H 	H 	0.52990 0.57010 0.87220 0.01900
C 	C 	0.98510 0.70610 0.96087 0.30100
Cu	Cu	0.50000 0.00000 -0.00000 0.86500
Cu	Cu	0.00000 0.50000 0.50000 0.88000
