data_crystal

_cell_length_a 11.03200
_cell_length_b 11.03200
_cell_length_c 22.83800
_cell_angle_alpha 90.00000
_cell_angle_beta  90.00000
_cell_angle_gamma 120.00000

_symmetry_space_group_name_	'P 1'
_symmetry_space_group_name_H-M	'P 1'

loop_
_symmetry_equiv_pos_as_xyz
  x,y,z

loop_
_atom_site_label
_atom_site_type_symbol
_atom_site_fract_x
_atom_site_fract_y
_atom_site_fract_z
_atom_site_charge
C 	C 	0.61430 0.57790 0.62510 0.09000
H 	H 	0.69670 0.63410 0.60470 -0.02600
C 	C 	0.61960 0.58150 0.68600 -0.15000
H 	H 	0.70360 0.63870 0.70520 0.08300
C 	C 	0.42210 0.03640 0.62510 0.07300
H 	H 	0.36590 0.06260 0.60470 -0.03900
C 	C 	0.41850 0.03810 0.68600 -0.14200
H 	H 	0.36130 0.06490 0.70520 0.06000
C 	C 	0.96360 0.38570 0.62510 0.11800
H 	H 	0.93740 0.30330 0.60470 -0.03900
C 	C 	0.96190 0.38040 0.68600 -0.10100
H 	H 	0.93510 0.29640 0.70520 0.06600
C 	C 	0.38570 0.42210 0.62510 0.08900
H 	H 	0.30330 0.36590 0.60470 -0.04300
C 	C 	0.38040 0.41850 0.68600 -0.15300
H 	H 	0.29640 0.36130 0.70520 0.06800
C 	C 	0.57790 0.96360 0.62510 0.11800
H 	H 	0.63410 0.93740 0.60470 -0.03100
C 	C 	0.58150 0.96190 0.68600 -0.10000
H 	H 	0.63870 0.93510 0.70520 0.07300
C 	C 	0.03640 0.61430 0.62510 0.07400
H 	H 	0.06260 0.69670 0.60470 -0.03000
C 	C 	0.03810 0.61960 0.68600 -0.14100
H 	H 	0.06490 0.70360 0.70520 0.06800
C 	C 	0.57790 0.61430 0.87490 0.08900
H 	H 	0.63410 0.69670 0.89530 -0.02200
C 	C 	0.58150 0.61960 0.81400 -0.14900
H 	H 	0.63870 0.70360 0.79480 0.08200
C 	C 	0.03640 0.42210 0.87490 0.07200
H 	H 	0.06260 0.36590 0.89530 -0.03600
C 	C 	0.03810 0.41850 0.81400 -0.14000
H 	H 	0.06490 0.36130 0.79480 0.06000
C 	C 	0.38570 0.96360 0.87490 0.11600
H 	H 	0.30330 0.93740 0.89530 -0.03600
C 	C 	0.38040 0.96190 0.81400 -0.10000
H 	H 	0.29640 0.93510 0.79480 0.06600
C 	C 	0.42210 0.38570 0.87490 0.08800
H 	H 	0.36590 0.30330 0.89530 -0.04000
C 	C 	0.41850 0.38040 0.81400 -0.15100
H 	H 	0.36130 0.29640 0.79480 0.06700
C 	C 	0.96360 0.57790 0.87490 0.11600
H 	H 	0.93740 0.63410 0.89530 -0.02800
C 	C 	0.96190 0.58150 0.81400 -0.09800
H 	H 	0.93510 0.63870 0.79480 0.07300
C 	C 	0.61430 0.03640 0.87490 0.07200
H 	H 	0.69670 0.06260 0.89530 -0.02700
C 	C 	0.61960 0.03810 0.81400 -0.13900
H 	H 	0.70360 0.06490 0.79480 0.06800
C 	C 	0.38570 0.42210 0.37490 0.08900
H 	H 	0.30330 0.36590 0.39530 -0.04300
C 	C 	0.38040 0.41850 0.31400 -0.15200
H 	H 	0.29640 0.36130 0.29480 0.06700
C 	C 	0.57790 0.96360 0.37490 0.11800
H 	H 	0.63410 0.93740 0.39530 -0.03100
C 	C 	0.58150 0.96190 0.31400 -0.09900
H 	H 	0.63870 0.93510 0.29480 0.07300
C 	C 	0.03640 0.61430 0.37490 0.07300
H 	H 	0.06260 0.69670 0.39530 -0.03000
C 	C 	0.03810 0.61960 0.31400 -0.14000
H 	H 	0.06490 0.70360 0.29480 0.06800
C 	C 	0.61430 0.57790 0.37490 0.09000
H 	H 	0.69670 0.63410 0.39530 -0.02500
C 	C 	0.61960 0.58150 0.31400 -0.15000
H 	H 	0.70360 0.63870 0.29480 0.08300
C 	C 	0.42210 0.03640 0.37490 0.07300
H 	H 	0.36590 0.06260 0.39530 -0.03900
C 	C 	0.41850 0.03810 0.31400 -0.14100
H 	H 	0.36130 0.06490 0.29480 0.06000
C 	C 	0.96360 0.38570 0.37490 0.11800
H 	H 	0.93740 0.30330 0.39530 -0.03900
C 	C 	0.96190 0.38040 0.31400 -0.10000
H 	H 	0.93510 0.29640 0.29480 0.06600
C 	C 	0.42210 0.38570 0.12510 0.09000
H 	H 	0.36590 0.30330 0.10470 -0.04400
C 	C 	0.41850 0.38040 0.18600 -0.15300
H 	H 	0.36130 0.29640 0.20520 0.06700
C 	C 	0.96360 0.57790 0.12510 0.11900
H 	H 	0.93740 0.63410 0.10470 -0.03100
C 	C 	0.96190 0.58150 0.18600 -0.09900
H 	H 	0.93510 0.63870 0.20520 0.07300
C 	C 	0.61430 0.03640 0.12510 0.07400
H 	H 	0.69670 0.06260 0.10470 -0.03100
C 	C 	0.61960 0.03810 0.18600 -0.14100
H 	H 	0.70360 0.06490 0.20520 0.06800
C 	C 	0.57790 0.61430 0.12510 0.09100
H 	H 	0.63410 0.69670 0.10470 -0.02600
C 	C 	0.58150 0.61960 0.18600 -0.15000
H 	H 	0.63870 0.70360 0.20520 0.08300
C 	C 	0.03640 0.42210 0.12510 0.07400
H 	H 	0.06260 0.36590 0.10470 -0.04000
C 	C 	0.03810 0.41850 0.18600 -0.14200
H 	H 	0.06490 0.36130 0.20520 0.06000
C 	C 	0.38570 0.96360 0.12510 0.11900
H 	H 	0.30330 0.93740 0.10470 -0.04000
C 	C 	0.38040 0.96190 0.18600 -0.10000
H 	H 	0.29640 0.93510 0.20520 0.06600
Co	Co	0.50000 0.50000 0.50000 1.11100
Co	Co	0.50000 0.00000 0.50000 1.09700
Co	Co	0.00000 0.50000 0.50000 1.09700
Co	Co	0.50000 0.50000 -0.00000 1.10800
Co	Co	-0.00000 0.50000 -0.00000 1.09400
Co	Co	0.50000 0.00000 -0.00000 1.09400
P 	P 	0.33333 0.66667 0.47793 0.22200
P 	P 	0.66667 0.33333 0.47793 0.22200
P 	P 	0.66667 0.33333 0.02207 0.18900
P 	P 	0.33333 0.66667 0.02207 0.18900
P 	P 	0.66667 0.33333 0.52207 0.22200
P 	P 	0.33333 0.66667 0.52207 0.22200
P 	P 	0.33333 0.66667 0.97793 0.27200
P 	P 	0.66667 0.33333 0.97793 0.27300
O 	O 	0.33740 0.53680 0.50000 -0.46600
O 	O 	0.46320 0.80060 0.50000 -0.44500
O 	O 	0.19940 0.66260 0.50000 -0.46000
O 	O 	0.66260 0.46320 0.50000 -0.45400
O 	O 	0.53680 0.19940 0.50000 -0.46700
O 	O 	0.80060 0.33740 0.50000 -0.45000
O 	O 	0.53680 0.33740 -0.00000 -0.47600
O 	O 	0.80060 0.46320 -0.00000 -0.45400
O 	O 	0.66260 0.19940 -0.00000 -0.46900
O 	O 	0.46320 0.66260 -0.00000 -0.46400
O 	O 	0.19940 0.53680 -0.00000 -0.47600
O 	O 	0.33740 0.80060 -0.00000 -0.45900
N 	N 	0.50000 0.50000 0.59480 -0.25600
C 	C 	0.50000 0.50000 0.71740 0.06400
N 	N 	0.50000 0.00000 0.59480 -0.27900
C 	C 	0.50000 0.00000 0.71740 0.02000
N 	N 	0.00000 0.50000 0.59480 -0.27900
C 	C 	0.00000 0.50000 0.71740 0.02000
N 	N 	0.50000 0.50000 0.90520 -0.25300
C 	C 	0.50000 0.50000 0.78260 0.06200
N 	N 	0.00000 0.50000 0.90520 -0.27500
C 	C 	-0.00000 0.50000 0.78260 0.01900
N 	N 	0.50000 0.00000 0.90520 -0.27500
C 	C 	0.50000 0.00000 0.78260 0.01900
N 	N 	0.50000 0.50000 0.40520 -0.25600
C 	C 	0.50000 0.50000 0.28260 0.06300
N 	N 	0.50000 0.00000 0.40520 -0.27900
C 	C 	0.50000 0.00000 0.28260 0.01900
N 	N 	-0.00000 0.50000 0.40520 -0.27900
C 	C 	0.00000 0.50000 0.28260 0.01900
N 	N 	0.50000 0.50000 0.09480 -0.25600
C 	C 	0.50000 0.50000 0.21740 0.06400
N 	N 	-0.00000 0.50000 0.09480 -0.27900
C 	C 	0.00000 0.50000 0.21740 0.02000
N 	N 	0.50000 0.00000 0.09480 -0.27900
C 	C 	0.50000 0.00000 0.21740 0.02000
