data_crystal

_cell_length_a 5.13180
_cell_length_b 7.84110
_cell_length_c 16.51000
_cell_angle_alpha 90.00000
_cell_angle_beta  90.11900
_cell_angle_gamma 90.00000

_symmetry_space_group_name_	'P 1'
_symmetry_space_group_name_H-M	'P 1'

loop_
_symmetry_equiv_pos_as_xyz
  x,y,z

loop_
_atom_site_label
_atom_site_type_symbol
_atom_site_fract_x
_atom_site_fract_y
_atom_site_fract_z
_atom_site_charge
Zn	Zn	0.19821 0.14210 0.58625 1.23900
Zn	Zn	0.19570 0.37060 0.92089 1.24400
O 	O 	0.85030 0.23920 0.57850 -0.46300
O 	O 	0.32850 0.12840 0.69500 -0.43700
O 	O 	0.81150 0.40830 0.44850 -0.43300
O 	O 	0.41310 0.28960 0.51660 -0.45300
O 	O 	0.19510 0.61220 0.93690 -0.43100
O 	O 	0.15630 0.78550 0.06610 -0.46800
O 	O 	0.59350 0.72630 0.00850 -0.45100
O 	O 	0.27510 0.34860 0.80790 -0.43000
O 	O 	0.74500 0.10350 0.44360 -0.37100
O 	O 	0.27730 0.91600 0.93190 -0.32000
O 	O 	0.61430 0.38890 0.70670 -0.35300
O 	O 	0.64600 0.13750 0.80400 -0.36800
P 	P 	0.70350 0.26560 0.49857 0.55400
P 	P 	0.30560 0.75550 0.98746 0.55400
P 	P 	0.45390 0.25070 0.75346 0.57800
H 	H 	0.66000 0.00300 0.46100 0.18800
H 	H 	0.30000 0.02200 0.95800 0.15500
H 	H 	0.71300 0.34100 0.66400 0.21300
H 	H 	0.72700 0.16900 0.85300 0.21800
Zn	Zn	0.80179 0.64210 0.41375 1.24500
Zn	Zn	0.80430 0.87060 0.07911 1.24900
O 	O 	0.14970 0.73920 0.42150 -0.45900
O 	O 	0.67150 0.62840 0.30500 -0.42700
O 	O 	0.18850 0.90830 0.55150 -0.41300
O 	O 	0.58690 0.78960 0.48340 -0.43800
O 	O 	0.80490 0.11220 0.06310 -0.44400
O 	O 	0.84370 0.28550 0.93390 -0.47300
O 	O 	0.40650 0.22630 0.99150 -0.45700
O 	O 	0.72490 0.84860 0.19210 -0.42200
O 	O 	0.25500 0.60350 0.55640 -0.36400
O 	O 	0.72270 0.41600 0.06810 -0.36200
O 	O 	0.38570 0.88890 0.29330 -0.34700
O 	O 	0.35400 0.63750 0.19600 -0.36200
P 	P 	0.29650 0.76560 0.50143 0.55600
P 	P 	0.69440 0.25550 0.01254 0.55400
P 	P 	0.54610 0.75070 0.24654 0.57800
H 	H 	0.34000 0.50300 0.53900 0.20100
H 	H 	0.70000 0.52200 0.04200 0.18700
H 	H 	0.28700 0.84100 0.33600 0.21400
H 	H 	0.27300 0.66900 0.14700 0.21900
