data_crystal

_cell_length_a 10.44700
_cell_length_b 12.34900
_cell_length_c 10.22500
_cell_angle_alpha 90.00000
_cell_angle_beta  90.00000
_cell_angle_gamma 90.00000

_symmetry_space_group_name_	'P 1'
_symmetry_space_group_name_H-M	'P 1'

loop_
_symmetry_equiv_pos_as_xyz
  x,y,z

loop_
_atom_site_label
_atom_site_type_symbol
_atom_site_fract_x
_atom_site_fract_y
_atom_site_fract_z
_atom_site_charge
Zn	Zn	0.98122 0.86680 0.81550 1.24700
P 	P 	0.00220 0.98346 0.55490 0.48000
P 	P 	0.73260 0.74451 0.72460 0.51000
O 	O 	0.81280 0.80260 0.82700 -0.37500
O 	O 	0.59080 0.75250 0.76080 -0.37800
O 	O 	0.97250 0.99230 0.70090 -0.37600
O 	O 	0.96300 0.08860 0.48790 -0.35900
O 	O 	0.15220 0.97620 0.53710 -0.26000
O 	O 	0.94070 0.88390 0.49730 -0.20200
O 	O 	0.77410 0.62660 0.70860 -0.26000
O 	O 	0.74510 0.80240 0.58920 -0.17200
H 	H 	0.20200 0.93700 0.63800 0.17100
Zn	Zn	0.01878 0.13320 0.31550 1.24200
P 	P 	0.99780 0.01654 0.05490 0.44900
P 	P 	0.26740 0.25549 0.22460 0.51000
O 	O 	0.18720 0.19740 0.32700 -0.38900
O 	O 	0.40920 0.24750 0.26080 -0.38600
O 	O 	0.02750 0.00770 0.20090 -0.39300
O 	O 	0.03700 0.91140 0.98790 -0.34300
O 	O 	0.84780 0.02380 0.03710 -0.27000
O 	O 	0.05930 0.11610 0.99730 -0.15100
O 	O 	0.22590 0.37340 0.20860 -0.27400
O 	O 	0.25490 0.19760 0.08920 -0.19500
H 	H 	0.79800 0.06300 0.13800 0.17000
Zn	Zn	0.48122 0.63320 0.81550 1.24800
P 	P 	0.50220 0.51654 0.55490 0.49700
P 	P 	0.23260 0.75549 0.72460 0.51000
O 	O 	0.31280 0.69740 0.82700 -0.37500
O 	O 	0.09080 0.74750 0.76080 -0.37800
O 	O 	0.47250 0.50770 0.70090 -0.37600
O 	O 	0.46300 0.41140 0.48790 -0.37500
O 	O 	0.65220 0.52380 0.53710 -0.25700
O 	O 	0.44070 0.61610 0.49730 -0.20800
O 	O 	0.27410 0.87340 0.70860 -0.26300
O 	O 	0.24510 0.69760 0.58920 -0.17200
H 	H 	0.70200 0.56300 0.63800 0.17200
Zn	Zn	0.51878 0.36680 0.31550 1.24500
P 	P 	0.49780 0.48346 0.05490 0.42000
P 	P 	0.76740 0.24451 0.22460 0.51000
O 	O 	0.68720 0.30260 0.32700 -0.38700
O 	O 	0.90920 0.25250 0.26080 -0.38100
O 	O 	0.52750 0.49230 0.20090 -0.38400
O 	O 	0.53700 0.58860 0.98790 -0.33000
O 	O 	0.34780 0.47620 0.03710 -0.27400
O 	O 	0.55930 0.38390 0.99730 -0.14300
O 	O 	0.72590 0.12660 0.20860 -0.27000
O 	O 	0.75490 0.30240 0.08920 -0.19300
H 	H 	0.29800 0.43700 0.13800 0.16800
