data_crystal

_cell_length_a 10.13830
_cell_length_b 10.13830
_cell_length_c 9.62800
_cell_angle_alpha 90.00000
_cell_angle_beta  90.00000
_cell_angle_gamma 90.00000

_symmetry_space_group_name_	'P 1'
_symmetry_space_group_name_H-M	'P 1'

loop_
_symmetry_equiv_pos_as_xyz
  x,y,z

loop_
_atom_site_label
_atom_site_type_symbol
_atom_site_fract_x
_atom_site_fract_y
_atom_site_fract_z
_atom_site_charge
O 	O 	0.29900 0.52400 0.22300 -0.39200
O 	O 	0.79900 0.02400 0.72300 -0.38900
O 	O 	0.70100 0.47600 0.22300 -0.40300
O 	O 	0.20100 0.97600 0.72300 -0.43700
O 	O 	0.52400 0.70100 0.77700 -0.41600
O 	O 	0.02400 0.20100 0.27700 -0.35900
O 	O 	0.47600 0.29900 0.77700 -0.40500
O 	O 	0.97600 0.79900 0.27700 -0.43500
O 	O 	0.70100 0.52400 0.77700 -0.41600
O 	O 	0.20100 0.02400 0.27700 -0.35900
O 	O 	0.29900 0.47600 0.77700 -0.40500
O 	O 	0.79900 0.97600 0.27700 -0.43500
O 	O 	0.47600 0.70100 0.22300 -0.40300
O 	O 	0.97600 0.20100 0.72300 -0.43700
O 	O 	0.52400 0.29900 0.22300 -0.39100
O 	O 	0.02400 0.79900 0.72300 -0.38900
O 	O 	0.50000 0.50000 -0.00000 -0.65300
O 	O 	0.00000 0.00000 0.50000 -0.62200
O 	O 	0.29600 0.70400 0.05200 -0.37600
O 	O 	0.24600 0.75400 0.31000 -0.35200
P 	P 	0.33110 0.66890 0.19610 0.52700
O 	O 	0.79600 0.20400 0.55200 -0.40900
O 	O 	0.74600 0.25400 0.81000 -0.36900
P 	P 	0.83110 0.16890 0.69610 0.52600
O 	O 	0.70400 0.29600 0.05200 -0.37600
O 	O 	0.75400 0.24600 0.31000 -0.35200
P 	P 	0.66890 0.33110 0.19610 0.52700
O 	O 	0.20400 0.79600 0.55200 -0.40900
O 	O 	0.25400 0.74600 0.81000 -0.36900
P 	P 	0.16890 0.83110 0.69610 0.52600
O 	O 	0.70400 0.70400 0.94800 -0.45000
O 	O 	0.75400 0.75400 0.69000 -0.37300
P 	P 	0.66890 0.66890 0.80390 0.52500
O 	O 	0.20400 0.20400 0.44800 -0.39600
O 	O 	0.25400 0.25400 0.19000 -0.33100
P 	P 	0.16890 0.16890 0.30390 0.52800
O 	O 	0.29600 0.29600 0.94800 -0.42700
O 	O 	0.24600 0.24600 0.69000 -0.34300
P 	P 	0.33110 0.33110 0.80390 0.53000
O 	O 	0.79600 0.79600 0.44800 -0.42100
O 	O 	0.74600 0.74600 0.19000 -0.35000
P 	P 	0.83110 0.83110 0.30390 0.52600
Fe	Fe	0.37360 0.37360 0.12120 1.22500
Fe	Fe	0.87360 0.87360 0.62120 1.17000
Fe	Fe	0.62640 0.62640 0.12120 1.22200
Fe	Fe	0.12640 0.12640 0.62120 1.23500
Fe	Fe	0.37360 0.62640 0.87880 1.18900
Fe	Fe	0.87360 0.12640 0.37880 1.20200
Fe	Fe	0.62640 0.37360 0.87880 1.18900
Fe	Fe	0.12640 0.87360 0.37880 1.20200
