data_crystal

_cell_length_a 14.90900
_cell_length_b 7.19630
_cell_length_c 24.59200
_cell_angle_alpha 90.00000
_cell_angle_beta  104.31200
_cell_angle_gamma 90.00000

_symmetry_space_group_name_	'P 1'
_symmetry_space_group_name_H-M	'P 1'

loop_
_symmetry_equiv_pos_as_xyz
  x,y,z

loop_
_atom_site_label
_atom_site_type_symbol
_atom_site_fract_x
_atom_site_fract_y
_atom_site_fract_z
_atom_site_charge
C 	C 	0.41460 0.28790 0.41660 0.36500
C 	C 	0.35660 0.19850 0.36471 -0.09000
C 	C 	0.37900 0.02420 0.34713 0.01000
H 	H 	0.42910 0.95920 0.36890 0.04100
C 	C 	0.32890 0.94850 0.29880 -0.05400
H 	H 	0.34600 0.83330 0.28750 0.04700
C 	C 	0.25300 0.03810 0.26605 -0.08100
C 	C 	0.22840 0.21070 0.28350 -0.03600
H 	H 	0.17620 0.27190 0.26260 0.01600
C 	C 	0.28070 0.28960 0.33100 -0.00800
H 	H 	0.26540 0.40750 0.34120 0.03300
C 	C 	0.13590 0.79010 0.23961 -0.83000
H 	H 	0.11010 0.84830 0.26740 0.25900
H 	H 	0.17630 0.69100 0.25660 0.26700
H 	H 	0.08690 0.74090 0.21020 0.25700
C 	C 	0.19120 0.93440 0.21498 0.37300
C 	C 	0.12150 0.05870 0.17580 -0.82800
H 	H 	0.15370 0.15060 0.15970 0.27300
H 	H 	0.08310 0.11910 0.19660 0.26100
H 	H 	0.08350 0.98480 0.14650 0.26500
C 	C 	0.25080 0.84560 0.17897 -0.10400
C 	C 	0.31840 0.95340 0.16528 -0.03100
H 	H 	0.33010 0.07200 0.18040 0.04300
C 	C 	0.36900 0.88630 0.12900 -0.02000
H 	H 	0.41210 0.96390 0.11890 0.05300
C 	C 	0.35750 0.70750 0.10736 -0.07600
C 	C 	0.28820 0.59730 0.12100 -0.02600
H 	H 	0.27680 0.47810 0.10630 0.05000
C 	C 	0.23600 0.66750 0.15710 -0.01400
H 	H 	0.19100 0.59320 0.16640 0.01600
C 	C 	0.41210 0.63580 0.06815 0.37600
C 	C 	0.70700 0.03460 0.51840 0.10400
H 	H 	0.67060 0.97020 0.48810 -0.00100
C 	C 	0.75090 0.22530 0.58650 -0.00500
H 	H 	0.75150 0.32050 0.61210 0.02600
C 	C 	0.81920 0.10190 0.58830 0.01500
H 	H 	0.87550 0.09870 0.61500 0.00500
C 	C 	0.85160 0.84240 0.53228 0.12100
C 	C 	0.89680 0.71880 0.57330 -0.12800
H 	H 	0.88980 0.72840 0.60970 0.06700
C 	C 	0.95260 0.58010 0.55960 -0.01200
H 	H 	0.98130 0.49960 0.58820 0.02000
C 	C 	0.96460 0.56740 0.50580 -0.01100
C 	C 	0.91930 0.69110 0.46490 -0.00900
H 	H 	0.92470 0.68750 0.42800 0.02200
C 	C 	0.86300 0.82950 0.47840 -0.12500
H 	H 	0.83310 0.91320 0.45100 0.07700
Co	Co	0.56078 0.33794 0.51174 1.15600
N 	N 	0.67950 0.18700 0.54005 -0.22600
N 	N 	0.79260 0.98410 0.54501 -0.14500
O 	O 	0.48400 0.20350 0.44455 -0.43700
O 	O 	0.38840 0.44520 0.42984 -0.43800
O 	O 	0.47579 0.73120 0.06100 -0.45700
O 	O 	0.38350 0.48240 0.04411 -0.43400
C 	C 	0.58540 0.28790 0.08340 0.36600
C 	C 	0.64340 0.19850 0.13529 -0.09100
C 	C 	0.62100 0.02420 0.15287 0.01600
H 	H 	0.57090 0.95920 0.13110 0.04000
C 	C 	0.67110 0.94850 0.20120 -0.05700
H 	H 	0.65400 0.83330 0.21250 0.04900
C 	C 	0.74700 0.03810 0.23395 -0.07800
C 	C 	0.77160 0.21070 0.21650 -0.03700
H 	H 	0.82380 0.27190 0.23740 0.01700
C 	C 	0.71930 0.28960 0.16900 -0.00700
H 	H 	0.73460 0.40750 0.15880 0.03200
C 	C 	0.86410 0.79010 0.26039 -0.83000
H 	H 	0.88990 0.84830 0.23260 0.25900
H 	H 	0.82370 0.69100 0.24340 0.26700
H 	H 	0.91310 0.74090 0.28980 0.25700
C 	C 	0.80880 0.93440 0.28502 0.37300
C 	C 	0.87850 0.05870 0.32420 -0.82900
H 	H 	0.84630 0.15060 0.34030 0.27300
H 	H 	0.91690 0.11910 0.30340 0.26100
H 	H 	0.91650 0.98480 0.35350 0.26500
C 	C 	0.74920 0.84560 0.32103 -0.10500
C 	C 	0.68160 0.95340 0.33472 -0.03000
H 	H 	0.66990 0.07200 0.31960 0.04300
C 	C 	0.63100 0.88630 0.37100 -0.02000
H 	H 	0.58790 0.96390 0.38110 0.05300
C 	C 	0.64250 0.70750 0.39264 -0.07500
C 	C 	0.71180 0.59730 0.37900 -0.02600
H 	H 	0.72320 0.47810 0.39370 0.05000
C 	C 	0.76400 0.66750 0.34290 -0.01300
H 	H 	0.80900 0.59320 0.33360 0.01600
C 	C 	0.58790 0.63580 0.43185 0.37600
C 	C 	0.29300 0.03460 0.98160 0.10300
H 	H 	0.32940 0.97020 0.01190 -0.00000
C 	C 	0.24910 0.22530 0.91350 -0.00400
H 	H 	0.24850 0.32050 0.88790 0.02600
C 	C 	0.18080 0.10190 0.91170 0.01300
H 	H 	0.12450 0.09870 0.88500 0.00600
C 	C 	0.14840 0.84240 0.96772 0.12300
C 	C 	0.10320 0.71880 0.92670 -0.12900
H 	H 	0.11020 0.72840 0.89030 0.06700
C 	C 	0.04740 0.58010 0.94040 -0.01100
H 	H 	0.01870 0.49960 0.91180 0.02000
C 	C 	0.03540 0.56740 0.99420 -0.01100
C 	C 	0.08070 0.69110 0.03510 -0.00800
H 	H 	0.07530 0.68750 0.07200 0.02200
C 	C 	0.13700 0.82950 0.02160 -0.12700
H 	H 	0.16690 0.91320 0.04900 0.07700
Co	Co	0.43922 0.33794 0.98826 1.15600
N 	N 	0.32050 0.18700 0.95995 -0.22600
N 	N 	0.20740 0.98410 0.95499 -0.14300
O 	O 	0.51600 0.20350 0.05545 -0.43600
O 	O 	0.61160 0.44520 0.07016 -0.43800
O 	O 	0.52421 0.73120 0.43900 -0.45700
O 	O 	0.61650 0.48240 0.45589 -0.43400
C 	C 	0.58540 0.71210 0.58340 0.36600
C 	C 	0.64340 0.80150 0.63529 -0.08900
C 	C 	0.62100 0.97580 0.65287 0.01100
H 	H 	0.57090 0.04080 0.63110 0.04200
C 	C 	0.67110 0.05150 0.70120 -0.05300
H 	H 	0.65400 0.16670 0.71250 0.04800
C 	C 	0.74700 0.96190 0.73395 -0.08000
C 	C 	0.77160 0.78930 0.71650 -0.03500
H 	H 	0.82380 0.72810 0.73740 0.01600
C 	C 	0.71930 0.71040 0.66900 -0.00800
H 	H 	0.73460 0.59250 0.65880 0.03300
C 	C 	0.86410 0.20990 0.76039 -0.83000
H 	H 	0.88990 0.15170 0.73260 0.25900
H 	H 	0.82370 0.30900 0.74340 0.26700
H 	H 	0.91310 0.25910 0.78980 0.25700
C 	C 	0.80880 0.06560 0.78502 0.37300
C 	C 	0.87850 0.94130 0.82420 -0.82800
H 	H 	0.84630 0.84940 0.84030 0.27300
H 	H 	0.91690 0.88090 0.80340 0.26100
H 	H 	0.91650 0.01520 0.85350 0.26500
C 	C 	0.74920 0.15440 0.82103 -0.10400
C 	C 	0.68160 0.04660 0.83472 -0.03100
H 	H 	0.66990 0.92800 0.81960 0.04300
C 	C 	0.63100 0.11370 0.87100 -0.02000
H 	H 	0.58790 0.03610 0.88110 0.05300
C 	C 	0.64250 0.29250 0.89264 -0.07600
C 	C 	0.71180 0.40270 0.87900 -0.02600
H 	H 	0.72320 0.52190 0.89370 0.05000
C 	C 	0.76400 0.33250 0.84290 -0.01400
H 	H 	0.80900 0.40680 0.83360 0.01600
C 	C 	0.58790 0.36420 0.93185 0.37600
C 	C 	0.29300 0.96540 0.48160 0.10400
H 	H 	0.32940 0.02980 0.51190 -0.00100
C 	C 	0.24910 0.77470 0.41350 -0.00500
H 	H 	0.24850 0.67950 0.38790 0.02600
C 	C 	0.18080 0.89810 0.41170 0.01500
H 	H 	0.12450 0.90130 0.38500 0.00500
C 	C 	0.14840 0.15760 0.46772 0.12100
C 	C 	0.10320 0.28120 0.42670 -0.12800
H 	H 	0.11020 0.27160 0.39030 0.06700
C 	C 	0.04740 0.41990 0.44040 -0.01200
H 	H 	0.01870 0.50040 0.41180 0.02000
C 	C 	0.03540 0.43260 0.49420 -0.01100
C 	C 	0.08070 0.30890 0.53510 -0.00900
H 	H 	0.07530 0.31250 0.57200 0.02200
C 	C 	0.13700 0.17050 0.52160 -0.12500
H 	H 	0.16690 0.08680 0.54900 0.07700
Co	Co	0.43922 0.66206 0.48826 1.15600
N 	N 	0.32050 0.81300 0.45995 -0.22600
N 	N 	0.20740 0.01590 0.45499 -0.14500
O 	O 	0.51600 0.79650 0.55545 -0.43700
O 	O 	0.61160 0.55480 0.57016 -0.43800
O 	O 	0.52421 0.26880 0.93900 -0.45700
O 	O 	0.61650 0.51760 0.95589 -0.43400
C 	C 	0.41460 0.71210 0.91660 0.36600
C 	C 	0.35660 0.80150 0.86471 -0.09100
C 	C 	0.37900 0.97580 0.84713 0.01600
H 	H 	0.42910 0.04080 0.86890 0.04000
C 	C 	0.32890 0.05150 0.79880 -0.05700
H 	H 	0.34600 0.16670 0.78750 0.04900
C 	C 	0.25300 0.96190 0.76605 -0.07800
C 	C 	0.22840 0.78930 0.78350 -0.03700
H 	H 	0.17620 0.72810 0.76260 0.01700
C 	C 	0.28070 0.71040 0.83100 -0.00700
H 	H 	0.26540 0.59250 0.84120 0.03200
C 	C 	0.13590 0.20990 0.73961 -0.83000
H 	H 	0.11010 0.15170 0.76740 0.25900
H 	H 	0.17630 0.30900 0.75660 0.26700
H 	H 	0.08690 0.25910 0.71020 0.25700
C 	C 	0.19120 0.06560 0.71498 0.37300
C 	C 	0.12150 0.94130 0.67580 -0.82900
H 	H 	0.15370 0.84940 0.65970 0.27300
H 	H 	0.08310 0.88090 0.69660 0.26100
H 	H 	0.08350 0.01520 0.64650 0.26500
C 	C 	0.25080 0.15440 0.67897 -0.10500
C 	C 	0.31840 0.04660 0.66528 -0.03000
H 	H 	0.33010 0.92800 0.68040 0.04300
C 	C 	0.36900 0.11370 0.62900 -0.02000
H 	H 	0.41210 0.03610 0.61890 0.05300
C 	C 	0.35750 0.29250 0.60736 -0.07500
C 	C 	0.28820 0.40270 0.62100 -0.02600
H 	H 	0.27680 0.52190 0.60630 0.05000
C 	C 	0.23600 0.33250 0.65710 -0.01300
H 	H 	0.19100 0.40680 0.66640 0.01600
C 	C 	0.41210 0.36420 0.56815 0.37600
C 	C 	0.70700 0.96540 0.01840 0.10300
H 	H 	0.67060 0.02980 0.98810 -0.00000
C 	C 	0.75090 0.77470 0.08650 -0.00400
H 	H 	0.75150 0.67950 0.11210 0.02600
C 	C 	0.81920 0.89810 0.08830 0.01300
H 	H 	0.87550 0.90130 0.11500 0.00600
C 	C 	0.85160 0.15760 0.03228 0.12300
C 	C 	0.89680 0.28120 0.07330 -0.12900
H 	H 	0.88980 0.27160 0.10970 0.06700
C 	C 	0.95260 0.41990 0.05960 -0.01100
H 	H 	0.98130 0.50040 0.08820 0.02000
C 	C 	0.96460 0.43260 0.00580 -0.01100
C 	C 	0.91930 0.30890 0.96490 -0.00800
H 	H 	0.92470 0.31250 0.92800 0.02200
C 	C 	0.86300 0.17050 0.97840 -0.12700
H 	H 	0.83310 0.08680 0.95100 0.07700
Co	Co	0.56078 0.66206 0.01174 1.15600
N 	N 	0.67950 0.81300 0.04005 -0.22600
N 	N 	0.79260 0.01590 0.04501 -0.14300
O 	O 	0.48400 0.79650 0.94455 -0.43600
O 	O 	0.38840 0.55480 0.92984 -0.43800
O 	O 	0.47579 0.26880 0.56100 -0.45700
O 	O 	0.38350 0.51760 0.54411 -0.43400
