data_crystal

_cell_length_a 16.21000
_cell_length_b 16.21000
_cell_length_c 16.21000
_cell_angle_alpha 90.00000
_cell_angle_beta  90.00000
_cell_angle_gamma 90.00000

_symmetry_space_group_name_	'P 1'
_symmetry_space_group_name_H-M	'P 1'

loop_
_symmetry_equiv_pos_as_xyz
  x,y,z

loop_
_atom_site_label
_atom_site_type_symbol
_atom_site_fract_x
_atom_site_fract_y
_atom_site_fract_z
_atom_site_charge
S 	S 	0.91162 0.10896 0.84046 0.42400
C 	C 	0.83660 0.17210 0.89500 0.86700
O 	O 	0.90590 0.03020 0.87470 -0.20100
O 	O 	0.99120 0.15140 0.86590 -0.23100
O 	O 	0.89810 0.87790 0.74340 -0.17900
F 	F 	0.83900 0.24710 0.86730 -0.37800
F 	F 	0.85010 0.17310 0.97100 -0.41400
F 	F 	0.76310 0.14200 0.88140 -0.38000
H 	H 	0.00900 0.14130 0.92040 0.27800
S 	S 	0.41162 0.60896 0.34046 0.42400
C 	C 	0.33660 0.67210 0.39500 0.86700
O 	O 	0.40590 0.53020 0.37470 -0.20100
O 	O 	0.49120 0.65140 0.36590 -0.23100
O 	O 	0.39810 0.37790 0.24340 -0.17900
F 	F 	0.33900 0.74710 0.36730 -0.37800
F 	F 	0.35010 0.67310 0.47100 -0.41400
F 	F 	0.26310 0.64200 0.38140 -0.38000
H 	H 	0.50900 0.64130 0.42040 0.27800
S 	S 	0.58838 0.89104 0.34046 0.42400
C 	C 	0.66340 0.82790 0.39500 0.86700
O 	O 	0.59410 0.96980 0.37470 -0.20100
O 	O 	0.50880 0.84860 0.36590 -0.23100
O 	O 	0.60190 0.12210 0.24340 -0.17900
F 	F 	0.66100 0.75290 0.36730 -0.37800
F 	F 	0.64990 0.82690 0.47100 -0.41300
F 	F 	0.73690 0.85800 0.38140 -0.37900
H 	H 	0.49100 0.85870 0.42040 0.27900
S 	S 	0.08838 0.39104 0.84046 0.42500
C 	C 	0.16340 0.32790 0.89500 0.86800
O 	O 	0.09410 0.46980 0.87470 -0.20000
O 	O 	0.00880 0.34860 0.86590 -0.23000
O 	O 	0.10190 0.62210 0.74340 -0.17800
F 	F 	0.16100 0.25290 0.86730 -0.37700
F 	F 	0.14990 0.32690 0.97100 -0.41300
F 	F 	0.23690 0.35800 0.88140 -0.37900
H 	H 	0.99100 0.35870 0.92040 0.27900
S 	S 	0.08838 0.60896 0.65954 0.42500
C 	C 	0.16340 0.67210 0.60500 0.86800
O 	O 	0.09410 0.53020 0.62530 -0.20000
O 	O 	0.00880 0.65140 0.63410 -0.23000
O 	O 	0.10190 0.37790 0.75660 -0.17800
F 	F 	0.16100 0.74710 0.63270 -0.37700
F 	F 	0.14990 0.67310 0.52900 -0.41300
F 	F 	0.23690 0.64200 0.61860 -0.37900
H 	H 	0.99100 0.64130 0.57960 0.27900
S 	S 	0.58838 0.10896 0.15954 0.42500
C 	C 	0.66340 0.17210 0.10500 0.86800
O 	O 	0.59410 0.03020 0.12530 -0.20000
O 	O 	0.50880 0.15140 0.13410 -0.23000
O 	O 	0.60190 0.87790 0.25660 -0.17800
F 	F 	0.66100 0.24710 0.13270 -0.37700
F 	F 	0.64990 0.17310 0.02900 -0.41300
F 	F 	0.73690 0.14200 0.11860 -0.37900
H 	H 	0.49100 0.14130 0.07960 0.27900
S 	S 	0.41162 0.39104 0.15954 0.42500
C 	C 	0.33660 0.32790 0.10500 0.86800
O 	O 	0.40590 0.46980 0.12530 -0.20000
O 	O 	0.49120 0.34860 0.13410 -0.23000
O 	O 	0.39810 0.62210 0.25660 -0.17800
F 	F 	0.33900 0.25290 0.13270 -0.37700
F 	F 	0.35010 0.32690 0.02900 -0.41300
F 	F 	0.26310 0.35800 0.11860 -0.37900
H 	H 	0.50900 0.35870 0.07960 0.27900
S 	S 	0.91162 0.89104 0.65954 0.42500
C 	C 	0.83660 0.82790 0.60500 0.86800
O 	O 	0.90590 0.96980 0.62530 -0.20000
O 	O 	0.99120 0.84860 0.63410 -0.23000
O 	O 	0.89810 0.12210 0.75660 -0.17800
F 	F 	0.83900 0.75290 0.63270 -0.37700
F 	F 	0.85010 0.82690 0.52900 -0.41300
F 	F 	0.76310 0.85800 0.61860 -0.37900
H 	H 	0.00900 0.85870 0.57960 0.27900
S 	S 	0.84046 0.91162 0.10896 0.42500
C 	C 	0.89500 0.83660 0.17210 0.86800
O 	O 	0.87470 0.90590 0.03020 -0.20000
O 	O 	0.86590 0.99120 0.15140 -0.23000
O 	O 	0.74340 0.89810 0.87790 -0.17800
F 	F 	0.86730 0.83900 0.24710 -0.37700
F 	F 	0.97100 0.85010 0.17310 -0.41300
F 	F 	0.88140 0.76310 0.14200 -0.37900
H 	H 	0.92040 0.00900 0.14130 0.27900
S 	S 	0.34046 0.41162 0.60896 0.42500
C 	C 	0.39500 0.33660 0.67210 0.86800
O 	O 	0.37470 0.40590 0.53020 -0.20000
O 	O 	0.36590 0.49120 0.65140 -0.23000
O 	O 	0.24340 0.39810 0.37790 -0.17800
F 	F 	0.36730 0.33900 0.74710 -0.37700
F 	F 	0.47100 0.35010 0.67310 -0.41300
F 	F 	0.38140 0.26310 0.64200 -0.37900
H 	H 	0.42040 0.50900 0.64130 0.27900
S 	S 	0.34046 0.58838 0.89104 0.42500
C 	C 	0.39500 0.66340 0.82790 0.86800
O 	O 	0.37470 0.59410 0.96980 -0.20000
O 	O 	0.36590 0.50880 0.84860 -0.23000
O 	O 	0.24340 0.60190 0.12210 -0.17800
F 	F 	0.36730 0.66100 0.75290 -0.37700
F 	F 	0.47100 0.64990 0.82690 -0.41300
F 	F 	0.38140 0.73690 0.85800 -0.37900
H 	H 	0.42040 0.49100 0.85870 0.27900
S 	S 	0.84046 0.08838 0.39104 0.42500
C 	C 	0.89500 0.16340 0.32790 0.86800
O 	O 	0.87470 0.09410 0.46980 -0.20000
O 	O 	0.86590 0.00880 0.34860 -0.23000
O 	O 	0.74340 0.10190 0.62210 -0.17800
F 	F 	0.86730 0.16100 0.25290 -0.37700
F 	F 	0.97100 0.14990 0.32690 -0.41300
F 	F 	0.88140 0.23690 0.35800 -0.37900
H 	H 	0.92040 0.99100 0.35870 0.27900
S 	S 	0.65954 0.08838 0.60896 0.42500
C 	C 	0.60500 0.16340 0.67210 0.86800
O 	O 	0.62530 0.09410 0.53020 -0.20000
O 	O 	0.63410 0.00880 0.65140 -0.23000
O 	O 	0.75660 0.10190 0.37790 -0.17800
F 	F 	0.63270 0.16100 0.74710 -0.37700
F 	F 	0.52900 0.14990 0.67310 -0.41300
F 	F 	0.61860 0.23690 0.64200 -0.37900
H 	H 	0.57960 0.99100 0.64130 0.27900
S 	S 	0.15954 0.58838 0.10896 0.42500
C 	C 	0.10500 0.66340 0.17210 0.86800
O 	O 	0.12530 0.59410 0.03020 -0.20000
O 	O 	0.13410 0.50880 0.15140 -0.23000
O 	O 	0.25660 0.60190 0.87790 -0.17800
F 	F 	0.13270 0.66100 0.24710 -0.37700
F 	F 	0.02900 0.64990 0.17310 -0.41300
F 	F 	0.11860 0.73690 0.14200 -0.37900
H 	H 	0.07960 0.49100 0.14130 0.27900
S 	S 	0.15954 0.41162 0.39104 0.42500
C 	C 	0.10500 0.33660 0.32790 0.86800
O 	O 	0.12530 0.40590 0.46980 -0.20000
O 	O 	0.13410 0.49120 0.34860 -0.23000
O 	O 	0.25660 0.39810 0.62210 -0.17800
F 	F 	0.13270 0.33900 0.25290 -0.37700
F 	F 	0.02900 0.35010 0.32690 -0.41300
F 	F 	0.11860 0.26310 0.35800 -0.37900
H 	H 	0.07960 0.50900 0.35870 0.27900
S 	S 	0.65954 0.91162 0.89104 0.42500
C 	C 	0.60500 0.83660 0.82790 0.86800
O 	O 	0.62530 0.90590 0.96980 -0.20000
O 	O 	0.63410 0.99120 0.84860 -0.23000
O 	O 	0.75660 0.89810 0.12210 -0.17800
F 	F 	0.63270 0.83900 0.75290 -0.37700
F 	F 	0.52900 0.85010 0.82690 -0.41300
F 	F 	0.61860 0.76310 0.85800 -0.37900
H 	H 	0.57960 0.00900 0.85870 0.27900
S 	S 	0.10896 0.84046 0.91162 0.42500
C 	C 	0.17210 0.89500 0.83660 0.86800
O 	O 	0.03020 0.87470 0.90590 -0.20000
O 	O 	0.15140 0.86590 0.99120 -0.23000
O 	O 	0.87790 0.74340 0.89810 -0.17800
F 	F 	0.24710 0.86730 0.83900 -0.37700
F 	F 	0.17310 0.97100 0.85010 -0.41300
F 	F 	0.14200 0.88140 0.76310 -0.37900
H 	H 	0.14130 0.92040 0.00900 0.27900
S 	S 	0.60896 0.34046 0.41162 0.42500
C 	C 	0.67210 0.39500 0.33660 0.86800
O 	O 	0.53020 0.37470 0.40590 -0.20000
O 	O 	0.65140 0.36590 0.49120 -0.23000
O 	O 	0.37790 0.24340 0.39810 -0.17800
F 	F 	0.74710 0.36730 0.33900 -0.37700
F 	F 	0.67310 0.47100 0.35010 -0.41300
F 	F 	0.64200 0.38140 0.26310 -0.37900
H 	H 	0.64130 0.42040 0.50900 0.27900
S 	S 	0.89104 0.34046 0.58838 0.42500
C 	C 	0.82790 0.39500 0.66340 0.86800
O 	O 	0.96980 0.37470 0.59410 -0.20000
O 	O 	0.84860 0.36590 0.50880 -0.23000
O 	O 	0.12210 0.24340 0.60190 -0.17800
F 	F 	0.75290 0.36730 0.66100 -0.37700
F 	F 	0.82690 0.47100 0.64990 -0.41300
F 	F 	0.85800 0.38140 0.73690 -0.37900
H 	H 	0.85870 0.42040 0.49100 0.27900
S 	S 	0.39104 0.84046 0.08838 0.42500
C 	C 	0.32790 0.89500 0.16340 0.86800
O 	O 	0.46980 0.87470 0.09410 -0.20000
O 	O 	0.34860 0.86590 0.00880 -0.23000
O 	O 	0.62210 0.74340 0.10190 -0.17800
F 	F 	0.25290 0.86730 0.16100 -0.37700
F 	F 	0.32690 0.97100 0.14990 -0.41300
F 	F 	0.35800 0.88140 0.23690 -0.37900
H 	H 	0.35870 0.92040 0.99100 0.27900
S 	S 	0.60896 0.65954 0.08838 0.42500
C 	C 	0.67210 0.60500 0.16340 0.86800
O 	O 	0.53020 0.62530 0.09410 -0.20000
O 	O 	0.65140 0.63410 0.00880 -0.23000
O 	O 	0.37790 0.75660 0.10190 -0.17800
F 	F 	0.74710 0.63270 0.16100 -0.37700
F 	F 	0.67310 0.52900 0.14990 -0.41300
F 	F 	0.64200 0.61860 0.23690 -0.37900
H 	H 	0.64130 0.57960 0.99100 0.27900
S 	S 	0.10896 0.15954 0.58838 0.42500
C 	C 	0.17210 0.10500 0.66340 0.86800
O 	O 	0.03020 0.12530 0.59410 -0.20000
O 	O 	0.15140 0.13410 0.50880 -0.23000
O 	O 	0.87790 0.25660 0.60190 -0.17800
F 	F 	0.24710 0.13270 0.66100 -0.37700
F 	F 	0.17310 0.02900 0.64990 -0.41300
F 	F 	0.14200 0.11860 0.73690 -0.37900
H 	H 	0.14130 0.07960 0.49100 0.27900
S 	S 	0.39104 0.15954 0.41162 0.42500
C 	C 	0.32790 0.10500 0.33660 0.86800
O 	O 	0.46980 0.12530 0.40590 -0.20000
O 	O 	0.34860 0.13410 0.49120 -0.23000
O 	O 	0.62210 0.25660 0.39810 -0.17800
F 	F 	0.25290 0.13270 0.33900 -0.37700
F 	F 	0.32690 0.02900 0.35010 -0.41300
F 	F 	0.35800 0.11860 0.26310 -0.37900
H 	H 	0.35870 0.07960 0.50900 0.27900
S 	S 	0.89104 0.65954 0.91162 0.42500
C 	C 	0.82790 0.60500 0.83660 0.86800
O 	O 	0.96980 0.62530 0.90590 -0.20000
O 	O 	0.84860 0.63410 0.99120 -0.23000
O 	O 	0.12210 0.75660 0.89810 -0.17800
F 	F 	0.75290 0.63270 0.83900 -0.37700
F 	F 	0.82690 0.52900 0.85010 -0.41300
F 	F 	0.85800 0.61860 0.76310 -0.37900
H 	H 	0.85870 0.57960 0.00900 0.27900
Na	Na	0.88665 0.88665 0.88665 0.61800
Na	Na	0.38665 0.38665 0.38665 0.61800
Na	Na	0.61335 0.11335 0.38665 0.61800
Na	Na	0.11335 0.61335 0.88665 0.61800
Na	Na	0.11335 0.38665 0.61335 0.61800
Na	Na	0.61335 0.88665 0.11335 0.61800
Na	Na	0.38665 0.61335 0.11335 0.61800
Na	Na	0.88665 0.11335 0.61335 0.61800
