data_crystal

_cell_length_a 5.45900
_cell_length_b 26.59810
_cell_length_c 36.76010
_cell_angle_alpha 90.00000
_cell_angle_beta  90.00000
_cell_angle_gamma 91.40600

_symmetry_space_group_name_	'P 1'
_symmetry_space_group_name_H-M	'P 1'

loop_
_symmetry_equiv_pos_as_xyz
  x,y,z

loop_
_atom_site_label
_atom_site_type_symbol
_atom_site_fract_x
_atom_site_fract_y
_atom_site_fract_z
_atom_site_charge
U 	U 	0.89873 0.53673 0.06285 0.02700
U 	U 	0.68471 0.61862 0.19080 0.01200
U 	U 	0.44725 0.03806 0.09971 0.05800
U 	U 	0.10127 0.96327 0.56285 0.02700
U 	U 	0.31529 0.88138 0.69080 0.01200
U 	U 	0.55275 0.46194 0.59971 0.05800
U 	U 	0.10127 0.46327 0.93715 0.02600
U 	U 	0.31529 0.38138 0.80920 0.01100
U 	U 	0.55275 0.96194 0.90029 0.05700
U 	U 	0.89873 0.03673 0.43715 0.02600
U 	U 	0.68471 0.11862 0.30920 0.01100
U 	U 	0.44725 0.53806 0.40029 0.05700
H 	H 	0.91830 0.31030 0.17130 0.08300
H 	H 	0.60050 0.57680 0.94140 0.11400
H 	H 	0.19700 0.66610 0.00460 0.08000
H 	H 	0.43740 0.65500 0.07360 0.11500
H 	H 	0.65170 0.41000 0.13410 0.08300
H 	H 	0.93320 0.75460 0.98610 0.09000
H 	H 	0.41270 0.73540 0.98350 0.07400
H 	H 	0.20140 0.50320 0.18490 0.11300
H 	H 	0.75910 0.23930 0.19930 0.08300
H 	H 	0.90290 0.82640 0.87170 0.09000
H 	H 	0.27170 0.79860 0.13920 0.06300
H 	H 	0.01660 0.72950 0.14370 0.07900
H 	H 	0.17290 0.82470 0.97300 0.07300
H 	H 	0.74500 0.81350 0.15430 0.08000
H 	H 	0.46720 0.34260 0.16360 0.08300
H 	H 	0.98390 0.88630 0.15790 0.07400
H 	H 	0.16790 0.27010 0.28770 0.09500
H 	H 	0.86210 0.91330 0.05260 0.09800
H 	H 	0.29260 0.09620 0.05260 0.21500
H 	H 	0.06630 0.06910 0.07100 0.19900
H 	H 	0.81140 0.03380 0.14000 0.22100
H 	H 	0.73320 0.97900 0.12840 0.21100
H 	H 	0.36120 0.10120 0.14600 0.21600
H 	H 	0.30930 0.04800 0.16300 0.22800
H 	H 	0.75170 0.02550 0.05300 0.21000
H 	H 	0.50900 0.99640 0.04240 0.21900
H 	H 	0.08170 0.18970 0.67130 0.08300
H 	H 	0.39950 0.92320 0.44140 0.11400
H 	H 	0.80300 0.83390 0.50460 0.08000
H 	H 	0.56260 0.84500 0.57360 0.11500
H 	H 	0.34830 0.09000 0.63410 0.08300
H 	H 	0.06680 0.74540 0.48610 0.09000
H 	H 	0.58730 0.76460 0.48350 0.07400
H 	H 	0.79860 0.99680 0.68490 0.11300
H 	H 	0.24090 0.26070 0.69930 0.08300
H 	H 	0.09710 0.67360 0.37170 0.09000
H 	H 	0.72830 0.70140 0.63920 0.06300
H 	H 	0.98340 0.77050 0.64370 0.07900
H 	H 	0.82710 0.67530 0.47300 0.07300
H 	H 	0.25500 0.68650 0.65430 0.08000
H 	H 	0.53280 0.15740 0.66360 0.08300
H 	H 	0.01610 0.61370 0.65790 0.07400
H 	H 	0.83210 0.22990 0.78770 0.09500
H 	H 	0.13790 0.58670 0.55260 0.09800
H 	H 	0.70740 0.40380 0.55260 0.21500
H 	H 	0.93370 0.43090 0.57100 0.19900
H 	H 	0.18860 0.46620 0.64000 0.22100
H 	H 	0.26680 0.52100 0.62840 0.21100
H 	H 	0.63880 0.39880 0.64600 0.21600
H 	H 	0.69070 0.45200 0.66300 0.22800
H 	H 	0.24830 0.47450 0.55300 0.21000
H 	H 	0.49100 0.50360 0.54240 0.21900
H 	H 	0.08170 0.68970 0.82870 0.08300
H 	H 	0.39950 0.42320 0.05860 0.11400
H 	H 	0.80300 0.33390 0.99540 0.08000
H 	H 	0.56260 0.34500 0.92640 0.11500
H 	H 	0.34830 0.59000 0.86590 0.08300
H 	H 	0.06680 0.24540 0.01390 0.09000
H 	H 	0.58730 0.26460 0.01650 0.07400
H 	H 	0.79860 0.49680 0.81510 0.11300
H 	H 	0.24090 0.76070 0.80070 0.08300
H 	H 	0.09710 0.17360 0.12830 0.09000
H 	H 	0.72830 0.20140 0.86080 0.06300
H 	H 	0.98340 0.27050 0.85630 0.07900
H 	H 	0.82710 0.17530 0.02700 0.07300
H 	H 	0.25500 0.18650 0.84570 0.08000
H 	H 	0.53280 0.65740 0.83640 0.08300
H 	H 	0.01610 0.11370 0.84210 0.07400
H 	H 	0.83210 0.72990 0.71230 0.09500
H 	H 	0.13790 0.08670 0.94740 0.09800
H 	H 	0.70740 0.90380 0.94740 0.21500
H 	H 	0.93370 0.93090 0.92900 0.19900
H 	H 	0.18860 0.96620 0.86000 0.22100
H 	H 	0.26680 0.02100 0.87160 0.21100
H 	H 	0.63880 0.89880 0.85400 0.21600
H 	H 	0.69070 0.95200 0.83700 0.22800
H 	H 	0.24830 0.97450 0.94700 0.21000
H 	H 	0.49100 0.00360 0.95760 0.21900
H 	H 	0.91830 0.81030 0.32870 0.08300
H 	H 	0.60050 0.07680 0.55860 0.11400
H 	H 	0.19700 0.16610 0.49540 0.08000
H 	H 	0.43740 0.15500 0.42640 0.11500
H 	H 	0.65170 0.91000 0.36590 0.08300
H 	H 	0.93320 0.25460 0.51390 0.09000
H 	H 	0.41270 0.23540 0.51650 0.07400
H 	H 	0.20140 0.00320 0.31510 0.11300
H 	H 	0.75910 0.73930 0.30070 0.08300
H 	H 	0.90290 0.32640 0.62830 0.09000
H 	H 	0.27170 0.29860 0.36080 0.06300
H 	H 	0.01660 0.22950 0.35630 0.07900
H 	H 	0.17290 0.32470 0.52700 0.07300
H 	H 	0.74500 0.31350 0.34570 0.08000
H 	H 	0.46720 0.84260 0.33640 0.08300
H 	H 	0.98390 0.38630 0.34210 0.07400
H 	H 	0.16790 0.77010 0.21230 0.09500
H 	H 	0.86210 0.41330 0.44740 0.09800
H 	H 	0.29260 0.59620 0.44740 0.21500
H 	H 	0.06630 0.56910 0.42900 0.19900
H 	H 	0.81140 0.53380 0.36000 0.22100
H 	H 	0.73320 0.47900 0.37160 0.21100
H 	H 	0.36120 0.60120 0.35400 0.21600
H 	H 	0.30930 0.54800 0.33700 0.22800
H 	H 	0.75170 0.52550 0.44700 0.21000
H 	H 	0.50900 0.49640 0.45760 0.21900
C 	C 	0.96490 0.30290 0.19500 -0.02900
C 	C 	0.23010 0.56940 0.98700 0.26800
C 	C 	0.03720 0.63970 0.11420 0.25900
C 	C 	0.69010 0.65140 0.93770 0.08900
C 	C 	0.63190 0.69990 0.94810 0.01400
C 	C 	0.37440 0.61420 0.97480 0.00700
C 	C 	0.45010 0.46360 0.15760 0.00500
C 	C 	0.56110 0.60860 0.94990 -0.07100
C 	C 	0.12530 0.95110 0.10640 0.30900
C 	C 	0.58220 0.50860 0.14150 0.27700
C 	C 	0.54880 0.72720 0.08230 0.09500
C 	C 	0.76110 0.77110 0.90330 0.08000
C 	C 	0.32020 0.66220 0.98740 -0.02500
C 	C 	0.65350 0.81930 0.10160 0.02200
C 	C 	0.20020 0.68490 0.10920 0.01500
C 	C 	0.94800 0.24740 0.24580 0.00300
C 	C 	0.40120 0.68410 0.08630 -0.07700
C 	C 	0.77140 0.74690 0.93720 0.02500
C 	C 	0.23100 0.38130 0.19420 0.02300
C 	C 	0.52670 0.41530 0.15080 -0.02100
C 	C 	0.50260 0.77140 0.10160 0.01100
C 	C 	0.92690 0.76860 0.96290 -0.06000
C 	C 	0.95540 0.90600 0.10550 -0.03800
C 	C 	0.12750 0.33570 0.21320 0.00800
C 	C 	0.44890 0.70380 0.97450 -0.03500
C 	C 	0.14990 0.43060 0.19890 0.08900
C 	C 	0.19770 0.32190 0.24760 0.09000
C 	C 	0.25830 0.47100 0.18110 -0.07000
C 	C 	0.87240 0.25980 0.21140 -0.02800
C 	C 	0.91010 0.81190 0.89470 -0.05500
C 	C 	0.30330 0.77030 0.12520 -0.03400
C 	C 	0.15250 0.72860 0.12840 -0.03100
C 	C 	0.07260 0.83140 0.92080 -0.04200
C 	C 	0.24190 0.87490 0.91280 0.30600
C 	C 	0.07350 0.81060 0.95500 -0.00800
C 	C 	0.76690 0.83340 0.13370 -0.06000
C 	C 	0.41600 0.37500 0.16880 -0.03800
C 	C 	0.68650 0.85110 0.07200 0.08300
C 	C 	0.91400 0.87690 0.13580 -0.00900
C 	C 	0.11500 0.27840 0.26450 -0.08400
C 	C 	0.83900 0.89350 0.07320 -0.05300
C 	C 	0.84500 0.20280 0.26620 0.26800
C 	C 	0.03510 0.19710 0.69500 -0.02900
C 	C 	0.76990 0.93060 0.48700 0.26800
C 	C 	0.96280 0.86030 0.61420 0.25800
C 	C 	0.30990 0.84860 0.43770 0.08900
C 	C 	0.36810 0.80010 0.44810 0.01400
C 	C 	0.62560 0.88580 0.47480 0.00700
C 	C 	0.54990 0.03640 0.65760 0.00500
C 	C 	0.43890 0.89140 0.44990 -0.07100
C 	C 	0.87470 0.54890 0.60640 0.30900
C 	C 	0.41780 0.99140 0.64150 0.27700
C 	C 	0.45120 0.77280 0.58230 0.09500
C 	C 	0.23890 0.72890 0.40330 0.08000
C 	C 	0.67980 0.83780 0.48740 -0.02500
C 	C 	0.34650 0.68070 0.60160 0.02200
C 	C 	0.79980 0.81510 0.60920 0.01500
C 	C 	0.05200 0.25260 0.74580 0.00300
C 	C 	0.59880 0.81590 0.58630 -0.07700
C 	C 	0.22860 0.75310 0.43720 0.02500
C 	C 	0.76900 0.11870 0.69420 0.02300
C 	C 	0.47330 0.08470 0.65080 -0.02100
C 	C 	0.49740 0.72860 0.60160 0.01100
C 	C 	0.07310 0.73140 0.46290 -0.05900
C 	C 	0.04460 0.59400 0.60550 -0.03800
C 	C 	0.87250 0.16430 0.71320 0.00800
C 	C 	0.55110 0.79620 0.47450 -0.03500
C 	C 	0.85010 0.06940 0.69890 0.08900
C 	C 	0.80230 0.17810 0.74760 0.09000
C 	C 	0.74170 0.02900 0.68110 -0.07000
C 	C 	0.12760 0.24020 0.71140 -0.02800
C 	C 	0.08990 0.68810 0.39470 -0.05500
C 	C 	0.69670 0.72970 0.62520 -0.03400
C 	C 	0.84750 0.77140 0.62840 -0.03100
C 	C 	0.92740 0.66860 0.42080 -0.04200
C 	C 	0.75810 0.62510 0.41280 0.30600
C 	C 	0.92650 0.68940 0.45500 -0.00800
C 	C 	0.23310 0.66660 0.63370 -0.06000
C 	C 	0.58400 0.12500 0.66880 -0.03800
C 	C 	0.31350 0.64890 0.57200 0.08300
C 	C 	0.08600 0.62310 0.63580 -0.01000
C 	C 	0.88500 0.22160 0.76450 -0.08400
C 	C 	0.16100 0.60650 0.57320 -0.05300
C 	C 	0.15500 0.29720 0.76620 0.26800
C 	C 	0.03510 0.69710 0.80500 -0.02900
C 	C 	0.76990 0.43060 0.01300 0.26800
C 	C 	0.96280 0.36030 0.88580 0.25900
C 	C 	0.30990 0.34860 0.06230 0.08900
C 	C 	0.36810 0.30010 0.05190 0.01400
C 	C 	0.62560 0.38580 0.02520 0.00700
C 	C 	0.54990 0.53640 0.84240 0.00500
C 	C 	0.43890 0.39140 0.05010 -0.07100
C 	C 	0.87470 0.04890 0.89360 0.30900
C 	C 	0.41780 0.49140 0.85850 0.27700
C 	C 	0.45120 0.27280 0.91770 0.09500
C 	C 	0.23890 0.22890 0.09670 0.08000
C 	C 	0.67980 0.33780 0.01260 -0.02500
C 	C 	0.34650 0.18070 0.89840 0.02200
C 	C 	0.79980 0.31510 0.89080 0.01500
C 	C 	0.05200 0.75260 0.75420 0.00300
C 	C 	0.59880 0.31590 0.91370 -0.07700
C 	C 	0.22860 0.25310 0.06280 0.02500
C 	C 	0.76900 0.61870 0.80580 0.02300
C 	C 	0.47330 0.58470 0.84920 -0.02100
C 	C 	0.49740 0.22860 0.89840 0.01100
C 	C 	0.07310 0.23140 0.03710 -0.06000
C 	C 	0.04460 0.09400 0.89450 -0.03800
C 	C 	0.87250 0.66430 0.78680 0.00800
C 	C 	0.55110 0.29620 0.02550 -0.03500
C 	C 	0.85010 0.56940 0.80110 0.08900
C 	C 	0.80230 0.67810 0.75240 0.09000
C 	C 	0.74170 0.52900 0.81890 -0.07000
C 	C 	0.12760 0.74020 0.78860 -0.02800
C 	C 	0.08990 0.18810 0.10530 -0.05500
C 	C 	0.69670 0.22970 0.87480 -0.03400
C 	C 	0.84750 0.27140 0.87160 -0.03100
C 	C 	0.92740 0.16860 0.07920 -0.04200
C 	C 	0.75810 0.12510 0.08720 0.30600
C 	C 	0.92650 0.18940 0.04500 -0.00800
C 	C 	0.23310 0.16660 0.86630 -0.06000
C 	C 	0.58400 0.62500 0.83120 -0.03800
C 	C 	0.31350 0.14890 0.92800 0.08300
C 	C 	0.08600 0.12310 0.86420 -0.00900
C 	C 	0.88500 0.72160 0.73550 -0.08400
C 	C 	0.16100 0.10650 0.92680 -0.05300
C 	C 	0.15500 0.79720 0.73380 0.26800
C 	C 	0.96490 0.80290 0.30500 -0.02900
C 	C 	0.23010 0.06940 0.51300 0.26800
C 	C 	0.03720 0.13970 0.38580 0.25800
C 	C 	0.69010 0.15140 0.56230 0.08900
C 	C 	0.63190 0.19990 0.55190 0.01400
C 	C 	0.37440 0.11420 0.52520 0.00700
C 	C 	0.45010 0.96360 0.34240 0.00500
C 	C 	0.56110 0.10860 0.55010 -0.07100
C 	C 	0.12530 0.45110 0.39360 0.30900
C 	C 	0.58220 0.00860 0.35850 0.27700
C 	C 	0.54880 0.22720 0.41770 0.09500
C 	C 	0.76110 0.27110 0.59670 0.08000
C 	C 	0.32020 0.16220 0.51260 -0.02500
C 	C 	0.65350 0.31930 0.39840 0.02200
C 	C 	0.20020 0.18490 0.39080 0.01500
C 	C 	0.94800 0.74740 0.25420 0.00300
C 	C 	0.40120 0.18410 0.41370 -0.07700
C 	C 	0.77140 0.24690 0.56280 0.02500
C 	C 	0.23100 0.88130 0.30580 0.02300
C 	C 	0.52670 0.91530 0.34920 -0.02100
C 	C 	0.50260 0.27140 0.39840 0.01100
C 	C 	0.92690 0.26860 0.53710 -0.05900
C 	C 	0.95540 0.40600 0.39450 -0.03800
C 	C 	0.12750 0.83570 0.28680 0.00800
C 	C 	0.44890 0.20380 0.52550 -0.03500
C 	C 	0.14990 0.93060 0.30110 0.08900
C 	C 	0.19770 0.82190 0.25240 0.09000
C 	C 	0.25830 0.97100 0.31890 -0.07000
C 	C 	0.87240 0.75980 0.28860 -0.02800
C 	C 	0.91010 0.31190 0.60530 -0.05500
C 	C 	0.30330 0.27030 0.37480 -0.03400
C 	C 	0.15250 0.22860 0.37160 -0.03100
C 	C 	0.07260 0.33140 0.57920 -0.04200
C 	C 	0.24190 0.37490 0.58720 0.30600
C 	C 	0.07350 0.31060 0.54500 -0.00800
C 	C 	0.76690 0.33340 0.36630 -0.06000
C 	C 	0.41600 0.87500 0.33120 -0.03800
C 	C 	0.68650 0.35110 0.42800 0.08300
C 	C 	0.91400 0.37690 0.36420 -0.01000
C 	C 	0.11500 0.77840 0.23550 -0.08400
C 	C 	0.83900 0.39350 0.42680 -0.05300
C 	C 	0.84500 0.70280 0.23380 0.26800
N 	N 	0.88920 0.64230 0.91140 -0.00800
N 	N 	0.75950 0.72270 0.05780 -0.01100
N 	N 	0.58780 0.75400 0.87530 -0.00500
N 	N 	0.95100 0.44090 0.22400 0.00200
N 	N 	0.55900 0.84190 0.03730 0.00100
N 	N 	0.36500 0.35360 0.26920 0.00200
N 	N 	0.11080 0.85770 0.41140 -0.00800
N 	N 	0.24050 0.77730 0.55780 -0.01100
N 	N 	0.41220 0.74600 0.37530 -0.00500
N 	N 	0.04900 0.05910 0.72400 0.00200
N 	N 	0.44100 0.65810 0.53730 0.00100
N 	N 	0.63500 0.14640 0.76920 0.00200
N 	N 	0.11080 0.35770 0.08860 -0.00800
N 	N 	0.24050 0.27730 0.94220 -0.01100
N 	N 	0.41220 0.24600 0.12470 -0.00500
N 	N 	0.04900 0.55910 0.77600 0.00200
N 	N 	0.44100 0.15810 0.96270 0.00100
N 	N 	0.63500 0.64640 0.73080 0.00200
N 	N 	0.88920 0.14230 0.58860 -0.00800
N 	N 	0.75950 0.22270 0.44220 -0.01100
N 	N 	0.58780 0.25400 0.62470 -0.00500
N 	N 	0.95100 0.94090 0.27600 0.00200
N 	N 	0.55900 0.34190 0.46270 0.00100
N 	N 	0.36500 0.85360 0.23080 0.00200
O 	O 	0.07400 0.57480 0.01190 -0.16800
O 	O 	0.08390 0.60110 0.09555 -0.16100
O 	O 	0.72250 0.50160 0.11495 -0.17000
O 	O 	0.55080 0.55020 0.15577 -0.17000
O 	O 	0.20200 0.96740 0.07750 -0.20700
O 	O 	0.86050 0.64190 0.13607 -0.15800
O 	O 	0.98380 0.60160 0.91200 -0.09900
O 	O 	0.89030 0.75980 0.05250 -0.10200
O 	O 	0.79900 0.68240 0.04410 -0.10200
O 	O 	0.94650 0.67510 0.89020 -0.10400
O 	O 	0.41710 0.72670 0.88410 -0.10300
O 	O 	0.62610 0.76750 0.84410 -0.11300
O 	O 	0.32600 0.90040 0.93760 -0.24100
O 	O 	0.38700 0.81370 0.03690 -0.10600
O 	O 	0.19600 0.97120 0.13350 -0.21500
O 	O 	0.83800 0.40940 0.23700 -0.08000
O 	O 	0.34700 0.39740 0.26770 -0.07800
O 	O 	0.88490 0.19910 0.29987 -0.18800
O 	O 	0.72490 0.16830 0.25049 -0.18000
O 	O 	0.63500 0.86250 0.01050 -0.11300
O 	O 	0.87400 0.48040 0.22630 -0.07800
O 	O 	0.48400 0.33850 0.29050 -0.11100
O 	O 	0.29920 0.88600 0.88160 -0.22600
O 	O 	0.26850 0.52770 0.97171 -0.15900
O 	O 	0.22800 0.06460 0.06130 -0.35100
O 	O 	0.67500 0.01080 0.13670 -0.34600
O 	O 	0.29000 0.06830 0.14170 -0.36100
O 	O 	0.62100 0.00410 0.06190 -0.35300
O 	O 	0.92600 0.92520 0.51190 -0.16800
O 	O 	0.91610 0.89890 0.59555 -0.16100
O 	O 	0.27750 0.99840 0.61495 -0.17000
O 	O 	0.44920 0.94980 0.65577 -0.17000
O 	O 	0.79800 0.53260 0.57750 -0.20700
O 	O 	0.13950 0.85810 0.63607 -0.15800
O 	O 	0.01620 0.89840 0.41200 -0.09900
O 	O 	0.10970 0.74020 0.55250 -0.10200
O 	O 	0.20100 0.81760 0.54410 -0.10200
O 	O 	0.05350 0.82490 0.39020 -0.10400
O 	O 	0.58290 0.77330 0.38410 -0.10300
O 	O 	0.37390 0.73250 0.34410 -0.11300
O 	O 	0.67400 0.59960 0.43760 -0.24100
O 	O 	0.61300 0.68630 0.53690 -0.10600
O 	O 	0.80400 0.52880 0.63350 -0.21500
O 	O 	0.16200 0.09060 0.73700 -0.08000
O 	O 	0.65300 0.10260 0.76770 -0.07800
O 	O 	0.11510 0.30090 0.79987 -0.18800
O 	O 	0.27510 0.33170 0.75049 -0.18000
O 	O 	0.36500 0.63750 0.51050 -0.11300
O 	O 	0.12600 0.01960 0.72630 -0.07800
O 	O 	0.51600 0.16150 0.79050 -0.11100
O 	O 	0.70080 0.61400 0.38160 -0.22600
O 	O 	0.73150 0.97230 0.47171 -0.15900
O 	O 	0.77200 0.43540 0.56130 -0.35100
O 	O 	0.32500 0.48920 0.63670 -0.34600
O 	O 	0.71000 0.43170 0.64170 -0.36100
O 	O 	0.37900 0.49590 0.56190 -0.35300
O 	O 	0.92600 0.42520 0.98810 -0.16800
O 	O 	0.91610 0.39890 0.90445 -0.16100
O 	O 	0.27750 0.49840 0.88505 -0.17000
O 	O 	0.44920 0.44980 0.84423 -0.17000
O 	O 	0.79800 0.03260 0.92250 -0.20700
O 	O 	0.13950 0.35810 0.86393 -0.15800
O 	O 	0.01620 0.39840 0.08800 -0.09900
O 	O 	0.10970 0.24020 0.94750 -0.10200
O 	O 	0.20100 0.31760 0.95590 -0.10200
O 	O 	0.05350 0.32490 0.10980 -0.10400
O 	O 	0.58290 0.27330 0.11590 -0.10300
O 	O 	0.37390 0.23250 0.15590 -0.11300
O 	O 	0.67400 0.09960 0.06240 -0.24100
O 	O 	0.61300 0.18630 0.96310 -0.10600
O 	O 	0.80400 0.02880 0.86650 -0.21500
O 	O 	0.16200 0.59060 0.76300 -0.08000
O 	O 	0.65300 0.60260 0.73230 -0.07800
O 	O 	0.11510 0.80090 0.70013 -0.18800
O 	O 	0.27510 0.83170 0.74951 -0.18000
O 	O 	0.36500 0.13750 0.98950 -0.11300
O 	O 	0.12600 0.51960 0.77370 -0.07800
O 	O 	0.51600 0.66150 0.70950 -0.11100
O 	O 	0.70080 0.11400 0.11840 -0.22600
O 	O 	0.73150 0.47230 0.02829 -0.15900
O 	O 	0.77200 0.93540 0.93870 -0.35100
O 	O 	0.32500 0.98920 0.86330 -0.34600
O 	O 	0.71000 0.93170 0.85830 -0.36100
O 	O 	0.37900 0.99590 0.93810 -0.35300
O 	O 	0.07400 0.07480 0.48810 -0.16800
O 	O 	0.08390 0.10110 0.40445 -0.16100
O 	O 	0.72250 0.00160 0.38505 -0.17000
O 	O 	0.55080 0.05020 0.34423 -0.17000
O 	O 	0.20200 0.46740 0.42250 -0.20700
O 	O 	0.86050 0.14190 0.36393 -0.15800
O 	O 	0.98380 0.10160 0.58800 -0.09900
O 	O 	0.89030 0.25980 0.44750 -0.10200
O 	O 	0.79900 0.18240 0.45590 -0.10200
O 	O 	0.94650 0.17510 0.60980 -0.10400
O 	O 	0.41710 0.22670 0.61590 -0.10300
O 	O 	0.62610 0.26750 0.65590 -0.11300
O 	O 	0.32600 0.40040 0.56240 -0.24100
O 	O 	0.38700 0.31370 0.46310 -0.10600
O 	O 	0.19600 0.47120 0.36650 -0.21500
O 	O 	0.83800 0.90940 0.26300 -0.08000
O 	O 	0.34700 0.89740 0.23230 -0.07800
O 	O 	0.88490 0.69910 0.20013 -0.18800
O 	O 	0.72490 0.66830 0.24951 -0.18000
O 	O 	0.63500 0.36250 0.48950 -0.11300
O 	O 	0.87400 0.98040 0.27370 -0.07800
O 	O 	0.48400 0.83850 0.20950 -0.11100
O 	O 	0.29920 0.38600 0.61840 -0.22600
O 	O 	0.26850 0.02770 0.52829 -0.15900
O 	O 	0.22800 0.56460 0.43870 -0.35100
O 	O 	0.67500 0.51080 0.36330 -0.34600
O 	O 	0.29000 0.56830 0.35830 -0.36100
O 	O 	0.62100 0.50410 0.43810 -0.35300
