data_crystal

_cell_length_a 6.69210
_cell_length_b 13.22390
_cell_length_c 13.70230
_cell_angle_alpha 90.00000
_cell_angle_beta  90.00000
_cell_angle_gamma 90.00000

_symmetry_space_group_name_	'P 1'
_symmetry_space_group_name_H-M	'P 1'

loop_
_symmetry_equiv_pos_as_xyz
  x,y,z

loop_
_atom_site_label
_atom_site_type_symbol
_atom_site_fract_x
_atom_site_fract_y
_atom_site_fract_z
_atom_site_charge
Ca	Ca	0.00000 0.75000 0.78471 1.48000
Ca	Ca	0.50000 0.25000 0.71529 1.49800
Ca	Ca	0.00000 0.25000 0.21529 1.46700
Ca	Ca	0.50000 0.75000 0.28471 1.49900
Cu	Cu	0.50000 0.00000 0.50000 0.89100
Cu	Cu	-0.00000 0.50000 -0.00000 0.81100
Cu	Cu	0.50000 0.50000 0.50000 0.93700
Cu	Cu	-0.00000 0.00000 -0.00000 0.76000
H 	H 	0.37260 0.89930 0.77990 0.19100
H 	H 	0.57770 0.88680 0.72700 0.22100
H 	H 	0.12740 0.39930 0.72010 0.25900
H 	H 	0.92230 0.38680 0.77300 0.41500
H 	H 	0.62740 0.60070 0.77990 0.24200
H 	H 	0.42230 0.61320 0.72700 0.23600
H 	H 	0.87260 0.10070 0.72010 0.16400
H 	H 	0.07770 0.11320 0.77300 0.06100
H 	H 	0.62740 0.10070 0.22010 0.24000
H 	H 	0.42230 0.11320 0.27300 0.24900
H 	H 	0.87260 0.60070 0.27990 0.15600
H 	H 	0.07770 0.61320 0.22700 0.04600
H 	H 	0.37260 0.39930 0.22010 0.18900
H 	H 	0.57770 0.38680 0.27300 0.23600
H 	H 	0.12740 0.89930 0.27990 0.23500
H 	H 	0.92230 0.88680 0.22700 0.38000
C 	C 	0.34150 0.85270 0.63870 0.51600
C 	C 	0.44310 0.91290 0.71940 -0.57600
C 	C 	0.45710 0.02560 0.70750 0.39100
C 	C 	0.15850 0.35270 0.86130 0.59400
C 	C 	0.05690 0.41290 0.78060 -0.97700
C 	C 	0.04290 0.52560 0.79250 0.40700
C 	C 	0.65850 0.64730 0.63870 0.56800
C 	C 	0.55690 0.58710 0.71940 -0.72800
C 	C 	0.54290 0.47440 0.70750 0.54300
C 	C 	0.84150 0.14730 0.86130 0.51100
C 	C 	0.94310 0.08710 0.78060 -0.52800
C 	C 	0.95710 0.97440 0.79250 0.72300
C 	C 	0.65850 0.14730 0.36130 0.59900
C 	C 	0.55690 0.08710 0.28060 -0.87200
C 	C 	0.54290 0.97440 0.29250 0.67300
C 	C 	0.84150 0.64730 0.13870 0.50700
C 	C 	0.94310 0.58710 0.21940 -0.44100
C 	C 	0.95710 0.47440 0.20750 0.64700
C 	C 	0.34150 0.35270 0.36130 0.55100
C 	C 	0.44310 0.41290 0.28060 -0.72700
C 	C 	0.45710 0.52560 0.29250 0.52100
C 	C 	0.15850 0.85270 0.13870 0.57000
C 	C 	0.05690 0.91290 0.21940 -0.82300
C 	C 	0.04290 0.02560 0.20750 0.26900
O 	O 	0.36720 0.87910 0.55100 -0.43800
O 	O 	0.24480 0.77650 0.66320 -0.52200
O 	O 	0.50180 0.06620 0.62640 -0.56100
O 	O 	0.43350 0.08070 0.77980 -0.47100
O 	O 	0.13280 0.37910 0.94900 -0.45000
O 	O 	0.25520 0.27650 0.83680 -0.52700
O 	O 	0.99820 0.56620 0.87360 -0.33400
O 	O 	0.06650 0.58070 0.72020 -0.51500
O 	O 	0.63280 0.62090 0.55100 -0.44900
O 	O 	0.75520 0.72350 0.66320 -0.44600
O 	O 	0.49820 0.43380 0.62640 -0.57100
O 	O 	0.56650 0.41930 0.77980 -0.46400
O 	O 	0.86720 0.12090 0.94900 -0.34300
O 	O 	0.74480 0.22350 0.83680 -0.44900
O 	O 	0.00180 0.93380 0.87360 -0.63200
O 	O 	0.93350 0.91930 0.72020 -0.42800
O 	O 	0.63280 0.12090 0.44900 -0.48100
O 	O 	0.75520 0.22350 0.33680 -0.47200
O 	O 	0.49820 0.93380 0.37360 -0.55800
O 	O 	0.56650 0.91930 0.22020 -0.48800
O 	O 	0.86720 0.62090 0.05100 -0.42900
O 	O 	0.74480 0.72350 0.16320 -0.46600
O 	O 	0.00180 0.43380 0.12640 -0.75400
O 	O 	0.93350 0.41930 0.27980 -0.44500
O 	O 	0.36720 0.37910 0.44900 -0.49000
O 	O 	0.24480 0.27650 0.33680 -0.55400
O 	O 	0.50180 0.56620 0.37360 -0.56700
O 	O 	0.43350 0.58070 0.22020 -0.50100
O 	O 	0.13280 0.87910 0.05100 -0.51200
O 	O 	0.25520 0.77650 0.16320 -0.53800
O 	O 	0.99820 0.06620 0.12640 -0.40400
O 	O 	0.06650 0.08070 0.27980 -0.52200
