data_crystal

_cell_length_a 13.07900
_cell_length_b 13.85300
_cell_length_c 14.26300
_cell_angle_alpha 90.00000
_cell_angle_beta  107.98300
_cell_angle_gamma 90.00000

_symmetry_space_group_name_	'P 1'
_symmetry_space_group_name_H-M	'P 1'

loop_
_symmetry_equiv_pos_as_xyz
  x,y,z

loop_
_atom_site_label
_atom_site_type_symbol
_atom_site_fract_x
_atom_site_fract_y
_atom_site_fract_z
_atom_site_charge
Cs	Cs	0.25516 0.89849 0.26106 0.71200
Cd	Cd	0.49763 0.07175 0.24330 1.24000
Cd	Cd	0.98834 0.72915 0.26294 1.24100
C 	C 	0.60250 0.36110 0.07200 0.00400
H 	H 	0.52780 0.35790 0.04880 0.06300
C 	C 	0.65510 0.42470 0.02760 -0.07900
C 	C 	0.76700 0.43100 0.06680 -0.00100
H 	H 	0.80500 0.47370 0.03980 0.05300
C 	C 	0.82180 0.37260 0.14730 -0.06400
H 	H 	0.89600 0.37800 0.17400 0.06300
C 	C 	0.76700 0.30730 0.18730 -0.00100
H 	H 	0.80440 0.26750 0.23890 0.05500
C 	C 	0.65780 0.30160 0.15060 -0.06100
C 	C 	0.59380 0.47760 0.93720 0.31000
C 	C 	0.59620 0.22650 0.18690 0.27500
C 	C 	0.59350 0.78210 0.50110 0.04000
H 	H 	0.52390 0.79590 0.50100 0.03800
C 	C 	0.63800 0.83270 0.43750 -0.10600
C 	C 	0.74040 0.80940 0.43630 0.04600
H 	H 	0.76970 0.84040 0.39270 0.04600
C 	C 	0.79840 0.74100 0.49920 -0.10700
H 	H 	0.86850 0.72730 0.50050 0.08400
C 	C 	0.75260 0.69150 0.56170 0.04600
H 	H 	0.79230 0.64350 0.60250 0.02200
C 	C 	0.65340 0.71090 0.56470 -0.10000
C 	C 	0.57490 0.90910 0.37390 0.32000
C 	C 	0.60390 0.66030 0.63550 0.32800
C 	C 	0.88460 0.43990 0.43580 0.01000
H 	H 	0.95930 0.43940 0.45590 0.06000
C 	C 	0.82920 0.37810 0.47910 -0.08500
C 	C 	0.71930 0.37370 0.44680 0.00100
H 	H 	0.68310 0.32950 0.47400 0.04300
C 	C 	0.66150 0.43740 0.37130 -0.06800
H 	H 	0.58680 0.43540 0.34960 0.06600
C 	C 	0.71430 0.50190 0.32990 0.00200
H 	H 	0.67610 0.54450 0.28130 0.05400
C 	C 	0.82800 0.50260 0.36220 -0.06800
C 	C 	0.88720 0.57990 0.32340 0.30300
C 	C 	0.89030 0.31720 0.56320 0.29100
C 	C 	0.93520 0.02350 0.03300 0.02900
H 	H 	0.00210 0.99780 0.03690 0.04200
C 	C 	0.88090 0.98600 0.09210 -0.09200
C 	C 	0.77980 0.02410 0.08660 0.02700
H 	H 	0.74210 0.99880 0.12650 0.05700
C 	C 	0.73520 0.09910 0.02210 -0.09500
H 	H 	0.66810 0.12440 0.01800 0.07700
C 	C 	0.79450 0.13500 0.96380 0.04100
H 	H 	0.76540 0.18550 0.92090 0.01600
C 	C 	0.89450 0.09980 0.96590 -0.09800
C 	C 	0.95680 0.13520 0.90070 0.33700
C 	C 	0.92460 0.90020 0.15460 0.32500
O 	O 	0.49530 0.48650 0.91630 -0.32800
O 	O 	0.64630 0.51000 0.88250 -0.40400
O 	O 	0.64850 0.16040 0.24250 -0.34200
O 	O 	0.49280 0.22610 0.15790 -0.32000
O 	O 	0.48300 0.93320 0.37700 -0.36700
O 	O 	0.61450 0.95270 0.31390 -0.36800
O 	O 	0.66700 0.61810 0.70810 -0.37000
O 	O 	0.50580 0.66430 0.61900 -0.36600
O 	O 	0.83200 0.63790 0.25720 -0.33900
O 	O 	0.98430 0.58510 0.35590 -0.35400
O 	O 	0.99430 0.31640 0.59030 -0.34700
O 	O 	0.84210 0.27220 0.61300 -0.38100
O 	O 	0.89850 0.17030 0.81710 -0.39400
O 	O 	0.05270 0.13280 0.92850 -0.31500
O 	O 	0.02310 0.88350 0.17900 -0.39400
O 	O 	0.86100 0.84580 0.18120 -0.35000
Cs	Cs	0.74484 0.39849 0.73894 0.71100
Cd	Cd	0.50237 0.57175 0.75670 1.24100
Cd	Cd	0.01166 0.22915 0.73706 1.24000
C 	C 	0.39750 0.86110 0.92800 0.00500
H 	H 	0.47220 0.85790 0.95120 0.06300
C 	C 	0.34490 0.92470 0.97240 -0.07900
C 	C 	0.23300 0.93100 0.93320 -0.00000
H 	H 	0.19500 0.97370 0.96020 0.05400
C 	C 	0.17820 0.87260 0.85270 -0.06400
H 	H 	0.10400 0.87800 0.82600 0.06400
C 	C 	0.23300 0.80730 0.81270 -0.00000
H 	H 	0.19560 0.76750 0.76110 0.05500
C 	C 	0.34220 0.80160 0.84940 -0.06100
C 	C 	0.40620 0.97760 0.06280 0.31500
C 	C 	0.40380 0.72650 0.81310 0.27500
C 	C 	0.40650 0.28210 0.49890 0.04100
H 	H 	0.47610 0.29590 0.49900 0.03800
C 	C 	0.36200 0.33270 0.56250 -0.10700
C 	C 	0.25960 0.30940 0.56370 0.04600
H 	H 	0.23030 0.34040 0.60730 0.04600
C 	C 	0.20160 0.24100 0.50080 -0.10800
H 	H 	0.13150 0.22730 0.49950 0.08400
C 	C 	0.24740 0.19150 0.43830 0.04600
H 	H 	0.20770 0.14350 0.39750 0.02100
C 	C 	0.34660 0.21090 0.43530 -0.10100
C 	C 	0.42510 0.40910 0.62610 0.32000
C 	C 	0.39610 0.16030 0.36450 0.32800
C 	C 	0.11540 0.93990 0.56420 0.01700
H 	H 	0.04070 0.93940 0.54410 0.05900
C 	C 	0.17080 0.87810 0.52090 -0.08600
C 	C 	0.28070 0.87370 0.55320 -0.00000
H 	H 	0.31690 0.82950 0.52600 0.04400
C 	C 	0.33850 0.93740 0.62870 -0.06100
H 	H 	0.41320 0.93540 0.65040 0.06500
C 	C 	0.28570 0.00190 0.67010 -0.00400
H 	H 	0.32390 0.04450 0.71870 0.05500
C 	C 	0.17200 0.00260 0.63780 -0.07300
C 	C 	0.11280 0.07990 0.67660 0.30400
C 	C 	0.10970 0.81720 0.43680 0.29100
C 	C 	0.06480 0.52350 0.96700 0.03900
H 	H 	0.99790 0.49780 0.96310 0.03600
C 	C 	0.11910 0.48600 0.90790 -0.10200
C 	C 	0.22020 0.52410 0.91340 0.04000
H 	H 	0.25790 0.49880 0.87350 0.05100
C 	C 	0.26480 0.59910 0.97790 -0.10400
H 	H 	0.33190 0.62440 0.98200 0.08100
C 	C 	0.20550 0.63500 0.03620 0.04800
H 	H 	0.23460 0.68550 0.07910 0.01400
C 	C 	0.10550 0.59980 0.03410 -0.10300
C 	C 	0.04320 0.63520 0.09930 0.33600
C 	C 	0.07540 0.40020 0.84540 0.32800
O 	O 	0.50470 0.98650 0.08370 -0.32800
O 	O 	0.35370 0.01000 0.11750 -0.40800
O 	O 	0.35150 0.66040 0.75750 -0.34200
O 	O 	0.50720 0.72610 0.84210 -0.32000
O 	O 	0.51700 0.43320 0.62300 -0.36800
O 	O 	0.38550 0.45270 0.68610 -0.36900
O 	O 	0.33300 0.11810 0.29190 -0.37200
O 	O 	0.49420 0.16430 0.38100 -0.36700
O 	O 	0.16800 0.13790 0.74280 -0.34000
O 	O 	0.01570 0.08510 0.64410 -0.35700
O 	O 	0.00570 0.81640 0.40970 -0.34800
O 	O 	0.15790 0.77220 0.38700 -0.38100
O 	O 	0.10150 0.67030 0.18290 -0.39300
O 	O 	0.94730 0.63280 0.07150 -0.31200
O 	O 	0.97690 0.38350 0.82100 -0.39500
O 	O 	0.13900 0.34580 0.81880 -0.35100
