data_crystal

_cell_length_a 13.07500
_cell_length_b 13.86000
_cell_length_c 14.25600
_cell_angle_alpha 90.00000
_cell_angle_beta  108.00100
_cell_angle_gamma 90.00000

_symmetry_space_group_name_	'P 1'
_symmetry_space_group_name_H-M	'P 1'

loop_
_symmetry_equiv_pos_as_xyz
  x,y,z

loop_
_atom_site_label
_atom_site_type_symbol
_atom_site_fract_x
_atom_site_fract_y
_atom_site_fract_z
_atom_site_charge
Cs	Cs	0.24495 0.86458 0.23917 0.71400
Cd	Cd	0.00238 0.69142 0.25687 1.24000
Cd	Cd	0.51167 0.03390 0.23727 1.23100
C 	C 	0.89880 0.40240 0.42760 0.00400
H 	H 	0.97350 0.40430 0.45070 0.06400
C 	C 	0.84340 0.34000 0.47150 -0.07600
C 	C 	0.73200 0.33390 0.43240 -0.00000
H 	H 	0.69400 0.29170 0.46000 0.05100
C 	C 	0.67810 0.39010 0.35330 -0.06600
H 	H 	0.60380 0.38450 0.32650 0.06400
C 	C 	0.73360 0.45500 0.31300 0.00200
H 	H 	0.69580 0.49410 0.26080 0.05400
C 	C 	0.84370 0.46220 0.34940 -0.06600
C 	C 	0.90390 0.28580 0.56260 0.29900
C 	C 	0.90380 0.53750 0.31240 0.29000
C 	C 	0.90670 0.98090 0.99940 0.13300
H 	H 	0.97640 0.96680 0.99980 0.01400
C 	C 	0.86230 0.93130 0.06170 -0.15700
C 	C 	0.75890 0.95330 0.06290 0.15900
H 	H 	0.72870 0.91990 0.10440 0.01500
C 	C 	0.70140 0.02540 0.00190 -0.22700
H 	H 	0.63340 0.04240 0.00420 0.11600
C 	C 	0.74500 0.07210 0.93750 0.12200
H 	H 	0.70440 0.11800 0.89430 -0.00800
C 	C 	0.84810 0.05160 0.93640 -0.18700
C 	C 	0.92600 0.85310 0.12730 0.35100
C 	C 	0.89470 0.10130 0.86500 0.33800
C 	C 	0.61650 0.32210 0.06460 0.01100
H 	H 	0.54170 0.32210 0.04440 0.06000
C 	C 	0.67090 0.38550 0.02140 -0.07800
C 	C 	0.77990 0.38770 0.05310 0.00500
H 	H 	0.81630 0.43000 0.02400 0.04300
C 	C 	0.83840 0.32680 0.12930 -0.07500
H 	H 	0.91310 0.32990 0.15200 0.06800
C 	C 	0.78420 0.26240 0.17040 0.01200
H 	H 	0.82270 0.22110 0.22030 0.04700
C 	C 	0.67320 0.25860 0.13790 -0.07900
C 	C 	0.61340 0.18470 0.17670 0.30300
C 	C 	0.60660 0.44670 0.93590 0.28600
C 	C 	0.56270 0.73820 0.46660 0.04400
H 	H 	0.49450 0.76180 0.46130 0.03400
C 	C 	0.62030 0.77750 0.40930 -0.10200
C 	C 	0.71930 0.73800 0.41440 0.04300
H 	H 	0.75760 0.76270 0.37460 0.05200
C 	C 	0.76200 0.66250 0.47770 -0.10100
H 	H 	0.82780 0.63570 0.47960 0.08000
C 	C 	0.70600 0.62730 0.53810 0.04300
H 	H 	0.73610 0.57860 0.58310 0.01400
C 	C 	0.60600 0.66350 0.53250 -0.09600
C 	C 	0.54240 0.62590 0.59960 0.32700
C 	C 	0.57510 0.86320 0.34450 0.34900
O 	O 	0.00500 0.27710 0.58280 -0.31800
O 	O 	0.85370 0.25240 0.61730 -0.40700
O 	O 	0.85100 0.60240 0.25620 -0.34400
O 	O 	0.00560 0.53790 0.34176 -0.33000
O 	O 	0.01690 0.83020 0.12330 -0.37700
O 	O 	0.88430 0.81030 0.18550 -0.37300
O 	O 	0.83280 0.14460 0.79234 -0.37600
O 	O 	0.99550 0.09800 0.88150 -0.37000
O 	O 	0.66540 0.12700 0.24280 -0.35400
O 	O 	0.51370 0.17870 0.14290 -0.35100
O 	O 	0.50620 0.44680 0.91040 -0.35600
O 	O 	0.65840 0.49410 0.88820 -0.37400
O 	O 	0.59970 0.59210 0.68260 -0.39800
O 	O 	0.44520 0.62940 0.57160 -0.30400
O 	O 	0.47820 0.87900 0.32020 -0.40000
O 	O 	0.63860 0.91670 0.31820 -0.34400
Cs	Cs	0.75505 0.36458 0.76083 0.71000
Cd	Cd	0.99762 0.19142 0.74313 1.23900
Cd	Cd	0.48833 0.53390 0.76273 1.24200
C 	C 	0.10120 0.90240 0.57240 -0.02200
H 	H 	0.02650 0.90430 0.54930 0.07900
C 	C 	0.15660 0.84000 0.52850 -0.05400
C 	C 	0.26800 0.83390 0.56760 -0.01900
H 	H 	0.30600 0.79170 0.54000 0.06100
C 	C 	0.32190 0.89010 0.64670 -0.03700
H 	H 	0.39620 0.88450 0.67350 0.05900
C 	C 	0.26640 0.95500 0.68700 -0.02800
H 	H 	0.30420 0.99410 0.73920 0.07400
C 	C 	0.15630 0.96220 0.65060 -0.01500
C 	C 	0.09610 0.78580 0.43740 0.29200
C 	C 	0.09620 0.03750 0.68760 0.25200
C 	C 	0.09330 0.48090 0.00060 0.04500
H 	H 	0.02360 0.46680 0.00020 0.03700
C 	C 	0.13770 0.43130 0.93830 -0.10500
C 	C 	0.24110 0.45330 0.93710 0.04100
H 	H 	0.27130 0.41990 0.89560 0.04800
C 	C 	0.29860 0.52540 0.99810 -0.10800
H 	H 	0.36660 0.54240 0.99580 0.08300
C 	C 	0.25500 0.57210 0.06250 0.04600
H 	H 	0.29560 0.61800 0.10570 0.02300
C 	C 	0.15190 0.55160 0.06360 -0.09900
C 	C 	0.07400 0.35310 0.87270 0.32400
C 	C 	0.10530 0.60130 0.13500 0.31300
C 	C 	0.38350 0.82210 0.93540 0.01500
H 	H 	0.45830 0.82210 0.95560 0.05900
C 	C 	0.32910 0.88550 0.97860 -0.08700
C 	C 	0.22010 0.88770 0.94690 0.01100
H 	H 	0.18370 0.93000 0.97600 0.04400
C 	C 	0.16160 0.82680 0.87070 -0.07700
H 	H 	0.08690 0.82990 0.84800 0.07300
C 	C 	0.21580 0.76240 0.82960 0.01300
H 	H 	0.17730 0.72110 0.77970 0.05000
C 	C 	0.32680 0.75860 0.86210 -0.07800
C 	C 	0.38660 0.68470 0.82330 0.30200
C 	C 	0.39340 0.94670 0.06410 0.29600
C 	C 	0.43730 0.23820 0.53340 0.04700
H 	H 	0.50550 0.26180 0.53870 0.03000
C 	C 	0.37970 0.27750 0.59070 -0.11000
C 	C 	0.28070 0.23800 0.58560 0.04600
H 	H 	0.24240 0.26270 0.62540 0.04700
C 	C 	0.23800 0.16250 0.52230 -0.11100
H 	H 	0.17220 0.13570 0.52040 0.07700
C 	C 	0.29400 0.12730 0.46190 0.04600
H 	H 	0.26390 0.07860 0.41690 0.00500
C 	C 	0.39400 0.16350 0.46750 -0.10500
C 	C 	0.45760 0.12590 0.40040 0.32800
C 	C 	0.42490 0.36320 0.65550 0.35100
O 	O 	0.99500 0.77710 0.41720 -0.31000
O 	O 	0.14630 0.75240 0.38270 -0.40200
O 	O 	0.14900 0.10240 0.74380 -0.34600
O 	O 	0.99440 0.03790 0.65824 -0.33400
O 	O 	0.98310 0.33020 0.87670 -0.37600
O 	O 	0.11570 0.31030 0.81450 -0.37300
O 	O 	0.16720 0.64460 0.20766 -0.36500
O 	O 	0.00450 0.59800 0.11850 -0.35300
O 	O 	0.33460 0.62700 0.75720 -0.34400
O 	O 	0.48630 0.67870 0.85710 -0.34300
O 	O 	0.49380 0.94680 0.08960 -0.34300
O 	O 	0.34160 0.99410 0.11180 -0.35800
O 	O 	0.40030 0.09210 0.31740 -0.41100
O 	O 	0.55480 0.12940 0.42840 -0.31200
O 	O 	0.52180 0.37900 0.67980 -0.41100
O 	O 	0.36140 0.41670 0.68180 -0.36000
