data_crystal

_cell_length_a 17.34000
_cell_length_b 6.60530
_cell_length_c 11.54000
_cell_angle_alpha 90.00000
_cell_angle_beta  95.41000
_cell_angle_gamma 90.00000

_symmetry_space_group_name_	'P 1'
_symmetry_space_group_name_H-M	'P 1'

loop_
_symmetry_equiv_pos_as_xyz
  x,y,z

loop_
_atom_site_label
_atom_site_type_symbol
_atom_site_fract_x
_atom_site_fract_y
_atom_site_fract_z
_atom_site_charge
Zr	Zr	0.85979 0.85487 0.10017 3.20100
Zr	Zr	0.22146 0.84751 0.35054 3.20700
P 	P 	0.22812 0.85260 0.63908 0.57700
P 	P 	0.69236 0.85510 0.91438 0.60600
P 	P 	0.05782 0.78530 0.16692 0.72000
F 	F 	0.32900 0.83870 0.42220 -0.86500
O 	O 	0.10610 0.84940 0.27720 -0.71500
O 	O 	0.74780 0.85430 0.02530 -0.83100
O 	O 	0.18320 0.85040 0.51800 -0.70700
O 	O 	0.97520 0.85920 0.17150 -0.71600
O 	O 	0.05910 0.55040 0.17130 -0.20900
O 	O 	0.64210 0.04270 0.90760 -0.51400
O 	O 	0.17140 0.85870 0.73290 -0.78100
O 	O 	0.28200 0.03400 0.65110 -0.48500
O 	O 	0.63810 0.66900 0.91450 -0.70200
O 	O 	0.27750 0.65950 0.65330 -0.71000
O 	O 	0.09140 0.85570 0.05860 -0.77200
O 	O 	0.73920 0.84190 0.80960 -0.83400
Zr	Zr	0.35979 0.35487 0.10017 3.21400
Zr	Zr	0.72146 0.34751 0.35054 3.22200
P 	P 	0.72812 0.35260 0.63908 0.76500
P 	P 	0.19236 0.35510 0.91438 0.79900
P 	P 	0.55782 0.28530 0.16692 0.71200
F 	F 	0.82900 0.33870 0.42220 -0.71400
O 	O 	0.60610 0.34940 0.27720 -0.65000
O 	O 	0.24780 0.35430 0.02530 -0.72400
O 	O 	0.68320 0.35040 0.51800 -0.63500
O 	O 	0.47520 0.35920 0.17150 -0.65600
O 	O 	0.55910 0.05040 0.17130 -0.14800
O 	O 	0.14210 0.54270 0.90760 -0.69900
O 	O 	0.67140 0.35870 0.73290 -0.70200
O 	O 	0.78200 0.53400 0.65110 -0.68700
O 	O 	0.13810 0.16900 0.91450 -0.53300
O 	O 	0.77750 0.15950 0.65330 -0.56200
O 	O 	0.59140 0.35570 0.05860 -0.71600
O 	O 	0.23920 0.34190 0.80960 -0.75600
Zr	Zr	0.14021 0.85487 0.89983 3.20100
Zr	Zr	0.77854 0.84751 0.64946 3.20700
P 	P 	0.77188 0.85260 0.36092 0.57700
P 	P 	0.30764 0.85510 0.08562 0.60600
P 	P 	0.94218 0.78530 0.83308 0.72000
F 	F 	0.67100 0.83870 0.57780 -0.86500
O 	O 	0.89390 0.84940 0.72280 -0.71500
O 	O 	0.25220 0.85430 0.97470 -0.83100
O 	O 	0.81680 0.85040 0.48200 -0.70700
O 	O 	0.02480 0.85920 0.82850 -0.71600
O 	O 	0.94090 0.55040 0.82870 -0.20900
O 	O 	0.35790 0.04270 0.09240 -0.51400
O 	O 	0.82860 0.85870 0.26710 -0.78100
O 	O 	0.71800 0.03400 0.34890 -0.48500
O 	O 	0.36190 0.66900 0.08550 -0.70200
O 	O 	0.72250 0.65950 0.34670 -0.71000
O 	O 	0.90860 0.85570 0.94140 -0.77200
O 	O 	0.26080 0.84190 0.19040 -0.83400
Zr	Zr	0.64021 0.35487 0.89983 3.21400
Zr	Zr	0.27854 0.34751 0.64946 3.22200
P 	P 	0.27188 0.35260 0.36092 0.76500
P 	P 	0.80764 0.35510 0.08562 0.79900
P 	P 	0.44218 0.28530 0.83308 0.71200
F 	F 	0.17100 0.33870 0.57780 -0.71400
O 	O 	0.39390 0.34940 0.72280 -0.65000
O 	O 	0.75220 0.35430 0.97470 -0.72400
O 	O 	0.31680 0.35040 0.48200 -0.63500
O 	O 	0.52480 0.35920 0.82850 -0.65600
O 	O 	0.44090 0.05040 0.82870 -0.14800
O 	O 	0.85790 0.54270 0.09240 -0.69900
O 	O 	0.32860 0.35870 0.26710 -0.70200
O 	O 	0.21800 0.53400 0.34890 -0.68700
O 	O 	0.86190 0.16900 0.08550 -0.53300
O 	O 	0.22250 0.15950 0.34670 -0.56200
O 	O 	0.40860 0.35570 0.94140 -0.71600
O 	O 	0.76080 0.34190 0.19040 -0.75600
