data_crystal

_cell_length_a 8.39570
_cell_length_b 8.39570
_cell_length_c 21.73320
_cell_angle_alpha 90.00000
_cell_angle_beta  90.00000
_cell_angle_gamma 120.00000

_symmetry_space_group_name_	'P 1'
_symmetry_space_group_name_H-M	'P 1'

loop_
_symmetry_equiv_pos_as_xyz
  x,y,z

loop_
_atom_site_label
_atom_site_type_symbol
_atom_site_fract_x
_atom_site_fract_y
_atom_site_fract_z
_atom_site_charge
O 	O 	0.20060 0.21200 0.05282 -0.57800
O 	O 	0.32500 0.46220 0.11004 -0.51400
C 	C 	0.19770 0.32440 0.08850 0.64800
H 	H 	0.08130 0.29990 0.10060 -0.21900
O 	O 	0.86727 0.54533 0.38615 -0.43500
O 	O 	0.99167 0.79553 0.44337 -0.37600
C 	C 	0.86437 0.65773 0.42183 0.58700
H 	H 	0.74797 0.63323 0.43393 -0.12500
O 	O 	0.53393 0.87867 0.71949 -0.49900
O 	O 	0.65833 0.12887 0.77671 -0.60000
C 	C 	0.53103 0.99107 0.75517 0.83000
H 	H 	0.41463 0.96657 0.76727 -0.19200
O 	O 	0.78800 0.98860 0.05282 -0.39900
O 	O 	0.53780 0.86280 0.11004 -0.45100
C 	C 	0.67560 0.87330 0.08850 0.59300
H 	H 	0.70010 0.78140 0.10060 -0.12300
O 	O 	0.45467 0.32193 0.38615 -0.49800
O 	O 	0.20447 0.19613 0.44337 -0.55700
C 	C 	0.34227 0.20663 0.42183 0.64000
H 	H 	0.36677 0.11473 0.43393 -0.20100
O 	O 	0.12133 0.65527 0.71949 -0.43500
O 	O 	0.87113 0.52947 0.77671 -0.34800
C 	C 	0.00893 0.53997 0.75517 0.41100
H 	H 	0.03343 0.44807 0.76727 -0.11900
O 	O 	0.01140 0.79940 0.05282 -0.52500
O 	O 	0.13720 0.67500 0.11004 -0.51900
C 	C 	0.12670 0.80230 0.08850 0.61900
H 	H 	0.21860 0.91870 0.10060 -0.12700
O 	O 	0.67807 0.13273 0.38615 -0.49800
O 	O 	0.80387 0.00833 0.44337 -0.51400
C 	C 	0.79337 0.13563 0.42183 0.62000
H 	H 	0.88527 0.25203 0.43393 -0.12500
O 	O 	0.34473 0.46607 0.71949 -0.49600
O 	O 	0.47053 0.34167 0.77671 -0.51000
C 	C 	0.46003 0.46897 0.75517 0.61800
H 	H 	0.55193 0.58537 0.76727 -0.13900
O 	O 	0.79940 0.78800 0.94718 -0.37200
O 	O 	0.67500 0.53780 0.88996 -0.45600
C 	C 	0.80230 0.67560 0.91150 0.58200
H 	H 	0.91870 0.70010 0.89940 -0.08100
O 	O 	0.46607 0.12133 0.28051 -0.45100
O 	O 	0.34167 0.87113 0.22329 -0.35700
C 	C 	0.46897 0.00893 0.24483 0.38500
H 	H 	0.58537 0.03343 0.23273 -0.10300
O 	O 	0.13273 0.45467 0.61385 -0.51800
O 	O 	0.00833 0.20447 0.55663 -0.58900
C 	C 	0.13563 0.34227 0.57817 0.64500
H 	H 	0.25203 0.36677 0.56607 -0.17500
O 	O 	0.21200 0.01140 0.94718 -0.54600
O 	O 	0.46220 0.13720 0.88996 -0.51600
C 	C 	0.32440 0.12670 0.91150 0.63700
H 	H 	0.29990 0.21860 0.89940 -0.17700
O 	O 	0.87867 0.34473 0.28051 -0.51700
O 	O 	0.12887 0.47053 0.22329 -0.61800
C 	C 	0.99107 0.46003 0.24483 0.81900
H 	H 	0.96657 0.55193 0.23273 -0.18200
O 	O 	0.54533 0.67807 0.61385 -0.45500
O 	O 	0.79553 0.80387 0.55663 -0.40700
C 	C 	0.65773 0.79337 0.57817 0.59100
H 	H 	0.63323 0.88527 0.56607 -0.09900
O 	O 	0.98860 0.20060 0.94718 -0.40900
O 	O 	0.86280 0.32500 0.88996 -0.44600
C 	C 	0.87330 0.19770 0.91150 0.60600
H 	H 	0.78140 0.08130 0.89940 -0.16500
O 	O 	0.65527 0.53393 0.28051 -0.45800
O 	O 	0.52947 0.65833 0.22329 -0.45900
C 	C 	0.53997 0.53103 0.24483 0.61600
H 	H 	0.44807 0.41463 0.23273 -0.16300
O 	O 	0.32193 0.86727 0.61385 -0.45300
O 	O 	0.19613 0.99167 0.55663 -0.44100
C 	C 	0.20663 0.86437 0.57817 0.60800
H 	H 	0.11473 0.74797 0.56607 -0.17100
Mg	Mg	-0.00000 0.00000 -0.00000 1.45600
Mg	Mg	0.66667 0.33333 0.33333 1.48300
Mg	Mg	0.33333 0.66667 0.66667 1.48300
Mg	Mg	0.33333 0.66667 0.16667 1.48300
Mg	Mg	-0.00000 0.00000 0.50000 1.46300
Mg	Mg	0.66667 0.33333 0.83333 1.48300
