data_crystal

_cell_length_a 11.10200
_cell_length_b 15.90040
_cell_length_c 15.90040
_cell_angle_alpha 65.24440
_cell_angle_beta  76.54160
_cell_angle_gamma 103.45800

_symmetry_space_group_name_	'P 1'
_symmetry_space_group_name_H-M	'P 1'

loop_
_symmetry_equiv_pos_as_xyz
  x,y,z

loop_
_atom_site_label
_atom_site_type_symbol
_atom_site_fract_x
_atom_site_fract_y
_atom_site_fract_z
_atom_site_charge
Cd	Cd	0.22804 0.75697 0.63171 1.21900
Cd	Cd	0.77196 0.24303 0.36829 1.21900
H 	H 	0.71650 0.03620 0.22890 0.02500
H 	H 	0.29640 0.09760 0.52040 0.10800
H 	H 	0.38530 0.83280 0.27090 0.01100
H 	H 	0.15310 0.14500 0.60620 0.00600
H 	H 	0.06980 0.95570 0.30670 0.08900
H 	H 	0.84690 0.85500 0.39380 0.00600
H 	H 	0.61410 0.91440 0.19830 0.07800
H 	H 	0.38590 0.08560 0.80170 0.07800
H 	H 	0.61470 0.16720 0.72910 0.01000
H 	H 	0.15100 0.10510 0.30250 0.00600
H 	H 	0.28350 0.96380 0.77110 0.02400
H 	H 	0.84900 0.89490 0.69750 0.00600
H 	H 	0.74150 0.12990 0.62250 0.09000
H 	H 	0.25850 0.87010 0.37750 0.09000
H 	H 	0.70360 0.90240 0.47960 0.10700
H 	H 	0.93020 0.04430 0.69330 0.08800
C 	C 	0.43686 0.06947 0.75989 -0.14300
C 	C 	0.55014 0.02962 0.32000 -0.14300
C 	C 	0.56314 0.93053 0.24011 -0.14300
C 	C 	0.79362 0.94323 0.44417 -0.17800
C 	C 	0.35046 0.90403 0.34735 -0.18900
C 	C 	0.20638 0.05677 0.55583 -0.17800
C 	C 	0.64954 0.09597 0.65265 -0.18900
C 	C 	0.01245 0.97543 0.34038 -0.15100
C 	C 	0.62426 0.00375 0.25837 0.06100
C 	C 	0.42654 0.88140 0.28398 0.07000
C 	C 	0.98755 0.02457 0.65962 -0.15100
C 	C 	0.93910 0.93498 0.66216 0.09600
C 	C 	0.03496 0.19417 0.38188 0.38700
C 	C 	0.84287 0.03263 0.44252 0.16700
C 	C 	0.41170 0.97753 0.36589 0.13300
C 	C 	0.06090 0.06502 0.33784 0.09600
C 	C 	0.58830 0.02247 0.63411 0.13300
C 	C 	0.37740 0.88974 0.66401 0.32500
C 	C 	0.62260 0.11026 0.33599 0.32500
C 	C 	0.12067 0.08499 0.60718 0.08500
C 	C 	0.96504 0.80583 0.61812 0.38700
C 	C 	0.37574 0.99625 0.74163 0.06100
C 	C 	0.15713 0.96737 0.55748 0.16700
C 	C 	0.57346 0.11860 0.71602 0.07000
C 	C 	0.02311 0.90394 0.61258 -0.19200
C 	C 	0.44986 0.97038 0.68000 -0.14300
C 	C 	0.87933 0.91501 0.39282 0.08500
C 	C 	0.97689 0.09606 0.38742 -0.19200
N 	N 	0.32906 0.00763 0.42215 -0.08800
N 	N 	0.24528 0.93702 0.50448 -0.15300
N 	N 	0.67094 0.99237 0.57785 -0.08800
N 	N 	0.75472 0.06298 0.49552 -0.15300
O 	O 	0.15549 0.22816 0.36739 -0.40700
O 	O 	0.43987 0.86936 0.60286 -0.38300
O 	O 	0.84451 0.77184 0.63261 -0.40700
O 	O 	0.03655 0.75684 0.60810 -0.53300
O 	O 	0.25344 0.84514 0.71289 -0.38900
O 	O 	0.96345 0.24316 0.39190 -0.53300
O 	O 	0.74656 0.15486 0.28711 -0.38900
O 	O 	0.56013 0.13064 0.39714 -0.38300
Cd	Cd	0.47107 0.61132 0.75697 1.21800
Cd	Cd	0.52893 0.38868 0.24303 1.21800
H 	H 	0.55250 0.89630 0.83280 0.01000
H 	H 	0.95410 0.40760 0.89490 -0.00100
H 	H 	0.31970 0.26510 0.96380 0.02300
H 	H 	0.11410 0.73760 0.95570 0.09400
H 	H 	0.38840 0.75240 0.87010 0.09000
H 	H 	0.99190 0.75120 0.85500 0.00000
H 	H 	0.80120 0.61800 0.90240 0.10900
H 	H 	0.69970 0.88730 0.91440 0.07700
H 	H 	0.00810 0.24880 0.14500 0.00000
H 	H 	0.68030 0.73490 0.03620 0.02300
H 	H 	0.04590 0.59240 0.10510 -0.00100
H 	H 	0.88590 0.26240 0.04430 0.09400
H 	H 	0.44750 0.10370 0.16720 0.01000
H 	H 	0.30030 0.11270 0.08560 0.07700
H 	H 	0.19880 0.38200 0.09760 0.10900
H 	H 	0.61160 0.24760 0.12990 0.09000
C 	C 	0.54514 0.83462 0.88140 0.07000
C 	C 	0.99588 0.59714 0.06502 0.11700
C 	C 	0.81024 0.52485 0.03263 0.17300
C 	C 	0.43417 0.65658 0.97753 0.13400
C 	C 	0.11917 0.48348 0.90394 -0.20700
C 	C 	0.00412 0.40286 0.93498 0.11700
C 	C 	0.47948 0.34962 0.97038 -0.14300
C 	C 	0.88083 0.51652 0.09606 -0.20700
C 	C 	0.03568 0.30783 0.08499 0.09500
C 	C 	0.15921 0.57605 0.80583 0.39700
C 	C 	0.45486 0.16538 0.11860 0.07000
C 	C 	0.44643 0.74862 0.90403 -0.18900
C 	C 	0.14961 0.38740 0.05677 -0.18600
C 	C 	0.18976 0.47515 0.96737 0.17300
C 	C 	0.36739 0.17064 0.06947 -0.14400
C 	C 	0.51234 0.55375 0.11026 0.32600
C 	C 	0.96432 0.69217 0.91501 0.09500
C 	C 	0.63261 0.82936 0.93053 -0.14400
C 	C 	0.56583 0.34342 0.02247 0.13400
C 	C 	0.85039 0.61260 0.94323 -0.18600
C 	C 	0.62051 0.73788 0.00375 0.06200
C 	C 	0.03702 0.68419 0.97543 -0.16600
C 	C 	0.52052 0.65038 0.02962 -0.14300
C 	C 	0.84079 0.42395 0.19417 0.39700
C 	C 	0.48766 0.44625 0.88974 0.32600
C 	C 	0.55357 0.25138 0.09597 -0.18900
C 	C 	0.96298 0.31581 0.02457 -0.16600
C 	C 	0.37949 0.26212 0.99625 0.06200
N 	N 	0.69174 0.44150 0.06298 -0.15400
N 	N 	0.67857 0.42978 0.99237 -0.08700
N 	N 	0.30826 0.55850 0.93702 -0.15400
N 	N 	0.32143 0.57022 0.00763 -0.08700
O 	O 	0.59170 0.55803 0.15486 -0.39000
O 	O 	0.72029 0.36494 0.24316 -0.53700
O 	O 	0.07267 0.59555 0.77184 -0.40900
O 	O 	0.27971 0.63506 0.75684 -0.53700
O 	O 	0.42949 0.47222 0.13064 -0.38300
O 	O 	0.92733 0.40445 0.22816 -0.40900
O 	O 	0.57051 0.52778 0.86936 -0.38300
O 	O 	0.40830 0.44197 0.84514 -0.39000
Cd	Cd	0.85975 0.63171 0.61132 1.21700
Cd	Cd	0.14025 0.36829 0.38868 1.21700
H 	H 	0.81240 0.19830 0.88730 0.07700
H 	H 	0.94540 0.22890 0.73490 0.02400
H 	H 	0.63600 0.37750 0.75240 0.09000
H 	H 	0.18320 0.47960 0.61800 0.11000
H 	H 	0.34380 0.72910 0.10370 0.01000
H 	H 	0.75930 0.60620 0.24880 -0.00100
H 	H 	0.37650 0.30670 0.73760 0.09500
H 	H 	0.65620 0.27090 0.89630 0.01000
H 	H 	0.18760 0.80170 0.11270 0.07700
H 	H 	0.05460 0.77110 0.26510 0.02400
H 	H 	0.45350 0.30250 0.59240 -0.00100
H 	H 	0.36400 0.62250 0.24760 0.09000
H 	H 	0.24070 0.39380 0.75120 -0.00100
H 	H 	0.54650 0.69750 0.40760 -0.00100
H 	H 	0.81680 0.52040 0.38200 0.11000
H 	H 	0.62350 0.69330 0.26240 0.09500
C 	C 	0.39874 0.33784 0.59714 0.11900
C 	C 	0.71052 0.28398 0.83462 0.06800
C 	C 	0.71461 0.55748 0.47515 0.17300
C 	C 	0.28948 0.71602 0.16538 0.06800
C 	C 	0.35283 0.34038 0.68419 -0.17400
C 	C 	0.63569 0.61258 0.48348 -0.20800
C 	C 	0.22241 0.63411 0.34342 0.13200
C 	C 	0.77759 0.36589 0.65658 0.13200
C 	C 	0.76221 0.55583 0.38740 -0.18700
C 	C 	0.11737 0.74163 0.26212 0.05900
C 	C 	0.60126 0.66216 0.40286 0.11900
C 	C 	0.72785 0.60718 0.30783 0.10300
C 	C 	0.95859 0.33599 0.55375 0.32600
C 	C 	0.12986 0.68000 0.34962 -0.14200
C 	C 	0.36431 0.38742 0.51652 -0.20800
C 	C 	0.64717 0.65962 0.31581 -0.17400
C 	C 	0.23779 0.44417 0.61260 -0.18700
C 	C 	0.58316 0.61812 0.57605 0.39700
C 	C 	0.28539 0.44252 0.52485 0.17300
C 	C 	0.69781 0.34735 0.74862 -0.18800
C 	C 	0.19675 0.75989 0.17064 -0.14100
C 	C 	0.80325 0.24011 0.82936 -0.14100
C 	C 	0.04141 0.66401 0.44625 0.32600
C 	C 	0.88263 0.25837 0.73788 0.05900
C 	C 	0.41684 0.38188 0.42395 0.39700
C 	C 	0.27215 0.39282 0.69217 0.10300
C 	C 	0.30219 0.65265 0.25138 -0.18800
C 	C 	0.87014 0.32000 0.65038 -0.14200
N 	N 	0.74976 0.50448 0.55850 -0.15500
N 	N 	0.24879 0.57785 0.42978 -0.08700
N 	N 	0.25024 0.49552 0.44150 -0.15500
N 	N 	0.75121 0.42215 0.57022 -0.08700
O 	O 	0.03367 0.28711 0.55803 -0.39100
O 	O 	0.47712 0.63261 0.59555 -0.40900
O 	O 	0.95727 0.39714 0.47222 -0.38300
O 	O 	0.04273 0.60286 0.52778 -0.38300
O 	O 	0.35535 0.39190 0.36494 -0.53700
O 	O 	0.64465 0.60810 0.63506 -0.53700
O 	O 	0.52288 0.36739 0.40445 -0.40900
O 	O 	0.96633 0.71289 0.44197 -0.39100
