data_crystal

_cell_length_a 10.92530
_cell_length_b 17.73500
_cell_length_c 16.85300
_cell_angle_alpha 89.67300
_cell_angle_beta  90.00000
_cell_angle_gamma 90.00000

_symmetry_space_group_name_	'P 1'
_symmetry_space_group_name_H-M	'P 1'

loop_
_symmetry_equiv_pos_as_xyz
  x,y,z

loop_
_atom_site_label
_atom_site_type_symbol
_atom_site_fract_x
_atom_site_fract_y
_atom_site_fract_z
_atom_site_charge
Gd	Gd	0.96172 0.33264 0.47450 1.57500
Gd	Gd	0.58972 0.83094 0.40753 1.66200
Gd	Gd	0.14157 0.32513 0.26019 1.64800
Gd	Gd	0.85843 0.32513 0.76019 1.63500
Gd	Gd	0.60445 0.82931 0.12494 1.65600
Gd	Gd	0.39555 0.82931 0.62494 1.65200
Gd	Gd	0.41028 0.83094 0.90753 1.53300
Gd	Gd	0.03828 0.33264 0.97450 1.45100
H 	H 	0.16560 0.13830 0.55630 0.04300
H 	H 	0.61590 0.63720 0.81600 0.05100
H 	H 	0.09380 0.51290 0.65400 0.05200
H 	H 	0.61020 0.02510 0.71390 0.05200
H 	H 	0.38410 0.63720 0.31600 0.04400
H 	H 	0.26410 0.01340 0.57500 0.04100
H 	H 	0.87930 0.54770 0.49220 0.04400
H 	H 	0.12070 0.54770 0.99220 -0.05100
H 	H 	0.18810 0.63820 0.64220 0.03100
H 	H 	0.56970 0.87390 0.76530 0.19900
H 	H 	0.43030 0.78630 0.26630 0.20700
H 	H 	0.65440 0.05030 0.39210 0.04900
H 	H 	0.22560 0.16890 0.91030 0.00400
H 	H 	0.34560 0.05030 0.89210 0.03400
H 	H 	0.56970 0.78630 0.76630 0.20400
H 	H 	0.81190 0.63820 0.14220 0.04600
H 	H 	0.69280 0.15200 0.72270 0.02400
H 	H 	0.28280 0.51320 0.29800 0.03500
H 	H 	0.90620 0.51290 0.15400 0.06700
H 	H 	0.43030 0.87390 0.26530 0.20300
H 	H 	0.22510 0.66760 0.97370 -0.08000
H 	H 	0.38980 0.02510 0.21390 0.05200
H 	H 	0.71720 0.51320 0.79800 0.03100
H 	H 	0.77490 0.66760 0.47370 0.01600
H 	H 	0.73590 0.01340 0.07500 0.02400
H 	H 	0.77440 0.16890 0.41030 0.02500
H 	H 	0.30720 0.15200 0.22270 0.02700
H 	H 	0.83440 0.13830 0.05630 0.02500
C 	C 	0.31760 0.01160 0.10600 -0.10100
C 	C 	0.73970 0.03410 0.28550 -0.10700
C 	C 	0.26030 0.03410 0.78550 -0.10700
C 	C 	0.83050 0.21250 0.59750 0.45000
C 	C 	0.69790 0.70890 0.27020 0.46500
C 	C 	0.60290 0.94690 0.95420 0.31900
C 	C 	0.18880 0.61010 0.68900 0.01900
C 	C 	0.81090 0.21410 0.91300 0.47600
C 	C 	0.21100 0.11350 0.51780 0.00500
C 	C 	0.30720 0.95640 0.76360 0.44000
C 	C 	0.85550 0.50980 0.26960 -0.11100
C 	C 	0.67050 0.01830 0.96420 -0.19200
C 	C 	0.63700 0.93810 0.57820 0.39500
C 	C 	0.14450 0.50980 0.76960 -0.11200
C 	C 	0.66440 0.61410 0.85440 -0.03300
C 	C 	0.34340 0.04710 0.17380 -0.01300
C 	C 	0.77930 0.13880 0.36540 0.00900
C 	C 	0.77160 0.13860 0.61440 -0.14300
C 	C 	0.22320 0.52870 0.09020 -0.16400
C 	C 	0.13300 0.53770 0.69540 -0.01800
C 	C 	0.29510 0.12020 0.17970 0.02200
C 	C 	0.77680 0.52870 0.59020 -0.13400
C 	C 	0.36300 0.93810 0.07820 0.39400
C 	C 	0.76780 0.14020 0.94360 -0.23900
C 	C 	0.68240 0.01160 0.60600 -0.10000
C 	C 	0.30210 0.70890 0.77020 0.46000
C 	C 	0.26870 0.04130 0.52830 -0.00300
C 	C 	0.15080 0.15440 0.80360 -0.12400
C 	C 	0.81990 0.45150 0.61710 0.47500
C 	C 	0.64860 0.72110 0.95780 0.30400
C 	C 	0.84810 0.45040 0.92470 0.41100
C 	C 	0.06470 0.22010 0.79300 0.39900
C 	C 	0.32530 0.64950 0.07250 -0.16600
C 	C 	0.23220 0.14020 0.44360 -0.13400
C 	C 	0.72140 0.54170 0.84400 0.00700
C 	C 	0.39710 0.94690 0.45420 0.41100
C 	C 	0.78150 0.52110 0.91010 -0.12800
C 	C 	0.16950 0.21250 0.09750 0.44500
C 	C 	0.22070 0.13880 0.86540 0.00400
C 	C 	0.71070 0.06890 0.35550 -0.01100
C 	C 	0.24140 0.63480 0.01560 0.13500
C 	C 	0.15190 0.45040 0.42470 0.41400
C 	C 	0.35140 0.72110 0.45780 0.43400
C 	C 	0.70490 0.12020 0.67970 0.02000
C 	C 	0.86700 0.53770 0.19540 -0.01300
C 	C 	0.69280 0.95640 0.26360 0.44800
C 	C 	0.65660 0.04710 0.67380 -0.01900
C 	C 	0.18150 0.56570 0.02570 0.11500
C 	C 	0.27860 0.54170 0.34400 0.00400
C 	C 	0.78900 0.11350 0.01780 0.11100
C 	C 	0.18910 0.21410 0.41300 0.45200
C 	C 	0.81850 0.56570 0.52570 -0.00700
C 	C 	0.67470 0.64950 0.57250 -0.14000
C 	C 	0.28930 0.06890 0.85550 -0.02200
C 	C 	0.22840 0.13860 0.11440 -0.14000
C 	C 	0.75800 0.63440 0.25520 -0.13900
C 	C 	0.32950 0.01830 0.46420 -0.11700
C 	C 	0.93530 0.22010 0.29300 0.40500
C 	C 	0.21850 0.52110 0.41010 -0.13200
C 	C 	0.09380 0.43840 0.80140 0.40300
C 	C 	0.68900 0.64560 0.92660 -0.08700
C 	C 	0.81120 0.61010 0.18900 0.02400
C 	C 	0.75860 0.63480 0.51560 0.01400
C 	C 	0.73130 0.04130 0.02830 0.07500
C 	C 	0.24200 0.63440 0.75520 -0.13900
C 	C 	0.40730 0.71660 0.08090 0.45200
C 	C 	0.33560 0.61410 0.35440 -0.00500
C 	C 	0.59270 0.71660 0.58090 0.43900
C 	C 	0.18010 0.45150 0.11710 0.48600
C 	C 	0.90620 0.43840 0.30140 0.40700
C 	C 	0.31100 0.64560 0.42660 -0.12100
C 	C 	0.84920 0.15440 0.30360 -0.11900
S 	S 	0.83990 0.08543 0.23053 0.07600
S 	S 	0.77600 0.58775 0.98431 -0.00100
S 	S 	0.77340 0.06735 0.54777 0.07900
S 	S 	0.67820 0.08180 0.88938 0.10000
S 	S 	0.22660 0.06735 0.04777 0.13100
S 	S 	0.67020 0.57855 0.64220 0.07300
S 	S 	0.22400 0.58775 0.48431 0.07300
S 	S 	0.77430 0.56958 0.33059 0.06900
S 	S 	0.32980 0.57855 0.14220 0.10100
S 	S 	0.16010 0.08543 0.73053 0.06600
S 	S 	0.22570 0.56958 0.83059 0.04600
S 	S 	0.32180 0.08180 0.38938 0.08300
O 	O 	0.79110 0.22750 0.84210 -0.48900
O 	O 	0.32750 0.73660 0.52710 -0.44300
O 	O 	0.94970 0.26370 0.35260 -0.47500
O 	O 	0.20890 0.22750 0.34210 -0.48000
O 	O 	0.45080 0.93560 0.38960 -0.42600
O 	O 	0.03810 0.39640 0.75020 -0.42900
O 	O 	0.53400 0.72470 0.64440 -0.42300
O 	O 	0.66740 0.94270 0.19500 -0.45900
O 	O 	0.68910 0.91110 0.32090 -0.48000
O 	O 	0.35140 0.71970 0.83490 -0.45400
O 	O 	0.59470 0.76170 0.90700 -0.42100
O 	O 	0.13320 0.25560 0.46210 -0.45800
O 	O 	0.15420 0.39980 0.37050 -0.49800
O 	O 	0.67250 0.73660 0.02710 -0.34600
O 	O 	0.41750 0.89770 0.12730 -0.43200
O 	O 	0.10490 0.21930 0.03920 -0.40100
O 	O 	0.40010 0.90070 0.50980 -0.50800
O 	O 	0.34200 0.92110 0.00590 -0.37500
O 	O 	0.29290 0.75550 0.71410 -0.48500
O 	O 	0.40530 0.76170 0.40700 -0.44400
O 	O 	0.33260 0.94270 0.69500 -0.46200
O 	O 	0.96190 0.39640 0.25020 -0.42600
O 	O 	0.12300 0.41430 0.06760 -0.43000
O 	O 	0.46600 0.72470 0.14440 -0.42200
O 	O 	0.54920 0.93560 0.88960 -0.40800
O 	O 	0.79750 0.43240 0.68590 -0.47200
O 	O 	0.89510 0.21930 0.53920 -0.45800
O 	O 	0.59990 0.90070 0.00980 -0.42000
O 	O 	0.80080 0.26570 0.64500 -0.48200
O 	O 	0.58250 0.89770 0.62730 -0.43800
O 	O 	0.86680 0.25560 0.96210 -0.48200
O 	O 	0.90640 0.44180 0.98730 -0.43100
O 	O 	0.70710 0.75550 0.21410 -0.48400
O 	O 	0.31090 0.91110 0.82090 -0.47900
O 	O 	0.09360 0.44180 0.48730 -0.41300
O 	O 	0.98570 0.22860 0.22960 -0.40900
O 	O 	0.87700 0.41430 0.56760 -0.48400
O 	O 	0.41100 0.76190 0.02570 -0.46400
O 	O 	0.48360 0.83010 0.26670 -0.53700
O 	O 	0.64860 0.71970 0.33490 -0.45600
O 	O 	0.89350 0.42470 0.37300 -0.42400
O 	O 	0.65800 0.92110 0.50590 -0.42900
O 	O 	0.01430 0.22860 0.72960 -0.41200
O 	O 	0.84580 0.39980 0.87050 -0.49600
O 	O 	0.19920 0.26570 0.14500 -0.46800
O 	O 	0.05030 0.26370 0.85260 -0.47000
O 	O 	0.10650 0.42470 0.87300 -0.42400
O 	O 	0.20250 0.43240 0.18590 -0.46800
O 	O 	0.51640 0.83010 0.76670 -0.52900
O 	O 	0.58900 0.76190 0.52570 -0.51200
