data_crystal

_cell_length_a 10.92680
_cell_length_b 17.77500
_cell_length_c 16.87400
_cell_angle_alpha 90.21100
_cell_angle_beta  90.00000
_cell_angle_gamma 90.00000

_symmetry_space_group_name_	'P 1'
_symmetry_space_group_name_H-M	'P 1'

loop_
_symmetry_equiv_pos_as_xyz
  x,y,z

loop_
_atom_site_label
_atom_site_type_symbol
_atom_site_fract_x
_atom_site_fract_y
_atom_site_fract_z
_atom_site_charge
Eu	Eu	0.59065 0.83086 0.40776 2.06200
Eu	Eu	0.03898 0.33237 0.97380 1.76500
Eu	Eu	0.39600 0.82926 0.62467 2.03500
Eu	Eu	0.60400 0.82926 0.12467 2.04100
Eu	Eu	0.14122 0.32560 0.26085 2.03400
Eu	Eu	0.40935 0.83086 0.90776 1.88900
Eu	Eu	0.96102 0.33237 0.47380 1.92700
Eu	Eu	0.85878 0.32560 0.76085 2.01500
H 	H 	0.74530 0.00810 0.07060 0.01100
H 	H 	0.61680 0.63670 0.81780 0.04600
H 	H 	0.83400 0.13510 0.05810 0.01800
H 	H 	0.43220 0.78680 0.26910 0.21200
H 	H 	0.56780 0.78680 0.76910 0.20800
H 	H 	0.71500 0.51040 0.80120 0.01800
H 	H 	0.87340 0.54420 0.49050 0.03400
H 	H 	0.77490 0.66740 0.47590 0.00400
H 	H 	0.38320 0.63670 0.31780 0.03600
H 	H 	0.39500 0.02440 0.21370 0.04900
H 	H 	0.21800 0.16550 0.91290 -0.00700
H 	H 	0.43270 0.87410 0.26890 0.20600
H 	H 	0.22510 0.66740 0.97590 -0.10700
H 	H 	0.28500 0.51040 0.30120 0.02300
H 	H 	0.12660 0.54420 0.99050 -0.07500
H 	H 	0.34340 0.04930 0.89410 0.02600
H 	H 	0.69670 0.14940 0.72800 0.01600
H 	H 	0.30330 0.14940 0.22800 0.01900
H 	H 	0.91230 0.51390 0.15570 0.06100
H 	H 	0.08770 0.51390 0.65570 0.04500
H 	H 	0.16600 0.13510 0.55810 0.03600
H 	H 	0.78200 0.16550 0.41290 0.01800
H 	H 	0.80630 0.63740 0.14070 0.04200
H 	H 	0.25470 0.00810 0.57060 0.03200
H 	H 	0.19370 0.63740 0.64070 0.02500
H 	H 	0.56730 0.87410 0.76890 0.20200
H 	H 	0.60500 0.02440 0.71370 0.04900
H 	H 	0.65660 0.04930 0.39410 0.04300
C 	C 	0.06580 0.22020 0.79220 0.41700
C 	C 	0.78320 0.13620 0.36710 0.00600
C 	C 	0.18240 0.45170 0.11690 0.50800
C 	C 	0.30500 0.70740 0.77020 0.45900
C 	C 	0.14640 0.51080 0.76990 -0.12700
C 	C 	0.70500 0.11900 0.68340 0.02200
C 	C 	0.21680 0.13620 0.86710 0.00100
C 	C 	0.65160 0.72060 0.95660 0.32100
C 	C 	0.27850 0.54020 0.34650 0.01000
C 	C 	0.30270 0.95520 0.76270 0.49200
C 	C 	0.21000 0.11060 0.51850 0.01100
C 	C 	0.34600 0.04650 0.17500 -0.01100
C 	C 	0.29500 0.11900 0.18340 0.02400
C 	C 	0.78330 0.52140 0.91080 -0.14600
C 	C 	0.79000 0.11060 0.01850 0.12400
C 	C 	0.81760 0.45170 0.61690 0.49500
C 	C 	0.81510 0.56340 0.52530 -0.00200
C 	C 	0.67200 0.64880 0.57340 -0.15200
C 	C 	0.81330 0.21220 0.91330 0.52400
C 	C 	0.68100 0.01260 0.60720 -0.10600
C 	C 	0.18490 0.56340 0.02530 0.14000
C 	C 	0.24320 0.63410 0.01670 0.15500
C 	C 	0.85100 0.15320 0.30200 -0.13100
C 	C 	0.36550 0.93840 0.07920 0.42700
C 	C 	0.59010 0.71570 0.58270 0.46700
C 	C 	0.13110 0.53810 0.69580 -0.01300
C 	C 	0.93420 0.22020 0.29220 0.42500
C 	C 	0.69500 0.70740 0.27020 0.46600
C 	C 	0.31900 0.01260 0.10720 -0.10700
C 	C 	0.80840 0.61020 0.18770 0.02300
C 	C 	0.32740 0.01790 0.46360 -0.11700
C 	C 	0.74270 0.03260 0.28540 -0.12400
C 	C 	0.18670 0.21220 0.41330 0.49900
C 	C 	0.66490 0.61390 0.85630 -0.03100
C 	C 	0.68960 0.64500 0.92640 -0.10200
C 	C 	0.69730 0.95520 0.26270 0.50200
C 	C 	0.85360 0.51080 0.26990 -0.12800
C 	C 	0.14900 0.15320 0.80200 -0.13500
C 	C 	0.75720 0.63280 0.25340 -0.14300
C 	C 	0.75680 0.63410 0.51670 0.01600
C 	C 	0.72150 0.54020 0.84650 0.01400
C 	C 	0.21670 0.52140 0.41080 -0.15000
C 	C 	0.15150 0.44940 0.42540 0.45500
C 	C 	0.60460 0.94670 0.95530 0.29800
C 	C 	0.39540 0.94670 0.45530 0.40200
C 	C 	0.25730 0.03260 0.78540 -0.12300
C 	C 	0.16920 0.21200 0.09760 0.50200
C 	C 	0.73630 0.03810 0.02600 0.09500
C 	C 	0.71310 0.06760 0.35760 -0.00600
C 	C 	0.84850 0.44940 0.92540 0.44900
C 	C 	0.33510 0.61390 0.35630 0.00400
C 	C 	0.77040 0.13880 0.61500 -0.16400
C 	C 	0.34840 0.72060 0.45660 0.46800
C 	C 	0.26370 0.03810 0.52600 -0.00300
C 	C 	0.40990 0.71570 0.08270 0.48100
C 	C 	0.23210 0.13920 0.44480 -0.15200
C 	C 	0.28690 0.06760 0.85760 -0.01900
C 	C 	0.67260 0.01790 0.96360 -0.20800
C 	C 	0.63450 0.93840 0.57920 0.42800
C 	C 	0.65400 0.04650 0.67500 -0.01800
C 	C 	0.77490 0.52780 0.59070 -0.15500
C 	C 	0.22960 0.13880 0.11500 -0.15900
C 	C 	0.09480 0.43900 0.80070 0.44100
C 	C 	0.19160 0.61020 0.68770 0.01800
C 	C 	0.24280 0.63280 0.75340 -0.14100
C 	C 	0.32800 0.64880 0.07340 -0.18200
C 	C 	0.31040 0.64500 0.42640 -0.14400
C 	C 	0.90520 0.43900 0.30070 0.44700
C 	C 	0.22510 0.52780 0.09070 -0.19100
C 	C 	0.76790 0.13920 0.94480 -0.26800
C 	C 	0.83080 0.21200 0.59760 0.51000
C 	C 	0.86890 0.53810 0.19580 -0.00500
S 	S 	0.22590 0.56954 0.82960 0.03900
S 	S 	0.66990 0.57844 0.64296 0.07300
S 	S 	0.32220 0.08172 0.38960 0.08200
S 	S 	0.77230 0.06773 0.54840 0.08100
S 	S 	0.22280 0.58766 0.48490 0.07300
S 	S 	0.83820 0.08538 0.22970 0.07900
S 	S 	0.33010 0.57844 0.14296 0.10600
S 	S 	0.22770 0.06773 0.04840 0.14100
S 	S 	0.16180 0.08538 0.72970 0.06700
S 	S 	0.77410 0.56954 0.32960 0.06600
S 	S 	0.67780 0.08172 0.88960 0.10100
S 	S 	0.77720 0.58766 0.98490 -0.01300
O 	O 	0.48580 0.83030 0.26950 -0.60800
O 	O 	0.67020 0.94200 0.19570 -0.54000
O 	O 	0.69140 0.91070 0.32070 -0.55600
O 	O 	0.15110 0.39980 0.37260 -0.60000
O 	O 	0.45210 0.93570 0.38770 -0.45900
O 	O 	0.20290 0.43260 0.18750 -0.52000
O 	O 	0.09210 0.44120 0.48930 -0.46800
O 	O 	0.35260 0.71930 0.83560 -0.50700
O 	O 	0.10810 0.42560 0.87150 -0.47800
O 	O 	0.94860 0.26290 0.35120 -0.55700
O 	O 	0.89190 0.42560 0.37150 -0.48100
O 	O 	0.59380 0.76090 0.90750 -0.47900
O 	O 	0.41630 0.89770 0.12630 -0.50700
O 	O 	0.87460 0.41120 0.56920 -0.55100
O 	O 	0.20820 0.22680 0.34310 -0.54700
O 	O 	0.84890 0.39980 0.87260 -0.59600
O 	O 	0.01280 0.22890 0.72760 -0.45700
O 	O 	0.70720 0.75640 0.21380 -0.53900
O 	O 	0.79180 0.22680 0.84310 -0.55600
O 	O 	0.59960 0.89970 0.00880 -0.48200
O 	O 	0.64740 0.71930 0.33560 -0.51300
O 	O 	0.53600 0.72340 0.64520 -0.48400
O 	O 	0.79710 0.43260 0.68750 -0.52300
O 	O 	0.40620 0.76090 0.40750 -0.50600
O 	O 	0.95960 0.39720 0.24940 -0.49200
O 	O 	0.05140 0.26290 0.85120 -0.54800
O 	O 	0.54790 0.93570 0.88770 -0.43900
O 	O 	0.04040 0.39720 0.74940 -0.49400
O 	O 	0.58370 0.89770 0.62630 -0.51400
O 	O 	0.46400 0.72340 0.14520 -0.48300
O 	O 	0.10710 0.21890 0.04090 -0.46300
O 	O 	0.33970 0.92210 0.00590 -0.42500
O 	O 	0.20110 0.26480 0.14640 -0.54300
O 	O 	0.67370 0.73750 0.02660 -0.39700
O 	O 	0.86880 0.25250 0.96270 -0.55500
O 	O 	0.79890 0.26480 0.64640 -0.56000
O 	O 	0.98720 0.22890 0.22760 -0.45500
O 	O 	0.51420 0.83030 0.76950 -0.59600
O 	O 	0.41230 0.76130 0.02560 -0.52500
O 	O 	0.32980 0.94200 0.69570 -0.54200
O 	O 	0.58770 0.76130 0.52560 -0.58500
O 	O 	0.13120 0.25250 0.46270 -0.53000
O 	O 	0.90790 0.44120 0.98930 -0.48600
O 	O 	0.32630 0.73750 0.52660 -0.50600
O 	O 	0.29280 0.75640 0.71380 -0.53900
O 	O 	0.40040 0.89970 0.50880 -0.58500
O 	O 	0.66030 0.92210 0.50590 -0.49100
O 	O 	0.30860 0.91070 0.82070 -0.55000
O 	O 	0.89290 0.21890 0.54090 -0.53200
O 	O 	0.12540 0.41120 0.06920 -0.48700
