data_crystal

_cell_length_a 10.93500
_cell_length_b 17.91500
_cell_length_c 16.95300
_cell_angle_alpha 89.83200
_cell_angle_beta  90.00000
_cell_angle_gamma 90.00000

_symmetry_space_group_name_	'P 1'
_symmetry_space_group_name_H-M	'P 1'

loop_
_symmetry_equiv_pos_as_xyz
  x,y,z

loop_
_atom_site_label
_atom_site_type_symbol
_atom_site_fract_x
_atom_site_fract_y
_atom_site_fract_z
_atom_site_charge
Nd	Nd	0.60790 0.82889 0.12374 2.30100
Nd	Nd	0.95509 0.33278 0.47273 2.16300
Nd	Nd	0.41127 0.83103 0.90892 2.10700
Nd	Nd	0.04491 0.33278 0.97273 1.96600
Nd	Nd	0.13993 0.32540 0.26150 2.31100
Nd	Nd	0.39210 0.82889 0.62374 2.28900
Nd	Nd	0.86007 0.32540 0.76150 2.28600
Nd	Nd	0.58873 0.83103 0.40892 2.32300
H 	H 	0.73560 0.01160 0.07580 0.01600
H 	H 	0.79120 0.16160 0.41270 0.00900
H 	H 	0.26440 0.01160 0.57580 0.03200
H 	H 	0.56980 0.78630 0.76680 0.20700
H 	H 	0.16010 0.13340 0.55590 0.02700
H 	H 	0.57020 0.87300 0.76580 0.20100
H 	H 	0.60060 0.02650 0.71530 0.05000
H 	H 	0.24080 0.66320 0.97270 -0.12200
H 	H 	0.86240 0.54390 0.48950 0.02800
H 	H 	0.27750 0.51160 0.30410 0.01200
H 	H 	0.43020 0.78630 0.26680 0.21200
H 	H 	0.08830 0.51670 0.65390 0.04400
H 	H 	0.20880 0.16160 0.91270 -0.01800
H 	H 	0.72250 0.51160 0.80410 0.00500
H 	H 	0.42980 0.87300 0.26580 0.20700
H 	H 	0.83990 0.13340 0.05590 -0.00100
H 	H 	0.39940 0.02650 0.21530 0.05000
H 	H 	0.91170 0.51670 0.15390 0.06200
H 	H 	0.67270 0.04440 0.39630 0.04100
H 	H 	0.61840 0.63120 0.81890 0.04600
H 	H 	0.31190 0.15180 0.22590 0.00600
H 	H 	0.32730 0.04440 0.89630 0.02100
H 	H 	0.75920 0.66320 0.47270 -0.00600
H 	H 	0.80350 0.63730 0.14150 0.02900
H 	H 	0.13760 0.54390 0.98950 -0.09000
H 	H 	0.68810 0.15180 0.72590 0.00300
H 	H 	0.19650 0.63730 0.64150 0.01100
H 	H 	0.38160 0.63120 0.31890 0.03500
C 	C 	0.23720 0.14020 0.11670 -0.17400
C 	C 	0.76280 0.14020 0.61670 -0.17800
C 	C 	0.18880 0.45080 0.11690 0.55500
C 	C 	0.72670 0.54060 0.84950 0.02800
C 	C 	0.81120 0.45080 0.61690 0.54500
C 	C 	0.30170 0.12100 0.18230 0.04000
C 	C 	0.81450 0.21080 0.91430 0.55300
C 	C 	0.69830 0.12100 0.68230 0.03700
C 	C 	0.90140 0.43920 0.29800 0.46400
C 	C 	0.29790 0.70910 0.76960 0.51200
C 	C 	0.69260 0.64350 0.92660 -0.10200
C 	C 	0.18070 0.21380 0.09960 0.51000
C 	C 	0.70210 0.70910 0.26960 0.52100
C 	C 	0.79260 0.10980 0.01780 0.17300
C 	C 	0.75980 0.63560 0.25450 -0.17900
C 	C 	0.63530 0.94020 0.57980 0.46000
C 	C 	0.30740 0.64350 0.42660 -0.14900
C 	C 	0.19530 0.56280 0.02440 0.15300
C 	C 	0.36470 0.94020 0.07980 0.45600
C 	C 	0.30070 0.95590 0.76420 0.47800
C 	C 	0.33170 0.61040 0.35750 -0.00300
C 	C 	0.69930 0.95590 0.26420 0.49100
C 	C 	0.72500 0.06420 0.35840 -0.01200
C 	C 	0.66400 0.64730 0.57500 -0.16800
C 	C 	0.58870 0.71370 0.58470 0.45800
C 	C 	0.79200 0.13320 0.36690 0.01400
C 	C 	0.85530 0.15190 0.30240 -0.14200
C 	C 	0.24020 0.63560 0.75450 -0.17700
C 	C 	0.85130 0.51160 0.26780 -0.13300
C 	C 	0.33600 0.64730 0.07500 -0.19800
C 	C 	0.80470 0.56280 0.52440 -0.00100
C 	C 	0.39680 0.94680 0.45200 0.43700
C 	C 	0.65410 0.71840 0.95690 0.32300
C 	C 	0.67800 0.01380 0.60740 -0.11700
C 	C 	0.77160 0.13740 0.94620 -0.30900
C 	C 	0.27330 0.54060 0.34950 0.02000
C 	C 	0.32200 0.01380 0.10740 -0.11600
C 	C 	0.81930 0.21380 0.59960 0.51600
C 	C 	0.13180 0.53970 0.69420 -0.02400
C 	C 	0.34590 0.71840 0.45690 0.48700
C 	C 	0.25480 0.63130 0.01520 0.16400
C 	C 	0.60320 0.94680 0.95200 0.31500
C 	C 	0.19190 0.61070 0.68860 0.03900
C 	C 	0.93540 0.21880 0.29010 0.43700
C 	C 	0.35150 0.04840 0.17620 -0.01800
C 	C 	0.25120 0.03150 0.78620 -0.12100
C 	C 	0.21200 0.52070 0.41340 -0.16700
C 	C 	0.67280 0.01630 0.96350 -0.20800
C 	C 	0.66830 0.61040 0.85750 -0.04300
C 	C 	0.64850 0.04840 0.67620 -0.02400
C 	C 	0.20740 0.10980 0.51780 0.02500
C 	C 	0.86820 0.53970 0.19420 -0.01700
C 	C 	0.41130 0.71370 0.08470 0.47200
C 	C 	0.27500 0.06420 0.85840 -0.02500
C 	C 	0.22840 0.13740 0.44620 -0.16900
C 	C 	0.26700 0.03880 0.52900 -0.01400
C 	C 	0.74880 0.03150 0.28620 -0.12300
C 	C 	0.32720 0.01630 0.46350 -0.12200
C 	C 	0.06460 0.21880 0.79010 0.42800
C 	C 	0.14470 0.15190 0.80240 -0.14600
C 	C 	0.23330 0.52790 0.09080 -0.20200
C 	C 	0.09860 0.43920 0.79800 0.45700
C 	C 	0.73300 0.03880 0.02900 0.07000
C 	C 	0.80810 0.61070 0.18860 0.04600
C 	C 	0.78800 0.52070 0.91340 -0.16400
C 	C 	0.14870 0.51160 0.76780 -0.13300
C 	C 	0.20800 0.13320 0.86690 0.00900
C 	C 	0.14150 0.45210 0.42960 0.47400
C 	C 	0.18550 0.21080 0.41430 0.52300
C 	C 	0.76670 0.52790 0.59080 -0.16500
C 	C 	0.74520 0.63130 0.51520 0.01700
C 	C 	0.85850 0.45210 0.92960 0.47100
S 	S 	0.31880 0.08131 0.38967 0.08200
S 	S 	0.68120 0.08131 0.88967 0.10100
S 	S 	0.23310 0.06963 0.05012 0.14700
S 	S 	0.22600 0.57054 0.82805 0.04300
S 	S 	0.77400 0.57054 0.32805 0.06900
S 	S 	0.66670 0.57869 0.64420 0.07600
S 	S 	0.16310 0.08588 0.72825 0.06400
S 	S 	0.83690 0.08588 0.22825 0.07700
S 	S 	0.21810 0.58771 0.48552 0.07200
S 	S 	0.76690 0.06963 0.55012 0.08100
S 	S 	0.78190 0.58771 0.98552 -0.02200
S 	S 	0.33330 0.57869 0.14420 0.11100
O 	O 	0.14210 0.39970 0.37700 -0.64300
O 	O 	0.41720 0.76120 0.03020 -0.57000
O 	O 	0.20580 0.26470 0.14760 -0.60200
O 	O 	0.35100 0.71920 0.83440 -0.54000
O 	O 	0.33990 0.92240 0.00970 -0.46800
O 	O 	0.32260 0.73490 0.52570 -0.54700
O 	O 	0.88510 0.21990 0.54020 -0.55300
O 	O 	0.11570 0.42530 0.86970 -0.50800
O 	O 	0.79240 0.22660 0.84520 -0.60800
O 	O 	0.79350 0.43370 0.68770 -0.57600
O 	O 	0.59580 0.75830 0.90730 -0.51300
O 	O 	0.54870 0.93770 0.88600 -0.47900
O 	O 	0.45130 0.93770 0.38600 -0.50800
O 	O 	0.95780 0.39850 0.24930 -0.54400
O 	O 	0.66010 0.92240 0.50970 -0.54200
O 	O 	0.51690 0.82980 0.76730 -0.62900
O 	O 	0.01450 0.22840 0.72500 -0.49000
O 	O 	0.94800 0.26240 0.34750 -0.60600
O 	O 	0.59800 0.89980 0.00420 -0.53200
O 	O 	0.40420 0.75830 0.40730 -0.54700
O 	O 	0.04220 0.39850 0.74930 -0.54600
O 	O 	0.71370 0.75680 0.21620 -0.60600
O 	O 	0.20760 0.22660 0.34520 -0.59700
O 	O 	0.41980 0.90080 0.12720 -0.54300
O 	O 	0.05200 0.26240 0.84750 -0.59300
O 	O 	0.67740 0.73490 0.02570 -0.42600
O 	O 	0.30840 0.91060 0.82050 -0.58900
O 	O 	0.67620 0.94250 0.19450 -0.55800
O 	O 	0.08570 0.44590 0.49050 -0.50900
O 	O 	0.53150 0.72120 0.64910 -0.49100
O 	O 	0.58280 0.76120 0.53020 -0.63500
O 	O 	0.64900 0.71920 0.33440 -0.55100
O 	O 	0.40200 0.89980 0.50420 -0.65100
O 	O 	0.87320 0.25120 0.96220 -0.59400
O 	O 	0.58020 0.90080 0.62720 -0.55200
O 	O 	0.98550 0.22840 0.22500 -0.48800
O 	O 	0.20650 0.43370 0.18770 -0.57100
O 	O 	0.86180 0.41230 0.56820 -0.61200
O 	O 	0.11490 0.21990 0.04020 -0.47600
O 	O 	0.28630 0.75680 0.71620 -0.60500
O 	O 	0.13820 0.41230 0.06820 -0.53900
O 	O 	0.91430 0.44590 0.99050 -0.52900
O 	O 	0.12680 0.25120 0.46220 -0.56900
O 	O 	0.85790 0.39970 0.87700 -0.63700
O 	O 	0.79420 0.26470 0.64760 -0.62000
O 	O 	0.69160 0.91060 0.32050 -0.60000
O 	O 	0.32380 0.94250 0.69450 -0.55900
O 	O 	0.88430 0.42530 0.36970 -0.51400
O 	O 	0.48310 0.82980 0.26730 -0.64400
O 	O 	0.46850 0.72120 0.14910 -0.49000
