data_crystal

_cell_length_a 20.20800
_cell_length_b 20.20800
_cell_length_c 20.20800
_cell_angle_alpha 90.00000
_cell_angle_beta  90.00000
_cell_angle_gamma 90.00000

_symmetry_space_group_name_	'P 1'
_symmetry_space_group_name_H-M	'P 1'

loop_
_symmetry_equiv_pos_as_xyz
  x,y,z

loop_
_atom_site_label
_atom_site_type_symbol
_atom_site_fract_x
_atom_site_fract_y
_atom_site_fract_z
_atom_site_charge
N 	N 	0.46630 0.36160 0.06760 -0.10000
N 	N 	0.44510 0.32110 0.11310 -0.10500
C 	C 	0.44180 0.17100 0.26470 0.08100
H 	H 	0.40130 0.15370 0.27780 0.02100
O 	O 	0.44360 0.35660 0.07010 -0.28800
N 	N 	0.53370 0.63840 0.06760 -0.09400
N 	N 	0.55490 0.67890 0.11310 -0.10300
C 	C 	0.55820 0.82900 0.26470 0.06300
H 	H 	0.59870 0.84630 0.27780 0.03800
O 	O 	0.55640 0.64340 0.07010 -0.29100
N 	N 	0.53370 0.36160 0.93240 -0.06400
N 	N 	0.55490 0.32110 0.88690 -0.09200
C 	C 	0.55820 0.17100 0.73530 0.07300
H 	H 	0.59870 0.15370 0.72220 0.03100
O 	O 	0.55640 0.35660 0.92990 -0.31500
N 	N 	0.46630 0.63840 0.93240 -0.06500
N 	N 	0.44510 0.67890 0.88690 -0.09100
C 	C 	0.44180 0.82900 0.73530 0.05600
H 	H 	0.40130 0.84630 0.72220 0.04200
O 	O 	0.44360 0.64340 0.92990 -0.31200
N 	N 	0.06760 0.46630 0.36160 -0.10000
N 	N 	0.11310 0.44510 0.32110 -0.10500
C 	C 	0.26470 0.44180 0.17100 0.08100
H 	H 	0.27780 0.40130 0.15370 0.02100
O 	O 	0.07010 0.44360 0.35660 -0.28700
N 	N 	0.06760 0.53370 0.63840 -0.09300
N 	N 	0.11310 0.55490 0.67890 -0.10200
C 	C 	0.26470 0.55820 0.82900 0.06400
H 	H 	0.27780 0.59870 0.84630 0.03900
O 	O 	0.07010 0.55640 0.64340 -0.29000
N 	N 	0.93240 0.53370 0.36160 -0.06300
N 	N 	0.88690 0.55490 0.32110 -0.09100
C 	C 	0.73530 0.55820 0.17100 0.07400
H 	H 	0.72220 0.59870 0.15370 0.03200
O 	O 	0.92990 0.55640 0.35660 -0.31400
N 	N 	0.93240 0.46630 0.63840 -0.06400
N 	N 	0.88690 0.44510 0.67890 -0.09000
C 	C 	0.73530 0.44180 0.82900 0.05700
H 	H 	0.72220 0.40130 0.84630 0.04300
O 	O 	0.92990 0.44360 0.64340 -0.31100
N 	N 	0.36160 0.06760 0.46630 -0.09900
N 	N 	0.32110 0.11310 0.44510 -0.10400
C 	C 	0.17100 0.26470 0.44180 0.08200
H 	H 	0.15370 0.27780 0.40130 0.02200
O 	O 	0.35660 0.07010 0.44360 -0.28700
N 	N 	0.63840 0.06760 0.53370 -0.09300
N 	N 	0.67890 0.11310 0.55490 -0.10200
C 	C 	0.82900 0.26470 0.55820 0.06400
H 	H 	0.84630 0.27780 0.59870 0.03900
O 	O 	0.64340 0.07010 0.55640 -0.29000
N 	N 	0.36160 0.93240 0.53370 -0.06300
N 	N 	0.32110 0.88690 0.55490 -0.09100
C 	C 	0.17100 0.73530 0.55820 0.07400
H 	H 	0.15370 0.72220 0.59870 0.03200
O 	O 	0.35660 0.92990 0.55640 -0.31400
N 	N 	0.63840 0.93240 0.46630 -0.06400
N 	N 	0.67890 0.88690 0.44510 -0.09000
C 	C 	0.82900 0.73530 0.44180 0.05700
H 	H 	0.84630 0.72220 0.40130 0.04300
O 	O 	0.64340 0.92990 0.44360 -0.31100
N 	N 	0.36160 0.46630 0.93240 -0.06700
N 	N 	0.32110 0.44510 0.88690 -0.09200
C 	C 	0.17100 0.44180 0.73530 0.07500
H 	H 	0.15370 0.40130 0.72220 0.02900
O 	O 	0.35660 0.44360 0.92990 -0.31100
N 	N 	0.63840 0.53370 0.93240 -0.06100
N 	N 	0.67890 0.55490 0.88690 -0.08900
C 	C 	0.82900 0.55820 0.73530 0.05600
H 	H 	0.84630 0.59870 0.72220 0.04600
O 	O 	0.64340 0.55640 0.92990 -0.31400
N 	N 	0.36160 0.53370 0.06760 -0.09600
N 	N 	0.32110 0.55490 0.11310 -0.10300
C 	C 	0.17100 0.55820 0.26470 0.08200
H 	H 	0.15370 0.59870 0.27780 0.02500
O 	O 	0.35660 0.55640 0.07010 -0.29000
N 	N 	0.63840 0.46630 0.06760 -0.09600
N 	N 	0.67890 0.44510 0.11310 -0.10300
C 	C 	0.82900 0.44180 0.26470 0.06400
H 	H 	0.84630 0.40130 0.27780 0.03600
O 	O 	0.64340 0.44360 0.07010 -0.28700
N 	N 	0.46630 0.06760 0.63840 -0.09600
N 	N 	0.44510 0.11310 0.67890 -0.10300
C 	C 	0.44180 0.26470 0.82900 0.06400
H 	H 	0.40130 0.27780 0.84630 0.03600
O 	O 	0.44360 0.07010 0.64340 -0.28700
N 	N 	0.53370 0.06760 0.36160 -0.09600
N 	N 	0.55490 0.11310 0.32110 -0.10300
C 	C 	0.55820 0.26470 0.17100 0.08200
H 	H 	0.59870 0.27780 0.15370 0.02500
O 	O 	0.55640 0.07010 0.35660 -0.29000
N 	N 	0.53370 0.93240 0.63840 -0.06100
N 	N 	0.55490 0.88690 0.67890 -0.08900
C 	C 	0.55820 0.73530 0.82900 0.05600
H 	H 	0.59870 0.72220 0.84630 0.04600
O 	O 	0.55640 0.92990 0.64340 -0.31400
N 	N 	0.46630 0.93240 0.36160 -0.06700
N 	N 	0.44510 0.88690 0.32110 -0.09200
C 	C 	0.44180 0.73530 0.17100 0.07500
H 	H 	0.40130 0.72220 0.15370 0.02900
O 	O 	0.44360 0.92990 0.35660 -0.31100
N 	N 	0.06760 0.36160 0.53370 -0.09600
N 	N 	0.11310 0.32110 0.55490 -0.10300
C 	C 	0.26470 0.17100 0.55820 0.08200
H 	H 	0.27780 0.15370 0.59870 0.02500
O 	O 	0.07010 0.35660 0.55640 -0.29000
N 	N 	0.06760 0.63840 0.46630 -0.09600
N 	N 	0.11310 0.67890 0.44510 -0.10300
C 	C 	0.26470 0.82900 0.44180 0.06400
H 	H 	0.27780 0.84630 0.40130 0.03600
O 	O 	0.07010 0.64340 0.44360 -0.28700
N 	N 	0.93240 0.36160 0.46630 -0.06700
N 	N 	0.88690 0.32110 0.44510 -0.09200
C 	C 	0.73530 0.17100 0.44180 0.07500
H 	H 	0.72220 0.15370 0.40130 0.02900
O 	O 	0.92990 0.35660 0.44360 -0.31100
N 	N 	0.93240 0.63840 0.53370 -0.06100
N 	N 	0.88690 0.67890 0.55490 -0.08900
C 	C 	0.73530 0.82900 0.55820 0.05600
H 	H 	0.72220 0.84630 0.59870 0.04600
O 	O 	0.92990 0.64340 0.55640 -0.31400
N 	N 	0.53370 0.63840 0.93240 -0.06100
N 	N 	0.55490 0.67890 0.88690 -0.08900
C 	C 	0.55820 0.82900 0.73530 0.05600
H 	H 	0.59870 0.84630 0.72220 0.04600
O 	O 	0.55640 0.64340 0.92990 -0.31400
N 	N 	0.46630 0.36160 0.93240 -0.06700
N 	N 	0.44510 0.32110 0.88690 -0.09200
C 	C 	0.44180 0.17100 0.73530 0.07500
H 	H 	0.40130 0.15370 0.72220 0.02900
O 	O 	0.44360 0.35660 0.92990 -0.31100
N 	N 	0.46630 0.63840 0.06760 -0.09600
N 	N 	0.44510 0.67890 0.11310 -0.10300
C 	C 	0.44180 0.82900 0.26470 0.06400
H 	H 	0.40130 0.84630 0.27780 0.03600
O 	O 	0.44360 0.64340 0.07010 -0.28700
N 	N 	0.53370 0.36160 0.06760 -0.09600
N 	N 	0.55490 0.32110 0.11310 -0.10300
C 	C 	0.55820 0.17100 0.26470 0.08200
H 	H 	0.59870 0.15370 0.27780 0.02500
O 	O 	0.55640 0.35660 0.07010 -0.29000
N 	N 	0.93240 0.53370 0.63840 -0.06100
N 	N 	0.88690 0.55490 0.67890 -0.08900
C 	C 	0.73530 0.55820 0.82900 0.05600
H 	H 	0.72220 0.59870 0.84630 0.04600
O 	O 	0.92990 0.55640 0.64340 -0.31400
N 	N 	0.93240 0.46630 0.36160 -0.06700
N 	N 	0.88690 0.44510 0.32110 -0.09200
C 	C 	0.73530 0.44180 0.17100 0.07500
H 	H 	0.72220 0.40130 0.15370 0.02900
O 	O 	0.92990 0.44360 0.35660 -0.31100
N 	N 	0.06760 0.46630 0.63840 -0.09600
N 	N 	0.11310 0.44510 0.67890 -0.10300
C 	C 	0.26470 0.44180 0.82900 0.06400
H 	H 	0.27780 0.40130 0.84630 0.03600
O 	O 	0.07010 0.44360 0.64340 -0.28700
N 	N 	0.06760 0.53370 0.36160 -0.09600
N 	N 	0.11310 0.55490 0.32110 -0.10300
C 	C 	0.26470 0.55820 0.17100 0.08200
H 	H 	0.27780 0.59870 0.15370 0.02500
O 	O 	0.07010 0.55640 0.35660 -0.29000
N 	N 	0.63840 0.93240 0.53370 -0.06100
N 	N 	0.67890 0.88690 0.55490 -0.08900
C 	C 	0.82900 0.73530 0.55820 0.05600
H 	H 	0.84630 0.72220 0.59870 0.04600
O 	O 	0.64340 0.92990 0.55640 -0.31400
N 	N 	0.36160 0.93240 0.46630 -0.06700
N 	N 	0.32110 0.88690 0.44510 -0.09200
C 	C 	0.17100 0.73530 0.44180 0.07500
H 	H 	0.15370 0.72220 0.40130 0.02900
O 	O 	0.35660 0.92990 0.44360 -0.31100
N 	N 	0.63840 0.06760 0.46630 -0.09600
N 	N 	0.67890 0.11310 0.44510 -0.10300
C 	C 	0.82900 0.26470 0.44180 0.06400
H 	H 	0.84630 0.27780 0.40130 0.03600
O 	O 	0.64340 0.07010 0.44360 -0.28700
N 	N 	0.36160 0.06760 0.53370 -0.09600
N 	N 	0.32110 0.11310 0.55490 -0.10300
C 	C 	0.17100 0.26470 0.55820 0.08200
H 	H 	0.15370 0.27780 0.59870 0.02500
O 	O 	0.35660 0.07010 0.55640 -0.29000
N 	N 	0.63840 0.53370 0.06760 -0.09300
N 	N 	0.67890 0.55490 0.11310 -0.10200
C 	C 	0.82900 0.55820 0.26470 0.06400
H 	H 	0.84630 0.59870 0.27780 0.03900
O 	O 	0.64340 0.55640 0.07010 -0.29000
N 	N 	0.36160 0.46630 0.06760 -0.09900
N 	N 	0.32110 0.44510 0.11310 -0.10400
C 	C 	0.17100 0.44180 0.26470 0.08200
H 	H 	0.15370 0.40130 0.27780 0.02200
O 	O 	0.35660 0.44360 0.07010 -0.28700
N 	N 	0.63840 0.46630 0.93240 -0.06400
N 	N 	0.67890 0.44510 0.88690 -0.09000
C 	C 	0.82900 0.44180 0.73530 0.05700
H 	H 	0.84630 0.40130 0.72220 0.04300
O 	O 	0.64340 0.44360 0.92990 -0.31100
N 	N 	0.36160 0.53370 0.93240 -0.06300
N 	N 	0.32110 0.55490 0.88690 -0.09100
C 	C 	0.17100 0.55820 0.73530 0.07400
H 	H 	0.15370 0.59870 0.72220 0.03200
O 	O 	0.35660 0.55640 0.92990 -0.31400
N 	N 	0.53370 0.93240 0.36160 -0.06300
N 	N 	0.55490 0.88690 0.32110 -0.09100
C 	C 	0.55820 0.73530 0.17100 0.07400
H 	H 	0.59870 0.72220 0.15370 0.03200
O 	O 	0.55640 0.92990 0.35660 -0.31400
N 	N 	0.46630 0.93240 0.63840 -0.06400
N 	N 	0.44510 0.88690 0.67890 -0.09000
C 	C 	0.44180 0.73530 0.82900 0.05700
H 	H 	0.40130 0.72220 0.84630 0.04300
O 	O 	0.44360 0.92990 0.64340 -0.31100
N 	N 	0.46630 0.06760 0.36160 -0.09900
N 	N 	0.44510 0.11310 0.32110 -0.10400
C 	C 	0.44180 0.26470 0.17100 0.08200
H 	H 	0.40130 0.27780 0.15370 0.02200
O 	O 	0.44360 0.07010 0.35660 -0.28700
N 	N 	0.53370 0.06760 0.63840 -0.09300
N 	N 	0.55490 0.11310 0.67890 -0.10200
C 	C 	0.55820 0.26470 0.82900 0.06400
H 	H 	0.59870 0.27780 0.84630 0.03900
O 	O 	0.55640 0.07010 0.64340 -0.29000
N 	N 	0.93240 0.63840 0.46630 -0.06400
N 	N 	0.88690 0.67890 0.44510 -0.09000
C 	C 	0.73530 0.82900 0.44180 0.05700
H 	H 	0.72220 0.84630 0.40130 0.04300
O 	O 	0.92990 0.64340 0.44360 -0.31100
N 	N 	0.93240 0.36160 0.53370 -0.06300
N 	N 	0.88690 0.32110 0.55490 -0.09100
C 	C 	0.73530 0.17100 0.55820 0.07400
H 	H 	0.72220 0.15370 0.59870 0.03200
O 	O 	0.92990 0.35660 0.55640 -0.31400
N 	N 	0.06760 0.63840 0.53370 -0.09300
N 	N 	0.11310 0.67890 0.55490 -0.10200
C 	C 	0.26470 0.82900 0.55820 0.06400
H 	H 	0.27780 0.84630 0.59870 0.03900
O 	O 	0.07010 0.64340 0.55640 -0.29000
N 	N 	0.06760 0.36160 0.46630 -0.09900
N 	N 	0.11310 0.32110 0.44510 -0.10400
C 	C 	0.26470 0.17100 0.44180 0.08200
H 	H 	0.27780 0.15370 0.40130 0.02200
O 	O 	0.07010 0.35660 0.44360 -0.28700
Cu	Cu	0.41156 0.41156 -0.00000 0.92400
Cu	Cu	0.58844 0.58844 -0.00000 0.92600
Cu	Cu	0.58844 0.41156 -0.00000 0.92500
Cu	Cu	0.41156 0.58844 -0.00000 0.92500
Cu	Cu	0.00000 0.41156 0.41156 0.92400
Cu	Cu	0.00000 0.58844 0.58844 0.92600
Cu	Cu	0.00000 0.58844 0.41156 0.92500
Cu	Cu	0.00000 0.41156 0.58844 0.92500
Cu	Cu	0.41156 0.00000 0.41156 0.92400
Cu	Cu	0.58844 0.00000 0.58844 0.92600
Cu	Cu	0.41156 0.00000 0.58844 0.92500
Cu	Cu	0.58844 0.00000 0.41156 0.92500
Cl	Cl	0.50000 0.50000 -0.00000 -0.17500
Cl	Cl	0.00000 0.50000 0.50000 -0.17500
Cl	Cl	0.50000 0.00000 0.50000 -0.17500
C 	C 	0.50000 0.24660 0.19380 0.16800
C 	C 	0.50000 0.29320 0.14410 -0.20400
C 	C 	0.50000 0.33790 0.09030 0.57300
C 	C 	0.50000 0.75340 0.19380 0.16200
C 	C 	0.50000 0.70680 0.14410 -0.19200
C 	C 	0.50000 0.66210 0.09030 0.56700
C 	C 	0.50000 0.24660 0.80620 0.16800
C 	C 	0.50000 0.29320 0.85590 -0.18000
C 	C 	0.50000 0.33790 0.90970 0.52400
C 	C 	0.50000 0.75340 0.80620 0.16300
C 	C 	0.50000 0.70680 0.85590 -0.16900
C 	C 	0.50000 0.66210 0.90970 0.51800
C 	C 	0.19380 0.50000 0.24660 0.16800
C 	C 	0.14410 0.50000 0.29320 -0.20400
C 	C 	0.09030 0.50000 0.33790 0.57300
C 	C 	0.19380 0.50000 0.75340 0.16200
C 	C 	0.14410 0.50000 0.70680 -0.19200
C 	C 	0.09030 0.50000 0.66210 0.56700
C 	C 	0.80620 0.50000 0.24660 0.16800
C 	C 	0.85590 0.50000 0.29320 -0.18000
C 	C 	0.90970 0.50000 0.33790 0.52400
C 	C 	0.80620 0.50000 0.75340 0.16300
C 	C 	0.85590 0.50000 0.70680 -0.16900
C 	C 	0.90970 0.50000 0.66210 0.51800
C 	C 	0.24660 0.19380 0.50000 0.16800
C 	C 	0.29320 0.14410 0.50000 -0.20400
C 	C 	0.33790 0.09030 0.50000 0.57300
C 	C 	0.75340 0.19380 0.50000 0.16200
C 	C 	0.70680 0.14410 0.50000 -0.19200
C 	C 	0.66210 0.09030 0.50000 0.56700
C 	C 	0.24660 0.80620 0.50000 0.16800
C 	C 	0.29320 0.85590 0.50000 -0.18000
C 	C 	0.33790 0.90970 0.50000 0.52400
C 	C 	0.75340 0.80620 0.50000 0.16300
C 	C 	0.70680 0.85590 0.50000 -0.16900
C 	C 	0.66210 0.90970 0.50000 0.51800
C 	C 	0.24660 0.50000 0.80620 0.16800
C 	C 	0.29320 0.50000 0.85590 -0.18000
C 	C 	0.33790 0.50000 0.90970 0.52400
C 	C 	0.75340 0.50000 0.80620 0.16300
C 	C 	0.70680 0.50000 0.85590 -0.16900
C 	C 	0.66210 0.50000 0.90970 0.51800
C 	C 	0.24660 0.50000 0.19380 0.16800
C 	C 	0.29320 0.50000 0.14410 -0.20400
C 	C 	0.33790 0.50000 0.09030 0.57300
C 	C 	0.75340 0.50000 0.19380 0.16200
C 	C 	0.70680 0.50000 0.14410 -0.19200
C 	C 	0.66210 0.50000 0.09030 0.56700
C 	C 	0.50000 0.19380 0.75340 0.16200
C 	C 	0.50000 0.14410 0.70680 -0.19200
C 	C 	0.50000 0.09030 0.66210 0.56700
C 	C 	0.50000 0.19380 0.24660 0.16800
C 	C 	0.50000 0.14410 0.29320 -0.20400
C 	C 	0.50000 0.09030 0.33790 0.57300
C 	C 	0.50000 0.80620 0.75340 0.16300
C 	C 	0.50000 0.85590 0.70680 -0.16900
C 	C 	0.50000 0.90970 0.66210 0.51800
C 	C 	0.50000 0.80620 0.24660 0.16800
C 	C 	0.50000 0.85590 0.29320 -0.18000
C 	C 	0.50000 0.90970 0.33790 0.52400
C 	C 	0.19380 0.24660 0.50000 0.16800
C 	C 	0.14410 0.29320 0.50000 -0.20400
C 	C 	0.09030 0.33790 0.50000 0.57300
C 	C 	0.19380 0.75340 0.50000 0.16200
C 	C 	0.14410 0.70680 0.50000 -0.19200
C 	C 	0.09030 0.66210 0.50000 0.56700
C 	C 	0.80620 0.24660 0.50000 0.16800
C 	C 	0.85590 0.29320 0.50000 -0.18000
C 	C 	0.90970 0.33790 0.50000 0.52400
C 	C 	0.80620 0.75340 0.50000 0.16300
C 	C 	0.85590 0.70680 0.50000 -0.16900
C 	C 	0.90970 0.66210 0.50000 0.51800
C 	C 	0.44170 0.22000 0.22000 -0.31000
H 	H 	0.39570 0.21980 0.21980 0.12900
C 	C 	0.55830 0.78000 0.22000 -0.29100
H 	H 	0.60430 0.78020 0.21980 0.13100
C 	C 	0.55830 0.22000 0.78000 -0.29100
H 	H 	0.60430 0.21980 0.78020 0.13100
C 	C 	0.44170 0.78000 0.78000 -0.27300
H 	H 	0.39570 0.78020 0.78020 0.12900
C 	C 	0.22000 0.44170 0.22000 -0.31000
H 	H 	0.21980 0.39570 0.21980 0.12900
C 	C 	0.22000 0.55830 0.78000 -0.29100
H 	H 	0.21980 0.60430 0.78020 0.13100
C 	C 	0.78000 0.55830 0.22000 -0.29100
H 	H 	0.78020 0.60430 0.21980 0.13100
C 	C 	0.78000 0.44170 0.78000 -0.27300
H 	H 	0.78020 0.39570 0.78020 0.12900
C 	C 	0.22000 0.22000 0.44170 -0.31000
H 	H 	0.21980 0.21980 0.39570 0.12900
C 	C 	0.78000 0.22000 0.55830 -0.29100
H 	H 	0.78020 0.21980 0.60430 0.13100
C 	C 	0.22000 0.78000 0.55830 -0.29100
H 	H 	0.21980 0.78020 0.60430 0.13100
C 	C 	0.78000 0.78000 0.44170 -0.27300
H 	H 	0.78020 0.78020 0.39570 0.12900
C 	C 	0.22000 0.44170 0.78000 -0.29100
H 	H 	0.21980 0.39570 0.78020 0.12900
C 	C 	0.78000 0.55830 0.78000 -0.27200
H 	H 	0.78020 0.60430 0.78020 0.13100
C 	C 	0.22000 0.55830 0.22000 -0.31000
H 	H 	0.21980 0.60430 0.21980 0.13200
C 	C 	0.78000 0.44170 0.22000 -0.29100
H 	H 	0.78020 0.39570 0.21980 0.12900
C 	C 	0.44170 0.22000 0.78000 -0.29100
H 	H 	0.39570 0.21980 0.78020 0.12900
C 	C 	0.55830 0.22000 0.22000 -0.31000
H 	H 	0.60430 0.21980 0.21980 0.13200
C 	C 	0.55830 0.78000 0.78000 -0.27200
H 	H 	0.60430 0.78020 0.78020 0.13100
C 	C 	0.44170 0.78000 0.22000 -0.29100
H 	H 	0.39570 0.78020 0.21980 0.12900
C 	C 	0.22000 0.22000 0.55830 -0.31000
H 	H 	0.21980 0.21980 0.60430 0.13200
C 	C 	0.22000 0.78000 0.44170 -0.29100
H 	H 	0.21980 0.78020 0.39570 0.12900
C 	C 	0.78000 0.22000 0.44170 -0.29100
H 	H 	0.78020 0.21980 0.39570 0.12900
C 	C 	0.78000 0.78000 0.55830 -0.27200
H 	H 	0.78020 0.78020 0.60430 0.13100
Cl	Cl	0.50000 0.50000 0.01900 -1.14000
Cl	Cl	0.50000 0.50000 0.98100 0.69700
Cl	Cl	0.01900 0.50000 0.50000 -1.14000
Cl	Cl	0.98100 0.50000 0.50000 0.69700
Cl	Cl	0.50000 0.01900 0.50000 -1.14000
Cl	Cl	0.50000 0.98100 0.50000 0.69700
