data_crystal

_cell_length_a 13.12200
_cell_length_b 20.28810
_cell_length_c 20.28810
_cell_angle_alpha 83.99690
_cell_angle_beta  71.13180
_cell_angle_gamma 71.13190

_symmetry_space_group_name_	'P 1'
_symmetry_space_group_name_H-M	'P 1'

loop_
_symmetry_equiv_pos_as_xyz
  x,y,z

loop_
_atom_site_label
_atom_site_type_symbol
_atom_site_fract_x
_atom_site_fract_y
_atom_site_fract_z
_atom_site_charge
Zn	Zn	0.43497 0.16287 0.11317 1.22500
Zn	Zn	0.45186 0.11317 0.33713 1.22500
Zn	Zn	0.46903 0.52908 0.80244 1.22000
Zn	Zn	0.72853 0.80244 0.97092 1.22000
Zn	Zn	0.56503 0.83713 0.88683 1.22500
Zn	Zn	0.21101 0.33713 0.38683 1.22500
Zn	Zn	0.99811 0.30244 0.47092 1.21700
Zn	Zn	0.54814 0.88683 0.66287 1.22500
Zn	Zn	0.00189 0.69756 0.52908 1.22300
Zn	Zn	0.30055 0.97092 0.69756 1.22000
Zn	Zn	0.40216 0.38683 0.16287 1.22500
Zn	Zn	0.78899 0.66287 0.61317 1.22400
Zn	Zn	0.27147 0.19756 0.02908 1.21900
Zn	Zn	0.59784 0.61317 0.83713 1.22400
Zn	Zn	0.69945 0.02908 0.30244 1.21900
Zn	Zn	0.53097 0.47092 0.19756 1.21900
H 	H 	0.44180 0.75350 0.40230 0.27600
H 	H 	0.70140 0.01280 0.82980 0.42200
H 	H 	0.51260 0.63410 0.64050 0.16100
H 	H 	0.15980 0.46240 0.23860 0.07700
H 	H 	0.27720 0.81440 0.99040 0.07800
H 	H 	0.82450 0.54500 0.93500 0.05700
H 	H 	0.67350 0.01650 0.14770 0.05900
H 	H 	0.65980 0.52540 0.05560 0.03700
H 	H 	0.36890 0.79010 0.86090 0.14900
H 	H 	0.84020 0.53760 0.76140 0.07400
H 	H 	0.49380 0.27300 0.67440 0.27200
H 	H 	0.35860 0.89170 0.49030 0.44900
H 	H 	0.89760 0.40830 0.61450 0.05000
H 	H 	0.44950 0.34300 0.88480 0.06100
H 	H 	0.67890 0.56790 0.18690 0.11900
H 	H 	0.19550 0.04500 0.43500 0.06000
H 	H 	0.60160 0.23860 0.03760 0.07400
H 	H 	0.75320 0.31310 0.56790 0.12000
H 	H 	0.99530 0.72890 0.15370 0.25900
H 	H 	0.95600 0.51280 0.32980 0.43000
H 	H 	0.42040 0.09170 0.88550 0.05000
H 	H 	0.19530 0.90230 0.24650 0.27900
H 	H 	0.28110 0.42540 0.92740 0.05000
H 	H 	0.03580 0.31660 0.71200 0.14100
H 	H 	0.17880 0.14770 0.48350 0.06100
H 	H 	0.14900 0.84630 0.22890 0.28400
H 	H 	0.62610 0.77570 0.16310 0.08200
H 	H 	0.79250 0.38480 0.65700 0.06200
H 	H 	0.10240 0.59170 0.38550 0.05400
H 	H 	0.51990 0.70990 0.63910 0.14800
H 	H 	0.22980 0.13910 0.29010 0.14900
H 	H 	0.50620 0.72700 0.32560 0.27400
H 	H 	0.21380 0.47870 0.37830 0.05800
H 	H 	0.55820 0.24650 0.59770 0.27500
H 	H 	0.24680 0.68690 0.43210 0.11900
H 	H 	0.25920 0.02540 0.55560 0.03800
H 	H 	0.39840 0.76140 0.96240 0.07500
H 	H 	0.90840 0.50960 0.81440 0.07400
H 	H 	0.15310 0.35950 0.13410 0.16300
H 	H 	0.71420 0.32980 0.98720 0.43200
H 	H 	0.33460 0.34430 0.60470 0.13100
H 	H 	0.29350 0.57260 0.42540 0.04800
H 	H 	0.33410 0.26970 0.90370 0.06600
H 	H 	0.84890 0.50970 0.39170 0.44100
H 	H 	0.42920 0.97870 0.87830 0.05600
H 	H 	0.86610 0.92540 0.42740 0.04700
H 	H 	0.06630 0.06790 0.68690 0.12200
H 	H 	0.37390 0.22430 0.83690 0.08100
H 	H 	0.30750 0.12170 0.47870 0.05700
H 	H 	0.31000 0.35230 0.01650 0.06000
H 	H 	0.28460 0.05560 0.97460 0.03800
H 	H 	0.80450 0.95500 0.56500 0.05700
H 	H 	0.66570 0.88480 0.15700 0.06100
H 	H 	0.09760 0.74650 0.09770 0.26200
H 	H 	0.13420 0.18690 0.93210 0.12000
H 	H 	0.66590 0.73030 0.09630 0.06600
H 	H 	0.00470 0.27110 0.84630 0.30600
H 	H 	0.40180 0.66310 0.22430 0.08000
H 	H 	0.26960 0.48760 0.06280 0.03300
H 	H 	0.71890 0.57460 0.07260 0.04800
H 	H 	0.04400 0.48720 0.67020 0.45200
H 	H 	0.85330 0.85950 0.63410 0.15900
H 	H 	0.24060 0.60830 0.00970 0.44700
H 	H 	0.18570 0.23190 0.87090 0.12300
H 	H 	0.18520 0.55560 0.47460 0.03700
H 	H 	0.76220 0.90370 0.23030 0.06600
H 	H 	0.00750 0.23030 0.59630 0.08800
H 	H 	0.82270 0.84300 0.38480 0.06200
H 	H 	0.35240 0.21200 0.68340 0.13000
H 	H 	0.05880 0.77300 0.17440 0.26100
H 	H 	0.58200 0.68560 0.50960 0.07600
H 	H 	0.15900 0.36090 0.20990 0.15000
H 	H 	0.16820 0.32560 0.77300 0.27900
H 	H 	0.75940 0.39170 0.99030 0.44000
H 	H 	0.83180 0.67440 0.22700 0.26800
H 	H 	0.69000 0.64770 0.98350 0.06100
H 	H 	0.78850 0.26810 0.62910 0.12400
H 	H 	0.63110 0.20990 0.13910 0.14700
H 	H 	0.78920 0.83690 0.27570 0.08100
H 	H 	0.69410 0.88550 0.40830 0.05200
H 	H 	0.24050 0.93500 0.95500 0.06100
H 	H 	0.21640 0.84430 0.10470 0.12900
H 	H 	0.75950 0.06500 0.04500 0.05900
H 	H 	0.09160 0.49040 0.18560 0.07900
H 	H 	0.60380 0.40370 0.73030 0.06700
H 	H 	0.20750 0.61520 0.34300 0.06200
H 	H 	0.81430 0.76810 0.12910 0.12400
H 	H 	0.57960 0.90830 0.11450 0.05100
H 	H 	0.66230 0.51650 0.64770 0.06000
H 	H 	0.13390 0.07460 0.57260 0.05100
H 	H 	0.37780 0.26140 0.46240 0.07600
H 	H 	0.72420 0.65370 0.27110 0.27600
H 	H 	0.17410 0.03300 0.17640 0.43200
H 	H 	0.63920 0.96240 0.73860 0.07500
H 	H 	0.36950 0.43500 0.45500 0.05800
H 	H 	0.59210 0.62170 0.97870 0.05800
H 	H 	0.84690 0.64050 0.86590 0.15900
H 	H 	0.34020 0.47460 0.94440 0.03800
H 	H 	0.15590 0.40230 0.74650 0.28200
H 	H 	0.82590 0.96700 0.82360 0.42800
H 	H 	0.68000 0.98760 0.56280 0.03100
H 	H 	0.93370 0.93210 0.31310 0.11500
H 	H 	0.93510 0.27570 0.66310 0.09100
H 	H 	0.72280 0.18560 0.00960 0.07500
H 	H 	0.79150 0.92740 0.07460 0.04800
H 	H 	0.58240 0.62910 0.23190 0.12400
H 	H 	0.94340 0.87090 0.26810 0.12000
H 	H 	0.88350 0.46700 0.32360 0.43600
H 	H 	0.37790 0.77110 0.34630 0.28000
H 	H 	0.62220 0.73860 0.53760 0.07400
H 	H 	0.56440 0.18340 0.78800 0.12900
H 	H 	0.30590 0.11450 0.59170 0.05200
H 	H 	0.70650 0.42740 0.57460 0.04800
H 	H 	0.32110 0.43210 0.81310 0.12000
H 	H 	0.76680 0.17440 0.72700 0.26800
H 	H 	0.32110 0.89530 0.34430 0.12800
H 	H 	0.73240 0.99040 0.68560 0.07600
H 	H 	0.57080 0.02130 0.12170 0.05700
H 	H 	0.11650 0.53300 0.67640 0.45300
H 	H 	0.29860 0.98720 0.17020 0.42200
H 	H 	0.64140 0.10830 0.50970 0.44800
H 	H 	0.81480 0.44440 0.52540 0.03600
H 	H 	0.25030 0.99030 0.10830 0.43000
H 	H 	0.62210 0.22890 0.65370 0.28000
H 	H 	0.86580 0.81310 0.06790 0.11800
H 	H 	0.64950 0.17640 0.46700 0.44300
H 	H 	0.67890 0.10470 0.65570 0.12700
H 	H 	0.73040 0.51240 0.93720 0.03100
H 	H 	0.63050 0.56500 0.54500 0.05800
H 	H 	0.84100 0.63910 0.79010 0.14600
H 	H 	0.17550 0.45500 0.06500 0.06000
H 	H 	0.35050 0.82360 0.53300 0.44500
H 	H 	0.77020 0.86090 0.70990 0.14700
H 	H 	0.05660 0.12910 0.73190 0.12600
H 	H 	0.48010 0.29010 0.36090 0.14800
H 	H 	0.96420 0.68340 0.28800 0.12200
H 	H 	0.53120 0.17020 0.51280 0.44000
H 	H 	0.71540 0.94440 0.02540 0.03700
H 	H 	0.80470 0.09770 0.75350 0.26900
H 	H 	0.66540 0.65570 0.39530 0.12500
H 	H 	0.99250 0.76970 0.40370 0.04900
H 	H 	0.48740 0.36590 0.35950 0.16000
H 	H 	0.41800 0.31440 0.49040 0.07800
H 	H 	0.74080 0.97460 0.44440 0.03600
H 	H 	0.06490 0.72430 0.33690 0.07300
H 	H 	0.48790 0.61450 0.09170 0.05200
H 	H 	0.82120 0.85230 0.51650 0.06000
H 	H 	0.74780 0.28800 0.81660 0.13500
H 	H 	0.78360 0.15570 0.89530 0.12300
H 	H 	0.43560 0.81660 0.21200 0.13200
H 	H 	0.39620 0.59630 0.26970 0.06500
H 	H 	0.36080 0.03760 0.26140 0.07600
H 	H 	0.23320 0.82560 0.27300 0.27600
H 	H 	0.21080 0.16310 0.72430 0.08100
H 	H 	0.21150 0.73190 0.37090 0.12400
H 	H 	0.93930 0.39530 0.84430 0.12800
H 	H 	0.75720 0.56280 0.51240 0.03100
H 	H 	0.28580 0.67020 0.01280 0.43800
H 	H 	0.84410 0.59770 0.25350 0.27000
H 	H 	0.20710 0.67640 0.96700 0.44500
H 	H 	0.94120 0.22700 0.82560 0.28700
H 	H 	0.51210 0.38550 0.90830 0.05100
H 	H 	0.79290 0.32360 0.03300 0.43600
H 	H 	0.74970 0.00970 0.89170 0.42800
H 	H 	0.59820 0.33690 0.77570 0.08200
H 	H 	0.26760 0.00960 0.31440 0.07800
H 	H 	0.78620 0.52130 0.62170 0.05700
H 	H 	0.33770 0.48350 0.35230 0.06000
H 	H 	0.46880 0.82980 0.48720 0.44100
H 	H 	0.17730 0.15700 0.61520 0.06200
H 	H 	0.33430 0.11520 0.84300 0.06000
H 	H 	0.64760 0.78800 0.31660 0.13100
H 	H 	0.90240 0.25350 0.90230 0.29100
H 	H 	0.27580 0.34630 0.72890 0.28600
H 	H 	0.15110 0.49030 0.60830 0.45700
H 	H 	0.71280 0.13410 0.14050 0.16000
H 	H 	0.32650 0.98350 0.85230 0.05800
H 	H 	0.41760 0.37090 0.76810 0.12400
H 	H 	0.33240 0.93720 0.98760 0.03500
H 	H 	0.66760 0.06280 0.01240 0.03400
H 	H 	0.20850 0.07260 0.92540 0.05100
H 	H 	0.25220 0.71200 0.18340 0.12700
H 	H 	0.14670 0.14050 0.36590 0.16400
H 	H 	0.06070 0.60470 0.15570 0.12800
H 	H 	0.28720 0.86590 0.85950 0.16200
H 	H 	0.55050 0.65700 0.11520 0.06200
H 	H 	0.40790 0.37830 0.02130 0.05700
H 	H 	0.24280 0.43720 0.48760 0.03200
H 	H 	0.85100 0.15370 0.77110 0.27200
H 	H 	0.69250 0.87830 0.52130 0.05800
H 	H 	0.32000 0.01240 0.43720 0.03300
H 	H 	0.23780 0.09630 0.76970 0.06600
C 	C 	0.33590 0.02140 0.30880 -0.18400
C 	C 	0.23990 0.66970 0.18150 -0.31400
C 	C 	0.75020 0.98360 0.85480 -1.32900
C 	C 	0.91290 0.96430 0.21890 0.35700
C 	C 	0.74460 0.68130 0.45630 0.06600
C 	C 	0.62230 0.89120 0.30340 0.07900
C 	C 	0.63110 0.77750 0.11410 -0.19300
C 	C 	0.07430 0.30340 0.60880 0.10700
C 	C 	0.34420 0.42630 0.94190 -0.08600
C 	C 	0.65170 0.01390 0.10690 -0.11500
C 	C 	0.39810 0.41880 0.78200 -0.35900
C 	C 	0.01680 0.57710 0.61510 0.81900
C 	C 	0.28610 0.05810 0.92630 -0.09000
C 	C 	0.25480 0.11410 0.72250 -0.19300
C 	C 	0.61780 0.18130 0.95630 0.06700
C 	C 	0.76010 0.33030 0.81850 -0.34200
C 	C 	0.15620 0.30720 0.54440 0.04100
C 	C 	0.74980 0.55540 0.93000 -0.07800
C 	C 	0.58730 0.64750 0.70930 0.43200
C 	C 	0.57860 0.18150 0.83030 -0.32200
C 	C 	0.76970 0.88970 0.39030 -0.10100
C 	C 	0.73380 0.35480 0.01640 -1.36000
C 	C 	0.25020 0.44460 0.07000 -0.08100
C 	C 	0.18310 0.71800 0.41880 -0.35700
C 	C 	0.13180 0.78110 0.46430 0.37100
C 	C 	0.57410 0.04370 0.68130 0.07000
C 	C 	0.97730 0.27750 0.61410 -0.23900
C 	C 	0.86820 0.21890 0.53570 0.37100
C 	C 	0.26480 0.05540 0.43000 -0.08000
C 	C 	0.44410 0.85250 0.79070 0.43300
C 	C 	0.48650 0.19660 0.89120 0.07600
C 	C 	0.18010 0.21800 0.91880 -0.35700
C 	C 	0.78760 0.92630 0.44190 -0.08000
C 	C 	0.31090 0.83600 0.17020 0.36300
C 	C 	0.66560 0.60690 0.98610 -0.12100
C 	C 	0.32020 0.93000 0.94460 -0.08400
C 	C 	0.21240 0.07370 0.55810 -0.08400
C 	C 	0.70900 0.92290 0.88490 0.78100
C 	C 	0.79910 0.45630 0.81870 0.07700
C 	C 	0.87520 0.39410 0.83470 -0.32400
C 	C 	0.38220 0.81870 0.04370 0.07100
C 	C 	0.50780 0.19280 0.95560 0.05200
C 	C 	0.34060 0.10970 0.88970 -0.09500
C 	C 	0.24140 0.10690 0.48610 -0.11900
C 	C 	0.63620 0.16090 0.14170 -0.39500
C 	C 	0.09890 0.08120 0.71800 -0.36000
C 	C 	0.76520 0.79070 0.64750 0.43200
C 	C 	0.40890 0.16970 0.68150 -0.32600
C 	C 	0.60400 0.10590 0.66530 -0.30900
C 	C 	0.42590 0.95630 0.31870 0.07100
C 	C 	0.60190 0.58120 0.21800 -0.35900
C 	C 	0.85310 0.32980 0.83600 0.38000
C 	C 	0.56120 0.66090 0.64170 -0.39600
C 	C 	0.54970 0.61030 0.10970 -0.10000
C 	C 	0.12480 0.60590 0.16530 -0.29900
C 	C 	0.39600 0.89410 0.33470 -0.31000
C 	C 	0.91140 0.48360 0.35480 -1.35700
C 	C 	0.27250 0.48610 0.39310 -0.12200
C 	C 	0.68910 0.16400 0.82980 0.35200
C 	C 	0.90110 0.91880 0.28200 -0.35100
C 	C 	0.49220 0.80720 0.04440 0.05000
C 	C 	0.45030 0.38970 0.89030 -0.09800
C 	C 	0.48110 0.82980 0.33600 0.35900
C 	C 	0.69480 0.57000 0.55540 -0.07800
C 	C 	0.23030 0.11030 0.60970 -0.09800
C 	C 	0.72750 0.51390 0.60690 -0.12100
C 	C 	0.84380 0.69280 0.45560 0.06200
C 	C 	0.36810 0.61510 0.92290 0.79500
C 	C 	0.16000 0.60970 0.38970 -0.10000
C 	C 	0.66410 0.97860 0.69120 -0.18300
C 	C 	0.73520 0.94460 0.57000 -0.07800
C 	C 	0.16610 0.47860 0.19120 -0.18500
C 	C 	0.74520 0.88590 0.27750 -0.19200
C 	C 	0.35730 0.80880 0.97860 -0.18400
C 	C 	0.63190 0.38490 0.07710 0.79000
C 	C 	0.29100 0.07710 0.11510 0.78200
C 	C 	0.20090 0.54370 0.18130 0.06900
C 	C 	0.83390 0.52140 0.80880 -0.18700
C 	C 	0.59110 0.83030 0.31850 -0.32700
C 	C 	0.64270 0.19120 0.02140 -0.18000
C 	C 	0.08860 0.51640 0.64520 -1.40700
C 	C 	0.81990 0.78200 0.08120 -0.35800
C 	C 	0.80300 0.64580 0.26460 -0.87400
C 	C 	0.73070 0.66530 0.39410 -0.30200
C 	C 	0.30520 0.43000 0.44460 -0.07800
C 	C 	0.64470 0.69120 0.52140 -0.18200
C 	C 	0.34830 0.98610 0.89310 -0.11200
C 	C 	0.44880 0.76460 0.35420 -0.88900
C 	C 	0.31690 0.60880 0.19660 0.07300
C 	C 	0.51350 0.80340 0.10880 0.08000
C 	C 	0.60500 0.14520 0.48360 -1.38100
C 	C 	0.37770 0.10880 0.69660 0.07800
C 	C 	0.70990 0.16530 0.89410 -0.30400
C 	C 	0.26620 0.64520 0.98360 -1.37500
C 	C 	0.65940 0.89030 0.11030 -0.09700
C 	C 	0.21340 0.85420 0.23540 -0.89600
C 	C 	0.77050 0.44190 0.57370 -0.08200
C 	C 	0.20290 0.35830 0.16090 -0.39800
C 	C 	0.29940 0.54440 0.19280 0.05600
C 	C 	0.51890 0.17020 0.66400 0.35800
C 	C 	0.92570 0.69660 0.39120 0.05500
C 	C 	0.59390 0.11510 0.42290 0.79700
C 	C 	0.43880 0.33910 0.35830 -0.39600
C 	C 	0.71390 0.94190 0.07370 -0.08800
C 	C 	0.46340 0.04440 0.69280 0.05200
C 	C 	0.81690 0.28200 0.58120 -0.36200
C 	C 	0.81710 0.66400 0.32980 0.34700
C 	C 	0.79710 0.64170 0.83910 -0.39500
C 	C 	0.53660 0.95560 0.30720 0.05100
C 	C 	0.40390 0.46430 0.71890 0.37200
C 	C 	0.33440 0.39310 0.01390 -0.11700
C 	C 	0.22210 0.14170 0.33910 -0.39700
C 	C 	0.93240 0.26460 0.85420 -0.95000
C 	C 	0.19700 0.35420 0.73540 -0.90700
C 	C 	0.36890 0.22250 0.88590 -0.19100
C 	C 	0.87720 0.71890 0.03570 0.36900
C 	C 	0.02270 0.72250 0.38590 -0.15500
C 	C 	0.24980 0.01640 0.14520 -1.33000
C 	C 	0.59610 0.53570 0.28110 0.37100
C 	C 	0.70340 0.70930 0.85250 0.43200
C 	C 	0.65580 0.57370 0.05810 -0.08200
C 	C 	0.55120 0.23540 0.64580 -0.88700
C 	C 	0.25540 0.31870 0.54370 0.08100
C 	C 	0.06760 0.73540 0.14580 -0.83700
C 	C 	0.41270 0.35250 0.29070 0.43200
C 	C 	0.23480 0.20930 0.35250 0.43300
C 	C 	0.22950 0.55810 0.42630 -0.08100
C 	C 	0.35530 0.30880 0.47860 -0.19000
C 	C 	0.12280 0.28110 0.96430 0.36800
C 	C 	0.78660 0.14580 0.76460 -0.87300
C 	C 	0.98320 0.42290 0.38490 0.77500
C 	C 	0.29010 0.83470 0.10590 -0.31200
C 	C 	0.55590 0.14750 0.20930 0.43200
C 	C 	0.59140 0.38590 0.77750 -0.19600
C 	C 	0.75860 0.89310 0.51390 -0.12200
C 	C 	0.09040 0.31850 0.66970 -0.34600
C 	C 	0.18290 0.33600 0.67020 0.37400
C 	C 	0.84000 0.39030 0.61030 -0.10000
C 	C 	0.67980 0.07000 0.05540 -0.08200
C 	C 	0.40610 0.88490 0.57710 0.79700
C 	C 	0.36380 0.83910 0.85830 -0.39700
C 	C 	0.14690 0.67020 0.16400 0.34200
C 	C 	0.08710 0.03570 0.78110 0.37100
C 	C 	0.90960 0.68150 0.33030 -0.31100
C 	C 	0.68310 0.39120 0.80340 0.08500
C 	C 	0.26930 0.33470 0.60590 -0.32100
C 	C 	0.29660 0.29070 0.14750 0.43300
C 	C 	0.42140 0.81850 0.16970 -0.32900
C 	C 	0.77790 0.85830 0.66090 -0.39500
C 	C 	0.70060 0.45560 0.80720 0.04800
C 	C 	0.40860 0.61410 0.22250 -0.18900
C 	C 	0.39500 0.85480 0.51640 -1.38300
N 	N 	0.61262 0.14237 0.07979 -0.14100
N 	N 	0.47420 0.42330 0.81950 -0.14300
N 	N 	0.21700 0.07670 0.68050 -0.14300
N 	N 	0.78300 0.92330 0.31950 -0.14400
N 	N 	0.29370 0.18050 0.92330 -0.14500
N 	N 	0.70630 0.81950 0.07670 -0.14400
N 	N 	0.33478 0.35763 0.42021 -0.14100
N 	N 	0.75499 0.57979 0.85763 -0.14200
N 	N 	0.52580 0.57670 0.18050 -0.14400
N 	N 	0.30759 0.07979 0.35763 -0.14100
N 	N 	0.10250 0.68050 0.42330 -0.14600
N 	N 	0.89750 0.31950 0.57670 -0.13900
N 	N 	0.38738 0.85763 0.92021 -0.14000
N 	N 	0.69241 0.92021 0.64237 -0.14200
N 	N 	0.24501 0.42021 0.14237 -0.14100
N 	N 	0.66522 0.64237 0.57979 -0.14200
O 	O 	0.43060 0.52050 0.72030 -0.46000
O 	O 	0.56940 0.47950 0.27970 -0.46000
O 	O 	0.46170 0.14352 0.20988 -0.50600
O 	O 	0.07950 0.41930 0.38030 -0.62700
O 	O 	0.48880 0.35769 0.23651 -0.51800
O 	O 	0.68490 0.64352 0.70988 -0.50600
O 	O 	0.84910 0.72030 0.97950 -0.46000
O 	O 	0.58300 0.14231 0.26349 -0.51900
O 	O 	0.53830 0.85648 0.79012 -0.50600
O 	O 	0.38360 0.44700 0.66940 -0.31100
O 	O 	0.32842 0.20988 0.35648 -0.50600
O 	O 	0.27469 0.23651 0.14231 -0.51800
O 	O 	0.04890 0.77970 0.52050 -0.45600
O 	O 	0.37910 0.08070 0.11970 -0.63500
O 	O 	0.68800 0.08470 0.37750 -0.61200
O 	O 	0.15351 0.26349 0.35769 -0.51500
O 	O 	0.00000 0.94700 0.16940 -0.30100
O 	O 	0.05300 0.33060 0.94700 -0.30600
O 	O 	0.61640 0.55300 0.33060 -0.31000
O 	O 	0.92050 0.58070 0.61970 -0.65400
O 	O 	0.93450 0.37750 0.41530 -0.60900
O 	O 	0.16940 0.83060 0.44700 -0.30900
O 	O 	0.37467 0.48390 0.20356 -0.53400
O 	O 	0.60522 0.70988 0.85648 -0.50600
O 	O 	0.39478 0.29012 0.14352 -0.50600
O 	O 	0.49880 0.88030 0.58070 -0.64100
O 	O 	0.51120 0.64231 0.76349 -0.51800
O 	O 	0.62533 0.51610 0.79644 -0.53200
O 	O 	0.06550 0.62250 0.58470 -0.61400
O 	O 	0.45980 0.61970 0.91930 -0.64000
O 	O 	0.34980 0.58470 0.87750 -0.61000
O 	O 	0.85857 0.70356 0.51610 -0.53800
O 	O 	0.54020 0.38030 0.08070 -0.63800
O 	O 	0.50120 0.11970 0.41930 -0.64100
O 	O 	0.62090 0.91930 0.88030 -0.63500
O 	O 	0.00000 0.05300 0.83060 -0.30500
O 	O 	0.94700 0.66940 0.05300 -0.31300
O 	O 	0.15090 0.27970 0.02050 -0.45600
O 	O 	0.43787 0.98390 0.70356 -0.53200
O 	O 	0.42177 0.20356 0.01610 -0.53100
O 	O 	0.14143 0.29644 0.48390 -0.52700
O 	O 	0.17140 0.97950 0.77970 -0.45800
O 	O 	0.22730 0.12250 0.08470 -0.60500
O 	O 	0.31200 0.91530 0.62250 -0.61100
O 	O 	0.67158 0.79012 0.64352 -0.50600
O 	O 	0.77270 0.87750 0.91530 -0.60700
O 	O 	0.31510 0.35648 0.29012 -0.50600
O 	O 	0.83060 0.16940 0.55300 -0.31300
O 	O 	0.41700 0.85769 0.73651 -0.51800
O 	O 	0.82860 0.02050 0.22030 -0.45800
O 	O 	0.72531 0.76349 0.85769 -0.51900
O 	O 	0.65020 0.41530 0.12250 -0.61000
O 	O 	0.84649 0.73651 0.64231 -0.52100
O 	O 	0.56213 0.01610 0.29644 -0.53200
O 	O 	0.57823 0.79644 0.98390 -0.53100
O 	O 	0.95110 0.22030 0.47950 -0.46500
