data_crystal

_cell_length_a 17.49300
_cell_length_b 15.09200
_cell_length_c 23.74500
_cell_angle_alpha 90.00000
_cell_angle_beta  97.06000
_cell_angle_gamma 90.00000

_symmetry_space_group_name_	'P 1'
_symmetry_space_group_name_H-M	'P 1'

loop_
_symmetry_equiv_pos_as_xyz
  x,y,z

loop_
_atom_site_label
_atom_site_type_symbol
_atom_site_fract_x
_atom_site_fract_y
_atom_site_fract_z
_atom_site_charge
Zn	Zn	0.16625 0.86669 0.48219 1.24000
Zn	Zn	0.31019 0.93353 0.41030 1.22300
O 	O 	0.19170 0.76970 0.43700 -0.50500
O 	O 	0.30050 0.80520 0.40310 -0.49200
O 	O 	0.24320 0.59940 0.04255 -0.47900
O 	O 	0.34480 0.57150 0.99717 -0.44500
O 	O 	0.59920 0.45890 0.19850 -0.27800
O 	O 	0.58620 0.46980 0.10404 -0.42700
O 	O 	0.92270 0.28900 0.47430 -0.28900
O 	O 	0.92980 0.14410 0.48730 -0.43500
O 	O 	0.24970 0.04190 0.41880 -0.49100
O 	O 	0.14480 0.97360 0.43700 -0.50300
O 	O 	0.33150 0.54850 0.24357 -0.20800
O 	O 	0.18170 0.35660 0.40190 -0.21500
C 	C 	0.24820 0.75140 0.41220 0.39200
C 	C 	0.25410 0.65760 0.39250 -0.03400
C 	C 	0.30990 0.63420 0.35810 -0.08200
H 	H 	0.34410 0.67670 0.34780 0.08100
C 	C 	0.31450 0.54840 0.33940 0.09100
C 	C 	0.26340 0.48500 0.35560 -0.14100
H 	H 	0.26600 0.42690 0.34280 0.10500
C 	C 	0.20910 0.50830 0.39060 0.09500
C 	C 	0.20520 0.59380 0.40930 -0.09200
H 	H 	0.16930 0.60890 0.43350 0.08600
C 	C 	0.36940 0.52530 0.29680 -0.04200
H 	H 	0.41710 0.55830 0.30480 0.05200
H 	H 	0.38110 0.46250 0.29820 0.05400
C 	C 	0.31340 0.57800 0.04050 0.38400
C 	C 	0.56200 0.47520 0.15150 0.31800
C 	C 	0.36080 0.55630 0.09530 -0.04000
C 	C 	0.43670 0.52700 0.09830 -0.02900
H 	H 	0.45940 0.52220 0.06500 0.07700
C 	C 	0.47820 0.50520 0.14820 -0.00800
C 	C 	0.44560 0.51160 0.19960 -0.14300
H 	H 	0.47430 0.49700 0.23400 0.10000
C 	C 	0.37100 0.53970 0.19790 0.18700
C 	C 	0.32620 0.56140 0.14600 -0.11300
H 	H 	0.27510 0.57870 0.14530 0.10200
C 	C 	0.15080 0.44120 0.40840 -0.04300
H 	H 	0.14270 0.45090 0.44760 0.05500
H 	H 	0.10180 0.44730 0.38470 0.05500
C 	C 	0.18340 0.04120 0.42940 0.40000
C 	C 	0.95480 0.21980 0.47220 0.32600
C 	C 	0.14050 0.12880 0.42990 -0.03700
C 	C 	0.06940 0.13320 0.44860 -0.03200
H 	H 	0.04480 0.08160 0.45800 0.07300
C 	C 	0.03470 0.21340 0.45330 -0.00800
C 	C 	0.06970 0.29070 0.43710 -0.14600
H 	H 	0.04500 0.34500 0.43900 0.10000
C 	C 	0.14100 0.28650 0.41830 0.19500
C 	C 	0.17530 0.20550 0.41370 -0.12700
H 	H 	0.22250 0.20200 0.39960 0.10500
Zn	Zn	0.83375 0.36669 0.01781 1.23800
Zn	Zn	0.68981 0.43353 0.08970 1.22200
O 	O 	0.80830 0.26970 0.06300 -0.50600
O 	O 	0.69950 0.30520 0.09690 -0.49300
O 	O 	0.75680 0.09940 0.45745 -0.48100
O 	O 	0.65520 0.07150 0.50283 -0.44500
O 	O 	0.40080 0.95890 0.30150 -0.27900
O 	O 	0.41380 0.96980 0.39596 -0.42800
O 	O 	0.07730 0.78900 0.02570 -0.29000
O 	O 	0.07020 0.64410 0.01270 -0.43500
O 	O 	0.75030 0.54190 0.08120 -0.49200
O 	O 	0.85520 0.47360 0.06300 -0.50500
O 	O 	0.66850 0.04850 0.25643 -0.20800
O 	O 	0.81830 0.85660 0.09810 -0.21500
C 	C 	0.75180 0.25140 0.08780 0.39200
C 	C 	0.74590 0.15760 0.10750 -0.03500
C 	C 	0.69010 0.13420 0.14190 -0.08100
H 	H 	0.65590 0.17670 0.15220 0.08100
C 	C 	0.68550 0.04840 0.16060 0.08900
C 	C 	0.73660 0.98500 0.14440 -0.13900
H 	H 	0.73400 0.92690 0.15720 0.10400
C 	C 	0.79090 0.00830 0.10940 0.09300
C 	C 	0.79480 0.09380 0.09070 -0.09000
H 	H 	0.83070 0.10890 0.06650 0.08500
C 	C 	0.63060 0.02530 0.20320 -0.04200
H 	H 	0.58290 0.05830 0.19520 0.05200
H 	H 	0.61890 0.96250 0.20180 0.05400
C 	C 	0.68660 0.07800 0.45950 0.38300
C 	C 	0.43800 0.97520 0.34850 0.31800
C 	C 	0.63920 0.05630 0.40470 -0.04000
C 	C 	0.56330 0.02700 0.40170 -0.02900
H 	H 	0.54060 0.02220 0.43500 0.07700
C 	C 	0.52180 0.00520 0.35180 -0.00800
C 	C 	0.55440 0.01160 0.30040 -0.14400
H 	H 	0.52570 0.99700 0.26600 0.10100
C 	C 	0.62900 0.03970 0.30210 0.18700
C 	C 	0.67380 0.06140 0.35400 -0.11400
H 	H 	0.72490 0.07870 0.35470 0.10200
C 	C 	0.84920 0.94120 0.09160 -0.04200
H 	H 	0.85730 0.95090 0.05240 0.05500
H 	H 	0.89820 0.94730 0.11530 0.05400
C 	C 	0.81660 0.54120 0.07060 0.40000
C 	C 	0.04520 0.71980 0.02780 0.32800
C 	C 	0.85950 0.62880 0.07010 -0.03800
C 	C 	0.93060 0.63320 0.05140 -0.03100
H 	H 	0.95520 0.58160 0.04200 0.07200
C 	C 	0.96530 0.71340 0.04670 -0.01100
C 	C 	0.93030 0.79070 0.06290 -0.14400
H 	H 	0.95500 0.84500 0.06100 0.09900
C 	C 	0.85900 0.78650 0.08170 0.19500
C 	C 	0.82470 0.70550 0.08630 -0.12600
H 	H 	0.77750 0.70200 0.10040 0.10400
Zn	Zn	0.83375 0.13331 0.51781 1.23900
Zn	Zn	0.68981 0.06647 0.58970 1.22200
O 	O 	0.80830 0.23030 0.56300 -0.50600
O 	O 	0.69950 0.19480 0.59690 -0.49300
O 	O 	0.75680 0.40060 0.95745 -0.48000
O 	O 	0.65520 0.42850 0.00283 -0.44600
O 	O 	0.40080 0.54110 0.80150 -0.27900
O 	O 	0.41380 0.53020 0.89596 -0.42800
O 	O 	0.07730 0.71100 0.52570 -0.29000
O 	O 	0.07020 0.85590 0.51270 -0.43600
O 	O 	0.75030 0.95810 0.58120 -0.49200
O 	O 	0.85520 0.02640 0.56300 -0.50400
O 	O 	0.66850 0.45150 0.75643 -0.20800
O 	O 	0.81830 0.64340 0.59810 -0.21500
C 	C 	0.75180 0.24860 0.58780 0.39200
C 	C 	0.74590 0.34240 0.60750 -0.03400
C 	C 	0.69010 0.36580 0.64190 -0.08200
H 	H 	0.65590 0.32330 0.65220 0.08100
C 	C 	0.68550 0.45160 0.66060 0.09100
C 	C 	0.73660 0.51500 0.64440 -0.14100
H 	H 	0.73400 0.57310 0.65720 0.10500
C 	C 	0.79090 0.49170 0.60940 0.09500
C 	C 	0.79480 0.40620 0.59070 -0.09200
H 	H 	0.83070 0.39110 0.56650 0.08600
C 	C 	0.63060 0.47470 0.70320 -0.04200
H 	H 	0.58290 0.44170 0.69520 0.05200
H 	H 	0.61890 0.53750 0.70180 0.05400
C 	C 	0.68660 0.42200 0.95950 0.38400
C 	C 	0.43800 0.52480 0.84850 0.31800
C 	C 	0.63920 0.44370 0.90470 -0.04000
C 	C 	0.56330 0.47300 0.90170 -0.02900
H 	H 	0.54060 0.47780 0.93500 0.07700
C 	C 	0.52180 0.49480 0.85180 -0.00800
C 	C 	0.55440 0.48840 0.80040 -0.14300
H 	H 	0.52570 0.50300 0.76600 0.10000
C 	C 	0.62900 0.46030 0.80210 0.18700
C 	C 	0.67380 0.43860 0.85400 -0.11300
H 	H 	0.72490 0.42130 0.85470 0.10200
C 	C 	0.84920 0.55880 0.59160 -0.04300
H 	H 	0.85730 0.54910 0.55240 0.05500
H 	H 	0.89820 0.55270 0.61530 0.05500
C 	C 	0.81660 0.95880 0.57060 0.40000
C 	C 	0.04520 0.78020 0.52780 0.32600
C 	C 	0.85950 0.87120 0.57010 -0.03700
C 	C 	0.93060 0.86680 0.55140 -0.03200
H 	H 	0.95520 0.91840 0.54200 0.07300
C 	C 	0.96530 0.78660 0.54670 -0.00800
C 	C 	0.93030 0.70930 0.56290 -0.14600
H 	H 	0.95500 0.65500 0.56100 0.10000
C 	C 	0.85900 0.71350 0.58170 0.19500
C 	C 	0.82470 0.79450 0.58630 -0.12700
H 	H 	0.77750 0.79800 0.60040 0.10500
Zn	Zn	0.16625 0.63331 0.98219 1.23800
Zn	Zn	0.31019 0.56647 0.91030 1.22200
O 	O 	0.19170 0.73030 0.93700 -0.50600
O 	O 	0.30050 0.69480 0.90310 -0.49300
O 	O 	0.24320 0.90060 0.54255 -0.48100
O 	O 	0.34480 0.92850 0.49717 -0.44500
O 	O 	0.59920 0.04110 0.69850 -0.27900
O 	O 	0.58620 0.03020 0.60404 -0.42800
O 	O 	0.92270 0.21100 0.97430 -0.29000
O 	O 	0.92980 0.35590 0.98730 -0.43500
O 	O 	0.24970 0.45810 0.91880 -0.49200
O 	O 	0.14480 0.52640 0.93700 -0.50500
O 	O 	0.33150 0.95150 0.74357 -0.20800
O 	O 	0.18170 0.14340 0.90190 -0.21500
C 	C 	0.24820 0.74860 0.91220 0.39200
C 	C 	0.25410 0.84240 0.89250 -0.03500
C 	C 	0.30990 0.86580 0.85810 -0.08100
H 	H 	0.34410 0.82330 0.84780 0.08100
C 	C 	0.31450 0.95160 0.83940 0.08900
C 	C 	0.26340 0.01500 0.85560 -0.13900
H 	H 	0.26600 0.07310 0.84280 0.10400
C 	C 	0.20910 0.99170 0.89060 0.09300
C 	C 	0.20520 0.90620 0.90930 -0.09000
H 	H 	0.16930 0.89110 0.93350 0.08500
C 	C 	0.36940 0.97470 0.79680 -0.04200
H 	H 	0.41710 0.94170 0.80480 0.05200
H 	H 	0.38110 0.03750 0.79820 0.05400
C 	C 	0.31340 0.92200 0.54050 0.38300
C 	C 	0.56200 0.02480 0.65150 0.31800
C 	C 	0.36080 0.94370 0.59530 -0.04000
C 	C 	0.43670 0.97300 0.59830 -0.02900
H 	H 	0.45940 0.97780 0.56500 0.07700
C 	C 	0.47820 0.99480 0.64820 -0.00800
C 	C 	0.44560 0.98840 0.69960 -0.14400
H 	H 	0.47430 0.00300 0.73400 0.10100
C 	C 	0.37100 0.96030 0.69790 0.18700
C 	C 	0.32620 0.93860 0.64600 -0.11400
H 	H 	0.27510 0.92130 0.64530 0.10200
C 	C 	0.15080 0.05880 0.90840 -0.04200
H 	H 	0.14270 0.04910 0.94760 0.05500
H 	H 	0.10180 0.05270 0.88470 0.05400
C 	C 	0.18340 0.45880 0.92940 0.40000
C 	C 	0.95480 0.28020 0.97220 0.32800
C 	C 	0.14050 0.37120 0.92990 -0.03800
C 	C 	0.06940 0.36680 0.94860 -0.03100
H 	H 	0.04480 0.41840 0.95800 0.07200
C 	C 	0.03470 0.28660 0.95330 -0.01100
C 	C 	0.06970 0.20930 0.93710 -0.14400
H 	H 	0.04500 0.15500 0.93900 0.09900
C 	C 	0.14100 0.21350 0.91830 0.19500
C 	C 	0.17530 0.29450 0.91370 -0.12600
H 	H 	0.22250 0.29800 0.89960 0.10400
