data_crystal

_cell_length_a 13.29250
_cell_length_b 13.66000
_cell_length_c 9.56310
_cell_angle_alpha 90.00000
_cell_angle_beta  126.84000
_cell_angle_gamma 90.00000

_symmetry_space_group_name_	'P 1'
_symmetry_space_group_name_H-M	'P 1'

loop_
_symmetry_equiv_pos_as_xyz
  x,y,z

loop_
_atom_site_label
_atom_site_type_symbol
_atom_site_fract_x
_atom_site_fract_y
_atom_site_fract_z
_atom_site_charge
Zn	Zn	0.16640 0.35645 0.87010 1.14200
N 	N 	0.49410 0.20040 0.20890 -0.30500
N 	N 	0.31250 0.26820 0.02070 -0.28500
N 	N 	0.18070 0.46500 0.73820 -0.33200
N 	N 	0.17630 0.56770 0.56220 -0.31000
N 	N 	0.26100 0.59830 0.72960 -0.09700
N 	N 	0.40230 0.13030 0.13690 -0.08900
N 	N 	0.26290 0.53780 0.83480 -0.12200
C 	C 	0.03300 0.42320 0.42230 -1.14100
H 	H 	0.01430 0.36730 0.46390 0.31200
H 	H 	0.06520 0.40170 0.36060 0.33400
H 	H 	0.95770 0.46060 0.34510 0.38400
C 	C 	0.43560 0.28330 0.13230 0.31600
C 	C 	0.12770 0.48450 0.57180 0.36900
N 	N 	0.29570 0.17070 0.02610 -0.06900
C 	C 	0.49830 0.38160 0.17200 -0.87000
H 	H 	0.43590 0.43080 0.10250 0.27300
H 	H 	0.55720 0.38020 0.14510 0.26700
H 	H 	0.54180 0.39640 0.29360 0.26500
Zn	Zn	0.66640 0.85645 0.87010 1.14800
N 	N 	0.99410 0.70040 0.20890 -0.26200
N 	N 	0.81250 0.76820 0.02070 -0.25600
N 	N 	0.68070 0.96500 0.73820 -0.31600
N 	N 	0.67630 0.06770 0.56220 -0.28900
N 	N 	0.76100 0.09830 0.72960 -0.08700
N 	N 	0.90230 0.63030 0.13690 -0.08200
N 	N 	0.76290 0.03780 0.83480 -0.10700
C 	C 	0.53300 0.92320 0.42230 -0.90000
H 	H 	0.51430 0.86730 0.46390 0.25900
H 	H 	0.56520 0.90170 0.36060 0.27700
H 	H 	0.45770 0.96060 0.34510 0.27900
C 	C 	0.93560 0.78330 0.13230 0.19800
C 	C 	0.62770 0.98450 0.57180 0.32000
N 	N 	0.79570 0.67070 0.02610 -0.06700
C 	C 	0.99830 0.88160 0.17200 -0.33700
H 	H 	0.93590 0.93080 0.10250 0.13000
H 	H 	0.05720 0.88020 0.14510 0.07500
H 	H 	0.04180 0.89640 0.29360 0.07200
Zn	Zn	0.16640 0.64355 0.37010 1.16500
N 	N 	0.49410 0.79960 0.70890 -0.31500
N 	N 	0.31250 0.73180 0.52070 -0.30100
N 	N 	0.18070 0.53500 0.23820 -0.33300
N 	N 	0.17630 0.43230 0.06220 -0.30100
N 	N 	0.26100 0.40170 0.22960 -0.08300
N 	N 	0.40230 0.86970 0.63690 -0.10700
N 	N 	0.26290 0.46220 0.33480 -0.09900
C 	C 	0.03300 0.57680 0.92230 -1.30100
H 	H 	0.01430 0.63270 0.96390 0.32300
H 	H 	0.06520 0.59830 0.86060 0.35900
H 	H 	0.95770 0.53940 0.84510 0.40300
C 	C 	0.43560 0.71670 0.63230 0.27000
C 	C 	0.12770 0.51550 0.07180 0.47700
N 	N 	0.29570 0.82930 0.52610 -0.09400
C 	C 	0.49830 0.61840 0.67200 -0.76800
H 	H 	0.43590 0.56920 0.60250 0.21700
H 	H 	0.55720 0.61980 0.64510 0.21100
H 	H 	0.54180 0.60360 0.79360 0.21100
Zn	Zn	0.66640 0.14355 0.37010 1.17500
N 	N 	0.99410 0.29960 0.70890 -0.27400
N 	N 	0.81250 0.23180 0.52070 -0.27500
N 	N 	0.68070 0.03500 0.23820 -0.31400
N 	N 	0.67630 0.93230 0.06220 -0.28200
N 	N 	0.76100 0.90170 0.22960 -0.07300
N 	N 	0.90230 0.36970 0.63690 -0.10000
N 	N 	0.76290 0.96220 0.33480 -0.08600
C 	C 	0.53300 0.07680 0.92230 -1.08100
H 	H 	0.51430 0.13270 0.96390 0.27700
H 	H 	0.56520 0.09830 0.86060 0.30700
H 	H 	0.45770 0.03940 0.84510 0.30800
C 	C 	0.93560 0.21670 0.63230 0.16300
C 	C 	0.62770 0.01550 0.07180 0.43500
N 	N 	0.79570 0.32930 0.52610 -0.09300
C 	C 	0.99830 0.11840 0.67200 -0.28300
H 	H 	0.93590 0.06920 0.60250 0.08900
H 	H 	0.05720 0.11980 0.64510 0.03800
H 	H 	0.04180 0.10360 0.79360 0.03800
