data_crystal

_cell_length_a 15.16350
_cell_length_b 17.97390
_cell_length_c 10.01760
_cell_angle_alpha 90.00000
_cell_angle_beta  90.00000
_cell_angle_gamma 90.00000

_symmetry_space_group_name_	'P 1'
_symmetry_space_group_name_H-M	'P 1'

loop_
_symmetry_equiv_pos_as_xyz
  x,y,z

loop_
_atom_site_label
_atom_site_type_symbol
_atom_site_fract_x
_atom_site_fract_y
_atom_site_fract_z
_atom_site_charge
Zn	Zn	0.95159 0.33713 0.83780 1.15800
N 	N 	0.82120 0.34513 0.80450 -0.39100
N 	N 	0.98820 0.44081 0.87850 -0.41700
N 	N 	0.99970 0.20417 0.16780 -0.35400
N 	N 	0.97050 0.26874 0.99220 -0.38100
C 	C 	0.09590 0.31370 0.13180 -0.94900
H 	H 	0.09990 0.35260 0.06640 0.27600
H 	H 	0.15020 0.28620 0.13340 0.27400
H 	H 	0.08540 0.33510 0.21820 0.26900
C 	C 	0.02210 0.26300 0.09680 0.41000
N 	N 	0.79290 0.35130 0.67590 -0.11200
N 	N 	0.91370 0.20911 0.99710 -0.14200
N 	N 	0.93140 0.17162 0.10250 -0.09400
N 	N 	0.99300 0.46453 0.00680 -0.11900
H 	H 	0.00930 0.54970 0.62590 0.31100
H 	H 	0.94430 0.48190 0.62590 0.28500
H 	H 	0.04640 0.46830 0.62590 0.31600
H 	H 	0.69030 0.33740 0.06010 0.38300
H 	H 	0.78000 0.38060 0.06390 0.38600
H 	H 	0.77960 0.29350 0.05620 0.40100
Zn	Zn	0.95159 0.83713 0.33780 1.16000
N 	N 	0.82120 0.84513 0.30450 -0.39600
N 	N 	0.98820 0.94081 0.37850 -0.37300
N 	N 	0.99970 0.70417 0.66780 -0.35500
N 	N 	0.97050 0.76874 0.49220 -0.35400
C 	C 	0.09590 0.81370 0.63180 -0.87800
H 	H 	0.09990 0.85260 0.56640 0.24100
H 	H 	0.15020 0.78620 0.63340 0.24800
H 	H 	0.08540 0.83510 0.71820 0.24200
C 	C 	0.02210 0.76300 0.59680 0.35600
N 	N 	0.79290 0.85130 0.17590 -0.10500
N 	N 	0.91370 0.70911 0.49710 -0.12900
N 	N 	0.93140 0.67162 0.60250 -0.13200
N 	N 	0.99300 0.96453 0.50680 -0.16100
H 	H 	0.00930 0.04970 0.12590 0.12700
H 	H 	0.94430 0.98190 0.12590 0.07400
H 	H 	0.04640 0.96830 0.12590 0.10500
H 	H 	0.69030 0.83740 0.56010 0.39200
H 	H 	0.78000 0.88060 0.56390 0.39400
H 	H 	0.77960 0.79350 0.55620 0.40800
Zn	Zn	0.04841 0.66287 0.83780 1.16900
N 	N 	0.17880 0.65487 0.80450 -0.39100
N 	N 	0.01180 0.55919 0.87850 -0.38900
N 	N 	0.00030 0.79583 0.16780 -0.27700
N 	N 	0.02950 0.73126 0.99220 -0.31600
C 	C 	0.90410 0.68630 0.13180 -0.75700
H 	H 	0.90010 0.64740 0.06640 0.20300
H 	H 	0.84980 0.71380 0.13340 0.21400
H 	H 	0.91460 0.66490 0.21820 0.20000
C 	C 	0.97790 0.73700 0.09680 0.23800
N 	N 	0.20710 0.64870 0.67590 -0.10900
N 	N 	0.08630 0.79089 0.99710 -0.14200
N 	N 	0.06860 0.82838 0.10250 -0.09100
N 	N 	0.00700 0.53547 0.00680 -0.07500
H 	H 	0.99070 0.45030 0.62590 0.23800
H 	H 	0.05570 0.51810 0.62590 0.26100
H 	H 	0.95360 0.53170 0.62590 0.25000
H 	H 	0.30970 0.66260 0.06010 0.39100
H 	H 	0.22000 0.61940 0.06390 0.39700
H 	H 	0.22040 0.70650 0.05620 0.40900
Zn	Zn	0.04841 0.16287 0.33780 1.17500
N 	N 	0.17880 0.15487 0.30450 -0.40400
N 	N 	0.01180 0.05919 0.37850 -0.32100
N 	N 	0.00030 0.29583 0.66780 -0.27800
N 	N 	0.02950 0.23126 0.49220 -0.29200
C 	C 	0.90410 0.18630 0.63180 -0.72800
H 	H 	0.90010 0.14740 0.56640 0.19300
H 	H 	0.84980 0.21380 0.63340 0.20400
H 	H 	0.91460 0.16490 0.71820 0.19600
C 	C 	0.97790 0.23700 0.59680 0.19900
N 	N 	0.20710 0.14870 0.17590 -0.09400
N 	N 	0.08630 0.29089 0.49710 -0.12700
N 	N 	0.06860 0.32838 0.60250 -0.12200
N 	N 	0.00700 0.03547 0.50680 -0.06500
H 	H 	0.99070 0.95030 0.12590 0.09200
H 	H 	0.05570 0.01810 0.12590 0.15100
H 	H 	0.95360 0.03170 0.12590 0.13900
H 	H 	0.30970 0.16260 0.56010 0.43800
H 	H 	0.22000 0.11940 0.56390 0.45000
H 	H 	0.22040 0.20650 0.55620 0.45400
Zn	Zn	0.45159 0.66287 0.83780 1.16200
N 	N 	0.32120 0.65487 0.80450 -0.39400
N 	N 	0.48820 0.55919 0.87850 -0.43900
N 	N 	0.49970 0.79583 0.16780 -0.32000
N 	N 	0.47050 0.73126 0.99220 -0.34900
C 	C 	0.59590 0.68630 0.13180 -0.84500
H 	H 	0.59990 0.64740 0.06640 0.23500
H 	H 	0.65020 0.71380 0.13340 0.24000
H 	H 	0.58540 0.66490 0.21820 0.22900
C 	C 	0.52210 0.73700 0.09680 0.31800
N 	N 	0.29290 0.64870 0.67590 -0.11500
N 	N 	0.41370 0.79089 0.99710 -0.14600
N 	N 	0.43140 0.82838 0.10250 -0.10700
N 	N 	0.49300 0.53547 0.00680 -0.09800
H 	H 	0.50930 0.45030 0.62590 0.41500
H 	H 	0.44430 0.51810 0.62590 0.41200
H 	H 	0.54640 0.53170 0.62590 0.42200
H 	H 	0.19030 0.66260 0.06010 0.39300
H 	H 	0.28000 0.61940 0.06390 0.39500
H 	H 	0.27960 0.70650 0.05620 0.40800
Zn	Zn	0.45159 0.16287 0.33780 1.16800
N 	N 	0.32120 0.15487 0.30450 -0.40700
N 	N 	0.48820 0.05919 0.37850 -0.36800
N 	N 	0.49970 0.29583 0.66780 -0.32100
N 	N 	0.47050 0.23126 0.49220 -0.32400
C 	C 	0.59590 0.18630 0.63180 -0.81600
H 	H 	0.59990 0.14740 0.56640 0.22600
H 	H 	0.65020 0.21380 0.63340 0.23100
H 	H 	0.58540 0.16490 0.71820 0.22500
C 	C 	0.52210 0.23700 0.59680 0.28000
N 	N 	0.29290 0.14870 0.17590 -0.09900
N 	N 	0.41370 0.29089 0.49710 -0.13100
N 	N 	0.43140 0.32838 0.60250 -0.13800
N 	N 	0.49300 0.03547 0.50680 -0.08800
H 	H 	0.50930 0.95030 0.12590 0.26100
H 	H 	0.44430 0.01810 0.12590 0.29600
H 	H 	0.54640 0.03170 0.12590 0.30500
H 	H 	0.19030 0.16260 0.56010 0.44000
H 	H 	0.28000 0.11940 0.56390 0.44900
H 	H 	0.27960 0.20650 0.55620 0.45300
Zn	Zn	0.54841 0.33713 0.83780 1.16200
N 	N 	0.67880 0.34513 0.80450 -0.39100
N 	N 	0.51180 0.44081 0.87850 -0.43900
N 	N 	0.50030 0.20417 0.16780 -0.31800
N 	N 	0.52950 0.26874 0.99220 -0.34900
C 	C 	0.40410 0.31370 0.13180 -0.84700
H 	H 	0.40010 0.35260 0.06640 0.23700
H 	H 	0.34980 0.28620 0.13340 0.24100
H 	H 	0.41460 0.33510 0.21820 0.23000
C 	C 	0.47790 0.26300 0.09680 0.32200
N 	N 	0.70710 0.35130 0.67590 -0.11500
N 	N 	0.58630 0.20911 0.99710 -0.14200
N 	N 	0.56860 0.17162 0.10250 -0.09900
N 	N 	0.50700 0.46453 0.00680 -0.09800
H 	H 	0.49070 0.54970 0.62590 0.41500
H 	H 	0.55570 0.48190 0.62590 0.41200
H 	H 	0.45360 0.46830 0.62590 0.42200
H 	H 	0.80970 0.33740 0.06010 0.38100
H 	H 	0.72000 0.38060 0.06390 0.38600
H 	H 	0.72040 0.29350 0.05620 0.40200
Zn	Zn	0.54841 0.83713 0.33780 1.16600
N 	N 	0.67880 0.84513 0.30450 -0.39600
N 	N 	0.51180 0.94081 0.37850 -0.39300
N 	N 	0.50030 0.70417 0.66780 -0.31900
N 	N 	0.52950 0.76874 0.49220 -0.32200
C 	C 	0.40410 0.81370 0.63180 -0.77500
H 	H 	0.40010 0.85260 0.56640 0.20200
H 	H 	0.34980 0.78620 0.63340 0.21400
H 	H 	0.41460 0.83510 0.71820 0.20300
C 	C 	0.47790 0.76300 0.59680 0.26700
N 	N 	0.70710 0.85130 0.17590 -0.10800
N 	N 	0.58630 0.70911 0.49710 -0.13000
N 	N 	0.56860 0.67162 0.60250 -0.13800
N 	N 	0.50700 0.96453 0.50680 -0.14000
H 	H 	0.49070 0.04970 0.12590 0.22400
H 	H 	0.55570 0.98190 0.12590 0.19400
H 	H 	0.45360 0.96830 0.12590 0.20500
H 	H 	0.80970 0.83740 0.56010 0.39000
H 	H 	0.72000 0.88060 0.56390 0.39400
H 	H 	0.72040 0.79350 0.55620 0.40800
C 	C 	0.75000 0.34210 0.88240 0.66800
C 	C 	0.75000 0.33810 0.02820 -2.36100
C 	C 	0.75000 0.84210 0.38240 0.71800
C 	C 	0.75000 0.83810 0.52820 -2.46500
C 	C 	0.25000 0.65790 0.88240 0.68100
C 	C 	0.25000 0.66190 0.02820 -2.41100
C 	C 	0.25000 0.15790 0.38240 0.79700
C 	C 	0.25000 0.16190 0.52820 -2.72700
C 	C 	-0.00000 0.50000 0.65790 -1.74700
C 	C 	-0.00000 0.50000 0.80470 0.57500
C 	C 	0.00000 0.00000 0.15790 -0.76900
C 	C 	0.00000 0.00000 0.30470 0.37900
C 	C 	0.50000 0.50000 0.65790 -2.56500
C 	C 	0.50000 0.50000 0.80470 0.75400
C 	C 	0.50000 0.00000 0.15790 -1.55000
C 	C 	0.50000 0.00000 0.30470 0.55000
