data_crystal

_cell_length_a 7.58310
_cell_length_b 13.79890
_cell_length_c 31.08640
_cell_angle_alpha 90.00000
_cell_angle_beta  90.00000
_cell_angle_gamma 90.00000

_symmetry_space_group_name_	'P 1'
_symmetry_space_group_name_H-M	'P 1'

loop_
_symmetry_equiv_pos_as_xyz
  x,y,z

loop_
_atom_site_label
_atom_site_type_symbol
_atom_site_fract_x
_atom_site_fract_y
_atom_site_fract_z
_atom_site_charge
Mn	Mn	0.94600 0.08702 0.25000 1.18300
Mn	Mn	0.55400 0.58702 0.75000 1.17800
Mn	Mn	0.05400 0.91298 0.75000 1.16100
Mn	Mn	0.44600 0.41298 0.25000 1.17600
Mn	Mn	0.50000 0.50000 0.50000 1.22900
Mn	Mn	0.00000 0.00000 0.50000 1.18100
Mn	Mn	0.50000 0.50000 -0.00000 1.21500
Mn	Mn	-0.00000 0.00000 -0.00000 1.16700
Ag	Ag	0.49585 0.05619 0.38129 0.43700
Ag	Ag	0.23704 0.24206 0.38974 0.41400
Ag	Ag	0.00415 0.55619 0.61871 0.42000
Ag	Ag	0.26296 0.74206 0.61026 0.41800
Ag	Ag	0.50415 0.94381 0.88129 0.47400
Ag	Ag	0.76296 0.75794 0.88974 0.44000
Ag	Ag	0.99585 0.44381 0.11871 0.47900
Ag	Ag	0.73704 0.25794 0.11026 0.42800
Ag	Ag	0.50415 0.94381 0.61871 0.47300
Ag	Ag	0.76296 0.75794 0.61026 0.43900
Ag	Ag	0.99585 0.44381 0.38129 0.48000
Ag	Ag	0.73704 0.25794 0.38974 0.42900
Ag	Ag	0.49585 0.05619 0.11871 0.43600
Ag	Ag	0.23704 0.24206 0.11026 0.41300
Ag	Ag	0.00415 0.55619 0.88129 0.42100
Ag	Ag	0.26296 0.74206 0.88974 0.42000
H 	H 	0.64370 0.37130 0.65410 0.06700
H 	H 	0.69630 0.16760 0.56300 0.05900
H 	H 	0.57430 0.47990 0.60100 -0.04700
H 	H 	0.63680 0.28360 0.51240 -0.03400
H 	H 	0.85630 0.87130 0.34590 0.08500
H 	H 	0.80370 0.66760 0.43700 0.06900
H 	H 	0.92570 0.97990 0.39900 -0.00800
H 	H 	0.86320 0.78360 0.48760 -0.02100
H 	H 	0.35630 0.62870 0.15410 0.06600
H 	H 	0.30370 0.83240 0.06300 0.07300
H 	H 	0.42570 0.52010 0.10100 -0.05100
H 	H 	0.36320 0.71640 0.01240 -0.04900
H 	H 	0.14370 0.12870 0.84590 0.04200
H 	H 	0.19630 0.33240 0.93700 0.06400
H 	H 	0.07430 0.02010 0.89900 -0.08700
H 	H 	0.13680 0.21640 0.98760 -0.03100
H 	H 	0.35630 0.62870 0.34590 0.06500
H 	H 	0.30370 0.83240 0.43700 0.07500
H 	H 	0.42570 0.52010 0.39900 -0.05000
H 	H 	0.36320 0.71640 0.48760 -0.03700
H 	H 	0.14370 0.12870 0.65410 0.04300
H 	H 	0.19630 0.33240 0.56300 0.06100
H 	H 	0.07430 0.02010 0.60100 -0.08900
H 	H 	0.13680 0.21640 0.51240 -0.04500
H 	H 	0.64370 0.37130 0.84590 0.06700
H 	H 	0.69630 0.16760 0.93700 0.06200
H 	H 	0.57430 0.47990 0.89900 -0.04600
H 	H 	0.63680 0.28360 0.98760 -0.02000
H 	H 	0.85630 0.87130 0.15410 0.08500
H 	H 	0.80370 0.66760 0.06300 0.06600
H 	H 	0.92570 0.97990 0.10100 -0.00900
H 	H 	0.86320 0.78360 0.01240 -0.03400
C 	C 	0.65720 0.05650 0.32827 -0.17200
C 	C 	0.33620 0.03923 0.43411 -0.17500
C 	C 	0.63950 0.35180 0.62551 -0.15200
C 	C 	0.70830 0.18550 0.64724 0.02300
C 	C 	0.67260 0.25670 0.61396 0.06700
C 	C 	0.67220 0.23100 0.57135 -0.14400
C 	C 	0.60010 0.41630 0.59338 0.07700
C 	C 	0.16280 0.16644 0.33561 -0.22300
C 	C 	0.31940 0.32740 0.44014 -0.17800
C 	C 	0.63520 0.30075 0.54134 0.08000
C 	C 	0.84280 0.55650 0.67173 -0.10300
C 	C 	0.16380 0.53923 0.56589 -0.15900
C 	C 	0.86050 0.85180 0.37449 -0.14500
C 	C 	0.79170 0.68550 0.35276 0.03100
C 	C 	0.82740 0.75670 0.38604 0.07100
C 	C 	0.82780 0.73100 0.42865 -0.14500
C 	C 	0.89990 0.91630 0.40662 0.08400
C 	C 	0.33720 0.66644 0.66439 -0.20900
C 	C 	0.18060 0.82740 0.55986 -0.17400
C 	C 	0.86480 0.80075 0.45866 0.08700
C 	C 	0.34280 0.94350 0.82827 -0.12300
C 	C 	0.66380 0.96077 0.93411 -0.09600
C 	C 	0.36050 0.64820 0.12551 -0.16500
C 	C 	0.29170 0.81450 0.14724 0.01700
C 	C 	0.32740 0.74330 0.11396 0.06900
C 	C 	0.32780 0.76900 0.07135 -0.16600
C 	C 	0.39990 0.58370 0.09338 0.07000
C 	C 	0.83720 0.83356 0.83561 -0.16700
C 	C 	0.68060 0.67260 0.94014 -0.14100
C 	C 	0.36480 0.69925 0.04134 0.07800
C 	C 	0.15720 0.44350 0.17173 -0.17700
C 	C 	0.83620 0.46077 0.06589 -0.12700
C 	C 	0.13950 0.14820 0.87449 -0.17000
C 	C 	0.20830 0.31450 0.85276 0.00300
C 	C 	0.17260 0.24330 0.88604 0.05700
C 	C 	0.17220 0.26900 0.92865 -0.15800
C 	C 	0.10010 0.08370 0.90662 0.05900
C 	C 	0.66280 0.33356 0.16439 -0.19200
C 	C 	0.81940 0.17260 0.05986 -0.16900
C 	C 	0.13520 0.19925 0.95866 0.06800
C 	C 	0.34280 0.94350 0.67173 -0.12300
C 	C 	0.66380 0.96077 0.56589 -0.10100
C 	C 	0.36050 0.64820 0.37449 -0.16400
C 	C 	0.29170 0.81450 0.35276 0.01700
C 	C 	0.32740 0.74330 0.38604 0.06800
C 	C 	0.32780 0.76900 0.42865 -0.16300
C 	C 	0.39990 0.58370 0.40662 0.07000
C 	C 	0.83720 0.83356 0.66439 -0.16700
C 	C 	0.68060 0.67260 0.55986 -0.14900
C 	C 	0.36480 0.69925 0.45866 0.07800
C 	C 	0.15720 0.44350 0.32827 -0.17700
C 	C 	0.83620 0.46077 0.43411 -0.12200
C 	C 	0.13950 0.14820 0.62551 -0.17100
C 	C 	0.20830 0.31450 0.64724 0.00200
C 	C 	0.17260 0.24330 0.61396 0.05800
C 	C 	0.17220 0.26900 0.57135 -0.16100
C 	C 	0.10010 0.08370 0.59338 0.05900
C 	C 	0.66280 0.33356 0.33561 -0.19200
C 	C 	0.81940 0.17260 0.44014 -0.16100
C 	C 	0.13520 0.19925 0.54134 0.06800
C 	C 	0.65720 0.05650 0.17173 -0.17200
C 	C 	0.33620 0.03923 0.06589 -0.18100
C 	C 	0.63950 0.35180 0.87449 -0.15000
C 	C 	0.70830 0.18550 0.85276 0.02400
C 	C 	0.67260 0.25670 0.88604 0.06600
C 	C 	0.67220 0.23100 0.92865 -0.14100
C 	C 	0.60010 0.41630 0.90662 0.07700
C 	C 	0.16280 0.16644 0.16439 -0.22300
C 	C 	0.31940 0.32740 0.05986 -0.18600
C 	C 	0.63520 0.30075 0.95866 0.08000
C 	C 	0.84280 0.55650 0.82827 -0.10300
C 	C 	0.16380 0.53923 0.93411 -0.15300
C 	C 	0.86050 0.85180 0.12551 -0.14700
C 	C 	0.79170 0.68550 0.14724 0.03000
C 	C 	0.82740 0.75670 0.11396 0.07200
C 	C 	0.82780 0.73100 0.07135 -0.14900
C 	C 	0.89990 0.91630 0.09338 0.08400
C 	C 	0.33720 0.66644 0.83561 -0.20900
C 	C 	0.18060 0.82740 0.94014 -0.16600
C 	C 	0.86480 0.80075 0.04134 0.08700
N 	N 	0.75080 0.05560 0.29984 -0.26500
N 	N 	0.37020 0.37895 0.46571 -0.23200
N 	N 	0.73670 0.13090 0.67349 -0.16300
N 	N 	0.59680 0.39247 0.55181 -0.25500
N 	N 	0.23530 0.02769 0.46067 -0.25900
N 	N 	0.12090 0.13005 0.30460 -0.27700
N 	N 	0.74920 0.55560 0.70016 -0.26600
N 	N 	0.12980 0.87895 0.53429 -0.22300
N 	N 	0.76330 0.63090 0.32651 -0.15000
N 	N 	0.90320 0.89247 0.44819 -0.22900
N 	N 	0.26470 0.52769 0.53933 -0.23900
N 	N 	0.37910 0.63005 0.69540 -0.26200
N 	N 	0.24920 0.94440 0.79984 -0.26400
N 	N 	0.62980 0.62105 0.96571 -0.21700
N 	N 	0.26330 0.86910 0.17349 -0.14500
N 	N 	0.40320 0.60753 0.05181 -0.26500
N 	N 	0.76470 0.97231 0.96067 -0.19100
N 	N 	0.87910 0.86995 0.80460 -0.23400
N 	N 	0.25080 0.44440 0.20016 -0.26000
N 	N 	0.87020 0.12105 0.03429 -0.23400
N 	N 	0.23670 0.36910 0.82651 -0.16500
N 	N 	0.09680 0.10753 0.94819 -0.26700
N 	N 	0.73530 0.47231 0.03933 -0.24300
N 	N 	0.62090 0.36995 0.19540 -0.25600
N 	N 	0.24920 0.94440 0.70016 -0.26400
N 	N 	0.62980 0.62105 0.53429 -0.22900
N 	N 	0.26330 0.86910 0.32651 -0.14500
N 	N 	0.40320 0.60753 0.44819 -0.26000
N 	N 	0.76470 0.97231 0.53933 -0.20200
N 	N 	0.87910 0.86995 0.69540 -0.23400
N 	N 	0.25080 0.44440 0.29984 -0.26000
N 	N 	0.87020 0.12105 0.46571 -0.22600
N 	N 	0.23670 0.36910 0.67349 -0.16500
N 	N 	0.09680 0.10753 0.55181 -0.27500
N 	N 	0.73530 0.47231 0.46067 -0.23600
N 	N 	0.62090 0.36995 0.30460 -0.25700
N 	N 	0.75080 0.05560 0.20016 -0.26500
N 	N 	0.37020 0.37895 0.03429 -0.24000
N 	N 	0.73670 0.13090 0.82651 -0.16300
N 	N 	0.59680 0.39247 0.94819 -0.24700
N 	N 	0.23530 0.02769 0.03933 -0.26600
N 	N 	0.12090 0.13005 0.19540 -0.27700
N 	N 	0.74920 0.55560 0.79984 -0.26600
N 	N 	0.12980 0.87895 0.96571 -0.21100
N 	N 	0.76330 0.63090 0.17349 -0.14900
N 	N 	0.90320 0.89247 0.05181 -0.23400
N 	N 	0.26470 0.52769 0.96067 -0.22800
N 	N 	0.37910 0.63005 0.80460 -0.26200
