data_crystal

_cell_length_a 10.39000
_cell_length_b 12.29500
_cell_length_c 12.49700
_cell_angle_alpha 79.31000
_cell_angle_beta  68.20000
_cell_angle_gamma 69.58000

_symmetry_space_group_name_	'P 1'
_symmetry_space_group_name_H-M	'P 1'

loop_
_symmetry_equiv_pos_as_xyz
  x,y,z

loop_
_atom_site_label
_atom_site_type_symbol
_atom_site_fract_x
_atom_site_fract_y
_atom_site_fract_z
_atom_site_charge
Cd	Cd	0.40038 0.69632 0.02158 1.22000
Cd	Cd	0.04869 0.52707 0.81438 1.22200
S 	S 	0.73520 0.51493 0.00492 0.92300
O 	O 	0.38350 0.87660 0.06450 -0.38700
O 	O 	0.19070 0.86790 0.04070 -0.37600
O 	O 	0.82660 0.50430 0.06900 -0.56600
O 	O 	0.66870 0.42210 0.04230 -0.55200
O 	O 	0.82110 0.50850 0.88450 -0.52800
O 	O 	0.62970 0.62890 0.02680 -0.51500
O 	O 	0.02950 0.57850 0.63020 -0.38300
O 	O 	0.24700 0.54150 0.63810 -0.37100
N 	N 	0.31730 0.64150 0.21670 -0.22400
N 	N 	0.04920 0.28030 0.14260 -0.21400
C 	C 	0.15950 0.56890 0.58410 0.29000
C 	C 	0.21680 0.59380 0.45380 -0.00400
C 	C 	0.12210 0.62510 0.39000 -0.09800
H 	H 	0.02460 0.62930 0.42530 0.07800
C 	C 	0.17880 0.64950 0.27300 0.07400
H 	H 	0.11550 0.67320 0.23070 -0.01400
C 	C 	0.40740 0.61060 0.27960 0.05200
H 	H 	0.50500 0.60520 0.24180 0.01300
C 	C 	0.36110 0.58670 0.39680 -0.09000
H 	H 	0.42610 0.56600 0.43740 0.08000
C 	C 	0.25850 0.92200 0.06320 0.29900
C 	C 	0.18340 0.04740 0.08960 -0.02600
C 	C 	0.04570 0.10750 0.08250 -0.05200
H 	H 	0.99560 0.07040 0.06110 0.06400
C 	C 	0.25030 0.10860 0.12360 -0.07600
H 	H 	0.34260 0.07180 0.12930 0.07200
C 	C 	0.98430 0.22310 0.10760 0.02100
H 	H 	0.89370 0.26330 0.10000 0.01200
C 	C 	0.18070 0.22330 0.14880 0.05700
H 	H 	0.22800 0.26240 0.17120 -0.00100
Cd	Cd	0.59962 0.30368 0.97842 1.22000
Cd	Cd	0.95131 0.47293 0.18562 1.22200
S 	S 	0.26480 0.48507 0.99508 0.92300
O 	O 	0.61650 0.12340 0.93550 -0.38700
O 	O 	0.80930 0.13210 0.95930 -0.37600
O 	O 	0.17340 0.49570 0.93100 -0.56600
O 	O 	0.33130 0.57790 0.95770 -0.55200
O 	O 	0.17890 0.49150 0.11550 -0.52800
O 	O 	0.37030 0.37110 0.97320 -0.51500
O 	O 	0.97050 0.42150 0.36980 -0.38300
O 	O 	0.75300 0.45850 0.36190 -0.37100
N 	N 	0.68270 0.35850 0.78330 -0.22400
N 	N 	0.95080 0.71970 0.85740 -0.21400
C 	C 	0.84050 0.43110 0.41590 0.29000
C 	C 	0.78320 0.40620 0.54620 -0.00400
C 	C 	0.87790 0.37490 0.61000 -0.09800
H 	H 	0.97540 0.37070 0.57470 0.07800
C 	C 	0.82120 0.35050 0.72700 0.07400
H 	H 	0.88450 0.32680 0.76930 -0.01400
C 	C 	0.59260 0.38940 0.72040 0.05200
H 	H 	0.49500 0.39480 0.75820 0.01300
C 	C 	0.63890 0.41330 0.60320 -0.09000
H 	H 	0.57390 0.43400 0.56260 0.08000
C 	C 	0.74150 0.07800 0.93680 0.29900
C 	C 	0.81660 0.95260 0.91040 -0.02600
C 	C 	0.95430 0.89250 0.91750 -0.05200
H 	H 	0.00440 0.92960 0.93890 0.06400
C 	C 	0.74970 0.89140 0.87640 -0.07600
H 	H 	0.65740 0.92820 0.87070 0.07200
C 	C 	0.01570 0.77690 0.89240 0.02100
H 	H 	0.10630 0.73670 0.90000 0.01200
C 	C 	0.81930 0.77670 0.85120 0.05700
H 	H 	0.77200 0.73760 0.82880 -0.00100
