data_crystal

_cell_length_a 13.32820
_cell_length_b 13.32820
_cell_length_c 13.05010
_cell_angle_alpha 90.00000
_cell_angle_beta  90.00000
_cell_angle_gamma 120.00000

_symmetry_space_group_name_	'P 1'
_symmetry_space_group_name_H-M	'P 1'

loop_
_symmetry_equiv_pos_as_xyz
  x,y,z

loop_
_atom_site_label
_atom_site_type_symbol
_atom_site_fract_x
_atom_site_fract_y
_atom_site_fract_z
_atom_site_charge
N 	N 	0.07430 0.64880 0.55210 -0.11800
N 	N 	0.18270 0.63770 0.67320 -0.23100
C 	C 	0.18040 0.67020 0.57890 0.08900
H 	H 	0.24450 0.70410 0.53580 -0.01500
N 	N 	0.51770 0.21120 0.36420 -0.22700
C 	C 	0.00460 0.59890 0.63460 -0.01000
H 	H 	0.92600 0.57410 0.63930 0.03000
N 	N 	0.34340 0.08230 0.41440 -0.12200
C 	C 	0.03940 0.67220 0.45200 -0.04600
H 	H 	0.95710 0.61960 0.44280 0.04400
H 	H 	0.07980 0.65590 0.39860 0.04200
C 	C 	0.07140 0.59260 0.70750 0.00200
H 	H 	0.04580 0.56200 0.77260 0.01500
C 	C 	0.52200 0.17980 0.46390 0.00100
H 	H 	0.58890 0.20890 0.50350 0.01500
C 	C 	0.41600 0.10150 0.49530 -0.00800
H 	H 	0.39550 0.06680 0.55950 0.03100
C 	C 	0.40760 0.14790 0.33690 0.08500
H 	H 	0.37890 0.14910 0.27230 -0.01100
C 	C 	0.21850 0.00070 0.41400 -0.03700
H 	H 	0.18160 0.02270 0.46650 0.03700
H 	H 	0.18640 0.00400 0.34820 0.03700
C 	C 	0.06310 0.79260 0.43940 -0.09700
H 	H 	0.03000 0.81240 0.49670 0.05800
H 	H 	0.02590 0.79770 0.37720 0.05200
C 	C 	0.19370 0.88010 0.43340 -0.11400
H 	H 	0.22760 0.85720 0.37890 0.06300
H 	H 	0.23000 0.87830 0.49730 0.06800
N 	N 	0.35120 0.42550 0.55210 -0.11900
N 	N 	0.36230 0.54500 0.67320 -0.23200
C 	C 	0.32980 0.51020 0.57890 0.08900
H 	H 	0.29590 0.54040 0.53580 -0.01500
N 	N 	0.78880 0.30650 0.36420 -0.22700
C 	C 	0.40110 0.40570 0.63460 -0.01000
H 	H 	0.42590 0.35190 0.63930 0.03000
N 	N 	0.91770 0.26110 0.41440 -0.12200
C 	C 	0.32780 0.36720 0.45200 -0.04600
H 	H 	0.38040 0.33750 0.44280 0.04400
H 	H 	0.34410 0.42390 0.39860 0.04200
C 	C 	0.40740 0.47880 0.70750 0.00200
H 	H 	0.43800 0.48380 0.77260 0.01400
C 	C 	0.82020 0.34220 0.46390 0.00100
H 	H 	0.79110 0.38000 0.50350 0.01500
C 	C 	0.89850 0.31450 0.49530 -0.00800
H 	H 	0.93320 0.32870 0.55950 0.03100
C 	C 	0.85210 0.25970 0.33690 0.08500
H 	H 	0.85090 0.22980 0.27230 -0.01100
C 	C 	0.99930 0.21780 0.41400 -0.03700
H 	H 	0.97730 0.15890 0.46650 0.03700
H 	H 	0.99600 0.18240 0.34820 0.03700
C 	C 	0.20740 0.27050 0.43940 -0.09800
H 	H 	0.18760 0.21760 0.49670 0.05800
H 	H 	0.20230 0.22820 0.37720 0.05200
C 	C 	0.11990 0.31360 0.43340 -0.11400
H 	H 	0.14280 0.37040 0.37890 0.06300
H 	H 	0.12170 0.35170 0.49730 0.06800
N 	N 	0.57450 0.92570 0.55210 -0.11900
N 	N 	0.45500 0.81730 0.67320 -0.23200
C 	C 	0.48980 0.81960 0.57890 0.08900
H 	H 	0.45960 0.75550 0.53580 -0.01500
N 	N 	0.69350 0.48230 0.36420 -0.22700
C 	C 	0.59430 0.99540 0.63460 -0.01000
H 	H 	0.64810 0.07400 0.63930 0.03000
N 	N 	0.73890 0.65660 0.41440 -0.12200
C 	C 	0.63280 0.96060 0.45200 -0.04600
H 	H 	0.66250 0.04290 0.44280 0.04400
H 	H 	0.57610 0.92020 0.39860 0.04200
C 	C 	0.52120 0.92860 0.70750 0.00200
H 	H 	0.51620 0.95420 0.77260 0.01500
C 	C 	0.65780 0.47800 0.46390 0.00100
H 	H 	0.62000 0.41110 0.50350 0.01500
C 	C 	0.68550 0.58400 0.49530 -0.00800
H 	H 	0.67130 0.60450 0.55950 0.03100
C 	C 	0.74030 0.59240 0.33690 0.08500
H 	H 	0.77020 0.62110 0.27230 -0.01100
C 	C 	0.78220 0.78150 0.41400 -0.03700
H 	H 	0.84110 0.81840 0.46650 0.03700
H 	H 	0.81760 0.81360 0.34820 0.03700
C 	C 	0.72950 0.93690 0.43940 -0.09800
H 	H 	0.78240 0.97000 0.49670 0.05800
H 	H 	0.77180 0.97410 0.37720 0.05200
C 	C 	0.68640 0.80630 0.43340 -0.11400
H 	H 	0.62960 0.77240 0.37890 0.06300
H 	H 	0.64830 0.77000 0.49730 0.06800
N 	N 	0.64880 0.07430 0.05210 -0.11800
N 	N 	0.63770 0.18270 0.17320 -0.23200
C 	C 	0.67020 0.18040 0.07890 0.08900
H 	H 	0.70410 0.24450 0.03580 -0.01500
N 	N 	0.21120 0.51770 0.86420 -0.22700
C 	C 	0.59890 0.00460 0.13460 -0.00900
H 	H 	0.57410 0.92600 0.13930 0.03000
N 	N 	0.08230 0.34340 0.91440 -0.12200
C 	C 	0.67220 0.03940 0.95200 -0.05000
H 	H 	0.61960 0.95710 0.94280 0.04600
H 	H 	0.65590 0.07980 0.89860 0.04300
C 	C 	0.59260 0.07140 0.20750 0.00200
H 	H 	0.56200 0.04580 0.27260 0.01500
C 	C 	0.17980 0.52200 0.96390 0.00100
H 	H 	0.20890 0.58890 0.00350 0.01500
C 	C 	0.10150 0.41600 0.99530 -0.00800
H 	H 	0.06680 0.39550 0.05950 0.03100
C 	C 	0.14790 0.40760 0.83690 0.08500
H 	H 	0.14910 0.37890 0.77230 -0.01100
C 	C 	0.00070 0.21850 0.91400 -0.03500
H 	H 	0.02270 0.18160 0.96650 0.03700
H 	H 	0.00400 0.18640 0.84820 0.03600
C 	C 	0.79260 0.06310 0.93940 -0.09500
H 	H 	0.81240 0.03000 0.99670 0.05700
H 	H 	0.79770 0.02590 0.87720 0.05100
C 	C 	0.88010 0.19370 0.93340 -0.11600
H 	H 	0.85720 0.22760 0.87890 0.06400
H 	H 	0.87830 0.23000 0.99730 0.06800
N 	N 	0.42550 0.35120 0.05210 -0.11900
N 	N 	0.54500 0.36230 0.17320 -0.23200
C 	C 	0.51020 0.32980 0.07890 0.08900
H 	H 	0.54040 0.29590 0.03580 -0.01500
N 	N 	0.30650 0.78880 0.86420 -0.22700
C 	C 	0.40570 0.40110 0.13460 -0.01000
H 	H 	0.35190 0.42590 0.13930 0.03100
N 	N 	0.26110 0.91770 0.91440 -0.12200
C 	C 	0.36720 0.32780 0.95200 -0.04700
H 	H 	0.33750 0.38040 0.94280 0.04400
H 	H 	0.42390 0.34410 0.89860 0.04200
C 	C 	0.47880 0.40740 0.20750 0.00200
H 	H 	0.48380 0.43800 0.27260 0.01500
C 	C 	0.34220 0.82020 0.96390 0.00100
H 	H 	0.38000 0.79110 0.00350 0.01500
C 	C 	0.31450 0.89850 0.99530 -0.00700
H 	H 	0.32870 0.93320 0.05950 0.03000
C 	C 	0.25970 0.85210 0.83690 0.08500
H 	H 	0.22980 0.85090 0.77230 -0.01100
C 	C 	0.21780 0.99930 0.91400 -0.03600
H 	H 	0.15890 0.97730 0.96650 0.03700
H 	H 	0.18240 0.99600 0.84820 0.03600
C 	C 	0.27050 0.20740 0.93940 -0.09700
H 	H 	0.21760 0.18760 0.99670 0.05800
H 	H 	0.22820 0.20230 0.87720 0.05200
C 	C 	0.31360 0.11990 0.93340 -0.11500
H 	H 	0.37040 0.14280 0.87890 0.06300
H 	H 	0.35170 0.12170 0.99730 0.06800
N 	N 	0.92570 0.57450 0.05210 -0.11900
N 	N 	0.81730 0.45500 0.17320 -0.23200
C 	C 	0.81960 0.48980 0.07890 0.08900
H 	H 	0.75550 0.45960 0.03580 -0.01500
N 	N 	0.48230 0.69350 0.86420 -0.22700
C 	C 	0.99540 0.59430 0.13460 -0.00900
H 	H 	0.07400 0.64810 0.13930 0.03000
N 	N 	0.65660 0.73890 0.91440 -0.12200
C 	C 	0.96060 0.63280 0.95200 -0.04900
H 	H 	0.04290 0.66250 0.94280 0.04500
H 	H 	0.92020 0.57610 0.89860 0.04200
C 	C 	0.92860 0.52120 0.20750 0.00200
H 	H 	0.95420 0.51620 0.27260 0.01500
C 	C 	0.47800 0.65780 0.96390 0.00100
H 	H 	0.41110 0.62000 0.00350 0.01500
C 	C 	0.58400 0.68550 0.99530 -0.00800
H 	H 	0.60450 0.67130 0.05950 0.03200
C 	C 	0.59240 0.74030 0.83690 0.08500
H 	H 	0.62110 0.77020 0.77230 -0.01100
C 	C 	0.78150 0.78220 0.91400 -0.03700
H 	H 	0.81840 0.84110 0.96650 0.03700
H 	H 	0.81360 0.81760 0.84820 0.03600
C 	C 	0.93690 0.72950 0.93940 -0.09600
H 	H 	0.97000 0.78240 0.99670 0.05700
H 	H 	0.97410 0.77180 0.87720 0.05100
C 	C 	0.80630 0.68640 0.93340 -0.11500
H 	H 	0.77240 0.62960 0.87890 0.06300
H 	H 	0.77000 0.64830 0.99730 0.06800
Fe	Fe	0.33333 0.66667 0.76689 1.10900
Fe	Fe	0.66667 0.33333 0.26689 1.10900
