data_crystal

_cell_length_a 10.66000
_cell_length_b 12.48970
_cell_length_c 12.48970
_cell_angle_alpha 92.12810
_cell_angle_beta  92.85740
_cell_angle_gamma 92.85740

_symmetry_space_group_name_	'P 1'
_symmetry_space_group_name_H-M	'P 1'

loop_
_symmetry_equiv_pos_as_xyz
  x,y,z

loop_
_atom_site_label
_atom_site_type_symbol
_atom_site_fract_x
_atom_site_fract_y
_atom_site_fract_z
_atom_site_charge
Cd	Cd	0.75000 0.14052 0.85948 1.22200
Cd	Cd	0.50000 0.00000 -0.00000 1.15700
Cd	Cd	0.25000 0.85948 0.14052 1.22200
Cd	Cd	-0.00000 0.00000 -0.00000 1.15000
H 	H 	0.99700 0.16960 0.43640 0.03800
H 	H 	0.01180 0.09820 0.74540 -0.04200
H 	H 	0.50820 0.70460 0.67780 0.04200
H 	H 	0.48820 0.25460 0.90180 0.03700
H 	H 	0.67050 0.42290 0.11310 0.02500
H 	H 	0.14060 0.88210 0.69610 0.07000
H 	H 	0.30360 0.81440 0.38760 0.02800
H 	H 	0.45000 0.77280 0.84020 0.05700
H 	H 	0.01170 0.56210 0.08510 -0.01900
H 	H 	0.00820 0.67780 0.70460 0.00000
H 	H 	0.55000 0.22720 0.15980 0.02400
H 	H 	0.95000 0.84020 0.77280 0.08100
H 	H 	0.64060 0.69610 0.88210 0.08600
H 	H 	0.98830 0.43790 0.91490 0.10200
H 	H 	0.51180 0.74540 0.09820 0.00300
H 	H 	0.85940 0.11790 0.30390 0.03300
H 	H 	0.88130 0.40790 0.09350 0.05800
H 	H 	0.32950 0.57710 0.88690 0.07900
H 	H 	0.49700 0.43640 0.16960 0.05900
H 	H 	0.61870 0.90650 0.59210 0.07700
H 	H 	0.50300 0.56360 0.83040 0.05000
H 	H 	0.69640 0.18560 0.61240 0.01400
H 	H 	0.38280 0.72260 0.52480 0.05200
H 	H 	0.38130 0.09350 0.40790 0.02500
H 	H 	0.99180 0.32220 0.29540 0.10400
H 	H 	0.61720 0.27740 0.47520 0.05200
H 	H 	0.88280 0.52480 0.72260 0.07700
H 	H 	0.35940 0.30390 0.11790 0.01200
H 	H 	0.00300 0.83040 0.56360 0.06900
H 	H 	0.19640 0.61240 0.18560 0.02500
H 	H 	0.78810 0.89030 0.25610 0.07300
H 	H 	0.48830 0.91490 0.43790 0.06800
H 	H 	0.80360 0.38760 0.81440 0.01900
H 	H 	0.17050 0.11310 0.42290 0.04700
H 	H 	0.11870 0.59210 0.90650 0.05300
H 	H 	0.21190 0.10970 0.74390 0.06400
H 	H 	0.82950 0.88690 0.57710 0.06100
H 	H 	0.49180 0.29540 0.32220 0.05000
H 	H 	0.51170 0.08510 0.56210 0.03100
H 	H 	0.28810 0.25610 0.89030 0.08900
H 	H 	0.71190 0.74390 0.10970 0.04400
H 	H 	0.05000 0.15980 0.22720 -0.00900
H 	H 	0.11720 0.47520 0.27740 0.02100
H 	H 	0.98820 0.90180 0.25460 0.08200
C 	C 	0.75170 0.19510 0.40570 0.00700
C 	C 	0.42560 0.09060 0.56800 -0.04300
C 	C 	0.57440 0.90940 0.43200 0.00300
C 	C 	0.21430 0.84570 0.69270 -0.02400
C 	C 	0.33180 0.50470 0.17590 0.01900
C 	C 	0.53870 0.92100 0.23400 0.36500
C 	C 	0.77780 0.89110 0.51530 -0.02600
C 	C 	0.95830 0.16040 0.50080 -0.01900
C 	C 	0.15220 0.52470 0.90290 0.02600
C 	C 	0.75280 0.12300 0.10740 0.37400
C 	C 	0.83100 0.88550 0.41510 0.00800
C 	C 	0.24620 0.10620 0.67700 -0.07600
C 	C 	0.45830 0.50080 0.16040 -0.10000
C 	C 	0.74720 0.89260 0.87700 0.35700
C 	C 	0.25380 0.32300 0.89380 -0.06200
C 	C 	0.85890 0.59010 0.75130 -0.11900
C 	C 	0.71340 0.16640 0.21380 -0.11600
C 	C 	0.71430 0.69270 0.84570 -0.06300
C 	C 	0.96130 0.76600 0.07900 0.38300
C 	C 	0.12440 0.33010 0.90770 -0.01300
C 	C 	0.66900 0.58490 0.11450 -0.02700
C 	C 	0.04170 0.83960 0.49920 -0.11200
C 	C 	0.03190 0.87860 0.31500 -0.06400
C 	C 	0.78570 0.15430 0.30730 -0.03100
C 	C 	0.65220 0.90290 0.52470 -0.03400
C 	C 	0.22220 0.10890 0.48470 -0.09300
C 	C 	0.60120 0.21940 0.22120 -0.00800
C 	C 	0.43370 0.73990 0.68170 -0.02600
C 	C 	0.25170 0.40570 0.19510 -0.04900
C 	C 	0.14110 0.40990 0.24870 0.01500
C 	C 	0.93370 0.68170 0.73990 0.05900
C 	C 	0.27780 0.51530 0.89110 -0.08100
C 	C 	0.46810 0.68500 0.12140 -0.02000
C 	C 	0.35890 0.75130 0.59010 -0.05900
C 	C 	0.34780 0.09710 0.47530 -0.03700
C 	C 	0.71970 0.39410 0.82970 0.03300
C 	C 	0.56630 0.26010 0.31830 -0.05200
C 	C 	0.28030 0.60590 0.17030 -0.02200
C 	C 	0.16820 0.82410 0.49530 0.03600
C 	C 	0.96810 0.12140 0.68500 0.07600
C 	C 	0.37560 0.09230 0.66990 -0.07600
C 	C 	0.53070 0.59060 0.13120 0.00600
C 	C 	0.21970 0.82970 0.39410 0.00700
C 	C 	0.28570 0.30730 0.15430 0.01700
C 	C 	0.16900 0.11450 0.58490 0.03600
C 	C 	0.78030 0.17030 0.60590 0.00800
C 	C 	0.46130 0.07900 0.76600 0.33600
C 	C 	0.24720 0.87700 0.89260 0.37100
C 	C 	0.89880 0.77880 0.78060 -0.07500
C 	C 	0.62440 0.90770 0.33010 -0.05600
C 	C 	0.28660 0.83360 0.78620 -0.05400
C 	C 	0.74830 0.59430 0.80490 0.06700
C 	C 	0.83180 0.17590 0.50470 -0.03100
C 	C 	0.25280 0.10740 0.12300 0.39200
C 	C 	0.87560 0.66990 0.09230 -0.13200
C 	C 	0.92560 0.56800 0.09060 0.05900
C 	C 	0.24830 0.80490 0.59430 0.02200
C 	C 	0.46930 0.40940 0.86880 0.00000
C 	C 	0.54170 0.49920 0.83960 -0.03800
C 	C 	0.03070 0.13120 0.59060 -0.09200
C 	C 	0.06630 0.31830 0.26010 -0.16400
C 	C 	0.39880 0.78060 0.77880 -0.02000
C 	C 	0.66820 0.49530 0.82410 -0.00900
C 	C 	0.72220 0.48470 0.10890 -0.02400
C 	C 	0.78660 0.78620 0.83360 -0.01900
C 	C 	0.96930 0.86880 0.40940 0.09000
C 	C 	0.21340 0.21380 0.16640 -0.16200
C 	C 	0.10120 0.22120 0.21940 0.06200
C 	C 	0.64110 0.24870 0.40990 -0.06100
C 	C 	0.07440 0.43200 0.90940 -0.07000
C 	C 	0.75380 0.89380 0.32300 -0.01600
C 	C 	0.53190 0.31500 0.87860 0.02900
C 	C 	0.03870 0.23400 0.92100 0.32900
C 	C 	0.33100 0.41510 0.88550 0.06300
C 	C 	0.74620 0.67700 0.10620 -0.01800
C 	C 	0.84780 0.47530 0.09710 -0.11500
N 	N 	0.15300 0.85590 0.30770 -0.16800
N 	N 	0.34700 0.69230 0.14410 -0.20300
N 	N 	0.84700 0.14410 0.69230 -0.22300
N 	N 	0.65300 0.30770 0.85590 -0.18800
O 	O 	0.82610 0.97240 0.87220 -0.40900
O 	O 	0.58930 0.93130 0.14510 -0.39200
O 	O 	0.86030 0.08810 0.10510 -0.48300
O 	O 	0.42270 0.91890 0.24650 -0.40000
O 	O 	0.07730 0.75350 0.08110 -0.48100
O 	O 	0.91070 0.85490 0.06870 -0.42200
O 	O 	0.92270 0.24650 0.91890 -0.38100
O 	O 	0.36030 0.10510 0.08810 -0.49800
O 	O 	0.41070 0.06870 0.85490 -0.41600
O 	O 	0.63970 0.89490 0.91190 -0.33000
O 	O 	0.57730 0.08110 0.75350 -0.45500
O 	O 	0.17390 0.02760 0.12780 -0.61700
O 	O 	0.13970 0.91190 0.89490 -0.33700
O 	O 	0.32610 0.87220 0.97240 -0.41400
O 	O 	0.67390 0.12780 0.02760 -0.60700
O 	O 	0.08930 0.14510 0.93130 -0.38500
