data_crystal

_cell_length_a 16.13700
_cell_length_b 7.60500
_cell_length_c 16.14000
_cell_angle_alpha 90.00000
_cell_angle_beta  119.98400
_cell_angle_gamma 90.00000

_symmetry_space_group_name_	'P 1'
_symmetry_space_group_name_H-M	'P 1'

loop_
_symmetry_equiv_pos_as_xyz
  x,y,z

loop_
_atom_site_label
_atom_site_type_symbol
_atom_site_fract_x
_atom_site_fract_y
_atom_site_fract_z
_atom_site_charge
Mn	Mn	0.18312 0.37670 0.33396 1.32400
Mn	Mn	0.33400 0.87660 0.15101 1.23100
Mn	Mn	0.84923 0.87659 0.18289 1.23200
Mn	Mn	0.66678 0.35722 0.33332 1.32600
C 	C 	0.01450 0.61250 0.28900 0.40800
H 	H 	0.99670 0.57820 0.22560 -0.10200
C 	C 	0.22650 0.63190 0.21690 0.44700
H 	H 	0.28830 0.62460 0.27210 -0.12700
C 	C 	0.73970 0.60260 0.23610 0.46500
H 	H 	0.79680 0.59500 0.29630 -0.13100
C 	C 	0.30050 0.60580 0.50750 0.42500
H 	H 	0.24230 0.59310 0.50830 -0.12100
C 	C 	0.27420 0.61180 0.98610 0.40000
H 	H 	0.22910 0.57730 0.00430 -0.10000
C 	C 	0.49570 0.60370 0.26040 0.48100
H 	H 	0.49760 0.59410 0.20260 -0.13500
C 	C 	0.01170 0.13150 0.22790 0.40400
H 	H 	0.02000 0.12190 0.29030 -0.05600
C 	C 	0.79380 0.10550 0.29880 0.38400
H 	H 	0.73570 0.09500 0.23970 -0.05300
C 	C 	0.78290 0.63000 0.01050 0.44100
H 	H 	0.72880 0.61810 0.01870 -0.12200
C 	C 	0.50670 0.10570 0.20740 0.37900
H 	H 	0.50690 0.09420 0.26610 -0.05100
C 	C 	0.76540 0.60320 0.50570 0.48300
H 	H 	0.70630 0.59250 0.50480 -0.13700
C 	C 	0.28880 0.11270 0.27400 0.39300
H 	H 	0.22530 0.07950 0.22800 -0.04300
O 	O 	0.21850 0.72400 0.14820 -0.46300
O 	O 	0.08200 0.53060 0.35630 -0.40100
O 	O 	0.73980 0.70570 0.17520 -0.47600
O 	O 	0.96840 0.73660 0.29890 -0.45800
O 	O 	0.67180 0.51030 0.22430 -0.42700
O 	O 	0.16140 0.55070 0.21880 -0.42800
O 	O 	0.07040 0.22380 0.21840 -0.36000
O 	O 	0.77600 0.51150 0.44780 -0.42900
O 	O 	0.86450 0.02180 0.30730 -0.26400
O 	O 	0.56920 0.20370 0.20690 -0.34400
O 	O 	0.35620 0.03080 0.27460 -0.27800
O 	O 	0.30720 0.52240 0.44320 -0.39600
O 	O 	0.85200 0.72400 0.07020 -0.45600
O 	O 	0.33070 0.73680 0.03120 -0.45200
O 	O 	0.27460 0.53090 0.91850 -0.39700
O 	O 	0.79280 0.20290 0.36190 -0.34400
O 	O 	0.44340 0.02110 0.13620 -0.26000
O 	O 	0.55270 0.51210 0.32810 -0.43300
O 	O 	0.94260 0.05020 0.16160 -0.28800
O 	O 	0.78130 0.55310 0.94230 -0.42600
O 	O 	0.36200 0.70210 0.56920 -0.45700
O 	O 	0.82450 0.70650 0.56420 -0.48900
O 	O 	0.43600 0.70750 0.26030 -0.48700
O 	O 	0.29940 0.23670 0.33050 -0.35600
Mn	Mn	0.81688 0.87670 0.66604 1.23300
Mn	Mn	0.66600 0.37660 0.84899 1.32400
Mn	Mn	0.15077 0.37659 0.81711 1.32400
Mn	Mn	0.33322 0.85722 0.66668 1.23300
C 	C 	0.98550 0.11250 0.71100 0.42000
H 	H 	0.00330 0.07820 0.77440 -0.05700
C 	C 	0.77350 0.13190 0.78310 0.42400
H 	H 	0.71170 0.12460 0.72790 -0.06100
C 	C 	0.26030 0.10260 0.76390 0.43400
H 	H 	0.20320 0.09500 0.70370 -0.06300
C 	C 	0.69950 0.10580 0.49250 0.40100
H 	H 	0.75770 0.09310 0.49170 -0.05700
C 	C 	0.72580 0.11180 0.01390 0.40900
H 	H 	0.77090 0.07730 0.99570 -0.05300
C 	C 	0.50430 0.10370 0.73960 0.44700
H 	H 	0.50240 0.09410 0.79740 -0.06600
C 	C 	0.98830 0.63150 0.77210 0.44500
H 	H 	0.98000 0.62190 0.70970 -0.12200
C 	C 	0.20620 0.60550 0.70120 0.40600
H 	H 	0.26430 0.59500 0.76030 -0.11600
C 	C 	0.21710 0.13000 0.98950 0.39800
H 	H 	0.27120 0.11810 0.98130 -0.05400
C 	C 	0.49330 0.60570 0.79260 0.40000
H 	H 	0.49310 0.59420 0.73390 -0.11300
C 	C 	0.23460 0.10320 0.49430 0.45000
H 	H 	0.29370 0.09250 0.49520 -0.06600
C 	C 	0.71120 0.61270 0.72600 0.42800
H 	H 	0.77470 0.57950 0.77200 -0.11200
O 	O 	0.78150 0.22400 0.85180 -0.36200
O 	O 	0.91800 0.03060 0.64370 -0.28400
O 	O 	0.26020 0.20570 0.82480 -0.37800
O 	O 	0.03160 0.23660 0.70110 -0.37100
O 	O 	0.32820 0.01030 0.77570 -0.29700
O 	O 	0.83860 0.05070 0.78120 -0.30200
O 	O 	0.92960 0.72380 0.78160 -0.46300
O 	O 	0.22400 0.01150 0.55220 -0.29800
O 	O 	0.13550 0.52180 0.69270 -0.39400
O 	O 	0.43080 0.70370 0.79310 -0.44500
O 	O 	0.64380 0.53080 0.72540 -0.40500
O 	O 	0.69280 0.02240 0.55680 -0.26600
O 	O 	0.14800 0.22400 0.92980 -0.35600
O 	O 	0.66930 0.23680 0.96880 -0.36400
O 	O 	0.72540 0.03090 0.08150 -0.28000
O 	O 	0.20720 0.70290 0.63810 -0.44500
O 	O 	0.55660 0.52110 0.86380 -0.39000
O 	O 	0.44730 0.01210 0.67190 -0.30000
O 	O 	0.05740 0.55020 0.83840 -0.42600
O 	O 	0.21870 0.05310 0.05770 -0.29000
O 	O 	0.63800 0.20210 0.43080 -0.35700
O 	O 	0.17550 0.20650 0.43580 -0.38900
O 	O 	0.56400 0.20750 0.73970 -0.38500
O 	O 	0.70060 0.73670 0.66950 -0.46500
