data_crystal

_cell_length_a 8.80560
_cell_length_b 17.55160
_cell_length_c 13.91960
_cell_angle_alpha 90.00000
_cell_angle_beta  126.48300
_cell_angle_gamma 90.00000

_symmetry_space_group_name_	'P 1'
_symmetry_space_group_name_H-M	'P 1'

loop_
_symmetry_equiv_pos_as_xyz
  x,y,z

loop_
_atom_site_label
_atom_site_type_symbol
_atom_site_fract_x
_atom_site_fract_y
_atom_site_fract_z
_atom_site_charge
Cd	Cd	0.38851 0.54739 0.34290 1.20900
C 	C 	0.53350 0.68280 0.15740 0.00500
C 	C 	0.53500 0.76100 0.16150 -0.05400
H 	H 	0.50720 0.78590 0.20840 0.08400
C 	C 	0.57800 0.80310 0.09570 -0.02300
C 	C 	0.61220 0.76580 0.02300 -0.14700
H 	H 	0.63930 0.79370 0.97800 0.09400
C 	C 	0.60650 0.68760 0.01680 0.20800
C 	C 	0.57200 0.64530 0.08570 -0.16000
H 	H 	0.57450 0.59230 0.08440 0.11500
C 	C 	0.48370 0.63500 0.22570 0.29500
C 	C 	0.58570 0.88850 0.10110 0.29400
C 	C 	0.62480 0.57670 0.92300 0.08600
H 	H 	0.61240 0.56340 0.85100 0.03600
H 	H 	0.51490 0.55750 0.91550 0.03100
C 	C 	0.96390 0.46990 0.17020 0.08900
H 	H 	0.00350 0.43130 0.22620 0.00500
C 	C 	0.97270 0.56220 0.08270 0.10700
H 	H 	0.01320 0.60310 0.06090 0.00500
N 	N 	0.79430 0.54220 0.02590 -0.10700
N 	N 	0.78390 0.48150 0.08210 -0.09300
N 	N 	0.08550 0.51760 0.17320 -0.23700
O 	O 	0.53770 0.56800 0.24950 -0.37000
O 	O 	0.38900 0.66480 0.25460 -0.37400
O 	O 	0.55960 0.92120 0.16970 -0.39200
O 	O 	0.62360 0.92508 0.03970 -0.47500
O 	O 	0.63480 0.65637 0.93670 -0.23000
Cd	Cd	0.61149 0.04739 0.15710 1.20900
C 	C 	0.46650 0.18280 0.34260 0.00700
C 	C 	0.46500 0.26100 0.33850 -0.05600
H 	H 	0.49280 0.28590 0.29160 0.08500
C 	C 	0.42200 0.30310 0.40430 -0.02100
C 	C 	0.38780 0.26580 0.47700 -0.15300
H 	H 	0.36070 0.29370 0.52200 0.09800
C 	C 	0.39350 0.18760 0.48320 0.20900
C 	C 	0.42800 0.14530 0.41430 -0.16100
H 	H 	0.42550 0.09230 0.41560 0.11600
C 	C 	0.51630 0.13500 0.27430 0.29400
C 	C 	0.41430 0.38850 0.39890 0.29300
C 	C 	0.37520 0.07670 0.57700 0.08600
H 	H 	0.38760 0.06340 0.64900 0.03700
H 	H 	0.48510 0.05750 0.58450 0.03200
C 	C 	0.03610 0.96990 0.32980 0.08900
H 	H 	0.99650 0.93130 0.27380 0.00600
C 	C 	0.02730 0.06220 0.41730 0.11300
H 	H 	0.98680 0.10310 0.43910 0.00100
N 	N 	0.20570 0.04220 0.47410 -0.10800
N 	N 	0.21610 0.98150 0.41790 -0.09300
N 	N 	0.91450 0.01760 0.32680 -0.24000
O 	O 	0.46230 0.06800 0.25050 -0.37100
O 	O 	0.61100 0.16480 0.24540 -0.37500
O 	O 	0.44040 0.42120 0.33030 -0.39300
O 	O 	0.37640 0.42508 0.46030 -0.47700
O 	O 	0.36520 0.15637 0.56330 -0.22900
Cd	Cd	0.61149 0.45261 0.65710 1.21000
C 	C 	0.46650 0.31720 0.84260 0.00600
C 	C 	0.46500 0.23900 0.83850 -0.05400
H 	H 	0.49280 0.21410 0.79160 0.08400
C 	C 	0.42200 0.19690 0.90430 -0.02300
C 	C 	0.38780 0.23420 0.97700 -0.14700
H 	H 	0.36070 0.20630 0.02200 0.09400
C 	C 	0.39350 0.31240 0.98320 0.20800
C 	C 	0.42800 0.35470 0.91430 -0.16000
H 	H 	0.42550 0.40770 0.91560 0.11500
C 	C 	0.51630 0.36500 0.77430 0.29500
C 	C 	0.41430 0.11150 0.89890 0.29400
C 	C 	0.37520 0.42330 0.07700 0.08600
H 	H 	0.38760 0.43660 0.14900 0.03600
H 	H 	0.48510 0.44250 0.08450 0.03100
C 	C 	0.03610 0.53010 0.82980 0.08900
H 	H 	0.99650 0.56870 0.77380 0.00500
C 	C 	0.02730 0.43780 0.91730 0.10700
H 	H 	0.98680 0.39690 0.93910 0.00500
N 	N 	0.20570 0.45780 0.97410 -0.10700
N 	N 	0.21610 0.51850 0.91790 -0.09300
N 	N 	0.91450 0.48240 0.82680 -0.23700
O 	O 	0.46230 0.43200 0.75050 -0.37000
O 	O 	0.61100 0.33520 0.74540 -0.37400
O 	O 	0.44040 0.07880 0.83030 -0.39200
O 	O 	0.37640 0.07492 0.96030 -0.47500
O 	O 	0.36520 0.34363 0.06330 -0.23000
Cd	Cd	0.38851 0.95261 0.84290 1.20900
C 	C 	0.53350 0.81720 0.65740 0.00700
C 	C 	0.53500 0.73900 0.66150 -0.05600
H 	H 	0.50720 0.71410 0.70840 0.08500
C 	C 	0.57800 0.69690 0.59570 -0.02100
C 	C 	0.61220 0.73420 0.52300 -0.15300
H 	H 	0.63930 0.70630 0.47800 0.09800
C 	C 	0.60650 0.81240 0.51680 0.20900
C 	C 	0.57200 0.85470 0.58570 -0.16100
H 	H 	0.57450 0.90770 0.58440 0.11600
C 	C 	0.48370 0.86500 0.72570 0.29400
C 	C 	0.58570 0.61150 0.60110 0.29300
C 	C 	0.62480 0.92330 0.42300 0.08600
H 	H 	0.61240 0.93660 0.35100 0.03700
H 	H 	0.51490 0.94250 0.41550 0.03200
C 	C 	0.96390 0.03010 0.67020 0.08900
H 	H 	0.00350 0.06870 0.72620 0.00600
C 	C 	0.97270 0.93780 0.58270 0.11300
H 	H 	0.01320 0.89690 0.56090 0.00100
N 	N 	0.79430 0.95780 0.52590 -0.10800
N 	N 	0.78390 0.01850 0.58210 -0.09300
N 	N 	0.08550 0.98240 0.67320 -0.24000
O 	O 	0.53770 0.93200 0.74950 -0.37100
O 	O 	0.38900 0.83520 0.75460 -0.37500
O 	O 	0.55960 0.57880 0.66970 -0.39300
O 	O 	0.62360 0.57492 0.53970 -0.47700
O 	O 	0.63480 0.84363 0.43670 -0.22900
