data_crystal

_cell_length_a 7.89280
_cell_length_b 13.76930
_cell_length_c 7.40070
_cell_angle_alpha 90.00000
_cell_angle_beta  90.00000
_cell_angle_gamma 90.00000

_symmetry_space_group_name_	'P 1'
_symmetry_space_group_name_H-M	'P 1'

loop_
_symmetry_equiv_pos_as_xyz
  x,y,z

loop_
_atom_site_label
_atom_site_type_symbol
_atom_site_fract_x
_atom_site_fract_y
_atom_site_fract_z
_atom_site_charge
Mg	Mg	0.22279 0.16466 0.25959 1.48100
O 	O 	0.10437 0.26952 0.10876 -0.45700
O 	O 	0.92947 0.33374 0.90863 -0.45700
O 	O 	0.31092 0.28599 0.40248 -0.41900
O 	O 	0.50720 0.35290 0.57870 -0.42900
O 	O 	0.11838 0.04813 0.11935 -0.42600
O 	O 	0.13429 0.92851 0.91926 -0.43500
C 	C 	0.98960 0.26463 0.99560 0.52400
H 	H 	0.94300 0.20220 0.97290 -0.12100
C 	C 	0.44520 0.28458 0.49380 0.47200
H 	H 	0.50500 0.22470 0.49780 -0.10700
C 	C 	0.19400 0.99787 0.00370 0.47900
H 	H 	0.30830 0.01470 0.97840 -0.10500
Mg	Mg	0.27721 0.83534 0.75959 1.48000
O 	O 	0.39563 0.73048 0.60876 -0.46100
O 	O 	0.57053 0.66626 0.40863 -0.45800
O 	O 	0.18908 0.71401 0.90248 -0.41800
O 	O 	0.99280 0.64710 0.07870 -0.42700
O 	O 	0.38162 0.95187 0.61935 -0.42800
O 	O 	0.36571 0.07149 0.41926 -0.43900
C 	C 	0.51040 0.73537 0.49560 0.52900
H 	H 	0.55700 0.79780 0.47290 -0.12100
C 	C 	0.05480 0.71542 0.99380 0.46900
H 	H 	0.99500 0.77530 0.99780 -0.10500
C 	C 	0.30600 0.00213 0.50370 0.48800
H 	H 	0.19170 0.98530 0.47840 -0.10800
Mg	Mg	0.77721 0.66466 0.24041 1.48000
O 	O 	0.89563 0.76952 0.39124 -0.45800
O 	O 	0.07053 0.83374 0.59137 -0.45800
O 	O 	0.68908 0.78599 0.09752 -0.41800
O 	O 	0.49280 0.85290 0.92130 -0.42600
O 	O 	0.88162 0.54813 0.38065 -0.43000
O 	O 	0.86571 0.42851 0.58074 -0.44000
C 	C 	0.01040 0.76463 0.50440 0.52300
H 	H 	0.05700 0.70220 0.52710 -0.12000
C 	C 	0.55480 0.78458 0.00620 0.46900
H 	H 	0.49500 0.72470 0.00220 -0.10600
C 	C 	0.80600 0.49787 0.49630 0.49100
H 	H 	0.69170 0.51470 0.52160 -0.10800
Mg	Mg	0.72279 0.33534 0.74041 1.48000
O 	O 	0.60437 0.23048 0.89124 -0.46300
O 	O 	0.42947 0.16626 0.09137 -0.45900
O 	O 	0.81092 0.21401 0.59752 -0.41800
O 	O 	0.00720 0.14710 0.42130 -0.42600
O 	O 	0.61838 0.45187 0.88065 -0.42900
O 	O 	0.63429 0.57149 0.08074 -0.43900
C 	C 	0.48960 0.23537 0.00440 0.53200
H 	H 	0.44300 0.29780 0.02710 -0.12200
C 	C 	0.94520 0.21542 0.50620 0.46600
H 	H 	0.00500 0.27530 0.50220 -0.10400
C 	C 	0.69400 0.50213 0.99630 0.48800
H 	H 	0.80830 0.48530 0.02160 -0.10600
