data_crystal

_cell_length_a 14.12200
_cell_length_b 16.18000
_cell_length_c 20.03700
_cell_angle_alpha 90.00000
_cell_angle_beta  90.35000
_cell_angle_gamma 90.00000

_symmetry_space_group_name_	'P 1'
_symmetry_space_group_name_H-M	'P 1'

loop_
_symmetry_equiv_pos_as_xyz
  x,y,z

loop_
_atom_site_label
_atom_site_type_symbol
_atom_site_fract_x
_atom_site_fract_y
_atom_site_fract_z
_atom_site_charge
Ag	Ag	0.15383 0.32383 0.20983 0.50200
Ag	Ag	0.64346 0.57881 0.29368 0.50300
C 	C 	0.21730 0.68590 0.20360 -0.01100
H 	H 	0.27840 0.68070 0.18100 0.03500
C 	C 	0.14250 0.64680 0.17240 -0.08600
H 	H 	0.14100 0.64430 0.12600 0.05200
C 	C 	0.06670 0.60980 0.20940 0.02400
C 	C 	0.07500 0.61830 0.28000 0.02000
C 	C 	0.14390 0.65960 0.31450 -0.07100
H 	H 	0.14210 0.66750 0.36040 0.04900
C 	C 	0.22220 0.69090 0.27190 -0.04400
H 	H 	0.27530 0.71430 0.29190 0.05000
C 	C 	0.97870 0.56910 0.18500 -0.09700
H 	H 	0.97570 0.56580 0.13620 0.05100
C 	C 	0.89380 0.61280 0.21440 0.03600
C 	C 	0.82250 0.64370 0.18020 -0.10400
H 	H 	0.81770 0.63790 0.13410 0.05500
C 	C 	0.75260 0.68680 0.21800 -0.04100
H 	H 	0.70270 0.71210 0.19530 0.02900
C 	C 	0.75610 0.69230 0.28530 -0.09000
H 	H 	0.70860 0.72040 0.30780 0.02500
C 	C 	0.82940 0.65680 0.32090 -0.08300
H 	H 	0.83110 0.66030 0.36720 0.03800
C 	C 	0.90360 0.61380 0.28530 0.00800
C 	C 	0.98790 0.57820 0.31240 -0.08100
H 	H 	0.99000 0.58260 0.36120 0.04800
C 	C 	0.98720 0.48650 0.28880 0.00800
C 	C 	0.98790 0.41300 0.33070 -0.08600
H 	H 	0.98770 0.41660 0.37700 0.04900
C 	C 	0.98880 0.33930 0.29890 -0.03700
H 	H 	0.99230 0.29070 0.32360 0.03000
C 	C 	0.98460 0.33540 0.23080 -0.08700
H 	H 	0.98440 0.28310 0.21140 0.02800
C 	C 	0.98020 0.40650 0.18610 -0.10400
H 	H 	0.97610 0.40080 0.14000 0.04200
C 	C 	0.98260 0.48490 0.21760 0.01700
Ag	Ag	0.84617 0.82383 0.79017 0.50300
Ag	Ag	0.35654 0.07881 0.70632 0.50000
C 	C 	0.78270 0.18590 0.79640 -0.01000
H 	H 	0.72160 0.18070 0.81900 0.03400
C 	C 	0.85750 0.14680 0.82760 -0.08800
H 	H 	0.85900 0.14430 0.87400 0.05100
C 	C 	0.93330 0.10980 0.79060 0.02500
C 	C 	0.92500 0.11830 0.72000 0.02000
C 	C 	0.85610 0.15960 0.68550 -0.07200
H 	H 	0.85790 0.16750 0.63960 0.04800
C 	C 	0.77780 0.19090 0.72810 -0.04500
H 	H 	0.72470 0.21430 0.70810 0.05000
C 	C 	0.02130 0.06910 0.81500 -0.10500
H 	H 	0.02430 0.06580 0.86380 0.05200
C 	C 	0.10620 0.11280 0.78560 0.03600
C 	C 	0.17750 0.14370 0.81980 -0.10600
H 	H 	0.18230 0.13790 0.86590 0.05400
C 	C 	0.24740 0.18680 0.78200 -0.04100
H 	H 	0.29730 0.21210 0.80470 0.02800
C 	C 	0.24390 0.19230 0.71470 -0.09000
H 	H 	0.29140 0.22040 0.69220 0.02500
C 	C 	0.17060 0.15680 0.67910 -0.08400
H 	H 	0.16890 0.16030 0.63280 0.03700
C 	C 	0.09640 0.11380 0.71470 0.00800
C 	C 	0.01210 0.07820 0.68760 -0.08800
H 	H 	0.01000 0.08260 0.63880 0.04800
C 	C 	0.01280 0.98650 0.71120 0.01300
C 	C 	0.01210 0.91300 0.66930 -0.08700
H 	H 	0.01230 0.91660 0.62300 0.05100
C 	C 	0.01120 0.83930 0.70110 -0.03600
H 	H 	0.00770 0.79070 0.67640 0.03000
C 	C 	0.01540 0.83540 0.76920 -0.08600
H 	H 	0.01560 0.78310 0.78860 0.02800
C 	C 	0.01980 0.90650 0.81390 -0.10700
H 	H 	0.02390 0.90080 0.86000 0.04400
C 	C 	0.01740 0.98490 0.78240 0.02400
C 	C 	0.21790 0.17960 0.20050 -0.08900
H 	H 	0.27830 0.17330 0.17720 0.04100
C 	C 	0.13590 0.14270 0.16900 -0.09900
H 	H 	0.12970 0.14170 0.12280 0.04300
C 	C 	0.06860 0.10960 0.20840 0.02400
C 	C 	0.07060 0.11710 0.27680 0.01000
C 	C 	0.14840 0.15770 0.30890 -0.08000
H 	H 	0.14970 0.16250 0.35520 0.04400
C 	C 	0.22300 0.19070 0.27110 -0.07300
H 	H 	0.28570 0.19470 0.29200 0.04300
C 	C 	0.98120 0.06370 0.18470 -0.10600
H 	H 	0.97720 0.05780 0.13610 0.05300
C 	C 	0.90190 0.11450 0.21420 0.02300
C 	C 	0.82540 0.15500 0.18280 -0.08300
H 	H 	0.82490 0.15890 0.13650 0.05000
C 	C 	0.75390 0.18800 0.21650 -0.02000
H 	H 	0.69850 0.20210 0.19400 0.03900
C 	C 	0.76090 0.20260 0.28990 -0.03900
H 	H 	0.71930 0.23640 0.31310 0.04700
C 	C 	0.83640 0.16040 0.32040 -0.07000
H 	H 	0.84150 0.15900 0.36670 0.04800
C 	C 	0.90210 0.12160 0.28240 0.01900
C 	C 	0.99120 0.07590 0.31070 -0.09300
H 	H 	0.99600 0.08010 0.35940 0.05100
C 	C 	0.99450 0.99290 0.28840 0.02900
C 	C 	0.99350 0.92220 0.32770 -0.07800
H 	H 	0.00090 0.92650 0.37370 0.05100
C 	C 	0.98160 0.84510 0.29830 -0.03500
H 	H 	0.98100 0.79780 0.32460 0.04200
C 	C 	0.97060 0.83870 0.22950 -0.01400
H 	H 	0.93110 0.79300 0.21340 0.04000
C 	C 	0.97160 0.90940 0.19010 -0.09000
H 	H 	0.96420 0.90520 0.14410 0.05600
C 	C 	0.98350 0.98660 0.21960 0.04100
C 	C 	0.74110 0.44470 0.79270 -0.01100
H 	H 	0.76690 0.49560 0.81220 0.03600
C 	C 	0.66760 0.41210 0.82770 -0.09200
H 	H 	0.66290 0.41680 0.87390 0.05500
C 	C 	0.59910 0.37050 0.78840 0.03800
C 	C 	0.60290 0.36690 0.72010 0.00400
C 	C 	0.68160 0.40460 0.68840 -0.05700
H 	H 	0.68570 0.40090 0.64220 0.04300
C 	C 	0.74550 0.44230 0.71900 -0.04300
H 	H 	0.79450 0.46800 0.69620 0.04700
C 	C 	0.51270 0.33260 0.81890 -0.09900
H 	H 	0.51170 0.33720 0.86770 0.05400
C 	C 	0.42440 0.36640 0.78590 0.02900
C 	C 	0.35650 0.40880 0.81720 -0.08100
H 	H 	0.36040 0.41840 0.86290 0.05100
C 	C 	0.27560 0.44010 0.77810 -0.03300
H 	H 	0.22420 0.46570 0.79820 0.04400
C 	C 	0.28030 0.42880 0.70620 -0.03200
H 	H 	0.23020 0.44720 0.67980 0.04200
C 	C 	0.36030 0.39000 0.67440 -0.07500
H 	H 	0.36300 0.38490 0.62820 0.04600
C 	C 	0.43580 0.35950 0.71650 0.01600
C 	C 	0.51470 0.31720 0.68740 -0.08000
H 	H 	0.51430 0.31410 0.63860 0.04500
C 	C 	0.52080 0.23670 0.72250 0.00300
C 	C 	0.52890 0.16010 0.69430 -0.08200
H 	H 	0.53540 0.15520 0.64830 0.03200
C 	C 	0.52760 0.08680 0.73520 -0.12800
H 	H 	0.56640 0.04080 0.71920 0.05900
C 	C 	0.52030 0.09370 0.80420 -0.00300
H 	H 	0.52010 0.04640 0.83050 0.01700
C 	C 	0.51350 0.16780 0.83240 -0.11400
H 	H 	0.50570 0.17280 0.87830 0.05900
C 	C 	0.51820 0.23710 0.79270 0.02900
C 	C 	0.70770 0.43910 0.30500 -0.09300
H 	H 	0.76760 0.43800 0.32990 0.04200
C 	C 	0.72060 0.44570 0.23830 -0.06600
H 	H 	0.78540 0.44960 0.22130 0.04500
C 	C 	0.64630 0.41040 0.19430 -0.08600
H 	H 	0.64850 0.41450 0.14800 0.04900
C 	C 	0.57150 0.37000 0.22800 0.01600
C 	C 	0.56940 0.36300 0.29830 0.01200
C 	C 	0.63700 0.39770 0.33710 -0.08400
H 	H 	0.63550 0.39360 0.38340 0.04000
C 	C 	0.48790 0.32390 0.19220 -0.08700
H 	H 	0.49300 0.32770 0.14350 0.04800
C 	C 	0.49300 0.23750 0.21500 0.02200
C 	C 	0.49680 0.16710 0.17700 -0.08100
H 	H 	0.50110 0.17190 0.13090 0.04900
C 	C 	0.49430 0.08620 0.20650 -0.03000
H 	H 	0.50020 0.03890 0.18050 0.03700
C 	C 	0.48310 0.08080 0.27420 -0.03400
H 	H 	0.47470 0.02900 0.29330 0.04300
C 	C 	0.48360 0.15580 0.31900 -0.08300
H 	H 	0.48300 0.15150 0.36530 0.05000
C 	C 	0.48500 0.22880 0.28790 0.02800
C 	C 	0.47440 0.31370 0.32030 -0.09600
H 	H 	0.46880 0.30980 0.36900 0.05000
C 	C 	0.39780 0.35830 0.29110 0.03100
C 	C 	0.32530 0.39290 0.32280 -0.10600
H 	H 	0.32270 0.39150 0.36910 0.05500
C 	C 	0.24950 0.43330 0.28450 -0.04500
H 	H 	0.19550 0.45020 0.30690 0.02700
C 	C 	0.25470 0.44700 0.21750 -0.09700
H 	H 	0.21050 0.47880 0.19440 0.03600
C 	C 	0.33340 0.40880 0.18570 -0.08700
H 	H 	0.33660 0.41290 0.13940 0.03900
C 	C 	0.40310 0.36740 0.21670 0.00800
C 	C 	0.78210 0.67960 0.79950 -0.08900
H 	H 	0.72170 0.67330 0.82280 0.04200
C 	C 	0.86410 0.64270 0.83100 -0.09800
H 	H 	0.87030 0.64170 0.87720 0.04400
C 	C 	0.93140 0.60960 0.79160 0.02500
C 	C 	0.92940 0.61710 0.72320 0.01000
C 	C 	0.85160 0.65770 0.69110 -0.07900
H 	H 	0.85030 0.66250 0.64480 0.04500
C 	C 	0.77700 0.69070 0.72890 -0.07300
H 	H 	0.71430 0.69470 0.70800 0.04400
C 	C 	0.01880 0.56370 0.81530 -0.10000
H 	H 	0.02280 0.55780 0.86390 0.05300
C 	C 	0.09810 0.61450 0.78580 0.02300
C 	C 	0.17460 0.65500 0.81720 -0.08200
H 	H 	0.17510 0.65890 0.86350 0.05100
C 	C 	0.24610 0.68800 0.78350 -0.01900
H 	H 	0.30150 0.70210 0.80600 0.03900
C 	C 	0.23910 0.70260 0.71010 -0.03800
H 	H 	0.28070 0.73640 0.68690 0.04700
C 	C 	0.16360 0.66040 0.67960 -0.06900
H 	H 	0.15850 0.65900 0.63330 0.04800
C 	C 	0.09790 0.62160 0.71760 0.01900
C 	C 	0.00880 0.57590 0.68930 -0.08700
H 	H 	0.00400 0.58010 0.64060 0.05000
C 	C 	0.00550 0.49290 0.71160 0.02300
C 	C 	0.00650 0.42220 0.67230 -0.07400
H 	H 	0.99910 0.42650 0.62630 0.04800
C 	C 	0.01840 0.34510 0.70170 -0.03700
H 	H 	0.01900 0.29780 0.67540 0.04300
C 	C 	0.02940 0.33870 0.77050 -0.01500
H 	H 	0.06890 0.29300 0.78660 0.04000
C 	C 	0.02840 0.40940 0.80990 -0.08800
H 	H 	0.03580 0.40520 0.85590 0.05400
C 	C 	0.01650 0.48660 0.78040 0.03600
C 	C 	0.25890 0.94470 0.20730 -0.01200
H 	H 	0.23310 0.99560 0.18780 0.03900
C 	C 	0.33240 0.91210 0.17230 -0.09000
H 	H 	0.33710 0.91680 0.12610 0.05600
C 	C 	0.40090 0.87050 0.21160 0.03800
C 	C 	0.39710 0.86690 0.27990 0.00500
C 	C 	0.31840 0.90460 0.31160 -0.05700
H 	H 	0.31430 0.90090 0.35780 0.04400
C 	C 	0.25450 0.94230 0.28100 -0.04100
H 	H 	0.20550 0.96800 0.30380 0.04800
C 	C 	0.48730 0.83260 0.18110 -0.09900
H 	H 	0.48830 0.83720 0.13230 0.05400
C 	C 	0.57560 0.86640 0.21410 0.02900
C 	C 	0.64350 0.90880 0.18280 -0.08000
H 	H 	0.63960 0.91840 0.13710 0.05200
C 	C 	0.72440 0.94010 0.22190 -0.03200
H 	H 	0.77580 0.96570 0.20180 0.04500
C 	C 	0.71970 0.92880 0.29380 -0.03100
H 	H 	0.76980 0.94720 0.32020 0.04300
C 	C 	0.63970 0.89000 0.32560 -0.07500
H 	H 	0.63700 0.88490 0.37180 0.04700
C 	C 	0.56420 0.85950 0.28350 0.01700
C 	C 	0.48530 0.81720 0.31260 -0.08100
H 	H 	0.48570 0.81410 0.36140 0.04600
C 	C 	0.47920 0.73670 0.27750 0.00300
C 	C 	0.47110 0.66010 0.30570 -0.08200
H 	H 	0.46460 0.65520 0.35170 0.03300
C 	C 	0.47240 0.58680 0.26480 -0.12600
H 	H 	0.43360 0.54080 0.28080 0.06100
C 	C 	0.47970 0.59370 0.19580 -0.00300
H 	H 	0.47990 0.54640 0.16950 0.01900
C 	C 	0.48650 0.66780 0.16760 -0.11300
H 	H 	0.49430 0.67280 0.12170 0.05900
C 	C 	0.48180 0.73710 0.20730 0.02900
C 	C 	0.29230 0.93910 0.69500 -0.09100
H 	H 	0.23240 0.93800 0.67010 0.04200
C 	C 	0.27940 0.94570 0.76170 -0.06400
H 	H 	0.21460 0.94960 0.77870 0.04600
C 	C 	0.35370 0.91040 0.80570 -0.08500
H 	H 	0.35150 0.91450 0.85200 0.05100
C 	C 	0.42850 0.87000 0.77200 0.01700
C 	C 	0.43060 0.86300 0.70170 0.01300
C 	C 	0.36300 0.89770 0.66290 -0.08400
H 	H 	0.36450 0.89360 0.61660 0.04100
C 	C 	0.51210 0.82390 0.80780 -0.08800
H 	H 	0.50700 0.82770 0.85650 0.04900
C 	C 	0.50700 0.73750 0.78500 0.02200
C 	C 	0.50320 0.66710 0.82300 -0.08100
H 	H 	0.49890 0.67190 0.86910 0.05000
C 	C 	0.50570 0.58620 0.79350 -0.02900
H 	H 	0.49980 0.53890 0.81950 0.04000
C 	C 	0.51690 0.58080 0.72580 -0.03300
H 	H 	0.52530 0.52900 0.70670 0.04500
C 	C 	0.51640 0.65580 0.68100 -0.08200
H 	H 	0.51700 0.65150 0.63470 0.05100
C 	C 	0.51500 0.72880 0.71210 0.02800
C 	C 	0.52560 0.81370 0.67970 -0.09700
H 	H 	0.53120 0.80980 0.63100 0.05100
C 	C 	0.60220 0.85830 0.70890 0.03200
C 	C 	0.67470 0.89290 0.67720 -0.10500
H 	H 	0.67730 0.89150 0.63090 0.05600
C 	C 	0.75050 0.93330 0.71550 -0.04400
H 	H 	0.80450 0.95020 0.69310 0.02700
C 	C 	0.74530 0.94700 0.78250 -0.09600
H 	H 	0.78950 0.97880 0.80560 0.03800
C 	C 	0.66660 0.90880 0.81430 -0.08700
H 	H 	0.66340 0.91290 0.86060 0.04000
C 	C 	0.59690 0.86740 0.78330 0.00900
