data_crystal

_cell_length_a 12.61390
_cell_length_b 15.70050
_cell_length_c 16.64730
_cell_angle_alpha 90.00000
_cell_angle_beta  90.00000
_cell_angle_gamma 90.00000

_symmetry_space_group_name_	'P 1'
_symmetry_space_group_name_H-M	'P 1'

loop_
_symmetry_equiv_pos_as_xyz
  x,y,z

loop_
_atom_site_label
_atom_site_type_symbol
_atom_site_fract_x
_atom_site_fract_y
_atom_site_fract_z
_atom_site_charge
Cd	Cd	0.89942 0.00386 0.58115 1.22600
C 	C 	0.90338 0.26358 0.90928 -0.01200
C 	C 	0.80388 0.08980 0.86693 -0.08000
H 	H 	0.77420 0.03650 0.85780 0.09700
O 	O 	0.90817 0.13507 0.67619 -0.27900
O 	O 	0.97377 0.37538 0.00314 -0.39400
O 	O 	0.99608 0.40238 0.87339 -0.37900
C 	C 	0.85954 0.13297 0.81125 0.02600
C 	C 	0.96079 0.35424 0.93098 0.30400
C 	C 	0.86754 0.08401 0.72909 0.16400
O 	O 	0.70677 0.14232 0.05872 -0.24600
C 	C 	0.84576 0.22031 0.96408 -0.04900
H 	H 	0.83690 0.24270 0.01540 0.08400
C 	C 	0.90788 0.21918 0.83267 -0.04700
H 	H 	0.94470 0.24660 0.79180 0.08400
C 	C 	0.79502 0.13510 0.94269 0.02300
C 	C 	0.72928 0.08998 0.99974 0.14300
O 	O 	0.83468 0.99731 0.71499 -0.28700
O 	O 	0.69655 0.00315 0.98289 -0.38100
Cd	Cd	0.60058 0.99614 0.08115 1.22600
C 	C 	0.59662 0.73642 0.40928 -0.01300
C 	C 	0.69612 0.91020 0.36693 -0.07800
H 	H 	0.72580 0.96350 0.35780 0.09700
O 	O 	0.59183 0.86493 0.17619 -0.27900
O 	O 	0.52623 0.62462 0.50314 -0.39400
O 	O 	0.50392 0.59762 0.37339 -0.37900
C 	C 	0.64046 0.86703 0.31125 0.02500
C 	C 	0.53921 0.64576 0.43098 0.30400
C 	C 	0.63246 0.91599 0.22909 0.16500
O 	O 	0.79323 0.85768 0.55872 -0.24900
C 	C 	0.65424 0.77969 0.46408 -0.04400
H 	H 	0.66310 0.75730 0.51540 0.08200
C 	C 	0.59212 0.78082 0.33267 -0.04600
H 	H 	0.55530 0.75340 0.29180 0.08400
C 	C 	0.70498 0.86490 0.44269 0.02200
C 	C 	0.77072 0.91002 0.49974 0.14800
O 	O 	0.66532 0.00269 0.21499 -0.28900
O 	O 	0.80345 0.99685 0.48289 -0.37900
Cd	Cd	0.10058 0.50386 0.91885 1.22600
C 	C 	0.09662 0.76358 0.59072 -0.01400
C 	C 	0.19612 0.58980 0.63307 -0.07800
H 	H 	0.22580 0.53650 0.64220 0.09700
O 	O 	0.09183 0.63507 0.82381 -0.28000
O 	O 	0.02623 0.87538 0.49686 -0.39400
O 	O 	0.00392 0.90238 0.62661 -0.37900
C 	C 	0.14046 0.63297 0.68875 0.02500
C 	C 	0.03921 0.85424 0.56902 0.30400
C 	C 	0.13246 0.58401 0.77091 0.16700
O 	O 	0.29323 0.64232 0.44128 -0.25000
C 	C 	0.15424 0.72031 0.53592 -0.04400
H 	H 	0.16310 0.74270 0.48460 0.08100
C 	C 	0.09212 0.71918 0.66733 -0.04500
H 	H 	0.05530 0.74660 0.70820 0.08400
C 	C 	0.20498 0.63510 0.55731 0.02100
C 	C 	0.27072 0.58998 0.50026 0.14800
O 	O 	0.16532 0.49731 0.78501 -0.29200
O 	O 	0.30345 0.50315 0.51711 -0.38000
Cd	Cd	0.39942 0.49614 0.41885 1.22700
C 	C 	0.40338 0.23642 0.09072 -0.01700
C 	C 	0.30388 0.41020 0.13307 -0.07600
H 	H 	0.27420 0.46350 0.14220 0.09600
O 	O 	0.40817 0.36493 0.32381 -0.27900
O 	O 	0.47377 0.12462 0.99686 -0.39800
O 	O 	0.49608 0.09762 0.12661 -0.37800
C 	C 	0.35954 0.36703 0.18875 0.02400
C 	C 	0.46079 0.14576 0.06902 0.31100
C 	C 	0.36754 0.41599 0.27091 0.16700
O 	O 	0.20677 0.35768 0.94128 -0.25200
C 	C 	0.34576 0.27969 0.03592 -0.03500
H 	H 	0.33690 0.25730 0.98460 0.07600
C 	C 	0.40788 0.28082 0.16733 -0.04300
H 	H 	0.44470 0.25340 0.20820 0.08300
C 	C 	0.29502 0.36490 0.05731 0.01800
C 	C 	0.22928 0.41002 0.00026 0.15200
O 	O 	0.33468 0.50269 0.28501 -0.29200
O 	O 	0.19655 0.49685 0.01711 -0.38100
Cd	Cd	0.10058 0.99614 0.41885 1.22600
C 	C 	0.09662 0.73642 0.09072 -0.01200
C 	C 	0.19612 0.91020 0.13307 -0.08000
H 	H 	0.22580 0.96350 0.14220 0.09700
O 	O 	0.09183 0.86493 0.32381 -0.27900
O 	O 	0.02623 0.62462 0.99686 -0.39400
O 	O 	0.00392 0.59762 0.12661 -0.37900
C 	C 	0.14046 0.86703 0.18875 0.02600
C 	C 	0.03921 0.64576 0.06902 0.30400
C 	C 	0.13246 0.91599 0.27091 0.16400
O 	O 	0.29323 0.85768 0.94128 -0.24600
C 	C 	0.15424 0.77969 0.03592 -0.04900
H 	H 	0.16310 0.75730 0.98460 0.08400
C 	C 	0.09212 0.78082 0.16733 -0.04700
H 	H 	0.05530 0.75340 0.20820 0.08400
C 	C 	0.20498 0.86490 0.05731 0.02300
C 	C 	0.27072 0.91002 0.00026 0.14300
O 	O 	0.16532 0.00269 0.28501 -0.28700
O 	O 	0.30345 0.99685 0.01711 -0.38100
Cd	Cd	0.39942 0.00386 0.91885 1.22600
C 	C 	0.40338 0.26358 0.59072 -0.01300
C 	C 	0.30388 0.08980 0.63307 -0.07800
H 	H 	0.27420 0.03650 0.64220 0.09700
O 	O 	0.40817 0.13507 0.82381 -0.27900
O 	O 	0.47377 0.37538 0.49686 -0.39400
O 	O 	0.49608 0.40238 0.62661 -0.37900
C 	C 	0.35954 0.13297 0.68875 0.02500
C 	C 	0.46079 0.35424 0.56902 0.30400
C 	C 	0.36754 0.08401 0.77091 0.16500
O 	O 	0.20677 0.14232 0.44128 -0.24900
C 	C 	0.34576 0.22031 0.53592 -0.04400
H 	H 	0.33690 0.24270 0.48460 0.08200
C 	C 	0.40788 0.21918 0.66733 -0.04600
H 	H 	0.44470 0.24660 0.70820 0.08400
C 	C 	0.29502 0.13510 0.55731 0.02200
C 	C 	0.22928 0.08998 0.50026 0.14800
O 	O 	0.33468 0.99731 0.78501 -0.28900
O 	O 	0.19655 0.00315 0.51711 -0.37900
Cd	Cd	0.89942 0.49614 0.08115 1.22600
C 	C 	0.90338 0.23642 0.40928 -0.01400
C 	C 	0.80388 0.41020 0.36693 -0.07800
H 	H 	0.77420 0.46350 0.35780 0.09700
O 	O 	0.90817 0.36493 0.17619 -0.28000
O 	O 	0.97377 0.12462 0.50314 -0.39400
O 	O 	0.99608 0.09762 0.37339 -0.37900
C 	C 	0.85954 0.36703 0.31125 0.02500
C 	C 	0.96079 0.14576 0.43098 0.30400
C 	C 	0.86754 0.41599 0.22909 0.16700
O 	O 	0.70677 0.35768 0.55872 -0.25000
C 	C 	0.84576 0.27969 0.46408 -0.04400
H 	H 	0.83690 0.25730 0.51540 0.08100
C 	C 	0.90788 0.28082 0.33267 -0.04500
H 	H 	0.94470 0.25340 0.29180 0.08400
C 	C 	0.79502 0.36490 0.44269 0.02100
C 	C 	0.72928 0.41002 0.49974 0.14800
O 	O 	0.83468 0.50269 0.21499 -0.29200
O 	O 	0.69655 0.49685 0.48289 -0.38000
Cd	Cd	0.60058 0.50386 0.58115 1.22700
C 	C 	0.59662 0.76358 0.90928 -0.01700
C 	C 	0.69612 0.58980 0.86693 -0.07600
H 	H 	0.72580 0.53650 0.85780 0.09600
O 	O 	0.59183 0.63507 0.67619 -0.27900
O 	O 	0.52623 0.87538 0.00314 -0.39800
O 	O 	0.50392 0.90238 0.87339 -0.37800
C 	C 	0.64046 0.63297 0.81125 0.02400
C 	C 	0.53921 0.85424 0.93098 0.31100
C 	C 	0.63246 0.58401 0.72909 0.16700
O 	O 	0.79323 0.64232 0.05872 -0.25200
C 	C 	0.65424 0.72031 0.96408 -0.03500
H 	H 	0.66310 0.74270 0.01540 0.07600
C 	C 	0.59212 0.71918 0.83267 -0.04300
H 	H 	0.55530 0.74660 0.79180 0.08300
C 	C 	0.70498 0.63510 0.94269 0.01800
C 	C 	0.77072 0.58998 0.99974 0.15200
O 	O 	0.66532 0.49731 0.71499 -0.29200
O 	O 	0.80345 0.50315 0.98289 -0.38100
