data_crystal

_cell_length_a 9.38030
_cell_length_b 10.13950
_cell_length_c 10.98160
_cell_angle_alpha 87.65900
_cell_angle_beta  81.27300
_cell_angle_gamma 63.59900

_symmetry_space_group_name_	'P 1'
_symmetry_space_group_name_H-M	'P 1'

loop_
_symmetry_equiv_pos_as_xyz
  x,y,z

loop_
_atom_site_label
_atom_site_type_symbol
_atom_site_fract_x
_atom_site_fract_y
_atom_site_fract_z
_atom_site_charge
Cd	Cd	0.20189 0.37602 0.37999 1.24100
Cd	Cd	0.40147 0.10063 0.15032 1.24100
C 	C 	0.97216 0.06691 0.34456 -0.10900
C 	C 	0.02899 0.91501 0.34987 0.06700
H 	H 	0.14040 0.85380 0.33680 0.05600
C 	C 	0.92212 0.85260 0.37436 -0.10200
C 	C 	0.75657 0.94353 0.38615 0.05500
H 	H 	0.68390 0.90200 0.39880 0.03700
C 	C 	0.69931 0.09563 0.37913 -0.10300
C 	C 	0.80733 0.15757 0.36346 0.06000
H 	H 	0.76850 0.26050 0.36570 0.05100
C 	C 	0.09148 0.12950 0.31092 0.39800
C 	C 	0.98678 0.68901 0.38585 0.34700
C 	C 	0.52289 0.19233 0.38266 0.33000
O 	O 	0.21803 0.04463 0.24434 -0.42700
O 	O 	0.05511 0.25630 0.34903 -0.43000
O 	O 	0.89057 0.63273 0.41712 -0.42300
O 	O 	0.13660 0.61285 0.36056 -0.37400
O 	O 	0.46400 0.32602 0.41155 -0.34800
O 	O 	0.43587 0.13482 0.35384 -0.46500
Cl	Cl	0.29976 0.37051 0.12957 -0.53800
Cl	Cl	0.68164 0.94563 0.06398 -0.56200
Cd	Cd	0.79811 0.62398 0.62001 1.24000
Cd	Cd	0.59853 0.89937 0.84968 1.24000
C 	C 	0.02784 0.93309 0.65544 -0.11000
C 	C 	0.97101 0.08499 0.65013 0.06600
H 	H 	0.85960 0.14620 0.66320 0.05600
C 	C 	0.07788 0.14740 0.62564 -0.10200
C 	C 	0.24343 0.05647 0.61385 0.05500
H 	H 	0.31610 0.09800 0.60120 0.03700
C 	C 	0.30069 0.90437 0.62087 -0.10300
C 	C 	0.19267 0.84243 0.63654 0.06000
H 	H 	0.23150 0.73950 0.63430 0.05100
C 	C 	0.90852 0.87050 0.68908 0.39800
C 	C 	0.01322 0.31099 0.61415 0.34700
C 	C 	0.47711 0.80767 0.61734 0.33000
O 	O 	0.78197 0.95537 0.75566 -0.42700
O 	O 	0.94489 0.74370 0.65097 -0.43000
O 	O 	0.10943 0.36727 0.58288 -0.42300
O 	O 	0.86340 0.38715 0.63944 -0.37400
O 	O 	0.53600 0.67398 0.58845 -0.34800
O 	O 	0.56413 0.86518 0.64616 -0.46500
Cl	Cl	0.70024 0.62949 0.87043 -0.53800
Cl	Cl	0.31836 0.05437 0.93602 -0.56200
