data_crystal

_cell_length_a 30.31700
_cell_length_b 21.29500
_cell_length_c 13.38400
_cell_angle_alpha 90.00000
_cell_angle_beta  114.19000
_cell_angle_gamma 90.00000

_symmetry_space_group_name_	'P 1'
_symmetry_space_group_name_H-M	'P 1'

loop_
_symmetry_equiv_pos_as_xyz
  x,y,z

loop_
_atom_site_label
_atom_site_type_symbol
_atom_site_fract_x
_atom_site_fract_y
_atom_site_fract_z
_atom_site_charge
Mo	Mo	0.22533 0.21006 0.37697 1.22100
Mo	Mo	0.08569 0.15243 0.09841 1.17600
Mo	Mo	0.33133 0.29776 0.46393 1.15400
Mo	Mo	0.12530 0.29944 0.26348 1.16300
Mo	Mo	0.22890 0.36950 0.32448 1.22700
Na	Na	0.17790 0.03440 0.25830 0.58800
Na	Na	0.23370 0.96490 0.50100 0.58800
Na	Na	0.14190 0.37110 0.00840 0.58100
Na	Na	0.39340 0.23210 0.26590 0.57100
O 	O 	0.98080 0.29090 0.93470 -0.31700
O 	O 	0.28425 0.20930 0.38320 -0.42700
O 	O 	0.20140 0.14100 0.31470 -0.44200
O 	O 	0.10630 0.21430 0.20000 -0.51800
O 	O 	0.10500 0.33360 0.13690 -0.43600
O 	O 	0.19723 0.27170 0.26760 -0.49500
O 	O 	0.25893 0.30779 0.47040 -0.55400
O 	O 	0.09878 0.08680 0.17620 -0.42800
O 	O 	0.20690 0.39400 0.19060 -0.42300
O 	O 	0.16506 0.24210 0.40700 -0.55300
O 	O 	0.03399 0.10140 0.96700 -0.37300
O 	O 	0.16919 0.36540 0.34360 -0.46500
O 	O 	0.25180 0.43500 0.40030 -0.42600
O 	O 	0.28721 0.33230 0.32460 -0.48800
O 	O 	0.37316 0.25940 0.43030 -0.45700
O 	O 	0.96270 0.05460 0.89040 -0.28100
O 	O 	0.04206 0.22400 0.98540 -0.36900
O 	O 	0.15450 0.01880 0.39880 -0.27100
O 	O 	0.25680 0.00440 0.37050 -0.26700
O 	O 	0.19970 0.06370 0.11070 -0.29200
O 	O 	0.31470 0.92170 0.59700 -0.27500
O 	O 	0.08740 0.30450 0.88400 -0.28700
N 	N 	0.01221 0.15960 0.12040 -0.07400
C 	C 	0.00470 0.24770 0.99320 0.39300
C 	C 	0.99080 0.22190 0.07910 -0.33200
H 	H 	0.00080 0.25110 0.13990 0.11000
H 	H 	0.95580 0.21840 0.04950 0.12600
C 	C 	0.98160 0.10550 0.05880 -0.33500
H 	H 	0.98720 0.07010 0.10820 0.15300
H 	H 	0.94780 0.11710 0.03270 0.12300
C 	C 	0.99200 0.08590 0.96350 0.39900
C 	C 	0.02270 0.15400 0.23930 -0.08600
H 	H 	0.04320 0.18870 0.27850 0.03500
H 	H 	0.04040 0.11540 0.26760 0.06200
Mo	Mo	0.72533 0.71006 0.37697 1.22000
Mo	Mo	0.58569 0.65243 0.09841 1.17500
Mo	Mo	0.83133 0.79776 0.46393 1.15400
Mo	Mo	0.62530 0.79944 0.26348 1.16300
Mo	Mo	0.72890 0.86950 0.32448 1.22700
Na	Na	0.67790 0.53440 0.25830 0.58800
Na	Na	0.73370 0.46490 0.50100 0.58800
Na	Na	0.64190 0.87110 0.00840 0.58100
Na	Na	0.89340 0.73210 0.26590 0.57100
O 	O 	0.48080 0.79090 0.93470 -0.31600
O 	O 	0.78425 0.70930 0.38320 -0.42700
O 	O 	0.70140 0.64100 0.31470 -0.44200
O 	O 	0.60630 0.71430 0.20000 -0.51700
O 	O 	0.60500 0.83360 0.13690 -0.43600
O 	O 	0.69723 0.77170 0.26760 -0.49500
O 	O 	0.75893 0.80779 0.47040 -0.55400
O 	O 	0.59878 0.58680 0.17620 -0.42800
O 	O 	0.70690 0.89400 0.19060 -0.42300
O 	O 	0.66506 0.74210 0.40700 -0.55300
O 	O 	0.53399 0.60140 0.96700 -0.37300
O 	O 	0.66919 0.86540 0.34360 -0.46500
O 	O 	0.75180 0.93500 0.40030 -0.42600
O 	O 	0.78721 0.83230 0.32460 -0.48800
O 	O 	0.87316 0.75940 0.43030 -0.45700
O 	O 	0.46270 0.55460 0.89040 -0.28100
O 	O 	0.54206 0.72400 0.98540 -0.36900
O 	O 	0.65450 0.51880 0.39880 -0.27100
O 	O 	0.75680 0.50440 0.37050 -0.26700
O 	O 	0.69970 0.56370 0.11070 -0.29200
O 	O 	0.81470 0.42170 0.59700 -0.27500
O 	O 	0.58740 0.80450 0.88400 -0.28700
N 	N 	0.51221 0.65960 0.12040 -0.07400
C 	C 	0.50470 0.74770 0.99320 0.39200
C 	C 	0.49080 0.72190 0.07910 -0.33200
H 	H 	0.50080 0.75110 0.13990 0.11100
H 	H 	0.45580 0.71840 0.04950 0.12600
C 	C 	0.48160 0.60550 0.05880 -0.33600
H 	H 	0.48720 0.57010 0.10820 0.15300
H 	H 	0.44780 0.61710 0.03270 0.12400
C 	C 	0.49200 0.58590 0.96350 0.40100
C 	C 	0.52270 0.65400 0.23930 -0.08500
H 	H 	0.54320 0.68870 0.27850 0.03500
H 	H 	0.54040 0.61540 0.26760 0.06200
Mo	Mo	0.77467 0.21006 0.12303 1.22000
Mo	Mo	0.91431 0.15243 0.40159 1.17500
Mo	Mo	0.66867 0.29776 0.03607 1.15400
Mo	Mo	0.87470 0.29944 0.23652 1.16300
Mo	Mo	0.77110 0.36950 0.17552 1.22700
Na	Na	0.82210 0.03440 0.24170 0.58800
Na	Na	0.76630 0.96490 0.99900 0.58800
Na	Na	0.85810 0.37110 0.49160 0.58100
Na	Na	0.60660 0.23210 0.23410 0.57100
O 	O 	0.01920 0.29090 0.56530 -0.31700
O 	O 	0.71575 0.20930 0.11680 -0.42700
O 	O 	0.79860 0.14100 0.18530 -0.44200
O 	O 	0.89370 0.21430 0.30000 -0.51700
O 	O 	0.89500 0.33360 0.36310 -0.43600
O 	O 	0.80277 0.27170 0.23240 -0.49500
O 	O 	0.74107 0.30779 0.02960 -0.55300
O 	O 	0.90122 0.08680 0.32380 -0.42800
O 	O 	0.79310 0.39400 0.30940 -0.42300
O 	O 	0.83494 0.24210 0.09300 -0.55300
O 	O 	0.96601 0.10140 0.53300 -0.37400
O 	O 	0.83081 0.36540 0.15640 -0.46500
O 	O 	0.74820 0.43500 0.09970 -0.42600
O 	O 	0.71279 0.33230 0.17540 -0.48800
O 	O 	0.62684 0.25940 0.06970 -0.45700
O 	O 	0.03730 0.05460 0.60960 -0.28100
O 	O 	0.95794 0.22400 0.51460 -0.36900
O 	O 	0.84550 0.01880 0.10120 -0.27100
O 	O 	0.74320 0.00440 0.12950 -0.26700
O 	O 	0.80030 0.06370 0.38930 -0.29200
O 	O 	0.68530 0.92170 0.90300 -0.27500
O 	O 	0.91260 0.30450 0.61600 -0.28700
N 	N 	0.98779 0.15960 0.37960 -0.07400
C 	C 	0.99530 0.24770 0.50680 0.39200
C 	C 	0.00920 0.22190 0.42090 -0.33300
H 	H 	0.99920 0.25110 0.36010 0.11000
H 	H 	0.04420 0.21840 0.45050 0.12600
C 	C 	0.01840 0.10550 0.44120 -0.33600
H 	H 	0.01280 0.07010 0.39180 0.15300
H 	H 	0.05220 0.11710 0.46730 0.12300
C 	C 	0.00800 0.08590 0.53650 0.40000
C 	C 	0.97730 0.15400 0.26070 -0.08500
H 	H 	0.95680 0.18870 0.22150 0.03500
H 	H 	0.95960 0.11540 0.23240 0.06200
Mo	Mo	0.27467 0.71006 0.12303 1.22000
Mo	Mo	0.41431 0.65243 0.40159 1.17500
Mo	Mo	0.16867 0.79776 0.03607 1.15400
Mo	Mo	0.37470 0.79944 0.23652 1.16300
Mo	Mo	0.27110 0.86950 0.17552 1.22700
Na	Na	0.32210 0.53440 0.24170 0.58800
Na	Na	0.26630 0.46490 0.99900 0.58800
Na	Na	0.35810 0.87110 0.49160 0.58100
Na	Na	0.10660 0.73210 0.23410 0.57100
O 	O 	0.51920 0.79090 0.56530 -0.31600
O 	O 	0.21575 0.70930 0.11680 -0.42700
O 	O 	0.29860 0.64100 0.18530 -0.44200
O 	O 	0.39370 0.71430 0.30000 -0.51700
O 	O 	0.39500 0.83360 0.36310 -0.43600
O 	O 	0.30277 0.77170 0.23240 -0.49500
O 	O 	0.24107 0.80779 0.02960 -0.55300
O 	O 	0.40122 0.58680 0.32380 -0.42800
O 	O 	0.29310 0.89400 0.30940 -0.42300
O 	O 	0.33494 0.74210 0.09300 -0.55300
O 	O 	0.46601 0.60140 0.53300 -0.37400
O 	O 	0.33081 0.86540 0.15640 -0.46500
O 	O 	0.24820 0.93500 0.09970 -0.42600
O 	O 	0.21279 0.83230 0.17540 -0.48800
O 	O 	0.12684 0.75940 0.06970 -0.45700
O 	O 	0.53730 0.55460 0.60960 -0.28100
O 	O 	0.45794 0.72400 0.51460 -0.36900
O 	O 	0.34550 0.51880 0.10120 -0.27000
O 	O 	0.24320 0.50440 0.12950 -0.26700
O 	O 	0.30030 0.56370 0.38930 -0.29200
O 	O 	0.18530 0.42170 0.90300 -0.27400
O 	O 	0.41260 0.80450 0.61600 -0.28700
N 	N 	0.48779 0.65960 0.37960 -0.07400
C 	C 	0.49530 0.74770 0.50680 0.39200
C 	C 	0.50920 0.72190 0.42090 -0.33200
H 	H 	0.49920 0.75110 0.36010 0.11100
H 	H 	0.54420 0.71840 0.45050 0.12600
C 	C 	0.51840 0.60550 0.44120 -0.33600
H 	H 	0.51280 0.57010 0.39180 0.15300
H 	H 	0.55220 0.61710 0.46730 0.12300
C 	C 	0.50800 0.58590 0.53650 0.40100
C 	C 	0.47730 0.65400 0.26070 -0.08500
H 	H 	0.45680 0.68870 0.22150 0.03500
H 	H 	0.45960 0.61540 0.23240 0.06200
Mo	Mo	0.77467 0.78994 0.62303 1.22000
Mo	Mo	0.91431 0.84757 0.90159 1.17500
Mo	Mo	0.66867 0.70224 0.53607 1.15400
Mo	Mo	0.87470 0.70056 0.73652 1.16300
Mo	Mo	0.77110 0.63050 0.67552 1.22700
Na	Na	0.82210 0.96560 0.74170 0.58800
Na	Na	0.76630 0.03510 0.49900 0.58800
Na	Na	0.85810 0.62890 0.99160 0.58100
Na	Na	0.60660 0.76790 0.73410 0.57100
O 	O 	0.01920 0.70910 0.06530 -0.31700
O 	O 	0.71575 0.79070 0.61680 -0.42700
O 	O 	0.79860 0.85900 0.68530 -0.44200
O 	O 	0.89370 0.78570 0.80000 -0.51800
O 	O 	0.89500 0.66640 0.86310 -0.43600
O 	O 	0.80277 0.72830 0.73240 -0.49500
O 	O 	0.74107 0.69221 0.52960 -0.55400
O 	O 	0.90122 0.91320 0.82380 -0.42800
O 	O 	0.79310 0.60600 0.80940 -0.42300
O 	O 	0.83494 0.75790 0.59300 -0.55300
O 	O 	0.96601 0.89860 0.03300 -0.37300
O 	O 	0.83081 0.63460 0.65640 -0.46500
O 	O 	0.74820 0.56500 0.59970 -0.42600
O 	O 	0.71279 0.66770 0.67540 -0.48800
O 	O 	0.62684 0.74060 0.56970 -0.45700
O 	O 	0.03730 0.94540 0.10960 -0.28100
O 	O 	0.95794 0.77600 0.01460 -0.36900
O 	O 	0.84550 0.98120 0.60120 -0.27100
O 	O 	0.74320 0.99560 0.62950 -0.26700
O 	O 	0.80030 0.93630 0.88930 -0.29200
O 	O 	0.68530 0.07830 0.40300 -0.27500
O 	O 	0.91260 0.69550 0.11600 -0.28700
N 	N 	0.98779 0.84040 0.87960 -0.07400
C 	C 	0.99530 0.75230 0.00680 0.39300
C 	C 	0.00920 0.77810 0.92090 -0.33200
H 	H 	0.99920 0.74890 0.86010 0.11000
H 	H 	0.04420 0.78160 0.95050 0.12600
C 	C 	0.01840 0.89450 0.94120 -0.33500
H 	H 	0.01280 0.92990 0.89180 0.15300
H 	H 	0.05220 0.88290 0.96730 0.12300
C 	C 	0.00800 0.91410 0.03650 0.39900
C 	C 	0.97730 0.84600 0.76070 -0.08600
H 	H 	0.95680 0.81130 0.72150 0.03500
H 	H 	0.95960 0.88460 0.73240 0.06200
Mo	Mo	0.27467 0.28994 0.62303 1.22000
Mo	Mo	0.41431 0.34757 0.90159 1.17500
Mo	Mo	0.16867 0.20224 0.53607 1.15400
Mo	Mo	0.37470 0.20056 0.73652 1.16300
Mo	Mo	0.27110 0.13050 0.67552 1.22700
Na	Na	0.32210 0.46560 0.74170 0.58800
Na	Na	0.26630 0.53510 0.49900 0.58800
Na	Na	0.35810 0.12890 0.99160 0.58100
Na	Na	0.10660 0.26790 0.73410 0.57100
O 	O 	0.51920 0.20910 0.06530 -0.31600
O 	O 	0.21575 0.29070 0.61680 -0.42700
O 	O 	0.29860 0.35900 0.68530 -0.44200
O 	O 	0.39370 0.28570 0.80000 -0.51700
O 	O 	0.39500 0.16640 0.86310 -0.43600
O 	O 	0.30277 0.22830 0.73240 -0.49500
O 	O 	0.24107 0.19221 0.52960 -0.55400
O 	O 	0.40122 0.41320 0.82380 -0.42800
O 	O 	0.29310 0.10600 0.80940 -0.42300
O 	O 	0.33494 0.25790 0.59300 -0.55300
O 	O 	0.46601 0.39860 0.03300 -0.37300
O 	O 	0.33081 0.13460 0.65640 -0.46500
O 	O 	0.24820 0.06500 0.59970 -0.42600
O 	O 	0.21279 0.16770 0.67540 -0.48800
O 	O 	0.12684 0.24060 0.56970 -0.45700
O 	O 	0.53730 0.44540 0.10960 -0.28100
O 	O 	0.45794 0.27600 0.01460 -0.36900
O 	O 	0.34550 0.48120 0.60120 -0.27100
O 	O 	0.24320 0.49560 0.62950 -0.26700
O 	O 	0.30030 0.43630 0.88930 -0.29200
O 	O 	0.18530 0.57830 0.40300 -0.27500
O 	O 	0.41260 0.19550 0.11600 -0.28700
N 	N 	0.48779 0.34040 0.87960 -0.07400
C 	C 	0.49530 0.25230 0.00680 0.39200
C 	C 	0.50920 0.27810 0.92090 -0.33200
H 	H 	0.49920 0.24890 0.86010 0.11100
H 	H 	0.54420 0.28160 0.95050 0.12600
C 	C 	0.51840 0.39450 0.94120 -0.33600
H 	H 	0.51280 0.42990 0.89180 0.15300
H 	H 	0.55220 0.38290 0.96730 0.12400
C 	C 	0.50800 0.41410 0.03650 0.40100
C 	C 	0.47730 0.34600 0.76070 -0.08500
H 	H 	0.45680 0.31130 0.72150 0.03500
H 	H 	0.45960 0.38460 0.73240 0.06200
Mo	Mo	0.22533 0.78994 0.87697 1.22000
Mo	Mo	0.08569 0.84757 0.59841 1.17500
Mo	Mo	0.33133 0.70224 0.96393 1.15400
Mo	Mo	0.12530 0.70056 0.76348 1.16300
Mo	Mo	0.22890 0.63050 0.82448 1.22700
Na	Na	0.17790 0.96560 0.75830 0.58800
Na	Na	0.23370 0.03510 0.00100 0.58800
Na	Na	0.14190 0.62890 0.50840 0.58100
Na	Na	0.39340 0.76790 0.76590 0.57100
O 	O 	0.98080 0.70910 0.43470 -0.31700
O 	O 	0.28425 0.79070 0.88320 -0.42700
O 	O 	0.20140 0.85900 0.81470 -0.44200
O 	O 	0.10630 0.78570 0.70000 -0.51700
O 	O 	0.10500 0.66640 0.63690 -0.43600
O 	O 	0.19723 0.72830 0.76760 -0.49500
O 	O 	0.25893 0.69221 0.97040 -0.55300
O 	O 	0.09878 0.91320 0.67620 -0.42800
O 	O 	0.20690 0.60600 0.69060 -0.42300
O 	O 	0.16506 0.75790 0.90700 -0.55300
O 	O 	0.03399 0.89860 0.46700 -0.37400
O 	O 	0.16919 0.63460 0.84360 -0.46500
O 	O 	0.25180 0.56500 0.90030 -0.42600
O 	O 	0.28721 0.66770 0.82460 -0.48800
O 	O 	0.37316 0.74060 0.93030 -0.45700
O 	O 	0.96270 0.94540 0.39040 -0.28100
O 	O 	0.04206 0.77600 0.48540 -0.36900
O 	O 	0.15450 0.98120 0.89880 -0.27100
O 	O 	0.25680 0.99560 0.87050 -0.26700
O 	O 	0.19970 0.93630 0.61070 -0.29200
O 	O 	0.31470 0.07830 0.09700 -0.27500
O 	O 	0.08740 0.69550 0.38400 -0.28700
N 	N 	0.01221 0.84040 0.62040 -0.07400
C 	C 	0.00470 0.75230 0.49320 0.39200
C 	C 	0.99080 0.77810 0.57910 -0.33300
H 	H 	0.00080 0.74890 0.63990 0.11000
H 	H 	0.95580 0.78160 0.54950 0.12600
C 	C 	0.98160 0.89450 0.55880 -0.33600
H 	H 	0.98720 0.92990 0.60820 0.15300
H 	H 	0.94780 0.88290 0.53270 0.12300
C 	C 	0.99200 0.91410 0.46350 0.40000
C 	C 	0.02270 0.84600 0.73930 -0.08500
H 	H 	0.04320 0.81130 0.77850 0.03500
H 	H 	0.04040 0.88460 0.76760 0.06200
Mo	Mo	0.72533 0.28994 0.87697 1.22000
Mo	Mo	0.58569 0.34757 0.59841 1.17500
Mo	Mo	0.83133 0.20224 0.96393 1.15400
Mo	Mo	0.62530 0.20056 0.76348 1.16300
Mo	Mo	0.72890 0.13050 0.82448 1.22700
Na	Na	0.67790 0.46560 0.75830 0.58800
Na	Na	0.73370 0.53510 0.00100 0.58800
Na	Na	0.64190 0.12890 0.50840 0.58100
Na	Na	0.89340 0.26790 0.76590 0.57100
O 	O 	0.48080 0.20910 0.43470 -0.31600
O 	O 	0.78425 0.29070 0.88320 -0.42700
O 	O 	0.70140 0.35900 0.81470 -0.44200
O 	O 	0.60630 0.28570 0.70000 -0.51700
O 	O 	0.60500 0.16640 0.63690 -0.43600
O 	O 	0.69723 0.22830 0.76760 -0.49500
O 	O 	0.75893 0.19221 0.97040 -0.55300
O 	O 	0.59878 0.41320 0.67620 -0.42800
O 	O 	0.70690 0.10600 0.69060 -0.42300
O 	O 	0.66506 0.25790 0.90700 -0.55300
O 	O 	0.53399 0.39860 0.46700 -0.37400
O 	O 	0.66919 0.13460 0.84360 -0.46500
O 	O 	0.75180 0.06500 0.90030 -0.42600
O 	O 	0.78721 0.16770 0.82460 -0.48800
O 	O 	0.87316 0.24060 0.93030 -0.45700
O 	O 	0.46270 0.44540 0.39040 -0.28100
O 	O 	0.54206 0.27600 0.48540 -0.36900
O 	O 	0.65450 0.48120 0.89880 -0.27000
O 	O 	0.75680 0.49560 0.87050 -0.26700
O 	O 	0.69970 0.43630 0.61070 -0.29200
O 	O 	0.81470 0.57830 0.09700 -0.27400
O 	O 	0.58740 0.19550 0.38400 -0.28700
N 	N 	0.51221 0.34040 0.62040 -0.07400
C 	C 	0.50470 0.25230 0.49320 0.39200
C 	C 	0.49080 0.27810 0.57910 -0.33200
H 	H 	0.50080 0.24890 0.63990 0.11100
H 	H 	0.45580 0.28160 0.54950 0.12600
C 	C 	0.48160 0.39450 0.55880 -0.33600
H 	H 	0.48720 0.42990 0.60820 0.15300
H 	H 	0.44780 0.38290 0.53270 0.12300
C 	C 	0.49200 0.41410 0.46350 0.40100
C 	C 	0.52270 0.34600 0.73930 -0.08500
H 	H 	0.54320 0.31130 0.77850 0.03500
H 	H 	0.54040 0.38460 0.76760 0.06200
