data_crystal

_cell_length_a 29.70200
_cell_length_b 29.70200
_cell_length_c 29.70200
_cell_angle_alpha 60.00000
_cell_angle_beta  60.00000
_cell_angle_gamma 60.00000

_symmetry_space_group_name_	'P 1'
_symmetry_space_group_name_H-M	'P 1'

loop_
_symmetry_equiv_pos_as_xyz
  x,y,z

loop_
_atom_site_label
_atom_site_type_symbol
_atom_site_fract_x
_atom_site_fract_y
_atom_site_fract_z
_atom_site_charge
Zn	Zn	0.86463 0.50000 0.13537 1.22600
Zn	Zn	0.76302 0.50000 0.23698 1.21900
Zn	Zn	0.50000 0.86463 0.50000 1.22600
Zn	Zn	0.50000 0.76302 0.50000 1.21900
Zn	Zn	0.13537 0.50000 0.86463 1.22600
Zn	Zn	0.23698 0.50000 0.76302 1.21900
Zn	Zn	0.50000 0.13537 0.50000 1.22600
Zn	Zn	0.50000 0.23698 0.50000 1.21900
Zn	Zn	0.86463 0.13537 0.50000 1.22600
Zn	Zn	0.76302 0.23698 0.50000 1.21900
Zn	Zn	0.50000 0.50000 0.13537 1.22600
Zn	Zn	0.50000 0.50000 0.23698 1.21900
Zn	Zn	0.13537 0.86463 0.50000 1.22600
Zn	Zn	0.23698 0.76302 0.50000 1.21900
Zn	Zn	0.50000 0.50000 0.86463 1.22600
Zn	Zn	0.50000 0.50000 0.76302 1.21900
Zn	Zn	0.86463 0.50000 0.50000 1.22600
Zn	Zn	0.76302 0.50000 0.50000 1.21900
Zn	Zn	0.50000 0.13537 0.86463 1.22600
Zn	Zn	0.50000 0.23698 0.76302 1.21900
Zn	Zn	0.13537 0.50000 0.50000 1.22600
Zn	Zn	0.23698 0.50000 0.50000 1.21900
Zn	Zn	0.50000 0.86463 0.13537 1.22600
Zn	Zn	0.50000 0.76302 0.23698 1.21900
H 	H 	0.80590 0.47710 0.04330 0.10500
H 	H 	0.47710 0.80590 0.67370 0.10500
H 	H 	0.04330 0.67370 0.80590 0.10500
H 	H 	0.67370 0.04330 0.47710 0.10500
H 	H 	0.80590 0.04330 0.67370 0.10500
H 	H 	0.47710 0.67370 0.04330 0.10500
H 	H 	0.04330 0.80590 0.47710 0.10400
H 	H 	0.67370 0.47710 0.80590 0.10400
H 	H 	0.80590 0.67370 0.47710 0.10400
H 	H 	0.47710 0.04330 0.80590 0.10400
H 	H 	0.04330 0.47710 0.67370 0.10400
H 	H 	0.67370 0.80590 0.04330 0.10400
H 	H 	0.52290 0.19410 0.95670 0.10400
H 	H 	0.19410 0.52290 0.32630 0.10400
H 	H 	0.32630 0.95670 0.19410 0.10400
H 	H 	0.95670 0.32630 0.52290 0.10400
H 	H 	0.95670 0.19410 0.32630 0.10400
H 	H 	0.32630 0.52290 0.95670 0.10400
H 	H 	0.19410 0.95670 0.52290 0.10400
H 	H 	0.52290 0.32630 0.19410 0.10400
H 	H 	0.32630 0.19410 0.52290 0.10400
H 	H 	0.95670 0.52290 0.19410 0.10400
H 	H 	0.52290 0.95670 0.32630 0.10400
H 	H 	0.19410 0.32630 0.95670 0.10400
H 	H 	0.19410 0.52290 0.95670 0.10400
H 	H 	0.52290 0.19410 0.32630 0.10400
H 	H 	0.95670 0.32630 0.19410 0.10400
H 	H 	0.32630 0.95670 0.52290 0.10400
H 	H 	0.19410 0.95670 0.32630 0.10400
H 	H 	0.52290 0.32630 0.95670 0.10400
H 	H 	0.95670 0.19410 0.52290 0.10400
H 	H 	0.32630 0.52290 0.19410 0.10400
H 	H 	0.19410 0.32630 0.52290 0.10400
H 	H 	0.52290 0.95670 0.19410 0.10400
H 	H 	0.95670 0.52290 0.32630 0.10400
H 	H 	0.32630 0.19410 0.95670 0.10400
H 	H 	0.47710 0.80590 0.04330 0.10400
H 	H 	0.80590 0.47710 0.67370 0.10400
H 	H 	0.67370 0.04330 0.80590 0.10400
H 	H 	0.04330 0.67370 0.47710 0.10400
H 	H 	0.04330 0.80590 0.67370 0.10400
H 	H 	0.67370 0.47710 0.04330 0.10400
H 	H 	0.80590 0.04330 0.47710 0.10400
H 	H 	0.47710 0.67370 0.80590 0.10400
H 	H 	0.67370 0.80590 0.47710 0.10400
H 	H 	0.04330 0.47710 0.80590 0.10400
H 	H 	0.47710 0.04330 0.67370 0.10400
H 	H 	0.80590 0.67370 0.04330 0.10400
H 	H 	0.66980 0.48300 0.17740 0.05100
H 	H 	0.48300 0.66980 0.66980 0.05100
H 	H 	0.17740 0.66980 0.66980 0.05100
H 	H 	0.66980 0.17740 0.48300 0.05100
H 	H 	0.66980 0.17740 0.66980 0.05100
H 	H 	0.48300 0.66980 0.17740 0.05100
H 	H 	0.17740 0.66980 0.48300 0.05100
H 	H 	0.66980 0.48300 0.66980 0.05100
H 	H 	0.66980 0.66980 0.48300 0.05100
H 	H 	0.48300 0.17740 0.66980 0.05100
H 	H 	0.17740 0.48300 0.66980 0.05100
H 	H 	0.66980 0.66980 0.17740 0.05100
H 	H 	0.51700 0.33020 0.82260 0.05100
H 	H 	0.33020 0.51700 0.33020 0.05100
H 	H 	0.33020 0.82260 0.33020 0.05100
H 	H 	0.82260 0.33020 0.51700 0.05100
H 	H 	0.82260 0.33020 0.33020 0.05100
H 	H 	0.33020 0.51700 0.82260 0.05100
H 	H 	0.33020 0.82260 0.51700 0.05100
H 	H 	0.51700 0.33020 0.33020 0.05100
H 	H 	0.33020 0.33020 0.51700 0.05100
H 	H 	0.82260 0.51700 0.33020 0.05100
H 	H 	0.51700 0.82260 0.33020 0.05100
H 	H 	0.33020 0.33020 0.82260 0.05100
C 	C 	0.77030 0.49070 0.13870 0.35300
C 	C 	0.74720 0.47860 0.11520 -0.05600
C 	C 	0.76990 0.47470 0.06390 -0.08200
C 	C 	0.76280 0.46280 0.94780 0.18500
C 	C 	0.79850 0.46330 0.89190 -0.02100
C 	C 	0.49070 0.77030 0.60030 0.35300
C 	C 	0.47860 0.74720 0.65900 -0.05500
C 	C 	0.47470 0.76990 0.69150 -0.08200
C 	C 	0.46280 0.76280 0.82660 0.18500
C 	C 	0.46330 0.79850 0.84630 -0.02100
C 	C 	0.13870 0.60030 0.77030 0.35300
C 	C 	0.11520 0.65900 0.74720 -0.05600
C 	C 	0.06390 0.69150 0.76990 -0.08100
C 	C 	0.94780 0.82660 0.76280 0.18500
C 	C 	0.89190 0.84630 0.79850 -0.02100
C 	C 	0.60030 0.13870 0.49070 0.35300
C 	C 	0.65900 0.11520 0.47860 -0.05600
C 	C 	0.69150 0.06390 0.47470 -0.08200
C 	C 	0.82660 0.94780 0.46280 0.18500
C 	C 	0.84630 0.89190 0.46330 -0.02100
C 	C 	0.77030 0.13870 0.60030 0.35300
C 	C 	0.74720 0.11520 0.65900 -0.05600
C 	C 	0.76990 0.06390 0.69150 -0.08100
C 	C 	0.76280 0.94780 0.82660 0.18500
C 	C 	0.79850 0.89190 0.84630 -0.02100
C 	C 	0.49070 0.60030 0.13870 0.35300
C 	C 	0.47860 0.65900 0.11520 -0.05600
C 	C 	0.47470 0.69150 0.06390 -0.08200
C 	C 	0.46280 0.82660 0.94780 0.18500
C 	C 	0.46330 0.84630 0.89190 -0.02100
C 	C 	0.13870 0.77030 0.49070 0.35300
C 	C 	0.11520 0.74720 0.47860 -0.05600
C 	C 	0.06390 0.76990 0.47470 -0.08200
C 	C 	0.94780 0.76280 0.46280 0.18500
C 	C 	0.89190 0.79850 0.46330 -0.02100
C 	C 	0.60030 0.49070 0.77030 0.35300
C 	C 	0.65900 0.47860 0.74720 -0.05500
C 	C 	0.69150 0.47470 0.76990 -0.08200
C 	C 	0.82660 0.46280 0.76280 0.18500
C 	C 	0.84630 0.46330 0.79850 -0.02100
C 	C 	0.77030 0.60030 0.49070 0.35300
C 	C 	0.74720 0.65900 0.47860 -0.05500
C 	C 	0.76990 0.69150 0.47470 -0.08200
C 	C 	0.76280 0.82660 0.46280 0.18500
C 	C 	0.79850 0.84630 0.46330 -0.02100
C 	C 	0.49070 0.13870 0.77030 0.35300
C 	C 	0.47860 0.11520 0.74720 -0.05600
C 	C 	0.47470 0.06390 0.76990 -0.08200
C 	C 	0.46280 0.94780 0.76280 0.18500
C 	C 	0.46330 0.89190 0.79850 -0.02100
C 	C 	0.13870 0.49070 0.60030 0.35300
C 	C 	0.11520 0.47860 0.65900 -0.05600
C 	C 	0.06390 0.47470 0.69150 -0.08200
C 	C 	0.94780 0.46280 0.82660 0.18500
C 	C 	0.89190 0.46330 0.84630 -0.02100
C 	C 	0.60030 0.77030 0.13870 0.35300
C 	C 	0.65900 0.74720 0.11520 -0.05600
C 	C 	0.69150 0.76990 0.06390 -0.08100
C 	C 	0.82660 0.76280 0.94780 0.18500
C 	C 	0.84630 0.79850 0.89190 -0.02100
C 	C 	0.50930 0.22970 0.86130 0.35300
C 	C 	0.52140 0.25280 0.88480 -0.05600
C 	C 	0.52530 0.23010 0.93610 -0.08200
C 	C 	0.53720 0.23720 0.05220 0.18500
C 	C 	0.53670 0.20150 0.10810 -0.02100
C 	C 	0.22970 0.50930 0.39970 0.35300
C 	C 	0.25280 0.52140 0.34100 -0.05500
C 	C 	0.23010 0.52530 0.30850 -0.08200
C 	C 	0.23720 0.53720 0.17340 0.18500
C 	C 	0.20150 0.53670 0.15370 -0.02100
C 	C 	0.39970 0.86130 0.22970 0.35300
C 	C 	0.34100 0.88480 0.25280 -0.05600
C 	C 	0.30850 0.93610 0.23010 -0.08100
C 	C 	0.17340 0.05220 0.23720 0.18500
C 	C 	0.15370 0.10810 0.20150 -0.02100
C 	C 	0.86130 0.39970 0.50930 0.35300
C 	C 	0.88480 0.34100 0.52140 -0.05600
C 	C 	0.93610 0.30850 0.52530 -0.08200
C 	C 	0.05220 0.17340 0.53720 0.18500
C 	C 	0.10810 0.15370 0.53670 -0.02100
C 	C 	0.86130 0.22970 0.39970 0.35300
C 	C 	0.88480 0.25280 0.34100 -0.05600
C 	C 	0.93610 0.23010 0.30850 -0.08100
C 	C 	0.05220 0.23720 0.17340 0.18500
C 	C 	0.10810 0.20150 0.15370 -0.02100
C 	C 	0.39970 0.50930 0.86130 0.35300
C 	C 	0.34100 0.52140 0.88480 -0.05600
C 	C 	0.30850 0.52530 0.93610 -0.08200
C 	C 	0.17340 0.53720 0.05220 0.18500
C 	C 	0.15370 0.53670 0.10810 -0.02100
C 	C 	0.22970 0.86130 0.50930 0.35300
C 	C 	0.25280 0.88480 0.52140 -0.05600
C 	C 	0.23010 0.93610 0.52530 -0.08200
C 	C 	0.23720 0.05220 0.53720 0.18500
C 	C 	0.20150 0.10810 0.53670 -0.02100
C 	C 	0.50930 0.39970 0.22970 0.35300
C 	C 	0.52140 0.34100 0.25280 -0.05500
C 	C 	0.52530 0.30850 0.23010 -0.08200
C 	C 	0.53720 0.17340 0.23720 0.18500
C 	C 	0.53670 0.15370 0.20150 -0.02100
C 	C 	0.39970 0.22970 0.50930 0.35300
C 	C 	0.34100 0.25280 0.52140 -0.05500
C 	C 	0.30850 0.23010 0.52530 -0.08200
C 	C 	0.17340 0.23720 0.53720 0.18500
C 	C 	0.15370 0.20150 0.53670 -0.02100
C 	C 	0.86130 0.50930 0.22970 0.35300
C 	C 	0.88480 0.52140 0.25280 -0.05600
C 	C 	0.93610 0.52530 0.23010 -0.08200
C 	C 	0.05220 0.53720 0.23720 0.18500
C 	C 	0.10810 0.53670 0.20150 -0.02100
C 	C 	0.50930 0.86130 0.39970 0.35300
C 	C 	0.52140 0.88480 0.34100 -0.05600
C 	C 	0.52530 0.93610 0.30850 -0.08200
C 	C 	0.53720 0.05220 0.17340 0.18500
C 	C 	0.53670 0.10810 0.15370 -0.02100
C 	C 	0.22970 0.39970 0.86130 0.35300
C 	C 	0.25280 0.34100 0.88480 -0.05600
C 	C 	0.23010 0.30850 0.93610 -0.08100
C 	C 	0.23720 0.17340 0.05220 0.18500
C 	C 	0.20150 0.15370 0.10810 -0.02100
C 	C 	0.22970 0.50930 0.86130 0.35300
C 	C 	0.25280 0.52140 0.88480 -0.05600
C 	C 	0.23010 0.52530 0.93610 -0.08200
C 	C 	0.23720 0.53720 0.05220 0.18500
C 	C 	0.20150 0.53670 0.10810 -0.02100
C 	C 	0.50930 0.22970 0.39970 0.35300
C 	C 	0.52140 0.25280 0.34100 -0.05500
C 	C 	0.52530 0.23010 0.30850 -0.08200
C 	C 	0.53720 0.23720 0.17340 0.18500
C 	C 	0.53670 0.20150 0.15370 -0.02100
C 	C 	0.86130 0.39970 0.22970 0.35300
C 	C 	0.88480 0.34100 0.25280 -0.05600
C 	C 	0.93610 0.30850 0.23010 -0.08100
C 	C 	0.05220 0.17340 0.23720 0.18500
C 	C 	0.10810 0.15370 0.20150 -0.02100
C 	C 	0.39970 0.86130 0.50930 0.35300
C 	C 	0.34100 0.88480 0.52140 -0.05600
C 	C 	0.30850 0.93610 0.52530 -0.08200
C 	C 	0.17340 0.05220 0.53720 0.18500
C 	C 	0.15370 0.10810 0.53670 -0.02100
C 	C 	0.22970 0.86130 0.39970 0.35300
C 	C 	0.25280 0.88480 0.34100 -0.05600
C 	C 	0.23010 0.93610 0.30850 -0.08100
C 	C 	0.23720 0.05220 0.17340 0.18500
C 	C 	0.20150 0.10810 0.15370 -0.02100
C 	C 	0.50930 0.39970 0.86130 0.35300
C 	C 	0.52140 0.34100 0.88480 -0.05600
C 	C 	0.52530 0.30850 0.93610 -0.08200
C 	C 	0.53720 0.17340 0.05220 0.18500
C 	C 	0.53670 0.15370 0.10810 -0.02100
C 	C 	0.86130 0.22970 0.50930 0.35300
C 	C 	0.88480 0.25280 0.52140 -0.05600
C 	C 	0.93610 0.23010 0.52530 -0.08200
C 	C 	0.05220 0.23720 0.53720 0.18500
C 	C 	0.10810 0.20150 0.53670 -0.02100
C 	C 	0.39970 0.50930 0.22970 0.35300
C 	C 	0.34100 0.52140 0.25280 -0.05500
C 	C 	0.30850 0.52530 0.23010 -0.08200
C 	C 	0.17340 0.53720 0.23720 0.18500
C 	C 	0.15370 0.53670 0.20150 -0.02100
C 	C 	0.22970 0.39970 0.50930 0.35300
C 	C 	0.25280 0.34100 0.52140 -0.05500
C 	C 	0.23010 0.30850 0.52530 -0.08200
C 	C 	0.23720 0.17340 0.53720 0.18500
C 	C 	0.20150 0.15370 0.53670 -0.02100
C 	C 	0.50930 0.86130 0.22970 0.35300
C 	C 	0.52140 0.88480 0.25280 -0.05600
C 	C 	0.52530 0.93610 0.23010 -0.08200
C 	C 	0.53720 0.05220 0.23720 0.18500
C 	C 	0.53670 0.10810 0.20150 -0.02100
C 	C 	0.86130 0.50930 0.39970 0.35300
C 	C 	0.88480 0.52140 0.34100 -0.05600
C 	C 	0.93610 0.52530 0.30850 -0.08200
C 	C 	0.05220 0.53720 0.17340 0.18500
C 	C 	0.10810 0.53670 0.15370 -0.02100
C 	C 	0.39970 0.22970 0.86130 0.35300
C 	C 	0.34100 0.25280 0.88480 -0.05600
C 	C 	0.30850 0.23010 0.93610 -0.08100
C 	C 	0.17340 0.23720 0.05220 0.18500
C 	C 	0.15370 0.20150 0.10810 -0.02100
C 	C 	0.49070 0.77030 0.13870 0.35300
C 	C 	0.47860 0.74720 0.11520 -0.05600
C 	C 	0.47470 0.76990 0.06390 -0.08200
C 	C 	0.46280 0.76280 0.94780 0.18500
C 	C 	0.46330 0.79850 0.89190 -0.02100
C 	C 	0.77030 0.49070 0.60030 0.35300
C 	C 	0.74720 0.47860 0.65900 -0.05500
C 	C 	0.76990 0.47470 0.69150 -0.08200
C 	C 	0.76280 0.46280 0.82660 0.18500
C 	C 	0.79850 0.46330 0.84630 -0.02100
C 	C 	0.60030 0.13870 0.77030 0.35300
C 	C 	0.65900 0.11520 0.74720 -0.05600
C 	C 	0.69150 0.06390 0.76990 -0.08100
C 	C 	0.82660 0.94780 0.76280 0.18500
C 	C 	0.84630 0.89190 0.79850 -0.02100
C 	C 	0.13870 0.60030 0.49070 0.35300
C 	C 	0.11520 0.65900 0.47860 -0.05600
C 	C 	0.06390 0.69150 0.47470 -0.08200
C 	C 	0.94780 0.82660 0.46280 0.18500
C 	C 	0.89190 0.84630 0.46330 -0.02100
C 	C 	0.13870 0.77030 0.60030 0.35300
C 	C 	0.11520 0.74720 0.65900 -0.05600
C 	C 	0.06390 0.76990 0.69150 -0.08100
C 	C 	0.94780 0.76280 0.82660 0.18500
C 	C 	0.89190 0.79850 0.84630 -0.02100
C 	C 	0.60030 0.49070 0.13870 0.35300
C 	C 	0.65900 0.47860 0.11520 -0.05600
C 	C 	0.69150 0.47470 0.06390 -0.08200
C 	C 	0.82660 0.46280 0.94780 0.18500
C 	C 	0.84630 0.46330 0.89190 -0.02100
C 	C 	0.77030 0.13870 0.49070 0.35300
C 	C 	0.74720 0.11520 0.47860 -0.05600
C 	C 	0.76990 0.06390 0.47470 -0.08200
C 	C 	0.76280 0.94780 0.46280 0.18500
C 	C 	0.79850 0.89190 0.46330 -0.02100
C 	C 	0.49070 0.60030 0.77030 0.35300
C 	C 	0.47860 0.65900 0.74720 -0.05500
C 	C 	0.47470 0.69150 0.76990 -0.08200
C 	C 	0.46280 0.82660 0.76280 0.18500
C 	C 	0.46330 0.84630 0.79850 -0.02100
C 	C 	0.60030 0.77030 0.49070 0.35300
C 	C 	0.65900 0.74720 0.47860 -0.05500
C 	C 	0.69150 0.76990 0.47470 -0.08200
C 	C 	0.82660 0.76280 0.46280 0.18500
C 	C 	0.84630 0.79850 0.46330 -0.02100
C 	C 	0.13870 0.49070 0.77030 0.35300
C 	C 	0.11520 0.47860 0.74720 -0.05600
C 	C 	0.06390 0.47470 0.76990 -0.08200
C 	C 	0.94780 0.46280 0.76280 0.18500
C 	C 	0.89190 0.46330 0.79850 -0.02100
C 	C 	0.49070 0.13870 0.60030 0.35300
C 	C 	0.47860 0.11520 0.65900 -0.05600
C 	C 	0.47470 0.06390 0.69150 -0.08200
C 	C 	0.46280 0.94780 0.82660 0.18500
C 	C 	0.46330 0.89190 0.84630 -0.02100
C 	C 	0.77030 0.60030 0.13870 0.35300
C 	C 	0.74720 0.65900 0.11520 -0.05600
C 	C 	0.76990 0.69150 0.06390 -0.08100
C 	C 	0.76280 0.82660 0.94780 0.18500
C 	C 	0.79850 0.84630 0.89190 -0.02100
C 	C 	0.74670 0.46750 0.03910 0.14000
C 	C 	0.68900 0.48060 0.14140 0.00300
C 	C 	0.46750 0.74670 0.74670 0.14100
C 	C 	0.48060 0.68900 0.68900 0.00300
C 	C 	0.03910 0.74670 0.74670 0.13900
C 	C 	0.14140 0.68900 0.68900 0.00300
C 	C 	0.74670 0.03910 0.46750 0.14000
C 	C 	0.68900 0.14140 0.48060 0.00300
C 	C 	0.74670 0.03910 0.74670 0.13900
C 	C 	0.68900 0.14140 0.68900 0.00300
C 	C 	0.46750 0.74670 0.03910 0.14000
C 	C 	0.48060 0.68900 0.14140 0.00300
C 	C 	0.03910 0.74670 0.46750 0.14000
C 	C 	0.14140 0.68900 0.48060 0.00300
C 	C 	0.74670 0.46750 0.74670 0.14100
C 	C 	0.68900 0.48060 0.68900 0.00300
C 	C 	0.74670 0.74670 0.46750 0.14100
C 	C 	0.68900 0.68900 0.48060 0.00300
C 	C 	0.46750 0.03910 0.74670 0.14000
C 	C 	0.48060 0.14140 0.68900 0.00300
C 	C 	0.03910 0.46750 0.74670 0.14000
C 	C 	0.14140 0.48060 0.68900 0.00300
C 	C 	0.74670 0.74670 0.03910 0.13900
C 	C 	0.68900 0.68900 0.14140 0.00300
C 	C 	0.53250 0.25330 0.96090 0.14000
C 	C 	0.51940 0.31100 0.85860 0.00300
C 	C 	0.25330 0.53250 0.25330 0.14100
C 	C 	0.31100 0.51940 0.31100 0.00300
C 	C 	0.25330 0.96090 0.25330 0.13900
C 	C 	0.31100 0.85860 0.31100 0.00300
C 	C 	0.96090 0.25330 0.53250 0.14000
C 	C 	0.85860 0.31100 0.51940 0.00300
C 	C 	0.96090 0.25330 0.25330 0.13900
C 	C 	0.85860 0.31100 0.31100 0.00300
C 	C 	0.25330 0.53250 0.96090 0.14000
C 	C 	0.31100 0.51940 0.85860 0.00300
C 	C 	0.25330 0.96090 0.53250 0.14000
C 	C 	0.31100 0.85860 0.51940 0.00300
C 	C 	0.53250 0.25330 0.25330 0.14100
C 	C 	0.51940 0.31100 0.31100 0.00300
C 	C 	0.25330 0.25330 0.53250 0.14100
C 	C 	0.31100 0.31100 0.51940 0.00300
C 	C 	0.96090 0.53250 0.25330 0.14000
C 	C 	0.85860 0.51940 0.31100 0.00300
C 	C 	0.53250 0.96090 0.25330 0.14000
C 	C 	0.51940 0.85860 0.31100 0.00300
C 	C 	0.25330 0.25330 0.96090 0.13900
C 	C 	0.31100 0.31100 0.85860 0.00300
N 	N 	0.77570 0.46390 0.98470 -0.16800
N 	N 	0.46390 0.77570 0.77570 -0.16800
N 	N 	0.98470 0.77570 0.77570 -0.16700
N 	N 	0.77570 0.98470 0.46390 -0.16800
N 	N 	0.77570 0.98470 0.77570 -0.16700
N 	N 	0.46390 0.77570 0.98470 -0.16800
N 	N 	0.98470 0.77570 0.46390 -0.16800
N 	N 	0.77570 0.46390 0.77570 -0.16800
N 	N 	0.77570 0.77570 0.46390 -0.16800
N 	N 	0.46390 0.98470 0.77570 -0.16800
N 	N 	0.98470 0.46390 0.77570 -0.16800
N 	N 	0.77570 0.77570 0.98470 -0.16700
N 	N 	0.53610 0.22430 0.01530 -0.16800
N 	N 	0.22430 0.53610 0.22430 -0.16800
N 	N 	0.22430 0.01530 0.22430 -0.16700
N 	N 	0.01530 0.22430 0.53610 -0.16800
N 	N 	0.01530 0.22430 0.22430 -0.16700
N 	N 	0.22430 0.53610 0.01530 -0.16800
N 	N 	0.22430 0.01530 0.53610 -0.16800
N 	N 	0.53610 0.22430 0.22430 -0.16800
N 	N 	0.22430 0.22430 0.53610 -0.16800
N 	N 	0.01530 0.53610 0.22430 -0.16800
N 	N 	0.53610 0.01530 0.22430 -0.16800
N 	N 	0.22430 0.22430 0.01530 -0.16700
O 	O 	0.82008 0.48632 0.11640 -0.46200
O 	O 	0.74356 0.48804 0.19196 -0.45800
O 	O 	0.71730 0.45430 0.97310 -0.18800
O 	O 	0.48632 0.82008 0.57720 -0.46200
O 	O 	0.48804 0.74356 0.57644 -0.45800
O 	O 	0.45430 0.71730 0.85530 -0.18800
O 	O 	0.11640 0.57720 0.82008 -0.46200
O 	O 	0.19196 0.57644 0.74356 -0.45800
O 	O 	0.97310 0.85530 0.71730 -0.18800
O 	O 	0.57720 0.11640 0.48632 -0.46200
O 	O 	0.57644 0.19196 0.48804 -0.45800
O 	O 	0.85530 0.97310 0.45430 -0.18800
O 	O 	0.82008 0.11640 0.57720 -0.46200
O 	O 	0.74356 0.19196 0.57644 -0.45800
O 	O 	0.71730 0.97310 0.85530 -0.18800
O 	O 	0.48632 0.57720 0.11640 -0.46200
O 	O 	0.48804 0.57644 0.19196 -0.45800
O 	O 	0.45430 0.85530 0.97310 -0.18800
O 	O 	0.11640 0.82008 0.48632 -0.46200
O 	O 	0.19196 0.74356 0.48804 -0.45800
O 	O 	0.97310 0.71730 0.45430 -0.18800
O 	O 	0.57720 0.48632 0.82008 -0.46200
O 	O 	0.57644 0.48804 0.74356 -0.45800
O 	O 	0.85530 0.45430 0.71730 -0.18800
O 	O 	0.82008 0.57720 0.48632 -0.46200
O 	O 	0.74356 0.57644 0.48804 -0.45800
O 	O 	0.71730 0.85530 0.45430 -0.18800
O 	O 	0.48632 0.11640 0.82008 -0.46200
O 	O 	0.48804 0.19196 0.74356 -0.45800
O 	O 	0.45430 0.97310 0.71730 -0.18800
O 	O 	0.11640 0.48632 0.57720 -0.46200
O 	O 	0.19196 0.48804 0.57644 -0.45800
O 	O 	0.97310 0.45430 0.85530 -0.18800
O 	O 	0.57720 0.82008 0.11640 -0.46200
O 	O 	0.57644 0.74356 0.19196 -0.45800
O 	O 	0.85530 0.71730 0.97310 -0.18800
O 	O 	0.51368 0.17992 0.88360 -0.46200
O 	O 	0.51196 0.25644 0.80804 -0.45800
O 	O 	0.54570 0.28270 0.02690 -0.18800
O 	O 	0.17992 0.51368 0.42280 -0.46200
O 	O 	0.25644 0.51196 0.42356 -0.45800
O 	O 	0.28270 0.54570 0.14470 -0.18800
O 	O 	0.42280 0.88360 0.17992 -0.46200
O 	O 	0.42356 0.80804 0.25644 -0.45800
O 	O 	0.14470 0.02690 0.28270 -0.18800
O 	O 	0.88360 0.42280 0.51368 -0.46200
O 	O 	0.80804 0.42356 0.51196 -0.45800
O 	O 	0.02690 0.14470 0.54570 -0.18800
O 	O 	0.88360 0.17992 0.42280 -0.46200
O 	O 	0.80804 0.25644 0.42356 -0.45800
O 	O 	0.02690 0.28270 0.14470 -0.18800
O 	O 	0.42280 0.51368 0.88360 -0.46200
O 	O 	0.42356 0.51196 0.80804 -0.45800
O 	O 	0.14470 0.54570 0.02690 -0.18800
O 	O 	0.17992 0.88360 0.51368 -0.46200
O 	O 	0.25644 0.80804 0.51196 -0.45800
O 	O 	0.28270 0.02690 0.54570 -0.18800
O 	O 	0.51368 0.42280 0.17992 -0.46200
O 	O 	0.51196 0.42356 0.25644 -0.45800
O 	O 	0.54570 0.14470 0.28270 -0.18800
O 	O 	0.42280 0.17992 0.51368 -0.46200
O 	O 	0.42356 0.25644 0.51196 -0.45800
O 	O 	0.14470 0.28270 0.54570 -0.18800
O 	O 	0.88360 0.51368 0.17992 -0.46200
O 	O 	0.80804 0.51196 0.25644 -0.45800
O 	O 	0.02690 0.54570 0.28270 -0.18800
O 	O 	0.51368 0.88360 0.42280 -0.46200
O 	O 	0.51196 0.80804 0.42356 -0.45800
O 	O 	0.54570 0.02690 0.14470 -0.18800
O 	O 	0.17992 0.42280 0.88360 -0.46200
O 	O 	0.25644 0.42356 0.80804 -0.45800
O 	O 	0.28270 0.14470 0.02690 -0.18800
O 	O 	0.17992 0.51368 0.88360 -0.46200
O 	O 	0.25644 0.51196 0.80804 -0.45800
O 	O 	0.28270 0.54570 0.02690 -0.18800
O 	O 	0.51368 0.17992 0.42280 -0.46200
O 	O 	0.51196 0.25644 0.42356 -0.45800
O 	O 	0.54570 0.28270 0.14470 -0.18800
O 	O 	0.88360 0.42280 0.17992 -0.46200
O 	O 	0.80804 0.42356 0.25644 -0.45800
O 	O 	0.02690 0.14470 0.28270 -0.18800
O 	O 	0.42280 0.88360 0.51368 -0.46200
O 	O 	0.42356 0.80804 0.51196 -0.45800
O 	O 	0.14470 0.02690 0.54570 -0.18800
O 	O 	0.17992 0.88360 0.42280 -0.46200
O 	O 	0.25644 0.80804 0.42356 -0.45800
O 	O 	0.28270 0.02690 0.14470 -0.18800
O 	O 	0.51368 0.42280 0.88360 -0.46200
O 	O 	0.51196 0.42356 0.80804 -0.45800
O 	O 	0.54570 0.14470 0.02690 -0.18800
O 	O 	0.88360 0.17992 0.51368 -0.46200
O 	O 	0.80804 0.25644 0.51196 -0.45800
O 	O 	0.02690 0.28270 0.54570 -0.18800
O 	O 	0.42280 0.51368 0.17992 -0.46200
O 	O 	0.42356 0.51196 0.25644 -0.45800
O 	O 	0.14470 0.54570 0.28270 -0.18800
O 	O 	0.17992 0.42280 0.51368 -0.46200
O 	O 	0.25644 0.42356 0.51196 -0.45800
O 	O 	0.28270 0.14470 0.54570 -0.18800
O 	O 	0.51368 0.88360 0.17992 -0.46200
O 	O 	0.51196 0.80804 0.25644 -0.45800
O 	O 	0.54570 0.02690 0.28270 -0.18800
O 	O 	0.88360 0.51368 0.42280 -0.46200
O 	O 	0.80804 0.51196 0.42356 -0.45800
O 	O 	0.02690 0.54570 0.14470 -0.18800
O 	O 	0.42280 0.17992 0.88360 -0.46200
O 	O 	0.42356 0.25644 0.80804 -0.45800
O 	O 	0.14470 0.28270 0.02690 -0.18800
O 	O 	0.48632 0.82008 0.11640 -0.46200
O 	O 	0.48804 0.74356 0.19196 -0.45800
O 	O 	0.45430 0.71730 0.97310 -0.18800
O 	O 	0.82008 0.48632 0.57720 -0.46200
O 	O 	0.74356 0.48804 0.57644 -0.45800
O 	O 	0.71730 0.45430 0.85530 -0.18800
O 	O 	0.57720 0.11640 0.82008 -0.46200
O 	O 	0.57644 0.19196 0.74356 -0.45800
O 	O 	0.85530 0.97310 0.71730 -0.18800
O 	O 	0.11640 0.57720 0.48632 -0.46200
O 	O 	0.19196 0.57644 0.48804 -0.45800
O 	O 	0.97310 0.85530 0.45430 -0.18800
O 	O 	0.11640 0.82008 0.57720 -0.46200
O 	O 	0.19196 0.74356 0.57644 -0.45800
O 	O 	0.97310 0.71730 0.85530 -0.18800
O 	O 	0.57720 0.48632 0.11640 -0.46200
O 	O 	0.57644 0.48804 0.19196 -0.45800
O 	O 	0.85530 0.45430 0.97310 -0.18800
O 	O 	0.82008 0.11640 0.48632 -0.46200
O 	O 	0.74356 0.19196 0.48804 -0.45800
O 	O 	0.71730 0.97310 0.45430 -0.18800
O 	O 	0.48632 0.57720 0.82008 -0.46200
O 	O 	0.48804 0.57644 0.74356 -0.45800
O 	O 	0.45430 0.85530 0.71730 -0.18800
O 	O 	0.57720 0.82008 0.48632 -0.46200
O 	O 	0.57644 0.74356 0.48804 -0.45800
O 	O 	0.85530 0.71730 0.45430 -0.18800
O 	O 	0.11640 0.48632 0.82008 -0.46200
O 	O 	0.19196 0.48804 0.74356 -0.45800
O 	O 	0.97310 0.45430 0.71730 -0.18800
O 	O 	0.48632 0.11640 0.57720 -0.46200
O 	O 	0.48804 0.19196 0.57644 -0.45800
O 	O 	0.45430 0.97310 0.85530 -0.18800
O 	O 	0.82008 0.57720 0.11640 -0.46200
O 	O 	0.74356 0.57644 0.19196 -0.45800
O 	O 	0.71730 0.85530 0.97310 -0.18800
