data_crystal

_cell_length_a 16.52000
_cell_length_b 34.60000
_cell_length_c 9.36100
_cell_angle_alpha 90.00000
_cell_angle_beta  112.40000
_cell_angle_gamma 90.00000

_symmetry_space_group_name_	'P 1'
_symmetry_space_group_name_H-M	'P 1'

loop_
_symmetry_equiv_pos_as_xyz
  x,y,z

loop_
_atom_site_label
_atom_site_type_symbol
_atom_site_fract_x
_atom_site_fract_y
_atom_site_fract_z
_atom_site_charge
N 	N 	0.88700 0.01600 0.83000 -0.19800
N 	N 	0.97200 0.94500 0.94500 -0.14500
C 	C 	0.82700 0.99000 0.72900 0.08700
C 	C 	0.82800 0.95300 0.72300 -0.08200
C 	C 	0.89500 0.92900 0.82100 0.08200
C 	C 	0.90400 0.88800 0.80800 -0.05300
C 	C 	0.98000 0.87600 0.93100 0.05700
C 	C 	0.02100 0.91300 0.99400 0.00800
C 	C 	0.09400 0.91600 0.15100 -0.12000
C 	C 	0.86100 0.05200 0.78500 0.08400
C 	C 	0.77800 0.05100 0.64800 -0.04300
C 	C 	0.75500 0.01700 0.62200 -0.03700
C 	C 	0.74400 0.93100 0.63100 0.02400
C 	C 	0.70000 0.90400 0.66700 -0.01300
C 	C 	0.62500 0.88200 0.56800 -0.11800
C 	C 	0.64900 0.92100 0.37700 0.00600
C 	C 	0.72400 0.94100 0.45800 -0.03200
C 	C 	0.13700 0.87600 0.20400 0.01000
C 	C 	0.18400 0.85100 0.16900 -0.06800
C 	C 	0.22100 0.81600 0.23500 -0.14400
C 	C 	0.15800 0.83100 0.41500 -0.07600
C 	C 	0.13100 0.86800 0.33700 -0.03400
N 	N 	0.60700 0.89300 0.40800 -0.25700
N 	N 	0.20500 0.80600 0.37000 -0.28300
N 	N 	0.38700 0.51600 0.83000 -0.20200
N 	N 	0.47200 0.44500 0.94500 -0.20700
C 	C 	0.32700 0.49000 0.72900 0.06300
C 	C 	0.32800 0.45300 0.72300 -0.07600
C 	C 	0.39500 0.42900 0.82100 0.06300
C 	C 	0.40400 0.38800 0.80800 -0.04300
C 	C 	0.48000 0.37600 0.93100 -0.04400
C 	C 	0.52100 0.41300 0.99400 0.13600
C 	C 	0.59400 0.41600 0.15100 -0.14400
C 	C 	0.36100 0.55200 0.78500 0.06700
C 	C 	0.27800 0.55100 0.64800 -0.04700
C 	C 	0.25500 0.51700 0.62200 -0.03000
C 	C 	0.24400 0.43100 0.63100 0.01700
C 	C 	0.20000 0.40400 0.66700 -0.01700
C 	C 	0.12500 0.38200 0.56800 -0.14000
C 	C 	0.14900 0.42100 0.37700 -0.00900
C 	C 	0.22400 0.44100 0.45800 -0.03700
C 	C 	0.63700 0.37600 0.20400 0.02800
C 	C 	0.68400 0.35100 0.16900 -0.06500
C 	C 	0.72100 0.31600 0.23500 -0.12600
C 	C 	0.65800 0.33100 0.41500 -0.06100
C 	C 	0.63100 0.36800 0.33700 -0.02600
N 	N 	0.10700 0.39300 0.40800 -0.26400
N 	N 	0.70500 0.30600 0.37000 -0.27900
N 	N 	0.11300 0.01600 0.67000 -0.22900
N 	N 	0.02800 0.94500 0.55500 -0.26800
C 	C 	0.17300 0.99000 0.77100 0.08500
C 	C 	0.17200 0.95300 0.77700 -0.09100
C 	C 	0.10500 0.92900 0.67900 0.05000
C 	C 	0.09600 0.88800 0.69200 -0.02900
C 	C 	0.02000 0.87600 0.56900 -0.16300
C 	C 	0.97900 0.91300 0.50600 0.20800
C 	C 	0.90600 0.91600 0.34900 -0.11100
C 	C 	0.13900 0.05200 0.71500 0.06200
C 	C 	0.22200 0.05100 0.85200 -0.02600
C 	C 	0.24500 0.01700 0.87800 -0.01800
C 	C 	0.25600 0.93100 0.86900 0.08500
C 	C 	0.30000 0.90400 0.83300 -0.04900
C 	C 	0.37500 0.88200 0.93200 -0.06400
C 	C 	0.35100 0.92100 0.12300 0.02000
C 	C 	0.27600 0.94100 0.04200 -0.10100
C 	C 	0.86300 0.87600 0.29600 0.03800
C 	C 	0.81600 0.85100 0.33100 -0.04200
C 	C 	0.77900 0.81600 0.26500 -0.12500
C 	C 	0.84200 0.83100 0.08500 -0.07800
C 	C 	0.86900 0.86800 0.16300 -0.02800
N 	N 	0.39300 0.89300 0.09200 -0.29100
N 	N 	0.79500 0.80600 0.13000 -0.28300
N 	N 	0.61300 0.51600 0.67000 -0.22000
N 	N 	0.52800 0.44500 0.55500 -0.21900
C 	C 	0.67300 0.49000 0.77100 0.06700
C 	C 	0.67200 0.45300 0.77700 -0.08400
C 	C 	0.60500 0.42900 0.67900 0.06100
C 	C 	0.59600 0.38800 0.69200 -0.03700
C 	C 	0.52000 0.37600 0.56900 -0.06100
C 	C 	0.47900 0.41300 0.50600 0.07900
C 	C 	0.40600 0.41600 0.34900 -0.09300
C 	C 	0.63900 0.55200 0.71500 0.08100
C 	C 	0.72200 0.55100 0.85200 -0.03000
C 	C 	0.74500 0.51700 0.87800 0.00700
C 	C 	0.75600 0.43100 0.86900 0.08600
C 	C 	0.80000 0.40400 0.83300 -0.04500
C 	C 	0.87500 0.38200 0.93200 -0.04000
C 	C 	0.85100 0.42100 0.12300 0.03700
C 	C 	0.77600 0.44100 0.04200 -0.10100
C 	C 	0.36300 0.37600 0.29600 0.02100
C 	C 	0.31600 0.35100 0.33100 -0.04500
C 	C 	0.27900 0.31600 0.26500 -0.14200
C 	C 	0.34200 0.33100 0.08500 -0.09200
C 	C 	0.36900 0.36800 0.16300 -0.03800
N 	N 	0.89300 0.39300 0.09200 -0.27900
N 	N 	0.29500 0.30600 0.13000 -0.28700
N 	N 	0.11300 0.98400 0.17000 -0.22300
N 	N 	0.02800 0.05500 0.05500 -0.27200
C 	C 	0.17300 0.01000 0.27100 0.03000
C 	C 	0.17200 0.04700 0.27700 -0.07500
C 	C 	0.10500 0.07100 0.17900 0.03400
C 	C 	0.09600 0.11200 0.19200 -0.04200
C 	C 	0.02000 0.12400 0.06900 -0.18000
C 	C 	0.97900 0.08700 0.00600 0.15100
C 	C 	0.90600 0.08400 0.84900 -0.04600
C 	C 	0.13900 0.94800 0.21500 0.07800
C 	C 	0.22200 0.94900 0.35200 -0.05100
C 	C 	0.24500 0.98300 0.37800 -0.00600
C 	C 	0.25600 0.06900 0.36900 0.01600
C 	C 	0.30000 0.09600 0.33300 -0.04200
C 	C 	0.37500 0.11800 0.43200 -0.13100
C 	C 	0.35100 0.07900 0.62300 0.02000
C 	C 	0.27600 0.05900 0.54200 -0.03900
C 	C 	0.86300 0.12400 0.79600 0.02600
C 	C 	0.81600 0.14900 0.83100 -0.01900
C 	C 	0.77900 0.18400 0.76500 -0.11000
C 	C 	0.84200 0.16900 0.58500 -0.05800
C 	C 	0.86900 0.13200 0.66300 -0.00900
N 	N 	0.39300 0.10700 0.59200 -0.25500
N 	N 	0.79500 0.19400 0.63000 -0.27800
N 	N 	0.61300 0.48400 0.17000 -0.23100
N 	N 	0.52800 0.55500 0.05500 -0.22200
C 	C 	0.67300 0.51000 0.27100 0.05400
C 	C 	0.67200 0.54700 0.27700 -0.08400
C 	C 	0.60500 0.57100 0.17900 0.05300
C 	C 	0.59600 0.61200 0.19200 -0.05200
C 	C 	0.52000 0.62400 0.06900 -0.07900
C 	C 	0.47900 0.58700 0.00600 0.02000
C 	C 	0.40600 0.58400 0.84900 -0.02600
C 	C 	0.63900 0.44800 0.21500 0.09400
C 	C 	0.72200 0.44900 0.35200 -0.04600
C 	C 	0.74500 0.48300 0.37800 -0.01300
C 	C 	0.75600 0.56900 0.36900 0.02500
C 	C 	0.80000 0.59600 0.33300 -0.03900
C 	C 	0.87500 0.61800 0.43200 -0.10400
C 	C 	0.85100 0.57900 0.62300 0.03800
C 	C 	0.77600 0.55900 0.54200 -0.03600
C 	C 	0.36300 0.62400 0.79600 0.00900
C 	C 	0.31600 0.64900 0.83100 -0.02200
C 	C 	0.27900 0.68400 0.76500 -0.12700
C 	C 	0.34200 0.66900 0.58500 -0.07200
C 	C 	0.36900 0.63200 0.66300 -0.01800
N 	N 	0.89300 0.60700 0.59200 -0.24300
N 	N 	0.29500 0.69400 0.63000 -0.28200
N 	N 	0.88700 0.98400 0.33000 -0.20000
N 	N 	0.97200 0.05500 0.44500 -0.15600
C 	C 	0.82700 0.01000 0.22900 0.03600
C 	C 	0.82800 0.04700 0.22300 -0.06800
C 	C 	0.89500 0.07100 0.32100 0.06700
C 	C 	0.90400 0.11200 0.30800 -0.06600
C 	C 	0.98000 0.12400 0.43100 0.04200
C 	C 	0.02100 0.08700 0.49400 -0.05300
C 	C 	0.09400 0.08400 0.65100 -0.05700
C 	C 	0.86100 0.94800 0.28500 0.10100
C 	C 	0.77800 0.94900 0.14800 -0.06700
C 	C 	0.75500 0.98300 0.12200 -0.02600
C 	C 	0.74400 0.06900 0.13100 -0.04300
C 	C 	0.70000 0.09600 0.16700 -0.00700
C 	C 	0.62500 0.11800 0.06800 -0.18600
C 	C 	0.64900 0.07900 0.87700 0.00600
C 	C 	0.72400 0.05900 0.95800 0.02900
C 	C 	0.13700 0.12400 0.70400 -0.00200
C 	C 	0.18400 0.14900 0.66900 -0.04600
C 	C 	0.22100 0.18400 0.73500 -0.12700
C 	C 	0.15800 0.16900 0.91500 -0.05300
C 	C 	0.13100 0.13200 0.83700 -0.01600
N 	N 	0.60700 0.10700 0.90800 -0.22100
N 	N 	0.20500 0.19400 0.87000 -0.27300
N 	N 	0.38700 0.48400 0.33000 -0.22200
N 	N 	0.47200 0.55500 0.44500 -0.21900
C 	C 	0.32700 0.51000 0.22900 0.05000
C 	C 	0.32800 0.54700 0.22300 -0.07700
C 	C 	0.39500 0.57100 0.32100 0.05500
C 	C 	0.40400 0.61200 0.30800 -0.05800
C 	C 	0.48000 0.62400 0.43100 -0.06200
C 	C 	0.52100 0.58700 0.49400 0.07700
C 	C 	0.59400 0.58400 0.65100 -0.08100
C 	C 	0.36100 0.44800 0.28500 0.08000
C 	C 	0.27800 0.44900 0.14800 -0.06400
C 	C 	0.25500 0.48300 0.12200 -0.05000
C 	C 	0.24400 0.56900 0.13100 -0.04300
C 	C 	0.20000 0.59600 0.16700 -0.01200
C 	C 	0.12500 0.61800 0.06800 -0.20500
C 	C 	0.14900 0.57900 0.87700 -0.00800
C 	C 	0.22400 0.55900 0.95800 0.02900
C 	C 	0.63700 0.62400 0.70400 0.01700
C 	C 	0.68400 0.64900 0.66900 -0.04300
C 	C 	0.72100 0.68400 0.73500 -0.10800
C 	C 	0.65800 0.66900 0.91500 -0.03900
C 	C 	0.63100 0.63200 0.83700 -0.00700
N 	N 	0.10700 0.60700 0.90800 -0.22700
N 	N 	0.70500 0.69400 0.87000 -0.26900
Cd	Cd	0.50000 0.14840 0.75000 1.08700
Cd	Cd	-0.00000 0.64840 0.75000 1.06600
Cd	Cd	0.50000 0.85160 0.25000 1.07400
Cd	Cd	0.00000 0.35160 0.25000 1.05200
Cd	Cd	0.25000 0.75000 0.50000 1.07000
Cd	Cd	0.75000 0.75000 -0.00000 1.06100
Cd	Cd	0.75000 0.25000 0.50000 1.07900
Cd	Cd	0.25000 0.25000 -0.00000 1.05200
Pd	Pd	-0.00000 0.00000 -0.00000 0.66800
Pd	Pd	0.50000 0.50000 -0.00000 0.71100
Pd	Pd	0.00000 0.00000 0.50000 0.70100
Pd	Pd	0.50000 0.50000 0.50000 0.74500
