data_crystal

_cell_length_a 11.34800
_cell_length_b 7.65200
_cell_length_c 7.04200
_cell_angle_alpha 90.00000
_cell_angle_beta  106.07000
_cell_angle_gamma 90.00000

_symmetry_space_group_name_	'P 1'
_symmetry_space_group_name_H-M	'P 1'

loop_
_symmetry_equiv_pos_as_xyz
  x,y,z

loop_
_atom_site_label
_atom_site_type_symbol
_atom_site_fract_x
_atom_site_fract_y
_atom_site_fract_z
_atom_site_charge
N 	N 	0.94170 0.22160 0.18830 -0.16200
C 	C 	0.96130 0.32850 0.30570 -0.08500
N 	N 	0.05830 0.22160 0.81170 -0.16900
C 	C 	0.03870 0.32850 0.69430 -0.32700
N 	N 	0.05830 0.77840 0.81170 -0.14300
C 	C 	0.03870 0.67150 0.69430 -0.31100
N 	N 	0.94170 0.77840 0.18830 -0.13700
C 	C 	0.96130 0.67150 0.30570 -0.07100
Cd	Cd	-0.00000 0.00000 -0.00000 1.06400
Ni	Ni	-0.00000 0.50000 0.50000 0.96100
N 	N 	0.19590 0.00000 0.21060 -0.28500
C 	C 	0.21120 0.00000 0.42730 -0.10200
C 	C 	0.34300 0.00000 0.54840 -0.00800
C 	C 	0.35880 0.00000 0.76870 -0.03300
C 	C 	0.49350 0.00000 0.88730 0.10800
N 	N 	0.80410 0.00000 0.78940 -0.15100
C 	C 	0.78880 0.00000 0.57270 0.03600
C 	C 	0.65700 -0.00000 0.45160 -0.01500
C 	C 	0.64120 0.00000 0.23130 -0.03200
C 	C 	0.50650 -0.00000 0.11270 -0.13800
