data_crystal

_cell_length_a 13.91290
_cell_length_b 14.27670
_cell_length_c 18.62300
_cell_angle_alpha 94.19100
_cell_angle_beta  90.00000
_cell_angle_gamma 90.00000

_symmetry_space_group_name_	'P 1'
_symmetry_space_group_name_H-M	'P 1'

loop_
_symmetry_equiv_pos_as_xyz
  x,y,z

loop_
_atom_site_label
_atom_site_type_symbol
_atom_site_fract_x
_atom_site_fract_y
_atom_site_fract_z
_atom_site_charge
Ca	Ca	0.70195 0.58458 0.37205 1.46600
Ca	Ca	0.29805 0.41542 0.62795 1.46600
Ca	Ca	0.20195 0.91542 0.12795 1.46500
Ca	Ca	0.79805 0.08458 0.87205 1.46500
Cd	Cd	0.54301 0.50258 0.22642 1.23400
Cd	Cd	0.95699 0.00258 0.72642 1.23100
Cd	Cd	0.45699 0.49742 0.77358 1.23400
Cd	Cd	0.04301 0.99742 0.27358 1.23100
H 	H 	0.78030 0.23650 0.24880 0.03400
H 	H 	0.82000 0.12900 0.43930 0.05500
H 	H 	0.68000 0.62900 0.93930 0.05600
H 	H 	0.18000 0.87100 0.56070 0.05500
H 	H 	0.91800 0.81510 0.02480 0.01100
H 	H 	0.14150 0.15410 0.07570 0.01600
H 	H 	0.19140 0.85120 0.45090 0.03100
H 	H 	0.84920 0.73620 0.22040 -0.00800
H 	H 	0.30860 0.35120 0.95090 0.03000
H 	H 	0.69140 0.64880 0.04910 0.03000
H 	H 	0.28030 0.26350 0.25120 0.03500
H 	H 	0.65080 0.23620 0.72040 -0.00800
H 	H 	0.80860 0.14880 0.54910 0.03100
H 	H 	0.08200 0.18490 0.97520 0.01100
H 	H 	0.15080 0.26380 0.77960 -0.00800
H 	H 	0.35850 0.65410 0.57570 0.01300
H 	H 	0.34920 0.76380 0.27960 -0.00800
H 	H 	0.71970 0.73650 0.74880 0.03500
H 	H 	0.85850 0.84590 0.92430 0.01600
H 	H 	0.41800 0.68490 0.47520 0.01200
H 	H 	0.58200 0.31510 0.52480 0.01200
H 	H 	0.64150 0.34590 0.42430 0.01300
H 	H 	0.32000 0.37100 0.06070 0.05600
H 	H 	0.21970 0.76350 0.75120 0.03400
C 	C 	0.31640 0.69860 0.59680 -0.04100
C 	C 	0.87740 0.78280 0.05409 0.01600
C 	C 	0.79900 0.73290 0.02343 -0.05100
C 	C 	0.52440 0.34630 0.65947 0.41600
C 	C 	0.72480 0.23540 0.44532 0.00100
C 	C 	0.26120 0.81710 0.35848 -0.15900
C 	C 	0.79600 0.80170 0.83047 -0.11900
C 	C 	0.18360 0.19860 0.09680 -0.04300
C 	C 	0.18570 0.82490 0.66000 -0.07800
C 	C 	0.19750 0.87290 0.31259 0.41200
C 	C 	0.23880 0.31710 0.85848 -0.16000
C 	C 	0.69750 0.62710 0.18741 0.41200
C 	C 	0.89540 0.78490 0.12735 -0.16000
C 	C 	0.81430 0.17510 0.34000 -0.07800
C 	C 	0.80250 0.12710 0.68741 0.41200
C 	C 	0.20920 0.82680 0.58778 -0.04700
C 	C 	0.65620 0.37280 0.28704 0.32800
C 	C 	0.97560 0.84630 0.15947 0.42300
C 	C 	0.76830 0.23760 0.29802 0.01200
C 	C 	0.25690 0.31670 0.93152 0.01800
C 	C 	0.66270 0.23490 0.67125 0.07800
C 	C 	0.89270 0.11150 0.30919 0.30100
C 	C 	0.77520 0.73540 0.94532 0.00500
C 	C 	0.60460 0.28490 0.62735 -0.15600
C 	C 	0.73880 0.18290 0.64152 -0.15900
C 	C 	0.15620 0.12720 0.21296 0.32700
C 	C 	0.73170 0.73760 0.79802 0.01000
C 	C 	0.70100 0.23290 0.52343 -0.04700
C 	C 	0.70920 0.67320 0.91222 -0.04900
C 	C 	0.34380 0.62720 0.71296 0.32800
C 	C 	0.33730 0.76510 0.32875 0.07800
C 	C 	0.76120 0.68290 0.14152 -0.16000
C 	C 	0.83730 0.73490 0.17125 0.08100
C 	C 	0.29080 0.32680 0.08778 -0.04900
C 	C 	0.23170 0.76240 0.70198 0.01200
C 	C 	0.84380 0.87280 0.78704 0.32700
C 	C 	0.22480 0.26460 0.05468 0.00500
C 	C 	0.10730 0.88850 0.69081 0.30100
C 	C 	0.30250 0.37290 0.81259 0.41200
C 	C 	0.29600 0.69830 0.66953 -0.12200
C 	C 	0.26830 0.26240 0.20198 0.01000
C 	C 	0.24310 0.81670 0.43152 0.01600
C 	C 	0.62260 0.28280 0.55409 0.01200
C 	C 	0.70400 0.30170 0.33047 -0.12200
C 	C 	0.20100 0.26710 0.97657 -0.05100
C 	C 	0.12260 0.21720 0.94591 0.01600
C 	C 	0.16270 0.26510 0.82875 0.08100
C 	C 	0.39270 0.38850 0.19081 0.30000
C 	C 	0.20400 0.19830 0.16953 -0.11900
C 	C 	0.29900 0.76710 0.47657 -0.04700
C 	C 	0.75690 0.18330 0.56848 0.01600
C 	C 	0.27520 0.76460 0.55468 0.00100
C 	C 	0.81640 0.80140 0.90320 -0.04300
C 	C 	0.68570 0.67510 0.84000 -0.07600
C 	C 	0.31430 0.32490 0.16000 -0.07600
C 	C 	0.79080 0.17320 0.41222 -0.04700
C 	C 	0.74310 0.68330 0.06848 0.01800
C 	C 	0.47560 0.65370 0.34053 0.41600
C 	C 	0.02440 0.15370 0.84053 0.42300
C 	C 	0.10460 0.21510 0.87265 -0.16000
C 	C 	0.37740 0.71720 0.44591 0.01200
C 	C 	0.60730 0.61150 0.80919 0.30000
C 	C 	0.39540 0.71510 0.37265 -0.15600
C 	C 	0.68360 0.30140 0.40320 -0.04100
O 	O 	0.91236 0.11098 0.24362 -0.35500
O 	O 	0.95658 0.13408 0.87989 -0.55900
O 	O 	0.64669 0.35836 0.22084 -0.37600
O 	O 	0.78934 0.13009 0.75380 -0.56700
O 	O 	0.03466 0.12609 0.77565 -0.46700
O 	O 	0.93607 0.06242 0.35190 -0.40100
O 	O 	0.85331 0.85836 0.72084 -0.37400
O 	O 	0.04342 0.86592 0.12011 -0.55900
O 	O 	0.87526 0.94785 0.82118 -0.58800
O 	O 	0.21066 0.86991 0.24620 -0.56700
O 	O 	0.45658 0.36592 0.62011 -0.55100
O 	O 	0.14669 0.14164 0.27916 -0.37400
O 	O 	0.35331 0.64164 0.77916 -0.37600
O 	O 	0.41236 0.38902 0.25638 -0.35400
O 	O 	0.37526 0.55215 0.67882 -0.59300
O 	O 	0.63311 0.57936 0.15469 -0.45600
O 	O 	0.12474 0.05215 0.17882 -0.58800
O 	O 	0.36689 0.42064 0.84531 -0.45600
O 	O 	0.08764 0.88902 0.75638 -0.35500
O 	O 	0.28934 0.36991 0.74620 -0.56500
O 	O 	0.58764 0.61098 0.74362 -0.35400
O 	O 	0.86689 0.07936 0.65469 -0.45800
O 	O 	0.43607 0.43758 0.14810 -0.40100
O 	O 	0.96534 0.87391 0.22435 -0.46700
O 	O 	0.54342 0.63408 0.37989 -0.55100
O 	O 	0.06393 0.93758 0.64810 -0.40100
O 	O 	0.56393 0.56242 0.85190 -0.40100
O 	O 	0.53466 0.37391 0.72435 -0.46800
O 	O 	0.13311 0.92064 0.34531 -0.45800
O 	O 	0.71066 0.63009 0.25380 -0.56500
O 	O 	0.46534 0.62609 0.27565 -0.46800
O 	O 	0.62474 0.44785 0.32118 -0.59300
