data_crystal

_cell_length_a 8.30100
_cell_length_b 11.14600
_cell_length_c 13.36300
_cell_angle_alpha 86.42700
_cell_angle_beta  84.12200
_cell_angle_gamma 83.57300

_symmetry_space_group_name_	'P 1'
_symmetry_space_group_name_H-M	'P 1'

loop_
_symmetry_equiv_pos_as_xyz
  x,y,z

loop_
_atom_site_label
_atom_site_type_symbol
_atom_site_fract_x
_atom_site_fract_y
_atom_site_fract_z
_atom_site_charge
Zn	Zn	0.94382 0.31197 0.79517 1.17800
C 	C 	0.57230 0.51150 0.97980 -0.12800
H 	H 	0.59460 0.59160 0.97110 0.09200
C 	C 	0.59290 0.29670 0.75610 -0.00400
H 	H 	0.55730 0.36950 0.78580 0.02200
C 	C 	0.49670 0.22400 0.72040 -0.00200
H 	H 	0.38410 0.23670 0.72060 0.00900
C 	C 	0.74920 0.14560 0.69730 0.08600
H 	H 	0.84070 0.09330 0.67770 -0.03400
C 	C 	0.54700 0.02460 0.63450 -0.04700
H 	H 	0.44380 0.00340 0.66770 0.03700
H 	H 	0.62730 0.95520 0.64190 0.04000
C 	C 	0.52980 0.05310 0.52420 -0.10800
H 	H 	0.63420 0.07030 0.49010 0.05500
H 	H 	0.45300 0.12450 0.51640 0.05500
C 	C 	0.09840 0.28790 0.99050 0.02500
H 	H 	0.06900 0.36910 0.00240 0.01400
C 	C 	0.17430 0.20710 0.05360 -0.01800
H 	H 	0.20700 0.22170 0.11580 0.04000
C 	C 	0.13020 0.11890 0.92000 0.09600
H 	H 	0.12810 0.05960 0.87430 -0.02800
C 	C 	0.27340 0.98360 0.04670 -0.04800
H 	H 	0.25530 0.92000 0.00410 0.05400
H 	H 	0.22410 0.96490 0.11400 0.03300
C 	C 	0.45490 0.98610 0.04990 -0.09800
H 	H 	0.47200 0.04620 0.09610 0.06500
H 	H 	0.50060 0.90810 0.07650 0.06700
C 	C 	0.12380 0.53240 0.75300 0.00500
H 	H 	0.10670 0.55190 0.82020 0.02100
C 	C 	0.20580 0.59450 0.67950 -0.00700
H 	H 	0.25620 0.66350 0.68660 0.03200
C 	C 	0.11910 0.44330 0.61730 0.09000
H 	H 	0.09920 0.38870 0.57130 -0.02900
C 	C 	0.27890 0.57290 0.49310 -0.04500
H 	H 	0.24010 0.65580 0.47450 0.03400
H 	H 	0.24900 0.52140 0.44360 0.03400
C 	C 	0.46520 0.56050 0.49300 -0.09700
H 	H 	0.51210 0.59430 0.42940 0.05900
H 	H 	0.49340 0.60730 0.54620 0.05700
C 	C 	0.70290 0.41490 0.94710 0.33600
O 	O 	0.80680 0.44720 0.87562 -0.43700
O 	O 	0.70300 0.31150 0.98539 -0.31000
N 	N 	0.75370 0.24700 0.74206 -0.27800
N 	N 	0.59690 0.12720 0.68363 -0.12400
N 	N 	0.07060 0.23250 0.90574 -0.27900
N 	N 	0.19390 0.09920 0.00802 -0.11800
N 	N 	0.06930 0.43570 0.71382 -0.27500
N 	N 	0.20150 0.53860 0.59340 -0.12200
Zn	Zn	0.05618 0.68803 0.20483 1.17800
C 	C 	0.42770 0.48850 0.02020 -0.12800
H 	H 	0.40540 0.40840 0.02890 0.09200
C 	C 	0.40710 0.70330 0.24390 -0.00400
H 	H 	0.44270 0.63050 0.21420 0.02200
C 	C 	0.50330 0.77600 0.27960 -0.00200
H 	H 	0.61590 0.76330 0.27940 0.00900
C 	C 	0.25080 0.85440 0.30270 0.08600
H 	H 	0.15930 0.90670 0.32230 -0.03400
C 	C 	0.45300 0.97540 0.36550 -0.04700
H 	H 	0.55620 0.99660 0.33230 0.03700
H 	H 	0.37270 0.04480 0.35810 0.04000
C 	C 	0.47020 0.94690 0.47580 -0.10800
H 	H 	0.36580 0.92970 0.50990 0.05500
H 	H 	0.54700 0.87550 0.48360 0.05500
C 	C 	0.90160 0.71210 0.00950 0.02500
H 	H 	0.93100 0.63090 0.99760 0.01400
C 	C 	0.82570 0.79290 0.94640 -0.01800
H 	H 	0.79300 0.77830 0.88420 0.04000
C 	C 	0.86980 0.88110 0.08000 0.09600
H 	H 	0.87190 0.94040 0.12570 -0.02800
C 	C 	0.72660 0.01640 0.95330 -0.04800
H 	H 	0.74470 0.08000 0.99590 0.05400
H 	H 	0.77590 0.03510 0.88600 0.03300
C 	C 	0.54510 0.01390 0.95010 -0.09800
H 	H 	0.52800 0.95380 0.90390 0.06500
H 	H 	0.49940 0.09190 0.92350 0.06700
C 	C 	0.87620 0.46760 0.24700 0.00500
H 	H 	0.89330 0.44810 0.17980 0.02100
C 	C 	0.79420 0.40550 0.32050 -0.00700
H 	H 	0.74380 0.33650 0.31340 0.03200
C 	C 	0.88090 0.55670 0.38270 0.09000
H 	H 	0.90080 0.61130 0.42870 -0.02900
C 	C 	0.72110 0.42710 0.50690 -0.04500
H 	H 	0.75990 0.34420 0.52550 0.03400
H 	H 	0.75100 0.47860 0.55640 0.03400
C 	C 	0.53480 0.43950 0.50700 -0.09700
H 	H 	0.48790 0.40570 0.57060 0.05900
H 	H 	0.50660 0.39270 0.45380 0.05700
C 	C 	0.29710 0.58510 0.05290 0.33600
O 	O 	0.19320 0.55280 0.12438 -0.43700
O 	O 	0.29700 0.68850 0.01461 -0.31000
N 	N 	0.24630 0.75300 0.25794 -0.27800
N 	N 	0.40310 0.87280 0.31637 -0.12400
N 	N 	0.92940 0.76750 0.09426 -0.27900
N 	N 	0.80610 0.90080 0.99198 -0.11800
N 	N 	0.93070 0.56430 0.28618 -0.27500
N 	N 	0.79850 0.46140 0.40660 -0.12200
