data_crystal

_cell_length_a 13.68080
_cell_length_b 12.63400
_cell_length_c 12.78300
_cell_angle_alpha 90.00000
_cell_angle_beta  116.98300
_cell_angle_gamma 90.00000

_symmetry_space_group_name_	'P 1'
_symmetry_space_group_name_H-M	'P 1'

loop_
_symmetry_equiv_pos_as_xyz
  x,y,z

loop_
_atom_site_label
_atom_site_type_symbol
_atom_site_fract_x
_atom_site_fract_y
_atom_site_fract_z
_atom_site_charge
F 	F 	0.18830 0.09190 0.12680 -0.59400
F 	F 	0.16710 0.40120 0.13710 -0.58700
Fe	Fe	0.17997 0.24552 0.12799 1.31900
Fe	Fe	0.69209 0.25117 0.30927 1.32400
Fe	Fe	0.26008 0.99938 0.04216 1.24000
Fe	Fe	0.25529 0.49893 0.28870 1.24300
O 	O 	0.20120 0.23040 0.29360 -0.34800
O 	O 	0.16290 0.23800 0.46790 -0.36700
O 	O 	0.34160 0.25240 0.18790 -0.35500
O 	O 	0.01990 0.23780 0.07280 -0.32900
O 	O 	0.31180 0.73330 0.84800 -0.37000
O 	O 	0.53530 0.22720 0.24030 -0.36100
O 	O 	0.29760 0.73910 0.03390 -0.36400
O 	O 	0.85410 0.22990 0.87870 -0.41400
F 	F 	0.32600 0.90270 0.19240 -0.60900
F 	F 	0.27510 0.59930 0.17920 -0.60900
O 	O 	0.32340 0.90950 0.94370 -0.48700
O 	O 	0.88350 0.08970 0.03600 -0.36000
O 	O 	0.40540 0.08010 0.13240 -0.33300
O 	O 	0.40900 0.43260 0.32650 -0.47300
O 	O 	0.20320 0.40720 0.38730 -0.52400
P 	P 	0.15290 0.29570 0.35840 0.53000
P 	P 	0.34810 0.79200 0.96190 0.54000
P 	P 	0.93560 0.16260 0.98110 0.54500
P 	P 	0.42260 0.19830 0.15280 0.46100
H 	H 	0.04800 0.30800 0.28900 -0.47500
H 	H 	0.45400 0.78150 0.02200 -0.45400
H 	H 	0.99000 0.10400 0.94000 -1.39100
H 	H 	0.40400 0.23400 0.04800 -0.02500
H 	H 	0.43500 0.41400 0.28300 0.31400
O 	O 	0.03000 0.30600 0.26900 0.39600
O 	O 	0.46800 0.76700 0.02300 0.41800
O 	O 	0.97200 0.10500 0.90300 1.50300
F 	F 	0.81170 0.59190 0.37320 -0.59700
F 	F 	0.83290 0.90120 0.36290 -0.58600
Fe	Fe	0.82003 0.74552 0.37201 1.32000
Fe	Fe	0.30791 0.75117 0.19073 1.32400
Fe	Fe	0.73992 0.49938 0.45784 1.24900
Fe	Fe	0.74471 0.99893 0.21130 1.24100
O 	O 	0.79880 0.73040 0.20640 -0.34800
O 	O 	0.83710 0.73800 0.03210 -0.36700
O 	O 	0.65840 0.75240 0.31210 -0.35600
O 	O 	0.98010 0.73780 0.42720 -0.33300
O 	O 	0.68820 0.23330 0.65200 -0.37100
O 	O 	0.46470 0.72720 0.25970 -0.36200
O 	O 	0.70240 0.23910 0.46610 -0.35700
O 	O 	0.14590 0.72990 0.62130 -0.41300
F 	F 	0.67400 0.40270 0.30760 -0.60700
F 	F 	0.72490 0.09930 0.32080 -0.60600
O 	O 	0.67660 0.40950 0.55630 -0.49300
O 	O 	0.11650 0.58970 0.46400 -0.37600
O 	O 	0.59460 0.58010 0.36760 -0.33900
O 	O 	0.59100 0.93260 0.17350 -0.47700
O 	O 	0.79680 0.90720 0.11270 -0.52600
P 	P 	0.84710 0.79570 0.14160 0.53000
P 	P 	0.65190 0.29200 0.53810 0.52900
P 	P 	0.06440 0.66260 0.51890 0.56000
P 	P 	0.57740 0.69830 0.34720 0.46100
H 	H 	0.95200 0.80800 0.21100 -0.47400
H 	H 	0.54600 0.28150 0.47800 -0.45000
H 	H 	0.01000 0.60400 0.56000 -1.38400
H 	H 	0.59600 0.73400 0.45200 -0.02700
H 	H 	0.56500 0.91400 0.21700 0.31400
O 	O 	0.97000 0.80600 0.23100 0.39600
O 	O 	0.53200 0.26700 0.47700 0.42100
O 	O 	0.02800 0.60500 0.59700 1.49800
F 	F 	0.81170 0.90810 0.87320 -0.59300
F 	F 	0.83290 0.59880 0.86290 -0.58600
Fe	Fe	0.82003 0.75448 0.87201 1.32000
Fe	Fe	0.30791 0.74883 0.69073 1.32500
Fe	Fe	0.73992 0.00062 0.95784 1.24000
Fe	Fe	0.74471 0.50107 0.71130 1.24300
O 	O 	0.79880 0.76960 0.70640 -0.34800
O 	O 	0.83710 0.76200 0.53210 -0.36700
O 	O 	0.65840 0.74760 0.81210 -0.35500
O 	O 	0.98010 0.76220 0.92720 -0.32900
O 	O 	0.68820 0.26670 0.15200 -0.37000
O 	O 	0.46470 0.77280 0.75970 -0.36100
O 	O 	0.70240 0.26090 0.96610 -0.36400
O 	O 	0.14590 0.77010 0.12130 -0.41400
F 	F 	0.67400 0.09730 0.80760 -0.60900
F 	F 	0.72490 0.40070 0.82080 -0.60900
O 	O 	0.67660 0.09050 0.05630 -0.48700
O 	O 	0.11650 0.91030 0.96400 -0.36000
O 	O 	0.59460 0.91990 0.86760 -0.33300
O 	O 	0.59100 0.56740 0.67350 -0.47300
O 	O 	0.79680 0.59280 0.61270 -0.52400
P 	P 	0.84710 0.70430 0.64160 0.53000
P 	P 	0.65190 0.20800 0.03810 0.54000
P 	P 	0.06440 0.83740 0.01890 0.54500
P 	P 	0.57740 0.80170 0.84720 0.46100
H 	H 	0.95200 0.69200 0.71100 -0.47500
H 	H 	0.54600 0.21850 0.97800 -0.45400
H 	H 	0.01000 0.89600 0.06000 -1.39100
H 	H 	0.59600 0.76600 0.95200 -0.02500
H 	H 	0.56500 0.58600 0.71700 0.31400
O 	O 	0.97000 0.69400 0.73100 0.39600
O 	O 	0.53200 0.23300 0.97700 0.41800
O 	O 	0.02800 0.89500 0.09700 1.50300
F 	F 	0.18830 0.40810 0.62680 -0.59700
F 	F 	0.16710 0.09880 0.63710 -0.58600
Fe	Fe	0.17997 0.25448 0.62799 1.32000
Fe	Fe	0.69209 0.24883 0.80927 1.32400
Fe	Fe	0.26008 0.50062 0.54216 1.24900
Fe	Fe	0.25529 0.00107 0.78870 1.24100
O 	O 	0.20120 0.26960 0.79360 -0.34800
O 	O 	0.16290 0.26200 0.96790 -0.36700
O 	O 	0.34160 0.24760 0.68790 -0.35600
O 	O 	0.01990 0.26220 0.57280 -0.33300
O 	O 	0.31180 0.76670 0.34800 -0.37100
O 	O 	0.53530 0.27280 0.74030 -0.36200
O 	O 	0.29760 0.76090 0.53390 -0.35700
O 	O 	0.85410 0.27010 0.37870 -0.41300
F 	F 	0.32600 0.59730 0.69240 -0.60700
F 	F 	0.27510 0.90070 0.67920 -0.60600
O 	O 	0.32340 0.59050 0.44370 -0.49300
O 	O 	0.88350 0.41030 0.53600 -0.37600
O 	O 	0.40540 0.41990 0.63240 -0.33900
O 	O 	0.40900 0.06740 0.82650 -0.47700
O 	O 	0.20320 0.09280 0.88730 -0.52600
P 	P 	0.15290 0.20430 0.85840 0.53000
P 	P 	0.34810 0.70800 0.46190 0.52900
P 	P 	0.93560 0.33740 0.48110 0.56000
P 	P 	0.42260 0.30170 0.65280 0.46100
H 	H 	0.04800 0.19200 0.78900 -0.47400
H 	H 	0.45400 0.71850 0.52200 -0.45000
H 	H 	0.99000 0.39600 0.44000 -1.38400
H 	H 	0.40400 0.26600 0.54800 -0.02700
H 	H 	0.43500 0.08600 0.78300 0.31400
O 	O 	0.03000 0.19400 0.76900 0.39600
O 	O 	0.46800 0.73300 0.52300 0.42100
O 	O 	0.97200 0.39500 0.40300 1.49800
