data_crystal

_cell_length_a 13.68230
_cell_length_b 12.60630
_cell_length_c 12.75350
_cell_angle_alpha 90.00000
_cell_angle_beta  116.98800
_cell_angle_gamma 90.00000

_symmetry_space_group_name_	'P 1'
_symmetry_space_group_name_H-M	'P 1'

loop_
_symmetry_equiv_pos_as_xyz
  x,y,z

loop_
_atom_site_label
_atom_site_type_symbol
_atom_site_fract_x
_atom_site_fract_y
_atom_site_fract_z
_atom_site_charge
F 	F 	0.18940 0.09120 0.12580 -0.59500
F 	F 	0.16700 0.40200 0.13890 -0.59200
Fe	Fe	0.18006 0.24542 0.12798 1.31700
Fe	Fe	0.69238 0.25105 0.30898 1.32700
Fe	Fe	0.26061 0.99931 0.04243 1.24400
Co	Co	0.25234 0.49943 0.28919 1.18800
O 	O 	0.20300 0.23060 0.29370 -0.35400
O 	O 	0.15930 0.23580 0.46490 -0.36800
O 	O 	0.34170 0.25290 0.18690 -0.35700
O 	O 	0.01950 0.23730 0.07310 -0.33400
O 	O 	0.31250 0.73210 0.84780 -0.36500
O 	O 	0.53600 0.22640 0.24140 -0.35700
O 	O 	0.29400 0.73730 0.03080 -0.35500
O 	O 	0.85480 0.22920 0.87780 -0.41000
F 	F 	0.32490 0.90290 0.19060 -0.60800
F 	F 	0.27570 0.59960 0.18160 -0.62100
O 	O 	0.32100 0.90940 0.94330 -0.51800
O 	O 	0.88200 0.08960 0.03550 -0.36100
O 	O 	0.40570 0.08040 0.13300 -0.35200
O 	O 	0.20330 0.40610 0.38890 -0.54300
P 	P 	0.15311 0.29538 0.35831 0.53500
P 	P 	0.34674 0.79149 0.96213 0.52800
P 	P 	0.93561 0.16221 0.98099 0.56300
P 	P 	0.42255 0.19829 0.15185 0.46400
H 	H 	0.04800 0.30800 0.28500 -0.48600
H 	H 	0.45400 0.78170 0.02500 -0.42700
H 	H 	0.99000 0.10200 0.94100 -1.32900
H 	H 	0.40800 0.23300 0.04900 -0.03600
O 	O 	0.02700 0.30600 0.26700 0.41300
O 	O 	0.46900 0.77500 0.02500 0.37300
O 	O 	0.97500 0.10300 0.90400 1.42600
F 	F 	0.81060 0.59120 0.37420 -0.60000
F 	F 	0.83300 0.90200 0.36110 -0.59300
Fe	Fe	0.81994 0.74542 0.37202 1.31500
Fe	Fe	0.30762 0.75105 0.19102 1.32500
Fe	Fe	0.73939 0.49931 0.45757 1.25300
Co	Co	0.74766 0.99943 0.21081 1.18500
O 	O 	0.79700 0.73060 0.20630 -0.35500
O 	O 	0.84070 0.73580 0.03510 -0.36900
O 	O 	0.65830 0.75290 0.31310 -0.35800
O 	O 	0.98050 0.73730 0.42690 -0.33900
O 	O 	0.68750 0.23210 0.65220 -0.36600
O 	O 	0.46400 0.72640 0.25860 -0.35800
O 	O 	0.70600 0.23730 0.46920 -0.34700
O 	O 	0.14520 0.72920 0.62220 -0.40900
F 	F 	0.67510 0.40290 0.30940 -0.60500
F 	F 	0.72430 0.09960 0.31840 -0.61800
O 	O 	0.67900 0.40940 0.55670 -0.52500
O 	O 	0.11800 0.58960 0.46450 -0.37800
O 	O 	0.59430 0.58040 0.36700 -0.35800
O 	O 	0.79670 0.90610 0.11110 -0.54500
P 	P 	0.84689 0.79538 0.14169 0.53500
P 	P 	0.65326 0.29149 0.53787 0.51600
P 	P 	0.06439 0.66221 0.51901 0.57900
P 	P 	0.57745 0.69829 0.34815 0.46400
H 	H 	0.95200 0.80800 0.21500 -0.48400
H 	H 	0.54600 0.28170 0.47500 -0.42200
H 	H 	0.01000 0.60200 0.55900 -1.32100
H 	H 	0.59200 0.73300 0.45100 -0.03800
O 	O 	0.97300 0.80600 0.23300 0.41200
O 	O 	0.53100 0.27500 0.47500 0.37600
O 	O 	0.02500 0.60300 0.59600 1.42000
F 	F 	0.81060 0.90880 0.87420 -0.59600
F 	F 	0.83300 0.59800 0.86110 -0.59300
Fe	Fe	0.81994 0.75458 0.87202 1.31600
Fe	Fe	0.30762 0.74895 0.69102 1.32600
Fe	Fe	0.73939 0.00069 0.95757 1.24400
Co	Co	0.74766 0.50057 0.71081 1.18800
O 	O 	0.79700 0.76940 0.70630 -0.35400
O 	O 	0.84070 0.76420 0.53510 -0.36800
O 	O 	0.65830 0.74710 0.81310 -0.35700
O 	O 	0.98050 0.76270 0.92690 -0.33400
O 	O 	0.68750 0.26790 0.15220 -0.36500
O 	O 	0.46400 0.77360 0.75860 -0.35700
O 	O 	0.70600 0.26270 0.96920 -0.35500
O 	O 	0.14520 0.77080 0.12220 -0.41000
F 	F 	0.67510 0.09710 0.80940 -0.60800
F 	F 	0.72430 0.40040 0.81840 -0.62100
O 	O 	0.67900 0.09060 0.05670 -0.51800
O 	O 	0.11800 0.91040 0.96450 -0.36100
O 	O 	0.59430 0.91960 0.86700 -0.35200
O 	O 	0.79670 0.59390 0.61110 -0.54300
P 	P 	0.84689 0.70462 0.64169 0.53500
P 	P 	0.65326 0.20851 0.03787 0.52800
P 	P 	0.06439 0.83779 0.01901 0.56300
P 	P 	0.57745 0.80171 0.84815 0.46400
H 	H 	0.95200 0.69200 0.71500 -0.48600
H 	H 	0.54600 0.21830 0.97500 -0.42700
H 	H 	0.01000 0.89800 0.05900 -1.32900
H 	H 	0.59200 0.76700 0.95100 -0.03600
O 	O 	0.97300 0.69400 0.73300 0.41300
O 	O 	0.53100 0.22500 0.97500 0.37300
O 	O 	0.02500 0.89700 0.09600 1.42600
F 	F 	0.18940 0.40880 0.62580 -0.60000
F 	F 	0.16700 0.09800 0.63890 -0.59300
Fe	Fe	0.18006 0.25458 0.62798 1.31500
Fe	Fe	0.69238 0.24895 0.80898 1.32500
Fe	Fe	0.26061 0.50069 0.54243 1.25300
Co	Co	0.25234 0.00057 0.78919 1.18500
O 	O 	0.20300 0.26940 0.79370 -0.35500
O 	O 	0.15930 0.26420 0.96490 -0.36900
O 	O 	0.34170 0.24710 0.68690 -0.35800
O 	O 	0.01950 0.26270 0.57310 -0.33900
O 	O 	0.31250 0.76790 0.34780 -0.36600
O 	O 	0.53600 0.27360 0.74140 -0.35800
O 	O 	0.29400 0.76270 0.53080 -0.34700
O 	O 	0.85480 0.27080 0.37780 -0.40900
F 	F 	0.32490 0.59710 0.69060 -0.60500
F 	F 	0.27570 0.90040 0.68160 -0.61800
O 	O 	0.32100 0.59060 0.44330 -0.52500
O 	O 	0.88200 0.41040 0.53550 -0.37800
O 	O 	0.40570 0.41960 0.63300 -0.35800
O 	O 	0.20330 0.09390 0.88890 -0.54500
P 	P 	0.15311 0.20462 0.85831 0.53500
P 	P 	0.34674 0.70851 0.46213 0.51600
P 	P 	0.93561 0.33779 0.48099 0.57900
P 	P 	0.42255 0.30171 0.65185 0.46400
H 	H 	0.04800 0.19200 0.78500 -0.48400
H 	H 	0.45400 0.71830 0.52500 -0.42200
H 	H 	0.99000 0.39800 0.44100 -1.32100
H 	H 	0.40800 0.26700 0.54900 -0.03800
O 	O 	0.02700 0.19400 0.76700 0.41200
O 	O 	0.46900 0.72500 0.52500 0.37600
O 	O 	0.97500 0.39700 0.40400 1.42000
