data_crystal

_cell_length_a 13.90800
_cell_length_b 8.40900
_cell_length_c 13.04200
_cell_angle_alpha 90.00000
_cell_angle_beta  90.00000
_cell_angle_gamma 90.00000

_symmetry_space_group_name_	'P 1'
_symmetry_space_group_name_H-M	'P 1'

loop_
_symmetry_equiv_pos_as_xyz
  x,y,z

loop_
_atom_site_label
_atom_site_type_symbol
_atom_site_fract_x
_atom_site_fract_y
_atom_site_fract_z
_atom_site_charge
C 	C 	0.11290 0.03150 0.08060 0.14900
C 	C 	0.03910 0.06360 0.99620 0.03300
H 	H 	0.01050 0.16880 0.00670 0.04000
C 	C 	0.08850 0.05860 0.89130 -0.64600
H 	H 	0.04010 0.06880 0.83820 0.18900
H 	H 	0.11930 0.95590 0.88290 0.28400
C 	C 	0.16290 0.18770 0.87700 0.55600
O 	O 	0.12420 0.12410 0.15260 -0.35400
O 	O 	0.16190 0.90580 0.07730 -0.26800
O 	O 	0.16320 0.30150 0.93670 -0.49800
O 	O 	0.22040 0.17370 0.80320 -0.53200
O 	O 	0.21210 0.46170 0.28240 -0.21600
C 	C 	0.38710 0.96850 0.08060 0.44600
C 	C 	0.46090 0.93640 0.99620 -0.07600
H 	H 	0.48950 0.83120 0.00670 0.08200
C 	C 	0.41150 0.94140 0.89130 -0.15200
H 	H 	0.45990 0.93120 0.83820 0.10900
H 	H 	0.38070 0.04410 0.88290 0.01200
C 	C 	0.33710 0.81230 0.87700 0.42500
O 	O 	0.37580 0.87590 0.15260 -0.39300
O 	O 	0.33810 0.09420 0.07730 -0.47100
O 	O 	0.33680 0.69850 0.93670 -0.46500
O 	O 	0.27960 0.82630 0.80320 -0.44800
O 	O 	0.28790 0.53830 0.28240 -0.21600
C 	C 	0.88710 0.03150 0.41940 0.14600
C 	C 	0.96090 0.06360 0.50380 0.03300
H 	H 	0.98950 0.16880 0.49330 0.04000
C 	C 	0.91150 0.05860 0.60870 -0.64800
H 	H 	0.95990 0.06880 0.66180 0.19000
H 	H 	0.88070 0.95590 0.61710 0.28500
C 	C 	0.83710 0.18770 0.62300 0.55700
O 	O 	0.87580 0.12410 0.34740 -0.35400
O 	O 	0.83810 0.90580 0.42270 -0.26700
O 	O 	0.83680 0.30150 0.56330 -0.49800
O 	O 	0.77960 0.17370 0.69680 -0.53300
O 	O 	0.78790 0.46170 0.21760 -0.21600
C 	C 	0.61290 0.96850 0.41940 0.44700
C 	C 	0.53910 0.93640 0.50380 -0.07500
H 	H 	0.51050 0.83120 0.49330 0.08200
C 	C 	0.58850 0.94140 0.60870 -0.15000
H 	H 	0.54010 0.93120 0.66180 0.10900
H 	H 	0.61930 0.04410 0.61710 0.01100
C 	C 	0.66290 0.81230 0.62300 0.42400
O 	O 	0.62420 0.87590 0.34740 -0.39300
O 	O 	0.66190 0.09420 0.42270 -0.47200
O 	O 	0.66320 0.69850 0.56330 -0.46400
O 	O 	0.72040 0.82630 0.69680 -0.44700
O 	O 	0.71210 0.53830 0.21760 -0.21600
C 	C 	0.88710 0.96850 0.91940 0.44600
C 	C 	0.96090 0.93640 0.00380 -0.07900
H 	H 	0.98950 0.83120 0.99330 0.08300
C 	C 	0.91150 0.94140 0.10870 -0.15200
H 	H 	0.95990 0.93120 0.16180 0.10900
H 	H 	0.88070 0.04410 0.11710 0.01200
C 	C 	0.83710 0.81230 0.12300 0.42500
O 	O 	0.87580 0.87590 0.84740 -0.39400
O 	O 	0.83810 0.09420 0.92270 -0.47100
O 	O 	0.83680 0.69850 0.06330 -0.46500
O 	O 	0.77960 0.82630 0.19680 -0.44800
O 	O 	0.78790 0.53830 0.71760 -0.21600
C 	C 	0.61290 0.03150 0.91940 0.14600
C 	C 	0.53910 0.06360 0.00380 0.03300
H 	H 	0.51050 0.16880 0.99330 0.04000
C 	C 	0.58850 0.05860 0.10870 -0.64800
H 	H 	0.54010 0.06880 0.16180 0.19000
H 	H 	0.61930 0.95590 0.11710 0.28500
C 	C 	0.66290 0.18770 0.12300 0.55700
O 	O 	0.62420 0.12410 0.84740 -0.35400
O 	O 	0.66190 0.90580 0.92270 -0.26700
O 	O 	0.66320 0.30150 0.06330 -0.49800
O 	O 	0.72040 0.17370 0.19680 -0.53300
O 	O 	0.71210 0.46170 0.71760 -0.21600
C 	C 	0.11290 0.96850 0.58060 0.44600
C 	C 	0.03910 0.93640 0.49620 -0.07600
H 	H 	0.01050 0.83120 0.50670 0.08200
C 	C 	0.08850 0.94140 0.39130 -0.15100
H 	H 	0.04010 0.93120 0.33820 0.10900
H 	H 	0.11930 0.04410 0.38290 0.01200
C 	C 	0.16290 0.81230 0.37700 0.42500
O 	O 	0.12420 0.87590 0.65260 -0.39400
O 	O 	0.16190 0.09420 0.57730 -0.47200
O 	O 	0.16320 0.69850 0.43670 -0.46500
O 	O 	0.22040 0.82630 0.30320 -0.44700
O 	O 	0.21210 0.53830 0.78240 -0.21600
C 	C 	0.38710 0.03150 0.58060 0.14500
C 	C 	0.46090 0.06360 0.49620 0.03200
H 	H 	0.48950 0.16880 0.50670 0.04000
C 	C 	0.41150 0.05860 0.39130 -0.65000
H 	H 	0.45990 0.06880 0.33820 0.19000
H 	H 	0.38070 0.95590 0.38290 0.28600
C 	C 	0.33710 0.18770 0.37700 0.55700
O 	O 	0.37580 0.12410 0.65260 -0.35400
O 	O 	0.33810 0.90580 0.57730 -0.26600
O 	O 	0.33680 0.30150 0.43670 -0.49800
O 	O 	0.27960 0.17370 0.30320 -0.53300
O 	O 	0.28790 0.46170 0.78240 -0.21600
Zn	Zn	0.25000 0.00000 0.20578 1.20900
Zn	Zn	0.75000 0.00000 0.29422 1.20900
Zn	Zn	0.75000 0.00000 0.79422 1.20900
Zn	Zn	0.25000 0.00000 0.70578 1.20900
Zn	Zn	0.25000 0.50000 0.93079 1.20300
Zn	Zn	0.75000 0.50000 0.56921 1.20300
Zn	Zn	0.75000 0.50000 0.06921 1.20300
Zn	Zn	0.25000 0.50000 0.43079 1.20300
