data_crystal

_cell_length_a 8.25800
_cell_length_b 14.37100
_cell_length_c 16.18900
_cell_angle_alpha 90.00000
_cell_angle_beta  90.00000
_cell_angle_gamma 90.00000

_symmetry_space_group_name_	'P 1'
_symmetry_space_group_name_H-M	'P 1'

loop_
_symmetry_equiv_pos_as_xyz
  x,y,z

loop_
_atom_site_label
_atom_site_type_symbol
_atom_site_fract_x
_atom_site_fract_y
_atom_site_fract_z
_atom_site_charge
Ag	Ag	0.20658 0.08698 0.15224 0.50500
S 	S 	0.22530 0.24290 0.23810 -0.05100
S 	S 	0.45520 0.36700 0.93440 -0.02200
S 	S 	0.97050 0.49170 0.89520 -0.05400
S 	S 	0.83180 0.45460 0.23450 -0.06500
C 	C 	0.37800 0.30910 0.18430 -0.31700
C 	C 	0.35800 0.30880 0.09020 0.29800
C 	C 	0.48900 0.36190 0.04560 -0.31500
C 	C 	0.29200 0.45230 0.92540 -0.10200
C 	C 	0.12800 0.40570 0.91350 -0.14600
C 	C 	0.94300 0.54340 0.99610 -0.30200
C 	C 	0.89800 0.47720 0.06600 0.27800
C 	C 	0.87400 0.52820 0.14610 -0.29200
C 	C 	0.02600 0.39710 0.25470 -0.09700
C 	C 	0.04100 0.30420 0.21260 -0.13300
O 	O 	0.26500 0.26100 0.05660 -0.29300
O 	O 	0.36700 0.10120 0.94460 -0.27700
H 	H 	0.48300 0.28400 0.19600 0.11200
H 	H 	0.37400 0.37300 0.20200 0.11600
H 	H 	0.59200 0.33000 0.05500 0.14400
H 	H 	0.49500 0.42400 0.06700 0.11600
H 	H 	0.31300 0.49200 0.87900 0.03900
H 	H 	0.28900 0.48900 0.97500 0.05200
H 	H 	0.10100 0.37200 0.96200 0.10400
H 	H 	0.13300 0.36500 0.86700 0.06300
H 	H 	0.85900 0.58900 0.99100 0.10000
H 	H 	0.04300 0.57300 0.01100 0.11000
H 	H 	0.78500 0.57100 0.13900 0.09300
H 	H 	0.97100 0.56300 0.15800 0.09400
H 	H 	0.03400 0.38800 0.31300 0.03900
H 	H 	0.11000 0.43700 0.23600 0.04900
H 	H 	0.03700 0.31400 0.15300 0.09400
H 	H 	0.94900 0.26600 0.22700 0.05700
Ag	Ag	0.29342 0.91302 0.65224 0.50600
S 	S 	0.27470 0.75710 0.73810 -0.05000
S 	S 	0.04480 0.63300 0.43440 -0.02200
S 	S 	0.52950 0.50830 0.39520 -0.05400
S 	S 	0.66820 0.54540 0.73450 -0.06500
C 	C 	0.12200 0.69090 0.68430 -0.31700
C 	C 	0.14200 0.69120 0.59020 0.29800
C 	C 	0.01100 0.63810 0.54560 -0.31400
C 	C 	0.20800 0.54770 0.42540 -0.10300
C 	C 	0.37200 0.59430 0.41350 -0.14500
C 	C 	0.55700 0.45660 0.49610 -0.30200
C 	C 	0.60200 0.52280 0.56600 0.27800
C 	C 	0.62600 0.47180 0.64610 -0.29200
C 	C 	0.47400 0.60290 0.75470 -0.09700
C 	C 	0.45900 0.69580 0.71260 -0.13400
O 	O 	0.23500 0.73900 0.55660 -0.29300
O 	O 	0.13300 0.89880 0.44460 -0.27700
H 	H 	0.01700 0.71600 0.69600 0.11200
H 	H 	0.12600 0.62700 0.70200 0.11600
H 	H 	0.90800 0.67000 0.55500 0.14400
H 	H 	0.00500 0.57600 0.56700 0.11600
H 	H 	0.18700 0.50800 0.37900 0.04000
H 	H 	0.21100 0.51100 0.47500 0.05200
H 	H 	0.39900 0.62800 0.46200 0.10400
H 	H 	0.36700 0.63500 0.36700 0.06300
H 	H 	0.64100 0.41100 0.49100 0.10000
H 	H 	0.45700 0.42700 0.51100 0.11000
H 	H 	0.71500 0.42900 0.63900 0.09300
H 	H 	0.52900 0.43700 0.65800 0.09400
H 	H 	0.46600 0.61200 0.81300 0.03900
H 	H 	0.39000 0.56300 0.73600 0.04900
H 	H 	0.46300 0.68600 0.65300 0.09400
H 	H 	0.55100 0.73400 0.72700 0.05800
Ag	Ag	0.79342 0.58698 0.34776 0.50600
S 	S 	0.77470 0.74290 0.26190 -0.05000
S 	S 	0.54480 0.86700 0.56560 -0.02200
S 	S 	0.02950 0.99170 0.60480 -0.05500
S 	S 	0.16820 0.95460 0.26550 -0.06400
C 	C 	0.62200 0.80910 0.31570 -0.31700
C 	C 	0.64200 0.80880 0.40980 0.29800
C 	C 	0.51100 0.86190 0.45440 -0.31500
C 	C 	0.70800 0.95230 0.57460 -0.10300
C 	C 	0.87200 0.90570 0.58650 -0.14500
C 	C 	0.05700 0.04340 0.50390 -0.30000
C 	C 	0.10200 0.97720 0.43400 0.27800
C 	C 	0.12600 0.02820 0.35390 -0.29200
C 	C 	0.97400 0.89710 0.24530 -0.09700
C 	C 	0.95900 0.80420 0.28740 -0.13400
O 	O 	0.73500 0.76100 0.44340 -0.29300
O 	O 	0.63300 0.60120 0.55540 -0.27700
H 	H 	0.51700 0.78400 0.30400 0.11200
H 	H 	0.62600 0.87300 0.29800 0.11600
H 	H 	0.40800 0.83000 0.44500 0.14400
H 	H 	0.50500 0.92400 0.43300 0.11600
H 	H 	0.68700 0.99200 0.62100 0.04000
H 	H 	0.71100 0.98900 0.52500 0.05300
H 	H 	0.89900 0.87200 0.53800 0.10400
H 	H 	0.86700 0.86500 0.63300 0.06200
H 	H 	0.14100 0.08900 0.50900 0.10000
H 	H 	0.95700 0.07300 0.48900 0.10900
H 	H 	0.21500 0.07100 0.36100 0.09300
H 	H 	0.02900 0.06300 0.34200 0.09400
H 	H 	0.96600 0.88800 0.18700 0.03900
H 	H 	0.89000 0.93700 0.26400 0.04900
H 	H 	0.96300 0.81400 0.34700 0.09400
H 	H 	0.05100 0.76600 0.27300 0.05800
Ag	Ag	0.70658 0.41302 0.84776 0.50600
S 	S 	0.72530 0.25710 0.76190 -0.05000
S 	S 	0.95520 0.13300 0.06560 -0.02300
S 	S 	0.47050 0.00830 0.10480 -0.05500
S 	S 	0.33180 0.04540 0.76550 -0.06300
C 	C 	0.87800 0.19090 0.81570 -0.31700
C 	C 	0.85800 0.19120 0.90980 0.29800
C 	C 	0.98900 0.13810 0.95440 -0.31300
C 	C 	0.79200 0.04770 0.07460 -0.10200
C 	C 	0.62800 0.09430 0.08650 -0.14500
C 	C 	0.44300 0.95660 0.00390 -0.30000
C 	C 	0.39800 0.02280 0.93400 0.27900
C 	C 	0.37400 0.97180 0.85390 -0.29400
C 	C 	0.52600 0.10290 0.74530 -0.09800
C 	C 	0.54100 0.19580 0.78740 -0.13400
O 	O 	0.76500 0.23900 0.94340 -0.29200
O 	O 	0.86700 0.39880 0.05540 -0.27700
H 	H 	0.98300 0.21600 0.80400 0.11200
H 	H 	0.87400 0.12700 0.79800 0.11600
H 	H 	0.09200 0.17000 0.94500 0.14400
H 	H 	0.99500 0.07600 0.93300 0.11500
H 	H 	0.81300 0.00800 0.12100 0.03900
H 	H 	0.78900 0.01100 0.02500 0.05200
H 	H 	0.60100 0.12800 0.03800 0.10400
H 	H 	0.63300 0.13500 0.13300 0.06300
H 	H 	0.35900 0.91100 0.00900 0.10000
H 	H 	0.54300 0.92700 0.98900 0.10900
H 	H 	0.28500 0.92900 0.86100 0.09300
H 	H 	0.47100 0.93700 0.84200 0.09400
H 	H 	0.53400 0.11200 0.68700 0.03900
H 	H 	0.61000 0.06300 0.76400 0.04900
H 	H 	0.53700 0.18600 0.84700 0.09400
H 	H 	0.44900 0.23400 0.77300 0.05800
