data_crystal

_cell_length_a 16.24450
_cell_length_b 16.48050
_cell_length_c 25.73720
_cell_angle_alpha 90.00000
_cell_angle_beta  90.00000
_cell_angle_gamma 90.00000

_symmetry_space_group_name_	'P 1'
_symmetry_space_group_name_H-M	'P 1'

loop_
_symmetry_equiv_pos_as_xyz
  x,y,z

loop_
_atom_site_label
_atom_site_type_symbol
_atom_site_fract_x
_atom_site_fract_y
_atom_site_fract_z
_atom_site_charge
Co	Co	0.07669 0.01469 0.10899 1.12900
Co	Co	0.63870 0.55795 0.07554 1.14400
Co	Co	0.92331 0.98531 0.89101 1.18400
Co	Co	0.36130 0.05795 0.42446 1.12800
Co	Co	0.36130 0.44205 0.92446 1.14500
Co	Co	0.42331 0.98531 0.60899 1.18100
Co	Co	0.63870 0.94205 0.57554 1.16100
Co	Co	0.07669 0.48531 0.60899 1.15400
Co	Co	0.86130 0.44205 0.57554 1.14600
Co	Co	0.57669 0.48531 0.89101 1.16000
Co	Co	0.57669 0.01469 0.39101 1.13700
Co	Co	0.42331 0.51469 0.10899 1.15800
Co	Co	0.13870 0.94205 0.92446 1.15800
Co	Co	0.92331 0.51469 0.39101 1.16500
Co	Co	-0.00000 0.00000 -0.00000 1.11200
Co	Co	0.86130 0.05795 0.07554 1.12900
Co	Co	0.50000 0.50000 -0.00000 1.14700
Co	Co	0.00000 0.50000 0.50000 1.14200
Co	Co	0.13870 0.55795 0.42446 1.14400
Co	Co	0.50000 0.00000 0.50000 1.13500
H 	H 	0.99000 0.69090 0.91480 0.06200
H 	H 	0.54200 0.22160 0.08390 0.04200
H 	H 	0.79360 0.67730 0.24860 0.04300
H 	H 	0.56110 0.19410 0.45170 0.06900
H 	H 	0.09450 0.42010 0.09980 0.05200
H 	H 	0.41230 0.76500 0.68880 0.03800
H 	H 	0.81470 0.34860 0.69430 0.05100
H 	H 	0.84060 0.16430 0.83020 0.07400
H 	H 	0.90000 0.82450 0.24230 0.04500
H 	H 	0.97920 0.39450 0.96500 0.08000
H 	H 	0.31630 0.96540 0.95840 0.04700
H 	H 	0.49000 0.69090 0.58520 0.04400
H 	H 	0.54200 0.27840 0.58390 0.04800
H 	H 	0.04630 0.43310 0.41860 0.19000
H 	H 	0.21670 0.78020 0.88930 0.02100
H 	H 	0.52080 0.89450 0.96500 0.05100
H 	H 	0.34190 0.78300 0.38240 0.07700
H 	H 	0.77190 0.91710 0.42470 0.06400
H 	H 	0.09450 0.07990 0.59980 0.03000
H 	H 	0.71960 0.26970 0.31640 0.03600
H 	H 	0.47920 0.39450 0.53500 0.03800
H 	H 	0.70640 0.17730 0.24860 0.03700
H 	H 	0.54630 0.06690 0.58140 0.19500
H 	H 	0.29360 0.67730 0.25140 0.04100
H 	H 	0.60140 0.76900 0.00680 -0.00500
H 	H 	0.40550 0.57990 0.59980 0.04200
H 	H 	0.95370 0.93310 0.08140 0.18900
H 	H 	0.20640 0.17730 0.25140 0.03600
H 	H 	0.91230 0.76500 0.81120 0.03200
H 	H 	0.51000 0.19090 0.91480 0.05100
H 	H 	0.60000 0.17550 0.74230 0.04200
H 	H 	0.49000 0.80910 0.08520 0.03600
H 	H 	0.89860 0.23100 0.50680 0.04600
H 	H 	0.27190 0.91710 0.07530 0.05200
H 	H 	0.68170 0.88430 0.01520 0.08700
H 	H 	0.31470 0.34860 0.80570 0.05100
H 	H 	0.58770 0.26500 0.81120 0.03700
H 	H 	0.28040 0.76970 0.18360 0.03700
H 	H 	0.97920 0.10550 0.46500 0.07100
H 	H 	0.45800 0.72160 0.41610 0.04700
H 	H 	0.77190 0.58290 0.92470 0.06800
H 	H 	0.27190 0.58290 0.57530 0.05700
H 	H 	0.79360 0.82270 0.74860 0.04800
H 	H 	0.04200 0.27840 0.91610 0.04800
H 	H 	0.18170 0.61570 0.98480 0.01200
H 	H 	0.81470 0.15140 0.19430 0.04700
H 	H 	0.95800 0.77840 0.58390 0.05300
H 	H 	0.18530 0.65140 0.30570 0.05300
H 	H 	0.10140 0.76900 0.49320 0.03000
H 	H 	0.04630 0.06690 0.91860 0.19500
H 	H 	0.15810 0.28300 0.38240 0.07200
H 	H 	0.39860 0.23100 0.99320 0.10400
H 	H 	0.59450 0.42010 0.40020 0.04500
H 	H 	0.34060 0.16430 0.66980 0.07400
H 	H 	0.84190 0.78300 0.11760 0.08100
H 	H 	0.18530 0.84860 0.80570 0.05600
H 	H 	0.34190 0.71700 0.88240 0.07400
H 	H 	0.21670 0.71980 0.38930 0.02100
H 	H 	0.39860 0.26900 0.49320 0.03800
H 	H 	0.43890 0.69410 0.04830 0.07900
H 	H 	0.60000 0.32450 0.24230 0.04700
H 	H 	0.40550 0.92010 0.09980 0.06300
H 	H 	0.68530 0.84860 0.69430 0.05600
H 	H 	0.59450 0.07990 0.90020 0.02500
H 	H 	0.81830 0.11570 0.51520 0.03700
H 	H 	0.47920 0.10550 0.03500 0.02400
H 	H 	0.45370 0.56690 0.91860 0.19400
H 	H 	0.20640 0.32270 0.75140 0.04100
H 	H 	0.65940 0.66430 0.83020 0.07700
H 	H 	0.56110 0.30590 0.95170 0.05600
H 	H 	0.58770 0.23500 0.31120 0.03500
H 	H 	0.21960 0.23030 0.68360 0.03400
H 	H 	0.68370 0.46540 0.54160 0.03000
H 	H 	0.08770 0.23500 0.18880 0.04200
H 	H 	0.51000 0.30910 0.41480 0.04200
H 	H 	0.29360 0.82270 0.75140 0.04600
H 	H 	0.68530 0.65140 0.19430 0.05200
H 	H 	0.18370 0.03460 0.45840 0.01900
H 	H 	0.41230 0.73500 0.18880 0.03600
H 	H 	0.15940 0.83570 0.16980 0.07700
H 	H 	0.90000 0.67550 0.74230 0.04100
H 	H 	0.81830 0.38430 0.01520 0.08300
H 	H 	0.40000 0.67550 0.75770 0.04600
H 	H 	0.10000 0.17550 0.75770 0.04700
H 	H 	0.31830 0.11570 0.98480 -0.00500
H 	H 	0.84190 0.71700 0.61760 0.07800
H 	H 	0.90550 0.92010 0.40020 0.05800
H 	H 	0.54630 0.43310 0.08140 0.19000
H 	H 	0.04200 0.22160 0.41610 0.04200
H 	H 	0.89860 0.26900 0.00680 -0.00900
H 	H 	0.02080 0.60550 0.03500 -0.01200
H 	H 	0.34060 0.33570 0.16980 0.07400
H 	H 	0.06110 0.19410 0.04830 0.07700
H 	H 	0.60140 0.73100 0.50680 0.03800
H 	H 	0.81630 0.53460 0.04160 0.02200
H 	H 	0.65810 0.28300 0.11760 0.07600
H 	H 	0.84060 0.33570 0.33020 0.07400
H 	H 	0.90550 0.57990 0.90020 0.03800
H 	H 	0.71670 0.78020 0.61070 0.02000
H 	H 	0.22810 0.08290 0.57530 0.04700
H 	H 	0.81630 0.96540 0.54160 0.04100
H 	H 	0.95800 0.72160 0.08390 0.04800
H 	H 	0.45800 0.77840 0.91610 0.05200
H 	H 	0.28330 0.28020 0.88930 0.02200
H 	H 	0.71960 0.23030 0.81640 0.03500
H 	H 	0.52080 0.60550 0.46500 0.03800
H 	H 	0.68370 0.03460 0.04160 0.01100
H 	H 	0.28330 0.21980 0.38930 0.02300
H 	H 	0.65810 0.21700 0.61760 0.07300
H 	H 	0.70640 0.32270 0.74860 0.04300
H 	H 	0.93890 0.80590 0.95170 0.06300
H 	H 	0.68170 0.61570 0.51520 0.04700
H 	H 	0.28040 0.73030 0.68360 0.03600
H 	H 	0.78040 0.76970 0.31640 0.03800
H 	H 	0.45370 0.93310 0.41860 0.18900
H 	H 	0.01000 0.30910 0.08520 0.01800
H 	H 	0.15810 0.21700 0.88240 0.07000
H 	H 	0.18370 0.46540 0.95840 0.03700
H 	H 	0.31470 0.15140 0.30570 0.04700
H 	H 	0.31830 0.38430 0.48480 0.04700
H 	H 	0.01000 0.19090 0.58520 0.03100
H 	H 	0.72810 0.08290 0.92470 0.06100
H 	H 	0.78330 0.28020 0.61070 0.02100
H 	H 	0.78330 0.21980 0.11070 0.02200
H 	H 	0.65940 0.83570 0.33020 0.07700
H 	H 	0.72810 0.41710 0.42470 0.05400
H 	H 	0.78040 0.73030 0.81640 0.03700
H 	H 	0.95370 0.56690 0.58140 0.19400
H 	H 	0.06110 0.30590 0.54830 0.06200
H 	H 	0.22810 0.41710 0.07530 0.03700
H 	H 	0.93890 0.69410 0.45170 0.07400
H 	H 	0.02080 0.89450 0.53500 0.00500
H 	H 	0.31630 0.53460 0.45840 0.03000
H 	H 	0.43890 0.80590 0.54830 0.06700
H 	H 	0.71670 0.71980 0.11070 0.02000
H 	H 	0.15940 0.66430 0.66980 0.07700
H 	H 	0.99000 0.80910 0.41480 0.05600
H 	H 	0.91230 0.73500 0.31120 0.03000
H 	H 	0.08770 0.26500 0.68880 0.04300
H 	H 	0.21960 0.26970 0.18360 0.03500
H 	H 	0.10000 0.32450 0.25770 0.05200
H 	H 	0.40000 0.82450 0.25770 0.05100
H 	H 	0.10140 0.73100 0.99320 0.08400
H 	H 	0.18170 0.88430 0.48480 0.05700
C 	C 	0.76310 0.80620 0.59760 0.04500
C 	C 	0.26420 0.25970 0.20530 -0.02400
C 	C 	0.23580 0.74030 0.70530 -0.01800
C 	C 	0.79560 0.33800 0.00031 -0.12600
C 	C 	0.66180 0.23260 0.10160 -0.08600
C 	C 	0.46950 0.91950 0.96600 0.01100
C 	C 	0.30450 0.87150 0.06999 -0.04500
C 	C 	0.46790 0.28910 0.80326 -0.11300
C 	C 	0.93470 0.69320 0.92426 -0.04500
C 	C 	0.95110 0.69830 0.74981 0.00300
C 	C 	0.90530 0.21530 0.76995 0.04100
C 	C 	0.82010 0.76800 0.96096 0.00900
C 	C 	0.93470 0.80680 0.42426 -0.01600
C 	C 	0.50520 0.88440 0.32220 0.33200
C 	C 	0.06530 0.19320 0.57574 -0.02200
C 	C 	0.46790 0.21090 0.30326 -0.11700
C 	C 	0.96950 0.91950 0.53400 0.07200
C 	C 	0.95110 0.80170 0.24981 0.00200
C 	C 	0.39720 0.27220 0.77187 0.04300
C 	C 	0.40400 0.73810 0.05376 -0.12000
C 	C 	0.54150 0.24700 0.29129 0.00100
C 	C 	0.15510 0.73150 0.00552 -0.12700
C 	C 	0.67990 0.23200 0.46096 0.04700
C 	C 	0.16580 0.41580 0.50380 0.37100
C 	C 	0.33820 0.73260 0.39840 -0.08100
C 	C 	0.53150 0.65200 0.15156 0.40200
C 	C 	0.59300 0.30380 0.58180 -0.02600
C 	C 	0.67870 0.08560 0.05681 0.01500
C 	C 	0.32130 0.58560 0.44319 0.01400
C 	C 	0.00520 0.61560 0.67780 0.30600
C 	C 	0.74380 0.70390 0.25370 -0.03600
C 	C 	0.34490 0.26850 0.50552 -0.00800
C 	C 	0.23140 0.30130 0.04713 -0.01000
C 	C 	0.26420 0.24030 0.70530 -0.02100
C 	C 	0.76310 0.69380 0.09760 0.04500
C 	C 	0.33820 0.76740 0.89840 -0.07400
C 	C 	0.89720 0.22780 0.22813 0.04300
C 	C 	0.28490 0.83950 0.51540 -0.10500
C 	C 	0.83610 0.20100 0.80287 -0.08300
C 	C 	0.46850 0.34800 0.84844 0.40000
C 	C 	0.46950 0.58050 0.46600 0.01100
C 	C 	0.39940 0.87910 0.94168 0.00800
C 	C 	0.83420 0.58420 0.49620 0.36800
C 	C 	0.45110 0.80170 0.25019 -0.02900
C 	C 	0.09300 0.19620 0.41820 -0.03900
C 	C 	0.29560 0.33800 0.49969 -0.01400
C 	C 	0.10280 0.77220 0.77187 0.04700
C 	C 	0.65510 0.73150 0.49448 -0.01000
C 	C 	0.29560 0.16200 0.99969 0.13000
C 	C 	0.81510 0.19980 0.97090 -0.17400
C 	C 	0.04150 0.25300 0.70871 -0.03000
C 	C 	0.38420 0.87370 0.08420 -0.05800
C 	C 	0.87090 0.37270 0.46431 0.37600
C 	C 	0.69550 0.37150 0.43001 -0.07200
C 	C 	0.32130 0.91440 0.94319 0.01200
C 	C 	0.04890 0.19830 0.75019 -0.05200
C 	C 	0.23580 0.75970 0.20530 -0.02100
C 	C 	0.81510 0.30020 0.47090 -0.11300
C 	C 	0.67900 0.81160 0.72129 -0.07000
C 	C 	0.43470 0.69320 0.57574 -0.02300
C 	C 	0.03210 0.78910 0.80326 -0.13500
C 	C 	0.20440 0.66200 0.99969 0.09400
C 	C 	0.33610 0.29900 0.19713 -0.08300
C 	C 	0.90530 0.28470 0.26995 0.03800
C 	C 	0.32100 0.31160 0.77871 -0.07300
C 	C 	0.90700 0.69620 0.08180 -0.00600
C 	C 	0.53210 0.71090 0.19674 -0.11400
C 	C 	0.37090 0.37270 0.03569 0.32800
C 	C 	0.53150 0.84800 0.65156 0.40200
C 	C 	0.73140 0.19870 0.95287 0.08700
C 	C 	0.21510 0.33950 0.51540 -0.11600
C 	C 	0.31510 0.30020 0.02910 -0.05000
C 	C 	0.49480 0.38440 0.17780 0.33400
C 	C 	0.10060 0.12090 0.44168 0.00900
C 	C 	0.89940 0.87910 0.55832 -0.01700
C 	C 	0.65510 0.76850 0.99448 0.09400
C 	C 	0.19550 0.12850 0.56999 -0.07700
C 	C 	0.70440 0.83800 0.00031 -0.10900
C 	C 	0.17870 0.41440 0.94319 0.00400
C 	C 	0.90400 0.76190 0.94624 -0.05500
C 	C 	0.51760 0.82200 0.27967 -0.07600
C 	C 	0.25620 0.20390 0.24630 -0.03800
C 	C 	0.61580 0.12630 0.91580 0.00400
C 	C 	0.76420 0.24030 0.79470 -0.02000
C 	C 	0.66390 0.70100 0.80287 -0.08300
C 	C 	0.83610 0.29900 0.30287 -0.08000
C 	C 	0.45850 0.75300 0.70871 0.00100
C 	C 	0.45110 0.69830 0.75019 -0.02500
C 	C 	0.90700 0.80380 0.58180 -0.01100
C 	C 	0.04150 0.24700 0.20871 -0.02800
C 	C 	0.18490 0.69980 0.52910 -0.12600
C 	C 	0.76860 0.69870 0.95287 0.08300
C 	C 	0.19550 0.37150 0.06999 -0.03500
C 	C 	0.09300 0.30380 0.91820 -0.04000
C 	C 	0.39940 0.62090 0.44168 -0.00500
C 	C 	0.46850 0.15200 0.34844 0.40000
C 	C 	0.60060 0.37910 0.55832 -0.00400
C 	C 	0.79560 0.16200 0.50031 -0.00500
C 	C 	0.09600 0.26190 0.55376 -0.08900
C 	C 	0.40700 0.80380 0.91820 -0.02700
C 	C 	0.23690 0.30620 0.90240 0.03600
C 	C 	0.18490 0.80020 0.02910 -0.06700
C 	C 	0.11580 0.12630 0.58420 -0.03000
C 	C 	0.26860 0.80130 0.04713 0.00500
C 	C 	0.82010 0.73200 0.46096 0.04300
C 	C 	0.82130 0.58560 0.05681 0.02700
C 	C 	0.96850 0.15200 0.15156 0.43100
C 	C 	0.39720 0.22780 0.27187 0.04500
C 	C 	0.96790 0.28910 0.69674 -0.08700
C 	C 	0.40530 0.28470 0.23005 0.03900
C 	C 	0.51760 0.67800 0.77967 -0.08100
C 	C 	0.03150 0.65200 0.34844 0.37100
C 	C 	0.53050 0.08050 0.03400 0.01000
C 	C 	0.71510 0.33950 0.98460 -0.05400
C 	C 	0.48240 0.17800 0.72033 -0.08700
C 	C 	0.75620 0.29610 0.75370 -0.03900
C 	C 	0.33420 0.58420 0.00380 0.36700
C 	C 	0.17990 0.23200 0.03904 0.09200
C 	C 	0.89720 0.27220 0.72813 0.04200
C 	C 	0.12910 0.62730 0.53569 0.37900
C 	C 	0.62910 0.87270 0.46431 0.37500
C 	C 	0.68490 0.80020 0.47090 -0.11800
C 	C 	0.59600 0.26190 0.94624 -0.05300
C 	C 	0.09470 0.71530 0.73005 0.04400
C 	C 	0.03050 0.41950 0.96600 -0.04400
C 	C 	0.37090 0.12730 0.53569 0.37900
C 	C 	0.26310 0.80620 0.90240 0.04100
C 	C 	0.10280 0.72780 0.27187 0.04900
C 	C 	0.43470 0.80680 0.07574 0.01100
C 	C 	0.03210 0.71090 0.30326 -0.14100
C 	C 	0.32010 0.76800 0.53904 0.03800
C 	C 	0.17870 0.08560 0.44319 0.00300
C 	C 	0.16390 0.70100 0.69713 -0.08600
C 	C 	0.17900 0.68840 0.27871 -0.07700
C 	C 	0.83820 0.76740 0.60160 -0.08500
C 	C 	0.66580 0.41580 0.99620 0.37100
C 	C 	0.48240 0.32200 0.22033 -0.08200
C 	C 	0.62910 0.62730 0.96431 0.41400
C 	C 	0.84490 0.26850 0.99448 0.11200
C 	C 	0.73690 0.19380 0.09760 0.03800
C 	C 	0.75620 0.20390 0.25370 -0.03900
C 	C 	0.88420 0.87370 0.41580 -0.02600
C 	C 	0.96950 0.58050 0.03400 0.07800
C 	C 	0.28490 0.66050 0.01540 -0.17400
C 	C 	0.54890 0.30170 0.24981 -0.02900
C 	C 	0.69550 0.12850 0.93001 -0.10800
C 	C 	0.70440 0.66200 0.50031 -0.01400
C 	C 	0.24380 0.79610 0.74630 -0.03700
C 	C 	0.03050 0.08050 0.46600 -0.05100
C 	C 	0.84490 0.23150 0.49448 -0.01800
C 	C 	0.76420 0.25970 0.29470 -0.02300
C 	C 	0.76860 0.80130 0.45287 0.04600
C 	C 	0.60280 0.77220 0.72813 0.04700
C 	C 	0.73690 0.30620 0.59760 0.03900
C 	C 	0.82130 0.91440 0.55681 0.02400
C 	C 	0.54890 0.19830 0.74981 -0.02500
C 	C 	0.68490 0.69980 0.97090 -0.16700
C 	C 	0.09600 0.23810 0.05376 -0.13400
C 	C 	0.56530 0.30680 0.42426 -0.01500
C 	C 	0.98240 0.17800 0.77967 -0.06100
C 	C 	0.06530 0.30680 0.07574 0.01800
C 	C 	0.82100 0.31160 0.72129 -0.06900
C 	C 	0.20440 0.83800 0.49969 -0.02300
C 	C 	0.59300 0.19620 0.08180 -0.02300
C 	C 	0.96790 0.21090 0.19674 -0.08900
C 	C 	0.78490 0.66050 0.48460 -0.11400
C 	C 	0.30450 0.62850 0.56999 -0.08000
C 	C 	0.60280 0.72780 0.22813 0.04800
C 	C 	0.16390 0.79900 0.19713 -0.08300
C 	C 	0.31510 0.19980 0.52910 -0.12100
C 	C 	0.45850 0.74700 0.20871 0.00400
C 	C 	0.04890 0.30170 0.25019 -0.05800
C 	C 	0.10060 0.37910 0.94168 0.02000
C 	C 	0.53210 0.78910 0.69674 -0.11000
C 	C 	0.74380 0.79610 0.75370 -0.03700
C 	C 	0.16580 0.08420 0.00380 0.36900
C 	C 	0.49480 0.11560 0.67780 0.33800
C 	C 	0.01760 0.82200 0.22033 -0.10400
C 	C 	0.78490 0.83950 0.98460 -0.05700
C 	C 	0.53050 0.41950 0.53400 0.01100
C 	C 	0.95850 0.75300 0.79129 0.02700
C 	C 	0.00520 0.88440 0.17780 0.30000
C 	C 	0.89940 0.62090 0.05832 -0.03200
C 	C 	0.33610 0.20100 0.69713 -0.08600
C 	C 	0.67900 0.68840 0.22129 -0.07300
C 	C 	0.82100 0.18840 0.22129 -0.07300
C 	C 	0.87090 0.12730 0.96431 0.42100
C 	C 	0.32010 0.73200 0.03904 0.07900
C 	C 	0.21510 0.16050 0.01540 -0.19800
C 	C 	0.61580 0.37370 0.41580 -0.03200
C 	C 	0.71510 0.16050 0.48460 -0.12400
C 	C 	0.09470 0.78470 0.23005 0.04200
C 	C 	0.67870 0.41440 0.55681 0.01300
C 	C 	0.98240 0.32200 0.27967 -0.05400
C 	C 	0.33420 0.91580 0.50380 0.36500
C 	C 	0.26860 0.69870 0.54713 0.05000
C 	C 	0.66390 0.79900 0.30287 -0.08000
C 	C 	0.16180 0.23260 0.39840 -0.07500
C 	C 	0.80450 0.87150 0.43001 -0.07500
C 	C 	0.26310 0.69380 0.40240 0.04000
C 	C 	0.11580 0.37370 0.08420 -0.07200
C 	C 	0.60060 0.12090 0.05832 -0.01800
C 	C 	0.83820 0.73260 0.10160 -0.09200
C 	C 	0.17990 0.26800 0.53904 0.04300
C 	C 	0.17900 0.81160 0.77871 -0.07300
C 	C 	0.01760 0.67800 0.72033 -0.10700
C 	C 	0.59600 0.23810 0.44624 -0.09200
C 	C 	0.32100 0.18840 0.27871 -0.07700
C 	C 	0.80450 0.62850 0.93001 -0.10500
C 	C 	0.59470 0.71530 0.76995 0.04300
C 	C 	0.12910 0.87270 0.03569 0.33600
C 	C 	0.23690 0.19380 0.40240 0.03400
C 	C 	0.95850 0.74700 0.29129 0.03400
C 	C 	0.88420 0.62630 0.91580 0.00300
C 	C 	0.15510 0.76850 0.50552 0.00100
C 	C 	0.83420 0.91580 0.99620 0.36100
C 	C 	0.40400 0.76190 0.55376 -0.08300
C 	C 	0.23140 0.19870 0.54713 0.04400
C 	C 	0.66180 0.26740 0.60160 -0.07900
C 	C 	0.73140 0.30130 0.45287 0.04000
C 	C 	0.90400 0.73810 0.44624 -0.08600
C 	C 	0.99480 0.11560 0.82220 0.36500
C 	C 	0.66580 0.08420 0.49620 0.37400
C 	C 	0.59470 0.78470 0.26995 0.04100
C 	C 	0.24380 0.70390 0.24630 -0.03600
C 	C 	0.50520 0.61560 0.82220 0.33500
C 	C 	0.34490 0.23150 0.00552 -0.16300
C 	C 	0.96850 0.34800 0.65156 0.43000
C 	C 	0.56530 0.19320 0.92426 -0.04900
C 	C 	0.16180 0.26740 0.89840 -0.06900
C 	C 	0.40530 0.21530 0.73005 0.04200
C 	C 	0.73580 0.74030 0.79470 -0.01700
C 	C 	0.38420 0.62630 0.58420 -0.02400
C 	C 	0.99480 0.38440 0.32220 0.36500
C 	C 	0.67990 0.26800 0.96096 0.00600
C 	C 	0.54150 0.25300 0.79129 -0.00200
C 	C 	0.40700 0.69620 0.41820 -0.02400
C 	C 	0.03150 0.84800 0.84844 0.37400
C 	C 	0.73580 0.75970 0.29470 -0.02000
C 	C 	0.25620 0.29610 0.74630 -0.03900
N 	N 	0.74590 0.38010 0.57556 -0.22000
N 	N 	0.25410 0.61990 0.42444 -0.22100
N 	N 	0.96260 0.51260 0.01160 -0.09900
N 	N 	0.03740 0.01260 0.48840 -0.11100
N 	N 	0.46260 0.98740 0.98840 -0.05500
N 	N 	0.53740 0.48740 0.51160 -0.08800
N 	N 	0.74590 0.11990 0.07556 -0.22700
N 	N 	0.96260 0.98740 0.51160 -0.06400
N 	N 	0.03740 0.48740 0.98840 -0.07800
N 	N 	0.75410 0.61990 0.07556 -0.22500
N 	N 	0.53740 0.01260 0.01160 -0.12300
N 	N 	0.24590 0.11990 0.42444 -0.22300
N 	N 	0.46260 0.51260 0.48840 -0.08800
N 	N 	0.75410 0.88010 0.57556 -0.21800
N 	N 	0.24590 0.38010 0.92444 -0.21600
N 	N 	0.25410 0.88010 0.92444 -0.21400
O 	O 	0.46788 0.51013 0.92561 -0.70900
O 	O 	0.91319 0.39506 0.50341 -0.50900
O 	O 	0.80691 0.53899 0.53169 -0.44000
O 	O 	0.59975 0.42956 0.97095 -0.52600
O 	O 	0.53363 0.38834 0.85208 -0.46200
O 	O 	0.30691 0.96101 0.46831 -0.41600
O 	O 	0.05490 0.12590 0.85140 -0.34000
O 	O 	0.40889 0.35005 0.87859 -0.45800
O 	O 	0.44447 0.44292 0.17593 -0.39500
O 	O 	0.44447 0.05708 0.67593 -0.41300
O 	O 	0.90025 0.92956 0.97095 -0.50100
O 	O 	0.46637 0.88834 0.64792 -0.45100
O 	O 	0.46788 0.98987 0.42561 -0.67600
O 	O 	0.19309 0.03899 0.96831 -0.44700
O 	O 	0.87346 0.09475 0.92048 -0.45800
O 	O 	0.90025 0.57044 0.47095 -0.52300
O 	O 	0.53212 0.01013 0.57439 -0.74000
O 	O 	0.09111 0.64995 0.37859 -0.45500
O 	O 	0.09975 0.07044 0.02905 -0.55300
O 	O 	0.03212 0.01013 0.92561 -0.74300
O 	O 	0.12654 0.90525 0.07952 -0.42200
O 	O 	0.80691 0.96101 0.03169 -0.42000
O 	O 	0.37346 0.09475 0.57952 -0.45400
O 	O 	0.03363 0.38834 0.64792 -0.48800
O 	O 	0.41319 0.10494 0.49659 -0.52900
O 	O 	0.59111 0.64995 0.12141 -0.45700
O 	O 	0.41319 0.39506 0.99659 -0.49200
O 	O 	0.40025 0.57044 0.02905 -0.53500
O 	O 	0.96637 0.61166 0.35208 -0.43400
O 	O 	0.12654 0.59475 0.57952 -0.44600
O 	O 	0.55490 0.37410 0.14860 -0.31100
O 	O 	0.94447 0.44292 0.32407 -0.39500
O 	O 	0.09111 0.85005 0.87859 -0.45100
O 	O 	0.94447 0.05708 0.82407 -0.41200
O 	O 	0.55553 0.94292 0.32407 -0.37300
O 	O 	0.37346 0.40525 0.07952 -0.43000
O 	O 	0.58681 0.60494 0.00341 -0.54000
O 	O 	0.05553 0.94292 0.17593 -0.37300
O 	O 	0.05490 0.37410 0.35140 -0.33700
O 	O 	0.69309 0.03899 0.53169 -0.46400
O 	O 	0.09975 0.42956 0.52905 -0.53700
O 	O 	0.59111 0.85005 0.62141 -0.45300
O 	O 	0.40889 0.14995 0.37859 -0.46300
O 	O 	0.94510 0.62590 0.64860 -0.28400
O 	O 	0.19309 0.46101 0.46831 -0.44100
O 	O 	0.90889 0.14995 0.12141 -0.46500
O 	O 	0.62654 0.90525 0.42048 -0.42800
O 	O 	0.62654 0.59475 0.92048 -0.45000
O 	O 	0.96788 0.51013 0.57439 -0.69600
O 	O 	0.94510 0.87410 0.14860 -0.27500
O 	O 	0.58681 0.89506 0.50341 -0.50500
O 	O 	0.69309 0.46101 0.03169 -0.45100
O 	O 	0.40025 0.92956 0.52905 -0.51400
O 	O 	0.55490 0.12590 0.64860 -0.31700
O 	O 	0.46637 0.61166 0.14792 -0.46200
O 	O 	0.08681 0.60494 0.49659 -0.52700
O 	O 	0.44510 0.62590 0.85140 -0.30900
O 	O 	0.87346 0.40525 0.42048 -0.43600
O 	O 	0.59975 0.07044 0.47095 -0.54400
O 	O 	0.03363 0.11166 0.14792 -0.50200
O 	O 	0.44510 0.87410 0.35140 -0.30300
O 	O 	0.91319 0.10494 0.00341 -0.54200
O 	O 	0.08681 0.89506 0.99659 -0.49000
O 	O 	0.96788 0.98987 0.07439 -0.65700
O 	O 	0.03212 0.48987 0.42561 -0.72500
O 	O 	0.05553 0.55708 0.67593 -0.39300
O 	O 	0.90889 0.35005 0.62141 -0.46000
O 	O 	0.53212 0.48987 0.07439 -0.71300
O 	O 	0.55553 0.55708 0.82407 -0.39400
O 	O 	0.53363 0.11166 0.35208 -0.47300
O 	O 	0.30691 0.53899 0.96831 -0.42900
O 	O 	0.96637 0.88834 0.85208 -0.42700
