data_crystal

_cell_length_a 14.49790
_cell_length_b 15.47160
_cell_length_c 17.51250
_cell_angle_alpha 90.00000
_cell_angle_beta  90.00000
_cell_angle_gamma 90.00000

_symmetry_space_group_name_	'P 1'
_symmetry_space_group_name_H-M	'P 1'

loop_
_symmetry_equiv_pos_as_xyz
  x,y,z

loop_
_atom_site_label
_atom_site_type_symbol
_atom_site_fract_x
_atom_site_fract_y
_atom_site_fract_z
_atom_site_charge
Cd	Cd	0.87214 0.77297 0.95928 1.19300
Cd	Cd	0.93002 0.22697 0.42415 1.15900
Cd	Cd	0.12786 0.27297 0.04072 1.19300
Cd	Cd	0.06998 0.72697 0.57585 1.15900
Cd	Cd	0.37214 0.77297 0.54072 1.19400
Cd	Cd	0.43002 0.22697 0.07585 1.15900
Cd	Cd	0.62786 0.27297 0.45928 1.19400
Cd	Cd	0.56998 0.72697 0.92415 1.15900
H 	H 	0.11920 0.63680 0.83520 0.07600
H 	H 	0.11250 0.56720 0.98550 0.04000
H 	H 	0.05780 0.52970 0.91560 0.04700
H 	H 	0.19390 0.49030 0.85580 0.08400
H 	H 	0.33800 0.50970 0.91070 0.02300
H 	H 	0.29390 0.55380 0.98260 0.03100
H 	H 	0.29020 0.62350 0.83320 0.08700
H 	H 	0.21310 0.70280 0.96420 0.05000
H 	H 	0.21530 0.74520 0.88280 0.02800
H 	H 	0.89100 0.74090 0.14330 -0.01600
H 	H 	0.89900 0.63660 0.23570 0.08000
H 	H 	0.86110 0.46000 0.07280 0.08400
H 	H 	0.85420 0.57030 0.98510 -0.03300
H 	H 	0.93720 0.26390 0.24610 -0.02200
H 	H 	0.91860 0.36630 0.15240 0.08200
H 	H 	0.84680 0.53510 0.31640 0.07500
H 	H 	0.86310 0.42600 0.40220 -0.02800
H 	H 	0.88260 0.97060 0.90190 -0.00500
H 	H 	0.89100 0.05940 0.79760 0.06900
H 	H 	0.85150 0.85120 0.66550 0.06700
H 	H 	0.84530 0.76900 0.77390 -0.02200
H 	H 	0.85510 0.21800 0.59460 -0.03800
H 	H 	0.83660 0.13290 0.69880 0.07700
H 	H 	0.93060 0.93340 0.57510 0.06400
H 	H 	0.94550 0.02670 0.47440 -0.03800
H 	H 	0.88080 0.13680 0.16480 0.07600
H 	H 	0.88750 0.06720 0.01450 0.03900
H 	H 	0.94220 0.02970 0.08440 0.04700
H 	H 	0.80610 0.99030 0.14420 0.08500
H 	H 	0.66200 0.00970 0.08930 0.02200
H 	H 	0.70610 0.05380 0.01740 0.03100
H 	H 	0.70980 0.12350 0.16680 0.08700
H 	H 	0.78690 0.20280 0.03580 0.05000
H 	H 	0.78470 0.24520 0.11720 0.02800
H 	H 	0.10900 0.24090 0.85670 -0.01600
H 	H 	0.10100 0.13660 0.76430 0.08000
H 	H 	0.13890 0.96000 0.92720 0.07400
H 	H 	0.14580 0.07030 0.01490 -0.03100
H 	H 	0.06280 0.76390 0.75390 -0.02300
H 	H 	0.08140 0.86630 0.84760 0.08200
H 	H 	0.15320 0.03510 0.68360 0.08400
H 	H 	0.13690 0.92600 0.59780 -0.03200
H 	H 	0.11740 0.47060 0.09810 -0.00700
H 	H 	0.10900 0.55940 0.20240 0.07500
H 	H 	0.14850 0.35120 0.33450 0.07100
H 	H 	0.15470 0.26900 0.22610 -0.02400
H 	H 	0.14490 0.71800 0.40540 -0.03600
H 	H 	0.16340 0.63290 0.30120 0.07400
H 	H 	0.06940 0.43340 0.42490 0.05900
H 	H 	0.05450 0.52670 0.52560 -0.03500
H 	H 	0.61920 0.63680 0.66480 0.07600
H 	H 	0.61250 0.56720 0.51450 0.03900
H 	H 	0.55780 0.52970 0.58440 0.04700
H 	H 	0.69390 0.49030 0.64420 0.08400
H 	H 	0.83800 0.50970 0.58930 0.02200
H 	H 	0.79390 0.55380 0.51740 0.03100
H 	H 	0.79020 0.62350 0.66680 0.08700
H 	H 	0.71310 0.70280 0.53580 0.05000
H 	H 	0.71530 0.74520 0.61720 0.02800
H 	H 	0.39100 0.74090 0.35670 -0.01600
H 	H 	0.39900 0.63660 0.26430 0.07900
H 	H 	0.36110 0.46000 0.42720 0.08200
H 	H 	0.35420 0.57030 0.51490 -0.02700
H 	H 	0.43720 0.26390 0.25390 -0.02200
H 	H 	0.41860 0.36630 0.34760 0.08200
H 	H 	0.34680 0.53510 0.18360 0.07500
H 	H 	0.36310 0.42600 0.09780 -0.02800
H 	H 	0.38260 0.97060 0.59810 -0.00100
H 	H 	0.39100 0.05940 0.70240 0.06500
H 	H 	0.35150 0.85120 0.83450 0.06300
H 	H 	0.34530 0.76900 0.72610 -0.02000
H 	H 	0.35510 0.21800 0.90540 -0.04100
H 	H 	0.33660 0.13290 0.80120 0.08300
H 	H 	0.43060 0.93340 0.92490 0.07200
H 	H 	0.44550 0.02670 0.02560 -0.04600
H 	H 	0.38080 0.13680 0.33520 0.07500
H 	H 	0.38750 0.06720 0.48550 0.04200
H 	H 	0.44220 0.02970 0.41560 0.05000
H 	H 	0.30610 0.99030 0.35580 0.07700
H 	H 	0.16200 0.00970 0.41070 0.02600
H 	H 	0.20610 0.05380 0.48260 0.03400
H 	H 	0.20980 0.12350 0.33320 0.08600
H 	H 	0.28690 0.20280 0.46420 0.05100
H 	H 	0.28470 0.24520 0.38280 0.03000
H 	H 	0.60900 0.24090 0.64330 -0.01600
H 	H 	0.60100 0.13660 0.73570 0.07900
H 	H 	0.63890 0.96000 0.57280 0.07800
H 	H 	0.64580 0.07030 0.48510 -0.02600
H 	H 	0.56280 0.76390 0.74610 -0.02300
H 	H 	0.58140 0.86630 0.65240 0.08200
H 	H 	0.65320 0.03510 0.81640 0.08200
H 	H 	0.63690 0.92600 0.90220 -0.03200
H 	H 	0.61740 0.47060 0.40190 -0.00600
H 	H 	0.60900 0.55940 0.29760 0.07600
H 	H 	0.64850 0.35120 0.16550 0.07100
H 	H 	0.65470 0.26900 0.27390 -0.02400
H 	H 	0.64490 0.71800 0.09460 -0.03600
H 	H 	0.66340 0.63290 0.19880 0.07400
H 	H 	0.56940 0.43340 0.07510 0.06000
H 	H 	0.55450 0.52670 0.97440 -0.03700
C 	C 	0.12050 0.64680 0.89040 -0.16600
C 	C 	0.11450 0.55840 0.93070 -0.00500
C 	C 	0.19610 0.50110 0.91090 -0.18600
C 	C 	0.28750 0.54590 0.92790 0.01800
C 	C 	0.29330 0.63370 0.88830 -0.19200
C 	C 	0.21120 0.69070 0.90990 0.00300
C 	C 	0.03580 0.69860 0.91150 0.32900
C 	C 	0.18600 0.41360 0.95110 0.38000
C 	C 	0.38560 0.67710 0.90520 0.37700
C 	C 	0.88490 0.68340 0.12870 0.09400
C 	C 	0.88960 0.62080 0.18510 -0.15300
C 	C 	0.88030 0.53500 0.16550 0.06800
C 	C 	0.86730 0.51700 0.08900 -0.14600
C 	C 	0.86340 0.58370 0.03640 0.08200
C 	C 	0.91860 0.31920 0.26010 0.07400
C 	C 	0.90900 0.38100 0.20330 -0.13700
C 	C 	0.88490 0.46450 0.22300 0.05400
C 	C 	0.86580 0.48060 0.30030 -0.13300
C 	C 	0.87590 0.41450 0.35120 0.07200
C 	C 	0.87650 0.94630 0.85360 0.06300
C 	C 	0.88190 0.00040 0.79100 -0.11500
C 	C 	0.87350 0.96580 0.71790 0.04000
C 	C 	0.85860 0.87730 0.71290 -0.12500
C 	C 	0.85450 0.82820 0.77870 0.06800
C 	C 	0.87160 0.16000 0.59120 0.06900
C 	C 	0.85980 0.10930 0.65380 -0.14500
C 	C 	0.88220 0.02240 0.65060 0.06900
C 	C 	0.91520 0.99130 0.58090 -0.15300
C 	C 	0.92460 0.04850 0.52080 0.09100
C 	C 	0.87950 0.14680 0.10960 -0.16600
C 	C 	0.88550 0.05840 0.06930 -0.00400
C 	C 	0.80390 0.00110 0.08910 -0.18800
C 	C 	0.71250 0.04590 0.07210 0.01900
C 	C 	0.70670 0.13370 0.11170 -0.19200
C 	C 	0.78880 0.19070 0.09010 0.00300
C 	C 	0.96420 0.19860 0.08850 0.32800
C 	C 	0.81400 0.91360 0.04890 0.38100
C 	C 	0.61440 0.17710 0.09480 0.37700
C 	C 	0.11510 0.18340 0.87130 0.09300
C 	C 	0.11040 0.12080 0.81490 -0.15200
C 	C 	0.11970 0.03500 0.83450 0.06600
C 	C 	0.13270 0.01700 0.91100 -0.13000
C 	C 	0.13660 0.08370 0.96360 0.07700
C 	C 	0.08140 0.81920 0.73990 0.07500
C 	C 	0.09100 0.88100 0.79670 -0.13800
C 	C 	0.11510 0.96450 0.77700 0.05400
C 	C 	0.13420 0.98060 0.69970 -0.14800
C 	C 	0.12410 0.91450 0.64880 0.07900
C 	C 	0.12350 0.44630 0.14640 0.07400
C 	C 	0.11810 0.50040 0.20900 -0.13300
C 	C 	0.12650 0.46580 0.28210 0.05600
C 	C 	0.14140 0.37730 0.28710 -0.13500
C 	C 	0.14550 0.32820 0.22130 0.07300
C 	C 	0.12840 0.66000 0.40880 0.06400
C 	C 	0.14020 0.60930 0.34620 -0.13600
C 	C 	0.11780 0.52240 0.34940 0.05400
C 	C 	0.08480 0.49130 0.41910 -0.13900
C 	C 	0.07540 0.54850 0.47920 0.08200
C 	C 	0.62050 0.64680 0.60960 -0.16500
C 	C 	0.61450 0.55840 0.56930 -0.00500
C 	C 	0.69610 0.50110 0.58910 -0.18600
C 	C 	0.78750 0.54590 0.57210 0.01800
C 	C 	0.79330 0.63370 0.61170 -0.19200
C 	C 	0.71120 0.69070 0.59010 0.00300
C 	C 	0.53580 0.69860 0.58850 0.32600
C 	C 	0.68600 0.41360 0.54890 0.38000
C 	C 	0.88560 0.67710 0.59480 0.37700
C 	C 	0.38490 0.68340 0.37130 0.09200
C 	C 	0.38960 0.62080 0.31490 -0.15200
C 	C 	0.38030 0.53500 0.33450 0.06500
C 	C 	0.36730 0.51700 0.41100 -0.14100
C 	C 	0.36340 0.58370 0.46360 0.07300
C 	C 	0.41860 0.31920 0.23990 0.07500
C 	C 	0.40900 0.38100 0.29670 -0.13800
C 	C 	0.38490 0.46450 0.27700 0.05500
C 	C 	0.36580 0.48060 0.19970 -0.13400
C 	C 	0.37590 0.41450 0.14880 0.07300
C 	C 	0.37650 0.94630 0.64640 0.05400
C 	C 	0.38190 0.00040 0.70900 -0.09900
C 	C 	0.37350 0.96580 0.78210 0.02200
C 	C 	0.35860 0.87730 0.78710 -0.11400
C 	C 	0.35450 0.82820 0.72130 0.06200
C 	C 	0.37160 0.16000 0.90880 0.07800
C 	C 	0.35980 0.10930 0.84620 -0.15900
C 	C 	0.38220 0.02240 0.84940 0.09100
C 	C 	0.41520 0.99130 0.91910 -0.18100
C 	C 	0.42460 0.04850 0.97920 0.11400
C 	C 	0.37950 0.14680 0.39040 -0.16100
C 	C 	0.38550 0.05840 0.43070 -0.01200
C 	C 	0.30390 0.00110 0.41090 -0.17300
C 	C 	0.21250 0.04590 0.42790 0.01000
C 	C 	0.20670 0.13370 0.38830 -0.18800
C 	C 	0.28880 0.19070 0.40990 -0.00100
C 	C 	0.46420 0.19860 0.41150 0.32500
C 	C 	0.31400 0.91360 0.45110 0.37300
C 	C 	0.11440 0.17710 0.40520 0.37500
C 	C 	0.61510 0.18340 0.62870 0.09200
C 	C 	0.61040 0.12080 0.68510 -0.15100
C 	C 	0.61970 0.03500 0.66550 0.06400
C 	C 	0.63270 0.01700 0.58900 -0.13400
C 	C 	0.63660 0.08370 0.53640 0.07000
C 	C 	0.58140 0.81920 0.76010 0.07600
C 	C 	0.59100 0.88100 0.70330 -0.13900
C 	C 	0.61510 0.96450 0.72300 0.05600
C 	C 	0.63420 0.98060 0.80030 -0.14600
C 	C 	0.62410 0.91450 0.85120 0.07800
C 	C 	0.62350 0.44630 0.35360 0.07400
C 	C 	0.61810 0.50040 0.29100 -0.13200
C 	C 	0.62650 0.46580 0.21790 0.05500
C 	C 	0.64140 0.37730 0.21290 -0.13500
C 	C 	0.64550 0.32820 0.27870 0.07300
C 	C 	0.62840 0.66000 0.09120 0.06500
C 	C 	0.64020 0.60930 0.15380 -0.13700
C 	C 	0.61780 0.52240 0.15060 0.05500
C 	C 	0.58480 0.49130 0.08090 -0.14100
C 	C 	0.57540 0.54850 0.02080 0.08500
N 	N 	0.87250 0.66680 0.05640 -0.24800
N 	N 	0.90280 0.33480 0.33350 -0.26800
N 	N 	0.86300 0.86100 0.84880 -0.24000
N 	N 	0.90600 0.13100 0.52450 -0.27100
N 	N 	0.12750 0.16680 0.94360 -0.24700
N 	N 	0.09720 0.83480 0.66650 -0.26900
N 	N 	0.13700 0.36100 0.15120 -0.24300
N 	N 	0.09400 0.63100 0.47550 -0.26900
N 	N 	0.37250 0.66680 0.44360 -0.24700
N 	N 	0.40280 0.33480 0.16650 -0.26800
N 	N 	0.36300 0.86100 0.65120 -0.23700
N 	N 	0.40600 0.13100 0.97550 -0.27600
N 	N 	0.62750 0.16680 0.55640 -0.24700
N 	N 	0.59720 0.83480 0.83350 -0.26900
N 	N 	0.63700 0.36100 0.34880 -0.24200
N 	N 	0.59400 0.63100 0.02450 -0.26900
O 	O 	0.95940 0.67400 0.88547 -0.40900
O 	O 	0.04220 0.76230 0.95510 -0.37000
O 	O 	0.10840 0.38630 0.96430 -0.43700
O 	O 	0.25390 0.37290 0.97420 -0.42100
O 	O 	0.44970 0.66790 0.85950 -0.45100
O 	O 	0.39770 0.71790 0.96380 -0.39500
O 	O 	0.04060 0.17400 0.11453 -0.40800
O 	O 	0.95780 0.26230 0.04490 -0.36900
O 	O 	0.89160 0.88630 0.03570 -0.43600
O 	O 	0.74610 0.87290 0.02580 -0.42000
O 	O 	0.55030 0.16790 0.14050 -0.45000
O 	O 	0.60230 0.21790 0.03620 -0.39400
O 	O 	0.45940 0.67400 0.61453 -0.40600
O 	O 	0.54220 0.76230 0.54490 -0.36900
O 	O 	0.60840 0.38630 0.53570 -0.43800
O 	O 	0.75390 0.37290 0.52580 -0.42200
O 	O 	0.94970 0.66790 0.64050 -0.45100
O 	O 	0.89770 0.71790 0.53620 -0.39400
O 	O 	0.54060 0.17400 0.38547 -0.40600
O 	O 	0.45780 0.26230 0.45510 -0.36800
O 	O 	0.39160 0.88630 0.46430 -0.43800
O 	O 	0.24610 0.87290 0.47420 -0.42100
O 	O 	0.05030 0.16790 0.35950 -0.45000
O 	O 	0.10230 0.21790 0.46380 -0.39300
