data_crystal

_cell_length_a 11.39660
_cell_length_b 11.47870
_cell_length_c 16.87750
_cell_angle_alpha 90.00000
_cell_angle_beta  90.00000
_cell_angle_gamma 90.00000

_symmetry_space_group_name_	'P 1'
_symmetry_space_group_name_H-M	'P 1'

loop_
_symmetry_equiv_pos_as_xyz
  x,y,z

loop_
_atom_site_label
_atom_site_type_symbol
_atom_site_fract_x
_atom_site_fract_y
_atom_site_fract_z
_atom_site_charge
Cr	Cr	0.00000 0.50000 0.50000 1.41900
Cr	Cr	-0.00000 0.00000 -0.00000 1.30400
Cr	Cr	0.50000 0.50000 -0.00000 1.40000
Cr	Cr	0.50000 -0.00000 0.50000 1.41500
C 	C 	0.77160 0.60380 0.58480 0.17300
C 	C 	0.63420 0.75860 0.59030 0.15800
C 	C 	0.70600 0.51250 0.73010 0.07300
C 	C 	0.54810 0.61790 0.83110 0.18600
C 	C 	0.49980 0.76960 0.73780 0.14500
C 	C 	0.68220 0.65980 0.62810 -0.13500
C 	C 	0.64910 0.61970 0.70330 0.06900
C 	C 	0.56670 0.66720 0.75470 -0.11700
C 	C 	0.22840 0.89620 0.08480 0.11800
C 	C 	0.36580 0.74140 0.09030 0.10400
C 	C 	0.29400 0.98750 0.23010 0.22700
C 	C 	0.45190 0.88210 0.33110 0.17100
C 	C 	0.50020 0.73040 0.23780 0.11400
C 	C 	0.31780 0.84020 0.12810 -0.11100
C 	C 	0.35090 0.88030 0.20330 0.00000
C 	C 	0.43330 0.83280 0.25470 -0.09200
C 	C 	0.27160 0.39620 0.91520 0.18100
C 	C 	0.13420 0.24140 0.90970 0.13300
C 	C 	0.20600 0.48750 0.76990 0.03600
C 	C 	0.04810 0.38210 0.66890 0.15000
C 	C 	0.99980 0.23040 0.76220 0.29200
C 	C 	0.18220 0.34020 0.87190 -0.16300
C 	C 	0.14910 0.38030 0.79670 0.10500
C 	C 	0.06670 0.33280 0.74530 -0.27800
C 	C 	0.72840 0.10380 0.41520 0.14000
C 	C 	0.86580 0.25860 0.40970 0.16300
C 	C 	0.79400 0.01250 0.26990 -0.09400
C 	C 	0.95190 0.11790 0.16890 0.12100
C 	C 	0.00020 0.26960 0.26220 -0.08100
C 	C 	0.81780 0.15980 0.37190 -0.13300
C 	C 	0.85090 0.11970 0.29670 0.06500
C 	C 	0.93330 0.16720 0.24530 0.01100
C 	C 	0.22840 0.39620 0.41520 0.13300
C 	C 	0.36580 0.24140 0.40970 0.12000
C 	C 	0.29400 0.48750 0.26990 0.04200
C 	C 	0.45190 0.38210 0.16890 0.12800
C 	C 	0.50020 0.23040 0.26220 0.09300
C 	C 	0.31780 0.34020 0.37190 -0.14000
C 	C 	0.35090 0.38030 0.29670 0.05300
C 	C 	0.43330 0.33280 0.24530 -0.12600
C 	C 	0.77160 0.10380 0.91520 0.18500
C 	C 	0.63420 0.25860 0.90970 0.17500
C 	C 	0.70600 0.01250 0.76990 -0.09800
C 	C 	0.54810 0.11790 0.66890 0.14400
C 	C 	0.49980 0.26960 0.76220 0.12400
C 	C 	0.68220 0.15980 0.87190 -0.15600
C 	C 	0.64910 0.11970 0.79670 0.11700
C 	C 	0.56670 0.16720 0.74530 -0.14900
C 	C 	0.72840 0.60380 0.08480 0.12700
C 	C 	0.86580 0.75860 0.09030 0.14500
C 	C 	0.79400 0.51250 0.23010 0.08100
C 	C 	0.95190 0.61790 0.33110 0.16500
C 	C 	0.00020 0.76960 0.23780 -0.05300
C 	C 	0.81780 0.65980 0.12810 -0.10700
C 	C 	0.85090 0.61970 0.20330 0.01700
C 	C 	0.93330 0.66720 0.25470 0.03600
C 	C 	0.27160 0.89620 0.58480 0.16600
C 	C 	0.13420 0.74140 0.59030 0.11700
C 	C 	0.20600 0.98750 0.73010 0.21400
C 	C 	0.04810 0.88210 0.83110 0.18900
C 	C 	0.99980 0.73040 0.73780 0.30400
C 	C 	0.18220 0.84020 0.62810 -0.13800
C 	C 	0.14910 0.88030 0.70330 0.05200
C 	C 	0.06670 0.83280 0.75470 -0.23700
N 	N 	0.84540 0.56150 0.54850 -0.28800
N 	N 	0.59830 0.83770 0.55540 -0.22900
N 	N 	0.74840 0.42780 0.75050 -0.09800
N 	N 	0.53330 0.58230 0.89323 -0.27000
N 	N 	0.44380 0.85040 0.72640 -0.11000
N 	N 	0.15460 0.93850 0.04850 -0.32700
N 	N 	0.40170 0.66230 0.05540 -0.29400
N 	N 	0.25160 0.07220 0.25050 -0.26100
N 	N 	0.46670 0.91770 0.39323 -0.27900
N 	N 	0.55620 0.64960 0.22640 -0.13500
N 	N 	0.34540 0.43850 0.95150 -0.27200
N 	N 	0.09830 0.16230 0.94460 -0.26200
N 	N 	0.24840 0.57220 0.74950 -0.11200
N 	N 	0.03330 0.41770 0.60677 -0.36000
N 	N 	0.94380 0.14960 0.77360 -0.16900
N 	N 	0.65460 0.06150 0.45150 -0.34300
N 	N 	0.90170 0.33770 0.44460 -0.23400
N 	N 	0.75160 0.92780 0.24950 0.00500
N 	N 	0.96670 0.08230 0.10677 -0.32200
N 	N 	0.05620 0.35040 0.27360 -0.13400
N 	N 	0.15460 0.43850 0.45150 -0.33900
N 	N 	0.40170 0.16230 0.44460 -0.28900
N 	N 	0.25160 0.57220 0.24950 -0.13300
N 	N 	0.46670 0.41770 0.10677 -0.35200
N 	N 	0.55620 0.14960 0.27360 -0.16500
N 	N 	0.84540 0.06150 0.95150 -0.26400
N 	N 	0.59830 0.33770 0.94460 -0.21900
N 	N 	0.74840 0.92780 0.74950 0.02200
N 	N 	0.53330 0.08230 0.60677 -0.34700
N 	N 	0.44380 0.35040 0.77360 -0.14000
N 	N 	0.65460 0.56150 0.04850 -0.34700
N 	N 	0.90170 0.83770 0.05540 -0.23000
N 	N 	0.75160 0.42780 0.25050 -0.11800
N 	N 	0.96670 0.58230 0.39323 -0.26700
N 	N 	0.05620 0.85040 0.22640 -0.10300
N 	N 	0.34540 0.93850 0.54850 -0.28200
N 	N 	0.09830 0.66230 0.55540 -0.28300
N 	N 	0.24840 0.07220 0.75050 -0.23600
N 	N 	0.03330 0.91770 0.89323 -0.26800
N 	N 	0.94380 0.64960 0.72640 -0.13800
