data_crystal

_cell_length_a 11.84930
_cell_length_b 13.96040
_cell_length_c 34.27380
_cell_angle_alpha 97.09610
_cell_angle_beta  99.45430
_cell_angle_gamma 100.10300

_symmetry_space_group_name_	'P 1'
_symmetry_space_group_name_H-M	'P 1'

loop_
_symmetry_equiv_pos_as_xyz
  x,y,z

loop_
_atom_site_label
_atom_site_type_symbol
_atom_site_fract_x
_atom_site_fract_y
_atom_site_fract_z
_atom_site_charge
Ce	Ce	0.13167 0.95730 0.75018 2.14700
Ce	Ce	0.84132 0.09220 0.75257 2.12600
Ce	Ce	0.51281 0.98659 0.24626 2.12300
Ce	Ce	0.86833 0.04270 0.24982 2.14700
Ce	Ce	0.15868 0.90780 0.24743 2.12600
Ce	Ce	0.48719 0.01341 0.75374 2.12300
H 	H 	0.44760 0.45180 0.85420 0.06700
H 	H 	0.60390 0.59320 0.85040 0.06000
H 	H 	0.99440 0.78970 0.94900 0.05700
H 	H 	0.10270 0.77070 0.01410 0.06600
H 	H 	0.02490 0.53240 0.12060 0.06500
H 	H 	0.87460 0.38970 0.12360 0.05400
H 	H 	0.46750 0.20470 0.02930 0.06000
H 	H 	0.36170 0.22560 0.96380 0.06200
H 	H 	0.67470 0.51440 0.95990 0.14100
H 	H 	0.79390 0.47670 0.01670 0.14200
H 	H 	0.92820 0.64360 0.86940 0.09500
H 	H 	0.98250 0.74800 0.82490 -0.00400
H 	H 	0.75520 0.91450 0.85500 -0.00300
H 	H 	0.69810 0.80710 0.89830 0.09400
H 	H 	0.00070 0.78750 0.09120 0.09500
H 	H 	0.13930 0.88440 0.14310 -0.00700
H 	H 	0.35830 0.69680 0.12800 0.00600
H 	H 	0.21270 0.59490 0.07820 0.10100
H 	H 	0.52730 0.30600 0.10160 0.09700
H 	H 	0.51030 0.21190 0.15220 -0.00200
H 	H 	0.79930 0.11170 0.13350 0.00300
H 	H 	0.81310 0.20380 0.08120 0.09000
H 	H 	0.26980 0.42990 0.90220 0.09800
H 	H 	0.11000 0.34670 0.85500 0.01200
H 	H 	0.26910 0.11590 0.83520 0.00300
H 	H 	0.43010 0.19910 0.88440 0.10600
H 	H 	0.02610 0.44070 0.36070 0.06100
H 	H 	0.18370 0.58190 0.35960 0.05700
H 	H 	0.52840 0.80970 0.47050 0.06100
H 	H 	0.61260 0.80000 0.54080 0.06500
H 	H 	0.51920 0.56130 0.64470 0.06300
H 	H 	0.36030 0.41900 0.64580 0.06200
H 	H 	0.96800 0.23600 0.54370 0.05300
H 	H 	0.88190 0.24640 0.47370 0.06900
H 	H 	0.20800 0.52610 0.47350 0.14200
H 	H 	0.30400 0.50170 0.53610 0.14300
H 	H 	0.20350 0.77750 0.39830 0.09300
H 	H 	0.23860 0.87310 0.34940 -0.01800
H 	H 	0.55630 0.80290 0.35530 0.00800
H 	H 	0.51610 0.69760 0.40070 0.09400
H 	H 	0.51020 0.80240 0.62520 0.11100
H 	H 	0.66460 0.89430 0.67430 -0.02600
H 	H 	0.87100 0.71230 0.64160 0.00300
H 	H 	0.71750 0.62230 0.59210 0.10800
H 	H 	0.03930 0.37980 0.62230 0.09800
H 	H 	0.97710 0.28430 0.66790 -0.00900
H 	H 	0.20720 0.11130 0.64580 0.01300
H 	H 	0.26550 0.20710 0.59850 0.09500
H 	H 	0.81710 0.42050 0.39630 0.09500
H 	H 	0.68000 0.32310 0.34470 0.00800
H 	H 	0.86140 0.10090 0.35190 0.00300
H 	H 	0.99020 0.19790 0.40670 0.08800
H 	H 	0.31870 0.23860 0.75640 -0.08000
H 	H 	0.55240 0.54820 0.14580 0.06600
H 	H 	0.39610 0.40680 0.14960 0.05900
H 	H 	0.00560 0.21030 0.05100 0.05700
H 	H 	0.89730 0.22930 0.98590 0.06600
H 	H 	0.97510 0.46760 0.87940 0.06500
H 	H 	0.12540 0.61030 0.87640 0.05400
H 	H 	0.53250 0.79530 0.97070 0.06000
H 	H 	0.63830 0.77440 0.03620 0.06200
H 	H 	0.32530 0.48560 0.04010 0.14100
H 	H 	0.20610 0.52330 0.98330 0.14200
H 	H 	0.07180 0.35640 0.13060 0.09500
H 	H 	0.01750 0.25200 0.17510 -0.00400
H 	H 	0.24480 0.08550 0.14500 -0.00300
H 	H 	0.30190 0.19290 0.10170 0.09400
H 	H 	0.99930 0.21250 0.90880 0.09500
H 	H 	0.86070 0.11560 0.85690 -0.00700
H 	H 	0.64170 0.30320 0.87200 0.00600
H 	H 	0.78730 0.40510 0.92180 0.10100
H 	H 	0.47270 0.69400 0.89840 0.09700
H 	H 	0.48970 0.78810 0.84780 -0.00200
H 	H 	0.20070 0.88830 0.86650 0.00300
H 	H 	0.18690 0.79620 0.91880 0.09000
H 	H 	0.73020 0.57010 0.09780 0.09800
H 	H 	0.89000 0.65330 0.14500 0.01200
H 	H 	0.73090 0.88410 0.16480 0.00300
H 	H 	0.56990 0.80090 0.11560 0.10600
H 	H 	0.97390 0.55930 0.63930 0.06100
H 	H 	0.81630 0.41810 0.64040 0.05700
H 	H 	0.47160 0.19030 0.52950 0.06100
H 	H 	0.38740 0.20000 0.45920 0.06500
H 	H 	0.48080 0.43870 0.35530 0.06300
H 	H 	0.63970 0.58100 0.35420 0.06200
H 	H 	0.03200 0.76400 0.45630 0.05300
H 	H 	0.11810 0.75360 0.52630 0.06900
H 	H 	0.79200 0.47390 0.52650 0.14200
H 	H 	0.69600 0.49830 0.46390 0.14300
H 	H 	0.79650 0.22250 0.60170 0.09300
H 	H 	0.76140 0.12690 0.65060 -0.01800
H 	H 	0.44370 0.19710 0.64470 0.00800
H 	H 	0.48390 0.30240 0.59930 0.09400
H 	H 	0.48980 0.19760 0.37480 0.11100
H 	H 	0.33540 0.10570 0.32570 -0.02600
H 	H 	0.12900 0.28770 0.35840 0.00300
H 	H 	0.28250 0.37770 0.40790 0.10800
H 	H 	0.96070 0.62020 0.37770 0.09800
H 	H 	0.02290 0.71570 0.33210 -0.00900
H 	H 	0.79280 0.88870 0.35420 0.01300
H 	H 	0.73450 0.79290 0.40150 0.09500
H 	H 	0.18290 0.57950 0.60370 0.09500
H 	H 	0.32000 0.67690 0.65530 0.00800
H 	H 	0.13860 0.89910 0.64810 0.00300
H 	H 	0.00980 0.80210 0.59330 0.08800
H 	H 	0.68130 0.76140 0.24360 -0.08000
C 	C 	0.54100 0.45580 0.91398 0.13100
C 	C 	0.51280 0.48220 0.87459 -0.08800
C 	C 	0.59830 0.55930 0.87260 -0.08600
C 	C 	0.67950 0.58020 0.91070 0.12500
C 	C 	0.78180 0.65170 0.91938 -0.13400
C 	C 	0.86820 0.66640 0.95390 0.10700
C 	C 	0.97110 0.74080 0.96465 -0.06900
C 	C 	0.03010 0.73120 0.00040 -0.09300
C 	C 	0.96310 0.64990 0.01417 0.12000
C 	C 	0.99270 0.61560 0.05046 -0.13600
C 	C 	0.92910 0.53290 0.06204 0.13800
C 	C 	0.95910 0.50280 0.10026 -0.09800
C 	C 	0.87740 0.42560 0.10181 -0.08100
C 	C 	0.79400 0.40590 0.06474 0.12300
C 	C 	0.68980 0.33440 0.05632 -0.12900
C 	C 	0.60100 0.32220 0.02283 0.11000
C 	C 	0.49350 0.25170 0.01325 -0.07800
C 	C 	0.43530 0.26360 0.97748 -0.07700
C 	C 	0.50340 0.34340 0.96353 0.11200
C 	C 	0.47480 0.37800 0.92718 -0.12800
C 	C 	0.80940 0.71570 0.88907 0.14300
C 	C 	0.89250 0.69890 0.86660 -0.19100
C 	C 	0.92500 0.76090 0.84003 0.11200
C 	C 	0.87370 0.84190 0.83545 -0.19900
C 	C 	0.79040 0.85890 0.85762 0.11200
C 	C 	0.75740 0.79540 0.88381 -0.19000
C 	C 	0.91460 0.91000 0.80832 0.44500
C 	C 	0.09020 0.67980 0.08079 0.14100
C 	C 	0.07200 0.76710 0.09949 -0.17900
C 	C 	0.15470 0.82550 0.12991 0.09900
C 	C 	0.26080 0.79800 0.14128 -0.18800
C 	C 	0.28410 0.71380 0.12136 0.10500
C 	C 	0.19780 0.65390 0.09143 -0.18300
C 	C 	0.34920 0.86110 0.17593 0.41600
C 	C 	0.67250 0.26740 0.08702 0.13700
C 	C 	0.58350 0.26670 0.10807 -0.19200
C 	C 	0.57310 0.21100 0.13821 0.11500
C 	C 	0.65410 0.15390 0.14805 -0.19700
C 	C 	0.74370 0.15140 0.12695 0.10000
C 	C 	0.75260 0.20690 0.09610 -0.17800
C 	C 	0.65110 0.09660 0.18180 0.43600
C 	C 	0.36750 0.32180 0.89826 0.13200
C 	C 	0.26990 0.36600 0.88885 -0.17600
C 	C 	0.17590 0.31700 0.86061 0.09900
C 	C 	0.17410 0.22390 0.83970 -0.18000
C 	C 	0.26910 0.17950 0.84876 0.10000
C 	C 	0.36510 0.22960 0.87820 -0.17300
C 	C 	0.07130 0.17560 0.80774 0.41800
C 	C 	0.09090 0.45910 0.42418 0.12800
C 	C 	0.08210 0.47670 0.38307 -0.09100
C 	C 	0.16770 0.55350 0.38244 -0.08600
C 	C 	0.23120 0.58440 0.42345 0.12700
C 	C 	0.32660 0.66130 0.43463 -0.13100
C 	C 	0.40100 0.68260 0.47204 0.11000
C 	C 	0.50000 0.76150 0.48576 -0.07600
C 	C 	0.54680 0.75600 0.52444 -0.08200
C 	C 	0.47960 0.67280 0.53591 0.11800
C 	C 	0.49900 0.64260 0.57335 -0.14000
C 	C 	0.43170 0.56040 0.58420 0.13300
C 	C 	0.45560 0.53160 0.62350 -0.08600
C 	C 	0.36950 0.45390 0.62405 -0.08800
C 	C 	0.29380 0.43440 0.58458 0.12500
C 	C 	0.19070 0.36340 0.57437 -0.13300
C 	C 	0.10980 0.34910 0.53856 0.10600
C 	C 	0.00090 0.27890 0.52731 -0.06000
C 	C 	0.95330 0.28510 0.48885 -0.09600
C 	C 	0.02880 0.35930 0.47531 0.11800
C 	C 	0.01660 0.38480 0.43700 -0.12500
C 	C 	0.35380 0.72670 0.40475 0.13400
C 	C 	0.27500 0.78070 0.38895 -0.18200
C 	C 	0.29610 0.83890 0.36021 0.09900
C 	C 	0.40160 0.84730 0.34713 -0.19200
C 	C 	0.48280 0.79570 0.36344 0.10300
C 	C 	0.46020 0.73440 0.39104 -0.18100
C 	C 	0.43090 0.91010 0.31707 0.39000
C 	C 	0.59830 0.70150 0.60361 0.16000
C 	C 	0.58400 0.78360 0.62825 -0.20200
C 	C 	0.67650 0.83890 0.65752 0.13200
C 	C 	0.78360 0.81410 0.66226 -0.21000
C 	C 	0.79770 0.73200 0.63820 0.12300
C 	C 	0.70520 0.67750 0.60882 -0.20500
C 	C 	0.88490 0.87150 0.69348 0.43900
C 	C 	0.15650 0.30230 0.60537 0.14300
C 	C 	0.07280 0.32420 0.62670 -0.19800
C 	C 	0.03640 0.26830 0.65411 0.11900
C 	C 	0.08620 0.18860 0.66168 -0.19600
C 	C 	0.17220 0.16600 0.64077 0.10800
C 	C 	0.20700 0.22290 0.61265 -0.18400
C 	C 	0.04510 0.12670 0.69080 0.45600
C 	C 	0.92000 0.31980 0.40616 0.12400
C 	C 	0.82530 0.35530 0.38746 -0.17200
C 	C 	0.74450 0.29800 0.35676 0.09200
C 	C 	0.75650 0.20160 0.34279 -0.17800
C 	C 	0.85100 0.16510 0.36122 0.08400
C 	C 	0.92870 0.22400 0.39319 -0.16300
C 	C 	0.67640 0.13860 0.30710 0.39500
C 	C 	0.36210 0.18740 0.75700 0.37500
C 	C 	0.45900 0.54420 0.08602 0.13100
C 	C 	0.48720 0.51780 0.12541 -0.08800
C 	C 	0.40170 0.44070 0.12740 -0.08600
C 	C 	0.32050 0.41980 0.08930 0.12500
C 	C 	0.21820 0.34830 0.08062 -0.13400
C 	C 	0.13180 0.33360 0.04610 0.10700
C 	C 	0.02890 0.25920 0.03535 -0.06900
C 	C 	0.96990 0.26880 0.99960 -0.09300
C 	C 	0.03690 0.35010 0.98583 0.12000
C 	C 	0.00730 0.38440 0.94954 -0.13600
C 	C 	0.07090 0.46710 0.93796 0.13800
C 	C 	0.04090 0.49720 0.89974 -0.09800
C 	C 	0.12260 0.57440 0.89819 -0.08100
C 	C 	0.20600 0.59410 0.93526 0.12300
C 	C 	0.31020 0.66560 0.94368 -0.12900
C 	C 	0.39900 0.67780 0.97717 0.11000
C 	C 	0.50650 0.74830 0.98675 -0.07800
C 	C 	0.56470 0.73640 0.02252 -0.07700
C 	C 	0.49660 0.65660 0.03647 0.11200
C 	C 	0.52520 0.62200 0.07282 -0.12800
C 	C 	0.19060 0.28430 0.11093 0.14300
C 	C 	0.10750 0.30110 0.13340 -0.19100
C 	C 	0.07500 0.23910 0.15997 0.11200
C 	C 	0.12630 0.15810 0.16455 -0.19900
C 	C 	0.20960 0.14110 0.14238 0.11200
C 	C 	0.24260 0.20460 0.11619 -0.19000
C 	C 	0.08540 0.09000 0.19168 0.44500
C 	C 	0.90980 0.32020 0.91921 0.14100
C 	C 	0.92800 0.23290 0.90051 -0.17900
C 	C 	0.84530 0.17450 0.87009 0.09900
C 	C 	0.73920 0.20200 0.85872 -0.18800
C 	C 	0.71590 0.28620 0.87864 0.10500
C 	C 	0.80220 0.34610 0.90857 -0.18300
C 	C 	0.65080 0.13890 0.82407 0.41600
C 	C 	0.32750 0.73260 0.91298 0.13700
C 	C 	0.41650 0.73330 0.89193 -0.19200
C 	C 	0.42690 0.78900 0.86179 0.11500
C 	C 	0.34590 0.84610 0.85195 -0.19700
C 	C 	0.25630 0.84860 0.87305 0.10000
C 	C 	0.24740 0.79310 0.90390 -0.17800
C 	C 	0.34890 0.90340 0.81820 0.43600
C 	C 	0.63250 0.67820 0.10174 0.13200
C 	C 	0.73010 0.63400 0.11115 -0.17600
C 	C 	0.82410 0.68300 0.13939 0.09900
C 	C 	0.82590 0.77610 0.16030 -0.18000
C 	C 	0.73090 0.82050 0.15124 0.10000
C 	C 	0.63490 0.77040 0.12180 -0.17300
C 	C 	0.92870 0.82440 0.19226 0.41800
C 	C 	0.90910 0.54090 0.57582 0.12800
C 	C 	0.91790 0.52330 0.61693 -0.09100
C 	C 	0.83230 0.44650 0.61756 -0.08600
C 	C 	0.76880 0.41560 0.57655 0.12700
C 	C 	0.67340 0.33870 0.56537 -0.13100
C 	C 	0.59900 0.31740 0.52796 0.11000
C 	C 	0.50000 0.23850 0.51424 -0.07600
C 	C 	0.45320 0.24400 0.47556 -0.08200
C 	C 	0.52040 0.32720 0.46409 0.11800
C 	C 	0.50100 0.35740 0.42665 -0.14000
C 	C 	0.56830 0.43960 0.41580 0.13300
C 	C 	0.54440 0.46840 0.37650 -0.08600
C 	C 	0.63050 0.54610 0.37595 -0.08800
C 	C 	0.70620 0.56560 0.41542 0.12500
C 	C 	0.80930 0.63660 0.42563 -0.13300
C 	C 	0.89020 0.65090 0.46144 0.10600
C 	C 	0.99910 0.72110 0.47269 -0.06000
C 	C 	0.04670 0.71490 0.51115 -0.09600
C 	C 	0.97120 0.64070 0.52469 0.11800
C 	C 	0.98340 0.61520 0.56300 -0.12500
C 	C 	0.64620 0.27330 0.59525 0.13400
C 	C 	0.72500 0.21930 0.61105 -0.18200
C 	C 	0.70390 0.16110 0.63979 0.09900
C 	C 	0.59840 0.15270 0.65287 -0.19200
C 	C 	0.51720 0.20430 0.63656 0.10300
C 	C 	0.53980 0.26560 0.60896 -0.18100
C 	C 	0.56910 0.08990 0.68293 0.39000
C 	C 	0.40170 0.29850 0.39639 0.16000
C 	C 	0.41600 0.21640 0.37175 -0.20200
C 	C 	0.32350 0.16110 0.34248 0.13200
C 	C 	0.21640 0.18590 0.33774 -0.21000
C 	C 	0.20230 0.26800 0.36180 0.12300
C 	C 	0.29480 0.32250 0.39118 -0.20500
C 	C 	0.11510 0.12850 0.30652 0.43900
C 	C 	0.84350 0.69770 0.39463 0.14300
C 	C 	0.92720 0.67580 0.37330 -0.19800
C 	C 	0.96360 0.73170 0.34589 0.11900
C 	C 	0.91380 0.81140 0.33832 -0.19600
C 	C 	0.82780 0.83400 0.35923 0.10800
C 	C 	0.79300 0.77710 0.38735 -0.18400
C 	C 	0.95490 0.87330 0.30920 0.45600
C 	C 	0.08000 0.68020 0.59384 0.12400
C 	C 	0.17470 0.64470 0.61254 -0.17200
C 	C 	0.25550 0.70200 0.64324 0.09200
C 	C 	0.24350 0.79840 0.65721 -0.17800
C 	C 	0.14900 0.83490 0.63878 0.08400
C 	C 	0.07130 0.77600 0.60681 -0.16300
C 	C 	0.32360 0.86140 0.69290 0.39500
C 	C 	0.63790 0.81260 0.24300 0.37500
N 	N 	0.64110 0.51620 0.93522 -0.22500
N 	N 	0.86600 0.61150 0.98522 -0.14300
N 	N 	0.82930 0.47310 0.04101 -0.22500
N 	N 	0.60310 0.37780 0.99194 -0.14200
N 	N 	0.18340 0.52370 0.44763 -0.22400
N 	N 	0.39010 0.63080 0.50390 -0.14200
N 	N 	0.33440 0.49940 0.56116 -0.22400
N 	N 	0.12390 0.39730 0.50624 -0.14200
N 	N 	0.35890 0.48380 0.06478 -0.22500
N 	N 	0.13400 0.38850 0.01478 -0.14300
N 	N 	0.17070 0.52690 0.95899 -0.22500
N 	N 	0.39690 0.62220 0.00806 -0.14200
N 	N 	0.81660 0.47630 0.55237 -0.22400
N 	N 	0.60990 0.36920 0.49610 -0.14200
N 	N 	0.66560 0.50060 0.43884 -0.22400
N 	N 	0.87610 0.60270 0.49376 -0.14200
O 	O 	0.99760 0.89180 0.79159 -0.51900
O 	O 	0.86030 0.97910 0.80241 -0.51300
O 	O 	0.31150 0.89270 0.20629 -0.67500
O 	O 	0.45410 0.88290 0.17365 -0.43500
O 	O 	0.56860 0.10130 0.20098 -0.52800
O 	O 	0.72810 0.04920 0.19106 -0.55100
O 	O 	0.98360 0.21570 0.80362 -0.49400
O 	O 	0.07340 0.09650 0.78551 -0.60000
O 	O 	0.35050 0.93480 0.29305 -0.63600
O 	O 	0.53730 0.94030 0.31570 -0.44200
O 	O 	0.86800 0.94700 0.71487 -0.59000
O 	O 	0.98080 0.84290 0.69830 -0.49200
O 	O 	0.09410 0.05580 0.69755 -0.50700
O 	O 	0.96230 0.14930 0.70698 -0.54200
O 	O 	0.57230 0.15140 0.29740 -0.44900
O 	O 	0.71330 0.07550 0.28600 -0.64600
O 	O 	0.31530 0.09910 0.75989 -0.56600
O 	O 	0.47420 0.20330 0.75485 -0.39800
O 	O 	0.00240 0.10820 0.20841 -0.51900
O 	O 	0.13970 0.02090 0.19759 -0.51300
O 	O 	0.68850 0.10730 0.79371 -0.67500
O 	O 	0.54590 0.11710 0.82635 -0.43500
O 	O 	0.43140 0.89870 0.79902 -0.52800
O 	O 	0.27190 0.95080 0.80894 -0.55100
O 	O 	0.01640 0.78430 0.19638 -0.49400
O 	O 	0.92660 0.90350 0.21449 -0.60000
O 	O 	0.64950 0.06520 0.70695 -0.63600
O 	O 	0.46270 0.05970 0.68430 -0.44200
O 	O 	0.13200 0.05300 0.28513 -0.59000
O 	O 	0.01920 0.15710 0.30170 -0.49200
O 	O 	0.90590 0.94420 0.30245 -0.50700
O 	O 	0.03770 0.85070 0.29302 -0.54200
O 	O 	0.42770 0.84860 0.70260 -0.44900
O 	O 	0.28670 0.92450 0.71400 -0.64600
O 	O 	0.68470 0.90090 0.24011 -0.56600
O 	O 	0.52580 0.79670 0.24515 -0.39800
