data_crystal

_cell_length_a 7.93410
_cell_length_b 13.86970
_cell_length_c 7.33610
_cell_angle_alpha 90.00000
_cell_angle_beta  90.00000
_cell_angle_gamma 90.00000

_symmetry_space_group_name_	'P 1'
_symmetry_space_group_name_H-M	'P 1'

loop_
_symmetry_equiv_pos_as_xyz
  x,y,z

loop_
_atom_site_label
_atom_site_type_symbol
_atom_site_fract_x
_atom_site_fract_y
_atom_site_fract_z
_atom_site_charge
Co	Co	0.22306 0.33545 0.75887 1.21300
O 	O 	0.10720 0.22871 0.60830 -0.39400
O 	O 	0.92930 0.16391 0.41330 -0.39600
O 	O 	0.31280 0.21260 0.90140 -0.36500
O 	O 	0.50840 0.14626 0.07710 -0.37200
O 	O 	0.11330 0.45227 0.61780 -0.36900
O 	O 	0.13060 0.57152 0.41850 -0.37900
C 	C 	0.98890 0.23298 0.49870 0.47700
H 	H 	0.94060 0.29320 0.47880 -0.10700
C 	C 	0.44520 0.21476 0.99330 0.43800
H 	H 	0.50170 0.27340 0.99940 -0.09800
C 	C 	0.19170 0.50414 0.50730 0.44700
H 	H 	0.30560 0.49100 0.49030 -0.09500
Co	Co	0.27694 0.66455 0.25887 1.21300
O 	O 	0.39280 0.77129 0.10830 -0.39900
O 	O 	0.57070 0.83609 0.91330 -0.39700
O 	O 	0.18720 0.78740 0.40140 -0.36500
O 	O 	0.99160 0.85374 0.57710 -0.37200
O 	O 	0.38670 0.54773 0.11780 -0.36800
O 	O 	0.36940 0.42848 0.91850 -0.37800
C 	C 	0.51110 0.76702 0.99870 0.48500
H 	H 	0.55940 0.70680 0.97880 -0.10900
C 	C 	0.05480 0.78524 0.49330 0.43500
H 	H 	0.99830 0.72660 0.49940 -0.09500
C 	C 	0.30830 0.49586 0.00730 0.44400
H 	H 	0.19440 0.50900 0.99030 -0.09300
Co	Co	0.77694 0.83545 0.74113 1.21300
O 	O 	0.89280 0.72871 0.89170 -0.39500
O 	O 	0.07070 0.66391 0.08670 -0.39600
O 	O 	0.68720 0.71260 0.59860 -0.36600
O 	O 	0.49160 0.64626 0.42290 -0.37500
O 	O 	0.88670 0.95227 0.88220 -0.36500
O 	O 	0.86940 0.07152 0.08150 -0.37400
C 	C 	0.01110 0.73298 0.00130 0.47800
H 	H 	0.05940 0.79320 0.02120 -0.10800
C 	C 	0.55480 0.71476 0.50670 0.44100
H 	H 	0.49830 0.77340 0.50060 -0.09800
C 	C 	0.80830 0.00414 0.99270 0.43500
H 	H 	0.69440 0.99100 0.00970 -0.09200
Co	Co	0.72306 0.16455 0.24113 1.21300
O 	O 	0.60720 0.27129 0.39170 -0.39700
O 	O 	0.42930 0.33609 0.58670 -0.39700
O 	O 	0.81280 0.28740 0.09860 -0.36500
O 	O 	0.00840 0.35374 0.92290 -0.37300
O 	O 	0.61330 0.04773 0.38220 -0.36700
O 	O 	0.63060 0.92848 0.58150 -0.37800
C 	C 	0.48890 0.26702 0.50130 0.48200
H 	H 	0.44060 0.20680 0.52120 -0.10800
C 	C 	0.94520 0.28524 0.00670 0.43800
H 	H 	0.00170 0.22660 0.00060 -0.09600
C 	C 	0.69170 0.99586 0.49270 0.44400
H 	H 	0.80560 0.00900 0.50970 -0.09500
