data_crystal

_cell_length_a 7.94350
_cell_length_b 13.83390
_cell_length_c 7.30160
_cell_angle_alpha 90.00000
_cell_angle_beta  90.00000
_cell_angle_gamma 90.00000

_symmetry_space_group_name_	'P 1'
_symmetry_space_group_name_H-M	'P 1'

loop_
_symmetry_equiv_pos_as_xyz
  x,y,z

loop_
_atom_site_label
_atom_site_type_symbol
_atom_site_fract_x
_atom_site_fract_y
_atom_site_fract_z
_atom_site_charge
Co	Co	0.21919 0.33541 0.75969 1.20800
O 	O 	0.10451 0.22848 0.60839 -0.38300
O 	O 	0.92571 0.16384 0.41139 -0.38300
O 	O 	0.30674 0.21147 0.90291 -0.35100
O 	O 	0.50341 0.14450 0.07831 -0.35800
O 	O 	0.11168 0.45314 0.61960 -0.35700
O 	O 	0.13201 0.57273 0.41822 -0.36700
C 	C 	0.98440 0.23405 0.49870 0.43400
H 	H 	0.93420 0.29560 0.48020 -0.08800
C 	C 	0.44280 0.21412 0.99100 0.39600
H 	H 	0.50380 0.27320 0.99120 -0.08000
C 	C 	0.19410 0.50501 0.50940 0.40500
H 	H 	0.31070 0.49180 0.49470 -0.07700
Co	Co	0.28081 0.66459 0.25969 1.20900
O 	O 	0.39549 0.77152 0.10839 -0.38600
O 	O 	0.57429 0.83616 0.91139 -0.38400
O 	O 	0.19326 0.78853 0.40291 -0.35100
O 	O 	0.99659 0.85550 0.57831 -0.35800
O 	O 	0.38832 0.54686 0.11960 -0.35600
O 	O 	0.36799 0.42727 0.91822 -0.36600
C 	C 	0.51560 0.76595 0.99870 0.44200
H 	H 	0.56580 0.70440 0.98020 -0.09000
C 	C 	0.05720 0.78588 0.49100 0.39300
H 	H 	0.99620 0.72680 0.49120 -0.07800
C 	C 	0.30590 0.49499 0.00940 0.40200
H 	H 	0.18930 0.50820 0.99470 -0.07600
Co	Co	0.78081 0.83541 0.74031 1.20900
O 	O 	0.89549 0.72848 0.89161 -0.38300
O 	O 	0.07429 0.66384 0.08861 -0.38300
O 	O 	0.69326 0.71147 0.59709 -0.35200
O 	O 	0.49659 0.64450 0.42169 -0.36000
O 	O 	0.88832 0.95314 0.88040 -0.35300
O 	O 	0.86799 0.07273 0.08178 -0.36300
C 	C 	0.01560 0.73405 0.00130 0.43500
H 	H 	0.06580 0.79560 0.01980 -0.08900
C 	C 	0.55720 0.71412 0.50900 0.39800
H 	H 	0.49620 0.77320 0.50880 -0.08000
C 	C 	0.80590 0.00501 0.99060 0.39500
H 	H 	0.68930 0.99180 0.00530 -0.07500
Co	Co	0.71919 0.16459 0.24031 1.20900
O 	O 	0.60451 0.27152 0.39161 -0.38500
O 	O 	0.42571 0.33616 0.58861 -0.38300
O 	O 	0.80674 0.28853 0.09709 -0.35100
O 	O 	0.00341 0.35550 0.92169 -0.35900
O 	O 	0.61168 0.04686 0.38040 -0.35600
O 	O 	0.63201 0.92727 0.58178 -0.36700
C 	C 	0.48440 0.26595 0.50130 0.43900
H 	H 	0.43420 0.20440 0.51980 -0.08900
C 	C 	0.94280 0.28588 0.00900 0.39600
H 	H 	0.00380 0.22680 0.00880 -0.07900
C 	C 	0.69410 0.99499 0.49060 0.40300
H 	H 	0.81070 0.00820 0.50530 -0.07700
