data_crystal

_cell_length_a 9.85360
_cell_length_b 9.85360
_cell_length_c 48.88650
_cell_angle_alpha 90.00000
_cell_angle_beta  90.00000
_cell_angle_gamma 90.00000

_symmetry_space_group_name_	'P 1'
_symmetry_space_group_name_H-M	'P 1'

loop_
_symmetry_equiv_pos_as_xyz
  x,y,z

loop_
_atom_site_label
_atom_site_type_symbol
_atom_site_fract_x
_atom_site_fract_y
_atom_site_fract_z
_atom_site_charge
Cd	Cd	0.75151 0.80887 0.07767 1.22700
C 	C 	0.72130 0.80170 0.16290 -0.14200
C 	C 	0.70720 0.67730 0.17790 0.08900
H 	H 	0.70230 0.59490 0.16860 -0.01200
C 	C 	0.70080 0.68060 0.20650 -0.17100
C 	C 	0.70560 0.80540 0.22000 0.09600
H 	H 	0.69760 0.80860 0.23890 0.01600
C 	C 	0.72240 0.92700 0.20490 -0.17900
C 	C 	0.73620 0.91980 0.17700 0.10200
H 	H 	0.75660 0.99860 0.16740 -0.00200
C 	C 	0.72990 0.79960 0.13290 0.32000
C 	C 	0.69020 0.55320 0.22220 0.36400
C 	C 	0.72580 0.05960 0.21960 0.39800
C 	C 	0.28320 0.47580 0.04650 0.06600
C 	C 	0.39800 0.41300 0.04030 -0.07300
H 	H 	0.47760 0.46250 0.03790 0.06200
C 	C 	0.39800 0.27200 0.03730 -0.07800
H 	H 	0.47930 0.22600 0.03530 0.06800
C 	C 	0.28030 0.20400 0.03730 0.08000
C 	C 	0.16420 0.27080 0.04260 -0.08500
H 	H 	0.08250 0.22380 0.04370 0.06400
C 	C 	0.16700 0.40900 0.04620 -0.06400
H 	H 	0.08610 0.45640 0.04860 0.06500
C 	C 	0.28570 0.63160 0.05350 -0.12000
H 	H 	0.36810 0.65220 0.06350 0.07500
H 	H 	0.28730 0.68330 0.03660 0.08100
C 	C 	0.15700 0.64700 0.09730 -0.00900
H 	H 	0.22170 0.60990 0.10890 0.04000
C 	C 	0.03090 0.68800 0.10450 -0.00200
H 	H 	0.99350 0.68310 0.12200 0.03300
C 	C 	0.05740 0.72560 0.06140 0.08100
H 	H 	0.03980 0.75240 0.04350 -0.00300
C 	C 	0.27900 0.05000 0.03370 -0.14500
H 	H 	0.18680 0.01730 0.03530 0.08400
H 	H 	0.31190 0.02760 0.01560 0.08500
C 	C 	0.33200 0.97700 0.08090 -0.00800
H 	H 	0.25300 0.00430 0.08970 0.03800
C 	C 	0.44700 0.92000 0.09200 0.02200
H 	H 	0.45750 0.90440 0.11070 0.02300
C 	C 	0.48580 0.93320 0.04990 0.07200
H 	H 	0.52830 0.92880 0.03300 0.00800
N 	N 	0.96800 0.73800 0.08160 -0.22300
N 	N 	0.17270 0.67180 0.06920 -0.10200
N 	N 	0.54330 0.88980 0.07350 -0.23300
N 	N 	0.36220 0.98260 0.05370 -0.09500
O 	O 	0.67990 0.70360 0.11925 -0.36400
O 	O 	0.77950 0.90260 0.12127 -0.37100
O 	O 	0.68070 0.44090 0.21025 -0.51500
O 	O 	0.68980 0.55860 0.24830 -0.36100
O 	O 	0.78350 0.16050 0.20740 -0.48600
O 	O 	0.66520 0.07740 0.24050 -0.42700
Cd	Cd	0.24849 0.19113 0.57767 1.22600
C 	C 	0.27870 0.19830 0.66290 -0.14300
C 	C 	0.29280 0.32270 0.67790 0.08800
H 	H 	0.29770 0.40510 0.66860 -0.01300
C 	C 	0.29920 0.31940 0.70650 -0.17200
C 	C 	0.29440 0.19460 0.72000 0.09500
H 	H 	0.30240 0.19140 0.73890 0.01500
C 	C 	0.27760 0.07300 0.70490 -0.18000
C 	C 	0.26380 0.08020 0.67700 0.10100
H 	H 	0.24340 0.00140 0.66740 -0.00200
C 	C 	0.27010 0.20040 0.63290 0.32000
C 	C 	0.30980 0.44680 0.72220 0.36400
C 	C 	0.27420 0.94040 0.71960 0.39700
C 	C 	0.71680 0.52420 0.54650 0.06600
C 	C 	0.60200 0.58700 0.54030 -0.07300
H 	H 	0.52240 0.53750 0.53790 0.06200
C 	C 	0.60200 0.72800 0.53730 -0.07800
H 	H 	0.52070 0.77400 0.53530 0.06800
C 	C 	0.71970 0.79600 0.53730 0.08100
C 	C 	0.83580 0.72920 0.54260 -0.08500
H 	H 	0.91750 0.77620 0.54370 0.06400
C 	C 	0.83300 0.59100 0.54620 -0.06400
H 	H 	0.91390 0.54360 0.54860 0.06500
C 	C 	0.71430 0.36840 0.55350 -0.12000
H 	H 	0.63190 0.34780 0.56350 0.07500
H 	H 	0.71270 0.31670 0.53660 0.08100
C 	C 	0.84300 0.35300 0.59730 -0.00900
H 	H 	0.77830 0.39010 0.60890 0.04000
C 	C 	0.96910 0.31200 0.60450 -0.00200
H 	H 	0.00650 0.31690 0.62200 0.03300
C 	C 	0.94260 0.27440 0.56140 0.08100
H 	H 	0.96020 0.24760 0.54350 -0.00300
C 	C 	0.72100 0.95000 0.53370 -0.14500
H 	H 	0.81320 0.98270 0.53530 0.08400
H 	H 	0.68810 0.97240 0.51560 0.08500
C 	C 	0.66800 0.02300 0.58090 -0.00800
H 	H 	0.74700 0.99570 0.58970 0.03800
C 	C 	0.55300 0.08000 0.59200 0.02200
H 	H 	0.54250 0.09560 0.61070 0.02300
C 	C 	0.51420 0.06680 0.54990 0.07200
H 	H 	0.47170 0.07120 0.53300 0.00800
N 	N 	0.03200 0.26200 0.58160 -0.22300
N 	N 	0.82730 0.32820 0.56920 -0.10200
N 	N 	0.45670 0.11020 0.57350 -0.23300
N 	N 	0.63780 0.01740 0.55370 -0.09500
O 	O 	0.32010 0.29640 0.61925 -0.36400
O 	O 	0.22050 0.09740 0.62127 -0.37100
O 	O 	0.31930 0.55910 0.71025 -0.51500
O 	O 	0.31020 0.44140 0.74830 -0.36100
O 	O 	0.21650 0.83950 0.70740 -0.48600
O 	O 	0.33480 0.92260 0.74050 -0.42700
Cd	Cd	0.69113 0.25151 0.32767 1.22500
C 	C 	0.69830 0.22130 0.41290 -0.14200
C 	C 	0.82270 0.20720 0.42790 0.08700
H 	H 	0.90510 0.20230 0.41860 -0.01400
C 	C 	0.81940 0.20080 0.45650 -0.17000
C 	C 	0.69460 0.20560 0.47000 0.09400
H 	H 	0.69140 0.19760 0.48890 0.01700
C 	C 	0.57300 0.22240 0.45490 -0.17800
C 	C 	0.58020 0.23620 0.42700 0.10100
H 	H 	0.50140 0.25660 0.41740 -0.00300
C 	C 	0.70040 0.22990 0.38290 0.32000
C 	C 	0.94680 0.19020 0.47220 0.35800
C 	C 	0.44040 0.22580 0.46960 0.39700
C 	C 	0.02420 0.78320 0.29650 0.06600
C 	C 	0.08700 0.89800 0.29030 -0.07300
H 	H 	0.03750 0.97760 0.28790 0.06100
C 	C 	0.22800 0.89800 0.28730 -0.07800
H 	H 	0.27400 0.97930 0.28530 0.06800
C 	C 	0.29600 0.78030 0.28730 0.08200
C 	C 	0.22920 0.66420 0.29260 -0.08600
H 	H 	0.27620 0.58250 0.29370 0.06600
C 	C 	0.09100 0.66700 0.29620 -0.06300
H 	H 	0.04360 0.58610 0.29860 0.06600
C 	C 	0.86840 0.78570 0.30350 -0.12000
H 	H 	0.84780 0.86810 0.31350 0.07400
H 	H 	0.81670 0.78730 0.28660 0.08100
C 	C 	0.85300 0.65700 0.34730 -0.01700
H 	H 	0.89010 0.72170 0.35890 0.04200
C 	C 	0.81200 0.53090 0.35450 0.01500
H 	H 	0.81690 0.49350 0.37200 0.02300
C 	C 	0.77440 0.55740 0.31140 0.08700
H 	H 	0.74760 0.53980 0.29350 -0.00400
C 	C 	0.45000 0.77900 0.28370 -0.14400
H 	H 	0.48270 0.68680 0.28530 0.08600
H 	H 	0.47240 0.81190 0.26560 0.08700
C 	C 	0.52300 0.83200 0.33090 -0.01600
H 	H 	0.49570 0.75300 0.33970 0.04400
C 	C 	0.58000 0.94700 0.34200 0.02200
H 	H 	0.59560 0.95750 0.36070 0.02100
C 	C 	0.56680 0.98580 0.29990 0.06300
H 	H 	0.57120 0.02830 0.28300 0.01200
N 	N 	0.76200 0.46800 0.33160 -0.23000
N 	N 	0.82820 0.67270 0.31920 -0.10200
N 	N 	0.61020 0.04330 0.32350 -0.22900
N 	N 	0.51740 0.86220 0.30370 -0.09500
O 	O 	0.79640 0.17990 0.36925 -0.36400
O 	O 	0.59740 0.27950 0.37127 -0.37200
O 	O 	0.05910 0.18070 0.46025 -0.51000
O 	O 	0.94140 0.18980 0.49830 -0.36000
O 	O 	0.33950 0.28350 0.45740 -0.48600
O 	O 	0.42260 0.16520 0.49050 -0.42600
Cd	Cd	0.30887 0.74849 0.82767 1.22500
C 	C 	0.30170 0.77870 0.91290 -0.14200
C 	C 	0.17730 0.79280 0.92790 0.08600
H 	H 	0.09490 0.79770 0.91860 -0.01400
C 	C 	0.18060 0.79920 0.95650 -0.17000
C 	C 	0.30540 0.79440 0.97000 0.09400
H 	H 	0.30860 0.80240 0.98890 0.01700
C 	C 	0.42700 0.77760 0.95490 -0.17800
C 	C 	0.41980 0.76380 0.92700 0.10000
H 	H 	0.49860 0.74340 0.91740 -0.00300
C 	C 	0.29960 0.77010 0.88290 0.32000
C 	C 	0.05320 0.80980 0.97220 0.35800
C 	C 	0.55960 0.77420 0.96960 0.39700
C 	C 	0.97580 0.21680 0.79650 0.06600
C 	C 	0.91300 0.10200 0.79030 -0.07300
H 	H 	0.96250 0.02240 0.78790 0.06100
C 	C 	0.77200 0.10200 0.78730 -0.07800
H 	H 	0.72600 0.02070 0.78530 0.06800
C 	C 	0.70400 0.21970 0.78730 0.08100
C 	C 	0.77080 0.33580 0.79260 -0.08500
H 	H 	0.72380 0.41750 0.79370 0.06600
C 	C 	0.90900 0.33300 0.79620 -0.06300
H 	H 	0.95640 0.41390 0.79860 0.06600
C 	C 	0.13160 0.21430 0.80350 -0.12000
H 	H 	0.15220 0.13190 0.81350 0.07400
H 	H 	0.18330 0.21270 0.78660 0.08100
C 	C 	0.14700 0.34300 0.84730 -0.01700
H 	H 	0.10990 0.27830 0.85890 0.04200
C 	C 	0.18800 0.46910 0.85450 0.01500
H 	H 	0.18310 0.50650 0.87200 0.02300
C 	C 	0.22560 0.44260 0.81140 0.08700
H 	H 	0.25240 0.46020 0.79350 -0.00400
C 	C 	0.55000 0.22100 0.78370 -0.14400
H 	H 	0.51730 0.31320 0.78530 0.08600
H 	H 	0.52760 0.18810 0.76560 0.08700
C 	C 	0.47700 0.16800 0.83090 -0.01600
H 	H 	0.50430 0.24700 0.83970 0.04400
C 	C 	0.42000 0.05300 0.84200 0.02200
H 	H 	0.40440 0.04250 0.86070 0.02100
C 	C 	0.43320 0.01420 0.79990 0.06300
H 	H 	0.42880 0.97170 0.78300 0.01200
N 	N 	0.23800 0.53200 0.83160 -0.23000
N 	N 	0.17180 0.32730 0.81920 -0.10200
N 	N 	0.38980 0.95670 0.82350 -0.22900
N 	N 	0.48260 0.13780 0.80370 -0.09500
O 	O 	0.20360 0.82010 0.86925 -0.36400
O 	O 	0.40260 0.72050 0.87127 -0.37200
O 	O 	0.94090 0.81930 0.96025 -0.50900
O 	O 	0.05860 0.81020 0.99830 -0.35900
O 	O 	0.66050 0.71650 0.95740 -0.48500
O 	O 	0.57740 0.83480 0.99050 -0.42500
Cd	Cd	0.74849 0.30887 0.17233 1.22500
C 	C 	0.77870 0.30170 0.08710 -0.14300
C 	C 	0.79280 0.17730 0.07210 0.08700
H 	H 	0.79770 0.09490 0.08140 -0.01400
C 	C 	0.79920 0.18060 0.04350 -0.17000
C 	C 	0.79440 0.30540 0.03000 0.09400
H 	H 	0.80240 0.30860 0.01110 0.01600
C 	C 	0.77760 0.42700 0.04510 -0.17900
C 	C 	0.76380 0.41980 0.07300 0.10100
H 	H 	0.74340 0.49860 0.08260 -0.00300
C 	C 	0.77010 0.29960 0.11710 0.32000
C 	C 	0.80980 0.05320 0.02780 0.35900
C 	C 	0.77420 0.55960 0.03040 0.39700
C 	C 	0.21680 0.97580 0.20350 0.06600
C 	C 	0.10200 0.91300 0.20970 -0.07300
H 	H 	0.02240 0.96250 0.21210 0.06100
C 	C 	0.10200 0.77200 0.21270 -0.07800
H 	H 	0.02070 0.72600 0.21470 0.06800
C 	C 	0.21970 0.70400 0.21270 0.08200
C 	C 	0.33580 0.77080 0.20740 -0.08600
H 	H 	0.41750 0.72380 0.20630 0.06600
C 	C 	0.33300 0.90900 0.20380 -0.06300
H 	H 	0.41390 0.95640 0.20140 0.06600
C 	C 	0.21430 0.13160 0.19650 -0.12000
H 	H 	0.13190 0.15220 0.18650 0.07400
H 	H 	0.21270 0.18330 0.21340 0.08100
C 	C 	0.34300 0.14700 0.15270 -0.01700
H 	H 	0.27830 0.10990 0.14110 0.04200
C 	C 	0.46910 0.18800 0.14550 0.01500
H 	H 	0.50650 0.18310 0.12800 0.02300
C 	C 	0.44260 0.22560 0.18860 0.08700
H 	H 	0.46020 0.25240 0.20650 -0.00400
C 	C 	0.22100 0.55000 0.21630 -0.14400
H 	H 	0.31320 0.51730 0.21470 0.08600
H 	H 	0.18810 0.52760 0.23440 0.08700
C 	C 	0.16800 0.47700 0.16910 -0.01600
H 	H 	0.24700 0.50430 0.16030 0.04400
C 	C 	0.05300 0.42000 0.15800 0.02200
H 	H 	0.04250 0.40440 0.13930 0.02100
C 	C 	0.01420 0.43320 0.20010 0.06300
H 	H 	0.97170 0.42880 0.21700 0.01200
N 	N 	0.53200 0.23800 0.16840 -0.23000
N 	N 	0.32730 0.17180 0.18080 -0.10200
N 	N 	0.95670 0.38980 0.17650 -0.22900
N 	N 	0.13780 0.48260 0.19630 -0.09500
O 	O 	0.82010 0.20360 0.13075 -0.36400
O 	O 	0.72050 0.40260 0.12873 -0.37200
O 	O 	0.81930 0.94090 0.03975 -0.51000
O 	O 	0.81020 0.05860 0.00170 -0.36100
O 	O 	0.71650 0.66050 0.04260 -0.48600
O 	O 	0.83480 0.57740 0.00950 -0.42600
Cd	Cd	0.25151 0.69113 0.67233 1.22500
C 	C 	0.22130 0.69830 0.58710 -0.14200
C 	C 	0.20720 0.82270 0.57210 0.08700
H 	H 	0.20230 0.90510 0.58140 -0.01400
C 	C 	0.20080 0.81940 0.54350 -0.17000
C 	C 	0.20560 0.69460 0.53000 0.09400
H 	H 	0.19760 0.69140 0.51110 0.01700
C 	C 	0.22240 0.57300 0.54510 -0.17900
C 	C 	0.23620 0.58020 0.57300 0.10100
H 	H 	0.25660 0.50140 0.58260 -0.00300
C 	C 	0.22990 0.70040 0.61710 0.32000
C 	C 	0.19020 0.94680 0.52780 0.35800
C 	C 	0.22580 0.44040 0.53040 0.39700
C 	C 	0.78320 0.02420 0.70350 0.06600
C 	C 	0.89800 0.08700 0.70970 -0.07300
H 	H 	0.97760 0.03750 0.71210 0.06100
C 	C 	0.89800 0.22800 0.71270 -0.07800
H 	H 	0.97930 0.27400 0.71470 0.06800
C 	C 	0.78030 0.29600 0.71270 0.08100
C 	C 	0.66420 0.22920 0.70740 -0.08500
H 	H 	0.58250 0.27620 0.70630 0.06600
C 	C 	0.66700 0.09100 0.70380 -0.06300
H 	H 	0.58610 0.04360 0.70140 0.06600
C 	C 	0.78570 0.86840 0.69650 -0.12000
H 	H 	0.86810 0.84780 0.68650 0.07400
H 	H 	0.78730 0.81670 0.71340 0.08100
C 	C 	0.65700 0.85300 0.65270 -0.01700
H 	H 	0.72170 0.89010 0.64110 0.04200
C 	C 	0.53090 0.81200 0.64550 0.01500
H 	H 	0.49350 0.81690 0.62800 0.02300
C 	C 	0.55740 0.77440 0.68860 0.08700
H 	H 	0.53980 0.74760 0.70650 -0.00400
C 	C 	0.77900 0.45000 0.71630 -0.14400
H 	H 	0.68680 0.48270 0.71470 0.08600
H 	H 	0.81190 0.47240 0.73440 0.08700
C 	C 	0.83200 0.52300 0.66910 -0.01600
H 	H 	0.75300 0.49570 0.66030 0.04400
C 	C 	0.94700 0.58000 0.65800 0.02200
H 	H 	0.95750 0.59560 0.63930 0.02100
C 	C 	0.98580 0.56680 0.70010 0.06300
H 	H 	0.02830 0.57120 0.71700 0.01200
N 	N 	0.46800 0.76200 0.66840 -0.23000
N 	N 	0.67270 0.82820 0.68080 -0.10200
N 	N 	0.04330 0.61020 0.67650 -0.22900
N 	N 	0.86220 0.51740 0.69630 -0.09500
O 	O 	0.17990 0.79640 0.63075 -0.36400
O 	O 	0.27950 0.59740 0.62873 -0.37200
O 	O 	0.18070 0.05910 0.53975 -0.51000
O 	O 	0.18980 0.94140 0.50170 -0.36000
O 	O 	0.28350 0.33950 0.54260 -0.48600
O 	O 	0.16520 0.42260 0.50950 -0.42600
Cd	Cd	0.80887 0.75151 0.92233 1.22600
C 	C 	0.80170 0.72130 0.83710 -0.14300
C 	C 	0.67730 0.70720 0.82210 0.08800
H 	H 	0.59490 0.70230 0.83140 -0.01300
C 	C 	0.68060 0.70080 0.79350 -0.17200
C 	C 	0.80540 0.70560 0.78000 0.09500
H 	H 	0.80860 0.69760 0.76110 0.01500
C 	C 	0.92700 0.72240 0.79510 -0.18000
C 	C 	0.91980 0.73620 0.82300 0.10100
H 	H 	0.99860 0.75660 0.83260 -0.00200
C 	C 	0.79960 0.72990 0.86710 0.32000
C 	C 	0.55320 0.69020 0.77780 0.36400
C 	C 	0.05960 0.72580 0.78040 0.39700
C 	C 	0.47580 0.28320 0.95350 0.06600
C 	C 	0.41300 0.39800 0.95970 -0.07200
H 	H 	0.46250 0.47760 0.96210 0.06200
C 	C 	0.27200 0.39800 0.96270 -0.07800
H 	H 	0.22600 0.47930 0.96470 0.06800
C 	C 	0.20400 0.28030 0.96270 0.08100
C 	C 	0.27080 0.16420 0.95740 -0.08500
H 	H 	0.22380 0.08250 0.95630 0.06400
C 	C 	0.40900 0.16700 0.95380 -0.06400
H 	H 	0.45640 0.08610 0.95140 0.06500
C 	C 	0.63160 0.28570 0.94650 -0.12000
H 	H 	0.65220 0.36810 0.93650 0.07500
H 	H 	0.68330 0.28730 0.96340 0.08100
C 	C 	0.64700 0.15700 0.90270 -0.00900
H 	H 	0.60990 0.22170 0.89110 0.04000
C 	C 	0.68800 0.03090 0.89550 -0.00200
H 	H 	0.68310 0.99350 0.87800 0.03300
C 	C 	0.72560 0.05740 0.93860 0.08100
H 	H 	0.75240 0.03980 0.95650 -0.00300
C 	C 	0.05000 0.27900 0.96630 -0.14600
H 	H 	0.01730 0.18680 0.96470 0.08500
H 	H 	0.02760 0.31190 0.98440 0.08600
C 	C 	0.97700 0.33200 0.91910 -0.00800
H 	H 	0.00430 0.25300 0.91030 0.03800
C 	C 	0.92000 0.44700 0.90800 0.02200
H 	H 	0.90440 0.45750 0.88930 0.02300
C 	C 	0.93320 0.48580 0.95010 0.07200
H 	H 	0.92880 0.52830 0.96700 0.00800
N 	N 	0.73800 0.96800 0.91840 -0.22300
N 	N 	0.67180 0.17270 0.93080 -0.10200
N 	N 	0.88980 0.54330 0.92650 -0.23300
N 	N 	0.98260 0.36220 0.94630 -0.09500
O 	O 	0.70360 0.67990 0.88075 -0.36400
O 	O 	0.90260 0.77950 0.87873 -0.37100
O 	O 	0.44090 0.68070 0.78975 -0.51500
O 	O 	0.55860 0.68980 0.75170 -0.36100
O 	O 	0.16050 0.78350 0.79260 -0.48600
O 	O 	0.07740 0.66520 0.75950 -0.42700
Cd	Cd	0.19113 0.24849 0.42233 1.22600
C 	C 	0.19830 0.27870 0.33710 -0.14300
C 	C 	0.32270 0.29280 0.32210 0.08800
H 	H 	0.40510 0.29770 0.33140 -0.01300
C 	C 	0.31940 0.29920 0.29350 -0.17200
C 	C 	0.19460 0.29440 0.28000 0.09500
H 	H 	0.19140 0.30240 0.26110 0.01500
C 	C 	0.07300 0.27760 0.29510 -0.18000
C 	C 	0.08020 0.26380 0.32300 0.10100
H 	H 	0.00140 0.24340 0.33260 -0.00200
C 	C 	0.20040 0.27010 0.36710 0.32000
C 	C 	0.44680 0.30980 0.27780 0.36400
C 	C 	0.94040 0.27420 0.28040 0.39800
C 	C 	0.52420 0.71680 0.45350 0.06600
C 	C 	0.58700 0.60200 0.45970 -0.07300
H 	H 	0.53750 0.52240 0.46210 0.06200
C 	C 	0.72800 0.60200 0.46270 -0.07800
H 	H 	0.77400 0.52070 0.46470 0.06800
C 	C 	0.79600 0.71970 0.46270 0.08100
C 	C 	0.72920 0.83580 0.45740 -0.08500
H 	H 	0.77620 0.91750 0.45630 0.06400
C 	C 	0.59100 0.83300 0.45380 -0.06400
H 	H 	0.54360 0.91390 0.45140 0.06500
C 	C 	0.36840 0.71430 0.44650 -0.12000
H 	H 	0.34780 0.63190 0.43650 0.07500
H 	H 	0.31670 0.71270 0.46340 0.08100
C 	C 	0.35300 0.84300 0.40270 -0.00900
H 	H 	0.39010 0.77830 0.39110 0.04000
C 	C 	0.31200 0.96910 0.39550 -0.00200
H 	H 	0.31690 0.00650 0.37800 0.03300
C 	C 	0.27440 0.94260 0.43860 0.08100
H 	H 	0.24760 0.96020 0.45650 -0.00300
C 	C 	0.95000 0.72100 0.46630 -0.14500
H 	H 	0.98270 0.81320 0.46470 0.08400
H 	H 	0.97240 0.68810 0.48440 0.08500
C 	C 	0.02300 0.66800 0.41910 -0.00800
H 	H 	0.99570 0.74700 0.41030 0.03800
C 	C 	0.08000 0.55300 0.40800 0.02200
H 	H 	0.09560 0.54250 0.38930 0.02300
C 	C 	0.06680 0.51420 0.45010 0.07200
H 	H 	0.07120 0.47170 0.46700 0.00800
N 	N 	0.26200 0.03200 0.41840 -0.22300
N 	N 	0.32820 0.82730 0.43080 -0.10200
N 	N 	0.11020 0.45670 0.42650 -0.23300
N 	N 	0.01740 0.63780 0.44630 -0.09500
O 	O 	0.29640 0.32010 0.38075 -0.36400
O 	O 	0.09740 0.22050 0.37873 -0.37100
O 	O 	0.55910 0.31930 0.28975 -0.51500
O 	O 	0.44140 0.31020 0.25170 -0.36100
O 	O 	0.83950 0.21650 0.29260 -0.48600
O 	O 	0.92260 0.33480 0.25950 -0.42700
Cd	Cd	0.69472 0.30528 0.25000 1.23400
Cd	Cd	0.30528 0.69472 0.75000 1.23400
Cd	Cd	0.19472 0.19472 0.50000 1.23500
Cd	Cd	0.80528 0.80528 -0.00000 1.23500
