data_crystal

_cell_length_a 31.51700
_cell_length_b 14.88200
_cell_length_c 28.49400
_cell_angle_alpha 90.00000
_cell_angle_beta  120.19000
_cell_angle_gamma 90.00000

_symmetry_space_group_name_	'P 1'
_symmetry_space_group_name_H-M	'P 1'

loop_
_symmetry_equiv_pos_as_xyz
  x,y,z

loop_
_atom_site_label
_atom_site_type_symbol
_atom_site_fract_x
_atom_site_fract_y
_atom_site_fract_z
_atom_site_charge
Gd	Gd	0.26752 0.11811 0.48781 1.55000
O 	O 	0.07431 0.35710 0.35580 -0.41700
H 	H 	0.08900 0.40270 0.35600 0.24800
O 	O 	0.25307 0.97430 0.12819 -0.42100
H 	H 	0.23430 0.01420 0.10930 0.23100
O 	O 	0.22859 0.07040 0.30124 -0.45100
H 	H 	0.23280 0.11960 0.31600 0.26800
O 	O 	0.24117 0.86770 0.05091 -0.46100
O 	O 	0.20322 0.73980 0.04090 -0.45500
O 	O 	0.25082 0.07290 0.40110 -0.40400
O 	O 	0.32533 0.04850 0.46461 -0.38000
O 	O 	0.20066 0.20870 0.43746 -0.49000
O 	O 	0.16113 0.33530 0.43457 -0.41800
C 	C 	0.12767 0.23950 0.35770 -0.21200
C 	C 	0.13380 0.17240 0.32870 0.05000
H 	H 	0.16210 0.13750 0.34600 0.02400
C 	C 	0.10000 0.15430 0.27510 -0.04700
C 	C 	0.05620 0.20640 0.24710 0.07900
C 	C 	0.04740 0.27200 0.27550 -0.10700
C 	C 	0.08192 0.29170 0.32780 0.24000
H 	H 	0.99950 0.36430 0.22230 0.06000
C 	C 	0.02320 0.18850 0.19030 -0.11500
H 	H 	0.99340 0.21890 0.17210 0.08900
C 	C 	0.03470 0.12940 0.16400 0.01400
H 	H 	0.01670 0.12670 0.12630 0.02800
C 	C 	0.21110 0.82910 0.11012 -0.22000
C 	C 	0.18740 0.76840 0.12560 0.05900
H 	H 	0.17630 0.71450 0.10680 0.02500
C 	C 	0.17958 0.78600 0.16919 -0.06500
C 	C 	0.19817 0.86650 0.19930 0.09600
C 	C 	0.22802 0.91320 0.14105 0.23800
C 	C 	0.22447 0.92830 0.18644 -0.10900
C 	C 	0.24455 0.01710 0.21900 -0.04900
H 	H 	0.25710 0.05360 0.20040 0.05500
H 	H 	0.21710 0.04930 0.21740 0.06300
C 	C 	0.18740 0.88150 0.24050 -0.14500
H 	H 	0.19710 0.93480 0.26020 0.10700
C 	C 	0.29512 0.04790 0.41353 0.35500
C 	C 	0.27150 0.03480 0.31460 0.26500
C 	C 	0.35150 0.99200 0.38600 0.04900
H 	H 	0.37300 0.97950 0.42250 0.02700
C 	C 	0.30677 0.02850 0.37280 -0.20700
C 	C 	0.28412 0.01030 0.27764 -0.11900
C 	C 	0.33103 0.97620 0.29330 0.09300
C 	C 	0.36728 0.97210 0.34970 -0.06200
C 	C 	0.34560 0.95400 0.25510 -0.13700
H 	H 	0.32290 0.95920 0.21820 0.10100
C 	C 	0.39250 0.92500 0.27090 0.03400
H 	H 	0.40060 0.90870 0.24490 0.01800
C 	C 	0.16200 0.81610 0.25220 0.03800
H 	H 	0.15600 0.82690 0.28050 0.01500
C 	C 	0.41390 0.94300 0.36230 0.00500
H 	H 	0.43720 0.93920 0.39900 0.03300
C 	C 	0.21977 0.80870 0.06505 0.49400
C 	C 	0.10750 0.09080 0.24280 -0.01700
H 	H 	0.13850 0.06470 0.25860 0.05400
C 	C 	0.07750 0.06600 0.19560 -0.07200
H 	H 	0.08110 0.01260 0.18100 0.05700
C 	C 	0.16539 0.26070 0.41310 0.45700
C 	C 	0.14520 0.73540 0.22330 -0.10200
H 	H 	0.12810 0.69290 0.23130 0.06600
C 	C 	0.15520 0.72390 0.18410 0.00800
H 	H 	0.14540 0.67030 0.16490 0.03300
C 	C 	0.42880 0.92000 0.32770 -0.09700
H 	H 	0.46090 0.90180 0.33960 0.07200
Gd	Gd	0.76751 0.61811 0.48781 1.55100
O 	O 	0.57431 0.85710 0.35580 -0.41600
H 	H 	0.58900 0.90270 0.35600 0.24900
O 	O 	0.75307 0.47430 0.12819 -0.42200
H 	H 	0.73430 0.51420 0.10930 0.23300
O 	O 	0.72859 0.57040 0.30124 -0.44900
H 	H 	0.73280 0.61960 0.31600 0.26900
O 	O 	0.74117 0.36770 0.05091 -0.46100
O 	O 	0.70322 0.23980 0.04090 -0.45400
O 	O 	0.75082 0.57290 0.40110 -0.40300
O 	O 	0.82533 0.54850 0.46461 -0.37900
O 	O 	0.70066 0.70870 0.43746 -0.48900
O 	O 	0.66113 0.83530 0.43457 -0.41800
C 	C 	0.62767 0.73950 0.35770 -0.21200
C 	C 	0.63380 0.67240 0.32870 0.05100
H 	H 	0.66210 0.63750 0.34600 0.02400
C 	C 	0.60000 0.65430 0.27510 -0.04800
C 	C 	0.55620 0.70640 0.24710 0.08000
C 	C 	0.54740 0.77200 0.27550 -0.10600
C 	C 	0.58192 0.79170 0.32780 0.24000
H 	H 	0.49950 0.86430 0.22230 0.06200
C 	C 	0.52320 0.68850 0.19030 -0.11800
H 	H 	0.49340 0.71890 0.17210 0.09100
C 	C 	0.53470 0.62940 0.16400 0.01600
H 	H 	0.51670 0.62670 0.12630 0.02700
C 	C 	0.71110 0.32910 0.11012 -0.22100
C 	C 	0.68740 0.26840 0.12560 0.06000
H 	H 	0.67630 0.21450 0.10680 0.02500
C 	C 	0.67958 0.28600 0.16919 -0.06500
C 	C 	0.69817 0.36650 0.19930 0.09600
C 	C 	0.72802 0.41320 0.14105 0.23800
C 	C 	0.72447 0.42830 0.18644 -0.11000
C 	C 	0.74455 0.51710 0.21900 -0.04900
H 	H 	0.75710 0.55360 0.20040 0.05500
H 	H 	0.71710 0.54930 0.21740 0.06300
C 	C 	0.68740 0.38150 0.24050 -0.14500
H 	H 	0.69710 0.43480 0.26020 0.10700
C 	C 	0.79512 0.54790 0.41353 0.35500
C 	C 	0.77150 0.53480 0.31460 0.26500
C 	C 	0.85150 0.49200 0.38600 0.04800
H 	H 	0.87300 0.47950 0.42250 0.02700
C 	C 	0.80677 0.52850 0.37280 -0.20600
C 	C 	0.78412 0.51030 0.27764 -0.11800
C 	C 	0.83103 0.47620 0.29330 0.09200
C 	C 	0.86728 0.47210 0.34970 -0.06100
C 	C 	0.84560 0.45400 0.25510 -0.13700
H 	H 	0.82290 0.45920 0.21820 0.10100
C 	C 	0.89250 0.42500 0.27090 0.03400
H 	H 	0.90060 0.40870 0.24490 0.01800
C 	C 	0.66200 0.31610 0.25220 0.03800
H 	H 	0.65600 0.32690 0.28050 0.01500
C 	C 	0.91390 0.44300 0.36230 0.00400
H 	H 	0.93720 0.43920 0.39900 0.03300
C 	C 	0.71977 0.30870 0.06505 0.49400
C 	C 	0.60750 0.59080 0.24280 -0.01600
H 	H 	0.63850 0.56470 0.25860 0.05400
C 	C 	0.57750 0.56600 0.19560 -0.07400
H 	H 	0.58110 0.51260 0.18100 0.05800
C 	C 	0.66539 0.76070 0.41310 0.45700
C 	C 	0.64520 0.23540 0.22330 -0.10300
H 	H 	0.62810 0.19290 0.23130 0.06600
C 	C 	0.65520 0.22390 0.18410 0.00800
H 	H 	0.64540 0.17030 0.16490 0.03200
C 	C 	0.92880 0.42000 0.32770 -0.09600
H 	H 	0.96090 0.40180 0.33960 0.07100
Gd	Gd	0.73248 0.11811 0.01219 1.55100
O 	O 	0.92569 0.35710 0.14420 -0.41600
H 	H 	0.91100 0.40270 0.14400 0.24900
O 	O 	0.74693 0.97430 0.37181 -0.42100
H 	H 	0.76570 0.01420 0.39070 0.23300
O 	O 	0.77141 0.07040 0.19876 -0.45000
H 	H 	0.76720 0.11960 0.18400 0.26900
O 	O 	0.75883 0.86770 0.44909 -0.46100
O 	O 	0.79678 0.73980 0.45910 -0.45400
O 	O 	0.74918 0.07290 0.09890 -0.40300
O 	O 	0.67467 0.04850 0.03539 -0.37900
O 	O 	0.79934 0.20870 0.06254 -0.48900
O 	O 	0.83887 0.33530 0.06543 -0.41800
C 	C 	0.87233 0.23950 0.14230 -0.21400
C 	C 	0.86620 0.17240 0.17130 0.05200
H 	H 	0.83790 0.13750 0.15400 0.02400
C 	C 	0.90000 0.15430 0.22490 -0.05000
C 	C 	0.94380 0.20640 0.25290 0.08300
C 	C 	0.95260 0.27200 0.22450 -0.10900
C 	C 	0.91808 0.29170 0.17220 0.24100
H 	H 	0.00050 0.36430 0.27770 0.06100
C 	C 	0.97680 0.18850 0.30970 -0.12400
H 	H 	0.00660 0.21890 0.32790 0.09300
C 	C 	0.96530 0.12940 0.33600 0.01900
H 	H 	0.98330 0.12670 0.37370 0.02500
C 	C 	0.78890 0.82910 0.38988 -0.22100
C 	C 	0.81260 0.76840 0.37440 0.05900
H 	H 	0.82370 0.71450 0.39320 0.02500
C 	C 	0.82042 0.78600 0.33081 -0.06500
C 	C 	0.80183 0.86650 0.30070 0.09600
C 	C 	0.77198 0.91320 0.35895 0.23800
C 	C 	0.77553 0.92830 0.31356 -0.11000
C 	C 	0.75545 0.01710 0.28100 -0.04900
H 	H 	0.74290 0.05360 0.29960 0.05400
H 	H 	0.78290 0.04930 0.28260 0.06300
C 	C 	0.81260 0.88150 0.25950 -0.14500
H 	H 	0.80290 0.93480 0.23980 0.10700
C 	C 	0.70488 0.04790 0.08647 0.35500
C 	C 	0.72850 0.03480 0.18540 0.26500
C 	C 	0.64850 0.99200 0.11400 0.05000
H 	H 	0.62700 0.97950 0.07750 0.02700
C 	C 	0.69323 0.02850 0.12720 -0.20800
C 	C 	0.71588 0.01030 0.22236 -0.12000
C 	C 	0.66897 0.97620 0.20670 0.09400
C 	C 	0.63272 0.97210 0.15030 -0.06200
C 	C 	0.65440 0.95400 0.24490 -0.13800
H 	H 	0.67710 0.95920 0.28180 0.10200
C 	C 	0.60750 0.92500 0.22910 0.03500
H 	H 	0.59940 0.90870 0.25510 0.01800
C 	C 	0.83800 0.81610 0.24780 0.03800
H 	H 	0.84400 0.82690 0.21950 0.01500
C 	C 	0.58610 0.94300 0.13770 0.00500
H 	H 	0.56280 0.93920 0.10100 0.03300
C 	C 	0.78023 0.80870 0.43495 0.49400
C 	C 	0.89250 0.09080 0.25720 -0.01300
H 	H 	0.86150 0.06470 0.24140 0.05300
C 	C 	0.92250 0.06600 0.30440 -0.07700
H 	H 	0.91890 0.01260 0.31900 0.05800
C 	C 	0.83461 0.26070 0.08690 0.45700
C 	C 	0.85480 0.73540 0.27670 -0.10300
H 	H 	0.87190 0.69290 0.26870 0.06600
C 	C 	0.84480 0.72390 0.31590 0.00800
H 	H 	0.85460 0.67030 0.33510 0.03200
C 	C 	0.57120 0.92000 0.17230 -0.09700
H 	H 	0.53910 0.90180 0.16040 0.07200
Gd	Gd	0.23248 0.61811 0.01219 1.55200
O 	O 	0.42569 0.85710 0.14420 -0.41600
H 	H 	0.41100 0.90270 0.14400 0.24900
O 	O 	0.24693 0.47430 0.37181 -0.42200
H 	H 	0.26570 0.51420 0.39070 0.23300
O 	O 	0.27141 0.57040 0.19876 -0.44900
H 	H 	0.26720 0.61960 0.18400 0.26900
O 	O 	0.25883 0.36770 0.44909 -0.46100
O 	O 	0.29678 0.23980 0.45910 -0.45400
O 	O 	0.24918 0.57290 0.09890 -0.40300
O 	O 	0.17467 0.54850 0.03539 -0.37900
O 	O 	0.29934 0.70870 0.06254 -0.48900
O 	O 	0.33887 0.83530 0.06543 -0.41800
C 	C 	0.37233 0.73950 0.14230 -0.21200
C 	C 	0.36620 0.67240 0.17130 0.05100
H 	H 	0.33790 0.63750 0.15400 0.02400
C 	C 	0.40000 0.65430 0.22490 -0.04800
C 	C 	0.44380 0.70640 0.25290 0.08000
C 	C 	0.45260 0.77200 0.22450 -0.10600
C 	C 	0.41808 0.79170 0.17220 0.24000
H 	H 	0.50050 0.86430 0.27770 0.06200
C 	C 	0.47680 0.68850 0.30970 -0.11800
H 	H 	0.50660 0.71890 0.32790 0.09100
C 	C 	0.46530 0.62940 0.33600 0.01600
H 	H 	0.48330 0.62670 0.37370 0.02700
C 	C 	0.28890 0.32910 0.38988 -0.22100
C 	C 	0.31260 0.26840 0.37440 0.06000
H 	H 	0.32370 0.21450 0.39320 0.02500
C 	C 	0.32042 0.28600 0.33081 -0.06500
C 	C 	0.30183 0.36650 0.30070 0.09600
C 	C 	0.27198 0.41320 0.35895 0.23800
C 	C 	0.27553 0.42830 0.31356 -0.11000
C 	C 	0.25545 0.51710 0.28100 -0.04900
H 	H 	0.24290 0.55360 0.29960 0.05500
H 	H 	0.28290 0.54930 0.28260 0.06300
C 	C 	0.31260 0.38150 0.25950 -0.14500
H 	H 	0.30290 0.43480 0.23980 0.10700
C 	C 	0.20488 0.54790 0.08647 0.35500
C 	C 	0.22850 0.53480 0.18540 0.26400
C 	C 	0.14850 0.49200 0.11400 0.04800
H 	H 	0.12700 0.47950 0.07750 0.02800
C 	C 	0.19323 0.52850 0.12720 -0.20600
C 	C 	0.21588 0.51030 0.22236 -0.11800
C 	C 	0.16897 0.47620 0.20670 0.09200
C 	C 	0.13272 0.47210 0.15030 -0.06100
C 	C 	0.15440 0.45400 0.24490 -0.13700
H 	H 	0.17710 0.45920 0.28180 0.10100
C 	C 	0.10750 0.42500 0.22910 0.03400
H 	H 	0.09940 0.40870 0.25510 0.01800
C 	C 	0.33800 0.31610 0.24780 0.03800
H 	H 	0.34400 0.32690 0.21950 0.01500
C 	C 	0.08610 0.44300 0.13770 0.00400
H 	H 	0.06280 0.43920 0.10100 0.03300
C 	C 	0.28023 0.30870 0.43495 0.49400
C 	C 	0.39250 0.59080 0.25720 -0.01600
H 	H 	0.36150 0.56470 0.24140 0.05400
C 	C 	0.42250 0.56600 0.30440 -0.07400
H 	H 	0.41890 0.51260 0.31900 0.05800
C 	C 	0.33461 0.76070 0.08690 0.45700
C 	C 	0.35480 0.23540 0.27670 -0.10300
H 	H 	0.37190 0.19290 0.26870 0.06600
C 	C 	0.34480 0.22390 0.31590 0.00800
H 	H 	0.35460 0.17030 0.33510 0.03200
C 	C 	0.07120 0.42000 0.17230 -0.09600
H 	H 	0.03910 0.40180 0.16040 0.07200
Gd	Gd	0.73248 0.88189 0.51219 1.55100
O 	O 	0.92569 0.64290 0.64420 -0.41600
H 	H 	0.91100 0.59730 0.64400 0.24900
O 	O 	0.74693 0.02570 0.87181 -0.42000
H 	H 	0.76570 0.98580 0.89070 0.23200
O 	O 	0.77141 0.92960 0.69876 -0.45000
H 	H 	0.76720 0.88040 0.68400 0.26900
O 	O 	0.75883 0.13230 0.94909 -0.46000
O 	O 	0.79678 0.26020 0.95910 -0.45400
O 	O 	0.74918 0.92710 0.59890 -0.40300
O 	O 	0.67467 0.95150 0.53539 -0.37900
O 	O 	0.79934 0.79130 0.56254 -0.48900
O 	O 	0.83887 0.66470 0.56543 -0.41800
C 	C 	0.87233 0.76050 0.64230 -0.21400
C 	C 	0.86620 0.82760 0.67130 0.05300
H 	H 	0.83790 0.86250 0.65400 0.02300
C 	C 	0.90000 0.84570 0.72490 -0.05100
C 	C 	0.94380 0.79360 0.75290 0.08300
C 	C 	0.95260 0.72800 0.72450 -0.11000
C 	C 	0.91808 0.70830 0.67220 0.24100
H 	H 	0.00050 0.63570 0.77770 0.06100
C 	C 	0.97680 0.81150 0.80970 -0.12400
H 	H 	0.00660 0.78110 0.82790 0.09300
C 	C 	0.96530 0.87060 0.83600 0.02000
H 	H 	0.98330 0.87330 0.87370 0.02500
C 	C 	0.78890 0.17090 0.88988 -0.22000
C 	C 	0.81260 0.23160 0.87440 0.05900
H 	H 	0.82370 0.28550 0.89320 0.02500
C 	C 	0.82042 0.21400 0.83081 -0.06500
C 	C 	0.80183 0.13350 0.80070 0.09600
C 	C 	0.77198 0.08680 0.85895 0.23800
C 	C 	0.77553 0.07170 0.81356 -0.10900
C 	C 	0.75545 0.98290 0.78100 -0.04900
H 	H 	0.74290 0.94640 0.79960 0.05500
H 	H 	0.78290 0.95070 0.78260 0.06300
C 	C 	0.81260 0.11850 0.75950 -0.14500
H 	H 	0.80290 0.06520 0.73980 0.10700
C 	C 	0.70488 0.95210 0.58647 0.35500
C 	C 	0.72850 0.96520 0.68540 0.26500
C 	C 	0.64850 0.00800 0.61400 0.04900
H 	H 	0.62700 0.02050 0.57750 0.02700
C 	C 	0.69323 0.97150 0.62720 -0.20700
C 	C 	0.71588 0.98970 0.72236 -0.11900
C 	C 	0.66897 0.02380 0.70670 0.09300
C 	C 	0.63272 0.02790 0.65030 -0.06200
C 	C 	0.65440 0.04600 0.74490 -0.13700
H 	H 	0.67710 0.04080 0.78180 0.10100
C 	C 	0.60750 0.07500 0.72910 0.03400
H 	H 	0.59940 0.09130 0.75510 0.01800
C 	C 	0.83800 0.18390 0.74780 0.03800
H 	H 	0.84400 0.17310 0.71950 0.01500
C 	C 	0.58610 0.05700 0.63770 0.00500
H 	H 	0.56280 0.06080 0.60100 0.03300
C 	C 	0.78023 0.19130 0.93495 0.49400
C 	C 	0.89250 0.90920 0.75720 -0.01300
H 	H 	0.86150 0.93530 0.74140 0.05300
C 	C 	0.92250 0.93400 0.80440 -0.07800
H 	H 	0.91890 0.98740 0.81900 0.05900
C 	C 	0.83461 0.73930 0.58690 0.45700
C 	C 	0.85480 0.26460 0.77670 -0.10200
H 	H 	0.87190 0.30710 0.76870 0.06500
C 	C 	0.84480 0.27610 0.81590 0.00800
H 	H 	0.85460 0.32970 0.83510 0.03300
C 	C 	0.57120 0.08000 0.67230 -0.09700
H 	H 	0.53910 0.09820 0.66040 0.07200
Gd	Gd	0.23248 0.38189 0.51219 1.55100
O 	O 	0.42569 0.14290 0.64420 -0.41600
H 	H 	0.41100 0.09730 0.64400 0.24900
O 	O 	0.24693 0.52570 0.87181 -0.42200
H 	H 	0.26570 0.48580 0.89070 0.23300
O 	O 	0.27141 0.42960 0.69876 -0.44900
H 	H 	0.26720 0.38040 0.68400 0.26900
O 	O 	0.25883 0.63230 0.94909 -0.46100
O 	O 	0.29678 0.76020 0.95910 -0.45400
O 	O 	0.24918 0.42710 0.59890 -0.40300
O 	O 	0.17467 0.45150 0.53539 -0.37900
O 	O 	0.29934 0.29130 0.56254 -0.48900
O 	O 	0.33887 0.16470 0.56543 -0.41800
C 	C 	0.37233 0.26050 0.64230 -0.21200
C 	C 	0.36620 0.32760 0.67130 0.05100
H 	H 	0.33790 0.36250 0.65400 0.02400
C 	C 	0.40000 0.34570 0.72490 -0.04800
C 	C 	0.44380 0.29360 0.75290 0.08000
C 	C 	0.45260 0.22800 0.72450 -0.10600
C 	C 	0.41808 0.20830 0.67220 0.24000
H 	H 	0.50050 0.13570 0.77770 0.06200
C 	C 	0.47680 0.31150 0.80970 -0.11800
H 	H 	0.50660 0.28110 0.82790 0.09100
C 	C 	0.46530 0.37060 0.83600 0.01600
H 	H 	0.48330 0.37330 0.87370 0.02700
C 	C 	0.28890 0.67090 0.88988 -0.22100
C 	C 	0.31260 0.73160 0.87440 0.06000
H 	H 	0.32370 0.78550 0.89320 0.02500
C 	C 	0.32042 0.71400 0.83081 -0.06500
C 	C 	0.30183 0.63350 0.80070 0.09600
C 	C 	0.27198 0.58680 0.85895 0.23800
C 	C 	0.27553 0.57170 0.81356 -0.11000
C 	C 	0.25545 0.48290 0.78100 -0.04900
H 	H 	0.24290 0.44640 0.79960 0.05500
H 	H 	0.28290 0.45070 0.78260 0.06300
C 	C 	0.31260 0.61850 0.75950 -0.14500
H 	H 	0.30290 0.56520 0.73980 0.10700
C 	C 	0.20488 0.45210 0.58647 0.35500
C 	C 	0.22850 0.46520 0.68540 0.26500
C 	C 	0.14850 0.50800 0.61400 0.04800
H 	H 	0.12700 0.52050 0.57750 0.02700
C 	C 	0.19323 0.47150 0.62720 -0.20600
C 	C 	0.21588 0.48970 0.72236 -0.11800
C 	C 	0.16897 0.52380 0.70670 0.09200
C 	C 	0.13272 0.52790 0.65030 -0.06100
C 	C 	0.15440 0.54600 0.74490 -0.13700
H 	H 	0.17710 0.54080 0.78180 0.10100
C 	C 	0.10750 0.57500 0.72910 0.03400
H 	H 	0.09940 0.59130 0.75510 0.01800
C 	C 	0.33800 0.68390 0.74780 0.03800
H 	H 	0.34400 0.67310 0.71950 0.01500
C 	C 	0.08610 0.55700 0.63770 0.00400
H 	H 	0.06280 0.56080 0.60100 0.03300
C 	C 	0.28023 0.69130 0.93495 0.49400
C 	C 	0.39250 0.40920 0.75720 -0.01600
H 	H 	0.36150 0.43530 0.74140 0.05400
C 	C 	0.42250 0.43400 0.80440 -0.07400
H 	H 	0.41890 0.48740 0.81900 0.05800
C 	C 	0.33461 0.23930 0.58690 0.45700
C 	C 	0.35480 0.76460 0.77670 -0.10300
H 	H 	0.37190 0.80710 0.76870 0.06600
C 	C 	0.34480 0.77610 0.81590 0.00800
H 	H 	0.35460 0.82970 0.83510 0.03200
C 	C 	0.07120 0.58000 0.67230 -0.09600
H 	H 	0.03910 0.59820 0.66040 0.07200
Gd	Gd	0.26752 0.88189 0.98781 1.55100
O 	O 	0.07431 0.64290 0.85580 -0.41600
H 	H 	0.08900 0.59730 0.85600 0.24900
O 	O 	0.25307 0.02570 0.62819 -0.42100
H 	H 	0.23430 0.98580 0.60930 0.23300
O 	O 	0.22859 0.92960 0.80124 -0.45000
H 	H 	0.23280 0.88040 0.81600 0.26900
O 	O 	0.24117 0.13230 0.55091 -0.46100
O 	O 	0.20322 0.26020 0.54090 -0.45400
O 	O 	0.25082 0.92710 0.90110 -0.40300
O 	O 	0.32533 0.95150 0.96461 -0.37900
O 	O 	0.20066 0.79130 0.93746 -0.48900
O 	O 	0.16113 0.66470 0.93457 -0.41800
C 	C 	0.12767 0.76050 0.85770 -0.21200
C 	C 	0.13380 0.82760 0.82870 0.05000
H 	H 	0.16210 0.86250 0.84600 0.02400
C 	C 	0.10000 0.84570 0.77510 -0.04700
C 	C 	0.05620 0.79360 0.74710 0.07900
C 	C 	0.04740 0.72800 0.77550 -0.10700
C 	C 	0.08192 0.70830 0.82780 0.24000
H 	H 	0.99950 0.63570 0.72230 0.06000
C 	C 	0.02320 0.81150 0.69030 -0.11500
H 	H 	0.99340 0.78110 0.67210 0.08900
C 	C 	0.03470 0.87060 0.66400 0.01400
H 	H 	0.01670 0.87330 0.62630 0.02800
C 	C 	0.21110 0.17090 0.61012 -0.22100
C 	C 	0.18740 0.23160 0.62560 0.05900
H 	H 	0.17630 0.28550 0.60680 0.02500
C 	C 	0.17958 0.21400 0.66919 -0.06500
C 	C 	0.19817 0.13350 0.69930 0.09600
C 	C 	0.22802 0.08680 0.64105 0.23800
C 	C 	0.22447 0.07170 0.68644 -0.10900
C 	C 	0.24455 0.98290 0.71900 -0.04900
H 	H 	0.25710 0.94640 0.70040 0.05500
H 	H 	0.21710 0.95070 0.71740 0.06300
C 	C 	0.18740 0.11850 0.74050 -0.14500
H 	H 	0.19710 0.06520 0.76020 0.10700
C 	C 	0.29512 0.95210 0.91353 0.35500
C 	C 	0.27150 0.96520 0.81460 0.26500
C 	C 	0.35150 0.00800 0.88600 0.05000
H 	H 	0.37300 0.02050 0.92250 0.02700
C 	C 	0.30677 0.97150 0.87280 -0.20800
C 	C 	0.28412 0.98970 0.77764 -0.11900
C 	C 	0.33103 0.02380 0.79330 0.09400
C 	C 	0.36728 0.02790 0.84970 -0.06200
C 	C 	0.34560 0.04600 0.75510 -0.13800
H 	H 	0.32290 0.04080 0.71820 0.10100
C 	C 	0.39250 0.07500 0.77090 0.03500
H 	H 	0.40060 0.09130 0.74490 0.01800
C 	C 	0.16200 0.18390 0.75220 0.03800
H 	H 	0.15600 0.17310 0.78050 0.01500
C 	C 	0.41390 0.05700 0.86230 0.00500
H 	H 	0.43720 0.06080 0.89900 0.03300
C 	C 	0.21977 0.19130 0.56505 0.49400
C 	C 	0.10750 0.90920 0.74280 -0.01800
H 	H 	0.13850 0.93530 0.75860 0.05400
C 	C 	0.07750 0.93400 0.69560 -0.07200
H 	H 	0.08110 0.98740 0.68100 0.05700
C 	C 	0.16539 0.73930 0.91310 0.45700
C 	C 	0.14520 0.26460 0.72330 -0.10200
H 	H 	0.12810 0.30710 0.73130 0.06600
C 	C 	0.15520 0.27610 0.68410 0.00800
H 	H 	0.14540 0.32970 0.66490 0.03300
C 	C 	0.42880 0.08000 0.82770 -0.09700
H 	H 	0.46090 0.09820 0.83960 0.07200
Gd	Gd	0.76751 0.38189 0.98781 1.55300
O 	O 	0.57431 0.14290 0.85580 -0.41600
H 	H 	0.58900 0.09730 0.85600 0.24900
O 	O 	0.75307 0.52570 0.62819 -0.42200
H 	H 	0.73430 0.48580 0.60930 0.23300
O 	O 	0.72859 0.42960 0.80124 -0.44900
H 	H 	0.73280 0.38040 0.81600 0.26900
O 	O 	0.74117 0.63230 0.55091 -0.46100
O 	O 	0.70322 0.76020 0.54090 -0.45400
O 	O 	0.75082 0.42710 0.90110 -0.40300
O 	O 	0.82533 0.45150 0.96461 -0.37900
O 	O 	0.70066 0.29130 0.93746 -0.48900
O 	O 	0.66113 0.16470 0.93457 -0.41700
C 	C 	0.62767 0.26050 0.85770 -0.21200
C 	C 	0.63380 0.32760 0.82870 0.05100
H 	H 	0.66210 0.36250 0.84600 0.02400
C 	C 	0.60000 0.34570 0.77510 -0.04800
C 	C 	0.55620 0.29360 0.74710 0.08000
C 	C 	0.54740 0.22800 0.77550 -0.10600
C 	C 	0.58192 0.20830 0.82780 0.24000
H 	H 	0.49950 0.13570 0.72230 0.06200
C 	C 	0.52320 0.31150 0.69030 -0.11800
H 	H 	0.49340 0.28110 0.67210 0.09100
C 	C 	0.53470 0.37060 0.66400 0.01600
H 	H 	0.51670 0.37330 0.62630 0.02700
C 	C 	0.71110 0.67090 0.61012 -0.22100
C 	C 	0.68740 0.73160 0.62560 0.06000
H 	H 	0.67630 0.78550 0.60680 0.02500
C 	C 	0.67958 0.71400 0.66919 -0.06500
C 	C 	0.69817 0.63350 0.69930 0.09600
C 	C 	0.72802 0.58680 0.64105 0.23800
C 	C 	0.72447 0.57170 0.68644 -0.11000
C 	C 	0.74455 0.48290 0.71900 -0.04900
H 	H 	0.75710 0.44640 0.70040 0.05500
H 	H 	0.71710 0.45070 0.71740 0.06300
C 	C 	0.68740 0.61850 0.74050 -0.14500
H 	H 	0.69710 0.56520 0.76020 0.10700
C 	C 	0.79512 0.45210 0.91353 0.35500
C 	C 	0.77150 0.46520 0.81460 0.26500
C 	C 	0.85150 0.50800 0.88600 0.04800
H 	H 	0.87300 0.52050 0.92250 0.02700
C 	C 	0.80677 0.47150 0.87280 -0.20600
C 	C 	0.78412 0.48970 0.77764 -0.11800
C 	C 	0.83103 0.52380 0.79330 0.09200
C 	C 	0.86728 0.52790 0.84970 -0.06100
C 	C 	0.84560 0.54600 0.75510 -0.13700
H 	H 	0.82290 0.54080 0.71820 0.10100
C 	C 	0.89250 0.57500 0.77090 0.03400
H 	H 	0.90060 0.59130 0.74490 0.01800
C 	C 	0.66200 0.68390 0.75220 0.03800
H 	H 	0.65600 0.67310 0.78050 0.01500
C 	C 	0.91390 0.55700 0.86230 0.00400
H 	H 	0.93720 0.56080 0.89900 0.03300
C 	C 	0.71977 0.69130 0.56505 0.49400
C 	C 	0.60750 0.40920 0.74280 -0.01600
H 	H 	0.63850 0.43530 0.75860 0.05400
C 	C 	0.57750 0.43400 0.69560 -0.07400
H 	H 	0.58110 0.48740 0.68100 0.05800
C 	C 	0.66539 0.23930 0.91310 0.45700
C 	C 	0.64520 0.76460 0.72330 -0.10300
H 	H 	0.62810 0.80710 0.73130 0.06600
C 	C 	0.65520 0.77610 0.68410 0.00800
H 	H 	0.64540 0.82970 0.66490 0.03200
C 	C 	0.92880 0.58000 0.82770 -0.09600
H 	H 	0.96090 0.59820 0.83960 0.07100
C 	C 	0.00000 0.32560 0.25000 -0.05500
C 	C 	0.50000 0.82560 0.25000 -0.05900
C 	C 	0.00000 0.67440 0.75000 -0.05400
C 	C 	0.50000 0.17440 0.75000 -0.05900
