data_crystal

_cell_length_a 15.43700
_cell_length_b 15.98500
_cell_length_c 16.47500
_cell_angle_alpha 90.00000
_cell_angle_beta  90.14500
_cell_angle_gamma 90.00000

_symmetry_space_group_name_	'P 1'
_symmetry_space_group_name_H-M	'P 1'

loop_
_symmetry_equiv_pos_as_xyz
  x,y,z

loop_
_atom_site_label
_atom_site_type_symbol
_atom_site_fract_x
_atom_site_fract_y
_atom_site_fract_z
_atom_site_charge
C 	C 	0.45550 0.76620 0.84860 -0.51200
H 	H 	0.44030 0.71860 0.81610 0.17200
H 	H 	0.51740 0.77040 0.85240 0.16900
H 	H 	0.43270 0.81600 0.82390 0.16100
C 	C 	0.41770 0.75630 0.93260 0.04500
C 	C 	0.44190 0.81040 0.99610 0.03000
C 	C 	0.50150 0.88160 0.97940 -0.33300
H 	H 	0.49040 0.92490 0.01940 0.10100
H 	H 	0.48660 0.90460 0.92670 0.12000
C 	C 	0.59770 0.86310 0.98000 0.45000
C 	C 	0.44290 0.84950 0.14180 -0.50200
H 	H 	0.49980 0.87010 0.12980 0.16300
H 	H 	0.44470 0.81710 0.19090 0.16100
H 	H 	0.40400 0.89580 0.14870 0.16600
C 	C 	0.41180 0.79560 0.07330 0.02600
C 	C 	0.35490 0.73010 0.08950 0.00600
C 	C 	0.32930 0.67510 0.02550 0.04000
C 	C 	0.36160 0.68980 0.94840 0.03400
C 	C 	0.27390 0.60000 0.04350 -0.55400
H 	H 	0.28010 0.55960 0.00080 0.19000
H 	H 	0.21440 0.61680 0.04730 0.18700
H 	H 	0.29190 0.57550 0.09410 0.19600
C 	C 	0.33820 0.63190 0.87860 -0.39700
H 	H 	0.28570 0.60170 0.89240 0.15300
H 	H 	0.32610 0.66540 0.83080 0.14400
C 	C 	0.40890 0.56950 0.85880 0.43700
C 	C 	0.37900 0.65290 0.22270 0.42500
C 	C 	0.32230 0.71340 0.17540 -0.37300
H 	H 	0.31960 0.76610 0.20470 0.13000
H 	H 	0.26400 0.69100 0.17240 0.13300
O 	O 	0.62240 0.79180 0.00200 -0.54300
O 	O 	0.64610 0.92150 0.96020 -0.32300
O 	O 	0.45840 0.54410 0.90970 -0.42000
O 	O 	0.40880 0.54660 0.78370 -0.48700
O 	O 	0.43150 0.60870 0.18250 -0.52200
O 	O 	0.79750 0.87570 0.00910 -0.38100
O 	O 	0.36970 0.64890 0.29720 -0.39800
K 	K 	0.53422 0.62756 0.04738 0.64500
C 	C 	0.95550 0.26620 0.84860 -0.33300
H 	H 	0.94030 0.21860 0.81610 0.12100
H 	H 	0.01740 0.27040 0.85240 0.09900
H 	H 	0.93270 0.31600 0.82390 0.10900
C 	C 	0.91770 0.25630 0.93260 -0.04500
C 	C 	0.94190 0.31040 0.99610 0.14500
C 	C 	0.00150 0.38160 0.97940 -0.51500
H 	H 	0.99040 0.42490 0.01940 0.16800
H 	H 	0.98660 0.40460 0.92670 0.19100
C 	C 	0.09770 0.36310 0.98000 0.50900
C 	C 	0.94290 0.34950 0.14180 -0.44200
H 	H 	0.99980 0.37010 0.12980 0.15200
H 	H 	0.94470 0.31710 0.19090 0.14900
H 	H 	0.90400 0.39580 0.14870 0.14900
C 	C 	0.91180 0.29560 0.07330 -0.04000
C 	C 	0.85490 0.23010 0.08950 0.04900
C 	C 	0.82930 0.17510 0.02550 -0.00700
C 	C 	0.86160 0.18980 0.94840 0.09200
C 	C 	0.77390 0.10000 0.04350 -0.50200
H 	H 	0.78010 0.05960 0.00080 0.17300
H 	H 	0.71440 0.11680 0.04730 0.17000
H 	H 	0.79190 0.07550 0.09410 0.18100
C 	C 	0.83820 0.13190 0.87860 -0.42700
H 	H 	0.78570 0.10170 0.89240 0.16400
H 	H 	0.82610 0.16540 0.83080 0.15500
C 	C 	0.90890 0.06950 0.85880 0.44800
C 	C 	0.87900 0.15290 0.22270 0.43300
C 	C 	0.82230 0.21340 0.17540 -0.39600
H 	H 	0.81960 0.26610 0.20470 0.13800
H 	H 	0.76400 0.19100 0.17240 0.14100
O 	O 	0.12240 0.29180 0.00200 -0.56700
O 	O 	0.14610 0.42150 0.96020 -0.34100
O 	O 	0.95840 0.04410 0.90970 -0.41200
O 	O 	0.90880 0.04660 0.78370 -0.48000
O 	O 	0.93150 0.10870 0.18250 -0.51300
O 	O 	0.29750 0.37570 0.00910 -0.38700
O 	O 	0.86970 0.14890 0.29720 -0.39500
K 	K 	0.03422 0.12756 0.04738 0.64000
C 	C 	0.54450 0.76620 0.65140 -0.58700
H 	H 	0.55970 0.71860 0.68390 0.19500
H 	H 	0.48260 0.77040 0.64760 0.18900
H 	H 	0.56730 0.81600 0.67610 0.18400
C 	C 	0.58230 0.75630 0.56740 0.11000
C 	C 	0.55810 0.81040 0.50390 -0.05200
C 	C 	0.49850 0.88160 0.52060 -0.34000
H 	H 	0.50960 0.92490 0.48060 0.12500
H 	H 	0.51340 0.90460 0.57330 0.12100
C 	C 	0.40230 0.86310 0.52000 0.40700
C 	C 	0.55710 0.84950 0.35820 -0.60900
H 	H 	0.50020 0.87010 0.37020 0.19900
H 	H 	0.55530 0.81710 0.30910 0.19400
H 	H 	0.59600 0.89580 0.35130 0.20000
C 	C 	0.58820 0.79560 0.42670 0.12400
C 	C 	0.64510 0.73010 0.41050 -0.06100
C 	C 	0.67070 0.67510 0.47450 0.15000
C 	C 	0.63840 0.68980 0.55160 -0.06300
C 	C 	0.72610 0.60000 0.45650 -0.68200
H 	H 	0.71990 0.55960 0.49920 0.24200
H 	H 	0.78560 0.61680 0.45270 0.23200
H 	H 	0.70810 0.57550 0.40590 0.23700
C 	C 	0.66180 0.63190 0.62140 -0.34500
H 	H 	0.71430 0.60170 0.60760 0.12900
H 	H 	0.67390 0.66540 0.66920 0.12800
C 	C 	0.59110 0.56950 0.64120 0.41800
C 	C 	0.62100 0.65290 0.27730 0.41200
C 	C 	0.67770 0.71340 0.32460 -0.33400
H 	H 	0.68040 0.76610 0.29530 0.11700
H 	H 	0.73600 0.69100 0.32760 0.12200
O 	O 	0.37760 0.79180 0.49800 -0.50400
O 	O 	0.35390 0.92150 0.53980 -0.32900
O 	O 	0.54160 0.54410 0.59030 -0.42600
O 	O 	0.59120 0.54660 0.71630 -0.48200
O 	O 	0.56850 0.60870 0.31750 -0.51700
O 	O 	0.20250 0.87570 0.49090 -0.36900
O 	O 	0.63030 0.64890 0.20280 -0.39800
K 	K 	0.46578 0.62756 0.45262 0.65100
C 	C 	0.04450 0.26620 0.65140 -0.76600
H 	H 	0.05970 0.21860 0.68390 0.24500
H 	H 	0.98260 0.27040 0.64760 0.25800
H 	H 	0.06730 0.31600 0.67610 0.23500
C 	C 	0.08230 0.25630 0.56740 0.19600
C 	C 	0.05810 0.31040 0.50390 -0.16200
C 	C 	0.99850 0.38160 0.52060 -0.15000
H 	H 	0.00960 0.42490 0.48060 0.05300
H 	H 	0.01340 0.40460 0.57330 0.04800
C 	C 	0.90230 0.36310 0.52000 0.35200
C 	C 	0.05710 0.34950 0.35820 -0.66000
H 	H 	0.00020 0.37010 0.37020 0.20700
H 	H 	0.05530 0.31710 0.30910 0.20400
H 	H 	0.09600 0.39580 0.35130 0.21400
C 	C 	0.08820 0.29560 0.42670 0.18100
C 	C 	0.14510 0.23010 0.41050 -0.09800
C 	C 	0.17070 0.17510 0.47450 0.18600
C 	C 	0.13840 0.18980 0.55160 -0.11200
C 	C 	0.22610 0.10000 0.45650 -0.72200
H 	H 	0.21990 0.05960 0.49920 0.25400
H 	H 	0.28560 0.11680 0.45270 0.24400
H 	H 	0.20810 0.07550 0.40590 0.24700
C 	C 	0.16180 0.13190 0.62140 -0.31900
H 	H 	0.21430 0.10170 0.60760 0.12100
H 	H 	0.17390 0.16540 0.66920 0.11800
C 	C 	0.09110 0.06950 0.64120 0.40800
C 	C 	0.12100 0.15290 0.27730 0.40500
C 	C 	0.17770 0.21340 0.32460 -0.31400
H 	H 	0.18040 0.26610 0.29530 0.10900
H 	H 	0.23600 0.19100 0.32760 0.11500
O 	O 	0.87760 0.29180 0.49800 -0.48400
O 	O 	0.85390 0.42150 0.53980 -0.30900
O 	O 	0.04160 0.04410 0.59030 -0.43200
O 	O 	0.09120 0.04660 0.71630 -0.48400
O 	O 	0.06850 0.10870 0.31750 -0.52400
O 	O 	0.70250 0.37570 0.49090 -0.36700
O 	O 	0.13030 0.14890 0.20280 -0.40100
K 	K 	0.96578 0.12756 0.45262 0.65600
C 	C 	0.54450 0.23380 0.15140 -0.66500
H 	H 	0.55970 0.28140 0.18390 0.21700
H 	H 	0.48260 0.22960 0.14760 0.20900
H 	H 	0.56730 0.18400 0.17610 0.20700
C 	C 	0.58230 0.24370 0.06740 0.18200
C 	C 	0.55810 0.18960 0.00390 -0.14400
C 	C 	0.49850 0.11840 0.02060 -0.35500
H 	H 	0.50960 0.07510 0.98060 0.15700
H 	H 	0.51340 0.09540 0.07330 0.12300
C 	C 	0.40230 0.13690 0.02000 0.35800
C 	C 	0.55710 0.15050 0.85820 -0.72900
H 	H 	0.50020 0.12990 0.87020 0.24000
H 	H 	0.55530 0.18290 0.80910 0.23000
H 	H 	0.59600 0.10420 0.85130 0.23900
C 	C 	0.58820 0.20440 0.92670 0.23500
C 	C 	0.64510 0.26990 0.91050 -0.13600
C 	C 	0.67070 0.32490 0.97450 0.27100
C 	C 	0.63840 0.31020 0.05160 -0.16900
C 	C 	0.72610 0.40000 0.95650 -0.82300
H 	H 	0.71990 0.44040 0.99920 0.29900
H 	H 	0.78560 0.38320 0.95270 0.28100
H 	H 	0.70810 0.42450 0.90590 0.28100
C 	C 	0.66180 0.36810 0.12140 -0.28700
H 	H 	0.71430 0.39830 0.10760 0.10200
H 	H 	0.67390 0.33460 0.16920 0.10900
C 	C 	0.59110 0.43050 0.14120 0.39700
C 	C 	0.62100 0.34710 0.77730 0.39500
C 	C 	0.67770 0.28660 0.82460 -0.28900
H 	H 	0.68040 0.23390 0.79530 0.10200
H 	H 	0.73600 0.30900 0.82760 0.10800
O 	O 	0.37760 0.20820 0.99800 -0.45400
O 	O 	0.35390 0.07850 0.03980 -0.33600
O 	O 	0.54160 0.45590 0.09030 -0.43200
O 	O 	0.59120 0.45340 0.21630 -0.47900
O 	O 	0.56850 0.39130 0.81750 -0.51200
O 	O 	0.20250 0.12430 0.99090 -0.34300
O 	O 	0.63030 0.35110 0.70280 -0.39000
K 	K 	0.46578 0.37244 0.95262 0.65700
C 	C 	0.04450 0.73380 0.15140 -0.83400
H 	H 	0.05970 0.78140 0.18390 0.26400
H 	H 	0.98260 0.72960 0.14760 0.27700
H 	H 	0.06730 0.68400 0.17610 0.25400
C 	C 	0.08230 0.74370 0.06740 0.25800
C 	C 	0.05810 0.68960 0.00390 -0.24200
C 	C 	0.99850 0.61840 0.02060 -0.16400
H 	H 	0.00960 0.57510 0.98060 0.08100
H 	H 	0.01340 0.59540 0.07330 0.05000
C 	C 	0.90230 0.63690 0.02000 0.31000
C 	C 	0.05710 0.65050 0.85820 -0.76400
H 	H 	0.00020 0.62990 0.87020 0.24200
H 	H 	0.05530 0.68290 0.80910 0.23500
H 	H 	0.09600 0.60420 0.85130 0.24800
C 	C 	0.08820 0.70440 0.92670 0.27800
C 	C 	0.14510 0.76990 0.91050 -0.16300
C 	C 	0.17070 0.82490 0.97450 0.29200
C 	C 	0.13840 0.81020 0.05160 -0.20400
C 	C 	0.22610 0.90000 0.95650 -0.84400
H 	H 	0.21990 0.94040 0.99920 0.30300
H 	H 	0.28560 0.88320 0.95270 0.28700
H 	H 	0.20810 0.92450 0.90590 0.28500
C 	C 	0.16180 0.86810 0.12140 -0.26800
H 	H 	0.21430 0.89830 0.10760 0.09700
H 	H 	0.17390 0.83460 0.16920 0.10100
C 	C 	0.09110 0.93050 0.14120 0.39000
C 	C 	0.12100 0.84710 0.77730 0.39000
C 	C 	0.17770 0.78660 0.82460 -0.27500
H 	H 	0.18040 0.73390 0.79530 0.09700
H 	H 	0.23600 0.80900 0.82760 0.10300
O 	O 	0.87760 0.70820 0.99800 -0.44200
O 	O 	0.85390 0.57850 0.03980 -0.31600
O 	O 	0.04160 0.95590 0.09030 -0.43700
O 	O 	0.09120 0.95340 0.21630 -0.48200
O 	O 	0.06850 0.89130 0.81750 -0.52000
O 	O 	0.70250 0.62430 0.99090 -0.34500
O 	O 	0.13030 0.85110 0.70280 -0.39300
K 	K 	0.96578 0.87244 0.95262 0.66100
C 	C 	0.45550 0.23380 0.34860 -0.58300
H 	H 	0.44030 0.28140 0.31610 0.19200
H 	H 	0.51740 0.22960 0.35240 0.18600
H 	H 	0.43270 0.18400 0.32390 0.18100
C 	C 	0.41770 0.24370 0.43260 0.10900
C 	C 	0.44190 0.18960 0.49610 -0.05200
C 	C 	0.50150 0.11840 0.47940 -0.34000
H 	H 	0.49040 0.07510 0.51940 0.12500
H 	H 	0.48660 0.09540 0.42670 0.12100
C 	C 	0.59770 0.13690 0.48000 0.40700
C 	C 	0.44290 0.15050 0.64180 -0.60700
H 	H 	0.49980 0.12990 0.62980 0.19800
H 	H 	0.44470 0.18290 0.69090 0.19200
H 	H 	0.40400 0.10420 0.64870 0.20000
C 	C 	0.41180 0.20440 0.57330 0.12400
C 	C 	0.35490 0.26990 0.58950 -0.06100
C 	C 	0.32930 0.32490 0.52550 0.15100
C 	C 	0.36160 0.31020 0.44840 -0.06300
C 	C 	0.27390 0.40000 0.54350 -0.68400
H 	H 	0.28010 0.44040 0.50080 0.24300
H 	H 	0.21440 0.38320 0.54730 0.23300
H 	H 	0.29190 0.42450 0.59410 0.23700
C 	C 	0.33820 0.36810 0.37860 -0.34400
H 	H 	0.28570 0.39830 0.39240 0.12800
H 	H 	0.32610 0.33460 0.33080 0.12600
C 	C 	0.40890 0.43050 0.35880 0.41700
C 	C 	0.37900 0.34710 0.72270 0.40900
C 	C 	0.32230 0.28660 0.67540 -0.33200
H 	H 	0.31960 0.23390 0.70470 0.11700
H 	H 	0.26400 0.30900 0.67240 0.12100
O 	O 	0.62240 0.20820 0.50200 -0.50400
O 	O 	0.64610 0.07850 0.46020 -0.32800
O 	O 	0.45840 0.45590 0.40970 -0.42600
O 	O 	0.40880 0.45340 0.28370 -0.48400
O 	O 	0.43150 0.39130 0.68250 -0.51600
O 	O 	0.79750 0.12430 0.50910 -0.36400
O 	O 	0.36970 0.35110 0.79720 -0.38900
K 	K 	0.53422 0.37244 0.54738 0.65100
C 	C 	0.95550 0.73380 0.34860 -0.40600
H 	H 	0.94030 0.78140 0.31610 0.14200
H 	H 	0.01740 0.72960 0.35240 0.11800
H 	H 	0.93270 0.68400 0.32390 0.13100
C 	C 	0.91770 0.74370 0.43260 0.02400
C 	C 	0.94190 0.68960 0.49610 0.05700
C 	C 	0.00150 0.61840 0.47940 -0.52900
H 	H 	0.99040 0.57510 0.51940 0.19700
H 	H 	0.98660 0.59540 0.42670 0.19400
C 	C 	0.09770 0.63690 0.48000 0.46200
C 	C 	0.94290 0.65050 0.64180 -0.55700
H 	H 	0.99980 0.62990 0.62980 0.19000
H 	H 	0.94470 0.68290 0.69090 0.18300
H 	H 	0.90400 0.60420 0.64870 0.18600
C 	C 	0.91180 0.70440 0.57330 0.06700
C 	C 	0.85490 0.76990 0.58950 -0.02500
C 	C 	0.82930 0.82490 0.52550 0.11500
C 	C 	0.86160 0.81020 0.44840 -0.01400
C 	C 	0.77390 0.90000 0.54350 -0.64400
H 	H 	0.78010 0.94040 0.50080 0.23100
H 	H 	0.71440 0.88320 0.54730 0.22000
H 	H 	0.79190 0.92450 0.59410 0.22600
C 	C 	0.83820 0.86810 0.37860 -0.37000
H 	H 	0.78570 0.89830 0.39240 0.13600
H 	H 	0.82610 0.83460 0.33080 0.13600
C 	C 	0.90890 0.93050 0.35880 0.42600
C 	C 	0.87900 0.84710 0.72270 0.41600
C 	C 	0.82230 0.78660 0.67540 -0.35200
H 	H 	0.81960 0.73390 0.70470 0.12400
H 	H 	0.76400 0.80900 0.67240 0.12700
O 	O 	0.12240 0.70820 0.50200 -0.52300
O 	O 	0.14610 0.57850 0.46020 -0.34800
O 	O 	0.95840 0.95590 0.40970 -0.41800
O 	O 	0.90880 0.95340 0.28370 -0.47600
O 	O 	0.93150 0.89130 0.68250 -0.50800
O 	O 	0.29750 0.62430 0.50910 -0.36700
O 	O 	0.86970 0.85110 0.79720 -0.38700
K 	K 	0.03422 0.87244 0.54738 0.64700
Zn	Zn	0.50000 0.46868 0.75000 1.23300
Zn	Zn	0.00000 0.96868 0.75000 1.22600
Zn	Zn	0.50000 0.53132 0.25000 1.23300
Zn	Zn	0.00000 0.03132 0.25000 1.22600
Zn	Zn	0.75000 0.75000 -0.00000 1.18000
Zn	Zn	0.25000 0.75000 0.50000 1.19100
Zn	Zn	0.25000 0.25000 -0.00000 1.17900
Zn	Zn	0.75000 0.25000 0.50000 1.19100
