data_crystal

_cell_length_a 9.57200
_cell_length_b 14.71800
_cell_length_c 19.57100
_cell_angle_alpha 73.65800
_cell_angle_beta  77.09300
_cell_angle_gamma 80.26000

_symmetry_space_group_name_	'P 1'
_symmetry_space_group_name_H-M	'P 1'

loop_
_symmetry_equiv_pos_as_xyz
  x,y,z

loop_
_atom_site_label
_atom_site_type_symbol
_atom_site_fract_x
_atom_site_fract_y
_atom_site_fract_z
_atom_site_charge
Zn	Zn	0.72721 0.12622 0.45317 1.18200
Zn	Zn	0.73997 0.88428 0.04875 1.18700
O 	O 	0.55700 0.82700 0.19437 -0.31900
O 	O 	0.54580 0.84570 0.08072 -0.49000
O 	O 	0.92860 0.15730 0.42250 -0.48600
O 	O 	0.91260 0.17040 0.30953 -0.31200
O 	O 	0.88560 0.80860 0.10006 -0.47800
O 	O 	0.05360 0.88660 0.01749 -0.34400
O 	O 	0.60100 0.17310 0.38072 -0.46200
O 	O 	0.43330 0.11830 0.47328 -0.36200
N 	N 	0.75040 0.91310 0.93927 -0.27700
N 	N 	0.72130 0.07270 0.56402 -0.27500
N 	N 	0.08200 0.67480 0.32450 -0.20300
H 	H 	0.99330 0.66450 0.33200 0.11600
N 	N 	0.35800 0.32440 0.16540 -0.20600
H 	H 	0.30550 0.32860 0.13400 0.11900
C 	C 	0.10940 0.80580 0.13290 -0.06900
C 	C 	0.25260 0.82840 0.11510 -0.00800
H 	H 	0.28970 0.86040 0.06790 0.02600
C 	C 	0.33760 0.80350 0.16700 -0.07100
C 	C 	0.28380 0.75290 0.23810 -0.08300
H 	H 	0.34130 0.73620 0.27330 0.06500
C 	C 	0.14250 0.72810 0.25530 0.08800
C 	C 	0.05650 0.75540 0.20210 -0.08600
H 	H 	0.96270 0.73930 0.21370 0.07000
C 	C 	0.15810 0.63750 0.38190 -0.00500
H 	H 	0.17230 0.68850 0.40120 0.02100
H 	H 	0.25200 0.60660 0.36470 0.02200
C 	C 	0.07020 0.56470 0.44160 -0.10100
C 	C 	0.96390 0.59810 0.49470 0.10500
C 	C 	0.10170 0.46690 0.44570 0.09100
C 	C 	0.54910 0.40250 0.00760 0.10100
C 	C 	0.43390 0.53290 0.06100 0.10400
C 	C 	0.48730 0.43780 0.06880 -0.10300
C 	C 	0.48430 0.36950 0.14430 -0.00400
H 	H 	0.56800 0.32200 0.14350 0.02700
H 	H 	0.48770 0.40460 0.17890 0.02500
C 	C 	0.31620 0.27220 0.23770 0.10000
C 	C 	0.41260 0.24200 0.28530 -0.09900
H 	H 	0.50820 0.25470 0.26970 0.07800
C 	C 	0.36470 0.19240 0.35710 -0.05200
C 	C 	0.22400 0.17320 0.38040 -0.02100
H 	H 	0.19180 0.14280 0.42860 0.03800
C 	C 	0.12950 0.19950 0.33130 -0.05700
C 	C 	0.17610 0.24870 0.26060 -0.09400
H 	H 	0.11290 0.26610 0.22800 0.07000
C 	C 	0.84650 0.06400 0.58720 0.05900
H 	H 	0.92950 0.07910 0.55320 -0.02100
C 	C 	0.85570 0.03360 0.65980 -0.12900
H 	H 	0.94380 0.02860 0.67400 0.06900
C 	C 	0.73300 0.01050 0.71150 0.06200
C 	C 	0.60560 0.01920 0.68700 -0.14100
H 	H 	0.52070 0.00470 0.71970 0.08000
C 	C 	0.60560 0.04900 0.61530 0.08900
H 	H 	0.51850 0.05350 0.60030 -0.01800
C 	C 	0.74280 0.97360 0.79120 0.06800
C 	C 	0.86850 0.96090 0.81550 -0.13400
H 	H 	0.95410 0.97250 0.78250 0.08000
C 	C 	0.87020 0.93020 0.89010 0.07300
H 	H 	0.95760 0.92160 0.90560 -0.00800
C 	C 	0.62760 0.92390 0.91550 0.07100
H 	H 	0.54340 0.91050 0.94910 -0.03400
C 	C 	0.61990 0.95390 0.84360 -0.14100
H 	H 	0.53120 0.96110 0.82950 0.06700
C 	C 	0.01230 0.83590 0.07860 0.31200
C 	C 	0.49040 0.82630 0.14780 0.33300
C 	C 	0.47140 0.15830 0.40870 0.30600
C 	C 	0.97830 0.17520 0.35570 0.32800
C 	C 	0.21090 0.43250 0.38610 -0.58000
H 	H 	0.29990 0.40710 0.40290 0.19100
H 	H 	0.22770 0.48500 0.34420 0.19900
H 	H 	0.17400 0.38380 0.37360 0.20000
C 	C 	0.92160 0.70360 0.48570 -0.61400
H 	H 	0.81830 0.71660 0.49420 0.20700
H 	H 	0.96050 0.73730 0.43730 0.21100
H 	H 	0.95900 0.72420 0.51980 0.21000
C 	C 	0.36330 0.57090 0.12670 -0.60600
H 	H 	0.43270 0.59920 0.14030 0.20600
H 	H 	0.32890 0.51940 0.16620 0.20800
H 	H 	0.28380 0.61790 0.11500 0.20900
C 	C 	0.59670 0.29650 0.01520 -0.60800
H 	H 	0.55720 0.27530 0.98220 0.21000
H 	H 	0.56270 0.26170 0.06400 0.21000
H 	H 	0.70010 0.28590 0.00430 0.20700
Zn	Zn	0.27279 0.87378 0.54683 1.18300
Zn	Zn	0.26003 0.11572 0.95125 1.18800
O 	O 	0.44300 0.17300 0.80563 -0.31900
O 	O 	0.45420 0.15430 0.91928 -0.49000
O 	O 	0.07140 0.84270 0.57750 -0.48600
O 	O 	0.08740 0.82960 0.69047 -0.31200
O 	O 	0.11440 0.19140 0.89994 -0.47800
O 	O 	0.94640 0.11340 0.98251 -0.34400
O 	O 	0.39900 0.82690 0.61928 -0.46200
O 	O 	0.56670 0.88170 0.52672 -0.36200
N 	N 	0.24960 0.08690 0.06073 -0.27700
N 	N 	0.27870 0.92730 0.43598 -0.27500
N 	N 	0.91800 0.32520 0.67550 -0.20300
H 	H 	0.00670 0.33550 0.66800 0.11600
N 	N 	0.64200 0.67560 0.83460 -0.20600
H 	H 	0.69450 0.67140 0.86600 0.11900
C 	C 	0.89060 0.19420 0.86710 -0.06900
C 	C 	0.74740 0.17160 0.88490 -0.00800
H 	H 	0.71030 0.13960 0.93210 0.02600
C 	C 	0.66240 0.19650 0.83300 -0.07100
C 	C 	0.71620 0.24710 0.76190 -0.08300
H 	H 	0.65870 0.26380 0.72670 0.06500
C 	C 	0.85750 0.27190 0.74470 0.08800
C 	C 	0.94350 0.24460 0.79790 -0.08600
H 	H 	0.03730 0.26070 0.78630 0.07000
C 	C 	0.84190 0.36250 0.61810 -0.00500
H 	H 	0.82770 0.31150 0.59880 0.02100
H 	H 	0.74800 0.39340 0.63530 0.02200
C 	C 	0.92980 0.43530 0.55840 -0.10100
C 	C 	0.03610 0.40190 0.50530 0.10500
C 	C 	0.89830 0.53310 0.55430 0.09100
C 	C 	0.45090 0.59750 0.99240 0.10100
C 	C 	0.56610 0.46710 0.93900 0.10400
C 	C 	0.51270 0.56220 0.93120 -0.10300
C 	C 	0.51570 0.63050 0.85570 -0.00400
H 	H 	0.43200 0.67800 0.85650 0.02700
H 	H 	0.51230 0.59540 0.82110 0.02500
C 	C 	0.68380 0.72780 0.76230 0.10000
C 	C 	0.58740 0.75800 0.71470 -0.09900
H 	H 	0.49180 0.74530 0.73030 0.07800
C 	C 	0.63530 0.80760 0.64290 -0.05200
C 	C 	0.77600 0.82680 0.61960 -0.02100
H 	H 	0.80820 0.85720 0.57140 0.03800
C 	C 	0.87050 0.80050 0.66870 -0.05700
C 	C 	0.82390 0.75130 0.73940 -0.09400
H 	H 	0.88710 0.73390 0.77200 0.07000
C 	C 	0.15350 0.93600 0.41280 0.05900
H 	H 	0.07050 0.92090 0.44680 -0.02100
C 	C 	0.14430 0.96640 0.34020 -0.12900
H 	H 	0.05620 0.97140 0.32600 0.06900
C 	C 	0.26700 0.98950 0.28850 0.06200
C 	C 	0.39440 0.98080 0.31300 -0.14100
H 	H 	0.47930 0.99530 0.28030 0.08000
C 	C 	0.39440 0.95100 0.38470 0.08900
H 	H 	0.48150 0.94650 0.39970 -0.01800
C 	C 	0.25720 0.02640 0.20880 0.06800
C 	C 	0.13150 0.03910 0.18450 -0.13400
H 	H 	0.04590 0.02750 0.21750 0.08000
C 	C 	0.12980 0.06980 0.10990 0.07300
H 	H 	0.04240 0.07840 0.09440 -0.00800
C 	C 	0.37240 0.07610 0.08450 0.07100
H 	H 	0.45660 0.08950 0.05090 -0.03400
C 	C 	0.38010 0.04610 0.15640 -0.14100
H 	H 	0.46880 0.03890 0.17050 0.06700
C 	C 	0.98770 0.16410 0.92140 0.31200
C 	C 	0.50960 0.17370 0.85220 0.33300
C 	C 	0.52860 0.84170 0.59130 0.30600
C 	C 	0.02170 0.82480 0.64430 0.32800
C 	C 	0.78910 0.56750 0.61390 -0.58000
H 	H 	0.70010 0.59290 0.59710 0.19100
H 	H 	0.77230 0.51500 0.65580 0.19900
H 	H 	0.82600 0.61620 0.62640 0.20000
C 	C 	0.07840 0.29640 0.51430 -0.61400
H 	H 	0.18170 0.28340 0.50580 0.20700
H 	H 	0.03950 0.26270 0.56270 0.21100
H 	H 	0.04100 0.27580 0.48020 0.21000
C 	C 	0.63670 0.42910 0.87330 -0.60600
H 	H 	0.56730 0.40080 0.85970 0.20600
H 	H 	0.67110 0.48060 0.83380 0.20800
H 	H 	0.71620 0.38210 0.88500 0.20900
C 	C 	0.40330 0.70350 0.98480 -0.60800
H 	H 	0.44280 0.72470 0.01780 0.21000
H 	H 	0.43730 0.73830 0.93600 0.21000
H 	H 	0.29990 0.71410 0.99570 0.20700
