data_crystal

_cell_length_a 13.56500
_cell_length_b 13.56500
_cell_length_c 15.50300
_cell_angle_alpha 90.00000
_cell_angle_beta  90.00000
_cell_angle_gamma 90.00000

_symmetry_space_group_name_	'P 1'
_symmetry_space_group_name_H-M	'P 1'

loop_
_symmetry_equiv_pos_as_xyz
  x,y,z

loop_
_atom_site_label
_atom_site_type_symbol
_atom_site_fract_x
_atom_site_fract_y
_atom_site_fract_z
_atom_site_charge
S 	S 	0.22329 0.28493 0.10762 0.02800
O 	O 	0.30710 0.10630 0.29000 -0.51900
O 	O 	0.35200 0.11390 0.15560 -0.48900
O 	O 	0.02630 0.49780 0.12280 -0.52100
O 	O 	0.12090 0.45260 0.01530 -0.47900
C 	C 	0.23040 0.22550 0.20440 -0.10500
C 	C 	0.16680 0.26350 0.26250 -0.01800
H 	H 	0.15810 0.23840 0.31780 0.04300
C 	C 	0.11470 0.34620 0.22950 -0.03200
H 	H 	0.07030 0.38340 0.26150 0.04800
C 	C 	0.13710 0.36450 0.14660 -0.08500
C 	C 	0.29840 0.14390 0.21670 0.32600
C 	C 	0.09320 0.44300 0.09030 0.30900
S 	S 	0.77671 0.71507 0.60762 0.17200
O 	O 	0.69290 0.89370 0.79000 -0.39000
O 	O 	0.64800 0.88610 0.65560 -0.31100
O 	O 	0.97370 0.50220 0.62280 -0.34900
O 	O 	0.87910 0.54740 0.51530 -0.34000
C 	C 	0.76960 0.77450 0.70440 -0.06500
C 	C 	0.83320 0.73650 0.76250 0.01700
H 	H 	0.84190 0.76160 0.81780 0.09400
C 	C 	0.88530 0.65380 0.72950 -0.00500
H 	H 	0.92970 0.61660 0.76150 0.10600
C 	C 	0.86290 0.63550 0.64660 -0.04400
C 	C 	0.70160 0.85610 0.71670 0.32600
C 	C 	0.90680 0.55700 0.59030 0.30600
S 	S 	0.71507 0.22329 0.35762 0.10900
O 	O 	0.89370 0.30710 0.54000 -0.40800
O 	O 	0.88610 0.35200 0.40560 -0.32300
O 	O 	0.50220 0.02630 0.37280 -0.51600
O 	O 	0.54740 0.12090 0.26530 -0.45600
C 	C 	0.77450 0.23040 0.45440 -0.06800
C 	C 	0.73650 0.16680 0.51250 -0.02300
H 	H 	0.76160 0.15810 0.56780 0.06800
C 	C 	0.65380 0.11470 0.47950 -0.00600
H 	H 	0.61660 0.07030 0.51150 0.04700
C 	C 	0.63550 0.13710 0.39660 -0.09200
C 	C 	0.85610 0.29840 0.46670 0.31200
C 	C 	0.55700 0.09320 0.34030 0.32100
S 	S 	0.28493 0.77671 0.85762 0.10400
O 	O 	0.10630 0.69290 0.04000 -0.53200
O 	O 	0.11390 0.64800 0.90560 -0.46800
O 	O 	0.49780 0.97370 0.87280 -0.35200
O 	O 	0.45260 0.87910 0.76530 -0.35600
C 	C 	0.22550 0.76960 0.95440 -0.01900
C 	C 	0.26350 0.83320 0.01250 -0.16800
H 	H 	0.23840 0.84190 0.06780 0.12500
C 	C 	0.34620 0.88530 0.97950 0.17400
H 	H 	0.38340 0.92970 0.01150 0.01100
C 	C 	0.36450 0.86290 0.89660 -0.10300
C 	C 	0.14390 0.70160 0.96670 0.35500
C 	C 	0.44300 0.90680 0.84030 0.32400
S 	S 	0.77671 0.28493 0.89238 0.11300
O 	O 	0.69290 0.10630 0.71000 -0.50600
O 	O 	0.64800 0.11390 0.84440 -0.47200
O 	O 	0.97370 0.49780 0.87720 -0.34300
O 	O 	0.87910 0.45260 0.98470 -0.33400
C 	C 	0.76960 0.22550 0.79560 -0.10600
C 	C 	0.83320 0.26350 0.73750 0.02600
H 	H 	0.84190 0.23840 0.68220 0.06400
C 	C 	0.88530 0.34620 0.77050 -0.03300
H 	H 	0.92970 0.38340 0.73850 0.10800
C 	C 	0.86290 0.36450 0.85340 -0.03500
C 	C 	0.70160 0.14390 0.78330 0.34300
C 	C 	0.90680 0.44300 0.90970 0.29400
S 	S 	0.22329 0.71507 0.39238 0.11500
O 	O 	0.30710 0.89370 0.21000 -0.41100
O 	O 	0.35200 0.88610 0.34440 -0.32000
O 	O 	0.02630 0.50220 0.37720 -0.51400
O 	O 	0.12090 0.54740 0.48470 -0.45100
C 	C 	0.23040 0.77450 0.29560 -0.07100
C 	C 	0.16680 0.73650 0.23750 -0.02100
H 	H 	0.15810 0.76160 0.18220 0.06400
C 	C 	0.11470 0.65380 0.27050 -0.00800
H 	H 	0.07030 0.61660 0.23850 0.04800
C 	C 	0.13710 0.63550 0.35340 -0.09100
C 	C 	0.29840 0.85610 0.28330 0.31300
C 	C 	0.09320 0.55700 0.40970 0.32100
S 	S 	0.28493 0.22329 0.64238 0.04700
O 	O 	0.10630 0.30710 0.46000 -0.51900
O 	O 	0.11390 0.35200 0.59440 -0.48200
O 	O 	0.49780 0.02630 0.62720 -0.51600
O 	O 	0.45260 0.12090 0.73470 -0.46000
C 	C 	0.22550 0.23040 0.54560 -0.10600
C 	C 	0.26350 0.16680 0.48750 -0.01600
H 	H 	0.23840 0.15810 0.43220 0.04200
C 	C 	0.34620 0.11470 0.52050 -0.03200
H 	H 	0.38340 0.07030 0.48850 0.04900
C 	C 	0.36450 0.13710 0.60340 -0.08400
C 	C 	0.14390 0.29840 0.53330 0.32800
C 	C 	0.44300 0.09320 0.65970 0.30900
S 	S 	0.71507 0.77671 0.14238 0.16600
O 	O 	0.89370 0.69290 0.96000 -0.36900
O 	O 	0.88610 0.64800 0.09440 -0.31800
O 	O 	0.50220 0.97370 0.12720 -0.34600
O 	O 	0.54740 0.87910 0.23470 -0.33300
C 	C 	0.77450 0.76960 0.04560 -0.15100
C 	C 	0.73650 0.83320 0.98750 0.20100
H 	H 	0.76160 0.84190 0.93220 0.03100
C 	C 	0.65380 0.88530 0.02050 -0.20700
H 	H 	0.61660 0.92970 0.98850 0.19900
C 	C 	0.63550 0.86290 0.10340 0.02100
C 	C 	0.85610 0.70160 0.03330 0.31500
C 	C 	0.55700 0.90680 0.15970 0.27600
In	In	0.42366 0.00000 0.25000 1.94600
In	In	0.57634 0.00000 0.75000 1.94700
In	In	0.00000 0.42366 0.50000 1.94700
In	In	-0.00000 0.57634 -0.00000 1.93900
