data_crystal

_cell_length_a 13.50650
_cell_length_b 13.50650
_cell_length_c 15.90760
_cell_angle_alpha 90.00000
_cell_angle_beta  90.00000
_cell_angle_gamma 90.00000

_symmetry_space_group_name_	'P 1'
_symmetry_space_group_name_H-M	'P 1'

loop_
_symmetry_equiv_pos_as_xyz
  x,y,z

loop_
_atom_site_label
_atom_site_type_symbol
_atom_site_fract_x
_atom_site_fract_y
_atom_site_fract_z
_atom_site_charge
S 	S 	0.19977 0.26432 0.42451 0.01300
O 	O 	0.12432 0.44142 0.52348 -0.31600
O 	O 	0.01301 0.50120 0.42841 -0.56600
O 	O 	0.28308 0.11954 0.21921 -0.57800
O 	O 	0.29951 0.07759 0.34507 -0.61400
C 	C 	0.20631 0.22711 0.32166 -0.12100
C 	C 	0.12569 0.36092 0.39380 -0.09800
C 	C 	0.08871 0.43642 0.45315 0.29400
C 	C 	0.26389 0.13985 0.29471 0.35300
C 	C 	0.10621 0.36228 0.30856 -0.02300
H 	H 	0.06069 0.41702 0.27743 0.01400
C 	C 	0.15309 0.28628 0.26720 -0.01400
H 	H 	0.14816 0.27437 0.20005 0.03400
C 	C 	0.49795 0.21848 0.50826 0.01700
C 	C 	0.40467 0.16478 0.53790 -0.17000
S 	S 	0.73562 0.72592 0.91912 0.12600
O 	O 	0.80937 0.54624 1.01411 -0.23800
O 	O 	0.92810 0.49511 0.92197 -0.36000
O 	O 	0.66532 0.88372 0.71784 -0.46400
O 	O 	0.63937 0.91631 0.84481 -0.42600
C 	C 	0.73535 0.76961 0.81817 -0.08000
C 	C 	0.81249 0.63234 0.88736 -0.06100
C 	C 	0.84853 0.55553 0.94550 0.31300
C 	C 	0.67905 0.85813 0.79305 0.34000
C 	C 	0.83705 0.63619 0.80316 0.01400
H 	H 	0.88516 0.58400 0.77166 0.08400
C 	C 	0.79227 0.71447 0.76342 0.01900
H 	H 	0.80115 0.73081 0.69731 0.08000
C 	C 	0.46266 0.79303 0.03534 0.02300
C 	C 	0.56524 0.83553 0.05488 -0.19800
S 	S 	0.70550 0.22613 0.17128 0.05600
O 	O 	0.53126 0.14777 0.27117 -0.31900
O 	O 	0.47028 0.03757 0.17592 -0.57000
O 	O 	0.85275 0.30583 0.96603 -0.44600
O 	O 	0.88903 0.33060 0.09233 -0.45000
C 	C 	0.74266 0.23273 0.06848 -0.14600
C 	C 	0.60964 0.15113 0.14074 -0.06300
C 	C 	0.53512 0.11320 0.20048 0.28800
C 	C 	0.82969 0.29069 0.04166 0.30200
C 	C 	0.60821 0.13166 0.05549 -0.14600
H 	H 	0.55383 0.08564 1.02442 0.07900
C 	C 	0.68388 0.17902 1.01408 0.11800
H 	H 	0.69579 0.17428 0.94697 0.02400
C 	C 	0.76758 0.50911 0.27962 0.02700
C 	C 	0.80952 0.40747 0.30294 -0.19200
S 	S 	0.24598 0.76289 0.67543 0.08600
O 	O 	0.41626 0.85044 0.77575 -0.24600
O 	O 	0.47448 0.96005 0.67855 -0.37800
O 	O 	0.09354 0.69055 0.47105 -0.56200
O 	O 	0.05725 0.66594 0.59750 -0.58500
C 	C 	0.20539 0.76080 0.57331 -0.11000
C 	C 	0.33827 0.84266 0.64516 -0.06200
C 	C 	0.41176 0.88323 0.70442 0.30200
C 	C 	0.11727 0.70459 0.54669 0.36900
C 	C 	0.33679 0.86556 0.56054 -0.00100
H 	H 	0.38845 0.91502 0.52992 0.08300
C 	C 	0.26119 0.81815 0.51931 0.02000
H 	H 	0.24663 0.82633 0.45279 0.06500
C 	C 	0.53606 0.60770 0.72910 0.01400
C 	C 	0.57432 0.64006 0.64273 -0.17800
S 	S 	0.73375 0.27874 0.58718 0.06200
O 	O 	0.79587 0.47053 0.50159 -0.28300
O 	O 	0.93203 0.50334 0.58161 -0.37300
O 	O 	0.66889 0.11717 0.78741 -0.56500
O 	O 	0.63838 0.08597 0.66077 -0.59100
C 	C 	0.73888 0.23014 0.68649 -0.11000
C 	C 	0.81396 0.36956 0.61899 -0.06200
C 	C 	0.84552 0.45050 0.56327 0.30400
C 	C 	0.68110 0.14275 0.71201 0.36600
C 	C 	0.84444 0.36050 0.70145 -0.00000
H 	H 	0.89526 0.41035 0.73259 0.08600
C 	C 	0.80069 0.28113 0.74033 0.01600
H 	H 	0.81333 0.26134 0.80534 0.06600
C 	C 	0.44233 0.37909 0.45199 0.01300
C 	C 	0.52537 0.45115 0.47563 -0.17200
S 	S 	0.20407 0.73002 0.07898 0.05500
O 	O 	0.12464 0.55402 -0.01936 -0.33200
O 	O 	0.00990 0.49896 0.07495 -0.56400
O 	O 	0.28105 0.87774 0.28439 -0.47100
O 	O 	0.30231 0.91808 0.15849 -0.44100
C 	C 	0.20669 0.76996 0.18125 -0.08200
C 	C 	0.12551 0.63670 0.10927 -0.10300
C 	C 	0.08782 0.56119 0.05039 0.30400
C 	C 	0.26441 0.85679 0.20858 0.32700
C 	C 	0.10228 0.63822 0.19380 -0.00400
H 	H 	0.05349 0.58598 0.22450 0.01600
C 	C 	0.14949 0.71389 0.23512 -0.01400
H 	H 	0.14175 0.72800 0.30178 0.05300
C 	C 	0.49870 0.62402 0.98509 0.05200
C 	C 	0.41650 0.56012 1.02323 -0.19000
S 	S 	0.25563 0.24865 0.83659 0.03400
O 	O 	0.43940 0.17529 0.74582 -0.32200
O 	O 	0.47727 0.04475 0.83088 -0.55500
O 	O 	0.08960 0.30862 0.03490 -0.61100
O 	O 	0.05635 0.33375 0.90784 -0.59600
C 	C 	0.20437 0.23967 0.93483 -0.05600
C 	C 	0.34340 0.16394 0.86691 -0.13900
C 	C 	0.42269 0.12965 0.81037 0.31600
C 	C 	0.11520 0.29508 0.95969 0.38400
C 	C 	0.33241 0.13100 0.94856 0.12300
H 	H 	0.37999 0.07713 -0.02139 -0.04800
C 	C 	0.25340 0.17516 -0.01227 -0.14700
H 	H 	0.23157 0.15964 0.05184 0.05600
C 	C 	0.54195 0.42554 0.72908 0.01300
C 	C 	0.56748 0.39716 0.81982 -0.17300
S 	S 	0.69548 0.75937 0.33764 0.10800
O 	O 	0.50522 0.82268 0.24980 -0.27800
O 	O 	0.46965 0.95807 0.32989 -0.36600
O 	O 	0.85635 0.69428 0.53852 -0.45900
O 	O 	0.89038 0.66771 0.41199 -0.42800
C 	C 	0.74373 0.76515 0.43718 -0.07200
C 	C 	0.60449 0.84038 0.36843 -0.06200
C 	C 	0.52387 0.87208 0.31192 0.31300
C 	C 	0.83184 0.70819 0.46307 0.34200
C 	C 	0.61298 0.87095 0.45096 0.01400
H 	H 	0.56294 0.92203 0.48166 0.08600
C 	C 	0.69207 0.82711 0.49049 0.01700
H 	H 	0.71154 0.84033 0.55549 0.08400
C 	C 	0.60537 0.47219 0.21554 0.01500
C 	C 	0.53717 0.55596 0.24483 -0.17500
In	In	-0.02627 0.61524 0.50459 1.99600
In	In	-0.02918 0.38414 -0.00038 1.98500
In	In	0.35661 -0.00194 0.25234 1.99200
In	In	0.58844 0.00143 0.75341 1.99500
N 	N 	0.48032 0.27924 0.43256 -0.18600
N 	N 	0.46402 0.72442 -0.03688 -0.22300
N 	N 	0.70800 0.50622 0.20184 -0.18900
N 	N 	0.47888 0.51468 0.72467 -0.18400
H 	H 	0.55493 0.16140 0.49385 0.01800
H 	H 	0.52650 0.26399 0.56096 0.03200
H 	H 	0.42351 0.11563 0.59115 0.04300
H 	H 	0.37406 0.11804 0.48694 0.04700
H 	H 	0.34795 0.21859 0.55931 0.06400
H 	H 	0.41287 0.85627 0.02042 0.07100
H 	H 	0.43250 0.75654 0.09244 0.03400
H 	H 	0.59645 0.87272 -0.00125 0.11800
H 	H 	0.61648 0.77680 0.07679 0.08700
H 	H 	0.55930 0.89176 0.10523 0.14800
H 	H 	0.83127 0.56019 0.27015 0.08000
H 	H 	0.72384 0.53838 0.33327 0.03600
H 	H 	0.86055 0.41492 0.35702 0.13600
H 	H 	0.85243 0.37608 0.24983 0.12400
H 	H 	0.74937 0.35579 0.32105 0.08100
H 	H 	0.48756 0.66758 0.75364 0.03500
H 	H 	0.59929 0.60111 0.77340 0.02700
H 	H 	0.51147 0.65178 0.59881 0.06700
H 	H 	0.62570 0.58409 0.61624 0.07300
H 	H 	0.61477 0.71104 0.64876 0.08300
H 	H 	0.40414 0.40919 0.39550 0.02800
H 	H 	0.38662 0.37663 0.50342 0.03000
H 	H 	0.49396 0.52652 0.48385 0.06200
H 	H 	0.58209 0.45421 0.42525 0.06900
H 	H 	0.56129 0.42879 0.53526 0.06800
H 	H 	0.52497 0.58648 0.92706 0.01600
H 	H 	0.56260 0.62653 1.02897 0.03400
H 	H 	0.35256 0.55521 0.97952 0.09200
H 	H 	0.39128 0.59082 1.08423 0.09500
H 	H 	0.44503 0.48414 1.03439 0.08100
H 	H 	0.50186 0.36223 0.70007 0.03500
H 	H 	0.61148 0.43569 0.69272 0.02800
H 	H 	0.61519 0.45430 0.84930 0.07000
H 	H 	0.60829 0.32588 0.82036 0.08200
H 	H 	0.49904 0.38778 0.85768 0.07400
H 	H 	0.57535 0.44305 0.15528 0.01700
H 	H 	0.60237 0.41044 0.26163 0.02500
H 	H 	0.53815 0.61790 0.19892 0.07000
H 	H 	0.56000 0.58387 0.30742 0.06900
H 	H 	0.46012 0.52787 0.24982 0.06200
H 	H 	0.42980 0.24343 0.39304 0.09100
H 	H 	0.39262 0.72027 -0.06230 0.08200
H 	H 	0.70731 0.57700 0.17497 0.09700
H 	H 	0.43809 0.51268 0.66869 0.07900
H 	H 	0.74202 0.45937 0.15814 0.10200
H 	H 	0.54664 0.28531 0.39885 0.08800
H 	H 	0.42729 0.51360 0.77380 0.08200
H 	H 	0.50960 0.75320 0.91582 0.12500
