data_crystal

_cell_length_a 9.77990
_cell_length_b 11.33810
_cell_length_c 12.60080
_cell_angle_alpha 90.00000
_cell_angle_beta  90.00000
_cell_angle_gamma 90.00000

_symmetry_space_group_name_	'P 1'
_symmetry_space_group_name_H-M	'P 1'

loop_
_symmetry_equiv_pos_as_xyz
  x,y,z

loop_
_atom_site_label
_atom_site_type_symbol
_atom_site_fract_x
_atom_site_fract_y
_atom_site_fract_z
_atom_site_charge
U 	U 	0.92668 0.32386 0.45650 0.00700
S 	S 	0.51514 0.50707 0.24219 0.10800
O 	O 	0.71030 0.39400 0.38930 -0.17900
O 	O 	0.55830 0.34910 0.51630 -0.16900
O 	O 	0.18800 0.66820 0.13870 -0.18000
O 	O 	0.37940 0.61740 0.05430 -0.19000
C 	C 	0.59210 0.39720 0.43010 0.28500
C 	C 	0.48580 0.46400 0.37030 -0.05600
C 	C 	0.35870 0.49390 0.40530 -0.00700
H 	H 	0.32590 0.47700 0.47460 0.08000
C 	C 	0.28140 0.55280 0.32700 -0.00400
H 	H 	0.19030 0.57990 0.33700 0.07400
C 	C 	0.35420 0.56630 0.23450 -0.06200
C 	C 	0.30390 0.62200 0.13520 0.29000
U 	U 	0.57332 0.67614 0.95650 0.00800
S 	S 	0.98486 0.49293 0.74219 0.10800
O 	O 	0.78970 0.60600 0.88930 -0.17900
O 	O 	0.94170 0.65090 0.01630 -0.16800
O 	O 	0.31200 0.33180 0.63870 -0.18000
O 	O 	0.12060 0.38260 0.55430 -0.19000
C 	C 	0.90790 0.60280 0.93010 0.28500
C 	C 	0.01420 0.53600 0.87030 -0.05500
C 	C 	0.14130 0.50610 0.90530 -0.00700
H 	H 	0.17410 0.52300 0.97460 0.08000
C 	C 	0.21860 0.44720 0.82700 -0.00400
H 	H 	0.30970 0.42010 0.83700 0.07400
C 	C 	0.14580 0.43370 0.73450 -0.06200
C 	C 	0.19610 0.37800 0.63520 0.29000
U 	U 	0.07332 0.82386 0.04350 0.00800
S 	S 	0.48486 0.00707 0.25781 0.10900
O 	O 	0.28970 0.89400 0.11070 -0.17900
O 	O 	0.44170 0.84910 0.98370 -0.16800
O 	O 	0.81200 0.16820 0.36130 -0.18000
O 	O 	0.62060 0.11740 0.44570 -0.19000
C 	C 	0.40790 0.89720 0.06990 0.28500
C 	C 	0.51420 0.96400 0.12970 -0.05600
C 	C 	0.64130 0.99390 0.09470 -0.00700
H 	H 	0.67410 0.97700 0.02540 0.08000
C 	C 	0.71860 0.05280 0.17300 -0.00300
H 	H 	0.80970 0.07990 0.16300 0.07400
C 	C 	0.64580 0.06630 0.26550 -0.06200
C 	C 	0.69610 0.12200 0.36480 0.29000
U 	U 	0.42668 0.17614 0.54350 0.00800
S 	S 	0.01514 0.99293 0.75781 0.10900
O 	O 	0.21030 0.10600 0.61070 -0.17900
O 	O 	0.05830 0.15090 0.48370 -0.16800
O 	O 	0.68800 0.83180 0.86130 -0.18000
O 	O 	0.87940 0.88260 0.94570 -0.19000
C 	C 	0.09210 0.10280 0.56990 0.28600
C 	C 	0.98580 0.03600 0.62970 -0.05600
C 	C 	0.85870 0.00610 0.59470 -0.00700
H 	H 	0.82590 0.02300 0.52540 0.08000
C 	C 	0.78140 0.94720 0.67300 -0.00300
H 	H 	0.69030 0.92010 0.66300 0.07400
C 	C 	0.85420 0.93370 0.76550 -0.06200
C 	C 	0.80390 0.87800 0.86480 0.29000
