data_crystal

_cell_length_a 14.03160
_cell_length_b 15.25640
_cell_length_c 17.78170
_cell_angle_alpha 90.00000
_cell_angle_beta  102.40500
_cell_angle_gamma 90.00000

_symmetry_space_group_name_	'P 1'
_symmetry_space_group_name_H-M	'P 1'

loop_
_symmetry_equiv_pos_as_xyz
  x,y,z

loop_
_atom_site_label
_atom_site_type_symbol
_atom_site_fract_x
_atom_site_fract_y
_atom_site_fract_z
_atom_site_charge
U 	U 	0.86978 0.16600 0.61374 0.01000
U 	U 	0.61480 0.85378 0.89071 0.03100
O 	O 	0.89170 0.05510 0.72164 -0.21400
O 	O 	0.97080 0.18030 0.74490 -0.16900
O 	O 	0.71130 0.97260 0.93993 -0.19200
O 	O 	0.86530 0.94900 0.00020 -0.41900
O 	O 	0.07040 0.80830 0.87070 -0.18800
O 	O 	0.05190 0.88380 0.97342 -0.32800
O 	O 	0.78750 0.04100 0.56269 -0.18200
O 	O 	0.63440 0.05270 0.49850 -0.36800
O 	O 	0.61050 0.95530 0.77898 -0.19100
O 	O 	0.51430 0.83940 0.76132 -0.19000
O 	O 	0.46010 0.21940 0.61110 -0.21100
O 	O 	0.44870 0.11920 0.52026 -0.40300
N 	N 	0.93960 0.00950 0.88272 -0.09300
N 	N 	0.55890 0.99890 0.61755 -0.06900
C 	C 	0.98660 0.08320 0.85100 -0.16900
H 	H 	0.05680 0.06930 0.85720 0.06000
H 	H 	0.98180 0.13580 0.88260 0.12900
C 	C 	0.94660 0.10660 0.76740 0.31500
C 	C 	0.83530 0.02550 0.87950 -0.39200
H 	H 	0.79630 0.00430 0.82970 0.16700
H 	H 	0.82380 0.08930 0.88300 0.17900
C 	C 	0.80240 0.97840 0.94570 0.50600
C 	C 	0.95750 0.92300 0.84920 -0.21000
H 	H 	0.98000 0.93290 0.80070 0.17200
H 	H 	0.89530 0.89010 0.83630 0.14800
C 	C 	0.03280 0.86830 0.90330 0.32000
C 	C 	0.66400 0.98330 0.62200 -0.15600
H 	H 	0.67620 0.91960 0.61930 0.12000
H 	H 	0.70230 0.00540 0.67170 0.08600
C 	C 	0.69590 0.02980 0.55580 0.29500
C 	C 	0.51170 0.92670 0.65120 -0.27200
H 	H 	0.51850 0.87260 0.62210 0.13500
H 	H 	0.44110 0.93980 0.64270 0.14700
C 	C 	0.54830 0.90720 0.73600 0.35000
C 	C 	0.54020 0.08710 0.64850 -0.36700
H 	H 	0.60330 0.11640 0.66900 0.16700
H 	H 	0.50650 0.07930 0.69160 0.16000
C 	C 	0.47850 0.14490 0.58770 0.39100
U 	U 	0.13022 0.66600 0.88626 0.01500
U 	U 	0.38520 0.35378 0.60929 0.00500
O 	O 	0.10830 0.55510 0.77836 -0.22700
O 	O 	0.02920 0.68030 0.75510 -0.21800
O 	O 	0.28870 0.47260 0.56007 -0.20400
O 	O 	0.13470 0.44900 0.49980 -0.39300
O 	O 	0.92960 0.30830 0.62930 -0.20800
O 	O 	0.94810 0.38380 0.52658 -0.38400
O 	O 	0.21250 0.54100 0.93731 -0.20800
O 	O 	0.36560 0.55270 0.00150 -0.45800
O 	O 	0.38950 0.45530 0.72102 -0.21900
O 	O 	0.48570 0.33940 0.73868 -0.19800
O 	O 	0.53990 0.71940 0.88890 -0.18800
O 	O 	0.55130 0.61920 0.97974 -0.34400
N 	N 	0.06040 0.50950 0.61728 -0.06400
N 	N 	0.44110 0.49890 0.88245 -0.06600
C 	C 	0.01340 0.58320 0.64900 -0.39600
H 	H 	0.94320 0.56930 0.64280 0.21400
H 	H 	0.01820 0.63580 0.61740 0.15700
C 	C 	0.05340 0.60660 0.73260 0.37300
C 	C 	0.16470 0.52550 0.62050 -0.32800
H 	H 	0.20370 0.50430 0.67030 0.16700
H 	H 	0.17620 0.58930 0.61700 0.15700
C 	C 	0.19760 0.47840 0.55430 0.37900
C 	C 	0.04250 0.42300 0.65080 -0.40800
H 	H 	0.02000 0.43290 0.69930 0.17500
H 	H 	0.10470 0.39010 0.66370 0.16800
C 	C 	0.96720 0.36830 0.59670 0.45200
C 	C 	0.33600 0.48330 0.87800 -0.35900
H 	H 	0.32380 0.41960 0.88070 0.17000
H 	H 	0.29770 0.50540 0.82830 0.17500
C 	C 	0.30410 0.52980 0.94420 0.47200
C 	C 	0.48830 0.42670 0.84880 -0.28900
H 	H 	0.48150 0.37260 0.87790 0.14700
H 	H 	0.55890 0.43980 0.85730 0.14600
C 	C 	0.45170 0.40720 0.76400 0.35100
C 	C 	0.45980 0.58710 0.85150 -0.32100
H 	H 	0.39670 0.61640 0.83100 0.16300
H 	H 	0.49350 0.57930 0.80840 0.16500
C 	C 	0.52150 0.64490 0.91230 0.38400
U 	U 	0.13022 0.83400 0.38626 0.00400
U 	U 	0.38520 0.14622 0.10929 -0.01400
O 	O 	0.10830 0.94490 0.27836 -0.21600
O 	O 	0.02920 0.81970 0.25510 -0.22500
O 	O 	0.28870 0.02740 0.06007 -0.20500
O 	O 	0.13470 0.05100 0.99980 -0.30100
O 	O 	0.92960 0.19170 0.12930 -0.22600
O 	O 	0.94810 0.11620 0.02658 -0.42700
O 	O 	0.21250 0.95900 0.43731 -0.21300
O 	O 	0.36560 0.94730 0.50150 -0.38300
O 	O 	0.38950 0.04470 0.22102 -0.24600
O 	O 	0.48570 0.16060 0.23868 -0.20700
O 	O 	0.53990 0.78060 0.38890 -0.19800
O 	O 	0.55130 0.88080 0.47974 -0.36500
N 	N 	0.06040 0.99050 0.11728 -0.04900
N 	N 	0.44110 0.00110 0.38245 -0.08700
C 	C 	0.01340 0.91680 0.14900 -0.38500
H 	H 	0.94320 0.93070 0.14280 0.21700
H 	H 	0.01820 0.86420 0.11740 0.14200
C 	C 	0.05340 0.89340 0.23260 0.37100
C 	C 	0.16470 0.97450 0.12050 -0.22300
H 	H 	0.20370 0.99570 0.17030 0.15800
H 	H 	0.17620 0.91070 0.11700 0.12400
C 	C 	0.19760 0.02160 0.05430 0.22400
C 	C 	0.04250 0.07700 0.15080 -0.45900
H 	H 	0.02000 0.06710 0.19930 0.16500
H 	H 	0.10470 0.10990 0.16370 0.16700
C 	C 	0.96720 0.13170 0.09670 0.46500
C 	C 	0.33600 0.01670 0.37800 -0.50700
H 	H 	0.32380 0.08040 0.38070 0.19000
H 	H 	0.29770 0.99460 0.32830 0.25300
C 	C 	0.30410 0.97020 0.44420 0.46800
C 	C 	0.48830 0.07330 0.34880 -0.29200
H 	H 	0.48150 0.12740 0.37790 0.13600
H 	H 	0.55890 0.06020 0.35730 0.13000
C 	C 	0.45170 0.09280 0.26400 0.34500
C 	C 	0.45980 0.91290 0.35150 -0.28400
H 	H 	0.39670 0.88360 0.33100 0.15400
H 	H 	0.49350 0.92070 0.30840 0.16900
C 	C 	0.52150 0.85510 0.41230 0.37900
U 	U 	0.86978 0.33400 0.11374 0.00100
U 	U 	0.61480 0.64622 0.39071 0.01400
O 	O 	0.89170 0.44490 0.22164 -0.20300
O 	O 	0.97080 0.31970 0.24490 -0.17400
O 	O 	0.71130 0.52740 0.43993 -0.19600
O 	O 	0.86530 0.55100 0.50020 -0.35300
O 	O 	0.07040 0.69170 0.37070 -0.20400
O 	O 	0.05190 0.61620 0.47342 -0.38600
O 	O 	0.78750 0.45900 0.06269 -0.18700
O 	O 	0.63440 0.44730 0.99850 -0.29200
O 	O 	0.61050 0.54470 0.27898 -0.21600
O 	O 	0.51430 0.66060 0.26132 -0.19900
O 	O 	0.46010 0.28060 0.11110 -0.22200
O 	O 	0.44870 0.38080 0.02026 -0.42400
N 	N 	0.93960 0.49050 0.38272 -0.09100
N 	N 	0.55890 0.50110 0.11755 -0.09000
C 	C 	0.98660 0.41680 0.35100 -0.15500
H 	H 	0.05680 0.43070 0.35720 0.05800
H 	H 	0.98180 0.36420 0.38260 0.11300
C 	C 	0.94660 0.39340 0.26740 0.31300
C 	C 	0.83530 0.47450 0.37950 -0.30800
H 	H 	0.79630 0.49570 0.32970 0.16100
H 	H 	0.82380 0.41070 0.38300 0.15000
C 	C 	0.80240 0.52160 0.44570 0.37300
C 	C 	0.95750 0.57700 0.34920 -0.25000
H 	H 	0.98000 0.56710 0.30070 0.16300
H 	H 	0.89530 0.60990 0.33630 0.14600
C 	C 	0.03280 0.63170 0.40330 0.32300
C 	C 	0.66400 0.51670 0.12200 -0.29300
H 	H 	0.67620 0.58040 0.11930 0.13900
H 	H 	0.70230 0.49460 0.17170 0.15800
C 	C 	0.69590 0.47020 0.05580 0.28700
C 	C 	0.51170 0.57330 0.15120 -0.27400
H 	H 	0.51850 0.62740 0.12210 0.12500
H 	H 	0.44110 0.56020 0.14270 0.13000
C 	C 	0.54830 0.59280 0.23600 0.34400
C 	C 	0.54020 0.41290 0.14850 -0.33100
H 	H 	0.60330 0.38360 0.16900 0.15800
H 	H 	0.50650 0.42070 0.19160 0.16200
C 	C 	0.47850 0.35510 0.08770 0.38600
Ni	Ni	-0.00000 0.00000 -0.00000 1.04400
Ni	Ni	0.00000 0.50000 0.50000 1.09800
Ni	Ni	0.50000 0.00000 0.50000 1.09900
Ni	Ni	0.50000 0.50000 -0.00000 1.09400
