data_crystal

_cell_length_a 12.73370
_cell_length_b 12.56150
_cell_length_c 17.87370
_cell_angle_alpha 90.00000
_cell_angle_beta  90.00000
_cell_angle_gamma 90.00000

_symmetry_space_group_name_	'P 1'
_symmetry_space_group_name_H-M	'P 1'

loop_
_symmetry_equiv_pos_as_xyz
  x,y,z

loop_
_atom_site_label
_atom_site_type_symbol
_atom_site_fract_x
_atom_site_fract_y
_atom_site_fract_z
_atom_site_charge
U 	U 	0.08222 0.64426 0.38048 0.00700
S 	S 	0.27728 0.63238 0.58533 0.11400
O 	O 	0.14918 0.52422 0.47124 -0.18100
O 	O 	0.06322 0.41363 0.54653 -0.17100
O 	O 	0.43090 0.76945 0.66604 -0.18200
O 	O 	0.36710 0.73624 0.78057 -0.18600
C 	C 	0.13140 0.48510 0.53478 0.29100
C 	C 	0.19500 0.52450 0.59805 -0.05700
C 	C 	0.19120 0.49300 0.67132 -0.01200
H 	H 	0.15140 0.43400 0.68860 0.08300
C 	C 	0.25340 0.55810 0.71854 -0.00400
H 	H 	0.25910 0.54840 0.77110 0.07400
C 	C 	0.30420 0.63630 0.67980 -0.06200
C 	C 	0.37300 0.72030 0.71131 0.28800
U 	U 	0.41778 0.85574 0.88048 0.00600
S 	S 	0.22272 0.86762 0.08533 0.11300
O 	O 	0.35082 0.97578 0.97124 -0.18000
O 	O 	0.43678 0.08637 0.04653 -0.17100
O 	O 	0.06910 0.73055 0.16604 -0.18300
O 	O 	0.13290 0.76376 0.28057 -0.18600
C 	C 	0.36860 0.01490 0.03478 0.29000
C 	C 	0.30500 0.97550 0.09805 -0.05700
C 	C 	0.30880 0.00700 0.17132 -0.01100
H 	H 	0.34860 0.06600 0.18860 0.08300
C 	C 	0.24660 0.94190 0.21854 -0.00500
H 	H 	0.24090 0.95160 0.27110 0.07400
C 	C 	0.19580 0.86370 0.17980 -0.06200
C 	C 	0.12700 0.77970 0.21131 0.28800
U 	U 	0.91778 0.64426 0.11952 0.00600
S 	S 	0.72272 0.63238 0.91467 0.11300
O 	O 	0.85082 0.52422 0.02876 -0.18000
O 	O 	0.93678 0.41363 0.95347 -0.17100
O 	O 	0.56910 0.76945 0.83396 -0.18200
O 	O 	0.63290 0.73624 0.71943 -0.18600
C 	C 	0.86860 0.48510 0.96522 0.29000
C 	C 	0.80500 0.52450 0.90195 -0.05600
C 	C 	0.80880 0.49300 0.82868 -0.01200
H 	H 	0.84860 0.43400 0.81140 0.08300
C 	C 	0.74660 0.55810 0.78146 -0.00500
H 	H 	0.74090 0.54840 0.72890 0.07300
C 	C 	0.69580 0.63630 0.82020 -0.06200
C 	C 	0.62700 0.72030 0.78869 0.28800
U 	U 	0.58222 0.85574 0.61952 0.00600
S 	S 	0.77728 0.86762 0.41467 0.11300
O 	O 	0.64918 0.97578 0.52876 -0.18100
O 	O 	0.56322 0.08637 0.45347 -0.17100
O 	O 	0.93090 0.73055 0.33396 -0.18200
O 	O 	0.86710 0.76376 0.21943 -0.18600
C 	C 	0.63140 0.01490 0.46522 0.29100
C 	C 	0.69500 0.97550 0.40195 -0.05700
C 	C 	0.69120 0.00700 0.32868 -0.01100
H 	H 	0.65140 0.06600 0.31140 0.08300
C 	C 	0.75340 0.94190 0.28146 -0.00500
H 	H 	0.75910 0.95160 0.22890 0.07400
C 	C 	0.80420 0.86370 0.32020 -0.06100
C 	C 	0.87300 0.77970 0.28869 0.28800
U 	U 	0.91778 0.35574 0.61952 0.00600
S 	S 	0.72272 0.36762 0.41467 0.11300
O 	O 	0.85082 0.47578 0.52876 -0.18100
O 	O 	0.93678 0.58637 0.45347 -0.17100
O 	O 	0.56910 0.23055 0.33396 -0.18200
O 	O 	0.63290 0.26376 0.21943 -0.18600
C 	C 	0.86860 0.51490 0.46522 0.29100
C 	C 	0.80500 0.47550 0.40195 -0.05700
C 	C 	0.80880 0.50700 0.32868 -0.01200
H 	H 	0.84860 0.56600 0.31140 0.08300
C 	C 	0.74660 0.44190 0.28146 -0.00400
H 	H 	0.74090 0.45160 0.22890 0.07400
C 	C 	0.69580 0.36370 0.32020 -0.06200
C 	C 	0.62700 0.27970 0.28869 0.28800
U 	U 	0.58222 0.14426 0.11952 0.00600
S 	S 	0.77728 0.13238 0.91467 0.11300
O 	O 	0.64918 0.02422 0.02876 -0.18000
O 	O 	0.56322 0.91363 0.95347 -0.17100
O 	O 	0.93090 0.26945 0.83396 -0.18300
O 	O 	0.86710 0.23624 0.71943 -0.18600
C 	C 	0.63140 0.98510 0.96522 0.29000
C 	C 	0.69500 0.02450 0.90195 -0.05700
C 	C 	0.69120 0.99300 0.82868 -0.01100
H 	H 	0.65140 0.93400 0.81140 0.08300
C 	C 	0.75340 0.05810 0.78146 -0.00500
H 	H 	0.75910 0.04840 0.72890 0.07400
C 	C 	0.80420 0.13630 0.82020 -0.06200
C 	C 	0.87300 0.22030 0.78869 0.28800
U 	U 	0.08222 0.35574 0.88048 0.00600
S 	S 	0.27728 0.36762 0.08533 0.11300
O 	O 	0.14918 0.47578 0.97124 -0.18000
O 	O 	0.06322 0.58637 0.04653 -0.17100
O 	O 	0.43090 0.23055 0.16604 -0.18200
O 	O 	0.36710 0.26376 0.28057 -0.18600
C 	C 	0.13140 0.51490 0.03478 0.29000
C 	C 	0.19500 0.47550 0.09805 -0.05600
C 	C 	0.19120 0.50700 0.17132 -0.01200
H 	H 	0.15140 0.56600 0.18860 0.08300
C 	C 	0.25340 0.44190 0.21854 -0.00500
H 	H 	0.25910 0.45160 0.27110 0.07300
C 	C 	0.30420 0.36370 0.17980 -0.06200
C 	C 	0.37300 0.27970 0.21131 0.28800
U 	U 	0.41778 0.14426 0.38048 0.00600
S 	S 	0.22272 0.13238 0.58533 0.11300
O 	O 	0.35082 0.02422 0.47124 -0.18100
O 	O 	0.43678 0.91363 0.54653 -0.17100
O 	O 	0.06910 0.26945 0.66604 -0.18200
O 	O 	0.13290 0.23624 0.78057 -0.18600
C 	C 	0.36860 0.98510 0.53478 0.29100
C 	C 	0.30500 0.02450 0.59805 -0.05700
C 	C 	0.30880 0.99300 0.67132 -0.01100
H 	H 	0.34860 0.93400 0.68860 0.08300
C 	C 	0.24660 0.05810 0.71854 -0.00500
H 	H 	0.24090 0.04840 0.77110 0.07400
C 	C 	0.19580 0.13630 0.67980 -0.06100
C 	C 	0.12700 0.22030 0.71131 0.28800
