data_crystal

_cell_length_a 13.55900
_cell_length_b 13.55900
_cell_length_c 15.67820
_cell_angle_alpha 90.00000
_cell_angle_beta  90.00000
_cell_angle_gamma 90.00000

_symmetry_space_group_name_	'P 1'
_symmetry_space_group_name_H-M	'P 1'

loop_
_symmetry_equiv_pos_as_xyz
  x,y,z

loop_
_atom_site_label
_atom_site_type_symbol
_atom_site_fract_x
_atom_site_fract_y
_atom_site_fract_z
_atom_site_charge
S 	S 	0.27708 0.78504 0.10828 0.08900
O 	O 	0.37910 0.95270 0.01600 -0.42500
O 	O 	0.47330 0.99790 0.12190 -0.44900
O 	O 	0.14800 0.61560 0.15750 -0.41100
O 	O 	0.19430 0.60600 0.29080 -0.45700
C 	C 	0.38480 0.84910 0.22860 -0.00900
H 	H 	0.42850 0.88750 0.26010 0.07200
C 	C 	0.27010 0.72760 0.20380 -0.07300
C 	C 	0.36350 0.86600 0.14590 -0.07700
C 	C 	0.33400 0.76690 0.26260 -0.01600
H 	H 	0.34260 0.74270 0.31760 0.07100
C 	C 	0.40690 0.94290 0.09120 0.31600
C 	C 	0.20040 0.64500 0.21770 0.31400
S 	S 	0.72292 0.21496 0.60828 0.10600
O 	O 	0.62090 0.04730 0.51600 -0.40600
O 	O 	0.52670 0.00210 0.62190 -0.44000
O 	O 	0.85200 0.38440 0.65750 -0.40500
O 	O 	0.80570 0.39400 0.79080 -0.45100
C 	C 	0.61520 0.15090 0.72860 -0.00700
H 	H 	0.57150 0.11250 0.76010 0.07500
C 	C 	0.72990 0.27240 0.70380 -0.07200
C 	C 	0.63650 0.13400 0.64590 -0.07400
C 	C 	0.66600 0.23310 0.76260 -0.01300
H 	H 	0.65740 0.25730 0.81760 0.07500
C 	C 	0.59310 0.05710 0.59120 0.31600
C 	C 	0.79960 0.35500 0.71770 0.31600
S 	S 	0.21496 0.27708 0.85828 0.11500
O 	O 	0.04730 0.37910 0.76600 -0.41200
O 	O 	0.00210 0.47330 0.87190 -0.44500
O 	O 	0.38440 0.14800 0.90750 -0.39700
O 	O 	0.39400 0.19430 0.04080 -0.49100
C 	C 	0.15090 0.38480 0.97860 0.26700
H 	H 	0.11250 0.42850 0.01010 -0.05600
C 	C 	0.27240 0.27010 0.95380 0.03300
C 	C 	0.13400 0.36350 0.89590 -0.16500
C 	C 	0.23310 0.33400 0.01260 -0.26200
H 	H 	0.25730 0.34260 0.06760 0.15000
C 	C 	0.05710 0.40690 0.84120 0.35800
C 	C 	0.35500 0.20040 0.96770 0.33600
S 	S 	0.78504 0.72292 0.35828 0.10000
O 	O 	0.95270 0.62090 0.26600 -0.40900
O 	O 	0.99790 0.52670 0.37190 -0.44300
O 	O 	0.61560 0.85200 0.40750 -0.40700
O 	O 	0.60600 0.80570 0.54080 -0.45600
C 	C 	0.84910 0.61520 0.47860 -0.00800
H 	H 	0.88750 0.57150 0.51010 0.07200
C 	C 	0.72760 0.72990 0.45380 -0.07400
C 	C 	0.86600 0.63650 0.39590 -0.07500
C 	C 	0.76690 0.66600 0.51260 -0.01400
H 	H 	0.74270 0.65740 0.56760 0.07100
C 	C 	0.94290 0.59310 0.34120 0.31600
C 	C 	0.64500 0.79960 0.46770 0.31600
S 	S 	0.72292 0.78504 0.89172 0.12200
O 	O 	0.62090 0.95270 0.98400 -0.38500
O 	O 	0.52670 0.99790 0.87810 -0.43400
O 	O 	0.85200 0.61560 0.84250 -0.40100
O 	O 	0.80570 0.60600 0.70920 -0.45600
C 	C 	0.61520 0.84910 0.77140 -0.00800
H 	H 	0.57150 0.88750 0.73990 0.07300
C 	C 	0.72990 0.72760 0.79620 -0.07600
C 	C 	0.63650 0.86600 0.85410 -0.07300
C 	C 	0.66600 0.76690 0.73740 -0.01100
H 	H 	0.65740 0.74270 0.68240 0.07100
C 	C 	0.59310 0.94290 0.90880 0.31600
C 	C 	0.79960 0.64500 0.78230 0.31800
S 	S 	0.27708 0.21496 0.39172 0.10700
O 	O 	0.37910 0.04730 0.48400 -0.40500
O 	O 	0.47330 0.00210 0.37810 -0.44300
O 	O 	0.14800 0.38440 0.34250 -0.40600
O 	O 	0.19430 0.39400 0.20920 -0.46200
C 	C 	0.38480 0.15090 0.27140 -0.01100
H 	H 	0.42850 0.11250 0.23990 0.07300
C 	C 	0.27010 0.27240 0.29620 -0.07800
C 	C 	0.36350 0.13400 0.35410 -0.07500
C 	C 	0.33400 0.23310 0.23740 -0.01200
H 	H 	0.34260 0.25730 0.18240 0.06600
C 	C 	0.40690 0.05710 0.40880 0.31600
C 	C 	0.20040 0.35500 0.28230 0.31700
S 	S 	0.78504 0.27708 0.14172 0.10000
O 	O 	0.95270 0.37910 0.23400 -0.39900
O 	O 	0.99790 0.47330 0.12810 -0.43700
O 	O 	0.61560 0.14800 0.09250 -0.40800
O 	O 	0.60600 0.19430 0.95920 -0.41800
C 	C 	0.84910 0.38480 0.02140 -0.24600
H 	H 	0.88750 0.42850 0.98990 0.18300
C 	C 	0.72760 0.27010 0.04620 -0.16800
C 	C 	0.86600 0.36350 0.10410 0.00400
C 	C 	0.76690 0.33400 0.98740 0.20500
H 	H 	0.74270 0.34260 0.93240 0.00200
C 	C 	0.94290 0.40690 0.15880 0.27900
C 	C 	0.64500 0.20040 0.03230 0.29400
S 	S 	0.21496 0.72292 0.64172 0.11200
O 	O 	0.04730 0.62090 0.73400 -0.40100
O 	O 	0.00210 0.52670 0.62810 -0.44100
O 	O 	0.38440 0.85200 0.59250 -0.40500
O 	O 	0.39400 0.80570 0.45920 -0.45700
C 	C 	0.15090 0.61520 0.52140 -0.00900
H 	H 	0.11250 0.57150 0.48990 0.07300
C 	C 	0.27240 0.72990 0.54620 -0.07600
C 	C 	0.13400 0.63650 0.60410 -0.07400
C 	C 	0.23310 0.66600 0.48740 -0.01200
H 	H 	0.25730 0.65740 0.43240 0.07000
C 	C 	0.05710 0.59310 0.65880 0.31500
C 	C 	0.35500 0.79960 0.53230 0.31700
In	In	0.50000 0.07701 -0.00000 1.98400
In	In	0.50000 0.92299 0.50000 1.99500
In	In	0.92299 0.50000 0.75000 1.99500
In	In	0.07701 0.50000 0.25000 1.99500
