data_crystal

_cell_length_a 13.57700
_cell_length_b 13.57700
_cell_length_c 15.53940
_cell_angle_alpha 90.00000
_cell_angle_beta  90.00000
_cell_angle_gamma 90.00000

_symmetry_space_group_name_	'P 1'
_symmetry_space_group_name_H-M	'P 1'

loop_
_symmetry_equiv_pos_as_xyz
  x,y,z

loop_
_atom_site_label
_atom_site_type_symbol
_atom_site_fract_x
_atom_site_fract_y
_atom_site_fract_z
_atom_site_charge
S 	S 	0.22330 0.28496 0.10754 0.02700
O 	O 	0.30670 0.10520 0.29030 -0.51700
O 	O 	0.35290 0.11490 0.15600 -0.48800
O 	O 	0.02620 0.49700 0.12330 -0.51800
O 	O 	0.12070 0.45310 0.01550 -0.47700
C 	C 	0.23000 0.22490 0.20360 -0.09700
C 	C 	0.16520 0.26250 0.26270 -0.02600
H 	H 	0.15540 0.23680 0.31750 0.04400
C 	C 	0.11500 0.34570 0.22930 -0.02700
H 	H 	0.07150 0.38360 0.26150 0.04700
C 	C 	0.13660 0.36440 0.14640 -0.08800
C 	C 	0.29980 0.14320 0.21670 0.32000
C 	C 	0.09250 0.44290 0.09130 0.30800
S 	S 	0.77670 0.71504 0.60754 0.17000
O 	O 	0.69330 0.89480 0.79030 -0.38700
O 	O 	0.64710 0.88510 0.65600 -0.31200
O 	O 	0.97380 0.50300 0.62330 -0.34800
O 	O 	0.87930 0.54690 0.51550 -0.33800
C 	C 	0.77000 0.77510 0.70360 -0.05600
C 	C 	0.83480 0.73750 0.76270 0.00900
H 	H 	0.84460 0.76320 0.81750 0.09700
C 	C 	0.88500 0.65430 0.72930 -0.00100
H 	H 	0.92850 0.61640 0.76150 0.10300
C 	C 	0.86340 0.63560 0.64640 -0.04600
C 	C 	0.70020 0.85680 0.71670 0.31900
C 	C 	0.90750 0.55710 0.59130 0.30500
S 	S 	0.71504 0.22330 0.35754 0.10800
O 	O 	0.89480 0.30670 0.54030 -0.40500
O 	O 	0.88510 0.35290 0.40600 -0.32400
O 	O 	0.50300 0.02620 0.37330 -0.51400
O 	O 	0.54690 0.12070 0.26550 -0.45400
C 	C 	0.77510 0.23000 0.45360 -0.06000
C 	C 	0.73750 0.16520 0.51270 -0.03000
H 	H 	0.76320 0.15540 0.56750 0.07000
C 	C 	0.65430 0.11500 0.47930 -0.00200
H 	H 	0.61640 0.07150 0.51150 0.04600
C 	C 	0.63560 0.13660 0.39640 -0.09400
C 	C 	0.85680 0.29980 0.46670 0.30600
C 	C 	0.55710 0.09250 0.34130 0.32000
S 	S 	0.28496 0.77670 0.85754 0.10400
O 	O 	0.10520 0.69330 0.04030 -0.53100
O 	O 	0.11490 0.64710 0.90600 -0.46900
O 	O 	0.49700 0.97380 0.87330 -0.35100
O 	O 	0.45310 0.87930 0.76550 -0.35400
C 	C 	0.22490 0.77000 0.95360 -0.01400
C 	C 	0.26250 0.83480 0.01270 -0.17300
H 	H 	0.23680 0.84460 0.06750 0.12700
C 	C 	0.34570 0.88500 0.97930 0.17800
H 	H 	0.38360 0.92850 0.01150 0.00800
C 	C 	0.36440 0.86340 0.89640 -0.10600
C 	C 	0.14320 0.70020 0.96670 0.35100
C 	C 	0.44290 0.90750 0.84130 0.32300
S 	S 	0.77670 0.28496 0.89246 0.11100
O 	O 	0.69330 0.10520 0.70970 -0.50400
O 	O 	0.64710 0.11490 0.84400 -0.47100
O 	O 	0.97380 0.49700 0.87670 -0.34200
O 	O 	0.87930 0.45310 0.98450 -0.33200
C 	C 	0.77000 0.22490 0.79640 -0.09600
C 	C 	0.83480 0.26250 0.73730 0.01600
H 	H 	0.84460 0.23680 0.68250 0.06700
C 	C 	0.88500 0.34570 0.77070 -0.02700
H 	H 	0.92850 0.38360 0.73850 0.10500
C 	C 	0.86340 0.36440 0.85360 -0.03700
C 	C 	0.70020 0.14320 0.78330 0.33600
C 	C 	0.90750 0.44290 0.90870 0.29200
S 	S 	0.22330 0.71504 0.39246 0.11400
O 	O 	0.30670 0.89480 0.20970 -0.40800
O 	O 	0.35290 0.88510 0.34400 -0.32100
O 	O 	0.02620 0.50300 0.37670 -0.51200
O 	O 	0.12070 0.54690 0.48450 -0.44900
C 	C 	0.23000 0.77510 0.29640 -0.06200
C 	C 	0.16520 0.73750 0.23730 -0.02800
H 	H 	0.15540 0.76320 0.18250 0.06600
C 	C 	0.11500 0.65430 0.27070 -0.00300
H 	H 	0.07150 0.61640 0.23850 0.04700
C 	C 	0.13660 0.63560 0.35360 -0.09400
C 	C 	0.29980 0.85680 0.28330 0.30700
C 	C 	0.09250 0.55710 0.40870 0.31900
S 	S 	0.28496 0.22330 0.64246 0.04600
O 	O 	0.10520 0.30670 0.45970 -0.51800
O 	O 	0.11490 0.35290 0.59400 -0.48200
O 	O 	0.49700 0.02620 0.62670 -0.51400
O 	O 	0.45310 0.12070 0.73450 -0.45800
C 	C 	0.22490 0.23000 0.54640 -0.09800
C 	C 	0.26250 0.16520 0.48730 -0.02400
H 	H 	0.23680 0.15540 0.43250 0.04400
C 	C 	0.34570 0.11500 0.52070 -0.02700
H 	H 	0.38360 0.07150 0.48850 0.04800
C 	C 	0.36440 0.13660 0.60360 -0.08700
C 	C 	0.14320 0.29980 0.53330 0.32200
C 	C 	0.44290 0.09250 0.65870 0.30800
S 	S 	0.71504 0.77670 0.14246 0.16400
O 	O 	0.89480 0.69330 0.95970 -0.36500
O 	O 	0.88510 0.64710 0.09400 -0.31800
O 	O 	0.50300 0.97380 0.12670 -0.34400
O 	O 	0.54690 0.87930 0.23450 -0.33200
C 	C 	0.77510 0.77000 0.04640 -0.13600
C 	C 	0.73750 0.83480 0.98730 0.18900
H 	H 	0.76320 0.84460 0.93250 0.03600
C 	C 	0.65430 0.88500 0.02070 -0.20100
H 	H 	0.61640 0.92850 0.98850 0.19600
C 	C 	0.63560 0.86340 0.10360 0.01900
C 	C 	0.85680 0.70020 0.03330 0.30500
C 	C 	0.55710 0.90750 0.15870 0.27500
In	In	0.42385 0.00000 0.25000 1.94500
In	In	0.57615 0.00000 0.75000 1.94600
In	In	-0.00000 0.42385 0.50000 1.94600
In	In	-0.00000 0.57615 -0.00000 1.93800
