data_crystal

_cell_length_a 13.51000
_cell_length_b 13.51000
_cell_length_c 16.06840
_cell_angle_alpha 90.00000
_cell_angle_beta  90.00000
_cell_angle_gamma 90.00000

_symmetry_space_group_name_	'P 1'
_symmetry_space_group_name_H-M	'P 1'

loop_
_symmetry_equiv_pos_as_xyz
  x,y,z

loop_
_atom_site_label
_atom_site_type_symbol
_atom_site_fract_x
_atom_site_fract_y
_atom_site_fract_z
_atom_site_charge
S 	S 	0.28620 0.22180 0.13937 0.02700
O 	O 	0.45550 0.12390 0.23300 -0.44600
O 	O 	0.50200 0.02600 0.13240 -0.52400
O 	O 	0.10730 0.30080 0.95820 -0.46100
O 	O 	0.11460 0.34720 0.08830 -0.49600
C 	C 	0.36810 0.13710 0.10500 0.00700
C 	C 	0.35400 0.11490 0.02290 -0.32700
H 	H 	0.39480 0.07210 0.99330 0.19000
C 	C 	0.27220 0.16250 0.98750 0.25100
H 	H 	0.24940 0.15190 0.93360 -0.04100
C 	C 	0.23010 0.22750 0.04360 -0.21200
C 	C 	0.44750 0.09370 0.16050 0.27600
C 	C 	0.14680 0.29410 0.02880 0.28700
S 	S 	0.71380 0.77820 0.63937 0.17800
O 	O 	0.54450 0.87610 0.73300 -0.32600
O 	O 	0.49800 0.97400 0.63240 -0.35900
O 	O 	0.89270 0.69920 0.45820 -0.37900
O 	O 	0.88540 0.65280 0.58830 -0.31400
C 	C 	0.63190 0.86290 0.60500 -0.04700
C 	C 	0.64600 0.88510 0.52290 -0.00300
H 	H 	0.60520 0.92790 0.49330 0.10100
C 	C 	0.72780 0.83750 0.48750 0.00800
H 	H 	0.75060 0.84810 0.43360 0.09400
C 	C 	0.76990 0.77250 0.54360 -0.05800
C 	C 	0.55250 0.90630 0.66050 0.31200
C 	C 	0.85320 0.70590 0.52880 0.31200
S 	S 	0.77820 0.28620 0.38937 0.09500
O 	O 	0.87610 0.45550 0.48300 -0.34200
O 	O 	0.97400 0.50200 0.38240 -0.36000
O 	O 	0.69920 0.10730 0.20820 -0.49800
O 	O 	0.65280 0.11460 0.33830 -0.48100
C 	C 	0.86290 0.36810 0.35500 -0.03900
C 	C 	0.88510 0.35400 0.27290 -0.02800
H 	H 	0.92790 0.39480 0.24330 0.10300
C 	C 	0.83750 0.27220 0.23750 0.01300
H 	H 	0.84810 0.24940 0.18360 0.06700
C 	C 	0.77250 0.23010 0.29360 -0.09600
C 	C 	0.90630 0.44750 0.41050 0.30000
C 	C 	0.70590 0.14680 0.27880 0.32800
S 	S 	0.22180 0.71380 0.88937 0.13700
O 	O 	0.12390 0.54450 0.98300 -0.41200
O 	O 	0.02600 0.49800 0.88240 -0.51300
O 	O 	0.30080 0.89270 0.70820 -0.39500
O 	O 	0.34720 0.88540 0.83830 -0.31900
C 	C 	0.13710 0.63190 0.85500 -0.09200
C 	C 	0.11490 0.64600 0.77290 -0.00300
H 	H 	0.07210 0.60520 0.74330 0.04900
C 	C 	0.16250 0.72780 0.73750 -0.02700
H 	H 	0.15190 0.75060 0.68360 0.07000
C 	C 	0.22750 0.76990 0.79360 -0.06200
C 	C 	0.09370 0.55250 0.91050 0.32900
C 	C 	0.29410 0.85320 0.77880 0.30100
S 	S 	0.71380 0.22180 0.86063 0.12300
O 	O 	0.54450 0.12390 0.76700 -0.44800
O 	O 	0.49800 0.02600 0.86760 -0.53200
O 	O 	0.89270 0.30080 0.04180 -0.42700
O 	O 	0.88540 0.34720 0.91170 -0.31800
C 	C 	0.63190 0.13710 0.89500 -0.18100
C 	C 	0.64600 0.11490 0.97710 0.26800
H 	H 	0.60520 0.07210 0.00670 -0.08100
C 	C 	0.72780 0.16250 0.01250 -0.27800
H 	H 	0.75060 0.15190 0.06640 0.15000
C 	C 	0.76990 0.22750 0.95640 0.04400
C 	C 	0.55250 0.09370 0.83950 0.36800
C 	C 	0.85320 0.29410 0.97120 0.31500
S 	S 	0.28620 0.77820 0.36063 0.08600
O 	O 	0.45550 0.87610 0.26700 -0.34800
O 	O 	0.50200 0.97400 0.36760 -0.36300
O 	O 	0.10730 0.69920 0.54180 -0.49200
O 	O 	0.11460 0.65280 0.41170 -0.48400
C 	C 	0.36810 0.86290 0.39500 -0.04000
C 	C 	0.35400 0.88510 0.47710 -0.02700
H 	H 	0.39480 0.92790 0.50670 0.10200
C 	C 	0.27220 0.83750 0.51250 0.01100
H 	H 	0.24940 0.84810 0.56640 0.07100
C 	C 	0.23010 0.77250 0.45640 -0.09200
C 	C 	0.44750 0.90630 0.33950 0.30000
C 	C 	0.14680 0.70590 0.47120 0.32600
S 	S 	0.22180 0.28620 0.61063 0.03700
O 	O 	0.12390 0.45550 0.51700 -0.45500
O 	O 	0.02600 0.50200 0.61760 -0.52900
O 	O 	0.30080 0.10730 0.79180 -0.50100
O 	O 	0.34720 0.11460 0.66170 -0.48800
C 	C 	0.13710 0.36810 0.64500 -0.08800
C 	C 	0.11490 0.35400 0.72710 -0.02500
H 	H 	0.07210 0.39480 0.75670 0.05000
C 	C 	0.16250 0.27220 0.76250 -0.02700
H 	H 	0.15190 0.24940 0.81640 0.05200
C 	C 	0.22750 0.23010 0.70640 -0.09200
C 	C 	0.09370 0.44750 0.58950 0.31800
C 	C 	0.29410 0.14680 0.72120 0.31300
S 	S 	0.77820 0.71380 0.11063 0.15100
O 	O 	0.87610 0.54450 0.01700 -0.35300
O 	O 	0.97400 0.49800 0.11760 -0.36700
O 	O 	0.69920 0.89270 0.29180 -0.38000
O 	O 	0.65280 0.88540 0.16170 -0.32400
C 	C 	0.86290 0.63190 0.14500 -0.04900
C 	C 	0.88510 0.64600 0.22710 -0.00300
H 	H 	0.92790 0.60520 0.25670 0.10000
C 	C 	0.83750 0.72780 0.26250 0.00500
H 	H 	0.84810 0.75060 0.31640 0.09500
C 	C 	0.77250 0.76990 0.20640 -0.05600
C 	C 	0.90630 0.55250 0.08950 0.31200
C 	C 	0.70590 0.85320 0.22120 0.31000
In	In	0.58169 0.00000 0.25000 1.94600
In	In	0.41831 -0.00000 0.75000 1.94500
In	In	-0.00000 0.58169 0.50000 1.94500
In	In	-0.00000 0.41831 -0.00000 1.93000
