data_crystal

_cell_length_a 10.50590
_cell_length_b 11.14760
_cell_length_c 12.79310
_cell_angle_alpha 100.95500
_cell_angle_beta  110.45000
_cell_angle_gamma 99.93900

_symmetry_space_group_name_	'P 1'
_symmetry_space_group_name_H-M	'P 1'

loop_
_symmetry_equiv_pos_as_xyz
  x,y,z

loop_
_atom_site_label
_atom_site_type_symbol
_atom_site_fract_x
_atom_site_fract_y
_atom_site_fract_z
_atom_site_charge
Dy	Dy	0.39328 0.95091 0.82415 1.71000
O 	O 	0.34180 0.99440 0.98570 -0.53000
O 	O 	0.38090 0.05840 0.16990 -0.43400
O 	O 	0.43260 0.78030 0.90340 -0.44200
O 	O 	0.50080 0.83070 0.09610 -0.47700
O 	O 	0.16770 0.79300 0.73790 -0.40000
O 	O 	0.31830 0.76500 0.65950 -0.38500
C 	C 	0.29810 0.02280 0.06510 0.43400
C 	C 	0.14430 0.01260 0.03260 -0.13100
C 	C 	0.09320 0.05770 0.11580 0.12400
C 	C 	0.05110 0.95490 0.91850 -0.05100
H 	H 	0.08560 0.92410 0.86390 0.05700
C 	C 	0.47110 0.75450 0.99800 0.43600
C 	C 	0.48390 0.62160 0.99800 -0.11400
C 	C 	0.48600 0.54070 0.90050 0.05600
C 	C 	0.49740 0.58000 0.09530 -0.03100
H 	H 	0.49550 0.63380 0.15960 0.05400
C 	C 	0.20070 0.72940 0.66500 0.34400
C 	C 	0.09760 0.61020 0.58040 -0.11400
C 	C 	0.13630 0.53130 0.50480 0.07500
C 	C 	0.96140 0.57910 0.57540 0.07500
N 	N 	0.17580 0.11630 0.22480 -0.10100
N 	N 	0.27900 0.53400 0.52160 -0.07700
N 	N 	0.90500 0.65300 0.64300 -0.07900
Dy	Dy	0.60672 0.04909 0.17585 1.71100
O 	O 	0.65820 0.00560 0.01430 -0.52900
O 	O 	0.61910 0.94160 0.83010 -0.43400
O 	O 	0.56740 0.21970 0.09660 -0.44200
O 	O 	0.49920 0.16930 0.90390 -0.47700
O 	O 	0.83230 0.20700 0.26210 -0.40000
O 	O 	0.68170 0.23500 0.34050 -0.38500
C 	C 	0.70190 0.97720 0.93490 0.43400
C 	C 	0.85570 0.98740 0.96740 -0.13100
C 	C 	0.90680 0.94230 0.88420 0.12400
C 	C 	0.94890 0.04510 0.08150 -0.05100
H 	H 	0.91440 0.07590 0.13610 0.05700
C 	C 	0.52890 0.24550 0.00200 0.43600
C 	C 	0.51610 0.37840 0.00200 -0.11400
C 	C 	0.51400 0.45930 0.09950 0.05600
C 	C 	0.50260 0.42000 0.90470 -0.03100
H 	H 	0.50450 0.36620 0.84040 0.05400
C 	C 	0.79930 0.27060 0.33500 0.34400
C 	C 	0.90240 0.38980 0.41960 -0.11400
C 	C 	0.86370 0.46870 0.49520 0.07500
C 	C 	0.03860 0.42090 0.42460 0.07500
N 	N 	0.82420 0.88370 0.77520 -0.10100
N 	N 	0.72100 0.46600 0.47840 -0.07700
N 	N 	0.09500 0.34700 0.35700 -0.07900
