data_crystal

_cell_length_a 10.46920
_cell_length_b 11.23070
_cell_length_c 12.73580
_cell_angle_alpha 101.23700
_cell_angle_beta  110.08700
_cell_angle_gamma 99.62600

_symmetry_space_group_name_	'P 1'
_symmetry_space_group_name_H-M	'P 1'

loop_
_symmetry_equiv_pos_as_xyz
  x,y,z

loop_
_atom_site_label
_atom_site_type_symbol
_atom_site_fract_x
_atom_site_fract_y
_atom_site_fract_z
_atom_site_charge
Eu	Eu	0.39408 0.45062 0.32462 1.99200
O 	O 	0.34740 0.49800 0.49390 -0.57900
O 	O 	0.37930 0.56580 0.67710 -0.46700
O 	O 	0.42920 0.27710 0.40370 -0.48900
O 	O 	0.49960 0.32810 0.59680 -0.52000
O 	O 	0.16370 0.29320 0.23440 -0.42500
O 	O 	0.31770 0.26250 0.15840 -0.43300
O 	O 	0.20680 0.56150 0.26110 -0.13600
C 	C 	0.29860 0.52780 0.56980 0.46500
C 	C 	0.14420 0.51440 0.53460 -0.21700
C 	C 	0.09000 0.56040 0.61590 0.45400
H 	H 	0.15040 0.60100 0.69460 -0.63000
C 	C 	0.05540 0.45480 0.42120 -0.17100
H 	H 	0.09360 0.42330 0.36710 0.10900
C 	C 	0.46900 0.25310 0.49940 0.53900
C 	C 	0.48340 0.12030 0.49780 -0.31100
C 	C 	0.48730 0.04010 0.39980 0.93300
H 	H 	0.47950 0.06740 0.33230 -1.24900
C 	C 	0.49730 0.07950 0.59650 -0.36600
H 	H 	0.49610 0.13470 0.66280 0.17600
C 	C 	0.20010 0.22750 0.16460 0.49100
C 	C 	0.09610 0.10980 0.07920 -0.48600
C 	C 	0.13750 0.02920 0.00660 0.45000
H 	H 	0.23160 0.04810 0.01140 -0.98000
C 	C 	0.96020 0.08000 0.07360 0.65500
H 	H 	0.93260 0.13370 0.12450 -1.20500
C 	C 	0.19290 0.66020 0.26470 0.35300
H 	H 	0.26080 0.72310 0.33090 -0.08100
C 	C 	0.10300 0.83720 0.21770 -0.02700
C 	C 	0.98600 0.62200 0.08730 0.17300
N 	N 	0.16900 0.62250 0.72960 0.53500
H 	H 	0.26120 0.63610 0.75650 -0.02400
H 	H 	0.12790 0.64900 0.77620 -0.07900
N 	N 	0.47820 0.07700 0.29380 1.19200
H 	H 	0.48250 0.02390 0.23510 -0.27100
H 	H 	0.46840 0.15220 0.28880 -0.20700
N 	N 	0.27600 0.05340 0.01010 0.99900
H 	H 	0.33900 0.12130 0.05930 -0.14300
H 	H 	0.29830 0.00060 0.96310 -0.18700
N 	N 	0.08890 0.84000 0.85430 1.22700
H 	H 	0.03160 0.76940 0.80470 -0.20900
H 	H 	0.17620 0.86180 0.86000 -0.26700
N 	N 	0.09800 0.70280 0.19250 -0.04100
C 	C 	0.80860 0.37300 0.78330 -0.08400
C 	C 	0.89800 0.20990 0.85400 0.02800
C 	C 	0.93700 0.58800 0.12400 -0.09500
H 	H 	0.72180 0.31350 0.76170 -0.01400
N 	N 	0.92410 0.33780 0.83700 -0.14700
O 	O 	0.80060 0.46560 0.76000 -0.23300
Eu	Eu	0.60592 0.54938 0.67538 1.99300
O 	O 	0.65260 0.50200 0.50610 -0.57800
O 	O 	0.62070 0.43420 0.32290 -0.46600
O 	O 	0.57080 0.72290 0.59630 -0.48800
O 	O 	0.50040 0.67190 0.40320 -0.52000
O 	O 	0.83630 0.70680 0.76560 -0.42500
O 	O 	0.68230 0.73750 0.84160 -0.43300
O 	O 	0.79320 0.43850 0.73890 -0.13600
C 	C 	0.70140 0.47220 0.43020 0.46500
C 	C 	0.85580 0.48560 0.46540 -0.21700
C 	C 	0.91000 0.43960 0.38410 0.45400
H 	H 	0.84960 0.39900 0.30540 -0.63000
C 	C 	0.94460 0.54520 0.57880 -0.17100
H 	H 	0.90640 0.57670 0.63290 0.10900
C 	C 	0.53100 0.74690 0.50060 0.53900
C 	C 	0.51660 0.87970 0.50220 -0.31100
C 	C 	0.51270 0.95990 0.60020 0.93300
H 	H 	0.52050 0.93260 0.66770 -1.24900
C 	C 	0.50270 0.92050 0.40350 -0.36600
H 	H 	0.50390 0.86530 0.33720 0.17600
C 	C 	0.79990 0.77250 0.83540 0.49100
C 	C 	0.90390 0.89020 0.92080 -0.48600
C 	C 	0.86250 0.97080 0.99340 0.45000
H 	H 	0.76840 0.95190 0.98860 -0.98000
C 	C 	0.03980 0.92000 0.92640 0.65500
H 	H 	0.06740 0.86630 0.87550 -1.20500
C 	C 	0.80710 0.33980 0.73530 0.35300
H 	H 	0.73920 0.27690 0.66910 -0.08100
C 	C 	0.89700 0.16280 0.78230 -0.02700
C 	C 	0.01400 0.37800 0.91270 0.17300
N 	N 	0.83100 0.37750 0.27040 0.53500
H 	H 	0.73880 0.36390 0.24350 -0.02400
H 	H 	0.87210 0.35100 0.22380 -0.07900
N 	N 	0.52180 0.92300 0.70620 1.19200
H 	H 	0.51750 0.97610 0.76490 -0.27100
H 	H 	0.53160 0.84780 0.71120 -0.20700
N 	N 	0.72400 0.94660 0.98990 0.99900
H 	H 	0.66100 0.87870 0.94070 -0.14300
H 	H 	0.70170 0.99940 0.03690 -0.18700
N 	N 	0.91110 0.16000 0.14570 1.22700
H 	H 	0.96840 0.23060 0.19530 -0.20900
H 	H 	0.82380 0.13820 0.14000 -0.26700
N 	N 	0.90200 0.29720 0.80750 -0.04100
C 	C 	0.19140 0.62700 0.21670 -0.08400
C 	C 	0.10200 0.79010 0.14600 0.02800
C 	C 	0.06300 0.41200 0.87600 -0.09500
H 	H 	0.27820 0.68650 0.23830 -0.01400
N 	N 	0.07590 0.66220 0.16300 -0.14700
O 	O 	0.19940 0.53440 0.24000 -0.23300
