data_crystal

_cell_length_a 10.49510
_cell_length_b 11.33960
_cell_length_c 12.79540
_cell_angle_alpha 100.73000
_cell_angle_beta  110.14200
_cell_angle_gamma 99.73200

_symmetry_space_group_name_	'P 1'
_symmetry_space_group_name_H-M	'P 1'

loop_
_symmetry_equiv_pos_as_xyz
  x,y,z

loop_
_atom_site_label
_atom_site_type_symbol
_atom_site_fract_x
_atom_site_fract_y
_atom_site_fract_z
_atom_site_charge
Pr	Pr	0.61101 0.57328 0.63661 2.08800
Pr	Pr	0.40060 0.44496 0.34263 2.06700
H 	H 	0.90966 0.64500 0.59562 0.03000
H 	H 	0.53805 0.88904 0.34098 0.02400
H 	H 	0.10046 0.80161 0.96413 0.02800
H 	H 	0.36267 0.81398 0.63298 0.10600
H 	H 	0.41785 0.96218 0.73430 0.08200
H 	H 	0.63947 -0.11564 -0.12316 0.09600
H 	H 	0.67849 1.03157 0.97503 0.07200
H 	H 	0.09073 0.35530 0.37794 0.01700
H 	H 	0.48285 0.14666 0.67487 0.04900
H 	H 	0.91494 0.14787 0.09826 0.04900
H 	H 	0.27336 0.66409 0.75352 0.09600
H 	H 	0.14387 0.74935 0.73186 0.08400
C 	C 	0.69614 0.47976 0.41053 0.33900
C 	C 	0.85248 0.49025 0.44967 -0.09700
C 	C 	0.90754 0.40887 0.38980 -0.00000
C 	C 	0.94871 0.58123 0.54837 -0.05000
C 	C 	0.49127 0.75608 0.48619 0.39600
C 	C 	0.48341 0.88599 0.48864 -0.14500
C 	C 	0.46792 0.96119 0.58380 0.13200
C 	C 	0.52271 0.94340 0.41273 0.03600
C 	C 	0.81132 0.74278 0.84687 0.33200
C 	C 	0.90909 0.85804 0.94712 -0.09500
C 	C 	0.86034 0.96047 0.98862 0.08100
C 	C 	0.05673 0.87466 0.99383 -0.02000
C 	C 	0.30879 0.52468 0.56090 0.33500
C 	C 	0.15131 0.51082 0.52635 -0.13900
C 	C 	0.09487 0.59033 0.58938 0.09900
C 	C 	0.05379 0.41943 0.42708 -0.01800
C 	C 	0.53794 0.27798 0.53276 0.33600
C 	C 	0.53848 0.14725 0.52845 -0.04400
C 	C 	0.54850 0.07241 0.43181 -0.03400
C 	C 	0.49841 0.09073 0.60397 -0.07000
C 	C 	0.20589 0.21135 0.20187 0.30700
C 	C 	0.10352 0.08742 0.11800 -0.06700
C 	C 	0.15081 -0.01514 0.07819 -0.01300
C 	C 	0.95637 0.07172 0.07129 -0.03500
N 	N 	0.41648 0.90700 0.65863 -0.19900
N 	N 	0.71400 0.95736 -0.05628 -0.17600
N 	N 	0.18174 0.67850 0.69768 -0.19600
O 	O 	0.62913 0.55198 0.46092 -0.67100
O 	O 	0.60814 0.40985 0.32234 -0.47500
O 	O 	0.56576 0.74386 0.58457 -0.50700
O 	O 	0.42901 0.66546 0.39131 -0.52400
O 	O 	0.83528 0.70308 0.75792 -0.46600
O 	O 	0.69115 0.68087 0.83490 -0.45700
O 	O 	0.37792 0.44914 0.51668 -0.62500
O 	O 	0.39704 0.60505 0.64000 -0.47400
O 	O 	0.45779 0.29272 0.43587 -0.43200
O 	O 	0.61068 0.36709 0.62701 -0.50500
O 	O 	0.17736 0.31641 0.21186 -0.48300
O 	O 	0.33250 0.22503 0.26879 -0.39500
H 	H 	0.83719 0.33672 0.31329 0.04000
H 	H 	0.57584 0.11435 0.37040 0.05300
H 	H 	0.26228 -0.00882 0.10972 0.03800
