data_crystal

_cell_length_a 10.53900
_cell_length_b 11.21800
_cell_length_c 12.84200
_cell_angle_alpha 101.47200
_cell_angle_beta  110.50000
_cell_angle_gamma 99.25700

_symmetry_space_group_name_	'P 1'
_symmetry_space_group_name_H-M	'P 1'

loop_
_symmetry_equiv_pos_as_xyz
  x,y,z

loop_
_atom_site_label
_atom_site_type_symbol
_atom_site_fract_x
_atom_site_fract_y
_atom_site_fract_z
_atom_site_charge
Tb	Tb	0.39379 0.95009 0.82439 1.74000
O 	O 	0.65600 0.00310 0.01180 -0.53200
O 	O 	0.61970 0.93760 0.82760 -0.42700
O 	O 	0.43120 0.77970 0.90300 -0.43900
O 	O 	0.50040 0.16920 0.90370 -0.47800
O 	O 	0.16800 0.79330 0.73630 -0.40900
O 	O 	0.31750 0.76310 0.65830 -0.38600
C 	C 	0.70190 0.97410 0.93360 0.41800
C 	C 	0.85560 0.98580 0.96660 -0.12800
C 	C 	0.90750 0.94150 0.88390 0.12000
C 	C 	0.94690 0.04340 0.08040 -0.04800
H 	H 	0.91130 0.07280 0.13460 0.05300
C 	C 	0.47030 0.75450 0.99920 0.42500
C 	C 	0.48230 0.62170 0.99830 -0.10900
C 	C 	0.48680 0.54000 0.90000 0.05200
C 	C 	0.49680 0.58100 0.09580 -0.03200
H 	H 	0.49560 0.63530 0.16030 0.05300
C 	C 	0.19970 0.72950 0.66450 0.34900
C 	C 	0.09760 0.60980 0.58010 -0.11300
C 	C 	0.13510 0.53080 0.50370 0.07400
C 	C 	0.96110 0.57880 0.57610 0.07300
N 	N 	0.82770 0.88510 0.77290 -0.10000
N 	N 	0.27600 0.53200 0.51580 -0.07800
N 	N 	0.90300 0.65800 0.63800 -0.07900
Tb	Tb	0.60621 0.04991 0.17561 1.74100
O 	O 	0.34400 0.99690 0.98820 -0.53100
O 	O 	0.38030 0.06240 0.17240 -0.42700
O 	O 	0.56880 0.22030 0.09700 -0.43900
O 	O 	0.49960 0.83080 0.09630 -0.47800
O 	O 	0.83200 0.20670 0.26370 -0.40900
O 	O 	0.68250 0.23690 0.34170 -0.38600
C 	C 	0.29810 0.02590 0.06640 0.41800
C 	C 	0.14440 0.01420 0.03340 -0.12800
C 	C 	0.09250 0.05850 0.11610 0.12000
C 	C 	0.05310 0.95660 0.91960 -0.04800
H 	H 	0.08870 0.92720 0.86540 0.05300
C 	C 	0.52970 0.24550 0.00080 0.42500
C 	C 	0.51770 0.37830 0.00170 -0.10900
C 	C 	0.51320 0.46000 0.10000 0.05200
C 	C 	0.50320 0.41900 0.90420 -0.03200
H 	H 	0.50440 0.36470 0.83970 0.05300
C 	C 	0.80030 0.27050 0.33550 0.34900
C 	C 	0.90240 0.39020 0.41990 -0.11300
C 	C 	0.86490 0.46920 0.49630 0.07400
C 	C 	0.03890 0.42120 0.42390 0.07300
N 	N 	0.17230 0.11490 0.22710 -0.10000
N 	N 	0.72400 0.46800 0.48420 -0.07800
N 	N 	0.09700 0.34200 0.36200 -0.07900
