data_crystal

_cell_length_a 18.61030
_cell_length_b 18.61030
_cell_length_c 18.61030
_cell_angle_alpha 60.00000
_cell_angle_beta  60.00000
_cell_angle_gamma 60.00000

_symmetry_space_group_name_	'P 1'
_symmetry_space_group_name_H-M	'P 1'

loop_
_symmetry_equiv_pos_as_xyz
  x,y,z

loop_
_atom_site_label
_atom_site_type_symbol
_atom_site_fract_x
_atom_site_fract_y
_atom_site_fract_z
_atom_site_charge
Cu	Cu	0.50000 0.07040 0.92960 0.90400
Cu	Cu	0.07040 0.50000 0.50000 0.90500
Cu	Cu	0.92960 0.50000 0.50000 0.90500
Cu	Cu	0.50000 0.92960 0.07040 0.90400
Cu	Cu	0.50000 0.92960 0.50000 0.90500
Cu	Cu	0.07040 0.50000 0.92960 0.90400
Cu	Cu	0.92960 0.50000 0.07040 0.90500
Cu	Cu	0.50000 0.07040 0.50000 0.90600
Cu	Cu	0.50000 0.50000 0.07040 0.90600
Cu	Cu	0.07040 0.92960 0.50000 0.90500
Cu	Cu	0.92960 0.07040 0.50000 0.90500
Cu	Cu	0.50000 0.50000 0.92960 0.90600
H 	H 	0.46580 0.98940 0.77240 0.04400
H 	H 	0.98940 0.46580 0.77240 0.04400
H 	H 	0.77240 0.77240 0.46580 0.04500
H 	H 	0.77240 0.77240 0.98940 0.04500
H 	H 	0.46580 0.77240 0.77240 0.04500
H 	H 	0.98940 0.77240 0.77240 0.04500
H 	H 	0.77240 0.46580 0.98940 0.04400
H 	H 	0.77240 0.98940 0.46580 0.04400
H 	H 	0.46580 0.77240 0.98940 0.04400
H 	H 	0.98940 0.77240 0.46580 0.04400
H 	H 	0.77240 0.98940 0.77240 0.04500
H 	H 	0.77240 0.46580 0.77240 0.04500
H 	H 	0.01060 0.53420 0.22760 0.04400
H 	H 	0.53420 0.01060 0.22760 0.04400
H 	H 	0.22760 0.22760 0.53420 0.04500
H 	H 	0.22760 0.22760 0.01060 0.04500
H 	H 	0.22760 0.53420 0.22760 0.04500
H 	H 	0.22760 0.01060 0.22760 0.04500
H 	H 	0.53420 0.22760 0.01060 0.04400
H 	H 	0.01060 0.22760 0.53420 0.04400
H 	H 	0.22760 0.53420 0.01060 0.04400
H 	H 	0.22760 0.01060 0.53420 0.04400
H 	H 	0.01060 0.22760 0.22760 0.04500
H 	H 	0.53420 0.22760 0.22760 0.04500
C 	C 	0.46550 0.93190 0.80130 0.05600
C 	C 	0.93190 0.46550 0.80130 0.05600
C 	C 	0.80130 0.80130 0.46550 0.05700
C 	C 	0.80130 0.80130 0.93190 0.04800
C 	C 	0.46550 0.80130 0.80130 0.05700
C 	C 	0.93190 0.80130 0.80130 0.04800
C 	C 	0.80130 0.46550 0.93190 0.05600
C 	C 	0.80130 0.93190 0.46550 0.05600
C 	C 	0.46550 0.80130 0.93190 0.05600
C 	C 	0.93190 0.80130 0.46550 0.05600
C 	C 	0.80130 0.93190 0.80130 0.04800
C 	C 	0.80130 0.46550 0.80130 0.05700
C 	C 	0.06810 0.53450 0.19870 0.05600
C 	C 	0.53450 0.06810 0.19870 0.05600
C 	C 	0.19870 0.19870 0.53450 0.05700
C 	C 	0.19870 0.19870 0.06810 0.04800
C 	C 	0.19870 0.53450 0.19870 0.05700
C 	C 	0.19870 0.06810 0.19870 0.04800
C 	C 	0.53450 0.19870 0.06810 0.05600
C 	C 	0.06810 0.19870 0.53450 0.05600
C 	C 	0.19870 0.53450 0.06810 0.05600
C 	C 	0.19870 0.06810 0.53450 0.05600
C 	C 	0.06810 0.19870 0.19870 0.04800
C 	C 	0.53450 0.19870 0.19870 0.05700
C 	C 	0.47340 0.93140 0.93140 0.35000
C 	C 	0.46530 0.88850 0.88850 -0.11100
C 	C 	0.93140 0.47340 0.66380 0.36200
C 	C 	0.88850 0.46530 0.75770 -0.11400
C 	C 	0.93140 0.66380 0.47340 0.36200
C 	C 	0.88850 0.75770 0.46530 -0.11400
C 	C 	0.66380 0.93140 0.93140 0.34200
C 	C 	0.75770 0.88850 0.88850 -0.10600
C 	C 	0.47340 0.93140 0.66380 0.36200
C 	C 	0.46530 0.88850 0.75770 -0.11400
C 	C 	0.93140 0.66380 0.93140 0.34200
C 	C 	0.88850 0.75770 0.88850 -0.10600
C 	C 	0.93140 0.47340 0.93140 0.35000
C 	C 	0.88850 0.46530 0.88850 -0.11100
C 	C 	0.66380 0.93140 0.47340 0.36200
C 	C 	0.75770 0.88850 0.46530 -0.11400
C 	C 	0.47340 0.66380 0.93140 0.36200
C 	C 	0.46530 0.75770 0.88850 -0.11400
C 	C 	0.93140 0.93140 0.47340 0.35000
C 	C 	0.88850 0.88850 0.46530 -0.11100
C 	C 	0.93140 0.93140 0.66380 0.34200
C 	C 	0.88850 0.88850 0.75770 -0.10600
C 	C 	0.66380 0.47340 0.93140 0.36200
C 	C 	0.75770 0.46530 0.88850 -0.11400
C 	C 	0.06860 0.52660 0.06860 0.35000
C 	C 	0.11150 0.53470 0.11150 -0.11100
C 	C 	0.52660 0.06860 0.33620 0.36200
C 	C 	0.53470 0.11150 0.24230 -0.11400
C 	C 	0.33620 0.06860 0.52660 0.36200
C 	C 	0.24230 0.11150 0.53470 -0.11400
C 	C 	0.06860 0.33620 0.06860 0.34200
C 	C 	0.11150 0.24230 0.11150 -0.10600
C 	C 	0.06860 0.52660 0.33620 0.36200
C 	C 	0.11150 0.53470 0.24230 -0.11400
C 	C 	0.33620 0.06860 0.06860 0.34200
C 	C 	0.24230 0.11150 0.11150 -0.10600
C 	C 	0.52660 0.06860 0.06860 0.35000
C 	C 	0.53470 0.11150 0.11150 -0.11100
C 	C 	0.06860 0.33620 0.52660 0.36200
C 	C 	0.11150 0.24230 0.53470 -0.11400
C 	C 	0.33620 0.52660 0.06860 0.36200
C 	C 	0.24230 0.53470 0.11150 -0.11400
C 	C 	0.06860 0.06860 0.52660 0.35000
C 	C 	0.11150 0.11150 0.53470 -0.11100
C 	C 	0.06860 0.06860 0.33620 0.34200
C 	C 	0.11150 0.11150 0.24230 -0.10600
C 	C 	0.52660 0.33620 0.06860 0.36200
C 	C 	0.53470 0.24230 0.11150 -0.11400
O 	O 	0.47940 0.00760 0.88700 -0.39500
O 	O 	0.00760 0.47940 0.62600 -0.40000
O 	O 	0.88700 0.62600 0.47940 -0.40200
O 	O 	0.62600 0.88700 0.00760 -0.39100
O 	O 	0.47940 0.88700 0.62600 -0.40200
O 	O 	0.00760 0.62600 0.88700 -0.39100
O 	O 	0.88700 0.47940 0.00760 -0.39500
O 	O 	0.62600 0.00760 0.47940 -0.40000
O 	O 	0.47940 0.62600 0.00760 -0.40000
O 	O 	0.00760 0.88700 0.47940 -0.39500
O 	O 	0.88700 0.00760 0.62600 -0.39100
O 	O 	0.62600 0.47940 0.88700 -0.40200
O 	O 	0.99240 0.52060 0.11300 -0.39500
O 	O 	0.52060 0.99240 0.37400 -0.40000
O 	O 	0.37400 0.11300 0.52060 -0.40200
O 	O 	0.11300 0.37400 0.99240 -0.39100
O 	O 	0.11300 0.52060 0.37400 -0.40200
O 	O 	0.37400 0.99240 0.11300 -0.39100
O 	O 	0.52060 0.11300 0.99240 -0.39500
O 	O 	0.99240 0.37400 0.52060 -0.40000
O 	O 	0.37400 0.52060 0.99240 -0.40000
O 	O 	0.11300 0.99240 0.52060 -0.39500
O 	O 	0.99240 0.11300 0.37400 -0.39100
O 	O 	0.52060 0.37400 0.11300 -0.40200
O 	O 	0.52060 0.99240 0.11300 -0.39500
O 	O 	0.99240 0.52060 0.37400 -0.40000
O 	O 	0.11300 0.37400 0.52060 -0.40200
O 	O 	0.37400 0.11300 0.99240 -0.39100
O 	O 	0.52060 0.11300 0.37400 -0.40200
O 	O 	0.99240 0.37400 0.11300 -0.39100
O 	O 	0.11300 0.52060 0.99240 -0.39500
O 	O 	0.37400 0.99240 0.52060 -0.40000
O 	O 	0.52060 0.37400 0.99240 -0.40000
O 	O 	0.99240 0.11300 0.52060 -0.39500
O 	O 	0.11300 0.99240 0.37400 -0.39100
O 	O 	0.37400 0.52060 0.11300 -0.40200
O 	O 	0.00760 0.47940 0.88700 -0.39500
O 	O 	0.47940 0.00760 0.62600 -0.40000
O 	O 	0.62600 0.88700 0.47940 -0.40200
O 	O 	0.88700 0.62600 0.00760 -0.39100
O 	O 	0.88700 0.47940 0.62600 -0.40200
O 	O 	0.62600 0.00760 0.88700 -0.39100
O 	O 	0.47940 0.88700 0.00760 -0.39500
O 	O 	0.00760 0.62600 0.47940 -0.40000
O 	O 	0.62600 0.47940 0.00760 -0.40000
O 	O 	0.88700 0.00760 0.47940 -0.39500
O 	O 	0.00760 0.88700 0.62600 -0.39100
O 	O 	0.47940 0.62600 0.88700 -0.40200
