data_crystal

_cell_length_a 14.17000
_cell_length_b 16.38100
_cell_length_c 19.41500
_cell_angle_alpha 104.25000
_cell_angle_beta  90.00000
_cell_angle_gamma 90.00000

_symmetry_space_group_name_	'P 1'
_symmetry_space_group_name_H-M	'P 1'

loop_
_symmetry_equiv_pos_as_xyz
  x,y,z

loop_
_atom_site_label
_atom_site_type_symbol
_atom_site_fract_x
_atom_site_fract_y
_atom_site_fract_z
_atom_site_charge
Zn	Zn	0.56837 0.76895 0.67839 1.21300
Zn	Zn	0.93163 0.26895 0.17839 1.21300
H 	H 	0.81460 0.98780 0.34490 0.06400
H 	H 	0.41300 0.48980 0.61290 0.10900
H 	H 	0.94380 0.47240 0.06720 0.03400
H 	H 	0.33670 0.43030 0.50950 0.13300
H 	H 	0.68540 0.48780 0.84490 0.06200
H 	H 	0.45090 0.92780 0.73610 -0.02100
H 	H 	0.59250 0.07080 0.50050 0.06600
H 	H 	0.83480 0.67210 0.96970 0.06100
H 	H 	0.64210 0.57690 0.77380 0.04200
H 	H 	0.82890 0.94090 0.43760 0.06600
H 	H 	0.08700 0.98980 0.11290 0.10600
H 	H 	0.90750 0.57080 0.00050 0.06600
H 	H 	0.16330 0.93030 0.00950 0.13200
H 	H 	0.15460 0.25390 0.37180 0.12500
H 	H 	0.70860 0.34730 0.00720 0.03100
H 	H 	0.45920 0.71230 0.78560 -0.03100
H 	H 	0.85790 0.07690 0.27380 0.04100
H 	H 	0.04080 0.21230 0.28560 -0.03100
H 	H 	0.70580 0.26200 0.39800 0.03700
H 	H 	0.15980 0.48110 0.32360 0.13800
H 	H 	0.66520 0.17210 0.46970 0.06100
H 	H 	0.25300 0.35500 0.43280 0.14700
H 	H 	0.79420 0.76200 0.89800 0.03800
H 	H 	0.10230 0.11500 0.95770 0.12900
H 	H 	0.01680 0.22160 0.02780 -0.02800
H 	H 	0.34540 0.75390 0.87180 0.12500
H 	H 	0.00010 0.10040 0.17880 -0.01800
H 	H 	0.04910 0.42780 0.23610 -0.02100
H 	H 	0.48320 0.72160 0.52780 -0.02800
H 	H 	0.34020 0.98110 0.82360 0.13800
H 	H 	0.24700 0.85500 0.93280 0.14700
H 	H 	0.55620 0.97240 0.56720 0.03400
H 	H 	0.79140 0.84730 0.50720 0.03100
H 	H 	0.67110 0.44090 0.93760 0.06600
H 	H 	0.49990 0.60040 0.67880 -0.01900
H 	H 	0.39770 0.61500 0.45770 0.13000
C 	C 	0.68170 0.73780 0.78570 0.32800
C 	C 	0.11040 0.04110 0.02850 0.23100
C 	C 	0.07470 0.03750 0.09460 -0.22000
C 	C 	0.68060 0.59750 0.81440 0.02300
C 	C 	0.78350 0.51430 0.96230 0.04800
C 	C 	0.36620 0.79160 0.84480 -0.24100
C 	C 	0.74940 0.39320 0.00680 0.03300
C 	C 	0.81940 0.09750 0.31440 0.02400
C 	C 	0.75060 0.89320 0.50680 0.03200
C 	C 	0.17230 0.37260 0.35640 0.24400
C 	C 	0.72750 0.44930 0.96490 -0.10500
C 	C 	0.08370 0.11120 0.00380 -0.23200
C 	C 	0.82900 0.40480 0.04680 -0.10300
C 	C 	0.73020 0.20630 0.38770 0.01700
C 	C 	0.41630 0.61120 0.50380 -0.23400
C 	C 	0.43440 0.76770 0.79370 0.14000
C 	C 	0.79420 0.04480 0.35750 -0.09200
C 	C 	0.21700 0.97120 0.93090 0.31100
C 	C 	0.85360 0.34310 0.09000 0.31200
C 	C 	0.61410 0.96680 0.54190 0.03600
C 	C 	0.75890 0.57210 0.91720 0.03400
C 	C 	0.77250 0.94930 0.46490 -0.10300
C 	C 	0.02170 0.10340 0.13310 0.12400
C 	C 	0.64640 0.84310 0.59000 0.31100
C 	C 	0.13780 0.42480 0.31650 -0.24100
C 	C 	0.71130 0.67860 0.83070 -0.08900
C 	C 	0.42530 0.53750 0.59460 -0.22300
C 	C 	0.63410 0.02550 0.50110 -0.10400
C 	C 	0.81830 0.23780 0.28570 0.32800
C 	C 	0.06970 0.39270 0.26540 0.14700
C 	C 	0.13380 0.29160 0.34480 -0.24100
C 	C 	0.32770 0.87260 0.85640 0.24400
C 	C 	0.28300 0.47120 0.43090 0.31100
C 	C 	0.46870 0.67380 0.54540 0.13000
C 	C 	0.76980 0.70630 0.88770 0.01700
C 	C 	0.03130 0.17380 0.04540 0.13000
C 	C 	0.70630 0.15260 0.43050 -0.09100
C 	C 	0.70580 0.54480 0.85750 -0.09100
C 	C 	0.86590 0.52550 0.00110 -0.10400
C 	C 	0.38960 0.54110 0.52850 0.23300
C 	C 	0.43030 0.89270 0.76540 0.14700
C 	C 	0.71650 0.01430 0.46230 0.04700
C 	C 	0.78870 0.17860 0.33070 -0.08900
C 	C 	0.67100 0.90480 0.54680 -0.10300
C 	C 	0.36220 0.92480 0.81650 -0.24100
C 	C 	0.88590 0.46680 0.04190 0.03600
C 	C 	0.47830 0.60340 0.63310 0.12600
C 	C 	0.06560 0.26770 0.29370 0.14000
C 	C 	0.74110 0.07210 0.41720 0.03500
C 	C 	0.79370 0.65260 0.93050 -0.09000
N 	N 	0.99870 0.17170 0.11020 -0.28200
N 	N 	0.03210 0.31780 0.25490 -0.28400
N 	N 	0.16290 0.97540 0.99250 -0.26800
N 	N 	0.46790 0.81780 0.75490 -0.28400
N 	N 	0.23820 0.39350 0.41010 -0.27500
N 	N 	0.33710 0.47540 0.49250 -0.26900
N 	N 	0.26180 0.89350 0.91010 -0.27500
N 	N 	0.50130 0.67170 0.61020 -0.28200
O 	O 	0.69050 0.77510 0.58230 -0.34900
O 	O 	0.92200 0.36330 0.13400 -0.45000
O 	O 	0.27550 0.52800 0.40290 -0.26900
O 	O 	0.63850 0.70040 0.72710 -0.45400
O 	O 	0.86150 0.20040 0.22710 -0.45500
O 	O 	0.57800 0.86330 0.63400 -0.44900
O 	O 	0.69860 0.81260 0.80530 -0.30200
O 	O 	0.80140 0.31260 0.30530 -0.30200
O 	O 	0.80950 0.27510 0.08230 -0.34900
O 	O 	0.22450 0.02800 0.90290 -0.27000
Zn	Zn	0.43163 0.23105 0.32161 1.21200
Zn	Zn	0.06837 0.73105 0.82161 1.21200
H 	H 	0.51680 0.27840 0.47220 -0.02800
H 	H 	0.84020 0.51890 0.67640 0.13800
H 	H 	0.44380 0.02760 0.43280 0.03400
H 	H 	0.99990 0.89960 0.82120 -0.01800
H 	H 	0.65460 0.24610 0.12820 0.12500
H 	H 	0.29140 0.65270 0.99280 0.03100
H 	H 	0.83670 0.06970 0.99050 0.13200
H 	H 	0.54080 0.28770 0.21440 -0.03100
H 	H 	0.20860 0.15270 0.49280 0.03100
H 	H 	0.58700 0.51020 0.38710 0.10800
H 	H 	0.29420 0.73800 0.60200 0.03700
H 	H 	0.16520 0.32790 0.03030 0.06100
H 	H 	0.98320 0.77840 0.97220 -0.02800
H 	H 	0.60230 0.38500 0.54230 0.13000
H 	H 	0.32890 0.55910 0.06240 0.06600
H 	H 	0.17110 0.05910 0.56240 0.06600
H 	H 	0.95920 0.78770 0.71440 -0.03100
H 	H 	0.54910 0.07220 0.26390 -0.02100
H 	H 	0.31460 0.51220 0.15510 0.06200
H 	H 	0.33480 0.82790 0.53030 0.06100
H 	H 	0.35790 0.42310 0.22620 0.04200
H 	H 	0.95090 0.57220 0.76390 -0.02100
H 	H 	0.91300 0.01020 0.88710 0.10600
H 	H 	0.84540 0.74610 0.62820 0.12500
H 	H 	0.66330 0.56970 0.49050 0.13300
H 	H 	0.14210 0.92310 0.72620 0.04100
H 	H 	0.65980 0.01890 0.17640 0.13800
H 	H 	0.75300 0.14500 0.06720 0.14700
H 	H 	0.40750 0.92920 0.49950 0.06600
H 	H 	0.05620 0.52760 0.93280 0.03400
H 	H 	0.74700 0.64500 0.56720 0.14700
H 	H 	0.09250 0.42920 0.99950 0.06600
H 	H 	0.18540 0.01220 0.65510 0.06300
H 	H 	0.50010 0.39960 0.32120 -0.01900
H 	H 	0.20580 0.23800 0.10200 0.03800
H 	H 	0.89770 0.88500 0.04230 0.12900
C 	C 	0.96870 0.82620 0.95460 0.13000
C 	C 	0.28870 0.32140 0.16930 -0.08900
C 	C 	0.82770 0.62740 0.64360 0.24400
C 	C 	0.52170 0.39660 0.36690 0.12600
C 	C 	0.29420 0.45520 0.14250 -0.09100
C 	C 	0.97830 0.89660 0.86690 0.12400
C 	C 	0.17100 0.59520 0.95320 -0.10300
C 	C 	0.24110 0.42790 0.08280 0.03400
C 	C 	0.61040 0.45890 0.47150 0.23300
C 	C 	0.56560 0.23230 0.20630 0.14000
C 	C 	0.20580 0.95520 0.64250 -0.09200
C 	C 	0.38590 0.03320 0.45810 0.03600
C 	C 	0.26980 0.79370 0.61230 0.01700
C 	C 	0.28350 0.98570 0.53770 0.04700
C 	C 	0.13410 0.47450 0.99890 -0.10400
C 	C 	0.93440 0.73230 0.70630 0.14000
C 	C 	0.21130 0.82140 0.66930 -0.08900
C 	C 	0.57470 0.46250 0.40540 -0.22300
C 	C 	0.78300 0.02880 0.06910 0.31100
C 	C 	0.18170 0.76220 0.71430 0.32800
C 	C 	0.23020 0.29370 0.11230 0.01700
C 	C 	0.88960 0.95890 0.97150 0.23100
C 	C 	0.25060 0.60680 0.99320 0.03300
C 	C 	0.86620 0.70840 0.65520 -0.24100
C 	C 	0.25890 0.92790 0.58280 0.03500
C 	C 	0.92530 0.96250 0.90540 -0.22000
C 	C 	0.22750 0.05070 0.53510 -0.10300
C 	C 	0.24940 0.10680 0.49320 0.03200
C 	C 	0.32900 0.09520 0.45320 -0.10300
C 	C 	0.93030 0.60730 0.73460 0.14700
C 	C 	0.63780 0.07520 0.18350 -0.24100
C 	C 	0.31940 0.40250 0.18560 0.02300
C 	C 	0.11410 0.53320 0.95810 0.03600
C 	C 	0.20630 0.34740 0.06950 -0.09000
C 	C 	0.27250 0.55070 0.03510 -0.10500
C 	C 	0.91630 0.88880 0.99620 -0.23200
C 	C 	0.31830 0.26220 0.21430 0.32800
C 	C 	0.58370 0.38880 0.49620 -0.23400
C 	C 	0.53130 0.32620 0.45460 0.13000
C 	C 	0.36590 0.97450 0.49890 -0.10400
C 	C 	0.29370 0.84740 0.56950 -0.09100
C 	C 	0.67230 0.12740 0.14360 0.24400
C 	C 	0.21650 0.48570 0.03770 0.04800
C 	C 	0.35360 0.15690 0.41000 0.31100
C 	C 	0.56970 0.10730 0.23460 0.14700
C 	C 	0.86220 0.57520 0.68350 -0.24100
C 	C 	0.14640 0.65690 0.91000 0.31200
C 	C 	0.71700 0.52880 0.56910 0.31100
C 	C 	0.63380 0.20840 0.15520 -0.24100
C 	C 	0.18060 0.90250 0.68560 0.02400
N 	N 	0.76180 0.60650 0.58990 -0.27500
N 	N 	0.49870 0.32830 0.38980 -0.28200
N 	N 	0.00130 0.82830 0.88980 -0.28200
N 	N 	0.96790 0.68220 0.74510 -0.28400
N 	N 	0.53210 0.18220 0.24510 -0.28400
N 	N 	0.66290 0.52460 0.50750 -0.26900
N 	N 	0.73820 0.10650 0.08990 -0.27500
N 	N 	0.83710 0.02460 0.00750 -0.26800
O 	O 	0.42200 0.13670 0.36600 -0.44900
O 	O 	0.36150 0.29960 0.27290 -0.45400
O 	O 	0.13850 0.79960 0.77290 -0.45500
O 	O 	0.77550 0.97200 0.09710 -0.27000
O 	O 	0.07800 0.63670 0.86600 -0.45000
O 	O 	0.19050 0.72490 0.91770 -0.34900
O 	O 	0.30140 0.18740 0.19470 -0.30200
O 	O 	0.30950 0.22490 0.41770 -0.34900
O 	O 	0.19860 0.68740 0.69470 -0.30200
O 	O 	0.72450 0.47200 0.59710 -0.26900
