data_crystal

_cell_length_a 14.52900
_cell_length_b 16.54300
_cell_length_c 21.12500
_cell_angle_alpha 90.00000
_cell_angle_beta  104.30500
_cell_angle_gamma 90.00000

_symmetry_space_group_name_	'P 1'
_symmetry_space_group_name_H-M	'P 1'

loop_
_symmetry_equiv_pos_as_xyz
  x,y,z

loop_
_atom_site_label
_atom_site_type_symbol
_atom_site_fract_x
_atom_site_fract_y
_atom_site_fract_z
_atom_site_charge
Zn	Zn	0.41470 0.45544 0.17261 1.21100
O 	O 	0.34130 0.33730 0.09760 -0.36400
O 	O 	0.27650 0.43760 0.14110 -0.43100
O 	O 	0.55170 0.09030 0.69720 -0.40400
O 	O 	0.45570 0.14090 0.75400 -0.35600
O 	O 	0.36350 0.74260 0.91070 -0.26600
O 	O 	0.82000 0.35050 0.96640 -0.24100
N 	N 	0.42940 0.94990 0.73840 -0.28800
N 	N 	0.44010 0.52030 0.09480 -0.27300
N 	N 	0.49620 0.76380 0.87410 -0.28500
H 	H 	0.55390 0.74470 0.87830 0.15800
N 	N 	0.50160 0.67600 0.95360 -0.27500
H 	H 	0.56110 0.67270 0.95110 0.15300
N 	N 	0.92230 0.27580 0.92520 -0.09400
C 	C 	0.27020 0.37540 0.10160 0.32400
C 	C 	0.17570 0.35500 0.06340 -0.11800
C 	C 	0.09810 0.40580 0.05890 0.05900
H 	H 	0.10470 0.45390 0.08420 0.03200
C 	C 	0.01090 0.38620 0.01730 -0.14000
H 	H 	0.95790 0.42090 0.01420 0.09400
C 	C 	0.00130 0.31580 0.98030 0.11000
C 	C 	0.07890 0.26510 0.98480 -0.11300
H 	H 	0.07230 0.21700 0.95950 0.08500
C 	C 	0.16610 0.28460 0.02640 0.04000
H 	H 	0.21910 0.24990 0.02950 0.03000
C 	C 	0.53660 0.13450 0.74310 0.28900
C 	C 	0.61950 0.17820 0.78440 -0.07300
C 	C 	0.70840 0.17480 0.77100 0.01000
H 	H 	0.71620 0.14690 0.73330 0.05200
C 	C 	0.78580 0.21220 0.81260 -0.07000
H 	H 	0.84660 0.20990 0.80340 0.07500
C 	C 	0.77440 0.25290 0.86770 0.04300
C 	C 	0.68550 0.25630 0.88120 -0.09600
H 	H 	0.67770 0.28410 0.91880 0.08100
C 	C 	0.60810 0.21890 0.83950 0.01900
H 	H 	0.54740 0.22120 0.84870 0.04500
C 	C 	0.83910 0.29850 0.92360 0.23200
C 	C 	0.51390 0.91400 0.75320 0.14200
H 	H 	0.56060 0.93200 0.73200 -0.03100
C 	C 	0.53700 0.85260 0.79740 -0.24700
H 	H 	0.59790 0.82790 0.80630 0.12500
C 	C 	0.46910 0.82730 0.82890 0.25500
C 	C 	0.38170 0.86280 0.81210 -0.27000
H 	H 	0.33300 0.84580 0.83200 0.14900
C 	C 	0.36490 0.92200 0.76710 0.17200
H 	H 	0.30320 0.94510 0.75540 -0.02900
C 	C 	0.36910 0.55890 0.05330 0.11800
H 	H 	0.30580 0.55000 0.05650 -0.00600
C 	C 	0.38480 0.61170 0.00580 -0.23400
H 	H 	0.33250 0.63780 0.97710 0.14800
C 	C 	0.47580 0.62630 -0.00000 0.21300
C 	C 	0.55020 0.58660 0.04400 -0.21200
H 	H 	0.61430 0.59460 0.04230 0.10500
C 	C 	0.52760 0.53510 0.09030 0.11700
H 	H 	0.57830 0.50910 0.12040 -0.00700
C 	C 	0.44510 0.72870 0.91180 0.33600
N 	N 	0.87520 0.27940 0.89210 -0.14500
C 	C 	0.89400 0.32280 0.95300 0.05300
Zn	Zn	0.41470 0.04456 0.67261 1.21000
O 	O 	0.34130 0.16270 0.59760 -0.36500
O 	O 	0.27650 0.06240 0.64110 -0.43100
O 	O 	0.55170 0.40970 0.19720 -0.40400
O 	O 	0.45570 0.35910 0.25400 -0.35600
O 	O 	0.36350 0.75740 0.41070 -0.26800
O 	O 	0.82000 0.14950 0.46640 -0.24400
N 	N 	0.42940 0.55010 0.23840 -0.28900
N 	N 	0.44010 0.97970 0.59480 -0.27200
N 	N 	0.49620 0.73620 0.37410 -0.28500
H 	H 	0.55390 0.75530 0.37830 0.15700
N 	N 	0.50160 0.82400 0.45360 -0.27800
H 	H 	0.56110 0.82730 0.45110 0.15200
N 	N 	0.92230 0.22420 0.42520 -0.09300
C 	C 	0.27020 0.12460 0.60160 0.32700
C 	C 	0.17570 0.14500 0.56340 -0.12300
C 	C 	0.09810 0.09420 0.55890 0.06200
H 	H 	0.10470 0.04610 0.58420 0.03200
C 	C 	0.01090 0.11380 0.51730 -0.13800
H 	H 	0.95790 0.07910 0.51420 0.09800
C 	C 	0.00130 0.18420 0.48030 0.11100
C 	C 	0.07890 0.23490 0.48480 -0.12800
H 	H 	0.07230 0.28300 0.45950 0.08900
C 	C 	0.16610 0.21540 0.52640 0.05400
H 	H 	0.21910 0.25010 0.52950 0.02600
C 	C 	0.53660 0.36550 0.24310 0.28900
C 	C 	0.61950 0.32180 0.28440 -0.07300
C 	C 	0.70840 0.32520 0.27100 0.00900
H 	H 	0.71620 0.35310 0.23330 0.05200
C 	C 	0.78580 0.28780 0.31260 -0.06800
H 	H 	0.84660 0.29010 0.30340 0.07300
C 	C 	0.77440 0.24710 0.36770 0.03900
C 	C 	0.68550 0.24370 0.38120 -0.09500
H 	H 	0.67770 0.21590 0.41880 0.07900
C 	C 	0.60810 0.28110 0.33950 0.01800
H 	H 	0.54740 0.27880 0.34870 0.04400
C 	C 	0.83910 0.20150 0.42360 0.23900
C 	C 	0.51390 0.58600 0.25320 0.14200
H 	H 	0.56060 0.56800 0.23200 -0.03100
C 	C 	0.53700 0.64740 0.29740 -0.24700
H 	H 	0.59790 0.67210 0.30630 0.12400
C 	C 	0.46910 0.67270 0.32890 0.25400
C 	C 	0.38170 0.63720 0.31210 -0.27000
H 	H 	0.33300 0.65420 0.33200 0.14800
C 	C 	0.36490 0.57800 0.26710 0.17200
H 	H 	0.30320 0.55490 0.25540 -0.03000
C 	C 	0.36910 0.94110 0.55330 0.11200
H 	H 	0.30580 0.95000 0.55650 -0.00300
C 	C 	0.38480 0.88830 0.50580 -0.21700
H 	H 	0.33250 0.86220 0.47710 0.13700
C 	C 	0.47580 0.87370 0.50000 0.21500
C 	C 	0.55020 0.91340 0.54400 -0.21100
H 	H 	0.61430 0.90540 0.54230 0.10700
C 	C 	0.52760 0.96490 0.59030 0.11700
H 	H 	0.57830 0.99090 0.62040 -0.00600
C 	C 	0.44510 0.77130 0.41180 0.33500
N 	N 	0.87520 0.22060 0.39210 -0.14700
C 	C 	0.89400 0.17720 0.45300 0.04500
Zn	Zn	0.58530 0.95544 0.32739 1.21000
O 	O 	0.65870 0.83730 0.40240 -0.36500
O 	O 	0.72350 0.93760 0.35890 -0.43200
O 	O 	0.44830 0.59030 0.80280 -0.40400
O 	O 	0.54430 0.64090 0.74600 -0.35600
O 	O 	0.63650 0.24260 0.58930 -0.26800
O 	O 	0.18000 0.85050 0.53360 -0.24400
N 	N 	0.57060 0.44990 0.76160 -0.28900
N 	N 	0.55990 0.02030 0.40520 -0.27200
N 	N 	0.50380 0.26380 0.62590 -0.28500
H 	H 	0.44610 0.24470 0.62170 0.15700
N 	N 	0.49840 0.17600 0.54640 -0.27800
H 	H 	0.43890 0.17270 0.54890 0.15200
N 	N 	0.07770 0.77580 0.57480 -0.09300
C 	C 	0.72980 0.87540 0.39840 0.32700
C 	C 	0.82430 0.85500 0.43660 -0.12300
C 	C 	0.90190 0.90580 0.44110 0.06300
H 	H 	0.89530 0.95390 0.41580 0.03100
C 	C 	0.98910 0.88620 0.48270 -0.14000
H 	H 	0.04210 0.92090 0.48580 0.10000
C 	C 	0.99870 0.81580 0.51970 0.11000
C 	C 	0.92110 0.76510 0.51520 -0.12800
H 	H 	0.92770 0.71700 0.54050 0.08800
C 	C 	0.83390 0.78460 0.47360 0.05500
H 	H 	0.78090 0.74990 0.47050 0.02600
C 	C 	0.46340 0.63450 0.75690 0.28900
C 	C 	0.38050 0.67820 0.71560 -0.07300
C 	C 	0.29160 0.67480 0.72900 0.00900
H 	H 	0.28380 0.64690 0.76670 0.05300
C 	C 	0.21420 0.71220 0.68740 -0.06800
H 	H 	0.15340 0.70990 0.69660 0.07400
C 	C 	0.22560 0.75290 0.63230 0.04000
C 	C 	0.31450 0.75630 0.61880 -0.09500
H 	H 	0.32230 0.78410 0.58120 0.08000
C 	C 	0.39190 0.71890 0.66050 0.01800
H 	H 	0.45260 0.72120 0.65130 0.04400
C 	C 	0.16090 0.79850 0.57640 0.23700
C 	C 	0.48610 0.41400 0.74680 0.14200
H 	H 	0.43940 0.43200 0.76800 -0.03100
C 	C 	0.46300 0.35260 0.70260 -0.24700
H 	H 	0.40210 0.32790 0.69370 0.12400
C 	C 	0.53090 0.32730 0.67110 0.25400
C 	C 	0.61830 0.36280 0.68790 -0.27000
H 	H 	0.66700 0.34580 0.66800 0.14800
C 	C 	0.63510 0.42200 0.73290 0.17200
H 	H 	0.69680 0.44510 0.74460 -0.03000
C 	C 	0.63090 0.05890 0.44670 0.11200
H 	H 	0.69420 0.05000 0.44350 -0.00300
C 	C 	0.61520 0.11170 0.49420 -0.21700
H 	H 	0.66750 0.13780 0.52290 0.13700
C 	C 	0.52420 0.12630 0.50000 0.21500
C 	C 	0.44980 0.08660 0.45600 -0.21100
H 	H 	0.38570 0.09460 0.45770 0.10700
C 	C 	0.47240 0.03510 0.40970 0.11700
H 	H 	0.42170 0.00910 0.37960 -0.00600
C 	C 	0.55490 0.22870 0.58820 0.33500
N 	N 	0.12480 0.77940 0.60790 -0.14600
C 	C 	0.10600 0.82280 0.54700 0.04800
Zn	Zn	0.58530 0.54456 0.82739 1.21000
O 	O 	0.65870 0.66270 0.90240 -0.36400
O 	O 	0.72350 0.56240 0.85890 -0.43100
O 	O 	0.44830 0.90970 0.30280 -0.40400
O 	O 	0.54430 0.85910 0.24600 -0.35700
O 	O 	0.63650 0.25740 0.08930 -0.26900
O 	O 	0.18000 0.64950 0.03360 -0.24700
N 	N 	0.57060 0.05010 0.26160 -0.28800
N 	N 	0.55990 0.47970 0.90520 -0.26500
N 	N 	0.50380 0.23620 0.12590 -0.28400
H 	H 	0.44610 0.25530 0.12170 0.15700
N 	N 	0.49840 0.32400 0.04640 -0.27200
H 	H 	0.43890 0.32730 0.04890 0.14900
N 	N 	0.07770 0.72420 0.07480 -0.09100
C 	C 	0.72980 0.62460 0.89840 0.32800
C 	C 	0.82430 0.64500 0.93660 -0.12400
C 	C 	0.90190 0.59420 0.94110 0.06000
H 	H 	0.89530 0.54610 0.91580 0.03400
C 	C 	0.98910 0.61380 0.98270 -0.12300
H 	H 	0.04210 0.57910 0.98580 0.09700
C 	C 	0.99870 0.68420 0.01970 0.09900
C 	C 	0.92110 0.73490 0.01520 -0.13900
H 	H 	0.92770 0.78300 0.04050 0.08900
C 	C 	0.83390 0.71540 0.97360 0.06800
H 	H 	0.78090 0.75010 0.97050 0.02400
C 	C 	0.46340 0.86550 0.25690 0.28900
C 	C 	0.38050 0.82180 0.21560 -0.07300
C 	C 	0.29160 0.82520 0.22900 0.00900
H 	H 	0.28380 0.85310 0.26670 0.05200
C 	C 	0.21420 0.78780 0.18740 -0.06800
H 	H 	0.15340 0.79010 0.19660 0.07400
C 	C 	0.22560 0.74710 0.13230 0.04000
C 	C 	0.31450 0.74370 0.11880 -0.09600
H 	H 	0.32230 0.71590 0.08120 0.07900
C 	C 	0.39190 0.78110 0.16050 0.01800
H 	H 	0.45260 0.77880 0.15130 0.04300
C 	C 	0.16090 0.70150 0.07640 0.23600
C 	C 	0.48610 0.08600 0.24680 0.14100
H 	H 	0.43940 0.06800 0.26800 -0.03100
C 	C 	0.46300 0.14740 0.20260 -0.24700
H 	H 	0.40210 0.17210 0.19370 0.12400
C 	C 	0.53090 0.17270 0.17110 0.25400
C 	C 	0.61830 0.13720 0.18790 -0.26900
H 	H 	0.66700 0.15420 0.16800 0.14700
C 	C 	0.63510 0.07800 0.23290 0.17100
H 	H 	0.69680 0.05490 0.24460 -0.03000
C 	C 	0.63090 0.44110 0.94670 0.09200
H 	H 	0.69420 0.45000 0.94350 0.00500
C 	C 	0.61520 0.38830 0.99420 -0.17200
H 	H 	0.66750 0.36220 0.02290 0.11600
C 	C 	0.52420 0.37370 -0.00000 0.18100
C 	C 	0.44980 0.41340 0.95600 -0.18400
H 	H 	0.38570 0.40540 0.95770 0.10200
C 	C 	0.47240 0.46490 0.90970 0.10500
H 	H 	0.42170 0.49090 0.87960 -0.00200
C 	C 	0.55490 0.27130 0.08820 0.33300
N 	N 	0.12480 0.72060 0.10790 -0.14700
C 	C 	0.10600 0.67720 0.04700 0.04800
