data_crystal

_cell_length_a 15.14310
_cell_length_b 15.23220
_cell_length_c 16.05970
_cell_angle_alpha 98.48400
_cell_angle_beta  102.68200
_cell_angle_gamma 104.20600

_symmetry_space_group_name_	'P 1'
_symmetry_space_group_name_H-M	'P 1'

loop_
_symmetry_equiv_pos_as_xyz
  x,y,z

loop_
_atom_site_label
_atom_site_type_symbol
_atom_site_fract_x
_atom_site_fract_y
_atom_site_fract_z
_atom_site_charge
C 	C 	0.37610 0.98100 0.31210 0.38500
C 	C 	0.37390 0.07860 0.31000 -0.11100
C 	C 	0.37600 0.13860 0.38410 0.03200
H 	H 	0.38110 0.11860 0.43780 0.03800
C 	C 	0.37070 0.22800 0.38120 -0.09700
H 	H 	0.37080 0.26780 0.43260 0.06500
C 	C 	0.36540 0.26030 0.30360 0.03800
C 	C 	0.36750 0.20040 0.23020 -0.09700
H 	H 	0.36690 0.22140 0.17730 0.06400
C 	C 	0.37040 0.11040 0.23310 0.03700
H 	H 	0.36990 0.07020 0.18170 0.03900
C 	C 	0.18340 0.78850 0.27570 0.38600
C 	C 	0.08810 0.79640 0.28120 -0.11800
C 	C 	0.02070 0.79730 0.20850 0.04200
H 	H 	0.03340 0.79000 0.15290 0.03300
C 	C 	0.93480 0.80860 0.21540 -0.10000
H 	H 	0.88990 0.80970 0.16420 0.06300
C 	C 	0.91200 0.81840 0.29410 0.03900
C 	C 	0.98110 0.81780 0.36730 -0.10100
H 	H 	0.96830 0.82490 0.42290 0.06300
C 	C 	0.06630 0.80720 0.36140 0.04200
H 	H 	0.11170 0.80720 0.41270 0.03100
C 	C 	0.34760 0.63510 0.29320 0.38600
C 	C 	0.34990 0.53710 0.29560 -0.11100
C 	C 	0.31790 0.46850 0.21990 0.03600
H 	H 	0.29280 0.48300 0.16570 0.03400
C 	C 	0.32220 0.37870 0.22250 -0.09800
H 	H 	0.29930 0.33250 0.17010 0.06300
C 	C 	0.35930 0.35560 0.30080 0.03800
C 	C 	0.39710 0.42660 0.37670 -0.09900
H 	H 	0.42600 0.41320 0.43020 0.06200
C 	C 	0.39230 0.51610 0.37390 0.03500
H 	H 	0.41800 0.56340 0.42550 0.03100
C 	C 	0.53940 0.83180 0.31840 0.38500
C 	C 	0.63890 0.83640 0.31340 -0.12200
C 	C 	0.65700 0.81850 0.23400 0.04700
H 	H 	0.60820 0.80930 0.18230 0.03200
C 	C 	0.74560 0.81370 0.22770 -0.10500
H 	H 	0.75620 0.80050 0.17160 0.06500
C 	C 	0.81830 0.82770 0.30110 0.04600
C 	C 	0.79950 0.84760 0.38090 -0.10600
H 	H 	0.84820 0.85700 0.43290 0.06500
C 	C 	0.71180 0.85420 0.38710 0.04600
H 	H 	0.70190 0.87130 0.44290 0.02800
C 	C 	0.38030 0.76440 0.56080 0.05900
H 	H 	0.37770 0.70700 0.52640 0.00800
C 	C 	0.37650 0.76820 0.64690 -0.08900
H 	H 	0.36910 0.71380 0.67010 0.05700
C 	C 	0.38360 0.85150 0.69770 0.00600
C 	C 	0.39240 0.92830 0.66040 -0.08600
H 	H 	0.39740 0.98700 0.69390 0.07900
C 	C 	0.39370 0.91890 0.57450 0.05800
H 	H 	0.39930 0.97210 0.54940 0.01800
C 	C 	0.38950 0.86930 0.79510 0.19900
C 	C 	0.40580 0.85110 0.06480 0.11700
H 	H 	0.45050 0.89460 0.11340 0.00500
C 	C 	0.41220 0.85870 0.98150 -0.20900
H 	H 	0.45990 0.90750 0.97300 0.12700
C 	C 	0.34750 0.79350 0.90990 0.22000
C 	C 	0.28060 0.72550 0.92510 -0.23700
H 	H 	0.23640 0.67950 0.87800 0.11100
C 	C 	0.27760 0.72420 0.00990 0.13900
H 	H 	0.22890 0.67730 0.01960 -0.02300
N 	N 	0.38750 0.83810 0.52480 -0.24300
N 	N 	0.34930 0.79440 0.82300 -0.25000
H 	H 	0.32220 0.74210 0.78410 0.12600
N 	N 	0.33850 0.78440 0.07890 -0.27000
O 	O 	0.36170 0.92730 0.24000 -0.45600
O 	O 	0.39040 0.95980 0.38580 -0.45800
O 	O 	0.24260 0.79440 0.34610 -0.46800
O 	O 	0.19750 0.77660 0.20100 -0.44700
O 	O 	0.31700 0.65290 0.21980 -0.45300
O 	O 	0.37760 0.69170 0.36570 -0.46500
O 	O 	0.52640 0.85410 0.39290 -0.44700
O 	O 	0.47670 0.80520 0.24750 -0.46800
O 	O 	0.42520 0.94900 0.84190 -0.22500
Zn	Zn	0.38853 0.82902 0.39747 1.21500
Zn	Zn	0.33348 0.78512 0.20377 1.21700
C 	C 	0.62390 0.01900 0.68790 0.38600
C 	C 	0.62610 0.92140 0.69000 -0.11000
C 	C 	0.62400 0.86140 0.61590 0.03300
H 	H 	0.61890 0.88140 0.56220 0.03900
C 	C 	0.62930 0.77200 0.61880 -0.09700
H 	H 	0.62920 0.73220 0.56740 0.06500
C 	C 	0.63460 0.73970 0.69640 0.03800
C 	C 	0.63250 0.79960 0.76980 -0.09700
H 	H 	0.63310 0.77860 0.82270 0.06400
C 	C 	0.62960 0.88960 0.76690 0.03700
H 	H 	0.63010 0.92980 0.81830 0.03900
C 	C 	0.81660 0.21150 0.72430 0.38600
C 	C 	0.91190 0.20360 0.71880 -0.11800
C 	C 	0.97930 0.20270 0.79150 0.04200
H 	H 	0.96660 0.21000 0.84710 0.03300
C 	C 	0.06520 0.19140 0.78460 -0.10000
H 	H 	0.11010 0.19030 0.83580 0.06300
C 	C 	0.08800 0.18160 0.70590 0.03900
C 	C 	0.01890 0.18220 0.63270 -0.10100
H 	H 	0.03170 0.17510 0.57710 0.06300
C 	C 	0.93370 0.19280 0.63860 0.04200
H 	H 	0.88830 0.19280 0.58730 0.03100
C 	C 	0.65240 0.36490 0.70680 0.38600
C 	C 	0.65010 0.46290 0.70440 -0.11100
C 	C 	0.68210 0.53150 0.78010 0.03600
H 	H 	0.70720 0.51700 0.83430 0.03400
C 	C 	0.67780 0.62130 0.77750 -0.09800
H 	H 	0.70070 0.66750 0.82990 0.06300
C 	C 	0.64070 0.64440 0.69920 0.03800
C 	C 	0.60290 0.57340 0.62330 -0.09900
H 	H 	0.57400 0.58680 0.56980 0.06200
C 	C 	0.60770 0.48390 0.62610 0.03500
H 	H 	0.58200 0.43660 0.57450 0.03100
C 	C 	0.46060 0.16820 0.68160 0.38500
C 	C 	0.36110 0.16360 0.68660 -0.12200
C 	C 	0.34300 0.18150 0.76600 0.04700
H 	H 	0.39180 0.19070 0.81770 0.03200
C 	C 	0.25440 0.18630 0.77230 -0.10500
H 	H 	0.24380 0.19950 0.82840 0.06500
C 	C 	0.18170 0.17230 0.69890 0.04600
C 	C 	0.20050 0.15240 0.61910 -0.10600
H 	H 	0.15180 0.14300 0.56710 0.06500
C 	C 	0.28820 0.14580 0.61290 0.04600
H 	H 	0.29810 0.12870 0.55710 0.02800
C 	C 	0.61970 0.23560 0.43920 0.05900
H 	H 	0.62230 0.29300 0.47360 0.00800
C 	C 	0.62350 0.23180 0.35310 -0.08900
H 	H 	0.63090 0.28620 0.32990 0.05700
C 	C 	0.61640 0.14850 0.30230 0.00600
C 	C 	0.60760 0.07170 0.33960 -0.08600
H 	H 	0.60260 0.01300 0.30610 0.07900
C 	C 	0.60630 0.08110 0.42550 0.05800
H 	H 	0.60070 0.02790 0.45060 0.01800
C 	C 	0.61050 0.13070 0.20490 0.19900
C 	C 	0.59420 0.14890 0.93520 0.11700
H 	H 	0.54950 0.10540 0.88660 0.00500
C 	C 	0.58780 0.14130 0.01850 -0.20900
H 	H 	0.54010 0.09250 0.02700 0.12700
C 	C 	0.65250 0.20650 0.09010 0.22000
C 	C 	0.71940 0.27450 0.07490 -0.23700
H 	H 	0.76360 0.32050 0.12200 0.11100
C 	C 	0.72240 0.27580 0.99010 0.13900
H 	H 	0.77110 0.32270 0.98040 -0.02300
N 	N 	0.61250 0.16190 0.47520 -0.24300
N 	N 	0.65070 0.20560 0.17700 -0.25000
H 	H 	0.67780 0.25790 0.21590 0.12600
N 	N 	0.66150 0.21560 0.92110 -0.27000
O 	O 	0.63830 0.07270 0.76000 -0.45600
O 	O 	0.60960 0.04020 0.61420 -0.45800
O 	O 	0.75740 0.20560 0.65390 -0.46800
O 	O 	0.80250 0.22340 0.79900 -0.44700
O 	O 	0.68300 0.34710 0.78020 -0.45300
O 	O 	0.62240 0.30830 0.63430 -0.46500
O 	O 	0.47360 0.14590 0.60710 -0.44700
O 	O 	0.52330 0.19480 0.75250 -0.46800
O 	O 	0.57480 0.05100 0.15810 -0.22500
Zn	Zn	0.61147 0.17098 0.60253 1.21500
Zn	Zn	0.66652 0.21488 0.79623 1.21700
