data_crystal

_cell_length_a 8.91510
_cell_length_b 9.31480
_cell_length_c 9.31480
_cell_angle_alpha 76.76160
_cell_angle_beta  61.40970
_cell_angle_gamma 61.40980

_symmetry_space_group_name_	'P 1'
_symmetry_space_group_name_H-M	'P 1'

loop_
_symmetry_equiv_pos_as_xyz
  x,y,z

loop_
_atom_site_label
_atom_site_type_symbol
_atom_site_fract_x
_atom_site_fract_y
_atom_site_fract_z
_atom_site_charge
Tb	Tb	0.87500 0.25000 0.25000 1.94000
Tb	Tb	0.12500 0.75000 0.75000 1.94000
K 	K 	0.37500 0.25000 0.25000 0.64500
K 	K 	0.62500 0.75000 0.75000 0.64500
C 	C 	0.44310 0.47200 0.48140 0.25800
C 	C 	0.89650 0.02800 0.01860 0.24200
C 	C 	0.92450 0.51860 0.97200 0.26700
C 	C 	0.91510 0.98140 0.52800 0.26800
C 	C 	0.55690 0.52800 0.51860 0.25800
C 	C 	0.10350 0.97200 0.98140 0.24200
C 	C 	0.07550 0.48140 0.02800 0.26700
C 	C 	0.08490 0.01860 0.47200 0.26800
O 	O 	0.53670 0.35930 0.37870 -0.45900
O 	O 	0.82440 0.44130 0.04310 -0.45700
O 	O 	0.77470 0.14070 0.12130 -0.45700
O 	O 	0.80880 0.05870 0.45690 -0.45700
O 	O 	0.91540 0.62130 0.85930 -0.45600
O 	O 	0.86750 0.95690 0.94130 -0.42800
O 	O 	0.89600 0.87870 0.64070 -0.45700
O 	O 	0.26570 0.54310 0.55870 -0.44900
O 	O 	0.46330 0.64070 0.62130 -0.45900
O 	O 	0.17560 0.55870 0.95690 -0.45700
O 	O 	0.22530 0.85930 0.87870 -0.45700
O 	O 	0.19120 0.94130 0.54310 -0.45700
O 	O 	0.08460 0.37870 0.14070 -0.45600
O 	O 	0.13250 0.04310 0.05870 -0.42800
O 	O 	0.10400 0.12130 0.35930 -0.45700
O 	O 	0.73430 0.45690 0.44130 -0.44900
