data_crystal

_cell_length_a 32.35800
_cell_length_b 11.92300
_cell_length_c 23.46900
_cell_angle_alpha 90.00000
_cell_angle_beta  130.88400
_cell_angle_gamma 90.00000

_symmetry_space_group_name_	'P 1'
_symmetry_space_group_name_H-M	'P 1'

loop_
_symmetry_equiv_pos_as_xyz
  x,y,z

loop_
_atom_site_label
_atom_site_type_symbol
_atom_site_fract_x
_atom_site_fract_y
_atom_site_fract_z
_atom_site_charge
C 	C 	0.14470 0.28420 0.13070 0.11100
H 	H 	0.15770 0.28560 0.17970 -0.04500
C 	C 	0.13590 0.24130 0.03520 0.09600
H 	H 	0.14080 0.20810 0.00420 -0.01200
C 	C 	0.05400 0.36060 0.93810 -0.26500
H 	H 	0.05370 0.32250 0.90140 0.14700
H 	H 	0.06300 0.43870 0.93950 0.08600
C 	C 	0.99610 0.35380 0.91240 0.35800
C 	C 	0.97940 0.23450 0.91510 -0.34300
C 	C 	0.99080 0.13790 0.89620 0.60600
C 	C 	0.97240 0.03250 0.89480 -0.66600
H 	H 	0.98150 0.96960 0.88160 0.30700
C 	C 	0.94110 0.02410 0.91280 0.67900
C 	C 	0.92620 0.11860 0.92950 -0.51700
H 	H 	0.90210 0.11270 0.93820 0.20800
C 	C 	0.94640 0.21900 0.93310 0.25200
C 	C 	0.85780 0.34440 0.75150 0.07500
H 	H 	0.85730 0.28910 0.72310 -0.02400
C 	C 	0.83680 0.45490 0.79780 0.07800
H 	H 	0.81660 0.49260 0.80720 -0.05700
C 	C 	0.95780 0.39640 0.83250 -0.29300
H 	H 	0.95890 0.34640 0.80090 0.13200
H 	H 	0.96980 0.47000 0.83070 0.09500
N 	N 	0.16810 0.22470 0.10870 -0.27600
N 	N 	0.09570 0.31120 0.01150 -0.05700
N 	N 	0.10030 0.34060 0.07270 -0.20300
N 	N 	0.81510 0.37120 0.74460 -0.28900
N 	N 	0.88810 0.47630 0.83360 -0.21000
N 	N 	0.90020 0.40400 0.80220 -0.07200
O 	O 	0.99580 0.42560 0.95990 -0.51300
Cu	Cu	0.24120 0.17354 0.17386 0.79800
Cu	Cu	0.05406 0.45322 0.06657 0.88500
F 	F 	0.02350 0.14330 0.87780 -0.51300
F 	F 	0.92470 0.92060 0.91450 -0.54500
C 	C 	0.35530 0.78420 0.36930 0.11000
H 	H 	0.34230 0.78560 0.32030 -0.04600
C 	C 	0.36410 0.74130 0.46480 0.09500
H 	H 	0.35920 0.70810 0.49580 -0.01300
C 	C 	0.44600 0.86060 0.56190 -0.26600
H 	H 	0.44630 0.82250 0.59860 0.14700
H 	H 	0.43700 0.93870 0.56050 0.08500
C 	C 	0.50390 0.85380 0.58760 0.35800
C 	C 	0.52060 0.73450 0.58490 -0.34400
C 	C 	0.50920 0.63790 0.60380 0.60500
C 	C 	0.52760 0.53250 0.60520 -0.66400
H 	H 	0.51850 0.46960 0.61840 0.30400
C 	C 	0.55890 0.52410 0.58720 0.67900
C 	C 	0.57380 0.61860 0.57050 -0.51900
H 	H 	0.59790 0.61270 0.56180 0.20800
C 	C 	0.55360 0.71900 0.56690 0.25100
C 	C 	0.64220 0.84440 0.74850 0.07500
H 	H 	0.64270 0.78910 0.77690 -0.02400
C 	C 	0.66320 0.95490 0.70220 0.07800
H 	H 	0.68340 0.99260 0.69280 -0.05700
C 	C 	0.54220 0.89640 0.66750 -0.29300
H 	H 	0.54110 0.84640 0.69910 0.13200
H 	H 	0.53020 0.97000 0.66930 0.09600
N 	N 	0.33190 0.72470 0.39130 -0.27700
N 	N 	0.40430 0.81120 0.48850 -0.05800
N 	N 	0.39970 0.84060 0.42730 -0.20300
N 	N 	0.68490 0.87120 0.75540 -0.28900
N 	N 	0.61190 0.97630 0.66640 -0.21000
N 	N 	0.59980 0.90400 0.69780 -0.07100
O 	O 	0.50420 0.92560 0.54010 -0.51300
Cu	Cu	0.25880 0.67354 0.32614 0.79800
Cu	Cu	0.44594 0.95322 0.43343 0.88500
F 	F 	0.47650 0.64330 0.62220 -0.51300
F 	F 	0.57530 0.42060 0.58550 -0.54600
C 	C 	0.85530 0.71580 0.86930 0.11000
H 	H 	0.84230 0.71440 0.82030 -0.04600
C 	C 	0.86410 0.75870 0.96480 0.09500
H 	H 	0.85920 0.79190 0.99580 -0.01300
C 	C 	0.94600 0.63940 0.06190 -0.26600
H 	H 	0.94630 0.67750 0.09860 0.14600
H 	H 	0.93700 0.56130 0.06050 0.08500
C 	C 	0.00390 0.64620 0.08760 0.35700
C 	C 	0.02060 0.76550 0.08490 -0.34400
C 	C 	0.00920 0.86210 0.10380 0.60500
C 	C 	0.02760 0.96750 0.10520 -0.66700
H 	H 	0.01850 0.03040 0.11840 0.30600
C 	C 	0.05890 0.97590 0.08720 0.67800
C 	C 	0.07380 0.88140 0.07050 -0.51800
H 	H 	0.09790 0.88730 0.06180 0.20700
C 	C 	0.05360 0.78100 0.06690 0.25100
C 	C 	0.14220 0.65560 0.24850 0.07500
H 	H 	0.14270 0.71090 0.27690 -0.02400
C 	C 	0.16320 0.54510 0.20220 0.07800
H 	H 	0.18340 0.50740 0.19280 -0.05700
C 	C 	0.04220 0.60360 0.16750 -0.29300
H 	H 	0.04110 0.65360 0.19910 0.13200
H 	H 	0.03020 0.53000 0.16930 0.09500
N 	N 	0.83190 0.77530 0.89130 -0.27600
N 	N 	0.90430 0.68880 0.98850 -0.05700
N 	N 	0.89970 0.65940 0.92730 -0.20300
N 	N 	0.18490 0.62880 0.25540 -0.28900
N 	N 	0.11190 0.52370 0.16640 -0.21000
N 	N 	0.09980 0.59600 0.19780 -0.07200
O 	O 	0.00420 0.57440 0.04010 -0.51300
Cu	Cu	0.75880 0.82646 0.82614 0.79800
Cu	Cu	0.94594 0.54678 0.93343 0.88500
F 	F 	0.97650 0.85670 0.12220 -0.51300
F 	F 	0.07530 0.07940 0.08550 -0.54500
C 	C 	0.64470 0.21580 0.63070 0.11000
H 	H 	0.65770 0.21440 0.67970 -0.04600
C 	C 	0.63590 0.25870 0.53520 0.09500
H 	H 	0.64080 0.29190 0.50420 -0.01300
C 	C 	0.55400 0.13940 0.43810 -0.26600
H 	H 	0.55370 0.17750 0.40140 0.14700
H 	H 	0.56300 0.06130 0.43950 0.08500
C 	C 	0.49610 0.14620 0.41240 0.35800
C 	C 	0.47940 0.26550 0.41510 -0.34400
C 	C 	0.49080 0.36210 0.39620 0.60500
C 	C 	0.47240 0.46750 0.39480 -0.66400
H 	H 	0.48150 0.53040 0.38160 0.30400
C 	C 	0.44110 0.47590 0.41280 0.67900
C 	C 	0.42620 0.38140 0.42950 -0.51900
H 	H 	0.40210 0.38730 0.43820 0.20800
C 	C 	0.44640 0.28100 0.43310 0.25100
C 	C 	0.35780 0.15560 0.25150 0.07500
H 	H 	0.35730 0.21090 0.22310 -0.02400
C 	C 	0.33680 0.04510 0.29780 0.07800
H 	H 	0.31660 0.00740 0.30720 -0.05700
C 	C 	0.45780 0.10360 0.33250 -0.29300
H 	H 	0.45890 0.15360 0.30090 0.13200
H 	H 	0.46980 0.03000 0.33070 0.09600
N 	N 	0.66810 0.27530 0.60870 -0.27700
N 	N 	0.59570 0.18880 0.51150 -0.05800
N 	N 	0.60030 0.15940 0.57270 -0.20300
N 	N 	0.31510 0.12880 0.24460 -0.28900
N 	N 	0.38810 0.02370 0.33360 -0.21000
N 	N 	0.40020 0.09600 0.30220 -0.07100
O 	O 	0.49580 0.07440 0.45990 -0.51300
Cu	Cu	0.74120 0.32646 0.67386 0.79800
Cu	Cu	0.55406 0.04678 0.56657 0.88500
F 	F 	0.52350 0.35670 0.37780 -0.51300
F 	F 	0.42470 0.57940 0.41450 -0.54600
C 	C 	0.64470 0.78420 0.13070 0.11000
H 	H 	0.65770 0.78560 0.17970 -0.04600
C 	C 	0.63590 0.74130 0.03520 0.09500
H 	H 	0.64080 0.70810 0.00420 -0.01400
C 	C 	0.55400 0.86060 0.93810 -0.26500
H 	H 	0.55370 0.82250 0.90140 0.14600
H 	H 	0.56300 0.93870 0.93950 0.08500
C 	C 	0.49610 0.85380 0.91240 0.35700
C 	C 	0.47940 0.73450 0.91510 -0.34400
C 	C 	0.49080 0.63790 0.89620 0.60500
C 	C 	0.47240 0.53250 0.89480 -0.66400
H 	H 	0.48150 0.46960 0.88160 0.30400
C 	C 	0.44110 0.52410 0.91280 0.67900
C 	C 	0.42620 0.61860 0.92950 -0.51900
H 	H 	0.40210 0.61270 0.93820 0.20800
C 	C 	0.44640 0.71900 0.93310 0.25100
C 	C 	0.35780 0.84440 0.75150 0.07500
H 	H 	0.35730 0.78910 0.72310 -0.02400
C 	C 	0.33680 0.95490 0.79780 0.07800
H 	H 	0.31660 0.99260 0.80720 -0.05700
C 	C 	0.45780 0.89640 0.83250 -0.29300
H 	H 	0.45890 0.84640 0.80090 0.13200
H 	H 	0.46980 0.97000 0.83070 0.09600
N 	N 	0.66810 0.72470 0.10870 -0.27700
N 	N 	0.59570 0.81120 0.01150 -0.05800
N 	N 	0.60030 0.84060 0.07270 -0.20400
N 	N 	0.31510 0.87120 0.74460 -0.28900
N 	N 	0.38810 0.97630 0.83360 -0.20900
N 	N 	0.40020 0.90400 0.80220 -0.07200
O 	O 	0.49580 0.92560 0.95990 -0.51200
Cu	Cu	0.74120 0.67354 0.17386 0.79800
Cu	Cu	0.55406 0.95322 0.06657 0.88400
F 	F 	0.52350 0.64330 0.87780 -0.51300
F 	F 	0.42470 0.42060 0.91450 -0.54600
C 	C 	0.85530 0.28420 0.36930 0.11000
H 	H 	0.84230 0.28560 0.32030 -0.04600
C 	C 	0.86410 0.24130 0.46480 0.09500
H 	H 	0.85920 0.20810 0.49580 -0.01300
C 	C 	0.94600 0.36060 0.56190 -0.26600
H 	H 	0.94630 0.32250 0.59860 0.14600
H 	H 	0.93700 0.43870 0.56050 0.08500
C 	C 	0.00390 0.35380 0.58760 0.35700
C 	C 	0.02060 0.23450 0.58490 -0.34400
C 	C 	0.00920 0.13790 0.60380 0.60500
C 	C 	0.02760 0.03250 0.60520 -0.66600
H 	H 	0.01850 0.96960 0.61840 0.30500
C 	C 	0.05890 0.02410 0.58720 0.67900
C 	C 	0.07380 0.11860 0.57050 -0.51900
H 	H 	0.09790 0.11270 0.56180 0.20800
C 	C 	0.05360 0.21900 0.56690 0.25100
C 	C 	0.14220 0.34440 0.74850 0.07500
H 	H 	0.14270 0.28910 0.77690 -0.02400
C 	C 	0.16320 0.45490 0.70220 0.07800
H 	H 	0.18340 0.49260 0.69280 -0.05700
C 	C 	0.04220 0.39640 0.66750 -0.29300
H 	H 	0.04110 0.34640 0.69910 0.13200
H 	H 	0.03020 0.47000 0.66930 0.09600
N 	N 	0.83190 0.22470 0.39130 -0.27600
N 	N 	0.90430 0.31120 0.48850 -0.05800
N 	N 	0.89970 0.34060 0.42730 -0.20300
N 	N 	0.18490 0.37120 0.75540 -0.28900
N 	N 	0.11190 0.47630 0.66640 -0.21000
N 	N 	0.09980 0.40400 0.69780 -0.07200
O 	O 	0.00420 0.42560 0.54010 -0.51300
Cu	Cu	0.75880 0.17354 0.32614 0.79800
Cu	Cu	0.94594 0.45322 0.43343 0.88500
F 	F 	0.97650 0.14330 0.62220 -0.51300
F 	F 	0.07530 0.92060 0.58550 -0.54500
C 	C 	0.35530 0.21580 0.86930 0.11000
H 	H 	0.34230 0.21440 0.82030 -0.04600
C 	C 	0.36410 0.25870 0.96480 0.09500
H 	H 	0.35920 0.29190 0.99580 -0.01400
C 	C 	0.44600 0.13940 0.06190 -0.26500
H 	H 	0.44630 0.17750 0.09860 0.14600
H 	H 	0.43700 0.06130 0.06050 0.08500
C 	C 	0.50390 0.14620 0.08760 0.35700
C 	C 	0.52060 0.26550 0.08490 -0.34400
C 	C 	0.50920 0.36210 0.10380 0.60500
C 	C 	0.52760 0.46750 0.10520 -0.66400
H 	H 	0.51850 0.53040 0.11840 0.30400
C 	C 	0.55890 0.47590 0.08720 0.67900
C 	C 	0.57380 0.38140 0.07050 -0.51900
H 	H 	0.59790 0.38730 0.06180 0.20800
C 	C 	0.55360 0.28100 0.06690 0.25100
C 	C 	0.64220 0.15560 0.24850 0.07500
H 	H 	0.64270 0.21090 0.27690 -0.02400
C 	C 	0.66320 0.04510 0.20220 0.07800
H 	H 	0.68340 0.00740 0.19280 -0.05700
C 	C 	0.54220 0.10360 0.16750 -0.29300
H 	H 	0.54110 0.15360 0.19910 0.13200
H 	H 	0.53020 0.03000 0.16930 0.09600
N 	N 	0.33190 0.27530 0.89130 -0.27700
N 	N 	0.40430 0.18880 0.98850 -0.05800
N 	N 	0.39970 0.15940 0.92730 -0.20400
N 	N 	0.68490 0.12880 0.25540 -0.28900
N 	N 	0.61190 0.02370 0.16640 -0.20900
N 	N 	0.59980 0.09600 0.19780 -0.07200
O 	O 	0.50420 0.07440 0.04010 -0.51200
Cu	Cu	0.25880 0.32646 0.82614 0.79800
Cu	Cu	0.44594 0.04678 0.93343 0.88400
F 	F 	0.47650 0.35670 0.12220 -0.51300
F 	F 	0.57530 0.57940 0.08550 -0.54600
C 	C 	0.14470 0.71580 0.63070 0.11000
H 	H 	0.15770 0.71440 0.67970 -0.04600
C 	C 	0.13590 0.75870 0.53520 0.09500
H 	H 	0.14080 0.79190 0.50420 -0.01300
C 	C 	0.05400 0.63940 0.43810 -0.26600
H 	H 	0.05370 0.67750 0.40140 0.14600
H 	H 	0.06300 0.56130 0.43950 0.08500
C 	C 	0.99610 0.64620 0.41240 0.35700
C 	C 	0.97940 0.76550 0.41510 -0.34400
C 	C 	0.99080 0.86210 0.39620 0.60500
C 	C 	0.97240 0.96750 0.39480 -0.66600
H 	H 	0.98150 0.03040 0.38160 0.30500
C 	C 	0.94110 0.97590 0.41280 0.67900
C 	C 	0.92620 0.88140 0.42950 -0.51900
H 	H 	0.90210 0.88730 0.43820 0.20800
C 	C 	0.94640 0.78100 0.43310 0.25100
C 	C 	0.85780 0.65560 0.25150 0.07500
H 	H 	0.85730 0.71090 0.22310 -0.02400
C 	C 	0.83680 0.54510 0.29780 0.07800
H 	H 	0.81660 0.50740 0.30720 -0.05700
C 	C 	0.95780 0.60360 0.33250 -0.29300
H 	H 	0.95890 0.65360 0.30090 0.13200
H 	H 	0.96980 0.53000 0.33070 0.09600
N 	N 	0.16810 0.77530 0.60870 -0.27600
N 	N 	0.09570 0.68880 0.51150 -0.05800
N 	N 	0.10030 0.65940 0.57270 -0.20300
N 	N 	0.81510 0.62880 0.24460 -0.28900
N 	N 	0.88810 0.52370 0.33360 -0.21000
N 	N 	0.90020 0.59600 0.30220 -0.07200
O 	O 	0.99580 0.57440 0.45990 -0.51300
Cu	Cu	0.24120 0.82646 0.67386 0.79800
Cu	Cu	0.05406 0.54678 0.56657 0.88500
F 	F 	0.02350 0.85670 0.37780 -0.51300
F 	F 	0.92470 0.07940 0.41450 -0.54500
