data_crystal

_cell_length_a 10.17600
_cell_length_b 11.71900
_cell_length_c 18.44800
_cell_angle_alpha 90.00000
_cell_angle_beta  90.00000
_cell_angle_gamma 104.38900

_symmetry_space_group_name_	'P 1'
_symmetry_space_group_name_H-M	'P 1'

loop_
_symmetry_equiv_pos_as_xyz
  x,y,z

loop_
_atom_site_label
_atom_site_type_symbol
_atom_site_fract_x
_atom_site_fract_y
_atom_site_fract_z
_atom_site_charge
Cd	Cd	0.24962 0.44935 0.14636 1.21800
Cd	Cd	0.75038 0.55065 0.64636 1.21800
H 	H 	0.07660 0.30000 0.68160 0.04100
H 	H 	0.07810 0.42380 0.71440 0.04400
H 	H 	0.06990 0.22180 0.79430 0.05100
H 	H 	0.94710 0.27820 0.78290 0.04700
H 	H 	0.40720 0.70580 0.19560 0.01000
H 	H 	0.41850 0.90080 0.19020 0.07800
H 	H 	0.07250 0.81950 0.07130 0.08500
H 	H 	0.07920 0.62700 0.08110 -0.00500
H 	H 	0.31630 0.24890 0.23340 -0.00100
H 	H 	0.33830 0.05310 0.23100 0.07300
H 	H 	0.15440 0.01760 0.03670 0.08700
H 	H 	0.14880 0.21240 0.04160 0.00500
H 	H 	0.59490 0.17820 0.50810 0.01800
H 	H 	0.78590 0.23680 0.43900 0.07900
H 	H 	0.54900 0.22900 0.26490 0.07900
H 	H 	0.36400 0.18640 0.34330 0.01300
H 	H 	0.92900 0.38430 0.37390 0.09200
H 	H 	0.11430 0.45440 0.30160 0.01700
H 	H 	0.92600 0.28310 0.13590 -0.00300
H 	H 	0.73700 0.21400 0.20550 0.08500
H 	H 	0.92340 0.70000 0.18160 0.04300
H 	H 	0.92190 0.57620 0.21440 0.04600
H 	H 	0.93010 0.77820 0.29430 0.05400
H 	H 	0.05290 0.72180 0.28290 0.04800
H 	H 	0.59280 0.29420 0.69560 0.00900
H 	H 	0.58150 0.09920 0.69020 0.07500
H 	H 	0.92750 0.18050 0.57130 0.08000
H 	H 	0.92080 0.37300 0.58110 -0.00700
H 	H 	0.68370 0.75110 0.73340 -0.00200
H 	H 	0.66170 0.94690 0.73100 0.07300
H 	H 	0.84560 0.98240 0.53670 0.08300
H 	H 	0.85120 0.78760 0.54160 -0.00000
H 	H 	0.40510 0.82180 0.00810 0.05700
H 	H 	0.21410 0.76320 0.93900 0.05700
H 	H 	0.45100 0.77100 0.76490 0.07300
H 	H 	0.63600 0.81360 0.84330 0.01400
H 	H 	0.07100 0.61570 0.87390 0.09100
H 	H 	0.88570 0.54560 0.80160 0.01400
H 	H 	0.07400 0.71690 0.63590 -0.00600
H 	H 	0.26300 0.78600 0.70550 0.08600
C 	C 	0.55180 0.50030 0.75520 0.37100
C 	C 	0.43610 0.46630 0.80510 -0.14100
C 	C 	0.30070 0.41940 0.79190 0.12600
C 	C 	0.10710 0.35200 0.72240 0.00000
C 	C 	0.04500 0.29590 0.78810 -0.02100
C 	C 	0.22100 0.40930 0.85870 0.12300
C 	C 	0.29000 0.44980 0.91480 -0.13200
C 	C 	0.25720 0.45450 0.99200 0.28100
C 	C 	0.33850 0.72990 0.17150 0.06300
C 	C 	0.34580 0.84710 0.16900 -0.12400
C 	C 	0.24220 0.88660 0.13390 0.05100
C 	C 	0.14060 0.79910 0.09820 -0.14100
C 	C 	0.14640 0.68290 0.10480 0.09200
C 	C 	0.28770 0.20200 0.19290 0.05300
C 	C 	0.29830 0.08360 0.19270 -0.12000
C 	C 	0.24580 0.01390 0.13220 0.06000
C 	C 	0.19030 0.06300 0.07670 -0.13900
C 	C 	0.18730 0.18080 0.08000 0.09500
C 	C 	0.58580 0.19110 0.45880 0.07800
C 	C 	0.70110 0.22620 0.41740 -0.13100
C 	C 	0.69170 0.24550 0.34560 0.05700
C 	C 	0.56110 0.22360 0.31460 -0.13000
C 	C 	0.45040 0.19340 0.36220 0.08000
C 	C 	0.81210 0.28860 0.29730 0.07000
C 	C 	0.92620 0.36270 0.32530 -0.13200
C 	C 	0.03690 0.40550 0.28130 0.07200
C 	C 	0.92710 0.30600 0.18420 0.08600
C 	C 	0.81390 0.26250 0.22650 -0.14100
C 	C 	0.44820 0.49970 0.25520 0.37100
C 	C 	0.56390 0.53370 0.30510 -0.14200
C 	C 	0.69930 0.58060 0.29190 0.12400
C 	C 	0.89290 0.64800 0.22240 -0.00100
C 	C 	0.95500 0.70410 0.28810 -0.02100
C 	C 	0.77900 0.59070 0.35870 0.13500
C 	C 	0.71000 0.55020 0.41480 -0.15000
C 	C 	0.74280 0.54550 0.49200 0.34500
C 	C 	0.66150 0.27010 0.67150 0.06000
C 	C 	0.65420 0.15290 0.66900 -0.12300
C 	C 	0.75780 0.11340 0.63390 0.04700
C 	C 	0.85940 0.20090 0.59820 -0.14000
C 	C 	0.85360 0.31710 0.60480 0.08900
C 	C 	0.71230 0.79800 0.69290 0.05200
C 	C 	0.70170 0.91640 0.69270 -0.12100
C 	C 	0.75420 0.98610 0.63220 0.06100
C 	C 	0.80970 0.93700 0.57670 -0.14200
C 	C 	0.81270 0.81920 0.58000 0.09400
C 	C 	0.41420 0.80890 0.95880 0.01300
C 	C 	0.29890 0.77380 0.91740 -0.09200
C 	C 	0.30830 0.75450 0.84560 0.03400
C 	C 	0.43890 0.77640 0.81460 -0.11500
C 	C 	0.54960 0.80660 0.86220 0.06900
C 	C 	0.18790 0.71140 0.79730 0.08100
C 	C 	0.07380 0.63730 0.82530 -0.14000
C 	C 	0.96310 0.59450 0.78130 0.07600
C 	C 	0.07290 0.69400 0.68420 0.08900
C 	C 	0.18610 0.73750 0.72650 -0.14900
S 	S 	0.46418 0.49753 0.89668 0.09000
S 	S 	0.53582 0.50247 0.39668 0.10500
N 	N 	0.23540 0.64390 0.14040 -0.23200
N 	N 	0.23600 0.24860 0.13430 -0.22600
N 	N 	0.46120 0.17460 0.43120 -0.12900
N 	N 	0.03790 0.37990 0.21080 -0.22600
N 	N 	0.76460 0.35610 0.64040 -0.23200
N 	N 	0.76400 0.75140 0.63430 -0.22700
N 	N 	0.53880 0.82540 0.93120 -0.12100
N 	N 	0.96210 0.62010 0.71080 -0.22800
O 	O 	0.66890 0.52640 0.77890 -0.36700
O 	O 	0.53010 0.50190 0.69000 -0.38200
O 	O 	0.34960 0.47180 0.03790 -0.36000
O 	O 	0.13330 0.43320 0.01200 -0.28800
O 	O 	0.25120 0.37950 0.72600 -0.18500
O 	O 	0.08380 0.36700 0.85280 -0.19000
O 	O 	0.33110 0.47360 0.27890 -0.36600
O 	O 	0.46990 0.49810 0.19000 -0.38100
O 	O 	0.65040 0.52820 0.53790 -0.39400
O 	O 	0.86670 0.56680 0.51200 -0.32100
O 	O 	0.74880 0.62050 0.22600 -0.18200
O 	O 	0.91620 0.63300 0.35280 -0.18700
