data_crystal

_cell_length_a 17.16250
_cell_length_b 15.83560
_cell_length_c 15.67120
_cell_angle_alpha 90.00000
_cell_angle_beta  90.00000
_cell_angle_gamma 90.00000

_symmetry_space_group_name_	'P 1'
_symmetry_space_group_name_H-M	'P 1'

loop_
_symmetry_equiv_pos_as_xyz
  x,y,z

loop_
_atom_site_label
_atom_site_type_symbol
_atom_site_fract_x
_atom_site_fract_y
_atom_site_fract_z
_atom_site_charge
Tb	Tb	0.59614 0.95391 0.95706 1.97200
O 	O 	0.64740 0.09880 0.94810 -0.41700
O 	O 	0.52960 0.08610 0.99820 -0.58100
O 	O 	0.59770 0.79880 0.00240 -0.33900
O 	O 	0.55240 0.82210 0.87490 -0.34500
O 	O 	0.73310 0.93000 0.97330 -0.40400
O 	O 	0.69140 0.94600 0.84170 -0.38600
O 	O 	0.60170 0.96570 0.10930 -0.47100
C 	C 	0.74570 0.93360 0.89410 0.33600
C 	C 	0.82880 0.92780 0.86290 -0.12800
C 	C 	0.88640 0.89410 0.91750 0.08600
C 	C 	0.84780 0.95260 0.78140 0.13200
C 	C 	0.96320 0.89020 0.88940 -0.06100
C 	C 	0.92380 0.95010 0.75450 -0.17400
C 	C 	0.02450 0.84960 0.94570 0.03900
C 	C 	0.98250 0.91980 0.80990 0.08900
C 	C 	0.94950 0.97370 0.66540 0.48400
C 	C 	0.08830 0.89790 0.97200 0.00200
C 	C 	0.02180 0.76540 0.96400 -0.01700
O 	O 	0.01730 0.00040 0.65570 -0.48200
C 	C 	0.14670 0.86060 0.02060 0.00900
C 	C 	0.08400 0.72550 0.00920 -0.10700
C 	C 	0.95030 0.71180 0.94430 0.27200
C 	C 	0.14350 0.77490 0.03740 0.05600
C 	C 	0.08850 0.63250 0.02360 0.41700
Tb	Tb	0.90386 0.54609 0.95706 1.98700
O 	O 	0.85260 0.40120 0.94810 -0.42200
O 	O 	0.97040 0.41390 0.99820 -0.58800
O 	O 	0.90230 0.70120 0.00240 -0.33600
O 	O 	0.94760 0.67790 0.87490 -0.34300
O 	O 	0.76690 0.57000 0.97330 -0.40100
O 	O 	0.80860 0.55400 0.84170 -0.38500
O 	O 	0.89830 0.53430 0.10930 -0.47200
C 	C 	0.75430 0.56640 0.89410 0.33700
C 	C 	0.67120 0.57220 0.86290 -0.12700
C 	C 	0.61360 0.60590 0.91750 0.08700
C 	C 	0.65220 0.54740 0.78140 0.13400
C 	C 	0.53680 0.60980 0.88940 -0.05500
C 	C 	0.57620 0.54990 0.75450 -0.17500
C 	C 	0.47550 0.65040 0.94570 0.03400
C 	C 	0.51750 0.58020 0.80990 0.09300
C 	C 	0.55050 0.52630 0.66540 0.49100
C 	C 	0.41170 0.60210 0.97200 0.00400
C 	C 	0.47820 0.73460 0.96400 -0.02600
O 	O 	0.48270 0.49960 0.65570 -0.48600
C 	C 	0.35330 0.63940 0.02060 0.00400
C 	C 	0.41600 0.77450 0.00920 -0.10100
C 	C 	0.54970 0.78820 0.94430 0.27900
C 	C 	0.35650 0.72510 0.03740 0.05500
C 	C 	0.41150 0.86750 0.02360 0.41400
Tb	Tb	0.40386 0.45391 0.54294 1.99400
O 	O 	0.35260 0.59880 0.55190 -0.42300
O 	O 	0.47040 0.58610 0.50180 -0.58900
O 	O 	0.40230 0.29880 0.49760 -0.34700
O 	O 	0.44760 0.32210 0.62510 -0.34600
O 	O 	0.26690 0.43000 0.52670 -0.40000
O 	O 	0.30860 0.44600 0.65830 -0.38500
O 	O 	0.39830 0.46570 0.39070 -0.47400
C 	C 	0.25430 0.43360 0.60590 0.33700
C 	C 	0.17120 0.42780 0.63710 -0.12700
C 	C 	0.11360 0.39410 0.58250 0.08800
C 	C 	0.15220 0.45260 0.71860 0.13500
C 	C 	0.03680 0.39020 0.61060 -0.05600
C 	C 	0.07620 0.45010 0.74550 -0.17500
C 	C 	0.97550 0.34960 0.55430 0.03300
C 	C 	0.01750 0.41980 0.69010 0.09400
C 	C 	0.05050 0.47370 0.83460 0.49400
C 	C 	0.91170 0.39790 0.52800 0.00500
C 	C 	0.97820 0.26540 0.53600 -0.01900
O 	O 	0.98270 0.50040 0.84430 -0.48800
C 	C 	0.85330 0.36060 0.47940 0.00100
C 	C 	0.91600 0.22550 0.49080 -0.10700
C 	C 	0.04970 0.21180 0.55570 0.28400
C 	C 	0.85650 0.27490 0.46260 0.05700
C 	C 	0.91150 0.13250 0.47640 0.41700
Tb	Tb	0.09614 0.04609 0.54294 1.98800
O 	O 	0.14740 0.90120 0.55190 -0.42100
O 	O 	0.02960 0.91390 0.50180 -0.58500
O 	O 	0.09770 0.20120 0.49760 -0.34700
O 	O 	0.05240 0.17790 0.62510 -0.34500
O 	O 	0.23310 0.07000 0.52670 -0.40000
O 	O 	0.19140 0.05400 0.65830 -0.38400
O 	O 	0.10170 0.03430 0.39070 -0.47300
C 	C 	0.24570 0.06640 0.60590 0.33700
C 	C 	0.32880 0.07220 0.63710 -0.12800
C 	C 	0.38640 0.10590 0.58250 0.08800
C 	C 	0.34780 0.04740 0.71860 0.13600
C 	C 	0.46320 0.10980 0.61060 -0.05600
C 	C 	0.42380 0.04990 0.74550 -0.17600
C 	C 	0.52450 0.15040 0.55430 0.03400
C 	C 	0.48250 0.08020 0.69010 0.09500
C 	C 	0.44950 0.02630 0.83460 0.49700
C 	C 	0.58830 0.10210 0.52800 0.00600
C 	C 	0.52180 0.23460 0.53600 -0.02200
O 	O 	0.51730 0.99960 0.84430 -0.49100
C 	C 	0.64670 0.13940 0.47940 0.00200
C 	C 	0.58400 0.27450 0.49080 -0.10700
C 	C 	0.45030 0.28820 0.55570 0.28700
C 	C 	0.64350 0.22510 0.46260 0.05700
C 	C 	0.58850 0.36750 0.47640 0.41700
Tb	Tb	0.40386 0.04609 0.04294 1.97300
O 	O 	0.35260 0.90120 0.05190 -0.41600
O 	O 	0.47040 0.91390 0.00180 -0.58000
O 	O 	0.40230 0.20120 0.99760 -0.33800
O 	O 	0.44760 0.17790 0.12510 -0.34400
O 	O 	0.26690 0.07000 0.02670 -0.40300
O 	O 	0.30860 0.05400 0.15830 -0.38500
O 	O 	0.39830 0.03430 0.89070 -0.47000
C 	C 	0.25430 0.06640 0.10590 0.33600
C 	C 	0.17120 0.07220 0.13710 -0.12800
C 	C 	0.11360 0.10590 0.08250 0.08600
C 	C 	0.15220 0.04740 0.21860 0.13200
C 	C 	0.03680 0.10980 0.11060 -0.06100
C 	C 	0.07620 0.04990 0.24550 -0.17400
C 	C 	0.97550 0.15040 0.05430 0.03900
C 	C 	0.01750 0.08020 0.19010 0.08900
C 	C 	0.05050 0.02630 0.33460 0.48400
C 	C 	0.91170 0.10210 0.02800 0.00200
C 	C 	0.97820 0.23460 0.03600 -0.01700
O 	O 	0.98270 0.99960 0.34430 -0.48200
C 	C 	0.85330 0.13940 0.97940 0.00900
C 	C 	0.91600 0.27450 0.99080 -0.10700
C 	C 	0.04970 0.28820 0.05570 0.27200
C 	C 	0.85650 0.22510 0.96260 0.05600
C 	C 	0.91150 0.36750 0.97640 0.41700
Tb	Tb	0.09614 0.45391 0.04294 1.98700
O 	O 	0.14740 0.59880 0.05190 -0.42200
O 	O 	0.02960 0.58610 0.00180 -0.58800
O 	O 	0.09770 0.29880 0.99760 -0.33600
O 	O 	0.05240 0.32210 0.12510 -0.34300
O 	O 	0.23310 0.43000 0.02670 -0.40100
O 	O 	0.19140 0.44600 0.15830 -0.38500
O 	O 	0.10170 0.46570 0.89070 -0.47200
C 	C 	0.24570 0.43360 0.10590 0.33700
C 	C 	0.32880 0.42780 0.13710 -0.12700
C 	C 	0.38640 0.39410 0.08250 0.08700
C 	C 	0.34780 0.45260 0.21860 0.13400
C 	C 	0.46320 0.39020 0.11060 -0.05500
C 	C 	0.42380 0.45010 0.24550 -0.17500
C 	C 	0.52450 0.34960 0.05430 0.03400
C 	C 	0.48250 0.41980 0.19010 0.09300
C 	C 	0.44950 0.47370 0.33460 0.49100
C 	C 	0.58830 0.39790 0.02800 0.00400
C 	C 	0.52180 0.26540 0.03600 -0.02600
O 	O 	0.51730 0.50040 0.34430 -0.48600
C 	C 	0.64670 0.36060 0.97940 0.00400
C 	C 	0.58400 0.22550 0.99080 -0.10100
C 	C 	0.45030 0.21180 0.05570 0.27900
C 	C 	0.64350 0.27490 0.96260 0.05500
C 	C 	0.58850 0.13250 0.97640 0.41400
Tb	Tb	0.59614 0.54609 0.45706 1.99400
O 	O 	0.64740 0.40120 0.44810 -0.42300
O 	O 	0.52960 0.41390 0.49820 -0.58900
O 	O 	0.59770 0.70120 0.50240 -0.34700
O 	O 	0.55240 0.67790 0.37490 -0.34600
O 	O 	0.73310 0.57000 0.47330 -0.40000
O 	O 	0.69140 0.55400 0.34170 -0.38500
O 	O 	0.60170 0.53430 0.60930 -0.47400
C 	C 	0.74570 0.56640 0.39410 0.33700
C 	C 	0.82880 0.57220 0.36290 -0.12700
C 	C 	0.88640 0.60590 0.41750 0.08800
C 	C 	0.84780 0.54740 0.28140 0.13500
C 	C 	0.96320 0.60980 0.38940 -0.05600
C 	C 	0.92380 0.54990 0.25450 -0.17500
C 	C 	0.02450 0.65040 0.44570 0.03300
C 	C 	0.98250 0.58020 0.30990 0.09400
C 	C 	0.94950 0.52630 0.16540 0.49400
C 	C 	0.08830 0.60210 0.47200 0.00500
C 	C 	0.02180 0.73460 0.46400 -0.01900
O 	O 	0.01730 0.49960 0.15570 -0.48800
C 	C 	0.14670 0.63940 0.52060 0.00100
C 	C 	0.08400 0.77450 0.50920 -0.10700
C 	C 	0.95030 0.78820 0.44430 0.28400
C 	C 	0.14350 0.72510 0.53740 0.05700
C 	C 	0.08850 0.86750 0.52360 0.41700
Tb	Tb	0.90386 0.95391 0.45706 1.98800
O 	O 	0.85260 0.09880 0.44810 -0.42100
O 	O 	0.97040 0.08610 0.49820 -0.58500
O 	O 	0.90230 0.79880 0.50240 -0.34700
O 	O 	0.94760 0.82210 0.37490 -0.34500
O 	O 	0.76690 0.93000 0.47330 -0.40000
O 	O 	0.80860 0.94600 0.34170 -0.38400
O 	O 	0.89830 0.96570 0.60930 -0.47300
C 	C 	0.75430 0.93360 0.39410 0.33700
C 	C 	0.67120 0.92780 0.36290 -0.12800
C 	C 	0.61360 0.89410 0.41750 0.08800
C 	C 	0.65220 0.95260 0.28140 0.13600
C 	C 	0.53680 0.89020 0.38940 -0.05600
C 	C 	0.57620 0.95010 0.25450 -0.17600
C 	C 	0.47550 0.84960 0.44570 0.03400
C 	C 	0.51750 0.91980 0.30990 0.09500
C 	C 	0.55050 0.97370 0.16540 0.49700
C 	C 	0.41170 0.89790 0.47200 0.00600
C 	C 	0.47820 0.76540 0.46400 -0.02200
O 	O 	0.48270 0.00040 0.15570 -0.49100
C 	C 	0.35330 0.86060 0.52060 0.00200
C 	C 	0.41600 0.72550 0.50920 -0.10700
C 	C 	0.54970 0.71180 0.44430 0.28700
C 	C 	0.35650 0.77490 0.53740 0.05700
C 	C 	0.41150 0.63250 0.52360 0.41700
