data_crystal

_cell_length_a 12.38900
_cell_length_b 14.92300
_cell_length_c 9.38600
_cell_angle_alpha 90.00000
_cell_angle_beta  98.69900
_cell_angle_gamma 90.00000

_symmetry_space_group_name_	'P 1'
_symmetry_space_group_name_H-M	'P 1'

loop_
_symmetry_equiv_pos_as_xyz
  x,y,z

loop_
_atom_site_label
_atom_site_type_symbol
_atom_site_fract_x
_atom_site_fract_y
_atom_site_fract_z
_atom_site_charge
P 	P 	0.19303 0.17320 0.87670 0.75400
P 	P 	0.15605 0.81553 0.78720 0.73700
P 	P 	0.52999 0.17600 0.29650 0.80900
P 	P 	0.24592 0.96490 0.17220 0.73000
Al	Al	0.27376 0.16899 0.20350 2.39600
Al	Al	0.05654 0.66957 0.56040 2.39700
Al	Al	0.35496 0.81160 0.37380 2.39600
Mg	Mg	0.32330 0.98471 0.84140 1.46500
O 	O 	0.22390 0.06080 0.22410 -0.73400
O 	O 	0.06060 0.82260 0.87610 -0.75900
O 	O 	0.11260 0.76600 0.64730 -0.76800
O 	O 	0.26810 0.19280 0.02020 -0.81200
O 	O 	0.31130 0.96290 0.05030 -0.60500
O 	O 	0.19300 0.90800 0.74950 -0.49400
O 	O 	0.40740 0.17660 0.29140 -0.79800
O 	O 	0.24460 0.76130 0.87870 -0.83500
O 	O 	0.56090 0.26930 0.24320 -0.81600
O 	O 	0.19000 0.25940 0.78410 -0.75600
O 	O 	0.07610 0.15630 0.90910 -0.77900
O 	O 	0.30290 0.91520 0.30570 -0.76800
O 	O 	0.12950 0.92320 0.13380 -0.76900
O 	O 	0.23060 0.09410 0.79760 -0.54600
O 	O 	0.58060 0.16840 0.45410 -0.81800
O 	O 	0.56820 0.10220 0.20760 -0.62500
P 	P 	0.80697 0.67320 0.62330 0.75100
P 	P 	0.84395 0.31553 0.71280 0.73700
P 	P 	0.47001 0.67600 0.20350 0.80900
P 	P 	0.75408 0.46490 0.32780 0.73300
Al	Al	0.72624 0.66899 0.29650 2.39600
Al	Al	0.94346 0.16957 0.93960 2.39600
Al	Al	0.64504 0.31160 0.12620 2.39600
Mg	Mg	0.67670 0.48471 0.65860 1.46600
O 	O 	0.77610 0.56080 0.27590 -0.73600
O 	O 	0.93940 0.32260 0.62390 -0.76000
O 	O 	0.88740 0.26600 0.85270 -0.77000
O 	O 	0.73190 0.69280 0.47980 -0.80800
O 	O 	0.68870 0.46290 0.44970 -0.60400
O 	O 	0.80700 0.40800 0.75050 -0.49200
O 	O 	0.59260 0.67660 0.20860 -0.79800
O 	O 	0.75540 0.26130 0.62130 -0.83500
O 	O 	0.43910 0.76930 0.25680 -0.81500
O 	O 	0.81000 0.75940 0.71590 -0.75700
O 	O 	0.92390 0.65630 0.59090 -0.78500
O 	O 	0.69710 0.41520 0.19430 -0.76700
O 	O 	0.87050 0.42320 0.36620 -0.76500
O 	O 	0.76940 0.59410 0.70240 -0.55100
O 	O 	0.41940 0.66840 0.04590 -0.81800
O 	O 	0.43180 0.60220 0.29240 -0.62500
P 	P 	0.80697 0.82680 0.12330 0.75400
P 	P 	0.84395 0.18447 0.21280 0.73700
P 	P 	0.47001 0.82400 0.70350 0.80900
P 	P 	0.75408 0.03510 0.82780 0.73000
Al	Al	0.72624 0.83101 0.79650 2.39600
Al	Al	0.94346 0.33043 0.43960 2.39700
Al	Al	0.64504 0.18840 0.62620 2.39600
Mg	Mg	0.67670 0.01529 0.15860 1.46500
O 	O 	0.77610 0.93920 0.77590 -0.73400
O 	O 	0.93940 0.17740 0.12390 -0.75900
O 	O 	0.88740 0.23400 0.35270 -0.76800
O 	O 	0.73190 0.80720 0.97980 -0.81200
O 	O 	0.68870 0.03710 0.94970 -0.60500
O 	O 	0.80700 0.09200 0.25050 -0.49400
O 	O 	0.59260 0.82340 0.70860 -0.79800
O 	O 	0.75540 0.23870 0.12130 -0.83500
O 	O 	0.43910 0.73070 0.75680 -0.81600
O 	O 	0.81000 0.74060 0.21590 -0.75600
O 	O 	0.92390 0.84370 0.09090 -0.77900
O 	O 	0.69710 0.08480 0.69430 -0.76800
O 	O 	0.87050 0.07680 0.86620 -0.76900
O 	O 	0.76940 0.90590 0.20240 -0.54600
O 	O 	0.41940 0.83160 0.54590 -0.81800
O 	O 	0.43180 0.89780 0.79240 -0.62500
P 	P 	0.19303 0.32680 0.37670 0.75100
P 	P 	0.15605 0.68447 0.28720 0.73700
P 	P 	0.52999 0.32400 0.79650 0.80900
P 	P 	0.24592 0.53510 0.67220 0.73300
Al	Al	0.27376 0.33101 0.70350 2.39600
Al	Al	0.05654 0.83043 0.06040 2.39600
Al	Al	0.35496 0.68840 0.87380 2.39600
Mg	Mg	0.32330 0.51529 0.34140 1.46600
O 	O 	0.22390 0.43920 0.72410 -0.73600
O 	O 	0.06060 0.67740 0.37610 -0.76000
O 	O 	0.11260 0.73400 0.14730 -0.77000
O 	O 	0.26810 0.30720 0.52020 -0.80800
O 	O 	0.31130 0.53710 0.55030 -0.60400
O 	O 	0.19300 0.59200 0.24950 -0.49200
O 	O 	0.40740 0.32340 0.79140 -0.79800
O 	O 	0.24460 0.73870 0.37870 -0.83500
O 	O 	0.56090 0.23070 0.74320 -0.81500
O 	O 	0.19000 0.24060 0.28410 -0.75700
O 	O 	0.07610 0.34370 0.40910 -0.78500
O 	O 	0.30290 0.58480 0.80570 -0.76700
O 	O 	0.12950 0.57680 0.63380 -0.76500
O 	O 	0.23060 0.40590 0.29760 -0.55100
O 	O 	0.58060 0.33160 0.95410 -0.81800
O 	O 	0.56820 0.39780 0.70760 -0.62500
