data_crystal

_cell_length_a 7.59990
_cell_length_b 21.09200
_cell_length_c 19.51500
_cell_angle_alpha 90.00000
_cell_angle_beta  98.30500
_cell_angle_gamma 90.00000

_symmetry_space_group_name_	'P 1'
_symmetry_space_group_name_H-M	'P 1'

loop_
_symmetry_equiv_pos_as_xyz
  x,y,z

loop_
_atom_site_label
_atom_site_type_symbol
_atom_site_fract_x
_atom_site_fract_y
_atom_site_fract_z
_atom_site_charge
Nd	Nd	0.98859 0.72359 0.75539 2.23600
O 	O 	0.82930 0.67380 0.64790 -0.46300
O 	O 	0.70020 0.76090 0.67500 -0.61600
C 	C 	0.71750 0.71610 0.63220 0.44300
C 	C 	0.60220 0.71580 0.56430 -0.16100
C 	C 	0.55210 0.65840 0.53220 0.09900
C 	C 	0.54880 0.77280 0.53240 0.10400
N 	N 	0.59900 0.82640 0.55400 -0.09000
O 	O 	0.31460 0.71050 0.82250 -0.63200
O 	O 	0.09090 0.68300 0.87370 -0.46200
C 	C 	0.25430 0.69010 0.87580 0.44600
C 	C 	0.37810 0.67800 0.93890 -0.13600
C 	C 	0.31730 0.67480 0.00330 0.11800
C 	C 	0.55890 0.67550 0.93770 -0.02100
H 	H 	0.59930 0.67430 0.89490 0.04400
O 	O 	0.23450 0.83330 0.78600 -0.57800
O 	O 	0.98290 0.83740 0.71790 -0.47200
C 	C 	0.11370 0.86460 0.75190 0.47200
C 	C 	0.12120 0.93490 0.75070 -0.17800
C 	C 	0.00440 0.96760 0.70250 0.10300
C 	C 	0.24250 0.96670 0.79740 0.08900
N 	N 	0.36300 0.94270 0.84970 -0.09700
N 	N 	0.14670 0.66090 0.00950 -0.08100
N 	N 	0.63600 0.59910 0.55190 -0.06700
N 	N 	0.87700 0.93970 0.66040 -0.08800
Nd	Nd	0.48859 0.22359 0.75539 2.24200
O 	O 	0.32930 0.17380 0.64790 -0.46400
O 	O 	0.20020 0.26090 0.67500 -0.61600
C 	C 	0.21750 0.21610 0.63220 0.44200
C 	C 	0.10220 0.21580 0.56430 -0.16100
C 	C 	0.05210 0.15840 0.53220 0.09700
C 	C 	0.04880 0.27280 0.53240 0.10300
N 	N 	0.09900 0.32640 0.55400 -0.09100
O 	O 	0.81460 0.21050 0.82250 -0.63500
O 	O 	0.59090 0.18300 0.87370 -0.46700
C 	C 	0.75430 0.19010 0.87580 0.44600
C 	C 	0.87810 0.17800 0.93890 -0.14300
C 	C 	0.81730 0.17480 0.00330 0.11900
C 	C 	0.05890 0.17550 0.93770 -0.01800
H 	H 	0.09930 0.17430 0.89490 0.04300
O 	O 	0.73450 0.33330 0.78600 -0.57800
O 	O 	0.48290 0.33740 0.71790 -0.46900
C 	C 	0.61370 0.36460 0.75190 0.46700
C 	C 	0.62120 0.43490 0.75070 -0.17700
C 	C 	0.50440 0.46760 0.70250 0.10200
C 	C 	0.74250 0.46670 0.79740 0.08900
N 	N 	0.86300 0.44270 0.84970 -0.09700
N 	N 	0.64670 0.16090 0.00950 -0.08100
N 	N 	0.13600 0.09910 0.55190 -0.06700
N 	N 	0.37700 0.43970 0.66040 -0.08600
Nd	Nd	0.01141 0.72359 0.24461 2.23500
O 	O 	0.17070 0.67380 0.35210 -0.46400
O 	O 	0.29980 0.76090 0.32500 -0.61700
C 	C 	0.28250 0.71610 0.36780 0.44200
C 	C 	0.39780 0.71580 0.43570 -0.16200
C 	C 	0.44790 0.65840 0.46780 0.09800
C 	C 	0.45120 0.77280 0.46760 0.10300
N 	N 	0.40100 0.82640 0.44600 -0.09100
O 	O 	0.68540 0.71050 0.17750 -0.63300
O 	O 	0.90910 0.68300 0.12630 -0.46300
C 	C 	0.74570 0.69010 0.12420 0.44500
C 	C 	0.62190 0.67800 0.06110 -0.13700
C 	C 	0.68270 0.67480 0.99670 0.11700
C 	C 	0.44110 0.67550 0.06230 -0.02200
H 	H 	0.40070 0.67430 0.10510 0.04300
O 	O 	0.76550 0.83330 0.21400 -0.57900
O 	O 	0.01710 0.83740 0.28210 -0.47200
C 	C 	0.88630 0.86460 0.24810 0.47200
C 	C 	0.87880 0.93490 0.24930 -0.17800
C 	C 	0.99560 0.96760 0.29750 0.10300
C 	C 	0.75750 0.96670 0.20260 0.08900
N 	N 	0.63700 0.94270 0.15030 -0.09700
N 	N 	0.85330 0.66090 0.99050 -0.08100
N 	N 	0.36400 0.59910 0.44810 -0.06700
N 	N 	0.12300 0.93970 0.33960 -0.08800
Nd	Nd	0.51141 0.22359 0.24461 2.24200
O 	O 	0.67070 0.17380 0.35210 -0.46400
O 	O 	0.79980 0.26090 0.32500 -0.61600
C 	C 	0.78250 0.21610 0.36780 0.44200
C 	C 	0.89780 0.21580 0.43570 -0.16100
C 	C 	0.94790 0.15840 0.46780 0.09700
C 	C 	0.95120 0.27280 0.46760 0.10300
N 	N 	0.90100 0.32640 0.44600 -0.09100
O 	O 	0.18540 0.21050 0.17750 -0.63500
O 	O 	0.40910 0.18300 0.12630 -0.46700
C 	C 	0.24570 0.19010 0.12420 0.44600
C 	C 	0.12190 0.17800 0.06110 -0.14300
C 	C 	0.18270 0.17480 0.99670 0.11900
C 	C 	0.94110 0.17550 0.06230 -0.01800
H 	H 	0.90070 0.17430 0.10510 0.04300
O 	O 	0.26550 0.33330 0.21400 -0.57800
O 	O 	0.51710 0.33740 0.28210 -0.46900
C 	C 	0.38630 0.36460 0.24810 0.46700
C 	C 	0.37880 0.43490 0.24930 -0.17700
C 	C 	0.49560 0.46760 0.29750 0.10200
C 	C 	0.25750 0.46670 0.20260 0.08900
N 	N 	0.13700 0.44270 0.15030 -0.09700
N 	N 	0.35330 0.16090 0.99050 -0.08100
N 	N 	0.86400 0.09910 0.44810 -0.06700
N 	N 	0.62300 0.43970 0.33960 -0.08600
Nd	Nd	0.01141 0.27641 0.24461 2.23500
O 	O 	0.17070 0.32620 0.35210 -0.46400
O 	O 	0.29980 0.23910 0.32500 -0.61700
C 	C 	0.28250 0.28390 0.36780 0.44200
C 	C 	0.39780 0.28420 0.43570 -0.16200
C 	C 	0.44790 0.34160 0.46780 0.09800
C 	C 	0.45120 0.22720 0.46760 0.10300
N 	N 	0.40100 0.17360 0.44600 -0.09100
O 	O 	0.68540 0.28950 0.17750 -0.63300
O 	O 	0.90910 0.31700 0.12630 -0.46300
C 	C 	0.74570 0.30990 0.12420 0.44500
C 	C 	0.62190 0.32200 0.06110 -0.13700
C 	C 	0.68270 0.32520 0.99670 0.11700
C 	C 	0.44110 0.32450 0.06230 -0.02200
H 	H 	0.40070 0.32570 0.10510 0.04300
O 	O 	0.76550 0.16670 0.21400 -0.57900
O 	O 	0.01710 0.16260 0.28210 -0.47200
C 	C 	0.88630 0.13540 0.24810 0.47200
C 	C 	0.87880 0.06510 0.24930 -0.17800
C 	C 	0.99560 0.03240 0.29750 0.10300
C 	C 	0.75750 0.03330 0.20260 0.08900
N 	N 	0.63700 0.05730 0.15030 -0.09700
N 	N 	0.85330 0.33910 0.99050 -0.08100
N 	N 	0.36400 0.40090 0.44810 -0.06700
N 	N 	0.12300 0.06030 0.33960 -0.08800
Nd	Nd	0.51141 0.77641 0.24461 2.24200
O 	O 	0.67070 0.82620 0.35210 -0.46400
O 	O 	0.79980 0.73910 0.32500 -0.61600
C 	C 	0.78250 0.78390 0.36780 0.44200
C 	C 	0.89780 0.78420 0.43570 -0.16100
C 	C 	0.94790 0.84160 0.46780 0.09700
C 	C 	0.95120 0.72720 0.46760 0.10300
N 	N 	0.90100 0.67360 0.44600 -0.09100
O 	O 	0.18540 0.78950 0.17750 -0.63500
O 	O 	0.40910 0.81700 0.12630 -0.46700
C 	C 	0.24570 0.80990 0.12420 0.44600
C 	C 	0.12190 0.82200 0.06110 -0.14300
C 	C 	0.18270 0.82520 0.99670 0.11900
C 	C 	0.94110 0.82450 0.06230 -0.01800
H 	H 	0.90070 0.82570 0.10510 0.04300
O 	O 	0.26550 0.66670 0.21400 -0.57800
O 	O 	0.51710 0.66260 0.28210 -0.46900
C 	C 	0.38630 0.63540 0.24810 0.46700
C 	C 	0.37880 0.56510 0.24930 -0.17700
C 	C 	0.49560 0.53240 0.29750 0.10200
C 	C 	0.25750 0.53330 0.20260 0.08900
N 	N 	0.13700 0.55730 0.15030 -0.09700
N 	N 	0.35330 0.83910 0.99050 -0.08100
N 	N 	0.86400 0.90090 0.44810 -0.06700
N 	N 	0.62300 0.56030 0.33960 -0.08600
Nd	Nd	0.98859 0.27641 0.75539 2.23500
O 	O 	0.82930 0.32620 0.64790 -0.46400
O 	O 	0.70020 0.23910 0.67500 -0.61700
C 	C 	0.71750 0.28390 0.63220 0.44200
C 	C 	0.60220 0.28420 0.56430 -0.16200
C 	C 	0.55210 0.34160 0.53220 0.09800
C 	C 	0.54880 0.22720 0.53240 0.10300
N 	N 	0.59900 0.17360 0.55400 -0.09100
O 	O 	0.31460 0.28950 0.82250 -0.63300
O 	O 	0.09090 0.31700 0.87370 -0.46300
C 	C 	0.25430 0.30990 0.87580 0.44500
C 	C 	0.37810 0.32200 0.93890 -0.13700
C 	C 	0.31730 0.32520 0.00330 0.11700
C 	C 	0.55890 0.32450 0.93770 -0.02200
H 	H 	0.59930 0.32570 0.89490 0.04300
O 	O 	0.23450 0.16670 0.78600 -0.57900
O 	O 	0.98290 0.16260 0.71790 -0.47200
C 	C 	0.11370 0.13540 0.75190 0.47200
C 	C 	0.12120 0.06510 0.75070 -0.17800
C 	C 	0.00440 0.03240 0.70250 0.10300
C 	C 	0.24250 0.03330 0.79740 0.08900
N 	N 	0.36300 0.05730 0.84970 -0.09700
N 	N 	0.14670 0.33910 0.00950 -0.08100
N 	N 	0.63600 0.40090 0.55190 -0.06700
N 	N 	0.87700 0.06030 0.66040 -0.08800
Nd	Nd	0.48859 0.77641 0.75539 2.24200
O 	O 	0.32930 0.82620 0.64790 -0.46400
O 	O 	0.20020 0.73910 0.67500 -0.61600
C 	C 	0.21750 0.78390 0.63220 0.44200
C 	C 	0.10220 0.78420 0.56430 -0.16100
C 	C 	0.05210 0.84160 0.53220 0.09700
C 	C 	0.04880 0.72720 0.53240 0.10300
N 	N 	0.09900 0.67360 0.55400 -0.09100
O 	O 	0.81460 0.78950 0.82250 -0.63500
O 	O 	0.59090 0.81700 0.87370 -0.46700
C 	C 	0.75430 0.80990 0.87580 0.44600
C 	C 	0.87810 0.82200 0.93890 -0.14300
C 	C 	0.81730 0.82520 0.00330 0.11900
C 	C 	0.05890 0.82450 0.93770 -0.01800
H 	H 	0.09930 0.82570 0.89490 0.04300
O 	O 	0.73450 0.66670 0.78600 -0.57800
O 	O 	0.48290 0.66260 0.71790 -0.46900
C 	C 	0.61370 0.63540 0.75190 0.46700
C 	C 	0.62120 0.56510 0.75070 -0.17700
C 	C 	0.50440 0.53240 0.70250 0.10200
C 	C 	0.74250 0.53330 0.79740 0.08900
N 	N 	0.86300 0.55730 0.84970 -0.09700
N 	N 	0.64670 0.83910 0.00950 -0.08100
N 	N 	0.13600 0.90090 0.55190 -0.06700
N 	N 	0.37700 0.56030 0.66040 -0.08600
