data_crystal

_cell_length_a 7.80460
_cell_length_b 21.38060
_cell_length_c 19.81730
_cell_angle_alpha 90.00000
_cell_angle_beta  98.58200
_cell_angle_gamma 90.00000

_symmetry_space_group_name_	'P 1'
_symmetry_space_group_name_H-M	'P 1'

loop_
_symmetry_equiv_pos_as_xyz
  x,y,z

loop_
_atom_site_label
_atom_site_type_symbol
_atom_site_fract_x
_atom_site_fract_y
_atom_site_fract_z
_atom_site_charge
La	La	0.98845 0.22323 0.25543 1.68700
O 	O 	0.12770 0.11590 0.23480 -0.81800
H 	H 	0.20540 0.10050 0.26480 0.39600
H 	H 	0.07100 0.11620 0.19470 0.38400
O 	O 	0.82470 0.17280 0.14660 -0.37500
O 	O 	0.69850 0.25990 0.17330 -0.45700
C 	C 	0.71530 0.21490 0.13140 0.36800
C 	C 	0.60230 0.21540 0.06360 -0.13900
C 	C 	0.55410 0.15870 0.03220 0.09500
C 	C 	0.54910 0.27100 0.03250 0.09300
O 	O 	0.31320 0.21040 0.32410 -0.47300
O 	O 	0.09600 0.18080 0.37540 -0.34900
C 	C 	0.25680 0.18950 0.37670 0.34600
C 	C 	0.38070 0.17760 0.44060 -0.09700
C 	C 	0.32120 0.17310 0.50390 0.11500
C 	C 	0.55610 0.17640 0.43760 -0.04700
H 	H 	0.59340 0.17790 0.39520 0.05800
O 	O 	0.22890 0.33320 0.28610 -0.42900
O 	O 	0.97900 0.33870 0.21720 -0.36800
C 	C 	0.10690 0.36520 0.25090 0.36100
C 	C 	0.11970 0.43460 0.25070 -0.13600
C 	C 	0.23720 0.46640 0.29830 0.08300
C 	C 	0.00450 0.46790 0.20190 0.08800
N 	N 	0.15000 0.16140 0.51090 -0.07600
N 	N 	0.35400 0.44140 0.35170 -0.08200
N 	N 	0.63600 0.10030 0.05250 -0.06600
N 	N 	0.87900 0.43900 0.15900 -0.07600
N 	N 	0.60200 0.32600 0.05700 -0.08500
La	La	0.48845 0.72323 0.25543 1.68900
O 	O 	0.62770 0.61590 0.23480 -0.81800
H 	H 	0.70540 0.60050 0.26480 0.39500
H 	H 	0.57100 0.61620 0.19470 0.38400
O 	O 	0.32470 0.67280 0.14660 -0.37400
O 	O 	0.19850 0.75990 0.17330 -0.45700
C 	C 	0.21530 0.71490 0.13140 0.36800
C 	C 	0.10230 0.71540 0.06360 -0.13800
C 	C 	0.05410 0.65870 0.03220 0.09500
C 	C 	0.04910 0.77100 0.03250 0.09300
O 	O 	0.81320 0.71040 0.32410 -0.47400
O 	O 	0.59600 0.68080 0.37540 -0.35100
C 	C 	0.75680 0.68950 0.37670 0.34600
C 	C 	0.88070 0.67760 0.44060 -0.09800
C 	C 	0.82120 0.67310 0.50390 0.11400
C 	C 	0.05610 0.67640 0.43760 -0.04600
H 	H 	0.09340 0.67790 0.39520 0.05800
O 	O 	0.72890 0.83320 0.28610 -0.42900
O 	O 	0.47900 0.83870 0.21720 -0.36600
C 	C 	0.60690 0.86520 0.25090 0.35800
C 	C 	0.61970 0.93460 0.25070 -0.13500
C 	C 	0.73720 0.96640 0.29830 0.08200
C 	C 	0.50450 0.96790 0.20190 0.08600
N 	N 	0.65000 0.66140 0.51090 -0.07600
N 	N 	0.85400 0.94140 0.35170 -0.08200
N 	N 	0.13600 0.60030 0.05250 -0.06500
N 	N 	0.37900 0.93900 0.15900 -0.07500
N 	N 	0.10200 0.82600 0.05700 -0.08500
La	La	0.01155 0.22323 0.74457 1.68700
O 	O 	0.87230 0.11590 0.76520 -0.81800
H 	H 	0.79460 0.10050 0.73520 0.39600
H 	H 	0.92900 0.11620 0.80530 0.38400
O 	O 	0.17530 0.17280 0.85340 -0.37500
O 	O 	0.30150 0.25990 0.82670 -0.45700
C 	C 	0.28470 0.21490 0.86860 0.36800
C 	C 	0.39770 0.21540 0.93640 -0.13900
C 	C 	0.44590 0.15870 0.96780 0.09500
C 	C 	0.45090 0.27100 0.96750 0.09300
O 	O 	0.68680 0.21040 0.67590 -0.47300
O 	O 	0.90400 0.18080 0.62460 -0.34900
C 	C 	0.74320 0.18950 0.62330 0.34600
C 	C 	0.61930 0.17760 0.55940 -0.09700
C 	C 	0.67880 0.17310 0.49610 0.11500
C 	C 	0.44390 0.17640 0.56240 -0.04700
H 	H 	0.40660 0.17790 0.60480 0.05800
O 	O 	0.77110 0.33320 0.71390 -0.42900
O 	O 	0.02100 0.33870 0.78280 -0.36800
C 	C 	0.89310 0.36520 0.74910 0.36100
C 	C 	0.88030 0.43460 0.74930 -0.13600
C 	C 	0.76280 0.46640 0.70170 0.08300
C 	C 	0.99550 0.46790 0.79810 0.08800
N 	N 	0.85000 0.16140 0.48910 -0.07600
N 	N 	0.64600 0.44140 0.64830 -0.08200
N 	N 	0.36400 0.10030 0.94750 -0.06600
N 	N 	0.12100 0.43900 0.84100 -0.07600
N 	N 	0.39800 0.32600 0.94300 -0.08500
La	La	0.51155 0.72323 0.74457 1.68900
O 	O 	0.37230 0.61590 0.76520 -0.81800
H 	H 	0.29460 0.60050 0.73520 0.39500
H 	H 	0.42900 0.61620 0.80530 0.38400
O 	O 	0.67530 0.67280 0.85340 -0.37400
O 	O 	0.80150 0.75990 0.82670 -0.45700
C 	C 	0.78470 0.71490 0.86860 0.36800
C 	C 	0.89770 0.71540 0.93640 -0.13800
C 	C 	0.94590 0.65870 0.96780 0.09500
C 	C 	0.95090 0.77100 0.96750 0.09300
O 	O 	0.18680 0.71040 0.67590 -0.47400
O 	O 	0.40400 0.68080 0.62460 -0.35100
C 	C 	0.24320 0.68950 0.62330 0.34600
C 	C 	0.11930 0.67760 0.55940 -0.09800
C 	C 	0.17880 0.67310 0.49610 0.11400
C 	C 	0.94390 0.67640 0.56240 -0.04600
H 	H 	0.90660 0.67790 0.60480 0.05800
O 	O 	0.27110 0.83320 0.71390 -0.42900
O 	O 	0.52100 0.83870 0.78280 -0.36600
C 	C 	0.39310 0.86520 0.74910 0.35800
C 	C 	0.38030 0.93460 0.74930 -0.13500
C 	C 	0.26280 0.96640 0.70170 0.08200
C 	C 	0.49550 0.96790 0.79810 0.08600
N 	N 	0.35000 0.66140 0.48910 -0.07600
N 	N 	0.14600 0.94140 0.64830 -0.08200
N 	N 	0.86400 0.60030 0.94750 -0.06500
N 	N 	0.62100 0.93900 0.84100 -0.07500
N 	N 	0.89800 0.82600 0.94300 -0.08500
La	La	0.01155 0.77677 0.74457 1.68700
O 	O 	0.87230 0.88410 0.76520 -0.81800
H 	H 	0.79460 0.89950 0.73520 0.39600
H 	H 	0.92900 0.88380 0.80530 0.38400
O 	O 	0.17530 0.82720 0.85340 -0.37500
O 	O 	0.30150 0.74010 0.82670 -0.45700
C 	C 	0.28470 0.78510 0.86860 0.36800
C 	C 	0.39770 0.78460 0.93640 -0.13900
C 	C 	0.44590 0.84130 0.96780 0.09500
C 	C 	0.45090 0.72900 0.96750 0.09300
O 	O 	0.68680 0.78960 0.67590 -0.47300
O 	O 	0.90400 0.81920 0.62460 -0.34900
C 	C 	0.74320 0.81050 0.62330 0.34600
C 	C 	0.61930 0.82240 0.55940 -0.09700
C 	C 	0.67880 0.82690 0.49610 0.11500
C 	C 	0.44390 0.82360 0.56240 -0.04700
H 	H 	0.40660 0.82210 0.60480 0.05800
O 	O 	0.77110 0.66680 0.71390 -0.42900
O 	O 	0.02100 0.66130 0.78280 -0.36800
C 	C 	0.89310 0.63480 0.74910 0.36100
C 	C 	0.88030 0.56540 0.74930 -0.13600
C 	C 	0.76280 0.53360 0.70170 0.08300
C 	C 	0.99550 0.53210 0.79810 0.08800
N 	N 	0.85000 0.83860 0.48910 -0.07600
N 	N 	0.64600 0.55860 0.64830 -0.08200
N 	N 	0.36400 0.89970 0.94750 -0.06600
N 	N 	0.12100 0.56100 0.84100 -0.07600
N 	N 	0.39800 0.67400 0.94300 -0.08500
La	La	0.51155 0.27677 0.74457 1.68900
O 	O 	0.37230 0.38410 0.76520 -0.81800
H 	H 	0.29460 0.39950 0.73520 0.39500
H 	H 	0.42900 0.38380 0.80530 0.38400
O 	O 	0.67530 0.32720 0.85340 -0.37400
O 	O 	0.80150 0.24010 0.82670 -0.45700
C 	C 	0.78470 0.28510 0.86860 0.36800
C 	C 	0.89770 0.28460 0.93640 -0.13800
C 	C 	0.94590 0.34130 0.96780 0.09500
C 	C 	0.95090 0.22900 0.96750 0.09300
O 	O 	0.18680 0.28960 0.67590 -0.47400
O 	O 	0.40400 0.31920 0.62460 -0.35100
C 	C 	0.24320 0.31050 0.62330 0.34600
C 	C 	0.11930 0.32240 0.55940 -0.09800
C 	C 	0.17880 0.32690 0.49610 0.11400
C 	C 	0.94390 0.32360 0.56240 -0.04600
H 	H 	0.90660 0.32210 0.60480 0.05800
O 	O 	0.27110 0.16680 0.71390 -0.42900
O 	O 	0.52100 0.16130 0.78280 -0.36600
C 	C 	0.39310 0.13480 0.74910 0.35800
C 	C 	0.38030 0.06540 0.74930 -0.13500
C 	C 	0.26280 0.03360 0.70170 0.08200
C 	C 	0.49550 0.03210 0.79810 0.08600
N 	N 	0.35000 0.33860 0.48910 -0.07600
N 	N 	0.14600 0.05860 0.64830 -0.08200
N 	N 	0.86400 0.39970 0.94750 -0.06500
N 	N 	0.62100 0.06100 0.84100 -0.07500
N 	N 	0.89800 0.17400 0.94300 -0.08500
La	La	0.98845 0.77677 0.25543 1.68700
O 	O 	0.12770 0.88410 0.23480 -0.81800
H 	H 	0.20540 0.89950 0.26480 0.39600
H 	H 	0.07100 0.88380 0.19470 0.38400
O 	O 	0.82470 0.82720 0.14660 -0.37500
O 	O 	0.69850 0.74010 0.17330 -0.45700
C 	C 	0.71530 0.78510 0.13140 0.36800
C 	C 	0.60230 0.78460 0.06360 -0.13900
C 	C 	0.55410 0.84130 0.03220 0.09500
C 	C 	0.54910 0.72900 0.03250 0.09300
O 	O 	0.31320 0.78960 0.32410 -0.47300
O 	O 	0.09600 0.81920 0.37540 -0.34900
C 	C 	0.25680 0.81050 0.37670 0.34600
C 	C 	0.38070 0.82240 0.44060 -0.09700
C 	C 	0.32120 0.82690 0.50390 0.11500
C 	C 	0.55610 0.82360 0.43760 -0.04700
H 	H 	0.59340 0.82210 0.39520 0.05800
O 	O 	0.22890 0.66680 0.28610 -0.42900
O 	O 	0.97900 0.66130 0.21720 -0.36800
C 	C 	0.10690 0.63480 0.25090 0.36100
C 	C 	0.11970 0.56540 0.25070 -0.13600
C 	C 	0.23720 0.53360 0.29830 0.08300
C 	C 	0.00450 0.53210 0.20190 0.08800
N 	N 	0.15000 0.83860 0.51090 -0.07600
N 	N 	0.35400 0.55860 0.35170 -0.08200
N 	N 	0.63600 0.89970 0.05250 -0.06600
N 	N 	0.87900 0.56100 0.15900 -0.07600
N 	N 	0.60200 0.67400 0.05700 -0.08500
La	La	0.48845 0.27677 0.25543 1.68900
O 	O 	0.62770 0.38410 0.23480 -0.81800
H 	H 	0.70540 0.39950 0.26480 0.39500
H 	H 	0.57100 0.38380 0.19470 0.38400
O 	O 	0.32470 0.32720 0.14660 -0.37400
O 	O 	0.19850 0.24010 0.17330 -0.45700
C 	C 	0.21530 0.28510 0.13140 0.36800
C 	C 	0.10230 0.28460 0.06360 -0.13800
C 	C 	0.05410 0.34130 0.03220 0.09500
C 	C 	0.04910 0.22900 0.03250 0.09300
O 	O 	0.81320 0.28960 0.32410 -0.47400
O 	O 	0.59600 0.31920 0.37540 -0.35100
C 	C 	0.75680 0.31050 0.37670 0.34600
C 	C 	0.88070 0.32240 0.44060 -0.09800
C 	C 	0.82120 0.32690 0.50390 0.11400
C 	C 	0.05610 0.32360 0.43760 -0.04600
H 	H 	0.09340 0.32210 0.39520 0.05800
O 	O 	0.72890 0.16680 0.28610 -0.42900
O 	O 	0.47900 0.16130 0.21720 -0.36600
C 	C 	0.60690 0.13480 0.25090 0.35800
C 	C 	0.61970 0.06540 0.25070 -0.13500
C 	C 	0.73720 0.03360 0.29830 0.08200
C 	C 	0.50450 0.03210 0.20190 0.08600
N 	N 	0.65000 0.33860 0.51090 -0.07600
N 	N 	0.85400 0.05860 0.35170 -0.08200
N 	N 	0.13600 0.39970 0.05250 -0.06500
N 	N 	0.37900 0.06100 0.15900 -0.07500
N 	N 	0.10200 0.17400 0.05700 -0.08500
