data_crystal

_cell_length_a 12.10050
_cell_length_b 18.21010
_cell_length_c 18.21010
_cell_angle_alpha 64.76020
_cell_angle_beta  77.20290
_cell_angle_gamma 102.79700

_symmetry_space_group_name_	'P 1'
_symmetry_space_group_name_H-M	'P 1'

loop_
_symmetry_equiv_pos_as_xyz
  x,y,z

loop_
_atom_site_label
_atom_site_type_symbol
_atom_site_fract_x
_atom_site_fract_y
_atom_site_fract_z
_atom_site_charge
Cd	Cd	-0.00000 0.50000 -0.00000 1.15300
Cd	Cd	-0.00000 0.00000 -0.00000 1.10300
Cd	Cd	-0.00000 0.00000 0.50000 1.15800
Cd	Cd	0.50000 0.50000 0.50000 1.20900
H 	H 	0.86240 0.72020 0.76140 0.11900
H 	H 	0.74250 0.61020 0.51220 -0.02800
H 	H 	0.73960 0.93330 0.97260 0.01000
H 	H 	0.00740 0.32520 0.07310 0.30600
H 	H 	0.54560 0.40330 0.20140 0.08600
H 	H 	0.22140 0.77620 0.12210 0.06400
H 	H 	0.26290 0.86500 0.36270 0.08100
H 	H 	0.44520 0.10170 0.77620 0.08800
H 	H 	0.79670 0.91290 0.38190 0.35700
H 	H 	0.75150 0.75980 0.32500 0.10000
H 	H 	0.59980 0.77400 0.86940 0.04700
H 	H 	0.92350 0.67500 0.08480 0.05400
H 	H 	0.90220 0.83810 0.19150 -0.00200
H 	H 	0.17860 0.38190 0.70520 0.26800
H 	H 	0.00830 0.08480 0.24020 0.02500
H 	H 	0.88380 0.70520 0.91290 0.23900
H 	H 	0.85260 0.83980 0.40330 0.34600
H 	H 	0.06410 0.97040 0.83810 -0.08200
H 	H 	0.82580 0.35660 0.77400 0.02100
H 	H 	0.17420 0.64340 0.22600 0.04400
H 	H 	0.20330 0.08710 0.61810 0.21500
H 	H 	0.07650 0.32500 0.91520 0.13800
H 	H 	0.80790 0.63050 0.70830 0.02100
H 	H 	0.53080 0.13060 0.64340 0.02100
H 	H 	0.86770 0.12240 0.38980 -0.02300
H 	H 	0.25300 0.79860 0.60470 0.09100
H 	H 	0.47890 0.62450 0.32020 -0.01200
H 	H 	0.14220 0.51840 0.72020 0.11300
H 	H 	0.14230 0.39530 0.40330 0.07300
H 	H 	0.90630 0.80850 0.02960 -0.05300
H 	H 	0.73710 0.13500 0.63730 0.07800
H 	H 	0.40020 0.22600 0.13060 0.01600
H 	H 	0.01280 0.75690 0.83980 0.17000
H 	H 	0.25590 0.40330 0.75690 0.28000
H 	H 	0.08050 0.07310 0.60170 0.17400
H 	H 	0.79910 0.32020 0.05530 -0.03000
H 	H 	0.14560 0.94470 0.37550 0.00500
H 	H 	0.99260 0.67480 0.92690 0.23600
H 	H 	0.82140 0.61810 0.29480 0.30200
H 	H 	0.85780 0.48160 0.27980 0.15400
H 	H 	0.65650 0.87790 0.89830 0.12200
H 	H 	0.80630 0.09410 0.93330 -0.04700
H 	H 	0.48380 0.29170 0.33880 0.01400
H 	H 	0.19210 0.36950 0.29170 -0.01700
H 	H 	0.93590 0.02960 0.16190 0.04600
H 	H 	0.68220 0.60170 0.32520 0.26900
H 	H 	0.11620 0.29480 0.08710 0.34300
H 	H 	0.09780 0.16190 0.80850 -0.04900
H 	H 	0.37620 0.23860 0.48160 0.11500
H 	H 	0.45440 0.59670 0.79860 0.09400
H 	H 	0.98720 0.24310 0.16020 0.41800
H 	H 	0.28780 0.02740 0.90590 -0.02200
H 	H 	0.25750 0.38980 0.48780 -0.03000
H 	H 	0.39790 0.77230 0.86500 0.09600
H 	H 	0.24850 0.24020 0.67500 0.09400
H 	H 	0.14740 0.16020 0.59670 0.22300
H 	H 	0.77860 0.22380 0.87790 0.12000
H 	H 	0.25470 0.51220 0.87760 -0.01900
H 	H 	0.74530 0.48780 0.12240 -0.03500
H 	H 	0.09370 0.19150 0.97040 0.00500
H 	H 	0.71220 0.97260 0.09410 -0.03000
H 	H 	0.26040 0.06670 0.02740 -0.06500
H 	H 	0.85440 0.05530 0.62450 -0.02400
H 	H 	0.37440 0.63730 0.22770 0.06600
H 	H 	0.13230 0.87760 0.61020 -0.03000
H 	H 	0.13760 0.27980 0.23860 0.15000
H 	H 	0.74410 0.59670 0.24310 0.28800
H 	H 	0.55480 0.89830 0.22380 0.09700
H 	H 	0.62560 0.36270 0.77230 0.09300
H 	H 	0.19370 0.90590 0.06670 -0.00400
H 	H 	0.17740 0.66120 0.63050 -0.00600
H 	H 	0.85770 0.60470 0.59670 0.10600
H 	H 	0.51620 0.70830 0.66120 -0.00700
H 	H 	0.82260 0.33880 0.36950 0.01400
H 	H 	0.31780 0.39830 0.67480 0.25900
H 	H 	0.34350 0.12210 0.10170 0.06000
H 	H 	0.60210 0.22770 0.13500 0.06200
H 	H 	0.46920 0.86940 0.35660 0.04200
H 	H 	0.52110 0.37550 0.67980 -0.01200
H 	H 	0.20090 0.67980 0.94470 0.01000
H 	H 	0.62380 0.76140 0.51840 0.15100
H 	H 	0.74700 0.20140 0.39530 0.08900
H 	H 	0.99170 0.91520 0.75980 0.16000
H 	H 	0.91950 0.92690 0.39830 0.36000
C 	C 	0.13582 0.46473 0.22007 -0.07600
C 	C 	0.15837 0.11498 0.58517 -0.72700
C 	C 	0.94742 0.43720 0.87860 0.25300
C 	C 	0.46846 0.22881 0.62272 -0.10500
C 	C 	0.79137 0.93008 0.92897 0.14200
C 	C 	0.35589 0.22007 0.31520 -0.01500
C 	C 	0.25982 0.10389 0.11553 -0.18000
C 	C 	0.79257 0.44979 0.33238 -0.29300
C 	C 	0.76279 0.84303 0.64026 0.02100
C 	C 	0.64482 0.22675 0.52709 -0.04200
C 	C 	0.37535 0.11553 0.78058 -0.19700
C 	C 	0.17398 0.12140 0.31580 0.14500
C 	C 	0.02931 0.19810 0.95156 0.07700
C 	C 	0.74060 0.80276 0.27901 -0.19100
C 	C 	0.81354 0.88896 0.81882 0.18600
C 	C 	0.95661 0.70015 0.88502 -0.62700
C 	C 	0.41807 0.24616 0.22675 -0.05400
C 	C 	0.32891 0.68480 0.53527 -0.03000
C 	C 	0.25646 0.41483 0.70015 -0.85800
C 	C 	0.20863 0.06992 0.07103 0.06200
C 	C 	0.40629 0.24979 0.36472 0.04300
C 	C 	0.06216 0.08177 0.19724 -0.11800
C 	C 	0.62465 0.88447 0.21942 -0.19100
C 	C 	0.40565 0.61592 0.82787 -0.17200
C 	C 	0.45431 0.69346 0.82243 0.10300
C 	C 	0.16879 0.14966 0.80190 0.08700
C 	C 	0.90882 0.37728 0.85153 -0.15100
C 	C 	0.23352 0.82787 0.55621 -0.17800
C 	C 	0.25940 0.19724 0.72099 -0.20000
C 	C 	0.77321 0.84654 0.50991 0.40600
C 	C 	0.25356 0.66330 0.91482 0.08000
C 	C 	0.91976 0.51671 0.84303 -0.01800
C 	C 	0.72326 0.17757 0.51589 0.09900
C 	C 	0.54674 0.18799 0.60257 -0.01600
C 	C 	0.92458 0.29222 0.88896 0.26300
C 	C 	0.48978 0.31580 0.56280 0.14900
C 	C 	0.27674 0.82243 0.48411 0.09900
C 	C 	0.76035 0.85153 0.77119 -0.09500
C 	C 	0.16838 0.91482 0.42188 0.06900
C 	C 	0.72034 0.92897 0.14095 0.10700
C 	C 	0.36764 0.18118 0.70778 0.13500
C 	C 	0.83162 0.08518 0.57812 0.07200
C 	C 	0.14931 0.60257 0.20944 -0.07600
C 	C 	0.59435 0.38408 0.17213 -0.18600
C 	C 	0.92667 0.64355 0.84654 0.28200
C 	C 	0.67109 0.31520 0.46473 -0.02600
C 	C 	0.64411 0.77993 0.68480 -0.04300
C 	C 	0.58193 0.75384 0.77325 -0.02400
C 	C 	0.62826 0.28111 0.13243 -0.16200
C 	C 	0.74354 0.58517 0.29985 -0.89700
C 	C 	0.78973 0.55621 0.61592 -0.19200
C 	C 	0.23965 0.14847 0.22881 -0.10700
C 	C 	0.74018 0.89611 0.88447 -0.20400
C 	C 	0.83121 0.85034 0.19810 0.09700
C 	C 	0.15593 0.78058 0.10389 -0.14100
C 	C 	0.09118 0.62272 0.14847 -0.04700
C 	C 	0.35518 0.77325 0.47291 -0.03700
C 	C 	0.65722 0.78217 0.55021 -0.33200
C 	C 	0.82809 0.47291 0.75384 -0.06100
C 	C 	0.23721 0.15697 0.35974 -0.02500
C 	C 	0.64125 0.79056 0.81201 -0.01900
C 	C 	0.71587 0.43545 0.12354 0.10500
C 	C 	0.15650 0.38549 0.24979 0.11800
C 	C 	0.23915 0.51589 0.30654 0.07400
C 	C 	0.28413 0.56455 0.87646 0.11800
C 	C 	0.76069 0.13243 0.58646 -0.15800
C 	C 	0.83941 0.12354 0.44101 0.11100
C 	C 	0.86418 0.53527 0.77993 0.01400
C 	C 	0.74644 0.33670 0.08518 0.06200
C 	C 	0.34278 0.21783 0.44979 -0.24600
C 	C 	0.98039 0.72099 0.08177 -0.08700
C 	C 	0.28042 0.44101 0.43545 0.09900
C 	C 	0.12495 0.33238 0.21783 -0.36900
C 	C 	0.22679 0.15346 0.49009 0.26900
C 	C 	0.59026 0.42188 0.66330 0.08100
C 	C 	0.04339 0.29985 0.11498 -1.17300
C 	C 	0.07542 0.70778 0.11104 -0.00000
C 	C 	0.87505 0.66762 0.78217 -0.22000
C 	C 	0.01961 0.27901 0.91823 -0.29600
C 	C 	0.20743 0.55021 0.66762 -0.28300
C 	C 	0.18646 0.11104 0.18118 0.07600
C 	C 	0.84407 0.21942 0.89611 -0.24200
C 	C 	0.76085 0.48411 0.69346 0.12300
C 	C 	0.82602 0.87860 0.68420 0.14600
C 	C 	0.98087 0.95156 0.85034 0.26100
C 	C 	0.37174 0.71889 0.86757 -0.14500
C 	C 	0.54569 0.30654 0.17757 0.09400
C 	C 	0.21027 0.44379 0.38408 -0.16600
C 	C 	0.08024 0.48329 0.15697 0.01700
C 	C 	0.35875 0.20944 0.18799 -0.02200
C 	C 	0.59371 0.75021 0.63528 0.11100
C 	C 	0.07333 0.35645 0.15346 0.40600
C 	C 	0.23931 0.86757 0.41354 -0.15000
C 	C 	0.84350 0.61451 0.75021 0.04300
C 	C 	0.17191 0.52709 0.24616 -0.01400
C 	C 	0.86129 0.14095 0.93008 0.15700
C 	C 	0.01913 0.04844 0.14966 -0.10700
C 	C 	0.84163 0.88502 0.41483 -1.03100
C 	C 	0.51022 0.68420 0.43720 0.14500
C 	C 	0.05258 0.56280 0.12140 0.02900
C 	C 	0.85069 0.39743 0.79056 0.03300
C 	C 	0.22899 0.63528 0.61451 0.06800
C 	C 	0.97069 0.80190 0.04844 0.10600
C 	C 	0.27966 0.07103 0.85905 0.10200
C 	C 	0.76648 0.17213 0.44379 -0.18100
C 	C 	0.45326 0.81201 0.39743 -0.02200
C 	C 	0.77101 0.36472 0.38549 0.08400
C 	C 	0.71688 0.49009 0.35645 0.34900
C 	C 	0.63236 0.81882 0.29222 0.13600
C 	C 	0.93784 0.91823 0.80276 -0.25900
C 	C 	0.59695 0.35974 0.48329 -0.00300
C 	C 	0.40305 0.64026 0.51671 -0.00500
C 	C 	0.71958 0.55899 0.56455 0.12400
C 	C 	0.34715 0.58646 0.28111 -0.14300
C 	C 	0.40974 0.57812 0.33670 0.05900
C 	C 	0.13871 0.85905 0.06992 0.04900
C 	C 	0.28312 0.50991 0.64355 0.32400
C 	C 	0.53154 0.77119 0.37728 -0.10000
C 	C 	0.65285 0.41354 0.71889 -0.16400
C 	C 	0.16059 0.87646 0.55899 0.11300
N 	N 	0.04902 0.87215 0.04150 -0.27900
N 	N 	0.90948 0.95850 0.91365 -0.22400
N 	N 	0.95098 0.12785 0.95850 -0.20600
N 	N 	0.37790 0.55414 0.57000 -0.26500
N 	N 	0.09052 0.04150 0.08635 -0.26100
N 	N 	0.62524 0.49554 0.58468 -0.24300
N 	N 	0.17624 0.12414 0.44586 -0.26600
N 	N 	0.12970 0.91978 0.49554 -0.23100
N 	N 	0.87030 0.08022 0.50446 -0.24000
N 	N 	0.37476 0.50446 0.41532 -0.23900
N 	N 	0.17687 0.08635 0.87215 -0.25000
N 	N 	0.82376 0.87586 0.55414 -0.25800
N 	N 	0.94790 0.57000 0.87586 -0.21800
N 	N 	0.20992 0.58468 0.91978 -0.22500
N 	N 	0.82313 0.91365 0.12785 -0.23500
N 	N 	0.05210 0.43000 0.12414 -0.31000
N 	N 	0.62210 0.44586 0.43000 -0.26800
N 	N 	0.79008 0.41532 0.08022 -0.24500
O 	O 	0.99778 0.57667 0.06654 -0.33600
O 	O 	0.42111 0.35679 0.57667 -0.39400
O 	O 	0.57889 0.64321 0.42333 -0.39400
O 	O 	0.00222 0.42333 0.93346 -0.42600
O 	O 	0.06432 0.06654 0.35679 -0.45200
O 	O 	0.93568 0.93346 0.64321 -0.32300
