data_crystal

_cell_length_a 11.68400
_cell_length_b 13.62000
_cell_length_c 11.74800
_cell_angle_alpha 90.00000
_cell_angle_beta  91.42700
_cell_angle_gamma 90.00000

_symmetry_space_group_name_	'P 1'
_symmetry_space_group_name_H-M	'P 1'

loop_
_symmetry_equiv_pos_as_xyz
  x,y,z

loop_
_atom_site_label
_atom_site_type_symbol
_atom_site_fract_x
_atom_site_fract_y
_atom_site_fract_z
_atom_site_charge
Be	Be	0.35210 0.24470 0.64510 1.48000
Be	Be	0.28640 0.60590 0.54010 1.47300
P 	P 	0.30155 0.39836 0.47101 0.72000
P 	P 	0.39915 0.24671 0.89904 0.71800
O 	O 	0.35330 0.26750 0.77970 -0.60800
O 	O 	0.29930 0.34140 0.58090 -0.60300
O 	O 	0.23720 0.34840 0.37210 -0.55400
O 	O 	0.52410 0.21490 0.90220 -0.58000
O 	O 	0.25230 0.50100 0.48490 -0.57900
O 	O 	0.38830 0.34210 0.96980 -0.62800
O 	O 	0.33070 0.16510 0.95670 -0.62300
O 	O 	0.42740 0.41110 0.43020 -0.61700
H 	H 	0.47600 0.38800 0.46400 0.38700
Be	Be	0.85210 0.74470 0.64510 1.48100
Be	Be	0.78640 0.10590 0.54010 1.47400
P 	P 	0.80155 0.89836 0.47101 0.72000
P 	P 	0.89915 0.74671 0.89904 0.71900
O 	O 	0.85330 0.76750 0.77970 -0.60600
O 	O 	0.79930 0.84140 0.58090 -0.60200
O 	O 	0.73720 0.84840 0.37210 -0.55400
O 	O 	0.02410 0.71490 0.90220 -0.57700
O 	O 	0.75230 0.00100 0.48490 -0.57900
O 	O 	0.88830 0.84210 0.96980 -0.62200
O 	O 	0.83070 0.66510 0.95670 -0.61600
O 	O 	0.92740 0.91110 0.43020 -0.61800
H 	H 	0.97600 0.88800 0.46400 0.38700
Be	Be	0.64790 0.24470 0.85490 1.48100
Be	Be	0.71360 0.60590 0.95990 1.47400
P 	P 	0.69845 0.39836 0.02899 0.72300
P 	P 	0.60085 0.24671 0.60096 0.71900
O 	O 	0.64670 0.26750 0.72030 -0.60700
O 	O 	0.70070 0.34140 0.91910 -0.60400
O 	O 	0.76280 0.34840 0.12790 -0.55300
O 	O 	0.47590 0.21490 0.59780 -0.57800
O 	O 	0.74770 0.50100 0.01510 -0.58000
O 	O 	0.61170 0.34210 0.53020 -0.62700
O 	O 	0.66930 0.16510 0.54330 -0.61800
O 	O 	0.57260 0.41110 0.06980 -0.61800
H 	H 	0.52400 0.38800 0.03600 0.38900
Be	Be	0.14790 0.74470 0.85490 1.48100
Be	Be	0.21360 0.10590 0.95990 1.47400
P 	P 	0.19845 0.89836 0.02899 0.70800
P 	P 	0.10085 0.74671 0.60096 0.71900
O 	O 	0.14670 0.76750 0.72030 -0.60600
O 	O 	0.20070 0.84140 0.91910 -0.59500
O 	O 	0.26280 0.84840 0.12790 -0.55300
O 	O 	0.97590 0.71490 0.59780 -0.57800
O 	O 	0.24770 0.00100 0.01510 -0.56900
O 	O 	0.11170 0.84210 0.53020 -0.62700
O 	O 	0.16930 0.66510 0.54330 -0.61800
O 	O 	0.07260 0.91110 0.06980 -0.61700
H 	H 	0.02400 0.88800 0.03600 0.38300
Be	Be	0.64790 0.75530 0.35490 1.48100
Be	Be	0.71360 0.39410 0.45990 1.47400
P 	P 	0.69845 0.60164 0.52899 0.72100
P 	P 	0.60085 0.75329 0.10096 0.71900
O 	O 	0.64670 0.73250 0.22030 -0.60700
O 	O 	0.70070 0.65860 0.41910 -0.60200
O 	O 	0.76280 0.65160 0.62790 -0.55300
O 	O 	0.47590 0.78510 0.09780 -0.57900
O 	O 	0.74770 0.49900 0.51510 -0.57900
O 	O 	0.61170 0.65790 0.03020 -0.62800
O 	O 	0.66930 0.83490 0.04330 -0.62300
O 	O 	0.57260 0.58890 0.56980 -0.61700
H 	H 	0.52400 0.61200 0.53600 0.38700
Be	Be	0.14790 0.25530 0.35490 1.48100
Be	Be	0.21360 0.89410 0.45990 1.47400
P 	P 	0.19845 0.10164 0.52899 0.72000
P 	P 	0.10085 0.25329 0.10096 0.71900
O 	O 	0.14670 0.23250 0.22030 -0.60600
O 	O 	0.20070 0.15860 0.41910 -0.60200
O 	O 	0.26280 0.15160 0.62790 -0.55400
O 	O 	0.97590 0.28510 0.09780 -0.57700
O 	O 	0.24770 0.99900 0.51510 -0.57900
O 	O 	0.11170 0.15790 0.03020 -0.62200
O 	O 	0.16930 0.33490 0.04330 -0.61600
O 	O 	0.07260 0.08890 0.56980 -0.61800
H 	H 	0.02400 0.11200 0.53600 0.38700
Be	Be	0.35210 0.75530 0.14510 1.48100
Be	Be	0.28640 0.39410 0.04010 1.47400
P 	P 	0.30155 0.60164 0.97101 0.72300
P 	P 	0.39915 0.75329 0.39904 0.71900
O 	O 	0.35330 0.73250 0.27970 -0.60700
O 	O 	0.29930 0.65860 0.08090 -0.60400
O 	O 	0.23720 0.65160 0.87210 -0.55300
O 	O 	0.52410 0.78510 0.40220 -0.57800
O 	O 	0.25230 0.49900 0.98490 -0.58000
O 	O 	0.38830 0.65790 0.46980 -0.62700
O 	O 	0.33070 0.83490 0.45670 -0.61800
O 	O 	0.42740 0.58890 0.93020 -0.61800
H 	H 	0.47600 0.61200 0.96400 0.38900
Be	Be	0.85210 0.25530 0.14510 1.48100
Be	Be	0.78640 0.89410 0.04010 1.47400
P 	P 	0.80155 0.10164 0.97101 0.70800
P 	P 	0.89915 0.25329 0.39904 0.71900
O 	O 	0.85330 0.23250 0.27970 -0.60600
O 	O 	0.79930 0.15860 0.08090 -0.59500
O 	O 	0.73720 0.15160 0.87210 -0.55300
O 	O 	0.02410 0.28510 0.40220 -0.57800
O 	O 	0.75230 0.99900 0.98490 -0.56900
O 	O 	0.88830 0.15790 0.46980 -0.62700
O 	O 	0.83070 0.33490 0.45670 -0.61800
O 	O 	0.92740 0.08890 0.93020 -0.61700
H 	H 	0.97600 0.11200 0.96400 0.38300
