data_crystal

_cell_length_a 7.13300
_cell_length_b 10.51900
_cell_length_c 11.51900
_cell_angle_alpha 74.03400
_cell_angle_beta  83.17400
_cell_angle_gamma 72.58500

_symmetry_space_group_name_	'P 1'
_symmetry_space_group_name_H-M	'P 1'

loop_
_symmetry_equiv_pos_as_xyz
  x,y,z

loop_
_atom_site_label
_atom_site_type_symbol
_atom_site_fract_x
_atom_site_fract_y
_atom_site_fract_z
_atom_site_charge
Sr	Sr	0.77922 0.40007 0.54096 1.50500
Sr	Sr	0.22078 0.59993 0.45904 1.50500
P 	P 	0.28767 0.32201 0.67669 0.44100
P 	P 	0.82273 0.25826 0.31639 0.39800
P 	P 	0.71233 0.67799 0.32331 0.44100
P 	P 	0.17727 0.74174 0.68361 0.39800
H 	H 	0.54590 0.15130 0.53250 0.09900
H 	H 	0.87950 0.51530 0.14590 0.12600
H 	H 	0.23860 0.03470 0.55700 0.05300
H 	H 	0.22400 0.18820 0.48790 0.03100
H 	H 	0.72220 0.94410 0.65140 0.05800
H 	H 	0.54130 0.88620 0.65730 0.07100
H 	H 	0.30440 0.08820 0.73160 0.10400
H 	H 	0.50890 0.10620 0.74720 0.08900
H 	H 	0.78460 0.48290 0.93250 0.03200
H 	H 	0.66200 0.60140 0.99200 0.03700
H 	H 	0.12780 0.31450 0.16090 0.06600
H 	H 	0.06990 0.30720 0.03600 0.06800
H 	H 	0.60780 0.44210 0.18540 0.07300
H 	H 	0.70600 0.32480 0.11980 0.08700
H 	H 	0.45410 0.84870 0.46750 0.09900
H 	H 	0.12050 0.48470 0.85410 0.12600
H 	H 	0.76140 0.96530 0.44300 0.05300
H 	H 	0.77600 0.81180 0.51210 0.03100
H 	H 	0.27780 0.05590 0.34860 0.05800
H 	H 	0.45870 0.11380 0.34270 0.07100
H 	H 	0.69560 0.91180 0.26840 0.10400
H 	H 	0.49110 0.89380 0.25280 0.08900
H 	H 	0.21540 0.51710 0.06750 0.03200
H 	H 	0.33800 0.39860 0.00800 0.03700
H 	H 	0.87220 0.68550 0.83910 0.06600
H 	H 	0.93010 0.69280 0.96400 0.06800
H 	H 	0.39220 0.55790 0.81460 0.07300
H 	H 	0.29400 0.67520 0.88020 0.08700
C 	C 	0.31230 0.09570 0.50780 -0.04300
C 	C 	0.61220 0.94840 0.60690 -0.08200
C 	C 	0.40100 0.13640 0.69310 -0.23600
C 	C 	0.79310 0.54280 0.98120 -0.04000
C 	C 	0.07460 0.36940 0.08340 -0.08400
C 	C 	0.73160 0.37750 0.17030 -0.18500
C 	C 	0.68770 0.90430 0.49220 -0.04300
C 	C 	0.38780 0.05160 0.39310 -0.08200
C 	C 	0.59900 0.86360 0.30690 -0.23600
C 	C 	0.20690 0.45720 0.01880 -0.04000
C 	C 	0.92540 0.63060 0.91660 -0.08400
C 	C 	0.26840 0.62250 0.82970 -0.18500
N 	N 	0.47800 0.09300 0.57830 -0.12500
N 	N 	0.87100 0.45700 0.10250 -0.13100
N 	N 	0.52200 0.90700 0.42170 -0.12500
N 	N 	0.12900 0.54300 0.89750 -0.13100
O 	O 	0.22230 0.32390 0.80750 -0.28600
O 	O 	0.11970 0.37220 0.59200 -0.54000
O 	O 	0.44250 0.39740 0.62430 -0.54800
O 	O 	0.91580 0.11980 0.29090 -0.26400
O 	O 	0.96250 0.32000 0.35750 -0.40000
O 	O 	0.63940 0.26440 0.40060 -0.37400
O 	O 	0.77770 0.67610 0.19250 -0.28600
O 	O 	0.88030 0.62780 0.40800 -0.54000
O 	O 	0.55750 0.60260 0.37570 -0.54800
O 	O 	0.08420 0.88020 0.70910 -0.26400
O 	O 	0.03750 0.68000 0.64250 -0.40000
O 	O 	0.36060 0.73560 0.59940 -0.37400
