data_crystal

_cell_length_a 13.01770
_cell_length_b 13.01770
_cell_length_c 15.00200
_cell_angle_alpha 83.69560
_cell_angle_beta  83.69560
_cell_angle_gamma 61.73200

_symmetry_space_group_name_	'P 1'
_symmetry_space_group_name_H-M	'P 1'

loop_
_symmetry_equiv_pos_as_xyz
  x,y,z

loop_
_atom_site_label
_atom_site_type_symbol
_atom_site_fract_x
_atom_site_fract_y
_atom_site_fract_z
_atom_site_charge
Eu	Eu	0.98978 0.34902 0.52719 1.80300
Eu	Eu	0.34902 0.98978 0.02719 1.78400
Eu	Eu	0.01022 0.65098 0.47281 1.80300
Eu	Eu	0.65098 0.01022 0.97281 1.78400
H 	H 	0.78090 0.73530 0.23550 0.01800
H 	H 	0.70280 0.52040 0.64170 0.02400
H 	H 	0.70910 0.47650 0.33830 0.06400
H 	H 	0.29090 0.52350 0.66170 0.06400
H 	H 	0.52350 0.29090 0.16170 0.06500
H 	H 	0.29720 0.47960 0.35830 0.02400
H 	H 	0.47960 0.29720 0.85830 0.02400
H 	H 	0.73530 0.78090 0.73550 0.01900
H 	H 	0.26470 0.21910 0.26450 0.01900
H 	H 	0.52040 0.70280 0.14170 0.02400
H 	H 	0.21910 0.26470 0.76450 0.01800
H 	H 	0.47650 0.70910 0.83830 0.06500
C 	C 	0.67680 0.58060 0.68010 0.01100
C 	C 	0.30390 0.26330 0.26350 0.07400
C 	C 	0.46660 0.47920 0.75280 0.00100
C 	C 	0.53340 0.52080 0.24720 0.00100
C 	C 	0.82970 0.63750 0.60640 0.43500
C 	C 	0.52080 0.53340 0.74720 0.00100
C 	C 	0.47920 0.46660 0.25280 0.00100
C 	C 	0.39820 0.41800 0.75810 -0.00800
C 	C 	0.41940 0.32320 0.81990 0.01200
C 	C 	0.69240 0.54240 0.29940 0.00800
C 	C 	0.34980 0.26740 0.82400 -0.14900
C 	C 	0.56260 0.85300 0.86240 0.46100
C 	C 	0.41800 0.39820 0.25810 -0.00700
C 	C 	0.30760 0.45760 0.70060 0.00800
C 	C 	0.24240 0.39820 0.70180 -0.14100
C 	C 	0.45760 0.30760 0.20060 0.00700
C 	C 	0.73670 0.69610 0.23650 0.07500
C 	C 	0.39820 0.24240 0.20180 -0.13900
C 	C 	0.85300 0.56260 0.36240 0.46400
C 	C 	0.60180 0.58200 0.24190 -0.00800
C 	C 	0.32320 0.41940 0.31990 0.01100
C 	C 	0.60180 0.75760 0.79820 -0.13900
C 	C 	0.69610 0.73670 0.73650 0.07400
C 	C 	0.26330 0.30390 0.76350 0.07500
C 	C 	0.73260 0.65020 0.67600 -0.14800
C 	C 	0.54240 0.69240 0.79940 0.00700
C 	C 	0.14700 0.43740 0.63760 0.46400
C 	C 	0.75760 0.60180 0.29820 -0.14100
C 	C 	0.58060 0.67680 0.18010 0.01200
C 	C 	0.36250 0.17030 0.89360 0.43500
C 	C 	0.63750 0.82970 0.10640 0.43500
C 	C 	0.58200 0.60180 0.74190 -0.00700
C 	C 	0.17030 0.36250 0.39360 0.43500
C 	C 	0.65020 0.73260 0.17600 -0.14900
C 	C 	0.26740 0.34980 0.32400 -0.14800
C 	C 	0.43740 0.14700 0.13760 0.46100
N 	N 	0.82870 0.27490 0.46990 0.06900
N 	N 	0.72510 0.17130 0.03010 0.07200
N 	N 	0.27490 0.82870 0.96990 0.07200
N 	N 	0.17130 0.72510 0.53010 0.06900
O 	O 	0.06150 0.78130 0.54660 -0.28700
O 	O 	0.89360 0.45860 0.39680 -0.45600
O 	O 	0.21870 0.93850 0.95340 -0.28100
O 	O 	0.74090 0.24030 0.06800 -0.11800
O 	O 	0.88300 0.63560 0.37860 -0.51800
O 	O 	0.71880 0.85440 0.09140 -0.46100
O 	O 	0.45860 0.89360 0.89680 -0.44900
O 	O 	0.14560 0.28120 0.40860 -0.46000
O 	O 	0.78130 0.06150 0.04660 -0.28100
O 	O 	0.11700 0.36440 0.62140 -0.51800
O 	O 	0.25910 0.75970 0.93200 -0.11800
O 	O 	0.93850 0.21870 0.45340 -0.28700
O 	O 	0.11740 0.45540 0.43460 -0.55500
O 	O 	0.79410 0.35310 0.52320 -0.27900
O 	O 	0.28120 0.14560 0.90860 -0.46100
O 	O 	0.85440 0.71880 0.59140 -0.46000
O 	O 	0.54140 0.10640 0.10320 -0.44900
O 	O 	0.54460 0.88260 0.06540 -0.55500
O 	O 	0.20590 0.64690 0.47680 -0.27900
O 	O 	0.45540 0.11740 0.93460 -0.55500
O 	O 	0.24030 0.74090 0.56800 -0.12000
O 	O 	0.36440 0.11700 0.12140 -0.51200
O 	O 	0.64690 0.20590 0.97680 -0.28300
O 	O 	0.35310 0.79410 0.02320 -0.28300
O 	O 	0.88260 0.54460 0.56540 -0.55500
O 	O 	0.63560 0.88300 0.87860 -0.51200
O 	O 	0.75970 0.25910 0.43200 -0.12000
O 	O 	0.10640 0.54140 0.60320 -0.45600
