data_crystal

_cell_length_a 12.97310
_cell_length_b 12.97310
_cell_length_c 14.78100
_cell_angle_alpha 83.84000
_cell_angle_beta  83.84000
_cell_angle_gamma 62.22520

_symmetry_space_group_name_	'P 1'
_symmetry_space_group_name_H-M	'P 1'

loop_
_symmetry_equiv_pos_as_xyz
  x,y,z

loop_
_atom_site_label
_atom_site_type_symbol
_atom_site_fract_x
_atom_site_fract_y
_atom_site_fract_z
_atom_site_charge
Tb	Tb	0.01177 0.64992 0.47276 1.75500
Tb	Tb	0.98823 0.35008 0.52724 1.75500
Tb	Tb	0.64992 0.01177 0.97276 1.73600
Tb	Tb	0.35008 0.98823 0.02724 1.73600
H 	H 	0.78200 0.73560 0.23520 0.01500
H 	H 	0.47610 0.71130 0.83850 0.06300
H 	H 	0.70530 0.51850 0.64340 0.02300
H 	H 	0.73560 0.78200 0.73520 0.01600
H 	H 	0.21800 0.26440 0.76480 0.01500
H 	H 	0.28870 0.52390 0.66150 0.06200
H 	H 	0.51850 0.70530 0.14340 0.02300
H 	H 	0.71130 0.47610 0.33850 0.06200
H 	H 	0.48150 0.29470 0.85660 0.02300
H 	H 	0.29470 0.48150 0.35660 0.02300
H 	H 	0.26440 0.21800 0.26480 0.01600
H 	H 	0.52390 0.28870 0.16150 0.06300
C 	C 	0.43810 0.14610 0.13710 0.46600
C 	C 	0.58160 0.60140 0.74250 -0.01200
C 	C 	0.64910 0.73390 0.17700 -0.16000
C 	C 	0.30620 0.45760 0.70070 0.01600
C 	C 	0.35090 0.26610 0.82300 -0.16000
C 	C 	0.53280 0.52100 0.24670 0.00400
C 	C 	0.30363 0.26263 0.26350 0.08900
C 	C 	0.56190 0.85390 0.86290 0.46600
C 	C 	0.45760 0.30620 0.20070 0.01400
C 	C 	0.32180 0.42020 0.31860 0.02200
C 	C 	0.69380 0.54240 0.29930 0.01600
C 	C 	0.24060 0.39820 0.70240 -0.15000
C 	C 	0.85390 0.56190 0.36290 0.46800
C 	C 	0.60140 0.58160 0.24250 -0.01300
C 	C 	0.39820 0.24060 0.20240 -0.14800
C 	C 	0.60180 0.75940 0.79760 -0.14800
C 	C 	0.16800 0.36640 0.39310 0.45300
C 	C 	0.42020 0.32180 0.81860 0.02200
C 	C 	0.69637 0.73737 0.73650 0.08900
C 	C 	0.47900 0.46720 0.25330 0.00300
C 	C 	0.41840 0.39860 0.25750 -0.01200
C 	C 	0.73737 0.69637 0.23650 0.09000
C 	C 	0.67820 0.57980 0.68140 0.02200
C 	C 	0.36640 0.16800 0.89310 0.45300
C 	C 	0.63360 0.83200 0.10690 0.45300
C 	C 	0.73390 0.64910 0.67700 -0.16000
C 	C 	0.46720 0.47900 0.75330 0.00400
C 	C 	0.52100 0.53280 0.74670 0.00300
C 	C 	0.54240 0.69380 0.79930 0.01400
C 	C 	0.26610 0.35090 0.32300 -0.16000
C 	C 	0.39860 0.41840 0.75750 -0.01300
C 	C 	0.57980 0.67820 0.18140 0.02200
C 	C 	0.83200 0.63360 0.60690 0.45300
C 	C 	0.14610 0.43810 0.63710 0.46800
C 	C 	0.75940 0.60180 0.29760 -0.15000
C 	C 	0.26263 0.30363 0.76350 0.09000
N 	N 	0.27590 0.82990 0.96740 0.07100
N 	N 	0.72410 0.17010 0.03260 0.07100
N 	N 	0.17010 0.72410 0.53260 0.06900
N 	N 	0.82990 0.27590 0.46740 0.06900
O 	O 	0.36433 0.11453 0.12080 -0.50500
O 	O 	0.71471 0.85751 0.08960 -0.46300
O 	O 	0.06210 0.77790 0.54860 -0.28300
O 	O 	0.77790 0.06210 0.04860 -0.27700
O 	O 	0.88547 0.63567 0.37920 -0.51100
O 	O 	0.14249 0.28529 0.41040 -0.46200
O 	O 	0.74390 0.23850 0.06980 -0.11500
O 	O 	0.76150 0.25610 0.43020 -0.11700
O 	O 	0.25610 0.76150 0.93020 -0.11500
O 	O 	0.11453 0.36433 0.62080 -0.51100
O 	O 	0.54078 0.88358 0.06640 -0.55300
O 	O 	0.45922 0.11642 0.93360 -0.55300
O 	O 	0.45859 0.89519 0.89600 -0.44800
O 	O 	0.22210 0.93790 0.95140 -0.27700
O 	O 	0.11642 0.45922 0.43360 -0.55400
O 	O 	0.88358 0.54078 0.56640 -0.55400
O 	O 	0.10481 0.54141 0.60400 -0.45400
O 	O 	0.63567 0.88547 0.87920 -0.50500
O 	O 	0.64510 0.20670 0.97750 -0.27600
O 	O 	0.20670 0.64510 0.47750 -0.27200
O 	O 	0.85751 0.71471 0.58960 -0.46200
O 	O 	0.23850 0.74390 0.56980 -0.11700
O 	O 	0.79330 0.35490 0.52250 -0.27200
O 	O 	0.89519 0.45859 0.39600 -0.45400
O 	O 	0.35490 0.79330 0.02250 -0.27600
O 	O 	0.28529 0.14249 0.91040 -0.46300
O 	O 	0.54141 0.10481 0.10400 -0.44800
O 	O 	0.93790 0.22210 0.45140 -0.28300
