data_crystal

_cell_length_a 12.25400
_cell_length_b 20.62000
_cell_length_c 7.80400
_cell_angle_alpha 90.00000
_cell_angle_beta  90.00000
_cell_angle_gamma 90.00000

_symmetry_space_group_name_	'P 1'
_symmetry_space_group_name_H-M	'P 1'

loop_
_symmetry_equiv_pos_as_xyz
  x,y,z

loop_
_atom_site_label
_atom_site_type_symbol
_atom_site_fract_x
_atom_site_fract_y
_atom_site_fract_z
_atom_site_charge
N 	N 	0.28840 0.20770 0.21740 -0.16500
N 	N 	0.03710 0.15480 0.22600 -0.15300
C 	C 	0.33350 0.23260 0.32790 -0.24700
C 	C 	0.98730 0.18020 0.33350 -0.25900
C 	C 	0.23100 0.35620 0.03600 -0.44300
C 	C 	0.33000 0.03800 0.04180 -0.62800
H 	H 	0.02601 0.27267 0.11262 0.04100
H 	H 	0.07016 0.36071 0.09038 0.96700
H 	H 	0.10370 0.35227 0.87253 -0.45400
H 	H 	0.17072 0.33848 0.11262 0.48500
H 	H 	0.28530 0.32698 0.96038 -0.24800
H 	H 	0.24064 0.34753 0.17011 -0.05300
H 	H 	0.20692 0.45224 0.09184 -0.00300
H 	H 	0.22282 0.43400 0.87423 0.25200
H 	H 	0.39617 0.43836 0.11262 0.08700
H 	H 	0.07822 0.03594 0.11262 -0.04300
H 	H 	0.26453 0.06351 0.11262 0.32600
H 	H 	0.18103 0.04975 0.11262 -0.07100
N 	N 	0.71160 0.79230 0.21740 -0.16600
N 	N 	0.96290 0.84520 0.22600 -0.15400
C 	C 	0.66650 0.76740 0.32790 -0.24800
C 	C 	0.01270 0.81980 0.33350 -0.26000
C 	C 	0.76900 0.64380 0.03600 -0.44400
C 	C 	0.67000 0.96200 0.04180 -0.62900
H 	H 	0.97399 0.72733 0.11262 0.04100
H 	H 	0.92984 0.63929 0.09038 0.96700
H 	H 	0.89630 0.64773 0.87253 -0.45400
H 	H 	0.82928 0.66152 0.11262 0.48500
H 	H 	0.71470 0.67302 0.96038 -0.24800
H 	H 	0.75936 0.65247 0.17011 -0.05300
H 	H 	0.79308 0.54776 0.09184 -0.00300
H 	H 	0.77718 0.56600 0.87423 0.25200
H 	H 	0.60383 0.56164 0.11262 0.08700
H 	H 	0.92178 0.96406 0.11262 -0.04300
H 	H 	0.73547 0.93649 0.11262 0.32600
H 	H 	0.81897 0.95025 0.11262 -0.07100
N 	N 	0.21160 0.70770 0.78260 -0.20900
N 	N 	0.46290 0.65480 0.77400 -0.19100
C 	C 	0.16650 0.73260 0.67210 -0.25400
C 	C 	0.51270 0.68020 0.66650 -0.26700
C 	C 	0.26900 0.85620 0.96400 -0.12000
C 	C 	0.17000 0.53800 0.95820 1.36900
H 	H 	0.47399 0.77267 0.88738 -0.04500
H 	H 	0.42984 0.86071 0.90962 0.46900
H 	H 	0.39630 0.85227 0.12747 -0.92800
H 	H 	0.32928 0.83848 0.88738 0.20800
H 	H 	0.21470 0.82698 0.03962 0.40800
H 	H 	0.25936 0.84753 0.82989 -0.01400
H 	H 	0.29308 0.95224 0.90816 -0.47800
H 	H 	0.27718 0.93400 0.12577 -0.03500
H 	H 	0.10383 0.93836 0.88738 -0.00100
H 	H 	0.42178 0.53594 0.88738 -0.12500
H 	H 	0.23547 0.56351 0.88738 -0.18900
H 	H 	0.31897 0.54975 0.88738 -0.04900
N 	N 	0.78840 0.29230 0.78260 -0.20900
N 	N 	0.53710 0.34520 0.77400 -0.19100
C 	C 	0.83350 0.26740 0.67210 -0.25400
C 	C 	0.48730 0.31980 0.66650 -0.26700
C 	C 	0.73100 0.14380 0.96400 -0.12000
C 	C 	0.83000 0.46200 0.95820 1.36900
H 	H 	0.52601 0.22733 0.88738 -0.04500
H 	H 	0.57016 0.13929 0.90962 0.46900
H 	H 	0.60370 0.14773 0.12747 -0.92800
H 	H 	0.67072 0.16152 0.88738 0.20800
H 	H 	0.78530 0.17302 0.03962 0.40800
H 	H 	0.74064 0.15247 0.82989 -0.01400
H 	H 	0.70692 0.04776 0.90816 -0.47800
H 	H 	0.72282 0.06600 0.12577 -0.03500
H 	H 	0.89617 0.06164 0.88738 -0.00100
H 	H 	0.57822 0.46406 0.88738 -0.12500
H 	H 	0.76453 0.43649 0.88738 -0.18900
H 	H 	0.68103 0.45025 0.88738 -0.04900
N 	N 	0.71160 0.79230 0.78260 -0.20900
N 	N 	0.96290 0.84520 0.77400 -0.19100
C 	C 	0.66650 0.76740 0.67210 -0.25400
C 	C 	0.01270 0.81980 0.66650 -0.26700
C 	C 	0.76900 0.64380 0.96400 -0.11900
C 	C 	0.67000 0.96200 0.95820 1.36800
H 	H 	0.97399 0.72733 0.88738 -0.04500
H 	H 	0.92984 0.63929 0.90962 0.45500
H 	H 	0.89630 0.64773 0.12747 -0.91400
H 	H 	0.82928 0.66152 0.88738 0.20200
H 	H 	0.71470 0.67302 0.03962 0.40900
H 	H 	0.75936 0.65247 0.82989 -0.01300
H 	H 	0.79308 0.54776 0.90816 -0.47500
H 	H 	0.77718 0.56600 0.12577 -0.03900
H 	H 	0.60383 0.56164 0.88738 -0.00200
H 	H 	0.92178 0.96406 0.88738 -0.12300
H 	H 	0.73547 0.93649 0.88738 -0.18800
H 	H 	0.81897 0.95025 0.88738 -0.04800
N 	N 	0.28840 0.20770 0.78260 -0.20900
N 	N 	0.03710 0.15480 0.77400 -0.19100
C 	C 	0.33350 0.23260 0.67210 -0.25400
C 	C 	0.98730 0.18020 0.66650 -0.26700
C 	C 	0.23100 0.35620 0.96400 -0.11900
C 	C 	0.33000 0.03800 0.95820 1.36800
H 	H 	0.02601 0.27267 0.88738 -0.04500
H 	H 	0.07016 0.36071 0.90962 0.45500
H 	H 	0.10370 0.35227 0.12747 -0.91400
H 	H 	0.17072 0.33848 0.88738 0.20200
H 	H 	0.28530 0.32698 0.03962 0.40900
H 	H 	0.24064 0.34753 0.82989 -0.01300
H 	H 	0.20692 0.45224 0.90816 -0.47500
H 	H 	0.22282 0.43400 0.12577 -0.03900
H 	H 	0.39617 0.43836 0.88738 -0.00200
H 	H 	0.07822 0.03594 0.88738 -0.12300
H 	H 	0.26453 0.06351 0.88738 -0.18800
H 	H 	0.18103 0.04975 0.88738 -0.04800
N 	N 	0.78840 0.29230 0.21740 -0.16600
N 	N 	0.53710 0.34520 0.22600 -0.15300
C 	C 	0.83350 0.26740 0.32790 -0.24900
C 	C 	0.48730 0.31980 0.33350 -0.26000
C 	C 	0.73100 0.14380 0.03600 -0.44500
C 	C 	0.83000 0.46200 0.04180 -0.63200
H 	H 	0.52601 0.22733 0.11262 0.04200
H 	H 	0.57016 0.13929 0.09038 0.98400
H 	H 	0.60370 0.14773 0.87253 -0.46500
H 	H 	0.67072 0.16152 0.11262 0.49300
H 	H 	0.78530 0.17302 0.96038 -0.24600
H 	H 	0.74064 0.15247 0.17011 -0.05500
H 	H 	0.70692 0.04776 0.09184 -0.00800
H 	H 	0.72282 0.06600 0.87423 0.25500
H 	H 	0.89617 0.06164 0.11262 0.08700
H 	H 	0.57822 0.46406 0.11262 -0.04400
H 	H 	0.76453 0.43649 0.11262 0.32600
H 	H 	0.68103 0.45025 0.11262 -0.07100
N 	N 	0.21160 0.70770 0.21740 -0.16600
N 	N 	0.46290 0.65480 0.22600 -0.15300
C 	C 	0.16650 0.73260 0.32790 -0.24900
C 	C 	0.51270 0.68020 0.33350 -0.26000
C 	C 	0.26900 0.85620 0.03600 -0.44500
C 	C 	0.17000 0.53800 0.04180 -0.63200
H 	H 	0.47399 0.77267 0.11262 0.04200
H 	H 	0.42984 0.86071 0.09038 0.98400
H 	H 	0.39630 0.85227 0.87253 -0.46500
H 	H 	0.32928 0.83848 0.11262 0.49300
H 	H 	0.21470 0.82698 0.96038 -0.24600
H 	H 	0.25936 0.84753 0.17011 -0.05500
H 	H 	0.29308 0.95224 0.09184 -0.00800
H 	H 	0.27718 0.93400 0.87423 0.25500
H 	H 	0.10383 0.93836 0.11262 0.08700
H 	H 	0.42178 0.53594 0.11262 -0.04400
H 	H 	0.23547 0.56351 0.11262 0.32600
H 	H 	0.31897 0.54975 0.11262 -0.07100
Cd	Cd	0.16768 0.17723 -0.00000 1.22000
N 	N 	0.07730 0.27440 -0.00000 -0.19300
N 	N 	0.21570 0.07230 -0.00000 -0.17400
C 	C 	0.11920 0.33440 -0.00000 -0.08000
C 	C 	0.25500 0.42600 -0.00000 0.41700
C 	C 	0.35500 0.45610 -0.00000 -0.23300
C 	C 	0.12600 0.02560 -0.00000 0.26700
C 	C 	0.04000 0.39400 -0.00000 -0.54000
C 	C 	0.14500 0.47200 -0.00000 0.12200
C 	C 	0.33100 0.06100 -0.00000 -0.79600
Cd	Cd	0.83232 0.82277 -0.00000 1.22000
N 	N 	0.92270 0.72560 -0.00000 -0.19300
N 	N 	0.78430 0.92770 -0.00000 -0.17400
C 	C 	0.88080 0.66560 -0.00000 -0.08000
C 	C 	0.74500 0.57400 -0.00000 0.41700
C 	C 	0.64500 0.54390 -0.00000 -0.23300
C 	C 	0.87400 0.97440 -0.00000 0.26700
C 	C 	0.96000 0.60600 -0.00000 -0.54000
C 	C 	0.85500 0.52800 -0.00000 0.12200
C 	C 	0.66900 0.93900 -0.00000 -0.79600
Cd	Cd	0.33232 0.67723 -0.00000 1.22000
N 	N 	0.42270 0.77440 -0.00000 -0.19100
N 	N 	0.28430 0.57230 -0.00000 -0.17300
C 	C 	0.38080 0.83440 -0.00000 -0.08800
C 	C 	0.24500 0.92600 -0.00000 0.41700
C 	C 	0.14500 0.95610 -0.00000 -0.23400
C 	C 	0.37400 0.52560 -0.00000 0.27100
C 	C 	0.46000 0.89400 -0.00000 -0.55100
C 	C 	0.35500 0.97200 -0.00000 0.12600
C 	C 	0.16900 0.56100 -0.00000 -0.79400
Cd	Cd	0.66768 0.32277 -0.00000 1.22000
N 	N 	0.57730 0.22560 -0.00000 -0.19100
N 	N 	0.71570 0.42770 -0.00000 -0.17300
C 	C 	0.61920 0.16560 -0.00000 -0.08800
C 	C 	0.75500 0.07400 -0.00000 0.41700
C 	C 	0.85500 0.04390 -0.00000 -0.23400
C 	C 	0.62600 0.47440 -0.00000 0.27100
C 	C 	0.54000 0.10600 -0.00000 -0.55100
C 	C 	0.64500 0.02800 -0.00000 0.12600
C 	C 	0.83100 0.43900 -0.00000 -0.79400
Ni	Ni	0.40868 0.27655 0.50000 1.05500
Ni	Ni	0.59132 0.72345 0.50000 1.05500
Ni	Ni	0.09132 0.77655 0.50000 1.05500
Ni	Ni	0.90868 0.22345 0.50000 1.05500
