data_crystal

_cell_length_a 7.10100
_cell_length_b 7.62600
_cell_length_c 11.31560
_cell_angle_alpha 90.00000
_cell_angle_beta  106.60300
_cell_angle_gamma 90.00000

_symmetry_space_group_name_	'P 1'
_symmetry_space_group_name_H-M	'P 1'

loop_
_symmetry_equiv_pos_as_xyz
  x,y,z

loop_
_atom_site_label
_atom_site_type_symbol
_atom_site_fract_x
_atom_site_fract_y
_atom_site_fract_z
_atom_site_charge
Cd	Cd	-0.00000 0.00000 -0.00000 1.07200
Ni	Ni	0.50000 0.50000 -0.00000 0.95800
H 	H 	0.82099 0.88475 0.75741 0.08100
H 	H 	0.53912 0.88475 0.83291 0.05200
H 	H 	0.48928 0.88475 0.60835 0.04700
H 	H 	0.19702 0.88475 0.68800 0.01300
H 	H 	0.17901 0.88475 0.24259 0.01400
H 	H 	0.46088 0.88475 0.16709 -0.02600
H 	H 	0.51072 0.88475 0.39165 0.03500
H 	H 	0.80298 0.88475 0.31200 0.06400
H 	H 	0.17901 0.11525 0.24259 0.00600
H 	H 	0.46088 0.11525 0.16709 -0.03300
H 	H 	0.51072 0.11525 0.39165 0.03100
H 	H 	0.80298 0.11525 0.31200 0.06100
H 	H 	0.82099 0.11525 0.75741 0.08100
H 	H 	0.53912 0.11525 0.83291 0.05000
H 	H 	0.48928 0.11525 0.60835 0.04300
H 	H 	0.19702 0.11525 0.68800 0.00800
C 	C 	0.69310 0.67130 0.03800 -0.34300
C 	C 	0.30690 0.67130 0.96200 -0.10600
C 	C 	0.30690 0.32870 0.96200 -0.10500
C 	C 	0.69310 0.32870 0.03800 -0.34500
C 	C 	0.57590 -0.00000 0.78790 -0.02900
C 	C 	0.45280 -0.00000 0.65480 -0.09500
C 	C 	0.23340 -0.00000 0.64240 -0.04600
C 	C 	0.11050 0.00000 0.50650 -0.15200
C 	C 	0.42410 0.00000 0.21210 -0.03800
C 	C 	0.54720 0.00000 0.34520 -0.07100
C 	C 	0.76660 0.00000 0.35760 -0.12200
C 	C 	0.88950 0.00000 0.49350 0.09400
N 	N 	0.81180 0.77700 0.05730 -0.17100
N 	N 	0.18820 0.77700 0.94270 -0.16400
N 	N 	0.18820 0.22300 0.94270 -0.16500
N 	N 	0.81180 0.22300 0.05730 -0.17400
N 	N 	0.78790 0.00000 0.80510 -0.22500
N 	N 	0.21210 0.00000 0.19490 -0.30000
