data_crystal

_cell_length_a 11.52000
_cell_length_b 7.63200
_cell_length_c 7.03900
_cell_angle_alpha 88.93000
_cell_angle_beta  109.71000
_cell_angle_gamma 82.81000

_symmetry_space_group_name_	'P 1'
_symmetry_space_group_name_H-M	'P 1'

loop_
_symmetry_equiv_pos_as_xyz
  x,y,z

loop_
_atom_site_label
_atom_site_type_symbol
_atom_site_fract_x
_atom_site_fract_y
_atom_site_fract_z
_atom_site_charge
N 	N 	0.04660 0.21740 0.23570 -0.22300
N 	N 	0.92770 0.23270 0.74150 -0.14400
N 	N 	0.80400 0.01440 0.01510 -0.30600
C 	C 	0.03090 0.32340 0.33790 -0.36200
C 	C 	0.95140 0.33580 0.64580 -0.09800
C 	C 	0.78690 0.02500 0.21380 -0.08300
C 	C 	0.65460 0.01850 0.20110 -0.12400
C 	C 	0.64200 0.01710 0.41190 -0.08000
C 	C 	0.50840 0.00290 0.39740 -0.19000
H 	H 	0.74813 0.13030 0.92192 0.08500
H 	H 	0.76587 0.89807 0.94898 0.11600
H 	H 	0.81530 0.14743 0.27624 0.05000
H 	H 	0.84633 0.91549 0.31288 0.08100
H 	H 	0.59517 0.13300 0.10968 0.02600
H 	H 	0.62326 0.90048 0.12885 0.05600
H 	H 	0.66904 0.13788 0.48136 0.03300
H 	H 	0.70734 0.90586 0.50500 0.06000
H 	H 	0.44748 0.11565 0.30590 0.04400
H 	H 	0.48130 0.88358 0.32424 0.07600
N 	N 	0.95340 0.78260 0.76430 -0.13000
N 	N 	0.07230 0.76730 0.25850 -0.19400
N 	N 	0.19600 0.98560 0.98490 -0.21100
C 	C 	0.96910 0.67660 0.66210 -0.08800
C 	C 	0.04860 0.66420 0.35420 -0.35800
C 	C 	0.21310 0.97500 0.78620 0.03700
C 	C 	0.34540 0.98150 0.79890 -0.04900
C 	C 	0.35800 0.98290 0.58810 -0.04200
C 	C 	0.49160 0.99710 0.60260 0.04200
H 	H 	0.25187 0.86970 0.07808 0.00100
H 	H 	0.23413 0.10193 0.05102 -0.03900
H 	H 	0.18470 0.85257 0.72376 -0.02900
H 	H 	0.15367 0.08451 0.68712 -0.07600
H 	H 	0.40483 0.86700 0.89032 0.04500
H 	H 	0.37674 0.09952 0.87115 0.01200
H 	H 	0.33096 0.86212 0.51864 0.02300
H 	H 	0.29266 0.09414 0.49500 -0.01300
H 	H 	0.55252 0.88435 0.69410 0.01900
H 	H 	0.51870 0.11642 0.67576 -0.01200
Cd	Cd	-0.00000 0.00000 -0.00000 1.08300
Ni	Ni	0.00000 0.50000 0.50000 0.96200
