data_crystal

_cell_length_a 27.93400
_cell_length_b 27.93400
_cell_length_c 28.49680
_cell_angle_alpha 60.65110
_cell_angle_beta  60.65110
_cell_angle_gamma 89.99990

_symmetry_space_group_name_	'P 1'
_symmetry_space_group_name_H-M	'P 1'

loop_
_symmetry_equiv_pos_as_xyz
  x,y,z

loop_
_atom_site_label
_atom_site_type_symbol
_atom_site_fract_x
_atom_site_fract_y
_atom_site_fract_z
_atom_site_charge
Cu	Cu	0.03891 0.31187 0.72554 0.90700
Cu	Cu	0.23555 0.96259 0.72554 0.90900
Cu	Cu	0.92643 0.72410 -0.00000 0.90900
Cu	Cu	0.94986 0.58477 0.36432 0.90700
Cu	Cu	0.96109 0.68813 0.27446 0.90800
Cu	Cu	0.68813 0.76445 0.27446 0.90700
Cu	Cu	0.68582 0.05091 0.36432 0.90500
Cu	Cu	0.36792 0.90416 -0.00000 0.88000
Cu	Cu	0.31418 0.94909 0.63568 0.90600
Cu	Cu	0.96259 0.03891 0.72554 0.90600
Cu	Cu	0.90416 0.63208 -0.00000 0.87900
Cu	Cu	0.63208 0.09584 -0.00000 0.87900
Cu	Cu	0.58477 0.68582 0.36432 0.90500
Cu	Cu	0.31187 0.23555 0.72554 0.90700
Cu	Cu	0.76445 0.03741 0.27446 0.90500
Cu	Cu	0.72410 0.07357 -0.00000 0.90700
Cu	Cu	0.07357 0.27590 -0.00000 0.90700
Cu	Cu	0.27590 0.92643 -0.00000 0.90800
Cu	Cu	0.05014 0.41523 0.63568 0.90400
Cu	Cu	0.09584 0.36792 -0.00000 0.87900
Cu	Cu	0.03741 0.96109 0.27446 0.90500
Cu	Cu	0.41523 0.31418 0.63568 0.90500
Cu	Cu	0.05091 0.94986 0.36432 0.90400
Cu	Cu	0.94909 0.05014 0.63568 0.90400
H 	H 	0.23880 0.48760 0.51000 0.09400
H 	H 	0.49370 0.24060 0.74220 0.10100
H 	H 	0.08830 0.14830 0.15160 0.07200
H 	H 	0.95480 0.62340 0.48900 0.08200
H 	H 	0.86840 0.98120 0.34680 0.07300
H 	H 	0.88760 0.95480 0.48900 0.08200
H 	H 	0.28440 0.72840 0.16500 0.09100
H 	H 	0.80270 0.05870 0.84000 0.07500
H 	H 	0.51240 0.74880 0.49000 0.09500
H 	H 	0.16200 0.61500 0.83700 0.14100
H 	H 	0.54800 0.16200 0.83700 0.14100
H 	H 	0.61440 0.46210 0.55620 0.13600
H 	H 	0.52150 0.91660 0.11880 0.07100
H 	H 	0.71560 0.27160 0.83500 0.10100
H 	H 	0.08770 0.12560 0.30360 0.08000
H 	H 	0.76010 0.70010 0.15160 0.07300
H 	H 	0.98120 0.78480 0.34680 0.07300
H 	H 	0.74880 0.99760 0.49000 0.09700
H 	H 	0.98170 0.61440 0.55620 0.13700
H 	H 	0.57080 0.08770 0.30360 0.08000
H 	H 	0.76120 0.51240 0.49000 0.09500
H 	H 	0.01720 0.49370 0.74220 0.09900
H 	H 	0.39130 0.42920 0.69640 0.08400
H 	H 	0.05870 0.35730 0.84000 0.07500
H 	H 	0.13160 0.01880 0.65320 0.06800
H 	H 	0.50630 0.75940 0.25780 0.09700
H 	H 	0.35970 0.96460 0.11880 0.07100
H 	H 	0.89340 0.71560 0.83500 0.10200
H 	H 	0.25120 0.00240 0.51000 0.09200
H 	H 	0.55060 0.10660 0.16500 0.09000
H 	H 	0.23590 0.98280 0.25780 0.09800
H 	H 	0.03540 0.47850 0.88120 0.08400
H 	H 	0.64270 0.89870 0.16000 0.07500
H 	H 	0.58770 0.49120 0.30100 0.13600
H 	H 	0.76410 0.01720 0.74220 0.09900
H 	H 	0.72840 0.55060 0.16500 0.09100
H 	H 	0.45200 0.83800 0.16300 0.13000
H 	H 	0.60870 0.57080 0.30360 0.08100
H 	H 	0.20780 0.58770 0.30100 0.13500
H 	H 	0.53790 0.17060 0.44380 0.13400
H 	H 	0.78480 0.67200 0.34680 0.07000
H 	H 	0.87440 0.39130 0.69640 0.08400
H 	H 	0.35730 0.10130 0.84000 0.07500
H 	H 	0.29990 0.91170 0.84840 0.07800
H 	H 	0.50880 0.88870 0.69900 0.14100
H 	H 	0.64030 0.03540 0.88120 0.08400
H 	H 	0.88870 0.79220 0.69900 0.14100
H 	H 	0.98280 0.50630 0.25780 0.09900
H 	H 	0.38560 0.53790 0.44380 0.13400
H 	H 	0.24060 0.76410 0.74220 0.10100
H 	H 	0.01830 0.38560 0.44380 0.13400
H 	H 	0.67200 0.86840 0.34680 0.07000
H 	H 	0.46210 0.82940 0.55620 0.13600
H 	H 	0.83800 0.38500 0.16300 0.13000
H 	H 	0.11240 0.04520 0.51100 0.07800
H 	H 	0.10130 0.80270 0.84000 0.07500
H 	H 	0.89870 0.19730 0.16000 0.07400
H 	H 	0.99760 0.76120 0.49000 0.09700
H 	H 	0.42920 0.91230 0.69640 0.08400
H 	H 	0.99900 0.45200 0.16300 0.13100
H 	H 	0.12560 0.60870 0.30360 0.08000
H 	H 	0.91170 0.85170 0.84840 0.08000
H 	H 	0.32800 0.13160 0.65320 0.06900
H 	H 	0.21520 0.32800 0.65320 0.07000
H 	H 	0.79220 0.41230 0.69900 0.14100
H 	H 	0.96460 0.52150 0.11880 0.07100
H 	H 	0.61500 0.00100 0.83700 0.14000
H 	H 	0.37660 0.44380 0.51100 0.08000
H 	H 	0.91230 0.87440 0.69640 0.08500
H 	H 	0.44940 0.89340 0.83500 0.10100
H 	H 	0.04520 0.37660 0.51100 0.07900
H 	H 	0.94130 0.64270 0.16000 0.07500
H 	H 	0.47850 0.08340 0.88120 0.08400
H 	H 	0.23990 0.29990 0.84840 0.07800
H 	H 	0.85170 0.23990 0.84840 0.07900
H 	H 	0.75940 0.23590 0.25780 0.09700
H 	H 	0.91660 0.35970 0.11880 0.07000
H 	H 	0.38500 0.99900 0.16300 0.13100
H 	H 	0.19730 0.94130 0.16000 0.07400
H 	H 	0.48760 0.25120 0.51000 0.09400
H 	H 	0.11130 0.20780 0.30100 0.13500
H 	H 	0.00240 0.23880 0.51000 0.09200
H 	H 	0.70010 0.08830 0.15160 0.07200
H 	H 	0.10660 0.28440 0.16500 0.09000
H 	H 	0.17060 0.01830 0.44380 0.13300
H 	H 	0.00100 0.54800 0.83700 0.14000
H 	H 	0.49120 0.11130 0.30100 0.13500
H 	H 	0.41230 0.50880 0.69900 0.14000
H 	H 	0.55620 0.88760 0.48900 0.08100
H 	H 	0.44380 0.11240 0.51100 0.07900
H 	H 	0.01880 0.21520 0.65320 0.06800
H 	H 	0.08340 0.64030 0.88120 0.08400
H 	H 	0.14830 0.76010 0.15160 0.07200
H 	H 	0.27160 0.44940 0.83500 0.10100
H 	H 	0.82940 0.98170 0.55620 0.13700
H 	H 	0.62340 0.55620 0.48900 0.08100
C 	C 	0.92295 0.73224 0.71410 0.21400
C 	C 	0.98981 0.74568 0.47042 -0.09600
C 	C 	0.46023 0.21610 0.52958 -0.09300
C 	C 	0.02161 0.49286 0.81186 0.13500
C 	C 	0.47433 0.18503 0.50168 0.13300
C 	C 	0.73224 0.36295 0.71410 0.21300
C 	C 	0.73535 0.66235 0.17420 -0.01500
C 	C 	0.24183 0.65253 0.76874 0.21300
C 	C 	0.78258 0.59426 0.41346 -0.03500
C 	C 	0.22171 0.75267 0.15000 -0.03900
C 	C 	0.79950 0.24768 0.22544 -0.09300
C 	C 	0.01057 0.42127 0.23126 0.20300
C 	C 	0.84981 0.35437 0.73566 -0.09900
C 	C 	0.04147 0.32363 0.62004 0.34100
C 	C 	0.24768 0.97506 0.22544 -0.09400
C 	C 	0.31867 0.35933 0.76808 -0.03000
C 	C 	0.36539 0.14501 0.61490 -0.01400
C 	C 	0.64067 0.08675 0.23192 -0.03800
C 	C 	0.33604 0.43414 0.53026 -0.09600
C 	C 	0.44847 0.90335 0.75956 0.13900
C 	C 	0.96044 0.57674 0.21532 -0.03300
C 	C 	0.66291 0.55153 0.24044 0.13000
C 	C 	0.91679 0.28041 0.13370 -0.04100
C 	C 	0.38817 0.66466 0.31528 0.20400
C 	C 	0.04465 0.34462 0.25490 0.20200
C 	C 	0.29955 0.59952 0.74510 0.20800
C 	C 	0.85499 0.98029 0.38510 -0.01700
C 	C 	0.94564 0.69391 0.65432 0.20500
C 	C 	0.33849 0.05633 0.62004 0.34100
C 	C 	0.42670 0.89894 0.81762 -0.09600
C 	C 	0.33534 0.70345 0.68472 0.20800
C 	C 	0.90235 0.74031 0.91000 0.34200
C 	C 	0.95535 0.65538 0.74510 0.20900
C 	C 	0.58589 0.91679 0.13370 -0.04100
C 	C 	0.29655 0.02006 0.31528 0.20300
C 	C 	0.71959 0.05049 0.86630 -0.02800
C 	C 	0.61183 0.33534 0.68472 0.20700
C 	C 	0.14637 0.95794 0.25500 0.33900
C 	C 	0.59996 0.34823 0.34568 0.20000
C 	C 	0.75817 0.34747 0.23126 0.20700
C 	C 	0.53977 0.78390 0.47042 -0.09300
C 	C 	0.04206 0.40137 0.74500 0.33900
C 	C 	0.57330 0.10106 0.18238 -0.09200
C 	C 	0.58547 0.09003 0.26434 -0.09600
C 	C 	0.93541 0.61829 0.08432 0.34200
C 	C 	0.55153 0.09665 0.24044 0.12900
C 	C 	0.05436 0.30609 0.34568 0.20000
C 	C 	0.24009 0.36539 0.61490 -0.01400
C 	C 	0.92524 0.93649 0.73806 0.34300
C 	C 	0.79197 0.33709 0.75956 0.13900
C 	C 	0.30609 0.59996 0.34568 0.20000
C 	C 	0.40574 0.19604 0.58654 -0.03600
C 	C 	0.40137 0.21294 0.74500 0.33900
C 	C 	0.18765 0.34969 0.91000 0.34200
C 	C 	0.00772 0.21742 0.58654 -0.04100
C 	C 	0.01019 0.25432 0.52958 -0.09100
C 	C 	0.02494 0.47312 0.77456 -0.09600
C 	C 	0.96420 0.53594 0.14304 -0.09200
C 	C 	0.11750 0.77568 0.83166 -0.01800
C 	C 	0.22713 0.98930 0.61996 0.34900
C 	C 	0.97053 0.65115 0.59994 0.21200
C 	C 	0.34969 0.90235 0.91000 0.34200
C 	C 	0.60734 0.88250 0.16834 -0.01500
C 	C 	0.20794 0.96044 0.21532 -0.03400
C 	C 	0.05084 0.39266 0.83166 -0.01600
C 	C 	0.62829 0.09733 0.15000 -0.03900
C 	C 	0.01971 0.24009 0.61490 -0.01100
C 	C 	0.02399 0.31329 0.50168 0.13200
C 	C 	0.18503 0.02399 0.50168 0.13100
C 	C 	0.07476 0.06351 0.26194 0.34400
C 	C 	0.87259 0.31867 0.76808 -0.02800
C 	C 	0.77568 0.05084 0.83166 -0.01600
C 	C 	0.59426 0.80396 0.41346 -0.03500
C 	C 	0.32363 0.33849 0.62004 0.34100
C 	C 	0.33765 0.90955 0.82580 -0.01800
C 	C 	0.83347 0.30472 0.18814 0.12500
C 	C 	0.03560 0.33604 0.53026 -0.09400
C 	C 	0.02947 0.34885 0.40006 0.20800
C 	C 	0.79206 0.03956 0.78468 -0.02900
C 	C 	0.25432 0.46023 0.52958 -0.09300
C 	C 	0.42326 0.17576 0.78468 -0.02700
C 	C 	0.75232 0.02494 0.77456 -0.09600
C 	C 	0.93649 0.33670 0.73806 0.34300
C 	C 	0.75267 0.62829 0.15000 -0.03800
C 	C 	0.03956 0.42326 0.78468 -0.02900
C 	C 	0.38001 0.11374 0.58690 -0.03600
C 	C 	0.98027 0.29739 0.08432 0.34700
C 	C 	0.35437 0.41453 0.73566 -0.09900
C 	C 	0.41453 0.90997 0.73566 -0.09900
C 	C 	0.95794 0.59863 0.25500 0.33900
C 	C 	0.65538 0.29955 0.74510 0.20800
C 	C 	0.46406 0.10724 0.85696 -0.09500
C 	C 	0.57674 0.82424 0.21532 -0.03400
C 	C 	0.98930 0.15291 0.61996 0.34900
C 	C 	0.59863 0.78706 0.25500 0.33900
C 	C 	0.14501 0.01971 0.61490 -0.01100
C 	C 	0.65115 0.42953 0.59994 0.21100
C 	C 	0.24432 0.71656 0.18238 -0.09200
C 	C 	0.88626 0.96691 0.41310 -0.03100
C 	C 	0.03309 0.29936 0.58690 -0.03800
C 	C 	0.53594 0.89276 0.14304 -0.09100
C 	C 	0.78390 0.98981 0.47042 -0.09600
C 	C 	0.65177 0.94564 0.65432 0.20400
C 	C 	0.34823 0.05436 0.34568 0.20000
C 	C 	0.47312 0.20050 0.77456 -0.09600
C 	C 	0.78706 0.14637 0.25500 0.33900
C 	C 	0.09733 0.22171 0.15000 -0.03900
C 	C 	0.55366 0.92295 0.71410 0.21300
C 	C 	0.30472 0.97839 0.18814 0.12600
C 	C 	0.57047 0.25109 0.40006 0.20800
C 	C 	0.99228 0.78258 0.41346 -0.02700
C 	C 	0.44634 0.07705 0.28590 0.20800
C 	C 	0.08675 0.12741 0.23192 -0.03800
C 	C 	0.06459 0.38171 0.91568 0.34300
C 	C 	0.38171 0.01973 0.91568 0.33700
C 	C 	0.52688 0.79950 0.22544 -0.09400
C 	C 	0.60926 0.77287 0.38004 0.34500
C 	C 	0.09665 0.20803 0.24044 0.12900
C 	C 	0.98029 0.75991 0.38510 -0.01700
C 	C 	0.21610 0.01019 0.52958 -0.09000
C 	C 	0.90997 0.84981 0.73566 -0.09900
C 	C 	0.21742 0.40574 0.58654 -0.03600
C 	C 	0.06351 0.66330 0.26194 0.34400
C 	C 	0.74891 0.97053 0.59994 0.21200
C 	C 	0.08321 0.71959 0.86630 -0.02500
C 	C 	0.26465 0.33765 0.82580 -0.01800
C 	C 	0.77287 0.01070 0.38004 0.33800
C 	C 	0.70045 0.40048 0.25490 0.20200
C 	C 	0.09765 0.25969 0.09000 0.34300
C 	C 	0.61829 0.98027 0.08432 0.34800
C 	C 	0.09045 0.16345 0.17420 -0.01500
C 	C 	0.65253 0.98943 0.76874 0.21900
C 	C 	0.84709 0.60926 0.38004 0.34500
C 	C 	0.69391 0.40004 0.65432 0.20400
C 	C 	0.10724 0.67898 0.85696 -0.09500
C 	C 	0.25969 0.81235 0.09000 0.34300
C 	C 	0.70345 0.97994 0.68472 0.20800
C 	C 	0.94951 0.58589 0.13370 -0.03900
C 	C 	0.05633 0.04147 0.62004 0.34100
C 	C 	0.97601 0.68671 0.49832 0.13800
C 	C 	0.59952 0.95535 0.74510 0.20800
C 	C 	0.66235 0.09045 0.17420 -0.01500
C 	C 	0.20050 0.75232 0.77456 -0.09600
C 	C 	0.61999 0.88626 0.41310 -0.03400
C 	C 	0.81497 0.97601 0.49832 0.13800
C 	C 	0.82424 0.20794 0.21532 -0.03500
C 	C 	0.97506 0.52688 0.22544 -0.09400
C 	C 	0.64563 0.58547 0.26434 -0.09600
C 	C 	0.28344 0.42670 0.81762 -0.09600
C 	C 	0.39266 0.11750 0.83166 -0.01800
C 	C 	0.05049 0.41411 0.86630 -0.02800
C 	C 	0.01070 0.84709 0.38004 0.33800
C 	C 	0.19604 0.00772 0.58654 -0.04200
C 	C 	0.96440 0.66396 0.46974 -0.09700
C 	C 	0.95853 0.67637 0.37996 0.34100
C 	C 	0.80396 0.99228 0.41346 -0.02700
C 	C 	0.98943 0.57873 0.76874 0.21800
C 	C 	0.11374 0.03309 0.58690 -0.03800
C 	C 	0.36295 0.55366 0.71410 0.21300
C 	C 	0.01973 0.70261 0.91568 0.33600
C 	C 	0.97839 0.50714 0.18814 0.12600
C 	C 	0.81235 0.65031 0.09000 0.34300
C 	C 	0.69528 0.02161 0.81186 0.13500
C 	C 	0.56586 0.86630 0.46974 -0.09600
C 	C 	0.74568 0.53977 0.47042 -0.09300
C 	C 	0.33670 0.32545 0.73806 0.34300
C 	C 	0.43414 0.13370 0.53026 -0.09500
C 	C 	0.89276 0.32102 0.14304 -0.09100
C 	C 	0.35933 0.91325 0.76808 -0.02900
C 	C 	0.63705 0.44634 0.28590 0.20800
C 	C 	0.22432 0.94916 0.16834 -0.01600
C 	C 	0.85363 0.04206 0.74500 0.33900
C 	C 	0.41411 0.08321 0.86630 -0.02600
C 	C 	0.10106 0.24432 0.18238 -0.09200
C 	C 	0.24733 0.37171 0.85000 -0.02600
C 	C 	0.49286 0.16653 0.81186 0.13600
C 	C 	0.42953 0.74891 0.59994 0.21100
C 	C 	0.90335 0.79197 0.75956 0.14000
C 	C 	0.34885 0.57047 0.40006 0.20900
C 	C 	0.94367 0.95853 0.37996 0.34000
C 	C 	0.15291 0.39074 0.61996 0.34500
C 	C 	0.86630 0.96440 0.46974 -0.09800
C 	C 	0.63461 0.85499 0.38510 -0.01400
C 	C 	0.67637 0.66151 0.37996 0.34100
C 	C 	0.20803 0.66291 0.24044 0.12900
C 	C 	0.57873 0.24183 0.76874 0.21300
C 	C 	0.40004 0.65177 0.65432 0.20400
C 	C 	0.15019 0.64563 0.26434 -0.09600
C 	C 	0.71656 0.57330 0.18238 -0.09200
C 	C 	0.66466 0.29655 0.31528 0.20400
C 	C 	0.37171 0.90267 0.85000 -0.02500
C 	C 	0.25109 0.02947 0.40006 0.20800
C 	C 	0.90955 0.83655 0.82580 -0.01800
C 	C 	0.83655 0.26465 0.82580 -0.01800
C 	C 	0.89894 0.75568 0.81762 -0.09600
C 	C 	0.16653 0.69528 0.81186 0.13700
C 	C 	0.26776 0.63705 0.28590 0.20800
C 	C 	0.29936 0.38001 0.58690 -0.03600
C 	C 	0.34462 0.70045 0.25490 0.20200
C 	C 	0.67455 0.07476 0.26194 0.34400
C 	C 	0.50714 0.83347 0.18814 0.12500
C 	C 	0.12741 0.68133 0.23192 -0.03800
C 	C 	0.02006 0.38817 0.31528 0.20300
C 	C 	0.32102 0.96420 0.14304 -0.09200
C 	C 	0.16345 0.73535 0.17420 -0.01500
C 	C 	0.39074 0.22713 0.61996 0.34400
C 	C 	0.29739 0.93541 0.08432 0.34200
C 	C 	0.13370 0.03560 0.53026 -0.09400
C 	C 	0.28041 0.94951 0.13370 -0.03900
C 	C 	0.75568 0.28344 0.81762 -0.09600
C 	C 	0.52567 0.81497 0.49832 0.13600
C 	C 	0.17576 0.79206 0.78468 -0.02700
C 	C 	0.70064 0.61999 0.41310 -0.03500
C 	C 	0.34747 0.01057 0.23126 0.20300
C 	C 	0.07705 0.26776 0.28590 0.20800
C 	C 	0.42127 0.75817 0.23126 0.20700
C 	C 	0.32545 0.92524 0.73806 0.34300
C 	C 	0.68133 0.64067 0.23192 -0.03700
C 	C 	0.65031 0.09765 0.09000 0.34300
C 	C 	0.97994 0.61183 0.68472 0.20800
C 	C 	0.03580 0.46406 0.85696 -0.09300
C 	C 	0.77829 0.24733 0.85000 -0.02500
C 	C 	0.70261 0.06459 0.91568 0.34300
C 	C 	0.66151 0.94367 0.37996 0.34100
C 	C 	0.91325 0.87259 0.76808 -0.02700
C 	C 	0.74031 0.18765 0.91000 0.34200
C 	C 	0.66396 0.56586 0.46974 -0.09600
C 	C 	0.67898 0.03580 0.85696 -0.09400
C 	C 	0.31329 0.47433 0.50168 0.13300
C 	C 	0.09003 0.15019 0.26434 -0.09600
C 	C 	0.68671 0.52567 0.49832 0.13500
C 	C 	0.40048 0.04465 0.25490 0.20200
C 	C 	0.94916 0.60734 0.16834 -0.01600
C 	C 	0.96691 0.70064 0.41310 -0.03200
C 	C 	0.88250 0.22432 0.16834 -0.01500
C 	C 	0.66330 0.67455 0.26194 0.34400
C 	C 	0.90267 0.77829 0.85000 -0.02400
C 	C 	0.21294 0.85363 0.74500 0.33900
C 	C 	0.75991 0.63461 0.38510 -0.01300
C 	C 	0.33709 0.44847 0.75956 0.13900
N 	N 	0.38187 0.75223 0.21828 -0.17200
N 	N 	0.34798 0.03914 0.30554 -0.19800
N 	N 	0.47077 0.80052 0.55266 -0.23300
N 	N 	0.61813 0.24777 0.78172 -0.16800
N 	N 	0.98420 0.60948 0.63780 -0.16900
N 	N 	0.60948 0.37800 0.63780 -0.17000
N 	N 	0.39793 0.07427 0.33488 -0.16900
N 	N 	0.40915 0.60207 0.66512 -0.16800
N 	N 	0.22617 0.62470 0.27872 -0.23300
N 	N 	0.06370 0.30449 0.24588 -0.17000
N 	N 	0.65202 0.96086 0.69446 -0.19900
N 	N 	0.24728 0.01580 0.36220 -0.17100
N 	N 	0.37800 0.75272 0.63780 -0.17000
N 	N 	0.07427 0.26719 0.33488 -0.16900
N 	N 	0.30958 0.55037 0.75412 -0.16800
N 	N 	0.57355 0.28279 0.72282 -0.16900
N 	N 	0.00561 0.42645 0.27718 -0.17100
N 	N 	0.70143 0.95253 0.60534 -0.16800
N 	N 	0.62470 0.49511 0.27872 -0.23300
N 	N 	0.64979 0.00343 0.80874 -0.23300
N 	N 	0.35021 0.99657 0.19126 -0.22700
N 	N 	0.24777 0.60015 0.78172 -0.16800
N 	N 	0.70363 0.99439 0.72282 -0.16800
N 	N 	0.71721 0.29637 0.27718 -0.17000
N 	N 	0.01580 0.39052 0.36220 -0.17100
N 	N 	0.44213 0.70143 0.60534 -0.16800
N 	N 	0.69042 0.44963 0.24588 -0.17000
N 	N 	0.45853 0.81217 0.19126 -0.22900
N 	N 	0.26719 0.59085 0.33488 -0.16900
N 	N 	0.65352 0.34468 0.69446 -0.19800
N 	N 	0.39985 0.02949 0.21828 -0.17200
N 	N 	0.34648 0.65532 0.30554 -0.19800
N 	N 	0.60015 0.97051 0.78172 -0.16700
N 	N 	0.97657 0.64682 0.55266 -0.23300
N 	N 	0.02343 0.35318 0.44734 -0.23200
N 	N 	0.69551 0.30958 0.75412 -0.16800
N 	N 	0.19948 0.02343 0.44734 -0.23200
N 	N 	0.49511 0.09658 0.27872 -0.23300
N 	N 	0.95253 0.69323 0.60534 -0.16800
N 	N 	0.62200 0.24728 0.36220 -0.17100
N 	N 	0.50489 0.90342 0.72128 -0.23400
N 	N 	0.55037 0.93630 0.75412 -0.16800
N 	N 	0.75223 0.39985 0.21828 -0.17200
N 	N 	0.44963 0.06370 0.24588 -0.17000
N 	N 	0.96086 0.65352 0.69446 -0.19800
N 	N 	0.81217 0.35021 0.19126 -0.22900
N 	N 	0.02949 0.38187 0.21828 -0.17200
N 	N 	0.34468 0.65202 0.69446 -0.19800
N 	N 	0.75272 0.98420 0.63780 -0.16900
N 	N 	0.92573 0.73281 0.66512 -0.16700
N 	N 	0.09658 0.22617 0.27872 -0.23300
N 	N 	0.69323 0.44213 0.60534 -0.16800
N 	N 	0.29637 0.00561 0.27718 -0.17000
N 	N 	0.77383 0.37530 0.72128 -0.23400
N 	N 	0.37530 0.50489 0.72128 -0.23400
N 	N 	0.60207 0.92573 0.66512 -0.16800
N 	N 	0.29857 0.04747 0.39466 -0.16900
N 	N 	0.97051 0.61813 0.78172 -0.16700
N 	N 	0.28279 0.70363 0.72282 -0.16900
N 	N 	0.30677 0.55787 0.39466 -0.16900
N 	N 	0.42645 0.71721 0.27718 -0.17000
N 	N 	0.65532 0.34798 0.30554 -0.19800
N 	N 	0.59085 0.39793 0.33488 -0.16900
N 	N 	0.93630 0.69551 0.75412 -0.16800
N 	N 	0.30449 0.69042 0.24588 -0.17000
N 	N 	0.80052 0.97657 0.55266 -0.23300
N 	N 	0.90342 0.77383 0.72128 -0.23400
N 	N 	0.54147 0.18783 0.80874 -0.23100
N 	N 	0.35318 0.52923 0.44734 -0.23300
N 	N 	0.18783 0.64979 0.80874 -0.23100
N 	N 	0.00343 0.54147 0.80874 -0.23300
N 	N 	0.55787 0.29857 0.39466 -0.16900
N 	N 	0.04747 0.30677 0.39466 -0.16900
N 	N 	0.64682 0.47077 0.55266 -0.23300
N 	N 	0.99657 0.45853 0.19126 -0.22700
N 	N 	0.39052 0.62200 0.36220 -0.17000
N 	N 	0.99439 0.57355 0.72282 -0.16900
N 	N 	0.03914 0.34648 0.30554 -0.19800
N 	N 	0.73281 0.40915 0.66512 -0.16800
N 	N 	0.52923 0.19948 0.44734 -0.23300
O 	O 	0.68750 0.17429 0.93128 -0.37500
O 	O 	0.34259 0.92161 0.06582 -0.41000
O 	O 	0.04481 0.69810 0.23198 -0.39700
O 	O 	0.61494 0.65071 0.31508 -0.40400
O 	O 	0.43484 0.26293 0.69602 -0.39700
O 	O 	0.99320 0.12373 0.66720 -0.40100
O 	O 	0.02856 0.86660 0.40216 -0.39700
O 	O 	0.96661 0.71190 0.32622 -0.39900
O 	O 	0.73124 0.02856 0.40216 -0.39700
O 	O 	0.06992 0.04481 0.23198 -0.39700
O 	O 	0.13086 0.95895 0.30398 -0.39800
O 	O 	0.87627 0.66040 0.33280 -0.40100
O 	O 	0.89443 0.68750 0.93128 -0.37300
O 	O 	0.66040 0.79093 0.33280 -0.40100
O 	O 	0.03812 0.03339 0.67378 -0.40400
O 	O 	0.96188 0.96661 0.32622 -0.39600
O 	O 	0.69717 0.08814 0.06746 -0.39100
O 	O 	0.70717 0.96188 0.32622 -0.39700
O 	O 	0.23537 0.84440 0.06746 -0.39000
O 	O 	0.38506 0.34929 0.68492 -0.40200
O 	O 	0.56928 0.73124 0.40216 -0.39600
O 	O 	0.11536 0.95592 0.23520 -0.39900
O 	O 	0.61878 0.10557 0.06872 -0.41400
O 	O 	0.97144 0.13340 0.59784 -0.39600
O 	O 	0.98743 0.65741 0.93418 -0.36500
O 	O 	0.13340 0.43072 0.59784 -0.39700
O 	O 	0.59159 0.01257 0.06582 -0.41500
O 	O 	0.26293 0.86914 0.69602 -0.39700
O 	O 	0.95592 0.64944 0.23520 -0.39800
O 	O 	0.03077 0.05513 0.59110 -0.40200
O 	O 	0.28810 0.29283 0.67378 -0.40000
O 	O 	0.91186 0.76463 0.93254 -0.36700
O 	O 	0.73585 0.06192 0.93356 -0.37500
O 	O 	0.37813 0.35377 0.59110 -0.39900
O 	O 	0.93949 0.78979 0.01562 -0.49200
O 	O 	0.04408 0.35056 0.76480 -0.39600
O 	O 	0.94487 0.62187 0.40890 -0.39700
O 	O 	0.35056 0.19112 0.76480 -0.39500
O 	O 	0.86914 0.04105 0.69602 -0.39800
O 	O 	0.95511 0.80541 0.98438 0.29200
O 	O 	0.20907 0.99320 0.66720 -0.40100
O 	O 	0.80888 0.11536 0.23520 -0.39900
O 	O 	0.72321 0.06992 0.23198 -0.39600
O 	O 	0.40841 0.98743 0.93418 -0.36700
O 	O 	0.93008 0.95519 0.76802 -0.38500
O 	O 	0.78979 0.04489 0.01562 -0.48500
O 	O 	0.93808 0.66941 0.06644 -0.39400
O 	O 	0.79093 0.00680 0.33280 -0.40200
O 	O 	0.62187 0.64623 0.40890 -0.39800
O 	O 	0.95519 0.30190 0.76802 -0.38700
O 	O 	0.56516 0.73707 0.30398 -0.39800
O 	O 	0.04105 0.43484 0.69602 -0.39800
O 	O 	0.21021 0.95511 0.98438 0.28400
O 	O 	0.15560 0.30283 0.93254 -0.36900
O 	O 	0.26415 0.93808 0.06644 -0.39500
O 	O 	0.06998 0.03421 0.31508 -0.40700
O 	O 	0.96579 0.38506 0.68492 -0.39900
O 	O 	0.04489 0.19459 0.01562 -0.47900
O 	O 	0.10557 0.31250 0.06872 -0.41400
O 	O 	0.64623 0.96923 0.40890 -0.39600
O 	O 	0.19112 0.88464 0.76480 -0.39500
O 	O 	0.07839 0.40841 0.93418 -0.37300
O 	O 	0.73707 0.13086 0.30398 -0.39900
O 	O 	0.65071 0.06998 0.31508 -0.40500
O 	O 	0.06192 0.33059 0.93356 -0.37500
O 	O 	0.69810 0.72321 0.23198 -0.39400
O 	O 	0.05513 0.37813 0.59110 -0.40000
O 	O 	0.03421 0.61494 0.31508 -0.40700
O 	O 	0.26876 0.97144 0.59784 -0.39600
O 	O 	0.82571 0.61878 0.06872 -0.41300
O 	O 	0.65741 0.07839 0.93418 -0.37300
O 	O 	0.93002 0.96579 0.68492 -0.39700
O 	O 	0.92161 0.59159 0.06582 -0.41000
O 	O 	0.30283 0.91186 0.93254 -0.36800
O 	O 	0.99548 0.26415 0.06644 -0.39400
O 	O 	0.03339 0.28810 0.67378 -0.40100
O 	O 	0.33960 0.20907 0.66720 -0.40100
O 	O 	0.27679 0.93008 0.76802 -0.38900
O 	O 	0.66941 0.99548 0.06644 -0.39300
O 	O 	0.17429 0.38122 0.93128 -0.37500
O 	O 	0.86660 0.56928 0.40216 -0.39600
O 	O 	0.88464 0.04408 0.76480 -0.39600
O 	O 	0.19459 0.93949 0.01562 -0.48600
O 	O 	0.96923 0.94487 0.40890 -0.39400
O 	O 	0.06051 0.21021 0.98438 0.27500
O 	O 	0.33059 0.00452 0.93356 -0.37500
O 	O 	0.38122 0.89443 0.93128 -0.37400
O 	O 	0.30190 0.27679 0.76802 -0.39000
O 	O 	0.31250 0.82571 0.06872 -0.41300
O 	O 	0.64944 0.80888 0.23520 -0.39800
O 	O 	0.12373 0.33960 0.66720 -0.40100
O 	O 	0.84440 0.69717 0.06746 -0.39000
O 	O 	0.71190 0.70717 0.32622 -0.40000
O 	O 	0.76463 0.15560 0.93254 -0.36800
O 	O 	0.00452 0.73585 0.93356 -0.37600
O 	O 	0.95895 0.56516 0.30398 -0.39700
O 	O 	0.08814 0.23537 0.06746 -0.39100
O 	O 	0.00680 0.87627 0.33280 -0.40200
O 	O 	0.01257 0.34259 0.06582 -0.41400
O 	O 	0.34929 0.93002 0.68492 -0.40100
O 	O 	0.80541 0.06051 0.98438 0.28100
O 	O 	0.43072 0.26876 0.59784 -0.39600
O 	O 	0.29283 0.03812 0.67378 -0.40200
O 	O 	0.35377 0.03077 0.59110 -0.40100
