data_crystal

_cell_length_a 11.49900
_cell_length_b 11.49900
_cell_length_c 15.79500
_cell_angle_alpha 90.00000
_cell_angle_beta  90.00000
_cell_angle_gamma 90.00000

_symmetry_space_group_name_	'P 1'
_symmetry_space_group_name_H-M	'P 1'

loop_
_symmetry_equiv_pos_as_xyz
  x,y,z

loop_
_atom_site_label
_atom_site_type_symbol
_atom_site_fract_x
_atom_site_fract_y
_atom_site_fract_z
_atom_site_charge
Na	Na	0.39170 0.60830 0.75000 0.49800
Si	Si	0.52010 0.35840 0.67680 1.68200
Si	Si	0.64160 0.47990 0.82320 1.66200
H 	H 	0.62090 0.30160 0.54570 0.36400
H 	H 	0.62240 0.42940 0.55460 0.34700
H 	H 	0.70960 0.35780 0.59930 0.37700
H 	H 	0.49820 0.15130 0.67740 0.36400
H 	H 	0.47370 0.18900 0.76500 0.34700
H 	H 	0.59430 0.16920 0.73780 0.36200
H 	H 	0.36780 0.44840 0.59440 0.37000
H 	H 	0.30640 0.37610 0.65780 0.39000
H 	H 	0.35680 0.32200 0.58150 0.40500
H 	H 	0.69840 0.37910 0.95430 0.35500
H 	H 	0.57060 0.37760 0.94540 0.33800
H 	H 	0.64220 0.29040 0.90070 0.37000
H 	H 	0.84870 0.50180 0.82260 0.35800
H 	H 	0.81100 0.52630 0.73500 0.34300
H 	H 	0.83080 0.40570 0.76220 0.35700
H 	H 	0.55160 0.63220 0.90560 0.36000
H 	H 	0.62390 0.69360 0.84220 0.38200
H 	H 	0.67800 0.64320 0.91850 0.39500
C 	C 	0.62860 0.36060 0.58780 -1.59800
C 	C 	0.52430 0.20530 0.71870 -1.57800
C 	C 	0.37480 0.37710 0.62470 -1.68700
C 	C 	0.63940 0.37140 0.91220 -1.57700
C 	C 	0.79470 0.47570 0.78130 -1.56200
C 	C 	0.62290 0.62520 0.87530 -1.66500
N 	N 	0.53800 0.46200 0.75000 -0.78400
Na	Na	0.60830 0.39170 0.25000 0.49900
Si	Si	0.47990 0.64160 0.17680 1.70600
Si	Si	0.35840 0.52010 0.32320 1.68400
H 	H 	0.37910 0.69840 0.04570 0.37500
H 	H 	0.37760 0.57060 0.05460 0.35700
H 	H 	0.29040 0.64220 0.09930 0.38600
H 	H 	0.50180 0.84870 0.17740 0.37200
H 	H 	0.52630 0.81100 0.26500 0.35300
H 	H 	0.40570 0.83080 0.23780 0.36800
H 	H 	0.63220 0.55160 0.09440 0.38000
H 	H 	0.69360 0.62390 0.15780 0.39800
H 	H 	0.64320 0.67800 0.08150 0.41600
H 	H 	0.30160 0.62090 0.45430 0.36500
H 	H 	0.42940 0.62240 0.44540 0.34700
H 	H 	0.35780 0.70960 0.40070 0.37700
H 	H 	0.15130 0.49820 0.32260 0.36600
H 	H 	0.18900 0.47370 0.23500 0.34900
H 	H 	0.16920 0.59430 0.26220 0.36300
H 	H 	0.44840 0.36780 0.40560 0.37000
H 	H 	0.37610 0.30640 0.34220 0.39000
H 	H 	0.32200 0.35680 0.41850 0.40500
C 	C 	0.37140 0.63940 0.08780 -1.62300
C 	C 	0.47570 0.79470 0.21870 -1.59800
C 	C 	0.62520 0.62290 0.12470 -1.71200
C 	C 	0.36060 0.62860 0.41220 -1.60000
C 	C 	0.20530 0.52430 0.28130 -1.58200
C 	C 	0.37710 0.37480 0.37530 -1.68800
N 	N 	0.46200 0.53800 0.25000 -0.79100
Na	Na	0.89170 0.89170 0.50000 0.49800
Si	Si	0.14160 0.02010 0.42680 1.68200
Si	Si	0.02010 0.14160 0.57320 1.67900
H 	H 	0.19840 0.12090 0.29570 0.36400
H 	H 	0.07060 0.12240 0.30460 0.34700
H 	H 	0.14220 0.20960 0.34930 0.37700
H 	H 	0.34870 0.99820 0.42740 0.37100
H 	H 	0.31100 0.97370 0.51500 0.35400
H 	H 	0.33080 0.09430 0.48780 0.36600
H 	H 	0.05160 0.86780 0.34440 0.37100
H 	H 	0.12390 0.80640 0.40780 0.38900
H 	H 	0.17800 0.85680 0.33150 0.40500
H 	H 	0.12090 0.19840 0.70430 0.36400
H 	H 	0.12240 0.07060 0.69540 0.34600
H 	H 	0.20960 0.14220 0.65070 0.37600
H 	H 	0.99820 0.34870 0.57260 0.36100
H 	H 	0.97370 0.31100 0.48500 0.34400
H 	H 	0.09430 0.33080 0.51220 0.35900
H 	H 	0.86780 0.05160 0.65560 0.37100
H 	H 	0.80640 0.12390 0.59220 0.38900
H 	H 	0.85680 0.17800 0.66850 0.40500
C 	C 	0.13940 0.12860 0.33780 -1.59900
C 	C 	0.29470 0.02430 0.46870 -1.59400
C 	C 	0.12290 0.87480 0.37470 -1.68400
C 	C 	0.12860 0.13940 0.66220 -1.59500
C 	C 	0.02430 0.29470 0.53130 -1.56900
C 	C 	0.87480 0.12290 0.62530 -1.68600
N 	N 	0.03800 0.03800 0.50000 -0.78700
Na	Na	0.10830 0.10830 -0.00000 0.49900
Si	Si	0.85840 0.97990 0.92680 1.64900
Si	Si	0.97990 0.85840 0.07320 1.67100
H 	H 	0.80160 0.87910 0.79570 0.35700
H 	H 	0.92940 0.87760 0.80460 0.33900
H 	H 	0.85780 0.79040 0.84930 0.36800
H 	H 	0.65130 0.00180 0.92740 0.37500
H 	H 	0.68900 0.02630 0.01500 0.36400
H 	H 	0.66920 0.90570 0.98780 0.36400
H 	H 	0.94840 0.13220 0.84440 0.36100
H 	H 	0.87610 0.19360 0.90780 0.38000
H 	H 	0.82200 0.14320 0.83150 0.39700
H 	H 	0.87910 0.80160 0.20430 0.36100
H 	H 	0.87760 0.92940 0.19540 0.34500
H 	H 	0.79040 0.85780 0.15070 0.37600
H 	H 	0.00180 0.65130 0.07260 0.35800
H 	H 	0.02630 0.68900 0.98500 0.33100
H 	H 	0.90570 0.66920 0.01220 0.35700
H 	H 	0.13220 0.94840 0.15560 0.37000
H 	H 	0.19360 0.87610 0.09220 0.38900
H 	H 	0.14320 0.82200 0.16850 0.40200
C 	C 	0.86060 0.87140 0.83780 -1.57500
C 	C 	0.70530 0.97570 0.96870 -1.60700
C 	C 	0.87710 0.12520 0.87470 -1.65800
C 	C 	0.87140 0.86060 0.16220 -1.58900
C 	C 	0.97570 0.70530 0.03130 -1.54600
C 	C 	0.12520 0.87710 0.12530 -1.67600
N 	N 	0.96200 0.96200 -0.00000 -0.77300
