data_crystal

_cell_length_a 10.71170
_cell_length_b 12.46870
_cell_length_c 12.46870
_cell_angle_alpha 91.59970
_cell_angle_beta  113.84200
_cell_angle_gamma 113.84200

_symmetry_space_group_name_	'P 1'
_symmetry_space_group_name_H-M	'P 1'

loop_
_symmetry_equiv_pos_as_xyz
  x,y,z

loop_
_atom_site_label
_atom_site_type_symbol
_atom_site_fract_x
_atom_site_fract_y
_atom_site_fract_z
_atom_site_charge
Tb	Tb	-0.00000 0.20882 0.79118 1.20000
Tb	Tb	0.00000 0.79118 0.20882 1.19900
Co	Co	-0.00000 0.00000 -0.00000 0.96500
Co	Co	-0.00000 0.50000 -0.00000 0.99100
Co	Co	-0.00000 0.00000 0.50000 0.99100
H 	H 	0.49420 0.10990 0.71070 0.12400
H 	H 	0.64540 0.16480 0.48280 0.13700
H 	H 	0.88800 0.13980 0.25680 0.17300
H 	H 	0.25810 0.98330 0.78070 0.15900
H 	H 	0.28300 0.76530 0.59670 0.11500
H 	H 	0.64540 0.48280 0.16480 0.13700
H 	H 	0.50580 0.89010 0.28930 0.13600
H 	H 	0.71700 0.40330 0.23470 0.16200
H 	H 	0.54440 0.94250 0.42070 0.15200
H 	H 	0.74190 0.01670 0.21930 0.14100
H 	H 	0.11200 0.74320 0.86020 0.08700
H 	H 	0.11200 0.86020 0.74320 0.08700
H 	H 	0.25810 0.78070 0.98330 0.15900
H 	H 	0.50580 0.28930 0.89010 0.13600
H 	H 	0.35460 0.83520 0.51720 0.13800
H 	H 	0.45560 0.05750 0.57930 0.10500
H 	H 	0.71700 0.23470 0.40330 0.16200
H 	H 	0.54440 0.42070 0.94250 0.15200
H 	H 	0.35460 0.51720 0.83520 0.13800
H 	H 	0.28300 0.59670 0.76530 0.11500
H 	H 	0.88800 0.25680 0.13980 0.17300
H 	H 	0.49420 0.71070 0.10990 0.12400
H 	H 	0.74190 0.21930 0.01670 0.14100
H 	H 	0.45560 0.57930 0.05750 0.10500
C 	C 	0.17500 0.50770 0.86070 0.44600
C 	C 	0.32510 0.89720 0.30020 0.40500
C 	C 	0.68590 0.15860 0.42720 -0.30800
C 	C 	0.92410 0.22180 0.99480 0.46600
C 	C 	0.82570 0.20070 0.06170 -0.35600
C 	C 	0.17430 0.93830 0.79930 -0.28600
C 	C 	0.48330 0.78920 0.91400 0.22000
C 	C 	0.82570 0.06170 0.20070 -0.35600
C 	C 	0.17500 0.86070 0.50770 0.44600
C 	C 	0.50730 0.05600 0.66320 -0.29300
C 	C 	0.68590 0.42720 0.15860 -0.30800
C 	C 	0.51670 0.21080 0.08600 0.09600
C 	C 	0.51670 0.08600 0.21080 0.09600
C 	C 	0.64910 0.98790 0.98790 0.33200
C 	C 	0.50730 0.66320 0.05600 -0.29300
C 	C 	0.67490 0.69980 0.10280 0.34600
C 	C 	0.49270 0.94400 0.33680 -0.26100
C 	C 	0.82500 0.13930 0.49230 0.42400
C 	C 	0.31410 0.57280 0.84140 -0.31000
C 	C 	0.49270 0.33680 0.94400 -0.26100
C 	C 	0.07590 0.77820 0.00520 0.41600
C 	C 	0.17430 0.79930 0.93830 -0.28600
C 	C 	0.35090 0.01210 0.01210 -0.04600
C 	C 	0.31410 0.84140 0.57280 -0.31000
C 	C 	0.32510 0.30020 0.89720 0.40500
C 	C 	0.07590 0.00520 0.77820 0.41600
C 	C 	0.92410 0.99480 0.22180 0.46600
C 	C 	0.82500 0.49230 0.13930 0.42400
C 	C 	0.67490 0.10280 0.69980 0.34600
C 	C 	0.48330 0.91400 0.78920 0.22000
N 	N 	0.56560 0.32210 0.06530 -0.06400
N 	N 	0.40640 0.98750 0.12150 -0.08000
N 	N 	0.57880 0.19890 0.19890 -0.14200
N 	N 	0.23770 0.92030 0.92030 0.01400
N 	N 	0.42120 0.80110 0.80110 -0.18100
N 	N 	0.43440 0.67790 0.93470 -0.03200
N 	N 	0.56560 0.06530 0.32210 -0.06400
N 	N 	0.43440 0.93470 0.67790 -0.03200
N 	N 	0.76230 0.07970 0.07970 -0.10500
N 	N 	0.59360 0.87850 0.01250 -0.21200
N 	N 	0.40640 0.12150 0.98750 -0.08000
N 	N 	0.59360 0.01250 0.87850 -0.21200
O 	O 	0.98730 0.32560 0.98000 -0.27600
O 	O 	0.06150 0.04670 0.86270 -0.59700
O 	O 	0.73110 0.03440 0.69280 -0.27600
O 	O 	0.16920 0.55520 0.94700 -0.48700
O 	O 	0.83080 0.44480 0.05300 -0.36800
O 	O 	0.24190 0.78480 0.26240 -0.42700
O 	O 	0.83080 0.05300 0.44480 -0.36800
O 	O 	0.75810 0.21520 0.73760 -0.28300
O 	O 	0.24190 0.26240 0.78480 -0.42700
O 	O 	0.16920 0.94700 0.55520 -0.48700
O 	O 	0.73110 0.69280 0.03440 -0.27600
O 	O 	0.93850 0.95330 0.13730 -0.35100
O 	O 	0.75810 0.73760 0.21520 -0.28300
O 	O 	0.92640 0.21330 0.59250 -0.23400
O 	O 	0.93850 0.13730 0.95330 -0.35100
O 	O 	0.07360 0.78670 0.40750 -0.54900
O 	O 	0.26890 0.30720 0.96560 -0.39500
O 	O 	0.98730 0.98000 0.32560 -0.27600
O 	O 	0.06150 0.86270 0.04670 -0.59700
O 	O 	0.92640 0.59250 0.21330 -0.23400
O 	O 	0.01270 0.02000 0.67440 -0.61200
O 	O 	0.26890 0.96560 0.30720 -0.39500
O 	O 	0.01270 0.67440 0.02000 -0.61200
O 	O 	0.07360 0.40750 0.78670 -0.54900
