data_crystal

_cell_length_a 14.91500
_cell_length_b 14.91500
_cell_length_c 5.54300
_cell_angle_alpha 90.00000
_cell_angle_beta  90.00000
_cell_angle_gamma 120.00000

_symmetry_space_group_name_	'P 1'
_symmetry_space_group_name_H-M	'P 1'

loop_
_symmetry_equiv_pos_as_xyz
  x,y,z

loop_
_atom_site_label
_atom_site_type_symbol
_atom_site_fract_x
_atom_site_fract_y
_atom_site_fract_z
_atom_site_charge
Li	Li	0.33640 0.53150 0.22430 0.56600
Li	Li	0.26910 0.30220 0.98340 0.55100
Li	Li	0.19530 0.33230 0.49330 0.56000
C 	C 	0.34970 0.50290 0.75400 0.39200
C 	C 	0.54030 0.65980 0.23040 0.32800
C 	C 	0.05480 0.22440 0.88030 0.24500
O 	O 	0.33170 0.45960 0.95320 -0.53000
O 	O 	0.32900 0.46560 0.55000 -0.42700
O 	O 	0.46070 0.66790 0.23680 -0.37600
O 	O 	0.62610 0.72960 0.32960 -0.37800
O 	O 	0.14260 0.26020 0.74860 -0.41000
O 	O 	0.97940 0.22680 0.74720 -0.44300
H 	H 	0.39177 0.59100 0.74287 -0.08400
H 	H 	0.53808 0.59065 0.13685 -0.00700
Li	Li	0.46850 0.80490 0.22430 0.56500
Li	Li	0.69780 0.96690 0.98340 0.55100
Li	Li	0.66770 0.86300 0.49330 0.55900
C 	C 	0.49710 0.84680 0.75400 0.39200
C 	C 	0.34020 0.88050 0.23040 0.32800
C 	C 	0.77560 0.83040 0.88030 0.24300
O 	O 	0.54040 0.87210 0.95320 -0.52900
O 	O 	0.53440 0.86340 0.55000 -0.42600
O 	O 	0.33210 0.79280 0.23680 -0.37600
O 	O 	0.27040 0.89650 0.32960 -0.37800
O 	O 	0.73980 0.88240 0.74860 -0.40900
O 	O 	0.77320 0.75260 0.74720 -0.44100
H 	H 	0.40900 0.80078 0.74287 -0.08400
H 	H 	0.40935 0.94743 0.13685 -0.00700
Li	Li	0.19510 0.66360 0.22430 0.56500
Li	Li	0.03310 0.73090 0.98340 0.55100
Li	Li	0.13700 0.80470 0.49330 0.55900
C 	C 	0.15320 0.65030 0.75400 0.39200
C 	C 	0.11950 0.45970 0.23040 0.32800
C 	C 	0.16960 0.94520 0.88030 0.24500
O 	O 	0.12790 0.66830 0.95320 -0.52900
O 	O 	0.13660 0.67100 0.55000 -0.42600
O 	O 	0.20720 0.53930 0.23680 -0.37600
O 	O 	0.10350 0.37390 0.32960 -0.37800
O 	O 	0.11760 0.85740 0.74860 -0.40900
O 	O 	0.24740 0.02060 0.74720 -0.44300
H 	H 	0.19922 0.60823 0.74287 -0.08400
H 	H 	0.05257 0.46192 0.13685 -0.00700
Li	Li	0.66360 0.46850 0.72430 0.55400
Li	Li	0.73090 0.69780 0.48340 0.55900
Li	Li	0.80470 0.66770 0.99330 0.54600
C 	C 	0.65030 0.49710 0.25400 0.38100
C 	C 	0.45970 0.34020 0.73040 0.31900
C 	C 	0.94520 0.77560 0.38030 0.25700
O 	O 	0.66830 0.54040 0.45320 -0.46000
O 	O 	0.67100 0.53440 0.05000 -0.35400
O 	O 	0.53930 0.33210 0.73680 -0.45400
O 	O 	0.37390 0.27040 0.82960 -0.44800
O 	O 	0.85740 0.73980 0.24860 -0.34000
O 	O 	0.02060 0.77320 0.24720 -0.35300
H 	H 	0.60823 0.40900 0.24287 -0.03500
H 	H 	0.46192 0.40935 0.63685 -0.04900
H 	H 	0.94747 0.80217 0.57417 -0.02600
Li	Li	0.53150 0.19510 0.72430 0.55400
Li	Li	0.30220 0.03310 0.48340 0.55900
Li	Li	0.33230 0.13700 0.99330 0.54600
C 	C 	0.50290 0.15320 0.25400 0.38100
C 	C 	0.65980 0.11950 0.73040 0.31900
C 	C 	0.22440 0.16960 0.38030 0.25900
O 	O 	0.45960 0.12790 0.45320 -0.46000
O 	O 	0.46560 0.13660 0.05000 -0.35500
O 	O 	0.66790 0.20720 0.73680 -0.45400
O 	O 	0.72960 0.10350 0.82960 -0.44900
O 	O 	0.26020 0.11760 0.24860 -0.34000
O 	O 	0.22680 0.24740 0.24720 -0.35300
H 	H 	0.59100 0.19922 0.24287 -0.03500
H 	H 	0.59065 0.05257 0.63685 -0.05000
H 	H 	0.19783 0.14530 0.57417 -0.02600
Li	Li	0.80490 0.33640 0.72430 0.55400
Li	Li	0.96690 0.26910 0.48340 0.55900
Li	Li	0.86300 0.19530 0.99330 0.54600
C 	C 	0.84680 0.34970 0.25400 0.38100
C 	C 	0.88050 0.54030 0.73040 0.31900
C 	C 	0.83040 0.05480 0.38030 0.25700
O 	O 	0.87210 0.33170 0.45320 -0.46000
O 	O 	0.86340 0.32900 0.05000 -0.35500
O 	O 	0.79280 0.46070 0.73680 -0.45400
O 	O 	0.89650 0.62610 0.82960 -0.44900
O 	O 	0.88240 0.14260 0.24860 -0.34000
O 	O 	0.75260 0.97940 0.24720 -0.35200
H 	H 	0.80078 0.39177 0.24287 -0.03500
H 	H 	0.94743 0.53808 0.63685 -0.05000
H 	H 	0.85470 0.05253 0.57417 -0.02600
H 	H 	0.05253 0.19783 1.07417 -0.08400
H 	H 	0.80217 0.85470 1.07417 -0.08400
H 	H 	0.14530 0.94747 1.07417 -0.08300
