data_crystal

_cell_length_a 17.09400
_cell_length_b 13.18730
_cell_length_c 21.49000
_cell_angle_alpha 90.00000
_cell_angle_beta  98.45700
_cell_angle_gamma 90.00000

_symmetry_space_group_name_	'P 1'
_symmetry_space_group_name_H-M	'P 1'

loop_
_symmetry_equiv_pos_as_xyz
  x,y,z

loop_
_atom_site_label
_atom_site_type_symbol
_atom_site_fract_x
_atom_site_fract_y
_atom_site_fract_z
_atom_site_charge
Ba	Ba	0.12940 0.46020 0.98790 1.85900
N 	N 	0.43960 0.37020 0.99460 -0.12500
N 	N 	0.27260 0.85680 0.68770 -0.17900
O 	O 	0.47240 0.51020 0.91120 -0.44900
O 	O 	0.41150 0.43050 0.82690 -0.44100
O 	O 	0.40340 0.56380 0.01070 -0.45600
O 	O 	0.28250 0.53460 0.03340 -0.43400
O 	O 	0.49240 0.10660 0.02670 -0.62900
O 	O 	0.37300 0.17470 0.01420 -0.43200
O 	O 	0.35150 0.69290 0.74220 -0.47500
O 	O 	0.44810 0.69970 0.68270 -0.40300
O 	O 	0.20750 0.67240 0.67740 -0.46000
O 	O 	0.17040 0.68680 0.57430 -0.46900
O 	O 	0.28250 0.02890 0.60870 -0.43500
O 	O 	0.28600 0.13580 0.68900 -0.30000
C 	C 	0.41540 0.34920 0.92690 -0.08200
C 	C 	0.43390 0.43500 0.88460 0.33400
C 	C 	0.36870 0.39240 0.02730 -0.13400
C 	C 	0.34810 0.50380 0.02290 0.34000
C 	C 	0.48750 0.28490 0.02640 -0.12600
C 	C 	0.44670 0.18140 0.02100 0.37400
C 	C 	0.35330 0.83250 0.67160 -0.08000
C 	C 	0.38680 0.73500 0.69990 0.32100
C 	C 	0.21070 0.83690 0.63160 -0.07000
C 	C 	0.19520 0.72390 0.62580 0.36700
C 	C 	0.26820 0.96210 0.71140 -0.02300
C 	C 	0.28010 0.04860 0.66460 0.31100
Ba	Ba	0.62940 0.96020 0.48790 1.98700
N 	N 	0.93960 0.87020 0.49460 -0.15400
N 	N 	0.77260 0.35680 0.18770 -0.17600
O 	O 	0.97240 0.01020 0.41120 -0.38900
O 	O 	0.91150 0.93050 0.32690 -0.34100
O 	O 	0.90340 0.06380 0.51070 -0.35800
O 	O 	0.78250 0.03460 0.53340 -0.41200
O 	O 	0.99240 0.60660 0.52670 -0.50700
O 	O 	0.87300 0.67470 0.51420 -0.40200
O 	O 	0.85150 0.19290 0.24220 -0.42900
O 	O 	0.94810 0.19970 0.18270 -0.29500
O 	O 	0.70750 0.17240 0.17740 -0.45300
O 	O 	0.67040 0.18680 0.07430 -0.47900
O 	O 	0.78250 0.52890 0.10870 -0.43900
O 	O 	0.78600 0.63580 0.18900 -0.27900
C 	C 	0.91540 0.84920 0.42690 -0.06300
C 	C 	0.93390 0.93500 0.38460 0.36200
C 	C 	0.86870 0.89240 0.52730 -0.04200
C 	C 	0.84810 0.00380 0.52290 0.28900
C 	C 	0.98750 0.78490 0.52640 0.01700
C 	C 	0.94670 0.68140 0.52100 0.33800
C 	C 	0.85330 0.33250 0.17160 -0.06700
C 	C 	0.88680 0.23500 0.19990 0.31000
C 	C 	0.71070 0.33690 0.13160 -0.08400
C 	C 	0.69520 0.22390 0.12580 0.38500
C 	C 	0.76820 0.46210 0.21140 -0.05900
C 	C 	0.78010 0.54860 0.16460 0.36000
Ba	Ba	0.87060 0.46020 0.51210 2.07600
N 	N 	0.56040 0.37020 0.50540 -0.17200
N 	N 	0.72740 0.85680 0.81230 -0.18200
O 	O 	0.52760 0.51020 0.58880 -0.46500
O 	O 	0.58850 0.43050 0.67310 -0.44300
O 	O 	0.59660 0.56380 0.48930 -0.43300
O 	O 	0.71750 0.53460 0.46660 -0.42000
O 	O 	0.50760 0.10660 0.47330 -0.60600
O 	O 	0.62700 0.17470 0.48580 -0.41900
O 	O 	0.64850 0.69290 0.75780 -0.47600
O 	O 	0.55190 0.69970 0.81730 -0.40400
O 	O 	0.79250 0.67240 0.82260 -0.43200
O 	O 	0.82960 0.68680 0.92570 -0.40600
O 	O 	0.71750 0.02890 0.89130 -0.43600
O 	O 	0.71400 0.13580 0.81100 -0.29000
C 	C 	0.58460 0.34920 0.57310 -0.10100
C 	C 	0.56610 0.43500 0.61540 0.33600
C 	C 	0.63130 0.39240 0.47270 -0.09900
C 	C 	0.65190 0.50380 0.47710 0.33700
C 	C 	0.51250 0.28490 0.47360 -0.08000
C 	C 	0.55330 0.18140 0.47900 0.36300
C 	C 	0.64670 0.83250 0.82840 -0.08300
C 	C 	0.61320 0.73500 0.80010 0.32000
C 	C 	0.78930 0.83690 0.86840 -0.03500
C 	C 	0.80480 0.72390 0.87420 0.37400
C 	C 	0.73180 0.96210 0.78860 -0.01600
C 	C 	0.71990 0.04860 0.83540 0.31300
Ba	Ba	0.37060 0.96020 0.01210 1.84000
N 	N 	0.06040 0.87020 0.00540 -0.21400
N 	N 	0.22740 0.35680 0.31230 -0.17300
O 	O 	0.02760 0.01020 0.08880 -0.55600
O 	O 	0.08850 0.93050 0.17310 -0.42100
O 	O 	0.09660 0.06380 0.98930 -0.44200
O 	O 	0.21750 0.03460 0.96660 -0.39600
O 	O 	0.00760 0.60660 0.97330 -0.65000
O 	O 	0.12700 0.67470 0.98580 -0.39300
O 	O 	0.14850 0.19290 0.25780 -0.47700
O 	O 	0.05190 0.19970 0.31730 -0.42300
O 	O 	0.29250 0.17240 0.32260 -0.45100
O 	O 	0.32960 0.18680 0.42570 -0.45000
O 	O 	0.21750 0.52890 0.39130 -0.42500
O 	O 	0.21400 0.63580 0.31100 -0.30700
C 	C 	0.08460 0.84920 0.07310 -0.14300
C 	C 	0.06610 0.93500 0.11540 0.38300
C 	C 	0.13130 0.89240 0.97270 -0.02300
C 	C 	0.15190 0.00380 0.97710 0.28400
C 	C 	0.01250 0.78490 0.97360 -0.11100
C 	C 	0.05330 0.68140 0.97900 0.37400
C 	C 	0.14670 0.33250 0.32840 -0.11300
C 	C 	0.11320 0.23500 0.30010 0.31800
C 	C 	0.28930 0.33690 0.36840 -0.07000
C 	C 	0.30480 0.22390 0.37420 0.37500
C 	C 	0.23180 0.46210 0.28860 -0.08100
C 	C 	0.21990 0.54860 0.33540 0.34800
Ba	Ba	0.87060 0.53980 0.01210 1.93600
N 	N 	0.56040 0.62980 0.00540 -0.21700
N 	N 	0.72740 0.14320 0.31230 -0.17300
O 	O 	0.52760 0.48980 0.08880 -0.47100
O 	O 	0.58850 0.56950 0.17310 -0.44200
O 	O 	0.59660 0.43620 0.98930 -0.39700
O 	O 	0.71750 0.46540 0.96660 -0.38400
O 	O 	0.50760 0.89340 0.97330 -0.55100
O 	O 	0.62700 0.82530 0.98580 -0.37200
O 	O 	0.64850 0.30710 0.25780 -0.47800
O 	O 	0.55190 0.30030 0.31730 -0.40800
O 	O 	0.79250 0.32760 0.32260 -0.43800
O 	O 	0.82960 0.31320 0.42570 -0.44000
O 	O 	0.71750 0.97110 0.39130 -0.43300
O 	O 	0.71400 0.86420 0.31100 -0.29500
C 	C 	0.58460 0.65080 0.07310 -0.11500
C 	C 	0.56610 0.56500 0.11540 0.33700
C 	C 	0.63130 0.60760 0.97270 -0.05200
C 	C 	0.65190 0.49620 0.97710 0.32800
C 	C 	0.51250 0.71510 0.97360 -0.02900
C 	C 	0.55330 0.81860 0.97900 0.35100
C 	C 	0.64670 0.16750 0.32840 -0.10800
C 	C 	0.61320 0.26500 0.30010 0.32400
C 	C 	0.78930 0.16310 0.36840 -0.06600
C 	C 	0.80480 0.27610 0.37420 0.39000
C 	C 	0.73180 0.03790 0.28860 -0.09700
C 	C 	0.71990 0.95140 0.33540 0.39200
Ba	Ba	0.37060 0.03980 0.51210 1.80300
N 	N 	0.06040 0.12980 0.50540 -0.17500
N 	N 	0.22740 0.64320 0.81230 -0.17400
O 	O 	0.02760 0.98980 0.58880 -0.46400
O 	O 	0.08850 0.06950 0.67310 -0.45100
O 	O 	0.09660 0.93620 0.48930 -0.46400
O 	O 	0.21750 0.96540 0.46660 -0.39700
O 	O 	0.00760 0.39340 0.47330 -0.67800
O 	O 	0.12700 0.32530 0.48580 -0.40700
O 	O 	0.14850 0.80710 0.75780 -0.47900
O 	O 	0.05190 0.80030 0.81730 -0.43300
O 	O 	0.29250 0.82760 0.82260 -0.43900
O 	O 	0.32960 0.81320 0.92570 -0.42600
O 	O 	0.21750 0.47110 0.89130 -0.42800
O 	O 	0.21400 0.36420 0.81100 -0.31400
C 	C 	0.08460 0.15080 0.57310 -0.11800
C 	C 	0.06610 0.06500 0.61540 0.28200
C 	C 	0.13130 0.10760 0.47270 -0.13700
C 	C 	0.15190 0.99620 0.47710 0.38600
C 	C 	0.01250 0.21510 0.47360 -0.16700
C 	C 	0.05330 0.31860 0.47900 0.38700
C 	C 	0.14670 0.66750 0.82840 -0.11500
C 	C 	0.11320 0.76500 0.80010 0.32100
C 	C 	0.28930 0.66310 0.86840 -0.06100
C 	C 	0.30480 0.77610 0.87420 0.37100
C 	C 	0.23180 0.53790 0.78860 -0.08200
C 	C 	0.21990 0.45140 0.83540 0.35100
Ba	Ba	0.12940 0.53980 0.48790 1.72400
N 	N 	0.43960 0.62980 0.49460 -0.17300
N 	N 	0.27260 0.14320 0.18770 -0.16800
O 	O 	0.47240 0.48980 0.41120 -0.46400
O 	O 	0.41150 0.56950 0.32690 -0.44100
O 	O 	0.40340 0.43620 0.51070 -0.42900
O 	O 	0.28250 0.46540 0.53340 -0.39800
O 	O 	0.49240 0.89340 0.52670 -0.57900
O 	O 	0.37300 0.82530 0.51420 -0.38900
O 	O 	0.35150 0.30710 0.24220 -0.47800
O 	O 	0.44810 0.30030 0.18270 -0.40800
O 	O 	0.20750 0.32760 0.17740 -0.46600
O 	O 	0.17040 0.31320 0.07430 -0.50200
O 	O 	0.28250 0.97110 0.10870 -0.43100
O 	O 	0.28600 0.86420 0.18900 -0.30500
C 	C 	0.41540 0.65080 0.42690 -0.09600
C 	C 	0.43390 0.56500 0.38460 0.33600
C 	C 	0.36870 0.60760 0.52730 -0.09100
C 	C 	0.34810 0.49620 0.52290 0.33200
C 	C 	0.48750 0.71510 0.52640 -0.08000
C 	C 	0.44670 0.81860 0.52100 0.36300
C 	C 	0.35330 0.16750 0.17160 -0.10500
C 	C 	0.38680 0.26500 0.19990 0.32500
C 	C 	0.21070 0.16310 0.13160 -0.10100
C 	C 	0.19520 0.27610 0.12580 0.38300
C 	C 	0.26820 0.03790 0.21140 -0.10900
C 	C 	0.28010 0.95140 0.16460 0.39500
Ba	Ba	0.62940 0.03980 0.98790 1.94000
N 	N 	0.93960 0.12980 0.99460 -0.11500
N 	N 	0.77260 0.64320 0.68770 -0.17700
O 	O 	0.97240 0.98980 0.91120 -0.30000
O 	O 	0.91150 0.06950 0.82690 -0.37000
O 	O 	0.90340 0.93620 0.01070 -0.37700
O 	O 	0.78250 0.96540 0.03340 -0.41300
O 	O 	0.99240 0.39340 0.02670 -0.53200
O 	O 	0.87300 0.32530 0.01420 -0.41400
O 	O 	0.85150 0.80710 0.74220 -0.43300
O 	O 	0.94810 0.80030 0.68270 -0.30900
O 	O 	0.70750 0.82760 0.67740 -0.44300
O 	O 	0.67040 0.81320 0.57430 -0.45900
O 	O 	0.78250 0.47110 0.60870 -0.44200
O 	O 	0.78600 0.36420 0.68900 -0.28500
C 	C 	0.91540 0.15080 0.92690 -0.03700
C 	C 	0.93390 0.06500 0.88460 0.27200
C 	C 	0.86870 0.10760 0.02730 -0.13400
C 	C 	0.84810 0.99620 0.02290 0.37200
C 	C 	0.98750 0.21510 0.02640 -0.02600
C 	C 	0.94670 0.31860 0.02100 0.34800
C 	C 	0.85330 0.66750 0.67160 -0.07000
C 	C 	0.88680 0.76500 0.69990 0.31300
C 	C 	0.71070 0.66310 0.63160 -0.07600
C 	C 	0.69520 0.77610 0.62580 0.38200
C 	C 	0.76820 0.53790 0.71140 -0.06000
C 	C 	0.78010 0.45140 0.66460 0.36300
Ba	Ba	0.50000 0.53030 0.75000 1.83900
Ba	Ba	0.00000 0.03030 0.25000 1.39900
Ba	Ba	0.50000 0.46970 0.25000 1.83900
Ba	Ba	0.00000 0.96970 0.75000 1.57800
Co	Co	0.50000 0.50000 -0.00000 1.20000
Co	Co	0.00000 0.00000 0.50000 1.13500
Co	Co	0.50000 0.50000 0.50000 1.22500
Co	Co	-0.00000 0.00000 -0.00000 1.11600
Co	Co	0.25000 0.75000 0.75000 1.21800
Co	Co	0.75000 0.75000 0.75000 1.21800
Co	Co	0.75000 0.25000 0.25000 1.21900
Co	Co	0.25000 0.25000 0.25000 1.21900
