data_crystal

_cell_length_a 24.73940
_cell_length_b 38.26900
_cell_length_c 5.34870
_cell_angle_alpha 90.00000
_cell_angle_beta  90.00000
_cell_angle_gamma 90.00000

_symmetry_space_group_name_	'P 1'
_symmetry_space_group_name_H-M	'P 1'

loop_
_symmetry_equiv_pos_as_xyz
  x,y,z

loop_
_atom_site_label
_atom_site_type_symbol
_atom_site_fract_x
_atom_site_fract_y
_atom_site_fract_z
_atom_site_charge
Ag	Ag	0.96009 0.23145 0.43953 0.51300
N 	N 	0.00704 0.19663 0.68260 -0.16900
N 	N 	0.03696 0.20900 0.88320 -0.16600
N 	N 	0.04714 0.15253 0.85860 -0.10500
N 	N 	0.06315 0.11744 0.88090 -0.08800
N 	N 	0.15914 0.03245 0.34710 -0.17300
C 	C 	0.01405 0.16259 0.67170 0.08800
H 	H 	0.99860 0.14780 0.55360 0.00400
C 	C 	0.06124 0.18211 0.98580 0.06000
H 	H 	0.08430 0.18300 0.12290 0.00800
C 	C 	0.09493 0.11041 0.05800 0.01300
H 	H 	0.10720 0.12780 0.16530 0.03800
C 	C 	0.11208 0.07354 0.09010 0.00200
C 	C 	0.09498 0.04736 0.93310 -0.05300
H 	H 	0.07340 0.05230 0.79520 0.05400
C 	C 	0.11066 0.01332 0.98490 -0.10600
H 	H 	0.10010 0.99510 0.88080 0.05100
C 	C 	0.14214 0.00684 0.19350 0.01700
H 	H 	0.15190 0.98390 0.22890 0.00100
C 	C 	0.14407 0.06517 0.29340 -0.00000
H 	H 	0.15560 0.08310 0.39760 0.02400
Ag	Ag	0.96009 0.73145 0.93953 0.50600
N 	N 	0.00704 0.69663 0.18260 -0.16700
N 	N 	0.03696 0.70900 0.38320 -0.16800
N 	N 	0.04714 0.65253 0.35860 -0.10800
N 	N 	0.06315 0.61744 0.38090 -0.08300
N 	N 	0.15914 0.53245 0.84710 -0.17500
C 	C 	0.01405 0.66259 0.17170 0.08900
H 	H 	0.99860 0.64780 0.05360 0.00400
C 	C 	0.06124 0.68211 0.48580 0.07600
H 	H 	0.08430 0.68300 0.62290 -0.00500
C 	C 	0.09493 0.61041 0.55800 0.00400
H 	H 	0.10720 0.62780 0.66530 0.03700
C 	C 	0.11208 0.57354 0.59010 -0.00200
C 	C 	0.09498 0.54736 0.43310 -0.04800
H 	H 	0.07340 0.55230 0.29520 0.05400
C 	C 	0.11066 0.51332 0.48490 -0.10000
H 	H 	0.10010 0.49510 0.38080 0.05000
C 	C 	0.14214 0.50684 0.69350 0.00900
H 	H 	0.15190 0.48390 0.72890 0.00100
C 	C 	0.14407 0.56517 0.79340 -0.00100
H 	H 	0.15560 0.58310 0.89760 0.02300
Ag	Ag	0.46009 0.23145 0.93953 0.50600
N 	N 	0.50704 0.19663 0.18260 -0.16700
N 	N 	0.53696 0.20900 0.38320 -0.16800
N 	N 	0.54714 0.15253 0.35860 -0.10800
N 	N 	0.56315 0.11744 0.38090 -0.08300
N 	N 	0.65914 0.03245 0.84710 -0.17500
C 	C 	0.51405 0.16259 0.17170 0.08900
H 	H 	0.49860 0.14780 0.05360 0.00400
C 	C 	0.56124 0.18211 0.48580 0.07600
H 	H 	0.58430 0.18300 0.62290 -0.00500
C 	C 	0.59493 0.11041 0.55800 0.00400
H 	H 	0.60720 0.12780 0.66530 0.03700
C 	C 	0.61208 0.07354 0.59010 -0.00200
C 	C 	0.59498 0.04736 0.43310 -0.04800
H 	H 	0.57340 0.05230 0.29520 0.05400
C 	C 	0.61066 0.01332 0.48490 -0.10000
H 	H 	0.60010 0.99510 0.38080 0.05000
C 	C 	0.64214 0.00684 0.69350 0.00900
H 	H 	0.65190 0.98390 0.72890 0.00100
C 	C 	0.64407 0.06517 0.79340 -0.00100
H 	H 	0.65560 0.08310 0.89760 0.02300
Ag	Ag	0.46009 0.73145 0.43953 0.51200
N 	N 	0.50704 0.69663 0.68260 -0.17000
N 	N 	0.53696 0.70900 0.88320 -0.16700
N 	N 	0.54714 0.65253 0.85860 -0.10600
N 	N 	0.56315 0.61744 0.88090 -0.08900
N 	N 	0.65914 0.53245 0.34710 -0.17400
C 	C 	0.51405 0.66259 0.67170 0.08700
H 	H 	0.49860 0.64780 0.55360 0.00300
C 	C 	0.56124 0.68211 0.98580 0.05900
H 	H 	0.58430 0.68300 0.12290 0.00700
C 	C 	0.59493 0.61041 0.05800 0.01200
H 	H 	0.60720 0.62780 0.16530 0.03700
C 	C 	0.61208 0.57354 0.09010 0.00200
C 	C 	0.59498 0.54736 0.93310 -0.05300
H 	H 	0.57340 0.55230 0.79520 0.05400
C 	C 	0.61066 0.51332 0.98490 -0.10600
H 	H 	0.60010 0.49510 0.88080 0.05100
C 	C 	0.64214 0.50684 0.19350 0.01700
H 	H 	0.65190 0.48390 0.22890 0.00100
C 	C 	0.64407 0.56517 0.29340 -0.00000
H 	H 	0.65560 0.58310 0.39760 0.02400
Ag	Ag	0.03991 0.76855 0.43953 0.51200
N 	N 	0.99296 0.80337 0.68260 -0.17000
N 	N 	0.96304 0.79100 0.88320 -0.16700
N 	N 	0.95286 0.84747 0.85860 -0.10600
N 	N 	0.93685 0.88256 0.88090 -0.08900
N 	N 	0.84086 0.96755 0.34710 -0.17400
C 	C 	0.98595 0.83741 0.67170 0.08700
H 	H 	0.00140 0.85220 0.55360 0.00300
C 	C 	0.93876 0.81789 0.98580 0.05900
H 	H 	0.91570 0.81700 0.12290 0.00700
C 	C 	0.90507 0.88959 0.05800 0.01200
H 	H 	0.89280 0.87220 0.16530 0.03700
C 	C 	0.88792 0.92646 0.09010 0.00200
C 	C 	0.90502 0.95264 0.93310 -0.05300
H 	H 	0.92660 0.94770 0.79520 0.05400
C 	C 	0.88934 0.98668 0.98490 -0.10600
H 	H 	0.89990 0.00490 0.88080 0.05100
C 	C 	0.85786 0.99316 0.19350 0.01700
H 	H 	0.84810 0.01610 0.22890 0.00100
C 	C 	0.85593 0.93483 0.29340 -0.00000
H 	H 	0.84440 0.91690 0.39760 0.02400
Ag	Ag	0.03991 0.26855 0.93953 0.50600
N 	N 	0.99296 0.30337 0.18260 -0.16700
N 	N 	0.96304 0.29100 0.38320 -0.16800
N 	N 	0.95286 0.34747 0.35860 -0.10800
N 	N 	0.93685 0.38256 0.38090 -0.08300
N 	N 	0.84086 0.46755 0.84710 -0.17500
C 	C 	0.98595 0.33741 0.17170 0.08900
H 	H 	0.00140 0.35220 0.05360 0.00400
C 	C 	0.93876 0.31789 0.48580 0.07600
H 	H 	0.91570 0.31700 0.62290 -0.00500
C 	C 	0.90507 0.38959 0.55800 0.00400
H 	H 	0.89280 0.37220 0.66530 0.03700
C 	C 	0.88792 0.42646 0.59010 -0.00200
C 	C 	0.90502 0.45264 0.43310 -0.04800
H 	H 	0.92660 0.44770 0.29520 0.05400
C 	C 	0.88934 0.48668 0.48490 -0.10000
H 	H 	0.89990 0.50490 0.38080 0.05000
C 	C 	0.85786 0.49316 0.69350 0.00900
H 	H 	0.84810 0.51610 0.72890 0.00100
C 	C 	0.85593 0.43483 0.79340 -0.00100
H 	H 	0.84440 0.41690 0.89760 0.02300
Ag	Ag	0.53991 0.76855 0.93953 0.50600
N 	N 	0.49296 0.80337 0.18260 -0.16700
N 	N 	0.46304 0.79100 0.38320 -0.16800
N 	N 	0.45286 0.84747 0.35860 -0.10800
N 	N 	0.43685 0.88256 0.38090 -0.08300
N 	N 	0.34086 0.96755 0.84710 -0.17500
C 	C 	0.48595 0.83741 0.17170 0.08900
H 	H 	0.50140 0.85220 0.05360 0.00400
C 	C 	0.43876 0.81789 0.48580 0.07600
H 	H 	0.41570 0.81700 0.62290 -0.00500
C 	C 	0.40507 0.88959 0.55800 0.00400
H 	H 	0.39280 0.87220 0.66530 0.03700
C 	C 	0.38792 0.92646 0.59010 -0.00200
C 	C 	0.40502 0.95264 0.43310 -0.04800
H 	H 	0.42660 0.94770 0.29520 0.05400
C 	C 	0.38934 0.98668 0.48490 -0.10000
H 	H 	0.39990 0.00490 0.38080 0.05000
C 	C 	0.35786 0.99316 0.69350 0.00900
H 	H 	0.34810 0.01610 0.72890 0.00100
C 	C 	0.35593 0.93483 0.79340 -0.00100
H 	H 	0.34440 0.91690 0.89760 0.02300
Ag	Ag	0.53991 0.26855 0.43953 0.51200
N 	N 	0.49296 0.30337 0.68260 -0.17000
N 	N 	0.46304 0.29100 0.88320 -0.16700
N 	N 	0.45286 0.34747 0.85860 -0.10600
N 	N 	0.43685 0.38256 0.88090 -0.08900
N 	N 	0.34086 0.46755 0.34710 -0.17400
C 	C 	0.48595 0.33741 0.67170 0.08700
H 	H 	0.50140 0.35220 0.55360 0.00300
C 	C 	0.43876 0.31789 0.98580 0.05900
H 	H 	0.41570 0.31700 0.12290 0.00700
C 	C 	0.40507 0.38959 0.05800 0.01200
H 	H 	0.39280 0.37220 0.16530 0.03700
C 	C 	0.38792 0.42646 0.09010 0.00200
C 	C 	0.40502 0.45264 0.93310 -0.05300
H 	H 	0.42660 0.44770 0.79520 0.05400
C 	C 	0.38934 0.48668 0.98490 -0.10600
H 	H 	0.39990 0.50490 0.88080 0.05100
C 	C 	0.35786 0.49316 0.19350 0.01700
H 	H 	0.34810 0.51610 0.22890 0.00100
C 	C 	0.35593 0.43483 0.29340 -0.00000
H 	H 	0.34440 0.41690 0.39760 0.02400
Ag	Ag	0.21009 0.01855 0.68953 0.51000
N 	N 	0.25704 0.05337 0.93260 -0.17100
N 	N 	0.28696 0.04100 0.13320 -0.16600
N 	N 	0.29714 0.09747 0.10860 -0.10400
N 	N 	0.31315 0.13256 0.13090 -0.08300
N 	N 	0.40914 0.21755 0.59710 -0.17400
C 	C 	0.26405 0.08741 0.92170 0.07900
H 	H 	0.24860 0.10220 0.80360 0.00300
C 	C 	0.31124 0.06789 0.23580 0.07700
H 	H 	0.33430 0.06700 0.37290 -0.00500
C 	C 	0.34493 0.13959 0.30800 0.00500
H 	H 	0.35720 0.12220 0.41530 0.03700
C 	C 	0.36208 0.17646 0.34010 -0.00100
C 	C 	0.34498 0.20264 0.18310 -0.04800
H 	H 	0.32340 0.19770 0.04520 0.05500
C 	C 	0.36066 0.23668 0.23490 -0.09800
H 	H 	0.35010 0.25490 0.13080 0.05100
C 	C 	0.39214 0.24316 0.44350 0.00900
H 	H 	0.40190 0.26610 0.47890 0.00200
C 	C 	0.39407 0.18483 0.54340 -0.00100
H 	H 	0.40560 0.16690 0.64760 0.02300
Ag	Ag	0.21009 0.51855 0.18953 0.51300
N 	N 	0.25704 0.55337 0.43260 -0.16900
N 	N 	0.28696 0.54100 0.63320 -0.16900
N 	N 	0.29714 0.59747 0.60860 -0.10800
N 	N 	0.31315 0.63256 0.63090 -0.08500
N 	N 	0.40914 0.71755 0.09710 -0.17000
C 	C 	0.26405 0.58741 0.42170 0.08800
H 	H 	0.24860 0.60220 0.30360 0.00300
C 	C 	0.31124 0.56789 0.73580 0.07600
H 	H 	0.33430 0.56700 0.87290 -0.00600
C 	C 	0.34493 0.63959 0.80800 0.00800
H 	H 	0.35720 0.62220 0.91530 0.03500
C 	C 	0.36208 0.67646 0.84010 -0.01300
C 	C 	0.34498 0.70264 0.68310 -0.04400
H 	H 	0.32340 0.69770 0.54520 0.05200
C 	C 	0.36066 0.73668 0.73490 -0.10000
H 	H 	0.35010 0.75490 0.63080 0.05000
C 	C 	0.39214 0.74316 0.94350 0.00200
H 	H 	0.40190 0.76610 0.97890 0.00200
C 	C 	0.39407 0.68483 0.04340 0.01300
H 	H 	0.40560 0.66690 0.14760 0.02200
Ag	Ag	0.71009 0.01855 0.18953 0.51300
N 	N 	0.75704 0.05337 0.43260 -0.16900
N 	N 	0.78696 0.04100 0.63320 -0.16900
N 	N 	0.79714 0.09747 0.60860 -0.10800
N 	N 	0.81315 0.13256 0.63090 -0.08500
N 	N 	0.90914 0.21755 0.09710 -0.17000
C 	C 	0.76405 0.08741 0.42170 0.08800
H 	H 	0.74860 0.10220 0.30360 0.00300
C 	C 	0.81124 0.06789 0.73580 0.07600
H 	H 	0.83430 0.06700 0.87290 -0.00600
C 	C 	0.84493 0.13959 0.80800 0.00800
H 	H 	0.85720 0.12220 0.91530 0.03500
C 	C 	0.86208 0.17646 0.84010 -0.01300
C 	C 	0.84498 0.20264 0.68310 -0.04400
H 	H 	0.82340 0.19770 0.54520 0.05200
C 	C 	0.86066 0.23668 0.73490 -0.10000
H 	H 	0.85010 0.25490 0.63080 0.05000
C 	C 	0.89214 0.24316 0.94350 0.00200
H 	H 	0.90190 0.26610 0.97890 0.00200
C 	C 	0.89407 0.18483 0.04340 0.01300
H 	H 	0.90560 0.16690 0.14760 0.02200
Ag	Ag	0.71009 0.51855 0.68953 0.51000
N 	N 	0.75704 0.55337 0.93260 -0.17100
N 	N 	0.78696 0.54100 0.13320 -0.16600
N 	N 	0.79714 0.59747 0.10860 -0.10400
N 	N 	0.81315 0.63256 0.13090 -0.08300
N 	N 	0.90914 0.71755 0.59710 -0.17400
C 	C 	0.76405 0.58741 0.92170 0.07900
H 	H 	0.74860 0.60220 0.80360 0.00300
C 	C 	0.81124 0.56789 0.23580 0.07700
H 	H 	0.83430 0.56700 0.37290 -0.00500
C 	C 	0.84493 0.63959 0.30800 0.00500
H 	H 	0.85720 0.62220 0.41530 0.03700
C 	C 	0.86208 0.67646 0.34010 -0.00100
C 	C 	0.84498 0.70264 0.18310 -0.04800
H 	H 	0.82340 0.69770 0.04520 0.05500
C 	C 	0.86066 0.73668 0.23490 -0.09800
H 	H 	0.85010 0.75490 0.13080 0.05100
C 	C 	0.89214 0.74316 0.44350 0.00900
H 	H 	0.90190 0.76610 0.47890 0.00200
C 	C 	0.89407 0.68483 0.54340 -0.00100
H 	H 	0.90560 0.66690 0.64760 0.02300
Ag	Ag	0.28991 0.48145 0.68953 0.51000
N 	N 	0.24296 0.44663 0.93260 -0.17100
N 	N 	0.21304 0.45900 0.13320 -0.16600
N 	N 	0.20286 0.40253 0.10860 -0.10400
N 	N 	0.18685 0.36744 0.13090 -0.08300
N 	N 	0.09086 0.28245 0.59710 -0.17400
C 	C 	0.23595 0.41259 0.92170 0.07900
H 	H 	0.25140 0.39780 0.80360 0.00300
C 	C 	0.18876 0.43211 0.23580 0.07700
H 	H 	0.16570 0.43300 0.37290 -0.00500
C 	C 	0.15507 0.36041 0.30800 0.00500
H 	H 	0.14280 0.37780 0.41530 0.03700
C 	C 	0.13792 0.32354 0.34010 -0.00100
C 	C 	0.15502 0.29736 0.18310 -0.04800
H 	H 	0.17660 0.30230 0.04520 0.05500
C 	C 	0.13934 0.26332 0.23490 -0.09800
H 	H 	0.14990 0.24510 0.13080 0.05100
C 	C 	0.10786 0.25684 0.44350 0.00900
H 	H 	0.09810 0.23390 0.47890 0.00200
C 	C 	0.10593 0.31517 0.54340 -0.00100
H 	H 	0.09440 0.33310 0.64760 0.02300
Ag	Ag	0.28991 0.98145 0.18953 0.51300
N 	N 	0.24296 0.94663 0.43260 -0.16900
N 	N 	0.21304 0.95900 0.63320 -0.16900
N 	N 	0.20286 0.90253 0.60860 -0.10800
N 	N 	0.18685 0.86744 0.63090 -0.08500
N 	N 	0.09086 0.78245 0.09710 -0.17000
C 	C 	0.23595 0.91259 0.42170 0.08800
H 	H 	0.25140 0.89780 0.30360 0.00300
C 	C 	0.18876 0.93211 0.73580 0.07600
H 	H 	0.16570 0.93300 0.87290 -0.00600
C 	C 	0.15507 0.86041 0.80800 0.00800
H 	H 	0.14280 0.87780 0.91530 0.03500
C 	C 	0.13792 0.82354 0.84010 -0.01300
C 	C 	0.15502 0.79736 0.68310 -0.04400
H 	H 	0.17660 0.80230 0.54520 0.05200
C 	C 	0.13934 0.76332 0.73490 -0.10000
H 	H 	0.14990 0.74510 0.63080 0.05000
C 	C 	0.10786 0.75684 0.94350 0.00200
H 	H 	0.09810 0.73390 0.97890 0.00200
C 	C 	0.10593 0.81517 0.04340 0.01300
H 	H 	0.09440 0.83310 0.14760 0.02200
Ag	Ag	0.78991 0.48145 0.18953 0.51300
N 	N 	0.74296 0.44663 0.43260 -0.16900
N 	N 	0.71304 0.45900 0.63320 -0.16900
N 	N 	0.70286 0.40253 0.60860 -0.10800
N 	N 	0.68685 0.36744 0.63090 -0.08500
N 	N 	0.59086 0.28245 0.09710 -0.17000
C 	C 	0.73595 0.41259 0.42170 0.08800
H 	H 	0.75140 0.39780 0.30360 0.00300
C 	C 	0.68876 0.43211 0.73580 0.07600
H 	H 	0.66570 0.43300 0.87290 -0.00600
C 	C 	0.65507 0.36041 0.80800 0.00800
H 	H 	0.64280 0.37780 0.91530 0.03500
C 	C 	0.63792 0.32354 0.84010 -0.01300
C 	C 	0.65502 0.29736 0.68310 -0.04400
H 	H 	0.67660 0.30230 0.54520 0.05200
C 	C 	0.63934 0.26332 0.73490 -0.10000
H 	H 	0.64990 0.24510 0.63080 0.05000
C 	C 	0.60786 0.25684 0.94350 0.00200
H 	H 	0.59810 0.23390 0.97890 0.00200
C 	C 	0.60593 0.31517 0.04340 0.01300
H 	H 	0.59440 0.33310 0.14760 0.02200
Ag	Ag	0.78991 0.98145 0.68953 0.51000
N 	N 	0.74296 0.94663 0.93260 -0.17100
N 	N 	0.71304 0.95900 0.13320 -0.16600
N 	N 	0.70286 0.90253 0.10860 -0.10400
N 	N 	0.68685 0.86744 0.13090 -0.08300
N 	N 	0.59086 0.78245 0.59710 -0.17400
C 	C 	0.73595 0.91259 0.92170 0.07900
H 	H 	0.75140 0.89780 0.80360 0.00300
C 	C 	0.68876 0.93211 0.23580 0.07700
H 	H 	0.66570 0.93300 0.37290 -0.00500
C 	C 	0.65507 0.86041 0.30800 0.00500
H 	H 	0.64280 0.87780 0.41530 0.03700
C 	C 	0.63792 0.82354 0.34010 -0.00100
C 	C 	0.65502 0.79736 0.18310 -0.04800
H 	H 	0.67660 0.80230 0.04520 0.05500
C 	C 	0.63934 0.76332 0.23490 -0.09800
H 	H 	0.64990 0.74510 0.13080 0.05100
C 	C 	0.60786 0.75684 0.44350 0.00900
H 	H 	0.59810 0.73390 0.47890 0.00200
C 	C 	0.60593 0.81517 0.54340 -0.00100
H 	H 	0.59440 0.83310 0.64760 0.02300
