data_crystal

_cell_length_a 18.60690
_cell_length_b 18.60690
_cell_length_c 18.60690
_cell_angle_alpha 60.00000
_cell_angle_beta  60.00000
_cell_angle_gamma 60.00000

_symmetry_space_group_name_	'P 1'
_symmetry_space_group_name_H-M	'P 1'

loop_
_symmetry_equiv_pos_as_xyz
  x,y,z

loop_
_atom_site_label
_atom_site_type_symbol
_atom_site_fract_x
_atom_site_fract_y
_atom_site_fract_z
_atom_site_charge
Cu	Cu	0.50000 0.50000 0.07056 0.90600
Cu	Cu	0.50000 0.50000 0.92944 0.90600
Cu	Cu	0.07056 0.92944 0.50000 0.90600
Cu	Cu	0.92944 0.07056 0.50000 0.90600
Cu	Cu	0.50000 0.07056 0.92944 0.90600
Cu	Cu	0.50000 0.92944 0.07056 0.90600
Cu	Cu	0.07056 0.50000 0.50000 0.90500
Cu	Cu	0.92944 0.50000 0.50000 0.90500
Cu	Cu	0.50000 0.92944 0.50000 0.90500
Cu	Cu	0.50000 0.07056 0.50000 0.90500
Cu	Cu	0.07056 0.50000 0.92944 0.90500
Cu	Cu	0.92944 0.50000 0.07056 0.90500
H 	H 	0.46660 0.77220 0.98900 0.04700
H 	H 	0.77220 0.46660 0.77220 0.04800
H 	H 	0.98900 0.77220 0.46660 0.04700
H 	H 	0.77220 0.98900 0.77220 0.04800
H 	H 	0.46660 0.98900 0.77220 0.04700
H 	H 	0.77220 0.77220 0.98900 0.04800
H 	H 	0.98900 0.46660 0.77220 0.04700
H 	H 	0.77220 0.77220 0.46660 0.04800
H 	H 	0.46660 0.77220 0.77220 0.04800
H 	H 	0.77220 0.98900 0.46660 0.04700
H 	H 	0.98900 0.77220 0.77220 0.04800
H 	H 	0.77220 0.46660 0.98900 0.04700
H 	H 	0.22780 0.53340 0.01100 0.04700
H 	H 	0.53340 0.22780 0.22780 0.04800
H 	H 	0.22780 0.01100 0.53340 0.04700
H 	H 	0.01100 0.22780 0.22780 0.04800
H 	H 	0.01100 0.53340 0.22780 0.04700
H 	H 	0.22780 0.22780 0.01100 0.04800
H 	H 	0.53340 0.01100 0.22780 0.04700
H 	H 	0.22780 0.22780 0.53340 0.04800
H 	H 	0.22780 0.53340 0.22780 0.04800
H 	H 	0.01100 0.22780 0.53340 0.04700
H 	H 	0.22780 0.01100 0.22780 0.04800
H 	H 	0.53340 0.22780 0.01100 0.04700
C 	C 	0.47414 0.66286 0.93150 0.35900
C 	C 	0.46530 0.75810 0.88830 -0.10500
C 	C 	0.66286 0.47414 0.93150 0.35900
C 	C 	0.75810 0.46530 0.88830 -0.10500
C 	C 	0.93150 0.93150 0.47414 0.34600
C 	C 	0.88830 0.88830 0.46530 -0.10200
C 	C 	0.93150 0.93150 0.66286 0.33800
C 	C 	0.88830 0.88830 0.75810 -0.09800
C 	C 	0.47414 0.93150 0.93150 0.34600
C 	C 	0.46530 0.88830 0.88830 -0.10200
C 	C 	0.66286 0.93150 0.93150 0.33800
C 	C 	0.75810 0.88830 0.88830 -0.09800
C 	C 	0.93150 0.47414 0.66286 0.35900
C 	C 	0.88830 0.46530 0.75810 -0.10500
C 	C 	0.93150 0.66286 0.47414 0.35900
C 	C 	0.88830 0.75810 0.46530 -0.10500
C 	C 	0.47414 0.93150 0.66286 0.35900
C 	C 	0.46530 0.88830 0.75810 -0.10500
C 	C 	0.66286 0.93150 0.47414 0.35900
C 	C 	0.75810 0.88830 0.46530 -0.10500
C 	C 	0.93150 0.66286 0.93150 0.33800
C 	C 	0.88830 0.75810 0.88830 -0.09800
C 	C 	0.93150 0.47414 0.93150 0.34600
C 	C 	0.88830 0.46530 0.88830 -0.10200
C 	C 	0.33714 0.52586 0.06850 0.35900
C 	C 	0.24190 0.53470 0.11170 -0.10500
C 	C 	0.52586 0.33714 0.06850 0.35900
C 	C 	0.53470 0.24190 0.11170 -0.10500
C 	C 	0.06850 0.06850 0.52586 0.34600
C 	C 	0.11170 0.11170 0.53470 -0.10200
C 	C 	0.06850 0.06850 0.33714 0.33800
C 	C 	0.11170 0.11170 0.24190 -0.09800
C 	C 	0.06850 0.52586 0.06850 0.34600
C 	C 	0.11170 0.53470 0.11170 -0.10200
C 	C 	0.06850 0.33714 0.06850 0.33800
C 	C 	0.11170 0.24190 0.11170 -0.09800
C 	C 	0.52586 0.06850 0.33714 0.35900
C 	C 	0.53470 0.11170 0.24190 -0.10500
C 	C 	0.33714 0.06850 0.52586 0.35900
C 	C 	0.24190 0.11170 0.53470 -0.10500
C 	C 	0.06850 0.52586 0.33714 0.35900
C 	C 	0.11170 0.53470 0.24190 -0.10500
C 	C 	0.06850 0.33714 0.52586 0.35900
C 	C 	0.11170 0.24190 0.53470 -0.10500
C 	C 	0.33714 0.06850 0.06850 0.33800
C 	C 	0.24190 0.11170 0.11170 -0.09800
C 	C 	0.52586 0.06850 0.06850 0.34600
C 	C 	0.53470 0.11170 0.11170 -0.10200
C 	C 	0.46590 0.80130 0.93150 0.04800
C 	C 	0.80130 0.46590 0.80130 0.05000
C 	C 	0.93150 0.80130 0.46590 0.04800
C 	C 	0.80130 0.93150 0.80130 0.04100
C 	C 	0.46590 0.93150 0.80130 0.04800
C 	C 	0.80130 0.80130 0.93150 0.04100
C 	C 	0.93150 0.46590 0.80130 0.04800
C 	C 	0.80130 0.80130 0.46590 0.05000
C 	C 	0.46590 0.80130 0.80130 0.05000
C 	C 	0.80130 0.93150 0.46590 0.04800
C 	C 	0.93150 0.80130 0.80130 0.04100
C 	C 	0.80130 0.46590 0.93150 0.04800
C 	C 	0.19870 0.53410 0.06850 0.04800
C 	C 	0.53410 0.19870 0.19870 0.05000
C 	C 	0.19870 0.06850 0.53410 0.04800
C 	C 	0.06850 0.19870 0.19870 0.04100
C 	C 	0.06850 0.53410 0.19870 0.04800
C 	C 	0.19870 0.19870 0.06850 0.04100
C 	C 	0.53410 0.06850 0.19870 0.04800
C 	C 	0.19870 0.19870 0.53410 0.05000
C 	C 	0.19870 0.53410 0.19870 0.05000
C 	C 	0.06850 0.19870 0.53410 0.04800
C 	C 	0.19870 0.06850 0.19870 0.04100
C 	C 	0.53410 0.19870 0.06850 0.04800
O 	O 	0.47922 0.62612 0.00784 -0.40100
O 	O 	0.62612 0.47922 0.88682 -0.40300
O 	O 	0.00784 0.88682 0.47922 -0.39500
O 	O 	0.88682 0.00784 0.62612 -0.39100
O 	O 	0.47922 0.00784 0.88682 -0.39500
O 	O 	0.62612 0.88682 0.00784 -0.39100
O 	O 	0.00784 0.47922 0.62612 -0.40100
O 	O 	0.88682 0.62612 0.47922 -0.40300
O 	O 	0.47922 0.88682 0.62612 -0.40300
O 	O 	0.62612 0.00784 0.47922 -0.40100
O 	O 	0.00784 0.62612 0.88682 -0.39100
O 	O 	0.88682 0.47922 0.00784 -0.39500
O 	O 	0.37388 0.52078 0.99216 -0.40100
O 	O 	0.52078 0.37388 0.11318 -0.40300
O 	O 	0.11318 0.99216 0.52078 -0.39500
O 	O 	0.99216 0.11318 0.37388 -0.39100
O 	O 	0.99216 0.52078 0.11318 -0.39500
O 	O 	0.11318 0.37388 0.99216 -0.39100
O 	O 	0.52078 0.99216 0.37388 -0.40100
O 	O 	0.37388 0.11318 0.52078 -0.40300
O 	O 	0.11318 0.52078 0.37388 -0.40300
O 	O 	0.99216 0.37388 0.52078 -0.40100
O 	O 	0.37388 0.99216 0.11318 -0.39100
O 	O 	0.52078 0.11318 0.99216 -0.39500
O 	O 	0.52078 0.37388 0.99216 -0.40100
O 	O 	0.37388 0.52078 0.11318 -0.40300
O 	O 	0.99216 0.11318 0.52078 -0.39500
O 	O 	0.11318 0.99216 0.37388 -0.39100
O 	O 	0.52078 0.99216 0.11318 -0.39500
O 	O 	0.37388 0.11318 0.99216 -0.39100
O 	O 	0.99216 0.52078 0.37388 -0.40100
O 	O 	0.11318 0.37388 0.52078 -0.40300
O 	O 	0.52078 0.11318 0.37388 -0.40300
O 	O 	0.37388 0.99216 0.52078 -0.40100
O 	O 	0.99216 0.37388 0.11318 -0.39100
O 	O 	0.11318 0.52078 0.99216 -0.39500
O 	O 	0.62612 0.47922 0.00784 -0.40100
O 	O 	0.47922 0.62612 0.88682 -0.40300
O 	O 	0.88682 0.00784 0.47922 -0.39500
O 	O 	0.00784 0.88682 0.62612 -0.39100
O 	O 	0.00784 0.47922 0.88682 -0.39500
O 	O 	0.88682 0.62612 0.00784 -0.39100
O 	O 	0.47922 0.00784 0.62612 -0.40100
O 	O 	0.62612 0.88682 0.47922 -0.40300
O 	O 	0.88682 0.47922 0.62612 -0.40300
O 	O 	0.00784 0.62612 0.47922 -0.40100
O 	O 	0.62612 0.00784 0.88682 -0.39100
O 	O 	0.47922 0.88682 0.00784 -0.39500
