data_crystal

_cell_length_a 30.38010
_cell_length_b 10.12040
_cell_length_c 10.09770
_cell_angle_alpha 90.00000
_cell_angle_beta  107.71200
_cell_angle_gamma 90.00000

_symmetry_space_group_name_	'P 1'
_symmetry_space_group_name_H-M	'P 1'

loop_
_symmetry_equiv_pos_as_xyz
  x,y,z

loop_
_atom_site_label
_atom_site_type_symbol
_atom_site_fract_x
_atom_site_fract_y
_atom_site_fract_z
_atom_site_charge
Fe	Fe	0.79644 0.16238 0.91870 1.21800
Fe	Fe	0.79261 0.92250 0.67120 1.14000
Fe	Fe	0.03442 0.67750 0.39990 1.22500
Fe	Fe	0.86542 0.92810 0.00770 1.09900
Fe	Fe	0.94907 0.43160 0.33830 1.17400
Fe	Fe	0.87514 0.17770 0.77080 1.18700
P 	P 	0.76994 0.21920 0.59940 0.51500
P 	P 	0.92853 0.73800 0.28590 0.52400
P 	P 	0.88902 0.21930 0.06870 0.46500
P 	P 	0.90040 0.87760 0.75020 0.37700
P 	P 	0.05425 0.38040 0.35580 0.53500
P 	P 	0.75886 0.87410 0.92710 0.40200
O 	O 	0.76140 0.06920 0.55910 -0.28800
O 	O 	0.75990 0.24220 0.73930 -0.37000
O 	O 	0.82030 0.25530 0.61360 -0.36400
O 	O 	0.73600 0.30060 0.49010 -0.32300
O 	O 	0.97910 0.76230 0.28230 -0.44400
O 	O 	0.92730 0.75990 0.43620 -0.44200
O 	O 	0.89550 0.83380 0.19340 -0.39900
O 	O 	0.91480 0.59400 0.24470 -0.39800
O 	O 	0.85520 0.10850 0.09240 -0.39200
O 	O 	0.85680 0.27890 0.92840 -0.45600
O 	O 	0.93030 0.15990 0.03920 -0.26200
O 	O 	0.89940 0.31930 0.18480 -0.31600
O 	O 	0.85050 0.84210 0.65800 -0.41300
O 	O 	0.93520 0.79150 0.71250 -0.34400
O 	O 	0.90440 0.85000 0.90390 -0.42700
O 	O 	0.90980 0.02400 0.72530 -0.24300
O 	O 	0.05980 0.53110 0.33260 -0.41700
O 	O 	0.00260 0.34470 0.30240 -0.39400
O 	O 	0.07930 0.30900 0.26900 -0.34100
O 	O 	0.07380 0.35130 0.51130 -0.38600
O 	O 	0.75420 0.84490 0.77110 -0.41100
O 	O 	0.75340 0.02550 0.94600 -0.24500
O 	O 	0.80650 0.82650 0.98310 -0.43000
O 	O 	0.71990 0.80270 0.96280 -0.36000
O 	O 	0.82540 0.03300 0.82140 -0.60200
Fe	Fe	0.29644 0.66238 0.91870 1.20800
Fe	Fe	0.29261 0.42250 0.67120 1.23600
Fe	Fe	0.53442 0.17750 0.39990 1.23800
Fe	Fe	0.36542 0.42810 0.00770 1.18800
Fe	Fe	0.44907 0.93160 0.33830 1.09400
Fe	Fe	0.37514 0.67770 0.77080 1.17000
P 	P 	0.26994 0.71920 0.59940 0.51500
P 	P 	0.42853 0.23800 0.28590 0.52300
P 	P 	0.38902 0.71930 0.06870 0.46400
P 	P 	0.40040 0.37760 0.75020 0.52400
P 	P 	0.55425 0.88040 0.35580 0.39700
P 	P 	0.25886 0.37410 0.92710 0.54400
O 	O 	0.26140 0.56920 0.55910 -0.39000
O 	O 	0.25990 0.74220 0.73930 -0.41000
O 	O 	0.32030 0.75530 0.61360 -0.40800
O 	O 	0.23600 0.80060 0.49010 -0.37500
O 	O 	0.47910 0.26230 0.28230 -0.39300
O 	O 	0.42730 0.25990 0.43620 -0.39800
O 	O 	0.39550 0.33380 0.19340 -0.34100
O 	O 	0.41480 0.09400 0.24470 -0.30000
O 	O 	0.35520 0.60850 0.09240 -0.46800
O 	O 	0.35680 0.77890 0.92840 -0.49100
O 	O 	0.43030 0.65990 0.03920 -0.31800
O 	O 	0.39940 0.81930 0.18480 -0.37000
O 	O 	0.35050 0.34210 0.65800 -0.37300
O 	O 	0.43520 0.29150 0.71250 -0.32000
O 	O 	0.40440 0.35000 0.90390 -0.38500
O 	O 	0.40980 0.52400 0.72530 -0.39400
O 	O 	0.55980 0.03110 0.33260 -0.26800
O 	O 	0.50260 0.84470 0.30240 -0.43700
O 	O 	0.57930 0.80900 0.26900 -0.36900
O 	O 	0.57380 0.85130 0.51130 -0.42900
O 	O 	0.25420 0.34490 0.77110 -0.36900
O 	O 	0.25340 0.52550 0.94600 -0.39000
O 	O 	0.30650 0.32650 0.98310 -0.40300
O 	O 	0.21990 0.30270 0.96280 -0.33700
O 	O 	0.32540 0.53300 0.82140 -0.72000
Fe	Fe	0.20356 0.16238 0.08130 1.21900
Fe	Fe	0.20739 0.92250 0.32880 1.14100
Fe	Fe	0.96558 0.67750 0.60010 1.21700
Fe	Fe	0.13458 0.92810 0.99230 1.10100
Fe	Fe	0.05093 0.43160 0.66170 1.18300
Fe	Fe	0.12486 0.17770 0.22920 1.18700
P 	P 	0.23006 0.21920 0.40060 0.51500
P 	P 	0.07147 0.73800 0.71410 0.52400
P 	P 	0.11098 0.21930 0.93130 0.46600
P 	P 	0.09960 0.87760 0.24980 0.37800
P 	P 	0.94575 0.38040 0.64420 0.53500
P 	P 	0.24114 0.87410 0.07290 0.40200
O 	O 	0.23860 0.06920 0.44090 -0.28800
O 	O 	0.24010 0.24220 0.26070 -0.37000
O 	O 	0.17970 0.25530 0.38640 -0.36400
O 	O 	0.26400 0.30060 0.50990 -0.32300
O 	O 	0.02090 0.76230 0.71770 -0.43000
O 	O 	0.07270 0.75990 0.56380 -0.43900
O 	O 	0.10450 0.83380 0.80660 -0.39700
O 	O 	0.08520 0.59400 0.75530 -0.39500
O 	O 	0.14480 0.10850 0.90760 -0.39200
O 	O 	0.14320 0.27890 0.07160 -0.45600
O 	O 	0.06970 0.15990 0.96080 -0.25500
O 	O 	0.10060 0.31930 0.81520 -0.31300
O 	O 	0.14950 0.84210 0.34200 -0.41300
O 	O 	0.06480 0.79150 0.28750 -0.33800
O 	O 	0.09560 0.85000 0.09610 -0.42500
O 	O 	0.09020 0.02400 0.27470 -0.24000
O 	O 	0.94020 0.53110 0.66740 -0.42100
O 	O 	0.99740 0.34470 0.69760 -0.40900
O 	O 	0.92070 0.30900 0.73100 -0.34300
O 	O 	0.92620 0.35130 0.48870 -0.38900
O 	O 	0.24580 0.84490 0.22890 -0.41100
O 	O 	0.24660 0.02550 0.05400 -0.24500
O 	O 	0.19350 0.82650 0.01690 -0.43100
O 	O 	0.28010 0.80270 0.03720 -0.36000
O 	O 	0.17460 0.03300 0.17860 -0.60300
Fe	Fe	0.70356 0.66238 0.08130 1.20800
Fe	Fe	0.70739 0.42250 0.32880 1.23600
Fe	Fe	0.46558 0.17750 0.60010 1.23800
Fe	Fe	0.63458 0.42810 0.99230 1.18800
Fe	Fe	0.55093 0.93160 0.66170 1.09400
Fe	Fe	0.62486 0.67770 0.22920 1.17000
P 	P 	0.73006 0.71920 0.40060 0.51500
P 	P 	0.57147 0.23800 0.71410 0.52300
P 	P 	0.61098 0.71930 0.93130 0.46400
P 	P 	0.59960 0.37760 0.24980 0.52400
P 	P 	0.44575 0.88040 0.64420 0.39700
P 	P 	0.74114 0.37410 0.07290 0.54400
O 	O 	0.73860 0.56920 0.44090 -0.38900
O 	O 	0.74010 0.74220 0.26070 -0.41000
O 	O 	0.67970 0.75530 0.38640 -0.40800
O 	O 	0.76400 0.80060 0.50990 -0.37500
O 	O 	0.52090 0.26230 0.71770 -0.39300
O 	O 	0.57270 0.25990 0.56380 -0.39800
O 	O 	0.60450 0.33380 0.80660 -0.34100
O 	O 	0.58520 0.09400 0.75530 -0.30000
O 	O 	0.64480 0.60850 0.90760 -0.46800
O 	O 	0.64320 0.77890 0.07160 -0.49200
O 	O 	0.56970 0.65990 0.96080 -0.31800
O 	O 	0.60060 0.81930 0.81520 -0.37000
O 	O 	0.64950 0.34210 0.34200 -0.37300
O 	O 	0.56480 0.29150 0.28750 -0.32000
O 	O 	0.59560 0.35000 0.09610 -0.38500
O 	O 	0.59020 0.52400 0.27470 -0.39400
O 	O 	0.44020 0.03110 0.66740 -0.26800
O 	O 	0.49740 0.84470 0.69760 -0.43700
O 	O 	0.42070 0.80900 0.73100 -0.36900
O 	O 	0.42620 0.85130 0.48870 -0.42900
O 	O 	0.74580 0.34490 0.22890 -0.36900
O 	O 	0.74660 0.52550 0.05400 -0.39000
O 	O 	0.69350 0.32650 0.01690 -0.40300
O 	O 	0.78010 0.30270 0.03720 -0.33700
O 	O 	0.67460 0.53300 0.17860 -0.72000
O 	O 	0.00000 0.57730 0.50000 -0.69200
O 	O 	0.50000 0.07730 0.50000 -0.61000
