data_crystal

_cell_length_a 20.31770
_cell_length_b 20.31770
_cell_length_c 20.31770
_cell_angle_alpha 90.00000
_cell_angle_beta  90.00000
_cell_angle_gamma 90.00000

_symmetry_space_group_name_	'P 1'
_symmetry_space_group_name_H-M	'P 1'

loop_
_symmetry_equiv_pos_as_xyz
  x,y,z

loop_
_atom_site_label
_atom_site_type_symbol
_atom_site_fract_x
_atom_site_fract_y
_atom_site_fract_z
_atom_site_charge
O 	O 	0.12970 0.81460 0.24410 -0.44700
O 	O 	0.04740 0.88390 0.21560 -0.33100
N 	N 	0.99700 0.65590 0.00890 -0.25200
H 	H 	0.96080 0.67000 0.98960 0.16400
N 	N 	0.99080 0.57760 0.93000 -0.17700
C 	C 	0.07790 0.83150 0.20900 0.33300
C 	C 	0.05760 0.78380 0.15480 -0.17800
C 	C 	0.01180 0.79920 0.11680 0.13200
H 	H 	0.99110 0.84090 0.12110 -0.01200
C 	C 	0.99060 0.75490 0.06750 -0.22600
H 	H 	0.95710 0.76860 0.03790 0.10200
C 	C 	0.01670 0.69290 0.06090 0.20900
C 	C 	0.07330 0.67980 0.09980 -0.20400
H 	H 	0.09820 0.64090 0.09270 0.11500
C 	C 	0.09210 0.72410 0.14840 0.10200
H 	H 	0.12780 0.71420 0.17690 0.01400
C 	C 	0.02420 0.59880 0.98020 0.19000
O 	O 	0.37030 0.18540 0.74410 -0.44800
O 	O 	0.45260 0.11610 0.71560 -0.33200
N 	N 	0.50300 0.34410 0.50890 -0.25300
H 	H 	0.53920 0.33000 0.48960 0.16300
N 	N 	0.50920 0.42240 0.43000 -0.17800
C 	C 	0.42210 0.16850 0.70900 0.33200
C 	C 	0.44240 0.21620 0.65480 -0.17700
C 	C 	0.48820 0.20080 0.61680 0.13100
H 	H 	0.50890 0.15910 0.62110 -0.01100
C 	C 	0.50940 0.24510 0.56750 -0.22400
H 	H 	0.54290 0.23140 0.53790 0.10200
C 	C 	0.48330 0.30710 0.56090 0.20800
C 	C 	0.42670 0.32020 0.59980 -0.20300
H 	H 	0.40180 0.35910 0.59270 0.11500
C 	C 	0.40790 0.27590 0.64840 0.10200
H 	H 	0.37220 0.28580 0.67690 0.01400
C 	C 	0.47580 0.40120 0.48020 0.19000
O 	O 	0.87030 0.31460 0.25590 -0.44800
O 	O 	0.95260 0.38390 0.28440 -0.33200
N 	N 	0.00300 0.15590 0.49110 -0.25300
H 	H 	0.03920 0.17000 0.51040 0.16300
N 	N 	0.00920 0.07760 0.57000 -0.17800
C 	C 	0.92210 0.33150 0.29100 0.33200
C 	C 	0.94240 0.28380 0.34520 -0.17700
C 	C 	0.98820 0.29920 0.38320 0.12900
H 	H 	0.00890 0.34090 0.37890 -0.01100
C 	C 	0.00940 0.25490 0.43250 -0.22300
H 	H 	0.04290 0.26860 0.46210 0.10200
C 	C 	0.98330 0.19290 0.43910 0.20700
C 	C 	0.92670 0.17980 0.40020 -0.20300
H 	H 	0.90180 0.14090 0.40730 0.11500
C 	C 	0.90790 0.22410 0.35160 0.10100
H 	H 	0.87220 0.21420 0.32310 0.01400
C 	C 	0.97580 0.09880 0.51980 0.18900
O 	O 	0.62970 0.68540 0.75590 -0.44800
O 	O 	0.54740 0.61610 0.78440 -0.33200
N 	N 	0.49700 0.84410 0.99110 -0.25300
H 	H 	0.46080 0.83000 0.01040 0.16300
N 	N 	0.49080 0.92240 0.07000 -0.17800
C 	C 	0.57790 0.66850 0.79100 0.33200
C 	C 	0.55760 0.71620 0.84520 -0.17700
C 	C 	0.51180 0.70080 0.88320 0.13100
H 	H 	0.49110 0.65910 0.87890 -0.01100
C 	C 	0.49060 0.74510 0.93250 -0.22400
H 	H 	0.45710 0.73140 0.96210 0.10200
C 	C 	0.51670 0.80710 0.93910 0.20800
C 	C 	0.57330 0.82020 0.90020 -0.20300
H 	H 	0.59820 0.85910 0.90730 0.11500
C 	C 	0.59210 0.77590 0.85160 0.10200
H 	H 	0.62780 0.78580 0.82310 0.01400
C 	C 	0.52420 0.90120 0.01980 0.19000
O 	O 	0.24410 0.12970 0.81460 -0.44800
O 	O 	0.21560 0.04740 0.88390 -0.33200
N 	N 	0.00890 0.99700 0.65590 -0.25300
H 	H 	0.98960 0.96080 0.67000 0.16300
N 	N 	0.93000 0.99080 0.57760 -0.17800
C 	C 	0.20900 0.07790 0.83150 0.33200
C 	C 	0.15480 0.05760 0.78380 -0.17800
C 	C 	0.11680 0.01180 0.79920 0.13200
H 	H 	0.12110 0.99110 0.84090 -0.01200
C 	C 	0.06750 0.99060 0.75490 -0.22600
H 	H 	0.03790 0.95710 0.76860 0.10200
C 	C 	0.06090 0.01670 0.69290 0.20900
C 	C 	0.09980 0.07330 0.67980 -0.20400
H 	H 	0.09270 0.09820 0.64090 0.11500
C 	C 	0.14840 0.09210 0.72410 0.10200
H 	H 	0.17690 0.12780 0.71420 0.01400
C 	C 	0.98020 0.02420 0.59880 0.19000
O 	O 	0.74410 0.37030 0.18540 -0.44800
O 	O 	0.71560 0.45260 0.11610 -0.33200
N 	N 	0.50890 0.50300 0.34410 -0.25300
H 	H 	0.48960 0.53920 0.33000 0.16300
N 	N 	0.43000 0.50920 0.42240 -0.17800
C 	C 	0.70900 0.42210 0.16850 0.33200
C 	C 	0.65480 0.44240 0.21620 -0.17700
C 	C 	0.61680 0.48820 0.20080 0.13100
H 	H 	0.62110 0.50890 0.15910 -0.01100
C 	C 	0.56750 0.50940 0.24510 -0.22400
H 	H 	0.53790 0.54290 0.23140 0.10200
C 	C 	0.56090 0.48330 0.30710 0.20800
C 	C 	0.59980 0.42670 0.32020 -0.20300
H 	H 	0.59270 0.40180 0.35910 0.11500
C 	C 	0.64840 0.40790 0.27590 0.10200
H 	H 	0.67690 0.37220 0.28580 0.01400
C 	C 	0.48020 0.47580 0.40120 0.19000
O 	O 	0.25590 0.87030 0.31460 -0.44800
O 	O 	0.28440 0.95260 0.38390 -0.33200
N 	N 	0.49110 0.00300 0.15590 -0.25300
H 	H 	0.51040 0.03920 0.17000 0.16300
N 	N 	0.57000 0.00920 0.07760 -0.17800
C 	C 	0.29100 0.92210 0.33150 0.33200
C 	C 	0.34520 0.94240 0.28380 -0.17700
C 	C 	0.38320 0.98820 0.29920 0.12900
H 	H 	0.37890 0.00890 0.34090 -0.01100
C 	C 	0.43250 0.00940 0.25490 -0.22300
H 	H 	0.46210 0.04290 0.26860 0.10200
C 	C 	0.43910 0.98330 0.19290 0.20700
C 	C 	0.40020 0.92670 0.17980 -0.20300
H 	H 	0.40730 0.90180 0.14090 0.11500
C 	C 	0.35160 0.90790 0.22410 0.10100
H 	H 	0.32310 0.87220 0.21420 0.01400
C 	C 	0.51980 0.97580 0.09880 0.18900
O 	O 	0.75590 0.62970 0.68540 -0.44800
O 	O 	0.78440 0.54740 0.61610 -0.33200
N 	N 	0.99110 0.49700 0.84410 -0.25300
H 	H 	0.01040 0.46080 0.83000 0.16300
N 	N 	0.07000 0.49080 0.92240 -0.17800
C 	C 	0.79100 0.57790 0.66850 0.33200
C 	C 	0.84520 0.55760 0.71620 -0.17700
C 	C 	0.88320 0.51180 0.70080 0.13100
H 	H 	0.87890 0.49110 0.65910 -0.01100
C 	C 	0.93250 0.49060 0.74510 -0.22400
H 	H 	0.96210 0.45710 0.73140 0.10200
C 	C 	0.93910 0.51670 0.80710 0.20800
C 	C 	0.90020 0.57330 0.82020 -0.20300
H 	H 	0.90730 0.59820 0.85910 0.11500
C 	C 	0.85160 0.59210 0.77590 0.10200
H 	H 	0.82310 0.62780 0.78580 0.01400
C 	C 	0.01980 0.52420 0.90120 0.19000
O 	O 	0.81460 0.24410 0.12970 -0.44800
O 	O 	0.88390 0.21560 0.04740 -0.33200
N 	N 	0.65590 0.00890 0.99700 -0.25300
H 	H 	0.67000 0.98960 0.96080 0.16300
N 	N 	0.57760 0.93000 0.99080 -0.17800
C 	C 	0.83150 0.20900 0.07790 0.33200
C 	C 	0.78380 0.15480 0.05760 -0.17800
C 	C 	0.79920 0.11680 0.01180 0.13200
H 	H 	0.84090 0.12110 0.99110 -0.01200
C 	C 	0.75490 0.06750 0.99060 -0.22600
H 	H 	0.76860 0.03790 0.95710 0.10200
C 	C 	0.69290 0.06090 0.01670 0.20900
C 	C 	0.67980 0.09980 0.07330 -0.20400
H 	H 	0.64090 0.09270 0.09820 0.11500
C 	C 	0.72410 0.14840 0.09210 0.10200
H 	H 	0.71420 0.17690 0.12780 0.01400
C 	C 	0.59880 0.98020 0.02420 0.19000
O 	O 	0.18540 0.74410 0.37030 -0.44800
O 	O 	0.11610 0.71560 0.45260 -0.33200
N 	N 	0.34410 0.50890 0.50300 -0.25300
H 	H 	0.33000 0.48960 0.53920 0.16300
N 	N 	0.42240 0.43000 0.50920 -0.17800
C 	C 	0.16850 0.70900 0.42210 0.33200
C 	C 	0.21620 0.65480 0.44240 -0.17700
C 	C 	0.20080 0.61680 0.48820 0.13100
H 	H 	0.15910 0.62110 0.50890 -0.01100
C 	C 	0.24510 0.56750 0.50940 -0.22400
H 	H 	0.23140 0.53790 0.54290 0.10200
C 	C 	0.30710 0.56090 0.48330 0.20800
C 	C 	0.32020 0.59980 0.42670 -0.20300
H 	H 	0.35910 0.59270 0.40180 0.11500
C 	C 	0.27590 0.64840 0.40790 0.10200
H 	H 	0.28580 0.67690 0.37220 0.01400
C 	C 	0.40120 0.48020 0.47580 0.19000
O 	O 	0.31460 0.25590 0.87030 -0.44800
O 	O 	0.38390 0.28440 0.95260 -0.33200
N 	N 	0.15590 0.49110 0.00300 -0.25300
H 	H 	0.17000 0.51040 0.03920 0.16300
N 	N 	0.07760 0.57000 0.00920 -0.17800
C 	C 	0.33150 0.29100 0.92210 0.33200
C 	C 	0.28380 0.34520 0.94240 -0.17700
C 	C 	0.29920 0.38320 0.98820 0.12900
H 	H 	0.34090 0.37890 0.00890 -0.01100
C 	C 	0.25490 0.43250 0.00940 -0.22300
H 	H 	0.26860 0.46210 0.04290 0.10200
C 	C 	0.19290 0.43910 0.98330 0.20700
C 	C 	0.17980 0.40020 0.92670 -0.20300
H 	H 	0.14090 0.40730 0.90180 0.11500
C 	C 	0.22410 0.35160 0.90790 0.10100
H 	H 	0.21420 0.32310 0.87220 0.01400
C 	C 	0.09880 0.51980 0.97580 0.18900
O 	O 	0.68540 0.75590 0.62970 -0.44800
O 	O 	0.61610 0.78440 0.54740 -0.33200
N 	N 	0.84410 0.99110 0.49700 -0.25300
H 	H 	0.83000 0.01040 0.46080 0.16300
N 	N 	0.92240 0.07000 0.49080 -0.17800
C 	C 	0.66850 0.79100 0.57790 0.33200
C 	C 	0.71620 0.84520 0.55760 -0.17700
C 	C 	0.70080 0.88320 0.51180 0.13100
H 	H 	0.65910 0.87890 0.49110 -0.01100
C 	C 	0.74510 0.93250 0.49060 -0.22400
H 	H 	0.73140 0.96210 0.45710 0.10200
C 	C 	0.80710 0.93910 0.51670 0.20800
C 	C 	0.82020 0.90020 0.57330 -0.20300
H 	H 	0.85910 0.90730 0.59820 0.11500
C 	C 	0.77590 0.85160 0.59210 0.10200
H 	H 	0.78580 0.82310 0.62780 0.01400
C 	C 	0.90120 0.01980 0.52420 0.19000
Yb	Yb	0.15627 0.84373 0.34373 1.42500
Yb	Yb	0.34373 0.15627 0.84373 1.42500
Yb	Yb	0.84373 0.34373 0.15627 1.42500
Yb	Yb	0.65627 0.65627 0.65627 1.42500
O 	O 	0.24190 0.62690 0.18080 -0.49700
O 	O 	0.21200 0.55010 0.11380 -0.36600
N 	N 	0.01260 0.49400 0.35160 -0.25300
H 	H 	0.99800 0.45440 0.34210 0.15600
N 	N 	0.01240 0.57260 0.43050 -0.18100
C 	C 	0.20650 0.58040 0.16470 0.42900
C 	C 	0.15940 0.55880 0.21570 -0.19100
C 	C 	0.15350 0.58700 0.27590 0.12200
H 	H 	0.18320 0.62130 0.28720 0.00600
C 	C 	0.10630 0.56860 0.32210 -0.21400
H 	H 	0.10510 0.58880 0.36420 0.11800
C 	C 	0.06130 0.52060 0.30550 0.19100
C 	C 	0.07040 0.48140 0.24900 -0.21400
H 	H 	0.04580 0.44200 0.24330 0.10500
C 	C 	0.11400 0.50030 0.20370 0.10400
H 	H 	0.11680 0.47700 0.16320 -0.00300
C 	C 	0.98790 0.52020 0.40430 0.20500
O 	O 	0.25810 0.37310 0.68080 -0.49700
O 	O 	0.28800 0.44990 0.61380 -0.36600
N 	N 	0.48740 0.50600 0.85160 -0.25300
H 	H 	0.50200 0.54560 0.84210 0.15600
N 	N 	0.48760 0.42740 0.93050 -0.18100
C 	C 	0.29350 0.41960 0.66470 0.42900
C 	C 	0.34060 0.44120 0.71570 -0.19100
C 	C 	0.34650 0.41300 0.77590 0.12200
H 	H 	0.31680 0.37870 0.78720 0.00600
C 	C 	0.39370 0.43140 0.82210 -0.21400
H 	H 	0.39490 0.41120 0.86420 0.11800
C 	C 	0.43870 0.47940 0.80550 0.19100
C 	C 	0.42960 0.51860 0.74900 -0.21400
H 	H 	0.45420 0.55800 0.74330 0.10500
C 	C 	0.38600 0.49970 0.70370 0.10400
H 	H 	0.38320 0.52300 0.66320 -0.00300
C 	C 	0.51210 0.47980 0.90430 0.20500
O 	O 	0.75810 0.12690 0.31920 -0.49700
O 	O 	0.78800 0.05010 0.38620 -0.36600
N 	N 	0.98740 0.99400 0.14840 -0.25400
H 	H 	0.00200 0.95440 0.15790 0.15700
N 	N 	0.98760 0.07260 0.06950 -0.18200
C 	C 	0.79350 0.08040 0.33530 0.42900
C 	C 	0.84060 0.05880 0.28430 -0.19100
C 	C 	0.84650 0.08700 0.22410 0.12300
H 	H 	0.81680 0.12130 0.21280 0.00600
C 	C 	0.89370 0.06860 0.17790 -0.21400
H 	H 	0.89490 0.08880 0.13580 0.11800
C 	C 	0.93870 0.02060 0.19450 0.19200
C 	C 	0.92960 0.98140 0.25100 -0.21500
H 	H 	0.95420 0.94200 0.25670 0.10500
C 	C 	0.88600 0.00030 0.29630 0.10500
H 	H 	0.88320 0.97700 0.33680 -0.00300
C 	C 	0.01210 0.02020 0.09570 0.20600
O 	O 	0.74190 0.87310 0.81920 -0.49700
O 	O 	0.71200 0.94990 0.88620 -0.36600
N 	N 	0.51260 0.00600 0.64840 -0.25300
H 	H 	0.49800 0.04560 0.65790 0.15600
N 	N 	0.51240 0.92740 0.56950 -0.18100
C 	C 	0.70650 0.91960 0.83530 0.42900
C 	C 	0.65940 0.94120 0.78430 -0.19000
C 	C 	0.65350 0.91300 0.72410 0.12200
H 	H 	0.68320 0.87870 0.71280 0.00600
C 	C 	0.60630 0.93140 0.67790 -0.21300
H 	H 	0.60510 0.91120 0.63580 0.11800
C 	C 	0.56130 0.97940 0.69450 0.19100
C 	C 	0.57040 0.01860 0.75100 -0.21300
H 	H 	0.54580 0.05800 0.75670 0.10400
C 	C 	0.61400 0.99970 0.79630 0.10300
H 	H 	0.61680 0.02300 0.83680 -0.00200
C 	C 	0.48790 0.97980 0.59570 0.20500
O 	O 	0.18080 0.24190 0.62690 -0.49700
O 	O 	0.11380 0.21200 0.55010 -0.36600
N 	N 	0.35160 0.01260 0.49400 -0.25300
H 	H 	0.34210 0.99800 0.45440 0.15600
N 	N 	0.43050 0.01240 0.57260 -0.18100
C 	C 	0.16470 0.20650 0.58040 0.42900
C 	C 	0.21570 0.15940 0.55880 -0.19100
C 	C 	0.27590 0.15350 0.58700 0.12200
H 	H 	0.28720 0.18320 0.62130 0.00600
C 	C 	0.32210 0.10630 0.56860 -0.21400
H 	H 	0.36420 0.10510 0.58880 0.11800
C 	C 	0.30550 0.06130 0.52060 0.19100
C 	C 	0.24900 0.07040 0.48140 -0.21400
H 	H 	0.24330 0.04580 0.44200 0.10500
C 	C 	0.20370 0.11400 0.50030 0.10400
H 	H 	0.16320 0.11680 0.47700 -0.00300
C 	C 	0.40430 0.98790 0.52020 0.20500
O 	O 	0.68080 0.25810 0.37310 -0.49700
O 	O 	0.61380 0.28800 0.44990 -0.36600
N 	N 	0.85160 0.48740 0.50600 -0.25300
H 	H 	0.84210 0.50200 0.54560 0.15600
N 	N 	0.93050 0.48760 0.42740 -0.18100
C 	C 	0.66470 0.29350 0.41960 0.42900
C 	C 	0.71570 0.34060 0.44120 -0.19100
C 	C 	0.77590 0.34650 0.41300 0.12200
H 	H 	0.78720 0.31680 0.37870 0.00600
C 	C 	0.82210 0.39370 0.43140 -0.21400
H 	H 	0.86420 0.39490 0.41120 0.11800
C 	C 	0.80550 0.43870 0.47940 0.19100
C 	C 	0.74900 0.42960 0.51860 -0.21400
H 	H 	0.74330 0.45420 0.55800 0.10500
C 	C 	0.70370 0.38600 0.49970 0.10400
H 	H 	0.66320 0.38320 0.52300 -0.00300
C 	C 	0.90430 0.51210 0.47980 0.20500
O 	O 	0.31920 0.75810 0.12690 -0.49700
O 	O 	0.38620 0.78800 0.05010 -0.36600
N 	N 	0.14840 0.98740 0.99400 -0.25400
H 	H 	0.15790 0.00200 0.95440 0.15700
N 	N 	0.06950 0.98760 0.07260 -0.18200
C 	C 	0.33530 0.79350 0.08040 0.42900
C 	C 	0.28430 0.84060 0.05880 -0.19100
C 	C 	0.22410 0.84650 0.08700 0.12300
H 	H 	0.21280 0.81680 0.12130 0.00600
C 	C 	0.17790 0.89370 0.06860 -0.21400
H 	H 	0.13580 0.89490 0.08880 0.11800
C 	C 	0.19450 0.93870 0.02060 0.19200
C 	C 	0.25100 0.92960 0.98140 -0.21500
H 	H 	0.25670 0.95420 0.94200 0.10500
C 	C 	0.29630 0.88600 0.00030 0.10500
H 	H 	0.33680 0.88320 0.97700 -0.00300
C 	C 	0.09570 0.01210 0.02020 0.20600
O 	O 	0.81920 0.74190 0.87310 -0.49700
O 	O 	0.88620 0.71200 0.94990 -0.36600
N 	N 	0.64840 0.51260 0.00600 -0.25300
H 	H 	0.65790 0.49800 0.04560 0.15600
N 	N 	0.56950 0.51240 0.92740 -0.18100
C 	C 	0.83530 0.70650 0.91960 0.42900
C 	C 	0.78430 0.65940 0.94120 -0.19000
C 	C 	0.72410 0.65350 0.91300 0.12200
H 	H 	0.71280 0.68320 0.87870 0.00600
C 	C 	0.67790 0.60630 0.93140 -0.21300
H 	H 	0.63580 0.60510 0.91120 0.11800
C 	C 	0.69450 0.56130 0.97940 0.19100
C 	C 	0.75100 0.57040 0.01860 -0.21300
H 	H 	0.75670 0.54580 0.05800 0.10400
C 	C 	0.79630 0.61400 0.99970 0.10300
H 	H 	0.83680 0.61680 0.02300 -0.00200
C 	C 	0.59570 0.48790 0.97980 0.20500
O 	O 	0.62690 0.18080 0.24190 -0.49700
O 	O 	0.55010 0.11380 0.21200 -0.36600
N 	N 	0.49400 0.35160 0.01260 -0.25300
H 	H 	0.45440 0.34210 0.99800 0.15600
N 	N 	0.57260 0.43050 0.01240 -0.18100
C 	C 	0.58040 0.16470 0.20650 0.42900
C 	C 	0.55880 0.21570 0.15940 -0.19100
C 	C 	0.58700 0.27590 0.15350 0.12200
H 	H 	0.62130 0.28720 0.18320 0.00600
C 	C 	0.56860 0.32210 0.10630 -0.21400
H 	H 	0.58880 0.36420 0.10510 0.11800
C 	C 	0.52060 0.30550 0.06130 0.19100
C 	C 	0.48140 0.24900 0.07040 -0.21400
H 	H 	0.44200 0.24330 0.04580 0.10500
C 	C 	0.50030 0.20370 0.11400 0.10400
H 	H 	0.47700 0.16320 0.11680 -0.00300
C 	C 	0.52020 0.40430 0.98790 0.20500
O 	O 	0.37310 0.68080 0.25810 -0.49700
O 	O 	0.44990 0.61380 0.28800 -0.36600
N 	N 	0.50600 0.85160 0.48740 -0.25300
H 	H 	0.54560 0.84210 0.50200 0.15600
N 	N 	0.42740 0.93050 0.48760 -0.18100
C 	C 	0.41960 0.66470 0.29350 0.42900
C 	C 	0.44120 0.71570 0.34060 -0.19100
C 	C 	0.41300 0.77590 0.34650 0.12200
H 	H 	0.37870 0.78720 0.31680 0.00600
C 	C 	0.43140 0.82210 0.39370 -0.21400
H 	H 	0.41120 0.86420 0.39490 0.11800
C 	C 	0.47940 0.80550 0.43870 0.19100
C 	C 	0.51860 0.74900 0.42960 -0.21400
H 	H 	0.55800 0.74330 0.45420 0.10500
C 	C 	0.49970 0.70370 0.38600 0.10400
H 	H 	0.52300 0.66320 0.38320 -0.00300
C 	C 	0.47980 0.90430 0.51210 0.20500
O 	O 	0.12690 0.31920 0.75810 -0.49700
O 	O 	0.05010 0.38620 0.78800 -0.36600
N 	N 	0.99400 0.14840 0.98740 -0.25400
H 	H 	0.95440 0.15790 0.00200 0.15700
N 	N 	0.07260 0.06950 0.98760 -0.18200
C 	C 	0.08040 0.33530 0.79350 0.42900
C 	C 	0.05880 0.28430 0.84060 -0.19100
C 	C 	0.08700 0.22410 0.84650 0.12300
H 	H 	0.12130 0.21280 0.81680 0.00600
C 	C 	0.06860 0.17790 0.89370 -0.21400
H 	H 	0.08880 0.13580 0.89490 0.11800
C 	C 	0.02060 0.19450 0.93870 0.19200
C 	C 	0.98140 0.25100 0.92960 -0.21500
H 	H 	0.94200 0.25670 0.95420 0.10500
C 	C 	0.00030 0.29630 0.88600 0.10500
H 	H 	0.97700 0.33680 0.88320 -0.00300
C 	C 	0.02020 0.09570 0.01210 0.20600
O 	O 	0.87310 0.81920 0.74190 -0.49700
O 	O 	0.94990 0.88620 0.71200 -0.36600
N 	N 	0.00600 0.64840 0.51260 -0.25300
H 	H 	0.04560 0.65790 0.49800 0.15600
N 	N 	0.92740 0.56950 0.51240 -0.18100
C 	C 	0.91960 0.83530 0.70650 0.42900
C 	C 	0.94120 0.78430 0.65940 -0.19000
C 	C 	0.91300 0.72410 0.65350 0.12200
H 	H 	0.87870 0.71280 0.68320 0.00600
C 	C 	0.93140 0.67790 0.60630 -0.21300
H 	H 	0.91120 0.63580 0.60510 0.11800
C 	C 	0.97940 0.69450 0.56130 0.19100
C 	C 	0.01860 0.75100 0.57040 -0.21300
H 	H 	0.05800 0.75670 0.54580 0.10400
C 	C 	0.99970 0.79630 0.61400 0.10300
H 	H 	0.02300 0.83680 0.61680 -0.00200
C 	C 	0.97980 0.59570 0.48790 0.20500
Yb	Yb	0.34236 0.65764 0.15764 1.43200
Yb	Yb	0.15764 0.34236 0.65764 1.43200
Yb	Yb	0.65764 0.15764 0.34236 1.43200
Yb	Yb	0.84236 0.84236 0.84236 1.43100
