data_crystal

_cell_length_a 20.35870
_cell_length_b 20.35870
_cell_length_c 20.35870
_cell_angle_alpha 90.00000
_cell_angle_beta  90.00000
_cell_angle_gamma 90.00000

_symmetry_space_group_name_	'P 1'
_symmetry_space_group_name_H-M	'P 1'

loop_
_symmetry_equiv_pos_as_xyz
  x,y,z

loop_
_atom_site_label
_atom_site_type_symbol
_atom_site_fract_x
_atom_site_fract_y
_atom_site_fract_z
_atom_site_charge
O 	O 	0.13060 0.81520 0.24270 -0.46700
O 	O 	0.05380 0.88450 0.21220 -0.35000
N 	N 	0.99590 0.65450 0.01130 -0.25600
H 	H 	0.95950 0.66860 0.99270 0.16300
N 	N 	0.98900 0.57460 0.93110 -0.17800
C 	C 	0.08230 0.83150 0.20740 0.38200
C 	C 	0.06020 0.78300 0.15690 -0.19500
C 	C 	0.00970 0.79810 0.11560 0.13000
H 	H 	0.98890 0.83970 0.11880 -0.01100
C 	C 	0.98870 0.75370 0.06940 -0.22400
H 	H 	0.95270 0.76490 0.04200 0.10700
C 	C 	0.01920 0.69110 0.06130 0.21400
C 	C 	0.07060 0.67760 0.10440 -0.22500
H 	H 	0.09200 0.63620 0.10210 0.12000
C 	C 	0.09120 0.72300 0.15010 0.12600
H 	H 	0.12760 0.71290 0.17760 0.00300
C 	C 	0.02290 0.59580 0.98510 0.18800
O 	O 	0.36940 0.18480 0.74270 -0.46600
O 	O 	0.44620 0.11550 0.71220 -0.34900
N 	N 	0.50410 0.34550 0.51130 -0.25500
H 	H 	0.54050 0.33140 0.49270 0.16300
N 	N 	0.51100 0.42540 0.43110 -0.17700
C 	C 	0.41770 0.16850 0.70740 0.38200
C 	C 	0.43980 0.21700 0.65690 -0.19400
C 	C 	0.49030 0.20190 0.61560 0.12800
H 	H 	0.51110 0.16030 0.61880 -0.01100
C 	C 	0.51130 0.24630 0.56940 -0.22300
H 	H 	0.54730 0.23510 0.54200 0.10600
C 	C 	0.48080 0.30890 0.56130 0.21300
C 	C 	0.42940 0.32240 0.60440 -0.22400
H 	H 	0.40800 0.36380 0.60210 0.12000
C 	C 	0.40880 0.27700 0.65010 0.12600
H 	H 	0.37240 0.28710 0.67760 0.00400
C 	C 	0.47710 0.40420 0.48510 0.18800
O 	O 	0.86940 0.31520 0.25730 -0.46600
O 	O 	0.94620 0.38450 0.28780 -0.34900
N 	N 	0.00410 0.15450 0.48870 -0.25500
H 	H 	0.04050 0.16860 0.50730 0.16300
N 	N 	0.01100 0.07460 0.56890 -0.17700
C 	C 	0.91770 0.33150 0.29260 0.38200
C 	C 	0.93980 0.28300 0.34310 -0.19400
C 	C 	0.99030 0.29810 0.38440 0.12700
H 	H 	0.01110 0.33970 0.38120 -0.01000
C 	C 	0.01130 0.25370 0.43060 -0.22200
H 	H 	0.04730 0.26490 0.45800 0.10600
C 	C 	0.98080 0.19110 0.43870 0.21200
C 	C 	0.92940 0.17760 0.39560 -0.22400
H 	H 	0.90800 0.13620 0.39790 0.12000
C 	C 	0.90880 0.22300 0.34990 0.12500
H 	H 	0.87240 0.21290 0.32240 0.00400
C 	C 	0.97710 0.09580 0.51490 0.18800
O 	O 	0.63060 0.68480 0.75730 -0.46600
O 	O 	0.55380 0.61550 0.78780 -0.34900
N 	N 	0.49590 0.84550 0.98870 -0.25500
H 	H 	0.45950 0.83140 0.00730 0.16300
N 	N 	0.48900 0.92540 0.06890 -0.17700
C 	C 	0.58230 0.66850 0.79260 0.38200
C 	C 	0.56020 0.71700 0.84310 -0.19400
C 	C 	0.50970 0.70190 0.88440 0.12800
H 	H 	0.48890 0.66030 0.88120 -0.01100
C 	C 	0.48870 0.74630 0.93060 -0.22300
H 	H 	0.45270 0.73510 0.95800 0.10600
C 	C 	0.51920 0.80890 0.93870 0.21300
C 	C 	0.57060 0.82240 0.89560 -0.22400
H 	H 	0.59200 0.86380 0.89790 0.12000
C 	C 	0.59120 0.77700 0.84990 0.12600
H 	H 	0.62760 0.78710 0.82240 0.00400
C 	C 	0.52290 0.90420 0.01490 0.18800
O 	O 	0.24270 0.13060 0.81520 -0.46600
O 	O 	0.21220 0.05380 0.88450 -0.34900
N 	N 	0.01130 0.99590 0.65450 -0.25500
H 	H 	0.99270 0.95950 0.66860 0.16300
N 	N 	0.93110 0.98900 0.57460 -0.17800
C 	C 	0.20740 0.08230 0.83150 0.38200
C 	C 	0.15690 0.06020 0.78300 -0.19500
C 	C 	0.11560 0.00970 0.79810 0.13000
H 	H 	0.11880 0.98890 0.83970 -0.01100
C 	C 	0.06940 0.98870 0.75370 -0.22400
H 	H 	0.04200 0.95270 0.76490 0.10700
C 	C 	0.06130 0.01920 0.69110 0.21400
C 	C 	0.10440 0.07060 0.67760 -0.22500
H 	H 	0.10210 0.09200 0.63620 0.12000
C 	C 	0.15010 0.09120 0.72300 0.12600
H 	H 	0.17760 0.12760 0.71290 0.00300
C 	C 	0.98510 0.02290 0.59580 0.18800
O 	O 	0.74270 0.36940 0.18480 -0.46600
O 	O 	0.71220 0.44620 0.11550 -0.34900
N 	N 	0.51130 0.50410 0.34550 -0.25500
H 	H 	0.49270 0.54050 0.33140 0.16300
N 	N 	0.43110 0.51100 0.42540 -0.17700
C 	C 	0.70740 0.41770 0.16850 0.38200
C 	C 	0.65690 0.43980 0.21700 -0.19400
C 	C 	0.61560 0.49030 0.20190 0.12800
H 	H 	0.61880 0.51110 0.16030 -0.01100
C 	C 	0.56940 0.51130 0.24630 -0.22300
H 	H 	0.54200 0.54730 0.23510 0.10600
C 	C 	0.56130 0.48080 0.30890 0.21300
C 	C 	0.60440 0.42940 0.32240 -0.22400
H 	H 	0.60210 0.40800 0.36380 0.12000
C 	C 	0.65010 0.40880 0.27700 0.12600
H 	H 	0.67760 0.37240 0.28710 0.00400
C 	C 	0.48510 0.47710 0.40420 0.18800
O 	O 	0.25730 0.86940 0.31520 -0.46600
O 	O 	0.28780 0.94620 0.38450 -0.34900
N 	N 	0.48870 0.00410 0.15450 -0.25500
H 	H 	0.50730 0.04050 0.16860 0.16300
N 	N 	0.56890 0.01100 0.07460 -0.17700
C 	C 	0.29260 0.91770 0.33150 0.38200
C 	C 	0.34310 0.93980 0.28300 -0.19400
C 	C 	0.38440 0.99030 0.29810 0.12700
H 	H 	0.38120 0.01110 0.33970 -0.01000
C 	C 	0.43060 0.01130 0.25370 -0.22200
H 	H 	0.45800 0.04730 0.26490 0.10600
C 	C 	0.43870 0.98080 0.19110 0.21200
C 	C 	0.39560 0.92940 0.17760 -0.22400
H 	H 	0.39790 0.90800 0.13620 0.12000
C 	C 	0.34990 0.90880 0.22300 0.12500
H 	H 	0.32240 0.87240 0.21290 0.00400
C 	C 	0.51490 0.97710 0.09580 0.18800
O 	O 	0.75730 0.63060 0.68480 -0.46600
O 	O 	0.78780 0.55380 0.61550 -0.34900
N 	N 	0.98870 0.49590 0.84550 -0.25500
H 	H 	0.00730 0.45950 0.83140 0.16300
N 	N 	0.06890 0.48900 0.92540 -0.17700
C 	C 	0.79260 0.58230 0.66850 0.38200
C 	C 	0.84310 0.56020 0.71700 -0.19400
C 	C 	0.88440 0.50970 0.70190 0.12800
H 	H 	0.88120 0.48890 0.66030 -0.01100
C 	C 	0.93060 0.48870 0.74630 -0.22300
H 	H 	0.95800 0.45270 0.73510 0.10600
C 	C 	0.93870 0.51920 0.80890 0.21300
C 	C 	0.89560 0.57060 0.82240 -0.22400
H 	H 	0.89790 0.59200 0.86380 0.12000
C 	C 	0.84990 0.59120 0.77700 0.12600
H 	H 	0.82240 0.62760 0.78710 0.00400
C 	C 	0.01490 0.52290 0.90420 0.18800
O 	O 	0.81520 0.24270 0.13060 -0.46600
O 	O 	0.88450 0.21220 0.05380 -0.34900
N 	N 	0.65450 0.01130 0.99590 -0.25500
H 	H 	0.66860 0.99270 0.95950 0.16300
N 	N 	0.57460 0.93110 0.98900 -0.17800
C 	C 	0.83150 0.20740 0.08230 0.38200
C 	C 	0.78300 0.15690 0.06020 -0.19500
C 	C 	0.79810 0.11560 0.00970 0.13000
H 	H 	0.83970 0.11880 0.98890 -0.01100
C 	C 	0.75370 0.06940 0.98870 -0.22400
H 	H 	0.76490 0.04200 0.95270 0.10700
C 	C 	0.69110 0.06130 0.01920 0.21400
C 	C 	0.67760 0.10440 0.07060 -0.22500
H 	H 	0.63620 0.10210 0.09200 0.12000
C 	C 	0.72300 0.15010 0.09120 0.12600
H 	H 	0.71290 0.17760 0.12760 0.00300
C 	C 	0.59580 0.98510 0.02290 0.18800
O 	O 	0.18480 0.74270 0.36940 -0.46600
O 	O 	0.11550 0.71220 0.44620 -0.34900
N 	N 	0.34550 0.51130 0.50410 -0.25500
H 	H 	0.33140 0.49270 0.54050 0.16300
N 	N 	0.42540 0.43110 0.51100 -0.17700
C 	C 	0.16850 0.70740 0.41770 0.38200
C 	C 	0.21700 0.65690 0.43980 -0.19400
C 	C 	0.20190 0.61560 0.49030 0.12800
H 	H 	0.16030 0.61880 0.51110 -0.01100
C 	C 	0.24630 0.56940 0.51130 -0.22300
H 	H 	0.23510 0.54200 0.54730 0.10600
C 	C 	0.30890 0.56130 0.48080 0.21300
C 	C 	0.32240 0.60440 0.42940 -0.22400
H 	H 	0.36380 0.60210 0.40800 0.12000
C 	C 	0.27700 0.65010 0.40880 0.12600
H 	H 	0.28710 0.67760 0.37240 0.00400
C 	C 	0.40420 0.48510 0.47710 0.18800
O 	O 	0.31520 0.25730 0.86940 -0.46600
O 	O 	0.38450 0.28780 0.94620 -0.34900
N 	N 	0.15450 0.48870 0.00410 -0.25500
H 	H 	0.16860 0.50730 0.04050 0.16300
N 	N 	0.07460 0.56890 0.01100 -0.17700
C 	C 	0.33150 0.29260 0.91770 0.38200
C 	C 	0.28300 0.34310 0.93980 -0.19400
C 	C 	0.29810 0.38440 0.99030 0.12700
H 	H 	0.33970 0.38120 0.01110 -0.01000
C 	C 	0.25370 0.43060 0.01130 -0.22200
H 	H 	0.26490 0.45800 0.04730 0.10600
C 	C 	0.19110 0.43870 0.98080 0.21200
C 	C 	0.17760 0.39560 0.92940 -0.22400
H 	H 	0.13620 0.39790 0.90800 0.12000
C 	C 	0.22300 0.34990 0.90880 0.12500
H 	H 	0.21290 0.32240 0.87240 0.00400
C 	C 	0.09580 0.51490 0.97710 0.18800
O 	O 	0.68480 0.75730 0.63060 -0.46600
O 	O 	0.61550 0.78780 0.55380 -0.34900
N 	N 	0.84550 0.98870 0.49590 -0.25500
H 	H 	0.83140 0.00730 0.45950 0.16300
N 	N 	0.92540 0.06890 0.48900 -0.17700
C 	C 	0.66850 0.79260 0.58230 0.38200
C 	C 	0.71700 0.84310 0.56020 -0.19400
C 	C 	0.70190 0.88440 0.50970 0.12800
H 	H 	0.66030 0.88120 0.48890 -0.01100
C 	C 	0.74630 0.93060 0.48870 -0.22300
H 	H 	0.73510 0.95800 0.45270 0.10600
C 	C 	0.80890 0.93870 0.51920 0.21300
C 	C 	0.82240 0.89560 0.57060 -0.22400
H 	H 	0.86380 0.89790 0.59200 0.12000
C 	C 	0.77700 0.84990 0.59120 0.12600
H 	H 	0.78710 0.82240 0.62760 0.00400
C 	C 	0.90420 0.01490 0.52290 0.18800
Tm	Tm	0.15619 0.84381 0.34381 1.42000
Tm	Tm	0.34381 0.15619 0.84381 1.42000
Tm	Tm	0.84381 0.34381 0.15619 1.42000
Tm	Tm	0.65619 0.65619 0.65619 1.42000
O 	O 	0.24020 0.62480 0.18290 -0.47300
O 	O 	0.21330 0.54240 0.11570 -0.33900
N 	N 	0.01020 0.49380 0.35220 -0.25800
H 	H 	0.99390 0.45490 0.34250 0.15800
N 	N 	0.01190 0.57330 0.43020 -0.18200
C 	C 	0.20630 0.57370 0.16720 0.36900
C 	C 	0.15580 0.55440 0.21620 -0.18000
C 	C 	0.15030 0.58530 0.27610 0.11400
H 	H 	0.18000 0.61980 0.28640 0.00700
C 	C 	0.10320 0.56780 0.32160 -0.21100
H 	H 	0.09970 0.59030 0.36230 0.11800
C 	C 	0.06070 0.51590 0.30630 0.19900
C 	C 	0.06670 0.48270 0.24860 -0.22400
H 	H 	0.03830 0.44690 0.23930 0.10400
C 	C 	0.11380 0.50080 0.20380 0.11200
H 	H 	0.11800 0.47700 0.16390 -0.00500
C 	C 	0.98510 0.51940 0.40350 0.21000
O 	O 	0.25980 0.37520 0.68290 -0.47300
O 	O 	0.28670 0.45760 0.61570 -0.33900
N 	N 	0.48980 0.50620 0.85220 -0.25800
H 	H 	0.50610 0.54510 0.84250 0.15800
N 	N 	0.48810 0.42670 0.93020 -0.18200
C 	C 	0.29370 0.42630 0.66720 0.36900
C 	C 	0.34420 0.44560 0.71620 -0.18000
C 	C 	0.34970 0.41470 0.77610 0.11400
H 	H 	0.32000 0.38020 0.78640 0.00700
C 	C 	0.39680 0.43220 0.82160 -0.21100
H 	H 	0.40030 0.40970 0.86230 0.11800
C 	C 	0.43930 0.48410 0.80630 0.19900
C 	C 	0.43330 0.51730 0.74860 -0.22400
H 	H 	0.46170 0.55310 0.73930 0.10400
C 	C 	0.38620 0.49920 0.70380 0.11200
H 	H 	0.38200 0.52300 0.66390 -0.00500
C 	C 	0.51490 0.48060 0.90350 0.21100
O 	O 	0.75980 0.12480 0.31710 -0.47300
O 	O 	0.78670 0.04240 0.38430 -0.33900
N 	N 	0.98980 0.99380 0.14780 -0.25900
H 	H 	0.00610 0.95490 0.15750 0.15800
N 	N 	0.98810 0.07330 0.06980 -0.18300
C 	C 	0.79370 0.07370 0.33280 0.37000
C 	C 	0.84420 0.05440 0.28380 -0.18000
C 	C 	0.84970 0.08530 0.22390 0.11500
H 	H 	0.82000 0.11980 0.21360 0.00700
C 	C 	0.89680 0.06780 0.17840 -0.21100
H 	H 	0.90030 0.09030 0.13770 0.11800
C 	C 	0.93930 0.01590 0.19370 0.20000
C 	C 	0.93330 0.98270 0.25140 -0.22500
H 	H 	0.96170 0.94690 0.26070 0.10400
C 	C 	0.88620 0.00080 0.29620 0.11400
H 	H 	0.88200 0.97700 0.33610 -0.00600
C 	C 	0.01490 0.01940 0.09650 0.21100
O 	O 	0.74020 0.87520 0.81710 -0.47300
O 	O 	0.71330 0.95760 0.88430 -0.33900
N 	N 	0.51020 0.00620 0.64780 -0.25800
H 	H 	0.49390 0.04510 0.65750 0.15800
N 	N 	0.51190 0.92670 0.56980 -0.18200
C 	C 	0.70630 0.92630 0.83280 0.36900
C 	C 	0.65580 0.94560 0.78380 -0.17900
C 	C 	0.65030 0.91470 0.72390 0.11300
H 	H 	0.68000 0.88020 0.71360 0.00700
C 	C 	0.60320 0.93220 0.67840 -0.21000
H 	H 	0.59970 0.90970 0.63770 0.11800
C 	C 	0.56070 0.98410 0.69370 0.19800
C 	C 	0.56670 0.01730 0.75140 -0.22300
H 	H 	0.53830 0.05310 0.76070 0.10400
C 	C 	0.61380 0.99920 0.79620 0.11100
H 	H 	0.61800 0.02300 0.83610 -0.00500
C 	C 	0.48510 0.98060 0.59650 0.21000
O 	O 	0.18290 0.24020 0.62480 -0.47300
O 	O 	0.11570 0.21330 0.54240 -0.33900
N 	N 	0.35220 0.01020 0.49380 -0.25800
H 	H 	0.34250 0.99390 0.45490 0.15800
N 	N 	0.43020 0.01190 0.57330 -0.18200
C 	C 	0.16720 0.20630 0.57370 0.36900
C 	C 	0.21620 0.15580 0.55440 -0.18000
C 	C 	0.27610 0.15030 0.58530 0.11400
H 	H 	0.28640 0.18000 0.61980 0.00700
C 	C 	0.32160 0.10320 0.56780 -0.21100
H 	H 	0.36230 0.09970 0.59030 0.11800
C 	C 	0.30630 0.06070 0.51590 0.19900
C 	C 	0.24860 0.06670 0.48270 -0.22400
H 	H 	0.23930 0.03830 0.44690 0.10400
C 	C 	0.20380 0.11380 0.50080 0.11200
H 	H 	0.16390 0.11800 0.47700 -0.00500
C 	C 	0.40350 0.98510 0.51940 0.21000
O 	O 	0.68290 0.25980 0.37520 -0.47300
O 	O 	0.61570 0.28670 0.45760 -0.33900
N 	N 	0.85220 0.48980 0.50620 -0.25800
H 	H 	0.84250 0.50610 0.54510 0.15800
N 	N 	0.93020 0.48810 0.42670 -0.18200
C 	C 	0.66720 0.29370 0.42630 0.36900
C 	C 	0.71620 0.34420 0.44560 -0.18000
C 	C 	0.77610 0.34970 0.41470 0.11400
H 	H 	0.78640 0.32000 0.38020 0.00700
C 	C 	0.82160 0.39680 0.43220 -0.21100
H 	H 	0.86230 0.40030 0.40970 0.11800
C 	C 	0.80630 0.43930 0.48410 0.19900
C 	C 	0.74860 0.43330 0.51730 -0.22400
H 	H 	0.73930 0.46170 0.55310 0.10400
C 	C 	0.70380 0.38620 0.49920 0.11200
H 	H 	0.66390 0.38200 0.52300 -0.00500
C 	C 	0.90350 0.51490 0.48060 0.21100
O 	O 	0.31710 0.75980 0.12480 -0.47300
O 	O 	0.38430 0.78670 0.04240 -0.33900
N 	N 	0.14780 0.98980 0.99380 -0.25900
H 	H 	0.15750 0.00610 0.95490 0.15800
N 	N 	0.06980 0.98810 0.07330 -0.18300
C 	C 	0.33280 0.79370 0.07370 0.37000
C 	C 	0.28380 0.84420 0.05440 -0.18000
C 	C 	0.22390 0.84970 0.08530 0.11500
H 	H 	0.21360 0.82000 0.11980 0.00700
C 	C 	0.17840 0.89680 0.06780 -0.21100
H 	H 	0.13770 0.90030 0.09030 0.11800
C 	C 	0.19370 0.93930 0.01590 0.20000
C 	C 	0.25140 0.93330 0.98270 -0.22500
H 	H 	0.26070 0.96170 0.94690 0.10400
C 	C 	0.29620 0.88620 0.00080 0.11400
H 	H 	0.33610 0.88200 0.97700 -0.00600
C 	C 	0.09650 0.01490 0.01940 0.21100
O 	O 	0.81710 0.74020 0.87520 -0.47300
O 	O 	0.88430 0.71330 0.95760 -0.33900
N 	N 	0.64780 0.51020 0.00620 -0.25800
H 	H 	0.65750 0.49390 0.04510 0.15800
N 	N 	0.56980 0.51190 0.92670 -0.18200
C 	C 	0.83280 0.70630 0.92630 0.36900
C 	C 	0.78380 0.65580 0.94560 -0.17900
C 	C 	0.72390 0.65030 0.91470 0.11300
H 	H 	0.71360 0.68000 0.88020 0.00700
C 	C 	0.67840 0.60320 0.93220 -0.21000
H 	H 	0.63770 0.59970 0.90970 0.11800
C 	C 	0.69370 0.56070 0.98410 0.19800
C 	C 	0.75140 0.56670 0.01730 -0.22300
H 	H 	0.76070 0.53830 0.05310 0.10400
C 	C 	0.79620 0.61380 0.99920 0.11100
H 	H 	0.83610 0.61800 0.02300 -0.00500
C 	C 	0.59650 0.48510 0.98060 0.21000
O 	O 	0.62480 0.18290 0.24020 -0.47300
O 	O 	0.54240 0.11570 0.21330 -0.33900
N 	N 	0.49380 0.35220 0.01020 -0.25800
H 	H 	0.45490 0.34250 0.99390 0.15800
N 	N 	0.57330 0.43020 0.01190 -0.18200
C 	C 	0.57370 0.16720 0.20630 0.36900
C 	C 	0.55440 0.21620 0.15580 -0.18000
C 	C 	0.58530 0.27610 0.15030 0.11400
H 	H 	0.61980 0.28640 0.18000 0.00700
C 	C 	0.56780 0.32160 0.10320 -0.21100
H 	H 	0.59030 0.36230 0.09970 0.11800
C 	C 	0.51590 0.30630 0.06070 0.19900
C 	C 	0.48270 0.24860 0.06670 -0.22400
H 	H 	0.44690 0.23930 0.03830 0.10400
C 	C 	0.50080 0.20380 0.11380 0.11200
H 	H 	0.47700 0.16390 0.11800 -0.00500
C 	C 	0.51940 0.40350 0.98510 0.21000
O 	O 	0.37520 0.68290 0.25980 -0.47300
O 	O 	0.45760 0.61570 0.28670 -0.33900
N 	N 	0.50620 0.85220 0.48980 -0.25800
H 	H 	0.54510 0.84250 0.50610 0.15800
N 	N 	0.42670 0.93020 0.48810 -0.18200
C 	C 	0.42630 0.66720 0.29370 0.36900
C 	C 	0.44560 0.71620 0.34420 -0.18000
C 	C 	0.41470 0.77610 0.34970 0.11400
H 	H 	0.38020 0.78640 0.32000 0.00700
C 	C 	0.43220 0.82160 0.39680 -0.21100
H 	H 	0.40970 0.86230 0.40030 0.11800
C 	C 	0.48410 0.80630 0.43930 0.19900
C 	C 	0.51730 0.74860 0.43330 -0.22400
H 	H 	0.55310 0.73930 0.46170 0.10400
C 	C 	0.49920 0.70380 0.38620 0.11200
H 	H 	0.52300 0.66390 0.38200 -0.00500
C 	C 	0.48060 0.90350 0.51490 0.21100
O 	O 	0.12480 0.31710 0.75980 -0.47300
O 	O 	0.04240 0.38430 0.78670 -0.33900
N 	N 	0.99380 0.14780 0.98980 -0.25900
H 	H 	0.95490 0.15750 0.00610 0.15800
N 	N 	0.07330 0.06980 0.98810 -0.18300
C 	C 	0.07370 0.33280 0.79370 0.37000
C 	C 	0.05440 0.28380 0.84420 -0.18000
C 	C 	0.08530 0.22390 0.84970 0.11500
H 	H 	0.11980 0.21360 0.82000 0.00700
C 	C 	0.06780 0.17840 0.89680 -0.21100
H 	H 	0.09030 0.13770 0.90030 0.11800
C 	C 	0.01590 0.19370 0.93930 0.20000
C 	C 	0.98270 0.25140 0.93330 -0.22500
H 	H 	0.94690 0.26070 0.96170 0.10400
C 	C 	0.00080 0.29620 0.88620 0.11400
H 	H 	0.97700 0.33610 0.88200 -0.00600
C 	C 	0.01940 0.09650 0.01490 0.21100
O 	O 	0.87520 0.81710 0.74020 -0.47300
O 	O 	0.95760 0.88430 0.71330 -0.33900
N 	N 	0.00620 0.64780 0.51020 -0.25800
H 	H 	0.04510 0.65750 0.49390 0.15800
N 	N 	0.92670 0.56980 0.51190 -0.18200
C 	C 	0.92630 0.83280 0.70630 0.36900
C 	C 	0.94560 0.78380 0.65580 -0.17900
C 	C 	0.91470 0.72390 0.65030 0.11300
H 	H 	0.88020 0.71360 0.68000 0.00700
C 	C 	0.93220 0.67840 0.60320 -0.21000
H 	H 	0.90970 0.63770 0.59970 0.11800
C 	C 	0.98410 0.69370 0.56070 0.19800
C 	C 	0.01730 0.75140 0.56670 -0.22300
H 	H 	0.05310 0.76070 0.53830 0.10400
C 	C 	0.99920 0.79620 0.61380 0.11100
H 	H 	0.02300 0.83610 0.61800 -0.00500
C 	C 	0.98060 0.59650 0.48510 0.21000
Tm	Tm	0.33830 0.66170 0.16170 1.43000
Tm	Tm	0.16170 0.33830 0.66170 1.43000
Tm	Tm	0.66170 0.16170 0.33830 1.43000
Tm	Tm	0.83830 0.83830 0.83830 1.43000
