data_crystal

_cell_length_a 20.49260
_cell_length_b 20.49260
_cell_length_c 20.49260
_cell_angle_alpha 90.00000
_cell_angle_beta  90.00000
_cell_angle_gamma 90.00000

_symmetry_space_group_name_	'P 1'
_symmetry_space_group_name_H-M	'P 1'

loop_
_symmetry_equiv_pos_as_xyz
  x,y,z

loop_
_atom_site_label
_atom_site_type_symbol
_atom_site_fract_x
_atom_site_fract_y
_atom_site_fract_z
_atom_site_charge
O 	O 	0.13380 0.80810 0.24380 -0.47300
O 	O 	0.06120 0.88110 0.21230 -0.35600
N 	N 	0.99790 0.65150 0.01120 -0.25400
H 	H 	0.96110 0.66490 0.99380 0.16400
N 	N 	0.99010 0.57600 0.93130 -0.18000
C 	C 	0.08730 0.82700 0.20740 0.38500
C 	C 	0.06560 0.77990 0.15610 -0.19100
C 	C 	0.01460 0.79600 0.11450 0.11800
H 	H 	0.99430 0.83740 0.11820 -0.00800
C 	C 	0.99330 0.75280 0.06810 -0.21500
H 	H 	0.95860 0.76480 0.03970 0.10400
C 	C 	0.02230 0.69050 0.06210 0.20000
C 	C 	0.07410 0.67570 0.10460 -0.22300
H 	H 	0.09580 0.63490 0.10080 0.11800
C 	C 	0.09330 0.71860 0.15070 0.13100
H 	H 	0.12670 0.70630 0.18030 -0.00300
C 	C 	0.02310 0.59620 0.98520 0.19500
O 	O 	0.36620 0.19190 0.74380 -0.47200
O 	O 	0.43880 0.11890 0.71230 -0.35700
N 	N 	0.50210 0.34850 0.51120 -0.25500
H 	H 	0.53890 0.33510 0.49380 0.16300
N 	N 	0.50990 0.42400 0.43130 -0.18100
C 	C 	0.41270 0.17300 0.70740 0.38300
C 	C 	0.43440 0.22010 0.65610 -0.19100
C 	C 	0.48540 0.20400 0.61450 0.11500
H 	H 	0.50570 0.16260 0.61820 -0.00800
C 	C 	0.50670 0.24720 0.56810 -0.21400
H 	H 	0.54140 0.23520 0.53970 0.10300
C 	C 	0.47770 0.30950 0.56210 0.19700
C 	C 	0.42590 0.32430 0.60460 -0.22300
H 	H 	0.40420 0.36510 0.60080 0.11600
C 	C 	0.40670 0.28140 0.65070 0.12900
H 	H 	0.37330 0.29370 0.68030 -0.00400
C 	C 	0.47690 0.40380 0.48520 0.19400
O 	O 	0.86620 0.30810 0.25620 -0.47300
O 	O 	0.93880 0.38110 0.28770 -0.35700
N 	N 	0.00210 0.15150 0.48880 -0.25400
H 	H 	0.03890 0.16490 0.50620 0.16300
N 	N 	0.00990 0.07600 0.56870 -0.18100
C 	C 	0.91270 0.32700 0.29260 0.38300
C 	C 	0.93440 0.27990 0.34390 -0.19000
C 	C 	0.98540 0.29600 0.38550 0.11300
H 	H 	0.00570 0.33740 0.38180 -0.00700
C 	C 	0.00670 0.25280 0.43190 -0.21200
H 	H 	0.04140 0.26480 0.46030 0.10200
C 	C 	0.97770 0.19050 0.43790 0.19600
C 	C 	0.92590 0.17570 0.39540 -0.22200
H 	H 	0.90420 0.13490 0.39920 0.11600
C 	C 	0.90670 0.21860 0.34930 0.12800
H 	H 	0.87330 0.20630 0.31970 -0.00300
C 	C 	0.97690 0.09620 0.51480 0.19400
O 	O 	0.63380 0.69190 0.75620 -0.47300
O 	O 	0.56120 0.61890 0.78770 -0.35700
N 	N 	0.49790 0.84850 0.98880 -0.25500
H 	H 	0.46110 0.83510 0.00620 0.16300
N 	N 	0.49010 0.92400 0.06870 -0.18100
C 	C 	0.58730 0.67300 0.79260 0.38300
C 	C 	0.56560 0.72010 0.84390 -0.19100
C 	C 	0.51460 0.70400 0.88550 0.11500
H 	H 	0.49430 0.66260 0.88180 -0.00800
C 	C 	0.49330 0.74720 0.93190 -0.21400
H 	H 	0.45860 0.73520 0.96030 0.10300
C 	C 	0.52230 0.80950 0.93790 0.19700
C 	C 	0.57410 0.82430 0.89540 -0.22300
H 	H 	0.59580 0.86510 0.89920 0.11600
C 	C 	0.59330 0.78140 0.84930 0.12900
H 	H 	0.62670 0.79370 0.81970 -0.00400
C 	C 	0.52310 0.90380 0.01480 0.19400
O 	O 	0.24380 0.13380 0.80810 -0.47400
O 	O 	0.21230 0.06120 0.88110 -0.35700
N 	N 	0.01120 0.99790 0.65150 -0.25500
H 	H 	0.99380 0.96110 0.66490 0.16300
N 	N 	0.93130 0.99010 0.57600 -0.18100
C 	C 	0.20740 0.08730 0.82700 0.38400
C 	C 	0.15610 0.06560 0.77990 -0.19200
C 	C 	0.11450 0.01460 0.79600 0.11700
H 	H 	0.11820 0.99430 0.83740 -0.00900
C 	C 	0.06810 0.99330 0.75280 -0.21600
H 	H 	0.03970 0.95860 0.76480 0.10300
C 	C 	0.06210 0.02230 0.69050 0.19900
C 	C 	0.10460 0.07410 0.67570 -0.22400
H 	H 	0.10080 0.09580 0.63490 0.11700
C 	C 	0.15070 0.09330 0.71860 0.13000
H 	H 	0.18030 0.12670 0.70630 -0.00400
C 	C 	0.98520 0.02310 0.59620 0.19400
O 	O 	0.74380 0.36620 0.19190 -0.47300
O 	O 	0.71230 0.43880 0.11890 -0.35700
N 	N 	0.51120 0.50210 0.34850 -0.25500
H 	H 	0.49380 0.53890 0.33510 0.16300
N 	N 	0.43130 0.50990 0.42400 -0.18100
C 	C 	0.70740 0.41270 0.17300 0.38300
C 	C 	0.65610 0.43440 0.22010 -0.19100
C 	C 	0.61450 0.48540 0.20400 0.11500
H 	H 	0.61820 0.50570 0.16260 -0.00800
C 	C 	0.56810 0.50670 0.24720 -0.21400
H 	H 	0.53970 0.54140 0.23520 0.10300
C 	C 	0.56210 0.47770 0.30950 0.19700
C 	C 	0.60460 0.42590 0.32430 -0.22300
H 	H 	0.60080 0.40420 0.36510 0.11600
C 	C 	0.65070 0.40670 0.28140 0.12900
H 	H 	0.68030 0.37330 0.29370 -0.00400
C 	C 	0.48520 0.47690 0.40380 0.19400
O 	O 	0.25620 0.86620 0.30810 -0.47300
O 	O 	0.28770 0.93880 0.38110 -0.35700
N 	N 	0.48880 0.00210 0.15150 -0.25400
H 	H 	0.50620 0.03890 0.16490 0.16300
N 	N 	0.56870 0.00990 0.07600 -0.18100
C 	C 	0.29260 0.91270 0.32700 0.38300
C 	C 	0.34390 0.93440 0.27990 -0.19000
C 	C 	0.38550 0.98540 0.29600 0.11300
H 	H 	0.38180 0.00570 0.33740 -0.00700
C 	C 	0.43190 0.00670 0.25280 -0.21200
H 	H 	0.46030 0.04140 0.26480 0.10200
C 	C 	0.43790 0.97770 0.19050 0.19600
C 	C 	0.39540 0.92590 0.17570 -0.22200
H 	H 	0.39920 0.90420 0.13490 0.11600
C 	C 	0.34930 0.90670 0.21860 0.12800
H 	H 	0.31970 0.87330 0.20630 -0.00300
C 	C 	0.51480 0.97690 0.09620 0.19400
O 	O 	0.75620 0.63380 0.69190 -0.47300
O 	O 	0.78770 0.56120 0.61890 -0.35700
N 	N 	0.98880 0.49790 0.84850 -0.25500
H 	H 	0.00620 0.46110 0.83510 0.16300
N 	N 	0.06870 0.49010 0.92400 -0.18100
C 	C 	0.79260 0.58730 0.67300 0.38300
C 	C 	0.84390 0.56560 0.72010 -0.19100
C 	C 	0.88550 0.51460 0.70400 0.11500
H 	H 	0.88180 0.49430 0.66260 -0.00800
C 	C 	0.93190 0.49330 0.74720 -0.21400
H 	H 	0.96030 0.45860 0.73520 0.10300
C 	C 	0.93790 0.52230 0.80950 0.19700
C 	C 	0.89540 0.57410 0.82430 -0.22300
H 	H 	0.89920 0.59580 0.86510 0.11600
C 	C 	0.84930 0.59330 0.78140 0.12900
H 	H 	0.81970 0.62670 0.79370 -0.00400
C 	C 	0.01480 0.52310 0.90380 0.19400
O 	O 	0.80810 0.24380 0.13380 -0.47400
O 	O 	0.88110 0.21230 0.06120 -0.35700
N 	N 	0.65150 0.01120 0.99790 -0.25500
H 	H 	0.66490 0.99380 0.96110 0.16300
N 	N 	0.57600 0.93130 0.99010 -0.18100
C 	C 	0.82700 0.20740 0.08730 0.38400
C 	C 	0.77990 0.15610 0.06560 -0.19200
C 	C 	0.79600 0.11450 0.01460 0.11700
H 	H 	0.83740 0.11820 0.99430 -0.00900
C 	C 	0.75280 0.06810 0.99330 -0.21600
H 	H 	0.76480 0.03970 0.95860 0.10300
C 	C 	0.69050 0.06210 0.02230 0.19900
C 	C 	0.67570 0.10460 0.07410 -0.22400
H 	H 	0.63490 0.10080 0.09580 0.11700
C 	C 	0.71860 0.15070 0.09330 0.13000
H 	H 	0.70630 0.18030 0.12670 -0.00400
C 	C 	0.59620 0.98520 0.02310 0.19400
O 	O 	0.19190 0.74380 0.36620 -0.47300
O 	O 	0.11890 0.71230 0.43880 -0.35700
N 	N 	0.34850 0.51120 0.50210 -0.25500
H 	H 	0.33510 0.49380 0.53890 0.16300
N 	N 	0.42400 0.43130 0.50990 -0.18100
C 	C 	0.17300 0.70740 0.41270 0.38300
C 	C 	0.22010 0.65610 0.43440 -0.19100
C 	C 	0.20400 0.61450 0.48540 0.11500
H 	H 	0.16260 0.61820 0.50570 -0.00800
C 	C 	0.24720 0.56810 0.50670 -0.21400
H 	H 	0.23520 0.53970 0.54140 0.10300
C 	C 	0.30950 0.56210 0.47770 0.19700
C 	C 	0.32430 0.60460 0.42590 -0.22300
H 	H 	0.36510 0.60080 0.40420 0.11600
C 	C 	0.28140 0.65070 0.40670 0.12900
H 	H 	0.29370 0.68030 0.37330 -0.00400
C 	C 	0.40380 0.48520 0.47690 0.19400
O 	O 	0.30810 0.25620 0.86620 -0.47300
O 	O 	0.38110 0.28770 0.93880 -0.35700
N 	N 	0.15150 0.48880 0.00210 -0.25400
H 	H 	0.16490 0.50620 0.03890 0.16300
N 	N 	0.07600 0.56870 0.00990 -0.18100
C 	C 	0.32700 0.29260 0.91270 0.38300
C 	C 	0.27990 0.34390 0.93440 -0.19000
C 	C 	0.29600 0.38550 0.98540 0.11300
H 	H 	0.33740 0.38180 0.00570 -0.00700
C 	C 	0.25280 0.43190 0.00670 -0.21200
H 	H 	0.26480 0.46030 0.04140 0.10200
C 	C 	0.19050 0.43790 0.97770 0.19600
C 	C 	0.17570 0.39540 0.92590 -0.22200
H 	H 	0.13490 0.39920 0.90420 0.11600
C 	C 	0.21860 0.34930 0.90670 0.12800
H 	H 	0.20630 0.31970 0.87330 -0.00300
C 	C 	0.09620 0.51480 0.97690 0.19400
O 	O 	0.69190 0.75620 0.63380 -0.47300
O 	O 	0.61890 0.78770 0.56120 -0.35700
N 	N 	0.84850 0.98880 0.49790 -0.25500
H 	H 	0.83510 0.00620 0.46110 0.16300
N 	N 	0.92400 0.06870 0.49010 -0.18100
C 	C 	0.67300 0.79260 0.58730 0.38300
C 	C 	0.72010 0.84390 0.56560 -0.19100
C 	C 	0.70400 0.88550 0.51460 0.11500
H 	H 	0.66260 0.88180 0.49430 -0.00800
C 	C 	0.74720 0.93190 0.49330 -0.21400
H 	H 	0.73520 0.96030 0.45860 0.10300
C 	C 	0.80950 0.93790 0.52230 0.19700
C 	C 	0.82430 0.89540 0.57410 -0.22300
H 	H 	0.86510 0.89920 0.59580 0.11600
C 	C 	0.78140 0.84930 0.59330 0.12900
H 	H 	0.79370 0.81970 0.62670 -0.00400
C 	C 	0.90380 0.01480 0.52310 0.19400
Sm	Sm	0.15332 0.84668 0.34668 1.52300
Sm	Sm	0.34668 0.15332 0.84668 1.52300
Sm	Sm	0.84668 0.34668 0.15332 1.52300
Sm	Sm	0.65332 0.65332 0.65332 1.52400
O 	O 	0.23440 0.61710 0.17940 -0.51900
O 	O 	0.20860 0.53320 0.11620 -0.34500
N 	N 	0.00730 0.49040 0.34970 -0.25400
H 	H 	0.98820 0.45360 0.33840 0.15400
N 	N 	0.01160 0.57100 0.42950 -0.18000
C 	C 	0.20170 0.56620 0.16650 0.41500
C 	C 	0.15190 0.54610 0.21690 -0.20500
C 	C 	0.14700 0.57850 0.27490 0.13600
H 	H 	0.17590 0.61360 0.28370 -0.00900
C 	C 	0.10070 0.56140 0.32110 -0.22800
H 	H 	0.09840 0.58420 0.36140 0.12200
C 	C 	0.05760 0.51040 0.30800 0.20600
C 	C 	0.06260 0.47770 0.24830 -0.22900
H 	H 	0.03330 0.44310 0.23860 0.09600
C 	C 	0.10900 0.49480 0.20400 0.12700
H 	H 	0.11230 0.47170 0.16400 -0.01400
C 	C 	0.98330 0.51820 0.40460 0.19500
O 	O 	0.26560 0.38290 0.67940 -0.51900
O 	O 	0.29140 0.46680 0.61620 -0.34500
N 	N 	0.49270 0.50960 0.84970 -0.25400
H 	H 	0.51180 0.54640 0.83840 0.15400
N 	N 	0.48840 0.42900 0.92950 -0.18000
C 	C 	0.29830 0.43380 0.66650 0.41500
C 	C 	0.34810 0.45390 0.71690 -0.20500
C 	C 	0.35300 0.42150 0.77490 0.13600
H 	H 	0.32410 0.38640 0.78370 -0.00900
C 	C 	0.39930 0.43860 0.82110 -0.22800
H 	H 	0.40160 0.41580 0.86140 0.12200
C 	C 	0.44240 0.48960 0.80800 0.20600
C 	C 	0.43740 0.52230 0.74830 -0.22900
H 	H 	0.46670 0.55690 0.73860 0.09600
C 	C 	0.39100 0.50520 0.70400 0.12700
H 	H 	0.38770 0.52830 0.66400 -0.01400
C 	C 	0.51670 0.48180 0.90460 0.19600
O 	O 	0.76560 0.11710 0.32060 -0.51900
O 	O 	0.79140 0.03320 0.38380 -0.34500
N 	N 	0.99270 0.99040 0.15030 -0.25500
H 	H 	0.01180 0.95360 0.16160 0.15400
N 	N 	0.98840 0.07100 0.07050 -0.18100
C 	C 	0.79830 0.06620 0.33350 0.41500
C 	C 	0.84810 0.04610 0.28310 -0.20500
C 	C 	0.85300 0.07850 0.22510 0.13700
H 	H 	0.82410 0.11360 0.21630 -0.00900
C 	C 	0.89930 0.06140 0.17890 -0.22800
H 	H 	0.90160 0.08420 0.13860 0.12200
C 	C 	0.94240 0.01040 0.19200 0.20700
C 	C 	0.93740 0.97770 0.25170 -0.23000
H 	H 	0.96670 0.94310 0.26140 0.09600
C 	C 	0.89100 0.99480 0.29600 0.12700
H 	H 	0.88770 0.97170 0.33600 -0.01400
C 	C 	0.01670 0.01820 0.09540 0.19700
O 	O 	0.73440 0.88290 0.82060 -0.51900
O 	O 	0.70860 0.96680 0.88380 -0.34500
N 	N 	0.50730 0.00960 0.65030 -0.25400
H 	H 	0.48820 0.04640 0.66160 0.15400
N 	N 	0.51160 0.92900 0.57050 -0.18000
C 	C 	0.70170 0.93380 0.83350 0.41500
C 	C 	0.65190 0.95390 0.78310 -0.20500
C 	C 	0.64700 0.92150 0.72510 0.13600
H 	H 	0.67590 0.88640 0.71630 -0.00900
C 	C 	0.60070 0.93860 0.67890 -0.22800
H 	H 	0.59840 0.91580 0.63860 0.12200
C 	C 	0.55760 0.98960 0.69200 0.20600
C 	C 	0.56260 0.02230 0.75170 -0.22900
H 	H 	0.53330 0.05690 0.76140 0.09600
C 	C 	0.60900 0.00520 0.79600 0.12700
H 	H 	0.61230 0.02830 0.83600 -0.01400
C 	C 	0.48330 0.98180 0.59540 0.19600
O 	O 	0.17940 0.23440 0.61710 -0.51900
O 	O 	0.11620 0.20860 0.53320 -0.34500
N 	N 	0.34970 0.00730 0.49040 -0.25400
H 	H 	0.33840 0.98820 0.45360 0.15400
N 	N 	0.42950 0.01160 0.57100 -0.18000
C 	C 	0.16650 0.20170 0.56620 0.41500
C 	C 	0.21690 0.15190 0.54610 -0.20500
C 	C 	0.27490 0.14700 0.57850 0.13600
H 	H 	0.28370 0.17590 0.61360 -0.00900
C 	C 	0.32110 0.10070 0.56140 -0.22800
H 	H 	0.36140 0.09840 0.58420 0.12200
C 	C 	0.30800 0.05760 0.51040 0.20600
C 	C 	0.24830 0.06260 0.47770 -0.22900
H 	H 	0.23860 0.03330 0.44310 0.09600
C 	C 	0.20400 0.10900 0.49480 0.12700
H 	H 	0.16400 0.11230 0.47170 -0.01400
C 	C 	0.40460 0.98330 0.51820 0.19500
O 	O 	0.67940 0.26560 0.38290 -0.51900
O 	O 	0.61620 0.29140 0.46680 -0.34500
N 	N 	0.84970 0.49270 0.50960 -0.25400
H 	H 	0.83840 0.51180 0.54640 0.15400
N 	N 	0.92950 0.48840 0.42900 -0.18000
C 	C 	0.66650 0.29830 0.43380 0.41500
C 	C 	0.71690 0.34810 0.45390 -0.20500
C 	C 	0.77490 0.35300 0.42150 0.13600
H 	H 	0.78370 0.32410 0.38640 -0.00900
C 	C 	0.82110 0.39930 0.43860 -0.22800
H 	H 	0.86140 0.40160 0.41580 0.12200
C 	C 	0.80800 0.44240 0.48960 0.20600
C 	C 	0.74830 0.43740 0.52230 -0.22900
H 	H 	0.73860 0.46670 0.55690 0.09600
C 	C 	0.70400 0.39100 0.50520 0.12700
H 	H 	0.66400 0.38770 0.52830 -0.01400
C 	C 	0.90460 0.51670 0.48180 0.19600
O 	O 	0.32060 0.76560 0.11710 -0.51900
O 	O 	0.38380 0.79140 0.03320 -0.34500
N 	N 	0.15030 0.99270 0.99040 -0.25500
H 	H 	0.16160 0.01180 0.95360 0.15400
N 	N 	0.07050 0.98840 0.07100 -0.18100
C 	C 	0.33350 0.79830 0.06620 0.41500
C 	C 	0.28310 0.84810 0.04610 -0.20500
C 	C 	0.22510 0.85300 0.07850 0.13700
H 	H 	0.21630 0.82410 0.11360 -0.00900
C 	C 	0.17890 0.89930 0.06140 -0.22800
H 	H 	0.13860 0.90160 0.08420 0.12200
C 	C 	0.19200 0.94240 0.01040 0.20700
C 	C 	0.25170 0.93740 0.97770 -0.23000
H 	H 	0.26140 0.96670 0.94310 0.09600
C 	C 	0.29600 0.89100 0.99480 0.12700
H 	H 	0.33600 0.88770 0.97170 -0.01400
C 	C 	0.09540 0.01670 0.01820 0.19700
O 	O 	0.82060 0.73440 0.88290 -0.51900
O 	O 	0.88380 0.70860 0.96680 -0.34500
N 	N 	0.65030 0.50730 0.00960 -0.25400
H 	H 	0.66160 0.48820 0.04640 0.15400
N 	N 	0.57050 0.51160 0.92900 -0.18000
C 	C 	0.83350 0.70170 0.93380 0.41500
C 	C 	0.78310 0.65190 0.95390 -0.20500
C 	C 	0.72510 0.64700 0.92150 0.13600
H 	H 	0.71630 0.67590 0.88640 -0.00900
C 	C 	0.67890 0.60070 0.93860 -0.22800
H 	H 	0.63860 0.59840 0.91580 0.12200
C 	C 	0.69200 0.55760 0.98960 0.20600
C 	C 	0.75170 0.56260 0.02230 -0.22900
H 	H 	0.76140 0.53330 0.05690 0.09600
C 	C 	0.79600 0.60900 0.00520 0.12700
H 	H 	0.83600 0.61230 0.02830 -0.01400
C 	C 	0.59540 0.48330 0.98180 0.19600
O 	O 	0.61710 0.17940 0.23440 -0.51900
O 	O 	0.53320 0.11620 0.20860 -0.34500
N 	N 	0.49040 0.34970 0.00730 -0.25400
H 	H 	0.45360 0.33840 0.98820 0.15400
N 	N 	0.57100 0.42950 0.01160 -0.18000
C 	C 	0.56620 0.16650 0.20170 0.41500
C 	C 	0.54610 0.21690 0.15190 -0.20500
C 	C 	0.57850 0.27490 0.14700 0.13600
H 	H 	0.61360 0.28370 0.17590 -0.00900
C 	C 	0.56140 0.32110 0.10070 -0.22800
H 	H 	0.58420 0.36140 0.09840 0.12200
C 	C 	0.51040 0.30800 0.05760 0.20600
C 	C 	0.47770 0.24830 0.06260 -0.22900
H 	H 	0.44310 0.23860 0.03330 0.09600
C 	C 	0.49480 0.20400 0.10900 0.12700
H 	H 	0.47170 0.16400 0.11230 -0.01400
C 	C 	0.51820 0.40460 0.98330 0.19500
O 	O 	0.38290 0.67940 0.26560 -0.51900
O 	O 	0.46680 0.61620 0.29140 -0.34500
N 	N 	0.50960 0.84970 0.49270 -0.25400
H 	H 	0.54640 0.83840 0.51180 0.15400
N 	N 	0.42900 0.92950 0.48840 -0.18000
C 	C 	0.43380 0.66650 0.29830 0.41500
C 	C 	0.45390 0.71690 0.34810 -0.20500
C 	C 	0.42150 0.77490 0.35300 0.13600
H 	H 	0.38640 0.78370 0.32410 -0.00900
C 	C 	0.43860 0.82110 0.39930 -0.22800
H 	H 	0.41580 0.86140 0.40160 0.12200
C 	C 	0.48960 0.80800 0.44240 0.20600
C 	C 	0.52230 0.74830 0.43740 -0.22900
H 	H 	0.55690 0.73860 0.46670 0.09600
C 	C 	0.50520 0.70400 0.39100 0.12700
H 	H 	0.52830 0.66400 0.38770 -0.01400
C 	C 	0.48180 0.90460 0.51670 0.19600
O 	O 	0.11710 0.32060 0.76560 -0.51900
O 	O 	0.03320 0.38380 0.79140 -0.34500
N 	N 	0.99040 0.15030 0.99270 -0.25500
H 	H 	0.95360 0.16160 0.01180 0.15400
N 	N 	0.07100 0.07050 0.98840 -0.18100
C 	C 	0.06620 0.33350 0.79830 0.41500
C 	C 	0.04610 0.28310 0.84810 -0.20500
C 	C 	0.07850 0.22510 0.85300 0.13700
H 	H 	0.11360 0.21630 0.82410 -0.00900
C 	C 	0.06140 0.17890 0.89930 -0.22800
H 	H 	0.08420 0.13860 0.90160 0.12200
C 	C 	0.01040 0.19200 0.94240 0.20700
C 	C 	0.97770 0.25170 0.93740 -0.23000
H 	H 	0.94310 0.26140 0.96670 0.09600
C 	C 	0.99480 0.29600 0.89100 0.12700
H 	H 	0.97170 0.33600 0.88770 -0.01400
C 	C 	0.01820 0.09540 0.01670 0.19700
O 	O 	0.88290 0.82060 0.73440 -0.51900
O 	O 	0.96680 0.88380 0.70860 -0.34500
N 	N 	0.00960 0.65030 0.50730 -0.25400
H 	H 	0.04640 0.66160 0.48820 0.15400
N 	N 	0.92900 0.57050 0.51160 -0.18000
C 	C 	0.93380 0.83350 0.70170 0.41500
C 	C 	0.95390 0.78310 0.65190 -0.20500
C 	C 	0.92150 0.72510 0.64700 0.13600
H 	H 	0.88640 0.71630 0.67590 -0.00900
C 	C 	0.93860 0.67890 0.60070 -0.22800
H 	H 	0.91580 0.63860 0.59840 0.12200
C 	C 	0.98960 0.69200 0.55760 0.20600
C 	C 	0.02230 0.75170 0.56260 -0.22900
H 	H 	0.05690 0.76140 0.53330 0.09600
C 	C 	0.00520 0.79600 0.60900 0.12700
H 	H 	0.02830 0.83600 0.61230 -0.01400
C 	C 	0.98180 0.59540 0.48330 0.19600
Sm	Sm	0.33357 0.66643 0.16643 1.58200
Sm	Sm	0.16643 0.33357 0.66643 1.58200
Sm	Sm	0.66643 0.16643 0.33357 1.58200
Sm	Sm	0.83357 0.83357 0.83357 1.58100
