data_crystal

_cell_length_a 20.43910
_cell_length_b 20.43910
_cell_length_c 20.43910
_cell_angle_alpha 90.00000
_cell_angle_beta  90.00000
_cell_angle_gamma 90.00000

_symmetry_space_group_name_	'P 1'
_symmetry_space_group_name_H-M	'P 1'

loop_
_symmetry_equiv_pos_as_xyz
  x,y,z

loop_
_atom_site_label
_atom_site_type_symbol
_atom_site_fract_x
_atom_site_fract_y
_atom_site_fract_z
_atom_site_charge
O 	O 	0.13420 0.81110 0.24240 -0.45300
O 	O 	0.05860 0.88325 0.21160 -0.34100
N 	N 	0.99570 0.65000 0.01330 -0.25500
H 	H 	0.95800 0.66230 0.99650 0.16200
N 	N 	0.98770 0.57410 0.93280 -0.18000
C 	C 	0.08630 0.82890 0.20630 0.36900
C 	C 	0.06380 0.78100 0.15650 -0.19200
C 	C 	0.01320 0.79570 0.11490 0.12400
H 	H 	0.99290 0.83740 0.11790 -0.01000
C 	C 	0.99090 0.75190 0.06910 -0.22800
H 	H 	0.95540 0.76350 0.04140 0.11100
C 	C 	0.02010 0.69060 0.06300 0.20700
C 	C 	0.07190 0.67480 0.10520 -0.22200
H 	H 	0.09290 0.63350 0.10210 0.11800
C 	C 	0.09210 0.71920 0.15090 0.12400
H 	H 	0.12660 0.70760 0.17990 0.00100
C 	C 	0.02150 0.59450 0.98730 0.19300
O 	O 	0.36580 0.18890 0.74240 -0.45200
O 	O 	0.44140 0.11675 0.71160 -0.34000
N 	N 	0.50430 0.35000 0.51330 -0.25400
H 	H 	0.54200 0.33770 0.49650 0.16300
N 	N 	0.51230 0.42590 0.43280 -0.17900
C 	C 	0.41370 0.17110 0.70630 0.37000
C 	C 	0.43620 0.21900 0.65650 -0.19000
C 	C 	0.48680 0.20430 0.61490 0.12400
H 	H 	0.50710 0.16260 0.61790 -0.00900
C 	C 	0.50910 0.24810 0.56910 -0.22600
H 	H 	0.54460 0.23650 0.54140 0.11000
C 	C 	0.47990 0.30940 0.56300 0.20600
C 	C 	0.42810 0.32520 0.60520 -0.22100
H 	H 	0.40710 0.36650 0.60210 0.11800
C 	C 	0.40790 0.28080 0.65090 0.12300
H 	H 	0.37340 0.29240 0.67990 0.00100
C 	C 	0.47850 0.40550 0.48730 0.19300
O 	O 	0.86580 0.31110 0.25760 -0.45200
O 	O 	0.94140 0.38325 0.28840 -0.34000
N 	N 	0.00430 0.15000 0.48670 -0.25300
H 	H 	0.04200 0.16230 0.50350 0.16300
N 	N 	0.01230 0.07410 0.56720 -0.17800
C 	C 	0.91370 0.32890 0.29370 0.36900
C 	C 	0.93620 0.28100 0.34350 -0.18900
C 	C 	0.98680 0.29570 0.38510 0.12100
H 	H 	0.00710 0.33740 0.38210 -0.00800
C 	C 	0.00910 0.25190 0.43090 -0.22400
H 	H 	0.04460 0.26350 0.45860 0.10900
C 	C 	0.97990 0.19060 0.43700 0.20500
C 	C 	0.92810 0.17480 0.39480 -0.22000
H 	H 	0.90710 0.13350 0.39790 0.11800
C 	C 	0.90790 0.21920 0.34910 0.12200
H 	H 	0.87340 0.20760 0.32010 0.00200
C 	C 	0.97850 0.09450 0.51270 0.19300
O 	O 	0.63420 0.68890 0.75760 -0.45200
O 	O 	0.55860 0.61675 0.78840 -0.34000
N 	N 	0.49570 0.85000 0.98670 -0.25400
H 	H 	0.45800 0.83770 0.00350 0.16300
N 	N 	0.48770 0.92590 0.06720 -0.17900
C 	C 	0.58630 0.67110 0.79370 0.37000
C 	C 	0.56380 0.71900 0.84350 -0.19000
C 	C 	0.51320 0.70430 0.88510 0.12300
H 	H 	0.49290 0.66260 0.88210 -0.00900
C 	C 	0.49090 0.74810 0.93090 -0.22600
H 	H 	0.45540 0.73650 0.95860 0.11000
C 	C 	0.52010 0.80940 0.93700 0.20600
C 	C 	0.57190 0.82520 0.89480 -0.22100
H 	H 	0.59290 0.86650 0.89790 0.11800
C 	C 	0.59210 0.78080 0.84910 0.12300
H 	H 	0.62660 0.79240 0.82010 0.00100
C 	C 	0.52150 0.90550 0.01270 0.19300
O 	O 	0.24240 0.13420 0.81110 -0.45200
O 	O 	0.21160 0.05860 0.88325 -0.34000
N 	N 	0.01330 0.99570 0.65000 -0.25400
H 	H 	0.99650 0.95800 0.66230 0.16300
N 	N 	0.93280 0.98770 0.57410 -0.17900
C 	C 	0.20630 0.08630 0.82890 0.37000
C 	C 	0.15650 0.06380 0.78100 -0.19100
C 	C 	0.11490 0.01320 0.79570 0.12500
H 	H 	0.11790 0.99290 0.83740 -0.01000
C 	C 	0.06910 0.99090 0.75190 -0.22800
H 	H 	0.04140 0.95540 0.76350 0.11100
C 	C 	0.06300 0.02010 0.69060 0.20700
C 	C 	0.10520 0.07190 0.67480 -0.22200
H 	H 	0.10210 0.09290 0.63350 0.11800
C 	C 	0.15090 0.09210 0.71920 0.12400
H 	H 	0.17990 0.12660 0.70760 0.00100
C 	C 	0.98730 0.02150 0.59450 0.19300
O 	O 	0.74240 0.36580 0.18890 -0.45200
O 	O 	0.71160 0.44140 0.11675 -0.34000
N 	N 	0.51330 0.50430 0.35000 -0.25400
H 	H 	0.49650 0.54200 0.33770 0.16300
N 	N 	0.43280 0.51230 0.42590 -0.17900
C 	C 	0.70630 0.41370 0.17110 0.37000
C 	C 	0.65650 0.43620 0.21900 -0.19000
C 	C 	0.61490 0.48680 0.20430 0.12400
H 	H 	0.61790 0.50710 0.16260 -0.00900
C 	C 	0.56910 0.50910 0.24810 -0.22600
H 	H 	0.54140 0.54460 0.23650 0.11000
C 	C 	0.56300 0.47990 0.30940 0.20600
C 	C 	0.60520 0.42810 0.32520 -0.22100
H 	H 	0.60210 0.40710 0.36650 0.11800
C 	C 	0.65090 0.40790 0.28080 0.12300
H 	H 	0.67990 0.37340 0.29240 0.00100
C 	C 	0.48730 0.47850 0.40550 0.19300
O 	O 	0.25760 0.86580 0.31110 -0.45200
O 	O 	0.28840 0.94140 0.38325 -0.34000
N 	N 	0.48670 0.00430 0.15000 -0.25300
H 	H 	0.50350 0.04200 0.16230 0.16300
N 	N 	0.56720 0.01230 0.07410 -0.17800
C 	C 	0.29370 0.91370 0.32890 0.36900
C 	C 	0.34350 0.93620 0.28100 -0.18900
C 	C 	0.38510 0.98680 0.29570 0.12100
H 	H 	0.38210 0.00710 0.33740 -0.00800
C 	C 	0.43090 0.00910 0.25190 -0.22400
H 	H 	0.45860 0.04460 0.26350 0.10900
C 	C 	0.43700 0.97990 0.19060 0.20500
C 	C 	0.39480 0.92810 0.17480 -0.22000
H 	H 	0.39790 0.90710 0.13350 0.11800
C 	C 	0.34910 0.90790 0.21920 0.12200
H 	H 	0.32010 0.87340 0.20760 0.00200
C 	C 	0.51270 0.97850 0.09450 0.19300
O 	O 	0.75760 0.63420 0.68890 -0.45200
O 	O 	0.78840 0.55860 0.61675 -0.34000
N 	N 	0.98670 0.49570 0.85000 -0.25400
H 	H 	0.00350 0.45800 0.83770 0.16300
N 	N 	0.06720 0.48770 0.92590 -0.17900
C 	C 	0.79370 0.58630 0.67110 0.37000
C 	C 	0.84350 0.56380 0.71900 -0.19000
C 	C 	0.88510 0.51320 0.70430 0.12300
H 	H 	0.88210 0.49290 0.66260 -0.00900
C 	C 	0.93090 0.49090 0.74810 -0.22600
H 	H 	0.95860 0.45540 0.73650 0.11000
C 	C 	0.93700 0.52010 0.80940 0.20600
C 	C 	0.89480 0.57190 0.82520 -0.22100
H 	H 	0.89790 0.59290 0.86650 0.11800
C 	C 	0.84910 0.59210 0.78080 0.12300
H 	H 	0.82010 0.62660 0.79240 0.00100
C 	C 	0.01270 0.52150 0.90550 0.19300
O 	O 	0.81110 0.24240 0.13420 -0.45200
O 	O 	0.88325 0.21160 0.05860 -0.34000
N 	N 	0.65000 0.01330 0.99570 -0.25400
H 	H 	0.66230 0.99650 0.95800 0.16300
N 	N 	0.57410 0.93280 0.98770 -0.17900
C 	C 	0.82890 0.20630 0.08630 0.37000
C 	C 	0.78100 0.15650 0.06380 -0.19100
C 	C 	0.79570 0.11490 0.01320 0.12500
H 	H 	0.83740 0.11790 0.99290 -0.01000
C 	C 	0.75190 0.06910 0.99090 -0.22800
H 	H 	0.76350 0.04140 0.95540 0.11100
C 	C 	0.69060 0.06300 0.02010 0.20700
C 	C 	0.67480 0.10520 0.07190 -0.22200
H 	H 	0.63350 0.10210 0.09290 0.11800
C 	C 	0.71920 0.15090 0.09210 0.12400
H 	H 	0.70760 0.17990 0.12660 0.00100
C 	C 	0.59450 0.98730 0.02150 0.19300
O 	O 	0.18890 0.74240 0.36580 -0.45200
O 	O 	0.11675 0.71160 0.44140 -0.34000
N 	N 	0.35000 0.51330 0.50430 -0.25400
H 	H 	0.33770 0.49650 0.54200 0.16300
N 	N 	0.42590 0.43280 0.51230 -0.17900
C 	C 	0.17110 0.70630 0.41370 0.37000
C 	C 	0.21900 0.65650 0.43620 -0.19000
C 	C 	0.20430 0.61490 0.48680 0.12400
H 	H 	0.16260 0.61790 0.50710 -0.00900
C 	C 	0.24810 0.56910 0.50910 -0.22600
H 	H 	0.23650 0.54140 0.54460 0.11000
C 	C 	0.30940 0.56300 0.47990 0.20600
C 	C 	0.32520 0.60520 0.42810 -0.22100
H 	H 	0.36650 0.60210 0.40710 0.11800
C 	C 	0.28080 0.65090 0.40790 0.12300
H 	H 	0.29240 0.67990 0.37340 0.00100
C 	C 	0.40550 0.48730 0.47850 0.19300
O 	O 	0.31110 0.25760 0.86580 -0.45200
O 	O 	0.38325 0.28840 0.94140 -0.34000
N 	N 	0.15000 0.48670 0.00430 -0.25300
H 	H 	0.16230 0.50350 0.04200 0.16300
N 	N 	0.07410 0.56720 0.01230 -0.17800
C 	C 	0.32890 0.29370 0.91370 0.36900
C 	C 	0.28100 0.34350 0.93620 -0.18900
C 	C 	0.29570 0.38510 0.98680 0.12100
H 	H 	0.33740 0.38210 0.00710 -0.00800
C 	C 	0.25190 0.43090 0.00910 -0.22400
H 	H 	0.26350 0.45860 0.04460 0.10900
C 	C 	0.19060 0.43700 0.97990 0.20500
C 	C 	0.17480 0.39480 0.92810 -0.22000
H 	H 	0.13350 0.39790 0.90710 0.11800
C 	C 	0.21920 0.34910 0.90790 0.12200
H 	H 	0.20760 0.32010 0.87340 0.00200
C 	C 	0.09450 0.51270 0.97850 0.19300
O 	O 	0.68890 0.75760 0.63420 -0.45200
O 	O 	0.61675 0.78840 0.55860 -0.34000
N 	N 	0.85000 0.98670 0.49570 -0.25400
H 	H 	0.83770 0.00350 0.45800 0.16300
N 	N 	0.92590 0.06720 0.48770 -0.17900
C 	C 	0.67110 0.79370 0.58630 0.37000
C 	C 	0.71900 0.84350 0.56380 -0.19000
C 	C 	0.70430 0.88510 0.51320 0.12300
H 	H 	0.66260 0.88210 0.49290 -0.00900
C 	C 	0.74810 0.93090 0.49090 -0.22600
H 	H 	0.73650 0.95860 0.45540 0.11000
C 	C 	0.80940 0.93700 0.52010 0.20600
C 	C 	0.82520 0.89480 0.57190 -0.22100
H 	H 	0.86650 0.89790 0.59290 0.11800
C 	C 	0.78080 0.84910 0.59210 0.12300
H 	H 	0.79240 0.82010 0.62660 0.00100
C 	C 	0.90550 0.01270 0.52150 0.19300
Tb	Tb	0.15466 0.84534 0.34534 1.39700
Tb	Tb	0.34534 0.15466 0.84534 1.39700
Tb	Tb	0.84534 0.34534 0.15466 1.39700
Tb	Tb	0.65466 0.65466 0.65466 1.39700
O 	O 	0.23605 0.61931 0.18038 -0.49900
O 	O 	0.20984 0.53500 0.11568 -0.33500
N 	N 	0.00920 0.48960 0.35070 -0.25300
H 	H 	0.99100 0.45210 0.33980 0.15600
N 	N 	0.01260 0.57090 0.43060 -0.17900
C 	C 	0.20270 0.56780 0.16670 0.39900
C 	C 	0.15360 0.54790 0.21660 -0.19600
C 	C 	0.14860 0.57960 0.27550 0.12600
H 	H 	0.17790 0.61450 0.28500 -0.00200
C 	C 	0.10150 0.56190 0.32200 -0.22100
H 	H 	0.09870 0.58460 0.36240 0.12100
C 	C 	0.05900 0.51070 0.30820 0.20600
C 	C 	0.06440 0.47780 0.24900 -0.22400
H 	H 	0.03580 0.44240 0.23960 0.10000
C 	C 	0.11080 0.49600 0.20370 0.11900
H 	H 	0.11390 0.47310 0.16330 -0.00900
C 	C 	0.98480 0.51720 0.40560 0.19600
O 	O 	0.26395 0.38069 0.68038 -0.49900
O 	O 	0.29016 0.46500 0.61568 -0.33500
N 	N 	0.49080 0.51040 0.85070 -0.25300
H 	H 	0.50900 0.54790 0.83980 0.15700
N 	N 	0.48740 0.42910 0.93060 -0.17900
C 	C 	0.29730 0.43220 0.66670 0.39900
C 	C 	0.34640 0.45210 0.71660 -0.19600
C 	C 	0.35140 0.42040 0.77550 0.12600
H 	H 	0.32210 0.38550 0.78500 -0.00200
C 	C 	0.39850 0.43810 0.82200 -0.22100
H 	H 	0.40130 0.41540 0.86240 0.12100
C 	C 	0.44100 0.48930 0.80820 0.20600
C 	C 	0.43560 0.52220 0.74900 -0.22400
H 	H 	0.46420 0.55760 0.73960 0.10000
C 	C 	0.38920 0.50400 0.70370 0.11900
H 	H 	0.38610 0.52690 0.66330 -0.00900
C 	C 	0.51520 0.48280 0.90560 0.19700
O 	O 	0.76395 0.11931 0.31962 -0.49900
O 	O 	0.79016 0.03500 0.38432 -0.33500
N 	N 	0.99080 0.98960 0.14930 -0.25400
H 	H 	0.00900 0.95210 0.16020 0.15700
N 	N 	0.98740 0.07090 0.06940 -0.18000
C 	C 	0.79730 0.06780 0.33330 0.39900
C 	C 	0.84640 0.04790 0.28340 -0.19600
C 	C 	0.85140 0.07960 0.22450 0.12600
H 	H 	0.82210 0.11450 0.21500 -0.00200
C 	C 	0.89850 0.06190 0.17800 -0.22100
H 	H 	0.90130 0.08460 0.13760 0.12100
C 	C 	0.94100 0.01070 0.19180 0.20700
C 	C 	0.93560 0.97780 0.25100 -0.22500
H 	H 	0.96420 0.94240 0.26040 0.10000
C 	C 	0.88920 0.99600 0.29630 0.11900
H 	H 	0.88610 0.97310 0.33670 -0.01000
C 	C 	0.01520 0.01720 0.09440 0.19800
O 	O 	0.73605 0.88069 0.81962 -0.49900
O 	O 	0.70984 0.96500 0.88432 -0.33500
N 	N 	0.50920 0.01040 0.64930 -0.25300
H 	H 	0.49100 0.04790 0.66020 0.15700
N 	N 	0.51260 0.92910 0.56940 -0.17900
C 	C 	0.70270 0.93220 0.83330 0.39900
C 	C 	0.65360 0.95210 0.78340 -0.19600
C 	C 	0.64860 0.92040 0.72450 0.12600
H 	H 	0.67790 0.88550 0.71500 -0.00200
C 	C 	0.60150 0.93810 0.67800 -0.22100
H 	H 	0.59870 0.91540 0.63760 0.12100
C 	C 	0.55900 0.98930 0.69180 0.20600
C 	C 	0.56440 0.02220 0.75100 -0.22400
H 	H 	0.53580 0.05760 0.76040 0.10000
C 	C 	0.61080 0.00400 0.79630 0.11900
H 	H 	0.61390 0.02690 0.83670 -0.00900
C 	C 	0.48480 0.98280 0.59440 0.19700
O 	O 	0.18038 0.23605 0.61931 -0.49900
O 	O 	0.11568 0.20984 0.53500 -0.33500
N 	N 	0.35070 0.00920 0.48960 -0.25300
H 	H 	0.33980 0.99100 0.45210 0.15600
N 	N 	0.43060 0.01260 0.57090 -0.17900
C 	C 	0.16670 0.20270 0.56780 0.39900
C 	C 	0.21660 0.15360 0.54790 -0.19600
C 	C 	0.27550 0.14860 0.57960 0.12600
H 	H 	0.28500 0.17790 0.61450 -0.00200
C 	C 	0.32200 0.10150 0.56190 -0.22100
H 	H 	0.36240 0.09870 0.58460 0.12100
C 	C 	0.30820 0.05900 0.51070 0.20600
C 	C 	0.24900 0.06440 0.47780 -0.22400
H 	H 	0.23960 0.03580 0.44240 0.10000
C 	C 	0.20370 0.11080 0.49600 0.11900
H 	H 	0.16330 0.11390 0.47310 -0.00900
C 	C 	0.40560 0.98480 0.51720 0.19600
O 	O 	0.68038 0.26395 0.38069 -0.49900
O 	O 	0.61568 0.29016 0.46500 -0.33500
N 	N 	0.85070 0.49080 0.51040 -0.25300
H 	H 	0.83980 0.50900 0.54790 0.15700
N 	N 	0.93060 0.48740 0.42910 -0.17900
C 	C 	0.66670 0.29730 0.43220 0.39900
C 	C 	0.71660 0.34640 0.45210 -0.19600
C 	C 	0.77550 0.35140 0.42040 0.12600
H 	H 	0.78500 0.32210 0.38550 -0.00200
C 	C 	0.82200 0.39850 0.43810 -0.22100
H 	H 	0.86240 0.40130 0.41540 0.12100
C 	C 	0.80820 0.44100 0.48930 0.20600
C 	C 	0.74900 0.43560 0.52220 -0.22400
H 	H 	0.73960 0.46420 0.55760 0.10000
C 	C 	0.70370 0.38920 0.50400 0.11900
H 	H 	0.66330 0.38610 0.52690 -0.00900
C 	C 	0.90560 0.51520 0.48280 0.19700
O 	O 	0.31962 0.76395 0.11931 -0.49900
O 	O 	0.38432 0.79016 0.03500 -0.33500
N 	N 	0.14930 0.99080 0.98960 -0.25400
H 	H 	0.16020 0.00900 0.95210 0.15700
N 	N 	0.06940 0.98740 0.07090 -0.18000
C 	C 	0.33330 0.79730 0.06780 0.39900
C 	C 	0.28340 0.84640 0.04790 -0.19600
C 	C 	0.22450 0.85140 0.07960 0.12600
H 	H 	0.21500 0.82210 0.11450 -0.00200
C 	C 	0.17800 0.89850 0.06190 -0.22100
H 	H 	0.13760 0.90130 0.08460 0.12100
C 	C 	0.19180 0.94100 0.01070 0.20700
C 	C 	0.25100 0.93560 0.97780 -0.22500
H 	H 	0.26040 0.96420 0.94240 0.10000
C 	C 	0.29630 0.88920 0.99600 0.11900
H 	H 	0.33670 0.88610 0.97310 -0.01000
C 	C 	0.09440 0.01520 0.01720 0.19800
O 	O 	0.81962 0.73605 0.88069 -0.49900
O 	O 	0.88432 0.70984 0.96500 -0.33500
N 	N 	0.64930 0.50920 0.01040 -0.25300
H 	H 	0.66020 0.49100 0.04790 0.15700
N 	N 	0.56940 0.51260 0.92910 -0.17900
C 	C 	0.83330 0.70270 0.93220 0.39900
C 	C 	0.78340 0.65360 0.95210 -0.19600
C 	C 	0.72450 0.64860 0.92040 0.12600
H 	H 	0.71500 0.67790 0.88550 -0.00200
C 	C 	0.67800 0.60150 0.93810 -0.22100
H 	H 	0.63760 0.59870 0.91540 0.12100
C 	C 	0.69180 0.55900 0.98930 0.20600
C 	C 	0.75100 0.56440 0.02220 -0.22400
H 	H 	0.76040 0.53580 0.05760 0.10000
C 	C 	0.79630 0.61080 0.00400 0.11900
H 	H 	0.83670 0.61390 0.02690 -0.00900
C 	C 	0.59440 0.48480 0.98280 0.19700
O 	O 	0.61931 0.18038 0.23605 -0.49900
O 	O 	0.53500 0.11568 0.20984 -0.33500
N 	N 	0.48960 0.35070 0.00920 -0.25300
H 	H 	0.45210 0.33980 0.99100 0.15600
N 	N 	0.57090 0.43060 0.01260 -0.17900
C 	C 	0.56780 0.16670 0.20270 0.39900
C 	C 	0.54790 0.21660 0.15360 -0.19600
C 	C 	0.57960 0.27550 0.14860 0.12600
H 	H 	0.61450 0.28500 0.17790 -0.00200
C 	C 	0.56190 0.32200 0.10150 -0.22100
H 	H 	0.58460 0.36240 0.09870 0.12100
C 	C 	0.51070 0.30820 0.05900 0.20600
C 	C 	0.47780 0.24900 0.06440 -0.22400
H 	H 	0.44240 0.23960 0.03580 0.10000
C 	C 	0.49600 0.20370 0.11080 0.11900
H 	H 	0.47310 0.16330 0.11390 -0.00900
C 	C 	0.51720 0.40560 0.98480 0.19600
O 	O 	0.38069 0.68038 0.26395 -0.49900
O 	O 	0.46500 0.61568 0.29016 -0.33500
N 	N 	0.51040 0.85070 0.49080 -0.25300
H 	H 	0.54790 0.83980 0.50900 0.15700
N 	N 	0.42910 0.93060 0.48740 -0.17900
C 	C 	0.43220 0.66670 0.29730 0.39900
C 	C 	0.45210 0.71660 0.34640 -0.19600
C 	C 	0.42040 0.77550 0.35140 0.12600
H 	H 	0.38550 0.78500 0.32210 -0.00200
C 	C 	0.43810 0.82200 0.39850 -0.22100
H 	H 	0.41540 0.86240 0.40130 0.12100
C 	C 	0.48930 0.80820 0.44100 0.20600
C 	C 	0.52220 0.74900 0.43560 -0.22400
H 	H 	0.55760 0.73960 0.46420 0.10000
C 	C 	0.50400 0.70370 0.38920 0.11900
H 	H 	0.52690 0.66330 0.38610 -0.00900
C 	C 	0.48280 0.90560 0.51520 0.19700
O 	O 	0.11931 0.31962 0.76395 -0.49900
O 	O 	0.03500 0.38432 0.79016 -0.33500
N 	N 	0.98960 0.14930 0.99080 -0.25400
H 	H 	0.95210 0.16020 0.00900 0.15700
N 	N 	0.07090 0.06940 0.98740 -0.18000
C 	C 	0.06780 0.33330 0.79730 0.39900
C 	C 	0.04790 0.28340 0.84640 -0.19600
C 	C 	0.07960 0.22450 0.85140 0.12600
H 	H 	0.11450 0.21500 0.82210 -0.00200
C 	C 	0.06190 0.17800 0.89850 -0.22100
H 	H 	0.08460 0.13760 0.90130 0.12100
C 	C 	0.01070 0.19180 0.94100 0.20700
C 	C 	0.97780 0.25100 0.93560 -0.22500
H 	H 	0.94240 0.26040 0.96420 0.10000
C 	C 	0.99600 0.29630 0.88920 0.11900
H 	H 	0.97310 0.33670 0.88610 -0.01000
C 	C 	0.01720 0.09440 0.01520 0.19800
O 	O 	0.88069 0.81962 0.73605 -0.49900
O 	O 	0.96500 0.88432 0.70984 -0.33500
N 	N 	0.01040 0.64930 0.50920 -0.25300
H 	H 	0.04790 0.66020 0.49100 0.15700
N 	N 	0.92910 0.56940 0.51260 -0.17900
C 	C 	0.93220 0.83330 0.70270 0.39900
C 	C 	0.95210 0.78340 0.65360 -0.19600
C 	C 	0.92040 0.72450 0.64860 0.12600
H 	H 	0.88550 0.71500 0.67790 -0.00200
C 	C 	0.93810 0.67800 0.60150 -0.22100
H 	H 	0.91540 0.63760 0.59870 0.12100
C 	C 	0.98930 0.69180 0.55900 0.20600
C 	C 	0.02220 0.75100 0.56440 -0.22400
H 	H 	0.05760 0.76040 0.53580 0.10000
C 	C 	0.00400 0.79630 0.61080 0.11900
H 	H 	0.02690 0.83670 0.61390 -0.00900
C 	C 	0.98280 0.59440 0.48480 0.19700
Tb	Tb	0.33322 0.66678 0.16678 1.47700
Tb	Tb	0.16678 0.33322 0.66678 1.47700
Tb	Tb	0.66678 0.16678 0.33322 1.47700
Tb	Tb	0.83322 0.83322 0.83322 1.47600
