data_crystal

_cell_length_a 20.38640
_cell_length_b 20.38640
_cell_length_c 20.38640
_cell_angle_alpha 90.00000
_cell_angle_beta  90.00000
_cell_angle_gamma 90.00000

_symmetry_space_group_name_	'P 1'
_symmetry_space_group_name_H-M	'P 1'

loop_
_symmetry_equiv_pos_as_xyz
  x,y,z

loop_
_atom_site_label
_atom_site_type_symbol
_atom_site_fract_x
_atom_site_fract_y
_atom_site_fract_z
_atom_site_charge
O 	O 	0.13460 0.81230 0.24320 -0.44000
O 	O 	0.05850 0.88390 0.21190 -0.33600
N 	N 	0.99610 0.65090 0.01280 -0.25400
H 	H 	0.95860 0.66350 0.99570 0.16500
N 	N 	0.98830 0.57460 0.93250 -0.18000
C 	C 	0.08680 0.83000 0.20670 0.37200
C 	C 	0.06450 0.78180 0.15660 -0.18900
C 	C 	0.01300 0.79680 0.11500 0.12900
H 	H 	0.99170 0.83810 0.11870 -0.01000
C 	C 	0.99240 0.75310 0.06880 -0.23400
H 	H 	0.95780 0.76500 0.04000 0.11500
C 	C 	0.02080 0.69170 0.06310 0.21400
C 	C 	0.07170 0.67540 0.10530 -0.22400
H 	H 	0.09200 0.63360 0.10220 0.12000
C 	C 	0.09260 0.71970 0.15170 0.12400
H 	H 	0.12690 0.70780 0.18100 0.00300
C 	C 	0.02180 0.59490 0.98690 0.19600
O 	O 	0.36540 0.18770 0.74320 -0.44100
O 	O 	0.44150 0.11610 0.71190 -0.33700
N 	N 	0.50390 0.34910 0.51280 -0.25500
H 	H 	0.54140 0.33650 0.49570 0.16400
N 	N 	0.51170 0.42540 0.43250 -0.18000
C 	C 	0.41320 0.17000 0.70670 0.37200
C 	C 	0.43550 0.21820 0.65660 -0.18800
C 	C 	0.48700 0.20320 0.61500 0.12800
H 	H 	0.50830 0.16190 0.61870 -0.01000
C 	C 	0.50760 0.24690 0.56880 -0.23200
H 	H 	0.54220 0.23500 0.54000 0.11400
C 	C 	0.47920 0.30830 0.56310 0.21200
C 	C 	0.42830 0.32460 0.60530 -0.22300
H 	H 	0.40800 0.36640 0.60220 0.12000
C 	C 	0.40740 0.28030 0.65170 0.12300
H 	H 	0.37310 0.29220 0.68100 0.00300
C 	C 	0.47820 0.40510 0.48690 0.19600
O 	O 	0.86540 0.31230 0.25680 -0.44100
O 	O 	0.94150 0.38390 0.28810 -0.33700
N 	N 	0.00390 0.15090 0.48720 -0.25400
H 	H 	0.04140 0.16350 0.50430 0.16400
N 	N 	0.01170 0.07460 0.56750 -0.17900
C 	C 	0.91320 0.33000 0.29330 0.37200
C 	C 	0.93550 0.28180 0.34340 -0.18700
C 	C 	0.98700 0.29680 0.38500 0.12500
H 	H 	0.00830 0.33810 0.38130 -0.00900
C 	C 	0.00760 0.25310 0.43120 -0.23000
H 	H 	0.04220 0.26500 0.46000 0.11400
C 	C 	0.97920 0.19170 0.43690 0.21100
C 	C 	0.92830 0.17540 0.39470 -0.22200
H 	H 	0.90800 0.13360 0.39780 0.11900
C 	C 	0.90740 0.21970 0.34830 0.12200
H 	H 	0.87310 0.20780 0.31900 0.00300
C 	C 	0.97820 0.09490 0.51310 0.19600
O 	O 	0.63460 0.68770 0.75680 -0.44100
O 	O 	0.55850 0.61610 0.78810 -0.33700
N 	N 	0.49610 0.84910 0.98720 -0.25500
H 	H 	0.45860 0.83650 0.00430 0.16400
N 	N 	0.48830 0.92540 0.06750 -0.18000
C 	C 	0.58680 0.67000 0.79330 0.37200
C 	C 	0.56450 0.71820 0.84340 -0.18800
C 	C 	0.51300 0.70320 0.88500 0.12800
H 	H 	0.49170 0.66190 0.88130 -0.01000
C 	C 	0.49240 0.74690 0.93120 -0.23200
H 	H 	0.45780 0.73500 0.96000 0.11400
C 	C 	0.52080 0.80830 0.93690 0.21200
C 	C 	0.57170 0.82460 0.89470 -0.22300
H 	H 	0.59200 0.86640 0.89780 0.12000
C 	C 	0.59260 0.78030 0.84830 0.12300
H 	H 	0.62690 0.79220 0.81900 0.00300
C 	C 	0.52180 0.90510 0.01310 0.19600
O 	O 	0.24320 0.13460 0.81230 -0.44100
O 	O 	0.21190 0.05850 0.88390 -0.33700
N 	N 	0.01280 0.99610 0.65090 -0.25500
H 	H 	0.99570 0.95860 0.66350 0.16400
N 	N 	0.93250 0.98830 0.57460 -0.18000
C 	C 	0.20670 0.08680 0.83000 0.37200
C 	C 	0.15660 0.06450 0.78180 -0.18900
C 	C 	0.11500 0.01300 0.79680 0.12900
H 	H 	0.11870 0.99170 0.83810 -0.01000
C 	C 	0.06880 0.99240 0.75310 -0.23400
H 	H 	0.04000 0.95780 0.76500 0.11500
C 	C 	0.06310 0.02080 0.69170 0.21400
C 	C 	0.10530 0.07170 0.67540 -0.22400
H 	H 	0.10220 0.09200 0.63360 0.12000
C 	C 	0.15170 0.09260 0.71970 0.12400
H 	H 	0.18100 0.12690 0.70780 0.00300
C 	C 	0.98690 0.02180 0.59490 0.19600
O 	O 	0.74320 0.36540 0.18770 -0.44100
O 	O 	0.71190 0.44150 0.11610 -0.33700
N 	N 	0.51280 0.50390 0.34910 -0.25500
H 	H 	0.49570 0.54140 0.33650 0.16400
N 	N 	0.43250 0.51170 0.42540 -0.18000
C 	C 	0.70670 0.41320 0.17000 0.37200
C 	C 	0.65660 0.43550 0.21820 -0.18800
C 	C 	0.61500 0.48700 0.20320 0.12800
H 	H 	0.61870 0.50830 0.16190 -0.01000
C 	C 	0.56880 0.50760 0.24690 -0.23200
H 	H 	0.54000 0.54220 0.23500 0.11400
C 	C 	0.56310 0.47920 0.30830 0.21200
C 	C 	0.60530 0.42830 0.32460 -0.22300
H 	H 	0.60220 0.40800 0.36640 0.12000
C 	C 	0.65170 0.40740 0.28030 0.12300
H 	H 	0.68100 0.37310 0.29220 0.00300
C 	C 	0.48690 0.47820 0.40510 0.19600
O 	O 	0.25680 0.86540 0.31230 -0.44100
O 	O 	0.28810 0.94150 0.38390 -0.33700
N 	N 	0.48720 0.00390 0.15090 -0.25400
H 	H 	0.50430 0.04140 0.16350 0.16400
N 	N 	0.56750 0.01170 0.07460 -0.17900
C 	C 	0.29330 0.91320 0.33000 0.37200
C 	C 	0.34340 0.93550 0.28180 -0.18700
C 	C 	0.38500 0.98700 0.29680 0.12500
H 	H 	0.38130 0.00830 0.33810 -0.00900
C 	C 	0.43120 0.00760 0.25310 -0.23000
H 	H 	0.46000 0.04220 0.26500 0.11400
C 	C 	0.43690 0.97920 0.19170 0.21100
C 	C 	0.39470 0.92830 0.17540 -0.22200
H 	H 	0.39780 0.90800 0.13360 0.11900
C 	C 	0.34830 0.90740 0.21970 0.12200
H 	H 	0.31900 0.87310 0.20780 0.00300
C 	C 	0.51310 0.97820 0.09490 0.19600
O 	O 	0.75680 0.63460 0.68770 -0.44100
O 	O 	0.78810 0.55850 0.61610 -0.33700
N 	N 	0.98720 0.49610 0.84910 -0.25500
H 	H 	0.00430 0.45860 0.83650 0.16400
N 	N 	0.06750 0.48830 0.92540 -0.18000
C 	C 	0.79330 0.58680 0.67000 0.37200
C 	C 	0.84340 0.56450 0.71820 -0.18800
C 	C 	0.88500 0.51300 0.70320 0.12800
H 	H 	0.88130 0.49170 0.66190 -0.01000
C 	C 	0.93120 0.49240 0.74690 -0.23200
H 	H 	0.96000 0.45780 0.73500 0.11400
C 	C 	0.93690 0.52080 0.80830 0.21200
C 	C 	0.89470 0.57170 0.82460 -0.22300
H 	H 	0.89780 0.59200 0.86640 0.12000
C 	C 	0.84830 0.59260 0.78030 0.12300
H 	H 	0.81900 0.62690 0.79220 0.00300
C 	C 	0.01310 0.52180 0.90510 0.19600
O 	O 	0.81230 0.24320 0.13460 -0.44100
O 	O 	0.88390 0.21190 0.05850 -0.33700
N 	N 	0.65090 0.01280 0.99610 -0.25500
H 	H 	0.66350 0.99570 0.95860 0.16400
N 	N 	0.57460 0.93250 0.98830 -0.18000
C 	C 	0.83000 0.20670 0.08680 0.37200
C 	C 	0.78180 0.15660 0.06450 -0.18900
C 	C 	0.79680 0.11500 0.01300 0.12900
H 	H 	0.83810 0.11870 0.99170 -0.01000
C 	C 	0.75310 0.06880 0.99240 -0.23400
H 	H 	0.76500 0.04000 0.95780 0.11500
C 	C 	0.69170 0.06310 0.02080 0.21400
C 	C 	0.67540 0.10530 0.07170 -0.22400
H 	H 	0.63360 0.10220 0.09200 0.12000
C 	C 	0.71970 0.15170 0.09260 0.12400
H 	H 	0.70780 0.18100 0.12690 0.00300
C 	C 	0.59490 0.98690 0.02180 0.19600
O 	O 	0.18770 0.74320 0.36540 -0.44100
O 	O 	0.11610 0.71190 0.44150 -0.33700
N 	N 	0.34910 0.51280 0.50390 -0.25500
H 	H 	0.33650 0.49570 0.54140 0.16400
N 	N 	0.42540 0.43250 0.51170 -0.18000
C 	C 	0.17000 0.70670 0.41320 0.37200
C 	C 	0.21820 0.65660 0.43550 -0.18800
C 	C 	0.20320 0.61500 0.48700 0.12800
H 	H 	0.16190 0.61870 0.50830 -0.01000
C 	C 	0.24690 0.56880 0.50760 -0.23200
H 	H 	0.23500 0.54000 0.54220 0.11400
C 	C 	0.30830 0.56310 0.47920 0.21200
C 	C 	0.32460 0.60530 0.42830 -0.22300
H 	H 	0.36640 0.60220 0.40800 0.12000
C 	C 	0.28030 0.65170 0.40740 0.12300
H 	H 	0.29220 0.68100 0.37310 0.00300
C 	C 	0.40510 0.48690 0.47820 0.19600
O 	O 	0.31230 0.25680 0.86540 -0.44100
O 	O 	0.38390 0.28810 0.94150 -0.33700
N 	N 	0.15090 0.48720 0.00390 -0.25400
H 	H 	0.16350 0.50430 0.04140 0.16400
N 	N 	0.07460 0.56750 0.01170 -0.17900
C 	C 	0.33000 0.29330 0.91320 0.37200
C 	C 	0.28180 0.34340 0.93550 -0.18700
C 	C 	0.29680 0.38500 0.98700 0.12500
H 	H 	0.33810 0.38130 0.00830 -0.00900
C 	C 	0.25310 0.43120 0.00760 -0.23000
H 	H 	0.26500 0.46000 0.04220 0.11400
C 	C 	0.19170 0.43690 0.97920 0.21100
C 	C 	0.17540 0.39470 0.92830 -0.22200
H 	H 	0.13360 0.39780 0.90800 0.11900
C 	C 	0.21970 0.34830 0.90740 0.12200
H 	H 	0.20780 0.31900 0.87310 0.00300
C 	C 	0.09490 0.51310 0.97820 0.19600
O 	O 	0.68770 0.75680 0.63460 -0.44100
O 	O 	0.61610 0.78810 0.55850 -0.33700
N 	N 	0.84910 0.98720 0.49610 -0.25500
H 	H 	0.83650 0.00430 0.45860 0.16400
N 	N 	0.92540 0.06750 0.48830 -0.18000
C 	C 	0.67000 0.79330 0.58680 0.37200
C 	C 	0.71820 0.84340 0.56450 -0.18800
C 	C 	0.70320 0.88500 0.51300 0.12800
H 	H 	0.66190 0.88130 0.49170 -0.01000
C 	C 	0.74690 0.93120 0.49240 -0.23200
H 	H 	0.73500 0.96000 0.45780 0.11400
C 	C 	0.80830 0.93690 0.52080 0.21200
C 	C 	0.82460 0.89470 0.57170 -0.22300
H 	H 	0.86640 0.89780 0.59200 0.12000
C 	C 	0.78030 0.84830 0.59260 0.12300
H 	H 	0.79220 0.81900 0.62690 0.00300
C 	C 	0.90510 0.01310 0.52180 0.19600
Er	Er	0.15499 0.84501 0.34501 1.30300
Er	Er	0.34501 0.15499 0.84501 1.30300
Er	Er	0.84501 0.34501 0.15499 1.30300
Er	Er	0.65499 0.65499 0.65499 1.30300
O 	O 	0.23770 0.61900 0.18050 -0.48900
O 	O 	0.21170 0.53560 0.11530 -0.33300
N 	N 	0.00920 0.49000 0.35040 -0.25800
H 	H 	0.99130 0.45220 0.33980 0.15900
N 	N 	0.01180 0.57110 0.43070 -0.18200
C 	C 	0.20420 0.56830 0.16660 0.40500
C 	C 	0.15460 0.54860 0.21640 -0.19700
C 	C 	0.14920 0.58030 0.27540 0.12800
H 	H 	0.17810 0.61560 0.28510 -0.00000
C 	C 	0.10210 0.56210 0.32160 -0.21800
H 	H 	0.09950 0.58470 0.36230 0.12000
C 	C 	0.05860 0.51050 0.30830 0.21000
C 	C 	0.06490 0.47890 0.24830 -0.22800
H 	H 	0.03600 0.44370 0.23840 0.10300
C 	C 	0.11080 0.49650 0.20300 0.12400
H 	H 	0.11340 0.47380 0.16250 -0.01000
C 	C 	0.98390 0.51780 0.40480 0.20500
O 	O 	0.26230 0.38100 0.68050 -0.48900
O 	O 	0.28830 0.46440 0.61530 -0.33300
N 	N 	0.49080 0.51000 0.85040 -0.25800
H 	H 	0.50870 0.54780 0.83980 0.15900
N 	N 	0.48820 0.42890 0.93070 -0.18200
C 	C 	0.29580 0.43170 0.66660 0.40500
C 	C 	0.34540 0.45140 0.71640 -0.19700
C 	C 	0.35080 0.41970 0.77540 0.12800
H 	H 	0.32190 0.38440 0.78510 -0.00000
C 	C 	0.39790 0.43790 0.82160 -0.21800
H 	H 	0.40050 0.41530 0.86230 0.12000
C 	C 	0.44140 0.48950 0.80830 0.21000
C 	C 	0.43510 0.52110 0.74830 -0.22800
H 	H 	0.46400 0.55630 0.73840 0.10300
C 	C 	0.38920 0.50350 0.70300 0.12400
H 	H 	0.38660 0.52620 0.66250 -0.01000
C 	C 	0.51610 0.48220 0.90480 0.20500
O 	O 	0.76230 0.11900 0.31950 -0.48900
O 	O 	0.78830 0.03560 0.38470 -0.33300
N 	N 	0.99080 0.99000 0.14960 -0.25900
H 	H 	0.00870 0.95220 0.16020 0.15900
N 	N 	0.98820 0.07110 0.06930 -0.18300
C 	C 	0.79580 0.06830 0.33340 0.40500
C 	C 	0.84540 0.04860 0.28360 -0.19700
C 	C 	0.85080 0.08030 0.22460 0.12800
H 	H 	0.82190 0.11560 0.21490 -0.00000
C 	C 	0.89790 0.06210 0.17840 -0.21900
H 	H 	0.90050 0.08470 0.13770 0.12000
C 	C 	0.94140 0.01050 0.19170 0.21100
C 	C 	0.93510 0.97890 0.25170 -0.22800
H 	H 	0.96400 0.94370 0.26160 0.10300
C 	C 	0.88920 0.99650 0.29700 0.12300
H 	H 	0.88660 0.97380 0.33750 -0.01000
C 	C 	0.01610 0.01780 0.09520 0.20700
O 	O 	0.73770 0.88100 0.81950 -0.48900
O 	O 	0.71170 0.96440 0.88470 -0.33300
N 	N 	0.50920 0.01000 0.64960 -0.25800
H 	H 	0.49130 0.04780 0.66020 0.15900
N 	N 	0.51180 0.92890 0.56930 -0.18200
C 	C 	0.70420 0.93170 0.83340 0.40500
C 	C 	0.65460 0.95140 0.78360 -0.19700
C 	C 	0.64920 0.91970 0.72460 0.12800
H 	H 	0.67810 0.88440 0.71490 -0.00000
C 	C 	0.60210 0.93790 0.67840 -0.21800
H 	H 	0.59950 0.91530 0.63770 0.12000
C 	C 	0.55860 0.98950 0.69170 0.21000
C 	C 	0.56490 0.02110 0.75170 -0.22800
H 	H 	0.53600 0.05630 0.76160 0.10300
C 	C 	0.61080 0.00350 0.79700 0.12300
H 	H 	0.61340 0.02620 0.83750 -0.01000
C 	C 	0.48390 0.98220 0.59520 0.20500
O 	O 	0.18050 0.23770 0.61900 -0.48900
O 	O 	0.11530 0.21170 0.53560 -0.33300
N 	N 	0.35040 0.00920 0.49000 -0.25800
H 	H 	0.33980 0.99130 0.45220 0.15900
N 	N 	0.43070 0.01180 0.57110 -0.18200
C 	C 	0.16660 0.20420 0.56830 0.40500
C 	C 	0.21640 0.15460 0.54860 -0.19700
C 	C 	0.27540 0.14920 0.58030 0.12800
H 	H 	0.28510 0.17810 0.61560 -0.00000
C 	C 	0.32160 0.10210 0.56210 -0.21800
H 	H 	0.36230 0.09950 0.58470 0.12000
C 	C 	0.30830 0.05860 0.51050 0.21000
C 	C 	0.24830 0.06490 0.47890 -0.22800
H 	H 	0.23840 0.03600 0.44370 0.10300
C 	C 	0.20300 0.11080 0.49650 0.12400
H 	H 	0.16250 0.11340 0.47380 -0.01000
C 	C 	0.40480 0.98390 0.51780 0.20500
O 	O 	0.68050 0.26230 0.38100 -0.48900
O 	O 	0.61530 0.28830 0.46440 -0.33300
N 	N 	0.85040 0.49080 0.51000 -0.25800
H 	H 	0.83980 0.50870 0.54780 0.15900
N 	N 	0.93070 0.48820 0.42890 -0.18200
C 	C 	0.66660 0.29580 0.43170 0.40500
C 	C 	0.71640 0.34540 0.45140 -0.19700
C 	C 	0.77540 0.35080 0.41970 0.12800
H 	H 	0.78510 0.32190 0.38440 -0.00000
C 	C 	0.82160 0.39790 0.43790 -0.21800
H 	H 	0.86230 0.40050 0.41530 0.12000
C 	C 	0.80830 0.44140 0.48950 0.21000
C 	C 	0.74830 0.43510 0.52110 -0.22800
H 	H 	0.73840 0.46400 0.55630 0.10300
C 	C 	0.70300 0.38920 0.50350 0.12400
H 	H 	0.66250 0.38660 0.52620 -0.01000
C 	C 	0.90480 0.51610 0.48220 0.20500
O 	O 	0.31950 0.76230 0.11900 -0.48900
O 	O 	0.38470 0.78830 0.03560 -0.33300
N 	N 	0.14960 0.99080 0.99000 -0.25900
H 	H 	0.16020 0.00870 0.95220 0.15900
N 	N 	0.06930 0.98820 0.07110 -0.18300
C 	C 	0.33340 0.79580 0.06830 0.40500
C 	C 	0.28360 0.84540 0.04860 -0.19700
C 	C 	0.22460 0.85080 0.08030 0.12800
H 	H 	0.21490 0.82190 0.11560 -0.00000
C 	C 	0.17840 0.89790 0.06210 -0.21900
H 	H 	0.13770 0.90050 0.08470 0.12000
C 	C 	0.19170 0.94140 0.01050 0.21100
C 	C 	0.25170 0.93510 0.97890 -0.22800
H 	H 	0.26160 0.96400 0.94370 0.10300
C 	C 	0.29700 0.88920 0.99650 0.12300
H 	H 	0.33750 0.88660 0.97380 -0.01000
C 	C 	0.09520 0.01610 0.01780 0.20700
O 	O 	0.81950 0.73770 0.88100 -0.48900
O 	O 	0.88470 0.71170 0.96440 -0.33300
N 	N 	0.64960 0.50920 0.01000 -0.25800
H 	H 	0.66020 0.49130 0.04780 0.15900
N 	N 	0.56930 0.51180 0.92890 -0.18200
C 	C 	0.83340 0.70420 0.93170 0.40500
C 	C 	0.78360 0.65460 0.95140 -0.19700
C 	C 	0.72460 0.64920 0.91970 0.12800
H 	H 	0.71490 0.67810 0.88440 -0.00000
C 	C 	0.67840 0.60210 0.93790 -0.21800
H 	H 	0.63770 0.59950 0.91530 0.12000
C 	C 	0.69170 0.55860 0.98950 0.21000
C 	C 	0.75170 0.56490 0.02110 -0.22800
H 	H 	0.76160 0.53600 0.05630 0.10300
C 	C 	0.79700 0.61080 0.00350 0.12300
H 	H 	0.83750 0.61340 0.02620 -0.01000
C 	C 	0.59520 0.48390 0.98220 0.20500
O 	O 	0.61900 0.18050 0.23770 -0.48900
O 	O 	0.53560 0.11530 0.21170 -0.33300
N 	N 	0.49000 0.35040 0.00920 -0.25800
H 	H 	0.45220 0.33980 0.99130 0.15900
N 	N 	0.57110 0.43070 0.01180 -0.18200
C 	C 	0.56830 0.16660 0.20420 0.40500
C 	C 	0.54860 0.21640 0.15460 -0.19700
C 	C 	0.58030 0.27540 0.14920 0.12800
H 	H 	0.61560 0.28510 0.17810 -0.00000
C 	C 	0.56210 0.32160 0.10210 -0.21800
H 	H 	0.58470 0.36230 0.09950 0.12000
C 	C 	0.51050 0.30830 0.05860 0.21000
C 	C 	0.47890 0.24830 0.06490 -0.22800
H 	H 	0.44370 0.23840 0.03600 0.10300
C 	C 	0.49650 0.20300 0.11080 0.12400
H 	H 	0.47380 0.16250 0.11340 -0.01000
C 	C 	0.51780 0.40480 0.98390 0.20500
O 	O 	0.38100 0.68050 0.26230 -0.48900
O 	O 	0.46440 0.61530 0.28830 -0.33300
N 	N 	0.51000 0.85040 0.49080 -0.25800
H 	H 	0.54780 0.83980 0.50870 0.15900
N 	N 	0.42890 0.93070 0.48820 -0.18200
C 	C 	0.43170 0.66660 0.29580 0.40500
C 	C 	0.45140 0.71640 0.34540 -0.19700
C 	C 	0.41970 0.77540 0.35080 0.12800
H 	H 	0.38440 0.78510 0.32190 -0.00000
C 	C 	0.43790 0.82160 0.39790 -0.21800
H 	H 	0.41530 0.86230 0.40050 0.12000
C 	C 	0.48950 0.80830 0.44140 0.21000
C 	C 	0.52110 0.74830 0.43510 -0.22800
H 	H 	0.55630 0.73840 0.46400 0.10300
C 	C 	0.50350 0.70300 0.38920 0.12400
H 	H 	0.52620 0.66250 0.38660 -0.01000
C 	C 	0.48220 0.90480 0.51610 0.20500
O 	O 	0.11900 0.31950 0.76230 -0.48900
O 	O 	0.03560 0.38470 0.78830 -0.33300
N 	N 	0.99000 0.14960 0.99080 -0.25900
H 	H 	0.95220 0.16020 0.00870 0.15900
N 	N 	0.07110 0.06930 0.98820 -0.18300
C 	C 	0.06830 0.33340 0.79580 0.40500
C 	C 	0.04860 0.28360 0.84540 -0.19700
C 	C 	0.08030 0.22460 0.85080 0.12800
H 	H 	0.11560 0.21490 0.82190 -0.00000
C 	C 	0.06210 0.17840 0.89790 -0.21900
H 	H 	0.08470 0.13770 0.90050 0.12000
C 	C 	0.01050 0.19170 0.94140 0.21100
C 	C 	0.97890 0.25170 0.93510 -0.22800
H 	H 	0.94370 0.26160 0.96400 0.10300
C 	C 	0.99650 0.29700 0.88920 0.12300
H 	H 	0.97380 0.33750 0.88660 -0.01000
C 	C 	0.01780 0.09520 0.01610 0.20700
O 	O 	0.88100 0.81950 0.73770 -0.48900
O 	O 	0.96440 0.88470 0.71170 -0.33300
N 	N 	0.01000 0.64960 0.50920 -0.25800
H 	H 	0.04780 0.66020 0.49130 0.15900
N 	N 	0.92890 0.56930 0.51180 -0.18200
C 	C 	0.93170 0.83340 0.70420 0.40500
C 	C 	0.95140 0.78360 0.65460 -0.19700
C 	C 	0.91970 0.72460 0.64920 0.12800
H 	H 	0.88440 0.71490 0.67810 -0.00000
C 	C 	0.93790 0.67840 0.60210 -0.21800
H 	H 	0.91530 0.63770 0.59950 0.12000
C 	C 	0.98950 0.69170 0.55860 0.21000
C 	C 	0.02110 0.75170 0.56490 -0.22800
H 	H 	0.05630 0.76160 0.53600 0.10300
C 	C 	0.00350 0.79700 0.61080 0.12300
H 	H 	0.02620 0.83750 0.61340 -0.01000
C 	C 	0.98220 0.59520 0.48390 0.20500
Er	Er	0.33326 0.66674 0.16674 1.38100
Er	Er	0.16674 0.33326 0.66674 1.38100
Er	Er	0.66674 0.16674 0.33326 1.38100
Er	Er	0.83326 0.83326 0.83326 1.38100
