data_crystal

_cell_length_a 20.50100
_cell_length_b 20.50100
_cell_length_c 20.50100
_cell_angle_alpha 90.00000
_cell_angle_beta  90.00000
_cell_angle_gamma 90.00000

_symmetry_space_group_name_	'P 1'
_symmetry_space_group_name_H-M	'P 1'

loop_
_symmetry_equiv_pos_as_xyz
  x,y,z

loop_
_atom_site_label
_atom_site_type_symbol
_atom_site_fract_x
_atom_site_fract_y
_atom_site_fract_z
_atom_site_charge
O 	O 	0.13340 0.81010 0.24250 -0.47200
O 	O 	0.05870 0.88150 0.21170 -0.35200
N 	N 	0.99630 0.65070 0.01300 -0.25500
H 	H 	0.95900 0.66320 0.99590 0.16400
N 	N 	0.98880 0.57450 0.93200 -0.17900
C 	C 	0.08650 0.82790 0.20730 0.39100
C 	C 	0.06380 0.78060 0.15660 -0.19800
C 	C 	0.01390 0.79590 0.11450 0.13100
H 	H 	0.99410 0.83770 0.11690 -0.01300
C 	C 	0.99210 0.75160 0.06890 -0.23600
H 	H 	0.95690 0.76320 0.04110 0.11100
C 	C 	0.02040 0.69070 0.06280 0.21700
C 	C 	0.07160 0.67510 0.10480 -0.23600
H 	H 	0.09190 0.63350 0.10190 0.12200
C 	C 	0.09250 0.71840 0.14950 0.13500
H 	H 	0.12770 0.70670 0.17730 -0.00500
C 	C 	0.02230 0.59460 0.98680 0.19100
O 	O 	0.36660 0.18990 0.74250 -0.47300
O 	O 	0.44130 0.11850 0.71170 -0.35300
N 	N 	0.50370 0.34930 0.51300 -0.25500
H 	H 	0.54100 0.33680 0.49590 0.16300
N 	N 	0.51120 0.42550 0.43200 -0.17900
C 	C 	0.41350 0.17210 0.70730 0.39100
C 	C 	0.43620 0.21940 0.65660 -0.19700
C 	C 	0.48610 0.20410 0.61450 0.12900
H 	H 	0.50590 0.16230 0.61690 -0.01200
C 	C 	0.50790 0.24840 0.56890 -0.23400
H 	H 	0.54310 0.23680 0.54110 0.11100
C 	C 	0.47960 0.30930 0.56280 0.21600
C 	C 	0.42840 0.32490 0.60480 -0.23500
H 	H 	0.40810 0.36650 0.60190 0.12100
C 	C 	0.40750 0.28160 0.64950 0.13400
H 	H 	0.37230 0.29330 0.67730 -0.00400
C 	C 	0.47770 0.40540 0.48680 0.19100
O 	O 	0.86660 0.31010 0.25750 -0.47300
O 	O 	0.94130 0.38150 0.28830 -0.35300
N 	N 	0.00370 0.15070 0.48700 -0.25500
H 	H 	0.04100 0.16320 0.50410 0.16300
N 	N 	0.01120 0.07450 0.56800 -0.17900
C 	C 	0.91350 0.32790 0.29270 0.39100
C 	C 	0.93620 0.28060 0.34340 -0.19600
C 	C 	0.98610 0.29590 0.38550 0.12700
H 	H 	0.00590 0.33770 0.38310 -0.01100
C 	C 	0.00790 0.25160 0.43110 -0.23200
H 	H 	0.04310 0.26320 0.45890 0.11000
C 	C 	0.97960 0.19070 0.43720 0.21400
C 	C 	0.92840 0.17510 0.39520 -0.23400
H 	H 	0.90810 0.13350 0.39810 0.12100
C 	C 	0.90750 0.21840 0.35050 0.13300
H 	H 	0.87230 0.20670 0.32270 -0.00400
C 	C 	0.97770 0.09460 0.51320 0.19100
O 	O 	0.63340 0.68990 0.75750 -0.47300
O 	O 	0.55870 0.61850 0.78830 -0.35300
N 	N 	0.49630 0.84930 0.98700 -0.25500
H 	H 	0.45900 0.83680 0.00410 0.16300
N 	N 	0.48880 0.92550 0.06800 -0.17900
C 	C 	0.58650 0.67210 0.79270 0.39100
C 	C 	0.56380 0.71940 0.84340 -0.19700
C 	C 	0.51390 0.70410 0.88550 0.12900
H 	H 	0.49410 0.66230 0.88310 -0.01200
C 	C 	0.49210 0.74840 0.93110 -0.23400
H 	H 	0.45690 0.73680 0.95890 0.11100
C 	C 	0.52040 0.80930 0.93720 0.21500
C 	C 	0.57160 0.82490 0.89520 -0.23500
H 	H 	0.59190 0.86650 0.89810 0.12100
C 	C 	0.59250 0.78160 0.85050 0.13400
H 	H 	0.62770 0.79330 0.82270 -0.00400
C 	C 	0.52230 0.90540 0.01320 0.19100
O 	O 	0.24250 0.13340 0.81010 -0.47300
O 	O 	0.21170 0.05870 0.88150 -0.35300
N 	N 	0.01300 0.99630 0.65070 -0.25600
H 	H 	0.99590 0.95900 0.66320 0.16300
N 	N 	0.93200 0.98880 0.57450 -0.17900
C 	C 	0.20730 0.08650 0.82790 0.39100
C 	C 	0.15660 0.06380 0.78060 -0.19800
C 	C 	0.11450 0.01390 0.79590 0.13100
H 	H 	0.11690 0.99410 0.83770 -0.01300
C 	C 	0.06890 0.99210 0.75160 -0.23600
H 	H 	0.04110 0.95690 0.76320 0.11100
C 	C 	0.06280 0.02040 0.69070 0.21700
C 	C 	0.10480 0.07160 0.67510 -0.23600
H 	H 	0.10190 0.09190 0.63350 0.12200
C 	C 	0.14950 0.09250 0.71840 0.13500
H 	H 	0.17730 0.12770 0.70670 -0.00500
C 	C 	0.98680 0.02230 0.59460 0.19100
O 	O 	0.74250 0.36660 0.18990 -0.47300
O 	O 	0.71170 0.44130 0.11850 -0.35300
N 	N 	0.51300 0.50370 0.34930 -0.25500
H 	H 	0.49590 0.54100 0.33680 0.16300
N 	N 	0.43200 0.51120 0.42550 -0.17900
C 	C 	0.70730 0.41350 0.17210 0.39100
C 	C 	0.65660 0.43620 0.21940 -0.19700
C 	C 	0.61450 0.48610 0.20410 0.12900
H 	H 	0.61690 0.50590 0.16230 -0.01200
C 	C 	0.56890 0.50790 0.24840 -0.23400
H 	H 	0.54110 0.54310 0.23680 0.11100
C 	C 	0.56280 0.47960 0.30930 0.21600
C 	C 	0.60480 0.42840 0.32490 -0.23500
H 	H 	0.60190 0.40810 0.36650 0.12100
C 	C 	0.64950 0.40750 0.28160 0.13400
H 	H 	0.67730 0.37230 0.29330 -0.00400
C 	C 	0.48680 0.47770 0.40540 0.19100
O 	O 	0.25750 0.86660 0.31010 -0.47300
O 	O 	0.28830 0.94130 0.38150 -0.35300
N 	N 	0.48700 0.00370 0.15070 -0.25500
H 	H 	0.50410 0.04100 0.16320 0.16300
N 	N 	0.56800 0.01120 0.07450 -0.17900
C 	C 	0.29270 0.91350 0.32790 0.39100
C 	C 	0.34340 0.93620 0.28060 -0.19600
C 	C 	0.38550 0.98610 0.29590 0.12700
H 	H 	0.38310 0.00590 0.33770 -0.01100
C 	C 	0.43110 0.00790 0.25160 -0.23200
H 	H 	0.45890 0.04310 0.26320 0.11000
C 	C 	0.43720 0.97960 0.19070 0.21400
C 	C 	0.39520 0.92840 0.17510 -0.23400
H 	H 	0.39810 0.90810 0.13350 0.12100
C 	C 	0.35050 0.90750 0.21840 0.13300
H 	H 	0.32270 0.87230 0.20670 -0.00400
C 	C 	0.51320 0.97770 0.09460 0.19100
O 	O 	0.75750 0.63340 0.68990 -0.47300
O 	O 	0.78830 0.55870 0.61850 -0.35300
N 	N 	0.98700 0.49630 0.84930 -0.25500
H 	H 	0.00410 0.45900 0.83680 0.16300
N 	N 	0.06800 0.48880 0.92550 -0.17900
C 	C 	0.79270 0.58650 0.67210 0.39100
C 	C 	0.84340 0.56380 0.71940 -0.19700
C 	C 	0.88550 0.51390 0.70410 0.12900
H 	H 	0.88310 0.49410 0.66230 -0.01200
C 	C 	0.93110 0.49210 0.74840 -0.23400
H 	H 	0.95890 0.45690 0.73680 0.11100
C 	C 	0.93720 0.52040 0.80930 0.21500
C 	C 	0.89520 0.57160 0.82490 -0.23500
H 	H 	0.89810 0.59190 0.86650 0.12100
C 	C 	0.85050 0.59250 0.78160 0.13400
H 	H 	0.82270 0.62770 0.79330 -0.00400
C 	C 	0.01320 0.52230 0.90540 0.19100
O 	O 	0.81010 0.24250 0.13340 -0.47300
O 	O 	0.88150 0.21170 0.05870 -0.35300
N 	N 	0.65070 0.01300 0.99630 -0.25600
H 	H 	0.66320 0.99590 0.95900 0.16300
N 	N 	0.57450 0.93200 0.98880 -0.17900
C 	C 	0.82790 0.20730 0.08650 0.39100
C 	C 	0.78060 0.15660 0.06380 -0.19800
C 	C 	0.79590 0.11450 0.01390 0.13100
H 	H 	0.83770 0.11690 0.99410 -0.01300
C 	C 	0.75160 0.06890 0.99210 -0.23600
H 	H 	0.76320 0.04110 0.95690 0.11100
C 	C 	0.69070 0.06280 0.02040 0.21700
C 	C 	0.67510 0.10480 0.07160 -0.23600
H 	H 	0.63350 0.10190 0.09190 0.12200
C 	C 	0.71840 0.14950 0.09250 0.13500
H 	H 	0.70670 0.17730 0.12770 -0.00500
C 	C 	0.59460 0.98680 0.02230 0.19100
O 	O 	0.18990 0.74250 0.36660 -0.47300
O 	O 	0.11850 0.71170 0.44130 -0.35300
N 	N 	0.34930 0.51300 0.50370 -0.25500
H 	H 	0.33680 0.49590 0.54100 0.16300
N 	N 	0.42550 0.43200 0.51120 -0.17900
C 	C 	0.17210 0.70730 0.41350 0.39100
C 	C 	0.21940 0.65660 0.43620 -0.19700
C 	C 	0.20410 0.61450 0.48610 0.12900
H 	H 	0.16230 0.61690 0.50590 -0.01200
C 	C 	0.24840 0.56890 0.50790 -0.23400
H 	H 	0.23680 0.54110 0.54310 0.11100
C 	C 	0.30930 0.56280 0.47960 0.21600
C 	C 	0.32490 0.60480 0.42840 -0.23500
H 	H 	0.36650 0.60190 0.40810 0.12100
C 	C 	0.28160 0.64950 0.40750 0.13400
H 	H 	0.29330 0.67730 0.37230 -0.00400
C 	C 	0.40540 0.48680 0.47770 0.19100
O 	O 	0.31010 0.25750 0.86660 -0.47300
O 	O 	0.38150 0.28830 0.94130 -0.35300
N 	N 	0.15070 0.48700 0.00370 -0.25500
H 	H 	0.16320 0.50410 0.04100 0.16300
N 	N 	0.07450 0.56800 0.01120 -0.17900
C 	C 	0.32790 0.29270 0.91350 0.39100
C 	C 	0.28060 0.34340 0.93620 -0.19600
C 	C 	0.29590 0.38550 0.98610 0.12700
H 	H 	0.33770 0.38310 0.00590 -0.01100
C 	C 	0.25160 0.43110 0.00790 -0.23200
H 	H 	0.26320 0.45890 0.04310 0.11000
C 	C 	0.19070 0.43720 0.97960 0.21400
C 	C 	0.17510 0.39520 0.92840 -0.23400
H 	H 	0.13350 0.39810 0.90810 0.12100
C 	C 	0.21840 0.35050 0.90750 0.13300
H 	H 	0.20670 0.32270 0.87230 -0.00400
C 	C 	0.09460 0.51320 0.97770 0.19100
O 	O 	0.68990 0.75750 0.63340 -0.47300
O 	O 	0.61850 0.78830 0.55870 -0.35300
N 	N 	0.84930 0.98700 0.49630 -0.25500
H 	H 	0.83680 0.00410 0.45900 0.16300
N 	N 	0.92550 0.06800 0.48880 -0.17900
C 	C 	0.67210 0.79270 0.58650 0.39100
C 	C 	0.71940 0.84340 0.56380 -0.19700
C 	C 	0.70410 0.88550 0.51390 0.12900
H 	H 	0.66230 0.88310 0.49410 -0.01200
C 	C 	0.74840 0.93110 0.49210 -0.23400
H 	H 	0.73680 0.95890 0.45690 0.11100
C 	C 	0.80930 0.93720 0.52040 0.21500
C 	C 	0.82490 0.89520 0.57160 -0.23500
H 	H 	0.86650 0.89810 0.59190 0.12100
C 	C 	0.78160 0.85050 0.59250 0.13400
H 	H 	0.79330 0.82270 0.62770 -0.00400
C 	C 	0.90540 0.01320 0.52230 0.19100
Eu	Eu	0.15433 0.84567 0.34567 1.47000
Eu	Eu	0.34567 0.15433 0.84567 1.47000
Eu	Eu	0.84567 0.34567 0.15433 1.47000
Eu	Eu	0.65433 0.65433 0.65433 1.47100
O 	O 	0.23530 0.61780 0.18040 -0.50100
O 	O 	0.20860 0.53420 0.11600 -0.34200
N 	N 	0.00810 0.49010 0.35130 -0.25400
H 	H 	0.98980 0.45270 0.34070 0.15500
N 	N 	0.01170 0.57160 0.42940 -0.17900
C 	C 	0.20170 0.56650 0.16660 0.40500
C 	C 	0.15250 0.54750 0.21630 -0.20600
C 	C 	0.14810 0.57970 0.27480 0.13000
H 	H 	0.17750 0.61430 0.28420 -0.00500
C 	C 	0.10050 0.56210 0.32110 -0.22200
H 	H 	0.09730 0.58520 0.36120 0.12000
C 	C 	0.05850 0.51100 0.30790 0.20700
C 	C 	0.06440 0.47890 0.24870 -0.23800
H 	H 	0.03560 0.44380 0.23910 0.10200
C 	C 	0.10950 0.49610 0.20450 0.13700
H 	H 	0.11220 0.47280 0.16450 -0.01700
C 	C 	0.98400 0.51770 0.40480 0.19800
O 	O 	0.26470 0.38220 0.68040 -0.50100
O 	O 	0.29140 0.46580 0.61600 -0.34200
N 	N 	0.49190 0.50990 0.85130 -0.25400
H 	H 	0.51020 0.54730 0.84070 0.15500
N 	N 	0.48830 0.42840 0.92940 -0.17900
C 	C 	0.29830 0.43350 0.66660 0.40500
C 	C 	0.34750 0.45250 0.71630 -0.20600
C 	C 	0.35190 0.42030 0.77480 0.13000
H 	H 	0.32250 0.38570 0.78420 -0.00500
C 	C 	0.39950 0.43790 0.82110 -0.22200
H 	H 	0.40270 0.41480 0.86120 0.12000
C 	C 	0.44150 0.48900 0.80790 0.20700
C 	C 	0.43560 0.52110 0.74870 -0.23800
H 	H 	0.46440 0.55620 0.73910 0.10200
C 	C 	0.39050 0.50390 0.70450 0.13700
H 	H 	0.38780 0.52720 0.66450 -0.01700
C 	C 	0.51600 0.48230 0.90480 0.19800
O 	O 	0.76470 0.11780 0.31960 -0.50100
O 	O 	0.79140 0.03420 0.38400 -0.34200
N 	N 	0.99190 0.99010 0.14870 -0.25500
H 	H 	0.01020 0.95270 0.15930 0.15500
N 	N 	0.98830 0.07160 0.07060 -0.18000
C 	C 	0.79830 0.06650 0.33340 0.40500
C 	C 	0.84750 0.04750 0.28370 -0.20600
C 	C 	0.85190 0.07970 0.22520 0.13000
H 	H 	0.82250 0.11430 0.21580 -0.00500
C 	C 	0.89950 0.06210 0.17890 -0.22300
H 	H 	0.90270 0.08520 0.13880 0.12000
C 	C 	0.94150 0.01100 0.19210 0.20700
C 	C 	0.93560 0.97890 0.25130 -0.23800
H 	H 	0.96440 0.94380 0.26090 0.10200
C 	C 	0.89050 0.99610 0.29550 0.13700
H 	H 	0.88780 0.97280 0.33550 -0.01700
C 	C 	0.01600 0.01770 0.09520 0.19900
O 	O 	0.73530 0.88220 0.81960 -0.50100
O 	O 	0.70860 0.96580 0.88400 -0.34200
N 	N 	0.50810 0.00990 0.64870 -0.25400
H 	H 	0.48980 0.04730 0.65930 0.15500
N 	N 	0.51170 0.92840 0.57060 -0.17900
C 	C 	0.70170 0.93350 0.83340 0.40500
C 	C 	0.65250 0.95250 0.78370 -0.20600
C 	C 	0.64810 0.92030 0.72520 0.12900
H 	H 	0.67750 0.88570 0.71580 -0.00500
C 	C 	0.60050 0.93790 0.67890 -0.22200
H 	H 	0.59730 0.91480 0.63880 0.12000
C 	C 	0.55850 0.98900 0.69210 0.20700
C 	C 	0.56440 0.02110 0.75130 -0.23800
H 	H 	0.53560 0.05620 0.76090 0.10200
C 	C 	0.60950 0.00390 0.79550 0.13700
H 	H 	0.61220 0.02720 0.83550 -0.01700
C 	C 	0.48400 0.98230 0.59520 0.19800
O 	O 	0.18040 0.23530 0.61780 -0.50100
O 	O 	0.11600 0.20860 0.53420 -0.34200
N 	N 	0.35130 0.00810 0.49010 -0.25400
H 	H 	0.34070 0.98980 0.45270 0.15500
N 	N 	0.42940 0.01170 0.57160 -0.17900
C 	C 	0.16660 0.20170 0.56650 0.40500
C 	C 	0.21630 0.15250 0.54750 -0.20600
C 	C 	0.27480 0.14810 0.57970 0.13000
H 	H 	0.28420 0.17750 0.61430 -0.00500
C 	C 	0.32110 0.10050 0.56210 -0.22200
H 	H 	0.36120 0.09730 0.58520 0.12000
C 	C 	0.30790 0.05850 0.51100 0.20700
C 	C 	0.24870 0.06440 0.47890 -0.23800
H 	H 	0.23910 0.03560 0.44380 0.10200
C 	C 	0.20450 0.10950 0.49610 0.13700
H 	H 	0.16450 0.11220 0.47280 -0.01700
C 	C 	0.40480 0.98400 0.51770 0.19800
O 	O 	0.68040 0.26470 0.38220 -0.50100
O 	O 	0.61600 0.29140 0.46580 -0.34200
N 	N 	0.85130 0.49190 0.50990 -0.25400
H 	H 	0.84070 0.51020 0.54730 0.15500
N 	N 	0.92940 0.48830 0.42840 -0.17900
C 	C 	0.66660 0.29830 0.43350 0.40500
C 	C 	0.71630 0.34750 0.45250 -0.20600
C 	C 	0.77480 0.35190 0.42030 0.13000
H 	H 	0.78420 0.32250 0.38570 -0.00500
C 	C 	0.82110 0.39950 0.43790 -0.22200
H 	H 	0.86120 0.40270 0.41480 0.12000
C 	C 	0.80790 0.44150 0.48900 0.20700
C 	C 	0.74870 0.43560 0.52110 -0.23800
H 	H 	0.73910 0.46440 0.55620 0.10200
C 	C 	0.70450 0.39050 0.50390 0.13700
H 	H 	0.66450 0.38780 0.52720 -0.01700
C 	C 	0.90480 0.51600 0.48230 0.19800
O 	O 	0.31960 0.76470 0.11780 -0.50100
O 	O 	0.38400 0.79140 0.03420 -0.34200
N 	N 	0.14870 0.99190 0.99010 -0.25500
H 	H 	0.15930 0.01020 0.95270 0.15500
N 	N 	0.07060 0.98830 0.07160 -0.18000
C 	C 	0.33340 0.79830 0.06650 0.40500
C 	C 	0.28370 0.84750 0.04750 -0.20600
C 	C 	0.22520 0.85190 0.07970 0.13000
H 	H 	0.21580 0.82250 0.11430 -0.00500
C 	C 	0.17890 0.89950 0.06210 -0.22300
H 	H 	0.13880 0.90270 0.08520 0.12000
C 	C 	0.19210 0.94150 0.01100 0.20700
C 	C 	0.25130 0.93560 0.97890 -0.23800
H 	H 	0.26090 0.96440 0.94380 0.10200
C 	C 	0.29550 0.89050 0.99610 0.13700
H 	H 	0.33550 0.88780 0.97280 -0.01700
C 	C 	0.09520 0.01600 0.01770 0.19900
O 	O 	0.81960 0.73530 0.88220 -0.50100
O 	O 	0.88400 0.70860 0.96580 -0.34200
N 	N 	0.64870 0.50810 0.00990 -0.25400
H 	H 	0.65930 0.48980 0.04730 0.15500
N 	N 	0.57060 0.51170 0.92840 -0.17900
C 	C 	0.83340 0.70170 0.93350 0.40500
C 	C 	0.78370 0.65250 0.95250 -0.20600
C 	C 	0.72520 0.64810 0.92030 0.12900
H 	H 	0.71580 0.67750 0.88570 -0.00500
C 	C 	0.67890 0.60050 0.93790 -0.22200
H 	H 	0.63880 0.59730 0.91480 0.12000
C 	C 	0.69210 0.55850 0.98900 0.20700
C 	C 	0.75130 0.56440 0.02110 -0.23800
H 	H 	0.76090 0.53560 0.05620 0.10200
C 	C 	0.79550 0.60950 0.00390 0.13700
H 	H 	0.83550 0.61220 0.02720 -0.01700
C 	C 	0.59520 0.48400 0.98230 0.19800
O 	O 	0.61780 0.18040 0.23530 -0.50100
O 	O 	0.53420 0.11600 0.20860 -0.34200
N 	N 	0.49010 0.35130 0.00810 -0.25400
H 	H 	0.45270 0.34070 0.98980 0.15500
N 	N 	0.57160 0.42940 0.01170 -0.17900
C 	C 	0.56650 0.16660 0.20170 0.40500
C 	C 	0.54750 0.21630 0.15250 -0.20600
C 	C 	0.57970 0.27480 0.14810 0.13000
H 	H 	0.61430 0.28420 0.17750 -0.00500
C 	C 	0.56210 0.32110 0.10050 -0.22200
H 	H 	0.58520 0.36120 0.09730 0.12000
C 	C 	0.51100 0.30790 0.05850 0.20700
C 	C 	0.47890 0.24870 0.06440 -0.23800
H 	H 	0.44380 0.23910 0.03560 0.10200
C 	C 	0.49610 0.20450 0.10950 0.13700
H 	H 	0.47280 0.16450 0.11220 -0.01700
C 	C 	0.51770 0.40480 0.98400 0.19800
O 	O 	0.38220 0.68040 0.26470 -0.50100
O 	O 	0.46580 0.61600 0.29140 -0.34200
N 	N 	0.50990 0.85130 0.49190 -0.25400
H 	H 	0.54730 0.84070 0.51020 0.15500
N 	N 	0.42840 0.92940 0.48830 -0.17900
C 	C 	0.43350 0.66660 0.29830 0.40500
C 	C 	0.45250 0.71630 0.34750 -0.20600
C 	C 	0.42030 0.77480 0.35190 0.13000
H 	H 	0.38570 0.78420 0.32250 -0.00500
C 	C 	0.43790 0.82110 0.39950 -0.22200
H 	H 	0.41480 0.86120 0.40270 0.12000
C 	C 	0.48900 0.80790 0.44150 0.20700
C 	C 	0.52110 0.74870 0.43560 -0.23800
H 	H 	0.55620 0.73910 0.46440 0.10200
C 	C 	0.50390 0.70450 0.39050 0.13700
H 	H 	0.52720 0.66450 0.38780 -0.01700
C 	C 	0.48230 0.90480 0.51600 0.19800
O 	O 	0.11780 0.31960 0.76470 -0.50100
O 	O 	0.03420 0.38400 0.79140 -0.34200
N 	N 	0.99010 0.14870 0.99190 -0.25500
H 	H 	0.95270 0.15930 0.01020 0.15500
N 	N 	0.07160 0.07060 0.98830 -0.18000
C 	C 	0.06650 0.33340 0.79830 0.40500
C 	C 	0.04750 0.28370 0.84750 -0.20600
C 	C 	0.07970 0.22520 0.85190 0.13000
H 	H 	0.11430 0.21580 0.82250 -0.00500
C 	C 	0.06210 0.17890 0.89950 -0.22300
H 	H 	0.08520 0.13880 0.90270 0.12000
C 	C 	0.01100 0.19210 0.94150 0.20700
C 	C 	0.97890 0.25130 0.93560 -0.23800
H 	H 	0.94380 0.26090 0.96440 0.10200
C 	C 	0.99610 0.29550 0.89050 0.13700
H 	H 	0.97280 0.33550 0.88780 -0.01700
C 	C 	0.01770 0.09520 0.01600 0.19900
O 	O 	0.88220 0.81960 0.73530 -0.50100
O 	O 	0.96580 0.88400 0.70860 -0.34200
N 	N 	0.00990 0.64870 0.50810 -0.25400
H 	H 	0.04730 0.65930 0.48980 0.15500
N 	N 	0.92840 0.57060 0.51170 -0.17900
C 	C 	0.93350 0.83340 0.70170 0.40500
C 	C 	0.95250 0.78370 0.65250 -0.20600
C 	C 	0.92030 0.72520 0.64810 0.12900
H 	H 	0.88570 0.71580 0.67750 -0.00500
C 	C 	0.93790 0.67890 0.60050 -0.22200
H 	H 	0.91480 0.63880 0.59730 0.12000
C 	C 	0.98900 0.69210 0.55850 0.20700
C 	C 	0.02110 0.75130 0.56440 -0.23800
H 	H 	0.05620 0.76090 0.53560 0.10200
C 	C 	0.00390 0.79550 0.60950 0.13700
H 	H 	0.02720 0.83550 0.61220 -0.01700
C 	C 	0.98230 0.59520 0.48400 0.19800
Eu	Eu	0.33390 0.66610 0.16610 1.52200
Eu	Eu	0.16610 0.33390 0.66610 1.52200
Eu	Eu	0.66610 0.16610 0.33390 1.52200
Eu	Eu	0.83390 0.83390 0.83390 1.52200
