data_crystal

_cell_length_a 20.40320
_cell_length_b 20.40320
_cell_length_c 20.40320
_cell_angle_alpha 90.00000
_cell_angle_beta  90.00000
_cell_angle_gamma 90.00000

_symmetry_space_group_name_	'P 1'
_symmetry_space_group_name_H-M	'P 1'

loop_
_symmetry_equiv_pos_as_xyz
  x,y,z

loop_
_atom_site_label
_atom_site_type_symbol
_atom_site_fract_x
_atom_site_fract_y
_atom_site_fract_z
_atom_site_charge
O 	O 	0.13440 0.81100 0.24393 -0.45000
O 	O 	0.05940 0.88358 0.21200 -0.34100
N 	N 	0.99790 0.65230 0.01160 -0.25700
H 	H 	0.96070 0.66550 0.99410 0.16200
N 	N 	0.98960 0.57600 0.93120 -0.18100
C 	C 	0.08720 0.82930 0.20680 0.37000
C 	C 	0.06510 0.78150 0.15620 -0.19400
C 	C 	0.01390 0.79660 0.11470 0.13300
H 	H 	0.99270 0.83780 0.11870 -0.01200
C 	C 	0.99350 0.75360 0.06830 -0.23600
H 	H 	0.95910 0.76580 0.03940 0.11400
C 	C 	0.02180 0.69190 0.06220 0.21500
C 	C 	0.07310 0.67610 0.10450 -0.22800
H 	H 	0.09410 0.63470 0.10090 0.12000
C 	C 	0.09350 0.71990 0.15100 0.12900
H 	H 	0.12760 0.70790 0.18030 -0.00100
C 	C 	0.02320 0.59650 0.98530 0.19500
O 	O 	0.36560 0.18900 0.74393 -0.44900
O 	O 	0.44060 0.11642 0.71200 -0.34000
N 	N 	0.50210 0.34770 0.51160 -0.25600
H 	H 	0.53930 0.33450 0.49410 0.16300
N 	N 	0.51040 0.42400 0.43120 -0.18000
C 	C 	0.41280 0.17070 0.70680 0.37100
C 	C 	0.43490 0.21850 0.65620 -0.19200
C 	C 	0.48610 0.20340 0.61470 0.13200
H 	H 	0.50730 0.16220 0.61870 -0.01200
C 	C 	0.50650 0.24640 0.56830 -0.23400
H 	H 	0.54090 0.23420 0.53940 0.11300
C 	C 	0.47820 0.30810 0.56220 0.21400
C 	C 	0.42690 0.32390 0.60450 -0.22700
H 	H 	0.40590 0.36530 0.60090 0.12000
C 	C 	0.40650 0.28010 0.65100 0.12900
H 	H 	0.37240 0.29210 0.68030 -0.00000
C 	C 	0.47680 0.40350 0.48530 0.19500
O 	O 	0.86560 0.31100 0.25607 -0.44900
O 	O 	0.94060 0.38358 0.28800 -0.34000
N 	N 	0.00210 0.15230 0.48840 -0.25500
H 	H 	0.03930 0.16550 0.50590 0.16300
N 	N 	0.01040 0.07600 0.56880 -0.17900
C 	C 	0.91280 0.32930 0.29320 0.37000
C 	C 	0.93490 0.28150 0.34380 -0.19100
C 	C 	0.98610 0.29660 0.38530 0.13000
H 	H 	0.00730 0.33780 0.38130 -0.01100
C 	C 	0.00650 0.25360 0.43170 -0.23200
H 	H 	0.04090 0.26580 0.46060 0.11300
C 	C 	0.97820 0.19190 0.43780 0.21200
C 	C 	0.92690 0.17610 0.39550 -0.22600
H 	H 	0.90590 0.13470 0.39910 0.11900
C 	C 	0.90650 0.21990 0.34900 0.12700
H 	H 	0.87240 0.20790 0.31970 -0.00000
C 	C 	0.97680 0.09650 0.51470 0.19500
O 	O 	0.63440 0.68900 0.75607 -0.44900
O 	O 	0.55940 0.61642 0.78800 -0.34000
N 	N 	0.49790 0.84770 0.98840 -0.25600
H 	H 	0.46070 0.83450 0.00590 0.16300
N 	N 	0.48960 0.92400 0.06880 -0.18000
C 	C 	0.58720 0.67070 0.79320 0.37100
C 	C 	0.56510 0.71850 0.84380 -0.19200
C 	C 	0.51390 0.70340 0.88530 0.13200
H 	H 	0.49270 0.66220 0.88130 -0.01200
C 	C 	0.49350 0.74640 0.93170 -0.23400
H 	H 	0.45910 0.73420 0.96060 0.11300
C 	C 	0.52180 0.80810 0.93780 0.21400
C 	C 	0.57310 0.82390 0.89550 -0.22700
H 	H 	0.59410 0.86530 0.89910 0.12000
C 	C 	0.59350 0.78010 0.84900 0.12800
H 	H 	0.62760 0.79210 0.81970 -0.00000
C 	C 	0.52320 0.90350 0.01470 0.19500
O 	O 	0.24393 0.13440 0.81100 -0.44900
O 	O 	0.21200 0.05940 0.88358 -0.34000
N 	N 	0.01160 0.99790 0.65230 -0.25600
H 	H 	0.99410 0.96070 0.66550 0.16300
N 	N 	0.93120 0.98960 0.57600 -0.18000
C 	C 	0.20680 0.08720 0.82930 0.37100
C 	C 	0.15620 0.06510 0.78150 -0.19300
C 	C 	0.11470 0.01390 0.79660 0.13400
H 	H 	0.11870 0.99270 0.83780 -0.01200
C 	C 	0.06830 0.99350 0.75360 -0.23600
H 	H 	0.03940 0.95910 0.76580 0.11400
C 	C 	0.06220 0.02180 0.69190 0.21500
C 	C 	0.10450 0.07310 0.67610 -0.22800
H 	H 	0.10090 0.09410 0.63470 0.12000
C 	C 	0.15100 0.09350 0.71990 0.12900
H 	H 	0.18030 0.12760 0.70790 -0.00100
C 	C 	0.98530 0.02320 0.59650 0.19500
O 	O 	0.74393 0.36560 0.18900 -0.44900
O 	O 	0.71200 0.44060 0.11642 -0.34000
N 	N 	0.51160 0.50210 0.34770 -0.25600
H 	H 	0.49410 0.53930 0.33450 0.16300
N 	N 	0.43120 0.51040 0.42400 -0.18000
C 	C 	0.70680 0.41280 0.17070 0.37100
C 	C 	0.65620 0.43490 0.21850 -0.19200
C 	C 	0.61470 0.48610 0.20340 0.13200
H 	H 	0.61870 0.50730 0.16220 -0.01200
C 	C 	0.56830 0.50650 0.24640 -0.23400
H 	H 	0.53940 0.54090 0.23420 0.11300
C 	C 	0.56220 0.47820 0.30810 0.21400
C 	C 	0.60450 0.42690 0.32390 -0.22700
H 	H 	0.60090 0.40590 0.36530 0.12000
C 	C 	0.65100 0.40650 0.28010 0.12900
H 	H 	0.68030 0.37240 0.29210 -0.00000
C 	C 	0.48530 0.47680 0.40350 0.19500
O 	O 	0.25607 0.86560 0.31100 -0.44900
O 	O 	0.28800 0.94060 0.38358 -0.34000
N 	N 	0.48840 0.00210 0.15230 -0.25500
H 	H 	0.50590 0.03930 0.16550 0.16300
N 	N 	0.56880 0.01040 0.07600 -0.17900
C 	C 	0.29320 0.91280 0.32930 0.37000
C 	C 	0.34380 0.93490 0.28150 -0.19100
C 	C 	0.38530 0.98610 0.29660 0.13000
H 	H 	0.38130 0.00730 0.33780 -0.01100
C 	C 	0.43170 0.00650 0.25360 -0.23200
H 	H 	0.46060 0.04090 0.26580 0.11300
C 	C 	0.43780 0.97820 0.19190 0.21200
C 	C 	0.39550 0.92690 0.17610 -0.22600
H 	H 	0.39910 0.90590 0.13470 0.11900
C 	C 	0.34900 0.90650 0.21990 0.12700
H 	H 	0.31970 0.87240 0.20790 -0.00000
C 	C 	0.51470 0.97680 0.09650 0.19500
O 	O 	0.75607 0.63440 0.68900 -0.44900
O 	O 	0.78800 0.55940 0.61642 -0.34000
N 	N 	0.98840 0.49790 0.84770 -0.25600
H 	H 	0.00590 0.46070 0.83450 0.16300
N 	N 	0.06880 0.48960 0.92400 -0.18000
C 	C 	0.79320 0.58720 0.67070 0.37100
C 	C 	0.84380 0.56510 0.71850 -0.19200
C 	C 	0.88530 0.51390 0.70340 0.13200
H 	H 	0.88130 0.49270 0.66220 -0.01200
C 	C 	0.93170 0.49350 0.74640 -0.23400
H 	H 	0.96060 0.45910 0.73420 0.11300
C 	C 	0.93780 0.52180 0.80810 0.21400
C 	C 	0.89550 0.57310 0.82390 -0.22700
H 	H 	0.89910 0.59410 0.86530 0.12000
C 	C 	0.84900 0.59350 0.78010 0.12800
H 	H 	0.81970 0.62760 0.79210 -0.00000
C 	C 	0.01470 0.52320 0.90350 0.19500
O 	O 	0.81100 0.24393 0.13440 -0.44900
O 	O 	0.88358 0.21200 0.05940 -0.34000
N 	N 	0.65230 0.01160 0.99790 -0.25600
H 	H 	0.66550 0.99410 0.96070 0.16300
N 	N 	0.57600 0.93120 0.98960 -0.18000
C 	C 	0.82930 0.20680 0.08720 0.37100
C 	C 	0.78150 0.15620 0.06510 -0.19300
C 	C 	0.79660 0.11470 0.01390 0.13400
H 	H 	0.83780 0.11870 0.99270 -0.01200
C 	C 	0.75360 0.06830 0.99350 -0.23600
H 	H 	0.76580 0.03940 0.95910 0.11400
C 	C 	0.69190 0.06220 0.02180 0.21500
C 	C 	0.67610 0.10450 0.07310 -0.22800
H 	H 	0.63470 0.10090 0.09410 0.12000
C 	C 	0.71990 0.15100 0.09350 0.12900
H 	H 	0.70790 0.18030 0.12760 -0.00100
C 	C 	0.59650 0.98530 0.02320 0.19500
O 	O 	0.18900 0.74393 0.36560 -0.44900
O 	O 	0.11642 0.71200 0.44060 -0.34000
N 	N 	0.34770 0.51160 0.50210 -0.25600
H 	H 	0.33450 0.49410 0.53930 0.16300
N 	N 	0.42400 0.43120 0.51040 -0.18000
C 	C 	0.17070 0.70680 0.41280 0.37100
C 	C 	0.21850 0.65620 0.43490 -0.19200
C 	C 	0.20340 0.61470 0.48610 0.13200
H 	H 	0.16220 0.61870 0.50730 -0.01200
C 	C 	0.24640 0.56830 0.50650 -0.23400
H 	H 	0.23420 0.53940 0.54090 0.11300
C 	C 	0.30810 0.56220 0.47820 0.21400
C 	C 	0.32390 0.60450 0.42690 -0.22700
H 	H 	0.36530 0.60090 0.40590 0.12000
C 	C 	0.28010 0.65100 0.40650 0.12900
H 	H 	0.29210 0.68030 0.37240 -0.00000
C 	C 	0.40350 0.48530 0.47680 0.19500
O 	O 	0.31100 0.25607 0.86560 -0.44900
O 	O 	0.38358 0.28800 0.94060 -0.34000
N 	N 	0.15230 0.48840 0.00210 -0.25500
H 	H 	0.16550 0.50590 0.03930 0.16300
N 	N 	0.07600 0.56880 0.01040 -0.17900
C 	C 	0.32930 0.29320 0.91280 0.37000
C 	C 	0.28150 0.34380 0.93490 -0.19100
C 	C 	0.29660 0.38530 0.98610 0.13000
H 	H 	0.33780 0.38130 0.00730 -0.01100
C 	C 	0.25360 0.43170 0.00650 -0.23200
H 	H 	0.26580 0.46060 0.04090 0.11300
C 	C 	0.19190 0.43780 0.97820 0.21200
C 	C 	0.17610 0.39550 0.92690 -0.22600
H 	H 	0.13470 0.39910 0.90590 0.11900
C 	C 	0.21990 0.34900 0.90650 0.12700
H 	H 	0.20790 0.31970 0.87240 -0.00000
C 	C 	0.09650 0.51470 0.97680 0.19500
O 	O 	0.68900 0.75607 0.63440 -0.44900
O 	O 	0.61642 0.78800 0.55940 -0.34000
N 	N 	0.84770 0.98840 0.49790 -0.25600
H 	H 	0.83450 0.00590 0.46070 0.16300
N 	N 	0.92400 0.06880 0.48960 -0.18000
C 	C 	0.67070 0.79320 0.58720 0.37100
C 	C 	0.71850 0.84380 0.56510 -0.19200
C 	C 	0.70340 0.88530 0.51390 0.13200
H 	H 	0.66220 0.88130 0.49270 -0.01200
C 	C 	0.74640 0.93170 0.49350 -0.23400
H 	H 	0.73420 0.96060 0.45910 0.11300
C 	C 	0.80810 0.93780 0.52180 0.21400
C 	C 	0.82390 0.89550 0.57310 -0.22700
H 	H 	0.86530 0.89910 0.59410 0.12000
C 	C 	0.78010 0.84900 0.59350 0.12800
H 	H 	0.79210 0.81970 0.62760 -0.00000
C 	C 	0.90350 0.01470 0.52320 0.19500
Dy	Dy	0.15417 0.84583 0.34583 1.36900
Dy	Dy	0.34583 0.15417 0.84583 1.36900
Dy	Dy	0.84583 0.34583 0.15417 1.36900
Dy	Dy	0.65417 0.65417 0.65417 1.36900
O 	O 	0.23692 0.61815 0.18025 -0.50000
O 	O 	0.21108 0.53430 0.11563 -0.33800
N 	N 	0.00800 0.49040 0.34950 -0.25600
H 	H 	0.98930 0.45320 0.33830 0.15800
N 	N 	0.01130 0.57200 0.42940 -0.18000
C 	C 	0.20360 0.56760 0.16630 0.41000
C 	C 	0.15390 0.54760 0.21630 -0.19800
C 	C 	0.14830 0.58030 0.27460 0.12800
H 	H 	0.17720 0.61550 0.28400 -0.00200
C 	C 	0.10060 0.56250 0.32070 -0.22000
H 	H 	0.09710 0.58600 0.36080 0.12100
C 	C 	0.05820 0.51060 0.30790 0.20800
C 	C 	0.06350 0.47810 0.24800 -0.22500
H 	H 	0.03400 0.44350 0.23790 0.10000
C 	C 	0.11090 0.49560 0.20360 0.12200
H 	H 	0.11460 0.47200 0.16370 -0.01000
C 	C 	0.98340 0.51860 0.40400 0.20000
O 	O 	0.26308 0.38185 0.68025 -0.50000
O 	O 	0.28892 0.46570 0.61563 -0.33800
N 	N 	0.49200 0.50960 0.84950 -0.25600
H 	H 	0.51070 0.54680 0.83830 0.15800
N 	N 	0.48870 0.42800 0.92940 -0.18000
C 	C 	0.29640 0.43240 0.66630 0.41000
C 	C 	0.34610 0.45240 0.71630 -0.19800
C 	C 	0.35170 0.41970 0.77460 0.12800
H 	H 	0.32280 0.38450 0.78400 -0.00200
C 	C 	0.39940 0.43750 0.82070 -0.22000
H 	H 	0.40290 0.41400 0.86080 0.12100
C 	C 	0.44180 0.48940 0.80790 0.20800
C 	C 	0.43650 0.52190 0.74800 -0.22500
H 	H 	0.46600 0.55650 0.73790 0.10000
C 	C 	0.38910 0.50440 0.70360 0.12200
H 	H 	0.38540 0.52800 0.66370 -0.01000
C 	C 	0.51660 0.48140 0.90400 0.20000
O 	O 	0.76308 0.11815 0.31975 -0.50000
O 	O 	0.78892 0.03430 0.38437 -0.33800
N 	N 	0.99200 0.99040 0.15050 -0.25700
H 	H 	0.01070 0.95320 0.16170 0.15900
N 	N 	0.98870 0.07200 0.07060 -0.18100
C 	C 	0.79640 0.06760 0.33370 0.41000
C 	C 	0.84610 0.04760 0.28370 -0.19800
C 	C 	0.85170 0.08030 0.22540 0.12800
H 	H 	0.82280 0.11550 0.21600 -0.00200
C 	C 	0.89940 0.06250 0.17930 -0.22000
H 	H 	0.90290 0.08600 0.13920 0.12100
C 	C 	0.94180 0.01060 0.19210 0.20800
C 	C 	0.93650 0.97810 0.25200 -0.22500
H 	H 	0.96600 0.94350 0.26210 0.10000
C 	C 	0.88910 0.99560 0.29640 0.12200
H 	H 	0.88540 0.97200 0.33630 -0.01000
C 	C 	0.01660 0.01860 0.09600 0.20200
O 	O 	0.73692 0.88185 0.81975 -0.50000
O 	O 	0.71108 0.96570 0.88437 -0.33800
N 	N 	0.50800 0.00960 0.65050 -0.25600
H 	H 	0.48930 0.04680 0.66170 0.15800
N 	N 	0.51130 0.92800 0.57060 -0.18000
C 	C 	0.70360 0.93240 0.83370 0.41000
C 	C 	0.65390 0.95240 0.78370 -0.19800
C 	C 	0.64830 0.91970 0.72540 0.12700
H 	H 	0.67720 0.88450 0.71600 -0.00200
C 	C 	0.60060 0.93750 0.67930 -0.22000
H 	H 	0.59710 0.91400 0.63920 0.12000
C 	C 	0.55820 0.98940 0.69210 0.20800
C 	C 	0.56350 0.02190 0.75200 -0.22500
H 	H 	0.53400 0.05650 0.76210 0.10000
C 	C 	0.61090 0.00440 0.79640 0.12100
H 	H 	0.61460 0.02800 0.83630 -0.01000
C 	C 	0.48340 0.98140 0.59600 0.20000
O 	O 	0.18025 0.23692 0.61815 -0.50000
O 	O 	0.11563 0.21108 0.53430 -0.33800
N 	N 	0.34950 0.00800 0.49040 -0.25600
H 	H 	0.33830 0.98930 0.45320 0.15800
N 	N 	0.42940 0.01130 0.57200 -0.18000
C 	C 	0.16630 0.20360 0.56760 0.41000
C 	C 	0.21630 0.15390 0.54760 -0.19800
C 	C 	0.27460 0.14830 0.58030 0.12800
H 	H 	0.28400 0.17720 0.61550 -0.00200
C 	C 	0.32070 0.10060 0.56250 -0.22000
H 	H 	0.36080 0.09710 0.58600 0.12100
C 	C 	0.30790 0.05820 0.51060 0.20800
C 	C 	0.24800 0.06350 0.47810 -0.22500
H 	H 	0.23790 0.03400 0.44350 0.10000
C 	C 	0.20360 0.11090 0.49560 0.12200
H 	H 	0.16370 0.11460 0.47200 -0.01000
C 	C 	0.40400 0.98340 0.51860 0.20000
O 	O 	0.68025 0.26308 0.38185 -0.50000
O 	O 	0.61563 0.28892 0.46570 -0.33800
N 	N 	0.84950 0.49200 0.50960 -0.25600
H 	H 	0.83830 0.51070 0.54680 0.15800
N 	N 	0.92940 0.48870 0.42800 -0.18000
C 	C 	0.66630 0.29640 0.43240 0.41000
C 	C 	0.71630 0.34610 0.45240 -0.19800
C 	C 	0.77460 0.35170 0.41970 0.12800
H 	H 	0.78400 0.32280 0.38450 -0.00200
C 	C 	0.82070 0.39940 0.43750 -0.22000
H 	H 	0.86080 0.40290 0.41400 0.12100
C 	C 	0.80790 0.44180 0.48940 0.20800
C 	C 	0.74800 0.43650 0.52190 -0.22500
H 	H 	0.73790 0.46600 0.55650 0.10000
C 	C 	0.70360 0.38910 0.50440 0.12200
H 	H 	0.66370 0.38540 0.52800 -0.01000
C 	C 	0.90400 0.51660 0.48140 0.20000
O 	O 	0.31975 0.76308 0.11815 -0.50000
O 	O 	0.38437 0.78892 0.03430 -0.33800
N 	N 	0.15050 0.99200 0.99040 -0.25700
H 	H 	0.16170 0.01070 0.95320 0.15900
N 	N 	0.07060 0.98870 0.07200 -0.18100
C 	C 	0.33370 0.79640 0.06760 0.41000
C 	C 	0.28370 0.84610 0.04760 -0.19800
C 	C 	0.22540 0.85170 0.08030 0.12800
H 	H 	0.21600 0.82280 0.11550 -0.00200
C 	C 	0.17930 0.89940 0.06250 -0.22000
H 	H 	0.13920 0.90290 0.08600 0.12100
C 	C 	0.19210 0.94180 0.01060 0.20800
C 	C 	0.25200 0.93650 0.97810 -0.22500
H 	H 	0.26210 0.96600 0.94350 0.10000
C 	C 	0.29640 0.88910 0.99560 0.12200
H 	H 	0.33630 0.88540 0.97200 -0.01000
C 	C 	0.09600 0.01660 0.01860 0.20200
O 	O 	0.81975 0.73692 0.88185 -0.50000
O 	O 	0.88437 0.71108 0.96570 -0.33800
N 	N 	0.65050 0.50800 0.00960 -0.25600
H 	H 	0.66170 0.48930 0.04680 0.15800
N 	N 	0.57060 0.51130 0.92800 -0.18000
C 	C 	0.83370 0.70360 0.93240 0.41000
C 	C 	0.78370 0.65390 0.95240 -0.19800
C 	C 	0.72540 0.64830 0.91970 0.12700
H 	H 	0.71600 0.67720 0.88450 -0.00200
C 	C 	0.67930 0.60060 0.93750 -0.22000
H 	H 	0.63920 0.59710 0.91400 0.12000
C 	C 	0.69210 0.55820 0.98940 0.20800
C 	C 	0.75200 0.56350 0.02190 -0.22500
H 	H 	0.76210 0.53400 0.05650 0.10000
C 	C 	0.79640 0.61090 0.00440 0.12100
H 	H 	0.83630 0.61460 0.02800 -0.01000
C 	C 	0.59600 0.48340 0.98140 0.20000
O 	O 	0.61815 0.18025 0.23692 -0.50000
O 	O 	0.53430 0.11563 0.21108 -0.33800
N 	N 	0.49040 0.34950 0.00800 -0.25600
H 	H 	0.45320 0.33830 0.98930 0.15800
N 	N 	0.57200 0.42940 0.01130 -0.18000
C 	C 	0.56760 0.16630 0.20360 0.41000
C 	C 	0.54760 0.21630 0.15390 -0.19800
C 	C 	0.58030 0.27460 0.14830 0.12800
H 	H 	0.61550 0.28400 0.17720 -0.00200
C 	C 	0.56250 0.32070 0.10060 -0.22000
H 	H 	0.58600 0.36080 0.09710 0.12100
C 	C 	0.51060 0.30790 0.05820 0.20800
C 	C 	0.47810 0.24800 0.06350 -0.22500
H 	H 	0.44350 0.23790 0.03400 0.10000
C 	C 	0.49560 0.20360 0.11090 0.12200
H 	H 	0.47200 0.16370 0.11460 -0.01000
C 	C 	0.51860 0.40400 0.98340 0.20000
O 	O 	0.38185 0.68025 0.26308 -0.50000
O 	O 	0.46570 0.61563 0.28892 -0.33800
N 	N 	0.50960 0.84950 0.49200 -0.25600
H 	H 	0.54680 0.83830 0.51070 0.15800
N 	N 	0.42800 0.92940 0.48870 -0.18000
C 	C 	0.43240 0.66630 0.29640 0.41000
C 	C 	0.45240 0.71630 0.34610 -0.19800
C 	C 	0.41970 0.77460 0.35170 0.12800
H 	H 	0.38450 0.78400 0.32280 -0.00200
C 	C 	0.43750 0.82070 0.39940 -0.22000
H 	H 	0.41400 0.86080 0.40290 0.12100
C 	C 	0.48940 0.80790 0.44180 0.20800
C 	C 	0.52190 0.74800 0.43650 -0.22500
H 	H 	0.55650 0.73790 0.46600 0.10000
C 	C 	0.50440 0.70360 0.38910 0.12200
H 	H 	0.52800 0.66370 0.38540 -0.01000
C 	C 	0.48140 0.90400 0.51660 0.20000
O 	O 	0.11815 0.31975 0.76308 -0.50000
O 	O 	0.03430 0.38437 0.78892 -0.33800
N 	N 	0.99040 0.15050 0.99200 -0.25700
H 	H 	0.95320 0.16170 0.01070 0.15900
N 	N 	0.07200 0.07060 0.98870 -0.18100
C 	C 	0.06760 0.33370 0.79640 0.41000
C 	C 	0.04760 0.28370 0.84610 -0.19800
C 	C 	0.08030 0.22540 0.85170 0.12800
H 	H 	0.11550 0.21600 0.82280 -0.00200
C 	C 	0.06250 0.17930 0.89940 -0.22000
H 	H 	0.08600 0.13920 0.90290 0.12100
C 	C 	0.01060 0.19210 0.94180 0.20800
C 	C 	0.97810 0.25200 0.93650 -0.22500
H 	H 	0.94350 0.26210 0.96600 0.10000
C 	C 	0.99560 0.29640 0.88910 0.12200
H 	H 	0.97200 0.33630 0.88540 -0.01000
C 	C 	0.01860 0.09600 0.01660 0.20200
O 	O 	0.88185 0.81975 0.73692 -0.50000
O 	O 	0.96570 0.88437 0.71108 -0.33800
N 	N 	0.00960 0.65050 0.50800 -0.25600
H 	H 	0.04680 0.66170 0.48930 0.15800
N 	N 	0.92800 0.57060 0.51130 -0.18000
C 	C 	0.93240 0.83370 0.70360 0.41000
C 	C 	0.95240 0.78370 0.65390 -0.19800
C 	C 	0.91970 0.72540 0.64830 0.12700
H 	H 	0.88450 0.71600 0.67720 -0.00200
C 	C 	0.93750 0.67930 0.60060 -0.22000
H 	H 	0.91400 0.63920 0.59710 0.12000
C 	C 	0.98940 0.69210 0.55820 0.20800
C 	C 	0.02190 0.75200 0.56350 -0.22500
H 	H 	0.05650 0.76210 0.53400 0.10000
C 	C 	0.00440 0.79640 0.61090 0.12100
H 	H 	0.02800 0.83630 0.61460 -0.01000
C 	C 	0.98140 0.59600 0.48340 0.20000
Dy	Dy	0.33333 0.66667 0.16667 1.44200
Dy	Dy	0.16667 0.33333 0.66667 1.44200
Dy	Dy	0.66667 0.16667 0.33333 1.44200
Dy	Dy	0.83333 0.83333 0.83333 1.44100
