data_crystal

_cell_length_a 20.42500
_cell_length_b 20.42500
_cell_length_c 20.42500
_cell_angle_alpha 90.00000
_cell_angle_beta  90.00000
_cell_angle_gamma 90.00000

_symmetry_space_group_name_	'P 1'
_symmetry_space_group_name_H-M	'P 1'

loop_
_symmetry_equiv_pos_as_xyz
  x,y,z

loop_
_atom_site_label
_atom_site_type_symbol
_atom_site_fract_x
_atom_site_fract_y
_atom_site_fract_z
_atom_site_charge
O 	O 	0.13320 0.80840 0.24500 -0.42200
O 	O 	0.06250 0.88220 0.21440 -0.34600
N 	N 	0.99920 0.65560 0.00920 -0.25500
H 	H 	0.96330 0.67030 0.99070 0.16800
N 	N 	0.99150 0.57800 0.92940 -0.17600
C 	C 	0.08760 0.82800 0.20900 0.39300
C 	C 	0.06610 0.78140 0.15610 -0.20000
C 	C 	0.01730 0.79740 0.11400 0.14200
H 	H 	0.99780 0.83950 0.11710 -0.01200
C 	C 	0.99530 0.75500 0.06750 -0.23400
H 	H 	0.96060 0.76770 0.03930 0.11600
C 	C 	0.02380 0.69220 0.06070 0.22000
C 	C 	0.07430 0.67660 0.10370 -0.23900
H 	H 	0.09520 0.63520 0.10030 0.12600
C 	C 	0.09390 0.71890 0.14990 0.14300
H 	H 	0.12760 0.70620 0.17940 0.00000
C 	C 	0.02520 0.59790 0.98350 0.19200
O 	O 	0.36680 0.19160 0.74500 -0.42200
O 	O 	0.43750 0.11780 0.71440 -0.34600
N 	N 	0.50080 0.34440 0.50920 -0.25400
H 	H 	0.53670 0.32970 0.49070 0.16800
N 	N 	0.50850 0.42200 0.42940 -0.17600
C 	C 	0.41240 0.17200 0.70900 0.39300
C 	C 	0.43390 0.21860 0.65610 -0.19900
C 	C 	0.48270 0.20260 0.61400 0.14100
H 	H 	0.50220 0.16050 0.61710 -0.01200
C 	C 	0.50470 0.24500 0.56750 -0.23300
H 	H 	0.53940 0.23230 0.53930 0.11400
C 	C 	0.47620 0.30780 0.56070 0.21800
C 	C 	0.42570 0.32340 0.60370 -0.23900
H 	H 	0.40480 0.36480 0.60030 0.12500
C 	C 	0.40610 0.28110 0.64990 0.14100
H 	H 	0.37240 0.29380 0.67940 -0.00100
C 	C 	0.47480 0.40210 0.48350 0.19100
O 	O 	0.86680 0.30840 0.25500 -0.42300
O 	O 	0.93750 0.38220 0.28560 -0.34700
N 	N 	0.00080 0.15560 0.49080 -0.25500
H 	H 	0.03670 0.17030 0.50930 0.16700
N 	N 	0.00850 0.07800 0.57060 -0.17600
C 	C 	0.91240 0.32800 0.29100 0.39100
C 	C 	0.93390 0.28140 0.34390 -0.19900
C 	C 	0.98270 0.29740 0.38600 0.13700
H 	H 	0.00220 0.33950 0.38290 -0.01200
C 	C 	0.00470 0.25500 0.43250 -0.23100
H 	H 	0.03940 0.26770 0.46070 0.11300
C 	C 	0.97620 0.19220 0.43930 0.21700
C 	C 	0.92570 0.17660 0.39630 -0.23800
H 	H 	0.90480 0.13520 0.39970 0.12500
C 	C 	0.90610 0.21890 0.35010 0.14000
H 	H 	0.87240 0.20620 0.32060 -0.00100
C 	C 	0.97480 0.09790 0.51650 0.19000
O 	O 	0.63320 0.69160 0.75500 -0.42300
O 	O 	0.56250 0.61780 0.78560 -0.34700
N 	N 	0.49920 0.84440 0.99080 -0.25500
H 	H 	0.46330 0.82970 0.00930 0.16700
N 	N 	0.49150 0.92200 0.07060 -0.17700
C 	C 	0.58760 0.67200 0.79100 0.39200
C 	C 	0.56610 0.71860 0.84390 -0.20000
C 	C 	0.51730 0.70260 0.88600 0.13900
H 	H 	0.49780 0.66050 0.88290 -0.01300
C 	C 	0.49530 0.74500 0.93250 -0.23300
H 	H 	0.46060 0.73230 0.96070 0.11400
C 	C 	0.52380 0.80780 0.93930 0.21800
C 	C 	0.57430 0.82340 0.89630 -0.23900
H 	H 	0.59520 0.86480 0.89970 0.12500
C 	C 	0.59390 0.78110 0.85010 0.14100
H 	H 	0.62760 0.79380 0.82060 -0.00100
C 	C 	0.52520 0.90210 0.01650 0.19100
O 	O 	0.24500 0.13320 0.80840 -0.42300
O 	O 	0.21440 0.06250 0.88220 -0.34700
N 	N 	0.00920 0.99920 0.65560 -0.25600
H 	H 	0.99070 0.96330 0.67030 0.16700
N 	N 	0.92940 0.99150 0.57800 -0.17700
C 	C 	0.20900 0.08760 0.82800 0.39200
C 	C 	0.15610 0.06610 0.78140 -0.20100
C 	C 	0.11400 0.01730 0.79740 0.14100
H 	H 	0.11710 0.99780 0.83950 -0.01300
C 	C 	0.06750 0.99530 0.75500 -0.23500
H 	H 	0.03930 0.96060 0.76770 0.11500
C 	C 	0.06070 0.02380 0.69220 0.21900
C 	C 	0.10370 0.07430 0.67660 -0.24000
H 	H 	0.10030 0.09520 0.63520 0.12500
C 	C 	0.14990 0.09390 0.71890 0.14200
H 	H 	0.17940 0.12760 0.70620 -0.00100
C 	C 	0.98350 0.02520 0.59790 0.19100
O 	O 	0.74500 0.36680 0.19160 -0.42300
O 	O 	0.71440 0.43750 0.11780 -0.34700
N 	N 	0.50920 0.50080 0.34440 -0.25500
H 	H 	0.49070 0.53670 0.32970 0.16700
N 	N 	0.42940 0.50850 0.42200 -0.17700
C 	C 	0.70900 0.41240 0.17200 0.39200
C 	C 	0.65610 0.43390 0.21860 -0.20000
C 	C 	0.61400 0.48270 0.20260 0.14000
H 	H 	0.61710 0.50220 0.16050 -0.01300
C 	C 	0.56750 0.50470 0.24500 -0.23300
H 	H 	0.53930 0.53940 0.23230 0.11400
C 	C 	0.56070 0.47620 0.30780 0.21800
C 	C 	0.60370 0.42570 0.32340 -0.23900
H 	H 	0.60030 0.40480 0.36480 0.12500
C 	C 	0.64990 0.40610 0.28110 0.14100
H 	H 	0.67940 0.37240 0.29380 -0.00100
C 	C 	0.48350 0.47480 0.40210 0.19100
O 	O 	0.25500 0.86680 0.30840 -0.42300
O 	O 	0.28560 0.93750 0.38220 -0.34700
N 	N 	0.49080 0.00080 0.15560 -0.25500
H 	H 	0.50930 0.03670 0.17030 0.16700
N 	N 	0.57060 0.00850 0.07800 -0.17600
C 	C 	0.29100 0.91240 0.32800 0.39100
C 	C 	0.34390 0.93390 0.28140 -0.19900
C 	C 	0.38600 0.98270 0.29740 0.13700
H 	H 	0.38290 0.00220 0.33950 -0.01200
C 	C 	0.43250 0.00470 0.25500 -0.23100
H 	H 	0.46070 0.03940 0.26770 0.11300
C 	C 	0.43930 0.97620 0.19220 0.21700
C 	C 	0.39630 0.92570 0.17660 -0.23800
H 	H 	0.39970 0.90480 0.13520 0.12500
C 	C 	0.35010 0.90610 0.21890 0.14000
H 	H 	0.32060 0.87240 0.20620 -0.00100
C 	C 	0.51650 0.97480 0.09790 0.19000
O 	O 	0.75500 0.63320 0.69160 -0.42300
O 	O 	0.78560 0.56250 0.61780 -0.34700
N 	N 	0.99080 0.49920 0.84440 -0.25500
H 	H 	0.00930 0.46330 0.82970 0.16700
N 	N 	0.07060 0.49150 0.92200 -0.17700
C 	C 	0.79100 0.58760 0.67200 0.39200
C 	C 	0.84390 0.56610 0.71860 -0.20000
C 	C 	0.88600 0.51730 0.70260 0.13900
H 	H 	0.88290 0.49780 0.66050 -0.01300
C 	C 	0.93250 0.49530 0.74500 -0.23300
H 	H 	0.96070 0.46060 0.73230 0.11400
C 	C 	0.93930 0.52380 0.80780 0.21800
C 	C 	0.89630 0.57430 0.82340 -0.23900
H 	H 	0.89970 0.59520 0.86480 0.12500
C 	C 	0.85010 0.59390 0.78110 0.14100
H 	H 	0.82060 0.62760 0.79380 -0.00100
C 	C 	0.01650 0.52520 0.90210 0.19100
O 	O 	0.80840 0.24500 0.13320 -0.42300
O 	O 	0.88220 0.21440 0.06250 -0.34700
N 	N 	0.65560 0.00920 0.99920 -0.25600
H 	H 	0.67030 0.99070 0.96330 0.16700
N 	N 	0.57800 0.92940 0.99150 -0.17700
C 	C 	0.82800 0.20900 0.08760 0.39200
C 	C 	0.78140 0.15610 0.06610 -0.20100
C 	C 	0.79740 0.11400 0.01730 0.14100
H 	H 	0.83950 0.11710 0.99780 -0.01300
C 	C 	0.75500 0.06750 0.99530 -0.23500
H 	H 	0.76770 0.03930 0.96060 0.11500
C 	C 	0.69220 0.06070 0.02380 0.21900
C 	C 	0.67660 0.10370 0.07430 -0.24000
H 	H 	0.63520 0.10030 0.09520 0.12500
C 	C 	0.71890 0.14990 0.09390 0.14200
H 	H 	0.70620 0.17940 0.12760 -0.00100
C 	C 	0.59790 0.98350 0.02520 0.19100
O 	O 	0.19160 0.74500 0.36680 -0.42300
O 	O 	0.11780 0.71440 0.43750 -0.34700
N 	N 	0.34440 0.50920 0.50080 -0.25500
H 	H 	0.32970 0.49070 0.53670 0.16700
N 	N 	0.42200 0.42940 0.50850 -0.17700
C 	C 	0.17200 0.70900 0.41240 0.39200
C 	C 	0.21860 0.65610 0.43390 -0.20000
C 	C 	0.20260 0.61400 0.48270 0.14000
H 	H 	0.16050 0.61710 0.50220 -0.01300
C 	C 	0.24500 0.56750 0.50470 -0.23300
H 	H 	0.23230 0.53930 0.53940 0.11400
C 	C 	0.30780 0.56070 0.47620 0.21800
C 	C 	0.32340 0.60370 0.42570 -0.23900
H 	H 	0.36480 0.60030 0.40480 0.12500
C 	C 	0.28110 0.64990 0.40610 0.14100
H 	H 	0.29380 0.67940 0.37240 -0.00100
C 	C 	0.40210 0.48350 0.47480 0.19100
O 	O 	0.30840 0.25500 0.86680 -0.42300
O 	O 	0.38220 0.28560 0.93750 -0.34700
N 	N 	0.15560 0.49080 0.00080 -0.25500
H 	H 	0.17030 0.50930 0.03670 0.16700
N 	N 	0.07800 0.57060 0.00850 -0.17600
C 	C 	0.32800 0.29100 0.91240 0.39100
C 	C 	0.28140 0.34390 0.93390 -0.19900
C 	C 	0.29740 0.38600 0.98270 0.13700
H 	H 	0.33950 0.38290 0.00220 -0.01200
C 	C 	0.25500 0.43250 0.00470 -0.23100
H 	H 	0.26770 0.46070 0.03940 0.11300
C 	C 	0.19220 0.43930 0.97620 0.21700
C 	C 	0.17660 0.39630 0.92570 -0.23800
H 	H 	0.13520 0.39970 0.90480 0.12500
C 	C 	0.21890 0.35010 0.90610 0.14000
H 	H 	0.20620 0.32060 0.87240 -0.00100
C 	C 	0.09790 0.51650 0.97480 0.19000
O 	O 	0.69160 0.75500 0.63320 -0.42300
O 	O 	0.61780 0.78560 0.56250 -0.34700
N 	N 	0.84440 0.99080 0.49920 -0.25500
H 	H 	0.82970 0.00930 0.46330 0.16700
N 	N 	0.92200 0.07060 0.49150 -0.17700
C 	C 	0.67200 0.79100 0.58760 0.39200
C 	C 	0.71860 0.84390 0.56610 -0.20000
C 	C 	0.70260 0.88600 0.51730 0.13900
H 	H 	0.66050 0.88290 0.49780 -0.01300
C 	C 	0.74500 0.93250 0.49530 -0.23300
H 	H 	0.73230 0.96070 0.46060 0.11400
C 	C 	0.80780 0.93930 0.52380 0.21800
C 	C 	0.82340 0.89630 0.57430 -0.23900
H 	H 	0.86480 0.89970 0.59520 0.12500
C 	C 	0.78110 0.85010 0.59390 0.14100
H 	H 	0.79380 0.82060 0.62760 -0.00100
C 	C 	0.90210 0.01650 0.52520 0.19100
Gd	Gd	0.15252 0.84748 0.34748 1.21800
Gd	Gd	0.34748 0.15252 0.84748 1.21800
Gd	Gd	0.84748 0.34748 0.15252 1.21800
Gd	Gd	0.65252 0.65252 0.65252 1.21800
O 	O 	0.23550 0.61720 0.17880 -0.45600
O 	O 	0.20990 0.53200 0.11560 -0.32600
N 	N 	0.00620 0.49160 0.34850 -0.25600
H 	H 	0.98690 0.45480 0.33710 0.15700
N 	N 	0.01040 0.57300 0.42770 -0.17800
C 	C 	0.20310 0.56550 0.16660 0.39500
C 	C 	0.15250 0.54610 0.21510 -0.20500
C 	C 	0.14660 0.57890 0.27340 0.13900
H 	H 	0.17580 0.61390 0.28270 -0.00400
C 	C 	0.09970 0.56270 0.31890 -0.23000
H 	H 	0.09640 0.58680 0.35850 0.12500
C 	C 	0.05720 0.51080 0.30660 0.21300
C 	C 	0.06240 0.47800 0.24680 -0.23400
H 	H 	0.03300 0.44340 0.23670 0.10600
C 	C 	0.10970 0.49540 0.20300 0.13700
H 	H 	0.11320 0.47200 0.16300 -0.01100
C 	C 	0.98200 0.51910 0.40250 0.20100
O 	O 	0.26450 0.38280 0.67880 -0.45600
O 	O 	0.29010 0.46800 0.61560 -0.32600
N 	N 	0.49380 0.50840 0.84850 -0.25700
H 	H 	0.51310 0.54520 0.83710 0.15800
N 	N 	0.48960 0.42700 0.92770 -0.17800
C 	C 	0.29690 0.43450 0.66660 0.39500
C 	C 	0.34750 0.45390 0.71510 -0.20500
C 	C 	0.35340 0.42110 0.77340 0.13900
H 	H 	0.32420 0.38610 0.78270 -0.00400
C 	C 	0.40030 0.43730 0.81890 -0.23100
H 	H 	0.40360 0.41320 0.85850 0.12500
C 	C 	0.44280 0.48920 0.80660 0.21300
C 	C 	0.43760 0.52200 0.74680 -0.23400
H 	H 	0.46700 0.55660 0.73670 0.10600
C 	C 	0.39030 0.50460 0.70300 0.13700
H 	H 	0.38680 0.52800 0.66300 -0.01200
C 	C 	0.51800 0.48090 0.90250 0.20100
O 	O 	0.76450 0.11720 0.32120 -0.45600
O 	O 	0.79010 0.03200 0.38440 -0.32600
N 	N 	0.99380 0.99160 0.15150 -0.25700
H 	H 	0.01310 0.95480 0.16290 0.15800
N 	N 	0.98960 0.07300 0.07230 -0.17900
C 	C 	0.79690 0.06550 0.33340 0.39500
C 	C 	0.84750 0.04610 0.28490 -0.20500
C 	C 	0.85340 0.07890 0.22660 0.14000
H 	H 	0.82420 0.11390 0.21730 -0.00400
C 	C 	0.90030 0.06270 0.18110 -0.23100
H 	H 	0.90360 0.08680 0.14150 0.12500
C 	C 	0.94280 0.01080 0.19340 0.21400
C 	C 	0.93760 0.97800 0.25320 -0.23400
H 	H 	0.96700 0.94340 0.26330 0.10600
C 	C 	0.89030 0.99540 0.29700 0.13700
H 	H 	0.88680 0.97200 0.33700 -0.01200
C 	C 	0.01800 0.01910 0.09750 0.20300
O 	O 	0.73550 0.88280 0.82120 -0.45600
O 	O 	0.70990 0.96800 0.88440 -0.32600
N 	N 	0.50620 0.00840 0.65150 -0.25700
H 	H 	0.48690 0.04520 0.66290 0.15800
N 	N 	0.51040 0.92700 0.57230 -0.17800
C 	C 	0.70310 0.93450 0.83340 0.39500
C 	C 	0.65250 0.95390 0.78490 -0.20500
C 	C 	0.64660 0.92110 0.72660 0.13900
H 	H 	0.67580 0.88610 0.71730 -0.00400
C 	C 	0.59970 0.93730 0.68110 -0.23000
H 	H 	0.59640 0.91320 0.64150 0.12500
C 	C 	0.55720 0.98920 0.69340 0.21300
C 	C 	0.56240 0.02200 0.75320 -0.23400
H 	H 	0.53300 0.05660 0.76330 0.10600
C 	C 	0.60970 0.00460 0.79700 0.13600
H 	H 	0.61320 0.02800 0.83700 -0.01200
C 	C 	0.48200 0.98090 0.59750 0.20100
O 	O 	0.17880 0.23550 0.61720 -0.45600
O 	O 	0.11560 0.20990 0.53200 -0.32600
N 	N 	0.34850 0.00620 0.49160 -0.25600
H 	H 	0.33710 0.98690 0.45480 0.15700
N 	N 	0.42770 0.01040 0.57300 -0.17800
C 	C 	0.16660 0.20310 0.56550 0.39500
C 	C 	0.21510 0.15250 0.54610 -0.20500
C 	C 	0.27340 0.14660 0.57890 0.13900
H 	H 	0.28270 0.17580 0.61390 -0.00400
C 	C 	0.31890 0.09970 0.56270 -0.23000
H 	H 	0.35850 0.09640 0.58680 0.12500
C 	C 	0.30660 0.05720 0.51080 0.21300
C 	C 	0.24680 0.06240 0.47800 -0.23400
H 	H 	0.23670 0.03300 0.44340 0.10600
C 	C 	0.20300 0.10970 0.49540 0.13700
H 	H 	0.16300 0.11320 0.47200 -0.01100
C 	C 	0.40250 0.98200 0.51910 0.20100
O 	O 	0.67880 0.26450 0.38280 -0.45600
O 	O 	0.61560 0.29010 0.46800 -0.32600
N 	N 	0.84850 0.49380 0.50840 -0.25700
H 	H 	0.83710 0.51310 0.54520 0.15800
N 	N 	0.92770 0.48960 0.42700 -0.17800
C 	C 	0.66660 0.29690 0.43450 0.39500
C 	C 	0.71510 0.34750 0.45390 -0.20500
C 	C 	0.77340 0.35340 0.42110 0.13900
H 	H 	0.78270 0.32420 0.38610 -0.00400
C 	C 	0.81890 0.40030 0.43730 -0.23100
H 	H 	0.85850 0.40360 0.41320 0.12500
C 	C 	0.80660 0.44280 0.48920 0.21300
C 	C 	0.74680 0.43760 0.52200 -0.23400
H 	H 	0.73670 0.46700 0.55660 0.10600
C 	C 	0.70300 0.39030 0.50460 0.13700
H 	H 	0.66300 0.38680 0.52800 -0.01200
C 	C 	0.90250 0.51800 0.48090 0.20100
O 	O 	0.32120 0.76450 0.11720 -0.45600
O 	O 	0.38440 0.79010 0.03200 -0.32600
N 	N 	0.15150 0.99380 0.99160 -0.25700
H 	H 	0.16290 0.01310 0.95480 0.15800
N 	N 	0.07230 0.98960 0.07300 -0.17900
C 	C 	0.33340 0.79690 0.06550 0.39500
C 	C 	0.28490 0.84750 0.04610 -0.20500
C 	C 	0.22660 0.85340 0.07890 0.14000
H 	H 	0.21730 0.82420 0.11390 -0.00400
C 	C 	0.18110 0.90030 0.06270 -0.23100
H 	H 	0.14150 0.90360 0.08680 0.12500
C 	C 	0.19340 0.94280 0.01080 0.21400
C 	C 	0.25320 0.93760 0.97800 -0.23400
H 	H 	0.26330 0.96700 0.94340 0.10600
C 	C 	0.29700 0.89030 0.99540 0.13700
H 	H 	0.33700 0.88680 0.97200 -0.01200
C 	C 	0.09750 0.01800 0.01910 0.20300
O 	O 	0.82120 0.73550 0.88280 -0.45600
O 	O 	0.88440 0.70990 0.96800 -0.32600
N 	N 	0.65150 0.50620 0.00840 -0.25700
H 	H 	0.66290 0.48690 0.04520 0.15800
N 	N 	0.57230 0.51040 0.92700 -0.17800
C 	C 	0.83340 0.70310 0.93450 0.39500
C 	C 	0.78490 0.65250 0.95390 -0.20500
C 	C 	0.72660 0.64660 0.92110 0.13900
H 	H 	0.71730 0.67580 0.88610 -0.00400
C 	C 	0.68110 0.59970 0.93730 -0.23000
H 	H 	0.64150 0.59640 0.91320 0.12500
C 	C 	0.69340 0.55720 0.98920 0.21300
C 	C 	0.75320 0.56240 0.02200 -0.23400
H 	H 	0.76330 0.53300 0.05660 0.10600
C 	C 	0.79700 0.60970 0.00460 0.13600
H 	H 	0.83700 0.61320 0.02800 -0.01200
C 	C 	0.59750 0.48200 0.98090 0.20100
O 	O 	0.61720 0.17880 0.23550 -0.45600
O 	O 	0.53200 0.11560 0.20990 -0.32600
N 	N 	0.49160 0.34850 0.00620 -0.25600
H 	H 	0.45480 0.33710 0.98690 0.15700
N 	N 	0.57300 0.42770 0.01040 -0.17800
C 	C 	0.56550 0.16660 0.20310 0.39500
C 	C 	0.54610 0.21510 0.15250 -0.20500
C 	C 	0.57890 0.27340 0.14660 0.13900
H 	H 	0.61390 0.28270 0.17580 -0.00400
C 	C 	0.56270 0.31890 0.09970 -0.23000
H 	H 	0.58680 0.35850 0.09640 0.12500
C 	C 	0.51080 0.30660 0.05720 0.21300
C 	C 	0.47800 0.24680 0.06240 -0.23400
H 	H 	0.44340 0.23670 0.03300 0.10600
C 	C 	0.49540 0.20300 0.10970 0.13700
H 	H 	0.47200 0.16300 0.11320 -0.01100
C 	C 	0.51910 0.40250 0.98200 0.20100
O 	O 	0.38280 0.67880 0.26450 -0.45600
O 	O 	0.46800 0.61560 0.29010 -0.32600
N 	N 	0.50840 0.84850 0.49380 -0.25700
H 	H 	0.54520 0.83710 0.51310 0.15800
N 	N 	0.42700 0.92770 0.48960 -0.17800
C 	C 	0.43450 0.66660 0.29690 0.39500
C 	C 	0.45390 0.71510 0.34750 -0.20500
C 	C 	0.42110 0.77340 0.35340 0.13900
H 	H 	0.38610 0.78270 0.32420 -0.00400
C 	C 	0.43730 0.81890 0.40030 -0.23100
H 	H 	0.41320 0.85850 0.40360 0.12500
C 	C 	0.48920 0.80660 0.44280 0.21300
C 	C 	0.52200 0.74680 0.43760 -0.23400
H 	H 	0.55660 0.73670 0.46700 0.10600
C 	C 	0.50460 0.70300 0.39030 0.13700
H 	H 	0.52800 0.66300 0.38680 -0.01200
C 	C 	0.48090 0.90250 0.51800 0.20100
O 	O 	0.11720 0.32120 0.76450 -0.45600
O 	O 	0.03200 0.38440 0.79010 -0.32600
N 	N 	0.99160 0.15150 0.99380 -0.25700
H 	H 	0.95480 0.16290 0.01310 0.15800
N 	N 	0.07300 0.07230 0.98960 -0.17900
C 	C 	0.06550 0.33340 0.79690 0.39500
C 	C 	0.04610 0.28490 0.84750 -0.20500
C 	C 	0.07890 0.22660 0.85340 0.14000
H 	H 	0.11390 0.21730 0.82420 -0.00400
C 	C 	0.06270 0.18110 0.90030 -0.23100
H 	H 	0.08680 0.14150 0.90360 0.12500
C 	C 	0.01080 0.19340 0.94280 0.21400
C 	C 	0.97800 0.25320 0.93760 -0.23400
H 	H 	0.94340 0.26330 0.96700 0.10600
C 	C 	0.99540 0.29700 0.89030 0.13700
H 	H 	0.97200 0.33700 0.88680 -0.01200
C 	C 	0.01910 0.09750 0.01800 0.20300
O 	O 	0.88280 0.82120 0.73550 -0.45600
O 	O 	0.96800 0.88440 0.70990 -0.32600
N 	N 	0.00840 0.65150 0.50620 -0.25700
H 	H 	0.04520 0.66290 0.48690 0.15800
N 	N 	0.92700 0.57230 0.51040 -0.17800
C 	C 	0.93450 0.83340 0.70310 0.39500
C 	C 	0.95390 0.78490 0.65250 -0.20500
C 	C 	0.92110 0.72660 0.64660 0.13900
H 	H 	0.88610 0.71730 0.67580 -0.00400
C 	C 	0.93730 0.68110 0.59970 -0.23000
H 	H 	0.91320 0.64150 0.59640 0.12500
C 	C 	0.98920 0.69340 0.55720 0.21300
C 	C 	0.02200 0.75320 0.56240 -0.23400
H 	H 	0.05660 0.76330 0.53300 0.10600
C 	C 	0.00460 0.79700 0.60970 0.13600
H 	H 	0.02800 0.83700 0.61320 -0.01200
C 	C 	0.98090 0.59750 0.48200 0.20100
Gd	Gd	0.33384 0.66616 0.16616 1.26200
Gd	Gd	0.16616 0.33384 0.66616 1.26200
Gd	Gd	0.66616 0.16616 0.33384 1.26200
Gd	Gd	0.83384 0.83384 0.83384 1.26100
