data_crystal

_cell_length_a 12.78270
_cell_length_b 12.78270
_cell_length_c 7.50500
_cell_angle_alpha 90.00000
_cell_angle_beta  90.00000
_cell_angle_gamma 90.00000

_symmetry_space_group_name_	'P 1'
_symmetry_space_group_name_H-M	'P 1'

loop_
_symmetry_equiv_pos_as_xyz
  x,y,z

loop_
_atom_site_label
_atom_site_type_symbol
_atom_site_fract_x
_atom_site_fract_y
_atom_site_fract_z
_atom_site_charge
O 	O 	0.53590 0.77320 0.17500 -0.42000
O 	O 	0.35650 0.75430 0.18300 -0.51600
C 	C 	0.44660 0.75980 0.10600 0.12000
H 	H 	0.65400 0.02700 0.09800 0.14800
H 	H 	0.47100 0.00100 0.04000 -0.05600
O 	O 	0.03590 0.27320 0.67500 -0.41100
O 	O 	0.85650 0.25430 0.68300 -0.48800
C 	C 	0.94660 0.25980 0.60600 0.23000
H 	H 	0.15400 0.52700 0.59800 0.14000
H 	H 	0.97100 0.50100 0.54000 0.05500
O 	O 	0.46410 0.22680 0.17500 -0.42000
O 	O 	0.64350 0.24570 0.18300 -0.51600
C 	C 	0.55340 0.24020 0.10600 0.12000
H 	H 	0.34600 0.97300 0.09800 0.14800
H 	H 	0.52900 0.99900 0.04000 -0.05600
O 	O 	0.96410 0.72680 0.67500 -0.41100
O 	O 	0.14350 0.74570 0.68300 -0.48800
C 	C 	0.05340 0.74020 0.60600 0.23000
H 	H 	0.84600 0.47300 0.59800 0.14000
H 	H 	0.02900 0.49900 0.54000 0.05500
O 	O 	0.22680 0.53590 0.17500 -0.42000
O 	O 	0.24570 0.35650 0.18300 -0.51600
C 	C 	0.24020 0.44660 0.10600 0.12000
H 	H 	0.97300 0.65400 0.09800 0.14800
H 	H 	0.99900 0.47100 0.04000 -0.05600
O 	O 	0.72680 0.03590 0.67500 -0.41100
O 	O 	0.74570 0.85650 0.68300 -0.48800
C 	C 	0.74020 0.94660 0.60600 0.23000
H 	H 	0.47300 0.15400 0.59800 0.14000
H 	H 	0.49900 0.97100 0.54000 0.05500
O 	O 	0.77320 0.46410 0.17500 -0.42000
O 	O 	0.75430 0.64350 0.18300 -0.51600
C 	C 	0.75980 0.55340 0.10600 0.12000
H 	H 	0.02700 0.34600 0.09800 0.14800
H 	H 	0.00100 0.52900 0.04000 -0.05600
O 	O 	0.27320 0.96410 0.67500 -0.41100
O 	O 	0.25430 0.14350 0.68300 -0.48800
C 	C 	0.25980 0.05340 0.60600 0.23000
H 	H 	0.52700 0.84600 0.59800 0.14000
H 	H 	0.50100 0.02900 0.54000 0.05500
O 	O 	0.46410 0.22680 0.82500 -0.41100
O 	O 	0.64350 0.24570 0.81700 -0.50600
C 	C 	0.55340 0.24020 0.89400 0.34700
H 	H 	0.34600 0.97300 0.90200 0.23600
H 	H 	0.52900 0.99900 0.96000 0.21000
O 	O 	0.96410 0.72680 0.32500 -0.43700
O 	O 	0.14350 0.74570 0.31700 -0.52800
C 	C 	0.05340 0.74020 0.39400 0.23600
H 	H 	0.84600 0.47300 0.40200 0.14000
H 	H 	0.02900 0.49900 0.46000 0.05900
O 	O 	0.53590 0.77320 0.82500 -0.41100
O 	O 	0.35650 0.75430 0.81700 -0.50600
C 	C 	0.44660 0.75980 0.89400 0.34700
H 	H 	0.65400 0.02700 0.90200 0.23600
H 	H 	0.47100 0.00100 0.96000 0.21000
O 	O 	0.03590 0.27320 0.32500 -0.43700
O 	O 	0.85650 0.25430 0.31700 -0.52800
C 	C 	0.94660 0.25980 0.39400 0.23600
H 	H 	0.15400 0.52700 0.40200 0.14000
H 	H 	0.97100 0.50100 0.46000 0.05900
O 	O 	0.77320 0.46410 0.82500 -0.41100
O 	O 	0.75430 0.64350 0.81700 -0.50600
C 	C 	0.75980 0.55340 0.89400 0.34700
H 	H 	0.02700 0.34600 0.90200 0.23600
H 	H 	0.00100 0.52900 0.96000 0.21000
O 	O 	0.27320 0.96410 0.32500 -0.43700
O 	O 	0.25430 0.14350 0.31700 -0.52800
C 	C 	0.25980 0.05340 0.39400 0.23600
H 	H 	0.52700 0.84600 0.40200 0.14000
H 	H 	0.50100 0.02900 0.46000 0.05900
O 	O 	0.22680 0.53590 0.82500 -0.41100
O 	O 	0.24570 0.35650 0.81700 -0.50600
C 	C 	0.24020 0.44660 0.89400 0.34700
H 	H 	0.97300 0.65400 0.90200 0.23600
H 	H 	0.99900 0.47100 0.96000 0.21000
O 	O 	0.72680 0.03590 0.32500 -0.43700
O 	O 	0.74570 0.85650 0.31700 -0.52800
C 	C 	0.74020 0.94660 0.39400 0.23600
H 	H 	0.47300 0.15400 0.40200 0.14000
H 	H 	0.49900 0.97100 0.46000 0.05900
O 	O 	0.61400 0.98500 -0.00000 -0.66900
Sr	Sr	0.69820 0.80450 -0.00000 1.50500
O 	O 	0.11400 0.48500 0.50000 -0.51100
Sr	Sr	0.19820 0.30450 0.50000 1.52700
O 	O 	0.38600 0.01500 -0.00000 -0.66900
Sr	Sr	0.30180 0.19550 -0.00000 1.50500
O 	O 	0.88600 0.51500 0.50000 -0.51100
Sr	Sr	0.80180 0.69550 0.50000 1.52700
O 	O 	0.01500 0.61400 -0.00000 -0.66900
Sr	Sr	0.19550 0.69820 -0.00000 1.50500
O 	O 	0.51500 0.11400 0.50000 -0.51100
Sr	Sr	0.69550 0.19820 0.50000 1.52700
O 	O 	0.98500 0.38600 -0.00000 -0.66900
Sr	Sr	0.80450 0.30180 -0.00000 1.50500
O 	O 	0.48500 0.88600 0.50000 -0.51100
Sr	Sr	0.30450 0.80180 0.50000 1.52700
