data_crystal

_cell_length_a 12.45450
_cell_length_b 10.20800
_cell_length_c 6.70130
_cell_angle_alpha 107.47000
_cell_angle_beta  104.43200
_cell_angle_gamma 66.76100

_symmetry_space_group_name_	'P 1'
_symmetry_space_group_name_H-M	'P 1'

loop_
_symmetry_equiv_pos_as_xyz
  x,y,z

loop_
_atom_site_label
_atom_site_type_symbol
_atom_site_fract_x
_atom_site_fract_y
_atom_site_fract_z
_atom_site_charge
Ca	Ca	0.44420 0.10940 0.77150 1.49300
O 	O 	0.25870 0.08910 0.50140 -0.40800
O 	O 	0.52440 0.84480 0.84520 -0.60600
O 	O 	0.26210 0.07830 0.81980 -0.42500
O 	O 	0.50970 0.85900 0.53980 -0.62800
C 	C 	0.51300 0.78610 0.65670 0.51200
C 	C 	0.22020 0.05840 0.62920 0.35300
C 	C 	0.10990 0.03750 0.56430 -0.11800
C 	C 	0.51450 0.63630 0.57790 -0.18500
C 	C 	0.93100 0.01910 0.64760 0.01900
C 	C 	0.53980 0.54920 0.71880 -0.00500
C 	C 	0.04820 0.04070 0.71830 0.02200
C 	C 	0.53880 0.40150 0.64090 -0.02200
Ca	Ca	0.55580 0.89060 0.22850 1.49200
O 	O 	0.74130 0.91090 0.49860 -0.40900
O 	O 	0.47560 0.15520 0.15480 -0.60700
O 	O 	0.73790 0.92170 0.18020 -0.42600
O 	O 	0.49030 0.14100 0.46020 -0.62800
C 	C 	0.48700 0.21390 0.34330 0.51200
C 	C 	0.77980 0.94160 0.37080 0.35300
C 	C 	0.89010 0.96250 0.43570 -0.11800
C 	C 	0.48550 0.36370 0.42210 -0.18500
C 	C 	0.06900 0.98090 0.35240 0.01900
C 	C 	0.46020 0.45080 0.28120 -0.00500
C 	C 	0.95180 0.95930 0.28170 0.02200
C 	C 	0.46120 0.59850 0.35910 -0.02200
