data_crystal

_cell_length_a 12.78320
_cell_length_b 12.78320
_cell_length_c 32.53450
_cell_angle_alpha 90.00000
_cell_angle_beta  90.00000
_cell_angle_gamma 90.00000

_symmetry_space_group_name_	'P 1'
_symmetry_space_group_name_H-M	'P 1'

loop_
_symmetry_equiv_pos_as_xyz
  x,y,z

loop_
_atom_site_label
_atom_site_type_symbol
_atom_site_fract_x
_atom_site_fract_y
_atom_site_fract_z
_atom_site_charge
C 	C 	0.56970 0.67500 0.79100 0.40300
C 	C 	0.95810 0.25390 0.95121 -2.10700
C 	C 	0.94420 0.14720 0.93080 4.89000
C 	C 	0.96050 0.14800 0.88690 -6.34000
H 	H 	0.97310 0.07800 0.87750 1.84400
H 	H 	0.01980 0.19110 0.88050 1.88100
H 	H 	0.89950 0.17560 0.87350 1.80500
C 	C 	0.04080 0.08350 0.94530 -4.56400
H 	H 	0.02200 0.04160 0.96870 1.23800
H 	H 	0.09600 0.13070 0.95280 1.33200
H 	H 	0.06420 0.03890 0.92340 1.30900
C 	C 	0.85870 0.08740 0.94640 -6.57200
H 	H 	0.79410 0.11780 0.93730 1.89900
H 	H 	0.86100 0.08730 0.97590 1.92000
H 	H 	0.86370 0.01680 0.93650 1.90100
C 	C 	0.48350 0.64990 0.82062 -0.21200
C 	C 	0.40140 0.58450 0.80989 0.02400
H 	H 	0.39830 0.55560 0.78370 -0.02100
C 	C 	0.32410 0.56260 0.83854 -0.17300
H 	H 	0.26960 0.51800 0.83140 0.03700
C 	C 	0.32620 0.60440 0.87645 -0.01300
C 	C 	0.40900 0.66780 0.88759 -0.20500
H 	H 	0.41280 0.69580 0.91390 0.03500
C 	C 	0.48600 0.68880 0.85901 0.04000
H 	H 	0.54170 0.73140 0.86660 -0.02800
C 	C 	0.24420 0.57890 0.90672 0.03700
C 	C 	0.14080 0.58900 0.95985 0.11600
C 	C 	0.12310 0.49610 0.93972 0.10900
C 	C 	0.04770 0.42230 0.95430 -0.52800
C 	C 	0.03060 0.32610 0.93538 1.04600
H 	H 	0.06800 0.30920 0.91180 -0.50200
C 	C 	0.90040 0.28400 0.98532 1.07700
H 	H 	0.84950 0.23880 0.99540 -0.47500
C 	C 	0.91590 0.37890 0.00487 -0.55300
C 	C 	0.99130 0.45050 0.98981 0.21000
N 	N 	0.22020 0.64070 0.93874 -0.23900
H 	H 	0.24810 0.69980 0.94490 0.09600
N 	N 	0.18890 0.49040 0.90642 -0.23600
O 	O 	0.63820 0.73130 0.80116 -0.47600
O 	O 	0.56790 0.63760 0.75644 -0.39900
H 	H 	0.19350 0.44010 0.88900 0.05900
C 	C 	0.93030 0.82500 0.79100 0.40400
C 	C 	0.54190 0.24610 0.95121 -2.14600
C 	C 	0.55580 0.35280 0.93080 4.97000
C 	C 	0.53950 0.35200 0.88690 -6.46200
H 	H 	0.52690 0.42200 0.87750 1.87700
H 	H 	0.48020 0.30890 0.88050 1.92200
H 	H 	0.60050 0.32440 0.87350 1.84100
C 	C 	0.45920 0.41650 0.94530 -4.62900
H 	H 	0.47800 0.45840 0.96870 1.25700
H 	H 	0.40400 0.36930 0.95280 1.35200
H 	H 	0.43580 0.46110 0.92340 1.33100
C 	C 	0.64130 0.41260 0.94640 -6.67400
H 	H 	0.70590 0.38220 0.93730 1.93000
H 	H 	0.63900 0.41270 0.97590 1.94900
H 	H 	0.63630 0.48320 0.93650 1.93000
C 	C 	0.01650 0.85010 0.82062 -0.21100
C 	C 	0.09860 0.91550 0.80989 0.02500
H 	H 	0.10170 0.94440 0.78370 -0.02000
C 	C 	0.17590 0.93740 0.83854 -0.17100
H 	H 	0.23040 0.98200 0.83140 0.03900
C 	C 	0.17380 0.89560 0.87645 -0.01300
C 	C 	0.09100 0.83220 0.88759 -0.20300
H 	H 	0.08720 0.80420 0.91390 0.03600
C 	C 	0.01400 0.81120 0.85901 0.04100
H 	H 	0.95830 0.76860 0.86660 -0.02800
C 	C 	0.25580 0.92110 0.90672 0.04300
C 	C 	0.35920 0.91100 0.95985 0.12300
C 	C 	0.37690 0.00390 0.93972 0.10600
C 	C 	0.45230 0.07770 0.95430 -0.53600
C 	C 	0.46940 0.17390 0.93538 1.07100
H 	H 	0.43200 0.19080 0.91180 -0.51200
C 	C 	0.59960 0.21600 0.98532 1.09900
H 	H 	0.65050 0.26120 0.99540 -0.48400
C 	C 	0.58410 0.12110 0.00487 -0.56100
C 	C 	0.50870 0.04950 0.98981 0.21300
N 	N 	0.27980 0.85930 0.93874 -0.24100
H 	H 	0.25190 0.80020 0.94490 0.09700
N 	N 	0.31110 0.00960 0.90642 -0.23900
O 	O 	0.86180 0.76870 0.80116 -0.47600
O 	O 	0.93210 0.86240 0.75644 -0.39800
H 	H 	0.30650 0.05990 0.88900 0.05900
C 	C 	0.32500 0.06970 0.29100 0.40700
C 	C 	0.74610 0.45810 0.45121 -2.14700
C 	C 	0.85280 0.44420 0.43080 4.96900
C 	C 	0.85200 0.46050 0.38690 -6.46000
H 	H 	0.92200 0.47310 0.37750 1.87600
H 	H 	0.80890 0.51980 0.38050 1.92100
H 	H 	0.82440 0.39950 0.37350 1.84000
C 	C 	0.91650 0.54080 0.44530 -4.62600
H 	H 	0.95840 0.52200 0.46870 1.25700
H 	H 	0.86930 0.59600 0.45280 1.35100
H 	H 	0.96110 0.56420 0.42340 1.32900
C 	C 	0.91260 0.35870 0.44640 -6.67400
H 	H 	0.88220 0.29410 0.43730 1.93000
H 	H 	0.91270 0.36100 0.47590 1.94900
H 	H 	0.98320 0.36370 0.43650 1.93000
C 	C 	0.35010 0.98350 0.32062 -0.21500
C 	C 	0.41550 0.90140 0.30989 0.02600
H 	H 	0.44440 0.89830 0.28370 -0.02300
C 	C 	0.43740 0.82410 0.33854 -0.17400
H 	H 	0.48200 0.76960 0.33140 0.03800
C 	C 	0.39560 0.82620 0.37645 -0.01100
C 	C 	0.33220 0.90900 0.38759 -0.20600
H 	H 	0.30420 0.91280 0.41390 0.03600
C 	C 	0.31120 0.98600 0.35901 0.04200
H 	H 	0.26860 0.04170 0.36660 -0.02800
C 	C 	0.42110 0.74420 0.40672 0.03800
C 	C 	0.41100 0.64080 0.45985 0.11900
C 	C 	0.50390 0.62310 0.43972 0.11100
C 	C 	0.57770 0.54770 0.45430 -0.53700
C 	C 	0.67390 0.53060 0.43538 1.07300
H 	H 	0.69080 0.56800 0.41180 -0.51300
C 	C 	0.71600 0.40040 0.48532 1.10200
H 	H 	0.76120 0.34950 0.49540 -0.48500
C 	C 	0.62110 0.41590 0.50487 -0.56400
C 	C 	0.54950 0.49130 0.48981 0.21500
N 	N 	0.35930 0.72020 0.43874 -0.24000
H 	H 	0.30020 0.74810 0.44490 0.09600
N 	N 	0.50960 0.68890 0.40642 -0.23600
O 	O 	0.26870 0.13820 0.30116 -0.47600
O 	O 	0.36240 0.06790 0.25644 -0.39800
H 	H 	0.55990 0.69350 0.38900 0.05900
C 	C 	0.17500 0.43030 0.29100 0.40400
C 	C 	0.75390 0.04190 0.45121 -2.10800
C 	C 	0.64720 0.05580 0.43080 4.89200
C 	C 	0.64800 0.03950 0.38690 -6.34900
H 	H 	0.57800 0.02690 0.37750 1.84600
H 	H 	0.69110 0.98020 0.38050 1.88500
H 	H 	0.67560 0.10050 0.37350 1.80800
C 	C 	0.58350 0.95920 0.44530 -4.56700
H 	H 	0.54160 0.97800 0.46870 1.24100
H 	H 	0.63070 0.90400 0.45280 1.33300
H 	H 	0.53890 0.93580 0.42340 1.31300
C 	C 	0.58740 0.14130 0.44640 -6.57500
H 	H 	0.61780 0.20590 0.43730 1.90000
H 	H 	0.58730 0.13900 0.47590 1.92000
H 	H 	0.51680 0.13630 0.43650 1.90100
C 	C 	0.14990 0.51650 0.32062 -0.21100
C 	C 	0.08450 0.59860 0.30989 0.02400
H 	H 	0.05560 0.60170 0.28370 -0.02000
C 	C 	0.06260 0.67590 0.33854 -0.17200
H 	H 	0.01800 0.73040 0.33140 0.03900
C 	C 	0.10440 0.67380 0.37645 -0.01400
C 	C 	0.16780 0.59100 0.38759 -0.20400
H 	H 	0.19580 0.58720 0.41390 0.03500
C 	C 	0.18880 0.51400 0.35901 0.03900
H 	H 	0.23140 0.45830 0.36660 -0.02800
C 	C 	0.07890 0.75580 0.40672 0.04200
C 	C 	0.08900 0.85920 0.45985 0.12300
C 	C 	0.99610 0.87690 0.43972 0.10300
C 	C 	0.92230 0.95230 0.45430 -0.53300
C 	C 	0.82610 0.96940 0.43538 1.04800
H 	H 	0.80920 0.93200 0.41180 -0.50300
C 	C 	0.78400 0.09960 0.48532 1.08100
H 	H 	0.73880 0.15050 0.49540 -0.47600
C 	C 	0.87890 0.08410 0.50487 -0.55700
C 	C 	0.95050 0.00870 0.48981 0.21600
N 	N 	0.14070 0.77980 0.43874 -0.24100
H 	H 	0.19980 0.75190 0.44490 0.09600
N 	N 	0.99040 0.81110 0.40642 -0.23800
O 	O 	0.23130 0.36180 0.30116 -0.47600
O 	O 	0.13760 0.43210 0.25644 -0.39800
H 	H 	0.94010 0.80650 0.38900 0.05800
C 	C 	0.43030 0.32500 0.20900 0.40400
C 	C 	0.04190 0.74610 0.04879 -2.10600
C 	C 	0.05580 0.85280 0.06920 4.89000
C 	C 	0.03950 0.85200 0.11310 -6.34000
H 	H 	0.02690 0.92200 0.12250 1.84400
H 	H 	0.98020 0.80890 0.11950 1.88100
H 	H 	0.10050 0.82440 0.12650 1.80500
C 	C 	0.95920 0.91650 0.05470 -4.56400
H 	H 	0.97800 0.95840 0.03130 1.23800
H 	H 	0.90400 0.86930 0.04720 1.33200
H 	H 	0.93580 0.96110 0.07660 1.30900
C 	C 	0.14130 0.91260 0.05360 -6.57200
H 	H 	0.20590 0.88220 0.06270 1.89900
H 	H 	0.13900 0.91270 0.02410 1.92000
H 	H 	0.13630 0.98320 0.06350 1.90100
C 	C 	0.51650 0.35010 0.17938 -0.21200
C 	C 	0.59860 0.41550 0.19011 0.02400
H 	H 	0.60170 0.44440 0.21630 -0.02100
C 	C 	0.67590 0.43740 0.16146 -0.17300
H 	H 	0.73040 0.48200 0.16860 0.03700
C 	C 	0.67380 0.39560 0.12355 -0.01300
C 	C 	0.59100 0.33220 0.11241 -0.20500
H 	H 	0.58720 0.30420 0.08610 0.03500
C 	C 	0.51400 0.31120 0.14099 0.04000
H 	H 	0.45830 0.26860 0.13340 -0.02800
C 	C 	0.75580 0.42110 0.09328 0.03700
C 	C 	0.85920 0.41100 0.04015 0.11600
C 	C 	0.87690 0.50390 0.06028 0.10900
C 	C 	0.95230 0.57770 0.04570 -0.52800
C 	C 	0.96940 0.67390 0.06462 1.04600
H 	H 	0.93200 0.69080 0.08820 -0.50200
C 	C 	0.09960 0.71600 0.01468 1.07700
H 	H 	0.15050 0.76120 0.00460 -0.47500
C 	C 	0.08410 0.62110 0.99513 -0.55300
C 	C 	0.00870 0.54950 0.01019 0.21000
N 	N 	0.77980 0.35930 0.06126 -0.23900
H 	H 	0.75190 0.30020 0.05510 0.09600
N 	N 	0.81110 0.50960 0.09358 -0.23600
O 	O 	0.36180 0.26870 0.19884 -0.47600
O 	O 	0.43210 0.36240 0.24356 -0.39900
H 	H 	0.80650 0.55990 0.11100 0.05900
C 	C 	0.06970 0.17500 0.20900 0.40400
C 	C 	0.45810 0.75390 0.04879 -2.14600
C 	C 	0.44420 0.64720 0.06920 4.97000
C 	C 	0.46050 0.64800 0.11310 -6.46200
H 	H 	0.47310 0.57800 0.12250 1.87700
H 	H 	0.51980 0.69110 0.11950 1.92200
H 	H 	0.39950 0.67560 0.12650 1.84100
C 	C 	0.54080 0.58350 0.05470 -4.62900
H 	H 	0.52200 0.54160 0.03130 1.25700
H 	H 	0.59600 0.63070 0.04720 1.35200
H 	H 	0.56420 0.53890 0.07660 1.33100
C 	C 	0.35870 0.58740 0.05360 -6.67400
H 	H 	0.29410 0.61780 0.06270 1.93000
H 	H 	0.36100 0.58730 0.02410 1.94900
H 	H 	0.36370 0.51680 0.06350 1.93000
C 	C 	0.98350 0.14990 0.17938 -0.21100
C 	C 	0.90140 0.08450 0.19011 0.02500
H 	H 	0.89830 0.05560 0.21630 -0.02000
C 	C 	0.82410 0.06260 0.16146 -0.17100
H 	H 	0.76960 0.01800 0.16860 0.03900
C 	C 	0.82620 0.10440 0.12355 -0.01300
C 	C 	0.90900 0.16780 0.11241 -0.20300
H 	H 	0.91280 0.19580 0.08610 0.03600
C 	C 	0.98600 0.18880 0.14099 0.04100
H 	H 	0.04170 0.23140 0.13340 -0.02800
C 	C 	0.74420 0.07890 0.09328 0.04300
C 	C 	0.64080 0.08900 0.04015 0.12300
C 	C 	0.62310 0.99610 0.06028 0.10600
C 	C 	0.54770 0.92230 0.04570 -0.53600
C 	C 	0.53060 0.82610 0.06462 1.07100
H 	H 	0.56800 0.80920 0.08820 -0.51200
C 	C 	0.40040 0.78400 0.01468 1.09900
H 	H 	0.34950 0.73880 0.00460 -0.48400
C 	C 	0.41590 0.87890 0.99513 -0.56100
C 	C 	0.49130 0.95050 0.01019 0.21300
N 	N 	0.72020 0.14070 0.06126 -0.24100
H 	H 	0.74810 0.19980 0.05510 0.09700
N 	N 	0.68890 0.99040 0.09358 -0.23900
O 	O 	0.13820 0.23130 0.19884 -0.47600
O 	O 	0.06790 0.13760 0.24356 -0.39800
H 	H 	0.69350 0.94010 0.11100 0.05900
C 	C 	0.67500 0.93030 0.70900 0.40700
C 	C 	0.25390 0.54190 0.54879 -2.14700
C 	C 	0.14720 0.55580 0.56920 4.96900
C 	C 	0.14800 0.53950 0.61310 -6.46000
H 	H 	0.07800 0.52690 0.62250 1.87600
H 	H 	0.19110 0.48020 0.61950 1.92100
H 	H 	0.17560 0.60050 0.62650 1.84000
C 	C 	0.08350 0.45920 0.55470 -4.62600
H 	H 	0.04160 0.47800 0.53130 1.25700
H 	H 	0.13070 0.40400 0.54720 1.35100
H 	H 	0.03890 0.43580 0.57660 1.32900
C 	C 	0.08740 0.64130 0.55360 -6.67400
H 	H 	0.11780 0.70590 0.56270 1.93000
H 	H 	0.08730 0.63900 0.52410 1.94900
H 	H 	0.01680 0.63630 0.56350 1.93000
C 	C 	0.64990 0.01650 0.67938 -0.21500
C 	C 	0.58450 0.09860 0.69011 0.02600
H 	H 	0.55560 0.10170 0.71630 -0.02300
C 	C 	0.56260 0.17590 0.66146 -0.17400
H 	H 	0.51800 0.23040 0.66860 0.03800
C 	C 	0.60440 0.17380 0.62355 -0.01100
C 	C 	0.66780 0.09100 0.61241 -0.20600
H 	H 	0.69580 0.08720 0.58610 0.03600
C 	C 	0.68880 0.01400 0.64099 0.04200
H 	H 	0.73140 0.95830 0.63340 -0.02800
C 	C 	0.57890 0.25580 0.59328 0.03800
C 	C 	0.58900 0.35920 0.54015 0.11900
C 	C 	0.49610 0.37690 0.56028 0.11100
C 	C 	0.42230 0.45230 0.54570 -0.53700
C 	C 	0.32610 0.46940 0.56462 1.07300
H 	H 	0.30920 0.43200 0.58820 -0.51300
C 	C 	0.28400 0.59960 0.51468 1.10200
H 	H 	0.23880 0.65050 0.50460 -0.48500
C 	C 	0.37890 0.58410 0.49513 -0.56400
C 	C 	0.45050 0.50870 0.51019 0.21500
N 	N 	0.64070 0.27980 0.56126 -0.24000
H 	H 	0.69980 0.25190 0.55510 0.09600
N 	N 	0.49040 0.31110 0.59358 -0.23600
O 	O 	0.73130 0.86180 0.69884 -0.47600
O 	O 	0.63760 0.93210 0.74356 -0.39800
H 	H 	0.44010 0.30650 0.61100 0.05900
C 	C 	0.82500 0.56970 0.70900 0.40400
C 	C 	0.24610 0.95810 0.54879 -2.10800
C 	C 	0.35280 0.94420 0.56920 4.89200
C 	C 	0.35200 0.96050 0.61310 -6.34900
H 	H 	0.42200 0.97310 0.62250 1.84600
H 	H 	0.30890 0.01980 0.61950 1.88500
H 	H 	0.32440 0.89950 0.62650 1.80800
C 	C 	0.41650 0.04080 0.55470 -4.56700
H 	H 	0.45840 0.02200 0.53130 1.24100
H 	H 	0.36930 0.09600 0.54720 1.33300
H 	H 	0.46110 0.06420 0.57660 1.31300
C 	C 	0.41260 0.85870 0.55360 -6.57500
H 	H 	0.38220 0.79410 0.56270 1.90000
H 	H 	0.41270 0.86100 0.52410 1.92000
H 	H 	0.48320 0.86370 0.56350 1.90100
C 	C 	0.85010 0.48350 0.67938 -0.21100
C 	C 	0.91550 0.40140 0.69011 0.02400
H 	H 	0.94440 0.39830 0.71630 -0.02000
C 	C 	0.93740 0.32410 0.66146 -0.17200
H 	H 	0.98200 0.26960 0.66860 0.03900
C 	C 	0.89560 0.32620 0.62355 -0.01400
C 	C 	0.83220 0.40900 0.61241 -0.20400
H 	H 	0.80420 0.41280 0.58610 0.03500
C 	C 	0.81120 0.48600 0.64099 0.03900
H 	H 	0.76860 0.54170 0.63340 -0.02800
C 	C 	0.92110 0.24420 0.59328 0.04200
C 	C 	0.91100 0.14080 0.54015 0.12300
C 	C 	0.00390 0.12310 0.56028 0.10300
C 	C 	0.07770 0.04770 0.54570 -0.53300
C 	C 	0.17390 0.03060 0.56462 1.04800
H 	H 	0.19080 0.06800 0.58820 -0.50300
C 	C 	0.21600 0.90040 0.51468 1.08100
H 	H 	0.26120 0.84950 0.50460 -0.47600
C 	C 	0.12110 0.91590 0.49513 -0.55700
C 	C 	0.04950 0.99130 0.51019 0.21600
N 	N 	0.85930 0.22020 0.56126 -0.24100
H 	H 	0.80020 0.24810 0.55510 0.09600
N 	N 	0.00960 0.18890 0.59358 -0.23800
O 	O 	0.76870 0.63820 0.69884 -0.47600
O 	O 	0.86240 0.56790 0.74356 -0.39800
H 	H 	0.05990 0.19350 0.61100 0.05800
Cd	Cd	0.75000 0.75000 0.75000 1.24500
Cd	Cd	0.25000 0.25000 0.25000 1.24500
