data_crystal

_cell_length_a 29.00700
_cell_length_b 29.00700
_cell_length_c 16.17500
_cell_angle_alpha 90.00000
_cell_angle_beta  90.00000
_cell_angle_gamma 120.00000

_symmetry_space_group_name_	'P 1'
_symmetry_space_group_name_H-M	'P 1'

loop_
_symmetry_equiv_pos_as_xyz
  x,y,z

loop_
_atom_site_label
_atom_site_type_symbol
_atom_site_fract_x
_atom_site_fract_y
_atom_site_fract_z
_atom_site_charge
C 	C 	0.96418 0.25099 0.08990 0.37200
C 	C 	0.79566 0.08822 0.06750 0.33300
C 	C 	0.84626 0.12430 0.10990 0.02200
C 	C 	0.86750 0.12319 0.18470 -0.03800
H 	H 	0.85240 0.09620 0.22400 0.04300
C 	C 	0.91643 0.17060 0.19060 -0.04100
H 	H 	0.94010 0.18100 0.23470 0.05700
C 	C 	0.92295 0.19853 0.12020 0.02100
O 	O 	0.00466 0.27581 0.13881 -0.53900
O 	O 	0.95907 0.26754 0.02236 -0.36800
O 	O 	0.79271 0.10228 0.99322 -0.49700
O 	O 	0.76119 0.04867 0.10397 -0.35700
O 	O 	0.87985 0.17064 0.06943 -0.20900
C 	C 	0.63085 0.58432 0.42323 0.30800
C 	C 	0.46233 0.42155 0.40083 0.32900
C 	C 	0.51293 0.45763 0.44323 0.02400
C 	C 	0.53417 0.45652 0.51803 -0.03700
H 	H 	0.51907 0.42953 0.55733 0.04500
C 	C 	0.58310 0.50393 0.52393 -0.05400
H 	H 	0.60677 0.51433 0.56803 0.05200
C 	C 	0.58962 0.53186 0.45353 0.03300
O 	O 	0.67133 0.60914 0.47214 -0.48300
O 	O 	0.62574 0.60087 0.35569 -0.37000
O 	O 	0.45938 0.43561 0.32655 -0.49200
O 	O 	0.42786 0.38200 0.43730 -0.33900
O 	O 	0.54652 0.50397 0.40276 -0.21300
C 	C 	0.29751 0.91766 0.75657 0.30400
C 	C 	0.12899 0.75489 0.73417 0.33200
C 	C 	0.17959 0.79097 0.77657 0.02200
C 	C 	0.20083 0.78986 0.85137 -0.03500
H 	H 	0.18573 0.76287 0.89067 0.04400
C 	C 	0.24976 0.83727 0.85727 -0.05600
H 	H 	0.27343 0.84767 0.90137 0.05300
C 	C 	0.25628 0.86520 0.78687 0.03700
O 	O 	0.33799 0.94248 0.80548 -0.46100
O 	O 	0.29240 0.93421 0.68903 -0.35500
O 	O 	0.12604 0.76895 0.65989 -0.49200
O 	O 	0.09452 0.71534 0.77064 -0.34700
O 	O 	0.21318 0.83731 0.73610 -0.21300
C 	C 	0.74901 0.71319 0.08990 0.30900
C 	C 	0.91178 0.70744 0.06750 0.32800
C 	C 	0.87570 0.72196 0.10990 0.03200
C 	C 	0.87681 0.74431 0.18470 -0.03800
H 	H 	0.90380 0.75620 0.22400 0.05600
C 	C 	0.82940 0.74583 0.19060 -0.04800
H 	H 	0.81900 0.75910 0.23470 0.05500
C 	C 	0.80147 0.72442 0.12020 0.03500
O 	O 	0.72419 0.72885 0.13881 -0.48200
O 	O 	0.73246 0.69153 0.02236 -0.37000
O 	O 	0.89772 0.69043 0.99322 -0.48600
O 	O 	0.95133 0.71252 0.10397 -0.31700
O 	O 	0.82936 0.70921 0.06943 -0.21300
C 	C 	0.41568 0.04652 0.42323 0.30500
C 	C 	0.57845 0.04077 0.40083 0.32700
C 	C 	0.54237 0.05529 0.44323 0.01500
C 	C 	0.54348 0.07764 0.51803 -0.04100
H 	H 	0.57047 0.08953 0.55733 0.04000
C 	C 	0.49607 0.07916 0.52393 -0.05900
H 	H 	0.48567 0.09243 0.56803 0.04900
C 	C 	0.46814 0.05775 0.45353 0.02500
O 	O 	0.39086 0.06218 0.47214 -0.49300
O 	O 	0.39913 0.02486 0.35569 -0.38800
O 	O 	0.56439 0.02376 0.32655 -0.51000
O 	O 	0.61800 0.04585 0.43730 -0.35400
O 	O 	0.49603 0.04254 0.40276 -0.22200
C 	C 	0.08234 0.37986 0.75657 0.31100
C 	C 	0.24511 0.37411 0.73417 0.32900
C 	C 	0.20903 0.38863 0.77657 0.02400
C 	C 	0.21014 0.41098 0.85137 -0.03700
H 	H 	0.23713 0.42287 0.89067 0.04600
C 	C 	0.16273 0.41250 0.85727 -0.05200
H 	H 	0.15233 0.42577 0.90137 0.05100
C 	C 	0.13480 0.39109 0.78687 0.03000
O 	O 	0.05752 0.39552 0.80548 -0.49800
O 	O 	0.06579 0.35820 0.68903 -0.38400
O 	O 	0.23105 0.35710 0.65989 -0.49300
O 	O 	0.28466 0.37919 0.77064 -0.33800
O 	O 	0.16269 0.37588 0.73610 -0.21400
C 	C 	0.28681 0.03582 0.08990 0.24400
C 	C 	0.29256 0.20434 0.06750 0.32900
C 	C 	0.27804 0.15374 0.10990 0.01900
C 	C 	0.25569 0.13250 0.18470 -0.03400
H 	H 	0.24380 0.14760 0.22400 0.03800
C 	C 	0.25417 0.08357 0.19060 -0.07000
H 	H 	0.24090 0.05990 0.23470 0.04400
C 	C 	0.27558 0.07705 0.12020 0.04400
O 	O 	0.27115 0.99534 0.13881 -0.42700
O 	O 	0.30847 0.04093 0.02236 -0.37300
O 	O 	0.30957 0.20729 0.99322 -0.49400
O 	O 	0.28748 0.23881 0.10397 -0.34100
O 	O 	0.29079 0.12015 0.06943 -0.21900
C 	C 	0.95348 0.36915 0.42323 0.31000
C 	C 	0.95923 0.53767 0.40083 0.32900
C 	C 	0.94471 0.48707 0.44323 0.03400
C 	C 	0.92236 0.46583 0.51803 -0.03300
H 	H 	0.91047 0.48093 0.55733 0.05100
C 	C 	0.92084 0.41690 0.52393 -0.04800
H 	H 	0.90757 0.39323 0.56803 0.05500
C 	C 	0.94225 0.41038 0.45353 0.04100
O 	O 	0.93782 0.32867 0.47214 -0.47300
O 	O 	0.97514 0.37426 0.35569 -0.34800
O 	O 	0.97624 0.54062 0.32655 -0.46400
O 	O 	0.95415 0.57214 0.43730 -0.32100
O 	O 	0.95746 0.45348 0.40276 -0.20300
C 	C 	0.62014 0.70249 0.75657 0.30800
C 	C 	0.62589 0.87101 0.73417 0.32600
C 	C 	0.61137 0.82041 0.77657 0.02600
C 	C 	0.58902 0.79917 0.85137 -0.03800
H 	H 	0.57713 0.81427 0.89067 0.04700
C 	C 	0.58750 0.75024 0.85727 -0.05300
H 	H 	0.57423 0.72657 0.90137 0.05100
C 	C 	0.60891 0.74372 0.78687 0.03300
O 	O 	0.60448 0.66201 0.80548 -0.48300
O 	O 	0.64180 0.70760 0.68903 -0.36900
O 	O 	0.64290 0.87396 0.65989 -0.48900
O 	O 	0.62081 0.90548 0.77064 -0.32800
O 	O 	0.62412 0.78682 0.73610 -0.21300
C 	C 	0.25099 0.96418 0.41010 0.37100
C 	C 	0.08822 0.79566 0.43250 0.33100
C 	C 	0.12430 0.84626 0.39010 0.02100
C 	C 	0.12319 0.86750 0.31530 -0.03900
H 	H 	0.09620 0.85240 0.27600 0.04200
C 	C 	0.17060 0.91643 0.30940 -0.04200
H 	H 	0.18100 0.94010 0.26530 0.05700
C 	C 	0.19853 0.92295 0.37980 0.02100
O 	O 	0.27581 0.00466 0.36119 -0.53900
O 	O 	0.26754 0.95907 0.47764 -0.36800
O 	O 	0.10228 0.79271 0.50678 -0.49600
O 	O 	0.04867 0.76119 0.39603 -0.35700
O 	O 	0.17064 0.87985 0.43057 -0.20900
C 	C 	0.91766 0.29751 0.74343 0.30400
C 	C 	0.75489 0.12899 0.76583 0.33200
C 	C 	0.79097 0.17959 0.72343 0.02200
C 	C 	0.78986 0.20083 0.64863 -0.03500
H 	H 	0.76287 0.18573 0.60933 0.04400
C 	C 	0.83727 0.24976 0.64273 -0.05600
H 	H 	0.84767 0.27343 0.59863 0.05300
C 	C 	0.86520 0.25628 0.71313 0.03700
O 	O 	0.94248 0.33799 0.69452 -0.46100
O 	O 	0.93421 0.29240 0.81097 -0.35500
O 	O 	0.76895 0.12604 0.84011 -0.49300
O 	O 	0.71534 0.09452 0.72936 -0.34700
O 	O 	0.83731 0.21318 0.76390 -0.21300
C 	C 	0.58432 0.63085 0.07677 0.30800
C 	C 	0.42155 0.46233 0.09917 0.32900
C 	C 	0.45763 0.51293 0.05677 0.02400
C 	C 	0.45652 0.53417 0.98197 -0.03700
H 	H 	0.42953 0.51907 0.94267 0.04500
C 	C 	0.50393 0.58310 0.97607 -0.05400
H 	H 	0.51433 0.60677 0.93197 0.05200
C 	C 	0.53186 0.58962 0.04647 0.03300
O 	O 	0.60914 0.67133 0.02786 -0.48400
O 	O 	0.60087 0.62574 0.14431 -0.37000
O 	O 	0.43561 0.45938 0.17345 -0.49200
O 	O 	0.38200 0.42786 0.06270 -0.33900
O 	O 	0.50397 0.54652 0.09724 -0.21300
C 	C 	0.71319 0.74901 0.41010 0.30900
C 	C 	0.70744 0.91178 0.43250 0.32700
C 	C 	0.72196 0.87570 0.39010 0.03200
C 	C 	0.74431 0.87681 0.31530 -0.03800
H 	H 	0.75620 0.90380 0.27600 0.05600
C 	C 	0.74583 0.82940 0.30940 -0.04800
H 	H 	0.75910 0.81900 0.26530 0.05500
C 	C 	0.72442 0.80147 0.37980 0.03500
O 	O 	0.72885 0.72419 0.36119 -0.48200
O 	O 	0.69153 0.73246 0.47764 -0.36900
O 	O 	0.69043 0.89772 0.50678 -0.48500
O 	O 	0.71252 0.95133 0.39603 -0.31700
O 	O 	0.70921 0.82936 0.43057 -0.21300
C 	C 	0.37986 0.08234 0.74343 0.31100
C 	C 	0.37411 0.24511 0.76583 0.32900
C 	C 	0.38863 0.20903 0.72343 0.02400
C 	C 	0.41098 0.21014 0.64863 -0.03700
H 	H 	0.42287 0.23713 0.60933 0.04600
C 	C 	0.41250 0.16273 0.64273 -0.05200
H 	H 	0.42577 0.15233 0.59863 0.05100
C 	C 	0.39109 0.13480 0.71313 0.03000
O 	O 	0.39552 0.05752 0.69452 -0.49900
O 	O 	0.35820 0.06579 0.81097 -0.38400
O 	O 	0.35710 0.23105 0.84011 -0.49300
O 	O 	0.37919 0.28466 0.72936 -0.33800
O 	O 	0.37588 0.16269 0.76390 -0.21400
C 	C 	0.04652 0.41568 0.07677 0.30600
C 	C 	0.04077 0.57845 0.09917 0.32800
C 	C 	0.05529 0.54237 0.05677 0.01400
C 	C 	0.07764 0.54348 0.98197 -0.04000
H 	H 	0.08953 0.57047 0.94267 0.04000
C 	C 	0.07916 0.49607 0.97607 -0.05800
H 	H 	0.09243 0.48567 0.93197 0.04900
C 	C 	0.05775 0.46814 0.04647 0.02500
O 	O 	0.06218 0.39086 0.02786 -0.49300
O 	O 	0.02486 0.39913 0.14431 -0.38900
O 	O 	0.02376 0.56439 0.17345 -0.51000
O 	O 	0.04585 0.61800 0.06270 -0.35400
O 	O 	0.04254 0.49603 0.09724 -0.22200
C 	C 	0.03582 0.28681 0.41010 0.24300
C 	C 	0.20434 0.29256 0.43250 0.32900
C 	C 	0.15374 0.27804 0.39010 0.01900
C 	C 	0.13250 0.25569 0.31530 -0.03400
H 	H 	0.14760 0.24380 0.27600 0.03800
C 	C 	0.08357 0.25417 0.30940 -0.07100
H 	H 	0.05990 0.24090 0.26530 0.04400
C 	C 	0.07705 0.27558 0.37980 0.04400
O 	O 	0.99534 0.27115 0.36119 -0.42600
O 	O 	0.04093 0.30847 0.47764 -0.37300
O 	O 	0.20729 0.30957 0.50678 -0.49400
O 	O 	0.23881 0.28748 0.39603 -0.34100
O 	O 	0.12015 0.29079 0.43057 -0.21900
C 	C 	0.70249 0.62014 0.74343 0.30800
C 	C 	0.87101 0.62589 0.76583 0.32600
C 	C 	0.82041 0.61137 0.72343 0.02600
C 	C 	0.79917 0.58902 0.64863 -0.03800
H 	H 	0.81427 0.57713 0.60933 0.04700
C 	C 	0.75024 0.58750 0.64273 -0.05300
H 	H 	0.72657 0.57423 0.59863 0.05200
C 	C 	0.74372 0.60891 0.71313 0.03300
O 	O 	0.66201 0.60448 0.69452 -0.48300
O 	O 	0.70760 0.64180 0.81097 -0.37000
O 	O 	0.87396 0.64290 0.84011 -0.48900
O 	O 	0.90548 0.62081 0.72936 -0.32800
O 	O 	0.78682 0.62412 0.76390 -0.21300
C 	C 	0.36915 0.95348 0.07677 0.31000
C 	C 	0.53767 0.95923 0.09917 0.32900
C 	C 	0.48707 0.94471 0.05677 0.03300
C 	C 	0.46583 0.92236 0.98197 -0.03300
H 	H 	0.48093 0.91047 0.94267 0.05100
C 	C 	0.41690 0.92084 0.97607 -0.04700
H 	H 	0.39323 0.90757 0.93197 0.05500
C 	C 	0.41038 0.94225 0.04647 0.04000
O 	O 	0.32867 0.93782 0.02786 -0.47300
O 	O 	0.37426 0.97514 0.14431 -0.34800
O 	O 	0.54062 0.97624 0.17345 -0.46400
O 	O 	0.57214 0.95415 0.06270 -0.32200
O 	O 	0.45348 0.95746 0.09724 -0.20300
C 	C 	0.03582 0.74901 0.91010 0.24600
C 	C 	0.20434 0.91178 0.93250 0.32800
C 	C 	0.15374 0.87570 0.89010 0.02700
C 	C 	0.13250 0.87681 0.81530 -0.03500
H 	H 	0.14760 0.90380 0.77600 0.04900
C 	C 	0.08357 0.82940 0.80940 -0.06500
H 	H 	0.05990 0.81900 0.76530 0.04700
C 	C 	0.07705 0.80147 0.87980 0.04500
O 	O 	0.99534 0.72419 0.86119 -0.42700
O 	O 	0.04093 0.73246 0.97764 -0.37200
O 	O 	0.20729 0.89772 0.00678 -0.48800
O 	O 	0.23881 0.95133 0.89603 -0.32000
O 	O 	0.12015 0.82936 0.93057 -0.21800
C 	C 	0.70249 0.08234 0.24343 0.31100
C 	C 	0.87101 0.24511 0.26583 0.32600
C 	C 	0.82041 0.20903 0.22343 0.02600
C 	C 	0.79917 0.21014 0.14863 -0.03900
H 	H 	0.81427 0.23713 0.10933 0.04700
C 	C 	0.75024 0.16273 0.14273 -0.05100
H 	H 	0.72657 0.15233 0.09863 0.05000
C 	C 	0.74372 0.13480 0.21313 0.03000
O 	O 	0.66201 0.05752 0.19452 -0.49800
O 	O 	0.70760 0.06579 0.31097 -0.38300
O 	O 	0.87396 0.23105 0.34011 -0.49000
O 	O 	0.90548 0.28466 0.22936 -0.32700
O 	O 	0.78682 0.16269 0.26390 -0.21400
C 	C 	0.36915 0.41568 0.57677 0.30800
C 	C 	0.53767 0.57845 0.59917 0.32900
C 	C 	0.48707 0.54237 0.55677 0.02400
C 	C 	0.46583 0.54348 0.48197 -0.03700
H 	H 	0.48093 0.57047 0.44267 0.04500
C 	C 	0.41690 0.49607 0.47607 -0.05400
H 	H 	0.39323 0.48567 0.43197 0.05200
C 	C 	0.41038 0.46814 0.54647 0.03300
O 	O 	0.32867 0.39086 0.52786 -0.48300
O 	O 	0.37426 0.39913 0.64431 -0.37000
O 	O 	0.54062 0.56439 0.67345 -0.49200
O 	O 	0.57214 0.61800 0.56270 -0.33900
O 	O 	0.45348 0.49603 0.59724 -0.21300
C 	C 	0.25099 0.28681 0.91010 0.30700
C 	C 	0.08822 0.29256 0.93250 0.33100
C 	C 	0.12430 0.27804 0.89010 0.01600
C 	C 	0.12319 0.25569 0.81530 -0.03600
H 	H 	0.09620 0.24380 0.77600 0.03500
C 	C 	0.17060 0.25417 0.80940 -0.05900
H 	H 	0.18100 0.24090 0.76530 0.04900
C 	C 	0.19853 0.27558 0.87980 0.03200
O 	O 	0.27581 0.27115 0.86119 -0.48500
O 	O 	0.26754 0.30847 0.97764 -0.37100
O 	O 	0.10228 0.30957 0.00678 -0.49900
O 	O 	0.04867 0.28748 0.89603 -0.36000
O 	O 	0.17064 0.29079 0.93057 -0.21400
C 	C 	0.91766 0.62014 0.24343 0.30400
C 	C 	0.75489 0.62589 0.26583 0.32900
C 	C 	0.79097 0.61137 0.22343 0.02400
C 	C 	0.78986 0.58902 0.14863 -0.03600
H 	H 	0.76287 0.57713 0.10933 0.04500
C 	C 	0.83727 0.58750 0.14273 -0.05500
H 	H 	0.84767 0.57423 0.09863 0.05300
C 	C 	0.86520 0.60891 0.21313 0.03700
O 	O 	0.94248 0.60448 0.19452 -0.46100
O 	O 	0.93421 0.64180 0.31097 -0.35400
O 	O 	0.76895 0.64290 0.34011 -0.49000
O 	O 	0.71534 0.62081 0.22936 -0.33900
O 	O 	0.83731 0.62412 0.26390 -0.21300
C 	C 	0.58432 0.95348 0.57677 0.31000
C 	C 	0.42155 0.95923 0.59917 0.32900
C 	C 	0.45763 0.94471 0.55677 0.03400
C 	C 	0.45652 0.92236 0.48197 -0.03300
H 	H 	0.42953 0.91047 0.44267 0.05100
C 	C 	0.50393 0.92084 0.47607 -0.04800
H 	H 	0.51433 0.90757 0.43197 0.05500
C 	C 	0.53186 0.94225 0.54647 0.04100
O 	O 	0.60914 0.93782 0.52786 -0.47300
O 	O 	0.60087 0.97514 0.64431 -0.34800
O 	O 	0.43561 0.97624 0.67345 -0.46400
O 	O 	0.38200 0.95415 0.56270 -0.32100
O 	O 	0.50397 0.95746 0.59724 -0.20300
C 	C 	0.71319 0.96418 0.91010 0.37200
C 	C 	0.70744 0.79566 0.93250 0.33000
C 	C 	0.72196 0.84626 0.89010 0.02900
C 	C 	0.74431 0.86750 0.81530 -0.04000
H 	H 	0.75620 0.85240 0.77600 0.05200
C 	C 	0.74583 0.91643 0.80940 -0.03700
H 	H 	0.75910 0.94010 0.76530 0.06000
C 	C 	0.72442 0.92295 0.87980 0.02300
O 	O 	0.72885 0.00466 0.86119 -0.53700
O 	O 	0.69153 0.95907 0.97764 -0.36800
O 	O 	0.69043 0.79271 0.00678 -0.49000
O 	O 	0.71252 0.76119 0.89603 -0.33600
O 	O 	0.70921 0.87985 0.93057 -0.20800
C 	C 	0.37986 0.29751 0.24343 0.30800
C 	C 	0.37411 0.12899 0.26583 0.33200
C 	C 	0.38863 0.17959 0.22343 0.02200
C 	C 	0.41098 0.20083 0.14863 -0.03600
H 	H 	0.42287 0.18573 0.10933 0.04400
C 	C 	0.41250 0.24976 0.14273 -0.05400
H 	H 	0.42577 0.27343 0.09863 0.05200
C 	C 	0.39109 0.25628 0.21313 0.03300
O 	O 	0.39552 0.33799 0.19452 -0.48300
O 	O 	0.35820 0.29240 0.31097 -0.37100
O 	O 	0.35710 0.12604 0.34011 -0.49400
O 	O 	0.37919 0.09452 0.22936 -0.34700
O 	O 	0.37588 0.21318 0.26390 -0.21400
C 	C 	0.04652 0.63085 0.57677 0.30500
C 	C 	0.04077 0.46233 0.59917 0.32700
C 	C 	0.05529 0.51293 0.55677 0.01500
C 	C 	0.07764 0.53417 0.48197 -0.04100
H 	H 	0.08953 0.51907 0.44267 0.04000
C 	C 	0.07916 0.58310 0.47607 -0.05900
H 	H 	0.09243 0.60677 0.43197 0.04900
C 	C 	0.05775 0.58962 0.54647 0.02500
O 	O 	0.06218 0.67133 0.52786 -0.49300
O 	O 	0.02486 0.62574 0.64431 -0.38900
O 	O 	0.02376 0.45938 0.67345 -0.51000
O 	O 	0.04585 0.42786 0.56270 -0.35400
O 	O 	0.04254 0.54652 0.59724 -0.22200
C 	C 	0.74901 0.03582 0.58990 0.24400
C 	C 	0.91178 0.20434 0.56750 0.32700
C 	C 	0.87570 0.15374 0.60990 0.02700
C 	C 	0.87681 0.13250 0.68470 -0.03500
H 	H 	0.90380 0.14760 0.72400 0.04900
C 	C 	0.82940 0.08357 0.69060 -0.06500
H 	H 	0.81900 0.05990 0.73470 0.04700
C 	C 	0.80147 0.07705 0.62020 0.04600
O 	O 	0.72419 0.99534 0.63881 -0.42600
O 	O 	0.73246 0.04093 0.52236 -0.37200
O 	O 	0.89772 0.20729 0.49322 -0.48700
O 	O 	0.95133 0.23881 0.60397 -0.31900
O 	O 	0.82936 0.12015 0.56943 -0.21800
C 	C 	0.41568 0.36915 0.92323 0.30800
C 	C 	0.57845 0.53767 0.90083 0.32900
C 	C 	0.54237 0.48707 0.94323 0.02400
C 	C 	0.54348 0.46583 0.01803 -0.03700
H 	H 	0.57047 0.48093 0.05733 0.04500
C 	C 	0.49607 0.41690 0.02393 -0.05400
H 	H 	0.48567 0.39323 0.06803 0.05200
C 	C 	0.46814 0.41038 0.95353 0.03300
O 	O 	0.39086 0.32867 0.97214 -0.48300
O 	O 	0.39913 0.37426 0.85569 -0.37000
O 	O 	0.56439 0.54062 0.82655 -0.49200
O 	O 	0.61800 0.57214 0.93730 -0.33900
O 	O 	0.49603 0.45348 0.90276 -0.21300
C 	C 	0.08234 0.70249 0.25657 0.31100
C 	C 	0.24511 0.87101 0.23417 0.32600
C 	C 	0.20903 0.82041 0.27657 0.02600
C 	C 	0.21014 0.79917 0.35137 -0.03900
H 	H 	0.23713 0.81427 0.39067 0.04700
C 	C 	0.16273 0.75024 0.35727 -0.05100
H 	H 	0.15233 0.72657 0.40137 0.05000
C 	C 	0.13480 0.74372 0.28687 0.03000
O 	O 	0.05752 0.66201 0.30548 -0.49900
O 	O 	0.06579 0.70760 0.18903 -0.38300
O 	O 	0.23105 0.87396 0.15989 -0.49000
O 	O 	0.28466 0.90548 0.27064 -0.32700
O 	O 	0.16269 0.78682 0.23610 -0.21400
C 	C 	0.28681 0.25099 0.58990 0.30600
C 	C 	0.29256 0.08822 0.56750 0.33100
C 	C 	0.27804 0.12430 0.60990 0.01600
C 	C 	0.25569 0.12319 0.68470 -0.03600
H 	H 	0.24380 0.09620 0.72400 0.03500
C 	C 	0.25417 0.17060 0.69060 -0.05900
H 	H 	0.24090 0.18100 0.73470 0.04900
C 	C 	0.27558 0.19853 0.62020 0.03200
O 	O 	0.27115 0.27581 0.63881 -0.48500
O 	O 	0.30847 0.26754 0.52236 -0.37100
O 	O 	0.30957 0.10228 0.49322 -0.49800
O 	O 	0.28748 0.04867 0.60397 -0.36000
O 	O 	0.29079 0.17064 0.56943 -0.21400
C 	C 	0.95348 0.58432 0.92323 0.31000
C 	C 	0.95923 0.42155 0.90083 0.32900
C 	C 	0.94471 0.45763 0.94323 0.03300
C 	C 	0.92236 0.45652 0.01803 -0.03300
H 	H 	0.91047 0.42953 0.05733 0.05100
C 	C 	0.92084 0.50393 0.02393 -0.04800
H 	H 	0.90757 0.51433 0.06803 0.05500
C 	C 	0.94225 0.53186 0.95353 0.04100
O 	O 	0.93782 0.60914 0.97214 -0.47300
O 	O 	0.97514 0.60087 0.85569 -0.34800
O 	O 	0.97624 0.43561 0.82655 -0.46400
O 	O 	0.95415 0.38200 0.93730 -0.32200
O 	O 	0.95746 0.50397 0.90276 -0.20300
C 	C 	0.62014 0.91766 0.25657 0.30400
C 	C 	0.62589 0.75489 0.23417 0.32900
C 	C 	0.61137 0.79097 0.27657 0.02400
C 	C 	0.58902 0.78986 0.35137 -0.03600
H 	H 	0.57713 0.76287 0.39067 0.04500
C 	C 	0.58750 0.83727 0.35727 -0.05500
H 	H 	0.57423 0.84767 0.40137 0.05300
C 	C 	0.60891 0.86520 0.28687 0.03700
O 	O 	0.60448 0.94248 0.30548 -0.46100
O 	O 	0.64180 0.93421 0.18903 -0.35500
O 	O 	0.64290 0.76895 0.15989 -0.49100
O 	O 	0.62081 0.71534 0.27064 -0.33900
O 	O 	0.62412 0.83731 0.23610 -0.21300
C 	C 	0.96418 0.71319 0.58990 0.37200
C 	C 	0.79566 0.70744 0.56750 0.33000
C 	C 	0.84626 0.72196 0.60990 0.02900
C 	C 	0.86750 0.74431 0.68470 -0.04000
H 	H 	0.85240 0.75620 0.72400 0.05200
C 	C 	0.91643 0.74583 0.69060 -0.03700
H 	H 	0.94010 0.75910 0.73470 0.05900
C 	C 	0.92295 0.72442 0.62020 0.02300
O 	O 	0.00466 0.72885 0.63881 -0.53700
O 	O 	0.95907 0.69153 0.52236 -0.36700
O 	O 	0.79271 0.69043 0.49322 -0.48900
O 	O 	0.76119 0.71252 0.60397 -0.33600
O 	O 	0.87985 0.70921 0.56943 -0.20800
C 	C 	0.63085 0.04652 0.92323 0.30600
C 	C 	0.46233 0.04077 0.90083 0.32800
C 	C 	0.51293 0.05529 0.94323 0.01500
C 	C 	0.53417 0.07764 0.01803 -0.04000
H 	H 	0.51907 0.08953 0.05733 0.04000
C 	C 	0.58310 0.07916 0.02393 -0.05800
H 	H 	0.60677 0.09243 0.06803 0.04900
C 	C 	0.58962 0.05775 0.95353 0.02500
O 	O 	0.67133 0.06218 0.97214 -0.49300
O 	O 	0.62574 0.02486 0.85569 -0.38900
O 	O 	0.45938 0.02376 0.82655 -0.51000
O 	O 	0.42786 0.04585 0.93730 -0.35400
O 	O 	0.54652 0.04254 0.90276 -0.22200
C 	C 	0.29751 0.37986 0.25657 0.30800
C 	C 	0.12899 0.37411 0.23417 0.33200
C 	C 	0.17959 0.38863 0.27657 0.02200
C 	C 	0.20083 0.41098 0.35137 -0.03600
H 	H 	0.18573 0.42287 0.39067 0.04400
C 	C 	0.24976 0.41250 0.35727 -0.05400
H 	H 	0.27343 0.42577 0.40137 0.05200
C 	C 	0.25628 0.39109 0.28687 0.03300
O 	O 	0.33799 0.39552 0.30548 -0.48300
O 	O 	0.29240 0.35820 0.18903 -0.37100
O 	O 	0.12604 0.35710 0.15989 -0.49400
O 	O 	0.09452 0.37919 0.27064 -0.34700
O 	O 	0.21318 0.37588 0.23610 -0.21400
Na	Na	0.99836 0.33169 0.91667 0.59500
Na	Na	0.85426 0.18760 0.91667 0.57800
Na	Na	0.66502 0.66502 0.25000 0.58700
Na	Na	0.52093 0.52093 0.25000 0.57800
Na	Na	0.66831 0.66667 0.91667 0.58700
Na	Na	0.81240 0.66667 0.91667 0.57800
Na	Na	0.33498 0.00000 0.25000 0.58000
Na	Na	0.47907 0.00000 0.25000 0.57100
Na	Na	0.33333 0.00164 0.91667 0.58000
Na	Na	0.33333 0.14574 0.91667 0.57700
Na	Na	-0.00000 0.33498 0.25000 0.58000
Na	Na	-0.00000 0.47907 0.25000 0.57000
Na	Na	0.33169 0.99836 0.58333 0.59500
Na	Na	0.18760 0.85426 0.58333 0.57800
Na	Na	0.66667 0.66831 0.58333 0.58700
Na	Na	0.66667 0.81240 0.58333 0.57800
Na	Na	0.00164 0.33333 0.58333 0.58000
Na	Na	0.14574 0.33333 0.58333 0.57700
Na	Na	0.00164 0.66831 0.08333 0.58000
Na	Na	0.14574 0.81240 0.08333 0.57700
Na	Na	0.33169 0.33333 0.08333 0.58700
Na	Na	0.18760 0.33333 0.08333 0.57700
Na	Na	0.66667 0.99836 0.08333 0.59500
Na	Na	0.66667 0.85426 0.08333 0.57900
Na	Na	0.66831 0.00164 0.41667 0.58000
Na	Na	0.81240 0.14574 0.41667 0.57700
Na	Na	0.33498 0.33498 0.75000 0.58700
Na	Na	0.47907 0.47907 0.75000 0.57800
Na	Na	0.33333 0.33169 0.41667 0.58700
Na	Na	0.33333 0.18760 0.41667 0.57700
Na	Na	-0.00000 0.66502 0.75000 0.58000
Na	Na	0.00000 0.52093 0.75000 0.57000
Na	Na	0.99836 0.66667 0.41667 0.59500
Na	Na	0.85426 0.66667 0.41667 0.57900
Na	Na	0.66502 0.00000 0.75000 0.58000
Na	Na	0.52093 0.00000 0.75000 0.57000
Zn	Zn	0.06648 0.33333 0.08333 1.22500
Zn	Zn	0.66667 0.73314 0.08333 1.22700
Zn	Zn	0.33333 0.06648 0.41667 1.22500
Zn	Zn	0.26686 0.93352 0.08333 1.22900
Zn	Zn	0.60019 0.60019 0.75000 1.22700
Zn	Zn	0.00000 0.39981 0.75000 1.21100
Zn	Zn	0.73314 0.66667 0.41667 1.22700
Zn	Zn	0.39981 0.00000 0.75000 1.21100
Zn	Zn	0.93352 0.26686 0.41667 1.23000
Zn	Zn	0.93352 0.66667 0.91667 1.23000
Zn	Zn	0.60019 0.00000 0.25000 1.21100
Zn	Zn	0.26686 0.33333 0.58333 1.22700
Zn	Zn	0.33333 0.26686 0.91667 1.22700
Zn	Zn	-0.00000 0.60019 0.25000 1.21100
Zn	Zn	0.73314 0.06648 0.91667 1.22500
Zn	Zn	0.39981 0.39981 0.25000 1.22700
Zn	Zn	0.66667 0.93352 0.58333 1.23000
Zn	Zn	0.06648 0.73314 0.58333 1.22500
