data_crystal

_cell_length_a 13.39300
_cell_length_b 13.39300
_cell_length_c 27.33800
_cell_angle_alpha 90.00000
_cell_angle_beta  90.00000
_cell_angle_gamma 90.00000

_symmetry_space_group_name_	'P 1'
_symmetry_space_group_name_H-M	'P 1'

loop_
_symmetry_equiv_pos_as_xyz
  x,y,z

loop_
_atom_site_label
_atom_site_type_symbol
_atom_site_fract_x
_atom_site_fract_y
_atom_site_fract_z
_atom_site_charge
Zn	Zn	0.91117 0.02289 0.44664 1.18600
O 	O 	0.86060 0.94560 0.36719 -0.36400
O 	O 	0.95330 0.07670 0.38332 -0.46800
N 	N 	0.76720 0.01610 0.46469 -0.29300
N 	N 	0.62400 0.03830 0.50405 -0.26000
N 	N 	0.60730 0.97530 0.46508 -0.25900
N 	N 	0.08990 0.19070 0.22360 -0.32700
H 	H 	0.10350 0.20240 0.19340 0.18100
H 	H 	0.12160 0.22180 0.24630 0.14300
C 	C 	0.72000 0.06070 0.50249 0.09200
H 	H 	0.75160 0.10250 0.52490 -0.04900
C 	C 	0.69360 0.96420 0.44268 0.09400
H 	H 	0.70280 0.92510 0.41490 -0.01400
C 	C 	0.91250 0.01660 0.35288 0.31800
C 	C 	0.92970 0.03530 0.29994 -0.10600
C 	C 	0.99960 0.10560 0.28500 -0.10000
H 	H 	0.03450 0.14170 0.30850 0.07600
C 	C 	0.01880 0.12340 0.23533 0.15700
Zn	Zn	0.58883 0.47711 0.44664 1.18500
O 	O 	0.63940 0.55440 0.36719 -0.36800
O 	O 	0.54670 0.42330 0.38332 -0.46900
N 	N 	0.73280 0.48390 0.46469 -0.29300
N 	N 	0.87600 0.46170 0.50405 -0.26100
N 	N 	0.89270 0.52470 0.46508 -0.26000
N 	N 	0.41010 0.30930 0.22360 -0.32500
H 	H 	0.39650 0.29760 0.19340 0.18000
H 	H 	0.37840 0.27820 0.24630 0.14300
C 	C 	0.78000 0.43930 0.50249 0.09300
H 	H 	0.74840 0.39750 0.52490 -0.04900
C 	C 	0.80640 0.53580 0.44268 0.09200
H 	H 	0.79720 0.57490 0.41490 -0.01400
C 	C 	0.58750 0.48340 0.35288 0.32300
C 	C 	0.57030 0.46470 0.29994 -0.10700
C 	C 	0.50040 0.39440 0.28500 -0.08600
H 	H 	0.46550 0.35830 0.30850 0.06900
C 	C 	0.48120 0.37660 0.23533 0.14600
Zn	Zn	0.47711 0.91117 0.44664 1.18500
O 	O 	0.55440 0.86060 0.36719 -0.36800
O 	O 	0.42330 0.95330 0.38332 -0.46900
N 	N 	0.48390 0.76720 0.46469 -0.29300
N 	N 	0.46170 0.62400 0.50405 -0.26100
N 	N 	0.52470 0.60730 0.46508 -0.26000
N 	N 	0.30930 0.08990 0.22360 -0.32600
H 	H 	0.29760 0.10350 0.19340 0.18100
H 	H 	0.27820 0.12160 0.24630 0.14300
C 	C 	0.43930 0.72000 0.50249 0.09300
H 	H 	0.39750 0.75160 0.52490 -0.04900
C 	C 	0.53580 0.69360 0.44268 0.09200
H 	H 	0.57490 0.70280 0.41490 -0.01400
C 	C 	0.48340 0.91250 0.35288 0.32200
C 	C 	0.46470 0.92970 0.29994 -0.10400
C 	C 	0.39440 0.99960 0.28500 -0.09400
H 	H 	0.35830 0.03450 0.30850 0.07200
C 	C 	0.37660 0.01880 0.23533 0.15200
Zn	Zn	0.02289 0.58883 0.44664 1.18500
O 	O 	0.94560 0.63940 0.36719 -0.36700
O 	O 	0.07670 0.54670 0.38332 -0.46900
N 	N 	0.01610 0.73280 0.46469 -0.29400
N 	N 	0.03830 0.87600 0.50405 -0.26200
N 	N 	0.97530 0.89270 0.46508 -0.25900
N 	N 	0.19070 0.41010 0.22360 -0.32400
H 	H 	0.20240 0.39650 0.19340 0.18000
H 	H 	0.22180 0.37840 0.24630 0.14300
C 	C 	0.06070 0.78000 0.50249 0.09200
H 	H 	0.10250 0.74840 0.52490 -0.04900
C 	C 	0.96420 0.80640 0.44268 0.09500
H 	H 	0.92510 0.79720 0.41490 -0.01400
C 	C 	0.01660 0.58750 0.35288 0.32200
C 	C 	0.03530 0.57030 0.29994 -0.10800
C 	C 	0.10560 0.50040 0.28500 -0.08500
H 	H 	0.14170 0.46550 0.30850 0.06800
C 	C 	0.12340 0.48120 0.23533 0.14600
Zn	Zn	0.08883 0.52289 0.05336 1.18500
O 	O 	0.13940 0.44560 0.13281 -0.36800
O 	O 	0.04670 0.57670 0.11668 -0.46900
N 	N 	0.23280 0.51610 0.03531 -0.29300
N 	N 	0.37600 0.53830 0.99595 -0.26100
N 	N 	0.39270 0.47530 0.03492 -0.26000
N 	N 	0.91010 0.69070 0.27640 -0.32500
H 	H 	0.89650 0.70240 0.30660 0.18100
H 	H 	0.87840 0.72180 0.25370 0.14300
C 	C 	0.28000 0.56070 0.99751 0.09200
H 	H 	0.24840 0.60250 0.97510 -0.04900
C 	C 	0.30640 0.46420 0.05732 0.09200
H 	H 	0.29720 0.42510 0.08510 -0.01400
C 	C 	0.08750 0.51660 0.14712 0.32300
C 	C 	0.07030 0.53530 0.20006 -0.10600
C 	C 	0.00040 0.60560 0.21500 -0.08900
H 	H 	0.96550 0.64170 0.19150 0.07000
C 	C 	0.98120 0.62340 0.26467 0.14800
Zn	Zn	0.41117 0.97711 0.05336 1.18500
O 	O 	0.36060 0.05440 0.13281 -0.36700
O 	O 	0.45330 0.92330 0.11668 -0.46900
N 	N 	0.26720 0.98390 0.03531 -0.29500
N 	N 	0.12400 0.96170 0.99595 -0.26200
N 	N 	0.10730 0.02470 0.03492 -0.25800
N 	N 	0.58990 0.80930 0.27640 -0.32400
H 	H 	0.60350 0.79760 0.30660 0.18000
H 	H 	0.62160 0.77820 0.25370 0.14200
C 	C 	0.22000 0.93930 0.99751 0.09300
H 	H 	0.25160 0.89750 0.97510 -0.04900
C 	C 	0.19360 0.03580 0.05732 0.09600
H 	H 	0.20280 0.07490 0.08510 -0.01400
C 	C 	0.41250 0.98340 0.14712 0.32200
C 	C 	0.42970 0.96470 0.20006 -0.11000
C 	C 	0.49960 0.89440 0.21500 -0.08400
H 	H 	0.53450 0.85830 0.19150 0.06800
C 	C 	0.51880 0.87660 0.26467 0.14500
Zn	Zn	0.52289 0.41117 0.05336 1.18500
O 	O 	0.44560 0.36060 0.13281 -0.36800
O 	O 	0.57670 0.45330 0.11668 -0.46900
N 	N 	0.51610 0.26720 0.03531 -0.29200
N 	N 	0.53830 0.12400 0.99595 -0.26100
N 	N 	0.47530 0.10730 0.03492 -0.26000
N 	N 	0.69070 0.58990 0.27640 -0.32500
H 	H 	0.70240 0.60350 0.30660 0.18000
H 	H 	0.72180 0.62160 0.25370 0.14200
C 	C 	0.56070 0.22000 0.99751 0.09200
H 	H 	0.60250 0.25160 0.97510 -0.04900
C 	C 	0.46420 0.19360 0.05732 0.09200
H 	H 	0.42510 0.20280 0.08510 -0.01400
C 	C 	0.51660 0.41250 0.14712 0.32300
C 	C 	0.53530 0.42970 0.20006 -0.10700
C 	C 	0.60560 0.49960 0.21500 -0.08600
H 	H 	0.64170 0.53450 0.19150 0.06800
C 	C 	0.62340 0.51880 0.26467 0.14600
Zn	Zn	0.97711 0.08883 0.05336 1.18400
O 	O 	0.05440 0.13940 0.13281 -0.36400
O 	O 	0.92330 0.04670 0.11668 -0.46900
N 	N 	0.98390 0.23280 0.03531 -0.29500
N 	N 	0.96170 0.37600 0.99595 -0.26100
N 	N 	0.02470 0.39270 0.03492 -0.26000
N 	N 	0.80930 0.91010 0.27640 -0.32600
H 	H 	0.79760 0.89650 0.30660 0.18100
H 	H 	0.77820 0.87840 0.25370 0.14300
C 	C 	0.93930 0.28000 0.99751 0.09300
H 	H 	0.89750 0.24840 0.97510 -0.04900
C 	C 	0.03580 0.30640 0.05732 0.09600
H 	H 	0.07490 0.29720 0.08510 -0.01500
C 	C 	0.98340 0.08750 0.14712 0.31900
C 	C 	0.96470 0.07030 0.20006 -0.11000
C 	C 	0.89440 0.00040 0.21500 -0.09400
H 	H 	0.85830 0.96550 0.19150 0.07300
C 	C 	0.87660 0.98120 0.26467 0.15300
Zn	Zn	0.08883 0.97711 0.55336 1.18500
O 	O 	0.13940 0.05440 0.63281 -0.36500
O 	O 	0.04670 0.92330 0.61668 -0.46900
N 	N 	0.23280 0.98390 0.53531 -0.29400
N 	N 	0.37600 0.96170 0.49595 -0.26100
N 	N 	0.39270 0.02470 0.53492 -0.26000
N 	N 	0.91010 0.80930 0.77640 -0.32700
H 	H 	0.89650 0.79760 0.80660 0.18100
H 	H 	0.87840 0.77820 0.75370 0.14300
C 	C 	0.28000 0.93930 0.49751 0.09200
H 	H 	0.24840 0.89750 0.47510 -0.04900
C 	C 	0.30640 0.03580 0.55732 0.09400
H 	H 	0.29720 0.07490 0.58510 -0.01400
C 	C 	0.08750 0.98340 0.64712 0.31800
C 	C 	0.07030 0.96470 0.70006 -0.10600
C 	C 	0.00040 0.89440 0.71500 -0.10000
H 	H 	0.96550 0.85830 0.69150 0.07600
C 	C 	0.98120 0.87660 0.76467 0.15700
Zn	Zn	0.41117 0.52289 0.55336 1.18500
O 	O 	0.36060 0.44560 0.63281 -0.36800
O 	O 	0.45330 0.57670 0.61668 -0.46900
N 	N 	0.26720 0.51610 0.53531 -0.29300
N 	N 	0.12400 0.53830 0.49595 -0.26100
N 	N 	0.10730 0.47530 0.53492 -0.26000
N 	N 	0.58990 0.69070 0.77640 -0.32500
H 	H 	0.60350 0.70240 0.80660 0.18000
H 	H 	0.62160 0.72180 0.75370 0.14300
C 	C 	0.22000 0.56070 0.49751 0.09300
H 	H 	0.25160 0.60250 0.47510 -0.04900
C 	C 	0.19360 0.46420 0.55732 0.09200
H 	H 	0.20280 0.42510 0.58510 -0.01400
C 	C 	0.41250 0.51660 0.64712 0.32300
C 	C 	0.42970 0.53530 0.70006 -0.10700
C 	C 	0.49960 0.60560 0.71500 -0.08600
H 	H 	0.53450 0.64170 0.69150 0.06900
C 	C 	0.51880 0.62340 0.76467 0.14600
Zn	Zn	0.52289 0.08883 0.55336 1.18500
O 	O 	0.44560 0.13940 0.63281 -0.36800
O 	O 	0.57670 0.04670 0.61668 -0.46900
N 	N 	0.51610 0.23280 0.53531 -0.29300
N 	N 	0.53830 0.37600 0.49595 -0.26100
N 	N 	0.47530 0.39270 0.53492 -0.26000
N 	N 	0.69070 0.91010 0.77640 -0.32600
H 	H 	0.70240 0.89650 0.80660 0.18100
H 	H 	0.72180 0.87840 0.75370 0.14300
C 	C 	0.56070 0.28000 0.49751 0.09300
H 	H 	0.60250 0.24840 0.47510 -0.04900
C 	C 	0.46420 0.30640 0.55732 0.09200
H 	H 	0.42510 0.29720 0.58510 -0.01400
C 	C 	0.51660 0.08750 0.64712 0.32200
C 	C 	0.53530 0.07030 0.70006 -0.10400
C 	C 	0.60560 0.00040 0.71500 -0.09400
H 	H 	0.64170 0.96550 0.69150 0.07200
C 	C 	0.62340 0.98120 0.76467 0.15200
Zn	Zn	0.97711 0.41117 0.55336 1.18500
O 	O 	0.05440 0.36060 0.63281 -0.36700
O 	O 	0.92330 0.45330 0.61668 -0.46900
N 	N 	0.98390 0.26720 0.53531 -0.29400
N 	N 	0.96170 0.12400 0.49595 -0.26200
N 	N 	0.02470 0.10730 0.53492 -0.25900
N 	N 	0.80930 0.58990 0.77640 -0.32400
H 	H 	0.79760 0.60350 0.80660 0.18000
H 	H 	0.77820 0.62160 0.75370 0.14300
C 	C 	0.93930 0.22000 0.49751 0.09200
H 	H 	0.89750 0.25160 0.47510 -0.04900
C 	C 	0.03580 0.19360 0.55732 0.09500
H 	H 	0.07490 0.20280 0.58510 -0.01400
C 	C 	0.98340 0.41250 0.64712 0.32200
C 	C 	0.96470 0.42970 0.70006 -0.10800
C 	C 	0.89440 0.49960 0.71500 -0.08500
H 	H 	0.85830 0.53450 0.69150 0.06800
C 	C 	0.87660 0.51880 0.76467 0.14600
Zn	Zn	0.91117 0.47711 0.94664 1.18500
O 	O 	0.86060 0.55440 0.86719 -0.36800
O 	O 	0.95330 0.42330 0.88332 -0.46900
N 	N 	0.76720 0.48390 0.96469 -0.29300
N 	N 	0.62400 0.46170 0.00405 -0.26100
N 	N 	0.60730 0.52470 0.96508 -0.26000
N 	N 	0.08990 0.30930 0.72360 -0.32500
H 	H 	0.10350 0.29760 0.69340 0.18100
H 	H 	0.12160 0.27820 0.74630 0.14300
C 	C 	0.72000 0.43930 0.00249 0.09200
H 	H 	0.75160 0.39750 0.02490 -0.04900
C 	C 	0.69360 0.53580 0.94268 0.09200
H 	H 	0.70280 0.57490 0.91490 -0.01400
C 	C 	0.91250 0.48340 0.85288 0.32300
C 	C 	0.92970 0.46470 0.79994 -0.10600
C 	C 	0.99960 0.39440 0.78500 -0.08900
H 	H 	0.03450 0.35830 0.80850 0.07000
C 	C 	0.01880 0.37660 0.73533 0.14800
Zn	Zn	0.58883 0.02289 0.94664 1.18500
O 	O 	0.63940 0.94560 0.86719 -0.36700
O 	O 	0.54670 0.07670 0.88332 -0.46900
N 	N 	0.73280 0.01610 0.96469 -0.29500
N 	N 	0.87600 0.03830 0.00405 -0.26200
N 	N 	0.89270 0.97530 0.96508 -0.25800
N 	N 	0.41010 0.19070 0.72360 -0.32400
H 	H 	0.39650 0.20240 0.69340 0.18000
H 	H 	0.37840 0.22180 0.74630 0.14200
C 	C 	0.78000 0.06070 0.00249 0.09300
H 	H 	0.74840 0.10250 0.02490 -0.04900
C 	C 	0.80640 0.96420 0.94268 0.09600
H 	H 	0.79720 0.92510 0.91490 -0.01400
C 	C 	0.58750 0.01660 0.85288 0.32200
C 	C 	0.57030 0.03530 0.79994 -0.11000
C 	C 	0.50040 0.10560 0.78500 -0.08400
H 	H 	0.46550 0.14170 0.80850 0.06800
C 	C 	0.48120 0.12340 0.73533 0.14500
Zn	Zn	0.47711 0.58883 0.94664 1.18500
O 	O 	0.55440 0.63940 0.86719 -0.36800
O 	O 	0.42330 0.54670 0.88332 -0.46900
N 	N 	0.48390 0.73280 0.96469 -0.29200
N 	N 	0.46170 0.87600 0.00405 -0.26100
N 	N 	0.52470 0.89270 0.96508 -0.26000
N 	N 	0.30930 0.41010 0.72360 -0.32500
H 	H 	0.29760 0.39650 0.69340 0.18000
H 	H 	0.27820 0.37840 0.74630 0.14200
C 	C 	0.43930 0.78000 0.00249 0.09200
H 	H 	0.39750 0.74840 0.02490 -0.04900
C 	C 	0.53580 0.80640 0.94268 0.09200
H 	H 	0.57490 0.79720 0.91490 -0.01400
C 	C 	0.48340 0.58750 0.85288 0.32300
C 	C 	0.46470 0.57030 0.79994 -0.10700
C 	C 	0.39440 0.50040 0.78500 -0.08600
H 	H 	0.35830 0.46550 0.80850 0.06800
C 	C 	0.37660 0.48120 0.73533 0.14600
Zn	Zn	0.02289 0.91117 0.94664 1.18400
O 	O 	0.94560 0.86060 0.86719 -0.36400
O 	O 	0.07670 0.95330 0.88332 -0.46900
N 	N 	0.01610 0.76720 0.96469 -0.29500
N 	N 	0.03830 0.62400 0.00405 -0.26100
N 	N 	0.97530 0.60730 0.96508 -0.26000
N 	N 	0.19070 0.08990 0.72360 -0.32600
H 	H 	0.20240 0.10350 0.69340 0.18100
H 	H 	0.22180 0.12160 0.74630 0.14300
C 	C 	0.06070 0.72000 0.00249 0.09300
H 	H 	0.10250 0.75160 0.02490 -0.04900
C 	C 	0.96420 0.69360 0.94268 0.09600
H 	H 	0.92510 0.70280 0.91490 -0.01500
C 	C 	0.01660 0.91250 0.85288 0.31900
C 	C 	0.03530 0.92970 0.79994 -0.11000
C 	C 	0.10560 0.99960 0.78500 -0.09400
H 	H 	0.14170 0.03450 0.80850 0.07300
C 	C 	0.12340 0.01880 0.73533 0.15300
