data_crystal

_cell_length_a 28.28200
_cell_length_b 10.33700
_cell_length_c 16.28500
_cell_angle_alpha 90.00000
_cell_angle_beta  90.00000
_cell_angle_gamma 90.00000

_symmetry_space_group_name_	'P 1'
_symmetry_space_group_name_H-M	'P 1'

loop_
_symmetry_equiv_pos_as_xyz
  x,y,z

loop_
_atom_site_label
_atom_site_type_symbol
_atom_site_fract_x
_atom_site_fract_y
_atom_site_fract_z
_atom_site_charge
N 	N 	0.35620 0.19430 0.65400 -0.24800
N 	N 	0.37340 0.13400 0.41110 -0.12800
C 	C 	0.28760 0.23330 0.55280 -0.04200
C 	C 	0.24520 0.27780 0.58380 0.00700
C 	C 	0.29300 0.20530 0.46860 -0.02400
C 	C 	0.32630 0.21270 0.60850 0.10700
C 	C 	0.33750 0.16310 0.43650 0.08100
N 	N 	0.14380 0.30570 0.15400 -0.24900
N 	N 	0.12660 0.36600 0.91110 -0.12900
C 	C 	0.21240 0.26670 0.05280 -0.04300
C 	C 	0.25480 0.22220 0.08380 0.00600
C 	C 	0.20700 0.29470 0.96860 -0.02400
C 	C 	0.17370 0.28730 0.10850 0.10700
C 	C 	0.16250 0.33690 0.93650 0.08100
N 	N 	0.64380 0.19430 0.84600 -0.24900
N 	N 	0.62660 0.13400 0.08890 -0.12900
C 	C 	0.71240 0.23330 0.94720 -0.04300
C 	C 	0.75480 0.27780 0.91620 0.00600
C 	C 	0.70700 0.20530 0.03140 -0.02500
C 	C 	0.67370 0.21270 0.89150 0.10700
C 	C 	0.66250 0.16310 0.06350 0.08100
N 	N 	0.85620 0.30570 0.34600 -0.24900
N 	N 	0.87340 0.36600 0.58890 -0.12900
C 	C 	0.78760 0.26670 0.44720 -0.04300
C 	C 	0.74520 0.22220 0.41620 0.00600
C 	C 	0.79300 0.29470 0.53140 -0.02400
C 	C 	0.82630 0.28730 0.39150 0.10700
C 	C 	0.83750 0.33690 0.56350 0.08100
N 	N 	0.14380 0.30570 0.34600 -0.24900
N 	N 	0.12660 0.36600 0.58890 -0.12900
C 	C 	0.21240 0.26670 0.44720 -0.04300
C 	C 	0.25480 0.22220 0.41620 0.00600
C 	C 	0.20700 0.29470 0.53140 -0.02400
C 	C 	0.17370 0.28730 0.39150 0.10700
C 	C 	0.16250 0.33690 0.56350 0.08100
N 	N 	0.35620 0.19430 0.84600 -0.24900
N 	N 	0.37340 0.13400 0.08890 -0.12900
C 	C 	0.28760 0.23330 0.94720 -0.04300
C 	C 	0.24520 0.27780 0.91620 0.00600
C 	C 	0.29300 0.20530 0.03140 -0.02500
C 	C 	0.32630 0.21270 0.89150 0.10700
C 	C 	0.33750 0.16310 0.06350 0.08100
N 	N 	0.85620 0.30570 0.15400 -0.24900
N 	N 	0.87340 0.36600 0.91110 -0.12900
C 	C 	0.78760 0.26670 0.05280 -0.04300
C 	C 	0.74520 0.22220 0.08380 0.00600
C 	C 	0.79300 0.29470 0.96860 -0.02400
C 	C 	0.82630 0.28730 0.10850 0.10700
C 	C 	0.83750 0.33690 0.93650 0.08100
N 	N 	0.64380 0.19430 0.65400 -0.24900
N 	N 	0.62660 0.13400 0.41110 -0.12900
C 	C 	0.71240 0.23330 0.55280 -0.04300
C 	C 	0.75480 0.27780 0.58380 0.00600
C 	C 	0.70700 0.20530 0.46860 -0.02400
C 	C 	0.67370 0.21270 0.60850 0.10700
C 	C 	0.66250 0.16310 0.43650 0.08100
Cu	Cu	0.39914 0.18229 0.75000 0.87200
N 	N 	0.43570 0.34430 0.75000 -0.25800
N 	N 	0.43380 0.01990 0.75000 -0.26000
C 	C 	0.47480 0.79820 0.75000 -0.04200
C 	C 	0.44980 0.68300 0.75000 0.01700
C 	C 	0.47520 0.56770 0.75000 -0.04300
C 	C 	0.45110 0.92090 0.75000 0.11500
C 	C 	0.45130 0.44580 0.75000 0.10100
Cu	Cu	0.10086 0.31771 0.25000 0.87200
N 	N 	0.06430 0.15570 0.25000 -0.25800
N 	N 	0.06620 0.48010 0.25000 -0.26000
C 	C 	0.02520 0.70180 0.25000 -0.04200
C 	C 	0.05020 0.81700 0.25000 0.01700
C 	C 	0.02480 0.93230 0.25000 -0.04300
C 	C 	0.04890 0.57910 0.25000 0.11500
C 	C 	0.04870 0.05420 0.25000 0.10100
Cu	Cu	0.60086 0.18229 0.75000 0.87200
N 	N 	0.56430 0.34430 0.75000 -0.25800
N 	N 	0.56620 0.01990 0.75000 -0.26000
C 	C 	0.52520 0.79820 0.75000 -0.04200
C 	C 	0.55020 0.68300 0.75000 0.01700
C 	C 	0.52480 0.56770 0.75000 -0.04300
C 	C 	0.54890 0.92090 0.75000 0.11500
C 	C 	0.54870 0.44580 0.75000 0.10100
Cu	Cu	0.89914 0.31771 0.25000 0.87200
N 	N 	0.93570 0.15570 0.25000 -0.25800
N 	N 	0.93380 0.48010 0.25000 -0.26000
C 	C 	0.97480 0.70180 0.25000 -0.04200
C 	C 	0.94980 0.81700 0.25000 0.01700
C 	C 	0.97520 0.93230 0.25000 -0.04300
C 	C 	0.95110 0.57910 0.25000 0.11500
C 	C 	0.95130 0.05420 0.25000 0.10100
N 	N 	0.85620 0.69430 0.65400 -0.24900
N 	N 	0.87340 0.63400 0.41110 -0.12900
C 	C 	0.78760 0.73330 0.55280 -0.04300
C 	C 	0.74520 0.77780 0.58380 0.00600
C 	C 	0.79300 0.70530 0.46860 -0.02400
C 	C 	0.82630 0.71270 0.60850 0.10700
C 	C 	0.83750 0.66310 0.43650 0.08100
N 	N 	0.64380 0.80570 0.15400 -0.24900
N 	N 	0.62660 0.86600 0.91110 -0.12900
C 	C 	0.71240 0.76670 0.05280 -0.04300
C 	C 	0.75480 0.72220 0.08380 0.00600
C 	C 	0.70700 0.79470 0.96860 -0.02500
C 	C 	0.67370 0.78730 0.10850 0.10700
C 	C 	0.66250 0.83690 0.93650 0.08100
N 	N 	0.14380 0.69430 0.84600 -0.24900
N 	N 	0.12660 0.63400 0.08890 -0.12900
C 	C 	0.21240 0.73330 0.94720 -0.04300
C 	C 	0.25480 0.77780 0.91620 0.00600
C 	C 	0.20700 0.70530 0.03140 -0.02400
C 	C 	0.17370 0.71270 0.89150 0.10700
C 	C 	0.16250 0.66310 0.06350 0.08100
N 	N 	0.35620 0.80570 0.34600 -0.24900
N 	N 	0.37340 0.86600 0.58890 -0.12900
C 	C 	0.28760 0.76670 0.44720 -0.04300
C 	C 	0.24520 0.72220 0.41620 0.00600
C 	C 	0.29300 0.79470 0.53140 -0.02400
C 	C 	0.32630 0.78730 0.39150 0.10700
C 	C 	0.33750 0.83690 0.56350 0.08100
N 	N 	0.64380 0.80570 0.34600 -0.24900
N 	N 	0.62660 0.86600 0.58890 -0.12900
C 	C 	0.71240 0.76670 0.44720 -0.04300
C 	C 	0.75480 0.72220 0.41620 0.00600
C 	C 	0.70700 0.79470 0.53140 -0.02400
C 	C 	0.67370 0.78730 0.39150 0.10700
C 	C 	0.66250 0.83690 0.56350 0.08100
N 	N 	0.85620 0.69430 0.84600 -0.24900
N 	N 	0.87340 0.63400 0.08890 -0.12900
C 	C 	0.78760 0.73330 0.94720 -0.04300
C 	C 	0.74520 0.77780 0.91620 0.00600
C 	C 	0.79300 0.70530 0.03140 -0.02400
C 	C 	0.82630 0.71270 0.89150 0.10700
C 	C 	0.83750 0.66310 0.06350 0.08100
N 	N 	0.35620 0.80570 0.15400 -0.24900
N 	N 	0.37340 0.86600 0.91110 -0.12900
C 	C 	0.28760 0.76670 0.05280 -0.04300
C 	C 	0.24520 0.72220 0.08380 0.00600
C 	C 	0.29300 0.79470 0.96860 -0.02500
C 	C 	0.32630 0.78730 0.10850 0.10700
C 	C 	0.33750 0.83690 0.93650 0.08100
N 	N 	0.14380 0.69430 0.65400 -0.24900
N 	N 	0.12660 0.63400 0.41110 -0.12900
C 	C 	0.21240 0.73330 0.55280 -0.04300
C 	C 	0.25480 0.77780 0.58380 0.00600
C 	C 	0.20700 0.70530 0.46860 -0.02400
C 	C 	0.17370 0.71270 0.60850 0.10700
C 	C 	0.16250 0.66310 0.43650 0.08100
Cu	Cu	0.89914 0.68229 0.75000 0.87200
N 	N 	0.93570 0.84430 0.75000 -0.25800
N 	N 	0.93380 0.51990 0.75000 -0.26000
C 	C 	0.97480 0.29820 0.75000 -0.04200
C 	C 	0.94980 0.18300 0.75000 0.01700
C 	C 	0.97520 0.06770 0.75000 -0.04300
C 	C 	0.95110 0.42090 0.75000 0.11500
C 	C 	0.95130 0.94580 0.75000 0.10100
Cu	Cu	0.60086 0.81771 0.25000 0.87200
N 	N 	0.56430 0.65570 0.25000 -0.25800
N 	N 	0.56620 0.98010 0.25000 -0.26000
C 	C 	0.52520 0.20180 0.25000 -0.04200
C 	C 	0.55020 0.31700 0.25000 0.01700
C 	C 	0.52480 0.43230 0.25000 -0.04300
C 	C 	0.54890 0.07910 0.25000 0.11500
C 	C 	0.54870 0.55420 0.25000 0.10100
Cu	Cu	0.10086 0.68229 0.75000 0.87200
N 	N 	0.06430 0.84430 0.75000 -0.25800
N 	N 	0.06620 0.51990 0.75000 -0.26000
C 	C 	0.02520 0.29820 0.75000 -0.04200
C 	C 	0.05020 0.18300 0.75000 0.01700
C 	C 	0.02480 0.06770 0.75000 -0.04300
C 	C 	0.04890 0.42090 0.75000 0.11500
C 	C 	0.04870 0.94580 0.75000 0.10100
Cu	Cu	0.39914 0.81771 0.25000 0.87200
N 	N 	0.43570 0.65570 0.25000 -0.25800
N 	N 	0.43380 0.98010 0.25000 -0.26000
C 	C 	0.47480 0.20180 0.25000 -0.04200
C 	C 	0.44980 0.31700 0.25000 0.01700
C 	C 	0.47520 0.43230 0.25000 -0.04300
C 	C 	0.45110 0.07910 0.25000 0.11500
C 	C 	0.45130 0.55420 0.25000 0.10100
