data_crystal

_cell_length_a 12.66500
_cell_length_b 15.73760
_cell_length_c 15.73760
_cell_angle_alpha 80.68210
_cell_angle_beta  66.27280
_cell_angle_gamma 66.27280

_symmetry_space_group_name_	'P 1'
_symmetry_space_group_name_H-M	'P 1'

loop_
_symmetry_equiv_pos_as_xyz
  x,y,z

loop_
_atom_site_label
_atom_site_type_symbol
_atom_site_fract_x
_atom_site_fract_y
_atom_site_fract_z
_atom_site_charge
Cu	Cu	0.00000 0.50000 0.50000 0.90100
Cu	Cu	0.50000 0.00000 -0.00000 0.85300
Cu	Cu	0.50000 0.50000 -0.00000 0.88400
Cu	Cu	0.50000 0.00000 0.50000 0.88300
H 	H 	0.38330 0.52730 0.85070 0.00900
H 	H 	0.54770 0.29250 0.95870 0.05300
H 	H 	0.47330 0.25390 0.85490 0.03500
H 	H 	0.47490 0.29410 0.69130 0.11500
H 	H 	0.37800 0.31020 0.58820 0.01300
H 	H 	0.10560 0.53870 0.72170 0.01200
H 	H 	0.20260 0.52420 0.82260 0.12000
H 	H 	0.26130 0.97270 0.64930 0.08900
H 	H 	0.29890 0.20750 0.54130 0.04200
H 	H 	0.08210 0.24610 0.64510 0.03100
H 	H 	0.96030 0.20590 0.80870 0.07500
H 	H 	0.77640 0.18980 0.91180 0.05700
H 	H 	0.86600 0.96130 0.77830 0.12700
H 	H 	0.04940 0.97580 0.67740 0.10600
H 	H 	0.23400 0.14930 0.02730 -0.09500
H 	H 	0.50640 0.04130 0.79250 0.04400
H 	H 	0.32820 0.14510 0.75390 0.03300
H 	H 	0.16620 0.30870 0.79410 0.13900
H 	H 	0.96620 0.41180 0.81020 -0.00700
H 	H 	0.82730 0.27830 0.03870 -0.09000
H 	H 	0.02520 0.17740 0.02420 0.05400
H 	H 	0.91060 0.35070 0.47270 -0.00000
H 	H 	0.84020 0.45870 0.70750 0.05400
H 	H 	0.72720 0.35490 0.74610 0.03400
H 	H 	0.76900 0.19130 0.70590 0.11700
H 	H 	0.68820 0.08820 0.68980 0.00800
H 	H 	0.64430 0.22170 0.46130 0.00700
H 	H 	0.72680 0.32260 0.47580 0.11200
H 	H 	0.61670 0.47270 0.14930 -0.00800
H 	H 	0.45230 0.70750 0.04130 0.04300
H 	H 	0.52670 0.74610 0.14510 0.03500
H 	H 	0.52510 0.70590 0.30870 0.11100
H 	H 	0.62200 0.68980 0.41180 0.01800
H 	H 	0.89440 0.46130 0.27830 0.01400
H 	H 	0.79740 0.47580 0.17740 0.10200
H 	H 	0.73870 0.02730 0.35070 -0.08900
H 	H 	0.70110 0.79250 0.45870 0.05300
H 	H 	0.91790 0.75390 0.35490 0.03700
H 	H 	0.03970 0.79410 0.19130 0.15000
H 	H 	0.22360 0.81020 0.08820 -0.02500
H 	H 	0.13400 0.03870 0.22170 -0.11600
H 	H 	0.95060 0.02420 0.32260 0.11400
H 	H 	0.76600 0.85070 0.97270 0.08400
H 	H 	0.49360 0.95870 0.20750 0.05400
H 	H 	0.67180 0.85490 0.24610 0.03600
H 	H 	0.83380 0.69130 0.20590 0.08300
H 	H 	0.03380 0.58820 0.18980 0.04200
H 	H 	0.17270 0.72170 0.96130 0.11700
H 	H 	0.97480 0.82260 0.97580 0.14900
H 	H 	0.08940 0.64930 0.52730 0.00100
H 	H 	0.15980 0.54130 0.29250 0.04100
H 	H 	0.27280 0.64510 0.25390 0.03400
H 	H 	0.23100 0.80870 0.29410 0.10900
H 	H 	0.31180 0.91180 0.31020 0.02400
H 	H 	0.35570 0.77830 0.53870 0.01900
H 	H 	0.27320 0.67740 0.52420 0.10900
C 	C 	0.41430 0.46460 0.86520 0.10500
C 	C 	0.50500 0.33500 0.92400 0.00600
C 	C 	0.46400 0.31290 0.86710 0.01700
C 	C 	0.34640 0.40840 0.76580 0.18800
C 	C 	0.40070 0.34350 0.69690 -0.21000
C 	C 	0.34210 0.35340 0.63540 0.10100
C 	C 	0.23330 0.42520 0.64360 -0.15400
C 	C 	0.18040 0.48960 0.71500 0.10300
C 	C 	0.23780 0.48090 0.77550 -0.21400
C 	C 	0.16590 0.43400 0.58020 0.33900
C 	C 	0.24410 0.03540 0.63480 -0.03000
C 	C 	0.26400 0.16500 0.57600 0.00200
C 	C 	0.14400 0.18710 0.63290 0.00100
C 	C 	0.02060 0.09160 0.73420 0.06100
C 	C 	0.94110 0.15650 0.80310 -0.07600
C 	C 	0.83090 0.14660 0.86460 -0.00900
C 	C 	0.80210 0.07480 0.85640 -0.04400
C 	C 	0.88500 0.01040 0.78500 -0.09300
C 	C 	0.99420 0.01910 0.72450 -0.10900
C 	C 	0.68010 0.06600 0.91980 0.29400
C 	C 	0.27950 0.13480 0.96460 0.21500
C 	C 	0.42900 0.07600 0.83500 0.00100
C 	C 	0.33110 0.13290 0.81290 0.01200
C 	C 	0.11220 0.23420 0.90840 0.21600
C 	C 	0.09760 0.30310 0.84350 -0.28200
C 	C 	0.97750 0.36460 0.85340 0.19200
C 	C 	0.87690 0.35640 0.92520 -0.22200
C 	C 	0.89540 0.28500 0.98960 0.26300
C 	C 	0.01330 0.22450 0.98090 -0.21400
C 	C 	0.74610 0.41980 0.93400 0.36800
C 	C 	0.87890 0.36520 0.53540 0.10000
C 	C 	0.84000 0.42400 0.66500 0.00500
C 	C 	0.77690 0.36710 0.68710 0.01500
C 	C 	0.75480 0.26580 0.59160 0.18700
C 	C 	0.74420 0.19690 0.65650 -0.21300
C 	C 	0.69550 0.13540 0.64660 0.10200
C 	C 	0.65850 0.14360 0.57480 -0.15900
C 	C 	0.67000 0.21500 0.51040 0.10400
C 	C 	0.71870 0.27550 0.51910 -0.21500
C 	C 	0.59990 0.08020 0.56600 0.33900
C 	C 	0.58570 0.53540 0.13480 0.09100
C 	C 	0.49500 0.66500 0.07600 -0.00000
C 	C 	0.53600 0.68710 0.13290 0.00900
C 	C 	0.65360 0.59160 0.23420 0.17600
C 	C 	0.59930 0.65650 0.30310 -0.19900
C 	C 	0.65790 0.64660 0.36460 0.09200
C 	C 	0.76670 0.57480 0.35640 -0.14300
C 	C 	0.81960 0.51040 0.28500 0.09300
C 	C 	0.76220 0.51910 0.22450 -0.20200
C 	C 	0.83410 0.56600 0.41980 0.33300
C 	C 	0.75590 0.96460 0.36520 0.22800
C 	C 	0.73600 0.83500 0.42400 0.00400
C 	C 	0.85600 0.81290 0.36710 0.02400
C 	C 	0.97940 0.90840 0.26580 0.29800
C 	C 	0.05890 0.84350 0.19690 -0.32800
C 	C 	0.16910 0.85340 0.13540 0.20300
C 	C 	0.19790 0.92520 0.14360 -0.25600
C 	C 	0.11500 0.98960 0.21500 0.30800
C 	C 	0.00580 0.98090 0.27550 -0.30500
C 	C 	0.31990 0.93400 0.08020 0.37800
C 	C 	0.72050 0.86520 0.03540 -0.00000
C 	C 	0.57100 0.92400 0.16500 0.00600
C 	C 	0.66890 0.86710 0.18710 0.01400
C 	C 	0.88780 0.76580 0.09160 0.13600
C 	C 	0.90240 0.69690 0.15650 -0.11500
C 	C 	0.02250 0.63540 0.14660 -0.01000
C 	C 	0.12310 0.64360 0.07480 -0.06700
C 	C 	0.10460 0.71500 0.01040 -0.07900
C 	C 	0.98670 0.77550 0.01910 -0.17200
C 	C 	0.25390 0.58020 0.06600 0.30100
C 	C 	0.12110 0.63480 0.46460 0.09600
C 	C 	0.16000 0.57600 0.33500 0.00100
C 	C 	0.22310 0.63290 0.31290 0.01000
C 	C 	0.24520 0.73420 0.40840 0.17700
C 	C 	0.25580 0.80310 0.34350 -0.19500
C 	C 	0.30450 0.86460 0.35340 0.08900
C 	C 	0.34150 0.85640 0.42520 -0.13600
C 	C 	0.33000 0.78500 0.48960 0.09100
C 	C 	0.28130 0.72450 0.48090 -0.20000
C 	C 	0.40010 0.91980 0.43400 0.33200
N 	N 	0.47480 0.42870 0.92350 -0.19600
N 	N 	0.40540 0.39550 0.83070 -0.15000
N 	N 	0.32700 0.07130 0.57650 -0.20100
N 	N 	0.13160 0.10450 0.66930 -0.11700
N 	N 	0.39830 0.07650 0.92870 -0.22200
N 	N 	0.23610 0.16930 0.89550 -0.17100
N 	N 	0.90350 0.42350 0.57130 -0.20500
N 	N 	0.80090 0.33070 0.60450 -0.15000
N 	N 	0.52520 0.57130 0.07650 -0.21800
N 	N 	0.59460 0.60450 0.16930 -0.14900
N 	N 	0.67300 0.92870 0.42350 -0.21400
N 	N 	0.86840 0.89550 0.33070 -0.18100
N 	N 	0.60170 0.92350 0.07130 -0.18500
N 	N 	0.76390 0.83070 0.10450 -0.12800
N 	N 	0.09650 0.57650 0.42870 -0.21400
N 	N 	0.19910 0.66930 0.39550 -0.14800
O 	O 	0.05770 0.49140 0.60020 -0.40400
O 	O 	0.22730 0.38080 0.51020 -0.30300
O 	O 	0.64930 0.00860 0.89980 -0.38900
O 	O 	0.61830 0.11920 0.98980 -0.27200
O 	O 	0.65790 0.39980 0.99140 -0.37400
O 	O 	0.73750 0.48980 0.88080 -0.28300
O 	O 	0.54910 0.10020 0.50860 -0.41100
O 	O 	0.60810 0.01020 0.61920 -0.31500
O 	O 	0.94230 0.50860 0.39980 -0.38900
O 	O 	0.77270 0.61920 0.48980 -0.28800
O 	O 	0.35070 0.99140 0.10020 -0.38200
O 	O 	0.38170 0.88080 0.01020 -0.30900
O 	O 	0.34210 0.60020 0.00860 -0.41200
O 	O 	0.26250 0.51020 0.11920 -0.30500
O 	O 	0.45090 0.89980 0.49140 -0.37500
O 	O 	0.39190 0.98980 0.38080 -0.27100
