data_crystal

_cell_length_a 6.13080
_cell_length_b 7.45800
_cell_length_c 12.45700
_cell_angle_alpha 74.66200
_cell_angle_beta  88.83500
_cell_angle_gamma 89.30400

_symmetry_space_group_name_	'P 1'
_symmetry_space_group_name_H-M	'P 1'

loop_
_symmetry_equiv_pos_as_xyz
  x,y,z

loop_
_atom_site_label
_atom_site_type_symbol
_atom_site_fract_x
_atom_site_fract_y
_atom_site_fract_z
_atom_site_charge
La	La	0.40358 0.93056 0.44661 1.60200
La	La	0.25107 0.25389 0.84994 1.56500
H 	H 	0.86970 0.39130 0.58630 0.07200
H 	H 	0.98080 0.39170 0.41740 0.15800
H 	H 	0.77980 0.83910 0.71490 0.06200
H 	H 	0.67180 0.66850 0.88890 0.03500
H 	H 	0.65940 0.37380 0.07430 0.08500
H 	H 	0.93910 0.33340 0.21540 0.03100
H 	H 	0.09350 0.09770 0.65850 0.25500
H 	H 	0.26990 0.23580 0.38990 0.11500
H 	H 	0.55020 0.60750 0.63610 0.24600
H 	H 	0.35800 0.59010 0.91580 0.19600
H 	H 	0.53220 0.66600 0.11460 0.20900
H 	H 	0.88110 0.68820 0.17320 0.24800
C 	C 	0.19010 0.47430 0.58310 0.32800
C 	C 	0.01200 0.33140 0.58320 0.04100
C 	C 	0.03280 0.28520 0.47590 -0.22000
C 	C 	0.90200 0.11620 0.47190 0.46600
C 	C 	0.46140 0.90940 0.71840 0.28600
C 	C 	0.63900 0.77710 0.71780 -0.00100
C 	C 	0.61550 0.62200 0.82830 -0.01700
C 	C 	0.74030 0.45860 0.82250 0.26600
C 	C 	0.53110 0.35710 0.22490 0.35400
C 	C 	0.66670 0.44750 0.12860 -0.06900
C 	C 	0.90520 0.45210 0.16190 0.10900
C 	C 	0.06730 0.47580 0.05750 0.28900
O 	O 	0.19650 0.62550 0.50130 -0.38800
O 	O 	0.33270 0.43400 0.65250 -0.38900
O 	O 	0.03140 0.18780 0.67710 -0.46600
O 	O 	0.25870 0.25490 0.45410 -0.29300
O 	O 	0.99110 0.98740 0.44500 -0.43200
O 	O 	0.69890 0.11690 0.49010 -0.39800
O 	O 	0.31470 0.94380 0.63780 -0.38300
O 	O 	0.44670 0.99580 0.80140 -0.39400
O 	O 	0.61330 0.71230 0.61790 -0.42800
O 	O 	0.38680 0.57530 0.85160 -0.43900
O 	O 	0.65890 0.29600 0.85160 -0.39600
O 	O 	0.95600 0.48480 0.79770 -0.32500
O 	O 	0.54980 0.19080 0.26660 -0.39500
O 	O 	0.41630 0.45200 0.27250 -0.28900
O 	O 	0.61990 0.62850 0.07470 -0.30200
O 	O 	0.92290 0.59000 0.21500 -0.36700
O 	O 	0.09000 0.32890 0.03080 -0.36600
O 	O 	0.13130 0.63110 0.01440 -0.26100
