data_crystal

_cell_length_a 13.80900
_cell_length_b 13.80900
_cell_length_c 30.00400
_cell_angle_alpha 90.00000
_cell_angle_beta  90.00000
_cell_angle_gamma 120.00000

_symmetry_space_group_name_	'P 1'
_symmetry_space_group_name_H-M	'P 1'

loop_
_symmetry_equiv_pos_as_xyz
  x,y,z

loop_
_atom_site_label
_atom_site_type_symbol
_atom_site_fract_x
_atom_site_fract_y
_atom_site_fract_z
_atom_site_charge
Co	Co	0.64226 0.09780 0.46295 1.17900
P 	P 	0.47785 0.15884 0.50138 0.53800
O 	O 	0.56750 0.18950 0.46468 -0.57700
O 	O 	0.70080 0.23340 0.38245 -0.42800
O 	O 	0.62970 0.05430 0.40001 -0.43400
C 	C 	0.63820 0.09990 0.32393 -0.07100
O 	O 	0.40090 0.03270 0.50050 -0.43600
C 	C 	0.65770 0.13260 0.37229 0.36300
O 	O 	0.40830 0.21380 0.49064 -0.42200
C 	C 	0.58050 0.99040 0.31176 -0.04200
H 	H 	0.55230 0.93560 0.33370 0.07900
O 	O 	0.53530 0.19650 0.54655 -0.45900
C 	C 	0.67970 0.18430 0.29080 0.02000
H 	H 	0.71950 0.25920 0.29900 0.04200
C 	C 	0.56240 0.95810 0.26668 0.03900
C 	C 	0.66140 0.15580 0.24680 -0.09700
H 	H 	0.68660 0.21180 0.22530 0.09000
Co	Co	0.90220 0.54446 0.46295 1.17800
P 	P 	0.84116 0.31901 0.50138 0.53700
O 	O 	0.81050 0.37800 0.46468 -0.57800
O 	O 	0.76660 0.46740 0.38245 -0.42900
O 	O 	0.94570 0.57540 0.40001 -0.43500
C 	C 	0.90010 0.53830 0.32393 -0.07200
O 	O 	0.96730 0.36820 0.50050 -0.43600
C 	C 	0.86740 0.52510 0.37229 0.36300
O 	O 	0.78620 0.19450 0.49064 -0.42200
C 	C 	0.00960 0.59010 0.31176 -0.04200
H 	H 	0.06440 0.61670 0.33370 0.07900
O 	O 	0.80350 0.33880 0.54655 -0.46000
C 	C 	0.81570 0.49540 0.29080 0.02000
H 	H 	0.74080 0.46030 0.29900 0.04200
C 	C 	0.04190 0.60430 0.26668 0.03900
C 	C 	0.84420 0.50560 0.24680 -0.09700
H 	H 	0.78820 0.47480 0.22530 0.09000
Co	Co	0.45554 0.35774 0.46295 1.17800
P 	P 	0.68099 0.52215 0.50138 0.53700
O 	O 	0.62200 0.43250 0.46468 -0.57700
O 	O 	0.53260 0.29920 0.38245 -0.42900
O 	O 	0.42460 0.37030 0.40001 -0.43500
C 	C 	0.46170 0.36180 0.32393 -0.07200
O 	O 	0.63180 0.59910 0.50050 -0.43600
C 	C 	0.47490 0.34230 0.37229 0.36300
O 	O 	0.80550 0.59170 0.49064 -0.42200
C 	C 	0.40990 0.41950 0.31176 -0.04200
H 	H 	0.38330 0.44770 0.33370 0.07900
O 	O 	0.66120 0.46470 0.54655 -0.45900
C 	C 	0.50460 0.32030 0.29080 0.02000
H 	H 	0.53970 0.28050 0.29900 0.04200
C 	C 	0.39570 0.43760 0.26668 0.03900
C 	C 	0.49440 0.33860 0.24680 -0.09700
H 	H 	0.52520 0.31340 0.22530 0.09000
Co	Co	0.09780 0.64226 0.03705 1.17800
P 	P 	0.15884 0.47785 0.99862 0.53700
O 	O 	0.18950 0.56750 0.03532 -0.57800
O 	O 	0.23340 0.70080 0.11755 -0.42900
O 	O 	0.05430 0.62970 0.09999 -0.43500
C 	C 	0.09990 0.63820 0.17607 -0.07200
O 	O 	0.03270 0.40090 0.99950 -0.43600
C 	C 	0.13260 0.65770 0.12771 0.36300
O 	O 	0.21380 0.40830 0.00936 -0.42200
C 	C 	0.99040 0.58050 0.18824 -0.04200
H 	H 	0.93560 0.55230 0.16630 0.07800
O 	O 	0.19650 0.53530 0.95345 -0.45900
C 	C 	0.18430 0.67970 0.20920 0.02000
H 	H 	0.25920 0.71950 0.20100 0.04200
C 	C 	0.95810 0.56240 0.23332 0.03900
C 	C 	0.15580 0.66140 0.25320 -0.09700
H 	H 	0.21180 0.68660 0.27470 0.09000
Co	Co	0.54446 0.90220 0.03705 1.17800
P 	P 	0.31901 0.84116 0.99862 0.53700
O 	O 	0.37800 0.81050 0.03532 -0.57800
O 	O 	0.46740 0.76660 0.11755 -0.42900
O 	O 	0.57540 0.94570 0.09999 -0.43500
C 	C 	0.53830 0.90010 0.17607 -0.07200
O 	O 	0.36820 0.96730 0.99950 -0.43600
C 	C 	0.52510 0.86740 0.12771 0.36300
O 	O 	0.19450 0.78620 0.00936 -0.42200
C 	C 	0.59010 0.00960 0.18824 -0.04200
H 	H 	0.61670 0.06440 0.16630 0.07900
O 	O 	0.33880 0.80350 0.95345 -0.45900
C 	C 	0.49540 0.81570 0.20920 0.02000
H 	H 	0.46030 0.74080 0.20100 0.04200
C 	C 	0.60430 0.04190 0.23332 0.03900
C 	C 	0.50560 0.84420 0.25320 -0.09700
H 	H 	0.47480 0.78820 0.27470 0.09000
Co	Co	0.35774 0.45554 0.03705 1.17800
P 	P 	0.52215 0.68099 0.99862 0.53700
O 	O 	0.43250 0.62200 0.03532 -0.57800
O 	O 	0.29920 0.53260 0.11755 -0.42900
O 	O 	0.37030 0.42460 0.09999 -0.43500
C 	C 	0.36180 0.46170 0.17607 -0.07200
O 	O 	0.59910 0.63180 0.99950 -0.43600
C 	C 	0.34230 0.47490 0.12771 0.36300
O 	O 	0.59170 0.80550 0.00936 -0.42200
C 	C 	0.41950 0.40990 0.18824 -0.04200
H 	H 	0.44770 0.38330 0.16630 0.07900
O 	O 	0.46470 0.66120 0.95345 -0.45900
C 	C 	0.32030 0.50460 0.20920 0.02000
H 	H 	0.28050 0.53970 0.20100 0.04200
C 	C 	0.43760 0.39570 0.23332 0.03900
C 	C 	0.33860 0.49440 0.25320 -0.09700
H 	H 	0.31340 0.52520 0.27470 0.09000
Co	Co	0.35774 0.90220 0.53705 1.17800
P 	P 	0.52215 0.84116 0.49862 0.53700
O 	O 	0.43250 0.81050 0.53532 -0.57800
O 	O 	0.29920 0.76660 0.61755 -0.42900
O 	O 	0.37030 0.94570 0.59999 -0.43500
C 	C 	0.36180 0.90010 0.67607 -0.07200
O 	O 	0.59910 0.96730 0.49950 -0.43600
C 	C 	0.34230 0.86740 0.62771 0.36300
O 	O 	0.59170 0.78620 0.50936 -0.42200
C 	C 	0.41950 0.00960 0.68824 -0.04200
H 	H 	0.44770 0.06440 0.66630 0.07900
O 	O 	0.46470 0.80350 0.45345 -0.45900
C 	C 	0.32030 0.81570 0.70920 0.02000
H 	H 	0.28050 0.74080 0.70100 0.04200
C 	C 	0.43760 0.04190 0.73332 0.03900
C 	C 	0.33860 0.84420 0.75320 -0.09700
H 	H 	0.31340 0.78820 0.77470 0.09000
Co	Co	0.09780 0.45554 0.53705 1.17800
P 	P 	0.15884 0.68099 0.49862 0.53700
O 	O 	0.18950 0.62200 0.53532 -0.57800
O 	O 	0.23340 0.53260 0.61755 -0.42900
O 	O 	0.05430 0.42460 0.59999 -0.43500
C 	C 	0.09990 0.46170 0.67607 -0.07200
O 	O 	0.03270 0.63180 0.49950 -0.43600
C 	C 	0.13260 0.47490 0.62771 0.36300
O 	O 	0.21380 0.80550 0.50936 -0.42200
C 	C 	0.99040 0.40990 0.68824 -0.04200
H 	H 	0.93560 0.38330 0.66630 0.07900
O 	O 	0.19650 0.66120 0.45345 -0.46000
C 	C 	0.18430 0.50460 0.70920 0.02000
H 	H 	0.25920 0.53970 0.70100 0.04200
C 	C 	0.95810 0.39570 0.73332 0.03900
C 	C 	0.15580 0.49440 0.75320 -0.09700
H 	H 	0.21180 0.52520 0.77470 0.09000
Co	Co	0.54446 0.64226 0.53705 1.17800
P 	P 	0.31901 0.47785 0.49862 0.53700
O 	O 	0.37800 0.56750 0.53532 -0.57700
O 	O 	0.46740 0.70080 0.61755 -0.42900
O 	O 	0.57540 0.62970 0.59999 -0.43500
C 	C 	0.53830 0.63820 0.67607 -0.07200
O 	O 	0.36820 0.40090 0.49950 -0.43600
C 	C 	0.52510 0.65770 0.62771 0.36300
O 	O 	0.19450 0.40830 0.50936 -0.42200
C 	C 	0.59010 0.58050 0.68824 -0.04200
H 	H 	0.61670 0.55230 0.66630 0.07900
O 	O 	0.33880 0.53530 0.45345 -0.45900
C 	C 	0.49540 0.67970 0.70920 0.02000
H 	H 	0.46030 0.71950 0.70100 0.04200
C 	C 	0.60430 0.56240 0.73332 0.03900
C 	C 	0.50560 0.66140 0.75320 -0.09700
H 	H 	0.47480 0.68660 0.77470 0.09000
Co	Co	0.90220 0.35774 0.96295 1.17800
P 	P 	0.84116 0.52215 0.00138 0.53700
O 	O 	0.81050 0.43250 0.96468 -0.57800
O 	O 	0.76660 0.29920 0.88245 -0.42900
O 	O 	0.94570 0.37030 0.90001 -0.43500
C 	C 	0.90010 0.36180 0.82393 -0.07200
O 	O 	0.96730 0.59910 0.00050 -0.43600
C 	C 	0.86740 0.34230 0.87229 0.36300
O 	O 	0.78620 0.59170 0.99064 -0.42200
C 	C 	0.00960 0.41950 0.81176 -0.04200
H 	H 	0.06440 0.44770 0.83370 0.07800
O 	O 	0.80350 0.46470 0.04655 -0.45900
C 	C 	0.81570 0.32030 0.79080 0.02000
H 	H 	0.74080 0.28050 0.79900 0.04200
C 	C 	0.04190 0.43760 0.76668 0.03900
C 	C 	0.84420 0.33860 0.74680 -0.09700
H 	H 	0.78820 0.31340 0.72530 0.09000
Co	Co	0.45554 0.09780 0.96295 1.17800
P 	P 	0.68099 0.15884 0.00138 0.53700
O 	O 	0.62200 0.18950 0.96468 -0.57800
O 	O 	0.53260 0.23340 0.88245 -0.42900
O 	O 	0.42460 0.05430 0.90001 -0.43500
C 	C 	0.46170 0.09990 0.82393 -0.07200
O 	O 	0.63180 0.03270 0.00050 -0.43600
C 	C 	0.47490 0.13260 0.87229 0.36300
O 	O 	0.80550 0.21380 0.99064 -0.42200
C 	C 	0.40990 0.99040 0.81176 -0.04200
H 	H 	0.38330 0.93560 0.83370 0.07900
O 	O 	0.66120 0.19650 0.04655 -0.45900
C 	C 	0.50460 0.18430 0.79080 0.02000
H 	H 	0.53970 0.25920 0.79900 0.04200
C 	C 	0.39570 0.95810 0.76668 0.03900
C 	C 	0.49440 0.15580 0.74680 -0.09700
H 	H 	0.52520 0.21180 0.72530 0.09000
Co	Co	0.64226 0.54446 0.96295 1.17800
P 	P 	0.47785 0.31901 0.00138 0.53700
O 	O 	0.56750 0.37800 0.96468 -0.57800
O 	O 	0.70080 0.46740 0.88245 -0.42900
O 	O 	0.62970 0.57540 0.90001 -0.43500
C 	C 	0.63820 0.53830 0.82393 -0.07200
O 	O 	0.40090 0.36820 0.00050 -0.43600
C 	C 	0.65770 0.52510 0.87229 0.36300
O 	O 	0.40830 0.19450 0.99064 -0.42200
C 	C 	0.58050 0.59010 0.81176 -0.04200
H 	H 	0.55230 0.61670 0.83370 0.07900
O 	O 	0.53530 0.33880 0.04655 -0.45900
C 	C 	0.67970 0.49540 0.79080 0.02000
H 	H 	0.71950 0.46030 0.79900 0.04200
C 	C 	0.56240 0.60430 0.76668 0.03900
C 	C 	0.66140 0.50560 0.74680 -0.09700
H 	H 	0.68660 0.47480 0.72530 0.09000
Co	Co	0.66667 0.33333 0.42564 1.17100
Co	Co	0.66667 0.33333 0.56486 1.18300
Cl	Cl	0.66667 0.33333 0.64154 -0.48900
Co	Co	0.33333 0.66667 0.07436 1.17100
Co	Co	0.33333 0.66667 0.93514 1.18300
Cl	Cl	0.33333 0.66667 0.85846 -0.48900
Co	Co	0.33333 0.66667 0.57436 1.17100
Co	Co	0.33333 0.66667 0.43514 1.18300
Cl	Cl	0.33333 0.66667 0.35846 -0.48900
Co	Co	0.66667 0.33333 0.92564 1.17100
Co	Co	0.66667 0.33333 0.06486 1.18300
Cl	Cl	0.66667 0.33333 0.14154 -0.48900
