data_crystal

_cell_length_a 12.23600
_cell_length_b 14.02900
_cell_length_c 8.49400
_cell_angle_alpha 90.00000
_cell_angle_beta  90.00000
_cell_angle_gamma 90.00000

_symmetry_space_group_name_	'P 1'
_symmetry_space_group_name_H-M	'P 1'

loop_
_symmetry_equiv_pos_as_xyz
  x,y,z

loop_
_atom_site_label
_atom_site_type_symbol
_atom_site_fract_x
_atom_site_fract_y
_atom_site_fract_z
_atom_site_charge
P 	P 	0.13440 0.88210 0.67270 0.31400
O 	O 	0.09980 0.78950 0.75150 -0.17900
O 	O 	0.24350 0.91210 0.74720 -0.15400
P 	P 	0.63440 0.38210 0.67270 0.31300
O 	O 	0.59980 0.28950 0.75150 -0.17700
O 	O 	0.74350 0.41210 0.74720 -0.15600
P 	P 	0.86560 0.11790 0.67270 0.31300
O 	O 	0.90020 0.21050 0.75150 -0.17800
O 	O 	0.75650 0.08790 0.74720 -0.15800
P 	P 	0.36560 0.61790 0.67270 0.31200
O 	O 	0.40020 0.71050 0.75150 -0.17800
O 	O 	0.25650 0.58790 0.74720 -0.15600
P 	P 	0.86560 0.88210 0.32730 0.30400
O 	O 	0.90020 0.78950 0.24850 -0.25100
O 	O 	0.75650 0.91210 0.25280 -0.22800
P 	P 	0.36560 0.38210 0.32730 0.30200
O 	O 	0.40020 0.28950 0.24850 -0.25200
O 	O 	0.25650 0.41210 0.25280 -0.22900
P 	P 	0.13440 0.11790 0.32730 0.30200
O 	O 	0.09980 0.21050 0.24850 -0.25200
O 	O 	0.24350 0.08790 0.25280 -0.22900
P 	P 	0.63440 0.61790 0.32730 0.30200
O 	O 	0.59980 0.71050 0.24850 -0.25100
O 	O 	0.74350 0.58790 0.25280 -0.22900
P 	P 	0.86560 0.11790 0.32730 0.30300
O 	O 	0.90020 0.21050 0.24850 -0.25100
O 	O 	0.75650 0.08790 0.25280 -0.22900
P 	P 	0.36560 0.61790 0.32730 0.30200
O 	O 	0.40020 0.71050 0.24850 -0.25100
O 	O 	0.25650 0.58790 0.25280 -0.22900
P 	P 	0.13440 0.88210 0.32730 0.30300
O 	O 	0.09980 0.78950 0.24850 -0.25200
O 	O 	0.24350 0.91210 0.25280 -0.22800
P 	P 	0.63440 0.38210 0.32730 0.30200
O 	O 	0.59980 0.28950 0.24850 -0.25200
O 	O 	0.74350 0.41210 0.25280 -0.22900
P 	P 	0.13440 0.11790 0.67270 0.31100
O 	O 	0.09980 0.21050 0.75150 -0.18000
O 	O 	0.24350 0.08790 0.74720 -0.15800
P 	P 	0.63440 0.61790 0.67270 0.31200
O 	O 	0.59980 0.71050 0.75150 -0.17800
O 	O 	0.74350 0.58790 0.74720 -0.15500
P 	P 	0.86560 0.88210 0.67270 0.31500
O 	O 	0.90020 0.78950 0.75150 -0.17700
O 	O 	0.75650 0.91210 0.74720 -0.15500
P 	P 	0.36560 0.38210 0.67270 0.31200
O 	O 	0.40020 0.28950 0.75150 -0.17900
O 	O 	0.25650 0.41210 0.74720 -0.15700
I 	I 	-0.00000 0.00000 -0.00000 -0.43500
I 	I 	0.50000 0.50000 -0.00000 -0.43700
Pt	Pt	0.00000 0.00000 0.66510 0.25800
Pt	Pt	0.50000 0.50000 0.66510 0.26700
Pt	Pt	0.00000 0.00000 0.33490 0.20900
Pt	Pt	0.50000 0.50000 0.33490 0.21300
K 	K 	0.22870 0.74350 -0.00000 0.41400
K 	K 	0.72870 0.24350 -0.00000 0.41400
K 	K 	0.77130 0.25650 -0.00000 0.41400
K 	K 	0.27130 0.75650 -0.00000 0.41400
K 	K 	0.77130 0.74350 -0.00000 0.41400
K 	K 	0.27130 0.24350 -0.00000 0.41400
K 	K 	0.22870 0.25650 -0.00000 0.41400
K 	K 	0.72870 0.75650 -0.00000 0.41400
O 	O 	0.16780 0.84910 0.50000 -0.22400
O 	O 	0.66780 0.34910 0.50000 -0.22400
O 	O 	0.83220 0.15090 0.50000 -0.22400
O 	O 	0.33220 0.65090 0.50000 -0.22400
O 	O 	0.83220 0.84910 0.50000 -0.22400
O 	O 	0.33220 0.34910 0.50000 -0.22400
O 	O 	0.16780 0.15090 0.50000 -0.22400
O 	O 	0.66780 0.65090 0.50000 -0.22400
