data_crystal

_cell_length_a 9.24670
_cell_length_b 10.71500
_cell_length_c 10.84000
_cell_angle_alpha 86.19000
_cell_angle_beta  84.05000
_cell_angle_gamma 81.42000

_symmetry_space_group_name_	'P 1'
_symmetry_space_group_name_H-M	'P 1'

loop_
_symmetry_equiv_pos_as_xyz
  x,y,z

loop_
_atom_site_label
_atom_site_type_symbol
_atom_site_fract_x
_atom_site_fract_y
_atom_site_fract_z
_atom_site_charge
La	La	0.53060 0.73954 0.71967 1.54900
La	La	0.47811 0.82300 0.31405 1.65600
C 	C 	0.28920 0.98960 0.86700 0.40200
C 	C 	0.14300 0.99490 0.94220 -0.09000
C 	C 	0.02440 0.05510 0.88250 0.00400
H 	H 	0.04050 0.09340 0.80370 0.05200
C 	C 	0.88110 0.05930 0.93870 -0.04500
C 	C 	0.75600 0.11560 0.86290 0.29300
C 	C 	0.78210 0.87910 0.65040 0.31500
C 	C 	0.89720 0.94000 0.57300 -0.06000
C 	C 	0.04320 0.91710 0.59880 0.01700
H 	H 	0.07160 0.86090 0.66400 0.02800
C 	C 	0.14600 0.97870 0.52660 -0.09200
C 	C 	0.30320 0.96690 0.55930 0.37200
C 	C 	0.28060 0.54760 0.36970 0.34900
C 	C 	0.13570 0.51880 0.43870 -0.06300
C 	C 	0.00750 0.59320 0.40490 0.00700
H 	H 	0.01260 0.65600 0.34180 0.05000
C 	C 	0.87130 0.57340 0.46550 -0.07200
C 	C 	0.73720 0.65100 0.42190 0.33800
O 	O 	0.38350 0.85930 0.54530 -0.48800
O 	O 	0.62390 0.67690 0.49860 -0.45600
O 	O 	0.62890 0.09200 0.89970 -0.36700
O 	O 	0.78150 0.17630 0.76370 -0.36700
O 	O 	0.34260 0.06030 0.59800 -0.41100
O 	O 	0.34700 0.08850 0.84850 -0.40500
O 	O 	0.73550 0.68790 0.31050 -0.38400
O 	O 	0.80850 0.76740 0.69220 -0.37100
O 	O 	0.65360 0.94360 0.66840 -0.46700
O 	O 	0.34160 0.63110 0.40860 -0.39900
O 	O 	0.32860 0.48600 0.27330 -0.43000
O 	O 	0.33570 0.88570 0.81750 -0.46500
La	La	0.46940 0.26046 0.28033 1.54900
La	La	0.52189 0.17700 0.68595 1.65600
C 	C 	0.71080 0.01040 0.13300 0.40200
C 	C 	0.85700 0.00510 0.05780 -0.09000
C 	C 	0.97560 0.94490 0.11750 0.00400
H 	H 	0.95950 0.90660 0.19630 0.05200
C 	C 	0.11890 0.94070 0.06130 -0.04500
C 	C 	0.24400 0.88440 0.13710 0.29300
C 	C 	0.21790 0.12090 0.34960 0.31500
C 	C 	0.10280 0.06000 0.42700 -0.06000
C 	C 	0.95680 0.08290 0.40120 0.01700
H 	H 	0.92840 0.13910 0.33600 0.02800
C 	C 	0.85400 0.02130 0.47340 -0.09200
C 	C 	0.69680 0.03310 0.44070 0.37200
C 	C 	0.71940 0.45240 0.63030 0.34900
C 	C 	0.86430 0.48120 0.56130 -0.06300
C 	C 	0.99250 0.40680 0.59510 0.00700
H 	H 	0.98740 0.34400 0.65820 0.05000
C 	C 	0.12870 0.42660 0.53450 -0.07200
C 	C 	0.26280 0.34900 0.57810 0.33800
O 	O 	0.61650 0.14070 0.45470 -0.48800
O 	O 	0.37610 0.32310 0.50140 -0.45600
O 	O 	0.37110 0.90800 0.10030 -0.36700
O 	O 	0.21850 0.82370 0.23630 -0.36700
O 	O 	0.65740 0.93970 0.40200 -0.41100
O 	O 	0.65300 0.91150 0.15150 -0.40500
O 	O 	0.26450 0.31210 0.68950 -0.38400
O 	O 	0.19150 0.23260 0.30780 -0.37100
O 	O 	0.34640 0.05640 0.33160 -0.46700
O 	O 	0.65840 0.36890 0.59140 -0.39900
O 	O 	0.67140 0.51400 0.72670 -0.43000
O 	O 	0.66430 0.11430 0.18250 -0.46500
