data_crystal

_cell_length_a 9.22520
_cell_length_b 10.62700
_cell_length_c 10.80700
_cell_angle_alpha 86.51000
_cell_angle_beta  83.93000
_cell_angle_gamma 81.22000

_symmetry_space_group_name_	'P 1'
_symmetry_space_group_name_H-M	'P 1'

loop_
_symmetry_equiv_pos_as_xyz
  x,y,z

loop_
_atom_site_label
_atom_site_type_symbol
_atom_site_fract_x
_atom_site_fract_y
_atom_site_fract_z
_atom_site_charge
Ce	Ce	0.03105 0.23995 0.71858 2.08400
Ce	Ce	0.97759 0.32305 0.31373 2.13500
C 	C 	0.19580 0.53220 0.44080 0.39700
C 	C 	0.35490 0.52150 0.47170 -0.10400
C 	C 	0.45570 0.58450 0.40260 0.03600
H 	H 	0.42660 0.64280 0.33900 0.01700
C 	C 	0.60350 0.56110 0.42760 -0.07200
C 	C 	0.71850 0.62170 0.34880 0.33400
C 	C 	0.23430 0.14920 0.42080 0.35700
C 	C 	0.37250 0.07120 0.46270 -0.07600
C 	C 	0.50590 0.09140 0.40270 0.01900
H 	H 	0.50990 0.15330 0.33830 0.04500
C 	C 	0.63700 0.01900 0.43800 -0.08500
C 	C 	0.78170 0.04680 0.36880 0.38300
C 	C 	0.79100 0.49230 0.86480 0.46800
C 	C 	0.64240 0.49760 0.94290 -0.09300
C 	C 	0.37920 0.55850 0.93870 -0.05000
C 	C 	0.52190 0.55620 0.88290 -0.00100
H 	H 	0.53730 0.59460 0.80390 0.05300
C 	C 	0.25370 0.61320 0.86420 0.28700
O 	O 	0.12140 0.17620 0.50010 -0.57200
O 	O 	0.23200 0.18300 0.30940 -0.45800
O 	O 	0.27870 0.67440 0.76320 -0.42500
O 	O 	0.12700 0.58830 0.90000 -0.43400
O 	O 	0.84090 0.13370 0.40720 -0.47900
O 	O 	0.84530 0.59230 0.84830 -0.50100
O 	O 	0.11410 0.63970 0.45550 -0.61700
O 	O 	0.69360 0.73460 0.30650 -0.44400
O 	O 	0.84810 0.55760 0.33070 -0.59500
O 	O 	0.83150 0.98420 0.27340 -0.54200
O 	O 	0.15930 0.43630 0.40130 -0.48600
O 	O 	0.83740 0.38790 0.81750 -0.58100
Ce	Ce	0.96895 0.76005 0.28142 2.08400
Ce	Ce	0.02241 0.67695 0.68627 2.13500
C 	C 	0.80420 0.46780 0.55920 0.39700
C 	C 	0.64510 0.47850 0.52830 -0.10400
C 	C 	0.54430 0.41550 0.59740 0.03600
H 	H 	0.57340 0.35720 0.66100 0.01700
C 	C 	0.39650 0.43890 0.57240 -0.07200
C 	C 	0.28150 0.37830 0.65120 0.33400
C 	C 	0.76570 0.85080 0.57920 0.35700
C 	C 	0.62750 0.92880 0.53730 -0.07600
C 	C 	0.49410 0.90860 0.59730 0.01900
H 	H 	0.49010 0.84670 0.66170 0.04500
C 	C 	0.36300 0.98100 0.56200 -0.08500
C 	C 	0.21830 0.95320 0.63120 0.38300
C 	C 	0.20900 0.50770 0.13520 0.46800
C 	C 	0.35760 0.50240 0.05710 -0.09300
C 	C 	0.62080 0.44150 0.06130 -0.05000
C 	C 	0.47810 0.44380 0.11710 -0.00100
H 	H 	0.46270 0.40540 0.19610 0.05300
C 	C 	0.74630 0.38680 0.13580 0.28700
O 	O 	0.87860 0.82380 0.49990 -0.57200
O 	O 	0.76800 0.81700 0.69060 -0.45800
O 	O 	0.72130 0.32560 0.23680 -0.42500
O 	O 	0.87300 0.41170 0.10000 -0.43400
O 	O 	0.15910 0.86630 0.59280 -0.47900
O 	O 	0.15470 0.40770 0.15170 -0.50100
O 	O 	0.88590 0.36030 0.54450 -0.61700
O 	O 	0.30640 0.26540 0.69350 -0.44400
O 	O 	0.15190 0.44240 0.66930 -0.59500
O 	O 	0.16850 0.01580 0.72660 -0.54200
O 	O 	0.84070 0.56370 0.59870 -0.48600
O 	O 	0.16260 0.61210 0.18250 -0.58100
