data_crystal

_cell_length_a 18.14270
_cell_length_b 18.14270
_cell_length_c 35.41000
_cell_angle_alpha 90.00000
_cell_angle_beta  90.00000
_cell_angle_gamma 90.00000

_symmetry_space_group_name_	'P 1'
_symmetry_space_group_name_H-M	'P 1'

loop_
_symmetry_equiv_pos_as_xyz
  x,y,z

loop_
_atom_site_label
_atom_site_type_symbol
_atom_site_fract_x
_atom_site_fract_y
_atom_site_fract_z
_atom_site_charge
Cu	Cu	0.50705 0.42679 0.71189 0.90400
Cu	Cu	0.49295 0.57321 0.71189 0.90400
Cu	Cu	0.07321 0.99295 0.21189 0.90300
Cu	Cu	0.92679 0.00705 0.21189 0.90400
H 	H 	0.82560 0.60770 0.53920 0.03400
H 	H 	0.91840 0.61260 0.49380 0.06300
H 	H 	0.93430 0.39080 0.49590 0.06500
H 	H 	0.84150 0.38580 0.54130 0.03500
H 	H 	0.09730 0.64510 0.36990 0.03500
H 	H 	0.09940 0.55020 0.41420 0.06600
H 	H 	0.89080 0.59960 0.44460 0.06400
H 	H 	0.88870 0.69450 0.40030 0.03300
H 	H 	0.65180 0.61210 0.61660 0.03800
H 	H 	0.74200 0.60840 0.56980 0.06600
H 	H 	0.76850 0.39040 0.58770 0.06700
H 	H 	0.67830 0.39400 0.63450 0.03500
H 	H 	0.88300 0.84010 0.30020 0.03000
H 	H 	0.88160 0.75320 0.34860 0.06900
H 	H 	0.10360 0.74190 0.34490 0.06900
H 	H 	0.10500 0.82880 0.29650 0.03400
H 	H 	0.17440 0.39230 0.53920 0.03300
H 	H 	0.08160 0.38740 0.49380 0.06300
H 	H 	0.06570 0.60920 0.49590 0.06600
H 	H 	0.15850 0.61420 0.54130 0.03400
H 	H 	0.90270 0.35490 0.36990 0.03400
H 	H 	0.90060 0.44980 0.41420 0.06700
H 	H 	0.10920 0.40040 0.44460 0.06500
H 	H 	0.11130 0.30550 0.40030 0.03300
H 	H 	0.34820 0.38790 0.61660 0.03800
H 	H 	0.25800 0.39160 0.56980 0.06600
H 	H 	0.23150 0.60960 0.58770 0.06700
H 	H 	0.32170 0.60600 0.63450 0.03500
H 	H 	0.11700 0.15990 0.30020 0.03000
H 	H 	0.11840 0.24680 0.34860 0.06900
H 	H 	0.89640 0.25810 0.34490 0.06900
H 	H 	0.89500 0.17120 0.29650 0.03500
H 	H 	0.89230 0.67440 0.03920 0.03400
H 	H 	0.88740 0.58160 0.99380 0.06100
H 	H 	0.10920 0.56570 0.99590 0.06300
H 	H 	0.11420 0.65850 0.04130 0.03500
H 	H 	0.85490 0.40270 0.86990 0.03400
H 	H 	0.94980 0.40060 0.91420 0.06600
H 	H 	0.90040 0.60920 0.94460 0.06400
H 	H 	0.80550 0.61130 0.90030 0.03300
H 	H 	0.88790 0.84820 0.11660 0.03700
H 	H 	0.89160 0.75800 0.06980 0.06700
H 	H 	0.10960 0.73150 0.08770 0.06800
H 	H 	0.10600 0.82170 0.13450 0.03300
H 	H 	0.65990 0.61700 0.80020 0.03000
H 	H 	0.74680 0.61840 0.84860 0.06900
H 	H 	0.75810 0.39640 0.84490 0.06900
H 	H 	0.67120 0.39500 0.79650 0.03500
H 	H 	0.10770 0.32560 0.03920 0.03100
H 	H 	0.11260 0.41840 0.99380 0.06400
H 	H 	0.89080 0.43430 0.99590 0.06700
H 	H 	0.88580 0.34150 0.04130 0.03300
H 	H 	0.14510 0.59730 0.86990 0.03400
H 	H 	0.05020 0.59940 0.91420 0.06700
H 	H 	0.09960 0.39080 0.94460 0.06500
H 	H 	0.19450 0.38870 0.90030 0.03300
H 	H 	0.11210 0.15180 0.11660 0.04000
H 	H 	0.10840 0.24200 0.06980 0.06500
H 	H 	0.89040 0.26850 0.08770 0.06600
H 	H 	0.89400 0.17830 0.13450 0.03600
H 	H 	0.34010 0.38300 0.80020 0.03000
H 	H 	0.25320 0.38160 0.84860 0.06900
H 	H 	0.24190 0.60360 0.84490 0.06900
H 	H 	0.32880 0.60500 0.79650 0.03500
C 	C 	0.82460 0.49630 0.54460 -0.02100
C 	C 	0.84750 0.56390 0.53040 -0.01600
C 	C 	0.90290 0.56690 0.50340 -0.09800
C 	C 	0.93530 0.50220 0.49040 0.06300
C 	C 	0.91230 0.43450 0.50460 -0.09300
C 	C 	0.85700 0.43160 0.53170 -0.01700
C 	C 	0.59780 0.50930 0.66020 0.30200
C 	C 	0.99280 0.67900 0.38080 -0.02600
C 	C 	0.05560 0.63600 0.38490 -0.01500
C 	C 	0.05690 0.57930 0.41140 -0.09200
C 	C 	0.99530 0.56570 0.43360 0.06200
C 	C 	0.93250 0.60880 0.42950 -0.09900
C 	C 	0.93120 0.66540 0.40310 -0.01600
C 	C 	0.65640 0.50340 0.63010 -0.08300
C 	C 	0.67540 0.56740 0.61080 0.02300
C 	C 	0.72920 0.56520 0.58280 -0.10600
C 	C 	0.76400 0.49900 0.57420 0.06100
C 	C 	0.74500 0.43510 0.59350 -0.10800
C 	C 	0.69120 0.43730 0.62140 0.02800
C 	C 	0.99410 0.84290 0.29370 -0.10000
C 	C 	0.92750 0.82030 0.30920 0.03600
C 	C 	0.92670 0.76840 0.33810 -0.11500
C 	C 	0.99250 0.73910 0.35140 0.06500
C 	C 	0.05910 0.76170 0.33590 -0.11200
C 	C 	0.05990 0.81360 0.30700 0.03600
C 	C 	0.99820 0.89740 0.26250 0.30300
C 	C 	0.17540 0.50370 0.54460 -0.02100
C 	C 	0.15250 0.43610 0.53040 -0.01500
C 	C 	0.09710 0.43310 0.50340 -0.09900
C 	C 	0.06470 0.49780 0.49040 0.06600
C 	C 	0.08770 0.56550 0.50460 -0.09400
C 	C 	0.14300 0.56840 0.53170 -0.01600
C 	C 	0.40220 0.49070 0.66020 0.30300
C 	C 	0.00720 0.32100 0.38080 -0.02300
C 	C 	0.94440 0.36400 0.38490 -0.01700
C 	C 	0.94310 0.42070 0.41140 -0.09800
C 	C 	0.00470 0.43430 0.43360 0.06800
C 	C 	0.06750 0.39120 0.42950 -0.10100
C 	C 	0.06880 0.33460 0.40310 -0.01500
C 	C 	0.34360 0.49660 0.63010 -0.08300
C 	C 	0.32460 0.43260 0.61080 0.02300
C 	C 	0.27080 0.43480 0.58280 -0.10600
C 	C 	0.23600 0.50100 0.57420 0.06200
C 	C 	0.25500 0.56490 0.59350 -0.10800
C 	C 	0.30880 0.56270 0.62140 0.02800
C 	C 	0.00590 0.15710 0.29370 -0.09600
C 	C 	0.07250 0.17970 0.30920 0.03500
C 	C 	0.07330 0.23160 0.33810 -0.11500
C 	C 	0.00750 0.26090 0.35140 0.06800
C 	C 	0.94090 0.23830 0.33590 -0.11500
C 	C 	0.94010 0.18640 0.30700 0.03200
C 	C 	0.00180 0.10260 0.26250 0.30600
C 	C 	0.00370 0.67540 0.04460 -0.01800
C 	C 	0.93610 0.65250 0.03040 -0.02000
C 	C 	0.93310 0.59710 0.00340 -0.09400
C 	C 	0.99780 0.56470 0.99040 0.05900
C 	C 	0.06550 0.58770 0.00460 -0.08800
C 	C 	0.06840 0.64300 0.03170 -0.02000
C 	C 	0.99070 0.90220 0.16020 0.30200
C 	C 	0.82100 0.50720 0.88080 -0.02400
C 	C 	0.86400 0.44440 0.88490 -0.01600
C 	C 	0.92070 0.44310 0.91140 -0.09500
C 	C 	0.93430 0.50470 0.93360 0.06300
C 	C 	0.89120 0.56750 0.92950 -0.10000
C 	C 	0.83460 0.56880 0.90310 -0.01600
C 	C 	0.99660 0.84360 0.13010 -0.08700
C 	C 	0.93260 0.82460 0.11080 0.02600
C 	C 	0.93480 0.77080 0.08280 -0.11000
C 	C 	0.00100 0.73600 0.07420 0.06400
C 	C 	0.06490 0.75500 0.09350 -0.11100
C 	C 	0.06270 0.80880 0.12140 0.03200
C 	C 	0.65710 0.50590 0.79370 -0.09800
C 	C 	0.67970 0.57250 0.80920 0.03500
C 	C 	0.73160 0.57330 0.83810 -0.11500
C 	C 	0.76090 0.50750 0.85140 0.06600
C 	C 	0.73830 0.44090 0.83590 -0.11300
C 	C 	0.68640 0.44010 0.80700 0.03400
C 	C 	0.60260 0.50180 0.76250 0.30500
C 	C 	0.99630 0.32460 0.04460 -0.02400
C 	C 	0.06390 0.34750 0.03040 -0.01000
C 	C 	0.06690 0.40290 0.00340 -0.10200
C 	C 	0.00220 0.43530 0.99040 0.06900
C 	C 	0.93450 0.41230 0.00460 -0.09800
C 	C 	0.93160 0.35700 0.03170 -0.01400
C 	C 	0.00930 0.09780 0.16020 0.30300
C 	C 	0.17900 0.49280 0.88080 -0.02500
C 	C 	0.13600 0.55560 0.88490 -0.01500
C 	C 	0.07930 0.55690 0.91140 -0.09500
C 	C 	0.06570 0.49530 0.93360 0.06600
C 	C 	0.10880 0.43250 0.92950 -0.10100
C 	C 	0.16540 0.43120 0.90310 -0.01400
C 	C 	0.00340 0.15640 0.13010 -0.07900
C 	C 	0.06740 0.17540 0.11080 0.02000
C 	C 	0.06520 0.22920 0.08280 -0.10100
C 	C 	0.99900 0.26400 0.07420 0.05800
C 	C 	0.93510 0.24500 0.09350 -0.10500
C 	C 	0.93730 0.19120 0.12140 0.02300
C 	C 	0.34290 0.49410 0.79370 -0.09800
C 	C 	0.32030 0.42750 0.80920 0.03600
C 	C 	0.26840 0.42670 0.83810 -0.11500
C 	C 	0.23910 0.49250 0.85140 0.06700
C 	C 	0.26170 0.55910 0.83590 -0.11400
C 	C 	0.31360 0.55990 0.80700 0.03400
C 	C 	0.39740 0.49820 0.76250 0.30500
C 	C 	-0.00000 0.50000 0.46170 -0.08400
C 	C 	-0.00000 0.50000 0.96170 -0.08400
O 	O 	0.57780 0.44740 0.67540 -0.40600
O 	O 	0.06240 0.91450 0.24840 -0.37800
O 	O 	0.56970 0.57480 0.66660 -0.35400
O 	O 	0.93840 0.93530 0.25160 -0.39100
O 	O 	0.42220 0.55260 0.67540 -0.40600
O 	O 	0.93760 0.08550 0.24840 -0.38000
O 	O 	0.43030 0.42520 0.66660 -0.35400
O 	O 	0.06160 0.06470 0.25160 -0.39000
O 	O 	0.05260 0.92220 0.17540 -0.40500
O 	O 	0.58550 0.43760 0.74840 -0.37900
O 	O 	0.92520 0.93030 0.16660 -0.35500
O 	O 	0.56470 0.56160 0.75160 -0.39100
O 	O 	0.94740 0.07780 0.17540 -0.40600
O 	O 	0.41450 0.56240 0.74840 -0.37900
O 	O 	0.07480 0.06970 0.16660 -0.35300
O 	O 	0.43530 0.43840 0.75160 -0.39000
Cu	Cu	0.42679 0.49295 0.28811 0.90300
Cu	Cu	0.57321 0.50705 0.28811 0.90300
Cu	Cu	0.99295 0.92679 0.78811 0.90200
Cu	Cu	0.00705 0.07321 0.78811 0.90400
H 	H 	0.60770 0.17440 0.46080 0.03300
H 	H 	0.61260 0.08160 0.50620 0.06300
H 	H 	0.39080 0.06570 0.50410 0.06600
H 	H 	0.38580 0.15850 0.45870 0.03400
H 	H 	0.64510 0.90270 0.63010 0.03400
H 	H 	0.55020 0.90060 0.58580 0.06700
H 	H 	0.59960 0.10920 0.55540 0.06500
H 	H 	0.69450 0.11130 0.59970 0.03300
H 	H 	0.61210 0.34820 0.38340 0.03800
H 	H 	0.60840 0.25800 0.43020 0.06600
H 	H 	0.39040 0.23150 0.41230 0.06700
H 	H 	0.39400 0.32170 0.36550 0.03500
H 	H 	0.84010 0.11700 0.69980 0.03000
H 	H 	0.75320 0.11840 0.65140 0.06900
H 	H 	0.74190 0.89640 0.65510 0.06900
H 	H 	0.82880 0.89500 0.70350 0.03500
H 	H 	0.39230 0.82560 0.46080 0.03300
H 	H 	0.38740 0.91840 0.50620 0.06200
H 	H 	0.60920 0.93430 0.50410 0.06400
H 	H 	0.61420 0.84150 0.45870 0.03400
H 	H 	0.35490 0.09730 0.63010 0.03400
H 	H 	0.44980 0.09940 0.58580 0.06600
H 	H 	0.40040 0.89080 0.55540 0.06400
H 	H 	0.30550 0.88870 0.59970 0.03300
H 	H 	0.38790 0.65180 0.38340 0.03800
H 	H 	0.39160 0.74200 0.43020 0.06600
H 	H 	0.60960 0.76850 0.41230 0.06700
H 	H 	0.60600 0.67830 0.36550 0.03500
H 	H 	0.15990 0.88300 0.69980 0.03000
H 	H 	0.24680 0.88160 0.65140 0.06900
H 	H 	0.25810 0.10360 0.65510 0.06900
H 	H 	0.17120 0.10500 0.70350 0.03500
H 	H 	0.67440 0.10770 0.96080 0.03100
H 	H 	0.58160 0.11260 0.00620 0.06400
H 	H 	0.56570 0.89080 0.00410 0.06700
H 	H 	0.65850 0.88580 0.95870 0.03300
H 	H 	0.40270 0.14510 0.13010 0.03400
H 	H 	0.40060 0.05020 0.08580 0.06700
H 	H 	0.60920 0.09960 0.05540 0.06500
H 	H 	0.61130 0.19450 0.09970 0.03300
H 	H 	0.84820 0.11210 0.88340 0.03900
H 	H 	0.75800 0.10840 0.93020 0.06500
H 	H 	0.73150 0.89040 0.91230 0.06600
H 	H 	0.82170 0.89400 0.86550 0.03600
H 	H 	0.61700 0.34010 0.19980 0.03000
H 	H 	0.61840 0.25320 0.15140 0.06900
H 	H 	0.39640 0.24190 0.15510 0.06900
H 	H 	0.39500 0.32880 0.20350 0.03500
H 	H 	0.32560 0.89230 0.96080 0.03400
H 	H 	0.41840 0.88740 0.00620 0.06100
H 	H 	0.43430 0.10920 0.00410 0.06300
H 	H 	0.34150 0.11420 0.95870 0.03500
H 	H 	0.59730 0.85490 0.13010 0.03400
H 	H 	0.59940 0.94980 0.08580 0.06600
H 	H 	0.39080 0.90040 0.05540 0.06400
H 	H 	0.38870 0.80550 0.09970 0.03300
H 	H 	0.15180 0.88790 0.88340 0.03800
H 	H 	0.24200 0.89160 0.93020 0.06700
H 	H 	0.26850 0.10960 0.91230 0.06800
H 	H 	0.17830 0.10600 0.86550 0.03400
H 	H 	0.38300 0.65990 0.19980 0.03000
H 	H 	0.38160 0.74680 0.15140 0.06900
H 	H 	0.60360 0.75810 0.15510 0.06900
H 	H 	0.60500 0.67120 0.20350 0.03500
C 	C 	0.49630 0.17540 0.45540 -0.02100
C 	C 	0.56390 0.15250 0.46960 -0.01500
C 	C 	0.56690 0.09710 0.49660 -0.09900
C 	C 	0.50220 0.06470 0.50960 0.06600
C 	C 	0.43450 0.08770 0.49540 -0.09400
C 	C 	0.43160 0.14300 0.46830 -0.01600
C 	C 	0.50930 0.40220 0.33980 0.30300
C 	C 	0.67900 0.00720 0.61920 -0.02300
C 	C 	0.63600 0.94440 0.61510 -0.01700
C 	C 	0.57930 0.94310 0.58860 -0.09800
C 	C 	0.56570 0.00470 0.56640 0.06800
C 	C 	0.60880 0.06750 0.57050 -0.10200
C 	C 	0.66540 0.06880 0.59690 -0.01400
C 	C 	0.50340 0.34360 0.36990 -0.08300
C 	C 	0.56740 0.32460 0.38920 0.02300
C 	C 	0.56520 0.27080 0.41720 -0.10600
C 	C 	0.49900 0.23600 0.42580 0.06200
C 	C 	0.43510 0.25500 0.40650 -0.10800
C 	C 	0.43730 0.30880 0.37860 0.02800
C 	C 	0.84290 0.00590 0.70630 -0.09600
C 	C 	0.82030 0.07250 0.69080 0.03600
C 	C 	0.76840 0.07330 0.66190 -0.11500
C 	C 	0.73910 0.00750 0.64860 0.06800
C 	C 	0.76170 0.94090 0.66410 -0.11600
C 	C 	0.81360 0.94010 0.69300 0.03200
C 	C 	0.89740 0.00180 0.73750 0.30600
C 	C 	0.50370 0.82460 0.45540 -0.02100
C 	C 	0.43610 0.84750 0.46960 -0.01600
C 	C 	0.43310 0.90290 0.49660 -0.09800
C 	C 	0.49780 0.93530 0.50960 0.06300
C 	C 	0.56550 0.91230 0.49540 -0.09300
C 	C 	0.56840 0.85700 0.46830 -0.01700
C 	C 	0.49070 0.59780 0.33980 0.30200
C 	C 	0.32100 0.99280 0.61920 -0.02500
C 	C 	0.36400 0.05560 0.61510 -0.01500
C 	C 	0.42070 0.05690 0.58860 -0.09200
C 	C 	0.43430 0.99530 0.56640 0.06200
C 	C 	0.39120 0.93250 0.57050 -0.09900
C 	C 	0.33460 0.93120 0.59690 -0.01600
C 	C 	0.49660 0.65640 0.36990 -0.08300
C 	C 	0.43260 0.67540 0.38920 0.02300
C 	C 	0.43480 0.72920 0.41720 -0.10600
C 	C 	0.50100 0.76400 0.42580 0.06100
C 	C 	0.56490 0.74500 0.40650 -0.10800
C 	C 	0.56270 0.69120 0.37860 0.02800
C 	C 	0.15710 0.99410 0.70630 -0.09900
C 	C 	0.17970 0.92750 0.69080 0.03500
C 	C 	0.23160 0.92670 0.66190 -0.11400
C 	C 	0.26090 0.99250 0.64860 0.06400
C 	C 	0.23830 0.05910 0.66410 -0.11100
C 	C 	0.18640 0.05990 0.69300 0.03500
C 	C 	0.10260 0.99820 0.73750 0.30300
C 	C 	0.67540 0.99630 0.95540 -0.02400
C 	C 	0.65250 0.06390 0.96960 -0.01000
C 	C 	0.59710 0.06690 0.99660 -0.10200
C 	C 	0.56470 0.00220 0.00960 0.07000
C 	C 	0.58770 0.93450 0.99540 -0.09900
C 	C 	0.64300 0.93160 0.96830 -0.01300
C 	C 	0.90220 0.00930 0.83980 0.30300
C 	C 	0.50720 0.17900 0.11920 -0.02500
C 	C 	0.44440 0.13600 0.11510 -0.01500
C 	C 	0.44310 0.07930 0.08860 -0.09500
C 	C 	0.50470 0.06570 0.06640 0.06600
C 	C 	0.56750 0.10880 0.07050 -0.10100
C 	C 	0.56880 0.16540 0.09690 -0.01400
C 	C 	0.84360 0.00340 0.86990 -0.07900
C 	C 	0.82460 0.06740 0.88920 0.02000
C 	C 	0.77080 0.06520 0.91720 -0.10100
C 	C 	0.73600 0.99900 0.92580 0.05800
C 	C 	0.75500 0.93510 0.90650 -0.10600
C 	C 	0.80880 0.93730 0.87860 0.02300
C 	C 	0.50590 0.34290 0.20630 -0.09800
C 	C 	0.57250 0.32030 0.19080 0.03600
C 	C 	0.57330 0.26840 0.16190 -0.11500
C 	C 	0.50750 0.23910 0.14860 0.06700
C 	C 	0.44090 0.26170 0.16410 -0.11400
C 	C 	0.44010 0.31360 0.19300 0.03400
C 	C 	0.50180 0.39740 0.23750 0.30500
C 	C 	0.32460 0.00370 0.95540 -0.01700
C 	C 	0.34750 0.93610 0.96960 -0.02000
C 	C 	0.40290 0.93310 0.99660 -0.09400
C 	C 	0.43530 0.99780 0.00960 0.05900
C 	C 	0.41230 0.06550 0.99540 -0.08800
C 	C 	0.35700 0.06840 0.96830 -0.02000
C 	C 	0.09780 0.99070 0.83980 0.30200
C 	C 	0.49280 0.82100 0.11920 -0.02400
C 	C 	0.55560 0.86400 0.11510 -0.01600
C 	C 	0.55690 0.92070 0.08860 -0.09500
C 	C 	0.49530 0.93430 0.06640 0.06300
C 	C 	0.43250 0.89120 0.07050 -0.10000
C 	C 	0.43120 0.83460 0.09690 -0.01600
C 	C 	0.15640 0.99660 0.86990 -0.08600
C 	C 	0.17540 0.93260 0.88920 0.02600
C 	C 	0.22920 0.93480 0.91720 -0.11000
C 	C 	0.26400 0.00100 0.92580 0.06400
C 	C 	0.24500 0.06490 0.90650 -0.11100
C 	C 	0.19120 0.06270 0.87860 0.03200
C 	C 	0.49410 0.65710 0.20630 -0.09800
C 	C 	0.42750 0.67970 0.19080 0.03500
C 	C 	0.42670 0.73160 0.16190 -0.11500
C 	C 	0.49250 0.76090 0.14860 0.06600
C 	C 	0.55910 0.73830 0.16410 -0.11300
C 	C 	0.55990 0.68640 0.19300 0.03400
C 	C 	0.49820 0.60260 0.23750 0.30500
C 	C 	0.50000 0.00000 0.53830 -0.08400
C 	C 	0.50000 0.00000 0.03830 -0.08400
O 	O 	0.44740 0.42220 0.32460 -0.40600
O 	O 	0.91450 0.93760 0.75160 -0.38100
O 	O 	0.57480 0.43030 0.33340 -0.35400
O 	O 	0.93530 0.06160 0.74840 -0.39100
O 	O 	0.55260 0.57780 0.32460 -0.40600
O 	O 	0.08550 0.06240 0.75160 -0.37700
O 	O 	0.42520 0.56970 0.33340 -0.35400
O 	O 	0.06470 0.93840 0.74840 -0.39000
O 	O 	0.92220 0.94740 0.82460 -0.40700
O 	O 	0.43760 0.41450 0.25160 -0.37900
O 	O 	0.93030 0.07480 0.83340 -0.35500
O 	O 	0.56160 0.43530 0.24840 -0.39100
O 	O 	0.07780 0.05260 0.82460 -0.40400
O 	O 	0.56240 0.58550 0.25160 -0.37900
O 	O 	0.06970 0.92520 0.83340 -0.35400
O 	O 	0.43840 0.56470 0.24840 -0.39000
