data_crystal

_cell_length_a 12.24800
_cell_length_b 12.24800
_cell_length_c 22.87670
_cell_angle_alpha 90.00000
_cell_angle_beta  90.00000
_cell_angle_gamma 90.00000

_symmetry_space_group_name_	'P 1'
_symmetry_space_group_name_H-M	'P 1'

loop_
_symmetry_equiv_pos_as_xyz
  x,y,z

loop_
_atom_site_label
_atom_site_type_symbol
_atom_site_fract_x
_atom_site_fract_y
_atom_site_fract_z
_atom_site_charge
Cu	Cu	0.00000 0.60771 -0.00000 0.84500
Cu	Cu	0.00000 0.39229 -0.00000 0.83700
Cu	Cu	0.39229 0.00000 0.50000 0.86200
Cu	Cu	0.60771 0.00000 0.50000 0.86900
H 	H 	0.61110 0.66200 0.80130 0.10500
H 	H 	0.74650 0.66230 0.87040 0.04400
H 	H 	0.38890 0.33800 0.80130 0.09200
H 	H 	0.25350 0.33770 0.87040 0.00600
H 	H 	0.33800 0.61110 0.30130 0.09100
H 	H 	0.33770 0.74650 0.37040 0.01700
H 	H 	0.66200 0.38890 0.30130 0.10700
H 	H 	0.66230 0.25350 0.37040 0.01200
H 	H 	0.38890 0.66200 0.19870 0.10600
H 	H 	0.25350 0.66230 0.12960 0.00600
H 	H 	0.61110 0.33800 0.19870 0.09000
H 	H 	0.74650 0.33770 0.12960 0.01000
H 	H 	0.66200 0.61110 0.69870 0.10500
H 	H 	0.66230 0.74650 0.62960 0.03600
H 	H 	0.33800 0.38890 0.69870 0.09200
H 	H 	0.33770 0.25350 0.62960 -0.00300
H 	H 	0.38890 0.33800 0.19870 0.09200
H 	H 	0.25350 0.33770 0.12960 -0.01100
H 	H 	0.61110 0.66200 0.19870 0.10500
H 	H 	0.74650 0.66230 0.12960 0.02700
H 	H 	0.66200 0.38890 0.69870 0.10600
H 	H 	0.66230 0.25350 0.62960 0.01400
H 	H 	0.33800 0.61110 0.69870 0.09100
H 	H 	0.33770 0.74650 0.62960 0.01900
H 	H 	0.61110 0.33800 0.80130 0.09100
H 	H 	0.74650 0.33770 0.87040 0.02600
H 	H 	0.38890 0.66200 0.80130 0.10700
H 	H 	0.25350 0.66230 0.87040 0.02300
H 	H 	0.33800 0.38890 0.30130 0.09300
H 	H 	0.33770 0.25350 0.37040 -0.00400
H 	H 	0.66200 0.61110 0.30130 0.10500
H 	H 	0.66230 0.74650 0.37040 0.03400
C 	C 	0.63920 0.59610 0.81475 -0.16800
C 	C 	0.72000 0.59620 0.85640 0.08000
C 	C 	0.36080 0.40390 0.81475 -0.19000
C 	C 	0.28000 0.40380 0.85640 0.09100
C 	C 	0.40390 0.63920 0.31475 -0.18000
C 	C 	0.40380 0.72000 0.35640 0.08400
C 	C 	0.59610 0.36080 0.31475 -0.19900
C 	C 	0.59620 0.28000 0.35640 0.10000
C 	C 	0.36080 0.59610 0.18525 -0.20400
C 	C 	0.28000 0.59620 0.14360 0.10300
C 	C 	0.63920 0.40390 0.18525 -0.18600
C 	C 	0.72000 0.40380 0.14360 0.08800
C 	C 	0.59610 0.63920 0.68525 -0.17400
C 	C 	0.59620 0.72000 0.64360 0.08500
C 	C 	0.40390 0.36080 0.68525 -0.19800
C 	C 	0.40380 0.28000 0.64360 0.09600
C 	C 	0.36080 0.40390 0.18525 -0.20700
C 	C 	0.28000 0.40380 0.14360 0.10100
C 	C 	0.63920 0.59610 0.18525 -0.18400
C 	C 	0.72000 0.59620 0.14360 0.09000
C 	C 	0.59610 0.36080 0.68525 -0.19600
C 	C 	0.59620 0.28000 0.64360 0.09800
C 	C 	0.40390 0.63920 0.68525 -0.17700
C 	C 	0.40380 0.72000 0.64360 0.08300
C 	C 	0.63920 0.40390 0.81475 -0.17000
C 	C 	0.72000 0.40380 0.85640 0.07800
C 	C 	0.36080 0.59610 0.81475 -0.18800
C 	C 	0.28000 0.59620 0.85640 0.09300
C 	C 	0.40390 0.36080 0.31475 -0.20100
C 	C 	0.40380 0.28000 0.35640 0.09800
C 	C 	0.59610 0.63920 0.31475 -0.17800
C 	C 	0.59620 0.72000 0.35640 0.08600
C 	C 	0.59960 0.50000 0.79280 0.13700
C 	C 	0.85510 0.50000 0.92360 0.35400
C 	C 	0.76250 0.50000 0.87770 -0.10600
C 	C 	0.40040 0.50000 0.79280 0.14400
C 	C 	0.14490 0.50000 0.92360 0.36000
C 	C 	0.23750 0.50000 0.87770 -0.13700
C 	C 	0.50000 0.59960 0.29280 0.14200
C 	C 	0.50000 0.85510 0.42360 0.35800
C 	C 	0.50000 0.76250 0.37770 -0.12000
C 	C 	0.50000 0.40040 0.29280 0.15000
C 	C 	0.50000 0.14490 0.42360 0.36600
C 	C 	0.50000 0.23750 0.37770 -0.15200
C 	C 	0.40040 0.50000 0.20720 0.15200
C 	C 	0.14490 0.50000 0.07640 0.36600
C 	C 	0.23750 0.50000 0.12230 -0.16100
C 	C 	0.59960 0.50000 0.20720 0.14400
C 	C 	0.85510 0.50000 0.07640 0.35900
C 	C 	0.76250 0.50000 0.12230 -0.13000
C 	C 	0.50000 0.59960 0.70720 0.13900
C 	C 	0.50000 0.85510 0.57640 0.35800
C 	C 	0.50000 0.76250 0.62230 -0.11700
C 	C 	0.50000 0.40040 0.70720 0.14700
C 	C 	0.50000 0.14490 0.57640 0.36600
C 	C 	0.50000 0.23750 0.62230 -0.15000
C 	C 	0.50000 0.50000 0.75000 -0.16100
C 	C 	0.50000 0.50000 0.25000 -0.16700
O 	O 	0.88690 0.59250 0.94047 -0.33500
O 	O 	0.11310 0.40750 0.94047 -0.40800
O 	O 	0.40750 0.88690 0.44047 -0.37500
O 	O 	0.59250 0.11310 0.44047 -0.42500
O 	O 	0.11310 0.59250 0.05953 -0.43900
O 	O 	0.88690 0.40750 0.05953 -0.39000
O 	O 	0.59250 0.88690 0.55953 -0.36100
O 	O 	0.40750 0.11310 0.55953 -0.43700
O 	O 	0.11310 0.40750 0.05953 -0.45300
O 	O 	0.88690 0.59250 0.05953 -0.37700
O 	O 	0.59250 0.11310 0.55953 -0.42500
O 	O 	0.40750 0.88690 0.55953 -0.37400
O 	O 	0.88690 0.40750 0.94047 -0.34900
O 	O 	0.11310 0.59250 0.94047 -0.39400
O 	O 	0.40750 0.11310 0.44047 -0.43800
O 	O 	0.59250 0.88690 0.44047 -0.36200
