data_crystal

_cell_length_a 12.22900
_cell_length_b 14.44000
_cell_length_c 14.51520
_cell_angle_alpha 104.65700
_cell_angle_beta  90.00000
_cell_angle_gamma 90.00000

_symmetry_space_group_name_	'P 1'
_symmetry_space_group_name_H-M	'P 1'

loop_
_symmetry_equiv_pos_as_xyz
  x,y,z

loop_
_atom_site_label
_atom_site_type_symbol
_atom_site_fract_x
_atom_site_fract_y
_atom_site_fract_z
_atom_site_charge
Nd	Nd	0.05608 0.92649 0.09311 2.17600
Nd	Nd	0.55608 0.57351 0.40689 2.26100
Nd	Nd	0.94392 0.07351 0.90689 2.17600
Nd	Nd	0.44392 0.42649 0.59311 2.26100
H 	H 	0.73260 0.70890 0.95260 0.05200
H 	H 	0.63300 0.61830 0.82700 0.04000
H 	H 	0.77940 0.74730 0.64940 0.04900
H 	H 	0.87310 0.84560 0.77510 0.03500
H 	H 	0.35520 0.07870 0.08630 0.04500
H 	H 	0.51200 0.83460 0.96400 0.04700
H 	H 	0.93890 0.85460 0.40750 0.06400
H 	H 	0.08470 0.10830 0.42850 0.05600
H 	H 	0.23260 0.79110 0.54740 0.04700
H 	H 	0.13300 0.88170 0.67300 0.04300
H 	H 	0.27940 0.75270 0.85060 0.05300
H 	H 	0.37310 0.65440 0.72490 0.02800
H 	H 	0.85520 0.42130 0.41370 0.04700
H 	H 	0.01200 0.66540 0.53600 0.04800
H 	H 	0.43890 0.64540 0.09250 0.06700
H 	H 	0.58470 0.39170 0.07150 0.05900
H 	H 	0.26740 0.29110 0.04740 0.05100
H 	H 	0.36700 0.38170 0.17300 0.03900
H 	H 	0.22060 0.25270 0.35060 0.04800
H 	H 	0.12690 0.15440 0.22490 0.03400
H 	H 	0.64480 0.92130 0.91370 0.04500
H 	H 	0.48800 0.16540 0.03600 0.04700
H 	H 	0.06110 0.14540 0.59250 0.06400
H 	H 	0.91530 0.89170 0.57150 0.05600
H 	H 	0.76740 0.20890 0.45260 0.04700
H 	H 	0.86700 0.11830 0.32700 0.04300
H 	H 	0.72060 0.24730 0.14940 0.05300
H 	H 	0.62690 0.34560 0.27510 0.02800
H 	H 	0.14480 0.57870 0.58630 0.04700
H 	H 	0.98800 0.33460 0.46400 0.04800
H 	H 	0.56110 0.35460 0.90750 0.06700
H 	H 	0.41530 0.60830 0.92850 0.05900
C 	C 	0.81500 0.78520 0.87710 -0.10200
C 	C 	0.74230 0.71750 0.89180 -0.02400
C 	C 	0.68350 0.66240 0.81610 0.00700
C 	C 	0.69840 0.67170 0.72510 -0.12200
C 	C 	0.76950 0.73990 0.71070 -0.00200
C 	C 	0.82700 0.79820 0.78570 -0.00700
C 	C 	0.88110 0.84300 0.95780 0.40900
C 	C 	0.63710 0.60960 0.64230 0.47100
C 	C 	0.33100 0.89350 0.06650 0.36900
C 	C 	0.41780 0.94700 0.03130 -0.10600
C 	C 	0.41380 0.04680 0.05140 0.00300
C 	C 	0.50680 0.90100 0.97860 -0.00700
C 	C 	0.03460 0.95150 0.29680 0.27400
C 	C 	0.01680 0.97610 0.40150 -0.07500
C 	C 	0.96410 0.91280 0.44470 -0.01300
C 	C 	0.05140 0.06460 0.45690 -0.00800
C 	C 	0.31500 0.71480 0.62290 -0.11400
C 	C 	0.24230 0.78250 0.60820 -0.01300
C 	C 	0.18350 0.83760 0.68390 -0.00400
C 	C 	0.19840 0.82830 0.77490 -0.11100
C 	C 	0.26950 0.76010 0.78930 -0.01300
C 	C 	0.32700 0.70180 0.71430 0.00400
C 	C 	0.38110 0.65700 0.54220 0.42400
C 	C 	0.13710 0.89040 0.85770 0.46100
C 	C 	0.83100 0.60650 0.43350 0.36600
C 	C 	0.91780 0.55300 0.46870 -0.08100
C 	C 	0.91380 0.45320 0.44860 -0.01000
C 	C 	0.00680 0.59900 0.52140 -0.02200
C 	C 	0.53460 0.54850 0.20320 0.31000
C 	C 	0.51680 0.52390 0.09850 -0.05400
C 	C 	0.46410 0.58720 0.05530 -0.03300
C 	C 	0.55140 0.43540 0.04310 -0.02000
C 	C 	0.18500 0.21480 0.12290 -0.10200
C 	C 	0.25770 0.28250 0.10820 -0.02400
C 	C 	0.31650 0.33760 0.18390 0.00700
C 	C 	0.30160 0.32830 0.27490 -0.12200
C 	C 	0.23050 0.26010 0.28930 -0.00200
C 	C 	0.17300 0.20180 0.21430 -0.00700
C 	C 	0.11890 0.15700 0.04220 0.40900
C 	C 	0.36290 0.39040 0.35770 0.47100
C 	C 	0.66900 0.10650 0.93350 0.36900
C 	C 	0.58220 0.05300 0.96870 -0.10600
C 	C 	0.58620 0.95320 0.94860 0.00300
C 	C 	0.49320 0.09900 0.02140 -0.00700
C 	C 	0.96540 0.04850 0.70320 0.27400
C 	C 	0.98320 0.02390 0.59850 -0.07500
C 	C 	0.03590 0.08720 0.55530 -0.01300
C 	C 	0.94860 0.93540 0.54310 -0.00800
C 	C 	0.68500 0.28520 0.37710 -0.11400
C 	C 	0.75770 0.21750 0.39180 -0.01300
C 	C 	0.81650 0.16240 0.31610 -0.00400
C 	C 	0.80160 0.17170 0.22510 -0.11100
C 	C 	0.73050 0.23990 0.21070 -0.01300
C 	C 	0.67300 0.29820 0.28570 0.00400
C 	C 	0.61890 0.34300 0.45780 0.42400
C 	C 	0.86290 0.10960 0.14230 0.46100
C 	C 	0.16900 0.39350 0.56650 0.36600
C 	C 	0.08220 0.44700 0.53130 -0.08100
C 	C 	0.08620 0.54680 0.55140 -0.01000
C 	C 	0.99320 0.40100 0.47860 -0.02200
C 	C 	0.46540 0.45150 0.79680 0.31000
C 	C 	0.48320 0.47610 0.90150 -0.05400
C 	C 	0.53590 0.41280 0.94470 -0.03300
C 	C 	0.44860 0.56460 0.95690 -0.02000
O 	O 	0.90330 0.81070 0.02680 -0.45800
O 	O 	0.91390 0.92560 0.95380 -0.59700
O 	O 	0.63550 0.63380 0.56530 -0.52800
O 	O 	0.59320 0.53520 0.65670 -0.51300
O 	O 	0.34000 0.80300 0.05020 -0.29100
O 	O 	0.25130 0.94060 0.11100 -0.48400
O 	O 	0.10070 0.00180 0.26340 -0.39900
O 	O 	0.98620 0.88110 0.24340 -0.38500
O 	O 	0.40330 0.68930 0.47320 -0.47700
O 	O 	0.41390 0.57440 0.54620 -0.62000
O 	O 	0.13550 0.86620 0.93470 -0.51100
O 	O 	0.09320 0.96480 0.84330 -0.50000
O 	O 	0.84000 0.69700 0.44980 -0.28500
O 	O 	0.75130 0.55940 0.38900 -0.48200
O 	O 	0.60070 0.49820 0.23660 -0.42700
O 	O 	0.48620 0.61890 0.25660 -0.41500
O 	O 	0.09670 0.18930 0.97320 -0.45800
O 	O 	0.08610 0.07440 0.04620 -0.59700
O 	O 	0.36450 0.36620 0.43470 -0.52800
O 	O 	0.40680 0.46480 0.34330 -0.51300
O 	O 	0.66000 0.19700 0.94980 -0.29100
O 	O 	0.74870 0.05940 0.88900 -0.48400
O 	O 	0.89930 0.99820 0.73660 -0.39900
O 	O 	0.01380 0.11890 0.75660 -0.38500
O 	O 	0.59670 0.31070 0.52680 -0.47700
O 	O 	0.58610 0.42560 0.45380 -0.62000
O 	O 	0.86450 0.13380 0.06530 -0.51100
O 	O 	0.90680 0.03520 0.15670 -0.50000
O 	O 	0.16000 0.30300 0.55020 -0.28500
O 	O 	0.24870 0.44060 0.61100 -0.48200
O 	O 	0.39930 0.50180 0.76340 -0.42700
O 	O 	0.51380 0.38110 0.74340 -0.41500
