data_crystal

_cell_length_a 8.37340
_cell_length_b 10.57400
_cell_length_c 14.30770
_cell_angle_alpha 101.47800
_cell_angle_beta  103.12000
_cell_angle_gamma 102.24700

_symmetry_space_group_name_	'P 1'
_symmetry_space_group_name_H-M	'P 1'

loop_
_symmetry_equiv_pos_as_xyz
  x,y,z

loop_
_atom_site_label
_atom_site_type_symbol
_atom_site_fract_x
_atom_site_fract_y
_atom_site_fract_z
_atom_site_charge
Y 	Y 	0.65664 0.66015 0.17072 2.38200
O 	O 	0.57780 0.82860 0.26190 -0.52800
O 	O 	0.72850 0.00210 0.39170 -0.23700
O 	O 	0.65430 0.44940 0.09558 -0.63200
O 	O 	0.46440 0.28470 0.97256 -0.60400
O 	O 	0.86560 0.86430 0.19330 -0.44200
O 	O 	0.88160 0.69310 0.08238 -0.42200
O 	O 	0.90880 0.64700 0.28734 -0.44400
O 	O 	0.66590 0.57510 0.31856 -0.46700
C 	C 	0.62530 0.05020 0.23820 -0.05300
C 	C 	0.49870 0.01200 0.14840 -0.05100
H 	H 	0.42720 0.92530 0.12630 0.05300
C 	C 	0.47840 0.10280 0.09150 0.03200
H 	H 	0.39140 0.07640 0.03230 0.03300
C 	C 	0.58580 0.23230 0.12130 -0.15200
C 	C 	0.71460 0.27000 0.21130 0.02800
H 	H 	0.78930 0.35540 0.23210 0.02700
C 	C 	0.73150 0.18080 0.26990 -0.04900
H 	H 	0.81430 0.20830 0.33080 0.07200
C 	C 	0.64850 0.95480 0.30280 0.35700
C 	C 	0.56630 0.33010 0.05850 0.47900
C 	C 	0.96160 0.91290 0.05730 -0.04400
C 	C 	0.03070 0.87460 0.98090 -0.02700
H 	H 	0.05150 0.79070 0.96790 0.05300
C 	C 	0.93120 0.03880 0.07620 -0.03200
H 	H 	0.88480 0.06460 0.12780 0.06300
C 	C 	0.90430 0.81780 0.11520 0.27500
C 	C 	0.91540 0.54370 0.42180 -0.05000
C 	C 	0.09030 0.55900 0.44320 -0.02300
H 	H 	0.15150 0.59890 0.40510 0.06400
C 	C 	0.82650 0.48410 0.47990 -0.02400
H 	H 	0.70970 0.47330 0.46660 0.06200
C 	C 	0.82640 0.59170 0.33850 0.30300
Y 	Y 	0.34336 0.33985 0.82928 2.38100
O 	O 	0.42220 0.17140 0.73810 -0.52900
O 	O 	0.27150 0.99790 0.60830 -0.23800
O 	O 	0.34570 0.55060 0.90442 -0.63300
O 	O 	0.53560 0.71530 0.02744 -0.60400
O 	O 	0.13440 0.13570 0.80670 -0.44200
O 	O 	0.11840 0.30690 0.91762 -0.42200
O 	O 	0.09120 0.35300 0.71266 -0.44400
O 	O 	0.33410 0.42490 0.68144 -0.46700
C 	C 	0.37470 0.94980 0.76180 -0.05300
C 	C 	0.50130 0.98800 0.85160 -0.05100
H 	H 	0.57280 0.07470 0.87370 0.05300
C 	C 	0.52160 0.89720 0.90850 0.03200
H 	H 	0.60860 0.92360 0.96770 0.03300
C 	C 	0.41420 0.76770 0.87870 -0.15200
C 	C 	0.28540 0.73000 0.78870 0.02800
H 	H 	0.21070 0.64460 0.76790 0.02700
C 	C 	0.26850 0.81920 0.73010 -0.04900
H 	H 	0.18570 0.79170 0.66920 0.07200
C 	C 	0.35150 0.04520 0.69720 0.35700
C 	C 	0.43370 0.66990 0.94150 0.47900
C 	C 	0.03840 0.08710 0.94270 -0.04400
C 	C 	0.96930 0.12540 0.01910 -0.02700
H 	H 	0.94850 0.20930 0.03210 0.05300
C 	C 	0.06880 0.96120 0.92380 -0.03200
H 	H 	0.11520 0.93540 0.87220 0.06300
C 	C 	0.09570 0.18220 0.88480 0.27500
C 	C 	0.08460 0.45630 0.57820 -0.05000
C 	C 	0.90970 0.44100 0.55680 -0.02300
H 	H 	0.84850 0.40110 0.59490 0.06400
C 	C 	0.17350 0.51590 0.52010 -0.02400
H 	H 	0.29030 0.52670 0.53340 0.06200
C 	C 	0.17360 0.40830 0.66150 0.30300
