data_crystal

_cell_length_a 8.40340
_cell_length_b 10.53340
_cell_length_c 14.35150
_cell_angle_alpha 100.83000
_cell_angle_beta  103.41000
_cell_angle_gamma 101.56000

_symmetry_space_group_name_	'P 1'
_symmetry_space_group_name_H-M	'P 1'

loop_
_symmetry_equiv_pos_as_xyz
  x,y,z

loop_
_atom_site_label
_atom_site_type_symbol
_atom_site_fract_x
_atom_site_fract_y
_atom_site_fract_z
_atom_site_charge
Yb	Yb	0.15434 0.15948 0.17018 1.53400
O 	O 	0.15240 0.95250 0.09604 -0.45200
O 	O 	0.96950 0.79040 0.97183 -0.44600
O 	O 	0.07520 0.32600 0.25876 -0.39400
O 	O 	0.21980 0.49560 0.38750 -0.22700
O 	O 	0.16720 0.07590 0.31692 -0.36500
O 	O 	0.40690 0.14510 0.28506 -0.34000
O 	O 	0.35430 0.36080 0.18849 -0.34700
O 	O 	0.37650 0.19170 0.08062 -0.32500
C 	C 	0.08590 0.73400 0.12080 -0.10400
C 	C 	0.21160 0.76890 0.21050 0.00600
H 	H 	0.28620 0.85350 0.23160 0.04200
C 	C 	0.22540 0.67830 0.26780 -0.03900
H 	H 	0.30620 0.70420 0.32900 0.07000
C 	C 	0.12090 0.54860 0.23630 -0.04400
C 	C 	0.99680 0.51340 0.14600 -0.04100
H 	H 	0.92620 0.42730 0.12310 0.05800
C 	C 	0.97830 0.60660 0.08990 0.00600
H 	H 	0.89250 0.58300 0.03080 0.04400
C 	C 	0.06720 0.83370 0.05830 0.39200
C 	C 	0.14320 0.45040 0.29970 0.33400
C 	C 	0.41610 0.04470 0.42120 -0.04900
C 	C 	0.32670 0.97920 0.47670 -0.02300
H 	H 	0.20980 0.96530 0.46140 0.06400
C 	C 	0.32470 0.09150 0.33710 0.29600
C 	C 	0.45810 0.41190 0.05630 -0.04500
C 	C 	0.53150 0.37460 0.98210 -0.02600
H 	H 	0.55270 0.29060 0.96990 0.05800
C 	C 	0.42660 0.53700 0.07420 -0.02900
H 	H 	0.37730 0.56200 0.12420 0.06300
C 	C 	0.39700 0.31560 0.11240 0.28200
C 	C 	0.59010 0.06500 0.44610 -0.02200
H 	H 	0.65170 0.10900 0.41030 0.06700
Yb	Yb	0.84566 0.84052 0.82982 1.53500
O 	O 	0.84760 0.04750 0.90396 -0.45100
O 	O 	0.03050 0.20960 0.02817 -0.44500
O 	O 	0.92480 0.67400 0.74124 -0.39300
O 	O 	0.78020 0.50440 0.61250 -0.22700
O 	O 	0.83280 0.92410 0.68308 -0.36500
O 	O 	0.59310 0.85490 0.71494 -0.34000
O 	O 	0.64570 0.63920 0.81151 -0.34700
O 	O 	0.62350 0.80830 0.91938 -0.32500
C 	C 	0.91410 0.26600 0.87920 -0.10400
C 	C 	0.78840 0.23110 0.78950 0.00600
H 	H 	0.71380 0.14650 0.76840 0.04200
C 	C 	0.77460 0.32170 0.73220 -0.03900
H 	H 	0.69380 0.29580 0.67100 0.07000
C 	C 	0.87910 0.45140 0.76370 -0.04400
C 	C 	0.00320 0.48660 0.85400 -0.04100
H 	H 	0.07380 0.57270 0.87690 0.05800
C 	C 	0.02170 0.39340 0.91010 0.00600
H 	H 	0.10750 0.41700 0.96920 0.04400
C 	C 	0.93280 0.16630 0.94170 0.39200
C 	C 	0.85680 0.54960 0.70030 0.33400
C 	C 	0.58390 0.95530 0.57880 -0.04900
C 	C 	0.67330 0.02080 0.52330 -0.02300
H 	H 	0.79020 0.03470 0.53860 0.06400
C 	C 	0.67530 0.90850 0.66290 0.29600
C 	C 	0.54190 0.58810 0.94370 -0.04500
C 	C 	0.46850 0.62540 0.01790 -0.02600
H 	H 	0.44730 0.70940 0.03010 0.05800
C 	C 	0.57340 0.46300 0.92580 -0.02900
H 	H 	0.62270 0.43800 0.87580 0.06300
C 	C 	0.60300 0.68440 0.88760 0.28200
C 	C 	0.40990 0.93500 0.55390 -0.02200
H 	H 	0.34830 0.89100 0.58970 0.06700
