data_crystal

_cell_length_a 8.38980
_cell_length_b 10.65590
_cell_length_c 14.38770
_cell_angle_alpha 101.96400
_cell_angle_beta  102.86400
_cell_angle_gamma 102.68100

_symmetry_space_group_name_	'P 1'
_symmetry_space_group_name_H-M	'P 1'

loop_
_symmetry_equiv_pos_as_xyz
  x,y,z

loop_
_atom_site_label
_atom_site_type_symbol
_atom_site_fract_x
_atom_site_fract_y
_atom_site_fract_z
_atom_site_charge
Sm	Sm	0.34250 0.33938 0.32908 1.99900
O 	O 	0.33948 0.55500 0.40484 -0.54700
O 	O 	0.53618 0.71927 0.52487 -0.53000
O 	O 	0.27130 0.99305 0.10739 -0.24200
O 	O 	0.42426 0.16695 0.23588 -0.46200
O 	O 	0.08809 0.35191 0.20852 -0.38900
O 	O 	0.33346 0.42642 0.17883 -0.41000
O 	O 	0.12455 0.13114 0.30410 -0.38900
O 	O 	0.10955 0.30249 0.41526 -0.37900
C 	C 	0.41120 0.76999 0.37746 -0.14600
C 	C 	0.28230 0.73057 0.28861 0.03100
H 	H 	0.20640 0.64570 0.26900 0.02400
C 	C 	0.26620 0.81707 0.22894 -0.05600
H 	H 	0.18390 0.78800 0.16800 0.07200
C 	C 	0.37370 0.94798 0.26042 -0.05100
C 	C 	0.50080 0.98815 0.34971 -0.03900
H 	H 	0.57220 0.07490 0.37140 0.04700
C 	C 	0.52160 0.89899 0.40694 0.01800
H 	H 	0.60980 0.92560 0.46530 0.03400
C 	C 	0.43160 0.67448 0.44056 0.46300
C 	C 	0.35170 0.04135 0.19519 0.35700
C 	C 	0.08390 0.45597 0.07663 -0.04800
C 	C 	0.90940 0.44150 0.05740 -0.02700
H 	H 	0.84890 0.40230 0.09580 0.06100
C 	C 	0.17420 0.51490 0.01870 -0.02500
H 	H 	0.29050 0.52480 0.03120 0.05900
C 	C 	0.17340 0.40810 0.15877 0.30000
C 	C 	0.03600 0.08549 0.44180 -0.04500
C 	C 	0.06870 0.96110 0.42287 -0.03000
H 	H 	0.11440 0.93520 0.37110 0.05800
C 	C 	0.96700 0.12400 0.51860 -0.03200
H 	H 	0.94480 0.20670 0.53090 0.05100
C 	C 	0.08860 0.17848 0.38260 0.27600
Sm	Sm	0.65750 0.66062 0.67092 1.99800
O 	O 	0.66052 0.44500 0.59516 -0.54800
O 	O 	0.46382 0.28073 0.47513 -0.53100
O 	O 	0.72870 0.00695 0.89261 -0.24300
O 	O 	0.57574 0.83305 0.76412 -0.46300
O 	O 	0.91191 0.64809 0.79148 -0.39000
O 	O 	0.66654 0.57358 0.82117 -0.41000
O 	O 	0.87545 0.86886 0.69590 -0.38900
O 	O 	0.89045 0.69751 0.58474 -0.37900
C 	C 	0.58880 0.23001 0.62254 -0.14600
C 	C 	0.71770 0.26943 0.71139 0.03100
H 	H 	0.79360 0.35430 0.73100 0.02400
C 	C 	0.73380 0.18293 0.77106 -0.05600
H 	H 	0.81610 0.21200 0.83200 0.07200
C 	C 	0.62630 0.05202 0.73958 -0.05100
C 	C 	0.49920 0.01185 0.65029 -0.03900
H 	H 	0.42780 0.92510 0.62860 0.04700
C 	C 	0.47840 0.10101 0.59306 0.01800
H 	H 	0.39020 0.07440 0.53470 0.03400
C 	C 	0.56840 0.32552 0.55944 0.46300
C 	C 	0.64830 0.95865 0.80481 0.35700
C 	C 	0.91610 0.54403 0.92337 -0.04800
C 	C 	0.09060 0.55850 0.94260 -0.02700
H 	H 	0.15110 0.59770 0.90420 0.06100
C 	C 	0.82580 0.48510 0.98130 -0.02500
H 	H 	0.70950 0.47520 0.96880 0.05900
C 	C 	0.82660 0.59190 0.84123 0.30000
C 	C 	0.96400 0.91451 0.55820 -0.04500
C 	C 	0.93130 0.03890 0.57713 -0.03000
H 	H 	0.88560 0.06480 0.62890 0.05800
C 	C 	0.03300 0.87600 0.48140 -0.03200
H 	H 	0.05520 0.79330 0.46910 0.05100
C 	C 	0.91140 0.82152 0.61740 0.27600
