data_crystal

_cell_length_a 9.78630
_cell_length_b 10.29670
_cell_length_c 11.02630
_cell_angle_alpha 76.89800
_cell_angle_beta  76.24000
_cell_angle_gamma 65.48700

_symmetry_space_group_name_	'P 1'
_symmetry_space_group_name_H-M	'P 1'

loop_
_symmetry_equiv_pos_as_xyz
  x,y,z

loop_
_atom_site_label
_atom_site_type_symbol
_atom_site_fract_x
_atom_site_fract_y
_atom_site_fract_z
_atom_site_charge
Yb	Yb	0.94429 0.22814 0.32414 1.48900
Yb	Yb	0.05571 0.77186 0.67586 1.48900
H 	H 	0.43560 0.41680 0.21100 0.04700
H 	H 	0.74400 0.49740 0.92270 0.06100
H 	H 	0.40150 0.88280 0.68180 0.04900
H 	H 	0.34860 0.14150 0.34870 0.04200
H 	H 	0.30790 0.92210 0.00530 0.06000
H 	H 	0.45270 0.18800 0.10700 0.05100
H 	H 	0.56440 0.58320 0.78900 0.04600
H 	H 	0.25600 0.50260 0.07730 0.06000
H 	H 	0.59850 0.11720 0.31820 0.04900
H 	H 	0.65140 0.85850 0.65130 0.04200
H 	H 	0.69210 0.07790 0.99470 0.06000
H 	H 	0.54730 0.81200 0.89300 0.05100
C 	C 	0.60870 0.44840 0.08060 -0.05600
C 	C 	0.46150 0.45010 0.12650 -0.02700
C 	C 	0.64660 0.49830 0.95390 -0.02900
C 	C 	0.72630 0.38780 0.16690 0.29400
C 	C 	0.35010 0.01300 0.51760 -0.10200
C 	C 	0.44160 0.92940 0.60860 -0.01900
C 	C 	0.40960 0.08450 0.40910 -0.01700
C 	C 	0.18950 0.02190 0.53300 0.39600
C 	C 	0.35540 0.06600 0.06780 -0.04500
C 	C 	0.38500 0.95340 0.00320 -0.03800
C 	C 	0.47150 0.11270 0.06420 -0.02300
C 	C 	0.20300 0.13240 0.14820 0.29200
C 	C 	0.39130 0.55160 0.91940 -0.05600
C 	C 	0.53850 0.54990 0.87350 -0.02700
C 	C 	0.35340 0.50170 0.04610 -0.02900
C 	C 	0.27370 0.61220 0.83310 0.29400
C 	C 	0.64990 0.98700 0.48240 -0.10200
C 	C 	0.55840 0.07060 0.39140 -0.01900
C 	C 	0.59040 0.91550 0.59090 -0.01700
C 	C 	0.81050 0.97810 0.46700 0.39600
C 	C 	0.64460 0.93400 0.93220 -0.04500
C 	C 	0.61500 0.04660 0.99680 -0.03800
C 	C 	0.52850 0.88730 0.93580 -0.02300
C 	C 	0.79700 0.86760 0.85180 0.29200
O 	O 	0.86150 0.37420 0.12390 -0.36500
O 	O 	0.68570 0.35020 0.28190 -0.40000
O 	O 	0.11470 0.09950 0.44660 -0.48400
O 	O 	0.14080 0.95070 0.62940 -0.45100
O 	O 	0.16900 0.25000 0.18620 -0.37400
O 	O 	0.11330 0.06550 0.18030 -0.35000
O 	O 	0.13850 0.62580 0.87610 -0.36500
O 	O 	0.31430 0.64980 0.71810 -0.40000
O 	O 	0.88530 0.90050 0.55340 -0.48400
O 	O 	0.85920 0.04930 0.37060 -0.45100
O 	O 	0.83100 0.75000 0.81380 -0.37400
O 	O 	0.88670 0.93450 0.81970 -0.35000
