data_crystal

_cell_length_a 9.81350
_cell_length_b 10.43100
_cell_length_c 11.06710
_cell_angle_alpha 76.84300
_cell_angle_beta  76.27600
_cell_angle_gamma 65.94000

_symmetry_space_group_name_	'P 1'
_symmetry_space_group_name_H-M	'P 1'

loop_
_symmetry_equiv_pos_as_xyz
  x,y,z

loop_
_atom_site_label
_atom_site_type_symbol
_atom_site_fract_x
_atom_site_fract_y
_atom_site_fract_z
_atom_site_charge
Ho	Ho	0.94486 0.22804 0.82318 1.57200
Ho	Ho	0.05514 0.77196 0.17682 1.57200
H 	H 	0.65000 0.85620 0.14910 0.03300
H 	H 	0.59930 0.11620 0.81910 0.04200
H 	H 	0.43610 0.41380 0.70800 0.04100
H 	H 	0.73990 0.50260 0.42370 0.05400
H 	H 	0.30830 0.92310 0.50720 0.05400
H 	H 	0.45580 0.18490 0.60420 0.05000
H 	H 	0.35000 0.14380 0.85090 0.03200
H 	H 	0.40070 0.88380 0.18090 0.04100
H 	H 	0.56390 0.58620 0.29200 0.04100
H 	H 	0.26010 0.49740 0.57630 0.05400
H 	H 	0.69170 0.07690 0.49280 0.05400
H 	H 	0.54420 0.81510 0.39580 0.05000
C 	C 	0.65160 0.98720 0.98320 -0.14500
C 	C 	0.58970 0.91500 0.08960 0.00300
C 	C 	0.55920 0.07040 0.89230 -0.00600
C 	C 	0.80970 0.97620 0.96840 0.44400
C 	C 	0.60890 0.44780 0.58040 -0.07100
C 	C 	0.46220 0.44830 0.62420 -0.02300
C 	C 	0.64370 0.50110 0.45480 -0.02600
C 	C 	0.35620 0.06510 0.56750 -0.05300
C 	C 	0.38520 0.95450 0.50460 -0.03100
C 	C 	0.47310 0.11040 0.56230 -0.02700
C 	C 	0.20500 0.13220 0.64710 0.30500
C 	C 	0.72340 0.38830 0.66440 0.31400
C 	C 	0.34840 0.01280 0.01680 -0.14500
C 	C 	0.41030 0.08500 0.91040 0.00300
C 	C 	0.44080 0.92960 0.10770 -0.00600
C 	C 	0.19030 0.02380 0.03160 0.44400
C 	C 	0.39110 0.55220 0.41960 -0.07100
C 	C 	0.53780 0.55170 0.37580 -0.02300
C 	C 	0.35630 0.49890 0.54520 -0.02600
C 	C 	0.64380 0.93490 0.43250 -0.05300
C 	C 	0.61480 0.04550 0.49540 -0.03100
C 	C 	0.52690 0.88960 0.43770 -0.02700
C 	C 	0.79500 0.86780 0.35290 0.30500
C 	C 	0.27660 0.61170 0.33560 0.31400
O 	O 	0.85760 0.04770 0.87250 -0.47600
O 	O 	0.88510 0.89810 0.05230 -0.51200
O 	O 	0.85870 0.37500 0.62430 -0.37600
O 	O 	0.17190 0.24790 0.68260 -0.38500
O 	O 	0.11570 0.06510 0.68060 -0.36400
O 	O 	0.68850 0.35100 0.78090 -0.41600
O 	O 	0.14240 0.95230 0.12750 -0.47600
O 	O 	0.11490 0.10190 0.94770 -0.51200
O 	O 	0.14130 0.62500 0.37570 -0.37600
O 	O 	0.82810 0.75210 0.31740 -0.38500
O 	O 	0.88430 0.93490 0.31940 -0.36400
O 	O 	0.31150 0.64900 0.21910 -0.41600
