data_crystal

_cell_length_a 17.48000
_cell_length_b 17.48000
_cell_length_c 22.69000
_cell_angle_alpha 90.00000
_cell_angle_beta  90.00000
_cell_angle_gamma 90.00000

_symmetry_space_group_name_	'P 1'
_symmetry_space_group_name_H-M	'P 1'

loop_
_symmetry_equiv_pos_as_xyz
  x,y,z

loop_
_atom_site_label
_atom_site_type_symbol
_atom_site_fract_x
_atom_site_fract_y
_atom_site_fract_z
_atom_site_charge
Zn	Zn	0.56833 0.08295 0.79704 1.22000
Zn	Zn	0.43167 0.91705 0.79704 1.22000
Zn	Zn	0.08295 0.43167 0.20296 1.22000
Zn	Zn	0.91705 0.56833 0.20296 1.22000
Zn	Zn	0.93167 0.58295 0.70296 1.22000
Zn	Zn	0.06833 0.41705 0.70296 1.22000
Zn	Zn	0.41705 0.93167 0.29704 1.22000
Zn	Zn	0.58295 0.06833 0.29704 1.22000
H 	H 	0.63990 0.97490 0.50500 0.07500
H 	H 	0.55450 0.77910 0.77200 0.27400
H 	H 	0.70960 0.68480 0.73460 0.11200
H 	H 	0.46740 0.12720 0.68590 0.00500
H 	H 	0.90860 0.84190 0.74280 0.27300
H 	H 	0.53200 0.16860 0.39620 0.01300
H 	H 	0.66930 0.03100 0.69700 0.01200
H 	H 	0.63800 0.97050 0.40460 0.01000
H 	H 	0.52810 0.17600 0.49690 0.07800
H 	H 	0.47240 0.12740 0.58490 0.07800
H 	H 	0.75260 0.94220 0.77610 0.09400
H 	H 	0.68070 0.02790 0.59550 0.08000
H 	H 	0.36010 0.02510 0.50500 0.07500
H 	H 	0.44550 0.22090 0.77200 0.27400
H 	H 	0.29040 0.31520 0.73460 0.11200
H 	H 	0.53260 0.87280 0.68590 0.00500
H 	H 	0.09140 0.15810 0.74280 0.27200
H 	H 	0.46800 0.83140 0.39620 0.01200
H 	H 	0.33070 0.96900 0.69700 0.01100
H 	H 	0.36200 0.02950 0.40460 0.00900
H 	H 	0.47190 0.82400 0.49690 0.07700
H 	H 	0.52760 0.87260 0.58490 0.07700
H 	H 	0.24740 0.05780 0.77610 0.09300
H 	H 	0.31930 0.97210 0.59550 0.07900
H 	H 	0.97490 0.36010 0.49500 0.07400
H 	H 	0.77910 0.44550 0.22800 0.27300
H 	H 	0.68480 0.29040 0.26540 0.11100
H 	H 	0.12720 0.53260 0.31410 0.00400
H 	H 	0.84190 0.09140 0.25720 0.27200
H 	H 	0.16860 0.46800 0.60380 0.01200
H 	H 	0.03100 0.33070 0.30300 0.01100
H 	H 	0.97050 0.36200 0.59540 0.00900
H 	H 	0.17600 0.47190 0.50310 0.07700
H 	H 	0.12740 0.52760 0.41510 0.07700
H 	H 	0.94220 0.24740 0.22390 0.09300
H 	H 	0.02790 0.31930 0.40450 0.07900
H 	H 	0.02510 0.63990 0.49500 0.07400
H 	H 	0.22090 0.55450 0.22800 0.27300
H 	H 	0.31520 0.70960 0.26540 0.11100
H 	H 	0.87280 0.46740 0.31410 0.00400
H 	H 	0.15810 0.90860 0.25720 0.27200
H 	H 	0.83140 0.53200 0.60380 0.01200
H 	H 	0.96900 0.66930 0.30300 0.01100
H 	H 	0.02950 0.63800 0.59540 0.00900
H 	H 	0.82400 0.52810 0.50310 0.07700
H 	H 	0.87260 0.47240 0.41510 0.07700
H 	H 	0.05780 0.75260 0.22390 0.09300
H 	H 	0.97210 0.68070 0.40450 0.07900
H 	H 	0.86010 0.47490 0.99500 0.07400
H 	H 	0.94550 0.27910 0.72800 0.27300
H 	H 	0.79040 0.18480 0.76540 0.11100
H 	H 	0.03260 0.62720 0.81410 0.00400
H 	H 	0.59140 0.34190 0.75720 0.27200
H 	H 	0.96800 0.66860 0.10380 0.01200
H 	H 	0.83070 0.53100 0.80300 0.01100
H 	H 	0.86200 0.47050 0.09540 0.00900
H 	H 	0.97190 0.67600 0.00310 0.07700
H 	H 	0.02760 0.62740 0.91510 0.07700
H 	H 	0.74740 0.44220 0.72390 0.09300
H 	H 	0.81930 0.52790 0.90450 0.07900
H 	H 	0.13990 0.52510 0.99500 0.07400
H 	H 	0.05450 0.72090 0.72800 0.27300
H 	H 	0.20960 0.81520 0.76540 0.11100
H 	H 	0.96740 0.37280 0.81410 0.00400
H 	H 	0.40860 0.65810 0.75720 0.27200
H 	H 	0.03200 0.33140 0.10380 0.01200
H 	H 	0.16930 0.46900 0.80300 0.01100
H 	H 	0.13800 0.52950 0.09540 0.00900
H 	H 	0.02810 0.32400 0.00310 0.07700
H 	H 	0.97240 0.37260 0.91510 0.07700
H 	H 	0.25260 0.55780 0.72390 0.09300
H 	H 	0.18070 0.47210 0.90450 0.07900
H 	H 	0.52510 0.86010 0.00500 0.07400
H 	H 	0.72090 0.94550 0.27200 0.27300
H 	H 	0.81520 0.79040 0.23460 0.11100
H 	H 	0.37280 0.03260 0.18590 0.00400
H 	H 	0.65810 0.59140 0.24280 0.27200
H 	H 	0.33140 0.96800 0.89620 0.01200
H 	H 	0.46900 0.83070 0.19700 0.01100
H 	H 	0.52950 0.86200 0.90460 0.00900
H 	H 	0.32400 0.97190 0.99690 0.07700
H 	H 	0.37260 0.02760 0.08490 0.07700
H 	H 	0.55780 0.74740 0.27610 0.09300
H 	H 	0.47210 0.81930 0.09550 0.07900
H 	H 	0.47490 0.13990 0.00500 0.07400
H 	H 	0.27910 0.05450 0.27200 0.27300
H 	H 	0.18480 0.20960 0.23460 0.11100
H 	H 	0.62720 0.96740 0.18590 0.00400
H 	H 	0.34190 0.40860 0.24280 0.27200
H 	H 	0.66860 0.03200 0.89620 0.01200
H 	H 	0.53100 0.16930 0.19700 0.01100
H 	H 	0.47050 0.13800 0.90460 0.00900
H 	H 	0.67600 0.02810 0.99690 0.07700
H 	H 	0.62740 0.97240 0.08490 0.07700
H 	H 	0.44220 0.25260 0.27610 0.09300
H 	H 	0.52790 0.18070 0.09550 0.07900
C 	C 	0.58160 0.07580 0.51360 0.05300
C 	C 	0.57750 0.07730 0.57860 0.05700
C 	C 	0.60690 0.91250 0.79030 0.43800
C 	C 	0.61590 0.01500 0.48350 -0.12000
C 	C 	0.67000 0.85960 0.77320 -0.17000
C 	C 	0.71810 0.73720 0.74360 -0.11100
C 	C 	0.65680 0.78200 0.76080 0.25500
C 	C 	0.79180 0.76670 0.73890 -0.11300
C 	C 	0.51130 0.10650 0.66710 0.08100
C 	C 	0.55290 0.12780 0.41870 0.07100
C 	C 	0.62870 0.05060 0.67360 0.07300
C 	C 	0.61490 0.01300 0.42380 0.07400
C 	C 	0.55100 0.13260 0.47880 -0.11900
C 	C 	0.80420 0.84450 0.75140 0.21300
C 	C 	0.51380 0.10700 0.60700 -0.12600
C 	C 	0.74400 0.88960 0.76800 -0.07400
C 	C 	0.63600 0.04870 0.61320 -0.12200
C 	C 	0.85490 0.71530 0.72130 0.34100
C 	C 	0.41840 0.92420 0.51360 0.05300
C 	C 	0.42250 0.92270 0.57860 0.05700
C 	C 	0.39310 0.08750 0.79030 0.43800
C 	C 	0.38410 0.98500 0.48350 -0.12000
C 	C 	0.33000 0.14040 0.77320 -0.17000
C 	C 	0.28190 0.26280 0.74360 -0.11100
C 	C 	0.34320 0.21800 0.76080 0.25500
C 	C 	0.20820 0.23330 0.73890 -0.11300
C 	C 	0.48870 0.89350 0.66710 0.08100
C 	C 	0.44710 0.87220 0.41870 0.07100
C 	C 	0.37130 0.94940 0.67360 0.07300
C 	C 	0.38510 0.98700 0.42380 0.07400
C 	C 	0.44900 0.86740 0.47880 -0.11900
C 	C 	0.19580 0.15550 0.75140 0.21300
C 	C 	0.48620 0.89300 0.60700 -0.12600
C 	C 	0.25600 0.11040 0.76800 -0.07400
C 	C 	0.36400 0.95130 0.61320 -0.12200
C 	C 	0.14510 0.28470 0.72130 0.34100
C 	C 	0.07580 0.41840 0.48640 0.05300
C 	C 	0.07730 0.42250 0.42140 0.05700
C 	C 	0.91250 0.39310 0.20970 0.43800
C 	C 	0.01500 0.38410 0.51650 -0.12000
C 	C 	0.85960 0.33000 0.22680 -0.17000
C 	C 	0.73720 0.28190 0.25640 -0.11100
C 	C 	0.78200 0.34320 0.23920 0.25500
C 	C 	0.76670 0.20820 0.26110 -0.11300
C 	C 	0.10650 0.48870 0.33290 0.08100
C 	C 	0.12780 0.44710 0.58130 0.07100
C 	C 	0.05060 0.37130 0.32640 0.07300
C 	C 	0.01300 0.38510 0.57620 0.07400
C 	C 	0.13260 0.44900 0.52120 -0.11900
C 	C 	0.84450 0.19580 0.24860 0.21300
C 	C 	0.10700 0.48620 0.39300 -0.12600
C 	C 	0.88960 0.25600 0.23200 -0.07400
C 	C 	0.04870 0.36400 0.38680 -0.12200
C 	C 	0.71530 0.14510 0.27870 0.34100
C 	C 	0.92420 0.58160 0.48640 0.05300
C 	C 	0.92270 0.57750 0.42140 0.05700
C 	C 	0.08750 0.60690 0.20970 0.43800
C 	C 	0.98500 0.61590 0.51650 -0.12000
C 	C 	0.14040 0.67000 0.22680 -0.17000
C 	C 	0.26280 0.71810 0.25640 -0.11100
C 	C 	0.21800 0.65680 0.23920 0.25500
C 	C 	0.23330 0.79180 0.26110 -0.11300
C 	C 	0.89350 0.51130 0.33290 0.08100
C 	C 	0.87220 0.55290 0.58130 0.07100
C 	C 	0.94940 0.62870 0.32640 0.07300
C 	C 	0.98700 0.61490 0.57620 0.07400
C 	C 	0.86740 0.55100 0.52120 -0.11900
C 	C 	0.15550 0.80420 0.24860 0.21300
C 	C 	0.89300 0.51380 0.39300 -0.12600
C 	C 	0.11040 0.74400 0.23200 -0.07400
C 	C 	0.95130 0.63600 0.38680 -0.12200
C 	C 	0.28470 0.85490 0.27870 0.34100
C 	C 	0.91840 0.57580 0.98640 0.05300
C 	C 	0.92250 0.57730 0.92140 0.05700
C 	C 	0.89310 0.41250 0.70970 0.43800
C 	C 	0.88410 0.51500 0.01650 -0.12000
C 	C 	0.83000 0.35960 0.72680 -0.17000
C 	C 	0.78190 0.23720 0.75640 -0.11100
C 	C 	0.84320 0.28200 0.73920 0.25500
C 	C 	0.70820 0.26670 0.76110 -0.11300
C 	C 	0.98870 0.60650 0.83290 0.08100
C 	C 	0.94710 0.62780 0.08130 0.07100
C 	C 	0.87130 0.55060 0.82640 0.07300
C 	C 	0.88510 0.51300 0.07620 0.07400
C 	C 	0.94900 0.63260 0.02120 -0.11900
C 	C 	0.69580 0.34450 0.74860 0.21300
C 	C 	0.98620 0.60700 0.89300 -0.12600
C 	C 	0.75600 0.38960 0.73200 -0.07400
C 	C 	0.86400 0.54870 0.88680 -0.12200
C 	C 	0.64510 0.21530 0.77870 0.34100
C 	C 	0.08160 0.42420 0.98640 0.05300
C 	C 	0.07750 0.42270 0.92140 0.05700
C 	C 	0.10690 0.58750 0.70970 0.43800
C 	C 	0.11590 0.48500 0.01650 -0.12000
C 	C 	0.17000 0.64040 0.72680 -0.17000
C 	C 	0.21810 0.76280 0.75640 -0.11100
C 	C 	0.15680 0.71800 0.73920 0.25500
C 	C 	0.29180 0.73330 0.76110 -0.11300
C 	C 	0.01130 0.39350 0.83290 0.08100
C 	C 	0.05290 0.37220 0.08130 0.07100
C 	C 	0.12870 0.44940 0.82640 0.07300
C 	C 	0.11490 0.48700 0.07620 0.07400
C 	C 	0.05100 0.36740 0.02120 -0.11900
C 	C 	0.30420 0.65550 0.74860 0.21300
C 	C 	0.01380 0.39300 0.89300 -0.12600
C 	C 	0.24400 0.61040 0.73200 -0.07400
C 	C 	0.13600 0.45130 0.88680 -0.12200
C 	C 	0.35490 0.78470 0.77870 0.34100
C 	C 	0.42420 0.91840 0.01360 0.05300
C 	C 	0.42270 0.92250 0.07860 0.05700
C 	C 	0.58750 0.89310 0.29030 0.43800
C 	C 	0.48500 0.88410 0.98350 -0.12000
C 	C 	0.64040 0.83000 0.27320 -0.17000
C 	C 	0.76280 0.78190 0.24360 -0.11100
C 	C 	0.71800 0.84320 0.26080 0.25500
C 	C 	0.73330 0.70820 0.23890 -0.11300
C 	C 	0.39350 0.98870 0.16710 0.08100
C 	C 	0.37220 0.94710 0.91870 0.07100
C 	C 	0.44940 0.87130 0.17360 0.07300
C 	C 	0.48700 0.88510 0.92380 0.07400
C 	C 	0.36740 0.94900 0.97880 -0.11900
C 	C 	0.65550 0.69580 0.25140 0.21300
C 	C 	0.39300 0.98620 0.10700 -0.12600
C 	C 	0.61040 0.75600 0.26800 -0.07400
C 	C 	0.45130 0.86400 0.11320 -0.12200
C 	C 	0.78470 0.64510 0.22130 0.34100
C 	C 	0.57580 0.08160 0.01360 0.05300
C 	C 	0.57730 0.07750 0.07860 0.05700
C 	C 	0.41250 0.10690 0.29030 0.43800
C 	C 	0.51500 0.11590 0.98350 -0.12000
C 	C 	0.35960 0.17000 0.27320 -0.17000
C 	C 	0.23720 0.21810 0.24360 -0.11100
C 	C 	0.28200 0.15680 0.26080 0.25500
C 	C 	0.26670 0.29180 0.23890 -0.11300
C 	C 	0.60650 0.01130 0.16710 0.08100
C 	C 	0.62780 0.05290 0.91870 0.07100
C 	C 	0.55060 0.12870 0.17360 0.07300
C 	C 	0.51300 0.11490 0.92380 0.07400
C 	C 	0.63260 0.05100 0.97880 -0.11900
C 	C 	0.34450 0.30420 0.25140 0.21300
C 	C 	0.60700 0.01380 0.10700 -0.12600
C 	C 	0.38960 0.24400 0.26800 -0.07400
C 	C 	0.54870 0.13600 0.11320 -0.12200
C 	C 	0.21530 0.35490 0.22130 0.34100
N 	N 	0.56700 0.07860 0.70090 -0.23300
N 	N 	0.58310 0.06780 0.39030 -0.24000
N 	N 	0.43300 0.92140 0.70090 -0.23300
N 	N 	0.41690 0.93220 0.39030 -0.24000
N 	N 	0.07860 0.43300 0.29910 -0.23300
N 	N 	0.06780 0.41690 0.60970 -0.24000
N 	N 	0.92140 0.56700 0.29910 -0.23300
N 	N 	0.93220 0.58310 0.60970 -0.24000
N 	N 	0.93300 0.57860 0.79910 -0.23300
N 	N 	0.91690 0.56780 0.10970 -0.24000
N 	N 	0.06700 0.42140 0.79910 -0.23300
N 	N 	0.08310 0.43220 0.10970 -0.24000
N 	N 	0.42140 0.93300 0.20090 -0.23300
N 	N 	0.43220 0.91690 0.89030 -0.24000
N 	N 	0.57860 0.06700 0.20090 -0.23300
N 	N 	0.56780 0.08310 0.89030 -0.24000
O 	O 	0.62210 0.98140 0.79730 -0.49200
O 	O 	0.58840 0.74690 0.76370 -0.40700
O 	O 	0.87600 0.87640 0.74920 -0.38700
O 	O 	0.54110 0.88300 0.79490 -0.50800
O 	O 	0.83850 0.64790 0.70820 -0.42900
O 	O 	0.92270 0.74040 0.72110 -0.31900
O 	O 	0.37790 0.01860 0.79730 -0.49200
O 	O 	0.41160 0.25310 0.76370 -0.40700
O 	O 	0.12400 0.12360 0.74920 -0.38700
O 	O 	0.45890 0.11700 0.79490 -0.50800
O 	O 	0.16150 0.35210 0.70820 -0.42900
O 	O 	0.07730 0.25960 0.72110 -0.31900
O 	O 	0.98140 0.37790 0.20270 -0.49200
O 	O 	0.74690 0.41160 0.23630 -0.40700
O 	O 	0.87640 0.12400 0.25080 -0.38700
O 	O 	0.88300 0.45890 0.20510 -0.50800
O 	O 	0.64790 0.16150 0.29180 -0.42900
O 	O 	0.74040 0.07730 0.27890 -0.31900
O 	O 	0.01860 0.62210 0.20270 -0.49200
O 	O 	0.25310 0.58840 0.23630 -0.40700
O 	O 	0.12360 0.87600 0.25080 -0.38700
O 	O 	0.11700 0.54110 0.20510 -0.50800
O 	O 	0.35210 0.83850 0.29180 -0.42900
O 	O 	0.25960 0.92270 0.27890 -0.31900
O 	O 	0.87790 0.48140 0.70270 -0.49200
O 	O 	0.91160 0.24690 0.73630 -0.40700
O 	O 	0.62400 0.37640 0.75080 -0.38700
O 	O 	0.95890 0.38300 0.70510 -0.50800
O 	O 	0.66150 0.14790 0.79180 -0.42900
O 	O 	0.57730 0.24040 0.77890 -0.31900
O 	O 	0.12210 0.51860 0.70270 -0.49200
O 	O 	0.08840 0.75310 0.73630 -0.40700
O 	O 	0.37600 0.62360 0.75080 -0.38700
O 	O 	0.04110 0.61700 0.70510 -0.50800
O 	O 	0.33850 0.85210 0.79180 -0.42900
O 	O 	0.42270 0.75960 0.77890 -0.31900
O 	O 	0.51860 0.87790 0.29730 -0.49200
O 	O 	0.75310 0.91160 0.26370 -0.40700
O 	O 	0.62360 0.62400 0.24920 -0.38700
O 	O 	0.61700 0.95890 0.29490 -0.50800
O 	O 	0.85210 0.66150 0.20820 -0.42900
O 	O 	0.75960 0.57730 0.22110 -0.31900
O 	O 	0.48140 0.12210 0.29730 -0.49200
O 	O 	0.24690 0.08840 0.26370 -0.40700
O 	O 	0.37640 0.37600 0.24920 -0.38700
O 	O 	0.38300 0.04110 0.29490 -0.50800
O 	O 	0.14790 0.33850 0.20820 -0.42900
O 	O 	0.24040 0.42270 0.22110 -0.31900
