data_crystal

_cell_length_a 9.70440
_cell_length_b 9.70440
_cell_length_c 6.85380
_cell_angle_alpha 90.00000
_cell_angle_beta  90.00000
_cell_angle_gamma 90.00000

_symmetry_space_group_name_	'P 1'
_symmetry_space_group_name_H-M	'P 1'

loop_
_symmetry_equiv_pos_as_xyz
  x,y,z

loop_
_atom_site_label
_atom_site_type_symbol
_atom_site_fract_x
_atom_site_fract_y
_atom_site_fract_z
_atom_site_charge
C 	C 	0.53450 0.06600 0.16390 0.00200
H 	H 	0.55700 0.11130 0.28260 -0.00400
C 	C 	0.96550 0.43400 0.16390 0.00200
H 	H 	0.94300 0.38870 0.28260 -0.00400
C 	C 	0.43400 0.53450 0.16390 0.00200
H 	H 	0.38870 0.55700 0.28260 -0.00400
C 	C 	0.06600 0.96550 0.16390 0.00300
H 	H 	0.11130 0.94300 0.28260 -0.00300
C 	C 	0.46550 0.56600 0.83610 0.00400
H 	H 	0.44300 0.61130 0.71740 -0.00300
C 	C 	0.03450 0.93400 0.83610 0.00300
H 	H 	0.05700 0.88870 0.71740 -0.00300
C 	C 	0.56600 0.03450 0.83610 0.00300
H 	H 	0.61130 0.05700 0.71740 -0.00300
C 	C 	0.93400 0.46550 0.83610 0.00400
H 	H 	0.88870 0.44300 0.71740 -0.00300
C 	C 	0.46550 0.93400 0.83610 0.00400
H 	H 	0.44300 0.88870 0.71740 -0.00300
C 	C 	0.03450 0.56600 0.83610 0.00300
H 	H 	0.05700 0.61130 0.71740 -0.00300
C 	C 	0.56600 0.46550 0.83610 0.00400
H 	H 	0.61130 0.44300 0.71740 -0.00300
C 	C 	0.93400 0.03450 0.83610 0.00300
H 	H 	0.88870 0.05700 0.71740 -0.00300
C 	C 	0.53450 0.43400 0.16390 0.00300
H 	H 	0.55700 0.38870 0.28260 -0.00300
C 	C 	0.96550 0.06600 0.16390 0.00300
H 	H 	0.94300 0.11130 0.28260 -0.00300
C 	C 	0.43400 0.96550 0.16390 0.00300
H 	H 	0.38870 0.94300 0.28260 -0.00300
C 	C 	0.06600 0.53450 0.16390 0.00300
H 	H 	0.11130 0.55700 0.28260 -0.00300
Cu	Cu	0.75000 0.25000 -0.00000 0.84500
Cu	Cu	0.25000 0.75000 -0.00000 0.84500
N 	N 	0.60128 0.10128 -0.00000 -0.21100
N 	N 	0.89872 0.39872 -0.00000 -0.21100
N 	N 	0.39872 0.60128 -0.00000 -0.21100
N 	N 	0.10128 0.89872 -0.00000 -0.21100
N 	N 	0.39872 0.89872 -0.00000 -0.21100
N 	N 	0.10128 0.60128 -0.00000 -0.21100
N 	N 	0.60128 0.39872 -0.00000 -0.21100
N 	N 	0.89872 0.10128 -0.00000 -0.21100
