data_crystal

_cell_length_a 9.71900
_cell_length_b 9.71900
_cell_length_c 6.86500
_cell_angle_alpha 90.00000
_cell_angle_beta  90.00000
_cell_angle_gamma 90.00000

_symmetry_space_group_name_	'P 1'
_symmetry_space_group_name_H-M	'P 1'

loop_
_symmetry_equiv_pos_as_xyz
  x,y,z

loop_
_atom_site_label
_atom_site_type_symbol
_atom_site_fract_x
_atom_site_fract_y
_atom_site_fract_z
_atom_site_charge
C 	C 	0.53467 0.06587 0.16380 0.00200
H 	H 	0.55710 0.11090 0.28240 -0.00400
C 	C 	0.96533 0.43413 0.16380 0.00300
H 	H 	0.94290 0.38910 0.28240 -0.00300
C 	C 	0.43413 0.53467 0.16380 0.00300
H 	H 	0.38910 0.55710 0.28240 -0.00300
C 	C 	0.06587 0.96533 0.16380 0.00300
H 	H 	0.11090 0.94290 0.28240 -0.00300
C 	C 	0.46533 0.56587 0.83620 0.00300
H 	H 	0.44290 0.61090 0.71760 -0.00300
C 	C 	0.03467 0.93413 0.83620 0.00300
H 	H 	0.05710 0.88910 0.71760 -0.00300
C 	C 	0.56587 0.03467 0.83620 0.00300
H 	H 	0.61090 0.05710 0.71760 -0.00300
C 	C 	0.93413 0.46533 0.83620 0.00300
H 	H 	0.88910 0.44290 0.71760 -0.00300
C 	C 	0.46533 0.93413 0.83620 0.00300
H 	H 	0.44290 0.88910 0.71760 -0.00300
C 	C 	0.03467 0.56587 0.83620 0.00300
H 	H 	0.05710 0.61090 0.71760 -0.00300
C 	C 	0.56587 0.46533 0.83620 0.00300
H 	H 	0.61090 0.44290 0.71760 -0.00300
C 	C 	0.93413 0.03467 0.83620 0.00300
H 	H 	0.88910 0.05710 0.71760 -0.00300
C 	C 	0.53467 0.43413 0.16380 0.00300
H 	H 	0.55710 0.38910 0.28240 -0.00300
C 	C 	0.96533 0.06587 0.16380 0.00300
H 	H 	0.94290 0.11090 0.28240 -0.00300
C 	C 	0.43413 0.96533 0.16380 0.00300
H 	H 	0.38910 0.94290 0.28240 -0.00300
C 	C 	0.06587 0.53467 0.16380 0.00300
H 	H 	0.11090 0.55710 0.28240 -0.00300
Cu	Cu	0.75000 0.25000 -0.00000 0.84500
Cu	Cu	0.25000 0.75000 -0.00000 0.84500
N 	N 	0.60129 0.10129 -0.00000 -0.21100
N 	N 	0.89871 0.39871 -0.00000 -0.21100
N 	N 	0.39871 0.60129 -0.00000 -0.21100
N 	N 	0.10129 0.89871 -0.00000 -0.21100
N 	N 	0.39871 0.89871 -0.00000 -0.21100
N 	N 	0.10129 0.60129 -0.00000 -0.21100
N 	N 	0.60129 0.39871 -0.00000 -0.21100
N 	N 	0.89871 0.10129 -0.00000 -0.21100
