data_crystal

_cell_length_a 9.72000
_cell_length_b 9.72000
_cell_length_c 6.94140
_cell_angle_alpha 90.00000
_cell_angle_beta  90.00000
_cell_angle_gamma 90.00000

_symmetry_space_group_name_	'P 1'
_symmetry_space_group_name_H-M	'P 1'

loop_
_symmetry_equiv_pos_as_xyz
  x,y,z

loop_
_atom_site_label
_atom_site_type_symbol
_atom_site_fract_x
_atom_site_fract_y
_atom_site_fract_z
_atom_site_charge
C 	C 	0.53790 0.06260 0.16150 0.00500
H 	H 	0.56210 0.10440 0.27710 -0.00300
C 	C 	0.96210 0.43740 0.16150 0.00500
H 	H 	0.93790 0.39560 0.27710 -0.00300
C 	C 	0.43740 0.53790 0.16150 0.00500
H 	H 	0.39560 0.56210 0.27710 -0.00300
C 	C 	0.06260 0.96210 0.16150 0.00500
H 	H 	0.10440 0.93790 0.27710 -0.00300
C 	C 	0.46210 0.56260 0.83850 0.00400
H 	H 	0.43790 0.60440 0.72290 -0.00400
C 	C 	0.03790 0.93740 0.83850 0.00400
H 	H 	0.06210 0.89560 0.72290 -0.00400
C 	C 	0.56260 0.03790 0.83850 0.00400
H 	H 	0.60440 0.06210 0.72290 -0.00400
C 	C 	0.93740 0.46210 0.83850 0.00400
H 	H 	0.89560 0.43790 0.72290 -0.00400
C 	C 	0.46210 0.93740 0.83850 0.00400
H 	H 	0.43790 0.89560 0.72290 -0.00400
C 	C 	0.03790 0.56260 0.83850 0.00400
H 	H 	0.06210 0.60440 0.72290 -0.00400
C 	C 	0.56260 0.46210 0.83850 0.00400
H 	H 	0.60440 0.43790 0.72290 -0.00400
C 	C 	0.93740 0.03790 0.83850 0.00400
H 	H 	0.89560 0.06210 0.72290 -0.00400
C 	C 	0.53790 0.43740 0.16150 0.00400
H 	H 	0.56210 0.39560 0.27710 -0.00400
C 	C 	0.96210 0.06260 0.16150 0.00400
H 	H 	0.93790 0.10440 0.27710 -0.00400
C 	C 	0.43740 0.96210 0.16150 0.00400
H 	H 	0.39560 0.93790 0.27710 -0.00400
C 	C 	0.06260 0.53790 0.16150 0.00400
H 	H 	0.10440 0.56210 0.27710 -0.00400
Cu	Cu	0.75000 0.25000 -0.00000 0.84400
Cu	Cu	0.25000 0.75000 -0.00000 0.84400
N 	N 	0.60100 0.10100 -0.00000 -0.21200
N 	N 	0.89900 0.39900 -0.00000 -0.21200
N 	N 	0.39900 0.60100 -0.00000 -0.21200
N 	N 	0.10100 0.89900 -0.00000 -0.21200
N 	N 	0.39900 0.89900 -0.00000 -0.21200
N 	N 	0.10100 0.60100 -0.00000 -0.21200
N 	N 	0.60100 0.39900 -0.00000 -0.21200
N 	N 	0.89900 0.10100 -0.00000 -0.21200
