data_crystal

_cell_length_a 6.87590
_cell_length_b 6.87590
_cell_length_c 6.97000
_cell_angle_alpha 90.00000
_cell_angle_beta  90.00000
_cell_angle_gamma 90.00000

_symmetry_space_group_name_	'P 1'
_symmetry_space_group_name_H-M	'P 1'

loop_
_symmetry_equiv_pos_as_xyz
  x,y,z

loop_
_atom_site_label
_atom_site_type_symbol
_atom_site_fract_x
_atom_site_fract_y
_atom_site_fract_z
_atom_site_charge
Cu	Cu	0.50000 0.50000 0.50000 0.84500
N 	N 	0.79800 0.50000 0.50000 -0.21100
N 	N 	0.20200 0.50000 0.50000 -0.21100
N 	N 	0.50000 0.79800 0.50000 -0.21100
N 	N 	0.50000 0.20200 0.50000 -0.21200
C 	C 	0.89910 0.50000 0.33870 0.00500
H 	H 	0.83320 0.50000 0.22220 -0.00500
C 	C 	0.10090 0.50000 0.33870 0.00500
H 	H 	0.16680 0.50000 0.22220 -0.00500
C 	C 	0.50000 0.89910 0.33870 0.00500
H 	H 	0.50000 0.83320 0.22220 -0.00500
C 	C 	0.50000 0.10090 0.33870 0.00500
H 	H 	0.50000 0.16680 0.22220 -0.00500
C 	C 	0.10090 0.50000 0.66130 0.00500
H 	H 	0.16680 0.50000 0.77780 -0.00500
C 	C 	0.89910 0.50000 0.66130 0.00500
H 	H 	0.83320 0.50000 0.77780 -0.00500
C 	C 	0.50000 0.89910 0.66130 0.00500
H 	H 	0.50000 0.83320 0.77780 -0.00500
C 	C 	0.50000 0.10090 0.66130 0.00500
H 	H 	0.50000 0.16680 0.77780 -0.00500
