data_crystal

_cell_length_a 13.95080
_cell_length_b 13.95080
_cell_length_c 22.40200
_cell_angle_alpha 90.00000
_cell_angle_beta  90.00000
_cell_angle_gamma 120.00000

_symmetry_space_group_name_	'P 1'
_symmetry_space_group_name_H-M	'P 1'

loop_
_symmetry_equiv_pos_as_xyz
  x,y,z

loop_
_atom_site_label
_atom_site_type_symbol
_atom_site_fract_x
_atom_site_fract_y
_atom_site_fract_z
_atom_site_charge
O 	O 	0.43240 0.55510 0.09120 -0.55500
O 	O 	0.24910 0.44050 0.10910 -0.59900
C 	C 	0.33730 0.46860 0.08280 0.41800
C 	C 	0.32930 0.38860 0.03590 -0.02000
C 	C 	0.25030 0.28960 0.02340 -0.00900
H 	H 	0.18130 0.25170 0.04170 0.02800
O 	O 	0.09907 0.88843 0.42453 -0.54000
O 	O 	0.91577 0.77383 0.44243 -0.57200
C 	C 	0.00397 0.80193 0.41613 0.36700
C 	C 	0.99597 0.72193 0.36923 0.04400
C 	C 	0.91697 0.62293 0.35673 -0.08200
H 	H 	0.84797 0.58503 0.37503 0.05900
O 	O 	0.76573 0.22177 0.75787 -0.55800
O 	O 	0.58243 0.10717 0.77577 -0.60400
C 	C 	0.67063 0.13527 0.74947 0.42400
C 	C 	0.66263 0.05527 0.70257 -0.04200
C 	C 	0.58363 0.95627 0.69007 0.01600
H 	H 	0.51463 0.91837 0.70837 0.02700
O 	O 	0.44490 0.87730 0.09120 -0.55200
O 	O 	0.55950 0.80860 0.10910 -0.59400
C 	C 	0.53140 0.86870 0.08280 0.41700
C 	C 	0.61140 0.94070 0.03590 -0.01000
C 	C 	0.71040 0.96070 0.02340 0.01400
H 	H 	0.74830 0.92960 0.04170 0.03200
O 	O 	0.11157 0.21063 0.42453 -0.56500
O 	O 	0.22617 0.14193 0.44243 -0.60200
C 	C 	0.19807 0.20203 0.41613 0.41300
C 	C 	0.27807 0.27403 0.36923 -0.01200
C 	C 	0.37707 0.29403 0.35673 -0.03400
H 	H 	0.41497 0.26293 0.37503 0.03800
O 	O 	0.77823 0.54397 0.75787 -0.55300
O 	O 	0.89283 0.47527 0.77577 -0.58900
C 	C 	0.86473 0.53537 0.74947 0.40100
C 	C 	0.94473 0.60737 0.70257 0.02800
C 	C 	0.04373 0.62737 0.69007 -0.09100
H 	H 	0.08163 0.59627 0.70837 0.05500
O 	O 	0.12270 0.56760 0.09120 -0.55900
O 	O 	0.19140 0.75090 0.10910 -0.59400
C 	C 	0.13130 0.66270 0.08280 0.41100
C 	C 	0.05930 0.67070 0.03590 -0.00600
C 	C 	0.03930 0.74970 0.02340 -0.04000
H 	H 	0.07040 0.81870 0.04170 0.04500
O 	O 	0.78937 0.90093 0.42453 -0.55900
O 	O 	0.85807 0.08423 0.44243 -0.60500
C 	C 	0.79797 0.99603 0.41613 0.45100
C 	C 	0.72597 0.00403 0.36923 -0.05000
C 	C 	0.70597 0.08303 0.35673 0.00400
H 	H 	0.73707 0.15203 0.37503 0.02700
O 	O 	0.45603 0.23427 0.75787 -0.56100
O 	O 	0.52473 0.41757 0.77577 -0.59700
C 	C 	0.46463 0.32937 0.74947 0.41200
C 	C 	0.39263 0.33737 0.70257 -0.01000
C 	C 	0.37263 0.41637 0.69007 -0.03700
H 	H 	0.40373 0.48537 0.70837 0.04000
O 	O 	0.55510 0.43240 0.90880 -0.56000
O 	O 	0.44050 0.24910 0.89090 -0.60100
C 	C 	0.46860 0.33730 0.91720 0.41300
C 	C 	0.38860 0.32930 0.96410 -0.01700
C 	C 	0.28960 0.25030 0.97660 -0.05900
H 	H 	0.25170 0.18130 0.95830 0.03900
O 	O 	0.22177 0.76573 0.24213 -0.55800
O 	O 	0.10717 0.58243 0.22423 -0.60400
C 	C 	0.13527 0.67063 0.25053 0.42500
C 	C 	0.05527 0.66263 0.29743 -0.04600
C 	C 	0.95627 0.58363 0.30993 0.02300
H 	H 	0.91837 0.51463 0.29163 0.02600
O 	O 	0.88843 0.09907 0.57547 -0.54000
O 	O 	0.77383 0.91577 0.55757 -0.57500
C 	C 	0.80193 0.00397 0.58387 0.37300
C 	C 	0.72193 0.99597 0.63077 0.03700
C 	C 	0.62293 0.91697 0.64327 -0.07600
H 	H 	0.58503 0.84797 0.62497 0.05600
O 	O 	0.87730 0.44490 0.90880 -0.55500
O 	O 	0.80860 0.55950 0.89090 -0.59600
C 	C 	0.86870 0.53140 0.91720 0.41200
C 	C 	0.94070 0.61140 0.96410 -0.00500
C 	C 	0.96070 0.71040 0.97660 -0.03000
H 	H 	0.92960 0.74830 0.95830 0.04100
O 	O 	0.54397 0.77823 0.24213 -0.55300
O 	O 	0.47527 0.89283 0.22423 -0.58900
C 	C 	0.53537 0.86473 0.25053 0.40300
C 	C 	0.60737 0.94473 0.29743 0.02300
C 	C 	0.62737 0.04373 0.30993 -0.08300
H 	H 	0.59627 0.08163 0.29163 0.05400
O 	O 	0.21063 0.11157 0.57547 -0.56400
O 	O 	0.14193 0.22617 0.55757 -0.60200
C 	C 	0.20203 0.19807 0.58387 0.41300
C 	C 	0.27403 0.27807 0.63077 -0.01200
C 	C 	0.29403 0.37707 0.64327 -0.03500
H 	H 	0.26293 0.41497 0.62497 0.03800
O 	O 	0.56760 0.12270 0.90880 -0.56300
O 	O 	0.75090 0.19140 0.89090 -0.59500
C 	C 	0.66270 0.13130 0.91720 0.40800
C 	C 	0.67070 0.05930 0.96410 -0.00500
C 	C 	0.74970 0.03930 0.97660 -0.08400
H 	H 	0.81870 0.07040 0.95830 0.05500
O 	O 	0.23427 0.45603 0.24213 -0.56000
O 	O 	0.41757 0.52473 0.22423 -0.59600
C 	C 	0.32937 0.46463 0.25053 0.41200
C 	C 	0.33737 0.39263 0.29743 -0.00900
C 	C 	0.41637 0.37263 0.30993 -0.03700
H 	H 	0.48537 0.40373 0.29163 0.04100
O 	O 	0.90093 0.78937 0.57547 -0.56100
O 	O 	0.08423 0.85807 0.55757 -0.60900
C 	C 	0.99603 0.79797 0.58387 0.45700
C 	C 	0.00403 0.72597 0.63077 -0.05800
C 	C 	0.08303 0.70597 0.64327 0.01000
H 	H 	0.15203 0.73707 0.62497 0.02400
In	In	0.47962 0.66667 0.16667 1.98300
In	In	0.14629 -0.00000 0.50000 1.97800
In	In	0.33333 0.81296 0.16667 1.98300
In	In	-0.00000 0.14629 0.50000 1.97700
In	In	0.18704 0.52038 0.16667 1.98200
In	In	0.85371 0.85371 0.50000 1.98600
In	In	0.66667 0.47962 0.83333 1.98200
In	In	0.81296 0.33333 0.83333 1.98300
In	In	0.52038 0.18704 0.83333 1.98100
O 	O 	0.42150 0.42150 -0.00000 -0.13600
O 	O 	0.08817 0.75483 0.33333 -0.15800
O 	O 	0.75483 0.08817 0.66667 -0.15600
O 	O 	0.57850 0.00000 -0.00000 -0.15100
O 	O 	0.24517 0.33333 0.33333 -0.15200
O 	O 	0.91183 0.66667 0.66667 -0.13800
O 	O 	-0.00000 0.57850 -0.00000 -0.15400
O 	O 	0.66667 0.91183 0.33333 -0.13900
O 	O 	0.33333 0.24517 0.66667 -0.15200
O 	O 	0.33333 0.66667 0.16667 -1.03100
O 	O 	-0.00000 -0.00000 0.50000 -1.05300
O 	O 	0.66667 0.33333 0.83333 -1.03100
