data_crystal

_cell_length_a 10.74350
_cell_length_b 21.48190
_cell_length_c 10.77210
_cell_angle_alpha 90.00000
_cell_angle_beta  105.11300
_cell_angle_gamma 90.00000

_symmetry_space_group_name_	'P 1'
_symmetry_space_group_name_H-M	'P 1'

loop_
_symmetry_equiv_pos_as_xyz
  x,y,z

loop_
_atom_site_label
_atom_site_type_symbol
_atom_site_fract_x
_atom_site_fract_y
_atom_site_fract_z
_atom_site_charge
In	In	0.32147 0.05807 0.18607 1.94100
O 	O 	0.43910 0.99006 0.30130 -0.61400
O 	O 	0.20060 0.98990 0.07640 -0.64500
O 	O 	0.20900 0.06516 0.32430 -0.63700
O 	O 	0.31690 0.03503 0.52200 -0.58200
O 	O 	0.03800 0.03902 0.82730 -0.55100
O 	O 	0.85520 0.09424 0.75790 -0.28500
O 	O 	0.99740 0.09392 0.07280 -0.52000
O 	O 	0.19660 0.13321 0.09600 -0.59000
O 	O 	0.44260 0.13327 0.28690 -0.58400
O 	O 	0.56320 0.09353 0.47260 -0.58200
O 	O 	0.10380 0.06302 0.60820 -0.19400
C 	C 	0.21780 0.05550 0.44110 0.46200
C 	C 	0.10110 0.06970 0.48140 -0.15800
C 	C 	0.98300 0.08690 0.41360 0.16300
H 	H 	0.95630 0.09320 0.32520 -0.01100
C 	C 	0.90700 0.09370 0.50150 -0.18100
H 	H 	0.82150 0.10650 0.48350 0.09400
C 	C 	0.98300 0.07790 0.61530 0.11600
C 	C 	0.95550 0.07090 0.74440 0.34800
C 	C 	0.07680 0.13720 0.07560 0.36800
C 	C 	0.01810 0.19910 0.04970 -0.19300
C 	C 	0.90080 0.21760 0.96790 0.24900
H 	H 	0.83540 0.19170 0.92220 -0.00000
C 	C 	0.52210 0.13750 0.39520 0.41900
C 	C 	0.57450 0.19940 0.44110 -0.01000
C 	C 	0.66300 0.21750 0.54750 -0.02400
H 	H 	0.71450 0.19170 0.60940 0.06800
C 	C 	0.89580 0.21730 0.06600 -0.12800
H 	H 	0.82950 0.19120 0.07440 0.05400
In	In	0.67853 0.55807 0.81393 1.98400
O 	O 	0.56090 0.49006 0.69870 -0.68400
O 	O 	0.79940 0.48990 0.92360 -0.62600
O 	O 	0.79100 0.56516 0.67570 -0.54600
O 	O 	0.68310 0.53503 0.47800 -0.52300
O 	O 	0.96200 0.53902 0.17270 -0.44300
O 	O 	0.14480 0.59424 0.24210 -0.29700
O 	O 	0.00260 0.59392 0.92720 -0.53800
O 	O 	0.80340 0.63321 0.90400 -0.51700
O 	O 	0.55740 0.63327 0.71310 -0.53600
O 	O 	0.43680 0.59353 0.52740 -0.54600
O 	O 	0.89620 0.56302 0.39180 -0.12900
C 	C 	0.78220 0.55550 0.55890 0.39000
C 	C 	0.89890 0.56970 0.51860 0.09500
C 	C 	0.01700 0.58690 0.58640 -0.15800
H 	H 	0.04370 0.59320 0.67480 0.09400
C 	C 	0.09300 0.59370 0.49850 0.02000
H 	H 	0.17850 0.60650 0.51650 0.03900
C 	C 	0.01700 0.57790 0.38470 -0.03600
C 	C 	0.04450 0.57090 0.25560 0.24300
C 	C 	0.92320 0.63720 0.92440 0.42700
C 	C 	0.98190 0.69910 0.95030 0.17400
C 	C 	0.09920 0.71760 0.03210 -0.31900
H 	H 	0.16460 0.69170 0.07780 0.11100
C 	C 	0.47790 0.63750 0.60480 0.41500
C 	C 	0.42550 0.69940 0.55890 -0.00400
C 	C 	0.33700 0.71750 0.45250 -0.03200
H 	H 	0.28550 0.69170 0.39060 0.05800
C 	C 	0.10420 0.71730 0.93400 0.13000
H 	H 	0.17050 0.69120 0.92560 0.02200
In	In	0.67853 0.94193 0.81393 2.01400
O 	O 	0.56090 0.00994 0.69870 -0.76200
O 	O 	0.79940 0.01010 0.92360 -0.70300
O 	O 	0.79100 0.93484 0.67570 -0.50100
O 	O 	0.68310 0.96497 0.47800 -0.46000
O 	O 	0.96200 0.96098 0.17270 -0.37600
O 	O 	0.14480 0.90576 0.24210 -0.27900
O 	O 	0.00260 0.90608 0.92720 -0.49600
O 	O 	0.80340 0.86679 0.90400 -0.49600
O 	O 	0.55740 0.86673 0.71310 -0.51200
O 	O 	0.43680 0.90647 0.52740 -0.49800
O 	O 	0.89620 0.93698 0.39180 -0.10800
C 	C 	0.78220 0.94450 0.55890 0.39700
C 	C 	0.89890 0.93030 0.51860 0.11600
C 	C 	0.01700 0.91310 0.58640 -0.13900
H 	H 	0.04370 0.90680 0.67480 0.11000
C 	C 	0.09300 0.90630 0.49850 0.03200
H 	H 	0.17850 0.89350 0.51650 0.05200
C 	C 	0.01700 0.92210 0.38470 -0.01100
C 	C 	0.04450 0.92910 0.25560 0.24900
C 	C 	0.92320 0.86280 0.92440 0.41400
C 	C 	0.98190 0.80090 0.95030 0.17900
C 	C 	0.09920 0.78240 0.03210 -0.33900
H 	H 	0.16460 0.80830 0.07780 0.12100
C 	C 	0.47790 0.86250 0.60480 0.40700
C 	C 	0.42550 0.80060 0.55890 0.00300
C 	C 	0.33700 0.78250 0.45250 -0.03800
H 	H 	0.28550 0.80830 0.39060 0.06200
C 	C 	0.10420 0.78270 0.93400 0.14500
H 	H 	0.17050 0.80880 0.92560 0.02100
In	In	0.32147 0.44193 0.18607 1.97300
O 	O 	0.43910 0.50994 0.30130 -0.71200
O 	O 	0.20060 0.51010 0.07640 -0.74700
O 	O 	0.20900 0.43484 0.32430 -0.59300
O 	O 	0.31690 0.46497 0.52200 -0.53100
O 	O 	0.03800 0.46098 0.82730 -0.49500
O 	O 	0.85520 0.40576 0.75790 -0.27200
O 	O 	0.99740 0.40608 0.07280 -0.49000
O 	O 	0.19660 0.36679 0.09600 -0.56800
O 	O 	0.44260 0.36673 0.28690 -0.56100
O 	O 	0.56320 0.40647 0.47260 -0.54700
O 	O 	0.10380 0.43698 0.60820 -0.17100
C 	C 	0.21780 0.44450 0.44110 0.47000
C 	C 	0.10110 0.43030 0.48140 -0.13100
C 	C 	0.98300 0.41310 0.41360 0.17200
H 	H 	0.95630 0.40680 0.32520 0.00700
C 	C 	0.90700 0.40630 0.50150 -0.16300
H 	H 	0.82150 0.39350 0.48350 0.10400
C 	C 	0.98300 0.42210 0.61530 0.13500
C 	C 	0.95550 0.42910 0.74440 0.35100
C 	C 	0.07680 0.36280 0.07560 0.36300
C 	C 	0.01810 0.30090 0.04970 -0.18700
C 	C 	0.90080 0.28240 0.96790 0.24800
H 	H 	0.83540 0.30830 0.92220 0.00100
C 	C 	0.52210 0.36250 0.39520 0.41500
C 	C 	0.57450 0.30060 0.44110 -0.00500
C 	C 	0.66300 0.28250 0.54750 -0.02800
H 	H 	0.71450 0.30830 0.60940 0.07100
C 	C 	0.89580 0.28270 0.06600 -0.13500
H 	H 	0.82950 0.30880 0.07440 0.06100
In	In	-0.00000 0.00000 -0.00000 1.91300
In	In	-0.00000 0.50000 -0.00000 1.95400
In	In	0.50000 0.00000 0.50000 1.96700
In	In	0.50000 0.50000 0.50000 2.00700
O 	O 	0.09540 0.25000 0.08010 -0.08800
O 	O 	0.51750 0.25000 0.37130 -0.14200
O 	O 	0.90460 0.75000 0.91990 -0.17900
O 	O 	0.48250 0.75000 0.62870 -0.13200
