data_crystal

_cell_length_a 26.32300
_cell_length_b 14.69600
_cell_length_c 26.63000
_cell_angle_alpha 90.00000
_cell_angle_beta  157.74700
_cell_angle_gamma 90.00000

_symmetry_space_group_name_	'P 1'
_symmetry_space_group_name_H-M	'P 1'

loop_
_symmetry_equiv_pos_as_xyz
  x,y,z

loop_
_atom_site_label
_atom_site_type_symbol
_atom_site_fract_x
_atom_site_fract_y
_atom_site_fract_z
_atom_site_charge
Co	Co	0.40553 0.45311 0.47665 1.15500
O 	O 	0.28130 0.40310 0.31180 -0.41600
O 	O 	0.13730 0.45170 0.23780 -0.31300
O 	O 	0.58380 0.42190 0.61220 -0.44800
O 	O 	0.64910 0.46180 0.74840 -0.31200
N 	N 	0.37290 0.37140 0.50720 -0.25300
N 	N 	0.06950 0.22650 0.96210 -0.10300
N 	N 	0.10960 0.08050 0.01150 -0.25100
C 	C 	0.16220 0.41820 0.21900 0.29300
C 	C 	0.04990 0.39560 0.08040 -0.03200
C 	C 	0.91850 0.41700 0.97330 -0.02600
H 	H 	0.90040 0.44130 0.98830 0.06400
C 	C 	0.81440 0.40230 0.84450 -0.03900
C 	C 	0.67330 0.43180 0.72830 0.30500
C 	C 	0.84310 0.36660 0.82420 -0.08000
H 	H 	0.77320 0.35650 0.73780 0.06900
C 	C 	0.97290 0.34520 0.92830 0.07500
C 	C 	0.07530 0.36120 0.05690 -0.07900
H 	H 	0.16340 0.34790 0.12850 0.08100
C 	C 	0.00410 0.31560 0.90440 -0.12600
H 	H 	0.92150 0.31320 0.80960 0.07500
H 	H 	0.06220 0.36040 0.94190 0.08300
C 	C 	0.17580 0.20360 0.02930 -0.01800
H 	H 	0.22210 0.24170 0.04990 0.04000
C 	C 	0.19950 0.11480 0.05960 0.01200
H 	H 	0.26760 0.08120 0.10670 0.02300
C 	C 	0.03280 0.15180 0.95290 0.09800
H 	H 	0.96190 0.14940 0.91080 -0.00100
C 	C 	0.31600 0.29000 0.45040 0.09600
H 	H 	0.30890 0.26490 0.41190 -0.00700
C 	C 	0.26700 0.24110 0.44580 -0.14200
H 	H 	0.22730 0.18470 0.40400 0.08800
C 	C 	0.27660 0.27520 0.50260 0.06800
C 	C 	0.33950 0.35720 0.56490 -0.14400
H 	H 	0.35110 0.38250 0.60720 0.08300
C 	C 	0.38580 0.40270 0.56580 0.09100
H 	H 	0.42850 0.45840 0.60950 -0.00900
Co	Co	0.09447 0.95311 0.02335 1.15200
O 	O 	0.21870 0.90310 0.18820 -0.41700
O 	O 	0.36270 0.95170 0.26220 -0.31500
O 	O 	0.91620 0.92190 0.88780 -0.44800
O 	O 	0.85090 0.96180 0.75160 -0.31300
N 	N 	0.12710 0.87140 0.99280 -0.24900
N 	N 	0.43050 0.72650 0.53790 -0.10100
N 	N 	0.39040 0.58050 0.48850 -0.24900
C 	C 	0.33780 0.91820 0.28100 0.29200
C 	C 	0.45010 0.89560 0.41960 -0.02800
C 	C 	0.58150 0.91700 0.52670 -0.02800
H 	H 	0.59960 0.94130 0.51170 0.06500
C 	C 	0.68560 0.90230 0.65550 -0.03600
C 	C 	0.82670 0.93180 0.77170 0.30400
C 	C 	0.65690 0.86660 0.67580 -0.08600
H 	H 	0.72680 0.85650 0.76220 0.07100
C 	C 	0.52710 0.84520 0.57170 0.08600
C 	C 	0.42470 0.86120 0.44310 -0.08500
H 	H 	0.33660 0.84790 0.37150 0.08300
C 	C 	0.49590 0.81560 0.59560 -0.14300
H 	H 	0.57850 0.81320 0.69040 0.08100
H 	H 	0.43780 0.86040 0.55810 0.08500
C 	C 	0.32420 0.70360 0.47070 -0.01700
H 	H 	0.27790 0.74170 0.45010 0.04000
C 	C 	0.30050 0.61480 0.44040 0.01200
H 	H 	0.23240 0.58120 0.39330 0.02300
C 	C 	0.46720 0.65180 0.54710 0.09000
H 	H 	0.53810 0.64940 0.58920 0.00400
C 	C 	0.18400 0.79000 0.04960 0.09700
H 	H 	0.19110 0.76490 0.08810 -0.00800
C 	C 	0.23300 0.74110 0.05420 -0.16000
H 	H 	0.27270 0.68470 0.09600 0.09500
C 	C 	0.22340 0.77520 0.99740 0.09500
C 	C 	0.16050 0.85720 0.93510 -0.15800
H 	H 	0.14890 0.88250 0.89280 0.09100
C 	C 	0.11420 0.90270 0.93420 0.10100
H 	H 	0.07150 0.95840 0.89050 -0.00900
Co	Co	0.09447 0.04689 0.52335 1.15300
O 	O 	0.21870 0.09690 0.68820 -0.41800
O 	O 	0.36270 0.04830 0.76220 -0.31600
O 	O 	0.91620 0.07810 0.38780 -0.44700
O 	O 	0.85090 0.03820 0.25160 -0.30900
N 	N 	0.12710 0.12860 0.49280 -0.25400
N 	N 	0.43050 0.27350 0.03790 -0.10100
N 	N 	0.39040 0.41950 0.98850 -0.24900
C 	C 	0.33780 0.08180 0.78100 0.29300
C 	C 	0.45010 0.10440 0.91960 -0.03400
C 	C 	0.58150 0.08300 0.02670 -0.02100
H 	H 	0.59960 0.05870 0.01170 0.06500
C 	C 	0.68560 0.09770 0.15550 -0.03600
C 	C 	0.82670 0.06820 0.27170 0.30500
C 	C 	0.65690 0.13340 0.17580 -0.08600
H 	H 	0.72680 0.14350 0.26220 0.07200
C 	C 	0.52710 0.15480 0.07170 0.08900
C 	C 	0.42470 0.13880 0.94310 -0.08800
H 	H 	0.33660 0.15210 0.87150 0.08300
C 	C 	0.49590 0.18440 0.09560 -0.14400
H 	H 	0.57850 0.18680 0.19040 0.08200
H 	H 	0.43780 0.13960 0.05810 0.08600
C 	C 	0.32420 0.29640 0.97070 -0.01800
H 	H 	0.27790 0.25830 0.95010 0.04000
C 	C 	0.30050 0.38520 0.94040 0.01200
H 	H 	0.23240 0.41880 0.89330 0.02400
C 	C 	0.46720 0.34820 0.04710 0.09000
H 	H 	0.53810 0.35060 0.08920 0.00400
C 	C 	0.18400 0.21000 0.54960 0.09500
H 	H 	0.19110 0.23510 0.58810 -0.00700
C 	C 	0.23300 0.25890 0.55420 -0.14200
H 	H 	0.27270 0.31530 0.59600 0.08800
C 	C 	0.22340 0.22480 0.49740 0.06800
C 	C 	0.16050 0.14280 0.43510 -0.14500
H 	H 	0.14890 0.11750 0.39280 0.08300
C 	C 	0.11420 0.09730 0.43420 0.09000
H 	H 	0.07150 0.04160 0.39050 -0.01000
Co	Co	0.40553 0.54689 0.97665 1.15500
O 	O 	0.28130 0.59690 0.81180 -0.41600
O 	O 	0.13730 0.54830 0.73780 -0.31200
O 	O 	0.58380 0.57810 0.11220 -0.44900
O 	O 	0.64910 0.53820 0.24840 -0.31200
N 	N 	0.37290 0.62860 0.00720 -0.25200
N 	N 	0.06950 0.77350 0.46210 -0.10200
N 	N 	0.10960 0.91950 0.51150 -0.24900
C 	C 	0.16220 0.58180 0.71900 0.29100
C 	C 	0.04990 0.60440 0.58040 -0.02600
C 	C 	0.91850 0.58300 0.47330 -0.03100
H 	H 	0.90040 0.55870 0.48830 0.06500
C 	C 	0.81440 0.59770 0.34450 -0.03500
C 	C 	0.67330 0.56820 0.22830 0.30400
C 	C 	0.84310 0.63340 0.32420 -0.08700
H 	H 	0.77320 0.64350 0.23780 0.07100
C 	C 	0.97290 0.65480 0.42830 0.08500
C 	C 	0.07530 0.63880 0.55690 -0.08600
H 	H 	0.16340 0.65210 0.62850 0.08300
C 	C 	0.00410 0.68440 0.40440 -0.14300
H 	H 	0.92150 0.68680 0.30960 0.08200
H 	H 	0.06220 0.63960 0.44190 0.08500
C 	C 	0.17580 0.79640 0.52930 -0.01700
H 	H 	0.22210 0.75830 0.54990 0.04000
C 	C 	0.19950 0.88520 0.55960 0.01200
H 	H 	0.26760 0.91880 0.60670 0.02400
C 	C 	0.03280 0.84820 0.45290 0.09200
H 	H 	0.96190 0.85060 0.41080 0.00100
C 	C 	0.31600 0.71000 0.95040 0.09000
H 	H 	0.30890 0.73510 0.91190 -0.00400
C 	C 	0.26700 0.75890 0.94580 -0.12200
H 	H 	0.22730 0.81530 0.90400 0.08300
C 	C 	0.27660 0.72480 0.00260 0.04300
C 	C 	0.33950 0.64280 0.06490 -0.12900
H 	H 	0.35110 0.61750 0.10720 0.07800
C 	C 	0.38580 0.59730 0.06580 0.08200
H 	H 	0.42850 0.54160 0.10950 -0.00600
Co	Co	0.90553 0.95311 0.47665 1.15300
O 	O 	0.78130 0.90310 0.31180 -0.41800
O 	O 	0.63730 0.95170 0.23780 -0.31600
O 	O 	0.08380 0.92190 0.61220 -0.44700
O 	O 	0.14910 0.96180 0.74840 -0.30900
N 	N 	0.87290 0.87140 0.50720 -0.25400
N 	N 	0.56950 0.72650 0.96210 -0.10100
N 	N 	0.60960 0.58050 0.01150 -0.24900
C 	C 	0.66220 0.91820 0.21900 0.29300
C 	C 	0.54990 0.89560 0.08040 -0.03400
C 	C 	0.41850 0.91700 0.97330 -0.02100
H 	H 	0.40040 0.94130 0.98830 0.06500
C 	C 	0.31440 0.90230 0.84450 -0.03600
C 	C 	0.17330 0.93180 0.72830 0.30500
C 	C 	0.34310 0.86660 0.82420 -0.08600
H 	H 	0.27320 0.85650 0.73780 0.07200
C 	C 	0.47290 0.84520 0.92830 0.08900
C 	C 	0.57530 0.86120 0.05690 -0.08800
H 	H 	0.66340 0.84790 0.12850 0.08300
C 	C 	0.50410 0.81560 0.90440 -0.14400
H 	H 	0.42150 0.81320 0.80960 0.08200
H 	H 	0.56220 0.86040 0.94190 0.08600
C 	C 	0.67580 0.70360 0.02930 -0.01800
H 	H 	0.72210 0.74170 0.04990 0.04000
C 	C 	0.69950 0.61480 0.05960 0.01200
H 	H 	0.76760 0.58120 0.10670 0.02400
C 	C 	0.53280 0.65180 0.95290 0.09000
H 	H 	0.46190 0.64940 0.91080 0.00400
C 	C 	0.81600 0.79000 0.45040 0.09500
H 	H 	0.80890 0.76490 0.41190 -0.00700
C 	C 	0.76700 0.74110 0.44580 -0.14200
H 	H 	0.72730 0.68470 0.40400 0.08800
C 	C 	0.77660 0.77520 0.50260 0.06800
C 	C 	0.83950 0.85720 0.56490 -0.14500
H 	H 	0.85110 0.88250 0.60720 0.08300
C 	C 	0.88580 0.90270 0.56580 0.09000
H 	H 	0.92850 0.95840 0.60950 -0.01000
Co	Co	0.59447 0.45311 0.02335 1.15500
O 	O 	0.71870 0.40310 0.18820 -0.41600
O 	O 	0.86270 0.45170 0.26220 -0.31200
O 	O 	0.41620 0.42190 0.88780 -0.44900
O 	O 	0.35090 0.46180 0.75160 -0.31200
N 	N 	0.62710 0.37140 0.99280 -0.25200
N 	N 	0.93050 0.22650 0.53790 -0.10200
N 	N 	0.89040 0.08050 0.48850 -0.24900
C 	C 	0.83780 0.41820 0.28100 0.29100
C 	C 	0.95010 0.39560 0.41960 -0.02600
C 	C 	0.08150 0.41700 0.52670 -0.03100
H 	H 	0.09960 0.44130 0.51170 0.06500
C 	C 	0.18560 0.40230 0.65550 -0.03500
C 	C 	0.32670 0.43180 0.77170 0.30400
C 	C 	0.15690 0.36660 0.67580 -0.08700
H 	H 	0.22680 0.35650 0.76220 0.07100
C 	C 	0.02710 0.34520 0.57170 0.08500
C 	C 	0.92470 0.36120 0.44310 -0.08600
H 	H 	0.83660 0.34790 0.37150 0.08300
C 	C 	0.99590 0.31560 0.59560 -0.14300
H 	H 	0.07850 0.31320 0.69040 0.08200
H 	H 	0.93780 0.36040 0.55810 0.08500
C 	C 	0.82420 0.20360 0.47070 -0.01700
H 	H 	0.77790 0.24170 0.45010 0.04000
C 	C 	0.80050 0.11480 0.44040 0.01200
H 	H 	0.73240 0.08120 0.39330 0.02400
C 	C 	0.96720 0.15180 0.54710 0.09200
H 	H 	0.03810 0.14940 0.58920 0.00100
C 	C 	0.68400 0.29000 0.04960 0.09000
H 	H 	0.69110 0.26490 0.08810 -0.00400
C 	C 	0.73300 0.24110 0.05420 -0.12200
H 	H 	0.77270 0.18470 0.09600 0.08300
C 	C 	0.72340 0.27520 0.99740 0.04300
C 	C 	0.66050 0.35720 0.93510 -0.12900
H 	H 	0.64890 0.38250 0.89280 0.07800
C 	C 	0.61420 0.40270 0.93420 0.08200
H 	H 	0.57150 0.45840 0.89050 -0.00600
Co	Co	0.59447 0.54689 0.52335 1.15400
O 	O 	0.71870 0.59690 0.68820 -0.41700
O 	O 	0.86270 0.54830 0.76220 -0.31400
O 	O 	0.41620 0.57810 0.38780 -0.44900
O 	O 	0.35090 0.53820 0.25160 -0.31200
N 	N 	0.62710 0.62860 0.49280 -0.25300
N 	N 	0.93050 0.77350 0.03790 -0.10300
N 	N 	0.89040 0.91950 0.98850 -0.25100
C 	C 	0.83780 0.58180 0.78100 0.29300
C 	C 	0.95010 0.60440 0.91960 -0.03200
C 	C 	0.08150 0.58300 0.02670 -0.02600
H 	H 	0.09960 0.55870 0.01170 0.06400
C 	C 	0.18560 0.59770 0.15550 -0.03900
C 	C 	0.32670 0.56820 0.27170 0.30500
C 	C 	0.15690 0.63340 0.17580 -0.08000
H 	H 	0.22680 0.64350 0.26220 0.06900
C 	C 	0.02710 0.65480 0.07170 0.07500
C 	C 	0.92470 0.63880 0.94310 -0.07900
H 	H 	0.83660 0.65210 0.87150 0.08100
C 	C 	0.99590 0.68440 0.09560 -0.12600
H 	H 	0.07850 0.68680 0.19040 0.07500
H 	H 	0.93780 0.63960 0.05810 0.08300
C 	C 	0.82420 0.79640 0.97070 -0.01800
H 	H 	0.77790 0.75830 0.95010 0.04000
C 	C 	0.80050 0.88520 0.94040 0.01200
H 	H 	0.73240 0.91880 0.89330 0.02300
C 	C 	0.96720 0.84820 0.04710 0.09800
H 	H 	0.03810 0.85060 0.08920 -0.00100
C 	C 	0.68400 0.71000 0.54960 0.09600
H 	H 	0.69110 0.73510 0.58810 -0.00700
C 	C 	0.73300 0.75890 0.55420 -0.14200
H 	H 	0.77270 0.81530 0.59600 0.08800
C 	C 	0.72340 0.72480 0.49740 0.06800
C 	C 	0.66050 0.64280 0.43510 -0.14400
H 	H 	0.64890 0.61750 0.39280 0.08300
C 	C 	0.61420 0.59730 0.43420 0.09100
H 	H 	0.57150 0.54160 0.39050 -0.00900
Co	Co	0.90553 0.04689 0.97665 1.15200
O 	O 	0.78130 0.09690 0.81180 -0.41700
O 	O 	0.63730 0.04830 0.73780 -0.31500
O 	O 	0.08380 0.07810 0.11220 -0.44800
O 	O 	0.14910 0.03820 0.24840 -0.31300
N 	N 	0.87290 0.12860 0.00720 -0.24900
N 	N 	0.56950 0.27350 0.46210 -0.10100
N 	N 	0.60960 0.41950 0.51150 -0.24900
C 	C 	0.66220 0.08180 0.71900 0.29200
C 	C 	0.54990 0.10440 0.58040 -0.02800
C 	C 	0.41850 0.08300 0.47330 -0.02800
H 	H 	0.40040 0.05870 0.48830 0.06500
C 	C 	0.31440 0.09770 0.34450 -0.03600
C 	C 	0.17330 0.06820 0.22830 0.30400
C 	C 	0.34310 0.13340 0.32420 -0.08600
H 	H 	0.27320 0.14350 0.23780 0.07100
C 	C 	0.47290 0.15480 0.42830 0.08600
C 	C 	0.57530 0.13880 0.55690 -0.08500
H 	H 	0.66340 0.15210 0.62850 0.08300
C 	C 	0.50410 0.18440 0.40440 -0.14300
H 	H 	0.42150 0.18680 0.30960 0.08100
H 	H 	0.56220 0.13960 0.44190 0.08500
C 	C 	0.67580 0.29640 0.52930 -0.01700
H 	H 	0.72210 0.25830 0.54990 0.04000
C 	C 	0.69950 0.38520 0.55960 0.01200
H 	H 	0.76760 0.41880 0.60670 0.02300
C 	C 	0.53280 0.34820 0.45290 0.09000
H 	H 	0.46190 0.35060 0.41080 0.00400
C 	C 	0.81600 0.21000 0.95040 0.09700
H 	H 	0.80890 0.23510 0.91190 -0.00800
C 	C 	0.76700 0.25890 0.94580 -0.16000
H 	H 	0.72730 0.31530 0.90400 0.09500
C 	C 	0.77660 0.22480 0.00260 0.09500
C 	C 	0.83950 0.14280 0.06490 -0.15800
H 	H 	0.85110 0.11750 0.10720 0.09100
C 	C 	0.88580 0.09730 0.06580 0.10100
H 	H 	0.92850 0.04160 0.10950 -0.00900
