data_crystal

_cell_length_a 8.89940
_cell_length_b 10.71900
_cell_length_c 13.65600
_cell_angle_alpha 69.08000
_cell_angle_beta  78.07000
_cell_angle_gamma 79.98000

_symmetry_space_group_name_	'P 1'
_symmetry_space_group_name_H-M	'P 1'

loop_
_symmetry_equiv_pos_as_xyz
  x,y,z

loop_
_atom_site_label
_atom_site_type_symbol
_atom_site_fract_x
_atom_site_fract_y
_atom_site_fract_z
_atom_site_charge
Ni	Ni	0.81105 0.90161 0.14884 1.10000
P 	P 	0.71883 0.71816 0.04872 0.39300
P 	P 	0.03281 0.81838 0.96776 0.42800
O 	O 	0.77670 0.59120 0.02360 -0.38600
O 	O 	0.73480 0.72560 0.15400 -0.36300
O 	O 	0.54140 0.75490 0.03790 -0.42700
H 	H 	0.51100 0.71500 0.00600 0.25100
O 	O 	0.09030 0.67600 0.96980 -0.34600
O 	O 	0.03370 0.84100 0.07310 -0.43700
O 	O 	0.11330 0.92120 0.87310 -0.38700
O 	O 	0.76640 0.97190 0.98880 -0.43300
H 	H 	0.81900 0.03400 0.95800 0.26100
C 	C 	0.82430 0.85650 0.95280 0.03800
C 	C 	0.80750 0.89590 0.83660 -0.08200
H 	H 	0.86320 0.97340 0.79660 0.07400
H 	H 	0.85750 0.82270 0.81140 0.07500
N 	N 	0.64960 0.92820 0.81230 -0.09000
C 	C 	0.53310 0.01210 0.84340 0.09100
H 	H 	0.54110 0.05940 0.88710 0.05500
N 	N 	0.40570 0.01910 0.80400 -0.21600
C 	C 	0.44470 0.93550 0.74540 0.03500
H 	H 	0.37850 0.91900 0.70800 0.01800
C 	C 	0.59180 0.88010 0.74890 -0.01400
H 	H 	0.64440 0.82040 0.71480 0.04400
N 	N 	0.98470 0.55600 0.83780 -0.18100
C 	C 	0.84710 0.56460 0.70220 -0.14000
H 	H 	0.76730 0.53590 0.68400 0.08200
C 	C 	0.94230 0.65240 0.62490 0.08900
C 	C 	0.06160 0.68620 0.65720 -0.17800
H 	H 	0.12990 0.74330 0.60780 0.08100
C 	C 	0.08010 0.63580 0.76280 0.04700
H 	H 	0.16290 0.65860 0.78230 0.02100
C 	C 	0.91370 0.70870 0.51280 0.08700
C 	C 	0.86780 0.63270 0.46320 -0.04800
H 	H 	0.85130 0.54360 0.50060 0.05100
C 	C 	0.84640 0.68880 0.35840 0.04500
H 	H 	0.82030 0.63450 0.32590 0.02500
C 	C 	0.89820 0.89370 0.35140 0.06000
H 	H 	0.90490 0.98460 0.31430 0.01200
C 	C 	0.92630 0.84250 0.45500 -0.05700
H 	H 	0.95360 0.89830 0.48570 0.05700
N 	N 	0.86140 0.81750 0.30170 -0.21900
C 	C 	0.87130 0.52010 0.80620 0.09000
H 	H 	0.80530 0.46200 0.85710 0.02800
C 	C 	0.74600 0.78600 0.38390 0.02800
H 	H 	0.64550 0.80780 0.36940 0.01000
C 	C 	0.76700 0.72400 0.48900 -0.10600
H 	H 	0.68410 0.69430 0.54140 0.06200
C 	C 	0.00730 0.78800 0.32400 -0.01100
H 	H 	0.09060 0.80080 0.26880 0.02600
C 	C 	0.03300 0.73800 0.42810 -0.13800
H 	H 	0.13400 0.72330 0.44160 0.06800
Ni	Ni	0.18895 0.09839 0.85116 1.10700
P 	P 	0.28117 0.28184 0.95128 0.46800
P 	P 	0.96719 0.18162 0.03224 0.38600
O 	O 	0.22330 0.40880 0.97640 -0.35500
O 	O 	0.26520 0.27440 0.84600 -0.37000
O 	O 	0.45860 0.24510 0.96210 -0.41400
H 	H 	0.48900 0.28500 0.99400 0.28800
O 	O 	0.90970 0.32400 0.03020 -0.37500
O 	O 	0.96630 0.15900 0.92690 -0.32700
O 	O 	0.88670 0.07880 0.12690 -0.37800
O 	O 	0.23360 0.02810 0.01120 -0.48700
H 	H 	0.18100 0.96600 0.04200 0.25500
C 	C 	0.17570 0.14350 0.04720 -0.07800
C 	C 	0.19250 0.10410 0.16340 -0.03500
H 	H 	0.13680 0.02660 0.20340 0.04300
H 	H 	0.14250 0.17730 0.18860 0.03400
N 	N 	0.35040 0.07180 0.18770 -0.10700
C 	C 	0.46690 0.98790 0.15660 0.08100
H 	H 	0.45890 0.94060 0.11290 0.03800
N 	N 	0.59430 0.98090 0.19600 -0.22400
C 	C 	0.55530 0.06450 0.25460 0.02200
H 	H 	0.62150 0.08100 0.29200 0.01900
C 	C 	0.40820 0.11990 0.25110 -0.02200
H 	H 	0.35560 0.17960 0.28520 0.03900
N 	N 	0.01530 0.44400 0.16220 -0.24400
C 	C 	0.15290 0.43540 0.29780 -0.11000
H 	H 	0.23270 0.46410 0.31600 0.06700
C 	C 	0.05770 0.34760 0.37510 -0.00800
C 	C 	0.93840 0.31380 0.34280 -0.07300
H 	H 	0.87010 0.25670 0.39220 0.06000
C 	C 	0.91990 0.36420 0.23720 0.09800
H 	H 	0.83710 0.34140 0.21770 0.00800
C 	C 	0.08630 0.29130 0.48720 0.05400
C 	C 	0.13220 0.36730 0.53680 -0.03400
H 	H 	0.14870 0.45640 0.49940 0.03400
C 	C 	0.15360 0.31120 0.64160 -0.05500
H 	H 	0.17970 0.36550 0.67410 0.04800
C 	C 	0.10180 0.10630 0.64860 -0.04200
H 	H 	0.09510 0.01540 0.68570 0.02700
C 	C 	0.07370 0.15750 0.54500 -0.07500
H 	H 	0.04640 0.10170 0.51430 0.03700
N 	N 	0.13860 0.18250 0.69830 -0.24400
C 	C 	0.12870 0.47990 0.19380 0.05400
H 	H 	0.19470 0.53800 0.14290 0.00900
C 	C 	0.25400 0.21400 0.61610 0.10600
H 	H 	0.35450 0.19220 0.63060 -0.01700
C 	C 	0.23300 0.27600 0.51100 -0.12700
H 	H 	0.31590 0.30570 0.45860 0.07100
C 	C 	0.99270 0.21200 0.67600 0.12500
H 	H 	0.90940 0.19920 0.73120 -0.00900
C 	C 	0.96700 0.26200 0.57190 -0.06700
H 	H 	0.86600 0.27670 0.55840 0.05700
Ni	Ni	-0.00000 0.50000 -0.00000 1.06900
