data_crystal

_cell_length_a 14.79530
_cell_length_b 27.36340
_cell_length_c 8.34460
_cell_angle_alpha 90.00000
_cell_angle_beta  90.00000
_cell_angle_gamma 90.00000

_symmetry_space_group_name_	'P 1'
_symmetry_space_group_name_H-M	'P 1'

loop_
_symmetry_equiv_pos_as_xyz
  x,y,z

loop_
_atom_site_label
_atom_site_type_symbol
_atom_site_fract_x
_atom_site_fract_y
_atom_site_fract_z
_atom_site_charge
P 	P 	0.09770 0.78324 0.66700 0.93300
P 	P 	0.90590 0.66998 0.66310 0.90200
P 	P 	0.77990 0.86111 0.65630 0.93400
P 	P 	0.10220 0.94771 0.65630 0.94100
Al	Al	0.90670 0.77968 0.78780 2.40200
Al	Al	0.10010 0.67376 0.78380 2.40200
Al	Al	0.90690 0.94522 0.77770 2.40400
Al	Al	0.22920 0.86639 0.78380 2.40600
O 	O 	0.11470 0.73362 0.74000 -0.85000
O 	O 	0.00880 0.80303 0.72930 -0.82900
O 	O 	0.17570 0.81536 0.71840 -0.79400
O 	O 	0.10020 0.78070 0.48910 -0.87700
O 	O 	0.89310 0.72135 0.72180 -0.86800
O 	O 	0.84010 0.63490 0.74320 -0.77100
O 	O 	0.89730 0.66701 0.48540 -0.83800
O 	O 	0.00040 0.65230 0.70780 -0.76900
O 	O 	0.68150 0.86265 0.70240 -0.78000
O 	O 	0.82250 0.81291 0.70010 -0.84000
O 	O 	0.78770 0.87180 0.48240 -0.83800
O 	O 	0.82670 0.90280 0.73980 -0.80200
O 	O 	0.01410 0.92835 0.72260 -0.83700
O 	O 	0.12190 0.99909 0.70770 -0.82400
O 	O 	0.18300 0.91617 0.69290 -0.78200
O 	O 	0.09090 0.95125 0.47990 -0.83500
P 	P 	0.59770 0.28324 0.16700 0.80100
P 	P 	0.40590 0.16998 0.16310 0.77100
P 	P 	0.27990 0.36111 0.15630 0.80200
P 	P 	0.60220 0.44771 0.15630 0.81300
Al	Al	0.40670 0.27968 0.28780 2.40200
Al	Al	0.60010 0.17376 0.28380 2.40200
Al	Al	0.40690 0.44522 0.27770 2.40200
Al	Al	0.72920 0.36639 0.28380 2.40400
O 	O 	0.61470 0.23362 0.24000 -0.87800
O 	O 	0.50880 0.30303 0.22930 -0.85900
O 	O 	0.67570 0.31536 0.21840 -0.82800
O 	O 	0.60020 0.28070 0.98910 -0.73500
O 	O 	0.39310 0.22135 0.22180 -0.89800
O 	O 	0.34010 0.13490 0.24320 -0.80900
O 	O 	0.39730 0.16701 0.98540 -0.69600
O 	O 	0.50040 0.15230 0.20780 -0.81000
O 	O 	0.18150 0.36265 0.20240 -0.82100
O 	O 	0.32250 0.31291 0.20010 -0.87500
O 	O 	0.28770 0.37180 0.98240 -0.69800
O 	O 	0.32670 0.40280 0.23980 -0.83900
O 	O 	0.51410 0.42835 0.22260 -0.86900
O 	O 	0.62190 0.49909 0.20770 -0.86200
O 	O 	0.68300 0.41617 0.19290 -0.82200
O 	O 	0.59090 0.45125 0.97990 -0.69500
P 	P 	0.90230 0.21676 0.66700 0.93400
P 	P 	0.09410 0.33002 0.66310 0.90300
P 	P 	0.22010 0.13889 0.65630 0.93500
P 	P 	0.89780 0.05229 0.65630 0.94200
Al	Al	0.09330 0.22032 0.78780 2.40300
Al	Al	0.89990 0.32624 0.78380 2.40300
Al	Al	0.09310 0.05478 0.77770 2.40400
Al	Al	0.77080 0.13361 0.78380 2.40600
O 	O 	0.88530 0.26638 0.74000 -0.85000
O 	O 	0.99120 0.19697 0.72930 -0.82900
O 	O 	0.82430 0.18464 0.71840 -0.79400
O 	O 	0.89980 0.21930 0.48910 -0.87700
O 	O 	0.10690 0.27865 0.72180 -0.86800
O 	O 	0.15990 0.36510 0.74320 -0.77100
O 	O 	0.10270 0.33299 0.48540 -0.83800
O 	O 	0.99960 0.34770 0.70780 -0.76900
O 	O 	0.31850 0.13735 0.70240 -0.78000
O 	O 	0.17750 0.18709 0.70010 -0.84000
O 	O 	0.21230 0.12820 0.48240 -0.83800
O 	O 	0.17330 0.09720 0.73980 -0.80200
O 	O 	0.98590 0.07165 0.72260 -0.83700
O 	O 	0.87810 0.00091 0.70770 -0.82400
O 	O 	0.81700 0.08383 0.69290 -0.78200
O 	O 	0.90910 0.04875 0.47990 -0.83500
P 	P 	0.40230 0.71676 0.16700 0.80100
P 	P 	0.59410 0.83002 0.16310 0.77100
P 	P 	0.72010 0.63889 0.15630 0.80200
P 	P 	0.39780 0.55229 0.15630 0.81300
Al	Al	0.59330 0.72032 0.28780 2.40200
Al	Al	0.39990 0.82624 0.28380 2.40200
Al	Al	0.59310 0.55478 0.27770 2.40200
Al	Al	0.27080 0.63361 0.28380 2.40400
O 	O 	0.38530 0.76638 0.24000 -0.87800
O 	O 	0.49120 0.69697 0.22930 -0.85900
O 	O 	0.32430 0.68464 0.21840 -0.82800
O 	O 	0.39980 0.71930 0.98910 -0.73500
O 	O 	0.60690 0.77865 0.22180 -0.89800
O 	O 	0.65990 0.86510 0.24320 -0.80900
O 	O 	0.60270 0.83299 0.98540 -0.69600
O 	O 	0.49960 0.84770 0.20780 -0.81000
O 	O 	0.81850 0.63735 0.20240 -0.82100
O 	O 	0.67750 0.68709 0.20010 -0.87500
O 	O 	0.71230 0.62820 0.98240 -0.69800
O 	O 	0.67330 0.59720 0.23980 -0.83900
O 	O 	0.48590 0.57165 0.22260 -0.86900
O 	O 	0.37810 0.50091 0.20770 -0.86200
O 	O 	0.31700 0.58383 0.19290 -0.82200
O 	O 	0.40910 0.54875 0.97990 -0.69500
P 	P 	0.59770 0.71676 0.66700 0.93400
P 	P 	0.40590 0.83002 0.66310 0.90300
P 	P 	0.27990 0.63889 0.65630 0.93500
P 	P 	0.60220 0.55229 0.65630 0.94200
Al	Al	0.40670 0.72032 0.78780 2.40300
Al	Al	0.60010 0.82624 0.78380 2.40300
Al	Al	0.40690 0.55478 0.77770 2.40400
Al	Al	0.72920 0.63361 0.78380 2.40600
O 	O 	0.61470 0.76638 0.74000 -0.85000
O 	O 	0.50880 0.69697 0.72930 -0.82800
O 	O 	0.67570 0.68464 0.71840 -0.79400
O 	O 	0.60020 0.71930 0.48910 -0.87700
O 	O 	0.39310 0.77865 0.72180 -0.86700
O 	O 	0.34010 0.86510 0.74320 -0.77100
O 	O 	0.39730 0.83299 0.48540 -0.83800
O 	O 	0.50040 0.84770 0.70780 -0.76900
O 	O 	0.18150 0.63735 0.70240 -0.78100
O 	O 	0.32250 0.68709 0.70010 -0.84000
O 	O 	0.28770 0.62820 0.48240 -0.83800
O 	O 	0.32670 0.59720 0.73980 -0.80100
O 	O 	0.51410 0.57165 0.72260 -0.83600
O 	O 	0.62190 0.50091 0.70770 -0.82300
O 	O 	0.68300 0.58383 0.69290 -0.78200
O 	O 	0.59090 0.54875 0.47990 -0.83500
P 	P 	0.09770 0.21676 0.16700 0.80200
P 	P 	0.90590 0.33002 0.16310 0.77200
P 	P 	0.77990 0.13889 0.15630 0.80300
P 	P 	0.10220 0.05229 0.15630 0.81500
Al	Al	0.90670 0.22032 0.28780 2.40200
Al	Al	0.10010 0.32624 0.28380 2.40200
Al	Al	0.90690 0.05478 0.27770 2.40200
Al	Al	0.22920 0.13361 0.28380 2.40400
O 	O 	0.11470 0.26638 0.24000 -0.87800
O 	O 	0.00880 0.19697 0.22930 -0.85900
O 	O 	0.17570 0.18464 0.21840 -0.82800
O 	O 	0.10020 0.21930 0.98910 -0.73700
O 	O 	0.89310 0.27865 0.22180 -0.89800
O 	O 	0.84010 0.36510 0.24320 -0.80900
O 	O 	0.89730 0.33299 0.98540 -0.69700
O 	O 	0.00040 0.34770 0.20780 -0.81000
O 	O 	0.68150 0.13735 0.20240 -0.82100
O 	O 	0.82250 0.18709 0.20010 -0.87500
O 	O 	0.78770 0.12820 0.98240 -0.69800
O 	O 	0.82670 0.09720 0.23980 -0.83800
O 	O 	0.01410 0.07165 0.22260 -0.86900
O 	O 	0.12190 0.00091 0.20770 -0.86200
O 	O 	0.18300 0.08383 0.19290 -0.82200
O 	O 	0.09090 0.04875 0.97990 -0.69700
P 	P 	0.40230 0.28324 0.66700 0.93400
P 	P 	0.59410 0.16998 0.66310 0.90300
P 	P 	0.72010 0.36111 0.65630 0.93500
P 	P 	0.39780 0.44771 0.65630 0.94200
Al	Al	0.59330 0.27968 0.78780 2.40300
Al	Al	0.39990 0.17376 0.78380 2.40300
Al	Al	0.59310 0.44522 0.77770 2.40400
Al	Al	0.27080 0.36639 0.78380 2.40600
O 	O 	0.38530 0.23362 0.74000 -0.85000
O 	O 	0.49120 0.30303 0.72930 -0.82800
O 	O 	0.32430 0.31536 0.71840 -0.79400
O 	O 	0.39980 0.28070 0.48910 -0.87700
O 	O 	0.60690 0.22135 0.72180 -0.86700
O 	O 	0.65990 0.13490 0.74320 -0.77100
O 	O 	0.60270 0.16701 0.48540 -0.83800
O 	O 	0.49960 0.15230 0.70780 -0.76900
O 	O 	0.81850 0.36265 0.70240 -0.78100
O 	O 	0.67750 0.31291 0.70010 -0.84000
O 	O 	0.71230 0.37180 0.48240 -0.83800
O 	O 	0.67330 0.40280 0.73980 -0.80100
O 	O 	0.48590 0.42835 0.72260 -0.83600
O 	O 	0.37810 0.49909 0.70770 -0.82300
O 	O 	0.31700 0.41617 0.69290 -0.78200
O 	O 	0.40910 0.45125 0.47990 -0.83500
P 	P 	0.90230 0.78324 0.16700 0.80200
P 	P 	0.09410 0.66998 0.16310 0.77200
P 	P 	0.22010 0.86111 0.15630 0.80300
P 	P 	0.89780 0.94771 0.15630 0.81500
Al	Al	0.09330 0.77968 0.28780 2.40200
Al	Al	0.89990 0.67376 0.28380 2.40200
Al	Al	0.09310 0.94522 0.27770 2.40200
Al	Al	0.77080 0.86639 0.28380 2.40400
O 	O 	0.88530 0.73362 0.24000 -0.87800
O 	O 	0.99120 0.80303 0.22930 -0.85900
O 	O 	0.82430 0.81536 0.21840 -0.82800
O 	O 	0.89980 0.78070 0.98910 -0.73700
O 	O 	0.10690 0.72135 0.22180 -0.89800
O 	O 	0.15990 0.63490 0.24320 -0.80900
O 	O 	0.10270 0.66701 0.98540 -0.69700
O 	O 	0.99960 0.65230 0.20780 -0.81000
O 	O 	0.31850 0.86265 0.20240 -0.82100
O 	O 	0.17750 0.81291 0.20010 -0.87500
O 	O 	0.21230 0.87180 0.98240 -0.69800
O 	O 	0.17330 0.90280 0.23980 -0.83800
O 	O 	0.98590 0.92835 0.22260 -0.86900
O 	O 	0.87810 0.99909 0.20770 -0.86200
O 	O 	0.81700 0.91617 0.19290 -0.82200
O 	O 	0.90910 0.95125 0.97990 -0.69700
