data_crystal

_cell_length_a 13.89000
_cell_length_b 14.33000
_cell_length_c 19.01700
_cell_angle_alpha 68.31000
_cell_angle_beta  75.83000
_cell_angle_gamma 84.36000

_symmetry_space_group_name_	'P 1'
_symmetry_space_group_name_H-M	'P 1'

loop_
_symmetry_equiv_pos_as_xyz
  x,y,z

loop_
_atom_site_label
_atom_site_type_symbol
_atom_site_fract_x
_atom_site_fract_y
_atom_site_fract_z
_atom_site_charge
Ni	Ni	0.42223 0.62370 0.21767 1.06800
Ni	Ni	0.17112 0.86447 0.61185 1.09300
O 	O 	0.72025 0.42460 0.77468 -0.41900
O 	O 	0.70500 0.58530 0.72910 -0.31900
O 	O 	0.36221 0.77089 0.18956 -0.38100
O 	O 	0.36136 0.67571 0.31043 -0.38400
O 	O 	0.14110 0.72463 0.69702 -0.39700
O 	O 	0.02526 0.79244 0.63331 -0.35800
O 	O 	0.21985 0.80999 0.52025 -0.37900
O 	O 	0.18047 0.96775 0.49519 -0.38500
O 	O 	0.02605 0.37970 0.88059 -0.25000
O 	O 	0.22812 0.10168 0.19544 -0.25100
N 	N 	0.47471 0.60800 0.11171 -0.28900
N 	N 	0.50230 0.64210 0.98469 -0.17900
N 	N 	0.46991 0.86800 0.62385 -0.17600
N 	N 	0.31412 0.89114 0.60915 -0.28300
N 	N 	0.55860 0.69180 0.20500 -0.27500
N 	N 	0.68170 0.74960 0.23090 -0.17300
N 	N 	0.97410 0.95650 0.25845 -0.16900
N 	N 	0.88572 0.05910 0.31471 -0.28700
C 	C 	0.62750 0.50120 0.13100 -0.08400
H 	H 	0.61660 0.48780 0.18400 0.02100
C 	C 	0.56280 0.56090 0.08836 0.03100
C 	C 	0.57960 0.58250 0.00910 0.07100
C 	C 	0.66270 0.54380 0.96980 -0.11000
H 	H 	0.67430 0.55850 0.91650 0.06900
C 	C 	0.72620 0.48330 0.01290 -0.01500
H 	H 	0.78190 0.45610 0.98840 0.02500
C 	C 	0.70920 0.46160 0.09270 -0.04800
H 	H 	0.75340 0.42010 0.12050 0.03700
C 	C 	0.43990 0.65650 0.04794 0.33000
C 	C 	0.34860 0.71810 0.04420 -0.91200
H 	H 	0.31640 0.71700 0.09530 0.30100
H 	H 	0.30480 0.69140 0.02450 0.29900
H 	H 	0.36520 0.78600 0.01040 0.29600
C 	C 	0.48930 0.68470 0.90441 -0.00000
H 	H 	0.41890 0.68990 0.90520 0.02600
H 	H 	0.51910 0.63960 0.87740 0.03300
C 	C 	0.53620 0.78890 0.85970 -0.17200
H 	H 	0.50810 0.83340 0.88770 0.07600
H 	H 	0.60700 0.78330 0.85740 0.09000
C 	C 	0.51980 0.83500 0.77740 -0.02100
H 	H 	0.44940 0.84860 0.78010 0.03600
H 	H 	0.55410 0.89870 0.75140 0.04100
C 	C 	0.55500 0.77020 0.72980 -0.16300
H 	H 	0.51050 0.71350 0.75010 0.07100
H 	H 	0.61990 0.74370 0.73810 0.09100
C 	C 	0.56300 0.81780 0.64201 -0.00100
H 	H 	0.61620 0.86640 0.61900 0.04000
H 	H 	0.57940 0.76620 0.61930 0.02400
C 	C 	0.45180 0.96960 0.60275 0.06200
C 	C 	0.51100 0.05100 0.58960 -0.09100
H 	H 	0.57580 0.04120 0.59620 0.07000
C 	C 	0.47040 0.14450 0.56670 -0.02400
H 	H 	0.50790 0.19940 0.55860 0.03100
C 	C 	0.37320 0.16050 0.55490 -0.02600
H 	H 	0.34850 0.22560 0.53700 0.02500
C 	C 	0.31460 0.08100 0.56960 -0.09400
H 	H 	0.24950 0.09140 0.56350 0.05200
C 	C 	0.35400 0.98470 0.59354 0.04900
C 	C 	0.38600 0.82400 0.62580 0.32800
C 	C 	0.37820 0.71600 0.64360 -0.87900
H 	H 	0.32630 0.70440 0.62250 0.28100
H 	H 	0.36320 0.68160 0.69890 0.27800
H 	H 	0.44010 0.69120 0.62100 0.27600
C 	C 	0.57490 0.82660 0.07030 -0.09200
H 	H 	0.51960 0.80800 0.05920 0.05400
C 	C 	0.63150 0.90560 0.01690 -0.02900
H 	H 	0.61570 0.93900 0.96890 0.03900
C 	C 	0.70950 0.93560 0.03280 -0.01900
H 	H 	0.74790 0.98830 0.99470 0.02900
C 	C 	0.73440 0.89180 0.10240 -0.10100
H 	H 	0.78560 0.91620 0.11420 0.06500
C 	C 	0.67930 0.80780 0.15590 0.06100
C 	C 	0.59980 0.77460 0.14040 0.05000
C 	C 	0.61150 0.67840 0.25530 0.28600
C 	C 	0.59770 0.59520 0.33420 -0.77300
H 	H 	0.52980 0.57390 0.35180 0.22900
H 	H 	0.61440 0.61940 0.37050 0.25200
H 	H 	0.64020 0.53940 0.33030 0.23800
C 	C 	0.74650 0.77030 0.27590 0.00800
H 	H 	0.77180 0.83810 0.24950 0.03400
H 	H 	0.70760 0.76500 0.32710 0.02200
C 	C 	0.82790 0.70040 0.28350 -0.17100
H 	H 	0.85600 0.69240 0.23400 0.09000
H 	H 	0.80440 0.63550 0.32130 0.07300
C 	C 	0.91140 0.73920 0.31040 -0.03500
H 	H 	0.88250 0.78370 0.33810 0.03700
H 	H 	0.94250 0.68290 0.34460 0.03600
C 	C 	0.98770 0.79490 0.23720 -0.14800
H 	H 	0.03630 0.74720 0.22390 0.07400
H 	H 	0.95470 0.82570 0.19460 0.07800
C 	C 	0.04080 0.87570 0.24710 -0.00900
H 	H 	0.07090 0.84540 0.29150 0.03200
H 	H 	0.09360 0.90340 0.20140 0.03700
C 	C 	0.98310 0.92680 0.39600 -0.87500
H 	H 	0.97560 0.96910 0.42620 0.28300
H 	H 	0.05190 0.90890 0.38290 0.29700
H 	H 	0.94480 0.86700 0.42570 0.28800
C 	C 	0.94760 0.98150 0.32360 0.31800
C 	C 	0.92510 0.02410 0.20380 0.04500
C 	C 	0.92740 0.03670 0.12680 -0.08200
H 	H 	0.96520 0.99480 0.10290 0.05500
C 	C 	0.87160 0.11270 0.08880 -0.04300
H 	H 	0.87260 0.12500 0.03710 0.03700
C 	C 	0.81390 0.17170 0.12540 -0.01100
H 	H 	0.77420 0.22090 0.09810 0.01900
C 	C 	0.81150 0.16210 0.20170 -0.11300
H 	H 	0.77290 0.20390 0.22510 0.06000
C 	C 	0.87050 0.08570 0.24004 0.05800
C 	C 	0.75200 0.50950 0.75530 0.35000
C 	C 	0.85490 0.52310 0.76280 -0.03800
C 	C 	0.89810 0.44600 0.81446 -0.13300
H 	H 	0.86500 0.38550 0.84240 0.08400
C 	C 	0.99000 0.45820 0.82497 0.18000
C 	C 	0.04140 0.54730 0.78130 -0.14400
H 	H 	0.10400 0.55500 0.78770 0.09000
C 	C 	0.99920 0.62460 0.72814 -0.01800
C 	C 	0.90540 0.61290 0.71895 -0.04200
H 	H 	0.87650 0.66470 0.68380 0.06100
C 	C 	0.05740 0.71950 0.68268 0.28000
C 	C 	0.11660 0.39600 0.89700 0.10500
H 	H 	0.17220 0.39520 0.85480 -0.00400
H 	H 	0.11460 0.46090 0.90250 -0.00100
C 	C 	0.12920 0.31330 0.97180 -0.19000
H 	H 	0.19610 0.31550 0.97790 0.08900
H 	H 	0.12100 0.24890 0.96820 0.09600
C 	C 	0.34420 0.75930 0.26041 0.27500
C 	C 	0.30340 0.84570 0.28540 0.00200
C 	C 	0.28660 0.93750 0.23080 -0.16500
H 	H 	0.30280 0.94620 0.17830 0.10600
C 	C 	0.24600 0.01600 0.25380 0.20700
C 	C 	0.22470 0.00480 0.33208 -0.17500
H 	H 	0.19950 0.05860 0.34750 0.10300
C 	C 	0.24150 0.91240 0.38675 -0.00900
C 	C 	0.28060 0.83310 0.36399 -0.07000
H 	H 	0.29170 0.77140 0.40090 0.07400
C 	C 	0.21210 0.89670 0.47157 0.27000
C 	C 	0.18370 0.18550 0.21616 0.08300
H 	H 	0.22830 0.21110 0.23680 0.00700
H 	H 	0.12200 0.16600 0.25500 0.01500
C 	C 	0.16450 0.26420 0.14179 -0.16600
H 	H 	0.22260 0.26880 0.10020 0.08900
H 	H 	0.15500 0.32880 0.14810 0.08200
C 	C 	0.07480 0.24260 0.11840 -0.08000
H 	H 	0.01650 0.23890 0.15960 0.05900
H 	H 	0.08390 0.17750 0.11280 0.06600
C 	C 	0.05640 0.32170 0.04220 -0.05400
H 	H 	0.98960 0.31400 0.03800 0.05300
H 	H 	0.06090 0.38810 0.04350 0.04800
Ni	Ni	0.57777 0.37630 0.78233 1.06900
Ni	Ni	0.82888 0.13553 0.38815 1.09400
O 	O 	0.27975 0.57540 0.22532 -0.41800
O 	O 	0.29500 0.41470 0.27090 -0.31800
O 	O 	0.63779 0.22911 0.81044 -0.38000
O 	O 	0.63864 0.32429 0.68957 -0.38300
O 	O 	0.85890 0.27537 0.30298 -0.39600
O 	O 	0.97474 0.20756 0.36669 -0.35700
O 	O 	0.78015 0.19001 0.47975 -0.37800
O 	O 	0.81953 0.03225 0.50481 -0.38400
O 	O 	0.97395 0.62030 0.11941 -0.25000
O 	O 	0.77188 0.89832 0.80456 -0.25100
N 	N 	0.52529 0.39200 0.88829 -0.28900
N 	N 	0.49770 0.35790 0.01531 -0.17900
N 	N 	0.53009 0.13200 0.37615 -0.17600
N 	N 	0.68588 0.10886 0.39085 -0.28300
N 	N 	0.44140 0.30820 0.79500 -0.27500
N 	N 	0.31830 0.25040 0.76910 -0.17300
N 	N 	0.02590 0.04350 0.74155 -0.16900
N 	N 	0.11428 0.94090 0.68529 -0.28700
C 	C 	0.37250 0.49880 0.86900 -0.08400
H 	H 	0.38340 0.51220 0.81600 0.02100
C 	C 	0.43720 0.43910 0.91164 0.03100
C 	C 	0.42040 0.41750 0.99090 0.07100
C 	C 	0.33730 0.45620 0.03020 -0.11000
H 	H 	0.32570 0.44150 0.08350 0.06900
C 	C 	0.27380 0.51670 0.98710 -0.01500
H 	H 	0.21810 0.54390 0.01160 0.02500
C 	C 	0.29080 0.53840 0.90730 -0.04800
H 	H 	0.24660 0.57990 0.87950 0.03700
C 	C 	0.56010 0.34350 0.95206 0.33000
C 	C 	0.65140 0.28190 0.95580 -0.91200
H 	H 	0.68360 0.28300 0.90470 0.30100
H 	H 	0.69520 0.30860 0.97550 0.29900
H 	H 	0.63480 0.21400 0.98960 0.29600
C 	C 	0.51070 0.31530 0.09559 -0.00000
H 	H 	0.58110 0.31010 0.09480 0.02600
H 	H 	0.48090 0.36040 0.12260 0.03300
C 	C 	0.46380 0.21110 0.14030 -0.17200
H 	H 	0.49190 0.16660 0.11230 0.07600
H 	H 	0.39300 0.21670 0.14260 0.09000
C 	C 	0.48020 0.16500 0.22260 -0.02100
H 	H 	0.55060 0.15140 0.21990 0.03600
H 	H 	0.44590 0.10130 0.24860 0.04100
C 	C 	0.44500 0.22980 0.27020 -0.16300
H 	H 	0.48950 0.28650 0.24990 0.07100
H 	H 	0.38010 0.25630 0.26190 0.09100
C 	C 	0.43700 0.18220 0.35799 -0.00100
H 	H 	0.38380 0.13360 0.38100 0.04000
H 	H 	0.42060 0.23380 0.38070 0.02400
C 	C 	0.54820 0.03040 0.39725 0.06200
C 	C 	0.48900 0.94900 0.41040 -0.09100
H 	H 	0.42420 0.95880 0.40380 0.07000
C 	C 	0.52960 0.85550 0.43330 -0.02400
H 	H 	0.49210 0.80060 0.44140 0.03100
C 	C 	0.62680 0.83950 0.44510 -0.02600
H 	H 	0.65150 0.77440 0.46300 0.02500
C 	C 	0.68540 0.91900 0.43040 -0.09400
H 	H 	0.75050 0.90860 0.43650 0.05200
C 	C 	0.64600 0.01530 0.40646 0.04900
C 	C 	0.61400 0.17600 0.37420 0.32800
C 	C 	0.62180 0.28400 0.35640 -0.87900
H 	H 	0.67370 0.29560 0.37750 0.28100
H 	H 	0.63680 0.31840 0.30110 0.27800
H 	H 	0.55990 0.30880 0.37900 0.27600
C 	C 	0.42510 0.17340 0.92970 -0.09200
H 	H 	0.48040 0.19200 0.94080 0.05400
C 	C 	0.36850 0.09440 0.98310 -0.02900
H 	H 	0.38430 0.06100 0.03110 0.03900
C 	C 	0.29050 0.06440 0.96720 -0.01900
H 	H 	0.25210 0.01170 0.00530 0.02900
C 	C 	0.26560 0.10820 0.89760 -0.10100
H 	H 	0.21440 0.08380 0.88580 0.06500
C 	C 	0.32070 0.19220 0.84410 0.06100
C 	C 	0.40020 0.22540 0.85960 0.05000
C 	C 	0.38850 0.32160 0.74470 0.28600
C 	C 	0.40230 0.40480 0.66580 -0.77300
H 	H 	0.47020 0.42610 0.64820 0.22900
H 	H 	0.38560 0.38060 0.62950 0.25200
H 	H 	0.35980 0.46060 0.66970 0.23800
C 	C 	0.25350 0.22970 0.72410 0.00800
H 	H 	0.22820 0.16190 0.75050 0.03400
H 	H 	0.29240 0.23500 0.67290 0.02200
C 	C 	0.17210 0.29960 0.71650 -0.17100
H 	H 	0.14400 0.30760 0.76600 0.09000
H 	H 	0.19560 0.36450 0.67870 0.07300
C 	C 	0.08860 0.26080 0.68960 -0.03500
H 	H 	0.11750 0.21630 0.66190 0.03700
H 	H 	0.05750 0.31710 0.65540 0.03600
C 	C 	0.01230 0.20510 0.76280 -0.14800
H 	H 	0.96370 0.25280 0.77610 0.07400
H 	H 	0.04530 0.17430 0.80540 0.07800
C 	C 	0.95920 0.12430 0.75290 -0.00900
H 	H 	0.92910 0.15460 0.70850 0.03200
H 	H 	0.90640 0.09660 0.79860 0.03700
C 	C 	0.01690 0.07320 0.60400 -0.87500
H 	H 	0.02440 0.03090 0.57380 0.28300
H 	H 	0.94810 0.09110 0.61710 0.29700
H 	H 	0.05520 0.13300 0.57430 0.28800
C 	C 	0.05240 0.01850 0.67640 0.31800
C 	C 	0.07490 0.97590 0.79620 0.04500
C 	C 	0.07260 0.96330 0.87320 -0.08200
H 	H 	0.03480 0.00520 0.89710 0.05500
C 	C 	0.12840 0.88730 0.91120 -0.04300
H 	H 	0.12740 0.87500 0.96290 0.03700
C 	C 	0.18610 0.82830 0.87460 -0.01100
H 	H 	0.22580 0.77910 0.90190 0.01900
C 	C 	0.18850 0.83790 0.79830 -0.11300
H 	H 	0.22710 0.79610 0.77490 0.06000
C 	C 	0.12950 0.91430 0.75996 0.05800
C 	C 	0.24800 0.49050 0.24470 0.35000
C 	C 	0.14510 0.47690 0.23720 -0.03800
C 	C 	0.10190 0.55400 0.18554 -0.13300
H 	H 	0.13500 0.61450 0.15760 0.08400
C 	C 	0.01000 0.54180 0.17503 0.18000
C 	C 	0.95860 0.45270 0.21870 -0.14400
H 	H 	0.89600 0.44500 0.21230 0.09000
C 	C 	0.00080 0.37540 0.27186 -0.01800
C 	C 	0.09460 0.38710 0.28105 -0.04200
H 	H 	0.12350 0.33530 0.31620 0.06100
C 	C 	0.94260 0.28050 0.31732 0.28000
C 	C 	0.88340 0.60400 0.10300 0.10500
H 	H 	0.82780 0.60480 0.14520 -0.00400
H 	H 	0.88540 0.53910 0.09750 -0.00100
C 	C 	0.87080 0.68670 0.02820 -0.19000
H 	H 	0.80390 0.68450 0.02210 0.08900
H 	H 	0.87900 0.75110 0.03180 0.09600
C 	C 	0.65580 0.24070 0.73959 0.27500
C 	C 	0.69660 0.15430 0.71460 0.00200
C 	C 	0.71340 0.06250 0.76920 -0.16500
H 	H 	0.69720 0.05380 0.82170 0.10600
C 	C 	0.75400 0.98400 0.74620 0.20700
C 	C 	0.77530 0.99520 0.66792 -0.17500
H 	H 	0.80050 0.94140 0.65250 0.10300
C 	C 	0.75850 0.08760 0.61325 -0.00900
C 	C 	0.71940 0.16690 0.63601 -0.07000
H 	H 	0.70830 0.22860 0.59910 0.07400
C 	C 	0.78790 0.10330 0.52843 0.27000
C 	C 	0.81630 0.81450 0.78384 0.08300
H 	H 	0.77170 0.78890 0.76320 0.00700
H 	H 	0.87800 0.83400 0.74500 0.01500
C 	C 	0.83550 0.73580 0.85821 -0.16600
H 	H 	0.77740 0.73120 0.89980 0.08900
H 	H 	0.84500 0.67120 0.85190 0.08200
C 	C 	0.92520 0.75740 0.88160 -0.08000
H 	H 	0.98350 0.76110 0.84040 0.05900
H 	H 	0.91610 0.82250 0.88720 0.06600
C 	C 	0.94360 0.67830 0.95780 -0.05400
H 	H 	0.01040 0.68600 0.96200 0.05300
H 	H 	0.93910 0.61190 0.95650 0.04800
