data_crystal

_cell_length_a 15.08800
_cell_length_b 13.23530
_cell_length_c 18.02210
_cell_angle_alpha 90.00000
_cell_angle_beta  94.41400
_cell_angle_gamma 90.00000

_symmetry_space_group_name_	'P 1'
_symmetry_space_group_name_H-M	'P 1'

loop_
_symmetry_equiv_pos_as_xyz
  x,y,z

loop_
_atom_site_label
_atom_site_type_symbol
_atom_site_fract_x
_atom_site_fract_y
_atom_site_fract_z
_atom_site_charge
W 	W 	0.79590 0.94140 0.08758 0.92800
W 	W 	0.62141 0.01956 0.16649 0.95500
W 	W 	0.82176 0.08234 0.23688 0.97000
W 	W 	0.56710 0.90831 0.34567 1.25800
W 	W 	0.76352 0.97576 0.41780 1.00200
W 	W 	0.69757 0.74168 0.42872 1.28600
W 	W 	0.96435 0.88688 0.33274 0.97200
W 	W 	0.89574 0.64994 0.33809 0.98700
W 	W 	0.94563 0.74993 0.18182 0.90700
W 	W 	0.72224 0.67455 0.09860 0.96200
W 	W 	0.66965 0.58271 0.25858 0.99500
W 	W 	0.54318 0.75389 0.17336 0.99800
Zn	Zn	0.75059 0.82979 0.25507 1.24000
Zn	Zn	0.39985 0.05612 0.43966 1.19300
Zn	Zn	0.90305 0.10114 0.94156 1.11900
O 	O 	0.68310 0.01300 0.07450 -0.42700
O 	O 	0.85160 0.06410 0.13730 -0.43600
O 	O 	0.89740 0.86640 0.12980 -0.44600
O 	O 	0.74240 0.81700 0.07100 -0.45600
O 	O 	0.74890 0.94600 0.19520 -0.55800
O 	O 	0.70230 0.12860 0.20250 -0.41600
O 	O 	0.59000 0.99840 0.26630 -0.47200
O 	O 	0.57510 0.88850 0.14420 -0.45700
O 	O 	0.77500 0.05800 0.33390 -0.46000
O 	O 	0.91580 0.99400 0.27240 -0.45400
O 	O 	0.46690 0.95570 0.37100 -0.54100
O 	O 	0.63880 0.00320 0.41250 -0.44900
O 	O 	0.57920 0.80600 0.42170 -0.46200
O 	O 	0.53470 0.81170 0.27030 -0.47800
O 	O 	0.70190 0.85730 0.34510 -0.62400
O 	O 	0.74400 0.85620 0.48310 -0.43900
O 	O 	0.87460 0.91780 0.39970 -0.46200
O 	O 	0.67620 0.66530 0.50330 -0.54700
O 	O 	0.80930 0.70060 0.40720 -0.48400
O 	O 	0.65500 0.65480 0.34710 -0.48100
O 	O 	0.97880 0.75220 0.37820 -0.42700
O 	O 	0.02290 0.83460 0.24690 -0.41500
O 	O 	0.86610 0.78610 0.27290 -0.56300
O 	O 	0.84340 0.68250 0.13750 -0.46700
O 	O 	0.96290 0.63820 0.25280 -0.44400
O 	O 	0.79470 0.58990 0.28720 -0.46500
O 	O 	0.59370 0.70540 0.08490 -0.43000
O 	O 	0.68450 0.72770 0.20480 -0.56600
O 	O 	0.55110 0.62300 0.21980 -0.43000
O 	O 	0.70020 0.55630 0.15480 -0.42900
C 	C 	0.34750 0.09980 0.27430 -0.03200
H 	H 	0.40890 0.10110 0.27190 0.01700
C 	C 	0.29610 0.11580 0.20820 0.08200
C 	C 	0.20240 0.10930 0.21310 -0.06000
C 	C 	0.16830 0.09060 0.28370 -0.06000
H 	H 	0.10740 0.08480 0.28760 0.03500
C 	C 	0.22770 0.08110 0.34650 0.01400
H 	H 	0.20580 0.07340 0.39310 0.00100
C 	C 	0.13540 0.11720 0.14500 0.11300
C 	C 	0.12390 0.20320 0.10270 -0.19000
H 	H 	0.15920 0.26030 0.11120 0.06900
C 	C 	0.05320 0.19890 0.04420 0.07800
H 	H 	0.03910 0.25700 0.01680 -0.05800
C 	C 	0.02650 0.03390 0.06730 0.11800
H 	H 	0.99760 0.97430 0.05270 -0.06900
C 	C 	0.08730 0.02820 0.13020 -0.20700
H 	H 	0.09490 0.97050 0.15940 0.11200
C 	C 	0.84470 0.04810 0.78110 -0.05700
H 	H 	0.90500 0.04000 0.77540 0.00800
C 	C 	0.78090 0.03870 0.71920 0.09800
C 	C 	0.69520 0.03880 0.72020 -0.09600
C 	C 	0.67720 0.05890 0.78680 -0.03000
H 	H 	0.61680 0.06980 0.79040 0.03500
C 	C 	0.72400 0.06820 0.85230 -0.02100
H 	H 	0.69760 0.07370 0.89720 -0.00400
C 	C 	0.63180 0.03620 0.65440 0.12000
C 	C 	0.58860 0.12450 0.63210 0.08800
H 	H 	0.59640 0.18470 0.65840 0.00300
C 	C 	0.53240 0.11620 0.56690 -0.03400
H 	H 	0.51360 0.17780 0.54660 0.01700
C 	C 	0.55530 0.94850 0.55200 -0.00800
H 	H 	0.54640 0.89160 0.52220 0.03500
C 	C 	0.61440 0.94410 0.61240 -0.03500
H 	H 	0.64290 0.88400 0.62640 0.03800
C 	C 	0.26110 0.94720 0.52570 0.11400
H 	H 	0.22990 0.00620 0.53380 -0.03200
C 	C 	0.30110 0.78930 0.52980 -0.00900
H 	H 	0.30230 0.71990 0.53790 0.02300
C 	C 	0.35520 0.84110 0.49090 -0.01200
H 	H 	0.40510 0.81490 0.47050 0.02700
C 	C 	0.17030 0.83640 0.60020 -0.11500
H 	H 	0.16320 0.89200 0.63440 0.04400
H 	H 	0.18210 0.77550 0.62920 0.05200
C 	C 	0.08290 0.82290 0.54740 0.08400
H 	H 	0.07670 0.87750 0.51060 -0.01000
C 	C 	0.95360 0.72690 0.57360 -0.06900
H 	H 	0.91020 0.74000 0.53210 0.06200
H 	H 	0.92280 0.70040 0.61470 0.03900
C 	C 	0.02370 0.65120 0.55080 -0.00300
H 	H 	0.05660 0.62120 0.59360 0.00500
H 	H 	0.99770 0.59820 0.51890 -0.00100
C 	C 	0.07970 0.72100 0.50980 -0.21300
H 	H 	0.05500 0.72790 0.45870 0.11100
H 	H 	0.13930 0.69390 0.50910 0.07600
C 	C 	0.76580 0.21660 0.02390 0.09700
H 	H 	0.74550 0.15760 0.04490 -0.02000
C 	C 	0.78280 0.37490 0.00450 -0.01600
H 	H 	0.78130 0.44500 0.00800 0.01500
C 	C 	0.83750 0.31770 0.96440 -0.00400
H 	H 	0.87590 0.34360 0.93120 -0.01200
C 	C 	0.65450 0.32550 0.08030 -0.18900
H 	H 	0.66350 0.38610 0.11030 0.09100
H 	H 	0.64760 0.26890 0.11360 0.08300
C 	C 	0.57090 0.33690 0.02790 0.17900
H 	H 	0.58420 0.30870 0.97980 -0.03500
C 	C 	0.43120 0.37280 0.07790 -0.14600
H 	H 	0.37660 0.37570 0.04580 0.07100
H 	H 	0.41680 0.36420 0.12910 0.06100
C 	C 	0.48500 0.46160 0.06950 0.09600
H 	H 	0.44730 0.51850 0.05470 -0.01100
H 	H 	0.51730 0.47790 0.11660 -0.00400
C 	C 	0.54560 0.44350 0.01510 -0.30100
H 	H 	0.59690 0.48760 0.02210 0.10500
H 	H 	0.51760 0.45310 0.96530 0.11000
N 	N 	0.31790 0.08290 0.34090 -0.22100
N 	N 	0.00660 0.11330 0.02750 -0.30900
N 	N 	0.33190 0.12290 0.14090 -0.29100
H 	H 	0.38840 0.11750 0.13850 0.11400
H 	H 	0.29800 0.13280 0.10100 0.12000
N 	N 	0.81560 0.06890 0.84770 -0.26400
N 	N 	0.50360 0.04290 0.53200 -0.24600
N 	N 	0.82950 0.00810 0.65520 -0.30100
H 	H 	0.80090 0.98830 0.61470 0.14300
H 	H 	0.88670 0.00990 0.65830 0.12500
N 	N 	0.32690 0.94220 0.48460 -0.25000
N 	N 	0.24250 0.85660 0.55590 -0.12000
N 	N 	0.00100 0.81960 0.59580 -0.23200
H 	H 	0.01900 0.81810 0.64460 0.09500
H 	H 	0.96600 0.87400 0.58680 0.09700
N 	N 	0.82810 0.21730 0.97970 -0.29200
N 	N 	0.73180 0.30850 0.03770 -0.10500
N 	N 	0.49700 0.28160 0.05230 -0.25600
H 	H 	0.51380 0.24080 0.09070 0.09400
H 	H 	0.47040 0.24450 0.01510 0.12700
C 	C 	0.57280 0.10730 0.52990 0.12100
H 	H 	0.58000 0.15150 0.49070 -0.04000
C 	C 	0.48200 0.98900 0.58970 0.08100
H 	H 	0.42920 0.95410 0.59120 -0.02300
C 	C 	0.63700 0.10000 0.59750 -0.25000
H 	H 	0.68480 0.14390 0.60000 0.10600
C 	C 	0.55400 0.99000 0.65280 -0.14200
H 	H 	0.54210 0.95440 0.69540 0.07000
W 	W 	0.20410 0.44140 0.91242 0.91900
W 	W 	0.37859 0.51956 0.83351 0.96800
W 	W 	0.17824 0.58234 0.76312 0.97600
W 	W 	0.43290 0.40831 0.65433 1.25400
W 	W 	0.23648 0.47576 0.58220 0.98900
W 	W 	0.30243 0.24168 0.57128 1.28600
W 	W 	0.03565 0.38688 0.66726 0.97000
W 	W 	0.10426 0.14994 0.66191 0.98400
W 	W 	0.05437 0.24993 0.81818 0.90700
W 	W 	0.27776 0.17455 0.90140 0.95900
W 	W 	0.33035 0.08271 0.74142 0.99000
W 	W 	0.45682 0.25389 0.82664 0.99800
Zn	Zn	0.24941 0.32979 0.74493 1.24000
Zn	Zn	0.60015 0.55612 0.56034 1.19500
Zn	Zn	0.09695 0.60114 0.05844 1.12000
O 	O 	0.31690 0.51300 0.92550 -0.42400
O 	O 	0.14840 0.56410 0.86270 -0.43300
O 	O 	0.10260 0.36640 0.87020 -0.44500
O 	O 	0.25760 0.31700 0.92900 -0.45500
O 	O 	0.25110 0.44600 0.80480 -0.56300
O 	O 	0.29770 0.62860 0.79750 -0.41700
O 	O 	0.41000 0.49840 0.73370 -0.47800
O 	O 	0.42490 0.38850 0.85580 -0.46000
O 	O 	0.22500 0.55800 0.66610 -0.45500
O 	O 	0.08420 0.49400 0.72760 -0.45900
O 	O 	0.53310 0.45570 0.62900 -0.54400
O 	O 	0.36120 0.50320 0.58750 -0.44100
O 	O 	0.42080 0.30600 0.57830 -0.46200
O 	O 	0.46530 0.31170 0.72970 -0.47800
O 	O 	0.29810 0.35730 0.65490 -0.62400
O 	O 	0.25600 0.35620 0.51690 -0.43800
O 	O 	0.12540 0.41780 0.60030 -0.46200
O 	O 	0.32380 0.16530 0.49670 -0.54800
O 	O 	0.19070 0.20060 0.59280 -0.48400
O 	O 	0.34500 0.15480 0.65290 -0.48100
O 	O 	0.02120 0.25220 0.62180 -0.42700
O 	O 	0.97710 0.33460 0.75310 -0.41700
O 	O 	0.13390 0.28610 0.72710 -0.56300
O 	O 	0.15660 0.18250 0.86250 -0.46700
O 	O 	0.03710 0.13820 0.74720 -0.44500
O 	O 	0.20530 0.08990 0.71280 -0.46600
O 	O 	0.40630 0.20540 0.91510 -0.43000
O 	O 	0.31550 0.22770 0.79520 -0.56500
O 	O 	0.44890 0.12300 0.78020 -0.43200
O 	O 	0.29980 0.05630 0.84520 -0.43200
C 	C 	0.65250 0.59980 0.72570 -0.03100
H 	H 	0.59110 0.60110 0.72810 0.01800
C 	C 	0.70390 0.61580 0.79180 0.08300
C 	C 	0.79760 0.60930 0.78690 -0.05700
C 	C 	0.83170 0.59060 0.71630 -0.06000
H 	H 	0.89260 0.58480 0.71240 0.03700
C 	C 	0.77230 0.58110 0.65350 0.01600
H 	H 	0.79420 0.57340 0.60690 0.00200
C 	C 	0.86460 0.61720 0.85500 0.10800
C 	C 	0.87610 0.70320 0.89730 -0.18600
H 	H 	0.84080 0.76030 0.88880 0.06900
C 	C 	0.94680 0.69890 0.95580 0.07700
H 	H 	0.96090 0.75700 0.98320 -0.05600
C 	C 	0.97350 0.53390 0.93270 0.12200
H 	H 	0.00240 0.47430 0.94730 -0.07400
C 	C 	0.91270 0.52820 0.86980 -0.19200
H 	H 	0.90510 0.47050 0.84060 0.10100
C 	C 	0.15530 0.54810 0.21890 -0.05800
H 	H 	0.09500 0.54000 0.22460 0.01000
C 	C 	0.21910 0.53870 0.28080 0.10100
C 	C 	0.30480 0.53880 0.27980 -0.10200
C 	C 	0.32280 0.55890 0.21320 -0.02400
H 	H 	0.38320 0.56980 0.20960 0.03400
C 	C 	0.27600 0.56820 0.14770 -0.02200
H 	H 	0.30240 0.57370 0.10280 -0.00300
C 	C 	0.36820 0.53620 0.34560 0.13800
C 	C 	0.41140 0.62450 0.36790 0.08700
H 	H 	0.40360 0.68470 0.34160 0.00400
C 	C 	0.46760 0.61620 0.43310 -0.03100
H 	H 	0.48640 0.67780 0.45340 0.01600
C 	C 	0.44470 0.44850 0.44800 -0.00900
H 	H 	0.45360 0.39160 0.47780 0.03400
C 	C 	0.38560 0.44410 0.38760 -0.04100
H 	H 	0.35710 0.38400 0.37360 0.03900
C 	C 	0.73890 0.44720 0.47430 0.09600
H 	H 	0.77010 0.50620 0.46620 -0.02000
C 	C 	0.69890 0.28930 0.47020 -0.00900
H 	H 	0.69770 0.21990 0.46210 0.02200
C 	C 	0.64480 0.34110 0.50910 -0.01200
H 	H 	0.59490 0.31490 0.52950 0.02700
C 	C 	0.82970 0.33640 0.39980 -0.11600
H 	H 	0.83680 0.39200 0.36560 0.04200
H 	H 	0.81790 0.27550 0.37080 0.05200
C 	C 	0.91710 0.32290 0.45260 0.08500
H 	H 	0.92330 0.37750 0.48940 -0.01200
C 	C 	0.04640 0.22690 0.42640 -0.07000
H 	H 	0.08980 0.24000 0.46790 0.06200
H 	H 	0.07720 0.20040 0.38530 0.03900
C 	C 	0.97630 0.15120 0.44920 0.00000
H 	H 	0.94340 0.12120 0.40640 0.00200
H 	H 	0.00230 0.09820 0.48110 -0.00400
C 	C 	0.92030 0.22100 0.49020 -0.21500
H 	H 	0.94500 0.22790 0.54130 0.11100
H 	H 	0.86070 0.19390 0.49090 0.07500
C 	C 	0.23420 0.71660 0.97610 0.09800
H 	H 	0.25450 0.65760 0.95510 -0.02000
C 	C 	0.21720 0.87490 0.99550 -0.01400
H 	H 	0.21870 0.94500 0.99200 0.01800
C 	C 	0.16250 0.81770 0.03560 -0.00500
H 	H 	0.12410 0.84360 0.06880 -0.01000
C 	C 	0.34550 0.82550 0.91970 -0.19900
H 	H 	0.33650 0.88610 0.88970 0.09700
H 	H 	0.35240 0.76890 0.88640 0.08600
C 	C 	0.42910 0.83690 0.97210 0.19800
H 	H 	0.41580 0.80870 0.02020 -0.04200
C 	C 	0.56880 0.87280 0.92210 -0.17900
H 	H 	0.62340 0.87570 0.95420 0.08300
H 	H 	0.58320 0.86420 0.87090 0.07300
C 	C 	0.51500 0.96160 0.93050 0.15700
H 	H 	0.55270 0.01850 0.94530 -0.03500
H 	H 	0.48270 0.97790 0.88340 -0.01900
C 	C 	0.45440 0.94350 0.98490 -0.34400
H 	H 	0.40310 0.98760 0.97790 0.12200
H 	H 	0.48240 0.95310 0.03470 0.12400
N 	N 	0.68210 0.58290 0.65910 -0.22000
N 	N 	0.99340 0.61330 0.97250 -0.30900
N 	N 	0.66810 0.62290 0.85910 -0.29100
H 	H 	0.61160 0.61750 0.86150 0.11600
H 	H 	0.70200 0.63280 0.89900 0.12200
N 	N 	0.18440 0.56890 0.15230 -0.26300
N 	N 	0.49640 0.54290 0.46800 -0.24200
N 	N 	0.17050 0.50810 0.34480 -0.29500
H 	H 	0.19910 0.48830 0.38530 0.13500
H 	H 	0.11330 0.50990 0.34170 0.12500
N 	N 	0.67310 0.44220 0.51540 -0.24900
N 	N 	0.75750 0.35660 0.44410 -0.11800
N 	N 	0.99900 0.31960 0.40420 -0.23200
H 	H 	0.98100 0.31810 0.35540 0.09300
H 	H 	0.03400 0.37400 0.41320 0.09600
N 	N 	0.17190 0.71730 0.02030 -0.29100
N 	N 	0.26820 0.80850 0.96230 -0.10400
N 	N 	0.50300 0.78160 0.94770 -0.25600
H 	H 	0.48620 0.74080 0.90930 0.09400
H 	H 	0.52960 0.74450 0.98490 0.12800
C 	C 	0.42720 0.60730 0.47010 0.12300
H 	H 	0.42000 0.65150 0.50930 -0.04000
C 	C 	0.51800 0.48900 0.41030 0.07600
H 	H 	0.57080 0.45410 0.40880 -0.02300
C 	C 	0.36300 0.60000 0.40250 -0.25600
H 	H 	0.31520 0.64390 0.40000 0.10800
C 	C 	0.44600 0.49000 0.34720 -0.15400
H 	H 	0.45790 0.45440 0.30460 0.07200
