data_crystal

_cell_length_a 13.07370
_cell_length_b 20.21920
_cell_length_c 19.61960
_cell_angle_alpha 90.00000
_cell_angle_beta  115.52900
_cell_angle_gamma 90.00000

_symmetry_space_group_name_	'P 1'
_symmetry_space_group_name_H-M	'P 1'

loop_
_symmetry_equiv_pos_as_xyz
  x,y,z

loop_
_atom_site_label
_atom_site_type_symbol
_atom_site_fract_x
_atom_site_fract_y
_atom_site_fract_z
_atom_site_charge
Zn	Zn	0.14444 0.62658 0.82507 1.19800
Zn	Zn	0.89755 0.46495 0.75113 1.20400
V 	V 	0.16455 0.55212 0.99149 1.75300
V 	V 	0.03656 0.41448 0.95075 1.75300
V 	V 	0.78478 0.52927 0.55939 1.83800
V 	V 	0.02341 0.61231 0.63993 1.71900
V 	V 	0.17942 0.58792 0.54875 1.61500
C 	C 	0.75380 0.79170 0.85220 -0.01200
C 	C 	0.68930 0.73390 0.83490 0.00900
C 	C 	0.57390 0.73580 0.78530 0.01000
C 	C 	0.52230 0.79610 0.75570 -0.01300
C 	C 	0.58660 0.85390 0.77400 0.00800
C 	C 	0.70300 0.85160 0.82210 0.00900
C 	C 	0.87890 0.78860 0.90240 -0.01500
H 	H 	0.90690 0.83280 0.91980 -0.02900
H 	H 	0.89200 0.76170 0.94640 -0.03000
C 	C 	0.99660 0.74980 0.77790 0.08600
H 	H 	0.00630 0.75540 0.73400 -0.10200
C 	C 	0.01360 0.71170 0.88320 0.06500
H 	H 	0.03530 0.68710 0.92720 -0.06800
C 	C 	0.74280 0.66860 0.86990 -0.05300
H 	H 	0.80970 0.67680 0.91660 -0.00300
H 	H 	0.68970 0.64340 0.88200 0.03800
C 	C 	0.80970 0.60850 0.72740 0.08900
H 	H 	0.81650 0.61210 0.68230 -0.06400
C 	C 	0.81660 0.56960 0.82800 0.09100
H 	H 	0.82840 0.54220 0.86880 -0.05200
C 	C 	0.50760 0.67190 0.76300 -0.06400
H 	H 	0.46130 0.67150 0.70890 0.00400
H 	H 	0.55980 0.63490 0.77560 0.05800
C 	C 	0.39020 0.65900 0.89090 0.09300
H 	H 	0.39340 0.66020 0.93920 -0.05500
C 	C 	0.32710 0.64890 0.77370 0.11800
H 	H 	0.28020 0.64180 0.72280 -0.13900
C 	C 	0.39680 0.79850 0.70350 -0.02700
H 	H 	0.38530 0.82290 0.65820 -0.01800
H 	H 	0.36890 0.75390 0.68860 -0.01200
C 	C 	0.27040 0.84890 0.81870 0.08400
H 	H 	0.25910 0.84770 0.86240 -0.06400
C 	C 	0.25810 0.87780 0.71290 0.08300
H 	H 	0.23790 0.89870 0.66670 -0.09000
C 	C 	0.53130 0.91910 0.74050 -0.08000
H 	H 	0.58170 0.94460 0.72610 0.05800
H 	H 	0.46190 0.91100 0.69540 0.03700
C 	C 	0.51950 0.94140 0.86370 0.08100
H 	H 	0.54830 0.90150 0.88790 -0.00700
C 	C 	0.45240 0.03630 0.83820 0.02300
H 	H 	0.42460 0.07740 0.84310 -0.01200
C 	C 	0.77040 0.91580 0.84120 -0.07100
H 	H 	0.71950 0.95260 0.83480 0.05100
H 	H 	0.82570 0.91480 0.89360 0.02400
C 	C 	0.84890 0.93960 0.69420 0.09100
H 	H 	0.83400 0.94390 0.64360 -0.07000
C 	C 	0.93770 0.93220 0.81190 0.11100
H 	H 	0.99450 0.93040 0.86100 -0.09100
N 	N 	0.94080 0.76063 0.86260 -0.11100
N 	N 	0.92840 0.78650 0.79540 -0.11000
N 	N 	0.05160 0.70280 0.83060 -0.31300
N 	N 	0.77440 0.63005 0.81870 -0.09700
N 	N 	0.77030 0.65601 0.75420 -0.10000
N 	N 	0.83960 0.55374 0.77060 -0.27900
N 	N 	0.43530 0.66425 0.80160 -0.10400
N 	N 	0.47770 0.67070 0.87700 -0.10600
N 	N 	0.29500 0.64510 0.82860 -0.32300
N 	N 	0.33230 0.82993 0.73960 -0.11300
N 	N 	0.34010 0.80930 0.80710 -0.11300
N 	N 	0.21620 0.89178 0.76190 -0.28500
N 	N 	0.50550 0.95670 0.79460 -0.08200
N 	N 	0.46110 0.01820 0.77660 -0.12500
N 	N 	0.48650 0.99114 0.89320 -0.26900
N 	N 	0.82890 0.92595 0.79290 -0.09700
N 	N 	0.76980 0.93120 0.71710 -0.11100
N 	N 	0.95430 0.94162 0.75090 -0.29100
O 	O 	0.16690 0.57331 0.91100 -0.82100
O 	O 	0.04190 0.58775 0.99430 -0.90000
O 	O 	0.15980 0.46420 0.00060 -0.89800
O 	O 	0.96300 0.44850 0.86873 -0.81100
O 	O 	0.83140 0.48220 0.63437 -0.79400
O 	O 	0.65610 0.55297 0.54060 -0.74800
O 	O 	0.87530 0.60067 0.57980 -0.86300
O 	O 	0.05410 0.58798 0.72780 -0.82000
O 	O 	0.11040 0.56820 0.60850 -0.94800
O 	O 	0.21840 0.51170 0.51990 -0.92700
Zn	Zn	0.85556 0.12658 0.67493 1.19800
Zn	Zn	0.10245 0.96495 0.74887 1.21000
V 	V 	0.83545 0.05212 0.50851 1.73500
V 	V 	0.96344 0.91448 0.54925 1.74000
V 	V 	0.21522 0.02927 0.94061 1.83300
V 	V 	0.97659 0.11231 0.86007 1.72100
V 	V 	0.82058 0.08792 0.95125 1.62000
C 	C 	0.24620 0.29170 0.64780 -0.01500
C 	C 	0.31070 0.23390 0.66510 0.00600
C 	C 	0.42610 0.23580 0.71470 0.01000
C 	C 	0.47770 0.29610 0.74430 -0.01100
C 	C 	0.41340 0.35390 0.72600 0.00900
C 	C 	0.29700 0.35160 0.67790 0.00500
C 	C 	0.12110 0.28860 0.59760 -0.00700
H 	H 	0.09310 0.33280 0.58020 -0.03800
H 	H 	0.10800 0.26170 0.55360 -0.04000
C 	C 	0.00340 0.24980 0.72210 0.07600
H 	H 	0.99370 0.25540 0.76600 -0.09300
C 	C 	0.98640 0.21170 0.61680 0.06800
H 	H 	0.96470 0.18710 0.57280 -0.07300
C 	C 	0.25720 0.16860 0.63010 -0.04700
H 	H 	0.19030 0.17680 0.58340 -0.01000
H 	H 	0.31030 0.14340 0.61800 0.03100
C 	C 	0.19030 0.10850 0.77260 0.08700
H 	H 	0.18350 0.11210 0.81770 -0.06600
C 	C 	0.18340 0.06960 0.67200 0.08900
H 	H 	0.17160 0.04220 0.63120 -0.06300
C 	C 	0.49240 0.17190 0.73700 -0.06600
H 	H 	0.53870 0.17150 0.79110 0.00600
H 	H 	0.44020 0.13490 0.72440 0.05700
C 	C 	0.60980 0.15900 0.60910 0.08900
H 	H 	0.60660 0.16020 0.56080 -0.06500
C 	C 	0.67290 0.14890 0.72630 0.11400
H 	H 	0.71980 0.14180 0.77720 -0.13900
C 	C 	0.60320 0.29850 0.79650 -0.03100
H 	H 	0.61470 0.32290 0.84180 -0.01200
H 	H 	0.63110 0.25390 0.81140 -0.00800
C 	C 	0.72960 0.34890 0.68130 0.08300
H 	H 	0.74090 0.34770 0.63760 -0.07000
C 	C 	0.74190 0.37780 0.78710 0.08200
H 	H 	0.76210 0.39870 0.83330 -0.08800
C 	C 	0.46870 0.41910 0.75950 -0.07900
H 	H 	0.41830 0.44460 0.77390 0.05400
H 	H 	0.53810 0.41100 0.80460 0.03600
C 	C 	0.48050 0.44140 0.63630 0.07500
H 	H 	0.45170 0.40150 0.61210 -0.01400
C 	C 	0.54760 0.53630 0.66180 0.05900
H 	H 	0.57540 0.57740 0.65690 -0.02400
C 	C 	0.22960 0.41580 0.65880 -0.06300
H 	H 	0.28050 0.45260 0.66520 0.04000
H 	H 	0.17430 0.41480 0.60640 0.01100
C 	C 	0.15110 0.43960 0.80580 0.08600
H 	H 	0.16600 0.44390 0.85640 -0.06800
C 	C 	0.06230 0.43220 0.68810 0.10800
H 	H 	0.00550 0.43040 0.63900 -0.09900
N 	N 	0.05920 0.26063 0.63740 -0.11500
N 	N 	0.07160 0.28650 0.70460 -0.10700
N 	N 	0.94840 0.20280 0.66940 -0.31200
N 	N 	0.22560 0.13005 0.68130 -0.09900
N 	N 	0.22970 0.15601 0.74580 -0.09900
N 	N 	0.16040 0.05374 0.72940 -0.28800
N 	N 	0.56470 0.16425 0.69840 -0.10500
N 	N 	0.52230 0.17070 0.62300 -0.11100
N 	N 	0.70500 0.14510 0.67140 -0.32600
N 	N 	0.66770 0.32993 0.76040 -0.11200
N 	N 	0.65990 0.30930 0.69290 -0.11500
N 	N 	0.78380 0.39178 0.73810 -0.28700
N 	N 	0.49450 0.45670 0.70540 -0.09300
N 	N 	0.53890 0.51820 0.72340 -0.11500
N 	N 	0.51350 0.49114 0.60680 -0.30100
N 	N 	0.17110 0.42595 0.70710 -0.10000
N 	N 	0.23020 0.43120 0.78290 -0.11100
N 	N 	0.04570 0.44162 0.74910 -0.29400
O 	O 	0.83310 0.07331 0.58900 -0.83600
O 	O 	0.95810 0.08775 0.50570 -0.92200
O 	O 	0.84020 0.96420 0.49940 -0.86400
O 	O 	0.03700 0.94850 0.63127 -0.81000
O 	O 	0.16860 0.98220 0.86563 -0.77200
O 	O 	0.34390 0.05297 0.95940 -0.74100
O 	O 	0.12470 0.10067 0.92020 -0.86000
O 	O 	0.94590 0.08798 0.77220 -0.82700
O 	O 	0.88960 0.06820 0.89150 -0.95100
O 	O 	0.78160 0.01170 0.98010 -0.92600
Zn	Zn	0.85556 0.37342 0.17493 1.19800
Zn	Zn	0.10245 0.53505 0.24887 1.20500
V 	V 	0.83545 0.44788 0.00851 1.73100
V 	V 	0.96344 0.58552 0.04925 1.72200
V 	V 	0.21522 0.47073 0.44061 1.83800
V 	V 	0.97659 0.38769 0.36007 1.71800
V 	V 	0.82058 0.41208 0.45125 1.61500
C 	C 	0.24620 0.20830 0.14780 -0.01700
C 	C 	0.31070 0.26610 0.16510 0.00500
C 	C 	0.42610 0.26420 0.21470 0.00900
C 	C 	0.47770 0.20390 0.24430 -0.01400
C 	C 	0.41340 0.14610 0.22600 0.00600
C 	C 	0.29700 0.14840 0.17790 0.00200
C 	C 	0.12110 0.21140 0.09760 -0.00300
H 	H 	0.09310 0.16720 0.08020 -0.04400
H 	H 	0.10800 0.23830 0.05360 -0.04600
C 	C 	0.00340 0.25020 0.22210 0.09300
H 	H 	0.99370 0.24460 0.26600 -0.10600
C 	C 	0.98640 0.28830 0.11680 0.05900
H 	H 	0.96470 0.31290 0.07280 -0.07500
C 	C 	0.25720 0.33140 0.13010 -0.04500
H 	H 	0.19030 0.32320 0.08340 -0.01300
H 	H 	0.31030 0.35660 0.11800 0.02900
C 	C 	0.19030 0.39150 0.27260 0.08900
H 	H 	0.18350 0.38790 0.31770 -0.06400
C 	C 	0.18340 0.43040 0.17200 0.09200
H 	H 	0.17160 0.45780 0.13120 -0.05700
C 	C 	0.49240 0.32810 0.23700 -0.06500
H 	H 	0.53870 0.32850 0.29110 0.00400
H 	H 	0.44020 0.36510 0.22440 0.05800
C 	C 	0.60980 0.34100 0.10910 0.09000
H 	H 	0.60660 0.33980 0.06080 -0.07000
C 	C 	0.67290 0.35110 0.22630 0.11600
H 	H 	0.71980 0.35820 0.27720 -0.13900
C 	C 	0.60320 0.20150 0.29650 -0.02600
H 	H 	0.61470 0.17710 0.34180 -0.02000
H 	H 	0.63110 0.24610 0.31140 -0.01200
C 	C 	0.72960 0.15110 0.18130 0.08200
H 	H 	0.74090 0.15230 0.13760 -0.07500
C 	C 	0.74190 0.12220 0.28710 0.08000
H 	H 	0.76210 0.10130 0.33330 -0.09700
C 	C 	0.46870 0.08090 0.25950 -0.07200
H 	H 	0.41830 0.05540 0.27390 0.04400
H 	H 	0.53810 0.08900 0.30460 0.02600
C 	C 	0.48050 0.05860 0.13630 0.07100
H 	H 	0.45170 0.09850 0.11210 -0.01800
C 	C 	0.54760 0.96370 0.16180 0.09000
H 	H 	0.57540 0.92260 0.15690 -0.03400
C 	C 	0.22960 0.08420 0.15880 -0.05700
H 	H 	0.28050 0.04740 0.16520 0.03000
H 	H 	0.17430 0.08520 0.10640 0.00200
C 	C 	0.15110 0.06040 0.30580 0.08200
H 	H 	0.16600 0.05610 0.35640 -0.07700
C 	C 	0.06230 0.06780 0.18810 0.10500
H 	H 	0.00550 0.06960 0.13900 -0.10300
N 	N 	0.05920 0.23937 0.13740 -0.11300
N 	N 	0.07160 0.21350 0.20460 -0.11100
N 	N 	0.94840 0.29720 0.16940 -0.31700
N 	N 	0.22560 0.36995 0.18130 -0.09900
N 	N 	0.22970 0.34399 0.24580 -0.10000
N 	N 	0.16040 0.44626 0.22940 -0.27900
N 	N 	0.56470 0.33575 0.19840 -0.10500
N 	N 	0.52230 0.32930 0.12300 -0.11300
N 	N 	0.70500 0.35490 0.17140 -0.32600
N 	N 	0.66770 0.17007 0.26040 -0.11400
N 	N 	0.65990 0.19070 0.19290 -0.11700
N 	N 	0.78380 0.10822 0.23810 -0.29100
N 	N 	0.49450 0.04330 0.20540 -0.10500
N 	N 	0.53890 0.98180 0.22340 -0.10700
N 	N 	0.51350 0.00886 0.10680 -0.32300
N 	N 	0.17110 0.07405 0.20710 -0.10300
N 	N 	0.23020 0.06880 0.28290 -0.11700
N 	N 	0.04570 0.05838 0.24910 -0.29600
O 	O 	0.83310 0.42669 0.08900 -0.83400
O 	O 	0.95810 0.41225 0.00570 -0.93700
O 	O 	0.84020 0.53580 0.99940 -0.84700
O 	O 	0.03700 0.55150 0.13127 -0.82300
O 	O 	0.16860 0.51780 0.36563 -0.79300
O 	O 	0.34390 0.44703 0.45940 -0.74800
O 	O 	0.12470 0.39933 0.42020 -0.86200
O 	O 	0.94590 0.41202 0.27220 -0.82100
O 	O 	0.88960 0.43180 0.39150 -0.94900
O 	O 	0.78160 0.48830 0.48010 -0.92800
Zn	Zn	0.14444 0.87342 0.32507 1.20000
Zn	Zn	0.89755 0.03505 0.25113 1.20000
V 	V 	0.16455 0.94788 0.49149 1.75000
V 	V 	0.03656 0.08552 0.45075 1.73900
V 	V 	0.78478 0.97073 0.05939 1.84100
V 	V 	0.02341 0.88769 0.13993 1.71900
V 	V 	0.17942 0.91208 0.04875 1.61100
C 	C 	0.75380 0.70830 0.35220 -0.01600
C 	C 	0.68930 0.76610 0.33490 0.00700
C 	C 	0.57390 0.76420 0.28530 0.00900
C 	C 	0.52230 0.70390 0.25570 -0.01500
C 	C 	0.58660 0.64610 0.27400 0.00600
C 	C 	0.70300 0.64840 0.32210 0.00500
C 	C 	0.87890 0.71140 0.40240 -0.00600
H 	H 	0.90690 0.66720 0.41980 -0.03900
H 	H 	0.89200 0.73830 0.44640 -0.04100
C 	C 	0.99660 0.75020 0.27790 0.06800
H 	H 	0.00630 0.74460 0.23400 -0.09400
C 	C 	0.01360 0.78830 0.38320 0.07200
H 	H 	0.03530 0.81290 0.42720 -0.07300
C 	C 	0.74280 0.83140 0.36990 -0.04900
H 	H 	0.80970 0.82320 0.41660 -0.00900
H 	H 	0.68970 0.85660 0.38200 0.03500
C 	C 	0.80970 0.89150 0.22740 0.08900
H 	H 	0.81650 0.88790 0.18230 -0.06400
C 	C 	0.81660 0.93040 0.32800 0.09100
H 	H 	0.82840 0.95780 0.36880 -0.04800
C 	C 	0.50760 0.82810 0.26300 -0.06400
H 	H 	0.46130 0.82850 0.20890 0.00300
H 	H 	0.55980 0.86510 0.27560 0.05900
C 	C 	0.39020 0.84100 0.39090 0.09300
H 	H 	0.39340 0.83980 0.43920 -0.06200
C 	C 	0.32710 0.85110 0.27370 0.11900
H 	H 	0.28020 0.85820 0.22280 -0.13900
C 	C 	0.39680 0.70150 0.20350 -0.02300
H 	H 	0.38530 0.67710 0.15820 -0.02400
H 	H 	0.36890 0.74610 0.18860 -0.01600
C 	C 	0.27040 0.65110 0.31870 0.08200
H 	H 	0.25910 0.65230 0.36240 -0.07000
C 	C 	0.25810 0.62220 0.21290 0.08200
H 	H 	0.23790 0.60130 0.16670 -0.09700
C 	C 	0.53130 0.58090 0.24050 -0.07400
H 	H 	0.58170 0.55540 0.22610 0.04900
H 	H 	0.46190 0.58900 0.19540 0.02800
C 	C 	0.51950 0.55860 0.36370 0.07600
H 	H 	0.54830 0.59850 0.38790 -0.01400
C 	C 	0.45240 0.46370 0.33820 0.05900
H 	H 	0.42460 0.42260 0.34310 -0.02500
C 	C 	0.77040 0.58420 0.34120 -0.06400
H 	H 	0.71950 0.54740 0.33480 0.04000
H 	H 	0.82570 0.58520 0.39360 0.01200
C 	C 	0.84890 0.56040 0.19420 0.08600
H 	H 	0.83400 0.55610 0.14360 -0.08000
C 	C 	0.93770 0.56780 0.31190 0.10800
H 	H 	0.99450 0.56960 0.36100 -0.09900
N 	N 	0.94080 0.73937 0.36260 -0.11700
N 	N 	0.92840 0.71350 0.29540 -0.10800
N 	N 	0.05160 0.79720 0.33060 -0.31000
N 	N 	0.77440 0.86995 0.31870 -0.09800
N 	N 	0.77030 0.84399 0.25420 -0.10100
N 	N 	0.83960 0.94626 0.27060 -0.27200
N 	N 	0.43530 0.83575 0.30160 -0.10400
N 	N 	0.47770 0.82930 0.37700 -0.10900
N 	N 	0.29500 0.85490 0.32860 -0.32300
N 	N 	0.33230 0.67007 0.23960 -0.11500
N 	N 	0.34010 0.69070 0.30710 -0.11500
N 	N 	0.21620 0.60822 0.26190 -0.28800
N 	N 	0.50550 0.54330 0.29460 -0.09400
N 	N 	0.46110 0.48180 0.27660 -0.11600
N 	N 	0.48650 0.50886 0.39320 -0.30100
N 	N 	0.82890 0.57405 0.29290 -0.10000
N 	N 	0.76980 0.56880 0.21710 -0.11600
N 	N 	0.95430 0.55838 0.25090 -0.29600
O 	O 	0.16690 0.92669 0.41100 -0.81700
O 	O 	0.04190 0.91225 0.49430 -0.91000
O 	O 	0.15980 0.03580 0.50060 -0.89100
O 	O 	0.96300 0.05150 0.36873 -0.83100
O 	O 	0.83140 0.01780 0.13437 -0.81500
O 	O 	0.65610 0.94703 0.04060 -0.75100
O 	O 	0.87530 0.89933 0.07980 -0.87300
O 	O 	0.05410 0.91202 0.22780 -0.81000
O 	O 	0.11040 0.93180 0.10850 -0.94400
O 	O 	0.21840 0.98830 0.01990 -0.92700
Zn	Zn	0.50000 0.50000 0.50000 1.16100
Zn	Zn	0.50000 0.00000 -0.00000 1.14300
