data_crystal

_cell_length_a 12.79600
_cell_length_b 25.62500
_cell_length_c 16.11200
_cell_angle_alpha 90.00000
_cell_angle_beta  119.95500
_cell_angle_gamma 90.00000

_symmetry_space_group_name_	'P 1'
_symmetry_space_group_name_H-M	'P 1'

loop_
_symmetry_equiv_pos_as_xyz
  x,y,z

loop_
_atom_site_label
_atom_site_type_symbol
_atom_site_fract_x
_atom_site_fract_y
_atom_site_fract_z
_atom_site_charge
Cu	Cu	0.43990 0.25592 0.20590 0.84200
N 	N 	0.08490 0.05410 0.46360 -0.23400
N 	N 	0.38300 0.21430 0.28490 -0.24400
N 	N 	0.50270 0.20120 0.63350 -0.24500
N 	N 	0.89000 0.05650 0.51900 -0.23400
N 	N 	0.61980 0.25800 0.80510 -0.23900
N 	N 	0.25700 0.26590 0.10550 -0.23500
C 	C 	0.21000 0.05600 0.50960 0.05600
H 	H 	0.25400 0.03570 0.56390 -0.02200
C 	C 	0.26900 0.08640 0.47800 -0.12800
H 	H 	0.35320 0.08630 0.51060 0.07000
C 	C 	0.20600 0.11760 0.39870 0.03500
C 	C 	0.08300 0.11780 0.35000 -0.10200
H 	H 	0.03790 0.13880 0.29690 0.04800
C 	C 	0.02700 0.08400 0.38600 -0.00800
H 	H 	0.94330 0.08270 0.35350 0.02500
C 	C 	0.40100 0.16270 0.29510 0.07900
H 	H 	0.44970 0.14750 0.27360 -0.03100
C 	C 	0.35200 0.13060 0.33580 -0.15300
H 	H 	0.37190 0.09540 0.34610 0.07400
C 	C 	0.27200 0.15240 0.36090 0.07100
C 	C 	0.24800 0.20420 0.34800 -0.15800
H 	H 	0.19610 0.21970 0.36560 0.07900
C 	C 	0.30500 0.23360 0.30870 0.08500
H 	H 	0.28650 0.26890 0.29820 -0.02800
C 	C 	0.54200 0.15300 0.66600 0.08300
H 	H 	0.51890 0.13850 0.70680 -0.03400
C 	C 	0.61400 0.12280 0.64300 -0.15100
H 	H 	0.63880 0.08970 0.66910 0.07400
C 	C 	0.64600 0.14350 0.58000 0.06700
C 	C 	0.59900 0.19110 0.54100 -0.15300
H 	H 	0.61420 0.20480 0.49440 0.08200
C 	C 	0.53100 0.21850 0.56800 0.09400
H 	H 	0.50170 0.25100 0.54030 -0.02700
C 	C 	0.90300 0.05860 0.60400 0.09000
H 	H 	0.96660 0.04000 0.65250 -0.02800
C 	C 	0.82900 0.08650 0.62900 -0.14400
H 	H 	0.84340 0.08670 0.69170 0.07700
C 	C 	0.73100 0.11440 0.55510 0.05600
C 	C 	0.71900 0.11130 0.46700 -0.14600
H 	H 	0.65610 0.12900 0.41600 0.07600
C 	C 	0.80000 0.08140 0.45100 0.09100
H 	H 	0.78840 0.07960 0.38960 -0.02600
C 	C 	0.68100 0.23610 0.89100 0.09000
H 	H 	0.63430 0.21880 0.91190 -0.02600
C 	C 	0.80400 0.23570 0.95300 -0.15400
H 	H 	0.84000 0.21470 0.00740 0.08100
C 	C 	0.87000 0.26800 0.93000 0.09400
C 	C 	0.81200 0.29500 0.84300 -0.15100
H 	H 	0.85600 0.31610 0.82460 0.08700
C 	C 	0.68700 0.29040 0.78300 0.07400
H 	H 	0.64870 0.30990 0.72710 -0.02400
C 	C 	0.19500 0.30900 0.09900 0.07700
H 	H 	0.23700 0.33850 0.13300 -0.02500
C 	C 	0.07000 0.31150 0.04400 -0.14800
H 	H 	0.03000 0.34190 0.04280 0.06600
C 	C 	0.00800 0.26900 0.99200 0.03500
C 	C 	0.06700 0.22510 0.99300 -0.12400
H 	H 	0.03000 0.19740 0.95150 0.06000
C 	C 	0.19200 0.22490 0.06300 0.06000
H 	H 	0.23040 0.19260 0.08050 -0.02600
Cu	Cu	0.56010 0.75592 0.29410 0.84400
N 	N 	0.91510 0.55410 0.03640 -0.26100
N 	N 	0.61700 0.71430 0.21510 -0.23900
N 	N 	0.49730 0.70120 0.86650 -0.23800
N 	N 	0.11000 0.55650 0.98100 -0.23600
N 	N 	0.38020 0.75800 0.69490 -0.22900
N 	N 	0.74300 0.76590 0.39450 -0.24900
C 	C 	0.79000 0.55600 0.99040 0.12200
H 	H 	0.74600 0.53570 0.93610 -0.03500
C 	C 	0.73100 0.58640 0.02200 -0.21400
H 	H 	0.64680 0.58630 0.98940 0.10700
C 	C 	0.79400 0.61760 0.10130 0.10700
C 	C 	0.91700 0.61780 0.15000 -0.20500
H 	H 	0.96210 0.63880 0.20310 0.10600
C 	C 	0.97300 0.58400 0.11400 0.16500
H 	H 	0.05670 0.58270 0.14650 -0.07900
C 	C 	0.59900 0.66270 0.20490 0.07200
H 	H 	0.55030 0.64750 0.22640 -0.02500
C 	C 	0.64800 0.63060 0.16420 -0.13400
H 	H 	0.62810 0.59540 0.15390 0.07100
C 	C 	0.72800 0.65240 0.13910 0.04200
C 	C 	0.75200 0.70420 0.15200 -0.13800
H 	H 	0.80390 0.71970 0.13440 0.07700
C 	C 	0.69500 0.73360 0.19130 0.07700
H 	H 	0.71350 0.76890 0.20180 -0.02200
C 	C 	0.45800 0.65300 0.83400 0.07400
H 	H 	0.48110 0.63850 0.79320 -0.03100
C 	C 	0.38600 0.62280 0.85700 -0.13900
H 	H 	0.36120 0.58970 0.83090 0.07000
C 	C 	0.35400 0.64350 0.92000 0.04600
C 	C 	0.40100 0.69110 0.95900 -0.11900
H 	H 	0.38580 0.70480 0.00560 0.06100
C 	C 	0.46900 0.71850 0.93200 0.07500
H 	H 	0.49830 0.75100 0.95970 -0.01700
C 	C 	0.09700 0.55860 0.89600 0.09300
H 	H 	0.03340 0.54000 0.84750 -0.04100
C 	C 	0.17100 0.58650 0.87100 -0.15700
H 	H 	0.15660 0.58670 0.80830 0.07300
C 	C 	0.26900 0.61440 0.94490 0.07700
C 	C 	0.28100 0.61130 0.03300 -0.16700
H 	H 	0.34390 0.62900 0.08400 0.08200
C 	C 	0.20000 0.58140 0.04900 0.08200
H 	H 	0.21160 0.57960 0.11040 -0.02700
C 	C 	0.31900 0.73610 0.60900 0.06400
H 	H 	0.36570 0.71880 0.58810 -0.02100
C 	C 	0.19600 0.73570 0.54700 -0.11400
H 	H 	0.16000 0.71470 0.49260 0.05500
C 	C 	0.13000 0.76800 0.57000 -0.01000
C 	C 	0.18800 0.79500 0.65700 -0.10000
H 	H 	0.14400 0.81610 0.67540 0.05100
C 	C 	0.31300 0.79040 0.71700 0.04400
H 	H 	0.35130 0.80990 0.77290 -0.01400
C 	C 	0.80500 0.80900 0.40100 0.11100
H 	H 	0.76300 0.83850 0.36700 -0.03200
C 	C 	0.93000 0.81150 0.45600 -0.19600
H 	H 	0.97000 0.84190 0.45720 0.10700
C 	C 	0.99200 0.76900 0.50800 0.14000
C 	C 	0.93300 0.72510 0.50700 -0.19600
H 	H 	0.97000 0.69740 0.54850 0.10400
C 	C 	0.80800 0.72490 0.43700 0.11000
H 	H 	0.76960 0.69260 0.41950 -0.03500
Cu	Cu	0.56010 0.74408 0.79410 0.84400
N 	N 	0.91510 0.94590 0.53640 -0.24300
N 	N 	0.61700 0.78570 0.71510 -0.24100
N 	N 	0.49730 0.79880 0.36650 -0.24400
N 	N 	0.11000 0.94350 0.48100 -0.23800
N 	N 	0.38020 0.74200 0.19490 -0.23300
N 	N 	0.74300 0.73410 0.89450 -0.24800
C 	C 	0.79000 0.94400 0.49040 0.08300
H 	H 	0.74600 0.96430 0.43610 -0.01700
C 	C 	0.73100 0.91360 0.52200 -0.15900
H 	H 	0.64680 0.91370 0.48940 0.08500
C 	C 	0.79400 0.88240 0.60130 0.08200
C 	C 	0.91700 0.88220 0.65000 -0.18300
H 	H 	0.96210 0.86120 0.70310 0.10000
C 	C 	0.97300 0.91600 0.61400 0.15200
H 	H 	0.05670 0.91730 0.64650 -0.06800
C 	C 	0.59900 0.83730 0.70490 0.07800
H 	H 	0.55030 0.85250 0.72640 -0.02500
C 	C 	0.64800 0.86940 0.66420 -0.14100
H 	H 	0.62810 0.90460 0.65390 0.07900
C 	C 	0.72800 0.84760 0.63910 0.05800
C 	C 	0.75200 0.79580 0.65200 -0.14600
H 	H 	0.80390 0.78030 0.63440 0.08100
C 	C 	0.69500 0.76640 0.69130 0.08300
H 	H 	0.71350 0.73110 0.70180 -0.02300
C 	C 	0.45800 0.84700 0.33400 0.08200
H 	H 	0.48110 0.86150 0.29320 -0.03300
C 	C 	0.38600 0.87720 0.35700 -0.15400
H 	H 	0.36120 0.91030 0.33090 0.07700
C 	C 	0.35400 0.85650 0.42000 0.06700
C 	C 	0.40100 0.80890 0.45900 -0.15600
H 	H 	0.38580 0.79520 0.50560 0.08100
C 	C 	0.46900 0.78150 0.43200 0.09300
H 	H 	0.49830 0.74900 0.45970 -0.02700
C 	C 	0.09700 0.94140 0.39600 0.08700
H 	H 	0.03340 0.96000 0.34750 -0.03500
C 	C 	0.17100 0.91350 0.37100 -0.14500
H 	H 	0.15660 0.91330 0.30830 0.07000
C 	C 	0.26900 0.88560 0.44490 0.05300
C 	C 	0.28100 0.88870 0.53300 -0.14400
H 	H 	0.34390 0.87100 0.58400 0.07700
C 	C 	0.20000 0.91860 0.54900 0.08700
H 	H 	0.21160 0.92040 0.61040 -0.02400
C 	C 	0.31900 0.76390 0.10900 0.08100
H 	H 	0.36570 0.78120 0.08810 -0.02800
C 	C 	0.19600 0.76430 0.04700 -0.14800
H 	H 	0.16000 0.78530 0.99260 0.07700
C 	C 	0.13000 0.73200 0.07000 0.00400
C 	C 	0.18800 0.70500 0.15700 -0.11000
H 	H 	0.14400 0.68390 0.17540 0.05300
C 	C 	0.31300 0.70960 0.21700 0.04900
H 	H 	0.35130 0.69010 0.27290 -0.01800
C 	C 	0.80500 0.69100 0.90100 0.10700
H 	H 	0.76300 0.66150 0.86700 -0.03100
C 	C 	0.93000 0.68850 0.95600 -0.18100
H 	H 	0.97000 0.65810 0.95720 0.10400
C 	C 	0.99200 0.73100 0.00800 0.12700
C 	C 	0.93300 0.77490 0.00700 -0.20200
H 	H 	0.97000 0.80260 0.04850 0.10600
C 	C 	0.80800 0.77510 0.93700 0.11900
H 	H 	0.76960 0.80740 0.91950 -0.03500
Cu	Cu	0.43990 0.24408 0.70590 0.84400
N 	N 	0.08490 0.44590 0.96360 -0.21500
N 	N 	0.38300 0.28570 0.78490 -0.24500
N 	N 	0.50270 0.29880 0.13350 -0.24800
N 	N 	0.89000 0.44350 0.01900 -0.23400
N 	N 	0.61980 0.24200 0.30510 -0.24200
N 	N 	0.25700 0.23410 0.60550 -0.23400
C 	C 	0.21000 0.44400 0.00960 0.00400
H 	H 	0.25400 0.46430 0.06390 -0.00100
C 	C 	0.26900 0.41360 0.97800 -0.06000
H 	H 	0.35320 0.41370 0.01060 0.04200
C 	C 	0.20600 0.38240 0.89870 0.00800
C 	C 	0.08300 0.38220 0.85000 -0.08200
H 	H 	0.03790 0.36120 0.79690 0.04400
C 	C 	0.02700 0.41600 0.88600 -0.01000
H 	H 	0.94330 0.41730 0.85350 0.02700
C 	C 	0.40100 0.33730 0.79510 0.08600
H 	H 	0.44970 0.35250 0.77360 -0.03000
C 	C 	0.35200 0.36940 0.83580 -0.16100
H 	H 	0.37190 0.40460 0.84610 0.08300
C 	C 	0.27200 0.34760 0.86090 0.08800
C 	C 	0.24800 0.29580 0.84800 -0.16700
H 	H 	0.19610 0.28030 0.86560 0.08400
C 	C 	0.30500 0.26640 0.80870 0.09200
H 	H 	0.28650 0.23110 0.79820 -0.03000
C 	C 	0.54200 0.34700 0.16600 0.09000
H 	H 	0.51890 0.36150 0.20680 -0.03600
C 	C 	0.61400 0.37720 0.14300 -0.16400
H 	H 	0.63880 0.41030 0.16910 0.08100
C 	C 	0.64600 0.35650 0.08000 0.08500
C 	C 	0.59900 0.30890 0.04100 -0.18600
H 	H 	0.61420 0.29520 0.99440 0.09900
C 	C 	0.53100 0.28150 0.06800 0.11000
H 	H 	0.50170 0.24900 0.04030 -0.03600
C 	C 	0.90300 0.44140 0.10400 0.08500
H 	H 	0.96660 0.46000 0.15250 -0.02200
C 	C 	0.82900 0.41350 0.12900 -0.13300
H 	H 	0.84340 0.41330 0.19170 0.07500
C 	C 	0.73100 0.38560 0.05510 0.03700
C 	C 	0.71900 0.38870 0.96700 -0.12700
H 	H 	0.65610 0.37100 0.91600 0.07100
C 	C 	0.80000 0.41860 0.95100 0.09300
H 	H 	0.78840 0.42040 0.88960 -0.02300
C 	C 	0.68100 0.26390 0.39100 0.10500
H 	H 	0.63430 0.28120 0.41190 -0.03200
C 	C 	0.80400 0.26430 0.45300 -0.18300
H 	H 	0.84000 0.28530 0.50740 0.09800
C 	C 	0.87000 0.23200 0.43000 0.11500
C 	C 	0.81200 0.20500 0.34300 -0.16400
H 	H 	0.85600 0.18390 0.32460 0.09100
C 	C 	0.68700 0.20960 0.28300 0.08100
H 	H 	0.64870 0.19010 0.22710 -0.02800
C 	C 	0.19500 0.19100 0.59900 0.06800
H 	H 	0.23700 0.16150 0.63300 -0.02200
C 	C 	0.07000 0.18850 0.54400 -0.12200
H 	H 	0.03000 0.15810 0.54280 0.06000
C 	C 	0.00800 0.23100 0.49200 0.01000
C 	C 	0.06700 0.27490 0.49300 -0.12800
H 	H 	0.03000 0.30260 0.45150 0.05900
C 	C 	0.19200 0.27510 0.56300 0.07100
H 	H 	0.23040 0.30740 0.58050 -0.02600
Cu	Cu	0.00000 0.00000 0.50000 0.81800
Cu	Cu	-0.00000 0.50000 -0.00000 0.82200
