data_crystal

_cell_length_a 13.45410
_cell_length_b 13.45410
_cell_length_c 27.75500
_cell_angle_alpha 90.00000
_cell_angle_beta  90.00000
_cell_angle_gamma 120.00000

_symmetry_space_group_name_	'P 1'
_symmetry_space_group_name_H-M	'P 1'

loop_
_symmetry_equiv_pos_as_xyz
  x,y,z

loop_
_atom_site_label
_atom_site_type_symbol
_atom_site_fract_x
_atom_site_fract_y
_atom_site_fract_z
_atom_site_charge
V 	V 	0.14188 0.43412 0.47322 1.72500
P 	P 	0.02559 0.18703 0.41572 0.19600
P 	P 	0.87287 0.36903 0.46431 0.47900
O 	O 	0.22780 0.55220 0.42347 -0.51500
O 	O 	0.97357 0.10886 0.45959 -0.36000
O 	O 	0.07121 0.14026 0.37740 -0.51700
O 	O 	0.11974 0.30721 0.42952 -0.48900
O 	O 	0.99850 0.42730 0.45039 -0.37400
O 	O 	0.83350 0.45287 0.47659 -0.47200
O 	O 	0.84806 0.28152 0.50398 -0.49100
O 	O 	0.14190 0.07640 0.29532 -0.55900
H 	H 	0.93660 0.19640 0.39660 0.06400
H 	H 	0.80490 0.30810 0.42180 -0.01200
V 	V 	0.56588 0.70776 0.47322 1.76500
P 	P 	0.81297 0.83856 0.41572 0.46600
P 	P 	0.63097 0.50384 0.46431 0.47600
O 	O 	0.44780 0.67560 0.42347 -0.46900
O 	O 	0.89114 0.86471 0.45959 -0.36900
O 	O 	0.85974 0.93095 0.37740 -0.31300
O 	O 	0.69279 0.81253 0.42952 -0.44800
O 	O 	0.57270 0.57120 0.45039 -0.48900
O 	O 	0.54713 0.38063 0.47659 -0.50600
O 	O 	0.71848 0.56654 0.50398 -0.50800
O 	O 	0.92360 0.06550 0.29532 -0.48100
H 	H 	0.80360 0.74020 0.39660 -0.01200
H 	H 	0.69190 0.49680 0.42180 -0.00600
V 	V 	0.29224 0.85812 0.47322 1.80000
P 	P 	0.16144 0.97441 0.41572 0.73100
P 	P 	0.49616 0.12713 0.46431 0.47200
O 	O 	0.32440 0.77220 0.42347 -0.45400
O 	O 	0.13529 0.02643 0.45959 -0.68400
O 	O 	0.06905 0.92879 0.37740 -0.49100
O 	O 	0.18747 0.88026 0.42952 -0.48600
O 	O 	0.42880 0.00150 0.45039 -0.60600
O 	O 	0.61937 0.16650 0.47659 -0.53800
O 	O 	0.43346 0.15194 0.50398 -0.55300
O 	O 	0.93450 0.85810 0.29532 -0.34100
H 	H 	0.25980 0.06340 0.39660 -0.15000
H 	H 	0.50320 0.19510 0.42180 -0.02400
V 	V 	0.85812 0.56588 0.97322 1.80400
P 	P 	0.97441 0.81297 0.91572 0.70000
P 	P 	0.12713 0.63097 0.96431 0.49300
O 	O 	0.77220 0.44780 0.92347 -0.44300
O 	O 	0.02643 0.89114 0.95959 -0.54100
O 	O 	0.92879 0.85974 0.87740 -0.36600
O 	O 	0.88026 0.69279 0.92952 -0.45600
O 	O 	0.00150 0.57270 0.95039 -0.59700
O 	O 	0.16650 0.54713 0.97659 -0.52800
O 	O 	0.15194 0.71848 0.00398 -0.56700
O 	O 	0.85810 0.92360 0.79532 -0.36900
H 	H 	0.06340 0.80360 0.89660 -0.11400
H 	H 	0.19510 0.69190 0.92180 -0.01600
V 	V 	0.43412 0.29224 0.97322 1.76800
P 	P 	0.18703 0.16144 0.91572 0.46400
P 	P 	0.36903 0.49616 0.96431 0.49600
O 	O 	0.55220 0.32440 0.92347 -0.48600
O 	O 	0.10886 0.13529 0.95959 -0.56800
O 	O 	0.14026 0.06905 0.87740 -0.57400
O 	O 	0.30721 0.18747 0.92952 -0.49900
O 	O 	0.42730 0.42880 0.95039 -0.48700
O 	O 	0.45287 0.61937 0.97659 -0.49300
O 	O 	0.28152 0.43346 0.00398 -0.55100
O 	O 	0.07640 0.93450 0.79532 -0.42300
H 	H 	0.19640 0.25980 0.89660 -0.05500
H 	H 	0.30810 0.50320 0.92180 -0.02300
V 	V 	0.70776 0.14188 0.97322 1.73400
P 	P 	0.83856 0.02559 0.91572 0.22200
P 	P 	0.50384 0.87287 0.96431 0.50000
O 	O 	0.67560 0.22780 0.92347 -0.50000
O 	O 	0.86471 0.97357 0.95959 -0.26400
O 	O 	0.93095 0.07121 0.87740 -0.37800
O 	O 	0.81253 0.11974 0.92952 -0.45900
O 	O 	0.57120 0.99850 0.95039 -0.37200
O 	O 	0.38063 0.83350 0.97659 -0.45900
O 	O 	0.56654 0.84806 0.00398 -0.50700
O 	O 	0.06550 0.14190 0.79532 -0.58700
H 	H 	0.74020 0.93660 0.89660 0.07500
H 	H 	0.49680 0.80490 0.92180 -0.00500
V 	V 	0.85812 0.56588 0.52678 1.80000
P 	P 	0.97441 0.81297 0.58428 0.70500
P 	P 	0.12713 0.63097 0.53569 0.47200
O 	O 	0.77220 0.44780 0.57653 -0.44500
O 	O 	0.02643 0.89114 0.54041 -0.55700
O 	O 	0.92879 0.85974 0.62260 -0.36700
O 	O 	0.88026 0.69279 0.57048 -0.45900
O 	O 	0.00150 0.57270 0.54961 -0.60300
O 	O 	0.16650 0.54713 0.52341 -0.54000
O 	O 	0.15194 0.71848 0.49602 -0.54200
O 	O 	0.85810 0.92360 0.70468 -0.36900
H 	H 	0.06340 0.80360 0.60340 -0.11700
H 	H 	0.19510 0.69190 0.57820 -0.01600
V 	V 	0.43412 0.29224 0.52678 1.76200
P 	P 	0.18703 0.16144 0.58428 0.46400
P 	P 	0.36903 0.49616 0.53569 0.47600
O 	O 	0.55220 0.32440 0.57653 -0.48900
O 	O 	0.10886 0.13529 0.54041 -0.58200
O 	O 	0.14026 0.06905 0.62260 -0.57500
O 	O 	0.30721 0.18747 0.57048 -0.50200
O 	O 	0.42730 0.42880 0.54961 -0.49100
O 	O 	0.45287 0.61937 0.52341 -0.50500
O 	O 	0.28152 0.43346 0.49602 -0.52800
O 	O 	0.07640 0.93450 0.70468 -0.42400
H 	H 	0.19640 0.25980 0.60340 -0.05600
H 	H 	0.30810 0.50320 0.57820 -0.02300
V 	V 	0.70776 0.14188 0.52678 1.72900
P 	P 	0.83856 0.02559 0.58428 0.22400
P 	P 	0.50384 0.87287 0.53569 0.48000
O 	O 	0.67560 0.22780 0.57653 -0.50300
O 	O 	0.86471 0.97357 0.54041 -0.27600
O 	O 	0.93095 0.07121 0.62260 -0.37700
O 	O 	0.81253 0.11974 0.57048 -0.46100
O 	O 	0.57120 0.99850 0.54961 -0.37600
O 	O 	0.38063 0.83350 0.52341 -0.47200
O 	O 	0.56654 0.84806 0.49602 -0.48400
O 	O 	0.06550 0.14190 0.70468 -0.58800
H 	H 	0.74020 0.93660 0.60340 0.07300
H 	H 	0.49680 0.80490 0.57820 -0.00500
V 	V 	0.14188 0.43412 0.02678 1.72000
P 	P 	0.02559 0.18703 0.08428 0.19400
P 	P 	0.87287 0.36903 0.03569 0.46400
O 	O 	0.22780 0.55220 0.07653 -0.51700
O 	O 	0.97357 0.10886 0.04041 -0.36400
O 	O 	0.07121 0.14026 0.12260 -0.51700
O 	O 	0.11974 0.30721 0.07048 -0.49200
O 	O 	0.99850 0.42730 0.04961 -0.37700
O 	O 	0.83350 0.45287 0.02341 -0.48200
O 	O 	0.84806 0.28152 0.99602 -0.47300
O 	O 	0.14190 0.07640 0.20468 -0.55900
H 	H 	0.93660 0.19640 0.10340 0.06500
H 	H 	0.80490 0.30810 0.07820 -0.01200
V 	V 	0.56588 0.70776 0.02678 1.75900
P 	P 	0.81297 0.83856 0.08428 0.46500
P 	P 	0.63097 0.50384 0.03569 0.45800
O 	O 	0.44780 0.67560 0.07653 -0.47200
O 	O 	0.89114 0.86471 0.04041 -0.37800
O 	O 	0.85974 0.93095 0.12260 -0.31400
O 	O 	0.69279 0.81253 0.07048 -0.45100
O 	O 	0.57270 0.57120 0.04961 -0.49300
O 	O 	0.54713 0.38063 0.02341 -0.51600
O 	O 	0.71848 0.56654 0.99602 -0.48700
O 	O 	0.92360 0.06550 0.20468 -0.48000
H 	H 	0.80360 0.74020 0.10340 -0.01400
H 	H 	0.69190 0.49680 0.07820 -0.00600
V 	V 	0.29224 0.85812 0.02678 1.79300
P 	P 	0.16144 0.97441 0.08428 0.72700
P 	P 	0.49616 0.12713 0.03569 0.45400
O 	O 	0.32440 0.77220 0.07653 -0.45800
O 	O 	0.13529 0.02643 0.04041 -0.69200
O 	O 	0.06905 0.92879 0.12260 -0.49200
O 	O 	0.18747 0.88026 0.07048 -0.49000
O 	O 	0.42880 0.00150 0.04961 -0.60800
O 	O 	0.61937 0.16650 0.02341 -0.54700
O 	O 	0.43346 0.15194 0.99602 -0.53100
O 	O 	0.93450 0.85810 0.20468 -0.34100
H 	H 	0.25980 0.06340 0.10340 -0.15000
H 	H 	0.50320 0.19510 0.07820 -0.02400
V 	V 	-0.00000 0.00000 0.50000 1.63900
V 	V 	-0.00000 0.00000 -0.00000 1.62800
V 	V 	0.00000 0.00000 0.33611 1.64100
V 	V 	0.00000 0.00000 0.83611 1.64200
V 	V 	-0.00000 0.00000 0.66389 1.64100
V 	V 	-0.00000 0.00000 0.16389 1.64100
P 	P 	0.19180 0.06298 0.25000 0.34400
O 	O 	0.32230 0.13900 0.25000 -0.20600
H 	H 	0.35170 0.09810 0.25000 0.11700
H 	H 	0.20010 0.95750 0.25000 0.06200
H 	H 	0.30550 0.22760 0.25000 0.17800
O 	O 	0.31200 0.17000 0.25000 -0.19500
P 	P 	0.93702 0.12882 0.25000 0.59900
O 	O 	0.86100 0.18330 0.25000 -0.19100
H 	H 	0.90190 0.25360 0.25000 0.20800
H 	H 	0.04250 0.24260 0.25000 -0.14400
H 	H 	0.77240 0.07790 0.25000 0.16300
O 	O 	0.83000 0.14200 0.25000 -0.24800
P 	P 	0.87118 0.80820 0.25000 0.48000
O 	O 	0.81670 0.67770 0.25000 -0.21900
H 	H 	0.74640 0.64830 0.25000 0.18100
H 	H 	0.75740 0.79990 0.25000 0.00300
H 	H 	0.92210 0.69450 0.25000 0.23300
O 	O 	0.85800 0.68800 0.25000 -0.19800
P 	P 	0.80820 0.93702 0.75000 0.59500
O 	O 	0.67770 0.86100 0.75000 -0.20400
H 	H 	0.64830 0.90190 0.75000 0.21700
H 	H 	0.79990 0.04250 0.75000 -0.10300
H 	H 	0.69450 0.77240 0.75000 0.20400
O 	O 	0.68800 0.83000 0.75000 -0.23200
P 	P 	0.06298 0.87118 0.75000 0.36100
O 	O 	0.13900 0.81670 0.75000 -0.22100
H 	H 	0.09810 0.74640 0.75000 0.13300
H 	H 	0.95750 0.75740 0.75000 0.08100
H 	H 	0.22760 0.92210 0.75000 0.22400
O 	O 	0.17000 0.85800 0.75000 -0.17900
P 	P 	0.12882 0.19180 0.75000 0.46500
O 	O 	0.18330 0.32230 0.75000 -0.19200
H 	H 	0.25360 0.35170 0.75000 0.15500
H 	H 	0.24260 0.20010 0.75000 -0.05600
H 	H 	0.07790 0.30550 0.75000 0.14800
O 	O 	0.14200 0.31200 0.75000 -0.22900
P 	P 	0.33333 0.66667 0.41040 0.89100
H 	H 	0.33333 0.66667 0.36440 -0.06900
B 	B 	0.33333 0.66667 0.42000 -0.32300
P 	P 	0.66667 0.33333 0.91040 0.89400
H 	H 	0.66667 0.33333 0.86440 -0.07000
B 	B 	0.66667 0.33333 0.92000 -0.32500
P 	P 	0.66667 0.33333 0.58960 0.89100
H 	H 	0.66667 0.33333 0.63560 -0.06900
B 	B 	0.66667 0.33333 0.58000 -0.32300
P 	P 	0.33333 0.66667 0.08960 0.88700
H 	H 	0.33333 0.66667 0.13560 -0.06900
B 	B 	0.33333 0.66667 0.08000 -0.32200
