data_crystal

_cell_length_a 15.23020
_cell_length_b 15.23020
_cell_length_c 22.63340
_cell_angle_alpha 90.00000
_cell_angle_beta  90.00000
_cell_angle_gamma 90.00000

_symmetry_space_group_name_	'P 1'
_symmetry_space_group_name_H-M	'P 1'

loop_
_symmetry_equiv_pos_as_xyz
  x,y,z

loop_
_atom_site_label
_atom_site_type_symbol
_atom_site_fract_x
_atom_site_fract_y
_atom_site_fract_z
_atom_site_charge
O 	O 	0.59106 0.21881 0.29529 -0.30200
O 	O 	0.53202 0.39424 0.34396 -0.28900
N 	N 	0.66932 0.23422 0.27425 -0.03300
N 	N 	0.52691 0.44463 0.29771 -0.03600
C 	C 	0.70854 0.17233 0.24034 0.00000
H 	H 	0.68000 0.11780 0.23360 0.05100
C 	C 	0.78932 0.18805 0.21558 0.00300
H 	H 	0.81630 0.14480 0.19140 0.05600
C 	C 	0.52620 0.41170 0.24238 -0.00100
H 	H 	0.52590 0.34990 0.23660 0.05200
C 	C 	0.52590 0.46676 0.19448 0.00200
H 	H 	0.52490 0.44300 0.15570 0.05100
O 	O 	0.09106 0.71881 0.79529 -0.31600
O 	O 	0.03202 0.89424 0.84396 -0.29800
N 	N 	0.16932 0.73422 0.77425 -0.03600
N 	N 	0.02691 0.94463 0.79771 -0.04400
C 	C 	0.20854 0.67233 0.74034 -0.00300
H 	H 	0.18000 0.61780 0.73360 0.03000
C 	C 	0.28932 0.68805 0.71558 -0.00600
H 	H 	0.31630 0.64480 0.69140 0.05300
C 	C 	0.02620 0.91170 0.74238 -0.01700
H 	H 	0.02590 0.84990 0.73660 0.02800
C 	C 	0.02590 0.96676 0.69448 -0.01600
H 	H 	0.02490 0.94300 0.65570 0.03200
O 	O 	0.90894 0.78119 0.79529 -0.21300
O 	O 	0.96798 0.60576 0.84396 -0.20900
N 	N 	0.83068 0.76578 0.77425 -0.04000
N 	N 	0.97309 0.55537 0.79771 -0.03400
C 	C 	0.79146 0.82767 0.74034 0.01000
H 	H 	0.82000 0.88220 0.73360 0.07000
C 	C 	0.71068 0.81195 0.71558 -0.00300
H 	H 	0.68370 0.85520 0.69140 0.05800
C 	C 	0.97380 0.58830 0.74238 0.01700
H 	H 	0.97410 0.65010 0.73660 0.08000
C 	C 	0.97410 0.53324 0.69448 0.02000
H 	H 	0.97510 0.55700 0.65570 0.06900
O 	O 	0.40894 0.28119 0.29529 -0.30200
O 	O 	0.46798 0.10576 0.34396 -0.29000
N 	N 	0.33068 0.26578 0.27425 -0.03400
N 	N 	0.47309 0.05537 0.29771 -0.03600
C 	C 	0.29146 0.32767 0.24034 0.00300
H 	H 	0.32000 0.38220 0.23360 0.05000
C 	C 	0.21068 0.31195 0.21558 -0.00700
H 	H 	0.18370 0.35520 0.19140 0.05900
C 	C 	0.47380 0.08830 0.24238 -0.00200
H 	H 	0.47410 0.15010 0.23660 0.05100
C 	C 	0.47410 0.03324 0.19448 -0.00000
H 	H 	0.47510 0.05700 0.15570 0.05000
O 	O 	0.03119 0.34106 0.54529 -0.31700
O 	O 	0.85576 0.28202 0.59396 -0.23500
N 	N 	0.01578 0.41932 0.52425 -0.12600
N 	N 	0.80537 0.27691 0.54771 -0.03800
C 	C 	0.07767 0.45854 0.49034 0.04900
H 	H 	0.13220 0.43000 0.48360 0.02900
C 	C 	0.06195 0.53932 0.46558 -0.16100
H 	H 	0.10520 0.56630 0.44140 0.09700
C 	C 	0.83830 0.27620 0.49238 -0.00100
H 	H 	0.90010 0.27590 0.48660 0.08300
C 	C 	0.78324 0.27590 0.44448 0.00700
H 	H 	0.80700 0.27490 0.40570 0.06000
O 	O 	0.53119 0.84106 0.04529 -0.30200
O 	O 	0.35576 0.78202 0.09396 -0.29000
N 	N 	0.51578 0.91932 0.02425 -0.03400
N 	N 	0.30537 0.77691 0.04771 -0.03500
C 	C 	0.57767 0.95854 0.99034 0.00200
H 	H 	0.63220 0.93000 0.98360 0.05200
C 	C 	0.56195 0.03932 0.96558 -0.00400
H 	H 	0.60520 0.06630 0.94140 0.05700
C 	C 	0.33830 0.77620 0.99238 -0.00300
H 	H 	0.40010 0.77590 0.98660 0.05200
C 	C 	0.28324 0.77590 0.94448 0.00000
H 	H 	0.30700 0.77490 0.90570 0.05000
O 	O 	0.46881 0.65894 0.04529 -0.30200
O 	O 	0.64424 0.71798 0.09396 -0.28800
N 	N 	0.48422 0.58068 0.02425 -0.03400
N 	N 	0.69463 0.72309 0.04771 -0.03600
C 	C 	0.42233 0.54146 0.99034 0.00200
H 	H 	0.36780 0.57000 0.98360 0.04900
C 	C 	0.43805 0.46068 0.96558 -0.00400
H 	H 	0.39480 0.43370 0.94140 0.05400
C 	C 	0.66170 0.72380 0.99238 -0.00100
H 	H 	0.59990 0.72410 0.98660 0.05100
C 	C 	0.71676 0.72410 0.94448 0.00400
H 	H 	0.69300 0.72510 0.90570 0.05000
O 	O 	0.96881 0.15894 0.54529 -0.21200
O 	O 	0.14424 0.21798 0.59396 -0.27300
N 	N 	0.98422 0.08068 0.52425 0.05000
N 	N 	0.19463 0.22309 0.54771 -0.04100
C 	C 	0.92233 0.04146 0.49034 -0.04200
H 	H 	0.86780 0.07000 0.48360 0.07100
C 	C 	0.93805 0.96068 0.46558 0.15400
H 	H 	0.89480 0.93370 0.44140 0.01800
C 	C 	0.16170 0.22380 0.49238 0.00200
H 	H 	0.09990 0.22410 0.48660 0.02600
C 	C 	0.21676 0.22410 0.44448 -0.00600
H 	H 	0.19300 0.22510 0.40570 0.04100
O 	O 	0.90894 0.21881 0.70471 -0.21300
O 	O 	0.96798 0.39424 0.65604 -0.20900
N 	N 	0.83068 0.23422 0.72575 -0.04000
N 	N 	0.97309 0.44463 0.70229 -0.03400
C 	C 	0.79146 0.17233 0.75966 0.01000
H 	H 	0.82000 0.11780 0.76640 0.07000
C 	C 	0.71068 0.18805 0.78442 -0.00300
H 	H 	0.68370 0.14480 0.80860 0.05800
C 	C 	0.97380 0.41170 0.75762 0.01800
H 	H 	0.97410 0.34990 0.76340 0.08000
C 	C 	0.97410 0.46676 0.80552 0.02000
H 	H 	0.97510 0.44300 0.84430 0.06900
O 	O 	0.40894 0.71881 0.20471 -0.30200
O 	O 	0.46798 0.89424 0.15604 -0.29000
N 	N 	0.33068 0.73422 0.22575 -0.03400
N 	N 	0.47309 0.94463 0.20229 -0.03600
C 	C 	0.29146 0.67233 0.25966 0.00300
H 	H 	0.32000 0.61780 0.26640 0.05000
C 	C 	0.21068 0.68805 0.28442 -0.00700
H 	H 	0.18370 0.64480 0.30860 0.05900
C 	C 	0.47380 0.91170 0.25762 -0.00200
H 	H 	0.47410 0.84990 0.26340 0.05100
C 	C 	0.47410 0.96676 0.30552 -0.00100
H 	H 	0.47510 0.94300 0.34430 0.05000
O 	O 	0.59106 0.78119 0.20471 -0.30100
O 	O 	0.53202 0.60576 0.15604 -0.28800
N 	N 	0.66932 0.76578 0.22575 -0.03300
N 	N 	0.52691 0.55537 0.20229 -0.03600
C 	C 	0.70854 0.82767 0.25966 0.00000
H 	H 	0.68000 0.88220 0.26640 0.05100
C 	C 	0.78932 0.81195 0.28442 0.00300
H 	H 	0.81630 0.85520 0.30860 0.05600
C 	C 	0.52620 0.58830 0.25762 -0.00100
H 	H 	0.52590 0.65010 0.26340 0.05200
C 	C 	0.52590 0.53324 0.30552 0.00200
H 	H 	0.52490 0.55700 0.34430 0.05100
O 	O 	0.09106 0.28119 0.70471 -0.31600
O 	O 	0.03202 0.10576 0.65604 -0.29900
N 	N 	0.16932 0.26578 0.72575 -0.03600
N 	N 	0.02691 0.05537 0.70229 -0.04400
C 	C 	0.20854 0.32767 0.75966 -0.00300
H 	H 	0.18000 0.38220 0.76640 0.03000
C 	C 	0.28932 0.31195 0.78442 -0.00600
H 	H 	0.31630 0.35520 0.80860 0.05300
C 	C 	0.02620 0.08830 0.75762 -0.01700
H 	H 	0.02590 0.15010 0.76340 0.02800
C 	C 	0.02590 0.03324 0.80552 -0.01600
H 	H 	0.02490 0.05700 0.84430 0.03200
O 	O 	0.46881 0.34106 0.45471 -0.30200
O 	O 	0.64424 0.28202 0.40604 -0.28800
N 	N 	0.48422 0.41932 0.47575 -0.03400
N 	N 	0.69463 0.27691 0.45229 -0.03600
C 	C 	0.42233 0.45854 0.50966 0.00200
H 	H 	0.36780 0.43000 0.51640 0.04900
C 	C 	0.43805 0.53932 0.53442 -0.00400
H 	H 	0.39480 0.56630 0.55860 0.05400
C 	C 	0.66170 0.27620 0.50762 -0.00100
H 	H 	0.59990 0.27590 0.51340 0.05100
C 	C 	0.71676 0.27590 0.55552 0.00400
H 	H 	0.69300 0.27490 0.59430 0.05000
O 	O 	0.96881 0.84106 0.95471 -0.21300
O 	O 	0.14424 0.78202 0.90604 -0.27300
N 	N 	0.98422 0.91932 0.97575 0.04900
N 	N 	0.19463 0.77691 0.95229 -0.04100
C 	C 	0.92233 0.95854 0.00966 -0.04200
H 	H 	0.86780 0.93000 0.01640 0.07100
C 	C 	0.93805 0.03932 0.03442 0.15300
H 	H 	0.89480 0.06630 0.05860 0.01800
C 	C 	0.16170 0.77620 0.00762 0.00200
H 	H 	0.09990 0.77590 0.01340 0.02600
C 	C 	0.21676 0.77590 0.05552 -0.00600
H 	H 	0.19300 0.77490 0.09430 0.04100
O 	O 	0.03119 0.65894 0.95471 -0.31700
O 	O 	0.85576 0.71798 0.90604 -0.23600
N 	N 	0.01578 0.58068 0.97575 -0.12500
N 	N 	0.80537 0.72309 0.95229 -0.03800
C 	C 	0.07767 0.54146 0.00966 0.04800
H 	H 	0.13220 0.57000 0.01640 0.02900
C 	C 	0.06195 0.46068 0.03442 -0.16000
H 	H 	0.10520 0.43370 0.05860 0.09700
C 	C 	0.83830 0.72380 0.00762 -0.00200
H 	H 	0.90010 0.72410 0.01340 0.08300
C 	C 	0.78324 0.72410 0.05552 0.00700
H 	H 	0.80700 0.72510 0.09430 0.06000
O 	O 	0.53119 0.15894 0.45471 -0.30200
O 	O 	0.35576 0.21798 0.40604 -0.29000
N 	N 	0.51578 0.08068 0.47575 -0.03400
N 	N 	0.30537 0.22309 0.45229 -0.03500
C 	C 	0.57767 0.04146 0.50966 0.00200
H 	H 	0.63220 0.07000 0.51640 0.05200
C 	C 	0.56195 0.96068 0.53442 -0.00400
H 	H 	0.60520 0.93370 0.55860 0.05700
C 	C 	0.33830 0.22380 0.50762 -0.00300
H 	H 	0.40010 0.22410 0.51340 0.05200
C 	C 	0.28324 0.22410 0.55552 0.00000
H 	H 	0.30700 0.22510 0.59430 0.05000
O 	O 	0.40894 0.78119 0.70471 -0.30200
O 	O 	0.46798 0.60576 0.65604 -0.29000
N 	N 	0.33068 0.76578 0.72575 -0.03400
N 	N 	0.47309 0.55537 0.70229 -0.03600
C 	C 	0.29146 0.82767 0.75966 0.00300
H 	H 	0.32000 0.88220 0.76640 0.05000
C 	C 	0.21068 0.81195 0.78442 -0.00700
H 	H 	0.18370 0.85520 0.80860 0.05900
C 	C 	0.47380 0.58830 0.75762 -0.00200
H 	H 	0.47410 0.65010 0.76340 0.05100
C 	C 	0.47410 0.53324 0.80552 -0.00000
H 	H 	0.47510 0.55700 0.84430 0.05000
O 	O 	0.90894 0.28119 0.20471 -0.21300
O 	O 	0.96798 0.10576 0.15604 -0.21000
N 	N 	0.83068 0.26578 0.22575 -0.04000
N 	N 	0.97309 0.05537 0.20229 -0.03400
C 	C 	0.79146 0.32767 0.25966 0.01000
H 	H 	0.82000 0.38220 0.26640 0.07100
C 	C 	0.71068 0.31195 0.28442 -0.00200
H 	H 	0.68370 0.35520 0.30860 0.05800
C 	C 	0.97380 0.08830 0.25762 0.01700
H 	H 	0.97410 0.15010 0.26340 0.08000
C 	C 	0.97410 0.03324 0.30552 0.02000
H 	H 	0.97510 0.05700 0.34430 0.06900
O 	O 	0.09106 0.21881 0.20471 -0.31600
O 	O 	0.03202 0.39424 0.15604 -0.29900
N 	N 	0.16932 0.23422 0.22575 -0.03600
N 	N 	0.02691 0.44463 0.20229 -0.04400
C 	C 	0.20854 0.17233 0.25966 -0.00300
H 	H 	0.18000 0.11780 0.26640 0.03000
C 	C 	0.28932 0.18805 0.28442 -0.00600
H 	H 	0.31630 0.14480 0.30860 0.05300
C 	C 	0.02620 0.41170 0.25762 -0.01700
H 	H 	0.02590 0.34990 0.26340 0.02800
C 	C 	0.02590 0.46676 0.30552 -0.01700
H 	H 	0.02490 0.44300 0.34430 0.03200
O 	O 	0.59106 0.71881 0.70471 -0.30100
O 	O 	0.53202 0.89424 0.65604 -0.28800
N 	N 	0.66932 0.73422 0.72575 -0.03300
N 	N 	0.52691 0.94463 0.70229 -0.03600
C 	C 	0.70854 0.67233 0.75966 0.00000
H 	H 	0.68000 0.61780 0.76640 0.05100
C 	C 	0.78932 0.68805 0.78442 0.00300
H 	H 	0.81630 0.64480 0.80860 0.05600
C 	C 	0.52620 0.91170 0.75762 -0.00100
H 	H 	0.52590 0.84990 0.76340 0.05100
C 	C 	0.52590 0.96676 0.80552 0.00100
H 	H 	0.52490 0.94300 0.84430 0.05100
O 	O 	0.96881 0.65894 0.45471 -0.21200
O 	O 	0.14424 0.71798 0.40604 -0.27300
N 	N 	0.98422 0.58068 0.47575 0.05100
N 	N 	0.19463 0.72309 0.45229 -0.04100
C 	C 	0.92233 0.54146 0.50966 -0.04200
H 	H 	0.86780 0.57000 0.51640 0.07100
C 	C 	0.93805 0.46068 0.53442 0.15700
H 	H 	0.89480 0.43370 0.55860 0.01800
C 	C 	0.16170 0.72380 0.50762 0.00200
H 	H 	0.09990 0.72410 0.51340 0.02500
C 	C 	0.21676 0.72410 0.55552 -0.00600
H 	H 	0.19300 0.72510 0.59430 0.04100
O 	O 	0.46881 0.15894 0.95471 -0.30200
O 	O 	0.64424 0.21798 0.90604 -0.28800
N 	N 	0.48422 0.08068 0.97575 -0.03400
N 	N 	0.69463 0.22309 0.95229 -0.03600
C 	C 	0.42233 0.04146 0.00966 0.00200
H 	H 	0.36780 0.07000 0.01640 0.04900
C 	C 	0.43805 0.96068 0.03442 -0.00400
H 	H 	0.39480 0.93370 0.05860 0.05400
C 	C 	0.66170 0.22380 0.00762 -0.00100
H 	H 	0.59990 0.22410 0.01340 0.05100
C 	C 	0.71676 0.22410 0.05552 0.00400
H 	H 	0.69300 0.22510 0.09430 0.05000
O 	O 	0.53119 0.34106 0.95471 -0.30200
O 	O 	0.35576 0.28202 0.90604 -0.29100
N 	N 	0.51578 0.41932 0.97575 -0.03400
N 	N 	0.30537 0.27691 0.95229 -0.03500
C 	C 	0.57767 0.45854 0.00966 0.00200
H 	H 	0.63220 0.43000 0.01640 0.05200
C 	C 	0.56195 0.53932 0.03442 -0.00400
H 	H 	0.60520 0.56630 0.05860 0.05700
C 	C 	0.33830 0.27620 0.00762 -0.00300
H 	H 	0.40010 0.27590 0.01340 0.05200
C 	C 	0.28324 0.27590 0.05552 0.00000
H 	H 	0.30700 0.27490 0.09430 0.05000
O 	O 	0.03119 0.84106 0.45471 -0.31700
O 	O 	0.85576 0.78202 0.40604 -0.23500
N 	N 	0.01578 0.91932 0.47575 -0.12500
N 	N 	0.80537 0.77691 0.45229 -0.03800
C 	C 	0.07767 0.95854 0.50966 0.04800
H 	H 	0.13220 0.93000 0.51640 0.02900
C 	C 	0.06195 0.03932 0.53442 -0.15900
H 	H 	0.10520 0.06630 0.55860 0.09700
C 	C 	0.83830 0.77620 0.50762 -0.00100
H 	H 	0.90010 0.77590 0.51340 0.08300
C 	C 	0.78324 0.77590 0.55552 0.00600
H 	H 	0.80700 0.77490 0.59430 0.06000
O 	O 	0.09106 0.78119 0.29529 -0.31600
O 	O 	0.03202 0.60576 0.34396 -0.29900
N 	N 	0.16932 0.76578 0.27425 -0.03600
N 	N 	0.02691 0.55537 0.29771 -0.04400
C 	C 	0.20854 0.82767 0.24034 -0.00300
H 	H 	0.18000 0.88220 0.23360 0.03000
C 	C 	0.28932 0.81195 0.21558 -0.00600
H 	H 	0.31630 0.85520 0.19140 0.05300
C 	C 	0.02620 0.58830 0.24238 -0.01700
H 	H 	0.02590 0.65010 0.23660 0.02800
C 	C 	0.02590 0.53324 0.19448 -0.01700
H 	H 	0.02490 0.55700 0.15570 0.03200
O 	O 	0.59106 0.28119 0.79529 -0.30100
O 	O 	0.53202 0.10576 0.84396 -0.28800
N 	N 	0.66932 0.26578 0.77425 -0.03300
N 	N 	0.52691 0.05537 0.79771 -0.03600
C 	C 	0.70854 0.32767 0.74034 0.00000
H 	H 	0.68000 0.38220 0.73360 0.05100
C 	C 	0.78932 0.31195 0.71558 0.00300
H 	H 	0.81630 0.35520 0.69140 0.05600
C 	C 	0.52620 0.08830 0.74238 -0.00100
H 	H 	0.52590 0.15010 0.73660 0.05200
C 	C 	0.52590 0.03324 0.69448 0.00100
H 	H 	0.52490 0.05700 0.65570 0.05100
O 	O 	0.40894 0.21881 0.79529 -0.30200
O 	O 	0.46798 0.39424 0.84396 -0.29000
N 	N 	0.33068 0.23422 0.77425 -0.03400
N 	N 	0.47309 0.44463 0.79771 -0.03600
C 	C 	0.29146 0.17233 0.74034 0.00300
H 	H 	0.32000 0.11780 0.73360 0.05000
C 	C 	0.21068 0.18805 0.71558 -0.00700
H 	H 	0.18370 0.14480 0.69140 0.05900
C 	C 	0.47380 0.41170 0.74238 -0.00200
H 	H 	0.47410 0.34990 0.73660 0.05100
C 	C 	0.47410 0.46676 0.69448 -0.00000
H 	H 	0.47510 0.44300 0.65570 0.05000
O 	O 	0.90894 0.71881 0.29529 -0.21300
O 	O 	0.96798 0.89424 0.34396 -0.20900
N 	N 	0.83068 0.73422 0.27425 -0.04000
N 	N 	0.97309 0.94463 0.29771 -0.03400
C 	C 	0.79146 0.67233 0.24034 0.01000
H 	H 	0.82000 0.61780 0.23360 0.07100
C 	C 	0.71068 0.68805 0.21558 -0.00300
H 	H 	0.68370 0.64480 0.19140 0.05800
C 	C 	0.97380 0.91170 0.24238 0.01700
H 	H 	0.97410 0.84990 0.23660 0.08000
C 	C 	0.97410 0.96676 0.19448 0.01900
H 	H 	0.97510 0.94300 0.15570 0.06900
O 	O 	0.53119 0.65894 0.54529 -0.30200
O 	O 	0.35576 0.71798 0.59396 -0.29100
N 	N 	0.51578 0.58068 0.52425 -0.03400
N 	N 	0.30537 0.72309 0.54771 -0.03500
C 	C 	0.57767 0.54146 0.49034 0.00200
H 	H 	0.63220 0.57000 0.48360 0.05200
C 	C 	0.56195 0.46068 0.46558 -0.00400
H 	H 	0.60520 0.43370 0.44140 0.05700
C 	C 	0.33830 0.72380 0.49238 -0.00300
H 	H 	0.40010 0.72410 0.48660 0.05200
C 	C 	0.28324 0.72410 0.44448 0.00000
H 	H 	0.30700 0.72510 0.40570 0.05000
O 	O 	0.03119 0.15894 0.04529 -0.31700
O 	O 	0.85576 0.21798 0.09396 -0.23600
N 	N 	0.01578 0.08068 0.02425 -0.12400
N 	N 	0.80537 0.22309 0.04771 -0.03800
C 	C 	0.07767 0.04146 0.99034 0.04800
H 	H 	0.13220 0.07000 0.98360 0.02900
C 	C 	0.06195 0.96068 0.96558 -0.15800
H 	H 	0.10520 0.93370 0.94140 0.09600
C 	C 	0.83830 0.22380 0.99238 -0.00200
H 	H 	0.90010 0.22410 0.98660 0.08200
C 	C 	0.78324 0.22410 0.94448 0.00600
H 	H 	0.80700 0.22510 0.90570 0.06000
O 	O 	0.96881 0.34106 0.04529 -0.21300
O 	O 	0.14424 0.28202 0.09396 -0.27300
N 	N 	0.98422 0.41932 0.02425 0.05000
N 	N 	0.19463 0.27691 0.04771 -0.04100
C 	C 	0.92233 0.45854 0.99034 -0.04200
H 	H 	0.86780 0.43000 0.98360 0.07100
C 	C 	0.93805 0.53932 0.96558 0.15500
H 	H 	0.89480 0.56630 0.94140 0.01800
C 	C 	0.16170 0.27620 0.99238 0.00200
H 	H 	0.09990 0.27590 0.98660 0.02600
C 	C 	0.21676 0.27590 0.94448 -0.00600
H 	H 	0.19300 0.27490 0.90570 0.04100
O 	O 	0.46881 0.84106 0.54529 -0.30200
O 	O 	0.64424 0.78202 0.59396 -0.28800
N 	N 	0.48422 0.91932 0.52425 -0.03400
N 	N 	0.69463 0.77691 0.54771 -0.03600
C 	C 	0.42233 0.95854 0.49034 0.00200
H 	H 	0.36780 0.93000 0.48360 0.04900
C 	C 	0.43805 0.03932 0.46558 -0.00400
H 	H 	0.39480 0.06630 0.44140 0.05400
C 	C 	0.66170 0.77620 0.49238 -0.00100
H 	H 	0.59990 0.77590 0.48660 0.05100
C 	C 	0.71676 0.77590 0.44448 0.00400
H 	H 	0.69300 0.77490 0.40570 0.05000
Ho	Ho	0.50000 0.25000 0.37500 1.82800
Ho	Ho	-0.00000 0.75000 0.87500 1.52100
Ho	Ho	-0.00000 0.25000 0.62500 1.51900
Ho	Ho	0.50000 0.75000 0.12500 1.82800
Ho	Ho	0.50000 0.75000 0.62500 1.82800
Ho	Ho	0.00000 0.25000 0.12500 1.52100
Ho	Ho	-0.00000 0.75000 0.37500 1.51900
Ho	Ho	0.50000 0.25000 0.87500 1.82800
