data_crystal

_cell_length_a 15.17770
_cell_length_b 15.17770
_cell_length_c 22.50940
_cell_angle_alpha 90.00000
_cell_angle_beta  90.00000
_cell_angle_gamma 90.00000

_symmetry_space_group_name_	'P 1'
_symmetry_space_group_name_H-M	'P 1'

loop_
_symmetry_equiv_pos_as_xyz
  x,y,z

loop_
_atom_site_label
_atom_site_type_symbol
_atom_site_fract_x
_atom_site_fract_y
_atom_site_fract_z
_atom_site_charge
O 	O 	0.59052 0.21840 0.29594 -0.30100
O 	O 	0.53202 0.39323 0.34440 -0.28900
N 	N 	0.66916 0.23390 0.27491 -0.03200
N 	N 	0.52617 0.44427 0.29795 -0.03600
C 	C 	0.70908 0.17164 0.24123 0.00100
H 	H 	0.68100 0.11640 0.23510 0.05100
C 	C 	0.78967 0.18759 0.21586 0.00300
H 	H 	0.81680 0.14380 0.19180 0.05600
C 	C 	0.52531 0.41139 0.24210 -0.00100
H 	H 	0.52490 0.34940 0.23610 0.05200
C 	C 	0.52504 0.46718 0.19415 0.00200
H 	H 	0.52400 0.44360 0.15510 0.05100
O 	O 	0.09052 0.71840 0.79594 -0.31700
O 	O 	0.03202 0.89323 0.84440 -0.29800
N 	N 	0.16916 0.73390 0.77491 -0.03500
N 	N 	0.02617 0.94427 0.79795 -0.04400
C 	C 	0.20908 0.67164 0.74123 -0.00300
H 	H 	0.18100 0.61640 0.73510 0.03000
C 	C 	0.28967 0.68759 0.71586 -0.00600
H 	H 	0.31680 0.64380 0.69180 0.05400
C 	C 	0.02531 0.91139 0.74210 -0.01800
H 	H 	0.02490 0.84940 0.73610 0.02900
C 	C 	0.02504 0.96718 0.69415 -0.01600
H 	H 	0.02400 0.94360 0.65510 0.03200
O 	O 	0.90948 0.78160 0.79594 -0.21400
O 	O 	0.96798 0.60677 0.84440 -0.20900
N 	N 	0.83084 0.76610 0.77491 -0.03900
N 	N 	0.97383 0.55573 0.79795 -0.03400
C 	C 	0.79092 0.82836 0.74123 0.01100
H 	H 	0.81900 0.88360 0.73510 0.07000
C 	C 	0.71033 0.81241 0.71586 -0.00300
H 	H 	0.68320 0.85620 0.69180 0.05900
C 	C 	0.97469 0.58861 0.74210 0.01700
H 	H 	0.97510 0.65060 0.73610 0.08100
C 	C 	0.97496 0.53282 0.69415 0.02100
H 	H 	0.97600 0.55640 0.65510 0.06900
O 	O 	0.40948 0.28160 0.29594 -0.30300
O 	O 	0.46798 0.10677 0.34440 -0.29000
N 	N 	0.33084 0.26610 0.27491 -0.03300
N 	N 	0.47383 0.05573 0.29795 -0.03600
C 	C 	0.29092 0.32836 0.24123 0.00300
H 	H 	0.31900 0.38360 0.23510 0.05000
C 	C 	0.21033 0.31241 0.21586 -0.00700
H 	H 	0.18320 0.35620 0.19180 0.06000
C 	C 	0.47469 0.08861 0.24210 -0.00200
H 	H 	0.47510 0.15060 0.23610 0.05200
C 	C 	0.47496 0.03282 0.19415 0.00000
H 	H 	0.47600 0.05640 0.15510 0.05000
O 	O 	0.03160 0.34052 0.54594 -0.31700
O 	O 	0.85677 0.28202 0.59440 -0.23500
N 	N 	0.01610 0.41916 0.52491 -0.12500
N 	N 	0.80573 0.27617 0.54795 -0.03800
C 	C 	0.07836 0.45908 0.49123 0.04800
H 	H 	0.13360 0.43100 0.48510 0.03000
C 	C 	0.06241 0.53967 0.46586 -0.16000
H 	H 	0.10620 0.56680 0.44180 0.09800
C 	C 	0.83861 0.27531 0.49210 -0.00200
H 	H 	0.90060 0.27490 0.48610 0.08300
C 	C 	0.78282 0.27504 0.44415 0.00700
H 	H 	0.80640 0.27400 0.40510 0.06000
O 	O 	0.53160 0.84052 0.04594 -0.30300
O 	O 	0.35677 0.78202 0.09440 -0.29100
N 	N 	0.51610 0.91916 0.02491 -0.03300
N 	N 	0.30573 0.77617 0.04795 -0.03500
C 	C 	0.57836 0.95908 0.99123 0.00200
H 	H 	0.63360 0.93100 0.98510 0.05200
C 	C 	0.56241 0.03967 0.96586 -0.00400
H 	H 	0.60620 0.06680 0.94180 0.05800
C 	C 	0.33861 0.77531 0.99210 -0.00300
H 	H 	0.40060 0.77490 0.98610 0.05300
C 	C 	0.28282 0.77504 0.94415 0.00100
H 	H 	0.30640 0.77400 0.90510 0.05000
O 	O 	0.46840 0.65948 0.04594 -0.30300
O 	O 	0.64323 0.71798 0.09440 -0.28800
N 	N 	0.48390 0.58084 0.02491 -0.03300
N 	N 	0.69427 0.72383 0.04795 -0.03600
C 	C 	0.42164 0.54092 0.99123 0.00200
H 	H 	0.36640 0.56900 0.98510 0.04900
C 	C 	0.43759 0.46033 0.96586 -0.00400
H 	H 	0.39380 0.43320 0.94180 0.05500
C 	C 	0.66139 0.72469 0.99210 -0.00100
H 	H 	0.59940 0.72510 0.98610 0.05200
C 	C 	0.71718 0.72496 0.94415 0.00400
H 	H 	0.69360 0.72600 0.90510 0.05000
O 	O 	0.96840 0.15948 0.54594 -0.21300
O 	O 	0.14323 0.21798 0.59440 -0.27200
N 	N 	0.98390 0.08084 0.52491 0.05000
N 	N 	0.19427 0.22383 0.54795 -0.04100
C 	C 	0.92164 0.04092 0.49123 -0.04100
H 	H 	0.86640 0.06900 0.48510 0.07100
C 	C 	0.93759 0.96033 0.46586 0.15300
H 	H 	0.89380 0.93320 0.44180 0.01900
C 	C 	0.16139 0.22469 0.49210 0.00200
H 	H 	0.09940 0.22510 0.48610 0.02600
C 	C 	0.21718 0.22496 0.44415 -0.00500
H 	H 	0.19360 0.22600 0.40510 0.04100
O 	O 	0.90948 0.21840 0.70406 -0.21300
O 	O 	0.96798 0.39323 0.65560 -0.20800
N 	N 	0.83084 0.23390 0.72509 -0.03900
N 	N 	0.97383 0.44427 0.70205 -0.03400
C 	C 	0.79092 0.17164 0.75877 0.01100
H 	H 	0.81900 0.11640 0.76490 0.07000
C 	C 	0.71033 0.18759 0.78414 -0.00300
H 	H 	0.68320 0.14380 0.80820 0.05900
C 	C 	0.97469 0.41139 0.75790 0.01700
H 	H 	0.97510 0.34940 0.76390 0.08100
C 	C 	0.97496 0.46718 0.80585 0.02100
H 	H 	0.97600 0.44360 0.84490 0.06900
O 	O 	0.40948 0.71840 0.20406 -0.30300
O 	O 	0.46798 0.89323 0.15560 -0.29000
N 	N 	0.33084 0.73390 0.22509 -0.03300
N 	N 	0.47383 0.94427 0.20205 -0.03600
C 	C 	0.29092 0.67164 0.25877 0.00300
H 	H 	0.31900 0.61640 0.26490 0.05000
C 	C 	0.21033 0.68759 0.28414 -0.00700
H 	H 	0.18320 0.64380 0.30820 0.06000
C 	C 	0.47469 0.91139 0.25790 -0.00200
H 	H 	0.47510 0.84940 0.26390 0.05200
C 	C 	0.47496 0.96718 0.30585 0.00000
H 	H 	0.47600 0.94360 0.34490 0.05000
O 	O 	0.59052 0.78160 0.20406 -0.30200
O 	O 	0.53202 0.60677 0.15560 -0.28900
N 	N 	0.66916 0.76610 0.22509 -0.03200
N 	N 	0.52617 0.55573 0.20205 -0.03600
C 	C 	0.70908 0.82836 0.25877 0.00100
H 	H 	0.68100 0.88360 0.26490 0.05100
C 	C 	0.78967 0.81241 0.28414 0.00300
H 	H 	0.81680 0.85620 0.30820 0.05600
C 	C 	0.52531 0.58861 0.25790 -0.00100
H 	H 	0.52490 0.65060 0.26390 0.05200
C 	C 	0.52504 0.53282 0.30585 0.00200
H 	H 	0.52400 0.55640 0.34490 0.05100
O 	O 	0.09052 0.28160 0.70406 -0.31700
O 	O 	0.03202 0.10677 0.65560 -0.29800
N 	N 	0.16916 0.26610 0.72509 -0.03500
N 	N 	0.02617 0.05573 0.70205 -0.04400
C 	C 	0.20908 0.32836 0.75877 -0.00300
H 	H 	0.18100 0.38360 0.76490 0.03000
C 	C 	0.28967 0.31241 0.78414 -0.00600
H 	H 	0.31680 0.35620 0.80820 0.05400
C 	C 	0.02531 0.08861 0.75790 -0.01800
H 	H 	0.02490 0.15060 0.76390 0.02900
C 	C 	0.02504 0.03282 0.80585 -0.01500
H 	H 	0.02400 0.05640 0.84490 0.03200
O 	O 	0.46840 0.34052 0.45406 -0.30300
O 	O 	0.64323 0.28202 0.40560 -0.28800
N 	N 	0.48390 0.41916 0.47509 -0.03300
N 	N 	0.69427 0.27617 0.45205 -0.03600
C 	C 	0.42164 0.45908 0.50877 0.00200
H 	H 	0.36640 0.43100 0.51490 0.04900
C 	C 	0.43759 0.53967 0.53414 -0.00400
H 	H 	0.39380 0.56680 0.55820 0.05500
C 	C 	0.66139 0.27531 0.50790 -0.00100
H 	H 	0.59940 0.27490 0.51390 0.05200
C 	C 	0.71718 0.27504 0.55585 0.00400
H 	H 	0.69360 0.27400 0.59490 0.05000
O 	O 	0.96840 0.84052 0.95406 -0.21300
O 	O 	0.14323 0.78202 0.90560 -0.27200
N 	N 	0.98390 0.91916 0.97509 0.04900
N 	N 	0.19427 0.77617 0.95205 -0.04100
C 	C 	0.92164 0.95908 0.00877 -0.04100
H 	H 	0.86640 0.93100 0.01490 0.07000
C 	C 	0.93759 0.03967 0.03414 0.15100
H 	H 	0.89380 0.06680 0.05820 0.02000
C 	C 	0.16139 0.77531 0.00790 0.00200
H 	H 	0.09940 0.77490 0.01390 0.02700
C 	C 	0.21718 0.77504 0.05585 -0.00500
H 	H 	0.19360 0.77400 0.09490 0.04100
O 	O 	0.03160 0.65948 0.95406 -0.31700
O 	O 	0.85677 0.71798 0.90560 -0.23600
N 	N 	0.01610 0.58084 0.97509 -0.12400
N 	N 	0.80573 0.72383 0.95205 -0.03800
C 	C 	0.07836 0.54092 0.00877 0.04800
H 	H 	0.13360 0.56900 0.01490 0.03000
C 	C 	0.06241 0.46033 0.03414 -0.15800
H 	H 	0.10620 0.43320 0.05820 0.09800
C 	C 	0.83861 0.72469 0.00790 -0.00200
H 	H 	0.90060 0.72510 0.01390 0.08300
C 	C 	0.78282 0.72496 0.05585 0.00700
H 	H 	0.80640 0.72600 0.09490 0.06000
O 	O 	0.53160 0.15948 0.45406 -0.30200
O 	O 	0.35677 0.21798 0.40560 -0.29100
N 	N 	0.51610 0.08084 0.47509 -0.03300
N 	N 	0.30573 0.22383 0.45205 -0.03500
C 	C 	0.57836 0.04092 0.50877 0.00200
H 	H 	0.63360 0.06900 0.51490 0.05200
C 	C 	0.56241 0.96033 0.53414 -0.00400
H 	H 	0.60620 0.93320 0.55820 0.05800
C 	C 	0.33861 0.22469 0.50790 -0.00300
H 	H 	0.40060 0.22510 0.51390 0.05300
C 	C 	0.28282 0.22496 0.55585 0.00100
H 	H 	0.30640 0.22600 0.59490 0.05000
O 	O 	0.40948 0.78160 0.70406 -0.30300
O 	O 	0.46798 0.60677 0.65560 -0.29000
N 	N 	0.33084 0.76610 0.72509 -0.03300
N 	N 	0.47383 0.55573 0.70205 -0.03600
C 	C 	0.29092 0.82836 0.75877 0.00300
H 	H 	0.31900 0.88360 0.76490 0.05000
C 	C 	0.21033 0.81241 0.78414 -0.00800
H 	H 	0.18320 0.85620 0.80820 0.06000
C 	C 	0.47469 0.58861 0.75790 -0.00200
H 	H 	0.47510 0.65060 0.76390 0.05200
C 	C 	0.47496 0.53282 0.80585 0.00000
H 	H 	0.47600 0.55640 0.84490 0.05000
O 	O 	0.90948 0.28160 0.20406 -0.21300
O 	O 	0.96798 0.10677 0.15560 -0.20900
N 	N 	0.83084 0.26610 0.22509 -0.03900
N 	N 	0.97383 0.05573 0.20205 -0.03400
C 	C 	0.79092 0.32836 0.25877 0.01100
H 	H 	0.81900 0.38360 0.26490 0.07100
C 	C 	0.71033 0.31241 0.28414 -0.00300
H 	H 	0.68320 0.35620 0.30820 0.05900
C 	C 	0.97469 0.08861 0.25790 0.01700
H 	H 	0.97510 0.15060 0.26390 0.08100
C 	C 	0.97496 0.03282 0.30585 0.02000
H 	H 	0.97600 0.05640 0.34490 0.06900
O 	O 	0.09052 0.21840 0.20406 -0.31700
O 	O 	0.03202 0.39323 0.15560 -0.29900
N 	N 	0.16916 0.23390 0.22509 -0.03500
N 	N 	0.02617 0.44427 0.20205 -0.04400
C 	C 	0.20908 0.17164 0.25877 -0.00300
H 	H 	0.18100 0.11640 0.26490 0.03000
C 	C 	0.28967 0.18759 0.28414 -0.00600
H 	H 	0.31680 0.14380 0.30820 0.05400
C 	C 	0.02531 0.41139 0.25790 -0.01800
H 	H 	0.02490 0.34940 0.26390 0.02900
C 	C 	0.02504 0.46718 0.30585 -0.01600
H 	H 	0.02400 0.44360 0.34490 0.03200
O 	O 	0.59052 0.71840 0.70406 -0.30200
O 	O 	0.53202 0.89323 0.65560 -0.28900
N 	N 	0.66916 0.73390 0.72509 -0.03200
N 	N 	0.52617 0.94427 0.70205 -0.03600
C 	C 	0.70908 0.67164 0.75877 0.00100
H 	H 	0.68100 0.61640 0.76490 0.05100
C 	C 	0.78967 0.68759 0.78414 0.00300
H 	H 	0.81680 0.64380 0.80820 0.05700
C 	C 	0.52531 0.91139 0.75790 -0.00100
H 	H 	0.52490 0.84940 0.76390 0.05200
C 	C 	0.52504 0.96718 0.80585 0.00200
H 	H 	0.52400 0.94360 0.84490 0.05100
O 	O 	0.96840 0.65948 0.45406 -0.21300
O 	O 	0.14323 0.71798 0.40560 -0.27200
N 	N 	0.98390 0.58084 0.47509 0.05100
N 	N 	0.19427 0.72383 0.45205 -0.04100
C 	C 	0.92164 0.54092 0.50877 -0.04100
H 	H 	0.86640 0.56900 0.51490 0.07100
C 	C 	0.93759 0.46033 0.53414 0.15500
H 	H 	0.89380 0.43320 0.55820 0.01900
C 	C 	0.16139 0.72469 0.50790 0.00200
H 	H 	0.09940 0.72510 0.51390 0.02600
C 	C 	0.21718 0.72496 0.55585 -0.00500
H 	H 	0.19360 0.72600 0.59490 0.04100
O 	O 	0.46840 0.15948 0.95406 -0.30300
O 	O 	0.64323 0.21798 0.90560 -0.28800
N 	N 	0.48390 0.08084 0.97509 -0.03300
N 	N 	0.69427 0.22383 0.95205 -0.03600
C 	C 	0.42164 0.04092 0.00877 0.00200
H 	H 	0.36640 0.06900 0.01490 0.04900
C 	C 	0.43759 0.96033 0.03414 -0.00400
H 	H 	0.39380 0.93320 0.05820 0.05500
C 	C 	0.66139 0.22469 0.00790 -0.00100
H 	H 	0.59940 0.22510 0.01390 0.05200
C 	C 	0.71718 0.22496 0.05585 0.00400
H 	H 	0.69360 0.22600 0.09490 0.05000
O 	O 	0.53160 0.34052 0.95406 -0.30200
O 	O 	0.35677 0.28202 0.90560 -0.29100
N 	N 	0.51610 0.41916 0.97509 -0.03300
N 	N 	0.30573 0.27617 0.95205 -0.03500
C 	C 	0.57836 0.45908 0.00877 0.00200
H 	H 	0.63360 0.43100 0.01490 0.05200
C 	C 	0.56241 0.53967 0.03414 -0.00400
H 	H 	0.60620 0.56680 0.05820 0.05800
C 	C 	0.33861 0.27531 0.00790 -0.00300
H 	H 	0.40060 0.27490 0.01390 0.05300
C 	C 	0.28282 0.27504 0.05585 0.00100
H 	H 	0.30640 0.27400 0.09490 0.05000
O 	O 	0.03160 0.84052 0.45406 -0.31700
O 	O 	0.85677 0.78202 0.40560 -0.23500
N 	N 	0.01610 0.91916 0.47509 -0.12300
N 	N 	0.80573 0.77617 0.45205 -0.03800
C 	C 	0.07836 0.95908 0.50877 0.04800
H 	H 	0.13360 0.93100 0.51490 0.03000
C 	C 	0.06241 0.03967 0.53414 -0.15800
H 	H 	0.10620 0.06680 0.55820 0.09700
C 	C 	0.83861 0.77531 0.50790 -0.00200
H 	H 	0.90060 0.77490 0.51390 0.08300
C 	C 	0.78282 0.77504 0.55585 0.00700
H 	H 	0.80640 0.77400 0.59490 0.06000
O 	O 	0.09052 0.78160 0.29594 -0.31600
O 	O 	0.03202 0.60677 0.34440 -0.29900
N 	N 	0.16916 0.76610 0.27491 -0.03500
N 	N 	0.02617 0.55573 0.29795 -0.04400
C 	C 	0.20908 0.82836 0.24123 -0.00300
H 	H 	0.18100 0.88360 0.23510 0.03000
C 	C 	0.28967 0.81241 0.21586 -0.00600
H 	H 	0.31680 0.85620 0.19180 0.05400
C 	C 	0.02531 0.58861 0.24210 -0.01800
H 	H 	0.02490 0.65060 0.23610 0.02900
C 	C 	0.02504 0.53282 0.19415 -0.01600
H 	H 	0.02400 0.55640 0.15510 0.03200
O 	O 	0.59052 0.28160 0.79594 -0.30200
O 	O 	0.53202 0.10677 0.84440 -0.28900
N 	N 	0.66916 0.26610 0.77491 -0.03200
N 	N 	0.52617 0.05573 0.79795 -0.03600
C 	C 	0.70908 0.32836 0.74123 0.00100
H 	H 	0.68100 0.38360 0.73510 0.05100
C 	C 	0.78967 0.31241 0.71586 0.00300
H 	H 	0.81680 0.35620 0.69180 0.05700
C 	C 	0.52531 0.08861 0.74210 -0.00100
H 	H 	0.52490 0.15060 0.73610 0.05200
C 	C 	0.52504 0.03282 0.69415 0.00200
H 	H 	0.52400 0.05640 0.65510 0.05100
O 	O 	0.40948 0.21840 0.79594 -0.30300
O 	O 	0.46798 0.39323 0.84440 -0.29000
N 	N 	0.33084 0.23390 0.77491 -0.03300
N 	N 	0.47383 0.44427 0.79795 -0.03600
C 	C 	0.29092 0.17164 0.74123 0.00300
H 	H 	0.31900 0.11640 0.73510 0.05000
C 	C 	0.21033 0.18759 0.71586 -0.00700
H 	H 	0.18320 0.14380 0.69180 0.06000
C 	C 	0.47469 0.41139 0.74210 -0.00200
H 	H 	0.47510 0.34940 0.73610 0.05200
C 	C 	0.47496 0.46718 0.69415 0.00000
H 	H 	0.47600 0.44360 0.65510 0.05000
O 	O 	0.90948 0.71840 0.29594 -0.21300
O 	O 	0.96798 0.89323 0.34440 -0.20900
N 	N 	0.83084 0.73390 0.27491 -0.03900
N 	N 	0.97383 0.94427 0.29795 -0.03400
C 	C 	0.79092 0.67164 0.24123 0.01100
H 	H 	0.81900 0.61640 0.23510 0.07100
C 	C 	0.71033 0.68759 0.21586 -0.00300
H 	H 	0.68320 0.64380 0.19180 0.05900
C 	C 	0.97469 0.91139 0.24210 0.01700
H 	H 	0.97510 0.84940 0.23610 0.08100
C 	C 	0.97496 0.96718 0.19415 0.02000
H 	H 	0.97600 0.94360 0.15510 0.06900
O 	O 	0.53160 0.65948 0.54594 -0.30200
O 	O 	0.35677 0.71798 0.59440 -0.29100
N 	N 	0.51610 0.58084 0.52491 -0.03300
N 	N 	0.30573 0.72383 0.54795 -0.03500
C 	C 	0.57836 0.54092 0.49123 0.00300
H 	H 	0.63360 0.56900 0.48510 0.05200
C 	C 	0.56241 0.46033 0.46586 -0.00400
H 	H 	0.60620 0.43320 0.44180 0.05800
C 	C 	0.33861 0.72469 0.49210 -0.00300
H 	H 	0.40060 0.72510 0.48610 0.05300
C 	C 	0.28282 0.72496 0.44415 0.00100
H 	H 	0.30640 0.72600 0.40510 0.05000
O 	O 	0.03160 0.15948 0.04594 -0.31700
O 	O 	0.85677 0.21798 0.09440 -0.23600
N 	N 	0.01610 0.08084 0.02491 -0.12200
N 	N 	0.80573 0.22383 0.04795 -0.03800
C 	C 	0.07836 0.04092 0.99123 0.04700
H 	H 	0.13360 0.06900 0.98510 0.03000
C 	C 	0.06241 0.96033 0.96586 -0.15600
H 	H 	0.10620 0.93320 0.94180 0.09700
C 	C 	0.83861 0.22469 0.99210 -0.00200
H 	H 	0.90060 0.22510 0.98610 0.08300
C 	C 	0.78282 0.22496 0.94415 0.00700
H 	H 	0.80640 0.22600 0.90510 0.06000
O 	O 	0.96840 0.34052 0.04594 -0.21300
O 	O 	0.14323 0.28202 0.09440 -0.27300
N 	N 	0.98390 0.41916 0.02491 0.05000
N 	N 	0.19427 0.27617 0.04795 -0.04100
C 	C 	0.92164 0.45908 0.99123 -0.04100
H 	H 	0.86640 0.43100 0.98510 0.07100
C 	C 	0.93759 0.53967 0.96586 0.15300
H 	H 	0.89380 0.56680 0.94180 0.01900
C 	C 	0.16139 0.27531 0.99210 0.00200
H 	H 	0.09940 0.27490 0.98610 0.02700
C 	C 	0.21718 0.27504 0.94415 -0.00500
H 	H 	0.19360 0.27400 0.90510 0.04100
O 	O 	0.46840 0.84052 0.54594 -0.30300
O 	O 	0.64323 0.78202 0.59440 -0.28800
N 	N 	0.48390 0.91916 0.52491 -0.03300
N 	N 	0.69427 0.77617 0.54795 -0.03600
C 	C 	0.42164 0.95908 0.49123 0.00200
H 	H 	0.36640 0.93100 0.48510 0.04900
C 	C 	0.43759 0.03967 0.46586 -0.00400
H 	H 	0.39380 0.06680 0.44180 0.05500
C 	C 	0.66139 0.77531 0.49210 -0.00100
H 	H 	0.59940 0.77490 0.48610 0.05200
C 	C 	0.71718 0.77504 0.44415 0.00400
H 	H 	0.69360 0.77400 0.40510 0.05000
Er	Er	0.50000 0.25000 0.37500 1.81600
Er	Er	0.00000 0.75000 0.87500 1.51000
Er	Er	0.00000 0.25000 0.62500 1.50800
Er	Er	0.50000 0.75000 0.12500 1.81600
Er	Er	0.50000 0.75000 0.62500 1.81600
Er	Er	0.00000 0.25000 0.12500 1.51000
Er	Er	0.00000 0.75000 0.37500 1.50800
Er	Er	0.50000 0.25000 0.87500 1.81600
