data_crystal

_cell_length_a 15.38040
_cell_length_b 15.38040
_cell_length_c 22.98430
_cell_angle_alpha 90.00000
_cell_angle_beta  90.00000
_cell_angle_gamma 90.00000

_symmetry_space_group_name_	'P 1'
_symmetry_space_group_name_H-M	'P 1'

loop_
_symmetry_equiv_pos_as_xyz
  x,y,z

loop_
_atom_site_label
_atom_site_type_symbol
_atom_site_fract_x
_atom_site_fract_y
_atom_site_fract_z
_atom_site_charge
O 	O 	0.59191 0.21965 0.29303 -0.35800
O 	O 	0.53338 0.39686 0.34324 -0.34500
N 	N 	0.66963 0.23449 0.27293 -0.03000
N 	N 	0.52833 0.44642 0.29745 -0.03300
C 	C 	0.70832 0.17377 0.23897 -0.00200
H 	H 	0.67970 0.12020 0.23150 0.04700
C 	C 	0.71114 0.31041 0.28460 -0.00500
H 	H 	0.68450 0.35250 0.30900 0.05100
C 	C 	0.52715 0.41238 0.24314 -0.00300
H 	H 	0.52640 0.35110 0.23800 0.04600
C 	C 	0.52702 0.53383 0.30453 0.00200
H 	H 	0.52600 0.55800 0.34260 0.04800
O 	O 	0.09191 0.71965 0.79303 -0.36700
O 	O 	0.03338 0.89686 0.84324 -0.34600
N 	N 	0.16963 0.73449 0.77293 -0.03300
N 	N 	0.02833 0.94642 0.79745 -0.04200
C 	C 	0.20832 0.67377 0.73897 -0.00600
H 	H 	0.17970 0.62020 0.73150 0.02300
C 	C 	0.21114 0.81041 0.78460 -0.01000
H 	H 	0.18450 0.85250 0.80900 0.05400
C 	C 	0.02715 0.91238 0.74314 -0.02300
H 	H 	0.02640 0.85110 0.73800 0.01900
C 	C 	0.02702 0.03383 0.80453 -0.02000
H 	H 	0.02600 0.05800 0.84260 0.02600
O 	O 	0.90809 0.78035 0.79303 -0.24200
O 	O 	0.96662 0.60314 0.84324 -0.24000
N 	N 	0.83037 0.76551 0.77293 -0.03800
N 	N 	0.97167 0.55358 0.79745 -0.03100
C 	C 	0.79168 0.82623 0.73897 0.01000
H 	H 	0.82030 0.87980 0.73150 0.07300
C 	C 	0.78886 0.68959 0.78460 0.00300
H 	H 	0.81550 0.64750 0.80900 0.05100
C 	C 	0.97285 0.58762 0.74314 0.01900
H 	H 	0.97360 0.64890 0.73800 0.08200
C 	C 	0.97298 0.46617 0.80453 0.02400
H 	H 	0.97400 0.44200 0.84260 0.07100
O 	O 	0.40809 0.28035 0.29303 -0.35800
O 	O 	0.46662 0.10314 0.34324 -0.34600
N 	N 	0.33037 0.26551 0.27293 -0.03000
N 	N 	0.47167 0.05358 0.29745 -0.03200
C 	C 	0.29168 0.32623 0.23897 0.00100
H 	H 	0.32030 0.37980 0.23150 0.04700
C 	C 	0.28886 0.18959 0.28460 -0.00900
H 	H 	0.31550 0.14750 0.30900 0.04600
C 	C 	0.47285 0.08762 0.24314 -0.00500
H 	H 	0.47360 0.14890 0.23800 0.04600
C 	C 	0.47298 0.96617 0.30453 -0.00100
H 	H 	0.47400 0.94200 0.34260 0.04700
O 	O 	0.03035 0.34191 0.54303 -0.36800
O 	O 	0.85314 0.28338 0.59324 -0.27000
N 	N 	0.01551 0.41963 0.52293 -0.14400
N 	N 	0.80358 0.27833 0.54745 -0.03500
C 	C 	0.07623 0.45832 0.48897 0.05900
H 	H 	0.12980 0.42970 0.48150 0.02100
C 	C 	0.93959 0.46114 0.53460 0.19300
H 	H 	0.89750 0.43450 0.55900 0.00400
C 	C 	0.83762 0.27715 0.49314 -0.00400
H 	H 	0.89890 0.27640 0.48800 0.08500
C 	C 	0.71617 0.27702 0.55453 0.00400
H 	H 	0.69200 0.27600 0.59260 0.04800
O 	O 	0.53035 0.84191 0.04303 -0.35800
O 	O 	0.35314 0.78338 0.09324 -0.34700
N 	N 	0.51551 0.91963 0.02293 -0.03000
N 	N 	0.30358 0.77833 0.04745 -0.03200
C 	C 	0.57623 0.95832 0.98897 0.00000
H 	H 	0.62980 0.92970 0.98150 0.05000
C 	C 	0.43959 0.96114 0.03460 -0.00600
H 	H 	0.39750 0.93450 0.05900 0.04700
C 	C 	0.33762 0.77715 0.99314 -0.00600
H 	H 	0.39890 0.77640 0.98800 0.04600
C 	C 	0.21617 0.77702 0.05453 -0.00700
H 	H 	0.19200 0.77600 0.09260 0.03600
O 	O 	0.46965 0.65809 0.04303 -0.35800
O 	O 	0.64686 0.71662 0.09324 -0.34300
N 	N 	0.48449 0.58037 0.02293 -0.03000
N 	N 	0.69642 0.72167 0.04745 -0.03200
C 	C 	0.42377 0.54168 0.98897 -0.00000
H 	H 	0.37020 0.57030 0.98150 0.04600
C 	C 	0.56041 0.53886 0.03460 -0.00600
H 	H 	0.60250 0.56550 0.05900 0.05100
C 	C 	0.66238 0.72285 0.99314 -0.00400
H 	H 	0.60110 0.72360 0.98800 0.04600
C 	C 	0.78383 0.72298 0.05453 0.00800
H 	H 	0.80800 0.72400 0.09260 0.06000
O 	O 	0.96965 0.15809 0.54303 -0.24000
O 	O 	0.14686 0.21662 0.59324 -0.31700
N 	N 	0.98449 0.08037 0.52293 0.07300
N 	N 	0.19642 0.22167 0.54745 -0.03900
C 	C 	0.92377 0.04168 0.48897 -0.05400
H 	H 	0.87020 0.07030 0.48150 0.07400
C 	C 	0.06041 0.03886 0.53460 -0.19800
H 	H 	0.10250 0.06550 0.55900 0.10000
C 	C 	0.16238 0.22285 0.49314 -0.00100
H 	H 	0.10110 0.22360 0.48800 0.01600
C 	C 	0.28383 0.22298 0.55453 0.00000
H 	H 	0.30800 0.22400 0.59260 0.04700
O 	O 	0.90809 0.21965 0.70697 -0.24200
O 	O 	0.96662 0.39686 0.65676 -0.24000
N 	N 	0.83037 0.23449 0.72707 -0.03800
N 	N 	0.97167 0.44642 0.70255 -0.03100
C 	C 	0.79168 0.17377 0.76103 0.01000
H 	H 	0.82030 0.12020 0.76850 0.07300
C 	C 	0.78886 0.31041 0.71540 0.00300
H 	H 	0.81550 0.35250 0.69100 0.05100
C 	C 	0.97285 0.41238 0.75686 0.01900
H 	H 	0.97360 0.35110 0.76200 0.08200
C 	C 	0.97298 0.53383 0.69547 0.02500
H 	H 	0.97400 0.55800 0.65740 0.07100
O 	O 	0.40809 0.71965 0.20697 -0.35800
O 	O 	0.46662 0.89686 0.15676 -0.34600
N 	N 	0.33037 0.73449 0.22707 -0.03000
N 	N 	0.47167 0.94642 0.20255 -0.03300
C 	C 	0.29168 0.67377 0.26103 0.00100
H 	H 	0.32030 0.62020 0.26850 0.04700
C 	C 	0.28886 0.81041 0.21540 -0.00900
H 	H 	0.31550 0.85250 0.19100 0.04600
C 	C 	0.47285 0.91238 0.25686 -0.00500
H 	H 	0.47360 0.85110 0.26200 0.04600
C 	C 	0.47298 0.03383 0.19547 -0.00100
H 	H 	0.47400 0.05800 0.15740 0.04700
O 	O 	0.59191 0.78035 0.20697 -0.35700
O 	O 	0.53338 0.60314 0.15676 -0.34400
N 	N 	0.66963 0.76551 0.22707 -0.02900
N 	N 	0.52833 0.55358 0.20255 -0.03200
C 	C 	0.70832 0.82623 0.26103 -0.00100
H 	H 	0.67970 0.87980 0.26850 0.04800
C 	C 	0.71114 0.68959 0.21540 -0.00400
H 	H 	0.68450 0.64750 0.19100 0.05200
C 	C 	0.52715 0.58762 0.25686 -0.00300
H 	H 	0.52640 0.64890 0.26200 0.04600
C 	C 	0.52702 0.46617 0.19547 0.00200
H 	H 	0.52600 0.44200 0.15740 0.04800
O 	O 	0.09191 0.28035 0.70697 -0.36600
O 	O 	0.03338 0.10314 0.65676 -0.34600
N 	N 	0.16963 0.26551 0.72707 -0.03300
N 	N 	0.02833 0.05358 0.70255 -0.04200
C 	C 	0.20832 0.32623 0.76103 -0.00500
H 	H 	0.17970 0.37980 0.76850 0.02300
C 	C 	0.21114 0.18959 0.71540 -0.01000
H 	H 	0.18450 0.14750 0.69100 0.05400
C 	C 	0.02715 0.08762 0.75686 -0.02300
H 	H 	0.02640 0.14890 0.76200 0.01900
C 	C 	0.02702 0.96617 0.69547 -0.02000
H 	H 	0.02600 0.94200 0.65740 0.02500
O 	O 	0.46965 0.34191 0.45697 -0.35800
O 	O 	0.64686 0.28338 0.40676 -0.34300
N 	N 	0.48449 0.41963 0.47707 -0.03000
N 	N 	0.69642 0.27833 0.45255 -0.03200
C 	C 	0.42377 0.45832 0.51103 -0.00000
H 	H 	0.37020 0.42970 0.51850 0.04600
C 	C 	0.56041 0.46114 0.46540 -0.00600
H 	H 	0.60250 0.43450 0.44100 0.05100
C 	C 	0.66238 0.27715 0.50686 -0.00300
H 	H 	0.60110 0.27640 0.51200 0.04600
C 	C 	0.78383 0.27702 0.44547 0.00800
H 	H 	0.80800 0.27600 0.40740 0.06000
O 	O 	0.96965 0.84191 0.95697 -0.24100
O 	O 	0.14686 0.78338 0.90676 -0.31700
N 	N 	0.98449 0.91963 0.97707 0.07200
N 	N 	0.19642 0.77833 0.95255 -0.03900
C 	C 	0.92377 0.95832 0.01103 -0.05400
H 	H 	0.87020 0.92970 0.01850 0.07300
C 	C 	0.06041 0.96114 0.96540 -0.19600
H 	H 	0.10250 0.93450 0.94100 0.10000
C 	C 	0.16238 0.77715 0.00686 -0.00100
H 	H 	0.10110 0.77640 0.01200 0.01600
C 	C 	0.28383 0.77702 0.94547 0.00000
H 	H 	0.30800 0.77600 0.90740 0.04700
O 	O 	0.03035 0.65809 0.95697 -0.36800
O 	O 	0.85314 0.71662 0.90676 -0.27100
N 	N 	0.01551 0.58037 0.97707 -0.14300
N 	N 	0.80358 0.72167 0.95255 -0.03500
C 	C 	0.07623 0.54168 0.01103 0.05800
H 	H 	0.12980 0.57030 0.01850 0.02100
C 	C 	0.93959 0.53886 0.96540 0.19100
H 	H 	0.89750 0.56550 0.94100 0.00400
C 	C 	0.83762 0.72285 0.00686 -0.00400
H 	H 	0.89890 0.72360 0.01200 0.08500
C 	C 	0.71617 0.72298 0.94547 0.00400
H 	H 	0.69200 0.72400 0.90740 0.04800
O 	O 	0.53035 0.15809 0.45697 -0.35800
O 	O 	0.35314 0.21662 0.40676 -0.34700
N 	N 	0.51551 0.08037 0.47707 -0.03000
N 	N 	0.30358 0.22167 0.45255 -0.03200
C 	C 	0.57623 0.04168 0.51103 0.00000
H 	H 	0.62980 0.07030 0.51850 0.05000
C 	C 	0.43959 0.03886 0.46540 -0.00600
H 	H 	0.39750 0.06550 0.44100 0.04700
C 	C 	0.33762 0.22285 0.50686 -0.00600
H 	H 	0.39890 0.22360 0.51200 0.04600
C 	C 	0.21617 0.22298 0.44547 -0.00700
H 	H 	0.19200 0.22400 0.40740 0.03600
O 	O 	0.40809 0.78035 0.70697 -0.35800
O 	O 	0.46662 0.60314 0.65676 -0.34600
N 	N 	0.33037 0.76551 0.72707 -0.03000
N 	N 	0.47167 0.55358 0.70255 -0.03200
C 	C 	0.29168 0.82623 0.76103 0.00100
H 	H 	0.32030 0.87980 0.76850 0.04700
C 	C 	0.28886 0.68959 0.71540 -0.00900
H 	H 	0.31550 0.64750 0.69100 0.04600
C 	C 	0.47285 0.58762 0.75686 -0.00500
H 	H 	0.47360 0.64890 0.76200 0.04600
C 	C 	0.47298 0.46617 0.69547 -0.00100
H 	H 	0.47400 0.44200 0.65740 0.04700
O 	O 	0.90809 0.28035 0.20697 -0.24200
O 	O 	0.96662 0.10314 0.15676 -0.24100
N 	N 	0.83037 0.26551 0.22707 -0.03700
N 	N 	0.97167 0.05358 0.20255 -0.03100
C 	C 	0.79168 0.32623 0.26103 0.01000
H 	H 	0.82030 0.37980 0.26850 0.07300
C 	C 	0.78886 0.18959 0.21540 0.00300
H 	H 	0.81550 0.14750 0.19100 0.05100
C 	C 	0.97285 0.08762 0.25686 0.01900
H 	H 	0.97360 0.14890 0.26200 0.08200
C 	C 	0.97298 0.96617 0.19547 0.02300
H 	H 	0.97400 0.94200 0.15740 0.07100
O 	O 	0.09191 0.21965 0.20697 -0.36600
O 	O 	0.03338 0.39686 0.15676 -0.34700
N 	N 	0.16963 0.23449 0.22707 -0.03300
N 	N 	0.02833 0.44642 0.20255 -0.04200
C 	C 	0.20832 0.17377 0.26103 -0.00500
H 	H 	0.17970 0.12020 0.26850 0.02300
C 	C 	0.21114 0.31041 0.21540 -0.01000
H 	H 	0.18450 0.35250 0.19100 0.05400
C 	C 	0.02715 0.41238 0.25686 -0.02300
H 	H 	0.02640 0.35110 0.26200 0.01900
C 	C 	0.02702 0.53383 0.19547 -0.02000
H 	H 	0.02600 0.55800 0.15740 0.02500
O 	O 	0.59191 0.71965 0.70697 -0.35700
O 	O 	0.53338 0.89686 0.65676 -0.34400
N 	N 	0.66963 0.73449 0.72707 -0.02900
N 	N 	0.52833 0.94642 0.70255 -0.03200
C 	C 	0.70832 0.67377 0.76103 -0.00100
H 	H 	0.67970 0.62020 0.76850 0.04800
C 	C 	0.71114 0.81041 0.71540 -0.00400
H 	H 	0.68450 0.85250 0.69100 0.05200
C 	C 	0.52715 0.91238 0.75686 -0.00300
H 	H 	0.52640 0.85110 0.76200 0.04600
C 	C 	0.52702 0.03383 0.69547 0.00100
H 	H 	0.52600 0.05800 0.65740 0.04800
O 	O 	0.96965 0.65809 0.45697 -0.23900
O 	O 	0.14686 0.71662 0.40676 -0.31700
N 	N 	0.98449 0.58037 0.47707 0.07400
N 	N 	0.19642 0.72167 0.45255 -0.03900
C 	C 	0.92377 0.54168 0.51103 -0.05400
H 	H 	0.87020 0.57030 0.51850 0.07400
C 	C 	0.06041 0.53886 0.46540 -0.20100
H 	H 	0.10250 0.56550 0.44100 0.10100
C 	C 	0.16238 0.72285 0.50686 -0.00100
H 	H 	0.10110 0.72360 0.51200 0.01500
C 	C 	0.28383 0.72298 0.44547 0.00000
H 	H 	0.30800 0.72400 0.40740 0.04700
O 	O 	0.46965 0.15809 0.95697 -0.35800
O 	O 	0.64686 0.21662 0.90676 -0.34300
N 	N 	0.48449 0.08037 0.97707 -0.03000
N 	N 	0.69642 0.22167 0.95255 -0.03200
C 	C 	0.42377 0.04168 0.01103 -0.00000
H 	H 	0.37020 0.07030 0.01850 0.04600
C 	C 	0.56041 0.03886 0.96540 -0.00600
H 	H 	0.60250 0.06550 0.94100 0.05100
C 	C 	0.66238 0.22285 0.00686 -0.00400
H 	H 	0.60110 0.22360 0.01200 0.04600
C 	C 	0.78383 0.22298 0.94547 0.00800
H 	H 	0.80800 0.22400 0.90740 0.06000
O 	O 	0.53035 0.34191 0.95697 -0.35800
O 	O 	0.35314 0.28338 0.90676 -0.34700
N 	N 	0.51551 0.41963 0.97707 -0.03000
N 	N 	0.30358 0.27833 0.95255 -0.03200
C 	C 	0.57623 0.45832 0.01103 0.00000
H 	H 	0.62980 0.42970 0.01850 0.05000
C 	C 	0.43959 0.46114 0.96540 -0.00600
H 	H 	0.39750 0.43450 0.94100 0.04700
C 	C 	0.33762 0.27715 0.00686 -0.00600
H 	H 	0.39890 0.27640 0.01200 0.04600
C 	C 	0.21617 0.27702 0.94547 -0.00700
H 	H 	0.19200 0.27600 0.90740 0.03600
O 	O 	0.03035 0.84191 0.45697 -0.36800
O 	O 	0.85314 0.78338 0.40676 -0.27100
N 	N 	0.01551 0.91963 0.47707 -0.14200
N 	N 	0.80358 0.77833 0.45255 -0.03500
C 	C 	0.07623 0.95832 0.51103 0.05800
H 	H 	0.12980 0.92970 0.51850 0.02100
C 	C 	0.93959 0.96114 0.46540 0.19000
H 	H 	0.89750 0.93450 0.44100 0.00400
C 	C 	0.83762 0.77715 0.50686 -0.00400
H 	H 	0.89890 0.77640 0.51200 0.08500
C 	C 	0.71617 0.77702 0.44547 0.00400
H 	H 	0.69200 0.77600 0.40740 0.04800
O 	O 	0.09191 0.78035 0.29303 -0.36600
O 	O 	0.03338 0.60314 0.34324 -0.34700
N 	N 	0.16963 0.76551 0.27293 -0.03300
N 	N 	0.02833 0.55358 0.29745 -0.04200
C 	C 	0.20832 0.82623 0.23897 -0.00500
H 	H 	0.17970 0.87980 0.23150 0.02300
C 	C 	0.21114 0.68959 0.28460 -0.01000
H 	H 	0.18450 0.64750 0.30900 0.05400
C 	C 	0.02715 0.58762 0.24314 -0.02300
H 	H 	0.02640 0.64890 0.23800 0.01900
C 	C 	0.02702 0.46617 0.30453 -0.02000
H 	H 	0.02600 0.44200 0.34260 0.02500
O 	O 	0.59191 0.28035 0.79303 -0.35700
O 	O 	0.53338 0.10314 0.84324 -0.34400
N 	N 	0.66963 0.26551 0.77293 -0.02900
N 	N 	0.52833 0.05358 0.79745 -0.03200
C 	C 	0.70832 0.32623 0.73897 -0.00100
H 	H 	0.67970 0.37980 0.73150 0.04800
C 	C 	0.71114 0.18959 0.78460 -0.00400
H 	H 	0.68450 0.14750 0.80900 0.05200
C 	C 	0.52715 0.08762 0.74314 -0.00300
H 	H 	0.52640 0.14890 0.73800 0.04600
C 	C 	0.52702 0.96617 0.80453 0.00100
H 	H 	0.52600 0.94200 0.84260 0.04800
O 	O 	0.40809 0.21965 0.79303 -0.35800
O 	O 	0.46662 0.39686 0.84324 -0.34600
N 	N 	0.33037 0.23449 0.77293 -0.03000
N 	N 	0.47167 0.44642 0.79745 -0.03200
C 	C 	0.29168 0.17377 0.73897 0.00100
H 	H 	0.32030 0.12020 0.73150 0.04700
C 	C 	0.28886 0.31041 0.78460 -0.00900
H 	H 	0.31550 0.35250 0.80900 0.04600
C 	C 	0.47285 0.41238 0.74314 -0.00500
H 	H 	0.47360 0.35110 0.73800 0.04600
C 	C 	0.47298 0.53383 0.80453 -0.00100
H 	H 	0.47400 0.55800 0.84260 0.04700
O 	O 	0.90809 0.71965 0.29303 -0.24100
O 	O 	0.96662 0.89686 0.34324 -0.24000
N 	N 	0.83037 0.73449 0.27293 -0.03800
N 	N 	0.97167 0.94642 0.29745 -0.03100
C 	C 	0.79168 0.67377 0.23897 0.01000
H 	H 	0.82030 0.62020 0.23150 0.07300
C 	C 	0.78886 0.81041 0.28460 0.00300
H 	H 	0.81550 0.85250 0.30900 0.05100
C 	C 	0.97285 0.91238 0.24314 0.01900
H 	H 	0.97360 0.85110 0.23800 0.08200
C 	C 	0.97298 0.03383 0.30453 0.02300
H 	H 	0.97400 0.05800 0.34260 0.07100
O 	O 	0.53035 0.65809 0.54303 -0.35800
O 	O 	0.35314 0.71662 0.59324 -0.34700
N 	N 	0.51551 0.58037 0.52293 -0.03000
N 	N 	0.30358 0.72167 0.54745 -0.03200
C 	C 	0.57623 0.54168 0.48897 0.00100
H 	H 	0.62980 0.57030 0.48150 0.05000
C 	C 	0.43959 0.53886 0.53460 -0.00600
H 	H 	0.39750 0.56550 0.55900 0.04700
C 	C 	0.33762 0.72285 0.49314 -0.00600
H 	H 	0.39890 0.72360 0.48800 0.04600
C 	C 	0.21617 0.72298 0.55453 -0.00700
H 	H 	0.19200 0.72400 0.59260 0.03600
O 	O 	0.03035 0.15809 0.04303 -0.36800
O 	O 	0.85314 0.21662 0.09324 -0.27100
N 	N 	0.01551 0.08037 0.02293 -0.14100
N 	N 	0.80358 0.22167 0.04745 -0.03500
C 	C 	0.07623 0.04168 0.98897 0.05800
H 	H 	0.12980 0.07030 0.98150 0.02200
C 	C 	0.93959 0.03886 0.03460 0.18900
H 	H 	0.89750 0.06550 0.05900 0.00500
C 	C 	0.83762 0.22285 0.99314 -0.00400
H 	H 	0.89890 0.22360 0.98800 0.08400
C 	C 	0.71617 0.22298 0.05453 0.00400
H 	H 	0.69200 0.22400 0.09260 0.04800
O 	O 	0.96965 0.34191 0.04303 -0.24000
O 	O 	0.14686 0.28338 0.09324 -0.31700
N 	N 	0.98449 0.41963 0.02293 0.07300
N 	N 	0.19642 0.27833 0.04745 -0.03900
C 	C 	0.92377 0.45832 0.98897 -0.05400
H 	H 	0.87020 0.42970 0.98150 0.07400
C 	C 	0.06041 0.46114 0.03460 -0.19800
H 	H 	0.10250 0.43450 0.05900 0.10100
C 	C 	0.16238 0.27715 0.99314 -0.00100
H 	H 	0.10110 0.27640 0.98800 0.01600
C 	C 	0.28383 0.27702 0.05453 0.00000
H 	H 	0.30800 0.27600 0.09260 0.04700
O 	O 	0.46965 0.84191 0.54303 -0.35800
O 	O 	0.64686 0.78338 0.59324 -0.34300
N 	N 	0.48449 0.91963 0.52293 -0.03000
N 	N 	0.69642 0.77833 0.54745 -0.03200
C 	C 	0.42377 0.95832 0.48897 -0.00000
H 	H 	0.37020 0.92970 0.48150 0.04600
C 	C 	0.56041 0.96114 0.53460 -0.00600
H 	H 	0.60250 0.93450 0.55900 0.05100
C 	C 	0.66238 0.77715 0.49314 -0.00300
H 	H 	0.60110 0.77640 0.48800 0.04600
C 	C 	0.78383 0.77702 0.55453 0.00800
H 	H 	0.80800 0.77600 0.59260 0.06000
Nd	Nd	0.50000 0.25000 0.37500 2.34500
Nd	Nd	-0.00000 0.75000 0.87500 1.88600
Nd	Nd	-0.00000 0.25000 0.62500 1.88300
Nd	Nd	0.50000 0.75000 0.12500 2.34500
Nd	Nd	0.50000 0.75000 0.62500 2.34500
Nd	Nd	-0.00000 0.25000 0.12500 1.88700
Nd	Nd	0.00000 0.75000 0.37500 1.88400
Nd	Nd	0.50000 0.25000 0.87500 2.34500
