data_crystal

_cell_length_a 15.25530
_cell_length_b 15.25530
_cell_length_c 22.66670
_cell_angle_alpha 90.00000
_cell_angle_beta  90.00000
_cell_angle_gamma 90.00000

_symmetry_space_group_name_	'P 1'
_symmetry_space_group_name_H-M	'P 1'

loop_
_symmetry_equiv_pos_as_xyz
  x,y,z

loop_
_atom_site_label
_atom_site_type_symbol
_atom_site_fract_x
_atom_site_fract_y
_atom_site_fract_z
_atom_site_charge
O 	O 	0.59121 0.21876 0.29510 -0.30700
O 	O 	0.53217 0.39451 0.34383 -0.29400
N 	N 	0.66943 0.23424 0.27415 -0.03400
N 	N 	0.52711 0.44491 0.29779 -0.03600
C 	C 	0.70896 0.17248 0.24020 -0.00100
H 	H 	0.68070 0.11790 0.23350 0.05000
C 	C 	0.78920 0.18838 0.21566 0.00300
H 	H 	0.81610 0.14530 0.19140 0.05500
C 	C 	0.52600 0.41183 0.24253 -0.00100
H 	H 	0.52520 0.35010 0.23680 0.05100
C 	C 	0.52588 0.46669 0.19470 0.00100
H 	H 	0.52500 0.44280 0.15600 0.05000
O 	O 	0.09121 0.71876 0.79510 -0.32100
O 	O 	0.03217 0.89451 0.84383 -0.30300
N 	N 	0.16943 0.73424 0.77415 -0.03600
N 	N 	0.02711 0.94491 0.79779 -0.04300
C 	C 	0.20896 0.67248 0.74020 -0.00400
H 	H 	0.18070 0.61790 0.73350 0.02900
C 	C 	0.28920 0.68838 0.71566 -0.00600
H 	H 	0.31610 0.64530 0.69140 0.05200
C 	C 	0.02600 0.91183 0.74253 -0.01700
H 	H 	0.02520 0.85010 0.73680 0.02700
C 	C 	0.02588 0.96669 0.69470 -0.01700
H 	H 	0.02500 0.94280 0.65600 0.03100
O 	O 	0.90879 0.78124 0.79510 -0.21600
O 	O 	0.96783 0.60549 0.84383 -0.21200
N 	N 	0.83057 0.76576 0.77415 -0.04000
N 	N 	0.97289 0.55509 0.79779 -0.03400
C 	C 	0.79104 0.82752 0.74020 0.01000
H 	H 	0.81930 0.88210 0.73350 0.07100
C 	C 	0.71080 0.81162 0.71566 -0.00200
H 	H 	0.68390 0.85470 0.69140 0.05700
C 	C 	0.97400 0.58817 0.74253 0.01700
H 	H 	0.97480 0.64990 0.73680 0.08100
C 	C 	0.97412 0.53331 0.69470 0.02100
H 	H 	0.97500 0.55720 0.65600 0.06900
O 	O 	0.40879 0.28124 0.29510 -0.30700
O 	O 	0.46783 0.10549 0.34383 -0.29400
N 	N 	0.33057 0.26576 0.27415 -0.03400
N 	N 	0.47289 0.05509 0.29779 -0.03600
C 	C 	0.29104 0.32752 0.24020 0.00200
H 	H 	0.31930 0.38210 0.23350 0.04900
C 	C 	0.21080 0.31162 0.21566 -0.00700
H 	H 	0.18390 0.35470 0.19140 0.05800
C 	C 	0.47400 0.08817 0.24253 -0.00200
H 	H 	0.47480 0.14990 0.23680 0.05100
C 	C 	0.47412 0.03331 0.19470 -0.00100
H 	H 	0.47500 0.05720 0.15600 0.05000
O 	O 	0.03124 0.34121 0.54510 -0.32200
O 	O 	0.85549 0.28217 0.59383 -0.23800
N 	N 	0.01576 0.41943 0.52415 -0.12800
N 	N 	0.80509 0.27711 0.54779 -0.03700
C 	C 	0.07752 0.45896 0.49020 0.05100
H 	H 	0.13210 0.43070 0.48350 0.02800
C 	C 	0.06162 0.53920 0.46566 -0.16600
H 	H 	0.10470 0.56610 0.44140 0.09800
C 	C 	0.83817 0.27600 0.49253 -0.00100
H 	H 	0.89990 0.27520 0.48680 0.08300
C 	C 	0.78331 0.27588 0.44470 0.00600
H 	H 	0.80720 0.27500 0.40600 0.06000
O 	O 	0.53124 0.84121 0.04510 -0.30700
O 	O 	0.35549 0.78217 0.09383 -0.29500
N 	N 	0.51576 0.91943 0.02415 -0.03400
N 	N 	0.30509 0.77711 0.04779 -0.03500
C 	C 	0.57752 0.95896 0.99020 0.00100
H 	H 	0.63210 0.93070 0.98350 0.05200
C 	C 	0.56162 0.03920 0.96566 -0.00400
H 	H 	0.60470 0.06610 0.94140 0.05600
C 	C 	0.33817 0.77600 0.99253 -0.00300
H 	H 	0.39990 0.77520 0.98680 0.05100
C 	C 	0.28331 0.77588 0.94470 0.00000
H 	H 	0.30720 0.77500 0.90600 0.05000
O 	O 	0.46876 0.65879 0.04510 -0.30700
O 	O 	0.64451 0.71783 0.09383 -0.29200
N 	N 	0.48424 0.58057 0.02415 -0.03400
N 	N 	0.69491 0.72289 0.04779 -0.03500
C 	C 	0.42248 0.54104 0.99020 0.00100
H 	H 	0.36790 0.56930 0.98350 0.04900
C 	C 	0.43838 0.46080 0.96566 -0.00400
H 	H 	0.39530 0.43390 0.94140 0.05300
C 	C 	0.66183 0.72400 0.99253 -0.00100
H 	H 	0.60010 0.72480 0.98680 0.05100
C 	C 	0.71669 0.72412 0.94470 0.00400
H 	H 	0.69280 0.72500 0.90600 0.05000
O 	O 	0.96876 0.15879 0.54510 -0.21500
O 	O 	0.14451 0.21783 0.59383 -0.27700
N 	N 	0.98424 0.08057 0.52415 0.05300
N 	N 	0.19491 0.22289 0.54779 -0.04100
C 	C 	0.92248 0.04104 0.49020 -0.04500
H 	H 	0.86790 0.06930 0.48350 0.07200
C 	C 	0.93838 0.96080 0.46566 0.16000
H 	H 	0.89530 0.93390 0.44140 0.01600
C 	C 	0.16183 0.22400 0.49253 0.00200
H 	H 	0.10010 0.22480 0.48680 0.02500
C 	C 	0.21669 0.22412 0.44470 -0.00600
H 	H 	0.19280 0.22500 0.40600 0.04000
O 	O 	0.90879 0.21876 0.70490 -0.21600
O 	O 	0.96783 0.39451 0.65617 -0.21200
N 	N 	0.83057 0.23424 0.72585 -0.04000
N 	N 	0.97289 0.44491 0.70221 -0.03400
C 	C 	0.79104 0.17248 0.75980 0.01000
H 	H 	0.81930 0.11790 0.76650 0.07100
C 	C 	0.71080 0.18838 0.78434 -0.00200
H 	H 	0.68390 0.14530 0.80860 0.05700
C 	C 	0.97400 0.41183 0.75747 0.01700
H 	H 	0.97480 0.35010 0.76320 0.08100
C 	C 	0.97412 0.46669 0.80530 0.02100
H 	H 	0.97500 0.44280 0.84400 0.06900
O 	O 	0.40879 0.71876 0.20490 -0.30700
O 	O 	0.46783 0.89451 0.15617 -0.29400
N 	N 	0.33057 0.73424 0.22585 -0.03400
N 	N 	0.47289 0.94491 0.20221 -0.03600
C 	C 	0.29104 0.67248 0.25980 0.00200
H 	H 	0.31930 0.61790 0.26650 0.04900
C 	C 	0.21080 0.68838 0.28434 -0.00700
H 	H 	0.18390 0.64530 0.30860 0.05800
C 	C 	0.47400 0.91183 0.25747 -0.00200
H 	H 	0.47480 0.85010 0.26320 0.05100
C 	C 	0.47412 0.96669 0.30530 -0.00100
H 	H 	0.47500 0.94280 0.34400 0.05000
O 	O 	0.59121 0.78124 0.20490 -0.30600
O 	O 	0.53217 0.60549 0.15617 -0.29300
N 	N 	0.66943 0.76576 0.22585 -0.03300
N 	N 	0.52711 0.55509 0.20221 -0.03500
C 	C 	0.70896 0.82752 0.25980 -0.00000
H 	H 	0.68070 0.88210 0.26650 0.05100
C 	C 	0.78920 0.81162 0.28434 0.00400
H 	H 	0.81610 0.85470 0.30860 0.05500
C 	C 	0.52600 0.58817 0.25747 -0.00100
H 	H 	0.52520 0.64990 0.26320 0.05100
C 	C 	0.52588 0.53331 0.30530 0.00100
H 	H 	0.52500 0.55720 0.34400 0.05000
O 	O 	0.09121 0.28124 0.70490 -0.32100
O 	O 	0.03217 0.10549 0.65617 -0.30300
N 	N 	0.16943 0.26576 0.72585 -0.03600
N 	N 	0.02711 0.05509 0.70221 -0.04300
C 	C 	0.20896 0.32752 0.75980 -0.00400
H 	H 	0.18070 0.38210 0.76650 0.02900
C 	C 	0.28920 0.31162 0.78434 -0.00600
H 	H 	0.31610 0.35470 0.80860 0.05200
C 	C 	0.02600 0.08817 0.75747 -0.01800
H 	H 	0.02520 0.14990 0.76320 0.02700
C 	C 	0.02588 0.03331 0.80530 -0.01700
H 	H 	0.02500 0.05720 0.84400 0.03100
O 	O 	0.46876 0.34121 0.45490 -0.30700
O 	O 	0.64451 0.28217 0.40617 -0.29200
N 	N 	0.48424 0.41943 0.47585 -0.03400
N 	N 	0.69491 0.27711 0.45221 -0.03500
C 	C 	0.42248 0.45896 0.50980 0.00100
H 	H 	0.36790 0.43070 0.51650 0.04900
C 	C 	0.43838 0.53920 0.53434 -0.00400
H 	H 	0.39530 0.56610 0.55860 0.05300
C 	C 	0.66183 0.27600 0.50747 -0.00100
H 	H 	0.60010 0.27520 0.51320 0.05100
C 	C 	0.71669 0.27588 0.55530 0.00400
H 	H 	0.69280 0.27500 0.59400 0.05000
O 	O 	0.96876 0.84121 0.95490 -0.21600
O 	O 	0.14451 0.78217 0.90617 -0.27700
N 	N 	0.98424 0.91943 0.97585 0.05200
N 	N 	0.19491 0.77711 0.95221 -0.04100
C 	C 	0.92248 0.95896 0.00980 -0.04500
H 	H 	0.86790 0.93070 0.01650 0.07200
C 	C 	0.93838 0.03920 0.03434 0.15800
H 	H 	0.89530 0.06610 0.05860 0.01600
C 	C 	0.16183 0.77600 0.00747 0.00200
H 	H 	0.10010 0.77520 0.01320 0.02500
C 	C 	0.21669 0.77588 0.05530 -0.00600
H 	H 	0.19280 0.77500 0.09400 0.04100
O 	O 	0.03124 0.65879 0.95490 -0.32200
O 	O 	0.85549 0.71783 0.90617 -0.23900
N 	N 	0.01576 0.58057 0.97585 -0.12700
N 	N 	0.80509 0.72289 0.95221 -0.03700
C 	C 	0.07752 0.54104 0.00980 0.05000
H 	H 	0.13210 0.56930 0.01650 0.02800
C 	C 	0.06162 0.46080 0.03434 -0.16400
H 	H 	0.10470 0.43390 0.05860 0.09700
C 	C 	0.83817 0.72400 0.00747 -0.00200
H 	H 	0.89990 0.72480 0.01320 0.08200
C 	C 	0.78331 0.72412 0.05530 0.00600
H 	H 	0.80720 0.72500 0.09400 0.06000
O 	O 	0.53124 0.15879 0.45490 -0.30700
O 	O 	0.35549 0.21783 0.40617 -0.29500
N 	N 	0.51576 0.08057 0.47585 -0.03400
N 	N 	0.30509 0.22289 0.45221 -0.03500
C 	C 	0.57752 0.04104 0.50980 0.00200
H 	H 	0.63210 0.06930 0.51650 0.05200
C 	C 	0.56162 0.96080 0.53434 -0.00400
H 	H 	0.60470 0.93390 0.55860 0.05600
C 	C 	0.33817 0.22400 0.50747 -0.00300
H 	H 	0.39990 0.22480 0.51320 0.05100
C 	C 	0.28331 0.22412 0.55530 0.00000
H 	H 	0.30720 0.22500 0.59400 0.05000
O 	O 	0.40879 0.78124 0.70490 -0.30700
O 	O 	0.46783 0.60549 0.65617 -0.29400
N 	N 	0.33057 0.76576 0.72585 -0.03400
N 	N 	0.47289 0.55509 0.70221 -0.03600
C 	C 	0.29104 0.82752 0.75980 0.00200
H 	H 	0.31930 0.88210 0.76650 0.04900
C 	C 	0.21080 0.81162 0.78434 -0.00700
H 	H 	0.18390 0.85470 0.80860 0.05800
C 	C 	0.47400 0.58817 0.75747 -0.00200
H 	H 	0.47480 0.64990 0.76320 0.05100
C 	C 	0.47412 0.53331 0.80530 -0.00100
H 	H 	0.47500 0.55720 0.84400 0.05000
O 	O 	0.90879 0.28124 0.20490 -0.21600
O 	O 	0.96783 0.10549 0.15617 -0.21300
N 	N 	0.83057 0.26576 0.22585 -0.04000
N 	N 	0.97289 0.05509 0.20221 -0.03400
C 	C 	0.79104 0.32752 0.25980 0.01000
H 	H 	0.81930 0.38210 0.26650 0.07100
C 	C 	0.71080 0.31162 0.28434 -0.00200
H 	H 	0.68390 0.35470 0.30860 0.05700
C 	C 	0.97400 0.08817 0.25747 0.01700
H 	H 	0.97480 0.14990 0.26320 0.08100
C 	C 	0.97412 0.03331 0.30530 0.02000
H 	H 	0.97500 0.05720 0.34400 0.06900
O 	O 	0.09121 0.21876 0.20490 -0.32100
O 	O 	0.03217 0.39451 0.15617 -0.30300
N 	N 	0.16943 0.23424 0.22585 -0.03600
N 	N 	0.02711 0.44491 0.20221 -0.04300
C 	C 	0.20896 0.17248 0.25980 -0.00400
H 	H 	0.18070 0.11790 0.26650 0.03000
C 	C 	0.28920 0.18838 0.28434 -0.00600
H 	H 	0.31610 0.14530 0.30860 0.05200
C 	C 	0.02600 0.41183 0.25747 -0.01800
H 	H 	0.02520 0.35010 0.26320 0.02700
C 	C 	0.02588 0.46669 0.30530 -0.01700
H 	H 	0.02500 0.44280 0.34400 0.03100
O 	O 	0.59121 0.71876 0.70490 -0.30600
O 	O 	0.53217 0.89451 0.65617 -0.29300
N 	N 	0.66943 0.73424 0.72585 -0.03300
N 	N 	0.52711 0.94491 0.70221 -0.03500
C 	C 	0.70896 0.67248 0.75980 -0.00000
H 	H 	0.68070 0.61790 0.76650 0.05100
C 	C 	0.78920 0.68838 0.78434 0.00300
H 	H 	0.81610 0.64530 0.80860 0.05500
C 	C 	0.52600 0.91183 0.75747 -0.00100
H 	H 	0.52520 0.85010 0.76320 0.05100
C 	C 	0.52588 0.96669 0.80530 0.00100
H 	H 	0.52500 0.94280 0.84400 0.05000
O 	O 	0.96876 0.65879 0.45490 -0.21500
O 	O 	0.14451 0.71783 0.40617 -0.27700
N 	N 	0.98424 0.58057 0.47585 0.05400
N 	N 	0.19491 0.72289 0.45221 -0.04100
C 	C 	0.92248 0.54104 0.50980 -0.04500
H 	H 	0.86790 0.56930 0.51650 0.07200
C 	C 	0.93838 0.46080 0.53434 0.16200
H 	H 	0.89530 0.43390 0.55860 0.01600
C 	C 	0.16183 0.72400 0.50747 0.00200
H 	H 	0.10010 0.72480 0.51320 0.02500
C 	C 	0.21669 0.72412 0.55530 -0.00600
H 	H 	0.19280 0.72500 0.59400 0.04000
O 	O 	0.46876 0.15879 0.95490 -0.30700
O 	O 	0.64451 0.21783 0.90617 -0.29200
N 	N 	0.48424 0.08057 0.97585 -0.03400
N 	N 	0.69491 0.22289 0.95221 -0.03500
C 	C 	0.42248 0.04104 0.00980 0.00100
H 	H 	0.36790 0.06930 0.01650 0.04900
C 	C 	0.43838 0.96080 0.03434 -0.00400
H 	H 	0.39530 0.93390 0.05860 0.05300
C 	C 	0.66183 0.22400 0.00747 -0.00100
H 	H 	0.60010 0.22480 0.01320 0.05100
C 	C 	0.71669 0.22412 0.05530 0.00400
H 	H 	0.69280 0.22500 0.09400 0.05000
O 	O 	0.53124 0.34121 0.95490 -0.30700
O 	O 	0.35549 0.28217 0.90617 -0.29500
N 	N 	0.51576 0.41943 0.97585 -0.03400
N 	N 	0.30509 0.27711 0.95221 -0.03500
C 	C 	0.57752 0.45896 0.00980 0.00200
H 	H 	0.63210 0.43070 0.01650 0.05200
C 	C 	0.56162 0.53920 0.03434 -0.00400
H 	H 	0.60470 0.56610 0.05860 0.05600
C 	C 	0.33817 0.27600 0.00747 -0.00300
H 	H 	0.39990 0.27520 0.01320 0.05100
C 	C 	0.28331 0.27588 0.05530 0.00000
H 	H 	0.30720 0.27500 0.09400 0.05000
O 	O 	0.03124 0.84121 0.45490 -0.32200
O 	O 	0.85549 0.78217 0.40617 -0.23900
N 	N 	0.01576 0.91943 0.47585 -0.12700
N 	N 	0.80509 0.77711 0.45221 -0.03700
C 	C 	0.07752 0.95896 0.50980 0.05000
H 	H 	0.13210 0.93070 0.51650 0.02800
C 	C 	0.06162 0.03920 0.53434 -0.16400
H 	H 	0.10470 0.06610 0.55860 0.09700
C 	C 	0.83817 0.77600 0.50747 -0.00100
H 	H 	0.89990 0.77520 0.51320 0.08300
C 	C 	0.78331 0.77588 0.55530 0.00600
H 	H 	0.80720 0.77500 0.59400 0.06000
O 	O 	0.09121 0.78124 0.29510 -0.32100
O 	O 	0.03217 0.60549 0.34383 -0.30300
N 	N 	0.16943 0.76576 0.27415 -0.03600
N 	N 	0.02711 0.55509 0.29779 -0.04400
C 	C 	0.20896 0.82752 0.24020 -0.00400
H 	H 	0.18070 0.88210 0.23350 0.03000
C 	C 	0.28920 0.81162 0.21566 -0.00600
H 	H 	0.31610 0.85470 0.19140 0.05200
C 	C 	0.02600 0.58817 0.24253 -0.01800
H 	H 	0.02520 0.64990 0.23680 0.02700
C 	C 	0.02588 0.53331 0.19470 -0.01700
H 	H 	0.02500 0.55720 0.15600 0.03100
O 	O 	0.59121 0.28124 0.79510 -0.30600
O 	O 	0.53217 0.10549 0.84383 -0.29300
N 	N 	0.66943 0.26576 0.77415 -0.03300
N 	N 	0.52711 0.05509 0.79779 -0.03500
C 	C 	0.70896 0.32752 0.74020 -0.00000
H 	H 	0.68070 0.38210 0.73350 0.05100
C 	C 	0.78920 0.31162 0.71566 0.00400
H 	H 	0.81610 0.35470 0.69140 0.05500
C 	C 	0.52600 0.08817 0.74253 -0.00100
H 	H 	0.52520 0.14990 0.73680 0.05100
C 	C 	0.52588 0.03331 0.69470 0.00100
H 	H 	0.52500 0.05720 0.65600 0.05000
O 	O 	0.40879 0.21876 0.79510 -0.30700
O 	O 	0.46783 0.39451 0.84383 -0.29400
N 	N 	0.33057 0.23424 0.77415 -0.03400
N 	N 	0.47289 0.44491 0.79779 -0.03600
C 	C 	0.29104 0.17248 0.74020 0.00200
H 	H 	0.31930 0.11790 0.73350 0.04900
C 	C 	0.21080 0.18838 0.71566 -0.00700
H 	H 	0.18390 0.14530 0.69140 0.05800
C 	C 	0.47400 0.41183 0.74253 -0.00200
H 	H 	0.47480 0.35010 0.73680 0.05100
C 	C 	0.47412 0.46669 0.69470 -0.00100
H 	H 	0.47500 0.44280 0.65600 0.05000
O 	O 	0.90879 0.71876 0.29510 -0.21600
O 	O 	0.96783 0.89451 0.34383 -0.21200
N 	N 	0.83057 0.73424 0.27415 -0.04000
N 	N 	0.97289 0.94491 0.29779 -0.03400
C 	C 	0.79104 0.67248 0.24020 0.01000
H 	H 	0.81930 0.61790 0.23350 0.07100
C 	C 	0.71080 0.68838 0.21566 -0.00200
H 	H 	0.68390 0.64530 0.19140 0.05700
C 	C 	0.97400 0.91183 0.24253 0.01700
H 	H 	0.97480 0.85010 0.23680 0.08100
C 	C 	0.97412 0.96669 0.19470 0.02000
H 	H 	0.97500 0.94280 0.15600 0.06900
O 	O 	0.53124 0.65879 0.54510 -0.30700
O 	O 	0.35549 0.71783 0.59383 -0.29500
N 	N 	0.51576 0.58057 0.52415 -0.03400
N 	N 	0.30509 0.72289 0.54779 -0.03500
C 	C 	0.57752 0.54104 0.49020 0.00200
H 	H 	0.63210 0.56930 0.48350 0.05200
C 	C 	0.56162 0.46080 0.46566 -0.00400
H 	H 	0.60470 0.43390 0.44140 0.05600
C 	C 	0.33817 0.72400 0.49253 -0.00300
H 	H 	0.39990 0.72480 0.48680 0.05100
C 	C 	0.28331 0.72412 0.44470 0.00000
H 	H 	0.30720 0.72500 0.40600 0.05000
O 	O 	0.03124 0.15879 0.04510 -0.32200
O 	O 	0.85549 0.21783 0.09383 -0.23900
N 	N 	0.01576 0.08057 0.02415 -0.12600
N 	N 	0.80509 0.22289 0.04779 -0.03700
C 	C 	0.07752 0.04104 0.99020 0.05000
H 	H 	0.13210 0.06930 0.98350 0.02800
C 	C 	0.06162 0.96080 0.96566 -0.16200
H 	H 	0.10470 0.93390 0.94140 0.09700
C 	C 	0.83817 0.22400 0.99253 -0.00200
H 	H 	0.89990 0.22480 0.98680 0.08200
C 	C 	0.78331 0.22412 0.94470 0.00600
H 	H 	0.80720 0.22500 0.90600 0.06000
O 	O 	0.96876 0.34121 0.04510 -0.21600
O 	O 	0.14451 0.28217 0.09383 -0.27700
N 	N 	0.98424 0.41943 0.02415 0.05300
N 	N 	0.19491 0.27711 0.04779 -0.04100
C 	C 	0.92248 0.45896 0.99020 -0.04500
H 	H 	0.86790 0.43070 0.98350 0.07200
C 	C 	0.93838 0.53920 0.96566 0.16000
H 	H 	0.89530 0.56610 0.94140 0.01600
C 	C 	0.16183 0.27600 0.99253 0.00200
H 	H 	0.10010 0.27520 0.98680 0.02500
C 	C 	0.21669 0.27588 0.94470 -0.00600
H 	H 	0.19280 0.27500 0.90600 0.04000
O 	O 	0.46876 0.84121 0.54510 -0.30700
O 	O 	0.64451 0.78217 0.59383 -0.29200
N 	N 	0.48424 0.91943 0.52415 -0.03400
N 	N 	0.69491 0.77711 0.54779 -0.03500
C 	C 	0.42248 0.95896 0.49020 0.00100
H 	H 	0.36790 0.93070 0.48350 0.04900
C 	C 	0.43838 0.03920 0.46566 -0.00400
H 	H 	0.39530 0.06610 0.44140 0.05300
C 	C 	0.66183 0.77600 0.49253 -0.00100
H 	H 	0.60010 0.77520 0.48680 0.05100
C 	C 	0.71669 0.77588 0.44470 0.00400
H 	H 	0.69280 0.77500 0.40600 0.05000
Dy	Dy	0.50000 0.25000 0.37500 1.87400
Dy	Dy	0.00000 0.75000 0.87500 1.55800
Dy	Dy	-0.00000 0.25000 0.62500 1.55600
Dy	Dy	0.50000 0.75000 0.12500 1.87400
Dy	Dy	0.50000 0.75000 0.62500 1.87400
Dy	Dy	0.00000 0.25000 0.12500 1.55800
Dy	Dy	0.00000 0.75000 0.37500 1.55600
Dy	Dy	0.50000 0.25000 0.87500 1.87400
