data_crystal

_cell_length_a 14.69380
_cell_length_b 8.92400
_cell_length_c 14.69010
_cell_angle_alpha 90.00000
_cell_angle_beta  90.00000
_cell_angle_gamma 90.00000

_symmetry_space_group_name_	'P 1'
_symmetry_space_group_name_H-M	'P 1'

loop_
_symmetry_equiv_pos_as_xyz
  x,y,z

loop_
_atom_site_label
_atom_site_type_symbol
_atom_site_fract_x
_atom_site_fract_y
_atom_site_fract_z
_atom_site_charge
Co	Co	0.51133 0.15614 0.11849 1.18700
Co	Co	0.36869 0.34324 0.74144 1.18100
P 	P 	0.48809 0.20162 0.89781 0.53800
P 	P 	0.35377 0.29705 0.23912 0.54000
O 	O 	0.50527 0.24706 0.99790 -0.39800
O 	O 	0.42057 0.31980 0.86109 -0.43300
O 	O 	0.36622 0.45270 0.19712 -0.46800
O 	O 	0.57855 0.20645 0.84708 -0.44500
O 	O 	0.25210 0.25330 0.23160 -0.21800
O 	O 	0.24660 0.26050 0.76180 -0.17000
O 	O 	0.39498 0.17950 0.17541 -0.44100
O 	O 	0.44411 0.04650 0.89186 -0.46600
O 	O 	0.39461 0.28660 0.33368 -0.44300
Zn	Zn	0.48867 0.84386 0.88151 1.23600
Zn	Zn	0.63131 0.65676 0.25856 1.23200
Co	Co	0.98867 0.84386 0.11849 1.18600
Co	Co	0.13131 0.65676 0.74144 1.18100
P 	P 	0.01191 0.79838 0.89781 0.53100
P 	P 	0.14623 0.70295 0.23912 0.54000
O 	O 	0.99473 0.75294 0.99790 -0.39100
O 	O 	0.07943 0.68020 0.86109 -0.43300
O 	O 	0.13378 0.54730 0.19712 -0.46700
O 	O 	0.92145 0.79355 0.84708 -0.44100
O 	O 	0.24790 0.74670 0.23160 -0.21800
O 	O 	0.25340 0.73950 0.76180 -0.17000
O 	O 	0.10502 0.82050 0.17541 -0.43900
O 	O 	0.05589 0.95350 0.89186 -0.46700
O 	O 	0.10539 0.71340 0.33368 -0.44200
Zn	Zn	0.01133 0.15614 0.88151 1.23400
Zn	Zn	0.86869 0.34324 0.25856 1.23200
Co	Co	0.48867 0.15614 0.38151 1.18800
Co	Co	0.63131 0.34324 0.75856 1.18200
P 	P 	0.51191 0.20162 0.60219 0.53800
P 	P 	0.64623 0.29705 0.26088 0.54000
O 	O 	0.49473 0.24706 0.50210 -0.39600
O 	O 	0.57943 0.31980 0.63891 -0.43200
O 	O 	0.63378 0.45270 0.30288 -0.46800
O 	O 	0.42145 0.20645 0.65292 -0.44500
O 	O 	0.74790 0.25330 0.26840 -0.21800
O 	O 	0.75340 0.26050 0.73820 -0.17100
O 	O 	0.60502 0.17950 0.32459 -0.44200
O 	O 	0.55589 0.04650 0.60814 -0.46500
O 	O 	0.60539 0.28660 0.16632 -0.44200
Zn	Zn	0.51133 0.84386 0.61849 1.23600
Zn	Zn	0.36869 0.65676 0.24144 1.23200
Co	Co	0.01133 0.84386 0.38151 1.18900
Co	Co	0.86869 0.65676 0.75856 1.18200
P 	P 	0.98809 0.79838 0.60219 0.54100
P 	P 	0.85377 0.70295 0.26088 0.54000
O 	O 	0.00527 0.75294 0.50210 -0.39600
O 	O 	0.92057 0.68020 0.63891 -0.43100
O 	O 	0.86622 0.54730 0.30288 -0.46800
O 	O 	0.07855 0.79355 0.65292 -0.44600
O 	O 	0.75210 0.74670 0.26840 -0.21800
O 	O 	0.74660 0.73950 0.73820 -0.17100
O 	O 	0.89498 0.82050 0.32459 -0.44200
O 	O 	0.94411 0.95350 0.60814 -0.46500
O 	O 	0.89461 0.71340 0.16632 -0.44400
Zn	Zn	0.98867 0.15614 0.61849 1.23700
Zn	Zn	0.13131 0.34324 0.24144 1.23200
P 	P 	0.51191 0.79838 0.10219 0.54400
P 	P 	0.64623 0.70295 0.76088 0.54000
O 	O 	0.49473 0.75294 0.00210 -0.40900
O 	O 	0.57943 0.68020 0.13891 -0.44900
O 	O 	0.63378 0.54730 0.80288 -0.45300
O 	O 	0.42145 0.79355 0.15292 -0.45900
O 	O 	0.74790 0.74670 0.76840 -0.20900
O 	O 	0.75340 0.73950 0.23820 -0.17600
O 	O 	0.60502 0.82050 0.82459 -0.45900
O 	O 	0.55589 0.95350 0.10814 -0.45200
O 	O 	0.60539 0.71340 0.66632 -0.45600
P 	P 	0.98809 0.20162 0.10219 0.53800
P 	P 	0.85377 0.29705 0.76088 0.54000
O 	O 	0.00527 0.24706 0.00210 -0.40200
O 	O 	0.92057 0.31980 0.13891 -0.44900
O 	O 	0.86622 0.45270 0.80288 -0.45200
O 	O 	0.07855 0.20645 0.15292 -0.45500
O 	O 	0.75210 0.25330 0.76840 -0.20900
O 	O 	0.74660 0.26050 0.23820 -0.17600
O 	O 	0.89498 0.17950 0.82459 -0.45700
O 	O 	0.94411 0.04650 0.10814 -0.45200
O 	O 	0.89461 0.28660 0.66632 -0.45500
P 	P 	0.48809 0.79838 0.39781 0.54400
P 	P 	0.35377 0.70295 0.73912 0.54000
O 	O 	0.50527 0.75294 0.49790 -0.41000
O 	O 	0.42057 0.68020 0.36109 -0.44900
O 	O 	0.36622 0.54730 0.69712 -0.45300
O 	O 	0.57855 0.79355 0.34708 -0.46000
O 	O 	0.25210 0.74670 0.73160 -0.21000
O 	O 	0.24660 0.73950 0.26180 -0.17500
O 	O 	0.39498 0.82050 0.67541 -0.45800
O 	O 	0.44411 0.95350 0.39186 -0.45200
O 	O 	0.39461 0.71340 0.83368 -0.45700
P 	P 	0.01191 0.20162 0.39781 0.54700
P 	P 	0.14623 0.29705 0.73912 0.54000
O 	O 	0.99473 0.24706 0.49790 -0.41000
O 	O 	0.07943 0.31980 0.36109 -0.44800
O 	O 	0.13378 0.45270 0.69712 -0.45300
O 	O 	0.92145 0.20645 0.34708 -0.46100
O 	O 	0.24790 0.25330 0.73160 -0.21000
O 	O 	0.25340 0.26050 0.26180 -0.17500
O 	O 	0.10502 0.17950 0.67541 -0.45900
O 	O 	0.05589 0.04650 0.39186 -0.45100
O 	O 	0.10539 0.28660 0.83368 -0.45800
