data_crystal

_cell_length_a 14.72360
_cell_length_b 14.72360
_cell_length_c 8.95440
_cell_angle_alpha 90.00000
_cell_angle_beta  90.00000
_cell_angle_gamma 90.00000

_symmetry_space_group_name_	'P 1'
_symmetry_space_group_name_H-M	'P 1'

loop_
_symmetry_equiv_pos_as_xyz
  x,y,z

loop_
_atom_site_label
_atom_site_type_symbol
_atom_site_fract_x
_atom_site_fract_y
_atom_site_fract_z
_atom_site_charge
Co	Co	0.98829 0.13148 0.34972 1.19000
Co	Co	0.13146 0.49883 0.16341 1.22400
P 	P 	0.99981 0.35267 0.30550 0.70600
P 	P 	0.98749 0.14663 0.70880 0.54900
O 	O 	0.08380 0.39040 0.23400 -0.48100
O 	O 	0.00350 0.24780 0.75340 -0.40000
O 	O 	0.94620 0.13890 0.55370 -0.45200
O 	O 	0.99450 0.25250 0.26440 -0.42900
O 	O 	0.08000 0.09960 0.71580 -0.45900
O 	O 	0.92320 0.10900 0.82780 -0.44400
O 	O 	0.92110 0.40180 0.24400 -0.49700
O 	O 	0.99300 0.36370 0.46090 -0.54700
Zn	Zn	0.00117 0.36854 0.66341 1.26300
Zn	Zn	0.13148 0.01171 0.84972 1.23800
Co	Co	0.01171 0.86852 0.34972 1.18900
Co	Co	0.86854 0.50117 0.16341 1.22300
P 	P 	0.00019 0.64733 0.30550 0.70600
P 	P 	0.01251 0.85337 0.70880 0.54900
O 	O 	0.91620 0.60960 0.23400 -0.48100
O 	O 	0.99650 0.75220 0.75340 -0.40000
O 	O 	0.05380 0.86110 0.55370 -0.45200
O 	O 	0.00550 0.74750 0.26440 -0.42900
O 	O 	0.92000 0.90040 0.71580 -0.45900
O 	O 	0.07680 0.89100 0.82780 -0.44400
O 	O 	0.07890 0.59820 0.24400 -0.49700
O 	O 	0.00700 0.63630 0.46090 -0.54700
Zn	Zn	0.99883 0.63146 0.66341 1.26300
Zn	Zn	0.86852 0.98829 0.84972 1.23800
Co	Co	0.50117 0.13146 0.66341 1.22500
P 	P 	0.64733 0.99981 0.80550 0.71000
P 	P 	0.85337 0.98749 0.20880 0.54600
O 	O 	0.60960 0.08380 0.73400 -0.48000
O 	O 	0.75220 0.00350 0.25340 -0.40200
O 	O 	0.86110 0.94620 0.05370 -0.46900
O 	O 	0.74750 0.99450 0.76440 -0.44200
O 	O 	0.90040 0.08000 0.21580 -0.44700
O 	O 	0.89100 0.92320 0.32780 -0.43000
O 	O 	0.59820 0.92110 0.74400 -0.49600
O 	O 	0.63630 0.99300 0.96090 -0.54600
Zn	Zn	0.63146 0.00117 0.16341 1.26200
Co	Co	0.49883 0.86854 0.66341 1.22500
P 	P 	0.35267 0.00019 0.80550 0.71000
P 	P 	0.14663 0.01251 0.20880 0.54600
O 	O 	0.39040 0.91620 0.73400 -0.48000
O 	O 	0.24780 0.99650 0.25340 -0.40200
O 	O 	0.13890 0.05380 0.05370 -0.46900
O 	O 	0.25250 0.00550 0.76440 -0.44200
O 	O 	0.09960 0.92000 0.21580 -0.44700
O 	O 	0.10900 0.07680 0.32780 -0.43000
O 	O 	0.40180 0.07890 0.74400 -0.49600
O 	O 	0.36370 0.00700 0.96090 -0.54600
Zn	Zn	0.36854 0.99883 0.16341 1.26200
Co	Co	0.48829 0.36852 0.34972 1.18800
P 	P 	0.49981 0.14733 0.30550 0.70800
P 	P 	0.48749 0.35337 0.70880 0.54500
O 	O 	0.58380 0.10960 0.23400 -0.49400
O 	O 	0.50350 0.25220 0.75340 -0.38800
O 	O 	0.44620 0.36110 0.55370 -0.45100
O 	O 	0.49450 0.24750 0.26440 -0.42900
O 	O 	0.58000 0.40040 0.71580 -0.46000
O 	O 	0.42320 0.39100 0.82780 -0.44400
O 	O 	0.42110 0.09820 0.24400 -0.51000
O 	O 	0.49300 0.13630 0.46090 -0.53400
Zn	Zn	0.63148 0.48829 0.84972 1.23700
Co	Co	0.51171 0.63148 0.34972 1.18800
P 	P 	0.50019 0.85267 0.30550 0.70800
P 	P 	0.51251 0.64663 0.70880 0.54500
O 	O 	0.41620 0.89040 0.23400 -0.49400
O 	O 	0.49650 0.74780 0.75340 -0.38800
O 	O 	0.55380 0.63890 0.55370 -0.45100
O 	O 	0.50550 0.75250 0.26440 -0.42900
O 	O 	0.42000 0.59960 0.71580 -0.46000
O 	O 	0.57680 0.60900 0.82780 -0.44400
O 	O 	0.57890 0.90180 0.24400 -0.51000
O 	O 	0.50700 0.86370 0.46090 -0.53400
Zn	Zn	0.36852 0.51171 0.84972 1.23700
P 	P 	0.14733 0.50019 0.80550 0.71200
P 	P 	0.35337 0.51251 0.20880 0.54200
O 	O 	0.10960 0.41620 0.73400 -0.49300
O 	O 	0.25220 0.49650 0.25340 -0.39000
O 	O 	0.36110 0.55380 0.05370 -0.46900
O 	O 	0.24750 0.50550 0.76440 -0.44200
O 	O 	0.40040 0.42000 0.21580 -0.44700
O 	O 	0.39100 0.57680 0.32780 -0.43000
O 	O 	0.09820 0.57890 0.74400 -0.50900
O 	O 	0.13630 0.50700 0.96090 -0.53300
P 	P 	0.85267 0.49981 0.80550 0.71200
P 	P 	0.64663 0.48749 0.20880 0.54200
O 	O 	0.89040 0.58380 0.73400 -0.49300
O 	O 	0.74780 0.50350 0.25340 -0.39000
O 	O 	0.63890 0.44620 0.05370 -0.46900
O 	O 	0.75250 0.49450 0.76440 -0.44200
O 	O 	0.59960 0.58000 0.21580 -0.44700
O 	O 	0.60900 0.42320 0.32780 -0.43000
O 	O 	0.90180 0.42110 0.74400 -0.50900
O 	O 	0.86370 0.49300 0.96090 -0.53300
