data_crystal

_cell_length_a 14.69400
_cell_length_b 14.69400
_cell_length_c 8.93600
_cell_angle_alpha 90.00000
_cell_angle_beta  90.00000
_cell_angle_gamma 90.00000

_symmetry_space_group_name_	'P 1'
_symmetry_space_group_name_H-M	'P 1'

loop_
_symmetry_equiv_pos_as_xyz
  x,y,z

loop_
_atom_site_label
_atom_site_type_symbol
_atom_site_fract_x
_atom_site_fract_y
_atom_site_fract_z
_atom_site_charge
Zn	Zn	0.50143 0.13221 0.23267 1.26000
Zn	Zn	0.13043 0.00891 0.04894 1.20300
P 	P 	0.35150 0.99990 0.09260 0.51400
P 	P 	0.48860 0.35490 0.19150 0.57400
O 	O 	0.39540 0.08630 0.10400 -0.28700
O 	O 	0.35650 0.94890 0.93200 -0.21700
O 	O 	0.39000 0.92300 0.20000 -0.20300
O 	O 	0.24820 0.00950 0.13820 -0.42300
O 	O 	0.50340 0.25650 0.14990 -0.43500
O 	O 	0.57990 0.40390 0.18840 -0.48000
O 	O 	0.44610 0.36240 0.34450 -0.45900
O 	O 	0.42240 0.38940 0.07210 -0.50700
O 	O 	0.39550 0.07580 0.21000 -0.26500
O 	O 	0.36570 0.04990 0.93500 -0.18100
O 	O 	0.38660 0.91240 0.12600 -0.27700
Zn	Zn	0.49857 0.86779 0.23267 1.26100
Zn	Zn	0.86957 0.99109 0.04894 1.20400
P 	P 	0.64850 0.00010 0.09260 0.51400
P 	P 	0.51140 0.64510 0.19150 0.57400
O 	O 	0.60460 0.91370 0.10400 -0.28700
O 	O 	0.64350 0.05110 0.93200 -0.21700
O 	O 	0.61000 0.07700 0.20000 -0.20300
O 	O 	0.75180 0.99050 0.13820 -0.42300
O 	O 	0.49660 0.74350 0.14990 -0.43500
O 	O 	0.42010 0.59610 0.18840 -0.48000
O 	O 	0.55390 0.63760 0.34450 -0.45900
O 	O 	0.57760 0.61060 0.07210 -0.50700
O 	O 	0.60450 0.92420 0.21000 -0.26500
O 	O 	0.63430 0.95010 0.93500 -0.18100
O 	O 	0.61340 0.08760 0.12600 -0.27700
Zn	Zn	0.86779 0.50143 0.73267 1.26900
Zn	Zn	0.99109 0.13043 0.54894 1.24200
P 	P 	0.00010 0.35150 0.59260 0.65200
P 	P 	0.64510 0.48860 0.69150 0.57000
O 	O 	0.91370 0.39540 0.60400 -0.21600
O 	O 	0.05110 0.35650 0.43200 -0.33800
O 	O 	0.07700 0.39000 0.70000 -0.25300
O 	O 	0.99050 0.24820 0.63820 -0.37200
O 	O 	0.74350 0.50340 0.64990 -0.38100
O 	O 	0.59610 0.57990 0.68840 -0.42200
O 	O 	0.63760 0.44610 0.84450 -0.36900
O 	O 	0.61060 0.42240 0.57210 -0.43600
O 	O 	0.92420 0.39550 0.71000 -0.27500
O 	O 	0.95010 0.36570 0.43500 -0.30600
O 	O 	0.08760 0.38660 0.62600 -0.18400
Zn	Zn	0.13221 0.49857 0.73267 1.26900
Zn	Zn	0.00891 0.86957 0.54894 1.24200
P 	P 	0.99990 0.64850 0.59260 0.65200
P 	P 	0.35490 0.51140 0.69150 0.57000
O 	O 	0.08630 0.60460 0.60400 -0.21600
O 	O 	0.94890 0.64350 0.43200 -0.33800
O 	O 	0.92300 0.61000 0.70000 -0.25300
O 	O 	0.00950 0.75180 0.63820 -0.37200
O 	O 	0.25650 0.49660 0.64990 -0.38100
O 	O 	0.40390 0.42010 0.68840 -0.42200
O 	O 	0.36240 0.55390 0.84450 -0.36900
O 	O 	0.38940 0.57760 0.57210 -0.43600
O 	O 	0.07580 0.60450 0.71000 -0.27500
O 	O 	0.04990 0.63430 0.43500 -0.30600
O 	O 	0.91240 0.61340 0.62600 -0.18400
Zn	Zn	0.00143 0.36779 0.23267 1.26200
Zn	Zn	0.63043 0.49109 0.04894 1.20300
P 	P 	0.85150 0.50010 0.09260 0.51100
P 	P 	0.98860 0.14510 0.19150 0.57500
O 	O 	0.89540 0.41370 0.10400 -0.28700
O 	O 	0.85650 0.55110 0.93200 -0.21600
O 	O 	0.89000 0.57700 0.20000 -0.20400
O 	O 	0.74820 0.49050 0.13820 -0.42400
O 	O 	0.00340 0.24350 0.14990 -0.43400
O 	O 	0.07990 0.09610 0.18840 -0.47900
O 	O 	0.94610 0.13760 0.34450 -0.45800
O 	O 	0.92240 0.11060 0.07210 -0.50600
O 	O 	0.89550 0.42420 0.21000 -0.26500
O 	O 	0.86570 0.45010 0.93500 -0.18000
O 	O 	0.88660 0.58760 0.12600 -0.27600
Zn	Zn	0.99857 0.63221 0.23267 1.26200
Zn	Zn	0.36957 0.50891 0.04894 1.20300
P 	P 	0.14850 0.49990 0.09260 0.51100
P 	P 	0.01140 0.85490 0.19150 0.57500
O 	O 	0.10460 0.58630 0.10400 -0.28700
O 	O 	0.14350 0.44890 0.93200 -0.21600
O 	O 	0.11000 0.42300 0.20000 -0.20400
O 	O 	0.25180 0.50950 0.13820 -0.42400
O 	O 	0.99660 0.75650 0.14990 -0.43400
O 	O 	0.92010 0.90390 0.18840 -0.47900
O 	O 	0.05390 0.86240 0.34450 -0.45800
O 	O 	0.07760 0.88940 0.07210 -0.50600
O 	O 	0.10450 0.57580 0.21000 -0.26500
O 	O 	0.13430 0.54990 0.93500 -0.18000
O 	O 	0.11340 0.41240 0.12600 -0.27600
Zn	Zn	0.36779 0.99857 0.73267 1.26900
Zn	Zn	0.49109 0.36957 0.54894 1.24200
P 	P 	0.50010 0.14850 0.59260 0.65100
P 	P 	0.14510 0.01140 0.69150 0.57000
O 	O 	0.41370 0.10460 0.60400 -0.21600
O 	O 	0.55110 0.14350 0.43200 -0.33800
O 	O 	0.57700 0.11000 0.70000 -0.25300
O 	O 	0.49050 0.25180 0.63820 -0.37200
O 	O 	0.24350 0.99660 0.64990 -0.38100
O 	O 	0.09610 0.92010 0.68840 -0.42200
O 	O 	0.13760 0.05390 0.84450 -0.37000
O 	O 	0.11060 0.07760 0.57210 -0.43600
O 	O 	0.42420 0.10450 0.71000 -0.27500
O 	O 	0.45010 0.13430 0.43500 -0.30600
O 	O 	0.58760 0.11340 0.62600 -0.18400
Zn	Zn	0.63221 0.00143 0.73267 1.26900
Zn	Zn	0.50891 0.63043 0.54894 1.24200
P 	P 	0.49990 0.85150 0.59260 0.65100
P 	P 	0.85490 0.98860 0.69150 0.57000
O 	O 	0.58630 0.89540 0.60400 -0.21600
O 	O 	0.44890 0.85650 0.43200 -0.33800
O 	O 	0.42300 0.89000 0.70000 -0.25300
O 	O 	0.50950 0.74820 0.63820 -0.37200
O 	O 	0.75650 0.00340 0.64990 -0.38100
O 	O 	0.90390 0.07990 0.68840 -0.42200
O 	O 	0.86240 0.94610 0.84450 -0.37000
O 	O 	0.88940 0.92240 0.57210 -0.43600
O 	O 	0.57580 0.89550 0.71000 -0.27500
O 	O 	0.54990 0.86570 0.43500 -0.30600
O 	O 	0.41240 0.88660 0.62600 -0.18400
