data_crystal

_cell_length_a 8.89620
_cell_length_b 16.57820
_cell_length_c 16.57820
_cell_angle_alpha 85.87170
_cell_angle_beta  74.43630
_cell_angle_gamma 74.43620

_symmetry_space_group_name_	'P 1'
_symmetry_space_group_name_H-M	'P 1'

loop_
_symmetry_equiv_pos_as_xyz
  x,y,z

loop_
_atom_site_label
_atom_site_type_symbol
_atom_site_fract_x
_atom_site_fract_y
_atom_site_fract_z
_atom_site_charge
Cd	Cd	0.00931 0.09795 0.53595 1.18300
Cd	Cd	0.64321 0.90205 0.46405 1.18100
Cd	Cd	0.45474 0.53595 0.90205 1.18200
Cd	Cd	0.89274 0.46405 0.09795 1.18000
H 	H 	0.78400 0.37230 0.49490 0.02900
H 	H 	0.66820 0.42180 0.44080 0.04300
H 	H 	0.65600 0.27790 0.47930 0.10700
H 	H 	0.50450 0.18380 0.48140 -0.02600
H 	H 	0.12890 0.33190 0.64630 -0.01200
H 	H 	0.28080 0.42350 0.64490 0.14300
H 	H 	0.12860 0.08750 0.95230 0.05600
H 	H 	0.06400 0.05530 0.88450 0.04700
H 	H 	0.25200 0.10150 0.79710 0.12100
H 	H 	0.47070 0.12880 0.69440 -0.00100
H 	H 	0.77550 0.93480 0.77860 -0.00500
H 	H 	0.55540 0.90570 0.87710 0.13700
H 	H 	0.65120 0.62770 0.50510 0.03000
H 	H 	0.53080 0.57820 0.55920 0.04400
H 	H 	0.41320 0.72210 0.52070 0.10600
H 	H 	0.16970 0.81620 0.51860 -0.02100
H 	H 	0.10710 0.66810 0.35370 -0.00900
H 	H 	0.34920 0.57650 0.35510 0.14000
H 	H 	0.16840 0.91250 0.04770 0.05400
H 	H 	0.00380 0.94470 0.11550 0.04800
H 	H 	0.15060 0.89850 0.20290 0.11800
H 	H 	0.29390 0.87120 0.30560 0.00200
H 	H 	0.48890 0.06520 0.22140 -0.00200
H 	H 	0.33820 0.09430 0.12290 0.13500
H 	H 	0.72110 0.49490 0.62770 0.03000
H 	H 	0.89100 0.44080 0.57820 0.04200
H 	H 	0.86470 0.47930 0.72210 0.10900
H 	H 	0.01410 0.48140 0.81620 -0.02700
H 	H 	0.22480 0.64630 0.66810 -0.01200
H 	H 	0.07430 0.64490 0.57650 0.14100
H 	H 	0.91910 0.95230 0.91250 0.05800
H 	H 	0.05150 0.88450 0.94470 0.05400
H 	H 	0.95090 0.79710 0.89850 0.11500
H 	H 	0.83490 0.69440 0.87120 0.00100
H 	H 	0.44590 0.77860 0.06520 -0.00100
H 	H 	0.56750 0.87710 0.09430 0.13400
H 	H 	0.84370 0.50510 0.37230 0.03000
H 	H 	0.91000 0.55920 0.42180 0.04400
H 	H 	0.06610 0.52070 0.27790 0.11000
H 	H 	0.31170 0.51860 0.18380 -0.02600
H 	H 	0.53920 0.35370 0.33190 -0.01400
H 	H 	0.29570 0.35510 0.42350 0.14300
H 	H 	0.78390 0.04770 0.08750 0.05500
H 	H 	0.88070 0.11550 0.05530 0.04500
H 	H 	0.64650 0.20290 0.10150 0.11900
H 	H 	0.40050 0.30560 0.12880 -0.00000
H 	H 	0.28970 0.22140 0.93480 -0.00300
H 	H 	0.53890 0.12290 0.90570 0.13600
C 	C 	0.69680 0.42170 0.49330 0.02400
C 	C 	0.48050 0.36130 0.56050 0.27600
C 	C 	0.55010 0.28840 0.51200 -0.26800
C 	C 	0.45910 0.23220 0.51360 0.14300
C 	C 	0.29900 0.24720 0.56300 -0.19600
C 	C 	0.23420 0.32100 0.61260 0.15400
C 	C 	0.32420 0.37600 0.61140 -0.27500
C 	C 	0.19470 0.19190 0.55910 0.36100
C 	C 	0.11170 0.03840 0.93120 -0.01100
C 	C 	0.38380 0.99860 0.84540 0.26300
C 	C 	0.35600 0.06750 0.79210 -0.25500
C 	C 	0.48780 0.08430 0.73130 0.11500
C 	C 	0.64130 0.03590 0.72590 -0.17500
C 	C 	0.67110 0.96720 0.78160 0.11900
C 	C 	0.53890 0.95040 0.84040 -0.25400
C 	C 	0.78030 0.05440 0.66000 0.32400
C 	C 	0.61180 0.57830 0.50670 0.02300
C 	C 	0.40230 0.63870 0.43950 0.27200
C 	C 	0.35050 0.71160 0.48800 -0.26200
C 	C 	0.20490 0.76780 0.48640 0.13600
C 	C 	0.10920 0.75280 0.43700 -0.18400
C 	C 	0.16780 0.67900 0.38740 0.14700
C 	C 	0.31160 0.62400 0.38860 -0.27000
C 	C 	0.94570 0.80810 0.44090 0.35100
C 	C 	0.08130 0.96160 0.06880 -0.00400
C 	C 	0.22780 0.00140 0.15460 0.25500
C 	C 	0.21560 0.93250 0.20790 -0.24500
C 	C 	0.30340 0.91570 0.26870 0.10900
C 	C 	0.40310 0.96410 0.27410 -0.16800
C 	C 	0.41990 0.03280 0.21840 0.11100
C 	C 	0.32970 0.04960 0.15960 -0.24800
C 	C 	0.49470 0.94560 0.34000 0.32200
C 	C 	0.80990 0.49330 0.57830 0.02300
C 	C 	0.95900 0.56050 0.63870 0.27000
C 	C 	0.93790 0.51200 0.71160 -0.27500
C 	C 	0.02730 0.51360 0.76780 0.15200
C 	C 	0.13800 0.56300 0.75280 -0.19700
C 	C 	0.15320 0.61260 0.67900 0.15200
C 	C 	0.06440 0.61140 0.62400 -0.26700
C 	C 	0.24620 0.55910 0.80810 0.36200
C 	C 	0.95710 0.93120 0.96160 -0.02300
C 	C 	0.77080 0.84540 0.00140 0.25100
C 	C 	0.85190 0.79210 0.93250 -0.24300
C 	C 	0.78090 0.73130 0.91570 0.10700
C 	C 	0.63280 0.72590 0.96410 -0.16800
C 	C 	0.54730 0.78160 0.03280 0.10900
C 	C 	0.62070 0.84040 0.04960 -0.24600
C 	C 	0.55970 0.66000 0.94560 0.32100
C 	C 	0.88150 0.50670 0.42170 0.01600
C 	C 	0.15820 0.43950 0.36130 0.27700
C 	C 	0.16150 0.48800 0.28840 -0.26800
C 	C 	0.30870 0.48640 0.23220 0.14400
C 	C 	0.45380 0.43700 0.24720 -0.19800
C 	C 	0.44480 0.38740 0.32100 0.15500
C 	C 	0.29980 0.38860 0.37600 -0.27600
C 	C 	0.61340 0.44090 0.19190 0.36200
C 	C 	0.84990 0.06880 0.03840 -0.01500
C 	C 	0.61760 0.15460 0.99860 0.26000
C 	C 	0.57650 0.20790 0.06750 -0.25300
C 	C 	0.42790 0.26870 0.08430 0.11300
C 	C 	0.32280 0.27410 0.03590 -0.17300
C 	C 	0.36170 0.21840 0.96720 0.11600
C 	C 	0.51070 0.15960 0.95040 -0.25200
C 	C 	0.16530 0.34000 0.05440 0.32300
C 	C 	0.75000 0.50000 0.50000 0.00500
C 	C 	-0.00000 0.00000 -0.00000 0.04500
O 	O 	0.56034 0.42066 0.56186 -0.24900
O 	O 	0.26240 0.11910 0.52770 -0.44200
O 	O 	0.04740 0.21670 0.58390 -0.42000
O 	O 	0.26310 0.97625 0.90455 -0.23500
O 	O 	0.75100 0.09070 0.59350 -0.44000
O 	O 	0.91920 0.03520 0.67180 -0.38900
O 	O 	0.54286 0.57934 0.43814 -0.24800
O 	O 	0.90920 0.88090 0.47230 -0.44300
O 	O 	0.84800 0.78330 0.41610 -0.42200
O 	O 	0.14390 0.02375 0.09545 -0.23600
O 	O 	0.43520 0.90930 0.40650 -0.43800
O 	O 	0.62620 0.96480 0.32820 -0.38800
O 	O 	0.87780 0.56186 0.57934 -0.24900
O 	O 	0.20990 0.52770 0.88090 -0.44200
O 	O 	0.36870 0.58390 0.78330 -0.42300
O 	O 	0.83235 0.90455 0.02375 -0.23500
O 	O 	0.65550 0.59350 0.90930 -0.43900
O 	O 	0.40900 0.67180 0.96480 -0.38600
O 	O 	0.01900 0.43814 0.42066 -0.24300
O 	O 	0.61850 0.47230 0.11910 -0.44500
O 	O 	0.73590 0.41610 0.21670 -0.42500
O 	O 	0.76065 0.09545 0.97625 -0.23500
O 	O 	0.15830 0.40650 0.09070 -0.43700
O 	O 	0.04560 0.32820 0.03520 -0.38300
