data_crystal

_cell_length_a 18.95450
_cell_length_b 18.95450
_cell_length_c 5.79110
_cell_angle_alpha 90.00000
_cell_angle_beta  90.00000
_cell_angle_gamma 90.00000

_symmetry_space_group_name_	'P 1'
_symmetry_space_group_name_H-M	'P 1'

loop_
_symmetry_equiv_pos_as_xyz
  x,y,z

loop_
_atom_site_label
_atom_site_type_symbol
_atom_site_fract_x
_atom_site_fract_y
_atom_site_fract_z
_atom_site_charge
O 	O 	0.31630 0.75780 0.06350 -0.55700
O 	O 	0.41280 0.76990 0.26280 -0.31600
C 	C 	0.38090 0.75900 0.08800 0.38400
O 	O 	0.37630 0.73450 0.67870 -0.57700
H 	H 	0.39800 0.75200 0.58100 0.36300
C 	C 	0.47610 0.68800 0.88700 0.10800
H 	H 	0.50630 0.69690 0.02120 0.01300
O 	O 	0.43830 0.62470 0.92640 -0.09300
O 	O 	0.56940 0.62190 0.70860 -0.09200
C 	C 	0.56880 0.74440 0.62600 -0.01000
H 	H 	0.53800 0.78430 0.58900 0.05500
O 	O 	0.61330 0.72840 0.42550 -0.48300
H 	H 	0.60500 0.74700 0.29800 0.27700
C 	C 	0.61560 0.76420 0.83000 0.39100
O 	O 	0.68220 0.75190 0.80530 -0.54300
O 	O 	0.58700 0.78890 0.00880 -0.33600
C 	C 	0.42490 0.75010 0.86200 0.01600
H 	H 	0.45090 0.79350 0.82770 0.05000
C 	C 	0.52340 0.67960 0.67500 0.02300
H 	H 	0.49380 0.67020 0.53970 0.08100
O 	O 	0.68370 0.24220 0.56350 -0.53600
O 	O 	0.58720 0.23010 0.76280 -0.29400
C 	C 	0.61910 0.24100 0.58800 0.41400
O 	O 	0.62370 0.26550 0.17870 -0.58500
H 	H 	0.60200 0.24800 0.08100 0.35200
C 	C 	0.52390 0.31200 0.38700 0.02900
H 	H 	0.49370 0.30310 0.52120 0.07300
O 	O 	0.56170 0.37530 0.42640 -0.09500
O 	O 	0.43060 0.37810 0.20860 -0.12300
C 	C 	0.43120 0.25560 0.12600 -0.05500
H 	H 	0.46200 0.21570 0.08900 0.05300
O 	O 	0.38670 0.27160 0.92550 -0.42500
H 	H 	0.39500 0.25300 0.79800 0.26800
C 	C 	0.38440 0.23580 0.33000 0.34100
O 	O 	0.31780 0.24810 0.30530 -0.55600
O 	O 	0.41300 0.21110 0.50880 -0.28200
C 	C 	0.57510 0.24990 0.36200 0.00500
H 	H 	0.54910 0.20650 0.32770 0.03800
C 	C 	0.47660 0.32040 0.17500 0.05800
H 	H 	0.50620 0.32980 0.03970 0.05800
O 	O 	0.74220 0.81630 0.31350 -0.55300
O 	O 	0.73010 0.91280 0.51280 -0.31800
C 	C 	0.74100 0.88090 0.33800 0.42700
O 	O 	0.76550 0.87630 0.92870 -0.52700
H 	H 	0.74800 0.89800 0.83100 0.35600
C 	C 	0.81200 0.97610 0.13700 0.01700
H 	H 	0.80310 0.00630 0.27120 0.06500
O 	O 	0.87530 0.93830 0.17640 -0.11500
O 	O 	0.87810 0.06940 0.95860 -0.08700
C 	C 	0.75560 0.06880 0.87600 0.04000
H 	H 	0.71570 0.03800 0.83900 0.05100
O 	O 	0.77160 0.11330 0.67550 -0.48500
H 	H 	0.75300 0.10500 0.54800 0.28000
C 	C 	0.73580 0.11560 0.08000 0.28600
O 	O 	0.74810 0.18220 0.05530 -0.56200
O 	O 	0.71110 0.08700 0.25880 -0.28100
C 	C 	0.74990 0.92490 0.11200 -0.04500
H 	H 	0.70650 0.95090 0.07770 0.04000
C 	C 	0.82040 0.02340 0.92500 0.06100
H 	H 	0.82980 0.99380 0.78970 0.08000
O 	O 	0.25780 0.18370 0.81350 -0.54500
O 	O 	0.26990 0.08720 0.01280 -0.38100
C 	C 	0.25900 0.11910 0.83800 0.49000
O 	O 	0.23450 0.12370 0.42870 -0.58100
H 	H 	0.25200 0.10200 0.33100 0.36500
C 	C 	0.18800 0.02390 0.63700 0.03700
H 	H 	0.19690 0.99370 0.77120 0.08000
O 	O 	0.12470 0.06170 0.67640 -0.09100
O 	O 	0.12190 0.93060 0.45860 -0.10400
C 	C 	0.24440 0.93120 0.37600 -0.00400
H 	H 	0.28430 0.96200 0.33900 0.04800
O 	O 	0.22840 0.88670 0.17550 -0.48400
H 	H 	0.24700 0.89500 0.04800 0.26100
C 	C 	0.26420 0.88440 0.58000 0.33000
O 	O 	0.25190 0.81780 0.55530 -0.54100
O 	O 	0.28890 0.91300 0.75880 -0.26300
C 	C 	0.25010 0.07510 0.61200 -0.01900
H 	H 	0.29350 0.04910 0.57770 0.05000
C 	C 	0.17960 0.97660 0.42500 0.04400
H 	H 	0.17020 0.00620 0.28970 0.07100
O 	O 	0.18370 0.25780 0.18650 -0.53700
O 	O 	0.08720 0.26990 0.98720 -0.26000
C 	C 	0.11910 0.25900 0.16200 0.34900
O 	O 	0.12370 0.23450 0.57130 -0.58200
H 	H 	0.10200 0.25200 0.66900 0.36800
C 	C 	0.02390 0.18800 0.36300 0.04900
H 	H 	0.99370 0.19690 0.22880 0.04700
O 	O 	0.06170 0.12470 0.32360 -0.11200
O 	O 	0.93060 0.12190 0.54140 -0.10600
C 	C 	0.93120 0.24440 0.62400 0.00500
H 	H 	0.96200 0.28430 0.66100 0.05000
O 	O 	0.88670 0.22840 0.82450 -0.48400
H 	H 	0.89500 0.24700 0.95200 0.29900
C 	C 	0.88440 0.26420 0.42000 0.33300
O 	O 	0.81780 0.25190 0.44470 -0.55100
O 	O 	0.91300 0.28890 0.24120 -0.30800
C 	C 	0.07510 0.25010 0.38800 0.01000
H 	H 	0.04910 0.29350 0.42230 0.03600
C 	C 	0.97660 0.17960 0.57500 0.02400
H 	H 	0.00620 0.17020 0.71030 0.09200
O 	O 	0.81630 0.74220 0.68650 -0.53000
O 	O 	0.91280 0.73010 0.48720 -0.32400
C 	C 	0.88090 0.74100 0.66200 0.41400
O 	O 	0.87630 0.76550 0.07130 -0.62900
H 	H 	0.89800 0.74800 0.16900 0.37500
C 	C 	0.97610 0.81200 0.86300 0.07000
H 	H 	0.00630 0.80310 0.72880 0.06200
O 	O 	0.93830 0.87530 0.82360 -0.08800
O 	O 	0.06940 0.87810 0.04140 -0.12200
C 	C 	0.06880 0.75560 0.12400 -0.03700
H 	H 	0.03800 0.71570 0.16100 0.04700
O 	O 	0.11330 0.77160 0.32450 -0.48200
H 	H 	0.10500 0.75300 0.45200 0.27900
C 	C 	0.11560 0.73580 0.92000 0.37500
O 	O 	0.18220 0.74810 0.94470 -0.53100
O 	O 	0.08700 0.71110 0.74120 -0.28900
C 	C 	0.92490 0.74990 0.88800 0.03400
H 	H 	0.95090 0.70650 0.92230 0.04600
C 	C 	0.02340 0.82040 0.07500 0.00800
H 	H 	0.99380 0.82980 0.21030 0.08200
O 	O 	0.75780 0.31630 0.93650 -0.52900
O 	O 	0.76990 0.41280 0.73720 -0.32500
C 	C 	0.75900 0.38090 0.91200 0.46000
O 	O 	0.73450 0.37630 0.32130 -0.58500
H 	H 	0.75200 0.39800 0.41900 0.37000
C 	C 	0.68800 0.47610 0.11300 -0.02200
H 	H 	0.69690 0.50630 0.97880 0.11500
O 	O 	0.62470 0.43830 0.07360 -0.10900
O 	O 	0.62190 0.56940 0.29140 -0.11700
C 	C 	0.74440 0.56880 0.37400 0.01200
H 	H 	0.78430 0.53800 0.41100 0.04300
O 	O 	0.72840 0.61330 0.57450 -0.48500
H 	H 	0.74700 0.60500 0.70200 0.28300
C 	C 	0.76420 0.61560 0.17000 0.26900
O 	O 	0.75190 0.68220 0.19470 -0.54300
O 	O 	0.78890 0.58700 0.99120 -0.23200
C 	C 	0.75010 0.42490 0.13800 -0.02700
H 	H 	0.79350 0.45090 0.17230 0.03600
C 	C 	0.67960 0.52340 0.32500 0.04500
H 	H 	0.67020 0.49380 0.46030 0.08200
O 	O 	0.24220 0.68370 0.43650 -0.55100
O 	O 	0.23010 0.58720 0.23720 -0.34700
C 	C 	0.24100 0.61910 0.41200 0.42800
O 	O 	0.26550 0.62370 0.82130 -0.57800
H 	H 	0.24800 0.60200 0.91900 0.38000
C 	C 	0.31200 0.52390 0.61300 0.05800
H 	H 	0.30310 0.49370 0.47880 0.05400
O 	O 	0.37530 0.56170 0.57360 -0.10700
O 	O 	0.37810 0.43060 0.79140 -0.08500
C 	C 	0.25560 0.43120 0.87400 0.05500
H 	H 	0.21570 0.46200 0.91100 0.04500
O 	O 	0.27160 0.38670 0.07450 -0.53600
H 	H 	0.25300 0.39500 0.20200 0.29100
C 	C 	0.23580 0.38440 0.67000 0.32100
O 	O 	0.24810 0.31780 0.69470 -0.53000
O 	O 	0.21110 0.41300 0.49120 -0.28700
C 	C 	0.24990 0.57510 0.63800 -0.01400
H 	H 	0.20650 0.54910 0.67230 0.04800
C 	C 	0.32040 0.47660 0.82500 0.01000
H 	H 	0.32980 0.50620 0.96030 0.10400
Zn	Zn	0.27031 0.72969 0.75000 1.27000
Zn	Zn	0.72969 0.27031 0.25000 1.25800
Zn	Zn	0.77031 0.77031 -0.00000 1.24800
Zn	Zn	0.22969 0.22969 0.50000 1.26400
Zn	Zn	0.22180 0.77820 0.25000 1.24600
Zn	Zn	0.77820 0.22180 0.75000 1.25900
Zn	Zn	0.72180 0.72180 0.50000 1.25200
Zn	Zn	0.27820 0.27820 -0.00000 1.23600
