data_crystal

_cell_length_a 19.04270
_cell_length_b 19.04270
_cell_length_c 5.81080
_cell_angle_alpha 90.00000
_cell_angle_beta  90.00000
_cell_angle_gamma 90.00000

_symmetry_space_group_name_	'P 1'
_symmetry_space_group_name_H-M	'P 1'

loop_
_symmetry_equiv_pos_as_xyz
  x,y,z

loop_
_atom_site_label
_atom_site_type_symbol
_atom_site_fract_x
_atom_site_fract_y
_atom_site_fract_z
_atom_site_charge
O 	O 	0.31550 0.75620 0.06000 -0.56000
O 	O 	0.41050 0.76930 0.26200 -0.32100
C 	C 	0.38100 0.75920 0.08900 0.38000
O 	O 	0.37550 0.73410 0.68260 -0.55400
H 	H 	0.39700 0.73200 0.56500 0.34000
C 	C 	0.47550 0.68630 0.88800 0.11900
H 	H 	0.50490 0.69470 0.02350 0.01100
O 	O 	0.43970 0.62610 0.92520 -0.11200
O 	O 	0.57030 0.62100 0.70930 -0.08800
C 	C 	0.56990 0.74370 0.62700 0.00800
H 	H 	0.53980 0.78420 0.59280 0.05500
O 	O 	0.61360 0.72880 0.42440 -0.51600
H 	H 	0.61100 0.74800 0.30300 0.30000
C 	C 	0.61720 0.76200 0.83200 0.39700
O 	O 	0.68220 0.75340 0.80590 -0.54900
O 	O 	0.58560 0.78640 0.00900 -0.32900
C 	C 	0.42570 0.74960 0.86400 0.01700
H 	H 	0.45210 0.79250 0.82820 0.06300
C 	C 	0.52460 0.68200 0.67800 0.00700
H 	H 	0.49540 0.67330 0.54230 0.07800
O 	O 	0.68450 0.24380 0.56000 -0.53700
O 	O 	0.58950 0.23070 0.76200 -0.29700
C 	C 	0.61900 0.24080 0.58900 0.41000
O 	O 	0.62450 0.26590 0.18260 -0.56200
H 	H 	0.60300 0.26800 0.06500 0.33000
C 	C 	0.52450 0.31370 0.38800 0.04000
H 	H 	0.49510 0.30530 0.52350 0.07100
O 	O 	0.56030 0.37390 0.42520 -0.11100
O 	O 	0.42970 0.37900 0.20930 -0.11800
C 	C 	0.43010 0.25630 0.12700 -0.04000
H 	H 	0.46020 0.21580 0.09280 0.05400
O 	O 	0.38640 0.27120 0.92440 -0.45500
H 	H 	0.38900 0.25200 0.80300 0.28800
C 	C 	0.38280 0.23800 0.33200 0.35000
O 	O 	0.31780 0.24660 0.30590 -0.56200
O 	O 	0.41440 0.21360 0.50900 -0.27600
C 	C 	0.57430 0.25040 0.36400 0.00500
H 	H 	0.54790 0.20750 0.32820 0.05000
C 	C 	0.47540 0.31800 0.17800 0.04200
H 	H 	0.50460 0.32670 0.04230 0.05500
O 	O 	0.74380 0.81550 0.31000 -0.55300
O 	O 	0.73070 0.91050 0.51200 -0.32100
C 	C 	0.74080 0.88100 0.33900 0.42300
O 	O 	0.76590 0.87550 0.93260 -0.50300
H 	H 	0.76800 0.89700 0.81500 0.33300
C 	C 	0.81370 0.97550 0.13800 0.02800
H 	H 	0.80530 0.00490 0.27350 0.06300
O 	O 	0.87390 0.93970 0.17520 -0.13100
O 	O 	0.87900 0.07030 0.95930 -0.08100
C 	C 	0.75630 0.06990 0.87700 0.05400
H 	H 	0.71580 0.03980 0.84280 0.05200
O 	O 	0.77120 0.11360 0.67440 -0.51900
H 	H 	0.75200 0.11100 0.55300 0.30500
C 	C 	0.73800 0.11720 0.08200 0.29600
O 	O 	0.74660 0.18220 0.05590 -0.56600
O 	O 	0.71360 0.08560 0.25900 -0.27700
C 	C 	0.75040 0.92570 0.11400 -0.04300
H 	H 	0.70750 0.95210 0.07820 0.05200
C 	C 	0.81800 0.02460 0.92800 0.04400
H 	H 	0.82670 0.99540 0.79230 0.07800
O 	O 	0.25620 0.18450 0.81000 -0.54600
O 	O 	0.26930 0.08950 0.01200 -0.38600
C 	C 	0.25920 0.11900 0.83900 0.49000
O 	O 	0.23410 0.12450 0.43260 -0.55700
H 	H 	0.23200 0.10300 0.31500 0.34200
C 	C 	0.18630 0.02450 0.63800 0.04800
H 	H 	0.19470 0.99510 0.77350 0.07800
O 	O 	0.12610 0.06030 0.67520 -0.10800
O 	O 	0.12100 0.92970 0.45930 -0.09800
C 	C 	0.24370 0.93010 0.37700 0.01200
H 	H 	0.28420 0.96020 0.34280 0.04900
O 	O 	0.22880 0.88640 0.17440 -0.51600
H 	H 	0.24800 0.88900 0.05300 0.28500
C 	C 	0.26200 0.88280 0.58200 0.33900
O 	O 	0.25340 0.81780 0.55590 -0.54700
O 	O 	0.28640 0.91440 0.75900 -0.25800
C 	C 	0.24960 0.07430 0.61400 -0.01900
H 	H 	0.29250 0.04790 0.57820 0.06300
C 	C 	0.18200 0.97540 0.42800 0.02700
H 	H 	0.17330 0.00460 0.29230 0.06800
O 	O 	0.18450 0.25620 0.19000 -0.53800
O 	O 	0.08950 0.26930 0.98800 -0.26100
C 	C 	0.11900 0.25920 0.16100 0.34300
O 	O 	0.12450 0.23410 0.56740 -0.56000
H 	H 	0.10300 0.23200 0.68500 0.34800
C 	C 	0.02450 0.18630 0.36200 0.06100
H 	H 	0.99510 0.19470 0.22650 0.04500
O 	O 	0.06030 0.12610 0.32480 -0.12800
O 	O 	0.92970 0.12100 0.54070 -0.10100
C 	C 	0.93010 0.24370 0.62300 0.02300
H 	H 	0.96020 0.28420 0.65720 0.05000
O 	O 	0.88640 0.22880 0.82560 -0.51800
H 	H 	0.88900 0.24800 0.94700 0.32300
C 	C 	0.88280 0.26200 0.41800 0.34000
O 	O 	0.81780 0.25340 0.44410 -0.55600
O 	O 	0.91440 0.28640 0.24100 -0.30100
C 	C 	0.07430 0.24960 0.38600 0.01200
H 	H 	0.04790 0.29250 0.42180 0.04800
C 	C 	0.97540 0.18200 0.57200 0.00600
H 	H 	0.00460 0.17330 0.70770 0.08900
O 	O 	0.81550 0.74380 0.69000 -0.53100
O 	O 	0.91050 0.73070 0.48800 -0.32700
C 	C 	0.88100 0.74080 0.66100 0.41200
O 	O 	0.87550 0.76590 0.06740 -0.60700
H 	H 	0.89700 0.76800 0.18500 0.35500
C 	C 	0.97550 0.81370 0.86200 0.08100
H 	H 	0.00490 0.80530 0.72650 0.06000
O 	O 	0.93970 0.87390 0.82480 -0.10500
O 	O 	0.07030 0.87900 0.04070 -0.11700
C 	C 	0.06990 0.75630 0.12300 -0.01700
H 	H 	0.03980 0.71580 0.15720 0.04700
O 	O 	0.11360 0.77120 0.32560 -0.51500
H 	H 	0.11100 0.75200 0.44700 0.30300
C 	C 	0.11720 0.73800 0.91800 0.38100
O 	O 	0.18220 0.74660 0.94410 -0.53700
O 	O 	0.08560 0.71360 0.74100 -0.28200
C 	C 	0.92570 0.75040 0.88600 0.03500
H 	H 	0.95210 0.70750 0.92180 0.05900
C 	C 	0.02460 0.81800 0.07200 -0.01100
H 	H 	0.99540 0.82670 0.20770 0.07900
O 	O 	0.75620 0.31550 0.94000 -0.52900
O 	O 	0.76930 0.41050 0.73800 -0.32900
C 	C 	0.75920 0.38100 0.91100 0.45700
O 	O 	0.73410 0.37550 0.31740 -0.56400
H 	H 	0.73200 0.39700 0.43500 0.35000
C 	C 	0.68630 0.47550 0.11200 -0.01000
H 	H 	0.69470 0.50490 0.97650 0.11300
O 	O 	0.62610 0.43970 0.07480 -0.12500
O 	O 	0.62100 0.57030 0.29070 -0.11100
C 	C 	0.74370 0.56990 0.37300 0.02800
H 	H 	0.78420 0.53980 0.40720 0.04400
O 	O 	0.72880 0.61360 0.57560 -0.51800
H 	H 	0.74800 0.61100 0.69700 0.30800
C 	C 	0.76200 0.61720 0.16800 0.27900
O 	O 	0.75340 0.68220 0.19410 -0.54700
O 	O 	0.78640 0.58560 0.99100 -0.22800
C 	C 	0.74960 0.42570 0.13600 -0.02600
H 	H 	0.79250 0.45210 0.17180 0.04800
C 	C 	0.68200 0.52460 0.32200 0.02500
H 	H 	0.67330 0.49540 0.45770 0.08000
O 	O 	0.24380 0.68450 0.44000 -0.55100
O 	O 	0.23070 0.58950 0.23800 -0.35000
C 	C 	0.24080 0.61900 0.41100 0.42500
O 	O 	0.26590 0.62450 0.81740 -0.55500
H 	H 	0.26800 0.60300 0.93500 0.35900
C 	C 	0.31370 0.52450 0.61200 0.07100
H 	H 	0.30530 0.49510 0.47650 0.05100
O 	O 	0.37390 0.56030 0.57480 -0.12400
O 	O 	0.37900 0.42970 0.79070 -0.08000
C 	C 	0.25630 0.43010 0.87300 0.07500
H 	H 	0.21580 0.46020 0.90720 0.04500
O 	O 	0.27120 0.38640 0.07560 -0.57200
H 	H 	0.25200 0.38900 0.19700 0.31800
C 	C 	0.23800 0.38280 0.66800 0.32800
O 	O 	0.24660 0.31780 0.69410 -0.53500
O 	O 	0.21360 0.41440 0.49100 -0.28100
C 	C 	0.25040 0.57430 0.63600 -0.01300
H 	H 	0.20750 0.54790 0.67180 0.06100
C 	C 	0.31800 0.47540 0.82200 -0.01000
H 	H 	0.32670 0.50460 0.95770 0.10100
Zn	Zn	0.27042 0.72958 0.75000 1.27000
Zn	Zn	0.72958 0.27042 0.25000 1.25800
Zn	Zn	0.77042 0.77042 -0.00000 1.24900
Zn	Zn	0.22958 0.22958 0.50000 1.26400
Zn	Zn	0.22252 0.77748 0.25000 1.24300
Zn	Zn	0.77748 0.22252 0.75000 1.25500
Zn	Zn	0.72252 0.72252 0.50000 1.24900
Zn	Zn	0.27748 0.27748 -0.00000 1.23300
