data_crystal

_cell_length_a 16.68700
_cell_length_b 14.73950
_cell_length_c 17.57370
_cell_angle_alpha 90.00000
_cell_angle_beta  90.00000
_cell_angle_gamma 90.00000

_symmetry_space_group_name_	'P 1'
_symmetry_space_group_name_H-M	'P 1'

loop_
_symmetry_equiv_pos_as_xyz
  x,y,z

loop_
_atom_site_label
_atom_site_type_symbol
_atom_site_fract_x
_atom_site_fract_y
_atom_site_fract_z
_atom_site_charge
P 	P 	0.85491 0.41238 0.60000 0.65100
P 	P 	0.84361 0.11696 0.63098 0.53300
O 	O 	0.77890 0.41990 0.55440 -0.70000
O 	O 	0.84980 0.06490 0.55610 -0.57800
O 	O 	0.76960 0.09050 0.66950 -0.57000
O 	O 	0.85340 0.45990 0.67190 -0.60300
O 	O 	0.91950 0.09930 0.67180 -0.37000
O 	O 	0.93900 0.42000 0.57270 -0.17400
O 	O 	0.59290 0.04770 0.03910 -0.65800
C 	C 	0.81700 0.23350 0.62740 -0.16500
C 	C 	0.87120 0.29110 0.58620 -0.07500
C 	C 	0.64800 0.20040 0.14930 -0.21400
C 	C 	0.85140 0.22480 0.91450 0.11900
P 	P 	0.35491 0.91238 0.60000 0.67000
P 	P 	0.34361 0.61696 0.63098 0.54500
O 	O 	0.27890 0.91990 0.55440 -0.73000
O 	O 	0.34980 0.56490 0.55610 -0.65000
O 	O 	0.26960 0.59050 0.66950 -0.60100
O 	O 	0.35340 0.95990 0.67190 -0.67200
O 	O 	0.41950 0.59930 0.67180 -0.56500
O 	O 	0.43900 0.92000 0.57270 -0.38700
O 	O 	0.09290 0.54770 0.03910 -0.68300
C 	C 	0.31700 0.73350 0.62740 0.00100
C 	C 	0.37120 0.79110 0.58620 -0.00800
C 	C 	0.14800 0.70040 0.14930 -0.32100
C 	C 	0.35140 0.72480 0.91450 -0.10300
P 	P 	0.14509 0.58762 0.10000 0.69200
P 	P 	0.15639 0.88304 0.13098 0.54800
O 	O 	0.22110 0.58010 0.05440 -0.72900
O 	O 	0.15020 0.93510 0.05610 -0.71200
O 	O 	0.23040 0.90950 0.16950 -0.61200
O 	O 	0.14660 0.54010 0.17190 -0.71200
O 	O 	0.08050 0.90070 0.17180 -0.68900
O 	O 	0.06100 0.58000 0.07270 -0.58900
O 	O 	0.40710 0.95230 0.53910 -0.66300
C 	C 	0.18300 0.76650 0.12740 0.21300
C 	C 	0.12880 0.70890 0.08620 0.06900
C 	C 	0.35200 0.79960 0.64930 -0.17500
C 	C 	0.14860 0.77520 0.41450 -0.34300
P 	P 	0.64509 0.08762 0.10000 0.67000
P 	P 	0.65639 0.38304 0.13098 0.54700
O 	O 	0.72110 0.08010 0.05440 -0.68900
O 	O 	0.65020 0.43510 0.05610 -0.63700
O 	O 	0.73040 0.40950 0.16950 -0.58100
O 	O 	0.64660 0.04010 0.17190 -0.65300
O 	O 	0.58050 0.40070 0.17180 -0.56400
O 	O 	0.56100 0.08000 0.07270 -0.39400
O 	O 	0.90710 0.45230 0.53910 -0.66200
C 	C 	0.68300 0.26650 0.12740 0.10700
C 	C 	0.62880 0.20890 0.08620 0.05300
C 	C 	0.85200 0.29960 0.64930 -0.01000
C 	C 	0.64860 0.27520 0.41450 -0.19000
P 	P 	0.14509 0.41238 0.90000 0.69400
P 	P 	0.15639 0.11696 0.86902 0.54800
O 	O 	0.22110 0.41990 0.94560 -0.74500
O 	O 	0.15020 0.06490 0.94390 -0.72500
O 	O 	0.23040 0.09050 0.83050 -0.61200
O 	O 	0.14660 0.45990 0.82810 -0.71300
O 	O 	0.08050 0.09930 0.82820 -0.69200
O 	O 	0.06100 0.42000 0.92730 -0.58700
O 	O 	0.40710 0.04770 0.46090 -0.65600
C 	C 	0.18300 0.23350 0.87260 0.21400
C 	C 	0.12880 0.29110 0.91380 0.05800
C 	C 	0.35200 0.20040 0.35070 -0.17400
C 	C 	0.14860 0.22480 0.58550 -0.34200
P 	P 	0.64509 0.91238 0.90000 0.67200
P 	P 	0.65639 0.61696 0.86902 0.54700
O 	O 	0.72110 0.91990 0.94560 -0.70200
O 	O 	0.65020 0.56490 0.94390 -0.64700
O 	O 	0.73040 0.59050 0.83050 -0.58300
O 	O 	0.64660 0.95990 0.82810 -0.66100
O 	O 	0.58050 0.59930 0.82820 -0.56600
O 	O 	0.56100 0.92000 0.92730 -0.39100
O 	O 	0.90710 0.54770 0.46090 -0.66200
C 	C 	0.68300 0.73350 0.87260 0.10900
C 	C 	0.62880 0.79110 0.91380 0.04900
C 	C 	0.85200 0.70040 0.35070 -0.01400
C 	C 	0.64860 0.72480 0.58550 -0.19100
P 	P 	0.85491 0.58762 0.40000 0.65200
P 	P 	0.84361 0.88304 0.36902 0.53400
O 	O 	0.77890 0.58010 0.44560 -0.69900
O 	O 	0.84980 0.93510 0.44390 -0.58300
O 	O 	0.76960 0.90950 0.33050 -0.57300
O 	O 	0.85340 0.54010 0.32810 -0.60400
O 	O 	0.91950 0.90070 0.32820 -0.37500
O 	O 	0.93900 0.58000 0.42730 -0.17600
O 	O 	0.59290 0.95230 0.96090 -0.67800
C 	C 	0.81700 0.76650 0.37260 -0.16000
C 	C 	0.87120 0.70890 0.41380 -0.07200
C 	C 	0.64800 0.79960 0.85070 -0.21400
C 	C 	0.85140 0.77520 0.08550 0.11100
P 	P 	0.35491 0.08762 0.40000 0.66900
P 	P 	0.34361 0.38304 0.36902 0.54500
O 	O 	0.27890 0.08010 0.44560 -0.72500
O 	O 	0.34980 0.43510 0.44390 -0.65000
O 	O 	0.26960 0.40950 0.33050 -0.60100
O 	O 	0.35340 0.04010 0.32810 -0.66500
O 	O 	0.41950 0.40070 0.32820 -0.56500
O 	O 	0.43900 0.08000 0.42730 -0.38500
O 	O 	0.09290 0.45230 0.96090 -0.70400
C 	C 	0.31700 0.26650 0.37260 0.00200
C 	C 	0.37120 0.20890 0.41380 -0.00800
C 	C 	0.14800 0.29960 0.85070 -0.31900
C 	C 	0.35140 0.27520 0.08550 -0.09700
P 	P 	0.14509 0.58762 0.40000 0.69300
P 	P 	0.15639 0.88304 0.36902 0.54700
O 	O 	0.22110 0.58010 0.44560 -0.73500
O 	O 	0.15020 0.93510 0.44390 -0.71100
O 	O 	0.23040 0.90950 0.33050 -0.60900
O 	O 	0.14660 0.54010 0.32810 -0.71200
O 	O 	0.08050 0.90070 0.32820 -0.69000
O 	O 	0.06100 0.58000 0.42730 -0.58800
O 	O 	0.40710 0.95230 0.96090 -0.67900
C 	C 	0.18300 0.76650 0.37260 0.21400
C 	C 	0.12880 0.70890 0.41380 0.06300
C 	C 	0.35200 0.79960 0.85070 -0.17500
C 	C 	0.14860 0.77520 0.08550 -0.34200
P 	P 	0.64509 0.08762 0.40000 0.66800
P 	P 	0.65639 0.38304 0.36902 0.54700
O 	O 	0.72110 0.08010 0.44560 -0.69900
O 	O 	0.65020 0.43510 0.44390 -0.64200
O 	O 	0.73040 0.40950 0.33050 -0.58200
O 	O 	0.64660 0.04010 0.32810 -0.65300
O 	O 	0.58050 0.40070 0.32820 -0.56500
O 	O 	0.56100 0.08000 0.42730 -0.38700
O 	O 	0.90710 0.45230 0.96090 -0.67100
C 	C 	0.68300 0.26650 0.37260 0.10700
C 	C 	0.62880 0.20890 0.41380 0.05100
C 	C 	0.85200 0.29960 0.85070 -0.00800
C 	C 	0.64860 0.27520 0.08550 -0.18600
P 	P 	0.85491 0.41238 0.90000 0.65300
P 	P 	0.84361 0.11696 0.86902 0.53400
O 	O 	0.77890 0.41990 0.94560 -0.70700
O 	O 	0.84980 0.06490 0.94390 -0.59400
O 	O 	0.76960 0.09050 0.83050 -0.57500
O 	O 	0.85340 0.45990 0.82810 -0.60300
O 	O 	0.91950 0.09930 0.82820 -0.37200
O 	O 	0.93900 0.42000 0.92730 -0.17300
O 	O 	0.59290 0.04770 0.46090 -0.65600
C 	C 	0.81700 0.23350 0.87260 -0.16500
C 	C 	0.87120 0.29110 0.91380 -0.08000
C 	C 	0.64800 0.20040 0.35070 -0.21300
C 	C 	0.85140 0.22480 0.58550 0.12600
P 	P 	0.35491 0.91238 0.90000 0.67300
P 	P 	0.34361 0.61696 0.86902 0.54600
O 	O 	0.27890 0.91990 0.94560 -0.73200
O 	O 	0.34980 0.56490 0.94390 -0.65800
O 	O 	0.26960 0.59050 0.83050 -0.60200
O 	O 	0.35340 0.95990 0.82810 -0.67300
O 	O 	0.41950 0.59930 0.82820 -0.56600
O 	O 	0.43900 0.92000 0.92730 -0.38900
O 	O 	0.09290 0.54770 0.46090 -0.69200
C 	C 	0.31700 0.73350 0.87260 0.00100
C 	C 	0.37120 0.79110 0.91380 -0.01100
C 	C 	0.14800 0.70040 0.35070 -0.31900
C 	C 	0.35140 0.72480 0.58550 -0.10100
P 	P 	0.85491 0.58762 0.10000 0.65300
P 	P 	0.84361 0.88304 0.13098 0.53500
O 	O 	0.77890 0.58010 0.05440 -0.69800
O 	O 	0.84980 0.93510 0.05610 -0.59200
O 	O 	0.76960 0.90950 0.16950 -0.57700
O 	O 	0.85340 0.54010 0.17190 -0.60500
O 	O 	0.91950 0.90070 0.17180 -0.37700
O 	O 	0.93900 0.58000 0.07270 -0.18500
O 	O 	0.59290 0.95230 0.53910 -0.66400
C 	C 	0.81700 0.76650 0.12740 -0.15500
C 	C 	0.87120 0.70890 0.08620 -0.06800
C 	C 	0.64800 0.79960 0.64930 -0.21400
C 	C 	0.85140 0.77520 0.41450 0.12000
P 	P 	0.35491 0.08762 0.10000 0.67100
P 	P 	0.34361 0.38304 0.13098 0.54500
O 	O 	0.27890 0.08010 0.05440 -0.71100
O 	O 	0.34980 0.43510 0.05610 -0.64200
O 	O 	0.26960 0.40950 0.16950 -0.59900
O 	O 	0.35340 0.04010 0.17190 -0.66400
O 	O 	0.41950 0.40070 0.17180 -0.56400
O 	O 	0.43900 0.08000 0.07270 -0.39300
O 	O 	0.09290 0.45230 0.53910 -0.69100
C 	C 	0.31700 0.26650 0.12740 0.00400
C 	C 	0.37120 0.20890 0.08620 -0.00300
C 	C 	0.14800 0.29960 0.64930 -0.32000
C 	C 	0.35140 0.27520 0.41450 -0.10200
P 	P 	0.14509 0.41238 0.60000 0.69300
P 	P 	0.15639 0.11696 0.63098 0.54700
O 	O 	0.22110 0.41990 0.55440 -0.73500
O 	O 	0.15020 0.06490 0.55610 -0.70600
O 	O 	0.23040 0.09050 0.66950 -0.60600
O 	O 	0.14660 0.45990 0.67190 -0.71300
O 	O 	0.08050 0.09930 0.67180 -0.69000
O 	O 	0.06100 0.42000 0.57270 -0.58900
O 	O 	0.40710 0.04770 0.03910 -0.65500
C 	C 	0.18300 0.23350 0.62740 0.21400
C 	C 	0.12880 0.29110 0.58620 0.06300
C 	C 	0.35200 0.20040 0.14930 -0.17600
C 	C 	0.14860 0.22480 0.91450 -0.35000
P 	P 	0.64509 0.91238 0.60000 0.66900
P 	P 	0.65639 0.61696 0.63098 0.54700
O 	O 	0.72110 0.91990 0.55440 -0.70400
O 	O 	0.65020 0.56490 0.55610 -0.64200
O 	O 	0.73040 0.59050 0.66950 -0.58200
O 	O 	0.64660 0.95990 0.67190 -0.66100
O 	O 	0.58050 0.59930 0.67180 -0.56500
O 	O 	0.56100 0.92000 0.57270 -0.38800
O 	O 	0.90710 0.54770 0.03910 -0.66200
C 	C 	0.68300 0.73350 0.62740 0.10700
C 	C 	0.62880 0.79110 0.58620 0.05200
C 	C 	0.85200 0.70040 0.14930 -0.01800
C 	C 	0.64860 0.72480 0.91450 -0.19200
Ga	Ga	0.72073 0.50000 0.50000 2.08000
Ga	Ga	0.22073 0.00000 0.50000 2.07900
Ga	Ga	0.27927 0.50000 -0.00000 2.08200
Ga	Ga	0.77927 0.00000 -0.00000 2.09000
Ga	Ga	0.27927 0.50000 0.50000 2.07800
Ga	Ga	0.77927 0.00000 0.50000 2.08300
Ga	Ga	0.72073 0.50000 -0.00000 2.08200
Ga	Ga	0.22073 0.00000 -0.00000 2.08800
V 	V 	0.27647 0.01240 0.75000 1.71500
O 	O 	0.37440 0.12280 0.75000 -0.45100
V 	V 	0.77647 0.51240 0.75000 1.72500
O 	O 	0.87440 0.62280 0.75000 -0.31000
V 	V 	0.72353 0.98760 0.25000 1.72500
O 	O 	0.62560 0.87720 0.25000 -0.44600
V 	V 	0.22353 0.48760 0.25000 1.72400
O 	O 	0.12560 0.37720 0.25000 -0.54000
V 	V 	0.72353 0.01240 0.75000 1.73000
O 	O 	0.62560 0.12280 0.75000 -0.44400
V 	V 	0.22353 0.51240 0.75000 1.72400
O 	O 	0.12560 0.62280 0.75000 -0.54400
V 	V 	0.27647 0.98760 0.25000 1.71100
O 	O 	0.37440 0.87720 0.25000 -0.45200
V 	V 	0.77647 0.48760 0.25000 1.72500
O 	O 	0.87440 0.37720 0.25000 -0.31200
V 	V 	0.00000 0.12680 0.75000 1.54500
V 	V 	0.50000 0.62680 0.75000 1.71600
V 	V 	0.00000 0.87320 0.25000 1.54900
V 	V 	0.50000 0.37320 0.25000 1.71600
K 	K 	0.50000 0.04070 0.25000 0.48600
K 	K 	0.50000 0.98050 0.25000 0.47100
K 	K 	-0.00000 0.54070 0.25000 0.40200
K 	K 	-0.00000 0.48050 0.25000 0.39600
K 	K 	0.50000 0.95930 0.75000 0.48300
K 	K 	0.50000 0.01950 0.75000 0.47500
K 	K 	0.00000 0.45930 0.75000 0.40100
K 	K 	0.00000 0.51950 0.75000 0.39500
K 	K 	0.00000 0.50000 0.50000 -4.73800
K 	K 	0.50000 0.00000 0.50000 -4.20800
K 	K 	-0.00000 0.50000 -0.00000 -4.75800
K 	K 	0.50000 0.00000 -0.00000 -4.35100
O 	O 	0.50000 0.01240 0.98330 4.05000
O 	O 	0.00000 0.51240 0.98330 4.21500
O 	O 	0.50000 0.98760 0.48330 3.93000
O 	O 	0.00000 0.48760 0.48330 4.30100
O 	O 	0.50000 0.01240 0.51670 3.99600
O 	O 	0.00000 0.51240 0.51670 4.29700
O 	O 	0.50000 0.98760 0.01670 4.11500
O 	O 	-0.00000 0.48760 0.01670 4.42900
