data_crystal

_cell_length_a 15.77090
_cell_length_b 23.10700
_cell_length_c 18.32690
_cell_angle_alpha 90.00000
_cell_angle_beta  106.27100
_cell_angle_gamma 90.00000

_symmetry_space_group_name_	'P 1'
_symmetry_space_group_name_H-M	'P 1'

loop_
_symmetry_equiv_pos_as_xyz
  x,y,z

loop_
_atom_site_label
_atom_site_type_symbol
_atom_site_fract_x
_atom_site_fract_y
_atom_site_fract_z
_atom_site_charge
Ni	Ni	0.43689 0.70670 0.19277 0.97500
Ni	Ni	0.93806 0.57346 0.25169 0.97400
N 	N 	0.47130 0.64737 0.28320 -0.25800
N 	N 	0.45390 0.57120 0.34970 -0.16200
N 	N 	0.04150 0.51830 0.30580 -0.27000
N 	N 	0.17650 0.48317 0.35210 -0.16000
N 	N 	0.44570 0.42698 0.54090 -0.16000
N 	N 	0.83620 0.62290 0.18390 -0.27500
N 	N 	0.75770 0.66650 0.07920 -0.14800
N 	N 	0.88830 0.73275 0.75700 -0.27300
N 	N 	0.81330 0.69994 0.83350 -0.15700
N 	N 	0.48000 0.85923 0.82900 -0.25600
N 	N 	0.55930 0.78494 0.88850 -0.14900
C 	C 	0.45090 0.49740 0.44400 -0.27100
H 	H 	0.51120 0.50210 0.46580 0.12200
C 	C 	0.40740 0.52880 0.38090 0.21100
C 	C 	0.31730 0.52070 0.34710 -0.27600
H 	H 	0.28910 0.53990 0.30230 0.11900
C 	C 	0.27080 0.48460 0.38010 0.21200
C 	C 	0.31200 0.45200 0.44390 -0.27200
H 	H 	0.27990 0.42680 0.46540 0.11800
C 	C 	0.40260 0.45830 0.47470 0.20900
C 	C 	0.54170 0.58630 0.37420 -0.00200
H 	H 	0.58570 0.56830 0.41200 0.01300
C 	C 	0.55110 0.63260 0.33200 -0.00200
H 	H 	0.60410 0.65150 0.33560 -0.00700
C 	C 	0.41570 0.61040 0.29560 0.10900
H 	H 	0.35580 0.61070 0.27000 -0.04800
C 	C 	0.12570 0.52950 0.31910 0.09000
H 	H 	0.14820 0.56440 0.30750 -0.03500
C 	C 	0.03750 0.46310 0.33290 0.01600
H 	H 	0.98570 0.44370 0.33250 -0.03000
C 	C 	0.11860 0.44140 0.35990 -0.01500
H 	H 	0.13300 0.40470 0.38020 0.02000
C 	C 	0.52420 0.44080 0.59330 -0.00300
H 	H 	0.56030 0.47240 0.59210 0.01800
C 	C 	0.41950 0.37560 0.56350 0.09000
H 	H 	0.36880 0.35590 0.53700 -0.05000
N 	N 	0.47370 0.35730 0.62670 -0.26700
C 	C 	0.53830 0.39850 0.64750 0.00800
H 	H 	0.58410 0.39170 0.70100 -0.00300
C 	C 	0.73140 0.68750 0.00380 0.10900
C 	C 	0.78320 0.67810 0.95520 -0.18800
H 	H 	0.83430 0.65590 0.97060 0.09300
C 	C 	0.75730 0.70240 0.88280 0.16000
C 	C 	0.67970 0.73430 0.85760 -0.21600
H 	H 	0.66030 0.74750 0.80770 0.10000
C 	C 	0.63230 0.74580 0.90950 0.15100
C 	C 	0.65630 0.72190 0.98180 -0.14200
H 	H 	0.62250 0.72880 0.01510 0.05800
C 	C 	0.82440 0.62970 0.11080 0.08200
H 	H 	0.85830 0.61130 0.08360 -0.05800
C 	C 	0.72950 0.68670 0.13920 -0.01300
H 	H 	0.68580 0.71410 0.13720 0.00700
C 	C 	0.77820 0.65860 0.20180 0.00500
H 	H 	0.77220 0.66340 0.25050 -0.00900
C 	C 	0.87470 0.65840 0.83100 -0.00900
H 	H 	0.88380 0.62320 0.85660 0.01200
C 	C 	0.91910 0.67930 0.78360 -0.01300
H 	H 	0.96460 0.66000 0.77080 -0.01400
C 	C 	0.82530 0.74250 0.78870 0.10100
H 	H 	0.79180 0.77630 0.78070 -0.04000
C 	C 	0.54520 0.82320 0.82960 0.09300
H 	H 	0.57750 0.82390 0.79420 -0.03800
C 	C 	0.45190 0.84340 0.89120 -0.01100
H 	H 	0.40600 0.86110 0.90550 -0.00500
C 	C 	0.49970 0.79950 0.92760 0.00400
H 	H 	0.49390 0.78180 0.97150 0.00900
Ni	Ni	0.93689 0.20670 0.19277 0.97300
Ni	Ni	0.43806 0.07346 0.25169 0.97900
N 	N 	0.97130 0.14737 0.28320 -0.26600
N 	N 	0.95390 0.07120 0.34970 -0.17300
N 	N 	0.54150 0.01830 0.30580 -0.26900
N 	N 	0.67650 0.98317 0.35210 -0.16500
N 	N 	0.94570 0.92698 0.54090 -0.17100
N 	N 	0.33620 0.12290 0.18390 -0.27400
N 	N 	0.25770 0.16650 0.07920 -0.14700
N 	N 	0.38830 0.23275 0.75700 -0.27100
N 	N 	0.31330 0.19994 0.83350 -0.15700
N 	N 	0.98000 0.35923 0.82900 -0.26800
N 	N 	0.05930 0.28494 0.88850 -0.14300
C 	C 	0.95090 0.99740 0.44400 -0.31500
H 	H 	0.01120 0.00210 0.46580 0.14800
C 	C 	0.90740 0.02880 0.38090 0.22600
C 	C 	0.81730 0.02070 0.34710 -0.28800
H 	H 	0.78910 0.03990 0.30230 0.12200
C 	C 	0.77080 0.98460 0.38010 0.21900
C 	C 	0.81200 0.95200 0.44390 -0.28400
H 	H 	0.77990 0.92680 0.46540 0.12000
C 	C 	0.90260 0.95830 0.47470 0.22300
C 	C 	0.04170 0.08630 0.37420 0.01000
H 	H 	0.08570 0.06830 0.41200 0.01200
C 	C 	0.05110 0.13260 0.33200 0.01000
H 	H 	0.10410 0.15150 0.33560 -0.00800
C 	C 	0.91570 0.11040 0.29560 0.10700
H 	H 	0.85580 0.11070 0.27000 -0.05000
C 	C 	0.62570 0.02950 0.31910 0.08900
H 	H 	0.64820 0.06440 0.30750 -0.03700
C 	C 	0.53750 0.96310 0.33290 -0.02500
H 	H 	0.48570 0.94370 0.33250 -0.00600
C 	C 	0.61860 0.94140 0.35990 0.00400
H 	H 	0.63300 0.90470 0.38020 0.00900
C 	C 	0.02420 0.94080 0.59330 0.01000
H 	H 	0.06030 0.97240 0.59210 0.01600
C 	C 	0.91950 0.87560 0.56350 0.08800
H 	H 	0.86880 0.85590 0.53700 -0.05200
N 	N 	0.97370 0.85730 0.62670 -0.27600
C 	C 	0.03830 0.89850 0.64750 0.01800
H 	H 	0.08410 0.89170 0.70100 -0.00200
C 	C 	0.23140 0.18750 0.00380 0.11100
C 	C 	0.28320 0.17810 0.95520 -0.18800
H 	H 	0.33430 0.15590 0.97060 0.09500
C 	C 	0.25730 0.20240 0.88280 0.16300
C 	C 	0.17970 0.23430 0.85760 -0.21700
H 	H 	0.16030 0.24750 0.80770 0.10200
C 	C 	0.13230 0.24580 0.90950 0.15500
C 	C 	0.15630 0.22190 0.98180 -0.14200
H 	H 	0.12250 0.22880 0.01510 0.06200
C 	C 	0.32440 0.12970 0.11080 0.08400
H 	H 	0.35830 0.11130 0.08360 -0.05600
C 	C 	0.22950 0.18670 0.13920 -0.01200
H 	H 	0.18580 0.21410 0.13720 0.01000
C 	C 	0.27820 0.15860 0.20180 0.00600
H 	H 	0.27220 0.16340 0.25050 -0.00700
C 	C 	0.37470 0.15840 0.83100 -0.00600
H 	H 	0.38380 0.12320 0.85660 0.01300
C 	C 	0.41910 0.17930 0.78360 -0.01300
H 	H 	0.46460 0.16000 0.77080 -0.01100
C 	C 	0.32530 0.24250 0.78870 0.10300
H 	H 	0.29180 0.27630 0.78070 -0.03900
C 	C 	0.04520 0.32320 0.82960 0.11200
H 	H 	0.07750 0.32390 0.79420 -0.04100
C 	C 	0.95190 0.34340 0.89120 -0.00500
H 	H 	0.90600 0.36110 0.90550 -0.00900
C 	C 	0.99970 0.29950 0.92760 -0.01600
H 	H 	0.99390 0.28180 0.97150 0.01100
Ni	Ni	0.43689 0.29330 0.69277 0.97800
Ni	Ni	0.93806 0.42654 0.75169 0.97600
N 	N 	0.47130 0.35263 0.78320 -0.25700
N 	N 	0.45390 0.42880 0.84970 -0.16300
N 	N 	0.04150 0.48170 0.80580 -0.26900
N 	N 	0.17650 0.51683 0.85210 -0.16000
N 	N 	0.44570 0.57302 0.04090 -0.17400
N 	N 	0.83620 0.37710 0.68390 -0.27400
N 	N 	0.75770 0.33350 0.57920 -0.16200
N 	N 	0.88830 0.26725 0.25700 -0.27400
N 	N 	0.81330 0.30006 0.33350 -0.16400
N 	N 	0.48000 0.14077 0.32900 -0.25700
N 	N 	0.55930 0.21506 0.38850 -0.15900
C 	C 	0.45090 0.50260 0.94400 -0.28300
H 	H 	0.51120 0.49790 0.96580 0.13300
C 	C 	0.40740 0.47120 0.88090 0.22100
C 	C 	0.31730 0.47930 0.84710 -0.28400
H 	H 	0.28910 0.46010 0.80230 0.12300
C 	C 	0.27080 0.51540 0.88010 0.22200
C 	C 	0.31200 0.54800 0.94390 -0.28400
H 	H 	0.27990 0.57320 0.96540 0.12800
C 	C 	0.40260 0.54170 0.97470 0.23600
C 	C 	0.54170 0.41370 0.87420 -0.00100
H 	H 	0.58570 0.43170 0.91200 0.01600
C 	C 	0.55110 0.36740 0.83200 -0.00100
H 	H 	0.60410 0.34850 0.83560 -0.00500
C 	C 	0.41570 0.38960 0.79560 0.11100
H 	H 	0.35580 0.38930 0.77000 -0.04700
C 	C 	0.12570 0.47050 0.81910 0.09300
H 	H 	0.14820 0.43560 0.80750 -0.03400
C 	C 	0.03750 0.53690 0.83290 0.01700
H 	H 	0.98570 0.55630 0.83250 -0.02800
C 	C 	0.11860 0.55860 0.85990 -0.01300
H 	H 	0.13300 0.59530 0.88020 0.02200
C 	C 	0.52420 0.55920 0.09330 -0.00400
H 	H 	0.56030 0.52760 0.09210 0.01200
C 	C 	0.41950 0.62440 0.06350 0.08900
H 	H 	0.36880 0.64410 0.03700 -0.05800
N 	N 	0.47370 0.64270 0.12670 -0.26900
C 	C 	0.53830 0.60150 0.14750 0.00600
H 	H 	0.58410 0.60830 0.20100 -0.00300
C 	C 	0.73140 0.31250 0.50380 0.20200
C 	C 	0.78320 0.32190 0.45520 -0.26400
H 	H 	0.83430 0.34410 0.47060 0.11200
C 	C 	0.75730 0.29760 0.38280 0.19600
C 	C 	0.67970 0.26570 0.35760 -0.25900
H 	H 	0.66030 0.25250 0.30770 0.11200
C 	C 	0.63230 0.25420 0.40950 0.19900
C 	C 	0.65630 0.27810 0.48180 -0.26000
H 	H 	0.62250 0.27120 0.51510 0.11300
C 	C 	0.82440 0.37030 0.61080 0.09000
H 	H 	0.85830 0.38870 0.58360 -0.05600
C 	C 	0.72950 0.31330 0.63920 -0.00500
H 	H 	0.68580 0.28590 0.63720 0.00600
C 	C 	0.77820 0.34140 0.70180 0.00300
H 	H 	0.77220 0.33660 0.75050 -0.00600
C 	C 	0.87470 0.34160 0.33100 -0.00800
H 	H 	0.88380 0.37680 0.35660 0.00800
C 	C 	0.91910 0.32070 0.28360 -0.01600
H 	H 	0.96460 0.34000 0.27080 -0.01600
C 	C 	0.82530 0.25750 0.28870 0.10100
H 	H 	0.79180 0.22370 0.28070 -0.04300
C 	C 	0.54520 0.17680 0.32960 0.09400
H 	H 	0.57750 0.17610 0.29420 -0.04100
C 	C 	0.45190 0.15660 0.39120 -0.01400
H 	H 	0.40600 0.13890 0.40550 -0.00700
C 	C 	0.49970 0.20050 0.42760 0.00600
H 	H 	0.49390 0.21820 0.47150 0.00100
Ni	Ni	0.93689 0.79330 0.69277 0.97500
Ni	Ni	0.43806 0.92654 0.75169 0.98000
N 	N 	0.97130 0.85263 0.78320 -0.26600
N 	N 	0.95390 0.92880 0.84970 -0.17300
N 	N 	0.54150 0.98170 0.80580 -0.26900
N 	N 	0.67650 0.01683 0.85210 -0.16500
N 	N 	0.94570 0.07302 0.04090 -0.18500
N 	N 	0.33620 0.87710 0.68390 -0.27300
N 	N 	0.25770 0.83350 0.57920 -0.16100
N 	N 	0.38830 0.76725 0.25700 -0.27300
N 	N 	0.31330 0.80006 0.33350 -0.16400
N 	N 	0.98000 0.64077 0.32900 -0.26900
N 	N 	0.05930 0.71506 0.38850 -0.15300
C 	C 	0.95090 0.00260 0.94400 -0.32200
H 	H 	0.01120 0.99790 0.96580 0.15500
C 	C 	0.90740 0.97120 0.88090 0.23300
C 	C 	0.81730 0.97930 0.84710 -0.29600
H 	H 	0.78910 0.96010 0.80230 0.12600
C 	C 	0.77080 0.01540 0.88010 0.22900
C 	C 	0.81200 0.04800 0.94390 -0.29500
H 	H 	0.77990 0.07320 0.96540 0.13100
C 	C 	0.90260 0.04170 0.97470 0.24800
C 	C 	0.04170 0.91370 0.87420 0.01200
H 	H 	0.08570 0.93170 0.91200 0.01500
C 	C 	0.05110 0.86740 0.83200 0.01100
H 	H 	0.10410 0.84850 0.83560 -0.00600
C 	C 	0.91570 0.88960 0.79560 0.10900
H 	H 	0.85580 0.88930 0.77000 -0.04800
C 	C 	0.62570 0.97050 0.81910 0.09000
H 	H 	0.64820 0.93560 0.80750 -0.03600
C 	C 	0.53750 0.03690 0.83290 -0.02200
H 	H 	0.48570 0.05630 0.83250 -0.00400
C 	C 	0.61860 0.05860 0.85990 0.00500
H 	H 	0.63300 0.09530 0.88020 0.01100
C 	C 	0.02420 0.05920 0.09330 0.01000
H 	H 	0.06030 0.02760 0.09210 0.01000
C 	C 	0.91950 0.12440 0.06350 0.08700
H 	H 	0.86880 0.14410 0.03700 -0.06000
N 	N 	0.97370 0.14270 0.12670 -0.27800
C 	C 	0.03830 0.10150 0.14750 0.01600
H 	H 	0.08410 0.10830 0.20100 -0.00300
C 	C 	0.23140 0.81250 0.50380 0.20500
C 	C 	0.28320 0.82190 0.45520 -0.26500
H 	H 	0.33430 0.84410 0.47060 0.11400
C 	C 	0.25730 0.79760 0.38280 0.19800
C 	C 	0.17970 0.76570 0.35760 -0.26000
H 	H 	0.16030 0.75250 0.30770 0.11500
C 	C 	0.13230 0.75420 0.40950 0.20300
C 	C 	0.15630 0.77810 0.48180 -0.26000
H 	H 	0.12250 0.77120 0.51510 0.11700
C 	C 	0.32440 0.87030 0.61080 0.09100
H 	H 	0.35830 0.88870 0.58360 -0.05400
C 	C 	0.22950 0.81330 0.63920 -0.00400
H 	H 	0.18580 0.78590 0.63720 0.00800
C 	C 	0.27820 0.84140 0.70180 0.00400
H 	H 	0.27220 0.83660 0.75050 -0.00500
C 	C 	0.37470 0.84160 0.33100 -0.00600
H 	H 	0.38380 0.87680 0.35660 0.00900
C 	C 	0.41910 0.82070 0.28360 -0.01500
H 	H 	0.46460 0.84000 0.27080 -0.01200
C 	C 	0.32530 0.75750 0.28870 0.10300
H 	H 	0.29180 0.72370 0.28070 -0.04200
C 	C 	0.04520 0.67680 0.32960 0.11300
H 	H 	0.07750 0.67610 0.29420 -0.04400
C 	C 	0.95190 0.65660 0.39120 -0.00900
H 	H 	0.90600 0.63890 0.40550 -0.01200
C 	C 	0.99970 0.70050 0.42760 -0.01500
H 	H 	0.99390 0.71820 0.47150 0.00300
