data_crystal

_cell_length_a 15.80200
_cell_length_b 23.45500
_cell_length_c 18.50600
_cell_angle_alpha 90.00000
_cell_angle_beta  105.89600
_cell_angle_gamma 90.00000

_symmetry_space_group_name_	'P 1'
_symmetry_space_group_name_H-M	'P 1'

loop_
_symmetry_equiv_pos_as_xyz
  x,y,z

loop_
_atom_site_label
_atom_site_type_symbol
_atom_site_fract_x
_atom_site_fract_y
_atom_site_fract_z
_atom_site_charge
Mn	Mn	0.60168 0.56996 0.84232 1.15400
Mn	Mn	0.10070 0.70960 0.90401 1.14700
N 	N 	0.56030 0.64170 0.75850 -0.27400
N 	N 	0.48180 0.71480 0.70240 -0.16500
N 	N 	0.15830 0.77200 0.83790 -0.29400
N 	N 	0.23240 0.80110 0.75910 -0.16600
N 	N 	0.20980 0.87740 0.41450 -0.29100
N 	N 	0.28570 0.83220 0.51510 -0.16600
N 	N 	0.48910 0.51220 0.78850 -0.28900
N 	N 	0.35330 0.48090 0.74290 -0.16500
N 	N 	0.06110 0.64780 0.80700 -0.28700
N 	N 	0.07920 0.57180 0.74230 -0.17300
N 	N 	0.05880 0.36100 0.46890 -0.30200
N 	N 	0.08700 0.43030 0.55230 -0.13900
C 	C 	0.38670 0.77660 0.61090 -0.26400
H 	H 	0.41920 0.76880 0.57710 0.10800
C 	C 	0.41070 0.75350 0.68260 0.20700
C 	C 	0.36320 0.76480 0.73300 -0.27600
H 	H 	0.38180 0.75090 0.78190 0.11300
C 	C 	0.28810 0.79700 0.71020 0.20100
C 	C 	0.26150 0.82140 0.63900 -0.26900
H 	H 	0.21080 0.84340 0.62430 0.10900
C 	C 	0.31320 0.81170 0.59070 0.19800
C 	C 	0.54240 0.70150 0.66350 -0.00300
H 	H 	0.54910 0.71970 0.62070 -0.00700
C 	C 	0.58940 0.65780 0.69910 -0.01000
H 	H 	0.63570 0.64060 0.68520 -0.02100
C 	C 	0.49740 0.67690 0.75990 0.09800
H 	H 	0.46660 0.67620 0.79610 -0.05700
C 	C 	0.31010 0.81130 0.45450 0.00200
H 	H 	0.35100 0.78260 0.45540 -0.00600
C 	C 	0.26490 0.83930 0.39470 -0.01700
H 	H 	0.26980 0.83400 0.34620 -0.01000
C 	C 	0.22010 0.86860 0.48480 0.09900
H 	H 	0.18560 0.88570 0.51200 -0.07200
C 	C 	0.21930 0.76010 0.80490 0.09300
H 	H 	0.25080 0.72610 0.81260 -0.05200
C 	C 	0.17460 0.84360 0.76320 -0.01500
H 	H 	0.16690 0.87830 0.73790 0.00100
C 	C 	0.13110 0.82450 0.81170 -0.01700
H 	H 	0.08750 0.84500 0.82550 -0.03300
C 	C 	0.21990 0.45290 0.64980 -0.25800
H 	H 	0.25170 0.42770 0.62860 0.10700
C 	C 	0.26010 0.48410 0.71410 0.19800
C 	C 	0.21380 0.52070 0.74640 -0.27200
H 	H 	0.24140 0.53930 0.79100 0.11100
C 	C 	0.12560 0.52960 0.71220 0.19800
C 	C 	0.08200 0.49960 0.64840 -0.26300
H 	H 	0.02220 0.50520 0.62630 0.10700
C 	C 	0.12950 0.46130 0.61840 0.18800
C 	C 	0.40660 0.52420 0.77710 0.09000
H 	H 	0.38610 0.55860 0.79090 -0.05100
C 	C 	0.49080 0.45790 0.76090 -0.03200
H 	H 	0.54150 0.43740 0.76200 -0.01500
C 	C 	0.40900 0.43890 0.73240 -0.00200
H 	H 	0.39270 0.40380 0.70960 0.00300
C 	C 	0.11650 0.61010 0.79530 0.09600
H 	H 	0.17600 0.60980 0.82110 -0.05800
C 	C 	0.98300 0.63340 0.75880 0.02300
H 	H 	0.93050 0.65290 0.75400 -0.02000
C 	C 	0.99150 0.58660 0.71830 0.00800
H 	H 	0.94750 0.56830 0.68190 0.01100
C 	C 	0.11210 0.37850 0.53360 0.07000
H 	H 	0.16000 0.35800 0.56210 -0.05600
C 	C 	0.99830 0.40420 0.44630 0.10500
H 	H 	0.95310 0.40430 0.40180 -0.03400
C 	C 	0.01420 0.44670 0.49840 -0.12200
H 	H 	0.98190 0.48000 0.49730 0.07300
Mn	Mn	0.10168 0.06996 0.84232 1.14700
Mn	Mn	0.60070 0.20960 0.90401 1.15100
N 	N 	0.06030 0.14170 0.75850 -0.29400
N 	N 	0.98180 0.21480 0.70240 -0.15500
N 	N 	0.65830 0.27200 0.83790 -0.29100
N 	N 	0.73240 0.30110 0.75910 -0.16600
N 	N 	0.70980 0.37740 0.41450 -0.28900
N 	N 	0.78570 0.33220 0.51510 -0.16500
N 	N 	0.98910 0.01220 0.78850 -0.29100
N 	N 	0.85330 0.98090 0.74290 -0.16000
N 	N 	0.56110 0.14780 0.80700 -0.27200
N 	N 	0.57920 0.07180 0.74230 -0.16200
N 	N 	0.55880 0.86100 0.46890 -0.27500
N 	N 	0.58700 0.93030 0.55230 -0.15900
C 	C 	0.88670 0.27660 0.61090 -0.26500
H 	H 	0.91920 0.26880 0.57710 0.11600
C 	C 	0.91070 0.25350 0.68260 0.21300
C 	C 	0.86320 0.26480 0.73300 -0.27800
H 	H 	0.88180 0.25090 0.78190 0.11700
C 	C 	0.78810 0.29700 0.71020 0.20600
C 	C 	0.76150 0.32140 0.63900 -0.27100
H 	H 	0.71080 0.34340 0.62430 0.11200
C 	C 	0.81320 0.31170 0.59070 0.20400
C 	C 	0.04240 0.20150 0.66350 -0.03700
H 	H 	0.04910 0.21970 0.62070 -0.00400
C 	C 	0.08940 0.15780 0.69910 -0.00000
H 	H 	0.13570 0.14060 0.68520 -0.02800
C 	C 	0.99740 0.17690 0.75990 0.13000
H 	H 	0.96660 0.17620 0.79610 -0.06300
C 	C 	0.81010 0.31130 0.45450 0.00400
H 	H 	0.85100 0.28260 0.45540 -0.00300
C 	C 	0.76490 0.33930 0.39470 -0.01500
H 	H 	0.76980 0.33400 0.34620 -0.00800
C 	C 	0.72010 0.36860 0.48480 0.10200
H 	H 	0.68560 0.38570 0.51200 -0.06800
C 	C 	0.71930 0.26010 0.80490 0.09600
H 	H 	0.75080 0.22610 0.81260 -0.05100
C 	C 	0.67460 0.34360 0.76320 -0.01200
H 	H 	0.66690 0.37830 0.73790 0.00300
C 	C 	0.63110 0.32450 0.81170 -0.01600
H 	H 	0.58750 0.34500 0.82550 -0.02800
C 	C 	0.71990 0.95290 0.64980 -0.26400
H 	H 	0.75170 0.92770 0.62860 0.11100
C 	C 	0.76010 0.98410 0.71410 0.20300
C 	C 	0.71380 0.02070 0.74640 -0.27500
H 	H 	0.74140 0.03930 0.79100 0.11400
C 	C 	0.62560 0.02960 0.71220 0.20700
C 	C 	0.58200 0.99960 0.64840 -0.26900
H 	H 	0.52220 0.00520 0.62630 0.11800
C 	C 	0.62950 0.96130 0.61840 0.20100
C 	C 	0.90660 0.02420 0.77710 0.09300
H 	H 	0.88610 0.05860 0.79090 -0.04800
C 	C 	0.99080 0.95790 0.76090 0.03300
H 	H 	0.04150 0.93740 0.76200 -0.05400
C 	C 	0.90900 0.93890 0.73240 -0.03100
H 	H 	0.89270 0.90380 0.70960 0.02000
C 	C 	0.61650 0.11010 0.79530 0.10100
H 	H 	0.67600 0.10980 0.82110 -0.05700
C 	C 	0.48300 0.13340 0.75880 0.00100
H 	H 	0.43050 0.15290 0.75400 -0.01900
C 	C 	0.49150 0.08660 0.71830 -0.01100
H 	H 	0.44750 0.06830 0.68190 0.01000
C 	C 	0.61210 0.87850 0.53360 0.07600
H 	H 	0.66000 0.85800 0.56210 -0.05500
C 	C 	0.49830 0.90420 0.44630 -0.00500
H 	H 	0.45310 0.90430 0.40180 -0.00100
C 	C 	0.51420 0.94670 0.49840 0.00100
H 	H 	0.48190 0.98000 0.49730 0.01100
Mn	Mn	0.60168 0.43004 0.34232 1.15800
Mn	Mn	0.10070 0.29040 0.40401 1.15300
N 	N 	0.56030 0.35830 0.25850 -0.27300
N 	N 	0.48180 0.28520 0.20240 -0.16400
N 	N 	0.15830 0.22800 0.33790 -0.29100
N 	N 	0.23240 0.19890 0.25910 -0.16500
N 	N 	0.20980 0.12260 0.91450 -0.27900
N 	N 	0.28570 0.16780 0.01510 -0.11600
N 	N 	0.48910 0.48780 0.28850 -0.28700
N 	N 	0.35330 0.51910 0.24290 -0.16500
N 	N 	0.06110 0.35220 0.30700 -0.28600
N 	N 	0.07920 0.42820 0.24230 -0.17300
N 	N 	0.05880 0.63900 0.96890 -0.32700
N 	N 	0.08700 0.56970 0.05230 -0.12600
C 	C 	0.38670 0.22340 0.11090 -0.26000
H 	H 	0.41920 0.23120 0.07710 0.11600
C 	C 	0.41070 0.24650 0.18260 0.21000
C 	C 	0.36320 0.23520 0.23300 -0.27500
H 	H 	0.38180 0.24910 0.28190 0.11600
C 	C 	0.28810 0.20300 0.21020 0.20400
C 	C 	0.26150 0.17860 0.13900 -0.26400
H 	H 	0.21080 0.15660 0.12430 0.11100
C 	C 	0.31320 0.18830 0.09070 0.19800
C 	C 	0.54240 0.29850 0.16350 -0.00100
H 	H 	0.54910 0.28030 0.12070 -0.00200
C 	C 	0.58940 0.34220 0.19910 -0.00800
H 	H 	0.63570 0.35940 0.18520 -0.01700
C 	C 	0.49740 0.32310 0.25990 0.10000
H 	H 	0.46660 0.32380 0.29610 -0.05400
C 	C 	0.31010 0.18870 0.95450 -0.04300
H 	H 	0.35100 0.21740 0.95540 -0.00200
C 	C 	0.26490 0.16070 0.89470 0.00100
H 	H 	0.26980 0.16600 0.84620 -0.02000
C 	C 	0.22010 0.13140 0.98480 -0.00700
H 	H 	0.18560 0.11430 0.01200 -0.01000
C 	C 	0.21930 0.23990 0.30490 0.09600
H 	H 	0.25080 0.27390 0.31260 -0.04900
C 	C 	0.17460 0.15640 0.26320 -0.01300
H 	H 	0.16690 0.12170 0.23790 0.00300
C 	C 	0.13110 0.17550 0.31170 -0.01500
H 	H 	0.08750 0.15500 0.32550 -0.03000
C 	C 	0.21990 0.54710 0.14980 -0.26100
H 	H 	0.25170 0.57230 0.12860 0.11200
C 	C 	0.26010 0.51590 0.21410 0.20400
C 	C 	0.21380 0.47930 0.24640 -0.27400
H 	H 	0.24140 0.46070 0.29100 0.11500
C 	C 	0.12560 0.47040 0.21220 0.20400
C 	C 	0.08200 0.50040 0.14840 -0.26400
H 	H 	0.02220 0.49480 0.12630 0.11500
C 	C 	0.12950 0.53870 0.11840 0.19600
C 	C 	0.40660 0.47580 0.27710 0.09400
H 	H 	0.38610 0.44140 0.29090 -0.04900
C 	C 	0.49080 0.54210 0.26090 -0.02900
H 	H 	0.54150 0.56260 0.26200 -0.01200
C 	C 	0.40900 0.56110 0.23240 0.00100
H 	H 	0.39270 0.59620 0.20960 0.00600
C 	C 	0.11650 0.38990 0.29530 0.09900
H 	H 	0.17600 0.39020 0.32110 -0.05500
C 	C 	0.98300 0.36660 0.25880 0.02500
H 	H 	0.93050 0.34710 0.25400 -0.01800
C 	C 	0.99150 0.41340 0.21830 0.01000
H 	H 	0.94750 0.43170 0.18190 0.01500
C 	C 	0.11210 0.62150 0.03360 0.11100
H 	H 	0.16000 0.64200 0.06210 -0.06300
C 	C 	0.99830 0.59580 0.94630 0.11600
H 	H 	0.95310 0.59570 0.90180 -0.04000
C 	C 	0.01420 0.55330 0.99840 -0.16500
H 	H 	0.98190 0.52000 0.99730 0.07600
Mn	Mn	0.10168 0.93004 0.34232 1.15100
Mn	Mn	0.60070 0.79040 0.40401 1.15700
N 	N 	0.06030 0.85830 0.25850 -0.29200
N 	N 	0.98180 0.78520 0.20240 -0.15500
N 	N 	0.65830 0.72800 0.33790 -0.28800
N 	N 	0.73240 0.69890 0.25910 -0.16500
N 	N 	0.70980 0.62260 0.91450 -0.27700
N 	N 	0.78570 0.66780 0.01510 -0.11600
N 	N 	0.98910 0.98780 0.28850 -0.28900
N 	N 	0.85330 0.01910 0.24290 -0.15900
N 	N 	0.56110 0.85220 0.30700 -0.27100
N 	N 	0.57920 0.92820 0.24230 -0.16100
N 	N 	0.55880 0.13900 0.96890 -0.30000
N 	N 	0.58700 0.06970 0.05230 -0.14400
C 	C 	0.88670 0.72340 0.11090 -0.26100
H 	H 	0.91920 0.73120 0.07710 0.12300
C 	C 	0.91070 0.74650 0.18260 0.21600
C 	C 	0.86320 0.73520 0.23300 -0.27800
H 	H 	0.88180 0.74910 0.28190 0.12000
C 	C 	0.78810 0.70300 0.21020 0.20900
C 	C 	0.76150 0.67860 0.13900 -0.26600
H 	H 	0.71080 0.65660 0.12430 0.11500
C 	C 	0.81320 0.68830 0.09070 0.20400
C 	C 	0.04240 0.79850 0.16350 -0.03400
H 	H 	0.04910 0.78030 0.12070 0.00200
C 	C 	0.08940 0.84220 0.19910 0.00200
H 	H 	0.13570 0.85940 0.18520 -0.02500
C 	C 	0.99740 0.82310 0.25990 0.13200
H 	H 	0.96660 0.82380 0.29610 -0.06000
C 	C 	0.81010 0.68870 0.95450 -0.04000
H 	H 	0.85100 0.71740 0.95540 0.00200
C 	C 	0.76490 0.66070 0.89470 0.00300
H 	H 	0.76980 0.66600 0.84620 -0.01700
C 	C 	0.72010 0.63140 0.98480 -0.00300
H 	H 	0.68560 0.61430 0.01200 -0.00800
C 	C 	0.71930 0.73990 0.30490 0.09800
H 	H 	0.75080 0.77390 0.31260 -0.04800
C 	C 	0.67460 0.65640 0.26320 -0.00900
H 	H 	0.66690 0.62170 0.23790 0.00500
C 	C 	0.63110 0.67550 0.31170 -0.01300
H 	H 	0.58750 0.65500 0.32550 -0.02400
C 	C 	0.71990 0.04710 0.14980 -0.26500
H 	H 	0.75170 0.07230 0.12860 0.11600
C 	C 	0.76010 0.01590 0.21410 0.20900
C 	C 	0.71380 0.97930 0.24640 -0.27800
H 	H 	0.74140 0.96070 0.29100 0.11800
C 	C 	0.62560 0.97040 0.21220 0.21000
C 	C 	0.58200 0.00040 0.14840 -0.26600
H 	H 	0.52220 0.99480 0.12630 0.12400
C 	C 	0.62950 0.03870 0.11840 0.20700
C 	C 	0.90660 0.97580 0.27710 0.09500
H 	H 	0.88610 0.94140 0.29090 -0.04600
C 	C 	0.99080 0.04210 0.26090 0.03700
H 	H 	0.04150 0.06260 0.26200 -0.05200
C 	C 	0.90900 0.06110 0.23240 -0.02900
H 	H 	0.89270 0.09620 0.20960 0.02300
C 	C 	0.61650 0.88990 0.29530 0.10300
H 	H 	0.67600 0.89020 0.32110 -0.05400
C 	C 	0.48300 0.86660 0.25880 0.00300
H 	H 	0.43050 0.84710 0.25400 -0.01600
C 	C 	0.49150 0.91340 0.21830 -0.00900
H 	H 	0.44750 0.93170 0.18190 0.01400
C 	C 	0.61210 0.12150 0.03360 0.11800
H 	H 	0.66000 0.14200 0.06210 -0.06200
C 	C 	0.49830 0.09580 0.94630 0.00700
H 	H 	0.45310 0.09570 0.90180 -0.00800
C 	C 	0.51420 0.05330 0.99840 -0.04400
H 	H 	0.48190 0.02000 0.99730 0.01500
