data_crystal

_cell_length_a 19.61000
_cell_length_b 9.40900
_cell_length_c 20.32000
_cell_angle_alpha 90.00000
_cell_angle_beta  125.31000
_cell_angle_gamma 90.00000

_symmetry_space_group_name_	'P 1'
_symmetry_space_group_name_H-M	'P 1'

loop_
_symmetry_equiv_pos_as_xyz
  x,y,z

loop_
_atom_site_label
_atom_site_type_symbol
_atom_site_fract_x
_atom_site_fract_y
_atom_site_fract_z
_atom_site_charge
Cu	Cu	0.24950 0.99910 0.06670 0.78500
Cu	Cu	0.75170 0.74410 0.42710 0.87700
C 	C 	0.97620 0.06080 0.88830 0.01900
C 	C 	0.06730 0.05110 0.92020 -0.02800
C 	C 	0.11970 0.99480 0.00520 -0.16900
C 	C 	0.14610 0.95830 0.07270 -0.11600
C 	C 	0.15140 0.91610 0.14520 -0.00100
C 	C 	0.93800 0.91450 0.87370 -0.01300
C 	C 	0.38020 0.99560 0.14500 -0.16100
C 	C 	0.35700 0.91800 0.17310 -0.11000
C 	C 	0.35430 0.81420 0.22600 -0.00700
C 	C 	0.44140 0.76240 0.29460 0.10500
C 	C 	0.47640 0.66260 0.26290 -0.03100
C 	C 	0.57000 0.62780 0.32730 0.03600
C 	C 	0.62410 0.75050 0.33840 -0.08700
C 	C 	0.64810 0.86580 0.33380 -0.11900
C 	C 	0.65430 0.01100 0.31490 0.05100
C 	C 	0.56910 0.07750 0.26000 0.02100
C 	C 	0.52060 0.03310 0.17260 0.00400
C 	C 	0.42980 0.08370 0.12330 -0.03200
C 	C 	0.88280 0.78150 0.49770 -0.05700
C 	C 	0.85640 0.82000 0.43150 -0.08000
C 	C 	0.85190 0.87150 0.35930 0.01600
C 	C 	0.93780 0.87930 0.37490 0.02200
C 	C 	0.97390 0.73320 0.38200 0.05300
C 	C 	0.93280 0.73580 0.58350 0.02800
S 	S 	0.73900 0.88390 0.57680 0.31700
O 	O 	0.74430 0.76650 0.53410 -0.27800
O 	O 	0.79690 0.87850 0.66310 -0.20300
O 	O 	0.73110 0.02240 0.54110 -0.29100
C 	C 	0.63650 0.85520 0.55770 0.84000
F 	F 	0.63400 0.72990 0.58310 -0.47900
F 	F 	0.62470 0.95050 0.59830 -0.48100
F 	F 	0.57680 0.87020 0.48150 -0.46800
Cu	Cu	0.74950 0.49910 0.06670 0.78900
Cu	Cu	0.25170 0.24410 0.42710 0.87900
C 	C 	0.47620 0.56080 0.88830 -0.00200
C 	C 	0.56730 0.55110 0.92020 -0.05000
C 	C 	0.61970 0.49480 0.00520 -0.14400
C 	C 	0.64610 0.45830 0.07270 -0.12200
C 	C 	0.65140 0.41610 0.14520 0.00400
C 	C 	0.43800 0.41450 0.87370 0.00500
C 	C 	0.88020 0.49560 0.14500 -0.13200
C 	C 	0.85700 0.41800 0.17310 -0.11900
C 	C 	0.85430 0.31420 0.22600 0.00100
C 	C 	0.94140 0.26240 0.29460 0.10800
C 	C 	0.97640 0.16260 0.26290 -0.02800
C 	C 	0.07000 0.12780 0.32730 0.04800
C 	C 	0.12410 0.25050 0.33840 -0.09700
C 	C 	0.14810 0.36580 0.33380 -0.08700
C 	C 	0.15430 0.51100 0.31490 0.02500
C 	C 	0.06910 0.57750 0.26000 0.01800
C 	C 	0.02060 0.53310 0.17260 -0.00100
C 	C 	0.92980 0.58370 0.12330 -0.05600
C 	C 	0.38280 0.28150 0.49770 -0.05300
C 	C 	0.35640 0.32000 0.43150 -0.07600
C 	C 	0.35190 0.37150 0.35930 0.02700
C 	C 	0.43780 0.37930 0.37490 0.03000
C 	C 	0.47390 0.23320 0.38200 0.06000
C 	C 	0.43280 0.23580 0.58350 0.03400
S 	S 	0.23900 0.38390 0.57680 0.34700
O 	O 	0.24430 0.26650 0.53410 -0.28100
O 	O 	0.29690 0.37850 0.66310 -0.20300
O 	O 	0.23110 0.52240 0.54110 -0.31400
C 	C 	0.13650 0.35520 0.55770 0.83600
F 	F 	0.13400 0.22990 0.58310 -0.47400
F 	F 	0.12470 0.45050 0.59830 -0.47300
F 	F 	0.07680 0.37020 0.48150 -0.46200
Cu	Cu	0.75050 0.99910 0.93330 0.78500
Cu	Cu	0.24830 0.74410 0.57290 0.87700
C 	C 	0.02380 0.06080 0.11170 0.01900
C 	C 	0.93270 0.05110 0.07980 -0.02800
C 	C 	0.88030 0.99480 0.99480 -0.16900
C 	C 	0.85390 0.95830 0.92730 -0.11600
C 	C 	0.84860 0.91610 0.85480 -0.00100
C 	C 	0.06200 0.91450 0.12630 -0.01300
C 	C 	0.61980 0.99560 0.85500 -0.16100
C 	C 	0.64300 0.91800 0.82690 -0.11000
C 	C 	0.64570 0.81420 0.77400 -0.00700
C 	C 	0.55860 0.76240 0.70540 0.10500
C 	C 	0.52360 0.66260 0.73710 -0.03100
C 	C 	0.43000 0.62780 0.67270 0.03600
C 	C 	0.37590 0.75050 0.66160 -0.08700
C 	C 	0.35190 0.86580 0.66620 -0.11900
C 	C 	0.34570 0.01100 0.68510 0.05100
C 	C 	0.43090 0.07750 0.74000 0.02100
C 	C 	0.47940 0.03310 0.82740 0.00400
C 	C 	0.57020 0.08370 0.87670 -0.03200
C 	C 	0.11720 0.78150 0.50230 -0.05700
C 	C 	0.14360 0.82000 0.56850 -0.08000
C 	C 	0.14810 0.87150 0.64070 0.01600
C 	C 	0.06220 0.87930 0.62510 0.02200
C 	C 	0.02610 0.73320 0.61800 0.05300
C 	C 	0.06720 0.73580 0.41650 0.02800
S 	S 	0.26100 0.88390 0.42320 0.31700
O 	O 	0.25570 0.76650 0.46590 -0.27800
O 	O 	0.20310 0.87850 0.33690 -0.20300
O 	O 	0.26890 0.02240 0.45890 -0.29100
C 	C 	0.36350 0.85520 0.44230 0.84000
F 	F 	0.36600 0.72990 0.41690 -0.47900
F 	F 	0.37530 0.95050 0.40170 -0.48100
F 	F 	0.42320 0.87020 0.51850 -0.46800
Cu	Cu	0.25050 0.49910 0.93330 0.78900
Cu	Cu	0.74830 0.24410 0.57290 0.87900
C 	C 	0.52380 0.56080 0.11170 -0.00200
C 	C 	0.43270 0.55110 0.07980 -0.05000
C 	C 	0.38030 0.49480 0.99480 -0.14400
C 	C 	0.35390 0.45830 0.92730 -0.12200
C 	C 	0.34860 0.41610 0.85480 0.00400
C 	C 	0.56200 0.41450 0.12630 0.00500
C 	C 	0.11980 0.49560 0.85500 -0.13200
C 	C 	0.14300 0.41800 0.82690 -0.11900
C 	C 	0.14570 0.31420 0.77400 0.00100
C 	C 	0.05860 0.26240 0.70540 0.10800
C 	C 	0.02360 0.16260 0.73710 -0.02800
C 	C 	0.93000 0.12780 0.67270 0.04800
C 	C 	0.87590 0.25050 0.66160 -0.09700
C 	C 	0.85190 0.36580 0.66620 -0.08700
C 	C 	0.84570 0.51100 0.68510 0.02500
C 	C 	0.93090 0.57750 0.74000 0.01800
C 	C 	0.97940 0.53310 0.82740 -0.00100
C 	C 	0.07020 0.58370 0.87670 -0.05600
C 	C 	0.61720 0.28150 0.50230 -0.05300
C 	C 	0.64360 0.32000 0.56850 -0.07600
C 	C 	0.64810 0.37150 0.64070 0.02700
C 	C 	0.56220 0.37930 0.62510 0.03000
C 	C 	0.52610 0.23320 0.61800 0.06000
C 	C 	0.56720 0.23580 0.41650 0.03400
S 	S 	0.76100 0.38390 0.42320 0.34700
O 	O 	0.75570 0.26650 0.46590 -0.28100
O 	O 	0.70310 0.37850 0.33690 -0.20300
O 	O 	0.76890 0.52240 0.45890 -0.31400
C 	C 	0.86350 0.35520 0.44230 0.83600
F 	F 	0.86600 0.22990 0.41690 -0.47400
F 	F 	0.87530 0.45050 0.40170 -0.47300
F 	F 	0.92320 0.37020 0.51850 -0.46200
