data_crystal

_cell_length_a 8.84900
_cell_length_b 13.86900
_cell_length_c 10.81800
_cell_angle_alpha 90.00000
_cell_angle_beta  90.00000
_cell_angle_gamma 90.00000

_symmetry_space_group_name_	'P 1'
_symmetry_space_group_name_H-M	'P 1'

loop_
_symmetry_equiv_pos_as_xyz
  x,y,z

loop_
_atom_site_label
_atom_site_type_symbol
_atom_site_fract_x
_atom_site_fract_y
_atom_site_fract_z
_atom_site_charge
Zn	Zn	0.03756 0.10116 0.32781 1.25200
P 	P 	0.98948 0.07784 0.62516 0.54000
P 	P 	0.82898 0.28392 0.38000 0.51000
O 	O 	0.89870 0.20657 0.30080 -0.40400
O 	O 	0.72750 0.24083 0.48230 -0.19200
O 	O 	0.01030 0.04953 0.49304 -0.40900
O 	O 	0.10000 0.16304 0.65890 -0.15700
O 	O 	0.01600 0.99898 0.71650 -0.40400
O 	O 	0.95950 0.34147 0.44760 -0.16800
O 	O 	0.82500 0.11776 0.64690 -0.16600
O 	O 	0.74290 0.35660 0.30376 -0.40100
Zn	Zn	0.96244 0.89884 0.82781 1.25100
P 	P 	0.01052 0.92216 0.12516 0.50900
P 	P 	0.17102 0.71608 0.88000 0.50900
O 	O 	0.10130 0.79343 0.80080 -0.39300
O 	O 	0.27250 0.75917 0.98230 -0.17200
O 	O 	0.98970 0.95047 0.99304 -0.38300
O 	O 	0.90000 0.83696 0.15890 -0.17700
O 	O 	0.98400 0.00102 0.21650 -0.41000
O 	O 	0.04050 0.65853 0.94760 -0.14900
O 	O 	0.17500 0.88224 0.14690 -0.18400
O 	O 	0.25710 0.64340 0.80376 -0.39200
Zn	Zn	0.53756 0.39884 0.32781 1.25200
P 	P 	0.48948 0.42216 0.62516 0.54100
P 	P 	0.32898 0.21608 0.38000 0.50900
O 	O 	0.39870 0.29343 0.30080 -0.40600
O 	O 	0.22750 0.25917 0.48230 -0.19200
O 	O 	0.51030 0.45047 0.49304 -0.40900
O 	O 	0.60000 0.33696 0.65890 -0.15800
O 	O 	0.51600 0.50102 0.71650 -0.41000
O 	O 	0.45950 0.15853 0.44760 -0.16800
O 	O 	0.32500 0.38224 0.64690 -0.16500
O 	O 	0.24290 0.14340 0.30376 -0.40200
Zn	Zn	0.46244 0.60116 0.82781 1.25400
P 	P 	0.51052 0.57784 0.12516 0.50800
P 	P 	0.67102 0.78392 0.88000 0.50900
O 	O 	0.60130 0.70657 0.80080 -0.39800
O 	O 	0.77250 0.74083 0.98230 -0.17700
O 	O 	0.48970 0.54953 0.99304 -0.37500
O 	O 	0.40000 0.66304 0.15890 -0.17700
O 	O 	0.48400 0.49898 0.21650 -0.41500
O 	O 	0.54050 0.84147 0.94760 -0.15400
O 	O 	0.67500 0.61776 0.14690 -0.18200
O 	O 	0.75710 0.85660 0.80376 -0.39500
