data_crystal

_cell_length_a 15.22460
_cell_length_b 15.22460
_cell_length_c 16.68600
_cell_angle_alpha 106.34200
_cell_angle_beta  106.34200
_cell_angle_gamma 110.90700

_symmetry_space_group_name_	'P 1'
_symmetry_space_group_name_H-M	'P 1'

loop_
_symmetry_equiv_pos_as_xyz
  x,y,z

loop_
_atom_site_label
_atom_site_type_symbol
_atom_site_fract_x
_atom_site_fract_y
_atom_site_fract_z
_atom_site_charge
Ni	Ni	-0.00000 0.50000 -0.00000 1.02100
Ni	Ni	0.50000 0.00000 0.50000 1.04600
Ni	Ni	0.00000 0.00000 0.50000 1.02500
Ni	Ni	-0.00000 0.00000 -0.00000 0.99700
Mo	Mo	0.87129 0.12871 0.75000 1.08000
Mo	Mo	0.12871 0.87129 0.25000 1.08000
H 	H 	0.12830 0.42210 0.90150 0.03000
H 	H 	0.23850 0.51950 0.96570 0.06900
H 	H 	0.09710 0.35270 0.01800 0.01300
H 	H 	0.21520 0.42720 0.08100 0.04300
H 	H 	0.00610 0.39650 0.18970 0.07700
H 	H 	0.96880 0.33140 0.08400 0.11200
H 	H 	0.16860 0.63020 0.95570 0.08700
H 	H 	0.14040 0.55460 0.85550 0.07600
H 	H 	0.83840 0.02620 0.40450 -0.05700
H 	H 	0.79390 0.96190 0.29800 0.00900
H 	H 	0.75240 0.86020 0.41110 0.05400
H 	H 	0.72590 0.78510 0.31070 0.05300
H 	H 	0.87810 0.74870 0.52890 0.06900
H 	H 	0.85020 0.84000 0.54580 0.06500
H 	H 	0.94250 0.10190 0.32780 0.09200
H 	H 	0.98260 0.02120 0.33400 0.07100
H 	H 	0.15260 0.54440 0.26430 0.10200
H 	H 	0.21990 0.58430 0.21400 0.08900
H 	H 	0.26020 0.47940 0.32310 -0.01600
H 	H 	0.32550 0.51330 0.26930 -0.03100
H 	H 	0.87250 0.66370 0.39730 0.10900
H 	H 	0.89760 0.73280 0.34490 0.09900
H 	H 	0.69730 0.56950 0.28040 0.00500
H 	H 	0.73730 0.63030 0.22510 -0.00700
H 	H 	0.19040 0.56340 0.07290 0.09400
H 	H 	0.97800 0.45960 0.83620 0.14700
H 	H 	0.89370 0.87730 0.33280 0.11900
H 	H 	0.97750 0.15270 0.48340 0.14400
H 	H 	0.40860 0.65460 0.36400 0.15600
H 	H 	0.85340 0.57440 0.23150 0.16500
H 	H 	0.57790 0.87170 0.59850 0.05700
H 	H 	0.48050 0.76150 0.53430 0.06600
H 	H 	0.64730 0.90290 0.48200 0.06400
H 	H 	0.57280 0.78480 0.41900 0.05700
H 	H 	0.60350 0.99390 0.31030 0.02600
H 	H 	0.66860 0.03120 0.41600 -0.03500
H 	H 	0.36980 0.83140 0.54430 0.06600
H 	H 	0.44540 0.85960 0.64450 0.09000
H 	H 	0.97380 0.16160 0.09550 0.13400
H 	H 	0.03810 0.20610 0.20200 0.11300
H 	H 	0.13980 0.24760 0.08890 0.02700
H 	H 	0.21490 0.27410 0.18930 0.05700
H 	H 	0.25130 0.12190 0.97110 0.04400
H 	H 	0.16000 0.14980 0.95420 0.03800
H 	H 	0.89810 0.05750 0.17220 0.01300
H 	H 	0.97880 0.01740 0.16600 0.01300
H 	H 	0.45560 0.84740 0.23570 0.09800
H 	H 	0.41570 0.78010 0.28600 0.08600
H 	H 	0.52060 0.73980 0.17690 -0.01700
H 	H 	0.48670 0.67450 0.23070 -0.03200
H 	H 	0.33630 0.12750 0.10270 0.05400
H 	H 	0.26720 0.10240 0.15510 0.05100
H 	H 	0.43050 0.30270 0.21960 0.01300
H 	H 	0.36970 0.26270 0.27490 0.00700
H 	H 	0.43660 0.80960 0.42710 0.09700
H 	H 	0.54040 0.02200 0.66380 0.05400
H 	H 	0.12270 0.10630 0.16720 0.08800
H 	H 	0.84730 0.02250 0.01660 0.02700
H 	H 	0.34540 0.59140 0.13600 0.15200
H 	H 	0.42560 0.14660 0.26850 0.14400
H 	H 	0.87170 0.57790 0.09850 0.06900
H 	H 	0.76150 0.48050 0.03430 0.06600
H 	H 	0.90290 0.64730 0.98200 0.08700
H 	H 	0.78480 0.57280 0.91900 0.07100
H 	H 	0.99390 0.60350 0.81030 0.03400
H 	H 	0.03120 0.66860 0.91600 -0.01500
H 	H 	0.83140 0.36980 0.04430 0.03700
H 	H 	0.85960 0.44540 0.14450 0.07400
H 	H 	0.16160 0.97380 0.59550 0.14200
H 	H 	0.20610 0.03810 0.70200 0.11800
H 	H 	0.24760 0.13980 0.58890 0.04000
H 	H 	0.27410 0.21490 0.68930 0.06000
H 	H 	0.12190 0.25130 0.47110 0.04600
H 	H 	0.14980 0.16000 0.45420 0.04100
H 	H 	0.05750 0.89810 0.67220 0.01500
H 	H 	0.01740 0.97880 0.66600 0.01200
H 	H 	0.84740 0.45560 0.73570 0.10200
H 	H 	0.78010 0.41570 0.78600 0.08700
H 	H 	0.73980 0.52060 0.67690 -0.00500
H 	H 	0.67450 0.48670 0.73070 -0.02400
H 	H 	0.12750 0.33630 0.60270 0.07600
H 	H 	0.10240 0.26720 0.65510 0.06200
H 	H 	0.30270 0.43050 0.71960 0.02100
H 	H 	0.26270 0.36970 0.77490 0.01200
H 	H 	0.80960 0.43660 0.92710 0.10200
H 	H 	0.02200 0.54040 0.16380 0.05300
H 	H 	0.10630 0.12270 0.66720 0.09000
H 	H 	0.02250 0.84730 0.51660 0.04800
H 	H 	0.59140 0.34540 0.63600 0.15400
H 	H 	0.14660 0.42560 0.76850 0.14600
H 	H 	0.42210 0.12830 0.40150 0.04200
H 	H 	0.51950 0.23850 0.46570 0.07100
H 	H 	0.35270 0.09710 0.51800 0.03800
H 	H 	0.42720 0.21520 0.58100 0.05900
H 	H 	0.39650 0.00610 0.68970 0.08300
H 	H 	0.33140 0.96880 0.58400 0.12300
H 	H 	0.63020 0.16860 0.45570 0.05700
H 	H 	0.55460 0.14040 0.35550 0.06000
H 	H 	0.02620 0.83840 0.90450 -0.03800
H 	H 	0.96190 0.79390 0.79800 0.01800
H 	H 	0.86020 0.75240 0.91110 0.06600
H 	H 	0.78510 0.72590 0.81070 0.05600
H 	H 	0.74870 0.87810 0.02890 0.07000
H 	H 	0.84000 0.85020 0.04580 0.07000
H 	H 	0.10190 0.94250 0.82780 0.09000
H 	H 	0.02120 0.98260 0.83400 0.06700
H 	H 	0.54440 0.15260 0.76430 0.10500
H 	H 	0.58430 0.21990 0.71400 0.08900
H 	H 	0.47940 0.26020 0.82310 -0.00400
H 	H 	0.51330 0.32550 0.76930 -0.02300
H 	H 	0.66370 0.87250 0.89730 0.12900
H 	H 	0.73280 0.89760 0.84490 0.10800
H 	H 	0.56950 0.69730 0.78040 0.01400
H 	H 	0.63030 0.73730 0.72510 -0.00200
H 	H 	0.56340 0.19040 0.57290 0.09800
H 	H 	0.45960 0.97800 0.33620 0.15100
H 	H 	0.87730 0.89370 0.83280 0.11900
H 	H 	0.15270 0.97750 0.98340 0.16200
H 	H 	0.65460 0.40860 0.86400 0.15800
H 	H 	0.57440 0.85340 0.73150 0.16600
C 	C 	0.90235 0.26625 0.85590 -0.10500
C 	C 	0.92116 0.25544 0.71380 -0.11800
C 	C 	0.89417 0.07003 0.62940 -0.12200
C 	C 	0.81472 0.96388 0.70180 -0.08500
C 	C 	0.16453 0.49347 0.94760 -0.00100
C 	C 	0.14664 0.42176 0.06630 -0.06700
C 	C 	0.01422 0.39978 0.13480 -0.21100
C 	C 	0.12876 0.55824 0.91030 -0.13300
C 	C 	0.85164 0.98936 0.35630 0.12400
C 	C 	0.77968 0.82712 0.37340 -0.04400
C 	C 	0.87965 0.80515 0.51220 -0.06600
C 	C 	0.95185 0.06015 0.35970 -0.18900
C 	C 	0.19390 0.52930 0.23290 -0.20200
C 	C 	0.28549 0.53131 0.30080 0.19400
C 	C 	0.84334 0.69246 0.35870 -0.18200
C 	C 	0.75740 0.60440 0.27030 0.14400
C 	C 	0.73375 0.09765 0.64410 -0.14200
C 	C 	0.74456 0.07884 0.78620 -0.15400
C 	C 	0.92997 0.10583 0.87060 -0.10900
C 	C 	0.03612 0.18528 0.79820 -0.19000
C 	C 	0.50653 0.83547 0.55240 -0.06400
C 	C 	0.57824 0.85336 0.43370 -0.06900
C 	C 	0.60022 0.98578 0.36520 0.09700
C 	C 	0.44176 0.87124 0.58970 -0.11900
C 	C 	0.01064 0.14836 0.14370 -0.32200
C 	C 	0.17288 0.22032 0.12660 -0.05800
C 	C 	0.19485 0.12035 0.98780 0.00600
C 	C 	0.93985 0.04815 0.14030 0.01500
C 	C 	0.47070 0.80610 0.26710 -0.19500
C 	C 	0.46869 0.71451 0.19920 0.19700
C 	C 	0.30754 0.15666 0.14130 -0.13400
C 	C 	0.39560 0.24260 0.22970 0.10700
C 	C 	0.09765 0.73375 0.14410 -0.15300
C 	C 	0.07884 0.74456 0.28620 -0.16100
C 	C 	0.10583 0.92997 0.37060 -0.11700
C 	C 	0.18528 0.03612 0.29820 -0.20100
C 	C 	0.83547 0.50653 0.05240 -0.13700
C 	C 	0.85336 0.57824 0.93370 -0.08000
C 	C 	0.98578 0.60022 0.86520 0.08000
C 	C 	0.87124 0.44176 0.08970 -0.08400
C 	C 	0.14836 0.01064 0.64370 -0.32200
C 	C 	0.22032 0.17288 0.62660 -0.05900
C 	C 	0.12035 0.19485 0.48780 -0.06100
C 	C 	0.04815 0.93985 0.64030 0.01900
C 	C 	0.80610 0.47070 0.76710 -0.19000
C 	C 	0.71451 0.46869 0.69920 0.18300
C 	C 	0.15666 0.30754 0.64130 -0.14300
C 	C 	0.24260 0.39560 0.72970 0.10700
C 	C 	0.26625 0.90235 0.35590 -0.11300
C 	C 	0.25544 0.92116 0.21380 -0.12300
C 	C 	0.07003 0.89417 0.12940 -0.13000
C 	C 	0.96388 0.81472 0.20180 -0.08900
C 	C 	0.49347 0.16453 0.44760 -0.08100
C 	C 	0.42176 0.14664 0.56630 -0.08100
C 	C 	0.39978 0.01422 0.63480 -0.21400
C 	C 	0.55824 0.12876 0.41030 -0.09700
C 	C 	0.98936 0.85164 0.85630 0.10300
C 	C 	0.82712 0.77968 0.87340 -0.04400
C 	C 	0.80515 0.87965 0.01220 -0.12400
C 	C 	0.06015 0.95185 0.85970 -0.17300
C 	C 	0.52930 0.19390 0.73290 -0.19700
C 	C 	0.53131 0.28549 0.80080 0.18100
C 	C 	0.69246 0.84334 0.85870 -0.18900
C 	C 	0.60440 0.75740 0.77030 0.14200
N 	N 	0.92106 0.34168 0.91640 -0.16300
N 	N 	0.94478 0.32402 0.69770 -0.07300
N 	N 	0.90978 0.03676 0.56660 -0.19100
N 	N 	0.78930 0.87930 0.68060 -0.08800
N 	N 	0.14158 0.49962 0.02690 -0.28400
N 	N 	0.12613 0.43087 0.15020 -0.07600
N 	N 	0.01586 0.52174 0.88670 -0.30000
N 	N 	0.87468 0.90764 0.37540 -0.25900
N 	N 	0.81522 0.76178 0.41120 -0.08100
N 	N 	0.00982 0.11938 0.46000 -0.29400
N 	N 	0.65832 0.07894 0.58360 -0.20200
N 	N 	0.67598 0.05522 0.80230 -0.08700
N 	N 	0.96324 0.09022 0.93340 -0.16200
N 	N 	0.12070 0.21070 0.81940 -0.07000
N 	N 	0.50038 0.85842 0.47310 -0.23800
N 	N 	0.56913 0.87387 0.34980 -0.09700
N 	N 	0.47826 0.98414 0.61330 -0.16500
N 	N 	0.09236 0.12532 0.12460 -0.23900
N 	N 	0.23822 0.18478 0.08880 -0.12500
N 	N 	0.88062 0.99018 0.04000 -0.17900
N 	N 	0.07894 0.65832 0.08360 -0.21600
N 	N 	0.05522 0.67598 0.30230 -0.09400
N 	N 	0.09022 0.96324 0.43340 -0.18300
N 	N 	0.21070 0.12070 0.31940 -0.07600
N 	N 	0.85842 0.50038 0.97310 -0.19800
N 	N 	0.87387 0.56913 0.84980 -0.09200
N 	N 	0.98414 0.47826 0.11330 -0.17400
N 	N 	0.12532 0.09236 0.62460 -0.23200
N 	N 	0.18478 0.23822 0.58880 -0.09200
N 	N 	0.99018 0.88062 0.54000 -0.18600
N 	N 	0.34168 0.92106 0.41640 -0.18400
N 	N 	0.32402 0.94478 0.19770 -0.07900
N 	N 	0.03676 0.90978 0.06660 -0.20600
N 	N 	0.87930 0.78930 0.18060 -0.09400
N 	N 	0.49962 0.14158 0.52690 -0.24700
N 	N 	0.43087 0.12613 0.65020 -0.07300
N 	N 	0.52174 0.01586 0.38670 -0.32200
N 	N 	0.90764 0.87468 0.87540 -0.24600
N 	N 	0.76178 0.81522 0.91120 -0.05200
N 	N 	0.11938 0.00982 0.96000 -0.28800
O 	O 	0.34642 0.62274 0.37160 -0.33200
O 	O 	0.79281 0.53645 0.23870 -0.30600
O 	O 	0.37726 0.65358 0.12840 -0.34600
O 	O 	0.46355 0.20719 0.26130 -0.29900
O 	O 	0.65358 0.37726 0.62840 -0.32600
O 	O 	0.20719 0.46355 0.76130 -0.29100
O 	O 	0.62274 0.34642 0.87160 -0.31300
O 	O 	0.53645 0.79281 0.73870 -0.29700
