data_crystal

_cell_length_a 15.90070
_cell_length_b 15.90070
_cell_length_c 15.90070
_cell_angle_alpha 63.15630
_cell_angle_beta  74.08440
_cell_angle_gamma 105.91600

_symmetry_space_group_name_	'P 1'
_symmetry_space_group_name_H-M	'P 1'

loop_
_symmetry_equiv_pos_as_xyz
  x,y,z

loop_
_atom_site_label
_atom_site_type_symbol
_atom_site_fract_x
_atom_site_fract_y
_atom_site_fract_z
_atom_site_charge
Ni	Ni	1.00000 0.50000 0.50000 1.03900
Ni	Ni	0.50000 0.00000 0.50000 1.05300
Ni	Ni	1.00000 0.50000 -0.00000 1.02500
Ni	Ni	0.50000 0.50000 0.50000 1.06800
H 	H 	0.15920 0.54420 0.29740 0.04300
H 	H 	0.25580 0.61580 0.28940 0.04900
H 	H 	0.08680 0.66390 0.25790 0.04900
H 	H 	0.18690 0.75370 0.22380 0.03700
H 	H 	0.93660 0.73190 0.38770 0.03600
H 	H 	0.93480 0.65430 0.35230 0.04500
H 	H 	0.20140 0.43290 0.41850 0.04800
H 	H 	0.20000 0.49450 0.47290 0.04900
H 	H 	0.11790 0.75350 0.41980 -0.05500
H 	H 	0.19870 0.83900 0.30090 -0.06700
H 	H 	0.14770 0.92800 0.36630 0.28200
H 	H 	0.10760 0.93640 0.28460 0.27400
H 	H 	0.03670 0.85480 0.40710 0.29100
H 	H 	0.17060 0.65500 0.38780 0.10400
H 	H 	0.04020 0.36940 0.47580 0.11200
H 	H 	0.34080 0.04340 0.61500 -0.00700
H 	H 	0.24420 0.95480 0.64000 0.04100
H 	H 	0.41320 0.15530 0.42290 0.03800
H 	H 	0.31310 0.08930 0.43320 0.03900
H 	H 	0.56340 0.17570 0.20470 0.02900
H 	H 	0.56520 0.21290 0.28050 0.03800
H 	H 	0.29860 0.88010 0.76850 0.06700
H 	H 	0.30000 0.82710 0.70550 0.06200
H 	H 	0.38210 0.96230 0.36440 -0.02300
H 	H 	0.30130 0.00040 0.35970 -0.06200
H 	H 	0.35230 0.98600 0.21970 0.29000
H 	H 	0.39240 0.10780 0.17120 0.24900
H 	H 	0.46330 0.05620 0.18190 0.25300
H 	H 	0.32940 0.94160 0.51560 0.10800
H 	H 	0.45980 0.98400 0.67080 0.10300
H 	H 	0.15840 0.70260 0.95660 0.07300
H 	H 	0.09480 0.71060 0.04520 0.07500
H 	H 	0.07820 0.74210 0.84470 0.02500
H 	H 	0.02250 0.77620 0.91070 0.04600
H 	H 	0.88040 0.61230 0.82430 0.02700
H 	H 	0.99340 0.64770 0.78710 0.01300
H 	H 	0.14860 0.58150 0.11990 0.04100
H 	H 	0.03260 0.52710 0.17290 0.06700
H 	H 	0.82670 0.58020 0.03770 -0.07900
H 	H 	0.86010 0.69910 0.99960 -0.04900
H 	H 	0.70570 0.63370 0.01400 0.18600
H 	H 	0.77900 0.71540 0.89220 0.20100
H 	H 	0.73810 0.59290 0.94380 0.21100
H 	H 	0.95720 0.61220 0.05840 0.04200
H 	H 	0.15480 0.52420 0.01600 0.08100
H 	H 	0.34160 0.38500 0.45580 0.04000
H 	H 	0.40520 0.36000 0.38420 0.05000
H 	H 	0.42180 0.57710 0.33610 0.03100
H 	H 	0.47750 0.56680 0.24630 0.03500
H 	H 	0.61960 0.79530 0.26810 0.03500
H 	H 	0.50660 0.71950 0.34570 0.04000
H 	H 	0.35140 0.23150 0.56710 0.04900
H 	H 	0.46740 0.29450 0.50550 0.04900
H 	H 	0.67330 0.63560 0.24650 -0.04700
H 	H 	0.63990 0.64030 0.16100 -0.04700
H 	H 	0.79430 0.78030 0.07200 0.21400
H 	H 	0.72100 0.82880 0.06360 0.21200
H 	H 	0.76190 0.81810 0.14520 0.21800
H 	H 	0.54280 0.48440 0.34500 0.10300
H 	H 	0.34520 0.32920 0.63060 0.09100
H 	H 	0.84080 0.45580 0.70260 0.03200
H 	H 	0.74420 0.38420 0.71060 0.04900
H 	H 	0.91320 0.33610 0.74210 0.01500
H 	H 	0.81310 0.24630 0.77620 0.03400
H 	H 	0.06340 0.26810 0.61230 0.03100
H 	H 	0.06520 0.34570 0.64770 0.03300
H 	H 	0.79860 0.56710 0.58150 0.04900
H 	H 	0.80000 0.50550 0.52710 0.05200
H 	H 	0.88210 0.24650 0.58020 -0.04800
H 	H 	0.80130 0.16100 0.69910 -0.03700
H 	H 	0.85230 0.07200 0.63370 0.19300
H 	H 	0.89240 0.06360 0.71540 0.18300
H 	H 	0.96330 0.14520 0.59290 0.17800
H 	H 	0.82940 0.34500 0.61220 0.10300
H 	H 	0.95980 0.63060 0.52420 0.06800
H 	H 	0.65920 0.95660 0.38500 0.08400
H 	H 	0.75580 0.04520 0.36000 0.05700
H 	H 	0.58680 0.84470 0.57710 0.02500
H 	H 	0.68690 0.91070 0.56680 0.03200
H 	H 	0.43660 0.82430 0.79530 0.03700
H 	H 	0.43480 0.78710 0.71950 0.04000
H 	H 	0.70140 0.11990 0.23150 0.02900
H 	H 	0.70000 0.17290 0.29450 0.03900
H 	H 	0.61790 0.03770 0.63560 -0.08100
H 	H 	0.69870 0.99960 0.64030 -0.04100
H 	H 	0.64770 0.01400 0.78030 0.18100
H 	H 	0.60760 0.89220 0.82880 0.20500
H 	H 	0.53670 0.94380 0.81810 0.21400
H 	H 	0.67060 0.05840 0.48440 0.09900
H 	H 	0.54020 0.01600 0.32920 0.07600
H 	H 	0.84160 0.29740 0.04340 -0.00600
H 	H 	0.90520 0.28940 0.95480 0.02100
H 	H 	0.92180 0.25790 0.15530 0.04200
H 	H 	0.97750 0.22380 0.08930 0.02700
H 	H 	0.11960 0.38770 0.17570 0.03900
H 	H 	0.00660 0.35230 0.21290 0.06800
H 	H 	0.85140 0.41850 0.88010 0.05700
H 	H 	0.96740 0.47290 0.82710 0.03700
H 	H 	0.17330 0.41980 0.96230 -0.03000
H 	H 	0.13990 0.30090 0.00040 -0.05200
H 	H 	0.29430 0.36630 0.98600 0.28100
H 	H 	0.22100 0.28460 0.10780 0.25200
H 	H 	0.26190 0.40710 0.05620 0.25500
H 	H 	0.04280 0.38780 0.94160 0.15700
H 	H 	0.84520 0.47580 0.98400 0.10200
H 	H 	0.65840 0.61500 0.54420 0.03700
H 	H 	0.59480 0.64000 0.61580 0.05000
H 	H 	0.57820 0.42290 0.66390 0.03100
H 	H 	0.52250 0.43320 0.75370 0.03700
H 	H 	0.38040 0.20470 0.73190 0.03200
H 	H 	0.49340 0.28050 0.65430 0.03700
H 	H 	0.64860 0.76850 0.43290 0.04800
H 	H 	0.53260 0.70550 0.49450 0.05100
H 	H 	0.32670 0.36440 0.75350 -0.05600
H 	H 	0.36010 0.35970 0.83900 -0.05600
H 	H 	0.20570 0.21970 0.92800 0.25700
H 	H 	0.27900 0.17120 0.93640 0.24000
H 	H 	0.23810 0.18190 0.85480 0.24900
H 	H 	0.45720 0.51560 0.65500 0.10400
H 	H 	0.65480 0.67080 0.36940 0.08800
W 	W 	0.75000 0.37500 0.37500 0.51900
W 	W 	0.25000 0.62500 0.62500 0.52200
C 	C 	0.87802 0.43822 0.39120 -0.05000
C 	C 	0.70091 0.28910 0.54539 -0.05200
C 	C 	0.18580 0.56710 0.33570 -0.08200
C 	C 	0.12220 0.69890 0.28310 -0.02800
C 	C 	0.96430 0.68570 0.38360 -0.10200
C 	C 	0.17050 0.47130 0.43640 -0.08800
C 	C 	0.12900 0.80540 0.34940 0.29400
C 	C 	0.10280 0.88860 0.35220 -0.81700
C 	C 	0.62198 0.23078 0.43980 -0.03600
C 	C 	0.79909 0.25370 0.41181 -0.06000
C 	C 	0.31420 0.97850 0.61870 -0.00000
C 	C 	0.37780 0.09470 0.42330 -0.05800
C 	C 	0.53570 0.15210 0.27860 -0.03700
C 	C 	0.32950 0.89310 0.69920 -0.12900
C 	C 	0.37100 0.02160 0.32360 0.22300
C 	C 	0.39720 0.04500 0.21420 -0.82200
C 	C 	0.17058 0.60880 0.76922 -0.02700
C 	C 	0.16551 0.45461 0.74630 -0.04300
C 	C 	0.09720 0.66430 0.02150 -0.13600
C 	C 	0.01800 0.71690 0.90530 0.04700
C 	C 	0.93070 0.61640 0.84790 -0.02200
C 	C 	0.09230 0.56360 0.10690 -0.07500
C 	C 	0.84520 0.65060 0.97840 0.25200
C 	C 	0.75920 0.64780 0.95500 -0.61100
C 	C 	0.32942 0.56020 0.56178 -0.03600
C 	C 	0.33449 0.58819 0.71090 -0.05000
C 	C 	0.40280 0.38130 0.43290 -0.08200
C 	C 	0.48200 0.57670 0.30110 -0.02800
C 	C 	0.56930 0.72140 0.31430 -0.03600
C 	C 	0.40770 0.30080 0.52870 -0.09600
C 	C 	0.65480 0.67640 0.19460 0.21900
C 	C 	0.74080 0.78580 0.11140 -0.67600
C 	C 	0.12198 0.56178 0.60880 -0.02400
C 	C 	0.29909 0.71090 0.45461 -0.04800
C 	C 	0.81420 0.43290 0.66430 -0.07800
C 	C 	0.87780 0.30110 0.71690 -0.02600
C 	C 	0.03570 0.31430 0.61640 0.03400
C 	C 	0.82950 0.52870 0.56360 -0.10300
C 	C 	0.87100 0.19460 0.65060 0.18700
C 	C 	0.89720 0.11140 0.64780 -0.61700
C 	C 	0.37802 0.76922 0.56020 -0.03700
C 	C 	0.20091 0.74630 0.58819 -0.04100
C 	C 	0.68580 0.02150 0.38130 -0.16100
C 	C 	0.62220 0.90530 0.57670 0.00400
C 	C 	0.46430 0.84790 0.72140 -0.03000
C 	C 	0.67050 0.10690 0.30080 -0.06300
C 	C 	0.62900 0.97840 0.67640 0.25600
C 	C 	0.60280 0.95500 0.78580 -0.60400
C 	C 	0.82942 0.39120 0.23078 -0.04700
C 	C 	0.83449 0.54539 0.25370 -0.05700
C 	C 	0.90280 0.33570 0.97850 -0.00700
C 	C 	0.98200 0.28310 0.09470 -0.11800
C 	C 	0.06930 0.38360 0.15210 -0.04400
C 	C 	0.90770 0.43640 0.89310 -0.12200
C 	C 	0.15480 0.34940 0.02160 0.23500
C 	C 	0.24080 0.35220 0.04500 -0.80700
C 	C 	0.67058 0.43980 0.43822 -0.03700
C 	C 	0.66551 0.41181 0.28910 -0.05100
C 	C 	0.59720 0.61870 0.56710 -0.08100
C 	C 	0.51800 0.42330 0.69890 -0.02800
C 	C 	0.43070 0.27860 0.68570 -0.03200
C 	C 	0.59230 0.69920 0.47130 -0.09800
C 	C 	0.34520 0.32360 0.80540 0.25700
C 	C 	0.25920 0.21420 0.88860 -0.75000
N 	N 	0.94299 0.46926 0.40633 -0.23300
N 	N 	0.67695 0.24542 0.63637 -0.11000
N 	N 	0.13475 0.62064 0.36709 -0.24100
N 	N 	0.07015 0.74926 0.31491 -0.11900
N 	N 	0.06256 0.40121 0.50605 -0.24900
N 	N 	0.55701 0.15068 0.47373 -0.21900
N 	N 	0.82305 0.18668 0.43153 -0.12200
N 	N 	0.36525 0.99816 0.51411 -0.24100
N 	N 	0.42985 0.11494 0.32089 -0.14600
N 	N 	0.43744 0.93139 0.66135 -0.24300
N 	N 	0.12441 0.59367 0.84932 -0.19500
N 	N 	0.11821 0.36363 0.81332 -0.09600
N 	N 	0.01227 0.63291 0.00184 -0.20300
N 	N 	0.93583 0.68509 0.88506 -0.17900
N 	N 	0.09274 0.49395 0.06861 -0.23800
N 	N 	0.37559 0.52627 0.53074 -0.21400
N 	N 	0.38179 0.56847 0.75458 -0.10700
N 	N 	0.48773 0.48589 0.37936 -0.25300
N 	N 	0.56417 0.67911 0.25074 -0.14600
N 	N 	0.40726 0.33865 0.59879 -0.25100
N 	N 	0.05701 0.53074 0.59367 -0.18900
N 	N 	0.32305 0.75458 0.36363 -0.10700
N 	N 	0.86525 0.37936 0.63291 -0.25900
N 	N 	0.92985 0.25074 0.68509 -0.17600
N 	N 	0.93744 0.59879 0.49395 -0.24600
N 	N 	0.44299 0.84932 0.52627 -0.20600
N 	N 	0.17695 0.81332 0.56847 -0.09600
N 	N 	0.63475 0.00184 0.48589 -0.26200
N 	N 	0.57015 0.88506 0.67911 -0.15100
N 	N 	0.56256 0.06861 0.33865 -0.25500
N 	N 	0.87559 0.40633 0.15068 -0.22600
N 	N 	0.88179 0.63637 0.18668 -0.12300
N 	N 	0.98773 0.36709 0.99816 -0.28300
N 	N 	0.06417 0.31491 0.11494 -0.11200
N 	N 	0.90726 0.50605 0.93139 -0.25300
N 	N 	0.62441 0.47373 0.46926 -0.21500
N 	N 	0.61821 0.43153 0.24542 -0.11100
N 	N 	0.51227 0.51411 0.62064 -0.25300
N 	N 	0.43583 0.32089 0.74926 -0.15100
N 	N 	0.59274 0.66135 0.40121 -0.25000
