data_crystal

_cell_length_a 17.12400
_cell_length_b 17.12400
_cell_length_c 5.39210
_cell_angle_alpha 90.00000
_cell_angle_beta  90.00000
_cell_angle_gamma 90.00000

_symmetry_space_group_name_	'P 1'
_symmetry_space_group_name_H-M	'P 1'

loop_
_symmetry_equiv_pos_as_xyz
  x,y,z

loop_
_atom_site_label
_atom_site_type_symbol
_atom_site_fract_x
_atom_site_fract_y
_atom_site_fract_z
_atom_site_charge
N 	N 	0.27801 0.36691 0.25520 -0.25200
N 	N 	0.19234 0.33264 0.53860 -0.13900
C 	C 	0.26450 0.32068 0.44840 0.06600
C 	C 	0.21040 0.41040 0.22710 -0.02600
H 	H 	0.20250 0.44820 0.10580 -0.01600
C 	C 	0.15810 0.39010 0.39950 0.00100
H 	H 	0.10840 0.41100 0.42080 0.01900
C 	C 	0.15410 0.28840 0.73770 0.15000
H 	H 	0.13850 0.32350 0.86990 0.03600
H 	H 	0.19010 0.25030 0.80570 0.03600
C 	C 	0.08290 0.24750 0.63200 -0.54800
H 	H 	0.04750 0.28650 0.56580 0.20500
H 	H 	0.09930 0.21440 0.49560 0.20100
C 	C 	0.04000 0.19870 0.81740 0.68300
O 	O 	0.97650 0.16960 0.74910 -0.54100
O 	O 	0.07010 0.19040 0.02870 -0.70300
H 	H 	0.04190 0.16280 0.11450 0.24900
N 	N 	0.72199 0.63309 0.25520 -0.25100
N 	N 	0.80766 0.66736 0.53860 -0.13800
C 	C 	0.73550 0.67932 0.44840 0.06700
C 	C 	0.78960 0.58960 0.22710 -0.02500
H 	H 	0.79750 0.55180 0.10580 -0.01500
C 	C 	0.84190 0.60990 0.39950 0.00200
H 	H 	0.89160 0.58900 0.42080 0.01900
C 	C 	0.84590 0.71160 0.73770 0.15000
H 	H 	0.86150 0.67650 0.86990 0.03600
H 	H 	0.80990 0.74970 0.80570 0.03600
C 	C 	0.91710 0.75250 0.63200 -0.54800
H 	H 	0.95250 0.71350 0.56580 0.20500
H 	H 	0.90070 0.78560 0.49560 0.20100
C 	C 	0.96000 0.80130 0.81740 0.68300
O 	O 	0.02350 0.83040 0.74910 -0.54100
O 	O 	0.92990 0.80960 0.02870 -0.70300
H 	H 	0.95810 0.83720 0.11450 0.24900
N 	N 	0.13309 0.77801 0.25520 -0.25100
N 	N 	0.16736 0.69234 0.53860 -0.13800
C 	C 	0.17932 0.76450 0.44840 0.06700
C 	C 	0.08960 0.71040 0.22710 -0.02500
H 	H 	0.05180 0.70250 0.10580 -0.01500
C 	C 	0.10990 0.65810 0.39950 0.00300
H 	H 	0.08900 0.60840 0.42080 0.01900
C 	C 	0.21160 0.65410 0.73770 0.15100
H 	H 	0.17650 0.63850 0.86990 0.03600
H 	H 	0.24970 0.69010 0.80570 0.03500
C 	C 	0.25250 0.58290 0.63200 -0.55100
H 	H 	0.21350 0.54750 0.56580 0.20600
H 	H 	0.28560 0.59930 0.49560 0.20200
C 	C 	0.30130 0.54000 0.81740 0.68700
O 	O 	0.33040 0.47650 0.74910 -0.54300
O 	O 	0.30960 0.57010 0.02870 -0.70500
H 	H 	0.33720 0.54190 0.11450 0.25000
N 	N 	0.86691 0.22199 0.25520 -0.25100
N 	N 	0.83264 0.30766 0.53860 -0.13800
C 	C 	0.82068 0.23550 0.44840 0.06700
C 	C 	0.91040 0.28960 0.22710 -0.02500
H 	H 	0.94820 0.29750 0.10580 -0.01500
C 	C 	0.89010 0.34190 0.39950 0.00300
H 	H 	0.91100 0.39160 0.42080 0.01900
C 	C 	0.78840 0.34590 0.73770 0.15100
H 	H 	0.82350 0.36150 0.86990 0.03600
H 	H 	0.75030 0.30990 0.80570 0.03500
C 	C 	0.74750 0.41710 0.63200 -0.55100
H 	H 	0.78650 0.45250 0.56580 0.20600
H 	H 	0.71440 0.40070 0.49560 0.20200
C 	C 	0.69870 0.46000 0.81740 0.68700
O 	O 	0.66960 0.52350 0.74910 -0.54300
O 	O 	0.69040 0.42990 0.02870 -0.70500
H 	H 	0.66280 0.45810 0.11450 0.25000
N 	N 	0.22199 0.86691 0.74480 -0.20600
N 	N 	0.30766 0.83264 0.46140 -0.14600
C 	C 	0.23550 0.82068 0.55160 0.06600
C 	C 	0.28960 0.91040 0.77290 -0.00700
H 	H 	0.29750 0.94820 0.89420 0.05800
C 	C 	0.34190 0.89010 0.60050 0.01900
H 	H 	0.39160 0.91100 0.57920 0.02000
C 	C 	0.34590 0.78840 0.26230 0.13200
H 	H 	0.36150 0.82350 0.13010 -0.04200
H 	H 	0.30990 0.75030 0.19430 -0.01900
C 	C 	0.41710 0.74750 0.36800 -0.42700
H 	H 	0.45250 0.78650 0.43420 0.16200
H 	H 	0.40070 0.71440 0.50440 0.17300
C 	C 	0.46000 0.69870 0.18260 0.34800
O 	O 	0.52350 0.66960 0.25090 -0.51400
O 	O 	0.42990 0.69040 0.97130 -0.37700
H 	H 	0.45810 0.66280 0.88550 0.19400
N 	N 	0.77801 0.13309 0.74480 -0.20600
N 	N 	0.69234 0.16736 0.46140 -0.14600
C 	C 	0.76450 0.17932 0.55160 0.06600
C 	C 	0.71040 0.08960 0.77290 -0.00700
H 	H 	0.70250 0.05180 0.89420 0.05800
C 	C 	0.65810 0.10990 0.60050 0.01900
H 	H 	0.60840 0.08900 0.57920 0.02000
C 	C 	0.65410 0.21160 0.26230 0.13200
H 	H 	0.63850 0.17650 0.13010 -0.04200
H 	H 	0.69010 0.24970 0.19430 -0.01900
C 	C 	0.58290 0.25250 0.36800 -0.42700
H 	H 	0.54750 0.21350 0.43420 0.16200
H 	H 	0.59930 0.28560 0.50440 0.17300
C 	C 	0.54000 0.30130 0.18260 0.34800
O 	O 	0.47650 0.33040 0.25090 -0.51400
O 	O 	0.57010 0.30960 0.97130 -0.37700
H 	H 	0.54190 0.33720 0.88550 0.19400
N 	N 	0.36691 0.27801 0.74480 -0.20500
N 	N 	0.33264 0.19234 0.46140 -0.14600
C 	C 	0.32068 0.26450 0.55160 0.06600
C 	C 	0.41040 0.21040 0.77290 -0.00700
H 	H 	0.44820 0.20250 0.89420 0.05800
C 	C 	0.39010 0.15810 0.60050 0.01900
H 	H 	0.41100 0.10840 0.57920 0.02000
C 	C 	0.28840 0.15410 0.26230 0.13200
H 	H 	0.32350 0.13850 0.13010 -0.04200
H 	H 	0.25030 0.19010 0.19430 -0.01800
C 	C 	0.24750 0.08290 0.36800 -0.42600
H 	H 	0.28650 0.04750 0.43420 0.16100
H 	H 	0.21440 0.09930 0.50440 0.17200
C 	C 	0.19870 0.04000 0.18260 0.34700
O 	O 	0.16960 0.97650 0.25090 -0.51200
O 	O 	0.19040 0.07010 0.97130 -0.37800
H 	H 	0.16280 0.04190 0.88550 0.19400
N 	N 	0.63309 0.72199 0.74480 -0.20500
N 	N 	0.66736 0.80766 0.46140 -0.14600
C 	C 	0.67932 0.73550 0.55160 0.06600
C 	C 	0.58960 0.78960 0.77290 -0.00700
H 	H 	0.55180 0.79750 0.89420 0.05800
C 	C 	0.60990 0.84190 0.60050 0.01900
H 	H 	0.58900 0.89160 0.57920 0.02000
C 	C 	0.71160 0.84590 0.26230 0.13200
H 	H 	0.67650 0.86150 0.13010 -0.04200
H 	H 	0.74970 0.80990 0.19430 -0.01800
C 	C 	0.75250 0.91710 0.36800 -0.42600
H 	H 	0.71350 0.95250 0.43420 0.16100
H 	H 	0.78560 0.90070 0.50440 0.17200
C 	C 	0.80130 0.96000 0.18260 0.34700
O 	O 	0.83040 0.02350 0.25090 -0.51200
O 	O 	0.80960 0.92990 0.97130 -0.37800
H 	H 	0.83720 0.95810 0.88550 0.19400
Cd	Cd	0.38470 0.38470 -0.00000 1.13900
Cd	Cd	0.61530 0.61530 -0.00000 1.13900
Cd	Cd	0.11530 0.88470 -0.00000 1.14000
Cd	Cd	0.88470 0.11530 -0.00000 1.14000
