data_crystal

_cell_length_a 16.00690
_cell_length_b 16.00690
_cell_length_c 16.55260
_cell_angle_alpha 118.91500
_cell_angle_beta  118.91500
_cell_angle_gamma 90.00000

_symmetry_space_group_name_	'P 1'
_symmetry_space_group_name_H-M	'P 1'

loop_
_symmetry_equiv_pos_as_xyz
  x,y,z

loop_
_atom_site_label
_atom_site_type_symbol
_atom_site_fract_x
_atom_site_fract_y
_atom_site_fract_z
_atom_site_charge
Cd	Cd	0.53534 0.73372 0.81893 1.21300
Cd	Cd	0.28358 0.08521 0.81892 1.20000
Cd	Cd	0.26629 0.71642 0.18109 1.21500
Cd	Cd	0.91479 0.46466 0.18107 1.20000
Cd	Cd	0.96642 0.01628 0.68108 1.18000
Cd	Cd	0.71466 0.66480 0.68108 1.21300
Cd	Cd	0.33521 0.03358 0.31892 1.19700
Cd	Cd	0.98372 0.28534 0.31893 1.19600
H 	H 	0.16640 0.56060 0.35640 0.04400
H 	H 	0.26570 0.64850 0.55760 0.04400
H 	H 	0.10200 0.60860 0.64640 0.01000
H 	H 	0.18100 0.70480 0.69420 0.02200
H 	H 	0.23080 0.52830 0.66400 0.17100
H 	H 	0.24410 0.61010 0.77540 0.16000
H 	H 	0.78480 0.33310 0.35220 0.02100
H 	H 	0.77330 0.50070 0.45380 0.03400
H 	H 	0.99150 0.69060 0.55220 -0.01000
H 	H 	0.93060 0.68550 0.60140 0.01000
H 	H 	0.78760 0.67790 0.45900 0.17700
H 	H 	0.84210 0.67200 0.40000 0.17100
H 	H 	0.19000 0.79580 0.35640 0.04700
H 	H 	0.29190 0.90910 0.55760 0.06200
H 	H 	0.54440 0.03780 0.64640 0.04600
H 	H 	0.51320 0.98940 0.69420 0.13900
H 	H 	0.43320 0.13570 0.66400 0.12900
H 	H 	0.53130 0.16530 0.77540 0.12100
H 	H 	0.56740 0.01910 0.35220 -0.07700
H 	H 	0.68050 0.95310 0.45380 0.07600
H 	H 	0.56070 0.86160 0.55220 0.02900
H 	H 	0.67080 0.91590 0.60140 0.05200
H 	H 	0.67140 0.78110 0.45900 0.17100
H 	H 	0.55790 0.72800 0.40000 0.16600
H 	H 	0.43940 0.81000 0.64360 0.04800
H 	H 	0.35150 0.70810 0.44240 0.04300
H 	H 	0.39140 0.45560 0.35360 -0.00500
H 	H 	0.29520 0.48680 0.30580 0.01700
H 	H 	0.47170 0.56680 0.33600 0.16800
H 	H 	0.38990 0.46870 0.22460 0.15800
H 	H 	0.66690 0.43260 0.64780 0.02200
H 	H 	0.49930 0.31950 0.54620 0.03300
H 	H 	0.30940 0.43930 0.44780 0.01800
H 	H 	0.31450 0.32920 0.39860 0.02800
H 	H 	0.32210 0.32860 0.54100 0.17200
H 	H 	0.32800 0.44210 0.60000 0.16900
H 	H 	0.20420 0.83360 0.64360 0.04300
H 	H 	0.09090 0.73430 0.44240 0.06200
H 	H 	0.96220 0.89800 0.35360 0.05900
H 	H 	0.01060 0.81900 0.30580 0.14000
H 	H 	0.86430 0.76920 0.33600 0.13300
H 	H 	0.83470 0.75590 0.22460 0.12400
H 	H 	0.98090 0.21520 0.64780 -0.08000
H 	H 	0.04690 0.22670 0.54620 0.07800
H 	H 	0.13840 0.00850 0.44780 0.00000
H 	H 	0.08410 0.06940 0.39860 0.03400
H 	H 	0.21890 0.21240 0.54100 0.17700
H 	H 	0.27200 0.15790 0.60000 0.16800
H 	H 	0.06000 0.18940 0.14360 0.13600
H 	H 	0.95810 0.10150 0.94240 -0.00900
H 	H 	0.70560 0.14140 0.85360 -0.01500
H 	H 	0.73680 0.04520 0.80580 -0.00900
H 	H 	0.81680 0.22170 0.83600 0.17200
H 	H 	0.71870 0.13990 0.72460 0.15200
H 	H 	0.68260 0.41690 0.14780 0.02700
H 	H 	0.56950 0.24930 0.04620 0.03100
H 	H 	0.68930 0.05940 0.94780 -0.01800
H 	H 	0.57920 0.06450 0.89860 -0.00700
H 	H 	0.57860 0.07210 0.04100 0.19500
H 	H 	0.69210 0.07800 0.10000 0.19000
H 	H 	0.08360 0.95420 0.14360 0.10400
H 	H 	0.98430 0.84090 0.94240 -0.04700
H 	H 	0.14800 0.71220 0.85360 0.00600
H 	H 	0.06900 0.76060 0.80580 0.04200
H 	H 	0.01920 0.61430 0.83600 0.15700
H 	H 	0.00590 0.58470 0.72460 0.15000
H 	H 	0.46520 0.73090 0.14780 0.02600
H 	H 	0.47670 0.79690 0.04620 0.04300
H 	H 	0.25850 0.88840 0.94780 0.07600
H 	H 	0.31940 0.83410 0.89860 0.07600
H 	H 	0.46240 0.96890 0.04100 0.09300
H 	H 	0.40790 0.02200 0.10000 0.03000
H 	H 	0.04580 0.94000 0.85640 0.15300
H 	H 	0.15910 0.04190 0.05760 -0.00000
H 	H 	0.28780 0.29440 0.14640 -0.00600
H 	H 	0.23940 0.26320 0.19420 0.01600
H 	H 	0.38570 0.18320 0.16400 0.16800
H 	H 	0.41530 0.28130 0.27540 0.15800
H 	H 	0.26910 0.31740 0.85220 0.02600
H 	H 	0.20310 0.43050 0.95380 0.04300
H 	H 	0.11160 0.31070 0.05220 0.07700
H 	H 	0.16590 0.42080 0.10140 0.07600
H 	H 	0.03110 0.42140 0.95900 0.09100
H 	H 	0.97800 0.30790 0.90000 0.02800
H 	H 	0.81060 0.91640 0.85640 0.08500
H 	H 	0.89850 0.01570 0.05760 -0.05800
H 	H 	0.85860 0.85200 0.14640 -0.00200
H 	H 	0.95480 0.93100 0.19420 0.01900
H 	H 	0.77830 0.98080 0.16400 0.16000
H 	H 	0.86010 0.99410 0.27540 0.14300
H 	H 	0.58310 0.53480 0.85220 0.02800
H 	H 	0.75070 0.52330 0.95380 0.03100
H 	H 	0.94060 0.74150 0.05220 -0.01700
H 	H 	0.93550 0.68060 0.10140 -0.00600
H 	H 	0.92790 0.53760 0.95900 0.19400
H 	H 	0.92200 0.59210 0.90000 0.18900
C 	C 	0.04393 0.53933 0.44446 0.11800
C 	C 	0.14278 0.56328 0.39876 0.00200
C 	C 	0.19830 0.61150 0.51000 0.00600
C 	C 	0.16130 0.63220 0.65160 0.11200
C 	C 	0.24473 0.59963 0.71286 -0.41500
C 	C 	0.34919 0.65309 0.75518 0.41000
C 	C 	0.95521 0.49891 0.43422 -0.02500
C 	C 	0.82970 0.39310 0.38360 -0.00000
C 	C 	0.82270 0.48580 0.43960 -0.00800
C 	C 	0.92615 0.66205 0.53290 0.11600
C 	C 	0.85155 0.69985 0.47150 -0.43600
C 	C 	0.88743 0.81433 0.53686 0.42800
C 	C 	0.40053 0.90513 0.44446 0.04800
C 	C 	0.25598 0.83548 0.39876 0.01200
C 	C 	0.31170 0.89850 0.51000 -0.00000
C 	C 	0.49030 0.01940 0.65160 -0.13100
C 	C 	0.46813 0.11323 0.71286 -0.29800
C 	C 	0.40599 0.10209 0.75518 0.37000
C 	C 	0.47901 0.93531 0.43422 0.06100
C 	C 	0.55390 0.99050 0.38360 0.16400
C 	C 	0.61690 0.95380 0.43960 -0.07200
C 	C 	0.60675 0.87085 0.53290 0.08500
C 	C 	0.61995 0.77165 0.47150 -0.41000
C 	C 	0.64943 0.72253 0.53686 0.42000
C 	C 	0.46067 0.59947 0.55554 0.04400
C 	C 	0.43672 0.74402 0.60124 -0.00300
C 	C 	0.38850 0.68830 0.49000 0.00700
C 	C 	0.36780 0.50970 0.34840 0.11100
C 	C 	0.40037 0.53187 0.28714 -0.41400
C 	C 	0.34691 0.59401 0.24482 0.41000
C 	C 	0.50109 0.52099 0.56578 0.04700
C 	C 	0.60690 0.44610 0.61640 0.00300
C 	C 	0.51420 0.38310 0.56040 -0.00400
C 	C 	0.33795 0.39325 0.46710 0.10100
C 	C 	0.30015 0.38005 0.52850 -0.41900
C 	C 	0.18567 0.35057 0.46314 0.41900
C 	C 	0.09487 0.95607 0.55554 0.11900
C 	C 	0.16452 0.85722 0.60124 0.01600
C 	C 	0.10150 0.80170 0.49000 -0.00100
C 	C 	0.98060 0.83870 0.34840 -0.12200
C 	C 	0.88677 0.75527 0.28714 -0.30300
C 	C 	0.89791 0.65081 0.24482 0.37200
C 	C 	0.06469 0.04479 0.56578 -0.00800
C 	C 	0.00950 0.17030 0.61640 0.16300
C 	C 	0.04620 0.17730 0.56040 -0.07800
C 	C 	0.12915 0.07385 0.46710 0.10100
C 	C 	0.22835 0.14845 0.52850 -0.42800
C 	C 	0.27747 0.11257 0.46314 0.42900
C 	C 	0.84947 0.21067 0.05554 0.04000
C 	C 	0.99402 0.18672 0.10124 -0.16600
C 	C 	0.93830 0.13850 0.99000 0.07300
C 	C 	0.75970 0.11780 0.84840 0.12900
C 	C 	0.78187 0.15037 0.78714 -0.43200
C 	C 	0.84401 0.09691 0.74482 0.41800
C 	C 	0.77099 0.25109 0.06578 0.04700
C 	C 	0.69610 0.35690 0.11640 0.00100
C 	C 	0.63310 0.26420 0.06040 0.00100
C 	C 	0.64325 0.08795 0.96710 0.16600
C 	C 	0.63005 0.05015 0.02850 -0.54000
C 	C 	0.60057 0.93567 0.96314 0.50700
C 	C 	0.20607 0.84487 0.05554 0.05100
C 	C 	0.10722 0.91452 0.10124 -0.06300
C 	C 	0.05170 0.85150 0.99000 0.16200
C 	C 	0.08870 0.73060 0.84840 0.08100
C 	C 	0.00527 0.63677 0.78714 -0.31900
C 	C 	0.90081 0.64791 0.74482 0.33800
C 	C 	0.29479 0.81469 0.06578 0.05000
C 	C 	0.42030 0.75950 0.11640 0.00900
C 	C 	0.42730 0.79620 0.06040 -0.00600
C 	C 	0.32385 0.87915 0.96710 -0.05500
C 	C 	0.39845 0.97835 0.02850 -0.08300
C 	C 	0.36257 0.02747 0.96314 0.20100
C 	C 	0.15513 0.15053 0.94446 0.04900
C 	C 	0.08548 0.00598 0.89876 -0.15200
C 	C 	0.14850 0.06170 0.01000 0.08500
C 	C 	0.26940 0.24030 0.15160 0.11500
C 	C 	0.36323 0.21813 0.21286 -0.41800
C 	C 	0.35209 0.15599 0.25518 0.41300
C 	C 	0.18531 0.22901 0.93422 0.04700
C 	C 	0.24050 0.30390 0.88360 0.00900
C 	C 	0.20380 0.36690 0.93960 -0.00700
C 	C 	0.12085 0.35675 0.03290 -0.05600
C 	C 	0.02165 0.36995 0.97150 -0.07800
C 	C 	0.97253 0.39943 0.03686 0.20100
C 	C 	0.78933 0.79393 0.94446 0.04200
C 	C 	0.81328 0.89278 0.89876 -0.07300
C 	C 	0.86150 0.94830 0.01000 0.15600
C 	C 	0.88220 0.91130 0.15160 0.09300
C 	C 	0.84963 0.99473 0.21286 -0.32900
C 	C 	0.90309 0.09919 0.25518 0.34000
C 	C 	0.74891 0.70521 0.93422 0.04900
C 	C 	0.64310 0.57970 0.88360 0.00100
C 	C 	0.73580 0.57270 0.93960 0.00100
C 	C 	0.91205 0.67615 0.03290 0.16400
C 	C 	0.94985 0.60155 0.97150 -0.53700
C 	C 	0.06433 0.63743 0.03686 0.50300
N 	N 	0.04538 0.51858 0.35736 -0.22400
N 	N 	0.13585 0.59512 0.53944 -0.13500
N 	N 	0.91306 0.40176 0.38052 -0.24200
N 	N 	0.90199 0.55259 0.47078 -0.13000
N 	N 	0.31198 0.83878 0.35736 -0.22800
N 	N 	0.40359 0.94432 0.53944 -0.07300
N 	N 	0.46746 0.97876 0.38052 -0.24900
N 	N 	0.56879 0.91819 0.47078 -0.11600
N 	N 	0.48142 0.68802 0.64264 -0.23000
N 	N 	0.40488 0.59641 0.46056 -0.13000
N 	N 	0.59824 0.53254 0.61948 -0.24300
N 	N 	0.44741 0.43121 0.52922 -0.13300
N 	N 	0.16122 0.95462 0.64264 -0.22200
N 	N 	0.05568 0.86415 0.46056 -0.08100
N 	N 	0.02124 0.08694 0.61948 -0.24900
N 	N 	0.08181 0.09801 0.52922 -0.11400
N 	N 	0.93802 0.23142 0.14264 -0.21900
N 	N 	0.84641 0.15488 0.96056 -0.14600
N 	N 	0.78254 0.34824 0.11948 -0.24500
N 	N 	0.68121 0.19741 0.02922 -0.14200
N 	N 	0.20462 0.91122 0.14264 -0.20400
N 	N 	0.11415 0.80568 0.96056 -0.14500
N 	N 	0.33694 0.77124 0.11948 -0.24100
N 	N 	0.34801 0.83181 0.02922 -0.10700
N 	N 	0.08878 0.06198 0.85736 -0.20200
N 	N 	0.19432 0.15359 0.03944 -0.14200
N 	N 	0.22876 0.21746 0.88052 -0.24500
N 	N 	0.16819 0.31879 0.97078 -0.10600
N 	N 	0.76858 0.79538 0.85736 -0.22000
N 	N 	0.84512 0.88585 0.03944 -0.14900
N 	N 	0.65176 0.66306 0.88052 -0.24200
N 	N 	0.80259 0.65199 0.97078 -0.14300
O 	O 	0.41623 0.61293 0.78106 -0.42800
O 	O 	0.36617 0.73377 0.76474 -0.39300
O 	O 	0.96668 0.85858 0.63096 -0.43900
O 	O 	0.83984 0.85964 0.49728 -0.39900
O 	O 	0.36483 0.16813 0.78106 -0.42200
O 	O 	0.39857 0.03097 0.76474 -0.41500
O 	O 	0.66428 0.77238 0.63096 -0.42100
O 	O 	0.65744 0.63764 0.49728 -0.40900
O 	O 	0.38707 0.63517 0.21894 -0.42800
O 	O 	0.26623 0.60143 0.23526 -0.39300
O 	O 	0.14142 0.33572 0.36904 -0.40900
O 	O 	0.14036 0.34256 0.50272 -0.39100
O 	O 	0.83187 0.58377 0.21894 -0.42300
O 	O 	0.96903 0.63383 0.23526 -0.41500
O 	O 	0.22762 0.03332 0.36904 -0.45100
O 	O 	0.36236 0.16016 0.50272 -0.41700
O 	O 	0.88517 0.13707 0.71894 -0.45200
O 	O 	0.85143 0.01623 0.73526 -0.43700
O 	O 	0.58572 0.89142 0.86904 -0.43100
O 	O 	0.59256 0.89036 0.00272 -0.41800
O 	O 	0.83377 0.58187 0.71894 -0.42200
O 	O 	0.88383 0.71903 0.73526 -0.38700
O 	O 	0.28332 0.97762 0.86904 -0.31600
O 	O 	0.41016 0.11236 0.00272 -0.35600
O 	O 	0.41813 0.11483 0.28106 -0.44000
O 	O 	0.28097 0.14857 0.26474 -0.40100
O 	O 	0.02238 0.41428 0.13096 -0.31800
O 	O 	0.88764 0.40744 0.99728 -0.35700
O 	O 	0.86293 0.16623 0.28106 -0.43300
O 	O 	0.98377 0.11617 0.26474 -0.42100
O 	O 	0.10858 0.71668 0.13096 -0.42700
O 	O 	0.10964 0.58984 0.99728 -0.41600
