data_crystal

_cell_length_a 13.11870
_cell_length_b 23.92000
_cell_length_c 19.68900
_cell_angle_alpha 90.00000
_cell_angle_beta  90.00000
_cell_angle_gamma 90.00000

_symmetry_space_group_name_	'P 1'
_symmetry_space_group_name_H-M	'P 1'

loop_
_symmetry_equiv_pos_as_xyz
  x,y,z

loop_
_atom_site_label
_atom_site_type_symbol
_atom_site_fract_x
_atom_site_fract_y
_atom_site_fract_z
_atom_site_charge
V 	V 	0.84195 0.53972 0.33479 1.74300
V 	V 	0.66270 0.46734 0.42782 1.75600
V 	V 	0.44124 0.53372 0.37705 1.72800
V 	V 	0.25001 0.46885 0.28687 1.60900
V 	V 	0.07835 0.52693 0.38430 1.74400
V 	V 	0.25814 0.61317 0.43353 1.60300
V 	V 	0.15805 0.46028 0.83479 1.74200
V 	V 	0.33730 0.53266 0.92782 1.73900
V 	V 	0.55876 0.46628 0.87705 1.72600
V 	V 	0.74999 0.53115 0.78687 1.60700
V 	V 	0.92165 0.47307 0.88430 1.73700
V 	V 	0.74186 0.38683 0.93353 1.59100
V 	V 	0.15805 0.03972 0.33479 1.74400
V 	V 	0.33730 0.96734 0.42782 1.75700
V 	V 	0.55876 0.03372 0.37705 1.72800
V 	V 	0.74999 0.96885 0.28687 1.60900
V 	V 	0.92165 0.02693 0.38430 1.74400
V 	V 	0.74186 0.11317 0.43353 1.60300
V 	V 	0.84195 0.96028 0.83479 1.74200
V 	V 	0.66270 0.03266 0.92782 1.73800
V 	V 	0.44124 0.96628 0.87705 1.72700
V 	V 	0.25001 0.03115 0.78687 1.60600
V 	V 	0.07835 0.97307 0.88430 1.73800
V 	V 	0.25814 0.88683 0.93353 1.59200
Cu	Cu	0.86030 0.49535 0.16208 0.84300
Cu	Cu	0.62835 0.45154 0.61101 0.78500
Cu	Cu	0.79626 0.97582 0.09952 0.75400
Cu	Cu	0.13970 0.50465 0.66208 0.84200
Cu	Cu	0.37165 0.54846 0.11101 0.78700
Cu	Cu	0.20374 0.02418 0.59952 0.74900
Cu	Cu	0.13970 0.99535 0.16208 0.84300
Cu	Cu	0.37165 0.95154 0.61101 0.78500
Cu	Cu	0.20374 0.47582 0.09952 0.75400
Cu	Cu	0.86030 0.00465 0.66208 0.84100
Cu	Cu	0.62835 0.04846 0.11101 0.78800
Cu	Cu	0.79626 0.52418 0.59952 0.74900
H 	H 	0.00580 0.42050 0.23150 -0.12600
H 	H 	0.09390 0.34450 0.21330 0.08400
H 	H 	0.00290 0.34940 0.02180 0.10200
H 	H 	0.92010 0.42840 0.04680 -0.08100
H 	H 	0.16770 0.27750 0.13490 0.13000
H 	H 	0.14310 0.28300 0.05730 0.14100
H 	H 	0.98900 0.23480 0.07210 -0.05200
H 	H 	0.00660 0.23230 0.15080 -0.05100
H 	H 	0.13560 0.17590 0.05680 0.12700
H 	H 	0.14550 0.17120 0.13600 0.11600
H 	H 	0.01070 0.12010 0.00150 0.08900
H 	H 	0.90150 0.04420 0.00140 -0.10700
H 	H 	0.90230 0.04420 0.20110 -0.11600
H 	H 	0.01780 0.11410 0.20100 0.05900
H 	H 	0.79070 0.52340 0.02450 -0.03300
H 	H 	0.67850 0.58840 0.97650 -0.09000
H 	H 	0.58800 0.63280 0.15980 0.02200
H 	H 	0.69810 0.56870 0.20480 -0.09900
H 	H 	0.48600 0.66150 0.05450 -0.00200
H 	H 	0.53820 0.65170 0.98350 -0.07300
H 	H 	0.63780 0.71980 0.08180 0.02300
H 	H 	0.66030 0.71920 0.00370 0.02800
H 	H 	0.48160 0.76400 0.05830 0.07300
H 	H 	0.51520 0.76810 0.98190 -0.01100
H 	H 	0.64040 0.83960 0.94980 0.14900
H 	H 	0.74320 0.91350 0.97900 -0.25500
H 	H 	0.68230 0.88960 0.16980 -0.20600
H 	H 	0.58280 0.81530 0.14310 0.14100
H 	H 	0.69100 0.38940 0.72840 -0.18200
H 	H 	0.74890 0.30150 0.75640 0.03900
H 	H 	0.76420 0.26960 0.55840 0.08400
H 	H 	0.71350 0.35540 0.53710 -0.11800
H 	H 	0.81430 0.21290 0.72310 0.09900
H 	H 	0.83950 0.20170 0.64630 0.12000
H 	H 	0.63860 0.19360 0.70070 -0.05000
H 	H 	0.66610 0.18040 0.62480 -0.05200
H 	H 	0.77270 0.10570 0.66630 0.06300
H 	H 	0.72530 0.11600 0.73840 0.05500
H 	H 	0.62970 0.09430 0.56730 0.03400
H 	H 	0.50600 0.03200 0.53980 -0.05300
H 	H 	0.47790 0.98800 0.72940 -0.16600
H 	H 	0.58590 0.05220 0.76220 0.00700
H 	H 	0.99420 0.57950 0.73150 -0.12800
H 	H 	0.90610 0.65550 0.71330 0.07800
H 	H 	0.99710 0.65060 0.52180 0.08600
H 	H 	0.07990 0.57160 0.54680 -0.09400
H 	H 	0.83230 0.72250 0.63490 0.12700
H 	H 	0.85690 0.71700 0.55730 0.13200
H 	H 	0.01100 0.76520 0.57210 -0.05500
H 	H 	0.99340 0.76770 0.65080 -0.05100
H 	H 	0.86440 0.82410 0.55680 0.12100
H 	H 	0.85450 0.82880 0.63600 0.11400
H 	H 	0.98930 0.87990 0.50150 0.07500
H 	H 	0.09850 0.95580 0.50140 -0.12200
H 	H 	0.09770 0.95580 0.70110 -0.11500
H 	H 	0.98220 0.88590 0.70100 0.05600
H 	H 	0.20930 0.47660 0.52450 -0.09600
H 	H 	0.32150 0.41160 0.47650 0.04900
H 	H 	0.41200 0.36720 0.65980 0.07100
H 	H 	0.30190 0.43130 0.70480 -0.12800
H 	H 	0.51400 0.33850 0.55450 0.08200
H 	H 	0.46180 0.34830 0.48350 0.06600
H 	H 	0.36220 0.28020 0.58180 -0.03500
H 	H 	0.33970 0.28080 0.50370 -0.05100
H 	H 	0.51840 0.23600 0.55830 0.11200
H 	H 	0.48480 0.23190 0.48190 0.07900
H 	H 	0.35960 0.16040 0.44980 0.05800
H 	H 	0.25680 0.08650 0.47900 -0.10800
H 	H 	0.31770 0.11040 0.66980 -0.18500
H 	H 	0.41720 0.18470 0.64310 0.11000
H 	H 	0.30900 0.61060 0.22840 -0.18200
H 	H 	0.25110 0.69850 0.25640 0.04500
H 	H 	0.23580 0.73040 0.05840 0.09600
H 	H 	0.28650 0.64460 0.03710 -0.10600
H 	H 	0.18570 0.78710 0.22310 0.10600
H 	H 	0.16050 0.79830 0.14630 0.12500
H 	H 	0.36140 0.80640 0.20070 -0.05000
H 	H 	0.33390 0.81960 0.12480 -0.05000
H 	H 	0.22730 0.89430 0.16630 0.06800
H 	H 	0.27470 0.88400 0.23840 0.06200
H 	H 	0.37030 0.90570 0.06730 0.04800
H 	H 	0.49400 0.96800 0.03980 -0.03700
H 	H 	0.52210 0.01200 0.22940 -0.17200
H 	H 	0.41410 0.94780 0.26220 0.01300
H 	H 	0.99420 0.92050 0.23150 -0.12600
H 	H 	0.90610 0.84450 0.21330 0.08400
H 	H 	0.99710 0.84940 0.02180 0.10000
H 	H 	0.07990 0.92840 0.04680 -0.08200
H 	H 	0.83230 0.77750 0.13490 0.12900
H 	H 	0.85690 0.78300 0.05730 0.14000
H 	H 	0.01100 0.73480 0.07210 -0.05100
H 	H 	0.99340 0.73230 0.15080 -0.05000
H 	H 	0.86440 0.67590 0.05680 0.12600
H 	H 	0.85450 0.67120 0.13600 0.11500
H 	H 	0.98930 0.62010 0.00150 0.08600
H 	H 	0.09850 0.54420 0.00140 -0.10500
H 	H 	0.09770 0.54420 0.20110 -0.11400
H 	H 	0.98220 0.61410 0.20100 0.05700
H 	H 	0.20930 0.02340 0.02450 -0.03100
H 	H 	0.32150 0.08840 0.97650 -0.09600
H 	H 	0.41200 0.13280 0.15980 0.02100
H 	H 	0.30190 0.06870 0.20480 -0.09800
H 	H 	0.51400 0.16150 0.05450 -0.00500
H 	H 	0.46180 0.15170 0.98350 -0.07800
H 	H 	0.36220 0.21980 0.08180 0.02500
H 	H 	0.33970 0.21920 0.00370 0.03100
H 	H 	0.51840 0.26400 0.05830 0.07200
H 	H 	0.48480 0.26810 0.98190 -0.01400
H 	H 	0.35960 0.33960 0.94980 0.15500
H 	H 	0.25680 0.41350 0.97900 -0.26400
H 	H 	0.31770 0.38960 0.16980 -0.20800
H 	H 	0.41720 0.31530 0.14310 0.14300
H 	H 	0.30900 0.88940 0.72840 -0.18200
H 	H 	0.25110 0.80150 0.75640 0.03900
H 	H 	0.23580 0.76960 0.55840 0.08400
H 	H 	0.28650 0.85540 0.53710 -0.11800
H 	H 	0.18570 0.71290 0.72310 0.10000
H 	H 	0.16050 0.70170 0.64630 0.12100
H 	H 	0.36140 0.69360 0.70070 -0.05100
H 	H 	0.33390 0.68040 0.62480 -0.05300
H 	H 	0.22730 0.60570 0.66630 0.06400
H 	H 	0.27470 0.61600 0.73840 0.05700
H 	H 	0.37030 0.59430 0.56730 0.03500
H 	H 	0.49400 0.53200 0.53980 -0.05300
H 	H 	0.52210 0.48800 0.72940 -0.17200
H 	H 	0.41410 0.55220 0.76220 0.01000
H 	H 	0.00580 0.07950 0.73150 -0.12900
H 	H 	0.09390 0.15550 0.71330 0.07800
H 	H 	0.00290 0.15060 0.52180 0.08500
H 	H 	0.92010 0.07160 0.54680 -0.09400
H 	H 	0.16770 0.22250 0.63490 0.12600
H 	H 	0.14310 0.21700 0.55730 0.13100
H 	H 	0.98900 0.26520 0.57210 -0.05400
H 	H 	0.00660 0.26770 0.65080 -0.05000
H 	H 	0.13560 0.32410 0.55680 0.12000
H 	H 	0.14550 0.32880 0.63600 0.11300
H 	H 	0.01070 0.37990 0.50150 0.07200
H 	H 	0.90150 0.45580 0.50140 -0.12100
H 	H 	0.90230 0.45580 0.70110 -0.11400
H 	H 	0.01780 0.38590 0.70100 0.05400
H 	H 	0.79070 0.97660 0.52450 -0.09500
H 	H 	0.67850 0.91160 0.47650 0.04900
H 	H 	0.58800 0.86720 0.65980 0.07100
H 	H 	0.69810 0.93130 0.70480 -0.12700
H 	H 	0.48600 0.83850 0.55450 0.08200
H 	H 	0.53820 0.84830 0.48350 0.06600
H 	H 	0.63780 0.78020 0.58180 -0.03500
H 	H 	0.66030 0.78080 0.50370 -0.05100
H 	H 	0.48160 0.73600 0.55830 0.11200
H 	H 	0.51520 0.73190 0.48190 0.08000
H 	H 	0.64040 0.66040 0.44980 0.05800
H 	H 	0.74320 0.58650 0.47900 -0.10800
H 	H 	0.68230 0.61040 0.66980 -0.18500
H 	H 	0.58280 0.68470 0.64310 0.11100
H 	H 	0.69100 0.11060 0.22840 -0.18200
H 	H 	0.74890 0.19850 0.25640 0.04500
H 	H 	0.76420 0.23040 0.05840 0.09700
H 	H 	0.71350 0.14460 0.03710 -0.10600
H 	H 	0.81430 0.28710 0.22310 0.10600
H 	H 	0.83950 0.29830 0.14630 0.12500
H 	H 	0.63860 0.30640 0.20070 -0.05000
H 	H 	0.66610 0.31960 0.12480 -0.05000
H 	H 	0.77270 0.39430 0.16630 0.06800
H 	H 	0.72530 0.38400 0.23840 0.06200
H 	H 	0.62970 0.40570 0.06730 0.04900
H 	H 	0.50600 0.46800 0.03980 -0.03700
H 	H 	0.47790 0.51200 0.22940 -0.17200
H 	H 	0.58590 0.44780 0.26220 0.01300
C 	C 	0.00540 0.40600 0.18770 0.16300
C 	C 	0.05770 0.36040 0.17760 -0.38600
C 	C 	0.06000 0.33600 0.11540 0.28100
C 	C 	0.00520 0.36340 0.06580 -0.34500
C 	C 	0.95520 0.41060 0.08170 0.14000
C 	C 	0.11300 0.28200 0.10220 -0.43100
C 	C 	0.04070 0.23170 0.10710 0.19100
C 	C 	0.09730 0.17550 0.09900 -0.39900
C 	C 	0.02630 0.12680 0.09860 0.24700
C 	C 	0.99090 0.10490 0.04280 -0.32000
C 	C 	0.92360 0.05880 0.04270 0.13100
C 	C 	0.92570 0.05850 0.16000 0.08700
C 	C 	0.99260 0.10100 0.15980 -0.29000
C 	C 	0.75190 0.54660 0.05220 -0.01700
C 	C 	0.68180 0.58480 0.02350 0.01700
C 	C 	0.62000 0.61590 0.06240 -0.01200
C 	C 	0.62830 0.61110 0.13130 -0.14600
C 	C 	0.69660 0.57380 0.15800 0.06400
C 	C 	0.55090 0.66030 0.03090 -0.01600
C 	C 	0.60630 0.71770 0.03730 -0.04600
C 	C 	0.54000 0.76680 0.02830 -0.23400
C 	C 	0.59810 0.81830 0.04380 0.38500
C 	C 	0.64810 0.84900 0.99530 -0.61400
C 	C 	0.70980 0.89370 0.01300 0.43500
C 	C 	0.67490 0.87980 0.12440 0.26000
C 	C 	0.61420 0.83490 0.10810 -0.42000
C 	C 	0.70630 0.36430 0.69390 0.14300
C 	C 	0.74040 0.31140 0.71110 -0.30500
C 	C 	0.76150 0.27420 0.66070 0.24600
C 	C 	0.74970 0.29340 0.59450 -0.32300
C 	C 	0.71870 0.34420 0.58220 0.20200
C 	C 	0.78760 0.21520 0.67730 -0.38100
C 	C 	0.69120 0.17880 0.67110 0.13500
C 	C 	0.71210 0.11830 0.69000 -0.30600
C 	C 	0.62480 0.08080 0.67230 0.13500
C 	C 	0.59750 0.07360 0.60110 -0.20100
C 	C 	0.52390 0.03580 0.58520 0.10900
C 	C 	0.50670 0.01110 0.69660 0.08900
C 	C 	0.57340 0.04820 0.71590 -0.25000
C 	C 	0.99460 0.59400 0.68770 0.15900
C 	C 	0.94230 0.63960 0.67760 -0.38100
C 	C 	0.94000 0.66400 0.61540 0.27300
C 	C 	0.99480 0.63660 0.56580 -0.34200
C 	C 	0.04480 0.58940 0.58170 0.13600
C 	C 	0.88700 0.71800 0.60220 -0.42300
C 	C 	0.95930 0.76830 0.60710 0.18500
C 	C 	0.90270 0.82450 0.59900 -0.39300
C 	C 	0.97370 0.87320 0.59860 0.24100
C 	C 	0.00910 0.89510 0.54280 -0.31800
C 	C 	0.07640 0.94120 0.54270 0.12800
C 	C 	0.07430 0.94150 0.66000 0.08400
C 	C 	0.00740 0.89900 0.65980 -0.28600
C 	C 	0.24810 0.45340 0.55220 0.11200
C 	C 	0.31820 0.41520 0.52350 -0.25800
C 	C 	0.38000 0.38410 0.56240 0.19200
C 	C 	0.37170 0.38890 0.63130 -0.28600
C 	C 	0.30340 0.42620 0.65800 0.14400
C 	C 	0.44910 0.33970 0.53090 -0.33500
C 	C 	0.39370 0.28230 0.53730 0.15500
C 	C 	0.46000 0.23320 0.52830 -0.39000
C 	C 	0.40190 0.18170 0.54380 0.25400
C 	C 	0.35190 0.15100 0.49530 -0.30300
C 	C 	0.29020 0.10630 0.51300 0.13100
C 	C 	0.32510 0.12020 0.62440 0.19300
C 	C 	0.38580 0.16510 0.60810 -0.32900
C 	C 	0.29370 0.63570 0.19390 0.14900
C 	C 	0.25960 0.68860 0.21110 -0.31100
C 	C 	0.23850 0.72580 0.16070 0.25500
C 	C 	0.25030 0.70660 0.09450 -0.32800
C 	C 	0.28130 0.65580 0.08220 0.21000
C 	C 	0.21240 0.78480 0.17730 -0.38900
C 	C 	0.30880 0.82120 0.17110 0.14200
C 	C 	0.28790 0.88170 0.19000 -0.31500
C 	C 	0.37520 0.91920 0.17230 0.14500
C 	C 	0.40250 0.92640 0.10110 -0.20400
C 	C 	0.47610 0.96420 0.08520 0.11200
C 	C 	0.49330 0.98890 0.19660 0.10100
C 	C 	0.42660 0.95180 0.21590 -0.26100
C 	C 	0.99460 0.90600 0.18770 0.16300
C 	C 	0.94230 0.86040 0.17760 -0.38500
C 	C 	0.94000 0.83600 0.11540 0.27900
C 	C 	0.99480 0.86340 0.06580 -0.34300
C 	C 	0.04480 0.91060 0.08170 0.13800
C 	C 	0.88700 0.78200 0.10220 -0.42900
C 	C 	0.95930 0.73170 0.10710 0.18800
C 	C 	0.90270 0.67550 0.09900 -0.39500
C 	C 	0.97370 0.62680 0.09860 0.24100
C 	C 	0.00910 0.60490 0.04280 -0.31400
C 	C 	0.07640 0.55880 0.04270 0.12800
C 	C 	0.07430 0.55850 0.16000 0.08400
C 	C 	0.00740 0.60100 0.15980 -0.28400
C 	C 	0.24810 0.04660 0.05220 -0.02200
C 	C 	0.31820 0.08480 0.02350 0.02700
C 	C 	0.38000 0.11590 0.06240 -0.02000
C 	C 	0.37170 0.11110 0.13130 -0.14000
C 	C 	0.30340 0.07380 0.15800 0.06100
C 	C 	0.44910 0.16030 0.03090 -0.00400
C 	C 	0.39370 0.21770 0.03730 -0.05300
C 	C 	0.46000 0.26680 0.02830 -0.23000
C 	C 	0.40190 0.31830 0.04380 0.39400
C 	C 	0.35190 0.34900 0.99530 -0.63200
C 	C 	0.29020 0.39370 0.01300 0.45200
C 	C 	0.32510 0.37980 0.12440 0.26400
C 	C 	0.38580 0.33490 0.10810 -0.42700
C 	C 	0.29370 0.86430 0.69390 0.14300
C 	C 	0.25960 0.81140 0.71110 -0.30600
C 	C 	0.23850 0.77420 0.66070 0.24700
C 	C 	0.25030 0.79340 0.59450 -0.32400
C 	C 	0.28130 0.84420 0.58220 0.20200
C 	C 	0.21240 0.71520 0.67730 -0.38300
C 	C 	0.30880 0.67880 0.67110 0.13700
C 	C 	0.28790 0.61830 0.69000 -0.31000
C 	C 	0.37520 0.58080 0.67230 0.14000
C 	C 	0.40250 0.57360 0.60110 -0.20400
C 	C 	0.47610 0.53580 0.58520 0.11100
C 	C 	0.49330 0.51110 0.69660 0.09800
C 	C 	0.42660 0.54820 0.71590 -0.25700
C 	C 	0.00540 0.09400 0.68770 0.15900
C 	C 	0.05770 0.13960 0.67760 -0.38000
C 	C 	0.06000 0.16400 0.61540 0.27100
C 	C 	0.00520 0.13660 0.56580 -0.34000
C 	C 	0.95520 0.08940 0.58170 0.13400
C 	C 	0.11300 0.21800 0.60220 -0.42100
C 	C 	0.04070 0.26830 0.60710 0.18200
C 	C 	0.09730 0.32450 0.59900 -0.38900
C 	C 	0.02630 0.37320 0.59860 0.23400
C 	C 	0.99090 0.39510 0.54280 -0.31200
C 	C 	0.92360 0.44120 0.54270 0.12500
C 	C 	0.92570 0.44150 0.66000 0.08100
C 	C 	0.99260 0.39900 0.65980 -0.28000
C 	C 	0.75190 0.95340 0.55220 0.11200
C 	C 	0.68180 0.91520 0.52350 -0.25800
C 	C 	0.62000 0.88410 0.56240 0.19200
C 	C 	0.62830 0.88890 0.63130 -0.28600
C 	C 	0.69660 0.92620 0.65800 0.14400
C 	C 	0.55090 0.83970 0.53090 -0.33500
C 	C 	0.60630 0.78230 0.53730 0.15600
C 	C 	0.54000 0.73320 0.52830 -0.39100
C 	C 	0.59810 0.68170 0.54380 0.25400
C 	C 	0.64810 0.65100 0.49530 -0.30300
C 	C 	0.70980 0.60630 0.51300 0.13100
C 	C 	0.67490 0.62020 0.62440 0.19300
C 	C 	0.61420 0.66510 0.60810 -0.32900
C 	C 	0.70630 0.13570 0.19390 0.14900
C 	C 	0.74040 0.18860 0.21110 -0.31100
C 	C 	0.76150 0.22580 0.16070 0.25600
C 	C 	0.74970 0.20660 0.09450 -0.32800
C 	C 	0.71870 0.15580 0.08220 0.21000
C 	C 	0.78760 0.28480 0.17730 -0.39000
C 	C 	0.69120 0.32120 0.17110 0.14200
C 	C 	0.71210 0.38170 0.19000 -0.31500
C 	C 	0.62480 0.41920 0.17230 0.14500
C 	C 	0.59750 0.42640 0.10110 -0.20400
C 	C 	0.52390 0.46420 0.08520 0.11200
C 	C 	0.50670 0.48890 0.19660 0.10100
C 	C 	0.57340 0.45180 0.21590 -0.26100
N 	N 	0.95120 0.43390 0.14140 -0.31900
N 	N 	0.89140 0.03620 0.09980 -0.32200
N 	N 	0.76150 0.54440 0.11940 -0.25300
N 	N 	0.72280 0.90910 0.07810 -0.39500
N 	N 	0.69440 0.38040 0.62960 -0.32800
N 	N 	0.47620 0.00430 0.62970 -0.31300
N 	N 	0.04880 0.56610 0.64140 -0.31900
N 	N 	0.10860 0.96380 0.59980 -0.32300
N 	N 	0.23850 0.45560 0.61940 -0.29200
N 	N 	0.27720 0.09090 0.57810 -0.33600
N 	N 	0.30560 0.61960 0.12960 -0.32700
N 	N 	0.52380 0.99570 0.12970 -0.31300
N 	N 	0.04880 0.93390 0.14140 -0.31900
N 	N 	0.10860 0.53620 0.09980 -0.32100
N 	N 	0.23850 0.04440 0.11940 -0.25100
N 	N 	0.27720 0.40910 0.07810 -0.39800
N 	N 	0.30560 0.88040 0.62960 -0.32800
N 	N 	0.52380 0.50430 0.62970 -0.31400
N 	N 	0.95120 0.06610 0.64140 -0.32000
N 	N 	0.89140 0.46380 0.59980 -0.32200
N 	N 	0.76150 0.95560 0.61940 -0.29100
N 	N 	0.72280 0.59090 0.57810 -0.33500
N 	N 	0.69440 0.11960 0.12960 -0.32700
N 	N 	0.47620 0.49570 0.12970 -0.31300
O 	O 	0.85750 0.50340 0.26580 -0.80400
O 	O 	0.96080 0.55750 0.37220 -0.95900
O 	O 	0.75600 0.50820 0.39230 -0.97700
O 	O 	0.68150 0.46590 0.50920 -0.79000
O 	O 	0.53830 0.49580 0.41480 -0.93000
O 	O 	0.36040 0.48660 0.33860 -1.00800
O 	O 	0.37340 0.57250 0.43760 -0.96200
O 	O 	0.14160 0.50770 0.31270 -1.05100
O 	O 	0.15020 0.56470 0.43920 -0.97600
O 	O 	0.14250 0.49660 0.76580 -0.80700
O 	O 	0.03920 0.44250 0.87220 -0.97300
O 	O 	0.24400 0.49180 0.89230 -0.99000
O 	O 	0.31850 0.53410 0.00920 -0.75700
O 	O 	0.46170 0.50420 0.91480 -0.94900
O 	O 	0.63960 0.51340 0.83860 -1.01200
O 	O 	0.62660 0.42750 0.93760 -0.98700
O 	O 	0.85840 0.49230 0.81270 -1.05600
O 	O 	0.84980 0.43530 0.93920 -1.00600
O 	O 	0.14250 0.00340 0.26580 -0.80300
O 	O 	0.03920 0.05750 0.37220 -0.95900
O 	O 	0.24400 0.00820 0.39230 -0.97700
O 	O 	0.31850 0.96590 0.50920 -0.79000
O 	O 	0.46170 0.99580 0.41480 -0.92900
O 	O 	0.63960 0.98660 0.33860 -1.00700
O 	O 	0.62660 0.07250 0.43760 -0.96200
O 	O 	0.85840 0.00770 0.31270 -1.05200
O 	O 	0.84980 0.06470 0.43920 -0.97600
O 	O 	0.85750 0.99660 0.76580 -0.80400
O 	O 	0.96080 0.94250 0.87220 -0.97200
O 	O 	0.75600 0.99180 0.89230 -0.98700
O 	O 	0.68150 0.03410 0.00920 -0.75600
O 	O 	0.53830 0.00420 0.91480 -0.95100
O 	O 	0.36040 0.01340 0.83860 -1.01400
O 	O 	0.37340 0.92750 0.93760 -0.98500
O 	O 	0.14160 0.99230 0.81270 -1.05500
O 	O 	0.15020 0.93530 0.93920 -1.00500
