data_crystal

_cell_length_a 14.13810
_cell_length_b 14.13810
_cell_length_c 21.55800
_cell_angle_alpha 90.00000
_cell_angle_beta  90.00000
_cell_angle_gamma 120.00000

_symmetry_space_group_name_	'P 1'
_symmetry_space_group_name_H-M	'P 1'

loop_
_symmetry_equiv_pos_as_xyz
  x,y,z

loop_
_atom_site_label
_atom_site_type_symbol
_atom_site_fract_x
_atom_site_fract_y
_atom_site_fract_z
_atom_site_charge
C 	C 	0.19350 0.00320 0.08480 0.40300
C 	C 	0.27080 0.99900 0.13110 0.01900
C 	C 	0.29550 0.91860 0.14420 -0.06000
H 	H 	0.26520 0.85040 0.12540 0.04400
O 	O 	0.20230 0.09390 0.07557 -0.50300
O 	O 	0.12990 0.91620 0.06100 -0.53900
C 	C 	0.86017 0.33653 0.41813 0.43600
C 	C 	0.93747 0.33233 0.46443 0.00400
C 	C 	0.96217 0.25193 0.47753 -0.01700
H 	H 	0.93187 0.18373 0.45873 0.04300
O 	O 	0.86897 0.42723 0.40890 -0.47600
O 	O 	0.79657 0.24953 0.39433 -0.51800
C 	C 	0.52683 0.66987 0.75147 0.43900
C 	C 	0.60413 0.66567 0.79777 0.00400
C 	C 	0.62883 0.58527 0.81087 -0.01900
H 	H 	0.59853 0.51707 0.79207 0.05200
O 	O 	0.53563 0.76057 0.74224 -0.47200
O 	O 	0.46323 0.58287 0.72767 -0.51300
C 	C 	0.99680 0.19030 0.08480 0.45800
C 	C 	0.00100 0.27180 0.13110 -0.03700
C 	C 	0.08140 0.37690 0.14420 -0.01000
H 	H 	0.14960 0.41480 0.12540 0.02500
O 	O 	0.90610 0.10840 0.07557 -0.51800
O 	O 	0.08380 0.21370 0.06100 -0.56300
C 	C 	0.66347 0.52363 0.41813 0.43600
C 	C 	0.66767 0.60513 0.46443 0.00100
C 	C 	0.74807 0.71023 0.47753 -0.02900
H 	H 	0.81627 0.74813 0.45873 0.05300
O 	O 	0.57277 0.44173 0.40890 -0.47900
O 	O 	0.75047 0.54703 0.39433 -0.51400
C 	C 	0.33013 0.85697 0.75147 0.43200
C 	C 	0.33433 0.93847 0.79777 0.02200
C 	C 	0.41473 0.04357 0.81087 -0.05100
H 	H 	0.48293 0.08147 0.79207 0.05900
O 	O 	0.23943 0.77507 0.74224 -0.47400
O 	O 	0.41713 0.88037 0.72767 -0.50800
C 	C 	0.80970 0.80650 0.08480 0.43700
C 	C 	0.72820 0.72920 0.13110 -0.01400
C 	C 	0.62310 0.70450 0.14420 -0.02900
H 	H 	0.58520 0.73480 0.12540 0.03400
O 	O 	0.89160 0.79770 0.07557 -0.50000
O 	O 	0.78630 0.87010 0.06100 -0.54400
C 	C 	0.47637 0.13983 0.41813 0.43200
C 	C 	0.39487 0.06253 0.46443 0.00700
C 	C 	0.28977 0.03783 0.47753 -0.05500
H 	H 	0.25187 0.06813 0.45873 0.05400
O 	O 	0.55827 0.13103 0.40890 -0.48100
O 	O 	0.45297 0.20343 0.39433 -0.51600
C 	C 	0.14303 0.47317 0.75147 0.44300
C 	C 	0.06153 0.39587 0.79777 -0.01200
C 	C 	0.95643 0.37117 0.81087 0.00300
H 	H 	0.91853 0.40147 0.79207 0.04600
O 	O 	0.22493 0.46437 0.74224 -0.47700
O 	O 	0.11963 0.53677 0.72767 -0.51700
C 	C 	0.00320 0.19350 0.91520 0.41200
C 	C 	0.99900 0.27080 0.86890 0.03600
C 	C 	0.91860 0.29550 0.85580 -0.05100
H 	H 	0.85040 0.26520 0.87460 0.07300
O 	O 	0.09390 0.20230 0.92443 -0.43000
O 	O 	0.91620 0.12990 0.93900 -0.45800
C 	C 	0.66987 0.52683 0.24853 0.43400
C 	C 	0.66567 0.60413 0.20223 -0.00300
C 	C 	0.58527 0.62883 0.18913 -0.03700
H 	H 	0.51707 0.59853 0.20793 0.04600
O 	O 	0.76057 0.53563 0.25776 -0.48100
O 	O 	0.58287 0.46323 0.27233 -0.51900
C 	C 	0.33653 0.86017 0.58187 0.43500
C 	C 	0.33233 0.93747 0.53557 0.00600
C 	C 	0.25193 0.96217 0.52247 -0.01000
H 	H 	0.18373 0.93187 0.54127 0.04200
O 	O 	0.42723 0.86897 0.59110 -0.47500
O 	O 	0.24953 0.79657 0.60567 -0.51700
C 	C 	0.19030 0.99680 0.91520 0.45300
C 	C 	0.27180 0.00100 0.86890 -0.00900
C 	C 	0.37690 0.08140 0.85580 -0.00900
H 	H 	0.41480 0.14960 0.87460 0.05800
O 	O 	0.10840 0.90610 0.92443 -0.44200
O 	O 	0.21370 0.08380 0.93900 -0.47300
C 	C 	0.85697 0.33013 0.24853 0.42900
C 	C 	0.93847 0.33433 0.20223 0.01000
C 	C 	0.04357 0.41473 0.18913 -0.06200
H 	H 	0.08147 0.48293 0.20793 0.05200
O 	O 	0.77507 0.23943 0.25776 -0.48400
O 	O 	0.88037 0.41713 0.27233 -0.51500
C 	C 	0.52363 0.66347 0.58187 0.43500
C 	C 	0.60513 0.66767 0.53557 0.00200
C 	C 	0.71023 0.74807 0.52247 -0.02900
H 	H 	0.74813 0.81627 0.54127 0.05400
O 	O 	0.44173 0.57277 0.59110 -0.47900
O 	O 	0.54703 0.75047 0.60567 -0.51300
C 	C 	0.80650 0.80970 0.91520 0.42900
C 	C 	0.72920 0.72820 0.86890 0.02100
C 	C 	0.70450 0.62310 0.85580 -0.03400
H 	H 	0.73480 0.58520 0.87460 0.06900
O 	O 	0.79770 0.89160 0.92443 -0.42400
O 	O 	0.87010 0.78630 0.93900 -0.45400
C 	C 	0.47317 0.14303 0.24853 0.44100
C 	C 	0.39587 0.06153 0.20223 -0.02700
C 	C 	0.37117 0.95643 0.18913 0.00100
H 	H 	0.40147 0.91853 0.20793 0.03600
O 	O 	0.46437 0.22493 0.25776 -0.48600
O 	O 	0.53677 0.11963 0.27233 -0.52500
C 	C 	0.13983 0.47637 0.58187 0.43300
C 	C 	0.06253 0.39487 0.53557 0.00400
C 	C 	0.03783 0.28977 0.52247 -0.04600
H 	H 	0.06813 0.25187 0.54127 0.05200
O 	O 	0.13103 0.55827 0.59110 -0.48000
O 	O 	0.20343 0.45297 0.60567 -0.51600
Mg	Mg	0.14289 0.14289 -0.00000 1.46200
Mg	Mg	0.80956 0.47622 0.33333 1.47200
Mg	Mg	0.47622 0.80956 0.66667 1.47200
Mg	Mg	0.85711 0.00000 -0.00000 1.46100
Mg	Mg	0.52378 0.33333 0.33333 1.47200
Mg	Mg	0.19044 0.66667 0.66667 1.47200
Mg	Mg	-0.00000 0.85711 -0.00000 1.46200
Mg	Mg	0.66667 0.19044 0.33333 1.47200
Mg	Mg	0.33333 0.52378 0.66667 1.47200
O 	O 	0.33333 0.08722 0.16667 -0.15800
O 	O 	-0.00000 0.42055 0.50000 -0.15100
O 	O 	0.91278 0.24612 0.16667 -0.14500
O 	O 	0.57945 0.57945 0.50000 -0.14300
O 	O 	0.75388 0.66667 0.16667 -0.14600
O 	O 	0.42055 0.00000 0.50000 -0.15500
O 	O 	0.08722 0.33333 0.83333 -0.14300
O 	O 	0.24612 0.91278 0.83333 -0.13300
O 	O 	0.66667 0.75388 0.83333 -0.13600
O 	O 	-0.00000 0.00000 -0.00000 -0.82900
O 	O 	0.66667 0.33333 0.33333 -0.74800
O 	O 	0.33333 0.66667 0.66667 -0.74600
