data_crystal

_cell_length_a 22.81040
_cell_length_b 22.81040
_cell_length_c 16.80990
_cell_angle_alpha 90.00000
_cell_angle_beta  90.00000
_cell_angle_gamma 120.00000

_symmetry_space_group_name_	'P 1'
_symmetry_space_group_name_H-M	'P 1'

loop_
_symmetry_equiv_pos_as_xyz
  x,y,z

loop_
_atom_site_label
_atom_site_type_symbol
_atom_site_fract_x
_atom_site_fract_y
_atom_site_fract_z
_atom_site_charge
Mg	Mg	0.73482 0.96172 0.70670 1.46100
Mg	Mg	0.56031 0.93167 0.73232 1.46600
Mg	Mg	0.70616 0.10765 0.71200 1.46900
C 	C 	0.60450 0.76170 0.05320 -0.13100
C 	C 	0.55430 0.77680 0.02970 0.01500
H 	H 	0.51520 0.76130 0.06020 0.03400
C 	C 	0.56250 0.81540 0.96050 -0.04500
H 	H 	0.52810 0.82310 0.94370 0.04600
C 	C 	0.62230 0.84150 0.91820 -0.08700
C 	C 	0.67220 0.83020 0.94480 -0.04300
H 	H 	0.71370 0.85100 0.91860 0.04100
C 	C 	0.66360 0.78910 0.00920 0.00400
H 	H 	0.69760 0.77970 0.02300 0.01900
C 	C 	0.59400 0.71880 0.12400 0.40500
C 	C 	0.63090 0.87950 0.84050 0.42500
C 	C 	0.81680 0.09830 0.51120 -0.14600
C 	C 	0.81940 0.15820 0.48330 0.02700
H 	H 	0.79700 0.17690 0.51020 0.02800
C 	C 	0.85680 0.18870 0.41410 -0.05500
H 	H 	0.85660 0.22640 0.39330 0.04700
C 	C 	0.89230 0.16510 0.37800 -0.04100
C 	C 	0.88760 0.10610 0.40290 -0.06500
H 	H 	0.90830 0.08680 0.37360 0.07700
C 	C 	0.85190 0.07430 0.47220 0.05100
H 	H 	0.85240 0.03630 0.49150 0.03700
C 	C 	0.77610 0.06920 0.58240 0.47500
C 	C 	0.94150 0.19920 0.30140 0.39100
C 	C 	0.54660 0.04880 0.54060 0.04500
C 	C 	0.56450 0.11530 0.50990 -0.12800
H 	H 	0.59790 0.15380 0.53510 0.08000
C 	C 	0.53190 0.12190 0.44250 0.13000
H 	H 	0.54220 0.16440 0.42360 -0.00300
C 	C 	0.48320 0.06230 0.40460 -0.28100
C 	C 	0.45720 0.00050 0.43380 0.37900
H 	H 	0.41990 0.96370 0.41080 -0.15900
C 	C 	0.48920 0.99350 0.50190 -0.34800
H 	H 	0.47230 0.95040 0.52320 0.14200
C 	C 	0.57970 0.04090 0.60890 0.47700
C 	C 	0.44570 0.07150 0.33060 0.50200
O 	O 	0.64360 0.71920 0.15530 -0.65000
O 	O 	0.53420 0.68390 0.14930 -0.46000
O 	O 	0.68610 0.90820 0.80850 -0.55100
O 	O 	0.57750 0.88280 0.81790 -0.53900
O 	O 	0.74730 0.09830 0.61470 -0.57200
O 	O 	0.78130 0.02100 0.60810 -0.51000
O 	O 	0.97960 0.18230 0.28130 -0.47000
O 	O 	0.94080 0.25150 0.27190 -0.59400
O 	O 	0.62490 0.09150 0.64040 -0.52200
O 	O 	0.55300 0.98200 0.63950 -0.59600
O 	O 	0.46060 0.12850 0.31120 -0.53900
O 	O 	0.40720 0.02060 0.29100 -0.61100
Mg	Mg	0.03828 0.77310 0.70670 1.46000
Mg	Mg	0.06833 0.62864 0.73232 1.46500
Mg	Mg	0.89235 0.59851 0.71200 1.46700
C 	C 	0.23830 0.84280 0.05320 -0.14400
C 	C 	0.22320 0.77750 0.02970 0.01700
H 	H 	0.23870 0.75390 0.06020 0.03000
C 	C 	0.18460 0.74710 0.96050 -0.05100
H 	H 	0.17690 0.70500 0.94370 0.04600
C 	C 	0.15850 0.78080 0.91820 -0.08800
C 	C 	0.16980 0.84200 0.94480 -0.05300
H 	H 	0.14900 0.86270 0.91860 0.03300
C 	C 	0.21090 0.87450 0.00920 0.00800
H 	H 	0.22030 0.91790 0.02300 0.00000
C 	C 	0.28120 0.87520 0.12400 0.41000
C 	C 	0.12050 0.75140 0.84050 0.42300
C 	C 	0.90170 0.71850 0.51120 -0.14800
C 	C 	0.84180 0.66120 0.48330 0.02000
H 	H 	0.82310 0.62010 0.51020 0.02700
C 	C 	0.81130 0.66810 0.41410 -0.05200
H 	H 	0.77360 0.63020 0.39330 0.04300
C 	C 	0.83490 0.72720 0.37800 -0.05500
C 	C 	0.89390 0.78150 0.40290 -0.06300
H 	H 	0.91320 0.82150 0.37360 0.06100
C 	C 	0.92570 0.77760 0.47220 0.04300
H 	H 	0.96370 0.81610 0.49150 0.02700
C 	C 	0.93080 0.70690 0.58240 0.47400
C 	C 	0.80080 0.74230 0.30140 0.39600
C 	C 	0.95120 0.49780 0.54060 0.04400
C 	C 	0.88470 0.44920 0.50990 -0.12800
H 	H 	0.84620 0.44410 0.53510 0.07900
C 	C 	0.87810 0.41000 0.44250 0.12900
H 	H 	0.83560 0.37780 0.42360 -0.00300
C 	C 	0.93770 0.42090 0.40460 -0.28000
C 	C 	0.99950 0.45670 0.43380 0.37800
H 	H 	0.03630 0.45620 0.41080 -0.15800
C 	C 	0.00650 0.49570 0.50190 -0.34700
H 	H 	0.04960 0.52190 0.52320 0.14200
C 	C 	0.95910 0.53880 0.60890 0.47800
C 	C 	0.92850 0.37420 0.33060 0.50100
O 	O 	0.28080 0.92440 0.15530 -0.67300
O 	O 	0.31610 0.85030 0.14930 -0.46700
O 	O 	0.09180 0.77790 0.80850 -0.55700
O 	O 	0.11720 0.69470 0.81790 -0.54000
O 	O 	0.90170 0.64900 0.61470 -0.57500
O 	O 	0.97900 0.76030 0.60810 -0.51900
O 	O 	0.81770 0.79730 0.28130 -0.50400
O 	O 	0.74850 0.68930 0.27190 -0.60900
O 	O 	0.90850 0.53340 0.64040 -0.52300
O 	O 	0.01800 0.57100 0.63950 -0.59600
O 	O 	0.87150 0.33210 0.31120 -0.53700
O 	O 	0.97940 0.38660 0.29100 -0.61100
Mg	Mg	0.22690 0.26518 0.70670 1.46500
Mg	Mg	0.37136 0.43969 0.73232 1.46700
Mg	Mg	0.40149 0.29384 0.71200 1.46700
C 	C 	0.15720 0.39550 0.05320 -0.14500
C 	C 	0.22250 0.44570 0.02970 0.02300
H 	H 	0.24610 0.48480 0.06020 0.03100
C 	C 	0.25290 0.43750 0.96050 -0.05300
H 	H 	0.29500 0.47190 0.94370 0.04900
C 	C 	0.21920 0.37770 0.91820 -0.07800
C 	C 	0.15800 0.32780 0.94480 -0.05700
H 	H 	0.13730 0.28630 0.91860 0.04400
C 	C 	0.12550 0.33640 0.00920 0.01600
H 	H 	0.08210 0.30240 0.02300 0.00100
C 	C 	0.12480 0.40600 0.12400 0.41200
C 	C 	0.24860 0.36910 0.84050 0.42100
C 	C 	0.28150 0.18320 0.51120 -0.15700
C 	C 	0.33880 0.18060 0.48330 0.02700
H 	H 	0.37990 0.20300 0.51020 0.02600
C 	C 	0.33190 0.14320 0.41410 -0.05800
H 	H 	0.36980 0.14340 0.39330 0.04600
C 	C 	0.27280 0.10770 0.37800 -0.04600
C 	C 	0.21850 0.11240 0.40290 -0.07100
H 	H 	0.17850 0.09170 0.37360 0.06200
C 	C 	0.22240 0.14810 0.47220 0.05000
H 	H 	0.18390 0.14760 0.49150 0.01700
C 	C 	0.29310 0.22390 0.58240 0.47600
C 	C 	0.25770 0.05850 0.30140 0.39200
C 	C 	0.50220 0.45340 0.54060 -0.14500
C 	C 	0.55080 0.43550 0.50990 0.01200
H 	H 	0.55590 0.40210 0.53510 0.03000
C 	C 	0.59000 0.46810 0.44250 -0.03900
H 	H 	0.62220 0.45780 0.42360 0.05300
C 	C 	0.57910 0.51680 0.40460 -0.08600
C 	C 	0.54330 0.54280 0.43380 -0.03800
H 	H 	0.54380 0.58010 0.41080 0.02600
C 	C 	0.50430 0.51080 0.50190 0.01100
H 	H 	0.47810 0.52770 0.52320 0.03200
C 	C 	0.46120 0.42030 0.60890 0.47800
C 	C 	0.62580 0.55430 0.33060 0.43600
O 	O 	0.07560 0.35640 0.15530 -0.67100
O 	O 	0.14970 0.46580 0.14930 -0.46600
O 	O 	0.22210 0.31390 0.80850 -0.53400
O 	O 	0.30530 0.42250 0.81790 -0.53200
O 	O 	0.35100 0.25270 0.61470 -0.58100
O 	O 	0.23970 0.21870 0.60810 -0.54000
O 	O 	0.20270 0.02040 0.28130 -0.48500
O 	O 	0.31070 0.05920 0.27190 -0.59600
O 	O 	0.46660 0.37510 0.64040 -0.53000
O 	O 	0.42900 0.44700 0.63950 -0.55000
O 	O 	0.66790 0.53940 0.31120 -0.52400
O 	O 	0.61340 0.59280 0.29100 -0.62600
Mg	Mg	0.03828 0.26518 0.20670 1.46100
Mg	Mg	0.06833 0.43969 0.23232 1.46500
Mg	Mg	0.89235 0.29384 0.21200 1.46800
C 	C 	0.23830 0.39550 0.55320 -0.11200
C 	C 	0.22320 0.44570 0.52970 -0.01800
H 	H 	0.23870 0.48480 0.56020 0.04200
C 	C 	0.18460 0.43750 0.46050 -0.01400
H 	H 	0.17690 0.47190 0.44370 0.03700
C 	C 	0.15850 0.37770 0.41820 -0.11000
C 	C 	0.16980 0.32780 0.44480 -0.00900
H 	H 	0.14900 0.28630 0.41860 0.03100
C 	C 	0.21090 0.33640 0.50920 -0.03100
H 	H 	0.22030 0.30240 0.52300 0.02900
C 	C 	0.28120 0.40600 0.62400 0.39600
C 	C 	0.12050 0.36910 0.34050 0.43300
C 	C 	0.90170 0.18320 0.01120 -0.09200
C 	C 	0.84180 0.18060 0.98330 -0.03800
H 	H 	0.82310 0.20300 0.01020 0.05500
C 	C 	0.81130 0.14320 0.91410 -0.01100
H 	H 	0.77360 0.14340 0.89330 0.03100
C 	C 	0.83490 0.10770 0.87800 -0.07300
C 	C 	0.89390 0.11240 0.90290 -0.02700
H 	H 	0.91320 0.09170 0.87360 0.06400
C 	C 	0.92570 0.14810 0.97220 -0.00000
H 	H 	0.96370 0.14760 0.99150 0.05100
C 	C 	0.93080 0.22390 0.08240 0.45600
C 	C 	0.80080 0.05850 0.80140 0.40000
C 	C 	0.95120 0.45340 0.04060 0.02600
C 	C 	0.88470 0.43550 0.00990 -0.09900
H 	H 	0.84620 0.40210 0.03510 0.07200
C 	C 	0.87810 0.46810 0.94250 0.09800
H 	H 	0.83560 0.45780 0.92360 0.00500
C 	C 	0.93770 0.51680 0.90460 -0.26000
C 	C 	0.99950 0.54280 0.93380 0.34200
H 	H 	0.03630 0.58010 0.91080 -0.14700
C 	C 	0.00650 0.51080 0.00190 -0.31400
H 	H 	0.04960 0.52770 0.02320 0.13300
C 	C 	0.95910 0.42030 0.10890 0.48500
C 	C 	0.92850 0.55430 0.83060 0.49400
O 	O 	0.28080 0.35640 0.65530 -0.64900
O 	O 	0.31610 0.46580 0.64930 -0.45900
O 	O 	0.09180 0.31390 0.30850 -0.55200
O 	O 	0.11720 0.42250 0.31790 -0.54000
O 	O 	0.90170 0.25270 0.11470 -0.56600
O 	O 	0.97900 0.21870 0.10810 -0.50400
O 	O 	0.81770 0.02040 0.78130 -0.47400
O 	O 	0.74850 0.05920 0.77190 -0.59600
O 	O 	0.90850 0.37510 0.14040 -0.52300
O 	O 	0.01800 0.44700 0.13950 -0.59600
O 	O 	0.87150 0.53940 0.81120 -0.53800
O 	O 	0.97940 0.59280 0.79100 -0.61000
Mg	Mg	0.22690 0.96172 0.20670 1.46000
Mg	Mg	0.37136 0.93167 0.23232 1.46500
Mg	Mg	0.40149 0.10765 0.21200 1.46700
C 	C 	0.15720 0.76170 0.55320 -0.12400
C 	C 	0.22250 0.77680 0.52970 -0.01400
H 	H 	0.24610 0.76130 0.56020 0.03900
C 	C 	0.25290 0.81540 0.46050 -0.01900
H 	H 	0.29500 0.82310 0.44370 0.03800
C 	C 	0.21920 0.84150 0.41820 -0.10900
C 	C 	0.15800 0.83020 0.44480 -0.01800
H 	H 	0.13730 0.85100 0.41860 0.02300
C 	C 	0.12550 0.78910 0.50920 -0.02600
H 	H 	0.08210 0.77970 0.52300 0.01000
C 	C 	0.12480 0.71880 0.62400 0.40200
C 	C 	0.24860 0.87950 0.34050 0.43100
C 	C 	0.28150 0.09830 0.01120 -0.09400
C 	C 	0.33880 0.15820 0.98330 -0.04500
H 	H 	0.37990 0.17690 0.01020 0.05500
C 	C 	0.33190 0.18870 0.91410 -0.00800
H 	H 	0.36980 0.22640 0.89330 0.02600
C 	C 	0.27280 0.16510 0.87800 -0.08700
C 	C 	0.21850 0.10610 0.90290 -0.02600
H 	H 	0.17850 0.08680 0.87360 0.04800
C 	C 	0.22240 0.07430 0.97220 -0.00900
H 	H 	0.18390 0.03630 0.99150 0.04100
C 	C 	0.29310 0.06920 0.08240 0.45500
C 	C 	0.25770 0.19920 0.80140 0.40500
C 	C 	0.50220 0.04880 0.04060 0.02600
C 	C 	0.55080 0.11530 0.00990 -0.09900
H 	H 	0.55590 0.15380 0.03510 0.07100
C 	C 	0.59000 0.12190 0.94250 0.09700
H 	H 	0.62220 0.16440 0.92360 0.00600
C 	C 	0.57910 0.06230 0.90460 -0.25900
C 	C 	0.54330 0.00050 0.93380 0.34100
H 	H 	0.54380 0.96370 0.91080 -0.14700
C 	C 	0.50430 0.99350 0.00190 -0.31400
H 	H 	0.47810 0.95040 0.02320 0.13300
C 	C 	0.46120 0.04090 0.10890 0.48500
C 	C 	0.62580 0.07150 0.83060 0.49400
O 	O 	0.07560 0.71920 0.65530 -0.67100
O 	O 	0.14970 0.68390 0.64930 -0.46600
O 	O 	0.22210 0.90820 0.30850 -0.55800
O 	O 	0.30530 0.88280 0.31790 -0.54000
O 	O 	0.35100 0.09830 0.11470 -0.56900
O 	O 	0.23970 0.02100 0.10810 -0.51200
O 	O 	0.20270 0.18230 0.78130 -0.50800
O 	O 	0.31070 0.25150 0.77190 -0.61200
O 	O 	0.46660 0.09150 0.14040 -0.52400
O 	O 	0.42900 0.98200 0.13950 -0.59600
O 	O 	0.66790 0.12850 0.81120 -0.53600
O 	O 	0.61340 0.02060 0.79100 -0.61000
Mg	Mg	0.73482 0.77310 0.20670 1.46500
Mg	Mg	0.56031 0.62864 0.23232 1.46700
Mg	Mg	0.70616 0.59851 0.21200 1.46700
C 	C 	0.60450 0.84280 0.55320 -0.12500
C 	C 	0.55430 0.77750 0.52970 -0.00800
H 	H 	0.51520 0.75390 0.56020 0.04000
C 	C 	0.56250 0.74710 0.46050 -0.02100
H 	H 	0.52810 0.70500 0.44370 0.04100
C 	C 	0.62230 0.78080 0.41820 -0.09900
C 	C 	0.67220 0.84200 0.44480 -0.02200
H 	H 	0.71370 0.86270 0.41860 0.03400
C 	C 	0.66360 0.87450 0.50920 -0.01800
H 	H 	0.69760 0.91790 0.52300 0.01100
C 	C 	0.59400 0.87520 0.62400 0.40400
C 	C 	0.63090 0.75140 0.34050 0.42900
C 	C 	0.81680 0.71850 0.01120 -0.10200
C 	C 	0.81940 0.66120 0.98330 -0.03900
H 	H 	0.79700 0.62010 0.01020 0.05400
C 	C 	0.85680 0.66810 0.91410 -0.01400
H 	H 	0.85660 0.63020 0.89330 0.03000
C 	C 	0.89230 0.72720 0.87800 -0.07800
C 	C 	0.88760 0.78150 0.90290 -0.03300
H 	H 	0.90830 0.82150 0.87360 0.04800
C 	C 	0.85190 0.77760 0.97220 -0.00200
H 	H 	0.85240 0.81610 0.99150 0.03100
C 	C 	0.77610 0.70690 0.08240 0.45700
C 	C 	0.94150 0.74230 0.80140 0.40100
C 	C 	0.54660 0.49780 0.04060 -0.16000
C 	C 	0.56450 0.44920 0.00990 0.03900
H 	H 	0.59790 0.44410 0.03510 0.02300
C 	C 	0.53190 0.41000 0.94250 -0.06800
H 	H 	0.54220 0.37780 0.92360 0.06000
C 	C 	0.48320 0.42090 0.90460 -0.06800
C 	C 	0.45720 0.45670 0.93380 -0.06900
H 	H 	0.41990 0.45620 0.91080 0.03500
C 	C 	0.48920 0.49570 0.00190 0.03900
H 	H 	0.47230 0.52190 0.02320 0.02500
C 	C 	0.57970 0.53880 0.10890 0.48500
C 	C 	0.44570 0.37420 0.83060 0.43000
O 	O 	0.64360 0.92440 0.65530 -0.67000
O 	O 	0.53420 0.85030 0.64930 -0.46600
O 	O 	0.68610 0.77790 0.30850 -0.53500
O 	O 	0.57750 0.69470 0.31790 -0.53300
O 	O 	0.74730 0.64900 0.11470 -0.57500
O 	O 	0.78130 0.76030 0.10810 -0.53300
O 	O 	0.97960 0.79730 0.78130 -0.48900
O 	O 	0.94080 0.68930 0.77190 -0.59800
O 	O 	0.62490 0.53340 0.14040 -0.53100
O 	O 	0.55300 0.57100 0.13950 -0.55000
O 	O 	0.46060 0.33210 0.81120 -0.52300
O 	O 	0.40720 0.38660 0.79100 -0.62500
