data_crystal

_cell_length_a 16.68200
_cell_length_b 21.66200
_cell_length_c 27.67400
_cell_angle_alpha 90.00000
_cell_angle_beta  96.49000
_cell_angle_gamma 90.00000

_symmetry_space_group_name_	'P 1'
_symmetry_space_group_name_H-M	'P 1'

loop_
_symmetry_equiv_pos_as_xyz
  x,y,z

loop_
_atom_site_label
_atom_site_type_symbol
_atom_site_fract_x
_atom_site_fract_y
_atom_site_fract_z
_atom_site_charge
W 	W 	0.76300 0.90400 0.13530 0.34200
W 	W 	0.14338 0.00219 0.41560 0.34700
Cu	Cu	0.88260 0.98464 0.17032 0.81400
Cu	Cu	0.69246 0.93186 0.21319 0.80100
Cu	Cu	0.84101 0.88166 0.05928 0.80700
Cu	Cu	0.25249 0.02045 0.49208 0.80200
Cu	Cu	0.04578 0.98679 0.33377 0.80400
Cu	Cu	0.25973 0.02594 0.35512 0.81200
Cu	Cu	0.13949 0.16634 0.22166 0.80000
Cu	Cu	0.03685 0.15274 0.09400 0.82400
Cu	Cu	0.55092 0.97148 0.35889 0.80800
S 	S 	0.74408 0.99904 0.16363 -0.55400
S 	S 	0.70810 0.83810 0.18235 -0.38300
S 	S 	0.70834 0.89670 0.05891 -0.38300
S 	S 	0.89555 0.88701 0.13658 -0.55300
S 	S 	0.15760 0.94688 0.48295 -0.38400
S 	S 	0.23381 0.07930 0.42533 -0.55700
S 	S 	0.16854 0.94405 0.35210 -0.55100
S 	S 	0.02061 0.03975 0.39965 -0.39100
S 	S 	0.16175 0.16560 0.14354 -0.53800
N 	N 	0.93520 0.05270 0.13840 -0.21400
N 	N 	0.63830 0.94910 0.26840 -0.22900
N 	N 	0.92720 0.85800 0.97010 -0.20800
N 	N 	0.37350 0.03130 0.58150 -0.22100
N 	N 	0.93530 0.97580 0.23940 -0.20600
N 	N 	0.37240 0.00210 0.35390 -0.21600
N 	N 	0.21330 0.08170 0.30120 -0.20900
C 	C 	0.97200 0.08980 0.11980 -0.23400
C 	C 	0.60560 0.95860 0.30230 -0.24300
C 	C 	0.89410 0.86710 0.00460 -0.25100
C 	C 	0.32850 0.02930 0.54780 -0.25600
C 	C 	0.97560 0.97830 0.27550 -0.25300
C 	C 	0.44010 0.98970 0.35600 -0.26500
C 	C 	0.18180 0.11150 0.27110 -0.26300
W 	W 	0.23700 0.40400 0.86470 0.34200
W 	W 	0.85662 0.50219 0.58440 0.34900
Cu	Cu	0.11740 0.48464 0.82968 0.81400
Cu	Cu	0.30754 0.43186 0.78681 0.80100
Cu	Cu	0.15899 0.38166 0.94072 0.80800
Cu	Cu	0.74751 0.52045 0.50792 0.80200
Cu	Cu	0.95422 0.48679 0.66623 0.80300
Cu	Cu	0.74027 0.52594 0.64488 0.81200
Cu	Cu	0.86051 0.66634 0.77834 0.80000
Cu	Cu	0.96315 0.65274 0.90600 0.82400
Cu	Cu	0.44908 0.47148 0.64111 0.80800
S 	S 	0.25592 0.49904 0.83637 -0.55400
S 	S 	0.29190 0.33810 0.81765 -0.38300
S 	S 	0.29166 0.39670 0.94109 -0.38300
S 	S 	0.10445 0.38701 0.86342 -0.55200
S 	S 	0.84240 0.44688 0.51705 -0.38700
S 	S 	0.76619 0.57930 0.57467 -0.55700
S 	S 	0.83146 0.44405 0.64790 -0.55300
S 	S 	0.97939 0.53975 0.60035 -0.39000
S 	S 	0.83825 0.66560 0.85646 -0.53800
N 	N 	0.06480 0.55270 0.86160 -0.21500
N 	N 	0.36170 0.44910 0.73160 -0.22900
N 	N 	0.07280 0.35800 0.02990 -0.20800
N 	N 	0.62650 0.53130 0.41850 -0.22100
N 	N 	0.06470 0.47580 0.76060 -0.20600
N 	N 	0.62760 0.50210 0.64610 -0.21500
N 	N 	0.78670 0.58170 0.69880 -0.20800
C 	C 	0.02800 0.58980 0.88020 -0.23600
C 	C 	0.39440 0.45860 0.69770 -0.24300
C 	C 	0.10590 0.36710 0.99540 -0.25100
C 	C 	0.67150 0.52930 0.45220 -0.25600
C 	C 	0.02440 0.47830 0.72450 -0.25200
C 	C 	0.55990 0.48970 0.64400 -0.26600
C 	C 	0.81820 0.61150 0.72890 -0.26300
W 	W 	0.23700 0.09600 0.86470 0.34200
W 	W 	0.85662 0.99781 0.58440 0.34700
Cu	Cu	0.11740 0.01536 0.82968 0.81400
Cu	Cu	0.30754 0.06814 0.78681 0.80100
Cu	Cu	0.15899 0.11834 0.94072 0.80700
Cu	Cu	0.74751 0.97955 0.50792 0.80200
Cu	Cu	0.95422 0.01321 0.66623 0.80400
Cu	Cu	0.74027 0.97406 0.64488 0.81200
Cu	Cu	0.86051 0.83366 0.77834 0.80000
Cu	Cu	0.96315 0.84726 0.90600 0.82400
Cu	Cu	0.44908 0.02852 0.64111 0.80800
S 	S 	0.25592 0.00096 0.83637 -0.55400
S 	S 	0.29190 0.16190 0.81765 -0.38300
S 	S 	0.29166 0.10330 0.94109 -0.38300
S 	S 	0.10445 0.11299 0.86342 -0.55300
S 	S 	0.84240 0.05312 0.51705 -0.38400
S 	S 	0.76619 0.92070 0.57467 -0.55700
S 	S 	0.83146 0.05595 0.64790 -0.55100
S 	S 	0.97939 0.96025 0.60035 -0.39100
S 	S 	0.83825 0.83440 0.85646 -0.53800
N 	N 	0.06480 0.94730 0.86160 -0.21400
N 	N 	0.36170 0.05090 0.73160 -0.22900
N 	N 	0.07280 0.14200 0.02990 -0.20800
N 	N 	0.62650 0.96870 0.41850 -0.22100
N 	N 	0.06470 0.02420 0.76060 -0.20600
N 	N 	0.62760 0.99790 0.64610 -0.21600
N 	N 	0.78670 0.91830 0.69880 -0.20900
C 	C 	0.02800 0.91020 0.88020 -0.23400
C 	C 	0.39440 0.04140 0.69770 -0.24300
C 	C 	0.10590 0.13290 0.99540 -0.25100
C 	C 	0.67150 0.97070 0.45220 -0.25600
C 	C 	0.02440 0.02170 0.72450 -0.25300
C 	C 	0.55990 0.01030 0.64400 -0.26500
C 	C 	0.81820 0.88850 0.72890 -0.26300
W 	W 	0.76300 0.59600 0.13530 0.34200
W 	W 	0.14338 0.49781 0.41560 0.34900
Cu	Cu	0.88260 0.51536 0.17032 0.81400
Cu	Cu	0.69246 0.56814 0.21319 0.80100
Cu	Cu	0.84101 0.61834 0.05928 0.80800
Cu	Cu	0.25249 0.47955 0.49208 0.80200
Cu	Cu	0.04578 0.51321 0.33377 0.80300
Cu	Cu	0.25973 0.47406 0.35512 0.81200
Cu	Cu	0.13949 0.33366 0.22166 0.80000
Cu	Cu	0.03685 0.34726 0.09400 0.82400
Cu	Cu	0.55092 0.52852 0.35889 0.80800
S 	S 	0.74408 0.50096 0.16363 -0.55400
S 	S 	0.70810 0.66190 0.18235 -0.38300
S 	S 	0.70834 0.60330 0.05891 -0.38300
S 	S 	0.89555 0.61299 0.13658 -0.55200
S 	S 	0.15760 0.55312 0.48295 -0.38700
S 	S 	0.23381 0.42070 0.42533 -0.55700
S 	S 	0.16854 0.55595 0.35210 -0.55300
S 	S 	0.02061 0.46025 0.39965 -0.39000
S 	S 	0.16175 0.33440 0.14354 -0.53800
N 	N 	0.93520 0.44730 0.13840 -0.21500
N 	N 	0.63830 0.55090 0.26840 -0.22900
N 	N 	0.92720 0.64200 0.97010 -0.20800
N 	N 	0.37350 0.46870 0.58150 -0.22100
N 	N 	0.93530 0.52420 0.23940 -0.20600
N 	N 	0.37240 0.49790 0.35390 -0.21500
N 	N 	0.21330 0.41830 0.30120 -0.20800
C 	C 	0.97200 0.41020 0.11980 -0.23600
C 	C 	0.60560 0.54140 0.30230 -0.24300
C 	C 	0.89410 0.63290 0.00460 -0.25100
C 	C 	0.32850 0.47070 0.54780 -0.25600
C 	C 	0.97560 0.52170 0.27550 -0.25200
C 	C 	0.44010 0.51030 0.35600 -0.26600
C 	C 	0.18180 0.38850 0.27110 -0.26300
W 	W 	0.09051 0.25000 0.15521 0.28000
S 	S 	0.06420 0.25000 0.23338 -0.57600
S 	S 	0.97760 0.25000 0.10544 -0.50000
W 	W 	0.90949 0.75000 0.84479 0.28000
S 	S 	0.93580 0.75000 0.76662 -0.57600
S 	S 	0.02240 0.75000 0.89456 -0.50000
