data_crystal

_cell_length_a 24.56100
_cell_length_b 18.90800
_cell_length_c 9.70490
_cell_angle_alpha 90.00000
_cell_angle_beta  108.76000
_cell_angle_gamma 90.00000

_symmetry_space_group_name_	'P 1'
_symmetry_space_group_name_H-M	'P 1'

loop_
_symmetry_equiv_pos_as_xyz
  x,y,z

loop_
_atom_site_label
_atom_site_type_symbol
_atom_site_fract_x
_atom_site_fract_y
_atom_site_fract_z
_atom_site_charge
Co	Co	0.00236 0.20504 0.50687 1.06800
O 	O 	0.94750 0.02134 0.77760 -0.48100
O 	O 	0.93092 0.96817 0.56300 -0.38000
O 	O 	0.93247 0.82356 0.57150 -0.42400
O 	O 	0.94868 0.76934 0.78570 -0.47700
O 	O 	0.62410 0.15990 0.94340 -0.30100
O 	O 	0.56025 0.11630 0.74380 -0.44100
O 	O 	0.56476 0.74420 0.92970 -0.44800
O 	O 	0.55774 0.68023 0.73070 -0.54500
O 	O 	0.97460 0.10361 0.52030 -0.45300
C 	C 	0.87700 0.93170 0.71500 -0.09500
C 	C 	0.83410 0.96860 0.74800 0.07300
H 	H 	0.83620 0.01770 0.75290 0.00100
C 	C 	0.78800 0.93540 0.77420 -0.06200
C 	C 	0.78730 0.86020 0.77900 -0.00500
C 	C 	0.83270 0.82350 0.75390 -0.03600
H 	H 	0.83390 0.77450 0.76290 0.05900
C 	C 	0.87610 0.85750 0.71580 -0.04100
C 	C 	0.92260 0.81460 0.68710 0.37100
C 	C 	0.92220 0.97510 0.68050 0.40800
C 	C 	0.74080 0.98220 0.78910 0.16000
C 	C 	0.75470 0.04150 0.87290 -0.23000
H 	H 	0.79310 0.05200 0.92130 0.12700
C 	C 	0.71260 0.08600 0.88680 0.10600
H 	H 	0.72250 0.12510 0.94800 0.01500
C 	C 	0.65540 0.07310 0.81050 -0.14200
C 	C 	0.64160 0.01460 0.72000 0.04100
H 	H 	0.60350 0.00590 0.66580 0.01700
C 	C 	0.68440 0.96890 0.70980 -0.13600
H 	H 	0.67490 0.92950 0.64940 0.09900
C 	C 	0.73890 0.82000 0.80620 0.11500
C 	C 	0.71670 0.83890 0.91630 -0.20100
H 	H 	0.73510 0.87360 0.98320 0.12400
C 	C 	0.66770 0.80690 0.92700 0.18800
H 	H 	0.65330 0.82030 0.00070 -0.04400
C 	C 	0.63960 0.75440 0.82780 -0.20300
C 	C 	0.66430 0.73210 0.72460 0.10500
H 	H 	0.64780 0.69500 0.66230 0.01300
C 	C 	0.71300 0.76480 0.71420 -0.16300
H 	H 	0.72870 0.74960 0.64410 0.09600
C 	C 	0.61030 0.11980 0.83400 0.34800
C 	C 	0.58430 0.72480 0.83180 0.40500
Co	Co	0.50236 0.70504 0.50687 1.13900
O 	O 	0.44750 0.52134 0.77760 -0.51700
O 	O 	0.43092 0.46817 0.56300 -0.42600
O 	O 	0.43247 0.32356 0.57150 -0.45900
O 	O 	0.44868 0.26934 0.78570 -0.54300
O 	O 	0.12410 0.65990 0.94340 -0.30900
O 	O 	0.06025 0.61630 0.74380 -0.47600
O 	O 	0.06476 0.24420 0.92970 -0.49500
O 	O 	0.05774 0.18023 0.73070 -0.57800
O 	O 	0.47460 0.60361 0.52030 -0.55000
C 	C 	0.37700 0.43170 0.71500 -0.05900
C 	C 	0.33410 0.46860 0.74800 -0.02100
H 	H 	0.33620 0.51770 0.75290 0.05500
C 	C 	0.28800 0.43540 0.77420 -0.01900
C 	C 	0.28730 0.36020 0.77900 -0.03100
C 	C 	0.33270 0.32350 0.75390 -0.00800
H 	H 	0.33390 0.27450 0.76290 0.05000
C 	C 	0.37610 0.35750 0.71580 -0.07000
C 	C 	0.42260 0.31460 0.68710 0.38200
C 	C 	0.42220 0.47510 0.68050 0.36500
C 	C 	0.24080 0.48220 0.78910 0.11400
C 	C 	0.25470 0.54150 0.87290 -0.17400
H 	H 	0.29310 0.55200 0.92130 0.11400
C 	C 	0.21260 0.58600 0.88680 0.09400
H 	H 	0.22250 0.62510 0.94800 0.02100
C 	C 	0.15540 0.57310 0.81050 -0.15600
C 	C 	0.14160 0.51460 0.72000 0.09500
H 	H 	0.10350 0.50590 0.66580 -0.00900
C 	C 	0.18440 0.46890 0.70980 -0.17700
H 	H 	0.17490 0.42950 0.64940 0.10400
C 	C 	0.23890 0.32000 0.80620 0.13500
C 	C 	0.21670 0.33890 0.91630 -0.22200
H 	H 	0.23510 0.37360 0.98320 0.12900
C 	C 	0.16770 0.30690 0.92700 0.20700
H 	H 	0.15330 0.32030 0.00070 -0.05900
C 	C 	0.13960 0.25440 0.82780 -0.22400
C 	C 	0.16430 0.23210 0.72460 0.11900
H 	H 	0.14780 0.19500 0.66230 0.00800
C 	C 	0.21300 0.26480 0.71420 -0.18000
H 	H 	0.22870 0.24960 0.64410 0.10300
C 	C 	0.11030 0.61980 0.83400 0.35900
C 	C 	0.08430 0.22480 0.83180 0.41500
Co	Co	0.99764 0.20504 0.99313 1.22400
O 	O 	0.05250 0.02134 0.72240 -0.59100
O 	O 	0.06908 0.96817 0.93700 -0.42700
O 	O 	0.06753 0.82356 0.92850 -0.46100
O 	O 	0.05132 0.76934 0.71430 -0.59400
O 	O 	0.37590 0.15990 0.55660 -0.31600
O 	O 	0.43975 0.11630 0.75620 -0.43800
O 	O 	0.43524 0.74420 0.57030 -0.45500
O 	O 	0.44226 0.68023 0.76930 -0.53600
O 	O 	0.02540 0.10361 0.97970 -0.59600
C 	C 	0.12300 0.93170 0.78500 -0.11500
C 	C 	0.16590 0.96860 0.75200 0.09700
H 	H 	0.16380 0.01770 0.74710 -0.00700
C 	C 	0.21200 0.93540 0.72580 -0.07700
C 	C 	0.21270 0.86020 0.72100 0.01500
C 	C 	0.16730 0.82350 0.74610 -0.04400
H 	H 	0.16610 0.77450 0.73710 0.06000
C 	C 	0.12390 0.85750 0.78420 -0.04200
C 	C 	0.07740 0.81460 0.81290 0.36900
C 	C 	0.07780 0.97510 0.81950 0.42100
C 	C 	0.25920 0.98220 0.71090 0.17800
C 	C 	0.24530 0.04150 0.62710 -0.24600
H 	H 	0.20690 0.05200 0.57870 0.12500
C 	C 	0.28740 0.08600 0.61320 0.11600
H 	H 	0.27750 0.12510 0.55200 0.00300
C 	C 	0.34460 0.07310 0.68950 -0.15100
C 	C 	0.35840 0.01460 0.78000 0.05000
H 	H 	0.39650 0.00590 0.83420 0.02000
C 	C 	0.31560 0.96890 0.79020 -0.14400
H 	H 	0.32510 0.92950 0.85060 0.11200
C 	C 	0.26110 0.82000 0.69380 0.07200
C 	C 	0.28330 0.83890 0.58370 -0.13100
H 	H 	0.26490 0.87360 0.51680 0.08900
C 	C 	0.33230 0.80690 0.57300 0.07000
H 	H 	0.34670 0.82030 0.49930 0.02300
C 	C 	0.36040 0.75440 0.67220 -0.15000
C 	C 	0.33570 0.73210 0.77540 0.06000
H 	H 	0.35220 0.69500 0.83770 0.03600
C 	C 	0.28700 0.76480 0.78580 -0.11900
H 	H 	0.27130 0.74960 0.85590 0.08900
C 	C 	0.38970 0.11980 0.66600 0.35100
C 	C 	0.41570 0.72480 0.66820 0.38400
Co	Co	0.49764 0.70504 0.99313 1.15300
O 	O 	0.55250 0.52134 0.72240 -0.52400
O 	O 	0.56908 0.46817 0.93700 -0.40700
O 	O 	0.56753 0.32356 0.92850 -0.43800
O 	O 	0.55132 0.26934 0.71430 -0.55100
O 	O 	0.87590 0.65990 0.55660 -0.29300
O 	O 	0.93975 0.61630 0.75620 -0.36800
O 	O 	0.93524 0.24420 0.57030 -0.40300
O 	O 	0.94226 0.18023 0.76930 -0.48300
O 	O 	0.52540 0.60361 0.97970 -0.53000
C 	C 	0.62300 0.43170 0.78500 -0.06100
C 	C 	0.66590 0.46860 0.75200 -0.02000
H 	H 	0.66380 0.51770 0.74710 0.05500
C 	C 	0.71200 0.43540 0.72580 -0.02000
C 	C 	0.71270 0.36020 0.72100 -0.01400
C 	C 	0.66730 0.32350 0.74610 -0.02000
H 	H 	0.66610 0.27450 0.73710 0.05200
C 	C 	0.62390 0.35750 0.78420 -0.06500
C 	C 	0.57740 0.31460 0.81290 0.37800
C 	C 	0.57780 0.47510 0.81950 0.36400
C 	C 	0.75920 0.48220 0.71090 0.10100
C 	C 	0.74530 0.54150 0.62710 -0.15600
H 	H 	0.70690 0.55200 0.57870 0.09800
C 	C 	0.78740 0.58600 0.61320 0.06900
H 	H 	0.77750 0.62510 0.55200 0.02000
C 	C 	0.84460 0.57310 0.68950 -0.12100
C 	C 	0.85840 0.51460 0.78000 0.06900
H 	H 	0.89650 0.50590 0.83420 0.04500
C 	C 	0.81560 0.46890 0.79020 -0.14700
H 	H 	0.82510 0.42950 0.85060 0.11200
C 	C 	0.76110 0.32000 0.69380 0.08200
C 	C 	0.78330 0.33890 0.58370 -0.13300
H 	H 	0.76490 0.37360 0.51680 0.08600
C 	C 	0.83230 0.30690 0.57300 0.06900
H 	H 	0.84670 0.32030 0.49930 0.02700
C 	C 	0.86040 0.25440 0.67220 -0.14100
C 	C 	0.83570 0.23210 0.77540 0.05900
H 	H 	0.85220 0.19500 0.83770 0.03600
C 	C 	0.78700 0.26480 0.78580 -0.12300
H 	H 	0.77130 0.24960 0.85590 0.09000
C 	C 	0.88970 0.61980 0.66600 0.33600
C 	C 	0.91570 0.22480 0.66820 0.37300
Co	Co	0.99764 0.79496 0.49313 1.21200
O 	O 	0.05250 0.97866 0.22240 -0.51700
O 	O 	0.06908 0.03183 0.43700 -0.44100
O 	O 	0.06753 0.17644 0.42850 -0.48700
O 	O 	0.05132 0.23066 0.21430 -0.61200
O 	O 	0.37590 0.84010 0.05660 -0.32800
O 	O 	0.43975 0.88370 0.25620 -0.43700
O 	O 	0.43524 0.25580 0.07030 -0.46900
O 	O 	0.44226 0.31977 0.26930 -0.53800
O 	O 	0.02540 0.89639 0.47970 -0.60400
C 	C 	0.12300 0.06830 0.28500 -0.02300
C 	C 	0.16590 0.03140 0.25200 -0.13000
H 	H 	0.16380 0.98230 0.24710 0.11100
C 	C 	0.21200 0.06460 0.22580 0.01500
C 	C 	0.21270 0.13980 0.22100 -0.03100
C 	C 	0.16730 0.17650 0.24610 -0.00500
H 	H 	0.16610 0.22550 0.23710 0.04200
C 	C 	0.12390 0.14250 0.28420 -0.10400
C 	C 	0.07740 0.18540 0.31290 0.39000
C 	C 	0.07780 0.02490 0.31950 0.30000
C 	C 	0.25920 0.01780 0.21090 0.04700
C 	C 	0.24530 0.95850 0.12710 -0.10000
H 	H 	0.20690 0.94800 0.07870 0.07400
C 	C 	0.28740 0.91400 0.11320 0.05600
H 	H 	0.27750 0.87490 0.05200 0.01400
C 	C 	0.34460 0.92690 0.18950 -0.14800
C 	C 	0.35840 0.98540 0.28000 0.12700
H 	H 	0.39650 0.99410 0.33420 0.00800
C 	C 	0.31560 0.03110 0.29020 -0.19700
H 	H 	0.32510 0.07050 0.35060 0.11000
C 	C 	0.26110 0.18000 0.19380 0.05000
C 	C 	0.28330 0.16110 0.08370 -0.07400
H 	H 	0.26490 0.12640 0.01680 0.04800
C 	C 	0.33230 0.19310 0.07300 -0.05200
H 	H 	0.34670 0.17970 0.99930 0.08900
C 	C 	0.36040 0.24560 0.17220 -0.11000
C 	C 	0.33570 0.26790 0.27540 0.02100
H 	H 	0.35220 0.30500 0.33770 0.03900
C 	C 	0.28700 0.23520 0.28580 -0.09900
H 	H 	0.27130 0.25040 0.35590 0.07300
C 	C 	0.38970 0.88020 0.16600 0.35400
C 	C 	0.41570 0.27520 0.16820 0.36300
Co	Co	0.49764 0.29496 0.49313 1.13800
O 	O 	0.55250 0.47866 0.22240 -0.53200
O 	O 	0.56908 0.53183 0.43700 -0.42700
O 	O 	0.56753 0.67644 0.42850 -0.45700
O 	O 	0.55132 0.73066 0.21430 -0.56200
O 	O 	0.87590 0.34010 0.05660 -0.30800
O 	O 	0.93975 0.38370 0.25620 -0.37400
O 	O 	0.93524 0.75580 0.07030 -0.41200
O 	O 	0.94226 0.81977 0.26930 -0.48300
O 	O 	0.52540 0.39639 0.47970 -0.55100
C 	C 	0.62300 0.56830 0.28500 -0.07300
C 	C 	0.66590 0.53140 0.25200 -0.01900
H 	H 	0.66380 0.48230 0.24710 0.04800
C 	C 	0.71200 0.56460 0.22580 -0.03400
C 	C 	0.71270 0.63980 0.22100 -0.00400
C 	C 	0.66730 0.67650 0.24610 -0.03400
H 	H 	0.66610 0.72550 0.23710 0.05200
C 	C 	0.62390 0.64250 0.28420 -0.06900
C 	C 	0.57740 0.68540 0.31290 0.37900
C 	C 	0.57780 0.52490 0.31950 0.36700
C 	C 	0.75920 0.51780 0.21090 0.10100
C 	C 	0.74530 0.45850 0.12710 -0.16300
H 	H 	0.70690 0.44800 0.07870 0.09000
C 	C 	0.78740 0.41400 0.11320 0.06900
H 	H 	0.77750 0.37490 0.05200 0.00900
C 	C 	0.84460 0.42690 0.18950 -0.13000
C 	C 	0.85840 0.48540 0.28000 0.06900
H 	H 	0.89650 0.49410 0.33420 0.03800
C 	C 	0.81560 0.53110 0.29020 -0.15400
H 	H 	0.82510 0.57050 0.35060 0.10500
C 	C 	0.76110 0.68000 0.19380 0.04000
C 	C 	0.78330 0.66110 0.08370 -0.07100
H 	H 	0.76490 0.62640 0.01680 0.05300
C 	C 	0.83230 0.69310 0.07300 -0.03900
H 	H 	0.84670 0.67970 0.99930 0.08700
C 	C 	0.86040 0.74560 0.17220 -0.09900
C 	C 	0.83570 0.76790 0.27540 0.01700
H 	H 	0.85220 0.80500 0.33770 0.04200
C 	C 	0.78700 0.73520 0.28580 -0.09000
H 	H 	0.77130 0.75040 0.35590 0.07000
C 	C 	0.88970 0.38020 0.16600 0.33800
C 	C 	0.91570 0.77520 0.16820 0.35500
Co	Co	0.00236 0.79496 0.00687 1.05500
O 	O 	0.94750 0.97866 0.27760 -0.41700
O 	O 	0.93092 0.03183 0.06300 -0.38500
O 	O 	0.93247 0.17644 0.07150 -0.44300
O 	O 	0.94868 0.23066 0.28570 -0.48700
O 	O 	0.62410 0.84010 0.44340 -0.31200
O 	O 	0.56025 0.88370 0.24380 -0.44000
O 	O 	0.56476 0.25580 0.42970 -0.46100
O 	O 	0.55774 0.31977 0.23070 -0.54600
O 	O 	0.97460 0.89639 0.02030 -0.45400
C 	C 	0.87700 0.06830 0.21500 -0.01300
C 	C 	0.83410 0.03140 0.24800 -0.13300
H 	H 	0.83620 0.98230 0.25290 0.10800
C 	C 	0.78800 0.06460 0.27420 0.02000
C 	C 	0.78730 0.13980 0.27900 -0.04700
C 	C 	0.83270 0.17650 0.25390 -0.00100
H 	H 	0.83390 0.22550 0.26290 0.04300
C 	C 	0.87610 0.14250 0.21580 -0.09500
C 	C 	0.92260 0.18540 0.18710 0.39000
C 	C 	0.92220 0.02490 0.18050 0.30000
C 	C 	0.74080 0.01780 0.28910 0.04400
C 	C 	0.75470 0.95850 0.37290 -0.09900
H 	H 	0.79310 0.94800 0.42130 0.08100
C 	C 	0.71260 0.91400 0.38680 0.05400
H 	H 	0.72250 0.87490 0.44800 0.02400
C 	C 	0.65540 0.92690 0.31050 -0.14200
C 	C 	0.64160 0.98540 0.22000 0.11900
H 	H 	0.60350 0.99410 0.16580 0.00500
C 	C 	0.68440 0.03110 0.20980 -0.19300
H 	H 	0.67490 0.07050 0.14940 0.09900
C 	C 	0.73890 0.18000 0.30620 0.09600
C 	C 	0.71670 0.16110 0.41630 -0.15100
H 	H 	0.73510 0.12640 0.48320 0.08800
C 	C 	0.66770 0.19310 0.42700 0.07900
H 	H 	0.65330 0.17970 0.50070 0.01400
C 	C 	0.63960 0.24560 0.32780 -0.16800
C 	C 	0.66430 0.26790 0.22460 0.07000
H 	H 	0.64780 0.30500 0.16230 0.01500
C 	C 	0.71300 0.23520 0.21420 -0.14600
H 	H 	0.72870 0.25040 0.14410 0.08200
C 	C 	0.61030 0.88020 0.33400 0.35200
C 	C 	0.58430 0.27520 0.33180 0.38600
Co	Co	0.50236 0.29496 0.00687 1.12400
O 	O 	0.44750 0.47866 0.27760 -0.52900
O 	O 	0.43092 0.53183 0.06300 -0.44200
O 	O 	0.43247 0.67644 0.07150 -0.47800
O 	O 	0.44868 0.73066 0.28570 -0.55400
O 	O 	0.12410 0.34010 0.44340 -0.32600
O 	O 	0.06025 0.38370 0.24380 -0.48600
O 	O 	0.06476 0.75580 0.42970 -0.50700
O 	O 	0.05774 0.81977 0.23070 -0.57800
O 	O 	0.47460 0.39639 0.02030 -0.56600
C 	C 	0.37700 0.56830 0.21500 -0.07300
C 	C 	0.33410 0.53140 0.24800 -0.02000
H 	H 	0.33620 0.48230 0.25290 0.04600
C 	C 	0.28800 0.56460 0.27420 -0.03500
C 	C 	0.28730 0.63980 0.27900 -0.01900
C 	C 	0.33270 0.67650 0.25390 -0.02500
H 	H 	0.33390 0.72550 0.26290 0.05000
C 	C 	0.37610 0.64250 0.21580 -0.07400
C 	C 	0.42260 0.68540 0.18710 0.38300
C 	C 	0.42220 0.52490 0.18050 0.36800
C 	C 	0.24080 0.51780 0.28910 0.11500
C 	C 	0.25470 0.45850 0.37290 -0.18300
H 	H 	0.29310 0.44800 0.42130 0.10600
C 	C 	0.21260 0.41400 0.38680 0.09600
H 	H 	0.22250 0.37490 0.44800 0.00900
C 	C 	0.15540 0.42690 0.31050 -0.16700
C 	C 	0.14160 0.48540 0.22000 0.09500
H 	H 	0.10350 0.49410 0.16580 -0.01800
C 	C 	0.18440 0.53110 0.20980 -0.18500
H 	H 	0.17490 0.57050 0.14940 0.09700
C 	C 	0.23890 0.68000 0.30620 0.08500
C 	C 	0.21670 0.66110 0.41630 -0.14700
H 	H 	0.23510 0.62640 0.48320 0.09000
C 	C 	0.16770 0.69310 0.42700 0.07800
H 	H 	0.15330 0.67970 0.50070 0.01200
C 	C 	0.13960 0.74560 0.32780 -0.17400
C 	C 	0.16430 0.76790 0.22460 0.06900
H 	H 	0.14780 0.80500 0.16230 0.01500
C 	C 	0.21300 0.73520 0.21420 -0.14100
H 	H 	0.22870 0.75040 0.14410 0.08000
C 	C 	0.11030 0.38020 0.33400 0.36200
C 	C 	0.08430 0.77520 0.33180 0.39200
Co	Co	-0.00000 0.00000 -0.00000 1.08300
Co	Co	0.50000 0.50000 -0.00000 1.16300
Co	Co	0.00000 0.00000 0.50000 1.10000
Co	Co	0.50000 0.50000 0.50000 1.17900
Co	Co	0.00000 0.10319 0.75000 1.09300
Co	Co	0.50000 0.60319 0.75000 1.15700
Co	Co	0.00000 0.89681 0.25000 1.09300
Co	Co	0.50000 0.39681 0.25000 1.15600
Co	Co	0.00000 0.31233 0.25000 1.05600
Co	Co	0.50000 0.81233 0.25000 1.12200
Co	Co	0.00000 0.68767 0.75000 1.06200
Co	Co	0.50000 0.18767 0.75000 1.12400
