data_crystal

_cell_length_a 10.01730
_cell_length_b 19.82780
_cell_length_c 10.04730
_cell_angle_alpha 90.00000
_cell_angle_beta  113.77100
_cell_angle_gamma 90.00000

_symmetry_space_group_name_	'P 1'
_symmetry_space_group_name_H-M	'P 1'

loop_
_symmetry_equiv_pos_as_xyz
  x,y,z

loop_
_atom_site_label
_atom_site_type_symbol
_atom_site_fract_x
_atom_site_fract_y
_atom_site_fract_z
_atom_site_charge
C 	C 	0.46600 0.06193 0.04420 -0.01100
V 	V 	0.28701 0.25997 0.73871 1.75900
V 	V 	0.26825 0.10894 0.49708 1.79700
P 	P 	0.00944 0.36448 0.67902 0.43400
P 	P 	0.51163 0.13468 0.82832 0.46200
F 	F 	0.19426 0.19330 0.58641 -0.72500
F 	F 	0.34077 0.31324 0.91588 -0.83400
F 	F 	0.19739 0.05531 0.59976 -0.61900
O 	O 	0.10650 0.31496 0.64370 -0.48700
O 	O 	0.85190 0.34022 0.63020 -0.24600
O 	O 	0.06510 0.37979 0.84220 -0.42200
O 	O 	0.46350 0.11777 0.66700 -0.46300
O 	O 	0.67180 0.15704 0.88100 -0.32900
O 	O 	0.41590 0.18663 0.85860 -0.48800
C 	C 	0.00590 0.44103 0.58020 -0.07200
C 	C 	0.10380 0.45093 0.51500 -0.01700
H 	H 	0.17530 0.41760 0.52510 0.02200
C 	C 	0.90220 0.49089 0.56450 -0.02300
H 	H 	0.83510 0.48500 0.60860 0.07100
C 	C 	0.50290 0.05911 0.92380 -0.05400
C 	C 	0.46240 0.00349 0.11950 -0.01800
H 	H 	0.43640 0.00600 0.20050 0.02000
H 	H 	0.44310 0.10410 0.07470 0.01700
H 	H 	0.74700 0.16200 0.98800 0.22000
C 	C 	0.53400 0.56193 0.45580 -0.01200
V 	V 	0.71299 0.75997 0.76129 1.76000
V 	V 	0.73175 0.60894 0.00292 1.79600
P 	P 	0.99056 0.86448 0.82098 0.43700
P 	P 	0.48837 0.63468 0.67168 0.46100
F 	F 	0.80574 0.69330 0.91359 -0.72300
F 	F 	0.65923 0.81324 0.58412 -0.83300
F 	F 	0.80261 0.55531 0.90024 -0.61600
O 	O 	0.89350 0.81496 0.85630 -0.48500
O 	O 	0.14810 0.84022 0.86980 -0.25000
O 	O 	0.93490 0.87979 0.65780 -0.42000
O 	O 	0.53650 0.61777 0.83300 -0.46100
O 	O 	0.32820 0.65704 0.61900 -0.32900
O 	O 	0.58410 0.68663 0.64140 -0.48800
C 	C 	0.99410 0.94103 0.91980 -0.06600
C 	C 	0.89620 0.95093 0.98500 -0.01000
H 	H 	0.82470 0.91760 0.97490 0.02100
C 	C 	0.09780 0.99089 0.93550 -0.03600
H 	H 	0.16490 0.98500 0.89140 0.07400
C 	C 	0.49710 0.55911 0.57620 -0.05100
C 	C 	0.53760 0.50349 0.38050 -0.01900
H 	H 	0.56360 0.50600 0.29950 0.02000
H 	H 	0.55690 0.60410 0.42530 0.01700
H 	H 	0.25300 0.66200 0.51200 0.21800
C 	C 	0.53400 0.93807 0.95580 -0.01000
V 	V 	0.71299 0.74003 0.26129 1.76000
V 	V 	0.73175 0.89106 0.50292 1.79700
P 	P 	0.99056 0.63552 0.32098 0.43400
P 	P 	0.48837 0.86532 0.17168 0.46200
F 	F 	0.80574 0.80670 0.41359 -0.72500
F 	F 	0.65923 0.68676 0.08412 -0.83400
F 	F 	0.80261 0.94469 0.40024 -0.61900
O 	O 	0.89350 0.68504 0.35630 -0.48700
O 	O 	0.14810 0.65978 0.36980 -0.24600
O 	O 	0.93490 0.62021 0.15780 -0.42200
O 	O 	0.53650 0.88223 0.33300 -0.46300
O 	O 	0.32820 0.84296 0.11900 -0.32900
O 	O 	0.58410 0.81337 0.14140 -0.48800
C 	C 	0.99410 0.55897 0.41980 -0.07200
C 	C 	0.89620 0.54907 0.48500 -0.01700
H 	H 	0.82470 0.58240 0.47490 0.02200
C 	C 	0.09780 0.50911 0.43550 -0.02300
H 	H 	0.16490 0.51500 0.39140 0.07100
C 	C 	0.49710 0.94089 0.07620 -0.05400
C 	C 	0.53760 0.99651 0.88050 -0.01800
H 	H 	0.56360 0.99400 0.79950 0.02000
H 	H 	0.55690 0.89590 0.92530 0.01700
H 	H 	0.25300 0.83800 0.01200 0.22000
C 	C 	0.46600 0.43807 0.54420 -0.01200
V 	V 	0.28701 0.24003 0.23871 1.76000
V 	V 	0.26825 0.39106 0.99708 1.79600
P 	P 	0.00944 0.13552 0.17902 0.43700
P 	P 	0.51163 0.36532 0.32832 0.46100
F 	F 	0.19426 0.30670 0.08641 -0.72300
F 	F 	0.34077 0.18676 0.41588 -0.83300
F 	F 	0.19739 0.44469 0.09976 -0.61600
O 	O 	0.10650 0.18504 0.14370 -0.48500
O 	O 	0.85190 0.15978 0.13020 -0.25000
O 	O 	0.06510 0.12021 0.34220 -0.42000
O 	O 	0.46350 0.38223 0.16700 -0.46100
O 	O 	0.67180 0.34296 0.38100 -0.32900
O 	O 	0.41590 0.31337 0.35860 -0.48800
C 	C 	0.00590 0.05897 0.08020 -0.06600
C 	C 	0.10380 0.04907 0.01500 -0.01000
H 	H 	0.17530 0.08240 0.02510 0.02100
C 	C 	0.90220 0.00911 0.06450 -0.03600
H 	H 	0.83510 0.01500 0.10860 0.07400
C 	C 	0.50290 0.44089 0.42380 -0.05100
C 	C 	0.46240 0.49651 0.61950 -0.01900
H 	H 	0.43640 0.49400 0.70050 0.02000
H 	H 	0.44310 0.39590 0.57470 0.01700
H 	H 	0.74700 0.33800 0.48800 0.21800
