data_crystal

_cell_length_a 8.75610
_cell_length_b 20.75200
_cell_length_c 34.29700
_cell_angle_alpha 90.00000
_cell_angle_beta  90.00000
_cell_angle_gamma 90.00000

_symmetry_space_group_name_	'P 1'
_symmetry_space_group_name_H-M	'P 1'

loop_
_symmetry_equiv_pos_as_xyz
  x,y,z

loop_
_atom_site_label
_atom_site_type_symbol
_atom_site_fract_x
_atom_site_fract_y
_atom_site_fract_z
_atom_site_charge
O 	O 	0.24490 0.33430 0.59290 -0.66900
O 	O 	0.00880 0.33290 0.57052 -0.61800
O 	O 	0.24480 0.45830 0.63530 -0.64300
C 	C 	0.14760 0.31990 0.56770 0.54800
C 	C 	0.20050 0.28410 0.53281 -0.15000
C 	C 	0.09660 0.26400 0.50480 0.00100
C 	C 	0.14740 0.23050 0.47230 0.01700
C 	C 	0.26060 0.59150 0.63170 0.00100
H 	H 	0.99000 0.27260 0.50830 0.04700
H 	H 	0.07310 0.21580 0.45310 0.02600
H 	H 	0.35490 0.56820 0.63600 0.02700
C 	C 	0.26060 0.65870 0.63150 0.00000
H 	H 	0.35540 0.68220 0.63500 0.02000
O 	O 	0.24490 0.83430 0.09290 -0.66900
O 	O 	0.00880 0.83290 0.07052 -0.61600
O 	O 	0.24480 0.95830 0.13530 -0.64300
C 	C 	0.14760 0.81990 0.06770 0.55000
C 	C 	0.20050 0.78410 0.03281 -0.15500
C 	C 	0.09660 0.76400 0.00480 0.01200
C 	C 	0.14740 0.73050 0.97230 0.01000
C 	C 	0.26060 0.09150 0.13170 0.00100
H 	H 	0.99000 0.77260 0.00830 0.04100
H 	H 	0.07310 0.71580 0.95310 0.03000
H 	H 	0.35490 0.06820 0.13600 0.02800
C 	C 	0.26060 0.15870 0.13150 0.00100
H 	H 	0.35540 0.18220 0.13500 0.02100
O 	O 	0.74490 0.33430 0.09290 -0.66800
O 	O 	0.50880 0.33290 0.07052 -0.61600
O 	O 	0.74480 0.45830 0.13530 -0.64200
C 	C 	0.64760 0.31990 0.06770 0.54900
C 	C 	0.70050 0.28410 0.03281 -0.14800
C 	C 	0.59660 0.26400 0.00480 0.00300
C 	C 	0.64740 0.23050 0.97230 0.01900
C 	C 	0.76060 0.59150 0.13170 0.00200
H 	H 	0.49000 0.27260 0.00830 0.04700
H 	H 	0.57310 0.21580 0.95310 0.02800
H 	H 	0.85490 0.56820 0.13600 0.02800
C 	C 	0.76060 0.65870 0.13150 0.00200
H 	H 	0.85540 0.68220 0.13500 0.02000
O 	O 	0.74490 0.83430 0.59290 -0.66900
O 	O 	0.50880 0.83290 0.57052 -0.61700
O 	O 	0.74480 0.95830 0.63530 -0.64300
C 	C 	0.64760 0.81990 0.56770 0.55000
C 	C 	0.70050 0.78410 0.53281 -0.15200
C 	C 	0.59660 0.76400 0.50480 0.00700
C 	C 	0.64740 0.73050 0.47230 0.01500
C 	C 	0.76060 0.09150 0.63170 0.00200
H 	H 	0.49000 0.77260 0.50830 0.04600
H 	H 	0.57310 0.71580 0.45310 0.02900
H 	H 	0.85490 0.06820 0.63600 0.02800
C 	C 	0.76060 0.15870 0.63150 0.00200
H 	H 	0.85540 0.18220 0.63500 0.02100
O 	O 	0.50510 0.41570 0.59290 -0.66800
O 	O 	0.74120 0.41710 0.57052 -0.61700
O 	O 	0.50520 0.29170 0.63530 -0.64200
C 	C 	0.60240 0.43010 0.56770 0.55000
C 	C 	0.54950 0.46590 0.53281 -0.15100
C 	C 	0.65340 0.48600 0.50480 0.00600
C 	C 	0.60260 0.51950 0.47230 0.01600
C 	C 	0.48940 0.15850 0.63170 0.00200
H 	H 	0.76000 0.47740 0.50830 0.04600
H 	H 	0.67690 0.53420 0.45310 0.02900
H 	H 	0.39510 0.18180 0.63600 0.02800
C 	C 	0.48940 0.09130 0.63150 0.00100
H 	H 	0.39460 0.06780 0.63500 0.02100
O 	O 	0.50510 0.91570 0.09290 -0.66800
O 	O 	0.74120 0.91710 0.07052 -0.61800
O 	O 	0.50520 0.79170 0.13530 -0.64200
C 	C 	0.60240 0.93010 0.06770 0.55000
C 	C 	0.54950 0.96590 0.03281 -0.15100
C 	C 	0.65340 0.98600 0.00480 0.00400
C 	C 	0.60260 0.01950 0.97230 0.01800
C 	C 	0.48940 0.65850 0.13170 0.00200
H 	H 	0.76000 0.97740 0.00830 0.04600
H 	H 	0.67690 0.03420 0.95310 0.02800
H 	H 	0.39510 0.68180 0.13600 0.02800
C 	C 	0.48940 0.59130 0.13150 0.00200
H 	H 	0.39460 0.56780 0.13500 0.02100
O 	O 	0.00510 0.41570 0.09290 -0.66800
O 	O 	0.24120 0.41710 0.07052 -0.61600
O 	O 	0.00520 0.29170 0.13530 -0.64200
C 	C 	0.10240 0.43010 0.06770 0.54900
C 	C 	0.04950 0.46590 0.03281 -0.15000
C 	C 	0.15340 0.48600 0.00480 0.00600
C 	C 	0.10260 0.51950 0.97230 0.01400
C 	C 	0.98940 0.15850 0.13170 0.00100
H 	H 	0.26000 0.47740 0.00830 0.04600
H 	H 	0.17690 0.53420 0.95310 0.02900
H 	H 	0.89510 0.18180 0.13600 0.02800
C 	C 	0.98940 0.09130 0.13150 0.00200
H 	H 	0.89460 0.06780 0.13500 0.02100
O 	O 	0.00510 0.91570 0.59290 -0.66600
O 	O 	0.24120 0.91710 0.57052 -0.61600
O 	O 	0.00520 0.79170 0.63530 -0.64100
C 	C 	0.10240 0.93010 0.56770 0.54900
C 	C 	0.04950 0.96590 0.53281 -0.14700
C 	C 	0.15340 0.98600 0.50480 0.00900
C 	C 	0.10260 0.01950 0.47230 0.00900
C 	C 	0.98940 0.65850 0.63170 0.00100
H 	H 	0.26000 0.97740 0.50830 0.04500
H 	H 	0.17690 0.03420 0.45310 0.03000
H 	H 	0.89510 0.68180 0.63600 0.02800
C 	C 	0.98940 0.59130 0.63150 0.00100
H 	H 	0.89460 0.56780 0.63500 0.02100
O 	O 	0.50510 0.33430 0.15710 -0.66800
O 	O 	0.74120 0.33290 0.17948 -0.61700
O 	O 	0.50520 0.45830 0.11470 -0.64200
C 	C 	0.60240 0.31990 0.18230 0.55000
C 	C 	0.54950 0.28410 0.21719 -0.15100
C 	C 	0.65340 0.26400 0.24520 0.00500
C 	C 	0.60260 0.23050 0.27770 0.01700
C 	C 	0.48940 0.59150 0.11830 0.00200
H 	H 	0.76000 0.27260 0.24170 0.04600
H 	H 	0.67690 0.21580 0.29690 0.02900
H 	H 	0.39510 0.56820 0.11400 0.02800
C 	C 	0.48940 0.65870 0.11850 0.00200
H 	H 	0.39460 0.68220 0.11500 0.02100
O 	O 	0.50510 0.83430 0.65710 -0.66800
O 	O 	0.74120 0.83290 0.67948 -0.61700
O 	O 	0.50520 0.95830 0.61470 -0.64200
C 	C 	0.60240 0.81990 0.68230 0.55000
C 	C 	0.54950 0.78410 0.71719 -0.15100
C 	C 	0.65340 0.76400 0.74520 0.00600
C 	C 	0.60260 0.73050 0.77770 0.01600
C 	C 	0.48940 0.09150 0.61830 0.00200
H 	H 	0.76000 0.77260 0.74170 0.04600
H 	H 	0.67690 0.71580 0.79690 0.02800
H 	H 	0.39510 0.06820 0.61400 0.02800
C 	C 	0.48940 0.15870 0.61850 0.00200
H 	H 	0.39460 0.18220 0.61500 0.02100
O 	O 	0.00510 0.33430 0.65710 -0.66900
O 	O 	0.24120 0.33290 0.67948 -0.61700
O 	O 	0.00520 0.45830 0.61470 -0.64200
C 	C 	0.10240 0.31990 0.68230 0.55100
C 	C 	0.04950 0.28410 0.71719 -0.15500
C 	C 	0.15340 0.26400 0.74520 0.00900
C 	C 	0.10260 0.23050 0.77770 0.01000
C 	C 	0.98940 0.59150 0.61830 0.00100
H 	H 	0.26000 0.27260 0.74170 0.04500
H 	H 	0.17690 0.21580 0.79690 0.03000
H 	H 	0.89510 0.56820 0.61400 0.02800
C 	C 	0.98940 0.65870 0.61850 0.00100
H 	H 	0.89460 0.68220 0.61500 0.02100
O 	O 	0.00510 0.83430 0.15710 -0.66600
O 	O 	0.24120 0.83290 0.17948 -0.61600
O 	O 	0.00520 0.95830 0.11470 -0.64100
C 	C 	0.10240 0.81990 0.18230 0.54800
C 	C 	0.04950 0.78410 0.21719 -0.14500
C 	C 	0.15340 0.76400 0.24520 0.00200
C 	C 	0.10260 0.73050 0.27770 0.02100
C 	C 	0.98940 0.09150 0.11830 0.00300
H 	H 	0.26000 0.77260 0.24170 0.04700
H 	H 	0.17690 0.71580 0.29690 0.02700
H 	H 	0.89510 0.06820 0.11400 0.02800
C 	C 	0.98940 0.15870 0.11850 0.00100
H 	H 	0.89460 0.18220 0.11500 0.02100
O 	O 	0.24490 0.41570 0.15710 -0.66800
O 	O 	0.00880 0.41710 0.17948 -0.61600
O 	O 	0.24480 0.29170 0.11470 -0.64200
C 	C 	0.14760 0.43010 0.18230 0.55000
C 	C 	0.20050 0.46590 0.21719 -0.15100
C 	C 	0.09660 0.48600 0.24520 0.00700
C 	C 	0.14740 0.51950 0.27770 0.01600
C 	C 	0.26060 0.15850 0.11830 0.00100
H 	H 	0.99000 0.47740 0.24170 0.04500
H 	H 	0.07310 0.53420 0.29690 0.02900
H 	H 	0.35490 0.18180 0.11400 0.02800
C 	C 	0.26060 0.09130 0.11850 0.00200
H 	H 	0.35540 0.06780 0.11500 0.02000
O 	O 	0.24490 0.91570 0.65710 -0.66900
O 	O 	0.00880 0.91710 0.67948 -0.61600
O 	O 	0.24480 0.79170 0.61470 -0.64200
C 	C 	0.14760 0.93010 0.68230 0.55200
C 	C 	0.20050 0.96590 0.71719 -0.15700
C 	C 	0.09660 0.98600 0.74520 0.01800
C 	C 	0.14740 0.01950 0.77770 0.00700
C 	C 	0.26060 0.65850 0.61830 0.00100
H 	H 	0.99000 0.97740 0.74170 0.04000
H 	H 	0.07310 0.03420 0.79690 0.03000
H 	H 	0.35490 0.68180 0.61400 0.02800
C 	C 	0.26060 0.59130 0.61850 0.00200
H 	H 	0.35540 0.56780 0.61500 0.02100
O 	O 	0.74490 0.41570 0.65710 -0.66800
O 	O 	0.50880 0.41710 0.67948 -0.61600
O 	O 	0.74480 0.29170 0.61470 -0.64200
C 	C 	0.64760 0.43010 0.68230 0.55000
C 	C 	0.70050 0.46590 0.71719 -0.15100
C 	C 	0.59660 0.48600 0.74520 0.00500
C 	C 	0.64740 0.51950 0.77770 0.01700
C 	C 	0.76060 0.15850 0.61830 0.00200
H 	H 	0.49000 0.47740 0.74170 0.04600
H 	H 	0.57310 0.53420 0.79690 0.02800
H 	H 	0.85490 0.18180 0.61400 0.02800
C 	C 	0.76060 0.09130 0.61850 0.00100
H 	H 	0.85540 0.06780 0.61500 0.02100
O 	O 	0.74490 0.91570 0.15710 -0.66900
O 	O 	0.50880 0.91710 0.17948 -0.61600
O 	O 	0.74480 0.79170 0.11470 -0.64300
C 	C 	0.64760 0.93010 0.18230 0.54800
C 	C 	0.70050 0.96590 0.21719 -0.14600
C 	C 	0.59660 0.98600 0.24520 -0.00000
C 	C 	0.64740 0.01950 0.27770 0.02200
C 	C 	0.76060 0.65850 0.11830 0.00200
H 	H 	0.49000 0.97740 0.24170 0.04800
H 	H 	0.57310 0.03420 0.29690 0.02700
H 	H 	0.85490 0.68180 0.11400 0.02700
C 	C 	0.76060 0.59130 0.11850 0.00200
H 	H 	0.85540 0.56780 0.11500 0.02000
O 	O 	0.75510 0.66570 0.40710 -0.66800
O 	O 	0.99120 0.66710 0.42948 -0.61700
O 	O 	0.75520 0.54170 0.36470 -0.64200
C 	C 	0.85240 0.68010 0.43230 0.54900
C 	C 	0.79950 0.71590 0.46719 -0.14900
C 	C 	0.90340 0.73600 0.49520 0.00200
C 	C 	0.85260 0.76950 0.52770 0.01800
C 	C 	0.73940 0.40850 0.36830 0.00200
H 	H 	0.01000 0.72740 0.49170 0.04800
H 	H 	0.92690 0.78420 0.54690 0.02700
H 	H 	0.64510 0.43180 0.36400 0.02800
C 	C 	0.73940 0.34130 0.36850 0.00100
H 	H 	0.64460 0.31780 0.36500 0.02100
O 	O 	0.75510 0.16570 0.90710 -0.66800
O 	O 	0.99120 0.16710 0.92948 -0.61500
O 	O 	0.75520 0.04170 0.86470 -0.64200
C 	C 	0.85240 0.18010 0.93230 0.55100
C 	C 	0.79950 0.21590 0.96719 -0.15400
C 	C 	0.90340 0.23600 0.99520 0.01300
C 	C 	0.85260 0.26950 0.02770 0.01100
C 	C 	0.73940 0.90850 0.86830 0.00200
H 	H 	0.01000 0.22740 0.99170 0.04200
H 	H 	0.92690 0.28420 0.04690 0.03000
H 	H 	0.64510 0.93180 0.86400 0.02800
C 	C 	0.73940 0.84130 0.86850 0.00100
H 	H 	0.64460 0.81780 0.86500 0.02100
O 	O 	0.25510 0.66570 0.90710 -0.66800
O 	O 	0.49120 0.66710 0.92948 -0.61600
O 	O 	0.25520 0.54170 0.86470 -0.64200
C 	C 	0.35240 0.68010 0.93230 0.54900
C 	C 	0.29950 0.71590 0.96719 -0.14800
C 	C 	0.40340 0.73600 0.99520 0.00300
C 	C 	0.35260 0.76950 0.02770 0.01900
C 	C 	0.23940 0.40850 0.86830 0.00200
H 	H 	0.51000 0.72740 0.99170 0.04700
H 	H 	0.42690 0.78420 0.04690 0.02800
H 	H 	0.14510 0.43180 0.86400 0.02800
C 	C 	0.23940 0.34130 0.86850 0.00200
H 	H 	0.14460 0.31780 0.86500 0.02000
O 	O 	0.25510 0.16570 0.40710 -0.66900
O 	O 	0.49120 0.16710 0.42948 -0.61700
O 	O 	0.25520 0.04170 0.36470 -0.64300
C 	C 	0.35240 0.18010 0.43230 0.55000
C 	C 	0.29950 0.21590 0.46719 -0.15200
C 	C 	0.40340 0.23600 0.49520 0.00700
C 	C 	0.35260 0.26950 0.52770 0.01500
C 	C 	0.23940 0.90850 0.36830 0.00200
H 	H 	0.51000 0.22740 0.49170 0.04600
H 	H 	0.42690 0.28420 0.54690 0.02900
H 	H 	0.14510 0.93180 0.36400 0.02800
C 	C 	0.23940 0.84130 0.36850 0.00200
H 	H 	0.14460 0.81780 0.36500 0.02100
O 	O 	0.49490 0.58430 0.40710 -0.66800
O 	O 	0.25880 0.58290 0.42948 -0.61700
O 	O 	0.49480 0.70830 0.36470 -0.64200
C 	C 	0.39760 0.56990 0.43230 0.55000
C 	C 	0.45050 0.53410 0.46719 -0.15100
C 	C 	0.34660 0.51400 0.49520 0.00600
C 	C 	0.39740 0.48050 0.52770 0.01600
C 	C 	0.51060 0.84150 0.36830 0.00200
H 	H 	0.24000 0.52260 0.49170 0.04600
H 	H 	0.32310 0.46580 0.54690 0.02900
H 	H 	0.60490 0.81820 0.36400 0.02800
C 	C 	0.51060 0.90870 0.36850 0.00100
H 	H 	0.60540 0.93220 0.36500 0.02100
O 	O 	0.49490 0.08430 0.90710 -0.66800
O 	O 	0.25880 0.08290 0.92948 -0.61800
O 	O 	0.49480 0.20830 0.86470 -0.64200
C 	C 	0.39760 0.06990 0.93230 0.55000
C 	C 	0.45050 0.03410 0.96719 -0.15100
C 	C 	0.34660 0.01400 0.99520 0.00400
C 	C 	0.39740 0.98050 0.02770 0.01800
C 	C 	0.51060 0.34150 0.86830 0.00200
H 	H 	0.24000 0.02260 0.99170 0.04600
H 	H 	0.32310 0.96580 0.04690 0.02800
H 	H 	0.60490 0.31820 0.86400 0.02800
C 	C 	0.51060 0.40870 0.86850 0.00200
H 	H 	0.60540 0.43220 0.86500 0.02100
O 	O 	0.99490 0.58430 0.90710 -0.66800
O 	O 	0.75880 0.58290 0.92948 -0.61600
O 	O 	0.99480 0.70830 0.86470 -0.64200
C 	C 	0.89760 0.56990 0.93230 0.54900
C 	C 	0.95050 0.53410 0.96719 -0.15000
C 	C 	0.84660 0.51400 0.99520 0.00600
C 	C 	0.89740 0.48050 0.02770 0.01400
C 	C 	0.01060 0.84150 0.86830 0.00100
H 	H 	0.74000 0.52260 0.99170 0.04600
H 	H 	0.82310 0.46580 0.04690 0.02900
H 	H 	0.10490 0.81820 0.86400 0.02800
C 	C 	0.01060 0.90870 0.86850 0.00200
H 	H 	0.10540 0.93220 0.86500 0.02100
O 	O 	0.99490 0.08430 0.40710 -0.66600
O 	O 	0.75880 0.08290 0.42948 -0.61600
O 	O 	0.99480 0.20830 0.36470 -0.64100
C 	C 	0.89760 0.06990 0.43230 0.54900
C 	C 	0.95050 0.03410 0.46719 -0.14700
C 	C 	0.84660 0.01400 0.49520 0.00900
C 	C 	0.89740 0.98050 0.52770 0.00900
C 	C 	0.01060 0.34150 0.36830 0.00100
H 	H 	0.74000 0.02260 0.49170 0.04500
H 	H 	0.82310 0.96580 0.54690 0.03000
H 	H 	0.10490 0.31820 0.36400 0.02800
C 	C 	0.01060 0.40870 0.36850 0.00100
H 	H 	0.10540 0.43220 0.36500 0.02100
O 	O 	0.49490 0.66570 0.84290 -0.66800
O 	O 	0.25880 0.66710 0.82052 -0.61700
O 	O 	0.49480 0.54170 0.88530 -0.64200
C 	C 	0.39760 0.68010 0.81770 0.55000
C 	C 	0.45050 0.71590 0.78281 -0.15100
C 	C 	0.34660 0.73600 0.75480 0.00500
C 	C 	0.39740 0.76950 0.72230 0.01700
C 	C 	0.51060 0.40850 0.88170 0.00200
H 	H 	0.24000 0.72740 0.75830 0.04600
H 	H 	0.32310 0.78420 0.70310 0.02900
H 	H 	0.60490 0.43180 0.88600 0.02800
C 	C 	0.51060 0.34130 0.88150 0.00200
H 	H 	0.60540 0.31780 0.88500 0.02100
O 	O 	0.49490 0.16570 0.34290 -0.66800
O 	O 	0.25880 0.16710 0.32052 -0.61700
O 	O 	0.49480 0.04170 0.38530 -0.64200
C 	C 	0.39760 0.18010 0.31770 0.55000
C 	C 	0.45050 0.21590 0.28281 -0.15100
C 	C 	0.34660 0.23600 0.25480 0.00600
C 	C 	0.39740 0.26950 0.22230 0.01600
C 	C 	0.51060 0.90850 0.38170 0.00200
H 	H 	0.24000 0.22740 0.25830 0.04600
H 	H 	0.32310 0.28420 0.20310 0.02800
H 	H 	0.60490 0.93180 0.38600 0.02800
C 	C 	0.51060 0.84130 0.38150 0.00200
H 	H 	0.60540 0.81780 0.38500 0.02100
O 	O 	0.99490 0.66570 0.34290 -0.66900
O 	O 	0.75880 0.66710 0.32052 -0.61700
O 	O 	0.99480 0.54170 0.38530 -0.64200
C 	C 	0.89760 0.68010 0.31770 0.55100
C 	C 	0.95050 0.71590 0.28281 -0.15500
C 	C 	0.84660 0.73600 0.25480 0.00900
C 	C 	0.89740 0.76950 0.22230 0.01000
C 	C 	0.01060 0.40850 0.38170 0.00100
H 	H 	0.74000 0.72740 0.25830 0.04500
H 	H 	0.82310 0.78420 0.20310 0.03000
H 	H 	0.10490 0.43180 0.38600 0.02800
C 	C 	0.01060 0.34130 0.38150 0.00100
H 	H 	0.10540 0.31780 0.38500 0.02100
O 	O 	0.99490 0.16570 0.84290 -0.66600
O 	O 	0.75880 0.16710 0.82052 -0.61600
O 	O 	0.99480 0.04170 0.88530 -0.64100
C 	C 	0.89760 0.18010 0.81770 0.54800
C 	C 	0.95050 0.21590 0.78281 -0.14500
C 	C 	0.84660 0.23600 0.75480 0.00200
C 	C 	0.89740 0.26950 0.72230 0.02100
C 	C 	0.01060 0.90850 0.88170 0.00300
H 	H 	0.74000 0.22740 0.75830 0.04700
H 	H 	0.82310 0.28420 0.70310 0.02700
H 	H 	0.10490 0.93180 0.88600 0.02800
C 	C 	0.01060 0.84130 0.88150 0.00100
H 	H 	0.10540 0.81780 0.88500 0.02100
O 	O 	0.75510 0.58430 0.84290 -0.66800
O 	O 	0.99120 0.58290 0.82052 -0.61600
O 	O 	0.75520 0.70830 0.88530 -0.64200
C 	C 	0.85240 0.56990 0.81770 0.55000
C 	C 	0.79950 0.53410 0.78281 -0.15100
C 	C 	0.90340 0.51400 0.75480 0.00700
C 	C 	0.85260 0.48050 0.72230 0.01600
C 	C 	0.73940 0.84150 0.88170 0.00100
H 	H 	0.01000 0.52260 0.75830 0.04500
H 	H 	0.92690 0.46580 0.70310 0.02900
H 	H 	0.64510 0.81820 0.88600 0.02800
C 	C 	0.73940 0.90870 0.88150 0.00200
H 	H 	0.64460 0.93220 0.88500 0.02000
O 	O 	0.75510 0.08430 0.34290 -0.66900
O 	O 	0.99120 0.08290 0.32052 -0.61600
O 	O 	0.75520 0.20830 0.38530 -0.64200
C 	C 	0.85240 0.06990 0.31770 0.55200
C 	C 	0.79950 0.03410 0.28281 -0.15700
C 	C 	0.90340 0.01400 0.25480 0.01800
C 	C 	0.85260 0.98050 0.22230 0.00700
C 	C 	0.73940 0.34150 0.38170 0.00100
H 	H 	0.01000 0.02260 0.25830 0.04000
H 	H 	0.92690 0.96580 0.20310 0.03000
H 	H 	0.64510 0.31820 0.38600 0.02800
C 	C 	0.73940 0.40870 0.38150 0.00200
H 	H 	0.64460 0.43220 0.38500 0.02100
O 	O 	0.25510 0.58430 0.34290 -0.66800
O 	O 	0.49120 0.58290 0.32052 -0.61600
O 	O 	0.25520 0.70830 0.38530 -0.64200
C 	C 	0.35240 0.56990 0.31770 0.55000
C 	C 	0.29950 0.53410 0.28281 -0.15100
C 	C 	0.40340 0.51400 0.25480 0.00500
C 	C 	0.35260 0.48050 0.22230 0.01700
C 	C 	0.23940 0.84150 0.38170 0.00200
H 	H 	0.51000 0.52260 0.25830 0.04600
H 	H 	0.42690 0.46580 0.20310 0.02800
H 	H 	0.14510 0.81820 0.38600 0.02800
C 	C 	0.23940 0.90870 0.38150 0.00100
H 	H 	0.14460 0.93220 0.38500 0.02100
O 	O 	0.25510 0.08430 0.84290 -0.66900
O 	O 	0.49120 0.08290 0.82052 -0.61600
O 	O 	0.25520 0.20830 0.88530 -0.64300
C 	C 	0.35240 0.06990 0.81770 0.54800
C 	C 	0.29950 0.03410 0.78281 -0.14600
C 	C 	0.40340 0.01400 0.75480 -0.00000
C 	C 	0.35260 0.98050 0.72230 0.02200
C 	C 	0.23940 0.34150 0.88170 0.00200
H 	H 	0.51000 0.02260 0.75830 0.04800
H 	H 	0.42690 0.96580 0.70310 0.02700
H 	H 	0.14510 0.31820 0.88600 0.02700
C 	C 	0.23940 0.40870 0.88150 0.00200
H 	H 	0.14460 0.43220 0.88500 0.02000
Sc	Sc	0.37500 0.37500 0.63568 2.35100
Sc	Sc	0.37500 0.87500 0.13568 2.35100
Sc	Sc	0.87500 0.37500 0.13568 2.35100
Sc	Sc	0.87500 0.87500 0.63568 2.35000
Sc	Sc	0.37500 0.37500 0.11432 2.35100
Sc	Sc	0.37500 0.87500 0.61432 2.35100
Sc	Sc	0.87500 0.37500 0.61432 2.35100
Sc	Sc	0.87500 0.87500 0.11432 2.35000
Sc	Sc	0.62500 0.62500 0.36432 2.35100
Sc	Sc	0.62500 0.12500 0.86432 2.35100
Sc	Sc	0.12500 0.62500 0.86432 2.35100
Sc	Sc	0.12500 0.12500 0.36432 2.35000
Sc	Sc	0.62500 0.62500 0.88568 2.35100
Sc	Sc	0.62500 0.12500 0.38568 2.35100
Sc	Sc	0.12500 0.62500 0.38568 2.35100
Sc	Sc	0.12500 0.12500 0.88568 2.35000
C 	C 	0.12500 0.48590 0.62500 0.54900
C 	C 	0.12500 0.55820 0.62500 -0.13900
C 	C 	0.12500 0.98590 0.12500 0.55100
C 	C 	0.12500 0.05820 0.12500 -0.14300
C 	C 	0.62500 0.98590 0.62500 0.54800
C 	C 	0.62500 0.05820 0.62500 -0.13900
C 	C 	0.62500 0.26410 0.62500 0.54900
C 	C 	0.62500 0.19180 0.62500 -0.14000
C 	C 	0.62500 0.76410 0.12500 0.54900
C 	C 	0.62500 0.69180 0.12500 -0.14000
C 	C 	0.62500 0.48590 0.12500 0.54900
C 	C 	0.62500 0.55820 0.12500 -0.14000
C 	C 	0.12500 0.26410 0.12500 0.54900
C 	C 	0.12500 0.19180 0.12500 -0.14000
C 	C 	0.12500 0.76410 0.62500 0.54800
C 	C 	0.12500 0.69180 0.62500 -0.13800
C 	C 	0.87500 0.51410 0.37500 0.54900
C 	C 	0.87500 0.44180 0.37500 -0.13900
C 	C 	0.87500 0.01410 0.87500 0.55100
C 	C 	0.87500 0.94180 0.87500 -0.14300
C 	C 	0.37500 0.73590 0.37500 0.54900
C 	C 	0.37500 0.80820 0.37500 -0.14000
C 	C 	0.37500 0.23590 0.87500 0.54900
C 	C 	0.37500 0.30820 0.87500 -0.14000
C 	C 	0.37500 0.51410 0.87500 0.54900
C 	C 	0.37500 0.44180 0.87500 -0.14000
C 	C 	0.37500 0.01410 0.37500 0.54800
C 	C 	0.37500 0.94180 0.37500 -0.13900
C 	C 	0.87500 0.73590 0.87500 0.54900
C 	C 	0.87500 0.80820 0.87500 -0.14000
C 	C 	0.87500 0.23590 0.37500 0.54800
C 	C 	0.87500 0.30820 0.37500 -0.13800
