data_crystal

_cell_length_a 8.73730
_cell_length_b 20.69100
_cell_length_c 34.12400
_cell_angle_alpha 90.00000
_cell_angle_beta  90.00000
_cell_angle_gamma 90.00000

_symmetry_space_group_name_	'P 1'
_symmetry_space_group_name_H-M	'P 1'

loop_
_symmetry_equiv_pos_as_xyz
  x,y,z

loop_
_atom_site_label
_atom_site_type_symbol
_atom_site_fract_x
_atom_site_fract_y
_atom_site_fract_z
_atom_site_charge
O 	O 	0.24420 0.33520 0.59300 -0.66400
O 	O 	0.00700 0.33340 0.57040 -0.60800
O 	O 	0.24690 0.45740 0.63630 -0.64400
C 	C 	0.14800 0.31980 0.56730 0.53700
C 	C 	0.20010 0.28450 0.53280 -0.15400
C 	C 	0.09560 0.26360 0.50510 0.00300
C 	C 	0.14610 0.22910 0.47260 0.01500
C 	C 	0.25040 0.59130 0.63960 -0.00300
C 	C 	0.25030 0.65860 0.63960 -0.01200
H 	H 	0.98970 0.27270 0.50830 0.04700
H 	H 	0.07380 0.21460 0.45370 0.02700
H 	H 	0.32800 0.56860 0.65340 0.04200
H 	H 	0.32790 0.68120 0.65340 0.03700
O 	O 	0.24420 0.83520 0.09300 -0.66500
O 	O 	0.00700 0.83340 0.07040 -0.60700
O 	O 	0.24690 0.95740 0.13630 -0.64500
C 	C 	0.14800 0.81980 0.06730 0.53900
C 	C 	0.20010 0.78450 0.03280 -0.15900
C 	C 	0.09560 0.76360 0.00510 0.01600
C 	C 	0.14610 0.72910 0.97260 0.00700
C 	C 	0.25040 0.09130 0.13960 -0.00200
C 	C 	0.25030 0.15860 0.13960 -0.01200
H 	H 	0.98970 0.77270 0.00830 0.04000
H 	H 	0.07380 0.71460 0.95370 0.03000
H 	H 	0.32800 0.06860 0.15340 0.04200
H 	H 	0.32790 0.18120 0.15340 0.03700
O 	O 	0.74420 0.33520 0.09300 -0.66400
O 	O 	0.50700 0.33340 0.07040 -0.60800
O 	O 	0.74690 0.45740 0.13630 -0.64500
C 	C 	0.64800 0.31980 0.06730 0.53600
C 	C 	0.70010 0.28450 0.03280 -0.15200
C 	C 	0.59560 0.26360 0.00510 0.00400
C 	C 	0.64610 0.22910 0.97260 0.01600
C 	C 	0.75040 0.59130 0.13960 -0.00300
C 	C 	0.75030 0.65860 0.13960 -0.01200
H 	H 	0.48970 0.27270 0.00830 0.04600
H 	H 	0.57380 0.21460 0.95370 0.02700
H 	H 	0.82800 0.56860 0.15340 0.04200
H 	H 	0.82790 0.68120 0.15340 0.03700
O 	O 	0.74420 0.83520 0.59300 -0.66500
O 	O 	0.50700 0.83340 0.57040 -0.60800
O 	O 	0.74690 0.95740 0.63630 -0.64500
C 	C 	0.64800 0.81980 0.56730 0.53800
C 	C 	0.70010 0.78450 0.53280 -0.15700
C 	C 	0.59560 0.76360 0.50510 0.00800
C 	C 	0.64610 0.72910 0.47260 0.01200
C 	C 	0.75040 0.09130 0.63960 -0.00300
C 	C 	0.75030 0.15860 0.63960 -0.01200
H 	H 	0.48970 0.77270 0.50830 0.04400
H 	H 	0.57380 0.71460 0.45370 0.02900
H 	H 	0.82800 0.06860 0.65340 0.04300
H 	H 	0.82790 0.18120 0.65340 0.03700
O 	O 	0.50580 0.41480 0.59300 -0.66500
O 	O 	0.74300 0.41660 0.57040 -0.60800
O 	O 	0.50310 0.29260 0.63630 -0.64400
C 	C 	0.60200 0.43020 0.56730 0.53700
C 	C 	0.54990 0.46550 0.53280 -0.15600
C 	C 	0.65440 0.48640 0.50510 0.00700
C 	C 	0.60390 0.52090 0.47260 0.01300
C 	C 	0.49960 0.15870 0.63960 -0.00300
C 	C 	0.49970 0.09140 0.63960 -0.01200
H 	H 	0.76030 0.47730 0.50830 0.04500
H 	H 	0.67620 0.53540 0.45370 0.02800
H 	H 	0.42200 0.18140 0.65340 0.04200
H 	H 	0.42210 0.06880 0.65340 0.03700
O 	O 	0.50580 0.91480 0.09300 -0.66500
O 	O 	0.74300 0.91660 0.07040 -0.60900
O 	O 	0.50310 0.79260 0.13630 -0.64400
C 	C 	0.60200 0.93020 0.06730 0.53800
C 	C 	0.54990 0.96550 0.03280 -0.15600
C 	C 	0.65440 0.98640 0.00510 0.00600
C 	C 	0.60390 0.02090 0.97260 0.01400
C 	C 	0.49960 0.65870 0.13960 -0.00300
C 	C 	0.49970 0.59140 0.13960 -0.01200
H 	H 	0.76030 0.97730 0.00830 0.04400
H 	H 	0.67620 0.03540 0.95370 0.02800
H 	H 	0.42200 0.68140 0.15340 0.04200
H 	H 	0.42210 0.56880 0.15340 0.03700
O 	O 	0.00580 0.41480 0.09300 -0.66400
O 	O 	0.24300 0.41660 0.07040 -0.60800
O 	O 	0.00310 0.29260 0.13630 -0.64400
C 	C 	0.10200 0.43020 0.06730 0.53700
C 	C 	0.04990 0.46550 0.03280 -0.15400
C 	C 	0.15440 0.48640 0.00510 0.00800
C 	C 	0.10390 0.52090 0.97260 0.01100
C 	C 	0.99960 0.15870 0.13960 -0.00400
C 	C 	0.99970 0.09140 0.13960 -0.01100
H 	H 	0.26030 0.47730 0.00830 0.04500
H 	H 	0.17620 0.53540 0.95370 0.02900
H 	H 	0.92200 0.18140 0.15340 0.04200
H 	H 	0.92210 0.06880 0.15340 0.03700
O 	O 	0.00580 0.91480 0.59300 -0.66300
O 	O 	0.24300 0.91660 0.57040 -0.60800
O 	O 	0.00310 0.79260 0.63630 -0.64300
C 	C 	0.10200 0.93020 0.56730 0.53600
C 	C 	0.04990 0.96550 0.53280 -0.15200
C 	C 	0.15440 0.98640 0.50510 0.01100
C 	C 	0.10390 0.02090 0.47260 0.00600
C 	C 	0.99960 0.65870 0.63960 -0.00500
C 	C 	0.99970 0.59140 0.63960 -0.01200
H 	H 	0.26030 0.97730 0.50830 0.04400
H 	H 	0.17620 0.03540 0.45370 0.03000
H 	H 	0.92200 0.68140 0.65340 0.04200
H 	H 	0.92210 0.56880 0.65340 0.03700
O 	O 	0.50580 0.33520 0.15700 -0.66500
O 	O 	0.74300 0.33340 0.17960 -0.60800
O 	O 	0.50310 0.45740 0.11370 -0.64400
C 	C 	0.60200 0.31980 0.18270 0.53700
C 	C 	0.54990 0.28450 0.21720 -0.15500
C 	C 	0.65440 0.26360 0.24490 0.00700
C 	C 	0.60390 0.22910 0.27740 0.01300
C 	C 	0.49960 0.59130 0.11040 -0.00300
C 	C 	0.49970 0.65860 0.11040 -0.01200
H 	H 	0.76030 0.27270 0.24170 0.04500
H 	H 	0.67620 0.21460 0.29630 0.02800
H 	H 	0.42200 0.56860 0.09660 0.04200
H 	H 	0.42210 0.68120 0.09660 0.03700
O 	O 	0.50580 0.83520 0.65700 -0.66500
O 	O 	0.74300 0.83340 0.67960 -0.60900
O 	O 	0.50310 0.95740 0.61370 -0.64400
C 	C 	0.60200 0.81980 0.68270 0.53800
C 	C 	0.54990 0.78450 0.71720 -0.15600
C 	C 	0.65440 0.76360 0.74490 0.00700
C 	C 	0.60390 0.72910 0.77740 0.01300
C 	C 	0.49960 0.09130 0.61040 -0.00300
C 	C 	0.49970 0.15860 0.61040 -0.01200
H 	H 	0.76030 0.77270 0.74170 0.04400
H 	H 	0.67620 0.71460 0.79630 0.02800
H 	H 	0.42200 0.06860 0.59660 0.04200
H 	H 	0.42210 0.18120 0.59660 0.03700
O 	O 	0.00580 0.33520 0.65700 -0.66500
O 	O 	0.24300 0.33340 0.67960 -0.60900
O 	O 	0.00310 0.45740 0.61370 -0.64400
C 	C 	0.10200 0.31980 0.68270 0.53900
C 	C 	0.04990 0.28450 0.71720 -0.16000
C 	C 	0.15440 0.26360 0.74490 0.01100
C 	C 	0.10390 0.22910 0.77740 0.00600
C 	C 	0.99960 0.59130 0.61040 -0.00400
C 	C 	0.99970 0.65860 0.61040 -0.01300
H 	H 	0.26030 0.27270 0.74170 0.04300
H 	H 	0.17620 0.21460 0.79630 0.03000
H 	H 	0.92200 0.56860 0.59660 0.04200
H 	H 	0.92210 0.68120 0.59660 0.03700
O 	O 	0.00580 0.83520 0.15700 -0.66300
O 	O 	0.24300 0.83340 0.17960 -0.60800
O 	O 	0.00310 0.95740 0.11370 -0.64300
C 	C 	0.10200 0.81980 0.18270 0.53600
C 	C 	0.04990 0.78450 0.21720 -0.15000
C 	C 	0.15440 0.76360 0.24490 0.00300
C 	C 	0.10390 0.72910 0.27740 0.01800
C 	C 	0.99960 0.09130 0.11040 -0.00200
C 	C 	0.99970 0.15860 0.11040 -0.01200
H 	H 	0.26030 0.77270 0.24170 0.04600
H 	H 	0.17620 0.71460 0.29630 0.02700
H 	H 	0.92200 0.06860 0.09660 0.04200
H 	H 	0.92210 0.18120 0.09660 0.03700
O 	O 	0.24420 0.41480 0.15700 -0.66500
O 	O 	0.00700 0.41660 0.17960 -0.60800
O 	O 	0.24690 0.29260 0.11370 -0.64400
C 	C 	0.14800 0.43020 0.18270 0.53800
C 	C 	0.20010 0.46550 0.21720 -0.15600
C 	C 	0.09560 0.48640 0.24490 0.00800
C 	C 	0.14610 0.52090 0.27740 0.01200
C 	C 	0.25040 0.15870 0.11040 -0.00400
C 	C 	0.25030 0.09140 0.11040 -0.01100
H 	H 	0.98970 0.47730 0.24170 0.04400
H 	H 	0.07380 0.53540 0.29630 0.02900
H 	H 	0.32800 0.18140 0.09660 0.04200
H 	H 	0.32790 0.06880 0.09660 0.03700
O 	O 	0.24420 0.91480 0.65700 -0.66500
O 	O 	0.00700 0.91660 0.67960 -0.60800
O 	O 	0.24690 0.79260 0.61370 -0.64400
C 	C 	0.14800 0.93020 0.68270 0.54000
C 	C 	0.20010 0.96550 0.71720 -0.16200
C 	C 	0.09560 0.98640 0.74490 0.02000
C 	C 	0.14610 0.02090 0.77740 0.00300
C 	C 	0.25040 0.65870 0.61040 -0.00400
C 	C 	0.25030 0.59140 0.61040 -0.01200
H 	H 	0.98970 0.97730 0.74170 0.03800
H 	H 	0.07380 0.03540 0.79630 0.03100
H 	H 	0.32800 0.68140 0.59660 0.04200
H 	H 	0.32790 0.56880 0.59660 0.03700
O 	O 	0.74420 0.41480 0.65700 -0.66500
O 	O 	0.50700 0.41660 0.67960 -0.60800
O 	O 	0.74690 0.29260 0.61370 -0.64400
C 	C 	0.64800 0.43020 0.68270 0.53700
C 	C 	0.70010 0.46550 0.71720 -0.15500
C 	C 	0.59560 0.48640 0.74490 0.00700
C 	C 	0.64610 0.52090 0.77740 0.01300
C 	C 	0.75040 0.15870 0.61040 -0.00300
C 	C 	0.75030 0.09140 0.61040 -0.01200
H 	H 	0.48970 0.47730 0.74170 0.04500
H 	H 	0.57380 0.53540 0.79630 0.02800
H 	H 	0.82800 0.18140 0.59660 0.04200
H 	H 	0.82790 0.06880 0.59660 0.03800
O 	O 	0.74420 0.91480 0.15700 -0.66500
O 	O 	0.50700 0.91660 0.17960 -0.60800
O 	O 	0.74690 0.79260 0.11370 -0.64500
C 	C 	0.64800 0.93020 0.18270 0.53500
C 	C 	0.70010 0.96550 0.21720 -0.15000
C 	C 	0.59560 0.98640 0.24490 0.00000
C 	C 	0.64610 0.02090 0.27740 0.02000
C 	C 	0.75040 0.65870 0.11040 -0.00300
C 	C 	0.75030 0.59140 0.11040 -0.01200
H 	H 	0.48970 0.97730 0.24170 0.04700
H 	H 	0.57380 0.03540 0.29630 0.02600
H 	H 	0.82800 0.68140 0.09660 0.04200
H 	H 	0.82790 0.56880 0.09660 0.03700
O 	O 	0.75580 0.66480 0.40700 -0.66400
O 	O 	0.99300 0.66660 0.42960 -0.60800
O 	O 	0.75310 0.54260 0.36370 -0.64400
C 	C 	0.85200 0.68020 0.43270 0.53700
C 	C 	0.79990 0.71550 0.46720 -0.15400
C 	C 	0.90440 0.73640 0.49490 0.00300
C 	C 	0.85390 0.77090 0.52740 0.01500
C 	C 	0.74960 0.40870 0.36040 -0.00300
C 	C 	0.74970 0.34140 0.36040 -0.01200
H 	H 	0.01030 0.72730 0.49170 0.04700
H 	H 	0.92620 0.78540 0.54630 0.02700
H 	H 	0.67200 0.43140 0.34660 0.04200
H 	H 	0.67210 0.31880 0.34660 0.03700
O 	O 	0.75580 0.16480 0.90700 -0.66500
O 	O 	0.99300 0.16660 0.92960 -0.60700
O 	O 	0.75310 0.04260 0.86370 -0.64500
C 	C 	0.85200 0.18020 0.93270 0.53900
C 	C 	0.79990 0.21550 0.96720 -0.15900
C 	C 	0.90440 0.23640 0.99490 0.01600
C 	C 	0.85390 0.27090 0.02740 0.00700
C 	C 	0.74960 0.90870 0.86040 -0.00200
C 	C 	0.74970 0.84140 0.86040 -0.01200
H 	H 	0.01030 0.22730 0.99170 0.04000
H 	H 	0.92620 0.28540 0.04630 0.03000
H 	H 	0.67200 0.93140 0.84660 0.04200
H 	H 	0.67210 0.81880 0.84660 0.03700
O 	O 	0.25580 0.66480 0.90700 -0.66400
O 	O 	0.49300 0.66660 0.92960 -0.60800
O 	O 	0.25310 0.54260 0.86370 -0.64500
C 	C 	0.35200 0.68020 0.93270 0.53600
C 	C 	0.29990 0.71550 0.96720 -0.15200
C 	C 	0.40440 0.73640 0.99490 0.00400
C 	C 	0.35390 0.77090 0.02740 0.01600
C 	C 	0.24960 0.40870 0.86040 -0.00300
C 	C 	0.24970 0.34140 0.86040 -0.01200
H 	H 	0.51030 0.72730 0.99170 0.04600
H 	H 	0.42620 0.78540 0.04630 0.02700
H 	H 	0.17200 0.43140 0.84660 0.04200
H 	H 	0.17210 0.31880 0.84660 0.03700
O 	O 	0.25580 0.16480 0.40700 -0.66500
O 	O 	0.49300 0.16660 0.42960 -0.60800
O 	O 	0.25310 0.04260 0.36370 -0.64500
C 	C 	0.35200 0.18020 0.43270 0.53800
C 	C 	0.29990 0.21550 0.46720 -0.15700
C 	C 	0.40440 0.23640 0.49490 0.00800
C 	C 	0.35390 0.27090 0.52740 0.01200
C 	C 	0.24960 0.90870 0.36040 -0.00300
C 	C 	0.24970 0.84140 0.36040 -0.01200
H 	H 	0.51030 0.22730 0.49170 0.04400
H 	H 	0.42620 0.28540 0.54630 0.02900
H 	H 	0.17200 0.93140 0.34660 0.04300
H 	H 	0.17210 0.81880 0.34660 0.03700
O 	O 	0.49420 0.58520 0.40700 -0.66500
O 	O 	0.25700 0.58340 0.42960 -0.60800
O 	O 	0.49690 0.70740 0.36370 -0.64400
C 	C 	0.39800 0.56980 0.43270 0.53700
C 	C 	0.45010 0.53450 0.46720 -0.15600
C 	C 	0.34560 0.51360 0.49490 0.00700
C 	C 	0.39610 0.47910 0.52740 0.01300
C 	C 	0.50040 0.84130 0.36040 -0.00300
C 	C 	0.50030 0.90860 0.36040 -0.01200
H 	H 	0.23970 0.52270 0.49170 0.04500
H 	H 	0.32380 0.46460 0.54630 0.02800
H 	H 	0.57800 0.81860 0.34660 0.04200
H 	H 	0.57790 0.93120 0.34660 0.03700
O 	O 	0.49420 0.08520 0.90700 -0.66500
O 	O 	0.25700 0.08340 0.92960 -0.60900
O 	O 	0.49690 0.20740 0.86370 -0.64400
C 	C 	0.39800 0.06980 0.93270 0.53800
C 	C 	0.45010 0.03450 0.96720 -0.15600
C 	C 	0.34560 0.01360 0.99490 0.00600
C 	C 	0.39610 0.97910 0.02740 0.01400
C 	C 	0.50040 0.34130 0.86040 -0.00300
C 	C 	0.50030 0.40860 0.86040 -0.01200
H 	H 	0.23970 0.02270 0.99170 0.04400
H 	H 	0.32380 0.96460 0.04630 0.02800
H 	H 	0.57800 0.31860 0.84660 0.04200
H 	H 	0.57790 0.43120 0.84660 0.03700
O 	O 	0.99420 0.58520 0.90700 -0.66400
O 	O 	0.75700 0.58340 0.92960 -0.60800
O 	O 	0.99690 0.70740 0.86370 -0.64400
C 	C 	0.89800 0.56980 0.93270 0.53700
C 	C 	0.95010 0.53450 0.96720 -0.15400
C 	C 	0.84560 0.51360 0.99490 0.00800
C 	C 	0.89610 0.47910 0.02740 0.01100
C 	C 	0.00040 0.84130 0.86040 -0.00400
C 	C 	0.00030 0.90860 0.86040 -0.01100
H 	H 	0.73970 0.52270 0.99170 0.04500
H 	H 	0.82380 0.46460 0.04630 0.02900
H 	H 	0.07800 0.81860 0.84660 0.04200
H 	H 	0.07790 0.93120 0.84660 0.03700
O 	O 	0.99420 0.08520 0.40700 -0.66300
O 	O 	0.75700 0.08340 0.42960 -0.60800
O 	O 	0.99690 0.20740 0.36370 -0.64300
C 	C 	0.89800 0.06980 0.43270 0.53600
C 	C 	0.95010 0.03450 0.46720 -0.15200
C 	C 	0.84560 0.01360 0.49490 0.01100
C 	C 	0.89610 0.97910 0.52740 0.00600
C 	C 	0.00040 0.34130 0.36040 -0.00500
C 	C 	0.00030 0.40860 0.36040 -0.01200
H 	H 	0.73970 0.02270 0.49170 0.04400
H 	H 	0.82380 0.96460 0.54630 0.03000
H 	H 	0.07800 0.31860 0.34660 0.04200
H 	H 	0.07790 0.43120 0.34660 0.03700
O 	O 	0.49420 0.66480 0.84300 -0.66500
O 	O 	0.25700 0.66660 0.82040 -0.60800
O 	O 	0.49690 0.54260 0.88630 -0.64400
C 	C 	0.39800 0.68020 0.81730 0.53700
C 	C 	0.45010 0.71550 0.78280 -0.15500
C 	C 	0.34560 0.73640 0.75510 0.00700
C 	C 	0.39610 0.77090 0.72260 0.01300
C 	C 	0.50040 0.40870 0.88960 -0.00300
C 	C 	0.50030 0.34140 0.88960 -0.01200
H 	H 	0.23970 0.72730 0.75830 0.04500
H 	H 	0.32380 0.78540 0.70370 0.02800
H 	H 	0.57800 0.43140 0.90340 0.04200
H 	H 	0.57790 0.31880 0.90340 0.03700
O 	O 	0.49420 0.16480 0.34300 -0.66500
O 	O 	0.25700 0.16660 0.32040 -0.60900
O 	O 	0.49690 0.04260 0.38630 -0.64400
C 	C 	0.39800 0.18020 0.31730 0.53800
C 	C 	0.45010 0.21550 0.28280 -0.15600
C 	C 	0.34560 0.23640 0.25510 0.00700
C 	C 	0.39610 0.27090 0.22260 0.01300
C 	C 	0.50040 0.90870 0.38960 -0.00300
C 	C 	0.50030 0.84140 0.38960 -0.01200
H 	H 	0.23970 0.22730 0.25830 0.04400
H 	H 	0.32380 0.28540 0.20370 0.02800
H 	H 	0.57800 0.93140 0.40340 0.04200
H 	H 	0.57790 0.81880 0.40340 0.03700
O 	O 	0.99420 0.66480 0.34300 -0.66500
O 	O 	0.75700 0.66660 0.32040 -0.60900
O 	O 	0.99690 0.54260 0.38630 -0.64400
C 	C 	0.89800 0.68020 0.31730 0.53900
C 	C 	0.95010 0.71550 0.28280 -0.16000
C 	C 	0.84560 0.73640 0.25510 0.01100
C 	C 	0.89610 0.77090 0.22260 0.00600
C 	C 	0.00040 0.40870 0.38960 -0.00400
C 	C 	0.00030 0.34140 0.38960 -0.01300
H 	H 	0.73970 0.72730 0.25830 0.04300
H 	H 	0.82380 0.78540 0.20370 0.03000
H 	H 	0.07800 0.43140 0.40340 0.04200
H 	H 	0.07790 0.31880 0.40340 0.03700
O 	O 	0.99420 0.16480 0.84300 -0.66300
O 	O 	0.75700 0.16660 0.82040 -0.60800
O 	O 	0.99690 0.04260 0.88630 -0.64300
C 	C 	0.89800 0.18020 0.81730 0.53600
C 	C 	0.95010 0.21550 0.78280 -0.15000
C 	C 	0.84560 0.23640 0.75510 0.00300
C 	C 	0.89610 0.27090 0.72260 0.01800
C 	C 	0.00040 0.90870 0.88960 -0.00200
C 	C 	0.00030 0.84140 0.88960 -0.01200
H 	H 	0.73970 0.22730 0.75830 0.04600
H 	H 	0.82380 0.28540 0.70370 0.02700
H 	H 	0.07800 0.93140 0.90340 0.04200
H 	H 	0.07790 0.81880 0.90340 0.03700
O 	O 	0.75580 0.58520 0.84300 -0.66500
O 	O 	0.99300 0.58340 0.82040 -0.60800
O 	O 	0.75310 0.70740 0.88630 -0.64400
C 	C 	0.85200 0.56980 0.81730 0.53800
C 	C 	0.79990 0.53450 0.78280 -0.15600
C 	C 	0.90440 0.51360 0.75510 0.00800
C 	C 	0.85390 0.47910 0.72260 0.01200
C 	C 	0.74960 0.84130 0.88960 -0.00400
C 	C 	0.74970 0.90860 0.88960 -0.01100
H 	H 	0.01030 0.52270 0.75830 0.04400
H 	H 	0.92620 0.46460 0.70370 0.02900
H 	H 	0.67200 0.81860 0.90340 0.04200
H 	H 	0.67210 0.93120 0.90340 0.03700
O 	O 	0.75580 0.08520 0.34300 -0.66500
O 	O 	0.99300 0.08340 0.32040 -0.60800
O 	O 	0.75310 0.20740 0.38630 -0.64400
C 	C 	0.85200 0.06980 0.31730 0.54000
C 	C 	0.79990 0.03450 0.28280 -0.16200
C 	C 	0.90440 0.01360 0.25510 0.02000
C 	C 	0.85390 0.97910 0.22260 0.00300
C 	C 	0.74960 0.34130 0.38960 -0.00400
C 	C 	0.74970 0.40860 0.38960 -0.01200
H 	H 	0.01030 0.02270 0.25830 0.03800
H 	H 	0.92620 0.96460 0.20370 0.03100
H 	H 	0.67200 0.31860 0.40340 0.04200
H 	H 	0.67210 0.43120 0.40340 0.03700
O 	O 	0.25580 0.58520 0.34300 -0.66500
O 	O 	0.49300 0.58340 0.32040 -0.60800
O 	O 	0.25310 0.70740 0.38630 -0.64400
C 	C 	0.35200 0.56980 0.31730 0.53700
C 	C 	0.29990 0.53450 0.28280 -0.15500
C 	C 	0.40440 0.51360 0.25510 0.00700
C 	C 	0.35390 0.47910 0.22260 0.01300
C 	C 	0.24960 0.84130 0.38960 -0.00300
C 	C 	0.24970 0.90860 0.38960 -0.01200
H 	H 	0.51030 0.52270 0.25830 0.04500
H 	H 	0.42620 0.46460 0.20370 0.02800
H 	H 	0.17200 0.81860 0.40340 0.04200
H 	H 	0.17210 0.93120 0.40340 0.03800
O 	O 	0.25580 0.08520 0.84300 -0.66500
O 	O 	0.49300 0.08340 0.82040 -0.60800
O 	O 	0.25310 0.20740 0.88630 -0.64500
C 	C 	0.35200 0.06980 0.81730 0.53500
C 	C 	0.29990 0.03450 0.78280 -0.15000
C 	C 	0.40440 0.01360 0.75510 0.00000
C 	C 	0.35390 0.97910 0.72260 0.02000
C 	C 	0.24960 0.34130 0.88960 -0.00300
C 	C 	0.24970 0.40860 0.88960 -0.01200
H 	H 	0.51030 0.02270 0.75830 0.04700
H 	H 	0.42620 0.96460 0.70370 0.02600
H 	H 	0.17200 0.31860 0.90340 0.04200
H 	H 	0.17210 0.43120 0.90340 0.03700
Sc	Sc	0.37500 0.37500 0.63578 2.35400
Sc	Sc	0.37500 0.87500 0.13578 2.35400
Sc	Sc	0.87500 0.37500 0.13578 2.35400
Sc	Sc	0.87500 0.87500 0.63578 2.35300
Sc	Sc	0.37500 0.37500 0.11422 2.35400
Sc	Sc	0.37500 0.87500 0.61422 2.35400
Sc	Sc	0.87500 0.37500 0.61422 2.35400
Sc	Sc	0.87500 0.87500 0.11422 2.35300
Sc	Sc	0.62500 0.62500 0.36422 2.35400
Sc	Sc	0.62500 0.12500 0.86422 2.35400
Sc	Sc	0.12500 0.62500 0.86422 2.35400
Sc	Sc	0.12500 0.12500 0.36422 2.35300
Sc	Sc	0.62500 0.62500 0.88578 2.35400
Sc	Sc	0.62500 0.12500 0.38578 2.35400
Sc	Sc	0.12500 0.62500 0.38578 2.35400
Sc	Sc	0.12500 0.12500 0.88578 2.35300
C 	C 	0.12500 0.48330 0.62500 0.52200
C 	C 	0.12500 0.55780 0.62500 -0.11900
C 	C 	0.12500 0.98330 0.12500 0.52500
C 	C 	0.12500 0.05780 0.12500 -0.12400
C 	C 	0.62500 0.98330 0.62500 0.52200
C 	C 	0.62500 0.05780 0.62500 -0.11900
C 	C 	0.62500 0.26670 0.62500 0.52300
C 	C 	0.62500 0.19220 0.62500 -0.12000
C 	C 	0.62500 0.76670 0.12500 0.52300
C 	C 	0.62500 0.69220 0.12500 -0.12000
C 	C 	0.62500 0.48330 0.12500 0.52300
C 	C 	0.62500 0.55780 0.12500 -0.12000
C 	C 	0.12500 0.26670 0.12500 0.52200
C 	C 	0.12500 0.19220 0.12500 -0.12000
C 	C 	0.12500 0.76670 0.62500 0.52200
C 	C 	0.12500 0.69220 0.62500 -0.11800
C 	C 	0.87500 0.51670 0.37500 0.52200
C 	C 	0.87500 0.44220 0.37500 -0.11900
C 	C 	0.87500 0.01670 0.87500 0.52500
C 	C 	0.87500 0.94220 0.87500 -0.12400
C 	C 	0.37500 0.73330 0.37500 0.52300
C 	C 	0.37500 0.80780 0.37500 -0.12000
C 	C 	0.37500 0.23330 0.87500 0.52300
C 	C 	0.37500 0.30780 0.87500 -0.12000
C 	C 	0.37500 0.51670 0.87500 0.52300
C 	C 	0.37500 0.44220 0.87500 -0.12000
C 	C 	0.37500 0.01670 0.37500 0.52200
C 	C 	0.37500 0.94220 0.37500 -0.11900
C 	C 	0.87500 0.73330 0.87500 0.52200
C 	C 	0.87500 0.80780 0.87500 -0.12000
C 	C 	0.87500 0.23330 0.37500 0.52200
C 	C 	0.87500 0.30780 0.37500 -0.11800
