data_crystal

_cell_length_a 8.77450
_cell_length_b 20.66800
_cell_length_c 34.20300
_cell_angle_alpha 90.00000
_cell_angle_beta  90.00000
_cell_angle_gamma 90.00000

_symmetry_space_group_name_	'P 1'
_symmetry_space_group_name_H-M	'P 1'

loop_
_symmetry_equiv_pos_as_xyz
  x,y,z

loop_
_atom_site_label
_atom_site_type_symbol
_atom_site_fract_x
_atom_site_fract_y
_atom_site_fract_z
_atom_site_charge
O 	O 	0.24640 0.33510 0.59290 -0.67800
O 	O 	0.01050 0.33410 0.57020 -0.61700
O 	O 	0.24440 0.45810 0.63660 -0.64000
C 	C 	0.14930 0.32050 0.56820 0.55300
C 	C 	0.20120 0.28440 0.53250 -0.14300
C 	C 	0.09600 0.26410 0.50490 -0.00000
C 	C 	0.14620 0.22960 0.47250 0.01100
C 	C 	0.24510 0.59100 0.64170 0.00600
C 	C 	0.24520 0.65840 0.64160 -0.01200
H 	H 	0.99080 0.27380 0.50810 0.04700
H 	H 	0.07460 0.21550 0.45350 0.02900
H 	H 	0.32240 0.56810 0.65540 0.03800
H 	H 	0.32230 0.68110 0.65540 0.03600
O 	O 	0.24640 0.83510 0.09290 -0.67900
O 	O 	0.01050 0.83410 0.07020 -0.61700
O 	O 	0.24440 0.95810 0.13660 -0.64000
C 	C 	0.14930 0.82050 0.06820 0.55500
C 	C 	0.20120 0.78440 0.03250 -0.14800
C 	C 	0.09600 0.76410 0.00490 0.01200
C 	C 	0.14620 0.72960 0.97250 0.00400
C 	C 	0.24510 0.09100 0.14170 0.00600
C 	C 	0.24520 0.15840 0.14160 -0.01200
H 	H 	0.99080 0.77380 0.00810 0.04100
H 	H 	0.07460 0.71550 0.95350 0.03200
H 	H 	0.32240 0.06810 0.15540 0.03800
H 	H 	0.32230 0.18110 0.15540 0.03600
O 	O 	0.74640 0.33510 0.09290 -0.67900
O 	O 	0.51050 0.33410 0.07020 -0.61800
O 	O 	0.74440 0.45810 0.13660 -0.64100
C 	C 	0.64930 0.32050 0.06820 0.55300
C 	C 	0.70120 0.28440 0.03250 -0.14200
C 	C 	0.59600 0.26410 0.00490 0.00000
C 	C 	0.64620 0.22960 0.97250 0.01200
C 	C 	0.74510 0.59100 0.14170 0.00600
C 	C 	0.74520 0.65840 0.14160 -0.01200
H 	H 	0.49080 0.27380 0.00810 0.04600
H 	H 	0.57460 0.21550 0.95350 0.02900
H 	H 	0.82240 0.56810 0.15540 0.03800
H 	H 	0.82230 0.68110 0.15540 0.03600
O 	O 	0.74640 0.83510 0.59290 -0.68000
O 	O 	0.51050 0.83410 0.57020 -0.61800
O 	O 	0.74440 0.95810 0.63660 -0.64100
C 	C 	0.64930 0.82050 0.56820 0.55400
C 	C 	0.70120 0.78440 0.53250 -0.14600
C 	C 	0.59600 0.76410 0.50490 0.00500
C 	C 	0.64620 0.72960 0.47250 0.00800
C 	C 	0.74510 0.09100 0.64170 0.00600
C 	C 	0.74520 0.15840 0.64160 -0.01200
H 	H 	0.49080 0.77380 0.50810 0.04500
H 	H 	0.57460 0.71550 0.45350 0.03000
H 	H 	0.82240 0.06810 0.65540 0.03800
H 	H 	0.82230 0.18110 0.65540 0.03600
O 	O 	0.50360 0.41490 0.59290 -0.67900
O 	O 	0.73950 0.41590 0.57020 -0.61800
O 	O 	0.50560 0.29190 0.63660 -0.64000
C 	C 	0.60070 0.42950 0.56820 0.55400
C 	C 	0.54880 0.46560 0.53250 -0.14500
C 	C 	0.65400 0.48590 0.50490 0.00300
C 	C 	0.60380 0.52040 0.47250 0.00900
C 	C 	0.50490 0.15900 0.64170 0.00600
C 	C 	0.50480 0.09160 0.64160 -0.01200
H 	H 	0.75920 0.47620 0.50810 0.04500
H 	H 	0.67540 0.53450 0.45350 0.03000
H 	H 	0.42760 0.18190 0.65540 0.03800
H 	H 	0.42770 0.06890 0.65540 0.03600
O 	O 	0.50360 0.91490 0.09290 -0.67900
O 	O 	0.73950 0.91590 0.07020 -0.61900
O 	O 	0.50560 0.79190 0.13660 -0.64100
C 	C 	0.60070 0.92950 0.06820 0.55400
C 	C 	0.54880 0.96560 0.03250 -0.14500
C 	C 	0.65400 0.98590 0.00490 0.00200
C 	C 	0.60380 0.02040 0.97250 0.01000
C 	C 	0.50490 0.65900 0.14170 0.00600
C 	C 	0.50480 0.59160 0.14160 -0.01200
H 	H 	0.75920 0.97620 0.00810 0.04500
H 	H 	0.67540 0.03450 0.95350 0.03000
H 	H 	0.42760 0.68190 0.15540 0.03800
H 	H 	0.42770 0.56890 0.15540 0.03600
O 	O 	0.00360 0.41490 0.09290 -0.67800
O 	O 	0.23950 0.41590 0.07020 -0.61800
O 	O 	0.00560 0.29190 0.13660 -0.64000
C 	C 	0.10070 0.42950 0.06820 0.55300
C 	C 	0.04880 0.46560 0.03250 -0.14400
C 	C 	0.15400 0.48590 0.00490 0.00400
C 	C 	0.10380 0.52040 0.97250 0.00700
C 	C 	0.00490 0.15900 0.14170 0.00600
C 	C 	0.00480 0.09160 0.14160 -0.01300
H 	H 	0.25920 0.47620 0.00810 0.04500
H 	H 	0.17540 0.53450 0.95350 0.03000
H 	H 	0.92760 0.18190 0.15540 0.03800
H 	H 	0.92770 0.06890 0.15540 0.03700
O 	O 	0.00360 0.91490 0.59290 -0.67700
O 	O 	0.23950 0.91590 0.57020 -0.61800
O 	O 	0.00560 0.79190 0.63660 -0.63900
C 	C 	0.10070 0.92950 0.56820 0.55300
C 	C 	0.04880 0.96560 0.53250 -0.14100
C 	C 	0.15400 0.98590 0.50490 0.00700
C 	C 	0.10380 0.02040 0.47250 0.00200
C 	C 	0.00490 0.65900 0.64170 0.00800
C 	C 	0.00480 0.59160 0.64160 -0.01200
H 	H 	0.25920 0.97620 0.50810 0.04400
H 	H 	0.17540 0.03450 0.45350 0.03200
H 	H 	0.92760 0.68190 0.65540 0.03600
H 	H 	0.92770 0.56890 0.65540 0.03500
O 	O 	0.50360 0.33510 0.15710 -0.67900
O 	O 	0.73950 0.33410 0.17980 -0.61800
O 	O 	0.50560 0.45810 0.11340 -0.64000
C 	C 	0.60070 0.32050 0.18180 0.55400
C 	C 	0.54880 0.28440 0.21750 -0.14500
C 	C 	0.65400 0.26410 0.24510 0.00300
C 	C 	0.60380 0.22960 0.27750 0.00900
C 	C 	0.50490 0.59100 0.10830 0.00600
C 	C 	0.50480 0.65840 0.10840 -0.01200
H 	H 	0.75920 0.27380 0.24190 0.04500
H 	H 	0.67540 0.21550 0.29650 0.03000
H 	H 	0.42760 0.56810 0.09460 0.03800
H 	H 	0.42770 0.68110 0.09460 0.03600
O 	O 	0.50360 0.83510 0.65710 -0.67900
O 	O 	0.73950 0.83410 0.67980 -0.61900
O 	O 	0.50560 0.95810 0.61340 -0.64000
C 	C 	0.60070 0.82050 0.68180 0.55400
C 	C 	0.54880 0.78440 0.71750 -0.14500
C 	C 	0.65400 0.76410 0.74510 0.00400
C 	C 	0.60380 0.72960 0.77750 0.00900
C 	C 	0.50490 0.09100 0.60830 0.00600
C 	C 	0.50480 0.15840 0.60840 -0.01200
H 	H 	0.75920 0.77380 0.74190 0.04500
H 	H 	0.67540 0.71550 0.79650 0.03000
H 	H 	0.42760 0.06810 0.59460 0.03800
H 	H 	0.42770 0.18110 0.59460 0.03600
O 	O 	0.00360 0.33510 0.65710 -0.67900
O 	O 	0.23950 0.33410 0.67980 -0.61900
O 	O 	0.00560 0.45810 0.61340 -0.64000
C 	C 	0.10070 0.32050 0.68180 0.55500
C 	C 	0.04880 0.28440 0.71750 -0.14900
C 	C 	0.15400 0.26410 0.74510 0.00800
C 	C 	0.10380 0.22960 0.77750 0.00200
C 	C 	0.00490 0.59100 0.60830 0.00700
C 	C 	0.00480 0.65840 0.60840 -0.01000
H 	H 	0.25920 0.27380 0.74190 0.04400
H 	H 	0.17540 0.21550 0.79650 0.03200
H 	H 	0.92760 0.56810 0.59460 0.03700
H 	H 	0.92770 0.68110 0.59460 0.03500
O 	O 	0.00360 0.83510 0.15710 -0.67700
O 	O 	0.23950 0.83410 0.17980 -0.61800
O 	O 	0.00560 0.95810 0.11340 -0.63900
C 	C 	0.10070 0.82050 0.18180 0.55200
C 	C 	0.04880 0.78440 0.21750 -0.13900
C 	C 	0.15400 0.76410 0.24510 -0.00100
C 	C 	0.10380 0.72960 0.27750 0.01400
C 	C 	0.00490 0.09100 0.10830 0.00600
C 	C 	0.00480 0.15840 0.10840 -0.01300
H 	H 	0.25920 0.77380 0.24190 0.04700
H 	H 	0.17540 0.71550 0.29650 0.02800
H 	H 	0.92760 0.06810 0.09460 0.03900
H 	H 	0.92770 0.18110 0.09460 0.03600
O 	O 	0.24640 0.41490 0.15710 -0.67900
O 	O 	0.01050 0.41590 0.17980 -0.61800
O 	O 	0.24440 0.29190 0.11340 -0.64000
C 	C 	0.14930 0.42950 0.18180 0.55400
C 	C 	0.20120 0.46560 0.21750 -0.14500
C 	C 	0.09600 0.48590 0.24510 0.00500
C 	C 	0.14620 0.52040 0.27750 0.00900
C 	C 	0.24510 0.15900 0.10830 0.00600
C 	C 	0.24520 0.09160 0.10840 -0.01200
H 	H 	0.99080 0.47620 0.24190 0.04500
H 	H 	0.07460 0.53450 0.29650 0.03000
H 	H 	0.32240 0.18190 0.09460 0.03800
H 	H 	0.32230 0.06890 0.09460 0.03600
O 	O 	0.24640 0.91490 0.65710 -0.67900
O 	O 	0.01050 0.91590 0.67980 -0.61700
O 	O 	0.24440 0.79190 0.61340 -0.64000
C 	C 	0.14930 0.92950 0.68180 0.55600
C 	C 	0.20120 0.96560 0.71750 -0.15100
C 	C 	0.09600 0.98590 0.74510 0.01600
C 	C 	0.14620 0.02040 0.77750 -0.00100
C 	C 	0.24510 0.65900 0.60830 0.00600
C 	C 	0.24520 0.59160 0.60840 -0.01200
H 	H 	0.99080 0.97620 0.74190 0.03900
H 	H 	0.07460 0.03450 0.79650 0.03200
H 	H 	0.32240 0.68190 0.59460 0.03800
H 	H 	0.32230 0.56890 0.59460 0.03600
O 	O 	0.74640 0.41490 0.65710 -0.67900
O 	O 	0.51050 0.41590 0.67980 -0.61800
O 	O 	0.74440 0.29190 0.61340 -0.64000
C 	C 	0.64930 0.42950 0.68180 0.55400
C 	C 	0.70120 0.46560 0.71750 -0.14400
C 	C 	0.59600 0.48590 0.74510 0.00300
C 	C 	0.64620 0.52040 0.77750 0.00900
C 	C 	0.74510 0.15900 0.60830 0.00600
C 	C 	0.74520 0.09160 0.60840 -0.01300
H 	H 	0.49080 0.47620 0.74190 0.04500
H 	H 	0.57460 0.53450 0.79650 0.03000
H 	H 	0.82240 0.18190 0.59460 0.03800
H 	H 	0.82230 0.06890 0.59460 0.03700
O 	O 	0.74640 0.91490 0.15710 -0.67900
O 	O 	0.51050 0.91590 0.17980 -0.61800
O 	O 	0.74440 0.79190 0.11340 -0.64100
C 	C 	0.64930 0.92950 0.18180 0.55200
C 	C 	0.70120 0.96560 0.21750 -0.14000
C 	C 	0.59600 0.98590 0.24510 -0.00300
C 	C 	0.64620 0.02040 0.27750 0.01600
C 	C 	0.74510 0.65900 0.10830 0.00600
C 	C 	0.74520 0.59160 0.10840 -0.01200
H 	H 	0.49080 0.97620 0.24190 0.04800
H 	H 	0.57460 0.03450 0.29650 0.02800
H 	H 	0.82240 0.68190 0.09460 0.03700
H 	H 	0.82230 0.56890 0.09460 0.03600
O 	O 	0.75360 0.66490 0.40710 -0.67900
O 	O 	0.98950 0.66590 0.42980 -0.61800
O 	O 	0.75560 0.54190 0.36340 -0.64000
C 	C 	0.85070 0.67950 0.43180 0.55300
C 	C 	0.79880 0.71560 0.46750 -0.14300
C 	C 	0.90400 0.73590 0.49510 -0.00000
C 	C 	0.85380 0.77040 0.52750 0.01100
C 	C 	0.75490 0.40900 0.35830 0.00600
C 	C 	0.75480 0.34160 0.35840 -0.01200
H 	H 	0.00920 0.72620 0.49190 0.04700
H 	H 	0.92540 0.78450 0.54650 0.02900
H 	H 	0.67760 0.43190 0.34460 0.03800
H 	H 	0.67770 0.31890 0.34460 0.03600
O 	O 	0.75360 0.16490 0.90710 -0.67900
O 	O 	0.98950 0.16590 0.92980 -0.61700
O 	O 	0.75560 0.04190 0.86340 -0.64000
C 	C 	0.85070 0.17950 0.93180 0.55500
C 	C 	0.79880 0.21560 0.96750 -0.14800
C 	C 	0.90400 0.23590 0.99510 0.01200
C 	C 	0.85380 0.27040 0.02750 0.00400
C 	C 	0.75490 0.90900 0.85830 0.00600
C 	C 	0.75480 0.84160 0.85840 -0.01200
H 	H 	0.00920 0.22620 0.99190 0.04100
H 	H 	0.92540 0.28450 0.04650 0.03200
H 	H 	0.67760 0.93190 0.84460 0.03800
H 	H 	0.67770 0.81890 0.84460 0.03600
O 	O 	0.25360 0.66490 0.90710 -0.67900
O 	O 	0.48950 0.66590 0.92980 -0.61800
O 	O 	0.25560 0.54190 0.86340 -0.64100
C 	C 	0.35070 0.67950 0.93180 0.55300
C 	C 	0.29880 0.71560 0.96750 -0.14200
C 	C 	0.40400 0.73590 0.99510 0.00000
C 	C 	0.35380 0.77040 0.02750 0.01200
C 	C 	0.25490 0.40900 0.85830 0.00600
C 	C 	0.25480 0.34160 0.85840 -0.01200
H 	H 	0.50920 0.72620 0.99190 0.04600
H 	H 	0.42540 0.78450 0.04650 0.02900
H 	H 	0.17760 0.43190 0.84460 0.03800
H 	H 	0.17770 0.31890 0.84460 0.03600
O 	O 	0.25360 0.16490 0.40710 -0.68000
O 	O 	0.48950 0.16590 0.42980 -0.61800
O 	O 	0.25560 0.04190 0.36340 -0.64100
C 	C 	0.35070 0.17950 0.43180 0.55400
C 	C 	0.29880 0.21560 0.46750 -0.14600
C 	C 	0.40400 0.23590 0.49510 0.00500
C 	C 	0.35380 0.27040 0.52750 0.00800
C 	C 	0.25490 0.90900 0.35830 0.00600
C 	C 	0.25480 0.84160 0.35840 -0.01200
H 	H 	0.50920 0.22620 0.49190 0.04500
H 	H 	0.42540 0.28450 0.54650 0.03000
H 	H 	0.17760 0.93190 0.34460 0.03800
H 	H 	0.17770 0.81890 0.34460 0.03600
O 	O 	0.49640 0.58510 0.40710 -0.67900
O 	O 	0.26050 0.58410 0.42980 -0.61800
O 	O 	0.49440 0.70810 0.36340 -0.64000
C 	C 	0.39930 0.57050 0.43180 0.55400
C 	C 	0.45120 0.53440 0.46750 -0.14500
C 	C 	0.34600 0.51410 0.49510 0.00300
C 	C 	0.39620 0.47960 0.52750 0.00900
C 	C 	0.49510 0.84100 0.35830 0.00600
C 	C 	0.49520 0.90840 0.35840 -0.01200
H 	H 	0.24080 0.52380 0.49190 0.04500
H 	H 	0.32460 0.46550 0.54650 0.03000
H 	H 	0.57240 0.81810 0.34460 0.03800
H 	H 	0.57230 0.93110 0.34460 0.03600
O 	O 	0.49640 0.08510 0.90710 -0.67900
O 	O 	0.26050 0.08410 0.92980 -0.61900
O 	O 	0.49440 0.20810 0.86340 -0.64100
C 	C 	0.39930 0.07050 0.93180 0.55400
C 	C 	0.45120 0.03440 0.96750 -0.14500
C 	C 	0.34600 0.01410 0.99510 0.00200
C 	C 	0.39620 0.97960 0.02750 0.01000
C 	C 	0.49510 0.34100 0.85830 0.00600
C 	C 	0.49520 0.40840 0.85840 -0.01200
H 	H 	0.24080 0.02380 0.99190 0.04500
H 	H 	0.32460 0.96550 0.04650 0.03000
H 	H 	0.57240 0.31810 0.84460 0.03800
H 	H 	0.57230 0.43110 0.84460 0.03600
O 	O 	0.99640 0.58510 0.90710 -0.67800
O 	O 	0.76050 0.58410 0.92980 -0.61800
O 	O 	0.99440 0.70810 0.86340 -0.64000
C 	C 	0.89930 0.57050 0.93180 0.55300
C 	C 	0.95120 0.53440 0.96750 -0.14400
C 	C 	0.84600 0.51410 0.99510 0.00400
C 	C 	0.89620 0.47960 0.02750 0.00700
C 	C 	0.99510 0.84100 0.85830 0.00600
C 	C 	0.99520 0.90840 0.85840 -0.01300
H 	H 	0.74080 0.52380 0.99190 0.04500
H 	H 	0.82460 0.46550 0.04650 0.03000
H 	H 	0.07240 0.81810 0.84460 0.03800
H 	H 	0.07230 0.93110 0.84460 0.03700
O 	O 	0.99640 0.08510 0.40710 -0.67700
O 	O 	0.76050 0.08410 0.42980 -0.61800
O 	O 	0.99440 0.20810 0.36340 -0.63900
C 	C 	0.89930 0.07050 0.43180 0.55300
C 	C 	0.95120 0.03440 0.46750 -0.14100
C 	C 	0.84600 0.01410 0.49510 0.00700
C 	C 	0.89620 0.97960 0.52750 0.00200
C 	C 	0.99510 0.34100 0.35830 0.00800
C 	C 	0.99520 0.40840 0.35840 -0.01200
H 	H 	0.74080 0.02380 0.49190 0.04400
H 	H 	0.82460 0.96550 0.54650 0.03200
H 	H 	0.07240 0.31810 0.34460 0.03600
H 	H 	0.07230 0.43110 0.34460 0.03500
O 	O 	0.49640 0.66490 0.84290 -0.67900
O 	O 	0.26050 0.66590 0.82020 -0.61800
O 	O 	0.49440 0.54190 0.88660 -0.64000
C 	C 	0.39930 0.67950 0.81820 0.55400
C 	C 	0.45120 0.71560 0.78250 -0.14500
C 	C 	0.34600 0.73590 0.75490 0.00300
C 	C 	0.39620 0.77040 0.72250 0.00900
C 	C 	0.49510 0.40900 0.89170 0.00600
C 	C 	0.49520 0.34160 0.89160 -0.01200
H 	H 	0.24080 0.72620 0.75810 0.04500
H 	H 	0.32460 0.78450 0.70350 0.03000
H 	H 	0.57240 0.43190 0.90540 0.03800
H 	H 	0.57230 0.31890 0.90540 0.03600
O 	O 	0.49640 0.16490 0.34290 -0.67900
O 	O 	0.26050 0.16590 0.32020 -0.61900
O 	O 	0.49440 0.04190 0.38660 -0.64000
C 	C 	0.39930 0.17950 0.31820 0.55400
C 	C 	0.45120 0.21560 0.28250 -0.14500
C 	C 	0.34600 0.23590 0.25490 0.00400
C 	C 	0.39620 0.27040 0.22250 0.00900
C 	C 	0.49510 0.90900 0.39170 0.00600
C 	C 	0.49520 0.84160 0.39160 -0.01200
H 	H 	0.24080 0.22620 0.25810 0.04500
H 	H 	0.32460 0.28450 0.20350 0.03000
H 	H 	0.57240 0.93190 0.40540 0.03800
H 	H 	0.57230 0.81890 0.40540 0.03600
O 	O 	0.99640 0.66490 0.34290 -0.67900
O 	O 	0.76050 0.66590 0.32020 -0.61900
O 	O 	0.99440 0.54190 0.38660 -0.64000
C 	C 	0.89930 0.67950 0.31820 0.55500
C 	C 	0.95120 0.71560 0.28250 -0.14900
C 	C 	0.84600 0.73590 0.25490 0.00800
C 	C 	0.89620 0.77040 0.22250 0.00200
C 	C 	0.99510 0.40900 0.39170 0.00700
C 	C 	0.99520 0.34160 0.39160 -0.01000
H 	H 	0.74080 0.72620 0.25810 0.04400
H 	H 	0.82460 0.78450 0.20350 0.03200
H 	H 	0.07240 0.43190 0.40540 0.03700
H 	H 	0.07230 0.31890 0.40540 0.03500
O 	O 	0.99640 0.16490 0.84290 -0.67700
O 	O 	0.76050 0.16590 0.82020 -0.61800
O 	O 	0.99440 0.04190 0.88660 -0.63900
C 	C 	0.89930 0.17950 0.81820 0.55200
C 	C 	0.95120 0.21560 0.78250 -0.13900
C 	C 	0.84600 0.23590 0.75490 -0.00100
C 	C 	0.89620 0.27040 0.72250 0.01400
C 	C 	0.99510 0.90900 0.89170 0.00600
C 	C 	0.99520 0.84160 0.89160 -0.01300
H 	H 	0.74080 0.22620 0.75810 0.04700
H 	H 	0.82460 0.28450 0.70350 0.02800
H 	H 	0.07240 0.93190 0.90540 0.03900
H 	H 	0.07230 0.81890 0.90540 0.03600
O 	O 	0.75360 0.58510 0.84290 -0.67900
O 	O 	0.98950 0.58410 0.82020 -0.61800
O 	O 	0.75560 0.70810 0.88660 -0.64000
C 	C 	0.85070 0.57050 0.81820 0.55400
C 	C 	0.79880 0.53440 0.78250 -0.14500
C 	C 	0.90400 0.51410 0.75490 0.00500
C 	C 	0.85380 0.47960 0.72250 0.00900
C 	C 	0.75490 0.84100 0.89170 0.00600
C 	C 	0.75480 0.90840 0.89160 -0.01200
H 	H 	0.00920 0.52380 0.75810 0.04500
H 	H 	0.92540 0.46550 0.70350 0.03000
H 	H 	0.67760 0.81810 0.90540 0.03800
H 	H 	0.67770 0.93110 0.90540 0.03600
O 	O 	0.75360 0.08510 0.34290 -0.67900
O 	O 	0.98950 0.08410 0.32020 -0.61700
O 	O 	0.75560 0.20810 0.38660 -0.64000
C 	C 	0.85070 0.07050 0.31820 0.55600
C 	C 	0.79880 0.03440 0.28250 -0.15100
C 	C 	0.90400 0.01410 0.25490 0.01600
C 	C 	0.85380 0.97960 0.22250 -0.00100
C 	C 	0.75490 0.34100 0.39170 0.00600
C 	C 	0.75480 0.40840 0.39160 -0.01200
H 	H 	0.00920 0.02380 0.25810 0.03900
H 	H 	0.92540 0.96550 0.20350 0.03200
H 	H 	0.67760 0.31810 0.40540 0.03800
H 	H 	0.67770 0.43110 0.40540 0.03600
O 	O 	0.25360 0.58510 0.34290 -0.67900
O 	O 	0.48950 0.58410 0.32020 -0.61800
O 	O 	0.25560 0.70810 0.38660 -0.64000
C 	C 	0.35070 0.57050 0.31820 0.55400
C 	C 	0.29880 0.53440 0.28250 -0.14400
C 	C 	0.40400 0.51410 0.25490 0.00300
C 	C 	0.35380 0.47960 0.22250 0.00900
C 	C 	0.25490 0.84100 0.39170 0.00600
C 	C 	0.25480 0.90840 0.39160 -0.01300
H 	H 	0.50920 0.52380 0.25810 0.04500
H 	H 	0.42540 0.46550 0.20350 0.03000
H 	H 	0.17760 0.81810 0.40540 0.03800
H 	H 	0.17770 0.93110 0.40540 0.03700
O 	O 	0.25360 0.08510 0.84290 -0.67900
O 	O 	0.48950 0.08410 0.82020 -0.61800
O 	O 	0.25560 0.20810 0.88660 -0.64100
C 	C 	0.35070 0.07050 0.81820 0.55200
C 	C 	0.29880 0.03440 0.78250 -0.14000
C 	C 	0.40400 0.01410 0.75490 -0.00300
C 	C 	0.35380 0.97960 0.72250 0.01600
C 	C 	0.25490 0.34100 0.89170 0.00600
C 	C 	0.25480 0.40840 0.89160 -0.01200
H 	H 	0.50920 0.02380 0.75810 0.04800
H 	H 	0.42540 0.96550 0.70350 0.02800
H 	H 	0.17760 0.31810 0.90540 0.03700
H 	H 	0.17770 0.43110 0.90540 0.03600
Sc	Sc	0.37500 0.37500 0.63596 2.35200
Sc	Sc	0.37500 0.87500 0.13596 2.35200
Sc	Sc	0.87500 0.37500 0.13596 2.35200
Sc	Sc	0.87500 0.87500 0.63596 2.35200
Sc	Sc	0.37500 0.37500 0.11404 2.35200
Sc	Sc	0.37500 0.87500 0.61404 2.35200
Sc	Sc	0.87500 0.37500 0.61404 2.35200
Sc	Sc	0.87500 0.87500 0.11404 2.35100
Sc	Sc	0.62500 0.62500 0.36404 2.35200
Sc	Sc	0.62500 0.12500 0.86404 2.35200
Sc	Sc	0.12500 0.62500 0.86404 2.35200
Sc	Sc	0.12500 0.12500 0.36404 2.35200
Sc	Sc	0.62500 0.62500 0.88596 2.35200
Sc	Sc	0.62500 0.12500 0.38596 2.35200
Sc	Sc	0.12500 0.62500 0.38596 2.35200
Sc	Sc	0.12500 0.12500 0.88596 2.35100
C 	C 	0.12500 0.48500 0.62500 0.53600
C 	C 	0.12500 0.55750 0.62500 -0.14300
C 	C 	0.12500 0.98500 0.12500 0.53800
C 	C 	0.12500 0.05750 0.12500 -0.14500
C 	C 	0.62500 0.98500 0.62500 0.53500
C 	C 	0.62500 0.05750 0.62500 -0.14200
C 	C 	0.62500 0.26500 0.62500 0.53600
C 	C 	0.62500 0.19250 0.62500 -0.14300
C 	C 	0.62500 0.76500 0.12500 0.53600
C 	C 	0.62500 0.69250 0.12500 -0.14300
C 	C 	0.62500 0.48500 0.12500 0.53600
C 	C 	0.62500 0.55750 0.12500 -0.14300
C 	C 	0.12500 0.26500 0.12500 0.53600
C 	C 	0.12500 0.19250 0.12500 -0.14200
C 	C 	0.12500 0.76500 0.62500 0.53600
C 	C 	0.12500 0.69250 0.62500 -0.14400
C 	C 	0.87500 0.51500 0.37500 0.53600
C 	C 	0.87500 0.44250 0.37500 -0.14300
C 	C 	0.87500 0.01500 0.87500 0.53800
C 	C 	0.87500 0.94250 0.87500 -0.14500
C 	C 	0.37500 0.73500 0.37500 0.53600
C 	C 	0.37500 0.80750 0.37500 -0.14300
C 	C 	0.37500 0.23500 0.87500 0.53600
C 	C 	0.37500 0.30750 0.87500 -0.14300
C 	C 	0.37500 0.51500 0.87500 0.53600
C 	C 	0.37500 0.44250 0.87500 -0.14300
C 	C 	0.37500 0.01500 0.37500 0.53500
C 	C 	0.37500 0.94250 0.37500 -0.14200
C 	C 	0.87500 0.73500 0.87500 0.53600
C 	C 	0.87500 0.80750 0.87500 -0.14200
C 	C 	0.87500 0.23500 0.37500 0.53600
C 	C 	0.87500 0.30750 0.37500 -0.14400
