data_crystal

_cell_length_a 8.69450
_cell_length_b 20.80800
_cell_length_c 34.07900
_cell_angle_alpha 90.00000
_cell_angle_beta  90.00000
_cell_angle_gamma 90.00000

_symmetry_space_group_name_	'P 1'
_symmetry_space_group_name_H-M	'P 1'

loop_
_symmetry_equiv_pos_as_xyz
  x,y,z

loop_
_atom_site_label
_atom_site_type_symbol
_atom_site_fract_x
_atom_site_fract_y
_atom_site_fract_z
_atom_site_charge
O 	O 	0.24710 0.33360 0.59275 -0.67800
O 	O 	0.00980 0.33310 0.57062 -0.62900
O 	O 	0.24100 0.45810 0.63600 -0.66500
C 	C 	0.14950 0.32010 0.56770 0.56300
C 	C 	0.20110 0.28410 0.53210 -0.15600
C 	C 	0.09930 0.26530 0.50440 0.00200
C 	C 	0.15100 0.23160 0.47150 0.02100
C 	C 	0.22230 0.59020 0.64980 -0.01200
C 	C 	0.21960 0.65700 0.64920 0.02300
H 	H 	0.99450 0.27520 0.50770 0.04400
H 	H 	0.07860 0.21940 0.45170 0.02400
H 	H 	0.29280 0.56780 0.66630 0.04400
H 	H 	0.29050 0.67940 0.66570 0.02400
O 	O 	0.24710 0.83360 0.09275 -0.67800
O 	O 	0.00980 0.83310 0.07062 -0.62700
O 	O 	0.24100 0.95810 0.13600 -0.66400
C 	C 	0.14950 0.82010 0.06770 0.56700
C 	C 	0.20110 0.78410 0.03210 -0.16200
C 	C 	0.09930 0.76530 0.00440 0.01700
C 	C 	0.15100 0.73160 0.97150 0.01100
C 	C 	0.22230 0.09020 0.14980 -0.01100
C 	C 	0.21960 0.15700 0.14920 0.02300
H 	H 	0.99450 0.77520 0.00770 0.03700
H 	H 	0.07860 0.71940 0.95170 0.02800
H 	H 	0.29280 0.06780 0.16630 0.04300
H 	H 	0.29050 0.17940 0.16570 0.02400
O 	O 	0.74710 0.33360 0.09275 -0.67700
O 	O 	0.50980 0.33310 0.07062 -0.62800
O 	O 	0.74100 0.45810 0.13600 -0.66500
C 	C 	0.64950 0.32010 0.06770 0.56400
C 	C 	0.70110 0.28410 0.03210 -0.15300
C 	C 	0.59930 0.26530 0.00440 0.00200
C 	C 	0.65100 0.23160 0.97150 0.02300
C 	C 	0.72230 0.59020 0.14980 -0.01200
C 	C 	0.71960 0.65700 0.14920 0.02300
H 	H 	0.49450 0.27520 0.00770 0.04400
H 	H 	0.57860 0.21940 0.95170 0.02400
H 	H 	0.79280 0.56780 0.16630 0.04400
H 	H 	0.79050 0.67940 0.16570 0.02300
O 	O 	0.74710 0.83360 0.59275 -0.67900
O 	O 	0.50980 0.83310 0.57062 -0.62800
O 	O 	0.74100 0.95810 0.63600 -0.66500
C 	C 	0.64950 0.82010 0.56770 0.56600
C 	C 	0.70110 0.78410 0.53210 -0.15900
C 	C 	0.59930 0.76530 0.50440 0.00900
C 	C 	0.65100 0.73160 0.47150 0.01700
C 	C 	0.72230 0.09020 0.64980 -0.01200
C 	C 	0.71960 0.15700 0.64920 0.02400
H 	H 	0.49450 0.77520 0.50770 0.04200
H 	H 	0.57860 0.71940 0.45170 0.02600
H 	H 	0.79280 0.06780 0.66630 0.04400
H 	H 	0.79050 0.17940 0.66570 0.02400
O 	O 	0.50290 0.41640 0.59275 -0.67800
O 	O 	0.74020 0.41690 0.57062 -0.62800
O 	O 	0.50900 0.29190 0.63600 -0.66400
C 	C 	0.60050 0.42990 0.56770 0.56500
C 	C 	0.54890 0.46590 0.53210 -0.15700
C 	C 	0.65070 0.48470 0.50440 0.00700
C 	C 	0.59900 0.51840 0.47150 0.01800
C 	C 	0.52770 0.15980 0.64980 -0.01200
C 	C 	0.53040 0.09300 0.64920 0.02300
H 	H 	0.75550 0.47480 0.50770 0.04200
H 	H 	0.67140 0.53060 0.45170 0.02600
H 	H 	0.45720 0.18220 0.66630 0.04400
H 	H 	0.45950 0.07060 0.66570 0.02400
O 	O 	0.50290 0.91640 0.09275 -0.67800
O 	O 	0.74020 0.91690 0.07062 -0.62900
O 	O 	0.50900 0.79190 0.13600 -0.66400
C 	C 	0.60050 0.92990 0.06770 0.56600
C 	C 	0.54890 0.96590 0.03210 -0.15800
C 	C 	0.65070 0.98470 0.00440 0.00600
C 	C 	0.59900 0.01840 0.97150 0.02000
C 	C 	0.52770 0.65980 0.14980 -0.01200
C 	C 	0.53040 0.59300 0.14920 0.02300
H 	H 	0.75550 0.97480 0.00770 0.04200
H 	H 	0.67140 0.03060 0.95170 0.02600
H 	H 	0.45720 0.68220 0.16630 0.04400
H 	H 	0.45950 0.57060 0.16570 0.02400
O 	O 	0.00290 0.41640 0.09275 -0.67700
O 	O 	0.24020 0.41690 0.07062 -0.62800
O 	O 	0.00900 0.29190 0.13600 -0.66400
C 	C 	0.10050 0.42990 0.06770 0.56500
C 	C 	0.04890 0.46590 0.03210 -0.15600
C 	C 	0.15070 0.48470 0.00440 0.00800
C 	C 	0.09900 0.51840 0.97150 0.01600
C 	C 	0.02770 0.15980 0.14980 -0.01200
C 	C 	0.03040 0.09300 0.14920 0.02300
H 	H 	0.25550 0.47480 0.00770 0.04200
H 	H 	0.17140 0.53060 0.95170 0.02600
H 	H 	0.95720 0.18220 0.16630 0.04400
H 	H 	0.95950 0.07060 0.16570 0.02400
O 	O 	0.00290 0.91640 0.59275 -0.67600
O 	O 	0.24020 0.91690 0.57062 -0.62800
O 	O 	0.00900 0.79190 0.63600 -0.66300
C 	C 	0.10050 0.92990 0.56770 0.56400
C 	C 	0.04890 0.96590 0.53210 -0.15300
C 	C 	0.15070 0.98470 0.50440 0.01000
C 	C 	0.09900 0.01840 0.47150 0.01100
C 	C 	0.02770 0.65980 0.64980 -0.00900
C 	C 	0.03040 0.59300 0.64920 0.02400
H 	H 	0.25550 0.97480 0.50770 0.04100
H 	H 	0.17140 0.03060 0.45170 0.02700
H 	H 	0.95720 0.68220 0.66630 0.04200
H 	H 	0.95950 0.57060 0.66570 0.02300
O 	O 	0.50290 0.33360 0.15725 -0.67800
O 	O 	0.74020 0.33310 0.17938 -0.62800
O 	O 	0.50900 0.45810 0.11400 -0.66400
C 	C 	0.60050 0.32010 0.18230 0.56500
C 	C 	0.54890 0.28410 0.21790 -0.15700
C 	C 	0.65070 0.26530 0.24560 0.00700
C 	C 	0.59900 0.23160 0.27850 0.01900
C 	C 	0.52770 0.59020 0.10020 -0.01200
C 	C 	0.53040 0.65700 0.10080 0.02400
H 	H 	0.75550 0.27520 0.24230 0.04200
H 	H 	0.67140 0.21940 0.29830 0.02600
H 	H 	0.45720 0.56780 0.08370 0.04400
H 	H 	0.45950 0.67940 0.08430 0.02400
O 	O 	0.50290 0.83360 0.65725 -0.67800
O 	O 	0.74020 0.83310 0.67938 -0.62900
O 	O 	0.50900 0.95810 0.61400 -0.66400
C 	C 	0.60050 0.82010 0.68230 0.56600
C 	C 	0.54890 0.78410 0.71790 -0.15800
C 	C 	0.65070 0.76530 0.74560 0.00700
C 	C 	0.59900 0.73160 0.77850 0.01800
C 	C 	0.52770 0.09020 0.60020 -0.01200
C 	C 	0.53040 0.15700 0.60080 0.02400
H 	H 	0.75550 0.77520 0.74230 0.04200
H 	H 	0.67140 0.71940 0.79830 0.02600
H 	H 	0.45720 0.06780 0.58370 0.04400
H 	H 	0.45950 0.17940 0.58430 0.02300
O 	O 	0.00290 0.33360 0.65725 -0.67800
O 	O 	0.24020 0.33310 0.67938 -0.62900
O 	O 	0.00900 0.45810 0.61400 -0.66400
C 	C 	0.10050 0.32010 0.68230 0.56700
C 	C 	0.04890 0.28410 0.71790 -0.16400
C 	C 	0.15070 0.26530 0.74560 0.01300
C 	C 	0.09900 0.23160 0.77850 0.01000
C 	C 	0.02770 0.59020 0.60020 -0.01100
C 	C 	0.03040 0.65700 0.60080 0.02600
H 	H 	0.25550 0.27520 0.74230 0.04000
H 	H 	0.17140 0.21940 0.79830 0.02800
H 	H 	0.95720 0.56780 0.58370 0.04300
H 	H 	0.95950 0.67940 0.58430 0.02200
O 	O 	0.00290 0.83360 0.15725 -0.67500
O 	O 	0.24020 0.83310 0.17938 -0.62700
O 	O 	0.00900 0.95810 0.11400 -0.66300
C 	C 	0.10050 0.82010 0.18230 0.56300
C 	C 	0.04890 0.78410 0.21790 -0.15000
C 	C 	0.15070 0.76530 0.24560 0.00100
C 	C 	0.09900 0.73160 0.27850 0.02500
C 	C 	0.02770 0.09020 0.10020 -0.01300
C 	C 	0.03040 0.15700 0.10080 0.02300
H 	H 	0.25550 0.77520 0.24230 0.04400
H 	H 	0.17140 0.71940 0.29830 0.02400
H 	H 	0.95720 0.06780 0.08370 0.04400
H 	H 	0.95950 0.17940 0.08430 0.02400
O 	O 	0.24710 0.41640 0.15725 -0.67800
O 	O 	0.00980 0.41690 0.17938 -0.62800
O 	O 	0.24100 0.29190 0.11400 -0.66400
C 	C 	0.14950 0.42990 0.18230 0.56600
C 	C 	0.20110 0.46590 0.21790 -0.15800
C 	C 	0.09930 0.48470 0.24560 0.00800
C 	C 	0.15100 0.51840 0.27850 0.01800
C 	C 	0.22230 0.15980 0.10020 -0.01300
C 	C 	0.21960 0.09300 0.10080 0.02400
H 	H 	0.99450 0.47480 0.24230 0.04100
H 	H 	0.07860 0.53060 0.29830 0.02600
H 	H 	0.29280 0.18220 0.08370 0.04400
H 	H 	0.29050 0.07060 0.08430 0.02300
O 	O 	0.24710 0.91640 0.65725 -0.67800
O 	O 	0.00980 0.91690 0.67938 -0.62700
O 	O 	0.24100 0.79190 0.61400 -0.66400
C 	C 	0.14950 0.92990 0.68230 0.56900
C 	C 	0.20110 0.96590 0.71790 -0.16600
C 	C 	0.09930 0.98470 0.74560 0.02200
C 	C 	0.15100 0.01840 0.77850 0.00600
C 	C 	0.22230 0.65980 0.60020 -0.01100
C 	C 	0.21960 0.59300 0.60080 0.02300
H 	H 	0.99450 0.97480 0.74230 0.03500
H 	H 	0.07860 0.03060 0.79830 0.02900
H 	H 	0.29280 0.68220 0.58370 0.04400
H 	H 	0.29050 0.57060 0.58430 0.02400
O 	O 	0.74710 0.41640 0.65725 -0.67800
O 	O 	0.50980 0.41690 0.67938 -0.62800
O 	O 	0.74100 0.29190 0.61400 -0.66400
C 	C 	0.64950 0.42990 0.68230 0.56500
C 	C 	0.70110 0.46590 0.71790 -0.15700
C 	C 	0.59930 0.48470 0.74560 0.00600
C 	C 	0.65100 0.51840 0.77850 0.01900
C 	C 	0.72230 0.15980 0.60020 -0.01200
C 	C 	0.71960 0.09300 0.60080 0.02300
H 	H 	0.49450 0.47480 0.74230 0.04200
H 	H 	0.57860 0.53060 0.79830 0.02600
H 	H 	0.79280 0.18220 0.58370 0.04400
H 	H 	0.79050 0.07060 0.58430 0.02400
O 	O 	0.74710 0.91640 0.15725 -0.67800
O 	O 	0.50980 0.91690 0.17938 -0.62700
O 	O 	0.74100 0.79190 0.11400 -0.66500
C 	C 	0.64950 0.92990 0.18230 0.56300
C 	C 	0.70110 0.96590 0.21790 -0.15000
C 	C 	0.59930 0.98470 0.24560 -0.00200
C 	C 	0.65100 0.01840 0.27850 0.02700
C 	C 	0.72230 0.65980 0.10020 -0.01200
C 	C 	0.71960 0.59300 0.10080 0.02300
H 	H 	0.49450 0.97480 0.24230 0.04500
H 	H 	0.57860 0.03060 0.29830 0.02300
H 	H 	0.79280 0.68220 0.08370 0.04300
H 	H 	0.79050 0.57060 0.08430 0.02300
O 	O 	0.75290 0.66640 0.40725 -0.67700
O 	O 	0.99020 0.66690 0.42938 -0.62800
O 	O 	0.75900 0.54190 0.36400 -0.66400
C 	C 	0.85050 0.67990 0.43230 0.56400
C 	C 	0.79890 0.71590 0.46790 -0.15500
C 	C 	0.90070 0.73470 0.49560 0.00300
C 	C 	0.84900 0.76840 0.52850 0.02100
C 	C 	0.77770 0.40980 0.35020 -0.01200
C 	C 	0.78040 0.34300 0.35080 0.02300
H 	H 	0.00550 0.72480 0.49230 0.04400
H 	H 	0.92140 0.78060 0.54830 0.02400
H 	H 	0.70720 0.43220 0.33370 0.04400
H 	H 	0.70950 0.32060 0.33430 0.02400
O 	O 	0.75290 0.16640 0.90725 -0.67800
O 	O 	0.99020 0.16690 0.92938 -0.62700
O 	O 	0.75900 0.04190 0.86400 -0.66400
C 	C 	0.85050 0.17990 0.93230 0.56700
C 	C 	0.79890 0.21590 0.96790 -0.16200
C 	C 	0.90070 0.23470 0.99560 0.01700
C 	C 	0.84900 0.26840 0.02850 0.01100
C 	C 	0.77770 0.90980 0.85020 -0.01100
C 	C 	0.78040 0.84300 0.85080 0.02300
H 	H 	0.00550 0.22480 0.99230 0.03700
H 	H 	0.92140 0.28060 0.04830 0.02800
H 	H 	0.70720 0.93220 0.83370 0.04300
H 	H 	0.70950 0.82060 0.83430 0.02400
O 	O 	0.25290 0.66640 0.90725 -0.67700
O 	O 	0.49020 0.66690 0.92938 -0.62800
O 	O 	0.25900 0.54190 0.86400 -0.66500
C 	C 	0.35050 0.67990 0.93230 0.56400
C 	C 	0.29890 0.71590 0.96790 -0.15300
C 	C 	0.40070 0.73470 0.99560 0.00200
C 	C 	0.34900 0.76840 0.02850 0.02300
C 	C 	0.27770 0.40980 0.85020 -0.01200
C 	C 	0.28040 0.34300 0.85080 0.02300
H 	H 	0.50550 0.72480 0.99230 0.04400
H 	H 	0.42140 0.78060 0.04830 0.02400
H 	H 	0.20720 0.43220 0.83370 0.04400
H 	H 	0.20950 0.32060 0.83430 0.02300
O 	O 	0.25290 0.16640 0.40725 -0.67900
O 	O 	0.49020 0.16690 0.42938 -0.62800
O 	O 	0.25900 0.04190 0.36400 -0.66500
C 	C 	0.35050 0.17990 0.43230 0.56600
C 	C 	0.29890 0.21590 0.46790 -0.15900
C 	C 	0.40070 0.23470 0.49560 0.00900
C 	C 	0.34900 0.26840 0.52850 0.01700
C 	C 	0.27770 0.90980 0.35020 -0.01200
C 	C 	0.28040 0.84300 0.35080 0.02400
H 	H 	0.50550 0.22480 0.49230 0.04200
H 	H 	0.42140 0.28060 0.54830 0.02600
H 	H 	0.20720 0.93220 0.33370 0.04400
H 	H 	0.20950 0.82060 0.33430 0.02400
O 	O 	0.49710 0.58360 0.40725 -0.67800
O 	O 	0.25980 0.58310 0.42938 -0.62800
O 	O 	0.49100 0.70810 0.36400 -0.66400
C 	C 	0.39950 0.57010 0.43230 0.56500
C 	C 	0.45110 0.53410 0.46790 -0.15700
C 	C 	0.34930 0.51530 0.49560 0.00700
C 	C 	0.40100 0.48160 0.52850 0.01800
C 	C 	0.47230 0.84020 0.35020 -0.01200
C 	C 	0.46960 0.90700 0.35080 0.02300
H 	H 	0.24450 0.52520 0.49230 0.04200
H 	H 	0.32860 0.46940 0.54830 0.02600
H 	H 	0.54280 0.81780 0.33370 0.04400
H 	H 	0.54050 0.92940 0.33430 0.02400
O 	O 	0.49710 0.08360 0.90725 -0.67800
O 	O 	0.25980 0.08310 0.92938 -0.62900
O 	O 	0.49100 0.20810 0.86400 -0.66400
C 	C 	0.39950 0.07010 0.93230 0.56600
C 	C 	0.45110 0.03410 0.96790 -0.15800
C 	C 	0.34930 0.01530 0.99560 0.00600
C 	C 	0.40100 0.98160 0.02850 0.02000
C 	C 	0.47230 0.34020 0.85020 -0.01200
C 	C 	0.46960 0.40700 0.85080 0.02300
H 	H 	0.24450 0.02520 0.99230 0.04200
H 	H 	0.32860 0.96940 0.04830 0.02600
H 	H 	0.54280 0.31780 0.83370 0.04400
H 	H 	0.54050 0.42940 0.83430 0.02400
O 	O 	0.99710 0.58360 0.90725 -0.67700
O 	O 	0.75980 0.58310 0.92938 -0.62800
O 	O 	0.99100 0.70810 0.86400 -0.66400
C 	C 	0.89950 0.57010 0.93230 0.56500
C 	C 	0.95110 0.53410 0.96790 -0.15600
C 	C 	0.84930 0.51530 0.99560 0.00800
C 	C 	0.90100 0.48160 0.02850 0.01600
C 	C 	0.97230 0.84020 0.85020 -0.01200
C 	C 	0.96960 0.90700 0.85080 0.02300
H 	H 	0.74450 0.52520 0.99230 0.04200
H 	H 	0.82860 0.46940 0.04830 0.02600
H 	H 	0.04280 0.81780 0.83370 0.04400
H 	H 	0.04050 0.92940 0.83430 0.02400
O 	O 	0.99710 0.08360 0.40725 -0.67600
O 	O 	0.75980 0.08310 0.42938 -0.62800
O 	O 	0.99100 0.20810 0.36400 -0.66300
C 	C 	0.89950 0.07010 0.43230 0.56400
C 	C 	0.95110 0.03410 0.46790 -0.15300
C 	C 	0.84930 0.01530 0.49560 0.01000
C 	C 	0.90100 0.98160 0.52850 0.01100
C 	C 	0.97230 0.34020 0.35020 -0.00900
C 	C 	0.96960 0.40700 0.35080 0.02400
H 	H 	0.74450 0.02520 0.49230 0.04100
H 	H 	0.82860 0.96940 0.54830 0.02700
H 	H 	0.04280 0.31780 0.33370 0.04200
H 	H 	0.04050 0.42940 0.33430 0.02300
O 	O 	0.49710 0.66640 0.84275 -0.67800
O 	O 	0.25980 0.66690 0.82062 -0.62800
O 	O 	0.49100 0.54190 0.88600 -0.66400
C 	C 	0.39950 0.67990 0.81770 0.56500
C 	C 	0.45110 0.71590 0.78210 -0.15700
C 	C 	0.34930 0.73470 0.75440 0.00700
C 	C 	0.40100 0.76840 0.72150 0.01900
C 	C 	0.47230 0.40980 0.89980 -0.01200
C 	C 	0.46960 0.34300 0.89920 0.02400
H 	H 	0.24450 0.72480 0.75770 0.04200
H 	H 	0.32860 0.78060 0.70170 0.02600
H 	H 	0.54280 0.43220 0.91630 0.04400
H 	H 	0.54050 0.32060 0.91570 0.02400
O 	O 	0.49710 0.16640 0.34275 -0.67800
O 	O 	0.25980 0.16690 0.32062 -0.62900
O 	O 	0.49100 0.04190 0.38600 -0.66400
C 	C 	0.39950 0.17990 0.31770 0.56600
C 	C 	0.45110 0.21590 0.28210 -0.15800
C 	C 	0.34930 0.23470 0.25440 0.00700
C 	C 	0.40100 0.26840 0.22150 0.01800
C 	C 	0.47230 0.90980 0.39980 -0.01200
C 	C 	0.46960 0.84300 0.39920 0.02400
H 	H 	0.24450 0.22480 0.25770 0.04200
H 	H 	0.32860 0.28060 0.20170 0.02600
H 	H 	0.54280 0.93220 0.41630 0.04400
H 	H 	0.54050 0.82060 0.41570 0.02300
O 	O 	0.99710 0.66640 0.34275 -0.67800
O 	O 	0.75980 0.66690 0.32062 -0.62900
O 	O 	0.99100 0.54190 0.38600 -0.66400
C 	C 	0.89950 0.67990 0.31770 0.56700
C 	C 	0.95110 0.71590 0.28210 -0.16400
C 	C 	0.84930 0.73470 0.25440 0.01300
C 	C 	0.90100 0.76840 0.22150 0.01000
C 	C 	0.97230 0.40980 0.39980 -0.01100
C 	C 	0.96960 0.34300 0.39920 0.02600
H 	H 	0.74450 0.72480 0.25770 0.04000
H 	H 	0.82860 0.78060 0.20170 0.02800
H 	H 	0.04280 0.43220 0.41630 0.04300
H 	H 	0.04050 0.32060 0.41570 0.02200
O 	O 	0.99710 0.16640 0.84275 -0.67500
O 	O 	0.75980 0.16690 0.82062 -0.62700
O 	O 	0.99100 0.04190 0.88600 -0.66300
C 	C 	0.89950 0.17990 0.81770 0.56300
C 	C 	0.95110 0.21590 0.78210 -0.15000
C 	C 	0.84930 0.23470 0.75440 0.00100
C 	C 	0.90100 0.26840 0.72150 0.02500
C 	C 	0.97230 0.90980 0.89980 -0.01300
C 	C 	0.96960 0.84300 0.89920 0.02300
H 	H 	0.74450 0.22480 0.75770 0.04400
H 	H 	0.82860 0.28060 0.70170 0.02400
H 	H 	0.04280 0.93220 0.91630 0.04400
H 	H 	0.04050 0.82060 0.91570 0.02400
O 	O 	0.75290 0.58360 0.84275 -0.67800
O 	O 	0.99020 0.58310 0.82062 -0.62800
O 	O 	0.75900 0.70810 0.88600 -0.66400
C 	C 	0.85050 0.57010 0.81770 0.56600
C 	C 	0.79890 0.53410 0.78210 -0.15800
C 	C 	0.90070 0.51530 0.75440 0.00800
C 	C 	0.84900 0.48160 0.72150 0.01800
C 	C 	0.77770 0.84020 0.89980 -0.01300
C 	C 	0.78040 0.90700 0.89920 0.02400
H 	H 	0.00550 0.52520 0.75770 0.04100
H 	H 	0.92140 0.46940 0.70170 0.02600
H 	H 	0.70720 0.81780 0.91630 0.04400
H 	H 	0.70950 0.92940 0.91570 0.02300
O 	O 	0.75290 0.08360 0.34275 -0.67800
O 	O 	0.99020 0.08310 0.32062 -0.62700
O 	O 	0.75900 0.20810 0.38600 -0.66400
C 	C 	0.85050 0.07010 0.31770 0.56900
C 	C 	0.79890 0.03410 0.28210 -0.16600
C 	C 	0.90070 0.01530 0.25440 0.02200
C 	C 	0.84900 0.98160 0.22150 0.00600
C 	C 	0.77770 0.34020 0.39980 -0.01100
C 	C 	0.78040 0.40700 0.39920 0.02300
H 	H 	0.00550 0.02520 0.25770 0.03500
H 	H 	0.92140 0.96940 0.20170 0.02900
H 	H 	0.70720 0.31780 0.41630 0.04400
H 	H 	0.70950 0.42940 0.41570 0.02400
O 	O 	0.25290 0.58360 0.34275 -0.67800
O 	O 	0.49020 0.58310 0.32062 -0.62800
O 	O 	0.25900 0.70810 0.38600 -0.66400
C 	C 	0.35050 0.57010 0.31770 0.56500
C 	C 	0.29890 0.53410 0.28210 -0.15700
C 	C 	0.40070 0.51530 0.25440 0.00600
C 	C 	0.34900 0.48160 0.22150 0.01900
C 	C 	0.27770 0.84020 0.39980 -0.01200
C 	C 	0.28040 0.90700 0.39920 0.02300
H 	H 	0.50550 0.52520 0.25770 0.04200
H 	H 	0.42140 0.46940 0.20170 0.02600
H 	H 	0.20720 0.81780 0.41630 0.04400
H 	H 	0.20950 0.92940 0.41570 0.02400
O 	O 	0.25290 0.08360 0.84275 -0.67800
O 	O 	0.49020 0.08310 0.82062 -0.62700
O 	O 	0.25900 0.20810 0.88600 -0.66500
C 	C 	0.35050 0.07010 0.81770 0.56300
C 	C 	0.29890 0.03410 0.78210 -0.15000
C 	C 	0.40070 0.01530 0.75440 -0.00200
C 	C 	0.34900 0.98160 0.72150 0.02700
C 	C 	0.27770 0.34020 0.89980 -0.01200
C 	C 	0.28040 0.40700 0.89920 0.02300
H 	H 	0.50550 0.02520 0.75770 0.04500
H 	H 	0.42140 0.96940 0.70170 0.02300
H 	H 	0.20720 0.31780 0.91630 0.04300
H 	H 	0.20950 0.42940 0.91570 0.02300
Sc	Sc	0.37500 0.37500 0.63595 2.35200
Sc	Sc	0.37500 0.87500 0.13595 2.35200
Sc	Sc	0.87500 0.37500 0.13595 2.35200
Sc	Sc	0.87500 0.87500 0.63595 2.35200
Sc	Sc	0.37500 0.37500 0.11405 2.35200
Sc	Sc	0.37500 0.87500 0.61405 2.35200
Sc	Sc	0.87500 0.37500 0.61405 2.35200
Sc	Sc	0.87500 0.87500 0.11405 2.35200
Sc	Sc	0.62500 0.62500 0.36405 2.35200
Sc	Sc	0.62500 0.12500 0.86405 2.35200
Sc	Sc	0.12500 0.62500 0.86405 2.35200
Sc	Sc	0.12500 0.12500 0.36405 2.35200
Sc	Sc	0.62500 0.62500 0.88595 2.35200
Sc	Sc	0.62500 0.12500 0.38595 2.35200
Sc	Sc	0.12500 0.62500 0.38595 2.35200
Sc	Sc	0.12500 0.12500 0.88595 2.35200
C 	C 	0.12500 0.48550 0.62500 0.60900
C 	C 	0.12500 0.55740 0.62500 -0.18100
C 	C 	0.12500 0.98550 0.12500 0.61100
C 	C 	0.12500 0.05740 0.12500 -0.18300
C 	C 	0.62500 0.98550 0.62500 0.60800
C 	C 	0.62500 0.05740 0.62500 -0.18000
C 	C 	0.62500 0.26450 0.62500 0.60900
C 	C 	0.62500 0.19260 0.62500 -0.18200
C 	C 	0.62500 0.76450 0.12500 0.60900
C 	C 	0.62500 0.69260 0.12500 -0.18200
C 	C 	0.62500 0.48550 0.12500 0.60900
C 	C 	0.62500 0.55740 0.12500 -0.18100
C 	C 	0.12500 0.26450 0.12500 0.60900
C 	C 	0.12500 0.19260 0.12500 -0.18100
C 	C 	0.12500 0.76450 0.62500 0.61000
C 	C 	0.12500 0.69260 0.62500 -0.18300
C 	C 	0.87500 0.51450 0.37500 0.60900
C 	C 	0.87500 0.44260 0.37500 -0.18100
C 	C 	0.87500 0.01450 0.87500 0.61100
C 	C 	0.87500 0.94260 0.87500 -0.18300
C 	C 	0.37500 0.73550 0.37500 0.60900
C 	C 	0.37500 0.80740 0.37500 -0.18200
C 	C 	0.37500 0.23550 0.87500 0.60900
C 	C 	0.37500 0.30740 0.87500 -0.18200
C 	C 	0.37500 0.51450 0.87500 0.60900
C 	C 	0.37500 0.44260 0.87500 -0.18100
C 	C 	0.37500 0.01450 0.37500 0.60800
C 	C 	0.37500 0.94260 0.37500 -0.18000
C 	C 	0.87500 0.73550 0.87500 0.60900
C 	C 	0.87500 0.80740 0.87500 -0.18100
C 	C 	0.87500 0.23550 0.37500 0.61000
C 	C 	0.87500 0.30740 0.37500 -0.18300
