data_crystal

_cell_length_a 8.71850
_cell_length_b 20.71420
_cell_length_c 34.26500
_cell_angle_alpha 90.00000
_cell_angle_beta  90.00000
_cell_angle_gamma 90.00000

_symmetry_space_group_name_	'P 1'
_symmetry_space_group_name_H-M	'P 1'

loop_
_symmetry_equiv_pos_as_xyz
  x,y,z

loop_
_atom_site_label
_atom_site_type_symbol
_atom_site_fract_x
_atom_site_fract_y
_atom_site_fract_z
_atom_site_charge
O 	O 	0.24480 0.33500 0.59237 -0.66800
O 	O 	0.00730 0.33390 0.57017 -0.62100
O 	O 	0.24090 0.45820 0.63702 -0.64400
C 	C 	0.14690 0.32060 0.56755 0.54900
C 	C 	0.20160 0.28420 0.53230 -0.14100
C 	C 	0.09580 0.26330 0.50502 -0.00100
C 	C 	0.14340 0.22890 0.47251 0.01000
C 	C 	0.20820 0.59110 0.65220 -0.00400
C 	C 	0.20730 0.65790 0.65230 0.01400
H 	H 	0.99000 0.27250 0.50860 0.04600
H 	H 	0.07090 0.21460 0.45370 0.02700
H 	H 	0.26170 0.56830 0.67210 0.04000
H 	H 	0.26130 0.68040 0.67220 0.02500
O 	O 	0.24480 0.83500 0.09237 -0.67000
O 	O 	0.00730 0.83390 0.07017 -0.62100
O 	O 	0.24090 0.95820 0.13702 -0.64500
C 	C 	0.14690 0.82060 0.06755 0.55000
C 	C 	0.20160 0.78420 0.03230 -0.14600
C 	C 	0.09580 0.76330 0.00502 0.01100
C 	C 	0.14340 0.72890 0.97251 0.00300
C 	C 	0.20820 0.09110 0.15220 -0.00300
C 	C 	0.20730 0.15790 0.15230 0.01400
H 	H 	0.99000 0.77250 0.00860 0.03900
H 	H 	0.07090 0.71460 0.95370 0.03100
H 	H 	0.26170 0.06830 0.17210 0.03900
H 	H 	0.26130 0.18040 0.17220 0.02500
O 	O 	0.74480 0.33500 0.09237 -0.66900
O 	O 	0.50730 0.33390 0.07017 -0.62200
O 	O 	0.74090 0.45820 0.13702 -0.64500
C 	C 	0.64690 0.32060 0.06755 0.54800
C 	C 	0.70160 0.28420 0.03230 -0.14000
C 	C 	0.59580 0.26330 0.00502 -0.00000
C 	C 	0.64340 0.22890 0.97251 0.01100
C 	C 	0.70820 0.59110 0.15220 -0.00400
C 	C 	0.70730 0.65790 0.15230 0.01400
H 	H 	0.49000 0.27250 0.00860 0.04500
H 	H 	0.57090 0.21460 0.95370 0.02800
H 	H 	0.76170 0.56830 0.17210 0.04000
H 	H 	0.76130 0.68040 0.17220 0.02500
O 	O 	0.74480 0.83500 0.59237 -0.67000
O 	O 	0.50730 0.83390 0.57017 -0.62200
O 	O 	0.74090 0.95820 0.63702 -0.64600
C 	C 	0.64690 0.82060 0.56755 0.54900
C 	C 	0.70160 0.78420 0.53230 -0.14400
C 	C 	0.59580 0.76330 0.50502 0.00400
C 	C 	0.64340 0.72890 0.47251 0.00700
C 	C 	0.70820 0.09110 0.65220 -0.00500
C 	C 	0.70730 0.15790 0.65230 0.01500
H 	H 	0.49000 0.77250 0.50860 0.04400
H 	H 	0.57090 0.71460 0.45370 0.02900
H 	H 	0.76170 0.06830 0.67210 0.04100
H 	H 	0.76130 0.18040 0.67220 0.02500
O 	O 	0.50520 0.41500 0.59237 -0.67000
O 	O 	0.74270 0.41610 0.57017 -0.62200
O 	O 	0.50910 0.29180 0.63702 -0.64500
C 	C 	0.60310 0.42940 0.56755 0.54900
C 	C 	0.54840 0.46580 0.53230 -0.14300
C 	C 	0.65420 0.48670 0.50502 0.00300
C 	C 	0.60660 0.52110 0.47251 0.00800
C 	C 	0.54180 0.15890 0.65220 -0.00400
C 	C 	0.54270 0.09210 0.65230 0.01400
H 	H 	0.76000 0.47750 0.50860 0.04400
H 	H 	0.67910 0.53540 0.45370 0.02900
H 	H 	0.48830 0.18170 0.67210 0.04000
H 	H 	0.48870 0.06960 0.67220 0.02500
O 	O 	0.50520 0.91500 0.09237 -0.67000
O 	O 	0.74270 0.91610 0.07017 -0.62300
O 	O 	0.50910 0.79180 0.13702 -0.64500
C 	C 	0.60310 0.92940 0.06755 0.54900
C 	C 	0.54840 0.96580 0.03230 -0.14300
C 	C 	0.65420 0.98670 0.00502 0.00200
C 	C 	0.60660 0.02110 0.97251 0.00900
C 	C 	0.54180 0.65890 0.15220 -0.00400
C 	C 	0.54270 0.59210 0.15230 0.01500
H 	H 	0.76000 0.97750 0.00860 0.04400
H 	H 	0.67910 0.03540 0.95370 0.02900
H 	H 	0.48830 0.68170 0.17210 0.04000
H 	H 	0.48870 0.56960 0.17220 0.02500
O 	O 	0.00520 0.41500 0.09237 -0.66900
O 	O 	0.24270 0.41610 0.07017 -0.62200
O 	O 	0.00910 0.29180 0.13702 -0.64500
C 	C 	0.10310 0.42940 0.06755 0.54800
C 	C 	0.04840 0.46580 0.03230 -0.14100
C 	C 	0.15420 0.48670 0.00502 0.00400
C 	C 	0.10660 0.52110 0.97251 0.00600
C 	C 	0.04180 0.15890 0.15220 -0.00400
C 	C 	0.04270 0.09210 0.15230 0.01300
H 	H 	0.26000 0.47750 0.00860 0.04400
H 	H 	0.17910 0.53540 0.95370 0.02900
H 	H 	0.98830 0.18170 0.17210 0.04000
H 	H 	0.98870 0.06960 0.17220 0.02600
O 	O 	0.00520 0.91500 0.59237 -0.66800
O 	O 	0.24270 0.91610 0.57017 -0.62200
O 	O 	0.00910 0.79180 0.63702 -0.64400
C 	C 	0.10310 0.92940 0.56755 0.54800
C 	C 	0.04840 0.96580 0.53230 -0.13900
C 	C 	0.15420 0.98670 0.50502 0.00600
C 	C 	0.10660 0.02110 0.47251 0.00100
C 	C 	0.04180 0.65890 0.65220 -0.00100
C 	C 	0.04270 0.59210 0.65230 0.01500
H 	H 	0.26000 0.97750 0.50860 0.04300
H 	H 	0.17910 0.03540 0.45370 0.03100
H 	H 	0.98830 0.68170 0.67210 0.03800
H 	H 	0.98870 0.56960 0.67220 0.02400
O 	O 	0.50520 0.33500 0.15763 -0.66900
O 	O 	0.74270 0.33390 0.17983 -0.62200
O 	O 	0.50910 0.45820 0.11298 -0.64500
C 	C 	0.60310 0.32060 0.18245 0.54900
C 	C 	0.54840 0.28420 0.21770 -0.14200
C 	C 	0.65420 0.26330 0.24498 0.00300
C 	C 	0.60660 0.22890 0.27749 0.00800
C 	C 	0.54180 0.59110 0.09780 -0.00400
C 	C 	0.54270 0.65790 0.09770 0.01500
H 	H 	0.76000 0.27250 0.24140 0.04400
H 	H 	0.67910 0.21460 0.29630 0.02900
H 	H 	0.48830 0.56830 0.07790 0.04000
H 	H 	0.48870 0.68040 0.07780 0.02500
O 	O 	0.50520 0.83500 0.65763 -0.67000
O 	O 	0.74270 0.83390 0.67983 -0.62300
O 	O 	0.50910 0.95820 0.61298 -0.64500
C 	C 	0.60310 0.82060 0.68245 0.54900
C 	C 	0.54840 0.78420 0.71770 -0.14300
C 	C 	0.65420 0.76330 0.74498 0.00300
C 	C 	0.60660 0.72890 0.77749 0.00800
C 	C 	0.54180 0.09110 0.59780 -0.00500
C 	C 	0.54270 0.15790 0.59770 0.01500
H 	H 	0.76000 0.77250 0.74140 0.04400
H 	H 	0.67910 0.71460 0.79630 0.02900
H 	H 	0.48830 0.06830 0.57790 0.04000
H 	H 	0.48870 0.18040 0.57780 0.02500
O 	O 	0.00520 0.33500 0.65763 -0.67000
O 	O 	0.24270 0.33390 0.67983 -0.62300
O 	O 	0.00910 0.45820 0.61298 -0.64500
C 	C 	0.10310 0.32060 0.68245 0.55000
C 	C 	0.04840 0.28420 0.71770 -0.14700
C 	C 	0.15420 0.26330 0.74498 0.00700
C 	C 	0.10660 0.22890 0.77749 0.00100
C 	C 	0.04180 0.59110 0.59780 -0.00300
C 	C 	0.04270 0.65790 0.59770 0.01700
H 	H 	0.26000 0.27250 0.74140 0.04300
H 	H 	0.17910 0.21460 0.79630 0.03100
H 	H 	0.98830 0.56830 0.57790 0.03900
H 	H 	0.98870 0.68040 0.57780 0.02300
O 	O 	0.00520 0.83500 0.15763 -0.66800
O 	O 	0.24270 0.83390 0.17983 -0.62200
O 	O 	0.00910 0.95820 0.11298 -0.64400
C 	C 	0.10310 0.82060 0.18245 0.54700
C 	C 	0.04840 0.78420 0.21770 -0.13700
C 	C 	0.15420 0.76330 0.24498 -0.00200
C 	C 	0.10660 0.72890 0.27749 0.01300
C 	C 	0.04180 0.09110 0.09780 -0.00500
C 	C 	0.04270 0.15790 0.09770 0.01400
H 	H 	0.26000 0.77250 0.24140 0.04500
H 	H 	0.17910 0.71460 0.29630 0.02700
H 	H 	0.98830 0.06830 0.07790 0.04100
H 	H 	0.98870 0.18040 0.07780 0.02500
O 	O 	0.24480 0.41500 0.15763 -0.66900
O 	O 	0.00730 0.41610 0.17983 -0.62200
O 	O 	0.24090 0.29180 0.11298 -0.64500
C 	C 	0.14690 0.42940 0.18245 0.54900
C 	C 	0.20160 0.46580 0.21770 -0.14300
C 	C 	0.09580 0.48670 0.24498 0.00400
C 	C 	0.14340 0.52110 0.27749 0.00700
C 	C 	0.20820 0.15890 0.09780 -0.00500
C 	C 	0.20730 0.09210 0.09770 0.01600
H 	H 	0.99000 0.47750 0.24140 0.04300
H 	H 	0.07090 0.53540 0.29630 0.02900
H 	H 	0.26170 0.18170 0.07790 0.04000
H 	H 	0.26130 0.06960 0.07780 0.02400
O 	O 	0.24480 0.91500 0.65763 -0.67000
O 	O 	0.00730 0.91610 0.67983 -0.62100
O 	O 	0.24090 0.79180 0.61298 -0.64500
C 	C 	0.14690 0.92940 0.68245 0.55100
C 	C 	0.20160 0.96580 0.71770 -0.14900
C 	C 	0.09580 0.98670 0.74498 0.01600
C 	C 	0.14340 0.02110 0.77749 -0.00200
C 	C 	0.20820 0.65890 0.59780 -0.00400
C 	C 	0.20730 0.59210 0.59770 0.01400
H 	H 	0.99000 0.97750 0.74140 0.03800
H 	H 	0.07090 0.03540 0.79630 0.03100
H 	H 	0.26170 0.68170 0.57790 0.04000
H 	H 	0.26130 0.56960 0.57780 0.02500
O 	O 	0.74480 0.41500 0.65763 -0.67000
O 	O 	0.50730 0.41610 0.67983 -0.62200
O 	O 	0.74090 0.29180 0.61298 -0.64500
C 	C 	0.64690 0.42940 0.68245 0.54900
C 	C 	0.70160 0.46580 0.71770 -0.14200
C 	C 	0.59580 0.48670 0.74498 0.00200
C 	C 	0.64340 0.52110 0.77749 0.00800
C 	C 	0.70820 0.15890 0.59780 -0.00400
C 	C 	0.70730 0.09210 0.59770 0.01400
H 	H 	0.49000 0.47750 0.74140 0.04400
H 	H 	0.57090 0.53540 0.79630 0.02900
H 	H 	0.76170 0.18170 0.57790 0.04000
H 	H 	0.76130 0.06960 0.57780 0.02600
O 	O 	0.74480 0.91500 0.15763 -0.67000
O 	O 	0.50730 0.91610 0.17983 -0.62200
O 	O 	0.74090 0.79180 0.11298 -0.64600
C 	C 	0.64690 0.92940 0.18245 0.54700
C 	C 	0.70160 0.96580 0.21770 -0.13700
C 	C 	0.59580 0.98670 0.24498 -0.00400
C 	C 	0.64340 0.02110 0.27749 0.01400
C 	C 	0.70820 0.65890 0.09780 -0.00400
C 	C 	0.70730 0.59210 0.09770 0.01400
H 	H 	0.49000 0.97750 0.24140 0.04600
H 	H 	0.57090 0.03540 0.29630 0.02700
H 	H 	0.76170 0.68170 0.07790 0.04000
H 	H 	0.76130 0.56960 0.07780 0.02500
O 	O 	0.75520 0.66500 0.40763 -0.66900
O 	O 	0.99270 0.66610 0.42983 -0.62200
O 	O 	0.75910 0.54180 0.36298 -0.64500
C 	C 	0.85310 0.67940 0.43245 0.54800
C 	C 	0.79840 0.71580 0.46770 -0.14100
C 	C 	0.90420 0.73670 0.49498 -0.00100
C 	C 	0.85660 0.77110 0.52749 0.01000
C 	C 	0.79180 0.40890 0.34780 -0.00400
C 	C 	0.79270 0.34210 0.34770 0.01400
H 	H 	0.01000 0.72750 0.49140 0.04600
H 	H 	0.92910 0.78540 0.54630 0.02700
H 	H 	0.73830 0.43170 0.32790 0.04000
H 	H 	0.73870 0.31960 0.32780 0.02500
O 	O 	0.75520 0.16500 0.90763 -0.67000
O 	O 	0.99270 0.16610 0.92983 -0.62100
O 	O 	0.75910 0.04180 0.86298 -0.64500
C 	C 	0.85310 0.17940 0.93245 0.55000
C 	C 	0.79840 0.21580 0.96770 -0.14600
C 	C 	0.90420 0.23670 0.99498 0.01100
C 	C 	0.85660 0.27110 0.02749 0.00300
C 	C 	0.79180 0.90890 0.84780 -0.00300
C 	C 	0.79270 0.84210 0.84770 0.01400
H 	H 	0.01000 0.22750 0.99140 0.03900
H 	H 	0.92910 0.28540 0.04630 0.03100
H 	H 	0.73830 0.93170 0.82790 0.03900
H 	H 	0.73870 0.81960 0.82780 0.02500
O 	O 	0.25520 0.66500 0.90763 -0.66900
O 	O 	0.49270 0.66610 0.92983 -0.62200
O 	O 	0.25910 0.54180 0.86298 -0.64500
C 	C 	0.35310 0.67940 0.93245 0.54800
C 	C 	0.29840 0.71580 0.96770 -0.14000
C 	C 	0.40420 0.73670 0.99498 -0.00000
C 	C 	0.35660 0.77110 0.02749 0.01100
C 	C 	0.29180 0.40890 0.84780 -0.00400
C 	C 	0.29270 0.34210 0.84770 0.01400
H 	H 	0.51000 0.72750 0.99140 0.04500
H 	H 	0.42910 0.78540 0.04630 0.02800
H 	H 	0.23830 0.43170 0.82790 0.04000
H 	H 	0.23870 0.31960 0.82780 0.02500
O 	O 	0.25520 0.16500 0.40763 -0.67000
O 	O 	0.49270 0.16610 0.42983 -0.62200
O 	O 	0.25910 0.04180 0.36298 -0.64600
C 	C 	0.35310 0.17940 0.43245 0.54900
C 	C 	0.29840 0.21580 0.46770 -0.14400
C 	C 	0.40420 0.23670 0.49498 0.00400
C 	C 	0.35660 0.27110 0.52749 0.00700
C 	C 	0.29180 0.90890 0.34780 -0.00500
C 	C 	0.29270 0.84210 0.34770 0.01500
H 	H 	0.51000 0.22750 0.49140 0.04400
H 	H 	0.42910 0.28540 0.54630 0.02900
H 	H 	0.23830 0.93170 0.32790 0.04100
H 	H 	0.23870 0.81960 0.32780 0.02500
O 	O 	0.49480 0.58500 0.40763 -0.67000
O 	O 	0.25730 0.58390 0.42983 -0.62200
O 	O 	0.49090 0.70820 0.36298 -0.64500
C 	C 	0.39690 0.57060 0.43245 0.54900
C 	C 	0.45160 0.53420 0.46770 -0.14300
C 	C 	0.34580 0.51330 0.49498 0.00300
C 	C 	0.39340 0.47890 0.52749 0.00800
C 	C 	0.45820 0.84110 0.34780 -0.00400
C 	C 	0.45730 0.90790 0.34770 0.01400
H 	H 	0.24000 0.52250 0.49140 0.04400
H 	H 	0.32090 0.46460 0.54630 0.02900
H 	H 	0.51170 0.81830 0.32790 0.04000
H 	H 	0.51130 0.93040 0.32780 0.02500
O 	O 	0.49480 0.08500 0.90763 -0.67000
O 	O 	0.25730 0.08390 0.92983 -0.62300
O 	O 	0.49090 0.20820 0.86298 -0.64500
C 	C 	0.39690 0.07060 0.93245 0.54900
C 	C 	0.45160 0.03420 0.96770 -0.14300
C 	C 	0.34580 0.01330 0.99498 0.00200
C 	C 	0.39340 0.97890 0.02749 0.00900
C 	C 	0.45820 0.34110 0.84780 -0.00400
C 	C 	0.45730 0.40790 0.84770 0.01500
H 	H 	0.24000 0.02250 0.99140 0.04400
H 	H 	0.32090 0.96460 0.04630 0.02900
H 	H 	0.51170 0.31830 0.82790 0.04000
H 	H 	0.51130 0.43040 0.82780 0.02500
O 	O 	0.99480 0.58500 0.90763 -0.66900
O 	O 	0.75730 0.58390 0.92983 -0.62200
O 	O 	0.99090 0.70820 0.86298 -0.64500
C 	C 	0.89690 0.57060 0.93245 0.54800
C 	C 	0.95160 0.53420 0.96770 -0.14100
C 	C 	0.84580 0.51330 0.99498 0.00400
C 	C 	0.89340 0.47890 0.02749 0.00600
C 	C 	0.95820 0.84110 0.84780 -0.00400
C 	C 	0.95730 0.90790 0.84770 0.01300
H 	H 	0.74000 0.52250 0.99140 0.04400
H 	H 	0.82090 0.46460 0.04630 0.02900
H 	H 	0.01170 0.81830 0.82790 0.04000
H 	H 	0.01130 0.93040 0.82780 0.02600
O 	O 	0.99480 0.08500 0.40763 -0.66800
O 	O 	0.75730 0.08390 0.42983 -0.62200
O 	O 	0.99090 0.20820 0.36298 -0.64400
C 	C 	0.89690 0.07060 0.43245 0.54800
C 	C 	0.95160 0.03420 0.46770 -0.13900
C 	C 	0.84580 0.01330 0.49498 0.00600
C 	C 	0.89340 0.97890 0.52749 0.00100
C 	C 	0.95820 0.34110 0.34780 -0.00100
C 	C 	0.95730 0.40790 0.34770 0.01500
H 	H 	0.74000 0.02250 0.49140 0.04300
H 	H 	0.82090 0.96460 0.54630 0.03100
H 	H 	0.01170 0.31830 0.32790 0.03800
H 	H 	0.01130 0.43040 0.32780 0.02400
O 	O 	0.49480 0.66500 0.84237 -0.66900
O 	O 	0.25730 0.66610 0.82017 -0.62200
O 	O 	0.49090 0.54180 0.88702 -0.64500
C 	C 	0.39690 0.67940 0.81755 0.54900
C 	C 	0.45160 0.71580 0.78230 -0.14200
C 	C 	0.34580 0.73670 0.75502 0.00300
C 	C 	0.39340 0.77110 0.72251 0.00800
C 	C 	0.45820 0.40890 0.90220 -0.00400
C 	C 	0.45730 0.34210 0.90230 0.01500
H 	H 	0.24000 0.72750 0.75860 0.04400
H 	H 	0.32090 0.78540 0.70370 0.02900
H 	H 	0.51170 0.43170 0.92210 0.04000
H 	H 	0.51130 0.31960 0.92220 0.02500
O 	O 	0.49480 0.16500 0.34237 -0.67000
O 	O 	0.25730 0.16610 0.32017 -0.62300
O 	O 	0.49090 0.04180 0.38702 -0.64500
C 	C 	0.39690 0.17940 0.31755 0.54900
C 	C 	0.45160 0.21580 0.28230 -0.14300
C 	C 	0.34580 0.23670 0.25502 0.00300
C 	C 	0.39340 0.27110 0.22251 0.00800
C 	C 	0.45820 0.90890 0.40220 -0.00500
C 	C 	0.45730 0.84210 0.40230 0.01500
H 	H 	0.24000 0.22750 0.25860 0.04400
H 	H 	0.32090 0.28540 0.20370 0.02900
H 	H 	0.51170 0.93170 0.42210 0.04000
H 	H 	0.51130 0.81960 0.42220 0.02500
O 	O 	0.99480 0.66500 0.34237 -0.67000
O 	O 	0.75730 0.66610 0.32017 -0.62300
O 	O 	0.99090 0.54180 0.38702 -0.64500
C 	C 	0.89690 0.67940 0.31755 0.55000
C 	C 	0.95160 0.71580 0.28230 -0.14700
C 	C 	0.84580 0.73670 0.25502 0.00700
C 	C 	0.89340 0.77110 0.22251 0.00100
C 	C 	0.95820 0.40890 0.40220 -0.00300
C 	C 	0.95730 0.34210 0.40230 0.01700
H 	H 	0.74000 0.72750 0.25860 0.04300
H 	H 	0.82090 0.78540 0.20370 0.03100
H 	H 	0.01170 0.43170 0.42210 0.03900
H 	H 	0.01130 0.31960 0.42220 0.02300
O 	O 	0.99480 0.16500 0.84237 -0.66800
O 	O 	0.75730 0.16610 0.82017 -0.62200
O 	O 	0.99090 0.04180 0.88702 -0.64400
C 	C 	0.89690 0.17940 0.81755 0.54700
C 	C 	0.95160 0.21580 0.78230 -0.13700
C 	C 	0.84580 0.23670 0.75502 -0.00200
C 	C 	0.89340 0.27110 0.72251 0.01300
C 	C 	0.95820 0.90890 0.90220 -0.00500
C 	C 	0.95730 0.84210 0.90230 0.01400
H 	H 	0.74000 0.22750 0.75860 0.04500
H 	H 	0.82090 0.28540 0.70370 0.02700
H 	H 	0.01170 0.93170 0.92210 0.04100
H 	H 	0.01130 0.81960 0.92220 0.02500
O 	O 	0.75520 0.58500 0.84237 -0.66900
O 	O 	0.99270 0.58390 0.82017 -0.62200
O 	O 	0.75910 0.70820 0.88702 -0.64500
C 	C 	0.85310 0.57060 0.81755 0.54900
C 	C 	0.79840 0.53420 0.78230 -0.14300
C 	C 	0.90420 0.51330 0.75502 0.00400
C 	C 	0.85660 0.47890 0.72251 0.00700
C 	C 	0.79180 0.84110 0.90220 -0.00500
C 	C 	0.79270 0.90790 0.90230 0.01600
H 	H 	0.01000 0.52250 0.75860 0.04300
H 	H 	0.92910 0.46460 0.70370 0.02900
H 	H 	0.73830 0.81830 0.92210 0.04000
H 	H 	0.73870 0.93040 0.92220 0.02400
O 	O 	0.75520 0.08500 0.34237 -0.67000
O 	O 	0.99270 0.08390 0.32017 -0.62100
O 	O 	0.75910 0.20820 0.38702 -0.64500
C 	C 	0.85310 0.07060 0.31755 0.55100
C 	C 	0.79840 0.03420 0.28230 -0.14900
C 	C 	0.90420 0.01330 0.25502 0.01600
C 	C 	0.85660 0.97890 0.22251 -0.00200
C 	C 	0.79180 0.34110 0.40220 -0.00400
C 	C 	0.79270 0.40790 0.40230 0.01400
H 	H 	0.01000 0.02250 0.25860 0.03800
H 	H 	0.92910 0.96460 0.20370 0.03100
H 	H 	0.73830 0.31830 0.42210 0.04000
H 	H 	0.73870 0.43040 0.42220 0.02500
O 	O 	0.25520 0.58500 0.34237 -0.67000
O 	O 	0.49270 0.58390 0.32017 -0.62200
O 	O 	0.25910 0.70820 0.38702 -0.64500
C 	C 	0.35310 0.57060 0.31755 0.54900
C 	C 	0.29840 0.53420 0.28230 -0.14200
C 	C 	0.40420 0.51330 0.25502 0.00200
C 	C 	0.35660 0.47890 0.22251 0.00800
C 	C 	0.29180 0.84110 0.40220 -0.00400
C 	C 	0.29270 0.90790 0.40230 0.01400
H 	H 	0.51000 0.52250 0.25860 0.04400
H 	H 	0.42910 0.46460 0.20370 0.02900
H 	H 	0.23830 0.81830 0.42210 0.04000
H 	H 	0.23870 0.93040 0.42220 0.02600
O 	O 	0.25520 0.08500 0.84237 -0.67000
O 	O 	0.49270 0.08390 0.82017 -0.62200
O 	O 	0.25910 0.20820 0.88702 -0.64600
C 	C 	0.35310 0.07060 0.81755 0.54700
C 	C 	0.29840 0.03420 0.78230 -0.13700
C 	C 	0.40420 0.01330 0.75502 -0.00400
C 	C 	0.35660 0.97890 0.72251 0.01400
C 	C 	0.29180 0.34110 0.90220 -0.00400
C 	C 	0.29270 0.40790 0.90230 0.01400
H 	H 	0.51000 0.02250 0.75860 0.04600
H 	H 	0.42910 0.96460 0.70370 0.02700
H 	H 	0.23830 0.31830 0.92210 0.04000
H 	H 	0.23870 0.43040 0.92220 0.02500
Sc	Sc	0.37500 0.37500 0.63596 2.35100
Sc	Sc	0.37500 0.87500 0.13596 2.35100
Sc	Sc	0.87500 0.37500 0.13596 2.35100
Sc	Sc	0.87500 0.87500 0.63596 2.35000
Sc	Sc	0.37500 0.37500 0.11404 2.35100
Sc	Sc	0.37500 0.87500 0.61404 2.35100
Sc	Sc	0.87500 0.37500 0.61404 2.35100
Sc	Sc	0.87500 0.87500 0.11404 2.35000
Sc	Sc	0.62500 0.62500 0.36404 2.35100
Sc	Sc	0.62500 0.12500 0.86404 2.35100
Sc	Sc	0.12500 0.62500 0.86404 2.35100
Sc	Sc	0.12500 0.12500 0.36404 2.35000
Sc	Sc	0.62500 0.62500 0.88596 2.35100
Sc	Sc	0.62500 0.12500 0.38596 2.35100
Sc	Sc	0.12500 0.62500 0.38596 2.35100
Sc	Sc	0.12500 0.12500 0.88596 2.35000
C 	C 	0.12500 0.48660 0.62500 0.56700
C 	C 	0.12500 0.55780 0.62500 -0.17500
C 	C 	0.12500 0.98660 0.12500 0.56900
C 	C 	0.12500 0.05780 0.12500 -0.17700
C 	C 	0.62500 0.98660 0.62500 0.56600
C 	C 	0.62500 0.05780 0.62500 -0.17300
C 	C 	0.62500 0.26340 0.62500 0.56700
C 	C 	0.62500 0.19220 0.62500 -0.17500
C 	C 	0.62500 0.76340 0.12500 0.56700
C 	C 	0.62500 0.69220 0.12500 -0.17500
C 	C 	0.62500 0.48660 0.12500 0.56700
C 	C 	0.62500 0.55780 0.12500 -0.17500
C 	C 	0.12500 0.26340 0.12500 0.56600
C 	C 	0.12500 0.19220 0.12500 -0.17400
C 	C 	0.12500 0.76340 0.62500 0.56700
C 	C 	0.12500 0.69220 0.62500 -0.17600
C 	C 	0.87500 0.51340 0.37500 0.56700
C 	C 	0.87500 0.44220 0.37500 -0.17500
C 	C 	0.87500 0.01340 0.87500 0.56900
C 	C 	0.87500 0.94220 0.87500 -0.17700
C 	C 	0.37500 0.73660 0.37500 0.56700
C 	C 	0.37500 0.80780 0.37500 -0.17500
C 	C 	0.37500 0.23660 0.87500 0.56700
C 	C 	0.37500 0.30780 0.87500 -0.17500
C 	C 	0.37500 0.51340 0.87500 0.56700
C 	C 	0.37500 0.44220 0.87500 -0.17500
C 	C 	0.37500 0.01340 0.37500 0.56600
C 	C 	0.37500 0.94220 0.37500 -0.17300
C 	C 	0.87500 0.73660 0.87500 0.56600
C 	C 	0.87500 0.80780 0.87500 -0.17400
C 	C 	0.87500 0.23660 0.37500 0.56700
C 	C 	0.87500 0.30780 0.37500 -0.17600
