data_crystal

_cell_length_a 8.77900
_cell_length_b 20.74200
_cell_length_c 34.28700
_cell_angle_alpha 90.00000
_cell_angle_beta  90.00000
_cell_angle_gamma 90.00000

_symmetry_space_group_name_	'P 1'
_symmetry_space_group_name_H-M	'P 1'

loop_
_symmetry_equiv_pos_as_xyz
  x,y,z

loop_
_atom_site_label
_atom_site_type_symbol
_atom_site_fract_x
_atom_site_fract_y
_atom_site_fract_z
_atom_site_charge
O 	O 	0.24590 0.33440 0.59262 -0.66800
O 	O 	0.00910 0.33320 0.57028 -0.61500
O 	O 	0.24300 0.45820 0.63522 -0.65100
C 	C 	0.14840 0.32030 0.56770 0.53800
C 	C 	0.20210 0.28370 0.53240 -0.14000
C 	C 	0.09630 0.26420 0.50450 -0.00500
C 	C 	0.14780 0.23060 0.47220 0.01300
C 	C 	0.25550 0.58950 0.63740 0.01200
C 	C 	0.25140 0.65650 0.63700 -0.01600
H 	H 	0.99100 0.27360 0.50770 0.04700
H 	H 	0.07700 0.21730 0.45290 0.02800
H 	H 	0.34310 0.56650 0.64580 0.03100
H 	H 	0.33930 0.67940 0.64540 0.03400
O 	O 	0.24590 0.83440 0.09262 -0.66700
O 	O 	0.00910 0.83320 0.07028 -0.61300
O 	O 	0.24300 0.95820 0.13522 -0.65100
C 	C 	0.14840 0.82030 0.06770 0.54100
C 	C 	0.20210 0.78370 0.03240 -0.14400
C 	C 	0.09630 0.76420 0.00450 0.00800
C 	C 	0.14780 0.73060 0.97220 0.00700
C 	C 	0.25550 0.08950 0.13740 0.01400
C 	C 	0.25140 0.15650 0.13700 -0.01500
H 	H 	0.99100 0.77360 0.00770 0.04200
H 	H 	0.07700 0.71730 0.95290 0.03100
H 	H 	0.34310 0.06650 0.14580 0.03100
H 	H 	0.33930 0.17940 0.14540 0.03400
O 	O 	0.74590 0.33440 0.09262 -0.66700
O 	O 	0.50910 0.33320 0.07028 -0.61400
O 	O 	0.74300 0.45820 0.13522 -0.65100
C 	C 	0.64840 0.32030 0.06770 0.53800
C 	C 	0.70210 0.28370 0.03240 -0.13700
C 	C 	0.59630 0.26420 0.00450 -0.00400
C 	C 	0.64780 0.23060 0.97220 0.01600
C 	C 	0.75550 0.58950 0.13740 0.01300
C 	C 	0.75140 0.65650 0.13700 -0.01400
H 	H 	0.49100 0.27360 0.00770 0.04800
H 	H 	0.57700 0.21730 0.95290 0.02800
H 	H 	0.84310 0.56650 0.14580 0.03100
H 	H 	0.83930 0.67940 0.14540 0.03300
O 	O 	0.74590 0.83440 0.59262 -0.66800
O 	O 	0.50910 0.83320 0.57028 -0.61400
O 	O 	0.74300 0.95820 0.63522 -0.65100
C 	C 	0.64840 0.82030 0.56770 0.54000
C 	C 	0.70210 0.78370 0.53240 -0.14200
C 	C 	0.59630 0.76420 0.50450 0.00000
C 	C 	0.64780 0.73060 0.47220 0.01100
C 	C 	0.75550 0.08950 0.63740 0.01300
C 	C 	0.75140 0.15650 0.63700 -0.01400
H 	H 	0.49100 0.77360 0.50770 0.04600
H 	H 	0.57700 0.71730 0.45290 0.03000
H 	H 	0.84310 0.06650 0.64580 0.03200
H 	H 	0.83930 0.17940 0.64540 0.03400
O 	O 	0.50410 0.41560 0.59262 -0.66700
O 	O 	0.74090 0.41680 0.57028 -0.61400
O 	O 	0.50700 0.29180 0.63522 -0.65000
C 	C 	0.60160 0.42970 0.56770 0.54000
C 	C 	0.54790 0.46630 0.53240 -0.14100
C 	C 	0.65370 0.48580 0.50450 -0.00100
C 	C 	0.60220 0.51940 0.47220 0.01200
C 	C 	0.49450 0.16050 0.63740 0.01300
C 	C 	0.49860 0.09350 0.63700 -0.01400
H 	H 	0.75900 0.47640 0.50770 0.04600
H 	H 	0.67300 0.53270 0.45290 0.02900
H 	H 	0.40690 0.18350 0.64580 0.03100
H 	H 	0.41070 0.07060 0.64540 0.03300
O 	O 	0.50410 0.91560 0.09262 -0.66700
O 	O 	0.74090 0.91680 0.07028 -0.61500
O 	O 	0.50700 0.79180 0.13522 -0.65000
C 	C 	0.60160 0.92970 0.06770 0.54000
C 	C 	0.54790 0.96630 0.03240 -0.14100
C 	C 	0.65370 0.98580 0.00450 -0.00200
C 	C 	0.60220 0.01940 0.97220 0.01400
C 	C 	0.49450 0.66050 0.13740 0.01300
C 	C 	0.49860 0.59350 0.13700 -0.01400
H 	H 	0.75900 0.97640 0.00770 0.04600
H 	H 	0.67300 0.03270 0.95290 0.02900
H 	H 	0.40690 0.68350 0.14580 0.03100
H 	H 	0.41070 0.57060 0.14540 0.03400
O 	O 	0.00410 0.41560 0.09262 -0.66700
O 	O 	0.24090 0.41680 0.07028 -0.61400
O 	O 	0.00700 0.29180 0.13522 -0.65000
C 	C 	0.10160 0.42970 0.06770 0.53900
C 	C 	0.04790 0.46630 0.03240 -0.13900
C 	C 	0.15370 0.48580 0.00450 0.00000
C 	C 	0.10220 0.51940 0.97220 0.01000
C 	C 	0.99450 0.16050 0.13740 0.01300
C 	C 	0.99860 0.09350 0.13700 -0.01300
H 	H 	0.25900 0.47640 0.00770 0.04600
H 	H 	0.17300 0.53270 0.95290 0.03000
H 	H 	0.90690 0.18350 0.14580 0.03100
H 	H 	0.91070 0.07060 0.14540 0.03300
O 	O 	0.00410 0.91560 0.59262 -0.66600
O 	O 	0.24090 0.91680 0.57028 -0.61300
O 	O 	0.00700 0.79180 0.63522 -0.64900
C 	C 	0.10160 0.92970 0.56770 0.53900
C 	C 	0.04790 0.96630 0.53240 -0.13700
C 	C 	0.15370 0.98580 0.50450 0.00300
C 	C 	0.10220 0.01940 0.47220 0.00500
C 	C 	0.99450 0.66050 0.63740 0.01200
C 	C 	0.99860 0.59350 0.63700 -0.01500
H 	H 	0.25900 0.97640 0.50770 0.04500
H 	H 	0.17300 0.03270 0.45290 0.03100
H 	H 	0.90690 0.68350 0.64580 0.03100
H 	H 	0.91070 0.57060 0.64540 0.03400
O 	O 	0.50410 0.33440 0.15738 -0.66700
O 	O 	0.74090 0.33320 0.17972 -0.61400
O 	O 	0.50700 0.45820 0.11478 -0.65000
C 	C 	0.60160 0.32030 0.18230 0.54000
C 	C 	0.54790 0.28370 0.21760 -0.14000
C 	C 	0.65370 0.26420 0.24550 -0.00100
C 	C 	0.60220 0.23060 0.27780 0.01200
C 	C 	0.49450 0.58950 0.11260 0.01300
C 	C 	0.49860 0.65650 0.11300 -0.01400
H 	H 	0.75900 0.27360 0.24230 0.04700
H 	H 	0.67300 0.21730 0.29710 0.02900
H 	H 	0.40690 0.56650 0.10420 0.03100
H 	H 	0.41070 0.67940 0.10460 0.03400
O 	O 	0.50410 0.83440 0.65738 -0.66700
O 	O 	0.74090 0.83320 0.67972 -0.61500
O 	O 	0.50700 0.95820 0.61478 -0.65000
C 	C 	0.60160 0.82030 0.68230 0.54000
C 	C 	0.54790 0.78370 0.71760 -0.14100
C 	C 	0.65370 0.76420 0.74550 -0.00100
C 	C 	0.60220 0.73060 0.77780 0.01200
C 	C 	0.49450 0.08950 0.61260 0.01300
C 	C 	0.49860 0.15650 0.61300 -0.01400
H 	H 	0.75900 0.77360 0.74230 0.04600
H 	H 	0.67300 0.71730 0.79710 0.02900
H 	H 	0.40690 0.06650 0.60420 0.03100
H 	H 	0.41070 0.17940 0.60460 0.03400
O 	O 	0.00410 0.33440 0.65738 -0.66800
O 	O 	0.24090 0.33320 0.67972 -0.61400
O 	O 	0.00700 0.45820 0.61478 -0.65000
C 	C 	0.10160 0.32030 0.68230 0.54100
C 	C 	0.04790 0.28370 0.71760 -0.14500
C 	C 	0.15370 0.26420 0.74550 0.00400
C 	C 	0.10220 0.23060 0.77780 0.00500
C 	C 	0.99450 0.58950 0.61260 0.01300
C 	C 	0.99860 0.65650 0.61300 -0.01600
H 	H 	0.25900 0.27360 0.74230 0.04500
H 	H 	0.17300 0.21730 0.79710 0.03100
H 	H 	0.90690 0.56650 0.60420 0.03100
H 	H 	0.91070 0.67940 0.60460 0.03400
O 	O 	0.00410 0.83440 0.15738 -0.66500
O 	O 	0.24090 0.83320 0.17972 -0.61300
O 	O 	0.00700 0.95820 0.11478 -0.64900
C 	C 	0.10160 0.82030 0.18230 0.53800
C 	C 	0.04790 0.78370 0.21760 -0.13500
C 	C 	0.15370 0.76420 0.24550 -0.00500
C 	C 	0.10220 0.73060 0.27780 0.01800
C 	C 	0.99450 0.08950 0.11260 0.01400
C 	C 	0.99860 0.15650 0.11300 -0.01500
H 	H 	0.25900 0.77360 0.24230 0.04800
H 	H 	0.17300 0.71730 0.29710 0.02800
H 	H 	0.90690 0.06650 0.10420 0.03100
H 	H 	0.91070 0.17940 0.10460 0.03400
O 	O 	0.24590 0.41560 0.15738 -0.66700
O 	O 	0.00910 0.41680 0.17972 -0.61400
O 	O 	0.24300 0.29180 0.11478 -0.65000
C 	C 	0.14840 0.42970 0.18230 0.54000
C 	C 	0.20210 0.46630 0.21760 -0.14100
C 	C 	0.09630 0.48580 0.24550 0.00000
C 	C 	0.14780 0.51940 0.27780 0.01200
C 	C 	0.25550 0.16050 0.11260 0.01300
C 	C 	0.25140 0.09350 0.11300 -0.01300
H 	H 	0.99100 0.47640 0.24230 0.04600
H 	H 	0.07700 0.53270 0.29710 0.03000
H 	H 	0.34310 0.18350 0.10420 0.03100
H 	H 	0.33930 0.07060 0.10460 0.03300
O 	O 	0.24590 0.91560 0.65738 -0.66800
O 	O 	0.00910 0.91680 0.67972 -0.61300
O 	O 	0.24300 0.79180 0.61478 -0.65000
C 	C 	0.14840 0.92970 0.68230 0.54200
C 	C 	0.20210 0.96630 0.71760 -0.14700
C 	C 	0.09630 0.98580 0.74550 0.01300
C 	C 	0.14780 0.01940 0.77780 0.00100
C 	C 	0.25550 0.66050 0.61260 0.01300
C 	C 	0.25140 0.59350 0.61300 -0.01400
H 	H 	0.99100 0.97640 0.74230 0.04000
H 	H 	0.07700 0.03270 0.79710 0.03200
H 	H 	0.34310 0.68350 0.60420 0.03100
H 	H 	0.33930 0.57060 0.60460 0.03400
O 	O 	0.74590 0.41560 0.65738 -0.66700
O 	O 	0.50910 0.41680 0.67972 -0.61400
O 	O 	0.74300 0.29180 0.61478 -0.65000
C 	C 	0.64840 0.42970 0.68230 0.53900
C 	C 	0.70210 0.46630 0.71760 -0.14000
C 	C 	0.59630 0.48580 0.74550 -0.00100
C 	C 	0.64780 0.51940 0.77780 0.01300
C 	C 	0.75550 0.16050 0.61260 0.01300
C 	C 	0.75140 0.09350 0.61300 -0.01500
H 	H 	0.49100 0.47640 0.74230 0.04700
H 	H 	0.57700 0.53270 0.79710 0.02900
H 	H 	0.84310 0.18350 0.60420 0.03100
H 	H 	0.83930 0.07060 0.60460 0.03400
O 	O 	0.74590 0.91560 0.15738 -0.66800
O 	O 	0.50910 0.91680 0.17972 -0.61300
O 	O 	0.74300 0.79180 0.11478 -0.65100
C 	C 	0.64840 0.92970 0.18230 0.53800
C 	C 	0.70210 0.96630 0.21760 -0.13500
C 	C 	0.59630 0.98580 0.24550 -0.00800
C 	C 	0.64780 0.01940 0.27780 0.01900
C 	C 	0.75550 0.66050 0.11260 0.01300
C 	C 	0.75140 0.59350 0.11300 -0.01400
H 	H 	0.49100 0.97640 0.24230 0.04900
H 	H 	0.57700 0.03270 0.29710 0.02700
H 	H 	0.84310 0.68350 0.10420 0.03100
H 	H 	0.83930 0.57060 0.10460 0.03300
O 	O 	0.75410 0.66560 0.40738 -0.66700
O 	O 	0.99090 0.66680 0.42972 -0.61400
O 	O 	0.75700 0.54180 0.36478 -0.65000
C 	C 	0.85160 0.67970 0.43230 0.53900
C 	C 	0.79790 0.71630 0.46760 -0.13900
C 	C 	0.90370 0.73580 0.49550 -0.00400
C 	C 	0.85220 0.76940 0.52780 0.01400
C 	C 	0.74450 0.41050 0.36260 0.01300
C 	C 	0.74860 0.34350 0.36300 -0.01500
H 	H 	0.00900 0.72640 0.49230 0.04800
H 	H 	0.92300 0.78270 0.54710 0.02800
H 	H 	0.65690 0.43350 0.35420 0.03100
H 	H 	0.66070 0.32060 0.35460 0.03400
O 	O 	0.75410 0.16560 0.90738 -0.66700
O 	O 	0.99090 0.16680 0.92972 -0.61300
O 	O 	0.75700 0.04180 0.86478 -0.65100
C 	C 	0.85160 0.17970 0.93230 0.54100
C 	C 	0.79790 0.21630 0.96760 -0.14400
C 	C 	0.90370 0.23580 0.99550 0.00800
C 	C 	0.85220 0.26940 0.02780 0.00700
C 	C 	0.74450 0.91050 0.86260 0.01400
C 	C 	0.74860 0.84350 0.86300 -0.01500
H 	H 	0.00900 0.22640 0.99230 0.04200
H 	H 	0.92300 0.28270 0.04710 0.03100
H 	H 	0.65690 0.93350 0.85420 0.03100
H 	H 	0.66070 0.82060 0.85460 0.03400
O 	O 	0.25410 0.66560 0.90738 -0.66700
O 	O 	0.49090 0.66680 0.92972 -0.61400
O 	O 	0.25700 0.54180 0.86478 -0.65100
C 	C 	0.35160 0.67970 0.93230 0.53800
C 	C 	0.29790 0.71630 0.96760 -0.13700
C 	C 	0.40370 0.73580 0.99550 -0.00400
C 	C 	0.35220 0.76940 0.02780 0.01600
C 	C 	0.24450 0.41050 0.86260 0.01300
C 	C 	0.24860 0.34350 0.86300 -0.01400
H 	H 	0.50900 0.72640 0.99230 0.04800
H 	H 	0.42300 0.78270 0.04710 0.02800
H 	H 	0.15690 0.43350 0.85420 0.03100
H 	H 	0.16070 0.32060 0.85460 0.03300
O 	O 	0.25410 0.16560 0.40738 -0.66800
O 	O 	0.49090 0.16680 0.42972 -0.61400
O 	O 	0.25700 0.04180 0.36478 -0.65100
C 	C 	0.35160 0.17970 0.43230 0.54000
C 	C 	0.29790 0.21630 0.46760 -0.14200
C 	C 	0.40370 0.23580 0.49550 0.00000
C 	C 	0.35220 0.26940 0.52780 0.01100
C 	C 	0.24450 0.91050 0.36260 0.01300
C 	C 	0.24860 0.84350 0.36300 -0.01400
H 	H 	0.50900 0.22640 0.49230 0.04600
H 	H 	0.42300 0.28270 0.54710 0.03000
H 	H 	0.15690 0.93350 0.35420 0.03200
H 	H 	0.16070 0.82060 0.35460 0.03400
O 	O 	0.49590 0.58440 0.40738 -0.66700
O 	O 	0.25910 0.58320 0.42972 -0.61400
O 	O 	0.49300 0.70820 0.36478 -0.65000
C 	C 	0.39840 0.57030 0.43230 0.54000
C 	C 	0.45210 0.53370 0.46760 -0.14100
C 	C 	0.34630 0.51420 0.49550 -0.00100
C 	C 	0.39780 0.48060 0.52780 0.01200
C 	C 	0.50550 0.83950 0.36260 0.01300
C 	C 	0.50140 0.90650 0.36300 -0.01400
H 	H 	0.24100 0.52360 0.49230 0.04600
H 	H 	0.32700 0.46730 0.54710 0.02900
H 	H 	0.59310 0.81650 0.35420 0.03100
H 	H 	0.58930 0.92940 0.35460 0.03300
O 	O 	0.49590 0.08440 0.90738 -0.66700
O 	O 	0.25910 0.08320 0.92972 -0.61500
O 	O 	0.49300 0.20820 0.86478 -0.65000
C 	C 	0.39840 0.07030 0.93230 0.54000
C 	C 	0.45210 0.03370 0.96760 -0.14100
C 	C 	0.34630 0.01420 0.99550 -0.00200
C 	C 	0.39780 0.98060 0.02780 0.01400
C 	C 	0.50550 0.33950 0.86260 0.01300
C 	C 	0.50140 0.40650 0.86300 -0.01400
H 	H 	0.24100 0.02360 0.99230 0.04600
H 	H 	0.32700 0.96730 0.04710 0.02900
H 	H 	0.59310 0.31650 0.85420 0.03100
H 	H 	0.58930 0.42940 0.85460 0.03400
O 	O 	0.99590 0.58440 0.90738 -0.66700
O 	O 	0.75910 0.58320 0.92972 -0.61400
O 	O 	0.99300 0.70820 0.86478 -0.65000
C 	C 	0.89840 0.57030 0.93230 0.53900
C 	C 	0.95210 0.53370 0.96760 -0.13900
C 	C 	0.84630 0.51420 0.99550 0.00000
C 	C 	0.89780 0.48060 0.02780 0.01000
C 	C 	0.00550 0.83950 0.86260 0.01300
C 	C 	0.00140 0.90650 0.86300 -0.01300
H 	H 	0.74100 0.52360 0.99230 0.04600
H 	H 	0.82700 0.46730 0.04710 0.03000
H 	H 	0.09310 0.81650 0.85420 0.03100
H 	H 	0.08930 0.92940 0.85460 0.03300
O 	O 	0.99590 0.08440 0.40738 -0.66600
O 	O 	0.75910 0.08320 0.42972 -0.61300
O 	O 	0.99300 0.20820 0.36478 -0.64900
C 	C 	0.89840 0.07030 0.43230 0.53900
C 	C 	0.95210 0.03370 0.46760 -0.13700
C 	C 	0.84630 0.01420 0.49550 0.00300
C 	C 	0.89780 0.98060 0.52780 0.00500
C 	C 	0.00550 0.33950 0.36260 0.01200
C 	C 	0.00140 0.40650 0.36300 -0.01500
H 	H 	0.74100 0.02360 0.49230 0.04500
H 	H 	0.82700 0.96730 0.54710 0.03100
H 	H 	0.09310 0.31650 0.35420 0.03100
H 	H 	0.08930 0.42940 0.35460 0.03400
O 	O 	0.49590 0.66560 0.84262 -0.66700
O 	O 	0.25910 0.66680 0.82028 -0.61400
O 	O 	0.49300 0.54180 0.88522 -0.65000
C 	C 	0.39840 0.67970 0.81770 0.54000
C 	C 	0.45210 0.71630 0.78240 -0.14000
C 	C 	0.34630 0.73580 0.75450 -0.00100
C 	C 	0.39780 0.76940 0.72220 0.01200
C 	C 	0.50550 0.41050 0.88740 0.01300
C 	C 	0.50140 0.34350 0.88700 -0.01400
H 	H 	0.24100 0.72640 0.75770 0.04700
H 	H 	0.32700 0.78270 0.70290 0.02900
H 	H 	0.59310 0.43350 0.89580 0.03100
H 	H 	0.58930 0.32060 0.89540 0.03400
O 	O 	0.49590 0.16560 0.34262 -0.66700
O 	O 	0.25910 0.16680 0.32028 -0.61500
O 	O 	0.49300 0.04180 0.38522 -0.65000
C 	C 	0.39840 0.17970 0.31770 0.54000
C 	C 	0.45210 0.21630 0.28240 -0.14100
C 	C 	0.34630 0.23580 0.25450 -0.00100
C 	C 	0.39780 0.26940 0.22220 0.01200
C 	C 	0.50550 0.91050 0.38740 0.01300
C 	C 	0.50140 0.84350 0.38700 -0.01400
H 	H 	0.24100 0.22640 0.25770 0.04600
H 	H 	0.32700 0.28270 0.20290 0.02900
H 	H 	0.59310 0.93350 0.39580 0.03100
H 	H 	0.58930 0.82060 0.39540 0.03400
O 	O 	0.99590 0.66560 0.34262 -0.66800
O 	O 	0.75910 0.66680 0.32028 -0.61400
O 	O 	0.99300 0.54180 0.38522 -0.65000
C 	C 	0.89840 0.67970 0.31770 0.54100
C 	C 	0.95210 0.71630 0.28240 -0.14500
C 	C 	0.84630 0.73580 0.25450 0.00400
C 	C 	0.89780 0.76940 0.22220 0.00500
C 	C 	0.00550 0.41050 0.38740 0.01300
C 	C 	0.00140 0.34350 0.38700 -0.01600
H 	H 	0.74100 0.72640 0.25770 0.04500
H 	H 	0.82700 0.78270 0.20290 0.03100
H 	H 	0.09310 0.43350 0.39580 0.03100
H 	H 	0.08930 0.32060 0.39540 0.03400
O 	O 	0.99590 0.16560 0.84262 -0.66500
O 	O 	0.75910 0.16680 0.82028 -0.61300
O 	O 	0.99300 0.04180 0.88522 -0.64900
C 	C 	0.89840 0.17970 0.81770 0.53800
C 	C 	0.95210 0.21630 0.78240 -0.13500
C 	C 	0.84630 0.23580 0.75450 -0.00500
C 	C 	0.89780 0.26940 0.72220 0.01800
C 	C 	0.00550 0.91050 0.88740 0.01400
C 	C 	0.00140 0.84350 0.88700 -0.01500
H 	H 	0.74100 0.22640 0.75770 0.04800
H 	H 	0.82700 0.28270 0.70290 0.02800
H 	H 	0.09310 0.93350 0.89580 0.03100
H 	H 	0.08930 0.82060 0.89540 0.03400
O 	O 	0.75410 0.58440 0.84262 -0.66700
O 	O 	0.99090 0.58320 0.82028 -0.61400
O 	O 	0.75700 0.70820 0.88522 -0.65000
C 	C 	0.85160 0.57030 0.81770 0.54000
C 	C 	0.79790 0.53370 0.78240 -0.14100
C 	C 	0.90370 0.51420 0.75450 0.00000
C 	C 	0.85220 0.48060 0.72220 0.01200
C 	C 	0.74450 0.83950 0.88740 0.01300
C 	C 	0.74860 0.90650 0.88700 -0.01300
H 	H 	0.00900 0.52360 0.75770 0.04600
H 	H 	0.92300 0.46730 0.70290 0.03000
H 	H 	0.65690 0.81650 0.89580 0.03100
H 	H 	0.66070 0.92940 0.89540 0.03300
O 	O 	0.75410 0.08440 0.34262 -0.66800
O 	O 	0.99090 0.08320 0.32028 -0.61300
O 	O 	0.75700 0.20820 0.38522 -0.65000
C 	C 	0.85160 0.07030 0.31770 0.54200
C 	C 	0.79790 0.03370 0.28240 -0.14700
C 	C 	0.90370 0.01420 0.25450 0.01300
C 	C 	0.85220 0.98060 0.22220 0.00100
C 	C 	0.74450 0.33950 0.38740 0.01300
C 	C 	0.74860 0.40650 0.38700 -0.01400
H 	H 	0.00900 0.02360 0.25770 0.04000
H 	H 	0.92300 0.96730 0.20290 0.03200
H 	H 	0.65690 0.31650 0.39580 0.03100
H 	H 	0.66070 0.42940 0.39540 0.03400
O 	O 	0.25410 0.58440 0.34262 -0.66700
O 	O 	0.49090 0.58320 0.32028 -0.61400
O 	O 	0.25700 0.70820 0.38522 -0.65000
C 	C 	0.35160 0.57030 0.31770 0.53900
C 	C 	0.29790 0.53370 0.28240 -0.14000
C 	C 	0.40370 0.51420 0.25450 -0.00100
C 	C 	0.35220 0.48060 0.22220 0.01300
C 	C 	0.24450 0.83950 0.38740 0.01300
C 	C 	0.24860 0.90650 0.38700 -0.01500
H 	H 	0.50900 0.52360 0.25770 0.04700
H 	H 	0.42300 0.46730 0.20290 0.02900
H 	H 	0.15690 0.81650 0.39580 0.03100
H 	H 	0.16070 0.92940 0.39540 0.03400
O 	O 	0.25410 0.08440 0.84262 -0.66800
O 	O 	0.49090 0.08320 0.82028 -0.61300
O 	O 	0.25700 0.20820 0.88522 -0.65100
C 	C 	0.35160 0.07030 0.81770 0.53800
C 	C 	0.29790 0.03370 0.78240 -0.13500
C 	C 	0.40370 0.01420 0.75450 -0.00800
C 	C 	0.35220 0.98060 0.72220 0.01900
C 	C 	0.24450 0.33950 0.88740 0.01300
C 	C 	0.24860 0.40650 0.88700 -0.01400
H 	H 	0.50900 0.02360 0.75770 0.04900
H 	H 	0.42300 0.96730 0.70290 0.02700
H 	H 	0.15690 0.31650 0.89580 0.03100
H 	H 	0.16070 0.42940 0.89540 0.03300
Sc	Sc	0.37500 0.37500 0.63577 2.35000
Sc	Sc	0.37500 0.87500 0.13577 2.35000
Sc	Sc	0.87500 0.37500 0.13577 2.35000
Sc	Sc	0.87500 0.87500 0.63577 2.35000
Sc	Sc	0.37500 0.37500 0.11423 2.35000
Sc	Sc	0.37500 0.87500 0.61423 2.35000
Sc	Sc	0.87500 0.37500 0.61423 2.35000
Sc	Sc	0.87500 0.87500 0.11423 2.34900
Sc	Sc	0.62500 0.62500 0.36423 2.35000
Sc	Sc	0.62500 0.12500 0.86423 2.35000
Sc	Sc	0.12500 0.62500 0.86423 2.35000
Sc	Sc	0.12500 0.12500 0.36423 2.35000
Sc	Sc	0.62500 0.62500 0.88577 2.35000
Sc	Sc	0.62500 0.12500 0.38577 2.35000
Sc	Sc	0.12500 0.62500 0.38577 2.35000
Sc	Sc	0.12500 0.12500 0.88577 2.34900
C 	C 	0.12500 0.48620 0.62500 0.56700
C 	C 	0.12500 0.55810 0.62500 -0.15300
C 	C 	0.12500 0.98620 0.12500 0.57100
C 	C 	0.12500 0.05810 0.12500 -0.15800
C 	C 	0.62500 0.98620 0.62500 0.56700
C 	C 	0.62500 0.05810 0.62500 -0.15400
C 	C 	0.62500 0.26380 0.62500 0.56800
C 	C 	0.62500 0.19190 0.62500 -0.15500
C 	C 	0.62500 0.76380 0.12500 0.56800
C 	C 	0.62500 0.69190 0.12500 -0.15500
C 	C 	0.62500 0.48620 0.12500 0.56800
C 	C 	0.62500 0.55810 0.12500 -0.15500
C 	C 	0.12500 0.26380 0.12500 0.56800
C 	C 	0.12500 0.19190 0.12500 -0.15400
C 	C 	0.12500 0.76380 0.62500 0.56700
C 	C 	0.12500 0.69190 0.62500 -0.15200
C 	C 	0.87500 0.51380 0.37500 0.56700
C 	C 	0.87500 0.44190 0.37500 -0.15300
C 	C 	0.87500 0.01380 0.87500 0.57100
C 	C 	0.87500 0.94190 0.87500 -0.15800
C 	C 	0.37500 0.73620 0.37500 0.56800
C 	C 	0.37500 0.80810 0.37500 -0.15500
C 	C 	0.37500 0.23620 0.87500 0.56800
C 	C 	0.37500 0.30810 0.87500 -0.15500
C 	C 	0.37500 0.51380 0.87500 0.56800
C 	C 	0.37500 0.44190 0.87500 -0.15500
C 	C 	0.37500 0.01380 0.37500 0.56700
C 	C 	0.37500 0.94190 0.37500 -0.15400
C 	C 	0.87500 0.73620 0.87500 0.56800
C 	C 	0.87500 0.80810 0.87500 -0.15400
C 	C 	0.87500 0.23620 0.37500 0.56700
C 	C 	0.87500 0.30810 0.37500 -0.15200
