data_crystal

_cell_length_a 7.24990
_cell_length_b 23.76250
_cell_length_c 30.73500
_cell_angle_alpha 90.00000
_cell_angle_beta  90.00000
_cell_angle_gamma 90.00000

_symmetry_space_group_name_	'P 1'
_symmetry_space_group_name_H-M	'P 1'

loop_
_symmetry_equiv_pos_as_xyz
  x,y,z

loop_
_atom_site_label
_atom_site_type_symbol
_atom_site_fract_x
_atom_site_fract_y
_atom_site_fract_z
_atom_site_charge
Ag	Ag	0.19513 0.77005 0.29063 0.52000
Ag	Ag	0.52526 0.44231 0.48402 0.52600
O 	O 	0.34240 0.69581 0.31389 -0.36500
O 	O 	0.45170 0.66770 0.24974 -0.38400
O 	O 	0.47610 0.58800 0.44647 -0.35300
O 	O 	0.65470 0.51204 0.44185 -0.39000
N 	N 	0.10950 0.81274 0.35751 -0.14900
N 	N 	0.02160 0.87411 0.43150 -0.15700
C 	C 	0.00200 0.85815 0.35583 0.00200
H 	H 	0.95480 0.86970 0.32920 0.03800
C 	C 	0.95940 0.88834 0.39260 0.01000
H 	H 	0.88430 0.91990 0.39000 0.03000
C 	C 	0.12640 0.82831 0.43313 0.01300
H 	H 	0.17120 0.81640 0.46000 0.01900
C 	C 	0.17090 0.79795 0.39670 0.00300
H 	H 	0.24560 0.76630 0.39940 0.03500
C 	C 	0.43240 0.66341 0.29011 0.32300
C 	C 	0.52650 0.61456 0.31192 -0.11900
C 	C 	0.63410 0.57741 0.28830 0.03200
H 	H 	0.64530 0.58170 0.25830 0.03000
C 	C 	0.72470 0.53393 0.30904 -0.10600
H 	H 	0.79680 0.50900 0.29300 0.06900
C 	C 	0.70860 0.52736 0.35324 0.03400
H 	H 	0.77230 0.49850 0.36710 0.03000
C 	C 	0.59870 0.56320 0.37756 -0.11000
C 	C 	0.50910 0.60727 0.35673 0.04200
H 	H 	0.43700 0.63210 0.37280 0.03900
C 	C 	0.57500 0.55381 0.42545 0.32800
Ag	Ag	0.69513 0.27005 0.79063 0.52100
Ag	Ag	0.02526 0.94232 0.98402 0.52700
O 	O 	0.84240 0.19581 0.81389 -0.36400
O 	O 	0.95170 0.16770 0.74974 -0.38300
O 	O 	0.97610 0.08800 0.94647 -0.35100
O 	O 	0.15470 0.01204 0.94185 -0.38800
N 	N 	0.60950 0.31274 0.85751 -0.14800
N 	N 	0.52160 0.37411 0.93150 -0.15700
C 	C 	0.50200 0.35815 0.85583 0.00100
H 	H 	0.45480 0.36970 0.82920 0.04000
C 	C 	0.45940 0.38834 0.89260 0.01300
H 	H 	0.38430 0.41990 0.89000 0.02900
C 	C 	0.62640 0.32831 0.93313 0.01300
H 	H 	0.67120 0.31640 0.96000 0.01900
C 	C 	0.67090 0.29795 0.89670 0.00300
H 	H 	0.74560 0.26630 0.89940 0.03500
C 	C 	0.93240 0.16341 0.79011 0.32300
C 	C 	0.02650 0.11456 0.81192 -0.12000
C 	C 	0.13410 0.07741 0.78830 0.03200
H 	H 	0.14530 0.08170 0.75830 0.03000
C 	C 	0.22470 0.03393 0.80904 -0.10600
H 	H 	0.29680 0.00900 0.79300 0.06900
C 	C 	0.20860 0.02736 0.85324 0.03400
H 	H 	0.27230 0.99850 0.86710 0.03000
C 	C 	0.09870 0.06320 0.87756 -0.11000
C 	C 	0.00910 0.10727 0.85673 0.04100
H 	H 	0.93700 0.13210 0.87280 0.04000
C 	C 	0.07500 0.05381 0.92545 0.32700
Ag	Ag	0.30487 0.22995 0.79063 0.52100
Ag	Ag	0.97474 0.55768 0.98402 0.52700
O 	O 	0.15760 0.30419 0.81389 -0.36400
O 	O 	0.04830 0.33230 0.74974 -0.38300
O 	O 	0.02390 0.41200 0.94647 -0.35100
O 	O 	0.84530 0.48796 0.94185 -0.38800
N 	N 	0.39050 0.18726 0.85751 -0.14800
N 	N 	0.47840 0.12589 0.93150 -0.15700
C 	C 	0.49800 0.14185 0.85583 0.00100
H 	H 	0.54520 0.13030 0.82920 0.04000
C 	C 	0.54060 0.11166 0.89260 0.01300
H 	H 	0.61570 0.08010 0.89000 0.02900
C 	C 	0.37360 0.17169 0.93313 0.01300
H 	H 	0.32880 0.18360 0.96000 0.01900
C 	C 	0.32910 0.20205 0.89670 0.00300
H 	H 	0.25440 0.23370 0.89940 0.03500
C 	C 	0.06760 0.33659 0.79011 0.32300
C 	C 	0.97350 0.38544 0.81192 -0.12000
C 	C 	0.86590 0.42259 0.78830 0.03200
H 	H 	0.85470 0.41830 0.75830 0.03000
C 	C 	0.77530 0.46607 0.80904 -0.10600
H 	H 	0.70320 0.49100 0.79300 0.06900
C 	C 	0.79140 0.47264 0.85324 0.03400
H 	H 	0.72770 0.50150 0.86710 0.03000
C 	C 	0.90130 0.43680 0.87756 -0.11000
C 	C 	0.99090 0.39273 0.85673 0.04100
H 	H 	0.06300 0.36790 0.87280 0.04000
C 	C 	0.92500 0.44619 0.92545 0.32700
Ag	Ag	0.80487 0.72995 0.29063 0.52100
Ag	Ag	0.47474 0.05769 0.48402 0.52700
O 	O 	0.65760 0.80419 0.31389 -0.36400
O 	O 	0.54830 0.83230 0.24974 -0.38300
O 	O 	0.52390 0.91200 0.44647 -0.35200
O 	O 	0.34530 0.98796 0.44185 -0.38900
N 	N 	0.89050 0.68726 0.35751 -0.14800
N 	N 	0.97840 0.62589 0.43150 -0.15600
C 	C 	0.99800 0.64185 0.35583 0.00300
H 	H 	0.04520 0.63030 0.32920 0.03900
C 	C 	0.04060 0.61166 0.39260 0.01100
H 	H 	0.11570 0.58010 0.39000 0.03000
C 	C 	0.87360 0.67169 0.43313 0.01300
H 	H 	0.82880 0.68360 0.46000 0.01900
C 	C 	0.82910 0.70205 0.39670 0.00300
H 	H 	0.75440 0.73370 0.39940 0.03500
C 	C 	0.56760 0.83659 0.29011 0.32300
C 	C 	0.47350 0.88544 0.31192 -0.11900
C 	C 	0.36590 0.92259 0.28830 0.03200
H 	H 	0.35470 0.91830 0.25830 0.03000
C 	C 	0.27530 0.96607 0.30904 -0.10600
H 	H 	0.20320 0.99100 0.29300 0.06900
C 	C 	0.29140 0.97264 0.35324 0.03400
H 	H 	0.22770 0.00150 0.36710 0.03000
C 	C 	0.40130 0.93680 0.37756 -0.11000
C 	C 	0.49090 0.89273 0.35673 0.04200
H 	H 	0.56300 0.86790 0.37280 0.03900
C 	C 	0.42500 0.94619 0.42545 0.32800
Ag	Ag	0.80487 0.27005 0.20937 0.52100
Ag	Ag	0.47474 0.94232 0.01598 0.52700
O 	O 	0.65760 0.19581 0.18611 -0.36400
O 	O 	0.54830 0.16770 0.25026 -0.38300
O 	O 	0.52390 0.08800 0.05353 -0.35200
O 	O 	0.34530 0.01204 0.05815 -0.38900
N 	N 	0.89050 0.31274 0.14249 -0.14800
N 	N 	0.97840 0.37411 0.06850 -0.15600
C 	C 	0.99800 0.35815 0.14417 0.00300
H 	H 	0.04520 0.36970 0.17080 0.03900
C 	C 	0.04060 0.38834 0.10740 0.01100
H 	H 	0.11570 0.41990 0.11000 0.03000
C 	C 	0.87360 0.32831 0.06687 0.01300
H 	H 	0.82880 0.31640 0.04000 0.02000
C 	C 	0.82910 0.29795 0.10330 0.00300
H 	H 	0.75440 0.26630 0.10060 0.03500
C 	C 	0.56760 0.16341 0.20989 0.32300
C 	C 	0.47350 0.11456 0.18808 -0.11900
C 	C 	0.36590 0.07741 0.21170 0.03200
H 	H 	0.35470 0.08170 0.24170 0.03000
C 	C 	0.27530 0.03393 0.19096 -0.10600
H 	H 	0.20320 0.00900 0.20700 0.06900
C 	C 	0.29140 0.02736 0.14676 0.03400
H 	H 	0.22770 0.99850 0.13290 0.03000
C 	C 	0.40130 0.06320 0.12244 -0.11000
C 	C 	0.49090 0.10727 0.14327 0.04200
H 	H 	0.56300 0.13210 0.12720 0.03900
C 	C 	0.42500 0.05381 0.07455 0.32800
Ag	Ag	0.30487 0.77005 0.70937 0.52100
Ag	Ag	0.97474 0.44231 0.51598 0.52700
O 	O 	0.15760 0.69581 0.68611 -0.36400
O 	O 	0.04830 0.66770 0.75026 -0.38300
O 	O 	0.02390 0.58800 0.55353 -0.35100
O 	O 	0.84530 0.51204 0.55815 -0.38800
N 	N 	0.39050 0.81274 0.64249 -0.14800
N 	N 	0.47840 0.87411 0.56850 -0.15700
C 	C 	0.49800 0.85815 0.64417 0.00100
H 	H 	0.54520 0.86970 0.67080 0.04000
C 	C 	0.54060 0.88834 0.60740 0.01300
H 	H 	0.61570 0.91990 0.61000 0.02900
C 	C 	0.37360 0.82831 0.56687 0.01300
H 	H 	0.32880 0.81640 0.54000 0.01900
C 	C 	0.32910 0.79795 0.60330 0.00300
H 	H 	0.25440 0.76630 0.60060 0.03500
C 	C 	0.06760 0.66341 0.70989 0.32300
C 	C 	0.97350 0.61456 0.68808 -0.12000
C 	C 	0.86590 0.57741 0.71170 0.03200
H 	H 	0.85470 0.58170 0.74170 0.03000
C 	C 	0.77530 0.53393 0.69096 -0.10600
H 	H 	0.70320 0.50900 0.70700 0.06900
C 	C 	0.79140 0.52736 0.64676 0.03400
H 	H 	0.72770 0.49850 0.63290 0.03000
C 	C 	0.90130 0.56320 0.62244 -0.11000
C 	C 	0.99090 0.60727 0.64327 0.04100
H 	H 	0.06300 0.63210 0.62720 0.04000
C 	C 	0.92500 0.55381 0.57455 0.32700
Ag	Ag	0.69513 0.72995 0.70937 0.52100
Ag	Ag	0.02526 0.05769 0.51598 0.52700
O 	O 	0.84240 0.80419 0.68611 -0.36400
O 	O 	0.95170 0.83230 0.75026 -0.38300
O 	O 	0.97610 0.91200 0.55353 -0.35100
O 	O 	0.15470 0.98796 0.55815 -0.38900
N 	N 	0.60950 0.68726 0.64249 -0.14800
N 	N 	0.52160 0.62589 0.56850 -0.15700
C 	C 	0.50200 0.64185 0.64417 0.00100
H 	H 	0.45480 0.63030 0.67080 0.04000
C 	C 	0.45940 0.61166 0.60740 0.01300
H 	H 	0.38430 0.58010 0.61000 0.02900
C 	C 	0.62640 0.67169 0.56687 0.01300
H 	H 	0.67120 0.68360 0.54000 0.01900
C 	C 	0.67090 0.70205 0.60330 0.00300
H 	H 	0.74560 0.73370 0.60060 0.03500
C 	C 	0.93240 0.83659 0.70989 0.32300
C 	C 	0.02650 0.88544 0.68808 -0.12000
C 	C 	0.13410 0.92259 0.71170 0.03200
H 	H 	0.14530 0.91830 0.74170 0.03000
C 	C 	0.22470 0.96607 0.69096 -0.10600
H 	H 	0.29680 0.99100 0.70700 0.06900
C 	C 	0.20860 0.97264 0.64676 0.03400
H 	H 	0.27230 0.00150 0.63290 0.03000
C 	C 	0.09870 0.93680 0.62244 -0.11000
C 	C 	0.00910 0.89273 0.64327 0.04100
H 	H 	0.93700 0.86790 0.62720 0.04000
C 	C 	0.07500 0.94619 0.57455 0.32700
Ag	Ag	0.19513 0.22995 0.20937 0.52100
Ag	Ag	0.52526 0.55768 0.01598 0.52700
O 	O 	0.34240 0.30419 0.18611 -0.36400
O 	O 	0.45170 0.33230 0.25026 -0.38300
O 	O 	0.47610 0.41200 0.05353 -0.35200
O 	O 	0.65470 0.48796 0.05815 -0.38800
N 	N 	0.10950 0.18726 0.14249 -0.14800
N 	N 	0.02160 0.12589 0.06850 -0.15600
C 	C 	0.00200 0.14185 0.14417 0.00300
H 	H 	0.95480 0.13030 0.17080 0.03900
C 	C 	0.95940 0.11166 0.10740 0.01100
H 	H 	0.88430 0.08010 0.11000 0.03000
C 	C 	0.12640 0.17169 0.06687 0.01300
H 	H 	0.17120 0.18360 0.04000 0.02000
C 	C 	0.17090 0.20205 0.10330 0.00300
H 	H 	0.24560 0.23370 0.10060 0.03500
C 	C 	0.43240 0.33659 0.20989 0.32300
C 	C 	0.52650 0.38544 0.18808 -0.11900
C 	C 	0.63410 0.42259 0.21170 0.03200
H 	H 	0.64530 0.41830 0.24170 0.03000
C 	C 	0.72470 0.46607 0.19096 -0.10600
H 	H 	0.79680 0.49100 0.20700 0.06900
C 	C 	0.70860 0.47264 0.14676 0.03400
H 	H 	0.77230 0.50150 0.13290 0.03000
C 	C 	0.59870 0.43680 0.12244 -0.11000
C 	C 	0.50910 0.39273 0.14327 0.04200
H 	H 	0.43700 0.36790 0.12720 0.03900
C 	C 	0.57500 0.44619 0.07455 0.32800
Ag	Ag	0.80487 0.22995 0.70937 0.52100
Ag	Ag	0.47474 0.55768 0.51598 0.52700
O 	O 	0.65760 0.30419 0.68611 -0.36400
O 	O 	0.54830 0.33230 0.75026 -0.38300
O 	O 	0.52390 0.41200 0.55353 -0.35200
O 	O 	0.34530 0.48796 0.55815 -0.38900
N 	N 	0.89050 0.18726 0.64249 -0.14800
N 	N 	0.97840 0.12589 0.56850 -0.15600
C 	C 	0.99800 0.14185 0.64417 0.00300
H 	H 	0.04520 0.13030 0.67080 0.03900
C 	C 	0.04060 0.11166 0.60740 0.01100
H 	H 	0.11570 0.08010 0.61000 0.03000
C 	C 	0.87360 0.17169 0.56687 0.01300
H 	H 	0.82880 0.18360 0.54000 0.01900
C 	C 	0.82910 0.20205 0.60330 0.00300
H 	H 	0.75440 0.23370 0.60060 0.03500
C 	C 	0.56760 0.33659 0.70989 0.32300
C 	C 	0.47350 0.38544 0.68808 -0.11900
C 	C 	0.36590 0.42259 0.71170 0.03200
H 	H 	0.35470 0.41830 0.74170 0.03000
C 	C 	0.27530 0.46607 0.69096 -0.10600
H 	H 	0.20320 0.49100 0.70700 0.06900
C 	C 	0.29140 0.47264 0.64676 0.03400
H 	H 	0.22770 0.50150 0.63290 0.03000
C 	C 	0.40130 0.43680 0.62244 -0.11000
C 	C 	0.49090 0.39273 0.64327 0.04200
H 	H 	0.56300 0.36790 0.62720 0.03900
C 	C 	0.42500 0.44619 0.57455 0.32800
Ag	Ag	0.30487 0.72995 0.20937 0.52100
Ag	Ag	0.97474 0.05769 0.01598 0.52700
O 	O 	0.15760 0.80419 0.18611 -0.36400
O 	O 	0.04830 0.83230 0.25026 -0.38300
O 	O 	0.02390 0.91200 0.05353 -0.35100
O 	O 	0.84530 0.98796 0.05815 -0.38800
N 	N 	0.39050 0.68726 0.14249 -0.14800
N 	N 	0.47840 0.62589 0.06850 -0.15700
C 	C 	0.49800 0.64185 0.14417 0.00100
H 	H 	0.54520 0.63030 0.17080 0.04000
C 	C 	0.54060 0.61166 0.10740 0.01300
H 	H 	0.61570 0.58010 0.11000 0.02900
C 	C 	0.37360 0.67169 0.06687 0.01300
H 	H 	0.32880 0.68360 0.04000 0.01900
C 	C 	0.32910 0.70205 0.10330 0.00300
H 	H 	0.25440 0.73370 0.10060 0.03500
C 	C 	0.06760 0.83659 0.20989 0.32300
C 	C 	0.97350 0.88544 0.18808 -0.12000
C 	C 	0.86590 0.92259 0.21170 0.03200
H 	H 	0.85470 0.91830 0.24170 0.03000
C 	C 	0.77530 0.96607 0.19096 -0.10600
H 	H 	0.70320 0.99100 0.20700 0.06900
C 	C 	0.79140 0.97264 0.14676 0.03400
H 	H 	0.72770 0.00150 0.13290 0.03000
C 	C 	0.90130 0.93680 0.12244 -0.11000
C 	C 	0.99090 0.89273 0.14327 0.04100
H 	H 	0.06300 0.86790 0.12720 0.04000
C 	C 	0.92500 0.94619 0.07455 0.32700
Ag	Ag	0.69513 0.77005 0.20937 0.52100
Ag	Ag	0.02526 0.44231 0.01598 0.52700
O 	O 	0.84240 0.69581 0.18611 -0.36400
O 	O 	0.95170 0.66770 0.25026 -0.38300
O 	O 	0.97610 0.58800 0.05353 -0.35100
O 	O 	0.15470 0.51204 0.05815 -0.38800
N 	N 	0.60950 0.81274 0.14249 -0.14800
N 	N 	0.52160 0.87411 0.06850 -0.15700
C 	C 	0.50200 0.85815 0.14417 0.00100
H 	H 	0.45480 0.86970 0.17080 0.04000
C 	C 	0.45940 0.88834 0.10740 0.01300
H 	H 	0.38430 0.91990 0.11000 0.02900
C 	C 	0.62640 0.82831 0.06687 0.01300
H 	H 	0.67120 0.81640 0.04000 0.01900
C 	C 	0.67090 0.79795 0.10330 0.00300
H 	H 	0.74560 0.76630 0.10060 0.03500
C 	C 	0.93240 0.66341 0.20989 0.32300
C 	C 	0.02650 0.61456 0.18808 -0.12000
C 	C 	0.13410 0.57741 0.21170 0.03200
H 	H 	0.14530 0.58170 0.24170 0.03000
C 	C 	0.22470 0.53393 0.19096 -0.10600
H 	H 	0.29680 0.50900 0.20700 0.06900
C 	C 	0.20860 0.52736 0.14676 0.03400
H 	H 	0.27230 0.49850 0.13290 0.03000
C 	C 	0.09870 0.56320 0.12244 -0.11000
C 	C 	0.00910 0.60727 0.14327 0.04100
H 	H 	0.93700 0.63210 0.12720 0.04000
C 	C 	0.07500 0.55381 0.07455 0.32700
Ag	Ag	0.19513 0.27005 0.70937 0.52100
Ag	Ag	0.52526 0.94232 0.51598 0.52700
O 	O 	0.34240 0.19581 0.68611 -0.36400
O 	O 	0.45170 0.16770 0.75026 -0.38300
O 	O 	0.47610 0.08800 0.55353 -0.35200
O 	O 	0.65470 0.01204 0.55815 -0.38900
N 	N 	0.10950 0.31274 0.64249 -0.14800
N 	N 	0.02160 0.37411 0.56850 -0.15700
C 	C 	0.00200 0.35815 0.64417 0.00300
H 	H 	0.95480 0.36970 0.67080 0.03900
C 	C 	0.95940 0.38834 0.60740 0.01100
H 	H 	0.88430 0.41990 0.61000 0.03000
C 	C 	0.12640 0.32831 0.56687 0.01300
H 	H 	0.17120 0.31640 0.54000 0.01900
C 	C 	0.17090 0.29795 0.60330 0.00300
H 	H 	0.24560 0.26630 0.60060 0.03500
C 	C 	0.43240 0.16341 0.70989 0.32300
C 	C 	0.52650 0.11456 0.68808 -0.11900
C 	C 	0.63410 0.07741 0.71170 0.03200
H 	H 	0.64530 0.08170 0.74170 0.03000
C 	C 	0.72470 0.03393 0.69096 -0.10600
H 	H 	0.79680 0.00900 0.70700 0.06900
C 	C 	0.70860 0.02736 0.64676 0.03400
H 	H 	0.77230 0.99850 0.63290 0.03000
C 	C 	0.59870 0.06320 0.62244 -0.11000
C 	C 	0.50910 0.10727 0.64327 0.04200
H 	H 	0.43700 0.13210 0.62720 0.03900
C 	C 	0.57500 0.05381 0.57455 0.32800
Ag	Ag	0.19513 0.72995 0.79063 0.52100
Ag	Ag	0.52526 0.05769 0.98402 0.52700
O 	O 	0.34240 0.80419 0.81389 -0.36400
O 	O 	0.45170 0.83230 0.74974 -0.38300
O 	O 	0.47610 0.91200 0.94647 -0.35200
O 	O 	0.65470 0.98796 0.94185 -0.38900
N 	N 	0.10950 0.68726 0.85751 -0.14800
N 	N 	0.02160 0.62589 0.93150 -0.15600
C 	C 	0.00200 0.64185 0.85583 0.00300
H 	H 	0.95480 0.63030 0.82920 0.03900
C 	C 	0.95940 0.61166 0.89260 0.01100
H 	H 	0.88430 0.58010 0.89000 0.03000
C 	C 	0.12640 0.67169 0.93313 0.01300
H 	H 	0.17120 0.68360 0.96000 0.02000
C 	C 	0.17090 0.70205 0.89670 0.00300
H 	H 	0.24560 0.73370 0.89940 0.03500
C 	C 	0.43240 0.83659 0.79011 0.32300
C 	C 	0.52650 0.88544 0.81192 -0.11900
C 	C 	0.63410 0.92259 0.78830 0.03200
H 	H 	0.64530 0.91830 0.75830 0.03000
C 	C 	0.72470 0.96607 0.80904 -0.10600
H 	H 	0.79680 0.99100 0.79300 0.06900
C 	C 	0.70860 0.97264 0.85324 0.03400
H 	H 	0.77230 0.00150 0.86710 0.03000
C 	C 	0.59870 0.93680 0.87756 -0.11000
C 	C 	0.50910 0.89273 0.85673 0.04200
H 	H 	0.43700 0.86790 0.87280 0.03900
C 	C 	0.57500 0.94619 0.92545 0.32800
Ag	Ag	0.69513 0.22995 0.29063 0.52100
Ag	Ag	0.02526 0.55768 0.48402 0.52700
O 	O 	0.84240 0.30419 0.31389 -0.36400
O 	O 	0.95170 0.33230 0.24974 -0.38300
O 	O 	0.97610 0.41200 0.44647 -0.35100
O 	O 	0.15470 0.48796 0.44185 -0.38800
N 	N 	0.60950 0.18726 0.35751 -0.14800
N 	N 	0.52160 0.12589 0.43150 -0.15700
C 	C 	0.50200 0.14185 0.35583 0.00100
H 	H 	0.45480 0.13030 0.32920 0.04000
C 	C 	0.45940 0.11166 0.39260 0.01300
H 	H 	0.38430 0.08010 0.39000 0.02900
C 	C 	0.62640 0.17169 0.43313 0.01300
H 	H 	0.67120 0.18360 0.46000 0.01900
C 	C 	0.67090 0.20205 0.39670 0.00300
H 	H 	0.74560 0.23370 0.39940 0.03500
C 	C 	0.93240 0.33659 0.29011 0.32300
C 	C 	0.02650 0.38544 0.31192 -0.12000
C 	C 	0.13410 0.42259 0.28830 0.03200
H 	H 	0.14530 0.41830 0.25830 0.03000
C 	C 	0.22470 0.46607 0.30904 -0.10600
H 	H 	0.29680 0.49100 0.29300 0.06900
C 	C 	0.20860 0.47264 0.35324 0.03400
H 	H 	0.27230 0.50150 0.36710 0.03000
C 	C 	0.09870 0.43680 0.37756 -0.11000
C 	C 	0.00910 0.39273 0.35673 0.04100
H 	H 	0.93700 0.36790 0.37280 0.04000
C 	C 	0.07500 0.44619 0.42545 0.32700
Ag	Ag	0.30487 0.27005 0.29063 0.52100
Ag	Ag	0.97474 0.94232 0.48402 0.52700
O 	O 	0.15760 0.19581 0.31389 -0.36400
O 	O 	0.04830 0.16770 0.24974 -0.38300
O 	O 	0.02390 0.08800 0.44647 -0.35100
O 	O 	0.84530 0.01204 0.44185 -0.38900
N 	N 	0.39050 0.31274 0.35751 -0.14800
N 	N 	0.47840 0.37411 0.43150 -0.15700
C 	C 	0.49800 0.35815 0.35583 0.00100
H 	H 	0.54520 0.36970 0.32920 0.04000
C 	C 	0.54060 0.38834 0.39260 0.01300
H 	H 	0.61570 0.41990 0.39000 0.02900
C 	C 	0.37360 0.32831 0.43313 0.01300
H 	H 	0.32880 0.31640 0.46000 0.01900
C 	C 	0.32910 0.29795 0.39670 0.00300
H 	H 	0.25440 0.26630 0.39940 0.03500
C 	C 	0.06760 0.16341 0.29011 0.32300
C 	C 	0.97350 0.11456 0.31192 -0.12000
C 	C 	0.86590 0.07741 0.28830 0.03200
H 	H 	0.85470 0.08170 0.25830 0.03000
C 	C 	0.77530 0.03393 0.30904 -0.10600
H 	H 	0.70320 0.00900 0.29300 0.06900
C 	C 	0.79140 0.02736 0.35324 0.03400
H 	H 	0.72770 0.99850 0.36710 0.03000
C 	C 	0.90130 0.06320 0.37756 -0.11000
C 	C 	0.99090 0.10727 0.35673 0.04100
H 	H 	0.06300 0.13210 0.37280 0.04000
C 	C 	0.92500 0.05381 0.42545 0.32700
Ag	Ag	0.80487 0.77005 0.79063 0.52100
Ag	Ag	0.47474 0.44231 0.98402 0.52700
O 	O 	0.65760 0.69581 0.81389 -0.36400
O 	O 	0.54830 0.66770 0.74974 -0.38300
O 	O 	0.52390 0.58800 0.94647 -0.35200
O 	O 	0.34530 0.51204 0.94185 -0.38800
N 	N 	0.89050 0.81274 0.85751 -0.14800
N 	N 	0.97840 0.87411 0.93150 -0.15600
C 	C 	0.99800 0.85815 0.85583 0.00300
H 	H 	0.04520 0.86970 0.82920 0.03900
C 	C 	0.04060 0.88834 0.89260 0.01100
H 	H 	0.11570 0.91990 0.89000 0.03000
C 	C 	0.87360 0.82831 0.93313 0.01300
H 	H 	0.82880 0.81640 0.96000 0.02000
C 	C 	0.82910 0.79795 0.89670 0.00300
H 	H 	0.75440 0.76630 0.89940 0.03500
C 	C 	0.56760 0.66341 0.79011 0.32300
C 	C 	0.47350 0.61456 0.81192 -0.11900
C 	C 	0.36590 0.57741 0.78830 0.03200
H 	H 	0.35470 0.58170 0.75830 0.03000
C 	C 	0.27530 0.53393 0.80904 -0.10600
H 	H 	0.20320 0.50900 0.79300 0.06900
C 	C 	0.29140 0.52736 0.85324 0.03400
H 	H 	0.22770 0.49850 0.86710 0.03000
C 	C 	0.40130 0.56320 0.87756 -0.11000
C 	C 	0.49090 0.60727 0.85673 0.04200
H 	H 	0.56300 0.63210 0.87280 0.03900
C 	C 	0.42500 0.55381 0.92545 0.32800
