data_crystal

_cell_length_a 7.16200
_cell_length_b 23.76510
_cell_length_c 30.70490
_cell_angle_alpha 90.00000
_cell_angle_beta  90.00000
_cell_angle_gamma 90.00000

_symmetry_space_group_name_	'P 1'
_symmetry_space_group_name_H-M	'P 1'

loop_
_symmetry_equiv_pos_as_xyz
  x,y,z

loop_
_atom_site_label
_atom_site_type_symbol
_atom_site_fract_x
_atom_site_fract_y
_atom_site_fract_z
_atom_site_charge
Ag	Ag	0.19536 0.77004 0.29075 0.51900
Ag	Ag	0.53163 0.44291 0.48420 0.52400
O 	O 	0.34510 0.69591 0.31410 -0.36300
O 	O 	0.45330 0.66706 0.24915 -0.37900
O 	O 	0.48220 0.58797 0.44675 -0.35000
O 	O 	0.66040 0.51114 0.44156 -0.38500
N 	N 	0.10750 0.81238 0.35755 -0.14800
N 	N 	0.01680 0.87420 0.43163 -0.15700
C 	C 	0.99890 0.85820 0.35540 -0.00100
H 	H 	0.95140 0.87020 0.32810 0.04000
C 	C 	0.95500 0.88830 0.39270 0.01600
H 	H 	0.87700 0.92040 0.39010 0.02900
C 	C 	0.12280 0.82820 0.43352 0.01300
H 	H 	0.16840 0.81610 0.46100 0.02000
C 	C 	0.16850 0.79760 0.39699 0.00500
H 	H 	0.24530 0.76520 0.39990 0.03400
C 	C 	0.43470 0.66370 0.29000 0.31100
C 	C 	0.53070 0.61440 0.31172 -0.10900
C 	C 	0.64020 0.57700 0.28780 0.02200
H 	H 	0.65150 0.58120 0.25710 0.03400
C 	C 	0.73240 0.53360 0.30880 -0.09400
H 	H 	0.80770 0.50820 0.29260 0.06300
C 	C 	0.71520 0.52720 0.35270 0.02700
H 	H 	0.78020 0.49750 0.36680 0.03200
C 	C 	0.60490 0.56320 0.37750 -0.10600
C 	C 	0.51420 0.60740 0.35658 0.03600
H 	H 	0.44060 0.63300 0.37300 0.04100
C 	C 	0.58230 0.55390 0.42520 0.32000
Ag	Ag	0.69536 0.27004 0.79075 0.52000
Ag	Ag	0.03163 0.94291 0.98420 0.52500
O 	O 	0.84510 0.19591 0.81410 -0.36200
O 	O 	0.95330 0.16706 0.74915 -0.37700
O 	O 	0.98220 0.08797 0.94675 -0.34900
O 	O 	0.16040 0.01114 0.94156 -0.38500
N 	N 	0.60750 0.31238 0.85755 -0.14800
N 	N 	0.51680 0.37420 0.93163 -0.15700
C 	C 	0.49890 0.35820 0.85540 -0.00000
H 	H 	0.45140 0.37020 0.82810 0.04000
C 	C 	0.45500 0.38830 0.89270 0.01600
H 	H 	0.37700 0.42040 0.89010 0.02900
C 	C 	0.62280 0.32820 0.93352 0.01300
H 	H 	0.66840 0.31610 0.96100 0.02000
C 	C 	0.66850 0.29760 0.89699 0.00500
H 	H 	0.74530 0.26520 0.89990 0.03400
C 	C 	0.93470 0.16370 0.79000 0.31100
C 	C 	0.03070 0.11440 0.81172 -0.10900
C 	C 	0.14020 0.07700 0.78780 0.02200
H 	H 	0.15150 0.08120 0.75710 0.03400
C 	C 	0.23240 0.03360 0.80880 -0.09400
H 	H 	0.30770 0.00820 0.79260 0.06300
C 	C 	0.21520 0.02720 0.85270 0.02700
H 	H 	0.28020 0.99750 0.86680 0.03200
C 	C 	0.10490 0.06320 0.87750 -0.10500
C 	C 	0.01420 0.10740 0.85658 0.03500
H 	H 	0.94060 0.13300 0.87300 0.04200
C 	C 	0.08230 0.05390 0.92520 0.32000
Ag	Ag	0.30464 0.22996 0.79075 0.52000
Ag	Ag	0.96837 0.55709 0.98420 0.52500
O 	O 	0.15490 0.30409 0.81410 -0.36200
O 	O 	0.04670 0.33294 0.74915 -0.37700
O 	O 	0.01780 0.41203 0.94675 -0.34900
O 	O 	0.83960 0.48886 0.94156 -0.38500
N 	N 	0.39250 0.18762 0.85755 -0.14800
N 	N 	0.48320 0.12580 0.93163 -0.15700
C 	C 	0.50110 0.14180 0.85540 -0.00000
H 	H 	0.54860 0.12980 0.82810 0.04000
C 	C 	0.54500 0.11170 0.89270 0.01600
H 	H 	0.62300 0.07960 0.89010 0.02900
C 	C 	0.37720 0.17180 0.93352 0.01300
H 	H 	0.33160 0.18390 0.96100 0.02000
C 	C 	0.33150 0.20240 0.89699 0.00500
H 	H 	0.25470 0.23480 0.89990 0.03400
C 	C 	0.06530 0.33630 0.79000 0.31100
C 	C 	0.96930 0.38560 0.81172 -0.10900
C 	C 	0.85980 0.42300 0.78780 0.02200
H 	H 	0.84850 0.41880 0.75710 0.03400
C 	C 	0.76760 0.46640 0.80880 -0.09400
H 	H 	0.69230 0.49180 0.79260 0.06300
C 	C 	0.78480 0.47280 0.85270 0.02700
H 	H 	0.71980 0.50250 0.86680 0.03200
C 	C 	0.89510 0.43680 0.87750 -0.10500
C 	C 	0.98580 0.39260 0.85658 0.03500
H 	H 	0.05940 0.36700 0.87300 0.04200
C 	C 	0.91770 0.44610 0.92520 0.32000
Ag	Ag	0.80464 0.72996 0.29075 0.52000
Ag	Ag	0.46837 0.05709 0.48420 0.52500
O 	O 	0.65490 0.80409 0.31410 -0.36200
O 	O 	0.54670 0.83294 0.24915 -0.37800
O 	O 	0.51780 0.91203 0.44675 -0.35000
O 	O 	0.33960 0.98886 0.44156 -0.38500
N 	N 	0.89250 0.68762 0.35755 -0.14800
N 	N 	0.98320 0.62580 0.43163 -0.15700
C 	C 	0.00110 0.64180 0.35540 -0.00100
H 	H 	0.04860 0.62980 0.32810 0.04000
C 	C 	0.04500 0.61170 0.39270 0.01600
H 	H 	0.12300 0.57960 0.39010 0.02900
C 	C 	0.87720 0.67180 0.43352 0.01300
H 	H 	0.83160 0.68390 0.46100 0.02000
C 	C 	0.83150 0.70240 0.39699 0.00500
H 	H 	0.75470 0.73480 0.39990 0.03400
C 	C 	0.56530 0.83630 0.29000 0.31100
C 	C 	0.46930 0.88560 0.31172 -0.10900
C 	C 	0.35980 0.92300 0.28780 0.02200
H 	H 	0.34850 0.91880 0.25710 0.03400
C 	C 	0.26760 0.96640 0.30880 -0.09400
H 	H 	0.19230 0.99180 0.29260 0.06300
C 	C 	0.28480 0.97280 0.35270 0.02700
H 	H 	0.21980 0.00250 0.36680 0.03200
C 	C 	0.39510 0.93680 0.37750 -0.10600
C 	C 	0.48580 0.89260 0.35658 0.03600
H 	H 	0.55940 0.86700 0.37300 0.04100
C 	C 	0.41770 0.94610 0.42520 0.32000
Ag	Ag	0.80464 0.27004 0.20925 0.52000
Ag	Ag	0.46837 0.94291 0.01580 0.52500
O 	O 	0.65490 0.19591 0.18590 -0.36200
O 	O 	0.54670 0.16706 0.25085 -0.37800
O 	O 	0.51780 0.08797 0.05325 -0.35000
O 	O 	0.33960 0.01114 0.05844 -0.38500
N 	N 	0.89250 0.31238 0.14245 -0.14800
N 	N 	0.98320 0.37420 0.06837 -0.15600
C 	C 	0.00110 0.35820 0.14460 -0.00100
H 	H 	0.04860 0.37020 0.17190 0.04000
C 	C 	0.04500 0.38830 0.10730 0.01600
H 	H 	0.12300 0.42040 0.10990 0.02900
C 	C 	0.87720 0.32820 0.06648 0.01300
H 	H 	0.83160 0.31610 0.03900 0.02000
C 	C 	0.83150 0.29760 0.10301 0.00500
H 	H 	0.75470 0.26520 0.10010 0.03400
C 	C 	0.56530 0.16370 0.21000 0.31100
C 	C 	0.46930 0.11440 0.18828 -0.10900
C 	C 	0.35980 0.07700 0.21220 0.02200
H 	H 	0.34850 0.08120 0.24290 0.03400
C 	C 	0.26760 0.03360 0.19120 -0.09400
H 	H 	0.19230 0.00820 0.20740 0.06300
C 	C 	0.28480 0.02720 0.14730 0.02700
H 	H 	0.21980 0.99750 0.13320 0.03200
C 	C 	0.39510 0.06320 0.12250 -0.10600
C 	C 	0.48580 0.10740 0.14342 0.03600
H 	H 	0.55940 0.13300 0.12700 0.04100
C 	C 	0.41770 0.05390 0.07480 0.32000
Ag	Ag	0.30464 0.77004 0.70925 0.52000
Ag	Ag	0.96837 0.44291 0.51580 0.52500
O 	O 	0.15490 0.69591 0.68590 -0.36200
O 	O 	0.04670 0.66706 0.75085 -0.37700
O 	O 	0.01780 0.58797 0.55325 -0.34900
O 	O 	0.83960 0.51114 0.55844 -0.38500
N 	N 	0.39250 0.81238 0.64245 -0.14800
N 	N 	0.48320 0.87420 0.56837 -0.15700
C 	C 	0.50110 0.85820 0.64460 -0.00000
H 	H 	0.54860 0.87020 0.67190 0.04000
C 	C 	0.54500 0.88830 0.60730 0.01600
H 	H 	0.62300 0.92040 0.60990 0.02900
C 	C 	0.37720 0.82820 0.56648 0.01300
H 	H 	0.33160 0.81610 0.53900 0.02000
C 	C 	0.33150 0.79760 0.60301 0.00500
H 	H 	0.25470 0.76520 0.60010 0.03400
C 	C 	0.06530 0.66370 0.71000 0.31100
C 	C 	0.96930 0.61440 0.68828 -0.10900
C 	C 	0.85980 0.57700 0.71220 0.02200
H 	H 	0.84850 0.58120 0.74290 0.03400
C 	C 	0.76760 0.53360 0.69120 -0.09400
H 	H 	0.69230 0.50820 0.70740 0.06300
C 	C 	0.78480 0.52720 0.64730 0.02700
H 	H 	0.71980 0.49750 0.63320 0.03200
C 	C 	0.89510 0.56320 0.62250 -0.10500
C 	C 	0.98580 0.60740 0.64342 0.03500
H 	H 	0.05940 0.63300 0.62700 0.04200
C 	C 	0.91770 0.55390 0.57480 0.32000
Ag	Ag	0.69536 0.72996 0.70925 0.52000
Ag	Ag	0.03163 0.05709 0.51580 0.52500
O 	O 	0.84510 0.80409 0.68590 -0.36200
O 	O 	0.95330 0.83294 0.75085 -0.37700
O 	O 	0.98220 0.91203 0.55325 -0.34900
O 	O 	0.16040 0.98886 0.55844 -0.38500
N 	N 	0.60750 0.68762 0.64245 -0.14800
N 	N 	0.51680 0.62580 0.56837 -0.15700
C 	C 	0.49890 0.64180 0.64460 -0.00000
H 	H 	0.45140 0.62980 0.67190 0.04000
C 	C 	0.45500 0.61170 0.60730 0.01600
H 	H 	0.37700 0.57960 0.60990 0.02900
C 	C 	0.62280 0.67180 0.56648 0.01300
H 	H 	0.66840 0.68390 0.53900 0.02000
C 	C 	0.66850 0.70240 0.60301 0.00500
H 	H 	0.74530 0.73480 0.60010 0.03400
C 	C 	0.93470 0.83630 0.71000 0.31100
C 	C 	0.03070 0.88560 0.68828 -0.10900
C 	C 	0.14020 0.92300 0.71220 0.02200
H 	H 	0.15150 0.91880 0.74290 0.03400
C 	C 	0.23240 0.96640 0.69120 -0.09400
H 	H 	0.30770 0.99180 0.70740 0.06300
C 	C 	0.21520 0.97280 0.64730 0.02700
H 	H 	0.28020 0.00250 0.63320 0.03200
C 	C 	0.10490 0.93680 0.62250 -0.10500
C 	C 	0.01420 0.89260 0.64342 0.03500
H 	H 	0.94060 0.86700 0.62700 0.04200
C 	C 	0.08230 0.94610 0.57480 0.32000
Ag	Ag	0.19536 0.22996 0.20925 0.52000
Ag	Ag	0.53163 0.55709 0.01580 0.52500
O 	O 	0.34510 0.30409 0.18590 -0.36200
O 	O 	0.45330 0.33294 0.25085 -0.37800
O 	O 	0.48220 0.41203 0.05325 -0.35000
O 	O 	0.66040 0.48886 0.05844 -0.38500
N 	N 	0.10750 0.18762 0.14245 -0.14800
N 	N 	0.01680 0.12580 0.06837 -0.15600
C 	C 	0.99890 0.14180 0.14460 -0.00100
H 	H 	0.95140 0.12980 0.17190 0.04000
C 	C 	0.95500 0.11170 0.10730 0.01600
H 	H 	0.87700 0.07960 0.10990 0.02900
C 	C 	0.12280 0.17180 0.06648 0.01300
H 	H 	0.16840 0.18390 0.03900 0.02000
C 	C 	0.16850 0.20240 0.10301 0.00500
H 	H 	0.24530 0.23480 0.10010 0.03400
C 	C 	0.43470 0.33630 0.21000 0.31100
C 	C 	0.53070 0.38560 0.18828 -0.10900
C 	C 	0.64020 0.42300 0.21220 0.02200
H 	H 	0.65150 0.41880 0.24290 0.03400
C 	C 	0.73240 0.46640 0.19120 -0.09400
H 	H 	0.80770 0.49180 0.20740 0.06300
C 	C 	0.71520 0.47280 0.14730 0.02700
H 	H 	0.78020 0.50250 0.13320 0.03200
C 	C 	0.60490 0.43680 0.12250 -0.10600
C 	C 	0.51420 0.39260 0.14342 0.03600
H 	H 	0.44060 0.36700 0.12700 0.04100
C 	C 	0.58230 0.44610 0.07480 0.32000
Ag	Ag	0.80464 0.22996 0.70925 0.52000
Ag	Ag	0.46837 0.55709 0.51580 0.52500
O 	O 	0.65490 0.30409 0.68590 -0.36200
O 	O 	0.54670 0.33294 0.75085 -0.37800
O 	O 	0.51780 0.41203 0.55325 -0.35000
O 	O 	0.33960 0.48886 0.55844 -0.38500
N 	N 	0.89250 0.18762 0.64245 -0.14800
N 	N 	0.98320 0.12580 0.56837 -0.15700
C 	C 	0.00110 0.14180 0.64460 -0.00100
H 	H 	0.04860 0.12980 0.67190 0.04000
C 	C 	0.04500 0.11170 0.60730 0.01600
H 	H 	0.12300 0.07960 0.60990 0.02900
C 	C 	0.87720 0.17180 0.56648 0.01300
H 	H 	0.83160 0.18390 0.53900 0.02000
C 	C 	0.83150 0.20240 0.60301 0.00500
H 	H 	0.75470 0.23480 0.60010 0.03400
C 	C 	0.56530 0.33630 0.71000 0.31100
C 	C 	0.46930 0.38560 0.68828 -0.10900
C 	C 	0.35980 0.42300 0.71220 0.02200
H 	H 	0.34850 0.41880 0.74290 0.03400
C 	C 	0.26760 0.46640 0.69120 -0.09400
H 	H 	0.19230 0.49180 0.70740 0.06300
C 	C 	0.28480 0.47280 0.64730 0.02700
H 	H 	0.21980 0.50250 0.63320 0.03200
C 	C 	0.39510 0.43680 0.62250 -0.10600
C 	C 	0.48580 0.39260 0.64342 0.03600
H 	H 	0.55940 0.36700 0.62700 0.04100
C 	C 	0.41770 0.44610 0.57480 0.32000
Ag	Ag	0.30464 0.72996 0.20925 0.52000
Ag	Ag	0.96837 0.05709 0.01580 0.52500
O 	O 	0.15490 0.80409 0.18590 -0.36200
O 	O 	0.04670 0.83294 0.25085 -0.37700
O 	O 	0.01780 0.91203 0.05325 -0.34900
O 	O 	0.83960 0.98886 0.05844 -0.38500
N 	N 	0.39250 0.68762 0.14245 -0.14800
N 	N 	0.48320 0.62580 0.06837 -0.15700
C 	C 	0.50110 0.64180 0.14460 -0.00000
H 	H 	0.54860 0.62980 0.17190 0.04000
C 	C 	0.54500 0.61170 0.10730 0.01600
H 	H 	0.62300 0.57960 0.10990 0.02900
C 	C 	0.37720 0.67180 0.06648 0.01300
H 	H 	0.33160 0.68390 0.03900 0.02000
C 	C 	0.33150 0.70240 0.10301 0.00500
H 	H 	0.25470 0.73480 0.10010 0.03400
C 	C 	0.06530 0.83630 0.21000 0.31100
C 	C 	0.96930 0.88560 0.18828 -0.10900
C 	C 	0.85980 0.92300 0.21220 0.02200
H 	H 	0.84850 0.91880 0.24290 0.03400
C 	C 	0.76760 0.96640 0.19120 -0.09400
H 	H 	0.69230 0.99180 0.20740 0.06300
C 	C 	0.78480 0.97280 0.14730 0.02700
H 	H 	0.71980 0.00250 0.13320 0.03200
C 	C 	0.89510 0.93680 0.12250 -0.10500
C 	C 	0.98580 0.89260 0.14342 0.03500
H 	H 	0.05940 0.86700 0.12700 0.04200
C 	C 	0.91770 0.94610 0.07480 0.32000
Ag	Ag	0.69536 0.77004 0.20925 0.52000
Ag	Ag	0.03163 0.44291 0.01580 0.52500
O 	O 	0.84510 0.69591 0.18590 -0.36200
O 	O 	0.95330 0.66706 0.25085 -0.37700
O 	O 	0.98220 0.58797 0.05325 -0.34900
O 	O 	0.16040 0.51114 0.05844 -0.38500
N 	N 	0.60750 0.81238 0.14245 -0.14800
N 	N 	0.51680 0.87420 0.06837 -0.15700
C 	C 	0.49890 0.85820 0.14460 -0.00000
H 	H 	0.45140 0.87020 0.17190 0.04000
C 	C 	0.45500 0.88830 0.10730 0.01600
H 	H 	0.37700 0.92040 0.10990 0.02900
C 	C 	0.62280 0.82820 0.06648 0.01300
H 	H 	0.66840 0.81610 0.03900 0.02000
C 	C 	0.66850 0.79760 0.10301 0.00500
H 	H 	0.74530 0.76520 0.10010 0.03400
C 	C 	0.93470 0.66370 0.21000 0.31100
C 	C 	0.03070 0.61440 0.18828 -0.10900
C 	C 	0.14020 0.57700 0.21220 0.02200
H 	H 	0.15150 0.58120 0.24290 0.03400
C 	C 	0.23240 0.53360 0.19120 -0.09400
H 	H 	0.30770 0.50820 0.20740 0.06300
C 	C 	0.21520 0.52720 0.14730 0.02700
H 	H 	0.28020 0.49750 0.13320 0.03200
C 	C 	0.10490 0.56320 0.12250 -0.10500
C 	C 	0.01420 0.60740 0.14342 0.03500
H 	H 	0.94060 0.63300 0.12700 0.04200
C 	C 	0.08230 0.55390 0.07480 0.32000
Ag	Ag	0.19536 0.27004 0.70925 0.52000
Ag	Ag	0.53163 0.94291 0.51580 0.52500
O 	O 	0.34510 0.19591 0.68590 -0.36200
O 	O 	0.45330 0.16706 0.75085 -0.37800
O 	O 	0.48220 0.08797 0.55325 -0.35000
O 	O 	0.66040 0.01114 0.55844 -0.38500
N 	N 	0.10750 0.31238 0.64245 -0.14800
N 	N 	0.01680 0.37420 0.56837 -0.15700
C 	C 	0.99890 0.35820 0.64460 -0.00100
H 	H 	0.95140 0.37020 0.67190 0.04000
C 	C 	0.95500 0.38830 0.60730 0.01600
H 	H 	0.87700 0.42040 0.60990 0.02900
C 	C 	0.12280 0.32820 0.56648 0.01300
H 	H 	0.16840 0.31610 0.53900 0.02000
C 	C 	0.16850 0.29760 0.60301 0.00500
H 	H 	0.24530 0.26520 0.60010 0.03400
C 	C 	0.43470 0.16370 0.71000 0.31100
C 	C 	0.53070 0.11440 0.68828 -0.10900
C 	C 	0.64020 0.07700 0.71220 0.02200
H 	H 	0.65150 0.08120 0.74290 0.03400
C 	C 	0.73240 0.03360 0.69120 -0.09400
H 	H 	0.80770 0.00820 0.70740 0.06300
C 	C 	0.71520 0.02720 0.64730 0.02700
H 	H 	0.78020 0.99750 0.63320 0.03200
C 	C 	0.60490 0.06320 0.62250 -0.10600
C 	C 	0.51420 0.10740 0.64342 0.03600
H 	H 	0.44060 0.13300 0.62700 0.04100
C 	C 	0.58230 0.05390 0.57480 0.32000
Ag	Ag	0.19536 0.72996 0.79075 0.52000
Ag	Ag	0.53163 0.05709 0.98420 0.52500
O 	O 	0.34510 0.80409 0.81410 -0.36200
O 	O 	0.45330 0.83294 0.74915 -0.37800
O 	O 	0.48220 0.91203 0.94675 -0.35000
O 	O 	0.66040 0.98886 0.94156 -0.38500
N 	N 	0.10750 0.68762 0.85755 -0.14800
N 	N 	0.01680 0.62580 0.93163 -0.15600
C 	C 	0.99890 0.64180 0.85540 -0.00100
H 	H 	0.95140 0.62980 0.82810 0.04000
C 	C 	0.95500 0.61170 0.89270 0.01600
H 	H 	0.87700 0.57960 0.89010 0.02900
C 	C 	0.12280 0.67180 0.93352 0.01300
H 	H 	0.16840 0.68390 0.96100 0.02000
C 	C 	0.16850 0.70240 0.89699 0.00500
H 	H 	0.24530 0.73480 0.89990 0.03400
C 	C 	0.43470 0.83630 0.79000 0.31100
C 	C 	0.53070 0.88560 0.81172 -0.10900
C 	C 	0.64020 0.92300 0.78780 0.02200
H 	H 	0.65150 0.91880 0.75710 0.03400
C 	C 	0.73240 0.96640 0.80880 -0.09400
H 	H 	0.80770 0.99180 0.79260 0.06300
C 	C 	0.71520 0.97280 0.85270 0.02700
H 	H 	0.78020 0.00250 0.86680 0.03200
C 	C 	0.60490 0.93680 0.87750 -0.10600
C 	C 	0.51420 0.89260 0.85658 0.03600
H 	H 	0.44060 0.86700 0.87300 0.04100
C 	C 	0.58230 0.94610 0.92520 0.32000
Ag	Ag	0.69536 0.22996 0.29075 0.52000
Ag	Ag	0.03163 0.55709 0.48420 0.52500
O 	O 	0.84510 0.30409 0.31410 -0.36200
O 	O 	0.95330 0.33294 0.24915 -0.37700
O 	O 	0.98220 0.41203 0.44675 -0.34900
O 	O 	0.16040 0.48886 0.44156 -0.38500
N 	N 	0.60750 0.18762 0.35755 -0.14800
N 	N 	0.51680 0.12580 0.43163 -0.15700
C 	C 	0.49890 0.14180 0.35540 -0.00000
H 	H 	0.45140 0.12980 0.32810 0.04000
C 	C 	0.45500 0.11170 0.39270 0.01600
H 	H 	0.37700 0.07960 0.39010 0.02900
C 	C 	0.62280 0.17180 0.43352 0.01300
H 	H 	0.66840 0.18390 0.46100 0.02000
C 	C 	0.66850 0.20240 0.39699 0.00500
H 	H 	0.74530 0.23480 0.39990 0.03400
C 	C 	0.93470 0.33630 0.29000 0.31100
C 	C 	0.03070 0.38560 0.31172 -0.10900
C 	C 	0.14020 0.42300 0.28780 0.02200
H 	H 	0.15150 0.41880 0.25710 0.03400
C 	C 	0.23240 0.46640 0.30880 -0.09400
H 	H 	0.30770 0.49180 0.29260 0.06300
C 	C 	0.21520 0.47280 0.35270 0.02700
H 	H 	0.28020 0.50250 0.36680 0.03200
C 	C 	0.10490 0.43680 0.37750 -0.10500
C 	C 	0.01420 0.39260 0.35658 0.03500
H 	H 	0.94060 0.36700 0.37300 0.04200
C 	C 	0.08230 0.44610 0.42520 0.32000
Ag	Ag	0.30464 0.27004 0.29075 0.52000
Ag	Ag	0.96837 0.94291 0.48420 0.52500
O 	O 	0.15490 0.19591 0.31410 -0.36200
O 	O 	0.04670 0.16706 0.24915 -0.37700
O 	O 	0.01780 0.08797 0.44675 -0.34900
O 	O 	0.83960 0.01114 0.44156 -0.38500
N 	N 	0.39250 0.31238 0.35755 -0.14800
N 	N 	0.48320 0.37420 0.43163 -0.15700
C 	C 	0.50110 0.35820 0.35540 -0.00000
H 	H 	0.54860 0.37020 0.32810 0.04000
C 	C 	0.54500 0.38830 0.39270 0.01600
H 	H 	0.62300 0.42040 0.39010 0.02900
C 	C 	0.37720 0.32820 0.43352 0.01300
H 	H 	0.33160 0.31610 0.46100 0.02000
C 	C 	0.33150 0.29760 0.39699 0.00500
H 	H 	0.25470 0.26520 0.39990 0.03400
C 	C 	0.06530 0.16370 0.29000 0.31100
C 	C 	0.96930 0.11440 0.31172 -0.10900
C 	C 	0.85980 0.07700 0.28780 0.02200
H 	H 	0.84850 0.08120 0.25710 0.03400
C 	C 	0.76760 0.03360 0.30880 -0.09400
H 	H 	0.69230 0.00820 0.29260 0.06300
C 	C 	0.78480 0.02720 0.35270 0.02700
H 	H 	0.71980 0.99750 0.36680 0.03200
C 	C 	0.89510 0.06320 0.37750 -0.10500
C 	C 	0.98580 0.10740 0.35658 0.03500
H 	H 	0.05940 0.13300 0.37300 0.04200
C 	C 	0.91770 0.05390 0.42520 0.32000
Ag	Ag	0.80464 0.77004 0.79075 0.52000
Ag	Ag	0.46837 0.44291 0.98420 0.52500
O 	O 	0.65490 0.69591 0.81410 -0.36200
O 	O 	0.54670 0.66706 0.74915 -0.37800
O 	O 	0.51780 0.58797 0.94675 -0.35000
O 	O 	0.33960 0.51114 0.94156 -0.38500
N 	N 	0.89250 0.81238 0.85755 -0.14800
N 	N 	0.98320 0.87420 0.93163 -0.15600
C 	C 	0.00110 0.85820 0.85540 -0.00100
H 	H 	0.04860 0.87020 0.82810 0.04000
C 	C 	0.04500 0.88830 0.89270 0.01600
H 	H 	0.12300 0.92040 0.89010 0.02900
C 	C 	0.87720 0.82820 0.93352 0.01300
H 	H 	0.83160 0.81610 0.96100 0.02000
C 	C 	0.83150 0.79760 0.89699 0.00500
H 	H 	0.75470 0.76520 0.89990 0.03400
C 	C 	0.56530 0.66370 0.79000 0.31100
C 	C 	0.46930 0.61440 0.81172 -0.10900
C 	C 	0.35980 0.57700 0.78780 0.02200
H 	H 	0.34850 0.58120 0.75710 0.03400
C 	C 	0.26760 0.53360 0.80880 -0.09400
H 	H 	0.19230 0.50820 0.79260 0.06300
C 	C 	0.28480 0.52720 0.85270 0.02700
H 	H 	0.21980 0.49750 0.86680 0.03200
C 	C 	0.39510 0.56320 0.87750 -0.10600
C 	C 	0.48580 0.60740 0.85658 0.03600
H 	H 	0.55940 0.63300 0.87300 0.04100
C 	C 	0.41770 0.55390 0.92520 0.32000
