data_crystal

_cell_length_a 7.23500
_cell_length_b 23.71100
_cell_length_c 30.53000
_cell_angle_alpha 90.00000
_cell_angle_beta  90.00000
_cell_angle_gamma 90.00000

_symmetry_space_group_name_	'P 1'
_symmetry_space_group_name_H-M	'P 1'

loop_
_symmetry_equiv_pos_as_xyz
  x,y,z

loop_
_atom_site_label
_atom_site_type_symbol
_atom_site_fract_x
_atom_site_fract_y
_atom_site_fract_z
_atom_site_charge
Ag	Ag	0.19517 0.77006 0.29060 0.52200
Ag	Ag	0.52360 0.44216 0.48393 0.52800
O 	O 	0.34090 0.69581 0.31393 -0.37300
O 	O 	0.45080 0.66791 0.24989 -0.39100
O 	O 	0.47460 0.58778 0.44631 -0.36300
O 	O 	0.65170 0.51231 0.44193 -0.39800
N 	N 	0.11000 0.81285 0.35761 -0.15000
N 	N 	0.02270 0.87410 0.43130 -0.15900
C 	C 	0.00330 0.85824 0.35575 0.00300
H 	H 	0.95620 0.87000 0.32860 0.03800
C 	C 	0.96070 0.88820 0.39250 0.01300
H 	H 	0.88400 0.92000 0.38990 0.02800
C 	C 	0.12810 0.82840 0.43294 0.01200
H 	H 	0.17440 0.81660 0.46020 0.01800
C 	C 	0.17140 0.79810 0.39676 0.00500
H 	H 	0.24640 0.76590 0.39950 0.03300
C 	C 	0.43120 0.66370 0.29035 0.34100
C 	C 	0.52450 0.61473 0.31207 -0.14200
C 	C 	0.63170 0.57780 0.28845 0.05200
H 	H 	0.64310 0.58220 0.25800 0.02200
C 	C 	0.72270 0.53420 0.30917 -0.12700
H 	H 	0.79640 0.50920 0.29290 0.07400
C 	C 	0.70570 0.52750 0.35312 0.05600
H 	H 	0.76910 0.49790 0.36710 0.02100
C 	C 	0.59670 0.56331 0.37764 -0.13500
C 	C 	0.50710 0.60719 0.35659 0.06500
H 	H 	0.43350 0.63220 0.37290 0.03100
C 	C 	0.57290 0.55400 0.42550 0.35000
Ag	Ag	0.69517 0.27006 0.79060 0.52200
Ag	Ag	0.02360 0.94216 0.98393 0.52900
O 	O 	0.84090 0.19581 0.81393 -0.37300
O 	O 	0.95080 0.16791 0.74989 -0.39100
O 	O 	0.97460 0.08778 0.94631 -0.36200
O 	O 	0.15170 0.01231 0.94193 -0.39800
N 	N 	0.61000 0.31285 0.85761 -0.14800
N 	N 	0.52270 0.37410 0.93130 -0.15800
C 	C 	0.50330 0.35824 0.85575 0.00100
H 	H 	0.45620 0.37000 0.82860 0.04000
C 	C 	0.46070 0.38820 0.89250 0.01600
H 	H 	0.38400 0.42000 0.88990 0.02800
C 	C 	0.62810 0.32840 0.93294 0.01300
H 	H 	0.67440 0.31660 0.96020 0.01900
C 	C 	0.67140 0.29810 0.89676 0.00500
H 	H 	0.74640 0.26590 0.89950 0.03400
C 	C 	0.93120 0.16370 0.79035 0.34200
C 	C 	0.02450 0.11473 0.81207 -0.14100
C 	C 	0.13170 0.07780 0.78845 0.05300
H 	H 	0.14310 0.08220 0.75800 0.02300
C 	C 	0.22270 0.03420 0.80917 -0.12600
H 	H 	0.29640 0.00920 0.79290 0.07500
C 	C 	0.20570 0.02750 0.85312 0.05700
H 	H 	0.26910 0.99790 0.86710 0.02200
C 	C 	0.09670 0.06331 0.87764 -0.13400
C 	C 	0.00710 0.10719 0.85659 0.06500
H 	H 	0.93350 0.13220 0.87290 0.03200
C 	C 	0.07290 0.05400 0.92550 0.35100
Ag	Ag	0.30483 0.22994 0.79060 0.52300
Ag	Ag	0.97640 0.55784 0.98393 0.53000
O 	O 	0.15910 0.30419 0.81393 -0.37200
O 	O 	0.04920 0.33209 0.74989 -0.39000
O 	O 	0.02540 0.41222 0.94631 -0.36100
O 	O 	0.84830 0.48769 0.94193 -0.39700
N 	N 	0.39000 0.18715 0.85761 -0.14800
N 	N 	0.47730 0.12590 0.93130 -0.15800
C 	C 	0.49670 0.14176 0.85575 0.00100
H 	H 	0.54380 0.13000 0.82860 0.04000
C 	C 	0.53930 0.11180 0.89250 0.01600
H 	H 	0.61600 0.08000 0.88990 0.02800
C 	C 	0.37190 0.17160 0.93294 0.01300
H 	H 	0.32560 0.18340 0.96020 0.01900
C 	C 	0.32860 0.20190 0.89676 0.00500
H 	H 	0.25360 0.23410 0.89950 0.03400
C 	C 	0.06880 0.33630 0.79035 0.34200
C 	C 	0.97550 0.38527 0.81207 -0.14100
C 	C 	0.86830 0.42220 0.78845 0.05300
H 	H 	0.85690 0.41780 0.75800 0.02300
C 	C 	0.77730 0.46580 0.80917 -0.12600
H 	H 	0.70360 0.49080 0.79290 0.07500
C 	C 	0.79430 0.47250 0.85312 0.05700
H 	H 	0.73090 0.50210 0.86710 0.02200
C 	C 	0.90330 0.43669 0.87764 -0.13400
C 	C 	0.99290 0.39281 0.85659 0.06500
H 	H 	0.06650 0.36780 0.87290 0.03200
C 	C 	0.92710 0.44600 0.92550 0.35000
Ag	Ag	0.80483 0.72994 0.29060 0.52300
Ag	Ag	0.47640 0.05784 0.48393 0.52900
O 	O 	0.65910 0.80419 0.31393 -0.37200
O 	O 	0.54920 0.83209 0.24989 -0.39000
O 	O 	0.52540 0.91222 0.44631 -0.36200
O 	O 	0.34830 0.98769 0.44193 -0.39700
N 	N 	0.89000 0.68715 0.35761 -0.14900
N 	N 	0.97730 0.62590 0.43130 -0.15800
C 	C 	0.99670 0.64176 0.35575 0.00400
H 	H 	0.04380 0.63000 0.32860 0.03900
C 	C 	0.03930 0.61180 0.39250 0.01400
H 	H 	0.11600 0.58000 0.38990 0.02900
C 	C 	0.87190 0.67160 0.43294 0.01300
H 	H 	0.82560 0.68340 0.46020 0.01900
C 	C 	0.82860 0.70190 0.39676 0.00600
H 	H 	0.75360 0.73410 0.39950 0.03400
C 	C 	0.56880 0.83630 0.29035 0.34200
C 	C 	0.47550 0.88527 0.31207 -0.14100
C 	C 	0.36830 0.92220 0.28845 0.05300
H 	H 	0.35690 0.91780 0.25800 0.02300
C 	C 	0.27730 0.96580 0.30917 -0.12600
H 	H 	0.20360 0.99080 0.29290 0.07500
C 	C 	0.29430 0.97250 0.35312 0.05700
H 	H 	0.23090 0.00210 0.36710 0.02200
C 	C 	0.40330 0.93669 0.37764 -0.13400
C 	C 	0.49290 0.89281 0.35659 0.06600
H 	H 	0.56650 0.86780 0.37290 0.03200
C 	C 	0.42710 0.94600 0.42550 0.35100
Ag	Ag	0.80483 0.27006 0.20940 0.52300
Ag	Ag	0.47640 0.94216 0.01607 0.53000
O 	O 	0.65910 0.19581 0.18607 -0.37200
O 	O 	0.54920 0.16791 0.25011 -0.39000
O 	O 	0.52540 0.08778 0.05369 -0.36100
O 	O 	0.34830 0.01231 0.05807 -0.39700
N 	N 	0.89000 0.31285 0.14239 -0.14900
N 	N 	0.97730 0.37410 0.06870 -0.15800
C 	C 	0.99670 0.35824 0.14425 0.00400
H 	H 	0.04380 0.37000 0.17140 0.03900
C 	C 	0.03930 0.38820 0.10750 0.01400
H 	H 	0.11600 0.42000 0.11010 0.02900
C 	C 	0.87190 0.32840 0.06706 0.01300
H 	H 	0.82560 0.31660 0.03980 0.01900
C 	C 	0.82860 0.29810 0.10324 0.00600
H 	H 	0.75360 0.26590 0.10050 0.03400
C 	C 	0.56880 0.16370 0.20965 0.34200
C 	C 	0.47550 0.11473 0.18793 -0.14100
C 	C 	0.36830 0.07780 0.21155 0.05300
H 	H 	0.35690 0.08220 0.24200 0.02300
C 	C 	0.27730 0.03420 0.19083 -0.12600
H 	H 	0.20360 0.00920 0.20710 0.07500
C 	C 	0.29430 0.02750 0.14688 0.05700
H 	H 	0.23090 0.99790 0.13290 0.02200
C 	C 	0.40330 0.06331 0.12236 -0.13400
C 	C 	0.49290 0.10719 0.14341 0.06600
H 	H 	0.56650 0.13220 0.12710 0.03200
C 	C 	0.42710 0.05400 0.07450 0.35100
Ag	Ag	0.30483 0.77006 0.70940 0.52300
Ag	Ag	0.97640 0.44216 0.51607 0.52900
O 	O 	0.15910 0.69581 0.68607 -0.37200
O 	O 	0.04920 0.66791 0.75011 -0.39000
O 	O 	0.02540 0.58778 0.55369 -0.36100
O 	O 	0.84830 0.51231 0.55807 -0.39700
N 	N 	0.39000 0.81285 0.64239 -0.14800
N 	N 	0.47730 0.87410 0.56870 -0.15800
C 	C 	0.49670 0.85824 0.64425 0.00100
H 	H 	0.54380 0.87000 0.67140 0.04000
C 	C 	0.53930 0.88820 0.60750 0.01600
H 	H 	0.61600 0.92000 0.61010 0.02800
C 	C 	0.37190 0.82840 0.56706 0.01300
H 	H 	0.32560 0.81660 0.53980 0.01900
C 	C 	0.32860 0.79810 0.60324 0.00500
H 	H 	0.25360 0.76590 0.60050 0.03400
C 	C 	0.06880 0.66370 0.70965 0.34200
C 	C 	0.97550 0.61473 0.68793 -0.14100
C 	C 	0.86830 0.57780 0.71155 0.05300
H 	H 	0.85690 0.58220 0.74200 0.02300
C 	C 	0.77730 0.53420 0.69083 -0.12600
H 	H 	0.70360 0.50920 0.70710 0.07500
C 	C 	0.79430 0.52750 0.64688 0.05700
H 	H 	0.73090 0.49790 0.63290 0.02200
C 	C 	0.90330 0.56331 0.62236 -0.13400
C 	C 	0.99290 0.60719 0.64341 0.06500
H 	H 	0.06650 0.63220 0.62710 0.03200
C 	C 	0.92710 0.55400 0.57450 0.35100
Ag	Ag	0.69517 0.72994 0.70940 0.52300
Ag	Ag	0.02360 0.05784 0.51607 0.52900
O 	O 	0.84090 0.80419 0.68607 -0.37200
O 	O 	0.95080 0.83209 0.75011 -0.39000
O 	O 	0.97460 0.91222 0.55369 -0.36100
O 	O 	0.15170 0.98769 0.55807 -0.39700
N 	N 	0.61000 0.68715 0.64239 -0.14800
N 	N 	0.52270 0.62590 0.56870 -0.15800
C 	C 	0.50330 0.64176 0.64425 0.00100
H 	H 	0.45620 0.63000 0.67140 0.04000
C 	C 	0.46070 0.61180 0.60750 0.01600
H 	H 	0.38400 0.58000 0.61010 0.02800
C 	C 	0.62810 0.67160 0.56706 0.01300
H 	H 	0.67440 0.68340 0.53980 0.01900
C 	C 	0.67140 0.70190 0.60324 0.00500
H 	H 	0.74640 0.73410 0.60050 0.03400
C 	C 	0.93120 0.83630 0.70965 0.34200
C 	C 	0.02450 0.88527 0.68793 -0.14100
C 	C 	0.13170 0.92220 0.71155 0.05300
H 	H 	0.14310 0.91780 0.74200 0.02300
C 	C 	0.22270 0.96580 0.69083 -0.12600
H 	H 	0.29640 0.99080 0.70710 0.07500
C 	C 	0.20570 0.97250 0.64688 0.05700
H 	H 	0.26910 0.00210 0.63290 0.02200
C 	C 	0.09670 0.93669 0.62236 -0.13400
C 	C 	0.00710 0.89281 0.64341 0.06500
H 	H 	0.93350 0.86780 0.62710 0.03200
C 	C 	0.07290 0.94600 0.57450 0.35100
Ag	Ag	0.19517 0.22994 0.20940 0.52300
Ag	Ag	0.52360 0.55784 0.01607 0.53000
O 	O 	0.34090 0.30419 0.18607 -0.37200
O 	O 	0.45080 0.33209 0.25011 -0.39000
O 	O 	0.47460 0.41222 0.05369 -0.36100
O 	O 	0.65170 0.48769 0.05807 -0.39700
N 	N 	0.11000 0.18715 0.14239 -0.14900
N 	N 	0.02270 0.12590 0.06870 -0.15800
C 	C 	0.00330 0.14176 0.14425 0.00400
H 	H 	0.95620 0.13000 0.17140 0.03900
C 	C 	0.96070 0.11180 0.10750 0.01400
H 	H 	0.88400 0.08000 0.11010 0.02900
C 	C 	0.12810 0.17160 0.06706 0.01300
H 	H 	0.17440 0.18340 0.03980 0.01900
C 	C 	0.17140 0.20190 0.10324 0.00600
H 	H 	0.24640 0.23410 0.10050 0.03400
C 	C 	0.43120 0.33630 0.20965 0.34200
C 	C 	0.52450 0.38527 0.18793 -0.14100
C 	C 	0.63170 0.42220 0.21155 0.05300
H 	H 	0.64310 0.41780 0.24200 0.02300
C 	C 	0.72270 0.46580 0.19083 -0.12600
H 	H 	0.79640 0.49080 0.20710 0.07500
C 	C 	0.70570 0.47250 0.14688 0.05700
H 	H 	0.76910 0.50210 0.13290 0.02200
C 	C 	0.59670 0.43669 0.12236 -0.13400
C 	C 	0.50710 0.39281 0.14341 0.06600
H 	H 	0.43350 0.36780 0.12710 0.03200
C 	C 	0.57290 0.44600 0.07450 0.35100
Ag	Ag	0.80483 0.22994 0.70940 0.52300
Ag	Ag	0.47640 0.55784 0.51607 0.52900
O 	O 	0.65910 0.30419 0.68607 -0.37200
O 	O 	0.54920 0.33209 0.75011 -0.39000
O 	O 	0.52540 0.41222 0.55369 -0.36200
O 	O 	0.34830 0.48769 0.55807 -0.39700
N 	N 	0.89000 0.18715 0.64239 -0.14900
N 	N 	0.97730 0.12590 0.56870 -0.15800
C 	C 	0.99670 0.14176 0.64425 0.00400
H 	H 	0.04380 0.13000 0.67140 0.03900
C 	C 	0.03930 0.11180 0.60750 0.01400
H 	H 	0.11600 0.08000 0.61010 0.02900
C 	C 	0.87190 0.17160 0.56706 0.01300
H 	H 	0.82560 0.18340 0.53980 0.01900
C 	C 	0.82860 0.20190 0.60324 0.00600
H 	H 	0.75360 0.23410 0.60050 0.03400
C 	C 	0.56880 0.33630 0.70965 0.34200
C 	C 	0.47550 0.38527 0.68793 -0.14100
C 	C 	0.36830 0.42220 0.71155 0.05300
H 	H 	0.35690 0.41780 0.74200 0.02300
C 	C 	0.27730 0.46580 0.69083 -0.12600
H 	H 	0.20360 0.49080 0.70710 0.07500
C 	C 	0.29430 0.47250 0.64688 0.05700
H 	H 	0.23090 0.50210 0.63290 0.02200
C 	C 	0.40330 0.43669 0.62236 -0.13400
C 	C 	0.49290 0.39281 0.64341 0.06600
H 	H 	0.56650 0.36780 0.62710 0.03200
C 	C 	0.42710 0.44600 0.57450 0.35100
Ag	Ag	0.30483 0.72994 0.20940 0.52300
Ag	Ag	0.97640 0.05784 0.01607 0.53000
O 	O 	0.15910 0.80419 0.18607 -0.37200
O 	O 	0.04920 0.83209 0.25011 -0.39000
O 	O 	0.02540 0.91222 0.05369 -0.36100
O 	O 	0.84830 0.98769 0.05807 -0.39700
N 	N 	0.39000 0.68715 0.14239 -0.14800
N 	N 	0.47730 0.62590 0.06870 -0.15800
C 	C 	0.49670 0.64176 0.14425 0.00100
H 	H 	0.54380 0.63000 0.17140 0.04000
C 	C 	0.53930 0.61180 0.10750 0.01600
H 	H 	0.61600 0.58000 0.11010 0.02800
C 	C 	0.37190 0.67160 0.06706 0.01300
H 	H 	0.32560 0.68340 0.03980 0.01900
C 	C 	0.32860 0.70190 0.10324 0.00500
H 	H 	0.25360 0.73410 0.10050 0.03400
C 	C 	0.06880 0.83630 0.20965 0.34200
C 	C 	0.97550 0.88527 0.18793 -0.14100
C 	C 	0.86830 0.92220 0.21155 0.05300
H 	H 	0.85690 0.91780 0.24200 0.02300
C 	C 	0.77730 0.96580 0.19083 -0.12600
H 	H 	0.70360 0.99080 0.20710 0.07500
C 	C 	0.79430 0.97250 0.14688 0.05700
H 	H 	0.73090 0.00210 0.13290 0.02200
C 	C 	0.90330 0.93669 0.12236 -0.13400
C 	C 	0.99290 0.89281 0.14341 0.06500
H 	H 	0.06650 0.86780 0.12710 0.03200
C 	C 	0.92710 0.94600 0.07450 0.35100
Ag	Ag	0.69517 0.77006 0.20940 0.52300
Ag	Ag	0.02360 0.44216 0.01607 0.53000
O 	O 	0.84090 0.69581 0.18607 -0.37200
O 	O 	0.95080 0.66791 0.25011 -0.39000
O 	O 	0.97460 0.58778 0.05369 -0.36100
O 	O 	0.15170 0.51231 0.05807 -0.39700
N 	N 	0.61000 0.81285 0.14239 -0.14800
N 	N 	0.52270 0.87410 0.06870 -0.15800
C 	C 	0.50330 0.85824 0.14425 0.00100
H 	H 	0.45620 0.87000 0.17140 0.04000
C 	C 	0.46070 0.88820 0.10750 0.01600
H 	H 	0.38400 0.92000 0.11010 0.02800
C 	C 	0.62810 0.82840 0.06706 0.01300
H 	H 	0.67440 0.81660 0.03980 0.01900
C 	C 	0.67140 0.79810 0.10324 0.00500
H 	H 	0.74640 0.76590 0.10050 0.03400
C 	C 	0.93120 0.66370 0.20965 0.34200
C 	C 	0.02450 0.61473 0.18793 -0.14100
C 	C 	0.13170 0.57780 0.21155 0.05300
H 	H 	0.14310 0.58220 0.24200 0.02300
C 	C 	0.22270 0.53420 0.19083 -0.12600
H 	H 	0.29640 0.50920 0.20710 0.07500
C 	C 	0.20570 0.52750 0.14688 0.05700
H 	H 	0.26910 0.49790 0.13290 0.02200
C 	C 	0.09670 0.56331 0.12236 -0.13400
C 	C 	0.00710 0.60719 0.14341 0.06500
H 	H 	0.93350 0.63220 0.12710 0.03200
C 	C 	0.07290 0.55400 0.07450 0.35000
Ag	Ag	0.19517 0.27006 0.70940 0.52300
Ag	Ag	0.52360 0.94216 0.51607 0.52900
O 	O 	0.34090 0.19581 0.68607 -0.37200
O 	O 	0.45080 0.16791 0.75011 -0.39000
O 	O 	0.47460 0.08778 0.55369 -0.36200
O 	O 	0.65170 0.01231 0.55807 -0.39700
N 	N 	0.11000 0.31285 0.64239 -0.14900
N 	N 	0.02270 0.37410 0.56870 -0.15800
C 	C 	0.00330 0.35824 0.64425 0.00400
H 	H 	0.95620 0.37000 0.67140 0.03900
C 	C 	0.96070 0.38820 0.60750 0.01400
H 	H 	0.88400 0.42000 0.61010 0.02900
C 	C 	0.12810 0.32840 0.56706 0.01300
H 	H 	0.17440 0.31660 0.53980 0.01900
C 	C 	0.17140 0.29810 0.60324 0.00600
H 	H 	0.24640 0.26590 0.60050 0.03400
C 	C 	0.43120 0.16370 0.70965 0.34200
C 	C 	0.52450 0.11473 0.68793 -0.14100
C 	C 	0.63170 0.07780 0.71155 0.05300
H 	H 	0.64310 0.08220 0.74200 0.02300
C 	C 	0.72270 0.03420 0.69083 -0.12600
H 	H 	0.79640 0.00920 0.70710 0.07500
C 	C 	0.70570 0.02750 0.64688 0.05700
H 	H 	0.76910 0.99790 0.63290 0.02200
C 	C 	0.59670 0.06331 0.62236 -0.13400
C 	C 	0.50710 0.10719 0.64341 0.06600
H 	H 	0.43350 0.13220 0.62710 0.03200
C 	C 	0.57290 0.05400 0.57450 0.35100
Ag	Ag	0.19517 0.72994 0.79060 0.52300
Ag	Ag	0.52360 0.05784 0.98393 0.53000
O 	O 	0.34090 0.80419 0.81393 -0.37200
O 	O 	0.45080 0.83209 0.74989 -0.39000
O 	O 	0.47460 0.91222 0.94631 -0.36100
O 	O 	0.65170 0.98769 0.94193 -0.39700
N 	N 	0.11000 0.68715 0.85761 -0.14900
N 	N 	0.02270 0.62590 0.93130 -0.15800
C 	C 	0.00330 0.64176 0.85575 0.00400
H 	H 	0.95620 0.63000 0.82860 0.03900
C 	C 	0.96070 0.61180 0.89250 0.01400
H 	H 	0.88400 0.58000 0.88990 0.02900
C 	C 	0.12810 0.67160 0.93294 0.01300
H 	H 	0.17440 0.68340 0.96020 0.01900
C 	C 	0.17140 0.70190 0.89676 0.00600
H 	H 	0.24640 0.73410 0.89950 0.03400
C 	C 	0.43120 0.83630 0.79035 0.34200
C 	C 	0.52450 0.88527 0.81207 -0.14100
C 	C 	0.63170 0.92220 0.78845 0.05300
H 	H 	0.64310 0.91780 0.75800 0.02300
C 	C 	0.72270 0.96580 0.80917 -0.12600
H 	H 	0.79640 0.99080 0.79290 0.07500
C 	C 	0.70570 0.97250 0.85312 0.05700
H 	H 	0.76910 0.00210 0.86710 0.02200
C 	C 	0.59670 0.93669 0.87764 -0.13400
C 	C 	0.50710 0.89281 0.85659 0.06600
H 	H 	0.43350 0.86780 0.87290 0.03200
C 	C 	0.57290 0.94600 0.92550 0.35100
Ag	Ag	0.69517 0.22994 0.29060 0.52300
Ag	Ag	0.02360 0.55784 0.48393 0.52900
O 	O 	0.84090 0.30419 0.31393 -0.37200
O 	O 	0.95080 0.33209 0.24989 -0.39000
O 	O 	0.97460 0.41222 0.44631 -0.36100
O 	O 	0.15170 0.48769 0.44193 -0.39700
N 	N 	0.61000 0.18715 0.35761 -0.14800
N 	N 	0.52270 0.12590 0.43130 -0.15800
C 	C 	0.50330 0.14176 0.35575 0.00100
H 	H 	0.45620 0.13000 0.32860 0.04000
C 	C 	0.46070 0.11180 0.39250 0.01600
H 	H 	0.38400 0.08000 0.38990 0.02800
C 	C 	0.62810 0.17160 0.43294 0.01300
H 	H 	0.67440 0.18340 0.46020 0.01900
C 	C 	0.67140 0.20190 0.39676 0.00500
H 	H 	0.74640 0.23410 0.39950 0.03400
C 	C 	0.93120 0.33630 0.29035 0.34200
C 	C 	0.02450 0.38527 0.31207 -0.14100
C 	C 	0.13170 0.42220 0.28845 0.05300
H 	H 	0.14310 0.41780 0.25800 0.02300
C 	C 	0.22270 0.46580 0.30917 -0.12600
H 	H 	0.29640 0.49080 0.29290 0.07500
C 	C 	0.20570 0.47250 0.35312 0.05700
H 	H 	0.26910 0.50210 0.36710 0.02200
C 	C 	0.09670 0.43669 0.37764 -0.13400
C 	C 	0.00710 0.39281 0.35659 0.06500
H 	H 	0.93350 0.36780 0.37290 0.03200
C 	C 	0.07290 0.44600 0.42550 0.35100
Ag	Ag	0.30483 0.27006 0.29060 0.52300
Ag	Ag	0.97640 0.94216 0.48393 0.52900
O 	O 	0.15910 0.19581 0.31393 -0.37200
O 	O 	0.04920 0.16791 0.24989 -0.39000
O 	O 	0.02540 0.08778 0.44631 -0.36100
O 	O 	0.84830 0.01231 0.44193 -0.39700
N 	N 	0.39000 0.31285 0.35761 -0.14800
N 	N 	0.47730 0.37410 0.43130 -0.15800
C 	C 	0.49670 0.35824 0.35575 0.00100
H 	H 	0.54380 0.37000 0.32860 0.04000
C 	C 	0.53930 0.38820 0.39250 0.01600
H 	H 	0.61600 0.42000 0.38990 0.02800
C 	C 	0.37190 0.32840 0.43294 0.01300
H 	H 	0.32560 0.31660 0.46020 0.01900
C 	C 	0.32860 0.29810 0.39676 0.00500
H 	H 	0.25360 0.26590 0.39950 0.03400
C 	C 	0.06880 0.16370 0.29035 0.34200
C 	C 	0.97550 0.11473 0.31207 -0.14100
C 	C 	0.86830 0.07780 0.28845 0.05300
H 	H 	0.85690 0.08220 0.25800 0.02300
C 	C 	0.77730 0.03420 0.30917 -0.12600
H 	H 	0.70360 0.00920 0.29290 0.07500
C 	C 	0.79430 0.02750 0.35312 0.05700
H 	H 	0.73090 0.99790 0.36710 0.02200
C 	C 	0.90330 0.06331 0.37764 -0.13400
C 	C 	0.99290 0.10719 0.35659 0.06500
H 	H 	0.06650 0.13220 0.37290 0.03200
C 	C 	0.92710 0.05400 0.42550 0.35100
Ag	Ag	0.80483 0.77006 0.79060 0.52300
Ag	Ag	0.47640 0.44216 0.98393 0.53000
O 	O 	0.65910 0.69581 0.81393 -0.37200
O 	O 	0.54920 0.66791 0.74989 -0.39000
O 	O 	0.52540 0.58778 0.94631 -0.36100
O 	O 	0.34830 0.51231 0.94193 -0.39700
N 	N 	0.89000 0.81285 0.85761 -0.14900
N 	N 	0.97730 0.87410 0.93130 -0.15800
C 	C 	0.99670 0.85824 0.85575 0.00400
H 	H 	0.04380 0.87000 0.82860 0.03900
C 	C 	0.03930 0.88820 0.89250 0.01400
H 	H 	0.11600 0.92000 0.88990 0.02900
C 	C 	0.87190 0.82840 0.93294 0.01300
H 	H 	0.82560 0.81660 0.96020 0.01900
C 	C 	0.82860 0.79810 0.89676 0.00600
H 	H 	0.75360 0.76590 0.89950 0.03400
C 	C 	0.56880 0.66370 0.79035 0.34200
C 	C 	0.47550 0.61473 0.81207 -0.14100
C 	C 	0.36830 0.57780 0.78845 0.05300
H 	H 	0.35690 0.58220 0.75800 0.02300
C 	C 	0.27730 0.53420 0.80917 -0.12600
H 	H 	0.20360 0.50920 0.79290 0.07500
C 	C 	0.29430 0.52750 0.85312 0.05700
H 	H 	0.23090 0.49790 0.86710 0.02200
C 	C 	0.40330 0.56331 0.87764 -0.13400
C 	C 	0.49290 0.60719 0.85659 0.06600
H 	H 	0.56650 0.63220 0.87290 0.03200
C 	C 	0.42710 0.55400 0.92550 0.35100
