data_crystal

_cell_length_a 9.75800
_cell_length_b 16.57500
_cell_length_c 21.45200
_cell_angle_alpha 104.13000
_cell_angle_beta  100.68000
_cell_angle_gamma 96.53000

_symmetry_space_group_name_	'P 1'
_symmetry_space_group_name_H-M	'P 1'

loop_
_symmetry_equiv_pos_as_xyz
  x,y,z

loop_
_atom_site_label
_atom_site_type_symbol
_atom_site_fract_x
_atom_site_fract_y
_atom_site_fract_z
_atom_site_charge
Ce	Ce	0.27720 0.51746 0.99827 2.13200
I 	I 	0.76373 0.99164 0.50025 -0.71700
I 	I 	0.98493 0.77848 0.46957 -0.61300
I 	I 	0.08712 0.97835 0.67145 -0.60600
I 	I 	0.70094 0.78769 0.61220 -0.59300
Cu	Cu	0.01258 0.94228 0.53908 0.69900
Cu	Cu	0.75388 0.82695 0.50223 0.73300
Cu	Cu	0.82017 0.94511 0.62078 0.73100
Cu	Cu	0.96305 0.81685 0.59713 0.72400
O 	O 	0.17320 0.54930 0.09430 -0.52100
O 	O 	0.94590 0.48920 0.07510 -0.55800
O 	O 	0.54380 0.37030 0.92640 -0.51100
O 	O 	0.32430 0.40520 0.91200 -0.52500
O 	O 	0.35500 0.58710 0.91880 -0.49000
O 	O 	0.56880 0.54990 0.93720 -0.56400
N 	N 	0.57820 0.76310 0.43490 -0.24700
N 	N 	0.70560 0.02610 0.66610 -0.24800
N 	N 	0.09790 0.74990 0.63750 -0.24400
C 	C 	0.45280 0.78620 0.43830 0.09800
H 	H 	0.44940 0.83470 0.47030 -0.01100
C 	C 	0.32790 0.74170 0.39650 -0.16800
H 	H 	0.24240 0.75800 0.40310 0.10700
C 	C 	0.32890 0.67210 0.34440 0.10700
C 	C 	0.45990 0.64830 0.34020 -0.16600
H 	H 	0.46750 0.60110 0.30790 0.09300
C 	C 	0.57860 0.69660 0.38540 0.09300
H 	H 	0.66580 0.68140 0.38070 -0.01300
C 	C 	0.19640 0.62320 0.29800 -0.04400
C 	C 	0.19080 0.59710 0.23080 0.01200
H 	H 	0.27160 0.60890 0.21540 0.03400
C 	C 	0.06740 0.55380 0.18630 -0.13600
C 	C 	0.94690 0.53180 0.20980 0.02200
H 	H 	0.86550 0.49950 0.18060 0.02500
C 	C 	0.94990 0.55780 0.27570 -0.07600
H 	H 	0.87020 0.54350 0.29120 0.05900
C 	C 	0.07060 0.60530 0.31920 -0.02400
H 	H 	0.06910 0.62590 0.36340 0.05400
C 	C 	0.06050 0.52740 0.11420 0.40700
C 	C 	0.76010 0.10380 0.70870 0.09600
H 	H 	0.85790 0.11990 0.72070 -0.01600
C 	C 	0.68060 0.15730 0.73370 -0.17000
H 	H 	0.72410 0.20860 0.76360 0.08900
C 	C 	0.53170 0.13860 0.71630 0.10800
C 	C 	0.47300 0.05640 0.67030 -0.16700
H 	H 	0.37590 0.03870 0.65560 0.10600
C 	C 	0.56640 0.00640 0.64970 0.10700
H 	H 	0.52840 0.95320 0.62140 -0.02200
C 	C 	0.43330 0.19440 0.74060 -0.05100
C 	C 	0.47180 0.25430 0.80320 0.02900
H 	H 	0.56250 0.26100 0.82890 0.02700
C 	C 	0.37720 0.30250 0.82650 -0.13900
C 	C 	0.24410 0.29430 0.78700 0.05200
H 	H 	0.17930 0.32630 0.80290 0.02000
C 	C 	0.20570 0.23990 0.72470 -0.10600
H 	H 	0.11790 0.23760 0.69800 0.07100
C 	C 	0.29820 0.18830 0.70180 0.01300
H 	H 	0.27050 0.14960 0.66050 0.01600
C 	C 	0.41760 0.36380 0.89300 0.41700
C 	C 	0.23820 0.76770 0.63660 0.08600
H 	H 	0.26650 0.80540 0.61390 -0.01600
C 	C 	0.33820 0.73030 0.66890 -0.16500
H 	H 	0.43170 0.74050 0.66530 0.10700
C 	C 	0.30090 0.67770 0.70690 0.11100
C 	C 	0.15960 0.66240 0.70730 -0.17700
H 	H 	0.12990 0.62830 0.73250 0.09200
C 	C 	0.06410 0.69520 0.67250 0.09900
H 	H 	0.96920 0.67980 0.67210 -0.01800
C 	C 	0.41030 0.63930 0.74340 -0.04100
C 	C 	0.39180 0.62390 0.80290 0.00900
H 	H 	0.31050 0.63480 0.81800 0.03700
C 	C 	0.49530 0.59210 0.83960 -0.12300
C 	C 	0.61690 0.57580 0.81890 0.02100
H 	H 	0.68850 0.55880 0.84530 0.01800
C 	C 	0.63080 0.58590 0.75490 -0.07400
H 	H 	0.70820 0.57030 0.73820 0.05800
C 	C 	0.53050 0.61820 0.71880 -0.02200
H 	H 	0.54130 0.62620 0.67850 0.04800
C 	C 	0.47240 0.57500 0.90320 0.41500
Ce	Ce	0.72280 0.48254 0.00173 2.13200
I 	I 	0.23627 0.00836 0.49975 -0.71700
I 	I 	0.01507 0.22152 0.53043 -0.61300
I 	I 	0.91288 0.02165 0.32855 -0.60600
I 	I 	0.29906 0.21231 0.38780 -0.59300
Cu	Cu	0.98742 0.05772 0.46092 0.69900
Cu	Cu	0.24612 0.17305 0.49777 0.73300
Cu	Cu	0.17983 0.05489 0.37922 0.73100
Cu	Cu	0.03695 0.18315 0.40287 0.72400
O 	O 	0.82680 0.45070 0.90570 -0.52100
O 	O 	0.05410 0.51080 0.92490 -0.55800
O 	O 	0.45620 0.62970 0.07360 -0.51100
O 	O 	0.67570 0.59480 0.08800 -0.52500
O 	O 	0.64500 0.41290 0.08120 -0.49000
O 	O 	0.43120 0.45010 0.06280 -0.56400
N 	N 	0.42180 0.23690 0.56510 -0.24700
N 	N 	0.29440 0.97390 0.33390 -0.24800
N 	N 	0.90210 0.25010 0.36250 -0.24400
C 	C 	0.54720 0.21380 0.56170 0.09800
H 	H 	0.55060 0.16530 0.52970 -0.01100
C 	C 	0.67210 0.25830 0.60350 -0.16800
H 	H 	0.75760 0.24200 0.59690 0.10700
C 	C 	0.67110 0.32790 0.65560 0.10700
C 	C 	0.54010 0.35170 0.65980 -0.16600
H 	H 	0.53250 0.39890 0.69210 0.09300
C 	C 	0.42140 0.30340 0.61460 0.09300
H 	H 	0.33420 0.31860 0.61930 -0.01300
C 	C 	0.80360 0.37680 0.70200 -0.04400
C 	C 	0.80920 0.40290 0.76920 0.01200
H 	H 	0.72840 0.39110 0.78460 0.03400
C 	C 	0.93260 0.44620 0.81370 -0.13600
C 	C 	0.05310 0.46820 0.79020 0.02200
H 	H 	0.13450 0.50050 0.81940 0.02500
C 	C 	0.05010 0.44220 0.72430 -0.07600
H 	H 	0.12980 0.45650 0.70880 0.05900
C 	C 	0.92940 0.39470 0.68080 -0.02400
H 	H 	0.93090 0.37410 0.63660 0.05400
C 	C 	0.93950 0.47260 0.88580 0.40700
C 	C 	0.23990 0.89620 0.29130 0.09600
H 	H 	0.14210 0.88010 0.27930 -0.01600
C 	C 	0.31940 0.84270 0.26630 -0.17000
H 	H 	0.27590 0.79140 0.23640 0.08900
C 	C 	0.46830 0.86140 0.28370 0.10800
C 	C 	0.52700 0.94360 0.32970 -0.16700
H 	H 	0.62410 0.96130 0.34440 0.10600
C 	C 	0.43360 0.99360 0.35030 0.10700
H 	H 	0.47160 0.04680 0.37860 -0.02200
C 	C 	0.56670 0.80560 0.25940 -0.05100
C 	C 	0.52820 0.74570 0.19680 0.02900
H 	H 	0.43750 0.73900 0.17110 0.02700
C 	C 	0.62280 0.69750 0.17350 -0.13900
C 	C 	0.75590 0.70570 0.21300 0.05200
H 	H 	0.82070 0.67370 0.19710 0.02000
C 	C 	0.79430 0.76010 0.27530 -0.10600
H 	H 	0.88210 0.76240 0.30200 0.07100
C 	C 	0.70180 0.81170 0.29820 0.01300
H 	H 	0.72950 0.85040 0.33950 0.01600
C 	C 	0.58240 0.63620 0.10700 0.41700
C 	C 	0.76180 0.23230 0.36340 0.08600
H 	H 	0.73350 0.19460 0.38610 -0.01600
C 	C 	0.66180 0.26970 0.33110 -0.16500
H 	H 	0.56830 0.25950 0.33470 0.10700
C 	C 	0.69910 0.32230 0.29310 0.11100
C 	C 	0.84040 0.33760 0.29270 -0.17700
H 	H 	0.87010 0.37170 0.26750 0.09200
C 	C 	0.93590 0.30480 0.32750 0.09900
H 	H 	0.03080 0.32020 0.32790 -0.01800
C 	C 	0.58970 0.36070 0.25660 -0.04100
C 	C 	0.60820 0.37610 0.19710 0.00900
H 	H 	0.68950 0.36520 0.18200 0.03700
C 	C 	0.50470 0.40790 0.16040 -0.12300
C 	C 	0.38310 0.42420 0.18110 0.02100
H 	H 	0.31150 0.44120 0.15470 0.01800
C 	C 	0.36920 0.41410 0.24510 -0.07400
H 	H 	0.29180 0.42970 0.26180 0.05800
C 	C 	0.46950 0.38180 0.28120 -0.02200
H 	H 	0.45870 0.37380 0.32150 0.04800
C 	C 	0.52760 0.42500 0.09680 0.41500
