data_crystal

_cell_length_a 9.66890
_cell_length_b 16.71600
_cell_length_c 21.27700
_cell_angle_alpha 104.23000
_cell_angle_beta  100.42000
_cell_angle_gamma 96.86000

_symmetry_space_group_name_	'P 1'
_symmetry_space_group_name_H-M	'P 1'

loop_
_symmetry_equiv_pos_as_xyz
  x,y,z

loop_
_atom_site_label
_atom_site_type_symbol
_atom_site_fract_x
_atom_site_fract_y
_atom_site_fract_z
_atom_site_charge
Eu	Eu	0.27613 0.51536 0.99816 1.99600
I 	I 	0.76300 0.99030 0.50023 -0.72000
I 	I 	0.98948 0.77964 0.47165 -0.61200
I 	I 	0.08940 0.97873 0.67434 -0.60400
I 	I 	0.69772 0.79038 0.61407 -0.59400
Cu	Cu	0.01404 0.94278 0.54053 0.70000
Cu	Cu	0.75541 0.82741 0.50277 0.73200
Cu	Cu	0.82078 0.94673 0.62266 0.73200
Cu	Cu	0.96271 0.81831 0.59992 0.72600
O 	O 	0.17040 0.54440 0.09180 -0.52800
O 	O 	0.94000 0.48530 0.07200 -0.54900
O 	O 	0.54520 0.37540 0.92830 -0.51200
O 	O 	0.32640 0.40800 0.91280 -0.52700
O 	O 	0.35920 0.58300 0.92170 -0.49600
O 	O 	0.57670 0.55010 0.93880 -0.56000
N 	N 	0.57780 0.76170 0.43470 -0.25200
N 	N 	0.70790 0.02820 0.66810 -0.24600
N 	N 	0.09810 0.75470 0.64220 -0.25900
C 	C 	0.45260 0.78370 0.43710 0.12200
H 	H 	0.44860 0.83110 0.47000 -0.02000
C 	C 	0.32760 0.74160 0.39420 -0.19600
H 	H 	0.24270 0.76100 0.39850 0.11700
C 	C 	0.32630 0.67150 0.34530 0.12900
C 	C 	0.45750 0.64810 0.33980 -0.17800
H 	H 	0.46370 0.60190 0.30630 0.09600
C 	C 	0.57910 0.69470 0.38520 0.09800
H 	H 	0.66640 0.67840 0.38110 -0.01500
C 	C 	0.19360 0.62210 0.29710 -0.06000
C 	C 	0.18750 0.59660 0.22810 0.02600
H 	H 	0.26750 0.61030 0.21180 0.02700
C 	C 	0.06240 0.55110 0.18460 -0.15500
C 	C 	0.94120 0.53060 0.20840 0.04700
H 	H 	0.85810 0.49940 0.17900 0.01800
C 	C 	0.94520 0.55660 0.27500 -0.09800
H 	H 	0.86440 0.54380 0.29100 0.06600
C 	C 	0.07090 0.60230 0.31890 -0.00700
H 	H 	0.07210 0.61990 0.36400 0.04700
C 	C 	0.05790 0.52550 0.11060 0.45700
C 	C 	0.76440 0.10350 0.71090 0.08800
H 	H 	0.86320 0.11860 0.72360 -0.01400
C 	C 	0.68100 0.15960 0.73690 -0.16300
H 	H 	0.72400 0.21050 0.76740 0.08600
C 	C 	0.53140 0.13960 0.71710 0.11500
C 	C 	0.47630 0.05990 0.67130 -0.17100
H 	H 	0.37810 0.04330 0.65580 0.10600
C 	C 	0.56470 0.00800 0.65010 0.10200
H 	H 	0.52470 0.95530 0.62150 -0.01900
C 	C 	0.43480 0.19760 0.74230 -0.06800
C 	C 	0.47560 0.25640 0.80250 0.05100
H 	H 	0.56840 0.26440 0.82720 0.01700
C 	C 	0.37820 0.30480 0.82730 -0.17000
C 	C 	0.24360 0.29630 0.78760 0.07900
H 	H 	0.17940 0.32920 0.80320 0.00800
C 	C 	0.20390 0.24060 0.72630 -0.13000
H 	H 	0.11380 0.23630 0.70000 0.07800
C 	C 	0.29740 0.19070 0.70340 0.03200
H 	H 	0.26960 0.15200 0.66180 0.00800
C 	C 	0.41960 0.36750 0.89490 0.48500
C 	C 	0.23880 0.77130 0.64350 0.11000
H 	H 	0.26840 0.80990 0.62160 -0.02300
C 	C 	0.34100 0.73560 0.67450 -0.18900
H 	H 	0.43580 0.74790 0.67180 0.11700
C 	C 	0.30110 0.68010 0.71060 0.13200
C 	C 	0.15820 0.66190 0.70840 -0.19900
H 	H 	0.12430 0.62330 0.72930 0.10000
C 	C 	0.06550 0.70140 0.67490 0.12300
H 	H 	0.96970 0.68890 0.67580 -0.02800
C 	C 	0.41210 0.64340 0.74550 -0.06400
C 	C 	0.39490 0.62600 0.80650 0.03000
H 	H 	0.31470 0.63760 0.82310 0.02900
C 	C 	0.49630 0.59210 0.84080 -0.14900
C 	C 	0.62180 0.57710 0.81760 0.04900
H 	H 	0.69280 0.55710 0.84210 0.01000
C 	C 	0.63730 0.59210 0.75930 -0.10400
H 	H 	0.71830 0.58100 0.74330 0.06700
C 	C 	0.53230 0.62410 0.72300 0.00200
H 	H 	0.54420 0.63260 0.68260 0.04000
C 	C 	0.47790 0.57440 0.90670 0.47800
Eu	Eu	0.72387 0.48464 0.00184 1.99700
I 	I 	0.23700 0.00970 0.49977 -0.71900
I 	I 	0.01052 0.22036 0.52835 -0.61200
I 	I 	0.91060 0.02127 0.32566 -0.60400
I 	I 	0.30228 0.20962 0.38593 -0.59400
Cu	Cu	0.98596 0.05722 0.45947 0.70000
Cu	Cu	0.24459 0.17259 0.49723 0.73200
Cu	Cu	0.17922 0.05327 0.37734 0.73200
Cu	Cu	0.03729 0.18169 0.40008 0.72600
O 	O 	0.82960 0.45560 0.90820 -0.52800
O 	O 	0.06000 0.51470 0.92800 -0.54900
O 	O 	0.45480 0.62460 0.07170 -0.51200
O 	O 	0.67360 0.59200 0.08720 -0.52700
O 	O 	0.64080 0.41700 0.07830 -0.49600
O 	O 	0.42330 0.44990 0.06120 -0.56000
N 	N 	0.42220 0.23830 0.56530 -0.25200
N 	N 	0.29210 0.97180 0.33190 -0.24600
N 	N 	0.90190 0.24530 0.35780 -0.25900
C 	C 	0.54740 0.21630 0.56290 0.12200
H 	H 	0.55140 0.16890 0.53000 -0.02000
C 	C 	0.67240 0.25840 0.60580 -0.19600
H 	H 	0.75730 0.23900 0.60150 0.11700
C 	C 	0.67370 0.32850 0.65470 0.12900
C 	C 	0.54250 0.35190 0.66020 -0.17800
H 	H 	0.53630 0.39810 0.69370 0.09600
C 	C 	0.42090 0.30530 0.61480 0.09800
H 	H 	0.33360 0.32160 0.61890 -0.01500
C 	C 	0.80640 0.37790 0.70290 -0.06000
C 	C 	0.81250 0.40340 0.77190 0.02600
H 	H 	0.73250 0.38970 0.78820 0.02700
C 	C 	0.93760 0.44890 0.81540 -0.15500
C 	C 	0.05880 0.46940 0.79160 0.04700
H 	H 	0.14190 0.50060 0.82100 0.01800
C 	C 	0.05480 0.44340 0.72500 -0.09800
H 	H 	0.13560 0.45620 0.70900 0.06600
C 	C 	0.92910 0.39770 0.68110 -0.00700
H 	H 	0.92790 0.38010 0.63600 0.04700
C 	C 	0.94210 0.47450 0.88940 0.45700
C 	C 	0.23560 0.89650 0.28910 0.08800
H 	H 	0.13680 0.88140 0.27640 -0.01400
C 	C 	0.31900 0.84040 0.26310 -0.16300
H 	H 	0.27600 0.78950 0.23260 0.08600
C 	C 	0.46860 0.86040 0.28290 0.11500
C 	C 	0.52370 0.94010 0.32870 -0.17100
H 	H 	0.62190 0.95670 0.34420 0.10600
C 	C 	0.43530 0.99200 0.34990 0.10200
H 	H 	0.47530 0.04470 0.37850 -0.01900
C 	C 	0.56520 0.80240 0.25770 -0.06800
C 	C 	0.52440 0.74360 0.19750 0.05100
H 	H 	0.43160 0.73560 0.17280 0.01700
C 	C 	0.62180 0.69520 0.17270 -0.17000
C 	C 	0.75640 0.70370 0.21240 0.07900
H 	H 	0.82060 0.67080 0.19680 0.00800
C 	C 	0.79610 0.75940 0.27370 -0.13000
H 	H 	0.88620 0.76370 0.30000 0.07800
C 	C 	0.70260 0.80930 0.29660 0.03200
H 	H 	0.73040 0.84800 0.33820 0.00800
C 	C 	0.58040 0.63250 0.10510 0.48500
C 	C 	0.76120 0.22870 0.35650 0.11000
H 	H 	0.73160 0.19010 0.37840 -0.02300
C 	C 	0.65900 0.26440 0.32550 -0.18900
H 	H 	0.56420 0.25210 0.32820 0.11700
C 	C 	0.69890 0.31990 0.28940 0.13200
C 	C 	0.84180 0.33810 0.29160 -0.19900
H 	H 	0.87570 0.37670 0.27070 0.10000
C 	C 	0.93450 0.29860 0.32510 0.12300
H 	H 	0.03030 0.31110 0.32420 -0.02800
C 	C 	0.58790 0.35660 0.25450 -0.06400
C 	C 	0.60510 0.37400 0.19350 0.03000
H 	H 	0.68530 0.36240 0.17690 0.02900
C 	C 	0.50370 0.40790 0.15920 -0.14900
C 	C 	0.37820 0.42290 0.18240 0.04900
H 	H 	0.30720 0.44290 0.15790 0.01000
C 	C 	0.36270 0.40790 0.24070 -0.10400
H 	H 	0.28170 0.41900 0.25670 0.06700
C 	C 	0.46770 0.37590 0.27700 0.00200
H 	H 	0.45580 0.36740 0.31740 0.04000
C 	C 	0.52210 0.42560 0.09330 0.47800
