data_crystal

_cell_length_a 15.05350
_cell_length_b 15.05350
_cell_length_c 11.87370
_cell_angle_alpha 90.00000
_cell_angle_beta  90.00000
_cell_angle_gamma 90.00000

_symmetry_space_group_name_	'P 1'
_symmetry_space_group_name_H-M	'P 1'

loop_
_symmetry_equiv_pos_as_xyz
  x,y,z

loop_
_atom_site_label
_atom_site_type_symbol
_atom_site_fract_x
_atom_site_fract_y
_atom_site_fract_z
_atom_site_charge
O 	O 	0.09960 0.28580 0.99880 -0.45200
O 	O 	0.12510 0.38070 0.14250 -0.49400
C 	C 	0.09230 0.36190 0.04840 0.20300
C 	C 	0.04110 0.43030 0.98970 0.20600
C 	C 	0.03800 0.43010 0.87090 -0.19100
H 	H 	0.06230 0.38140 0.83030 0.10200
O 	O 	0.59960 0.78580 0.49880 -0.56600
O 	O 	0.62510 0.88070 0.64250 -0.53200
C 	C 	0.59230 0.86190 0.54840 0.43800
C 	C 	0.54110 0.93030 0.48970 -0.08900
C 	C 	0.53800 0.93010 0.37090 -0.00900
H 	H 	0.56230 0.88140 0.33030 0.04100
O 	O 	0.40040 0.21420 0.49880 -0.56800
O 	O 	0.37490 0.11930 0.64250 -0.53900
C 	C 	0.40770 0.13810 0.54840 0.43900
C 	C 	0.45890 0.06970 0.48970 -0.10600
C 	C 	0.46200 0.06990 0.37090 -0.02900
H 	H 	0.43770 0.11860 0.33030 0.04400
O 	O 	0.90040 0.71420 0.99880 -0.44800
O 	O 	0.87490 0.61930 0.14250 -0.49300
C 	C 	0.90770 0.63810 0.04840 0.19800
C 	C 	0.95890 0.56970 0.98970 0.21100
C 	C 	0.96200 0.56990 0.87090 -0.18800
H 	H 	0.93770 0.61860 0.83030 0.10300
O 	O 	0.71420 0.59960 0.24880 -0.58200
O 	O 	0.61930 0.62510 0.39250 -0.55100
C 	C 	0.63810 0.59230 0.29840 0.46500
C 	C 	0.56970 0.54110 0.23970 -0.17500
C 	C 	0.56990 0.53800 0.12090 0.08100
H 	H 	0.61860 0.56230 0.08030 -0.01400
O 	O 	0.21420 0.09960 0.74880 -0.56400
O 	O 	0.11930 0.12510 0.89250 -0.52000
C 	C 	0.13810 0.09230 0.79840 0.44300
C 	C 	0.06970 0.04110 0.73970 -0.11800
C 	C 	0.06990 0.03800 0.62090 0.00900
H 	H 	0.11860 0.06230 0.58030 0.03100
O 	O 	0.78580 0.90040 0.74880 -0.55800
O 	O 	0.88070 0.87490 0.89250 -0.51100
C 	C 	0.86190 0.90770 0.79840 0.44100
C 	C 	0.93030 0.95890 0.73970 -0.09600
C 	C 	0.93010 0.96200 0.62090 0.03200
H 	H 	0.88140 0.93770 0.58030 0.02900
O 	O 	0.28580 0.40040 0.24880 -0.58100
O 	O 	0.38070 0.37490 0.39250 -0.55100
C 	C 	0.36190 0.40770 0.29840 0.46500
C 	C 	0.43030 0.45890 0.23970 -0.17500
C 	C 	0.43010 0.46200 0.12090 0.08100
H 	H 	0.38140 0.43770 0.08030 -0.01400
O 	O 	0.40040 0.28580 0.75120 -0.55900
O 	O 	0.37490 0.38070 0.60750 -0.54100
C 	C 	0.40770 0.36190 0.70160 0.43700
C 	C 	0.45890 0.43030 0.76030 -0.09200
C 	C 	0.46200 0.43010 0.87910 -0.05100
H 	H 	0.43770 0.38140 0.91970 0.07500
O 	O 	0.90040 0.78580 0.25120 -0.57500
O 	O 	0.87490 0.88070 0.10750 -0.56300
C 	C 	0.90770 0.86190 0.20160 0.45000
C 	C 	0.95890 0.93030 0.26030 -0.12400
C 	C 	0.96200 0.93010 0.37910 0.04600
H 	H 	0.93770 0.88140 0.41970 0.02300
O 	O 	0.09960 0.21420 0.25120 -0.57800
O 	O 	0.12510 0.11930 0.10750 -0.57000
C 	C 	0.09230 0.13810 0.20160 0.45100
C 	C 	0.04110 0.06970 0.26030 -0.14200
C 	C 	0.03800 0.06990 0.37910 0.02300
H 	H 	0.06230 0.11860 0.41970 0.02600
O 	O 	0.59960 0.71420 0.75120 -0.55700
O 	O 	0.62510 0.61930 0.60750 -0.54100
C 	C 	0.59230 0.63810 0.70160 0.43800
C 	C 	0.54110 0.56970 0.76030 -0.09200
C 	C 	0.53800 0.56990 0.87910 -0.05100
H 	H 	0.56230 0.61860 0.91970 0.07600
O 	O 	0.78580 0.59960 0.50120 -0.57200
O 	O 	0.88070 0.62510 0.35750 -0.55300
C 	C 	0.86190 0.59230 0.45160 0.46000
C 	C 	0.93030 0.54110 0.51030 -0.15500
C 	C 	0.93010 0.53800 0.62910 0.06400
H 	H 	0.88140 0.56230 0.66970 0.01500
O 	O 	0.28580 0.09960 0.00120 -0.68300
O 	O 	0.38070 0.12510 0.85750 -0.59700
C 	C 	0.36190 0.09230 0.95160 0.69400
C 	C 	0.43030 0.04110 0.01030 -0.46600
C 	C 	0.43010 0.03800 0.12910 0.22000
H 	H 	0.38140 0.06230 0.16970 -0.04300
O 	O 	0.71420 0.90040 0.00120 -0.68100
O 	O 	0.61930 0.87490 0.85750 -0.59200
C 	C 	0.63810 0.90770 0.95160 0.69900
C 	C 	0.56970 0.95890 0.01030 -0.45300
C 	C 	0.56990 0.96200 0.12910 0.24100
H 	H 	0.61860 0.93770 0.16970 -0.04500
O 	O 	0.21420 0.40040 0.50120 -0.57200
O 	O 	0.11930 0.37490 0.35750 -0.55500
C 	C 	0.13810 0.40770 0.45160 0.46000
C 	C 	0.06970 0.45890 0.51030 -0.15800
C 	C 	0.06990 0.46200 0.62910 0.06100
H 	H 	0.11860 0.43770 0.66970 0.01600
Ga	Ga	0.19473 0.19473 -0.00000 2.08200
Ga	Ga	0.69473 0.69473 0.50000 2.09600
Ga	Ga	0.30527 0.30527 0.50000 2.09500
Ga	Ga	0.80527 0.69473 0.25000 2.09400
Ga	Ga	0.69473 0.80527 0.75000 2.09700
Ga	Ga	0.30527 0.19473 0.75000 2.09700
Ga	Ga	0.19473 0.30527 0.25000 2.09400
Ga	Ga	0.80527 0.80527 -0.00000 2.08100
O 	O 	0.25230 0.25000 0.12500 -1.10600
H 	H 	0.30790 0.25000 0.12500 0.38500
O 	O 	0.75230 0.75000 0.62500 -1.09300
H 	H 	0.80790 0.75000 0.62500 0.39200
O 	O 	0.24770 0.25000 0.62500 -1.09300
H 	H 	0.19210 0.25000 0.62500 0.39100
O 	O 	0.74770 0.75000 0.12500 -1.10600
H 	H 	0.69210 0.75000 0.12500 0.38500
O 	O 	0.75000 0.75230 0.37500 -1.09500
H 	H 	0.75000 0.80790 0.37500 0.39400
O 	O 	0.25000 0.25230 0.87500 -1.07600
H 	H 	0.25000 0.30790 0.87500 0.39800
O 	O 	0.75000 0.74770 0.87500 -1.07600
H 	H 	0.75000 0.69210 0.87500 0.39800
O 	O 	0.25000 0.24770 0.37500 -1.09500
H 	H 	0.25000 0.19210 0.37500 0.39200
C 	C 	0.00000 0.50000 0.05020 -0.32300
H 	H 	0.00000 0.50000 0.13020 0.16900
C 	C 	0.00000 0.50000 0.81360 0.15100
C 	C 	0.50000 0.00000 0.55020 0.03000
H 	H 	0.50000 -0.00000 0.63020 0.06300
C 	C 	0.50000 -0.00000 0.31360 0.04000
C 	C 	0.50000 0.50000 0.30020 0.11300
H 	H 	0.50000 0.50000 0.38020 0.03600
C 	C 	0.50000 0.50000 0.06360 -0.14900
C 	C 	-0.00000 0.00000 0.80020 0.03800
H 	H 	-0.00000 -0.00000 0.88020 0.06900
C 	C 	0.00000 0.00000 0.56360 -0.02900
C 	C 	0.50000 0.50000 0.69980 0.04900
H 	H 	0.50000 0.50000 0.61980 0.05800
C 	C 	0.50000 0.50000 0.93640 0.12300
C 	C 	-0.00000 0.00000 0.19980 0.05700
H 	H 	0.00000 0.00000 0.11980 0.03200
C 	C 	-0.00000 0.00000 0.43640 -0.04300
C 	C 	-0.00000 0.50000 0.44980 0.09800
H 	H 	-0.00000 0.50000 0.36980 0.03400
C 	C 	0.00000 0.50000 0.68640 -0.09000
C 	C 	0.50000 0.00000 0.94980 0.45000
H 	H 	0.50000 0.00000 0.86980 -0.07100
C 	C 	0.50000 0.00000 0.18640 -0.19800
