data_crystal

_cell_length_a 14.93200
_cell_length_b 14.93200
_cell_length_c 11.95600
_cell_angle_alpha 90.00000
_cell_angle_beta  90.00000
_cell_angle_gamma 90.00000

_symmetry_space_group_name_	'P 1'
_symmetry_space_group_name_H-M	'P 1'

loop_
_symmetry_equiv_pos_as_xyz
  x,y,z

loop_
_atom_site_label
_atom_site_type_symbol
_atom_site_fract_x
_atom_site_fract_y
_atom_site_fract_z
_atom_site_charge
O 	O 	0.39986 0.21348 0.99612 -0.34000
O 	O 	0.37830 0.12090 0.14340 -0.36300
C 	C 	0.40800 0.14030 0.04780 0.22500
C 	C 	0.45450 0.06860 0.99070 0.11400
C 	C 	0.46060 0.06980 0.87080 -0.13700
H 	H 	0.43750 0.11840 0.83150 0.09300
O 	O 	0.89986 0.71348 0.49612 -0.41300
O 	O 	0.87830 0.62090 0.64340 -0.38600
C 	C 	0.90800 0.64030 0.54780 0.37200
C 	C 	0.95450 0.56860 0.49070 -0.06800
C 	C 	0.96060 0.56980 0.37080 -0.02200
H 	H 	0.93750 0.61840 0.33150 0.05300
O 	O 	0.10014 0.28652 0.49612 -0.41700
O 	O 	0.12170 0.37910 0.64340 -0.39200
C 	C 	0.09200 0.35970 0.54780 0.37400
C 	C 	0.04550 0.43140 0.49070 -0.08200
C 	C 	0.03940 0.43020 0.37080 -0.04000
H 	H 	0.06250 0.38160 0.33150 0.05500
O 	O 	0.60014 0.78652 0.99612 -0.33900
O 	O 	0.62170 0.87910 0.14340 -0.36100
C 	C 	0.59200 0.85970 0.04780 0.22000
C 	C 	0.54550 0.93140 0.99070 0.12000
C 	C 	0.53940 0.93020 0.87080 -0.13300
H 	H 	0.56250 0.88160 0.83150 0.09100
O 	O 	0.78652 0.89986 0.24612 -0.42100
O 	O 	0.87910 0.87830 0.39340 -0.39300
C 	C 	0.85970 0.90800 0.29780 0.38600
C 	C 	0.93140 0.95450 0.24070 -0.10200
C 	C 	0.93020 0.96060 0.12080 0.04700
H 	H 	0.88160 0.93750 0.08150 0.01700
O 	O 	0.28652 0.39986 0.74612 -0.41400
O 	O 	0.37910 0.37830 0.89340 -0.37800
C 	C 	0.35970 0.40800 0.79780 0.37900
C 	C 	0.43140 0.45450 0.74070 -0.09400
C 	C 	0.43020 0.46060 0.62080 -0.01500
H 	H 	0.38160 0.43750 0.58150 0.04700
O 	O 	0.71348 0.60014 0.74612 -0.41200
O 	O 	0.62090 0.62170 0.89340 -0.37700
C 	C 	0.64030 0.59200 0.79780 0.37900
C 	C 	0.56860 0.54550 0.74070 -0.09400
C 	C 	0.56980 0.53940 0.62080 -0.01500
H 	H 	0.61840 0.56250 0.58150 0.04800
O 	O 	0.21348 0.10014 0.24612 -0.42500
O 	O 	0.12090 0.12170 0.39340 -0.40000
C 	C 	0.14030 0.09200 0.29780 0.38800
C 	C 	0.06860 0.04550 0.24070 -0.12000
C 	C 	0.06980 0.03940 0.12080 0.02500
H 	H 	0.11840 0.06250 0.08150 0.02000
O 	O 	0.10014 0.21348 0.75388 -0.41200
O 	O 	0.12170 0.12090 0.60660 -0.39400
C 	C 	0.09200 0.14030 0.70220 0.37000
C 	C 	0.04550 0.06860 0.75930 -0.07300
C 	C 	0.03940 0.06980 0.87920 -0.04800
H 	H 	0.06250 0.11840 0.91850 0.07000
O 	O 	0.60014 0.71348 0.25388 -0.42100
O 	O 	0.62170 0.62090 0.10660 -0.40700
C 	C 	0.59200 0.64030 0.20220 0.38500
C 	C 	0.54550 0.56860 0.25930 -0.10900
C 	C 	0.53940 0.56980 0.37920 -0.00700
H 	H 	0.56250 0.61840 0.41850 0.04400
O 	O 	0.39986 0.28652 0.25388 -0.42100
O 	O 	0.37830 0.37910 0.10660 -0.40700
C 	C 	0.40800 0.35970 0.20220 0.38500
C 	C 	0.45450 0.43140 0.25930 -0.10900
C 	C 	0.46060 0.43020 0.37920 -0.00700
H 	H 	0.43750 0.38160 0.41850 0.04400
O 	O 	0.89986 0.78652 0.75388 -0.40700
O 	O 	0.87830 0.87910 0.60660 -0.38700
C 	C 	0.90800 0.85970 0.70220 0.36900
C 	C 	0.95450 0.93140 0.75930 -0.05400
C 	C 	0.96060 0.93020 0.87920 -0.02300
H 	H 	0.93750 0.88160 0.91850 0.06800
O 	O 	0.71348 0.89986 0.50388 -0.41800
O 	O 	0.62090 0.87830 0.35660 -0.40000
C 	C 	0.64030 0.90800 0.45220 0.38800
C 	C 	0.56860 0.95450 0.50930 -0.11200
C 	C 	0.56980 0.96060 0.62920 0.02500
H 	H 	0.61840 0.93750 0.66850 0.03500
O 	O 	0.21348 0.39986 0.00388 -0.48600
O 	O 	0.12090 0.37830 0.85660 -0.42900
C 	C 	0.14030 0.40800 0.95220 0.53500
C 	C 	0.06860 0.45450 0.00930 -0.30800
C 	C 	0.06980 0.46060 0.12920 0.11500
H 	H 	0.11840 0.43750 0.16850 0.00000
O 	O 	0.78652 0.60014 0.00388 -0.48600
O 	O 	0.87910 0.62170 0.85660 -0.42300
C 	C 	0.85970 0.59200 0.95220 0.53800
C 	C 	0.93140 0.54550 0.00930 -0.29800
C 	C 	0.93020 0.53940 0.12920 0.13300
H 	H 	0.88160 0.56250 0.16850 -0.00300
O 	O 	0.28652 0.10014 0.50388 -0.42000
O 	O 	0.37910 0.12170 0.35660 -0.40200
C 	C 	0.35970 0.09200 0.45220 0.38800
C 	C 	0.43140 0.04550 0.50930 -0.11700
C 	C 	0.43020 0.03940 0.62920 0.01900
H 	H 	0.38160 0.06250 0.66850 0.03500
Fe	Fe	0.30728 0.30728 -0.00000 1.26800
Fe	Fe	0.80728 0.80728 0.50000 1.29100
Fe	Fe	0.19272 0.19272 0.50000 1.29100
Fe	Fe	0.69272 0.80728 0.25000 1.28900
Fe	Fe	0.80728 0.69272 0.75000 1.29300
Fe	Fe	0.19272 0.30728 0.75000 1.29300
Fe	Fe	0.30728 0.19272 0.25000 1.28900
Fe	Fe	0.69272 0.69272 -0.00000 1.26800
O 	O 	0.24680 0.25000 0.12500 -0.71100
H 	H 	0.19160 0.25000 0.12500 0.30100
O 	O 	0.74680 0.75000 0.62500 -0.70700
H 	H 	0.69160 0.75000 0.62500 0.30500
O 	O 	0.25320 0.25000 0.62500 -0.70700
H 	H 	0.30840 0.25000 0.62500 0.30500
O 	O 	0.75320 0.75000 0.12500 -0.71100
H 	H 	0.80840 0.75000 0.12500 0.30200
O 	O 	0.75000 0.74680 0.37500 -0.70700
H 	H 	0.75000 0.69160 0.37500 0.30600
O 	O 	0.25000 0.24680 0.87500 -0.69500
H 	H 	0.25000 0.19160 0.87500 0.30700
O 	O 	0.75000 0.75320 0.87500 -0.69500
H 	H 	0.75000 0.80840 0.87500 0.30800
O 	O 	0.25000 0.25320 0.37500 -0.70700
H 	H 	0.25000 0.30840 0.37500 0.30500
C 	C 	0.50000 0.00000 0.04670 -0.21600
H 	H 	0.50000 0.00000 0.12450 0.13700
C 	C 	0.50000 0.00000 0.81280 0.10000
C 	C 	0.00000 0.50000 0.54670 0.01200
H 	H 	0.00000 0.50000 0.62450 0.06600
C 	C 	0.00000 0.50000 0.31280 0.03200
C 	C 	0.00000 0.00000 0.29670 0.03900
H 	H 	0.00000 0.00000 0.37450 0.05100
C 	C 	0.00000 0.00000 0.06280 -0.09200
C 	C 	0.50000 0.50000 0.79670 0.04700
H 	H 	0.50000 0.50000 0.87450 0.06500
C 	C 	0.50000 0.50000 0.56280 0.00600
C 	C 	0.00000 0.00000 0.70330 -0.00100
H 	H 	0.00000 0.00000 0.62550 0.06500
C 	C 	0.00000 0.00000 0.93720 0.05400
C 	C 	0.50000 0.50000 0.20330 0.05700
H 	H 	0.50000 0.50000 0.12550 0.04300
C 	C 	0.50000 0.50000 0.43720 -0.00300
C 	C 	0.50000 0.00000 0.45330 0.05900
H 	H 	0.50000 0.00000 0.37550 0.04600
C 	C 	0.50000 0.00000 0.68720 -0.05100
C 	C 	0.00000 0.50000 0.95330 0.28500
H 	H 	0.00000 0.50000 0.87550 -0.02400
C 	C 	0.00000 0.50000 0.18720 -0.11600
