data_crystal

_cell_length_a 15.14730
_cell_length_b 15.14730
_cell_length_c 15.47660
_cell_angle_alpha 90.00000
_cell_angle_beta  90.00000
_cell_angle_gamma 120.00000

_symmetry_space_group_name_	'P 1'
_symmetry_space_group_name_H-M	'P 1'

loop_
_symmetry_equiv_pos_as_xyz
  x,y,z

loop_
_atom_site_label
_atom_site_type_symbol
_atom_site_fract_x
_atom_site_fract_y
_atom_site_fract_z
_atom_site_charge
Dy	Dy	0.66667 0.33334 0.75000 1.80300
Dy	Dy	0.33333 0.66666 0.75000 1.80300
Dy	Dy	0.33333 0.66666 0.25000 1.78700
Dy	Dy	0.66667 0.33334 0.25000 1.78700
Co	Co	0.50000 0.50000 0.50000 1.16800
Co	Co	0.00000 0.50000 0.50000 1.13000
Co	Co	0.50000 0.00000 0.50000 1.13000
Co	Co	0.00000 0.50000 -0.00000 1.06400
Co	Co	0.50000 0.50000 -0.00000 1.10000
Co	Co	0.50000 0.00000 -0.00000 1.06400
H 	H 	0.28670 0.23310 0.65500 0.04600
H 	H 	0.94640 0.71330 0.65500 0.07900
H 	H 	0.76690 0.05360 0.65500 0.03900
H 	H 	0.71330 0.76690 0.65500 0.06300
H 	H 	0.05360 0.28670 0.65500 0.03000
H 	H 	0.23310 0.94640 0.65500 0.07000
H 	H 	0.05360 0.76690 0.84500 0.05900
H 	H 	0.23310 0.28670 0.84500 0.06700
H 	H 	0.71330 0.94640 0.84500 0.09800
H 	H 	0.94640 0.23310 0.84500 0.09000
H 	H 	0.76690 0.71330 0.84500 0.08300
H 	H 	0.28670 0.05360 0.84500 0.05200
H 	H 	0.71330 0.76690 0.34500 0.05900
H 	H 	0.05360 0.28670 0.34500 0.02600
H 	H 	0.23310 0.94640 0.34500 0.06700
H 	H 	0.28670 0.23310 0.34500 0.04200
H 	H 	0.94640 0.71330 0.34500 0.07500
H 	H 	0.76690 0.05360 0.34500 0.03500
H 	H 	0.94640 0.23310 0.15500 0.04900
H 	H 	0.76690 0.71330 0.15500 0.04000
H 	H 	0.28670 0.05360 0.15500 0.00800
H 	H 	0.05360 0.76690 0.15500 0.01600
H 	H 	0.23310 0.28670 0.15500 0.02300
H 	H 	0.71330 0.94640 0.15500 0.05700
H 	H 	0.19930 0.09965 0.75000 0.01300
H 	H 	0.90035 0.80070 0.75000 0.06500
H 	H 	0.90035 0.09965 0.75000 0.03900
H 	H 	0.80070 0.90035 0.75000 0.06500
H 	H 	0.09965 0.19930 0.75000 0.01300
H 	H 	0.09965 0.90035 0.75000 0.03800
H 	H 	0.80070 0.90035 0.25000 0.06000
H 	H 	0.09965 0.19930 0.25000 0.00700
H 	H 	0.09965 0.90035 0.25000 0.03400
H 	H 	0.19930 0.09965 0.25000 0.00700
H 	H 	0.90035 0.80070 0.25000 0.06000
H 	H 	0.90035 0.09965 0.25000 0.03400
C 	C 	0.49240 0.35440 0.63920 0.35800
C 	C 	0.42660 0.26510 0.69610 -0.02800
C 	C 	0.32140 0.21420 0.69360 -0.04400
C 	C 	0.86200 0.50760 0.63920 0.35500
C 	C 	0.83850 0.57340 0.69610 -0.00800
C 	C 	0.89280 0.67860 0.69360 -0.03400
C 	C 	0.64560 0.13800 0.63920 0.36000
C 	C 	0.73490 0.16150 0.69610 -0.02800
C 	C 	0.78580 0.10720 0.69360 -0.03900
C 	C 	0.50760 0.64560 0.63920 0.36000
C 	C 	0.57340 0.73490 0.69610 -0.01600
C 	C 	0.67860 0.78580 0.69360 -0.03300
C 	C 	0.13800 0.49240 0.63920 0.35900
C 	C 	0.16150 0.42660 0.69610 -0.03400
C 	C 	0.10720 0.32140 0.69360 -0.04500
C 	C 	0.35440 0.86200 0.63920 0.35400
C 	C 	0.26510 0.83850 0.69610 -0.01400
C 	C 	0.21420 0.89280 0.69360 -0.04000
C 	C 	0.13800 0.64560 0.86080 0.35300
C 	C 	0.16150 0.73490 0.80390 -0.01400
C 	C 	0.10720 0.78580 0.80640 -0.04200
C 	C 	0.35440 0.49240 0.86080 0.35100
C 	C 	0.26510 0.42660 0.80390 -0.01300
C 	C 	0.21420 0.32140 0.80640 -0.04600
C 	C 	0.50760 0.86200 0.86080 0.34900
C 	C 	0.57340 0.83850 0.80390 0.00600
C 	C 	0.67860 0.89280 0.80640 -0.03500
C 	C 	0.86200 0.35440 0.86080 0.34800
C 	C 	0.83850 0.26510 0.80390 0.00100
C 	C 	0.89280 0.21420 0.80640 -0.04100
C 	C 	0.64560 0.50760 0.86080 0.35300
C 	C 	0.73490 0.57340 0.80390 -0.00100
C 	C 	0.78580 0.67860 0.80640 -0.03500
C 	C 	0.49240 0.13800 0.86080 0.35200
C 	C 	0.42660 0.16150 0.80390 -0.01900
C 	C 	0.32140 0.10720 0.80640 -0.04700
C 	C 	0.50760 0.64560 0.36080 0.36100
C 	C 	0.57340 0.73490 0.30390 -0.02400
C 	C 	0.67860 0.78580 0.30640 -0.02400
C 	C 	0.13800 0.49240 0.36080 0.36000
C 	C 	0.16150 0.42660 0.30390 -0.04200
C 	C 	0.10720 0.32140 0.30640 -0.03500
C 	C 	0.35440 0.86200 0.36080 0.35500
C 	C 	0.26510 0.83850 0.30390 -0.02100
C 	C 	0.21420 0.89280 0.30640 -0.03000
C 	C 	0.49240 0.35440 0.36080 0.35900
C 	C 	0.42660 0.26510 0.30390 -0.03600
C 	C 	0.32140 0.21420 0.30640 -0.03500
C 	C 	0.86200 0.50760 0.36080 0.35600
C 	C 	0.83850 0.57340 0.30390 -0.01600
C 	C 	0.89280 0.67860 0.30640 -0.02400
C 	C 	0.64560 0.13800 0.36080 0.36100
C 	C 	0.73490 0.16150 0.30390 -0.03600
C 	C 	0.78580 0.10720 0.30640 -0.03000
C 	C 	0.86200 0.35440 0.13920 0.35600
C 	C 	0.83850 0.26510 0.19610 -0.03300
C 	C 	0.89280 0.21420 0.19360 -0.02900
C 	C 	0.64560 0.50760 0.13920 0.36100
C 	C 	0.73490 0.57340 0.19610 -0.03600
C 	C 	0.78580 0.67860 0.19360 -0.02300
C 	C 	0.49240 0.13800 0.13920 0.36000
C 	C 	0.42660 0.16150 0.19610 -0.05400
C 	C 	0.32140 0.10720 0.19360 -0.03500
C 	C 	0.13800 0.64560 0.13920 0.36200
C 	C 	0.16150 0.73490 0.19610 -0.04800
C 	C 	0.10720 0.78580 0.19360 -0.03000
C 	C 	0.35440 0.49240 0.13920 0.36000
C 	C 	0.26510 0.42660 0.19610 -0.04700
C 	C 	0.21420 0.32140 0.19360 -0.03400
C 	C 	0.50760 0.86200 0.13920 0.35700
C 	C 	0.57340 0.83850 0.19610 -0.02700
C 	C 	0.67860 0.89280 0.19360 -0.02400
C 	C 	0.27020 0.13510 0.75000 -0.03100
C 	C 	0.86490 0.72980 0.75000 -0.01200
C 	C 	0.86490 0.13510 0.75000 -0.02100
C 	C 	0.72980 0.86490 0.75000 -0.01200
C 	C 	0.13510 0.27020 0.75000 -0.03100
C 	C 	0.13510 0.86490 0.75000 -0.02100
C 	C 	0.72980 0.86490 0.25000 -0.03400
C 	C 	0.13510 0.27020 0.25000 -0.05500
C 	C 	0.13510 0.86490 0.25000 -0.04400
C 	C 	0.27020 0.13510 0.25000 -0.05500
C 	C 	0.86490 0.72980 0.25000 -0.03500
C 	C 	0.86490 0.13510 0.25000 -0.04400
N 	N 	0.47810 0.23905 0.75000 -0.18500
N 	N 	0.76095 0.52190 0.75000 -0.18400
N 	N 	0.76095 0.23905 0.75000 -0.18400
N 	N 	0.52190 0.76095 0.75000 -0.18400
N 	N 	0.23905 0.47810 0.75000 -0.18500
N 	N 	0.23905 0.76095 0.75000 -0.18500
N 	N 	0.52190 0.76095 0.25000 -0.18000
N 	N 	0.23905 0.47810 0.25000 -0.18000
N 	N 	0.23905 0.76095 0.25000 -0.18000
N 	N 	0.47810 0.23905 0.25000 -0.18000
N 	N 	0.76095 0.52190 0.25000 -0.18000
N 	N 	0.76095 0.23905 0.25000 -0.18000
O 	O 	0.58770 0.38890 0.64360 -0.43100
O 	O 	0.44840 0.38690 0.59200 -0.42600
O 	O 	0.80120 0.41230 0.64360 -0.41700
O 	O 	0.93850 0.55160 0.59200 -0.38100
O 	O 	0.61110 0.19880 0.64360 -0.43800
O 	O 	0.61310 0.06150 0.59200 -0.44700
O 	O 	0.41230 0.61110 0.64360 -0.42900
O 	O 	0.55160 0.61310 0.59200 -0.42000
O 	O 	0.19880 0.58770 0.64360 -0.43900
O 	O 	0.06150 0.44840 0.59200 -0.45000
O 	O 	0.38890 0.80120 0.64360 -0.41800
O 	O 	0.38690 0.93850 0.59200 -0.38500
O 	O 	0.19880 0.61110 0.85640 -0.40700
O 	O 	0.06150 0.61310 0.90800 -0.38200
O 	O 	0.38890 0.58770 0.85640 -0.40000
O 	O 	0.38690 0.44840 0.90800 -0.36000
O 	O 	0.41230 0.80120 0.85640 -0.38700
O 	O 	0.55160 0.93850 0.90800 -0.31800
O 	O 	0.80120 0.38890 0.85640 -0.38700
O 	O 	0.93850 0.38690 0.90800 -0.32100
O 	O 	0.61110 0.41230 0.85640 -0.39800
O 	O 	0.61310 0.55160 0.90800 -0.35500
O 	O 	0.58770 0.19880 0.85640 -0.40800
O 	O 	0.44840 0.06150 0.90800 -0.38400
O 	O 	0.41230 0.61110 0.35640 -0.42700
O 	O 	0.55160 0.61310 0.40800 -0.42000
O 	O 	0.19880 0.58770 0.35640 -0.43800
O 	O 	0.06150 0.44840 0.40800 -0.45100
O 	O 	0.38890 0.80120 0.35640 -0.41600
O 	O 	0.38690 0.93850 0.40800 -0.38400
O 	O 	0.58770 0.38890 0.35640 -0.42900
O 	O 	0.44840 0.38690 0.40800 -0.42700
O 	O 	0.80120 0.41230 0.35640 -0.41500
O 	O 	0.93850 0.55160 0.40800 -0.38100
O 	O 	0.61110 0.19880 0.35640 -0.43700
O 	O 	0.61310 0.06150 0.40800 -0.44700
O 	O 	0.80120 0.38890 0.14360 -0.43900
O 	O 	0.93850 0.38690 0.09200 -0.42200
O 	O 	0.61110 0.41230 0.14360 -0.45100
O 	O 	0.61310 0.55160 0.09200 -0.45800
O 	O 	0.58770 0.19880 0.14360 -0.46100
O 	O 	0.44840 0.06150 0.09200 -0.48900
O 	O 	0.19880 0.61110 0.14360 -0.46000
O 	O 	0.06150 0.61310 0.09200 -0.48500
O 	O 	0.38890 0.58770 0.14360 -0.45300
O 	O 	0.38690 0.44840 0.09200 -0.46500
O 	O 	0.41230 0.80120 0.14360 -0.43800
O 	O 	0.55160 0.93850 0.09200 -0.41900
