data_crystal

_cell_length_a 15.29700
_cell_length_b 15.29700
_cell_length_c 15.37000
_cell_angle_alpha 90.00000
_cell_angle_beta  90.00000
_cell_angle_gamma 120.00000

_symmetry_space_group_name_	'P 1'
_symmetry_space_group_name_H-M	'P 1'

loop_
_symmetry_equiv_pos_as_xyz
  x,y,z

loop_
_atom_site_label
_atom_site_type_symbol
_atom_site_fract_x
_atom_site_fract_y
_atom_site_fract_z
_atom_site_charge
Eu	Eu	0.66667 0.33334 0.75000 1.97000
Eu	Eu	0.33333 0.66666 0.75000 1.97000
Eu	Eu	0.33333 0.66666 0.25000 1.95000
Eu	Eu	0.66667 0.33334 0.25000 1.95000
Co	Co	0.50000 0.50000 0.50000 1.16400
Co	Co	0.00000 0.50000 0.50000 1.12700
Co	Co	0.50000 0.00000 0.50000 1.12700
Co	Co	-0.00000 0.50000 -0.00000 1.06100
Co	Co	0.50000 0.50000 -0.00000 1.09700
Co	Co	0.50000 0.00000 -0.00000 1.06100
H 	H 	0.28530 0.23240 0.65490 0.04700
H 	H 	0.94710 0.71470 0.65490 0.07900
H 	H 	0.76760 0.05290 0.65490 0.04000
H 	H 	0.71470 0.76760 0.65490 0.06300
H 	H 	0.05290 0.28530 0.65490 0.03200
H 	H 	0.23240 0.94710 0.65490 0.07100
H 	H 	0.05290 0.76760 0.84510 0.06000
H 	H 	0.23240 0.28530 0.84510 0.06800
H 	H 	0.71470 0.94710 0.84510 0.09900
H 	H 	0.94710 0.23240 0.84510 0.09100
H 	H 	0.76760 0.71470 0.84510 0.08400
H 	H 	0.28530 0.05290 0.84510 0.05300
H 	H 	0.71470 0.76760 0.34510 0.06000
H 	H 	0.05290 0.28530 0.34510 0.02800
H 	H 	0.23240 0.94710 0.34510 0.06800
H 	H 	0.28530 0.23240 0.34510 0.04300
H 	H 	0.94710 0.71470 0.34510 0.07600
H 	H 	0.76760 0.05290 0.34510 0.03600
H 	H 	0.94710 0.23240 0.15490 0.05000
H 	H 	0.76760 0.71470 0.15490 0.04200
H 	H 	0.28530 0.05290 0.15490 0.00900
H 	H 	0.05290 0.76760 0.15490 0.01800
H 	H 	0.23240 0.28530 0.15490 0.02400
H 	H 	0.71470 0.94710 0.15490 0.05800
H 	H 	0.20030 0.10015 0.75000 0.01200
H 	H 	0.89985 0.79970 0.75000 0.06400
H 	H 	0.89985 0.10015 0.75000 0.03800
H 	H 	0.79970 0.89985 0.75000 0.06400
H 	H 	0.10015 0.20030 0.75000 0.01200
H 	H 	0.10015 0.89985 0.75000 0.03700
H 	H 	0.79970 0.89985 0.25000 0.05800
H 	H 	0.10015 0.20030 0.25000 0.00600
H 	H 	0.10015 0.89985 0.25000 0.03200
H 	H 	0.20030 0.10015 0.25000 0.00600
H 	H 	0.89985 0.79970 0.25000 0.05800
H 	H 	0.89985 0.10015 0.25000 0.03200
C 	C 	0.49100 0.35405 0.63910 0.34900
C 	C 	0.42508 0.26475 0.69620 -0.02500
C 	C 	0.32008 0.21384 0.69340 -0.04900
C 	C 	0.86305 0.50900 0.63910 0.34600
C 	C 	0.83967 0.57492 0.69620 -0.00600
C 	C 	0.89376 0.67992 0.69340 -0.03700
C 	C 	0.64595 0.13695 0.63910 0.35100
C 	C 	0.73525 0.16033 0.69620 -0.02600
C 	C 	0.78616 0.10624 0.69340 -0.04300
C 	C 	0.50900 0.64595 0.63910 0.35100
C 	C 	0.57492 0.73525 0.69620 -0.01400
C 	C 	0.67992 0.78616 0.69340 -0.03700
C 	C 	0.13695 0.49100 0.63910 0.34900
C 	C 	0.16033 0.42508 0.69620 -0.03200
C 	C 	0.10624 0.32008 0.69340 -0.04900
C 	C 	0.35405 0.86305 0.63910 0.34500
C 	C 	0.26475 0.83967 0.69620 -0.01200
C 	C 	0.21384 0.89376 0.69340 -0.04300
C 	C 	0.13695 0.64595 0.86090 0.34500
C 	C 	0.16033 0.73525 0.80380 -0.01200
C 	C 	0.10624 0.78616 0.80660 -0.04500
C 	C 	0.35405 0.49100 0.86090 0.34300
C 	C 	0.26475 0.42508 0.80380 -0.01100
C 	C 	0.21384 0.32008 0.80660 -0.05000
C 	C 	0.50900 0.86305 0.86090 0.34200
C 	C 	0.57492 0.83967 0.80380 0.00700
C 	C 	0.67992 0.89376 0.80660 -0.03800
C 	C 	0.86305 0.35405 0.86090 0.34100
C 	C 	0.83967 0.26475 0.80380 0.00200
C 	C 	0.89376 0.21384 0.80660 -0.04400
C 	C 	0.64595 0.50900 0.86090 0.34500
C 	C 	0.73525 0.57492 0.80380 0.00000
C 	C 	0.78616 0.67992 0.80660 -0.03800
C 	C 	0.49100 0.13695 0.86090 0.34400
C 	C 	0.42508 0.16033 0.80380 -0.01700
C 	C 	0.32008 0.10624 0.80660 -0.05100
C 	C 	0.50900 0.64595 0.36090 0.35200
C 	C 	0.57492 0.73525 0.30380 -0.02100
C 	C 	0.67992 0.78616 0.30660 -0.02900
C 	C 	0.13695 0.49100 0.36090 0.35000
C 	C 	0.16033 0.42508 0.30380 -0.03900
C 	C 	0.10624 0.32008 0.30660 -0.04100
C 	C 	0.35405 0.86305 0.36090 0.34700
C 	C 	0.26475 0.83967 0.30380 -0.01900
C 	C 	0.21384 0.89376 0.30660 -0.03500
C 	C 	0.49100 0.35405 0.36090 0.35000
C 	C 	0.42508 0.26475 0.30380 -0.03200
C 	C 	0.32008 0.21384 0.30660 -0.04000
C 	C 	0.86305 0.50900 0.36090 0.34800
C 	C 	0.83967 0.57492 0.30380 -0.01400
C 	C 	0.89376 0.67992 0.30660 -0.02800
C 	C 	0.64595 0.13695 0.36090 0.35200
C 	C 	0.73525 0.16033 0.30380 -0.03300
C 	C 	0.78616 0.10624 0.30660 -0.03500
C 	C 	0.86305 0.35405 0.13910 0.34600
C 	C 	0.83967 0.26475 0.19620 -0.03000
C 	C 	0.89376 0.21384 0.19340 -0.03500
C 	C 	0.64595 0.50900 0.13910 0.35100
C 	C 	0.73525 0.57492 0.19620 -0.03300
C 	C 	0.78616 0.67992 0.19340 -0.02800
C 	C 	0.49100 0.13695 0.13910 0.35000
C 	C 	0.42508 0.16033 0.19620 -0.05000
C 	C 	0.32008 0.10624 0.19340 -0.04100
C 	C 	0.13695 0.64595 0.13910 0.35100
C 	C 	0.16033 0.73525 0.19620 -0.04400
C 	C 	0.10624 0.78616 0.19340 -0.03500
C 	C 	0.35405 0.49100 0.13910 0.34900
C 	C 	0.26475 0.42508 0.19620 -0.04400
C 	C 	0.21384 0.32008 0.19340 -0.04000
C 	C 	0.50900 0.86305 0.13910 0.34700
C 	C 	0.57492 0.83967 0.19620 -0.02500
C 	C 	0.67992 0.89376 0.19340 -0.02800
C 	C 	0.27050 0.13525 0.75000 -0.02800
C 	C 	0.86475 0.72950 0.75000 -0.00900
C 	C 	0.86475 0.13525 0.75000 -0.01800
C 	C 	0.72950 0.86475 0.75000 -0.00900
C 	C 	0.13525 0.27050 0.75000 -0.02700
C 	C 	0.13525 0.86475 0.75000 -0.01800
C 	C 	0.72950 0.86475 0.25000 -0.03100
C 	C 	0.13525 0.27050 0.25000 -0.05000
C 	C 	0.13525 0.86475 0.25000 -0.03900
C 	C 	0.27050 0.13525 0.25000 -0.05000
C 	C 	0.86475 0.72950 0.25000 -0.03100
C 	C 	0.86475 0.13525 0.25000 -0.03900
N 	N 	0.47770 0.23885 0.75000 -0.19600
N 	N 	0.76115 0.52230 0.75000 -0.19500
N 	N 	0.76115 0.23885 0.75000 -0.19500
N 	N 	0.52230 0.76115 0.75000 -0.19500
N 	N 	0.23885 0.47770 0.75000 -0.19600
N 	N 	0.23885 0.76115 0.75000 -0.19500
N 	N 	0.52230 0.76115 0.25000 -0.19100
N 	N 	0.23885 0.47770 0.25000 -0.19200
N 	N 	0.23885 0.76115 0.25000 -0.19200
N 	N 	0.47770 0.23885 0.25000 -0.19200
N 	N 	0.76115 0.52230 0.25000 -0.19100
N 	N 	0.76115 0.23885 0.25000 -0.19200
O 	O 	0.58613 0.38858 0.64350 -0.44700
O 	O 	0.44659 0.38646 0.59210 -0.42200
O 	O 	0.80245 0.41387 0.64350 -0.43400
O 	O 	0.93987 0.55341 0.59210 -0.37800
O 	O 	0.61142 0.19755 0.64350 -0.45500
O 	O 	0.61354 0.06013 0.59210 -0.44300
O 	O 	0.41387 0.61142 0.64350 -0.44500
O 	O 	0.55341 0.61354 0.59210 -0.41600
O 	O 	0.19755 0.58613 0.64350 -0.45500
O 	O 	0.06013 0.44659 0.59210 -0.44600
O 	O 	0.38858 0.80245 0.64350 -0.43400
O 	O 	0.38646 0.93987 0.59210 -0.38100
O 	O 	0.19755 0.61142 0.85650 -0.42400
O 	O 	0.06013 0.61354 0.90790 -0.37900
O 	O 	0.38858 0.58613 0.85650 -0.41600
O 	O 	0.38646 0.44659 0.90790 -0.35700
O 	O 	0.41387 0.80245 0.85650 -0.40300
O 	O 	0.55341 0.93987 0.90790 -0.31600
O 	O 	0.80245 0.38858 0.85650 -0.40400
O 	O 	0.93987 0.38646 0.90790 -0.31900
O 	O 	0.61142 0.41387 0.85650 -0.41400
O 	O 	0.61354 0.55341 0.90790 -0.35200
O 	O 	0.58613 0.19755 0.85650 -0.42400
O 	O 	0.44659 0.06013 0.90790 -0.38100
O 	O 	0.41387 0.61142 0.35650 -0.44300
O 	O 	0.55341 0.61354 0.40790 -0.41600
O 	O 	0.19755 0.58613 0.35650 -0.45300
O 	O 	0.06013 0.44659 0.40790 -0.44600
O 	O 	0.38858 0.80245 0.35650 -0.43200
O 	O 	0.38646 0.93987 0.40790 -0.38100
O 	O 	0.58613 0.38858 0.35650 -0.44500
O 	O 	0.44659 0.38646 0.40790 -0.42300
O 	O 	0.80245 0.41387 0.35650 -0.43100
O 	O 	0.93987 0.55341 0.40790 -0.37800
O 	O 	0.61142 0.19755 0.35650 -0.45300
O 	O 	0.61354 0.06013 0.40790 -0.44300
O 	O 	0.80245 0.38858 0.14350 -0.45500
O 	O 	0.93987 0.38646 0.09210 -0.41800
O 	O 	0.61142 0.41387 0.14350 -0.46700
O 	O 	0.61354 0.55341 0.09210 -0.45400
O 	O 	0.58613 0.19755 0.14350 -0.47700
O 	O 	0.44659 0.06013 0.09210 -0.48400
O 	O 	0.19755 0.61142 0.14350 -0.47600
O 	O 	0.06013 0.61354 0.09210 -0.48100
O 	O 	0.38858 0.58613 0.14350 -0.46800
O 	O 	0.38646 0.44659 0.09210 -0.46100
O 	O 	0.41387 0.80245 0.14350 -0.45400
O 	O 	0.55341 0.93987 0.09210 -0.41500
