data_crystal

_cell_length_a 8.01800
_cell_length_b 21.04000
_cell_length_c 11.06900
_cell_angle_alpha 90.00000
_cell_angle_beta  91.26000
_cell_angle_gamma 90.00000

_symmetry_space_group_name_	'P 1'
_symmetry_space_group_name_H-M	'P 1'

loop_
_symmetry_equiv_pos_as_xyz
  x,y,z

loop_
_atom_site_label
_atom_site_type_symbol
_atom_site_fract_x
_atom_site_fract_y
_atom_site_fract_z
_atom_site_charge
Zn	Zn	0.10337 0.61355 0.27669 1.19900
Zn	Zn	0.81521 0.69168 0.13554 1.17900
N 	N 	0.86410 0.75210 0.49510 -0.37300
N 	N 	0.98160 0.68190 0.37450 -0.29100
N 	N 	0.87990 0.72260 0.30420 -0.30100
N 	N 	0.31590 0.65390 0.21220 -0.24500
N 	N 	0.56320 0.67870 0.15030 -0.24900
N 	N 	0.44830 0.70740 0.07730 -0.09000
N 	N 	0.30050 0.69240 0.11350 -0.10000
O 	O 	0.84600 0.45130 0.60490 -0.48400
O 	O 	0.75140 0.52070 0.73970 -0.34000
O 	O 	0.94610 0.61410 0.14110 -0.84600
H 	H 	0.96310 0.59390 0.07820 0.30100
C 	C 	0.77040 0.50310 0.63420 0.33200
C 	C 	0.69800 0.54090 0.52900 -0.09000
C 	C 	0.59180 0.59220 0.55170 -0.00800
H 	H 	0.56800 0.60340 0.63080 0.02000
C 	C 	0.73360 0.52400 0.41060 -0.00400
H 	H 	0.80450 0.49010 0.39550 0.02700
C 	C 	0.52170 0.62660 0.45490 -0.07200
H 	H 	0.45160 0.66080 0.46970 0.02800
C 	C 	0.66230 0.55820 0.31500 -0.08400
H 	H 	0.68520 0.54660 0.23600 0.03300
C 	C 	0.55690 0.60970 0.33620 -0.04300
C 	C 	0.47890 0.64690 0.23430 0.09300
C 	C 	0.69580 0.81550 0.33860 -0.83400
H 	H 	0.74670 0.85620 0.35270 0.24600
H 	H 	0.59470 0.81260 0.38320 0.25400
H 	H 	0.67050 0.81070 0.25390 0.23900
C 	C 	0.81300 0.76420 0.37900 0.27100
C 	C 	0.96850 0.70080 0.48760 0.30200
C 	C 	0.05410 0.66870 0.59210 -0.87000
H 	H 	0.11730 0.63320 0.56340 0.27500
H 	H 	0.97240 0.65400 0.64760 0.26300
H 	H 	0.12770 0.69830 0.63230 0.25700
Zn	Zn	0.89663 0.11355 0.22331 1.19900
Zn	Zn	0.18479 0.19168 0.36446 1.18100
N 	N 	0.13590 0.25210 0.00490 -0.37100
N 	N 	0.01840 0.18190 0.12550 -0.28800
N 	N 	0.12010 0.22260 0.19580 -0.30000
N 	N 	0.68410 0.15390 0.28780 -0.24500
N 	N 	0.43680 0.17870 0.34970 -0.24900
N 	N 	0.55170 0.20740 0.42270 -0.09000
N 	N 	0.69950 0.19240 0.38650 -0.10000
O 	O 	0.15400 0.95130 0.89510 -0.48500
O 	O 	0.24860 0.02070 0.76030 -0.34100
O 	O 	0.05390 0.11410 0.35890 -0.84500
H 	H 	0.03690 0.09390 0.42180 0.30100
C 	C 	0.22960 0.00310 0.86580 0.33200
C 	C 	0.30200 0.04090 0.97100 -0.09400
C 	C 	0.40820 0.09220 0.94830 -0.00800
H 	H 	0.43200 0.10340 0.86920 0.02000
C 	C 	0.26640 0.02400 0.08940 0.00300
H 	H 	0.19550 0.99010 0.10450 0.02500
C 	C 	0.47830 0.12660 0.04510 -0.07200
H 	H 	0.54840 0.16080 0.03030 0.02800
C 	C 	0.33770 0.05820 0.18500 -0.08700
H 	H 	0.31480 0.04660 0.26400 0.03500
C 	C 	0.44310 0.10970 0.16380 -0.04200
C 	C 	0.52110 0.14690 0.26570 0.09300
C 	C 	0.30420 0.31550 0.16140 -0.83500
H 	H 	0.25330 0.35620 0.14730 0.24700
H 	H 	0.40530 0.31260 0.11680 0.25400
H 	H 	0.32950 0.31070 0.24610 0.23900
C 	C 	0.18700 0.26420 0.12100 0.27200
C 	C 	0.03150 0.20080 0.01240 0.30000
C 	C 	0.94590 0.16870 0.90790 -0.85700
H 	H 	0.88270 0.13320 0.93660 0.27200
H 	H 	0.02760 0.15400 0.85240 0.25700
H 	H 	0.87230 0.19830 0.86770 0.25400
Zn	Zn	0.89663 0.38645 0.72331 1.20000
Zn	Zn	0.18479 0.30832 0.86446 1.18000
N 	N 	0.13590 0.24790 0.50490 -0.37200
N 	N 	0.01840 0.31810 0.62550 -0.29000
N 	N 	0.12010 0.27740 0.69580 -0.30100
N 	N 	0.68410 0.34610 0.78780 -0.24500
N 	N 	0.43680 0.32130 0.84970 -0.24900
N 	N 	0.55170 0.29260 0.92270 -0.09000
N 	N 	0.69950 0.30760 0.88650 -0.10000
O 	O 	0.15400 0.54870 0.39510 -0.48400
O 	O 	0.24860 0.47930 0.26030 -0.34000
O 	O 	0.05390 0.38590 0.85890 -0.84600
H 	H 	0.03690 0.40610 0.92180 0.30100
C 	C 	0.22960 0.49690 0.36580 0.33200
C 	C 	0.30200 0.45910 0.47100 -0.09000
C 	C 	0.40820 0.40780 0.44830 -0.00800
H 	H 	0.43200 0.39660 0.36920 0.02000
C 	C 	0.26640 0.47600 0.58940 -0.00400
H 	H 	0.19550 0.50990 0.60450 0.02700
C 	C 	0.47830 0.37340 0.54510 -0.07200
H 	H 	0.54840 0.33920 0.53030 0.02800
C 	C 	0.33770 0.44180 0.68500 -0.08400
H 	H 	0.31480 0.45340 0.76400 0.03300
C 	C 	0.44310 0.39030 0.66380 -0.04300
C 	C 	0.52110 0.35310 0.76570 0.09300
C 	C 	0.30420 0.18450 0.66140 -0.83400
H 	H 	0.25330 0.14380 0.64730 0.24600
H 	H 	0.40530 0.18740 0.61680 0.25400
H 	H 	0.32950 0.18930 0.74610 0.23900
C 	C 	0.18700 0.23580 0.62100 0.27100
C 	C 	0.03150 0.29920 0.51240 0.30200
C 	C 	0.94590 0.33130 0.40790 -0.87000
H 	H 	0.88270 0.36680 0.43660 0.27500
H 	H 	0.02760 0.34600 0.35240 0.26300
H 	H 	0.87230 0.30170 0.36770 0.25700
Zn	Zn	0.10337 0.88645 0.77669 1.19900
Zn	Zn	0.81521 0.80832 0.63554 1.18100
N 	N 	0.86410 0.74790 0.99510 -0.37100
N 	N 	0.98160 0.81810 0.87450 -0.28800
N 	N 	0.87990 0.77740 0.80420 -0.30000
N 	N 	0.31590 0.84610 0.71220 -0.24500
N 	N 	0.56320 0.82130 0.65030 -0.24900
N 	N 	0.44830 0.79260 0.57730 -0.09000
N 	N 	0.30050 0.80760 0.61350 -0.10000
O 	O 	0.84600 0.04870 0.10490 -0.48500
O 	O 	0.75140 0.97930 0.23970 -0.34100
O 	O 	0.94610 0.88590 0.64110 -0.84500
H 	H 	0.96310 0.90610 0.57820 0.30100
C 	C 	0.77040 0.99690 0.13420 0.33200
C 	C 	0.69800 0.95910 0.02900 -0.09400
C 	C 	0.59180 0.90780 0.05170 -0.00800
H 	H 	0.56800 0.89660 0.13080 0.02000
C 	C 	0.73360 0.97600 0.91060 0.00300
H 	H 	0.80450 0.00990 0.89550 0.02500
C 	C 	0.52170 0.87340 0.95490 -0.07200
H 	H 	0.45160 0.83920 0.96970 0.02800
C 	C 	0.66230 0.94180 0.81500 -0.08700
H 	H 	0.68520 0.95340 0.73600 0.03500
C 	C 	0.55690 0.89030 0.83620 -0.04200
C 	C 	0.47890 0.85310 0.73430 0.09300
C 	C 	0.69580 0.68450 0.83860 -0.83500
H 	H 	0.74670 0.64380 0.85270 0.24700
H 	H 	0.59470 0.68740 0.88320 0.25400
H 	H 	0.67050 0.68930 0.75390 0.23900
C 	C 	0.81300 0.73580 0.87900 0.27200
C 	C 	0.96850 0.79920 0.98760 0.30000
C 	C 	0.05410 0.83130 0.09210 -0.85700
H 	H 	0.11730 0.86680 0.06340 0.27200
H 	H 	0.97240 0.84600 0.14760 0.25700
H 	H 	0.12770 0.80170 0.13230 0.25400
