data_crystal

_cell_length_a 27.97800
_cell_length_b 27.97800
_cell_length_c 14.97980
_cell_angle_alpha 90.00000
_cell_angle_beta  90.00000
_cell_angle_gamma 120.00000

_symmetry_space_group_name_	'P 1'
_symmetry_space_group_name_H-M	'P 1'

loop_
_symmetry_equiv_pos_as_xyz
  x,y,z

loop_
_atom_site_label
_atom_site_type_symbol
_atom_site_fract_x
_atom_site_fract_y
_atom_site_fract_z
_atom_site_charge
Ag	Ag	0.74308 0.12940 0.42770 0.53000
N 	N 	0.80290 0.21380 0.37460 -0.15500
C 	C 	0.88160 0.26400 0.04940 -0.05600
H 	H 	0.84740 0.23070 0.04310 0.03300
C 	C 	0.88490 0.30320 0.10890 0.11300
C 	C 	0.80230 0.22820 0.29030 -0.05800
H 	H 	0.77620 0.20160 0.25050 0.03600
N 	N 	0.87680 0.31940 0.31020 -0.17000
C 	C 	0.87930 0.30530 0.39230 0.02100
H 	H 	0.90710 0.33190 0.43010 0.01500
N 	N 	0.93290 0.34970 0.12370 -0.18400
C 	C 	0.83850 0.28060 0.25810 0.11900
N 	N 	0.92380 0.27090 0.00110 -0.14500
C 	C 	0.97620 0.35770 0.07480 0.01300
H 	H 	0.01030 0.39110 0.08180 0.00200
C 	C 	0.84390 0.25410 0.42710 -0.02600
H 	H 	0.84770 0.24640 0.48760 0.01400
C 	C 	0.97300 0.31900 0.01440 -0.02100
H 	H 	0.00480 0.32550 0.98180 0.02700
C 	C 	0.83540 0.29500 0.16300 -0.26600
H 	H 	0.80130 0.26520 0.13560 0.09300
H 	H 	0.83330 0.32930 0.16100 0.08400
Ag	Ag	0.40975 0.46273 0.76103 0.52900
N 	N 	0.46957 0.54713 0.70793 -0.15600
C 	C 	0.54827 0.59733 0.38273 -0.05700
H 	H 	0.51407 0.56403 0.37643 0.03200
C 	C 	0.55157 0.63653 0.44223 0.11200
C 	C 	0.46897 0.56153 0.62363 -0.05900
H 	H 	0.44287 0.53493 0.58383 0.03500
N 	N 	0.54347 0.65273 0.64353 -0.17100
C 	C 	0.54597 0.63863 0.72563 0.02000
H 	H 	0.57377 0.66523 0.76343 0.01400
N 	N 	0.59957 0.68303 0.45703 -0.18500
C 	C 	0.50517 0.61393 0.59143 0.11800
N 	N 	0.59047 0.60423 0.33443 -0.14700
C 	C 	0.64287 0.69103 0.40813 0.01100
H 	H 	0.67697 0.72443 0.41513 0.00200
C 	C 	0.51057 0.58743 0.76043 -0.02700
H 	H 	0.51437 0.57973 0.82093 0.01300
C 	C 	0.63967 0.65233 0.34773 -0.02200
H 	H 	0.67147 0.65883 0.31513 0.02600
C 	C 	0.50207 0.62833 0.49633 -0.26700
H 	H 	0.46797 0.59853 0.46893 0.09300
H 	H 	0.49997 0.66263 0.49433 0.08400
Ag	Ag	0.07641 0.79607 0.09437 0.52900
N 	N 	0.13623 0.88047 0.04127 -0.15600
C 	C 	0.21493 0.93067 0.71607 -0.05700
H 	H 	0.18073 0.89737 0.70977 0.03200
C 	C 	0.21823 0.96987 0.77557 0.11200
C 	C 	0.13563 0.89487 0.95697 -0.05800
H 	H 	0.10953 0.86827 0.91717 0.03400
N 	N 	0.21013 0.98607 0.97687 -0.17100
C 	C 	0.21263 0.97197 0.05897 0.01900
H 	H 	0.24043 0.99857 0.09677 0.01400
N 	N 	0.26623 0.01637 0.79037 -0.18500
C 	C 	0.17183 0.94727 0.92477 0.11800
N 	N 	0.25713 0.93757 0.66777 -0.14700
C 	C 	0.30953 0.02437 0.74147 0.01000
H 	H 	0.34363 0.05777 0.74847 0.00200
C 	C 	0.17723 0.92077 0.09377 -0.02600
H 	H 	0.18103 0.91307 0.15427 0.01300
C 	C 	0.30633 0.98567 0.68107 -0.02100
H 	H 	0.33813 0.99217 0.64847 0.02600
C 	C 	0.16873 0.96167 0.82967 -0.26700
H 	H 	0.13463 0.93187 0.80227 0.09300
H 	H 	0.16663 0.99597 0.82767 0.08500
Ag	Ag	0.87060 0.61368 0.42770 0.52900
N 	N 	0.78620 0.58910 0.37460 -0.15600
C 	C 	0.73600 0.61760 0.04940 -0.05700
H 	H 	0.76930 0.61670 0.04310 0.03200
C 	C 	0.69680 0.58170 0.10890 0.11200
C 	C 	0.77180 0.57410 0.29030 -0.05900
H 	H 	0.79840 0.57460 0.25050 0.03500
N 	N 	0.68060 0.55740 0.31020 -0.17100
C 	C 	0.69470 0.57400 0.39230 0.02000
H 	H 	0.66810 0.57520 0.43010 0.01400
N 	N 	0.65030 0.58320 0.12370 -0.18500
C 	C 	0.71940 0.55790 0.25810 0.11800
N 	N 	0.72910 0.65290 0.00110 -0.14700
C 	C 	0.64230 0.61850 0.07480 0.01100
H 	H 	0.60890 0.61920 0.08180 0.00200
C 	C 	0.74590 0.58980 0.42710 -0.02700
H 	H 	0.75360 0.60130 0.48760 0.01400
C 	C 	0.68100 0.65400 0.01440 -0.02200
H 	H 	0.67450 0.67930 0.98180 0.02600
C 	C 	0.70500 0.54040 0.16300 -0.26700
H 	H 	0.73480 0.53610 0.13560 0.09300
H 	H 	0.67070 0.50400 0.16100 0.08400
Ag	Ag	0.53727 0.94701 0.76103 0.52900
N 	N 	0.45287 0.92243 0.70793 -0.15600
C 	C 	0.40267 0.95093 0.38273 -0.05700
H 	H 	0.43597 0.95003 0.37643 0.03200
C 	C 	0.36347 0.91503 0.44223 0.11200
C 	C 	0.43847 0.90743 0.62363 -0.05900
H 	H 	0.46507 0.90793 0.58383 0.03500
N 	N 	0.34727 0.89073 0.64353 -0.17100
C 	C 	0.36137 0.90733 0.72563 0.02000
H 	H 	0.33477 0.90853 0.76343 0.01400
N 	N 	0.31697 0.91653 0.45703 -0.18500
C 	C 	0.38607 0.89123 0.59143 0.11800
N 	N 	0.39577 0.98623 0.33443 -0.14700
C 	C 	0.30897 0.95183 0.40813 0.01100
H 	H 	0.27557 0.95253 0.41513 0.00200
C 	C 	0.41257 0.92313 0.76043 -0.02700
H 	H 	0.42027 0.93463 0.82093 0.01400
C 	C 	0.34767 0.98733 0.34773 -0.02200
H 	H 	0.34117 0.01263 0.31513 0.02700
C 	C 	0.37167 0.87373 0.49633 -0.26700
H 	H 	0.40147 0.86943 0.46893 0.09300
H 	H 	0.33737 0.83733 0.49433 0.08400
Ag	Ag	0.20393 0.28035 0.09437 0.52900
N 	N 	0.11953 0.25577 0.04127 -0.15600
C 	C 	0.06933 0.28427 0.71607 -0.05700
H 	H 	0.10263 0.28337 0.70977 0.03200
C 	C 	0.03013 0.24837 0.77557 0.11200
C 	C 	0.10513 0.24077 0.95697 -0.05900
H 	H 	0.13173 0.24127 0.91717 0.03400
N 	N 	0.01393 0.22407 0.97687 -0.17100
C 	C 	0.02803 0.24067 0.05897 0.02000
H 	H 	0.00143 0.24187 0.09677 0.01400
N 	N 	0.98363 0.24987 0.79037 -0.18500
C 	C 	0.05273 0.22457 0.92477 0.11800
N 	N 	0.06243 0.31957 0.66777 -0.14700
C 	C 	0.97563 0.28517 0.74147 0.01000
H 	H 	0.94223 0.28587 0.74847 0.00200
C 	C 	0.07923 0.25647 0.09377 -0.02700
H 	H 	0.08693 0.26797 0.15427 0.01300
C 	C 	0.01433 0.32067 0.68107 -0.02100
H 	H 	0.00783 0.34597 0.64847 0.02600
C 	C 	0.03833 0.20707 0.82967 -0.26700
H 	H 	0.06813 0.20277 0.80227 0.09300
H 	H 	0.00403 0.17067 0.82767 0.08500
Ag	Ag	0.38632 0.25692 0.42770 0.52900
N 	N 	0.41090 0.19710 0.37460 -0.15600
C 	C 	0.38240 0.11840 0.04940 -0.05700
H 	H 	0.38330 0.15260 0.04310 0.03200
C 	C 	0.41830 0.11510 0.10890 0.11200
C 	C 	0.42590 0.19770 0.29030 -0.05900
H 	H 	0.42540 0.22380 0.25050 0.03500
N 	N 	0.44260 0.12320 0.31020 -0.17100
C 	C 	0.42600 0.12070 0.39230 0.02000
H 	H 	0.42480 0.09290 0.43010 0.01400
N 	N 	0.41680 0.06710 0.12370 -0.18500
C 	C 	0.44210 0.16150 0.25810 0.11800
N 	N 	0.34710 0.07620 0.00110 -0.14600
C 	C 	0.38150 0.02380 0.07480 0.01200
H 	H 	0.38080 0.98970 0.08180 0.00100
C 	C 	0.41020 0.15610 0.42710 -0.02700
H 	H 	0.39870 0.15230 0.48760 0.01300
C 	C 	0.34600 0.02700 0.01440 -0.02200
H 	H 	0.32070 0.99520 0.98180 0.02700
C 	C 	0.45960 0.16460 0.16300 -0.26700
H 	H 	0.46390 0.19870 0.13560 0.09300
H 	H 	0.49600 0.16670 0.16100 0.08400
Ag	Ag	0.05299 0.59025 0.76103 0.52900
N 	N 	0.07757 0.53043 0.70793 -0.15600
C 	C 	0.04907 0.45173 0.38273 -0.05700
H 	H 	0.04997 0.48593 0.37643 0.03200
C 	C 	0.08497 0.44843 0.44223 0.11200
C 	C 	0.09257 0.53103 0.62363 -0.05900
H 	H 	0.09207 0.55713 0.58383 0.03400
N 	N 	0.10927 0.45653 0.64353 -0.17100
C 	C 	0.09267 0.45403 0.72563 0.02000
H 	H 	0.09147 0.42623 0.76343 0.01400
N 	N 	0.08347 0.40043 0.45703 -0.18500
C 	C 	0.10877 0.49483 0.59143 0.11800
N 	N 	0.01377 0.40953 0.33443 -0.14700
C 	C 	0.04817 0.35713 0.40813 0.01100
H 	H 	0.04747 0.32303 0.41513 0.00200
C 	C 	0.07687 0.48943 0.76043 -0.02700
H 	H 	0.06537 0.48563 0.82093 0.01400
C 	C 	0.01267 0.36033 0.34773 -0.02200
H 	H 	0.98737 0.32853 0.31513 0.02700
C 	C 	0.12627 0.49793 0.49633 -0.26700
H 	H 	0.13057 0.53203 0.46893 0.09300
H 	H 	0.16267 0.50003 0.49433 0.08400
Ag	Ag	0.71965 0.92359 0.09437 0.52900
N 	N 	0.74423 0.86377 0.04127 -0.15600
C 	C 	0.71573 0.78507 0.71607 -0.05700
H 	H 	0.71663 0.81927 0.70977 0.03200
C 	C 	0.75163 0.78177 0.77557 0.11200
C 	C 	0.75923 0.86437 0.95697 -0.05900
H 	H 	0.75873 0.89047 0.91717 0.03500
N 	N 	0.77593 0.78987 0.97687 -0.17100
C 	C 	0.75933 0.78737 0.05897 0.02000
H 	H 	0.75813 0.75957 0.09677 0.01400
N 	N 	0.75013 0.73377 0.79037 -0.18500
C 	C 	0.77543 0.82817 0.92477 0.11800
N 	N 	0.68043 0.74287 0.66777 -0.14700
C 	C 	0.71483 0.69047 0.74147 0.01100
H 	H 	0.71413 0.65637 0.74847 0.00200
C 	C 	0.74353 0.82277 0.09377 -0.02700
H 	H 	0.73203 0.81897 0.15427 0.01300
C 	C 	0.67933 0.69367 0.68107 -0.02200
H 	H 	0.65403 0.66187 0.64847 0.02600
C 	C 	0.79293 0.83127 0.82967 -0.26700
H 	H 	0.79723 0.86537 0.80227 0.09300
H 	H 	0.82933 0.83337 0.82767 0.08400
Ag	Ag	0.25692 0.87060 0.57230 0.52900
N 	N 	0.19710 0.78620 0.62540 -0.15600
C 	C 	0.11840 0.73600 0.95060 -0.05700
H 	H 	0.15260 0.76930 0.95690 0.03200
C 	C 	0.11510 0.69680 0.89110 0.11200
C 	C 	0.19770 0.77180 0.70970 -0.05900
H 	H 	0.22380 0.79840 0.74950 0.03500
N 	N 	0.12320 0.68060 0.68980 -0.17100
C 	C 	0.12070 0.69470 0.60770 0.02000
H 	H 	0.09290 0.66810 0.56990 0.01400
N 	N 	0.06710 0.65030 0.87630 -0.18500
C 	C 	0.16150 0.71940 0.74190 0.11800
N 	N 	0.07620 0.72910 0.99890 -0.14600
C 	C 	0.02380 0.64230 0.92520 0.01200
H 	H 	0.98970 0.60890 0.91820 0.00100
C 	C 	0.15610 0.74590 0.57290 -0.02700
H 	H 	0.15230 0.75360 0.51240 0.01300
C 	C 	0.02700 0.68100 0.98560 -0.02200
H 	H 	0.99520 0.67450 0.01820 0.02600
C 	C 	0.16460 0.70500 0.83700 -0.26700
H 	H 	0.19870 0.73480 0.86440 0.09300
H 	H 	0.16670 0.67070 0.83900 0.08400
Ag	Ag	0.92359 0.20393 0.90563 0.52900
N 	N 	0.86377 0.11953 0.95873 -0.15600
C 	C 	0.78507 0.06933 0.28393 -0.05700
H 	H 	0.81927 0.10263 0.29023 0.03200
C 	C 	0.78177 0.03013 0.22443 0.11200
C 	C 	0.86437 0.10513 0.04303 -0.05800
H 	H 	0.89047 0.13173 0.08283 0.03400
N 	N 	0.78987 0.01393 0.02313 -0.17100
C 	C 	0.78737 0.02803 0.94103 0.01900
H 	H 	0.75957 0.00143 0.90323 0.01400
N 	N 	0.73377 0.98363 0.20963 -0.18500
C 	C 	0.82817 0.05273 0.07523 0.11800
N 	N 	0.74287 0.06243 0.33223 -0.14700
C 	C 	0.69047 0.97563 0.25853 0.01000
H 	H 	0.65637 0.94223 0.25153 0.00200
C 	C 	0.82277 0.07923 0.90623 -0.02600
H 	H 	0.81897 0.08693 0.84573 0.01300
C 	C 	0.69367 0.01433 0.31893 -0.02100
H 	H 	0.66187 0.00783 0.35153 0.02600
C 	C 	0.83127 0.03833 0.17033 -0.26700
H 	H 	0.86537 0.06813 0.19773 0.09300
H 	H 	0.83337 0.00403 0.17233 0.08500
Ag	Ag	0.59025 0.53727 0.23897 0.52900
N 	N 	0.53043 0.45287 0.29207 -0.15600
C 	C 	0.45173 0.40267 0.61727 -0.05700
H 	H 	0.48593 0.43597 0.62357 0.03200
C 	C 	0.44843 0.36347 0.55777 0.11200
C 	C 	0.53103 0.43847 0.37637 -0.05900
H 	H 	0.55713 0.46507 0.41617 0.03500
N 	N 	0.45653 0.34727 0.35647 -0.17100
C 	C 	0.45403 0.36137 0.27437 0.02000
H 	H 	0.42623 0.33477 0.23657 0.01400
N 	N 	0.40043 0.31697 0.54297 -0.18500
C 	C 	0.49483 0.38607 0.40857 0.11800
N 	N 	0.40953 0.39577 0.66557 -0.14700
C 	C 	0.35713 0.30897 0.59187 0.01100
H 	H 	0.32303 0.27557 0.58487 0.00200
C 	C 	0.48943 0.41257 0.23957 -0.02700
H 	H 	0.48563 0.42027 0.17907 0.01300
C 	C 	0.36033 0.34767 0.65227 -0.02200
H 	H 	0.32853 0.34117 0.68487 0.02600
C 	C 	0.49793 0.37167 0.50367 -0.26700
H 	H 	0.53203 0.40147 0.53107 0.09300
H 	H 	0.50003 0.33737 0.50567 0.08400
Ag	Ag	0.12940 0.38632 0.57230 0.52900
N 	N 	0.21380 0.41090 0.62540 -0.15600
C 	C 	0.26400 0.38240 0.95060 -0.05700
H 	H 	0.23070 0.38330 0.95690 0.03200
C 	C 	0.30320 0.41830 0.89110 0.11200
C 	C 	0.22820 0.42590 0.70970 -0.05900
H 	H 	0.20160 0.42540 0.74950 0.03500
N 	N 	0.31940 0.44260 0.68980 -0.17100
C 	C 	0.30530 0.42600 0.60770 0.02000
H 	H 	0.33190 0.42480 0.56990 0.01400
N 	N 	0.34970 0.41680 0.87630 -0.18500
C 	C 	0.28060 0.44210 0.74190 0.11800
N 	N 	0.27090 0.34710 0.99890 -0.14700
C 	C 	0.35770 0.38150 0.92520 0.01100
H 	H 	0.39110 0.38080 0.91820 0.00200
C 	C 	0.25410 0.41020 0.57290 -0.02700
H 	H 	0.24640 0.39870 0.51240 0.01400
C 	C 	0.31900 0.34600 0.98560 -0.02200
H 	H 	0.32550 0.32070 0.01820 0.02600
C 	C 	0.29500 0.45960 0.83700 -0.26700
H 	H 	0.26520 0.46390 0.86440 0.09300
H 	H 	0.32930 0.49600 0.83900 0.08400
Ag	Ag	0.79607 0.71965 0.90563 0.52900
N 	N 	0.88047 0.74423 0.95873 -0.15600
C 	C 	0.93067 0.71573 0.28393 -0.05700
H 	H 	0.89737 0.71663 0.29023 0.03200
C 	C 	0.96987 0.75163 0.22443 0.11200
C 	C 	0.89487 0.75923 0.04303 -0.05900
H 	H 	0.86827 0.75873 0.08283 0.03400
N 	N 	0.98607 0.77593 0.02313 -0.17100
C 	C 	0.97197 0.75933 0.94103 0.02000
H 	H 	0.99857 0.75813 0.90323 0.01400
N 	N 	0.01637 0.75013 0.20963 -0.18500
C 	C 	0.94727 0.77543 0.07523 0.11800
N 	N 	0.93757 0.68043 0.33223 -0.14700
C 	C 	0.02437 0.71483 0.25853 0.01000
H 	H 	0.05777 0.71413 0.25153 0.00200
C 	C 	0.92077 0.74353 0.90623 -0.02700
H 	H 	0.91307 0.73203 0.84573 0.01300
C 	C 	0.98567 0.67933 0.31893 -0.02100
H 	H 	0.99217 0.65403 0.35153 0.02600
C 	C 	0.96167 0.79293 0.17033 -0.26700
H 	H 	0.93187 0.79723 0.19773 0.09300
H 	H 	0.99597 0.82933 0.17233 0.08500
Ag	Ag	0.46273 0.05299 0.23897 0.52900
N 	N 	0.54713 0.07757 0.29207 -0.15600
C 	C 	0.59733 0.04907 0.61727 -0.05700
H 	H 	0.56403 0.04997 0.62357 0.03200
C 	C 	0.63653 0.08497 0.55777 0.11200
C 	C 	0.56153 0.09257 0.37637 -0.05900
H 	H 	0.53493 0.09207 0.41617 0.03500
N 	N 	0.65273 0.10927 0.35647 -0.17100
C 	C 	0.63863 0.09267 0.27437 0.02000
H 	H 	0.66523 0.09147 0.23657 0.01400
N 	N 	0.68303 0.08347 0.54297 -0.18500
C 	C 	0.61393 0.10877 0.40857 0.11800
N 	N 	0.60423 0.01377 0.66557 -0.14700
C 	C 	0.69103 0.04817 0.59187 0.01100
H 	H 	0.72443 0.04747 0.58487 0.00200
C 	C 	0.58743 0.07687 0.23957 -0.02700
H 	H 	0.57973 0.06537 0.17907 0.01400
C 	C 	0.65233 0.01267 0.65227 -0.02200
H 	H 	0.65883 0.98737 0.68487 0.02700
C 	C 	0.62833 0.12627 0.50367 -0.26700
H 	H 	0.59853 0.13057 0.53107 0.09300
H 	H 	0.66263 0.16267 0.50567 0.08400
Ag	Ag	0.61368 0.74308 0.57230 0.52900
N 	N 	0.58910 0.80290 0.62540 -0.15600
C 	C 	0.61760 0.88160 0.95060 -0.05700
H 	H 	0.61670 0.84740 0.95690 0.03200
C 	C 	0.58170 0.88490 0.89110 0.11200
C 	C 	0.57410 0.80230 0.70970 -0.05900
H 	H 	0.57460 0.77620 0.74950 0.03500
N 	N 	0.55740 0.87680 0.68980 -0.17100
C 	C 	0.57400 0.87930 0.60770 0.02000
H 	H 	0.57520 0.90710 0.56990 0.01400
N 	N 	0.58320 0.93290 0.87630 -0.18500
C 	C 	0.55790 0.83850 0.74190 0.11800
N 	N 	0.65290 0.92380 0.99890 -0.14600
C 	C 	0.61850 0.97620 0.92520 0.01200
H 	H 	0.61920 0.01030 0.91820 0.00100
C 	C 	0.58980 0.84390 0.57290 -0.02700
H 	H 	0.60130 0.84770 0.51240 0.01300
C 	C 	0.65400 0.97300 0.98560 -0.02200
H 	H 	0.67930 0.00480 0.01820 0.02700
C 	C 	0.54040 0.83540 0.83700 -0.26700
H 	H 	0.53610 0.80130 0.86440 0.09300
H 	H 	0.50400 0.83330 0.83900 0.08400
Ag	Ag	0.28035 0.07641 0.90563 0.52900
N 	N 	0.25577 0.13623 0.95873 -0.15600
C 	C 	0.28427 0.21493 0.28393 -0.05700
H 	H 	0.28337 0.18073 0.29023 0.03200
C 	C 	0.24837 0.21823 0.22443 0.11200
C 	C 	0.24077 0.13563 0.04303 -0.05900
H 	H 	0.24127 0.10953 0.08283 0.03500
N 	N 	0.22407 0.21013 0.02313 -0.17100
C 	C 	0.24067 0.21263 0.94103 0.02000
H 	H 	0.24187 0.24043 0.90323 0.01400
N 	N 	0.24987 0.26623 0.20963 -0.18500
C 	C 	0.22457 0.17183 0.07523 0.11800
N 	N 	0.31957 0.25713 0.33223 -0.14700
C 	C 	0.28517 0.30953 0.25853 0.01100
H 	H 	0.28587 0.34363 0.25153 0.00200
C 	C 	0.25647 0.17723 0.90623 -0.02700
H 	H 	0.26797 0.18103 0.84573 0.01300
C 	C 	0.32067 0.30633 0.31893 -0.02200
H 	H 	0.34597 0.33813 0.35153 0.02600
C 	C 	0.20707 0.16873 0.17033 -0.26700
H 	H 	0.20277 0.13463 0.19773 0.09300
H 	H 	0.17067 0.16663 0.17233 0.08400
Ag	Ag	0.94701 0.40975 0.23897 0.52900
N 	N 	0.92243 0.46957 0.29207 -0.15600
C 	C 	0.95093 0.54827 0.61727 -0.05700
H 	H 	0.95003 0.51407 0.62357 0.03200
C 	C 	0.91503 0.55157 0.55777 0.11200
C 	C 	0.90743 0.46897 0.37637 -0.05900
H 	H 	0.90793 0.44287 0.41617 0.03400
N 	N 	0.89073 0.54347 0.35647 -0.17100
C 	C 	0.90733 0.54597 0.27437 0.02000
H 	H 	0.90853 0.57377 0.23657 0.01400
N 	N 	0.91653 0.59957 0.54297 -0.18500
C 	C 	0.89123 0.50517 0.40857 0.11800
N 	N 	0.98623 0.59047 0.66557 -0.14700
C 	C 	0.95183 0.64287 0.59187 0.01100
H 	H 	0.95253 0.67697 0.58487 0.00200
C 	C 	0.92313 0.51057 0.23957 -0.02700
H 	H 	0.93463 0.51437 0.17907 0.01400
C 	C 	0.98733 0.63967 0.65227 -0.02200
H 	H 	0.01263 0.67147 0.68487 0.02700
C 	C 	0.87373 0.50207 0.50367 -0.26700
H 	H 	0.86943 0.46797 0.53107 0.09300
H 	H 	0.83733 0.49997 0.50567 0.08400
