data_crystal

_cell_length_a 21.35000
_cell_length_b 8.58100
_cell_length_c 20.54000
_cell_angle_alpha 90.00000
_cell_angle_beta  118.10700
_cell_angle_gamma 90.00000

_symmetry_space_group_name_	'P 1'
_symmetry_space_group_name_H-M	'P 1'

loop_
_symmetry_equiv_pos_as_xyz
  x,y,z

loop_
_atom_site_label
_atom_site_type_symbol
_atom_site_fract_x
_atom_site_fract_y
_atom_site_fract_z
_atom_site_charge
O 	O 	0.16500 0.07770 0.95030 -0.37000
O 	O 	0.43420 0.02900 0.39100 -0.46300
O 	O 	0.06390 0.03970 0.95450 -0.28300
O 	O 	0.37120 0.94880 0.27770 -0.23200
O 	O 	0.41400 0.02070 0.51670 -0.46800
O 	O 	0.33190 0.91530 0.53780 -0.37800
N 	N 	0.28980 0.75260 0.31560 -0.07900
N 	N 	0.26890 0.76870 0.41020 -0.20900
C 	C 	0.24380 0.76520 0.17880 0.24800
C 	C 	0.32460 0.86440 0.42310 -0.06100
C 	C 	0.36050 0.93790 0.49780 0.42100
C 	C 	0.23140 0.85600 0.06330 0.19600
H 	H 	0.24910 0.86430 0.02990 -0.03400
C 	C 	0.33770 0.85610 0.36290 -0.03600
C 	C 	0.17940 0.82630 0.16180 -0.27000
H 	H 	0.16090 0.81390 0.19450 0.14700
C 	C 	0.12940 0.02090 0.97950 0.41400
C 	C 	0.25080 0.70220 0.34650 0.09600
H 	H 	0.21490 0.62830 0.32510 0.02200
C 	C 	0.16700 0.92390 0.04720 -0.26500
C 	C 	0.38580 0.94710 0.34330 0.39600
C 	C 	0.26920 0.77740 0.12770 -0.27100
H 	H 	0.31220 0.73140 0.13770 0.14700
C 	C 	0.14030 0.90750 0.09590 0.19000
H 	H 	0.09640 0.95020 0.08520 -0.02700
C 	C 	0.28760 0.67920 0.25000 -0.22900
H 	H 	0.26870 0.57460 0.24540 0.11600
H 	H 	0.33580 0.67000 0.25740 0.12100
O 	O 	0.66500 0.57770 0.95030 -0.36200
O 	O 	0.93420 0.52900 0.39100 -0.36400
O 	O 	0.56390 0.53970 0.95450 -0.24700
O 	O 	0.87120 0.44880 0.27770 -0.22500
O 	O 	0.91400 0.52070 0.51670 -0.37000
O 	O 	0.83190 0.41530 0.53780 -0.37300
N 	N 	0.78980 0.25260 0.31560 -0.08400
N 	N 	0.76890 0.26870 0.41020 -0.21500
C 	C 	0.74380 0.26520 0.17880 0.26000
C 	C 	0.82460 0.36440 0.42310 -0.05900
C 	C 	0.86050 0.43790 0.49780 0.34300
C 	C 	0.73140 0.35600 0.06330 0.23900
H 	H 	0.74910 0.36430 0.02990 -0.06500
C 	C 	0.83770 0.35610 0.36290 -0.03200
C 	C 	0.67940 0.32630 0.16180 -0.31000
H 	H 	0.66090 0.31390 0.19450 0.15400
C 	C 	0.62940 0.52090 0.97950 0.47500
C 	C 	0.75080 0.20220 0.34650 0.08600
H 	H 	0.71490 0.12830 0.32510 0.00900
C 	C 	0.66700 0.42390 0.04720 -0.34900
C 	C 	0.88580 0.44710 0.34330 0.31800
C 	C 	0.76920 0.27740 0.12770 -0.31300
H 	H 	0.81220 0.23140 0.13770 0.15400
C 	C 	0.64030 0.40750 0.09590 0.23000
H 	H 	0.59640 0.45020 0.08520 -0.04600
C 	C 	0.78760 0.17920 0.25000 -0.23300
H 	H 	0.76870 0.07460 0.24540 0.09700
H 	H 	0.83580 0.17000 0.25740 0.11700
O 	O 	0.83500 0.07770 0.54970 -0.36100
O 	O 	0.56580 0.02900 0.10900 -0.47900
O 	O 	0.93610 0.03970 0.54550 -0.22400
O 	O 	0.62880 0.94880 0.22230 -0.23600
O 	O 	0.58600 0.02070 0.98330 -0.32300
O 	O 	0.66810 0.91530 0.96220 -0.25100
N 	N 	0.71020 0.75260 0.18440 -0.08100
N 	N 	0.73110 0.76870 0.08980 -0.22500
C 	C 	0.75620 0.76520 0.32120 0.16500
C 	C 	0.67540 0.86440 0.07690 -0.01000
C 	C 	0.63950 0.93790 0.00220 0.18100
C 	C 	0.76860 0.85600 0.43670 0.05900
H 	H 	0.75090 0.86430 0.47010 0.04600
C 	C 	0.66230 0.85610 0.13710 -0.06700
C 	C 	0.82060 0.82630 0.33820 -0.15700
H 	H 	0.83910 0.81390 0.30550 0.12100
C 	C 	0.87060 0.02090 0.52050 0.26600
C 	C 	0.74920 0.70220 0.15350 0.09800
H 	H 	0.78510 0.62830 0.17490 0.02800
C 	C 	0.83300 0.92390 0.45280 -0.06100
C 	C 	0.61420 0.94710 0.15670 0.40600
C 	C 	0.73080 0.77740 0.37230 -0.15400
H 	H 	0.68780 0.73140 0.36230 0.11300
C 	C 	0.85970 0.90750 0.40410 0.05800
H 	H 	0.90360 0.95020 0.41480 0.06600
C 	C 	0.71240 0.67920 0.25000 -0.18300
H 	H 	0.73130 0.57460 0.25460 0.10200
H 	H 	0.66420 0.67000 0.24260 0.10800
O 	O 	0.33500 0.57770 0.54970 -0.36800
O 	O 	0.06580 0.52900 0.10900 -0.43900
O 	O 	0.43610 0.53970 0.54550 -0.24800
O 	O 	0.12880 0.44880 0.22230 -0.25600
O 	O 	0.08600 0.52070 0.98330 -0.26800
O 	O 	0.16810 0.41530 0.96220 -0.25400
N 	N 	0.21020 0.25260 0.18440 -0.08700
N 	N 	0.23110 0.26870 0.08980 -0.23300
C 	C 	0.25620 0.26520 0.32120 0.17900
C 	C 	0.17540 0.36440 0.07690 -0.01100
C 	C 	0.13950 0.43790 0.00220 0.09600
C 	C 	0.26860 0.35600 0.43670 0.11200
H 	H 	0.25090 0.36430 0.47010 0.00700
C 	C 	0.16230 0.35610 0.13710 -0.07700
C 	C 	0.32060 0.32630 0.33820 -0.20900
H 	H 	0.33910 0.31390 0.30550 0.12000
C 	C 	0.37060 0.52090 0.52050 0.34500
C 	C 	0.24920 0.20220 0.15350 0.08500
H 	H 	0.28510 0.12830 0.17490 0.01000
C 	C 	0.33300 0.42390 0.45280 -0.17100
C 	C 	0.11420 0.44710 0.15670 0.33300
C 	C 	0.23080 0.27740 0.37230 -0.20300
H 	H 	0.18780 0.23140 0.36230 0.11000
C 	C 	0.35970 0.40750 0.40410 0.11200
H 	H 	0.40360 0.45020 0.41480 0.01300
C 	C 	0.21240 0.17920 0.25000 -0.18300
H 	H 	0.23130 0.07460 0.25460 0.08000
H 	H 	0.16420 0.17000 0.24260 0.08900
O 	O 	0.83500 0.92230 0.04970 -0.35800
O 	O 	0.56580 0.97100 0.60900 -0.32800
O 	O 	0.93610 0.96030 0.04550 -0.21300
O 	O 	0.62880 0.05120 0.72230 -0.24300
O 	O 	0.58600 0.97930 0.48330 -0.33200
O 	O 	0.66810 0.08470 0.46220 -0.38400
N 	N 	0.71020 0.24740 0.68440 -0.08900
N 	N 	0.73110 0.23130 0.58980 -0.21300
C 	C 	0.75620 0.23480 0.82120 0.17200
C 	C 	0.67540 0.13560 0.57690 -0.06100
C 	C 	0.63950 0.06210 0.50220 0.27300
C 	C 	0.76860 0.14400 0.93670 0.07800
H 	H 	0.75090 0.13570 0.97010 0.03800
C 	C 	0.66230 0.14390 0.63710 -0.03200
C 	C 	0.82060 0.17370 0.83820 -0.18800
H 	H 	0.83910 0.18610 0.80550 0.11700
C 	C 	0.87060 0.97910 0.02050 0.29500
C 	C 	0.74920 0.29780 0.65350 0.08900
H 	H 	0.78510 0.37170 0.67490 0.02700
C 	C 	0.83300 0.07610 0.95280 -0.10600
C 	C 	0.61420 0.05290 0.65670 0.25000
C 	C 	0.73080 0.22260 0.87230 -0.17900
H 	H 	0.68780 0.26860 0.86230 0.12000
C 	C 	0.85970 0.09250 0.90410 0.07500
H 	H 	0.90360 0.04980 0.91480 0.04100
C 	C 	0.71240 0.32080 0.75000 -0.19300
H 	H 	0.73130 0.42540 0.75460 0.10700
H 	H 	0.66420 0.33000 0.74260 0.11100
O 	O 	0.33500 0.42230 0.04970 -0.36800
O 	O 	0.06580 0.47100 0.60900 -0.42200
O 	O 	0.43610 0.46030 0.04550 -0.25200
O 	O 	0.12880 0.55120 0.72230 -0.24900
O 	O 	0.08600 0.47930 0.48330 -0.42700
O 	O 	0.16810 0.58470 0.46220 -0.39000
N 	N 	0.21020 0.74740 0.68440 -0.08400
N 	N 	0.23110 0.73130 0.58980 -0.20700
C 	C 	0.25620 0.73480 0.82120 0.15300
C 	C 	0.17540 0.63560 0.57690 -0.06400
C 	C 	0.13950 0.56210 0.50220 0.35100
C 	C 	0.26860 0.64400 0.93670 0.02500
H 	H 	0.25090 0.63570 0.97010 0.07500
C 	C 	0.16230 0.64390 0.63710 -0.03500
C 	C 	0.32060 0.67370 0.83820 -0.14000
H 	H 	0.33910 0.68610 0.80550 0.10800
C 	C 	0.37060 0.47910 0.02050 0.22200
C 	C 	0.24920 0.79780 0.65350 0.09900
H 	H 	0.28510 0.87170 0.67490 0.04000
C 	C 	0.33300 0.57610 0.95280 -0.00700
C 	C 	0.11420 0.55290 0.65670 0.32700
C 	C 	0.23080 0.72260 0.87230 -0.12800
H 	H 	0.18780 0.76860 0.86230 0.11100
C 	C 	0.35970 0.59250 0.90410 0.02500
H 	H 	0.40360 0.54980 0.91480 0.06500
C 	C 	0.21240 0.82080 0.75000 -0.18500
H 	H 	0.23130 0.92540 0.75460 0.12400
H 	H 	0.16420 0.83000 0.74260 0.11400
O 	O 	0.16500 0.92230 0.45030 -0.38100
O 	O 	0.43420 0.97100 0.89100 -0.29700
O 	O 	0.06390 0.96030 0.45450 -0.27900
O 	O 	0.37120 0.05120 0.77770 -0.23900
O 	O 	0.41400 0.97930 0.01670 -0.46400
O 	O 	0.33190 0.08470 0.03780 -0.50200
N 	N 	0.28980 0.24740 0.81560 -0.08700
N 	N 	0.26890 0.23130 0.91020 -0.18600
C 	C 	0.24380 0.23480 0.67880 0.25300
C 	C 	0.32460 0.13560 0.92310 -0.10900
C 	C 	0.36050 0.06210 0.99780 0.51800
C 	C 	0.23140 0.14400 0.56330 0.21000
H 	H 	0.24910 0.13570 0.52990 -0.04100
C 	C 	0.33770 0.14390 0.86290 0.00200
C 	C 	0.17940 0.17370 0.66180 -0.29800
H 	H 	0.16090 0.18610 0.69450 0.14200
C 	C 	0.12940 0.97910 0.47950 0.43600
C 	C 	0.25080 0.29780 0.84650 0.08700
H 	H 	0.21490 0.37170 0.82510 0.02300
C 	C 	0.16700 0.07610 0.54720 -0.30400
C 	C 	0.38580 0.05290 0.84330 0.23800
C 	C 	0.26920 0.22260 0.62770 -0.29200
H 	H 	0.31220 0.26860 0.63770 0.15200
C 	C 	0.14030 0.09250 0.59590 0.20300
H 	H 	0.09640 0.04980 0.58520 -0.05000
C 	C 	0.28760 0.32080 0.75000 -0.23800
H 	H 	0.26870 0.42540 0.74540 0.11900
H 	H 	0.33580 0.33000 0.75740 0.12500
O 	O 	0.66500 0.42230 0.45030 -0.37400
O 	O 	0.93420 0.47100 0.89100 -0.33600
O 	O 	0.56390 0.46030 0.45450 -0.25400
O 	O 	0.87120 0.55120 0.77770 -0.21900
O 	O 	0.91400 0.47930 0.01670 -0.50100
O 	O 	0.83190 0.58470 0.03780 -0.48500
N 	N 	0.78980 0.74740 0.81560 -0.08100
N 	N 	0.76890 0.73130 0.91020 -0.18100
C 	C 	0.74380 0.73480 0.67880 0.23800
C 	C 	0.82460 0.63560 0.92310 -0.10200
C 	C 	0.86050 0.56210 0.99780 0.57600
C 	C 	0.73140 0.64400 0.56330 0.15700
H 	H 	0.74910 0.63570 0.52990 -0.00200
C 	C 	0.83770 0.64390 0.86290 0.00900
C 	C 	0.67940 0.67370 0.66180 -0.24600
H 	H 	0.66090 0.68610 0.69450 0.14300
C 	C 	0.62940 0.47910 0.47950 0.35800
C 	C 	0.75080 0.79780 0.84650 0.09900
H 	H 	0.71490 0.87170 0.82510 0.04000
C 	C 	0.66700 0.57610 0.54720 -0.19500
C 	C 	0.88580 0.55290 0.84330 0.31000
C 	C 	0.76920 0.72260 0.62770 -0.24300
H 	H 	0.81220 0.76860 0.63770 0.15500
C 	C 	0.64030 0.59250 0.59590 0.14800
H 	H 	0.59640 0.54980 0.58520 0.00200
C 	C 	0.78760 0.82080 0.75000 -0.23700
H 	H 	0.76870 0.92540 0.74540 0.14200
H 	H 	0.83580 0.83000 0.75740 0.14300
Co	Co	0.50000 0.00000 0.50000 1.14100
Co	Co	0.00000 0.50000 0.50000 1.13200
Co	Co	0.50000 0.00000 -0.00000 1.10200
Co	Co	-0.00000 0.50000 -0.00000 1.09300
Co	Co	0.25000 0.75000 0.50000 1.17500
Co	Co	0.75000 0.75000 -0.00000 1.13700
Co	Co	0.75000 0.25000 0.50000 1.16900
Co	Co	0.25000 0.25000 -0.00000 1.12800
