data_crystal

_cell_length_a 20.92000
_cell_length_b 9.43730
_cell_length_c 22.98100
_cell_angle_alpha 90.00000
_cell_angle_beta  108.73600
_cell_angle_gamma 90.00000

_symmetry_space_group_name_	'P 1'
_symmetry_space_group_name_H-M	'P 1'

loop_
_symmetry_equiv_pos_as_xyz
  x,y,z

loop_
_atom_site_label
_atom_site_type_symbol
_atom_site_fract_x
_atom_site_fract_y
_atom_site_fract_z
_atom_site_charge
Zn	Zn	0.71273 0.64295 0.76117 1.22900
C 	C 	0.82860 0.75860 0.66650 -0.13400
C 	C 	0.83690 0.62460 0.69300 -0.01000
C 	C 	0.83020 0.50670 0.65660 -0.10800
C 	C 	0.81660 0.51990 0.59490 0.05200
H 	H 	0.81330 0.43950 0.57070 0.03300
C 	C 	0.80780 0.65210 0.56810 -0.11800
H 	H 	0.79870 0.66100 0.52590 0.07500
C 	C 	0.81250 0.76970 0.60360 0.05600
H 	H 	0.80480 0.85860 0.58520 0.02000
C 	C 	0.83900 0.89160 0.70470 0.40100
C 	C 	0.85530 0.61200 0.76360 0.32400
C 	C 	0.83210 0.35700 0.68200 0.43500
C 	C 	0.65650 0.49320 0.64350 0.08100
H 	H 	0.66900 0.41220 0.66750 0.00400
C 	C 	0.62630 0.47940 0.58110 -0.12900
H 	H 	0.61940 0.38930 0.56390 0.08100
C 	C 	0.60630 0.59460 0.54390 0.05200
C 	C 	0.61830 0.72670 0.57310 -0.12600
H 	H 	0.60600 0.80910 0.55000 0.07800
C 	C 	0.64800 0.73510 0.63510 0.07500
H 	H 	0.65450 0.82390 0.65360 0.01000
C 	C 	0.51030 0.68330 0.37980 0.08000
H 	H 	0.48280 0.75620 0.35840 0.00500
C 	C 	0.53430 0.69090 0.44230 -0.14200
H 	H 	0.52340 0.76840 0.46230 0.08300
C 	C 	0.57430 0.58570 0.47600 0.06900
C 	C 	0.58780 0.47510 0.44520 -0.14100
H 	H 	0.61470 0.40070 0.46610 0.08800
C 	C 	0.56020 0.47400 0.38000 0.08600
H 	H 	0.56850 0.39510 0.35920 -0.00200
N 	N 	0.66830 0.62020 0.67040 -0.26700
N 	N 	0.52430 0.57550 0.34770 -0.26000
O 	O 	0.89470 0.91600 0.74390 -0.47100
O 	O 	0.78930 0.97200 0.69240 -0.47000
O 	O 	0.81250 0.65570 0.78740 -0.42300
O 	O 	0.91070 0.56450 0.79270 -0.25000
O 	O 	0.80710 0.33860 0.72230 -0.49000
O 	O 	0.87600 0.27300 0.67000 -0.16500
O 	O 	0.32900 0.24300 0.14740 -0.24000
Zn	Zn	0.21273 0.14295 0.76117 1.22700
C 	C 	0.32860 0.25860 0.66650 -0.13900
C 	C 	0.33690 0.12460 0.69300 -0.01300
C 	C 	0.33020 0.00670 0.65660 -0.11300
C 	C 	0.31660 0.01990 0.59490 0.05100
H 	H 	0.31330 0.93950 0.57070 0.03000
C 	C 	0.30780 0.15210 0.56810 -0.12200
H 	H 	0.29870 0.16100 0.52590 0.07500
C 	C 	0.31250 0.26970 0.60360 0.05900
H 	H 	0.30480 0.35860 0.58520 0.01900
C 	C 	0.33900 0.39160 0.70470 0.40500
C 	C 	0.35530 0.11200 0.76360 0.32600
C 	C 	0.33210 0.85700 0.68200 0.43500
C 	C 	0.15650 0.99320 0.64350 0.08400
H 	H 	0.16900 0.91220 0.66750 0.00000
C 	C 	0.12630 0.97940 0.58110 -0.14600
H 	H 	0.11940 0.88930 0.56390 0.08100
C 	C 	0.10630 0.09460 0.54390 0.07000
C 	C 	0.11830 0.22670 0.57310 -0.14200
H 	H 	0.10600 0.30910 0.55000 0.07900
C 	C 	0.14800 0.23510 0.63510 0.07700
H 	H 	0.15450 0.32390 0.65360 0.00600
C 	C 	0.01030 0.18330 0.37980 -0.06400
H 	H 	0.98280 0.25620 0.35840 0.09200
C 	C 	0.03430 0.19090 0.44230 -0.05600
H 	H 	0.02340 0.26840 0.46230 0.03700
C 	C 	0.07430 0.08570 0.47600 0.01500
C 	C 	0.08780 0.97510 0.44520 -0.10800
H 	H 	0.11470 0.90070 0.46610 0.07200
C 	C 	0.06020 0.97400 0.38000 0.05900
H 	H 	0.06850 0.89510 0.35920 0.00000
N 	N 	0.16830 0.12020 0.67040 -0.27100
N 	N 	0.02430 0.07550 0.34770 -0.24200
O 	O 	0.39470 0.41600 0.74390 -0.48800
O 	O 	0.28930 0.47200 0.69240 -0.47300
O 	O 	0.31250 0.15570 0.78740 -0.42500
O 	O 	0.41070 0.06450 0.79270 -0.26300
O 	O 	0.30710 0.83860 0.72230 -0.49200
O 	O 	0.37600 0.77300 0.67000 -0.17600
O 	O 	0.82900 0.74300 0.14740 -0.24300
Zn	Zn	0.28727 0.64295 0.73883 1.22800
C 	C 	0.17140 0.75860 0.83350 -0.14100
C 	C 	0.16310 0.62460 0.80700 -0.01500
C 	C 	0.16980 0.50670 0.84340 -0.11500
C 	C 	0.18340 0.51990 0.90510 0.05000
H 	H 	0.18670 0.43950 0.92930 0.02800
C 	C 	0.19220 0.65210 0.93190 -0.12400
H 	H 	0.20130 0.66100 0.97410 0.07500
C 	C 	0.18750 0.76970 0.89640 0.05900
H 	H 	0.19520 0.85860 0.91480 0.02000
C 	C 	0.16100 0.89160 0.79530 0.40800
C 	C 	0.14470 0.61200 0.73640 0.32800
C 	C 	0.16790 0.35700 0.81800 0.43400
C 	C 	0.34350 0.49320 0.85650 0.08100
H 	H 	0.33100 0.41220 0.83250 0.00400
C 	C 	0.37370 0.47940 0.91890 -0.12900
H 	H 	0.38060 0.38930 0.93610 0.08100
C 	C 	0.39370 0.59460 0.95610 0.05200
C 	C 	0.38170 0.72670 0.92690 -0.12600
H 	H 	0.39400 0.80910 0.95000 0.07800
C 	C 	0.35200 0.73510 0.86490 0.07500
H 	H 	0.34550 0.82390 0.84640 0.01000
C 	C 	0.48970 0.68330 0.12020 0.08000
H 	H 	0.51720 0.75620 0.14160 0.00500
C 	C 	0.46570 0.69090 0.05770 -0.14200
H 	H 	0.47660 0.76840 0.03770 0.08300
C 	C 	0.42570 0.58570 0.02400 0.06900
C 	C 	0.41220 0.47510 0.05480 -0.14100
H 	H 	0.38530 0.40070 0.03390 0.08800
C 	C 	0.43980 0.47400 0.12000 0.08600
H 	H 	0.43150 0.39510 0.14080 -0.00200
N 	N 	0.33170 0.62020 0.82960 -0.26700
N 	N 	0.47570 0.57550 0.15230 -0.26000
O 	O 	0.10530 0.91600 0.75610 -0.49700
O 	O 	0.21070 0.97200 0.80760 -0.47300
O 	O 	0.18750 0.65570 0.71260 -0.42700
O 	O 	0.08930 0.56450 0.70730 -0.27400
O 	O 	0.19290 0.33860 0.77770 -0.49400
O 	O 	0.12400 0.27300 0.83000 -0.18600
O 	O 	0.67100 0.24300 0.35260 -0.24000
Zn	Zn	0.78727 0.14295 0.73883 1.22800
C 	C 	0.67140 0.25860 0.83350 -0.13800
C 	C 	0.66310 0.12460 0.80700 -0.01400
C 	C 	0.66980 0.00670 0.84340 -0.11200
C 	C 	0.68340 0.01990 0.90510 0.04800
H 	H 	0.68670 0.93950 0.92930 0.03100
C 	C 	0.69220 0.15210 0.93190 -0.12000
H 	H 	0.70130 0.16100 0.97410 0.07400
C 	C 	0.68750 0.26970 0.89640 0.05700
H 	H 	0.69520 0.35860 0.91480 0.02000
C 	C 	0.66100 0.39160 0.79530 0.40500
C 	C 	0.64470 0.11200 0.73640 0.32600
C 	C 	0.66790 0.85700 0.81800 0.43500
C 	C 	0.84350 0.99320 0.85650 0.07800
H 	H 	0.83100 0.91220 0.83250 0.00700
C 	C 	0.87370 0.97940 0.91890 -0.10900
H 	H 	0.88060 0.88930 0.93610 0.08100
C 	C 	0.89370 0.09460 0.95610 0.03200
C 	C 	0.88170 0.22670 0.92690 -0.10800
H 	H 	0.89400 0.30910 0.95000 0.07700
C 	C 	0.85200 0.23510 0.86490 0.07200
H 	H 	0.84550 0.32390 0.84640 0.01400
C 	C 	0.98970 0.18330 0.12020 0.22500
H 	H 	0.01720 0.25620 0.14160 -0.08000
C 	C 	0.96570 0.19090 0.05770 -0.22900
H 	H 	0.97660 0.26840 0.03770 0.13000
C 	C 	0.92570 0.08570 0.02400 0.12600
C 	C 	0.91220 0.97510 0.05480 -0.17600
H 	H 	0.88530 0.90070 0.03390 0.10300
C 	C 	0.93980 0.97400 0.12000 0.11300
H 	H 	0.93150 0.89510 0.14080 -0.00200
N 	N 	0.83170 0.12020 0.82960 -0.26400
N 	N 	0.97570 0.07550 0.15230 -0.27400
O 	O 	0.60530 0.41600 0.75610 -0.48700
O 	O 	0.71070 0.47200 0.80760 -0.47200
O 	O 	0.68750 0.15570 0.71260 -0.42500
O 	O 	0.58930 0.06450 0.70730 -0.26300
O 	O 	0.69290 0.83860 0.77770 -0.49200
O 	O 	0.62400 0.77300 0.83000 -0.17600
O 	O 	0.17100 0.74300 0.35260 -0.23700
Zn	Zn	0.28727 0.35705 0.23883 1.22800
C 	C 	0.17140 0.24140 0.33350 -0.14100
C 	C 	0.16310 0.37540 0.30700 -0.01500
C 	C 	0.16980 0.49330 0.34340 -0.11500
C 	C 	0.18340 0.48010 0.40510 0.05000
H 	H 	0.18670 0.56050 0.42930 0.02800
C 	C 	0.19220 0.34790 0.43190 -0.12400
H 	H 	0.20130 0.33900 0.47410 0.07500
C 	C 	0.18750 0.23030 0.39640 0.05900
H 	H 	0.19520 0.14140 0.41480 0.02000
C 	C 	0.16100 0.10840 0.29530 0.40800
C 	C 	0.14470 0.38800 0.23640 0.32800
C 	C 	0.16790 0.64300 0.31800 0.43400
C 	C 	0.34350 0.50680 0.35650 0.08100
H 	H 	0.33100 0.58780 0.33250 0.00400
C 	C 	0.37370 0.52060 0.41890 -0.12900
H 	H 	0.38060 0.61070 0.43610 0.08100
C 	C 	0.39370 0.40540 0.45610 0.05200
C 	C 	0.38170 0.27330 0.42690 -0.12600
H 	H 	0.39400 0.19090 0.45000 0.07800
C 	C 	0.35200 0.26490 0.36490 0.07500
H 	H 	0.34550 0.17610 0.34640 0.01000
C 	C 	0.48970 0.31670 0.62020 0.08000
H 	H 	0.51720 0.24380 0.64160 0.00500
C 	C 	0.46570 0.30910 0.55770 -0.14200
H 	H 	0.47660 0.23160 0.53770 0.08300
C 	C 	0.42570 0.41430 0.52400 0.06900
C 	C 	0.41220 0.52490 0.55480 -0.14100
H 	H 	0.38530 0.59930 0.53390 0.08700
C 	C 	0.43980 0.52600 0.62000 0.08600
H 	H 	0.43150 0.60490 0.64080 -0.00200
N 	N 	0.33170 0.37980 0.32960 -0.26700
N 	N 	0.47570 0.42450 0.65230 -0.26000
O 	O 	0.10530 0.08400 0.25610 -0.49700
O 	O 	0.21070 0.02800 0.30760 -0.47300
O 	O 	0.18750 0.34430 0.21260 -0.42700
O 	O 	0.08930 0.43550 0.20730 -0.27400
O 	O 	0.19290 0.66140 0.27770 -0.49400
O 	O 	0.12400 0.72700 0.33000 -0.18600
O 	O 	0.67100 0.75700 0.85260 -0.24000
Zn	Zn	0.78727 0.85705 0.23883 1.22800
C 	C 	0.67140 0.74140 0.33350 -0.13800
C 	C 	0.66310 0.87540 0.30700 -0.01300
C 	C 	0.66980 0.99330 0.34340 -0.11300
C 	C 	0.68340 0.98010 0.40510 0.04900
H 	H 	0.68670 0.06050 0.42930 0.03000
C 	C 	0.69220 0.84790 0.43190 -0.12100
H 	H 	0.70130 0.83900 0.47410 0.07500
C 	C 	0.68750 0.73030 0.39640 0.05800
H 	H 	0.69520 0.64140 0.41480 0.02000
C 	C 	0.66100 0.60840 0.29530 0.40500
C 	C 	0.64470 0.88800 0.23640 0.32600
C 	C 	0.66790 0.14300 0.31800 0.43500
C 	C 	0.84350 0.00680 0.35650 0.07900
H 	H 	0.83100 0.08780 0.33250 0.00700
C 	C 	0.87370 0.02060 0.41890 -0.11100
H 	H 	0.88060 0.11070 0.43610 0.08200
C 	C 	0.89370 0.90540 0.45610 0.03500
C 	C 	0.88170 0.77330 0.42690 -0.11000
H 	H 	0.89400 0.69090 0.45000 0.07700
C 	C 	0.85200 0.76490 0.36490 0.07300
H 	H 	0.84550 0.67610 0.34640 0.01400
C 	C 	0.98970 0.81670 0.62020 0.22500
H 	H 	0.01720 0.74380 0.64160 -0.08000
C 	C 	0.96570 0.80910 0.55770 -0.22700
H 	H 	0.97660 0.73160 0.53770 0.12900
C 	C 	0.92570 0.91430 0.52400 0.12300
C 	C 	0.91220 0.02490 0.55480 -0.17400
H 	H 	0.88530 0.09930 0.53390 0.10300
C 	C 	0.93980 0.02600 0.62000 0.11200
H 	H 	0.93150 0.10490 0.64080 -0.00200
N 	N 	0.83170 0.87980 0.32960 -0.26400
N 	N 	0.97570 0.92450 0.65230 -0.27400
O 	O 	0.60530 0.58400 0.25610 -0.48700
O 	O 	0.71070 0.52800 0.30760 -0.47200
O 	O 	0.68750 0.84430 0.21260 -0.42500
O 	O 	0.58930 0.93550 0.20730 -0.26300
O 	O 	0.69290 0.16140 0.27770 -0.49200
O 	O 	0.62400 0.22700 0.33000 -0.17600
O 	O 	0.17100 0.25700 0.85260 -0.23700
Zn	Zn	0.71273 0.35705 0.26117 1.22800
C 	C 	0.82860 0.24140 0.16650 -0.13500
C 	C 	0.83690 0.37540 0.19300 -0.01100
C 	C 	0.83020 0.49330 0.15660 -0.10900
C 	C 	0.81660 0.48010 0.09490 0.05100
H 	H 	0.81330 0.56050 0.07070 0.03200
C 	C 	0.80780 0.34790 0.06810 -0.11900
H 	H 	0.79870 0.33900 0.02590 0.07500
C 	C 	0.81250 0.23030 0.10360 0.05600
H 	H 	0.80480 0.14140 0.08520 0.02000
C 	C 	0.83900 0.10840 0.20470 0.40100
C 	C 	0.85530 0.38800 0.26360 0.32400
C 	C 	0.83210 0.64300 0.18200 0.43500
C 	C 	0.65650 0.50680 0.14350 0.08100
H 	H 	0.66900 0.58780 0.16750 0.00300
C 	C 	0.62630 0.52060 0.08110 -0.12900
H 	H 	0.61940 0.61070 0.06390 0.08100
C 	C 	0.60630 0.40540 0.04390 0.05300
C 	C 	0.61830 0.27330 0.07310 -0.12600
H 	H 	0.60600 0.19090 0.05000 0.07800
C 	C 	0.64800 0.26490 0.13510 0.07500
H 	H 	0.65450 0.17610 0.15360 0.01000
C 	C 	0.51030 0.31670 0.87980 0.08000
H 	H 	0.48280 0.24380 0.85840 0.00500
C 	C 	0.53430 0.30910 0.94230 -0.14100
H 	H 	0.52340 0.23160 0.96230 0.08300
C 	C 	0.57430 0.41430 0.97600 0.06800
C 	C 	0.58780 0.52490 0.94520 -0.14100
H 	H 	0.61470 0.59930 0.96610 0.08700
C 	C 	0.56020 0.52600 0.88000 0.08600
H 	H 	0.56850 0.60490 0.85920 -0.00200
N 	N 	0.66830 0.37980 0.17040 -0.26700
N 	N 	0.52430 0.42450 0.84770 -0.26000
O 	O 	0.89470 0.08400 0.24390 -0.47100
O 	O 	0.78930 0.02800 0.19240 -0.47000
O 	O 	0.81250 0.34430 0.28740 -0.42300
O 	O 	0.91070 0.43550 0.29270 -0.25000
O 	O 	0.80710 0.66140 0.22230 -0.49000
O 	O 	0.87600 0.72700 0.17000 -0.16500
O 	O 	0.32900 0.75700 0.64740 -0.24000
Zn	Zn	0.21273 0.85705 0.26117 1.22700
C 	C 	0.32860 0.74140 0.16650 -0.13900
C 	C 	0.33690 0.87540 0.19300 -0.01300
C 	C 	0.33020 0.99330 0.15660 -0.11200
C 	C 	0.31660 0.98010 0.09490 0.04900
H 	H 	0.31330 0.06050 0.07070 0.03100
C 	C 	0.30780 0.84790 0.06810 -0.12100
H 	H 	0.29870 0.83900 0.02590 0.07500
C 	C 	0.31250 0.73030 0.10360 0.05800
H 	H 	0.30480 0.64140 0.08520 0.01900
C 	C 	0.33900 0.60840 0.20470 0.40500
C 	C 	0.35530 0.88800 0.26360 0.32600
C 	C 	0.33210 0.14300 0.18200 0.43500
C 	C 	0.15650 0.00680 0.14350 0.08300
H 	H 	0.16900 0.08780 0.16750 0.00000
C 	C 	0.12630 0.02060 0.08110 -0.14500
H 	H 	0.11940 0.11070 0.06390 0.08000
C 	C 	0.10630 0.90540 0.04390 0.06800
C 	C 	0.11830 0.77330 0.07310 -0.14000
H 	H 	0.10600 0.69090 0.05000 0.07800
C 	C 	0.14800 0.76490 0.13510 0.07600
H 	H 	0.15450 0.67610 0.15360 0.00600
C 	C 	0.01030 0.81670 0.87980 -0.06200
H 	H 	0.98280 0.74380 0.85840 0.09100
C 	C 	0.03430 0.80910 0.94230 -0.05900
H 	H 	0.02340 0.73160 0.96230 0.03800
C 	C 	0.07430 0.91430 0.97600 0.01800
C 	C 	0.08780 0.02490 0.94520 -0.11100
H 	H 	0.11470 0.09930 0.96610 0.07300
C 	C 	0.06020 0.02600 0.88000 0.05900
H 	H 	0.06850 0.10490 0.85920 -0.00000
N 	N 	0.16830 0.87980 0.17040 -0.27100
N 	N 	0.02430 0.92450 0.84770 -0.24200
O 	O 	0.39470 0.58400 0.24390 -0.48800
O 	O 	0.28930 0.52800 0.19240 -0.47300
O 	O 	0.31250 0.84430 0.28740 -0.42500
O 	O 	0.41070 0.93550 0.29270 -0.26300
O 	O 	0.30710 0.16140 0.22230 -0.49200
O 	O 	0.37600 0.22700 0.17000 -0.17600
O 	O 	0.82900 0.25700 0.64740 -0.24300
Zn	Zn	0.00000 0.91529 0.75000 1.16100
Zn	Zn	0.50000 0.41529 0.75000 1.17700
Zn	Zn	0.00000 0.08471 0.25000 1.16100
Zn	Zn	0.50000 0.58471 0.25000 1.17700
