data_crystal

_cell_length_a 12.43690
_cell_length_b 12.84170
_cell_length_c 13.26910
_cell_angle_alpha 99.98000
_cell_angle_beta  105.14200
_cell_angle_gamma 111.64900

_symmetry_space_group_name_	'P 1'
_symmetry_space_group_name_H-M	'P 1'

loop_
_symmetry_equiv_pos_as_xyz
  x,y,z

loop_
_atom_site_label
_atom_site_type_symbol
_atom_site_fract_x
_atom_site_fract_y
_atom_site_fract_z
_atom_site_charge
N 	N 	0.93220 0.70350 0.23220 -0.10100
N 	N 	0.91090 0.61020 0.27110 -0.09900
N 	N 	0.97040 0.58330 0.12700 -0.24100
N 	N 	0.71970 0.86960 0.67310 -0.10000
N 	N 	0.73860 0.84490 0.57970 -0.10100
N 	N 	0.61200 0.93060 0.56330 -0.24500
N 	N 	0.30790 0.49520 0.20540 -0.09800
N 	N 	0.22280 0.41510 0.23310 -0.10700
N 	N 	0.12990 0.47510 0.10390 -0.25900
N 	N 	0.76890 0.31540 0.51980 -0.10400
N 	N 	0.77980 0.34040 0.62450 -0.09200
N 	N 	0.64400 0.15570 0.53500 -0.25700
C 	C 	0.93430 0.54070 0.20530 0.10000
H 	H 	0.92670 0.46750 0.21140 -0.01400
C 	C 	0.96800 0.68650 0.14770 0.09600
H 	H 	0.98850 0.73960 0.10850 -0.02100
C 	C 	0.90990 0.80140 0.27920 0.00600
H 	H 	0.82410 0.77190 0.27400 0.02600
H 	H 	0.92300 0.85590 0.23640 0.03100
C 	C 	0.99120 0.86630 0.39630 -0.17500
H 	H 	0.07720 0.89620 0.40220 0.07300
H 	H 	0.97760 0.81270 0.43990 0.09300
C 	C 	0.96490 0.96780 0.44080 0.09600
H 	H 	0.98360 0.02310 0.39940 -0.00400
H 	H 	0.87710 0.93780 0.42860 0.00500
C 	C 	0.67290 0.88160 0.51560 0.09600
H 	H 	0.66790 0.87490 0.44340 -0.02000
C 	C 	0.64570 0.92000 0.66160 0.10400
H 	H 	0.61980 0.94550 0.71680 -0.01900
C 	C 	0.78410 0.84720 0.77030 -0.02200
H 	H 	0.82180 0.79700 0.74940 0.05100
H 	H 	0.72510 0.80670 0.80190 0.04300
C 	C 	0.88310 0.96150 0.85440 -0.15600
H 	H 	0.84560 0.01330 0.87120 0.06600
H 	H 	0.94410 0.99960 0.82350 0.09400
C 	C 	0.94760 0.94320 0.95960 0.06900
H 	H 	0.88760 0.91020 0.99320 0.02800
H 	H 	0.98020 0.88720 0.94220 0.02400
C 	C 	0.11850 0.40640 0.17050 0.09600
H 	H 	0.04230 0.35700 0.17140 -0.03500
C 	C 	0.24990 0.52860 0.12810 0.09100
H 	H 	0.28880 0.58250 0.09550 -0.03300
C 	C 	0.44210 0.56430 0.28670 -0.08300
H 	H 	0.49310 0.61590 0.25510 0.04200
H 	H 	0.44500 0.61130 0.35380 0.06000
C 	C 	0.48550 0.47540 0.30830 -0.00300
H 	H 	0.47850 0.42600 0.24040 0.01400
H 	H 	0.43630 0.42610 0.34250 0.02500
C 	C 	0.62240 0.54220 0.38550 -0.18200
H 	H 	0.67140 0.59260 0.35190 0.08200
H 	H 	0.62940 0.59050 0.45400 0.08600
C 	C 	0.66470 0.45470 0.40470 0.01300
H 	H 	0.65360 0.40620 0.33460 0.02100
H 	H 	0.61240 0.40450 0.43620 0.02900
C 	C 	0.79680 0.50080 0.47810 -0.18800
H 	H 	0.80580 0.53660 0.55230 0.09800
H 	H 	0.84920 0.56100 0.45440 0.08900
C 	C 	0.83810 0.40480 0.47670 0.00400
H 	H 	0.82720 0.36800 0.40220 0.02800
H 	H 	0.92550 0.43850 0.52020 0.04100
C 	C 	0.70330 0.23980 0.62920 0.10500
H 	H 	0.69200 0.22890 0.69380 -0.02500
C 	C 	0.68840 0.20640 0.46940 0.11000
H 	H 	0.66590 0.16970 0.39530 -0.03300
C 	C 	0.44030 0.49970 0.23100 0.01400
C 	C 	0.49230 0.54700 0.35640 -0.05000
H 	H 	0.43620 0.42230 0.20570 0.00900
H 	H 	0.48890 0.55240 0.19870 0.00600
H 	H 	0.43950 0.49770 0.38810 0.03900
H 	H 	0.50230 0.62680 0.38130 0.00800
N 	N 	0.06780 0.29650 0.76780 -0.09600
N 	N 	0.08910 0.38980 0.72890 -0.10300
N 	N 	0.02960 0.41670 0.87300 -0.23600
N 	N 	0.28030 0.13040 0.32690 -0.09600
N 	N 	0.26140 0.15510 0.42030 -0.10700
N 	N 	0.38800 0.06940 0.43670 -0.25200
N 	N 	0.69210 0.50480 0.79460 -0.09600
N 	N 	0.77720 0.58490 0.76690 -0.10300
N 	N 	0.87010 0.52490 0.89610 -0.23200
N 	N 	0.23110 0.68460 0.48020 -0.10600
N 	N 	0.22020 0.65960 0.37550 -0.09900
N 	N 	0.35600 0.84430 0.46500 -0.25100
C 	C 	0.06570 0.45930 0.79470 0.09800
H 	H 	0.07330 0.53250 0.78860 -0.01700
C 	C 	0.03200 0.31350 0.85230 0.09300
H 	H 	0.01150 0.26040 0.89150 -0.01600
C 	C 	0.09010 0.19860 0.72080 -0.05500
H 	H 	0.17590 0.22810 0.72600 0.04800
H 	H 	0.07700 0.14410 0.76360 0.03600
C 	C 	0.00880 0.13370 0.60370 -0.07700
H 	H 	0.92280 0.10380 0.59780 0.06700
H 	H 	0.02240 0.18730 0.56010 0.05000
C 	C 	0.03510 0.03220 0.55920 -0.25400
H 	H 	0.01640 0.97690 0.60060 0.10200
H 	H 	0.12290 0.06220 0.57140 0.09300
C 	C 	0.32710 0.11840 0.48440 0.08800
H 	H 	0.33210 0.12510 0.55660 -0.02600
C 	C 	0.35430 0.08000 0.33840 0.09500
H 	H 	0.38020 0.05450 0.28320 -0.03300
C 	C 	0.21590 0.15280 0.22970 -0.08600
H 	H 	0.17820 0.20300 0.25060 0.06300
H 	H 	0.27490 0.19330 0.19810 0.05200
C 	C 	0.11690 0.03850 0.14560 -0.04600
H 	H 	0.15440 0.98670 0.12880 0.03700
H 	H 	0.05590 0.00040 0.17650 0.02400
C 	C 	0.05240 0.05680 0.04040 -0.25600
H 	H 	0.11240 0.08980 0.00680 0.07300
H 	H 	0.01980 0.11280 0.05780 0.07700
C 	C 	0.88150 0.59360 0.82950 0.10500
H 	H 	0.95770 0.64300 0.82860 -0.00900
C 	C 	0.75010 0.47140 0.87190 0.10000
H 	H 	0.71120 0.41750 0.90450 -0.01500
C 	C 	0.55790 0.43570 0.71330 -0.07100
H 	H 	0.50690 0.38410 0.74490 0.03900
H 	H 	0.55500 0.38870 0.64620 0.05700
C 	C 	0.51450 0.52460 0.69170 -0.02000
H 	H 	0.52150 0.57400 0.75960 0.02000
H 	H 	0.56370 0.57390 0.65750 0.03200
C 	C 	0.37760 0.45780 0.61450 -0.16600
H 	H 	0.32860 0.40740 0.64810 0.07800
H 	H 	0.37060 0.40950 0.54600 0.08000
C 	C 	0.33530 0.54530 0.59530 -0.00400
H 	H 	0.34640 0.59380 0.66540 0.03200
H 	H 	0.38760 0.59550 0.56380 0.03500
C 	C 	0.20320 0.49920 0.52190 -0.17600
H 	H 	0.19420 0.46340 0.44770 0.08900
H 	H 	0.15080 0.43900 0.54560 0.07900
C 	C 	0.16190 0.59520 0.52330 0.00300
H 	H 	0.17280 0.63200 0.59780 0.02500
H 	H 	0.07450 0.56150 0.47980 0.02300
C 	C 	0.29670 0.76020 0.37080 0.10300
H 	H 	0.30800 0.77110 0.30620 -0.02800
C 	C 	0.31160 0.79360 0.53060 0.10600
H 	H 	0.33410 0.83030 0.60470 -0.02400
C 	C 	0.55970 0.50030 0.76900 0.00600
C 	C 	0.50770 0.45300 0.64360 -0.04100
H 	H 	0.56380 0.57770 0.79430 0.02000
H 	H 	0.51110 0.44760 0.80130 0.01800
H 	H 	0.56050 0.50230 0.61190 0.03600
H 	H 	0.49770 0.37320 0.61870 0.00600
Cu	Cu	-0.00000 0.50000 -0.00000 0.82100
Cu	Cu	0.50000 -0.00000 0.50000 0.84400
