data_crystal

_cell_length_a 7.17820
_cell_length_b 15.44410
_cell_length_c 15.44410
_cell_angle_alpha 119.44800
_cell_angle_beta  90.00000
_cell_angle_gamma 90.00000

_symmetry_space_group_name_	'P 1'
_symmetry_space_group_name_H-M	'P 1'

loop_
_symmetry_equiv_pos_as_xyz
  x,y,z

loop_
_atom_site_label
_atom_site_type_symbol
_atom_site_fract_x
_atom_site_fract_y
_atom_site_fract_z
_atom_site_charge
Yb	Yb	0.76860 0.36640 0.36640 1.56400
Yb	Yb	0.26860 0.63360 0.63360 1.57700
Na	Na	0.77480 0.67950 0.67950 0.58600
Na	Na	0.27480 0.32050 0.32050 0.59300
H 	H 	0.81380 0.31070 0.02430 -0.06900
H 	H 	0.29170 0.30530 0.11070 -0.04900
H 	H 	0.70410 0.30130 0.88030 0.17300
H 	H 	0.16880 0.29920 0.96640 0.17200
H 	H 	0.45730 0.19430 0.63510 0.12800
H 	H 	0.42450 0.47270 0.89090 0.11600
H 	H 	0.53820 0.27630 0.54930 -0.01000
H 	H 	0.51760 0.54230 0.79170 -0.00400
H 	H 	0.31380 0.68930 0.97570 -0.02900
H 	H 	0.79170 0.69470 0.88930 -0.02600
H 	H 	0.20410 0.69870 0.11970 0.14500
H 	H 	0.66880 0.70080 0.03360 0.13300
H 	H 	0.95730 0.80570 0.36490 0.16400
H 	H 	0.92450 0.52730 0.10910 0.14700
H 	H 	0.03820 0.72370 0.45070 -0.04900
H 	H 	0.01760 0.45770 0.20830 -0.03600
H 	H 	0.31380 0.97570 0.68930 -0.02900
H 	H 	0.79170 0.88930 0.69470 -0.02600
H 	H 	0.20410 0.11970 0.69870 0.14500
H 	H 	0.66880 0.03360 0.70080 0.13300
H 	H 	0.95730 0.36490 0.80570 0.16400
H 	H 	0.92450 0.10910 0.52730 0.14700
H 	H 	0.03820 0.45070 0.72370 -0.04900
H 	H 	0.01760 0.20830 0.45770 -0.03600
H 	H 	0.81380 0.02430 0.31070 -0.06900
H 	H 	0.29170 0.11070 0.30530 -0.04900
H 	H 	0.70410 0.88030 0.30130 0.17300
H 	H 	0.16880 0.96640 0.29920 0.17200
H 	H 	0.45730 0.63510 0.19430 0.12800
H 	H 	0.42450 0.89090 0.47270 0.11600
H 	H 	0.53820 0.54930 0.27630 -0.01000
H 	H 	0.51760 0.79170 0.54230 -0.00400
C 	C 	0.63390 0.31870 0.17670 0.69100
C 	C 	0.56630 0.31320 0.08740 -0.38700
C 	C 	0.68590 0.30910 0.01410 0.28500
C 	C 	0.37400 0.30640 0.06480 0.24500
C 	C 	0.62100 0.30300 0.92740 -0.36700
C 	C 	0.29600 0.30130 0.97810 -0.31900
C 	C 	0.43200 0.29950 0.91170 0.32400
C 	C 	0.44600 0.32520 0.76880 0.23600
C 	C 	0.47090 0.26290 0.66650 -0.23600
C 	C 	0.45200 0.43430 0.82350 -0.22200
C 	C 	0.51700 0.31270 0.61750 0.14100
C 	C 	0.50400 0.47370 0.76330 0.12400
C 	C 	0.53500 0.41580 0.66480 -0.19000
C 	C 	0.59070 0.46390 0.60090 0.37900
C 	C 	0.13390 0.68130 0.82330 0.64000
C 	C 	0.06630 0.68680 0.91260 -0.27800
C 	C 	0.18590 0.69090 0.98590 0.20800
C 	C 	0.87400 0.69360 0.93520 0.13700
C 	C 	0.12100 0.69700 0.07260 -0.25300
C 	C 	0.79600 0.69870 0.02190 -0.25000
C 	C 	0.93200 0.70050 0.08830 0.23100
C 	C 	0.94600 0.67480 0.23120 0.29300
C 	C 	0.97090 0.73710 0.33350 -0.37900
C 	C 	0.95200 0.56570 0.17650 -0.34900
C 	C 	0.01700 0.68730 0.38250 0.28900
C 	C 	0.00400 0.52630 0.23670 0.26200
C 	C 	0.03500 0.58420 0.33520 -0.27100
C 	C 	0.09070 0.53610 0.39910 0.41300
C 	C 	0.13390 0.82330 0.68130 0.64000
C 	C 	0.06630 0.91260 0.68680 -0.27800
C 	C 	0.18590 0.98590 0.69090 0.20800
C 	C 	0.87400 0.93520 0.69360 0.13700
C 	C 	0.12100 0.07260 0.69700 -0.25300
C 	C 	0.79600 0.02190 0.69870 -0.25000
C 	C 	0.93200 0.08830 0.70050 0.23100
C 	C 	0.94600 0.23120 0.67480 0.29300
C 	C 	0.97090 0.33350 0.73710 -0.37900
C 	C 	0.95200 0.17650 0.56570 -0.34900
C 	C 	0.01700 0.38250 0.68730 0.28900
C 	C 	0.00400 0.23670 0.52630 0.26200
C 	C 	0.03500 0.33520 0.58420 -0.27100
C 	C 	0.09070 0.39910 0.53610 0.41300
C 	C 	0.63390 0.17670 0.31870 0.69100
C 	C 	0.56630 0.08740 0.31320 -0.38700
C 	C 	0.68590 0.01410 0.30910 0.28500
C 	C 	0.37400 0.06480 0.30640 0.24500
C 	C 	0.62100 0.92740 0.30300 -0.36700
C 	C 	0.29600 0.97810 0.30130 -0.31900
C 	C 	0.43200 0.91170 0.29950 0.32400
C 	C 	0.44600 0.76880 0.32520 0.23600
C 	C 	0.47090 0.66650 0.26290 -0.23600
C 	C 	0.45200 0.82350 0.43430 -0.22200
C 	C 	0.51700 0.61750 0.31270 0.14100
C 	C 	0.50400 0.76330 0.47370 0.12400
C 	C 	0.53500 0.66480 0.41580 -0.19000
C 	C 	0.59070 0.60090 0.46390 0.37900
O 	O 	0.77500 0.31200 0.19140 -0.57100
O 	O 	0.52920 0.33410 0.24770 -0.52000
O 	O 	0.35180 0.27930 0.81850 -0.28100
O 	O 	0.66860 0.41350 0.52090 -0.45800
O 	O 	0.54620 0.56060 0.64060 -0.43700
O 	O 	0.27500 0.68800 0.80860 -0.53900
O 	O 	0.02920 0.66590 0.75230 -0.49300
O 	O 	0.85180 0.72070 0.18150 -0.28700
O 	O 	0.16860 0.58650 0.47910 -0.45300
O 	O 	0.04620 0.43940 0.35940 -0.42400
O 	O 	0.27500 0.80860 0.68800 -0.53900
O 	O 	0.02920 0.75230 0.66590 -0.49300
O 	O 	0.85180 0.18150 0.72070 -0.28700
O 	O 	0.16860 0.47910 0.58650 -0.45300
O 	O 	0.04620 0.35940 0.43940 -0.42400
O 	O 	0.77500 0.19140 0.31200 -0.57100
O 	O 	0.52920 0.24770 0.33410 -0.52000
O 	O 	0.35180 0.81850 0.27930 -0.28100
O 	O 	0.66860 0.52090 0.41350 -0.45800
O 	O 	0.54620 0.64060 0.56060 -0.43700
