data_crystal

_cell_length_a 9.10910
_cell_length_b 15.23240
_cell_length_c 15.58700
_cell_angle_alpha 102.77100
_cell_angle_beta  95.33500
_cell_angle_gamma 104.33000

_symmetry_space_group_name_	'P 1'
_symmetry_space_group_name_H-M	'P 1'

loop_
_symmetry_equiv_pos_as_xyz
  x,y,z

loop_
_atom_site_label
_atom_site_type_symbol
_atom_site_fract_x
_atom_site_fract_y
_atom_site_fract_z
_atom_site_charge
Co	Co	0.50805 0.25374 0.28367 1.15900
Cr	Cr	0.17441 0.34802 0.30495 1.45200
O 	O 	0.31460 0.29910 0.29150 -0.73300
N 	N 	0.64500 0.39520 0.29760 -0.24800
C 	C 	0.58910 0.45440 0.26080 0.08600
H 	H 	0.48370 0.43540 0.23570 -0.06100
Cr	Cr	0.85997 0.17628 0.28251 1.45300
N 	N 	0.53930 0.26970 0.42410 -0.25800
C 	C 	0.67640 0.54110 0.25740 -0.19700
H 	H 	0.63090 0.57980 0.22980 0.08800
N 	N 	0.37170 0.11180 0.27130 -0.25200
C 	C 	0.83040 0.57210 0.29410 0.11900
O 	O 	0.01990 0.27070 0.33670 -0.84700
N 	N 	0.47410 0.23680 0.14190 -0.25800
C 	C 	0.88920 0.51160 0.33240 -0.19700
H 	H 	0.99470 0.52820 0.35690 0.03500
C 	C 	0.79090 0.42560 0.33440 0.05700
H 	H 	0.83170 0.38670 0.36420 -0.05000
C 	C 	0.92720 0.66530 0.29060 -0.12100
O 	O 	0.70690 0.21360 0.27820 -0.73400
C 	C 	0.98420 0.73710 0.36810 0.08100
C 	C 	0.07240 0.82540 0.36220 0.06000
C 	C 	0.09890 0.83930 0.27950 -0.11400
C 	C 	0.04160 0.76740 0.20170 0.06700
C 	C 	0.95370 0.67930 0.20680 0.07400
C 	C 	0.95020 0.72220 0.45750 -0.40800
H 	H 	0.86870 0.66380 0.44890 0.12800
H 	H 	0.91690 0.77480 0.49000 0.11700
H 	H 	0.04300 0.71820 0.49190 0.11300
C 	C 	0.13170 0.90250 0.44750 -0.38700
H 	H 	0.21990 0.94970 0.43860 0.12700
H 	H 	0.16300 0.87580 0.49550 0.09900
H 	H 	0.05030 0.93190 0.46350 0.10600
C 	C 	0.06960 0.78550 0.11080 -0.40400
H 	H 	0.97280 0.76180 0.06930 0.11400
H 	H 	0.14390 0.75320 0.08760 0.12300
H 	H 	0.11010 0.85290 0.11750 0.12400
C 	C 	0.89290 0.60060 0.12280 -0.40900
H 	H 	0.89880 0.54120 0.13550 0.12000
H 	H 	0.95470 0.61300 0.07640 0.11600
H 	H 	0.78590 0.59660 0.10230 0.13100
C 	C 	0.19290 0.93280 0.27510 0.11800
C 	C 	0.14220 0.01200 0.29620 -0.19100
H 	H 	0.04200 0.00650 0.31090 0.03200
C 	C 	0.23400 0.09900 0.29640 0.07200
H 	H 	0.19710 0.15210 0.31520 -0.07100
C 	C 	0.33860 0.94770 0.25030 -0.20400
H 	H 	0.38060 0.89640 0.23380 0.09200
C 	C 	0.42170 0.03590 0.24930 0.10600
H 	H 	0.52040 0.04320 0.23200 -0.07000
C 	C 	0.49610 0.33570 0.47920 0.09400
H 	H 	0.47010 0.38370 0.45630 -0.06500
C 	C 	0.48690 0.33830 0.56760 -0.21600
H 	H 	0.45640 0.38750 0.60370 0.07900
C 	C 	0.52160 0.27020 0.60360 0.14000
C 	C 	0.57380 0.20410 0.54720 -0.20900
H 	H 	0.60660 0.15770 0.56950 0.09100
C 	C 	0.57820 0.20530 0.46000 0.10600
H 	H 	0.61080 0.15770 0.42300 -0.06000
C 	C 	0.50590 0.26600 0.69670 -0.12000
C 	C 	0.39410 0.19190 0.71280 0.09300
C 	C 	0.38300 0.18600 0.80060 0.04800
C 	C 	0.47990 0.25450 0.87130 -0.11200
C 	C 	0.58960 0.33040 0.85500 0.07200
C 	C 	0.60570 0.33460 0.76790 0.05900
C 	C 	0.28530 0.11960 0.63690 -0.43900
H 	H 	0.31360 0.06060 0.62830 0.12000
H 	H 	0.29090 0.14140 0.58240 0.14700
H 	H 	0.18050 0.10960 0.65050 0.13700
C 	C 	0.26760 0.10460 0.81870 -0.33800
H 	H 	0.16750 0.11770 0.81840 0.10400
H 	H 	0.30150 0.09600 0.87710 0.09500
H 	H 	0.25900 0.04760 0.77250 0.05000
C 	C 	0.73100 0.41200 0.75040 -0.34600
H 	H 	0.69550 0.46830 0.75460 0.05100
H 	H 	0.75560 0.39160 0.69060 0.10000
H 	H 	0.82280 0.42600 0.79470 0.09700
C 	C 	0.68650 0.40880 0.93290 -0.41900
H 	H 	0.79520 0.41240 0.93210 0.12100
H 	H 	0.65790 0.39600 0.98890 0.13600
H 	H 	0.66870 0.46840 0.92790 0.12500
C 	C 	0.47390 0.24630 0.96450 0.12700
C 	C 	0.36910 0.27500 0.01510 -0.20900
H 	H 	0.29470 0.29960 0.98940 0.07200
C 	C 	0.37060 0.26870 0.10100 0.11000
H 	H 	0.29520 0.28770 0.13300 -0.08600
C 	C 	0.57580 0.20850 0.00560 -0.20700
H 	H 	0.64770 0.18490 0.97380 0.07100
C 	C 	0.57210 0.20530 0.09380 0.09800
H 	H 	0.64300 0.17940 0.12100 -0.07800
Co	Co	0.49195 0.74626 0.71633 1.16000
Cr	Cr	0.82559 0.65198 0.69505 1.45300
O 	O 	0.68540 0.70090 0.70850 -0.73200
N 	N 	0.35500 0.60480 0.70240 -0.24700
C 	C 	0.41090 0.54560 0.73920 0.08700
H 	H 	0.51630 0.56460 0.76430 -0.06000
Cr	Cr	0.14003 0.82372 0.71749 1.45400
N 	N 	0.46070 0.73030 0.57590 -0.25700
C 	C 	0.32360 0.45890 0.74260 -0.19600
H 	H 	0.36910 0.42020 0.77020 0.08900
N 	N 	0.62830 0.88820 0.72870 -0.25100
C 	C 	0.16960 0.42790 0.70590 0.12000
O 	O 	0.98010 0.72930 0.66330 -0.84700
N 	N 	0.52590 0.76320 0.85810 -0.25800
C 	C 	0.11080 0.48840 0.66760 -0.19700
H 	H 	0.00530 0.47180 0.64310 0.03500
C 	C 	0.20910 0.57440 0.66560 0.05700
H 	H 	0.16830 0.61330 0.63580 -0.05000
C 	C 	0.07280 0.33470 0.70940 -0.12100
O 	O 	0.29310 0.78640 0.72180 -0.73400
C 	C 	0.01580 0.26290 0.63190 0.08100
C 	C 	0.92760 0.17460 0.63780 0.06000
C 	C 	0.90110 0.16070 0.72050 -0.11400
C 	C 	0.95840 0.23260 0.79830 0.06700
C 	C 	0.04630 0.32070 0.79320 0.07400
C 	C 	0.04980 0.27780 0.54250 -0.40800
H 	H 	0.13130 0.33620 0.55110 0.12800
H 	H 	0.08310 0.22520 0.51000 0.11700
H 	H 	0.95700 0.28180 0.50810 0.11300
C 	C 	0.86830 0.09750 0.55250 -0.38700
H 	H 	0.78010 0.05030 0.56140 0.12700
H 	H 	0.83700 0.12420 0.50450 0.09900
H 	H 	0.94970 0.06810 0.53650 0.10600
C 	C 	0.93040 0.21450 0.88920 -0.40400
H 	H 	0.02720 0.23820 0.93070 0.11400
H 	H 	0.85610 0.24680 0.91240 0.12300
H 	H 	0.88990 0.14710 0.88250 0.12400
C 	C 	0.10710 0.39940 0.87720 -0.40900
H 	H 	0.10120 0.45880 0.86450 0.12000
H 	H 	0.04530 0.38700 0.92360 0.11600
H 	H 	0.21410 0.40340 0.89770 0.13100
C 	C 	0.80710 0.06720 0.72490 0.11800
C 	C 	0.85780 0.98800 0.70380 -0.19100
H 	H 	0.95800 0.99350 0.68910 0.03200
C 	C 	0.76600 0.90100 0.70360 0.07200
H 	H 	0.80290 0.84790 0.68480 -0.07100
C 	C 	0.66140 0.05230 0.74970 -0.20400
H 	H 	0.61940 0.10360 0.76620 0.09200
C 	C 	0.57830 0.96410 0.75070 0.10600
H 	H 	0.47960 0.95680 0.76800 -0.07000
C 	C 	0.50390 0.66430 0.52080 0.09400
H 	H 	0.52990 0.61630 0.54370 -0.06500
C 	C 	0.51310 0.66170 0.43240 -0.21600
H 	H 	0.54360 0.61250 0.39630 0.07900
C 	C 	0.47840 0.72980 0.39640 0.14000
C 	C 	0.42620 0.79590 0.45280 -0.20900
H 	H 	0.39340 0.84230 0.43050 0.09100
C 	C 	0.42180 0.79470 0.54000 0.10600
H 	H 	0.38920 0.84230 0.57700 -0.06000
C 	C 	0.49410 0.73400 0.30330 -0.12000
C 	C 	0.60590 0.80810 0.28720 0.09300
C 	C 	0.61700 0.81400 0.19940 0.04800
C 	C 	0.52010 0.74550 0.12870 -0.11200
C 	C 	0.41040 0.66960 0.14500 0.07200
C 	C 	0.39430 0.66540 0.23210 0.05900
C 	C 	0.71470 0.88040 0.36310 -0.43900
H 	H 	0.68640 0.93940 0.37170 0.12000
H 	H 	0.70910 0.85860 0.41760 0.14700
H 	H 	0.81950 0.89040 0.34950 0.13700
C 	C 	0.73240 0.89540 0.18130 -0.33800
H 	H 	0.83250 0.88230 0.18160 0.10400
H 	H 	0.69850 0.90400 0.12290 0.09500
H 	H 	0.74100 0.95240 0.22750 0.05000
C 	C 	0.26900 0.58800 0.24960 -0.34600
H 	H 	0.30450 0.53170 0.24540 0.05100
H 	H 	0.24440 0.60840 0.30940 0.10000
H 	H 	0.17720 0.57400 0.20530 0.09700
C 	C 	0.31350 0.59120 0.06710 -0.41900
H 	H 	0.20480 0.58760 0.06790 0.12100
H 	H 	0.34210 0.60400 0.01110 0.13600
H 	H 	0.33130 0.53160 0.07210 0.12500
C 	C 	0.52610 0.75370 0.03550 0.12700
C 	C 	0.63090 0.72500 0.98490 -0.20900
H 	H 	0.70530 0.70040 0.01060 0.07200
C 	C 	0.62940 0.73130 0.89900 0.11000
H 	H 	0.70480 0.71230 0.86700 -0.08600
C 	C 	0.42420 0.79150 0.99440 -0.20700
H 	H 	0.35230 0.81510 0.02620 0.07100
C 	C 	0.42790 0.79470 0.90620 0.09800
H 	H 	0.35700 0.82060 0.87900 -0.07800
