data_crystal

_cell_length_a 24.32260
_cell_length_b 18.46170
_cell_length_c 8.87680
_cell_angle_alpha 90.00000
_cell_angle_beta  108.49300
_cell_angle_gamma 90.00000

_symmetry_space_group_name_	'P 1'
_symmetry_space_group_name_H-M	'P 1'

loop_
_symmetry_equiv_pos_as_xyz
  x,y,z

loop_
_atom_site_label
_atom_site_type_symbol
_atom_site_fract_x
_atom_site_fract_y
_atom_site_fract_z
_atom_site_charge
O 	O 	0.46390 0.78350 0.92910 -0.74000
N 	N 	0.43940 0.70220 0.62440 -0.24000
N 	N 	0.56260 0.86070 0.87470 -0.25000
C 	C 	0.41370 0.65600 0.69500 0.08200
C 	C 	0.42020 0.70510 0.46490 0.07500
Cr	Cr	0.55656 0.79404 0.41660 1.46000
C 	C 	0.36770 0.61290 0.61230 -0.16600
H 	H 	0.42751 0.65245 0.80759 -0.03500
H 	H 	0.43828 0.73776 0.41242 -0.06500
C 	C 	0.37540 0.66250 0.37450 -0.16300
H 	H 	0.35040 0.58050 0.66718 0.07600
C 	C 	0.34670 0.61750 0.44500 0.08500
H 	H 	0.36440 0.66460 0.26190 0.03700
C 	C 	0.29590 0.57420 0.35000 -0.03200
C 	C 	0.29510 0.49940 0.37760 -0.14200
C 	C 	0.24930 0.60600 0.23580 0.05900
H 	H 	0.32675 0.47825 0.45781 0.06600
C 	C 	0.24970 0.45490 0.29160 0.16200
C 	C 	0.20360 0.56150 0.15000 -0.04900
C 	C 	0.24350 0.68800 0.20670 -0.35200
C 	C 	0.20360 0.48750 0.17420 -0.10200
C 	C 	0.25170 0.37580 0.32370 -0.48300
H 	H 	0.17135 0.58278 0.07226 -0.00900
H 	H 	0.25325 0.71340 0.30879 0.11000
H 	H 	0.20353 0.69959 0.14317 0.06600
H 	H 	0.26996 0.70347 0.14955 0.09100
C 	C 	0.15470 0.44400 0.07440 0.10200
H 	H 	0.21504 0.36044 0.33743 0.13200
H 	H 	0.28371 0.36527 0.42075 0.13700
H 	H 	0.25772 0.34966 0.23418 0.14800
C 	C 	0.09710 0.45580 0.07200 -0.19600
C 	C 	0.16380 0.39190 0.97340 -0.18200
C 	C 	0.05270 0.41250 0.96950 0.04600
H 	H 	0.08828 0.49184 0.13731 0.05100
C 	C 	0.11890 0.35300 0.87660 0.07000
H 	H 	0.20205 0.38306 0.97133 0.08200
H 	H 	0.01395 0.42049 0.96762 -0.06800
H 	H 	0.12700 0.31871 0.80662 -0.04100
O 	O 	0.96390 0.28350 0.92910 -0.73000
N 	N 	0.93940 0.20220 0.62440 -0.23500
N 	N 	0.06260 0.36070 0.87470 -0.25100
C 	C 	0.91370 0.15600 0.69500 0.08300
C 	C 	0.92020 0.20510 0.46490 0.07600
Cr	Cr	0.05656 0.29404 0.41660 1.46000
C 	C 	0.86770 0.11290 0.61230 -0.16400
H 	H 	0.92751 0.15245 0.80759 -0.03200
H 	H 	0.93828 0.23776 0.41242 -0.06000
C 	C 	0.87540 0.16250 0.37450 -0.16100
H 	H 	0.85040 0.08050 0.66718 0.07600
C 	C 	0.84670 0.11750 0.44500 0.08400
H 	H 	0.86440 0.16460 0.26190 0.03800
C 	C 	0.79590 0.07420 0.35000 -0.03000
C 	C 	0.79510 0.99940 0.37760 -0.14400
C 	C 	0.74930 0.10600 0.23580 0.05800
H 	H 	0.82675 0.97825 0.45781 0.06800
C 	C 	0.74970 0.95490 0.29160 0.16300
C 	C 	0.70360 0.06150 0.15000 -0.04800
C 	C 	0.74350 0.18800 0.20670 -0.35100
C 	C 	0.70360 0.98750 0.17420 -0.10300
C 	C 	0.75170 0.87580 0.32370 -0.48500
H 	H 	0.67135 0.08278 0.07226 -0.00900
H 	H 	0.75325 0.21340 0.30879 0.11000
H 	H 	0.70353 0.19959 0.14317 0.06600
H 	H 	0.76996 0.20347 0.14955 0.09100
C 	C 	0.65470 0.94400 0.07440 0.10100
H 	H 	0.71504 0.86044 0.33743 0.13200
H 	H 	0.78371 0.86527 0.42075 0.13800
H 	H 	0.75772 0.84966 0.23418 0.14800
C 	C 	0.59710 0.95580 0.07200 -0.19800
C 	C 	0.66380 0.89190 0.97340 -0.17900
C 	C 	0.55270 0.91250 0.96950 0.04900
H 	H 	0.58828 0.99184 0.13731 0.05300
C 	C 	0.61890 0.85300 0.87660 0.07000
H 	H 	0.70205 0.88306 0.97133 0.08200
H 	H 	0.51395 0.92049 0.96762 -0.06300
H 	H 	0.62700 0.81871 0.80662 -0.04100
O 	O 	0.53610 0.78350 0.57090 -0.73900
N 	N 	0.56060 0.70220 0.87560 -0.23900
N 	N 	0.43740 0.86070 0.62530 -0.24900
C 	C 	0.58630 0.65600 0.80500 0.08300
C 	C 	0.57980 0.70510 0.03510 0.07600
Cr	Cr	0.44344 0.79404 0.08340 1.46200
C 	C 	0.63230 0.61290 0.88770 -0.16600
H 	H 	0.57249 0.65245 0.69241 -0.03500
H 	H 	0.56172 0.73776 0.08758 -0.06500
C 	C 	0.62460 0.66250 0.12550 -0.16300
H 	H 	0.64960 0.58050 0.83282 0.07600
C 	C 	0.65330 0.61750 0.05500 0.08500
H 	H 	0.63560 0.66460 0.23810 0.03700
C 	C 	0.70410 0.57420 0.15000 -0.03200
C 	C 	0.70490 0.49940 0.12240 -0.14200
C 	C 	0.75070 0.60600 0.26420 0.05900
H 	H 	0.67325 0.47825 0.04219 0.06600
C 	C 	0.75030 0.45490 0.20840 0.16100
C 	C 	0.79640 0.56150 0.35000 -0.05000
C 	C 	0.75650 0.68800 0.29330 -0.35300
C 	C 	0.79640 0.48750 0.32580 -0.10100
C 	C 	0.74830 0.37580 0.17630 -0.48300
H 	H 	0.82865 0.58278 0.42774 -0.00800
H 	H 	0.74675 0.71340 0.19121 0.11000
H 	H 	0.79647 0.69959 0.35683 0.06700
H 	H 	0.73004 0.70347 0.35045 0.09100
C 	C 	0.84530 0.44400 0.42560 0.10100
H 	H 	0.78496 0.36044 0.16257 0.13200
H 	H 	0.71629 0.36527 0.07925 0.13700
H 	H 	0.74228 0.34966 0.26582 0.14700
C 	C 	0.90290 0.45580 0.42800 -0.19500
C 	C 	0.83620 0.39190 0.52660 -0.17900
C 	C 	0.94730 0.41250 0.53050 0.05000
H 	H 	0.91172 0.49184 0.36269 0.05500
C 	C 	0.88110 0.35300 0.62340 0.07000
H 	H 	0.79795 0.38306 0.52867 0.08200
H 	H 	0.98605 0.42049 0.53238 -0.05600
H 	H 	0.87300 0.31871 0.69338 -0.04000
O 	O 	0.03610 0.28350 0.57090 -0.74500
N 	N 	0.06060 0.20220 0.87560 -0.24300
N 	N 	0.93740 0.36070 0.62530 -0.24500
C 	C 	0.08630 0.15600 0.80500 0.08300
C 	C 	0.07980 0.20510 0.03510 0.07800
Cr	Cr	0.94344 0.29404 0.08340 1.46600
C 	C 	0.13230 0.11290 0.88770 -0.17000
H 	H 	0.07249 0.15245 0.69241 -0.03800
H 	H 	0.06172 0.23776 0.08758 -0.06800
C 	C 	0.12460 0.16250 0.12550 -0.16600
H 	H 	0.14960 0.08050 0.83282 0.07600
C 	C 	0.15330 0.11750 0.05500 0.08800
H 	H 	0.13560 0.16460 0.23810 0.03800
C 	C 	0.20410 0.07420 0.15000 -0.03200
C 	C 	0.20490 0.99940 0.12240 -0.14300
C 	C 	0.25070 0.10600 0.26420 0.05900
H 	H 	0.17325 0.97825 0.04219 0.06600
C 	C 	0.25030 0.95490 0.20840 0.16200
C 	C 	0.29640 0.06150 0.35000 -0.04900
C 	C 	0.25650 0.18800 0.29330 -0.35200
C 	C 	0.29640 0.98750 0.32580 -0.10200
C 	C 	0.24830 0.87580 0.17630 -0.48400
H 	H 	0.32865 0.08278 0.42774 -0.00900
H 	H 	0.24675 0.21340 0.19121 0.11000
H 	H 	0.29647 0.19959 0.35683 0.06600
H 	H 	0.23004 0.20347 0.35045 0.09100
C 	C 	0.34530 0.94400 0.42560 0.10100
H 	H 	0.28496 0.86044 0.16257 0.13200
H 	H 	0.21629 0.86527 0.07925 0.13700
H 	H 	0.24228 0.84966 0.26582 0.14700
C 	C 	0.40290 0.95580 0.42800 -0.19700
C 	C 	0.33620 0.89190 0.52660 -0.17900
C 	C 	0.44730 0.91250 0.53050 0.04900
H 	H 	0.41172 0.99184 0.36269 0.05300
C 	C 	0.38110 0.85300 0.62340 0.07000
H 	H 	0.29795 0.88306 0.52867 0.08200
H 	H 	0.48605 0.92049 0.53238 -0.06300
H 	H 	0.37300 0.81871 0.69338 -0.04100
Co	Co	0.50000 0.78312 0.75000 1.16400
Co	Co	-0.00000 0.28312 0.75000 1.15600
O 	O 	0.50000 0.76250 0.25000 -0.83800
O 	O 	0.00000 0.26250 0.25000 -0.84700
O 	O 	0.53610 0.21650 0.07090 -0.73900
N 	N 	0.56060 0.29780 0.37560 -0.23900
N 	N 	0.43740 0.13930 0.12530 -0.24900
C 	C 	0.58630 0.34400 0.30500 0.08300
C 	C 	0.57980 0.29490 0.53510 0.07600
Cr	Cr	0.44344 0.20596 0.58340 1.46100
C 	C 	0.63230 0.38710 0.38770 -0.16600
H 	H 	0.57249 0.34755 0.19241 -0.03500
H 	H 	0.56172 0.26224 0.58758 -0.06500
C 	C 	0.62460 0.33750 0.62550 -0.16300
H 	H 	0.64960 0.41950 0.33282 0.07600
C 	C 	0.65330 0.38250 0.55500 0.08500
H 	H 	0.63560 0.33540 0.73810 0.03700
C 	C 	0.70410 0.42580 0.65000 -0.03200
C 	C 	0.70490 0.50060 0.62240 -0.14200
C 	C 	0.75070 0.39400 0.76420 0.05900
H 	H 	0.67325 0.52175 0.54219 0.06600
C 	C 	0.75030 0.54510 0.70840 0.16100
C 	C 	0.79640 0.43850 0.85000 -0.05000
C 	C 	0.75650 0.31200 0.79330 -0.35300
C 	C 	0.79640 0.51250 0.82580 -0.10100
C 	C 	0.74830 0.62420 0.67630 -0.48300
H 	H 	0.82865 0.41722 0.92774 -0.00800
H 	H 	0.74675 0.28660 0.69121 0.11000
H 	H 	0.79647 0.30041 0.85683 0.06700
H 	H 	0.73004 0.29653 0.85045 0.09100
C 	C 	0.84530 0.55600 0.92560 0.10100
H 	H 	0.78496 0.63956 0.66257 0.13200
H 	H 	0.71629 0.63473 0.57925 0.13700
H 	H 	0.74228 0.65034 0.76582 0.14700
C 	C 	0.90290 0.54420 0.92800 -0.19500
C 	C 	0.83620 0.60810 0.02660 -0.17900
C 	C 	0.94730 0.58750 0.03050 0.04900
H 	H 	0.91172 0.50816 0.86269 0.05500
C 	C 	0.88110 0.64700 0.12340 0.07000
H 	H 	0.79795 0.61694 0.02867 0.08200
H 	H 	0.98605 0.57951 0.03238 -0.05600
H 	H 	0.87300 0.68129 0.19338 -0.04000
O 	O 	0.03610 0.71650 0.07090 -0.74400
N 	N 	0.06060 0.79780 0.37560 -0.24100
N 	N 	0.93740 0.63930 0.12530 -0.24500
C 	C 	0.08630 0.84400 0.30500 0.08200
C 	C 	0.07980 0.79490 0.53510 0.07500
Cr	Cr	0.94344 0.70596 0.58340 1.46600
C 	C 	0.13230 0.88710 0.38770 -0.16600
H 	H 	0.07249 0.84755 0.19241 -0.03700
H 	H 	0.06172 0.76224 0.58758 -0.06700
C 	C 	0.12460 0.83750 0.62550 -0.16300
H 	H 	0.14960 0.91950 0.33282 0.07500
C 	C 	0.15330 0.88250 0.55500 0.08400
H 	H 	0.13560 0.83540 0.73810 0.03700
C 	C 	0.20410 0.92580 0.65000 -0.03200
C 	C 	0.20490 0.00060 0.62240 -0.14300
C 	C 	0.25070 0.89400 0.76420 0.05900
H 	H 	0.17325 0.02175 0.54219 0.06500
C 	C 	0.25030 0.04510 0.70840 0.16100
C 	C 	0.29640 0.93850 0.85000 -0.04900
C 	C 	0.25650 0.81200 0.79330 -0.35200
C 	C 	0.29640 0.01250 0.82580 -0.10200
C 	C 	0.24830 0.12420 0.67630 -0.48300
H 	H 	0.32865 0.91722 0.92774 -0.00900
H 	H 	0.24675 0.78660 0.69121 0.11000
H 	H 	0.29647 0.80041 0.85683 0.06600
H 	H 	0.23004 0.79653 0.85045 0.09100
C 	C 	0.34530 0.05600 0.92560 0.10000
H 	H 	0.28496 0.13956 0.66257 0.13200
H 	H 	0.21629 0.13473 0.57925 0.13700
H 	H 	0.24228 0.15034 0.76582 0.14700
C 	C 	0.40290 0.04420 0.92800 -0.19800
C 	C 	0.33620 0.10810 0.02660 -0.17800
C 	C 	0.44730 0.08750 0.03050 0.05000
H 	H 	0.41172 0.00816 0.86269 0.05300
C 	C 	0.38110 0.14700 0.12340 0.07000
H 	H 	0.29795 0.11694 0.02867 0.08200
H 	H 	0.48605 0.07951 0.03238 -0.06300
H 	H 	0.37300 0.18129 0.19338 -0.04000
O 	O 	0.46390 0.21650 0.42910 -0.73900
N 	N 	0.43940 0.29780 0.12440 -0.23900
N 	N 	0.56260 0.13930 0.37470 -0.24900
C 	C 	0.41370 0.34400 0.19500 0.08200
C 	C 	0.42020 0.29490 0.96490 0.07400
Cr	Cr	0.55656 0.20596 0.91660 1.46100
C 	C 	0.36770 0.38710 0.11230 -0.16400
H 	H 	0.42751 0.34755 0.30759 -0.03500
H 	H 	0.43828 0.26224 0.91242 -0.06500
C 	C 	0.37540 0.33750 0.87450 -0.16100
H 	H 	0.35040 0.41950 0.16718 0.07500
C 	C 	0.34670 0.38250 0.94500 0.08300
H 	H 	0.36440 0.33540 0.76190 0.03700
C 	C 	0.29590 0.42580 0.85000 -0.03100
C 	C 	0.29510 0.50060 0.87760 -0.14300
C 	C 	0.24930 0.39400 0.73580 0.05800
H 	H 	0.32675 0.52175 0.95781 0.06600
C 	C 	0.24970 0.54510 0.79160 0.16100
C 	C 	0.20360 0.43850 0.65000 -0.04900
C 	C 	0.24350 0.31200 0.70670 -0.35100
C 	C 	0.20360 0.51250 0.67420 -0.10200
C 	C 	0.25170 0.62420 0.82370 -0.48300
H 	H 	0.17135 0.41722 0.57226 -0.00900
H 	H 	0.25325 0.28660 0.80879 0.10900
H 	H 	0.20353 0.30041 0.64317 0.06600
H 	H 	0.26996 0.29653 0.64955 0.09100
C 	C 	0.15470 0.55600 0.57440 0.10100
H 	H 	0.21504 0.63956 0.83743 0.13200
H 	H 	0.28371 0.63473 0.92075 0.13700
H 	H 	0.25772 0.65034 0.73418 0.14700
C 	C 	0.09710 0.54420 0.57200 -0.19800
C 	C 	0.16380 0.60810 0.47340 -0.18000
C 	C 	0.05270 0.58750 0.46950 0.04800
H 	H 	0.08828 0.50816 0.63731 0.05200
C 	C 	0.11890 0.64700 0.37660 0.07000
H 	H 	0.20205 0.61694 0.47133 0.08200
H 	H 	0.01395 0.57951 0.46762 -0.06900
H 	H 	0.12700 0.68129 0.30662 -0.04100
O 	O 	0.96390 0.71650 0.42910 -0.73000
N 	N 	0.93940 0.79780 0.12440 -0.23500
N 	N 	0.06260 0.63930 0.37470 -0.25100
C 	C 	0.91370 0.84400 0.19500 0.08300
C 	C 	0.92020 0.79490 0.96490 0.07700
Cr	Cr	0.05656 0.70596 0.91660 1.46000
C 	C 	0.86770 0.88710 0.11230 -0.16500
H 	H 	0.92751 0.84755 0.30759 -0.03200
H 	H 	0.93828 0.76224 0.91242 -0.06000
C 	C 	0.87540 0.83750 0.87450 -0.16100
H 	H 	0.85040 0.91950 0.16718 0.07600
C 	C 	0.84670 0.88250 0.94500 0.08500
H 	H 	0.86440 0.83540 0.76190 0.03800
C 	C 	0.79590 0.92580 0.85000 -0.03000
C 	C 	0.79510 0.00060 0.87760 -0.14400
C 	C 	0.74930 0.89400 0.73580 0.05800
H 	H 	0.82675 0.02175 0.95781 0.06700
C 	C 	0.74970 0.04510 0.79160 0.16300
C 	C 	0.70360 0.93850 0.65000 -0.04900
C 	C 	0.74350 0.81200 0.70670 -0.35100
C 	C 	0.70360 0.01250 0.67420 -0.10300
C 	C 	0.75170 0.12420 0.82370 -0.48400
H 	H 	0.67135 0.91722 0.57226 -0.00900
H 	H 	0.75325 0.78660 0.80879 0.11000
H 	H 	0.70353 0.80041 0.64317 0.06600
H 	H 	0.76996 0.79653 0.64955 0.09100
C 	C 	0.65470 0.05600 0.57440 0.10100
H 	H 	0.71504 0.13956 0.83743 0.13200
H 	H 	0.78371 0.13473 0.92075 0.13800
H 	H 	0.75772 0.15034 0.73418 0.14800
C 	C 	0.59710 0.04420 0.57200 -0.19700
C 	C 	0.66380 0.10810 0.47340 -0.18000
C 	C 	0.55270 0.08750 0.46950 0.04900
H 	H 	0.58828 0.00816 0.63731 0.05300
C 	C 	0.61890 0.14700 0.37660 0.07000
H 	H 	0.70205 0.11694 0.47133 0.08200
H 	H 	0.51395 0.07951 0.46762 -0.06300
H 	H 	0.62700 0.18129 0.30662 -0.04100
Co	Co	0.50000 0.21688 0.25000 1.16400
Co	Co	-0.00000 0.71688 0.25000 1.15700
O 	O 	0.50000 0.23750 0.75000 -0.83800
O 	O 	-0.00000 0.73750 0.75000 -0.84800
