data_crystal

_cell_length_a 16.70600
_cell_length_b 3.52650
_cell_length_c 11.55800
_cell_angle_alpha 90.00000
_cell_angle_beta  100.77000
_cell_angle_gamma 90.00000

_symmetry_space_group_name_	'P 1'
_symmetry_space_group_name_H-M	'P 1'

loop_
_symmetry_equiv_pos_as_xyz
  x,y,z

loop_
_atom_site_label
_atom_site_type_symbol
_atom_site_fract_x
_atom_site_fract_y
_atom_site_fract_z
_atom_site_charge
C 	C 	0.93070 0.60790 0.73680 0.07200
H 	H 	0.88390 0.68150 0.68470 -0.07300
C 	C 	0.92920 0.61520 0.85510 -0.07200
H 	H 	0.88260 0.69470 0.88120 0.02200
C 	C 	0.06740 0.58300 0.88910 -0.12200
H 	H 	0.11650 0.36210 0.93870 0.03300
C 	C 	0.06380 0.58770 0.77240 0.02800
H 	H 	0.11070 0.34490 0.74490 -0.08600
C 	C 	0.43070 0.10790 0.73680 -0.07000
H 	H 	0.38390 0.18150 0.68470 -0.03500
C 	C 	0.42920 0.11520 0.85510 -0.17900
H 	H 	0.38260 0.19470 0.88120 0.04500
C 	C 	0.56740 0.08300 0.88910 -0.02200
H 	H 	0.61650 0.86210 0.93870 0.02600
C 	C 	0.56380 0.08770 0.77240 0.07200
H 	H 	0.61070 0.84490 0.74490 -0.06900
C 	C 	0.06930 0.60790 0.26320 0.03400
H 	H 	0.11610 0.68150 0.31530 -0.06200
C 	C 	0.07080 0.61520 0.14490 -0.00300
H 	H 	0.11740 0.69470 0.11880 -0.00600
C 	C 	0.93260 0.58300 0.11090 -0.00100
H 	H 	0.88350 0.36210 0.06130 0.00100
C 	C 	0.93620 0.58770 0.22760 0.04700
H 	H 	0.88930 0.34490 0.25510 -0.08300
C 	C 	0.56930 0.10790 0.26320 -0.06800
H 	H 	0.61610 0.18150 0.31530 -0.03600
C 	C 	0.57080 0.11520 0.14490 -0.19600
H 	H 	0.61740 0.19470 0.11880 0.05800
C 	C 	0.43260 0.08300 0.11090 -0.03600
H 	H 	0.38350 0.86210 0.06130 0.03800
C 	C 	0.43620 0.08770 0.22760 0.07800
H 	H 	0.38930 0.84490 0.25510 -0.07100
C 	C 	0.06930 0.39210 0.26320 -0.00200
H 	H 	0.11610 0.31850 0.31530 -0.05500
C 	C 	0.07080 0.38480 0.14490 -0.04600
H 	H 	0.11740 0.30530 0.11880 0.00400
C 	C 	0.93260 0.41700 0.11090 0.00600
H 	H 	0.88350 0.63790 0.06130 0.00700
C 	C 	0.93620 0.41230 0.22760 0.05500
H 	H 	0.88930 0.65510 0.25510 -0.07600
C 	C 	0.56930 0.89210 0.26320 0.14500
H 	H 	0.61610 0.81850 0.31530 -0.09500
C 	C 	0.57080 0.88480 0.14490 0.06800
H 	H 	0.61740 0.80530 0.11880 -0.02000
C 	C 	0.43260 0.91700 0.11090 -0.09100
H 	H 	0.38350 0.13790 0.06130 0.01400
C 	C 	0.43620 0.91230 0.22760 0.01400
H 	H 	0.38930 0.15510 0.25510 -0.09600
C 	C 	0.93070 0.39210 0.73680 0.03500
H 	H 	0.88390 0.31850 0.68470 -0.06600
C 	C 	0.92920 0.38480 0.85510 -0.11500
H 	H 	0.88260 0.30530 0.88120 0.03100
C 	C 	0.06740 0.41700 0.88910 -0.11500
H 	H 	0.11650 0.63790 0.93870 0.03900
C 	C 	0.06380 0.41230 0.77240 0.03600
H 	H 	0.11070 0.65510 0.74490 -0.08000
C 	C 	0.43070 0.89210 0.73680 0.13700
H 	H 	0.38390 0.81850 0.68470 -0.09200
C 	C 	0.42920 0.88480 0.85510 0.07800
H 	H 	0.38260 0.80530 0.88120 -0.03200
C 	C 	0.56740 0.91700 0.88910 -0.07700
H 	H 	0.61650 0.13790 0.93870 0.00100
C 	C 	0.56380 0.91230 0.77240 0.00800
H 	H 	0.61070 0.15510 0.74490 -0.09500
N 	N 	0.99623 0.50000 0.69130 -0.22500
C 	C 	0.99954 0.50000 0.93790 0.21500
N 	N 	0.49623 0.00000 0.69130 -0.26200
C 	C 	0.49954 0.00000 0.93790 -0.00000
N 	N 	0.00377 0.50000 0.30870 -0.28500
C 	C 	0.00046 0.50000 0.06210 -0.14500
N 	N 	0.50377 0.00000 0.30870 -0.26500
C 	C 	0.50046 0.00000 0.06210 0.05700
O 	O 	0.08672 0.00000 0.52800 -0.84500
V 	V 	0.19109 0.00000 0.55887 1.72700
O 	O 	0.58672 0.50000 0.52800 -0.82500
V 	V 	0.69109 0.50000 0.55887 1.73000
O 	O 	0.91328 0.00000 0.47200 -0.80400
V 	V 	0.80891 0.00000 0.44113 1.72700
O 	O 	0.41328 0.50000 0.47200 -0.82500
V 	V 	0.30891 0.50000 0.44113 1.73000
O 	O 	0.20553 0.50000 0.51110 -0.99400
O 	O 	0.70553 0.00000 0.51110 -1.00000
O 	O 	0.79447 0.50000 0.48890 -0.99000
O 	O 	0.29447 0.00000 0.48890 -1.00100
Mn	Mn	-0.00000 0.50000 0.50000 1.23500
Mn	Mn	0.50000 0.00000 0.50000 1.25600
