data_crystal

_cell_length_a 6.94600
_cell_length_b 12.62620
_cell_length_c 12.62620
_cell_angle_alpha 97.39810
_cell_angle_beta  96.10620
_cell_angle_gamma 83.89380

_symmetry_space_group_name_	'P 1'
_symmetry_space_group_name_H-M	'P 1'

loop_
_symmetry_equiv_pos_as_xyz
  x,y,z

loop_
_atom_site_label
_atom_site_type_symbol
_atom_site_fract_x
_atom_site_fract_y
_atom_site_fract_z
_atom_site_charge
Ni	Ni	0.90606 0.32101 0.05295 0.99700
Ni	Ni	0.59394 0.05295 0.32101 0.99900
Ni	Ni	0.09394 0.67899 0.94705 0.99700
Ni	Ni	0.40606 0.94705 0.67899 0.99900
H 	H 	0.43450 0.42290 0.54870 0.16700
H 	H 	0.06550 0.54870 0.42290 0.16700
H 	H 	0.56550 0.57710 0.45130 0.16600
H 	H 	0.93450 0.45130 0.57710 0.16600
C 	C 	0.44250 0.53690 0.66690 0.20800
C 	C 	0.36240 0.36060 0.66980 0.22200
C 	C 	0.32630 0.48590 0.81350 0.19300
C 	C 	0.51860 0.70330 0.65050 0.15600
C 	C 	0.31400 0.18220 0.65320 0.14900
C 	C 	0.19760 0.44730 0.95990 0.13000
C 	C 	0.05750 0.66690 0.53690 0.20600
C 	C 	0.13760 0.66980 0.36060 0.22200
C 	C 	0.17370 0.81350 0.48590 0.19300
C 	C 	0.98140 0.65050 0.70330 0.15700
C 	C 	0.18600 0.65320 0.18220 0.15000
C 	C 	0.30240 0.95990 0.44730 0.13500
C 	C 	0.55750 0.46310 0.33310 0.20800
C 	C 	0.63760 0.63940 0.33020 0.22200
C 	C 	0.67370 0.51410 0.18650 0.19300
C 	C 	0.48140 0.29670 0.34950 0.15600
C 	C 	0.68600 0.81780 0.34680 0.14900
C 	C 	0.80240 0.55270 0.04010 0.13000
C 	C 	0.94250 0.33310 0.46310 0.20600
C 	C 	0.86240 0.33020 0.63940 0.22200
C 	C 	0.82630 0.18650 0.51410 0.19300
C 	C 	0.01860 0.34950 0.29670 0.15700
C 	C 	0.81400 0.34680 0.81780 0.15000
C 	C 	0.69760 0.04010 0.55270 0.13500
N 	N 	0.41670 0.43740 0.61560 -0.26300
N 	N 	0.39800 0.56020 0.76920 -0.20900
N 	N 	0.31220 0.38850 0.76490 -0.19700
N 	N 	0.51020 0.60330 0.60850 -0.18700
N 	N 	0.52870 0.79380 0.67820 -0.31500
N 	N 	0.34980 0.26600 0.60900 -0.18200
N 	N 	0.28390 0.10170 0.67930 -0.31100
N 	N 	0.25620 0.52120 0.90860 -0.27200
N 	N 	0.13760 0.39350 0.01230 -0.28800
N 	N 	0.08330 0.61560 0.43740 -0.26300
N 	N 	0.10200 0.76920 0.56020 -0.21000
N 	N 	0.18780 0.76490 0.38850 -0.19700
N 	N 	0.98980 0.60850 0.60330 -0.18600
N 	N 	0.97130 0.67820 0.79380 -0.31300
N 	N 	0.15020 0.60900 0.26600 -0.18200
N 	N 	0.21610 0.67930 0.10170 -0.31000
N 	N 	0.24380 0.90860 0.52120 -0.27300
N 	N 	0.36240 0.01230 0.39350 -0.29200
N 	N 	0.58330 0.56260 0.38440 -0.26300
N 	N 	0.60200 0.43980 0.23080 -0.20900
N 	N 	0.68780 0.61150 0.23510 -0.19700
N 	N 	0.48980 0.39670 0.39150 -0.18700
N 	N 	0.47130 0.20620 0.32180 -0.31500
N 	N 	0.65020 0.73400 0.39100 -0.18200
N 	N 	0.71610 0.89830 0.32070 -0.31100
N 	N 	0.74380 0.47880 0.09140 -0.27200
N 	N 	0.86240 0.60650 0.98770 -0.28800
N 	N 	0.91670 0.38440 0.56260 -0.26300
N 	N 	0.89800 0.23080 0.43980 -0.21000
N 	N 	0.81220 0.23510 0.61150 -0.19700
N 	N 	0.01020 0.39150 0.39670 -0.18600
N 	N 	0.02870 0.32180 0.20620 -0.31300
N 	N 	0.84980 0.39100 0.73400 -0.18200
N 	N 	0.78390 0.32070 0.89830 -0.31000
N 	N 	0.75620 0.09140 0.47880 -0.27300
N 	N 	0.63760 0.98770 0.60650 -0.29200
