data_crystal

_cell_length_a 6.94000
_cell_length_b 12.69810
_cell_length_c 12.69810
_cell_angle_alpha 97.43290
_cell_angle_beta  96.30230
_cell_angle_gamma 83.69770

_symmetry_space_group_name_	'P 1'
_symmetry_space_group_name_H-M	'P 1'

loop_
_symmetry_equiv_pos_as_xyz
  x,y,z

loop_
_atom_site_label
_atom_site_type_symbol
_atom_site_fract_x
_atom_site_fract_y
_atom_site_fract_z
_atom_site_charge
Co	Co	0.90870 0.32046 0.05332 1.04700
Co	Co	0.59130 0.05332 0.32046 1.04900
Co	Co	0.09130 0.67954 0.94668 1.04800
Co	Co	0.40870 0.94668 0.67954 1.05000
H 	H 	0.43010 0.42300 0.54840 0.16400
H 	H 	0.06990 0.54840 0.42300 0.16400
H 	H 	0.56990 0.57700 0.45160 0.16400
H 	H 	0.93010 0.45160 0.57700 0.16400
C 	C 	0.44380 0.53630 0.66570 0.21000
C 	C 	0.36410 0.35970 0.66910 0.20800
C 	C 	0.33120 0.48630 0.81190 0.16900
C 	C 	0.51840 0.70160 0.64980 0.15800
C 	C 	0.31410 0.18400 0.65320 0.14600
C 	C 	0.20170 0.44780 0.96000 0.12100
C 	C 	0.05620 0.66570 0.53630 0.20800
C 	C 	0.13590 0.66910 0.35970 0.20800
C 	C 	0.16880 0.81190 0.48630 0.16900
C 	C 	0.98160 0.64980 0.70160 0.16000
C 	C 	0.18590 0.65320 0.18400 0.14700
C 	C 	0.29830 0.96000 0.44780 0.12600
C 	C 	0.55620 0.46370 0.33430 0.21000
C 	C 	0.63590 0.64030 0.33090 0.20800
C 	C 	0.66880 0.51370 0.18810 0.16900
C 	C 	0.48160 0.29840 0.35020 0.15800
C 	C 	0.68590 0.81600 0.34680 0.14600
C 	C 	0.79830 0.55220 0.04000 0.12100
C 	C 	0.94380 0.33430 0.46370 0.20800
C 	C 	0.86410 0.33090 0.64030 0.20800
C 	C 	0.83120 0.18810 0.51370 0.16900
C 	C 	0.01840 0.35020 0.29840 0.16000
C 	C 	0.81410 0.34680 0.81600 0.14700
C 	C 	0.70170 0.04000 0.55220 0.12600
N 	N 	0.41550 0.43710 0.61530 -0.26100
N 	N 	0.32440 0.38250 0.77050 -0.18200
N 	N 	0.39810 0.56250 0.76590 -0.20800
N 	N 	0.50930 0.60180 0.60800 -0.18900
N 	N 	0.52850 0.79050 0.67850 -0.32500
N 	N 	0.35080 0.26630 0.60950 -0.18200
N 	N 	0.28540 0.10380 0.68140 -0.31600
N 	N 	0.25940 0.52010 0.90770 -0.27000
N 	N 	0.14490 0.39300 0.01220 -0.29400
N 	N 	0.08450 0.61530 0.43710 -0.26000
N 	N 	0.17560 0.77050 0.38250 -0.18200
N 	N 	0.10190 0.76590 0.56250 -0.20800
N 	N 	0.99070 0.60800 0.60180 -0.18800
N 	N 	0.97150 0.67850 0.79050 -0.32400
N 	N 	0.14920 0.60950 0.26630 -0.18200
N 	N 	0.21460 0.68140 0.10380 -0.31500
N 	N 	0.24060 0.90770 0.52010 -0.27100
N 	N 	0.35510 0.01220 0.39300 -0.29800
N 	N 	0.58450 0.56290 0.38470 -0.26100
N 	N 	0.67560 0.61750 0.22950 -0.18200
N 	N 	0.60190 0.43750 0.23410 -0.20800
N 	N 	0.49070 0.39820 0.39200 -0.18900
N 	N 	0.47150 0.20950 0.32150 -0.32500
N 	N 	0.64920 0.73370 0.39050 -0.18200
N 	N 	0.71460 0.89620 0.31860 -0.31600
N 	N 	0.74060 0.47990 0.09230 -0.27000
N 	N 	0.85510 0.60700 0.98780 -0.29400
N 	N 	0.91550 0.38470 0.56290 -0.26000
N 	N 	0.82440 0.22950 0.61750 -0.18200
N 	N 	0.89810 0.23410 0.43750 -0.20800
N 	N 	0.00930 0.39200 0.39820 -0.18800
N 	N 	0.02850 0.32150 0.20950 -0.32400
N 	N 	0.85080 0.39050 0.73370 -0.18200
N 	N 	0.78540 0.31860 0.89620 -0.31500
N 	N 	0.75940 0.09230 0.47990 -0.27100
N 	N 	0.64490 0.98780 0.60700 -0.29800
