data_crystal

_cell_length_a 6.94200
_cell_length_b 12.58400
_cell_length_c 12.58400
_cell_angle_alpha 95.35280
_cell_angle_beta  96.71520
_cell_angle_gamma 83.28480

_symmetry_space_group_name_	'P 1'
_symmetry_space_group_name_H-M	'P 1'

loop_
_symmetry_equiv_pos_as_xyz
  x,y,z

loop_
_atom_site_label
_atom_site_type_symbol
_atom_site_fract_x
_atom_site_fract_y
_atom_site_fract_z
_atom_site_charge
Cu	Cu	0.93301 0.31335 0.05783 0.82800
Cu	Cu	0.43301 0.94217 0.68665 0.83000
H 	H 	0.43570 0.42264 0.54936 0.16600
H 	H 	0.93570 0.45064 0.57736 0.16600
C 	C 	0.44770 0.53250 0.66790 0.21300
C 	C 	0.37660 0.35380 0.67200 0.21200
C 	C 	0.35010 0.47400 0.81720 0.17800
C 	C 	0.51700 0.70060 0.64980 0.16700
C 	C 	0.33800 0.17510 0.65590 0.16300
C 	C 	0.22100 0.43610 0.96690 0.14100
C 	C 	0.94770 0.33210 0.46750 0.21000
C 	C 	0.87660 0.32800 0.64620 0.21100
C 	C 	0.85010 0.18280 0.52600 0.17700
C 	C 	0.01700 0.35020 0.29940 0.16800
C 	C 	0.83800 0.34410 0.82490 0.16300
C 	C 	0.72100 0.03310 0.56390 0.14500
N 	N 	0.42260 0.43426 0.61674 -0.26100
N 	N 	0.34400 0.37160 0.77440 -0.18100
N 	N 	0.40960 0.55500 0.76860 -0.19200
N 	N 	0.50780 0.60210 0.60790 -0.18700
N 	N 	0.52930 0.78990 0.67790 -0.29200
N 	N 	0.36230 0.26110 0.61210 -0.18100
N 	N 	0.31700 0.09290 0.68490 -0.28800
N 	N 	0.29120 0.50520 0.91460 -0.21600
N 	N 	0.15280 0.38530 0.02130 -0.26900
N 	N 	0.92260 0.38326 0.56574 -0.26100
N 	N 	0.84400 0.22560 0.62840 -0.18100
N 	N 	0.90960 0.23140 0.44500 -0.19200
N 	N 	0.00780 0.39210 0.39790 -0.18600
N 	N 	0.02930 0.32210 0.21010 -0.29000
N 	N 	0.86230 0.38790 0.73890 -0.18100
N 	N 	0.81700 0.31510 0.90710 -0.28700
N 	N 	0.79120 0.08540 0.49480 -0.21700
N 	N 	0.65280 0.97870 0.61470 -0.27200
Cu	Cu	0.56699 0.05783 0.31335 0.82900
Cu	Cu	0.06699 0.68665 0.94217 0.82700
H 	H 	0.06430 0.54936 0.42264 0.16500
H 	H 	0.56430 0.57736 0.45064 0.16500
C 	C 	0.05230 0.66790 0.53250 0.21000
C 	C 	0.12340 0.67200 0.35380 0.21100
C 	C 	0.14990 0.81720 0.47400 0.17700
C 	C 	0.98300 0.64980 0.70060 0.16800
C 	C 	0.16200 0.65590 0.17510 0.16300
C 	C 	0.27900 0.96690 0.43610 0.14500
C 	C 	0.55230 0.46750 0.33210 0.21200
C 	C 	0.62340 0.64620 0.32800 0.21100
C 	C 	0.64990 0.52600 0.18280 0.17700
C 	C 	0.48300 0.29940 0.35020 0.16600
C 	C 	0.66200 0.82490 0.34410 0.16300
C 	C 	0.77900 0.56390 0.03310 0.14100
N 	N 	0.07740 0.61674 0.43426 -0.26100
N 	N 	0.15600 0.77440 0.37160 -0.18100
N 	N 	0.09040 0.76860 0.55500 -0.19200
N 	N 	0.99220 0.60790 0.60210 -0.18600
N 	N 	0.97070 0.67790 0.78990 -0.29000
N 	N 	0.13770 0.61210 0.26110 -0.18100
N 	N 	0.18300 0.68490 0.09290 -0.28700
N 	N 	0.20880 0.91460 0.50520 -0.21700
N 	N 	0.34720 0.02130 0.38530 -0.27200
N 	N 	0.57740 0.56574 0.38326 -0.26100
N 	N 	0.65600 0.62840 0.22560 -0.18100
N 	N 	0.59040 0.44500 0.23140 -0.19200
N 	N 	0.49220 0.39790 0.39210 -0.18700
N 	N 	0.47070 0.21010 0.32210 -0.29200
N 	N 	0.63770 0.73890 0.38790 -0.18100
N 	N 	0.68300 0.90710 0.31510 -0.28800
N 	N 	0.70880 0.49480 0.08540 -0.21600
N 	N 	0.84720 0.61470 0.97870 -0.26900
