data_crystal

_cell_length_a 15.18800
_cell_length_b 25.73000
_cell_length_c 26.94000
_cell_angle_alpha 90.00000
_cell_angle_beta  90.00000
_cell_angle_gamma 90.00000

_symmetry_space_group_name_	'P 1'
_symmetry_space_group_name_H-M	'P 1'

loop_
_symmetry_equiv_pos_as_xyz
  x,y,z

loop_
_atom_site_label
_atom_site_type_symbol
_atom_site_fract_x
_atom_site_fract_y
_atom_site_fract_z
_atom_site_charge
Tb	Tb	0.35010 0.39714 0.81634 1.77100
Tb	Tb	0.35010 0.10286 0.18366 1.77100
Tb	Tb	0.14990 0.10286 0.31634 1.77000
Tb	Tb	0.14990 0.39714 0.68366 1.77100
Tb	Tb	0.64990 0.60286 0.18366 1.77100
Tb	Tb	0.64990 0.89714 0.81634 1.77100
Tb	Tb	0.85010 0.89714 0.68366 1.76900
Tb	Tb	0.85010 0.60286 0.31634 1.77000
H 	H 	0.54330 0.63630 0.58980 0.11400
H 	H 	0.54330 0.86370 0.41020 0.11400
H 	H 	0.95670 0.86370 0.08980 0.11300
H 	H 	0.95670 0.63630 0.91020 0.11400
H 	H 	0.45670 0.36370 0.41020 0.11400
H 	H 	0.45670 0.13630 0.58980 0.11400
H 	H 	0.04330 0.13630 0.91020 0.11300
H 	H 	0.04330 0.36370 0.08980 0.11400
C 	C 	0.58880 0.62230 0.61180 0.00600
C 	C 	0.65040 0.60900 0.57120 0.01600
C 	C 	0.74350 0.61620 0.57040 0.11700
C 	C 	0.79560 0.60330 0.52880 0.17000
C 	C 	0.76080 0.58210 0.48600 -0.12000
C 	C 	0.66790 0.57520 0.48460 0.18400
C 	C 	0.61020 0.58670 0.52670 0.12000
C 	C 	0.81590 0.56820 0.44020 0.41500
C 	C 	0.52620 0.58030 0.63670 0.01800
C 	C 	0.55720 0.52860 0.64840 0.11900
C 	C 	0.49690 0.49280 0.66930 0.19800
C 	C 	0.40810 0.50400 0.68010 -0.15400
C 	C 	0.37790 0.55520 0.67070 0.19500
C 	C 	0.43960 0.59190 0.64850 0.11000
C 	C 	0.34460 0.46470 0.70340 0.51400
C 	C 	0.59770 0.67220 0.64270 0.01200
C 	C 	0.59610 0.71850 0.61450 0.10400
C 	C 	0.60490 0.76690 0.63770 0.19100
C 	C 	0.63110 0.77020 0.68880 -0.13900
C 	C 	0.62210 0.72430 0.71660 0.17900
C 	C 	0.61410 0.67560 0.69420 0.12400
C 	C 	0.65190 0.82110 0.71400 0.44400
C 	C 	0.58880 0.87770 0.38820 0.00600
C 	C 	0.65040 0.89100 0.42880 0.01600
C 	C 	0.74350 0.88380 0.42960 0.11700
C 	C 	0.79560 0.89670 0.47120 0.17000
C 	C 	0.76080 0.91790 0.51400 -0.12000
C 	C 	0.66790 0.92480 0.51540 0.18400
C 	C 	0.61020 0.91330 0.47330 0.12000
C 	C 	0.81590 0.93180 0.55980 0.41500
C 	C 	0.52620 0.91970 0.36330 0.01800
C 	C 	0.55720 0.97140 0.35160 0.11900
C 	C 	0.49690 0.00720 0.33070 0.19700
C 	C 	0.40810 0.99600 0.31990 -0.15300
C 	C 	0.37790 0.94480 0.32930 0.19500
C 	C 	0.43960 0.90810 0.35150 0.11000
C 	C 	0.34460 0.03530 0.29660 0.51300
C 	C 	0.59770 0.82780 0.35730 0.01200
C 	C 	0.59610 0.78150 0.38550 0.10400
C 	C 	0.60490 0.73310 0.36230 0.19100
C 	C 	0.63110 0.72980 0.31120 -0.13900
C 	C 	0.62210 0.77570 0.28340 0.17900
C 	C 	0.61410 0.82440 0.30580 0.12400
C 	C 	0.65190 0.67890 0.28600 0.44400
C 	C 	0.91120 0.87770 0.11180 0.00700
C 	C 	0.84960 0.89100 0.07120 0.01600
C 	C 	0.75650 0.88380 0.07040 0.11600
C 	C 	0.70440 0.89670 0.02880 0.17100
C 	C 	0.73920 0.91790 0.98600 -0.12000
C 	C 	0.83210 0.92480 0.98460 0.18300
C 	C 	0.88980 0.91330 0.02670 0.11900
C 	C 	0.68410 0.93180 0.94020 0.41500
C 	C 	0.97380 0.91970 0.13670 0.01600
C 	C 	0.94280 0.97140 0.14840 0.12000
C 	C 	0.00310 0.00720 0.16930 0.19300
C 	C 	0.09190 0.99600 0.18010 -0.15000
C 	C 	0.12210 0.94480 0.17070 0.19400
C 	C 	0.06040 0.90810 0.14850 0.11300
C 	C 	0.15540 0.03530 0.20340 0.51100
C 	C 	0.90230 0.82780 0.14270 0.01100
C 	C 	0.90390 0.78150 0.11450 0.10400
C 	C 	0.89510 0.73310 0.13770 0.19100
C 	C 	0.86890 0.72980 0.18880 -0.13900
C 	C 	0.87790 0.77570 0.21660 0.17900
C 	C 	0.88590 0.82440 0.19420 0.12400
C 	C 	0.84810 0.67890 0.21400 0.44400
C 	C 	0.91120 0.62230 0.88820 0.00600
C 	C 	0.84960 0.60900 0.92880 0.01600
C 	C 	0.75650 0.61620 0.92960 0.11700
C 	C 	0.70440 0.60330 0.97120 0.17000
C 	C 	0.73920 0.58210 0.01400 -0.12000
C 	C 	0.83210 0.57520 0.01540 0.18400
C 	C 	0.88980 0.58670 0.97330 0.11900
C 	C 	0.68410 0.56820 0.05980 0.41500
C 	C 	0.97380 0.58030 0.86330 0.01800
C 	C 	0.94280 0.52860 0.85160 0.11900
C 	C 	0.00310 0.49280 0.83070 0.19800
C 	C 	0.09190 0.50400 0.81990 -0.15400
C 	C 	0.12210 0.55520 0.82930 0.19500
C 	C 	0.06040 0.59190 0.85150 0.11100
C 	C 	0.15540 0.46470 0.79660 0.51400
C 	C 	0.90230 0.67220 0.85730 0.01100
C 	C 	0.90390 0.71850 0.88550 0.10400
C 	C 	0.89510 0.76690 0.86230 0.19100
C 	C 	0.86890 0.77020 0.81120 -0.13900
C 	C 	0.87790 0.72430 0.78340 0.17900
C 	C 	0.88590 0.67560 0.80580 0.12400
C 	C 	0.84810 0.82110 0.78600 0.44400
C 	C 	0.41120 0.37770 0.38820 0.00600
C 	C 	0.34960 0.39100 0.42880 0.01600
C 	C 	0.25650 0.38380 0.42960 0.11700
C 	C 	0.20440 0.39670 0.47120 0.17000
C 	C 	0.23920 0.41790 0.51400 -0.12000
C 	C 	0.33210 0.42480 0.51540 0.18400
C 	C 	0.38980 0.41330 0.47330 0.12000
C 	C 	0.18410 0.43180 0.55980 0.41500
C 	C 	0.47380 0.41970 0.36330 0.01800
C 	C 	0.44280 0.47140 0.35160 0.11900
C 	C 	0.50310 0.50720 0.33070 0.19800
C 	C 	0.59190 0.49600 0.31990 -0.15400
C 	C 	0.62210 0.44480 0.32930 0.19500
C 	C 	0.56040 0.40810 0.35150 0.11000
C 	C 	0.65540 0.53530 0.29660 0.51400
C 	C 	0.40230 0.32780 0.35730 0.01200
C 	C 	0.40390 0.28150 0.38550 0.10400
C 	C 	0.39510 0.23310 0.36230 0.19100
C 	C 	0.36890 0.22980 0.31120 -0.13900
C 	C 	0.37790 0.27570 0.28340 0.17900
C 	C 	0.38590 0.32440 0.30580 0.12400
C 	C 	0.34810 0.17890 0.28600 0.44400
C 	C 	0.41120 0.12230 0.61180 0.00600
C 	C 	0.34960 0.10900 0.57120 0.01600
C 	C 	0.25650 0.11620 0.57040 0.11700
C 	C 	0.20440 0.10330 0.52880 0.17000
C 	C 	0.23920 0.08210 0.48600 -0.12000
C 	C 	0.33210 0.07520 0.48460 0.18400
C 	C 	0.38980 0.08670 0.52670 0.12000
C 	C 	0.18410 0.06820 0.44020 0.41500
C 	C 	0.47380 0.08030 0.63670 0.01800
C 	C 	0.44280 0.02860 0.64840 0.11900
C 	C 	0.50310 0.99280 0.66930 0.19700
C 	C 	0.59190 0.00400 0.68010 -0.15300
C 	C 	0.62210 0.05520 0.67070 0.19500
C 	C 	0.56040 0.09190 0.64850 0.11000
C 	C 	0.65540 0.96470 0.70340 0.51300
C 	C 	0.40230 0.17220 0.64270 0.01200
C 	C 	0.40390 0.21850 0.61450 0.10400
C 	C 	0.39510 0.26690 0.63770 0.19100
C 	C 	0.36890 0.27020 0.68880 -0.13900
C 	C 	0.37790 0.22430 0.71660 0.17900
C 	C 	0.38590 0.17560 0.69420 0.12400
C 	C 	0.34810 0.32110 0.71400 0.44400
C 	C 	0.08880 0.12230 0.88820 0.00700
C 	C 	0.15040 0.10900 0.92880 0.01600
C 	C 	0.24350 0.11620 0.92960 0.11600
C 	C 	0.29560 0.10330 0.97120 0.17100
C 	C 	0.26080 0.08210 0.01400 -0.12000
C 	C 	0.16790 0.07520 0.01540 0.18300
C 	C 	0.11020 0.08670 0.97330 0.11900
C 	C 	0.31590 0.06820 0.05980 0.41500
C 	C 	0.02620 0.08030 0.86330 0.01600
C 	C 	0.05720 0.02860 0.85160 0.12000
C 	C 	0.99690 0.99280 0.83070 0.19300
C 	C 	0.90810 0.00400 0.81990 -0.15000
C 	C 	0.87790 0.05520 0.82930 0.19400
C 	C 	0.93960 0.09190 0.85150 0.11300
C 	C 	0.84460 0.96470 0.79660 0.51100
C 	C 	0.09770 0.17220 0.85730 0.01100
C 	C 	0.09610 0.21850 0.88550 0.10400
C 	C 	0.10490 0.26690 0.86230 0.19100
C 	C 	0.13110 0.27020 0.81120 -0.13900
C 	C 	0.12210 0.22430 0.78340 0.17900
C 	C 	0.11410 0.17560 0.80580 0.12400
C 	C 	0.15190 0.32110 0.78600 0.44400
C 	C 	0.08880 0.37770 0.11180 0.00600
C 	C 	0.15040 0.39100 0.07120 0.01600
C 	C 	0.24350 0.38380 0.07040 0.11700
C 	C 	0.29560 0.39670 0.02880 0.17000
C 	C 	0.26080 0.41790 0.98600 -0.12000
C 	C 	0.16790 0.42480 0.98460 0.18400
C 	C 	0.11020 0.41330 0.02670 0.11900
C 	C 	0.31590 0.43180 0.94020 0.41500
C 	C 	0.02620 0.41970 0.13670 0.01800
C 	C 	0.05720 0.47140 0.14840 0.11900
C 	C 	0.99690 0.50720 0.16930 0.19800
C 	C 	0.90810 0.49600 0.18010 -0.15400
C 	C 	0.87790 0.44480 0.17070 0.19500
C 	C 	0.93960 0.40810 0.14850 0.11100
C 	C 	0.84460 0.53530 0.20340 0.51400
C 	C 	0.09770 0.32780 0.14270 0.01100
C 	C 	0.09610 0.28150 0.11450 0.10400
C 	C 	0.10490 0.23310 0.13770 0.19100
C 	C 	0.13110 0.22980 0.18880 -0.13900
C 	C 	0.12210 0.27570 0.21660 0.17900
C 	C 	0.11410 0.32440 0.19420 0.12400
C 	C 	0.15190 0.17890 0.21400 0.44400
Cl	Cl	0.79700 0.63858 0.62418 -0.18100
Cl	Cl	0.91480 0.61430 0.52912 -0.20500
Cl	Cl	0.61550 0.54546 0.43291 -0.20600
Cl	Cl	0.49420 0.57826 0.52192 -0.17800
Cl	Cl	0.66790 0.51170 0.63600 -0.18800
Cl	Cl	0.53330 0.42992 0.67810 -0.22500
Cl	Cl	0.26640 0.57099 0.68294 -0.21900
Cl	Cl	0.39330 0.65249 0.63516 -0.19400
Cl	Cl	0.57110 0.71773 0.55161 -0.18600
Cl	Cl	0.60210 0.82276 0.60334 -0.21300
Cl	Cl	0.64520 0.72601 0.78160 -0.23200
Cl	Cl	0.62370 0.62059 0.73106 -0.18300
Cl	Cl	0.79700 0.86142 0.37582 -0.18100
Cl	Cl	0.91480 0.88570 0.47088 -0.20500
Cl	Cl	0.61550 0.95454 0.56709 -0.20600
Cl	Cl	0.49420 0.92174 0.47808 -0.17800
Cl	Cl	0.66790 0.98830 0.36400 -0.18800
Cl	Cl	0.53330 0.07008 0.32190 -0.22500
Cl	Cl	0.26640 0.92901 0.31706 -0.21800
Cl	Cl	0.39330 0.84751 0.36484 -0.19400
Cl	Cl	0.57110 0.78227 0.44839 -0.18600
Cl	Cl	0.60210 0.67724 0.39666 -0.21300
Cl	Cl	0.64520 0.77399 0.21840 -0.23200
Cl	Cl	0.62370 0.87941 0.26894 -0.18200
Cl	Cl	0.70300 0.86142 0.12418 -0.18100
Cl	Cl	0.58520 0.88570 0.02912 -0.20500
Cl	Cl	0.88450 0.95454 0.93291 -0.20700
Cl	Cl	0.00580 0.92174 0.02192 -0.17600
Cl	Cl	0.83210 0.98830 0.13600 -0.18900
Cl	Cl	0.96670 0.07008 0.17810 -0.22300
Cl	Cl	0.23360 0.92901 0.18294 -0.21800
Cl	Cl	0.10670 0.84751 0.13516 -0.19400
Cl	Cl	0.92890 0.78227 0.05161 -0.18600
Cl	Cl	0.89790 0.67724 0.10334 -0.21300
Cl	Cl	0.85480 0.77399 0.28160 -0.23200
Cl	Cl	0.87630 0.87941 0.23106 -0.18300
Cl	Cl	0.70300 0.63858 0.87582 -0.18100
Cl	Cl	0.58520 0.61430 0.97088 -0.20500
Cl	Cl	0.88450 0.54546 0.06709 -0.20600
Cl	Cl	0.00580 0.57826 0.97808 -0.17800
Cl	Cl	0.83210 0.51170 0.86400 -0.18800
Cl	Cl	0.96670 0.42992 0.82190 -0.22500
Cl	Cl	0.23360 0.57099 0.81706 -0.21900
Cl	Cl	0.10670 0.65249 0.86484 -0.19400
Cl	Cl	0.92890 0.71773 0.94839 -0.18600
Cl	Cl	0.89790 0.82276 0.89666 -0.21400
Cl	Cl	0.85480 0.72601 0.71840 -0.23200
Cl	Cl	0.87630 0.62059 0.76894 -0.18300
Cl	Cl	0.20300 0.36142 0.37582 -0.18100
Cl	Cl	0.08520 0.38570 0.47088 -0.20500
Cl	Cl	0.38450 0.45454 0.56709 -0.20600
Cl	Cl	0.50580 0.42174 0.47808 -0.17800
Cl	Cl	0.33210 0.48830 0.36400 -0.18800
Cl	Cl	0.46670 0.57008 0.32190 -0.22500
Cl	Cl	0.73360 0.42901 0.31706 -0.21900
Cl	Cl	0.60670 0.34751 0.36484 -0.19400
Cl	Cl	0.42890 0.28227 0.44839 -0.18600
Cl	Cl	0.39790 0.17724 0.39666 -0.21300
Cl	Cl	0.35480 0.27399 0.21840 -0.23200
Cl	Cl	0.37630 0.37941 0.26894 -0.18300
Cl	Cl	0.20300 0.13858 0.62418 -0.18100
Cl	Cl	0.08520 0.11430 0.52912 -0.20500
Cl	Cl	0.38450 0.04546 0.43291 -0.20600
Cl	Cl	0.50580 0.07826 0.52192 -0.17800
Cl	Cl	0.33210 0.01170 0.63600 -0.18800
Cl	Cl	0.46670 0.92992 0.67810 -0.22500
Cl	Cl	0.73360 0.07099 0.68294 -0.21800
Cl	Cl	0.60670 0.15249 0.63516 -0.19400
Cl	Cl	0.42890 0.21773 0.55161 -0.18600
Cl	Cl	0.39790 0.32276 0.60334 -0.21300
Cl	Cl	0.35480 0.22601 0.78160 -0.23200
Cl	Cl	0.37630 0.12059 0.73106 -0.18200
Cl	Cl	0.29700 0.13858 0.87582 -0.18100
Cl	Cl	0.41480 0.11430 0.97088 -0.20500
Cl	Cl	0.11550 0.04546 0.06709 -0.20700
Cl	Cl	0.99420 0.07826 0.97808 -0.17600
Cl	Cl	0.16790 0.01170 0.86400 -0.18900
Cl	Cl	0.03330 0.92992 0.82190 -0.22300
Cl	Cl	0.76640 0.07099 0.81706 -0.21800
Cl	Cl	0.89330 0.15249 0.86484 -0.19400
Cl	Cl	0.07110 0.21773 0.94839 -0.18600
Cl	Cl	0.10210 0.32276 0.89666 -0.21300
Cl	Cl	0.14520 0.22601 0.71840 -0.23200
Cl	Cl	0.12370 0.12059 0.76894 -0.18300
Cl	Cl	0.29700 0.36142 0.12418 -0.18100
Cl	Cl	0.41480 0.38570 0.02912 -0.20500
Cl	Cl	0.11550 0.45454 0.93291 -0.20600
Cl	Cl	0.99420 0.42174 0.02192 -0.17800
Cl	Cl	0.16790 0.48830 0.13600 -0.18800
Cl	Cl	0.03330 0.57008 0.17810 -0.22500
Cl	Cl	0.76640 0.42901 0.18294 -0.21900
Cl	Cl	0.89330 0.34751 0.13516 -0.19400
Cl	Cl	0.07110 0.28227 0.05161 -0.18600
Cl	Cl	0.10210 0.17724 0.10334 -0.21400
Cl	Cl	0.14520 0.27399 0.28160 -0.23200
Cl	Cl	0.12370 0.37941 0.23106 -0.18300
O 	O 	0.85770 0.52580 0.44230 -0.19900
O 	O 	0.36340 0.45040 0.74680 -0.47600
O 	O 	0.60550 0.83820 0.74910 -0.40300
O 	O 	0.81850 0.59950 0.40430 -0.39900
O 	O 	0.72590 0.84110 0.69410 -0.40600
O 	O 	0.27990 0.45050 0.67690 -0.41300
O 	O 	0.85770 0.97420 0.55770 -0.20000
O 	O 	0.36340 0.04960 0.25320 -0.47600
O 	O 	0.60550 0.66180 0.25090 -0.40300
O 	O 	0.81850 0.90050 0.59570 -0.39900
O 	O 	0.72590 0.65890 0.30590 -0.40600
O 	O 	0.27990 0.04950 0.32310 -0.41300
O 	O 	0.64230 0.97420 0.94230 -0.20000
O 	O 	0.13660 0.04960 0.24680 -0.47600
O 	O 	0.89450 0.66180 0.24910 -0.40300
O 	O 	0.68150 0.90050 0.90430 -0.39900
O 	O 	0.77410 0.65890 0.19410 -0.40600
O 	O 	0.22010 0.04950 0.17690 -0.41300
O 	O 	0.64230 0.52580 0.05770 -0.19900
O 	O 	0.13660 0.45040 0.75320 -0.47600
O 	O 	0.89450 0.83820 0.75090 -0.40300
O 	O 	0.68150 0.59950 0.09570 -0.39900
O 	O 	0.77410 0.84110 0.80590 -0.40600
O 	O 	0.22010 0.45050 0.82310 -0.41300
O 	O 	0.14230 0.47420 0.55770 -0.19900
O 	O 	0.63660 0.54960 0.25320 -0.47600
O 	O 	0.39450 0.16180 0.25090 -0.40300
O 	O 	0.18150 0.40050 0.59570 -0.39900
O 	O 	0.27410 0.15890 0.30590 -0.40600
O 	O 	0.72010 0.54950 0.32310 -0.41300
O 	O 	0.14230 0.02580 0.44230 -0.20000
O 	O 	0.63660 0.95040 0.74680 -0.47600
O 	O 	0.39450 0.33820 0.74910 -0.40300
O 	O 	0.18150 0.09950 0.40430 -0.39900
O 	O 	0.27410 0.34110 0.69410 -0.40600
O 	O 	0.72010 0.95050 0.67690 -0.41300
O 	O 	0.35770 0.02580 0.05770 -0.20000
O 	O 	0.86340 0.95040 0.75320 -0.47600
O 	O 	0.10550 0.33820 0.75090 -0.40300
O 	O 	0.31850 0.09950 0.09570 -0.39900
O 	O 	0.22590 0.34110 0.80590 -0.40600
O 	O 	0.77990 0.95050 0.82310 -0.41300
O 	O 	0.35770 0.47420 0.94230 -0.19900
O 	O 	0.86340 0.54960 0.24680 -0.47600
O 	O 	0.10550 0.16180 0.24910 -0.40300
O 	O 	0.31850 0.40050 0.90430 -0.39900
O 	O 	0.22590 0.15890 0.19410 -0.40600
O 	O 	0.77990 0.54950 0.17690 -0.41300
