data_crystal

_cell_length_a 25.06920
_cell_length_b 26.56220
_cell_length_c 15.24430
_cell_angle_alpha 90.00000
_cell_angle_beta  90.00000
_cell_angle_gamma 90.00000

_symmetry_space_group_name_	'P 1'
_symmetry_space_group_name_H-M	'P 1'

loop_
_symmetry_equiv_pos_as_xyz
  x,y,z

loop_
_atom_site_label
_atom_site_type_symbol
_atom_site_fract_x
_atom_site_fract_y
_atom_site_fract_z
_atom_site_charge
Tb	Tb	0.89950 0.68339 0.65482 1.85400
Cl	Cl	0.08107 0.81307 0.71690 -0.22000
Cl	Cl	0.15835 0.86455 0.58866 -0.18600
Cl	Cl	0.99957 0.87162 0.34649 -0.19500
Cl	Cl	0.92315 0.82458 0.48154 -0.22700
Cl	Cl	0.04294 0.06735 0.38487 -0.21300
Cl	Cl	0.07709 0.97799 0.50005 -0.17100
Cl	Cl	0.12971 0.87470 0.20594 -0.18800
Cl	Cl	0.10856 0.97118 0.09702 -0.22300
Cl	Cl	0.21516 0.94944 0.41729 -0.17400
Cl	Cl	0.32324 0.89774 0.38458 -0.21300
Cl	Cl	0.22341 0.71951 0.35171 -0.24200
Cl	Cl	0.11506 0.77077 0.37298 -0.18900
O 	O 	0.95327 0.75303 0.64200 -0.51400
O 	O 	0.95510 0.82355 0.72090 -0.45500
O 	O 	0.01810 0.05940 0.15710 -0.22100
O 	O 	0.09573 0.09527 0.18780 -0.41700
O 	O 	0.34242 0.80460 0.27270 -0.48000
O 	O 	0.33824 0.75109 0.38640 -0.43500
C 	C 	0.96801 0.79686 0.65790 0.57300
C 	C 	0.06220 0.06030 0.19150 0.45100
C 	C 	0.32152 0.78679 0.34080 0.53600
C 	C 	0.00619 0.82035 0.59150 -0.18400
C 	C 	0.05940 0.82951 0.61410 0.20800
C 	C 	0.09379 0.85123 0.55410 0.11700
C 	C 	0.07772 0.86431 0.46910 -0.01000
C 	C 	0.02395 0.85630 0.44910 0.12500
C 	C 	0.98961 0.83415 0.50930 0.20900
C 	C 	0.11600 0.88410 0.40340 0.13200
C 	C 	0.07800 0.01448 0.24650 -0.14100
C 	C 	0.07000 0.01459 0.33700 0.19900
C 	C 	0.08330 0.97315 0.38770 0.13100
C 	C 	0.10315 0.92928 0.34960 -0.01500
C 	C 	0.11020 0.92945 0.25920 0.12100
C 	C 	0.09830 0.97190 0.20910 0.19100
C 	C 	0.16810 0.85890 0.39260 -0.01500
C 	C 	0.21601 0.88609 0.39390 0.12100
C 	C 	0.26536 0.86283 0.38020 0.20000
C 	C 	0.26870 0.81139 0.36520 -0.17400
C 	C 	0.22123 0.78399 0.36940 0.20200
C 	C 	0.17214 0.80713 0.38080 0.12500
Tb	Tb	0.60050 0.31661 0.65482 1.85500
Cl	Cl	0.41893 0.18693 0.71690 -0.22000
Cl	Cl	0.34165 0.13545 0.58866 -0.18500
Cl	Cl	0.50043 0.12838 0.34649 -0.19400
Cl	Cl	0.57685 0.17542 0.48154 -0.22600
Cl	Cl	0.45706 0.93265 0.38487 -0.21200
Cl	Cl	0.42291 0.02201 0.50005 -0.17100
Cl	Cl	0.37029 0.12530 0.20594 -0.18800
Cl	Cl	0.39144 0.02882 0.09702 -0.22300
Cl	Cl	0.28484 0.05056 0.41729 -0.17400
Cl	Cl	0.17676 0.10226 0.38458 -0.21300
Cl	Cl	0.27659 0.28049 0.35171 -0.24200
Cl	Cl	0.38494 0.22923 0.37298 -0.18900
O 	O 	0.54673 0.24697 0.64200 -0.51400
O 	O 	0.54490 0.17645 0.72090 -0.45500
O 	O 	0.48190 0.94060 0.15710 -0.22000
O 	O 	0.40427 0.90473 0.18780 -0.41700
O 	O 	0.15758 0.19540 0.27270 -0.48000
O 	O 	0.16176 0.24891 0.38640 -0.43500
C 	C 	0.53199 0.20314 0.65790 0.57400
C 	C 	0.43780 0.93970 0.19150 0.45100
C 	C 	0.17848 0.21321 0.34080 0.53600
C 	C 	0.49381 0.17965 0.59150 -0.18600
C 	C 	0.44060 0.17049 0.61410 0.20900
C 	C 	0.40621 0.14877 0.55410 0.11700
C 	C 	0.42228 0.13569 0.46910 -0.01000
C 	C 	0.47605 0.14370 0.44910 0.12500
C 	C 	0.51039 0.16585 0.50930 0.21000
C 	C 	0.38400 0.11590 0.40340 0.13200
C 	C 	0.42200 0.98552 0.24650 -0.14100
C 	C 	0.43000 0.98541 0.33700 0.20000
C 	C 	0.41670 0.02685 0.38770 0.13100
C 	C 	0.39685 0.07072 0.34960 -0.01500
C 	C 	0.38980 0.07055 0.25920 0.12200
C 	C 	0.40170 0.02810 0.20910 0.19100
C 	C 	0.33190 0.14110 0.39260 -0.01500
C 	C 	0.28399 0.11391 0.39390 0.12100
C 	C 	0.23464 0.13717 0.38020 0.20000
C 	C 	0.23130 0.18861 0.36520 -0.17400
C 	C 	0.27877 0.21601 0.36940 0.20200
C 	C 	0.32786 0.19287 0.38080 0.12500
Tb	Tb	0.60050 0.18339 0.84518 1.85500
Cl	Cl	0.41893 0.31307 0.78310 -0.22000
Cl	Cl	0.34165 0.36455 0.91134 -0.18500
Cl	Cl	0.50043 0.37162 0.15351 -0.19400
Cl	Cl	0.57685 0.32458 0.01846 -0.22500
Cl	Cl	0.45706 0.56735 0.11513 -0.21200
Cl	Cl	0.42291 0.47799 0.99995 -0.17000
Cl	Cl	0.37029 0.37470 0.29406 -0.18700
Cl	Cl	0.39144 0.47118 0.40298 -0.22200
Cl	Cl	0.28484 0.44944 0.08271 -0.17400
Cl	Cl	0.17676 0.39774 0.11542 -0.21300
Cl	Cl	0.27659 0.21951 0.14829 -0.24300
Cl	Cl	0.38494 0.27077 0.12702 -0.18900
O 	O 	0.54673 0.25303 0.85800 -0.51400
O 	O 	0.54490 0.32355 0.77910 -0.45500
O 	O 	0.48190 0.55940 0.34290 -0.22000
O 	O 	0.40427 0.59527 0.31220 -0.41700
O 	O 	0.15758 0.30460 0.22730 -0.48000
O 	O 	0.16176 0.25109 0.11360 -0.43500
C 	C 	0.53199 0.29686 0.84210 0.57400
C 	C 	0.43780 0.56030 0.30850 0.45100
C 	C 	0.17848 0.28679 0.15920 0.53600
C 	C 	0.49381 0.32035 0.90850 -0.18500
C 	C 	0.44060 0.32951 0.88590 0.20800
C 	C 	0.40621 0.35123 0.94590 0.11800
C 	C 	0.42228 0.36431 0.03090 -0.01100
C 	C 	0.47605 0.35630 0.05090 0.12500
C 	C 	0.51039 0.33415 0.99070 0.21000
C 	C 	0.38400 0.38410 0.09660 0.13200
C 	C 	0.42200 0.51448 0.25350 -0.14100
C 	C 	0.43000 0.51459 0.16300 0.20000
C 	C 	0.41670 0.47315 0.11230 0.13000
C 	C 	0.39685 0.42928 0.15040 -0.01500
C 	C 	0.38980 0.42945 0.24080 0.12200
C 	C 	0.40170 0.47190 0.29090 0.19100
C 	C 	0.33190 0.35890 0.10740 -0.01500
C 	C 	0.28399 0.38609 0.10610 0.12100
C 	C 	0.23464 0.36283 0.11980 0.20000
C 	C 	0.23130 0.31139 0.13480 -0.17400
C 	C 	0.27877 0.28399 0.13060 0.20200
C 	C 	0.32786 0.30713 0.11920 0.12500
Tb	Tb	0.89950 0.81661 0.84518 1.85400
Cl	Cl	0.08107 0.68693 0.78310 -0.21900
Cl	Cl	0.15835 0.63545 0.91134 -0.18500
Cl	Cl	0.99957 0.62838 0.15351 -0.19200
Cl	Cl	0.92315 0.67542 0.01846 -0.22300
Cl	Cl	0.04294 0.43265 0.11513 -0.21400
Cl	Cl	0.07709 0.52201 0.99995 -0.16800
Cl	Cl	0.12971 0.62530 0.29406 -0.18800
Cl	Cl	0.10856 0.52882 0.40298 -0.22200
Cl	Cl	0.21516 0.55056 0.08271 -0.17500
Cl	Cl	0.32324 0.60226 0.11542 -0.21300
Cl	Cl	0.22341 0.78049 0.14829 -0.24300
Cl	Cl	0.11506 0.72923 0.12702 -0.18900
O 	O 	0.95327 0.74697 0.85800 -0.51400
O 	O 	0.95510 0.67645 0.77910 -0.45500
O 	O 	0.01810 0.44060 0.34290 -0.22000
O 	O 	0.09573 0.40473 0.31220 -0.41700
O 	O 	0.34242 0.69540 0.22730 -0.48000
O 	O 	0.33824 0.74891 0.11360 -0.43500
C 	C 	0.96801 0.70314 0.84210 0.57100
C 	C 	0.06220 0.43970 0.30850 0.45100
C 	C 	0.32152 0.71321 0.15920 0.53600
C 	C 	0.00619 0.67965 0.90850 -0.18000
C 	C 	0.05940 0.67049 0.88590 0.20600
C 	C 	0.09379 0.64877 0.94590 0.12000
C 	C 	0.07772 0.63569 0.03090 -0.01300
C 	C 	0.02395 0.64370 0.05090 0.12600
C 	C 	0.98961 0.66585 0.99070 0.20400
C 	C 	0.11600 0.61590 0.09660 0.13200
C 	C 	0.07800 0.48552 0.25350 -0.14100
C 	C 	0.07000 0.48541 0.16300 0.20000
C 	C 	0.08330 0.52685 0.11230 0.12900
C 	C 	0.10315 0.57072 0.15040 -0.01500
C 	C 	0.11020 0.57055 0.24080 0.12100
C 	C 	0.09830 0.52810 0.29090 0.19100
C 	C 	0.16810 0.64110 0.10740 -0.01600
C 	C 	0.21601 0.61391 0.10610 0.12100
C 	C 	0.26536 0.63717 0.11980 0.20000
C 	C 	0.26870 0.68861 0.13480 -0.17400
C 	C 	0.22123 0.71601 0.13060 0.20200
C 	C 	0.17214 0.69287 0.11920 0.12500
Tb	Tb	0.10050 0.31661 0.34518 1.85500
Cl	Cl	0.91893 0.18693 0.28310 -0.21900
Cl	Cl	0.84165 0.13545 0.41134 -0.18500
Cl	Cl	0.00043 0.12838 0.65351 -0.19400
Cl	Cl	0.07685 0.17542 0.51846 -0.22600
Cl	Cl	0.95706 0.93265 0.61513 -0.21200
Cl	Cl	0.92291 0.02201 0.49995 -0.17100
Cl	Cl	0.87029 0.12530 0.79406 -0.18800
Cl	Cl	0.89144 0.02882 0.90298 -0.22300
Cl	Cl	0.78484 0.05056 0.58271 -0.17400
Cl	Cl	0.67676 0.10226 0.61542 -0.21300
Cl	Cl	0.77659 0.28049 0.64829 -0.24200
Cl	Cl	0.88494 0.22923 0.62702 -0.18900
O 	O 	0.04673 0.24697 0.35800 -0.51400
O 	O 	0.04490 0.17645 0.27910 -0.45500
O 	O 	0.98190 0.94060 0.84290 -0.22100
O 	O 	0.90427 0.90473 0.81220 -0.41700
O 	O 	0.65758 0.19540 0.72730 -0.48000
O 	O 	0.66176 0.24891 0.61360 -0.43500
C 	C 	0.03199 0.20314 0.34210 0.57300
C 	C 	0.93780 0.93970 0.80850 0.45100
C 	C 	0.67848 0.21321 0.65920 0.53600
C 	C 	0.99381 0.17965 0.40850 -0.18400
C 	C 	0.94060 0.17049 0.38590 0.20800
C 	C 	0.90621 0.14877 0.44590 0.11700
C 	C 	0.92228 0.13569 0.53090 -0.01000
C 	C 	0.97605 0.14370 0.55090 0.12500
C 	C 	0.01039 0.16585 0.49070 0.20900
C 	C 	0.88400 0.11590 0.59660 0.13200
C 	C 	0.92200 0.98552 0.75350 -0.14100
C 	C 	0.93000 0.98541 0.66300 0.19900
C 	C 	0.91670 0.02685 0.61230 0.13100
C 	C 	0.89685 0.07072 0.65040 -0.01500
C 	C 	0.88980 0.07055 0.74080 0.12100
C 	C 	0.90170 0.02810 0.79090 0.19100
C 	C 	0.83190 0.14110 0.60740 -0.01500
C 	C 	0.78399 0.11391 0.60610 0.12100
C 	C 	0.73464 0.13717 0.61980 0.20000
C 	C 	0.73130 0.18861 0.63480 -0.17400
C 	C 	0.77877 0.21601 0.63060 0.20200
C 	C 	0.82786 0.19287 0.61920 0.12500
Tb	Tb	0.39950 0.68339 0.34518 1.85500
Cl	Cl	0.58107 0.81307 0.28310 -0.22000
Cl	Cl	0.65835 0.86455 0.41134 -0.18500
Cl	Cl	0.49957 0.87162 0.65351 -0.19400
Cl	Cl	0.42315 0.82458 0.51846 -0.22600
Cl	Cl	0.54294 0.06735 0.61513 -0.21200
Cl	Cl	0.57709 0.97799 0.49995 -0.17100
Cl	Cl	0.62971 0.87470 0.79406 -0.18800
Cl	Cl	0.60856 0.97118 0.90298 -0.22300
Cl	Cl	0.71516 0.94944 0.58271 -0.17400
Cl	Cl	0.82324 0.89774 0.61542 -0.21300
Cl	Cl	0.72341 0.71951 0.64829 -0.24200
Cl	Cl	0.61506 0.77077 0.62702 -0.18900
O 	O 	0.45327 0.75303 0.35800 -0.51400
O 	O 	0.45510 0.82355 0.27910 -0.45500
O 	O 	0.51810 0.05940 0.84290 -0.22000
O 	O 	0.59573 0.09527 0.81220 -0.41700
O 	O 	0.84242 0.80460 0.72730 -0.48000
O 	O 	0.83824 0.75109 0.61360 -0.43500
C 	C 	0.46801 0.79686 0.34210 0.57400
C 	C 	0.56220 0.06030 0.80850 0.45100
C 	C 	0.82152 0.78679 0.65920 0.53600
C 	C 	0.50619 0.82035 0.40850 -0.18600
C 	C 	0.55940 0.82951 0.38590 0.20900
C 	C 	0.59379 0.85123 0.44590 0.11700
C 	C 	0.57772 0.86431 0.53090 -0.01000
C 	C 	0.52395 0.85630 0.55090 0.12500
C 	C 	0.48961 0.83415 0.49070 0.21000
C 	C 	0.61600 0.88410 0.59660 0.13200
C 	C 	0.57800 0.01448 0.75350 -0.14100
C 	C 	0.57000 0.01459 0.66300 0.20000
C 	C 	0.58330 0.97315 0.61230 0.13100
C 	C 	0.60315 0.92928 0.65040 -0.01500
C 	C 	0.61020 0.92945 0.74080 0.12200
C 	C 	0.59830 0.97190 0.79090 0.19100
C 	C 	0.66810 0.85890 0.60740 -0.01500
C 	C 	0.71601 0.88609 0.60610 0.12100
C 	C 	0.76536 0.86283 0.61980 0.20000
C 	C 	0.76870 0.81139 0.63480 -0.17400
C 	C 	0.72123 0.78399 0.63060 0.20200
C 	C 	0.67214 0.80713 0.61920 0.12500
Tb	Tb	0.39950 0.81661 0.15482 1.85500
Cl	Cl	0.58107 0.68693 0.21690 -0.22000
Cl	Cl	0.65835 0.63545 0.08866 -0.18500
Cl	Cl	0.49957 0.62838 0.84649 -0.19400
Cl	Cl	0.42315 0.67542 0.98154 -0.22500
Cl	Cl	0.54294 0.43265 0.88487 -0.21200
Cl	Cl	0.57709 0.52201 0.00005 -0.17000
Cl	Cl	0.62971 0.62530 0.70594 -0.18700
Cl	Cl	0.60856 0.52882 0.59702 -0.22200
Cl	Cl	0.71516 0.55056 0.91729 -0.17400
Cl	Cl	0.82324 0.60226 0.88458 -0.21300
Cl	Cl	0.72341 0.78049 0.85171 -0.24300
Cl	Cl	0.61506 0.72923 0.87298 -0.18900
O 	O 	0.45327 0.74697 0.14200 -0.51400
O 	O 	0.45510 0.67645 0.22090 -0.45500
O 	O 	0.51810 0.44060 0.65710 -0.22000
O 	O 	0.59573 0.40473 0.68780 -0.41700
O 	O 	0.84242 0.69540 0.77270 -0.48000
O 	O 	0.83824 0.74891 0.88640 -0.43500
C 	C 	0.46801 0.70314 0.15790 0.57400
C 	C 	0.56220 0.43970 0.69150 0.45100
C 	C 	0.82152 0.71321 0.84080 0.53600
C 	C 	0.50619 0.67965 0.09150 -0.18500
C 	C 	0.55940 0.67049 0.11410 0.20800
C 	C 	0.59379 0.64877 0.05410 0.11800
C 	C 	0.57772 0.63569 0.96910 -0.01100
C 	C 	0.52395 0.64370 0.94910 0.12500
C 	C 	0.48961 0.66585 0.00930 0.21000
C 	C 	0.61600 0.61590 0.90340 0.13200
C 	C 	0.57800 0.48552 0.74650 -0.14100
C 	C 	0.57000 0.48541 0.83700 0.20000
C 	C 	0.58330 0.52685 0.88770 0.13000
C 	C 	0.60315 0.57072 0.84960 -0.01500
C 	C 	0.61020 0.57055 0.75920 0.12200
C 	C 	0.59830 0.52810 0.70910 0.19100
C 	C 	0.66810 0.64110 0.89260 -0.01500
C 	C 	0.71601 0.61391 0.89390 0.12100
C 	C 	0.76536 0.63717 0.88020 0.20000
C 	C 	0.76870 0.68861 0.86520 -0.17400
C 	C 	0.72123 0.71601 0.86940 0.20200
C 	C 	0.67214 0.69287 0.88080 0.12500
Tb	Tb	0.10050 0.18339 0.15482 1.85400
Cl	Cl	0.91893 0.31307 0.21690 -0.21900
Cl	Cl	0.84165 0.36455 0.08866 -0.18500
Cl	Cl	0.00043 0.37162 0.84649 -0.19200
Cl	Cl	0.07685 0.32458 0.98154 -0.22300
Cl	Cl	0.95706 0.56735 0.88487 -0.21400
Cl	Cl	0.92291 0.47799 0.00005 -0.16800
Cl	Cl	0.87029 0.37470 0.70594 -0.18800
Cl	Cl	0.89144 0.47118 0.59702 -0.22200
Cl	Cl	0.78484 0.44944 0.91729 -0.17500
Cl	Cl	0.67676 0.39774 0.88458 -0.21300
Cl	Cl	0.77659 0.21951 0.85171 -0.24300
Cl	Cl	0.88494 0.27077 0.87298 -0.18900
O 	O 	0.04673 0.25303 0.14200 -0.51400
O 	O 	0.04490 0.32355 0.22090 -0.45500
O 	O 	0.98190 0.55940 0.65710 -0.22000
O 	O 	0.90427 0.59527 0.68780 -0.41700
O 	O 	0.65758 0.30460 0.77270 -0.48000
O 	O 	0.66176 0.25109 0.88640 -0.43500
C 	C 	0.03199 0.29686 0.15790 0.57100
C 	C 	0.93780 0.56030 0.69150 0.45100
C 	C 	0.67848 0.28679 0.84080 0.53600
C 	C 	0.99381 0.32035 0.09150 -0.18000
C 	C 	0.94060 0.32951 0.11410 0.20600
C 	C 	0.90621 0.35123 0.05410 0.12000
C 	C 	0.92228 0.36431 0.96910 -0.01300
C 	C 	0.97605 0.35630 0.94910 0.12600
C 	C 	0.01039 0.33415 0.00930 0.20400
C 	C 	0.88400 0.38410 0.90340 0.13200
C 	C 	0.92200 0.51448 0.74650 -0.14100
C 	C 	0.93000 0.51459 0.83700 0.20000
C 	C 	0.91670 0.47315 0.88770 0.12900
C 	C 	0.89685 0.42928 0.84960 -0.01500
C 	C 	0.88980 0.42945 0.75920 0.12100
C 	C 	0.90170 0.47190 0.70910 0.19100
C 	C 	0.83190 0.35890 0.89260 -0.01600
C 	C 	0.78399 0.38609 0.89390 0.12100
C 	C 	0.73464 0.36283 0.88020 0.20000
C 	C 	0.73130 0.31139 0.86520 -0.17400
C 	C 	0.77877 0.28399 0.86940 0.20200
C 	C 	0.82786 0.30713 0.88080 0.12500
