data_crystal

_cell_length_a 14.51700
_cell_length_b 25.63000
_cell_length_c 26.60000
_cell_angle_alpha 90.00000
_cell_angle_beta  90.00000
_cell_angle_gamma 90.00000

_symmetry_space_group_name_	'P 1'
_symmetry_space_group_name_H-M	'P 1'

loop_
_symmetry_equiv_pos_as_xyz
  x,y,z

loop_
_atom_site_label
_atom_site_type_symbol
_atom_site_fract_x
_atom_site_fract_y
_atom_site_fract_z
_atom_site_charge
Tb	Tb	0.85151 0.60275 0.18427 1.85500
Tb	Tb	0.85151 0.89725 0.81573 1.85400
Tb	Tb	0.64849 0.89725 0.68427 1.85500
Tb	Tb	0.64849 0.60275 0.31573 1.85500
Tb	Tb	0.14849 0.39725 0.81573 1.85500
Tb	Tb	0.14849 0.10275 0.18427 1.85400
Tb	Tb	0.35151 0.10275 0.31573 1.85600
Tb	Tb	0.35151 0.39725 0.68427 1.85600
C 	C 	0.09650 0.38000 0.38450 0.13800
C 	C 	0.15170 0.39130 0.42990 -0.03000
C 	C 	0.11120 0.41240 0.47270 0.14500
C 	C 	0.16510 0.42470 0.51420 0.18200
C 	C 	0.25960 0.41600 0.51290 -0.10100
C 	C 	0.30010 0.39490 0.47020 0.17200
C 	C 	0.24620 0.38260 0.42870 0.13400
C 	C 	0.03250 0.42030 0.36260 -0.01000
C 	C 	0.05950 0.47220 0.35440 0.12500
C 	C 	0.99950 0.50810 0.33320 0.21500
C 	C 	0.90840 0.49540 0.32080 -0.20300
C 	C 	0.87900 0.44510 0.33090 0.22100
C 	C 	0.94090 0.40830 0.35120 0.11600
C 	C 	0.10210 0.32900 0.35870 -0.03000
C 	C 	0.10040 0.28450 0.38700 0.13400
C 	C 	0.11160 0.32530 0.30700 0.13500
C 	C 	0.11190 0.23390 0.36400 0.19500
C 	C 	0.12470 0.27580 0.28380 0.19300
C 	C 	0.84530 0.53440 0.29710 0.59500
C 	C 	0.15610 0.17830 0.28670 0.51800
C 	C 	0.32280 0.43320 0.55970 0.41400
C 	C 	0.13130 0.23000 0.31150 -0.15800
C 	C 	0.09650 0.12000 0.61550 0.13800
C 	C 	0.15170 0.10870 0.57010 -0.03000
C 	C 	0.11120 0.08760 0.52730 0.14400
C 	C 	0.16510 0.07530 0.48580 0.18200
C 	C 	0.25960 0.08400 0.48710 -0.10200
C 	C 	0.30010 0.10510 0.52980 0.17200
C 	C 	0.24620 0.11740 0.57130 0.13400
C 	C 	0.03250 0.07970 0.63740 -0.01200
C 	C 	0.05950 0.02780 0.64560 0.12700
C 	C 	0.99950 0.99190 0.66680 0.21100
C 	C 	0.90840 0.00460 0.67920 -0.19800
C 	C 	0.87900 0.05490 0.66910 0.21900
C 	C 	0.94090 0.09170 0.64880 0.11900
C 	C 	0.10210 0.17100 0.64130 -0.03000
C 	C 	0.10040 0.21550 0.61300 0.13400
C 	C 	0.11160 0.17470 0.69300 0.13500
C 	C 	0.11190 0.26610 0.63600 0.19500
C 	C 	0.12470 0.22420 0.71620 0.19300
C 	C 	0.84530 0.96560 0.70290 0.59300
C 	C 	0.15610 0.32170 0.71330 0.51800
C 	C 	0.32280 0.06680 0.44030 0.41400
C 	C 	0.13130 0.27000 0.68850 -0.15800
C 	C 	0.40350 0.12000 0.88450 0.13800
C 	C 	0.34830 0.10870 0.92990 -0.03000
C 	C 	0.38880 0.08760 0.97270 0.14600
C 	C 	0.33490 0.07530 0.01420 0.18200
C 	C 	0.24040 0.08400 0.01290 -0.10200
C 	C 	0.19990 0.10510 0.97020 0.17300
C 	C 	0.25380 0.11740 0.92870 0.13400
C 	C 	0.46750 0.07970 0.86260 -0.01000
C 	C 	0.44050 0.02780 0.85440 0.12600
C 	C 	0.50050 0.99190 0.83320 0.21400
C 	C 	0.59160 0.00460 0.82080 -0.20100
C 	C 	0.62100 0.05490 0.83090 0.22000
C 	C 	0.55910 0.09170 0.85120 0.11700
C 	C 	0.39790 0.17100 0.85870 -0.03000
C 	C 	0.39960 0.21550 0.88700 0.13400
C 	C 	0.38840 0.17470 0.80700 0.13500
C 	C 	0.38810 0.26610 0.86400 0.19500
C 	C 	0.37530 0.22420 0.78380 0.19300
C 	C 	0.65470 0.96560 0.79710 0.59400
C 	C 	0.34390 0.32170 0.78670 0.51800
C 	C 	0.17720 0.06680 0.05970 0.41400
C 	C 	0.36870 0.27000 0.81150 -0.15800
C 	C 	0.40350 0.38000 0.11550 0.13800
C 	C 	0.34830 0.39130 0.07010 -0.03000
C 	C 	0.38880 0.41240 0.02730 0.14500
C 	C 	0.33490 0.42470 0.98580 0.18200
C 	C 	0.24040 0.41600 0.98710 -0.10100
C 	C 	0.19990 0.39490 0.02980 0.17200
C 	C 	0.25380 0.38260 0.07130 0.13400
C 	C 	0.46750 0.42030 0.13740 -0.01000
C 	C 	0.44050 0.47220 0.14560 0.12500
C 	C 	0.50050 0.50810 0.16680 0.21600
C 	C 	0.59160 0.49540 0.17920 -0.20300
C 	C 	0.62100 0.44510 0.16910 0.22100
C 	C 	0.55910 0.40830 0.14880 0.11600
C 	C 	0.39790 0.32900 0.14130 -0.03000
C 	C 	0.39960 0.28450 0.11300 0.13400
C 	C 	0.38840 0.32530 0.19300 0.13500
C 	C 	0.38810 0.23390 0.13600 0.19500
C 	C 	0.37530 0.27580 0.21620 0.19300
C 	C 	0.65470 0.53440 0.20290 0.59600
C 	C 	0.34390 0.17830 0.21330 0.51800
C 	C 	0.17720 0.43320 0.94030 0.41400
C 	C 	0.36870 0.23000 0.18850 -0.15800
C 	C 	0.90350 0.62000 0.61550 0.13800
C 	C 	0.84830 0.60870 0.57010 -0.03000
C 	C 	0.88880 0.58760 0.52730 0.14500
C 	C 	0.83490 0.57530 0.48580 0.18200
C 	C 	0.74040 0.58400 0.48710 -0.10100
C 	C 	0.69990 0.60510 0.52980 0.17200
C 	C 	0.75380 0.61740 0.57130 0.13400
C 	C 	0.96750 0.57970 0.63740 -0.01000
C 	C 	0.94050 0.52780 0.64560 0.12500
C 	C 	0.00050 0.49190 0.66680 0.21500
C 	C 	0.09160 0.50460 0.67920 -0.20300
C 	C 	0.12100 0.55490 0.66910 0.22100
C 	C 	0.05910 0.59170 0.64880 0.11600
C 	C 	0.89790 0.67100 0.64130 -0.03000
C 	C 	0.89960 0.71550 0.61300 0.13400
C 	C 	0.88840 0.67470 0.69300 0.13500
C 	C 	0.88810 0.76610 0.63600 0.19500
C 	C 	0.87530 0.72420 0.71620 0.19300
C 	C 	0.15470 0.46560 0.70290 0.59500
C 	C 	0.84390 0.82170 0.71330 0.51800
C 	C 	0.67720 0.56680 0.44030 0.41400
C 	C 	0.86870 0.77000 0.68850 -0.15800
C 	C 	0.90350 0.88000 0.38450 0.13800
C 	C 	0.84830 0.89130 0.42990 -0.03000
C 	C 	0.88880 0.91240 0.47270 0.14400
C 	C 	0.83490 0.92470 0.51420 0.18200
C 	C 	0.74040 0.91600 0.51290 -0.10200
C 	C 	0.69990 0.89490 0.47020 0.17200
C 	C 	0.75380 0.88260 0.42870 0.13400
C 	C 	0.96750 0.92030 0.36260 -0.01200
C 	C 	0.94050 0.97220 0.35440 0.12700
C 	C 	0.00050 0.00810 0.33320 0.21100
C 	C 	0.09160 0.99540 0.32080 -0.19800
C 	C 	0.12100 0.94510 0.33090 0.21900
C 	C 	0.05910 0.90830 0.35120 0.11900
C 	C 	0.89790 0.82900 0.35870 -0.03000
C 	C 	0.89960 0.78450 0.38700 0.13400
C 	C 	0.88840 0.82530 0.30700 0.13500
C 	C 	0.88810 0.73390 0.36400 0.19500
C 	C 	0.87530 0.77580 0.28380 0.19300
C 	C 	0.15470 0.03440 0.29710 0.59300
C 	C 	0.84390 0.67830 0.28670 0.51800
C 	C 	0.67720 0.93320 0.55970 0.41400
C 	C 	0.86870 0.73000 0.31150 -0.15800
C 	C 	0.59650 0.88000 0.11550 0.13800
C 	C 	0.65170 0.89130 0.07010 -0.03000
C 	C 	0.61120 0.91240 0.02730 0.14600
C 	C 	0.66510 0.92470 0.98580 0.18200
C 	C 	0.75960 0.91600 0.98710 -0.10200
C 	C 	0.80010 0.89490 0.02980 0.17300
C 	C 	0.74620 0.88260 0.07130 0.13400
C 	C 	0.53250 0.92030 0.13740 -0.01000
C 	C 	0.55950 0.97220 0.14560 0.12600
C 	C 	0.49950 0.00810 0.16680 0.21400
C 	C 	0.40840 0.99540 0.17920 -0.20100
C 	C 	0.37900 0.94510 0.16910 0.22000
C 	C 	0.44090 0.90830 0.14880 0.11700
C 	C 	0.60210 0.82900 0.14130 -0.03000
C 	C 	0.60040 0.78450 0.11300 0.13400
C 	C 	0.61160 0.82530 0.19300 0.13500
C 	C 	0.61190 0.73390 0.13600 0.19500
C 	C 	0.62470 0.77580 0.21620 0.19300
C 	C 	0.34530 0.03440 0.20290 0.59400
C 	C 	0.65610 0.67830 0.21330 0.51800
C 	C 	0.82280 0.93320 0.94030 0.41400
C 	C 	0.63130 0.73000 0.18850 -0.15800
C 	C 	0.59650 0.62000 0.88450 0.13800
C 	C 	0.65170 0.60870 0.92990 -0.03000
C 	C 	0.61120 0.58760 0.97270 0.14500
C 	C 	0.66510 0.57530 0.01420 0.18200
C 	C 	0.75960 0.58400 0.01290 -0.10100
C 	C 	0.80010 0.60510 0.97020 0.17200
C 	C 	0.74620 0.61740 0.92870 0.13400
C 	C 	0.53250 0.57970 0.86260 -0.01000
C 	C 	0.55950 0.52780 0.85440 0.12500
C 	C 	0.49950 0.49190 0.83320 0.21600
C 	C 	0.40840 0.50460 0.82080 -0.20300
C 	C 	0.37900 0.55490 0.83090 0.22100
C 	C 	0.44090 0.59170 0.85120 0.11600
C 	C 	0.60210 0.67100 0.85870 -0.03000
C 	C 	0.60040 0.71550 0.88700 0.13400
C 	C 	0.61160 0.67470 0.80700 0.13500
C 	C 	0.61190 0.76610 0.86400 0.19500
C 	C 	0.62470 0.72420 0.78380 0.19300
C 	C 	0.34530 0.46560 0.79710 0.59600
C 	C 	0.65610 0.82170 0.78670 0.51800
C 	C 	0.82280 0.56680 0.05970 0.41400
C 	C 	0.63130 0.77000 0.81150 -0.15800
Cl	Cl	0.99600 0.42222 0.47700 -0.17800
Cl	Cl	0.17060 0.49045 0.36620 -0.20000
Cl	Cl	0.11790 0.45481 0.56627 -0.20700
Cl	Cl	0.03420 0.57129 0.32416 -0.23100
Cl	Cl	0.41780 0.38440 0.47106 -0.21400
Cl	Cl	0.89790 0.34656 0.36534 -0.18500
Cl	Cl	0.30130 0.36044 0.37556 -0.19000
Cl	Cl	0.76860 0.42770 0.31684 -0.22800
Cl	Cl	0.12400 0.37995 0.26880 -0.18700
Cl	Cl	0.07570 0.28465 0.44946 -0.18100
Cl	Cl	0.10590 0.17809 0.39832 -0.21300
Cl	Cl	0.14450 0.27314 0.21868 -0.23900
Cl	Cl	0.99600 0.07778 0.52300 -0.17700
Cl	Cl	0.17060 0.00955 0.63380 -0.20100
Cl	Cl	0.11790 0.04519 0.43373 -0.20800
Cl	Cl	0.03420 0.92871 0.67584 -0.22900
Cl	Cl	0.41780 0.11560 0.52894 -0.21400
Cl	Cl	0.89790 0.15344 0.63466 -0.18500
Cl	Cl	0.30130 0.13956 0.62444 -0.19000
Cl	Cl	0.76860 0.07230 0.68316 -0.22700
Cl	Cl	0.12400 0.12005 0.73120 -0.18700
Cl	Cl	0.07570 0.21535 0.55054 -0.18100
Cl	Cl	0.10590 0.32191 0.60168 -0.21300
Cl	Cl	0.14450 0.22686 0.78132 -0.23900
Cl	Cl	0.50400 0.07778 0.97700 -0.17800
Cl	Cl	0.32940 0.00955 0.86620 -0.20000
Cl	Cl	0.38210 0.04519 0.06627 -0.20800
Cl	Cl	0.46580 0.92871 0.82416 -0.23100
Cl	Cl	0.08220 0.11560 0.97106 -0.21500
Cl	Cl	0.60210 0.15344 0.86534 -0.18500
Cl	Cl	0.19870 0.13956 0.87556 -0.19100
Cl	Cl	0.73140 0.07230 0.81684 -0.22700
Cl	Cl	0.37600 0.12005 0.76880 -0.18700
Cl	Cl	0.42430 0.21535 0.94946 -0.18000
Cl	Cl	0.39410 0.32191 0.89832 -0.21300
Cl	Cl	0.35550 0.22686 0.71868 -0.23800
Cl	Cl	0.50400 0.42222 0.02300 -0.17900
Cl	Cl	0.32940 0.49045 0.13380 -0.20000
Cl	Cl	0.38210 0.45481 0.93373 -0.20700
Cl	Cl	0.46580 0.57129 0.17584 -0.23100
Cl	Cl	0.08220 0.38440 0.02894 -0.21500
Cl	Cl	0.60210 0.34656 0.13466 -0.18500
Cl	Cl	0.19870 0.36044 0.12444 -0.19100
Cl	Cl	0.73140 0.42770 0.18316 -0.22800
Cl	Cl	0.37600 0.37995 0.23120 -0.18700
Cl	Cl	0.42430 0.28465 0.05054 -0.18100
Cl	Cl	0.39410 0.17809 0.10168 -0.21300
Cl	Cl	0.35550 0.27314 0.28132 -0.23800
Cl	Cl	0.00400 0.57778 0.52300 -0.17800
Cl	Cl	0.82940 0.50955 0.63380 -0.20000
Cl	Cl	0.88210 0.54519 0.43373 -0.20700
Cl	Cl	0.96580 0.42871 0.67584 -0.23100
Cl	Cl	0.58220 0.61560 0.52894 -0.21400
Cl	Cl	0.10210 0.65344 0.63466 -0.18500
Cl	Cl	0.69870 0.63956 0.62444 -0.19000
Cl	Cl	0.23140 0.57230 0.68316 -0.22800
Cl	Cl	0.87600 0.62005 0.73120 -0.18700
Cl	Cl	0.92430 0.71535 0.55054 -0.18100
Cl	Cl	0.89410 0.82191 0.60168 -0.21300
Cl	Cl	0.85550 0.72686 0.78132 -0.23900
Cl	Cl	0.00400 0.92222 0.47700 -0.17700
Cl	Cl	0.82940 0.99045 0.36620 -0.20100
Cl	Cl	0.88210 0.95481 0.56627 -0.20800
Cl	Cl	0.96580 0.07129 0.32416 -0.22900
Cl	Cl	0.58220 0.88440 0.47106 -0.21400
Cl	Cl	0.10210 0.84656 0.36534 -0.18500
Cl	Cl	0.69870 0.86044 0.37556 -0.19000
Cl	Cl	0.23140 0.92770 0.31684 -0.22700
Cl	Cl	0.87600 0.87995 0.26880 -0.18700
Cl	Cl	0.92430 0.78465 0.44946 -0.18100
Cl	Cl	0.89410 0.67809 0.39832 -0.21300
Cl	Cl	0.85550 0.77314 0.21868 -0.23900
Cl	Cl	0.49600 0.92222 0.02300 -0.17800
Cl	Cl	0.67060 0.99045 0.13380 -0.20000
Cl	Cl	0.61790 0.95481 0.93373 -0.20800
Cl	Cl	0.53420 0.07129 0.17584 -0.23100
Cl	Cl	0.91780 0.88440 0.02894 -0.21500
Cl	Cl	0.39790 0.84656 0.13466 -0.18500
Cl	Cl	0.80130 0.86044 0.12444 -0.19100
Cl	Cl	0.26860 0.92770 0.18316 -0.22700
Cl	Cl	0.62400 0.87995 0.23120 -0.18700
Cl	Cl	0.57570 0.78465 0.05054 -0.18000
Cl	Cl	0.60590 0.67809 0.10168 -0.21300
Cl	Cl	0.64450 0.77314 0.28132 -0.23800
Cl	Cl	0.49600 0.57778 0.97700 -0.17900
Cl	Cl	0.67060 0.50955 0.86620 -0.20000
Cl	Cl	0.61790 0.54519 0.06627 -0.20700
Cl	Cl	0.53420 0.42871 0.82416 -0.23100
Cl	Cl	0.91780 0.61560 0.97106 -0.21500
Cl	Cl	0.39790 0.65344 0.86534 -0.18500
Cl	Cl	0.80130 0.63956 0.87556 -0.19100
Cl	Cl	0.26860 0.57230 0.81684 -0.22800
Cl	Cl	0.62400 0.62005 0.76880 -0.18700
Cl	Cl	0.57570 0.71535 0.94946 -0.18100
Cl	Cl	0.60590 0.82191 0.89832 -0.21300
Cl	Cl	0.64450 0.72686 0.71868 -0.23800
O 	O 	0.86480 0.54920 0.25420 -0.51500
O 	O 	0.77910 0.54980 0.32240 -0.46900
O 	O 	0.31970 0.39940 0.59600 -0.39600
O 	O 	0.10550 0.16200 0.25250 -0.43400
O 	O 	0.22910 0.15890 0.30570 -0.47300
O 	O 	0.36140 0.47460 0.55750 -0.21600
O 	O 	0.86480 0.95080 0.74580 -0.51400
O 	O 	0.77910 0.95020 0.67760 -0.46800
O 	O 	0.31970 0.10060 0.40400 -0.39600
O 	O 	0.10550 0.33800 0.74750 -0.43400
O 	O 	0.22910 0.34110 0.69430 -0.47300
O 	O 	0.36140 0.02540 0.44250 -0.21600
O 	O 	0.63520 0.95080 0.75420 -0.51500
O 	O 	0.72090 0.95020 0.82240 -0.46800
O 	O 	0.18030 0.10060 0.09600 -0.39600
O 	O 	0.39450 0.33800 0.75250 -0.43400
O 	O 	0.27090 0.34110 0.80570 -0.47300
O 	O 	0.13860 0.02540 0.05750 -0.21700
O 	O 	0.63520 0.54920 0.24580 -0.51500
O 	O 	0.72090 0.54980 0.17760 -0.46900
O 	O 	0.18030 0.39940 0.90400 -0.39600
O 	O 	0.39450 0.16200 0.24750 -0.43400
O 	O 	0.27090 0.15890 0.19430 -0.47300
O 	O 	0.13860 0.47460 0.94250 -0.21600
O 	O 	0.13520 0.45080 0.74580 -0.51500
O 	O 	0.22090 0.45020 0.67760 -0.46900
O 	O 	0.68030 0.60060 0.40400 -0.39600
O 	O 	0.89450 0.83800 0.74750 -0.43400
O 	O 	0.77090 0.84110 0.69430 -0.47300
O 	O 	0.63860 0.52540 0.44250 -0.21600
O 	O 	0.13520 0.04920 0.25420 -0.51400
O 	O 	0.22090 0.04980 0.32240 -0.46800
O 	O 	0.68030 0.89940 0.59600 -0.39600
O 	O 	0.89450 0.66200 0.25250 -0.43400
O 	O 	0.77090 0.65890 0.30570 -0.47300
O 	O 	0.63860 0.97460 0.55750 -0.21600
O 	O 	0.36480 0.04920 0.24580 -0.51500
O 	O 	0.27910 0.04980 0.17760 -0.46800
O 	O 	0.81970 0.89940 0.90400 -0.39600
O 	O 	0.60550 0.66200 0.24750 -0.43400
O 	O 	0.72910 0.65890 0.19430 -0.47300
O 	O 	0.86140 0.97460 0.94250 -0.21700
O 	O 	0.36480 0.45080 0.75420 -0.51500
O 	O 	0.27910 0.45020 0.82240 -0.46900
O 	O 	0.81970 0.60060 0.09600 -0.39600
O 	O 	0.60550 0.83800 0.75250 -0.43400
O 	O 	0.72910 0.84110 0.80570 -0.47300
O 	O 	0.86140 0.52540 0.05750 -0.21600
