data_crystal

_cell_length_a 25.36100
_cell_length_b 26.61840
_cell_length_c 14.53180
_cell_angle_alpha 90.00000
_cell_angle_beta  90.00000
_cell_angle_gamma 90.00000

_symmetry_space_group_name_	'P 1'
_symmetry_space_group_name_H-M	'P 1'

loop_
_symmetry_equiv_pos_as_xyz
  x,y,z

loop_
_atom_site_label
_atom_site_type_symbol
_atom_site_fract_x
_atom_site_fract_y
_atom_site_fract_z
_atom_site_charge
Gd	Gd	0.39778 0.81534 0.14684 1.60900
Cl	Cl	0.57644 0.68503 0.22612 -0.21300
Cl	Cl	0.65531 0.63395 0.09695 -0.18100
Cl	Cl	0.50447 0.62798 0.83274 -0.19600
Cl	Cl	0.42558 0.67298 0.97068 -0.21900
Cl	Cl	0.54282 0.43303 0.87966 -0.21100
Cl	Cl	0.57769 0.52128 0.00158 -0.17300
Cl	Cl	0.63603 0.62256 0.69455 -0.18500
Cl	Cl	0.61286 0.52691 0.57972 -0.20900
Cl	Cl	0.71593 0.54972 0.91870 -0.17200
Cl	Cl	0.82270 0.60138 0.88873 -0.20700
Cl	Cl	0.72411 0.77920 0.85672 -0.23300
Cl	Cl	0.61697 0.72787 0.87215 -0.18600
O 	O 	0.45178 0.74559 0.13670 -0.45600
O 	O 	0.45282 0.67671 0.22340 -0.41300
O 	O 	0.52190 0.44090 0.63860 -0.20200
O 	O 	0.59764 0.40359 0.67690 -0.37400
O 	O 	0.84124 0.69524 0.77180 -0.42700
O 	O 	0.83716 0.74719 0.89430 -0.38900
C 	C 	0.46620 0.70210 0.15650 0.54500
C 	C 	0.56490 0.43910 0.67710 0.42900
C 	C 	0.82100 0.71220 0.84450 0.50000
C 	C 	0.50530 0.67850 0.09080 -0.17600
C 	C 	0.55740 0.66910 0.11730 0.21000
C 	C 	0.59240 0.64710 0.05610 0.12000
C 	C 	0.57840 0.63430 0.96660 -0.01400
C 	C 	0.52580 0.64270 0.94150 0.13100
C 	C 	0.49060 0.66420 0.00370 0.20700
C 	C 	0.61820 0.61440 0.90120 0.13300
C 	C 	0.57970 0.48450 0.73670 -0.12600
C 	C 	0.57130 0.48490 0.83060 0.19600
C 	C 	0.58500 0.52590 0.88560 0.13700
C 	C 	0.60630 0.56960 0.84470 -0.01900
C 	C 	0.61440 0.56880 0.75030 0.12600
C 	C 	0.60200 0.52710 0.69710 0.18300
C 	C 	0.66910 0.63980 0.89220 -0.01500
C 	C 	0.71730 0.61280 0.89510 0.12100
C 	C 	0.76520 0.63580 0.88340 0.19500
C 	C 	0.76880 0.68740 0.86930 -0.16000
C 	C 	0.72230 0.71450 0.87220 0.19800
C 	C 	0.67340 0.69180 0.88200 0.12800
Gd	Gd	0.10222 0.18466 0.14684 1.60700
Cl	Cl	0.92356 0.31497 0.22612 -0.21300
Cl	Cl	0.84469 0.36605 0.09695 -0.18300
Cl	Cl	0.99553 0.37202 0.83274 -0.19700
Cl	Cl	0.07442 0.32702 0.97068 -0.21800
Cl	Cl	0.95718 0.56697 0.87966 -0.21200
Cl	Cl	0.92231 0.47872 0.00158 -0.17200
Cl	Cl	0.86397 0.37744 0.69455 -0.18600
Cl	Cl	0.88714 0.47309 0.57972 -0.21000
Cl	Cl	0.78407 0.45028 0.91870 -0.17300
Cl	Cl	0.67730 0.39862 0.88873 -0.20800
Cl	Cl	0.77589 0.22080 0.85672 -0.23400
Cl	Cl	0.88303 0.27213 0.87215 -0.18600
O 	O 	0.04822 0.25441 0.13670 -0.45600
O 	O 	0.04718 0.32329 0.22340 -0.41300
O 	O 	0.97810 0.55910 0.63860 -0.20200
O 	O 	0.90236 0.59641 0.67690 -0.37400
O 	O 	0.65876 0.30476 0.77180 -0.42700
O 	O 	0.66284 0.25281 0.89430 -0.38900
C 	C 	0.03380 0.29790 0.15650 0.54200
C 	C 	0.93510 0.56090 0.67710 0.42900
C 	C 	0.67900 0.28780 0.84450 0.50000
C 	C 	0.99470 0.32150 0.09080 -0.17200
C 	C 	0.94260 0.33090 0.11730 0.20800
C 	C 	0.90760 0.35290 0.05610 0.12200
C 	C 	0.92160 0.36570 0.96660 -0.01600
C 	C 	0.97420 0.35730 0.94150 0.13200
C 	C 	0.00940 0.33580 0.00370 0.20200
C 	C 	0.88180 0.38560 0.90120 0.13400
C 	C 	0.92030 0.51550 0.73670 -0.12600
C 	C 	0.92870 0.51510 0.83060 0.19600
C 	C 	0.91500 0.47410 0.88560 0.13600
C 	C 	0.89370 0.43040 0.84470 -0.01900
C 	C 	0.88560 0.43120 0.75030 0.12600
C 	C 	0.89800 0.47290 0.69710 0.18300
C 	C 	0.83090 0.36020 0.89220 -0.01500
C 	C 	0.78270 0.38720 0.89510 0.12100
C 	C 	0.73480 0.36420 0.88340 0.19500
C 	C 	0.73120 0.31260 0.86930 -0.16000
C 	C 	0.77770 0.28550 0.87220 0.19800
C 	C 	0.82660 0.30820 0.88200 0.12800
Gd	Gd	0.10222 0.31534 0.35316 1.60800
Cl	Cl	0.92356 0.18503 0.27388 -0.21300
Cl	Cl	0.84469 0.13395 0.40305 -0.18300
Cl	Cl	0.99553 0.12798 0.66726 -0.19700
Cl	Cl	0.07442 0.17298 0.52932 -0.22000
Cl	Cl	0.95718 0.93303 0.62034 -0.21200
Cl	Cl	0.92231 0.02128 0.49842 -0.17400
Cl	Cl	0.86397 0.12256 0.80545 -0.18600
Cl	Cl	0.88714 0.02691 0.92028 -0.21000
Cl	Cl	0.78407 0.04972 0.58130 -0.17300
Cl	Cl	0.67730 0.10138 0.61127 -0.20800
Cl	Cl	0.77589 0.27920 0.64328 -0.23400
Cl	Cl	0.88303 0.22787 0.62785 -0.18600
O 	O 	0.04822 0.24559 0.36330 -0.45600
O 	O 	0.04718 0.17671 0.27660 -0.41300
O 	O 	0.97810 0.94090 0.86140 -0.20300
O 	O 	0.90236 0.90359 0.82310 -0.37400
O 	O 	0.65876 0.19524 0.72820 -0.42700
O 	O 	0.66284 0.24719 0.60570 -0.38900
C 	C 	0.03380 0.20210 0.34350 0.54400
C 	C 	0.93510 0.93910 0.82290 0.43000
C 	C 	0.67900 0.21220 0.65550 0.50000
C 	C 	0.99470 0.17850 0.40920 -0.17500
C 	C 	0.94260 0.16910 0.38270 0.20900
C 	C 	0.90760 0.14710 0.44390 0.12000
C 	C 	0.92160 0.13430 0.53340 -0.01400
C 	C 	0.97420 0.14270 0.55850 0.13100
C 	C 	0.00940 0.16420 0.49630 0.20500
C 	C 	0.88180 0.11440 0.59880 0.13300
C 	C 	0.92030 0.98450 0.76330 -0.12700
C 	C 	0.92870 0.98490 0.66940 0.19500
C 	C 	0.91500 0.02590 0.61440 0.13800
C 	C 	0.89370 0.06960 0.65530 -0.01900
C 	C 	0.88560 0.06880 0.74970 0.12600
C 	C 	0.89800 0.02710 0.80290 0.18400
C 	C 	0.83090 0.13980 0.60780 -0.01500
C 	C 	0.78270 0.11280 0.60490 0.12100
C 	C 	0.73480 0.13580 0.61660 0.19500
C 	C 	0.73120 0.18740 0.63070 -0.16000
C 	C 	0.77770 0.21450 0.62780 0.19800
C 	C 	0.82660 0.19180 0.61800 0.12800
Gd	Gd	0.39778 0.68466 0.35316 1.60800
Cl	Cl	0.57644 0.81497 0.27388 -0.21400
Cl	Cl	0.65531 0.86605 0.40305 -0.18300
Cl	Cl	0.50447 0.87202 0.66726 -0.19700
Cl	Cl	0.42558 0.82702 0.52932 -0.22000
Cl	Cl	0.54282 0.06697 0.62034 -0.21100
Cl	Cl	0.57769 0.97872 0.49842 -0.17400
Cl	Cl	0.63603 0.87744 0.80545 -0.18600
Cl	Cl	0.61286 0.97309 0.92028 -0.21000
Cl	Cl	0.71593 0.95028 0.58130 -0.17300
Cl	Cl	0.82270 0.89862 0.61127 -0.20800
Cl	Cl	0.72411 0.72080 0.64328 -0.23400
Cl	Cl	0.61697 0.77213 0.62785 -0.18600
O 	O 	0.45178 0.75441 0.36330 -0.45600
O 	O 	0.45282 0.82329 0.27660 -0.41300
O 	O 	0.52190 0.05910 0.86140 -0.20200
O 	O 	0.59764 0.09641 0.82310 -0.37400
O 	O 	0.84124 0.80476 0.72820 -0.42700
O 	O 	0.83716 0.75281 0.60570 -0.38900
C 	C 	0.46620 0.79790 0.34350 0.54500
C 	C 	0.56490 0.06090 0.82290 0.42900
C 	C 	0.82100 0.78780 0.65550 0.50000
C 	C 	0.50530 0.82150 0.40920 -0.17600
C 	C 	0.55740 0.83090 0.38270 0.21000
C 	C 	0.59240 0.85290 0.44390 0.11900
C 	C 	0.57840 0.86570 0.53340 -0.01300
C 	C 	0.52580 0.85730 0.55850 0.13000
C 	C 	0.49060 0.83580 0.49630 0.20700
C 	C 	0.61820 0.88560 0.59880 0.13300
C 	C 	0.57970 0.01550 0.76330 -0.12600
C 	C 	0.57130 0.01510 0.66940 0.19600
C 	C 	0.58500 0.97410 0.61440 0.13700
C 	C 	0.60630 0.93040 0.65530 -0.01900
C 	C 	0.61440 0.93120 0.74970 0.12600
C 	C 	0.60200 0.97290 0.80290 0.18300
C 	C 	0.66910 0.86020 0.60780 -0.01500
C 	C 	0.71730 0.88720 0.60490 0.12100
C 	C 	0.76520 0.86420 0.61660 0.19500
C 	C 	0.76880 0.81260 0.63070 -0.16000
C 	C 	0.72230 0.78550 0.62780 0.19800
C 	C 	0.67340 0.80820 0.61800 0.12800
Gd	Gd	0.60222 0.18466 0.85316 1.60800
Cl	Cl	0.42356 0.31497 0.77388 -0.21400
Cl	Cl	0.34469 0.36605 0.90305 -0.18200
Cl	Cl	0.49553 0.37202 0.16726 -0.19700
Cl	Cl	0.57442 0.32702 0.02932 -0.22000
Cl	Cl	0.45718 0.56697 0.12034 -0.21200
Cl	Cl	0.42231 0.47872 0.99842 -0.17400
Cl	Cl	0.36397 0.37744 0.30545 -0.18600
Cl	Cl	0.38714 0.47309 0.42028 -0.21000
Cl	Cl	0.28407 0.45028 0.08130 -0.17300
Cl	Cl	0.17730 0.39862 0.11127 -0.20800
Cl	Cl	0.27589 0.22080 0.14328 -0.23400
Cl	Cl	0.38303 0.27213 0.12785 -0.18600
O 	O 	0.54822 0.25441 0.86330 -0.45600
O 	O 	0.54718 0.32329 0.77660 -0.41300
O 	O 	0.47810 0.55910 0.36140 -0.20200
O 	O 	0.40236 0.59641 0.32310 -0.37400
O 	O 	0.15876 0.30476 0.22820 -0.42700
O 	O 	0.16284 0.25281 0.10570 -0.38900
C 	C 	0.53380 0.29790 0.84350 0.54500
C 	C 	0.43510 0.56090 0.32290 0.42900
C 	C 	0.17900 0.28780 0.15550 0.50000
C 	C 	0.49470 0.32150 0.90920 -0.17600
C 	C 	0.44260 0.33090 0.88270 0.21000
C 	C 	0.40760 0.35290 0.94390 0.12000
C 	C 	0.42160 0.36570 0.03340 -0.01400
C 	C 	0.47420 0.35730 0.05850 0.13100
C 	C 	0.50940 0.33580 0.99630 0.20700
C 	C 	0.38180 0.38560 0.09880 0.13300
C 	C 	0.42030 0.51550 0.26330 -0.12600
C 	C 	0.42870 0.51510 0.16940 0.19600
C 	C 	0.41500 0.47410 0.11440 0.13700
C 	C 	0.39370 0.43040 0.15530 -0.01900
C 	C 	0.38560 0.43120 0.24970 0.12600
C 	C 	0.39800 0.47290 0.30290 0.18300
C 	C 	0.33090 0.36020 0.10780 -0.01500
C 	C 	0.28270 0.38720 0.10490 0.12100
C 	C 	0.23480 0.36420 0.11660 0.19500
C 	C 	0.23120 0.31260 0.13070 -0.16000
C 	C 	0.27770 0.28550 0.12780 0.19800
C 	C 	0.32660 0.30820 0.11800 0.12800
Gd	Gd	0.89778 0.81534 0.85316 1.60700
Cl	Cl	0.07644 0.68503 0.77388 -0.21300
Cl	Cl	0.15531 0.63395 0.90305 -0.18300
Cl	Cl	0.00447 0.62798 0.16726 -0.19700
Cl	Cl	0.92558 0.67298 0.02932 -0.21800
Cl	Cl	0.04282 0.43303 0.12034 -0.21200
Cl	Cl	0.07769 0.52128 0.99842 -0.17200
Cl	Cl	0.13603 0.62256 0.30545 -0.18600
Cl	Cl	0.11286 0.52691 0.42028 -0.21000
Cl	Cl	0.21593 0.54972 0.08130 -0.17300
Cl	Cl	0.32270 0.60138 0.11127 -0.20800
Cl	Cl	0.22411 0.77920 0.14328 -0.23400
Cl	Cl	0.11697 0.72787 0.12785 -0.18600
O 	O 	0.95178 0.74559 0.86330 -0.45600
O 	O 	0.95282 0.67671 0.77660 -0.41300
O 	O 	0.02190 0.44090 0.36140 -0.20200
O 	O 	0.09764 0.40359 0.32310 -0.37400
O 	O 	0.34124 0.69524 0.22820 -0.42700
O 	O 	0.33716 0.74719 0.10570 -0.38900
C 	C 	0.96620 0.70210 0.84350 0.54200
C 	C 	0.06490 0.43910 0.32290 0.42900
C 	C 	0.32100 0.71220 0.15550 0.50000
C 	C 	0.00530 0.67850 0.90920 -0.17200
C 	C 	0.05740 0.66910 0.88270 0.20800
C 	C 	0.09240 0.64710 0.94390 0.12200
C 	C 	0.07840 0.63430 0.03340 -0.01600
C 	C 	0.02580 0.64270 0.05850 0.13200
C 	C 	0.99060 0.66420 0.99630 0.20200
C 	C 	0.11820 0.61440 0.09880 0.13400
C 	C 	0.07970 0.48450 0.26330 -0.12600
C 	C 	0.07130 0.48490 0.16940 0.19600
C 	C 	0.08500 0.52590 0.11440 0.13600
C 	C 	0.10630 0.56960 0.15530 -0.01900
C 	C 	0.11440 0.56880 0.24970 0.12600
C 	C 	0.10200 0.52710 0.30290 0.18300
C 	C 	0.16910 0.63980 0.10780 -0.01500
C 	C 	0.21730 0.61280 0.10490 0.12100
C 	C 	0.26520 0.63580 0.11660 0.19500
C 	C 	0.26880 0.68740 0.13070 -0.16000
C 	C 	0.22230 0.71450 0.12780 0.19800
C 	C 	0.17340 0.69180 0.11800 0.12800
Gd	Gd	0.89778 0.68466 0.64684 1.60800
Cl	Cl	0.07644 0.81497 0.72612 -0.21300
Cl	Cl	0.15531 0.86605 0.59695 -0.18300
Cl	Cl	0.00447 0.87202 0.33274 -0.19700
Cl	Cl	0.92558 0.82702 0.47068 -0.22000
Cl	Cl	0.04282 0.06697 0.37966 -0.21200
Cl	Cl	0.07769 0.97872 0.50158 -0.17400
Cl	Cl	0.13603 0.87744 0.19455 -0.18600
Cl	Cl	0.11286 0.97309 0.07972 -0.21000
Cl	Cl	0.21593 0.95028 0.41870 -0.17300
Cl	Cl	0.32270 0.89862 0.38873 -0.20800
Cl	Cl	0.22411 0.72080 0.35672 -0.23400
Cl	Cl	0.11697 0.77213 0.37215 -0.18600
O 	O 	0.95178 0.75441 0.63670 -0.45600
O 	O 	0.95282 0.82329 0.72340 -0.41300
O 	O 	0.02190 0.05910 0.13860 -0.20300
O 	O 	0.09764 0.09641 0.17690 -0.37400
O 	O 	0.34124 0.80476 0.27180 -0.42700
O 	O 	0.33716 0.75281 0.39430 -0.38900
C 	C 	0.96620 0.79790 0.65650 0.54400
C 	C 	0.06490 0.06090 0.17710 0.43000
C 	C 	0.32100 0.78780 0.34450 0.50000
C 	C 	0.00530 0.82150 0.59080 -0.17500
C 	C 	0.05740 0.83090 0.61730 0.20900
C 	C 	0.09240 0.85290 0.55610 0.12000
C 	C 	0.07840 0.86570 0.46660 -0.01400
C 	C 	0.02580 0.85730 0.44150 0.13100
C 	C 	0.99060 0.83580 0.50370 0.20500
C 	C 	0.11820 0.88560 0.40120 0.13300
C 	C 	0.07970 0.01550 0.23670 -0.12700
C 	C 	0.07130 0.01510 0.33060 0.19500
C 	C 	0.08500 0.97410 0.38560 0.13800
C 	C 	0.10630 0.93040 0.34470 -0.01900
C 	C 	0.11440 0.93120 0.25030 0.12600
C 	C 	0.10200 0.97290 0.19710 0.18400
C 	C 	0.16910 0.86020 0.39220 -0.01500
C 	C 	0.21730 0.88720 0.39510 0.12100
C 	C 	0.26520 0.86420 0.38340 0.19500
C 	C 	0.26880 0.81260 0.36930 -0.16000
C 	C 	0.22230 0.78550 0.37220 0.19800
C 	C 	0.17340 0.80820 0.38200 0.12800
Gd	Gd	0.60222 0.31534 0.64684 1.60800
Cl	Cl	0.42356 0.18503 0.72612 -0.21400
Cl	Cl	0.34469 0.13395 0.59695 -0.18300
Cl	Cl	0.49553 0.12798 0.33274 -0.19700
Cl	Cl	0.57442 0.17298 0.47068 -0.22000
Cl	Cl	0.45718 0.93303 0.37966 -0.21100
Cl	Cl	0.42231 0.02128 0.50158 -0.17400
Cl	Cl	0.36397 0.12256 0.19455 -0.18600
Cl	Cl	0.38714 0.02691 0.07972 -0.21000
Cl	Cl	0.28407 0.04972 0.41870 -0.17300
Cl	Cl	0.17730 0.10138 0.38873 -0.20800
Cl	Cl	0.27589 0.27920 0.35672 -0.23400
Cl	Cl	0.38303 0.22787 0.37215 -0.18600
O 	O 	0.54822 0.24559 0.63670 -0.45600
O 	O 	0.54718 0.17671 0.72340 -0.41300
O 	O 	0.47810 0.94090 0.13860 -0.20200
O 	O 	0.40236 0.90359 0.17690 -0.37400
O 	O 	0.15876 0.19524 0.27180 -0.42700
O 	O 	0.16284 0.24719 0.39430 -0.38900
C 	C 	0.53380 0.20210 0.65650 0.54500
C 	C 	0.43510 0.93910 0.17710 0.42900
C 	C 	0.17900 0.21220 0.34450 0.50000
C 	C 	0.49470 0.17850 0.59080 -0.17600
C 	C 	0.44260 0.16910 0.61730 0.21000
C 	C 	0.40760 0.14710 0.55610 0.11900
C 	C 	0.42160 0.13430 0.46660 -0.01300
C 	C 	0.47420 0.14270 0.44150 0.13000
C 	C 	0.50940 0.16420 0.50370 0.20700
C 	C 	0.38180 0.11440 0.40120 0.13300
C 	C 	0.42030 0.98450 0.23670 -0.12600
C 	C 	0.42870 0.98490 0.33060 0.19600
C 	C 	0.41500 0.02590 0.38560 0.13700
C 	C 	0.39370 0.06960 0.34470 -0.01900
C 	C 	0.38560 0.06880 0.25030 0.12600
C 	C 	0.39800 0.02710 0.19710 0.18300
C 	C 	0.33090 0.13980 0.39220 -0.01500
C 	C 	0.28270 0.11280 0.39510 0.12100
C 	C 	0.23480 0.13580 0.38340 0.19500
C 	C 	0.23120 0.18740 0.36930 -0.16000
C 	C 	0.27770 0.21450 0.37220 0.19800
C 	C 	0.32660 0.19180 0.38200 0.12800
