data_crystal

_cell_length_a 25.12800
_cell_length_b 26.70400
_cell_length_c 14.85000
_cell_angle_alpha 90.00000
_cell_angle_beta  90.00000
_cell_angle_gamma 90.00000

_symmetry_space_group_name_	'P 1'
_symmetry_space_group_name_H-M	'P 1'

loop_
_symmetry_equiv_pos_as_xyz
  x,y,z

loop_
_atom_site_label
_atom_site_type_symbol
_atom_site_fract_x
_atom_site_fract_y
_atom_site_fract_z
_atom_site_charge
Eu	Eu	0.89933 0.68422 0.64956 1.94800
Cl	Cl	0.08050 0.81314 0.71935 -0.22000
Cl	Cl	0.15804 0.86565 0.59030 -0.18700
Cl	Cl	0.00129 0.87340 0.33887 -0.19900
Cl	Cl	0.92405 0.82728 0.47616 -0.22900
Cl	Cl	0.04173 0.06711 0.38110 -0.21300
Cl	Cl	0.07766 0.97872 0.49988 -0.17400
Cl	Cl	0.13288 0.87740 0.19740 -0.19000
Cl	Cl	0.11071 0.97330 0.08558 -0.22000
Cl	Cl	0.21603 0.95034 0.41440 -0.17300
Cl	Cl	0.32363 0.89815 0.38470 -0.21700
Cl	Cl	0.22308 0.72100 0.35534 -0.24600
Cl	Cl	0.11560 0.77286 0.37091 -0.19200
O 	O 	0.95410 0.75408 0.63930 -0.53600
O 	O 	0.95490 0.82342 0.72230 -0.46300
O 	O 	0.01810 0.06080 0.14910 -0.22700
O 	O 	0.09560 0.09604 0.18040 -0.43600
O 	O 	0.34200 0.80430 0.27190 -0.49900
O 	O 	0.33740 0.75250 0.39140 -0.44000
C 	C 	0.96820 0.79690 0.65600 0.58300
C 	C 	0.06230 0.06130 0.18320 0.46000
C 	C 	0.32110 0.78800 0.34200 0.54300
C 	C 	0.00730 0.82130 0.59000 -0.18500
C 	C 	0.05930 0.83050 0.61310 0.21000
C 	C 	0.09420 0.85250 0.55220 0.11900
C 	C 	0.07810 0.86640 0.46670 -0.01400
C 	C 	0.02470 0.85840 0.44490 0.12700
C 	C 	0.99070 0.83600 0.50480 0.20300
C 	C 	0.11710 0.88580 0.40130 0.13200
C 	C 	0.07790 0.01580 0.23970 -0.13800
C 	C 	0.06980 0.01490 0.33130 0.19600
C 	C 	0.08430 0.97420 0.38590 0.13800
C 	C 	0.10400 0.93070 0.34500 -0.01700
C 	C 	0.11170 0.93140 0.25220 0.12200
C 	C 	0.10000 0.97290 0.20230 0.18200
C 	C 	0.16870 0.86050 0.38990 -0.01100
C 	C 	0.21690 0.88680 0.39100 0.11500
C 	C 	0.26570 0.86370 0.37900 0.20400
C 	C 	0.26930 0.81250 0.36700 -0.18500
C 	C 	0.22180 0.78520 0.37020 0.20500
C 	C 	0.17270 0.80810 0.37940 0.12500
Eu	Eu	0.60067 0.31578 0.64956 1.94800
Cl	Cl	0.41950 0.18686 0.71935 -0.22000
Cl	Cl	0.34196 0.13435 0.59030 -0.18700
Cl	Cl	0.49871 0.12660 0.33887 -0.19900
Cl	Cl	0.57595 0.17272 0.47616 -0.22900
Cl	Cl	0.45827 0.93289 0.38110 -0.21200
Cl	Cl	0.42234 0.02128 0.49988 -0.17400
Cl	Cl	0.36712 0.12260 0.19740 -0.19000
Cl	Cl	0.38929 0.02670 0.08558 -0.22000
Cl	Cl	0.28397 0.04966 0.41440 -0.17300
Cl	Cl	0.17637 0.10185 0.38470 -0.21700
Cl	Cl	0.27692 0.27900 0.35534 -0.24600
Cl	Cl	0.38440 0.22714 0.37091 -0.19200
O 	O 	0.54590 0.24592 0.63930 -0.53600
O 	O 	0.54510 0.17658 0.72230 -0.46300
O 	O 	0.48190 0.93920 0.14910 -0.22600
O 	O 	0.40440 0.90396 0.18040 -0.43600
O 	O 	0.15800 0.19570 0.27190 -0.49900
O 	O 	0.16260 0.24750 0.39140 -0.44000
C 	C 	0.53180 0.20310 0.65600 0.58400
C 	C 	0.43770 0.93870 0.18320 0.46000
C 	C 	0.17890 0.21200 0.34200 0.54300
C 	C 	0.49270 0.17870 0.59000 -0.18700
C 	C 	0.44070 0.16950 0.61310 0.21000
C 	C 	0.40580 0.14750 0.55220 0.11800
C 	C 	0.42190 0.13360 0.46670 -0.01400
C 	C 	0.47530 0.14160 0.44490 0.12600
C 	C 	0.50930 0.16400 0.50480 0.20500
C 	C 	0.38290 0.11420 0.40130 0.13200
C 	C 	0.42210 0.98420 0.23970 -0.13800
C 	C 	0.43020 0.98510 0.33130 0.19600
C 	C 	0.41570 0.02580 0.38590 0.13700
C 	C 	0.39600 0.06930 0.34500 -0.01700
C 	C 	0.38830 0.06860 0.25220 0.12200
C 	C 	0.40000 0.02710 0.20230 0.18100
C 	C 	0.33130 0.13950 0.38990 -0.01100
C 	C 	0.28310 0.11320 0.39100 0.11500
C 	C 	0.23430 0.13630 0.37900 0.20400
C 	C 	0.23070 0.18750 0.36700 -0.18500
C 	C 	0.27820 0.21480 0.37020 0.20500
C 	C 	0.32730 0.19190 0.37940 0.12500
Eu	Eu	0.60067 0.18422 0.85044 1.94800
Cl	Cl	0.41950 0.31314 0.78065 -0.22000
Cl	Cl	0.34196 0.36565 0.90970 -0.18700
Cl	Cl	0.49871 0.37340 0.16113 -0.19900
Cl	Cl	0.57595 0.32728 0.02384 -0.22900
Cl	Cl	0.45827 0.56711 0.11890 -0.21200
Cl	Cl	0.42234 0.47872 0.00012 -0.17400
Cl	Cl	0.36712 0.37740 0.30260 -0.19000
Cl	Cl	0.38929 0.47330 0.41442 -0.21900
Cl	Cl	0.28397 0.45034 0.08560 -0.17300
Cl	Cl	0.17637 0.39815 0.11530 -0.21700
Cl	Cl	0.27692 0.22100 0.14466 -0.24700
Cl	Cl	0.38440 0.27286 0.12909 -0.19200
O 	O 	0.54590 0.25408 0.86070 -0.53600
O 	O 	0.54510 0.32342 0.77770 -0.46300
O 	O 	0.48190 0.56080 0.35090 -0.22600
O 	O 	0.40440 0.59604 0.31960 -0.43600
O 	O 	0.15800 0.30430 0.22810 -0.49900
O 	O 	0.16260 0.25250 0.10860 -0.44000
C 	C 	0.53180 0.29690 0.84400 0.58400
C 	C 	0.43770 0.56130 0.31680 0.46000
C 	C 	0.17890 0.28800 0.15800 0.54300
C 	C 	0.49270 0.32130 0.91000 -0.18700
C 	C 	0.44070 0.33050 0.88690 0.21000
C 	C 	0.40580 0.35250 0.94780 0.11900
C 	C 	0.42190 0.36640 0.03330 -0.01400
C 	C 	0.47530 0.35840 0.05510 0.12700
C 	C 	0.50930 0.33600 0.99520 0.20400
C 	C 	0.38290 0.38580 0.09870 0.13200
C 	C 	0.42210 0.51580 0.26030 -0.13800
C 	C 	0.43020 0.51490 0.16870 0.19600
C 	C 	0.41570 0.47420 0.11410 0.13700
C 	C 	0.39600 0.43070 0.15500 -0.01700
C 	C 	0.38830 0.43140 0.24780 0.12200
C 	C 	0.40000 0.47290 0.29770 0.18100
C 	C 	0.33130 0.36050 0.11010 -0.01100
C 	C 	0.28310 0.38680 0.10900 0.11500
C 	C 	0.23430 0.36370 0.12100 0.20400
C 	C 	0.23070 0.31250 0.13300 -0.18500
C 	C 	0.27820 0.28520 0.12980 0.20500
C 	C 	0.32730 0.30810 0.12060 0.12500
Eu	Eu	0.89933 0.81578 0.85044 1.94700
Cl	Cl	0.08050 0.68686 0.78065 -0.22000
Cl	Cl	0.15804 0.63435 0.90970 -0.18700
Cl	Cl	0.00129 0.62660 0.16113 -0.20000
Cl	Cl	0.92405 0.67272 0.02384 -0.22700
Cl	Cl	0.04173 0.43289 0.11890 -0.21300
Cl	Cl	0.07766 0.52128 0.00012 -0.17500
Cl	Cl	0.13288 0.62260 0.30260 -0.19000
Cl	Cl	0.11071 0.52670 0.41442 -0.21900
Cl	Cl	0.21603 0.54966 0.08560 -0.17300
Cl	Cl	0.32363 0.60185 0.11530 -0.21700
Cl	Cl	0.22308 0.77900 0.14466 -0.24700
Cl	Cl	0.11560 0.72714 0.12909 -0.19200
O 	O 	0.95410 0.74592 0.86070 -0.53600
O 	O 	0.95490 0.67658 0.77770 -0.46300
O 	O 	0.01810 0.43920 0.35090 -0.22600
O 	O 	0.09560 0.40396 0.31960 -0.43600
O 	O 	0.34200 0.69570 0.22810 -0.49900
O 	O 	0.33740 0.74750 0.10860 -0.44000
C 	C 	0.96820 0.70310 0.84400 0.58200
C 	C 	0.06230 0.43870 0.31680 0.46000
C 	C 	0.32110 0.71200 0.15800 0.54300
C 	C 	0.00730 0.67870 0.91000 -0.18300
C 	C 	0.05930 0.66950 0.88690 0.20900
C 	C 	0.09420 0.64750 0.94780 0.12100
C 	C 	0.07810 0.63360 0.03330 -0.01600
C 	C 	0.02470 0.64160 0.05510 0.12800
C 	C 	0.99070 0.66400 0.99520 0.20100
C 	C 	0.11710 0.61420 0.09870 0.13200
C 	C 	0.07790 0.48420 0.26030 -0.13800
C 	C 	0.06980 0.48510 0.16870 0.19600
C 	C 	0.08430 0.52580 0.11410 0.13700
C 	C 	0.10400 0.56930 0.15500 -0.01700
C 	C 	0.11170 0.56860 0.24780 0.12200
C 	C 	0.10000 0.52710 0.29770 0.18100
C 	C 	0.16870 0.63950 0.11010 -0.01100
C 	C 	0.21690 0.61320 0.10900 0.11500
C 	C 	0.26570 0.63630 0.12100 0.20400
C 	C 	0.26930 0.68750 0.13300 -0.18500
C 	C 	0.22180 0.71480 0.12980 0.20500
C 	C 	0.17270 0.69190 0.12060 0.12500
Eu	Eu	0.10067 0.31578 0.35044 1.94800
Cl	Cl	0.91950 0.18686 0.28065 -0.22000
Cl	Cl	0.84196 0.13435 0.40970 -0.18700
Cl	Cl	0.99871 0.12660 0.66113 -0.19900
Cl	Cl	0.07595 0.17272 0.52384 -0.22900
Cl	Cl	0.95827 0.93289 0.61890 -0.21300
Cl	Cl	0.92234 0.02128 0.50012 -0.17400
Cl	Cl	0.86712 0.12260 0.80260 -0.19000
Cl	Cl	0.88929 0.02670 0.91442 -0.22000
Cl	Cl	0.78397 0.04966 0.58560 -0.17300
Cl	Cl	0.67637 0.10185 0.61530 -0.21700
Cl	Cl	0.77692 0.27900 0.64466 -0.24600
Cl	Cl	0.88440 0.22714 0.62909 -0.19200
O 	O 	0.04590 0.24592 0.36070 -0.53600
O 	O 	0.04510 0.17658 0.27770 -0.46300
O 	O 	0.98190 0.93920 0.85090 -0.22700
O 	O 	0.90440 0.90396 0.81960 -0.43600
O 	O 	0.65800 0.19570 0.72810 -0.49900
O 	O 	0.66260 0.24750 0.60860 -0.44000
C 	C 	0.03180 0.20310 0.34400 0.58300
C 	C 	0.93770 0.93870 0.81680 0.46000
C 	C 	0.67890 0.21200 0.65800 0.54300
C 	C 	0.99270 0.17870 0.41000 -0.18500
C 	C 	0.94070 0.16950 0.38690 0.21000
C 	C 	0.90580 0.14750 0.44780 0.11900
C 	C 	0.92190 0.13360 0.53330 -0.01400
C 	C 	0.97530 0.14160 0.55510 0.12700
C 	C 	0.00930 0.16400 0.49520 0.20300
C 	C 	0.88290 0.11420 0.59870 0.13200
C 	C 	0.92210 0.98420 0.76030 -0.13800
C 	C 	0.93020 0.98510 0.66870 0.19600
C 	C 	0.91570 0.02580 0.61410 0.13800
C 	C 	0.89600 0.06930 0.65500 -0.01700
C 	C 	0.88830 0.06860 0.74780 0.12200
C 	C 	0.90000 0.02710 0.79770 0.18200
C 	C 	0.83130 0.13950 0.61010 -0.01100
C 	C 	0.78310 0.11320 0.60900 0.11500
C 	C 	0.73430 0.13630 0.62100 0.20400
C 	C 	0.73070 0.18750 0.63300 -0.18500
C 	C 	0.77820 0.21480 0.62980 0.20500
C 	C 	0.82730 0.19190 0.62060 0.12500
Eu	Eu	0.39933 0.68422 0.35044 1.94800
Cl	Cl	0.58050 0.81314 0.28065 -0.22000
Cl	Cl	0.65804 0.86565 0.40970 -0.18700
Cl	Cl	0.50129 0.87340 0.66113 -0.19900
Cl	Cl	0.42405 0.82728 0.52384 -0.22900
Cl	Cl	0.54173 0.06711 0.61890 -0.21200
Cl	Cl	0.57766 0.97872 0.50012 -0.17400
Cl	Cl	0.63288 0.87740 0.80260 -0.19000
Cl	Cl	0.61071 0.97330 0.91442 -0.22000
Cl	Cl	0.71603 0.95034 0.58560 -0.17300
Cl	Cl	0.82363 0.89815 0.61530 -0.21700
Cl	Cl	0.72308 0.72100 0.64466 -0.24600
Cl	Cl	0.61560 0.77286 0.62909 -0.19200
O 	O 	0.45410 0.75408 0.36070 -0.53600
O 	O 	0.45490 0.82342 0.27770 -0.46300
O 	O 	0.51810 0.06080 0.85090 -0.22600
O 	O 	0.59560 0.09604 0.81960 -0.43600
O 	O 	0.84200 0.80430 0.72810 -0.49900
O 	O 	0.83740 0.75250 0.60860 -0.44000
C 	C 	0.46820 0.79690 0.34400 0.58400
C 	C 	0.56230 0.06130 0.81680 0.46000
C 	C 	0.82110 0.78800 0.65800 0.54300
C 	C 	0.50730 0.82130 0.41000 -0.18700
C 	C 	0.55930 0.83050 0.38690 0.21000
C 	C 	0.59420 0.85250 0.44780 0.11800
C 	C 	0.57810 0.86640 0.53330 -0.01400
C 	C 	0.52470 0.85840 0.55510 0.12600
C 	C 	0.49070 0.83600 0.49520 0.20500
C 	C 	0.61710 0.88580 0.59870 0.13200
C 	C 	0.57790 0.01580 0.76030 -0.13800
C 	C 	0.56980 0.01490 0.66870 0.19600
C 	C 	0.58430 0.97420 0.61410 0.13700
C 	C 	0.60400 0.93070 0.65500 -0.01700
C 	C 	0.61170 0.93140 0.74780 0.12200
C 	C 	0.60000 0.97290 0.79770 0.18100
C 	C 	0.66870 0.86050 0.61010 -0.01100
C 	C 	0.71690 0.88680 0.60900 0.11500
C 	C 	0.76570 0.86370 0.62100 0.20400
C 	C 	0.76930 0.81250 0.63300 -0.18500
C 	C 	0.72180 0.78520 0.62980 0.20500
C 	C 	0.67270 0.80810 0.62060 0.12500
Eu	Eu	0.39933 0.81578 0.14956 1.94800
Cl	Cl	0.58050 0.68686 0.21935 -0.22000
Cl	Cl	0.65804 0.63435 0.09030 -0.18700
Cl	Cl	0.50129 0.62660 0.83887 -0.19900
Cl	Cl	0.42405 0.67272 0.97616 -0.22900
Cl	Cl	0.54173 0.43289 0.88110 -0.21200
Cl	Cl	0.57766 0.52128 0.99988 -0.17400
Cl	Cl	0.63288 0.62260 0.69740 -0.19000
Cl	Cl	0.61071 0.52670 0.58558 -0.21900
Cl	Cl	0.71603 0.54966 0.91440 -0.17300
Cl	Cl	0.82363 0.60185 0.88470 -0.21700
Cl	Cl	0.72308 0.77900 0.85534 -0.24700
Cl	Cl	0.61560 0.72714 0.87091 -0.19200
O 	O 	0.45410 0.74592 0.13930 -0.53600
O 	O 	0.45490 0.67658 0.22230 -0.46300
O 	O 	0.51810 0.43920 0.64910 -0.22600
O 	O 	0.59560 0.40396 0.68040 -0.43600
O 	O 	0.84200 0.69570 0.77190 -0.49900
O 	O 	0.83740 0.74750 0.89140 -0.44000
C 	C 	0.46820 0.70310 0.15600 0.58400
C 	C 	0.56230 0.43870 0.68320 0.46000
C 	C 	0.82110 0.71200 0.84200 0.54300
C 	C 	0.50730 0.67870 0.09000 -0.18700
C 	C 	0.55930 0.66950 0.11310 0.21000
C 	C 	0.59420 0.64750 0.05220 0.11900
C 	C 	0.57810 0.63360 0.96670 -0.01400
C 	C 	0.52470 0.64160 0.94490 0.12700
C 	C 	0.49070 0.66400 0.00480 0.20400
C 	C 	0.61710 0.61420 0.90130 0.13200
C 	C 	0.57790 0.48420 0.73970 -0.13800
C 	C 	0.56980 0.48510 0.83130 0.19600
C 	C 	0.58430 0.52580 0.88590 0.13700
C 	C 	0.60400 0.56930 0.84500 -0.01700
C 	C 	0.61170 0.56860 0.75220 0.12200
C 	C 	0.60000 0.52710 0.70230 0.18100
C 	C 	0.66870 0.63950 0.88990 -0.01100
C 	C 	0.71690 0.61320 0.89100 0.11500
C 	C 	0.76570 0.63630 0.87900 0.20400
C 	C 	0.76930 0.68750 0.86700 -0.18500
C 	C 	0.72180 0.71480 0.87020 0.20500
C 	C 	0.67270 0.69190 0.87940 0.12500
Eu	Eu	0.10067 0.18422 0.14956 1.94700
Cl	Cl	0.91950 0.31314 0.21935 -0.22000
Cl	Cl	0.84196 0.36565 0.09030 -0.18700
Cl	Cl	0.99871 0.37340 0.83887 -0.20000
Cl	Cl	0.07595 0.32728 0.97616 -0.22700
Cl	Cl	0.95827 0.56711 0.88110 -0.21300
Cl	Cl	0.92234 0.47872 0.99988 -0.17500
Cl	Cl	0.86712 0.37740 0.69740 -0.19000
Cl	Cl	0.88929 0.47330 0.58558 -0.21900
Cl	Cl	0.78397 0.45034 0.91440 -0.17300
Cl	Cl	0.67637 0.39815 0.88470 -0.21700
Cl	Cl	0.77692 0.22100 0.85534 -0.24700
Cl	Cl	0.88440 0.27286 0.87091 -0.19200
O 	O 	0.04590 0.25408 0.13930 -0.53600
O 	O 	0.04510 0.32342 0.22230 -0.46300
O 	O 	0.98190 0.56080 0.64910 -0.22600
O 	O 	0.90440 0.59604 0.68040 -0.43600
O 	O 	0.65800 0.30430 0.77190 -0.49900
O 	O 	0.66260 0.25250 0.89140 -0.44000
C 	C 	0.03180 0.29690 0.15600 0.58200
C 	C 	0.93770 0.56130 0.68320 0.46000
C 	C 	0.67890 0.28800 0.84200 0.54300
C 	C 	0.99270 0.32130 0.09000 -0.18300
C 	C 	0.94070 0.33050 0.11310 0.20900
C 	C 	0.90580 0.35250 0.05220 0.12100
C 	C 	0.92190 0.36640 0.96670 -0.01600
C 	C 	0.97530 0.35840 0.94490 0.12800
C 	C 	0.00930 0.33600 0.00480 0.20100
C 	C 	0.88290 0.38580 0.90130 0.13200
C 	C 	0.92210 0.51580 0.73970 -0.13800
C 	C 	0.93020 0.51490 0.83130 0.19600
C 	C 	0.91570 0.47420 0.88590 0.13700
C 	C 	0.89600 0.43070 0.84500 -0.01700
C 	C 	0.88830 0.43140 0.75220 0.12200
C 	C 	0.90000 0.47290 0.70230 0.18100
C 	C 	0.83130 0.36050 0.88990 -0.01100
C 	C 	0.78310 0.38680 0.89100 0.11500
C 	C 	0.73430 0.36370 0.87900 0.20400
C 	C 	0.73070 0.31250 0.86700 -0.18500
C 	C 	0.77820 0.28520 0.87020 0.20500
C 	C 	0.82730 0.30810 0.87940 0.12500
