data_crystal

_cell_length_a 18.70730
_cell_length_b 18.70730
_cell_length_c 7.97970
_cell_angle_alpha 90.00000
_cell_angle_beta  90.00000
_cell_angle_gamma 120.00000

_symmetry_space_group_name_	'P 1'
_symmetry_space_group_name_H-M	'P 1'

loop_
_symmetry_equiv_pos_as_xyz
  x,y,z

loop_
_atom_site_label
_atom_site_type_symbol
_atom_site_fract_x
_atom_site_fract_y
_atom_site_fract_z
_atom_site_charge
N 	N 	0.02868 0.10428 0.15310 -0.24800
N 	N 	0.08566 0.23160 0.24910 -0.11000
C 	C 	0.98743 0.10551 0.29460 0.06100
C 	C 	0.02279 0.18338 0.35620 -0.05700
C 	C 	0.08768 0.18139 0.13000 0.07300
C 	C 	0.13860 0.32151 0.25790 -0.06200
H 	H 	0.94000 0.05900 0.34100 0.00000
H 	H 	0.01100 0.20100 0.45800 0.04200
H 	H 	0.13000 0.20400 0.04200 -0.00500
H 	H 	0.11000 0.35200 0.26300 0.04900
H 	H 	0.17400 0.33700 0.15500 0.04700
N 	N 	0.69535 0.43761 0.48643 -0.22700
N 	N 	0.75233 0.56493 0.58243 -0.11600
C 	C 	0.65410 0.43884 0.62793 0.00300
C 	C 	0.68946 0.51671 0.68953 -0.00800
C 	C 	0.75435 0.51472 0.46333 0.07800
C 	C 	0.80527 0.65484 0.59123 -0.06000
H 	H 	0.60667 0.39233 0.67433 0.02100
H 	H 	0.67767 0.53433 0.79133 0.03300
H 	H 	0.79667 0.53733 0.37533 -0.00000
H 	H 	0.77667 0.68533 0.59633 0.05300
H 	H 	0.84067 0.67033 0.48833 0.05100
N 	N 	0.36201 0.77095 0.81977 -0.23500
N 	N 	0.41899 0.89827 0.91577 -0.12400
C 	C 	0.32076 0.77218 0.96127 0.05400
C 	C 	0.35612 0.85005 0.02287 -0.04800
C 	C 	0.42101 0.84806 0.79667 0.08800
C 	C 	0.47193 0.98818 0.92457 0.09500
H 	H 	0.27333 0.72567 0.00767 -0.00500
H 	H 	0.34433 0.86767 0.12467 0.04400
H 	H 	0.46333 0.87067 0.70867 -0.00100
H 	H 	0.44333 0.01867 0.92967 -0.00100
H 	H 	0.50733 0.00367 0.82167 -0.00300
N 	N 	0.89572 0.92440 0.15310 -0.22100
N 	N 	0.76840 0.85406 0.24910 -0.11600
C 	C 	0.89449 0.88192 0.29460 0.00400
C 	C 	0.81662 0.83941 0.35620 -0.00700
C 	C 	0.81861 0.90629 0.13000 0.07900
C 	C 	0.67849 0.81709 0.25790 -0.05700
H 	H 	0.94100 0.88100 0.34100 0.02700
H 	H 	0.79900 0.81000 0.45800 0.03200
H 	H 	0.79600 0.92600 0.04200 -0.00100
H 	H 	0.64800 0.75800 0.26300 0.05000
H 	H 	0.66300 0.83700 0.15500 0.04800
N 	N 	0.56239 0.25773 0.48643 -0.22700
N 	N 	0.43507 0.18739 0.58243 -0.11700
C 	C 	0.56116 0.21525 0.62793 0.00300
C 	C 	0.48329 0.17274 0.68953 -0.01000
C 	C 	0.48528 0.23962 0.46333 0.07800
C 	C 	0.34516 0.15042 0.59123 -0.05600
H 	H 	0.60767 0.21433 0.67433 0.02100
H 	H 	0.46567 0.14333 0.79133 0.03400
H 	H 	0.46267 0.25933 0.37533 -0.00200
H 	H 	0.31467 0.09133 0.59633 0.04700
H 	H 	0.32967 0.17033 0.48833 0.04700
N 	N 	0.22905 0.59107 0.81977 -0.23400
N 	N 	0.10173 0.52073 0.91577 -0.08500
C 	C 	0.22782 0.54859 0.96127 0.06500
C 	C 	0.14995 0.50608 0.02287 -0.06900
C 	C 	0.15194 0.57296 0.79667 0.07300
C 	C 	0.01182 0.48376 0.92457 -0.19000
H 	H 	0.27433 0.54767 0.00767 -0.00900
H 	H 	0.13233 0.47667 0.12467 0.05000
H 	H 	0.12933 0.59267 0.70867 -0.00100
H 	H 	0.98133 0.42467 0.92967 0.10700
H 	H 	0.99633 0.50367 0.82167 0.09800
N 	N 	0.07560 0.97132 0.15310 -0.21200
N 	N 	0.14594 0.91434 0.24910 -0.12200
C 	C 	0.11808 0.01257 0.29460 -0.05700
C 	C 	0.16059 0.97721 0.35620 0.03500
C 	C 	0.09371 0.91232 0.13000 0.07700
C 	C 	0.18291 0.86140 0.25790 -0.05800
H 	H 	0.11900 0.06000 0.34100 0.03400
H 	H 	0.19000 0.98900 0.45800 0.02300
H 	H 	0.07400 0.87000 0.04200 -0.00700
H 	H 	0.24200 0.89000 0.26300 0.05300
H 	H 	0.16300 0.82600 0.15500 0.04700
N 	N 	0.74227 0.30465 0.48643 -0.22700
N 	N 	0.81261 0.24767 0.58243 -0.11500
C 	C 	0.78475 0.34590 0.62793 0.00300
C 	C 	0.82726 0.31054 0.68953 -0.00700
C 	C 	0.76038 0.24565 0.46333 0.07900
C 	C 	0.84958 0.19473 0.59123 -0.06000
H 	H 	0.78567 0.39333 0.67433 0.02100
H 	H 	0.85667 0.32233 0.79133 0.03200
H 	H 	0.74067 0.20333 0.37533 -0.00200
H 	H 	0.90867 0.22333 0.59633 0.05700
H 	H 	0.82967 0.15933 0.48833 0.05000
N 	N 	0.40893 0.63799 0.81977 -0.23400
N 	N 	0.47927 0.58101 0.91577 -0.10500
C 	C 	0.45141 0.67924 0.96127 0.05700
C 	C 	0.49392 0.64388 0.02287 -0.05600
C 	C 	0.42704 0.57899 0.79667 0.08100
C 	C 	0.51624 0.52807 0.92457 -0.04600
H 	H 	0.45233 0.72667 0.00767 -0.00600
H 	H 	0.52333 0.65567 0.12467 0.04600
H 	H 	0.40733 0.53667 0.70867 -0.00100
H 	H 	0.57533 0.55667 0.92967 0.05200
H 	H 	0.49633 0.49267 0.82167 0.04800
N 	N 	0.97132 0.89572 0.84690 -0.20600
N 	N 	0.91434 0.76840 0.75090 -0.12000
C 	C 	0.01257 0.89449 0.70540 -0.04000
C 	C 	0.97721 0.81662 0.64380 0.02900
C 	C 	0.91232 0.81861 0.87000 0.08300
C 	C 	0.86140 0.67849 0.74210 -0.05900
H 	H 	0.06000 0.94100 0.65900 0.03800
H 	H 	0.98900 0.79900 0.54200 0.02500
H 	H 	0.87000 0.79600 0.95800 0.00300
H 	H 	0.89000 0.64800 0.73700 0.05600
H 	H 	0.82600 0.66300 0.84500 0.05200
N 	N 	0.63799 0.22905 0.18023 -0.22000
N 	N 	0.58101 0.10173 0.08423 -0.10700
C 	C 	0.67924 0.22782 0.03873 -0.04700
C 	C 	0.64388 0.14995 0.97713 0.03100
C 	C 	0.57899 0.15194 0.20333 0.06800
C 	C 	0.52807 0.01182 0.07543 -0.21900
H 	H 	0.72667 0.27433 0.99233 0.04500
H 	H 	0.65567 0.13233 0.87533 0.02000
H 	H 	0.53667 0.12933 0.29133 -0.00100
H 	H 	0.55667 0.98133 0.07033 0.10900
H 	H 	0.49267 0.99633 0.17833 0.10500
N 	N 	0.30465 0.56239 0.51357 -0.22700
N 	N 	0.24767 0.43507 0.41757 -0.11600
C 	C 	0.34590 0.56116 0.37207 0.00200
C 	C 	0.31054 0.48329 0.31047 -0.00800
C 	C 	0.24565 0.48528 0.53667 0.07800
C 	C 	0.19473 0.34516 0.40877 -0.06000
H 	H 	0.39333 0.60767 0.32567 0.02000
H 	H 	0.32233 0.46567 0.20867 0.03000
H 	H 	0.20333 0.46267 0.62467 -0.00100
H 	H 	0.22333 0.31467 0.40367 0.05200
H 	H 	0.15933 0.32967 0.51167 0.05000
N 	N 	0.10428 0.07560 0.84690 -0.22800
N 	N 	0.23160 0.14594 0.75090 -0.11500
C 	C 	0.10551 0.11808 0.70540 0.00100
C 	C 	0.18338 0.16059 0.64380 -0.00900
C 	C 	0.18139 0.09371 0.87000 0.07800
C 	C 	0.32151 0.18291 0.74210 -0.06400
H 	H 	0.05900 0.11900 0.65900 0.01500
H 	H 	0.20100 0.19000 0.54200 0.03100
H 	H 	0.20400 0.07400 0.95800 0.00000
H 	H 	0.35200 0.24200 0.73700 0.05600
H 	H 	0.33700 0.16300 0.84500 0.05200
N 	N 	0.77095 0.40893 0.18023 -0.22100
N 	N 	0.89827 0.47927 0.08423 -0.14500
C 	C 	0.77218 0.45141 0.03873 -0.05100
C 	C 	0.85005 0.49392 0.97713 0.04400
C 	C 	0.84806 0.42704 0.20333 0.08400
C 	C 	0.98818 0.51624 0.07543 0.07700
H 	H 	0.72567 0.45233 0.99233 0.04600
H 	H 	0.86767 0.52333 0.87533 0.01600
H 	H 	0.87067 0.40733 0.29133 -0.00100
H 	H 	0.01867 0.57533 0.07033 -0.00400
H 	H 	0.00367 0.49633 0.17833 -0.00200
N 	N 	0.43761 0.74227 0.51357 -0.22700
N 	N 	0.56493 0.81261 0.41757 -0.11500
C 	C 	0.43884 0.78475 0.37207 0.00200
C 	C 	0.51671 0.82726 0.31047 -0.00700
C 	C 	0.51472 0.76038 0.53667 0.07900
C 	C 	0.65484 0.84958 0.40877 -0.06400
H 	H 	0.39233 0.78567 0.32567 0.02000
H 	H 	0.53433 0.85667 0.20867 0.03000
H 	H 	0.53733 0.74067 0.62467 0.00000
H 	H 	0.68533 0.90867 0.40367 0.05800
H 	H 	0.67033 0.82967 0.51167 0.05300
N 	N 	0.92440 0.02868 0.84690 -0.23300
N 	N 	0.85406 0.08566 0.75090 -0.11100
C 	C 	0.88192 0.98743 0.70540 0.05000
C 	C 	0.83941 0.02279 0.64380 -0.04100
C 	C 	0.90629 0.08768 0.87000 0.08000
C 	C 	0.81709 0.13860 0.74210 -0.06100
H 	H 	0.88100 0.94000 0.65900 0.01100
H 	H 	0.81000 0.01100 0.54200 0.03900
H 	H 	0.92600 0.13000 0.95800 0.00600
H 	H 	0.75800 0.11000 0.73700 0.05300
H 	H 	0.83700 0.17400 0.84500 0.05300
N 	N 	0.59107 0.36201 0.18023 -0.22000
N 	N 	0.52073 0.41899 0.08423 -0.12700
C 	C 	0.54859 0.32076 0.03873 -0.05200
C 	C 	0.50608 0.35612 0.97713 0.04100
C 	C 	0.57296 0.42101 0.20333 0.07600
C 	C 	0.48376 0.47193 0.07543 -0.07300
H 	H 	0.54767 0.27333 0.99233 0.04700
H 	H 	0.47667 0.34433 0.87533 0.01700
H 	H 	0.59267 0.46333 0.29133 -0.00100
H 	H 	0.42467 0.44333 0.07033 0.05300
H 	H 	0.50367 0.50733 0.17833 0.05200
N 	N 	0.25773 0.69535 0.51357 -0.22700
N 	N 	0.18739 0.75233 0.41757 -0.11600
C 	C 	0.21525 0.65410 0.37207 0.00200
C 	C 	0.17274 0.68946 0.31047 -0.00900
C 	C 	0.23962 0.75435 0.53667 0.07800
C 	C 	0.15042 0.80527 0.40877 -0.06000
H 	H 	0.21433 0.60667 0.32567 0.02000
H 	H 	0.14333 0.67767 0.20867 0.03100
H 	H 	0.25933 0.79667 0.62467 0.00100
H 	H 	0.09133 0.77667 0.40367 0.04900
H 	H 	0.17033 0.84067 0.51167 0.05100
Ni	Ni	-0.00000 0.00000 -0.00000 1.03400
Ni	Ni	0.66667 0.33333 0.33333 1.05400
Ni	Ni	0.33333 0.66667 0.66667 1.05600
