data_crystal

_cell_length_a 19.32900
_cell_length_b 20.08800
_cell_length_c 12.12000
_cell_angle_alpha 90.00000
_cell_angle_beta  90.00000
_cell_angle_gamma 90.00000

_symmetry_space_group_name_	'P 1'
_symmetry_space_group_name_H-M	'P 1'

loop_
_symmetry_equiv_pos_as_xyz
  x,y,z

loop_
_atom_site_label
_atom_site_type_symbol
_atom_site_fract_x
_atom_site_fract_y
_atom_site_fract_z
_atom_site_charge
C 	C 	0.78790 0.10530 0.34490 0.51300
C 	C 	0.71100 0.00560 0.38640 0.52500
C 	C 	0.79490 0.95910 0.54800 -0.22100
H 	H 	0.82470 0.94300 0.60200 0.23200
C 	C 	0.77270 0.04260 0.40840 -0.37500
C 	C 	0.81210 0.01740 0.49410 0.51500
C 	C 	0.69660 0.94980 0.44350 -0.25300
H 	H 	0.65640 0.92670 0.42580 0.19400
C 	C 	0.97400 0.19330 0.37610 -0.26000
H 	H 	0.94980 0.15330 0.37110 0.18000
C 	C 	0.04490 0.19240 0.38230 0.55600
C 	C 	0.35960 0.20200 0.77270 0.44900
C 	C 	0.86040 0.29710 0.61590 -0.22800
H 	H 	0.88520 0.32990 0.57890 0.19300
C 	C 	0.29170 0.29590 0.88440 0.03600
H 	H 	0.26910 0.32990 0.92190 0.04200
C 	C 	0.78790 0.29570 0.72590 0.02800
Co	Co	0.70744 0.83564 0.61457 1.16300
F 	F 	0.87260 0.04500 0.52400 -0.43300
F 	F 	0.40270 0.15670 0.72530 -0.42600
F 	F 	0.07510 0.13430 0.39000 -0.45400
N 	N 	0.73760 0.92530 0.52590 -0.08200
O 	O 	0.76260 0.10990 0.25230 -0.43500
O 	O 	0.82730 0.14720 0.39180 -0.45200
O 	O 	0.81980 0.19460 0.95830 -0.45100
O 	O 	0.19010 0.19480 0.39710 -0.42700
F 	F 	0.16500 0.02610 0.18600 -0.45000
C 	C 	0.71210 0.89470 0.84490 0.51300
C 	C 	0.78900 0.99440 0.88640 0.51800
C 	C 	0.70510 0.04090 0.04800 -0.21800
H 	H 	0.67530 0.05700 0.10200 0.23200
C 	C 	0.72730 0.95740 0.90840 -0.36900
C 	C 	0.68790 0.98260 0.99410 0.50900
C 	C 	0.80340 0.05020 0.94350 -0.24200
H 	H 	0.84360 0.07330 0.92580 0.19100
C 	C 	0.52600 0.80670 0.87610 -0.26000
H 	H 	0.55020 0.84670 0.87110 0.18000
C 	C 	0.45510 0.80760 0.88230 0.55600
C 	C 	0.14040 0.79800 0.27270 0.44900
C 	C 	0.63960 0.70290 0.11590 -0.22800
H 	H 	0.61480 0.67010 0.07890 0.19400
C 	C 	0.20830 0.70410 0.38440 0.03600
H 	H 	0.23090 0.67010 0.42190 0.04200
C 	C 	0.71210 0.70430 0.22590 0.02800
Co	Co	0.79256 0.16436 0.11457 1.16200
F 	F 	0.62740 0.95500 0.02400 -0.42900
F 	F 	0.09730 0.84330 0.22530 -0.42600
F 	F 	0.42490 0.86570 0.89000 -0.45500
N 	N 	0.76240 0.07470 0.02590 -0.08600
O 	O 	0.73740 0.89010 0.75230 -0.43500
O 	O 	0.67270 0.85280 0.89180 -0.45200
O 	O 	0.68020 0.80540 0.45830 -0.45200
O 	O 	0.30990 0.80520 0.89710 -0.42700
F 	F 	0.33500 0.97390 0.68600 -0.45100
C 	C 	0.21210 0.60530 0.65510 0.51400
C 	C 	0.28900 0.50560 0.61360 0.52700
C 	C 	0.20510 0.45910 0.45200 -0.22000
H 	H 	0.17530 0.44300 0.39800 0.23300
C 	C 	0.22730 0.54260 0.59160 -0.37300
C 	C 	0.18790 0.51740 0.50590 0.51600
C 	C 	0.30340 0.44980 0.55650 -0.25400
H 	H 	0.34360 0.42670 0.57420 0.19400
C 	C 	0.02600 0.69330 0.62390 -0.26000
H 	H 	0.05020 0.65330 0.62890 0.18000
C 	C 	0.95510 0.69240 0.61770 0.55600
C 	C 	0.64040 0.70200 0.22730 0.44900
C 	C 	0.13960 0.79710 0.38410 -0.22800
H 	H 	0.11480 0.82990 0.42110 0.19300
C 	C 	0.70830 0.79590 0.11560 0.03600
H 	H 	0.73090 0.82990 0.07810 0.04300
C 	C 	0.21210 0.79570 0.27410 0.02900
Co	Co	0.29256 0.33564 0.38543 1.16300
F 	F 	0.12740 0.54500 0.47600 -0.43300
F 	F 	0.59730 0.65670 0.27470 -0.42600
F 	F 	0.92490 0.63430 0.61000 -0.45400
N 	N 	0.26240 0.42530 0.47410 -0.08200
O 	O 	0.23740 0.60990 0.74770 -0.43500
O 	O 	0.17270 0.64720 0.60820 -0.45200
O 	O 	0.18020 0.69460 0.04170 -0.45100
O 	O 	0.80990 0.69480 0.60290 -0.42700
F 	F 	0.83500 0.52610 0.81400 -0.45100
C 	C 	0.28790 0.39470 0.15510 0.51400
C 	C 	0.21100 0.49440 0.11360 0.52600
C 	C 	0.29490 0.54090 0.95200 -0.22000
H 	H 	0.32470 0.55700 0.89800 0.23400
C 	C 	0.27270 0.45740 0.09160 -0.37300
C 	C 	0.31210 0.48260 0.00590 0.51600
C 	C 	0.19660 0.55020 0.05650 -0.25300
H 	H 	0.15640 0.57330 0.07420 0.19400
C 	C 	0.47400 0.30670 0.12390 -0.26000
H 	H 	0.44980 0.34670 0.12890 0.18000
C 	C 	0.54490 0.30760 0.11770 0.55600
C 	C 	0.85960 0.29800 0.72730 0.44900
C 	C 	0.36040 0.20290 0.88410 -0.22800
H 	H 	0.38520 0.17010 0.92110 0.19400
C 	C 	0.79170 0.20410 0.61560 0.03600
H 	H 	0.76910 0.17010 0.57810 0.04300
C 	C 	0.28790 0.20430 0.77410 0.02800
Co	Co	0.20744 0.66436 0.88543 1.16300
F 	F 	0.37260 0.45500 0.97600 -0.43300
F 	F 	0.90270 0.34330 0.77470 -0.42600
F 	F 	0.57510 0.36570 0.11000 -0.45400
N 	N 	0.23760 0.57470 0.97410 -0.08200
O 	O 	0.26260 0.39010 0.24770 -0.43500
O 	O 	0.32730 0.35280 0.10820 -0.45200
O 	O 	0.31980 0.30540 0.54170 -0.45200
O 	O 	0.69010 0.30520 0.10290 -0.42700
F 	F 	0.66500 0.47390 0.31400 -0.45000
C 	C 	0.21210 0.89470 0.65510 0.51400
C 	C 	0.28900 0.99440 0.61360 0.52600
C 	C 	0.20510 0.04090 0.45200 -0.22000
H 	H 	0.17530 0.05700 0.39800 0.23300
C 	C 	0.22730 0.95740 0.59160 -0.37400
C 	C 	0.18790 0.98260 0.50590 0.51600
C 	C 	0.30340 0.05020 0.55650 -0.25300
H 	H 	0.34360 0.07330 0.57420 0.19400
C 	C 	0.02600 0.80670 0.62390 -0.26000
H 	H 	0.05020 0.84670 0.62890 0.18000
C 	C 	0.95510 0.80760 0.61770 0.55600
C 	C 	0.64040 0.79800 0.22730 0.44900
C 	C 	0.13960 0.70290 0.38410 -0.22800
H 	H 	0.11480 0.67010 0.42110 0.19300
C 	C 	0.70830 0.70410 0.11560 0.03600
H 	H 	0.73090 0.67010 0.07810 0.04200
C 	C 	0.21210 0.70430 0.27410 0.02800
Co	Co	0.29256 0.16436 0.38543 1.16300
F 	F 	0.12740 0.95500 0.47600 -0.43300
F 	F 	0.59730 0.84330 0.27470 -0.42600
F 	F 	0.92490 0.86570 0.61000 -0.45400
N 	N 	0.26240 0.07470 0.47410 -0.08200
O 	O 	0.23740 0.89010 0.74770 -0.43500
O 	O 	0.17270 0.85280 0.60820 -0.45200
O 	O 	0.18020 0.80540 0.04170 -0.45100
O 	O 	0.80990 0.80520 0.60290 -0.42700
F 	F 	0.83500 0.97390 0.81400 -0.45000
C 	C 	0.28790 0.10530 0.15510 0.51300
C 	C 	0.21100 0.00560 0.11360 0.51800
C 	C 	0.29490 0.95910 0.95200 -0.21800
H 	H 	0.32470 0.94300 0.89800 0.23200
C 	C 	0.27270 0.04260 0.09160 -0.36900
C 	C 	0.31210 0.01740 0.00590 0.50900
C 	C 	0.19660 0.94980 0.05650 -0.24200
H 	H 	0.15640 0.92670 0.07420 0.19100
C 	C 	0.47400 0.19330 0.12390 -0.26000
H 	H 	0.44980 0.15330 0.12890 0.18000
C 	C 	0.54490 0.19240 0.11770 0.55600
C 	C 	0.85960 0.20200 0.72730 0.44900
C 	C 	0.36040 0.29710 0.88410 -0.22800
H 	H 	0.38520 0.32990 0.92110 0.19400
C 	C 	0.79170 0.29590 0.61560 0.03600
H 	H 	0.76910 0.32990 0.57810 0.04200
C 	C 	0.28790 0.29570 0.77410 0.02800
Co	Co	0.20744 0.83564 0.88543 1.16200
F 	F 	0.37260 0.04500 0.97600 -0.42900
F 	F 	0.90270 0.15670 0.77470 -0.42600
F 	F 	0.57510 0.13430 0.11000 -0.45500
N 	N 	0.23760 0.92530 0.97410 -0.08600
O 	O 	0.26260 0.10990 0.24770 -0.43500
O 	O 	0.32730 0.14720 0.10820 -0.45200
O 	O 	0.31980 0.19460 0.54170 -0.45200
O 	O 	0.69010 0.19480 0.10290 -0.42700
F 	F 	0.66500 0.02610 0.31400 -0.45100
C 	C 	0.78790 0.39470 0.34490 0.51400
C 	C 	0.71100 0.49440 0.38640 0.52700
C 	C 	0.79490 0.54090 0.54800 -0.22000
H 	H 	0.82470 0.55700 0.60200 0.23300
C 	C 	0.77270 0.45740 0.40840 -0.37300
C 	C 	0.81210 0.48260 0.49410 0.51600
C 	C 	0.69660 0.55020 0.44350 -0.25400
H 	H 	0.65640 0.57330 0.42580 0.19400
C 	C 	0.97400 0.30670 0.37610 -0.26000
H 	H 	0.94980 0.34670 0.37110 0.18000
C 	C 	0.04490 0.30760 0.38230 0.55600
C 	C 	0.35960 0.29800 0.77270 0.44900
C 	C 	0.86040 0.20290 0.61590 -0.22800
H 	H 	0.88520 0.17010 0.57890 0.19300
C 	C 	0.29170 0.20410 0.88440 0.03600
H 	H 	0.26910 0.17010 0.92190 0.04300
C 	C 	0.78790 0.20430 0.72590 0.02900
Co	Co	0.70744 0.66436 0.61457 1.16300
F 	F 	0.87260 0.45500 0.52400 -0.43300
F 	F 	0.40270 0.34330 0.72530 -0.42600
F 	F 	0.07510 0.36570 0.39000 -0.45400
N 	N 	0.73760 0.57470 0.52590 -0.08200
O 	O 	0.76260 0.39010 0.25230 -0.43500
O 	O 	0.82730 0.35280 0.39180 -0.45200
O 	O 	0.81980 0.30540 0.95830 -0.45100
O 	O 	0.19010 0.30520 0.39710 -0.42700
F 	F 	0.16500 0.47390 0.18600 -0.45100
C 	C 	0.71210 0.60530 0.84490 0.51400
C 	C 	0.78900 0.50560 0.88640 0.52600
C 	C 	0.70510 0.45910 0.04800 -0.22000
H 	H 	0.67530 0.44300 0.10200 0.23400
C 	C 	0.72730 0.54260 0.90840 -0.37300
C 	C 	0.68790 0.51740 0.99410 0.51600
C 	C 	0.80340 0.44980 0.94350 -0.25300
H 	H 	0.84360 0.42670 0.92580 0.19400
C 	C 	0.52600 0.69330 0.87610 -0.26000
H 	H 	0.55020 0.65330 0.87110 0.18000
C 	C 	0.45510 0.69240 0.88230 0.55600
C 	C 	0.14040 0.70200 0.27270 0.44900
C 	C 	0.63960 0.79710 0.11590 -0.22800
H 	H 	0.61480 0.82990 0.07890 0.19400
C 	C 	0.20830 0.79590 0.38440 0.03600
H 	H 	0.23090 0.82990 0.42190 0.04300
C 	C 	0.71210 0.79570 0.22590 0.02800
Co	Co	0.79256 0.33564 0.11457 1.16300
F 	F 	0.62740 0.54500 0.02400 -0.43300
F 	F 	0.09730 0.65670 0.22530 -0.42600
F 	F 	0.42490 0.63430 0.89000 -0.45400
N 	N 	0.76240 0.42530 0.02590 -0.08200
O 	O 	0.73740 0.60990 0.75230 -0.43500
O 	O 	0.67270 0.64720 0.89180 -0.45200
O 	O 	0.68020 0.69460 0.45830 -0.45200
O 	O 	0.30990 0.69480 0.89710 -0.42700
F 	F 	0.33500 0.52610 0.68600 -0.45000
C 	C 	0.08220 0.25000 0.38930 -0.39800
C 	C 	0.82030 0.25000 0.91380 0.54700
C 	C 	0.16370 0.25000 0.39450 0.53900
C 	C 	0.82410 0.25000 0.78790 -0.36200
Co	Co	0.82688 0.25000 0.37047 1.13500
N 	N 	0.82640 0.25000 0.55480 -0.13300
N 	N 	0.93960 0.25000 0.37700 -0.09300
O 	O 	0.82580 0.25000 0.19830 -0.60300
C 	C 	0.41780 0.75000 0.88930 -0.39800
C 	C 	0.67970 0.75000 0.41380 0.54700
C 	C 	0.33630 0.75000 0.89450 0.53900
C 	C 	0.67590 0.75000 0.28790 -0.36300
Co	Co	0.67312 0.75000 0.87047 1.13500
N 	N 	0.67360 0.75000 0.05480 -0.13300
N 	N 	0.56040 0.75000 0.87700 -0.09300
O 	O 	0.67420 0.75000 0.69830 -0.60300
C 	C 	0.91780 0.75000 0.61070 -0.39800
C 	C 	0.17970 0.75000 0.08620 0.54700
C 	C 	0.83630 0.75000 0.60550 0.53900
C 	C 	0.17590 0.75000 0.21210 -0.36200
Co	Co	0.17312 0.75000 0.62953 1.13500
N 	N 	0.17360 0.75000 0.44520 -0.13300
N 	N 	0.06040 0.75000 0.62300 -0.09300
O 	O 	0.17420 0.75000 0.80170 -0.60300
C 	C 	0.58220 0.25000 0.11070 -0.39800
C 	C 	0.32030 0.25000 0.58620 0.54700
C 	C 	0.66370 0.25000 0.10550 0.53900
C 	C 	0.32410 0.25000 0.71210 -0.36300
Co	Co	0.32688 0.25000 0.12953 1.13500
N 	N 	0.32640 0.25000 0.94520 -0.13300
N 	N 	0.43960 0.25000 0.12300 -0.09300
O 	O 	0.32580 0.25000 0.30170 -0.60300
