data_crystal

_cell_length_a 9.81000
_cell_length_b 12.75300
_cell_length_c 10.91700
_cell_angle_alpha 90.00000
_cell_angle_beta  100.63000
_cell_angle_gamma 90.00000

_symmetry_space_group_name_	'P 1'
_symmetry_space_group_name_H-M	'P 1'

loop_
_symmetry_equiv_pos_as_xyz
  x,y,z

loop_
_atom_site_label
_atom_site_type_symbol
_atom_site_fract_x
_atom_site_fract_y
_atom_site_fract_z
_atom_site_charge
C 	C 	0.13600 0.51480 0.67750 0.03200
H 	H 	0.13260 0.52380 0.76140 0.02400
N 	N 	0.13950 0.41680 0.63260 -0.20300
C 	C 	0.14580 0.40440 0.51410 0.04300
H 	H 	0.14680 0.33680 0.48220 0.01900
O 	O 	0.26650 0.69260 0.35710 -0.40000
N 	N 	0.64120 0.42410 0.64600 -0.21200
C 	C 	0.52990 0.48420 0.60860 0.05700
H 	H 	0.44740 0.46650 0.63400 0.01500
O 	O 	0.01830 0.37510 0.85570 -0.43300
O 	O 	0.81200 0.31640 0.87750 -0.43100
N 	N 	0.61120 0.14370 0.85330 -0.20300
Co	Co	0.37664 0.78334 0.24877 1.18600
Co	Co	0.87266 0.78184 0.25041 1.18800
O 	O 	0.76860 0.68850 0.35640 -0.40000
O 	O 	0.47880 0.86920 0.13390 -0.44500
O 	O 	0.04980 0.74580 0.37690 -0.40400
C 	C 	0.15360 0.68220 0.39790 0.34300
C 	C 	0.65870 0.68290 0.40440 0.32200
O 	O 	0.55460 0.74870 0.37800 -0.39300
C 	C 	0.59910 0.97000 0.00880 -0.07100
C 	C 	0.65480 0.59650 0.49260 -0.03800
C 	C 	0.14780 0.59020 0.47890 -0.05900
O 	O 	0.69430 0.82670 0.12590 -0.45600
C 	C 	0.48140 0.02830 0.96290 -0.04100
H 	H 	0.39690 0.01010 0.98400 0.06400
C 	C 	0.72190 0.99800 0.97330 -0.03400
H 	H 	0.80210 0.95920 -0.00000 0.06100
N 	N 	0.88490 0.64740 0.13560 -0.20100
C 	C 	0.72400 0.08510 0.89710 0.03000
H 	H 	0.80790 0.10400 0.87510 0.02600
C 	C 	0.89000 0.54780 0.17940 0.02500
H 	H 	0.88990 0.53730 0.26370 0.02400
C 	C 	0.89150 0.57460 0.93150 -0.04000
H 	H 	0.89330 0.58580 0.84760 0.04900
C 	C 	0.13720 0.60220 0.60370 -0.05200
H 	H 	0.13100 0.66880 0.63690 0.05600
C 	C 	0.88490 0.65830 0.01130 0.02100
H 	H 	0.88020 0.72570 0.97820 0.02800
C 	C 	0.15100 0.48940 0.43480 -0.05500
H 	H 	0.15660 0.47790 0.35180 0.05400
C 	C 	0.77020 0.53530 0.53470 -0.06900
H 	H 	0.85470 0.55080 0.51180 0.07100
C 	C 	0.75830 0.44990 0.61220 0.05400
H 	H 	0.83670 0.40970 0.64100 0.01200
C 	C 	0.89530 0.46040 0.10370 -0.04700
H 	H 	0.89880 0.39350 0.13790 0.05100
C 	C 	0.89540 0.47310 0.97990 -0.06300
C 	C 	0.48920 0.11290 0.88660 0.03000
H 	H 	0.40880 0.15070 0.85650 0.02100
C 	C 	0.53140 0.57170 0.53370 -0.07400
H 	H 	0.45260 0.61300 0.51130 0.07700
C 	C 	0.90810 0.37680 0.89460 0.40800
C 	C 	0.59140 0.87840 0.10040 0.43900
C 	C 	0.86400 0.01480 0.32250 0.02300
H 	H 	0.86740 0.02380 0.23860 0.02300
N 	N 	0.86050 0.91680 0.36740 -0.20000
C 	C 	0.85420 0.90440 0.48590 0.03900
H 	H 	0.85320 0.83680 0.51780 0.02000
O 	O 	0.73350 0.19260 0.64290 -0.40100
N 	N 	0.35880 0.92410 0.35400 -0.21500
C 	C 	0.47010 0.98420 0.39140 0.06800
H 	H 	0.55260 0.96650 0.36600 0.01200
O 	O 	0.98170 0.87510 0.14430 -0.43400
O 	O 	0.18800 0.81640 0.12250 -0.43200
N 	N 	0.38880 0.64370 0.14670 -0.20700
Co	Co	0.62336 0.28334 0.75123 1.18600
Co	Co	0.12734 0.28184 0.74959 1.18800
O 	O 	0.23140 0.18850 0.64360 -0.39900
O 	O 	0.52120 0.36920 0.86610 -0.44200
O 	O 	0.95020 0.24580 0.62310 -0.40600
C 	C 	0.84640 0.18220 0.60210 0.34600
C 	C 	0.34130 0.18290 0.59560 0.31900
O 	O 	0.44540 0.24870 0.62200 -0.39200
C 	C 	0.40090 0.47000 0.99120 -0.04900
C 	C 	0.34520 0.09650 0.50740 -0.03000
C 	C 	0.85220 0.09020 0.52110 -0.06800
O 	O 	0.30570 0.32670 0.87410 -0.45300
C 	C 	0.51860 0.52830 0.03710 -0.05800
H 	H 	0.60310 0.51010 0.01600 0.06900
C 	C 	0.27810 0.49800 0.02670 -0.06700
H 	H 	0.19790 0.45920 -0.00000 0.07200
N 	N 	0.11510 0.14740 0.86440 -0.20400
C 	C 	0.27600 0.58510 0.10290 0.04800
H 	H 	0.19210 0.60400 0.12490 0.02000
C 	C 	0.11000 0.04780 0.82060 0.01800
H 	H 	0.11010 0.03730 0.73630 0.02500
C 	C 	0.10850 0.07460 0.06850 -0.06300
H 	H 	0.10670 0.08580 0.15240 0.05500
C 	C 	0.86280 0.10220 0.39630 -0.04600
H 	H 	0.86900 0.16880 0.36310 0.05200
C 	C 	0.11510 0.15830 0.98870 0.04600
H 	H 	0.11980 0.22570 0.02180 0.01400
C 	C 	0.84900 0.98940 0.56520 -0.04500
H 	H 	0.84340 0.97790 0.64820 0.05200
C 	C 	0.22980 0.03530 0.46530 -0.08200
H 	H 	0.14530 0.05080 0.48820 0.07500
C 	C 	0.24170 0.94990 0.38780 0.06500
H 	H 	0.16330 0.90970 0.35900 0.00900
C 	C 	0.10470 0.96040 0.89630 -0.03500
H 	H 	0.10120 0.89350 0.86210 0.04900
C 	C 	0.10460 0.97310 0.02010 -0.06100
C 	C 	0.51080 0.61290 0.11340 0.03900
H 	H 	0.59120 0.65070 0.14350 0.01800
C 	C 	0.46860 0.07170 0.46630 -0.08700
H 	H 	0.54740 0.11300 0.48870 0.08100
C 	C 	0.09190 0.87680 0.10540 0.40800
C 	C 	0.40860 0.37840 0.89960 0.43100
