data_crystal

_cell_length_a 17.12160
_cell_length_b 17.44400
_cell_length_c 7.87680
_cell_angle_alpha 90.00000
_cell_angle_beta  90.00000
_cell_angle_gamma 90.00000

_symmetry_space_group_name_	'P 1'
_symmetry_space_group_name_H-M	'P 1'

loop_
_symmetry_equiv_pos_as_xyz
  x,y,z

loop_
_atom_site_label
_atom_site_type_symbol
_atom_site_fract_x
_atom_site_fract_y
_atom_site_fract_z
_atom_site_charge
Ca	Ca	0.07915 0.30342 0.67783 1.52500
O 	O 	0.00593 0.24441 0.92370 -0.52800
O 	O 	0.07490 0.62853 0.04610 -0.27800
O 	O 	0.02452 0.61185 0.30600 -0.38000
C 	C 	0.06090 0.58680 0.17830 0.42500
C 	C 	0.09030 0.50650 0.17870 0.15800
C 	C 	0.10560 0.46860 0.02620 -0.20200
H 	H 	0.09490 0.49310 0.92390 0.08100
C 	C 	0.13660 0.39470 0.02470 -0.24400
O 	O 	0.15436 0.35783 0.88050 -0.49600
C 	C 	0.15050 0.35810 0.18150 -0.39600
O 	O 	0.17846 0.28650 0.18310 -0.98200
C 	C 	0.13700 0.39580 0.33870 0.03200
O 	O 	0.15652 0.36105 0.48220 0.26900
C 	C 	0.10480 0.47020 0.33450 -0.04500
H 	H 	0.09300 0.49520 0.43550 -0.01700
K 	K 	0.21561 0.48232 0.68100 0.61200
O 	O 	0.06510 0.60910 0.69450 0.04800
O 	O 	0.23450 0.59310 0.94020 -0.23300
Ca	Ca	0.07840 0.30360 0.95990 1.52200
K 	K 	0.21640 0.48070 0.95140 0.61400
O 	O 	0.00610 0.24650 0.71400 -0.54100
O 	O 	0.06200 0.61500 0.78200 -0.17400
O 	O 	0.02540 0.61200 0.05300 -0.31000
C 	C 	0.06400 0.58400 0.93100 -0.33100
C 	C 	0.08930 0.50300 0.45100 0.11700
C 	C 	0.10200 0.47600 0.29200 -0.08100
H 	H 	0.09260 0.50300 0.19200 -0.09000
C 	C 	0.13300 0.40140 0.29900 0.02000
O 	O 	0.15150 0.36240 0.15800 0.29100
C 	C 	0.15300 0.35550 0.47100 -0.37100
O 	O 	0.17920 0.28380 0.46300 -1.01800
C 	C 	0.13650 0.39220 0.61200 -0.24600
O 	O 	0.15500 0.35940 0.75800 -0.45200
C 	C 	0.10590 0.46640 0.60300 -0.21100
H 	H 	0.09620 0.49240 0.70420 0.06100
O 	O 	0.06890 0.61250 0.94500 0.51500
O 	O 	0.23700 0.59510 0.20300 -0.20700
Ca	Ca	0.42085 0.19658 0.67783 1.52400
O 	O 	0.49407 0.25559 0.92370 -0.52500
O 	O 	0.42510 0.87147 0.04610 -0.28500
O 	O 	0.47548 0.88815 0.30600 -0.38300
C 	C 	0.43910 0.91320 0.17830 0.42600
C 	C 	0.40970 0.99350 0.17870 0.15800
C 	C 	0.39440 0.03140 0.02620 -0.20400
H 	H 	0.40510 0.00690 0.92390 0.08000
C 	C 	0.36340 0.10530 0.02470 -0.24500
O 	O 	0.34564 0.14217 0.88050 -0.49600
C 	C 	0.34950 0.14190 0.18150 -0.39600
O 	O 	0.32154 0.21350 0.18310 -0.98200
C 	C 	0.36300 0.10420 0.33870 0.03200
O 	O 	0.34348 0.13895 0.48220 0.26900
C 	C 	0.39520 0.02980 0.33450 -0.04400
H 	H 	0.40700 0.00480 0.43550 -0.01400
K 	K 	0.28439 0.01768 0.68100 0.61200
O 	O 	0.43490 0.89090 0.69450 0.05300
O 	O 	0.26550 0.90690 0.94020 -0.23100
Ca	Ca	0.42160 0.19640 0.95990 1.52200
K 	K 	0.28360 0.01930 0.95140 0.61400
O 	O 	0.49390 0.25350 0.71400 -0.53800
O 	O 	0.43800 0.88500 0.78200 -0.18000
O 	O 	0.47460 0.88800 0.05300 -0.31400
C 	C 	0.43600 0.91600 0.93100 -0.32500
C 	C 	0.41070 0.99700 0.45100 0.11400
C 	C 	0.39800 0.02400 0.29200 -0.08200
H 	H 	0.40740 0.99700 0.19200 -0.09000
C 	C 	0.36700 0.09860 0.29900 0.02000
O 	O 	0.34850 0.13760 0.15800 0.29100
C 	C 	0.34700 0.14450 0.47100 -0.37100
O 	O 	0.32080 0.21620 0.46300 -1.01800
C 	C 	0.36350 0.10780 0.61200 -0.24600
O 	O 	0.34500 0.14060 0.75800 -0.45200
C 	C 	0.39410 0.03360 0.60300 -0.21000
H 	H 	0.40380 0.00760 0.70420 0.06000
O 	O 	0.43110 0.88750 0.94500 0.51900
O 	O 	0.26300 0.90490 0.20300 -0.20600
Ca	Ca	0.92085 0.80342 0.82217 1.52400
O 	O 	0.99407 0.74441 0.57630 -0.52600
O 	O 	0.92510 0.12853 0.45390 -0.28600
O 	O 	0.97548 0.11185 0.19400 -0.38100
C 	C 	0.93910 0.08680 0.32170 0.42600
C 	C 	0.90970 0.00650 0.32130 0.15700
C 	C 	0.89440 0.96860 0.47380 -0.21600
H 	H 	0.90510 0.99310 0.57610 0.08500
C 	C 	0.86340 0.89470 0.47530 -0.24500
O 	O 	0.84564 0.85783 0.61950 -0.49300
C 	C 	0.84950 0.85810 0.31850 -0.39600
O 	O 	0.82154 0.78650 0.31690 -0.98300
C 	C 	0.86300 0.89580 0.16130 0.03400
O 	O 	0.84348 0.86105 0.01780 0.26600
C 	C 	0.89520 0.97020 0.16550 -0.05300
H 	H 	0.90700 0.99520 0.06450 -0.00100
K 	K 	0.78439 0.98232 0.81900 0.61200
O 	O 	0.93490 0.10910 0.80550 0.05800
O 	O 	0.76550 0.09310 0.55980 -0.23100
Ca	Ca	0.92160 0.80360 0.54010 1.52200
K 	K 	0.78360 0.98070 0.54860 0.61500
O 	O 	0.99390 0.74650 0.78600 -0.53900
O 	O 	0.93800 0.11500 0.71800 -0.18100
O 	O 	0.97460 0.11200 0.44700 -0.31100
C 	C 	0.93600 0.08400 0.56900 -0.32500
C 	C 	0.91070 0.00300 0.04900 0.09800
C 	C 	0.89800 0.97600 0.20800 -0.08600
H 	H 	0.90740 0.00300 0.30800 -0.08100
C 	C 	0.86700 0.90140 0.20100 0.02100
O 	O 	0.84850 0.86240 0.34200 0.29000
C 	C 	0.84700 0.85550 0.02900 -0.37300
O 	O 	0.82080 0.78380 0.03700 -1.01900
C 	C 	0.86350 0.89220 0.88800 -0.24200
O 	O 	0.84500 0.85940 0.74200 -0.45400
C 	C 	0.89410 0.96640 0.89700 -0.20600
H 	H 	0.90380 0.99240 0.79580 0.05800
O 	O 	0.93110 0.11250 0.55500 0.52100
O 	O 	0.76300 0.09510 0.29700 -0.20600
Ca	Ca	0.57915 0.69658 0.82217 1.52400
O 	O 	0.50593 0.75559 0.57630 -0.52400
O 	O 	0.57490 0.37147 0.45390 -0.28300
O 	O 	0.52452 0.38815 0.19400 -0.38300
C 	C 	0.56090 0.41320 0.32170 0.42500
C 	C 	0.59030 0.49350 0.32130 0.15700
C 	C 	0.60560 0.53140 0.47380 -0.20900
H 	H 	0.59490 0.50690 0.57610 0.08400
C 	C 	0.63660 0.60530 0.47530 -0.24800
O 	O 	0.65436 0.64217 0.61950 -0.49200
C 	C 	0.65050 0.64190 0.31850 -0.39600
O 	O 	0.67846 0.71350 0.31690 -0.98300
C 	C 	0.63700 0.60420 0.16130 0.03200
O 	O 	0.65652 0.63895 0.01780 0.26800
C 	C 	0.60480 0.52980 0.16550 -0.04500
H 	H 	0.59300 0.50480 0.06450 -0.01700
K 	K 	0.71561 0.51768 0.81900 0.61200
O 	O 	0.56510 0.39090 0.80550 0.05100
O 	O 	0.73450 0.40690 0.55980 -0.23200
Ca	Ca	0.57840 0.69640 0.54010 1.52300
K 	K 	0.71640 0.51930 0.54860 0.61500
O 	O 	0.50610 0.75350 0.78600 -0.53800
O 	O 	0.56200 0.38500 0.71800 -0.17800
O 	O 	0.52540 0.38800 0.44700 -0.31300
C 	C 	0.56400 0.41600 0.56900 -0.32500
C 	C 	0.58930 0.49700 0.04900 0.11700
C 	C 	0.60200 0.52400 0.20800 -0.08100
H 	H 	0.59260 0.49700 0.30800 -0.09000
C 	C 	0.63300 0.59860 0.20100 0.02000
O 	O 	0.65150 0.63760 0.34200 0.29100
C 	C 	0.65300 0.64450 0.02900 -0.37200
O 	O 	0.67920 0.71620 0.03700 -1.01900
C 	C 	0.63650 0.60780 0.88800 -0.24200
O 	O 	0.65500 0.64060 0.74200 -0.45400
C 	C 	0.60590 0.53360 0.89700 -0.21000
H 	H 	0.59620 0.50760 0.79580 0.06100
O 	O 	0.56890 0.38750 0.55500 0.51600
O 	O 	0.73700 0.40490 0.29700 -0.20800
Ca	Ca	0.92085 0.69658 0.32217 1.52400
O 	O 	0.99407 0.75559 0.07630 -0.52900
O 	O 	0.92510 0.37147 0.95390 -0.27900
O 	O 	0.97548 0.38815 0.69400 -0.38100
C 	C 	0.93910 0.41320 0.82170 0.42400
C 	C 	0.90970 0.49350 0.82130 0.15700
C 	C 	0.89440 0.53140 0.97380 -0.20300
H 	H 	0.90510 0.50690 0.07610 0.08000
C 	C 	0.86340 0.60530 0.97530 -0.24400
O 	O 	0.84564 0.64217 0.11950 -0.49600
C 	C 	0.84950 0.64190 0.81850 -0.39600
O 	O 	0.82154 0.71350 0.81690 -0.98200
C 	C 	0.86300 0.60420 0.66130 0.03200
O 	O 	0.84348 0.63895 0.51780 0.26900
C 	C 	0.89520 0.52980 0.66550 -0.04500
H 	H 	0.90700 0.50480 0.56450 -0.01700
K 	K 	0.78439 0.51768 0.31900 0.61200
O 	O 	0.93490 0.39090 0.30550 0.04800
O 	O 	0.76550 0.40690 0.05980 -0.23300
Ca	Ca	0.92160 0.69640 0.04010 1.52200
K 	K 	0.78360 0.51930 0.04860 0.61400
O 	O 	0.99390 0.75350 0.28600 -0.54100
O 	O 	0.93800 0.38500 0.21800 -0.17400
O 	O 	0.97460 0.38800 0.94700 -0.31000
C 	C 	0.93600 0.41600 0.06900 -0.33100
C 	C 	0.91070 0.49700 0.54900 0.11700
C 	C 	0.89800 0.52400 0.70800 -0.08100
H 	H 	0.90740 0.49700 0.80800 -0.09000
C 	C 	0.86700 0.59860 0.70100 0.02000
O 	O 	0.84850 0.63760 0.84200 0.29100
C 	C 	0.84700 0.64450 0.52900 -0.37100
O 	O 	0.82080 0.71620 0.53700 -1.01800
C 	C 	0.86350 0.60780 0.38800 -0.24600
O 	O 	0.84500 0.64060 0.24200 -0.45200
C 	C 	0.89410 0.53360 0.39700 -0.21100
H 	H 	0.90380 0.50760 0.29580 0.06100
O 	O 	0.93110 0.38750 0.05500 0.51500
O 	O 	0.76300 0.40490 0.79700 -0.20700
Ca	Ca	0.57915 0.80342 0.32217 1.52400
O 	O 	0.50593 0.74441 0.07630 -0.52500
O 	O 	0.57490 0.12853 0.95390 -0.28500
O 	O 	0.52452 0.11185 0.69400 -0.38300
C 	C 	0.56090 0.08680 0.82170 0.42600
C 	C 	0.59030 0.00650 0.82130 0.15800
C 	C 	0.60560 0.96860 0.97380 -0.20400
H 	H 	0.59490 0.99310 0.07610 0.08000
C 	C 	0.63660 0.89470 0.97530 -0.24500
O 	O 	0.65436 0.85783 0.11950 -0.49600
C 	C 	0.65050 0.85810 0.81850 -0.39600
O 	O 	0.67846 0.78650 0.81690 -0.98200
C 	C 	0.63700 0.89580 0.66130 0.03200
O 	O 	0.65652 0.86105 0.51780 0.26900
C 	C 	0.60480 0.97020 0.66550 -0.04400
H 	H 	0.59300 0.99520 0.56450 -0.01400
K 	K 	0.71561 0.98232 0.31900 0.61200
O 	O 	0.56510 0.10910 0.30550 0.05300
O 	O 	0.73450 0.09310 0.05980 -0.23100
Ca	Ca	0.57840 0.80360 0.04010 1.52200
K 	K 	0.71640 0.98070 0.04860 0.61400
O 	O 	0.50610 0.74650 0.28600 -0.53800
O 	O 	0.56200 0.11500 0.21800 -0.18000
O 	O 	0.52540 0.11200 0.94700 -0.31400
C 	C 	0.56400 0.08400 0.06900 -0.32500
C 	C 	0.58930 0.00300 0.54900 0.11400
C 	C 	0.60200 0.97600 0.70800 -0.08200
H 	H 	0.59260 0.00300 0.80800 -0.09000
C 	C 	0.63300 0.90140 0.70100 0.02000
O 	O 	0.65150 0.86240 0.84200 0.29100
C 	C 	0.65300 0.85550 0.52900 -0.37100
O 	O 	0.67920 0.78380 0.53700 -1.01800
C 	C 	0.63650 0.89220 0.38800 -0.24600
O 	O 	0.65500 0.85940 0.24200 -0.45200
C 	C 	0.60590 0.96640 0.39700 -0.21000
H 	H 	0.59620 0.99240 0.29580 0.06000
O 	O 	0.56890 0.11250 0.05500 0.51900
O 	O 	0.73700 0.09510 0.79700 -0.20600
Ca	Ca	0.07915 0.19658 0.17783 1.52400
O 	O 	0.00593 0.25559 0.42370 -0.52600
O 	O 	0.07490 0.87147 0.54610 -0.28600
O 	O 	0.02452 0.88815 0.80600 -0.38100
C 	C 	0.06090 0.91320 0.67830 0.42600
C 	C 	0.09030 0.99350 0.67870 0.15700
C 	C 	0.10560 0.03140 0.52620 -0.21600
H 	H 	0.09490 0.00690 0.42390 0.08500
C 	C 	0.13660 0.10530 0.52470 -0.24500
O 	O 	0.15436 0.14217 0.38050 -0.49300
C 	C 	0.15050 0.14190 0.68150 -0.39600
O 	O 	0.17846 0.21350 0.68310 -0.98300
C 	C 	0.13700 0.10420 0.83870 0.03400
O 	O 	0.15652 0.13895 0.98220 0.26600
C 	C 	0.10480 0.02980 0.83450 -0.05300
H 	H 	0.09300 0.00480 0.93550 -0.00100
K 	K 	0.21561 0.01768 0.18100 0.61200
O 	O 	0.06510 0.89090 0.19450 0.05800
O 	O 	0.23450 0.90690 0.44020 -0.23100
Ca	Ca	0.07840 0.19640 0.45990 1.52200
K 	K 	0.21640 0.01930 0.45140 0.61500
O 	O 	0.00610 0.25350 0.21400 -0.53900
O 	O 	0.06200 0.88500 0.28200 -0.18100
O 	O 	0.02540 0.88800 0.55300 -0.31100
C 	C 	0.06400 0.91600 0.43100 -0.32500
C 	C 	0.08930 0.99700 0.95100 0.09800
C 	C 	0.10200 0.02400 0.79200 -0.08600
H 	H 	0.09260 0.99700 0.69200 -0.08100
C 	C 	0.13300 0.09860 0.79900 0.02100
O 	O 	0.15150 0.13760 0.65800 0.29000
C 	C 	0.15300 0.14450 0.97100 -0.37300
O 	O 	0.17920 0.21620 0.96300 -1.01900
C 	C 	0.13650 0.10780 0.11200 -0.24200
O 	O 	0.15500 0.14060 0.25800 -0.45400
C 	C 	0.10590 0.03360 0.10300 -0.20600
H 	H 	0.09620 0.00760 0.20420 0.05800
O 	O 	0.06890 0.88750 0.44500 0.52100
O 	O 	0.23700 0.90490 0.70300 -0.20600
Ca	Ca	0.42085 0.30342 0.17783 1.52400
O 	O 	0.49407 0.24441 0.42370 -0.52400
O 	O 	0.42510 0.62853 0.54610 -0.28300
O 	O 	0.47548 0.61185 0.80600 -0.38300
C 	C 	0.43910 0.58680 0.67830 0.42500
C 	C 	0.40970 0.50650 0.67870 0.15700
C 	C 	0.39440 0.46860 0.52620 -0.20900
H 	H 	0.40510 0.49310 0.42390 0.08400
C 	C 	0.36340 0.39470 0.52470 -0.24800
O 	O 	0.34564 0.35783 0.38050 -0.49200
C 	C 	0.34950 0.35810 0.68150 -0.39600
O 	O 	0.32154 0.28650 0.68310 -0.98300
C 	C 	0.36300 0.39580 0.83870 0.03200
O 	O 	0.34348 0.36105 0.98220 0.26800
C 	C 	0.39520 0.47020 0.83450 -0.04500
H 	H 	0.40700 0.49520 0.93550 -0.01700
K 	K 	0.28439 0.48232 0.18100 0.61200
O 	O 	0.43490 0.60910 0.19450 0.05100
O 	O 	0.26550 0.59310 0.44020 -0.23200
Ca	Ca	0.42160 0.30360 0.45990 1.52300
K 	K 	0.28360 0.48070 0.45140 0.61500
O 	O 	0.49390 0.24650 0.21400 -0.53800
O 	O 	0.43800 0.61500 0.28200 -0.17800
O 	O 	0.47460 0.61200 0.55300 -0.31300
C 	C 	0.43600 0.58400 0.43100 -0.32500
C 	C 	0.41070 0.50300 0.95100 0.11700
C 	C 	0.39800 0.47600 0.79200 -0.08100
H 	H 	0.40740 0.50300 0.69200 -0.09000
C 	C 	0.36700 0.40140 0.79900 0.02000
O 	O 	0.34850 0.36240 0.65800 0.29100
C 	C 	0.34700 0.35550 0.97100 -0.37200
O 	O 	0.32080 0.28380 0.96300 -1.01900
C 	C 	0.36350 0.39220 0.11200 -0.24200
O 	O 	0.34500 0.35940 0.25800 -0.45400
C 	C 	0.39410 0.46640 0.10300 -0.21000
H 	H 	0.40380 0.49240 0.20420 0.06100
O 	O 	0.43110 0.61250 0.44500 0.51600
O 	O 	0.26300 0.59510 0.70300 -0.20800
Ca	Ca	0.25000 0.25000 0.93210 1.54900
Ca	Ca	0.25000 0.25000 0.70740 1.54200
Ca	Ca	0.75000 0.75000 0.56790 1.54900
Ca	Ca	0.75000 0.75000 0.79260 1.54300
Ca	Ca	0.75000 0.75000 0.06790 1.54900
Ca	Ca	0.75000 0.75000 0.29260 1.54200
Ca	Ca	0.25000 0.25000 0.43210 1.54900
Ca	Ca	0.25000 0.25000 0.20740 1.54300
