data_crystal

_cell_length_a 11.60250
_cell_length_b 16.39800
_cell_length_c 16.79600
_cell_angle_alpha 90.00000
_cell_angle_beta  109.30000
_cell_angle_gamma 90.00000

_symmetry_space_group_name_	'P 1'
_symmetry_space_group_name_H-M	'P 1'

loop_
_symmetry_equiv_pos_as_xyz
  x,y,z

loop_
_atom_site_label
_atom_site_type_symbol
_atom_site_fract_x
_atom_site_fract_y
_atom_site_fract_z
_atom_site_charge
Zn	Zn	0.33270 0.49086 0.22535 1.20700
N 	N 	0.18670 0.44470 0.12930 -0.28500
N 	N 	0.72140 0.27900 0.85990 -0.27900
H 	H 	0.73270 0.30790 0.81970 0.15400
O 	O 	0.78540 0.27180 0.00550 -0.25500
C 	C 	0.08080 0.41780 0.98390 -0.24100
H 	H 	0.07720 0.42400 0.92750 0.12000
O 	O 	0.76730 0.77190 0.94408 -0.26100
N 	N 	0.89320 0.34540 0.93660 -0.28500
H 	H 	0.89260 0.35910 0.88650 0.15700
N 	N 	0.82570 0.77220 0.08910 -0.26400
H 	H 	0.88100 0.79170 0.13360 0.13100
N 	N 	0.93780 0.84270 0.02410 -0.26600
H 	H 	0.97220 0.86170 0.07480 0.13200
O 	O 	0.17400 0.88602 0.73312 -0.35200
C 	C 	0.47810 0.56990 0.16870 0.32700
C 	C 	0.73580 0.72290 0.10390 0.19700
O 	O 	0.42620 0.51450 0.11780 -0.35600
O 	O 	0.45790 0.58070 0.23680 -0.43000
C 	C 	0.65600 0.67350 0.04300 -0.19700
H 	H 	0.65700 0.67350 0.98730 0.12300
C 	C 	0.56960 0.62340 0.14710 -0.13300
C 	C 	0.17650 0.44980 0.04790 0.13600
H 	H 	0.23840 0.47690 0.03380 -0.01100
C 	C 	0.57400 0.62360 0.06630 0.09100
H 	H 	0.52060 0.58960 0.02550 0.02600
C 	C 	0.99130 0.86570 0.96450 0.20800
C 	C 	0.64900 0.67340 0.20690 0.09100
H 	H 	0.64700 0.67410 0.26240 0.02300
C 	C 	0.62830 0.22270 0.83500 0.23400
C 	C 	0.79850 0.29570 0.93980 0.30100
C 	C 	0.15210 0.94240 0.93670 0.10400
H 	H 	0.21690 0.97990 0.95470 0.01400
C 	C 	0.18960 0.92850 0.79730 0.35200
C 	C 	0.99900 0.36960 0.08710 -0.24900
H 	H 	0.93950 0.34160 0.10310 0.14000
C 	C 	0.95570 0.83530 0.88230 -0.21900
H 	H 	0.88720 0.80100 0.86280 0.12400
C 	C 	0.12000 0.90890 0.85630 -0.15400
C 	C 	0.83690 0.79340 0.01280 0.29900
C 	C 	0.08900 0.92060 0.99000 -0.19400
H 	H 	0.11210 0.94300 0.04460 0.09700
C 	C 	0.98850 0.37590 0.00310 0.24600
C 	C 	0.73100 0.72210 0.18550 -0.19900
H 	H 	0.78470 0.75550 0.22680 0.09300
C 	C 	0.02060 0.85550 0.82990 0.12300
H 	H 	0.99770 0.83290 0.77540 -0.00500
C 	C 	0.56160 0.21700 0.75140 -0.24700
H 	H 	0.57820 0.25270 0.71270 0.13100
C 	C 	0.47050 0.15980 0.72300 0.14700
H 	H 	0.42530 0.15840 0.66510 -0.02800
C 	C 	0.50160 0.11630 0.85940 0.10900
H 	H 	0.47690 0.08310 0.89640 -0.01100
C 	C 	0.59440 0.17250 0.89340 -0.21600
H 	H 	0.63300 0.17740 0.95200 0.13000
C 	C 	0.09710 0.40460 0.14720 0.13600
H 	H 	0.10190 0.40040 0.20410 -0.03700
O 	O 	0.26220 0.98899 0.81660 -0.44800
N 	N 	0.44350 0.10670 0.77310 -0.28000
Zn	Zn	0.33270 0.00914 0.72535 1.20600
N 	N 	0.18670 0.05530 0.62930 -0.28600
N 	N 	0.72140 0.22100 0.35990 -0.28000
H 	H 	0.73270 0.19210 0.31970 0.15500
O 	O 	0.78540 0.22820 0.50550 -0.25900
C 	C 	0.08080 0.08220 0.48390 -0.24200
H 	H 	0.07720 0.07600 0.42750 0.12000
O 	O 	0.76730 0.72810 0.44408 -0.26300
N 	N 	0.89320 0.15460 0.43660 -0.28400
H 	H 	0.89260 0.14090 0.38650 0.15800
N 	N 	0.82570 0.72780 0.58910 -0.26400
H 	H 	0.88100 0.70830 0.63360 0.13100
N 	N 	0.93780 0.65730 0.52410 -0.26700
H 	H 	0.97220 0.63830 0.57480 0.13300
O 	O 	0.17400 0.61398 0.23312 -0.35300
C 	C 	0.47810 0.93010 0.66870 0.32700
C 	C 	0.73580 0.77710 0.60390 0.19600
O 	O 	0.42620 0.98550 0.61780 -0.35500
O 	O 	0.45790 0.91930 0.73680 -0.42800
C 	C 	0.65600 0.82650 0.54300 -0.19300
H 	H 	0.65700 0.82650 0.48730 0.12100
C 	C 	0.56960 0.87660 0.64710 -0.13100
C 	C 	0.17650 0.05020 0.54790 0.13600
H 	H 	0.23840 0.02310 0.53380 -0.01100
C 	C 	0.57400 0.87640 0.56630 0.08900
H 	H 	0.52060 0.91040 0.52550 0.02700
C 	C 	0.99130 0.63430 0.46450 0.21400
C 	C 	0.64900 0.82660 0.70690 0.09000
H 	H 	0.64700 0.82590 0.76240 0.02300
C 	C 	0.62830 0.27730 0.33500 0.23500
C 	C 	0.79850 0.20430 0.43980 0.30600
C 	C 	0.15210 0.55760 0.43670 0.11200
H 	H 	0.21690 0.52010 0.45470 0.00900
C 	C 	0.18960 0.57150 0.29730 0.35200
C 	C 	0.99900 0.13040 0.58710 -0.24800
H 	H 	0.93950 0.15840 0.60310 0.13900
C 	C 	0.95570 0.66470 0.38230 -0.21600
H 	H 	0.88720 0.69900 0.36280 0.12300
C 	C 	0.12000 0.59110 0.35630 -0.15600
C 	C 	0.83690 0.70660 0.51280 0.30200
C 	C 	0.08900 0.57940 0.49000 -0.21300
H 	H 	0.11210 0.55700 0.54460 0.10700
C 	C 	0.98850 0.12410 0.50310 0.24500
C 	C 	0.73100 0.77790 0.68550 -0.19800
H 	H 	0.78470 0.74450 0.72680 0.09200
C 	C 	0.02060 0.64450 0.32990 0.11600
H 	H 	0.99770 0.66710 0.27540 -0.00100
C 	C 	0.56160 0.28300 0.25140 -0.24800
H 	H 	0.57820 0.24730 0.21270 0.13100
C 	C 	0.47050 0.34020 0.22300 0.14800
H 	H 	0.42530 0.34160 0.16510 -0.02800
C 	C 	0.50160 0.38370 0.35940 0.10900
H 	H 	0.47690 0.41690 0.39640 -0.01000
C 	C 	0.59440 0.32750 0.39340 -0.21600
H 	H 	0.63300 0.32260 0.45200 0.13100
C 	C 	0.09710 0.09540 0.64720 0.13500
H 	H 	0.10190 0.09960 0.70410 -0.03800
O 	O 	0.26220 0.51101 0.31660 -0.45100
N 	N 	0.44350 0.39330 0.27310 -0.28000
Zn	Zn	0.66730 0.99086 0.27465 1.20600
N 	N 	0.81330 0.94470 0.37070 -0.28600
N 	N 	0.27860 0.77900 0.64010 -0.28000
H 	H 	0.26730 0.80790 0.68030 0.15500
O 	O 	0.21460 0.77180 0.49450 -0.25900
C 	C 	0.91920 0.91780 0.51610 -0.24200
H 	H 	0.92280 0.92400 0.57250 0.12000
O 	O 	0.23270 0.27190 0.55592 -0.26300
N 	N 	0.10680 0.84540 0.56340 -0.28400
H 	H 	0.10740 0.85910 0.61350 0.15800
N 	N 	0.17430 0.27220 0.41090 -0.26400
H 	H 	0.11900 0.29170 0.36640 0.13100
N 	N 	0.06220 0.34270 0.47590 -0.26700
H 	H 	0.02780 0.36170 0.42520 0.13300
O 	O 	0.82600 0.38602 0.76688 -0.35300
C 	C 	0.52190 0.06990 0.33130 0.32700
C 	C 	0.26420 0.22290 0.39610 0.19600
O 	O 	0.57380 0.01450 0.38220 -0.35500
O 	O 	0.54210 0.08070 0.26320 -0.42800
C 	C 	0.34400 0.17350 0.45700 -0.19300
H 	H 	0.34300 0.17350 0.51270 0.12100
C 	C 	0.43040 0.12340 0.35290 -0.13100
C 	C 	0.82350 0.94980 0.45210 0.13600
H 	H 	0.76160 0.97690 0.46620 -0.01100
C 	C 	0.42600 0.12360 0.43370 0.08900
H 	H 	0.47940 0.08960 0.47450 0.02700
C 	C 	0.00870 0.36570 0.53550 0.21400
C 	C 	0.35100 0.17340 0.29310 0.09000
H 	H 	0.35300 0.17410 0.23760 0.02300
C 	C 	0.37170 0.72270 0.66500 0.23500
C 	C 	0.20150 0.79570 0.56020 0.30600
C 	C 	0.84790 0.44240 0.56330 0.11200
H 	H 	0.78310 0.47990 0.54530 0.00900
C 	C 	0.81040 0.42850 0.70270 0.35200
C 	C 	0.00100 0.86960 0.41290 -0.24800
H 	H 	0.06050 0.84160 0.39690 0.13900
C 	C 	0.04430 0.33530 0.61770 -0.21600
H 	H 	0.11280 0.30100 0.63720 0.12300
C 	C 	0.88000 0.40890 0.64370 -0.15600
C 	C 	0.16310 0.29340 0.48720 0.30200
C 	C 	0.91100 0.42060 0.51000 -0.21300
H 	H 	0.88790 0.44300 0.45540 0.10700
C 	C 	0.01150 0.87590 0.49690 0.24500
C 	C 	0.26900 0.22210 0.31450 -0.19800
H 	H 	0.21530 0.25550 0.27320 0.09200
C 	C 	0.97940 0.35550 0.67010 0.11600
H 	H 	0.00230 0.33290 0.72460 -0.00100
C 	C 	0.43840 0.71700 0.74860 -0.24800
H 	H 	0.42180 0.75270 0.78730 0.13100
C 	C 	0.52950 0.65980 0.77700 0.14800
H 	H 	0.57470 0.65840 0.83490 -0.02800
C 	C 	0.49840 0.61630 0.64060 0.10900
H 	H 	0.52310 0.58310 0.60360 -0.01000
C 	C 	0.40560 0.67250 0.60660 -0.21600
H 	H 	0.36700 0.67740 0.54800 0.13100
C 	C 	0.90290 0.90460 0.35280 0.13500
H 	H 	0.89810 0.90040 0.29590 -0.03800
O 	O 	0.73780 0.48899 0.68340 -0.45100
N 	N 	0.55650 0.60670 0.72690 -0.28000
Zn	Zn	0.66730 0.50914 0.77465 1.20700
N 	N 	0.81330 0.55530 0.87070 -0.28500
N 	N 	0.27860 0.72100 0.14010 -0.27900
H 	H 	0.26730 0.69210 0.18030 0.15400
O 	O 	0.21460 0.72820 0.99450 -0.25500
C 	C 	0.91920 0.58220 0.01610 -0.24100
H 	H 	0.92280 0.57600 0.07250 0.12000
O 	O 	0.23270 0.22810 0.05592 -0.26100
N 	N 	0.10680 0.65460 0.06340 -0.28500
H 	H 	0.10740 0.64090 0.11350 0.15700
N 	N 	0.17430 0.22780 0.91090 -0.26400
H 	H 	0.11900 0.20830 0.86640 0.13100
N 	N 	0.06220 0.15730 0.97590 -0.26600
H 	H 	0.02780 0.13830 0.92520 0.13200
O 	O 	0.82600 0.11398 0.26688 -0.35200
C 	C 	0.52190 0.43010 0.83130 0.32700
C 	C 	0.26420 0.27710 0.89610 0.19700
O 	O 	0.57380 0.48550 0.88220 -0.35600
O 	O 	0.54210 0.41930 0.76320 -0.43000
C 	C 	0.34400 0.32650 0.95700 -0.19700
H 	H 	0.34300 0.32650 0.01270 0.12300
C 	C 	0.43040 0.37660 0.85290 -0.13300
C 	C 	0.82350 0.55020 0.95210 0.13600
H 	H 	0.76160 0.52310 0.96620 -0.01100
C 	C 	0.42600 0.37640 0.93370 0.09100
H 	H 	0.47940 0.41040 0.97450 0.02600
C 	C 	0.00870 0.13430 0.03550 0.20800
C 	C 	0.35100 0.32660 0.79310 0.09100
H 	H 	0.35300 0.32590 0.73760 0.02300
C 	C 	0.37170 0.77730 0.16500 0.23400
C 	C 	0.20150 0.70430 0.06020 0.30100
C 	C 	0.84790 0.05760 0.06330 0.10400
H 	H 	0.78310 0.02010 0.04530 0.01400
C 	C 	0.81040 0.07150 0.20270 0.35200
C 	C 	0.00100 0.63040 0.91290 -0.24900
H 	H 	0.06050 0.65840 0.89690 0.14000
C 	C 	0.04430 0.16470 0.11770 -0.21900
H 	H 	0.11280 0.19900 0.13720 0.12400
C 	C 	0.88000 0.09110 0.14370 -0.15400
C 	C 	0.16310 0.20660 0.98720 0.29900
C 	C 	0.91100 0.07940 0.01000 -0.19400
H 	H 	0.88790 0.05700 0.95540 0.09700
C 	C 	0.01150 0.62410 0.99690 0.24600
C 	C 	0.26900 0.27790 0.81450 -0.19900
H 	H 	0.21530 0.24450 0.77320 0.09300
C 	C 	0.97940 0.14450 0.17010 0.12300
H 	H 	0.00230 0.16710 0.22460 -0.00500
C 	C 	0.43840 0.78300 0.24860 -0.24700
H 	H 	0.42180 0.74730 0.28730 0.13100
C 	C 	0.52950 0.84020 0.27700 0.14700
H 	H 	0.57470 0.84160 0.33490 -0.02800
C 	C 	0.49840 0.88370 0.14060 0.10900
H 	H 	0.52310 0.91690 0.10360 -0.01100
C 	C 	0.40560 0.82750 0.10660 -0.21600
H 	H 	0.36700 0.82260 0.04800 0.13000
C 	C 	0.90290 0.59540 0.85280 0.13600
H 	H 	0.89810 0.59960 0.79590 -0.03700
O 	O 	0.73780 0.01101 0.18340 -0.44800
N 	N 	0.55650 0.89330 0.22690 -0.28000
