data_crystal

_cell_length_a 9.34350
_cell_length_b 22.18700
_cell_length_c 13.87610
_cell_angle_alpha 90.00000
_cell_angle_beta  109.57100
_cell_angle_gamma 90.00000

_symmetry_space_group_name_	'P 1'
_symmetry_space_group_name_H-M	'P 1'

loop_
_symmetry_equiv_pos_as_xyz
  x,y,z

loop_
_atom_site_label
_atom_site_type_symbol
_atom_site_fract_x
_atom_site_fract_y
_atom_site_fract_z
_atom_site_charge
Y 	Y 	0.24708 0.93824 0.48929 2.39900
O 	O 	0.09850 0.01549 0.42080 -0.59300
O 	O 	0.85120 0.07350 0.38540 -0.53200
O 	O 	0.58560 0.13570 0.46060 -0.14900
O 	O 	0.16360 0.44440 0.14290 -0.54000
O 	O 	0.90580 0.49471 0.08680 -0.59300
O 	O 	0.43610 0.38020 0.11610 -1.06500
P 	P 	0.98611 0.05873 0.35459 0.53700
O 	O 	0.91660 0.03450 0.24270 -0.40700
C 	C 	0.08250 0.12740 0.34670 -0.10100
H 	H 	0.98050 0.01260 0.22900 0.21900
C 	C 	0.23890 0.13000 0.37480 0.01400
C 	C 	0.99670 0.17830 0.30730 -0.01300
H 	H 	0.29880 0.09550 0.40210 0.01900
C 	C 	0.30810 0.18360 0.36260 -0.03700
C 	C 	0.06070 0.23280 0.29380 0.03000
H 	H 	0.88940 0.17570 0.28860 0.06600
P 	P 	0.50610 0.18459 0.37060 0.14300
C 	C 	0.22000 0.23420 0.32320 -0.03900
C 	C 	0.96640 0.28660 0.25090 -0.07300
O 	O 	0.52830 0.17500 0.26730 -0.08400
O 	O 	0.55960 0.24830 0.40960 -0.36700
H 	H 	0.26880 0.27060 0.31590 0.08100
C 	C 	0.80910 0.28580 0.23310 0.16900
C 	C 	0.02610 0.33940 0.22640 0.04400
C 	C 	0.71750 0.33440 0.19250 -0.46200
H 	H 	0.76460 0.25050 0.24960 0.00500
C 	C 	0.93550 0.38940 0.18570 -0.17800
H 	H 	0.13200 0.34150 0.23760 0.03300
P 	P 	0.52080 0.33195 0.18520 -1.62500
C 	C 	0.77980 0.38680 0.16710 0.19200
P 	P 	0.02119 0.45815 0.16500 0.54900
O 	O 	0.50760 0.34360 0.29400 6.34500
O 	O 	0.46800 0.26710 0.15760 1.05400
H 	H 	0.71670 0.42020 0.13740 -0.06700
O 	O 	0.07410 0.49090 0.27110 -0.47400
H 	H 	0.00410 0.51330 0.27530 0.28700
O 	O 	0.59100 0.13390 0.22710 -0.03500
O 	O 	0.59650 0.06980 0.18670 -0.11200
P 	P 	0.51630 0.19460 0.43440 0.36500
O 	O 	0.55610 0.23120 0.54060 -0.19700
O 	O 	0.56940 0.23280 0.36490 0.06000
O 	O 	0.58220 0.13240 0.42870 -0.36400
P 	P 	0.51280 0.32290 0.14990 3.62400
O 	O 	0.46910 0.26310 0.11250 -1.63100
O 	O 	0.48920 0.32930 0.25960 -6.57900
O 	O 	0.43060 0.37290 0.08660 0.22200
Y 	Y 	0.25292 0.43824 0.01071 2.40200
O 	O 	0.40150 0.51549 0.07920 -0.58500
O 	O 	0.64880 0.57350 0.11460 -0.54000
O 	O 	0.91440 0.63570 0.03940 -0.22600
O 	O 	0.33640 0.94440 0.35710 -0.53400
O 	O 	0.59420 0.99471 0.41320 -0.58800
O 	O 	0.06390 0.88020 0.38390 -0.70200
P 	P 	0.51389 0.55873 0.14541 0.51600
O 	O 	0.58340 0.53450 0.25730 -0.41800
C 	C 	0.41750 0.62740 0.15330 -0.08100
H 	H 	0.51950 0.51260 0.27100 0.17700
C 	C 	0.26110 0.63000 0.12520 -0.00700
C 	C 	0.50330 0.67830 0.19270 -0.05300
H 	H 	0.20120 0.59550 0.09790 0.02600
C 	C 	0.19190 0.68360 0.13740 -0.02400
C 	C 	0.43930 0.73280 0.20620 0.05000
H 	H 	0.61060 0.67570 0.21140 0.07300
P 	P 	0.99390 0.68459 0.12940 0.27700
C 	C 	0.28000 0.73420 0.17680 -0.05500
C 	C 	0.53360 0.78660 0.24910 -0.04200
O 	O 	0.97170 0.67500 0.23270 -0.12900
O 	O 	0.94040 0.74830 0.09040 -0.16500
H 	H 	0.23120 0.77060 0.18410 0.09000
C 	C 	0.69090 0.78580 0.26690 0.07200
C 	C 	0.47390 0.83940 0.27360 0.02900
C 	C 	0.78250 0.83440 0.30750 -0.24700
H 	H 	0.73540 0.75050 0.25040 0.04000
C 	C 	0.56450 0.88940 0.31430 -0.13200
H 	H 	0.36800 0.84150 0.26240 0.04400
P 	P 	0.97920 0.83195 0.31480 -0.74600
C 	C 	0.72020 0.88680 0.33290 0.10200
P 	P 	0.47881 0.95815 0.33500 0.54000
O 	O 	0.99240 0.84360 0.20600 3.15000
O 	O 	0.03200 0.76710 0.34240 0.50200
H 	H 	0.78330 0.92020 0.36260 -0.02200
O 	O 	0.42590 0.99090 0.22890 -0.43700
H 	H 	0.49590 0.01330 0.22470 0.28500
O 	O 	0.90900 0.63390 0.27290 -0.05000
O 	O 	0.90350 0.56980 0.31330 -0.14800
P 	P 	0.98370 0.69460 0.06560 0.21400
O 	O 	0.94390 0.73120 0.95940 -0.14000
O 	O 	0.93060 0.73280 0.13510 -0.10500
O 	O 	0.91780 0.63240 0.07130 -0.28200
P 	P 	0.98720 0.82290 0.35010 1.92200
O 	O 	0.03090 0.76310 0.38750 -0.89200
O 	O 	0.01080 0.82930 0.24040 -3.34200
O 	O 	0.06940 0.87290 0.41340 0.04100
Y 	Y 	0.75292 0.06176 0.51071 2.39900
O 	O 	0.90150 0.98451 0.57920 -0.59300
O 	O 	0.14880 0.92650 0.61460 -0.53200
O 	O 	0.41440 0.86430 0.53940 -0.14900
O 	O 	0.83640 0.55560 0.85710 -0.54000
O 	O 	0.09420 0.50529 0.91320 -0.59300
O 	O 	0.56390 0.61980 0.88390 -1.06500
P 	P 	0.01389 0.94127 0.64541 0.53700
O 	O 	0.08340 0.96550 0.75730 -0.40700
C 	C 	0.91750 0.87260 0.65330 -0.10100
H 	H 	0.01950 0.98740 0.77100 0.21900
C 	C 	0.76110 0.87000 0.62520 0.01400
C 	C 	0.00330 0.82170 0.69270 -0.01300
H 	H 	0.70120 0.90450 0.59790 0.01900
C 	C 	0.69190 0.81640 0.63740 -0.03700
C 	C 	0.93930 0.76720 0.70620 0.03000
H 	H 	0.11060 0.82430 0.71140 0.06600
P 	P 	0.49390 0.81541 0.62940 0.14300
C 	C 	0.78000 0.76580 0.67680 -0.03900
C 	C 	0.03360 0.71340 0.74910 -0.07300
O 	O 	0.47170 0.82500 0.73270 -0.08400
O 	O 	0.44040 0.75170 0.59040 -0.36700
H 	H 	0.73120 0.72940 0.68410 0.08100
C 	C 	0.19090 0.71420 0.76690 0.16900
C 	C 	0.97390 0.66060 0.77360 0.04400
C 	C 	0.28250 0.66560 0.80750 -0.46200
H 	H 	0.23540 0.74950 0.75040 0.00500
C 	C 	0.06450 0.61060 0.81430 -0.17800
H 	H 	0.86800 0.65850 0.76240 0.03300
P 	P 	0.47920 0.66805 0.81480 -1.62500
C 	C 	0.22020 0.61320 0.83290 0.19200
P 	P 	0.97881 0.54185 0.83500 0.54900
O 	O 	0.49240 0.65640 0.70600 6.34500
O 	O 	0.53200 0.73290 0.84240 1.05400
H 	H 	0.28330 0.57980 0.86260 -0.06700
O 	O 	0.92590 0.50910 0.72890 -0.47400
H 	H 	0.99590 0.48670 0.72470 0.28700
O 	O 	0.40900 0.86610 0.77290 -0.03500
O 	O 	0.40350 0.93020 0.81330 -0.11200
P 	P 	0.48370 0.80540 0.56560 0.36500
O 	O 	0.44390 0.76880 0.45940 -0.19700
O 	O 	0.43060 0.76720 0.63510 0.06000
O 	O 	0.41780 0.86760 0.57130 -0.36400
P 	P 	0.48720 0.67710 0.85010 3.62400
O 	O 	0.53090 0.73690 0.88750 -1.63100
O 	O 	0.51080 0.67070 0.74040 -6.57900
O 	O 	0.56940 0.62710 0.91340 0.22200
Y 	Y 	0.74708 0.56176 0.98929 2.40200
O 	O 	0.59850 0.48451 0.92080 -0.58500
O 	O 	0.35120 0.42650 0.88540 -0.54000
O 	O 	0.08560 0.36430 0.96060 -0.22600
O 	O 	0.66360 0.05560 0.64290 -0.53400
O 	O 	0.40580 0.00529 0.58680 -0.58800
O 	O 	0.93610 0.11980 0.61610 -0.70200
P 	P 	0.48611 0.44127 0.85459 0.51600
O 	O 	0.41660 0.46550 0.74270 -0.41800
C 	C 	0.58250 0.37260 0.84670 -0.08100
H 	H 	0.48050 0.48740 0.72900 0.17700
C 	C 	0.73890 0.37000 0.87480 -0.00700
C 	C 	0.49670 0.32170 0.80730 -0.05300
H 	H 	0.79880 0.40450 0.90210 0.02600
C 	C 	0.80810 0.31640 0.86260 -0.02400
C 	C 	0.56070 0.26720 0.79380 0.05000
H 	H 	0.38940 0.32430 0.78860 0.07300
P 	P 	0.00610 0.31541 0.87060 0.27700
C 	C 	0.72000 0.26580 0.82320 -0.05500
C 	C 	0.46640 0.21340 0.75090 -0.04200
O 	O 	0.02830 0.32500 0.76730 -0.12900
O 	O 	0.05960 0.25170 0.90960 -0.16500
H 	H 	0.76880 0.22940 0.81590 0.09000
C 	C 	0.30910 0.21420 0.73310 0.07200
C 	C 	0.52610 0.16060 0.72640 0.02900
C 	C 	0.21750 0.16560 0.69250 -0.24700
H 	H 	0.26460 0.24950 0.74960 0.04000
C 	C 	0.43550 0.11060 0.68570 -0.13200
H 	H 	0.63200 0.15850 0.73760 0.04400
P 	P 	0.02080 0.16805 0.68520 -0.74600
C 	C 	0.27980 0.11320 0.66710 0.10200
P 	P 	0.52119 0.04185 0.66500 0.54000
O 	O 	0.00760 0.15640 0.79400 3.15000
O 	O 	0.96800 0.23290 0.65760 0.50200
H 	H 	0.21670 0.07980 0.63740 -0.02200
O 	O 	0.57410 0.00910 0.77110 -0.43700
H 	H 	0.50410 0.98670 0.77530 0.28500
O 	O 	0.09100 0.36610 0.72710 -0.05000
O 	O 	0.09650 0.43020 0.68670 -0.14800
P 	P 	0.01630 0.30540 0.93440 0.21400
O 	O 	0.05610 0.26880 0.04060 -0.14000
O 	O 	0.06940 0.26720 0.86490 -0.10500
O 	O 	0.08220 0.36760 0.92870 -0.28200
P 	P 	0.01280 0.17710 0.64990 1.92200
O 	O 	0.96910 0.23690 0.61250 -0.89200
O 	O 	0.98920 0.17070 0.75960 -3.34200
O 	O 	0.93060 0.12710 0.58660 0.04100
