data_crystal

_cell_length_a 10.05830
_cell_length_b 18.08500
_cell_length_c 15.61920
_cell_angle_alpha 90.00000
_cell_angle_beta  90.00000
_cell_angle_gamma 90.00000

_symmetry_space_group_name_	'P 1'
_symmetry_space_group_name_H-M	'P 1'

loop_
_symmetry_equiv_pos_as_xyz
  x,y,z

loop_
_atom_site_label
_atom_site_type_symbol
_atom_site_fract_x
_atom_site_fract_y
_atom_site_fract_z
_atom_site_charge
P 	P 	0.14720 0.32870 0.31692 0.72600
P 	P 	0.38130 0.31518 0.55893 0.66300
P 	P 	0.14030 0.57538 0.48647 0.71100
Al	Al	0.18160 0.21658 0.46414 2.39800
Al	Al	0.33440 0.32547 0.14991 2.39600
Al	Al	0.15000 0.40296 0.49510 2.39600
O 	O 	0.00020 0.33620 0.29110 -0.58800
O 	O 	0.17810 0.25120 0.34970 -0.61500
O 	O 	0.18270 0.38870 0.38280 -0.66700
O 	O 	0.23380 0.34660 0.23890 -0.64800
O 	O 	0.36200 0.27240 0.64290 -0.68000
O 	O 	0.34300 0.26660 0.48290 -0.70300
O 	O 	0.29240 0.38440 0.56230 -0.62700
O 	O 	0.52490 0.33980 0.54950 -0.55100
O 	O 	0.37410 0.09980 0.58050 -0.76500
O 	O 	0.27930 0.13160 0.43410 -0.58700
O 	O 	0.20690 0.50030 0.48210 -0.58700
O 	O 	0.00070 0.42910 0.55090 -0.68900
O 	O 	0.09330 0.30270 0.49900 -1.11700
O 	O 	0.18140 0.18720 0.58050 -0.81400
H 	H 	0.04690 0.29710 0.54840 0.34600
P 	P 	0.35280 0.67130 0.81692 0.72700
P 	P 	0.11870 0.68482 0.05893 0.67000
P 	P 	0.35970 0.42462 0.98647 0.71000
Al	Al	0.31840 0.78342 0.96414 2.39900
Al	Al	0.16560 0.67453 0.64991 2.39700
Al	Al	0.35000 0.59704 0.99510 2.39700
O 	O 	0.49980 0.66380 0.79110 -0.59000
O 	O 	0.32190 0.74880 0.84970 -0.61700
O 	O 	0.31730 0.61130 0.88280 -0.66800
O 	O 	0.26620 0.65340 0.73890 -0.64900
O 	O 	0.13800 0.72760 0.14290 -0.68000
O 	O 	0.15700 0.73340 0.98290 -0.70600
O 	O 	0.20760 0.61560 0.06230 -0.62600
O 	O 	0.97510 0.66020 0.04950 -0.55700
O 	O 	0.12590 0.90020 0.08050 -0.76400
O 	O 	0.22070 0.86840 0.93410 -0.58800
O 	O 	0.29310 0.49970 0.98210 -0.58700
O 	O 	0.49930 0.57090 0.05090 -0.68700
O 	O 	0.40670 0.69730 0.99900 -1.11400
O 	O 	0.31860 0.81280 0.08050 -0.81400
H 	H 	0.45310 0.70290 0.04840 0.34500
P 	P 	0.85280 0.82870 0.18308 0.72700
P 	P 	0.61870 0.81518 0.94107 0.66900
P 	P 	0.85970 0.07538 0.01353 0.70500
Al	Al	0.81840 0.71658 0.03586 2.39900
Al	Al	0.66560 0.82547 0.35009 2.39700
Al	Al	0.85000 0.90296 0.00490 2.39600
O 	O 	0.99980 0.83620 0.20890 -0.59300
O 	O 	0.82190 0.75120 0.15030 -0.61600
O 	O 	0.81730 0.88870 0.11720 -0.67000
O 	O 	0.76620 0.84660 0.26110 -0.64900
O 	O 	0.63800 0.77240 0.85710 -0.68000
O 	O 	0.65700 0.76660 0.01710 -0.70600
O 	O 	0.70760 0.88440 0.93770 -0.62300
O 	O 	0.47510 0.83980 0.95050 -0.55000
O 	O 	0.62590 0.59980 0.91950 -0.76200
O 	O 	0.72070 0.63160 0.06590 -0.58900
O 	O 	0.79310 0.00030 0.01790 -0.58700
O 	O 	0.99930 0.92910 0.94910 -0.67800
O 	O 	0.90670 0.80270 0.00100 -1.13100
O 	O 	0.81860 0.68720 0.91950 -0.80900
H 	H 	0.95310 0.79710 0.95160 0.35900
P 	P 	0.64720 0.17130 0.68308 0.72700
P 	P 	0.88130 0.18482 0.44107 0.66100
P 	P 	0.64030 0.92462 0.51353 0.71100
Al	Al	0.68160 0.28342 0.53586 2.39900
Al	Al	0.83440 0.17453 0.85009 2.39700
Al	Al	0.65000 0.09704 0.50490 2.39700
O 	O 	0.50020 0.16380 0.70890 -0.59000
O 	O 	0.67810 0.24880 0.65030 -0.61600
O 	O 	0.68270 0.11130 0.61720 -0.66800
O 	O 	0.73380 0.15340 0.76110 -0.64900
O 	O 	0.86200 0.22760 0.35710 -0.68200
O 	O 	0.84300 0.23340 0.51710 -0.70300
O 	O 	0.79240 0.11560 0.43770 -0.62800
O 	O 	0.02490 0.16020 0.45050 -0.54900
O 	O 	0.87410 0.40020 0.41950 -0.76600
O 	O 	0.77930 0.36840 0.56590 -0.58800
O 	O 	0.70690 0.99970 0.51790 -0.58700
O 	O 	0.50070 0.07090 0.44910 -0.68900
O 	O 	0.59330 0.19730 0.50100 -1.11800
O 	O 	0.68140 0.31280 0.41950 -0.81400
H 	H 	0.54690 0.20290 0.45160 0.34700
P 	P 	0.85280 0.67130 0.68308 0.72700
P 	P 	0.61870 0.68482 0.44107 0.66400
P 	P 	0.85970 0.42462 0.51353 0.71200
Al	Al	0.81840 0.78342 0.53586 2.39900
Al	Al	0.66560 0.67453 0.85009 2.39700
Al	Al	0.85000 0.59704 0.50490 2.39700
O 	O 	0.99980 0.66380 0.70890 -0.58800
O 	O 	0.82190 0.74880 0.65030 -0.61500
O 	O 	0.81730 0.61130 0.61720 -0.66700
O 	O 	0.76620 0.65340 0.76110 -0.64800
O 	O 	0.63800 0.72760 0.35710 -0.68000
O 	O 	0.65700 0.73340 0.51710 -0.70300
O 	O 	0.70760 0.61560 0.43770 -0.62700
O 	O 	0.47510 0.66020 0.45050 -0.55100
O 	O 	0.62590 0.90020 0.41950 -0.76500
O 	O 	0.72070 0.86840 0.56590 -0.58700
O 	O 	0.79310 0.49970 0.51790 -0.58700
O 	O 	0.99930 0.57090 0.44910 -0.68900
O 	O 	0.90670 0.69730 0.50100 -1.11700
O 	O 	0.81860 0.81280 0.41950 -0.81400
H 	H 	0.95310 0.70290 0.45160 0.34600
P 	P 	0.64720 0.32870 0.18308 0.72700
P 	P 	0.88130 0.31518 0.94107 0.67000
P 	P 	0.64030 0.57538 0.01353 0.71000
Al	Al	0.68160 0.21658 0.03586 2.39900
Al	Al	0.83440 0.32547 0.35009 2.39700
Al	Al	0.65000 0.40296 0.00490 2.39700
O 	O 	0.50020 0.33620 0.20890 -0.59000
O 	O 	0.67810 0.25120 0.15030 -0.61700
O 	O 	0.68270 0.38870 0.11720 -0.66800
O 	O 	0.73380 0.34660 0.26110 -0.64900
O 	O 	0.86200 0.27240 0.85710 -0.68000
O 	O 	0.84300 0.26660 0.01710 -0.70600
O 	O 	0.79240 0.38440 0.93770 -0.62600
O 	O 	0.02490 0.33980 0.95050 -0.55700
O 	O 	0.87410 0.09980 0.91950 -0.76400
O 	O 	0.77930 0.13160 0.06590 -0.58800
O 	O 	0.70690 0.50030 0.01790 -0.58700
O 	O 	0.50070 0.42910 0.94910 -0.68700
O 	O 	0.59330 0.30270 0.00100 -1.11400
O 	O 	0.68140 0.18720 0.91950 -0.81400
H 	H 	0.54690 0.29710 0.95160 0.34500
P 	P 	0.14720 0.17130 0.81692 0.72700
P 	P 	0.38130 0.18482 0.05893 0.66900
P 	P 	0.14030 0.92462 0.98647 0.70500
Al	Al	0.18160 0.28342 0.96414 2.39900
Al	Al	0.33440 0.17453 0.64991 2.39700
Al	Al	0.15000 0.09704 0.99510 2.39600
O 	O 	0.00020 0.16380 0.79110 -0.59300
O 	O 	0.17810 0.24880 0.84970 -0.61600
O 	O 	0.18270 0.11130 0.88280 -0.67000
O 	O 	0.23380 0.15340 0.73890 -0.64900
O 	O 	0.36200 0.22760 0.14290 -0.68000
O 	O 	0.34300 0.23340 0.98290 -0.70600
O 	O 	0.29240 0.11560 0.06230 -0.62300
O 	O 	0.52490 0.16020 0.04950 -0.55000
O 	O 	0.37410 0.40020 0.08050 -0.76200
O 	O 	0.27930 0.36840 0.93410 -0.58900
O 	O 	0.20690 0.99970 0.98210 -0.58700
O 	O 	0.00070 0.07090 0.05090 -0.67800
O 	O 	0.09330 0.19730 0.99900 -1.13100
O 	O 	0.18140 0.31280 0.08050 -0.80900
H 	H 	0.04690 0.20290 0.04840 0.35900
P 	P 	0.35280 0.82870 0.31692 0.72700
P 	P 	0.11870 0.81518 0.55893 0.66100
P 	P 	0.35970 0.07538 0.48647 0.71100
Al	Al	0.31840 0.71658 0.46414 2.39900
Al	Al	0.16560 0.82547 0.14991 2.39700
Al	Al	0.35000 0.90296 0.49510 2.39700
O 	O 	0.49980 0.83620 0.29110 -0.59000
O 	O 	0.32190 0.75120 0.34970 -0.61600
O 	O 	0.31730 0.88870 0.38280 -0.66800
O 	O 	0.26620 0.84660 0.23890 -0.64900
O 	O 	0.13800 0.77240 0.64290 -0.68200
O 	O 	0.15700 0.76660 0.48290 -0.70300
O 	O 	0.20760 0.88440 0.56230 -0.62800
O 	O 	0.97510 0.83980 0.54950 -0.54900
O 	O 	0.12590 0.59980 0.58050 -0.76600
O 	O 	0.22070 0.63160 0.43410 -0.58800
O 	O 	0.29310 0.00030 0.48210 -0.58700
O 	O 	0.49930 0.92910 0.55090 -0.68900
O 	O 	0.40670 0.80270 0.49900 -1.11800
O 	O 	0.31860 0.68720 0.58050 -0.81400
H 	H 	0.45310 0.79710 0.54840 0.34700
