data_crystal

_cell_length_a 16.64800
_cell_length_b 14.23000
_cell_length_c 9.28460
_cell_angle_alpha 90.00000
_cell_angle_beta  90.00000
_cell_angle_gamma 90.00000

_symmetry_space_group_name_	'P 1'
_symmetry_space_group_name_H-M	'P 1'

loop_
_symmetry_equiv_pos_as_xyz
  x,y,z

loop_
_atom_site_label
_atom_site_type_symbol
_atom_site_fract_x
_atom_site_fract_y
_atom_site_fract_z
_atom_site_charge
Zn	Zn	0.57661 0.10700 0.07395 1.23800
P 	P 	0.43943 0.10469 0.84140 0.47700
H 	H 	0.41570 0.17960 0.92370 -0.06400
O 	O 	0.52670 0.09800 0.88400 -0.45200
O 	O 	0.39390 0.01600 0.86480 -0.44700
O 	O 	0.43310 0.13890 0.69020 -0.43200
O 	O 	0.50670 0.16370 0.20810 -0.50600
O 	O 	0.17780 0.33540 0.46670 -0.47900
H 	H 	0.39680 0.23380 0.23300 -0.03700
Zn	Zn	0.92339 0.89300 0.57395 1.24000
P 	P 	0.06057 0.89531 0.34140 0.47700
H 	H 	0.08430 0.82040 0.42370 -0.06400
O 	O 	0.97330 0.90200 0.38400 -0.45200
O 	O 	0.10610 0.98400 0.36480 -0.44800
O 	O 	0.06690 0.86110 0.19020 -0.43100
O 	O 	0.99330 0.83630 0.70810 -0.50600
O 	O 	0.32220 0.66460 0.96670 -0.48000
H 	H 	0.10320 0.76620 0.73300 -0.03800
Zn	Zn	0.42339 0.60700 0.92605 1.24000
P 	P 	0.56057 0.60469 0.15860 0.47800
H 	H 	0.58430 0.67960 0.07630 -0.06300
O 	O 	0.47330 0.59800 0.11600 -0.45200
O 	O 	0.60610 0.51600 0.13520 -0.44800
O 	O 	0.56690 0.63890 0.30980 -0.43100
O 	O 	0.49330 0.66370 0.79190 -0.50500
O 	O 	0.82220 0.83540 0.53330 -0.48000
H 	H 	0.60320 0.73380 0.76700 -0.03500
Zn	Zn	0.07661 0.39300 0.42605 1.24000
P 	P 	0.93943 0.39531 0.65860 0.47800
H 	H 	0.91570 0.32040 0.57630 -0.06400
O 	O 	0.02670 0.40200 0.61600 -0.45200
O 	O 	0.89390 0.48400 0.63520 -0.44800
O 	O 	0.93310 0.36110 0.80980 -0.43100
O 	O 	0.00670 0.33630 0.29190 -0.50500
O 	O 	0.67780 0.16460 0.03330 -0.48100
H 	H 	0.89680 0.26620 0.26700 -0.03500
Zn	Zn	0.42339 0.89300 0.92605 1.23900
P 	P 	0.56057 0.89531 0.15860 0.47800
H 	H 	0.58430 0.82040 0.07630 -0.06300
O 	O 	0.47330 0.90200 0.11600 -0.45100
O 	O 	0.60610 0.98400 0.13520 -0.44600
O 	O 	0.56690 0.86110 0.30980 -0.43100
O 	O 	0.49330 0.83630 0.79190 -0.50600
O 	O 	0.82220 0.66460 0.53330 -0.47900
H 	H 	0.60320 0.76620 0.76700 -0.03700
Zn	Zn	0.07661 0.10700 0.42605 1.24000
P 	P 	0.93943 0.10469 0.65860 0.47700
H 	H 	0.91570 0.17960 0.57630 -0.06400
O 	O 	0.02670 0.09800 0.61600 -0.45200
O 	O 	0.89390 0.01600 0.63520 -0.44800
O 	O 	0.93310 0.13890 0.80980 -0.43100
O 	O 	0.00670 0.16370 0.29190 -0.50600
O 	O 	0.67780 0.33540 0.03330 -0.48000
H 	H 	0.89680 0.23380 0.26700 -0.03800
Zn	Zn	0.57661 0.39300 0.07395 1.24000
P 	P 	0.43943 0.39531 0.84140 0.47800
H 	H 	0.41570 0.32040 0.92370 -0.06300
O 	O 	0.52670 0.40200 0.88400 -0.45200
O 	O 	0.39390 0.48400 0.86480 -0.44800
O 	O 	0.43310 0.36110 0.69020 -0.43100
O 	O 	0.50670 0.33630 0.20810 -0.50500
O 	O 	0.17780 0.16460 0.46670 -0.48000
H 	H 	0.39680 0.26620 0.23300 -0.03500
Zn	Zn	0.92339 0.60700 0.57395 1.24000
P 	P 	0.06057 0.60469 0.34140 0.47800
H 	H 	0.08430 0.67960 0.42370 -0.06400
O 	O 	0.97330 0.59800 0.38400 -0.45200
O 	O 	0.10610 0.51600 0.36480 -0.44800
O 	O 	0.06690 0.63890 0.19020 -0.43100
O 	O 	0.99330 0.66370 0.70810 -0.50500
O 	O 	0.32220 0.83540 0.96670 -0.48100
H 	H 	0.10320 0.73380 0.73300 -0.03500
Zn	Zn	0.40326 0.25000 0.58651 1.25000
P 	P 	0.47102 0.25000 0.26180 0.58300
P 	P 	0.22406 0.25000 0.45000 0.56400
H 	H 	0.25110 0.25000 0.32090 -0.07500
O 	O 	0.46750 0.25000 0.41780 -0.46400
O 	O 	0.29230 0.25000 0.55390 -0.46000
Zn	Zn	0.09674 0.75000 0.08651 1.25000
P 	P 	0.02898 0.75000 0.76180 0.58200
P 	P 	0.27594 0.75000 0.95000 0.56300
H 	H 	0.24890 0.75000 0.82090 -0.07500
O 	O 	0.03250 0.75000 0.91780 -0.46500
O 	O 	0.20770 0.75000 0.05390 -0.45800
Zn	Zn	0.59674 0.75000 0.41349 1.25000
P 	P 	0.52898 0.75000 0.73820 0.58300
P 	P 	0.77594 0.75000 0.55000 0.56400
H 	H 	0.74890 0.75000 0.67910 -0.07500
O 	O 	0.53250 0.75000 0.58220 -0.46400
O 	O 	0.70770 0.75000 0.44610 -0.46000
Zn	Zn	0.90326 0.25000 0.91349 1.25000
P 	P 	0.97102 0.25000 0.23820 0.58200
P 	P 	0.72406 0.25000 0.05000 0.56300
H 	H 	0.75110 0.25000 0.17910 -0.07500
O 	O 	0.96750 0.25000 0.08220 -0.46500
O 	O 	0.79230 0.25000 0.94610 -0.45800
