data_crystal

_cell_length_a 8.08310
_cell_length_b 16.88410
_cell_length_c 15.40440
_cell_angle_alpha 90.00000
_cell_angle_beta  90.76800
_cell_angle_gamma 90.00000

_symmetry_space_group_name_	'P 1'
_symmetry_space_group_name_H-M	'P 1'

loop_
_symmetry_equiv_pos_as_xyz
  x,y,z

loop_
_atom_site_label
_atom_site_type_symbol
_atom_site_fract_x
_atom_site_fract_y
_atom_site_fract_z
_atom_site_charge
Zn	Zn	0.65162 0.14919 0.24172 1.23800
Zn	Zn	0.85398 0.04055 0.60781 1.23100
Zn	Zn	0.93329 0.05407 0.88355 1.22900
P 	P 	0.76771 0.05920 0.06915 0.46900
H 	H 	0.61800 0.04290 0.05130 -0.05500
P 	P 	0.79757 0.05698 0.40541 0.44700
H 	H 	0.68300 0.98530 0.37380 -0.02900
P 	P 	0.64733 0.97606 0.77010 0.45500
H 	H 	0.51720 0.02520 0.80980 -0.04100
P 	P 	0.04817 0.15919 0.73151 0.45000
H 	H 	0.18770 0.10750 0.73970 -0.05200
O 	O 	0.78010 0.11990 0.14100 -0.43900
O 	O 	0.57040 0.89340 0.77260 -0.42200
O 	O 	0.13070 0.23820 0.72290 -0.41800
O 	O 	0.74890 0.12860 0.35220 -0.44000
O 	O 	0.74950 0.06940 0.49890 -0.43200
O 	O 	0.94020 0.14220 0.65220 -0.43100
O 	O 	0.97860 0.03810 0.39530 -0.48700
O 	O 	0.67430 0.00550 0.68060 -0.46000
O 	O 	0.79880 0.97510 0.82810 -0.46300
O 	O 	0.95380 0.15020 0.81490 -0.44400
O 	O 	0.84390 0.98040 0.08890 -0.47300
O 	O 	0.83640 0.09760 0.98820 -0.43400
Zn	Zn	0.84838 0.64919 0.25828 1.23900
Zn	Zn	0.64602 0.54055 0.89219 1.23200
Zn	Zn	0.56671 0.55407 0.61645 1.23000
P 	P 	0.73229 0.55920 0.43085 0.47100
H 	H 	0.88200 0.54290 0.44870 -0.05500
P 	P 	0.70243 0.55698 0.09459 0.44700
H 	H 	0.81700 0.48530 0.12620 -0.03000
P 	P 	0.85267 0.47606 0.72990 0.45500
H 	H 	0.98280 0.52520 0.69020 -0.04100
P 	P 	0.45183 0.65919 0.76849 0.44800
H 	H 	0.31230 0.60750 0.76030 -0.05300
O 	O 	0.71990 0.61990 0.35900 -0.43800
O 	O 	0.92960 0.39340 0.72740 -0.42200
O 	O 	0.36930 0.73820 0.77710 -0.41800
O 	O 	0.75110 0.62860 0.14780 -0.44000
O 	O 	0.75050 0.56940 0.00110 -0.43200
O 	O 	0.55980 0.64220 0.84780 -0.43100
O 	O 	0.52140 0.53810 0.10470 -0.48700
O 	O 	0.82570 0.50550 0.81940 -0.46000
O 	O 	0.70120 0.47510 0.67190 -0.46300
O 	O 	0.54620 0.65020 0.68510 -0.44300
O 	O 	0.65610 0.48040 0.41110 -0.47600
O 	O 	0.66360 0.59760 0.51180 -0.43300
Zn	Zn	0.34838 0.85081 0.75828 1.23900
Zn	Zn	0.14602 0.95945 0.39219 1.23200
Zn	Zn	0.06671 0.94593 0.11645 1.22900
P 	P 	0.23229 0.94080 0.93085 0.46900
H 	H 	0.38200 0.95710 0.94870 -0.05500
P 	P 	0.20243 0.94302 0.59459 0.44700
H 	H 	0.31700 0.01470 0.62620 -0.02900
P 	P 	0.35267 0.02394 0.22990 0.45500
H 	H 	0.48280 0.97480 0.19020 -0.04100
P 	P 	0.95183 0.84081 0.26849 0.45000
H 	H 	0.81230 0.89250 0.26030 -0.05200
O 	O 	0.21990 0.88010 0.85900 -0.43900
O 	O 	0.42960 0.10660 0.22740 -0.42200
O 	O 	0.86930 0.76180 0.27710 -0.41800
O 	O 	0.25110 0.87140 0.64780 -0.44000
O 	O 	0.25050 0.93060 0.50110 -0.43200
O 	O 	0.05980 0.85780 0.34780 -0.43100
O 	O 	0.02140 0.96190 0.60470 -0.48700
O 	O 	0.32570 0.99450 0.31940 -0.46000
O 	O 	0.20120 0.02490 0.17190 -0.46300
O 	O 	0.04620 0.84980 0.18510 -0.44400
O 	O 	0.15610 0.01960 0.91110 -0.47300
O 	O 	0.16360 0.90240 0.01180 -0.43400
Zn	Zn	0.15162 0.35081 0.74172 1.23900
Zn	Zn	0.35398 0.45945 0.10781 1.23200
Zn	Zn	0.43329 0.44593 0.38355 1.23000
P 	P 	0.26771 0.44080 0.56915 0.47100
H 	H 	0.11800 0.45710 0.55130 -0.05500
P 	P 	0.29757 0.44302 0.90541 0.44700
H 	H 	0.18300 0.51470 0.87380 -0.03000
P 	P 	0.14733 0.52394 0.27010 0.45500
H 	H 	0.01720 0.47480 0.30980 -0.04100
P 	P 	0.54817 0.34081 0.23151 0.44800
H 	H 	0.68770 0.39250 0.23970 -0.05300
O 	O 	0.28010 0.38010 0.64100 -0.43800
O 	O 	0.07040 0.60660 0.27260 -0.42200
O 	O 	0.63070 0.26180 0.22290 -0.41800
O 	O 	0.24890 0.37140 0.85220 -0.44000
O 	O 	0.24950 0.43060 0.99890 -0.43200
O 	O 	0.44020 0.35780 0.15220 -0.43100
O 	O 	0.47860 0.46190 0.89530 -0.48700
O 	O 	0.17430 0.49450 0.18060 -0.46000
O 	O 	0.29880 0.52490 0.32810 -0.46300
O 	O 	0.45380 0.34980 0.31490 -0.44300
O 	O 	0.34390 0.51960 0.58890 -0.47600
O 	O 	0.33640 0.40240 0.48820 -0.43300
