data_crystal

_cell_length_a 4.93270
_cell_length_b 12.88920
_cell_length_c 19.80800
_cell_angle_alpha 107.04600
_cell_angle_beta  90.00000
_cell_angle_gamma 101.03200

_symmetry_space_group_name_	'P 1'
_symmetry_space_group_name_H-M	'P 1'

loop_
_symmetry_equiv_pos_as_xyz
  x,y,z

loop_
_atom_site_label
_atom_site_type_symbol
_atom_site_fract_x
_atom_site_fract_y
_atom_site_fract_z
_atom_site_charge
Zn	Zn	0.23380 0.88220 0.76277 1.22000
Zn	Zn	0.78774 0.11148 0.73683 1.20300
Zn	Zn	0.35160 0.11780 0.23723 1.20600
Zn	Zn	0.67626 0.88852 0.26317 1.21500
Zn	Zn	0.95680 0.00000 -0.00000 1.15100
Zn	Zn	0.07010 0.00000 0.50000 1.17800
P 	P 	0.26174 0.01568 0.65099 0.38700
P 	P 	0.75881 0.97462 0.84874 0.61300
P 	P 	0.24606 0.98432 0.34901 0.63000
P 	P 	0.78419 0.02538 0.15126 0.36900
H 	H 	0.86250 0.73480 0.68840 0.09600
H 	H 	0.85500 0.72380 0.76090 0.10100
H 	H 	0.23310 0.64640 0.66530 0.01400
H 	H 	0.21540 0.63200 0.74270 0.01800
H 	H 	0.77850 0.51100 0.71040 0.05200
H 	H 	0.77590 0.53060 0.63420 0.05400
H 	H 	0.15530 0.42020 0.68280 0.03900
H 	H 	0.18120 0.44800 0.60930 0.04000
H 	H 	0.74170 0.29500 0.64180 0.04300
H 	H 	0.73930 0.32900 0.57020 0.05000
H 	H 	0.14670 0.22220 0.61060 0.00800
H 	H 	0.16000 0.26100 0.54080 0.01500
H 	H 	0.72460 0.10580 0.56080 0.08400
H 	H 	0.77820 0.13400 0.49400 0.09200
H 	H 	0.25960 0.87180 0.01100 0.07300
H 	H 	0.29280 0.88760 0.94010 0.12300
H 	H 	0.86210 0.74500 0.97350 0.03800
H 	H 	0.88670 0.76420 0.89760 0.02200
H 	H 	0.25620 0.66400 0.95640 0.06100
H 	H 	0.28540 0.68440 0.88070 0.04800
H 	H 	0.84410 0.56360 0.84360 0.04600
H 	H 	0.84440 0.53700 0.91740 0.05300
H 	H 	0.23620 0.48460 0.81540 0.04700
H 	H 	0.22090 0.45360 0.88790 0.05400
H 	H 	0.80350 0.36600 0.77600 0.01700
H 	H 	0.79310 0.33400 0.84800 0.01800
H 	H 	0.15940 0.27760 0.74520 0.09600
H 	H 	0.17000 0.25320 0.81370 0.09000
H 	H 	0.12770 0.26520 0.31160 0.08800
H 	H 	0.13120 0.27620 0.23910 0.10300
H 	H 	0.58670 0.35360 0.33470 0.00900
H 	H 	0.58340 0.36800 0.25730 0.01100
H 	H 	0.26750 0.48900 0.28960 0.06000
H 	H 	0.24530 0.46940 0.36580 0.05800
H 	H 	0.73510 0.57980 0.31720 0.02900
H 	H 	0.73320 0.55200 0.39070 0.03300
H 	H 	0.44670 0.70500 0.35820 0.05500
H 	H 	0.41030 0.67100 0.42980 0.06000
H 	H 	0.92450 0.77780 0.38940 0.01000
H 	H 	0.89900 0.73900 0.45920 0.01700
H 	H 	0.61880 0.89420 0.43920 0.12400
H 	H 	0.64420 0.86600 0.50600 0.11700
H 	H 	0.38780 0.12820 0.98900 0.14500
H 	H 	0.40520 0.11240 0.05990 0.08700
H 	H 	0.11710 0.25500 0.02650 -0.01000
H 	H 	0.12250 0.23580 0.10240 0.00200
H 	H 	0.59220 0.33600 0.04360 0.04600
H 	H 	0.60100 0.31560 0.11930 0.05800
H 	H 	0.28050 0.43640 0.15640 0.02800
H 	H 	0.30740 0.46300 0.08260 0.02000
H 	H 	0.75160 0.51540 0.18460 0.06000
H 	H 	0.76730 0.54640 0.11210 0.05200
H 	H 	0.43750 0.63400 0.22400 0.00800
H 	H 	0.45910 0.66600 0.15200 0.00200
H 	H 	0.88180 0.72240 0.25480 0.09800
H 	H 	0.91680 0.74680 0.18630 0.08800
C 	C 	0.10500 0.63600 0.70220 -0.03200
C 	C 	0.89670 0.52540 0.67250 -0.11500
C 	C 	0.04840 0.42880 0.64320 -0.07800
C 	C 	0.86100 0.32000 0.60700 -0.10500
C 	C 	0.03250 0.23300 0.57300 -0.04700
C 	C 	0.99500 0.76200 0.93900 -0.05600
C 	C 	0.15100 0.66800 0.91500 -0.08900
C 	C 	0.96520 0.55640 0.88120 -0.09900
C 	C 	0.10790 0.46380 0.84990 -0.09200
C 	C 	0.91940 0.35480 0.81310 -0.04200
C 	C 	0.46900 0.36400 0.29780 -0.01800
C 	C 	0.37130 0.47460 0.32750 -0.14000
C 	C 	0.61960 0.57120 0.35680 -0.04300
C 	C 	0.54100 0.68000 0.39300 -0.14300
C 	C 	0.79950 0.76700 0.42700 -0.01500
C 	C 	0.23300 0.23800 0.06100 -0.00300
C 	C 	0.48300 0.33200 0.08500 -0.15400
C 	C 	0.40880 0.44360 0.11880 -0.03000
C 	C 	0.64410 0.53620 0.15010 -0.14800
C 	C 	0.56460 0.64520 0.18690 -0.00700
N 	N 	0.97060 0.73320 0.72580 -0.34900
N 	N 	0.86170 0.12540 0.53300 -0.35300
N 	N 	0.16440 0.87280 0.97140 -0.29600
N 	N 	0.05240 0.26080 0.78010 -0.34200
N 	N 	0.23740 0.26680 0.27420 -0.35100
N 	N 	0.73630 0.87460 0.46700 -0.35000
N 	N 	0.29160 0.12720 0.02860 -0.40500
N 	N 	0.79160 0.73920 0.21990 -0.34900
O 	O 	0.31340 0.91680 0.67540 -0.43400
O 	O 	0.44580 0.12560 0.69530 -0.49700
O 	O 	0.31770 0.99140 0.57180 -0.37300
O 	O 	0.95920 0.02240 0.65780 -0.53100
O 	O 	0.69140 0.00080 0.92640 -0.53500
O 	O 	0.57220 0.86440 0.80460 -0.49200
O 	O 	0.69680 0.06960 0.82180 -0.57200
O 	O 	0.06560 0.96720 0.84140 -0.47900
O 	O 	0.39660 0.08320 0.32460 -0.57300
O 	O 	0.32020 0.87440 0.30470 -0.50500
O 	O 	0.32630 0.00860 0.42820 -0.56400
O 	O 	0.93680 0.97760 0.34220 -0.48100
O 	O 	0.69060 0.99920 0.07360 -0.37600
O 	O 	0.70780 0.13560 0.19540 -0.48900
O 	O 	0.62720 0.93040 0.17820 -0.43700
O 	O 	0.09840 0.03280 0.15860 -0.53300
