data_crystal

_cell_length_a 19.91320
_cell_length_b 19.91320
_cell_length_c 25.05170
_cell_angle_alpha 90.00000
_cell_angle_beta  90.00000
_cell_angle_gamma 90.00000

_symmetry_space_group_name_	'P 1'
_symmetry_space_group_name_H-M	'P 1'

loop_
_symmetry_equiv_pos_as_xyz
  x,y,z

loop_
_atom_site_label
_atom_site_type_symbol
_atom_site_fract_x
_atom_site_fract_y
_atom_site_fract_z
_atom_site_charge
O 	O 	0.03800 0.57550 0.32890 -0.46900
C 	C 	0.03170 0.81330 0.30900 -0.23300
O 	O 	0.96990 0.43080 0.20730 -0.53900
O 	O 	0.02190 0.36550 0.26630 -0.44900
O 	O 	0.16490 0.72400 0.44820 -0.52800
O 	O 	0.98280 0.61880 0.25930 -0.50800
C 	C 	0.03540 0.69310 0.31970 -0.22400
C 	C 	0.07100 0.82170 0.35330 0.15600
H 	H 	0.08310 0.86450 0.36460 -0.03700
C 	C 	0.01810 0.62380 0.30200 0.45400
C 	C 	0.07490 0.70120 0.36580 0.14200
H 	H 	0.08860 0.66400 0.38520 -0.00000
C 	C 	0.01400 0.74960 0.29210 0.15700
H 	H 	0.98730 0.74460 0.26190 -0.02600
C 	C 	0.14070 0.77140 0.42650 0.43000
C 	C 	0.98910 0.37380 0.22270 0.43000
C 	C 	0.09300 0.76460 0.38170 -0.22400
O 	O 	0.15530 0.82930 0.44190 -0.39500
O 	O 	0.46200 0.92450 0.32890 -0.46800
C 	C 	0.46830 0.68670 0.30900 -0.23100
O 	O 	0.53010 0.06920 0.20730 -0.53800
O 	O 	0.47810 0.13450 0.26630 -0.44800
O 	O 	0.33510 0.77600 0.44820 -0.52800
O 	O 	0.51720 0.88120 0.25930 -0.50800
C 	C 	0.46460 0.80690 0.31970 -0.22200
C 	C 	0.42900 0.67830 0.35330 0.15400
H 	H 	0.41690 0.63550 0.36460 -0.03700
C 	C 	0.48190 0.87620 0.30200 0.45200
C 	C 	0.42510 0.79880 0.36580 0.14000
H 	H 	0.41140 0.83600 0.38520 0.00000
C 	C 	0.48600 0.75040 0.29210 0.15200
H 	H 	0.51270 0.75540 0.26190 -0.02400
C 	C 	0.35930 0.72860 0.42650 0.43000
C 	C 	0.51090 0.12620 0.22270 0.42700
C 	C 	0.40700 0.73540 0.38170 -0.22300
O 	O 	0.34470 0.67070 0.44190 -0.39600
O 	O 	0.92450 0.03800 0.82890 -0.46100
C 	C 	0.68670 0.03170 0.80900 -0.22400
O 	O 	0.06920 0.96990 0.70730 -0.53800
O 	O 	0.13450 0.02190 0.76630 -0.44700
O 	O 	0.77600 0.16490 0.94820 -0.49800
O 	O 	0.88120 0.98280 0.75930 -0.50800
C 	C 	0.80690 0.03540 0.81970 -0.21400
C 	C 	0.67830 0.07100 0.85330 0.14800
H 	H 	0.63550 0.08310 0.86460 -0.03100
C 	C 	0.87620 0.01810 0.80200 0.45300
C 	C 	0.79880 0.07490 0.86580 0.13400
H 	H 	0.83600 0.08860 0.88520 0.00900
C 	C 	0.75040 0.01400 0.79210 0.14900
H 	H 	0.75540 0.98730 0.76190 -0.02000
C 	C 	0.72860 0.14070 0.92650 0.42000
C 	C 	0.12620 0.98910 0.72270 0.43200
C 	C 	0.73540 0.09300 0.88170 -0.20800
O 	O 	0.67070 0.15530 0.94190 -0.37000
O 	O 	0.57550 0.46200 0.82890 -0.46200
C 	C 	0.81330 0.46830 0.80900 -0.22300
O 	O 	0.43080 0.53010 0.70730 -0.53800
O 	O 	0.36550 0.47810 0.76630 -0.44300
O 	O 	0.72400 0.33510 0.94820 -0.49800
O 	O 	0.61880 0.51720 0.75930 -0.50700
C 	C 	0.69310 0.46460 0.81970 -0.21300
C 	C 	0.82170 0.42900 0.85330 0.14800
H 	H 	0.86450 0.41690 0.86460 -0.03000
C 	C 	0.62380 0.48190 0.80200 0.45100
C 	C 	0.70120 0.42510 0.86580 0.13300
H 	H 	0.66400 0.41140 0.88520 0.00900
C 	C 	0.74960 0.48600 0.79210 0.14700
H 	H 	0.74460 0.51270 0.76190 -0.01900
C 	C 	0.77140 0.35930 0.92650 0.42000
C 	C 	0.37380 0.51090 0.72270 0.42600
C 	C 	0.76460 0.40700 0.88170 -0.20800
O 	O 	0.82930 0.34470 0.94190 -0.36900
O 	O 	0.96200 0.07550 0.17110 -0.47500
C 	C 	0.96830 0.31330 0.19100 -0.23900
O 	O 	0.03010 0.93080 0.29270 -0.53700
O 	O 	0.97810 0.86550 0.23370 -0.45300
O 	O 	0.83510 0.22400 0.05180 -0.54700
O 	O 	0.01720 0.11880 0.24070 -0.51200
C 	C 	0.96460 0.19310 0.18030 -0.23200
C 	C 	0.92900 0.32170 0.14670 0.16100
H 	H 	0.91690 0.36450 0.13540 -0.04400
C 	C 	0.98190 0.12380 0.19800 0.45900
C 	C 	0.92510 0.20120 0.13420 0.14800
H 	H 	0.91140 0.16400 0.11480 -0.00800
C 	C 	0.98600 0.24960 0.20790 0.16100
H 	H 	0.01270 0.24460 0.23810 -0.02700
C 	C 	0.85930 0.27140 0.07350 0.43700
C 	C 	0.01090 0.87380 0.27730 0.43100
C 	C 	0.90700 0.26460 0.11830 -0.23600
O 	O 	0.84470 0.32930 0.05810 -0.41600
O 	O 	0.53800 0.42450 0.17110 -0.47500
C 	C 	0.53170 0.18670 0.19100 -0.23600
O 	O 	0.46990 0.56920 0.29270 -0.53900
O 	O 	0.52190 0.63450 0.23370 -0.45100
O 	O 	0.66490 0.27600 0.05180 -0.54700
O 	O 	0.48280 0.38120 0.24070 -0.51000
C 	C 	0.53540 0.30690 0.18030 -0.22900
C 	C 	0.57100 0.17830 0.14670 0.15800
H 	H 	0.58310 0.13550 0.13540 -0.04300
C 	C 	0.51810 0.37620 0.19800 0.45500
C 	C 	0.57490 0.29880 0.13420 0.14600
H 	H 	0.58860 0.33600 0.11480 -0.00800
C 	C 	0.51400 0.25040 0.20790 0.15500
H 	H 	0.48730 0.25540 0.23810 -0.02400
C 	C 	0.64070 0.22860 0.07350 0.43700
C 	C 	0.48910 0.62620 0.27730 0.42800
C 	C 	0.59300 0.23540 0.11830 -0.23500
O 	O 	0.65530 0.17070 0.05810 -0.41600
O 	O 	0.07550 0.53800 0.67110 -0.47000
C 	C 	0.31330 0.53170 0.69100 -0.22800
O 	O 	0.93080 0.46990 0.79270 -0.53800
O 	O 	0.86550 0.52190 0.73370 -0.44600
O 	O 	0.22400 0.66490 0.55180 -0.52800
O 	O 	0.11880 0.48280 0.74070 -0.51000
C 	C 	0.19310 0.53540 0.68030 -0.22100
C 	C 	0.32170 0.57100 0.64670 0.15300
H 	H 	0.36450 0.58310 0.63540 -0.03700
C 	C 	0.12380 0.51810 0.69800 0.45400
C 	C 	0.20120 0.57490 0.63420 0.13900
H 	H 	0.16400 0.58860 0.61480 0.00000
C 	C 	0.24960 0.51400 0.70790 0.15000
H 	H 	0.24460 0.48730 0.73810 -0.02000
C 	C 	0.27140 0.64070 0.57350 0.42900
C 	C 	0.87380 0.48910 0.77730 0.42700
C 	C 	0.26460 0.59300 0.61830 -0.22200
O 	O 	0.32930 0.65530 0.55810 -0.39600
O 	O 	0.42450 0.96200 0.67110 -0.47000
C 	C 	0.18670 0.96830 0.69100 -0.23300
O 	O 	0.56920 0.03010 0.79270 -0.53900
O 	O 	0.63450 0.97810 0.73370 -0.44600
O 	O 	0.27600 0.83510 0.55180 -0.52800
O 	O 	0.38120 0.01720 0.74070 -0.51200
C 	C 	0.30690 0.96460 0.68030 -0.22500
C 	C 	0.17830 0.92900 0.64670 0.15600
H 	H 	0.13550 0.91690 0.63540 -0.03800
C 	C 	0.37620 0.98190 0.69800 0.45800
C 	C 	0.29880 0.92510 0.63420 0.14300
H 	H 	0.33600 0.91140 0.61480 -0.00100
C 	C 	0.25040 0.98600 0.70790 0.16000
H 	H 	0.25540 0.01270 0.73810 -0.02500
C 	C 	0.22860 0.85930 0.57350 0.43000
C 	C 	0.62620 0.01090 0.77730 0.42700
C 	C 	0.23540 0.90700 0.61830 -0.22400
O 	O 	0.17070 0.84470 0.55810 -0.39500
O 	O 	0.96200 0.42450 0.67110 -0.47000
C 	C 	0.96830 0.18670 0.69100 -0.23300
O 	O 	0.03010 0.56920 0.79270 -0.53900
O 	O 	0.97810 0.63450 0.73370 -0.44600
O 	O 	0.83510 0.27600 0.55180 -0.52800
O 	O 	0.01720 0.38120 0.74070 -0.51200
C 	C 	0.96460 0.30690 0.68030 -0.22500
C 	C 	0.92900 0.17830 0.64670 0.15600
H 	H 	0.91690 0.13550 0.63540 -0.03800
C 	C 	0.98190 0.37620 0.69800 0.45800
C 	C 	0.92510 0.29880 0.63420 0.14300
H 	H 	0.91140 0.33600 0.61480 -0.00100
C 	C 	0.98600 0.25040 0.70790 0.16000
H 	H 	0.01270 0.25540 0.73810 -0.02500
C 	C 	0.85930 0.22860 0.57350 0.43000
C 	C 	0.01090 0.62620 0.77730 0.42700
C 	C 	0.90700 0.23540 0.61830 -0.22400
O 	O 	0.84470 0.17070 0.55810 -0.39500
O 	O 	0.53800 0.07550 0.67110 -0.47000
C 	C 	0.53170 0.31330 0.69100 -0.22800
O 	O 	0.46990 0.93080 0.79270 -0.53800
O 	O 	0.52190 0.86550 0.73370 -0.44600
O 	O 	0.66490 0.22400 0.55180 -0.52800
O 	O 	0.48280 0.11880 0.74070 -0.51000
C 	C 	0.53540 0.19310 0.68030 -0.22100
C 	C 	0.57100 0.32170 0.64670 0.15300
H 	H 	0.58310 0.36450 0.63540 -0.03700
C 	C 	0.51810 0.12380 0.69800 0.45400
C 	C 	0.57490 0.20120 0.63420 0.13900
H 	H 	0.58860 0.16400 0.61480 0.00000
C 	C 	0.51400 0.24960 0.70790 0.15000
H 	H 	0.48730 0.24460 0.73810 -0.02000
C 	C 	0.64070 0.27140 0.57350 0.42900
C 	C 	0.48910 0.87380 0.77730 0.42700
C 	C 	0.59300 0.26460 0.61830 -0.22200
O 	O 	0.65530 0.32930 0.55810 -0.39600
O 	O 	0.07550 0.96200 0.17110 -0.47500
C 	C 	0.31330 0.96830 0.19100 -0.23900
O 	O 	0.93080 0.03010 0.29270 -0.53700
O 	O 	0.86550 0.97810 0.23370 -0.45300
O 	O 	0.22400 0.83510 0.05180 -0.54700
O 	O 	0.11880 0.01720 0.24070 -0.51200
C 	C 	0.19310 0.96460 0.18030 -0.23200
C 	C 	0.32170 0.92900 0.14670 0.16100
H 	H 	0.36450 0.91690 0.13540 -0.04400
C 	C 	0.12380 0.98190 0.19800 0.45900
C 	C 	0.20120 0.92510 0.13420 0.14800
H 	H 	0.16400 0.91140 0.11480 -0.00800
C 	C 	0.24960 0.98600 0.20790 0.16100
H 	H 	0.24460 0.01270 0.23810 -0.02700
C 	C 	0.27140 0.85930 0.07350 0.43700
C 	C 	0.87380 0.01090 0.27730 0.43100
C 	C 	0.26460 0.90700 0.11830 -0.23600
O 	O 	0.32930 0.84470 0.05810 -0.41600
O 	O 	0.42450 0.53800 0.17110 -0.47500
C 	C 	0.18670 0.53170 0.19100 -0.23600
O 	O 	0.56920 0.46990 0.29270 -0.53900
O 	O 	0.63450 0.52190 0.23370 -0.45100
O 	O 	0.27600 0.66490 0.05180 -0.54700
O 	O 	0.38120 0.48280 0.24070 -0.51000
C 	C 	0.30690 0.53540 0.18030 -0.22900
C 	C 	0.17830 0.57100 0.14670 0.15800
H 	H 	0.13550 0.58310 0.13540 -0.04300
C 	C 	0.37620 0.51810 0.19800 0.45500
C 	C 	0.29880 0.57490 0.13420 0.14600
H 	H 	0.33600 0.58860 0.11480 -0.00800
C 	C 	0.25040 0.51400 0.20790 0.15500
H 	H 	0.25540 0.48730 0.23810 -0.02400
C 	C 	0.22860 0.64070 0.07350 0.43700
C 	C 	0.62620 0.48910 0.27730 0.42800
C 	C 	0.23540 0.59300 0.11830 -0.23500
O 	O 	0.17070 0.65530 0.05810 -0.41600
O 	O 	0.03800 0.92450 0.82890 -0.46100
C 	C 	0.03170 0.68670 0.80900 -0.22400
O 	O 	0.96990 0.06920 0.70730 -0.53800
O 	O 	0.02190 0.13450 0.76630 -0.44700
O 	O 	0.16490 0.77600 0.94820 -0.49800
O 	O 	0.98280 0.88120 0.75930 -0.50800
C 	C 	0.03540 0.80690 0.81970 -0.21400
C 	C 	0.07100 0.67830 0.85330 0.14800
H 	H 	0.08310 0.63550 0.86460 -0.03100
C 	C 	0.01810 0.87620 0.80200 0.45300
C 	C 	0.07490 0.79880 0.86580 0.13400
H 	H 	0.08860 0.83600 0.88520 0.00900
C 	C 	0.01400 0.75040 0.79210 0.14900
H 	H 	0.98730 0.75540 0.76190 -0.02000
C 	C 	0.14070 0.72860 0.92650 0.42000
C 	C 	0.98910 0.12620 0.72270 0.43200
C 	C 	0.09300 0.73540 0.88170 -0.20800
O 	O 	0.15530 0.67070 0.94190 -0.37000
O 	O 	0.46200 0.57550 0.82890 -0.46200
C 	C 	0.46830 0.81330 0.80900 -0.22300
O 	O 	0.53010 0.43080 0.70730 -0.53800
O 	O 	0.47810 0.36550 0.76630 -0.44300
O 	O 	0.33510 0.72400 0.94820 -0.49800
O 	O 	0.51720 0.61880 0.75930 -0.50700
C 	C 	0.46460 0.69310 0.81970 -0.21300
C 	C 	0.42900 0.82170 0.85330 0.14800
H 	H 	0.41690 0.86450 0.86460 -0.03000
C 	C 	0.48190 0.62380 0.80200 0.45100
C 	C 	0.42510 0.70120 0.86580 0.13300
H 	H 	0.41140 0.66400 0.88520 0.00900
C 	C 	0.48600 0.74960 0.79210 0.14700
H 	H 	0.51270 0.74460 0.76190 -0.01900
C 	C 	0.35930 0.77140 0.92650 0.42000
C 	C 	0.51090 0.37380 0.72270 0.42600
C 	C 	0.40700 0.76460 0.88170 -0.20800
O 	O 	0.34470 0.82930 0.94190 -0.36900
O 	O 	0.92450 0.46200 0.32890 -0.46800
C 	C 	0.68670 0.46830 0.30900 -0.23100
O 	O 	0.06920 0.53010 0.20730 -0.53800
O 	O 	0.13450 0.47810 0.26630 -0.44800
O 	O 	0.77600 0.33510 0.44820 -0.52800
O 	O 	0.88120 0.51720 0.25930 -0.50800
C 	C 	0.80690 0.46460 0.31970 -0.22200
C 	C 	0.67830 0.42900 0.35330 0.15400
H 	H 	0.63550 0.41690 0.36460 -0.03700
C 	C 	0.87620 0.48190 0.30200 0.45200
C 	C 	0.79880 0.42510 0.36580 0.14000
H 	H 	0.83600 0.41140 0.38520 0.00000
C 	C 	0.75040 0.48600 0.29210 0.15200
H 	H 	0.75540 0.51270 0.26190 -0.02400
C 	C 	0.72860 0.35930 0.42650 0.43000
C 	C 	0.12620 0.51090 0.22270 0.42700
C 	C 	0.73540 0.40700 0.38170 -0.22300
O 	O 	0.67070 0.34470 0.44190 -0.39600
O 	O 	0.57550 0.03800 0.32890 -0.46900
C 	C 	0.81330 0.03170 0.30900 -0.23300
O 	O 	0.43080 0.96990 0.20730 -0.53900
O 	O 	0.36550 0.02190 0.26630 -0.44900
O 	O 	0.72400 0.16490 0.44820 -0.52800
O 	O 	0.61880 0.98280 0.25930 -0.50800
C 	C 	0.69310 0.03540 0.31970 -0.22400
C 	C 	0.82170 0.07100 0.35330 0.15600
H 	H 	0.86450 0.08310 0.36460 -0.03700
C 	C 	0.62380 0.01810 0.30200 0.45400
C 	C 	0.70120 0.07490 0.36580 0.14200
H 	H 	0.66400 0.08860 0.38520 -0.00000
C 	C 	0.74960 0.01400 0.29210 0.15700
H 	H 	0.74460 0.98730 0.26190 -0.02600
C 	C 	0.77140 0.14070 0.42650 0.43000
C 	C 	0.37380 0.98910 0.22270 0.43000
C 	C 	0.76460 0.09300 0.38170 -0.22400
O 	O 	0.82930 0.15530 0.44190 -0.39500
Nd	Nd	0.95304 0.54696 0.18685 1.58800
Cd	Cd	0.03264 0.46736 0.30526 1.21200
Nd	Nd	0.54696 0.95304 0.18685 1.58800
Cd	Cd	0.46736 0.03264 0.30526 1.21200
Nd	Nd	0.95304 0.95304 0.68685 1.61100
Cd	Cd	0.03264 0.03264 0.80526 1.21300
Nd	Nd	0.54696 0.54696 0.68685 1.61300
Cd	Cd	0.46736 0.46736 0.80526 1.21400
Nd	Nd	0.04696 0.04696 0.31315 1.60700
Cd	Cd	0.96736 0.96736 0.19474 1.20900
Nd	Nd	0.45304 0.45304 0.31315 1.61100
Cd	Cd	0.53264 0.53264 0.19474 1.21000
Nd	Nd	0.04696 0.45304 0.81315 1.63600
Cd	Cd	0.96736 0.53264 0.69474 1.21200
Nd	Nd	0.45304 0.04696 0.81315 1.63600
Cd	Cd	0.53264 0.96736 0.69474 1.21200
Cd	Cd	0.23480 0.76520 0.50000 0.90200
Cd	Cd	0.26520 0.73480 0.50000 0.90200
Cd	Cd	0.73480 0.23480 -0.00000 0.88700
Cd	Cd	0.76520 0.26520 -0.00000 0.88700
Cd	Cd	0.76520 0.23480 0.50000 0.90200
Cd	Cd	0.73480 0.26520 0.50000 0.90200
Cd	Cd	0.26520 0.76520 -0.00000 0.88700
Cd	Cd	0.23480 0.73480 -0.00000 0.88700
