data_crystal

_cell_length_a 19.54100
_cell_length_b 19.54100
_cell_length_c 25.95000
_cell_angle_alpha 90.00000
_cell_angle_beta  90.00000
_cell_angle_gamma 90.00000

_symmetry_space_group_name_	'P 1'
_symmetry_space_group_name_H-M	'P 1'

loop_
_symmetry_equiv_pos_as_xyz
  x,y,z

loop_
_atom_site_label
_atom_site_type_symbol
_atom_site_fract_x
_atom_site_fract_y
_atom_site_fract_z
_atom_site_charge
O 	O 	0.07210 0.95550 0.33080 -0.45700
O 	O 	0.86400 0.97790 0.26153 -0.46000
O 	O 	0.93290 0.03180 0.20640 -0.50200
O 	O 	0.11510 0.01680 0.26650 -0.48600
O 	O 	0.22340 0.83560 0.45000 -0.50500
O 	O 	0.33430 0.83860 0.43920 -0.36700
C 	C 	0.31660 0.96530 0.30990 -0.21200
C 	C 	0.12190 0.97890 0.30570 0.44300
C 	C 	0.19190 0.96180 0.32400 -0.20000
C 	C 	0.24930 0.98470 0.29550 0.12500
H 	H 	0.24280 0.01290 0.26700 -0.01200
C 	C 	0.20120 0.92220 0.36760 0.11400
H 	H 	0.16350 0.90810 0.38680 0.01300
C 	C 	0.32350 0.92720 0.35350 0.13100
H 	H 	0.36740 0.91630 0.36470 -0.01700
C 	C 	0.87520 0.01200 0.22200 0.44700
C 	C 	0.26710 0.90310 0.38280 -0.18200
C 	C 	0.27330 0.85610 0.42690 0.37400
O 	O 	0.42790 0.54450 0.33080 -0.45900
O 	O 	0.63600 0.52210 0.26153 -0.45800
O 	O 	0.56710 0.46820 0.20640 -0.50400
O 	O 	0.38490 0.48320 0.26650 -0.48500
O 	O 	0.27660 0.66440 0.45000 -0.50500
O 	O 	0.16570 0.66140 0.43920 -0.36700
C 	C 	0.18340 0.53470 0.30990 -0.21000
C 	C 	0.37810 0.52110 0.30570 0.44000
C 	C 	0.30810 0.53820 0.32400 -0.19800
C 	C 	0.25070 0.51530 0.29550 0.12100
H 	H 	0.25720 0.48710 0.26700 -0.01000
C 	C 	0.29880 0.57780 0.36760 0.11300
H 	H 	0.33650 0.59190 0.38680 0.01300
C 	C 	0.17650 0.57280 0.35350 0.12900
H 	H 	0.13260 0.58370 0.36470 -0.01600
C 	C 	0.62480 0.48800 0.22200 0.44400
C 	C 	0.23290 0.59690 0.38280 -0.18100
C 	C 	0.22670 0.64390 0.42690 0.37400
O 	O 	0.54450 0.07210 0.83080 -0.45300
O 	O 	0.52210 0.86400 0.76153 -0.45500
O 	O 	0.46820 0.93290 0.70640 -0.50400
O 	O 	0.48320 0.11510 0.76650 -0.48400
O 	O 	0.66440 0.22340 0.95000 -0.47800
O 	O 	0.66140 0.33430 0.93920 -0.34400
C 	C 	0.53470 0.31660 0.80990 -0.20400
C 	C 	0.52110 0.12190 0.80570 0.43900
C 	C 	0.53820 0.19190 0.82400 -0.19100
C 	C 	0.51530 0.24930 0.79550 0.11700
H 	H 	0.48710 0.24280 0.76700 -0.00600
C 	C 	0.57780 0.20120 0.86760 0.10700
H 	H 	0.59190 0.16350 0.88680 0.02100
C 	C 	0.57280 0.32350 0.85350 0.12400
H 	H 	0.58370 0.36740 0.86470 -0.01000
C 	C 	0.48800 0.87520 0.72200 0.44300
C 	C 	0.59690 0.26710 0.88280 -0.16900
C 	C 	0.64390 0.27330 0.92690 0.36700
O 	O 	0.95550 0.42790 0.83080 -0.45300
O 	O 	0.97790 0.63600 0.76153 -0.45700
O 	O 	0.03180 0.56710 0.70640 -0.50400
O 	O 	0.01680 0.38490 0.76650 -0.48400
O 	O 	0.83560 0.27660 0.95000 -0.47800
O 	O 	0.83860 0.16570 0.93920 -0.34400
C 	C 	0.96530 0.18340 0.80990 -0.20400
C 	C 	0.97890 0.37810 0.80570 0.43900
C 	C 	0.96180 0.30810 0.82400 -0.19200
C 	C 	0.98470 0.25070 0.79550 0.11900
H 	H 	0.01290 0.25720 0.76700 -0.00700
C 	C 	0.92220 0.29880 0.86760 0.10800
H 	H 	0.90810 0.33650 0.88680 0.02100
C 	C 	0.92720 0.17650 0.85350 0.12500
H 	H 	0.91630 0.13260 0.86470 -0.01000
C 	C 	0.01200 0.62480 0.72200 0.44600
C 	C 	0.90310 0.23290 0.88280 -0.17000
C 	C 	0.85610 0.22670 0.92690 0.36700
O 	O 	0.92790 0.45550 0.16920 -0.46400
O 	O 	0.13600 0.47790 0.23847 -0.46100
O 	O 	0.06710 0.53180 0.29360 -0.50400
O 	O 	0.88490 0.51680 0.23350 -0.48700
O 	O 	0.77660 0.33560 0.05000 -0.52300
O 	O 	0.66570 0.33860 0.06080 -0.38500
C 	C 	0.68340 0.46530 0.19010 -0.21400
C 	C 	0.87810 0.47890 0.19430 0.44200
C 	C 	0.80810 0.46180 0.17600 -0.20400
C 	C 	0.75070 0.48470 0.20450 0.12200
H 	H 	0.75720 0.51290 0.23300 -0.01000
C 	C 	0.79880 0.42220 0.13240 0.11700
H 	H 	0.83650 0.40810 0.11320 0.00600
C 	C 	0.67650 0.42720 0.14650 0.13200
H 	H 	0.63260 0.41630 0.13530 -0.02100
C 	C 	0.12480 0.51200 0.27800 0.44500
C 	C 	0.73290 0.40310 0.11720 -0.19100
C 	C 	0.72670 0.35610 0.07310 0.37900
O 	O 	0.57210 0.04450 0.16920 -0.46500
O 	O 	0.36400 0.02210 0.23847 -0.46100
O 	O 	0.43290 0.96820 0.29360 -0.50400
O 	O 	0.61510 0.98320 0.23350 -0.48800
O 	O 	0.72340 0.16440 0.05000 -0.52300
O 	O 	0.83430 0.16140 0.06080 -0.38400
C 	C 	0.81660 0.03470 0.19010 -0.21600
C 	C 	0.62190 0.02110 0.19430 0.44400
C 	C 	0.69190 0.03820 0.17600 -0.20600
C 	C 	0.74930 0.01530 0.20450 0.12700
H 	H 	0.74280 0.98710 0.23300 -0.01200
C 	C 	0.70120 0.07780 0.13240 0.11800
H 	H 	0.66350 0.09190 0.11320 0.00600
C 	C 	0.82350 0.07280 0.14650 0.13400
H 	H 	0.86740 0.08370 0.13530 -0.02100
C 	C 	0.37520 0.98800 0.27800 0.44600
C 	C 	0.76710 0.09690 0.11720 -0.19200
C 	C 	0.77330 0.14390 0.07310 0.37900
O 	O 	0.45550 0.57210 0.66920 -0.45900
O 	O 	0.47790 0.36400 0.73847 -0.45700
O 	O 	0.53180 0.43290 0.79360 -0.50300
O 	O 	0.51680 0.61510 0.73350 -0.48700
O 	O 	0.33560 0.72340 0.55000 -0.50500
O 	O 	0.33860 0.83430 0.56080 -0.36700
C 	C 	0.46530 0.81660 0.69010 -0.20800
C 	C 	0.47890 0.62190 0.69430 0.44100
C 	C 	0.46180 0.69190 0.67600 -0.19700
C 	C 	0.48470 0.74930 0.70450 0.11900
H 	H 	0.51290 0.74280 0.73300 -0.00700
C 	C 	0.42220 0.70120 0.63240 0.11200
H 	H 	0.40810 0.66350 0.61320 0.01300
C 	C 	0.42720 0.82350 0.64650 0.12800
H 	H 	0.41630 0.86740 0.63530 -0.01600
C 	C 	0.51200 0.37520 0.77800 0.44400
C 	C 	0.40310 0.76710 0.61720 -0.18100
C 	C 	0.35610 0.77330 0.57310 0.37400
O 	O 	0.04450 0.92790 0.66920 -0.45900
O 	O 	0.02210 0.13600 0.73847 -0.45800
O 	O 	0.96820 0.06710 0.79360 -0.50100
O 	O 	0.98320 0.88490 0.73350 -0.48900
O 	O 	0.16440 0.77660 0.55000 -0.50500
O 	O 	0.16140 0.66570 0.56080 -0.36700
C 	C 	0.03470 0.68340 0.69010 -0.21100
C 	C 	0.02110 0.87810 0.69430 0.44600
C 	C 	0.03820 0.80810 0.67600 -0.20100
C 	C 	0.01530 0.75070 0.70450 0.12700
H 	H 	0.98710 0.75720 0.73300 -0.01000
C 	C 	0.07780 0.79880 0.63240 0.11500
H 	H 	0.09190 0.83650 0.61320 0.01300
C 	C 	0.07280 0.67650 0.64650 0.13100
H 	H 	0.08370 0.63260 0.63530 -0.01600
C 	C 	0.98800 0.12480 0.77800 0.44500
C 	C 	0.09690 0.73290 0.61720 -0.18200
C 	C 	0.14390 0.72670 0.57310 0.37400
O 	O 	0.92790 0.04450 0.66920 -0.45900
O 	O 	0.13600 0.02210 0.73847 -0.45800
O 	O 	0.06710 0.96820 0.79360 -0.50100
O 	O 	0.88490 0.98320 0.73350 -0.48900
O 	O 	0.77660 0.16440 0.55000 -0.50500
O 	O 	0.66570 0.16140 0.56080 -0.36700
C 	C 	0.68340 0.03470 0.69010 -0.21100
C 	C 	0.87810 0.02110 0.69430 0.44600
C 	C 	0.80810 0.03820 0.67600 -0.20100
C 	C 	0.75070 0.01530 0.70450 0.12700
H 	H 	0.75720 0.98710 0.73300 -0.01000
C 	C 	0.79880 0.07780 0.63240 0.11500
H 	H 	0.83650 0.09190 0.61320 0.01300
C 	C 	0.67650 0.07280 0.64650 0.13100
H 	H 	0.63260 0.08370 0.63530 -0.01600
C 	C 	0.12480 0.98800 0.77800 0.44500
C 	C 	0.73290 0.09690 0.61720 -0.18200
C 	C 	0.72670 0.14390 0.57310 0.37400
O 	O 	0.57210 0.45550 0.66920 -0.45900
O 	O 	0.36400 0.47790 0.73847 -0.45700
O 	O 	0.43290 0.53180 0.79360 -0.50300
O 	O 	0.61510 0.51680 0.73350 -0.48700
O 	O 	0.72340 0.33560 0.55000 -0.50500
O 	O 	0.83430 0.33860 0.56080 -0.36700
C 	C 	0.81660 0.46530 0.69010 -0.20800
C 	C 	0.62190 0.47890 0.69430 0.44100
C 	C 	0.69190 0.46180 0.67600 -0.19700
C 	C 	0.74930 0.48470 0.70450 0.11900
H 	H 	0.74280 0.51290 0.73300 -0.00700
C 	C 	0.70120 0.42220 0.63240 0.11200
H 	H 	0.66350 0.40810 0.61320 0.01300
C 	C 	0.82350 0.42720 0.64650 0.12800
H 	H 	0.86740 0.41630 0.63530 -0.01600
C 	C 	0.37520 0.51200 0.77800 0.44400
C 	C 	0.76710 0.40310 0.61720 -0.18100
C 	C 	0.77330 0.35610 0.57310 0.37400
O 	O 	0.45550 0.92790 0.16920 -0.46400
O 	O 	0.47790 0.13600 0.23847 -0.46100
O 	O 	0.53180 0.06710 0.29360 -0.50400
O 	O 	0.51680 0.88490 0.23350 -0.48700
O 	O 	0.33560 0.77660 0.05000 -0.52300
O 	O 	0.33860 0.66570 0.06080 -0.38500
C 	C 	0.46530 0.68340 0.19010 -0.21400
C 	C 	0.47890 0.87810 0.19430 0.44200
C 	C 	0.46180 0.80810 0.17600 -0.20400
C 	C 	0.48470 0.75070 0.20450 0.12200
H 	H 	0.51290 0.75720 0.23300 -0.01000
C 	C 	0.42220 0.79880 0.13240 0.11700
H 	H 	0.40810 0.83650 0.11320 0.00600
C 	C 	0.42720 0.67650 0.14650 0.13200
H 	H 	0.41630 0.63260 0.13530 -0.02100
C 	C 	0.51200 0.12480 0.27800 0.44500
C 	C 	0.40310 0.73290 0.11720 -0.19100
C 	C 	0.35610 0.72670 0.07310 0.37900
O 	O 	0.04450 0.57210 0.16920 -0.46500
O 	O 	0.02210 0.36400 0.23847 -0.46100
O 	O 	0.96820 0.43290 0.29360 -0.50400
O 	O 	0.98320 0.61510 0.23350 -0.48800
O 	O 	0.16440 0.72340 0.05000 -0.52300
O 	O 	0.16140 0.83430 0.06080 -0.38400
C 	C 	0.03470 0.81660 0.19010 -0.21600
C 	C 	0.02110 0.62190 0.19430 0.44400
C 	C 	0.03820 0.69190 0.17600 -0.20600
C 	C 	0.01530 0.74930 0.20450 0.12700
H 	H 	0.98710 0.74280 0.23300 -0.01200
C 	C 	0.07780 0.70120 0.13240 0.11800
H 	H 	0.09190 0.66350 0.11320 0.00600
C 	C 	0.07280 0.82350 0.14650 0.13400
H 	H 	0.08370 0.86740 0.13530 -0.02100
C 	C 	0.98800 0.37520 0.27800 0.44600
C 	C 	0.09690 0.76710 0.11720 -0.19200
C 	C 	0.14390 0.77330 0.07310 0.37900
O 	O 	0.07210 0.54450 0.83080 -0.45300
O 	O 	0.86400 0.52210 0.76153 -0.45500
O 	O 	0.93290 0.46820 0.70640 -0.50400
O 	O 	0.11510 0.48320 0.76650 -0.48400
O 	O 	0.22340 0.66440 0.95000 -0.47800
O 	O 	0.33430 0.66140 0.93920 -0.34400
C 	C 	0.31660 0.53470 0.80990 -0.20400
C 	C 	0.12190 0.52110 0.80570 0.43900
C 	C 	0.19190 0.53820 0.82400 -0.19100
C 	C 	0.24930 0.51530 0.79550 0.11700
H 	H 	0.24280 0.48710 0.76700 -0.00600
C 	C 	0.20120 0.57780 0.86760 0.10700
H 	H 	0.16350 0.59190 0.88680 0.02100
C 	C 	0.32350 0.57280 0.85350 0.12400
H 	H 	0.36740 0.58370 0.86470 -0.01000
C 	C 	0.87520 0.48800 0.72200 0.44300
C 	C 	0.26710 0.59690 0.88280 -0.16900
C 	C 	0.27330 0.64390 0.92690 0.36700
O 	O 	0.42790 0.95550 0.83080 -0.45300
O 	O 	0.63600 0.97790 0.76153 -0.45700
O 	O 	0.56710 0.03180 0.70640 -0.50400
O 	O 	0.38490 0.01680 0.76650 -0.48400
O 	O 	0.27660 0.83560 0.95000 -0.47800
O 	O 	0.16570 0.83860 0.93920 -0.34400
C 	C 	0.18340 0.96530 0.80990 -0.20400
C 	C 	0.37810 0.97890 0.80570 0.43900
C 	C 	0.30810 0.96180 0.82400 -0.19200
C 	C 	0.25070 0.98470 0.79550 0.11900
H 	H 	0.25720 0.01290 0.76700 -0.00700
C 	C 	0.29880 0.92220 0.86760 0.10800
H 	H 	0.33650 0.90810 0.88680 0.02100
C 	C 	0.17650 0.92720 0.85350 0.12500
H 	H 	0.13260 0.91630 0.86470 -0.01000
C 	C 	0.62480 0.01200 0.72200 0.44600
C 	C 	0.23290 0.90310 0.88280 -0.17000
C 	C 	0.22670 0.85610 0.92690 0.36700
O 	O 	0.54450 0.42790 0.33080 -0.45900
O 	O 	0.52210 0.63600 0.26153 -0.45800
O 	O 	0.46820 0.56710 0.20640 -0.50400
O 	O 	0.48320 0.38490 0.26650 -0.48500
O 	O 	0.66440 0.27660 0.45000 -0.50500
O 	O 	0.66140 0.16570 0.43920 -0.36700
C 	C 	0.53470 0.18340 0.30990 -0.21000
C 	C 	0.52110 0.37810 0.30570 0.44000
C 	C 	0.53820 0.30810 0.32400 -0.19800
C 	C 	0.51530 0.25070 0.29550 0.12100
H 	H 	0.48710 0.25720 0.26700 -0.01000
C 	C 	0.57780 0.29880 0.36760 0.11300
H 	H 	0.59190 0.33650 0.38680 0.01300
C 	C 	0.57280 0.17650 0.35350 0.12900
H 	H 	0.58370 0.13260 0.36470 -0.01600
C 	C 	0.48800 0.62480 0.22200 0.44400
C 	C 	0.59690 0.23290 0.38280 -0.18100
C 	C 	0.64390 0.22670 0.42690 0.37400
O 	O 	0.95550 0.07210 0.33080 -0.45800
O 	O 	0.97790 0.86400 0.26153 -0.46100
O 	O 	0.03180 0.93290 0.20640 -0.50300
O 	O 	0.01680 0.11510 0.26650 -0.48700
O 	O 	0.83560 0.22340 0.45000 -0.50500
O 	O 	0.83860 0.33430 0.43920 -0.36700
C 	C 	0.96530 0.31660 0.30990 -0.21200
C 	C 	0.97890 0.12190 0.30570 0.44300
C 	C 	0.96180 0.19190 0.32400 -0.20000
C 	C 	0.98470 0.24930 0.29550 0.12500
H 	H 	0.01290 0.24280 0.26700 -0.01200
C 	C 	0.92220 0.20120 0.36760 0.11400
H 	H 	0.90810 0.16350 0.38680 0.01300
C 	C 	0.92720 0.32350 0.35350 0.13100
H 	H 	0.91630 0.36740 0.36470 -0.01700
C 	C 	0.01200 0.87520 0.22200 0.44700
C 	C 	0.90310 0.26710 0.38280 -0.18200
C 	C 	0.85610 0.27330 0.42690 0.37400
Cd	Cd	0.96287 0.96287 0.30699 1.21100
Tb	Tb	0.05030 0.05030 0.19638 1.38600
Cd	Cd	0.53713 0.53713 0.30699 1.21100
Tb	Tb	0.44970 0.44970 0.19638 1.38800
Cd	Cd	0.53713 0.96287 0.80699 1.21300
Tb	Tb	0.44970 0.05030 0.69638 1.40700
Cd	Cd	0.96287 0.53713 0.80699 1.21300
Tb	Tb	0.05030 0.44970 0.69638 1.40700
Cd	Cd	0.03713 0.46287 0.19301 1.20900
Tb	Tb	0.94970 0.55030 0.30362 1.40500
Cd	Cd	0.46287 0.03713 0.19301 1.20900
Tb	Tb	0.55030 0.94970 0.30362 1.40500
Cd	Cd	0.46287 0.46287 0.69301 1.21100
Tb	Tb	0.55030 0.55030 0.80362 1.42300
Cd	Cd	0.03713 0.03713 0.69301 1.21100
Tb	Tb	0.94970 0.94970 0.80362 1.41700
Cd	Cd	0.26524 0.76524 0.50000 0.89500
Cd	Cd	0.23476 0.73476 0.50000 0.89500
Cd	Cd	0.73476 0.26524 -0.00000 0.88100
Cd	Cd	0.76524 0.23476 -0.00000 0.88100
Cd	Cd	0.73476 0.23476 0.50000 0.89500
Cd	Cd	0.76524 0.26524 0.50000 0.89500
Cd	Cd	0.26524 0.73476 -0.00000 0.88100
Cd	Cd	0.23476 0.76524 -0.00000 0.88100
