data_crystal

_cell_length_a 19.49110
_cell_length_b 19.49110
_cell_length_c 26.29950
_cell_angle_alpha 90.00000
_cell_angle_beta  90.00000
_cell_angle_gamma 90.00000

_symmetry_space_group_name_	'P 1'
_symmetry_space_group_name_H-M	'P 1'

loop_
_symmetry_equiv_pos_as_xyz
  x,y,z

loop_
_atom_site_label
_atom_site_type_symbol
_atom_site_fract_x
_atom_site_fract_y
_atom_site_fract_z
_atom_site_charge
Eu	Eu	0.05653 0.44347 0.19741 1.45100
Eu	Eu	0.44347 0.05653 0.19741 1.45100
Eu	Eu	0.05653 0.05653 0.69741 1.46100
Eu	Eu	0.44347 0.44347 0.69741 1.46300
Eu	Eu	0.94347 0.94347 0.30259 1.46100
Eu	Eu	0.55653 0.55653 0.30259 1.46300
Eu	Eu	0.94347 0.55653 0.80259 1.47500
Eu	Eu	0.55653 0.94347 0.80259 1.47500
Cd	Cd	0.96757 0.53243 0.30367 1.21400
Cd	Cd	0.53243 0.96757 0.30367 1.21400
Cd	Cd	0.96757 0.96757 0.80367 1.21400
Cd	Cd	0.53243 0.53243 0.80367 1.21500
Cd	Cd	0.03243 0.03243 0.19633 1.21200
Cd	Cd	0.46757 0.46757 0.19633 1.21300
Cd	Cd	0.03243 0.46757 0.69633 1.21400
Cd	Cd	0.46757 0.03243 0.69633 1.21400
Cd	Cd	0.75000 0.25000 -0.00000 1.23400
Cd	Cd	0.25000 0.75000 0.50000 1.24700
Cd	Cd	0.25000 0.75000 -0.00000 1.23400
Cd	Cd	0.75000 0.25000 0.50000 1.24700
H 	H 	0.66480 0.41020 0.11540 0.00500
H 	H 	0.74810 0.51110 0.23180 -0.02600
H 	H 	0.86870 0.40760 0.13590 -0.02400
H 	H 	0.83520 0.08980 0.11540 0.00500
H 	H 	0.75190 0.98890 0.23180 -0.02800
H 	H 	0.63130 0.09240 0.13590 -0.02400
H 	H 	0.08980 0.66480 0.61540 0.00900
H 	H 	0.98890 0.74810 0.73180 -0.02700
H 	H 	0.09240 0.86870 0.63590 -0.02000
H 	H 	0.41020 0.83520 0.61540 0.01000
H 	H 	0.51110 0.75190 0.73180 -0.02400
H 	H 	0.40760 0.63130 0.63590 -0.02000
H 	H 	0.33520 0.91020 0.38460 0.00900
H 	H 	0.25190 0.01110 0.26820 -0.02800
H 	H 	0.13130 0.90760 0.36410 -0.02000
H 	H 	0.16480 0.58980 0.38460 0.01000
H 	H 	0.24810 0.48890 0.26820 -0.02600
H 	H 	0.36870 0.59240 0.36410 -0.02000
H 	H 	0.91020 0.16480 0.88460 0.01500
H 	H 	0.01110 0.24810 0.76820 -0.02400
H 	H 	0.90760 0.36870 0.86410 -0.01600
H 	H 	0.58980 0.33520 0.88460 0.01500
H 	H 	0.48890 0.25190 0.76820 -0.02300
H 	H 	0.59240 0.13130 0.86410 -0.01600
H 	H 	0.33520 0.58980 0.88460 0.01500
H 	H 	0.25190 0.48890 0.76820 -0.02300
H 	H 	0.13130 0.59240 0.86410 -0.01600
H 	H 	0.16480 0.91020 0.88460 0.01500
H 	H 	0.24810 0.01110 0.76820 -0.02400
H 	H 	0.36870 0.90760 0.86410 -0.01600
H 	H 	0.91020 0.33520 0.38460 0.00900
H 	H 	0.01110 0.25190 0.26820 -0.02800
H 	H 	0.90760 0.13130 0.36410 -0.02000
H 	H 	0.58980 0.16480 0.38460 0.01000
H 	H 	0.48890 0.24810 0.26820 -0.02600
H 	H 	0.59240 0.36870 0.36410 -0.02000
H 	H 	0.66480 0.08980 0.61540 0.00900
H 	H 	0.74810 0.98890 0.73180 -0.02700
H 	H 	0.86870 0.09240 0.63590 -0.02000
H 	H 	0.83520 0.41020 0.61540 0.01000
H 	H 	0.75190 0.51110 0.73180 -0.02400
H 	H 	0.63130 0.40760 0.63590 -0.02000
H 	H 	0.08980 0.83520 0.11540 0.00500
H 	H 	0.98890 0.75190 0.23180 -0.02800
H 	H 	0.09240 0.63130 0.13590 -0.02400
H 	H 	0.41020 0.66480 0.11540 0.00500
H 	H 	0.51110 0.74810 0.23180 -0.02600
H 	H 	0.40760 0.86870 0.13590 -0.02400
C 	C 	0.62590 0.48210 0.19430 0.48200
C 	C 	0.81790 0.46220 0.18820 -0.23100
C 	C 	0.69690 0.46380 0.17600 -0.23300
C 	C 	0.70350 0.42300 0.13390 0.13300
C 	C 	0.88020 0.48280 0.21900 0.46500
C 	C 	0.75320 0.48350 0.20320 0.16200
C 	C 	0.77490 0.35260 0.07470 0.34600
C 	C 	0.82520 0.42150 0.14610 0.14000
C 	C 	0.76810 0.40090 0.11880 -0.18400
C 	C 	0.87410 0.01790 0.19430 0.48500
C 	C 	0.68210 0.03780 0.18820 -0.23300
C 	C 	0.80310 0.03620 0.17600 -0.23500
C 	C 	0.79650 0.07700 0.13390 0.13500
C 	C 	0.61980 0.01720 0.21900 0.46700
C 	C 	0.74680 0.01650 0.20320 0.16600
C 	C 	0.72510 0.14740 0.07470 0.34600
C 	C 	0.67480 0.07850 0.14610 0.14200
C 	C 	0.73190 0.09910 0.11880 -0.18500
C 	C 	0.01790 0.62590 0.69430 0.48400
C 	C 	0.03780 0.81790 0.68820 -0.23000
C 	C 	0.03620 0.69690 0.67600 -0.23100
C 	C 	0.07700 0.70350 0.63390 0.13200
C 	C 	0.01720 0.88020 0.71900 0.46900
C 	C 	0.01650 0.75320 0.70320 0.16600
C 	C 	0.14740 0.77490 0.57470 0.34400
C 	C 	0.07850 0.82520 0.64610 0.14000
C 	C 	0.09910 0.76810 0.61880 -0.17800
C 	C 	0.48210 0.87410 0.69430 0.48100
C 	C 	0.46220 0.68210 0.68820 -0.22600
C 	C 	0.46380 0.80310 0.67600 -0.22800
C 	C 	0.42300 0.79650 0.63390 0.12900
C 	C 	0.48280 0.61980 0.71900 0.46400
C 	C 	0.48350 0.74680 0.70320 0.15900
C 	C 	0.35260 0.72510 0.57470 0.34300
C 	C 	0.42150 0.67480 0.64610 0.13700
C 	C 	0.40090 0.73190 0.61880 -0.17600
C 	C 	0.37410 0.98210 0.30570 0.48200
C 	C 	0.18210 0.96220 0.31180 -0.23000
C 	C 	0.30310 0.96380 0.32400 -0.23100
C 	C 	0.29650 0.92300 0.36610 0.13200
C 	C 	0.11980 0.98280 0.28100 0.46900
C 	C 	0.24680 0.98350 0.29680 0.16500
C 	C 	0.22510 0.85260 0.42530 0.34400
C 	C 	0.17480 0.92150 0.35390 0.14000
C 	C 	0.23190 0.90090 0.38120 -0.17800
C 	C 	0.12590 0.51790 0.30570 0.48000
C 	C 	0.31790 0.53780 0.31180 -0.22800
C 	C 	0.19690 0.53620 0.32400 -0.22900
C 	C 	0.20350 0.57700 0.36610 0.13000
C 	C 	0.38020 0.51720 0.28100 0.46500
C 	C 	0.25320 0.51650 0.29680 0.16000
C 	C 	0.27490 0.64740 0.42530 0.34300
C 	C 	0.32520 0.57850 0.35390 0.13800
C 	C 	0.26810 0.59910 0.38120 -0.17700
C 	C 	0.98210 0.12590 0.80570 0.48200
C 	C 	0.96220 0.31790 0.81180 -0.22400
C 	C 	0.96380 0.19690 0.82400 -0.22500
C 	C 	0.92300 0.20350 0.86610 0.12700
C 	C 	0.98280 0.38020 0.78100 0.46500
C 	C 	0.98350 0.25320 0.79680 0.15900
C 	C 	0.85260 0.27490 0.92530 0.34000
C 	C 	0.92150 0.32520 0.85390 0.13500
C 	C 	0.90090 0.26810 0.88120 -0.17000
C 	C 	0.51790 0.37410 0.80570 0.48000
C 	C 	0.53780 0.18210 0.81180 -0.22300
C 	C 	0.53620 0.30310 0.82400 -0.22300
C 	C 	0.57700 0.29650 0.86610 0.12600
C 	C 	0.51720 0.11980 0.78100 0.46500
C 	C 	0.51650 0.24680 0.79680 0.15700
C 	C 	0.64740 0.22510 0.92530 0.34000
C 	C 	0.57850 0.17480 0.85390 0.13400
C 	C 	0.59910 0.23190 0.88120 -0.16900
C 	C 	0.37410 0.51790 0.80570 0.48000
C 	C 	0.18210 0.53780 0.81180 -0.22300
C 	C 	0.30310 0.53620 0.82400 -0.22300
C 	C 	0.29650 0.57700 0.86610 0.12600
C 	C 	0.11980 0.51720 0.78100 0.46500
C 	C 	0.24680 0.51650 0.79680 0.15700
C 	C 	0.22510 0.64740 0.92530 0.34000
C 	C 	0.17480 0.57850 0.85390 0.13400
C 	C 	0.23190 0.59910 0.88120 -0.16900
C 	C 	0.12590 0.98210 0.80570 0.48200
C 	C 	0.31790 0.96220 0.81180 -0.22400
C 	C 	0.19690 0.96380 0.82400 -0.22500
C 	C 	0.20350 0.92300 0.86610 0.12700
C 	C 	0.38020 0.98280 0.78100 0.46500
C 	C 	0.25320 0.98350 0.79680 0.15900
C 	C 	0.27490 0.85260 0.92530 0.34000
C 	C 	0.32520 0.92150 0.85390 0.13500
C 	C 	0.26810 0.90090 0.88120 -0.17000
C 	C 	0.98210 0.37410 0.30570 0.48200
C 	C 	0.96220 0.18210 0.31180 -0.23000
C 	C 	0.96380 0.30310 0.32400 -0.23100
C 	C 	0.92300 0.29650 0.36610 0.13200
C 	C 	0.98280 0.11980 0.28100 0.46900
C 	C 	0.98350 0.24680 0.29680 0.16500
C 	C 	0.85260 0.22510 0.42530 0.34400
C 	C 	0.92150 0.17480 0.35390 0.14000
C 	C 	0.90090 0.23190 0.38120 -0.17800
C 	C 	0.51790 0.12590 0.30570 0.48000
C 	C 	0.53780 0.31790 0.31180 -0.22800
C 	C 	0.53620 0.19690 0.32400 -0.22900
C 	C 	0.57700 0.20350 0.36610 0.13000
C 	C 	0.51720 0.38020 0.28100 0.46500
C 	C 	0.51650 0.25320 0.29680 0.16000
C 	C 	0.64740 0.27490 0.42530 0.34300
C 	C 	0.57850 0.32520 0.35390 0.13800
C 	C 	0.59910 0.26810 0.38120 -0.17700
C 	C 	0.62590 0.01790 0.69430 0.48400
C 	C 	0.81790 0.03780 0.68820 -0.23000
C 	C 	0.69690 0.03620 0.67600 -0.23100
C 	C 	0.70350 0.07700 0.63390 0.13200
C 	C 	0.88020 0.01720 0.71900 0.46900
C 	C 	0.75320 0.01650 0.70320 0.16600
C 	C 	0.77490 0.14740 0.57470 0.34400
C 	C 	0.82520 0.07850 0.64610 0.14000
C 	C 	0.76810 0.09910 0.61880 -0.17800
C 	C 	0.87410 0.48210 0.69430 0.48100
C 	C 	0.68210 0.46220 0.68820 -0.22600
C 	C 	0.80310 0.46380 0.67600 -0.22800
C 	C 	0.79650 0.42300 0.63390 0.12900
C 	C 	0.61980 0.48280 0.71900 0.46400
C 	C 	0.74680 0.48350 0.70320 0.15900
C 	C 	0.72510 0.35260 0.57470 0.34300
C 	C 	0.67480 0.42150 0.64610 0.13700
C 	C 	0.73190 0.40090 0.61880 -0.17600
C 	C 	0.01790 0.87410 0.19430 0.48500
C 	C 	0.03780 0.68210 0.18820 -0.23300
C 	C 	0.03620 0.80310 0.17600 -0.23500
C 	C 	0.07700 0.79650 0.13390 0.13500
C 	C 	0.01720 0.61980 0.21900 0.46700
C 	C 	0.01650 0.74680 0.20320 0.16600
C 	C 	0.14740 0.72510 0.07470 0.34600
C 	C 	0.07850 0.67480 0.14610 0.14200
C 	C 	0.09910 0.73190 0.11880 -0.18500
C 	C 	0.48210 0.62590 0.19430 0.48200
C 	C 	0.46220 0.81790 0.18820 -0.23100
C 	C 	0.46380 0.69690 0.17600 -0.23300
C 	C 	0.42300 0.70350 0.13390 0.13300
C 	C 	0.48280 0.88020 0.21900 0.46500
C 	C 	0.48350 0.75320 0.20320 0.16200
C 	C 	0.35260 0.77490 0.07470 0.34600
C 	C 	0.42150 0.82520 0.14610 0.14000
C 	C 	0.40090 0.76810 0.11880 -0.18400
O 	O 	0.83200 0.32800 0.06400 -0.34300
O 	O 	0.72060 0.33510 0.05160 -0.40800
O 	O 	0.93640 0.46190 0.20530 -0.52400
O 	O 	0.87040 0.51610 0.25930 -0.46600
O 	O 	0.57610 0.45950 0.16950 -0.47200
O 	O 	0.61990 0.51830 0.23220 -0.51700
O 	O 	0.66800 0.17200 0.06400 -0.34300
O 	O 	0.77940 0.16490 0.05160 -0.40800
O 	O 	0.56360 0.03810 0.20530 -0.52400
O 	O 	0.62960 0.98390 0.25930 -0.46700
O 	O 	0.92390 0.04050 0.16950 -0.47100
O 	O 	0.88010 0.98170 0.23220 -0.51900
O 	O 	0.17200 0.83200 0.56400 -0.33100
O 	O 	0.16490 0.72060 0.55160 -0.39600
O 	O 	0.03810 0.93640 0.70530 -0.52300
O 	O 	0.98390 0.87040 0.75930 -0.46700
O 	O 	0.04050 0.57610 0.66950 -0.46900
O 	O 	0.98170 0.61990 0.73220 -0.51800
O 	O 	0.32800 0.66800 0.56400 -0.33100
O 	O 	0.33510 0.77940 0.55160 -0.39600
O 	O 	0.46190 0.56360 0.70530 -0.52300
O 	O 	0.51610 0.62960 0.75930 -0.46300
O 	O 	0.45950 0.92390 0.66950 -0.46800
O 	O 	0.51830 0.88010 0.73220 -0.51700
O 	O 	0.16800 0.82800 0.43600 -0.33100
O 	O 	0.27940 0.83510 0.44840 -0.39600
O 	O 	0.06360 0.96190 0.29470 -0.52300
O 	O 	0.12960 0.01610 0.24070 -0.47000
O 	O 	0.42390 0.95950 0.33050 -0.46800
O 	O 	0.38010 0.01830 0.26780 -0.51600
O 	O 	0.33200 0.67200 0.43600 -0.33100
O 	O 	0.22060 0.66490 0.44840 -0.39600
O 	O 	0.43640 0.53810 0.29470 -0.52300
O 	O 	0.37040 0.48390 0.24070 -0.46700
O 	O 	0.07610 0.54050 0.33050 -0.46800
O 	O 	0.11990 0.48170 0.26780 -0.51600
O 	O 	0.82800 0.33200 0.93600 -0.31800
O 	O 	0.83510 0.22060 0.94840 -0.37900
O 	O 	0.96190 0.43640 0.79470 -0.52300
O 	O 	0.01610 0.37040 0.74070 -0.46500
O 	O 	0.95950 0.07610 0.83050 -0.46400
O 	O 	0.01830 0.11990 0.76780 -0.51600
O 	O 	0.67200 0.16800 0.93600 -0.31700
O 	O 	0.66490 0.27940 0.94840 -0.37900
O 	O 	0.53810 0.06360 0.79470 -0.52200
O 	O 	0.48390 0.12960 0.74070 -0.46500
O 	O 	0.54050 0.42390 0.83050 -0.46400
O 	O 	0.48170 0.38010 0.76780 -0.51500
O 	O 	0.16800 0.67200 0.93600 -0.31700
O 	O 	0.27940 0.66490 0.94840 -0.37900
O 	O 	0.06360 0.53810 0.79470 -0.52200
O 	O 	0.12960 0.48390 0.74070 -0.46500
O 	O 	0.42390 0.54050 0.83050 -0.46400
O 	O 	0.38010 0.48170 0.76780 -0.51500
O 	O 	0.33200 0.82800 0.93600 -0.31800
O 	O 	0.22060 0.83510 0.94840 -0.37900
O 	O 	0.43640 0.96190 0.79470 -0.52300
O 	O 	0.37040 0.01610 0.74070 -0.46500
O 	O 	0.07610 0.95950 0.83050 -0.46400
O 	O 	0.11990 0.01830 0.76780 -0.51600
O 	O 	0.82800 0.16800 0.43600 -0.33100
O 	O 	0.83510 0.27940 0.44840 -0.39600
O 	O 	0.96190 0.06360 0.29470 -0.52300
O 	O 	0.01610 0.12960 0.24070 -0.47000
O 	O 	0.95950 0.42390 0.33050 -0.46800
O 	O 	0.01830 0.38010 0.26780 -0.51600
O 	O 	0.67200 0.33200 0.43600 -0.33100
O 	O 	0.66490 0.22060 0.44840 -0.39600
O 	O 	0.53810 0.43640 0.29470 -0.52300
O 	O 	0.48390 0.37040 0.24070 -0.46700
O 	O 	0.54050 0.07610 0.33050 -0.46800
O 	O 	0.48170 0.11990 0.26780 -0.51600
O 	O 	0.83200 0.17200 0.56400 -0.33100
O 	O 	0.72060 0.16490 0.55160 -0.39600
O 	O 	0.93640 0.03810 0.70530 -0.52300
O 	O 	0.87040 0.98390 0.75930 -0.46700
O 	O 	0.57610 0.04050 0.66950 -0.46900
O 	O 	0.61990 0.98170 0.73220 -0.51800
O 	O 	0.66800 0.32800 0.56400 -0.33100
O 	O 	0.77940 0.33510 0.55160 -0.39600
O 	O 	0.56360 0.46190 0.70530 -0.52300
O 	O 	0.62960 0.51610 0.75930 -0.46300
O 	O 	0.92390 0.45950 0.66950 -0.46800
O 	O 	0.88010 0.51830 0.73220 -0.51700
O 	O 	0.17200 0.66800 0.06400 -0.34300
O 	O 	0.16490 0.77940 0.05160 -0.40800
O 	O 	0.03810 0.56360 0.20530 -0.52400
O 	O 	0.98390 0.62960 0.25930 -0.46700
O 	O 	0.04050 0.92390 0.16950 -0.47100
O 	O 	0.98170 0.88010 0.23220 -0.51900
O 	O 	0.32800 0.83200 0.06400 -0.34300
O 	O 	0.33510 0.72060 0.05160 -0.40800
O 	O 	0.46190 0.93640 0.20530 -0.52400
O 	O 	0.51610 0.87040 0.25930 -0.46600
O 	O 	0.45950 0.57610 0.16950 -0.47200
O 	O 	0.51830 0.61990 0.23220 -0.51700
