data_crystal

_cell_length_a 7.87700
_cell_length_b 12.06000
_cell_length_c 12.27500
_cell_angle_alpha 112.12000
_cell_angle_beta  89.98000
_cell_angle_gamma 99.95000

_symmetry_space_group_name_	'P 1'
_symmetry_space_group_name_H-M	'P 1'

loop_
_symmetry_equiv_pos_as_xyz
  x,y,z

loop_
_atom_site_label
_atom_site_type_symbol
_atom_site_fract_x
_atom_site_fract_y
_atom_site_fract_z
_atom_site_charge
Pr	Pr	0.99088 0.14557 0.85426 2.05400
Pr	Pr	0.49083 0.14516 0.75199 2.06000
C 	C 	0.63800 0.13800 0.02140 0.46000
C 	C 	0.61500 0.16700 0.14800 -0.28000
H 	H 	0.53340 0.10140 0.15580 0.11400
H 	H 	0.56550 0.24030 0.17870 0.11100
C 	C 	0.78200 0.18730 0.22210 -0.25100
H 	H 	0.86730 0.24750 0.20750 0.10600
H 	H 	0.75880 0.22120 0.30470 0.10400
C 	C 	0.85700 0.07800 0.20100 0.39700
C 	C 	0.64500 0.93000 0.64800 0.46000
C 	C 	0.71500 0.81100 0.58500 -0.25600
H 	H 	0.62770 0.75290 0.52610 0.11100
H 	H 	0.73490 0.77610 0.64260 0.11000
C 	C 	0.24500 0.47300 0.86600 -0.41800
H 	H 	0.12080 0.45020 0.84920 0.16000
H 	H 	0.28910 0.52390 0.82310 0.16000
C 	C 	0.32000 0.36300 0.82300 0.44600
C 	C 	0.86300 0.85500 0.42100 0.43000
C 	C 	0.89800 0.83100 0.52110 -0.33000
H 	H 	0.97920 0.89930 0.57600 0.13100
H 	H 	0.94870 0.75910 0.49860 0.13100
C 	C 	0.28500 0.54400 0.99600 -0.00200
C 	C 	0.18300 0.64100 0.04500 0.28600
O 	O 	0.22690 0.72170 0.15410 -0.59000
O 	O 	0.05200 0.64720 0.99510 -0.42000
O 	O 	0.76200 0.98220 0.20870 -0.58900
O 	O 	0.01000 0.07360 0.17840 -0.46400
O 	O 	0.45300 0.35830 0.75520 -0.43900
O 	O 	0.27350 0.27770 0.85530 -0.64700
O 	O 	0.51100 0.14880 0.96430 -0.48600
O 	O 	0.77140 0.10240 0.98000 -0.53400
O 	O 	0.98970 0.84490 0.34900 -0.46700
O 	O 	0.72400 0.89050 0.39980 -0.51400
O 	O 	0.73600 0.01730 0.72110 -0.65100
O 	O 	0.49000 0.92750 0.61990 -0.49100
Pr	Pr	0.00912 0.85443 0.14574 2.05300
Pr	Pr	0.50917 0.85484 0.24801 2.05900
C 	C 	0.36200 0.86200 0.97860 0.45900
C 	C 	0.38500 0.83300 0.85200 -0.28100
H 	H 	0.46660 0.89860 0.84420 0.11400
H 	H 	0.43450 0.75970 0.82130 0.11100
C 	C 	0.21800 0.81270 0.77790 -0.25100
H 	H 	0.13270 0.75250 0.79250 0.10600
H 	H 	0.24120 0.77880 0.69530 0.10400
C 	C 	0.14300 0.92200 0.79900 0.39700
C 	C 	0.35500 0.07000 0.35200 0.46000
C 	C 	0.28500 0.18900 0.41500 -0.25600
H 	H 	0.37230 0.24710 0.47390 0.11100
H 	H 	0.26510 0.22390 0.35740 0.11000
C 	C 	0.75500 0.52700 0.13400 -0.41800
H 	H 	0.87920 0.54980 0.15080 0.16000
H 	H 	0.71090 0.47610 0.17690 0.16000
C 	C 	0.68000 0.63700 0.17700 0.44600
C 	C 	0.13700 0.14500 0.57900 0.43000
C 	C 	0.10200 0.16900 0.47890 -0.33000
H 	H 	0.02080 0.10070 0.42400 0.13100
H 	H 	0.05130 0.24090 0.50140 0.13100
C 	C 	0.71500 0.45600 0.00400 -0.00200
C 	C 	0.81700 0.35900 0.95500 0.28600
O 	O 	0.77310 0.27830 0.84590 -0.59000
O 	O 	0.94800 0.35280 0.00490 -0.42000
O 	O 	0.23800 0.01780 0.79130 -0.58900
O 	O 	0.99000 0.92640 0.82160 -0.46400
O 	O 	0.54700 0.64170 0.24480 -0.43900
O 	O 	0.72650 0.72230 0.14470 -0.64700
O 	O 	0.48900 0.85120 0.03570 -0.48600
O 	O 	0.22860 0.89760 0.02000 -0.53400
O 	O 	0.01030 0.15510 0.65100 -0.46700
O 	O 	0.27600 0.10950 0.60020 -0.51400
O 	O 	0.26400 0.98270 0.27890 -0.65100
O 	O 	0.51000 0.07250 0.38010 -0.49100
