data_crystal

_cell_length_a 19.60650
_cell_length_b 19.60650
_cell_length_c 22.18080
_cell_angle_alpha 90.00000
_cell_angle_beta  90.00000
_cell_angle_gamma 90.00000

_symmetry_space_group_name_	'P 1'
_symmetry_space_group_name_H-M	'P 1'

loop_
_symmetry_equiv_pos_as_xyz
  x,y,z

loop_
_atom_site_label
_atom_site_type_symbol
_atom_site_fract_x
_atom_site_fract_y
_atom_site_fract_z
_atom_site_charge
S 	S 	0.10739 0.96119 0.43858 -0.11200
C 	C 	0.08265 0.96845 0.36850 0.09400
N 	N 	0.06556 0.97137 0.31835 -0.23300
S 	S 	0.10679 0.84415 0.11317 -0.16900
C 	C 	0.08149 0.90941 0.15337 0.08200
N 	N 	0.06550 0.95640 0.18158 -0.23400
S 	S 	0.07477 0.23083 0.21185 -0.22500
C 	C 	0.05813 0.15184 0.22998 0.05800
N 	N 	0.04750 0.09596 0.24354 -0.29500
S 	S 	0.60739 0.46119 0.93858 -0.13900
C 	C 	0.58265 0.46845 0.86850 0.09100
N 	N 	0.56556 0.47137 0.81835 -0.25100
S 	S 	0.60679 0.34415 0.61317 -0.14700
C 	C 	0.58149 0.40941 0.65337 0.09000
N 	N 	0.56550 0.45640 0.68158 -0.25200
S 	S 	0.57477 0.73083 0.71185 -0.13700
C 	C 	0.55813 0.65184 0.72998 0.09100
N 	N 	0.54750 0.59596 0.74354 -0.25500
S 	S 	0.89261 0.03881 0.43858 -0.13500
C 	C 	0.91735 0.03155 0.36850 0.08800
N 	N 	0.93444 0.02863 0.31835 -0.23800
S 	S 	0.89321 0.15585 0.11317 -0.13700
C 	C 	0.91851 0.09059 0.15337 0.09700
N 	N 	0.93450 0.04360 0.18158 -0.24300
S 	S 	0.92523 0.76917 0.21185 -0.08000
C 	C 	0.94187 0.84816 0.22998 0.12200
N 	N 	0.95250 0.90404 0.24354 -0.19100
S 	S 	0.39261 0.53881 0.93858 -0.14500
C 	C 	0.41735 0.53155 0.86850 0.08900
N 	N 	0.43444 0.52863 0.81835 -0.25300
S 	S 	0.39321 0.65585 0.61317 -0.15700
C 	C 	0.41851 0.59059 0.65337 0.08800
N 	N 	0.43450 0.54360 0.68158 -0.25400
S 	S 	0.42523 0.26917 0.71185 -0.16900
C 	C 	0.44187 0.34816 0.72998 0.09300
N 	N 	0.45250 0.40404 0.74354 -0.25900
S 	S 	0.96119 0.89261 0.56142 -0.01900
C 	C 	0.96845 0.91735 0.63150 0.13200
N 	N 	0.97137 0.93444 0.68165 -0.18600
S 	S 	0.84415 0.89321 0.88683 -0.09300
C 	C 	0.90941 0.91851 0.84663 0.12500
N 	N 	0.95640 0.93450 0.81842 -0.18600
S 	S 	0.23083 0.92523 0.78815 -0.10500
C 	C 	0.15184 0.94187 0.77002 0.10100
N 	N 	0.09596 0.95250 0.75646 -0.24000
S 	S 	0.46119 0.39261 0.06142 -0.16300
C 	C 	0.46845 0.41735 0.13150 0.08900
N 	N 	0.47137 0.43444 0.18165 -0.25500
S 	S 	0.34415 0.39321 0.38683 -0.16300
C 	C 	0.40941 0.41851 0.34663 0.08800
N 	N 	0.45640 0.43450 0.31842 -0.25400
S 	S 	0.73083 0.42523 0.28815 -0.14200
C 	C 	0.65184 0.44187 0.27002 0.08900
N 	N 	0.59596 0.45250 0.25646 -0.25700
S 	S 	0.03881 0.10739 0.56142 -0.23500
C 	C 	0.03155 0.08265 0.63150 0.04800
N 	N 	0.02863 0.06556 0.68165 -0.28900
S 	S 	0.15585 0.10679 0.88683 -0.20000
C 	C 	0.09059 0.08149 0.84663 0.05300
N 	N 	0.04360 0.06550 0.81842 -0.29000
S 	S 	0.76917 0.07477 0.78815 -0.19300
C 	C 	0.84816 0.05813 0.77002 0.08200
N 	N 	0.90404 0.04750 0.75646 -0.24100
S 	S 	0.53881 0.60739 0.06142 -0.15300
C 	C 	0.53155 0.58265 0.13150 0.09100
N 	N 	0.52863 0.56556 0.18165 -0.25200
S 	S 	0.65585 0.60679 0.38683 -0.14300
C 	C 	0.59059 0.58149 0.34663 0.09000
N 	N 	0.54360 0.56550 0.31842 -0.25200
S 	S 	0.26917 0.57477 0.28815 -0.16600
C 	C 	0.34816 0.55813 0.27002 0.09200
N 	N 	0.40404 0.54750 0.25646 -0.25800
S 	S 	0.39261 0.96119 0.31142 -0.08300
C 	C 	0.41735 0.96845 0.38150 0.11200
N 	N 	0.43444 0.97137 0.43165 -0.21800
S 	S 	0.39321 0.84415 0.63683 -0.13900
C 	C 	0.41851 0.90941 0.59663 0.10300
N 	N 	0.43450 0.95640 0.56842 -0.21700
S 	S 	0.42523 0.23083 0.53815 -0.16900
C 	C 	0.44187 0.15184 0.52002 0.07900
N 	N 	0.45250 0.09596 0.50646 -0.27600
S 	S 	0.89261 0.46119 0.81142 -0.08800
C 	C 	0.91735 0.46845 0.88150 0.11100
N 	N 	0.93444 0.47137 0.93165 -0.21600
S 	S 	0.89321 0.34415 0.13683 -0.12000
C 	C 	0.91851 0.40941 0.09663 0.11100
N 	N 	0.93450 0.45640 0.06842 -0.22300
S 	S 	0.92523 0.73083 0.03815 -0.08700
C 	C 	0.94187 0.65184 0.02002 0.10900
N 	N 	0.95250 0.59596 0.00646 -0.22500
S 	S 	0.60739 0.03881 0.31142 -0.19400
C 	C 	0.58265 0.03155 0.38150 0.06800
N 	N 	0.56556 0.02863 0.43165 -0.27100
S 	S 	0.60679 0.15585 0.63683 -0.16300
C 	C 	0.58149 0.09059 0.59663 0.07600
N 	N 	0.56550 0.04360 0.56842 -0.27300
S 	S 	0.57477 0.76917 0.53815 -0.13600
C 	C 	0.55813 0.84816 0.52002 0.10200
N 	N 	0.54750 0.90404 0.50646 -0.22300
S 	S 	0.10739 0.53881 0.81142 -0.18500
C 	C 	0.08265 0.53155 0.88150 0.07200
N 	N 	0.06556 0.52863 0.93165 -0.26500
S 	S 	0.10679 0.65585 0.13683 -0.18600
C 	C 	0.08149 0.59059 0.09663 0.06500
N 	N 	0.06550 0.54360 0.06842 -0.27100
S 	S 	0.07477 0.26917 0.03815 -0.22900
C 	C 	0.05813 0.34816 0.02002 0.07000
N 	N 	0.04750 0.40404 0.00646 -0.28000
S 	S 	0.53881 0.89261 0.18858 -0.09100
C 	C 	0.53155 0.91735 0.11850 0.10800
N 	N 	0.52863 0.93444 0.06835 -0.22400
S 	S 	0.65585 0.89321 0.86317 -0.11200
C 	C 	0.59059 0.91851 0.90337 0.11200
N 	N 	0.54360 0.93450 0.93158 -0.22000
S 	S 	0.26917 0.92523 0.96185 -0.10100
C 	C 	0.34816 0.94187 0.97998 0.11500
N 	N 	0.40404 0.95250 0.99354 -0.22200
S 	S 	0.03881 0.39261 0.68858 -0.20100
C 	C 	0.03155 0.41735 0.61850 0.06600
N 	N 	0.02863 0.43444 0.56835 -0.27300
S 	S 	0.15585 0.39321 0.36317 -0.17900
C 	C 	0.09059 0.41851 0.40337 0.07400
N 	N 	0.04360 0.43450 0.43158 -0.27600
S 	S 	0.76917 0.42523 0.46185 -0.14000
C 	C 	0.84816 0.44187 0.47998 0.10200
N 	N 	0.90404 0.45250 0.49354 -0.22400
S 	S 	0.46119 0.10739 0.18858 -0.19100
C 	C 	0.46845 0.08265 0.11850 0.06900
N 	N 	0.47137 0.06556 0.06835 -0.27400
S 	S 	0.34415 0.10679 0.86317 -0.18800
C 	C 	0.40941 0.08149 0.90337 0.06800
N 	N 	0.45640 0.06550 0.93158 -0.26900
S 	S 	0.73083 0.07477 0.96185 -0.19000
C 	C 	0.65184 0.05813 0.97998 0.07000
N 	N 	0.59596 0.04750 0.99354 -0.27200
S 	S 	0.96119 0.60739 0.68858 -0.07400
C 	C 	0.96845 0.58265 0.61850 0.11400
N 	N 	0.97137 0.56556 0.56835 -0.21600
S 	S 	0.84415 0.60679 0.36317 -0.12500
C 	C 	0.90941 0.58149 0.40337 0.10400
N 	N 	0.95640 0.56550 0.43158 -0.21500
S 	S 	0.23083 0.57477 0.46185 -0.16500
C 	C 	0.15184 0.55813 0.47998 0.08000
N 	N 	0.09596 0.54750 0.49354 -0.27500
Fe	Fe	0.00000 0.00000 0.24728 1.03300
Fe	Fe	0.50000 0.50000 0.74728 1.14100
Fe	Fe	-0.00000 0.00000 0.75272 1.03400
Fe	Fe	0.50000 0.50000 0.25272 1.14000
Fe	Fe	0.50000 0.00000 0.50272 1.08600
Fe	Fe	-0.00000 0.50000 0.00272 1.08300
Fe	Fe	0.50000 0.00000 0.99728 1.09100
Fe	Fe	0.00000 0.50000 0.49728 1.08700
Ag	Ag	-0.00000 -0.00000 0.50000 0.40100
Ag	Ag	0.50000 0.50000 -0.00000 0.50300
Ag	Ag	0.50000 -0.00000 0.25000 0.45500
Ag	Ag	0.00000 0.50000 0.75000 0.45500
Ag	Ag	0.01364 0.75000 0.12500 0.45600
Ag	Ag	0.98636 0.25000 0.12500 0.56200
Ag	Ag	0.75000 0.98636 0.87500 0.56500
Ag	Ag	0.25000 0.48636 0.37500 0.50600
Ag	Ag	0.25000 0.01364 0.87500 0.45200
Ag	Ag	0.75000 0.51364 0.37500 0.51000
Ag	Ag	0.48636 0.75000 0.62500 0.51000
Ag	Ag	0.51364 0.25000 0.62500 0.50600
