data_crystal

_cell_length_a 9.14100
_cell_length_b 9.66700
_cell_length_c 13.85500
_cell_angle_alpha 100.83000
_cell_angle_beta  90.81000
_cell_angle_gamma 100.94000

_symmetry_space_group_name_	'P 1'
_symmetry_space_group_name_H-M	'P 1'

loop_
_symmetry_equiv_pos_as_xyz
  x,y,z

loop_
_atom_site_label
_atom_site_type_symbol
_atom_site_fract_x
_atom_site_fract_y
_atom_site_fract_z
_atom_site_charge
Co	Co	0.84945 0.03944 0.26753 1.15800
Co	Co	0.15055 0.96056 0.73247 1.17300
Co	Co	-0.00000 0.00000 0.50000 1.13500
H 	H 	0.45960 0.20270 0.19700 0.20900
H 	H 	0.58940 0.31620 0.16800 0.21600
H 	H 	0.16310 0.06610 0.15160 -0.04100
H 	H 	0.20010 0.89940 0.00150 0.07300
H 	H 	0.79910 0.76950 0.09630 -0.00200
H 	H 	0.73620 0.65690 0.93100 0.06000
H 	H 	0.68270 0.44360 0.81590 0.07500
H 	H 	0.11830 0.42860 0.81330 0.06500
H 	H 	0.17120 0.63960 0.93050 0.06700
H 	H 	0.65160 0.17880 0.76610 0.01700
H 	H 	0.68330 0.98640 0.63110 0.07900
H 	H 	0.04160 0.28630 0.65330 -0.06500
H 	H 	0.67470 0.78060 0.48600 0.26900
H 	H 	0.53760 0.84240 0.45770 0.26200
H 	H 	0.68710 0.54880 0.33140 0.24800
H 	H 	0.31160 0.25930 0.31840 0.23500
H 	H 	0.32660 0.66500 0.45100 0.26300
H 	H 	0.12610 0.46370 0.48380 0.25000
H 	H 	0.07480 0.47050 0.37680 0.25700
H 	H 	0.54040 0.79730 0.80300 0.22200
H 	H 	0.41060 0.68380 0.83200 0.21900
H 	H 	0.83690 0.93390 0.84840 0.07400
H 	H 	0.79990 0.10060 0.99850 0.01000
H 	H 	0.20090 0.23050 0.90370 -0.00500
H 	H 	0.26380 0.34310 0.06900 0.05400
H 	H 	0.31730 0.55640 0.18410 0.06600
H 	H 	0.88170 0.57140 0.18670 0.04300
H 	H 	0.82880 0.36040 0.06950 0.05000
H 	H 	0.34840 0.82120 0.23390 0.07200
H 	H 	0.31670 0.01360 0.36890 -0.05600
H 	H 	0.95840 0.71370 0.34670 0.04500
H 	H 	0.32530 0.21940 0.51400 0.26600
H 	H 	0.46240 0.15760 0.54230 0.24900
H 	H 	0.31290 0.45120 0.66860 0.24700
H 	H 	0.68840 0.74070 0.68160 0.24400
H 	H 	0.67340 0.33500 0.54900 0.26500
H 	H 	0.87390 0.53630 0.51620 0.27100
H 	H 	0.92520 0.52950 0.62320 0.28100
C 	C 	0.54780 0.27290 0.22100 -0.58400
C 	C 	0.09440 0.98500 0.12160 0.08800
C 	C 	0.11580 0.89350 0.03860 -0.07600
C 	C 	0.89400 0.82270 0.09190 0.11100
C 	C 	0.95730 0.66550 0.94300 0.12900
C 	C 	0.81240 0.60970 0.90830 -0.07700
C 	C 	0.78060 0.48260 0.83920 -0.09300
C 	C 	0.89470 0.41440 0.80510 0.13500
C 	C 	0.04160 0.47350 0.83800 -0.12500
C 	C 	0.07330 0.59960 0.90770 -0.11400
C 	C 	0.73380 0.17710 0.72740 0.04800
C 	C 	0.75210 0.07130 0.65260 -0.11400
C 	C 	0.94860 0.23490 0.66430 0.15400
C 	C 	0.69740 0.85390 0.35860 0.53200
C 	C 	0.60750 0.78250 0.43170 -0.76800
C 	C 	0.52090 0.63260 0.39590 0.60500
C 	C 	0.58720 0.52640 0.34570 -0.60900
C 	C 	0.51040 0.38860 0.31610 0.50500
C 	C 	0.36370 0.35330 0.33800 -0.60500
C 	C 	0.29360 0.45590 0.38860 0.59000
C 	C 	0.37370 0.59490 0.41680 -0.65200
C 	C 	0.13270 0.42320 0.41480 -0.77700
C 	C 	0.06400 0.26530 0.39680 0.60100
C 	C 	0.66030 0.20200 0.26290 0.39000
C 	C 	0.45220 0.72710 0.77900 -0.59200
C 	C 	0.90560 0.01500 0.87840 -0.06600
C 	C 	0.88420 0.10650 0.96140 0.06300
C 	C 	0.10600 0.17730 0.90810 0.08600
C 	C 	0.04270 0.33450 0.05700 0.04600
C 	C 	0.18760 0.39030 0.09170 -0.07000
C 	C 	0.21940 0.51740 0.16080 -0.06400
C 	C 	0.10530 0.58560 0.19490 0.02900
C 	C 	0.95840 0.52650 0.16200 -0.02400
C 	C 	0.92670 0.40040 0.09230 -0.03900
C 	C 	0.26620 0.82290 0.27260 -0.06300
C 	C 	0.24790 0.92870 0.34740 0.10600
C 	C 	0.05140 0.76510 0.33570 -0.01200
C 	C 	0.30260 0.14610 0.64140 0.53800
C 	C 	0.39250 0.21750 0.56830 -0.77400
C 	C 	0.47910 0.36740 0.60410 0.60900
C 	C 	0.41280 0.47360 0.65430 -0.61400
C 	C 	0.48960 0.61140 0.68390 0.51200
C 	C 	0.63630 0.64670 0.66200 -0.61500
C 	C 	0.70640 0.54410 0.61140 0.60200
C 	C 	0.62630 0.40510 0.58320 -0.66100
C 	C 	0.86730 0.57680 0.58520 -0.79300
C 	C 	0.93600 0.73470 0.60320 0.60700
C 	C 	0.33970 0.79800 0.73710 0.39200
N 	N 	0.95510 0.93980 0.15480 -0.21800
N 	N 	0.98740 0.78980 0.02010 -0.10800
N 	N 	0.86020 0.28160 0.73530 -0.15900
N 	N 	0.88790 0.10810 0.61270 -0.22800
N 	N 	0.04490 0.06020 0.84520 -0.25800
N 	N 	0.01260 0.21020 0.97990 -0.15500
N 	N 	0.13980 0.71840 0.26470 -0.10800
N 	N 	0.11210 0.89190 0.38730 -0.23000
O 	O 	0.80600 0.95990 0.39200 -0.54100
O 	O 	0.66920 0.81900 0.26920 -0.40100
O 	O 	0.07460 0.19940 0.46500 -0.54700
O 	O 	0.00240 0.21150 0.31390 -0.56200
O 	O 	0.68900 0.09200 0.18190 -0.40000
O 	O 	0.70030 0.22530 0.34530 -0.38900
O 	O 	0.19400 0.04010 0.60800 -0.61300
O 	O 	0.33080 0.18100 0.73080 -0.42700
O 	O 	0.92540 0.80060 0.53500 -0.50100
O 	O 	0.99760 0.78850 0.68610 -0.50400
O 	O 	0.31100 0.90800 0.81810 -0.37700
O 	O 	0.29970 0.77470 0.65470 -0.39100
