data_crystal

_cell_length_a 7.14910
_cell_length_b 10.70630
_cell_length_c 17.11970
_cell_angle_alpha 97.09700
_cell_angle_beta  90.00000
_cell_angle_gamma 90.00000

_symmetry_space_group_name_	'P 1'
_symmetry_space_group_name_H-M	'P 1'

loop_
_symmetry_equiv_pos_as_xyz
  x,y,z

loop_
_atom_site_label
_atom_site_type_symbol
_atom_site_fract_x
_atom_site_fract_y
_atom_site_fract_z
_atom_site_charge
Dy	Dy	0.02016 0.17632 0.74667 1.83000
Dy	Dy	0.52016 0.32368 0.75333 1.84800
Dy	Dy	0.97984 0.82368 0.25333 1.82900
Dy	Dy	0.47984 0.67632 0.24667 1.84700
H 	H 	0.17920 0.99500 0.52190 0.06100
H 	H 	0.46160 0.69250 0.56340 0.23000
H 	H 	0.15990 0.33720 0.55170 0.05000
H 	H 	0.67920 0.50500 0.97810 0.05900
H 	H 	0.96160 0.80750 0.93660 0.22600
H 	H 	0.65990 0.16280 0.94830 0.05100
H 	H 	0.82080 0.00500 0.47810 0.06100
H 	H 	0.53840 0.30750 0.43660 0.23000
H 	H 	0.84010 0.66280 0.44830 0.05000
H 	H 	0.32080 0.49500 0.02190 0.05900
H 	H 	0.03840 0.19250 0.06340 0.22600
H 	H 	0.34010 0.83720 0.05170 0.05100
C 	C 	0.32620 0.08500 0.64909 0.35700
C 	C 	0.42510 0.04270 0.57364 -0.05600
C 	C 	0.30950 0.99410 0.51204 0.00700
C 	C 	0.75230 0.09610 0.62582 0.37500
C 	C 	0.61800 0.04860 0.56196 -0.06800
C 	C 	0.85240 0.39090 0.63480 0.45300
C 	C 	0.92760 0.45260 0.56695 -0.08500
C 	C 	0.83950 0.55320 0.53699 -0.03300
C 	C 	0.67920 0.62160 0.57911 0.34000
C 	C 	0.08920 0.40140 0.52972 0.01300
C 	C 	0.82620 0.41500 0.85091 0.35500
C 	C 	0.92510 0.45730 0.92636 -0.04800
C 	C 	0.80950 0.50590 0.98796 0.00600
C 	C 	0.25230 0.40390 0.87418 0.37700
C 	C 	0.11800 0.45140 0.93804 -0.07300
C 	C 	0.35240 0.10910 0.86520 0.45500
C 	C 	0.42760 0.04740 0.93305 -0.09200
C 	C 	0.33950 0.94680 0.96301 -0.02900
C 	C 	0.17920 0.87840 0.92089 0.33900
C 	C 	0.58920 0.09860 0.97028 0.01500
C 	C 	0.67380 0.91500 0.35091 0.35700
C 	C 	0.57490 0.95730 0.42636 -0.05600
C 	C 	0.69050 0.00590 0.48796 0.00700
C 	C 	0.24770 0.90390 0.37418 0.37500
C 	C 	0.38200 0.95140 0.43804 -0.06800
C 	C 	0.14760 0.60910 0.36520 0.45300
C 	C 	0.07240 0.54740 0.43305 -0.08500
C 	C 	0.16050 0.44680 0.46301 -0.03300
C 	C 	0.32080 0.37840 0.42089 0.34000
C 	C 	0.91080 0.59860 0.47028 0.01300
C 	C 	0.17380 0.58500 0.14909 0.35500
C 	C 	0.07490 0.54270 0.07364 -0.04800
C 	C 	0.19050 0.49410 0.01204 0.00600
C 	C 	0.74770 0.59610 0.12582 0.37700
C 	C 	0.88200 0.54860 0.06196 -0.07300
C 	C 	0.64760 0.89090 0.13480 0.45500
C 	C 	0.57240 0.95260 0.06695 -0.09200
C 	C 	0.66050 0.05320 0.03699 -0.02900
C 	C 	0.82080 0.12160 0.07911 0.33900
C 	C 	0.41080 0.90140 0.02972 0.01500
O 	O 	0.97040 0.34474 0.67664 -0.48300
O 	O 	0.30770 0.20349 0.67092 -0.55500
O 	O 	0.69000 0.14503 0.69270 -0.53700
O 	O 	0.24550 0.00645 0.68509 -0.37600
O 	O 	0.92270 0.08483 0.61411 -0.41000
O 	O 	0.67840 0.38662 0.64399 -0.46600
O 	O 	0.68020 0.65253 0.65010 -0.26000
O 	O 	0.54500 0.64860 0.53277 -0.39300
O 	O 	0.47040 0.15526 0.82336 -0.48800
O 	O 	0.80770 0.29651 0.82908 -0.55100
O 	O 	0.19000 0.35497 0.80730 -0.54000
O 	O 	0.74550 0.49355 0.81491 -0.37300
O 	O 	0.42270 0.41517 0.88589 -0.41600
O 	O 	0.17840 0.11338 0.85601 -0.46900
O 	O 	0.18020 0.84747 0.84990 -0.25700
O 	O 	0.04500 0.85140 0.96723 -0.38800
O 	O 	0.02960 0.65526 0.32336 -0.48300
O 	O 	0.69230 0.79651 0.32908 -0.55500
O 	O 	0.31000 0.85497 0.30730 -0.53700
O 	O 	0.75450 0.99355 0.31491 -0.37600
O 	O 	0.07730 0.91517 0.38589 -0.41000
O 	O 	0.32160 0.61338 0.35601 -0.46600
O 	O 	0.31980 0.34747 0.34990 -0.26000
O 	O 	0.45500 0.35140 0.46723 -0.39300
O 	O 	0.52960 0.84474 0.17664 -0.48800
O 	O 	0.19230 0.70349 0.17092 -0.55100
O 	O 	0.81000 0.64503 0.19270 -0.54000
O 	O 	0.25450 0.50645 0.18509 -0.37300
O 	O 	0.57730 0.58483 0.11411 -0.41600
O 	O 	0.82160 0.88662 0.14399 -0.46900
O 	O 	0.81980 0.15253 0.15010 -0.25700
O 	O 	0.95500 0.14860 0.03277 -0.38800
