data_crystal

_cell_length_a 16.02100
_cell_length_b 19.24700
_cell_length_c 22.48200
_cell_angle_alpha 90.00000
_cell_angle_beta  90.00000
_cell_angle_gamma 90.43000

_symmetry_space_group_name_	'P 1'
_symmetry_space_group_name_H-M	'P 1'

loop_
_symmetry_equiv_pos_as_xyz
  x,y,z

loop_
_atom_site_label
_atom_site_type_symbol
_atom_site_fract_x
_atom_site_fract_y
_atom_site_fract_z
_atom_site_charge
Cu	Cu	0.75310 0.99593 0.24892 0.85400
Cu	Cu	0.75700 0.49909 0.24987 0.85300
Cu	Cu	0.74690 0.00407 0.74892 0.85500
Cu	Cu	0.74300 0.50091 0.74987 0.85300
Cu	Cu	0.24690 0.00407 0.75108 0.85400
Cu	Cu	0.24300 0.50091 0.75013 0.85300
Cu	Cu	0.25310 0.99593 0.25108 0.85500
Cu	Cu	0.25700 0.49909 0.25013 0.85300
H 	H 	0.67140 0.68640 0.06710 0.03500
H 	H 	0.70180 0.75570 0.09710 0.04500
H 	H 	0.81120 0.66520 0.03410 0.07000
H 	H 	0.84010 0.73560 0.06290 0.06900
H 	H 	0.76140 0.79680 0.99800 0.03200
H 	H 	0.72210 0.72860 0.97230 0.03500
H 	H 	0.88550 0.76580 0.95980 0.05700
H 	H 	0.84240 0.70020 0.93150 0.07200
H 	H 	0.78980 0.83450 0.90620 0.03900
H 	H 	0.85770 0.79790 0.86780 0.05400
H 	H 	0.72780 0.79240 0.82110 0.05400
H 	H 	0.69060 0.75190 0.87570 0.04500
H 	H 	0.88650 0.61240 0.75380 -0.00900
H 	H 	0.67060 0.62640 0.83240 -0.01800
H 	H 	0.68990 0.51980 0.38240 -0.02400
H 	H 	0.58520 0.58010 0.23730 -0.02100
H 	H 	0.43090 0.60760 0.34280 0.03700
H 	H 	0.45400 0.63440 0.27880 0.02700
H 	H 	0.43910 0.72630 0.33910 0.06600
H 	H 	0.50090 0.69480 0.38550 0.06900
H 	H 	0.61070 0.71260 0.32250 0.05400
H 	H 	0.56500 0.78260 0.33520 0.03900
H 	H 	0.60480 0.77170 0.23670 0.07600
H 	H 	0.54620 0.70670 0.23030 0.06700
H 	H 	0.47500 0.83310 0.26300 0.04900
H 	H 	0.43030 0.77020 0.23240 0.05100
H 	H 	0.49920 0.80000 0.14320 0.05000
H 	H 	0.43510 0.85600 0.16490 0.05300
H 	H 	0.58590 0.90620 0.26120 -0.01600
H 	H 	0.68560 0.97560 0.11570 -0.02200
H 	H 	0.61190 0.10860 0.24780 -0.01100
H 	H 	0.82870 0.12490 0.17510 -0.01300
H 	H 	0.76910 0.29100 0.18610 0.12300
H 	H 	0.81530 0.25110 0.13530 0.11300
H 	H 	0.72460 0.32830 0.09360 -0.07700
H 	H 	0.65010 0.29720 0.13030 -0.07200
H 	H 	0.62330 0.22950 0.06180 0.22500
H 	H 	0.70970 0.19420 0.07080 0.23000
H 	H 	0.68340 0.30250 0.99920 -0.11200
H 	H 	0.76570 0.26040 0.00570 -0.10800
H 	H 	0.63810 0.23360 0.92910 0.17100
H 	H 	0.65850 0.16610 0.96650 0.16200
H 	H 	0.79930 0.17830 0.94640 -0.01800
H 	H 	0.78480 0.25060 0.91600 -0.00700
H 	H 	0.72250 0.17040 0.73240 -0.01000
H 	H 	0.76100 0.06770 0.87910 -0.02600
H 	H 	0.79610 0.07820 0.36650 -0.02500
H 	H 	0.95230 0.01530 0.24770 -0.02500
H 	H 	0.97490 0.16720 0.40260 0.03900
H 	H 	0.89930 0.13580 0.43800 0.03600
H 	H 	0.02650 0.11370 0.48730 0.05000
H 	H 	0.05820 0.07230 0.43180 0.06600
H 	H 	0.95560 0.98700 0.44720 0.06100
H 	H 	0.91990 0.02920 0.50120 0.05400
H 	H 	0.79990 0.43290 0.12420 -0.02000
H 	H 	0.95270 0.46570 0.25520 -0.02500
H 	H 	0.96800 0.32700 0.09020 0.04400
H 	H 	0.89390 0.36170 0.05610 0.04300
H 	H 	0.02120 0.38480 0.00780 0.05300
H 	H 	0.05530 0.42130 0.06520 0.06700
H 	H 	0.91880 0.47110 0.00060 0.05800
H 	H 	0.95960 0.50880 0.05520 0.06600
H 	H 	0.77770 0.66200 0.26990 -0.00800
H 	H 	0.73510 0.56820 0.11990 -0.01800
H 	H 	0.82860 0.31360 0.56710 0.03600
H 	H 	0.79820 0.24430 0.59710 0.04600
H 	H 	0.68880 0.33480 0.53410 0.06700
H 	H 	0.65990 0.26440 0.56290 0.06700
H 	H 	0.73860 0.20320 0.49800 0.03500
H 	H 	0.77790 0.27140 0.47230 0.03800
H 	H 	0.61450 0.23420 0.45980 0.05400
H 	H 	0.65760 0.29980 0.43150 0.06800
H 	H 	0.71020 0.16550 0.40620 0.04100
H 	H 	0.64230 0.20210 0.36780 0.05600
H 	H 	0.77220 0.20760 0.32110 0.05200
H 	H 	0.80940 0.24810 0.37570 0.04400
H 	H 	0.61350 0.38760 0.25380 -0.00800
H 	H 	0.82940 0.37360 0.33240 -0.01800
H 	H 	0.81010 0.48020 0.88240 -0.02300
H 	H 	0.91480 0.41990 0.73730 -0.02200
H 	H 	0.06910 0.39240 0.84280 0.03600
H 	H 	0.04600 0.36560 0.77880 0.02600
H 	H 	0.06090 0.27370 0.83910 0.06700
H 	H 	0.99910 0.30520 0.88550 0.07100
H 	H 	0.88930 0.28740 0.82250 0.05300
H 	H 	0.93500 0.21740 0.83520 0.03800
H 	H 	0.89520 0.22830 0.73670 0.07700
H 	H 	0.95380 0.29330 0.73030 0.06800
H 	H 	0.02500 0.16690 0.76300 0.04800
H 	H 	0.06970 0.22980 0.73240 0.05000
H 	H 	0.00080 0.20000 0.64320 0.05100
H 	H 	0.06490 0.14400 0.66490 0.05400
H 	H 	0.91410 0.09380 0.76120 -0.01600
H 	H 	0.81440 0.02440 0.61570 -0.02100
H 	H 	0.88810 0.89140 0.74780 -0.01100
H 	H 	0.67130 0.87510 0.67510 -0.01400
H 	H 	0.73090 0.70900 0.68610 0.10500
H 	H 	0.68470 0.74890 0.63530 0.09500
H 	H 	0.77540 0.67170 0.59360 -0.04600
H 	H 	0.84990 0.70280 0.63030 -0.03900
H 	H 	0.87670 0.77050 0.56180 0.18100
H 	H 	0.79030 0.80580 0.57080 0.18700
H 	H 	0.81660 0.69750 0.49920 -0.07300
H 	H 	0.73430 0.73960 0.50570 -0.07000
H 	H 	0.86190 0.76640 0.42910 0.14400
H 	H 	0.84150 0.83390 0.46650 0.13700
H 	H 	0.70070 0.82170 0.44640 -0.00500
H 	H 	0.71520 0.74940 0.41600 0.00500
H 	H 	0.77750 0.82960 0.23240 -0.01000
H 	H 	0.73900 0.93230 0.37910 -0.02500
H 	H 	0.70390 0.92180 0.86650 -0.02500
H 	H 	0.54770 0.98470 0.74770 -0.02600
H 	H 	0.52510 0.83280 0.90260 0.03900
H 	H 	0.60070 0.86420 0.93800 0.03600
H 	H 	0.47350 0.88630 0.98730 0.04800
H 	H 	0.44180 0.92770 0.93180 0.06500
H 	H 	0.54440 0.01300 0.94720 0.06000
H 	H 	0.58010 0.97080 0.00120 0.05200
H 	H 	0.70010 0.56710 0.62420 -0.02200
H 	H 	0.54730 0.53430 0.75520 -0.02400
H 	H 	0.53200 0.67300 0.59020 0.04400
H 	H 	0.60610 0.63830 0.55610 0.04100
H 	H 	0.47880 0.61520 0.50780 0.05300
H 	H 	0.44470 0.57870 0.56520 0.06800
H 	H 	0.58120 0.52890 0.50060 0.05700
H 	H 	0.54040 0.49120 0.55520 0.06600
H 	H 	0.72230 0.33800 0.76990 -0.00800
H 	H 	0.76490 0.43180 0.61990 -0.01900
H 	H 	0.32860 0.31360 0.93290 0.03500
H 	H 	0.29820 0.24430 0.90290 0.04500
H 	H 	0.18880 0.33480 0.96590 0.07000
H 	H 	0.15990 0.26440 0.93710 0.06900
H 	H 	0.23860 0.20320 0.00200 0.03200
H 	H 	0.27790 0.27140 0.02770 0.03500
H 	H 	0.11450 0.23420 0.04020 0.05700
H 	H 	0.15760 0.29980 0.06850 0.07200
H 	H 	0.21020 0.16550 0.09380 0.03900
H 	H 	0.14230 0.20210 0.13220 0.05400
H 	H 	0.27220 0.20760 0.17890 0.05400
H 	H 	0.30940 0.24810 0.12430 0.04500
H 	H 	0.11350 0.38760 0.24620 -0.00900
H 	H 	0.32940 0.37360 0.16760 -0.01800
H 	H 	0.31010 0.48020 0.61760 -0.02400
H 	H 	0.41480 0.41990 0.76270 -0.02100
H 	H 	0.56910 0.39240 0.65720 0.03700
H 	H 	0.54600 0.36560 0.72120 0.02700
H 	H 	0.56090 0.27370 0.66090 0.06600
H 	H 	0.49910 0.30520 0.61450 0.06900
H 	H 	0.38930 0.28740 0.67750 0.05400
H 	H 	0.43500 0.21740 0.66480 0.03900
H 	H 	0.39520 0.22830 0.76330 0.07600
H 	H 	0.45380 0.29330 0.76970 0.06700
H 	H 	0.52500 0.16690 0.73700 0.04900
H 	H 	0.56970 0.22980 0.76760 0.05100
H 	H 	0.50080 0.20000 0.85680 0.05000
H 	H 	0.56490 0.14400 0.83510 0.05300
H 	H 	0.41410 0.09380 0.73880 -0.01600
H 	H 	0.31440 0.02440 0.88430 -0.02200
H 	H 	0.38810 0.89140 0.75220 -0.01100
H 	H 	0.17130 0.87510 0.82490 -0.01300
H 	H 	0.23090 0.70900 0.81390 0.12300
H 	H 	0.18470 0.74890 0.86470 0.11300
H 	H 	0.27540 0.67170 0.90640 -0.07700
H 	H 	0.34990 0.70280 0.86970 -0.07200
H 	H 	0.37670 0.77050 0.93820 0.22500
H 	H 	0.29030 0.80580 0.92920 0.23000
H 	H 	0.31660 0.69750 0.00080 -0.11200
H 	H 	0.23430 0.73960 0.99430 -0.10800
H 	H 	0.36190 0.76640 0.07090 0.17100
H 	H 	0.34150 0.83390 0.03350 0.16200
H 	H 	0.20070 0.82170 0.05360 -0.01800
H 	H 	0.21520 0.74940 0.08400 -0.00700
H 	H 	0.27750 0.82960 0.26760 -0.01000
H 	H 	0.23900 0.93230 0.12090 -0.02600
H 	H 	0.20390 0.92180 0.63350 -0.02500
H 	H 	0.04770 0.98470 0.75230 -0.02500
H 	H 	0.02510 0.83280 0.59740 0.03900
H 	H 	0.10070 0.86420 0.56200 0.03600
H 	H 	0.97350 0.88630 0.51270 0.05000
H 	H 	0.94180 0.92770 0.56820 0.06600
H 	H 	0.04440 0.01300 0.55280 0.06100
H 	H 	0.08010 0.97080 0.49880 0.05400
H 	H 	0.20010 0.56710 0.87580 -0.02000
H 	H 	0.04730 0.53430 0.74480 -0.02500
H 	H 	0.03200 0.67300 0.90980 0.04400
H 	H 	0.10610 0.63830 0.94390 0.04300
H 	H 	0.97880 0.61520 0.99220 0.05300
H 	H 	0.94470 0.57870 0.93480 0.06700
H 	H 	0.08120 0.52890 0.99940 0.05800
H 	H 	0.04040 0.49120 0.94480 0.06600
H 	H 	0.22230 0.33800 0.73010 -0.00800
H 	H 	0.26490 0.43180 0.88010 -0.01800
H 	H 	0.17140 0.68640 0.43290 0.03600
H 	H 	0.20180 0.75570 0.40290 0.04600
H 	H 	0.31120 0.66520 0.46590 0.06700
H 	H 	0.34010 0.73560 0.43710 0.06700
H 	H 	0.26140 0.79680 0.50200 0.03500
H 	H 	0.22210 0.72860 0.52770 0.03800
H 	H 	0.38550 0.76580 0.54020 0.05400
H 	H 	0.34240 0.70020 0.56850 0.06800
H 	H 	0.28980 0.83450 0.59380 0.04100
H 	H 	0.35770 0.79790 0.63220 0.05600
H 	H 	0.22780 0.79240 0.67890 0.05200
H 	H 	0.19060 0.75190 0.62430 0.04400
H 	H 	0.38650 0.61240 0.74620 -0.00800
H 	H 	0.17060 0.62640 0.66760 -0.01800
H 	H 	0.18990 0.51980 0.11760 -0.02300
H 	H 	0.08520 0.58010 0.26270 -0.02200
H 	H 	0.93090 0.60760 0.15720 0.03600
H 	H 	0.95400 0.63440 0.22120 0.02600
H 	H 	0.93910 0.72630 0.16090 0.06700
H 	H 	0.00090 0.69480 0.11450 0.07100
H 	H 	0.11070 0.71260 0.17750 0.05300
H 	H 	0.06500 0.78260 0.16480 0.03800
H 	H 	0.10480 0.77170 0.26330 0.07700
H 	H 	0.04620 0.70670 0.26970 0.06800
H 	H 	0.97500 0.83310 0.23700 0.04800
H 	H 	0.93030 0.77020 0.26760 0.05000
H 	H 	0.99920 0.80000 0.35680 0.05100
H 	H 	0.93510 0.85600 0.33510 0.05400
H 	H 	0.08590 0.90620 0.23880 -0.01600
H 	H 	0.18560 0.97560 0.38430 -0.02100
H 	H 	0.11190 0.10860 0.25220 -0.01100
H 	H 	0.32870 0.12490 0.32490 -0.01400
H 	H 	0.26910 0.29100 0.31390 0.10500
H 	H 	0.31530 0.25110 0.36470 0.09500
H 	H 	0.22460 0.32830 0.40640 -0.04600
H 	H 	0.15010 0.29720 0.36970 -0.03900
H 	H 	0.12330 0.22950 0.43820 0.18100
H 	H 	0.20970 0.19420 0.42920 0.18700
H 	H 	0.18340 0.30250 0.50080 -0.07300
H 	H 	0.26570 0.26040 0.49430 -0.07000
H 	H 	0.13810 0.23360 0.57090 0.14400
H 	H 	0.15850 0.16610 0.53350 0.13700
H 	H 	0.29930 0.17830 0.55360 -0.00500
H 	H 	0.28480 0.25060 0.58400 0.00500
H 	H 	0.22250 0.17040 0.76760 -0.01000
H 	H 	0.26100 0.06770 0.62090 -0.02500
H 	H 	0.29610 0.07820 0.13350 -0.02500
H 	H 	0.45230 0.01530 0.25230 -0.02600
H 	H 	0.47490 0.16720 0.09740 0.03900
H 	H 	0.39930 0.13580 0.06200 0.03600
H 	H 	0.52650 0.11370 0.01270 0.04800
H 	H 	0.55820 0.07230 0.06820 0.06500
H 	H 	0.45560 0.98700 0.05280 0.06000
H 	H 	0.41990 0.02920 0.99880 0.05200
H 	H 	0.29990 0.43290 0.37580 -0.02200
H 	H 	0.45270 0.46570 0.24480 -0.02400
H 	H 	0.46800 0.32700 0.40980 0.04400
H 	H 	0.39390 0.36170 0.44390 0.04100
H 	H 	0.52120 0.38480 0.49220 0.05300
H 	H 	0.55530 0.42130 0.43480 0.06800
H 	H 	0.41880 0.47110 0.49940 0.05700
H 	H 	0.45960 0.50880 0.44480 0.06600
H 	H 	0.27770 0.66200 0.23010 -0.00800
H 	H 	0.23510 0.56820 0.38010 -0.01900
C 	C 	0.71830 0.70890 0.08680 -0.02900
C 	C 	0.79380 0.71200 0.04360 -0.15000
C 	C 	0.77300 0.74870 0.98820 -0.03100
C 	C 	0.83330 0.74780 0.94390 -0.12800
C 	C 	0.80850 0.78970 0.89200 -0.07300
C 	C 	0.74070 0.75940 0.85230 -0.05500
C 	C 	0.84140 0.62980 0.77500 0.09100
C 	C 	0.72330 0.63630 0.81710 0.09000
C 	C 	0.65230 0.53950 0.35580 0.10900
C 	C 	0.59660 0.57120 0.27710 0.10200
C 	C 	0.47370 0.63080 0.31950 -0.01100
C 	C 	0.48950 0.69910 0.34330 -0.13500
C 	C 	0.55960 0.73800 0.31530 -0.04800
C 	C 	0.55290 0.75090 0.25040 -0.12200
C 	C 	0.48110 0.79790 0.23250 -0.08100
C 	C 	0.48760 0.83370 0.17420 -0.06500
C 	C 	0.59800 0.91440 0.22130 0.09100
C 	C 	0.65120 0.95150 0.14200 0.09600
C 	C 	0.65770 0.12600 0.22710 0.09500
C 	C 	0.77470 0.13350 0.18820 0.07200
C 	C 	0.76160 0.25740 0.15440 -0.27800
C 	C 	0.70170 0.28570 0.11010 0.33900
C 	C 	0.68300 0.23800 0.06180 -0.67500
C 	C 	0.70500 0.25630 0.00630 0.46200
C 	C 	0.67970 0.21100 0.95360 -0.47700
C 	C 	0.76090 0.20470 0.92200 0.13800
C 	C 	0.73150 0.16020 0.77230 0.09100
C 	C 	0.75190 0.10290 0.85160 0.09700
C 	C 	0.84480 0.06840 0.34570 0.09300
C 	C 	0.93090 0.03450 0.28240 0.10500
C 	C 	0.94830 0.12410 0.41490 -0.03400
C 	C 	0.00900 0.08400 0.45470 -0.11100
C 	C 	0.97050 0.01790 0.47970 -0.08400
C 	C 	0.84710 0.43300 0.14830 0.09400
C 	C 	0.93110 0.45090 0.21890 0.10000
C 	C 	0.94340 0.37120 0.07960 -0.04300
C 	C 	0.00540 0.41240 0.04190 -0.10400
C 	C 	0.97130 0.47990 0.02090 -0.09000
C 	C 	0.76570 0.65460 0.22990 0.08000
C 	C 	0.74250 0.60190 0.14910 0.08700
C 	C 	0.78170 0.29110 0.58680 -0.03300
C 	C 	0.70620 0.28800 0.54360 -0.14200
C 	C 	0.72700 0.25130 0.48820 -0.04300
C 	C 	0.66670 0.25220 0.44390 -0.11700
C 	C 	0.69150 0.21030 0.39200 -0.08000
C 	C 	0.75930 0.24060 0.35230 -0.05200
C 	C 	0.65860 0.37020 0.27500 0.09100
C 	C 	0.77670 0.36370 0.31710 0.09000
C 	C 	0.84770 0.46050 0.85580 0.10900
C 	C 	0.90340 0.42880 0.77710 0.10200
C 	C 	0.02630 0.36920 0.81950 -0.00900
C 	C 	0.01050 0.30090 0.84330 -0.14000
C 	C 	0.94040 0.26200 0.81530 -0.04400
C 	C 	0.94710 0.24910 0.75040 -0.12500
C 	C 	0.01890 0.20210 0.73250 -0.07900
C 	C 	0.01240 0.16630 0.67420 -0.06700
C 	C 	0.90200 0.08560 0.72130 0.09100
C 	C 	0.84880 0.04850 0.64200 0.09600
C 	C 	0.84230 0.87400 0.72710 0.09500
C 	C 	0.72530 0.86650 0.68820 0.07600
C 	C 	0.73840 0.74260 0.65440 -0.21800
C 	C 	0.79830 0.71430 0.61010 0.22900
C 	C 	0.81700 0.76200 0.56180 -0.52700
C 	C 	0.79500 0.74370 0.50630 0.32700
C 	C 	0.82030 0.78900 0.45360 -0.38800
C 	C 	0.73910 0.79530 0.42200 0.09500
C 	C 	0.76850 0.83980 0.27230 0.09100
C 	C 	0.74810 0.89710 0.35160 0.09500
C 	C 	0.65520 0.93160 0.84570 0.09300
C 	C 	0.56910 0.96550 0.78240 0.10500
C 	C 	0.55170 0.87590 0.91490 -0.03500
C 	C 	0.49100 0.91600 0.95470 -0.10900
C 	C 	0.52950 0.98210 0.97970 -0.08100
C 	C 	0.65290 0.56700 0.64830 0.09500
C 	C 	0.56890 0.54910 0.71890 0.10000
C 	C 	0.55660 0.62880 0.57960 -0.04100
C 	C 	0.49460 0.58760 0.54190 -0.10500
C 	C 	0.52870 0.52010 0.52090 -0.08900
C 	C 	0.73430 0.34540 0.72990 0.08000
C 	C 	0.75750 0.39810 0.64910 0.08600
C 	C 	0.28170 0.29110 0.91320 -0.02900
C 	C 	0.20620 0.28800 0.95640 -0.15000
C 	C 	0.22700 0.25130 0.01180 -0.03100
C 	C 	0.16670 0.25220 0.05610 -0.12800
C 	C 	0.19150 0.21030 0.10800 -0.07300
C 	C 	0.25930 0.24060 0.14770 -0.05500
C 	C 	0.15860 0.37020 0.22500 0.09100
C 	C 	0.27670 0.36370 0.18290 0.09000
C 	C 	0.34770 0.46050 0.64420 0.10900
C 	C 	0.40340 0.42880 0.72290 0.10200
C 	C 	0.52630 0.36920 0.68050 -0.01100
C 	C 	0.51050 0.30090 0.65670 -0.13500
C 	C 	0.44040 0.26200 0.68470 -0.04800
C 	C 	0.44710 0.24910 0.74960 -0.12200
C 	C 	0.51890 0.20210 0.76750 -0.08100
C 	C 	0.51240 0.16630 0.82580 -0.06500
C 	C 	0.40200 0.08560 0.77870 0.09100
C 	C 	0.34880 0.04850 0.85800 0.09600
C 	C 	0.34230 0.87400 0.77290 0.09500
C 	C 	0.22530 0.86650 0.81180 0.07200
C 	C 	0.23840 0.74260 0.84560 -0.27800
C 	C 	0.29830 0.71430 0.88990 0.33900
C 	C 	0.31700 0.76200 0.93820 -0.67500
C 	C 	0.29500 0.74370 0.99370 0.46200
C 	C 	0.32030 0.78900 0.04640 -0.47700
C 	C 	0.23910 0.79530 0.07800 0.13800
C 	C 	0.26850 0.83980 0.22770 0.09100
C 	C 	0.24810 0.89710 0.14840 0.09700
C 	C 	0.15520 0.93160 0.65430 0.09300
C 	C 	0.06910 0.96550 0.71760 0.10500
C 	C 	0.05170 0.87590 0.58510 -0.03400
C 	C 	0.99100 0.91600 0.54530 -0.11100
C 	C 	0.02950 0.98210 0.52030 -0.08400
C 	C 	0.15290 0.56700 0.85170 0.09400
C 	C 	0.06890 0.54910 0.78110 0.10000
C 	C 	0.05660 0.62880 0.92040 -0.04300
C 	C 	0.99460 0.58760 0.95810 -0.10400
C 	C 	0.02870 0.52010 0.97910 -0.09000
C 	C 	0.23430 0.34540 0.77010 0.08000
C 	C 	0.25750 0.39810 0.85090 0.08700
C 	C 	0.21830 0.70890 0.41320 -0.03300
C 	C 	0.29380 0.71200 0.45640 -0.14200
C 	C 	0.27300 0.74870 0.51180 -0.04300
C 	C 	0.33330 0.74780 0.55610 -0.11700
C 	C 	0.30850 0.78970 0.60800 -0.08000
C 	C 	0.24070 0.75940 0.64770 -0.05200
C 	C 	0.34140 0.62980 0.72500 0.09100
C 	C 	0.22330 0.63630 0.68290 0.09000
C 	C 	0.15230 0.53950 0.14420 0.10900
C 	C 	0.09660 0.57120 0.22290 0.10200
C 	C 	0.97370 0.63080 0.18050 -0.00900
C 	C 	0.98950 0.69910 0.15670 -0.14000
C 	C 	0.05960 0.73800 0.18470 -0.04400
C 	C 	0.05290 0.75090 0.24960 -0.12500
C 	C 	0.98110 0.79790 0.26750 -0.07900
C 	C 	0.98760 0.83370 0.32580 -0.06700
C 	C 	0.09800 0.91440 0.27870 0.09100
C 	C 	0.15120 0.95150 0.35800 0.09600
C 	C 	0.15770 0.12600 0.27290 0.09500
C 	C 	0.27470 0.13350 0.31180 0.07600
C 	C 	0.26160 0.25740 0.34560 -0.21800
C 	C 	0.20170 0.28570 0.38990 0.22900
C 	C 	0.18300 0.23800 0.43820 -0.52700
C 	C 	0.20500 0.25630 0.49370 0.32700
C 	C 	0.17970 0.21100 0.54640 -0.38800
C 	C 	0.26090 0.20470 0.57800 0.09500
C 	C 	0.23150 0.16020 0.72770 0.09100
C 	C 	0.25190 0.10290 0.64840 0.09500
C 	C 	0.34480 0.06840 0.15430 0.09300
C 	C 	0.43090 0.03450 0.21760 0.10500
C 	C 	0.44830 0.12410 0.08510 -0.03500
C 	C 	0.50900 0.08400 0.04530 -0.10900
C 	C 	0.47050 0.01790 0.02030 -0.08100
C 	C 	0.34710 0.43300 0.35170 0.09500
C 	C 	0.43110 0.45090 0.28110 0.10000
C 	C 	0.44340 0.37120 0.42040 -0.04100
C 	C 	0.50540 0.41240 0.45810 -0.10500
C 	C 	0.47130 0.47990 0.47910 -0.08900
C 	C 	0.26570 0.65460 0.27010 0.08000
C 	C 	0.24250 0.60190 0.35090 0.08600
N 	N 	0.75880 0.58970 0.20520 -0.24300
N 	N 	0.75380 0.70570 0.19140 -0.09900
N 	N 	0.73830 0.67100 0.14050 -0.09800
N 	N 	0.84110 0.69060 0.80050 -0.09100
N 	N 	0.76610 0.69400 0.82560 -0.09200
N 	N 	0.76810 0.59460 0.78300 -0.24600
N 	N 	0.66240 0.53690 0.29710 -0.25100
N 	N 	0.55090 0.59020 0.32110 -0.10200
N 	N 	0.58660 0.57140 0.37270 -0.10400
N 	N 	0.66000 0.95570 0.20170 -0.24700
N 	N 	0.59030 0.91080 0.12400 -0.10400
N 	N 	0.55680 0.88740 0.17660 -0.09300
N 	N 	0.72730 0.08850 0.21810 -0.24800
N 	N 	0.73450 0.19170 0.17990 -0.06400
N 	N 	0.65910 0.18860 0.20460 -0.09500
N 	N 	0.75020 0.16960 0.86330 -0.12200
N 	N 	0.73880 0.20640 0.81270 -0.10200
N 	N 	0.73840 0.09410 0.79400 -0.24500
N 	N 	0.84880 0.03480 0.29530 -0.25000
N 	N 	0.97700 0.06310 0.32230 -0.09900
N 	N 	0.92210 0.08650 0.36240 -0.09500
N 	N 	0.85150 0.45890 0.20250 -0.24900
N 	N 	0.97530 0.41990 0.17780 -0.09600
N 	N 	0.91910 0.40780 0.13410 -0.09700
N 	N 	0.74120 0.41030 0.70520 -0.24300
N 	N 	0.74620 0.29430 0.69140 -0.09900
N 	N 	0.76170 0.32900 0.64050 -0.09800
N 	N 	0.65890 0.30940 0.30050 -0.09100
N 	N 	0.73390 0.30600 0.32560 -0.09300
N 	N 	0.73190 0.40540 0.28300 -0.24600
N 	N 	0.83760 0.46310 0.79710 -0.25100
N 	N 	0.94910 0.40980 0.82110 -0.10200
N 	N 	0.91340 0.42860 0.87270 -0.10400
N 	N 	0.84000 0.04430 0.70170 -0.24600
N 	N 	0.90970 0.08920 0.62400 -0.10300
N 	N 	0.94320 0.11260 0.67660 -0.09300
N 	N 	0.77270 0.91150 0.71810 -0.24900
N 	N 	0.76550 0.80830 0.67990 -0.07200
N 	N 	0.84090 0.81140 0.70460 -0.09500
N 	N 	0.74980 0.83040 0.36330 -0.11700
N 	N 	0.76120 0.79360 0.31270 -0.10200
N 	N 	0.76160 0.90590 0.29400 -0.24500
N 	N 	0.65120 0.96520 0.79530 -0.25000
N 	N 	0.52300 0.93690 0.82230 -0.09900
N 	N 	0.57790 0.91350 0.86240 -0.09500
N 	N 	0.64850 0.54110 0.70250 -0.24900
N 	N 	0.52470 0.58010 0.67780 -0.09600
N 	N 	0.58090 0.59220 0.63410 -0.09700
N 	N 	0.24120 0.41030 0.79480 -0.24300
N 	N 	0.24620 0.29430 0.80860 -0.09900
N 	N 	0.26170 0.32900 0.85950 -0.09800
N 	N 	0.15890 0.30940 0.19950 -0.09100
N 	N 	0.23390 0.30600 0.17440 -0.09200
N 	N 	0.23190 0.40540 0.21700 -0.24600
N 	N 	0.33760 0.46310 0.70290 -0.25100
N 	N 	0.44910 0.40980 0.67890 -0.10200
N 	N 	0.41340 0.42860 0.62730 -0.10400
N 	N 	0.34000 0.04430 0.79830 -0.24700
N 	N 	0.40970 0.08920 0.87600 -0.10400
N 	N 	0.44320 0.11260 0.82340 -0.09300
N 	N 	0.27270 0.91150 0.78190 -0.24800
N 	N 	0.26550 0.80830 0.82010 -0.06400
N 	N 	0.34090 0.81140 0.79540 -0.09500
N 	N 	0.24980 0.83040 0.13670 -0.12200
N 	N 	0.26120 0.79360 0.18730 -0.10200
N 	N 	0.26160 0.90590 0.20600 -0.24500
N 	N 	0.15120 0.96520 0.70470 -0.25000
N 	N 	0.02300 0.93690 0.67770 -0.09900
N 	N 	0.07790 0.91350 0.63760 -0.09500
N 	N 	0.14850 0.54110 0.79750 -0.24900
N 	N 	0.02470 0.58010 0.82220 -0.09600
N 	N 	0.08090 0.59220 0.86590 -0.09700
N 	N 	0.25880 0.58970 0.29480 -0.24300
N 	N 	0.25380 0.70570 0.30860 -0.09900
N 	N 	0.23830 0.67100 0.35950 -0.09800
N 	N 	0.34110 0.69060 0.69950 -0.09100
N 	N 	0.26610 0.69400 0.67440 -0.09300
N 	N 	0.26810 0.59460 0.71700 -0.24600
N 	N 	0.16240 0.53690 0.20290 -0.25100
N 	N 	0.05090 0.59020 0.17890 -0.10200
N 	N 	0.08660 0.57140 0.12730 -0.10400
N 	N 	0.16000 0.95570 0.29830 -0.24600
N 	N 	0.09030 0.91080 0.37600 -0.10300
N 	N 	0.05680 0.88740 0.32340 -0.09300
N 	N 	0.22730 0.08850 0.28190 -0.24900
N 	N 	0.23450 0.19170 0.32010 -0.07200
N 	N 	0.15910 0.18860 0.29540 -0.09500
N 	N 	0.25020 0.16960 0.63670 -0.11700
N 	N 	0.23880 0.20640 0.68730 -0.10200
N 	N 	0.23840 0.09410 0.70600 -0.24500
N 	N 	0.34880 0.03480 0.20470 -0.25000
N 	N 	0.47700 0.06310 0.17770 -0.09900
N 	N 	0.42210 0.08650 0.13760 -0.09500
N 	N 	0.35150 0.45890 0.29750 -0.24900
N 	N 	0.47530 0.41990 0.32220 -0.09600
N 	N 	0.41910 0.40780 0.36590 -0.09700
