data_crystal

_cell_length_a 9.92610
_cell_length_b 9.92610
_cell_length_c 18.28730
_cell_angle_alpha 84.22290
_cell_angle_beta  76.68680
_cell_angle_gamma 112.97400

_symmetry_space_group_name_	'P 1'
_symmetry_space_group_name_H-M	'P 1'

loop_
_symmetry_equiv_pos_as_xyz
  x,y,z

loop_
_atom_site_label
_atom_site_type_symbol
_atom_site_fract_x
_atom_site_fract_y
_atom_site_fract_z
_atom_site_charge
Ca	Ca	0.40156 0.74136 0.04872 1.50000
Ca	Ca	0.29008 0.45028 0.45128 1.49900
Ca	Ca	0.59844 0.25864 0.95128 1.50000
Ca	Ca	0.70992 0.54972 0.54872 1.49900
Ca	Ca	0.20626 0.45626 0.25000 1.48600
Ca	Ca	0.79374 0.54374 0.75000 1.48600
H 	H 	0.54460 0.61040 0.27520 -0.02900
H 	H 	0.86920 0.67880 0.08000 -0.00800
H 	H 	0.95200 0.62740 0.28360 -0.03600
H 	H 	0.38560 0.81980 0.22480 -0.02900
H 	H 	0.25880 0.94920 0.42000 -0.00800
H 	H 	0.41100 0.23560 0.21640 -0.03600
H 	H 	0.45540 0.38960 0.72480 -0.02800
H 	H 	0.13080 0.32120 0.92000 -0.00700
H 	H 	0.04800 0.37260 0.71640 -0.03500
H 	H 	0.61440 0.18020 0.77520 -0.02800
H 	H 	0.74120 0.05080 0.58000 -0.00800
H 	H 	0.58900 0.76440 0.78360 -0.03600
C 	C 	0.64263 0.62210 0.25027 0.13000
C 	C 	0.69023 0.64380 0.17077 -0.20500
C 	C 	0.93477 0.65436 0.17587 -0.21600
C 	C 	0.58270 0.65240 0.12630 0.39300
C 	C 	0.83657 0.66186 0.13337 0.12400
C 	C 	0.09238 0.67360 0.13462 0.39600
C 	C 	0.68554 0.59310 0.37936 0.43700
C 	C 	0.88675 0.63240 0.25525 0.12700
C 	C 	0.74107 0.61780 0.29293 -0.21500
C 	C 	0.37237 0.89290 0.24973 0.13000
C 	C 	0.31457 0.86100 0.32923 -0.20600
C 	C 	0.33023 0.11064 0.32413 -0.21800
C 	C 	0.27870 0.70900 0.37370 0.39300
C 	C 	0.29523 0.96994 0.36663 0.12400
C 	C 	0.30822 0.22700 0.36538 0.39700
C 	C 	0.47246 0.06490 0.12064 0.43800
C 	C 	0.38765 0.14200 0.24475 0.12800
C 	C 	0.41073 0.03400 0.20707 -0.21600
C 	C 	0.35737 0.37790 0.74973 0.13000
C 	C 	0.30977 0.35620 0.82923 -0.20500
C 	C 	0.06523 0.34564 0.82413 -0.21600
C 	C 	0.41730 0.34760 0.87370 0.39300
C 	C 	0.16343 0.33814 0.86663 0.12400
C 	C 	0.90762 0.32640 0.86538 0.39600
C 	C 	0.31446 0.40690 0.62064 0.43700
C 	C 	0.11325 0.36760 0.74475 0.12700
C 	C 	0.25893 0.38220 0.70707 -0.21500
C 	C 	0.62763 0.10710 0.75027 0.13000
C 	C 	0.68543 0.13900 0.67077 -0.20600
C 	C 	0.66977 0.88936 0.67587 -0.21800
C 	C 	0.72130 0.29100 0.62630 0.39300
C 	C 	0.70477 0.03006 0.63337 0.12400
C 	C 	0.69178 0.77300 0.63462 0.39700
C 	C 	0.52754 0.93510 0.87936 0.43800
C 	C 	0.61235 0.85800 0.75525 0.12800
C 	C 	0.58927 0.96600 0.79293 -0.21600
O 	O 	0.44292 0.60640 0.16148 -0.60100
O 	O 	0.63596 0.70881 0.05503 -0.44900
O 	O 	0.16281 0.62387 0.17152 -0.60600
O 	O 	0.15110 0.73857 0.06533 -0.45700
O 	O 	0.77964 0.59620 0.41576 -0.50700
O 	O 	0.54983 0.57199 0.40978 -0.52100
O 	O 	0.26788 0.60440 0.33852 -0.60100
O 	O 	0.26384 0.69099 0.44497 -0.44900
O 	O 	0.29539 0.33433 0.32848 -0.60600
O 	O 	0.30390 0.21643 0.43467 -0.45700
O 	O 	0.51196 0.19540 0.08424 -0.50700
O 	O 	0.48177 0.95961 0.09022 -0.52100
O 	O 	0.55708 0.39360 0.83852 -0.60100
O 	O 	0.36404 0.29119 0.94497 -0.44900
O 	O 	0.83719 0.37613 0.82848 -0.60600
O 	O 	0.84890 0.26143 0.93467 -0.45700
O 	O 	0.22036 0.40380 0.58424 -0.50700
O 	O 	0.45017 0.42801 0.59022 -0.52100
O 	O 	0.73212 0.39560 0.66148 -0.60100
O 	O 	0.73616 0.30901 0.55503 -0.44900
O 	O 	0.70461 0.66567 0.67152 -0.60600
O 	O 	0.69610 0.78357 0.56533 -0.45700
O 	O 	0.48804 0.80460 0.91576 -0.50700
O 	O 	0.51823 0.04039 0.90978 -0.52100
