data_crystal

_cell_length_a 15.04120
_cell_length_b 15.89190
_cell_length_c 28.22100
_cell_angle_alpha 90.00000
_cell_angle_beta  90.00000
_cell_angle_gamma 90.00000

_symmetry_space_group_name_	'P 1'
_symmetry_space_group_name_H-M	'P 1'

loop_
_symmetry_equiv_pos_as_xyz
  x,y,z

loop_
_atom_site_label
_atom_site_type_symbol
_atom_site_fract_x
_atom_site_fract_y
_atom_site_fract_z
_atom_site_charge
C 	C 	0.81800 0.22320 0.03052 -0.03000
C 	C 	0.88840 0.19360 0.06385 0.28000
C 	C 	0.76950 0.29570 0.04093 -0.02400
H 	H 	0.78250 0.32660 0.06810 0.07700
C 	C 	0.79840 0.17800 0.98936 -0.02400
H 	H 	0.83090 0.12990 0.98210 0.07700
O 	O 	0.94220 0.13660 0.05000 -0.34200
O 	O 	0.89150 0.22430 0.10476 -0.32800
C 	C 	0.81800 0.72320 0.53052 -0.03300
C 	C 	0.88840 0.69360 0.56385 0.28000
C 	C 	0.76950 0.79570 0.54093 -0.02400
H 	H 	0.78250 0.82660 0.56810 0.07500
C 	C 	0.79840 0.67800 0.48936 -0.02200
H 	H 	0.83090 0.62990 0.48210 0.07500
O 	O 	0.94220 0.63660 0.55000 -0.34300
O 	O 	0.89150 0.72430 0.60476 -0.32900
C 	C 	0.31800 0.22320 0.53052 -0.03300
C 	C 	0.38840 0.19360 0.56385 0.28000
C 	C 	0.26950 0.29570 0.54093 -0.02400
H 	H 	0.28250 0.32660 0.56810 0.07500
C 	C 	0.29840 0.17800 0.48936 -0.02200
H 	H 	0.33090 0.12990 0.48210 0.07500
O 	O 	0.44220 0.13660 0.55000 -0.34300
O 	O 	0.39150 0.22430 0.60476 -0.32900
C 	C 	0.31800 0.72320 0.03052 -0.03500
C 	C 	0.38840 0.69360 0.06385 0.28000
C 	C 	0.26950 0.79570 0.04093 -0.02200
H 	H 	0.28250 0.82660 0.06810 0.07500
C 	C 	0.29840 0.67800 0.98936 -0.02000
H 	H 	0.33090 0.62990 0.98210 0.07500
O 	O 	0.44220 0.63660 0.05000 -0.34300
O 	O 	0.39150 0.72430 0.10476 -0.32900
C 	C 	0.93200 0.52680 0.03052 -0.03200
C 	C 	0.86160 0.55640 0.06385 0.28000
C 	C 	0.98050 0.45430 0.04093 -0.02100
H 	H 	0.96750 0.42340 0.06810 0.07500
C 	C 	0.95160 0.57200 0.98936 -0.02500
H 	H 	0.91910 0.62010 0.98210 0.07600
O 	O 	0.80780 0.61340 0.05000 -0.34300
O 	O 	0.85850 0.52570 0.10476 -0.32900
C 	C 	0.93200 0.02680 0.53052 -0.03100
C 	C 	0.86160 0.05640 0.56385 0.27900
C 	C 	0.98050 0.95430 0.54093 -0.02900
H 	H 	0.96750 0.92340 0.56810 0.07700
C 	C 	0.95160 0.07200 0.48936 -0.01900
H 	H 	0.91910 0.12010 0.48210 0.07500
O 	O 	0.80780 0.11340 0.55000 -0.34300
O 	O 	0.85850 0.02570 0.60476 -0.32900
C 	C 	0.43200 0.52680 0.53052 -0.03300
C 	C 	0.36160 0.55640 0.56385 0.28000
C 	C 	0.48050 0.45430 0.54093 -0.02400
H 	H 	0.46750 0.42340 0.56810 0.07500
C 	C 	0.45160 0.57200 0.48936 -0.02200
H 	H 	0.41910 0.62010 0.48210 0.07500
O 	O 	0.30780 0.61340 0.55000 -0.34300
O 	O 	0.35850 0.52570 0.60476 -0.32900
C 	C 	0.43200 0.02680 0.03052 -0.03300
C 	C 	0.36160 0.05640 0.06385 0.28000
C 	C 	0.48050 0.95430 0.04093 -0.02400
H 	H 	0.46750 0.92340 0.06810 0.07500
C 	C 	0.45160 0.07200 0.98936 -0.02300
H 	H 	0.41910 0.12010 0.98210 0.07500
O 	O 	0.30780 0.11340 0.05000 -0.34400
O 	O 	0.35850 0.02570 0.10476 -0.32900
C 	C 	0.93200 0.22320 0.71948 -0.03500
C 	C 	0.86160 0.19360 0.68615 0.28000
C 	C 	0.98050 0.29570 0.70907 -0.02100
H 	H 	0.96750 0.32660 0.68190 0.07500
C 	C 	0.95160 0.17800 0.76064 -0.02000
H 	H 	0.91910 0.12990 0.76790 0.07500
O 	O 	0.80780 0.13660 0.70000 -0.34300
O 	O 	0.85850 0.22430 0.64524 -0.32900
C 	C 	0.93200 0.72320 0.21948 -0.03200
C 	C 	0.86160 0.69360 0.18615 0.27900
C 	C 	0.98050 0.79570 0.20907 -0.02600
H 	H 	0.96750 0.82660 0.18190 0.07600
C 	C 	0.95160 0.67800 0.26064 -0.02400
H 	H 	0.91910 0.62990 0.26790 0.07600
O 	O 	0.80780 0.63660 0.20000 -0.34300
O 	O 	0.85850 0.72430 0.14524 -0.32900
C 	C 	0.43200 0.22320 0.21948 -0.03400
C 	C 	0.36160 0.19360 0.18615 0.28000
C 	C 	0.48050 0.29570 0.20907 -0.02300
H 	H 	0.46750 0.32660 0.18190 0.07500
C 	C 	0.45160 0.17800 0.26064 -0.02200
H 	H 	0.41910 0.12990 0.26790 0.07500
O 	O 	0.30780 0.13660 0.20000 -0.34400
O 	O 	0.35850 0.22430 0.14524 -0.32900
C 	C 	0.43200 0.72320 0.71948 -0.03300
C 	C 	0.36160 0.69360 0.68615 0.28000
C 	C 	0.48050 0.79570 0.70907 -0.02400
H 	H 	0.46750 0.82660 0.68190 0.07600
C 	C 	0.45160 0.67800 0.76064 -0.02200
H 	H 	0.41910 0.62990 0.76790 0.07500
O 	O 	0.30780 0.63660 0.70000 -0.34300
O 	O 	0.35850 0.72430 0.64524 -0.32900
C 	C 	0.81800 0.52680 0.71948 -0.03300
C 	C 	0.88840 0.55640 0.68615 0.28000
C 	C 	0.76950 0.45430 0.70907 -0.02300
H 	H 	0.78250 0.42340 0.68190 0.07600
C 	C 	0.79840 0.57200 0.76064 -0.02200
H 	H 	0.83090 0.62010 0.76790 0.07500
O 	O 	0.94220 0.61340 0.70000 -0.34300
O 	O 	0.89150 0.52570 0.64524 -0.32900
C 	C 	0.81800 0.02680 0.21948 -0.03000
C 	C 	0.88840 0.05640 0.18615 0.27900
C 	C 	0.76950 0.95430 0.20907 -0.02800
H 	H 	0.78250 0.92340 0.18190 0.07700
C 	C 	0.79840 0.07200 0.26064 -0.02500
H 	H 	0.83090 0.12010 0.26790 0.07700
O 	O 	0.94220 0.11340 0.20000 -0.34200
O 	O 	0.89150 0.02570 0.14524 -0.32800
C 	C 	0.31800 0.52680 0.21948 -0.03300
C 	C 	0.38840 0.55640 0.18615 0.28000
C 	C 	0.26950 0.45430 0.20907 -0.02400
H 	H 	0.28250 0.42340 0.18190 0.07500
C 	C 	0.29840 0.57200 0.26064 -0.02200
H 	H 	0.33090 0.62010 0.26790 0.07500
O 	O 	0.44220 0.61340 0.20000 -0.34300
O 	O 	0.39150 0.52570 0.14524 -0.32900
C 	C 	0.31800 0.02680 0.71948 -0.03700
C 	C 	0.38840 0.05640 0.68615 0.28100
C 	C 	0.26950 0.95430 0.70907 -0.02000
H 	H 	0.28250 0.92340 0.68190 0.07400
C 	C 	0.29840 0.07200 0.76064 -0.01900
H 	H 	0.33090 0.12010 0.76790 0.07400
O 	O 	0.44220 0.11340 0.70000 -0.34400
O 	O 	0.39150 0.02570 0.64524 -0.33000
C 	C 	0.18200 0.77680 0.96948 -0.03100
C 	C 	0.11160 0.80640 0.93615 0.27900
C 	C 	0.23050 0.70430 0.95907 -0.02500
H 	H 	0.21750 0.67340 0.93190 0.07600
C 	C 	0.20160 0.82200 0.01064 -0.02500
H 	H 	0.16910 0.87010 0.01790 0.07600
O 	O 	0.05780 0.86340 0.95000 -0.34200
O 	O 	0.10850 0.77570 0.89524 -0.32800
C 	C 	0.18200 0.27680 0.46948 -0.03300
C 	C 	0.11160 0.30640 0.43615 0.28000
C 	C 	0.23050 0.20430 0.45907 -0.02400
H 	H 	0.21750 0.17340 0.43190 0.07500
C 	C 	0.20160 0.32200 0.51064 -0.02200
H 	H 	0.16910 0.37010 0.51790 0.07500
O 	O 	0.05780 0.36340 0.45000 -0.34300
O 	O 	0.10850 0.27570 0.39524 -0.32900
C 	C 	0.68200 0.77680 0.46948 -0.03300
C 	C 	0.61160 0.80640 0.43615 0.28000
C 	C 	0.73050 0.70430 0.45907 -0.02400
H 	H 	0.71750 0.67340 0.43190 0.07500
C 	C 	0.70160 0.82200 0.51064 -0.02200
H 	H 	0.66910 0.87010 0.51790 0.07500
O 	O 	0.55780 0.86340 0.45000 -0.34300
O 	O 	0.60850 0.77570 0.39524 -0.32900
C 	C 	0.68200 0.27680 0.96948 -0.03500
C 	C 	0.61160 0.30640 0.93615 0.28000
C 	C 	0.73050 0.20430 0.95907 -0.02200
H 	H 	0.71750 0.17340 0.93190 0.07500
C 	C 	0.70160 0.32200 0.01064 -0.02000
H 	H 	0.66910 0.37010 0.01790 0.07500
O 	O 	0.55780 0.36340 0.95000 -0.34300
O 	O 	0.60850 0.27570 0.89524 -0.32900
C 	C 	0.06800 0.47320 0.96948 -0.03200
C 	C 	0.13840 0.44360 0.93615 0.28000
C 	C 	0.01950 0.54570 0.95907 -0.02100
H 	H 	0.03250 0.57660 0.93190 0.07500
C 	C 	0.04840 0.42800 0.01064 -0.02500
H 	H 	0.08090 0.37990 0.01790 0.07600
O 	O 	0.19220 0.38660 0.95000 -0.34300
O 	O 	0.14150 0.47430 0.89524 -0.32900
C 	C 	0.06800 0.97320 0.46948 -0.03100
C 	C 	0.13840 0.94360 0.43615 0.27900
C 	C 	0.01950 0.04570 0.45907 -0.02900
H 	H 	0.03250 0.07660 0.43190 0.07700
C 	C 	0.04840 0.92800 0.51064 -0.01900
H 	H 	0.08090 0.87990 0.51790 0.07500
O 	O 	0.19220 0.88660 0.45000 -0.34300
O 	O 	0.14150 0.97430 0.39524 -0.32900
C 	C 	0.56800 0.47320 0.46948 -0.03300
C 	C 	0.63840 0.44360 0.43615 0.28000
C 	C 	0.51950 0.54570 0.45907 -0.02400
H 	H 	0.53250 0.57660 0.43190 0.07500
C 	C 	0.54840 0.42800 0.51064 -0.02200
H 	H 	0.58090 0.37990 0.51790 0.07500
O 	O 	0.69220 0.38660 0.45000 -0.34300
O 	O 	0.64150 0.47430 0.39524 -0.32900
C 	C 	0.56800 0.97320 0.96948 -0.03300
C 	C 	0.63840 0.94360 0.93615 0.28000
C 	C 	0.51950 0.04570 0.95907 -0.02400
H 	H 	0.53250 0.07660 0.93190 0.07500
C 	C 	0.54840 0.92800 0.01064 -0.02300
H 	H 	0.58090 0.87990 0.01790 0.07500
O 	O 	0.69220 0.88660 0.95000 -0.34400
O 	O 	0.64150 0.97430 0.89524 -0.32900
C 	C 	0.06800 0.77680 0.28052 -0.03500
C 	C 	0.13840 0.80640 0.31385 0.28000
C 	C 	0.01950 0.70430 0.29093 -0.02100
H 	H 	0.03250 0.67340 0.31810 0.07500
C 	C 	0.04840 0.82200 0.23936 -0.02000
H 	H 	0.08090 0.87010 0.23210 0.07500
O 	O 	0.19220 0.86340 0.30000 -0.34300
O 	O 	0.14150 0.77570 0.35476 -0.32900
C 	C 	0.06800 0.27680 0.78052 -0.03200
C 	C 	0.13840 0.30640 0.81385 0.27900
C 	C 	0.01950 0.20430 0.79093 -0.02600
H 	H 	0.03250 0.17340 0.81810 0.07600
C 	C 	0.04840 0.32200 0.73936 -0.02400
H 	H 	0.08090 0.37010 0.73210 0.07600
O 	O 	0.19220 0.36340 0.80000 -0.34300
O 	O 	0.14150 0.27570 0.85476 -0.32900
C 	C 	0.56800 0.77680 0.78052 -0.03400
C 	C 	0.63840 0.80640 0.81385 0.28000
C 	C 	0.51950 0.70430 0.79093 -0.02300
H 	H 	0.53250 0.67340 0.81810 0.07500
C 	C 	0.54840 0.82200 0.73936 -0.02200
H 	H 	0.58090 0.87010 0.73210 0.07500
O 	O 	0.69220 0.86340 0.80000 -0.34400
O 	O 	0.64150 0.77570 0.85476 -0.32900
C 	C 	0.56800 0.27680 0.28052 -0.03300
C 	C 	0.63840 0.30640 0.31385 0.28000
C 	C 	0.51950 0.20430 0.29093 -0.02400
H 	H 	0.53250 0.17340 0.31810 0.07600
C 	C 	0.54840 0.32200 0.23936 -0.02200
H 	H 	0.58090 0.37010 0.23210 0.07500
O 	O 	0.69220 0.36340 0.30000 -0.34300
O 	O 	0.64150 0.27570 0.35476 -0.32900
C 	C 	0.18200 0.47320 0.28052 -0.03300
C 	C 	0.11160 0.44360 0.31385 0.28000
C 	C 	0.23050 0.54570 0.29093 -0.02300
H 	H 	0.21750 0.57660 0.31810 0.07600
C 	C 	0.20160 0.42800 0.23936 -0.02200
H 	H 	0.16910 0.37990 0.23210 0.07500
O 	O 	0.05780 0.38660 0.30000 -0.34300
O 	O 	0.10850 0.47430 0.35476 -0.32900
C 	C 	0.18200 0.97320 0.78052 -0.03000
C 	C 	0.11160 0.94360 0.81385 0.27900
C 	C 	0.23050 0.04570 0.79093 -0.02800
H 	H 	0.21750 0.07660 0.81810 0.07700
C 	C 	0.20160 0.92800 0.73936 -0.02500
H 	H 	0.16910 0.87990 0.73210 0.07700
O 	O 	0.05780 0.88660 0.80000 -0.34200
O 	O 	0.10850 0.97430 0.85476 -0.32800
C 	C 	0.68200 0.47320 0.78052 -0.03300
C 	C 	0.61160 0.44360 0.81385 0.28000
C 	C 	0.73050 0.54570 0.79093 -0.02400
H 	H 	0.71750 0.57660 0.81810 0.07500
C 	C 	0.70160 0.42800 0.73936 -0.02200
H 	H 	0.66910 0.37990 0.73210 0.07500
O 	O 	0.55780 0.38660 0.80000 -0.34300
O 	O 	0.60850 0.47430 0.85476 -0.32900
C 	C 	0.68200 0.97320 0.28052 -0.03700
C 	C 	0.61160 0.94360 0.31385 0.28100
C 	C 	0.73050 0.04570 0.29093 -0.02000
H 	H 	0.71750 0.07660 0.31810 0.07400
C 	C 	0.70160 0.92800 0.23936 -0.01900
H 	H 	0.66910 0.87990 0.23210 0.07400
O 	O 	0.55780 0.88660 0.30000 -0.34400
O 	O 	0.60850 0.97430 0.35476 -0.33000
Cd	Cd	0.00310 0.12500 0.12500 1.24200
Cd	Cd	0.00310 0.62500 0.62500 1.24300
Cd	Cd	0.50310 0.12500 0.62500 1.24200
Cd	Cd	0.74690 0.62500 0.12500 1.24200
Cd	Cd	0.24690 0.62500 0.62500 1.24200
Cd	Cd	0.74690 0.12500 0.62500 1.24200
Cd	Cd	0.24690 0.12500 0.12500 1.24200
Cd	Cd	0.50310 0.62500 0.12500 1.24200
Cd	Cd	0.99690 0.87500 0.87500 1.24200
Cd	Cd	0.99690 0.37500 0.37500 1.24300
Cd	Cd	0.49690 0.87500 0.37500 1.24200
Cd	Cd	0.25310 0.37500 0.87500 1.24200
Cd	Cd	0.75310 0.37500 0.37500 1.24200
Cd	Cd	0.25310 0.87500 0.37500 1.24200
Cd	Cd	0.75310 0.87500 0.87500 1.24200
Cd	Cd	0.49690 0.37500 0.87500 1.24200
Cl	Cl	0.12500 0.01262 0.12500 -0.60300
Cl	Cl	0.12500 0.51262 0.62500 -0.60100
Cl	Cl	0.62500 0.01262 0.62500 -0.60200
Cl	Cl	0.62500 0.73738 0.12500 -0.60100
Cl	Cl	0.62500 0.23738 0.62500 -0.60100
Cl	Cl	0.62500 0.51262 0.12500 -0.60100
Cl	Cl	0.12500 0.73738 0.62500 -0.60100
Cl	Cl	0.12500 0.23738 0.12500 -0.60200
Cl	Cl	0.87500 0.98738 0.87500 -0.60300
Cl	Cl	0.87500 0.48738 0.37500 -0.60100
Cl	Cl	0.37500 0.98738 0.37500 -0.60200
Cl	Cl	0.37500 0.26262 0.87500 -0.60100
Cl	Cl	0.37500 0.76262 0.37500 -0.60100
Cl	Cl	0.37500 0.48738 0.87500 -0.60100
Cl	Cl	0.87500 0.26262 0.37500 -0.60100
Cl	Cl	0.87500 0.76262 0.87500 -0.60200
