data_crystal

_cell_length_a 11.08400
_cell_length_b 24.94400
_cell_length_c 23.28400
_cell_angle_alpha 90.00000
_cell_angle_beta  96.97400
_cell_angle_gamma 90.00000

_symmetry_space_group_name_	'P 1'
_symmetry_space_group_name_H-M	'P 1'

loop_
_symmetry_equiv_pos_as_xyz
  x,y,z

loop_
_atom_site_label
_atom_site_type_symbol
_atom_site_fract_x
_atom_site_fract_y
_atom_site_fract_z
_atom_site_charge
Ag	Ag	0.24532 0.87136 0.90730 0.51200
C 	C 	0.23340 0.90850 0.77910 0.05700
H 	H 	0.26770 0.93870 0.79800 -0.00800
C 	C 	0.20580 0.90990 0.71840 -0.11700
H 	H 	0.22270 0.94040 0.69780 0.07800
C 	C 	0.15290 0.86530 0.68940 0.05500
C 	C 	0.13600 0.81970 0.72180 -0.12500
H 	H 	0.10370 0.78860 0.70400 0.08000
C 	C 	0.16810 0.82160 0.78070 0.06700
H 	H 	0.15860 0.79030 0.80150 -0.01000
C 	C 	0.19680 0.05410 0.51110 0.06900
H 	H 	0.22270 0.08460 0.53180 -0.01100
C 	C 	0.17250 0.00790 0.54100 -0.12600
H 	H 	0.18050 0.00790 0.58130 0.08100
C 	C 	0.13680 0.96240 0.51080 0.06000
C 	C 	0.12500 0.96340 0.45180 -0.12000
H 	H 	0.10250 0.93260 0.43070 0.07800
C 	C 	0.14720 0.01220 0.42260 0.05800
H 	H 	0.13610 0.01360 0.38230 -0.01100
C 	C 	0.88210 0.74020 0.42690 0.04500
H 	H 	0.85900 0.74180 0.38720 -0.00600
C 	C 	0.93590 0.78380 0.45510 -0.12000
H 	H 	0.94940 0.81460 0.43420 0.07300
C 	C 	0.97000 0.78260 0.51380 0.04400
C 	C 	0.94740 0.73770 0.54310 -0.12400
H 	H 	0.96700 0.73600 0.58300 0.07400
C 	C 	0.89350 0.69350 0.51230 0.05000
H 	H 	0.87980 0.66230 0.53260 -0.01000
C 	C 	0.03130 0.82910 0.54360 0.11600
C 	C 	0.11900 0.86680 0.62780 0.10000
C 	C 	0.11120 0.91240 0.54210 0.10800
N 	N 	0.21180 0.86470 0.81090 -0.19600
N 	N 	0.18400 0.05580 0.45330 -0.19800
N 	N 	0.86190 0.69450 0.45620 -0.19800
N 	N 	0.06160 0.82380 0.60070 -0.13600
N 	N 	0.14850 0.91110 0.59890 -0.13700
N 	N 	0.05530 0.87270 0.51280 -0.14000
Ag	Ag	0.74532 0.37136 0.90730 0.50900
C 	C 	0.73340 0.40850 0.77910 0.05400
H 	H 	0.76770 0.43870 0.79800 -0.00900
C 	C 	0.70580 0.40990 0.71840 -0.11700
H 	H 	0.72270 0.44040 0.69780 0.07600
C 	C 	0.65290 0.36530 0.68940 0.05300
C 	C 	0.63600 0.31970 0.72180 -0.12500
H 	H 	0.60370 0.28860 0.70400 0.07800
C 	C 	0.66810 0.32160 0.78070 0.06400
H 	H 	0.65860 0.29030 0.80150 -0.01100
C 	C 	0.69680 0.55410 0.51110 0.06700
H 	H 	0.72270 0.58460 0.53180 -0.01200
C 	C 	0.67250 0.50790 0.54100 -0.12700
H 	H 	0.68050 0.50790 0.58130 0.07800
C 	C 	0.63680 0.46240 0.51080 0.05700
C 	C 	0.62500 0.46340 0.45180 -0.12100
H 	H 	0.60250 0.43260 0.43070 0.07600
C 	C 	0.64720 0.51220 0.42260 0.05500
H 	H 	0.63610 0.51360 0.38230 -0.01300
C 	C 	0.38210 0.24020 0.42690 0.05300
H 	H 	0.35900 0.24180 0.38720 -0.00600
C 	C 	0.43590 0.28380 0.45510 -0.13000
H 	H 	0.44940 0.31460 0.43420 0.08000
C 	C 	0.47000 0.28260 0.51380 0.06300
C 	C 	0.44740 0.23770 0.54310 -0.13400
H 	H 	0.46700 0.23600 0.58300 0.08100
C 	C 	0.39350 0.19350 0.51230 0.05700
H 	H 	0.37980 0.16230 0.53260 -0.01000
C 	C 	0.53130 0.32910 0.54360 0.10100
C 	C 	0.61900 0.36680 0.62780 0.09800
C 	C 	0.61120 0.41240 0.54210 0.10600
N 	N 	0.71180 0.36470 0.81090 -0.19700
N 	N 	0.68400 0.55580 0.45330 -0.19900
N 	N 	0.36190 0.19450 0.45620 -0.19900
N 	N 	0.56160 0.32380 0.60070 -0.13600
N 	N 	0.64850 0.41110 0.59890 -0.13700
N 	N 	0.55530 0.37270 0.51280 -0.14000
Ag	Ag	0.24532 0.12864 0.40730 0.51100
C 	C 	0.23340 0.09150 0.27910 0.05700
H 	H 	0.26770 0.06130 0.29800 -0.00800
C 	C 	0.20580 0.09010 0.21840 -0.11700
H 	H 	0.22270 0.05960 0.19780 0.07800
C 	C 	0.15290 0.13470 0.18940 0.05500
C 	C 	0.13600 0.18030 0.22180 -0.12500
H 	H 	0.10370 0.21140 0.20400 0.08000
C 	C 	0.16810 0.17840 0.28070 0.06700
H 	H 	0.15860 0.20970 0.30150 -0.01000
C 	C 	0.19680 0.94590 0.01110 0.06400
H 	H 	0.22270 0.91540 0.03180 -0.00900
C 	C 	0.17250 0.99210 0.04100 -0.12100
H 	H 	0.18050 0.99210 0.08130 0.07900
C 	C 	0.13680 0.03760 0.01080 0.05300
C 	C 	0.12500 0.03660 0.95180 -0.11300
H 	H 	0.10250 0.06740 0.93070 0.07600
C 	C 	0.14720 0.98780 0.92260 0.05400
H 	H 	0.13610 0.98640 0.88230 -0.01000
C 	C 	0.88210 0.25980 0.92690 0.04200
H 	H 	0.85900 0.25820 0.88720 -0.00500
C 	C 	0.93590 0.21620 0.95510 -0.11200
H 	H 	0.94940 0.18540 0.93420 0.07100
C 	C 	0.97000 0.21740 0.01380 0.03700
C 	C 	0.94740 0.26230 0.04310 -0.11900
H 	H 	0.96700 0.26400 0.08300 0.07200
C 	C 	0.89350 0.30650 0.01230 0.04400
H 	H 	0.87980 0.33770 0.03260 -0.00900
C 	C 	0.03130 0.17090 0.04360 0.11800
C 	C 	0.11900 0.13320 0.12780 0.10000
C 	C 	0.11120 0.08760 0.04210 0.10900
N 	N 	0.21180 0.13530 0.31090 -0.19600
N 	N 	0.18400 0.94420 0.95330 -0.19500
N 	N 	0.86190 0.30550 0.95620 -0.19500
N 	N 	0.06160 0.17620 0.10070 -0.13600
N 	N 	0.14850 0.08890 0.09890 -0.13700
N 	N 	0.05530 0.12730 0.01280 -0.14100
Ag	Ag	0.74532 0.62864 0.40730 0.50900
C 	C 	0.73340 0.59150 0.27910 0.05400
H 	H 	0.76770 0.56130 0.29800 -0.00900
C 	C 	0.70580 0.59010 0.21840 -0.11700
H 	H 	0.72270 0.55960 0.19780 0.07600
C 	C 	0.65290 0.63470 0.18940 0.05300
C 	C 	0.63600 0.68030 0.22180 -0.12500
H 	H 	0.60370 0.71140 0.20400 0.07800
C 	C 	0.66810 0.67840 0.28070 0.06400
H 	H 	0.65860 0.70970 0.30150 -0.01100
C 	C 	0.69680 0.44590 0.01110 0.06100
H 	H 	0.72270 0.41540 0.03180 -0.01100
C 	C 	0.67250 0.49210 0.04100 -0.12300
H 	H 	0.68050 0.49210 0.08130 0.07700
C 	C 	0.63680 0.53760 0.01080 0.05100
C 	C 	0.62500 0.53660 0.95180 -0.11400
H 	H 	0.60250 0.56740 0.93070 0.07400
C 	C 	0.64720 0.48780 0.92260 0.05300
H 	H 	0.63610 0.48640 0.88230 -0.01200
C 	C 	0.38210 0.75980 0.92690 0.05000
H 	H 	0.35900 0.75820 0.88720 -0.00500
C 	C 	0.43590 0.71620 0.95510 -0.12300
H 	H 	0.44940 0.68540 0.93420 0.07800
C 	C 	0.47000 0.71740 0.01380 0.05700
C 	C 	0.44740 0.76230 0.04310 -0.12900
H 	H 	0.46700 0.76400 0.08300 0.08000
C 	C 	0.39350 0.80650 0.01230 0.05200
H 	H 	0.37980 0.83770 0.03260 -0.00900
C 	C 	0.53130 0.67090 0.04360 0.10300
C 	C 	0.61900 0.63320 0.12780 0.09800
C 	C 	0.61120 0.58760 0.04210 0.10700
N 	N 	0.71180 0.63530 0.31090 -0.19700
N 	N 	0.68400 0.44420 0.95330 -0.19600
N 	N 	0.36190 0.80550 0.95620 -0.19600
N 	N 	0.56160 0.67620 0.10070 -0.13700
N 	N 	0.64850 0.58890 0.09890 -0.13800
N 	N 	0.55530 0.62730 0.01280 -0.14100
Ag	Ag	0.91618 0.86186 0.88651 0.50000
C 	C 	0.88550 0.90960 0.76030 0.07800
H 	H 	0.91950 0.93900 0.78080 -0.01700
C 	C 	0.85600 0.91530 0.70160 -0.13800
H 	H 	0.86550 0.94800 0.68350 0.08200
C 	C 	0.81160 0.87070 0.67020 0.06800
C 	C 	0.79930 0.82370 0.70060 -0.14400
H 	H 	0.76950 0.79300 0.68100 0.08400
C 	C 	0.82990 0.82210 0.75780 0.08500
H 	H 	0.82360 0.78950 0.77640 -0.01900
C 	C 	0.88490 0.06060 0.49270 0.05000
H 	H 	0.91890 0.08990 0.51350 -0.01200
C 	C 	0.85800 0.01360 0.52290 -0.12300
H 	H 	0.87260 0.01230 0.56300 0.07700
C 	C 	0.81010 0.97000 0.49220 0.05700
C 	C 	0.78870 0.97320 0.43340 -0.12900
H 	H 	0.75430 0.94440 0.41190 0.07700
C 	C 	0.81870 0.01970 0.40610 0.05400
H 	H 	0.80810 0.02060 0.36590 -0.00800
C 	C 	0.53780 0.75210 0.40510 0.06700
H 	H 	0.51120 0.75470 0.36570 -0.01400
C 	C 	0.59550 0.79560 0.43290 -0.13800
H 	H 	0.60750 0.82650 0.41200 0.08000
C 	C 	0.63470 0.79370 0.49010 0.06400
C 	C 	0.61440 0.74570 0.51890 -0.13400
H 	H 	0.63920 0.74200 0.55830 0.08300
C 	C 	0.55620 0.70380 0.48700 0.07400
H 	H 	0.54360 0.67200 0.50620 -0.02000
C 	C 	0.69690 0.83830 0.52290 0.10200
C 	C 	0.78190 0.87440 0.60730 0.09600
C 	C 	0.78100 0.92100 0.52290 0.10200
N 	N 	0.86920 0.86480 0.79030 -0.20100
N 	N 	0.86280 0.06380 0.43510 -0.20200
N 	N 	0.51890 0.70650 0.43240 -0.21200
N 	N 	0.72180 0.83320 0.57920 -0.13700
N 	N 	0.81400 0.91930 0.58030 -0.13700
N 	N 	0.72510 0.88150 0.49180 -0.14000
Ag	Ag	0.41618 0.36186 0.88651 0.50400
C 	C 	0.38550 0.40960 0.76030 0.07900
H 	H 	0.41950 0.43900 0.78080 -0.01500
C 	C 	0.35600 0.41530 0.70160 -0.13700
H 	H 	0.36550 0.44800 0.68350 0.08300
C 	C 	0.31160 0.37070 0.67020 0.07000
C 	C 	0.29930 0.32370 0.70060 -0.14300
H 	H 	0.26950 0.29300 0.68100 0.08600
C 	C 	0.32990 0.32210 0.75780 0.08600
H 	H 	0.32360 0.28950 0.77640 -0.01600
C 	C 	0.38490 0.56060 0.49270 0.05200
H 	H 	0.41890 0.58990 0.51350 -0.00900
C 	C 	0.35800 0.51360 0.52290 -0.12200
H 	H 	0.37260 0.51230 0.56300 0.07800
C 	C 	0.31010 0.47000 0.49220 0.05800
C 	C 	0.28870 0.47320 0.43340 -0.12800
H 	H 	0.25430 0.44440 0.41190 0.07800
C 	C 	0.31870 0.51970 0.40610 0.05600
H 	H 	0.30810 0.52060 0.36590 -0.00800
C 	C 	0.03780 0.25210 0.40510 0.06800
H 	H 	0.01120 0.25470 0.36570 -0.01200
C 	C 	0.09550 0.29560 0.43290 -0.13700
H 	H 	0.10750 0.32650 0.41200 0.08100
C 	C 	0.13470 0.29370 0.49010 0.06500
C 	C 	0.11440 0.24570 0.51890 -0.13300
H 	H 	0.13920 0.24200 0.55830 0.08500
C 	C 	0.05620 0.20380 0.48700 0.07500
H 	H 	0.04360 0.17200 0.50620 -0.01700
C 	C 	0.19690 0.33830 0.52290 0.10400
C 	C 	0.28190 0.37440 0.60730 0.09900
C 	C 	0.28100 0.42100 0.52290 0.10300
N 	N 	0.36920 0.36480 0.79030 -0.20000
N 	N 	0.36280 0.56380 0.43510 -0.20100
N 	N 	0.01890 0.20650 0.43240 -0.20900
N 	N 	0.22180 0.33320 0.57920 -0.13600
N 	N 	0.31400 0.41930 0.58030 -0.13600
N 	N 	0.22510 0.38150 0.49180 -0.13900
Ag	Ag	0.91618 0.13814 0.38651 0.49900
C 	C 	0.88550 0.09040 0.26030 0.07800
H 	H 	0.91950 0.06100 0.28080 -0.01700
C 	C 	0.85600 0.08470 0.20160 -0.13800
H 	H 	0.86550 0.05200 0.18350 0.08200
C 	C 	0.81160 0.12930 0.17020 0.06800
C 	C 	0.79930 0.17630 0.20060 -0.14400
H 	H 	0.76950 0.20700 0.18100 0.08400
C 	C 	0.82990 0.17790 0.25780 0.08500
H 	H 	0.82360 0.21050 0.27640 -0.01900
C 	C 	0.88490 0.93940 0.99270 0.06300
H 	H 	0.91890 0.91010 0.01350 -0.01800
C 	C 	0.85800 0.98640 0.02290 -0.13800
H 	H 	0.87260 0.98770 0.06300 0.08200
C 	C 	0.81010 0.03000 0.99220 0.06900
C 	C 	0.78870 0.02680 0.93340 -0.13700
H 	H 	0.75430 0.05560 0.91190 0.08000
C 	C 	0.81870 0.98030 0.90610 0.05900
H 	H 	0.80810 0.97940 0.86590 -0.01000
C 	C 	0.53780 0.24790 0.90510 0.07200
H 	H 	0.51120 0.24530 0.86570 -0.01600
C 	C 	0.59550 0.20440 0.93290 -0.14700
H 	H 	0.60750 0.17350 0.91200 0.08300
C 	C 	0.63470 0.20630 0.99010 0.07800
C 	C 	0.61440 0.25430 0.01890 -0.15100
H 	H 	0.63920 0.25800 0.05830 0.08900
C 	C 	0.55620 0.29620 0.98700 0.08900
H 	H 	0.54360 0.32800 0.00620 -0.02700
C 	C 	0.69690 0.16170 0.02290 0.09400
C 	C 	0.78190 0.12560 0.10730 0.09600
C 	C 	0.78100 0.07900 0.02290 0.09400
N 	N 	0.86920 0.13520 0.29030 -0.20100
N 	N 	0.86280 0.93620 0.93510 -0.20500
N 	N 	0.51890 0.29350 0.93240 -0.21600
N 	N 	0.72180 0.16680 0.07920 -0.13600
N 	N 	0.81400 0.08070 0.08030 -0.13600
N 	N 	0.72510 0.11850 0.99180 -0.13600
Ag	Ag	0.41618 0.63814 0.38651 0.50400
C 	C 	0.38550 0.59040 0.26030 0.07900
H 	H 	0.41950 0.56100 0.28080 -0.01500
C 	C 	0.35600 0.58470 0.20160 -0.13700
H 	H 	0.36550 0.55200 0.18350 0.08300
C 	C 	0.31160 0.62930 0.17020 0.07000
C 	C 	0.29930 0.67630 0.20060 -0.14300
H 	H 	0.26950 0.70700 0.18100 0.08600
C 	C 	0.32990 0.67790 0.25780 0.08600
H 	H 	0.32360 0.71050 0.27640 -0.01600
C 	C 	0.38490 0.43940 0.99270 0.06500
H 	H 	0.41890 0.41010 0.01350 -0.01500
C 	C 	0.35800 0.48640 0.02290 -0.13800
H 	H 	0.37260 0.48770 0.06300 0.08400
C 	C 	0.31010 0.53000 0.99220 0.07100
C 	C 	0.28870 0.52680 0.93340 -0.13600
H 	H 	0.25430 0.55560 0.91190 0.08100
C 	C 	0.31870 0.48030 0.90610 0.06100
H 	H 	0.30810 0.47940 0.86590 -0.00900
C 	C 	0.03780 0.74790 0.90510 0.07300
H 	H 	0.01120 0.74530 0.86570 -0.01300
C 	C 	0.09550 0.70440 0.93290 -0.14500
H 	H 	0.10750 0.67350 0.91200 0.08400
C 	C 	0.13470 0.70630 0.99010 0.07700
C 	C 	0.11440 0.75430 0.01890 -0.14700
H 	H 	0.13920 0.75800 0.05830 0.08900
C 	C 	0.05620 0.79620 0.98700 0.08800
H 	H 	0.04360 0.82800 0.00620 -0.02300
C 	C 	0.19690 0.66170 0.02290 0.09700
C 	C 	0.28190 0.62560 0.10730 0.09800
C 	C 	0.28100 0.57900 0.02290 0.09600
N 	N 	0.36920 0.63520 0.29030 -0.20000
N 	N 	0.36280 0.43620 0.93510 -0.20400
N 	N 	0.01890 0.79350 0.93240 -0.21300
N 	N 	0.22180 0.66680 0.07920 -0.13500
N 	N 	0.31400 0.58070 0.08030 -0.13500
N 	N 	0.22510 0.61850 0.99180 -0.13600
Ag	Ag	0.61941 0.86325 0.94374 0.51500
C 	C 	0.53580 0.82440 0.81660 0.07200
H 	H 	0.53360 0.79210 0.83650 -0.01700
C 	C 	0.51080 0.82330 0.75810 -0.13500
H 	H 	0.49310 0.79110 0.73870 0.07900
C 	C 	0.51240 0.87180 0.72730 0.05900
C 	C 	0.54180 0.91740 0.75730 -0.12700
H 	H 	0.54390 0.95000 0.73820 0.07800
C 	C 	0.56870 0.91460 0.81740 0.05300
H 	H 	0.59160 0.94580 0.83780 -0.00800
C 	C 	0.59450 0.05860 0.55040 0.09300
H 	H 	0.63740 0.08580 0.57100 -0.01700
C 	C 	0.56870 0.01210 0.57940 -0.15800
H 	H 	0.59000 0.00910 0.61910 0.08900
C 	C 	0.51270 0.97170 0.54910 0.08400
C 	C 	0.47860 0.97580 0.49110 -0.14600
H 	H 	0.44140 0.94770 0.46960 0.08900
C 	C 	0.50270 0.02500 0.46580 0.07600
H 	H 	0.47710 0.02980 0.42660 -0.02200
C 	C 	0.24060 0.74960 0.46050 0.06200
H 	H 	0.21340 0.75170 0.42120 -0.01400
C 	C 	0.30200 0.79450 0.48830 -0.11300
H 	H 	0.32000 0.82430 0.46680 0.07700
C 	C 	0.33510 0.79330 0.54900 0.05200
C 	C 	0.31050 0.74650 0.57740 -0.12600
H 	H 	0.33240 0.74290 0.61700 0.08000
C 	C 	0.25160 0.70480 0.54490 0.07500
H 	H 	0.23260 0.67430 0.56490 -0.01100
C 	C 	0.39720 0.83820 0.57950 0.10700
C 	C 	0.48530 0.87320 0.66390 0.10000
C 	C 	0.48310 0.91920 0.58030 0.10100
N 	N 	0.56280 0.86810 0.84700 -0.20400
N 	N 	0.56070 0.06540 0.49520 -0.20100
N 	N 	0.22100 0.70500 0.48860 -0.20000
N 	N 	0.42530 0.83230 0.63610 -0.14000
N 	N 	0.51880 0.91710 0.63670 -0.14000
N 	N 	0.42250 0.88140 0.54860 -0.13800
Ag	Ag	0.11941 0.36325 0.94374 0.51700
C 	C 	0.03580 0.32440 0.81660 0.06200
H 	H 	0.03360 0.29210 0.83650 -0.01000
C 	C 	0.01080 0.32330 0.75810 -0.11200
H 	H 	0.99310 0.29110 0.73870 0.06400
C 	C 	0.01240 0.37180 0.72730 0.06500
C 	C 	0.04180 0.41740 0.75730 -0.12900
H 	H 	0.04390 0.45000 0.73820 0.08000
C 	C 	0.06870 0.41460 0.81740 0.05600
H 	H 	0.09160 0.44580 0.83780 -0.00600
C 	C 	0.09450 0.55860 0.55040 0.11800
H 	H 	0.13740 0.58580 0.57100 -0.02400
C 	C 	0.06870 0.51210 0.57940 -0.19700
H 	H 	0.09000 0.50910 0.61910 0.10500
C 	C 	0.01270 0.47170 0.54910 0.14200
C 	C 	0.97860 0.47580 0.49110 -0.22200
H 	H 	0.94140 0.44770 0.46960 0.11300
C 	C 	0.00270 0.52500 0.46580 0.14000
H 	H 	0.97710 0.52980 0.42660 -0.05200
C 	C 	0.74060 0.24960 0.46050 0.06000
H 	H 	0.71340 0.25170 0.42120 -0.01500
C 	C 	0.80200 0.29450 0.48830 -0.11400
H 	H 	0.82000 0.32430 0.46680 0.07500
C 	C 	0.83510 0.29330 0.54900 0.05100
C 	C 	0.81050 0.24650 0.57740 -0.12700
H 	H 	0.83240 0.24290 0.61700 0.07800
C 	C 	0.75160 0.20480 0.54490 0.07300
H 	H 	0.73260 0.17430 0.56490 -0.01200
C 	C 	0.89720 0.33820 0.57950 0.10400
C 	C 	0.98530 0.37320 0.66390 0.08200
C 	C 	0.98310 0.41920 0.58030 0.07000
N 	N 	0.06280 0.36810 0.84700 -0.20100
N 	N 	0.06070 0.56540 0.49520 -0.21500
N 	N 	0.72100 0.20500 0.48860 -0.20100
N 	N 	0.92530 0.33230 0.63610 -0.13800
N 	N 	0.01880 0.41710 0.63670 -0.12500
N 	N 	0.92250 0.38140 0.54860 -0.13400
Ag	Ag	0.61941 0.13675 0.44374 0.51400
C 	C 	0.53580 0.17560 0.31660 0.07200
H 	H 	0.53360 0.20790 0.33650 -0.01700
C 	C 	0.51080 0.17670 0.25810 -0.13500
H 	H 	0.49310 0.20890 0.23870 0.07900
C 	C 	0.51240 0.12820 0.22730 0.05900
C 	C 	0.54180 0.08260 0.25730 -0.12700
H 	H 	0.54390 0.05000 0.23820 0.07800
C 	C 	0.56870 0.08540 0.31740 0.05300
H 	H 	0.59160 0.05420 0.33780 -0.00800
C 	C 	0.59450 0.94140 0.05040 0.08700
H 	H 	0.63740 0.91420 0.07100 -0.01600
C 	C 	0.56870 0.98790 0.07940 -0.15200
H 	H 	0.59000 0.99090 0.11910 0.08700
C 	C 	0.51270 0.02830 0.04910 0.07600
C 	C 	0.47860 0.02420 0.99110 -0.13800
H 	H 	0.44140 0.05230 0.96960 0.08700
C 	C 	0.50270 0.97500 0.96580 0.07300
H 	H 	0.47710 0.97020 0.92660 -0.02000
C 	C 	0.24060 0.25040 0.96050 0.06000
H 	H 	0.21340 0.24830 0.92120 -0.01300
C 	C 	0.30200 0.20550 0.98830 -0.10700
H 	H 	0.32000 0.17570 0.96680 0.07600
C 	C 	0.33510 0.20670 0.04900 0.04700
C 	C 	0.31050 0.25350 0.07740 -0.12300
H 	H 	0.33240 0.25710 0.11700 0.07800
C 	C 	0.25160 0.29520 0.04490 0.07000
H 	H 	0.23260 0.32570 0.06490 -0.01000
C 	C 	0.39720 0.16180 0.07950 0.10800
C 	C 	0.48530 0.12680 0.16390 0.10000
C 	C 	0.48310 0.08080 0.08030 0.10200
N 	N 	0.56280 0.13190 0.34700 -0.20400
N 	N 	0.56070 0.93460 0.99520 -0.19800
N 	N 	0.22100 0.29500 0.98860 -0.19800
N 	N 	0.42530 0.16770 0.13610 -0.14000
N 	N 	0.51880 0.08290 0.13670 -0.14000
N 	N 	0.42250 0.11860 0.04860 -0.14000
Ag	Ag	0.11941 0.63675 0.44374 0.51700
C 	C 	0.03580 0.67560 0.31660 0.06200
H 	H 	0.03360 0.70790 0.33650 -0.01000
C 	C 	0.01080 0.67670 0.25810 -0.11200
H 	H 	0.99310 0.70890 0.23870 0.06400
C 	C 	0.01240 0.62820 0.22730 0.06600
C 	C 	0.04180 0.58260 0.25730 -0.12900
H 	H 	0.04390 0.55000 0.23820 0.08000
C 	C 	0.06870 0.58540 0.31740 0.05600
H 	H 	0.09160 0.55420 0.33780 -0.00600
C 	C 	0.09450 0.44140 0.05040 0.11200
H 	H 	0.13740 0.41420 0.07100 -0.02300
C 	C 	0.06870 0.48790 0.07940 -0.19200
H 	H 	0.09000 0.49090 0.11910 0.10300
C 	C 	0.01270 0.52830 0.04910 0.13500
C 	C 	0.97860 0.52420 0.99110 -0.21500
H 	H 	0.94140 0.55230 0.96960 0.11100
C 	C 	0.00270 0.47500 0.96580 0.13700
H 	H 	0.97710 0.47020 0.92660 -0.05100
C 	C 	0.74060 0.75040 0.96050 0.05800
H 	H 	0.71340 0.74830 0.92120 -0.01400
C 	C 	0.80200 0.70550 0.98830 -0.10900
H 	H 	0.82000 0.67570 0.96680 0.07400
C 	C 	0.83510 0.70670 0.04900 0.04700
C 	C 	0.81050 0.75350 0.07740 -0.12400
H 	H 	0.83240 0.75710 0.11700 0.07700
C 	C 	0.75160 0.79520 0.04490 0.06800
H 	H 	0.73260 0.82570 0.06490 -0.01100
C 	C 	0.89720 0.66180 0.07950 0.10500
C 	C 	0.98530 0.62680 0.16390 0.08200
C 	C 	0.98310 0.58080 0.08030 0.07100
N 	N 	0.06280 0.63190 0.34700 -0.20100
N 	N 	0.06070 0.43460 0.99520 -0.21200
N 	N 	0.72100 0.79500 0.98860 -0.19900
N 	N 	0.92530 0.66770 0.13610 -0.13800
N 	N 	0.01880 0.58290 0.13670 -0.12500
N 	N 	0.92250 0.61860 0.04860 -0.13600
