data_crystal

_cell_length_a 10.20640
_cell_length_b 11.24870
_cell_length_c 22.19130
_cell_angle_alpha 90.00000
_cell_angle_beta  97.20100
_cell_angle_gamma 90.00000

_symmetry_space_group_name_	'P 1'
_symmetry_space_group_name_H-M	'P 1'

loop_
_symmetry_equiv_pos_as_xyz
  x,y,z

loop_
_atom_site_label
_atom_site_type_symbol
_atom_site_fract_x
_atom_site_fract_y
_atom_site_fract_z
_atom_site_charge
Eu	Eu	0.61084 0.81362 0.72508 1.97400
Eu	Eu	0.74111 0.91030 0.43562 1.75000
Eu	Eu	0.88916 0.31362 0.77492 1.97500
Eu	Eu	0.75889 0.41030 0.06438 1.75200
Eu	Eu	0.38916 0.18638 0.27492 1.97500
Eu	Eu	0.25889 0.08970 0.56438 1.75100
Eu	Eu	0.11084 0.68638 0.22508 1.97600
Eu	Eu	0.24111 0.58970 0.93562 1.75300
H 	H 	0.13100 0.90500 0.66400 0.09400
H 	H 	0.24860 0.60790 0.57470 0.25400
H 	H 	0.40230 0.62290 0.58750 0.24600
H 	H 	0.31030 0.73470 0.58630 0.25100
H 	H 	0.11990 0.85680 0.77190 0.26000
H 	H 	0.00880 0.76940 0.78700 0.25500
H 	H 	0.99000 0.90700 0.79320 0.26200
H 	H 	0.36900 0.40500 0.83600 0.09400
H 	H 	0.25140 0.10790 0.92530 0.25300
H 	H 	0.09770 0.12290 0.91250 0.24500
H 	H 	0.18970 0.23470 0.91370 0.25000
H 	H 	0.38010 0.35680 0.72810 0.26600
H 	H 	0.49120 0.26940 0.71300 0.26100
H 	H 	0.51000 0.40700 0.70680 0.27100
H 	H 	0.86900 0.09500 0.33600 0.09400
H 	H 	0.75140 0.39210 0.42530 0.25400
H 	H 	0.59770 0.37710 0.41250 0.24600
H 	H 	0.68970 0.26530 0.41370 0.25100
H 	H 	0.88010 0.14320 0.22810 0.26000
H 	H 	0.99120 0.23060 0.21300 0.25500
H 	H 	0.01000 0.09300 0.20680 0.26200
H 	H 	0.63100 0.59500 0.16400 0.09400
H 	H 	0.74860 0.89210 0.07470 0.25300
H 	H 	0.90230 0.87710 0.08750 0.24500
H 	H 	0.81030 0.76530 0.08630 0.25000
H 	H 	0.61990 0.64320 0.27190 0.26600
H 	H 	0.50880 0.73060 0.28700 0.26100
H 	H 	0.49000 0.59300 0.29320 0.27100
C 	C 	0.31260 0.63810 0.66380 0.29700
C 	C 	0.24130 0.57360 0.74860 -0.06200
C 	C 	0.34810 0.64730 0.76140 -0.07400
C 	C 	0.31910 0.65220 0.59710 -0.77900
C 	C 	0.15900 0.49700 0.78370 0.41100
C 	C 	0.42070 0.68760 0.82010 0.41800
C 	C 	0.96420 0.85120 0.70590 0.32300
C 	C 	0.95100 0.87010 0.60570 -0.04800
C 	C 	0.82720 0.85060 0.62300 -0.07000
C 	C 	0.02620 0.84560 0.77020 -0.80500
C 	C 	0.00770 0.88510 0.54780 0.43100
C 	C 	0.69430 0.84580 0.58680 0.43200
C 	C 	0.76300 0.04560 0.78510 0.24500
C 	C 	0.70390 0.09170 0.72190 0.25600
C 	C 	0.18740 0.13810 0.83620 0.29600
C 	C 	0.25870 0.07360 0.75140 -0.06300
C 	C 	0.15190 0.14730 0.73860 -0.07300
C 	C 	0.18090 0.15220 0.90290 -0.77700
C 	C 	0.34100 0.99700 0.71630 0.41200
C 	C 	0.07930 0.18760 0.67990 0.41600
C 	C 	0.53580 0.35120 0.79410 0.33400
C 	C 	0.54900 0.37010 0.89430 -0.04200
C 	C 	0.67280 0.35060 0.87700 -0.07200
C 	C 	0.47380 0.34560 0.72980 -0.83100
C 	C 	0.49230 0.38510 0.95220 0.42400
C 	C 	0.80570 0.34580 0.91320 0.43300
C 	C 	0.73700 0.54560 0.71490 0.24300
C 	C 	0.79610 0.59170 0.77810 0.25700
C 	C 	0.68740 0.36190 0.33620 0.29700
C 	C 	0.75870 0.42640 0.25140 -0.06200
C 	C 	0.65190 0.35270 0.23860 -0.07400
C 	C 	0.68090 0.34780 0.40290 -0.77900
C 	C 	0.84100 0.50300 0.21630 0.41100
C 	C 	0.57930 0.31240 0.17990 0.41800
C 	C 	0.03580 0.14880 0.29410 0.32300
C 	C 	0.04900 0.12990 0.39430 -0.04800
C 	C 	0.17280 0.14940 0.37700 -0.07000
C 	C 	0.97380 0.15440 0.22980 -0.80500
C 	C 	0.99230 0.11490 0.45220 0.43100
C 	C 	0.30570 0.15420 0.41320 0.43200
C 	C 	0.23700 0.95440 0.21490 0.24500
C 	C 	0.29610 0.90830 0.27810 0.25600
C 	C 	0.81260 0.86190 0.16380 0.29600
C 	C 	0.74130 0.92640 0.24860 -0.06300
C 	C 	0.84810 0.85270 0.26140 -0.07300
C 	C 	0.81910 0.84780 0.09710 -0.77700
C 	C 	0.65900 0.00300 0.28370 0.41200
C 	C 	0.92070 0.81240 0.32010 0.41600
C 	C 	0.46420 0.64880 0.20590 0.33400
C 	C 	0.45100 0.62990 0.10570 -0.04200
C 	C 	0.32720 0.64940 0.12300 -0.07200
C 	C 	0.52620 0.65440 0.27020 -0.83100
C 	C 	0.50770 0.61490 0.04780 0.42400
C 	C 	0.19430 0.65420 0.08680 0.43300
C 	C 	0.26300 0.45440 0.28510 0.24300
C 	C 	0.20390 0.40830 0.22190 0.25700
N 	N 	0.21874 0.57000 0.68554 -0.15000
N 	N 	0.39278 0.68640 0.70868 -0.24500
N 	N 	0.03565 0.87030 0.65915 -0.19500
N 	N 	0.83766 0.83970 0.68546 -0.24900
N 	N 	0.28126 0.07000 0.81446 -0.15000
N 	N 	0.10722 0.18640 0.79132 -0.24500
N 	N 	0.46435 0.37030 0.84085 -0.20000
N 	N 	0.66234 0.33970 0.81454 -0.25100
N 	N 	0.78126 0.43000 0.31446 -0.15000
N 	N 	0.60722 0.31360 0.29132 -0.24500
N 	N 	0.96435 0.12970 0.34085 -0.19500
N 	N 	0.16234 0.16030 0.31454 -0.24900
N 	N 	0.71874 0.93000 0.18554 -0.15000
N 	N 	0.89278 0.81360 0.20868 -0.24500
N 	N 	0.53565 0.62970 0.15915 -0.20000
N 	N 	0.33766 0.66030 0.18546 -0.25100
O 	O 	0.07020 0.44010 0.75140 -0.45000
O 	O 	0.18539 0.48900 0.83989 -0.50700
O 	O 	0.37807 0.66440 0.86897 -0.49100
O 	O 	0.52466 0.74630 0.81716 -0.42900
O 	O 	0.12887 0.91450 0.55427 -0.47200
O 	O 	0.94183 0.86380 0.49823 -0.46800
O 	O 	0.68023 0.86800 0.53143 -0.54400
O 	O 	0.59749 0.82290 0.61569 -0.48900
O 	O 	0.84127 0.11390 0.81647 -0.40600
O 	O 	0.72932 0.94380 0.80032 -0.40100
O 	O 	0.73028 0.19630 0.70878 -0.41300
O 	O 	0.63331 0.02120 0.68861 -0.41400
O 	O 	0.42980 0.94010 0.74860 -0.45000
O 	O 	0.31461 0.98900 0.66011 -0.50600
O 	O 	0.12193 0.16440 0.63103 -0.49100
O 	O 	0.97534 0.24630 0.68284 -0.42800
O 	O 	0.37113 0.41450 0.94573 -0.47100
O 	O 	0.55817 0.36380 0.00177 -0.46500
O 	O 	0.81977 0.36800 0.96857 -0.54400
O 	O 	0.90251 0.32290 0.88431 -0.48900
O 	O 	0.65873 0.61390 0.68353 -0.40700
O 	O 	0.77068 0.44380 0.69968 -0.40000
O 	O 	0.76972 0.69630 0.79122 -0.41300
O 	O 	0.86669 0.52120 0.81139 -0.41400
O 	O 	0.92980 0.55990 0.24860 -0.45000
O 	O 	0.81461 0.51100 0.16011 -0.50700
O 	O 	0.62193 0.33560 0.13103 -0.49100
O 	O 	0.47534 0.25370 0.18284 -0.42900
O 	O 	0.87113 0.08550 0.44573 -0.47200
O 	O 	0.05817 0.13620 0.50177 -0.46800
O 	O 	0.31977 0.13200 0.46857 -0.54400
O 	O 	0.40251 0.17710 0.38431 -0.48900
O 	O 	0.15873 0.88610 0.18353 -0.40600
O 	O 	0.27068 0.05620 0.19968 -0.40100
O 	O 	0.26972 0.80370 0.29122 -0.41300
O 	O 	0.36669 0.97880 0.31139 -0.41400
O 	O 	0.57020 0.05990 0.25140 -0.45000
O 	O 	0.68539 0.01100 0.33989 -0.50600
O 	O 	0.87807 0.83560 0.36897 -0.49100
O 	O 	0.02466 0.75370 0.31716 -0.42800
O 	O 	0.62887 0.58550 0.05427 -0.47100
O 	O 	0.44183 0.63620 0.99823 -0.46500
O 	O 	0.18023 0.63200 0.03143 -0.54400
O 	O 	0.09749 0.67710 0.11569 -0.48900
O 	O 	0.34127 0.38610 0.31647 -0.40700
O 	O 	0.22932 0.55620 0.30032 -0.40000
O 	O 	0.23028 0.30370 0.20878 -0.41300
O 	O 	0.13331 0.47880 0.18861 -0.41400
