data_crystal

_cell_length_a 10.27500
_cell_length_b 11.28760
_cell_length_c 22.22720
_cell_angle_alpha 90.00000
_cell_angle_beta  97.32100
_cell_angle_gamma 90.00000

_symmetry_space_group_name_	'P 1'
_symmetry_space_group_name_H-M	'P 1'

loop_
_symmetry_equiv_pos_as_xyz
  x,y,z

loop_
_atom_site_label
_atom_site_type_symbol
_atom_site_fract_x
_atom_site_fract_y
_atom_site_fract_z
_atom_site_charge
Sm	Sm	0.39027 0.81314 0.77403 2.06800
Sm	Sm	0.76069 0.58681 0.56417 1.81200
Sm	Sm	0.10973 0.31314 0.72597 2.06800
Sm	Sm	0.73931 0.08681 0.93583 1.80400
Sm	Sm	0.60973 0.18686 0.22597 2.06700
Sm	Sm	0.23931 0.41319 0.43583 1.81100
Sm	Sm	0.89027 0.68686 0.27403 2.06700
Sm	Sm	0.26069 0.91319 0.06417 1.80300
H 	H 	0.84360 0.53110 0.83600 0.12300
H 	H 	0.88120 0.88040 0.83700 0.13000
H 	H 	0.60230 0.62090 0.91310 0.24000
H 	H 	0.75560 0.61220 0.92540 0.24400
H 	H 	0.68800 0.73580 0.91320 0.24300
H 	H 	0.00660 0.77690 0.71010 0.25300
H 	H 	0.88100 0.83970 0.72800 0.25400
H 	H 	0.99630 0.91550 0.70820 0.26300
H 	H 	0.65640 0.03110 0.66400 0.12300
H 	H 	0.61880 0.38040 0.66300 0.13100
H 	H 	0.89770 0.12090 0.58690 0.23900
H 	H 	0.74440 0.11220 0.57460 0.24300
H 	H 	0.81200 0.23580 0.58680 0.24200
H 	H 	0.49340 0.27690 0.78990 0.26000
H 	H 	0.61900 0.33970 0.77200 0.25900
H 	H 	0.50370 0.41550 0.79180 0.26800
H 	H 	0.15640 0.46890 0.16400 0.12300
H 	H 	0.11880 0.11960 0.16300 0.13000
H 	H 	0.39770 0.37910 0.08690 0.24000
H 	H 	0.24440 0.38780 0.07460 0.24400
H 	H 	0.31200 0.26420 0.08680 0.24300
H 	H 	0.99340 0.22310 0.28990 0.25300
H 	H 	0.11900 0.16030 0.27200 0.25400
H 	H 	0.00370 0.08450 0.29180 0.26300
H 	H 	0.34360 0.96890 0.33600 0.12300
H 	H 	0.38120 0.61960 0.33700 0.13100
H 	H 	0.10230 0.87910 0.41310 0.23900
H 	H 	0.25560 0.88780 0.42540 0.24300
H 	H 	0.18800 0.76420 0.41320 0.24200
H 	H 	0.50660 0.72310 0.21010 0.26000
H 	H 	0.38100 0.66030 0.22800 0.25900
H 	H 	0.49630 0.58450 0.20820 0.26800
C 	C 	0.84230 0.49530 0.71720 0.40700
C 	C 	0.75970 0.57340 0.75200 -0.04100
C 	C 	0.65260 0.64730 0.73810 -0.08700
C 	C 	0.58090 0.68760 0.68000 0.41800
C 	C 	0.68900 0.63850 0.83640 0.30100
C 	C 	0.68320 0.65320 0.90300 -0.77800
C 	C 	0.30580 0.84910 0.91220 0.43200
C 	C 	0.17330 0.85220 0.87620 -0.07400
C 	C 	0.05080 0.87050 0.89320 -0.04300
C 	C 	0.99440 0.88430 0.95140 0.44200
C 	C 	0.03600 0.85110 0.79320 0.32900
C 	C 	0.97460 0.84530 0.72920 -0.81300
C 	C 	0.23560 0.04580 0.71440 0.25200
C 	C 	0.29550 0.09130 0.77800 0.25700
C 	C 	0.65770 0.99530 0.78280 0.41000
C 	C 	0.74030 0.07340 0.74800 -0.04400
C 	C 	0.84740 0.14730 0.76190 -0.08700
C 	C 	0.91910 0.18760 0.82000 0.41600
C 	C 	0.81100 0.13850 0.66360 0.30000
C 	C 	0.81680 0.15320 0.59700 -0.77500
C 	C 	0.19420 0.34910 0.58780 0.43400
C 	C 	0.32670 0.35220 0.62380 -0.07600
C 	C 	0.44920 0.37050 0.60680 -0.03700
C 	C 	0.50560 0.38430 0.54860 0.43300
C 	C 	0.46400 0.35110 0.70680 0.33800
C 	C 	0.52540 0.34530 0.77080 -0.83400
C 	C 	0.26440 0.54580 0.78560 0.25200
C 	C 	0.20450 0.59130 0.72200 0.25600
C 	C 	0.15770 0.50470 0.28280 0.40700
C 	C 	0.24030 0.42660 0.24800 -0.04100
C 	C 	0.34740 0.35270 0.26190 -0.08700
C 	C 	0.41910 0.31240 0.32000 0.41800
C 	C 	0.31100 0.36150 0.16360 0.30100
C 	C 	0.31680 0.34680 0.09700 -0.77800
C 	C 	0.69420 0.15090 0.08780 0.43200
C 	C 	0.82670 0.14780 0.12380 -0.07400
C 	C 	0.94920 0.12950 0.10680 -0.04300
C 	C 	0.00560 0.11570 0.04860 0.44200
C 	C 	0.96400 0.14890 0.20680 0.32900
C 	C 	0.02540 0.15470 0.27080 -0.81300
C 	C 	0.76440 0.95420 0.28560 0.25200
C 	C 	0.70450 0.90870 0.22200 0.25700
C 	C 	0.34230 0.00470 0.21720 0.41000
C 	C 	0.25970 0.92660 0.25200 -0.04400
C 	C 	0.15260 0.85270 0.23810 -0.08700
C 	C 	0.08090 0.81240 0.18000 0.41600
C 	C 	0.18900 0.86150 0.33640 0.30000
C 	C 	0.18320 0.84680 0.40300 -0.77500
C 	C 	0.80580 0.65090 0.41220 0.43400
C 	C 	0.67330 0.64780 0.37620 -0.07600
C 	C 	0.55080 0.62950 0.39320 -0.03700
C 	C 	0.49440 0.61570 0.45140 0.43300
C 	C 	0.53600 0.64890 0.29320 0.33800
C 	C 	0.47460 0.65470 0.22920 -0.83400
C 	C 	0.73560 0.45420 0.21440 0.25200
C 	C 	0.79550 0.40870 0.27800 0.25600
N 	N 	0.78070 0.57060 0.81410 -0.23400
N 	N 	0.60950 0.68670 0.79095 -0.24900
N 	N 	0.16300 0.83970 0.81431 -0.25200
N 	N 	0.96660 0.87000 0.84010 -0.23700
N 	N 	0.71930 0.07060 0.68590 -0.23400
N 	N 	0.89050 0.18670 0.70905 -0.24900
N 	N 	0.33700 0.33970 0.68569 -0.25300
N 	N 	0.53340 0.37000 0.65990 -0.24200
N 	N 	0.21930 0.42940 0.18590 -0.23400
N 	N 	0.39050 0.31330 0.20905 -0.24900
N 	N 	0.83700 0.16030 0.18569 -0.25200
N 	N 	0.03340 0.13000 0.15990 -0.23700
N 	N 	0.28070 0.92940 0.31410 -0.23400
N 	N 	0.10950 0.81330 0.29095 -0.24900
N 	N 	0.66300 0.66030 0.31431 -0.25300
N 	N 	0.46660 0.63000 0.34010 -0.24200
O 	O 	0.92950 0.43970 0.74901 -0.47800
O 	O 	0.81560 0.48610 0.66042 -0.51400
O 	O 	0.62480 0.66450 0.63059 -0.49800
O 	O 	0.47660 0.74350 0.68179 -0.44500
O 	O 	0.40220 0.82250 0.88394 -0.50100
O 	O 	0.32030 0.87480 0.96706 -0.55300
O 	O 	0.06070 0.86280 0.00051 -0.48200
O 	O 	0.87550 0.91410 0.94559 -0.48600
O 	O 	0.27020 0.94460 0.69893 -0.41500
O 	O 	0.15680 0.11320 0.68420 -0.42300
O 	O 	0.36740 0.02060 0.81087 -0.42700
O 	O 	0.26840 0.19510 0.79130 -0.43100
O 	O 	0.57050 0.93970 0.75099 -0.47900
O 	O 	0.68440 0.98610 0.83958 -0.51200
O 	O 	0.87520 0.16450 0.86941 -0.49800
O 	O 	0.02340 0.24350 0.81821 -0.44500
O 	O 	0.09780 0.32250 0.61606 -0.50100
O 	O 	0.17970 0.37480 0.53294 -0.55500
O 	O 	0.43930 0.36280 0.49949 -0.47700
O 	O 	0.62450 0.41410 0.55441 -0.48700
O 	O 	0.22980 0.44460 0.80107 -0.41500
O 	O 	0.34320 0.61320 0.81580 -0.42400
O 	O 	0.13260 0.52060 0.68913 -0.42600
O 	O 	0.23160 0.69510 0.70870 -0.43100
O 	O 	0.07050 0.56030 0.25099 -0.47800
O 	O 	0.18440 0.51390 0.33958 -0.51400
O 	O 	0.37520 0.33550 0.36941 -0.49800
O 	O 	0.52340 0.25650 0.31821 -0.44500
O 	O 	0.59780 0.17750 0.11606 -0.50100
O 	O 	0.67970 0.12520 0.03294 -0.55300
O 	O 	0.93930 0.13720 0.99949 -0.48200
O 	O 	0.12450 0.08590 0.05441 -0.48600
O 	O 	0.72980 0.05540 0.30107 -0.41500
O 	O 	0.84320 0.88680 0.31580 -0.42300
O 	O 	0.63260 0.97940 0.18913 -0.42700
O 	O 	0.73160 0.80490 0.20870 -0.43100
O 	O 	0.42950 0.06030 0.24901 -0.47900
O 	O 	0.31560 0.01390 0.16042 -0.51200
O 	O 	0.12480 0.83550 0.13059 -0.49800
O 	O 	0.97660 0.75650 0.18179 -0.44500
O 	O 	0.90220 0.67750 0.38394 -0.50100
O 	O 	0.82030 0.62520 0.46706 -0.55500
O 	O 	0.56070 0.63720 0.50051 -0.47700
O 	O 	0.37550 0.58590 0.44559 -0.48700
O 	O 	0.77020 0.55540 0.19893 -0.41500
O 	O 	0.65680 0.38680 0.18420 -0.42400
O 	O 	0.86740 0.47940 0.31087 -0.42600
O 	O 	0.76840 0.30490 0.29130 -0.43100
