data_crystal

_cell_length_a 10.28150
_cell_length_b 11.29280
_cell_length_c 22.24800
_cell_angle_alpha 90.00000
_cell_angle_beta  97.46200
_cell_angle_gamma 90.00000

_symmetry_space_group_name_	'P 1'
_symmetry_space_group_name_H-M	'P 1'

loop_
_symmetry_equiv_pos_as_xyz
  x,y,z

loop_
_atom_site_label
_atom_site_type_symbol
_atom_site_fract_x
_atom_site_fract_y
_atom_site_fract_z
_atom_site_charge
Sm	Sm	0.60982 0.31369 0.22582 2.06300
Sm	Sm	0.73958 0.41173 0.93571 1.81300
Sm	Sm	0.89018 0.81369 0.27418 2.05500
Sm	Sm	0.76042 0.91173 0.56429 1.80700
Sm	Sm	0.39018 0.68631 0.77418 2.06200
Sm	Sm	0.26042 0.58827 0.06429 1.81200
Sm	Sm	0.10982 0.18631 0.72582 2.05400
Sm	Sm	0.23958 0.08827 0.43571 1.80600
H 	H 	0.15720 0.03270 0.16390 0.12900
H 	H 	0.11820 0.38090 0.16360 0.13700
H 	H 	0.24700 0.10800 0.07480 0.24400
H 	H 	0.39950 0.12390 0.08810 0.24200
H 	H 	0.30720 0.23470 0.08640 0.24500
H 	H 	0.11890 0.35760 0.27290 0.26200
H 	H 	0.00950 0.26960 0.28770 0.25800
H 	H 	0.98980 0.40640 0.29430 0.27100
H 	H 	0.34280 0.53270 0.33610 0.13100
H 	H 	0.38180 0.88090 0.33640 0.13700
H 	H 	0.25300 0.60800 0.42520 0.24600
H 	H 	0.10050 0.62390 0.41190 0.24400
H 	H 	0.19280 0.73470 0.41360 0.24700
H 	H 	0.38110 0.85760 0.22710 0.26200
H 	H 	0.49050 0.76960 0.21230 0.25800
H 	H 	0.51020 0.90640 0.20570 0.26900
H 	H 	0.84280 0.96730 0.83610 0.12900
H 	H 	0.88180 0.61910 0.83640 0.13700
H 	H 	0.75300 0.89200 0.92520 0.24400
H 	H 	0.60050 0.87610 0.91190 0.24200
H 	H 	0.69280 0.76530 0.91360 0.24500
H 	H 	0.88110 0.64240 0.72710 0.26200
H 	H 	0.99050 0.73040 0.71230 0.25800
H 	H 	0.01020 0.59360 0.70570 0.27100
H 	H 	0.65720 0.46730 0.66390 0.13100
H 	H 	0.61820 0.11910 0.66360 0.13700
H 	H 	0.74700 0.39200 0.57480 0.24600
H 	H 	0.89950 0.37610 0.58810 0.24400
H 	H 	0.80720 0.26530 0.58640 0.24700
H 	H 	0.61890 0.14240 0.77290 0.26200
H 	H 	0.50950 0.23040 0.78770 0.25800
H 	H 	0.48980 0.09360 0.79430 0.26900
C 	C 	0.30950 0.13880 0.16370 0.30800
C 	C 	0.23990 0.07480 0.24870 -0.05000
C 	C 	0.34650 0.14870 0.26190 -0.08500
C 	C 	0.31640 0.15260 0.09730 -0.78500
C 	C 	0.15840 0.99730 0.28310 0.40700
C 	C 	0.41900 0.18890 0.32040 0.42800
C 	C 	0.96400 0.35200 0.20720 0.34000
C 	C 	0.94970 0.37070 0.10670 -0.03400
C 	C 	0.82730 0.35190 0.12390 -0.07800
C 	C 	0.02600 0.34580 0.27120 -0.83800
C 	C 	0.00710 0.38550 0.04920 0.42000
C 	C 	0.69430 0.34870 0.08820 0.43000
C 	C 	0.73500 0.04590 0.21450 0.25400
C 	C 	0.79590 0.09170 0.27820 0.25400
C 	C 	0.19050 0.63880 0.33630 0.31000
C 	C 	0.26010 0.57480 0.25130 -0.04600
C 	C 	0.15350 0.64870 0.23810 -0.08700
C 	C 	0.18360 0.65260 0.40270 -0.78900
C 	C 	0.34160 0.49730 0.21690 0.40400
C 	C 	0.08100 0.68890 0.17960 0.43400
C 	C 	0.53600 0.85200 0.29280 0.33700
C 	C 	0.55030 0.87070 0.39330 -0.03600
C 	C 	0.67270 0.85190 0.37610 -0.07800
C 	C 	0.47400 0.84580 0.22880 -0.83400
C 	C 	0.49290 0.88550 0.45080 0.42200
C 	C 	0.80570 0.84870 0.41180 0.42900
C 	C 	0.76500 0.54590 0.28550 0.25000
C 	C 	0.70410 0.59170 0.22180 0.25500
C 	C 	0.69050 0.86120 0.83630 0.30800
C 	C 	0.76010 0.92520 0.75130 -0.05000
C 	C 	0.65350 0.85130 0.73810 -0.08500
C 	C 	0.68360 0.84740 0.90270 -0.78500
C 	C 	0.84160 0.00270 0.71690 0.40700
C 	C 	0.58100 0.81110 0.67960 0.42800
C 	C 	0.03600 0.64800 0.79280 0.34000
C 	C 	0.05030 0.62930 0.89330 -0.03400
C 	C 	0.17270 0.64810 0.87610 -0.07800
C 	C 	0.97400 0.65420 0.72880 -0.83800
C 	C 	0.99290 0.61450 0.95080 0.42000
C 	C 	0.30570 0.65130 0.91180 0.43000
C 	C 	0.26500 0.95410 0.78550 0.25400
C 	C 	0.20410 0.90830 0.72180 0.25400
C 	C 	0.80950 0.36120 0.66370 0.31000
C 	C 	0.73990 0.42520 0.74870 -0.04600
C 	C 	0.84650 0.35130 0.76190 -0.08700
C 	C 	0.81640 0.34740 0.59730 -0.78900
C 	C 	0.65840 0.50270 0.78310 0.40400
C 	C 	0.91900 0.31110 0.82040 0.43400
C 	C 	0.46400 0.14800 0.70720 0.33700
C 	C 	0.44970 0.12930 0.60670 -0.03600
C 	C 	0.32730 0.14810 0.62390 -0.07800
C 	C 	0.52600 0.15420 0.77120 -0.83400
C 	C 	0.50710 0.11450 0.54920 0.42200
C 	C 	0.19430 0.15130 0.58820 0.42900
C 	C 	0.23500 0.45410 0.71450 0.25000
C 	C 	0.29590 0.40830 0.77820 0.25500
N 	N 	0.21855 0.07150 0.18545 -0.24300
N 	N 	0.39048 0.18760 0.20888 -0.24900
N 	N 	0.03469 0.37070 0.16039 -0.24900
N 	N 	0.83661 0.34040 0.18651 -0.25400
N 	N 	0.28145 0.57150 0.31455 -0.24400
N 	N 	0.10952 0.68760 0.29112 -0.24800
N 	N 	0.46531 0.87070 0.33961 -0.24700
N 	N 	0.66339 0.84040 0.31349 -0.25400
N 	N 	0.78145 0.92850 0.81455 -0.24300
N 	N 	0.60952 0.81240 0.79112 -0.24900
N 	N 	0.96531 0.62930 0.83961 -0.24900
N 	N 	0.16339 0.65960 0.81349 -0.25400
N 	N 	0.71855 0.42850 0.68545 -0.24400
N 	N 	0.89048 0.31240 0.70888 -0.24800
N 	N 	0.53469 0.12930 0.66039 -0.24700
N 	N 	0.33661 0.15960 0.68651 -0.25400
O 	O 	0.07034 0.94070 0.25064 -0.46800
O 	O 	0.18459 0.98880 0.33939 -0.51500
O 	O 	0.37453 0.16710 0.36893 -0.50400
O 	O 	0.52346 0.24390 0.31806 -0.44800
O 	O 	0.12536 0.41560 0.05476 -0.48700
O 	O 	0.93960 0.36270 0.99930 -0.46700
O 	O 	0.68006 0.37320 0.03256 -0.55100
O 	O 	0.59818 0.32340 0.11608 -0.50300
O 	O 	0.76954 0.94480 0.19904 -0.41800
O 	O 	0.65620 0.11340 0.18410 -0.42300
O 	O 	0.86736 0.02140 0.31086 -0.42300
O 	O 	0.76893 0.19620 0.29163 -0.42500
O 	O 	0.42966 0.44070 0.24936 -0.47100
O 	O 	0.31541 0.48880 0.16061 -0.51700
O 	O 	0.12547 0.66710 0.13107 -0.50500
O 	O 	0.97654 0.74390 0.18194 -0.45200
O 	O 	0.37464 0.91560 0.44524 -0.48500
O 	O 	0.56040 0.86270 0.50070 -0.46800
O 	O 	0.81994 0.87320 0.46744 -0.55100
O 	O 	0.90182 0.82340 0.38392 -0.50300
O 	O 	0.73046 0.44480 0.30096 -0.41500
O 	O 	0.84380 0.61340 0.31590 -0.42200
O 	O 	0.63264 0.52140 0.18914 -0.42600
O 	O 	0.73107 0.69620 0.20837 -0.42500
O 	O 	0.92966 0.05930 0.74936 -0.46800
O 	O 	0.81541 0.01120 0.66061 -0.51500
O 	O 	0.62547 0.83290 0.63107 -0.50400
O 	O 	0.47654 0.75610 0.68194 -0.44800
O 	O 	0.87464 0.58440 0.94524 -0.48700
O 	O 	0.06040 0.63730 0.00070 -0.46700
O 	O 	0.31994 0.62680 0.96744 -0.55100
O 	O 	0.40182 0.67660 0.88392 -0.50300
O 	O 	0.23046 0.05520 0.80096 -0.41800
O 	O 	0.34380 0.88660 0.81590 -0.42300
O 	O 	0.13264 0.97860 0.68914 -0.42300
O 	O 	0.23107 0.80380 0.70837 -0.42500
O 	O 	0.57034 0.55930 0.75064 -0.47100
O 	O 	0.68459 0.51120 0.83939 -0.51700
O 	O 	0.87453 0.33290 0.86893 -0.50500
O 	O 	0.02346 0.25610 0.81806 -0.45200
O 	O 	0.62536 0.08440 0.55476 -0.48500
O 	O 	0.43960 0.13730 0.49930 -0.46800
O 	O 	0.18006 0.12680 0.53256 -0.55100
O 	O 	0.09818 0.17660 0.61608 -0.50300
O 	O 	0.26954 0.55520 0.69904 -0.41500
O 	O 	0.15620 0.38660 0.68410 -0.42200
O 	O 	0.36736 0.47860 0.81086 -0.42600
O 	O 	0.26893 0.30380 0.79163 -0.42500
