data_crystal

_cell_length_a 9.42300
_cell_length_b 18.22000
_cell_length_c 19.28000
_cell_angle_alpha 90.00000
_cell_angle_beta  90.00000
_cell_angle_gamma 101.34000

_symmetry_space_group_name_	'P 1'
_symmetry_space_group_name_H-M	'P 1'

loop_
_symmetry_equiv_pos_as_xyz
  x,y,z

loop_
_atom_site_label
_atom_site_type_symbol
_atom_site_fract_x
_atom_site_fract_y
_atom_site_fract_z
_atom_site_charge
Cd	Cd	0.08148 0.92373 0.99290 1.14400
Cd	Cd	0.51271 0.02715 0.75684 1.17500
Cd	Cd	0.41852 0.57627 0.49290 1.14700
Cd	Cd	0.98729 0.47285 0.25684 1.17300
Cd	Cd	0.91852 0.07627 0.00710 1.14400
Cd	Cd	0.48729 0.97285 0.24316 1.17500
Cd	Cd	0.58148 0.42373 0.50710 1.14800
Cd	Cd	0.01271 0.52715 0.74316 1.17400
H 	H 	0.36180 0.20700 0.26720 0.17300
H 	H 	0.43860 0.14330 0.26040 0.16100
H 	H 	0.13830 0.78430 0.61010 0.05500
H 	H 	0.21330 0.67020 0.80920 -0.05800
H 	H 	0.34530 0.14340 0.71930 0.09400
H 	H 	0.28310 0.21250 0.71610 0.15400
H 	H 	0.34630 0.93770 0.09890 -0.07500
H 	H 	0.32290 0.78970 0.79570 0.06300
H 	H 	0.02530 0.19060 0.12480 -0.05600
H 	H 	0.31090 0.94810 0.87580 -0.06600
H 	H 	0.01090 0.20800 0.90180 -0.05700
H 	H 	0.03510 0.66130 0.63200 -0.01800
H 	H 	0.13820 0.29300 0.76720 0.17300
H 	H 	0.06140 0.35670 0.76040 0.16000
H 	H 	0.36170 0.71570 0.11010 0.05600
H 	H 	0.28670 0.82980 0.30920 -0.05700
H 	H 	0.15470 0.35660 0.21930 0.09500
H 	H 	0.21690 0.28750 0.21610 0.15400
H 	H 	0.15370 0.56230 0.59890 -0.07600
H 	H 	0.17710 0.71030 0.29570 0.06400
H 	H 	0.47470 0.30940 0.62480 -0.05800
H 	H 	0.18910 0.55190 0.37580 -0.06800
H 	H 	0.48910 0.29200 0.40180 -0.05700
H 	H 	0.46490 0.83870 0.13200 -0.01800
H 	H 	0.63820 0.79300 0.73280 0.17300
H 	H 	0.56140 0.85670 0.73960 0.16100
H 	H 	0.86170 0.21570 0.38990 0.05500
H 	H 	0.78670 0.32980 0.19080 -0.05800
H 	H 	0.65470 0.85660 0.28070 0.09400
H 	H 	0.71690 0.78750 0.28390 0.15400
H 	H 	0.65370 0.06230 0.90110 -0.07500
H 	H 	0.67710 0.21030 0.20430 0.06300
H 	H 	0.97470 0.80940 0.87520 -0.05600
H 	H 	0.68910 0.05190 0.12420 -0.06600
H 	H 	0.98910 0.79200 0.09820 -0.05700
H 	H 	0.96490 0.33870 0.36800 -0.01800
H 	H 	0.86180 0.70700 0.23280 0.17300
H 	H 	0.93860 0.64330 0.23960 0.16000
H 	H 	0.63830 0.28430 0.88990 0.05600
H 	H 	0.71330 0.17020 0.69080 -0.05700
H 	H 	0.84530 0.64340 0.78070 0.09500
H 	H 	0.78310 0.71250 0.78390 0.15400
H 	H 	0.84630 0.43770 0.40110 -0.07600
H 	H 	0.82290 0.28970 0.70430 0.06400
H 	H 	0.52530 0.69060 0.37520 -0.05800
H 	H 	0.81090 0.44810 0.62420 -0.06800
H 	H 	0.51090 0.70800 0.59820 -0.05700
H 	H 	0.53510 0.16130 0.86800 -0.01800
C 	C 	0.30230 0.88260 0.69260 0.32800
C 	C 	0.15200 0.76260 0.65260 -0.09100
C 	C 	0.23010 0.80290 0.70370 -0.03100
C 	C 	0.19700 0.69340 0.76790 0.08700
C 	C 	0.18760 0.06090 0.10560 0.14000
C 	C 	0.24370 0.09350 0.83300 -0.06000
C 	C 	0.31090 0.98020 0.11090 0.09000
C 	C 	0.26040 0.76580 0.76170 -0.11600
C 	C 	0.16180 0.07410 0.89280 0.11700
C 	C 	0.28970 0.14060 0.19720 0.18500
C 	C 	0.28530 0.07730 0.15930 -0.09300
C 	C 	0.09530 0.16170 0.13130 0.10800
C 	C 	0.22850 0.15490 0.79970 0.14100
C 	C 	0.27790 0.99280 0.87190 0.08400
C 	C 	0.07000 0.17690 0.88500 0.11300
C 	C 	0.09400 0.68840 0.66580 0.04600
C 	C 	0.19770 0.61740 0.19260 0.32800
C 	C 	0.34800 0.73740 0.15260 -0.09100
C 	C 	0.26990 0.69710 0.20370 -0.03000
C 	C 	0.30300 0.80660 0.26790 0.08700
C 	C 	0.31240 0.43910 0.60560 0.13900
C 	C 	0.25630 0.40650 0.33300 -0.06000
C 	C 	0.18910 0.51980 0.61090 0.09100
C 	C 	0.23960 0.73420 0.26170 -0.11600
C 	C 	0.33820 0.42590 0.39280 0.11700
C 	C 	0.21030 0.35940 0.69720 0.18400
C 	C 	0.21470 0.42270 0.65930 -0.09400
C 	C 	0.40470 0.33830 0.63130 0.10800
C 	C 	0.27150 0.34510 0.29970 0.14200
C 	C 	0.22210 0.50720 0.37190 0.09200
C 	C 	0.43000 0.32310 0.38500 0.11300
C 	C 	0.40600 0.81160 0.16580 0.04600
C 	C 	0.69770 0.11740 0.30740 0.32800
C 	C 	0.84800 0.23740 0.34740 -0.09100
C 	C 	0.76990 0.19710 0.29630 -0.03100
C 	C 	0.80300 0.30660 0.23210 0.08700
C 	C 	0.81240 0.93910 0.89440 0.14000
C 	C 	0.75630 0.90650 0.16700 -0.06000
C 	C 	0.68910 0.01980 0.88910 0.09000
C 	C 	0.73960 0.23420 0.23830 -0.11600
C 	C 	0.83820 0.92590 0.10720 0.11700
C 	C 	0.71030 0.85940 0.80280 0.18500
C 	C 	0.71470 0.92270 0.84070 -0.09300
C 	C 	0.90470 0.83830 0.86870 0.10800
C 	C 	0.77150 0.84510 0.20030 0.14100
C 	C 	0.72210 0.00720 0.12810 0.08400
C 	C 	0.93000 0.82310 0.11500 0.11300
C 	C 	0.90600 0.31160 0.33420 0.04600
C 	C 	0.80230 0.38260 0.80740 0.32800
C 	C 	0.65200 0.26260 0.84740 -0.09100
C 	C 	0.73010 0.30290 0.79630 -0.03000
C 	C 	0.69700 0.19340 0.73210 0.08700
C 	C 	0.68760 0.56090 0.39440 0.13900
C 	C 	0.74370 0.59350 0.66700 -0.06000
C 	C 	0.81090 0.48020 0.38910 0.09100
C 	C 	0.76040 0.26580 0.73830 -0.11600
C 	C 	0.66180 0.57410 0.60720 0.11700
C 	C 	0.78970 0.64060 0.30280 0.18400
C 	C 	0.78530 0.57730 0.34070 -0.09400
C 	C 	0.59530 0.66170 0.36870 0.10800
C 	C 	0.72850 0.65490 0.70030 0.14200
C 	C 	0.77790 0.49280 0.62810 0.09200
C 	C 	0.57000 0.67690 0.61500 0.11300
C 	C 	0.59400 0.18840 0.83420 0.04600
N 	N 	0.37220 0.16640 0.24690 -0.35200
N 	N 	0.18410 0.01040 0.91640 -0.30400
N 	N 	0.32390 0.04080 0.82130 -0.24000
N 	N 	0.11660 0.65330 0.72440 -0.26400
N 	N 	0.20140 0.00050 0.07540 -0.30600
N 	N 	0.09210 0.10450 0.09050 -0.29900
N 	N 	0.14770 0.19950 0.82730 -0.17100
N 	N 	0.19310 0.18200 0.18240 -0.17800
N 	N 	0.29360 0.17240 0.73740 -0.30300
N 	N 	0.36330 0.02120 0.16100 -0.24200
N 	N 	0.07120 0.11650 0.91860 -0.30100
N 	N 	0.12780 0.33360 0.74690 -0.35200
N 	N 	0.31590 0.48960 0.41640 -0.30700
N 	N 	0.17610 0.45920 0.32130 -0.24200
N 	N 	0.38340 0.84670 0.22440 -0.26300
N 	N 	0.29860 0.49950 0.57540 -0.30800
N 	N 	0.40790 0.39550 0.59050 -0.30000
N 	N 	0.35230 0.30050 0.32730 -0.17100
N 	N 	0.30690 0.31800 0.68240 -0.17800
N 	N 	0.20640 0.32760 0.23740 -0.30400
N 	N 	0.13670 0.47880 0.66100 -0.24300
N 	N 	0.42880 0.38350 0.41860 -0.30100
N 	N 	0.62780 0.83360 0.75310 -0.35200
N 	N 	0.81590 0.98960 0.08360 -0.30400
N 	N 	0.67610 0.95920 0.17870 -0.24000
N 	N 	0.88340 0.34670 0.27560 -0.26400
N 	N 	0.79860 0.99950 0.92460 -0.30600
N 	N 	0.90790 0.89550 0.90950 -0.29900
N 	N 	0.85230 0.80050 0.17270 -0.17100
N 	N 	0.80690 0.81800 0.81760 -0.17800
N 	N 	0.70640 0.82760 0.26260 -0.30300
N 	N 	0.63670 0.97880 0.83900 -0.24200
N 	N 	0.92880 0.88350 0.08140 -0.30100
N 	N 	0.87220 0.66640 0.25310 -0.35200
N 	N 	0.68410 0.51040 0.58360 -0.30700
N 	N 	0.82390 0.54080 0.67870 -0.24200
N 	N 	0.61660 0.15330 0.77560 -0.26300
N 	N 	0.70140 0.50050 0.42460 -0.30800
N 	N 	0.59210 0.60450 0.40950 -0.30000
N 	N 	0.64770 0.69950 0.67270 -0.17100
N 	N 	0.69310 0.68200 0.31760 -0.17800
N 	N 	0.79360 0.67240 0.76260 -0.30400
N 	N 	0.86330 0.52120 0.33900 -0.24300
N 	N 	0.57120 0.61650 0.58140 -0.30100
O 	O 	0.40140 0.90950 0.73340 -0.46000
O 	O 	0.25800 0.91730 0.64470 -0.31800
O 	O 	0.09860 0.59050 0.23340 -0.45900
O 	O 	0.24200 0.58270 0.14470 -0.31600
O 	O 	0.59860 0.09050 0.26660 -0.46000
O 	O 	0.74200 0.08270 0.35530 -0.31800
O 	O 	0.90140 0.40950 0.76660 -0.45900
O 	O 	0.75800 0.41730 0.85530 -0.31600
