data_crystal

_cell_length_a 22.73450
_cell_length_b 22.73450
_cell_length_c 25.13540
_cell_angle_alpha 63.11240
_cell_angle_beta  63.11240
_cell_angle_gamma 60.00000

_symmetry_space_group_name_	'P 1'
_symmetry_space_group_name_H-M	'P 1'

loop_
_symmetry_equiv_pos_as_xyz
  x,y,z

loop_
_atom_site_label
_atom_site_type_symbol
_atom_site_fract_x
_atom_site_fract_y
_atom_site_fract_z
_atom_site_charge
Zn	Zn	0.18028 0.02726 0.73714 1.20600
Zn	Zn	0.02726 0.05532 0.73714 1.20500
Zn	Zn	0.05532 0.18028 0.73714 1.20700
Zn	Zn	0.68028 0.55532 0.23714 1.20800
Zn	Zn	0.52726 0.68028 0.23714 1.20700
Zn	Zn	0.55532 0.52726 0.23714 1.20700
Zn	Zn	0.04853 0.04853 0.85441 1.20500
Zn	Zn	0.54853 0.54853 0.35441 1.20800
H 	H 	0.32310 0.87860 0.84970 0.11100
H 	H 	0.14140 0.88240 0.98770 0.12800
H 	H 	0.43730 0.75280 0.94180 0.22400
H 	H 	0.43150 0.83210 0.91300 0.21300
H 	H 	0.43520 0.79360 0.87250 0.21300
H 	H 	0.14040 0.83630 0.09510 0.24900
H 	H 	0.21170 0.79670 0.11250 0.25200
H 	H 	0.18510 0.75630 0.09690 0.24500
H 	H 	0.39610 0.79460 0.12540 0.12600
H 	H 	0.42460 0.60520 0.12570 0.11400
H 	H 	0.34500 0.90020 0.00390 0.24300
H 	H 	0.27130 0.90060 0.05280 0.25800
H 	H 	0.32810 0.90160 0.07110 0.24200
H 	H 	0.39540 0.63250 0.00960 0.21200
H 	H 	0.35260 0.60330 0.07830 0.21100
H 	H 	0.31330 0.67260 0.03330 0.21800
H 	H 	0.87860 0.94860 0.84970 0.10400
H 	H 	0.88240 0.98850 0.98770 0.11800
H 	H 	0.75280 0.86810 0.94180 0.22000
H 	H 	0.83210 0.82340 0.91300 0.20800
H 	H 	0.79360 0.89870 0.87250 0.20800
H 	H 	0.83630 0.92820 0.09510 0.23700
H 	H 	0.79670 0.87910 0.11250 0.24200
H 	H 	0.75630 0.96170 0.09690 0.23400
H 	H 	0.79460 0.68390 0.12540 0.12600
H 	H 	0.60520 0.84450 0.12570 0.11400
H 	H 	0.90020 0.75090 0.00390 0.23900
H 	H 	0.90060 0.77530 0.05280 0.25500
H 	H 	0.90160 0.69920 0.07110 0.24000
H 	H 	0.63250 0.96250 0.00960 0.21100
H 	H 	0.60330 0.96580 0.07830 0.21100
H 	H 	0.67260 0.98080 0.03330 0.21700
H 	H 	0.94860 0.32310 0.84970 0.11300
H 	H 	0.98850 0.14140 0.98770 0.13100
H 	H 	0.86810 0.43730 0.94180 0.22500
H 	H 	0.82340 0.43150 0.91300 0.21300
H 	H 	0.89870 0.43520 0.87250 0.21400
H 	H 	0.92820 0.14040 0.09510 0.24900
H 	H 	0.87910 0.21170 0.11250 0.25200
H 	H 	0.96170 0.18510 0.09690 0.24600
H 	H 	0.68390 0.39610 0.12540 0.12500
H 	H 	0.84450 0.42460 0.12570 0.11400
H 	H 	0.75090 0.34500 0.00390 0.24100
H 	H 	0.77530 0.27130 0.05280 0.25600
H 	H 	0.69920 0.32810 0.07110 0.24000
H 	H 	0.96250 0.39540 0.00960 0.21200
H 	H 	0.96580 0.35260 0.07830 0.21200
H 	H 	0.98080 0.31330 0.03330 0.21900
H 	H 	0.82310 0.44860 0.34970 0.11000
H 	H 	0.64140 0.48850 0.48770 0.12700
H 	H 	0.93730 0.36810 0.44180 0.22400
H 	H 	0.93150 0.32340 0.41300 0.21300
H 	H 	0.93520 0.39870 0.37250 0.21300
H 	H 	0.64040 0.42820 0.59510 0.24800
H 	H 	0.71170 0.37910 0.61250 0.25100
H 	H 	0.68510 0.46170 0.59690 0.24400
H 	H 	0.89610 0.18390 0.62540 0.12600
H 	H 	0.92460 0.34450 0.62570 0.11400
H 	H 	0.84500 0.25090 0.50390 0.24200
H 	H 	0.77130 0.27530 0.55280 0.25700
H 	H 	0.82810 0.19920 0.57110 0.24200
H 	H 	0.89540 0.46250 0.50960 0.21200
H 	H 	0.85260 0.46580 0.57830 0.21200
H 	H 	0.81330 0.48080 0.53330 0.21800
H 	H 	0.37860 0.82310 0.34970 0.11100
H 	H 	0.38240 0.64140 0.48770 0.12700
H 	H 	0.25280 0.93730 0.44180 0.22500
H 	H 	0.33210 0.93150 0.41300 0.21300
H 	H 	0.29360 0.93520 0.37250 0.21400
H 	H 	0.33630 0.64040 0.59510 0.24800
H 	H 	0.29670 0.71170 0.61250 0.25100
H 	H 	0.25630 0.68510 0.59690 0.24400
H 	H 	0.29460 0.89610 0.62540 0.12600
H 	H 	0.10520 0.92460 0.62570 0.11500
H 	H 	0.40020 0.84500 0.50390 0.24200
H 	H 	0.40060 0.77130 0.55280 0.25700
H 	H 	0.40160 0.82810 0.57110 0.24100
H 	H 	0.13250 0.89540 0.50960 0.21400
H 	H 	0.10330 0.85260 0.57830 0.21300
H 	H 	0.17260 0.81330 0.53330 0.21900
H 	H 	0.44860 0.37860 0.34970 0.11000
H 	H 	0.48850 0.38240 0.48770 0.12700
H 	H 	0.36810 0.25280 0.44180 0.22300
H 	H 	0.32340 0.33210 0.41300 0.21200
H 	H 	0.39870 0.29360 0.37250 0.21200
H 	H 	0.42820 0.33630 0.59510 0.24800
H 	H 	0.37910 0.29670 0.61250 0.25100
H 	H 	0.46170 0.25630 0.59690 0.24400
H 	H 	0.18390 0.29460 0.62540 0.12500
H 	H 	0.34450 0.10520 0.62570 0.11300
H 	H 	0.25090 0.40020 0.50390 0.24100
H 	H 	0.27530 0.40060 0.55280 0.25600
H 	H 	0.19920 0.40160 0.57110 0.24000
H 	H 	0.46250 0.13250 0.50960 0.21200
H 	H 	0.46580 0.10330 0.57830 0.21100
H 	H 	0.48080 0.17260 0.53330 0.21800
C 	C 	0.18454 0.94074 0.86698 0.30500
C 	C 	0.22545 0.88905 0.91255 0.05900
C 	C 	0.29920 0.86580 0.89200 -0.24800
C 	C 	0.33665 0.82295 0.93595 0.25100
C 	C 	0.30220 0.80280 0.99820 -0.16700
C 	C 	0.22768 0.82388 0.01896 0.27600
C 	C 	0.19058 0.86748 0.97486 -0.26200
C 	C 	0.41776 0.79796 0.91372 -0.69900
C 	C 	0.18760 0.80120 0.08700 -0.77100
C 	C 	0.45570 0.65770 0.18120 0.26700
C 	C 	0.41449 0.69569 0.13383 0.08700
C 	C 	0.38841 0.76831 0.11127 -0.28600
C 	C 	0.35136 0.80286 0.06882 0.29600
C 	C 	0.34177 0.76477 0.04599 -0.17700
C 	C 	0.36969 0.69029 0.06633 0.24600
C 	C 	0.40633 0.65453 0.11121 -0.25000
C 	C 	0.32121 0.88381 0.04707 -0.78400
C 	C 	0.35657 0.64547 0.04479 -0.69600
C 	C 	0.94074 0.00774 0.86698 0.31400
C 	C 	0.88905 0.97295 0.91255 0.03900
C 	C 	0.86580 0.94300 0.89200 -0.23300
C 	C 	0.82295 0.90445 0.93595 0.23500
C 	C 	0.80280 0.89680 0.99820 -0.14600
C 	C 	0.82388 0.92948 0.01896 0.24800
C 	C 	0.86748 0.96708 0.97486 -0.23800
C 	C 	0.79796 0.87056 0.91372 -0.68200
C 	C 	0.80120 0.92420 0.08700 -0.73800
C 	C 	0.65770 0.70540 0.18120 0.26700
C 	C 	0.69569 0.75599 0.13383 0.08800
C 	C 	0.76831 0.73201 0.11127 -0.28800
C 	C 	0.80286 0.77696 0.06882 0.29800
C 	C 	0.76477 0.84747 0.04599 -0.18600
C 	C 	0.69029 0.87369 0.06633 0.24900
C 	C 	0.65453 0.82793 0.11121 -0.25300
C 	C 	0.88381 0.74791 0.04707 -0.78000
C 	C 	0.64547 0.95317 0.04479 -0.69800
C 	C 	0.00774 0.18454 0.86698 0.29700
C 	C 	0.97295 0.22545 0.91255 0.06800
C 	C 	0.94300 0.29920 0.89200 -0.25300
C 	C 	0.90445 0.33665 0.93595 0.25400
C 	C 	0.89680 0.30220 0.99820 -0.16800
C 	C 	0.92948 0.22768 0.01896 0.27700
C 	C 	0.96708 0.19058 0.97486 -0.26600
C 	C 	0.87056 0.41776 0.91372 -0.70200
C 	C 	0.92420 0.18760 0.08700 -0.77300
C 	C 	0.70540 0.45570 0.18120 0.26700
C 	C 	0.75599 0.41449 0.13383 0.08600
C 	C 	0.73201 0.38841 0.11127 -0.28500
C 	C 	0.77696 0.35136 0.06882 0.29400
C 	C 	0.84747 0.34177 0.04599 -0.17700
C 	C 	0.87369 0.36969 0.06633 0.24600
C 	C 	0.82793 0.40633 0.11121 -0.25000
C 	C 	0.74791 0.32121 0.04707 -0.78000
C 	C 	0.95317 0.35657 0.04479 -0.69800
C 	C 	0.68454 0.50774 0.36698 0.30500
C 	C 	0.72545 0.47295 0.41255 0.05800
C 	C 	0.79920 0.44300 0.39200 -0.24800
C 	C 	0.83665 0.40445 0.43595 0.25100
C 	C 	0.80220 0.39680 0.49820 -0.16700
C 	C 	0.72768 0.42948 0.51896 0.27600
C 	C 	0.69058 0.46708 0.47486 -0.26300
C 	C 	0.91776 0.37056 0.41372 -0.69900
C 	C 	0.68760 0.42420 0.58700 -0.76900
C 	C 	0.95570 0.20540 0.68120 0.26700
C 	C 	0.91449 0.25599 0.63383 0.08800
C 	C 	0.88841 0.23201 0.61127 -0.28600
C 	C 	0.85136 0.27696 0.56882 0.29600
C 	C 	0.84177 0.34747 0.54599 -0.17700
C 	C 	0.86969 0.37369 0.56633 0.24600
C 	C 	0.90633 0.32793 0.61121 -0.25100
C 	C 	0.82121 0.24791 0.54707 -0.78200
C 	C 	0.85657 0.45317 0.54479 -0.69700
C 	C 	0.44074 0.68454 0.36698 0.30500
C 	C 	0.38905 0.72545 0.41255 0.05800
C 	C 	0.36580 0.79920 0.39200 -0.24900
C 	C 	0.32295 0.83665 0.43595 0.25100
C 	C 	0.30280 0.80220 0.49820 -0.16800
C 	C 	0.32388 0.72768 0.51896 0.27600
C 	C 	0.36748 0.69058 0.47486 -0.26300
C 	C 	0.29796 0.91776 0.41372 -0.70000
C 	C 	0.30120 0.68760 0.58700 -0.76900
C 	C 	0.15770 0.95570 0.68120 0.26700
C 	C 	0.19569 0.91449 0.63383 0.08800
C 	C 	0.26831 0.88841 0.61127 -0.28600
C 	C 	0.30286 0.85136 0.56882 0.29600
C 	C 	0.26477 0.84177 0.54599 -0.17700
C 	C 	0.19029 0.86969 0.56633 0.24700
C 	C 	0.15453 0.90633 0.61121 -0.25100
C 	C 	0.38381 0.82121 0.54707 -0.78200
C 	C 	0.14547 0.85657 0.54479 -0.70000
C 	C 	0.50774 0.44074 0.36698 0.30500
C 	C 	0.47295 0.38905 0.41255 0.05800
C 	C 	0.44300 0.36580 0.39200 -0.24800
C 	C 	0.40445 0.32295 0.43595 0.25000
C 	C 	0.39680 0.30280 0.49820 -0.16700
C 	C 	0.42948 0.32388 0.51896 0.27600
C 	C 	0.46708 0.36748 0.47486 -0.26200
C 	C 	0.37056 0.29796 0.41372 -0.69700
C 	C 	0.42420 0.30120 0.58700 -0.76900
C 	C 	0.20540 0.15770 0.68120 0.26700
C 	C 	0.25599 0.19569 0.63383 0.08600
C 	C 	0.23201 0.26831 0.61127 -0.28500
C 	C 	0.27696 0.30286 0.56882 0.29400
C 	C 	0.34747 0.26477 0.54599 -0.17600
C 	C 	0.37369 0.19029 0.56633 0.24500
C 	C 	0.32793 0.15453 0.61121 -0.25000
C 	C 	0.24791 0.38381 0.54707 -0.78000
C 	C 	0.45317 0.14547 0.54479 -0.69600
O 	O 	0.21695 0.96281 0.81046 -0.48500
O 	O 	0.11711 0.96109 0.88939 -0.50000
O 	O 	0.48431 0.58951 0.19407 -0.49200
O 	O 	0.46457 0.70037 0.19599 -0.50000
O 	O 	0.96281 0.00978 0.81046 -0.48700
O 	O 	0.96109 0.03241 0.88939 -0.50200
O 	O 	0.58951 0.73211 0.19407 -0.49200
O 	O 	0.70037 0.63907 0.19599 -0.50000
O 	O 	0.00978 0.21695 0.81046 -0.48900
O 	O 	0.03241 0.11711 0.88939 -0.50600
O 	O 	0.73211 0.48431 0.19407 -0.49200
O 	O 	0.63907 0.46457 0.19599 -0.50000
O 	O 	0.71695 0.50978 0.31046 -0.48900
O 	O 	0.61711 0.53241 0.38939 -0.50400
O 	O 	0.98431 0.23211 0.69407 -0.48900
O 	O 	0.96457 0.13907 0.69599 -0.49700
O 	O 	0.46281 0.71695 0.31046 -0.48800
O 	O 	0.46109 0.61711 0.38939 -0.50400
O 	O 	0.08951 0.98431 0.69407 -0.48900
O 	O 	0.20037 0.96457 0.69599 -0.49700
O 	O 	0.50978 0.46281 0.31046 -0.48900
O 	O 	0.53241 0.46109 0.38939 -0.50400
O 	O 	0.23211 0.08951 0.69407 -0.49400
O 	O 	0.13907 0.20037 0.69599 -0.50100
O 	O 	0.07841 0.07841 0.76477 -0.97400
O 	O 	0.57841 0.57841 0.26477 -0.97000
Zn	Zn	0.31972 0.44468 0.76286 1.20700
Zn	Zn	0.47274 0.31972 0.76286 1.20700
Zn	Zn	0.44468 0.47274 0.76286 1.20700
Zn	Zn	0.81972 0.97274 0.26286 1.20500
Zn	Zn	0.97274 0.94468 0.26286 1.20400
Zn	Zn	0.94468 0.81972 0.26286 1.20600
Zn	Zn	0.45147 0.45147 0.64559 1.20800
Zn	Zn	0.95147 0.95147 0.14559 1.20500
H 	H 	0.17690 0.55140 0.65030 0.11000
H 	H 	0.35860 0.51150 0.51230 0.12700
H 	H 	0.06270 0.63190 0.55820 0.22400
H 	H 	0.06850 0.67660 0.58700 0.21300
H 	H 	0.06480 0.60130 0.62750 0.21300
H 	H 	0.35960 0.57180 0.40490 0.24800
H 	H 	0.28830 0.62090 0.38750 0.25100
H 	H 	0.31490 0.53830 0.40310 0.24400
H 	H 	0.10390 0.81610 0.37460 0.12600
H 	H 	0.07540 0.65550 0.37430 0.11400
H 	H 	0.15500 0.74910 0.49610 0.24200
H 	H 	0.22870 0.72470 0.44720 0.25700
H 	H 	0.17190 0.80080 0.42890 0.24200
H 	H 	0.10460 0.53750 0.49040 0.21200
H 	H 	0.14740 0.53420 0.42170 0.21200
H 	H 	0.18670 0.51920 0.46670 0.21800
H 	H 	0.62140 0.17690 0.65030 0.11100
H 	H 	0.61760 0.35860 0.51230 0.12700
H 	H 	0.74720 0.06270 0.55820 0.22500
H 	H 	0.66790 0.06850 0.58700 0.21300
H 	H 	0.70640 0.06480 0.62750 0.21400
H 	H 	0.66370 0.35960 0.40490 0.24800
H 	H 	0.70330 0.28830 0.38750 0.25100
H 	H 	0.74370 0.31490 0.40310 0.24400
H 	H 	0.70540 0.10390 0.37460 0.12600
H 	H 	0.89480 0.07540 0.37430 0.11500
H 	H 	0.59980 0.15500 0.49610 0.24200
H 	H 	0.59940 0.22870 0.44720 0.25700
H 	H 	0.59840 0.17190 0.42890 0.24100
H 	H 	0.86750 0.10460 0.49040 0.21400
H 	H 	0.89670 0.14740 0.42170 0.21300
H 	H 	0.82740 0.18670 0.46670 0.21900
H 	H 	0.55140 0.62140 0.65030 0.11000
H 	H 	0.51150 0.61760 0.51230 0.12700
H 	H 	0.63190 0.74720 0.55820 0.22300
H 	H 	0.67660 0.66790 0.58700 0.21200
H 	H 	0.60130 0.70640 0.62750 0.21200
H 	H 	0.57180 0.66370 0.40490 0.24800
H 	H 	0.62090 0.70330 0.38750 0.25100
H 	H 	0.53830 0.74370 0.40310 0.24400
H 	H 	0.81610 0.70540 0.37460 0.12500
H 	H 	0.65550 0.89480 0.37430 0.11300
H 	H 	0.74910 0.59980 0.49610 0.24100
H 	H 	0.72470 0.59940 0.44720 0.25600
H 	H 	0.80080 0.59840 0.42890 0.24000
H 	H 	0.53750 0.86750 0.49040 0.21200
H 	H 	0.53420 0.89670 0.42170 0.21100
H 	H 	0.51920 0.82740 0.46670 0.21800
H 	H 	0.67690 0.12140 0.15030 0.11100
H 	H 	0.85860 0.11760 0.01230 0.12800
H 	H 	0.56270 0.24720 0.05820 0.22400
H 	H 	0.56850 0.16790 0.08700 0.21300
H 	H 	0.56480 0.20640 0.12750 0.21300
H 	H 	0.85960 0.16370 0.90490 0.24900
H 	H 	0.78830 0.20330 0.88750 0.25200
H 	H 	0.81490 0.24370 0.90310 0.24500
H 	H 	0.60390 0.20540 0.87460 0.12600
H 	H 	0.57540 0.39480 0.87430 0.11400
H 	H 	0.65500 0.09980 0.99610 0.24300
H 	H 	0.72870 0.09940 0.94720 0.25800
H 	H 	0.67190 0.09840 0.92890 0.24200
H 	H 	0.60460 0.36750 0.99040 0.21200
H 	H 	0.64740 0.39670 0.92170 0.21100
H 	H 	0.68670 0.32740 0.96670 0.21800
H 	H 	0.12140 0.05140 0.15030 0.10400
H 	H 	0.11760 0.01150 0.01230 0.11800
H 	H 	0.24720 0.13190 0.05820 0.22000
H 	H 	0.16790 0.17660 0.08700 0.20800
H 	H 	0.20640 0.10130 0.12750 0.20800
H 	H 	0.16370 0.07180 0.90490 0.23700
H 	H 	0.20330 0.12090 0.88750 0.24200
H 	H 	0.24370 0.03830 0.90310 0.23400
H 	H 	0.20540 0.31610 0.87460 0.12600
H 	H 	0.39480 0.15550 0.87430 0.11400
H 	H 	0.09980 0.24910 0.99610 0.23900
H 	H 	0.09940 0.22470 0.94720 0.25500
H 	H 	0.09840 0.30080 0.92890 0.24000
H 	H 	0.36750 0.03750 0.99040 0.21100
H 	H 	0.39670 0.03420 0.92170 0.21100
H 	H 	0.32740 0.01920 0.96670 0.21700
H 	H 	0.05140 0.67690 0.15030 0.11300
H 	H 	0.01150 0.85860 0.01230 0.13100
H 	H 	0.13190 0.56270 0.05820 0.22500
H 	H 	0.17660 0.56850 0.08700 0.21300
H 	H 	0.10130 0.56480 0.12750 0.21400
H 	H 	0.07180 0.85960 0.90490 0.24900
H 	H 	0.12090 0.78830 0.88750 0.25200
H 	H 	0.03830 0.81490 0.90310 0.24600
H 	H 	0.31610 0.60390 0.87460 0.12500
H 	H 	0.15550 0.57540 0.87430 0.11400
H 	H 	0.24910 0.65500 0.99610 0.24100
H 	H 	0.22470 0.72870 0.94720 0.25600
H 	H 	0.30080 0.67190 0.92890 0.24000
H 	H 	0.03750 0.60460 0.99040 0.21200
H 	H 	0.03420 0.64740 0.92170 0.21200
H 	H 	0.01920 0.68670 0.96670 0.21900
C 	C 	0.31546 0.49226 0.63302 0.30500
C 	C 	0.27455 0.52705 0.58745 0.05800
C 	C 	0.20080 0.55700 0.60800 -0.24800
C 	C 	0.16335 0.59555 0.56405 0.25100
C 	C 	0.19780 0.60320 0.50180 -0.16700
C 	C 	0.27232 0.57052 0.48104 0.27600
C 	C 	0.30942 0.53292 0.52514 -0.26300
C 	C 	0.08224 0.62944 0.58628 -0.69900
C 	C 	0.31240 0.57580 0.41300 -0.76900
C 	C 	0.04430 0.79460 0.31880 0.26700
C 	C 	0.08551 0.74401 0.36617 0.08800
C 	C 	0.11159 0.76799 0.38873 -0.28600
C 	C 	0.14864 0.72304 0.43118 0.29600
C 	C 	0.15823 0.65253 0.45401 -0.17700
C 	C 	0.13031 0.62631 0.43367 0.24600
C 	C 	0.09367 0.67207 0.38879 -0.25100
C 	C 	0.17879 0.75209 0.45293 -0.78200
C 	C 	0.14343 0.54683 0.45521 -0.69700
C 	C 	0.55926 0.31546 0.63302 0.30500
C 	C 	0.61095 0.27455 0.58745 0.05800
C 	C 	0.63420 0.20080 0.60800 -0.24900
C 	C 	0.67705 0.16335 0.56405 0.25100
C 	C 	0.69720 0.19780 0.50180 -0.16800
C 	C 	0.67612 0.27232 0.48104 0.27600
C 	C 	0.63252 0.30942 0.52514 -0.26300
C 	C 	0.70204 0.08224 0.58628 -0.70000
C 	C 	0.69880 0.31240 0.41300 -0.76900
C 	C 	0.84230 0.04430 0.31880 0.26700
C 	C 	0.80431 0.08551 0.36617 0.08800
C 	C 	0.73169 0.11159 0.38873 -0.28600
C 	C 	0.69714 0.14864 0.43118 0.29600
C 	C 	0.73523 0.15823 0.45401 -0.17700
C 	C 	0.80971 0.13031 0.43367 0.24700
C 	C 	0.84547 0.09367 0.38879 -0.25100
C 	C 	0.61619 0.17879 0.45293 -0.78200
C 	C 	0.85453 0.14343 0.45521 -0.70000
C 	C 	0.49226 0.55926 0.63302 0.30500
C 	C 	0.52705 0.61095 0.58745 0.05800
C 	C 	0.55700 0.63420 0.60800 -0.24800
C 	C 	0.59555 0.67705 0.56405 0.25000
C 	C 	0.60320 0.69720 0.50180 -0.16700
C 	C 	0.57052 0.67612 0.48104 0.27600
C 	C 	0.53292 0.63252 0.52514 -0.26200
C 	C 	0.62944 0.70204 0.58628 -0.69700
C 	C 	0.57580 0.69880 0.41300 -0.76900
C 	C 	0.79460 0.84230 0.31880 0.26700
C 	C 	0.74401 0.80431 0.36617 0.08600
C 	C 	0.76799 0.73169 0.38873 -0.28500
C 	C 	0.72304 0.69714 0.43118 0.29400
C 	C 	0.65253 0.73523 0.45401 -0.17600
C 	C 	0.62631 0.80971 0.43367 0.24500
C 	C 	0.67207 0.84547 0.38879 -0.25000
C 	C 	0.75209 0.61619 0.45293 -0.78000
C 	C 	0.54683 0.85453 0.45521 -0.69600
C 	C 	0.81546 0.05926 0.13302 0.30500
C 	C 	0.77455 0.11095 0.08745 0.05900
C 	C 	0.70080 0.13420 0.10800 -0.24800
C 	C 	0.66335 0.17705 0.06405 0.25100
C 	C 	0.69780 0.19720 0.00180 -0.16700
C 	C 	0.77232 0.17612 0.98104 0.27600
C 	C 	0.80942 0.13252 0.02514 -0.26200
C 	C 	0.58224 0.20204 0.08628 -0.69900
C 	C 	0.81240 0.19880 0.91300 -0.77100
C 	C 	0.54430 0.34230 0.81880 0.26700
C 	C 	0.58551 0.30431 0.86617 0.08700
C 	C 	0.61159 0.23169 0.88873 -0.28600
C 	C 	0.64864 0.19714 0.93118 0.29600
C 	C 	0.65823 0.23523 0.95401 -0.17700
C 	C 	0.63031 0.30971 0.93367 0.24600
C 	C 	0.59367 0.34547 0.88879 -0.25000
C 	C 	0.67879 0.11619 0.95293 -0.78400
C 	C 	0.64343 0.35453 0.95521 -0.69600
C 	C 	0.05926 0.99226 0.13302 0.31400
C 	C 	0.11095 0.02705 0.08745 0.03900
C 	C 	0.13420 0.05700 0.10800 -0.23300
C 	C 	0.17705 0.09555 0.06405 0.23500
C 	C 	0.19720 0.10320 0.00180 -0.14600
C 	C 	0.17612 0.07052 0.98104 0.24800
C 	C 	0.13252 0.03292 0.02514 -0.23800
C 	C 	0.20204 0.12944 0.08628 -0.68200
C 	C 	0.19880 0.07580 0.91300 -0.73800
C 	C 	0.34230 0.29460 0.81880 0.26700
C 	C 	0.30431 0.24401 0.86617 0.08800
C 	C 	0.23169 0.26799 0.88873 -0.28800
C 	C 	0.19714 0.22304 0.93118 0.29800
C 	C 	0.23523 0.15253 0.95401 -0.18600
C 	C 	0.30971 0.12631 0.93367 0.24900
C 	C 	0.34547 0.17207 0.88879 -0.25300
C 	C 	0.11619 0.25209 0.95293 -0.78000
C 	C 	0.35453 0.04683 0.95521 -0.69800
C 	C 	0.99226 0.81546 0.13302 0.29700
C 	C 	0.02705 0.77455 0.08745 0.06800
C 	C 	0.05700 0.70080 0.10800 -0.25300
C 	C 	0.09555 0.66335 0.06405 0.25400
C 	C 	0.10320 0.69780 0.00180 -0.16800
C 	C 	0.07052 0.77232 0.98104 0.27700
C 	C 	0.03292 0.80942 0.02514 -0.26600
C 	C 	0.12944 0.58224 0.08628 -0.70200
C 	C 	0.07580 0.81240 0.91300 -0.77300
C 	C 	0.29460 0.54430 0.81880 0.26700
C 	C 	0.24401 0.58551 0.86617 0.08600
C 	C 	0.26799 0.61159 0.88873 -0.28500
C 	C 	0.22304 0.64864 0.93118 0.29400
C 	C 	0.15253 0.65823 0.95401 -0.17700
C 	C 	0.12631 0.63031 0.93367 0.24600
C 	C 	0.17207 0.59367 0.88879 -0.25000
C 	C 	0.25209 0.67879 0.95293 -0.78000
C 	C 	0.04683 0.64343 0.95521 -0.69800
O 	O 	0.28305 0.49022 0.68954 -0.48900
O 	O 	0.38289 0.46759 0.61061 -0.50400
O 	O 	0.01569 0.76789 0.30593 -0.48900
O 	O 	0.03543 0.86093 0.30401 -0.49700
O 	O 	0.53719 0.28305 0.68954 -0.48800
O 	O 	0.53891 0.38289 0.61061 -0.50400
O 	O 	0.91049 0.01569 0.30593 -0.48900
O 	O 	0.79963 0.03543 0.30401 -0.49700
O 	O 	0.49022 0.53719 0.68954 -0.48900
O 	O 	0.46759 0.53891 0.61061 -0.50400
O 	O 	0.76789 0.91049 0.30593 -0.49400
O 	O 	0.86093 0.79963 0.30401 -0.50100
O 	O 	0.78305 0.03719 0.18954 -0.48500
O 	O 	0.88289 0.03891 0.11061 -0.50000
O 	O 	0.51569 0.41049 0.80593 -0.49200
O 	O 	0.53543 0.29963 0.80401 -0.50000
O 	O 	0.03719 0.99022 0.18954 -0.48700
O 	O 	0.03891 0.96759 0.11061 -0.50200
O 	O 	0.41049 0.26789 0.80593 -0.49200
O 	O 	0.29963 0.36093 0.80401 -0.50000
O 	O 	0.99022 0.78305 0.18954 -0.48900
O 	O 	0.96759 0.88289 0.11061 -0.50600
O 	O 	0.26789 0.51569 0.80593 -0.49200
O 	O 	0.36093 0.53543 0.80401 -0.50000
O 	O 	0.42159 0.42159 0.73523 -0.97000
O 	O 	0.92159 0.92159 0.23523 -0.97400
