data_crystal

_cell_length_a 13.17200
_cell_length_b 19.84900
_cell_length_c 20.91200
_cell_angle_alpha 90.00000
_cell_angle_beta  102.06000
_cell_angle_gamma 90.00000

_symmetry_space_group_name_	'P 1'
_symmetry_space_group_name_H-M	'P 1'

loop_
_symmetry_equiv_pos_as_xyz
  x,y,z

loop_
_atom_site_label
_atom_site_type_symbol
_atom_site_fract_x
_atom_site_fract_y
_atom_site_fract_z
_atom_site_charge
Cu	Cu	0.06830 0.42340 0.62090 0.72600
Cu	Cu	0.11910 0.36930 0.73810 0.74100
Cu	Cu	0.99940 0.26850 0.67800 0.73300
Cu	Cu	0.90340 0.34290 0.57750 0.74800
Cu	Cu	0.57470 0.22280 0.80010 0.85600
O 	O 	0.23400 0.34200 0.70700 -0.52200
O 	O 	0.97200 0.28700 0.53400 -0.56400
O 	O 	0.96100 0.48000 0.63400 -0.51900
O 	O 	0.92300 0.29600 0.73800 -0.51800
N 	N 	0.46500 0.24400 0.73400 -0.29700
N 	N 	0.19000 0.38000 0.60200 -0.41600
N 	N 	0.56000 0.25200 0.89300 -0.30000
N 	N 	0.06700 0.22600 0.61500 -0.39300
N 	N 	0.61100 0.12900 0.80400 -0.29600
N 	N 	0.83000 0.39900 0.61900 -0.42900
N 	N 	0.69500 0.28400 0.79100 -0.28100
N 	N 	0.00600 0.39700 0.77100 -0.41500
C 	C 	0.25000 0.34600 0.64700 0.26800
C 	C 	0.33700 0.31200 0.63200 -0.21500
C 	C 	0.35600 0.30800 0.57200 0.19400
C 	C 	0.28600 0.34700 0.52800 -0.38600
C 	C 	0.20600 0.38100 0.54400 0.38500
C 	C 	0.40800 0.27200 0.68900 0.09500
C 	C 	0.12600 0.41300 0.48800 -0.99500
C 	C 	0.04200 0.24300 0.55200 0.31000
C 	C 	0.09200 0.20900 0.50800 -0.28300
C 	C 	0.17500 0.16500 0.53800 0.23800
C 	C 	0.19400 0.14800 0.59900 -0.41200
C 	C 	0.14700 0.18300 0.63700 0.34000
C 	C 	0.57300 0.26900 0.94300 0.19200
C 	C 	0.17800 0.16300 0.71000 -0.82000
C 	C 	0.87100 0.45800 0.63800 0.22900
C 	C 	0.81700 0.51200 0.66900 -0.17500
C 	C 	0.70900 0.49200 0.67400 0.10400
C 	C 	0.67200 0.42500 0.65300 -0.34100
C 	C 	0.73700 0.38200 0.62800 0.42300
C 	C 	0.64400 0.07600 0.81600 0.12200
C 	C 	0.68600 0.31800 0.61000 -1.12200
C 	C 	0.93200 0.35400 0.76800 0.25800
C 	C 	0.84900 0.36400 0.79700 -0.19100
C 	C 	0.84400 0.42200 0.83300 0.07600
C 	C 	0.92400 0.47900 0.83200 -0.25500
C 	C 	0.00600 0.45300 0.80100 0.33000
C 	C 	0.76400 0.31800 0.79500 0.14200
C 	C 	0.08800 0.50500 0.80000 -0.93600
H 	H 	0.21870 0.14800 0.51080 -0.06700
H 	H 	0.23950 0.11130 0.61450 0.13700
H 	H 	0.41080 0.28290 0.56070 -0.06700
H 	H 	0.29470 0.34910 0.48460 0.13500
H 	H 	0.66610 0.52200 0.69170 -0.03100
H 	H 	0.60420 0.41160 0.65510 0.12600
H 	H 	0.79140 0.42730 0.85780 -0.01400
H 	H 	0.92130 0.52310 0.84910 0.09100
H 	H 	0.11750 0.45880 0.49790 0.25600
H 	H 	0.14950 0.40890 0.44850 0.32100
H 	H 	0.06180 0.38980 0.48450 0.26400
H 	H 	0.15940 0.11700 0.71460 0.23100
H 	H 	0.25030 0.16830 0.72510 0.24900
H 	H 	0.14170 0.19060 0.73490 0.18300
H 	H 	0.66770 0.29830 0.64660 0.35800
H 	H 	0.62580 0.32570 0.57660 0.33400
H 	H 	0.73250 0.28950 0.59310 0.27600
H 	H 	0.15430 0.48620 0.81850 0.24000
H 	H 	0.08640 0.51770 0.75610 0.25500
H 	H 	0.07590 0.54290 0.82460 0.29400
Cu	Cu	0.43170 0.92340 0.87910 0.72600
Cu	Cu	0.38090 0.86930 0.76190 0.74200
Cu	Cu	0.50060 0.76850 0.82200 0.73400
Cu	Cu	0.59660 0.84290 0.92250 0.74800
Cu	Cu	0.92530 0.72280 0.69990 0.85700
O 	O 	0.26600 0.84200 0.79300 -0.52100
O 	O 	0.52800 0.78700 0.96600 -0.56400
O 	O 	0.53900 0.98000 0.86600 -0.51900
O 	O 	0.57700 0.79600 0.76200 -0.51800
N 	N 	0.03500 0.74400 0.76600 -0.29700
N 	N 	0.31000 0.88000 0.89800 -0.41600
N 	N 	0.94000 0.75200 0.60700 -0.30000
N 	N 	0.43300 0.72600 0.88500 -0.39300
N 	N 	0.88900 0.62900 0.69600 -0.29600
N 	N 	0.67000 0.89900 0.88100 -0.42900
N 	N 	0.80500 0.78400 0.70900 -0.28100
N 	N 	0.49400 0.89700 0.72900 -0.41400
C 	C 	0.25000 0.84600 0.85300 0.26800
C 	C 	0.16300 0.81200 0.86800 -0.21500
C 	C 	0.14400 0.80800 0.92800 0.19400
C 	C 	0.21400 0.84700 0.97200 -0.38600
C 	C 	0.29400 0.88100 0.95600 0.38500
C 	C 	0.09200 0.77200 0.81100 0.09500
C 	C 	0.37400 0.91300 0.01200 -0.99400
C 	C 	0.45800 0.74300 0.94800 0.31000
C 	C 	0.40800 0.70900 0.99200 -0.28400
C 	C 	0.32500 0.66500 0.96200 0.23800
C 	C 	0.30600 0.64800 0.90100 -0.41300
C 	C 	0.35300 0.68300 0.86300 0.33900
C 	C 	0.92700 0.76900 0.55700 0.19100
C 	C 	0.32200 0.66300 0.79000 -0.82000
C 	C 	0.62900 0.95800 0.86200 0.22800
C 	C 	0.68300 0.01200 0.83100 -0.17300
C 	C 	0.79100 0.99200 0.82600 0.10100
C 	C 	0.82800 0.92500 0.84700 -0.33900
C 	C 	0.76300 0.88200 0.87200 0.42100
C 	C 	0.85600 0.57600 0.68400 0.12300
C 	C 	0.81400 0.81800 0.89000 -1.12000
C 	C 	0.56800 0.85400 0.73200 0.25800
C 	C 	0.65100 0.86400 0.70300 -0.19100
C 	C 	0.65600 0.92200 0.66700 0.07600
C 	C 	0.57600 0.97900 0.66800 -0.25400
C 	C 	0.49400 0.95300 0.69900 0.32700
C 	C 	0.73600 0.81800 0.70500 0.14200
C 	C 	0.41200 0.00500 0.70000 -0.93100
H 	H 	0.28130 0.64800 0.98920 -0.06800
H 	H 	0.26050 0.61130 0.88550 0.13700
H 	H 	0.08920 0.78290 0.93930 -0.06700
H 	H 	0.20530 0.84910 0.01540 0.13600
H 	H 	0.83390 0.02200 0.80830 -0.03000
H 	H 	0.89580 0.91160 0.84490 0.12500
H 	H 	0.70860 0.92730 0.64220 -0.01400
H 	H 	0.57870 0.02310 0.65090 0.09100
H 	H 	0.38250 0.95880 0.00210 0.25600
H 	H 	0.35050 0.90890 0.05150 0.32000
H 	H 	0.43820 0.88980 0.01550 0.26400
H 	H 	0.34060 0.61700 0.78540 0.23000
H 	H 	0.24970 0.66830 0.77490 0.24900
H 	H 	0.35830 0.69060 0.76510 0.18300
H 	H 	0.83230 0.79830 0.85340 0.35700
H 	H 	0.87420 0.82570 0.92340 0.33300
H 	H 	0.76750 0.78950 0.90690 0.27500
H 	H 	0.34570 0.98620 0.68150 0.23900
H 	H 	0.41360 0.01770 0.74390 0.25300
H 	H 	0.42410 0.04290 0.67540 0.29300
Cu	Cu	0.93170 0.57660 0.37910 0.72700
Cu	Cu	0.88090 0.63070 0.26190 0.74200
Cu	Cu	0.00060 0.73150 0.32200 0.73400
Cu	Cu	0.09660 0.65710 0.42250 0.74900
Cu	Cu	0.42530 0.77720 0.19990 0.85700
O 	O 	0.76600 0.65800 0.29300 -0.52100
O 	O 	0.02800 0.71300 0.46600 -0.56400
O 	O 	0.03900 0.52000 0.36600 -0.51900
O 	O 	0.07700 0.70400 0.26200 -0.51800
N 	N 	0.53500 0.75600 0.26600 -0.29700
N 	N 	0.81000 0.62000 0.39800 -0.41600
N 	N 	0.44000 0.74800 0.10700 -0.30000
N 	N 	0.93300 0.77400 0.38500 -0.39300
N 	N 	0.38900 0.87100 0.19600 -0.29600
N 	N 	0.17000 0.60100 0.38100 -0.42900
N 	N 	0.30500 0.71600 0.20900 -0.28100
N 	N 	0.99400 0.60300 0.22900 -0.41500
C 	C 	0.75000 0.65400 0.35300 0.26800
C 	C 	0.66300 0.68800 0.36800 -0.21500
C 	C 	0.64400 0.69200 0.42800 0.19400
C 	C 	0.71400 0.65300 0.47200 -0.38600
C 	C 	0.79400 0.61900 0.45600 0.38500
C 	C 	0.59200 0.72800 0.31100 0.09500
C 	C 	0.87400 0.58700 0.51200 -0.99500
C 	C 	0.95800 0.75700 0.44800 0.31000
C 	C 	0.90800 0.79100 0.49200 -0.28300
C 	C 	0.82500 0.83500 0.46200 0.23800
C 	C 	0.80600 0.85200 0.40100 -0.41200
C 	C 	0.85300 0.81700 0.36300 0.34000
C 	C 	0.42700 0.73100 0.05700 0.19200
C 	C 	0.82200 0.83700 0.29000 -0.82000
C 	C 	0.12900 0.54200 0.36200 0.22900
C 	C 	0.18300 0.48800 0.33100 -0.17500
C 	C 	0.29100 0.50800 0.32600 0.10400
C 	C 	0.32800 0.57500 0.34700 -0.34100
C 	C 	0.26300 0.61800 0.37200 0.42300
C 	C 	0.35600 0.92400 0.18400 0.12200
C 	C 	0.31400 0.68200 0.39000 -1.12200
C 	C 	0.06800 0.64600 0.23200 0.25800
C 	C 	0.15100 0.63600 0.20300 -0.19100
C 	C 	0.15600 0.57800 0.16700 0.07600
C 	C 	0.07600 0.52100 0.16800 -0.25500
C 	C 	0.99400 0.54700 0.19900 0.33000
C 	C 	0.23600 0.68200 0.20500 0.14200
C 	C 	0.91200 0.49500 0.20000 -0.93600
H 	H 	0.78130 0.85200 0.48920 -0.06700
H 	H 	0.76050 0.88870 0.38550 0.13700
H 	H 	0.58920 0.71710 0.43930 -0.06700
H 	H 	0.70530 0.65090 0.51540 0.13500
H 	H 	0.33390 0.47800 0.30830 -0.03100
H 	H 	0.39580 0.58840 0.34490 0.12600
H 	H 	0.20860 0.57270 0.14220 -0.01400
H 	H 	0.07870 0.47690 0.15090 0.09100
H 	H 	0.88250 0.54120 0.50210 0.25600
H 	H 	0.85050 0.59110 0.55150 0.32100
H 	H 	0.93820 0.61020 0.51550 0.26400
H 	H 	0.84060 0.88300 0.28540 0.23100
H 	H 	0.74970 0.83170 0.27490 0.24900
H 	H 	0.85830 0.80940 0.26510 0.18300
H 	H 	0.33230 0.70170 0.35340 0.35800
H 	H 	0.37420 0.67430 0.42340 0.33400
H 	H 	0.26750 0.71050 0.40690 0.27600
H 	H 	0.84570 0.51380 0.18150 0.24000
H 	H 	0.91360 0.48230 0.24390 0.25500
H 	H 	0.92410 0.45710 0.17540 0.29400
Cu	Cu	0.56830 0.07660 0.12090 0.72600
Cu	Cu	0.61910 0.13070 0.23810 0.74200
Cu	Cu	0.49940 0.23150 0.17800 0.73400
Cu	Cu	0.40340 0.15710 0.07750 0.74800
Cu	Cu	0.07470 0.27720 0.30010 0.85700
O 	O 	0.73400 0.15800 0.20700 -0.52100
O 	O 	0.47200 0.21300 0.03400 -0.56400
O 	O 	0.46100 0.02000 0.13400 -0.51900
O 	O 	0.42300 0.20400 0.23800 -0.51800
N 	N 	0.96500 0.25600 0.23400 -0.29700
N 	N 	0.69000 0.12000 0.10200 -0.41600
N 	N 	0.06000 0.24800 0.39300 -0.30000
N 	N 	0.56700 0.27400 0.11500 -0.39300
N 	N 	0.11100 0.37100 0.30400 -0.29600
N 	N 	0.33000 0.10100 0.11900 -0.42900
N 	N 	0.19500 0.21600 0.29100 -0.28100
N 	N 	0.50600 0.10300 0.27100 -0.41400
C 	C 	0.75000 0.15400 0.14700 0.26800
C 	C 	0.83700 0.18800 0.13200 -0.21500
C 	C 	0.85600 0.19200 0.07200 0.19400
C 	C 	0.78600 0.15300 0.02800 -0.38600
C 	C 	0.70600 0.11900 0.04400 0.38500
C 	C 	0.90800 0.22800 0.18900 0.09500
C 	C 	0.62600 0.08700 0.98800 -0.99400
C 	C 	0.54200 0.25700 0.05200 0.31000
C 	C 	0.59200 0.29100 0.00800 -0.28400
C 	C 	0.67500 0.33500 0.03800 0.23800
C 	C 	0.69400 0.35200 0.09900 -0.41300
C 	C 	0.64700 0.31700 0.13700 0.33900
C 	C 	0.07300 0.23100 0.44300 0.19100
C 	C 	0.67800 0.33700 0.21000 -0.82000
C 	C 	0.37100 0.04200 0.13800 0.22800
C 	C 	0.31700 0.98800 0.16900 -0.17300
C 	C 	0.20900 0.00800 0.17400 0.10100
C 	C 	0.17200 0.07500 0.15300 -0.33900
C 	C 	0.23700 0.11800 0.12800 0.42100
C 	C 	0.14400 0.42400 0.31600 0.12300
C 	C 	0.18600 0.18200 0.11000 -1.12000
C 	C 	0.43200 0.14600 0.26800 0.25800
C 	C 	0.34900 0.13600 0.29700 -0.19100
C 	C 	0.34400 0.07800 0.33300 0.07600
C 	C 	0.42400 0.02100 0.33200 -0.25400
C 	C 	0.50600 0.04700 0.30100 0.32700
C 	C 	0.26400 0.18200 0.29500 0.14200
C 	C 	0.58800 0.99500 0.30000 -0.93100
H 	H 	0.71870 0.35200 0.01080 -0.06800
H 	H 	0.73950 0.38870 0.11450 0.13700
H 	H 	0.91080 0.21710 0.06070 -0.06700
H 	H 	0.79470 0.15090 0.98460 0.13600
H 	H 	0.16610 0.97800 0.19170 -0.03000
H 	H 	0.10420 0.08840 0.15510 0.12500
H 	H 	0.29140 0.07270 0.35780 -0.01400
H 	H 	0.42130 0.97690 0.34910 0.09100
H 	H 	0.61750 0.04120 0.99790 0.25600
H 	H 	0.64950 0.09110 0.94850 0.32000
H 	H 	0.56180 0.11020 0.98450 0.26400
H 	H 	0.65940 0.38300 0.21460 0.23000
H 	H 	0.75030 0.33170 0.22510 0.24900
H 	H 	0.64170 0.30940 0.23490 0.18300
H 	H 	0.16770 0.20170 0.14660 0.35700
H 	H 	0.12580 0.17430 0.07660 0.33300
H 	H 	0.23250 0.21050 0.09310 0.27500
H 	H 	0.65430 0.01380 0.31850 0.23900
H 	H 	0.58640 0.98230 0.25610 0.25300
H 	H 	0.57590 0.95710 0.32460 0.29300
