data_crystal

_cell_length_a 22.21400
_cell_length_b 23.46450
_cell_length_c 6.63950
_cell_angle_alpha 90.39800
_cell_angle_beta  108.23600
_cell_angle_gamma 57.60000

_symmetry_space_group_name_	'P 1'
_symmetry_space_group_name_H-M	'P 1'

loop_
_symmetry_equiv_pos_as_xyz
  x,y,z

loop_
_atom_site_label
_atom_site_type_symbol
_atom_site_fract_x
_atom_site_fract_y
_atom_site_fract_z
_atom_site_charge
Al	Al	-0.00000 0.00000 -0.00000 2.42000
Al	Al	0.50750 0.99846 0.97339 2.40200
Al	Al	0.01032 0.48991 0.97344 2.41100
Al	Al	0.48157 0.50534 0.96676 2.42100
Al	Al	0.00664 0.00138 0.43567 2.43000
Al	Al	0.50045 0.98066 0.49493 2.39400
Al	Al	0.98542 0.49363 0.45363 2.41700
Al	Al	0.49977 0.49334 0.49921 2.41100
O 	O 	-0.00000 0.03750 0.75000 -0.96600
O 	O 	0.50000 0.03750 0.75000 -1.25900
O 	O 	-0.00000 0.53750 0.75000 -1.23700
O 	O 	0.50000 0.53750 0.75000 -1.22900
O 	O 	-0.00000 0.96250 0.25000 -1.80900
O 	O 	0.50000 0.96250 0.25000 -1.38700
O 	O 	0.00000 0.46250 0.25000 -1.43800
O 	O 	0.50000 0.46250 0.25000 -1.26200
H 	H 	-0.00000 0.07030 0.75000 0.50800
H 	H 	0.50000 0.07030 0.75000 0.66300
H 	H 	-0.00000 0.57030 0.75000 0.62600
H 	H 	0.50000 0.57030 0.75000 0.64200
H 	H 	-0.00000 0.92970 0.25000 0.79500
H 	H 	0.50000 0.92970 0.25000 0.52200
H 	H 	-0.00000 0.42970 0.25000 0.58600
H 	H 	0.50000 0.42970 0.25000 0.56100
C 	C 	0.09938 0.01028 0.37710 0.95200
C 	C 	0.16925 0.01250 0.41744 -0.99100
C 	C 	0.19344 0.01452 0.25049 0.51600
C 	C 	0.20951 0.01254 0.62160 1.76100
C 	C 	0.25744 0.01655 0.28743 0.97700
C 	C 	0.27350 0.01458 0.65855 0.69000
C 	C 	0.29770 0.01660 0.49160 -0.72600
C 	C 	0.36757 0.01882 0.53194 0.65000
O 	O 	0.06293 0.01024 0.19230 -0.90600
O 	O 	0.07747 0.00846 0.52822 -0.85600
O 	O 	0.40401 0.01886 0.71674 -0.54700
O 	O 	0.38947 0.02064 0.38082 -0.55400
N 	N 	0.16057 0.00366 0.05684 0.93400
H 	H 	0.11232 0.01424 0.01765 -0.11500
H 	H 	0.18744 0.98602 0.97011 -0.39200
C 	C 	0.59214 0.01339 0.28348 0.96600
C 	C 	0.66634 0.00915 0.37481 -1.02000
C 	C 	0.70636 0.00508 0.24420 1.86900
C 	C 	0.69479 0.00930 0.58968 0.56700
C 	C 	0.77432 0.00119 0.32786 -0.29300
C 	C 	0.76275 0.00541 0.67333 0.92300
C 	C 	0.80277 0.00134 0.54272 -0.17200
C 	C 	0.87697 0.99710 0.63405 0.33900
O 	O 	0.56640 0.01325 0.08899 -0.92600
O 	O 	0.55592 0.01707 0.40170 -0.58100
O 	O 	0.90272 0.99723 0.82855 -0.56700
O 	O 	0.91319 0.99341 0.51583 -0.46800
N 	N 	0.68418 0.99417 0.04041 1.79500
H 	H 	0.63502 0.00831 0.97176 -0.18800
H 	H 	0.71893 0.97295 0.97654 -0.30700
C 	C 	0.38608 0.50341 0.63277 0.93800
C 	C 	0.31433 0.50328 0.55302 -0.85400
C 	C 	0.27567 0.51560 0.33520 0.92500
C 	C 	0.28680 0.49084 0.69726 0.84700
C 	C 	0.20995 0.51548 0.26215 0.83800
C 	C 	0.22108 0.49072 0.62421 0.94100
C 	C 	0.18241 0.50304 0.40640 -0.80000
C 	C 	0.11066 0.50291 0.32664 0.74700
O 	O 	0.41100 0.51467 0.50221 -0.84500
O 	O 	0.42107 0.49225 0.82994 -1.01900
O 	O 	0.08574 0.49165 0.45721 -0.50200
O 	O 	0.07567 0.51406 0.12948 -0.70500
N 	N 	0.29640 0.53837 0.19403 1.55500
H 	H 	0.34474 0.52745 0.23179 -0.28800
H 	H 	0.26153 0.56408 0.06446 -0.37200
C 	C 	0.59949 0.51441 0.36486 0.73600
C 	C 	0.67240 0.51242 0.42059 -0.75000
C 	C 	0.69599 0.52127 0.25980 0.76200
C 	C 	0.71608 0.50173 0.63280 0.89000
C 	C 	0.76277 0.51945 0.31084 0.88600
C 	C 	0.78287 0.49990 0.68384 0.76300
C 	C 	0.80645 0.50876 0.52305 -0.78300
C 	C 	0.87936 0.50677 0.57878 0.82600
O 	O 	0.55995 0.52409 0.17278 -0.52400
O 	O 	0.57815 0.50639 0.51041 -0.62300
O 	O 	0.91890 0.49709 0.77086 -0.67900
O 	O 	0.90071 0.51478 0.43323 -0.88400
N 	N 	0.65904 0.52108 0.05332 1.37400
H 	H 	0.60972 0.53437 0.01054 -0.21800
H 	H 	0.68435 0.50766 0.96184 -0.33600
C 	C 	0.61556 0.38243 0.85930 0.79100
C 	C 	0.68970 0.31100 0.94050 -0.82100
C 	C 	0.72495 0.28206 0.15738 0.88800
C 	C 	0.72285 0.27403 0.79853 0.94400
C 	C 	0.79286 0.21663 0.23176 0.97100
C 	C 	0.79076 0.20860 0.87291 0.92400
C 	C 	0.82601 0.17966 0.08979 -0.86500
C 	C 	0.90015 0.10823 0.17100 0.89600
O 	O 	0.58556 0.41590 0.98780 -0.60600
O 	O 	0.58365 0.40863 0.66298 -0.73800
O 	O 	0.93016 0.07476 0.04249 -0.78900
O 	O 	0.93206 0.08203 0.36731 -0.78900
N 	N 	0.69827 0.32314 0.29935 1.61400
H 	H 	0.64881 0.35962 0.25736 -0.28900
H 	H 	0.73037 0.31336 0.43365 -0.33900
C 	C 	0.10876 0.38282 0.84584 0.79900
C 	C 	0.18413 0.31227 0.91602 -0.82100
C 	C 	0.21137 0.27163 0.11420 0.86600
C 	C 	0.22642 0.28781 0.78257 0.95500
C 	C 	0.28040 0.20700 0.17848 0.95200
C 	C 	0.29546 0.22319 0.84684 0.87400
C 	C 	0.32270 0.18255 0.04503 -0.80300
C 	C 	0.39807 0.11199 0.11520 0.73800
O 	O 	0.07047 0.40496 0.96664 -0.84200
O 	O 	0.08410 0.41961 0.66645 -0.68900
O 	O 	0.43636 0.08986 0.99440 -0.58300
O 	O 	0.42273 0.07521 0.29459 -0.50100
N 	N 	0.17530 0.30055 0.25788 1.57200
H 	H 	0.12518 0.33583 0.21068 -0.27300
H 	H 	0.20196 0.28408 0.39850 -0.33000
C 	C 	0.90024 0.60890 0.12701 0.82900
C 	C 	0.82497 0.67941 0.04119 -0.84700
C 	C 	0.79042 0.71711 0.17994 0.97500
C 	C 	0.79008 0.70677 0.82326 0.89500
C 	C 	0.72148 0.78169 0.10134 0.86900
C 	C 	0.72114 0.77136 0.74466 0.95700
C 	C 	0.68659 0.80905 0.88341 -0.87800
C 	C 	0.61132 0.87956 0.79759 0.87500
O 	O 	0.93182 0.58414 0.32427 -0.67900
O 	O 	0.93151 0.57478 0.00141 -0.65500
O 	O 	0.57974 0.90433 0.60033 -1.00600
O 	O 	0.58005 0.91368 0.92319 -0.87500
N 	N 	0.81908 0.68521 0.39060 1.60300
H 	H 	0.86897 0.64996 0.45208 -0.26200
H 	H 	0.78783 0.69971 0.46609 -0.25700
C 	C 	0.40816 0.61076 0.14738 0.91000
C 	C 	0.33008 0.67892 0.06777 -0.89900
C 	C 	0.29447 0.71179 0.21048 0.95400
C 	C 	0.29365 0.70893 0.85162 0.95000
C 	C 	0.22295 0.77422 0.13756 0.93500
C 	C 	0.22213 0.77136 0.77871 0.95900
C 	C 	0.18652 0.80423 0.92141 -0.86600
C 	C 	0.10844 0.87240 0.84181 0.75900
O 	O 	0.44114 0.58359 0.34303 -0.70400
O 	O 	0.44040 0.58100 0.01821 -0.88400
O 	O 	0.07547 0.89956 0.64615 -0.61800
O 	O 	0.07621 0.90215 0.97098 -0.67800
N 	N 	0.32538 0.67662 0.41828 1.61400
H 	H 	0.37610 0.64330 0.47742 -0.28100
H 	H 	0.29476 0.68706 0.49427 -0.29400
N 	N 	0.19314 0.99977 0.79289 2.50700
N 	N 	0.27460 0.02934 0.11797 1.41600
N 	N 	0.30638 0.02544 0.85220 1.90800
H 	H 	0.16743 0.01449 0.11859 -0.86300
H 	H 	0.19387 0.01124 0.72946 -2.64300
H 	H 	0.27307 0.01785 0.17958 -1.49400
H 	H 	0.29951 0.01461 0.79045 -1.76100
H 	H 	0.14708 0.00692 0.77193 -0.33700
H 	H 	0.22855 0.98432 0.92523 -0.62000
H 	H 	0.32207 0.01886 0.13918 -0.17200
H 	H 	0.23829 0.04814 0.98656 -0.11900
H 	H 	0.35462 0.01486 0.89139 -0.33600
H 	H 	0.27951 0.04308 0.93893 -0.54000
N 	N 	0.66202 0.00250 0.72617 0.91000
N 	N 	0.80782 0.00796 0.19363 0.43900
N 	N 	0.78493 0.01632 0.87713 1.67100
H 	H 	0.68798 0.00498 0.10539 -2.16000
H 	H 	0.66894 0.01193 0.67406 -0.84100
H 	H 	0.80017 0.99856 0.24348 -0.34300
H 	H 	0.78113 0.00551 0.81214 -1.68500
H 	H 	0.61351 0.01354 0.67431 -0.10000
H 	H 	0.68923 0.98702 0.86678 -0.40100
H 	H 	0.85754 0.99362 0.24554 -0.13900
H 	H 	0.77987 0.02671 0.05443 -0.03600
H 	H 	0.83409 0.00218 0.94578 -0.21300
H 	H 	0.75018 0.03754 0.94099 -0.32700
N 	N 	0.31771 0.48928 0.91088 1.44900
N 	N 	0.17832 0.51694 0.04907 1.46600
N 	N 	0.20034 0.46795 0.76539 1.62100
H 	H 	0.29345 0.52363 0.24201 -1.57100
H 	H 	0.31177 0.48288 0.83798 -1.49100
H 	H 	0.18497 0.52344 0.12143 -1.50300
H 	H 	0.20329 0.48268 0.71740 -1.63100
H 	H 	0.36520 0.48052 0.96550 -0.23500
H 	H 	0.29032 0.49703 0.99516 -0.28000
H 	H 	0.12944 0.52905 0.99376 -0.23800
H 	H 	0.20665 0.50578 0.96581 -0.28600
H 	H 	0.15200 0.47886 0.72762 -0.27900
H 	H 	0.23521 0.44223 0.89495 -0.37500
N 	N 	0.69964 0.48231 0.79327 1.50500
N 	N 	0.78005 0.53877 0.15236 1.47900
N 	N 	0.81981 0.50010 0.89032 1.35900
H 	H 	0.66777 0.52818 0.12270 -1.38500
H 	H 	0.70085 0.49601 0.73668 -1.51800
H 	H 	0.77801 0.52517 0.20696 -1.49300
H 	H 	0.81109 0.49299 0.82093 -1.37400
H 	H 	0.65244 0.49146 0.76716 -0.23900
H 	H 	0.73615 0.46053 0.92372 -0.29400
H 	H 	0.82841 0.52643 0.17708 -0.23300
H 	H 	0.74294 0.56368 0.02460 -0.29900
H 	H 	0.86914 0.48681 0.93310 -0.21700
H 	H 	0.79451 0.51352 0.98180 -0.33400
N 	N 	0.69487 0.30646 0.58887 1.60500
N 	N 	0.82160 0.18342 0.44092 1.57800
N 	N 	0.81744 0.16752 0.73094 1.57200
H 	H 	0.70354 0.30595 0.24910 -1.62600
H 	H 	0.70008 0.29272 0.65841 -1.66000
H 	H 	0.81564 0.19794 0.37188 -1.64400
H 	H 	0.81217 0.18471 0.78119 -1.60600
H 	H 	0.64652 0.34464 0.53109 -0.27300
H 	H 	0.72504 0.28937 0.51032 -0.28400
H 	H 	0.87116 0.14733 0.50029 -0.23300
H 	H 	0.79073 0.19792 0.51754 -0.28200
H 	H 	0.86690 0.13104 0.77293 -0.25900
H 	H 	0.78534 0.17730 0.59664 -0.29800
N 	N 	0.20593 0.33189 0.60123 1.62700
N 	N 	0.30174 0.16225 0.35929 1.63000
N 	N 	0.33153 0.19427 0.70317 1.58000
H 	H 	0.18404 0.28743 0.20042 -1.57600
H 	H 	0.20883 0.31407 0.65453 -1.65300
H 	H 	0.29800 0.18075 0.30651 -1.65100
H 	H 	0.32278 0.20739 0.76063 -1.58300
H 	H 	0.15755 0.36997 0.54263 -0.27800
H 	H 	0.24099 0.32247 0.54192 -0.36600
H 	H 	0.35113 0.12619 0.42256 -0.27400
H 	H 	0.26623 0.16921 0.41360 -0.36900
H 	H 	0.38164 0.15899 0.75037 -0.26100
H 	H 	0.30487 0.21074 0.56254 -0.32700
N 	N 	0.81761 0.66545 0.68269 1.60100
N 	N 	0.69316 0.82371 0.23967 1.58100
N 	N 	0.69248 0.80326 0.53400 1.59700
H 	H 	0.81297 0.69943 0.32073 -1.67700
H 	H 	0.81240 0.68242 0.73362 -1.62200
H 	H 	0.69916 0.80605 0.19098 -1.59400
H 	H 	0.69859 0.78903 0.60387 -1.66500
H 	H 	0.86637 0.62763 0.72802 -0.27700
H 	H 	0.78676 0.67641 0.54594 -0.34400
H 	H 	0.64330 0.85945 0.19547 -0.31900
H 	H 	0.72461 0.81528 0.37383 -0.35700
H 	H 	0.64260 0.83850 0.47252 -0.27800
H 	H 	0.72373 0.78876 0.45851 -0.27600
N 	N 	0.32294 0.67165 0.70612 1.64300
N 	N 	0.19285 0.81220 0.28088 1.68100
N 	N 	0.19122 0.80653 0.57090 1.66600
H 	H 	0.31801 0.69240 0.35012 -1.68000
H 	H 	0.31666 0.68769 0.75943 -1.69100
H 	H 	0.19995 0.79546 0.22976 -1.71800
H 	H 	0.19860 0.79075 0.63907 -1.72900
H 	H 	0.37276 0.63590 0.74862 -0.31200
H 	H 	0.29215 0.68317 0.56901 -0.27600
H 	H 	0.14217 0.84565 0.23913 -0.33700
H 	H 	0.22395 0.80344 0.41582 -0.31000
H 	H 	0.14050 0.83985 0.51177 -0.32100
H 	H 	0.22184 0.79609 0.49491 -0.30500
