data_crystal

_cell_length_a 26.09300
_cell_length_b 21.58000
_cell_length_c 17.23800
_cell_angle_alpha 90.00000
_cell_angle_beta  92.59300
_cell_angle_gamma 90.00000

_symmetry_space_group_name_	'P 1'
_symmetry_space_group_name_H-M	'P 1'

loop_
_symmetry_equiv_pos_as_xyz
  x,y,z

loop_
_atom_site_label
_atom_site_type_symbol
_atom_site_fract_x
_atom_site_fract_y
_atom_site_fract_z
_atom_site_charge
Zn	Zn	0.13350 0.42747 0.30779 1.21500
O 	O 	0.13410 0.55120 0.41910 -0.51300
O 	O 	0.06550 0.38710 0.29440 -0.47300
O 	O 	0.03460 0.43050 0.18450 -0.49300
O 	O 	0.68460 0.13290 0.30250 -0.47100
O 	O 	0.70630 0.09150 0.18750 -0.51000
O 	O 	0.21820 0.44980 0.79190 -0.18000
O 	O 	0.91320 0.26690 0.38540 -0.18100
C 	C 	0.02980 0.39350 0.24230 0.35700
C 	C 	0.98530 0.35330 0.24110 -0.06500
C 	C 	0.97320 0.32240 0.30870 -0.08700
H 	H 	0.99590 0.32440 0.35330 0.08800
C 	C 	0.92800 0.28860 0.31100 0.13300
C 	C 	0.89480 0.28560 0.24570 -0.06900
C 	C 	0.90690 0.31650 0.17810 -0.02700
H 	H 	0.88420 0.31450 0.13350 0.04100
C 	C 	0.95210 0.35030 0.17580 -0.02500
H 	H 	0.96030 0.37140 0.12970 0.05000
C 	C 	0.84820 0.24440 0.24270 0.10900
C 	C 	0.81390 0.25310 0.30100 -0.14000
H 	H 	0.82050 0.28360 0.33990 0.09600
C 	C 	0.76970 0.21710 0.30250 0.07000
H 	H 	0.74630 0.22300 0.34240 0.02700
C 	C 	0.76000 0.17240 0.24560 -0.14400
C 	C 	0.79430 0.16380 0.18720 0.06100
H 	H 	0.78770 0.13320 0.14840 0.00400
C 	C 	0.83850 0.19980 0.18580 -0.14700
H 	H 	0.86190 0.19380 0.14590 0.07900
C 	C 	0.71520 0.13180 0.24180 0.32900
C 	C 	0.17690 0.48020 0.91360 -0.05000
H 	H 	0.20620 0.47130 0.94630 0.05000
C 	C 	0.18020 0.47240 0.83130 0.10900
C 	C 	0.09820 0.51970 0.82460 -0.01100
H 	H 	0.06990 0.53450 0.79320 0.03500
C 	C 	0.09430 0.52050 0.90080 -0.01700
H 	H 	0.06390 0.53570 0.92260 0.04400
C 	C 	0.13870 0.55230 0.65880 -0.18800
H 	H 	0.13890 0.59040 0.68640 0.10900
C 	C 	0.13880 0.55490 0.57790 0.11900
H 	H 	0.14070 0.59360 0.55170 0.01500
C 	C 	0.25720 0.41080 0.83610 -0.01200
H 	H 	0.24070 0.37330 0.85660 0.04200
H 	H 	0.27270 0.43460 0.88030 0.03900
Zn	Zn	0.63350 0.92747 0.30779 1.21900
O 	O 	0.63410 0.05120 0.41910 -0.50900
O 	O 	0.56550 0.88710 0.29440 -0.46800
O 	O 	0.53460 0.93050 0.18450 -0.47900
O 	O 	0.18460 0.63290 0.30250 -0.46800
O 	O 	0.20630 0.59150 0.18750 -0.50800
O 	O 	0.71820 0.94980 0.79190 -0.19400
O 	O 	0.41320 0.76690 0.38540 -0.17900
C 	C 	0.52980 0.89350 0.24230 0.35700
C 	C 	0.48530 0.85330 0.24110 -0.06100
C 	C 	0.47320 0.82240 0.30870 -0.08700
H 	H 	0.49590 0.82440 0.35330 0.09100
C 	C 	0.42800 0.78860 0.31100 0.13500
C 	C 	0.39480 0.78560 0.24570 -0.06900
C 	C 	0.40690 0.81650 0.17810 -0.02700
H 	H 	0.38420 0.81450 0.13350 0.04100
C 	C 	0.45210 0.85030 0.17580 -0.02600
H 	H 	0.46030 0.87140 0.12970 0.05100
C 	C 	0.34820 0.74440 0.24270 0.10900
C 	C 	0.31390 0.75310 0.30100 -0.13900
H 	H 	0.32050 0.78360 0.33990 0.09700
C 	C 	0.26970 0.71710 0.30250 0.07100
H 	H 	0.24630 0.72300 0.34240 0.02800
C 	C 	0.26000 0.67240 0.24560 -0.14300
C 	C 	0.29430 0.66380 0.18720 0.06200
H 	H 	0.28770 0.63320 0.14840 0.00700
C 	C 	0.33850 0.69980 0.18580 -0.14600
H 	H 	0.36190 0.69380 0.14590 0.08100
C 	C 	0.21520 0.63180 0.24180 0.33000
C 	C 	0.67690 0.98020 0.91360 -0.18000
H 	H 	0.70620 0.97130 0.94630 0.10200
C 	C 	0.68020 0.97240 0.83130 0.19900
C 	C 	0.59820 0.01970 0.82460 -0.12400
H 	H 	0.56990 0.03450 0.79320 0.06500
C 	C 	0.59430 0.02050 0.90080 -0.11100
H 	H 	0.56390 0.03570 0.92260 0.06800
C 	C 	0.63870 0.05230 0.65880 -0.18000
H 	H 	0.63890 0.09040 0.68640 0.10800
C 	C 	0.63880 0.05490 0.57790 0.11500
H 	H 	0.64070 0.09360 0.55170 0.01500
C 	C 	0.75720 0.91080 0.83610 -0.00100
H 	H 	0.74070 0.87330 0.85660 0.04000
H 	H 	0.77270 0.93460 0.88030 0.04200
Zn	Zn	0.13350 0.57253 0.30779 1.21500
O 	O 	0.13410 0.44880 0.41910 -0.51300
O 	O 	0.06550 0.61290 0.29440 -0.47200
O 	O 	0.03460 0.56950 0.18450 -0.49200
O 	O 	0.68460 0.86710 0.30250 -0.46500
O 	O 	0.70630 0.90850 0.18750 -0.49600
O 	O 	0.21820 0.55020 0.79190 -0.18000
O 	O 	0.91320 0.73310 0.38540 -0.17700
C 	C 	0.02980 0.60650 0.24230 0.35700
C 	C 	0.98530 0.64670 0.24110 -0.06400
C 	C 	0.97320 0.67760 0.30870 -0.08600
H 	H 	0.99590 0.67560 0.35330 0.09000
C 	C 	0.92800 0.71140 0.31100 0.13500
C 	C 	0.89480 0.71440 0.24570 -0.06800
C 	C 	0.90690 0.68350 0.17810 -0.02600
H 	H 	0.88420 0.68550 0.13350 0.04200
C 	C 	0.95210 0.64970 0.17580 -0.02400
H 	H 	0.96030 0.62860 0.12970 0.05000
C 	C 	0.84820 0.75560 0.24270 0.10900
C 	C 	0.81390 0.74690 0.30100 -0.13800
H 	H 	0.82050 0.71640 0.33990 0.09600
C 	C 	0.76970 0.78290 0.30250 0.07000
H 	H 	0.74630 0.77700 0.34240 0.02800
C 	C 	0.76000 0.82760 0.24560 -0.13900
C 	C 	0.79430 0.83620 0.18720 0.06100
H 	H 	0.78770 0.86680 0.14840 0.01000
C 	C 	0.83850 0.80020 0.18580 -0.14400
H 	H 	0.86190 0.80620 0.14590 0.08200
C 	C 	0.71520 0.86820 0.24180 0.32800
C 	C 	0.17690 0.51980 0.91360 -0.05100
H 	H 	0.20620 0.52870 0.94630 0.05000
C 	C 	0.18020 0.52760 0.83130 0.10900
C 	C 	0.09820 0.48030 0.82460 -0.01100
H 	H 	0.06990 0.46550 0.79320 0.03500
C 	C 	0.09430 0.47950 0.90080 -0.01700
H 	H 	0.06390 0.46430 0.92260 0.04300
C 	C 	0.13870 0.44770 0.65880 -0.18800
H 	H 	0.13890 0.40960 0.68640 0.10900
C 	C 	0.13880 0.44510 0.57790 0.11900
H 	H 	0.14070 0.40640 0.55170 0.01400
C 	C 	0.25720 0.58920 0.83610 -0.01200
H 	H 	0.24070 0.62670 0.85660 0.04200
H 	H 	0.27270 0.56540 0.88030 0.03900
Zn	Zn	0.63350 0.07253 0.30779 1.21300
O 	O 	0.63410 0.94880 0.41910 -0.48500
O 	O 	0.56550 0.11290 0.29440 -0.47500
O 	O 	0.53460 0.06950 0.18450 -0.49700
O 	O 	0.18460 0.36710 0.30250 -0.47000
O 	O 	0.20630 0.40850 0.18750 -0.50900
O 	O 	0.71820 0.05020 0.79190 -0.16600
O 	O 	0.41320 0.23310 0.38540 -0.18000
C 	C 	0.52980 0.10650 0.24230 0.35700
C 	C 	0.48530 0.14670 0.24110 -0.06500
C 	C 	0.47320 0.17760 0.30870 -0.08600
H 	H 	0.49590 0.17560 0.35330 0.08800
C 	C 	0.42800 0.21140 0.31100 0.13400
C 	C 	0.39480 0.21440 0.24570 -0.06900
C 	C 	0.40690 0.18350 0.17810 -0.02500
H 	H 	0.38420 0.18550 0.13350 0.04200
C 	C 	0.45210 0.14970 0.17580 -0.02300
H 	H 	0.46030 0.12860 0.12970 0.05100
C 	C 	0.34820 0.25560 0.24270 0.10900
C 	C 	0.31390 0.24690 0.30100 -0.14000
H 	H 	0.32050 0.21640 0.33990 0.09600
C 	C 	0.26970 0.28290 0.30250 0.07000
H 	H 	0.24630 0.27700 0.34240 0.02600
C 	C 	0.26000 0.32760 0.24560 -0.14300
C 	C 	0.29430 0.33620 0.18720 0.06200
H 	H 	0.28770 0.36680 0.14840 0.00600
C 	C 	0.33850 0.30020 0.18580 -0.14600
H 	H 	0.36190 0.30620 0.14590 0.08000
C 	C 	0.21520 0.36820 0.24180 0.32900
C 	C 	0.67690 0.01980 0.91360 0.10200
H 	H 	0.70620 0.02870 0.94630 -0.00500
C 	C 	0.68020 0.02760 0.83130 0.03000
C 	C 	0.59820 0.98030 0.82460 0.11200
H 	H 	0.56990 0.96550 0.79320 0.00500
C 	C 	0.59430 0.97950 0.90080 0.10100
H 	H 	0.56390 0.96430 0.92260 0.01600
C 	C 	0.63870 0.94770 0.65880 -0.15300
H 	H 	0.63890 0.90960 0.68640 0.09900
C 	C 	0.63880 0.94510 0.57790 0.13900
H 	H 	0.64070 0.90640 0.55170 0.01200
C 	C 	0.75720 0.08920 0.83610 -0.02200
H 	H 	0.74070 0.12670 0.85660 0.04500
H 	H 	0.77270 0.06540 0.88030 0.03700
Zn	Zn	0.07838 0.50000 0.17032 1.22300
Zn	Zn	0.20014 0.50000 0.18464 1.19500
O 	O 	0.13640 0.50000 0.24300 -0.95100
O 	O 	0.08880 0.50000 0.06190 -0.52300
O 	O 	0.17160 0.50000 0.07150 -0.51800
C 	C 	0.13110 0.50000 0.03510 0.44700
C 	C 	0.13270 0.50000 0.94680 -0.07700
C 	C 	0.13850 0.50000 0.78960 -0.09800
C 	C 	0.13850 0.50000 0.70010 0.17000
C 	C 	0.13610 0.50000 0.53690 -0.19000
C 	C 	0.13410 0.50000 0.45160 0.45100
Zn	Zn	0.57838 0.00000 0.17032 1.21800
Zn	Zn	0.70014 0.00000 0.18464 1.19000
O 	O 	0.63640 -0.00000 0.24300 -0.96400
O 	O 	0.58880 -0.00000 0.06190 -0.53500
O 	O 	0.67160 -0.00000 0.07150 -0.53100
C 	C 	0.63110 -0.00000 0.03510 0.45900
C 	C 	0.63270 -0.00000 0.94680 -0.11700
C 	C 	0.63850 -0.00000 0.78960 -0.12200
C 	C 	0.63850 -0.00000 0.70010 0.13700
C 	C 	0.63610 -0.00000 0.53690 -0.20900
C 	C 	0.63410 -0.00000 0.45160 0.42100
Zn	Zn	0.86650 0.42747 0.69221 1.21500
O 	O 	0.86590 0.55120 0.58090 -0.51300
O 	O 	0.93450 0.38710 0.70560 -0.47300
O 	O 	0.96540 0.43050 0.81550 -0.49300
O 	O 	0.31540 0.13290 0.69750 -0.47100
O 	O 	0.29370 0.09150 0.81250 -0.51000
O 	O 	0.78180 0.44980 0.20810 -0.18000
O 	O 	0.08680 0.26690 0.61460 -0.18100
C 	C 	0.97020 0.39350 0.75770 0.35700
C 	C 	0.01470 0.35330 0.75890 -0.06500
C 	C 	0.02680 0.32240 0.69130 -0.08700
H 	H 	0.00410 0.32440 0.64670 0.08800
C 	C 	0.07200 0.28860 0.68900 0.13300
C 	C 	0.10520 0.28560 0.75430 -0.06900
C 	C 	0.09310 0.31650 0.82190 -0.02700
H 	H 	0.11580 0.31450 0.86650 0.04100
C 	C 	0.04790 0.35030 0.82420 -0.02500
H 	H 	0.03970 0.37140 0.87030 0.05000
C 	C 	0.15180 0.24440 0.75730 0.10900
C 	C 	0.18610 0.25310 0.69900 -0.14000
H 	H 	0.17950 0.28360 0.66010 0.09600
C 	C 	0.23030 0.21710 0.69750 0.07000
H 	H 	0.25370 0.22300 0.65760 0.02700
C 	C 	0.24000 0.17240 0.75440 -0.14400
C 	C 	0.20570 0.16380 0.81280 0.06100
H 	H 	0.21230 0.13320 0.85160 0.00400
C 	C 	0.16150 0.19980 0.81420 -0.14700
H 	H 	0.13810 0.19380 0.85410 0.07900
C 	C 	0.28480 0.13180 0.75820 0.32900
C 	C 	0.82310 0.48020 0.08640 -0.05000
H 	H 	0.79380 0.47130 0.05370 0.05000
C 	C 	0.81980 0.47240 0.16870 0.10900
C 	C 	0.90180 0.51970 0.17540 -0.01100
H 	H 	0.93010 0.53450 0.20680 0.03500
C 	C 	0.90570 0.52050 0.09920 -0.01700
H 	H 	0.93610 0.53570 0.07740 0.04400
C 	C 	0.86130 0.55230 0.34120 -0.18800
H 	H 	0.86110 0.59040 0.31360 0.10900
C 	C 	0.86120 0.55490 0.42210 0.11900
H 	H 	0.85930 0.59360 0.44830 0.01500
C 	C 	0.74280 0.41080 0.16390 -0.01200
H 	H 	0.75930 0.37330 0.14340 0.04200
H 	H 	0.72730 0.43460 0.11970 0.03900
Zn	Zn	0.36650 0.92747 0.69221 1.21900
O 	O 	0.36590 0.05120 0.58090 -0.50900
O 	O 	0.43450 0.88710 0.70560 -0.46800
O 	O 	0.46540 0.93050 0.81550 -0.47900
O 	O 	0.81540 0.63290 0.69750 -0.46800
O 	O 	0.79370 0.59150 0.81250 -0.50800
O 	O 	0.28180 0.94980 0.20810 -0.19400
O 	O 	0.58680 0.76690 0.61460 -0.17900
C 	C 	0.47020 0.89350 0.75770 0.35700
C 	C 	0.51470 0.85330 0.75890 -0.06100
C 	C 	0.52680 0.82240 0.69130 -0.08700
H 	H 	0.50410 0.82440 0.64670 0.09100
C 	C 	0.57200 0.78860 0.68900 0.13500
C 	C 	0.60520 0.78560 0.75430 -0.06900
C 	C 	0.59310 0.81650 0.82190 -0.02700
H 	H 	0.61580 0.81450 0.86650 0.04100
C 	C 	0.54790 0.85030 0.82420 -0.02600
H 	H 	0.53970 0.87140 0.87030 0.05100
C 	C 	0.65180 0.74440 0.75730 0.10900
C 	C 	0.68610 0.75310 0.69900 -0.13900
H 	H 	0.67950 0.78360 0.66010 0.09700
C 	C 	0.73030 0.71710 0.69750 0.07100
H 	H 	0.75370 0.72300 0.65760 0.02800
C 	C 	0.74000 0.67240 0.75440 -0.14300
C 	C 	0.70570 0.66380 0.81280 0.06200
H 	H 	0.71230 0.63320 0.85160 0.00700
C 	C 	0.66150 0.69980 0.81420 -0.14600
H 	H 	0.63810 0.69380 0.85410 0.08100
C 	C 	0.78480 0.63180 0.75820 0.33000
C 	C 	0.32310 0.98020 0.08640 -0.18000
H 	H 	0.29380 0.97130 0.05370 0.10200
C 	C 	0.31980 0.97240 0.16870 0.19900
C 	C 	0.40180 0.01970 0.17540 -0.12400
H 	H 	0.43010 0.03450 0.20680 0.06500
C 	C 	0.40570 0.02050 0.09920 -0.11100
H 	H 	0.43610 0.03570 0.07740 0.06800
C 	C 	0.36130 0.05230 0.34120 -0.18000
H 	H 	0.36110 0.09040 0.31360 0.10800
C 	C 	0.36120 0.05490 0.42210 0.11500
H 	H 	0.35930 0.09360 0.44830 0.01500
C 	C 	0.24280 0.91080 0.16390 -0.00100
H 	H 	0.25930 0.87330 0.14340 0.04000
H 	H 	0.22730 0.93460 0.11970 0.04200
Zn	Zn	0.86650 0.57253 0.69221 1.21500
O 	O 	0.86590 0.44880 0.58090 -0.51300
O 	O 	0.93450 0.61290 0.70560 -0.47200
O 	O 	0.96540 0.56950 0.81550 -0.49200
O 	O 	0.31540 0.86710 0.69750 -0.46500
O 	O 	0.29370 0.90850 0.81250 -0.49600
O 	O 	0.78180 0.55020 0.20810 -0.18000
O 	O 	0.08680 0.73310 0.61460 -0.17700
C 	C 	0.97020 0.60650 0.75770 0.35700
C 	C 	0.01470 0.64670 0.75890 -0.06400
C 	C 	0.02680 0.67760 0.69130 -0.08600
H 	H 	0.00410 0.67560 0.64670 0.09000
C 	C 	0.07200 0.71140 0.68900 0.13500
C 	C 	0.10520 0.71440 0.75430 -0.06800
C 	C 	0.09310 0.68350 0.82190 -0.02600
H 	H 	0.11580 0.68550 0.86650 0.04200
C 	C 	0.04790 0.64970 0.82420 -0.02400
H 	H 	0.03970 0.62860 0.87030 0.05000
C 	C 	0.15180 0.75560 0.75730 0.10900
C 	C 	0.18610 0.74690 0.69900 -0.13800
H 	H 	0.17950 0.71640 0.66010 0.09600
C 	C 	0.23030 0.78290 0.69750 0.07000
H 	H 	0.25370 0.77700 0.65760 0.02800
C 	C 	0.24000 0.82760 0.75440 -0.13900
C 	C 	0.20570 0.83620 0.81280 0.06100
H 	H 	0.21230 0.86680 0.85160 0.01000
C 	C 	0.16150 0.80020 0.81420 -0.14400
H 	H 	0.13810 0.80620 0.85410 0.08200
C 	C 	0.28480 0.86820 0.75820 0.32800
C 	C 	0.82310 0.51980 0.08640 -0.05100
H 	H 	0.79380 0.52870 0.05370 0.05000
C 	C 	0.81980 0.52760 0.16870 0.10900
C 	C 	0.90180 0.48030 0.17540 -0.01100
H 	H 	0.93010 0.46550 0.20680 0.03500
C 	C 	0.90570 0.47950 0.09920 -0.01700
H 	H 	0.93610 0.46430 0.07740 0.04300
C 	C 	0.86130 0.44770 0.34120 -0.18800
H 	H 	0.86110 0.40960 0.31360 0.10900
C 	C 	0.86120 0.44510 0.42210 0.11900
H 	H 	0.85930 0.40640 0.44830 0.01400
C 	C 	0.74280 0.58920 0.16390 -0.01200
H 	H 	0.75930 0.62670 0.14340 0.04200
H 	H 	0.72730 0.56540 0.11970 0.03900
Zn	Zn	0.36650 0.07253 0.69221 1.21300
O 	O 	0.36590 0.94880 0.58090 -0.48500
O 	O 	0.43450 0.11290 0.70560 -0.47500
O 	O 	0.46540 0.06950 0.81550 -0.49700
O 	O 	0.81540 0.36710 0.69750 -0.47000
O 	O 	0.79370 0.40850 0.81250 -0.50900
O 	O 	0.28180 0.05020 0.20810 -0.16600
O 	O 	0.58680 0.23310 0.61460 -0.18000
C 	C 	0.47020 0.10650 0.75770 0.35700
C 	C 	0.51470 0.14670 0.75890 -0.06500
C 	C 	0.52680 0.17760 0.69130 -0.08600
H 	H 	0.50410 0.17560 0.64670 0.08800
C 	C 	0.57200 0.21140 0.68900 0.13400
C 	C 	0.60520 0.21440 0.75430 -0.06900
C 	C 	0.59310 0.18350 0.82190 -0.02500
H 	H 	0.61580 0.18550 0.86650 0.04200
C 	C 	0.54790 0.14970 0.82420 -0.02300
H 	H 	0.53970 0.12860 0.87030 0.05100
C 	C 	0.65180 0.25560 0.75730 0.10900
C 	C 	0.68610 0.24690 0.69900 -0.14000
H 	H 	0.67950 0.21640 0.66010 0.09600
C 	C 	0.73030 0.28290 0.69750 0.07000
H 	H 	0.75370 0.27700 0.65760 0.02600
C 	C 	0.74000 0.32760 0.75440 -0.14300
C 	C 	0.70570 0.33620 0.81280 0.06200
H 	H 	0.71230 0.36680 0.85160 0.00600
C 	C 	0.66150 0.30020 0.81420 -0.14600
H 	H 	0.63810 0.30620 0.85410 0.08000
C 	C 	0.78480 0.36820 0.75820 0.32900
C 	C 	0.32310 0.01980 0.08640 0.10200
H 	H 	0.29380 0.02870 0.05370 -0.00500
C 	C 	0.31980 0.02760 0.16870 0.03000
C 	C 	0.40180 0.98030 0.17540 0.11200
H 	H 	0.43010 0.96550 0.20680 0.00500
C 	C 	0.40570 0.97950 0.09920 0.10100
H 	H 	0.43610 0.96430 0.07740 0.01600
C 	C 	0.36130 0.94770 0.34120 -0.15300
H 	H 	0.36110 0.90960 0.31360 0.09900
C 	C 	0.36120 0.94510 0.42210 0.13900
H 	H 	0.35930 0.90640 0.44830 0.01200
C 	C 	0.24280 0.08920 0.16390 -0.02200
H 	H 	0.25930 0.12670 0.14340 0.04500
H 	H 	0.22730 0.06540 0.11970 0.03700
Zn	Zn	0.92162 0.50000 0.82968 1.22300
Zn	Zn	0.79986 0.50000 0.81536 1.19500
O 	O 	0.86360 0.50000 0.75700 -0.95100
O 	O 	0.91120 0.50000 0.93810 -0.52300
O 	O 	0.82840 0.50000 0.92850 -0.51800
C 	C 	0.86890 0.50000 0.96490 0.44700
C 	C 	0.86730 0.50000 0.05320 -0.07700
C 	C 	0.86150 0.50000 0.21040 -0.09800
C 	C 	0.86150 0.50000 0.29990 0.17000
C 	C 	0.86390 0.50000 0.46310 -0.19000
C 	C 	0.86590 0.50000 0.54840 0.45100
Zn	Zn	0.42162 -0.00000 0.82968 1.21800
Zn	Zn	0.29986 -0.00000 0.81536 1.19000
O 	O 	0.36360 -0.00000 0.75700 -0.96400
O 	O 	0.41120 0.00000 0.93810 -0.53500
O 	O 	0.32840 0.00000 0.92850 -0.53100
C 	C 	0.36890 -0.00000 0.96490 0.45900
C 	C 	0.36730 0.00000 0.05320 -0.11700
C 	C 	0.36150 -0.00000 0.21040 -0.12200
C 	C 	0.36150 -0.00000 0.29990 0.13700
C 	C 	0.36390 -0.00000 0.46310 -0.20900
C 	C 	0.36590 0.00000 0.54840 0.42100
