data_crystal

_cell_length_a 20.62700
_cell_length_b 20.62700
_cell_length_c 20.62700
_cell_angle_alpha 60.00000
_cell_angle_beta  60.00000
_cell_angle_gamma 60.00000

_symmetry_space_group_name_	'P 1'
_symmetry_space_group_name_H-M	'P 1'

loop_
_symmetry_equiv_pos_as_xyz
  x,y,z

loop_
_atom_site_label
_atom_site_type_symbol
_atom_site_fract_x
_atom_site_fract_y
_atom_site_fract_z
_atom_site_charge
Zn	Zn	0.13471 0.28843 0.28843 1.21700
Zn	Zn	0.28843 0.13471 0.28843 1.21800
Zn	Zn	0.28843 0.28843 0.13471 1.21700
Zn	Zn	0.28843 0.28843 0.28843 1.21700
Zn	Zn	0.71157 0.86529 0.71157 1.21600
Zn	Zn	0.86529 0.71157 0.71157 1.21600
Zn	Zn	0.71157 0.71157 0.86529 1.21700
Zn	Zn	0.71157 0.71157 0.71157 1.21600
C 	C 	0.96900 0.03100 0.50000 -0.04900
C 	C 	0.03100 0.96900 0.50000 0.00600
C 	C 	0.50000 0.50000 0.96900 0.00700
C 	C 	0.50000 0.50000 0.03100 -0.04700
C 	C 	0.96900 0.50000 0.50000 -0.05800
C 	C 	0.03100 0.50000 0.50000 0.01300
C 	C 	0.50000 0.96900 0.03100 0.00000
C 	C 	0.50000 0.03100 0.96900 -0.05100
C 	C 	0.96900 0.50000 0.03100 -0.00400
C 	C 	0.03100 0.50000 0.96900 -0.04300
C 	C 	0.50000 0.03100 0.50000 0.01100
C 	C 	0.50000 0.96900 0.50000 -0.05600
C 	C 	0.12720 0.12720 0.37280 0.45100
C 	C 	0.07800 0.07800 0.42200 -0.14700
C 	C 	0.37280 0.37280 0.12720 0.45400
C 	C 	0.42200 0.42200 0.07800 -0.15900
C 	C 	0.12720 0.37280 0.37280 0.45100
C 	C 	0.07800 0.42200 0.42200 -0.14900
C 	C 	0.37280 0.12720 0.12720 0.45800
C 	C 	0.42200 0.07800 0.07800 -0.15900
C 	C 	0.12720 0.37280 0.12720 0.45300
C 	C 	0.07800 0.42200 0.07800 -0.15400
C 	C 	0.37280 0.12720 0.37280 0.45100
C 	C 	0.42200 0.07800 0.42200 -0.15000
C 	C 	0.87280 0.87280 0.62720 0.45700
C 	C 	0.92200 0.92200 0.57800 -0.16800
C 	C 	0.62720 0.62720 0.87280 0.45200
C 	C 	0.57800 0.57800 0.92200 -0.15400
C 	C 	0.62720 0.87280 0.62720 0.45600
C 	C 	0.57800 0.92200 0.57800 -0.16300
C 	C 	0.87280 0.62720 0.87280 0.46100
C 	C 	0.92200 0.57800 0.92200 -0.16500
C 	C 	0.62720 0.87280 0.87280 0.46100
C 	C 	0.57800 0.92200 0.92200 -0.16400
C 	C 	0.87280 0.62720 0.62720 0.45600
C 	C 	0.92200 0.57800 0.57800 -0.16500
C 	C 	0.97640 0.12880 0.44740 0.11900
S 	S 	0.12880 0.97640 0.44740 0.02600
S 	S 	0.44740 0.44740 0.97640 0.03200
C 	C 	0.44740 0.44740 0.12880 0.12700
C 	C 	0.97640 0.44740 0.44740 0.11400
S 	S 	0.12880 0.44740 0.44740 0.03100
S 	S 	0.44740 0.97640 0.12880 0.02700
C 	C 	0.44740 0.12880 0.97640 0.13500
S 	S 	0.97640 0.44740 0.12880 0.02300
C 	C 	0.12880 0.44740 0.97640 0.13200
S 	S 	0.44740 0.12880 0.44740 0.03100
C 	C 	0.44740 0.97640 0.44740 0.11700
C 	C 	0.87120 0.02360 0.55260 0.13400
S 	S 	0.02360 0.87120 0.55260 0.03900
C 	C 	0.55260 0.55260 0.02360 0.12300
S 	S 	0.55260 0.55260 0.87120 0.02900
S 	S 	0.55260 0.02360 0.55260 0.03400
C 	C 	0.55260 0.87120 0.55260 0.13400
C 	C 	0.02360 0.55260 0.87120 0.13900
S 	S 	0.87120 0.55260 0.02360 0.03100
C 	C 	0.55260 0.02360 0.87120 0.14200
S 	S 	0.55260 0.87120 0.02360 0.03100
C 	C 	0.87120 0.55260 0.55260 0.13400
S 	S 	0.02360 0.55260 0.55260 0.03900
O 	O 	0.25000 0.25000 0.25000 -0.95500
O 	O 	0.75000 0.75000 0.75000 -0.95400
O 	O 	0.09450 0.20050 0.35250 -0.53100
O 	O 	0.20050 0.09450 0.35250 -0.52700
O 	O 	0.35250 0.35250 0.09450 -0.53100
O 	O 	0.35250 0.35250 0.20050 -0.53200
O 	O 	0.09450 0.35250 0.35250 -0.53500
O 	O 	0.20050 0.35250 0.35250 -0.52700
O 	O 	0.35250 0.09450 0.20050 -0.52900
O 	O 	0.35250 0.20050 0.09450 -0.55400
O 	O 	0.09450 0.35250 0.20050 -0.52800
O 	O 	0.20050 0.35250 0.09450 -0.53500
O 	O 	0.35250 0.20050 0.35250 -0.52700
O 	O 	0.35250 0.09450 0.35250 -0.53500
O 	O 	0.79950 0.90550 0.64750 -0.53800
O 	O 	0.90550 0.79950 0.64750 -0.53300
O 	O 	0.64750 0.64750 0.90550 -0.53000
O 	O 	0.64750 0.64750 0.79950 -0.52900
O 	O 	0.64750 0.90550 0.64750 -0.53300
O 	O 	0.64750 0.79950 0.64750 -0.53600
O 	O 	0.90550 0.64750 0.79950 -0.56000
O 	O 	0.79950 0.64750 0.90550 -0.53000
O 	O 	0.64750 0.90550 0.79950 -0.56100
O 	O 	0.64750 0.79950 0.90550 -0.52900
O 	O 	0.79950 0.64750 0.64750 -0.53500
O 	O 	0.90550 0.64750 0.64750 -0.53200
C 	C 	0.44828 0.44828 0.18318 -0.24000
C 	C 	0.55172 0.55172 0.07973 -0.23600
H 	H 	0.48116 0.48941 0.16342 0.05700
H 	H 	0.47978 0.38569 0.21764 0.07700
H 	H 	0.38476 0.47060 0.22285 0.07900
H 	H 	0.52027 0.50933 0.13391 0.05500
H 	H 	0.51879 0.61401 0.08395 0.07600
H 	H 	0.61524 0.53096 0.07746 0.07700
C 	C 	0.95328 0.42512 0.42512 -0.24000
C 	C 	0.81682 0.55172 0.55172 -0.25800
H 	H 	0.97070 0.35770 0.45232 0.08000
H 	H 	0.98017 0.44279 0.35767 0.08500
H 	H 	0.88584 0.45258 0.44309 0.06600
H 	H 	0.81035 0.49054 0.58974 0.07500
H 	H 	0.82420 0.56535 0.48808 0.07200
H 	H 	0.76154 0.59841 0.57648 0.08300
C 	C 	0.42512 0.19649 0.95328 -0.27700
C 	C 	0.57488 0.04672 0.80351 -0.28700
H 	H 	0.40567 0.21863 0.90076 0.07500
H 	H 	0.47484 0.21893 0.93345 0.08200
H 	H 	0.52267 0.09167 0.78130 0.08000
H 	H 	0.61960 0.07653 0.78116 0.08000
C 	C 	0.42512 0.95328 0.42512 -0.24300
C 	C 	0.55172 0.81682 0.55172 -0.25900
H 	H 	0.44327 0.88582 0.45242 0.06800
H 	H 	0.45215 0.97089 0.35768 0.08300
H 	H 	0.35765 0.98000 0.44298 0.08700
H 	H 	0.58352 0.76084 0.59273 0.08300
H 	H 	0.58316 0.81471 0.48866 0.07400
H 	H 	0.48762 0.82053 0.57291 0.07400
C 	C 	0.18318 0.44828 0.92027 -0.25400
C 	C 	0.04672 0.57488 0.80351 -0.28400
H 	H 	0.16407 0.47422 0.86662 0.07200
H 	H 	0.22651 0.38514 0.92522 0.07800
H 	H 	0.21333 0.48634 0.91285 0.07800
H 	H 	0.07679 0.52267 0.78116 0.08200
H 	H 	0.09145 0.60463 0.78130 0.07900
C 	C 	0.92027 0.18318 0.44828 -0.24000
C 	C 	0.81682 0.07973 0.55172 -0.25200
H 	H 	0.86812 0.16567 0.50121 0.06300
H 	H 	0.90755 0.20768 0.39102 0.07400
H 	H 	0.92902 0.23056 0.45347 0.07400
H 	H 	0.76327 0.06519 0.60463 0.08100
H 	H 	0.80450 0.10388 0.49432 0.07500
H 	H 	0.82832 0.12625 0.55535 0.06200
H 	H 	0.37256 0.21958 0.00250 0.12000
H 	H 	0.99505 0.61963 0.78040 0.13000
H 	H 	0.60466 0.99509 0.78040 0.13000
