data_crystal

_cell_length_a 13.79090
_cell_length_b 16.28790
_cell_length_c 22.01700
_cell_angle_alpha 90.00000
_cell_angle_beta  90.00000
_cell_angle_gamma 90.00000

_symmetry_space_group_name_	'P 1'
_symmetry_space_group_name_H-M	'P 1'

loop_
_symmetry_equiv_pos_as_xyz
  x,y,z

loop_
_atom_site_label
_atom_site_type_symbol
_atom_site_fract_x
_atom_site_fract_y
_atom_site_fract_z
_atom_site_charge
Mg	Mg	0.22210 0.55091 0.75915 1.46500
Mg	Mg	0.72210 0.44909 0.74085 1.46500
Mg	Mg	0.77790 0.05091 0.24085 1.46500
Mg	Mg	0.27790 0.94909 0.25915 1.46600
Mg	Mg	0.77790 0.44909 0.24085 1.46600
Mg	Mg	0.27790 0.55091 0.25915 1.46600
Mg	Mg	0.22210 0.94909 0.75915 1.46600
Mg	Mg	0.72210 0.05091 0.74085 1.46600
Zn	Zn	0.97979 0.49791 0.66883 1.23800
Zn	Zn	0.47979 0.50209 0.83117 1.23900
Zn	Zn	0.02021 0.99791 0.33117 1.23600
Zn	Zn	0.52021 0.00209 0.16883 1.23800
Zn	Zn	0.02021 0.50209 0.33117 1.23800
Zn	Zn	0.52021 0.49791 0.16883 1.23900
Zn	Zn	0.97979 0.00209 0.66883 1.23600
Zn	Zn	0.47979 0.99791 0.83117 1.23900
H 	H 	0.35922 0.58260 0.61746 0.01800
H 	H 	0.49485 0.66489 0.56438 0.05200
H 	H 	0.52094 0.63673 0.48408 0.05100
H 	H 	0.53433 0.55869 0.54528 0.05600
H 	H 	0.39295 0.58444 0.42097 0.02100
H 	H 	0.11382 0.51897 0.50132 0.03400
H 	H 	0.75801 0.61662 0.84483 0.02600
H 	H 	0.66695 0.68407 0.91755 0.05500
H 	H 	0.17861 0.38409 0.85997 0.02900
H 	H 	0.31499 0.28393 0.91498 0.05600
H 	H 	0.85922 0.41740 0.88254 0.01600
H 	H 	0.01247 0.39652 0.92159 0.05800
H 	H 	0.03856 0.42468 0.00189 0.05600
H 	H 	0.99909 0.31848 0.98279 0.04900
H 	H 	0.89295 0.41556 0.07903 0.02100
H 	H 	0.61382 0.48103 0.99868 0.03300
H 	H 	0.25801 0.38338 0.65517 0.02700
H 	H 	0.16180 0.18407 0.58511 0.05700
H 	H 	0.67861 0.61591 0.64003 0.02800
H 	H 	0.75835 0.68402 0.56131 0.05400
H 	H 	0.64078 0.08260 0.38254 0.01700
H 	H 	0.46038 0.05932 0.48120 0.05800
H 	H 	0.49782 0.13450 0.42199 0.05400
H 	H 	0.49168 0.16650 0.50308 0.05000
H 	H 	0.60705 0.08444 0.57903 0.02100
H 	H 	0.88618 0.01897 0.49868 0.03200
H 	H 	0.24199 0.11662 0.15517 0.02700
H 	H 	0.28230 0.28052 0.05625 0.05200
H 	H 	0.82139 0.88409 0.14003 0.03000
H 	H 	0.79616 0.78393 0.03848 0.05200
H 	H 	0.14078 0.91740 0.11746 0.01700
H 	H 	0.96877 0.89429 -0.01552 0.06300
H 	H 	0.97491 0.92628 1.06556 0.06300
H 	H 	0.00620 0.81911 0.04369 0.05200
H 	H 	0.10705 0.91556 0.92097 0.02000
H 	H 	0.38618 0.98103 0.00132 0.03400
H 	H 	0.74199 0.88338 0.34483 0.02800
H 	H 	0.83305 0.68407 0.41755 0.05600
H 	H 	0.32139 0.11591 0.35997 0.02900
H 	H 	0.23953 0.18402 0.43780 0.05500
H 	H 	0.64078 0.41740 0.38254 0.01700
H 	H 	0.50091 0.31848 0.48279 0.05000
H 	H 	0.48753 0.39652 0.42159 0.05500
H 	H 	0.46144 0.42468 0.50189 0.05500
H 	H 	0.60705 0.41556 0.57903 0.02100
H 	H 	0.88618 0.48103 0.49868 0.03300
H 	H 	0.24199 0.38338 0.15517 0.02700
H 	H 	0.33820 0.18407 0.08511 0.05600
H 	H 	0.82139 0.61591 0.14003 0.02800
H 	H 	0.74165 0.68402 0.06131 0.05400
H 	H 	0.14078 0.58260 0.11746 0.01700
H 	H 	0.97906 0.63673 -0.01592 0.05600
H 	H 	1.00515 0.66489 1.06438 0.05400
H 	H 	-0.03433 0.55869 0.04528 0.05700
H 	H 	0.10705 0.58444 0.92097 0.02100
H 	H 	0.38618 0.51897 0.00132 0.03400
H 	H 	0.74199 0.61662 0.34483 0.02600
H 	H 	0.88895 0.78052 0.38869 0.05800
H 	H 	0.32139 0.38409 0.35997 0.02900
H 	H 	0.18501 0.28393 0.41498 0.05600
H 	H 	0.35922 0.91740 0.61746 0.01700
H 	H 	0.52509 0.92628 0.56556 0.05600
H 	H 	0.53123 0.89429 0.48448 0.05300
H 	H 	0.49380 0.81911 0.54369 0.05100
H 	H 	0.39295 0.91556 0.42097 0.02100
H 	H 	0.11382 0.98103 0.50132 0.03200
H 	H 	0.75801 0.88338 0.84483 0.02700
H 	H 	0.61105 0.78052 0.88869 0.05600
H 	H 	0.17861 0.11591 0.85997 0.03000
H 	H 	0.26047 0.18402 0.93780 0.05500
H 	H 	0.85922 0.08260 0.88254 0.01600
H 	H 	0.00218 0.13450 0.92199 0.06300
H 	H 	0.00832 0.16650 0.00308 0.05600
H 	H 	1.03962 0.05932 0.98120 0.05700
H 	H 	0.89295 0.08444 0.07903 0.02000
H 	H 	0.61382 0.01897 0.99868 0.03400
H 	H 	0.25801 0.11662 0.65517 0.02700
H 	H 	0.21770 0.28052 0.55625 0.05300
H 	H 	0.67861 0.88409 0.64003 0.02900
H 	H 	0.70384 0.78393 0.53848 0.05100
H 	H 	0.93136 0.74960 0.71100 0.02200
H 	H 	0.43136 0.25040 0.78900 0.02100
H 	H 	0.06864 0.25040 0.28900 0.02200
H 	H 	0.56864 0.74960 0.21100 0.02100
H 	H 	0.01763 0.24972 0.72112 0.01800
H 	H 	0.51763 0.75028 0.77888 0.01700
H 	H 	0.98237 0.75028 0.27888 0.01800
H 	H 	0.48237 0.24972 0.22112 0.01700
C 	C 	0.16790 0.53980 0.61940 0.46700
C 	C 	0.23070 0.55090 0.56415 -0.16700
C 	C 	0.32650 0.57440 0.57030 0.02300
C 	C 	0.38360 0.58820 0.52040 -0.00800
C 	C 	0.49040 0.61380 0.52910 -0.14500
C 	C 	0.34540 0.57540 0.46280 0.02100
C 	C 	0.24850 0.55140 0.45610 -0.17200
C 	C 	0.20660 0.54250 0.39390 0.48300
C 	C 	0.19250 0.53910 0.50681 0.09500
C 	C 	0.87470 0.59750 0.74555 0.43200
C 	C 	0.84520 0.67610 0.77506 -0.15500
C 	C 	0.78390 0.67690 0.82410 0.01500
C 	C 	0.07230 0.40270 0.75640 0.43900
C 	C 	0.09670 0.32320 0.78742 -0.15700
C 	C 	0.15420 0.32340 0.83920 0.01200
C 	C 	0.66790 0.46020 0.88060 0.46700
C 	C 	0.73070 0.44910 0.93585 -0.16700
C 	C 	0.82650 0.42560 0.92970 0.02300
C 	C 	0.88360 0.41180 0.97960 -0.00700
C 	C 	0.99040 0.38620 0.97090 -0.15100
C 	C 	0.84540 0.42460 0.03720 0.02100
C 	C 	0.74850 0.44860 0.04390 -0.17200
C 	C 	0.70660 0.45750 0.10610 0.48200
C 	C 	0.69250 0.46090 0.99319 0.09400
C 	C 	0.37470 0.40250 0.75445 0.43200
C 	C 	0.34520 0.32390 0.72494 -0.15500
C 	C 	0.28390 0.32310 0.67590 0.01500
C 	C 	0.57230 0.59730 0.74360 0.43900
C 	C 	0.59670 0.67680 0.71258 -0.15800
C 	C 	0.65420 0.67660 0.66080 0.01300
C 	C 	0.83210 0.03980 0.38060 0.46700
C 	C 	0.76930 0.05090 0.43585 -0.16800
C 	C 	0.67350 0.07440 0.42970 0.02300
C 	C 	0.61640 0.08820 0.47960 -0.00700
C 	C 	0.50960 0.11380 0.47090 -0.14600
C 	C 	0.65460 0.07540 0.53720 0.02100
C 	C 	0.75150 0.05140 0.54390 -0.17300
C 	C 	0.79340 0.04250 0.60610 0.48300
C 	C 	0.80750 0.03910 0.49319 0.09500
C 	C 	0.12530 0.09750 0.25445 0.43200
C 	C 	0.15480 0.17610 0.22494 -0.15400
C 	C 	0.21610 0.17690 0.17590 0.01500
C 	C 	0.92770 0.90270 0.24360 0.43800
C 	C 	0.90330 0.82320 0.21258 -0.15600
C 	C 	0.84580 0.82340 0.16080 0.01300
C 	C 	0.33210 0.96020 0.11940 0.46600
C 	C 	0.26930 0.94910 0.06415 -0.16700
C 	C 	0.17350 0.92560 0.07030 0.02000
C 	C 	0.11640 0.91180 0.02040 -0.00400
C 	C 	0.00960 0.88620 0.02910 -0.16400
C 	C 	0.15460 0.92460 0.96280 0.01800
C 	C 	0.25150 0.94860 0.95610 -0.17300
C 	C 	0.29340 0.95750 0.89390 0.48200
C 	C 	0.30750 0.96090 0.00681 0.09500
C 	C 	0.62530 0.90250 0.24555 0.43200
C 	C 	0.65480 0.82390 0.27506 -0.15400
C 	C 	0.71610 0.82310 0.32410 0.01400
C 	C 	0.42770 0.09730 0.25640 0.43900
C 	C 	0.40330 0.17680 0.28742 -0.15700
C 	C 	0.34580 0.17660 0.33920 0.01200
C 	C 	0.83210 0.46020 0.38060 0.46700
C 	C 	0.76930 0.44910 0.43585 -0.16800
C 	C 	0.67350 0.42560 0.42970 0.02300
C 	C 	0.61640 0.41180 0.47960 -0.00700
C 	C 	0.50960 0.38620 0.47090 -0.14600
C 	C 	0.65460 0.42460 0.53720 0.02000
C 	C 	0.75150 0.44860 0.54390 -0.17200
C 	C 	0.79340 0.45750 0.60610 0.48200
C 	C 	0.80750 0.46090 0.49319 0.09500
C 	C 	0.12530 0.40250 0.25445 0.43200
C 	C 	0.15480 0.32390 0.22494 -0.15500
C 	C 	0.21610 0.32310 0.17590 0.01500
C 	C 	0.92770 0.59730 0.24360 0.43900
C 	C 	0.90330 0.67680 0.21258 -0.15700
C 	C 	0.84580 0.67660 0.16080 0.01300
C 	C 	0.33210 0.53980 0.11940 0.46700
C 	C 	0.26930 0.55090 0.06415 -0.16700
C 	C 	0.17350 0.57440 0.07030 0.02200
C 	C 	0.11640 0.58820 0.02040 -0.00700
C 	C 	0.00960 0.61380 0.02910 -0.15200
C 	C 	0.15460 0.57540 0.96280 0.02100
C 	C 	0.25150 0.55140 0.95610 -0.17200
C 	C 	0.29340 0.54250 0.89390 0.48200
C 	C 	0.30750 0.53910 0.00681 0.09400
C 	C 	0.62530 0.59750 0.24555 0.43200
C 	C 	0.65480 0.67610 0.27506 -0.15500
C 	C 	0.71610 0.67690 0.32410 0.01500
C 	C 	0.42770 0.40270 0.25640 0.43900
C 	C 	0.40330 0.32320 0.28742 -0.15800
C 	C 	0.34580 0.32340 0.33920 0.01200
C 	C 	0.16790 0.96020 0.61940 0.46700
C 	C 	0.23070 0.94910 0.56415 -0.16800
C 	C 	0.32650 0.92560 0.57030 0.02300
C 	C 	0.38360 0.91180 0.52040 -0.00800
C 	C 	0.49040 0.88620 0.52910 -0.14600
C 	C 	0.34540 0.92460 0.46280 0.02000
C 	C 	0.24850 0.94860 0.45610 -0.17300
C 	C 	0.20660 0.95750 0.39390 0.48200
C 	C 	0.19250 0.96090 0.50681 0.09500
C 	C 	0.87470 0.90250 0.74555 0.43200
C 	C 	0.84520 0.82390 0.77506 -0.15400
C 	C 	0.78390 0.82310 0.82410 0.01500
C 	C 	0.07230 0.09730 0.75640 0.43800
C 	C 	0.09670 0.17680 0.78742 -0.15600
C 	C 	0.15420 0.17660 0.83920 0.01200
C 	C 	0.66790 0.03980 0.88060 0.46700
C 	C 	0.73070 0.05090 0.93585 -0.16700
C 	C 	0.82650 0.07440 0.92970 0.02000
C 	C 	0.88360 0.08820 0.97960 -0.00400
C 	C 	0.99040 0.11380 0.97090 -0.16100
C 	C 	0.84540 0.07540 0.03720 0.01900
C 	C 	0.74850 0.05140 0.04390 -0.17300
C 	C 	0.70660 0.04250 0.10610 0.48200
C 	C 	0.69250 0.03910 0.99319 0.09500
C 	C 	0.37470 0.09750 0.75445 0.43200
C 	C 	0.34520 0.17610 0.72494 -0.15400
C 	C 	0.28390 0.17690 0.67590 0.01500
C 	C 	0.57230 0.90270 0.74360 0.43900
C 	C 	0.59670 0.82320 0.71258 -0.15700
C 	C 	0.65420 0.82340 0.66080 0.01300
C 	C 	0.87810 0.75000 0.75060 0.07500
C 	C 	0.75150 0.75000 0.85000 0.00400
C 	C 	0.68190 0.75000 0.90290 -0.14800
C 	C 	0.37810 0.25000 0.74940 0.07500
C 	C 	0.25150 0.25000 0.65000 0.00400
C 	C 	0.18190 0.25000 0.59710 -0.14800
C 	C 	0.12190 0.25000 0.24940 0.07500
C 	C 	0.24850 0.25000 0.15000 0.00400
C 	C 	0.31810 0.25000 0.09710 -0.14800
C 	C 	0.62190 0.75000 0.25060 0.07500
C 	C 	0.74850 0.75000 0.35000 0.00400
C 	C 	0.81810 0.75000 0.40290 -0.14900
C 	C 	0.18200 0.25000 0.86570 0.00400
C 	C 	0.24410 0.25000 0.92390 -0.14800
C 	C 	0.06710 0.25000 0.76260 0.08300
C 	C 	0.68200 0.75000 0.63430 0.00200
C 	C 	0.74410 0.75000 0.57610 -0.14800
C 	C 	0.56710 0.75000 0.73740 0.08300
C 	C 	0.81800 0.75000 0.13430 0.00300
C 	C 	0.75590 0.75000 0.07610 -0.14800
C 	C 	0.93290 0.75000 0.23740 0.08300
C 	C 	0.31800 0.25000 0.36570 0.00300
C 	C 	0.25590 0.25000 0.42390 -0.14800
C 	C 	0.43290 0.25000 0.26260 0.08300
O 	O 	0.08230 0.51450 0.61041 -0.49300
O 	O 	0.20060 0.55730 0.67012 -0.58800
O 	O 	0.11690 0.52580 0.39226 -0.50500
O 	O 	0.25800 0.55250 0.34946 -0.58500
O 	O 	0.95000 0.59998 0.71173 -0.50100
O 	O 	0.82800 0.53370 0.75437 -0.55700
O 	O 	0.00410 0.40010 0.71678 -0.50700
O 	O 	0.11470 0.46660 0.76944 -0.55400
O 	O 	0.58230 0.48550 0.88959 -0.49400
O 	O 	0.70060 0.44270 0.82988 -0.58800
O 	O 	0.61690 0.47420 0.10774 -0.50500
O 	O 	0.75800 0.44750 0.15054 -0.58500
O 	O 	0.45000 0.40002 0.78827 -0.50100
O 	O 	0.32800 0.46630 0.74563 -0.55600
O 	O 	0.50410 0.59990 0.78322 -0.50700
O 	O 	0.61470 0.53340 0.73056 -0.55400
O 	O 	0.91770 0.01450 0.38959 -0.49600
O 	O 	0.79940 0.05730 0.32988 -0.59000
O 	O 	0.88310 0.02580 0.60774 -0.50700
O 	O 	0.74200 0.05250 0.65054 -0.58600
O 	O 	0.05000 0.09998 0.28827 -0.49800
O 	O 	0.17200 0.03370 0.24563 -0.55400
O 	O 	0.99590 0.90010 0.28322 -0.50300
O 	O 	0.88530 0.96660 0.23056 -0.55000
O 	O 	0.41770 0.98550 0.11041 -0.49300
O 	O 	0.29940 0.94270 0.17012 -0.58900
O 	O 	0.38310 0.97420 0.89226 -0.50600
O 	O 	0.24200 0.94750 0.84946 -0.58700
O 	O 	0.55000 0.90002 0.21173 -0.50100
O 	O 	0.67200 0.96630 0.25437 -0.55400
O 	O 	0.49590 0.09990 0.21678 -0.50700
O 	O 	0.38530 0.03340 0.26944 -0.55300
O 	O 	0.91770 0.48550 0.38959 -0.49400
O 	O 	0.79940 0.44270 0.32988 -0.58800
O 	O 	0.88310 0.47420 0.60774 -0.50500
O 	O 	0.74200 0.44750 0.65054 -0.58500
O 	O 	0.05000 0.40002 0.28827 -0.50100
O 	O 	0.17200 0.46630 0.24563 -0.55700
O 	O 	0.99590 0.59990 0.28322 -0.50600
O 	O 	0.88530 0.53340 0.23056 -0.55400
O 	O 	0.41770 0.51450 0.11041 -0.49300
O 	O 	0.29940 0.55730 0.17012 -0.58800
O 	O 	0.38310 0.52580 0.89226 -0.50500
O 	O 	0.24200 0.55250 0.84946 -0.58500
O 	O 	0.55000 0.59998 0.21173 -0.50100
O 	O 	0.67200 0.53370 0.25437 -0.55600
O 	O 	0.49590 0.40010 0.21678 -0.50800
O 	O 	0.38530 0.46660 0.26944 -0.55400
O 	O 	0.08230 0.98550 0.61041 -0.49600
O 	O 	0.20060 0.94270 0.67012 -0.59000
O 	O 	0.11690 0.97420 0.39226 -0.50700
O 	O 	0.25800 0.94750 0.34946 -0.58600
O 	O 	0.95000 0.90002 0.71173 -0.49800
O 	O 	0.82800 0.96630 0.75437 -0.55400
O 	O 	0.00410 0.09990 0.71678 -0.50300
O 	O 	0.11470 0.03340 0.76944 -0.55000
O 	O 	0.58230 0.01450 0.88959 -0.49300
O 	O 	0.70060 0.05730 0.82988 -0.58900
O 	O 	0.61690 0.02580 0.10774 -0.50600
O 	O 	0.75800 0.05250 0.15054 -0.58700
O 	O 	0.45000 0.09998 0.78827 -0.50100
O 	O 	0.32800 0.03370 0.74563 -0.55400
O 	O 	0.50410 0.90010 0.78322 -0.50800
O 	O 	0.61470 0.96660 0.73056 -0.55300
H 	H 	0.71513 0.78541 0.94242 0.05300
H 	H 	0.11363 0.28541 0.60998 0.05700
H 	H 	0.38637 0.28541 0.10998 0.05600
H 	H 	0.78487 0.78541 0.44242 0.05400
H 	H 	0.20277 0.28205 0.96196 0.05200
H 	H 	0.81605 0.78205 0.58546 0.05600
H 	H 	0.68395 0.78205 0.08546 0.05600
H 	H 	0.29723 0.28205 0.46196 0.05100
