data_crystal

_cell_length_a 5.78430
_cell_length_b 30.25120
_cell_length_c 7.54700
_cell_angle_alpha 90.00000
_cell_angle_beta  112.53000
_cell_angle_gamma 90.00000

_symmetry_space_group_name_	'P 1'
_symmetry_space_group_name_H-M	'P 1'

loop_
_symmetry_equiv_pos_as_xyz
  x,y,z

loop_
_atom_site_label
_atom_site_type_symbol
_atom_site_fract_x
_atom_site_fract_y
_atom_site_fract_z
_atom_site_charge
Cu	Cu	0.07880 0.45998 0.92319 0.81600
Cu	Cu	0.67576 0.28710 0.98615 0.83000
S 	S 	0.72040 0.51360 0.75520 -0.36600
S 	S 	0.51130 0.24266 0.15730 -0.42000
S 	S 	0.50160 0.35684 0.96570 -0.30600
N 	N 	0.31190 0.47170 0.79630 -0.27700
N 	N 	0.03260 0.27800 0.06790 -0.27800
N 	N 	0.87570 0.40870 0.92230 -0.28300
C 	C 	0.47750 0.48850 0.77910 0.09400
C 	C 	0.23150 0.26440 0.10550 0.11100
C 	C 	0.72500 0.38770 0.93980 0.08700
Cu	Cu	0.92120 0.95998 0.57681 0.81800
Cu	Cu	0.32424 0.78710 0.51385 0.83700
S 	S 	0.27960 0.01360 0.74480 -0.37300
S 	S 	0.48870 0.74266 0.34270 -0.43300
S 	S 	0.49840 0.85684 0.53430 -0.29900
N 	N 	0.68810 0.97170 0.70370 -0.27700
N 	N 	0.96740 0.77800 0.43210 -0.28500
N 	N 	0.12430 0.90870 0.57770 -0.28300
C 	C 	0.52250 0.98850 0.72090 0.09400
C 	C 	0.76850 0.76440 0.39450 0.10500
C 	C 	0.27500 0.88770 0.56020 0.08700
Cu	Cu	0.92120 0.54002 0.07681 0.81700
Cu	Cu	0.32424 0.71290 0.01385 0.83100
S 	S 	0.27960 0.48640 0.24480 -0.36600
S 	S 	0.48870 0.75734 0.84270 -0.42000
S 	S 	0.49840 0.64316 0.03430 -0.30600
N 	N 	0.68810 0.52830 0.20370 -0.27700
N 	N 	0.96740 0.72200 0.93210 -0.27800
N 	N 	0.12430 0.59130 0.07770 -0.28300
C 	C 	0.52250 0.51150 0.22090 0.09400
C 	C 	0.76850 0.73560 0.89450 0.11100
C 	C 	0.27500 0.61230 0.06020 0.08700
Cu	Cu	0.07880 0.04002 0.42319 0.81800
Cu	Cu	0.67576 0.21290 0.48615 0.83700
S 	S 	0.72040 0.98640 0.25520 -0.37300
S 	S 	0.51130 0.25734 0.65730 -0.43300
S 	S 	0.50160 0.14316 0.46570 -0.29900
N 	N 	0.31190 0.02830 0.29630 -0.27700
N 	N 	0.03260 0.22200 0.56790 -0.28500
N 	N 	0.87570 0.09130 0.42230 -0.28300
C 	C 	0.47750 0.01150 0.27910 0.09400
C 	C 	0.23150 0.23560 0.60550 0.10500
C 	C 	0.72500 0.11230 0.43980 0.08700
