data_crystal

_cell_length_a 5.78400
_cell_length_b 30.28200
_cell_length_c 7.55100
_cell_angle_alpha 90.00000
_cell_angle_beta  112.46000
_cell_angle_gamma 90.00000

_symmetry_space_group_name_	'P 1'
_symmetry_space_group_name_H-M	'P 1'

loop_
_symmetry_equiv_pos_as_xyz
  x,y,z

loop_
_atom_site_label
_atom_site_type_symbol
_atom_site_fract_x
_atom_site_fract_y
_atom_site_fract_z
_atom_site_charge
Cu	Cu	0.34440 0.46010 0.92290 0.81800
Cu	Cu	0.18960 0.71300 0.01440 0.83000
S 	S 	0.46560 0.48630 0.24510 -0.36400
S 	S 	0.03490 0.64310 0.03390 -0.30800
S 	S 	0.85400 0.75760 0.84280 -0.40700
N 	N 	0.98680 0.47170 0.79830 -0.27600
N 	N 	0.45470 0.59110 0.07720 -0.27700
N 	N 	0.46530 0.72160 0.93050 -0.28200
C 	C 	0.79880 0.48890 0.77840 0.08900
C 	C 	0.28100 0.61270 0.05940 0.08100
C 	C 	0.62490 0.73570 0.89400 0.10900
Cu	Cu	0.15560 0.96010 0.57710 0.81600
Cu	Cu	0.31040 0.21300 0.48560 0.83900
S 	S 	0.03440 0.98630 0.25490 -0.37200
S 	S 	0.46510 0.14310 0.46610 -0.29800
S 	S 	0.64600 0.25760 0.65720 -0.42800
N 	N 	0.51320 0.97170 0.70170 -0.27600
N 	N 	0.04530 0.09110 0.42280 -0.27400
N 	N 	0.03470 0.22160 0.56950 -0.27700
C 	C 	0.70120 0.98890 0.72160 0.08900
C 	C 	0.21900 0.11270 0.44060 0.08200
C 	C 	0.87510 0.23570 0.60600 0.08600
Cu	Cu	0.65560 0.53990 0.07710 0.81800
Cu	Cu	0.81040 0.28700 0.98560 0.83000
S 	S 	0.53440 0.51370 0.75490 -0.36400
S 	S 	0.96510 0.35690 0.96610 -0.30800
S 	S 	0.14600 0.24240 0.15720 -0.40700
N 	N 	0.01320 0.52830 0.20170 -0.27600
N 	N 	0.54530 0.40890 0.92280 -0.27700
N 	N 	0.53470 0.27840 0.06950 -0.28200
C 	C 	0.20120 0.51110 0.22160 0.08900
C 	C 	0.71900 0.38730 0.94060 0.08100
C 	C 	0.37510 0.26430 0.10600 0.10900
Cu	Cu	0.84440 0.03990 0.42290 0.81600
Cu	Cu	0.68960 0.78700 0.51440 0.83900
S 	S 	0.96560 0.01370 0.74510 -0.37200
S 	S 	0.53490 0.85690 0.53390 -0.29800
S 	S 	0.35400 0.74240 0.34280 -0.42800
N 	N 	0.48680 0.02830 0.29830 -0.27600
N 	N 	0.95470 0.90890 0.57720 -0.27400
N 	N 	0.96530 0.77840 0.43050 -0.27700
C 	C 	0.29880 0.01110 0.27840 0.08900
C 	C 	0.78100 0.88730 0.55940 0.08200
C 	C 	0.12490 0.76430 0.39400 0.08600
