data_crystal

_cell_length_a 14.08690
_cell_length_b 15.13330
_cell_length_c 15.14020
_cell_angle_alpha 86.51700
_cell_angle_beta  87.28600
_cell_angle_gamma 86.89600

_symmetry_space_group_name_	'P 1'
_symmetry_space_group_name_H-M	'P 1'

loop_
_symmetry_equiv_pos_as_xyz
  x,y,z

loop_
_atom_site_label
_atom_site_type_symbol
_atom_site_fract_x
_atom_site_fract_y
_atom_site_fract_z
_atom_site_charge
Zn	Zn	0.90400 0.60357 0.83905 1.21800
Zn	Zn	0.69397 0.61283 0.84721 1.21700
H 	H 	0.21960 0.60560 0.97530 0.07700
H 	H 	0.07080 0.62010 0.71190 0.00400
H 	H 	0.23380 0.62310 0.71030 0.07000
H 	H 	0.05710 0.60200 0.97060 0.00800
H 	H 	0.65810 0.62620 0.28700 0.06300
H 	H 	0.65450 0.62610 0.13690 0.00700
H 	H 	0.93860 0.59840 0.12090 0.02600
H 	H 	0.67020 0.64560 0.56390 0.00200
H 	H 	0.66640 0.64310 0.41430 0.07800
H 	H 	0.93900 0.57810 0.40040 0.10000
H 	H 	0.94360 0.57650 0.55030 0.00700
H 	H 	0.66160 0.32820 0.85120 -0.05100
H 	H 	0.65410 0.90500 0.84940 -0.02500
H 	H 	0.94040 0.31370 0.82720 -0.00600
H 	H 	0.93810 0.16570 0.81330 0.10000
H 	H 	0.93010 0.88350 0.79540 0.01800
H 	H 	0.93360 0.03520 0.79070 0.06000
H 	H 	0.53730 0.67760 0.73170 -0.01000
H 	H 	0.52930 0.54660 0.95960 -0.01600
H 	H 	0.36770 0.54630 0.95990 0.09400
H 	H 	0.37470 0.67750 0.72530 0.07400
Rh	Rh	0.62210 0.12180 0.84360 0.76400
C 	C 	0.24570 0.61270 0.84300 0.04400
C 	C 	0.19097 0.60780 0.92100 -0.12500
C 	C 	0.80100 0.33931 0.83800 -0.23800
C 	C 	0.10110 0.61670 0.76532 0.06900
C 	C 	0.79570 0.61161 0.11145 -0.15100
C 	C 	0.80660 0.60890 0.57487 -0.17800
C 	C 	0.19916 0.61830 0.76400 -0.12000
C 	C 	0.09314 0.60620 0.91760 0.07700
C 	C 	0.79427 0.60910 0.01316 0.40700
C 	C 	0.80202 0.43704 0.84571 0.43600
C 	C 	0.71470 0.62070 0.25319 -0.13400
C 	C 	0.78870 0.77816 0.83230 0.41500
C 	C 	0.71280 0.62030 0.16370 0.07100
C 	C 	0.88170 0.60420 0.15432 0.08200
C 	C 	0.80786 0.60790 0.67356 0.42100
C 	C 	0.35144 0.61190 0.84399 0.07400
C 	C 	0.80070 0.61280 0.29440 0.05500
C 	C 	0.80280 0.61150 0.39180 0.09200
C 	C 	0.72570 0.63030 0.53140 0.10300
C 	C 	0.79080 0.87710 0.82660 -0.16700
C 	C 	0.72360 0.63010 0.44160 -0.17200
C 	C 	0.88340 0.59150 0.43360 -0.17200
C 	C 	0.88620 0.59030 0.52360 0.10600
C 	C 	0.71890 0.29560 0.84330 0.20100
C 	C 	0.71230 0.93070 0.83890 0.09600
C 	C 	0.88210 0.28750 0.82860 0.15400
C 	C 	0.71670 0.20630 0.83760 -0.36800
C 	C 	0.79810 0.15730 0.82500 0.12100
C 	C 	0.79580 0.05970 0.82050 0.00300
C 	C 	0.88100 0.19860 0.82110 -0.21700
C 	C 	0.87450 0.91760 0.80690 0.06500
C 	C 	0.87640 0.00830 0.80410 -0.11300
C 	C 	0.50250 0.65000 0.77830 0.08000
C 	C 	0.49820 0.57380 0.91160 0.09800
C 	C 	0.40060 0.57350 0.91190 -0.16600
C 	C 	0.40460 0.65090 0.77430 -0.15100
N 	N 	0.04798 0.61032 0.84197 -0.24700
N 	N 	0.54933 0.61109 0.84627 -0.25900
N 	N 	0.88390 0.60520 0.24409 -0.12700
N 	N 	0.71410 0.02060 0.83670 -0.25000
O 	O 	0.87314 0.60592 0.97089 -0.47300
O 	O 	0.72983 0.61621 0.71541 -0.48100
O 	O 	0.71503 0.60830 0.97927 -0.47400
O 	O 	0.72285 0.47907 0.84960 -0.48000
O 	O 	0.88791 0.59877 0.70721 -0.46500
O 	O 	0.88119 0.47062 0.84777 -0.46800
O 	O 	0.70905 0.74517 0.84335 -0.47600
O 	O 	0.86700 0.73559 0.82582 -0.47700
Zn	Zn	0.09600 0.39643 0.16095 1.21800
Zn	Zn	0.30603 0.38717 0.15279 1.21700
H 	H 	0.78040 0.39440 0.02470 0.07700
H 	H 	0.92920 0.37990 0.28810 0.00400
H 	H 	0.76620 0.37690 0.28970 0.07000
H 	H 	0.94290 0.39800 0.02940 0.00800
H 	H 	0.34190 0.37380 0.71300 0.06300
H 	H 	0.34550 0.37390 0.86310 0.00700
H 	H 	0.06140 0.40160 0.87910 0.02600
H 	H 	0.32980 0.35440 0.43610 0.00200
H 	H 	0.33360 0.35690 0.58570 0.07800
H 	H 	0.06100 0.42190 0.59960 0.10000
H 	H 	0.05640 0.42350 0.44970 0.00700
H 	H 	0.33840 0.67180 0.14880 -0.05100
H 	H 	0.34590 0.09500 0.15060 -0.02500
H 	H 	0.05960 0.68630 0.17280 -0.00600
H 	H 	0.06190 0.83430 0.18670 0.10000
H 	H 	0.06990 0.11650 0.20460 0.01800
H 	H 	0.06640 0.96480 0.20930 0.06000
H 	H 	0.46270 0.32240 0.26830 -0.01000
H 	H 	0.47070 0.45340 0.04040 -0.01600
H 	H 	0.63230 0.45370 0.04010 0.09400
H 	H 	0.62530 0.32250 0.27470 0.07400
Rh	Rh	0.37790 0.87820 0.15640 0.76400
C 	C 	0.75430 0.38730 0.15700 0.04400
C 	C 	0.80903 0.39220 0.07900 -0.12500
C 	C 	0.19900 0.66069 0.16200 -0.23800
C 	C 	0.89890 0.38330 0.23468 0.06900
C 	C 	0.20430 0.38839 0.88855 -0.15100
C 	C 	0.19340 0.39110 0.42513 -0.17800
C 	C 	0.80084 0.38170 0.23600 -0.12000
C 	C 	0.90686 0.39380 0.08240 0.07700
C 	C 	0.20573 0.39090 0.98684 0.40700
C 	C 	0.19798 0.56296 0.15429 0.43600
C 	C 	0.28530 0.37930 0.74681 -0.13400
C 	C 	0.21130 0.22184 0.16770 0.41500
C 	C 	0.28720 0.37970 0.83630 0.07100
C 	C 	0.11830 0.39580 0.84568 0.08200
C 	C 	0.19214 0.39210 0.32644 0.42100
C 	C 	0.64856 0.38810 0.15601 0.07400
C 	C 	0.19930 0.38720 0.70560 0.05500
C 	C 	0.19720 0.38850 0.60820 0.09200
C 	C 	0.27430 0.36970 0.46860 0.10300
C 	C 	0.20920 0.12290 0.17340 -0.16700
C 	C 	0.27640 0.36990 0.55840 -0.17200
C 	C 	0.11660 0.40850 0.56640 -0.17200
C 	C 	0.11380 0.40970 0.47640 0.10600
C 	C 	0.28110 0.70440 0.15670 0.20100
C 	C 	0.28770 0.06930 0.16110 0.09600
C 	C 	0.11790 0.71250 0.17140 0.15400
C 	C 	0.28330 0.79370 0.16240 -0.36800
C 	C 	0.20190 0.84270 0.17500 0.12100
C 	C 	0.20420 0.94030 0.17950 0.00300
C 	C 	0.11900 0.80140 0.17890 -0.21700
C 	C 	0.12550 0.08240 0.19310 0.06500
C 	C 	0.12360 0.99170 0.19590 -0.11300
C 	C 	0.49750 0.35000 0.22170 0.08000
C 	C 	0.50180 0.42620 0.08840 0.09800
C 	C 	0.59940 0.42650 0.08810 -0.16600
C 	C 	0.59540 0.34910 0.22570 -0.15100
N 	N 	0.95202 0.38968 0.15803 -0.24700
N 	N 	0.45067 0.38891 0.15373 -0.25900
N 	N 	0.11610 0.39480 0.75591 -0.12700
N 	N 	0.28590 0.97940 0.16330 -0.25000
O 	O 	0.12686 0.39408 0.02911 -0.47300
O 	O 	0.27017 0.38379 0.28459 -0.48100
O 	O 	0.28497 0.39170 0.02073 -0.47400
O 	O 	0.27715 0.52093 0.15040 -0.48000
O 	O 	0.11209 0.40123 0.29279 -0.46500
O 	O 	0.11881 0.52938 0.15223 -0.46800
O 	O 	0.29095 0.25483 0.15665 -0.47600
O 	O 	0.13300 0.26441 0.17418 -0.47700
