data_crystal

_cell_length_a 16.49000
_cell_length_b 16.49000
_cell_length_c 14.05000
_cell_angle_alpha 90.00000
_cell_angle_beta  90.00000
_cell_angle_gamma 120.00000

_symmetry_space_group_name_	'P 1'
_symmetry_space_group_name_H-M	'P 1'

loop_
_symmetry_equiv_pos_as_xyz
  x,y,z

loop_
_atom_site_label
_atom_site_type_symbol
_atom_site_fract_x
_atom_site_fract_y
_atom_site_fract_z
_atom_site_charge
O 	O 	0.05420 0.17870 0.86270 -0.29500
O 	O 	0.77430 0.33570 0.83010 -0.47600
O 	O 	0.75490 0.29180 0.98040 -0.45900
N 	N 	0.93270 0.02600 0.86680 -0.18700
C 	C 	0.96730 0.24140 0.79080 -0.30000
H 	H 	0.99300 0.24160 0.73190 0.16700
C 	C 	0.95150 0.20630 0.96010 -0.30600
H 	H 	0.96890 0.18460 0.01300 0.16200
C 	C 	0.02380 0.08580 0.86630 0.26300
C 	C 	0.90460 0.27600 0.80290 0.19200
H 	H 	0.89080 0.30240 0.75140 -0.01400
C 	C 	0.79220 0.30140 0.89560 0.44800
C 	C 	0.86450 0.27120 0.88850 -0.23600
C 	C 	0.98790 0.20760 0.87160 0.33500
C 	C 	0.88840 0.23810 0.96830 0.20900
H 	H 	0.86210 0.23730 0.02710 -0.01600
O 	O 	0.63000 0.33000 0.14280 -0.14800
O 	O 	0.82130 0.87550 0.86270 -0.29400
O 	O 	0.66430 0.43860 0.83010 -0.47600
O 	O 	0.70820 0.46310 0.98040 -0.46000
N 	N 	0.97400 0.90670 0.86680 -0.18800
C 	C 	0.75860 0.72590 0.79080 -0.30100
H 	H 	0.75840 0.75140 0.73190 0.16700
C 	C 	0.79370 0.74520 0.96010 -0.31800
H 	H 	0.81540 0.78430 0.01300 0.17200
C 	C 	0.91420 0.93800 0.86630 0.26300
C 	C 	0.72400 0.62860 0.80290 0.19200
H 	H 	0.69760 0.58840 0.75140 -0.01400
C 	C 	0.69860 0.49080 0.89560 0.44700
C 	C 	0.72880 0.59330 0.88850 -0.23500
C 	C 	0.79240 0.78030 0.87160 0.33600
C 	C 	0.76190 0.65030 0.96830 0.20500
H 	H 	0.76270 0.62480 0.02710 -0.01200
O 	O 	0.67000 0.30000 0.14280 -0.14900
O 	O 	0.12450 0.94580 0.86270 -0.29700
O 	O 	0.56140 0.22570 0.83010 -0.47600
O 	O 	0.53690 0.24510 0.98040 -0.46000
N 	N 	0.09330 0.06730 0.86680 -0.18900
C 	C 	0.27410 0.03270 0.79080 -0.30300
H 	H 	0.24860 0.00700 0.73190 0.16800
C 	C 	0.25480 0.04850 0.96010 -0.31800
H 	H 	0.21570 0.03110 0.01300 0.17000
C 	C 	0.06200 0.97620 0.86630 0.25900
C 	C 	0.37140 0.09540 0.80290 0.19400
H 	H 	0.41160 0.10920 0.75140 -0.01500
C 	C 	0.50920 0.20780 0.89560 0.44700
C 	C 	0.40670 0.13550 0.88850 -0.23600
C 	C 	0.21970 0.01210 0.87160 0.33900
C 	C 	0.34970 0.11160 0.96830 0.20700
H 	H 	0.37520 0.13790 0.02710 -0.01300
O 	O 	0.70000 0.37000 0.14280 -0.14900
O 	O 	0.82130 0.94580 0.63730 -0.29500
O 	O 	0.66430 0.22570 0.66990 -0.47600
O 	O 	0.70820 0.24510 0.51960 -0.46100
N 	N 	0.97400 0.06730 0.63320 -0.19000
C 	C 	0.75860 0.03270 0.70920 -0.30100
H 	H 	0.75840 0.00700 0.76810 0.16800
C 	C 	0.79370 0.04850 0.53990 -0.31800
H 	H 	0.81540 0.03110 0.48700 0.17200
C 	C 	0.91420 0.97620 0.63370 0.26500
C 	C 	0.72400 0.09540 0.69710 0.19200
H 	H 	0.69760 0.10920 0.74860 -0.01400
C 	C 	0.69860 0.20780 0.60440 0.44700
C 	C 	0.72880 0.13550 0.61150 -0.23400
C 	C 	0.79240 0.01210 0.62840 0.33700
C 	C 	0.76190 0.11160 0.53170 0.20200
H 	H 	0.76270 0.13790 0.47290 -0.01000
O 	O 	0.67000 0.37000 0.35720 -0.14800
O 	O 	0.12450 0.17870 0.63730 -0.29400
O 	O 	0.56140 0.33570 0.66990 -0.47600
O 	O 	0.53690 0.29180 0.51960 -0.46100
N 	N 	0.09330 0.02600 0.63320 -0.19000
C 	C 	0.27410 0.24140 0.70920 -0.30000
H 	H 	0.24860 0.24160 0.76810 0.16600
C 	C 	0.25480 0.20630 0.53990 -0.31700
H 	H 	0.21570 0.18460 0.48700 0.17100
C 	C 	0.06200 0.08580 0.63370 0.26500
C 	C 	0.37140 0.27600 0.69710 0.19100
H 	H 	0.41160 0.30240 0.74860 -0.01400
C 	C 	0.50920 0.30140 0.60440 0.44600
C 	C 	0.40670 0.27120 0.61150 -0.23400
C 	C 	0.21970 0.20760 0.62840 0.33500
C 	C 	0.34970 0.23810 0.53170 0.20200
H 	H 	0.37520 0.23730 0.47290 -0.00900
O 	O 	0.70000 0.33000 0.35720 -0.14800
O 	O 	0.05420 0.87550 0.63730 -0.29500
O 	O 	0.77430 0.43860 0.66990 -0.47600
O 	O 	0.75490 0.46310 0.51960 -0.46100
N 	N 	0.93270 0.90670 0.63320 -0.19100
C 	C 	0.96730 0.72590 0.70920 -0.30100
H 	H 	0.99300 0.75140 0.76810 0.16700
C 	C 	0.95150 0.74520 0.53990 -0.31800
H 	H 	0.96890 0.78430 0.48700 0.17100
C 	C 	0.02380 0.93800 0.63370 0.26400
C 	C 	0.90460 0.62860 0.69710 0.19200
H 	H 	0.89080 0.58840 0.74860 -0.01400
C 	C 	0.79220 0.49080 0.60440 0.44700
C 	C 	0.86450 0.59330 0.61150 -0.23400
C 	C 	0.98790 0.78030 0.62840 0.33700
C 	C 	0.88840 0.65030 0.53170 0.20200
H 	H 	0.86210 0.62480 0.47290 -0.01000
O 	O 	0.63000 0.30000 0.35720 -0.14800
Zn	Zn	0.66667 0.33333 0.75000 1.25200
Zn	Zn	0.66667 0.33333 0.00231 1.24400
Zn	Zn	0.66667 0.33333 0.49769 1.24500
C 	C 	0.66667 0.33333 0.25000 0.25600
O 	O 	0.94580 0.82130 0.13730 -0.29500
O 	O 	0.22570 0.66430 0.16990 -0.47600
O 	O 	0.24510 0.70820 0.01960 -0.45900
N 	N 	0.06730 0.97400 0.13320 -0.18700
C 	C 	0.03270 0.75860 0.20920 -0.30000
H 	H 	0.00700 0.75840 0.26810 0.16700
C 	C 	0.04850 0.79370 0.03990 -0.30600
H 	H 	0.03110 0.81540 0.98700 0.16200
C 	C 	0.97620 0.91420 0.13370 0.26300
C 	C 	0.09540 0.72400 0.19710 0.19200
H 	H 	0.10920 0.69760 0.24860 -0.01400
C 	C 	0.20780 0.69860 0.10440 0.44800
C 	C 	0.13550 0.72880 0.11150 -0.23600
C 	C 	0.01210 0.79240 0.12840 0.33500
C 	C 	0.11160 0.76190 0.03170 0.20900
H 	H 	0.13790 0.76270 0.97290 -0.01600
O 	O 	0.37000 0.67000 0.85720 -0.14800
O 	O 	0.17870 0.12450 0.13730 -0.29400
O 	O 	0.33570 0.56140 0.16990 -0.47600
O 	O 	0.29180 0.53690 0.01960 -0.46000
N 	N 	0.02600 0.09330 0.13320 -0.18800
C 	C 	0.24140 0.27410 0.20920 -0.30100
H 	H 	0.24160 0.24860 0.26810 0.16700
C 	C 	0.20630 0.25480 0.03990 -0.31800
H 	H 	0.18460 0.21570 0.98700 0.17200
C 	C 	0.08580 0.06200 0.13370 0.26300
C 	C 	0.27600 0.37140 0.19710 0.19200
H 	H 	0.30240 0.41160 0.24860 -0.01400
C 	C 	0.30140 0.50920 0.10440 0.44700
C 	C 	0.27120 0.40670 0.11150 -0.23500
C 	C 	0.20760 0.21970 0.12840 0.33600
C 	C 	0.23810 0.34970 0.03170 0.20500
H 	H 	0.23730 0.37520 0.97290 -0.01200
O 	O 	0.33000 0.70000 0.85720 -0.14900
O 	O 	0.87550 0.05420 0.13730 -0.29700
O 	O 	0.43860 0.77430 0.16990 -0.47600
O 	O 	0.46310 0.75490 0.01960 -0.46000
N 	N 	0.90670 0.93270 0.13320 -0.18900
C 	C 	0.72590 0.96730 0.20920 -0.30300
H 	H 	0.75140 0.99300 0.26810 0.16800
C 	C 	0.74520 0.95150 0.03990 -0.31800
H 	H 	0.78430 0.96890 0.98700 0.17000
C 	C 	0.93800 0.02380 0.13370 0.25900
C 	C 	0.62860 0.90460 0.19710 0.19400
H 	H 	0.58840 0.89080 0.24860 -0.01500
C 	C 	0.49080 0.79220 0.10440 0.44700
C 	C 	0.59330 0.86450 0.11150 -0.23600
C 	C 	0.78030 0.98790 0.12840 0.33900
C 	C 	0.65030 0.88840 0.03170 0.20700
H 	H 	0.62480 0.86210 0.97290 -0.01300
O 	O 	0.30000 0.63000 0.85720 -0.14900
O 	O 	0.17870 0.05420 0.36270 -0.29500
O 	O 	0.33570 0.77430 0.33010 -0.47600
O 	O 	0.29180 0.75490 0.48040 -0.46100
N 	N 	0.02600 0.93270 0.36680 -0.19000
C 	C 	0.24140 0.96730 0.29080 -0.30100
H 	H 	0.24160 0.99300 0.23190 0.16800
C 	C 	0.20630 0.95150 0.46010 -0.31800
H 	H 	0.18460 0.96890 0.51300 0.17200
C 	C 	0.08580 0.02380 0.36630 0.26500
C 	C 	0.27600 0.90460 0.30290 0.19200
H 	H 	0.30240 0.89080 0.25140 -0.01400
C 	C 	0.30140 0.79220 0.39560 0.44700
C 	C 	0.27120 0.86450 0.38850 -0.23400
C 	C 	0.20760 0.98790 0.37160 0.33700
C 	C 	0.23810 0.88840 0.46830 0.20200
H 	H 	0.23730 0.86210 0.52710 -0.01000
O 	O 	0.33000 0.63000 0.64280 -0.14800
O 	O 	0.87550 0.82130 0.36270 -0.29400
O 	O 	0.43860 0.66430 0.33010 -0.47600
O 	O 	0.46310 0.70820 0.48040 -0.46100
N 	N 	0.90670 0.97400 0.36680 -0.19000
C 	C 	0.72590 0.75860 0.29080 -0.30000
H 	H 	0.75140 0.75840 0.23190 0.16600
C 	C 	0.74520 0.79370 0.46010 -0.31700
H 	H 	0.78430 0.81540 0.51300 0.17100
C 	C 	0.93800 0.91420 0.36630 0.26500
C 	C 	0.62860 0.72400 0.30290 0.19100
H 	H 	0.58840 0.69760 0.25140 -0.01400
C 	C 	0.49080 0.69860 0.39560 0.44600
C 	C 	0.59330 0.72880 0.38850 -0.23400
C 	C 	0.78030 0.79240 0.37160 0.33500
C 	C 	0.65030 0.76190 0.46830 0.20200
H 	H 	0.62480 0.76270 0.52710 -0.00900
O 	O 	0.30000 0.67000 0.64280 -0.14800
O 	O 	0.94580 0.12450 0.36270 -0.29500
O 	O 	0.22570 0.56140 0.33010 -0.47600
O 	O 	0.24510 0.53690 0.48040 -0.46100
N 	N 	0.06730 0.09330 0.36680 -0.19100
C 	C 	0.03270 0.27410 0.29080 -0.30100
H 	H 	0.00700 0.24860 0.23190 0.16700
C 	C 	0.04850 0.25480 0.46010 -0.31800
H 	H 	0.03110 0.21570 0.51300 0.17100
C 	C 	0.97620 0.06200 0.36630 0.26400
C 	C 	0.09540 0.37140 0.30290 0.19200
H 	H 	0.10920 0.41160 0.25140 -0.01400
C 	C 	0.20780 0.50920 0.39560 0.44700
C 	C 	0.13550 0.40670 0.38850 -0.23400
C 	C 	0.01210 0.21970 0.37160 0.33700
C 	C 	0.11160 0.34970 0.46830 0.20200
H 	H 	0.13790 0.37520 0.52710 -0.01000
O 	O 	0.37000 0.70000 0.64280 -0.14800
Zn	Zn	0.33333 0.66667 0.25000 1.25200
Zn	Zn	0.33333 0.66667 0.99769 1.24400
Zn	Zn	0.33333 0.66667 0.50231 1.24500
C 	C 	0.33333 0.66667 0.75000 0.25600
