data_crystal

_cell_length_a 10.67830
_cell_length_b 10.67830
_cell_length_c 18.74300
_cell_angle_alpha 74.13940
_cell_angle_beta  74.13940
_cell_angle_gamma 65.01980

_symmetry_space_group_name_	'P 1'
_symmetry_space_group_name_H-M	'P 1'

loop_
_symmetry_equiv_pos_as_xyz
  x,y,z

loop_
_atom_site_label
_atom_site_type_symbol
_atom_site_fract_x
_atom_site_fract_y
_atom_site_fract_z
_atom_site_charge
Eu	Eu	0.56088 0.44294 0.89804 2.02300
Eu	Eu	0.55706 0.43912 0.60196 2.02300
Eu	Eu	0.43912 0.55706 0.10196 2.02400
Eu	Eu	0.44294 0.56088 0.39804 2.02400
H 	H 	0.88340 0.53180 0.76900 0.03400
H 	H 	0.10350 0.53950 0.71520 0.05000
H 	H 	0.00930 0.63250 0.50840 0.03600
H 	H 	0.79020 0.62180 0.56200 0.01100
H 	H 	0.79330 0.53050 0.08850 0.04500
H 	H 	0.01700 0.45060 0.88390 0.04500
H 	H 	0.46820 0.11660 0.73100 0.03400
H 	H 	0.46050 0.89650 0.78480 0.05000
H 	H 	0.36750 0.99070 0.99160 0.03300
H 	H 	0.37820 0.20980 0.93800 0.01200
H 	H 	0.46950 0.20670 0.41150 0.04500
H 	H 	0.54940 0.98300 0.61610 0.04500
H 	H 	0.11660 0.46820 0.23100 0.03400
H 	H 	0.89650 0.46050 0.28480 0.05000
H 	H 	0.99070 0.36750 0.49160 0.03600
H 	H 	0.20980 0.37820 0.43800 0.01100
H 	H 	0.20670 0.46950 0.91150 0.04500
H 	H 	0.98300 0.54940 0.11610 0.04500
H 	H 	0.53180 0.88340 0.26900 0.03400
H 	H 	0.53950 0.10350 0.21520 0.05000
H 	H 	0.63250 0.00930 0.00840 0.03300
H 	H 	0.62180 0.79020 0.06200 0.01200
H 	H 	0.53050 0.79330 0.58850 0.04500
H 	H 	0.45060 0.01700 0.38390 0.04500
C 	C 	0.67669 0.55923 0.70580 0.48500
C 	C 	0.81519 0.57375 0.67100 -0.16000
C 	C 	0.90912 0.55052 0.71686 0.00900
C 	C 	0.04097 0.55539 0.68462 -0.02500
C 	C 	0.07961 0.58409 0.60620 -0.11000
C 	C 	0.98456 0.61074 0.56052 -0.02700
C 	C 	0.85306 0.60490 0.59267 0.01300
C 	C 	0.22537 0.57855 0.57025 0.46100
C 	C 	0.76573 0.47545 0.96395 0.41200
C 	C 	0.88605 0.48909 0.98321 -0.10700
C 	C 	0.87583 0.51841 0.05310 -0.01500
C 	C 	0.01030 0.47050 0.93044 -0.01200
C 	C 	0.44077 0.32331 0.79420 0.48400
C 	C 	0.42625 0.18481 0.82900 -0.15900
C 	C 	0.44948 0.09088 0.78314 0.00900
C 	C 	0.44461 0.95903 0.81538 -0.02500
C 	C 	0.41591 0.92039 0.89380 -0.11300
C 	C 	0.38926 0.01544 0.93948 -0.02200
C 	C 	0.39510 0.14694 0.90733 0.01100
C 	C 	0.42145 0.77463 0.92975 0.46200
C 	C 	0.52455 0.23427 0.53605 0.41200
C 	C 	0.51091 0.11395 0.51679 -0.10600
C 	C 	0.48159 0.12417 0.44690 -0.01600
C 	C 	0.52950 0.98970 0.56956 -0.01300
C 	C 	0.32331 0.44077 0.29420 0.48500
C 	C 	0.18481 0.42625 0.32900 -0.16000
C 	C 	0.09088 0.44948 0.28314 0.00900
C 	C 	0.95903 0.44461 0.31538 -0.02500
C 	C 	0.92039 0.41591 0.39380 -0.11000
C 	C 	0.01544 0.38926 0.43948 -0.02700
C 	C 	0.14694 0.39510 0.40733 0.01300
C 	C 	0.77463 0.42145 0.42975 0.46100
C 	C 	0.23427 0.52455 0.03605 0.41200
C 	C 	0.11395 0.51091 0.01679 -0.10700
C 	C 	0.12417 0.48159 0.94690 -0.01500
C 	C 	0.98970 0.52950 0.06956 -0.01200
C 	C 	0.55923 0.67669 0.20580 0.48400
C 	C 	0.57375 0.81519 0.17100 -0.15900
C 	C 	0.55052 0.90912 0.21686 0.00900
C 	C 	0.55539 0.04097 0.18462 -0.02500
C 	C 	0.58409 0.07961 0.10620 -0.11300
C 	C 	0.61074 0.98456 0.06052 -0.02200
C 	C 	0.60490 0.85306 0.09267 0.01100
C 	C 	0.57855 0.22537 0.07025 0.46200
C 	C 	0.47545 0.76573 0.46395 0.41200
C 	C 	0.48909 0.88605 0.48321 -0.10600
C 	C 	0.51841 0.87583 0.55310 -0.01600
C 	C 	0.47050 0.01030 0.43044 -0.01300
O 	O 	0.64646 0.53390 0.77564 -0.53500
O 	O 	0.59782 0.57542 0.66145 -0.55200
O 	O 	0.25219 0.60825 0.49946 -0.53500
O 	O 	0.31229 0.54043 0.61339 -0.50600
O 	O 	0.78868 0.42524 0.90617 -0.48100
O 	O 	0.64472 0.51408 0.00488 -0.55800
O 	O 	0.46610 0.35354 0.72436 -0.53500
O 	O 	0.42458 0.40218 0.83855 -0.55200
O 	O 	0.39175 0.74781 0.00054 -0.53500
O 	O 	0.45957 0.68771 0.88661 -0.50700
O 	O 	0.57476 0.21132 0.59383 -0.48100
O 	O 	0.48592 0.35528 0.49512 -0.55800
O 	O 	0.35354 0.46610 0.22436 -0.53500
O 	O 	0.40218 0.42458 0.33855 -0.55200
O 	O 	0.74781 0.39175 0.50054 -0.53500
O 	O 	0.68771 0.45957 0.38661 -0.50600
O 	O 	0.21132 0.57476 0.09383 -0.48100
O 	O 	0.35528 0.48592 0.99512 -0.55800
O 	O 	0.53390 0.64646 0.27564 -0.53500
O 	O 	0.57542 0.59782 0.16145 -0.55200
O 	O 	0.60825 0.25219 0.99946 -0.53500
O 	O 	0.54043 0.31229 0.11339 -0.50700
O 	O 	0.42524 0.78868 0.40617 -0.48100
O 	O 	0.51408 0.64472 0.50488 -0.55800
