data_crystal

_cell_length_a 16.10940
_cell_length_b 11.85430
_cell_length_c 17.82320
_cell_angle_alpha 90.00000
_cell_angle_beta  103.29600
_cell_angle_gamma 90.00000

_symmetry_space_group_name_	'P 1'
_symmetry_space_group_name_H-M	'P 1'

loop_
_symmetry_equiv_pos_as_xyz
  x,y,z

loop_
_atom_site_label
_atom_site_type_symbol
_atom_site_fract_x
_atom_site_fract_y
_atom_site_fract_z
_atom_site_charge
P 	P 	0.67484 0.47726 0.88457 0.52600
P 	P 	0.62263 0.16305 0.78734 0.52500
P 	P 	0.56147 0.80358 0.73700 0.51300
P 	P 	0.88939 0.49022 0.05655 0.50800
Mo	Mo	0.71545 0.35949 0.06670 1.06600
Mo	Mo	0.48031 0.35736 0.80391 1.08000
Mo	Mo	0.71605 0.65072 0.03756 1.06700
Mo	Mo	0.61579 0.23521 0.96508 1.09100
Mo	Mo	0.47785 0.57372 0.78708 1.08000
Mo	Mo	0.61136 0.74521 0.92274 1.09700
Co	Co	0.87832 0.49755 0.86571 1.19200
O 	O 	0.73530 0.72740 0.94646 -0.45700
O 	O 	0.59090 0.36890 0.02244 -0.63600
O 	O 	0.59140 0.63640 0.00147 -0.62500
O 	O 	0.73840 0.25430 0.99030 -0.45700
O 	O 	0.61610 0.57890 0.85766 -0.41400
O 	O 	0.84090 0.39810 0.09089 -0.40200
O 	O 	0.70460 0.51870 0.11518 -0.47200
O 	O 	0.46660 0.47870 0.87627 -0.59500
O 	O 	0.53030 0.68050 0.72110 -0.36300
O 	O 	0.71250 0.49080 0.97213 -0.42100
O 	O 	0.63200 0.13790 0.87400 -0.38700
O 	O 	0.74370 0.46300 0.84093 -0.33100
O 	O 	0.62210 0.80800 0.81865 -0.34800
O 	O 	0.61760 0.37030 0.87505 -0.40700
O 	O 	0.48460 0.88170 0.73440 -0.24500
O 	O 	0.48610 0.71130 0.86332 -0.46400
O 	O 	0.84430 0.60470 0.06020 -0.39200
O 	O 	0.53930 0.22820 0.75720 -0.38500
O 	O 	0.97820 0.49920 0.11652 -0.29700
O 	O 	0.51950 0.45350 0.73080 -0.46300
O 	O 	0.49050 0.24840 0.89904 -0.47300
O 	O 	0.90220 0.45720 0.97950 -0.35500
O 	O 	0.62840 0.05580 0.74509 -0.38200
O 	O 	0.70160 0.23710 0.77860 -0.18300
O 	O 	0.60940 0.83600 0.67643 -0.31400
P 	P 	0.82516 0.97726 0.61543 0.54700
P 	P 	0.87737 0.66305 0.71266 0.52600
P 	P 	0.93853 0.30358 0.76300 0.54100
P 	P 	0.61061 0.99022 0.44345 0.56600
Mo	Mo	0.78455 0.85949 0.43330 1.08800
Mo	Mo	0.01969 0.85736 0.69609 1.06900
Mo	Mo	0.78395 0.15072 0.46244 1.07600
Mo	Mo	0.88421 0.73521 0.53492 1.08800
Mo	Mo	0.02215 0.07372 0.71292 1.04400
Mo	Mo	0.88864 0.24521 0.57726 1.09100
Co	Co	0.62168 0.99755 0.63429 1.19700
O 	O 	0.76470 0.22740 0.55354 -0.48900
O 	O 	0.90910 0.86890 0.47756 -0.58900
O 	O 	0.90860 0.13640 0.49853 -0.59500
O 	O 	0.76160 0.75430 0.50970 -0.47700
O 	O 	0.88390 0.07890 0.64234 -0.43100
O 	O 	0.65910 0.89810 0.40911 -0.39300
O 	O 	0.79540 0.01870 0.38482 -0.48900
O 	O 	0.03340 0.97870 0.62373 -0.58800
O 	O 	0.96970 0.18050 0.77890 -0.35100
O 	O 	0.78750 0.99080 0.52787 -0.43300
O 	O 	0.86800 0.63790 0.62600 -0.37700
O 	O 	0.75630 0.96300 0.65907 -0.32400
O 	O 	0.87790 0.30800 0.68135 -0.35500
O 	O 	0.88240 0.87030 0.62495 -0.40200
O 	O 	0.01540 0.38170 0.76560 -0.29200
O 	O 	0.01390 0.21130 0.63668 -0.50000
O 	O 	0.65570 0.10470 0.43980 -0.41100
O 	O 	0.96070 0.72820 0.74280 -0.36000
O 	O 	0.52180 0.99920 0.38348 -0.29300
O 	O 	0.98050 0.95350 0.76920 -0.42000
O 	O 	0.00950 0.74840 0.60096 -0.49400
O 	O 	0.59780 0.95720 0.52050 -0.39100
O 	O 	0.87160 0.55580 0.75491 -0.35600
O 	O 	0.79840 0.73710 0.72140 -0.17700
O 	O 	0.89060 0.33600 0.82357 -0.31600
P 	P 	0.32516 0.52274 0.11543 0.52800
P 	P 	0.37737 0.83695 0.21266 0.52500
P 	P 	0.43853 0.19642 0.26300 0.51100
P 	P 	0.11061 0.50978 0.94345 0.57000
Mo	Mo	0.28455 0.64051 0.93330 1.09500
Mo	Mo	0.51969 0.64264 0.19609 1.08200
Mo	Mo	0.28395 0.34928 0.96244 1.09100
Mo	Mo	0.38421 0.76479 0.03492 1.07200
Mo	Mo	0.52215 0.42628 0.21292 1.08000
Mo	Mo	0.38864 0.25479 0.07726 1.06900
Co	Co	0.12168 0.50245 0.13429 1.17600
O 	O 	0.26470 0.27260 0.05354 -0.50800
O 	O 	0.40910 0.63110 0.97756 -0.58400
O 	O 	0.40860 0.36360 0.99853 -0.57700
O 	O 	0.26160 0.74570 0.00970 -0.49300
O 	O 	0.38390 0.42110 0.14234 -0.42200
O 	O 	0.15910 0.60190 0.90911 -0.39300
O 	O 	0.29540 0.48130 0.88482 -0.46800
O 	O 	0.53340 0.52130 0.12373 -0.60600
O 	O 	0.46970 0.31950 0.27890 -0.36300
O 	O 	0.28750 0.50920 0.02787 -0.46900
O 	O 	0.36800 0.86210 0.12600 -0.37900
O 	O 	0.25630 0.53700 0.15907 -0.33300
O 	O 	0.37790 0.19200 0.18135 -0.36700
O 	O 	0.38240 0.62970 0.12495 -0.41500
O 	O 	0.51540 0.11830 0.26560 -0.27700
O 	O 	0.51390 0.28870 0.13668 -0.48300
O 	O 	0.15570 0.39530 0.93980 -0.38700
O 	O 	0.46070 0.77180 0.24280 -0.37800
O 	O 	0.02180 0.50080 0.88348 -0.33100
O 	O 	0.48050 0.54650 0.26920 -0.46200
O 	O 	0.50950 0.75160 0.10096 -0.47800
O 	O 	0.09780 0.54280 0.02050 -0.43300
O 	O 	0.37160 0.94420 0.25491 -0.34500
O 	O 	0.29840 0.76290 0.22140 -0.17800
O 	O 	0.39060 0.16400 0.32357 -0.32700
P 	P 	0.17484 0.02274 0.38457 0.50200
P 	P 	0.12263 0.33695 0.28734 0.52500
P 	P 	0.06147 0.69642 0.23700 0.49000
P 	P 	0.38939 0.00978 0.55655 0.51800
Mo	Mo	0.21545 0.14051 0.56670 1.07400
Mo	Mo	0.98031 0.14264 0.30391 1.09500
Mo	Mo	0.21605 0.84928 0.53756 1.08500
Mo	Mo	0.11579 0.26479 0.46508 1.07300
Mo	Mo	0.97785 0.92628 0.28708 1.10800
Mo	Mo	0.11136 0.75479 0.42274 1.07600
Co	Co	0.37832 0.00245 0.36571 1.16800
O 	O 	0.23530 0.77260 0.44646 -0.47800
O 	O 	0.09090 0.13110 0.52244 -0.62900
O 	O 	0.09140 0.86360 0.50147 -0.59800
O 	O 	0.23840 0.24570 0.49030 -0.47700
O 	O 	0.11610 0.92110 0.35766 -0.39700
O 	O 	0.34090 0.10190 0.59089 -0.40300
O 	O 	0.20460 0.98130 0.61518 -0.44700
O 	O 	0.96660 0.02130 0.37627 -0.60300
O 	O 	0.03030 0.81950 0.22110 -0.36800
O 	O 	0.21250 0.00920 0.47213 -0.46300
O 	O 	0.13200 0.36210 0.37400 -0.39000
O 	O 	0.24370 0.03700 0.34093 -0.34100
O 	O 	0.12210 0.69200 0.31865 -0.35900
O 	O 	0.11760 0.12970 0.37505 -0.42100
O 	O 	0.98460 0.61830 0.23440 -0.23700
O 	O 	0.98610 0.78870 0.36332 -0.45300
O 	O 	0.34430 0.89530 0.56020 -0.36200
O 	O 	0.03930 0.27180 0.25720 -0.40300
O 	O 	0.47820 0.00080 0.61652 -0.33000
O 	O 	0.01950 0.04650 0.23080 -0.50800
O 	O 	0.99050 0.25160 0.39904 -0.45400
O 	O 	0.40220 0.04280 0.47950 -0.40500
O 	O 	0.12840 0.44420 0.24509 -0.37200
O 	O 	0.20160 0.26290 0.27860 -0.18500
O 	O 	0.10940 0.66400 0.17643 -0.32300
Co	Co	0.50000 0.50000 -0.00000 1.18000
Co	Co	0.00000 0.00000 0.50000 1.16200
