data_crystal

_cell_length_a 12.00260
_cell_length_b 14.61610
_cell_length_c 16.82320
_cell_angle_alpha 115.74700
_cell_angle_beta  105.68600
_cell_angle_gamma 90.00000

_symmetry_space_group_name_	'P 1'
_symmetry_space_group_name_H-M	'P 1'

loop_
_symmetry_equiv_pos_as_xyz
  x,y,z

loop_
_atom_site_label
_atom_site_type_symbol
_atom_site_fract_x
_atom_site_fract_y
_atom_site_fract_z
_atom_site_charge
Cd	Cd	0.06867 0.82552 0.56824 1.22900
Cd	Cd	0.67245 0.48612 0.64678 1.20400
Cd	Cd	0.43133 0.25728 0.43176 1.22900
Cd	Cd	0.82755 0.83934 0.35322 1.20400
Cd	Cd	0.93133 0.17448 0.43176 1.22900
Cd	Cd	0.32755 0.51388 0.35322 1.20400
Cd	Cd	0.56867 0.74272 0.56824 1.22900
Cd	Cd	0.17245 0.16066 0.64678 1.20400
H 	H 	0.92060 0.47630 0.42920 0.06800
H 	H 	0.83470 0.49440 0.53600 0.02900
H 	H 	0.76700 0.35700 0.39580 0.05100
H 	H 	0.67480 0.36150 0.26640 0.07600
H 	H 	0.82930 0.46300 0.29100 0.03500
H 	H 	0.76400 0.55890 0.32980 0.03900
H 	H 	0.33750 0.89680 0.69820 -0.01100
H 	H 	0.46090 0.90920 0.83300 0.09600
H 	H 	0.19630 0.78800 0.87200 0.08700
H 	H 	0.07940 0.77800 0.73500 -0.01100
H 	H 	0.47520 0.71520 0.90600 0.09400
H 	H 	0.56160 0.80210 0.91480 0.08800
H 	H 	0.37530 0.83650 0.98800 0.06400
H 	H 	0.46180 0.92350 0.99760 0.06400
H 	H 	0.81000 0.92890 0.21360 -0.03000
H 	H 	0.70620 0.91440 0.07080 0.10100
H 	H 	0.50340 0.67590 0.03400 0.10700
H 	H 	0.61090 0.69940 0.17960 -0.04400
H 	H 	0.57940 0.04710 0.57080 0.06800
H 	H 	0.66530 0.95840 0.46400 0.02900
H 	H 	0.73300 0.96120 0.60420 0.05200
H 	H 	0.82520 0.09510 0.73360 0.07600
H 	H 	0.67070 0.17200 0.70900 0.03500
H 	H 	0.73600 0.22910 0.67020 0.03900
H 	H 	0.16250 0.19860 0.30180 -0.01100
H 	H 	0.03910 0.07620 0.16700 0.09500
H 	H 	0.30370 0.91600 0.12800 0.08700
H 	H 	0.42060 0.04300 0.26500 -0.01000
H 	H 	0.02480 0.80920 0.09400 0.09500
H 	H 	0.93840 0.88730 0.08520 0.08900
H 	H 	0.12470 0.84850 0.01200 0.06300
H 	H 	0.03820 0.92590 0.00240 0.06300
H 	H 	0.69000 0.71530 0.78640 -0.03100
H 	H 	0.79380 0.84360 0.92920 0.10200
H 	H 	0.99660 0.64190 0.96600 0.10800
H 	H 	0.88910 0.51980 0.82040 -0.04400
H 	H 	0.07940 0.52370 0.57080 0.06800
H 	H 	0.16530 0.50560 0.46400 0.02900
H 	H 	0.23300 0.64300 0.60420 0.05100
H 	H 	0.32520 0.63850 0.73360 0.07600
H 	H 	0.17070 0.53700 0.70900 0.03500
H 	H 	0.23600 0.44110 0.67020 0.03900
H 	H 	0.66250 0.10320 0.30180 -0.01100
H 	H 	0.53910 0.09080 0.16700 0.09600
H 	H 	0.80370 0.21200 0.12800 0.08700
H 	H 	0.92060 0.22200 0.26500 -0.01100
H 	H 	0.52480 0.28480 0.09400 0.09400
H 	H 	0.43840 0.19790 0.08520 0.08800
H 	H 	0.62470 0.16350 0.01200 0.06400
H 	H 	0.53820 0.07650 0.00240 0.06400
H 	H 	0.19000 0.07110 0.78640 -0.03000
H 	H 	0.29380 0.08560 0.92920 0.10100
H 	H 	0.49660 0.32410 0.96600 0.10700
H 	H 	0.38910 0.30060 0.82040 -0.04400
H 	H 	0.42060 0.95290 0.42920 0.06800
H 	H 	0.33470 0.04160 0.53600 0.02900
H 	H 	0.26700 0.03880 0.39580 0.05200
H 	H 	0.17480 0.90490 0.26640 0.07600
H 	H 	0.32930 0.82800 0.29100 0.03500
H 	H 	0.26400 0.77090 0.32980 0.03900
H 	H 	0.83750 0.80140 0.69820 -0.01100
H 	H 	0.96090 0.92380 0.83300 0.09500
H 	H 	0.69630 0.08400 0.87200 0.08700
H 	H 	0.57940 0.95700 0.73500 -0.01000
H 	H 	0.97520 0.19080 0.90600 0.09500
H 	H 	0.06160 0.11270 0.91480 0.08900
H 	H 	0.87530 0.15150 0.98800 0.06300
H 	H 	0.96180 0.07410 0.99760 0.06300
H 	H 	0.31000 0.28470 0.21360 -0.03100
H 	H 	0.20620 0.15640 0.07080 0.10200
H 	H 	0.00340 0.35810 0.03400 0.10800
H 	H 	0.11090 0.48020 0.17960 -0.04400
C 	C 	0.86620 0.52720 0.43540 -0.10900
C 	C 	0.78740 0.50820 0.48600 -0.09100
C 	C 	0.71210 0.40737 0.40694 -0.10200
C 	C 	0.68100 0.42674 0.32088 -0.11500
C 	C 	0.78810 0.49830 0.33580 -0.03300
C 	C 	0.94140 0.63100 0.48560 0.31100
C 	C 	0.71940 0.59650 0.52520 0.33600
C 	C 	0.61120 0.35590 0.41720 0.34600
C 	C 	0.56710 0.47200 0.30460 0.36000
C 	C 	0.30820 0.87470 0.73360 0.11000
C 	C 	0.38310 0.88190 0.81500 -0.18800
C 	C 	0.34590 0.84990 0.86940 0.13200
C 	C 	0.22770 0.81060 0.83780 -0.19000
C 	C 	0.15750 0.80540 0.75540 0.09900
C 	C 	0.51270 0.78540 0.94540 -0.19900
C 	C 	0.42350 0.85370 0.95720 -0.14400
C 	C 	0.74650 0.87780 0.17780 0.12300
C 	C 	0.68440 0.86990 0.09180 -0.21800
C 	C 	0.58890 0.79380 0.03760 0.17400
C 	C 	0.56430 0.72970 0.06980 -0.22700
C 	C 	0.63090 0.74370 0.15780 0.11900
C 	C 	0.63380 0.09180 0.56460 -0.10900
C 	C 	0.71260 0.02220 0.51400 -0.09100
C 	C 	0.78790 0.00043 0.59306 -0.10300
C 	C 	0.81900 0.10586 0.67912 -0.11400
C 	C 	0.71190 0.16250 0.66420 -0.03300
C 	C 	0.55860 0.14540 0.51440 0.31100
C 	C 	0.78060 0.07130 0.47480 0.33600
C 	C 	0.88880 0.93870 0.58280 0.34700
C 	C 	0.93290 0.16740 0.69540 0.35900
C 	C 	0.19180 0.14110 0.26640 0.10900
C 	C 	0.11690 0.06690 0.18500 -0.18600
C 	C 	0.15410 0.98050 0.13060 0.12900
C 	C 	0.27230 0.97280 0.16220 -0.19000
C 	C 	0.34250 0.05000 0.24460 0.09900
C 	C 	0.98730 0.84000 0.05460 -0.20400
C 	C 	0.07650 0.89650 0.04280 -0.14000
C 	C 	0.75350 0.70000 0.82220 0.12400
C 	C 	0.81560 0.77810 0.90820 -0.22000
C 	C 	0.91110 0.75620 0.96240 0.17700
C 	C 	0.93570 0.65990 0.93020 -0.22900
C 	C 	0.86910 0.58590 0.84220 0.12000
C 	C 	0.13380 0.47280 0.56460 -0.10900
C 	C 	0.21260 0.49180 0.51400 -0.09100
C 	C 	0.28790 0.59263 0.59306 -0.10200
C 	C 	0.31900 0.57326 0.67912 -0.11500
C 	C 	0.21190 0.50170 0.66420 -0.03300
C 	C 	0.05860 0.36900 0.51440 0.31100
C 	C 	0.28060 0.40350 0.47480 0.33600
C 	C 	0.38880 0.64410 0.58280 0.34600
C 	C 	0.43290 0.52800 0.69540 0.36000
C 	C 	0.69180 0.12530 0.26640 0.11000
C 	C 	0.61690 0.11810 0.18500 -0.18800
C 	C 	0.65410 0.15010 0.13060 0.13200
C 	C 	0.77230 0.18940 0.16220 -0.19000
C 	C 	0.84250 0.19460 0.24460 0.09900
C 	C 	0.48730 0.21460 0.05460 -0.19900
C 	C 	0.57650 0.14630 0.04280 -0.14400
C 	C 	0.25350 0.12220 0.82220 0.12300
C 	C 	0.31560 0.13010 0.90820 -0.21800
C 	C 	0.41110 0.20620 0.96240 0.17400
C 	C 	0.43570 0.27030 0.93020 -0.22700
C 	C 	0.36910 0.25630 0.84220 0.11900
C 	C 	0.36620 0.90820 0.43540 -0.10900
C 	C 	0.28740 0.97780 0.48600 -0.09100
C 	C 	0.21210 0.99957 0.40694 -0.10300
C 	C 	0.18100 0.89414 0.32088 -0.11400
C 	C 	0.28810 0.83750 0.33580 -0.03300
C 	C 	0.44140 0.85460 0.48560 0.31100
C 	C 	0.21940 0.92870 0.52520 0.33600
C 	C 	0.11120 0.06130 0.41720 0.34700
C 	C 	0.06710 0.83260 0.30460 0.35900
C 	C 	0.80820 0.85890 0.73360 0.10900
C 	C 	0.88310 0.93310 0.81500 -0.18600
C 	C 	0.84590 0.01950 0.86940 0.12900
C 	C 	0.72770 0.02720 0.83780 -0.19000
C 	C 	0.65750 0.95000 0.75540 0.09900
C 	C 	0.01270 0.16000 0.94540 -0.20400
C 	C 	0.92350 0.10350 0.95720 -0.14000
C 	C 	0.24650 0.30000 0.17780 0.12400
C 	C 	0.18440 0.22190 0.09180 -0.22000
C 	C 	0.08890 0.24380 0.03760 0.17700
C 	C 	0.06430 0.34010 0.06980 -0.22900
C 	C 	0.13090 0.41410 0.15780 0.12000
N 	N 	0.19610 0.83746 0.70392 -0.24600
N 	N 	0.72040 0.81650 0.21120 -0.27500
N 	N 	0.30390 0.13354 0.29608 -0.24500
N 	N 	0.77960 0.60530 0.78880 -0.27500
N 	N 	0.80390 0.16254 0.29608 -0.24600
N 	N 	0.27960 0.18350 0.78880 -0.27500
N 	N 	0.69610 0.86646 0.70392 -0.24500
N 	N 	0.22040 0.39470 0.21120 -0.27500
O 	O 	0.98410 0.66278 0.43916 -0.40400
O 	O 	0.96490 0.68154 0.57048 -0.37000
O 	O 	0.69780 0.65792 0.49064 -0.39600
O 	O 	0.68650 0.60775 0.59410 -0.47800
O 	O 	0.59960 0.37872 0.49664 -0.53200
O 	O 	0.54290 0.28507 0.34694 -0.38500
O 	O 	0.50930 0.48424 0.35928 -0.43200
O 	O 	0.53850 0.49244 0.23808 -0.31200
O 	O 	0.51590 0.22362 0.56084 -0.40400
O 	O 	0.53510 0.11106 0.42952 -0.37000
O 	O 	0.80220 0.16728 0.50936 -0.39600
O 	O 	0.81350 0.01365 0.40590 -0.47800
O 	O 	0.90040 0.88208 0.50336 -0.53300
O 	O 	0.95710 0.93813 0.65306 -0.38500
O 	O 	0.99070 0.12496 0.64072 -0.43200
O 	O 	0.96150 0.25436 0.76192 -0.31200
O 	O 	0.01590 0.33722 0.56084 -0.40400
O 	O 	0.03510 0.31846 0.42952 -0.37000
O 	O 	0.30220 0.34208 0.50936 -0.39600
O 	O 	0.31350 0.39225 0.40590 -0.47800
O 	O 	0.40040 0.62128 0.50336 -0.53200
O 	O 	0.45710 0.71493 0.65306 -0.38500
O 	O 	0.49070 0.51576 0.64072 -0.43200
O 	O 	0.46150 0.50756 0.76192 -0.31200
O 	O 	0.48410 0.77638 0.43916 -0.40400
O 	O 	0.46490 0.88894 0.57048 -0.37000
O 	O 	0.19780 0.83272 0.49064 -0.39600
O 	O 	0.18650 0.98635 0.59410 -0.47800
O 	O 	0.09960 0.11792 0.49664 -0.53300
O 	O 	0.04290 0.06187 0.34694 -0.38500
O 	O 	0.00930 0.87504 0.35928 -0.43200
O 	O 	0.03850 0.74564 0.23808 -0.31200
