data_crystal

_cell_length_a 27.32900
_cell_length_b 17.37700
_cell_length_c 10.21240
_cell_angle_alpha 90.00000
_cell_angle_beta  90.00000
_cell_angle_gamma 90.00000

_symmetry_space_group_name_	'P 1'
_symmetry_space_group_name_H-M	'P 1'

loop_
_symmetry_equiv_pos_as_xyz
  x,y,z

loop_
_atom_site_label
_atom_site_type_symbol
_atom_site_fract_x
_atom_site_fract_y
_atom_site_fract_z
_atom_site_charge
Ga	Ga	0.65650 0.67770 0.11040 2.09000
Ga	Ga	0.77980 0.73970 0.08860 2.10000
Ga	Ga	0.75740 0.91330 0.92510 2.08900
Ga	Ga	0.55310 0.42270 0.90050 2.08100
P 	P 	0.85790 0.82240 0.90470 0.64300
P 	P 	0.55920 0.57340 0.09630 0.71200
P 	P 	0.75390 0.06500 0.11160 0.66700
P 	P 	0.69610 0.77120 0.88520 0.61400
F 	F 	0.76660 0.85370 0.09070 -0.78700
F 	F 	0.71640 0.73060 0.17870 -0.83800
O 	O 	0.83860 0.75660 0.98690 -0.50900
O 	O 	0.87260 0.79510 0.76720 -0.59800
O 	O 	0.90570 0.85290 0.97020 -0.60500
O 	O 	0.82230 0.89070 0.88870 -0.66700
O 	O 	0.59740 0.62810 0.04780 -0.55500
O 	O 	0.55740 0.50340 0.00910 -0.68200
O 	O 	0.50900 0.61330 0.09500 -0.67800
O 	O 	0.57060 0.54450 0.23700 -0.67400
O 	O 	0.71670 0.12830 0.09120 -0.53400
O 	O 	0.74050 0.00070 0.01530 -0.54700
O 	O 	0.75260 0.03290 0.25220 -0.50500
O 	O 	0.80680 0.09050 0.07890 -0.62400
O 	O 	0.74370 0.73150 0.92680 -0.57700
O 	O 	0.70140 0.85910 0.89320 -0.59000
O 	O 	0.68320 0.74600 0.74530 -0.48800
O 	O 	0.65230 0.74580 0.97230 -0.54600
Ga	Ga	0.84350 0.82230 0.61040 2.09000
Ga	Ga	0.72020 0.76030 0.58860 2.10100
Ga	Ga	0.74260 0.58670 0.42510 2.09000
Ga	Ga	0.94690 0.07730 0.40050 2.08200
P 	P 	0.64210 0.67760 0.40470 0.64400
P 	P 	0.94080 0.92660 0.59630 0.71300
P 	P 	0.74610 0.43500 0.61160 0.66700
P 	P 	0.80390 0.72880 0.38520 0.61400
F 	F 	0.73340 0.64630 0.59070 -0.78800
F 	F 	0.78360 0.76940 0.67870 -0.83800
O 	O 	0.66140 0.74340 0.48690 -0.50900
O 	O 	0.62740 0.70490 0.26720 -0.59800
O 	O 	0.59430 0.64710 0.47020 -0.60400
O 	O 	0.67770 0.60930 0.38870 -0.66600
O 	O 	0.90260 0.87190 0.54780 -0.55500
O 	O 	0.94260 0.99660 0.50910 -0.68200
O 	O 	0.99100 0.88670 0.59500 -0.67800
O 	O 	0.92940 0.95550 0.73700 -0.67500
O 	O 	0.78330 0.37170 0.59120 -0.53400
O 	O 	0.75950 0.49930 0.51530 -0.54600
O 	O 	0.74740 0.46710 0.75220 -0.50400
O 	O 	0.69320 0.40950 0.57890 -0.62300
O 	O 	0.75630 0.76850 0.42680 -0.57600
O 	O 	0.79860 0.64090 0.39320 -0.59000
O 	O 	0.81680 0.75400 0.24530 -0.48700
O 	O 	0.84770 0.75420 0.47230 -0.54500
Ga	Ga	0.34350 0.67770 0.38960 2.09000
Ga	Ga	0.22020 0.73970 0.41140 2.10100
Ga	Ga	0.24260 0.91330 0.57490 2.09000
Ga	Ga	0.44690 0.42270 0.59950 2.08200
P 	P 	0.14210 0.82240 0.59530 0.64400
P 	P 	0.44080 0.57340 0.40370 0.71300
P 	P 	0.24610 0.06500 0.38840 0.66700
P 	P 	0.30390 0.77120 0.61480 0.61400
F 	F 	0.23340 0.85370 0.40930 -0.78800
F 	F 	0.28360 0.73060 0.32130 -0.83800
O 	O 	0.16140 0.75660 0.51310 -0.50900
O 	O 	0.12740 0.79510 0.73280 -0.59800
O 	O 	0.09430 0.85290 0.52980 -0.60400
O 	O 	0.17770 0.89070 0.61130 -0.66600
O 	O 	0.40260 0.62810 0.45220 -0.55500
O 	O 	0.44260 0.50340 0.49090 -0.68200
O 	O 	0.49100 0.61330 0.40500 -0.67800
O 	O 	0.42940 0.54450 0.26300 -0.67400
O 	O 	0.28330 0.12830 0.40880 -0.53400
O 	O 	0.25950 0.00070 0.48470 -0.54700
O 	O 	0.24740 0.03290 0.24780 -0.50500
O 	O 	0.19320 0.09050 0.42110 -0.62400
O 	O 	0.25630 0.73150 0.57320 -0.57700
O 	O 	0.29860 0.85910 0.60680 -0.59000
O 	O 	0.31680 0.74600 0.75470 -0.48800
O 	O 	0.34770 0.74580 0.52770 -0.54500
Ga	Ga	0.15650 0.82230 0.88960 2.09000
Ga	Ga	0.27980 0.76030 0.91140 2.10100
Ga	Ga	0.25740 0.58670 0.07490 2.09000
Ga	Ga	0.05310 0.07730 0.09950 2.08200
P 	P 	0.35790 0.67760 0.09530 0.64400
P 	P 	0.05920 0.92660 0.90370 0.71300
P 	P 	0.25390 0.43500 0.88840 0.66700
P 	P 	0.19610 0.72880 0.11480 0.61400
F 	F 	0.26660 0.64630 0.90930 -0.78800
F 	F 	0.21640 0.76940 0.82130 -0.83800
O 	O 	0.33860 0.74340 0.01310 -0.50900
O 	O 	0.37260 0.70490 0.23280 -0.59800
O 	O 	0.40570 0.64710 0.02980 -0.60400
O 	O 	0.32230 0.60930 0.11130 -0.66600
O 	O 	0.09740 0.87190 0.95220 -0.55500
O 	O 	0.05740 0.99660 0.99090 -0.68200
O 	O 	0.00900 0.88670 0.90500 -0.67800
O 	O 	0.07060 0.95550 0.76300 -0.67400
O 	O 	0.21670 0.37170 0.90880 -0.53400
O 	O 	0.24050 0.49930 0.98470 -0.54600
O 	O 	0.25260 0.46710 0.74780 -0.50400
O 	O 	0.30680 0.40950 0.92110 -0.62300
O 	O 	0.24370 0.76850 0.07320 -0.57600
O 	O 	0.20140 0.64090 0.10680 -0.59000
O 	O 	0.18320 0.75400 0.25470 -0.48800
O 	O 	0.15230 0.75420 0.02770 -0.54500
Ga	Ga	0.34350 0.32230 0.88960 2.09100
Ga	Ga	0.22020 0.26030 0.91140 2.10100
Ga	Ga	0.24260 0.08670 0.07490 2.09000
Ga	Ga	0.44690 0.57730 0.09950 2.08200
P 	P 	0.14210 0.17760 0.09530 0.64400
P 	P 	0.44080 0.42660 0.90370 0.71300
P 	P 	0.24610 0.93500 0.88840 0.66700
P 	P 	0.30390 0.22880 0.11480 0.61400
F 	F 	0.23340 0.14630 0.90930 -0.78700
F 	F 	0.28360 0.26940 0.82130 -0.83800
O 	O 	0.16140 0.24340 0.01310 -0.50900
O 	O 	0.12740 0.20490 0.23280 -0.59800
O 	O 	0.09430 0.14710 0.02980 -0.60500
O 	O 	0.17770 0.10930 0.11130 -0.66700
O 	O 	0.40260 0.37190 0.95220 -0.55500
O 	O 	0.44260 0.49660 0.99090 -0.68200
O 	O 	0.49100 0.38670 0.90500 -0.67800
O 	O 	0.42940 0.45550 0.76300 -0.67400
O 	O 	0.28330 0.87170 0.90880 -0.53400
O 	O 	0.25950 0.99930 0.98470 -0.54700
O 	O 	0.24740 0.96710 0.74780 -0.50500
O 	O 	0.19320 0.90950 0.92110 -0.62400
O 	O 	0.25630 0.26850 0.07320 -0.57700
O 	O 	0.29860 0.14090 0.10680 -0.59000
O 	O 	0.31680 0.25400 0.25470 -0.48800
O 	O 	0.34770 0.25420 0.02770 -0.54600
Ga	Ga	0.15650 0.17770 0.38960 2.09000
Ga	Ga	0.27980 0.23970 0.41140 2.10100
Ga	Ga	0.25740 0.41330 0.57490 2.09000
Ga	Ga	0.05310 0.92270 0.59950 2.08200
P 	P 	0.35790 0.32240 0.59530 0.64400
P 	P 	0.05920 0.07340 0.40370 0.71300
P 	P 	0.25390 0.56500 0.38840 0.66700
P 	P 	0.19610 0.27120 0.61480 0.61400
F 	F 	0.26660 0.35370 0.40930 -0.78800
F 	F 	0.21640 0.23060 0.32130 -0.83800
O 	O 	0.33860 0.25660 0.51310 -0.50900
O 	O 	0.37260 0.29510 0.73280 -0.59800
O 	O 	0.40570 0.35290 0.52980 -0.60400
O 	O 	0.32230 0.39070 0.61130 -0.66600
O 	O 	0.09740 0.12810 0.45220 -0.55500
O 	O 	0.05740 0.00340 0.49090 -0.68200
O 	O 	0.00900 0.11330 0.40500 -0.67800
O 	O 	0.07060 0.04450 0.26300 -0.67500
O 	O 	0.21670 0.62830 0.40880 -0.53400
O 	O 	0.24050 0.50070 0.48470 -0.54600
O 	O 	0.25260 0.53290 0.24780 -0.50400
O 	O 	0.30680 0.59050 0.42110 -0.62300
O 	O 	0.24370 0.23150 0.57320 -0.57600
O 	O 	0.20140 0.35910 0.60680 -0.59000
O 	O 	0.18320 0.24600 0.75470 -0.48700
O 	O 	0.15230 0.24580 0.52770 -0.54500
Ga	Ga	0.65650 0.32230 0.61040 2.09000
Ga	Ga	0.77980 0.26030 0.58860 2.10100
Ga	Ga	0.75740 0.08670 0.42510 2.09000
Ga	Ga	0.55310 0.57730 0.40050 2.08200
P 	P 	0.85790 0.17760 0.40470 0.64400
P 	P 	0.55920 0.42660 0.59630 0.71300
P 	P 	0.75390 0.93500 0.61160 0.66700
P 	P 	0.69610 0.22880 0.38520 0.61400
F 	F 	0.76660 0.14630 0.59070 -0.78800
F 	F 	0.71640 0.26940 0.67870 -0.83800
O 	O 	0.83860 0.24340 0.48690 -0.50900
O 	O 	0.87260 0.20490 0.26720 -0.59800
O 	O 	0.90570 0.14710 0.47020 -0.60400
O 	O 	0.82230 0.10930 0.38870 -0.66600
O 	O 	0.59740 0.37190 0.54780 -0.55500
O 	O 	0.55740 0.49660 0.50910 -0.68200
O 	O 	0.50900 0.38670 0.59500 -0.67800
O 	O 	0.57060 0.45550 0.73700 -0.67400
O 	O 	0.71670 0.87170 0.59120 -0.53400
O 	O 	0.74050 0.99930 0.51530 -0.54700
O 	O 	0.75260 0.96710 0.75220 -0.50500
O 	O 	0.80680 0.90950 0.57890 -0.62400
O 	O 	0.74370 0.26850 0.42680 -0.57700
O 	O 	0.70140 0.14090 0.39320 -0.59000
O 	O 	0.68320 0.25400 0.24530 -0.48800
O 	O 	0.65230 0.25420 0.47230 -0.54500
Ga	Ga	0.84350 0.17770 0.11040 2.09000
Ga	Ga	0.72020 0.23970 0.08860 2.10100
Ga	Ga	0.74260 0.41330 0.92510 2.09000
Ga	Ga	0.94690 0.92270 0.90050 2.08200
P 	P 	0.64210 0.32240 0.90470 0.64400
P 	P 	0.94080 0.07340 0.09630 0.71300
P 	P 	0.74610 0.56500 0.11160 0.66700
P 	P 	0.80390 0.27120 0.88520 0.61400
F 	F 	0.73340 0.35370 0.09070 -0.78800
F 	F 	0.78360 0.23060 0.17870 -0.83800
O 	O 	0.66140 0.25660 0.98690 -0.50900
O 	O 	0.62740 0.29510 0.76720 -0.59800
O 	O 	0.59430 0.35290 0.97020 -0.60400
O 	O 	0.67770 0.39070 0.88870 -0.66600
O 	O 	0.90260 0.12810 0.04780 -0.55500
O 	O 	0.94260 0.00340 0.00910 -0.68200
O 	O 	0.99100 0.11330 0.09500 -0.67800
O 	O 	0.92940 0.04450 0.23700 -0.67400
O 	O 	0.78330 0.62830 0.09120 -0.53400
O 	O 	0.75950 0.50070 0.01530 -0.54600
O 	O 	0.74740 0.53290 0.25220 -0.50400
O 	O 	0.69320 0.59050 0.07890 -0.62300
O 	O 	0.75630 0.23150 0.92680 -0.57600
O 	O 	0.79860 0.35910 0.89320 -0.59000
O 	O 	0.81680 0.24600 0.74530 -0.48800
O 	O 	0.84770 0.24580 0.97230 -0.54500
