data_crystal

_cell_length_a 14.91790
_cell_length_b 16.76600
_cell_length_c 17.80570
_cell_angle_alpha 61.91340
_cell_angle_beta  65.23430
_cell_angle_gamma 90.00000

_symmetry_space_group_name_	'P 1'
_symmetry_space_group_name_H-M	'P 1'

loop_
_symmetry_equiv_pos_as_xyz
  x,y,z

loop_
_atom_site_label
_atom_site_type_symbol
_atom_site_fract_x
_atom_site_fract_y
_atom_site_fract_z
_atom_site_charge
Cu	Cu	-0.00000 0.00000 0.50000 0.86300
Cu	Cu	0.50000 0.00000 0.50000 0.87900
H 	H 	0.97610 0.19470 0.41580 0.06100
H 	H 	0.06300 0.34480 0.35320 0.08700
H 	H 	0.28940 0.23970 0.39740 0.10400
H 	H 	0.19530 0.08920 0.46380 0.00200
H 	H 	0.27650 0.40250 0.36460 0.10200
H 	H 	0.19930 0.44620 0.32440 0.09600
H 	H 	0.37810 0.54980 0.94440 0.05900
H 	H 	0.05190 0.17980 0.20160 0.00600
H 	H 	0.04940 0.23840 0.05520 0.00700
H 	H 	0.60810 0.88950 0.41580 0.01700
H 	H 	0.58380 0.80200 0.35320 0.11400
H 	H 	0.31320 0.86290 0.39740 0.11200
H 	H 	0.34090 0.94700 0.46380 0.02300
H 	H 	0.35890 0.73290 0.36460 0.10400
H 	H 	0.47630 0.72940 0.32440 0.10200
H 	H 	0.67750 0.00580 0.94440 0.09300
H 	H 	0.74650 0.11860 0.20160 0.04700
H 	H 	0.89540 0.20640 0.05520 0.05800
H 	H 	0.02390 0.80530 0.58420 -0.03200
H 	H 	0.93700 0.65520 0.64680 0.13800
H 	H 	0.71060 0.76030 0.60260 0.11700
H 	H 	0.80470 0.91080 0.53620 0.02400
H 	H 	0.72350 0.59750 0.63540 0.10900
H 	H 	0.80070 0.55380 0.67560 0.10800
H 	H 	0.62190 0.45020 0.05560 0.08200
H 	H 	0.94810 0.82020 0.79840 0.09900
H 	H 	0.95060 0.76160 0.94480 0.09200
H 	H 	0.39190 0.11050 0.58420 0.00500
H 	H 	0.41620 0.19800 0.64680 0.11300
H 	H 	0.68680 0.13710 0.60260 0.11000
H 	H 	0.65910 0.05300 0.53620 0.00300
H 	H 	0.64110 0.26710 0.63540 0.10600
H 	H 	0.52370 0.27060 0.67560 0.10200
H 	H 	0.32250 0.99420 0.05560 0.04900
H 	H 	0.25350 0.88140 0.79840 0.06300
H 	H 	0.10460 0.79360 0.94480 0.05300
C 	C 	0.04060 0.20330 0.41300 0.01500
C 	C 	0.09250 0.29380 0.37440 -0.14100
C 	C 	0.18610 0.30770 0.36740 0.14100
C 	C 	0.22440 0.23160 0.40100 -0.16400
C 	C 	0.16770 0.14120 0.44080 0.08100
C 	C 	0.24550 0.40380 0.32460 -0.14200
C 	C 	0.42430 0.42770 0.20040 0.19300
C 	C 	0.30830 0.47830 0.14600 0.21200
C 	C 	0.40480 0.49390 0.06220 -0.07100
C 	C 	0.42660 0.53010 0.96640 0.02000
C 	C 	0.52490 0.53460 0.90640 -0.05200
C 	C 	0.90540 0.08340 0.38120 0.32900
C 	C 	0.90110 0.11530 0.28780 -0.07400
C 	C 	0.98990 0.16760 0.20140 0.03700
C 	C 	0.98860 0.20210 0.11460 0.00600
C 	C 	0.54640 0.88370 0.41300 0.10800
C 	C 	0.53310 0.83180 0.37440 -0.18100
C 	C 	0.44650 0.82490 0.36740 0.16800
C 	C 	0.37460 0.86740 0.40100 -0.17500
C 	C 	0.39150 0.91800 0.44080 0.09700
C 	C 	0.42990 0.77160 0.32460 -0.15400
C 	C 	0.37530 0.87190 0.20040 0.22100
C 	C 	0.54570 0.87570 0.14600 0.18100
C 	C 	0.53300 0.94390 0.06220 0.05000
C 	C 	0.60700 0.00350 0.96640 -0.12000
C 	C 	0.56870 0.05900 0.90640 0.02200
C 	C 	0.71340 0.03540 0.38120 0.25400
C 	C 	0.81110 0.09690 0.28780 -0.02800
C 	C 	0.80870 0.13100 0.20140 -0.02000
C 	C 	0.89680 0.18330 0.11460 -0.05500
C 	C 	0.95940 0.79670 0.58700 0.18100
C 	C 	0.90750 0.70620 0.62560 -0.22100
C 	C 	0.81390 0.69230 0.63260 0.19100
C 	C 	0.77560 0.76840 0.59900 -0.19100
C 	C 	0.83230 0.85880 0.55920 0.10600
C 	C 	0.75450 0.59620 0.67540 -0.16700
C 	C 	0.57570 0.57230 0.79960 0.21100
C 	C 	0.69170 0.52170 0.85400 0.19000
C 	C 	0.59520 0.50610 0.93780 0.01000
C 	C 	0.57340 0.46990 0.03360 -0.07300
C 	C 	0.47510 0.46540 0.09360 -0.00400
C 	C 	0.09460 0.91660 0.61880 0.31700
C 	C 	0.09890 0.88470 0.71220 -0.01000
C 	C 	0.01010 0.83240 0.79860 -0.05500
C 	C 	0.01140 0.79790 0.88540 -0.06300
C 	C 	0.45360 0.11630 0.58700 0.09800
C 	C 	0.46690 0.16820 0.62560 -0.18600
C 	C 	0.55350 0.17510 0.63260 0.16600
C 	C 	0.62540 0.13260 0.59900 -0.18200
C 	C 	0.60850 0.08200 0.55920 0.09200
C 	C 	0.57010 0.22840 0.67540 -0.15600
C 	C 	0.62470 0.12810 0.79960 0.18300
C 	C 	0.45430 0.12430 0.85400 0.22100
C 	C 	0.46700 0.05610 0.93780 -0.11100
C 	C 	0.39300 0.99650 0.03360 0.06800
C 	C 	0.43130 0.94100 0.09360 -0.07700
C 	C 	0.28660 0.96460 0.61880 0.39700
C 	C 	0.18890 0.90310 0.71220 -0.05800
C 	C 	0.19130 0.86900 0.79860 0.00100
C 	C 	0.10320 0.81670 0.88540 -0.01900
N 	N 	0.07660 0.12750 0.44640 -0.22600
N 	N 	0.32604 0.43854 0.22512 -0.14300
N 	N 	0.47700 0.92610 0.44640 -0.21700
N 	N 	0.44884 0.83634 0.22512 -0.13900
N 	N 	0.92340 0.87250 0.55360 -0.22400
N 	N 	0.67396 0.56146 0.77488 -0.13700
N 	N 	0.52300 0.07390 0.55360 -0.23700
N 	N 	0.55116 0.16366 0.77488 -0.14100
O 	O 	0.97817 0.04717 0.38766 -0.40100
O 	O 	0.83958 0.09598 0.44324 -0.29200
O 	O 	0.45833 0.39483 0.25614 -0.22000
O 	O 	0.22826 0.49416 0.14868 -0.22800
O 	O 	0.63417 0.06517 0.38766 -0.39300
O 	O 	0.71718 0.96078 0.44324 -0.22500
O 	O 	0.28553 0.84903 0.25614 -0.22500
O 	O 	0.62306 0.85716 0.14868 -0.20100
O 	O 	0.02183 0.95283 0.61234 -0.37300
O 	O 	0.16042 0.90402 0.55676 -0.27100
O 	O 	0.54167 0.60517 0.74386 -0.22300
O 	O 	0.77174 0.50584 0.85132 -0.20200
O 	O 	0.36583 0.93483 0.61234 -0.39200
O 	O 	0.28282 0.03922 0.55676 -0.34200
O 	O 	0.71447 0.15097 0.74386 -0.21700
O 	O 	0.37694 0.14284 0.85132 -0.22900
Cu	Cu	0.50000 0.50000 0.50000 0.90400
Cu	Cu	-0.00000 0.50000 0.50000 0.88800
H 	H 	0.52390 0.61050 0.58420 0.01000
H 	H 	0.43700 0.69800 0.64680 0.11600
H 	H 	0.21060 0.63710 0.60260 0.10800
H 	H 	0.30470 0.55300 0.53620 0.01100
H 	H 	0.22350 0.76710 0.63540 0.10400
H 	H 	0.30070 0.77060 0.67560 0.10300
H 	H 	0.12190 0.49420 0.05560 0.10600
H 	H 	0.44810 0.38140 0.79840 0.05500
H 	H 	0.45060 0.29360 0.94480 0.05300
H 	H 	0.89190 0.30530 0.58420 0.01100
H 	H 	0.91620 0.15520 0.64680 0.09800
H 	H 	0.18680 0.26030 0.60260 0.10000
H 	H 	0.15910 0.41080 0.53620 0.01700
H 	H 	0.14110 0.09750 0.63540 0.08800
H 	H 	0.02370 0.05380 0.67560 0.06800
H 	H 	0.82250 0.95020 0.05560 0.06600
H 	H 	0.75350 0.32020 0.79840 0.05900
H 	H 	0.60460 0.26160 0.94480 0.05300
H 	H 	0.47610 0.38950 0.41580 0.01000
H 	H 	0.56300 0.30200 0.35320 0.11200
H 	H 	0.78940 0.36290 0.39740 0.11400
H 	H 	0.69530 0.44700 0.46380 0.01300
H 	H 	0.77650 0.23290 0.36460 0.10700
H 	H 	0.69930 0.22940 0.32440 0.10100
H 	H 	0.87810 0.50580 0.94440 0.03700
H 	H 	0.55190 0.61860 0.20160 0.05700
H 	H 	0.54940 0.70640 0.05520 0.05500
H 	H 	0.10810 0.69470 0.41580 0.01100
H 	H 	0.08380 0.84480 0.35320 0.13000
H 	H 	0.81320 0.73970 0.39740 0.12100
H 	H 	0.84090 0.58920 0.46380 0.00800
H 	H 	0.85890 0.90250 0.36460 0.12100
H 	H 	0.97630 0.94620 0.32440 0.13400
H 	H 	0.17750 0.04980 0.94440 0.07600
H 	H 	0.24650 0.67980 0.20160 0.05300
H 	H 	0.39540 0.73840 0.05520 0.05500
C 	C 	0.45940 0.61630 0.58700 0.10300
C 	C 	0.40750 0.66820 0.62560 -0.18400
C 	C 	0.31390 0.67510 0.63260 0.16700
C 	C 	0.27560 0.63260 0.59900 -0.17900
C 	C 	0.33230 0.58200 0.55920 0.09300
C 	C 	0.25450 0.72840 0.67540 -0.15500
C 	C 	0.07570 0.62810 0.79960 0.23100
C 	C 	0.19170 0.62430 0.85400 0.17200
C 	C 	0.09520 0.55610 0.93780 0.06000
C 	C 	0.07340 0.49650 0.03360 -0.16900
C 	C 	0.97510 0.44100 0.09360 0.08000
C 	C 	0.59460 0.46460 0.61880 0.32500
C 	C 	0.59890 0.40310 0.71220 -0.04400
C 	C 	0.51010 0.36900 0.79860 -0.01000
C 	C 	0.51140 0.31670 0.88540 -0.03600
C 	C 	0.95360 0.29670 0.58700 0.11600
C 	C 	0.96690 0.20620 0.62560 -0.11600
C 	C 	0.05350 0.19230 0.63260 0.09900
C 	C 	0.12540 0.26840 0.59900 -0.14800
C 	C 	0.10850 0.35880 0.55920 0.07300
C 	C 	0.07010 0.09620 0.67540 -0.11700
C 	C 	0.12470 0.07230 0.79960 0.19600
C 	C 	0.95430 0.02170 0.85400 0.23400
C 	C 	0.96700 0.00610 0.93780 -0.04700
C 	C 	0.89300 0.96990 0.03360 0.01900
C 	C 	0.93130 0.96540 0.09360 -0.01100
C 	C 	0.78660 0.41660 0.61880 0.32100
C 	C 	0.68890 0.38470 0.71220 -0.04000
C 	C 	0.69130 0.33240 0.79860 -0.01400
C 	C 	0.60320 0.29790 0.88540 -0.03200
C 	C 	0.54060 0.38370 0.41300 0.10300
C 	C 	0.59250 0.33180 0.37440 -0.18300
C 	C 	0.68610 0.32490 0.36740 0.16800
C 	C 	0.72440 0.36740 0.40100 -0.17900
C 	C 	0.66770 0.41800 0.44080 0.09500
C 	C 	0.74550 0.27160 0.32460 -0.15600
C 	C 	0.92430 0.37190 0.20040 0.17200
C 	C 	0.80830 0.37570 0.14600 0.22900
C 	C 	0.90480 0.44390 0.06220 -0.11800
C 	C 	0.92660 0.50350 0.96640 0.10700
C 	C 	0.02490 0.55900 0.90640 -0.13100
C 	C 	0.40540 0.53540 0.38120 0.32400
C 	C 	0.40110 0.59690 0.28780 -0.04100
C 	C 	0.48990 0.63100 0.20140 -0.01300
C 	C 	0.48860 0.68330 0.11460 -0.03300
C 	C 	0.04640 0.70330 0.41300 0.09000
C 	C 	0.03310 0.79380 0.37440 -0.24500
C 	C 	0.94650 0.80770 0.36740 0.23100
C 	C 	0.87460 0.73160 0.40100 -0.20700
C 	C 	0.89150 0.64120 0.44080 0.11400
C 	C 	0.92990 0.90380 0.32460 -0.19100
C 	C 	0.87530 0.92770 0.20040 0.20800
C 	C 	0.04570 0.97830 0.14600 0.16900
C 	C 	0.03300 0.99390 0.06220 -0.00800
C 	C 	0.10700 0.03010 0.96640 -0.07400
C 	C 	0.06870 0.03460 0.90640 -0.04800
C 	C 	0.21340 0.58340 0.38120 0.32700
C 	C 	0.31110 0.61530 0.28780 -0.04500
C 	C 	0.30870 0.66760 0.20140 -0.01000
C 	C 	0.39680 0.70210 0.11460 -0.03600
N 	N 	0.42340 0.57390 0.55360 -0.23100
N 	N 	0.17396 0.66366 0.77488 -0.14000
N 	N 	0.02300 0.37250 0.55360 -0.24500
N 	N 	0.05116 0.06146 0.77488 -0.16700
N 	N 	0.57660 0.42610 0.44640 -0.23000
N 	N 	0.82604 0.33634 0.22512 -0.13900
N 	N 	0.97700 0.62750 0.44640 -0.21200
N 	N 	0.94884 0.93854 0.22512 -0.11500
O 	O 	0.52183 0.43483 0.61234 -0.39700
O 	O 	0.66042 0.53922 0.55676 -0.28300
O 	O 	0.04167 0.65097 0.74386 -0.24300
O 	O 	0.27174 0.64284 0.85132 -0.20100
O 	O 	0.86583 0.45283 0.61234 -0.38400
O 	O 	0.78282 0.40402 0.55676 -0.27900
O 	O 	0.21447 0.10517 0.74386 -0.22900
O 	O 	0.87694 0.00584 0.85132 -0.23100
O 	O 	0.47817 0.56517 0.38766 -0.39700
O 	O 	0.33958 0.46078 0.44324 -0.28400
O 	O 	0.95833 0.34903 0.25614 -0.19800
O 	O 	0.72826 0.35716 0.14868 -0.22800
O 	O 	0.13417 0.54717 0.38766 -0.40300
O 	O 	0.21718 0.59598 0.44324 -0.28700
O 	O 	0.78553 0.89483 0.25614 -0.21500
O 	O 	0.12306 0.99416 0.14868 -0.19700
