data_crystal

_cell_length_a 15.31070
_cell_length_b 16.72840
_cell_length_c 17.78820
_cell_angle_alpha 118.04800
_cell_angle_beta  115.49100
_cell_angle_gamma 89.99990

_symmetry_space_group_name_	'P 1'
_symmetry_space_group_name_H-M	'P 1'

loop_
_symmetry_equiv_pos_as_xyz
  x,y,z

loop_
_atom_site_label
_atom_site_type_symbol
_atom_site_fract_x
_atom_site_fract_y
_atom_site_fract_z
_atom_site_charge
Cu	Cu	-0.00000 0.50000 0.50000 0.89400
Cu	Cu	0.50000 0.50000 0.50000 0.90800
H 	H 	0.10710 0.38800 0.58340 0.02200
H 	H 	0.08580 0.30220 0.64780 0.13300
H 	H 	0.81700 0.36080 0.60100 0.12700
H 	H 	0.84510 0.44590 0.53880 0.01000
H 	H 	0.98080 0.22760 0.67780 0.12100
H 	H 	0.86510 0.22870 0.63560 0.11500
H 	H 	0.17470 0.50670 0.06100 0.04600
H 	H 	0.74800 0.38260 0.20020 0.05400
H 	H 	0.60090 0.29260 0.05320 0.05100
H 	H 	0.94520 0.32380 0.26140 0.12800
H 	H 	0.05320 0.38350 0.30100 0.08800
H 	H 	0.03730 0.27650 0.27240 0.10800
H 	H 	0.05580 0.42170 0.43040 0.09500
H 	H 	0.47630 0.69540 0.58340 0.02000
H 	H 	0.56200 0.84560 0.64780 0.12800
H 	H 	0.78400 0.74020 0.60100 0.12200
H 	H 	0.69370 0.59290 0.53880 0.01400
H 	H 	0.69700 0.95020 0.67780 0.11800
H 	H 	0.77050 0.90690 0.63560 0.11500
H 	H 	0.88630 0.05430 0.06100 0.06600
H 	H 	0.45220 0.31760 0.20020 0.05100
H 	H 	0.45230 0.26060 0.05320 0.05000
H 	H 	0.31620 0.43760 0.26140 0.07600
H 	H 	0.24780 0.41750 0.30100 0.06000
H 	H 	0.23510 0.49590 0.27240 0.08300
H 	H 	0.37460 0.50870 0.43040 0.10400
H 	H 	0.89290 0.61200 0.41660 0.02000
H 	H 	0.91420 0.69780 0.35220 0.11400
H 	H 	0.18300 0.63920 0.39900 0.11200
H 	H 	0.15490 0.55410 0.46120 0.01900
H 	H 	0.01920 0.77240 0.32220 0.08900
H 	H 	0.13490 0.77130 0.36440 0.10000
H 	H 	0.82530 0.49330 0.93900 0.09200
H 	H 	0.25200 0.61740 0.79980 0.05000
H 	H 	0.39910 0.70740 0.94680 0.05000
H 	H 	0.05480 0.67620 0.73860 0.02700
H 	H 	0.94680 0.61650 0.69900 0.03800
H 	H 	0.96270 0.72350 0.72760 0.06100
H 	H 	0.94420 0.57830 0.56960 0.11800
H 	H 	0.52370 0.30460 0.41660 0.02100
H 	H 	0.43800 0.15440 0.35220 0.11800
H 	H 	0.21600 0.25980 0.39900 0.11700
H 	H 	0.30630 0.40710 0.46120 0.01500
H 	H 	0.30300 0.04980 0.32220 0.09000
H 	H 	0.22950 0.09310 0.36440 0.09900
H 	H 	0.11370 0.94570 0.93900 0.07100
H 	H 	0.54780 0.68240 0.79980 0.05300
H 	H 	0.54770 0.73940 0.94680 0.05100
H 	H 	0.68380 0.56240 0.73860 0.07900
H 	H 	0.75220 0.58250 0.69900 0.06600
H 	H 	0.76490 0.50410 0.72760 0.08700
H 	H 	0.62540 0.49130 0.56960 0.10400
C 	C 	0.04773 0.38273 0.58746 0.09100
C 	C 	0.03542 0.33122 0.62584 -0.23200
C 	C 	0.94922 0.32212 0.63204 0.21300
C 	C 	0.87728 0.36588 0.59836 -0.20100
C 	C 	0.89454 0.41634 0.56128 0.11200
C 	C 	0.93439 0.26869 0.67618 -0.17800
C 	C 	0.04816 0.37556 0.85632 0.19000
C 	C 	0.87929 0.36959 0.79818 0.17500
C 	C 	0.03439 0.44379 0.94018 -0.11800
C 	C 	0.10536 0.50396 0.03672 0.05100
C 	C 	0.06702 0.55972 0.09484 -0.10500
C 	C 	0.78329 0.46759 0.38298 0.30700
C 	C 	0.68904 0.40524 0.28908 -0.04100
C 	C 	0.68783 0.36983 0.20066 -0.01200
C 	C 	0.60063 0.31623 0.11326 -0.03400
C 	C 	0.01740 0.33450 0.30060 -0.21000
C 	C 	0.53973 0.70473 0.58746 0.10700
C 	C 	0.59042 0.79462 0.62584 -0.18300
C 	C 	0.68282 0.80992 0.63204 0.16600
C 	C 	0.72108 0.73248 0.59836 -0.18200
C 	C 	0.66674 0.64494 0.56128 0.09700
C 	C 	0.74179 0.90749 0.67618 -0.16000
C 	C 	0.80816 0.98076 0.85632 0.19600
C 	C 	0.91889 0.92859 0.79818 0.19600
C 	C 	0.90579 0.99639 0.94018 -0.00100
C 	C 	0.93136 0.03276 0.03672 -0.02800
C 	C 	0.02782 0.03512 0.09484 -0.06200
C 	C 	0.59969 0.41539 0.38298 0.31000
C 	C 	0.60004 0.38384 0.28908 -0.04400
C 	C 	0.51283 0.33083 0.20066 -0.01000
C 	C 	0.51263 0.29703 0.11326 -0.03600
C 	C 	0.28320 0.46610 0.30060 -0.10000
C 	C 	0.95227 0.61727 0.41254 0.11800
C 	C 	0.96458 0.66878 0.37416 -0.13100
C 	C 	0.05078 0.67788 0.36796 0.11200
C 	C 	0.12272 0.63412 0.40164 -0.15900
C 	C 	0.10546 0.58366 0.43872 0.07900
C 	C 	0.06561 0.73131 0.32382 -0.12900
C 	C 	0.95184 0.62444 0.14368 0.20100
C 	C 	0.12071 0.63041 0.20182 0.21500
C 	C 	0.96561 0.55621 0.05982 0.05300
C 	C 	0.89464 0.49604 0.96328 -0.10600
C 	C 	0.93298 0.44028 0.90516 0.04800
C 	C 	0.21671 0.53241 0.61702 0.31100
C 	C 	0.31096 0.59476 0.71092 -0.04400
C 	C 	0.31217 0.63017 0.79934 -0.01000
C 	C 	0.39937 0.68377 0.88674 -0.03600
C 	C 	0.98260 0.66550 0.69940 0.00600
C 	C 	0.46027 0.29527 0.41254 0.10200
C 	C 	0.40958 0.20538 0.37416 -0.17500
C 	C 	0.31718 0.19008 0.36796 0.15500
C 	C 	0.27892 0.26752 0.40164 -0.17600
C 	C 	0.33326 0.35506 0.43872 0.09200
C 	C 	0.25821 0.09251 0.32382 -0.14500
C 	C 	0.19184 0.01924 0.14368 0.19700
C 	C 	0.08111 0.07141 0.20182 0.19500
C 	C 	0.09421 0.00361 0.05982 -0.05800
C 	C 	0.06864 0.96724 0.96328 -0.02700
C 	C 	0.97218 0.96488 0.90516 -0.00100
C 	C 	0.40031 0.58461 0.61702 0.31000
C 	C 	0.39996 0.61616 0.71092 -0.04300
C 	C 	0.48717 0.66917 0.79934 -0.01100
C 	C 	0.48737 0.70297 0.88674 -0.03500
C 	C 	0.71680 0.53390 0.69940 -0.10600
N 	N 	0.97863 0.42593 0.55526 -0.20600
N 	N 	0.95294 0.33394 0.77528 -0.11800
N 	N 	0.57663 0.62933 0.55526 -0.22400
N 	N 	0.82234 0.94134 0.77528 -0.13200
N 	N 	0.02137 0.57407 0.44474 -0.23600
N 	N 	0.04706 0.66606 0.22472 -0.15500
N 	N 	0.42337 0.37067 0.44474 -0.22200
N 	N 	0.17766 0.05866 0.22472 -0.14400
O 	O 	0.12508 0.35848 0.85596 -0.22700
O 	O 	0.79123 0.34673 0.74026 -0.21300
O 	O 	0.86270 0.43955 0.39020 -0.37100
O 	O 	0.77907 0.54290 0.44536 -0.25600
O 	O 	0.04132 0.36292 0.39664 -0.26200
O 	O 	0.73088 0.99748 0.85596 -0.19900
O 	O 	0.94903 0.89353 0.74026 -0.20100
O 	O 	0.52750 0.45065 0.39020 -0.38100
O 	O 	0.66629 0.40246 0.44536 -0.25800
O 	O 	0.35532 0.53372 0.39664 -0.27800
O 	O 	0.87492 0.64152 0.14404 -0.20800
O 	O 	0.20877 0.65327 0.25974 -0.22500
O 	O 	0.13730 0.56045 0.60980 -0.38600
O 	O 	0.22093 0.45710 0.55464 -0.26000
O 	O 	0.95868 0.63708 0.60336 -0.29300
O 	O 	0.26912 0.00252 0.14404 -0.23500
O 	O 	0.05097 0.10647 0.25974 -0.23800
O 	O 	0.47250 0.54935 0.60980 -0.38100
O 	O 	0.33371 0.59754 0.55464 -0.25800
O 	O 	0.64468 0.46628 0.60336 -0.27600
Cu	Cu	0.50000 0.00000 0.50000 0.88600
Cu	Cu	0.00000 0.00000 0.50000 0.87100
H 	H 	0.39290 0.80460 0.41660 0.02100
H 	H 	0.41420 0.65440 0.35220 0.12300
H 	H 	0.68300 0.75980 0.39900 0.11900
H 	H 	0.65490 0.90710 0.46120 0.02600
H 	H 	0.51920 0.54980 0.32220 0.10400
H 	H 	0.63490 0.59310 0.36440 0.10700
H 	H 	0.32530 0.44570 0.93900 0.07700
H 	H 	0.75200 0.18240 0.79980 0.04000
H 	H 	0.89910 0.23940 0.94680 0.06400
H 	H 	0.55480 0.06240 0.73860 0.08400
H 	H 	0.44680 0.08250 0.69900 0.07300
H 	H 	0.46270 0.00410 0.72760 0.08300
H 	H 	0.44420 0.99130 0.56960 0.11200
H 	H 	0.02370 0.11200 0.41660 -0.02900
H 	H 	0.93800 0.19780 0.35220 0.14700
H 	H 	0.71600 0.13920 0.39900 0.12100
H 	H 	0.80630 0.05410 0.46120 0.00300
H 	H 	0.80300 0.27240 0.32220 0.10900
H 	H 	0.72950 0.27130 0.36440 0.11100
H 	H 	0.61370 0.99330 0.93900 0.05200
H 	H 	0.04780 0.11740 0.79980 0.01500
H 	H 	0.04770 0.20740 0.94680 0.00000
H 	H 	0.18380 0.17620 0.73860 0.06200
H 	H 	0.25220 0.11650 0.69900 0.04600
H 	H 	0.26490 0.22350 0.72760 0.07700
H 	H 	0.12540 0.07830 0.56960 0.09400
H 	H 	0.60710 0.19540 0.58340 0.02000
H 	H 	0.58580 0.34560 0.64780 0.12300
H 	H 	0.31700 0.24020 0.60100 0.11900
H 	H 	0.34510 0.09290 0.53880 0.00400
H 	H 	0.48080 0.45020 0.67780 0.10400
H 	H 	0.36510 0.40690 0.63560 0.10700
H 	H 	0.67470 0.55430 0.06100 0.06100
H 	H 	0.24800 0.81760 0.20020 0.06300
H 	H 	0.10090 0.76060 0.05320 0.04000
H 	H 	0.44520 0.93760 0.26140 0.07100
H 	H 	0.55320 0.91750 0.30100 0.05200
H 	H 	0.53730 0.99590 0.27240 0.08600
H 	H 	0.55580 0.00870 0.43040 0.10300
H 	H 	0.97630 0.88800 0.58340 0.06600
H 	H 	0.06200 0.80220 0.64780 0.10100
H 	H 	0.28400 0.86080 0.60100 0.11800
H 	H 	0.19370 0.94590 0.53880 0.02900
H 	H 	0.19700 0.72760 0.67780 0.09900
H 	H 	0.27050 0.72870 0.63560 0.10400
H 	H 	0.38630 0.00670 0.06100 0.08600
H 	H 	0.95220 0.88260 0.20020 0.08200
H 	H 	0.95230 0.79260 0.05320 0.09200
H 	H 	0.81620 0.82380 0.26140 0.09000
H 	H 	0.74780 0.88350 0.30100 0.07800
H 	H 	0.73510 0.77650 0.27240 0.09200
H 	H 	0.87460 0.92170 0.43040 0.12400
C 	C 	0.45227 0.79527 0.41254 0.10400
C 	C 	0.46458 0.70538 0.37416 -0.17700
C 	C 	0.55078 0.69008 0.36796 0.16000
C 	C 	0.62272 0.76752 0.40164 -0.17700
C 	C 	0.60546 0.85506 0.43872 0.09500
C 	C 	0.56561 0.59251 0.32382 -0.15200
C 	C 	0.45184 0.51924 0.14368 0.18800
C 	C 	0.62071 0.57141 0.20182 0.20200
C 	C 	0.46561 0.50361 0.05982 0.00300
C 	C 	0.39464 0.46724 0.96328 -0.06800
C 	C 	0.43298 0.46488 0.90516 -0.01100
C 	C 	0.71671 0.08461 0.61702 0.31200
C 	C 	0.81096 0.11616 0.71092 -0.06500
C 	C 	0.81217 0.16917 0.79934 0.01000
C 	C 	0.89937 0.20297 0.88674 -0.07700
C 	C 	0.48260 0.03390 0.69940 -0.17200
C 	C 	0.96027 0.11727 0.41254 0.17800
C 	C 	0.90958 0.16878 0.37416 -0.22000
C 	C 	0.81718 0.17788 0.36796 0.18100
C 	C 	0.77892 0.13412 0.40164 -0.19700
C 	C 	0.83326 0.08366 0.43872 0.10000
C 	C 	0.75821 0.23131 0.32382 -0.16500
C 	C 	0.69184 0.12444 0.14368 0.21200
C 	C 	0.58111 0.13041 0.20182 0.17800
C 	C 	0.59421 0.05621 0.05982 -0.09800
C 	C 	0.56864 0.99604 0.96328 0.05300
C 	C 	0.47218 0.94028 0.90516 -0.07100
C 	C 	0.90031 0.03241 0.61702 0.25300
C 	C 	0.89996 0.09476 0.71092 -0.03500
C 	C 	0.98717 0.13017 0.79934 0.00500
C 	C 	0.98737 0.18377 0.88674 0.02500
C 	C 	0.21680 0.16550 0.69940 -0.08500
C 	C 	0.54773 0.20473 0.58746 0.10400
C 	C 	0.53542 0.29462 0.62584 -0.18000
C 	C 	0.44922 0.30992 0.63204 0.16000
C 	C 	0.37728 0.23248 0.59836 -0.18100
C 	C 	0.39454 0.14494 0.56128 0.09400
C 	C 	0.43439 0.40749 0.67618 -0.15300
C 	C 	0.54816 0.48076 0.85632 0.20500
C 	C 	0.37929 0.42859 0.79818 0.18800
C 	C 	0.53439 0.49639 0.94018 -0.06100
C 	C 	0.60536 0.53276 0.03672 0.00800
C 	C 	0.56702 0.53512 0.09484 -0.05000
C 	C 	0.28329 0.91539 0.38298 0.30700
C 	C 	0.18904 0.88384 0.28908 -0.02000
C 	C 	0.18783 0.83083 0.20066 -0.02800
C 	C 	0.10063 0.79703 0.11326 0.00200
C 	C 	0.51740 0.96610 0.30060 -0.03300
C 	C 	0.03973 0.88273 0.58746 0.03900
C 	C 	0.09042 0.83122 0.62584 -0.14000
C 	C 	0.18282 0.82212 0.63204 0.14200
C 	C 	0.22108 0.86588 0.59836 -0.16200
C 	C 	0.16674 0.91634 0.56128 0.09000
C 	C 	0.24179 0.76869 0.67618 -0.14100
C 	C 	0.30816 0.87556 0.85632 0.18100
C 	C 	0.41889 0.86959 0.79818 0.21200
C 	C 	0.40579 0.94379 0.94018 0.04000
C 	C 	0.43136 0.00396 0.03672 -0.11200
C 	C 	0.52782 0.05972 0.09484 0.01000
C 	C 	0.09969 0.96759 0.38298 0.37000
C 	C 	0.10004 0.90524 0.28908 -0.05200
C 	C 	0.01283 0.86983 0.20066 -0.01900
C 	C 	0.01263 0.81623 0.11326 -0.08600
C 	C 	0.78320 0.83450 0.30060 -0.11500
N 	N 	0.52137 0.87067 0.44474 -0.21300
N 	N 	0.54706 0.55866 0.22472 -0.13700
N 	N 	0.92337 0.07407 0.44474 -0.23500
N 	N 	0.67766 0.16606 0.22472 -0.13700
N 	N 	0.47863 0.12933 0.55526 -0.22700
N 	N 	0.45294 0.44134 0.77528 -0.13800
N 	N 	0.07663 0.92593 0.55526 -0.20300
N 	N 	0.32234 0.83394 0.77528 -0.13800
O 	O 	0.37492 0.50252 0.14404 -0.21100
O 	O 	0.70877 0.60647 0.25974 -0.22000
O 	O 	0.63730 0.04935 0.60980 -0.40100
O 	O 	0.72093 0.09754 0.55464 -0.26600
O 	O 	0.45868 0.96628 0.60336 -0.23700
O 	O 	0.76912 0.14152 0.14404 -0.22500
O 	O 	0.55097 0.15327 0.25974 -0.21900
O 	O 	0.97250 0.06045 0.60980 -0.36100
O 	O 	0.83371 0.95710 0.55464 -0.21200
O 	O 	0.14468 0.13708 0.60336 -0.28600
O 	O 	0.62508 0.49748 0.85596 -0.22300
O 	O 	0.29123 0.39353 0.74026 -0.21800
O 	O 	0.36270 0.95065 0.39020 -0.35400
O 	O 	0.27907 0.90246 0.44536 -0.24900
O 	O 	0.54132 0.03372 0.39664 -0.31800
O 	O 	0.23088 0.85848 0.85596 -0.20900
O 	O 	0.44903 0.84673 0.74026 -0.21900
O 	O 	0.02750 0.93955 0.39020 -0.38700
O 	O 	0.16629 0.04290 0.44536 -0.30600
O 	O 	0.85532 0.86292 0.39664 -0.27200
