data_crystal

_cell_length_a 13.75800
_cell_length_b 17.56500
_cell_length_c 16.92100
_cell_angle_alpha 90.00000
_cell_angle_beta  100.07000
_cell_angle_gamma 90.00000

_symmetry_space_group_name_	'P 1'
_symmetry_space_group_name_H-M	'P 1'

loop_
_symmetry_equiv_pos_as_xyz
  x,y,z

loop_
_atom_site_label
_atom_site_type_symbol
_atom_site_fract_x
_atom_site_fract_y
_atom_site_fract_z
_atom_site_charge
N 	N 	0.51560 0.01040 0.88300 -0.20800
N 	N 	0.58300 0.01800 0.77650 -0.13700
N 	N 	0.49970 0.61480 0.49100 -0.19800
C 	C 	0.49750 0.05690 0.75800 0.08200
H 	H 	0.47180 0.08250 0.70940 0.00100
N 	N 	0.54310 0.73080 0.47320 -0.12400
C 	C 	0.65450 0.01630 0.72220 -0.13600
H 	H 	0.72100 0.00850 0.75440 0.06000
H 	H 	0.65420 0.06660 0.69580 0.06500
C 	C 	0.44780 0.73490 0.47870 0.09000
H 	H 	0.40730 0.77900 0.47540 0.00600
C 	C 	0.57410 0.65930 0.48110 0.09600
H 	H 	0.63950 0.64260 0.47980 -0.01700
N 	N 	0.45860 0.05110 0.82280 -0.10000
C 	C 	0.63690 0.95620 0.65860 0.09200
C 	C 	0.54910 0.95200 0.60440 -0.08500
H 	H 	0.49600 0.98470 0.61080 0.07100
C 	C 	0.59320 0.99160 0.85050 0.14600
H 	H 	0.64820 0.96310 0.87680 -0.02100
C 	C 	0.61290 0.85200 0.53110 0.04200
C 	C 	0.60220 0.79850 0.46100 -0.09700
H 	H 	0.57010 0.82550 0.41200 0.06000
H 	H 	0.66840 0.78200 0.45270 0.05900
C 	C 	0.70050 0.85430 0.58600 -0.04700
H 	H 	0.75260 0.82030 0.58060 0.04600
N 	N 	0.42270 0.66410 0.48980 -0.10200
C 	C 	0.53710 0.90110 0.54150 -0.04600
H 	H 	0.47640 0.89960 0.50480 0.05000
C 	C 	0.71180 0.90620 0.64890 -0.08800
H 	H 	0.77220 0.90750 0.68600 0.06300
N 	N 	0.48440 0.51040 0.61700 -0.19700
N 	N 	0.41700 0.51800 0.72350 -0.12400
N 	N 	0.50030 0.11480 0.00900 -0.20500
C 	C 	0.50250 0.55690 0.74200 0.08700
H 	H 	0.52820 0.58250 0.79060 0.00600
N 	N 	0.45690 0.23080 0.02680 -0.12000
C 	C 	0.34550 0.51630 0.77780 -0.09200
H 	H 	0.27900 0.50850 0.74560 0.05700
H 	H 	0.34580 0.56660 0.80420 0.06000
C 	C 	0.55220 0.23490 0.02130 0.08100
H 	H 	0.59270 0.27900 0.02460 -0.00300
C 	C 	0.42590 0.15930 0.01890 0.08700
H 	H 	0.36050 0.14260 0.02020 -0.02400
N 	N 	0.54140 0.55110 0.67720 -0.10000
C 	C 	0.36310 0.45620 0.84140 0.03500
C 	C 	0.45090 0.45200 0.89560 -0.03500
H 	H 	0.50400 0.48470 0.88920 0.05000
C 	C 	0.40680 0.49160 0.64950 0.09600
H 	H 	0.35180 0.46310 0.62320 -0.01600
C 	C 	0.38710 0.35200 0.96890 0.11000
C 	C 	0.39780 0.29850 0.03900 -0.15600
H 	H 	0.42990 0.32550 0.08800 0.06900
H 	H 	0.33160 0.28200 0.04730 0.06500
C 	C 	0.29950 0.35430 0.91400 -0.09700
H 	H 	0.24740 0.32030 0.91940 0.06700
N 	N 	0.57730 0.16410 0.01020 -0.11100
C 	C 	0.46290 0.40110 0.95850 -0.09600
H 	H 	0.52360 0.39960 0.99520 0.07500
C 	C 	0.28820 0.40620 0.85110 -0.04100
H 	H 	0.22780 0.40750 0.81400 0.04200
N 	N 	0.48440 0.98960 0.11700 -0.17500
N 	N 	0.41700 0.98200 0.22350 -0.10800
N 	N 	0.50030 0.38520 0.50900 -0.19800
C 	C 	0.50250 0.94310 0.24200 0.09000
H 	H 	0.52820 0.91750 0.29060 0.00500
N 	N 	0.45690 0.26920 0.52680 -0.12300
C 	C 	0.34550 0.98370 0.27780 -0.06000
H 	H 	0.27900 0.99150 0.24560 0.05500
H 	H 	0.34580 0.93340 0.30420 0.05200
C 	C 	0.55220 0.26510 0.52130 0.08900
H 	H 	0.59270 0.22100 0.52460 0.00300
C 	C 	0.42590 0.34070 0.51890 0.09500
H 	H 	0.36050 0.35740 0.52020 -0.01700
N 	N 	0.54140 0.94890 0.17720 -0.10100
C 	C 	0.36310 0.04380 0.34140 0.00400
C 	C 	0.45090 0.04800 0.39560 -0.03800
H 	H 	0.50400 0.01530 0.38920 0.03400
C 	C 	0.40680 0.00840 0.14950 0.03900
H 	H 	0.35180 0.03690 0.12320 -0.00800
C 	C 	0.38710 0.14800 0.46890 0.06500
C 	C 	0.39780 0.20150 0.53900 -0.11000
H 	H 	0.42990 0.17450 0.58800 0.06100
H 	H 	0.33160 0.21800 0.54730 0.06100
C 	C 	0.29950 0.14570 0.41400 -0.08700
H 	H 	0.24740 0.17970 0.41940 0.05400
N 	N 	0.57730 0.33590 0.51020 -0.10300
C 	C 	0.46290 0.09890 0.45850 -0.08800
H 	H 	0.52360 0.10040 0.49520 0.05500
C 	C 	0.28820 0.09380 0.35110 -0.04100
H 	H 	0.22780 0.09250 0.31400 0.03200
N 	N 	0.51560 0.48960 0.38300 -0.19700
N 	N 	0.58300 0.48200 0.27650 -0.12300
N 	N 	0.49970 0.88520 0.99100 -0.18400
C 	C 	0.49750 0.44310 0.25800 0.08500
H 	H 	0.47180 0.41750 0.20940 -0.00100
N 	N 	0.54310 0.76920 0.97320 -0.12700
C 	C 	0.65450 0.48370 0.22220 -0.10600
H 	H 	0.72100 0.49150 0.25440 0.05700
H 	H 	0.65420 0.43340 0.19580 0.05700
C 	C 	0.44780 0.76510 0.97870 0.09800
H 	H 	0.40730 0.72100 0.97540 0.01200
C 	C 	0.57410 0.84070 0.98110 0.10300
H 	H 	0.63950 0.85740 0.97980 -0.00900
N 	N 	0.45860 0.44890 0.32280 -0.10200
C 	C 	0.63690 0.54380 0.15860 0.06300
C 	C 	0.54910 0.54800 0.10440 -0.08700
H 	H 	0.49600 0.51530 0.11080 0.05600
C 	C 	0.59320 0.50840 0.35050 0.09400
H 	H 	0.64820 0.53690 0.37680 -0.01600
C 	C 	0.61290 0.64800 0.03110 -0.00100
C 	C 	0.60220 0.70150 0.96100 -0.05400
H 	H 	0.57010 0.67450 0.91200 0.05200
H 	H 	0.66840 0.71800 0.95270 0.05400
C 	C 	0.70050 0.64570 0.08600 -0.03800
H 	H 	0.75260 0.67970 0.08060 0.03300
N 	N 	0.42270 0.83590 0.98980 -0.09300
C 	C 	0.53710 0.59890 0.04150 -0.03900
H 	H 	0.47640 0.60040 0.00480 0.03000
C 	C 	0.71180 0.59380 0.14890 -0.08800
H 	H 	0.77220 0.59250 0.18600 0.05300
Cu	Cu	0.50000 0.00000 -0.00000 0.83200
Cu	Cu	0.50000 0.50000 0.50000 0.85600
