data_crystal

_cell_length_a 18.91200
_cell_length_b 7.59560
_cell_length_c 13.89240
_cell_angle_alpha 90.00000
_cell_angle_beta  90.00000
_cell_angle_gamma 90.00000

_symmetry_space_group_name_	'P 1'
_symmetry_space_group_name_H-M	'P 1'

loop_
_symmetry_equiv_pos_as_xyz
  x,y,z

loop_
_atom_site_label
_atom_site_type_symbol
_atom_site_fract_x
_atom_site_fract_y
_atom_site_fract_z
_atom_site_charge
N 	N 	0.57510 0.34130 0.39730 -0.20600
N 	N 	0.90850 0.34140 0.07480 -0.19800
H 	H 	0.69630 0.35460 0.17060 0.03200
H 	H 	0.78260 0.35440 0.29440 0.06800
C 	C 	0.61980 0.38960 0.33190 0.10000
H 	H 	0.62970 0.50740 0.31620 -0.00200
C 	C 	0.86160 0.39170 0.13770 0.09100
H 	H 	0.85120 0.50950 0.15270 0.00100
N 	N 	0.92490 0.65870 0.89730 -0.14500
N 	N 	0.59150 0.65860 0.57480 -0.20000
H 	H 	0.80370 0.64540 0.67060 0.06300
H 	H 	0.71740 0.64560 0.79440 0.07800
C 	C 	0.88020 0.61040 0.83190 0.12600
H 	H 	0.87030 0.49260 0.81620 0.02500
C 	C 	0.63840 0.60830 0.63770 0.10300
H 	H 	0.64880 0.49050 0.65270 0.00700
N 	N 	0.42490 0.84130 0.60270 -0.21000
N 	N 	0.09150 0.84140 0.92520 -0.18800
H 	H 	0.30370 0.85460 0.82940 0.09400
H 	H 	0.21740 0.85440 0.70560 0.05400
C 	C 	0.38020 0.88960 0.66810 0.21100
H 	H 	0.37030 0.00740 0.68380 -0.07000
C 	C 	0.13840 0.89170 0.86230 0.20500
H 	H 	0.14880 0.00950 0.84730 -0.06100
N 	N 	0.07510 0.15870 0.10270 -0.23600
N 	N 	0.40850 0.15860 0.42520 -0.19600
H 	H 	0.19630 0.14540 0.32940 0.03600
H 	H 	0.28260 0.14560 0.20560 0.01800
C 	C 	0.11980 0.11040 0.16810 -0.02800
H 	H 	0.12970 0.99260 0.18380 0.05300
C 	C 	0.36160 0.10830 0.36230 -0.01500
H 	H 	0.35120 0.99050 0.34730 0.07300
N 	N 	0.42490 0.65870 0.60270 -0.20300
N 	N 	0.09150 0.65860 0.92520 -0.18200
H 	H 	0.30370 0.64540 0.82940 0.08200
H 	H 	0.21740 0.64560 0.70560 0.04100
C 	C 	0.38020 0.61040 0.66810 0.10700
H 	H 	0.37030 0.49260 0.68380 0.00200
C 	C 	0.13840 0.60830 0.86230 0.10400
H 	H 	0.14880 0.49050 0.84730 0.00900
N 	N 	0.07510 0.34130 0.10270 -0.24700
N 	N 	0.40850 0.34140 0.42520 -0.20600
H 	H 	0.19630 0.35460 0.32940 0.04900
H 	H 	0.28260 0.35440 0.20560 0.03100
C 	C 	0.11980 0.38960 0.16810 0.07900
H 	H 	0.12970 0.50740 0.18380 -0.02200
C 	C 	0.36160 0.39170 0.36230 0.09100
H 	H 	0.35120 0.50950 0.34730 -0.00200
N 	N 	0.57510 0.15870 0.39730 -0.19700
N 	N 	0.90850 0.15860 0.07480 -0.19000
H 	H 	0.69630 0.14540 0.17060 0.01900
H 	H 	0.78260 0.14560 0.29440 0.05500
C 	C 	0.61980 0.11040 0.33190 -0.00600
H 	H 	0.62970 0.99260 0.31620 0.07200
C 	C 	0.86160 0.10830 0.13770 -0.01400
H 	H 	0.85120 0.99050 0.15270 0.07500
N 	N 	0.92490 0.84130 0.89730 -0.15300
N 	N 	0.59150 0.84140 0.57480 -0.20700
H 	H 	0.80370 0.85460 0.67060 0.07600
H 	H 	0.71740 0.85440 0.79440 0.09000
C 	C 	0.88020 0.88960 0.83190 0.22700
H 	H 	0.87030 0.00740 0.81620 -0.04500
C 	C 	0.63840 0.89170 0.63770 0.20600
H 	H 	0.64880 0.00950 0.65270 -0.06500
Cd	Cd	0.50000 0.50000 0.50000 1.20500
Cd	Cd	0.00000 0.50000 -0.00000 1.11800
Cd	Cd	0.50000 0.00000 0.50000 1.18600
Cd	Cd	-0.00000 0.00000 -0.00000 1.10000
Cl	Cl	0.50925 0.25000 0.62795 -0.64300
N 	N 	0.65030 0.25000 0.28930 -0.12400
N 	N 	0.83010 0.25000 0.17850 -0.11100
C 	C 	0.70270 0.25000 0.21100 -0.04000
C 	C 	0.77650 0.25000 0.25370 -0.07900
Cl	Cl	0.99075 0.75000 0.12795 -0.54600
N 	N 	0.84970 0.75000 0.78930 -0.14300
N 	N 	0.66990 0.75000 0.67850 -0.13800
C 	C 	0.79730 0.75000 0.71100 -0.04100
C 	C 	0.72350 0.75000 0.75370 -0.06300
Cl	Cl	0.49075 0.75000 0.37205 -0.63100
N 	N 	0.34970 0.75000 0.71070 -0.14200
N 	N 	0.16990 0.75000 0.82150 -0.14700
C 	C 	0.29730 0.75000 0.78900 -0.07400
C 	C 	0.22350 0.75000 0.74630 -0.02600
Cl	Cl	0.00925 0.25000 0.87205 -0.66200
N 	N 	0.15030 0.25000 0.21070 -0.12200
N 	N 	0.33010 0.25000 0.32150 -0.12100
C 	C 	0.20270 0.25000 0.28900 -0.07300
C 	C 	0.27650 0.25000 0.24630 -0.04200
