data_crystal

_cell_length_a 7.62000
_cell_length_b 20.96300
_cell_length_c 9.87600
_cell_angle_alpha 90.00000
_cell_angle_beta  90.00000
_cell_angle_gamma 90.00000

_symmetry_space_group_name_	'P 1'
_symmetry_space_group_name_H-M	'P 1'

loop_
_symmetry_equiv_pos_as_xyz
  x,y,z

loop_
_atom_site_label
_atom_site_type_symbol
_atom_site_fract_x
_atom_site_fract_y
_atom_site_fract_z
_atom_site_charge
N 	N 	0.59030 0.17130 0.13620 -0.20900
C 	C 	0.64070 0.12080 0.06910 0.10500
H 	H 	0.75660 0.10900 0.05320 -0.02000
H 	H 	0.39680 0.02440 0.89330 0.06000
N 	N 	0.09030 0.67130 0.63620 -0.17800
C 	C 	0.14070 0.62080 0.56910 0.11800
H 	H 	0.25660 0.60900 0.55320 -0.00700
H 	H 	0.89680 0.52440 0.39330 -0.01600
N 	N 	0.40970 0.32870 0.13620 -0.20200
C 	C 	0.35930 0.37920 0.06910 0.10400
H 	H 	0.24340 0.39100 0.05320 0.00600
H 	H 	0.60320 0.47560 0.89330 0.05000
N 	N 	0.90970 0.82870 0.63620 -0.22600
C 	C 	0.85930 0.87920 0.56910 0.03500
H 	H 	0.74340 0.89100 0.55320 0.01300
H 	H 	0.10320 0.97560 0.39330 0.03600
N 	N 	0.40970 0.67130 0.86380 -0.20200
C 	C 	0.35930 0.62080 0.93090 0.10400
H 	H 	0.24340 0.60900 0.94680 0.00600
H 	H 	0.60320 0.52440 0.10670 0.05000
N 	N 	0.90970 0.17130 0.36380 -0.22600
C 	C 	0.85930 0.12080 0.43090 0.03500
H 	H 	0.74340 0.10900 0.44680 0.01300
H 	H 	0.10320 0.02440 0.60670 0.03600
N 	N 	0.59030 0.82870 0.86380 -0.20900
C 	C 	0.64070 0.87920 0.93090 0.10500
H 	H 	0.75660 0.89100 0.94680 -0.02000
H 	H 	0.39680 0.97560 0.10670 0.06000
N 	N 	0.09030 0.32870 0.36380 -0.17800
C 	C 	0.14070 0.37920 0.43090 0.11800
H 	H 	0.25660 0.39100 0.44680 -0.00700
H 	H 	0.89680 0.47560 0.60670 -0.01600
N 	N 	0.40970 0.82870 0.86380 -0.20200
C 	C 	0.35930 0.87920 0.93090 0.10400
H 	H 	0.24340 0.89100 0.94680 0.00600
H 	H 	0.60320 0.97560 0.10670 0.05000
N 	N 	0.90970 0.32870 0.36380 -0.22600
C 	C 	0.85930 0.37920 0.43090 0.03400
H 	H 	0.74340 0.39100 0.44680 0.01300
H 	H 	0.10320 0.47560 0.60670 0.03600
N 	N 	0.59030 0.67130 0.86380 -0.21000
C 	C 	0.64070 0.62080 0.93090 0.10400
H 	H 	0.75660 0.60900 0.94680 -0.02000
H 	H 	0.39680 0.52440 0.10670 0.06000
N 	N 	0.09030 0.17130 0.36380 -0.17800
C 	C 	0.14070 0.12080 0.43090 0.11800
H 	H 	0.25660 0.10900 0.44680 -0.00700
H 	H 	0.89680 0.02440 0.60670 -0.01600
N 	N 	0.59030 0.32870 0.13620 -0.21000
C 	C 	0.64070 0.37920 0.06910 0.10400
H 	H 	0.75660 0.39100 0.05320 -0.02000
H 	H 	0.39680 0.47560 0.89330 0.06000
N 	N 	0.09030 0.82870 0.63620 -0.17800
C 	C 	0.14070 0.87920 0.56910 0.11800
H 	H 	0.25660 0.89100 0.55320 -0.00700
H 	H 	0.89680 0.97560 0.39330 -0.01600
N 	N 	0.40970 0.17130 0.13620 -0.20200
C 	C 	0.35930 0.12080 0.06910 0.10400
H 	H 	0.24340 0.10900 0.05320 0.00600
H 	H 	0.60320 0.02440 0.89330 0.05000
N 	N 	0.90970 0.67130 0.63620 -0.22600
C 	C 	0.85930 0.62080 0.56910 0.03400
H 	H 	0.74340 0.60900 0.55320 0.01300
H 	H 	0.10320 0.52440 0.39330 0.03600
Cd	Cd	0.75000 0.25000 0.25000 1.19700
Cd	Cd	0.25000 0.25000 0.25000 1.21000
Cd	Cd	0.25000 0.75000 0.75000 1.21000
Cd	Cd	0.75000 0.75000 0.75000 1.19700
Cl	Cl	-0.00000 0.25000 0.07020 -0.58000
Cl	Cl	0.50000 0.75000 0.57020 -0.63400
Cl	Cl	0.00000 0.75000 0.92980 -0.58000
Cl	Cl	0.50000 0.25000 0.42980 -0.63400
N 	N 	0.50000 0.08890 0.02750 -0.13400
C 	C 	0.50000 0.02690 0.95050 -0.06100
N 	N 	-0.00000 0.58890 0.52750 -0.10200
C 	C 	0.00000 0.52690 0.45050 0.03300
N 	N 	0.50000 0.41110 0.02750 -0.13400
C 	C 	0.50000 0.47310 0.95050 -0.06100
N 	N 	-0.00000 0.91110 0.52750 -0.10200
C 	C 	0.00000 0.97310 0.45050 0.03300
N 	N 	0.50000 0.58890 0.97250 -0.13400
C 	C 	0.50000 0.52690 0.04950 -0.06100
N 	N 	-0.00000 0.08890 0.47250 -0.10200
C 	C 	-0.00000 0.02690 0.54950 0.03300
N 	N 	0.50000 0.91110 0.97250 -0.13400
C 	C 	0.50000 0.97310 0.04950 -0.06100
N 	N 	-0.00000 0.41110 0.47250 -0.10200
C 	C 	0.00000 0.47310 0.54950 0.03300
