data_crystal

_cell_length_a 11.01290
_cell_length_b 13.35540
_cell_length_c 15.84300
_cell_angle_alpha 114.92900
_cell_angle_beta  110.33800
_cell_angle_gamma 90.00000

_symmetry_space_group_name_	'P 1'
_symmetry_space_group_name_H-M	'P 1'

loop_
_symmetry_equiv_pos_as_xyz
  x,y,z

loop_
_atom_site_label
_atom_site_type_symbol
_atom_site_fract_x
_atom_site_fract_y
_atom_site_fract_z
_atom_site_charge
Pr	Pr	0.48530 0.06861 0.44240 1.98800
Pr	Pr	0.04290 0.93139 0.55760 2.06100
Pr	Pr	0.54290 0.62621 0.55760 2.01500
Pr	Pr	0.98530 0.37379 0.44240 1.98000
Pr	Pr	0.98210 0.00000 -0.00000 1.74200
Pr	Pr	0.48210 0.00000 -0.00000 1.78000
P 	P 	0.78540 0.01040 0.38900 0.23400
P 	P 	0.02580 0.88590 0.17860 0.53600
P 	P 	0.39640 0.98960 0.61100 0.57300
P 	P 	0.84720 0.11410 0.82140 0.31400
P 	P 	0.89640 0.62140 0.61100 0.36800
P 	P 	0.34720 0.70730 0.82140 0.38000
P 	P 	0.28540 0.37860 0.38900 0.41300
P 	P 	0.52580 0.29270 0.17860 0.38100
C 	C 	0.91300 0.13450 0.45720 -0.22300
C 	C 	0.05680 0.15280 0.47640 0.33600
C 	C 	0.12760 0.02400 0.25340 -0.11400
C 	C 	0.22250 0.05940 0.21440 0.12800
C 	C 	0.45580 0.86550 0.54280 -0.11200
C 	C 	0.58040 0.84720 0.52360 0.24000
C 	C 	0.87420 0.97600 0.74660 -0.02400
C 	C 	0.00810 0.94060 0.78560 0.38500
C 	C 	0.95580 0.67730 0.54280 -0.19800
C 	C 	0.08040 0.67640 0.52360 0.31000
C 	C 	0.37420 0.77060 0.74660 -0.03700
C 	C 	0.50810 0.84500 0.78560 0.26700
C 	C 	0.41300 0.32270 0.45720 -0.12300
C 	C 	0.55680 0.32360 0.47640 0.24200
C 	C 	0.62760 0.22940 0.25340 -0.08300
C 	C 	0.72250 0.15500 0.21440 0.21700
O 	O 	0.65520 0.05350 0.38160 -0.48300
O 	O 	0.80950 0.93400 0.44160 -0.34500
O 	O 	0.79720 0.94410 0.28660 -0.14800
O 	O 	0.84470 0.22290 0.45800 -0.25500
O 	O 	0.11960 0.07720 0.49420 -0.40000
O 	O 	0.10920 0.19840 0.43800 -0.32600
O 	O 	0.96610 0.86540 0.24520 -0.27800
O 	O 	0.11750 0.80100 0.15040 -0.26600
O 	O 	0.91860 0.87980 0.08260 -0.53800
O 	O 	0.21540 0.02560 0.34460 -0.26400
O 	O 	0.33910 0.08590 0.28480 -0.39400
O 	O 	0.21750 0.97780 0.13240 -0.34800
O 	O 	0.27360 0.94650 0.61840 -0.42300
O 	O 	0.36790 0.06600 0.55840 -0.50300
O 	O 	0.51060 0.05590 0.71340 -0.31100
O 	O 	0.38670 0.77710 0.54200 -0.25600
O 	O 	0.62540 0.92280 0.50580 -0.32000
O 	O 	0.67120 0.80160 0.56200 -0.32300
O 	O 	0.72090 0.13460 0.75480 -0.21900
O 	O 	0.96710 0.19900 0.84960 -0.23200
O 	O 	0.83600 0.12020 0.91740 -0.38200
O 	O 	0.87080 0.97440 0.65540 -0.22400
O 	O 	0.05430 0.91410 0.71520 -0.35300
O 	O 	0.08510 0.02220 0.86760 -0.44000
O 	O 	0.77360 0.67190 0.61840 -0.44800
O 	O 	0.86790 0.49240 0.55840 -0.43400
O 	O 	0.01060 0.65750 0.71340 -0.14900
O 	O 	0.88670 0.76490 0.54200 -0.26900
O 	O 	0.12540 0.58300 0.50580 -0.35700
O 	O 	0.17120 0.76040 0.56200 -0.32700
O 	O 	0.22090 0.62020 0.75480 -0.17900
O 	O 	0.46710 0.65060 0.84960 -0.18000
O 	O 	0.33600 0.79720 0.91740 -0.31900
O 	O 	0.37080 0.68100 0.65540 -0.24100
O 	O 	0.55430 0.80110 0.71520 -0.36600
O 	O 	0.58510 0.84540 0.86760 -0.34600
O 	O 	0.15520 0.32810 0.38160 -0.43600
O 	O 	0.30950 0.50760 0.44160 -0.42300
O 	O 	0.29720 0.34250 0.28660 -0.25000
O 	O 	0.34470 0.23510 0.45800 -0.25200
O 	O 	0.61960 0.41700 0.49420 -0.36400
O 	O 	0.60920 0.23960 0.43800 -0.33400
O 	O 	0.46610 0.37980 0.24520 -0.23500
O 	O 	0.61750 0.34940 0.15040 -0.30000
O 	O 	0.41860 0.20280 0.08260 -0.53300
O 	O 	0.71540 0.31900 0.34460 -0.24300
O 	O 	0.83910 0.19890 0.28480 -0.42700
O 	O 	0.71750 0.15460 0.13240 -0.53300
