data_crystal

_cell_length_a 17.27700
_cell_length_b 6.62000
_cell_length_c 23.10400
_cell_angle_alpha 90.00000
_cell_angle_beta  94.21000
_cell_angle_gamma 90.00000

_symmetry_space_group_name_	'P 1'
_symmetry_space_group_name_H-M	'P 1'

loop_
_symmetry_equiv_pos_as_xyz
  x,y,z

loop_
_atom_site_label
_atom_site_type_symbol
_atom_site_fract_x
_atom_site_fract_y
_atom_site_fract_z
_atom_site_charge
Zr	Zr	0.35887 0.99997 0.29932 3.21000
Zr	Zr	0.21853 0.49538 0.42472 3.21900
P 	P 	0.30704 0.50018 0.29229 0.78300
P 	P 	0.26872 0.99796 0.43049 0.75200
P 	P 	0.44381 0.07222 0.16533 0.75000
F 	F 	0.32875 0.48960 0.45610 -0.75300
O 	O 	0.36136 0.68410 0.29249 -0.68400
O 	O 	0.25290 0.49650 0.23671 -0.76500
O 	O 	0.25790 0.51060 0.34453 -0.78300
O 	O 	0.35799 0.31050 0.29605 -0.71400
O 	O 	0.31560 0.00950 0.48985 -0.65200
O 	O 	0.21793 0.80870 0.42802 -0.68300
O 	O 	0.32510 0.99090 0.38226 -0.73200
O 	O 	0.40850 0.00310 0.21997 -0.72100
O 	O 	0.21598 0.18240 0.42248 -0.68500
O 	O 	0.39670 0.00620 0.11025 -0.64100
O 	O 	0.52660 0.99630 0.16372 -0.68600
O 	O 	0.44360 0.30880 0.16198 -0.44100
H 	H 	0.46380 0.35260 0.19440 0.23900
Zr	Zr	0.85887 0.49997 0.29932 3.21400
Zr	Zr	0.71853 0.99538 0.42472 3.21800
P 	P 	0.80704 0.00018 0.29229 0.82300
P 	P 	0.76872 0.49796 0.43049 0.76100
P 	P 	0.94381 0.57222 0.16533 0.73000
F 	F 	0.82875 0.98960 0.45610 -0.75900
O 	O 	0.86136 0.18410 0.29249 -0.67700
O 	O 	0.75290 0.99650 0.23671 -0.79200
O 	O 	0.75790 0.01060 0.34453 -0.78000
O 	O 	0.85799 0.81050 0.29605 -0.74000
O 	O 	0.81560 0.50950 0.48985 -0.65500
O 	O 	0.71793 0.30870 0.42802 -0.68200
O 	O 	0.82510 0.49090 0.38226 -0.72700
O 	O 	0.90850 0.50310 0.21997 -0.73400
O 	O 	0.71598 0.68240 0.42248 -0.69900
O 	O 	0.89670 0.50620 0.11025 -0.64800
O 	O 	0.02660 0.49630 0.16372 -0.65800
O 	O 	0.94360 0.80880 0.16198 -0.44300
H 	H 	0.96380 0.85260 0.19440 0.23400
Zr	Zr	0.64113 0.99997 0.20068 3.21100
Zr	Zr	0.78147 0.49538 0.07528 3.22000
P 	P 	0.69296 0.50018 0.20771 0.78400
P 	P 	0.73128 0.99796 0.06951 0.74600
P 	P 	0.55619 0.07222 0.33467 0.74900
F 	F 	0.67125 0.48960 0.04390 -0.75400
O 	O 	0.63864 0.68410 0.20751 -0.68400
O 	O 	0.74710 0.49650 0.26329 -0.76500
O 	O 	0.74210 0.51060 0.15547 -0.78300
O 	O 	0.64201 0.31050 0.20395 -0.71300
O 	O 	0.68440 0.00950 0.01015 -0.64700
O 	O 	0.78207 0.80870 0.07198 -0.68400
O 	O 	0.67490 0.99090 0.11774 -0.73200
O 	O 	0.59150 0.00310 0.28003 -0.72100
O 	O 	0.78402 0.18240 0.07752 -0.68200
O 	O 	0.60330 0.00620 0.38975 -0.64200
O 	O 	0.47340 0.99630 0.33628 -0.68400
O 	O 	0.55640 0.30880 0.33802 -0.44100
H 	H 	0.53620 0.35260 0.30560 0.23900
Zr	Zr	0.14113 0.49997 0.20068 3.21400
Zr	Zr	0.28147 0.99538 0.07528 3.21700
P 	P 	0.19296 0.00018 0.20771 0.82300
P 	P 	0.23128 0.49796 0.06951 0.76100
P 	P 	0.05619 0.57222 0.33467 0.73100
F 	F 	0.17125 0.98960 0.04390 -0.76200
O 	O 	0.13864 0.18410 0.20751 -0.67700
O 	O 	0.24710 0.99650 0.26329 -0.79300
O 	O 	0.24210 0.01060 0.15547 -0.77800
O 	O 	0.14201 0.81050 0.20395 -0.74100
O 	O 	0.18440 0.50950 0.01015 -0.65500
O 	O 	0.28207 0.30870 0.07198 -0.68100
O 	O 	0.17490 0.49090 0.11774 -0.72700
O 	O 	0.09150 0.50310 0.28003 -0.73400
O 	O 	0.28402 0.68240 0.07752 -0.70000
O 	O 	0.10330 0.50620 0.38975 -0.64800
O 	O 	0.97340 0.49630 0.33628 -0.66000
O 	O 	0.05640 0.80880 0.33802 -0.44200
H 	H 	0.03620 0.85260 0.30560 0.23400
Zr	Zr	0.64113 0.00003 0.70068 3.21100
Zr	Zr	0.78147 0.50462 0.57528 3.22000
P 	P 	0.69296 0.49982 0.70771 0.78400
P 	P 	0.73128 0.00204 0.56951 0.75300
P 	P 	0.55619 0.92778 0.83467 0.75000
F 	F 	0.67125 0.51040 0.54390 -0.75300
O 	O 	0.63864 0.31590 0.70751 -0.68400
O 	O 	0.74710 0.50350 0.76329 -0.76500
O 	O 	0.74210 0.48940 0.65547 -0.78300
O 	O 	0.64201 0.68950 0.70395 -0.71400
O 	O 	0.68440 0.99050 0.51015 -0.65200
O 	O 	0.78207 0.19130 0.57198 -0.68300
O 	O 	0.67490 0.00910 0.61774 -0.73200
O 	O 	0.59150 0.99690 0.78003 -0.72100
O 	O 	0.78402 0.81760 0.57752 -0.68500
O 	O 	0.60330 0.99380 0.88975 -0.64100
O 	O 	0.47340 0.00370 0.83628 -0.68600
O 	O 	0.55640 0.69120 0.83802 -0.44100
H 	H 	0.53620 0.64740 0.80560 0.23900
Zr	Zr	0.14113 0.50003 0.70068 3.21400
Zr	Zr	0.28147 0.00462 0.57528 3.21800
P 	P 	0.19296 0.99982 0.70771 0.82300
P 	P 	0.23128 0.50204 0.56951 0.76100
P 	P 	0.05619 0.42778 0.83467 0.73000
F 	F 	0.17125 0.01040 0.54390 -0.75900
O 	O 	0.13864 0.81590 0.70751 -0.67700
O 	O 	0.24710 0.00350 0.76329 -0.79200
O 	O 	0.24210 0.98940 0.65547 -0.78000
O 	O 	0.14201 0.18950 0.70395 -0.74000
O 	O 	0.18440 0.49050 0.51015 -0.65500
O 	O 	0.28207 0.69130 0.57198 -0.68200
O 	O 	0.17490 0.50910 0.61774 -0.72700
O 	O 	0.09150 0.49690 0.78003 -0.73400
O 	O 	0.28402 0.31760 0.57752 -0.69900
O 	O 	0.10330 0.49380 0.88975 -0.64800
O 	O 	0.97340 0.50370 0.83628 -0.65800
O 	O 	0.05640 0.19120 0.83802 -0.44300
H 	H 	0.03620 0.14740 0.80560 0.23400
Zr	Zr	0.35887 0.00003 0.79932 3.21100
Zr	Zr	0.21853 0.50462 0.92472 3.22000
P 	P 	0.30704 0.49982 0.79229 0.78400
P 	P 	0.26872 0.00204 0.93049 0.74600
P 	P 	0.44381 0.92778 0.66533 0.74900
F 	F 	0.32875 0.51040 0.95610 -0.75400
O 	O 	0.36136 0.31590 0.79249 -0.68400
O 	O 	0.25290 0.50350 0.73671 -0.76500
O 	O 	0.25790 0.48940 0.84453 -0.78300
O 	O 	0.35799 0.68950 0.79605 -0.71300
O 	O 	0.31560 0.99050 0.98985 -0.64700
O 	O 	0.21793 0.19130 0.92802 -0.68400
O 	O 	0.32510 0.00910 0.88226 -0.73200
O 	O 	0.40850 0.99690 0.71997 -0.72100
O 	O 	0.21598 0.81760 0.92248 -0.68200
O 	O 	0.39670 0.99380 0.61025 -0.64200
O 	O 	0.52660 0.00370 0.66372 -0.68400
O 	O 	0.44360 0.69120 0.66198 -0.44100
H 	H 	0.46380 0.64740 0.69440 0.23900
Zr	Zr	0.85887 0.50003 0.79932 3.21400
Zr	Zr	0.71853 0.00462 0.92472 3.21700
P 	P 	0.80704 0.99982 0.79229 0.82300
P 	P 	0.76872 0.50204 0.93049 0.76100
P 	P 	0.94381 0.42778 0.66533 0.73100
F 	F 	0.82875 0.01040 0.95610 -0.76200
O 	O 	0.86136 0.81590 0.79249 -0.67700
O 	O 	0.75290 0.00350 0.73671 -0.79300
O 	O 	0.75790 0.98940 0.84453 -0.77800
O 	O 	0.85799 0.18950 0.79605 -0.74100
O 	O 	0.81560 0.49050 0.98985 -0.65500
O 	O 	0.71793 0.69130 0.92802 -0.68100
O 	O 	0.82510 0.50910 0.88226 -0.72700
O 	O 	0.90850 0.49690 0.71997 -0.73400
O 	O 	0.71598 0.31760 0.92248 -0.70000
O 	O 	0.89670 0.49380 0.61025 -0.64800
O 	O 	0.02660 0.50370 0.66372 -0.66000
O 	O 	0.94360 0.19120 0.66198 -0.44200
H 	H 	0.96380 0.14740 0.69440 0.23400
