data_crystal

_cell_length_a 12.79500
_cell_length_b 13.03200
_cell_length_c 20.86400
_cell_angle_alpha 81.91100
_cell_angle_beta  84.45000
_cell_angle_gamma 70.54500

_symmetry_space_group_name_	'P 1'
_symmetry_space_group_name_H-M	'P 1'

loop_
_symmetry_equiv_pos_as_xyz
  x,y,z

loop_
_atom_site_label
_atom_site_type_symbol
_atom_site_fract_x
_atom_site_fract_y
_atom_site_fract_z
_atom_site_charge
Ag	Ag	0.91860 0.43290 0.30638 0.58100
Ag	Ag	0.14855 0.32809 0.26204 0.54500
Ag	Ag	0.80187 0.66095 0.26477 0.50800
Ag	Ag	0.20669 0.52654 0.25698 0.53900
Ag	Ag	0.11927 0.47778 0.13943 0.51900
Ag	Ag	0.90926 0.65626 0.13812 0.51400
Ag	Ag	0.99069 0.73702 0.24355 0.49800
Ag	Ag	0.79101 0.97325 0.74098 0.58200
Ag	Ag	0.59591 0.90004 0.72715 0.54700
Ag	Ag	0.75074 0.21903 0.72844 0.51300
Ag	Ag	0.43489 0.09629 0.74351 0.52300
Ag	Ag	0.58107 0.03437 0.60031 0.54200
Ag	Ag	0.69515 0.19372 0.60157 0.55900
Ag	Ag	0.51216 0.29144 0.71130 0.55300
Ag	Ag	0.26324 0.37908 0.99446 0.67900
Ag	Ag	0.81637 0.31569 0.45734 0.71500
C 	C 	0.05160 0.49790 0.24220 -0.25800
C 	C 	0.97080 0.57640 0.23390 -0.30200
C 	C 	0.64750 0.13400 0.69970 -0.26400
C 	C 	0.60280 0.06750 0.69870 -0.28700
O 	O 	0.87470 0.30280 0.66560 -0.30500
O 	O 	0.82480 0.28720 0.56880 -0.21800
O 	O 	0.95910 0.67150 0.03180 -0.22400
O 	O 	0.10680 0.52460 0.03060 -0.28500
O 	O 	0.22590 0.19190 0.19370 -0.30600
O 	O 	0.23540 0.30620 0.10720 -0.25400
O 	O 	0.31600 0.24310 0.32920 -0.25100
O 	O 	0.36400 0.14780 0.42570 -0.16300
O 	O 	0.50110 0.85360 0.81590 -0.16100
O 	O 	0.36230 0.00820 0.82790 -0.19500
O 	O 	0.77640 0.48270 0.38960 -0.21300
O 	O 	0.33230 0.35970 0.65910 -0.28500
O 	O 	0.45780 0.45990 0.74250 -0.16100
O 	O 	0.63690 0.44820 0.72790 -0.25200
O 	O 	0.95930 0.27450 0.37690 -0.20900
O 	O 	0.11360 0.17750 0.32440 -0.26300
O 	O 	0.35390 0.26900 0.79930 -0.33700
O 	O 	0.27410 0.33290 0.89050 -0.25100
O 	O 	0.91710 0.90910 0.25970 -0.22400
O 	O 	0.07170 0.95330 0.24850 -0.25400
O 	O 	0.61540 0.08690 0.48950 -0.17400
O 	O 	0.69230 0.21600 0.49340 -0.20300
C 	C 	0.88320 0.30780 0.60600 0.17700
C 	C 	0.98010 0.33980 0.57450 0.80800
F 	F 	0.06710 0.25190 0.56500 -0.40500
F 	F 	0.96230 0.39730 0.51640 -0.38300
F 	F 	0.01740 0.39880 0.60780 -0.46600
C 	C 	0.04190 0.61040 0.01070 0.14700
C 	C 	0.07180 0.64280 0.94160 0.80700
F 	F 	0.99590 0.72240 0.90890 -0.40400
F 	F 	0.09950 0.56730 0.90110 -0.50300
F 	F 	0.15810 0.67810 0.93220 -0.35600
C 	C 	0.24410 0.21890 0.13650 0.19600
C 	C 	0.28120 0.12440 0.09700 0.78800
F 	F 	0.20160 0.09480 0.07700 -0.37600
F 	F 	0.34610 0.03050 0.12510 -0.43100
F 	F 	0.33800 0.14140 0.04250 -0.38200
C 	C 	0.32210 0.23050 0.38860 0.15400
C 	C 	0.25400 0.33000 0.42010 0.82100
F 	F 	0.26290 0.32190 0.48360 -0.37200
F 	F 	0.14550 0.36240 0.41220 -0.43700
F 	F 	0.28220 0.41830 0.39790 -0.41800
C 	C 	0.41970 0.91420 0.83980 0.17800
C 	C 	0.38390 0.86250 0.90310 0.82300
F 	F 	0.29370 0.83600 0.90010 -0.33000
F 	F 	0.45000 0.76960 0.93200 -0.34800
F 	F 	0.35700 0.92270 0.95200 -0.33600
C 	C 	0.69020 0.55930 0.38390 0.16400
C 	C 	0.59650 0.56090 0.43340 0.81300
F 	F 	0.54230 0.66030 0.45010 -0.45900
F 	F 	0.52110 0.52810 0.41040 -0.42600
F 	F 	0.62750 0.49700 0.48820 -0.39600
C 	C 	0.54060 0.48950 0.74680 0.15000
C 	C 	0.51130 0.59020 0.78090 0.82000
F 	F 	0.59470 0.62500 0.78860 -0.50000
F 	F 	0.43530 0.67720 0.75320 -0.35800
F 	F 	0.46730 0.57860 0.84070 -0.37600
C 	C 	0.03610 0.19280 0.36830 0.16700
C 	C 	0.05060 0.09260 0.41600 0.81100
F 	F 	0.13380 0.07280 0.45430 -0.43300
F 	F 	0.07090 0.99760 0.39330 -0.47000
F 	F 	0.96390 0.09970 0.45730 -0.40500
C 	C 	0.35130 0.28730 0.85390 0.17400
C 	C 	0.45920 0.25170 0.88610 0.77300
F 	F 	0.55010 0.21200 0.84930 -0.46900
F 	F 	0.47290 0.17300 0.93540 -0.33800
F 	F 	0.48540 0.32610 0.91250 -0.39600
C 	C 	0.97430 0.97100 0.25090 0.16900
C 	C 	0.90420 0.08520 0.22840 0.81000
F 	F 	0.92750 0.15310 0.26190 -0.42800
F 	F 	0.79450 0.11620 0.23570 -0.35900
F 	F 	0.92100 0.12300 0.16740 -0.35600
C 	C 	0.65280 0.15880 0.46730 0.16200
C 	C 	0.63180 0.19950 0.39740 0.83000
F 	F 	0.53490 0.27930 0.38980 -0.38700
F 	F 	0.70740 0.23970 0.36600 -0.41500
F 	F 	0.62540 0.12260 0.36380 -0.43900
Ag	Ag	0.08140 0.56710 0.69362 0.58000
Ag	Ag	0.85145 0.67191 0.73796 0.54400
Ag	Ag	0.19813 0.33905 0.73523 0.50700
Ag	Ag	0.79331 0.47346 0.74302 0.53800
Ag	Ag	0.88073 0.52222 0.86057 0.51800
Ag	Ag	0.09074 0.34374 0.86188 0.51300
Ag	Ag	0.00931 0.26298 0.75645 0.49800
Ag	Ag	0.20899 0.02675 0.25902 0.58200
Ag	Ag	0.40409 0.09996 0.27285 0.54700
Ag	Ag	0.24926 0.78097 0.27156 0.51300
Ag	Ag	0.56511 0.90371 0.25649 0.52300
Ag	Ag	0.41893 0.96563 0.39969 0.54200
Ag	Ag	0.30485 0.80628 0.39843 0.55900
Ag	Ag	0.48784 0.70856 0.28870 0.55300
Ag	Ag	0.73676 0.62092 0.00554 0.67900
Ag	Ag	0.18363 0.68431 0.54266 0.71500
C 	C 	0.94840 0.50210 0.75780 -0.25800
C 	C 	0.02920 0.42360 0.76610 -0.30200
C 	C 	0.35250 0.86600 0.30030 -0.26400
C 	C 	0.39720 0.93250 0.30130 -0.28700
O 	O 	0.12530 0.69720 0.33440 -0.30500
O 	O 	0.17520 0.71280 0.43120 -0.21800
O 	O 	0.04090 0.32850 0.96820 -0.22400
O 	O 	0.89320 0.47540 0.96940 -0.28500
O 	O 	0.77410 0.80810 0.80630 -0.30600
O 	O 	0.76460 0.69380 0.89280 -0.25400
O 	O 	0.68400 0.75690 0.67080 -0.25100
O 	O 	0.63600 0.85220 0.57430 -0.16300
O 	O 	0.49890 0.14640 0.18410 -0.16100
O 	O 	0.63770 0.99180 0.17210 -0.19500
O 	O 	0.22360 0.51730 0.61040 -0.21300
O 	O 	0.66770 0.64030 0.34090 -0.28500
O 	O 	0.54220 0.54010 0.25750 -0.16100
O 	O 	0.36310 0.55180 0.27210 -0.25200
O 	O 	0.04070 0.72550 0.62310 -0.20900
O 	O 	0.88640 0.82250 0.67560 -0.26300
O 	O 	0.64610 0.73100 0.20070 -0.33700
O 	O 	0.72590 0.66710 0.10950 -0.25100
O 	O 	0.08290 0.09090 0.74030 -0.22400
O 	O 	0.92830 0.04670 0.75150 -0.25400
O 	O 	0.38460 0.91310 0.51050 -0.17400
O 	O 	0.30770 0.78400 0.50660 -0.20300
C 	C 	0.11680 0.69220 0.39400 0.17700
C 	C 	0.01990 0.66020 0.42550 0.80800
F 	F 	0.93290 0.74810 0.43500 -0.40500
F 	F 	0.03770 0.60270 0.48360 -0.38300
F 	F 	0.98260 0.60120 0.39220 -0.46600
C 	C 	0.95810 0.38960 0.98930 0.14700
C 	C 	0.92820 0.35720 0.05840 0.80700
F 	F 	0.00410 0.27760 0.09110 -0.40400
F 	F 	0.90050 0.43270 0.09890 -0.50300
F 	F 	0.84190 0.32190 0.06780 -0.35600
C 	C 	0.75590 0.78110 0.86350 0.19600
C 	C 	0.71880 0.87560 0.90300 0.78800
F 	F 	0.79840 0.90520 0.92300 -0.37600
F 	F 	0.65390 0.96950 0.87490 -0.43100
F 	F 	0.66200 0.85860 0.95750 -0.38200
C 	C 	0.67790 0.76950 0.61140 0.15400
C 	C 	0.74600 0.67000 0.57990 0.82100
F 	F 	0.73710 0.67810 0.51640 -0.37200
F 	F 	0.85450 0.63760 0.58780 -0.43700
F 	F 	0.71780 0.58170 0.60210 -0.41800
C 	C 	0.58030 0.08580 0.16020 0.17800
C 	C 	0.61610 0.13750 0.09690 0.82300
F 	F 	0.70630 0.16400 0.09990 -0.33000
F 	F 	0.55000 0.23040 0.06800 -0.34800
F 	F 	0.64300 0.07730 0.04800 -0.33600
C 	C 	0.30980 0.44070 0.61610 0.16400
C 	C 	0.40350 0.43910 0.56660 0.81300
F 	F 	0.45770 0.33970 0.54990 -0.45900
F 	F 	0.47890 0.47190 0.58960 -0.42600
F 	F 	0.37250 0.50300 0.51180 -0.39600
C 	C 	0.45940 0.51050 0.25320 0.15000
C 	C 	0.48870 0.40980 0.21910 0.82000
F 	F 	0.40530 0.37500 0.21140 -0.50000
F 	F 	0.56470 0.32280 0.24680 -0.35800
F 	F 	0.53270 0.42140 0.15930 -0.37600
C 	C 	0.96390 0.80720 0.63170 0.16700
C 	C 	0.94940 0.90740 0.58400 0.81100
F 	F 	0.86620 0.92720 0.54570 -0.43300
F 	F 	0.92910 0.00240 0.60670 -0.47000
F 	F 	0.03610 0.90030 0.54270 -0.40500
C 	C 	0.64870 0.71270 0.14610 0.17400
C 	C 	0.54080 0.74830 0.11390 0.77300
F 	F 	0.44990 0.78800 0.15070 -0.46900
F 	F 	0.52710 0.82700 0.06460 -0.33800
F 	F 	0.51460 0.67390 0.08750 -0.39600
C 	C 	0.02570 0.02900 0.74910 0.16900
C 	C 	0.09580 0.91480 0.77160 0.81000
F 	F 	0.07250 0.84690 0.73810 -0.42800
F 	F 	0.20550 0.88380 0.76430 -0.35900
F 	F 	0.07900 0.87700 0.83260 -0.35600
C 	C 	0.34720 0.84120 0.53270 0.16200
C 	C 	0.36820 0.80050 0.60260 0.83000
F 	F 	0.46510 0.72070 0.61020 -0.38700
F 	F 	0.29260 0.76030 0.63400 -0.41500
F 	F 	0.37460 0.87740 0.63620 -0.43900
