data_crystal

_cell_length_a 7.35180
_cell_length_b 11.62400
_cell_length_c 14.13100
_cell_angle_alpha 90.00000
_cell_angle_beta  90.00000
_cell_angle_gamma 98.72400

_symmetry_space_group_name_	'P 1'
_symmetry_space_group_name_H-M	'P 1'

loop_
_symmetry_equiv_pos_as_xyz
  x,y,z

loop_
_atom_site_label
_atom_site_type_symbol
_atom_site_fract_x
_atom_site_fract_y
_atom_site_fract_z
_atom_site_charge
Mn	Mn	0.50105 0.52265 0.49998 1.18700
Mn	Mn	0.97320 0.97456 0.02509 1.19400
Mn	Mn	0.49895 0.47735 0.99998 1.16600
Mn	Mn	0.02680 0.02544 0.52509 1.18500
Mo	Mo	0.94540 0.34047 0.25751 1.06800
Mo	Mo	0.05460 0.65953 0.75751 1.06600
H 	H 	0.67360 0.14670 0.04430 -0.00200
H 	H 	0.35820 0.14750 0.04160 -0.01800
H 	H 	0.27720 0.80660 0.00340 0.00800
H 	H 	0.59030 0.80610 0.00320 -0.01900
H 	H 	0.32640 0.85330 0.54430 -0.00700
H 	H 	0.64180 0.85250 0.54160 -0.02500
H 	H 	0.72280 0.19340 0.50340 -0.00700
H 	H 	0.40970 0.19390 0.50320 -0.03200
C 	C 	0.70050 0.20990 0.27040 -0.14200
C 	C 	0.94950 0.52480 0.23219 -0.16600
C 	C 	0.77720 0.39290 0.36910 -0.14400
C 	C 	0.16330 0.42600 0.34730 -0.13200
C 	C 	0.16940 0.38910 0.16110 -0.13100
C 	C 	0.77400 0.36180 0.13850 -0.14200
C 	C 	0.99530 0.19330 0.17500 -0.13100
C 	C 	0.02110 0.22170 0.36100 -0.13500
C 	C 	0.59300 0.07550 0.03580 -0.00800
C 	C 	0.40370 0.07570 0.03460 -0.00000
C 	C 	0.35750 0.87800 0.01200 -0.01100
C 	C 	0.54420 0.87730 0.01250 0.00300
C 	C 	0.29950 0.79010 0.77040 -0.15000
C 	C 	0.05050 0.47520 0.73219 -0.17500
C 	C 	0.22280 0.60710 0.86910 -0.15700
C 	C 	0.83670 0.57400 0.84730 -0.13900
C 	C 	0.83060 0.61090 0.66110 -0.13600
C 	C 	0.22600 0.63820 0.63850 -0.14700
C 	C 	0.00470 0.80670 0.67500 -0.13500
C 	C 	0.97890 0.77830 0.86100 -0.14200
C 	C 	0.40700 0.92450 0.53580 -0.01400
C 	C 	0.59630 0.92430 0.53460 -0.00600
C 	C 	0.64250 0.12200 0.51200 -0.01900
C 	C 	0.45580 0.12270 0.51250 -0.00500
N 	N 	0.57540 0.13780 0.27590 -0.09600
N 	N 	0.95450 0.62210 0.21430 -0.12500
N 	N 	0.68520 0.41950 0.42850 -0.24500
N 	N 	0.27530 0.47050 0.39705 -0.24500
N 	N 	0.28220 0.41600 0.10429 -0.23200
N 	N 	0.68360 0.37550 0.07439 -0.22700
N 	N 	0.01280 0.11520 0.12741 -0.24600
N 	N 	0.05200 0.15860 0.41910 -0.25500
N 	N 	0.66380 0.97650 0.02544 -0.24200
N 	N 	0.28430 0.97700 0.02364 -0.23600
N 	N 	0.42460 0.86220 0.77590 -0.10400
N 	N 	0.04550 0.37790 0.71430 -0.13400
N 	N 	0.31480 0.58050 0.92850 -0.25800
N 	N 	0.72470 0.52950 0.89705 -0.25500
N 	N 	0.71780 0.58400 0.60429 -0.24500
N 	N 	0.31640 0.62450 0.57439 -0.24100
N 	N 	0.98720 0.88480 0.62741 -0.25000
N 	N 	0.94800 0.84140 0.91910 -0.27200
N 	N 	0.33620 0.02350 0.52544 -0.24800
N 	N 	0.71570 0.02300 0.52364 -0.24400
