data_crystal

_cell_length_a 16.33510
_cell_length_b 9.27500
_cell_length_c 17.24160
_cell_angle_alpha 90.00000
_cell_angle_beta  117.98700
_cell_angle_gamma 90.00000

_symmetry_space_group_name_	'P 1'
_symmetry_space_group_name_H-M	'P 1'

loop_
_symmetry_equiv_pos_as_xyz
  x,y,z

loop_
_atom_site_label
_atom_site_type_symbol
_atom_site_fract_x
_atom_site_fract_y
_atom_site_fract_z
_atom_site_charge
Zn	Zn	0.13500 0.12230 0.02328 1.23100
P 	P 	0.14325 0.37332 0.90085 0.45900
P 	P 	0.02012 0.91852 0.63382 0.34700
O 	O 	0.14208 0.31937 0.98410 -0.45800
O 	O 	0.23500 0.43628 0.91834 -0.43200
O 	O 	0.10890 0.25988 0.82990 -0.49000
O 	O 	0.06550 0.02466 0.70920 -0.45000
O 	O 	0.08910 0.85970 0.60697 -0.45000
O 	O 	0.93101 0.97642 0.56141 -0.42100
H 	H 	0.08620 0.48639 0.87413 -0.05300
H 	H 	0.99178 0.81108 0.66301 0.03700
Zn	Zn	0.63500 0.62230 0.02328 1.23800
P 	P 	0.64325 0.87332 0.90085 0.46200
P 	P 	0.52012 0.41852 0.63382 0.47600
O 	O 	0.64208 0.81937 0.98410 -0.44800
O 	O 	0.73500 0.93628 0.91834 -0.42600
O 	O 	0.60890 0.75988 0.82990 -0.47100
O 	O 	0.56550 0.52466 0.70920 -0.44000
O 	O 	0.58910 0.35970 0.60697 -0.44400
O 	O 	0.43101 0.47642 0.56141 -0.49100
H 	H 	0.58620 0.98639 0.87413 -0.03400
H 	H 	0.49178 0.31108 0.66301 -0.03600
Zn	Zn	0.86500 0.12230 0.47672 1.23900
P 	P 	0.85675 0.37332 0.59915 0.46300
P 	P 	0.97988 0.91852 0.86618 0.59800
O 	O 	0.85792 0.31937 0.51590 -0.42800
O 	O 	0.76500 0.43628 0.58166 -0.42100
O 	O 	0.89110 0.25988 0.67010 -0.44200
O 	O 	0.93450 0.02466 0.79080 -0.42400
O 	O 	0.91090 0.85970 0.89303 -0.44400
O 	O 	0.06899 0.97642 0.93859 -0.55400
H 	H 	0.91380 0.48639 0.62587 -0.01300
H 	H 	0.00822 0.81108 0.83699 -0.10400
Zn	Zn	0.36500 0.62230 0.47672 1.23500
P 	P 	0.35675 0.87332 0.59915 0.46200
P 	P 	0.47988 0.41852 0.86618 0.47600
O 	O 	0.35792 0.81937 0.51590 -0.44500
O 	O 	0.26500 0.93628 0.58166 -0.42900
O 	O 	0.39110 0.75988 0.67010 -0.47300
O 	O 	0.43450 0.52466 0.79080 -0.44500
O 	O 	0.41090 0.35970 0.89303 -0.44900
O 	O 	0.56899 0.47642 0.93859 -0.49200
H 	H 	0.41380 0.98639 0.62587 -0.03500
H 	H 	0.50822 0.31108 0.83699 -0.03600
Zn	Zn	0.86500 0.87770 0.97672 1.23600
P 	P 	0.85675 0.62668 0.09915 0.46400
P 	P 	0.97988 0.08148 0.36618 0.60700
O 	O 	0.85792 0.68063 0.01590 -0.42200
O 	O 	0.76500 0.56372 0.08166 -0.41800
O 	O 	0.89110 0.74012 0.17010 -0.43800
O 	O 	0.93450 0.97534 0.29080 -0.42100
O 	O 	0.91090 0.14030 0.39303 -0.44100
O 	O 	0.06899 0.02358 0.43859 -0.55800
H 	H 	0.91380 0.51361 0.12587 -0.01100
H 	H 	0.00822 0.18892 0.33699 -0.10900
Zn	Zn	0.36500 0.37770 0.97672 1.23400
P 	P 	0.35675 0.12668 0.09915 0.46200
P 	P 	0.47988 0.58148 0.36618 0.47600
O 	O 	0.35792 0.18063 0.01590 -0.44200
O 	O 	0.26500 0.06372 0.08166 -0.42900
O 	O 	0.39110 0.24012 0.17010 -0.47300
O 	O 	0.43450 0.47534 0.29080 -0.44400
O 	O 	0.41090 0.64030 0.39303 -0.44800
O 	O 	0.56899 0.52358 0.43859 -0.48800
H 	H 	0.41380 0.01361 0.12587 -0.03400
H 	H 	0.50822 0.68892 0.33699 -0.03500
Zn	Zn	0.13500 0.87770 0.52328 1.23100
P 	P 	0.14325 0.62668 0.40085 0.46000
P 	P 	0.02012 0.08148 0.13382 0.34000
O 	O 	0.14208 0.68063 0.48410 -0.45800
O 	O 	0.23500 0.56372 0.41834 -0.43100
O 	O 	0.10890 0.74012 0.32990 -0.49100
O 	O 	0.06550 0.97534 0.20920 -0.45000
O 	O 	0.08910 0.14030 0.10697 -0.44900
O 	O 	0.93101 0.02358 0.06141 -0.41400
H 	H 	0.08620 0.51361 0.37413 -0.05400
H 	H 	0.99178 0.18892 0.16301 0.04100
Zn	Zn	0.63500 0.37770 0.52328 1.23600
P 	P 	0.64325 0.12668 0.40085 0.46200
P 	P 	0.52012 0.58148 0.13382 0.47600
O 	O 	0.64208 0.18063 0.48410 -0.44300
O 	O 	0.73500 0.06372 0.41834 -0.42300
O 	O 	0.60890 0.24012 0.32990 -0.47000
O 	O 	0.56550 0.47534 0.20920 -0.43900
O 	O 	0.58910 0.64030 0.10697 -0.44200
O 	O 	0.43101 0.52358 0.06141 -0.48900
H 	H 	0.58620 0.01361 0.37413 -0.03400
H 	H 	0.49178 0.68892 0.16301 -0.03500
Zn	Zn	-0.00000 0.15385 0.75000 1.20300
Zn	Zn	0.50000 0.65385 0.75000 1.22900
Zn	Zn	0.00000 0.84615 0.25000 1.20100
Zn	Zn	0.50000 0.34615 0.25000 1.23000
