data_crystal

_cell_length_a 12.66800
_cell_length_b 22.27400
_cell_length_c 14.36600
_cell_angle_alpha 90.00000
_cell_angle_beta  123.07000
_cell_angle_gamma 90.00000

_symmetry_space_group_name_	'P 1'
_symmetry_space_group_name_H-M	'P 1'

loop_
_symmetry_equiv_pos_as_xyz
  x,y,z

loop_
_atom_site_label
_atom_site_type_symbol
_atom_site_fract_x
_atom_site_fract_y
_atom_site_fract_z
_atom_site_charge
Ag	Ag	0.01544 0.93001 0.43772 0.48700
Ag	Ag	0.22820 0.94609 0.35720 0.46400
Ag	Ag	0.04190 0.20539 0.34026 0.56500
N 	N 	0.07410 0.11790 0.39460 -0.16500
N 	N 	0.18400 0.18450 0.32080 -0.19700
N 	N 	0.11240 0.73010 0.15830 -0.19700
N 	N 	0.01530 0.77570 0.25850 -0.16200
N 	N 	0.97750 0.80890 0.31640 -0.07200
C 	C 	0.13860 0.08920 0.35970 0.06600
C 	C 	0.11400 0.80590 0.26940 0.07000
C 	C 	0.20510 0.12620 0.32000 0.03500
C 	C 	0.15600 0.70290 0.10110 0.08000
H 	H 	0.11800 0.66770 0.06270 -0.03900
C 	C 	0.17010 0.78150 0.21270 0.03400
C 	C 	0.24810 0.22250 0.29890 0.07200
H 	H 	0.23720 0.26350 0.30300 -0.01000
N 	N 	0.07170 0.02330 0.41750 -0.14400
N 	N 	0.13710 0.03140 0.37080 -0.17200
N 	N 	0.13600 0.85420 0.32920 -0.17000
N 	N 	0.04930 0.85310 0.35640 -0.12900
C 	C 	0.34230 0.14280 0.26220 0.02900
H 	H 	0.39120 0.12850 0.23670 -0.00500
C 	C 	0.26700 0.80550 0.21050 -0.11700
H 	H 	0.30320 0.84110 0.24850 0.03200
C 	C 	0.28200 0.10300 0.29200 -0.12300
H 	H 	0.29350 0.06180 0.29260 0.02300
C 	C 	0.31200 0.77890 0.15500 0.03400
H 	H 	0.37910 0.79520 0.15360 -0.00100
C 	C 	0.25300 0.72540 0.09820 -0.14300
H 	H 	0.28080 0.70540 0.05870 0.06400
C 	C 	0.33000 0.20390 0.27060 -0.14400
H 	H 	0.37530 0.23140 0.25740 0.06400
N 	N 	0.03140 0.07380 0.43000 -0.12700
Ag	Ag	0.98456 0.43001 0.06228 0.48800
Ag	Ag	0.77180 0.44609 0.14280 0.46500
Ag	Ag	0.95810 0.70539 0.15974 0.56400
N 	N 	0.92590 0.61790 0.10540 -0.16500
N 	N 	0.81600 0.68450 0.17920 -0.19700
N 	N 	0.88760 0.23010 0.34170 -0.19700
N 	N 	0.98470 0.27570 0.24150 -0.16300
N 	N 	0.02250 0.30890 0.18360 -0.07100
C 	C 	0.86140 0.58920 0.14030 0.06500
C 	C 	0.88600 0.30590 0.23060 0.07000
C 	C 	0.79490 0.62620 0.18000 0.03500
C 	C 	0.84400 0.20290 0.39890 0.08000
H 	H 	0.88200 0.16770 0.43730 -0.04000
C 	C 	0.82990 0.28150 0.28730 0.03300
C 	C 	0.75190 0.72250 0.20110 0.07200
H 	H 	0.76280 0.76350 0.19700 -0.01000
N 	N 	0.92830 0.52330 0.08250 -0.14500
N 	N 	0.86290 0.53140 0.12920 -0.17200
N 	N 	0.86400 0.35420 0.17080 -0.17000
N 	N 	0.95070 0.35310 0.14360 -0.13000
C 	C 	0.65770 0.64280 0.23780 0.02900
H 	H 	0.60880 0.62850 0.26330 -0.00500
C 	C 	0.73300 0.30550 0.28950 -0.11700
H 	H 	0.69680 0.34110 0.25150 0.03200
C 	C 	0.71800 0.60300 0.20800 -0.12300
H 	H 	0.70650 0.56180 0.20740 0.02300
C 	C 	0.68800 0.27890 0.34500 0.03400
H 	H 	0.62090 0.29520 0.34640 -0.00100
C 	C 	0.74700 0.22540 0.40180 -0.14300
H 	H 	0.71920 0.20540 0.44130 0.06400
C 	C 	0.67000 0.70390 0.22940 -0.14400
H 	H 	0.62470 0.73140 0.24260 0.06400
N 	N 	0.96860 0.57380 0.07000 -0.12800
Ag	Ag	0.98456 0.06999 0.56228 0.48800
Ag	Ag	0.77180 0.05391 0.64280 0.46500
Ag	Ag	0.95810 0.79461 0.65974 0.56500
N 	N 	0.92590 0.88210 0.60540 -0.16500
N 	N 	0.81600 0.81550 0.67920 -0.19700
N 	N 	0.88760 0.26990 0.84170 -0.19700
N 	N 	0.98470 0.22430 0.74150 -0.16200
N 	N 	0.02250 0.19110 0.68360 -0.07200
C 	C 	0.86140 0.91080 0.64030 0.06600
C 	C 	0.88600 0.19410 0.73060 0.07000
C 	C 	0.79490 0.87380 0.68000 0.03500
C 	C 	0.84400 0.29710 0.89890 0.08000
H 	H 	0.88200 0.33230 0.93730 -0.03900
C 	C 	0.82990 0.21850 0.78730 0.03400
C 	C 	0.75190 0.77750 0.70110 0.07200
H 	H 	0.76280 0.73650 0.69700 -0.01000
N 	N 	0.92830 0.97670 0.58250 -0.14400
N 	N 	0.86290 0.96860 0.62920 -0.17200
N 	N 	0.86400 0.14580 0.67080 -0.17000
N 	N 	0.95070 0.14690 0.64360 -0.12900
C 	C 	0.65770 0.85720 0.73780 0.02900
H 	H 	0.60880 0.87150 0.76330 -0.00500
C 	C 	0.73300 0.19450 0.78950 -0.11700
H 	H 	0.69680 0.15890 0.75150 0.03200
C 	C 	0.71800 0.89700 0.70800 -0.12300
H 	H 	0.70650 0.93820 0.70740 0.02300
C 	C 	0.68800 0.22110 0.84500 0.03400
H 	H 	0.62090 0.20480 0.84640 -0.00100
C 	C 	0.74700 0.27460 0.90180 -0.14300
H 	H 	0.71920 0.29460 0.94130 0.06400
C 	C 	0.67000 0.79610 0.72940 -0.14400
H 	H 	0.62470 0.76860 0.74260 0.06400
N 	N 	0.96860 0.92620 0.57000 -0.12700
Ag	Ag	0.01544 0.56999 0.93772 0.48800
Ag	Ag	0.22820 0.55391 0.85720 0.46500
Ag	Ag	0.04190 0.29461 0.84026 0.56400
N 	N 	0.07410 0.38210 0.89460 -0.16500
N 	N 	0.18400 0.31550 0.82080 -0.19700
N 	N 	0.11240 0.76990 0.65830 -0.19700
N 	N 	0.01530 0.72430 0.75850 -0.16300
N 	N 	0.97750 0.69110 0.81640 -0.07100
C 	C 	0.13860 0.41080 0.85970 0.06500
C 	C 	0.11400 0.69410 0.76940 0.07000
C 	C 	0.20510 0.37380 0.82000 0.03500
C 	C 	0.15600 0.79710 0.60110 0.08000
H 	H 	0.11800 0.83230 0.56270 -0.04000
C 	C 	0.17010 0.71850 0.71270 0.03300
C 	C 	0.24810 0.27750 0.79890 0.07200
H 	H 	0.23720 0.23650 0.80300 -0.01000
N 	N 	0.07170 0.47670 0.91750 -0.14500
N 	N 	0.13710 0.46860 0.87080 -0.17200
N 	N 	0.13600 0.64580 0.82920 -0.17000
N 	N 	0.04930 0.64690 0.85640 -0.13000
C 	C 	0.34230 0.35720 0.76220 0.02900
H 	H 	0.39120 0.37150 0.73670 -0.00500
C 	C 	0.26700 0.69450 0.71050 -0.11700
H 	H 	0.30320 0.65890 0.74850 0.03200
C 	C 	0.28200 0.39700 0.79200 -0.12300
H 	H 	0.29350 0.43820 0.79260 0.02300
C 	C 	0.31200 0.72110 0.65500 0.03400
H 	H 	0.37910 0.70480 0.65360 -0.00100
C 	C 	0.25300 0.77460 0.59820 -0.14300
H 	H 	0.28080 0.79460 0.55870 0.06400
C 	C 	0.33000 0.29610 0.77060 -0.14400
H 	H 	0.37530 0.26860 0.75740 0.06400
N 	N 	0.03140 0.42620 0.93000 -0.12800
