data_crystal

_cell_length_a 22.29130
_cell_length_b 16.13240
_cell_length_c 17.39000
_cell_angle_alpha 90.00000
_cell_angle_beta  90.00000
_cell_angle_gamma 90.00000

_symmetry_space_group_name_	'P 1'
_symmetry_space_group_name_H-M	'P 1'

loop_
_symmetry_equiv_pos_as_xyz
  x,y,z

loop_
_atom_site_label
_atom_site_type_symbol
_atom_site_fract_x
_atom_site_fract_y
_atom_site_fract_z
_atom_site_charge
Zn	Zn	0.04337 0.03394 0.44149 1.20900
Zn	Zn	0.19649 0.53647 0.49191 1.21100
O 	O 	0.08724 0.12779 0.48121 -0.43900
O 	O 	0.00861 0.20079 0.44220 -0.29900
O 	O 	0.08136 0.48796 0.44650 -0.35000
O 	O 	0.15592 0.43233 0.51119 -0.49600
O 	O 	0.06496 0.22580 0.64435 -0.28200
O 	O 	0.15736 0.18650 0.67212 -0.29300
O 	O 	0.08242 0.92740 0.45724 -0.45100
O 	O 	0.16470 0.96330 0.39500 -0.28900
O 	O 	0.12689 0.66183 0.57595 -0.32200
O 	O 	0.17626 0.64925 0.46528 -0.47700
O 	O 	0.19500 0.78180 0.30117 -0.25600
O 	O 	0.29153 0.80450 0.32364 -0.26200
N 	N 	0.25734 0.53910 0.58070 -0.27800
N 	N 	0.44904 0.56040 0.73620 -0.14400
H 	H 	0.44420 0.60550 0.71000 0.11600
N 	N 	0.57545 0.52150 0.72710 -0.06800
N 	N 	0.75572 0.49050 0.89470 -0.27700
N 	N 	0.97684 0.01080 0.52080 -0.26700
N 	N 	0.78950 0.99610 0.67730 -0.06600
N 	N 	0.66183 0.98200 0.65770 -0.15200
H 	H 	0.66110 0.92780 0.66300 0.14100
N 	N 	0.48876 0.03090 0.83340 -0.28500
C 	C 	0.27567 0.60980 0.61310 0.11100
H 	H 	0.25970 0.66080 0.59490 -0.01700
C 	C 	0.31708 0.61150 0.67230 -0.19600
H 	H 	0.32840 0.66280 0.69470 0.11500
C 	C 	0.34182 0.53870 0.69860 0.15300
C 	C 	0.32280 0.46460 0.66510 -0.18900
H 	H 	0.33870 0.41290 0.68160 0.09000
C 	C 	0.28055 0.46830 0.60790 0.10200
H 	H 	0.26690 0.41760 0.58630 -0.02500
C 	C 	0.38622 0.53910 0.76380 -0.17200
H 	H 	0.38670 0.48380 0.78850 0.08400
H 	H 	0.37350 0.58010 0.80280 0.08800
C 	C 	0.49011 0.56540 0.80470 -0.05100
H 	H 	0.48960 0.51190 0.83260 0.06600
H 	H 	0.47570 0.60900 0.84030 0.05200
C 	C 	0.55356 0.58500 0.77940 -0.06600
H 	H 	0.55430 0.63960 0.75340 0.06300
H 	H 	0.58010 0.58800 0.82500 0.05200
C 	C 	0.53705 0.51960 0.65820 -0.07500
H 	H 	0.55250 0.47770 0.62170 0.06400
H 	H 	0.53830 0.57430 0.63250 0.06700
C 	C 	0.47278 0.49890 0.67960 -0.04200
H 	H 	0.44750 0.49930 0.63270 0.04500
H 	H 	0.47110 0.44260 0.70210 0.05200
C 	C 	0.63827 0.53750 0.70370 -0.16600
H 	H 	0.64220 0.59550 0.68590 0.08300
H 	H 	0.64910 0.50050 0.66040 0.07400
C 	C 	0.73426 0.42910 0.85030 0.09400
H 	H 	0.74520 0.37370 0.86240 -0.00000
C 	C 	0.69718 0.44270 0.78820 -0.18100
H 	H 	0.68330 0.39730 0.75840 0.10900
C 	C 	0.68024 0.52270 0.76950 0.15100
C 	C 	0.70380 0.58660 0.81400 -0.19100
H 	H 	0.69440 0.64260 0.80230 0.09300
C 	C 	0.74084 0.56820 0.87530 0.09700
H 	H 	0.75650 0.61260 0.90510 -0.02700
C 	C 	0.95630 0.93360 0.53260 0.09700
H 	H 	0.97030 0.89010 0.50050 -0.01700
C 	C 	0.91573 0.91540 0.58950 -0.18700
H 	H 	0.90250 0.85990 0.59630 0.08800
C 	C 	0.89407 0.97690 0.63700 0.14700
C 	C 	0.91518 0.05680 0.62460 -0.17500
H 	H 	0.90150 0.10130 0.65580 0.10500
C 	C 	0.95579 0.07090 0.56700 0.09600
H 	H 	0.96980 0.12590 0.55940 0.00400
C 	C 	0.84797 0.96080 0.69860 -0.16900
H 	H 	0.84380 0.90040 0.70650 0.07600
H 	H 	0.86160 0.98580 0.74760 0.08700
C 	C 	0.74858 0.98860 0.74320 -0.07900
H 	H 	0.76620 0.01680 0.78840 0.07600
H 	H 	0.74310 0.92940 0.75620 0.06200
C 	C 	0.68833 0.02700 0.72460 -0.03800
H 	H 	0.66130 0.02260 0.76960 0.05200
H 	H 	0.69340 0.08640 0.71190 0.07000
C 	C 	0.70373 0.98680 0.58990 -0.05300
H 	H 	0.70840 0.04530 0.57390 0.05600
H 	H 	0.68660 0.95540 0.54620 0.04900
C 	C 	0.76407 0.95140 0.61080 -0.06500
H 	H 	0.75980 0.89190 0.62360 0.05700
H 	H 	0.79160 0.95620 0.56630 0.05300
C 	C 	0.60079 0.01210 0.63390 -0.14100
H 	H 	0.58400 0.97380 0.59490 0.05800
H 	H 	0.60450 0.06750 0.60990 0.07700
C 	C 	0.50251 0.09830 0.79160 0.09900
H 	H 	0.48780 0.15070 0.80780 -0.01000
C 	C 	0.53721 0.09400 0.72610 -0.18100
H 	H 	0.54660 0.14280 0.69800 0.09800
C 	C 	0.55825 0.01720 0.70190 0.14600
C 	C 	0.54072 0.94720 0.74180 -0.19200
H 	H 	0.55200 0.89360 0.72440 0.11900
C 	C 	0.50689 0.95650 0.80670 0.09800
H 	H 	0.49560 0.90820 0.83450 -0.02300
C 	C 	0.05851 0.19650 0.47090 0.24300
C 	C 	0.09293 0.27360 0.49650 0.16000
C 	C 	0.07698 0.34470 0.46680 -0.29500
H 	H 	0.04240 0.34350 0.43490 0.15000
C 	C 	0.10610 0.42810 0.47620 0.40900
C 	C 	0.14222 0.25730 0.55430 -0.40000
H 	H 	0.17170 0.21850 0.53160 0.15900
H 	H 	0.16330 0.31000 0.56550 0.16700
C 	C 	0.11880 0.22150 0.62810 0.39500
C 	C 	0.13475 0.91280 0.43280 0.27200
C 	C 	0.16134 0.82910 0.45220 0.12500
C 	C 	0.12702 0.77540 0.48880 -0.25800
H 	H 	0.08750 0.79280 0.50120 0.13800
C 	C 	0.14437 0.68980 0.51260 0.39200
C 	C 	0.22588 0.81590 0.43050 -0.35000
H 	H 	0.24160 0.76850 0.46050 0.14700
H 	H 	0.24900 0.86560 0.44580 0.14300
C 	C 	0.23738 0.79930 0.34510 0.37700
Zn	Zn	0.95663 0.96606 0.94149 1.20200
Zn	Zn	0.80351 0.46353 0.99191 1.19900
O 	O 	0.91276 0.87221 0.98121 -0.46100
O 	O 	0.99139 0.79921 0.94220 -0.31200
O 	O 	0.91864 0.51204 0.94650 -0.34400
O 	O 	0.84408 0.56767 0.01119 -0.44900
O 	O 	0.93504 0.77420 0.14435 -0.26900
O 	O 	0.84264 0.81350 0.17212 -0.28600
O 	O 	0.91758 0.07260 0.95724 -0.46300
O 	O 	0.83530 0.03670 0.89500 -0.29000
O 	O 	0.87311 0.33817 0.07595 -0.34400
O 	O 	0.82374 0.35075 0.96528 -0.52800
O 	O 	0.80500 0.21820 0.80117 -0.26000
O 	O 	0.70847 0.19550 0.82364 -0.26800
N 	N 	0.74266 0.46090 0.08070 -0.27100
N 	N 	0.55096 0.43960 0.23620 -0.14500
H 	H 	0.55580 0.39450 0.21000 0.11900
N 	N 	0.42455 0.47850 0.22710 -0.06600
N 	N 	0.24428 0.50950 0.39470 -0.27300
N 	N 	0.02316 0.98920 0.02080 -0.25700
N 	N 	0.21050 0.00390 0.17730 -0.06600
N 	N 	0.33817 0.01800 0.15770 -0.14900
H 	H 	0.33890 0.07220 0.16300 0.14200
N 	N 	0.51124 0.96910 0.33340 -0.28400
C 	C 	0.72433 0.39020 0.11310 0.11300
H 	H 	0.74030 0.33920 0.09490 -0.01100
C 	C 	0.68292 0.38850 0.17230 -0.19400
H 	H 	0.67160 0.33720 0.19470 0.11700
C 	C 	0.65818 0.46130 0.19860 0.15300
C 	C 	0.67720 0.53540 0.16510 -0.18800
H 	H 	0.66130 0.58710 0.18160 0.09200
C 	C 	0.71945 0.53170 0.10790 0.10400
H 	H 	0.73310 0.58240 0.08630 -0.02000
C 	C 	0.61378 0.46090 0.26380 -0.17200
H 	H 	0.61330 0.51620 0.28850 0.08500
H 	H 	0.62650 0.41990 0.30280 0.08900
C 	C 	0.50989 0.43460 0.30470 -0.05200
H 	H 	0.51040 0.48810 0.33260 0.06900
H 	H 	0.52430 0.39100 0.34030 0.05700
C 	C 	0.44644 0.41500 0.27940 -0.06600
H 	H 	0.44570 0.36040 0.25340 0.06500
H 	H 	0.41990 0.41200 0.32500 0.05600
C 	C 	0.46295 0.48040 0.15820 -0.08000
H 	H 	0.44750 0.52230 0.12170 0.07200
H 	H 	0.46170 0.42570 0.13250 0.07400
C 	C 	0.52722 0.50110 0.17960 -0.04100
H 	H 	0.55250 0.50070 0.13270 0.05000
H 	H 	0.52890 0.55740 0.20210 0.05300
C 	C 	0.36173 0.46250 0.20370 -0.16800
H 	H 	0.35780 0.40450 0.18590 0.08500
H 	H 	0.35090 0.49950 0.16040 0.07600
C 	C 	0.26574 0.57090 0.35030 0.09600
H 	H 	0.25480 0.62630 0.36240 0.00000
C 	C 	0.30282 0.55730 0.28820 -0.18100
H 	H 	0.31670 0.60270 0.25840 0.11000
C 	C 	0.31976 0.47730 0.26950 0.15300
C 	C 	0.29620 0.41340 0.31400 -0.19000
H 	H 	0.30560 0.35740 0.30230 0.09600
C 	C 	0.25916 0.43180 0.37530 0.10000
H 	H 	0.24350 0.38740 0.40510 -0.01900
C 	C 	0.04370 0.06640 0.03260 0.10000
H 	H 	0.02970 0.10990 0.00050 -0.00700
C 	C 	0.08427 0.08460 0.08950 -0.18500
H 	H 	0.09750 0.14010 0.09630 0.09100
C 	C 	0.10593 0.02310 0.13700 0.14800
C 	C 	0.08482 0.94320 0.12460 -0.17300
H 	H 	0.09850 0.89870 0.15580 0.10600
C 	C 	0.04421 0.92910 0.06700 0.09800
H 	H 	0.03020 0.87410 0.05940 0.01200
C 	C 	0.15203 0.03920 0.19860 -0.16900
H 	H 	0.15620 0.09960 0.20650 0.07700
H 	H 	0.13840 0.01420 0.24760 0.08800
C 	C 	0.25142 0.01140 0.24320 -0.07900
H 	H 	0.23380 0.98320 0.28840 0.07800
H 	H 	0.25690 0.07060 0.25620 0.06500
C 	C 	0.31167 0.97300 0.22460 -0.04000
H 	H 	0.33870 0.97740 0.26960 0.05500
H 	H 	0.30660 0.91360 0.21190 0.07200
C 	C 	0.29627 0.01320 0.08990 -0.06000
H 	H 	0.29160 0.95470 0.07390 0.06600
H 	H 	0.31340 0.04460 0.04620 0.06200
C 	C 	0.23593 0.04860 0.11080 -0.06300
H 	H 	0.24020 0.10810 0.12360 0.05900
H 	H 	0.20840 0.04380 0.06630 0.05900
C 	C 	0.39921 0.98790 0.13390 -0.14800
H 	H 	0.41600 0.02620 0.09490 0.06700
H 	H 	0.39550 0.93250 0.10990 0.08500
C 	C 	0.49749 0.90170 0.29160 0.10200
H 	H 	0.51220 0.84930 0.30780 -0.01000
C 	C 	0.46279 0.90600 0.22610 -0.18400
H 	H 	0.45340 0.85720 0.19800 0.10000
C 	C 	0.44175 0.98280 0.20190 0.15000
C 	C 	0.45928 0.05280 0.24180 -0.19300
H 	H 	0.44800 0.10640 0.22440 0.12200
C 	C 	0.49311 0.04350 0.30670 0.10000
H 	H 	0.50440 0.09180 0.33450 -0.01900
C 	C 	0.94149 0.80350 0.97090 0.25700
C 	C 	0.90707 0.72640 0.99650 0.09700
C 	C 	0.92302 0.65530 0.96680 -0.25700
H 	H 	0.95760 0.65650 0.93490 0.13500
C 	C 	0.89390 0.57190 0.97620 0.34800
C 	C 	0.85778 0.74270 0.05430 -0.33800
H 	H 	0.82830 0.78150 0.03160 0.15300
H 	H 	0.83670 0.69000 0.06550 0.15500
C 	C 	0.88120 0.77850 0.12810 0.38100
C 	C 	0.86525 0.08720 0.93280 0.24800
C 	C 	0.83866 0.17090 0.95220 0.17900
C 	C 	0.87298 0.22460 0.98880 -0.40800
H 	H 	0.91250 0.20720 0.00120 0.21300
C 	C 	0.85563 0.31020 0.01260 0.50700
C 	C 	0.77412 0.18410 0.93050 -0.37900
H 	H 	0.75840 0.23150 0.96050 0.14800
H 	H 	0.75100 0.13440 0.94580 0.14200
C 	C 	0.76262 0.20070 0.84510 0.38500
Zn	Zn	0.54337 0.96606 0.44149 1.20800
Zn	Zn	0.69649 0.46353 0.49191 1.21000
O 	O 	0.58724 0.87221 0.48121 -0.43900
O 	O 	0.50861 0.79921 0.44220 -0.29800
O 	O 	0.58136 0.51204 0.44650 -0.35000
O 	O 	0.65592 0.56767 0.51119 -0.49600
O 	O 	0.56496 0.77420 0.64435 -0.28200
O 	O 	0.65736 0.81350 0.67212 -0.29300
O 	O 	0.58242 0.07260 0.45724 -0.45200
O 	O 	0.66470 0.03670 0.39500 -0.29000
O 	O 	0.62689 0.33817 0.57595 -0.32200
O 	O 	0.67626 0.35075 0.46528 -0.47700
O 	O 	0.69500 0.21820 0.30117 -0.25600
O 	O 	0.79153 0.19550 0.32364 -0.26100
N 	N 	0.75734 0.46090 0.58070 -0.27800
N 	N 	0.94904 0.43960 0.73620 -0.14500
H 	H 	0.94420 0.39450 0.71000 0.11700
N 	N 	0.07545 0.47850 0.72710 -0.06800
N 	N 	0.25572 0.50950 0.89470 -0.27700
N 	N 	0.47684 0.98920 0.52080 -0.27000
N 	N 	0.28950 0.00390 0.67730 -0.06600
N 	N 	0.16183 0.01800 0.65770 -0.15300
H 	H 	0.16110 0.07220 0.66300 0.14100
N 	N 	0.98876 0.96910 0.83340 -0.28500
C 	C 	0.77567 0.39020 0.61310 0.11100
H 	H 	0.75970 0.33920 0.59490 -0.01700
C 	C 	0.81708 0.38850 0.67230 -0.19600
H 	H 	0.82840 0.33720 0.69470 0.11500
C 	C 	0.84182 0.46130 0.69860 0.15300
C 	C 	0.82280 0.53540 0.66510 -0.18900
H 	H 	0.83870 0.58710 0.68160 0.09000
C 	C 	0.78055 0.53170 0.60790 0.10200
H 	H 	0.76690 0.58240 0.58630 -0.02500
C 	C 	0.88622 0.46090 0.76380 -0.17200
H 	H 	0.88670 0.51620 0.78850 0.08400
H 	H 	0.87350 0.41990 0.80280 0.08800
C 	C 	0.99011 0.43460 0.80470 -0.04900
H 	H 	0.98960 0.48810 0.83260 0.06600
H 	H 	0.97570 0.39100 0.84030 0.05200
C 	C 	0.05356 0.41500 0.77940 -0.06800
H 	H 	0.05430 0.36040 0.75340 0.06300
H 	H 	0.08010 0.41200 0.82500 0.05200
C 	C 	0.03705 0.48040 0.65820 -0.07700
H 	H 	0.05250 0.52230 0.62170 0.06400
H 	H 	0.03830 0.42570 0.63250 0.06700
C 	C 	0.97278 0.50110 0.67960 -0.04000
H 	H 	0.94750 0.50070 0.63270 0.04500
H 	H 	0.97110 0.55740 0.70210 0.05200
C 	C 	0.13827 0.46250 0.70370 -0.16600
H 	H 	0.14220 0.40450 0.68590 0.08300
H 	H 	0.14910 0.49950 0.66040 0.07400
C 	C 	0.23426 0.57090 0.85030 0.09400
H 	H 	0.24520 0.62630 0.86240 -0.00000
C 	C 	0.19718 0.55730 0.78820 -0.18100
H 	H 	0.18330 0.60270 0.75840 0.10900
C 	C 	0.18024 0.47730 0.76950 0.15100
C 	C 	0.20380 0.41340 0.81400 -0.19100
H 	H 	0.19440 0.35740 0.80230 0.09300
C 	C 	0.24084 0.43180 0.87530 0.09700
H 	H 	0.25650 0.38740 0.90510 -0.02800
C 	C 	0.45630 0.06640 0.53260 0.10100
H 	H 	0.47030 0.10990 0.50050 -0.01700
C 	C 	0.41573 0.08460 0.58950 -0.19000
H 	H 	0.40250 0.14010 0.59630 0.08900
C 	C 	0.39407 0.02310 0.63700 0.15100
C 	C 	0.41518 0.94320 0.62460 -0.17900
H 	H 	0.40150 0.89870 0.65580 0.10600
C 	C 	0.45579 0.92910 0.56700 0.09800
H 	H 	0.46980 0.87410 0.55940 0.00200
C 	C 	0.34797 0.03920 0.69860 -0.17100
H 	H 	0.34380 0.09960 0.70650 0.07700
H 	H 	0.36160 0.01420 0.74760 0.08800
C 	C 	0.24858 0.01140 0.74320 -0.07900
H 	H 	0.26620 0.98320 0.78840 0.07600
H 	H 	0.24310 0.07060 0.75620 0.06200
C 	C 	0.18833 0.97300 0.72460 -0.03700
H 	H 	0.16130 0.97740 0.76960 0.05200
H 	H 	0.19340 0.91360 0.71190 0.07000
C 	C 	0.20373 0.01320 0.58990 -0.05400
H 	H 	0.20840 0.95470 0.57390 0.05600
H 	H 	0.18660 0.04460 0.54620 0.04900
C 	C 	0.26407 0.04860 0.61080 -0.06500
H 	H 	0.25980 0.10810 0.62360 0.05700
H 	H 	0.29160 0.04380 0.56630 0.05300
C 	C 	0.10079 0.98790 0.63390 -0.13700
H 	H 	0.08400 0.02620 0.59490 0.05500
H 	H 	0.10450 0.93250 0.60990 0.07600
C 	C 	0.00251 0.90170 0.79160 0.10100
H 	H 	0.98780 0.84930 0.80780 -0.01100
C 	C 	0.03721 0.90600 0.72610 -0.18200
H 	H 	0.04660 0.85720 0.69800 0.09800
C 	C 	0.05825 0.98280 0.70190 0.14600
C 	C 	0.04072 0.05280 0.74180 -0.19000
H 	H 	0.05200 0.10640 0.72440 0.11800
C 	C 	0.00689 0.04350 0.80670 0.09000
H 	H 	0.99560 0.09180 0.83450 -0.01800
C 	C 	0.55851 0.80350 0.47090 0.24300
C 	C 	0.59293 0.72640 0.49650 0.16000
C 	C 	0.57698 0.65530 0.46680 -0.29500
H 	H 	0.54240 0.65650 0.43490 0.15000
C 	C 	0.60610 0.57190 0.47620 0.40900
C 	C 	0.64222 0.74270 0.55430 -0.40000
H 	H 	0.67170 0.78150 0.53160 0.15900
H 	H 	0.66330 0.69000 0.56550 0.16700
C 	C 	0.61880 0.77850 0.62810 0.39500
C 	C 	0.63475 0.08720 0.43280 0.27200
C 	C 	0.66134 0.17090 0.45220 0.12500
C 	C 	0.62702 0.22460 0.48880 -0.25800
H 	H 	0.58750 0.20720 0.50120 0.13800
C 	C 	0.64437 0.31020 0.51260 0.39200
C 	C 	0.72588 0.18410 0.43050 -0.35000
H 	H 	0.74160 0.23150 0.46050 0.14700
H 	H 	0.74900 0.13440 0.44580 0.14300
C 	C 	0.73738 0.20070 0.34510 0.37700
Zn	Zn	0.45663 0.03394 0.94149 1.20300
Zn	Zn	0.30351 0.53647 0.99191 1.19900
O 	O 	0.41276 0.12779 0.98121 -0.46100
O 	O 	0.49139 0.20079 0.94220 -0.31200
O 	O 	0.41864 0.48796 0.94650 -0.34400
O 	O 	0.34408 0.43233 0.01119 -0.44800
O 	O 	0.43504 0.22580 0.14435 -0.26900
O 	O 	0.34264 0.18650 0.17212 -0.28600
O 	O 	0.41758 0.92740 0.95724 -0.46500
O 	O 	0.33530 0.96330 0.89500 -0.29000
O 	O 	0.37311 0.66183 0.07595 -0.34400
O 	O 	0.32374 0.64925 0.96528 -0.52900
O 	O 	0.30500 0.78180 0.80117 -0.26000
O 	O 	0.20847 0.80450 0.82364 -0.26800
N 	N 	0.24266 0.53910 0.08070 -0.27100
N 	N 	0.05096 0.56040 0.23620 -0.14500
H 	H 	0.05580 0.60550 0.21000 0.11900
N 	N 	0.92455 0.52150 0.22710 -0.06600
N 	N 	0.74428 0.49050 0.39470 -0.27300
N 	N 	0.52316 0.01080 0.02080 -0.25900
N 	N 	0.71050 0.99610 0.17730 -0.06500
N 	N 	0.83817 0.98200 0.15770 -0.15000
H 	H 	0.83890 0.92780 0.16300 0.14200
N 	N 	0.01124 0.03090 0.33340 -0.28800
C 	C 	0.22433 0.60980 0.11310 0.11300
H 	H 	0.24030 0.66080 0.09490 -0.01100
C 	C 	0.18292 0.61150 0.17230 -0.19400
H 	H 	0.17160 0.66280 0.19470 0.11700
C 	C 	0.15818 0.53870 0.19860 0.15300
C 	C 	0.17720 0.46460 0.16510 -0.18800
H 	H 	0.16130 0.41290 0.18160 0.09100
C 	C 	0.21945 0.46830 0.10790 0.10400
H 	H 	0.23310 0.41760 0.08630 -0.02000
C 	C 	0.11378 0.53910 0.26380 -0.17200
H 	H 	0.11330 0.48380 0.28850 0.08500
H 	H 	0.12650 0.58010 0.30280 0.08900
C 	C 	0.00989 0.56540 0.30470 -0.05300
H 	H 	0.01040 0.51190 0.33260 0.06900
H 	H 	0.02430 0.60900 0.34030 0.05700
C 	C 	0.94644 0.58500 0.27940 -0.06500
H 	H 	0.94570 0.63960 0.25340 0.06500
H 	H 	0.91990 0.58800 0.32500 0.05600
C 	C 	0.96295 0.51960 0.15820 -0.07900
H 	H 	0.94750 0.47770 0.12170 0.07100
H 	H 	0.96170 0.57430 0.13250 0.07300
C 	C 	0.02722 0.49890 0.17960 -0.04200
H 	H 	0.05250 0.49930 0.13270 0.05000
H 	H 	0.02890 0.44260 0.20210 0.05300
C 	C 	0.86173 0.53750 0.20370 -0.16800
H 	H 	0.85780 0.59550 0.18590 0.08400
H 	H 	0.85090 0.50050 0.16040 0.07600
C 	C 	0.76574 0.42910 0.35030 0.09600
H 	H 	0.75480 0.37370 0.36240 0.00000
C 	C 	0.80282 0.44270 0.28820 -0.18100
H 	H 	0.81670 0.39730 0.25840 0.11100
C 	C 	0.81976 0.52270 0.26950 0.15300
C 	C 	0.79620 0.58660 0.31400 -0.19000
H 	H 	0.80560 0.64260 0.30230 0.09600
C 	C 	0.75916 0.56820 0.37530 0.10000
H 	H 	0.74350 0.61260 0.40510 -0.01900
C 	C 	0.54370 0.93360 0.03260 0.10400
H 	H 	0.52970 0.89010 0.00050 -0.00800
C 	C 	0.58427 0.91540 0.08950 -0.18700
H 	H 	0.59750 0.85990 0.09630 0.09200
C 	C 	0.60593 0.97690 0.13700 0.15100
C 	C 	0.58482 0.05680 0.12460 -0.17600
H 	H 	0.59850 0.10130 0.15580 0.10700
C 	C 	0.54421 0.07090 0.06700 0.10000
H 	H 	0.53020 0.12590 0.05940 0.01200
C 	C 	0.65203 0.96080 0.19860 -0.17100
H 	H 	0.65620 0.90040 0.20650 0.07800
H 	H 	0.63840 0.98580 0.24760 0.08800
C 	C 	0.75142 0.98860 0.24320 -0.08000
H 	H 	0.73380 0.01680 0.28840 0.07800
H 	H 	0.75690 0.92940 0.25620 0.06500
C 	C 	0.81167 0.02700 0.22460 -0.03900
H 	H 	0.83870 0.02260 0.26960 0.05500
H 	H 	0.80660 0.08640 0.21190 0.07200
C 	C 	0.79627 0.98680 0.08990 -0.06100
H 	H 	0.79160 0.04530 0.07390 0.06600
H 	H 	0.81340 0.95540 0.04620 0.06200
C 	C 	0.73593 0.95140 0.11080 -0.06300
H 	H 	0.74020 0.89190 0.12360 0.05900
H 	H 	0.70840 0.95620 0.06630 0.05900
C 	C 	0.89921 0.01210 0.13390 -0.14700
H 	H 	0.91600 0.97380 0.09490 0.06500
H 	H 	0.89550 0.06750 0.10990 0.08500
C 	C 	0.99749 0.09830 0.29160 0.11300
H 	H 	0.01220 0.15070 0.30780 -0.01500
C 	C 	0.96279 0.09400 0.22610 -0.18900
H 	H 	0.95340 0.14280 0.19800 0.10300
C 	C 	0.94175 0.01720 0.20190 0.15500
C 	C 	0.95928 0.94720 0.24180 -0.19700
H 	H 	0.94800 0.89360 0.22440 0.12300
C 	C 	0.99311 0.95650 0.30670 0.10100
H 	H 	0.00440 0.90820 0.33450 -0.01800
C 	C 	0.44149 0.19650 0.97090 0.25700
C 	C 	0.40707 0.27360 0.99650 0.09700
C 	C 	0.42302 0.34470 0.96680 -0.25700
H 	H 	0.45760 0.34350 0.93490 0.13400
C 	C 	0.39390 0.42810 0.97620 0.34800
C 	C 	0.35778 0.25730 0.05430 -0.33700
H 	H 	0.32830 0.21850 0.03160 0.15300
H 	H 	0.33670 0.31000 0.06550 0.15500
C 	C 	0.38120 0.22150 0.12810 0.38000
C 	C 	0.36525 0.91280 0.93280 0.24800
C 	C 	0.33866 0.82910 0.95220 0.18000
C 	C 	0.37298 0.77540 0.98880 -0.41000
H 	H 	0.41250 0.79280 0.00120 0.21300
C 	C 	0.35563 0.68980 0.01260 0.50800
C 	C 	0.27412 0.81590 0.93050 -0.37900
H 	H 	0.25840 0.76850 0.96050 0.14800
H 	H 	0.25100 0.86560 0.94580 0.14200
C 	C 	0.26262 0.79930 0.84510 0.38600
