data_crystal

_cell_length_a 10.44830
_cell_length_b 15.02820
_cell_length_c 16.77500
_cell_angle_alpha 65.38500
_cell_angle_beta  83.95200
_cell_angle_gamma 73.59500

_symmetry_space_group_name_	'P 1'
_symmetry_space_group_name_H-M	'P 1'

loop_
_symmetry_equiv_pos_as_xyz
  x,y,z

loop_
_atom_site_label
_atom_site_type_symbol
_atom_site_fract_x
_atom_site_fract_y
_atom_site_fract_z
_atom_site_charge
Pr	Pr	0.29361 0.25490 0.21178 1.99300
Pr	Pr	0.22190 0.50878 0.62872 1.94200
Pr	Pr	0.70639 0.74510 0.78822 1.99300
Pr	Pr	0.77810 0.49122 0.37128 1.94200
H 	H 	0.68840 0.94490 0.85160 0.23800
H 	H 	0.97210 0.92790 0.90110 0.22000
H 	H 	0.83450 0.95120 0.70240 0.21600
H 	H 	0.33060 0.16650 0.89050 0.04500
H 	H 	0.64870 0.18580 0.99610 0.05000
H 	H 	0.86550 0.07030 0.00440 0.07100
H 	H 	0.88080 0.97700 0.97800 0.07300
H 	H 	0.86020 0.24210 0.88040 0.04900
H 	H 	0.06820 0.24510 0.66190 0.04900
H 	H 	0.13950 0.97870 0.71810 0.13300
H 	H 	0.19850 0.07390 0.66210 0.09700
H 	H 	0.12440 0.17600 0.51290 0.07000
H 	H 	0.80820 0.14260 0.41650 0.06300
H 	H 	0.75190 0.93780 0.59890 0.08000
H 	H 	0.69280 0.01890 0.50400 0.10200
H 	H 	0.53460 0.18240 0.49030 0.04600
H 	H 	0.32420 0.19700 0.70360 0.03100
H 	H 	0.34990 0.03670 0.83820 0.07600
H 	H 	0.48650 0.94930 0.85430 0.08000
H 	H 	0.31160 0.05510 0.14840 0.23900
H 	H 	0.02790 0.07210 0.09890 0.22100
H 	H 	0.16550 0.04880 0.29760 0.21700
H 	H 	0.66940 0.83350 0.10950 0.04600
H 	H 	0.35130 0.81420 0.00390 0.05000
H 	H 	0.13450 0.92970 0.99560 0.07100
H 	H 	0.11920 0.02300 0.02200 0.07300
H 	H 	0.13980 0.75790 0.11960 0.04900
H 	H 	0.93180 0.75490 0.33810 0.04900
H 	H 	0.86050 0.02130 0.28190 0.13300
H 	H 	0.80150 0.92610 0.33790 0.09700
H 	H 	0.87560 0.82400 0.48710 0.07000
H 	H 	0.19180 0.85740 0.58350 0.06300
H 	H 	0.24810 0.06220 0.40110 0.08000
H 	H 	0.30720 0.98110 0.49600 0.10200
H 	H 	0.46540 0.81760 0.50970 0.04600
H 	H 	0.67580 0.80300 0.29640 0.03100
H 	H 	0.65010 0.96330 0.16180 0.07600
H 	H 	0.51350 0.05070 0.14570 0.08000
C 	C 	0.50530 0.06930 0.87887 -0.02700
C 	C 	0.42360 0.14460 0.90316 -0.02700
C 	C 	0.47770 0.18810 0.94595 -0.08600
C 	C 	0.61340 0.15650 0.96593 -0.03200
C 	C 	0.69730 0.08220 0.94186 -0.00700
C 	C 	0.64220 0.03881 0.89839 0.14800
C 	C 	0.84670 0.05150 0.95774 -0.13100
C 	C 	0.91830 0.10320 0.87465 -0.01700
C 	C 	0.90710 0.20680 0.84607 -0.02600
C 	C 	0.96420 0.25840 0.76779 -0.08200
C 	C 	0.03140 0.20860 0.71592 -0.04600
C 	C 	0.04510 0.10530 0.74282 0.02100
C 	C 	0.98970 0.05320 0.82344 0.13100
C 	C 	0.11520 0.05310 0.68375 -0.17100
C 	C 	0.02800 0.07930 0.60644 0.02500
C 	C 	0.05180 0.14640 0.52258 -0.05400
C 	C 	0.96800 0.16990 0.45284 -0.10300
C 	C 	0.86300 0.12620 0.46506 -0.04700
C 	C 	0.83730 0.05870 0.54785 -0.00500
C 	C 	0.92010 0.03690 0.61792 0.12200
C 	C 	0.72170 0.01120 0.56137 -0.15200
C 	C 	0.60490 0.06027 0.60388 -0.01000
C 	C 	0.52120 0.15360 0.55173 -0.01800
C 	C 	0.41810 0.20500 0.58914 -0.10800
C 	C 	0.39520 0.16190 0.67860 -0.02100
C 	C 	0.47540 0.06720 0.73215 -0.01800
C 	C 	0.58300 0.01617 0.69518 0.14700
C 	C 	0.44760 0.02370 0.82956 -0.13300
C 	C 	0.49470 0.93070 0.12113 -0.02700
C 	C 	0.57640 0.85540 0.09684 -0.02700
C 	C 	0.52230 0.81190 0.05405 -0.08600
C 	C 	0.38660 0.84350 0.03407 -0.03200
C 	C 	0.30270 0.91780 0.05814 -0.00700
C 	C 	0.35780 0.96119 0.10161 0.14800
C 	C 	0.15330 0.94850 0.04226 -0.13100
C 	C 	0.08170 0.89680 0.12535 -0.01700
C 	C 	0.09290 0.79320 0.15393 -0.02600
C 	C 	0.03580 0.74160 0.23221 -0.08200
C 	C 	0.96860 0.79140 0.28408 -0.04600
C 	C 	0.95490 0.89470 0.25718 0.02100
C 	C 	0.01030 0.94680 0.17656 0.13100
C 	C 	0.88480 0.94690 0.31625 -0.17100
C 	C 	0.97200 0.92070 0.39356 0.02500
C 	C 	0.94820 0.85360 0.47742 -0.05400
C 	C 	0.03200 0.83010 0.54716 -0.10300
C 	C 	0.13700 0.87380 0.53494 -0.04700
C 	C 	0.16270 0.94130 0.45215 -0.00500
C 	C 	0.07990 0.96310 0.38208 0.12200
C 	C 	0.27830 0.98880 0.43863 -0.15200
C 	C 	0.39510 0.93973 0.39612 -0.01000
C 	C 	0.47880 0.84640 0.44827 -0.01800
C 	C 	0.58190 0.79500 0.41086 -0.10800
C 	C 	0.60480 0.83810 0.32140 -0.02100
C 	C 	0.52460 0.93280 0.26785 -0.01800
C 	C 	0.41700 0.98383 0.30482 0.14700
C 	C 	0.55240 0.97630 0.17044 -0.13300
S 	S 	0.37707 0.28281 0.97777 0.50500
S 	S 	0.94729 0.38971 0.73051 0.53000
S 	S 	0.99253 0.25936 0.34809 0.55700
S 	S 	0.32042 0.32549 0.52070 0.53000
S 	S 	0.62293 0.71719 0.02223 0.50500
S 	S 	0.05271 0.61029 0.26949 0.53000
S 	S 	0.00747 0.74064 0.65191 0.55700
S 	S 	0.67958 0.67451 0.47930 0.53000
N 	N 	0.55370 0.14981 0.30678 0.05600
N 	N 	0.44630 0.85019 0.69322 0.05600
O 	O 	0.35550 0.23589 0.07267 -0.49800
O 	O 	0.44950 0.35995 0.95653 -0.32200
O 	O 	0.25080 0.32207 0.92913 -0.31300
O 	O 	0.72940 0.96609 0.87746 -0.37800
O 	O 	0.08320 0.40129 0.72505 -0.50300
O 	O 	0.88130 0.43812 0.64514 -0.33700
O 	O 	0.86850 0.42104 0.79602 -0.32000
O 	O 	0.00868 0.95002 0.85234 -0.34400
O 	O 	0.13585 0.23085 0.33069 -0.51400
O 	O 	0.91010 0.25576 0.28562 -0.33900
O 	O 	0.95680 0.35851 0.35312 -0.56000
O 	O 	0.90070 0.97285 0.70155 -0.34300
O 	O 	0.41300 0.38130 0.46521 -0.38700
O 	O 	0.22820 0.31206 0.46990 -0.28700
O 	O 	0.24840 0.37166 0.57998 -0.53200
O 	O 	0.66794 0.92814 0.74664 -0.42000
O 	O 	0.44800 0.15411 0.34944 -0.30500
O 	O 	0.54160 0.18594 0.22249 -0.33400
O 	O 	0.66340 0.11430 0.34151 -0.14100
O 	O 	0.64450 0.76411 0.92733 -0.49800
O 	O 	0.55050 0.64005 0.04347 -0.32200
O 	O 	0.74920 0.67793 0.07087 -0.31300
O 	O 	0.27060 0.03391 0.12254 -0.37800
O 	O 	0.91680 0.59871 0.27495 -0.50300
O 	O 	0.11870 0.56188 0.35486 -0.33700
O 	O 	0.13150 0.57896 0.20398 -0.32000
O 	O 	0.99132 0.04998 0.14766 -0.34400
O 	O 	0.86415 0.76915 0.66931 -0.51400
O 	O 	0.08990 0.74424 0.71438 -0.33900
O 	O 	0.04320 0.64149 0.64688 -0.56000
O 	O 	0.09930 0.02715 0.29845 -0.34300
O 	O 	0.58700 0.61870 0.53479 -0.38700
O 	O 	0.77180 0.68794 0.53010 -0.28700
O 	O 	0.75160 0.62834 0.42002 -0.53200
O 	O 	0.33206 0.07186 0.25336 -0.42000
O 	O 	0.55200 0.84589 0.65056 -0.30500
O 	O 	0.45840 0.81406 0.77751 -0.33400
O 	O 	0.33660 0.88570 0.65849 -0.14100
