data_crystal

_cell_length_a 10.59250
_cell_length_b 19.44090
_cell_length_c 23.68200
_cell_angle_alpha 73.74400
_cell_angle_beta  83.66100
_cell_angle_gamma 89.71200

_symmetry_space_group_name_	'P 1'
_symmetry_space_group_name_H-M	'P 1'

loop_
_symmetry_equiv_pos_as_xyz
  x,y,z

loop_
_atom_site_label
_atom_site_type_symbol
_atom_site_fract_x
_atom_site_fract_y
_atom_site_fract_z
_atom_site_charge
Cd	Cd	0.10640 0.22381 0.24030 1.22600
Cd	Cd	0.69694 0.15655 0.25871 1.23500
Cd	Cd	0.08562 0.65758 0.25296 1.23600
Cd	Cd	0.89360 0.77619 0.75970 1.22600
Cd	Cd	0.45006 0.04090 0.76050 1.23500
Cd	Cd	0.75356 0.54527 0.77329 1.23500
Cd	Cd	0.30306 0.84345 0.74129 1.23400
Cd	Cd	0.67852 0.71252 0.26708 1.23200
Cd	Cd	0.32148 0.28748 0.73292 1.23200
Cd	Cd	0.91438 0.34242 0.74704 1.23500
Cd	Cd	0.54994 0.95910 0.23950 1.23500
Cd	Cd	0.24644 0.45473 0.22671 1.23500
H 	H 	0.28380 0.92650 0.25530 0.04400
H 	H 	0.65940 0.57730 0.37970 0.01000
H 	H 	0.18870 0.02870 0.25540 0.02300
H 	H 	0.67140 0.63170 0.16610 -0.00400
H 	H 	0.80370 0.09940 0.15180 0.00200
H 	H 	0.33300 0.45830 0.51960 0.07800
H 	H 	0.21200 0.66820 0.95600 0.08300
H 	H 	0.51060 0.14110 0.90560 0.03300
H 	H 	0.25590 0.32350 0.33650 -0.01800
H 	H 	0.40030 0.81490 0.45050 0.08100
H 	H 	0.51070 0.71580 0.97980 0.05800
H 	H 	0.86860 0.12750 0.05360 0.08000
H 	H 	0.84300 0.84250 0.04660 0.07900
H 	H 	0.17000 0.13400 0.14520 -0.00300
H 	H 	0.99970 0.61820 0.47920 0.08100
H 	H 	0.73820 0.02940 0.37840 0.00400
H 	H 	0.47870 0.83500 0.92890 0.03600
H 	H 	0.32690 0.25370 0.52220 0.07700
H 	H 	0.27600 0.35700 0.93120 0.08500
H 	H 	0.59700 0.52910 0.25590 0.03400
H 	H 	0.71620 0.07350 0.74470 0.04400
H 	H 	0.48940 0.85890 0.09440 0.03300
H 	H 	0.81130 0.97130 0.74460 0.02300
H 	H 	0.04610 0.50310 0.33780 0.00100
H 	H 	0.12420 0.34980 0.01360 0.08100
H 	H 	0.58940 0.21390 0.36240 0.00700
H 	H 	0.83410 0.17640 0.73730 0.02400
H 	H 	0.43510 0.80500 0.53820 0.07500
H 	H 	0.59970 0.18510 0.54950 0.08100
H 	H 	0.60330 0.33240 0.92090 0.03000
H 	H 	0.94300 0.38860 0.85890 0.01000
H 	H 	0.20180 0.14230 0.04740 0.08400
H 	H 	0.16590 0.82360 0.26270 0.02400
H 	H 	0.97710 0.32000 0.61890 -0.00200
H 	H 	0.13140 0.87250 0.94640 0.08000
H 	H 	0.02290 0.68000 0.38110 -0.00200
H 	H 	0.72400 0.64300 0.06880 0.08500
H 	H 	0.95390 0.49690 0.66220 0.00100
H 	H 	0.41780 0.36360 0.07370 0.04300
H 	H 	0.83000 0.86600 0.85480 -0.00300
H 	H 	0.73060 0.29660 0.14410 -0.01000
H 	H 	0.05700 0.61140 0.14110 0.01000
H 	H 	0.12900 0.80590 0.14290 -0.00700
H 	H 	0.91190 0.66650 0.88720 0.00100
H 	H 	0.78800 0.33180 0.04400 0.08300
H 	H 	0.55780 0.16030 0.64960 -0.00800
H 	H 	0.63790 0.48450 0.67310 0.00500
H 	H 	0.42500 0.04180 0.33050 -0.00200
H 	H 	0.34060 0.42270 0.62030 0.01000
H 	H 	0.67310 0.74630 0.47780 0.07700
H 	H 	0.74410 0.67650 0.66350 -0.01800
H 	H 	0.56490 0.19500 0.46180 0.07500
H 	H 	0.83490 0.15660 0.95930 0.07700
H 	H 	0.58220 0.63640 0.92630 0.04300
H 	H 	0.00030 0.38180 0.52080 0.08100
H 	H 	0.40300 0.47090 0.74410 0.03400
H 	H 	0.87580 0.65020 0.98640 0.08100
H 	H 	0.50010 0.57320 0.75190 0.03300
H 	H 	0.61980 0.32910 0.24450 0.02200
H 	H 	0.02350 0.43750 0.43400 0.08200
H 	H 	0.26940 0.70340 0.85590 -0.01000
H 	H 	0.87100 0.19410 0.85710 -0.00700
H 	H 	0.61470 0.51520 0.57450 0.08300
H 	H 	0.36210 0.51550 0.32690 0.00500
H 	H 	0.27250 0.28590 0.43400 0.07900
H 	H 	0.20300 0.17530 0.85380 -0.00100
H 	H 	0.26180 0.97060 0.62160 0.00400
H 	H 	0.37570 0.02360 0.42930 0.08400
H 	H 	0.41060 0.78610 0.63760 0.00700
H 	H 	0.49990 0.42680 0.24810 0.03300
H 	H 	0.71370 0.00470 0.47840 0.07800
H 	H 	0.32060 0.22220 0.62270 0.00400
H 	H 	0.32860 0.36830 0.83390 -0.00400
H 	H 	0.39670 0.66760 0.07910 0.03000
H 	H 	0.19630 0.90060 0.84820 0.00200
H 	H 	0.53790 0.21430 0.96280 0.06500
H 	H 	0.67940 0.77780 0.37730 0.00400
H 	H 	0.62430 0.97640 0.57070 0.08400
H 	H 	0.09150 0.64150 0.04140 0.07700
H 	H 	0.15700 0.15750 0.95340 0.07900
H 	H 	0.79700 0.82470 0.14620 -0.00100
H 	H 	0.16510 0.84340 0.04070 0.07700
H 	H 	0.57500 0.95820 0.66950 -0.00200
H 	H 	0.46210 0.78570 0.03720 0.06500
H 	H 	0.66700 0.54170 0.48040 0.07800
H 	H 	0.38020 0.67090 0.75550 0.02200
H 	H 	0.79820 0.85770 0.95260 0.08400
H 	H 	0.48930 0.28420 0.02020 0.05800
H 	H 	0.97650 0.56250 0.56600 0.08200
H 	H 	0.44220 0.83970 0.35040 -0.00800
H 	H 	0.90850 0.35850 0.95860 0.07700
H 	H 	0.08810 0.33350 0.11280 0.00100
H 	H 	0.72750 0.71410 0.56600 0.07900
H 	H 	0.28630 0.99530 0.52160 0.07800
H 	H 	0.52130 0.16500 0.07110 0.03600
H 	H 	0.38530 0.48480 0.42550 0.08300
C 	C 	0.51690 0.16730 0.79070 0.35500
C 	C 	0.55420 0.21490 0.82680 -0.10500
C 	C 	0.75870 0.26230 0.12540 0.09300
C 	C 	0.61630 0.08290 0.54660 0.06400
C 	C 	0.57970 0.00490 0.64490 0.08800
C 	C 	0.66000 0.37160 0.24420 0.03400
C 	C 	0.52690 0.73140 0.93870 -0.07700
C 	C 	0.49330 0.19740 0.09200 0.01200
C 	C 	0.20400 0.05970 0.74220 0.31000
C 	C 	0.59730 0.28560 0.80070 -0.05600
C 	C 	0.40440 0.86230 0.42730 -0.14400
C 	C 	0.70780 0.67480 0.14190 0.08800
C 	C 	0.20780 0.62480 0.76000 -0.12100
C 	C 	0.60900 0.01570 0.58530 -0.14300
C 	C 	0.16080 0.83680 0.92950 -0.13800
C 	C 	0.91960 0.34140 0.87940 0.06900
C 	C 	0.33000 0.35890 0.50920 0.05900
C 	C 	0.07850 0.19710 0.73710 0.44400
C 	C 	0.73950 0.68140 0.08360 -0.14100
C 	C 	0.50670 0.80260 0.90800 0.01200
C 	C 	0.66590 0.61190 0.39960 0.07700
C 	C 	0.38370 0.91710 0.45340 0.06400
C 	C 	0.86060 0.01140 0.74310 0.05100
C 	C 	0.48310 0.83270 0.20930 0.35500
C 	C 	0.32700 0.28940 0.54140 -0.13800
C 	C 	0.40020 0.19660 0.25040 0.34700
C 	C 	0.67000 0.64110 0.49080 0.05900
C 	C 	0.49900 0.09870 0.18340 0.33000
C 	C 	0.28110 0.35660 0.35510 0.09800
C 	C 	0.86570 0.69510 0.96040 -0.14000
C 	C 	0.24130 0.73770 0.87460 0.09300
C 	C 	0.13940 0.98860 0.25690 0.05100
C 	C 	0.79210 0.28380 0.06520 -0.14200
C 	C 	0.96130 0.47300 0.63310 0.08800
C 	C 	0.83920 0.16320 0.07050 -0.13800
C 	C 	0.34320 0.46850 0.34940 0.08600
C 	C 	0.39980 0.84050 0.55400 -0.13400
C 	C 	0.52810 0.82500 0.84740 -0.08600
C 	C 	0.86460 0.30910 0.24160 0.42900
C 	C 	0.42030 0.99510 0.35510 0.08800
C 	C 	0.63580 0.09620 0.48350 0.05500
C 	C 	0.00830 0.99440 0.25890 -0.13600
C 	C 	0.50100 0.90130 0.81660 0.33000
C 	C 	0.61870 0.31460 0.73460 0.31700
C 	C 	0.33830 0.34250 0.18440 0.33200
C 	C 	0.44700 0.76790 0.07820 -0.09900
C 	C 	0.06430 0.06510 0.74100 0.03800
C 	C 	0.57160 0.68440 0.90670 0.01000
C 	C 	0.60000 0.70860 0.84640 -0.08600
C 	C 	0.46460 0.81120 0.11200 0.03200
C 	C 	0.47310 0.26860 0.06130 -0.07700
C 	C 	0.18090 0.18300 0.05930 -0.14300
C 	C 	0.08040 0.65860 0.12060 0.06900
C 	C 	0.70180 0.06370 0.39520 0.08300
C 	C 	0.14480 0.79550 0.06010 -0.13300
C 	C 	0.36420 0.90380 0.51650 0.05500
C 	C 	0.64630 0.49100 0.25110 0.02300
C 	C 	0.02390 0.48730 0.42460 -0.14000
C 	C 	0.38130 0.68540 0.26540 0.31700
C 	C 	0.12230 0.77250 0.12190 0.08400
C 	C 	0.42840 0.31560 0.09330 0.01000
C 	C 	0.35370 0.50900 0.74890 0.02300
C 	C 	0.64310 0.54940 0.59120 -0.13800
C 	C 	0.33240 0.40980 0.53970 -0.13200
C 	C 	0.20580 0.25630 0.95430 0.06200
C 	C 	0.84070 0.82180 0.88180 0.09100
C 	C 	0.99170 0.00560 0.74110 -0.13600
C 	C 	0.33310 0.59570 0.18960 0.35300
C 	C 	0.85200 0.44050 0.23880 0.02200
C 	C 	0.99380 0.44600 0.23330 0.31800
C 	C 	0.35690 0.45060 0.40880 -0.13800
C 	C 	0.33410 0.38810 0.60040 0.07700
C 	C 	0.47190 0.17500 0.15260 -0.08600
C 	C 	0.97470 0.36970 0.60820 0.09700
C 	C 	0.18930 0.20180 0.92970 -0.13700
C 	C 	0.56880 0.12220 0.63320 0.09500
C 	C 	0.71890 0.64340 0.64490 0.09800
C 	C 	0.40700 0.69730 0.10310 0.03200
C 	C 	0.95230 0.06490 0.25970 0.44500
C 	C 	0.14800 0.55950 0.76120 0.02200
C 	C 	0.79220 0.37520 0.24000 -0.12100
C 	C 	0.53540 0.18880 0.88800 0.03200
C 	C 	0.66690 0.40430 0.81040 0.35300
C 	C 	0.16700 0.43510 0.74630 0.40500
C 	C 	0.61600 0.17080 0.38600 0.07800
C 	C 	0.55300 0.23210 0.92180 -0.09900
C 	C 	0.44580 0.78510 0.17320 -0.10500
C 	C 	0.67570 0.72940 0.39810 0.08200
C 	C 	0.00600 0.12970 0.73990 -0.12800
C 	C 	0.99400 0.87030 0.26010 -0.12800
C 	C 	0.81070 0.79820 0.07030 -0.13700
C 	C 	0.32790 0.38080 0.44350 0.06000
C 	C 	0.19750 0.85290 0.87040 0.07700
C 	C 	0.29820 0.93630 0.60480 0.08300
C 	C 	0.40000 0.29140 0.15360 -0.08600
C 	C 	0.66170 0.65750 0.81560 0.33200
C 	C 	0.83260 0.23250 0.03590 0.06200
C 	C 	0.67210 0.61920 0.55650 0.06000
C 	C 	0.61760 0.32890 0.83620 -0.10700
C 	C 	0.39100 0.98430 0.41470 -0.14300
C 	C 	0.68750 0.04860 0.45580 -0.13800
C 	C 	0.31250 0.95140 0.54420 -0.13800
C 	C 	0.16740 0.76750 0.96410 0.06200
C 	C 	0.29080 0.33370 0.41360 -0.15000
C 	C 	0.87770 0.22750 0.87810 0.08400
C 	C 	0.26050 0.31860 0.91640 -0.14100
C 	C 	0.22180 0.50290 0.75260 -0.10500
C 	C 	0.65680 0.53150 0.65060 0.08600
C 	C 	0.97610 0.51270 0.57540 -0.14000
C 	C 	0.00620 0.55400 0.76670 0.31800
C 	C 	0.67300 0.71060 0.45860 -0.13800
C 	C 	0.43120 0.87780 0.36680 0.09500
C 	C 	0.80430 0.07180 0.74280 -0.09600
C 	C 	0.70920 0.66630 0.58640 -0.15000
C 	C 	0.79420 0.74370 0.04570 0.06200
C 	C 	0.42440 0.22220 0.18400 -0.07300
C 	C 	0.02530 0.63030 0.39180 0.09700
C 	C 	0.29220 0.32520 0.85810 0.08800
C 	C 	0.40270 0.71440 0.19930 -0.05600
C 	C 	0.87440 0.13330 0.73960 0.04300
C 	C 	0.60020 0.15950 0.44600 -0.13400
C 	C 	0.89900 0.32380 0.93910 -0.12700
C 	C 	0.03870 0.52700 0.36690 0.08800
C 	C 	0.13540 0.69090 0.75840 0.42900
C 	C 	0.99000 0.40690 0.54910 -0.14400
C 	C 	0.79600 0.94030 0.25780 0.31000
C 	C 	0.10100 0.67620 0.06090 -0.12700
C 	C 	0.88730 0.70570 0.90070 0.08700
C 	C 	0.80250 0.14710 0.12960 0.07700
C 	C 	0.66760 0.59020 0.46030 -0.13200
C 	C 	0.34000 0.62840 0.75580 0.03400
C 	C 	0.04770 0.93510 0.74030 0.44500
C 	C 	0.38240 0.67110 0.16380 -0.10700
C 	C 	0.11270 0.29430 0.09930 0.08700
C 	C 	0.19570 0.92820 0.25720 -0.09600
C 	C 	0.57560 0.77780 0.81600 -0.07300
C 	C 	0.32430 0.27060 0.60190 0.08200
C 	C 	0.15930 0.17820 0.11820 0.09100
C 	C 	0.99010 0.47960 0.53130 0.06500
C 	C 	0.77970 0.78760 0.13030 0.08000
C 	C 	0.77820 0.49710 0.24740 -0.10500
C 	C 	0.92150 0.80290 0.26290 0.44400
C 	C 	0.59560 0.13770 0.57270 -0.14400
C 	C 	0.12560 0.86670 0.26040 0.04300
C 	C 	0.85520 0.20450 0.93990 -0.13300
C 	C 	0.41240 0.57070 0.75220 -0.07100
C 	C 	0.13430 0.30490 0.03960 -0.14000
C 	C 	0.38400 0.82920 0.61400 0.07800
C 	C 	0.17200 0.24660 0.01800 0.06200
C 	C 	0.01000 0.59310 0.45090 -0.14400
C 	C 	0.81910 0.81700 0.94070 -0.14300
C 	C 	0.93570 0.93490 0.25900 0.03800
C 	C 	0.82800 0.75340 0.98200 0.06200
C 	C 	0.58760 0.42930 0.24780 -0.07100
C 	C 	0.83300 0.56490 0.25370 0.40500
C 	C 	0.20790 0.71620 0.93480 -0.14200
C 	C 	0.59980 0.80340 0.74960 0.34700
C 	C 	0.00990 0.52040 0.46870 0.06500
C 	C 	0.13660 0.74670 0.02840 0.05200
C 	C 	0.22030 0.21240 0.86970 0.08000
C 	C 	0.86340 0.25330 0.97160 0.05200
C 	C 	0.59300 0.30270 0.89690 0.03200
N 	N 	0.23530 0.80420 0.84240 -0.23400
N 	N 	0.67340 0.68100 0.36870 -0.22400
N 	N 	0.44200 0.94230 0.33120 -0.24400
N 	N 	0.76470 0.19580 0.15760 -0.23400
N 	N 	0.04290 0.59780 0.35030 -0.23300
N 	N 	0.32660 0.31900 0.63130 -0.22400
N 	N 	0.33270 0.87640 0.64030 -0.23100
N 	N 	0.27320 0.27230 0.83370 -0.23600
N 	N 	0.95710 0.40220 0.64970 -0.23300
N 	N 	0.09220 0.70560 0.15150 -0.23200
N 	N 	0.69490 0.57690 0.67740 -0.23600
N 	N 	0.72680 0.72770 0.16630 -0.23600
N 	N 	0.90780 0.29440 0.84850 -0.23200
N 	N 	0.12410 0.23260 0.13940 -0.23100
N 	N 	0.55800 0.05770 0.66880 -0.24400
N 	N 	0.87590 0.76740 0.86060 -0.23100
N 	N 	0.30510 0.42310 0.32260 -0.23600
N 	N 	0.66730 0.12360 0.35970 -0.23100
O 	O 	0.46780 0.19260 0.74480 -0.43900
O 	O 	0.75720 0.96060 0.20770 -0.38100
O 	O 	0.01740 0.25210 0.72890 -0.49500
O 	O 	0.44680 0.91440 0.76970 -0.49300
O 	O 	0.37580 0.54980 0.16820 -0.39000
O 	O 	0.75770 0.60250 0.27530 -0.44900
O 	O 	0.16480 0.93170 0.73490 -0.45600
O 	O 	0.49070 0.20330 0.27810 -0.37500
O 	O 	0.55320 0.08560 0.23030 -0.49300
O 	O 	0.36960 0.40580 0.16480 -0.39300
O 	O 	0.04570 0.42550 0.27980 -0.37500
O 	O 	0.53220 0.80740 0.25520 -0.43900
O 	O 	0.97750 0.31590 0.22160 -0.45300
O 	O 	0.72370 0.92510 0.30380 -0.34400
O 	O 	0.46360 0.89730 0.18870 -0.41500
O 	O 	0.74460 0.68020 0.77140 -0.45700
O 	O 	0.24280 0.03940 0.79230 -0.38100
O 	O 	0.62420 0.45020 0.83180 -0.39000
O 	O 	0.24520 0.58180 0.23210 -0.48200
O 	O 	0.83520 0.06830 0.26510 -0.45600
O 	O 	0.63040 0.59420 0.83520 -0.39300
O 	O 	0.29510 0.16950 0.27340 -0.39000
O 	O 	0.80740 0.25170 0.26430 -0.48700
O 	O 	0.27630 0.07490 0.69620 -0.34400
O 	O 	0.46780 0.05070 0.16300 -0.36700
O 	O 	0.53640 0.10270 0.81130 -0.41500
O 	O 	0.27300 0.69330 0.29000 -0.35400
O 	O 	0.70490 0.83050 0.72660 -0.39000
O 	O 	0.47240 0.65490 0.29080 -0.36200
O 	O 	0.97440 0.88420 0.74460 -0.48400
O 	O 	0.05640 0.46950 0.18490 -0.36700
O 	O 	0.98260 0.74790 0.27110 -0.49500
O 	O 	0.24230 0.39750 0.72470 -0.44900
O 	O 	0.94360 0.53050 0.81510 -0.36700
O 	O 	0.02250 0.68410 0.77840 -0.45300
O 	O 	0.02560 0.11580 0.25540 -0.48400
O 	O 	0.25540 0.31980 0.22860 -0.45700
O 	O 	0.72700 0.30670 0.71000 -0.35400
O 	O 	0.19220 0.19260 0.74150 -0.44900
O 	O 	0.94960 0.57570 0.23990 -0.43400
O 	O 	0.05040 0.42430 0.76010 -0.43400
O 	O 	0.80780 0.80740 0.25850 -0.44900
O 	O 	0.50930 0.79670 0.72190 -0.37500
O 	O 	0.53220 0.94930 0.83700 -0.36700
O 	O 	0.95430 0.57450 0.72020 -0.37500
O 	O 	0.75480 0.41820 0.76790 -0.48200
O 	O 	0.52760 0.34510 0.70920 -0.36200
O 	O 	0.19260 0.74830 0.73570 -0.48700
