data_crystal

_cell_length_a 9.20300
_cell_length_b 11.59970
_cell_length_c 17.06300
_cell_angle_alpha 104.60100
_cell_angle_beta  90.00000
_cell_angle_gamma 113.37100

_symmetry_space_group_name_	'P 1'
_symmetry_space_group_name_H-M	'P 1'

loop_
_symmetry_equiv_pos_as_xyz
  x,y,z

loop_
_atom_site_label
_atom_site_type_symbol
_atom_site_fract_x
_atom_site_fract_y
_atom_site_fract_z
_atom_site_charge
Eu	Eu	0.82791 0.02615 0.57317 2.06300
Eu	Eu	0.80176 0.97385 0.92683 2.06200
Eu	Eu	0.17209 0.97385 0.42683 2.06200
Eu	Eu	0.19824 0.02615 0.07317 2.06100
Cu	Cu	0.59057 0.32504 0.63067 0.84900
Cu	Cu	0.26553 0.67496 0.86933 0.84800
Cu	Cu	0.40943 0.67496 0.36933 0.84900
Cu	Cu	0.73447 0.32504 0.13067 0.84800
H 	H 	0.00700 0.30040 0.19320 -0.01600
H 	H 	0.58650 0.22460 0.26400 0.01400
H 	H 	0.63700 0.12860 0.35670 0.04900
H 	H 	0.06540 0.19760 0.27990 0.05600
H 	H 	0.41760 0.43940 0.37600 -0.00900
H 	H 	0.22060 0.64660 0.50950 0.00700
H 	H 	0.31340 0.27920 0.44080 0.04000
H 	H 	0.10910 0.49040 0.57790 0.04900
H 	H 	0.70660 0.69960 0.30680 -0.01400
H 	H 	0.36190 0.77540 0.23600 0.01400
H 	H 	0.50840 0.87140 0.14330 0.05000
H 	H 	0.86780 0.80240 0.22010 0.05500
H 	H 	0.97820 0.56060 0.12400 -0.00400
H 	H 	0.57400 0.35340 0.99050 0.00900
H 	H 	0.03420 0.72080 0.05920 0.02900
H 	H 	0.61870 0.50960 0.92210 0.04600
H 	H 	0.99300 0.69960 0.80680 -0.01600
H 	H 	0.41350 0.77540 0.73600 0.01400
H 	H 	0.36300 0.87140 0.64330 0.04900
H 	H 	0.93460 0.80240 0.72010 0.05600
H 	H 	0.58240 0.56060 0.62400 -0.00900
H 	H 	0.77940 0.35340 0.49050 0.00700
H 	H 	0.68660 0.72080 0.55920 0.04000
H 	H 	0.89090 0.50960 0.42210 0.04900
H 	H 	0.29340 0.30040 0.69320 -0.01400
H 	H 	0.63810 0.22460 0.76400 0.01400
H 	H 	0.49160 0.12860 0.85670 0.05000
H 	H 	0.13220 0.19760 0.77990 0.05500
H 	H 	0.02180 0.43940 0.87600 -0.00400
H 	H 	0.42600 0.64660 0.00950 0.00900
H 	H 	0.96580 0.27920 0.94080 0.02900
H 	H 	0.38130 0.49040 0.07790 0.04600
C 	C 	0.85519 0.14758 0.32614 -0.09200
C 	C 	0.71893 0.92566 0.73196 0.26000
C 	C 	0.10512 0.25004 0.54920 0.37900
C 	C 	0.92970 0.26200 0.22490 0.03400
C 	C 	0.68400 0.21860 0.26710 0.02100
C 	C 	0.19333 0.36406 0.51450 -0.08700
C 	C 	0.71260 0.15960 0.32240 -0.03200
C 	C 	0.51965 0.07170 0.52318 0.26800
C 	C 	0.88844 0.07708 0.38226 0.45200
C 	C 	0.96658 0.20156 0.27750 -0.04100
C 	C 	0.35230 0.44920 0.41640 0.02800
C 	C 	0.23710 0.57020 0.49430 0.03700
C 	C 	0.28992 0.35224 0.45500 -0.04100
C 	C 	0.16980 0.47680 0.53590 -0.05100
C 	C 	0.70761 0.85242 0.17386 -0.09100
C 	C 	0.79327 0.07434 0.76804 0.25900
C 	C 	0.85508 0.74996 0.95080 0.38400
C 	C 	0.66770 0.73800 0.27510 0.03200
C 	C 	0.46540 0.78140 0.23290 0.02200
C 	C 	0.82927 0.63594 0.98550 -0.10300
C 	C 	0.55300 0.84040 0.17760 -0.03100
C 	C 	0.44795 0.92830 0.97682 0.26600
C 	C 	0.81136 0.92292 0.11774 0.45200
C 	C 	0.76502 0.79844 0.22250 -0.03600
C 	C 	0.90310 0.55080 0.08360 0.01700
C 	C 	0.66690 0.42980 0.00570 0.03100
C 	C 	0.93768 0.64776 0.04500 -0.01800
C 	C 	0.69300 0.52320 0.96410 -0.04300
C 	C 	0.14481 0.85242 0.67386 -0.09200
C 	C 	0.28107 0.07434 0.26804 0.26000
C 	C 	0.89488 0.74996 0.45080 0.37900
C 	C 	0.07030 0.73800 0.77510 0.03400
C 	C 	0.31600 0.78140 0.73290 0.02100
C 	C 	0.80667 0.63594 0.48550 -0.08700
C 	C 	0.28740 0.84040 0.67760 -0.03200
C 	C 	0.48035 0.92830 0.47682 0.26800
C 	C 	0.11156 0.92292 0.61774 0.45200
C 	C 	0.03342 0.79844 0.72250 -0.04100
C 	C 	0.64770 0.55080 0.58360 0.02800
C 	C 	0.76290 0.42980 0.50570 0.03700
C 	C 	0.71008 0.64776 0.54500 -0.04100
C 	C 	0.83020 0.52320 0.46410 -0.05100
C 	C 	0.29239 0.14758 0.82614 -0.09100
C 	C 	0.20673 0.92566 0.23196 0.25900
C 	C 	0.14492 0.25004 0.04920 0.38400
C 	C 	0.33230 0.26200 0.72490 0.03200
C 	C 	0.53460 0.21860 0.76710 0.02200
C 	C 	0.17073 0.36406 0.01450 -0.10300
C 	C 	0.44700 0.15960 0.82240 -0.03100
C 	C 	0.55205 0.07170 0.02318 0.26600
C 	C 	0.18864 0.07708 0.88226 0.45200
C 	C 	0.23498 0.20156 0.77750 -0.03600
C 	C 	0.09690 0.44920 0.91640 0.01700
C 	C 	0.33310 0.57020 0.99430 0.03100
C 	C 	0.06232 0.35224 0.95500 -0.01800
C 	C 	0.30700 0.47680 0.03590 -0.04300
N 	N 	0.78966 0.26772 0.21760 -0.24300
N 	N 	0.32400 0.55560 0.43380 -0.24500
N 	N 	0.52194 0.73228 0.28240 -0.24300
N 	N 	0.76840 0.44440 0.06620 -0.24200
N 	N 	0.21034 0.73228 0.78240 -0.24300
N 	N 	0.67600 0.44440 0.56620 -0.24500
N 	N 	0.47806 0.26772 0.71760 -0.24300
N 	N 	0.23160 0.55560 0.93380 -0.24200
O 	O 	0.63733 0.12706 0.57714 -0.48200
O 	O 	0.67769 0.88438 0.65675 -0.41100
O 	O 	0.81468 0.07336 0.44378 -0.49200
O 	O 	0.12593 0.14646 0.52466 -0.54600
O 	O 	0.43287 0.12194 0.50409 -0.46100
O 	O 	0.99001 0.03062 0.36318 -0.50300
O 	O 	0.70236 0.85872 0.78148 -0.40700
O 	O 	0.00673 0.26066 0.59778 -0.44800
O 	O 	0.51027 0.87294 0.92286 -0.48200
O 	O 	0.79331 0.11562 0.84325 -0.41100
O 	O 	0.74132 0.92664 0.05622 -0.48700
O 	O 	0.97947 0.85354 0.97534 -0.55200
O 	O 	0.31093 0.87806 0.99591 -0.46300
O 	O 	0.95939 0.96938 0.13682 -0.49500
O 	O 	0.84364 0.14128 0.71852 -0.40800
O 	O 	0.74607 0.73934 0.90222 -0.45100
O 	O 	0.36267 0.87294 0.42286 -0.48200
O 	O 	0.32231 0.11562 0.34325 -0.41100
O 	O 	0.18532 0.92664 0.55622 -0.49200
O 	O 	0.87407 0.85354 0.47534 -0.54600
O 	O 	0.56713 0.87806 0.49591 -0.46100
O 	O 	0.00999 0.96938 0.63682 -0.50300
O 	O 	0.29764 0.14128 0.21852 -0.40700
O 	O 	0.99327 0.73934 0.40222 -0.44800
O 	O 	0.48973 0.12706 0.07714 -0.48200
O 	O 	0.20669 0.88438 0.15675 -0.41100
O 	O 	0.25868 0.07336 0.94378 -0.48700
O 	O 	0.02053 0.14646 0.02466 -0.55200
O 	O 	0.68907 0.12194 0.00409 -0.46300
O 	O 	0.04061 0.03062 0.86318 -0.49500
O 	O 	0.15636 0.85872 0.28148 -0.40800
O 	O 	0.25393 0.26066 0.09778 -0.45100
