data_crystal

_cell_length_a 21.14800
_cell_length_b 9.27710
_cell_length_c 17.26400
_cell_angle_alpha 90.00000
_cell_angle_beta  106.40400
_cell_angle_gamma 90.00000

_symmetry_space_group_name_	'P 1'
_symmetry_space_group_name_H-M	'P 1'

loop_
_symmetry_equiv_pos_as_xyz
  x,y,z

loop_
_atom_site_label
_atom_site_type_symbol
_atom_site_fract_x
_atom_site_fract_y
_atom_site_fract_z
_atom_site_charge
Nd	Nd	0.98629 0.68394 0.42683 2.35500
N 	N 	0.72266 0.45380 0.56876 -0.25100
N 	N 	0.86587 0.84530 0.78122 -0.24900
C 	C 	0.91870 0.86700 0.67690 -0.01900
H 	H 	0.93400 0.92680 0.64290 0.04000
C 	C 	0.92481 0.72000 0.67308 -0.11300
C 	C 	0.89921 0.63620 0.72260 -0.02200
H 	H 	0.90190 0.53630 0.72100 0.04300
C 	C 	0.86946 0.70260 0.77460 0.01800
H 	H 	0.85100 0.64510 0.80670 -0.02000
C 	C 	0.88960 0.92430 0.73190 0.01200
H 	H 	0.88650 0.02410 0.73470 0.01400
C 	C 	0.77606 0.37100 0.58360 0.01300
H 	H 	0.78190 0.30030 0.62310 -0.00700
C 	C 	0.71400 0.54860 0.50930 0.03200
H 	H 	0.67540 0.60280 0.49540 0.00600
C 	C 	0.75993 0.57030 0.46700 -0.04200
H 	H 	0.75250 0.63940 0.42640 0.04500
C 	C 	0.82301 0.38520 0.54300 -0.02000
H 	H 	0.85930 0.32380 0.55480 0.02100
C 	C 	0.03775 0.74380 0.26829 0.26400
C 	C 	0.96370 0.01600 0.47647 0.27400
Cu	Cu	0.66642 0.44600 0.64030 0.43400
Cu	Cu	0.83950 0.10040 0.37620 0.46800
O 	O 	0.05847 0.76520 0.34269 -0.43900
O 	O 	0.93545 0.92830 0.42293 -0.51600
O 	O 	0.07140 0.72640 0.21968 -0.44100
O 	O 	0.93876 0.12810 0.49559 -0.50400
C 	C 	0.81652 0.48910 0.48538 -0.10600
C 	C 	0.87218 0.52170 0.44922 0.39300
O 	O 	0.86559 0.62370 0.40065 -0.48100
O 	O 	0.92493 0.45020 0.47276 -0.60600
C 	C 	0.95934 0.65110 0.61714 0.48300
O 	O 	0.96137 0.72270 0.55645 -0.53200
O 	O 	0.98236 0.52740 0.63561 -0.54800
Nd	Nd	0.48629 0.18394 0.42683 2.34700
N 	N 	0.22266 0.95380 0.56876 -0.25100
N 	N 	0.36587 0.34530 0.78122 -0.24900
C 	C 	0.41870 0.36700 0.67690 -0.02300
H 	H 	0.43400 0.42680 0.64290 0.04200
C 	C 	0.42481 0.22000 0.67308 -0.11000
C 	C 	0.39921 0.13620 0.72260 -0.02400
H 	H 	0.40190 0.03630 0.72100 0.04500
C 	C 	0.36946 0.20260 0.77460 0.02000
H 	H 	0.35100 0.14510 0.80670 -0.01900
C 	C 	0.38960 0.42430 0.73190 0.02000
H 	H 	0.38650 0.52410 0.73470 0.00900
C 	C 	0.27606 0.87100 0.58360 0.01400
H 	H 	0.28190 0.80030 0.62310 -0.00800
C 	C 	0.21400 0.04860 0.50930 0.03400
H 	H 	0.17540 0.10280 0.49540 0.00500
C 	C 	0.25993 0.07030 0.46700 -0.04400
H 	H 	0.25250 0.13940 0.42640 0.04600
C 	C 	0.32301 0.88520 0.54300 -0.02200
H 	H 	0.35930 0.82380 0.55480 0.02100
C 	C 	0.53775 0.24380 0.26829 0.26600
C 	C 	0.46370 0.51600 0.47647 0.27500
Cu	Cu	0.16642 0.94600 0.64030 0.43300
Cu	Cu	0.33950 0.60040 0.37620 0.46800
O 	O 	0.55847 0.26520 0.34269 -0.43900
O 	O 	0.43545 0.42830 0.42293 -0.51700
O 	O 	0.57140 0.22640 0.21968 -0.44100
O 	O 	0.43876 0.62810 0.49559 -0.50300
C 	C 	0.31652 0.98910 0.48538 -0.10400
C 	C 	0.37218 0.02170 0.44922 0.39100
O 	O 	0.36559 0.12370 0.40065 -0.48100
O 	O 	0.42493 0.95020 0.47276 -0.60500
C 	C 	0.45934 0.15110 0.61714 0.48100
O 	O 	0.46137 0.22270 0.55645 -0.53100
O 	O 	0.48236 0.02740 0.63561 -0.54600
Nd	Nd	0.01371 0.68394 0.07317 2.34800
N 	N 	0.27734 0.45380 0.93124 -0.25000
N 	N 	0.13413 0.84530 0.71878 -0.24800
C 	C 	0.08130 0.86700 0.82310 -0.01800
H 	H 	0.06600 0.92680 0.85710 0.04000
C 	C 	0.07519 0.72000 0.82692 -0.11200
C 	C 	0.10079 0.63620 0.77740 -0.02200
H 	H 	0.09810 0.53630 0.77900 0.04400
C 	C 	0.13054 0.70260 0.72540 0.01900
H 	H 	0.14900 0.64510 0.69330 -0.02000
C 	C 	0.11040 0.92430 0.76810 0.01100
H 	H 	0.11350 0.02410 0.76530 0.01600
C 	C 	0.22394 0.37100 0.91640 0.01100
H 	H 	0.21810 0.30030 0.87690 -0.00600
C 	C 	0.28600 0.54860 0.99070 0.03400
H 	H 	0.32460 0.60280 0.00460 0.00400
C 	C 	0.24007 0.57030 0.03300 -0.04200
H 	H 	0.24750 0.63940 0.07360 0.04600
C 	C 	0.17699 0.38520 0.95700 -0.01300
H 	H 	0.14070 0.32380 0.94520 0.02000
C 	C 	0.96225 0.74380 0.23171 0.26900
C 	C 	0.03630 0.01600 0.02353 0.26800
Cu	Cu	0.33358 0.44600 0.85970 0.43400
Cu	Cu	0.16050 0.10040 0.12380 0.46800
O 	O 	0.94153 0.76520 0.15731 -0.43700
O 	O 	0.06455 0.92830 0.07707 -0.51100
O 	O 	0.92860 0.72640 0.28032 -0.44200
O 	O 	0.06124 0.12810 0.00441 -0.50500
C 	C 	0.18348 0.48910 0.01462 -0.11200
C 	C 	0.12782 0.52170 0.05078 0.39400
O 	O 	0.13441 0.62370 0.09935 -0.48100
O 	O 	0.07507 0.45020 0.02724 -0.60800
C 	C 	0.04066 0.65110 0.88286 0.48200
O 	O 	0.03863 0.72270 0.94355 -0.52800
O 	O 	0.01764 0.52740 0.86439 -0.54400
Nd	Nd	0.51371 0.18394 0.07317 2.33100
N 	N 	0.77734 0.95380 0.93124 -0.26400
N 	N 	0.63413 0.34530 0.71878 -0.25000
C 	C 	0.58130 0.36700 0.82310 -0.02400
H 	H 	0.56600 0.42680 0.85710 0.04200
C 	C 	0.57519 0.22000 0.82692 -0.10800
C 	C 	0.60079 0.13620 0.77740 -0.02500
H 	H 	0.59810 0.03630 0.77900 0.04600
C 	C 	0.63054 0.20260 0.72540 0.02100
H 	H 	0.64900 0.14510 0.69330 -0.02000
C 	C 	0.61040 0.42430 0.76810 0.02100
H 	H 	0.61350 0.52410 0.76530 0.00900
C 	C 	0.72394 0.87100 0.91640 0.03300
H 	H 	0.71810 0.80030 0.87690 -0.01500
C 	C 	0.78600 0.04860 0.99070 0.06700
H 	H 	0.82460 0.10280 0.00460 -0.00800
C 	C 	0.74007 0.07030 0.03300 -0.08900
H 	H 	0.74750 0.13940 0.07360 0.06100
C 	C 	0.67699 0.88520 0.95700 -0.06300
H 	H 	0.64070 0.82380 0.94520 0.03400
C 	C 	0.46225 0.24380 0.23171 0.26600
C 	C 	0.53630 0.51600 0.02353 0.27400
Cu	Cu	0.83358 0.94600 0.85970 0.43200
Cu	Cu	0.66050 0.60040 0.12380 0.46800
O 	O 	0.44153 0.26520 0.15731 -0.44000
O 	O 	0.56455 0.42830 0.07707 -0.51600
O 	O 	0.42860 0.22640 0.28032 -0.44200
O 	O 	0.56124 0.62810 0.00441 -0.50100
C 	C 	0.68348 0.98910 0.01462 -0.05700
C 	C 	0.62782 0.02170 0.05078 0.36400
O 	O 	0.63441 0.12370 0.09935 -0.47400
O 	O 	0.57507 0.95020 0.02724 -0.59100
C 	C 	0.54066 0.15110 0.88286 0.47900
O 	O 	0.53863 0.22270 0.94355 -0.52800
O 	O 	0.51764 0.02740 0.86439 -0.54300
Nd	Nd	0.01371 0.31606 0.57317 2.35600
N 	N 	0.27734 0.54620 0.43124 -0.25000
N 	N 	0.13413 0.15470 0.21878 -0.24800
C 	C 	0.08130 0.13300 0.32310 -0.01800
H 	H 	0.06600 0.07320 0.35710 0.04000
C 	C 	0.07519 0.28000 0.32692 -0.11300
C 	C 	0.10079 0.36380 0.27740 -0.02200
H 	H 	0.09810 0.46370 0.27900 0.04300
C 	C 	0.13054 0.29740 0.22540 0.01800
H 	H 	0.14900 0.35490 0.19330 -0.02000
C 	C 	0.11040 0.07570 0.26810 0.01200
H 	H 	0.11350 0.97590 0.26530 0.01400
C 	C 	0.22394 0.62900 0.41640 0.01300
H 	H 	0.21810 0.69970 0.37690 -0.00700
C 	C 	0.28600 0.45140 0.49070 0.03200
H 	H 	0.32460 0.39720 0.50460 0.00600
C 	C 	0.24007 0.42970 0.53300 -0.04200
H 	H 	0.24750 0.36060 0.57360 0.04500
C 	C 	0.17699 0.61480 0.45700 -0.02000
H 	H 	0.14070 0.67620 0.44520 0.02100
C 	C 	0.96225 0.25620 0.73171 0.26400
C 	C 	0.03630 0.98400 0.52353 0.27400
Cu	Cu	0.33358 0.55400 0.35970 0.43400
Cu	Cu	0.16050 0.89960 0.62380 0.46800
O 	O 	0.94153 0.23480 0.65731 -0.43900
O 	O 	0.06455 0.07170 0.57707 -0.51600
O 	O 	0.92860 0.27360 0.78032 -0.44100
O 	O 	0.06124 0.87190 0.50441 -0.50400
C 	C 	0.18348 0.51090 0.51462 -0.10600
C 	C 	0.12782 0.47830 0.55078 0.39300
O 	O 	0.13441 0.37630 0.59935 -0.48100
O 	O 	0.07507 0.54980 0.52724 -0.60600
C 	C 	0.04066 0.34890 0.38286 0.48300
O 	O 	0.03863 0.27730 0.44355 -0.53200
O 	O 	0.01764 0.47260 0.36439 -0.54800
Nd	Nd	0.51371 0.81606 0.57317 2.34700
N 	N 	0.77734 0.04620 0.43124 -0.25100
N 	N 	0.63413 0.65470 0.21878 -0.24900
C 	C 	0.58130 0.63300 0.32310 -0.02300
H 	H 	0.56600 0.57320 0.35710 0.04200
C 	C 	0.57519 0.78000 0.32692 -0.11000
C 	C 	0.60079 0.86380 0.27740 -0.02400
H 	H 	0.59810 0.96370 0.27900 0.04500
C 	C 	0.63054 0.79740 0.22540 0.02000
H 	H 	0.64900 0.85490 0.19330 -0.01900
C 	C 	0.61040 0.57570 0.26810 0.02000
H 	H 	0.61350 0.47590 0.26530 0.00900
C 	C 	0.72394 0.12900 0.41640 0.01400
H 	H 	0.71810 0.19970 0.37690 -0.00800
C 	C 	0.78600 0.95140 0.49070 0.03400
H 	H 	0.82460 0.89720 0.50460 0.00500
C 	C 	0.74007 0.92970 0.53300 -0.04400
H 	H 	0.74750 0.86060 0.57360 0.04600
C 	C 	0.67699 0.11480 0.45700 -0.02200
H 	H 	0.64070 0.17620 0.44520 0.02100
C 	C 	0.46225 0.75620 0.73171 0.26600
C 	C 	0.53630 0.48400 0.52353 0.27500
Cu	Cu	0.83358 0.05400 0.35970 0.43300
Cu	Cu	0.66050 0.39960 0.62380 0.46800
O 	O 	0.44153 0.73480 0.65731 -0.43900
O 	O 	0.56455 0.57170 0.57707 -0.51700
O 	O 	0.42860 0.77360 0.78032 -0.44100
O 	O 	0.56124 0.37190 0.50441 -0.50300
C 	C 	0.68348 0.01090 0.51462 -0.10400
C 	C 	0.62782 0.97830 0.55078 0.39100
O 	O 	0.63441 0.87630 0.59935 -0.48100
O 	O 	0.57507 0.04980 0.52724 -0.60500
C 	C 	0.54066 0.84890 0.38286 0.48100
O 	O 	0.53863 0.77730 0.44355 -0.53100
O 	O 	0.51764 0.97260 0.36439 -0.54600
Nd	Nd	0.98629 0.31606 0.92683 2.34800
N 	N 	0.72266 0.54620 0.06876 -0.25000
N 	N 	0.86587 0.15470 0.28122 -0.24800
C 	C 	0.91870 0.13300 0.17690 -0.01800
H 	H 	0.93400 0.07320 0.14290 0.04000
C 	C 	0.92481 0.28000 0.17308 -0.11200
C 	C 	0.89921 0.36380 0.22260 -0.02200
H 	H 	0.90190 0.46370 0.22100 0.04400
C 	C 	0.86946 0.29740 0.27460 0.01900
H 	H 	0.85100 0.35490 0.30670 -0.02000
C 	C 	0.88960 0.07570 0.23190 0.01100
H 	H 	0.88650 0.97590 0.23470 0.01600
C 	C 	0.77606 0.62900 0.08360 0.01100
H 	H 	0.78190 0.69970 0.12310 -0.00600
C 	C 	0.71400 0.45140 0.00930 0.03400
H 	H 	0.67540 0.39720 0.99540 0.00400
C 	C 	0.75993 0.42970 0.96700 -0.04200
H 	H 	0.75250 0.36060 0.92640 0.04600
C 	C 	0.82301 0.61480 0.04300 -0.01300
H 	H 	0.85930 0.67620 0.05480 0.02000
C 	C 	0.03775 0.25620 0.76829 0.26900
C 	C 	0.96370 0.98400 0.97647 0.26800
Cu	Cu	0.66642 0.55400 0.14030 0.43400
Cu	Cu	0.83950 0.89960 0.87620 0.46800
O 	O 	0.05847 0.23480 0.84269 -0.43700
O 	O 	0.93545 0.07170 0.92293 -0.51100
O 	O 	0.07140 0.27360 0.71968 -0.44200
O 	O 	0.93876 0.87190 0.99559 -0.50500
C 	C 	0.81652 0.51090 0.98538 -0.11200
C 	C 	0.87218 0.47830 0.94922 0.39400
O 	O 	0.86559 0.37630 0.90065 -0.48100
O 	O 	0.92493 0.54980 0.97276 -0.60800
C 	C 	0.95934 0.34890 0.11714 0.48200
O 	O 	0.96137 0.27730 0.05645 -0.52800
O 	O 	0.98236 0.47260 0.13561 -0.54400
Nd	Nd	0.48629 0.81606 0.92683 2.33100
N 	N 	0.22266 0.04620 0.06876 -0.26400
N 	N 	0.36587 0.65470 0.28122 -0.25000
C 	C 	0.41870 0.63300 0.17690 -0.02400
H 	H 	0.43400 0.57320 0.14290 0.04200
C 	C 	0.42481 0.78000 0.17308 -0.10800
C 	C 	0.39921 0.86380 0.22260 -0.02500
H 	H 	0.40190 0.96370 0.22100 0.04600
C 	C 	0.36946 0.79740 0.27460 0.02100
H 	H 	0.35100 0.85490 0.30670 -0.02000
C 	C 	0.38960 0.57570 0.23190 0.02100
H 	H 	0.38650 0.47590 0.23470 0.00900
C 	C 	0.27606 0.12900 0.08360 0.03300
H 	H 	0.28190 0.19970 0.12310 -0.01500
C 	C 	0.21400 0.95140 0.00930 0.06700
H 	H 	0.17540 0.89720 0.99540 -0.00800
C 	C 	0.25993 0.92970 0.96700 -0.08900
H 	H 	0.25250 0.86060 0.92640 0.06100
C 	C 	0.32301 0.11480 0.04300 -0.06300
H 	H 	0.35930 0.17620 0.05480 0.03400
C 	C 	0.53775 0.75620 0.76829 0.26600
C 	C 	0.46370 0.48400 0.97647 0.27400
Cu	Cu	0.16642 0.05400 0.14030 0.43200
Cu	Cu	0.33950 0.39960 0.87620 0.46800
O 	O 	0.55847 0.73480 0.84269 -0.44000
O 	O 	0.43545 0.57170 0.92293 -0.51600
O 	O 	0.57140 0.77360 0.71968 -0.44200
O 	O 	0.43876 0.37190 0.99559 -0.50100
C 	C 	0.31652 0.01090 0.98538 -0.05700
C 	C 	0.37218 0.97830 0.94922 0.36400
O 	O 	0.36559 0.87630 0.90065 -0.47400
O 	O 	0.42493 0.04980 0.97276 -0.59100
C 	C 	0.45934 0.84890 0.11714 0.47900
O 	O 	0.46137 0.77730 0.05645 -0.52800
O 	O 	0.48236 0.97260 0.13561 -0.54300
