data_crystal

_cell_length_a 18.09730
_cell_length_b 27.91780
_cell_length_c 28.45800
_cell_angle_alpha 61.68200
_cell_angle_beta  85.23000
_cell_angle_gamma 69.21400

_symmetry_space_group_name_	'P 1'
_symmetry_space_group_name_H-M	'P 1'

loop_
_symmetry_equiv_pos_as_xyz
  x,y,z

loop_
_atom_site_label
_atom_site_type_symbol
_atom_site_fract_x
_atom_site_fract_y
_atom_site_fract_z
_atom_site_charge
Sb	Sb	0.66976 0.29691 0.00279 0.52300
Sb	Sb	0.68038 0.28720 0.13497 0.52800
Sb	Sb	0.59422 0.19794 0.24432 0.52100
Sb	Sb	0.49484 0.11727 0.22198 0.53000
Sb	Sb	0.48458 0.12464 0.09264 0.52800
Sb	Sb	0.56909 0.21412 0.98032 0.53400
Sb	Sb	0.55663 0.42025 0.02129 0.43400
Sb	Sb	0.37964 0.24146 0.24076 0.52600
Sb	Sb	0.35485 0.25657 0.98069 0.53000
Sb	Sb	0.33820 0.46508 0.01688 0.43700
Sb	Sb	0.25267 0.37534 0.12780 0.50600
Sb	Sb	0.24014 0.38307 0.99795 0.53000
Cl	Cl	0.35696 0.11303 0.16817 -0.45500
O 	O 	0.58560 0.26530 0.00570 -0.47400
O 	O 	0.67120 0.26130 0.08150 -0.47000
O 	O 	0.59780 0.25380 0.16800 -0.49000
O 	O 	0.57770 0.15130 0.21350 -0.45400
O 	O 	0.49640 0.15230 0.14290 -0.49200
O 	O 	0.56290 0.16310 0.05630 -0.44900
O 	O 	0.57570 0.36580 0.99200 -0.45500
O 	O 	0.58570 0.36110 0.09810 -0.46500
O 	O 	0.48260 0.25410 0.22910 -0.45400
O 	O 	0.40550 0.19170 0.20500 -0.47300
O 	O 	0.39260 0.19850 0.05740 -0.46900
O 	O 	0.45700 0.26970 0.96460 -0.44000
O 	O 	0.45180 0.41010 0.03550 -0.50000
O 	O 	0.35080 0.30570 0.16510 -0.49300
O 	O 	0.33440 0.31430 0.00670 -0.48600
O 	O 	0.32390 0.41670 0.98810 -0.45200
O 	O 	0.33010 0.41340 0.09250 -0.47200
O 	O 	0.25880 0.34440 0.07730 -0.46900
Sb	Sb	0.07059 0.30556 0.53653 0.50400
Sb	Sb	0.87558 0.25464 0.73484 0.53700
Sb	Sb	0.73352 0.23833 0.66404 0.56100
Sb	Sb	0.75675 0.26000 0.52858 0.68700
Sb	Sb	0.94736 0.43377 0.41989 0.51600
Sb	Sb	0.77550 0.54352 0.44093 0.51100
Sb	Sb	0.88076 0.39835 0.68815 0.50700
Sb	Sb	0.74839 0.52692 0.57410 0.48600
Sb	Sb	0.60789 0.51109 0.50631 0.47600
Sb	Sb	0.92849 0.29440 0.46264 0.52300
Sb	Sb	0.59758 0.36395 0.55309 0.45900
Sb	Sb	0.04434 0.28946 0.66938 0.54400
Cl	Cl	0.82743 0.37068 0.56193 -0.93400
Cl	Cl	0.92657 0.50180 0.61130 -0.52800
Cl	Cl	0.12006 0.37220 0.58776 -0.50200
O 	O 	0.98800 0.27820 0.52730 -0.53400
O 	O 	0.00810 0.30850 0.59680 -0.49100
O 	O 	0.96510 0.24920 0.69020 -0.45200
O 	O 	0.81440 0.26850 0.67060 -0.48600
O 	O 	0.79230 0.23850 0.60180 -0.43800
O 	O 	0.83460 0.30060 0.50410 -0.48200
O 	O 	0.68410 0.34080 0.51280 -0.47800
O 	O 	0.88630 0.38170 0.43300 -0.46700
O 	O 	0.86680 0.47060 0.45680 -0.47100
O 	O 	0.63480 0.42490 0.54870 -0.48500
O 	O 	0.70430 0.49700 0.46970 -0.47900
O 	O 	0.00380 0.38810 0.49510 -0.45100
O 	O 	0.96390 0.36900 0.64920 -0.47000
O 	O 	0.81420 0.44210 0.61770 -0.48300
O 	O 	0.81120 0.52030 0.51550 -0.44700
O 	O 	0.83120 0.34040 0.70010 -0.46900
O 	O 	0.66460 0.32080 0.62320 -0.47300
O 	O 	0.66920 0.49370 0.57070 -0.45900
O 	O 	0.74680 0.49990 0.37720 -0.22700
O 	O 	0.85380 0.50510 0.33250 -0.01800
O 	O 	0.63740 0.59840 0.10600 -0.21000
O 	O 	0.71790 0.64370 0.10540 -0.20100
C 	C 	0.77970 0.51880 0.33500 0.05600
C 	C 	0.73270 0.53770 0.28330 -0.01900
C 	C 	0.66620 0.52860 0.27490 -0.01600
H 	H 	0.64040 0.50760 0.30350 0.02900
C 	C 	0.63940 0.55280 0.22110 0.03700
H 	H 	0.59440 0.55050 0.20850 0.08900
C 	C 	0.68810 0.58030 0.18900 -0.04200
C 	C 	0.68030 0.61020 0.12770 0.17600
S 	S 	0.76340 0.57760 0.22300 -0.00400
Pr	Pr	0.93903 0.43384 0.55135 2.07400
Cl	Cl	0.46883 0.28184 0.08758 -0.94800
Cl	Cl	0.74007 0.16052 0.04668 -0.46000
Cl	Cl	0.75540 0.15378 0.19402 -0.46900
Cl	Cl	0.20249 0.26298 0.05276 -0.48400
Cl	Cl	0.21949 0.25441 0.18988 -0.47200
Cl	Cl	0.44092 0.48112 0.91250 -0.51300
Cl	Cl	0.90700 0.14280 0.70820 -0.82600
Cl	Cl	0.56930 0.46741 0.43138 -0.53400
Cl	Cl	0.68791 0.29548 0.74268 -0.48500
S 	S 	0.74010 0.91808 0.27322 0.08300
O 	O 	0.67300 0.07990 0.16140 -0.47600
O 	O 	0.60080 0.02440 0.20350 -0.30000
O 	O 	0.94170 0.82370 0.36510 -0.56300
O 	O 	0.85240 0.79750 0.34270 -0.31600
C 	C 	0.66350 0.03410 0.19710 0.38100
C 	C 	0.73520 0.98830 0.23440 -0.09900
C 	C 	0.80200 0.99510 0.24510 -0.01300
H 	H 	0.81040 0.03110 0.22800 0.07800
C 	C 	0.85680 0.94280 0.28420 0.01600
H 	H 	0.90580 0.94010 0.29690 0.05500
C 	C 	0.83360 0.89730 0.30170 -0.12200
C 	C 	0.87870 0.83490 0.33940 0.39200
O 	O 	0.37690 0.37950 0.20380 -0.48900
O 	O 	0.28610 0.34260 0.24990 -0.30400
O 	O 	0.29340 0.55860 0.31180 -0.47500
O 	O 	0.40280 0.53840 0.27230 -0.26400
S 	S 	0.36850 0.45873 0.24318 0.07200
C 	C 	0.32320 0.37740 0.23210 0.39000
C 	C 	0.30810 0.41980 0.25440 -0.10000
C 	C 	0.24770 0.43200 0.28480 -0.01600
H 	H 	0.20850 0.41460 0.29520 0.04700
C 	C 	0.25160 0.47330 0.29820 -0.00900
H 	H 	0.21470 0.48720 0.31870 0.02900
C 	C 	0.31380 0.49190 0.27890 -0.10300
C 	C 	0.33570 0.53580 0.28660 0.37000
S 	S 	0.71532 0.30544 0.31360 0.10600
O 	O 	0.54720 0.35280 0.20620 -0.47700
O 	O 	0.66500 0.28360 0.23170 -0.31900
O 	O 	0.80250 0.29910 0.40300 -0.26600
O 	O 	0.72700 0.38610 0.39260 -0.48100
C 	C 	0.61310 0.32570 0.23300 0.40000
C 	C 	0.63150 0.34660 0.26820 -0.11500
C 	C 	0.59040 0.39630 0.27080 0.00800
H 	H 	0.54260 0.42480 0.24880 0.05200
C 	C 	0.62610 0.40150 0.30970 -0.00500
H 	H 	0.60450 0.43350 0.31680 0.05300
C 	C 	0.69410 0.35620 0.33560 -0.10400
C 	C 	0.74560 0.34510 0.38010 0.36600
S 	S 	0.10030 0.03299 0.58346 0.14400
O 	O 	0.94520 0.18340 0.56250 2.10000
O 	O 	0.97430 0.09150 0.62840 -0.29800
O 	O 	0.24120 0.99100 0.48700 -0.19700
O 	O 	0.23330 0.94100 0.57500 -0.20500
C 	C 	0.98360 0.12930 0.58370 0.89800
C 	C 	0.04750 0.10670 0.55220 -0.17900
C 	C 	0.07100 0.13440 0.50340 0.08900
H 	H 	0.04860 0.17520 0.48020 0.02000
C 	C 	0.13230 0.09560 0.49090 -0.05200
H 	H 	0.15590 0.10750 0.45810 0.07500
C 	C 	0.15330 0.04160 0.52890 -0.04100
C 	C 	0.21750 0.98670 0.53050 0.29200
Cl	Cl	0.55350 0.34800 0.89140 -0.46900
Pr	Pr	0.62132 0.18149 0.12105 2.08200
Pr	Pr	0.33651 0.24077 0.11631 2.07800
Pr	Pr	0.45215 0.35783 0.97138 2.08800
Pr	Pr	0.46534 0.34888 0.14492 2.06600
Pr	Pr	0.92396 0.24355 0.61045 2.03200
Pr	Pr	0.74863 0.41157 0.45640 2.07800
Pr	Pr	0.71139 0.38783 0.63826 2.06200
O 	O 	0.92100 0.14870 0.68240 0.35300
S 	S 	0.78540 0.55550 0.22200 0.05600
O 	O 	0.74500 0.49400 0.37320 -0.16400
O 	O 	0.84330 0.52320 0.33280 -0.23600
O 	O 	0.62440 0.61350 0.10750 -0.21700
O 	O 	0.75460 0.59680 0.10340 -0.19700
C 	C 	0.78610 0.50670 0.33440 0.18800
C 	C 	0.73790 0.53810 0.27940 -0.02100
C 	C 	0.66040 0.54070 0.27790 -0.02100
H 	H 	0.62750 0.53230 0.30630 0.03800
C 	C 	0.64280 0.55880 0.22400 -0.02700
H 	H 	0.59190 0.56430 0.21140 -0.03200
C 	C 	0.69980 0.56880 0.18900 -0.01400
C 	C 	0.69400 0.59480 0.12750 0.17900
Cl	Cl	0.92340 0.17230 0.55620 -3.34400
Sb	Sb	0.33024 0.70309 0.99721 0.52700
Sb	Sb	0.31962 0.71280 0.86503 0.53200
Sb	Sb	0.40578 0.80206 0.75568 0.52200
Sb	Sb	0.50516 0.88273 0.77802 0.53000
Sb	Sb	0.51542 0.87536 0.90736 0.52900
Sb	Sb	0.43091 0.78588 0.01968 0.53500
Sb	Sb	0.44337 0.57975 0.97871 0.43500
Sb	Sb	0.62036 0.75854 0.75924 0.52400
Sb	Sb	0.64515 0.74343 0.01931 0.52800
Sb	Sb	0.66180 0.53492 0.98312 0.43500
Sb	Sb	0.74733 0.62466 0.87220 0.50200
Sb	Sb	0.75986 0.61693 0.00205 0.52600
Cl	Cl	0.64304 0.88697 0.83183 -0.45800
O 	O 	0.41440 0.73470 0.99430 -0.47400
O 	O 	0.32880 0.73870 0.91850 -0.47000
O 	O 	0.40220 0.74620 0.83200 -0.49000
O 	O 	0.42230 0.84870 0.78650 -0.45400
O 	O 	0.50360 0.84770 0.85710 -0.49200
O 	O 	0.43710 0.83690 0.94370 -0.44900
O 	O 	0.42430 0.63420 0.00800 -0.45500
O 	O 	0.41430 0.63890 0.90190 -0.46500
O 	O 	0.51740 0.74590 0.77090 -0.45400
O 	O 	0.59450 0.80830 0.79500 -0.47300
O 	O 	0.60740 0.80150 0.94260 -0.46900
O 	O 	0.54300 0.73030 0.03540 -0.44000
O 	O 	0.54820 0.58990 0.96450 -0.50000
O 	O 	0.64920 0.69430 0.83490 -0.49300
O 	O 	0.66560 0.68570 0.99330 -0.48600
O 	O 	0.67610 0.58330 0.01190 -0.45200
O 	O 	0.66990 0.58660 0.90750 -0.47200
O 	O 	0.74120 0.65560 0.92270 -0.46900
Sb	Sb	0.92941 0.69444 0.46347 0.49200
Sb	Sb	0.12442 0.74536 0.26516 0.54200
Sb	Sb	0.26648 0.76167 0.33596 0.56200
Sb	Sb	0.24325 0.74000 0.47142 0.69000
Sb	Sb	0.05264 0.56623 0.58011 0.53500
Sb	Sb	0.22450 0.45648 0.55907 0.51300
Sb	Sb	0.11924 0.60165 0.31185 0.51200
Sb	Sb	0.25161 0.47308 0.42590 0.48600
Sb	Sb	0.39211 0.48891 0.49369 0.47600
Sb	Sb	0.07151 0.70560 0.53736 0.53200
Sb	Sb	0.40242 0.63605 0.44691 0.45900
Sb	Sb	0.95566 0.71054 0.33062 0.52200
Cl	Cl	0.17257 0.62932 0.43807 -0.93100
Cl	Cl	0.07343 0.49820 0.38870 -0.51900
Cl	Cl	0.87994 0.62780 0.41224 -0.50600
O 	O 	0.01200 0.72180 0.47270 -0.52300
O 	O 	0.99190 0.69150 0.40320 -0.49800
O 	O 	0.03490 0.75080 0.30980 -0.44000
O 	O 	0.18560 0.73150 0.32940 -0.48700
O 	O 	0.20770 0.76150 0.39820 -0.43700
O 	O 	0.16540 0.69940 0.49590 -0.48200
O 	O 	0.31590 0.65920 0.48720 -0.47900
O 	O 	0.11370 0.61830 0.56700 -0.46700
O 	O 	0.13320 0.52940 0.54320 -0.47000
O 	O 	0.36520 0.57510 0.45130 -0.48500
O 	O 	0.29570 0.50300 0.53030 -0.47900
O 	O 	0.99620 0.61190 0.50490 -0.46400
O 	O 	0.03610 0.63100 0.35080 -0.45900
O 	O 	0.18580 0.55790 0.38230 -0.48300
O 	O 	0.18880 0.47970 0.48450 -0.44700
O 	O 	0.16880 0.65960 0.29990 -0.46900
O 	O 	0.33540 0.67920 0.37680 -0.47300
O 	O 	0.33080 0.50630 0.42930 -0.45900
O 	O 	0.25320 0.50010 0.62280 -0.22700
O 	O 	0.14620 0.49490 0.66750 -0.01800
O 	O 	0.36260 0.40160 0.89400 -0.21100
O 	O 	0.28210 0.35630 0.89460 -0.20000
C 	C 	0.22030 0.48120 0.66500 0.05600
C 	C 	0.26730 0.46230 0.71670 -0.01900
C 	C 	0.33380 0.47140 0.72510 -0.01600
H 	H 	0.35960 0.49240 0.69650 0.02900
C 	C 	0.36060 0.44720 0.77890 0.03600
H 	H 	0.40560 0.44950 0.79150 0.08600
C 	C 	0.31190 0.41970 0.81100 -0.04100
C 	C 	0.31970 0.38980 0.87230 0.17600
S 	S 	0.23660 0.42240 0.77700 0.00200
Pr	Pr	0.06097 0.56616 0.44865 2.07900
Cl	Cl	0.53117 0.71816 0.91242 -0.94800
Cl	Cl	0.25993 0.83948 0.95332 -0.45600
Cl	Cl	0.24460 0.84622 0.80598 -0.46600
Cl	Cl	0.79751 0.73702 0.94724 -0.48900
Cl	Cl	0.78051 0.74559 0.81012 -0.47600
Cl	Cl	0.55908 0.51888 0.08750 -0.51400
Cl	Cl	0.09300 0.85720 0.29180 -0.81500
Cl	Cl	0.43070 0.53259 0.56862 -0.53400
Cl	Cl	0.31209 0.70452 0.25732 -0.48400
S 	S 	0.25990 0.08192 0.72678 0.08400
O 	O 	0.32700 0.92010 0.83860 -0.47600
O 	O 	0.39920 0.97560 0.79650 -0.30000
O 	O 	0.05830 0.17630 0.63490 -0.55300
O 	O 	0.14760 0.20250 0.65730 -0.31500
C 	C 	0.33650 0.96590 0.80290 0.38100
C 	C 	0.26480 0.01170 0.76560 -0.09800
C 	C 	0.19800 0.00490 0.75490 -0.00900
H 	H 	0.18960 0.96890 0.77200 0.07800
C 	C 	0.14320 0.05720 0.71580 0.01400
H 	H 	0.09420 0.05990 0.70310 0.06000
C 	C 	0.16640 0.10270 0.69830 -0.11900
C 	C 	0.12130 0.16510 0.66060 0.39100
O 	O 	0.62310 0.62050 0.79620 -0.48900
O 	O 	0.71390 0.65740 0.75010 -0.30600
O 	O 	0.70660 0.44140 0.68820 -0.47500
O 	O 	0.59720 0.46160 0.72770 -0.26400
S 	S 	0.63150 0.54127 0.75682 0.07200
C 	C 	0.67680 0.62260 0.76790 0.39000
C 	C 	0.69190 0.58020 0.74560 -0.10100
C 	C 	0.75230 0.56800 0.71520 -0.01600
H 	H 	0.79150 0.58540 0.70480 0.04400
C 	C 	0.74840 0.52670 0.70180 -0.01100
H 	H 	0.78530 0.51280 0.68130 0.02800
C 	C 	0.68620 0.50810 0.72110 -0.10300
C 	C 	0.66430 0.46420 0.71340 0.36900
S 	S 	0.28468 0.69456 0.68640 0.10900
O 	O 	0.45280 0.64720 0.79380 -0.47700
O 	O 	0.33500 0.71640 0.76830 -0.31800
O 	O 	0.19750 0.70090 0.59700 -0.26400
O 	O 	0.27300 0.61390 0.60740 -0.48100
C 	C 	0.38690 0.67430 0.76700 0.40000
C 	C 	0.36850 0.65340 0.73180 -0.11500
C 	C 	0.40960 0.60370 0.72920 0.00800
H 	H 	0.45740 0.57520 0.75120 0.05200
C 	C 	0.37390 0.59850 0.69030 -0.00500
H 	H 	0.39550 0.56650 0.68320 0.05300
C 	C 	0.30590 0.64380 0.66440 -0.10400
C 	C 	0.25440 0.65490 0.61990 0.36600
S 	S 	0.89970 0.96701 0.41654 0.13900
O 	O 	0.05480 0.81660 0.43750 2.11400
O 	O 	0.02570 0.90850 0.37160 -0.29400
O 	O 	0.75880 0.00900 0.51300 -0.19900
O 	O 	0.76670 0.05900 0.42500 -0.20700
C 	C 	0.01640 0.87070 0.41630 0.92100
C 	C 	0.95250 0.89330 0.44780 -0.19900
C 	C 	0.92900 0.86560 0.49660 0.09900
H 	H 	0.95140 0.82480 0.51980 0.01000
C 	C 	0.86770 0.90440 0.50910 -0.06000
H 	H 	0.84410 0.89250 0.54190 0.07500
C 	C 	0.84670 0.95840 0.47110 -0.04000
C 	C 	0.78250 0.01330 0.46950 0.29200
Cl	Cl	0.44650 0.65200 0.10860 -0.46800
Pr	Pr	0.37868 0.81851 0.87895 2.08200
Pr	Pr	0.66349 0.75923 0.88370 2.07800
Pr	Pr	0.54785 0.64217 0.02862 2.08800
Pr	Pr	0.53466 0.65112 0.85508 2.06600
Pr	Pr	0.07604 0.75645 0.38955 2.03600
Pr	Pr	0.25137 0.58843 0.54360 2.07800
Pr	Pr	0.28861 0.61217 0.36174 2.06200
O 	O 	0.07900 0.85130 0.31760 0.34900
S 	S 	0.21460 0.44450 0.77800 0.05400
O 	O 	0.25500 0.50600 0.62680 -0.16400
O 	O 	0.15670 0.47680 0.66720 -0.23500
O 	O 	0.37560 0.38650 0.89250 -0.21600
O 	O 	0.24540 0.40320 0.89660 -0.19400
C 	C 	0.21390 0.49330 0.66560 0.18800
C 	C 	0.26210 0.46190 0.72060 -0.02100
C 	C 	0.33960 0.45930 0.72210 -0.02100
H 	H 	0.37250 0.46770 0.69370 0.03700
C 	C 	0.35720 0.44120 0.77600 -0.02600
H 	H 	0.40810 0.43570 0.78860 -0.02900
C 	C 	0.30020 0.43120 0.81100 -0.01500
C 	C 	0.30600 0.40520 0.87250 0.17800
Cl	Cl	0.07660 0.82770 0.44380 -3.36200
O 	O 	-0.00000 0.50000 0.50000 -0.58600
