data_crystal

_cell_length_a 18.64270
_cell_length_b 27.54250
_cell_length_c 29.41310
_cell_angle_alpha 62.57500
_cell_angle_beta  89.20700
_cell_angle_gamma 70.63900

_symmetry_space_group_name_	'P 1'
_symmetry_space_group_name_H-M	'P 1'

loop_
_symmetry_equiv_pos_as_xyz
  x,y,z

loop_
_atom_site_label
_atom_site_type_symbol
_atom_site_fract_x
_atom_site_fract_y
_atom_site_fract_z
_atom_site_charge
Pr	Pr	0.61680 0.17936 0.12339 2.08300
Pr	Pr	0.34176 0.23553 0.12264 2.07500
Pr	Pr	0.44105 0.35343 0.97827 2.09400
Pr	Pr	0.47538 0.34825 0.14244 2.07600
Pr	Pr	0.90192 0.24727 0.60935 2.08100
Pr	Pr	0.75108 0.41346 0.44640 2.08900
Pr	Pr	0.95093 0.42462 0.53540 2.07500
Pr	Pr	0.71897 0.42282 0.60578 2.10100
Sb	Sb	0.65385 0.29280 0.00678 0.50200
Sb	Sb	0.68099 0.28689 0.13236 0.53100
Sb	Sb	0.60696 0.19794 0.24068 0.51100
Sb	Sb	0.50594 0.11305 0.22577 0.53300
Sb	Sb	0.48049 0.11752 0.10156 0.52200
Sb	Sb	0.55349 0.20744 0.99092 0.52900
Sb	Sb	0.55204 0.41895 0.02147 0.43300
Sb	Sb	0.40066 0.24082 0.24009 0.53500
Sb	Sb	0.34762 0.24805 0.99208 0.53000
Sb	Sb	0.34103 0.46347 0.01931 0.44100
Sb	Sb	0.26720 0.37457 0.12884 0.54000
Sb	Sb	0.24131 0.37739 0.00602 0.53200
Sb	Sb	0.05761 0.28490 0.54102 0.50800
Sb	Sb	0.86254 0.28497 0.71492 0.51300
Sb	Sb	0.70992 0.27531 0.64760 0.52300
Sb	Sb	0.73078 0.27067 0.52699 0.50500
Sb	Sb	0.94814 0.40748 0.41715 0.53000
Sb	Sb	0.80849 0.53998 0.41654 0.54900
Sb	Sb	0.89711 0.42046 0.66062 0.55600
Sb	Sb	0.63442 0.53782 0.46934 0.53400
Sb	Sb	0.59452 0.39919 0.52743 0.58100
Sb	Sb	0.90797 0.27262 0.47287 0.53200
Sb	Sb	0.78640 0.54866 0.53370 0.52000
Sb	Sb	0.03690 0.29273 0.65910 0.52500
Cl	Cl	0.46735 0.27829 0.09178 -0.94900
Cl	Cl	0.72494 0.15599 0.05242 -0.45900
Cl	Cl	0.75712 0.15368 0.19179 -0.46900
Cl	Cl	0.36437 0.10658 0.17639 -0.46900
Cl	Cl	0.20814 0.25108 0.06277 -0.48300
Cl	Cl	0.23551 0.25123 0.19217 -0.48100
Cl	Cl	0.42012 0.48082 0.91931 -0.50200
Cl	Cl	0.82876 0.37856 0.54893 -0.95700
Cl	Cl	0.89515 0.16376 0.57402 -0.47100
Cl	Cl	0.86941 0.16684 0.70912 -0.46700
Cl	Cl	0.58620 0.49170 0.40230 -0.55000
Cl	Cl	0.99148 0.50400 0.56001 -0.66800
Cl	Cl	0.11791 0.35851 0.57766 -0.52700
Cl	Cl	0.54870 0.48460 0.57210 -1.07700
O 	O 	0.57130 0.25900 0.01622 -0.49400
O 	O 	0.66610 0.25874 0.08297 -0.46700
O 	O 	0.60290 0.25270 0.16571 -0.49400
O 	O 	0.58590 0.14888 0.21429 -0.44900
O 	O 	0.49910 0.14578 0.14940 -0.48200
O 	O 	0.55310 0.15582 0.06534 -0.45100
O 	O 	0.56290 0.36354 0.99485 -0.45900
O 	O 	0.58700 0.36040 0.09599 -0.46100
O 	O 	0.49940 0.25400 0.22588 -0.44800
O 	O 	0.42070 0.18896 0.20713 -0.47600
O 	O 	0.39030 0.19124 0.06672 -0.46400
O 	O 	0.44460 0.26298 0.97512 -0.44800
O 	O 	0.45120 0.40816 0.03850 -0.50400
O 	O 	0.36420 0.30496 0.16636 -0.48200
O 	O 	0.33080 0.30668 0.01682 -0.48200
O 	O 	0.32200 0.41205 0.99536 -0.44800
O 	O 	0.33980 0.41237 0.09391 -0.46400
O 	O 	0.26520 0.34008 0.08297 -0.47400
O 	O 	0.97030 0.26200 0.53490 -0.46400
O 	O 	0.99750 0.30540 0.59075 -0.50400
O 	O 	0.94850 0.26500 0.67860 -0.44800
O 	O 	0.79610 0.30110 0.65310 -0.48400
O 	O 	0.76610 0.25780 0.59610 -0.46200
O 	O 	0.81790 0.29830 0.50520 -0.48400
O 	O 	0.67290 0.35550 0.50040 -0.45700
O 	O 	0.88250 0.35930 0.43230 -0.44100
O 	O 	0.86790 0.45420 0.44166 -0.47900
O 	O 	0.65620 0.45040 0.50750 -0.45000
O 	O 	0.72000 0.51350 0.43473 -0.44800
O 	O 	0.99980 0.36864 0.49112 -0.47600
O 	O 	0.97060 0.37740 0.63073 -0.46800
O 	O 	0.83930 0.46520 0.58860 -0.47300
O 	O 	0.84340 0.51670 0.48931 -0.47900
O 	O 	0.83300 0.37220 0.67480 -0.46700
O 	O 	0.65810 0.35960 0.59690 -0.44400
O 	O 	0.70270 0.52090 0.53070 -0.46700
S 	S 	0.75936 0.91948 0.28341 0.07700
O 	O 	0.67270 0.07699 0.16621 -0.47700
O 	O 	0.61320 0.02190 0.22190 -0.30200
O 	O 	0.97310 0.82970 0.35200 -0.47200
O 	O 	0.87500 0.80160 0.34950 -0.31400
C 	C 	0.67200 0.03270 0.20660 0.37800
C 	C 	0.74860 0.98940 0.23820 -0.09700
C 	C 	0.81690 0.99800 0.23730 -0.00900
H 	H 	0.82220 0.03440 0.21510 0.07500
C 	C 	0.87810 0.94740 0.27250 0.00800
H 	H 	0.92950 0.94570 0.27660 0.06300
C 	C 	0.85590 0.90150 0.29990 -0.10200
C 	C 	0.90620 0.83920 0.33770 0.38600
C 	C 	0.37020 0.37760 0.22930 0.58600
C 	C 	0.35180 0.41080 0.25911 -0.17800
C 	C 	0.32020 0.46320 0.30860 -0.06900
S 	S 	0.31620 0.39557 0.31450 0.09400
O 	O 	0.39710 0.39020 0.19130 -0.32900
O 	O 	0.36050 0.32770 0.25850 -0.28200
O 	O 	0.28990 0.51610 0.35350 0.12200
O 	O 	0.26550 0.43380 0.39260 -0.00800
C 	C 	0.36470 0.46330 0.24050 0.07200
H 	H 	0.38490 0.47790 0.20910 0.00800
C 	C 	0.34820 0.49400 0.26780 -0.11500
H 	H 	0.35530 0.52970 0.25930 0.07200
C 	C 	0.29030 0.46890 0.35690 -0.61300
S 	S 	0.72306 0.29835 0.31362 0.08600
O 	O 	0.56720 0.35000 0.19800 -0.48300
O 	O 	0.68270 0.28050 0.22730 -0.31600
O 	O 	0.80160 0.29000 0.40610 -0.33000
O 	O 	0.71590 0.37010 0.40130 -0.48900
C 	C 	0.63010 0.32270 0.22670 0.40100
C 	C 	0.64510 0.34100 0.26500 -0.11000
C 	C 	0.59940 0.38980 0.26780 -0.00700
H 	H 	0.55310 0.41870 0.24470 0.04100
C 	C 	0.63160 0.39030 0.31020 0.00300
H 	H 	0.60820 0.42100 0.31830 0.04300
C 	C 	0.69630 0.34600 0.33840 -0.11500
C 	C 	0.74260 0.33290 0.38700 0.41900
S 	S 	0.76890 0.57520 0.21745 0.12100
O 	O 	0.75130 0.48490 0.35660 -0.24400
O 	O 	0.86250 0.48600 0.32850 -0.21600
O 	O 	0.66450 0.60790 0.08720 -0.25900
O 	O 	0.72930 0.65680 0.10000 -0.22800
C 	C 	0.78970 0.50160 0.32130 0.19000
C 	C 	0.74380 0.52330 0.26800 -0.04300
C 	C 	0.68650 0.51270 0.24930 0.03200
H 	H 	0.66410 0.48560 0.27120 0.02500
C 	C 	0.66440 0.54490 0.19580 0.05000
H 	H 	0.62570 0.54250 0.17720 0.02300
C 	C 	0.70530 0.58040 0.17320 -0.02800
C 	C 	0.70180 0.61730 0.11540 0.23200
S 	S 	0.63170 0.30990 0.81742 -0.00000
O 	O 	0.66200 0.39540 0.67450 -0.43500
O 	O 	0.71060 0.29940 0.73300 -0.26000
O 	O 	0.50060 0.36650 0.90200 -0.59500
O 	O 	0.58560 0.27940 0.91500 -0.19200
C 	C 	0.66140 0.35070 0.71450 -0.50800
C 	C 	0.61720 0.36460 0.75480 0.14900
C 	C 	0.56700 0.41380 0.74970 -0.12400
H 	H 	0.55220 0.44880 0.71710 0.10800
C 	C 	0.53660 0.41420 0.79170 -0.04200
H 	H 	0.50010 0.44750 0.79220 0.05500
C 	C 	0.56720 0.35840 0.83350 0.08000
C 	C 	0.55280 0.33420 0.89030 -0.36400
O 	O 	0.61490 0.47040 0.39520 0.15500
O 	O 	0.56310 0.50400 0.57680 0.61200
S 	S 	0.27220 0.44830 0.27160 0.05900
O 	O 	0.42700 0.37200 0.20680 -0.23200
O 	O 	0.30350 0.38410 0.21130 -0.27400
O 	O 	0.31060 0.52270 0.35040 -0.68500
O 	O 	0.20520 0.51290 0.32620 -0.43000
C 	C 	0.41430 0.41250 0.28290 -0.03400
H 	H 	0.46560 0.39340 0.28000 0.04600
C 	C 	0.39930 0.44290 0.31090 0.03000
H 	H 	0.43600 0.44860 0.32820 0.03900
C 	C 	0.27620 0.50210 0.33200 0.99100
S 	S 	0.80170 0.54430 0.21460 -0.03500
O 	O 	0.74860 0.46110 0.35710 -0.23900
O 	O 	0.79930 0.53050 0.33070 -0.25200
O 	O 	0.64750 0.62170 0.09140 -0.19400
O 	O 	0.77500 0.59570 0.09540 -0.21300
C 	C 	0.78030 0.49300 0.32520 0.23600
C 	C 	0.75250 0.52690 0.26600 -0.02600
C 	C 	0.67570 0.53590 0.25720 -0.04600
H 	H 	0.64070 0.52860 0.28100 0.06300
C 	C 	0.66420 0.55840 0.20420 -0.08500
H 	H 	0.61400 0.56880 0.18760 0.05100
C 	C 	0.71960 0.56700 0.17360 -0.03500
C 	C 	0.71510 0.59690 0.11510 0.16800
Cl	Cl	0.53700 0.34160 0.89910 0.61700
Cl	Cl	0.67410 0.34960 0.70780 0.65100
Pr	Pr	0.38320 0.82064 0.87661 2.08300
Pr	Pr	0.65824 0.76447 0.87736 2.07500
Pr	Pr	0.55895 0.64657 0.02173 2.09400
Pr	Pr	0.52462 0.65175 0.85756 2.07600
Pr	Pr	0.09808 0.75273 0.39065 2.08100
Pr	Pr	0.24892 0.58654 0.55360 2.08900
Pr	Pr	0.04907 0.57538 0.46460 2.07500
Pr	Pr	0.28103 0.57718 0.39423 2.10100
Sb	Sb	0.34615 0.70720 0.99322 0.50200
Sb	Sb	0.31901 0.71311 0.86764 0.53100
Sb	Sb	0.39304 0.80206 0.75932 0.51100
Sb	Sb	0.49406 0.88695 0.77423 0.53300
Sb	Sb	0.51951 0.88248 0.89844 0.52200
Sb	Sb	0.44651 0.79256 0.00908 0.52900
Sb	Sb	0.44796 0.58105 0.97853 0.43300
Sb	Sb	0.59934 0.75918 0.75991 0.53500
Sb	Sb	0.65238 0.75195 0.00792 0.53000
Sb	Sb	0.65897 0.53653 0.98069 0.44100
Sb	Sb	0.73280 0.62543 0.87116 0.54000
Sb	Sb	0.75869 0.62261 0.99398 0.53200
Sb	Sb	0.94239 0.71510 0.45898 0.50800
Sb	Sb	0.13746 0.71503 0.28508 0.51300
Sb	Sb	0.29008 0.72469 0.35240 0.52300
Sb	Sb	0.26922 0.72933 0.47301 0.50500
Sb	Sb	0.05186 0.59252 0.58285 0.53000
Sb	Sb	0.19151 0.46002 0.58346 0.54900
Sb	Sb	0.10289 0.57954 0.33938 0.55600
Sb	Sb	0.36558 0.46218 0.53066 0.53400
Sb	Sb	0.40548 0.60081 0.47257 0.58100
Sb	Sb	0.09203 0.72738 0.52713 0.53200
Sb	Sb	0.21360 0.45134 0.46630 0.52000
Sb	Sb	0.96310 0.70727 0.34090 0.52500
Cl	Cl	0.53265 0.72171 0.90822 -0.94900
Cl	Cl	0.27506 0.84401 0.94758 -0.45900
Cl	Cl	0.24288 0.84632 0.80821 -0.46900
Cl	Cl	0.63563 0.89342 0.82361 -0.46900
Cl	Cl	0.79186 0.74892 0.93723 -0.48300
Cl	Cl	0.76449 0.74877 0.80783 -0.48100
Cl	Cl	0.57988 0.51918 0.08069 -0.50200
Cl	Cl	0.17124 0.62144 0.45107 -0.95700
Cl	Cl	0.10485 0.83624 0.42598 -0.47100
Cl	Cl	0.13059 0.83316 0.29088 -0.46700
Cl	Cl	0.41380 0.50830 0.59770 -0.55000
Cl	Cl	0.00852 0.49600 0.43999 -0.66800
Cl	Cl	0.88209 0.64149 0.42234 -0.52700
Cl	Cl	0.45130 0.51540 0.42790 -1.07700
O 	O 	0.42870 0.74100 0.98378 -0.49400
O 	O 	0.33390 0.74126 0.91703 -0.46700
O 	O 	0.39710 0.74730 0.83429 -0.49400
O 	O 	0.41410 0.85112 0.78571 -0.44900
O 	O 	0.50090 0.85422 0.85060 -0.48200
O 	O 	0.44690 0.84418 0.93466 -0.45100
O 	O 	0.43710 0.63646 0.00515 -0.45900
O 	O 	0.41300 0.63960 0.90401 -0.46100
O 	O 	0.50060 0.74600 0.77412 -0.44800
O 	O 	0.57930 0.81104 0.79287 -0.47600
O 	O 	0.60970 0.80876 0.93328 -0.46400
O 	O 	0.55540 0.73702 0.02488 -0.44800
O 	O 	0.54880 0.59184 0.96150 -0.50400
O 	O 	0.63580 0.69504 0.83364 -0.48200
O 	O 	0.66920 0.69332 0.98318 -0.48200
O 	O 	0.67800 0.58795 0.00464 -0.44800
O 	O 	0.66020 0.58763 0.90609 -0.46400
O 	O 	0.73480 0.65992 0.91703 -0.47400
O 	O 	0.02970 0.73800 0.46510 -0.46400
O 	O 	0.00250 0.69460 0.40925 -0.50400
O 	O 	0.05150 0.73500 0.32140 -0.44800
O 	O 	0.20390 0.69890 0.34690 -0.48400
O 	O 	0.23390 0.74220 0.40390 -0.46200
O 	O 	0.18210 0.70170 0.49480 -0.48400
O 	O 	0.32710 0.64450 0.49960 -0.45700
O 	O 	0.11750 0.64070 0.56770 -0.44100
O 	O 	0.13210 0.54580 0.55834 -0.47900
O 	O 	0.34380 0.54960 0.49250 -0.45000
O 	O 	0.28000 0.48650 0.56527 -0.44800
O 	O 	0.00020 0.63136 0.50888 -0.47600
O 	O 	0.02940 0.62260 0.36927 -0.46800
O 	O 	0.16070 0.53480 0.41140 -0.47300
O 	O 	0.15660 0.48330 0.51069 -0.47900
O 	O 	0.16700 0.62780 0.32520 -0.46700
O 	O 	0.34190 0.64040 0.40310 -0.44400
O 	O 	0.29730 0.47910 0.46930 -0.46700
S 	S 	0.24064 0.08052 0.71659 0.07700
O 	O 	0.32730 0.92301 0.83379 -0.47700
O 	O 	0.38680 0.97810 0.77810 -0.30200
O 	O 	0.02690 0.17030 0.64800 -0.47200
O 	O 	0.12500 0.19840 0.65050 -0.31400
C 	C 	0.32800 0.96730 0.79340 0.37800
C 	C 	0.25140 0.01060 0.76180 -0.09700
C 	C 	0.18310 0.00200 0.76270 -0.00900
H 	H 	0.17780 0.96560 0.78490 0.07500
C 	C 	0.12190 0.05260 0.72750 0.00800
H 	H 	0.07050 0.05430 0.72340 0.06300
C 	C 	0.14410 0.09850 0.70010 -0.10200
C 	C 	0.09380 0.16080 0.66230 0.38600
C 	C 	0.62980 0.62240 0.77070 0.58600
C 	C 	0.64820 0.58920 0.74089 -0.17800
C 	C 	0.67980 0.53680 0.69140 -0.06900
S 	S 	0.68380 0.60443 0.68550 0.09400
O 	O 	0.60290 0.60980 0.80870 -0.32900
O 	O 	0.63950 0.67230 0.74150 -0.28200
O 	O 	0.71010 0.48390 0.64650 0.12200
O 	O 	0.73450 0.56620 0.60740 -0.00800
C 	C 	0.63530 0.53670 0.75950 0.07200
H 	H 	0.61510 0.52210 0.79090 0.00800
C 	C 	0.65180 0.50600 0.73220 -0.11500
H 	H 	0.64470 0.47030 0.74070 0.07200
C 	C 	0.70970 0.53110 0.64310 -0.61400
S 	S 	0.27694 0.70165 0.68638 0.08600
O 	O 	0.43280 0.65000 0.80200 -0.48300
O 	O 	0.31730 0.71950 0.77270 -0.31600
O 	O 	0.19840 0.71000 0.59390 -0.33000
O 	O 	0.28410 0.62990 0.59870 -0.48900
C 	C 	0.36990 0.67730 0.77330 0.40100
C 	C 	0.35490 0.65900 0.73500 -0.11000
C 	C 	0.40060 0.61020 0.73220 -0.00700
H 	H 	0.44690 0.58130 0.75530 0.04100
C 	C 	0.36840 0.60970 0.68980 0.00300
H 	H 	0.39180 0.57900 0.68170 0.04300
C 	C 	0.30370 0.65400 0.66160 -0.11500
C 	C 	0.25740 0.66710 0.61300 0.41900
S 	S 	0.23110 0.42480 0.78255 0.12100
O 	O 	0.24870 0.51510 0.64340 -0.24400
O 	O 	0.13750 0.51400 0.67150 -0.21600
O 	O 	0.33550 0.39210 0.91280 -0.25900
O 	O 	0.27070 0.34320 0.90000 -0.22800
C 	C 	0.21030 0.49840 0.67870 0.19000
C 	C 	0.25620 0.47670 0.73200 -0.04300
C 	C 	0.31350 0.48730 0.75070 0.03200
H 	H 	0.33590 0.51440 0.72880 0.02500
C 	C 	0.33560 0.45510 0.80420 0.05000
H 	H 	0.37430 0.45750 0.82280 0.02300
C 	C 	0.29470 0.41960 0.82680 -0.02800
C 	C 	0.29820 0.38270 0.88460 0.23200
S 	S 	0.36830 0.69010 0.18258 -0.00000
O 	O 	0.33800 0.60460 0.32550 -0.43500
O 	O 	0.28940 0.70060 0.26700 -0.26000
O 	O 	0.49940 0.63350 0.09800 -0.59500
O 	O 	0.41440 0.72060 0.08500 -0.19200
C 	C 	0.33860 0.64930 0.28550 -0.50800
C 	C 	0.38280 0.63540 0.24520 0.14900
C 	C 	0.43300 0.58620 0.25030 -0.12400
H 	H 	0.44780 0.55120 0.28290 0.10800
C 	C 	0.46340 0.58580 0.20830 -0.04200
H 	H 	0.49990 0.55250 0.20780 0.05500
C 	C 	0.43280 0.64160 0.16650 0.08000
C 	C 	0.44720 0.66580 0.10970 -0.36400
O 	O 	0.38510 0.52960 0.60480 0.15500
O 	O 	0.43690 0.49600 0.42320 0.61200
S 	S 	0.72780 0.55170 0.72840 0.05900
O 	O 	0.57300 0.62800 0.79320 -0.23200
O 	O 	0.69650 0.61590 0.78870 -0.27400
O 	O 	0.68940 0.47730 0.64960 -0.68500
O 	O 	0.79480 0.48710 0.67380 -0.43000
C 	C 	0.58570 0.58750 0.71710 -0.03400
H 	H 	0.53440 0.60660 0.72000 0.04600
C 	C 	0.60070 0.55710 0.68910 0.03000
H 	H 	0.56400 0.55140 0.67180 0.03900
C 	C 	0.72380 0.49790 0.66800 0.99200
S 	S 	0.19830 0.45570 0.78540 -0.03500
O 	O 	0.25140 0.53890 0.64290 -0.23900
O 	O 	0.20070 0.46950 0.66930 -0.25200
O 	O 	0.35250 0.37830 0.90860 -0.19400
O 	O 	0.22500 0.40430 0.90460 -0.21300
C 	C 	0.21970 0.50700 0.67480 0.23600
C 	C 	0.24750 0.47310 0.73400 -0.02600
C 	C 	0.32430 0.46410 0.74280 -0.04600
H 	H 	0.35930 0.47140 0.71900 0.06300
C 	C 	0.33580 0.44160 0.79580 -0.08500
H 	H 	0.38600 0.43120 0.81240 0.05100
C 	C 	0.28040 0.43300 0.82640 -0.03500
C 	C 	0.28490 0.40310 0.88490 0.16800
Cl	Cl	0.46300 0.65840 0.10090 0.61700
Cl	Cl	0.32590 0.65040 0.29220 0.65100
