data_crystal

_cell_length_a 18.63000
_cell_length_b 27.45500
_cell_length_c 29.38100
_cell_angle_alpha 62.67600
_cell_angle_beta  89.00400
_cell_angle_gamma 70.48500

_symmetry_space_group_name_	'P 1'
_symmetry_space_group_name_H-M	'P 1'

loop_
_symmetry_equiv_pos_as_xyz
  x,y,z

loop_
_atom_site_label
_atom_site_type_symbol
_atom_site_fract_x
_atom_site_fract_y
_atom_site_fract_z
_atom_site_charge
Pr	Pr	0.61728 0.17864 0.12331 2.08500
Pr	Pr	0.34178 0.23469 0.12216 2.07700
Pr	Pr	0.44284 0.35275 0.97815 2.09500
Pr	Pr	0.47438 0.34814 0.14203 2.07700
Pr	Pr	0.90160 0.24704 0.60834 2.08300
Pr	Pr	0.75218 0.41396 0.44562 2.08700
Pr	Pr	0.95086 0.42451 0.53507 2.07800
Pr	Pr	0.71834 0.42477 0.60452 2.08500
Sb	Sb	0.65582 0.29178 0.00727 0.50400
Sb	Sb	0.68113 0.28649 0.13278 0.53400
Sb	Sb	0.60566 0.19777 0.24047 0.50800
Sb	Sb	0.50557 0.11230 0.22537 0.52900
Sb	Sb	0.48181 0.11614 0.10136 0.52100
Sb	Sb	0.55613 0.20597 0.99100 0.52900
Sb	Sb	0.55288 0.41860 0.02172 0.43300
Sb	Sb	0.39886 0.24066 0.23960 0.54100
Sb	Sb	0.34990 0.24698 0.99169 0.52300
Sb	Sb	0.34136 0.46340 0.01854 0.44700
Sb	Sb	0.26645 0.37467 0.12764 0.53600
Sb	Sb	0.24181 0.37694 0.00513 0.54100
Sb	Sb	0.05807 0.28465 0.54034 0.51100
Sb	Sb	0.86199 0.28433 0.71433 0.50900
Sb	Sb	0.70908 0.27536 0.64658 0.52000
Sb	Sb	0.73054 0.27160 0.52548 0.50000
Sb	Sb	0.94939 0.40768 0.41649 0.53700
Sb	Sb	0.80920 0.54041 0.41648 0.49500
Sb	Sb	0.89603 0.42032 0.66012 0.52600
Sb	Sb	0.63476 0.53950 0.46899 0.51500
Sb	Sb	0.59466 0.40041 0.52711 0.54100
Sb	Sb	0.90876 0.27269 0.47180 0.53400
Sb	Sb	0.78757 0.54997 0.53327 0.53600
Sb	Sb	0.03667 0.29240 0.65856 0.52100
Cl	Cl	0.46766 0.27786 0.09148 -0.95200
Cl	Cl	0.72673 0.15466 0.05294 -0.46000
Cl	Cl	0.75683 0.15310 0.19234 -0.46700
Cl	Cl	0.36461 0.10514 0.17583 -0.46800
Cl	Cl	0.20901 0.24973 0.06248 -0.48300
Cl	Cl	0.23469 0.25063 0.19127 -0.47900
Cl	Cl	0.42163 0.48050 0.91900 -0.49600
Cl	Cl	0.82844 0.37894 0.54839 -0.96100
Cl	Cl	0.89529 0.16391 0.57184 -0.46800
Cl	Cl	0.87070 0.16541 0.70771 -0.46700
Cl	Cl	0.58480 0.49390 0.40290 -0.54300
Cl	Cl	0.99110 0.50400 0.56002 -0.67100
Cl	Cl	0.11775 0.35827 0.57744 -0.53000
Cl	Cl	0.54850 0.48520 0.57220 -0.53200
O 	O 	0.57310 0.25790 0.01610 -0.49300
O 	O 	0.66670 0.25780 0.08360 -0.46800
O 	O 	0.60300 0.25220 0.16550 -0.49400
O 	O 	0.58590 0.14820 0.21400 -0.44800
O 	O 	0.50010 0.14460 0.14910 -0.48200
O 	O 	0.55410 0.15470 0.06530 -0.45100
O 	O 	0.56450 0.36220 0.99540 -0.46100
O 	O 	0.58650 0.36070 0.09610 -0.46200
O 	O 	0.49770 0.25400 0.22570 -0.44600
O 	O 	0.41920 0.18880 0.20620 -0.47900
O 	O 	0.39110 0.19020 0.06630 -0.46400
O 	O 	0.44720 0.26190 0.97500 -0.45400
O 	O 	0.45150 0.40830 0.03790 -0.50500
O 	O 	0.36310 0.30430 0.16630 -0.48100
O 	O 	0.33210 0.30580 0.01640 -0.48000
O 	O 	0.32230 0.41170 0.99470 -0.44100
O 	O 	0.33900 0.41290 0.09260 -0.46500
O 	O 	0.26540 0.33970 0.08200 -0.47400
O 	O 	0.97060 0.26150 0.53420 -0.46500
O 	O 	0.99750 0.30520 0.59000 -0.50400
O 	O 	0.94880 0.26370 0.67840 -0.44500
O 	O 	0.79530 0.29940 0.65310 -0.48000
O 	O 	0.76640 0.25720 0.59490 -0.46200
O 	O 	0.81940 0.29810 0.50430 -0.48400
O 	O 	0.67340 0.35740 0.49930 -0.45600
O 	O 	0.88370 0.36030 0.43070 -0.43800
O 	O 	0.86880 0.45400 0.44130 -0.48900
O 	O 	0.65530 0.45220 0.50840 -0.46100
O 	O 	0.72040 0.51410 0.43510 -0.45600
O 	O 	0.00050 0.36840 0.49080 -0.47700
O 	O 	0.97010 0.37710 0.63050 -0.46700
O 	O 	0.83840 0.46580 0.58790 -0.48000
O 	O 	0.84480 0.51700 0.48920 -0.47700
O 	O 	0.83200 0.37190 0.67360 -0.45900
O 	O 	0.65700 0.36060 0.59670 -0.45600
O 	O 	0.70210 0.52280 0.53020 -0.47500
S 	S 	0.75984 0.91909 0.28371 0.07500
O 	O 	0.67320 0.07610 0.16580 -0.47700
O 	O 	0.61390 0.02050 0.22140 -0.30700
O 	O 	0.97420 0.82990 0.35310 -0.46300
O 	O 	0.87500 0.80140 0.35070 -0.30400
C 	C 	0.67170 0.03170 0.20630 0.38400
C 	C 	0.74840 0.98980 0.23810 -0.10000
C 	C 	0.81740 0.99730 0.23590 -0.00400
H 	H 	0.82370 0.03280 0.21200 0.07300
C 	C 	0.87810 0.94750 0.27240 0.00300
H 	H 	0.92920 0.94630 0.27700 0.06500
C 	C 	0.85620 0.90140 0.30040 -0.09800
C 	C 	0.90650 0.83990 0.33810 0.36700
C 	C 	0.37000 0.37570 0.23020 0.59900
C 	C 	0.35070 0.40800 0.26070 -0.16500
C 	C 	0.31860 0.45990 0.31120 -0.04500
S 	S 	0.31520 0.39460 0.31487 0.05400
O 	O 	0.39490 0.39030 0.19080 -0.32200
O 	O 	0.35900 0.32680 0.25880 -0.28300
O 	O 	0.28760 0.51630 0.35300 -0.09200
O 	O 	0.26460 0.43230 0.39320 -0.42400
C 	C 	0.36440 0.46100 0.24110 0.00800
H 	H 	0.38480 0.47570 0.20980 0.03100
C 	C 	0.34660 0.49060 0.26950 -0.01500
H 	H 	0.35310 0.52650 0.26110 0.06200
C 	C 	0.28850 0.46830 0.35790 0.79500
S 	S 	0.72175 0.29958 0.31231 0.08700
O 	O 	0.56310 0.35100 0.19860 -0.46300
O 	O 	0.68110 0.28270 0.22510 -0.31100
O 	O 	0.80230 0.28980 0.40500 -0.31700
O 	O 	0.71660 0.37050 0.40100 -0.48600
C 	C 	0.62850 0.32350 0.22690 0.38000
C 	C 	0.64210 0.34270 0.26440 -0.10600
C 	C 	0.59790 0.39070 0.26800 -0.00200
H 	H 	0.55140 0.41950 0.24520 0.04200
C 	C 	0.62990 0.39210 0.31010 -0.00200
H 	H 	0.60660 0.42280 0.31850 0.04400
C 	C 	0.69580 0.34680 0.33750 -0.10900
C 	C 	0.74280 0.33400 0.38540 0.40400
S 	S 	0.77290 0.57290 0.21670 0.38100
O 	O 	0.75310 0.48930 0.35510 -0.14000
O 	O 	0.86750 0.48040 0.32720 -0.33000
O 	O 	0.66350 0.60760 0.08730 -0.44800
O 	O 	0.73060 0.65600 0.09950 -0.25400
C 	C 	0.79390 0.50230 0.32010 0.20000
C 	C 	0.74540 0.52300 0.26800 -0.04500
C 	C 	0.68580 0.51460 0.24860 -0.08800
H 	H 	0.66220 0.48860 0.27090 0.06300
C 	C 	0.66210 0.54580 0.19530 -0.00300
H 	H 	0.62210 0.54420 0.17710 0.04900
C 	C 	0.70620 0.57940 0.17330 0.04300
C 	C 	0.70160 0.61690 0.11500 0.30100
S 	S 	0.63280 0.30850 0.81650 -0.00500
O 	O 	0.66170 0.39740 0.67610 -0.46200
O 	O 	0.70060 0.29910 0.72790 -0.25500
O 	O 	0.50270 0.36580 0.90210 -0.60700
O 	O 	0.58860 0.27760 0.91620 -0.19000
C 	C 	0.65950 0.35170 0.71410 -0.54300
C 	C 	0.61640 0.36560 0.75470 0.17700
C 	C 	0.56740 0.41500 0.75050 -0.14200
H 	H 	0.55200 0.45090 0.71870 0.11100
C 	C 	0.54090 0.41160 0.79340 -0.03200
H 	H 	0.50520 0.44430 0.79550 0.05300
C 	C 	0.56960 0.35730 0.83360 0.07000
C 	C 	0.55540 0.33280 0.89050 -0.35400
O 	O 	0.61410 0.47040 0.39630 0.12500
O 	O 	0.56820 0.50740 0.57880 0.09600
S 	S 	0.26830 0.44980 0.27070 0.07200
O 	O 	0.42890 0.36900 0.20890 -0.26300
O 	O 	0.30390 0.38200 0.21300 -0.27400
O 	O 	0.31400 0.52600 0.34600 -0.16500
O 	O 	0.20800 0.51600 0.32200 -0.13100
C 	C 	0.41990 0.39960 0.28560 0.01100
H 	H 	0.47100 0.37770 0.28450 0.03300
C 	C 	0.39610 0.43100 0.31270 -0.05700
H 	H 	0.43390 0.43260 0.33270 0.05300
C 	C 	0.28000 0.49810 0.33710 -0.51600
S 	S 	0.79840 0.54660 0.21410 -0.31500
O 	O 	0.75040 0.46630 0.35750 -0.27900
O 	O 	0.85030 0.49470 0.32990 0.07500
O 	O 	0.64460 0.62180 0.09230 -0.00300
O 	O 	0.77310 0.59580 0.09550 -0.17700
C 	C 	0.78450 0.49290 0.32350 0.02600
C 	C 	0.75020 0.52690 0.26570 -0.00700
C 	C 	0.67460 0.53390 0.25620 0.04700
H 	H 	0.63980 0.52520 0.28000 0.02600
C 	C 	0.66230 0.55680 0.20310 -0.00700
H 	H 	0.61270 0.56580 0.18660 0.02000
C 	C 	0.71800 0.56720 0.17290 -0.10900
C 	C 	0.71220 0.60180 0.11440 0.09000
Cl	Cl	0.53950 0.34180 0.89880 0.60900
Cl	Cl	0.67080 0.35150 0.70420 0.69400
Pr	Pr	0.38272 0.82136 0.87669 2.08400
Pr	Pr	0.65822 0.76531 0.87784 2.07600
Pr	Pr	0.55716 0.64725 0.02185 2.09400
Pr	Pr	0.52562 0.65186 0.85797 2.07600
Pr	Pr	0.09840 0.75296 0.39166 2.08200
Pr	Pr	0.24782 0.58604 0.55437 2.08600
Pr	Pr	0.04914 0.57549 0.46493 2.07700
Pr	Pr	0.28166 0.57523 0.39548 2.08400
Sb	Sb	0.34418 0.70822 0.99273 0.50300
Sb	Sb	0.31887 0.71351 0.86722 0.53400
Sb	Sb	0.39434 0.80223 0.75953 0.50800
Sb	Sb	0.49443 0.88770 0.77463 0.52900
Sb	Sb	0.51819 0.88386 0.89864 0.52100
Sb	Sb	0.44387 0.79403 0.00900 0.52900
Sb	Sb	0.44712 0.58140 0.97828 0.43300
Sb	Sb	0.60114 0.75934 0.76040 0.54100
Sb	Sb	0.65010 0.75302 0.00831 0.52300
Sb	Sb	0.65864 0.53660 0.98146 0.44700
Sb	Sb	0.73355 0.62533 0.87236 0.53600
Sb	Sb	0.75819 0.62306 0.99487 0.54100
Sb	Sb	0.94193 0.71535 0.45966 0.51100
Sb	Sb	0.13801 0.71567 0.28567 0.50900
Sb	Sb	0.29092 0.72464 0.35342 0.52000
Sb	Sb	0.26946 0.72840 0.47452 0.50000
Sb	Sb	0.05061 0.59232 0.58351 0.53700
Sb	Sb	0.19080 0.45959 0.58352 0.49500
Sb	Sb	0.10397 0.57968 0.33988 0.52600
Sb	Sb	0.36524 0.46050 0.53101 0.51500
Sb	Sb	0.40534 0.59959 0.47289 0.54100
Sb	Sb	0.09124 0.72731 0.52820 0.53400
Sb	Sb	0.21243 0.45003 0.46673 0.53600
Sb	Sb	0.96333 0.70760 0.34144 0.52100
Cl	Cl	0.53234 0.72214 0.90852 -0.95200
Cl	Cl	0.27327 0.84534 0.94706 -0.46000
Cl	Cl	0.24317 0.84690 0.80766 -0.46700
Cl	Cl	0.63539 0.89486 0.82417 -0.46800
Cl	Cl	0.79099 0.75027 0.93752 -0.48300
Cl	Cl	0.76531 0.74937 0.80873 -0.47900
Cl	Cl	0.57837 0.51950 0.08100 -0.49600
Cl	Cl	0.17156 0.62106 0.45161 -0.96100
Cl	Cl	0.10471 0.83609 0.42816 -0.46800
Cl	Cl	0.12930 0.83459 0.29229 -0.46700
Cl	Cl	0.41520 0.50610 0.59710 -0.54300
Cl	Cl	0.00890 0.49600 0.43998 -0.67100
Cl	Cl	0.88225 0.64173 0.42256 -0.53000
Cl	Cl	0.45150 0.51480 0.42780 -0.53200
O 	O 	0.42690 0.74210 0.98390 -0.49300
O 	O 	0.33330 0.74220 0.91640 -0.46800
O 	O 	0.39700 0.74780 0.83450 -0.49400
O 	O 	0.41410 0.85180 0.78600 -0.44800
O 	O 	0.49990 0.85540 0.85090 -0.48200
O 	O 	0.44590 0.84530 0.93470 -0.45100
O 	O 	0.43550 0.63780 0.00460 -0.46100
O 	O 	0.41350 0.63930 0.90390 -0.46200
O 	O 	0.50230 0.74600 0.77430 -0.44600
O 	O 	0.58080 0.81120 0.79380 -0.47900
O 	O 	0.60890 0.80980 0.93370 -0.46400
O 	O 	0.55280 0.73810 0.02500 -0.45400
O 	O 	0.54850 0.59170 0.96210 -0.50500
O 	O 	0.63690 0.69570 0.83370 -0.48100
O 	O 	0.66790 0.69420 0.98360 -0.48000
O 	O 	0.67770 0.58830 0.00530 -0.44100
O 	O 	0.66100 0.58710 0.90740 -0.46500
O 	O 	0.73460 0.66030 0.91800 -0.47400
O 	O 	0.02940 0.73850 0.46580 -0.46500
O 	O 	0.00250 0.69480 0.41000 -0.50400
O 	O 	0.05120 0.73630 0.32160 -0.44500
O 	O 	0.20470 0.70060 0.34690 -0.48000
O 	O 	0.23360 0.74280 0.40510 -0.46200
O 	O 	0.18060 0.70190 0.49570 -0.48400
O 	O 	0.32660 0.64260 0.50070 -0.45600
O 	O 	0.11630 0.63970 0.56930 -0.43800
O 	O 	0.13120 0.54600 0.55870 -0.48900
O 	O 	0.34470 0.54780 0.49160 -0.46100
O 	O 	0.27960 0.48590 0.56490 -0.45600
O 	O 	0.99950 0.63160 0.50920 -0.47700
O 	O 	0.02990 0.62290 0.36950 -0.46700
O 	O 	0.16160 0.53420 0.41210 -0.48000
O 	O 	0.15520 0.48300 0.51080 -0.47700
O 	O 	0.16800 0.62810 0.32640 -0.45900
O 	O 	0.34300 0.63940 0.40330 -0.45600
O 	O 	0.29790 0.47720 0.46980 -0.47500
S 	S 	0.24016 0.08091 0.71629 0.07500
O 	O 	0.32680 0.92390 0.83420 -0.47700
O 	O 	0.38610 0.97950 0.77860 -0.30700
O 	O 	0.02580 0.17010 0.64690 -0.46300
O 	O 	0.12500 0.19860 0.64930 -0.30400
C 	C 	0.32830 0.96830 0.79370 0.38400
C 	C 	0.25160 0.01020 0.76190 -0.10000
C 	C 	0.18260 0.00270 0.76410 -0.00400
H 	H 	0.17630 0.96720 0.78800 0.07300
C 	C 	0.12190 0.05250 0.72760 0.00300
H 	H 	0.07080 0.05370 0.72300 0.06500
C 	C 	0.14380 0.09860 0.69960 -0.09800
C 	C 	0.09350 0.16010 0.66190 0.36700
C 	C 	0.63000 0.62430 0.76980 0.59900
C 	C 	0.64930 0.59200 0.73930 -0.16500
C 	C 	0.68140 0.54010 0.68880 -0.04500
S 	S 	0.68480 0.60540 0.68513 0.05400
O 	O 	0.60510 0.60970 0.80920 -0.32200
O 	O 	0.64100 0.67320 0.74120 -0.28300
O 	O 	0.71240 0.48370 0.64700 -0.09200
O 	O 	0.73540 0.56770 0.60680 -0.42400
C 	C 	0.63560 0.53900 0.75890 0.00800
H 	H 	0.61520 0.52430 0.79020 0.03100
C 	C 	0.65340 0.50940 0.73050 -0.01500
H 	H 	0.64690 0.47350 0.73890 0.06200
C 	C 	0.71150 0.53170 0.64210 0.79500
S 	S 	0.27825 0.70042 0.68769 0.08700
O 	O 	0.43690 0.64900 0.80140 -0.46300
O 	O 	0.31890 0.71730 0.77490 -0.31100
O 	O 	0.19770 0.71020 0.59500 -0.31700
O 	O 	0.28340 0.62950 0.59900 -0.48600
C 	C 	0.37150 0.67650 0.77310 0.38000
C 	C 	0.35790 0.65730 0.73560 -0.10600
C 	C 	0.40210 0.60930 0.73200 -0.00200
H 	H 	0.44860 0.58050 0.75480 0.04200
C 	C 	0.37010 0.60790 0.68990 -0.00200
H 	H 	0.39340 0.57720 0.68150 0.04400
C 	C 	0.30420 0.65320 0.66250 -0.10900
C 	C 	0.25720 0.66600 0.61460 0.40400
S 	S 	0.22710 0.42710 0.78330 0.38100
O 	O 	0.24690 0.51070 0.64490 -0.14000
O 	O 	0.13250 0.51960 0.67280 -0.33000
O 	O 	0.33650 0.39240 0.91270 -0.44800
O 	O 	0.26940 0.34400 0.90050 -0.25400
C 	C 	0.20610 0.49770 0.67990 0.20000
C 	C 	0.25460 0.47700 0.73200 -0.04500
C 	C 	0.31420 0.48540 0.75140 -0.08800
H 	H 	0.33780 0.51140 0.72910 0.06300
C 	C 	0.33790 0.45420 0.80470 -0.00200
H 	H 	0.37790 0.45580 0.82290 0.04900
C 	C 	0.29380 0.42060 0.82670 0.04300
C 	C 	0.29840 0.38310 0.88500 0.30100
S 	S 	0.36720 0.69150 0.18350 -0.00500
O 	O 	0.33830 0.60260 0.32390 -0.46200
O 	O 	0.29940 0.70090 0.27210 -0.25500
O 	O 	0.49730 0.63420 0.09790 -0.60700
O 	O 	0.41140 0.72240 0.08380 -0.19000
C 	C 	0.34050 0.64830 0.28590 -0.54300
C 	C 	0.38360 0.63440 0.24530 0.17700
C 	C 	0.43260 0.58500 0.24950 -0.14200
H 	H 	0.44800 0.54910 0.28130 0.11100
C 	C 	0.45910 0.58840 0.20660 -0.03200
H 	H 	0.49480 0.55570 0.20450 0.05300
C 	C 	0.43040 0.64270 0.16640 0.07000
C 	C 	0.44460 0.66720 0.10950 -0.35400
O 	O 	0.38590 0.52960 0.60370 0.12500
O 	O 	0.43180 0.49260 0.42120 0.09600
S 	S 	0.73170 0.55020 0.72930 0.07200
O 	O 	0.57110 0.63100 0.79110 -0.26300
O 	O 	0.69610 0.61800 0.78700 -0.27400
O 	O 	0.68600 0.47400 0.65400 -0.16500
O 	O 	0.79200 0.48400 0.67800 -0.13100
C 	C 	0.58010 0.60040 0.71440 0.01100
H 	H 	0.52900 0.62230 0.71550 0.03300
C 	C 	0.60390 0.56900 0.68730 -0.05700
H 	H 	0.56610 0.56740 0.66730 0.05300
C 	C 	0.72000 0.50190 0.66290 -0.51600
S 	S 	0.20160 0.45340 0.78590 -0.31500
O 	O 	0.24960 0.53370 0.64250 -0.27900
O 	O 	0.14970 0.50530 0.67010 0.07500
O 	O 	0.35540 0.37820 0.90770 -0.00300
O 	O 	0.22690 0.40420 0.90450 -0.17700
C 	C 	0.21550 0.50710 0.67650 0.02600
C 	C 	0.24980 0.47310 0.73430 -0.00700
C 	C 	0.32540 0.46610 0.74380 0.04700
H 	H 	0.36020 0.47480 0.72000 0.02600
C 	C 	0.33770 0.44320 0.79690 -0.00700
H 	H 	0.38730 0.43420 0.81340 0.02000
C 	C 	0.28200 0.43280 0.82710 -0.10900
C 	C 	0.28780 0.39820 0.88560 0.09000
Cl	Cl	0.46050 0.65820 0.10120 0.60900
Cl	Cl	0.32920 0.64850 0.29580 0.69400
