data_crystal

_cell_length_a 7.94200
_cell_length_b 8.46430
_cell_length_c 19.64400
_cell_angle_alpha 87.86990
_cell_angle_beta  85.45590
_cell_angle_gamma 62.02110

_symmetry_space_group_name_	'P 1'
_symmetry_space_group_name_H-M	'P 1'

loop_
_symmetry_equiv_pos_as_xyz
  x,y,z

loop_
_atom_site_label
_atom_site_type_symbol
_atom_site_fract_x
_atom_site_fract_y
_atom_site_fract_z
_atom_site_charge
Tb	Tb	0.79345 0.92574 0.48774 1.86300
Tb	Tb	0.28081 0.92574 0.01226 1.86500
Tb	Tb	0.20655 0.07426 0.51226 1.86300
Tb	Tb	0.71919 0.07426 0.98774 1.86500
H 	H 	0.24470 0.53380 0.32180 0.19300
H 	H 	0.05570 0.55160 0.29520 0.17600
H 	H 	0.00970 0.80680 0.23450 -0.05800
H 	H 	0.67880 0.52900 0.46100 0.19400
H 	H 	0.85120 0.43920 0.40650 0.18700
H 	H 	0.64080 0.45680 0.32530 -0.09200
H 	H 	0.46800 0.54600 0.37980 -0.07900
H 	H 	0.50590 0.75980 0.30240 0.20700
H 	H 	0.69640 0.71400 0.33620 0.19700
H 	H 	0.22150 0.53380 0.17820 0.19300
H 	H 	0.39270 0.55160 0.20480 0.17700
H 	H 	0.18350 0.80680 0.26550 -0.05800
H 	H 	0.79220 0.52900 0.03900 0.19500
H 	H 	0.70960 0.43920 0.09350 0.18700
H 	H 	0.90240 0.45680 0.17470 -0.09200
H 	H 	0.98600 0.54600 0.12020 -0.08000
H 	H 	0.73430 0.75980 0.19760 0.20700
H 	H 	0.58960 0.71400 0.16380 0.19800
H 	H 	0.75530 0.46620 0.67820 0.19300
H 	H 	0.94430 0.44840 0.70480 0.17600
H 	H 	0.99030 0.19320 0.76550 -0.05800
H 	H 	0.32120 0.47100 0.53900 0.19400
H 	H 	0.14880 0.56080 0.59350 0.18700
H 	H 	0.35920 0.54320 0.67470 -0.09200
H 	H 	0.53200 0.45400 0.62020 -0.07900
H 	H 	0.49410 0.24020 0.69760 0.20700
H 	H 	0.30360 0.28600 0.66380 0.19700
H 	H 	0.77850 0.46620 0.82180 0.19300
H 	H 	0.60730 0.44840 0.79520 0.17700
H 	H 	0.81650 0.19320 0.73450 -0.05800
H 	H 	0.20780 0.47100 0.96100 0.19500
H 	H 	0.29040 0.56080 0.90650 0.18700
H 	H 	0.09760 0.54320 0.82530 -0.09200
H 	H 	0.01400 0.45400 0.87980 -0.08000
H 	H 	0.26570 0.24020 0.80240 0.20700
H 	H 	0.41040 0.28600 0.83620 0.19800
C 	C 	0.00600 0.72660 0.37190 0.45900
C 	C 	0.11730 0.61900 0.30960 -0.54700
C 	C 	0.75250 0.26920 0.44380 0.53600
C 	C 	0.72720 0.44980 0.42180 -0.58800
C 	C 	0.59260 0.53460 0.36490 0.36800
C 	C 	0.57090 0.72120 0.34430 -0.60900
C 	C 	0.45940 0.85380 0.39960 0.53700
C 	C 	0.26740 0.72660 0.12810 0.45800
C 	C 	0.26370 0.61900 0.19040 -0.54700
C 	C 	0.97830 0.26920 0.05620 0.53800
C 	C 	0.82300 0.44980 0.07820 -0.59000
C 	C 	0.87280 0.53460 0.13510 0.37000
C 	C 	0.70790 0.72120 0.15570 -0.61100
C 	C 	0.68680 0.85380 0.10040 0.53700
C 	C 	0.99400 0.27340 0.62810 0.45900
C 	C 	0.88270 0.38100 0.69040 -0.54700
C 	C 	0.24750 0.73080 0.55620 0.53600
C 	C 	0.27280 0.55020 0.57820 -0.58800
C 	C 	0.40740 0.46540 0.63510 0.36800
C 	C 	0.42910 0.27880 0.65570 -0.60900
C 	C 	0.54060 0.14620 0.60040 0.53700
C 	C 	0.73260 0.27340 0.87190 0.45800
C 	C 	0.73630 0.38100 0.80960 -0.54700
C 	C 	0.02170 0.73080 0.94380 0.53800
C 	C 	0.17700 0.55020 0.92180 -0.59000
C 	C 	0.12720 0.46540 0.86490 0.37000
C 	C 	0.29210 0.27880 0.84430 -0.61100
C 	C 	0.31320 0.14620 0.89960 0.53700
C 	C 	0.13440 0.73120 0.25000 0.34000
C 	C 	0.86560 0.26880 0.75000 0.34000
O 	O 	0.90670 0.89220 0.36920 -0.44900
O 	O 	0.01110 0.64480 0.42830 -0.48200
O 	O 	0.61930 0.22660 0.44130 -0.47600
O 	O 	0.91040 0.15560 0.46640 -0.60600
O 	O 	0.53900 0.91040 0.43940 -0.61500
O 	O 	0.28200 0.90580 0.40830 -0.48700
O 	O 	0.20110 0.89220 0.13080 -0.44800
O 	O 	0.34410 0.64480 0.07170 -0.48100
O 	O 	0.15410 0.22660 0.05870 -0.47700
O 	O 	0.93400 0.15560 0.03360 -0.60500
O 	O 	0.55060 0.91040 0.06060 -0.61600
O 	O 	0.81220 0.90580 0.09170 -0.48900
O 	O 	0.09330 0.10780 0.63080 -0.44900
O 	O 	0.98890 0.35520 0.57170 -0.48200
O 	O 	0.38070 0.77340 0.55870 -0.47600
O 	O 	0.08960 0.84440 0.53360 -0.60600
O 	O 	0.46100 0.08960 0.56060 -0.61500
O 	O 	0.71800 0.09420 0.59170 -0.48700
O 	O 	0.79890 0.10780 0.86920 -0.44800
O 	O 	0.65590 0.35520 0.92830 -0.48100
O 	O 	0.84590 0.77340 0.94130 -0.47700
O 	O 	0.06600 0.84440 0.96640 -0.60500
O 	O 	0.44940 0.08960 0.93940 -0.61600
O 	O 	0.18780 0.09420 0.90830 -0.48900
