data_crystal

_cell_length_a 13.37510
_cell_length_b 14.38470
_cell_length_c 11.31780
_cell_angle_alpha 90.00000
_cell_angle_beta  111.40500
_cell_angle_gamma 90.00000

_symmetry_space_group_name_	'P 1'
_symmetry_space_group_name_H-M	'P 1'

loop_
_symmetry_equiv_pos_as_xyz
  x,y,z

loop_
_atom_site_label
_atom_site_type_symbol
_atom_site_fract_x
_atom_site_fract_y
_atom_site_fract_z
_atom_site_charge
O 	O 	0.86560 0.97390 0.29140 -0.29600
O 	O 	0.88980 0.03350 0.12380 -0.43200
C 	C 	0.84300 0.97830 0.17560 0.40800
C 	C 	0.75660 0.91750 0.08800 -0.14800
C 	C 	0.70700 0.84990 0.13560 0.09000
H 	H 	0.72610 0.84410 0.22290 0.04900
C 	C 	0.57990 0.71760 0.11300 0.38200
C 	C 	0.72590 0.92600 0.95690 0.09800
H 	H 	0.75770 0.97080 0.92280 0.04400
C 	C 	0.63060 0.79160 0.05630 -0.15400
C 	C 	0.60140 0.80000 0.92640 0.10500
H 	H 	0.55030 0.76010 0.87240 0.01400
O 	O 	0.60230 0.71570 0.22850 -0.39600
O 	O 	0.51640 0.66280 0.04150 -0.39600
C 	C 	0.64790 0.86730 0.87710 -0.14800
H 	H 	0.62700 0.87360 0.78960 0.10100
O 	O 	0.36560 0.47390 0.29140 -0.37000
O 	O 	0.38980 0.53350 0.12380 -0.47500
C 	C 	0.34300 0.47830 0.17560 0.37700
C 	C 	0.25660 0.41750 0.08800 -0.19200
C 	C 	0.20700 0.34990 0.13560 0.11300
H 	H 	0.22610 0.34410 0.22290 0.01400
C 	C 	0.07990 0.21760 0.11300 0.40300
C 	C 	0.22590 0.42600 0.95690 0.11500
H 	H 	0.25770 0.47080 0.92280 0.00600
C 	C 	0.13060 0.29160 0.05630 -0.21300
C 	C 	0.10140 0.30000 0.92640 0.13100
H 	H 	0.05030 0.26010 0.87240 -0.04500
O 	O 	0.10230 0.21570 0.22850 -0.45600
O 	O 	0.01640 0.16280 0.04150 -0.47800
C 	C 	0.14790 0.36730 0.87710 -0.20000
H 	H 	0.12700 0.37360 0.78960 0.07300
O 	O 	0.13440 0.97390 0.20860 -0.39700
O 	O 	0.11020 0.03350 0.37620 -0.56200
C 	C 	0.15700 0.97830 0.32440 0.43000
C 	C 	0.24340 0.91750 0.41200 -0.15100
C 	C 	0.29300 0.84990 0.36440 0.08000
H 	H 	0.27390 0.84410 0.27710 0.02800
C 	C 	0.42010 0.71760 0.38700 0.37600
C 	C 	0.27410 0.92600 0.54310 0.07100
H 	H 	0.24230 0.97080 0.57720 0.03900
C 	C 	0.36940 0.79160 0.44370 -0.12700
C 	C 	0.39860 0.80000 0.57360 0.06600
H 	H 	0.44970 0.76010 0.62760 0.02600
O 	O 	0.39770 0.71570 0.27150 -0.41000
O 	O 	0.48360 0.66280 0.45850 -0.38300
C 	C 	0.35210 0.86730 0.62290 -0.12300
H 	H 	0.37300 0.87360 0.71040 0.09200
O 	O 	0.63440 0.47390 0.20860 -0.35800
O 	O 	0.61020 0.53350 0.37620 -0.45500
C 	C 	0.65700 0.47830 0.32440 0.35800
C 	C 	0.74340 0.41750 0.41200 -0.09600
C 	C 	0.79300 0.34990 0.36440 0.04000
H 	H 	0.77390 0.34410 0.27710 0.05800
C 	C 	0.92010 0.21760 0.38700 0.34600
C 	C 	0.77410 0.42600 0.54310 0.03600
H 	H 	0.74230 0.47080 0.57720 0.04900
C 	C 	0.86940 0.29160 0.44370 -0.06700
C 	C 	0.89860 0.30000 0.57360 0.03100
H 	H 	0.94970 0.26010 0.62760 0.08600
O 	O 	0.89770 0.21570 0.27150 -0.33500
O 	O 	0.98360 0.16280 0.45850 -0.28900
C 	C 	0.85210 0.36730 0.62290 -0.07100
H 	H 	0.87300 0.37360 0.71040 0.10600
O 	O 	0.13440 0.02610 0.70860 -0.40300
O 	O 	0.11020 0.96650 0.87620 -0.44600
C 	C 	0.15700 0.02170 0.82440 0.29200
C 	C 	0.24340 0.08250 0.91200 -0.07200
C 	C 	0.29300 0.15010 0.86440 0.00700
H 	H 	0.27390 0.15590 0.77710 0.04700
C 	C 	0.42010 0.28240 0.88700 0.35100
C 	C 	0.27410 0.07400 0.04310 -0.02900
H 	H 	0.24230 0.02920 0.07720 0.03500
C 	C 	0.36940 0.20840 0.94370 -0.06300
C 	C 	0.39860 0.20000 0.07360 -0.02300
H 	H 	0.44970 0.23990 0.12760 0.05000
O 	O 	0.39770 0.28430 0.77150 -0.40700
O 	O 	0.48360 0.33720 0.95850 -0.37200
C 	C 	0.35210 0.13270 0.12290 -0.05200
H 	H 	0.37300 0.12640 0.21040 0.05100
O 	O 	0.63440 0.52610 0.70860 -0.34800
O 	O 	0.61020 0.46650 0.87620 -0.44600
C 	C 	0.65700 0.52170 0.82440 0.34000
C 	C 	0.74340 0.58250 0.91200 -0.04000
C 	C 	0.79300 0.65010 0.86440 -0.00800
H 	H 	0.77390 0.65590 0.77710 0.07800
C 	C 	0.92010 0.78240 0.88700 0.32600
C 	C 	0.77410 0.57400 0.04310 -0.03500
H 	H 	0.74230 0.52920 0.07720 0.06900
C 	C 	0.86940 0.70840 0.94370 -0.01000
C 	C 	0.89860 0.70000 0.07360 -0.04100
H 	H 	0.94970 0.73990 0.12760 0.10700
O 	O 	0.89770 0.78430 0.77150 -0.32200
O 	O 	0.98360 0.83720 0.95850 -0.26900
C 	C 	0.85210 0.63270 0.12290 -0.00900
H 	H 	0.87300 0.62640 0.21040 0.08300
O 	O 	0.86560 0.02610 0.79140 -0.29900
O 	O 	0.88980 0.96650 0.62380 -0.32700
C 	C 	0.84300 0.02170 0.67560 0.28400
C 	C 	0.75660 0.08250 0.58800 -0.07400
C 	C 	0.70700 0.15010 0.63560 0.02200
H 	H 	0.72610 0.15590 0.72290 0.06600
C 	C 	0.57990 0.28240 0.61300 0.35800
C 	C 	0.72590 0.07400 0.45690 0.00500
H 	H 	0.75770 0.02920 0.42280 0.04100
C 	C 	0.63060 0.20840 0.55630 -0.09400
C 	C 	0.60140 0.20000 0.42640 0.02000
H 	H 	0.55030 0.23990 0.37240 0.03600
O 	O 	0.60230 0.28430 0.72850 -0.39400
O 	O 	0.51640 0.33720 0.54150 -0.38500
C 	C 	0.64790 0.13270 0.37710 -0.08200
H 	H 	0.62700 0.12640 0.28960 0.06200
O 	O 	0.36560 0.52610 0.79140 -0.35900
O 	O 	0.38980 0.46650 0.62380 -0.46600
C 	C 	0.34300 0.52170 0.67560 0.35800
C 	C 	0.25660 0.58250 0.58800 -0.13300
C 	C 	0.20700 0.65010 0.63560 0.06200
H 	H 	0.22610 0.65590 0.72290 0.03500
C 	C 	0.07990 0.78240 0.61300 0.38100
C 	C 	0.22590 0.57400 0.45690 0.04100
H 	H 	0.25770 0.52920 0.42280 0.02700
C 	C 	0.13060 0.70840 0.55630 -0.15000
C 	C 	0.10140 0.70000 0.42640 0.05400
H 	H 	0.05030 0.73990 0.37240 -0.02100
O 	O 	0.10230 0.78430 0.72850 -0.44000
O 	O 	0.01640 0.83720 0.54150 -0.45100
C 	C 	0.14790 0.63270 0.37710 -0.13500
H 	H 	0.12700 0.62640 0.28960 0.04800
Co	Co	-0.00000 0.11366 0.25000 1.09500
Co	Co	0.50000 0.61366 0.25000 1.17700
Co	Co	0.00000 0.88634 0.75000 1.10500
Co	Co	0.50000 0.38634 0.75000 1.17600
Na	Na	0.00000 -0.00000 0.50000 0.56000
Na	Na	0.50000 0.50000 0.50000 0.59100
Na	Na	-0.00000 0.00000 -0.00000 0.55800
Na	Na	0.50000 0.50000 -0.00000 0.58900
