data_crystal

_cell_length_a 14.73660
_cell_length_b 13.59850
_cell_length_c 11.33690
_cell_angle_alpha 90.00000
_cell_angle_beta  113.14100
_cell_angle_gamma 90.00000

_symmetry_space_group_name_	'P 1'
_symmetry_space_group_name_H-M	'P 1'

loop_
_symmetry_equiv_pos_as_xyz
  x,y,z

loop_
_atom_site_label
_atom_site_type_symbol
_atom_site_fract_x
_atom_site_fract_y
_atom_site_fract_z
_atom_site_charge
C 	C 	0.34690 0.48470 0.15430 0.35300
C 	C 	0.26030 0.42350 0.07030 -0.17000
C 	C 	0.21270 0.36250 0.12590 0.09200
H 	H 	0.23310 0.36150 0.21460 0.02100
C 	C 	0.13490 0.30300 0.05070 -0.19200
C 	C 	0.08510 0.23490 0.11150 0.36800
C 	C 	0.10390 0.30600 0.91800 0.10900
H 	H 	0.05220 0.26600 0.86670 -0.04400
C 	C 	0.22810 0.42690 0.93750 0.10000
H 	H 	0.25900 0.46810 0.89940 0.01200
C 	C 	0.14960 0.36840 0.86230 -0.18100
H 	H 	0.12760 0.37120 0.77340 0.06500
O 	O 	0.38530 0.54120 0.09600 -0.45400
O 	O 	0.37670 0.48100 0.27300 -0.37800
O 	O 	0.02490 0.17300 0.04460 -0.48600
O 	O 	0.10530 0.24330 0.22930 -0.43700
C 	C 	0.84690 0.98470 0.15430 0.38300
C 	C 	0.76030 0.92350 0.07030 -0.13100
C 	C 	0.71270 0.86250 0.12590 0.07200
H 	H 	0.73310 0.86150 0.21460 0.05100
C 	C 	0.63490 0.80300 0.05070 -0.13600
C 	C 	0.58510 0.73490 0.11150 0.35000
C 	C 	0.60390 0.80600 0.91800 0.08600
H 	H 	0.55220 0.76600 0.86670 0.01900
C 	C 	0.72810 0.92690 0.93750 0.08300
H 	H 	0.75900 0.96810 0.89940 0.04700
C 	C 	0.64960 0.86840 0.86230 -0.13200
H 	H 	0.62760 0.87120 0.77340 0.09400
O 	O 	0.88530 0.04120 0.09600 -0.41800
O 	O 	0.87670 0.98100 0.27300 -0.30300
O 	O 	0.52490 0.67300 0.04460 -0.40200
O 	O 	0.60530 0.74330 0.22930 -0.37600
C 	C 	0.65310 0.48470 0.34570 0.33500
C 	C 	0.73970 0.42350 0.42970 -0.08300
C 	C 	0.78730 0.36250 0.37410 0.02700
H 	H 	0.76690 0.36150 0.28540 0.05700
C 	C 	0.86510 0.30300 0.44930 -0.05700
C 	C 	0.91490 0.23490 0.38850 0.31900
C 	C 	0.89610 0.30600 0.58200 0.02000
H 	H 	0.94780 0.26600 0.63330 0.09100
C 	C 	0.77190 0.42690 0.56250 0.02500
H 	H 	0.74100 0.46810 0.60060 0.05100
C 	C 	0.85040 0.36840 0.63770 -0.06000
H 	H 	0.87240 0.37120 0.72660 0.10200
O 	O 	0.61470 0.54120 0.40400 -0.43600
O 	O 	0.62330 0.48100 0.22700 -0.37000
O 	O 	0.97510 0.17300 0.45540 -0.29900
O 	O 	0.89470 0.24330 0.27070 -0.32300
C 	C 	0.15310 0.98470 0.34570 0.40400
C 	C 	0.23970 0.92350 0.42970 -0.13000
C 	C 	0.28730 0.86250 0.37410 0.06200
H 	H 	0.26690 0.86150 0.28540 0.03500
C 	C 	0.36510 0.80300 0.44930 -0.11000
C 	C 	0.41490 0.73490 0.38850 0.34300
C 	C 	0.39610 0.80600 0.58200 0.04900
H 	H 	0.44780 0.76600 0.63330 0.02900
C 	C 	0.27190 0.92690 0.56250 0.05600
H 	H 	0.24100 0.96810 0.60060 0.04400
C 	C 	0.35040 0.86840 0.63770 -0.10700
H 	H 	0.37240 0.87120 0.72660 0.08600
O 	O 	0.11470 0.04120 0.40400 -0.54200
O 	O 	0.12330 0.98100 0.22700 -0.40900
O 	O 	0.47510 0.67300 0.45540 -0.39100
O 	O 	0.39470 0.74330 0.27070 -0.38600
C 	C 	0.65310 0.51530 0.84570 0.31900
C 	C 	0.73970 0.57650 0.92970 -0.03200
C 	C 	0.78730 0.63750 0.87410 -0.01500
H 	H 	0.76690 0.63850 0.78540 0.07500
C 	C 	0.86510 0.69700 0.94930 -0.00600
C 	C 	0.91490 0.76510 0.88850 0.30300
C 	C 	0.89610 0.69400 0.08200 -0.04500
H 	H 	0.94780 0.73400 0.13330 0.11000
C 	C 	0.77190 0.57310 0.06250 -0.04000
H 	H 	0.74100 0.53190 0.10060 0.06900
C 	C 	0.85040 0.63160 0.13770 -0.00500
H 	H 	0.87240 0.62880 0.22660 0.08100
O 	O 	0.61470 0.45880 0.90400 -0.42700
O 	O 	0.62330 0.51900 0.72700 -0.36000
O 	O 	0.97510 0.82700 0.95540 -0.27900
O 	O 	0.89470 0.75670 0.77070 -0.31000
C 	C 	0.15310 0.01530 0.84570 0.27300
C 	C 	0.23970 0.07650 0.92970 -0.05600
C 	C 	0.28730 0.13750 0.87410 -0.00500
H 	H 	0.26690 0.13850 0.78540 0.04900
C 	C 	0.36510 0.19700 0.94930 -0.05300
C 	C 	0.41490 0.26510 0.88850 0.32100
C 	C 	0.39610 0.19400 0.08200 -0.03500
H 	H 	0.44780 0.23400 0.13330 0.05100
C 	C 	0.27190 0.07310 0.06250 -0.03900
H 	H 	0.24100 0.03190 0.10060 0.04000
C 	C 	0.35040 0.13160 0.13770 -0.04200
H 	H 	0.37240 0.12880 0.22660 0.04700
O 	O 	0.11470 0.95880 0.90400 -0.42800
O 	O 	0.12330 0.01900 0.72700 -0.41500
O 	O 	0.47510 0.32700 0.95540 -0.38100
O 	O 	0.39470 0.25670 0.77070 -0.38800
C 	C 	0.34690 0.51530 0.65430 0.33400
C 	C 	0.26030 0.57650 0.57030 -0.11400
C 	C 	0.21270 0.63750 0.62590 0.04500
H 	H 	0.23310 0.63850 0.71460 0.04100
C 	C 	0.13490 0.69700 0.55070 -0.13300
C 	C 	0.08510 0.76510 0.61150 0.34800
C 	C 	0.10390 0.69400 0.41800 0.03700
H 	H 	0.05220 0.73400 0.36670 -0.02100
C 	C 	0.22810 0.57310 0.43750 0.02900
H 	H 	0.25900 0.53190 0.39940 0.03300
C 	C 	0.14960 0.63160 0.36230 -0.12000
H 	H 	0.12760 0.62880 0.27340 0.04200
O 	O 	0.38530 0.45880 0.59600 -0.44500
O 	O 	0.37670 0.51900 0.77300 -0.36800
O 	O 	0.02490 0.82700 0.54460 -0.45900
O 	O 	0.10530 0.75670 0.72930 -0.42100
C 	C 	0.84690 0.01530 0.65430 0.26400
C 	C 	0.76030 0.07650 0.57030 -0.06400
C 	C 	0.71270 0.13750 0.62590 0.01100
H 	H 	0.73310 0.13850 0.71460 0.06400
C 	C 	0.63490 0.19700 0.55070 -0.08400
C 	C 	0.58510 0.26510 0.61150 0.33000
C 	C 	0.60390 0.19400 0.41800 0.01000
H 	H 	0.55220 0.23400 0.36670 0.03800
C 	C 	0.72810 0.07310 0.43750 -0.00300
H 	H 	0.75900 0.03190 0.39940 0.04200
C 	C 	0.64960 0.13160 0.36230 -0.07400
H 	H 	0.62760 0.12880 0.27340 0.05800
O 	O 	0.88530 0.95880 0.59600 -0.31600
O 	O 	0.87670 0.01900 0.77300 -0.30800
O 	O 	0.52490 0.32700 0.54460 -0.39300
O 	O 	0.60530 0.25670 0.72930 -0.37800
Na	Na	0.50000 0.50000 -0.00000 0.58500
Na	Na	-0.00000 0.00000 -0.00000 0.55300
Na	Na	0.50000 0.50000 0.50000 0.58700
Na	Na	0.00000 -0.00000 0.50000 0.55500
Cd	Cd	0.50000 0.62767 0.25000 1.23500
Cd	Cd	-0.00000 0.12767 0.25000 1.17000
Cd	Cd	0.50000 0.37233 0.75000 1.23500
Cd	Cd	0.00000 0.87233 0.75000 1.18100
