data_crystal

_cell_length_a 8.97800
_cell_length_b 8.97800
_cell_length_c 11.93400
_cell_angle_alpha 90.00000
_cell_angle_beta  90.00000
_cell_angle_gamma 90.00000

_symmetry_space_group_name_	'P 1'
_symmetry_space_group_name_H-M	'P 1'

loop_
_symmetry_equiv_pos_as_xyz
  x,y,z

loop_
_atom_site_label
_atom_site_type_symbol
_atom_site_fract_x
_atom_site_fract_y
_atom_site_fract_z
_atom_site_charge
C 	C 	0.26100 0.12200 0.12700 -0.32400
C 	C 	0.51400 0.26600 0.92400 -0.22100
C 	C 	0.73900 0.87800 0.62700 -0.27100
C 	C 	0.48600 0.73400 0.42400 -0.29900
C 	C 	0.37800 0.76100 0.37700 -0.28300
C 	C 	0.23400 0.01400 0.17400 -0.31000
C 	C 	0.62200 0.23900 0.87700 -0.27100
C 	C 	0.76600 0.98600 0.67400 -0.28300
C 	C 	0.23900 0.62200 0.12300 -0.29500
C 	C 	0.98600 0.76600 0.32600 -0.30800
C 	C 	0.76100 0.37800 0.62300 -0.27400
C 	C 	0.01400 0.23400 0.82600 -0.28700
C 	C 	0.12200 0.26100 0.87300 -0.21000
C 	C 	0.26600 0.51400 0.07600 -0.35000
C 	C 	0.87800 0.73900 0.37300 -0.28400
C 	C 	0.73400 0.48600 0.57600 -0.29500
Cd	Cd	0.29630 0.29630 -0.00000 1.11100
Cd	Cd	0.70370 0.70370 0.50000 1.15200
Cd	Cd	0.20370 0.79630 0.25000 1.14600
Cd	Cd	0.79630 0.20370 0.75000 1.15600
