data_crystal

_cell_length_a 9.12400
_cell_length_b 9.12400
_cell_length_c 11.33500
_cell_angle_alpha 90.00000
_cell_angle_beta  90.00000
_cell_angle_gamma 90.00000

_symmetry_space_group_name_	'P 1'
_symmetry_space_group_name_H-M	'P 1'

loop_
_symmetry_equiv_pos_as_xyz
  x,y,z

loop_
_atom_site_label
_atom_site_type_symbol
_atom_site_fract_x
_atom_site_fract_y
_atom_site_fract_z
_atom_site_charge
C 	C 	0.27400 0.13900 0.11600 -0.34300
C 	C 	0.52900 0.25800 0.91800 -0.20800
C 	C 	0.72600 0.86100 0.61600 -0.28700
C 	C 	0.47100 0.74200 0.41800 -0.28600
C 	C 	0.36100 0.77400 0.36600 -0.29900
C 	C 	0.24200 0.02900 0.16800 -0.29900
C 	C 	0.63900 0.22600 0.86600 -0.28500
C 	C 	0.75800 0.97100 0.66800 -0.26700
C 	C 	0.22600 0.63900 0.13400 -0.31100
C 	C 	0.97100 0.75800 0.33200 -0.29600
C 	C 	0.77400 0.36100 0.63400 -0.28900
C 	C 	0.02900 0.24200 0.83200 -0.27100
C 	C 	0.13900 0.27400 0.88400 -0.21900
C 	C 	0.25800 0.52900 0.08200 -0.33600
C 	C 	0.86100 0.72600 0.38400 -0.30000
C 	C 	0.74200 0.47100 0.58200 -0.28100
Cd	Cd	0.31790 0.31790 -0.00000 1.11400
Cd	Cd	0.68210 0.68210 0.50000 1.15500
Cd	Cd	0.18210 0.81790 0.25000 1.14900
Cd	Cd	0.81790 0.18210 0.75000 1.15900
