data_crystal

_cell_length_a 12.48300
_cell_length_b 12.48300
_cell_length_c 12.71900
_cell_angle_alpha 90.00000
_cell_angle_beta  90.00000
_cell_angle_gamma 90.00000

_symmetry_space_group_name_	'P 1'
_symmetry_space_group_name_H-M	'P 1'

loop_
_symmetry_equiv_pos_as_xyz
  x,y,z

loop_
_atom_site_label
_atom_site_type_symbol
_atom_site_fract_x
_atom_site_fract_y
_atom_site_fract_z
_atom_site_charge
Cd	Cd	0.96046 0.24420 0.08709 1.14100
C 	C 	0.06960 0.34550 0.18940 -0.24300
C 	C 	0.88420 0.37080 0.99040 -0.30100
C 	C 	0.08630 0.14510 0.01840 -0.29600
C 	C 	0.87490 0.16450 0.21540 -0.29900
Cd	Cd	0.03954 0.75580 0.58709 1.14200
C 	C 	0.93040 0.65450 0.68940 -0.24400
C 	C 	0.11580 0.62920 0.49040 -0.30600
C 	C 	0.91370 0.85490 0.51840 -0.29500
C 	C 	0.12510 0.83550 0.71540 -0.29700
Cd	Cd	0.25580 0.46046 0.33709 1.14400
C 	C 	0.15450 0.56960 0.43940 -0.24600
C 	C 	0.12920 0.38420 0.24040 -0.30500
C 	C 	0.35490 0.58630 0.26840 -0.29800
C 	C 	0.33550 0.37490 0.46540 -0.29500
Cd	Cd	0.74420 0.53954 0.83709 1.14400
C 	C 	0.84550 0.43040 0.93940 -0.24700
C 	C 	0.87080 0.61580 0.74040 -0.30500
C 	C 	0.64510 0.41370 0.76840 -0.29800
C 	C 	0.66450 0.62510 0.96540 -0.29500
Cd	Cd	0.53954 0.74420 0.16291 1.14400
C 	C 	0.43040 0.84550 0.06060 -0.24700
C 	C 	0.61580 0.87080 0.25960 -0.30500
C 	C 	0.41370 0.64510 0.23160 -0.29800
C 	C 	0.62510 0.66450 0.03460 -0.29500
Cd	Cd	0.46046 0.25580 0.66291 1.14400
C 	C 	0.56960 0.15450 0.56060 -0.24600
C 	C 	0.38420 0.12920 0.75960 -0.30500
C 	C 	0.58630 0.35490 0.73160 -0.29800
C 	C 	0.37490 0.33550 0.53460 -0.29500
Cd	Cd	0.24420 0.96046 0.91291 1.14000
C 	C 	0.34550 0.06960 0.81060 -0.24400
C 	C 	0.37080 0.88420 0.00960 -0.30100
C 	C 	0.14510 0.08630 0.98160 -0.29600
C 	C 	0.16450 0.87490 0.78460 -0.29900
Cd	Cd	0.75580 0.03954 0.41291 1.14200
C 	C 	0.65450 0.93040 0.31060 -0.24400
C 	C 	0.62920 0.11580 0.50960 -0.30600
C 	C 	0.85490 0.91370 0.48160 -0.29500
C 	C 	0.83550 0.12510 0.28460 -0.29700
