data_crystal

_cell_length_a 10.25440
_cell_length_b 16.38250
_cell_length_c 16.64090
_cell_angle_alpha 90.00000
_cell_angle_beta  103.78300
_cell_angle_gamma 90.00000

_symmetry_space_group_name_	'P 1'
_symmetry_space_group_name_H-M	'P 1'

loop_
_symmetry_equiv_pos_as_xyz
  x,y,z

loop_
_atom_site_label
_atom_site_type_symbol
_atom_site_fract_x
_atom_site_fract_y
_atom_site_fract_z
_atom_site_charge
Pb	Pb	0.53951 0.53171 0.82975 1.19900
P 	P 	0.57100 0.60527 0.03795 0.41600
S 	S 	0.76800 0.82344 0.28517 0.50400
C 	C 	0.60060 0.71090 0.06920 -0.08500
C 	C 	0.65620 0.72710 0.15280 0.03000
H 	H 	0.67620 0.68410 0.19030 0.01700
C 	C 	0.68200 0.80760 0.18050 -0.11700
C 	C 	0.65260 0.87150 0.12370 0.01800
H 	H 	0.66970 0.92520 0.14130 0.00900
C 	C 	0.59760 0.85440 0.04080 -0.09800
H 	H 	0.57650 0.89710 0.00300 0.05000
C 	C 	0.57380 0.77460 0.01360 0.00600
H 	H 	0.53970 0.76400 0.95760 0.03800
O 	O 	0.70320 0.55850 0.06680 -0.26500
O 	O 	0.51290 0.60450 0.94530 -0.37000
O 	O 	0.46380 0.57250 0.08090 -0.40100
O 	O 	0.90270 0.79890 0.28700 -0.34100
O 	O 	0.76200 0.91030 0.30260 -0.33200
O 	O 	0.70430 0.77320 0.33600 -0.27000
Pb	Pb	0.46049 0.46829 0.17025 1.19800
P 	P 	0.42900 0.39473 0.96205 0.41500
S 	S 	0.23200 0.17656 0.71483 0.50300
C 	C 	0.39940 0.28910 0.93080 -0.08600
C 	C 	0.34380 0.27290 0.84720 0.02900
H 	H 	0.32380 0.31590 0.80970 0.01600
C 	C 	0.31800 0.19240 0.81950 -0.11700
C 	C 	0.34740 0.12850 0.87630 0.01800
H 	H 	0.33030 0.07480 0.85870 0.00900
C 	C 	0.40240 0.14560 0.95920 -0.09800
H 	H 	0.42350 0.10290 0.99700 0.05000
C 	C 	0.42620 0.22540 0.98640 0.00600
H 	H 	0.46030 0.23600 0.04240 0.03800
O 	O 	0.29680 0.44150 0.93320 -0.26500
O 	O 	0.48710 0.39550 0.05470 -0.37000
O 	O 	0.53620 0.42750 0.91910 -0.40100
O 	O 	0.09730 0.20110 0.71300 -0.34100
O 	O 	0.23800 0.08970 0.69740 -0.33200
O 	O 	0.29570 0.22680 0.66400 -0.27000
Pb	Pb	0.96049 0.03171 0.67025 1.19600
P 	P 	0.92900 0.10527 0.46205 0.41200
S 	S 	0.73200 0.32344 0.21483 0.50300
C 	C 	0.89940 0.21090 0.43080 -0.08700
C 	C 	0.84380 0.22710 0.34720 0.03000
H 	H 	0.82380 0.18410 0.30970 0.01600
C 	C 	0.81800 0.30760 0.31950 -0.11800
C 	C 	0.84740 0.37150 0.37630 0.01900
H 	H 	0.83030 0.42520 0.35870 0.00800
C 	C 	0.90240 0.35440 0.45920 -0.09900
H 	H 	0.92350 0.39710 0.49700 0.05100
C 	C 	0.92620 0.27460 0.48640 0.00800
H 	H 	0.96030 0.26400 0.54240 0.03600
O 	O 	0.79680 0.05850 0.43320 -0.26500
O 	O 	0.98710 0.10450 0.55470 -0.37100
O 	O 	0.03620 0.07250 0.41910 -0.39600
O 	O 	0.59730 0.29890 0.21300 -0.34300
O 	O 	0.73800 0.41030 0.19740 -0.33400
O 	O 	0.79570 0.27320 0.16400 -0.27100
Pb	Pb	0.03951 0.96829 0.32975 1.19600
P 	P 	0.07100 0.89473 0.53795 0.41200
S 	S 	0.26800 0.67656 0.78517 0.50300
C 	C 	0.10060 0.78910 0.56920 -0.08700
C 	C 	0.15620 0.77290 0.65280 0.03000
H 	H 	0.17620 0.81590 0.69030 0.01600
C 	C 	0.18200 0.69240 0.68050 -0.11800
C 	C 	0.15260 0.62850 0.62370 0.01900
H 	H 	0.16970 0.57480 0.64130 0.00800
C 	C 	0.09760 0.64560 0.54080 -0.09900
H 	H 	0.07650 0.60290 0.50300 0.05100
C 	C 	0.07380 0.72540 0.51360 0.00800
H 	H 	0.03970 0.73600 0.45760 0.03600
O 	O 	0.20320 0.94150 0.56680 -0.26500
O 	O 	0.01290 0.89550 0.44530 -0.37100
O 	O 	0.96380 0.92750 0.58090 -0.39600
O 	O 	0.40270 0.70110 0.78700 -0.34300
O 	O 	0.26200 0.58970 0.80260 -0.33400
O 	O 	0.20430 0.72680 0.83600 -0.27100
