data_crystal

_cell_length_a 10.32700
_cell_length_b 12.12900
_cell_length_c 15.07300
_cell_angle_alpha 90.00000
_cell_angle_beta  106.28800
_cell_angle_gamma 90.00000

_symmetry_space_group_name_	'P 1'
_symmetry_space_group_name_H-M	'P 1'

loop_
_symmetry_equiv_pos_as_xyz
  x,y,z

loop_
_atom_site_label
_atom_site_type_symbol
_atom_site_fract_x
_atom_site_fract_y
_atom_site_fract_z
_atom_site_charge
U 	U 	0.16176 0.07060 0.57247 0.00500
U 	U 	0.22351 0.60399 0.25914 0.01400
U 	U 	0.27649 0.10399 0.24086 0.01500
U 	U 	0.33824 0.57060 0.92753 0.00700
U 	U 	0.72351 0.89601 0.75914 0.01500
U 	U 	0.66176 0.42940 0.07247 0.00700
U 	U 	0.83824 0.92940 0.42753 0.00600
U 	U 	0.77649 0.39601 0.74086 0.01500
H 	H 	0.34940 0.81270 0.43170 0.16100
H 	H 	0.11950 0.93530 0.00950 0.14800
H 	H 	0.38050 0.43530 0.49050 0.14800
H 	H 	0.61950 0.56470 0.50950 0.14800
H 	H 	0.15060 0.31270 0.06830 0.16000
H 	H 	0.88050 0.06470 0.99050 0.14800
H 	H 	0.65060 0.18730 0.56830 0.16100
H 	H 	0.84940 0.68730 0.93170 0.16000
C 	C 	0.91470 0.13320 0.98070 -0.19100
C 	C 	0.04850 0.44400 0.91710 0.24100
C 	C 	0.00660 0.33520 0.94640 0.10300
C 	C 	0.57590 0.21960 0.52710 -0.19000
C 	C 	0.73070 0.15460 0.83030 0.24300
C 	C 	0.95150 0.55600 0.08290 0.24100
C 	C 	0.85270 0.19350 0.90370 0.10800
C 	C 	0.58530 0.63320 0.51930 -0.19300
C 	C 	0.49340 0.83520 0.55360 0.10600
C 	C 	0.99340 0.66480 0.05360 0.10300
C 	C 	0.96860 0.82390 0.95480 0.26600
C 	C 	0.64730 0.69350 0.59630 0.10900
C 	C 	0.23070 0.34540 0.33030 0.24300
C 	C 	0.03140 0.17610 0.04520 0.26600
C 	C 	0.42410 0.78040 0.47290 -0.19000
C 	C 	0.08530 0.86680 0.01930 -0.19100
C 	C 	0.45150 0.94400 0.58290 0.24200
C 	C 	0.07590 0.28040 0.02710 -0.18600
C 	C 	0.26930 0.84540 0.16970 0.24300
C 	C 	0.50660 0.16480 0.44640 0.10600
C 	C 	0.76930 0.65460 0.66970 0.24300
C 	C 	0.35270 0.30650 0.40370 0.10900
C 	C 	0.14730 0.80650 0.09630 0.10800
C 	C 	0.54850 0.05600 0.41710 0.24200
C 	C 	0.41470 0.36680 0.48070 -0.19300
C 	C 	0.53140 0.32390 0.54520 0.26800
C 	C 	0.92410 0.71960 0.97290 -0.18600
C 	C 	0.46860 0.67610 0.45480 0.26800
N 	N 	0.39510 0.20670 0.38510 -0.09500
N 	N 	0.60490 0.79330 0.61490 -0.09500
N 	N 	0.89510 0.29330 0.88510 -0.09300
N 	N 	0.10490 0.70670 0.11490 -0.09300
O 	O 	0.68800 0.05690 0.83660 -0.14900
O 	O 	0.42940 0.44540 0.04700 -0.04600
O 	O 	0.07060 0.94540 0.45300 -0.04600
O 	O 	0.58960 0.38040 0.62020 -0.16700
O 	O 	0.64860 0.00670 0.46840 -0.16300
O 	O 	0.32130 0.78030 0.23360 -0.15100
O 	O 	0.85140 0.50670 0.03160 -0.16300
O 	O 	0.08960 0.11960 0.12020 -0.16600
O 	O 	0.67870 0.21970 0.76640 -0.15100
O 	O 	0.14860 0.49330 0.96840 -0.16300
O 	O 	0.57060 0.55460 0.95300 -0.04600
O 	O 	0.81200 0.55690 0.66340 -0.14900
O 	O 	0.35140 0.99330 0.53160 -0.16300
O 	O 	0.82130 0.71970 0.73360 -0.15100
O 	O 	0.41040 0.61960 0.37980 -0.16700
O 	O 	0.47700 0.01930 0.34070 -0.14500
O 	O 	0.18800 0.44310 0.33660 -0.14900
O 	O 	0.17870 0.28030 0.26640 -0.15100
O 	O 	0.91040 0.88040 0.87980 -0.16600
O 	O 	0.52300 0.98070 0.65930 -0.14500
O 	O 	0.02300 0.51930 0.15930 -0.14400
O 	O 	0.92940 0.05460 0.54700 -0.04600
O 	O 	0.31200 0.94310 0.16340 -0.14900
O 	O 	0.97700 0.48070 0.84070 -0.14400
