data_crystal

_cell_length_a 11.79100
_cell_length_b 22.69100
_cell_length_c 11.92200
_cell_angle_alpha 102.04600
_cell_angle_beta  90.00000
_cell_angle_gamma 90.00000

_symmetry_space_group_name_	'P 1'
_symmetry_space_group_name_H-M	'P 1'

loop_
_symmetry_equiv_pos_as_xyz
  x,y,z

loop_
_atom_site_label
_atom_site_type_symbol
_atom_site_fract_x
_atom_site_fract_y
_atom_site_fract_z
_atom_site_charge
Ag	Ag	0.73955 0.29921 0.56326 0.39800
Ag	Ag	0.67597 0.15927 0.54659 0.45500
Ag	Ag	0.23969 0.61062 0.22534 0.45500
Ag	Ag	0.76045 0.29921 0.06326 0.40000
Ag	Ag	0.68042 0.27963 0.80976 0.37100
Ag	Ag	0.96414 0.34244 0.87943 0.46500
Ag	Ag	0.26031 0.61062 0.72534 0.45500
Ag	Ag	0.82403 0.15927 0.04659 0.45700
Ag	Ag	0.17597 0.84073 0.95341 0.45700
Ag	Ag	0.31958 0.72037 0.19024 0.37100
Ag	Ag	0.34890 0.79788 0.65839 0.43900
Ag	Ag	0.76031 0.38938 0.77466 0.45500
Ag	Ag	0.46414 0.65756 0.62057 0.46700
Ag	Ag	0.33135 0.90092 0.14883 0.54000
Ag	Ag	0.84890 0.20212 0.84161 0.43700
Ag	Ag	0.18042 0.72037 0.69024 0.37100
Ag	Ag	0.83135 0.09908 0.35117 0.54000
Ag	Ag	0.15110 0.79788 0.15839 0.43700
Ag	Ag	0.66865 0.09908 0.85117 0.54000
Ag	Ag	0.26045 0.70079 0.43674 0.39900
Ag	Ag	0.32403 0.84073 0.45341 0.45600
Ag	Ag	0.23955 0.70079 0.93674 0.40000
Ag	Ag	0.73969 0.38938 0.27466 0.45500
Ag	Ag	0.81958 0.27963 0.30976 0.37100
Ag	Ag	0.53586 0.34244 0.37943 0.46700
Ag	Ag	0.65110 0.20212 0.34161 0.43900
Ag	Ag	0.03586 0.65756 0.12057 0.46500
Ag	Ag	0.16865 0.90092 0.64883 0.54000
H 	H 	0.11460 0.48220 0.23810 0.02500
H 	H 	0.34270 0.00240 0.55960 0.08400
H 	H 	0.65730 0.99760 0.44040 0.08400
H 	H 	0.40680 0.24020 0.17420 0.06100
H 	H 	0.56580 0.81310 0.02090 0.15000
H 	H 	0.48330 0.06930 0.62420 0.03300
H 	H 	0.15730 0.00240 0.05960 0.08200
H 	H 	0.38540 0.48220 0.73810 0.02600
H 	H 	0.04810 0.39440 0.13110 -0.02600
H 	H 	0.06580 0.18690 0.47910 0.14900
H 	H 	0.45190 0.39440 0.63110 -0.02700
H 	H 	0.00300 0.16010 0.57290 0.13600
H 	H 	0.43420 0.18690 0.97910 0.15000
H 	H 	0.98330 0.93070 0.87580 0.03200
H 	H 	0.37240 0.44920 0.35280 -0.00100
H 	H 	0.50300 0.83990 0.92710 0.13500
H 	H 	0.56420 0.71970 0.91420 0.03100
H 	H 	0.06420 0.28030 0.58580 0.03000
H 	H 	0.51670 0.93070 0.37580 0.03300
H 	H 	0.93580 0.71970 0.41420 0.03000
H 	H 	0.49700 0.16010 0.07290 0.13500
H 	H 	0.48660 0.01590 0.91240 0.05100
H 	H 	0.01670 0.06930 0.12420 0.03200
H 	H 	0.12760 0.44920 0.85280 0.00000
H 	H 	0.99700 0.83990 0.42710 0.13600
H 	H 	0.54810 0.60560 0.36890 -0.02700
H 	H 	0.93420 0.81310 0.52090 0.14900
H 	H 	0.90680 0.75980 0.32580 0.06000
H 	H 	0.88540 0.51780 0.76190 0.02500
H 	H 	0.61460 0.51780 0.26190 0.02600
H 	H 	0.95190 0.60560 0.86890 -0.02600
H 	H 	0.43580 0.28030 0.08580 0.03100
H 	H 	0.98660 0.98410 0.58760 0.05100
H 	H 	0.84270 0.99760 0.94040 0.08200
H 	H 	0.87240 0.55080 0.14720 0.00000
H 	H 	0.62760 0.55080 0.64720 -0.00100
H 	H 	0.01340 0.01590 0.41240 0.05100
H 	H 	0.09320 0.24020 0.67420 0.06000
H 	H 	0.59320 0.75980 0.82580 0.06100
H 	H 	0.51340 0.98410 0.08760 0.05100
C 	C 	0.12740 0.97220 0.30040 -0.01400
C 	C 	0.67600 0.06560 0.12270 0.35300
C 	C 	0.62740 0.02780 0.19960 -0.01100
C 	C 	0.62080 0.54390 0.56780 0.05300
C 	C 	0.16800 0.10700 0.84970 1.07700
C 	C 	0.84190 0.48960 0.00340 -0.07700
C 	C 	0.06210 0.72480 0.30580 0.00000
C 	C 	0.15300 0.70420 0.26580 -0.46400
C 	C 	0.30570 0.79400 0.06280 -0.50200
C 	C 	0.65810 0.48960 0.50340 -0.08100
C 	C 	0.88430 0.52340 0.84140 -0.01900
C 	C 	0.93790 0.27520 0.69420 0.00000
C 	C 	0.38430 0.47660 0.65860 -0.02000
C 	C 	0.69860 0.44060 0.56080 0.34700
C 	C 	0.12080 0.45610 0.93220 0.05200
C 	C 	0.32400 0.93440 0.87730 0.35300
C 	C 	0.53420 0.75000 0.87560 -0.10100
C 	C 	0.55080 0.86650 0.62100 0.03100
C 	C 	0.04330 0.04440 0.17130 0.07300
C 	C 	0.62860 0.99580 0.36720 0.03600
C 	C 	0.89650 0.19800 0.47650 0.09600
C 	C 	0.92430 0.57630 0.90570 0.01500
C 	C 	0.87260 0.02780 0.69960 -0.01400
C 	C 	0.00560 0.19430 0.53580 -0.28800
C 	C 	0.19430 0.79400 0.56280 -0.50000
C 	C 	0.69430 0.20600 0.93720 -0.50200
C 	C 	0.43790 0.72480 0.80580 0.00400
C 	C 	0.04140 0.01330 0.33850 0.10300
C 	C 	0.30140 0.55940 0.43920 0.34700
C 	C 	0.05080 0.13350 0.87900 0.03100
C 	C 	0.65300 0.29580 0.23420 -0.46500
C 	C 	0.03420 0.25000 0.62440 -0.09600
C 	C 	0.07570 0.42370 0.09430 0.01500
C 	C 	0.45670 0.04440 0.67130 0.07200
C 	C 	0.94920 0.86650 0.12100 0.03100
C 	C 	0.60350 0.19800 0.97650 0.09800
C 	C 	0.37140 0.00420 0.63280 0.03600
C 	C 	0.34190 0.51040 0.49660 -0.08100
C 	C 	0.44920 0.13350 0.37900 0.03100
C 	C 	0.87920 0.54390 0.06780 0.05200
C 	C 	0.54140 0.98670 0.16150 0.10000
C 	C 	0.50560 0.80570 0.96420 -0.28900
C 	C 	0.80570 0.20600 0.43720 -0.50000
C 	C 	0.96580 0.75000 0.37560 -0.09600
C 	C 	0.87140 0.99580 0.86720 0.03600
C 	C 	0.84700 0.29580 0.73420 -0.46400
C 	C 	0.80140 0.44060 0.06080 0.34600
C 	C 	0.54330 0.95560 0.32870 0.07200
C 	C 	0.10350 0.80200 0.52350 0.09600
C 	C 	0.12860 0.00420 0.13280 0.03600
C 	C 	0.15810 0.51040 0.99660 -0.07700
C 	C 	0.33200 0.10700 0.34970 1.07700
C 	C 	0.45860 0.01330 0.83850 0.10000
C 	C 	0.34700 0.70420 0.76580 -0.46500
C 	C 	0.46580 0.25000 0.12440 -0.10100
C 	C 	0.49440 0.19430 0.03580 -0.28900
C 	C 	0.37920 0.45610 0.43220 0.05300
C 	C 	0.57570 0.57630 0.40570 0.02000
C 	C 	0.61570 0.52340 0.34140 -0.02000
C 	C 	0.37260 0.97220 0.80040 -0.01100
C 	C 	0.42430 0.42370 0.59430 0.02000
C 	C 	0.17600 0.93440 0.37730 0.35300
C 	C 	0.19860 0.55940 0.93920 0.34600
C 	C 	0.11570 0.47660 0.15860 -0.01900
C 	C 	0.99440 0.80570 0.46420 -0.28800
C 	C 	0.95670 0.95560 0.82870 0.07300
C 	C 	0.82400 0.06560 0.62270 0.35300
C 	C 	0.39650 0.80200 0.02350 0.09800
C 	C 	0.95860 0.98670 0.66150 0.10300
C 	C 	0.66800 0.89300 0.65030 1.07700
C 	C 	0.83200 0.89300 0.15030 1.07700
C 	C 	0.56210 0.27520 0.19420 0.00400
N 	N 	0.49760 0.95160 0.22440 -0.14400
N 	N 	0.67210 0.03240 0.30480 -0.11600
N 	N 	0.17210 0.96760 0.19520 -0.11700
N 	N 	0.42450 0.41330 0.47950 -0.18800
N 	N 	0.65590 0.47960 0.38900 -0.13800
N 	N 	0.15590 0.52040 0.11100 -0.14000
N 	N 	0.34410 0.52040 0.61100 -0.13800
N 	N 	0.50240 0.04840 0.77560 -0.14400
N 	N 	0.92450 0.58670 0.02050 -0.18500
N 	N 	0.82790 0.03240 0.80480 -0.11700
N 	N 	0.99760 0.04840 0.27560 -0.14500
N 	N 	0.84410 0.47960 0.88900 -0.14000
N 	N 	0.07550 0.41330 0.97950 -0.18500
N 	N 	0.32790 0.96760 0.69520 -0.11600
N 	N 	0.00240 0.95160 0.72440 -0.14500
N 	N 	0.57550 0.58670 0.52050 -0.18800
O 	O 	0.19960 0.61180 0.99750 -0.49100
O 	O 	0.00470 0.12480 0.96390 -0.24200
O 	O 	0.74910 0.10430 0.16460 -0.42800
O 	O 	0.75090 0.10430 0.66460 -0.42800
O 	O 	0.50470 0.87520 0.53610 -0.24500
O 	O 	0.64050 0.05550 0.02340 -0.31300
O 	O 	0.25090 0.89570 0.83540 -0.42800
O 	O 	0.51590 0.83660 0.69260 -0.25500
O 	O 	0.99530 0.87520 0.03610 -0.24200
O 	O 	0.98410 0.83660 0.19260 -0.25200
O 	O 	0.14050 0.94450 0.47660 -0.31400
O 	O 	0.01590 0.16340 0.80740 -0.25200
O 	O 	0.72210 0.45710 0.66300 -0.37900
O 	O 	0.24910 0.89570 0.33540 -0.42800
O 	O 	0.22210 0.54290 0.83700 -0.37800
O 	O 	0.30040 0.61180 0.49750 -0.49200
O 	O 	0.85950 0.05550 0.52340 -0.31400
O 	O 	0.27790 0.54290 0.33700 -0.37900
O 	O 	0.80040 0.38820 0.00250 -0.49100
O 	O 	0.48410 0.16340 0.30740 -0.25500
O 	O 	0.49530 0.12480 0.46390 -0.24500
O 	O 	0.69960 0.38820 0.50250 -0.49200
O 	O 	0.35950 0.94450 0.97660 -0.31300
O 	O 	0.77790 0.45710 0.16300 -0.37800
F 	F 	0.32360 0.07980 0.24270 -0.51700
F 	F 	0.82360 0.92020 0.25730 -0.51600
F 	F 	0.18740 0.06360 0.89430 -0.57200
F 	F 	0.68740 0.93640 0.60570 -0.57200
F 	F 	0.67640 0.92020 0.75730 -0.51700
F 	F 	0.17640 0.07980 0.74270 -0.51600
F 	F 	0.31260 0.06360 0.39430 -0.57200
F 	F 	0.74480 0.85720 0.64220 -0.60600
F 	F 	0.24480 0.14280 0.85780 -0.60600
F 	F 	0.81260 0.93640 0.10570 -0.57200
F 	F 	0.75520 0.85720 0.14220 -0.60600
F 	F 	0.25520 0.14280 0.35780 -0.60600
