data_crystal

_cell_length_a 28.86410
_cell_length_b 12.83310
_cell_length_c 14.76320
_cell_angle_alpha 90.00000
_cell_angle_beta  113.11000
_cell_angle_gamma 90.00000

_symmetry_space_group_name_	'P 1'
_symmetry_space_group_name_H-M	'P 1'

loop_
_symmetry_equiv_pos_as_xyz
  x,y,z

loop_
_atom_site_label
_atom_site_type_symbol
_atom_site_fract_x
_atom_site_fract_y
_atom_site_fract_z
_atom_site_charge
Ag	Ag	0.98649 0.88631 0.02129 0.48900
Ag	Ag	0.91695 0.98399 0.08870 0.51300
Ag	Ag	0.91878 0.95914 0.31487 0.50800
Ag	Ag	0.69178 0.52867 0.61847 0.63400
C 	C 	0.99890 0.01110 0.13030 -0.44800
C 	C 	0.00750 0.09590 0.16140 0.08000
C 	C 	0.01630 0.19530 0.21610 -0.22000
H 	H 	0.00610 0.25330 0.17030 0.16100
H 	H 	0.05180 0.20290 0.25720 0.13100
C 	C 	0.08730 0.77990 0.04320 0.03700
C 	C 	0.11800 0.69900 0.01580 1.05500
C 	C 	0.82390 0.04360 0.14100 0.15700
C 	C 	0.76730 0.06740 0.09530 0.89100
C 	C 	0.89970 0.74570 0.18500 0.10200
C 	C 	0.86490 0.65600 0.14900 1.02300
C 	C 	0.87450 0.81850 0.90680 0.31800
C 	C 	0.83160 0.75040 0.83840 0.04700
C 	C 	0.83970 0.68410 0.77230 -0.03000
H 	H 	0.87140 0.68030 0.77020 0.13600
C 	C 	0.80020 0.62280 0.70840 0.12500
H 	H 	0.80560 0.57900 0.66320 0.14000
C 	C 	0.78450 0.75200 0.83870 -0.06000
H 	H 	0.77750 0.79600 0.88180 0.14600
C 	C 	0.74800 0.69050 0.77700 0.16100
H 	H 	0.71650 0.69270 0.78020 0.06000
F 	F 	0.10120 0.67760 0.92680 -0.50000
F 	F 	0.16310 0.72350 0.03530 -0.47300
F 	F 	0.11940 0.61380 0.05300 -0.46400
F 	F 	0.74240 0.99590 0.03310 -0.43400
F 	F 	0.74620 0.07290 0.15720 -0.45500
F 	F 	0.75870 0.15410 0.04770 -0.41200
F 	F 	0.86520 0.62080 0.06410 -0.38900
F 	F 	0.88300 0.56520 0.18700 -0.42000
F 	F 	0.82330 0.66100 0.13000 -0.57200
N 	N 	0.75420 0.62730 0.71250 -0.12800
O 	O 	0.10860 0.86500 0.07480 -0.28000
O 	O 	0.04390 0.75330 0.02550 -0.19000
O 	O 	0.84260 0.04060 0.08010 -0.24700
O 	O 	0.84170 0.03080 0.22950 -0.27100
O 	O 	0.93590 0.75230 0.16940 -0.16600
O 	O 	0.87590 0.80970 0.22650 -0.06600
O 	O 	0.91840 0.78730 0.92420 -0.29000
O 	O 	0.86290 0.89410 0.94530 -0.36500
O 	O 	0.94350 0.73030 0.22170 -0.06400
O 	O 	0.88210 0.82580 0.18030 -0.19100
Ag	Ag	0.48649 0.38631 0.02129 0.49000
Ag	Ag	0.41695 0.48399 0.08870 0.51600
Ag	Ag	0.41878 0.45914 0.31487 0.50700
Ag	Ag	0.19178 0.02867 0.61847 0.63300
C 	C 	0.49890 0.51110 0.13030 -0.48700
C 	C 	0.50750 0.59590 0.16140 0.11200
C 	C 	0.51630 0.69530 0.21610 -0.23400
H 	H 	0.50610 0.75330 0.17030 0.16800
H 	H 	0.55180 0.70290 0.25720 0.13600
C 	C 	0.58730 0.27990 0.04320 0.03500
C 	C 	0.61800 0.19900 0.01580 1.06400
C 	C 	0.32390 0.54360 0.14100 0.15800
C 	C 	0.26730 0.56740 0.09530 0.88400
C 	C 	0.39970 0.24570 0.18500 0.10400
C 	C 	0.36490 0.15600 0.14900 1.02200
C 	C 	0.37450 0.31850 0.90680 0.31900
C 	C 	0.33160 0.25040 0.83840 0.04400
C 	C 	0.33970 0.18410 0.77230 -0.02900
H 	H 	0.37140 0.18030 0.77020 0.13500
C 	C 	0.30020 0.12280 0.70840 0.12400
H 	H 	0.30560 0.07900 0.66320 0.13900
C 	C 	0.28450 0.25200 0.83870 -0.05900
H 	H 	0.27750 0.29600 0.88180 0.14400
C 	C 	0.24800 0.19050 0.77700 0.16000
H 	H 	0.21650 0.19270 0.78020 0.06000
F 	F 	0.60120 0.17760 0.92680 -0.50600
F 	F 	0.66310 0.22350 0.03530 -0.47200
F 	F 	0.61940 0.11380 0.05300 -0.46300
F 	F 	0.24240 0.49590 0.03310 -0.42800
F 	F 	0.24620 0.57290 0.15720 -0.45500
F 	F 	0.25870 0.65410 0.04770 -0.41400
F 	F 	0.36520 0.12080 0.06410 -0.38700
F 	F 	0.38300 0.06520 0.18700 -0.42000
F 	F 	0.32330 0.16100 0.13000 -0.57000
N 	N 	0.25420 0.12730 0.71250 -0.12800
O 	O 	0.60860 0.36500 0.07480 -0.27600
O 	O 	0.54390 0.25330 0.02550 -0.17900
O 	O 	0.34260 0.54060 0.08010 -0.25200
O 	O 	0.34170 0.53080 0.22950 -0.27300
O 	O 	0.43590 0.25230 0.16940 -0.16500
O 	O 	0.37590 0.30970 0.22650 -0.06600
O 	O 	0.41840 0.28730 0.92420 -0.29500
O 	O 	0.36290 0.39410 0.94530 -0.36900
O 	O 	0.44350 0.23030 0.22170 -0.07000
O 	O 	0.38210 0.32580 0.18030 -0.19000
Ag	Ag	0.01351 0.88631 0.47871 0.48500
Ag	Ag	0.08305 0.98399 0.41130 0.51500
Ag	Ag	0.08122 0.95914 0.18513 0.50100
Ag	Ag	0.30822 0.52867 0.88153 0.63400
C 	C 	0.00110 0.01110 0.36970 -0.51400
C 	C 	0.99250 0.09590 0.33860 0.14400
C 	C 	0.98370 0.19530 0.28390 -0.24700
H 	H 	0.99390 0.25330 0.32970 0.17800
H 	H 	0.94820 0.20290 0.24280 0.14300
C 	C 	0.91270 0.77990 0.45680 0.03600
C 	C 	0.88200 0.69900 0.48420 1.05900
C 	C 	0.17610 0.04360 0.35900 0.15800
C 	C 	0.23270 0.06740 0.40470 0.88400
C 	C 	0.10030 0.74570 0.31500 0.10500
C 	C 	0.13510 0.65600 0.35100 1.02200
C 	C 	0.12550 0.81850 0.59320 0.32000
C 	C 	0.16840 0.75040 0.66160 0.04500
C 	C 	0.16030 0.68410 0.72770 -0.02900
H 	H 	0.12860 0.68030 0.72980 0.13500
C 	C 	0.19980 0.62280 0.79160 0.12400
H 	H 	0.19440 0.57900 0.83680 0.14000
C 	C 	0.21550 0.75200 0.66130 -0.05900
H 	H 	0.22250 0.79600 0.61820 0.14500
C 	C 	0.25200 0.69050 0.72300 0.16000
H 	H 	0.28350 0.69270 0.71980 0.06100
F 	F 	0.89880 0.67760 0.57320 -0.49900
F 	F 	0.83690 0.72350 0.46470 -0.47200
F 	F 	0.88060 0.61380 0.44700 -0.46300
F 	F 	0.25760 0.99590 0.46690 -0.42800
F 	F 	0.25380 0.07290 0.34280 -0.45400
F 	F 	0.24130 0.15410 0.45230 -0.41300
F 	F 	0.13480 0.62080 0.43590 -0.39000
F 	F 	0.11700 0.56520 0.31300 -0.42300
F 	F 	0.17670 0.66100 0.37000 -0.57200
N 	N 	0.24580 0.62730 0.78750 -0.12800
O 	O 	0.89140 0.86500 0.42520 -0.27500
O 	O 	0.95610 0.75330 0.47450 -0.17400
O 	O 	0.15740 0.04060 0.41990 -0.25200
O 	O 	0.15830 0.03080 0.27050 -0.27100
O 	O 	0.06410 0.75230 0.33060 -0.16600
O 	O 	0.12410 0.80970 0.27350 -0.06700
O 	O 	0.08160 0.78730 0.57580 -0.29500
O 	O 	0.13710 0.89410 0.55470 -0.36800
O 	O 	0.05650 0.73030 0.27830 -0.07300
O 	O 	0.11790 0.82580 0.31970 -0.19100
Ag	Ag	0.51351 0.38631 0.47871 0.48900
Ag	Ag	0.58305 0.48399 0.41130 0.51600
Ag	Ag	0.58122 0.45914 0.18513 0.50700
Ag	Ag	0.80822 0.02867 0.88153 0.63000
C 	C 	0.50110 0.51110 0.36970 -0.48700
C 	C 	0.49250 0.59590 0.33860 0.11300
C 	C 	0.48370 0.69530 0.28390 -0.23500
H 	H 	0.49390 0.75330 0.32970 0.16900
H 	H 	0.44820 0.70290 0.24280 0.13600
C 	C 	0.41270 0.27990 0.45680 0.03600
C 	C 	0.38200 0.19900 0.48420 1.05800
C 	C 	0.67610 0.54360 0.35900 0.15800
C 	C 	0.73270 0.56740 0.40470 0.88400
C 	C 	0.60030 0.24570 0.31500 0.10400
C 	C 	0.63510 0.15600 0.35100 1.02300
C 	C 	0.62550 0.31850 0.59320 0.31900
C 	C 	0.66840 0.25040 0.66160 0.04500
C 	C 	0.66030 0.18410 0.72770 -0.03000
H 	H 	0.62860 0.18030 0.72980 0.13500
C 	C 	0.69980 0.12280 0.79160 0.12400
H 	H 	0.69440 0.07900 0.83680 0.13800
C 	C 	0.71550 0.25200 0.66130 -0.06000
H 	H 	0.72250 0.29600 0.61820 0.14500
C 	C 	0.75200 0.19050 0.72300 0.16000
H 	H 	0.78350 0.19270 0.71980 0.06000
F 	F 	0.39880 0.17760 0.57320 -0.50100
F 	F 	0.33690 0.22350 0.46470 -0.47200
F 	F 	0.38060 0.11380 0.44700 -0.46400
F 	F 	0.75760 0.49590 0.46690 -0.42800
F 	F 	0.75380 0.57290 0.34280 -0.45500
F 	F 	0.74130 0.65410 0.45230 -0.41300
F 	F 	0.63480 0.12080 0.43590 -0.38900
F 	F 	0.61700 0.06520 0.31300 -0.42100
F 	F 	0.67670 0.16100 0.37000 -0.57200
N 	N 	0.74580 0.12730 0.78750 -0.12900
O 	O 	0.39140 0.36500 0.42520 -0.27700
O 	O 	0.45610 0.25330 0.47450 -0.18100
O 	O 	0.65740 0.54060 0.41990 -0.25200
O 	O 	0.65830 0.53080 0.27050 -0.27300
O 	O 	0.56410 0.25230 0.33060 -0.16600
O 	O 	0.62410 0.30970 0.27350 -0.06600
O 	O 	0.58160 0.28730 0.57580 -0.29400
O 	O 	0.63710 0.39410 0.55470 -0.36800
O 	O 	0.55650 0.23030 0.27830 -0.06900
O 	O 	0.61790 0.32580 0.31970 -0.19100
Ag	Ag	0.01351 0.11369 0.97871 0.48100
Ag	Ag	0.08305 0.01601 0.91130 0.51200
Ag	Ag	0.08122 0.04086 0.68513 0.50200
Ag	Ag	0.30822 0.47133 0.38153 0.63400
C 	C 	0.00110 0.98890 0.86970 -0.50700
C 	C 	0.99250 0.90410 0.83860 0.14000
C 	C 	0.98370 0.80470 0.78390 -0.24400
H 	H 	0.99390 0.74670 0.82970 0.17700
H 	H 	0.94820 0.79710 0.74280 0.14100
C 	C 	0.91270 0.22010 0.95680 0.03700
C 	C 	0.88200 0.30100 0.98420 1.05400
C 	C 	0.17610 0.95640 0.85900 0.15700
C 	C 	0.23270 0.93260 0.90470 0.89100
C 	C 	0.10030 0.25430 0.81500 0.10500
C 	C 	0.13510 0.34400 0.85100 1.02200
C 	C 	0.12550 0.18150 0.09320 0.31900
C 	C 	0.16840 0.24960 0.16160 0.04600
C 	C 	0.16030 0.31590 0.22770 -0.03000
H 	H 	0.12860 0.31970 0.22980 0.13500
C 	C 	0.19980 0.37720 0.29160 0.12500
H 	H 	0.19440 0.42100 0.33680 0.13900
C 	C 	0.21550 0.24800 0.16130 -0.06000
H 	H 	0.22250 0.20400 0.11820 0.14600
C 	C 	0.25200 0.30950 0.22300 0.16100
H 	H 	0.28350 0.30730 0.21980 0.06100
F 	F 	0.89880 0.32240 0.07320 -0.49600
F 	F 	0.83690 0.27650 0.96470 -0.47300
F 	F 	0.88060 0.38620 0.94700 -0.46200
F 	F 	0.25760 0.00410 0.96690 -0.43500
F 	F 	0.25380 0.92710 0.84280 -0.45500
F 	F 	0.24130 0.84590 0.95230 -0.41200
F 	F 	0.13480 0.37920 0.93590 -0.39100
F 	F 	0.11700 0.43480 0.81300 -0.42300
F 	F 	0.17670 0.33900 0.87000 -0.57200
N 	N 	0.24580 0.37270 0.28750 -0.12800
O 	O 	0.89140 0.13500 0.92520 -0.27700
O 	O 	0.95610 0.24670 0.97450 -0.17600
O 	O 	0.15740 0.95940 0.91990 -0.24800
O 	O 	0.15830 0.96920 0.77050 -0.27100
O 	O 	0.06410 0.24770 0.83060 -0.16700
O 	O 	0.12410 0.19030 0.77350 -0.06600
O 	O 	0.08160 0.21270 0.07580 -0.29200
O 	O 	0.13710 0.10590 0.05470 -0.36400
O 	O 	0.05650 0.26970 0.77830 -0.07300
O 	O 	0.11790 0.17420 0.81970 -0.19300
Ag	Ag	0.51351 0.61369 0.97871 0.48900
Ag	Ag	0.58305 0.51601 0.91130 0.51600
Ag	Ag	0.58122 0.54086 0.68513 0.50700
Ag	Ag	0.80822 0.97133 0.38153 0.63300
C 	C 	0.50110 0.48890 0.86970 -0.48700
C 	C 	0.49250 0.40410 0.83860 0.11200
C 	C 	0.48370 0.30470 0.78390 -0.23400
H 	H 	0.49390 0.24670 0.82970 0.16800
H 	H 	0.44820 0.29710 0.74280 0.13600
C 	C 	0.41270 0.72010 0.95680 0.03500
C 	C 	0.38200 0.80100 0.98420 1.06200
C 	C 	0.67610 0.45640 0.85900 0.15800
C 	C 	0.73270 0.43260 0.90470 0.88400
C 	C 	0.60030 0.75430 0.81500 0.10400
C 	C 	0.63510 0.84400 0.85100 1.02200
C 	C 	0.62550 0.68150 0.09320 0.31900
C 	C 	0.66840 0.74960 0.16160 0.04400
C 	C 	0.66030 0.81590 0.22770 -0.02900
H 	H 	0.62860 0.81970 0.22980 0.13500
C 	C 	0.69980 0.87720 0.29160 0.12400
H 	H 	0.69440 0.92100 0.33680 0.13900
C 	C 	0.71550 0.74800 0.16130 -0.06000
H 	H 	0.72250 0.70400 0.11820 0.14400
C 	C 	0.75200 0.80950 0.22300 0.16000
H 	H 	0.78350 0.80730 0.21980 0.06000
F 	F 	0.39880 0.82240 0.07320 -0.50500
F 	F 	0.33690 0.77650 0.96470 -0.47200
F 	F 	0.38060 0.88620 0.94700 -0.46300
F 	F 	0.75760 0.50410 0.96690 -0.42800
F 	F 	0.75380 0.42710 0.84280 -0.45500
F 	F 	0.74130 0.34590 0.95230 -0.41400
F 	F 	0.63480 0.87920 0.93590 -0.38700
F 	F 	0.61700 0.93480 0.81300 -0.42000
F 	F 	0.67670 0.83900 0.87000 -0.57100
N 	N 	0.74580 0.87270 0.28750 -0.12800
O 	O 	0.39140 0.63500 0.92520 -0.27600
O 	O 	0.45610 0.74670 0.97450 -0.18000
O 	O 	0.65740 0.45940 0.91990 -0.25300
O 	O 	0.65830 0.46920 0.77050 -0.27300
O 	O 	0.56410 0.74770 0.83060 -0.16600
O 	O 	0.62410 0.69030 0.77350 -0.06600
O 	O 	0.58160 0.71270 0.07580 -0.29500
O 	O 	0.63710 0.60590 0.05470 -0.36900
O 	O 	0.55650 0.76970 0.77830 -0.07000
O 	O 	0.61790 0.67420 0.81970 -0.19000
Ag	Ag	0.98649 0.11369 0.52129 0.49300
Ag	Ag	0.91695 0.01601 0.58870 0.51600
Ag	Ag	0.91878 0.04086 0.81487 0.50800
Ag	Ag	0.69178 0.47133 0.11847 0.63400
C 	C 	0.99890 0.98890 0.63030 -0.45600
C 	C 	0.00750 0.90410 0.66140 0.08300
C 	C 	0.01630 0.80470 0.71610 -0.22300
H 	H 	0.00610 0.74670 0.67030 0.16200
H 	H 	0.05180 0.79710 0.75720 0.13200
C 	C 	0.08730 0.22010 0.54320 0.03700
C 	C 	0.11800 0.30100 0.51580 1.05800
C 	C 	0.82390 0.95640 0.64100 0.15800
C 	C 	0.76730 0.93260 0.59530 0.88400
C 	C 	0.89970 0.25430 0.68500 0.10200
C 	C 	0.86490 0.34400 0.64900 1.02400
C 	C 	0.87450 0.18150 0.40680 0.31900
C 	C 	0.83160 0.24960 0.33840 0.04600
C 	C 	0.83970 0.31590 0.27230 -0.02900
H 	H 	0.87140 0.31970 0.27020 0.13600
C 	C 	0.80020 0.37720 0.20840 0.12500
H 	H 	0.80560 0.42100 0.16320 0.14000
C 	C 	0.78450 0.24800 0.33870 -0.06000
H 	H 	0.77750 0.20400 0.38180 0.14500
C 	C 	0.74800 0.30950 0.27700 0.16100
H 	H 	0.71650 0.30730 0.28020 0.06000
F 	F 	0.10120 0.32240 0.42680 -0.50200
F 	F 	0.16310 0.27650 0.53530 -0.47200
F 	F 	0.11940 0.38620 0.55300 -0.46500
F 	F 	0.74240 0.00410 0.53310 -0.42800
F 	F 	0.74620 0.92710 0.65720 -0.45400
F 	F 	0.75870 0.84590 0.54770 -0.41300
F 	F 	0.86520 0.37920 0.56410 -0.38900
F 	F 	0.88300 0.43480 0.68700 -0.42100
F 	F 	0.82330 0.33900 0.63000 -0.57200
N 	N 	0.75420 0.37270 0.21250 -0.12800
O 	O 	0.10860 0.13500 0.57480 -0.27800
O 	O 	0.04390 0.24670 0.52550 -0.18900
O 	O 	0.84260 0.95940 0.58010 -0.25100
O 	O 	0.84170 0.96920 0.72950 -0.27100
O 	O 	0.93590 0.24770 0.66940 -0.16500
O 	O 	0.87590 0.19030 0.72650 -0.06600
O 	O 	0.91840 0.21270 0.42420 -0.29200
O 	O 	0.86290 0.10590 0.44530 -0.36700
O 	O 	0.94350 0.26970 0.72170 -0.06400
O 	O 	0.88210 0.17420 0.68030 -0.18900
Ag	Ag	0.48649 0.61369 0.52129 0.48900
Ag	Ag	0.41695 0.51601 0.58870 0.51600
Ag	Ag	0.41878 0.54086 0.81487 0.50700
Ag	Ag	0.19178 0.97133 0.11847 0.63100
C 	C 	0.49890 0.48890 0.63030 -0.48700
C 	C 	0.50750 0.40410 0.66140 0.11300
C 	C 	0.51630 0.30470 0.71610 -0.23500
H 	H 	0.50610 0.24670 0.67030 0.16900
H 	H 	0.55180 0.29710 0.75720 0.13600
C 	C 	0.58730 0.72010 0.54320 0.03600
C 	C 	0.61800 0.80100 0.51580 1.05800
C 	C 	0.32390 0.45640 0.64100 0.15800
C 	C 	0.26730 0.43260 0.59530 0.88400
C 	C 	0.39970 0.75430 0.68500 0.10400
C 	C 	0.36490 0.84400 0.64900 1.02300
C 	C 	0.37450 0.68150 0.40680 0.31900
C 	C 	0.33160 0.74960 0.33840 0.04500
C 	C 	0.33970 0.81590 0.27230 -0.03000
H 	H 	0.37140 0.81970 0.27020 0.13500
C 	C 	0.30020 0.87720 0.20840 0.12400
H 	H 	0.30560 0.92100 0.16320 0.13800
C 	C 	0.28450 0.74800 0.33870 -0.06000
H 	H 	0.27750 0.70400 0.38180 0.14500
C 	C 	0.24800 0.80950 0.27700 0.16000
H 	H 	0.21650 0.80730 0.28020 0.06000
F 	F 	0.60120 0.82240 0.42680 -0.50100
F 	F 	0.66310 0.77650 0.53530 -0.47200
F 	F 	0.61940 0.88620 0.55300 -0.46400
F 	F 	0.24240 0.50410 0.53310 -0.42800
F 	F 	0.24620 0.42710 0.65720 -0.45500
F 	F 	0.25870 0.34590 0.54770 -0.41300
F 	F 	0.36520 0.87920 0.56410 -0.38900
F 	F 	0.38300 0.93480 0.68700 -0.42100
F 	F 	0.32330 0.83900 0.63000 -0.57100
N 	N 	0.25420 0.87270 0.21250 -0.12900
O 	O 	0.60860 0.63500 0.57480 -0.27700
O 	O 	0.54390 0.74670 0.52550 -0.18100
O 	O 	0.34260 0.45940 0.58010 -0.25200
O 	O 	0.34170 0.46920 0.72950 -0.27300
O 	O 	0.43590 0.74770 0.66940 -0.16600
O 	O 	0.37590 0.69030 0.72650 -0.06600
O 	O 	0.41840 0.71270 0.42420 -0.29400
O 	O 	0.36290 0.60590 0.44530 -0.36800
O 	O 	0.44350 0.76970 0.72170 -0.06900
O 	O 	0.38210 0.67420 0.68030 -0.19100
Ag	Ag	0.00000 0.87028 0.25000 0.46100
Ag	Ag	0.50000 0.37028 0.25000 0.46900
Ag	Ag	0.00000 0.12972 0.75000 0.46100
Ag	Ag	0.50000 0.62972 0.75000 0.46900
