data_crystal

_cell_length_a 8.99990
_cell_length_b 9.11230
_cell_length_c 9.49320
_cell_angle_alpha 90.83700
_cell_angle_beta  94.23100
_cell_angle_gamma 94.17800

_symmetry_space_group_name_	'P 1'
_symmetry_space_group_name_H-M	'P 1'

loop_
_symmetry_equiv_pos_as_xyz
  x,y,z

loop_
_atom_site_label
_atom_site_type_symbol
_atom_site_fract_x
_atom_site_fract_y
_atom_site_fract_z
_atom_site_charge
Ga	Ga	0.28306 0.07308 0.61728 2.08800
Ga	Ga	0.61057 0.34147 0.13351 2.07900
Ga	Ga	0.19182 0.09975 0.09224 2.07300
P 	P 	0.43931 0.14548 0.33640 0.69200
P 	P 	0.36696 0.29998 0.88344 0.73700
P 	P 	0.12759 0.86355 0.86230 0.66500
O 	O 	0.34150 0.17900 0.45510 -0.55800
O 	O 	0.34710 0.06170 0.21400 -0.69600
O 	O 	0.56700 0.05790 0.38290 -0.62000
O 	O 	0.49790 0.29760 0.27980 -0.65500
O 	O 	0.23560 0.24420 0.96830 -0.67200
O 	O 	0.36680 0.22870 0.73970 -0.57500
O 	O 	0.51430 0.27310 0.96740 -0.69800
O 	O 	0.35220 0.46290 0.86700 -0.67400
O 	O 	0.19950 0.71640 0.85300 -0.61900
O 	O 	0.13580 0.91570 0.01900 -0.67400
O 	O 	0.20290 0.97840 0.77800 -0.64700
O 	O 	0.96120 0.83230 0.81270 -0.62200
O 	O 	0.07730 0.15950 0.58870 -0.44700
O 	O 	0.84120 0.09490 0.51060 -0.41900
C 	C 	0.97620 0.07310 0.52850 0.24200
Ga	Ga	0.71694 0.92692 0.38272 2.08800
Ga	Ga	0.38943 0.65853 0.86649 2.07900
Ga	Ga	0.80818 0.90025 0.90776 2.07300
P 	P 	0.56069 0.85452 0.66360 0.69200
P 	P 	0.63304 0.70002 0.11656 0.73700
P 	P 	0.87241 0.13645 0.13770 0.66500
O 	O 	0.65850 0.82100 0.54490 -0.55800
O 	O 	0.65290 0.93830 0.78600 -0.69600
O 	O 	0.43300 0.94210 0.61710 -0.62000
O 	O 	0.50210 0.70240 0.72020 -0.65500
O 	O 	0.76440 0.75580 0.03170 -0.67200
O 	O 	0.63320 0.77130 0.26030 -0.57500
O 	O 	0.48570 0.72690 0.03260 -0.69800
O 	O 	0.64780 0.53710 0.13300 -0.67400
O 	O 	0.80050 0.28360 0.14700 -0.61900
O 	O 	0.86420 0.08430 0.98100 -0.67400
O 	O 	0.79710 0.02160 0.22200 -0.64700
O 	O 	0.03880 0.16770 0.18730 -0.62200
O 	O 	0.92270 0.84050 0.41130 -0.44700
O 	O 	0.15880 0.90510 0.48940 -0.41900
C 	C 	0.02380 0.92690 0.47150 0.24200
