data_crystal

_cell_length_a 10.04520
_cell_length_b 14.16010
_cell_length_c 10.22940
_cell_angle_alpha 92.25800
_cell_angle_beta  90.00000
_cell_angle_gamma 90.00000

_symmetry_space_group_name_	'P 1'
_symmetry_space_group_name_H-M	'P 1'

loop_
_symmetry_equiv_pos_as_xyz
  x,y,z

loop_
_atom_site_label
_atom_site_type_symbol
_atom_site_fract_x
_atom_site_fract_y
_atom_site_fract_z
_atom_site_charge
Cu	Cu	0.24883 0.28535 0.92562 0.93600
Cu	Cu	0.23228 0.78851 0.93235 0.87900
Cu	Cu	0.87659 0.77034 0.70064 0.92400
Cu	Cu	0.40664 0.78172 0.65605 0.93000
Cu	Cu	0.28111 0.66436 0.40769 0.91300
Cu	Cu	0.26386 0.87617 0.44109 0.92300
Cu	Cu	0.25734 0.28744 0.43793 0.95700
Cu	Cu	0.75117 0.28535 0.42562 0.95400
Cu	Cu	0.76772 0.78851 0.43235 0.92600
Cu	Cu	0.12341 0.77034 0.20064 0.92600
Cu	Cu	0.59336 0.78172 0.15605 0.95400
Cu	Cu	0.71889 0.66436 0.90769 0.89300
Cu	Cu	0.73614 0.87617 0.94109 0.89800
Cu	Cu	0.74266 0.28744 0.93793 0.93100
H 	H 	0.36480 0.49260 0.77720 0.04600
H 	H 	0.17500 0.52110 0.60890 0.09000
H 	H 	0.00530 0.45040 0.70710 0.07900
H 	H 	0.05940 0.50710 0.96910 0.04700
H 	H 	0.12460 0.09310 0.09310 0.07800
H 	H 	0.31680 0.05320 0.25560 0.10800
H 	H 	0.49720 0.10610 0.14840 0.08000
H 	H 	0.42960 0.06670 0.89020 0.08800
H 	H 	0.02300 0.83900 0.99500 0.05300
H 	H 	0.92900 0.76800 0.93200 0.18000
H 	H 	0.39500 0.87100 0.86900 0.16700
H 	H 	0.63520 0.49260 0.27720 0.06100
H 	H 	0.82500 0.52110 0.10890 0.11800
H 	H 	0.99470 0.45040 0.20710 0.09500
H 	H 	0.94060 0.50710 0.46910 0.07900
H 	H 	0.87540 0.09310 0.59310 0.08300
H 	H 	0.68320 0.05320 0.75560 0.09600
H 	H 	0.50280 0.10610 0.64840 0.07900
H 	H 	0.57040 0.06670 0.39020 0.07700
H 	H 	0.97700 0.83900 0.49500 0.17000
H 	H 	0.07100 0.76800 0.43200 0.21200
H 	H 	0.60500 0.87100 0.36900 0.19200
C 	C 	0.27500 0.46250 0.76810 -0.00500
C 	C 	0.17650 0.53160 0.70620 -0.13100
C 	C 	0.04410 0.50190 0.76490 -0.09000
C 	C 	0.08080 0.45970 0.89710 -0.03100
C 	C 	0.28440 0.37200 0.68340 0.30100
C 	C 	0.21870 0.63240 0.74230 0.40500
C 	C 	0.94270 0.58160 0.77840 0.37600
C 	C 	0.00170 0.36920 0.91910 0.33600
C 	C 	0.21840 0.11650 0.09750 0.08500
C 	C 	0.30990 0.04210 0.15870 -0.15300
C 	C 	0.44560 0.06070 0.09060 -0.02100
C 	C 	0.41000 0.11070 0.96660 -0.11900
C 	C 	0.22570 0.21050 0.17750 0.30500
C 	C 	0.25800 0.94300 0.12440 0.41300
C 	C 	0.53000 0.97360 0.06670 0.47300
C 	C 	0.49150 0.20080 0.95080 0.33200
C 	C 	0.72500 0.46250 0.26810 -0.00500
C 	C 	0.82350 0.53160 0.20620 -0.12600
C 	C 	0.95590 0.50190 0.26490 -0.09000
C 	C 	0.91920 0.45970 0.39710 -0.03300
C 	C 	0.71560 0.37200 0.18340 0.29800
C 	C 	0.78130 0.63240 0.24230 0.39600
C 	C 	0.05730 0.58160 0.27840 0.38400
C 	C 	0.99830 0.36920 0.41910 0.33800
C 	C 	0.78160 0.11650 0.59750 -0.02200
C 	C 	0.69010 0.04210 0.65870 -0.12400
C 	C 	0.55440 0.06070 0.59060 -0.08900
C 	C 	0.59000 0.11070 0.46660 -0.03100
C 	C 	0.77430 0.21050 0.67750 0.32700
C 	C 	0.74200 0.94300 0.62440 0.41000
C 	C 	0.47000 0.97360 0.56670 0.35700
C 	C 	0.50850 0.20080 0.45080 0.32400
Cl	Cl	0.10757 0.96782 0.53000 -0.49300
Cl	Cl	0.62662 0.69091 0.65147 -0.57500
Cl	Cl	0.89243 0.96782 0.03000 -0.38600
Cl	Cl	0.37338 0.69091 0.15147 -0.52200
O 	O 	0.22210 0.44410 0.89480 -0.24000
O 	O 	0.24360 0.29560 0.72790 -0.35700
O 	O 	0.32620 0.38050 0.56870 -0.35300
O 	O 	0.27880 0.67480 0.65330 -0.48300
O 	O 	0.19710 0.66330 0.85590 -0.43500
O 	O 	0.95410 0.64470 0.69600 -0.41000
O 	O 	0.85430 0.57450 0.86380 -0.43800
O 	O 	0.87840 0.38010 0.91830 -0.40900
O 	O 	0.05970 0.29320 0.93980 -0.41600
O 	O 	0.06800 0.78390 0.02380 -0.40600
O 	O 	0.84560 0.76880 0.88680 -0.66700
O 	O 	0.26930 0.12890 0.96850 -0.28100
O 	O 	0.25790 0.28460 0.12280 -0.30100
O 	O 	0.20050 0.20360 0.29750 -0.34900
O 	O 	0.21100 0.89610 0.21540 -0.46300
O 	O 	0.26820 0.91600 0.00700 -0.35200
O 	O 	0.52930 0.91500 0.15660 -0.41700
O 	O 	0.59540 0.96690 0.96180 -0.49100
O 	O 	0.61400 0.19130 0.97260 -0.40600
O 	O 	0.43900 0.27490 0.91250 -0.41500
O 	O 	0.39380 0.80600 0.83920 -0.53300
O 	O 	0.39120 0.76870 0.46760 -0.50600
O 	O 	0.77790 0.44410 0.39480 -0.21600
O 	O 	0.75640 0.29560 0.22790 -0.33400
O 	O 	0.67380 0.38050 0.06870 -0.28900
O 	O 	0.72120 0.67480 0.15330 -0.44300
O 	O 	0.80290 0.66330 0.35590 -0.40300
O 	O 	0.04590 0.64470 0.19600 -0.38800
O 	O 	0.14570 0.57450 0.36380 -0.40900
O 	O 	0.12160 0.38010 0.41830 -0.37000
O 	O 	0.94030 0.29320 0.43980 -0.38100
O 	O 	0.93200 0.78390 0.52380 -0.55400
O 	O 	0.15440 0.76880 0.38680 -0.66000
O 	O 	0.73070 0.12890 0.46850 -0.21100
O 	O 	0.74210 0.28460 0.62280 -0.36500
O 	O 	0.79950 0.20360 0.79750 -0.37100
O 	O 	0.78900 0.89610 0.71540 -0.47500
O 	O 	0.73180 0.91600 0.50700 -0.41700
O 	O 	0.47070 0.91500 0.65660 -0.40600
O 	O 	0.40460 0.96690 0.46180 -0.39200
O 	O 	0.38600 0.19130 0.47260 -0.36100
O 	O 	0.56100 0.27490 0.41250 -0.38300
O 	O 	0.60620 0.80600 0.33920 -0.52200
O 	O 	0.60880 0.76870 0.96760 -0.55800
