data_crystal

_cell_length_a 12.21300
_cell_length_b 12.21300
_cell_length_c 12.34500
_cell_angle_alpha 90.00000
_cell_angle_beta  90.00000
_cell_angle_gamma 90.00000

_symmetry_space_group_name_	'P 1'
_symmetry_space_group_name_H-M	'P 1'

loop_
_symmetry_equiv_pos_as_xyz
  x,y,z

loop_
_atom_site_label
_atom_site_type_symbol
_atom_site_fract_x
_atom_site_fract_y
_atom_site_fract_z
_atom_site_charge
Na	Na	0.27950 0.47170 0.50460 0.59500
Na	Na	0.72050 0.52830 0.50460 0.59600
Na	Na	0.47170 0.72050 0.49540 0.59500
Na	Na	0.52830 0.27950 0.49540 0.59400
Na	Na	0.50000 0.00000 0.51210 0.58200
Na	Na	0.00000 0.50000 0.48790 0.58200
Dy	Dy	-0.00000 0.00000 -0.00000 1.25800
H 	H 	0.27940 0.10480 0.12340 0.01900
H 	H 	0.35040 0.11860 0.29490 0.04300
H 	H 	0.05820 0.22390 0.40120 0.03800
H 	H 	0.97920 0.39050 0.26610 0.13800
H 	H 	0.67480 0.33230 0.16140 0.07600
H 	H 	0.72520 0.15520 0.11950 0.01700
H 	H 	0.72060 0.89520 0.12340 0.03200
H 	H 	0.64960 0.88140 0.29490 0.09200
H 	H 	0.94180 0.77610 0.40120 0.15300
H 	H 	0.02080 0.60950 0.26610 0.02000
H 	H 	0.32520 0.66770 0.16140 0.05900
H 	H 	0.27480 0.84480 0.11950 0.05900
H 	H 	0.10480 0.72060 0.87660 0.03600
H 	H 	0.11860 0.64960 0.70510 0.06900
H 	H 	0.22390 0.94180 0.59880 0.14600
H 	H 	0.39050 0.02080 0.73390 0.02400
H 	H 	0.33230 0.32520 0.83860 0.07900
H 	H 	0.15520 0.27480 0.88050 0.06200
H 	H 	0.89520 0.27940 0.87660 0.07700
H 	H 	0.88140 0.35040 0.70510 0.07900
H 	H 	0.77610 0.05820 0.59880 0.05000
H 	H 	0.60950 0.97920 0.73390 0.13800
H 	H 	0.66770 0.67480 0.83860 0.10100
H 	H 	0.84480 0.72520 0.88050 0.06800
C 	C 	0.23560 0.13040 0.17960 0.01900
C 	C 	0.27760 0.13670 0.28210 -0.02900
C 	C 	0.21100 0.17030 0.36640 -0.06900
C 	C 	0.10360 0.20020 0.34550 -0.00300
C 	C 	0.06510 0.19420 0.24010 -0.05600
C 	C 	0.95550 0.23580 0.21250 0.20400
C 	C 	0.92700 0.34310 0.23770 -0.12900
C 	C 	0.82110 0.37940 0.22070 0.01100
C 	C 	0.74580 0.30860 0.17520 -0.08400
C 	C 	0.77600 0.20260 0.15030 0.06400
C 	C 	0.76440 0.86960 0.17960 0.09700
C 	C 	0.72240 0.86330 0.28210 -0.08300
C 	C 	0.78900 0.82970 0.36640 0.03800
C 	C 	0.89640 0.79980 0.34550 -0.13200
C 	C 	0.93490 0.80580 0.24010 0.22200
C 	C 	0.04450 0.76420 0.21250 -0.05200
C 	C 	0.07300 0.65690 0.23770 0.00300
C 	C 	0.17890 0.62060 0.22070 -0.07200
C 	C 	0.25420 0.69140 0.17520 -0.02300
C 	C 	0.22400 0.79740 0.15030 0.02100
C 	C 	0.13040 0.76440 0.82040 0.07000
C 	C 	0.13670 0.72240 0.71790 -0.08100
C 	C 	0.17030 0.78900 0.63360 0.00900
C 	C 	0.20020 0.89640 0.65450 -0.13400
C 	C 	0.19420 0.93490 0.75990 0.20700
C 	C 	0.23580 0.04450 0.78750 -0.04500
C 	C 	0.34310 0.07300 0.76230 0.00600
C 	C 	0.37940 0.17890 0.77930 -0.05400
C 	C 	0.30860 0.25420 0.82480 -0.02100
C 	C 	0.20260 0.22400 0.84970 0.04000
C 	C 	0.86960 0.23560 0.82040 0.06000
C 	C 	0.86330 0.27760 0.71790 -0.02500
C 	C 	0.82970 0.21100 0.63360 -0.03400
C 	C 	0.79980 0.10360 0.65450 -0.00900
C 	C 	0.80580 0.06510 0.75990 -0.02100
C 	C 	0.76420 0.95550 0.78750 0.20700
C 	C 	0.65690 0.92700 0.76230 -0.12200
C 	C 	0.62060 0.82110 0.77930 0.02600
C 	C 	0.69140 0.74580 0.82480 -0.07600
C 	C 	0.79740 0.77600 0.84970 0.08900
S 	S 	0.26520 0.18292 0.49998 0.50800
S 	S 	0.78663 0.51534 0.25906 0.47000
S 	S 	0.73480 0.81708 0.49998 0.47000
S 	S 	0.21337 0.48466 0.25906 0.50100
S 	S 	0.18292 0.73480 0.50002 0.48100
S 	S 	0.51534 0.21337 0.74094 0.49500
S 	S 	0.81708 0.26520 0.50002 0.49700
S 	S 	0.48466 0.78663 0.74094 0.46500
N 	N 	0.13260 0.16040 0.15910 -0.04300
N 	N 	0.87810 0.16750 0.17000 -0.08100
N 	N 	0.86740 0.83960 0.15910 -0.08100
N 	N 	0.12190 0.83250 0.17000 -0.04200
N 	N 	0.16040 0.86740 0.84090 -0.08500
N 	N 	0.16750 0.12190 0.83000 -0.03600
N 	N 	0.83960 0.13260 0.84090 -0.04200
N 	N 	0.83250 0.87810 0.83000 -0.07700
Cl	Cl	0.50000 0.50000 0.50000 -0.47900
O 	O 	0.09490 0.15470 0.05830 -0.30500
O 	O 	0.90370 0.06450 0.15260 -0.22400
O 	O 	0.33050 0.08480 0.51360 -0.35400
O 	O 	0.33150 0.28230 0.49740 -0.35000
O 	O 	0.17300 0.19110 0.57240 -0.26300
O 	O 	0.85720 0.54120 0.34880 -0.31300
O 	O 	0.80650 0.58260 0.16580 -0.23400
O 	O 	0.67300 0.50970 0.29150 -0.26500
O 	O 	0.58350 0.11690 0.38240 -0.25100
O 	O 	0.90510 0.84530 0.05830 -0.20600
O 	O 	0.09630 0.93550 0.15260 -0.20600
O 	O 	0.66950 0.91520 0.51360 -0.27600
O 	O 	0.66850 0.71770 0.49740 -0.34100
O 	O 	0.82700 0.80890 0.57240 -0.20200
O 	O 	0.14280 0.45880 0.34880 -0.36300
O 	O 	0.19350 0.41740 0.16580 -0.27000
O 	O 	0.32700 0.49030 0.29150 -0.27000
O 	O 	0.41650 0.88310 0.38240 -0.19000
O 	O 	0.15470 0.90510 0.94170 -0.16100
O 	O 	0.06450 0.09630 0.84740 -0.26000
O 	O 	0.08480 0.66950 0.48640 -0.34400
O 	O 	0.28230 0.66850 0.50260 -0.34200
O 	O 	0.19110 0.82700 0.42760 -0.22400
O 	O 	0.54120 0.14280 0.65120 -0.36100
O 	O 	0.58260 0.19350 0.83420 -0.23200
O 	O 	0.50970 0.32700 0.70850 -0.25800
O 	O 	0.11690 0.41650 0.61760 -0.24400
O 	O 	0.84530 0.09490 0.94170 -0.19500
O 	O 	0.93550 0.90370 0.84740 -0.12300
O 	O 	0.91520 0.33050 0.48640 -0.28100
O 	O 	0.71770 0.33150 0.50260 -0.34600
O 	O 	0.80890 0.17300 0.42760 -0.23700
O 	O 	0.45880 0.85720 0.65120 -0.31000
O 	O 	0.41740 0.80650 0.83420 -0.19700
O 	O 	0.49030 0.67300 0.70850 -0.25300
O 	O 	0.88310 0.58350 0.61760 -0.18600
