data_crystal

_cell_length_a 12.23400
_cell_length_b 12.23400
_cell_length_c 12.37300
_cell_angle_alpha 90.00000
_cell_angle_beta  90.00000
_cell_angle_gamma 90.00000

_symmetry_space_group_name_	'P 1'
_symmetry_space_group_name_H-M	'P 1'

loop_
_symmetry_equiv_pos_as_xyz
  x,y,z

loop_
_atom_site_label
_atom_site_type_symbol
_atom_site_fract_x
_atom_site_fract_y
_atom_site_fract_z
_atom_site_charge
Na	Na	0.47130 0.72180 0.50670 0.59400
Na	Na	0.52870 0.27820 0.50670 0.59400
Na	Na	0.72180 0.52870 0.49330 0.59500
Na	Na	0.27820 0.47130 0.49330 0.59400
Na	Na	0.50000 -0.00000 0.48700 0.58300
Na	Na	0.00000 0.50000 0.51300 0.58300
Gd	Gd	-0.00000 0.00000 -0.00000 1.12100
H 	H 	0.71990 0.89270 0.87720 0.06200
H 	H 	0.64920 0.88430 0.70530 0.09400
H 	H 	0.94380 0.77980 0.59770 0.14700
H 	H 	0.01970 0.61070 0.73440 0.02900
H 	H 	0.32470 0.66750 0.84080 0.08200
H 	H 	0.27520 0.84450 0.87660 0.08000
H 	H 	0.28010 0.10730 0.87720 0.05300
H 	H 	0.35080 0.11570 0.70530 0.05200
H 	H 	0.05620 0.22020 0.59770 0.04300
H 	H 	0.98030 0.38930 0.73440 0.13600
H 	H 	0.67530 0.33250 0.84080 0.09700
H 	H 	0.72480 0.15550 0.87660 0.04400
H 	H 	0.89270 0.28010 0.12280 0.04800
H 	H 	0.88430 0.35080 0.29470 0.07500
H 	H 	0.77980 0.05620 0.40230 0.05300
H 	H 	0.61070 0.98030 0.26560 0.13300
H 	H 	0.66750 0.67530 0.15920 0.07900
H 	H 	0.84450 0.72480 0.12340 0.04400
H 	H 	0.10730 0.71990 0.12280 0.01000
H 	H 	0.11570 0.64920 0.29470 0.06200
H 	H 	0.22020 0.94380 0.40230 0.14200
H 	H 	0.38930 0.01970 0.26560 0.02300
H 	H 	0.33250 0.32470 0.15920 0.05700
H 	H 	0.15550 0.27520 0.12340 0.03400
C 	C 	0.76360 0.86830 0.82060 0.09000
C 	C 	0.72120 0.86380 0.71830 -0.06900
C 	C 	0.78860 0.82750 0.63300 0.02800
C 	C 	0.89730 0.80030 0.65360 -0.12200
C 	C 	0.93470 0.80470 0.75910 0.20600
C 	C 	0.04520 0.76360 0.78590 -0.02500
C 	C 	0.07270 0.65760 0.76180 -0.00200
C 	C 	0.17850 0.61920 0.77760 -0.04900
C 	C 	0.25430 0.69130 0.82500 -0.02600
C 	C 	0.22390 0.79660 0.84770 0.04700
C 	C 	0.23640 0.13170 0.82060 0.02600
C 	C 	0.27880 0.13620 0.71830 -0.02800
C 	C 	0.21140 0.17250 0.63300 -0.06100
C 	C 	0.10270 0.19970 0.65360 -0.01300
C 	C 	0.06530 0.19530 0.75910 -0.03600
C 	C 	0.95480 0.23640 0.78590 0.20100
C 	C 	0.92730 0.34240 0.76180 -0.12200
C 	C 	0.82150 0.38080 0.77760 0.02300
C 	C 	0.74570 0.30870 0.82500 -0.07700
C 	C 	0.77610 0.20340 0.84770 0.08400
C 	C 	0.86830 0.23640 0.17940 0.05200
C 	C 	0.86380 0.27880 0.28170 -0.02900
C 	C 	0.82750 0.21140 0.36700 -0.03300
C 	C 	0.80030 0.10270 0.34640 -0.01100
C 	C 	0.80470 0.06530 0.24090 -0.01900
C 	C 	0.76360 0.95480 0.21410 0.19300
C 	C 	0.65760 0.92730 0.23820 -0.12400
C 	C 	0.61920 0.82150 0.22240 0.00900
C 	C 	0.69130 0.74570 0.17500 -0.07900
C 	C 	0.79660 0.77610 0.15230 0.06800
C 	C 	0.13170 0.76360 0.17940 0.05800
C 	C 	0.13620 0.72120 0.28170 -0.07800
C 	C 	0.17250 0.78860 0.36700 0.00300
C 	C 	0.19970 0.89730 0.34640 -0.12800
C 	C 	0.19530 0.93470 0.24090 0.19700
C 	C 	0.23640 0.04520 0.21410 -0.05100
C 	C 	0.34240 0.07270 0.23820 0.00200
C 	C 	0.38080 0.17850 0.22240 -0.06900
C 	C 	0.30870 0.25430 0.17500 -0.02900
C 	C 	0.20340 0.22390 0.15230 0.01900
S 	S 	0.73415 0.81641 0.50020 0.47000
S 	S 	0.21338 0.48424 0.74035 0.48300
S 	S 	0.26585 0.18359 0.50020 0.50200
S 	S 	0.78662 0.51576 0.74035 0.45600
S 	S 	0.81641 0.26585 0.49980 0.49200
S 	S 	0.48424 0.78662 0.25965 0.46000
S 	S 	0.18359 0.73415 0.49980 0.47900
S 	S 	0.51576 0.21338 0.25965 0.48900
N 	N 	0.86820 0.83780 0.84080 -0.07800
N 	N 	0.12250 0.83230 0.82920 -0.04300
N 	N 	0.13180 0.16220 0.84080 -0.04600
N 	N 	0.87750 0.16770 0.82920 -0.07600
N 	N 	0.83780 0.13180 0.15920 -0.04200
N 	N 	0.83230 0.87750 0.17080 -0.08100
N 	N 	0.16220 0.86820 0.15920 -0.08200
N 	N 	0.16770 0.12250 0.17080 -0.04300
Cl	Cl	0.50000 0.50000 0.50000 -0.47100
O 	O 	0.90570 0.84300 0.94090 -0.12600
O 	O 	0.09680 0.93460 0.84630 -0.16600
O 	O 	0.66890 0.91400 0.48750 -0.27800
O 	O 	0.66740 0.71630 0.50380 -0.33600
O 	O 	0.82600 0.80840 0.42780 -0.20400
O 	O 	0.14370 0.46000 0.64990 -0.35700
O 	O 	0.19240 0.41730 0.83370 -0.23000
O 	O 	0.32840 0.48820 0.70680 -0.25000
O 	O 	0.41720 0.88220 0.61680 -0.19000
O 	O 	0.09430 0.15700 0.94090 -0.20500
O 	O 	0.90320 0.06540 0.84630 -0.18000
O 	O 	0.33110 0.08600 0.48750 -0.34900
O 	O 	0.33260 0.28370 0.50380 -0.34400
O 	O 	0.17400 0.19160 0.42780 -0.26000
O 	O 	0.85630 0.54000 0.64990 -0.31200
O 	O 	0.80760 0.58270 0.83370 -0.19900
O 	O 	0.67160 0.51180 0.70680 -0.24500
O 	O 	0.58280 0.11780 0.61680 -0.24400
O 	O 	0.84300 0.09430 0.05910 -0.24700
O 	O 	0.93460 0.90320 0.15370 -0.13200
O 	O 	0.91400 0.33110 0.51250 -0.28500
O 	O 	0.71630 0.33260 0.49620 -0.34300
O 	O 	0.80840 0.17400 0.57220 -0.23700
O 	O 	0.46000 0.85630 0.35010 -0.31200
O 	O 	0.41730 0.80760 0.16630 -0.23000
O 	O 	0.48820 0.67160 0.29320 -0.25600
O 	O 	0.88220 0.58280 0.38320 -0.19500
O 	O 	0.15700 0.90570 0.05910 -0.21300
O 	O 	0.06540 0.09680 0.15370 -0.26900
O 	O 	0.08600 0.66890 0.51250 -0.34300
O 	O 	0.28370 0.66740 0.49620 -0.33900
O 	O 	0.19160 0.82600 0.57220 -0.22600
O 	O 	0.54000 0.14370 0.35010 -0.35900
O 	O 	0.58270 0.19240 0.16630 -0.26500
O 	O 	0.51180 0.32840 0.29320 -0.26100
O 	O 	0.11780 0.41720 0.38320 -0.25100
