data_crystal

_cell_length_a 15.48600
_cell_length_b 15.48600
_cell_length_c 15.48600
_cell_angle_alpha 90.00000
_cell_angle_beta  90.00000
_cell_angle_gamma 90.00000

_symmetry_space_group_name_	'P 1'
_symmetry_space_group_name_H-M	'P 1'

loop_
_symmetry_equiv_pos_as_xyz
  x,y,z

loop_
_atom_site_label
_atom_site_type_symbol
_atom_site_fract_x
_atom_site_fract_y
_atom_site_fract_z
_atom_site_charge
O 	O 	0.73040 0.37940 0.90800 -0.38500
O 	O 	0.60410 0.38350 0.01840 -0.38100
C 	C 	0.75380 0.36810 0.98640 0.24400
C 	C 	0.67710 0.36770 0.05210 0.23500
O 	O 	0.82560 0.35930 0.00790 -0.22200
O 	O 	0.68710 0.35410 0.12870 -0.22900
O 	O 	0.76960 0.62060 0.40800 -0.38400
O 	O 	0.89590 0.61650 0.51840 -0.38000
C 	C 	0.74620 0.63190 0.48640 0.24900
C 	C 	0.82290 0.63230 0.55210 0.23300
O 	O 	0.67440 0.64070 0.50790 -0.22400
O 	O 	0.81290 0.64590 0.62870 -0.22900
O 	O 	0.26960 0.87940 0.59200 -0.38400
O 	O 	0.39590 0.88350 0.48160 -0.38000
C 	C 	0.24620 0.86810 0.51360 0.24900
C 	C 	0.32290 0.86770 0.44790 0.23300
O 	O 	0.17440 0.85930 0.49210 -0.22400
O 	O 	0.31290 0.85410 0.37130 -0.22800
O 	O 	0.23040 0.12060 0.09200 -0.38400
O 	O 	0.10410 0.11650 0.98160 -0.37900
C 	C 	0.25380 0.13190 0.01360 0.24300
C 	C 	0.17710 0.13230 0.94790 0.23600
O 	O 	0.32560 0.14070 0.99210 -0.22100
O 	O 	0.18710 0.14590 0.87130 -0.22900
O 	O 	0.90800 0.73040 0.37940 -0.38400
O 	O 	0.01840 0.60410 0.38350 -0.38000
C 	C 	0.98640 0.75380 0.36810 0.24400
C 	C 	0.05210 0.67710 0.36770 0.23500
O 	O 	0.00790 0.82560 0.35930 -0.22200
O 	O 	0.12870 0.68710 0.35410 -0.22900
O 	O 	0.40800 0.76960 0.62060 -0.38400
O 	O 	0.51840 0.89590 0.61650 -0.38000
C 	C 	0.48640 0.74620 0.63190 0.24900
C 	C 	0.55210 0.82290 0.63230 0.23300
O 	O 	0.50790 0.67440 0.64070 -0.22400
O 	O 	0.62870 0.81290 0.64590 -0.22900
O 	O 	0.59200 0.26960 0.87940 -0.38400
O 	O 	0.48160 0.39590 0.88350 -0.38000
C 	C 	0.51360 0.24620 0.86810 0.24900
C 	C 	0.44790 0.32290 0.86770 0.23300
O 	O 	0.49210 0.17440 0.85930 -0.22400
O 	O 	0.37130 0.31290 0.85410 -0.22800
O 	O 	0.09200 0.23040 0.12060 -0.38400
O 	O 	0.98160 0.10410 0.11650 -0.37900
C 	C 	0.01360 0.25380 0.13190 0.24300
C 	C 	0.94790 0.17710 0.13230 0.23600
O 	O 	0.99210 0.32560 0.14070 -0.22100
O 	O 	0.87130 0.18710 0.14590 -0.22900
O 	O 	0.37940 0.90800 0.73040 -0.38400
O 	O 	0.38350 0.01840 0.60410 -0.38000
C 	C 	0.36810 0.98640 0.75380 0.24400
C 	C 	0.36770 0.05210 0.67710 0.23500
O 	O 	0.35930 0.00790 0.82560 -0.22200
O 	O 	0.35410 0.12870 0.68710 -0.22900
O 	O 	0.62060 0.40800 0.76960 -0.38400
O 	O 	0.61650 0.51840 0.89590 -0.38000
C 	C 	0.63190 0.48640 0.74620 0.24900
C 	C 	0.63230 0.55210 0.82290 0.23300
O 	O 	0.64070 0.50790 0.67440 -0.22400
O 	O 	0.64590 0.62870 0.81290 -0.22900
O 	O 	0.87940 0.59200 0.26960 -0.38400
O 	O 	0.88350 0.48160 0.39590 -0.38000
C 	C 	0.86810 0.51360 0.24620 0.24900
C 	C 	0.86770 0.44790 0.32290 0.23300
O 	O 	0.85930 0.49210 0.17440 -0.22400
O 	O 	0.85410 0.37130 0.31290 -0.22800
O 	O 	0.12060 0.09200 0.23040 -0.38400
O 	O 	0.11650 0.98160 0.10410 -0.37900
C 	C 	0.13190 0.01360 0.25380 0.24300
C 	C 	0.13230 0.94790 0.17710 0.23600
O 	O 	0.14070 0.99210 0.32560 -0.22100
O 	O 	0.14590 0.87130 0.18710 -0.22900
Ag	Ag	0.83290 0.33290 0.16710 0.62600
Ag	Ag	0.66710 0.66710 0.66710 0.62600
Ag	Ag	0.16710 0.83290 0.33290 0.62600
Ag	Ag	0.33290 0.16710 0.83290 0.62600
Cr	Cr	0.60700 0.39300 0.89300 1.57900
Cr	Cr	0.89300 0.60700 0.39300 1.57900
Cr	Cr	0.39300 0.89300 0.60700 1.57900
Cr	Cr	0.10700 0.10700 0.10700 1.57800
