data_crystal

_cell_length_a 18.21600
_cell_length_b 18.21600
_cell_length_c 16.48300
_cell_angle_alpha 90.00000
_cell_angle_beta  90.00000
_cell_angle_gamma 90.00000

_symmetry_space_group_name_	'P 1'
_symmetry_space_group_name_H-M	'P 1'

loop_
_symmetry_equiv_pos_as_xyz
  x,y,z

loop_
_atom_site_label
_atom_site_type_symbol
_atom_site_fract_x
_atom_site_fract_y
_atom_site_fract_z
_atom_site_charge
C 	C 	0.53560 0.35540 0.01140 -0.11400
H 	H 	0.55540 0.30630 0.00510 0.05300
H 	H 	0.49620 0.35310 0.05090 0.05100
C 	C 	0.50600 0.38140 0.93210 0.00000
H 	H 	0.48320 0.42910 0.93920 0.04500
H 	H 	0.46870 0.34750 0.91310 0.04100
C 	C 	0.79810 0.54520 0.69860 0.06400
H 	H 	0.78420 0.59070 0.71910 0.03200
C 	C 	0.84470 0.54160 0.63450 -0.17100
H 	H 	0.86160 0.58460 0.61040 0.09300
C 	C 	0.56680 0.38710 0.86910 -0.16800
H 	H 	0.54640 0.40650 0.81920 0.08600
H 	H 	0.58550 0.33830 0.85780 0.09900
C 	C 	0.59590 0.40670 0.04250 -0.22900
H 	H 	0.61500 0.38840 0.09350 0.10100
H 	H 	0.57570 0.45520 0.05180 0.10600
C 	C 	0.84210 0.40840 0.63870 -0.27600
H 	H 	0.85780 0.36370 0.61770 0.13400
C 	C 	0.86760 0.47320 0.60430 0.12900
H 	H 	0.90010 0.47130 0.56090 -0.01600
C 	C 	0.79330 0.40900 0.70400 0.28200
C 	C 	0.63070 0.43630 0.89640 0.01600
H 	H 	0.61390 0.48730 0.90010 0.06800
C 	C 	0.65880 0.41110 0.97870 0.14400
H 	H 	0.68080 0.36230 0.97280 0.04100
C 	C 	0.83250 0.48270 0.07240 -0.18500
C 	C 	0.77570 0.43880 0.03830 0.12600
H 	H 	0.78330 0.38830 0.03820 -0.00500
C 	C 	0.77060 0.48020 0.73460 -0.14100
C 	C 	0.72030 0.48570 0.79910 0.09900
H 	H 	0.70880 0.53250 0.81770 0.02500
C 	C 	0.88540 0.59990 0.11160 -0.32900
H 	H 	0.88430 0.65090 0.11440 0.15300
C 	C 	0.82750 0.56240 0.07380 0.31200
C 	C 	0.89490 0.44900 0.10720 0.12900
H 	H 	0.89860 0.39810 0.10560 -0.01600
C 	C 	0.94840 0.48700 0.14220 -0.24800
H 	H 	0.98870 0.46310 0.16480 0.11600
C 	C 	0.94340 0.56260 0.14440 0.19600
H 	H 	0.98080 0.58910 0.16910 -0.03500
N 	N 	0.71460 0.46170 0.00760 -0.25300
H 	H 	0.70680 0.50820 0.00410 0.16000
N 	N 	0.68870 0.43050 0.83460 -0.20600
H 	H 	0.70280 0.38720 0.82100 0.15200
N 	N 	0.76370 0.22330 0.93380 0.08800
O 	O 	0.75150 0.22590 0.00750 -0.17100
O 	O 	0.77630 0.16370 0.89800 -0.28400
O 	O 	0.76550 0.34874 0.73500 -0.44700
O 	O 	0.75910 0.28030 0.89190 -0.27600
O 	O 	0.77120 0.59590 0.04050 -0.45200
Cl	Cl	0.89960 0.11070 0.74220 -0.23600
C 	C 	0.46440 0.64460 0.51140 -0.06000
H 	H 	0.44460 0.69370 0.50510 0.05500
H 	H 	0.50380 0.64690 0.55090 0.04500
C 	C 	0.49400 0.61860 0.43210 -0.07100
H 	H 	0.51680 0.57090 0.43920 0.05200
H 	H 	0.53130 0.65250 0.41310 0.05200
C 	C 	0.20190 0.45480 0.19860 0.06300
H 	H 	0.21580 0.40930 0.21910 0.03000
C 	C 	0.15530 0.45840 0.13450 -0.17500
H 	H 	0.13840 0.41540 0.11040 0.08500
C 	C 	0.43320 0.61290 0.36910 -0.15200
H 	H 	0.45360 0.59350 0.31920 0.08000
H 	H 	0.41450 0.66170 0.35780 0.08900
C 	C 	0.40410 0.59330 0.54250 -0.17100
H 	H 	0.38500 0.61160 0.59350 0.09000
H 	H 	0.42430 0.54480 0.55180 0.10200
C 	C 	0.15790 0.59160 0.13870 -0.28000
H 	H 	0.14220 0.63630 0.11770 0.12700
C 	C 	0.13240 0.52680 0.10430 0.12700
H 	H 	0.09990 0.52870 0.06090 -0.03000
C 	C 	0.20670 0.59100 0.20400 0.28200
C 	C 	0.36930 0.56370 0.39640 0.03100
H 	H 	0.38610 0.51270 0.40010 0.04900
C 	C 	0.34120 0.58890 0.47870 0.05400
H 	H 	0.31920 0.63770 0.47280 0.04700
C 	C 	0.16750 0.51730 0.57240 -0.17000
C 	C 	0.22430 0.56120 0.53830 0.12400
H 	H 	0.21670 0.61170 0.53820 0.01000
C 	C 	0.22940 0.51980 0.23460 -0.14300
C 	C 	0.27970 0.51430 0.29910 0.09800
H 	H 	0.29120 0.46750 0.31770 0.01900
C 	C 	0.11460 0.40010 0.61160 -0.31700
H 	H 	0.11570 0.34910 0.61440 0.15600
C 	C 	0.17250 0.43760 0.57380 0.31300
C 	C 	0.10510 0.55100 0.60720 0.12600
H 	H 	0.10140 0.60190 0.60560 -0.00700
C 	C 	0.05160 0.51300 0.64220 -0.23700
H 	H 	0.01130 0.53690 0.66480 0.11400
C 	C 	0.05660 0.43740 0.64440 0.19300
H 	H 	0.01920 0.41090 0.66910 -0.03200
N 	N 	0.28540 0.53830 0.50760 -0.21900
H 	H 	0.29320 0.49180 0.50410 0.16300
N 	N 	0.31130 0.56950 0.33460 -0.21200
H 	H 	0.29720 0.61280 0.32100 0.15100
N 	N 	0.23630 0.77670 0.43380 0.06100
O 	O 	0.24850 0.77410 0.50750 -0.12900
O 	O 	0.22370 0.83630 0.39800 -0.29600
O 	O 	0.23450 0.65126 0.23500 -0.44800
O 	O 	0.24090 0.71970 0.39190 -0.28400
O 	O 	0.22880 0.40410 0.54050 -0.43600
Cl	Cl	0.10040 0.88930 0.24220 -0.24000
C 	C 	0.14460 0.03560 0.76140 -0.06200
H 	H 	0.19370 0.05540 0.75510 0.05800
H 	H 	0.14690 0.99620 0.80090 0.04900
C 	C 	0.11860 0.00600 0.68210 -0.06400
H 	H 	0.07090 0.98320 0.68920 0.04900
H 	H 	0.15250 0.96870 0.66310 0.05000
C 	C 	0.95480 0.29810 0.44860 0.06400
H 	H 	0.90930 0.28420 0.46910 0.03100
C 	C 	0.95840 0.34470 0.38450 -0.17200
H 	H 	0.91540 0.36160 0.36040 0.09200
C 	C 	0.11290 0.06680 0.61910 -0.15600
H 	H 	0.09350 0.04640 0.56920 0.08200
H 	H 	0.16170 0.08550 0.60780 0.09100
C 	C 	0.09330 0.09590 0.79250 -0.17300
H 	H 	0.11160 0.11500 0.84350 0.09700
H 	H 	0.04480 0.07570 0.80180 0.10600
C 	C 	0.09160 0.34210 0.38870 -0.27600
H 	H 	0.13630 0.35780 0.36770 0.13400
C 	C 	0.02680 0.36760 0.35430 0.12900
H 	H 	0.02870 0.40010 0.31090 -0.01600
C 	C 	0.09100 0.29330 0.45400 0.28200
C 	C 	0.06370 0.13070 0.64640 0.03200
H 	H 	0.01270 0.11390 0.65010 0.04900
C 	C 	0.08890 0.15880 0.72870 0.05500
H 	H 	0.13770 0.18080 0.72280 0.04700
C 	C 	0.01730 0.33250 0.82240 -0.16900
C 	C 	0.06120 0.27570 0.78830 0.12700
H 	H 	0.11170 0.28330 0.78820 0.01200
C 	C 	0.01980 0.27060 0.48460 -0.14200
C 	C 	0.01430 0.22030 0.54910 0.09800
H 	H 	0.96750 0.20880 0.56770 0.01900
C 	C 	0.90010 0.38540 0.86160 -0.31400
H 	H 	0.84910 0.38430 0.86440 0.16200
C 	C 	0.93760 0.32750 0.82380 0.31700
C 	C 	0.05100 0.39490 0.85720 0.13200
H 	H 	0.10190 0.39860 0.85560 -0.00300
C 	C 	0.01300 0.44840 0.89220 -0.23700
H 	H 	0.03690 0.48870 0.91480 0.12500
C 	C 	0.93740 0.44340 0.89440 0.20000
H 	H 	0.91090 0.48080 0.91910 -0.02100
N 	N 	0.03830 0.21460 0.75760 -0.21900
H 	H 	0.99180 0.20680 0.75410 0.16400
N 	N 	0.06950 0.18870 0.58460 -0.21200
H 	H 	0.11280 0.20280 0.57100 0.15100
N 	N 	0.27670 0.26370 0.68380 0.06100
O 	O 	0.27410 0.25150 0.75750 -0.12400
O 	O 	0.33630 0.27630 0.64800 -0.29500
O 	O 	0.15126 0.26550 0.48500 -0.44700
O 	O 	0.21970 0.25910 0.64190 -0.28400
O 	O 	0.90410 0.27120 0.79050 -0.43400
Cl	Cl	0.38930 0.39960 0.49220 -0.23900
C 	C 	0.85540 0.96440 0.26140 -0.04800
H 	H 	0.80630 0.94460 0.25510 0.05200
H 	H 	0.85310 0.00380 0.30090 0.04100
C 	C 	0.88140 0.99400 0.18210 -0.08700
H 	H 	0.92910 0.01680 0.18920 0.05500
H 	H 	0.84750 0.03130 0.16310 0.05400
C 	C 	0.04520 0.70190 0.94860 -0.00500
H 	H 	0.09070 0.71580 0.96910 0.07000
C 	C 	0.04160 0.65530 0.88450 -0.11300
H 	H 	0.08460 0.63840 0.86040 0.07600
C 	C 	0.88710 0.93320 0.11910 -0.13100
H 	H 	0.90650 0.95360 0.06920 0.05900
H 	H 	0.83830 0.91450 0.10780 0.07900
C 	C 	0.90670 0.90410 0.29250 -0.18000
H 	H 	0.88840 0.88500 0.34350 0.09200
H 	H 	0.95520 0.92430 0.30180 0.10500
C 	C 	0.90840 0.65790 0.88870 -0.22900
H 	H 	0.86370 0.64220 0.86770 0.12200
C 	C 	0.97320 0.63240 0.85430 0.08700
H 	H 	0.97130 0.59990 0.81090 0.00100
C 	C 	0.90900 0.70670 0.95400 0.24100
C 	C 	0.93630 0.86930 0.14640 0.01300
H 	H 	0.98730 0.88610 0.15010 0.05200
C 	C 	0.91110 0.84120 0.22870 0.06200
H 	H 	0.86230 0.81920 0.22280 0.04400
C 	C 	0.98270 0.66750 0.32240 -0.16800
C 	C 	0.93880 0.72430 0.28830 0.12300
H 	H 	0.88830 0.71670 0.28820 0.01000
C 	C 	0.98020 0.72940 0.98460 -0.03000
C 	C 	0.98570 0.77970 0.04910 -0.01200
H 	H 	0.03250 0.79120 0.06770 0.04300
C 	C 	0.09990 0.61460 0.36160 -0.31500
H 	H 	0.15090 0.61570 0.36440 0.15600
C 	C 	0.06240 0.67250 0.32380 0.31000
C 	C 	0.94900 0.60510 0.35720 0.12300
H 	H 	0.89810 0.60140 0.35560 -0.00600
C 	C 	0.98700 0.55160 0.39220 -0.23400
H 	H 	0.96310 0.51130 0.41480 0.11300
C 	C 	0.06260 0.55660 0.39440 0.19000
H 	H 	0.08910 0.51920 0.41910 -0.03000
N 	N 	0.96170 0.78540 0.25760 -0.21900
H 	H 	0.00820 0.79320 0.25410 0.16200
N 	N 	0.93050 0.81130 0.08460 -0.18600
H 	H 	0.88720 0.79720 0.07100 0.12900
N 	N 	0.72330 0.73630 0.18380 0.06300
O 	O 	0.72590 0.74850 0.25750 -0.13000
O 	O 	0.66370 0.72370 0.14800 -0.30700
O 	O 	0.84874 0.73450 0.98500 -0.40100
O 	O 	0.78030 0.74090 0.14190 -0.29000
O 	O 	0.09590 0.72880 0.29050 -0.43600
Cl	Cl	0.61070 0.60040 0.99220 -0.46300
C 	C 	0.96440 0.85540 0.73860 -0.07600
H 	H 	0.94460 0.80630 0.74490 0.06000
H 	H 	0.00380 0.85310 0.69910 0.04800
C 	C 	0.99400 0.88140 0.81790 -0.04200
H 	H 	0.01680 0.92910 0.81080 0.04500
H 	H 	0.03130 0.84750 0.83690 0.04500
C 	C 	0.70190 0.04520 0.05140 0.13400
H 	H 	0.71580 0.09070 0.03090 -0.00700
C 	C 	0.65530 0.04160 0.11550 -0.23100
H 	H 	0.63840 0.08460 0.13960 0.11000
C 	C 	0.93320 0.88710 0.88090 -0.18100
H 	H 	0.95360 0.90650 0.93080 0.10400
H 	H 	0.91450 0.83830 0.89220 0.10300
C 	C 	0.90410 0.90670 0.70750 -0.15900
H 	H 	0.88500 0.88840 0.65650 0.08600
H 	H 	0.92430 0.95520 0.69820 0.09900
C 	C 	0.65790 0.90840 0.11130 -0.32300
H 	H 	0.64220 0.86370 0.13230 0.14600
C 	C 	0.63240 0.97320 0.14570 0.17300
H 	H 	0.59990 0.97130 0.18910 -0.03200
C 	C 	0.70670 0.90900 0.04600 0.32400
C 	C 	0.86930 0.93630 0.85360 0.05300
H 	H 	0.88610 0.98730 0.84990 0.04700
C 	C 	0.84120 0.91110 0.77130 0.04300
H 	H 	0.81920 0.86230 0.77720 0.05000
C 	C 	0.66750 0.98270 0.67760 -0.17000
C 	C 	0.72430 0.93880 0.71170 0.12300
H 	H 	0.71670 0.88830 0.71180 0.01000
C 	C 	0.72940 0.98020 0.01540 -0.25500
C 	C 	0.77970 0.98570 0.95090 0.21300
H 	H 	0.79120 0.03250 0.93230 -0.00800
C 	C 	0.61460 0.09990 0.63840 -0.31700
H 	H 	0.61570 0.15090 0.63560 0.15600
C 	C 	0.67250 0.06240 0.67620 0.31200
C 	C 	0.60510 0.94900 0.64280 0.12500
H 	H 	0.60140 0.89810 0.64440 -0.00700
C 	C 	0.55160 0.98700 0.60780 -0.23700
H 	H 	0.51130 0.96310 0.58520 0.11400
C 	C 	0.55660 0.06260 0.60560 0.19300
H 	H 	0.51920 0.08910 0.58090 -0.03100
N 	N 	0.78540 0.96170 0.74240 -0.21700
H 	H 	0.79320 0.00820 0.74590 0.16200
N 	N 	0.81130 0.93050 0.91540 -0.23800
H 	H 	0.79720 0.88720 0.92900 0.17400
N 	N 	0.73630 0.72330 0.81620 0.05900
O 	O 	0.74850 0.72590 0.74250 -0.12900
O 	O 	0.72370 0.66370 0.85200 -0.28100
O 	O 	0.73450 0.84874 0.01500 -0.48900
O 	O 	0.74090 0.78030 0.85810 -0.27500
O 	O 	0.72880 0.09590 0.70950 -0.43500
Cl	Cl	0.60040 0.61070 0.00780 -0.01300
C 	C 	0.03560 0.14460 0.23860 -0.06200
H 	H 	0.05540 0.19370 0.24490 0.05400
H 	H 	0.99620 0.14690 0.19910 0.04000
C 	C 	0.00600 0.11860 0.31790 -0.06500
H 	H 	0.98320 0.07090 0.31080 0.05000
H 	H 	0.96870 0.15250 0.33690 0.04900
C 	C 	0.29810 0.95480 0.55140 0.06400
H 	H 	0.28420 0.90930 0.53090 0.03200
C 	C 	0.34470 0.95840 0.61550 -0.17300
H 	H 	0.36160 0.91540 0.63960 0.09400
C 	C 	0.06680 0.11290 0.38090 -0.15600
H 	H 	0.04640 0.09350 0.43080 0.08200
H 	H 	0.08550 0.16170 0.39220 0.09100
C 	C 	0.09590 0.09330 0.20750 -0.16500
H 	H 	0.11500 0.11160 0.15650 0.08000
H 	H 	0.07570 0.04480 0.19820 0.09700
C 	C 	0.34210 0.09160 0.61130 -0.27700
H 	H 	0.35780 0.13630 0.63230 0.13400
C 	C 	0.36760 0.02680 0.64570 0.13100
H 	H 	0.40010 0.02870 0.68910 -0.01600
C 	C 	0.29330 0.09100 0.54600 0.28300
C 	C 	0.13070 0.06370 0.35360 0.03400
H 	H 	0.11390 0.01270 0.34990 0.04900
C 	C 	0.15880 0.08890 0.27130 0.05000
H 	H 	0.18080 0.13770 0.27720 0.04700
C 	C 	0.33250 0.01730 0.17760 -0.16900
C 	C 	0.27570 0.06120 0.21170 0.11900
H 	H 	0.28330 0.11170 0.21180 0.00900
C 	C 	0.27060 0.01980 0.51540 -0.14200
C 	C 	0.22030 0.01430 0.45090 0.10100
H 	H 	0.20880 0.96750 0.43230 0.01700
C 	C 	0.38540 0.90010 0.13840 -0.31800
H 	H 	0.38430 0.84910 0.13560 0.15000
C 	C 	0.32750 0.93760 0.17620 0.30500
C 	C 	0.39490 0.05100 0.14280 0.11700
H 	H 	0.39860 0.10190 0.14440 -0.01100
C 	C 	0.44840 0.01300 0.10780 -0.23500
H 	H 	0.48870 0.03690 0.08520 0.10300
C 	C 	0.44340 0.93740 0.10560 0.18200
H 	H 	0.48080 0.91090 0.08090 -0.04100
N 	N 	0.21460 0.03830 0.24240 -0.21700
H 	H 	0.20680 0.99180 0.24590 0.16000
N 	N 	0.18870 0.06950 0.41540 -0.21200
H 	H 	0.20280 0.11280 0.42900 0.15100
N 	N 	0.26370 0.27670 0.31620 0.06200
O 	O 	0.25150 0.27410 0.24250 -0.13500
O 	O 	0.27630 0.33630 0.35200 -0.29700
O 	O 	0.26550 0.15126 0.51500 -0.44800
O 	O 	0.25910 0.21970 0.35810 -0.28500
O 	O 	0.27120 0.90410 0.20950 -0.43700
Cl	Cl	0.39960 0.38930 0.50780 -0.24000
C 	C 	0.35540 0.53560 0.98860 -0.00600
H 	H 	0.30630 0.55540 0.99490 0.05900
H 	H 	0.35310 0.49620 0.94910 0.03900
C 	C 	0.38140 0.50600 0.06790 -0.14300
H 	H 	0.42910 0.48320 0.06080 0.05900
H 	H 	0.34750 0.46870 0.08690 0.06300
C 	C 	0.54520 0.79810 0.30140 0.06500
H 	H 	0.59070 0.78420 0.28090 0.03100
C 	C 	0.54160 0.84470 0.36550 -0.17200
H 	H 	0.58460 0.86160 0.38960 0.09300
C 	C 	0.38710 0.56680 0.13090 -0.13700
H 	H 	0.40650 0.54640 0.18080 0.07500
H 	H 	0.33830 0.58550 0.14220 0.08000
C 	C 	0.40670 0.59590 0.95750 -0.11200
H 	H 	0.38840 0.61500 0.90650 0.07600
H 	H 	0.45520 0.57570 0.94820 0.09700
C 	C 	0.40840 0.84210 0.36130 -0.27700
H 	H 	0.36370 0.85780 0.38230 0.13400
C 	C 	0.47320 0.86760 0.39570 0.13000
H 	H 	0.47130 0.90010 0.43910 -0.01600
C 	C 	0.40900 0.79330 0.29600 0.28300
C 	C 	0.43630 0.63070 0.10360 0.04700
H 	H 	0.48730 0.61390 0.09990 0.03000
C 	C 	0.41110 0.65880 0.02130 -0.03700
H 	H 	0.36230 0.68080 0.02720 0.05300
C 	C 	0.48270 0.83250 0.92760 -0.15500
C 	C 	0.43880 0.77570 0.96170 0.12100
H 	H 	0.38830 0.78330 0.96180 0.02500
C 	C 	0.48020 0.77060 0.26540 -0.14400
C 	C 	0.48570 0.72030 0.20090 0.09800
H 	H 	0.53250 0.70880 0.18230 0.01300
C 	C 	0.59990 0.88540 0.88840 -0.30400
H 	H 	0.65090 0.88430 0.88560 0.15900
C 	C 	0.56240 0.82750 0.92620 0.31100
C 	C 	0.44900 0.89490 0.89280 0.12100
H 	H 	0.39810 0.89860 0.89440 0.00200
C 	C 	0.48700 0.94840 0.85780 -0.22500
H 	H 	0.46310 0.98870 0.83520 0.11300
C 	C 	0.56260 0.94340 0.85560 0.18900
H 	H 	0.58910 0.98080 0.83090 -0.02700
N 	N 	0.46170 0.71460 0.99240 -0.18500
H 	H 	0.50820 0.70680 0.99590 0.16700
N 	N 	0.43050 0.68870 0.16540 -0.21700
H 	H 	0.38720 0.70280 0.17900 0.15100
N 	N 	0.22330 0.76370 0.06620 0.03400
O 	O 	0.22590 0.75150 0.99250 -0.08700
O 	O 	0.16370 0.77630 0.10200 -0.30800
O 	O 	0.34874 0.76550 0.26500 -0.44800
O 	O 	0.28030 0.75910 0.10810 -0.29300
O 	O 	0.59590 0.77120 0.95950 -0.41400
Cl	Cl	0.11070 0.89960 0.25780 -0.24400
C 	C 	0.64460 0.46440 0.48860 -0.06100
H 	H 	0.69370 0.44460 0.49490 0.05500
H 	H 	0.64690 0.50380 0.44910 0.04400
C 	C 	0.61860 0.49400 0.56790 -0.07100
H 	H 	0.57090 0.51680 0.56080 0.05200
H 	H 	0.65250 0.53130 0.58690 0.05200
C 	C 	0.45480 0.20190 0.80140 0.06700
H 	H 	0.40930 0.21580 0.78090 0.03300
C 	C 	0.45840 0.15530 0.86550 -0.16800
H 	H 	0.41540 0.13840 0.88960 0.10100
C 	C 	0.61290 0.43320 0.63090 -0.15300
H 	H 	0.59350 0.45360 0.68080 0.08100
H 	H 	0.66170 0.41450 0.64220 0.09000
C 	C 	0.59330 0.40410 0.45750 -0.17000
H 	H 	0.61160 0.38500 0.40650 0.08800
H 	H 	0.54480 0.42430 0.44820 0.10100
C 	C 	0.59160 0.15790 0.86130 -0.27200
H 	H 	0.63630 0.14220 0.88230 0.14100
C 	C 	0.52680 0.13240 0.89570 0.13300
H 	H 	0.52870 0.09990 0.93910 -0.00200
C 	C 	0.59100 0.20670 0.79600 0.28400
C 	C 	0.56370 0.36930 0.60360 0.03200
H 	H 	0.51270 0.38610 0.59990 0.04900
C 	C 	0.58890 0.34120 0.52130 0.05300
H 	H 	0.63770 0.31920 0.52720 0.04700
C 	C 	0.51730 0.16750 0.42760 -0.17100
C 	C 	0.56120 0.22430 0.46170 0.12300
H 	H 	0.61170 0.21670 0.46180 0.01000
C 	C 	0.51980 0.22940 0.76540 -0.14200
C 	C 	0.51430 0.27970 0.70090 0.09800
H 	H 	0.46750 0.29120 0.68230 0.02000
C 	C 	0.40010 0.11460 0.38840 -0.31800
H 	H 	0.34910 0.11570 0.38560 0.15600
C 	C 	0.43760 0.17250 0.42620 0.31200
C 	C 	0.55100 0.10510 0.39280 0.12600
H 	H 	0.60190 0.10140 0.39440 -0.00800
C 	C 	0.51300 0.05160 0.35780 -0.23800
H 	H 	0.53690 0.01130 0.33520 0.11500
C 	C 	0.43740 0.05660 0.35560 0.19300
H 	H 	0.41090 0.01920 0.33090 -0.03100
N 	N 	0.53830 0.28540 0.49240 -0.21900
H 	H 	0.49180 0.29320 0.49590 0.16300
N 	N 	0.56950 0.31130 0.66540 -0.21200
H 	H 	0.61280 0.29720 0.67900 0.15100
N 	N 	0.77670 0.23630 0.56620 0.06100
O 	O 	0.77410 0.24850 0.49250 -0.13000
O 	O 	0.83630 0.22370 0.60200 -0.29600
O 	O 	0.65126 0.23450 0.76500 -0.44700
O 	O 	0.71970 0.24090 0.60810 -0.28500
O 	O 	0.40410 0.22880 0.45950 -0.43600
Cl	Cl	0.88930 0.10040 0.75780 -0.24000
Ce	Ce	0.78334 0.21666 0.75000 2.15700
Ce	Ce	0.21666 0.78334 0.25000 2.15600
Ce	Ce	0.28334 0.28334 0.50000 2.15600
Ce	Ce	0.71666 0.71666 -0.00000 2.13400
