data_crystal

_cell_length_a 20.82250
_cell_length_b 23.14630
_cell_length_c 23.14630
_cell_angle_alpha 68.58510
_cell_angle_beta  72.55030
_cell_angle_gamma 107.45000

_symmetry_space_group_name_	'P 1'
_symmetry_space_group_name_H-M	'P 1'

loop_
_symmetry_equiv_pos_as_xyz
  x,y,z

loop_
_atom_site_label
_atom_site_type_symbol
_atom_site_fract_x
_atom_site_fract_y
_atom_site_fract_z
_atom_site_charge
Fe	Fe	0.91013 0.50788 0.12606 1.23400
Fe	Fe	0.96728 0.42461 0.03852 1.21300
Fe	Fe	0.03619 0.12606 0.36606 1.23400
Fe	Fe	0.00580 0.03852 0.53687 1.21200
Fe	Fe	0.40225 0.36606 0.50788 1.23400
Fe	Fe	0.54267 0.53687 0.42461 1.21300
Fe	Fe	0.08987 0.49212 0.87394 1.23400
Fe	Fe	0.03272 0.57539 0.96148 1.21300
Fe	Fe	0.96381 0.87394 0.63394 1.23300
Fe	Fe	0.99420 0.96148 0.46313 1.21100
Fe	Fe	0.59775 0.63394 0.49212 1.23300
Fe	Fe	0.45733 0.46313 0.57539 1.21200
H 	H 	0.60970 0.02290 0.37070 0.06700
H 	H 	0.38410 0.92030 0.48920 0.07200
H 	H 	0.49230 0.12990 0.39130 0.07000
H 	H 	0.60590 0.20770 0.37160 0.07800
H 	H 	0.71350 0.31490 0.29220 0.02400
H 	H 	0.79540 0.22900 0.18920 0.02300
H 	H 	0.68640 0.12420 0.26320 0.07500
H 	H 	0.59650 0.91450 0.45070 0.07200
H 	H 	0.58890 0.80500 0.48130 0.02900
H 	H 	0.39180 0.73950 0.47310 0.03000
H 	H 	0.39790 0.84860 0.44480 0.06900
H 	H 	0.30590 0.93640 0.57040 0.07000
H 	H 	0.18600 0.92670 0.61410 0.03000
H 	H 	0.24870 0.09860 0.43860 0.04400
H 	H 	0.36970 0.10960 0.39320 0.07000
H 	H 	0.20160 0.98980 0.90150 0.05600
H 	H 	0.18240 0.88920 0.91760 0.08100
H 	H 	0.13060 0.78430 0.92460 0.01600
H 	H 	0.97890 0.70530 0.11980 0.01600
H 	H 	0.03580 0.81250 0.11240 0.08200
H 	H 	0.98040 0.37070 0.60640 0.06700
H 	H 	0.87330 0.48920 0.59050 0.07200
H 	H 	0.88360 0.39130 0.47880 0.07000
H 	H 	0.97750 0.37160 0.42070 0.07900
H 	H 	0.00570 0.29220 0.39290 0.02300
H 	H 	0.98460 0.18920 0.58180 0.02400
H 	H 	0.94960 0.26320 0.61260 0.07500
H 	H 	0.04720 0.45070 0.63480 0.07200
H 	H 	0.07020 0.48130 0.71370 0.02900
H 	H 	0.86490 0.47310 0.78740 0.03000
H 	H 	0.84270 0.44480 0.70660 0.06900
H 	H 	0.87630 0.57040 0.49320 0.06900
H 	H 	0.80010 0.61410 0.45920 0.03100
H 	H 	0.68730 0.43860 0.46280 0.04600
H 	H 	0.76290 0.39320 0.49720 0.06900
H 	H 	0.10310 0.90150 0.10870 0.05600
H 	H 	0.10000 0.91760 0.19320 0.08000
H 	H 	0.05520 0.92460 0.29110 0.01600
H 	H 	0.09870 0.11980 0.17490 0.01800
H 	H 	0.14820 0.11240 0.07510 0.08000
H 	H 	0.58680 0.60640 0.02290 0.06700
H 	H 	0.46380 0.59050 0.92030 0.07200
H 	H 	0.36240 0.47880 0.12990 0.07000
H 	H 	0.39820 0.42070 0.20770 0.07800
H 	H 	0.39860 0.39290 0.31490 0.02400
H 	H 	0.56640 0.58180 0.22900 0.02300
H 	H 	0.56220 0.61260 0.12420 0.07500
H 	H 	0.68200 0.63480 0.91450 0.07200
H 	H 	0.78390 0.71370 0.80500 0.02900
H 	H 	0.65230 0.78740 0.73950 0.03000
H 	H 	0.54930 0.70660 0.84860 0.06900
H 	H 	0.36950 0.49320 0.93640 0.06900
H 	H 	0.25930 0.45920 0.92670 0.03100
H 	H 	0.15010 0.46280 0.09860 0.04600
H 	H 	0.26010 0.49720 0.10960 0.06900
H 	H 	0.21180 0.10870 0.98980 0.05600
H 	H 	0.29320 0.19320 0.88920 0.08100
H 	H 	0.34630 0.29110 0.78430 0.01600
H 	H 	0.27360 0.17490 0.70530 0.01700
H 	H 	0.22330 0.07510 0.81250 0.08000
H 	H 	0.39030 0.97710 0.62930 0.06700
H 	H 	0.61590 0.07970 0.51080 0.07200
H 	H 	0.50770 0.87010 0.60870 0.07000
H 	H 	0.39410 0.79230 0.62840 0.07800
H 	H 	0.28650 0.68510 0.70780 0.02400
H 	H 	0.20460 0.77100 0.81080 0.02300
H 	H 	0.31360 0.87580 0.73680 0.07500
H 	H 	0.40350 0.08550 0.54930 0.07200
H 	H 	0.41110 0.19500 0.51870 0.02900
H 	H 	0.60820 0.26050 0.52690 0.03000
H 	H 	0.60210 0.15140 0.55520 0.06900
H 	H 	0.69410 0.06360 0.42960 0.07000
H 	H 	0.81400 0.07330 0.38590 0.03000
H 	H 	0.75130 0.90140 0.56140 0.04400
H 	H 	0.63030 0.89040 0.60680 0.07000
H 	H 	0.79840 0.01020 0.09850 0.05600
H 	H 	0.81760 0.11080 0.08240 0.08100
H 	H 	0.86940 0.21570 0.07540 0.01600
H 	H 	0.02110 0.29470 0.88020 0.01600
H 	H 	0.96420 0.18750 0.88760 0.08200
H 	H 	0.01960 0.62930 0.39360 0.06700
H 	H 	0.12670 0.51080 0.40950 0.07200
H 	H 	0.11640 0.60870 0.52120 0.07000
H 	H 	0.02250 0.62840 0.57930 0.07900
H 	H 	0.99430 0.70780 0.60710 0.02300
H 	H 	0.01540 0.81080 0.41820 0.02400
H 	H 	0.05040 0.73680 0.38740 0.07500
H 	H 	0.95280 0.54930 0.36520 0.07200
H 	H 	0.92980 0.51870 0.28630 0.02900
H 	H 	0.13510 0.52690 0.21260 0.03000
H 	H 	0.15730 0.55520 0.29340 0.06900
H 	H 	0.12370 0.42960 0.50680 0.06900
H 	H 	0.19990 0.38590 0.54080 0.03100
H 	H 	0.31270 0.56140 0.53720 0.04600
H 	H 	0.23710 0.60680 0.50280 0.06900
H 	H 	0.89690 0.09850 0.89130 0.05600
H 	H 	0.90000 0.08240 0.80680 0.08000
H 	H 	0.94480 0.07540 0.70890 0.01600
H 	H 	0.90130 0.88020 0.82510 0.01800
H 	H 	0.85180 0.88760 0.92490 0.08000
H 	H 	0.41320 0.39360 0.97710 0.06700
H 	H 	0.53620 0.40950 0.07970 0.07200
H 	H 	0.63760 0.52120 0.87010 0.07000
H 	H 	0.60180 0.57930 0.79230 0.07800
H 	H 	0.60140 0.60710 0.68510 0.02400
H 	H 	0.43360 0.41820 0.77100 0.02300
H 	H 	0.43780 0.38740 0.87580 0.07500
H 	H 	0.31800 0.36520 0.08550 0.07200
H 	H 	0.21610 0.28630 0.19500 0.02900
H 	H 	0.34770 0.21260 0.26050 0.03000
H 	H 	0.45070 0.29340 0.15140 0.06900
H 	H 	0.63050 0.50680 0.06360 0.06900
H 	H 	0.74070 0.54080 0.07330 0.03100
H 	H 	0.84990 0.53720 0.90140 0.04600
H 	H 	0.73990 0.50280 0.89040 0.06900
H 	H 	0.78820 0.89130 0.01020 0.05600
H 	H 	0.70680 0.80680 0.11080 0.08100
H 	H 	0.65370 0.70890 0.21570 0.01600
H 	H 	0.72640 0.82510 0.29470 0.01700
H 	H 	0.77670 0.92490 0.18750 0.08000
C 	C 	0.56179 0.08779 0.37352 0.03800
C 	C 	0.56373 0.02339 0.38940 -0.10700
C 	C 	0.49605 0.96039 0.43344 0.04600
C 	C 	0.42877 0.96206 0.46055 -0.11200
C 	C 	0.42566 0.02480 0.44622 0.04400
C 	C 	0.49362 0.08764 0.40178 -0.10800
C 	C 	0.63350 0.15474 0.32584 0.05800
C 	C 	0.64321 0.21172 0.33389 -0.12800
C 	C 	0.70856 0.27633 0.28645 0.06000
C 	C 	0.76514 0.28275 0.23143 -0.14000
C 	C 	0.75642 0.22562 0.22506 0.06400
C 	C 	0.69124 0.16197 0.27025 -0.12900
C 	C 	0.83240 0.35192 0.18042 0.37900
C 	C 	0.49648 0.89184 0.44760 0.04200
C 	C 	0.55488 0.87932 0.45608 -0.11100
C 	C 	0.55109 0.81409 0.47272 0.03700
C 	C 	0.49188 0.76200 0.47676 -0.10400
C 	C 	0.43305 0.77462 0.46817 0.03500
C 	C 	0.43624 0.83968 0.45226 -0.10700
C 	C 	0.49301 0.69404 0.48851 0.34600
C 	C 	0.35093 0.02379 0.47530 0.03800
C 	C 	0.29441 0.96866 0.54323 -0.11000
C 	C 	0.22245 0.96246 0.56931 0.04100
C 	C 	0.20418 0.00979 0.52865 -0.11700
C 	C 	0.25982 0.06511 0.46445 0.03500
C 	C 	0.33290 0.07210 0.43730 -0.10400
C 	C 	0.12309 0.99617 0.55490 0.36300
C 	C 	0.18786 0.99404 0.94126 -0.08200
C 	C 	0.14488 0.93403 0.00629 0.01700
C 	C 	0.11577 0.86256 0.01375 0.08300
C 	C 	0.14165 0.85165 0.95970 -0.15000
C 	C 	0.11146 0.78881 0.96373 0.08500
C 	C 	0.05262 0.73178 0.02532 -0.15100
C 	C 	0.02209 0.74184 0.07927 0.08200
C 	C 	0.05536 0.80706 0.07408 -0.14500
C 	C 	0.01951 0.66155 0.03132 0.40100
C 	C 	0.93531 0.37352 0.53869 0.03800
C 	C 	0.95313 0.38940 0.58721 -0.10700
C 	C 	0.92949 0.43344 0.60617 0.04700
C 	C 	0.88932 0.46055 0.57739 -0.11300
C 	C 	0.87188 0.44622 0.52898 0.04500
C 	C 	0.89540 0.40178 0.51058 -0.10900
C 	C 	0.95934 0.32584 0.51942 0.05800
C 	C 	0.97710 0.33389 0.45439 -0.12800
C 	C 	0.99501 0.28645 0.43722 0.06200
C 	C 	0.99657 0.23143 0.48582 -0.13900
C 	C 	0.98148 0.22506 0.54932 0.06400
C 	C 	0.96149 0.27025 0.56778 -0.12900
C 	C 	0.01282 0.18042 0.46766 0.37800
C 	C 	0.94408 0.44760 0.66056 0.04200
C 	C 	0.01096 0.45608 0.66460 -0.11000
C 	C 	0.02381 0.47272 0.71319 0.03700
C 	C 	0.96864 0.47676 0.76124 -0.10400
C 	C 	0.90122 0.46817 0.75721 0.03500
C 	C 	0.88850 0.45226 0.70806 -0.10700
C 	C 	0.98152 0.48851 0.81745 0.34600
C 	C 	0.82623 0.47530 0.50091 0.03700
C 	C 	0.83764 0.54323 0.48811 -0.10800
C 	C 	0.79176 0.56931 0.46823 0.03700
C 	C 	0.73283 0.52865 0.46156 -0.11200
C 	C 	0.72427 0.46445 0.47044 0.03200
C 	C 	0.77020 0.43730 0.49060 -0.10200
C 	C 	0.67799 0.55490 0.44893 0.35900
C 	C 	0.12912 0.94126 0.06470 -0.08100
C 	C 	0.15117 0.00629 0.05968 0.01500
C 	C 	0.12952 0.01375 0.12369 0.07900
C 	C 	0.10135 0.95970 0.18865 -0.14600
C 	C 	0.07519 0.96373 0.24746 0.08400
C 	C 	0.07794 0.02532 0.24290 -0.15100
C 	C 	0.10136 0.07927 0.17889 0.07800
C 	C 	0.12944 0.07408 0.11886 -0.14200
C 	C 	0.05083 0.03132 0.30713 0.39700
C 	C 	0.47400 0.53869 0.08779 0.03800
C 	C 	0.54034 0.58721 0.02339 -0.10700
C 	C 	0.53566 0.60617 0.96039 0.04700
C 	C 	0.46671 0.57739 0.96206 -0.11300
C 	C 	0.40086 0.52898 0.02480 0.04500
C 	C 	0.40598 0.51058 0.08764 -0.10900
C 	C 	0.47876 0.51942 0.15474 0.05800
C 	C 	0.43149 0.45439 0.21172 -0.12800
C 	C 	0.43223 0.43722 0.27633 0.06000
C 	C 	0.48239 0.48582 0.28275 -0.14000
C 	C 	0.53080 0.54932 0.22562 0.06400
C 	C 	0.52927 0.56778 0.16197 -0.12900
C 	C 	0.48048 0.46766 0.35192 0.37900
C 	C 	0.60464 0.66056 0.89184 0.04200
C 	C 	0.67556 0.66460 0.87932 -0.11000
C 	C 	0.73700 0.71319 0.81409 0.03700
C 	C 	0.72988 0.76124 0.76200 -0.10400
C 	C 	0.65843 0.75721 0.77462 0.03500
C 	C 	0.59656 0.70806 0.83968 -0.10700
C 	C 	0.79897 0.81745 0.69404 0.34600
C 	C 	0.32714 0.50091 0.02379 0.03700
C 	C 	0.32575 0.48811 0.96866 -0.10800
C 	C 	0.25999 0.46823 0.96246 0.03700
C 	C 	0.19439 0.46156 0.00979 -0.11200
C 	C 	0.19471 0.47044 0.06511 0.03200
C 	C 	0.26080 0.49060 0.07210 -0.10200
C 	C 	0.12692 0.44893 0.99617 0.35900
C 	C 	0.19382 0.06470 0.99404 -0.08200
C 	C 	0.21085 0.05968 0.93403 0.01600
C 	C 	0.25321 0.12369 0.86256 0.08100
C 	C 	0.29000 0.18865 0.85165 -0.14900
C 	C 	0.32265 0.24746 0.78881 0.08300
C 	C 	0.32084 0.24290 0.73178 -0.14900
C 	C 	0.28025 0.17889 0.74184 0.07800
C 	C 	0.24830 0.11886 0.80706 -0.14300
C 	C 	0.35796 0.30713 0.66155 0.39900
C 	C 	0.43821 0.91221 0.62648 0.03800
C 	C 	0.43627 0.97661 0.61060 -0.10700
C 	C 	0.50395 0.03961 0.56656 0.04600
C 	C 	0.57123 0.03794 0.53945 -0.11200
C 	C 	0.57434 0.97520 0.55378 0.04400
C 	C 	0.50638 0.91236 0.59822 -0.10800
C 	C 	0.36650 0.84526 0.67416 0.05800
C 	C 	0.35679 0.78828 0.66611 -0.12800
C 	C 	0.29144 0.72367 0.71355 0.06000
C 	C 	0.23486 0.71725 0.76857 -0.14000
C 	C 	0.24358 0.77438 0.77494 0.06400
C 	C 	0.30876 0.83803 0.72975 -0.12900
C 	C 	0.16760 0.64808 0.81958 0.37900
C 	C 	0.50352 0.10816 0.55240 0.04200
C 	C 	0.44512 0.12068 0.54392 -0.11100
C 	C 	0.44891 0.18591 0.52728 0.03700
C 	C 	0.50812 0.23800 0.52324 -0.10400
C 	C 	0.56695 0.22538 0.53183 0.03500
C 	C 	0.56376 0.16032 0.54774 -0.10700
C 	C 	0.50699 0.30596 0.51149 0.34600
C 	C 	0.64907 0.97621 0.52470 0.03800
C 	C 	0.70559 0.03134 0.45677 -0.11000
C 	C 	0.77755 0.03754 0.43069 0.04100
C 	C 	0.79582 0.99021 0.47135 -0.11700
C 	C 	0.74018 0.93489 0.53555 0.03500
C 	C 	0.66710 0.92790 0.56270 -0.10400
C 	C 	0.87691 0.00383 0.44510 0.36300
C 	C 	0.81214 0.00596 0.05874 -0.08200
C 	C 	0.85512 0.06597 0.99371 0.01700
C 	C 	0.88423 0.13744 0.98625 0.08300
C 	C 	0.85835 0.14835 0.04030 -0.15000
C 	C 	0.88854 0.21119 0.03627 0.08500
C 	C 	0.94738 0.26822 0.97468 -0.15100
C 	C 	0.97791 0.25816 0.92073 0.08200
C 	C 	0.94464 0.19294 0.92592 -0.14500
C 	C 	0.98049 0.33845 0.96868 0.40100
C 	C 	0.06469 0.62648 0.46131 0.03800
C 	C 	0.04687 0.61060 0.41279 -0.10700
C 	C 	0.07051 0.56656 0.39383 0.04700
C 	C 	0.11068 0.53945 0.42261 -0.11300
C 	C 	0.12812 0.55378 0.47102 0.04500
C 	C 	0.10460 0.59822 0.48942 -0.10900
C 	C 	0.04066 0.67416 0.48058 0.05800
C 	C 	0.02290 0.66611 0.54561 -0.12800
C 	C 	0.00499 0.71355 0.56278 0.06200
C 	C 	0.00343 0.76857 0.51418 -0.13900
C 	C 	0.01852 0.77494 0.45068 0.06400
C 	C 	0.03851 0.72975 0.43222 -0.12900
C 	C 	0.98718 0.81958 0.53234 0.37800
C 	C 	0.05592 0.55240 0.33944 0.04200
C 	C 	0.98904 0.54392 0.33540 -0.11000
C 	C 	0.97619 0.52728 0.28681 0.03700
C 	C 	0.03136 0.52324 0.23876 -0.10400
C 	C 	0.09878 0.53183 0.24279 0.03500
C 	C 	0.11150 0.54774 0.29194 -0.10700
C 	C 	0.01848 0.51149 0.18255 0.34600
C 	C 	0.17377 0.52470 0.49909 0.03700
C 	C 	0.16236 0.45677 0.51189 -0.10800
C 	C 	0.20824 0.43069 0.53177 0.03700
C 	C 	0.26717 0.47135 0.53844 -0.11200
C 	C 	0.27573 0.53555 0.52956 0.03200
C 	C 	0.22980 0.56270 0.50940 -0.10200
C 	C 	0.32201 0.44510 0.55107 0.35900
C 	C 	0.87088 0.05874 0.93530 -0.08100
C 	C 	0.84883 0.99371 0.94032 0.01500
C 	C 	0.87048 0.98625 0.87631 0.07900
C 	C 	0.89865 0.04030 0.81135 -0.14600
C 	C 	0.92481 0.03627 0.75254 0.08400
C 	C 	0.92206 0.97468 0.75710 -0.15100
C 	C 	0.89864 0.92073 0.82111 0.07800
C 	C 	0.87056 0.92592 0.88114 -0.14200
C 	C 	0.94917 0.96868 0.69287 0.39700
C 	C 	0.52600 0.46131 0.91221 0.03800
C 	C 	0.45966 0.41279 0.97661 -0.10700
C 	C 	0.46434 0.39383 0.03961 0.04700
C 	C 	0.53329 0.42261 0.03794 -0.11300
C 	C 	0.59914 0.47102 0.97520 0.04500
C 	C 	0.59402 0.48942 0.91236 -0.10900
C 	C 	0.52124 0.48058 0.84526 0.05800
C 	C 	0.56851 0.54561 0.78828 -0.12800
C 	C 	0.56777 0.56278 0.72367 0.06000
C 	C 	0.51761 0.51418 0.71725 -0.14000
C 	C 	0.46920 0.45068 0.77438 0.06400
C 	C 	0.47073 0.43222 0.83803 -0.12900
C 	C 	0.51952 0.53234 0.64808 0.37900
C 	C 	0.39536 0.33944 0.10816 0.04200
C 	C 	0.32444 0.33540 0.12068 -0.11000
C 	C 	0.26300 0.28681 0.18591 0.03700
C 	C 	0.27012 0.23876 0.23800 -0.10400
C 	C 	0.34157 0.24279 0.22538 0.03500
C 	C 	0.40344 0.29194 0.16032 -0.10700
C 	C 	0.20103 0.18255 0.30596 0.34600
C 	C 	0.67286 0.49909 0.97621 0.03700
C 	C 	0.67425 0.51189 0.03134 -0.10800
C 	C 	0.74001 0.53177 0.03754 0.03700
C 	C 	0.80561 0.53844 0.99021 -0.11200
C 	C 	0.80529 0.52956 0.93489 0.03200
C 	C 	0.73920 0.50940 0.92790 -0.10200
C 	C 	0.87308 0.55107 0.00383 0.35900
C 	C 	0.80618 0.93530 0.00596 -0.08200
C 	C 	0.78915 0.94032 0.06597 0.01600
C 	C 	0.74679 0.87631 0.13744 0.08100
C 	C 	0.71000 0.81135 0.14835 -0.14900
C 	C 	0.67735 0.75254 0.21119 0.08300
C 	C 	0.67916 0.75710 0.26822 -0.14900
C 	C 	0.71975 0.82111 0.25816 0.07800
C 	C 	0.75170 0.88114 0.19294 -0.14300
C 	C 	0.64204 0.69287 0.33845 0.39900
O 	O 	0.82917 0.40562 0.17973 -0.43000
O 	O 	0.88947 0.35263 0.13895 -0.41800
O 	O 	0.53602 0.67952 0.51398 -0.41400
O 	O 	0.45540 0.65868 0.46917 -0.27500
O 	O 	0.07470 0.93650 0.60422 -0.43300
O 	O 	0.10889 0.04710 0.52624 -0.40600
O 	O 	0.04122 0.65788 0.97677 -0.43000
O 	O 	0.97552 0.61040 0.09249 -0.43100
O 	O 	0.97306 0.50040 0.05719 -0.66900
O 	O 	0.00890 0.17973 0.41465 -0.43000
O 	O 	0.02842 0.13895 0.50842 -0.41900
O 	O 	0.05000 0.51398 0.80650 -0.41400
O 	O 	0.92457 0.46917 0.87215 -0.27500
O 	O 	0.67892 0.60422 0.45928 -0.43300
O 	O 	0.63513 0.52624 0.42666 -0.40400
O 	O 	0.01799 0.97677 0.36535 -0.42700
O 	O 	0.06801 0.09249 0.29711 -0.43000
O 	O 	0.03025 0.05719 0.44241 -0.67000
O 	O 	0.42355 0.41465 0.40562 -0.43000
O 	O 	0.53684 0.50842 0.35263 -0.41900
O 	O 	0.85650 0.80650 0.67952 -0.41400
O 	O 	0.79672 0.87215 0.65868 -0.27500
O 	O 	0.13820 0.45928 0.93650 -0.43300
O 	O 	0.06179 0.42666 0.04710 -0.40400
O 	O 	0.38334 0.36535 0.65788 -0.43000
O 	O 	0.36512 0.29711 0.61040 -0.43000
O 	O 	0.47266 0.44241 0.50040 -0.67000
O 	O 	0.17083 0.59438 0.82027 -0.43000
O 	O 	0.11053 0.64737 0.86105 -0.41800
O 	O 	0.46398 0.32048 0.48602 -0.41400
O 	O 	0.54460 0.34132 0.53083 -0.27500
O 	O 	0.92530 0.06350 0.39578 -0.43300
O 	O 	0.89111 0.95290 0.47376 -0.40600
O 	O 	0.95878 0.34212 0.02323 -0.43000
O 	O 	0.02448 0.38960 0.90751 -0.43100
O 	O 	0.02694 0.49960 0.94281 -0.66900
O 	O 	0.99110 0.82027 0.58535 -0.43000
O 	O 	0.97158 0.86105 0.49158 -0.41900
O 	O 	0.95000 0.48602 0.19350 -0.41400
O 	O 	0.07543 0.53083 0.12785 -0.27500
O 	O 	0.32108 0.39578 0.54072 -0.43300
O 	O 	0.36487 0.47376 0.57334 -0.40400
O 	O 	0.98201 0.02323 0.63465 -0.42700
O 	O 	0.93199 0.90751 0.70289 -0.43000
O 	O 	0.96975 0.94281 0.55759 -0.67000
O 	O 	0.57645 0.58535 0.59438 -0.43000
O 	O 	0.46316 0.49158 0.64737 -0.41900
O 	O 	0.14350 0.19350 0.32048 -0.41400
O 	O 	0.20328 0.12785 0.34132 -0.27500
O 	O 	0.86180 0.54072 0.06350 -0.43300
O 	O 	0.93821 0.57334 0.95290 -0.40400
O 	O 	0.61666 0.63465 0.34212 -0.43000
O 	O 	0.63488 0.70289 0.38960 -0.43000
O 	O 	0.52734 0.55759 0.49960 -0.67000
