data_crystal

_cell_length_a 14.20360
_cell_length_b 14.46010
_cell_length_c 18.07240
_cell_angle_alpha 69.23460
_cell_angle_beta  66.86090
_cell_angle_gamma 60.58510

_symmetry_space_group_name_	'P 1'
_symmetry_space_group_name_H-M	'P 1'

loop_
_symmetry_equiv_pos_as_xyz
  x,y,z

loop_
_atom_site_label
_atom_site_type_symbol
_atom_site_fract_x
_atom_site_fract_y
_atom_site_fract_z
_atom_site_charge
Zn	Zn	0.75808 0.00816 0.63508 1.21500
Zn	Zn	0.37877 0.20428 0.42350 1.22700
Zn	Zn	0.18983 0.58403 0.59473 1.12900
Zn	Zn	0.40132 0.49184 0.86492 1.20800
Zn	Zn	0.00655 0.29572 0.07650 1.22100
Zn	Zn	0.36859 0.91597 0.90527 1.12700
Zn	Zn	0.24192 0.99184 0.36492 1.19500
Zn	Zn	0.62123 0.79572 0.57650 1.22500
Zn	Zn	0.81017 0.41597 0.40527 1.12900
Zn	Zn	0.59868 0.50816 0.13508 1.20300
Zn	Zn	0.99345 0.70428 0.92350 1.23000
Zn	Zn	0.63141 0.08403 0.09473 1.13100
Zn	Zn	0.50000 0.50000 0.50000 1.16500
Zn	Zn	0.50000 1.00000 -0.00000 1.14800
H 	H 	0.51260 0.30890 0.43750 -0.02900
H 	H 	0.53380 0.46170 0.68050 -0.02500
H 	H 	0.21270 0.56390 0.77750 -0.02800
H 	H 	0.87220 0.16310 0.50770 -0.03400
H 	H 	0.80840 0.59690 0.47790 -0.05300
H 	H 	0.74000 0.15260 0.25480 0.02300
H 	H 	0.92270 0.96570 0.45930 -0.02400
H 	H 	0.55390 0.24620 0.61380 -0.04300
H 	H 	0.25900 0.19110 0.06250 -0.02900
H 	H 	0.67600 0.03830 0.81950 -0.03600
H 	H 	0.55410 0.93610 0.72250 -0.03000
H 	H 	0.54300 0.33690 0.99230 -0.03800
H 	H 	0.88320 0.90310 0.02210 -0.05300
H 	H 	0.14740 0.34740 0.24520 0.02600
H 	H 	0.34770 0.53430 0.04070 -0.00400
H 	H 	0.41390 0.25380 0.88620 -0.04100
H 	H 	0.48740 0.69110 0.56250 -0.02900
H 	H 	0.46620 0.53830 0.31950 -0.02600
H 	H 	0.78730 0.43610 0.22250 -0.03100
H 	H 	0.12780 0.83690 0.49230 -0.04100
H 	H 	0.19160 0.40310 0.52210 -0.05000
H 	H 	0.26000 0.84740 0.74520 0.01600
H 	H 	0.07730 0.03430 0.54070 0.06000
H 	H 	0.44610 0.75380 0.38620 -0.05000
H 	H 	0.74100 0.80890 0.93750 -0.02700
H 	H 	0.32400 0.96170 0.18050 -0.01300
H 	H 	0.44590 0.06390 0.27750 -0.02800
H 	H 	0.45700 0.66310 0.00770 -0.03600
H 	H 	0.11680 0.09690 0.97790 -0.04900
H 	H 	0.85260 0.65260 0.75480 0.01400
H 	H 	0.65230 0.46570 0.95930 0.03800
H 	H 	0.58610 0.74620 0.11380 -0.05100
C 	C 	0.43780 0.34680 0.46320 0.10600
C 	C 	0.61340 0.07080 0.37760 0.34300
C 	C 	0.78300 0.00350 0.43010 -0.10800
C 	C 	0.05530 0.03660 0.32860 0.36400
C 	C 	0.45720 0.48730 0.68750 0.09900
C 	C 	0.28310 0.54270 0.74030 0.09700
C 	C 	0.79510 0.20340 0.52320 0.09700
C 	C 	0.93730 0.05430 0.34350 -0.09600
C 	C 	0.73570 0.60260 0.49100 0.11300
C 	C 	0.73620 0.93590 0.50510 0.39200
C 	C 	0.92330 0.17430 0.19910 0.32900
C 	C 	0.77810 0.11320 0.29540 -0.02000
C 	C 	0.88110 0.11060 0.28080 -0.04400
C 	C 	0.88660 0.00200 0.41760 0.07000
C 	C 	0.62210 0.24900 0.58060 0.11100
C 	C 	0.72780 0.05980 0.36800 -0.03800
C 	C 	0.24780 0.15320 0.03680 0.10200
C 	C 	0.06180 0.42920 0.12240 0.33500
C 	C 	0.21660 0.49650 0.06990 -0.16600
C 	C 	0.42050 0.46340 0.17140 0.31900
C 	C 	0.63200 0.01270 0.81250 0.15600
C 	C 	0.56610 0.95730 0.75970 0.09100
C 	C 	0.52170 0.29660 0.97680 0.12900
C 	C 	0.33510 0.44570 0.15650 -0.08200
C 	C 	0.82930 0.89740 0.00900 0.07700
C 	C 	0.17720 0.56410 0.99490 0.48700
C 	C 	0.29670 0.32570 0.30090 0.32800
C 	C 	0.18670 0.38680 0.20460 -0.02600
C 	C 	0.27250 0.38940 0.21920 -0.05000
C 	C 	0.30620 0.49800 0.08240 0.03600
C 	C 	0.45170 0.25100 0.91940 0.11500
C 	C 	0.15560 0.44020 0.13200 -0.02600
C 	C 	0.56220 0.65320 0.53680 0.10400
C 	C 	0.38660 0.92920 0.62240 0.34200
C 	C 	0.21700 0.99650 0.56990 -0.11100
C 	C 	0.94470 0.96340 0.67140 0.26500
C 	C 	0.54280 0.51270 0.31250 0.09800
C 	C 	0.71690 0.45730 0.25970 0.09500
C 	C 	0.20490 0.79660 0.47680 0.09500
C 	C 	0.06270 0.94570 0.65650 -0.03100
C 	C 	0.26430 0.39740 0.50900 0.11500
C 	C 	0.26380 0.06410 0.49490 0.42800
C 	C 	0.07670 0.82570 0.80090 0.33600
C 	C 	0.22190 0.88680 0.70460 0.00300
C 	C 	0.11890 0.88940 0.71920 -0.07900
C 	C 	0.11340 0.99800 0.58240 -0.05800
C 	C 	0.37790 0.75100 0.41940 0.10900
C 	C 	0.27220 0.94020 0.63200 -0.05700
C 	C 	0.75220 0.84680 0.96320 0.10800
C 	C 	0.93820 0.57080 0.87760 0.34800
C 	C 	0.78340 0.50350 0.93010 -0.05700
C 	C 	0.57950 0.53660 0.82860 0.30600
C 	C 	0.36800 0.98730 0.18750 0.03500
C 	C 	0.43390 0.04270 0.24030 0.10100
C 	C 	0.47830 0.70340 0.02320 0.06000
C 	C 	0.66490 0.55430 0.84350 -0.04500
C 	C 	0.17070 0.10260 0.99100 0.15000
C 	C 	0.82280 0.43590 0.00510 0.33800
C 	C 	0.70330 0.67430 0.69910 0.33700
C 	C 	0.81330 0.61320 0.79540 0.00700
C 	C 	0.72750 0.61060 0.78080 -0.07300
C 	C 	0.69380 0.50200 0.91760 -0.02100
C 	C 	0.54830 0.74900 0.08060 0.10500
C 	C 	0.84440 0.55980 0.86800 -0.06700
N 	N 	0.41410 0.50470 0.62930 -0.23300
N 	N 	0.30041 0.54058 0.66340 -0.25100
N 	N 	0.71041 0.53918 0.47180 -0.26500
N 	N 	0.35410 0.32480 0.46900 -0.27100
N 	N 	0.72150 0.16190 0.57810 -0.28600
N 	N 	0.37920 0.51030 0.75850 -0.28900
N 	N 	0.74500 0.30770 0.49410 -0.25600
N 	N 	0.40273 0.42804 0.49790 -0.24100
N 	N 	0.63130 0.33760 0.53180 -0.22800
N 	N 	0.54810 0.99530 0.87070 -0.25100
N 	N 	0.50439 0.95942 0.83660 -0.25300
N 	N 	0.72139 0.96082 0.02820 -0.28200
N 	N 	0.14790 0.17520 0.03100 -0.28900
N 	N 	0.46150 0.33810 0.92190 -0.29200
N 	N 	0.64800 0.98970 0.74150 -0.31300
N 	N 	0.54680 0.19230 0.00590 -0.28000
N 	N 	0.32867 0.07196 0.00210 -0.24800
N 	N 	0.50070 0.16240 0.96820 -0.20800
N 	N 	0.58590 0.49530 0.37070 -0.23300
N 	N 	0.69959 0.45942 0.33660 -0.25200
N 	N 	0.28959 0.46082 0.52820 -0.26400
N 	N 	0.64590 0.67520 0.53100 -0.27300
N 	N 	0.27850 0.83810 0.42190 -0.29500
N 	N 	0.62080 0.48970 0.24150 -0.29100
N 	N 	0.25500 0.69230 0.50590 -0.25600
N 	N 	0.59727 0.57196 0.50210 -0.24100
N 	N 	0.36870 0.66240 0.46820 -0.22900
N 	N 	0.45190 0.00470 0.12930 -0.20800
N 	N 	0.49561 0.04058 0.16340 -0.25000
N 	N 	0.27861 0.03918 0.97180 -0.24800
N 	N 	0.85210 0.82480 0.96900 -0.25400
N 	N 	0.53850 0.66190 0.07810 -0.28900
N 	N 	0.35200 0.01030 0.25850 -0.26400
N 	N 	0.45320 0.80770 0.99410 -0.22900
N 	N 	0.67133 0.92804 0.99790 -0.22800
N 	N 	0.49930 0.83760 0.03180 -0.24700
O 	O 	0.95890 0.23700 0.19880 -0.44600
O 	O 	0.53629 0.12002 0.43200 -0.43900
O 	O 	0.92000 0.16450 0.13510 -0.37200
O 	O 	0.25863 0.07154 0.42520 -0.51100
O 	O 	0.69675 0.88440 0.49230 -0.48000
O 	O 	0.12750 0.99750 0.27050 -0.37400
O 	O 	0.92350 0.94120 0.61780 -0.45200
O 	O 	0.59880 0.03940 0.32840 -0.32000
O 	O 	0.39470 0.26300 0.30120 -0.44600
O 	O 	0.08831 0.37998 0.06800 -0.45200
O 	O 	0.21960 0.33550 0.36490 -0.36900
O 	O 	0.75537 0.42846 0.07480 -0.50500
O 	O 	0.07345 0.61560 0.00770 -0.52300
O 	O 	0.39550 0.50250 0.22950 -0.33600
O 	O 	0.48250 0.55880 0.88220 -0.44400
O 	O 	0.96660 0.46060 0.17160 -0.32900
O 	O 	0.04110 0.76300 0.80120 -0.44800
O 	O 	0.46371 0.87998 0.56800 -0.45100
O 	O 	0.08000 0.83550 0.86490 -0.36700
O 	O 	0.74137 0.92846 0.57480 -0.52100
O 	O 	0.30325 0.11560 0.50770 -0.47000
O 	O 	0.87250 0.00250 0.72950 -0.29400
O 	O 	0.07650 0.05880 0.38220 -0.45400
O 	O 	0.40120 0.96060 0.67160 -0.33400
O 	O 	0.60530 0.73700 0.69880 -0.44800
O 	O 	0.91169 0.62002 0.93200 -0.43800
O 	O 	0.78040 0.66450 0.63510 -0.37100
O 	O 	0.24463 0.57154 0.92520 -0.52900
O 	O 	0.92655 0.38440 0.99230 -0.43200
O 	O 	0.60450 0.49750 0.77050 -0.32900
O 	O 	0.51750 0.44120 0.11780 -0.46200
O 	O 	0.03340 0.53940 0.82840 -0.32500
