data_crystal

_cell_length_a 8.51730
_cell_length_b 9.76150
_cell_length_c 22.40550
_cell_angle_alpha 90.00000
_cell_angle_beta  90.00000
_cell_angle_gamma 92.28500

_symmetry_space_group_name_	'P 1'
_symmetry_space_group_name_H-M	'P 1'

loop_
_symmetry_equiv_pos_as_xyz
  x,y,z

loop_
_atom_site_label
_atom_site_type_symbol
_atom_site_fract_x
_atom_site_fract_y
_atom_site_fract_z
_atom_site_charge
Cd	Cd	0.64250 0.98226 0.34782 1.19000
Cd	Cd	0.32982 0.72573 0.39793 1.20300
Cd	Cd	0.35750 0.51774 0.84782 1.17000
Cd	Cd	0.67018 0.77427 0.89793 1.21200
Cd	Cd	0.35750 0.01774 0.65218 1.16100
Cd	Cd	0.67018 0.27427 0.60207 1.20900
Cd	Cd	0.64250 0.48226 0.15218 1.18300
Cd	Cd	0.32982 0.22573 0.10207 1.20000
Cd	Cd	0.00000 0.50000 0.50000 1.16400
Cd	Cd	-0.00000 0.00000 -0.00000 1.13900
H 	H 	0.92730 0.81550 0.43390 0.01100
H 	H 	0.38190 0.02600 0.23270 -0.04000
H 	H 	0.69010 0.30240 0.28360 -0.03900
H 	H 	0.61830 0.52800 0.47000 -0.04100
H 	H 	0.12670 0.16490 0.36420 0.32400
H 	H 	0.30460 0.19510 0.34950 0.34800
H 	H 	0.24770 0.19240 0.41600 0.35000
H 	H 	0.07270 0.68450 0.93390 -0.06300
H 	H 	0.61810 0.47400 0.73270 -0.02200
H 	H 	0.30990 0.19760 0.78360 -0.07300
H 	H 	0.38170 0.97200 0.97000 -0.02000
H 	H 	0.87330 0.33510 0.86420 0.44700
H 	H 	0.69540 0.30490 0.84950 0.41900
H 	H 	0.75230 0.30760 0.91600 0.44200
H 	H 	0.07270 0.18450 0.56610 -0.07400
H 	H 	0.61810 0.97400 0.76730 -0.01400
H 	H 	0.30990 0.69760 0.71640 -0.06600
H 	H 	0.38170 0.47200 0.53000 -0.04400
H 	H 	0.87330 0.83510 0.63580 0.47700
H 	H 	0.69540 0.80490 0.65050 0.45000
H 	H 	0.75230 0.80760 0.58400 0.46600
H 	H 	0.92730 0.31550 0.06610 0.00500
H 	H 	0.38190 0.52600 0.26730 -0.03100
H 	H 	0.69010 0.80240 0.21640 -0.03300
H 	H 	0.61830 0.02800 0.03000 -0.06300
H 	H 	0.12670 0.66490 0.13580 0.36400
H 	H 	0.30460 0.69510 0.15050 0.38800
H 	H 	0.24770 0.69240 0.08400 0.38300
C 	C 	0.83270 0.76490 0.43650 0.09400
C 	C 	0.83070 0.25450 0.41480 0.09800
C 	C 	0.67870 0.14120 0.47030 0.05000
C 	C 	0.44430 0.10620 0.23462 0.08600
C 	C 	0.61150 0.25550 0.26210 0.08000
C 	C 	0.66540 0.60960 0.45620 0.09300
C 	C 	0.23250 0.15210 0.37730 -1.11100
C 	C 	0.26110 0.00170 0.38050 0.56500
C 	C 	0.16730 0.73510 0.93650 0.08500
C 	C 	0.16930 0.24550 0.91480 -0.00100
C 	C 	0.32130 0.35880 0.97030 0.09300
C 	C 	0.55570 0.39380 0.73462 0.08200
C 	C 	0.38850 0.24450 0.76210 0.06900
C 	C 	0.33460 0.89040 0.95620 0.09400
C 	C 	0.76750 0.34790 0.87730 -1.32100
C 	C 	0.73890 0.49830 0.88050 0.70800
C 	C 	0.16730 0.23510 0.56350 0.07700
C 	C 	0.16930 0.74550 0.58520 0.00600
C 	C 	0.32130 0.85880 0.52970 0.05900
C 	C 	0.55570 0.89380 0.76538 0.08400
C 	C 	0.38850 0.74450 0.73790 0.07200
C 	C 	0.33460 0.39040 0.54380 0.08500
C 	C 	0.76750 0.84790 0.62270 -1.41100
C 	C 	0.73890 0.99830 0.61950 0.79500
C 	C 	0.83270 0.26490 0.06350 0.08600
C 	C 	0.83070 0.75450 0.08520 0.10200
C 	C 	0.67870 0.64120 0.02970 0.01500
C 	C 	0.44430 0.60620 0.26538 0.08800
C 	C 	0.61150 0.75550 0.23790 0.08200
C 	C 	0.66540 0.10960 0.04380 0.08600
C 	C 	0.23250 0.65210 0.12270 -1.22500
C 	C 	0.26110 0.50170 0.11950 0.66900
N 	N 	0.55380 0.13000 0.27676 -0.27100
N 	N 	0.72890 0.14740 0.41399 -0.25600
N 	N 	0.81840 0.64200 0.46229 -0.23100
N 	N 	0.84340 0.31310 0.46799 -0.18200
N 	N 	0.69830 0.80740 0.41506 -0.21100
N 	N 	0.58760 0.70630 0.42835 -0.21800
N 	N 	0.43400 0.20720 0.19650 -0.21900
N 	N 	0.74420 0.23890 0.50445 -0.19900
N 	N 	0.54490 0.30540 0.21392 -0.22300
N 	N 	0.44620 0.37000 0.77676 -0.27500
N 	N 	0.27110 0.35260 0.91399 -0.25900
N 	N 	0.18160 0.85800 0.96229 -0.25400
N 	N 	0.15660 0.18690 0.96799 -0.19800
N 	N 	0.30170 0.69260 0.91506 -0.22500
N 	N 	0.41240 0.79370 0.92835 -0.21400
N 	N 	0.56600 0.29280 0.69650 -0.21400
N 	N 	0.25580 0.26110 0.00445 -0.25800
N 	N 	0.45510 0.19460 0.71392 -0.23600
N 	N 	0.44620 0.87000 0.72324 -0.26800
N 	N 	0.27110 0.85260 0.58601 -0.24900
N 	N 	0.18160 0.35800 0.53771 -0.27200
N 	N 	0.15660 0.68690 0.53201 -0.21700
N 	N 	0.30170 0.19260 0.58494 -0.23100
N 	N 	0.41240 0.29370 0.57165 -0.22100
N 	N 	0.56600 0.79280 0.80350 -0.21200
N 	N 	0.25580 0.76110 0.49555 -0.21500
N 	N 	0.45510 0.69460 0.78608 -0.23100
N 	N 	0.55380 0.63000 0.22324 -0.26500
N 	N 	0.72890 0.64740 0.08601 -0.24600
N 	N 	0.81840 0.14200 0.03771 -0.24100
N 	N 	0.84340 0.81310 0.03201 -0.19700
N 	N 	0.69830 0.30740 0.08494 -0.21500
N 	N 	0.58760 0.20630 0.07165 -0.22500
N 	N 	0.43400 0.70720 0.30350 -0.21600
N 	N 	0.74420 0.73890 0.99555 -0.15700
N 	N 	0.54490 0.80540 0.28608 -0.21900
Cl	Cl	0.15904 0.50857 0.39220 -0.73500
Cl	Cl	0.84096 0.99143 0.89220 -0.59700
Cl	Cl	0.84096 0.49143 0.60780 -0.63000
Cl	Cl	0.15904 0.00857 0.10780 -0.76700
O 	O 	0.15420 0.91530 0.36841 -0.49200
O 	O 	0.39540 0.96470 0.39689 -0.57500
O 	O 	0.84580 0.58470 0.86841 -0.47700
O 	O 	0.60460 0.53530 0.89689 -0.62600
O 	O 	0.84580 0.08470 0.63159 -0.52100
O 	O 	0.60460 0.03530 0.60311 -0.67600
O 	O 	0.15420 0.41530 0.13159 -0.54800
O 	O 	0.39540 0.46470 0.10311 -0.63200
