data_crystal

_cell_length_a 10.44050
_cell_length_b 13.39260
_cell_length_c 20.45400
_cell_angle_alpha 90.00000
_cell_angle_beta  90.00000
_cell_angle_gamma 94.42500

_symmetry_space_group_name_	'P 1'
_symmetry_space_group_name_H-M	'P 1'

loop_
_symmetry_equiv_pos_as_xyz
  x,y,z

loop_
_atom_site_label
_atom_site_type_symbol
_atom_site_fract_x
_atom_site_fract_y
_atom_site_fract_z
_atom_site_charge
Zn	Zn	0.25341 0.56273 0.10310 1.21600
Zn	Zn	0.75341 0.06273 0.39690 1.21600
Zn	Zn	0.24659 0.93727 0.60310 1.21600
Zn	Zn	0.74659 0.43727 0.89690 1.21600
H 	H 	0.70740 0.65500 0.69110 0.05800
H 	H 	0.62360 0.06380 0.14320 0.16700
H 	H 	0.41320 0.53280 0.54750 0.04600
H 	H 	0.81150 0.22150 0.00030 0.16300
H 	H 	0.58680 0.46720 0.45250 0.04600
H 	H 	0.52870 0.27170 0.94850 -0.00500
H 	H 	0.31150 0.72150 0.49970 0.16300
H 	H 	0.79720 0.65800 0.29790 -0.05400
H 	H 	0.45610 0.26750 0.15800 0.15600
H 	H 	0.24300 0.85240 0.78110 -0.04600
H 	H 	0.75700 0.14760 0.21890 -0.04600
H 	H 	0.79260 0.84500 0.19110 0.05800
H 	H 	0.97130 0.22830 0.44850 -0.00500
H 	H 	0.86050 0.91880 0.86510 0.16400
H 	H 	0.08420 0.73450 0.81330 0.15600
H 	H 	0.18850 0.77850 0.99970 0.16300
H 	H 	0.25700 0.64760 0.28110 -0.04600
H 	H 	0.91580 0.26550 0.18670 0.15600
H 	H 	0.95080 0.60890 0.84690 -0.01000
H 	H 	0.93420 0.74970 0.13720 0.05300
H 	H 	0.36050 0.41880 0.63490 0.16400
H 	H 	0.51500 0.17980 0.47200 0.00400
H 	H 	0.29720 0.15800 0.20210 -0.05300
H 	H 	0.47700 0.53810 0.43650 0.04400
H 	H 	0.47170 0.03960 0.06260 0.04600
H 	H 	0.52800 0.42960 0.10810 0.00500
H 	H 	0.52300 0.46190 0.56350 0.04400
H 	H 	0.58420 0.23450 0.68670 0.15600
H 	H 	0.04920 0.39110 0.15310 -0.01000
H 	H 	0.20280 0.34200 0.70210 -0.05400
H 	H 	0.37640 0.93620 0.85680 0.16600
H 	H 	0.29840 0.22740 0.98080 0.17100
H 	H 	0.97170 0.53960 0.43740 0.04600
H 	H 	0.57080 0.95800 0.05140 0.04500
H 	H 	0.56580 0.75030 0.63720 0.05400
H 	H 	0.01500 0.67980 0.02800 0.00300
H 	H 	0.08750 0.99640 0.28060 0.05800
H 	H 	0.58750 0.49640 0.21940 0.05800
H 	H 	0.27000 0.59650 0.72460 0.05100
H 	H 	0.02800 0.92960 0.39190 0.00500
H 	H 	0.47130 0.72830 0.05150 -0.00500
H 	H 	0.97700 0.03810 0.06350 0.04300
H 	H 	0.42920 0.04200 0.94860 0.04500
H 	H 	0.43420 0.24970 0.36280 0.05400
H 	H 	0.41250 0.50360 0.78060 0.05800
H 	H 	0.08680 0.96720 0.04750 0.04300
H 	H 	0.73000 0.40350 0.27540 0.05100
H 	H 	0.97200 0.07040 0.60810 0.00500
H 	H 	0.54390 0.73250 0.84200 0.15600
H 	H 	0.68850 0.27850 0.50030 0.16300
H 	H 	0.20740 0.15500 0.80890 0.05800
H 	H 	0.95610 0.76750 0.34200 0.15600
H 	H 	0.91320 0.03280 0.95250 0.04300
H 	H 	0.20160 0.27260 0.48080 0.17200
H 	H 	0.06580 0.25030 0.86280 0.05300
H 	H 	0.79840 0.72740 0.51920 0.17200
H 	H 	0.41580 0.76550 0.31330 0.15600
H 	H 	0.77000 0.09650 0.77540 0.05100
H 	H 	0.02870 0.77170 0.55150 -0.00500
H 	H 	0.13950 0.08120 0.13490 0.16400
H 	H 	0.70160 0.77260 0.01920 0.17100
H 	H 	0.48500 0.82020 0.52800 0.00400
H 	H 	0.02830 0.46040 0.56260 0.04600
H 	H 	0.54920 0.89110 0.34690 -0.01000
H 	H 	0.29260 0.34500 0.30890 0.05700
H 	H 	0.47200 0.57040 0.89190 0.00500
H 	H 	0.91250 0.00360 0.71940 0.05800
H 	H 	0.52830 0.96040 0.93740 0.04600
H 	H 	0.63950 0.58120 0.36510 0.16400
H 	H 	0.07080 0.45800 0.44860 0.04700
H 	H 	0.92920 0.54200 0.55140 0.04700
H 	H 	0.12360 0.56380 0.35680 0.16500
H 	H 	0.02300 0.96190 0.93650 0.04300
H 	H 	0.04390 0.23250 0.65800 0.15600
H 	H 	0.98500 0.32020 0.97200 0.00300
H 	H 	0.45080 0.10890 0.65310 -0.01000
H 	H 	0.23000 0.90350 0.22460 0.05100
H 	H 	0.74300 0.35240 0.71890 -0.04600
H 	H 	0.70280 0.84200 0.79790 -0.05300
H 	H 	0.87640 0.43620 0.64320 0.16500
C 	C 	0.03470 0.20140 0.83331 -0.01200
C 	C 	0.79500 0.36579 0.56443 0.33200
C 	C 	0.35800 0.61008 0.71905 -0.02200
C 	C 	0.03250 0.51470 0.46807 0.01400
C 	C 	0.60750 0.76320 0.86861 -0.33100
C 	C 	0.95150 0.09300 0.56665 0.10200
C 	C 	0.85800 0.11008 0.78095 -0.02100
C 	C 	0.13710 0.76750 0.84435 -0.32700
C 	C 	0.53600 0.51857 0.47003 0.01900
C 	C 	0.44370 0.55387 0.75208 -0.03400
C 	C 	0.16800 0.02300 0.71415 0.31100
C 	C 	0.57430 0.57157 0.74322 -0.05900
C 	C 	0.14200 0.88992 0.21905 -0.02100
C 	C 	0.68490 0.24460 0.35198 0.32700
C 	C 	0.63710 0.26750 0.65565 -0.32700
C 	C 	0.87900 0.25385 0.09084 0.27300
C 	C 	0.31510 0.75540 0.64802 0.32700
C 	C 	0.96530 0.79860 0.16669 -0.01200
C 	C 	0.10830 0.24406 0.56571 0.27800
C 	C 	0.42570 0.42843 0.25678 -0.05900
C 	C 	0.95170 0.17956 0.48004 0.12700
C 	C 	0.89250 0.73680 0.36861 -0.33200
C 	C 	0.55630 0.44613 0.24792 -0.03400
C 	C 	0.05630 0.94613 0.25208 -0.03600
C 	C 	0.20200 0.32860 0.65749 0.25300
C 	C 	0.29860 0.21202 0.02512 -0.35400
C 	C 	0.60830 0.74406 0.93429 0.27700
C 	C 	0.94590 0.61090 0.89230 0.12800
C 	C 	0.01960 0.35080 0.00950 0.10800
C 	C 	0.83200 0.97700 0.28585 0.31100
C 	C 	0.11970 0.14450 0.80099 -0.03400
C 	C 	0.46530 0.29860 0.33331 -0.01400
C 	C 	0.69930 0.29398 0.54435 -0.34000
C 	C 	0.10750 0.26320 0.63139 -0.33200
C 	C 	0.26780 0.66200 0.32536 0.25100
C 	C 	0.53470 0.70140 0.66669 -0.01400
C 	C 	0.76780 0.16200 0.17464 0.25100
C 	C 	0.98040 0.64920 0.99050 0.10800
C 	C 	0.30070 0.70602 0.45565 -0.34000
C 	C 	0.45150 0.59300 0.93335 0.10300
C 	C 	0.18490 0.74460 0.14802 0.32800
C 	C 	0.79640 0.87480 0.88286 -0.35600
C 	C 	0.46750 0.98530 0.96807 0.01600
C 	C 	0.70200 0.82860 0.84251 0.25200
C 	C 	0.29800 0.17140 0.15749 0.25200
C 	C 	0.40450 0.68669 0.67759 -0.07100
C 	C 	0.36290 0.73250 0.34435 -0.32700
C 	C 	0.45170 0.67956 0.01996 0.12600
C 	C 	0.44590 0.11090 0.60770 0.12800
C 	C 	0.70500 0.64430 0.44856 0.35300
C 	C 	0.54850 0.40700 0.06665 0.10300
C 	C 	0.20500 0.63421 0.43557 0.33200
C 	C 	0.23220 0.83800 0.82536 0.25100
C 	C 	0.66800 0.52300 0.78585 0.31200
C 	C 	0.20360 0.12520 0.11714 -0.35600
C 	C 	0.29640 0.37480 0.61714 -0.35700
C 	C 	0.46400 0.48143 0.52997 0.01900
C 	C 	0.31250 0.88840 0.87030 -0.34700
C 	C 	0.53250 0.01470 0.03193 0.01600
C 	C 	0.39170 0.25594 0.06571 0.27700
C 	C 	0.18750 0.61160 0.37030 -0.34700
C 	C 	0.79860 0.71202 0.47488 -0.35600
C 	C 	0.09550 0.81331 0.17759 -0.07200
C 	C 	0.70140 0.78798 0.97488 -0.35400
C 	C 	0.29500 0.35570 0.55144 0.35300
C 	C 	0.04830 0.82044 0.51996 0.12700
C 	C 	0.81250 0.38840 0.62970 -0.34700
C 	C 	0.59550 0.31331 0.32241 -0.07100
C 	C 	0.05410 0.38910 0.10770 0.12800
C 	C 	0.90450 0.18669 0.82241 -0.07200
C 	C 	0.39250 0.23680 0.13139 -0.33100
C 	C 	0.73220 0.33800 0.67464 0.25100
C 	C 	0.86290 0.23250 0.15565 -0.32700
C 	C 	0.20140 0.28798 0.52512 -0.35600
C 	C 	0.88030 0.85550 0.19901 -0.03400
C 	C 	0.70360 0.62520 0.38286 -0.35700
C 	C 	0.38030 0.35550 0.30099 -0.03300
C 	C 	0.29500 0.86579 0.93557 0.33300
C 	C 	0.12100 0.74615 0.90916 0.27300
C 	C 	0.19930 0.79398 0.95565 -0.34000
C 	C 	0.61970 0.64450 0.69901 -0.03300
C 	C 	0.64200 0.38992 0.28095 -0.02200
C 	C 	0.54830 0.32044 0.98004 0.12600
C 	C 	0.96400 0.98143 0.97003 0.02200
C 	C 	0.89170 0.75594 0.43429 0.27800
C 	C 	0.04850 0.90700 0.43335 0.10200
C 	C 	0.33200 0.47700 0.21415 0.31200
C 	C 	0.48040 0.14920 0.50950 0.10600
C 	C 	0.79500 0.85570 0.94856 0.35300
C 	C 	0.62100 0.24615 0.59084 0.27300
C 	C 	0.07430 0.07157 0.75678 -0.05700
C 	C 	0.70500 0.13421 0.06443 0.33300
C 	C 	0.79800 0.67140 0.34251 0.25300
C 	C 	0.80070 0.20602 0.04435 -0.34000
C 	C 	0.37900 0.75385 0.40916 0.27300
C 	C 	0.68750 0.11160 0.12970 -0.34700
C 	C 	0.55410 0.88910 0.39230 0.12800
C 	C 	0.20500 0.14430 0.05144 0.35300
C 	C 	0.94370 0.05387 0.74792 -0.03600
C 	C 	0.96750 0.48530 0.53193 0.01400
C 	C 	0.81510 0.25540 0.85198 0.32800
C 	C 	0.51960 0.85080 0.49050 0.10600
C 	C 	0.03600 0.01857 0.02997 0.02200
C 	C 	0.92570 0.92843 0.24322 -0.05700
N 	N 	0.13430 0.44548 0.07354 -0.23600
N 	N 	0.36460 0.54895 0.97044 -0.10500
N 	N 	0.13590 0.89451 0.52644 -0.23700
N 	N 	0.99050 0.82401 0.46172 -0.18400
N 	N 	0.00950 0.17599 0.53828 -0.18400
N 	N 	0.13540 0.95105 0.47044 -0.10500
N 	N 	0.52100 0.17256 0.57033 -0.18400
N 	N 	0.88690 0.57851 0.99108 -0.10300
N 	N 	0.63590 0.39451 0.97356 -0.23700
N 	N 	0.97900 0.32744 0.07033 -0.18400
N 	N 	0.50950 0.67599 0.96172 -0.18400
N 	N 	0.86410 0.10549 0.47356 -0.23700
N 	N 	0.86570 0.55452 0.92646 -0.23600
N 	N 	0.49050 0.32401 0.03828 -0.18400
N 	N 	0.63430 0.94548 0.42646 -0.23600
N 	N 	0.38690 0.07851 0.50892 -0.10300
N 	N 	0.86460 0.04895 0.52956 -0.10500
N 	N 	0.11310 0.42149 0.00892 -0.10300
N 	N 	0.47900 0.82744 0.42967 -0.18400
N 	N 	0.61310 0.92149 0.49108 -0.10300
N 	N 	0.36410 0.60549 0.02644 -0.23700
N 	N 	0.63540 0.45105 0.02956 -0.10500
N 	N 	0.36570 0.05452 0.57354 -0.23600
N 	N 	0.02100 0.67256 0.92967 -0.18400
O 	O 	0.61703 0.60315 0.49175 -0.26300
O 	O 	0.30150 0.76556 0.14672 -0.30500
O 	O 	0.78403 0.53457 0.77605 -0.31100
O 	O 	0.62985 0.09221 0.01460 -0.25200
O 	O 	0.71597 0.96543 0.27605 -0.31100
O 	O 	0.13388 0.66118 0.12663 -0.45200
O 	O 	0.37015 0.90779 0.98540 -0.25200
O 	O 	0.19850 0.73444 0.64672 -0.30400
O 	O 	0.38297 0.39685 0.50825 -0.26300
O 	O 	0.21597 0.46543 0.22395 -0.31100
O 	O 	0.87015 0.40779 0.51460 -0.25100
O 	O 	0.88297 0.89685 0.99175 -0.26300
O 	O 	0.12985 0.59221 0.48540 -0.25100
O 	O 	0.86612 0.33882 0.87337 -0.45200
O 	O 	0.69850 0.23444 0.85328 -0.30500
O 	O 	0.88215 0.02952 0.33335 -0.44400
O 	O 	0.61785 0.47048 0.83335 -0.44400
O 	O 	0.63388 0.16118 0.37337 -0.45200
O 	O 	0.11703 0.10315 0.00825 -0.26300
O 	O 	0.80150 0.26556 0.35328 -0.30400
O 	O 	0.38215 0.52952 0.16665 -0.44400
O 	O 	0.28403 0.03457 0.72395 -0.31100
O 	O 	0.36612 0.83882 0.62663 -0.45200
O 	O 	0.11785 0.97048 0.66665 -0.44400
