data_crystal

_cell_length_a 18.64340
_cell_length_b 18.64340
_cell_length_c 18.64340
_cell_angle_alpha 60.00000
_cell_angle_beta  60.00000
_cell_angle_gamma 60.00000

_symmetry_space_group_name_	'P 1'
_symmetry_space_group_name_H-M	'P 1'

loop_
_symmetry_equiv_pos_as_xyz
  x,y,z

loop_
_atom_site_label
_atom_site_type_symbol
_atom_site_fract_x
_atom_site_fract_y
_atom_site_fract_z
_atom_site_charge
Cu	Cu	0.56982 0.00000 0.43018 0.84700
Cu	Cu	0.43018 0.00000 -0.00000 0.78100
Cu	Cu	0.56982 0.43018 -0.00000 0.84700
Cu	Cu	-0.00000 0.43018 -0.00000 0.78100
Cu	Cu	0.00000 0.56982 -0.00000 0.78100
Cu	Cu	0.56982 0.00000 -0.00000 0.78100
Cu	Cu	0.43018 0.00000 0.56982 0.84800
Cu	Cu	0.00000 0.00000 0.56982 0.78200
Cu	Cu	-0.00000 0.56982 0.43018 0.84800
Cu	Cu	-0.00000 0.00000 0.43018 0.78200
Cu	Cu	0.43018 0.56982 -0.00000 0.84800
Cu	Cu	0.00000 0.43018 0.56982 0.84800
H 	H 	0.27020 0.97380 0.27020 0.10000
H 	H 	0.72980 0.51420 0.02620 0.07600
H 	H 	0.51420 0.72980 0.72980 0.11800
H 	H 	0.72980 0.51420 0.72980 0.11800
H 	H 	0.72980 0.02620 0.72980 0.09700
H 	H 	0.27020 0.27020 0.97380 0.10000
H 	H 	0.97380 0.27020 0.27020 0.10000
H 	H 	0.02620 0.72980 0.72980 0.09700
H 	H 	0.27020 0.48580 0.97380 0.10900
H 	H 	0.72980 0.02620 0.51420 0.07600
H 	H 	0.97380 0.27020 0.48580 0.10900
H 	H 	0.48580 0.97380 0.27020 0.10900
H 	H 	0.27020 0.27020 0.48580 0.05200
H 	H 	0.48580 0.27020 0.97380 0.10900
H 	H 	0.02620 0.72980 0.51420 0.07600
H 	H 	0.97380 0.48580 0.27020 0.10900
H 	H 	0.27020 0.48580 0.27020 0.05200
H 	H 	0.02620 0.51420 0.72980 0.07600
H 	H 	0.48580 0.27020 0.27020 0.05200
H 	H 	0.72980 0.72980 0.02620 0.09700
H 	H 	0.72980 0.72980 0.51420 0.11800
H 	H 	0.51420 0.72980 0.02620 0.07600
H 	H 	0.51420 0.02620 0.72980 0.07600
H 	H 	0.27020 0.97380 0.48580 0.10900
C 	C 	0.02910 0.61410 0.61410 -0.06300
C 	C 	0.57120 0.70040 0.02800 -0.00000
C 	C 	0.38590 0.97090 0.25730 -0.01800
C 	C 	0.42880 0.29960 0.29960 0.02500
C 	C 	0.61410 0.02910 0.74270 -0.04200
C 	C 	0.02800 0.70040 0.70040 -0.00600
C 	C 	0.43080 0.16100 0.43080 0.33900
C 	C 	0.74270 0.02910 0.61410 -0.04200
C 	C 	0.02910 0.74270 0.61410 -0.04200
C 	C 	0.70040 0.02800 0.70040 -0.00600
C 	C 	0.43080 0.97740 0.43080 0.32200
C 	C 	0.56920 0.56920 0.83900 0.32200
C 	C 	0.56920 0.02260 0.56920 0.33300
C 	C 	0.38590 0.25730 0.97090 -0.01800
C 	C 	0.70040 0.70040 0.57120 -0.01500
C 	C 	0.97740 0.16100 0.43080 0.31200
C 	C 	0.97740 0.43080 0.43080 0.32200
C 	C 	0.56920 0.02260 0.83900 0.31500
C 	C 	0.56920 0.83900 0.02260 0.31500
C 	C 	0.29960 0.97200 0.42880 -0.01500
C 	C 	0.83900 0.02260 0.56920 0.31500
C 	C 	0.25730 0.97090 0.38590 -0.01800
C 	C 	0.56920 0.83900 0.56920 0.32200
C 	C 	0.16100 0.97740 0.43080 0.31200
C 	C 	0.29960 0.97200 0.29960 -0.01600
C 	C 	0.97200 0.29960 0.42880 -0.01500
C 	C 	0.02260 0.56920 0.83900 0.31500
C 	C 	0.16100 0.43080 0.43080 0.33900
C 	C 	0.70040 0.57120 0.70040 -0.01500
C 	C 	0.38590 0.38590 0.25730 -0.09600
C 	C 	0.70040 0.70040 0.02800 -0.00600
C 	C 	0.02260 0.56920 0.56920 0.33300
C 	C 	0.61410 0.74270 0.02910 -0.04200
C 	C 	0.02800 0.70040 0.57120 -0.00000
C 	C 	0.42880 0.97200 0.29960 -0.01500
C 	C 	0.25730 0.38590 0.97090 -0.01800
C 	C 	0.74270 0.61410 0.02910 -0.04200
C 	C 	0.38590 0.38590 0.97090 -0.01100
C 	C 	0.97090 0.38590 0.25730 -0.01800
C 	C 	0.43080 0.97740 0.16100 0.31200
C 	C 	0.29960 0.29960 0.97200 -0.01600
C 	C 	0.38590 0.97090 0.38590 -0.01100
C 	C 	0.97740 0.43080 0.16100 0.31200
C 	C 	0.97200 0.42880 0.29960 -0.01500
C 	C 	0.02910 0.61410 0.74270 -0.04200
C 	C 	0.61410 0.74270 0.61410 0.00000
C 	C 	0.38590 0.25730 0.38590 -0.09600
C 	C 	0.42880 0.29960 0.97200 -0.01500
C 	C 	0.74270 0.61410 0.61410 0.00000
C 	C 	0.61410 0.02910 0.61410 -0.06300
C 	C 	0.02800 0.57120 0.70040 -0.00000
C 	C 	0.43080 0.43080 0.16100 0.33900
C 	C 	0.70040 0.02800 0.57120 -0.00000
C 	C 	0.16100 0.43080 0.97740 0.31200
C 	C 	0.83900 0.56920 0.02260 0.31500
C 	C 	0.97090 0.25730 0.38590 -0.01800
C 	C 	0.57120 0.02800 0.70040 -0.00000
C 	C 	0.29960 0.42880 0.97200 -0.01500
C 	C 	0.70040 0.57120 0.02800 -0.00000
C 	C 	0.29960 0.29960 0.42880 0.02500
C 	C 	0.43080 0.16100 0.97740 0.31200
C 	C 	0.83900 0.56920 0.56920 0.32200
C 	C 	0.61410 0.61410 0.02910 -0.06300
C 	C 	0.25730 0.38590 0.38590 -0.09600
C 	C 	0.29960 0.42880 0.29960 0.02500
C 	C 	0.02260 0.83900 0.56920 0.31500
C 	C 	0.97090 0.38590 0.38590 -0.01100
C 	C 	0.57120 0.70040 0.70040 -0.01500
C 	C 	0.61410 0.61410 0.74270 0.00000
C 	C 	0.56920 0.56920 0.02260 0.33300
C 	C 	0.43080 0.43080 0.97740 0.32200
C 	C 	0.97200 0.29960 0.29960 -0.01600
S 	S 	0.00000 0.00000 0.30820 -0.35600
S 	S 	0.69180 0.30820 -0.00000 -0.15500
S 	S 	0.00000 0.69180 -0.00000 -0.27300
S 	S 	0.69180 0.00000 -0.00000 -0.27300
S 	S 	0.30820 0.00000 0.69180 -0.15500
S 	S 	0.00000 0.69180 0.30820 -0.15500
S 	S 	0.69180 0.00000 0.30820 -0.15500
S 	S 	0.00000 0.30820 0.69180 -0.15500
S 	S 	-0.00000 0.00000 0.69180 -0.27300
S 	S 	0.30820 0.69180 -0.00000 -0.15500
S 	S 	0.00000 0.30820 -0.00000 -0.35600
S 	S 	0.30820 0.00000 -0.00000 -0.35600
O 	O 	0.61288 0.87420 0.02070 -0.31300
O 	O 	0.61288 0.49222 0.87420 -0.28000
O 	O 	0.87420 0.02070 0.61288 -0.31300
O 	O 	0.50778 0.38712 0.97930 -0.28600
O 	O 	0.97930 0.38712 0.50778 -0.28600
O 	O 	0.49222 0.61288 0.02070 -0.40900
O 	O 	0.38712 0.97930 0.12580 -0.31100
O 	O 	0.50778 0.12580 0.97930 -0.30600
O 	O 	0.87420 0.49222 0.61288 -0.28000
O 	O 	0.49222 0.02070 0.87420 -0.32300
O 	O 	0.12580 0.97930 0.38712 -0.31100
O 	O 	0.87420 0.61288 0.02070 -0.31300
O 	O 	0.61288 0.02070 0.87420 -0.31300
O 	O 	0.50778 0.12580 0.38712 -0.41900
O 	O 	0.02070 0.49222 0.87420 -0.32300
O 	O 	0.97930 0.38712 0.12580 -0.31100
O 	O 	0.02070 0.61288 0.87420 -0.31300
O 	O 	0.97930 0.50778 0.38712 -0.28600
O 	O 	0.87420 0.49222 0.02070 -0.32300
O 	O 	0.12580 0.50778 0.97930 -0.30600
O 	O 	0.49222 0.02070 0.61288 -0.40900
O 	O 	0.38712 0.50778 0.97930 -0.28600
O 	O 	0.12580 0.50778 0.38712 -0.41900
O 	O 	0.02070 0.87420 0.49222 -0.32300
O 	O 	0.97930 0.12580 0.50778 -0.30600
O 	O 	0.87420 0.02070 0.49222 -0.32300
O 	O 	0.02070 0.61288 0.49222 -0.40900
O 	O 	0.38712 0.12580 0.97930 -0.31100
O 	O 	0.12580 0.97930 0.50778 -0.30600
O 	O 	0.02070 0.49222 0.61288 -0.40900
O 	O 	0.38712 0.97930 0.50778 -0.28600
O 	O 	0.50778 0.38712 0.12580 -0.41900
O 	O 	0.38712 0.12580 0.50778 -0.41900
O 	O 	0.97930 0.12580 0.38712 -0.31100
O 	O 	0.97930 0.50778 0.12580 -0.30600
O 	O 	0.49222 0.61288 0.87420 -0.28000
O 	O 	0.49222 0.87420 0.61288 -0.28000
O 	O 	0.50778 0.97930 0.12580 -0.30600
O 	O 	0.61288 0.49222 0.02070 -0.40900
O 	O 	0.02070 0.87420 0.61288 -0.31300
O 	O 	0.38712 0.50778 0.12580 -0.41900
O 	O 	0.12580 0.38712 0.97930 -0.31100
O 	O 	0.61288 0.87420 0.49222 -0.28000
O 	O 	0.49222 0.87420 0.02070 -0.32300
O 	O 	0.12580 0.38712 0.50778 -0.41900
O 	O 	0.50778 0.97930 0.38712 -0.28600
O 	O 	0.87420 0.61288 0.49222 -0.28000
O 	O 	0.61288 0.02070 0.49222 -0.40900
