data_crystal

_cell_length_a 11.94500
_cell_length_b 19.21630
_cell_length_c 19.21630
_cell_angle_alpha 84.45660
_cell_angle_beta  71.89230
_cell_angle_gamma 71.89240

_symmetry_space_group_name_	'P 1'
_symmetry_space_group_name_H-M	'P 1'

loop_
_symmetry_equiv_pos_as_xyz
  x,y,z

loop_
_atom_site_label
_atom_site_type_symbol
_atom_site_fract_x
_atom_site_fract_y
_atom_site_fract_z
_atom_site_charge
Gd	Gd	0.94203 0.10568 0.52112 1.65900
Gd	Gd	0.62124 0.70122 0.36288 1.76200
Gd	Gd	0.05797 0.89432 0.47888 1.65900
Gd	Gd	0.93117 0.60568 0.02112 1.63000
Gd	Gd	0.01588 0.36288 0.79878 1.74900
Gd	Gd	0.53685 0.52112 0.39432 1.65600
Gd	Gd	0.46315 0.47888 0.60568 1.65600
Gd	Gd	0.18534 0.79878 0.13712 1.76900
Gd	Gd	0.67754 0.13712 0.70122 1.76300
Gd	Gd	0.32246 0.86288 0.29878 1.76300
Gd	Gd	0.37876 0.29878 0.63712 1.76300
Gd	Gd	0.06883 0.39432 0.97888 1.63100
Gd	Gd	0.81466 0.20122 0.86288 1.76900
Gd	Gd	0.95229 0.97888 0.10568 1.61900
Gd	Gd	0.98412 0.63712 0.20122 1.74900
Gd	Gd	0.04771 0.02112 0.89432 1.61900
H 	H 	0.68430 0.21750 0.41130 0.13500
H 	H 	0.98840 0.82290 0.66510 0.10300
H 	H 	0.19800 0.53000 0.23600 0.09100
H 	H 	0.81310 0.28250 0.08870 0.13600
H 	H 	0.59290 0.55350 0.07810 0.12800
H 	H 	0.72090 0.90240 0.22660 0.14800
H 	H 	0.70640 0.64250 0.56250 0.15600
H 	H 	0.70020 0.44960 0.90800 0.13200
H 	H 	0.84670 0.56110 0.79010 0.15100
H 	H 	0.37670 0.27340 0.90240 0.14700
H 	H 	0.33200 0.36200 0.97600 0.08800
H 	H 	0.77140 0.35270 0.67370 0.16100
H 	H 	0.79110 0.85720 0.05120 0.12400
H 	H 	0.09820 0.08870 0.21750 0.13300
H 	H 	0.24810 0.65580 0.75100 0.10000
H 	H 	0.43400 0.76400 0.03000 0.08900
H 	H 	0.70220 0.85270 0.17370 0.16000
H 	H 	0.65110 0.93750 0.64250 0.15500
H 	H 	0.97640 0.67710 0.83490 0.09700
H 	H 	0.39180 0.90800 0.05040 0.13000
H 	H 	0.63570 0.46480 0.84600 0.13200
H 	H 	0.18870 0.83490 0.82290 0.10000
H 	H 	0.26890 0.43750 0.14250 0.15500
H 	H 	0.00400 0.11300 0.13900 0.09200
H 	H 	0.69790 0.93890 0.70990 0.15000
H 	H 	0.80200 0.47000 0.76400 0.09100
H 	H 	0.34990 0.59760 0.27340 0.14900
H 	H 	0.01160 0.17710 0.33490 0.10300
H 	H 	0.53600 0.03000 0.73600 0.09000
H 	H 	0.12410 0.17370 0.64730 0.16200
H 	H 	0.65350 0.33490 0.32290 0.10100
H 	H 	0.87590 0.82630 0.35270 0.16200
H 	H 	0.15330 0.43890 0.20990 0.15100
H 	H 	0.40710 0.44650 0.92190 0.12800
H 	H 	0.09610 0.74900 0.65580 0.10100
H 	H 	0.48170 0.15400 0.96480 0.12900
H 	H 	0.27550 0.05350 0.57810 0.13000
H 	H 	0.14640 0.57810 0.44650 0.12900
H 	H 	0.85020 0.59200 0.44960 0.13100
H 	H 	0.15770 0.05120 0.64280 0.12300
H 	H 	0.00090 0.75100 0.84420 0.09000
H 	H 	0.69200 0.97600 0.13800 0.08900
H 	H 	0.75190 0.34420 0.24900 0.10000
H 	H 	0.02360 0.32290 0.16510 0.09700
H 	H 	0.62330 0.72660 0.09760 0.14700
H 	H 	0.05480 0.77390 0.93530 0.12000
H 	H 	0.26400 0.72610 0.56470 0.12100
H 	H 	0.20890 0.14280 0.94880 0.12400
H 	H 	0.24400 0.61300 0.63900 0.08700
H 	H 	0.51830 0.84600 0.03520 0.12900
H 	H 	0.30800 0.02400 0.86200 0.08900
H 	H 	0.15490 0.84420 0.74900 0.10000
H 	H 	0.99910 0.24900 0.15580 0.09000
H 	H 	0.63680 0.20990 0.06110 0.14900
H 	H 	0.55350 0.96480 0.34600 0.13100
H 	H 	0.90440 0.41130 0.28250 0.13400
H 	H 	0.84230 0.94880 0.35720 0.12300
H 	H 	0.73600 0.27390 0.43530 0.12100
H 	H 	0.22860 0.64730 0.32630 0.16100
H 	H 	0.09560 0.58870 0.71750 0.13400
H 	H 	0.19950 0.64280 0.44880 0.12400
H 	H 	0.36320 0.79010 0.93890 0.14900
H 	H 	0.18690 0.71750 0.91130 0.13600
H 	H 	0.32900 0.07810 0.94650 0.13000
H 	H 	0.36430 0.53520 0.15400 0.13200
H 	H 	0.64830 0.55120 0.14280 0.12400
H 	H 	0.73110 0.56250 0.85750 0.15500
H 	H 	0.44220 0.94960 0.40800 0.13200
H 	H 	0.55490 0.67370 0.14730 0.16000
H 	H 	0.80050 0.35720 0.55120 0.12400
H 	H 	0.67100 0.92190 0.05350 0.13000
H 	H 	0.75600 0.38700 0.36100 0.08700
H 	H 	0.66800 0.63800 0.02400 0.08800
H 	H 	0.83000 0.86200 0.47600 0.09100
H 	H 	0.85360 0.42190 0.55350 0.12900
H 	H 	0.27910 0.09760 0.77340 0.14800
H 	H 	0.82870 0.43530 0.22610 0.12000
H 	H 	0.11700 0.63900 0.88700 0.08700
H 	H 	0.27200 0.26400 0.53000 0.09000
H 	H 	0.89950 0.65400 0.46480 0.13100
H 	H 	0.29360 0.35750 0.43750 0.15600
H 	H 	0.41140 0.85750 0.93750 0.15600
H 	H 	0.14300 0.86100 0.61300 0.08700
H 	H 	0.72450 0.94650 0.42190 0.13000
H 	H 	0.69400 0.47600 0.63800 0.09100
H 	H 	0.34890 0.06250 0.35750 0.15500
H 	H 	0.34650 0.66510 0.67710 0.10100
H 	H 	0.29980 0.55040 0.09200 0.13200
H 	H 	0.72800 0.73600 0.47000 0.09000
H 	H 	0.44510 0.32630 0.85270 0.16000
H 	H 	0.35170 0.44880 0.85720 0.12400
H 	H 	0.46400 0.97000 0.26400 0.09000
H 	H 	0.40780 0.29010 0.43890 0.15000
H 	H 	0.90390 0.25100 0.34420 0.10100
H 	H 	0.88300 0.36100 0.11300 0.08700
H 	H 	0.99010 0.06470 0.27390 0.11600
H 	H 	0.58860 0.14250 0.06250 0.15600
H 	H 	0.30600 0.52400 0.36200 0.09100
H 	H 	0.60820 0.09200 0.94960 0.13000
H 	H 	0.85700 0.13900 0.38700 0.08700
H 	H 	0.90180 0.91130 0.78250 0.13300
H 	H 	0.59220 0.70990 0.56110 0.15000
H 	H 	0.17130 0.56470 0.77390 0.12000
H 	H 	0.56600 0.23600 0.97000 0.08900
H 	H 	0.55780 0.05040 0.59200 0.13200
H 	H 	0.17000 0.13800 0.52400 0.09100
H 	H 	0.31570 0.78250 0.58870 0.13500
H 	H 	0.99600 0.88700 0.86100 0.09200
H 	H 	0.81130 0.16510 0.17710 0.10000
H 	H 	0.14980 0.40800 0.55040 0.13100
H 	H 	0.84510 0.15580 0.25100 0.10000
H 	H 	0.44650 0.03520 0.65400 0.13100
H 	H 	0.10050 0.34600 0.53520 0.13100
H 	H 	0.94520 0.22610 0.06470 0.12000
H 	H 	0.65010 0.40240 0.72660 0.14900
H 	H 	0.94750 0.77340 0.40240 0.15000
H 	H 	0.30210 0.06110 0.29010 0.15000
H 	H 	0.05250 0.22660 0.59760 0.15000
H 	H 	0.29780 0.14730 0.82630 0.16000
H 	H 	0.00990 0.93530 0.72610 0.11600
C 	C 	0.73230 0.22390 0.44150 -0.32600
C 	C 	0.19040 0.05360 0.59000 -0.30300
C 	C 	0.58530 0.14960 0.85680 0.42400
C 	C 	0.80960 0.94640 0.41000 -0.30300
C 	C 	0.35220 0.83290 0.96610 -0.37900
C 	C 	0.10230 0.72390 0.94150 -0.33100
C 	C 	0.20040 0.02410 0.38330 0.53000
C 	C 	0.84380 0.12950 0.21090 -0.24200
C 	C 	0.21960 0.59000 0.44640 -0.29900
C 	C 	0.41470 0.85040 0.14320 0.42400
C 	C 	0.12020 0.17270 0.82610 0.54100
C 	C 	0.24270 0.92200 0.75860 0.35800
C 	C 	0.41630 0.38330 0.47590 0.53000
C 	C 	0.14960 0.35770 0.56170 -0.31800
C 	C 	0.26770 0.77610 0.55850 -0.32600
C 	C 	0.66600 0.55360 0.09000 -0.29900
C 	C 	0.79960 0.97590 0.61670 0.53000
C 	C 	0.34880 0.33290 0.46610 -0.38300
C 	C 	0.16470 0.25860 0.07800 0.35400
C 	C 	0.68170 0.96610 0.66710 -0.38100
C 	C 	0.05470 0.78910 0.62950 -0.24700
C 	C 	0.81260 0.52200 0.28780 0.50500
C 	C 	0.00130 0.24140 0.42200 0.36000
C 	C 	0.77420 0.48650 0.05490 0.40600
C 	C 	0.31580 0.62950 0.71090 -0.24400
C 	C 	0.68590 0.37950 0.67870 -0.39500
C 	C 	0.26510 0.64320 0.14960 0.42400
C 	C 	0.81560 0.01350 0.44510 0.41100
C 	C 	0.43100 0.85770 0.06170 -0.31900
C 	C 	0.06540 0.17870 0.62050 -0.40300
C 	C 	0.99870 0.75860 0.57800 0.36000
C 	C 	0.24400 0.09000 0.94640 -0.31400
C 	C 	0.31410 0.62050 0.32130 -0.39500
C 	C 	0.10780 0.47590 0.11670 0.52800
C 	C 	0.89770 0.27610 0.05850 -0.33100
C 	C 	0.33400 0.44640 0.91000 -0.29900
C 	C 	0.90830 0.64960 0.35680 0.41800
C 	C 	0.15620 0.87050 0.78910 -0.24200
C 	C 	0.93460 0.82130 0.37950 -0.40300
C 	C 	0.04380 0.05850 0.22390 -0.31300
C 	C 	0.87980 0.82730 0.17390 0.54100
C 	C 	0.18440 0.98650 0.55490 0.41100
C 	C 	0.87760 0.02200 0.78780 0.50100
C 	C 	0.82620 0.44150 0.27610 -0.32500
C 	C 	0.55790 0.85680 0.35040 0.42400
C 	C 	0.58370 0.61670 0.52410 0.53000
C 	C 	0.75730 0.07800 0.24140 0.35800
C 	C 	0.85040 0.64230 0.43830 -0.31800
C 	C 	0.50730 0.06170 0.64230 -0.32000
C 	C 	0.89960 0.28780 0.97800 0.51000
C 	C 	0.42330 0.57800 0.74140 0.35900
C 	C 	0.38100 0.67270 0.32610 0.54200
C 	C 	0.64780 0.16710 0.03390 -0.37900
C 	C 	0.17380 0.55850 0.72390 -0.32500
C 	C 	0.56900 0.14230 0.93830 -0.31900
C 	C 	0.70710 0.67390 0.17270 0.54100
C 	C 	0.66540 0.21220 0.52200 0.50500
C 	C 	0.78040 0.41000 0.55360 -0.29900
C 	C 	0.09170 0.35040 0.64320 0.41800
C 	C 	0.73490 0.35680 0.85040 0.42400
C 	C 	0.65120 0.66710 0.53390 -0.38300
C 	C 	0.17090 0.05490 0.01350 0.41700
C 	C 	0.82910 0.94510 0.98650 0.41700
C 	C 	0.28870 0.56170 0.14230 -0.32000
C 	C 	0.24410 0.12050 0.82130 -0.39500
C 	C 	0.02670 0.28910 0.12950 -0.22300
C 	C 	0.73930 0.44510 0.48650 0.40800
C 	C 	0.57670 0.42200 0.25860 0.35900
C 	C 	0.71130 0.43830 0.85770 -0.32000
C 	C 	0.26070 0.55490 0.51350 0.40800
C 	C 	0.10040 0.71220 0.02200 0.51000
C 	C 	0.33460 0.78780 0.47800 0.50500
C 	C 	0.77550 0.11670 0.02410 0.52300
C 	C 	0.05370 0.82610 0.32730 0.54900
C 	C 	0.12240 0.97800 0.21220 0.50100
C 	C 	0.94630 0.17390 0.67270 0.54900
C 	C 	0.44210 0.14320 0.64960 0.42400
C 	C 	0.31830 0.03390 0.33290 -0.38100
C 	C 	0.81490 0.53390 0.83290 -0.38000
C 	C 	0.29290 0.32610 0.82730 0.54100
C 	C 	0.83530 0.74140 0.92200 0.35400
C 	C 	0.61900 0.32730 0.67390 0.54200
C 	C 	0.75600 0.91000 0.05360 -0.31400
C 	C 	0.22580 0.51350 0.94510 0.40600
C 	C 	0.89220 0.52410 0.88330 0.52800
C 	C 	0.63540 0.67870 0.12050 -0.39500
C 	C 	0.95620 0.94150 0.77610 -0.31300
C 	C 	0.49270 0.93830 0.35770 -0.32000
C 	C 	0.75590 0.87950 0.17870 -0.39500
C 	C 	0.36460 0.32130 0.87950 -0.39500
C 	C 	0.18740 0.47800 0.71220 0.50500
C 	C 	0.68420 0.37050 0.28910 -0.24400
C 	C 	0.94530 0.21090 0.37050 -0.24700
C 	C 	0.22450 0.88330 0.97590 0.52300
C 	C 	0.18510 0.46610 0.16710 -0.38000
C 	C 	0.97330 0.71090 0.87050 -0.22300
N 	N 	0.14170 0.82670 0.58410 -0.15200
N 	N 	0.76020 0.93740 0.12160 -0.14000
N 	N 	0.85830 0.17330 0.41590 -0.15200
N 	N 	0.41480 0.96280 0.30920 -0.14700
N 	N 	0.11820 0.12160 0.56260 -0.14100
N 	N 	0.94750 0.32670 0.08410 -0.15600
N 	N 	0.68080 0.43740 0.62160 -0.14100
N 	N 	0.23980 0.06260 0.87840 -0.14000
N 	N 	0.05250 0.67330 0.91590 -0.15600
N 	N 	0.27600 0.30920 0.53720 -0.14700
N 	N 	0.18680 0.53720 0.19080 -0.14500
N 	N 	0.81320 0.46280 0.80920 -0.14500
N 	N 	0.31920 0.56260 0.37840 -0.14100
N 	N 	0.62240 0.19080 0.96280 -0.14800
N 	N 	0.96840 0.08410 0.17330 -0.15600
N 	N 	0.03160 0.91590 0.82670 -0.15600
N 	N 	0.72400 0.69080 0.46280 -0.14700
N 	N 	0.27420 0.58410 0.67330 -0.15200
N 	N 	0.88180 0.87840 0.43740 -0.14100
N 	N 	0.58520 0.03720 0.69080 -0.14700
N 	N 	0.30240 0.37840 0.93740 -0.14100
N 	N 	0.69760 0.62160 0.06260 -0.14100
N 	N 	0.72580 0.41590 0.32670 -0.15200
N 	N 	0.37760 0.80920 0.03720 -0.14800
O 	O 	0.28910 0.43610 0.67650 -0.53100
O 	O 	0.04140 0.54180 0.10900 -0.53600
O 	O 	0.97240 0.85210 0.14450 -0.58000
O 	O 	0.72470 0.06850 0.45910 -0.32000
O 	O 	0.16670 0.31990 0.68010 -0.56100
O 	O 	0.10970 0.23530 0.80190 -0.50400
O 	O 	0.79320 0.95910 0.93150 -0.31800
O 	O 	0.91040 0.53920 0.26020 -0.47800
O 	O 	0.58320 0.60900 0.45820 -0.54500
O 	O 	0.35310 0.73530 0.30190 -0.50300
O 	O 	0.24770 0.56850 0.95910 -0.32100
O 	O 	0.91810 0.01020 0.45580 -0.53100
O 	O 	0.41680 0.39100 0.54180 -0.54500
O 	O 	0.03440 0.67650 0.06390 -0.52400
O 	O 	0.55040 0.23980 0.53920 -0.47800
O 	O 	0.19220 0.95820 0.39100 -0.54500
O 	O 	0.46900 0.64790 0.35550 -0.57700
O 	O 	0.11690 0.85550 0.35210 -0.57800
O 	O 	0.66670 0.18010 0.81990 -0.56400
O 	O 	0.96710 0.22460 0.48900 -0.41400
O 	O 	0.51340 0.81990 0.31990 -0.56300
O 	O 	0.88310 0.14450 0.64790 -0.57800
O 	O 	0.08840 0.80190 0.26470 -0.50300
O 	O 	0.64690 0.26470 0.69810 -0.50300
O 	O 	0.34750 0.67230 0.12410 -0.41200
O 	O 	0.12130 0.07740 0.41500 -0.49300
O 	O 	0.08960 0.46080 0.73980 -0.47800
O 	O 	0.19170 0.98900 0.77540 -0.40800
O 	O 	0.11370 0.42260 0.08500 -0.48400
O 	O 	0.15320 0.68010 0.18010 -0.56000
O 	O 	0.92020 0.72650 0.61110 -0.26700
O 	O 	0.90170 0.06390 0.82350 -0.52500
O 	O 	0.81930 0.72460 0.98900 -0.40600
O 	O 	0.08190 0.98980 0.54420 -0.53100
O 	O 	0.33330 0.81990 0.18010 -0.56400
O 	O 	0.84680 0.31990 0.81990 -0.56000
O 	O 	0.07980 0.27350 0.38890 -0.26700
O 	O 	0.48660 0.18010 0.68010 -0.56300
O 	O 	0.65500 0.69810 0.23530 -0.50300
O 	O 	0.52840 0.12410 0.82770 -0.41200
O 	O 	0.65250 0.32770 0.87590 -0.41200
O 	O 	0.80780 0.04180 0.60900 -0.54500
O 	O 	0.96560 0.32350 0.93610 -0.52400
O 	O 	0.88630 0.57740 0.91500 -0.48400
O 	O 	0.20980 0.96080 0.23980 -0.47700
O 	O 	0.01980 0.62410 0.32770 -0.40600
O 	O 	0.95860 0.45820 0.89100 -0.53600
O 	O 	0.53100 0.35210 0.64450 -0.57700
O 	O 	0.24220 0.22650 0.11110 -0.26400
O 	O 	0.82940 0.26020 0.96080 -0.47800
O 	O 	0.75780 0.77350 0.88890 -0.26400
O 	O 	0.87870 0.92260 0.58500 -0.49300
O 	O 	0.20680 0.04090 0.06850 -0.31800
O 	O 	0.72520 0.17650 0.56390 -0.53200
O 	O 	0.75230 0.43150 0.04090 -0.32100
O 	O 	0.89030 0.76470 0.19810 -0.50400
O 	O 	0.03290 0.77540 0.51100 -0.41400
O 	O 	0.92830 0.95580 0.98980 -0.51900
O 	O 	0.46370 0.41500 0.42260 -0.49200
O 	O 	0.15040 0.89100 0.04180 -0.53900
O 	O 	0.09830 0.93610 0.17650 -0.52500
O 	O 	0.82450 0.64450 0.14790 -0.57600
O 	O 	0.80830 0.01100 0.22460 -0.40800
O 	O 	0.18380 0.54090 0.56850 -0.32000
O 	O 	0.27480 0.82350 0.43610 -0.53200
O 	O 	0.83330 0.68010 0.31990 -0.56100
O 	O 	0.81620 0.45910 0.43150 -0.32000
O 	O 	0.79020 0.03920 0.76020 -0.47700
O 	O 	0.11590 0.51020 0.95580 -0.53000
O 	O 	0.80130 0.08500 0.07740 -0.48600
O 	O 	0.35330 0.88890 0.72650 -0.26600
O 	O 	0.71090 0.56390 0.32350 -0.53100
O 	O 	0.37390 0.54420 0.51020 -0.53100
O 	O 	0.91160 0.19810 0.73530 -0.50300
O 	O 	0.53130 0.38890 0.22650 -0.26700
O 	O 	0.19870 0.91500 0.92260 -0.48600
O 	O 	0.62610 0.45580 0.48980 -0.53100
O 	O 	0.64670 0.11110 0.27350 -0.26600
O 	O 	0.45610 0.51100 0.72460 -0.41500
O 	O 	0.17060 0.73980 0.03920 -0.47800
O 	O 	0.98020 0.37590 0.67230 -0.40600
O 	O 	0.47160 0.87590 0.17230 -0.41200
O 	O 	0.27530 0.93150 0.54090 -0.32000
O 	O 	0.88410 0.48980 0.04420 -0.53000
O 	O 	0.35610 0.17230 0.62410 -0.41200
O 	O 	0.54390 0.48900 0.27540 -0.41500
O 	O 	0.84960 0.10900 0.95820 -0.53900
O 	O 	0.64390 0.82770 0.37590 -0.41200
O 	O 	0.18070 0.27540 0.01100 -0.40600
O 	O 	0.17550 0.35550 0.85210 -0.57600
O 	O 	0.46870 0.61110 0.77350 -0.26700
O 	O 	0.07170 0.04420 0.01020 -0.51900
O 	O 	0.02760 0.14790 0.85550 -0.58000
O 	O 	0.34500 0.30190 0.76470 -0.50300
O 	O 	0.44960 0.76020 0.46080 -0.47800
O 	O 	0.53630 0.58500 0.57740 -0.49200
