data_crystal

_cell_length_a 8.80000
_cell_length_b 13.11000
_cell_length_c 20.73400
_cell_angle_alpha 90.00000
_cell_angle_beta  90.00000
_cell_angle_gamma 90.00000

_symmetry_space_group_name_	'P 1'
_symmetry_space_group_name_H-M	'P 1'

loop_
_symmetry_equiv_pos_as_xyz
  x,y,z

loop_
_atom_site_label
_atom_site_type_symbol
_atom_site_fract_x
_atom_site_fract_y
_atom_site_fract_z
_atom_site_charge
Cu	Cu	0.35000 0.26460 0.75000 0.91400
Cu	Cu	0.15000 0.76460 0.25000 0.91400
H 	H 	0.15080 0.40840 0.52680 0.11900
H 	H 	0.84540 0.02980 0.25000 0.07100
H 	H 	0.99910 0.08390 0.36590 0.02700
H 	H 	0.07080 0.13610 0.47300 0.10800
H 	H 	0.04820 0.47120 0.43450 -0.01700
H 	H 	0.07080 0.13610 0.02700 0.10800
H 	H 	0.34920 0.90840 0.02680 0.11500
H 	H 	0.25330 0.32670 0.89220 0.01900
H 	H 	0.99910 0.08390 0.13410 0.02800
H 	H 	0.67410 0.40680 0.75000 0.08600
H 	H 	0.50090 0.58390 0.86590 0.02300
H 	H 	0.42920 0.63610 0.97300 0.11300
H 	H 	0.65460 0.52980 0.75000 0.07000
H 	H 	0.45180 0.97120 0.56550 -0.01300
H 	H 	0.15080 0.40840 0.97320 0.12000
H 	H 	0.25330 0.32670 0.60780 0.02000
H 	H 	0.04820 0.47120 0.06550 -0.01700
H 	H 	0.42920 0.63610 0.52700 0.11200
H 	H 	0.50090 0.58390 0.63410 0.02300
H 	H 	0.24670 0.82670 0.39220 0.02200
H 	H 	0.34920 0.90840 0.47320 0.11600
H 	H 	0.45180 0.97120 0.93450 -0.01400
H 	H 	0.38010 0.68180 0.42410 -0.02700
H 	H 	0.82590 0.90680 0.25000 0.08700
H 	H 	0.11990 0.18180 0.57590 -0.02400
H 	H 	0.38010 0.68180 0.07590 -0.02700
H 	H 	0.11990 0.18180 0.92410 -0.02400
H 	H 	0.24670 0.82670 0.10780 0.02200
C 	C 	0.17400 0.12850 0.94490 0.17900
C 	C 	0.45690 0.51860 0.64060 0.04300
C 	C 	0.14440 0.62980 0.14110 0.58900
C 	C 	0.14280 0.96960 0.40100 -0.06900
C 	C 	0.13700 0.09280 0.00340 -0.24000
C 	C 	0.20240 0.58050 0.08210 -0.28200
C 	C 	0.13700 0.09280 0.49660 -0.24000
C 	C 	0.18020 0.87600 0.12600 0.04700
C 	C 	0.31980 0.37600 0.62600 0.05200
C 	C 	0.35560 0.12980 0.64110 0.58600
C 	C 	0.36300 0.59280 0.50340 -0.24900
C 	C 	0.04310 0.01860 0.14060 0.03200
C 	C 	0.29760 0.08050 0.58210 -0.27400
C 	C 	0.32500 0.50990 0.53390 0.18400
C 	C 	0.14440 0.62980 0.35890 0.58800
C 	C 	0.32600 0.62850 0.44490 0.18700
C 	C 	0.14280 0.96960 0.09900 -0.06700
C 	C 	0.19700 0.46530 0.50640 -0.24000
C 	C 	0.35720 0.46960 0.59900 -0.07900
C 	C 	0.45690 0.51860 0.85940 0.04400
C 	C 	0.36300 0.59280 0.99660 -0.25200
C 	C 	0.17400 0.12850 0.55510 0.17900
C 	C 	0.35720 0.46960 0.90100 -0.08000
C 	C 	0.20240 0.58050 0.41790 -0.28000
C 	C 	0.13800 0.50160 0.04890 0.19700
C 	C 	0.18020 0.87600 0.37400 0.04800
C 	C 	0.13800 0.50160 0.45110 0.19500
C 	C 	0.60000 0.46400 0.75000 -0.06500
C 	C 	0.35560 0.12980 0.85890 0.58600
C 	C 	0.36200 0.00160 0.95110 0.18700
C 	C 	0.31980 0.37600 0.87400 0.05200
C 	C 	0.17500 0.00990 0.46610 0.17300
C 	C 	0.36200 0.00160 0.54890 0.18600
C 	C 	0.17500 0.00990 0.03390 0.17100
C 	C 	0.30300 0.96530 0.49360 -0.22900
C 	C 	0.30300 0.96530 0.00640 -0.22700
C 	C 	0.29760 0.08050 0.91790 -0.27400
C 	C 	0.90000 0.96400 0.25000 -0.07100
C 	C 	0.32600 0.62850 0.05510 0.18900
C 	C 	0.19700 0.46530 0.99360 -0.24100
C 	C 	0.04310 0.01860 0.35940 0.03300
C 	C 	0.32500 0.50990 0.96610 0.18600
N 	N 	0.10360 0.86720 0.31580 -0.17700
N 	N 	0.01890 0.95530 0.30680 -0.07000
N 	N 	0.10360 0.86720 0.18420 -0.17700
N 	N 	0.01890 0.95530 0.19320 -0.06900
N 	N 	0.48110 0.45530 0.80680 -0.07300
N 	N 	0.48110 0.45530 0.69320 -0.07300
N 	N 	0.39640 0.36720 0.68420 -0.17800
N 	N 	0.39640 0.36720 0.81580 -0.17800
O 	O 	0.28720 0.17160 0.67990 -0.50200
O 	O 	0.02220 0.60610 0.15030 -0.38300
O 	O 	0.47780 0.10610 0.65030 -0.38200
O 	O 	0.21280 0.67160 0.17990 -0.50200
O 	O 	0.02220 0.60610 0.34970 -0.38300
O 	O 	0.28720 0.17160 0.82010 -0.50200
O 	O 	0.47780 0.10610 0.84970 -0.38200
O 	O 	0.21280 0.67160 0.32010 -0.50200
Cu	Cu	0.65000 0.73540 0.25000 0.91500
Cu	Cu	0.85000 0.23540 0.75000 0.91500
H 	H 	0.84920 0.59160 0.02680 0.12000
H 	H 	0.34540 0.47020 0.25000 0.07000
H 	H 	0.65080 0.09160 0.52680 0.11600
H 	H 	0.15460 0.97020 0.75000 0.07200
H 	H 	0.49910 0.41610 0.36590 0.02300
H 	H 	0.57080 0.36390 0.02700 0.11300
H 	H 	0.57080 0.36390 0.47300 0.11200
H 	H 	0.54820 0.02880 0.06550 -0.01400
H 	H 	0.75330 0.17330 0.89220 0.02200
H 	H 	0.95180 0.52880 0.93450 -0.01700
H 	H 	0.00090 0.91610 0.63410 0.02800
H 	H 	0.88010 0.81820 0.07590 -0.02400
H 	H 	0.54820 0.02880 0.43450 -0.01300
H 	H 	0.92920 0.86390 0.97300 0.10900
H 	H 	0.17410 0.09320 0.75000 0.08700
H 	H 	0.61990 0.31820 0.57590 -0.02700
H 	H 	0.92920 0.86390 0.52700 0.10900
H 	H 	0.84920 0.59160 0.47320 0.12000
H 	H 	0.88010 0.81820 0.42410 -0.02400
H 	H 	0.00090 0.91610 0.86590 0.02800
H 	H 	0.65080 0.09160 0.97320 0.11600
H 	H 	0.61990 0.31820 0.92410 -0.02700
H 	H 	0.75330 0.17330 0.60780 0.02200
H 	H 	0.74670 0.67330 0.10780 0.02000
H 	H 	0.32590 0.59320 0.25000 0.08600
H 	H 	0.49910 0.41610 0.13410 0.02300
H 	H 	0.74670 0.67330 0.39220 0.02000
H 	H 	0.95180 0.52880 0.56550 -0.01600
C 	C 	0.68020 0.62400 0.37400 0.05200
C 	C 	0.67500 0.49010 0.46610 0.18400
C 	C 	0.95690 0.98140 0.85940 0.03200
C 	C 	0.86300 0.90720 0.50340 -0.24000
C 	C 	0.63800 0.99840 0.45110 0.18600
C 	C 	0.70240 0.91950 0.41790 -0.27400
C 	C 	0.85560 0.37020 0.64110 0.58800
C 	C 	0.82500 0.99010 0.53390 0.17300
C 	C 	0.82600 0.87150 0.44490 0.17900
C 	C 	0.81980 0.12400 0.87400 0.04700
C 	C 	0.40000 0.53600 0.25000 -0.06500
C 	C 	0.80300 0.53470 0.00640 -0.24100
C 	C 	0.67400 0.37150 0.94490 0.18900
C 	C 	0.64280 0.53040 0.40100 -0.07900
C 	C 	0.86200 0.49840 0.95110 0.19700
C 	C 	0.67400 0.37150 0.55510 0.18700
C 	C 	0.10000 0.03600 0.75000 -0.07100
C 	C 	0.79760 0.41950 0.58210 -0.28000
C 	C 	0.80300 0.53470 0.49360 -0.24000
C 	C 	0.63700 0.40720 0.49660 -0.24900
C 	C 	0.85720 0.03040 0.59900 -0.06900
C 	C 	0.81980 0.12400 0.62600 0.04800
C 	C 	0.69700 0.03470 0.99360 -0.22700
C 	C 	0.95690 0.98140 0.64060 0.03300
C 	C 	0.63700 0.40720 0.00340 -0.25200
C 	C 	0.64440 0.87020 0.35890 0.58600
C 	C 	0.69700 0.03470 0.50640 -0.22900
C 	C 	0.67500 0.49010 0.03390 0.18600
C 	C 	0.82500 0.99010 0.96610 0.17100
C 	C 	0.68020 0.62400 0.12600 0.05200
C 	C 	0.82600 0.87150 0.05510 0.17900
C 	C 	0.64440 0.87020 0.14110 0.58600
C 	C 	0.63800 0.99840 0.04890 0.18700
C 	C 	0.54310 0.48140 0.35940 0.04300
C 	C 	0.86300 0.90720 0.99660 -0.24000
C 	C 	0.85560 0.37020 0.85890 0.58900
C 	C 	0.79760 0.41950 0.91790 -0.28200
C 	C 	0.64280 0.53040 0.09900 -0.08000
C 	C 	0.54310 0.48140 0.14060 0.04400
C 	C 	0.86200 0.49840 0.54890 0.19500
C 	C 	0.85720 0.03040 0.90100 -0.06700
C 	C 	0.70240 0.91950 0.08210 -0.27400
N 	N 	0.89640 0.13280 0.68420 -0.17700
N 	N 	0.60360 0.63280 0.31580 -0.17800
N 	N 	0.51890 0.54470 0.19320 -0.07300
N 	N 	0.98110 0.04470 0.69320 -0.07000
N 	N 	0.51890 0.54470 0.30680 -0.07300
N 	N 	0.98110 0.04470 0.80680 -0.06900
N 	N 	0.60360 0.63280 0.18420 -0.17800
N 	N 	0.89640 0.13280 0.81580 -0.17700
O 	O 	0.52220 0.89390 0.34970 -0.38200
O 	O 	0.97780 0.39390 0.84970 -0.38300
O 	O 	0.97780 0.39390 0.65030 -0.38300
O 	O 	0.78720 0.32840 0.82010 -0.50200
O 	O 	0.71280 0.82840 0.17990 -0.50200
O 	O 	0.71280 0.82840 0.32010 -0.50200
O 	O 	0.52220 0.89390 0.15030 -0.38200
O 	O 	0.78720 0.32840 0.67990 -0.50200
