data_crystal

_cell_length_a 23.77500
_cell_length_b 28.13200
_cell_length_c 14.99100
_cell_angle_alpha 90.00000
_cell_angle_beta  90.00000
_cell_angle_gamma 90.00000

_symmetry_space_group_name_	'P 1'
_symmetry_space_group_name_H-M	'P 1'

loop_
_symmetry_equiv_pos_as_xyz
  x,y,z

loop_
_atom_site_label
_atom_site_type_symbol
_atom_site_fract_x
_atom_site_fract_y
_atom_site_fract_z
_atom_site_charge
C 	C 	0.45350 0.32490 0.82410 0.36700
C 	C 	0.46410 0.36400 0.75700 -0.14400
C 	C 	0.42240 0.37680 0.69640 0.07000
H 	H 	0.38750 0.36190 0.69830 0.01200
C 	C 	0.43280 0.41150 0.63380 -0.14100
C 	C 	0.48530 0.43440 0.63300 0.07500
H 	H 	0.49220 0.45840 0.59180 0.03400
C 	C 	0.52620 0.42160 0.69230 -0.15700
C 	C 	0.51540 0.38610 0.75420 0.08100
H 	H 	0.54340 0.37710 0.79430 0.01800
C 	C 	0.38910 0.42610 0.56630 0.34100
C 	C 	0.58360 0.44510 0.68880 0.41500
C 	C 	0.35650 0.18140 0.05330 0.43100
C 	C 	0.32460 0.13680 0.07640 -0.18900
C 	C 	0.33170 0.11590 0.15930 0.11000
H 	H 	0.35530 0.12990 0.20130 0.01500
C 	C 	0.30330 0.07380 0.17960 -0.19400
C 	C 	0.26850 0.05260 0.11740 0.12200
H 	H 	0.25060 0.02410 0.13070 -0.02600
C 	C 	0.26050 0.07410 0.03450 -0.19800
C 	C 	0.28970 0.11620 0.01580 0.12100
H 	H 	0.28500 0.13050 0.96040 0.00000
C 	C 	0.31390 0.05150 0.26850 0.37800
C 	C 	0.22370 0.05280 0.96570 0.41700
C 	C 	0.39500 0.22580 0.28740 0.12300
C 	C 	0.43440 0.17270 0.39970 -0.39900
H 	H 	0.44780 0.14970 0.35750 0.15900
H 	H 	0.42160 0.15680 0.45250 0.16000
H 	H 	0.46430 0.19410 0.41480 0.15700
C 	C 	0.32610 0.19270 0.39080 -0.39500
H 	H 	0.32340 0.19880 0.45360 0.14700
H 	H 	0.31460 0.16060 0.37880 0.16200
H 	H 	0.30200 0.21430 0.35910 0.13900
Co	Co	0.35439 0.47847 0.41375 1.19100
Co	Co	0.70705 0.43614 0.74164 1.10100
N 	N 	0.38740 0.19970 0.36000 -0.03800
O 	O 	0.48950 0.32030 0.88500 -0.27600
O 	O 	0.41030 0.30100 0.81670 -0.41600
O 	O 	0.33935 0.41260 0.57380 -0.33000
O 	O 	0.40714 0.45265 0.50420 -0.41600
O 	O 	0.62170 0.42850 0.73600 -0.48400
O 	O 	0.58681 0.48015 0.63580 -0.45800
O 	O 	0.38970 0.19675 0.11090 -0.45900
O 	O 	0.34610 0.19890 0.97860 -0.46800
O 	O 	0.33980 0.42560 0.32770 -0.44200
O 	O 	0.29793 0.49071 0.28450 -0.52400
O 	O 	0.30132 0.51403 0.48710 -0.46600
O 	O 	0.71860 0.42617 0.60720 -0.48600
O 	O 	0.43960 0.23480 0.25340 -0.21700
C 	C 	0.04650 0.67510 0.32410 0.36800
C 	C 	0.03590 0.63600 0.25700 -0.14200
C 	C 	0.07760 0.62320 0.19640 0.07100
H 	H 	0.11250 0.63810 0.19830 0.01300
C 	C 	0.06720 0.58850 0.13380 -0.14000
C 	C 	0.01470 0.56560 0.13300 0.07700
H 	H 	0.00780 0.54160 0.09180 0.03500
C 	C 	0.97380 0.57840 0.19230 -0.15700
C 	C 	0.98460 0.61390 0.25420 0.08100
H 	H 	0.95660 0.62290 0.29430 0.01900
C 	C 	0.11090 0.57390 0.06630 0.34200
C 	C 	0.91640 0.55490 0.18880 0.41600
C 	C 	0.14350 0.81860 0.55330 0.43400
C 	C 	0.17540 0.86320 0.57640 -0.18900
C 	C 	0.16830 0.88410 0.65930 0.11200
H 	H 	0.14470 0.87010 0.70130 0.01600
C 	C 	0.19670 0.92620 0.67960 -0.19500
C 	C 	0.23150 0.94740 0.61740 0.12300
H 	H 	0.24940 0.97590 0.63070 -0.02600
C 	C 	0.23950 0.92590 0.53450 -0.19800
C 	C 	0.21030 0.88380 0.51580 0.12300
H 	H 	0.21500 0.86950 0.46040 -0.00100
C 	C 	0.18610 0.94850 0.76850 0.37900
C 	C 	0.27630 0.94720 0.46570 0.41600
C 	C 	0.10500 0.77420 0.78740 0.12300
C 	C 	0.06560 0.82730 0.89970 -0.39700
H 	H 	0.05220 0.85030 0.85750 0.15800
H 	H 	0.07840 0.84320 0.95250 0.15900
H 	H 	0.03570 0.80590 0.91480 0.15600
C 	C 	0.17390 0.80730 0.89080 -0.39400
H 	H 	0.17660 0.80120 0.95360 0.14600
H 	H 	0.18540 0.83940 0.87880 0.16100
H 	H 	0.19800 0.78570 0.85910 0.13800
Co	Co	0.14561 0.52153 0.91375 1.19100
Co	Co	0.79295 0.56386 0.24164 1.10100
N 	N 	0.11260 0.80030 0.86000 -0.03800
O 	O 	0.01050 0.67970 0.38500 -0.27600
O 	O 	0.08970 0.69900 0.31670 -0.41600
O 	O 	0.16065 0.58740 0.07380 -0.33000
O 	O 	0.09286 0.54735 0.00420 -0.41600
O 	O 	0.87830 0.57150 0.23600 -0.48400
O 	O 	0.91319 0.51985 0.13580 -0.45900
O 	O 	0.11030 0.80325 0.61090 -0.45900
O 	O 	0.15390 0.80110 0.47860 -0.46900
O 	O 	0.16020 0.57440 0.82770 -0.44200
O 	O 	0.20207 0.50929 0.78450 -0.52400
O 	O 	0.19868 0.48597 0.98710 -0.46700
O 	O 	0.78140 0.57383 0.10720 -0.48600
O 	O 	0.06040 0.76520 0.75340 -0.21700
C 	C 	0.54650 0.82490 0.17590 0.36800
C 	C 	0.53590 0.86400 0.24300 -0.14200
C 	C 	0.57760 0.87680 0.30360 0.07100
H 	H 	0.61250 0.86190 0.30170 0.01300
C 	C 	0.56720 0.91150 0.36620 -0.14000
C 	C 	0.51470 0.93440 0.36700 0.07600
H 	H 	0.50780 0.95840 0.40820 0.03500
C 	C 	0.47380 0.92160 0.30770 -0.15600
C 	C 	0.48460 0.88610 0.24580 0.08200
H 	H 	0.45660 0.87710 0.20570 0.01900
C 	C 	0.61090 0.92610 0.43370 0.34200
C 	C 	0.41640 0.94510 0.31120 0.41600
C 	C 	0.64350 0.68140 0.94670 0.43300
C 	C 	0.67540 0.63680 0.92360 -0.18800
C 	C 	0.66830 0.61590 0.84070 0.11200
H 	H 	0.64470 0.62990 0.79870 0.01600
C 	C 	0.69670 0.57380 0.82040 -0.19400
C 	C 	0.73150 0.55260 0.88260 0.12200
H 	H 	0.74940 0.52410 0.86930 -0.02500
C 	C 	0.73950 0.57410 0.96550 -0.19700
C 	C 	0.71030 0.61620 0.98420 0.12300
H 	H 	0.71500 0.63050 0.03960 -0.00100
C 	C 	0.68610 0.55150 0.73150 0.37800
C 	C 	0.77630 0.55280 0.03430 0.41500
C 	C 	0.60500 0.72580 0.71260 0.12200
C 	C 	0.56560 0.67270 0.60030 -0.39900
H 	H 	0.55220 0.64970 0.64250 0.15900
H 	H 	0.57840 0.65680 0.54750 0.16000
H 	H 	0.53570 0.69410 0.58520 0.15700
C 	C 	0.67390 0.69270 0.60920 -0.39500
H 	H 	0.67660 0.69880 0.54640 0.14700
H 	H 	0.68540 0.66060 0.62120 0.16200
H 	H 	0.69800 0.71430 0.64090 0.13900
Co	Co	0.64561 0.97847 0.58625 1.19100
Co	Co	0.29295 0.93614 0.25836 1.10100
N 	N 	0.61260 0.69970 0.64000 -0.03800
O 	O 	0.51050 0.82030 0.11500 -0.27600
O 	O 	0.58970 0.80100 0.18330 -0.41600
O 	O 	0.66065 0.91260 0.42620 -0.33000
O 	O 	0.59286 0.95265 0.49580 -0.41600
O 	O 	0.37830 0.92850 0.26400 -0.48400
O 	O 	0.41319 0.98015 0.36420 -0.45800
O 	O 	0.61030 0.69675 0.88910 -0.45900
O 	O 	0.65390 0.69890 0.02140 -0.46800
O 	O 	0.66020 0.92560 0.67230 -0.44200
O 	O 	0.70207 0.99071 0.71550 -0.52400
O 	O 	0.69868 0.01403 0.51290 -0.46600
O 	O 	0.28140 0.92617 0.39280 -0.48600
O 	O 	0.56040 0.73480 0.74660 -0.21700
C 	C 	0.95350 0.17510 0.67590 0.36800
C 	C 	0.96410 0.13600 0.74300 -0.14200
C 	C 	0.92240 0.12320 0.80360 0.07100
H 	H 	0.88750 0.13810 0.80170 0.01300
C 	C 	0.93280 0.08850 0.86620 -0.13900
C 	C 	0.98530 0.06560 0.86700 0.07600
H 	H 	0.99220 0.04160 0.90820 0.03600
C 	C 	0.02620 0.07840 0.80770 -0.15700
C 	C 	0.01540 0.11390 0.74580 0.08100
H 	H 	0.04340 0.12290 0.70570 0.01900
C 	C 	0.88910 0.07390 0.93370 0.34200
C 	C 	0.08360 0.05490 0.81120 0.41600
C 	C 	0.85650 0.31860 0.44670 0.43300
C 	C 	0.82460 0.36320 0.42360 -0.18900
C 	C 	0.83170 0.38410 0.34070 0.11200
H 	H 	0.85530 0.37010 0.29870 0.01600
C 	C 	0.80330 0.42620 0.32040 -0.19500
C 	C 	0.76850 0.44740 0.38260 0.12300
H 	H 	0.75060 0.47590 0.36930 -0.02500
C 	C 	0.76050 0.42590 0.46550 -0.19800
C 	C 	0.78970 0.38380 0.48420 0.12300
H 	H 	0.78500 0.36950 0.53960 -0.00100
C 	C 	0.81390 0.44850 0.23150 0.37900
C 	C 	0.72370 0.44720 0.53430 0.41600
C 	C 	0.89500 0.27420 0.21260 0.12300
C 	C 	0.93440 0.32730 0.10030 -0.39800
H 	H 	0.94780 0.35030 0.14250 0.15800
H 	H 	0.92160 0.34320 0.04750 0.15900
H 	H 	0.96430 0.30590 0.08520 0.15600
C 	C 	0.82610 0.30730 0.10920 -0.39400
H 	H 	0.82340 0.30120 0.04640 0.14600
H 	H 	0.81460 0.33940 0.12120 0.16100
H 	H 	0.80200 0.28570 0.14090 0.13900
Co	Co	0.85439 0.02153 0.08625 1.19000
Co	Co	0.20705 0.06386 0.75836 1.10100
N 	N 	0.88740 0.30030 0.14000 -0.03800
O 	O 	0.98950 0.17970 0.61500 -0.27600
O 	O 	0.91030 0.19900 0.68330 -0.41600
O 	O 	0.83935 0.08740 0.92620 -0.33000
O 	O 	0.90714 0.04735 0.99580 -0.41500
O 	O 	0.12170 0.07150 0.76400 -0.48400
O 	O 	0.08681 0.01985 0.86420 -0.45800
O 	O 	0.88970 0.30325 0.38910 -0.45900
O 	O 	0.84610 0.30110 0.52140 -0.46900
O 	O 	0.83980 0.07440 0.17230 -0.44200
O 	O 	0.79793 0.00929 0.21550 -0.52500
O 	O 	0.80132 0.98597 0.01290 -0.46600
O 	O 	0.21860 0.07383 0.89280 -0.48600
O 	O 	0.93960 0.26520 0.24660 -0.21700
C 	C 	0.54650 0.67510 0.17590 0.36800
C 	C 	0.53590 0.63600 0.24300 -0.14300
C 	C 	0.57760 0.62320 0.30360 0.07100
H 	H 	0.61250 0.63810 0.30170 0.01300
C 	C 	0.56720 0.58850 0.36620 -0.14000
C 	C 	0.51470 0.56560 0.36700 0.07600
H 	H 	0.50780 0.54160 0.40820 0.03500
C 	C 	0.47380 0.57840 0.30770 -0.15600
C 	C 	0.48460 0.61390 0.24580 0.08200
H 	H 	0.45660 0.62290 0.20570 0.01900
C 	C 	0.61090 0.57390 0.43370 0.34200
C 	C 	0.41640 0.55490 0.31120 0.41600
C 	C 	0.64350 0.81860 0.94670 0.43200
C 	C 	0.67540 0.86320 0.92360 -0.18800
C 	C 	0.66830 0.88410 0.84070 0.11100
H 	H 	0.64470 0.87010 0.79870 0.01600
C 	C 	0.69670 0.92620 0.82040 -0.19400
C 	C 	0.73150 0.94740 0.88260 0.12200
H 	H 	0.74940 0.97590 0.86930 -0.02600
C 	C 	0.73950 0.92590 0.96550 -0.19800
C 	C 	0.71030 0.88380 0.98420 0.12100
H 	H 	0.71500 0.86950 0.03960 0.00000
C 	C 	0.68610 0.94850 0.73150 0.37800
C 	C 	0.77630 0.94720 0.03430 0.41700
C 	C 	0.60500 0.77420 0.71260 0.12300
C 	C 	0.56560 0.82730 0.60030 -0.39900
H 	H 	0.55220 0.85030 0.64250 0.15900
H 	H 	0.57840 0.84320 0.54750 0.16000
H 	H 	0.53570 0.80590 0.58520 0.15700
C 	C 	0.67390 0.80730 0.60920 -0.39500
H 	H 	0.67660 0.80120 0.54640 0.14700
H 	H 	0.68540 0.83940 0.62120 0.16200
H 	H 	0.69800 0.78570 0.64090 0.13900
Co	Co	0.64561 0.52153 0.58625 1.19100
Co	Co	0.29295 0.56386 0.25836 1.10100
N 	N 	0.61260 0.80030 0.64000 -0.03800
O 	O 	0.51050 0.67970 0.11500 -0.27600
O 	O 	0.58970 0.69900 0.18330 -0.41600
O 	O 	0.66065 0.58740 0.42620 -0.33000
O 	O 	0.59286 0.54735 0.49580 -0.41600
O 	O 	0.37830 0.57150 0.26400 -0.48400
O 	O 	0.41319 0.51985 0.36420 -0.45800
O 	O 	0.61030 0.80325 0.88910 -0.45900
O 	O 	0.65390 0.80110 0.02140 -0.46800
O 	O 	0.66020 0.57440 0.67230 -0.44200
O 	O 	0.70207 0.50929 0.71550 -0.52400
O 	O 	0.69868 0.48597 0.51290 -0.46600
O 	O 	0.28140 0.57383 0.39280 -0.48600
O 	O 	0.56040 0.76520 0.74660 -0.21700
C 	C 	0.95350 0.32490 0.67590 0.36800
C 	C 	0.96410 0.36400 0.74300 -0.14200
C 	C 	0.92240 0.37680 0.80360 0.07100
H 	H 	0.88750 0.36190 0.80170 0.01300
C 	C 	0.93280 0.41150 0.86620 -0.14000
C 	C 	0.98530 0.43440 0.86700 0.07700
H 	H 	0.99220 0.45840 0.90820 0.03500
C 	C 	0.02620 0.42160 0.80770 -0.15700
C 	C 	0.01540 0.38610 0.74580 0.08100
H 	H 	0.04340 0.37710 0.70570 0.01900
C 	C 	0.88910 0.42610 0.93370 0.34200
C 	C 	0.08360 0.44510 0.81120 0.41600
C 	C 	0.85650 0.18140 0.44670 0.43400
C 	C 	0.82460 0.13680 0.42360 -0.18900
C 	C 	0.83170 0.11590 0.34070 0.11200
H 	H 	0.85530 0.12990 0.29870 0.01600
C 	C 	0.80330 0.07380 0.32040 -0.19500
C 	C 	0.76850 0.05260 0.38260 0.12300
H 	H 	0.75060 0.02410 0.36930 -0.02600
C 	C 	0.76050 0.07410 0.46550 -0.19800
C 	C 	0.78970 0.11620 0.48420 0.12300
H 	H 	0.78500 0.13050 0.53960 -0.00100
C 	C 	0.81390 0.05150 0.23150 0.37900
C 	C 	0.72370 0.05280 0.53430 0.41600
C 	C 	0.89500 0.22580 0.21260 0.12300
C 	C 	0.93440 0.17270 0.10030 -0.39700
H 	H 	0.94780 0.14970 0.14250 0.15800
H 	H 	0.92160 0.15680 0.04750 0.15900
H 	H 	0.96430 0.19410 0.08520 0.15600
C 	C 	0.82610 0.19270 0.10920 -0.39400
H 	H 	0.82340 0.19880 0.04640 0.14600
H 	H 	0.81460 0.16060 0.12120 0.16100
H 	H 	0.80200 0.21430 0.14090 0.13800
Co	Co	0.85439 0.47847 0.08625 1.19100
Co	Co	0.20705 0.43614 0.75836 1.10100
N 	N 	0.88740 0.19970 0.14000 -0.03800
O 	O 	0.98950 0.32030 0.61500 -0.27600
O 	O 	0.91030 0.30100 0.68330 -0.41600
O 	O 	0.83935 0.41260 0.92620 -0.33000
O 	O 	0.90714 0.45265 0.99580 -0.41600
O 	O 	0.12170 0.42850 0.76400 -0.48400
O 	O 	0.08681 0.48015 0.86420 -0.45900
O 	O 	0.88970 0.19675 0.38910 -0.45900
O 	O 	0.84610 0.19890 0.52140 -0.46900
O 	O 	0.83980 0.42560 0.17230 -0.44200
O 	O 	0.79793 0.49071 0.21550 -0.52400
O 	O 	0.80132 0.51403 0.01290 -0.46700
O 	O 	0.21860 0.42617 0.89280 -0.48600
O 	O 	0.93960 0.23480 0.24660 -0.21700
C 	C 	0.45350 0.17510 0.82410 0.36800
C 	C 	0.46410 0.13600 0.75700 -0.14200
C 	C 	0.42240 0.12320 0.69640 0.07100
H 	H 	0.38750 0.13810 0.69830 0.01300
C 	C 	0.43280 0.08850 0.63380 -0.14000
C 	C 	0.48530 0.06560 0.63300 0.07600
H 	H 	0.49220 0.04160 0.59180 0.03500
C 	C 	0.52620 0.07840 0.69230 -0.15600
C 	C 	0.51540 0.11390 0.75420 0.08200
H 	H 	0.54340 0.12290 0.79430 0.01900
C 	C 	0.38910 0.07390 0.56630 0.34200
C 	C 	0.58360 0.05490 0.68880 0.41600
C 	C 	0.35650 0.31860 0.05330 0.43300
C 	C 	0.32460 0.36320 0.07640 -0.18800
C 	C 	0.33170 0.38410 0.15930 0.11200
H 	H 	0.35530 0.37010 0.20130 0.01600
C 	C 	0.30330 0.42620 0.17960 -0.19400
C 	C 	0.26850 0.44740 0.11740 0.12200
H 	H 	0.25060 0.47590 0.13070 -0.02500
C 	C 	0.26050 0.42590 0.03450 -0.19700
C 	C 	0.28970 0.38380 0.01580 0.12300
H 	H 	0.28500 0.36950 0.96040 -0.00100
C 	C 	0.31390 0.44850 0.26850 0.37800
C 	C 	0.22370 0.44720 0.96570 0.41500
C 	C 	0.39500 0.27420 0.28740 0.12200
C 	C 	0.43440 0.32730 0.39970 -0.39900
H 	H 	0.44780 0.35030 0.35750 0.15900
H 	H 	0.42160 0.34320 0.45250 0.16000
H 	H 	0.46430 0.30590 0.41480 0.15700
C 	C 	0.32610 0.30730 0.39080 -0.39500
H 	H 	0.32340 0.30120 0.45360 0.14700
H 	H 	0.31460 0.33940 0.37880 0.16200
H 	H 	0.30200 0.28570 0.35910 0.13900
Co	Co	0.35439 0.02153 0.41375 1.19100
Co	Co	0.70705 0.06386 0.74164 1.10100
N 	N 	0.38740 0.30030 0.36000 -0.03800
O 	O 	0.48950 0.17970 0.88500 -0.27600
O 	O 	0.41030 0.19900 0.81670 -0.41600
O 	O 	0.33935 0.08740 0.57380 -0.33000
O 	O 	0.40714 0.04735 0.50420 -0.41600
O 	O 	0.62170 0.07150 0.73600 -0.48400
O 	O 	0.58681 0.01985 0.63580 -0.45800
O 	O 	0.38970 0.30325 0.11090 -0.45900
O 	O 	0.34610 0.30110 0.97860 -0.46800
O 	O 	0.33980 0.07440 0.32770 -0.44200
O 	O 	0.29793 0.00929 0.28450 -0.52400
O 	O 	0.30132 0.98597 0.48710 -0.46600
O 	O 	0.71860 0.07383 0.60720 -0.48600
O 	O 	0.43960 0.26520 0.25340 -0.21700
C 	C 	0.04650 0.82490 0.32410 0.36800
C 	C 	0.03590 0.86400 0.25700 -0.14200
C 	C 	0.07760 0.87680 0.19640 0.07100
H 	H 	0.11250 0.86190 0.19830 0.01300
C 	C 	0.06720 0.91150 0.13380 -0.13900
C 	C 	0.01470 0.93440 0.13300 0.07600
H 	H 	0.00780 0.95840 0.09180 0.03600
C 	C 	0.97380 0.92160 0.19230 -0.15700
C 	C 	0.98460 0.88610 0.25420 0.08100
H 	H 	0.95660 0.87710 0.29430 0.01900
C 	C 	0.11090 0.92610 0.06630 0.34200
C 	C 	0.91640 0.94510 0.18880 0.41600
C 	C 	0.14350 0.68140 0.55330 0.43300
C 	C 	0.17540 0.63680 0.57640 -0.18900
C 	C 	0.16830 0.61590 0.65930 0.11200
H 	H 	0.14470 0.62990 0.70130 0.01600
C 	C 	0.19670 0.57380 0.67960 -0.19500
C 	C 	0.23150 0.55260 0.61740 0.12300
H 	H 	0.24940 0.52410 0.63070 -0.02500
C 	C 	0.23950 0.57410 0.53450 -0.19800
C 	C 	0.21030 0.61620 0.51580 0.12300
H 	H 	0.21500 0.63050 0.46040 -0.00100
C 	C 	0.18610 0.55150 0.76850 0.37900
C 	C 	0.27630 0.55280 0.46570 0.41600
C 	C 	0.10500 0.72580 0.78740 0.12300
C 	C 	0.06560 0.67270 0.89970 -0.39800
H 	H 	0.05220 0.64970 0.85750 0.15800
H 	H 	0.07840 0.65680 0.95250 0.15900
H 	H 	0.03570 0.69410 0.91480 0.15600
C 	C 	0.17390 0.69270 0.89080 -0.39400
H 	H 	0.17660 0.69880 0.95360 0.14600
H 	H 	0.18540 0.66060 0.87880 0.16100
H 	H 	0.19800 0.71430 0.85910 0.13900
Co	Co	0.14561 0.97847 0.91375 1.19000
Co	Co	0.79295 0.93614 0.24164 1.10100
N 	N 	0.11260 0.69970 0.86000 -0.03800
O 	O 	0.01050 0.82030 0.38500 -0.27600
O 	O 	0.08970 0.80100 0.31670 -0.41600
O 	O 	0.16065 0.91260 0.07380 -0.33000
O 	O 	0.09286 0.95265 0.00420 -0.41500
O 	O 	0.87830 0.92850 0.23600 -0.48400
O 	O 	0.91319 0.98015 0.13580 -0.45800
O 	O 	0.11030 0.69675 0.61090 -0.45900
O 	O 	0.15390 0.69890 0.47860 -0.46900
O 	O 	0.16020 0.92560 0.82770 -0.44200
O 	O 	0.20207 0.99071 0.78450 -0.52500
O 	O 	0.19868 0.01403 0.98710 -0.46600
O 	O 	0.78140 0.92617 0.10720 -0.48600
O 	O 	0.06040 0.73480 0.75340 -0.21700
Co	Co	0.37951 0.25000 0.90331 1.18700
Co	Co	0.44800 0.25000 0.11544 1.14100
O 	O 	0.45770 0.25000 0.97710 -0.40100
Co	Co	0.12049 0.75000 0.40331 1.18700
Co	Co	0.05200 0.75000 0.61544 1.14100
O 	O 	0.04230 0.75000 0.47710 -0.40200
Co	Co	0.62049 0.75000 0.09669 1.18700
Co	Co	0.55200 0.75000 0.88456 1.14100
O 	O 	0.54230 0.75000 0.02290 -0.40100
Co	Co	0.87951 0.25000 0.59669 1.18700
Co	Co	0.94800 0.25000 0.38456 1.14100
O 	O 	0.95770 0.25000 0.52290 -0.40200
