data_crystal

_cell_length_a 15.04100
_cell_length_b 23.86200
_cell_length_c 28.47900
_cell_angle_alpha 90.00000
_cell_angle_beta  90.00000
_cell_angle_gamma 90.00000

_symmetry_space_group_name_	'P 1'
_symmetry_space_group_name_H-M	'P 1'

loop_
_symmetry_equiv_pos_as_xyz
  x,y,z

loop_
_atom_site_label
_atom_site_type_symbol
_atom_site_fract_x
_atom_site_fract_y
_atom_site_fract_z
_atom_site_charge
Co	Co	0.59099 0.85527 0.97787 1.18600
Co	Co	0.74635 0.79499 0.06315 1.09700
Co	Co	0.09099 0.64473 0.02213 1.18700
Co	Co	0.24635 0.70501 0.93685 1.09800
Co	Co	0.40901 0.14473 0.47787 1.18800
Co	Co	0.25365 0.20501 0.56315 1.09800
Co	Co	0.90901 0.35527 0.52213 1.18800
Co	Co	0.75365 0.29499 0.43685 1.09800
Co	Co	0.40901 0.14473 0.02213 1.18700
Co	Co	0.25365 0.20501 0.93685 1.09800
Co	Co	0.90901 0.35527 0.97787 1.18700
Co	Co	0.75365 0.29499 0.06315 1.09800
Co	Co	0.59099 0.85527 0.52213 1.18800
Co	Co	0.74635 0.79499 0.43685 1.09800
Co	Co	0.09099 0.64473 0.47787 1.18800
Co	Co	0.24635 0.70501 0.56315 1.09800
Co	Co	0.10122 0.87783 0.75000 1.17900
Co	Co	0.88806 0.94376 0.75000 1.09400
Co	Co	0.60122 0.62217 0.25000 1.17900
Co	Co	0.38806 0.55624 0.25000 1.09500
Co	Co	0.89878 0.12217 0.25000 1.17900
Co	Co	0.11194 0.05624 0.25000 1.09400
Co	Co	0.39878 0.37783 0.75000 1.17900
Co	Co	0.61194 0.44376 0.75000 1.09500
H 	H 	0.04640 0.78270 0.87120 0.01000
H 	H 	0.87440 0.75030 0.97630 -0.01800
H 	H 	0.80440 0.85300 0.87000 0.01500
H 	H 	0.20380 0.04140 0.87850 0.02700
H 	H 	0.40700 0.99030 0.95960 0.04100
H 	H 	0.30620 0.88670 0.86170 0.02400
H 	H 	0.54640 0.71730 0.12880 0.00700
H 	H 	0.37440 0.74970 0.02370 -0.01800
H 	H 	0.30440 0.64700 0.13000 0.01400
H 	H 	0.70380 0.45860 0.12150 0.02600
H 	H 	0.90700 0.50970 0.04040 0.04100
H 	H 	0.80620 0.61330 0.13830 0.02400
H 	H 	0.95360 0.21730 0.37120 0.00900
H 	H 	0.12560 0.24970 0.47630 -0.01700
H 	H 	0.19560 0.14700 0.37000 0.01500
H 	H 	0.79620 0.95860 0.37850 0.02600
H 	H 	0.59300 0.00970 0.45960 0.04100
H 	H 	0.69380 0.11330 0.36170 0.02400
H 	H 	0.45360 0.28270 0.62880 0.00700
H 	H 	0.62560 0.25030 0.52370 -0.01800
H 	H 	0.69560 0.35300 0.63000 0.01400
H 	H 	0.29620 0.54140 0.62150 0.02600
H 	H 	0.09300 0.49030 0.54040 0.04100
H 	H 	0.19380 0.38670 0.63830 0.02400
H 	H 	0.95360 0.21730 0.12880 0.01000
H 	H 	0.12560 0.24970 0.02370 -0.01800
H 	H 	0.19560 0.14700 0.13000 0.01500
H 	H 	0.79620 0.95860 0.12150 0.02700
H 	H 	0.59300 0.00970 0.04040 0.04100
H 	H 	0.69380 0.11330 0.13830 0.02400
H 	H 	0.45360 0.28270 0.87120 0.00700
H 	H 	0.62560 0.25030 0.97630 -0.01800
H 	H 	0.69560 0.35300 0.87000 0.01400
H 	H 	0.29620 0.54140 0.87850 0.02600
H 	H 	0.09300 0.49030 0.95960 0.04100
H 	H 	0.19380 0.38670 0.86170 0.02400
H 	H 	0.04640 0.78270 0.62880 0.00900
H 	H 	0.87440 0.75030 0.52370 -0.01700
H 	H 	0.80440 0.85300 0.63000 0.01500
H 	H 	0.20380 0.04140 0.62150 0.02600
H 	H 	0.40700 0.99030 0.54040 0.04100
H 	H 	0.30620 0.88670 0.63830 0.02400
H 	H 	0.54640 0.71730 0.37120 0.00700
H 	H 	0.37440 0.74970 0.47630 -0.01800
H 	H 	0.30440 0.64700 0.37000 0.01400
H 	H 	0.70380 0.45860 0.37850 0.02600
H 	H 	0.90700 0.50970 0.45960 0.04100
H 	H 	0.80620 0.61330 0.36170 0.02400
C 	C 	0.95220 0.85320 0.81890 0.41400
C 	C 	0.92870 0.82260 0.86368 -0.16800
C 	C 	0.99090 0.78770 0.88499 0.09400
C 	C 	0.97060 0.76011 0.92708 -0.17500
C 	C 	0.88800 0.76817 0.94817 0.10100
C 	C 	0.82600 0.80333 0.92666 -0.17800
C 	C 	0.84640 0.83005 0.88435 0.09900
C 	C 	0.73750 0.81441 0.94915 0.37100
C 	C 	0.03950 0.72217 0.94872 0.40800
C 	C 	0.17730 0.95160 0.82575 0.34200
C 	C 	0.24390 0.96230 0.86438 -0.11800
C 	C 	0.24440 0.01388 0.88720 0.06000
C 	C 	0.30540 0.02453 0.92302 -0.13900
C 	C 	0.36670 0.98337 0.93550 0.05900
C 	C 	0.36810 0.93206 0.91235 -0.11900
C 	C 	0.30620 0.92115 0.87692 0.04900
C 	C 	0.30830 0.08090 0.94654 0.40000
C 	C 	0.43720 0.88882 0.92582 0.33400
C 	C 	0.45220 0.64680 0.18110 0.41700
C 	C 	0.42870 0.67740 0.13632 -0.17100
C 	C 	0.49090 0.71230 0.11501 0.09900
C 	C 	0.47060 0.73989 0.07292 -0.17500
C 	C 	0.38800 0.73183 0.05183 0.10200
C 	C 	0.32600 0.69667 0.07334 -0.17800
C 	C 	0.34640 0.66995 0.11565 0.10100
C 	C 	0.23750 0.68559 0.05085 0.37100
C 	C 	0.53950 0.77783 0.05128 0.40600
C 	C 	0.67730 0.54840 0.17425 0.34200
C 	C 	0.74390 0.53770 0.13562 -0.11800
C 	C 	0.74440 0.48612 0.11280 0.06100
C 	C 	0.80540 0.47547 0.07698 -0.13900
C 	C 	0.86670 0.51663 0.06450 0.05900
C 	C 	0.86810 0.56794 0.08765 -0.11900
C 	C 	0.80620 0.57885 0.12308 0.04900
C 	C 	0.80830 0.41910 0.05346 0.40000
C 	C 	0.93720 0.61118 0.07418 0.33400
C 	C 	0.04780 0.14680 0.31890 0.41400
C 	C 	0.07130 0.17740 0.36368 -0.16900
C 	C 	0.00910 0.21230 0.38499 0.09500
C 	C 	0.02940 0.23989 0.42708 -0.17400
C 	C 	0.11200 0.23183 0.44817 0.10100
C 	C 	0.17400 0.19667 0.42666 -0.17800
C 	C 	0.15360 0.16995 0.38435 0.09900
C 	C 	0.26250 0.18559 0.44915 0.37100
C 	C 	0.96050 0.27783 0.44872 0.40700
C 	C 	0.82270 0.04840 0.32575 0.34100
C 	C 	0.75610 0.03770 0.36438 -0.11700
C 	C 	0.75560 0.98612 0.38720 0.05900
C 	C 	0.69460 0.97547 0.42302 -0.13900
C 	C 	0.63330 0.01663 0.43550 0.05900
C 	C 	0.63190 0.06794 0.41235 -0.11900
C 	C 	0.69380 0.07885 0.37692 0.04900
C 	C 	0.69170 0.91910 0.44654 0.40000
C 	C 	0.56280 0.11118 0.42582 0.33400
C 	C 	0.54780 0.35320 0.68110 0.41700
C 	C 	0.57130 0.32260 0.63632 -0.17000
C 	C 	0.50910 0.28770 0.61501 0.09900
C 	C 	0.52940 0.26011 0.57292 -0.17500
C 	C 	0.61200 0.26817 0.55183 0.10200
C 	C 	0.67400 0.30333 0.57334 -0.17800
C 	C 	0.65360 0.33005 0.61565 0.10100
C 	C 	0.76250 0.31441 0.55085 0.37100
C 	C 	0.46050 0.22217 0.55128 0.40600
C 	C 	0.32270 0.45160 0.67425 0.34200
C 	C 	0.25610 0.46230 0.63562 -0.11800
C 	C 	0.25560 0.51388 0.61280 0.06100
C 	C 	0.19460 0.52453 0.57698 -0.13900
C 	C 	0.13330 0.48337 0.56450 0.05900
C 	C 	0.13190 0.43206 0.58765 -0.11900
C 	C 	0.19380 0.42115 0.62308 0.04900
C 	C 	0.19170 0.58090 0.55346 0.40000
C 	C 	0.06280 0.38882 0.57418 0.33400
C 	C 	0.04780 0.14680 0.18110 0.41400
C 	C 	0.07130 0.17740 0.13632 -0.16800
C 	C 	0.00910 0.21230 0.11501 0.09400
C 	C 	0.02940 0.23989 0.07292 -0.17500
C 	C 	0.11200 0.23183 0.05183 0.10100
C 	C 	0.17400 0.19667 0.07334 -0.17800
C 	C 	0.15360 0.16995 0.11565 0.09900
C 	C 	0.26250 0.18559 0.05085 0.37100
C 	C 	0.96050 0.27783 0.05128 0.40800
C 	C 	0.82270 0.04840 0.17425 0.34200
C 	C 	0.75610 0.03770 0.13562 -0.11800
C 	C 	0.75560 0.98612 0.11280 0.06000
C 	C 	0.69460 0.97547 0.07698 -0.13900
C 	C 	0.63330 0.01663 0.06450 0.05900
C 	C 	0.63190 0.06794 0.08765 -0.11900
C 	C 	0.69380 0.07885 0.12308 0.04900
C 	C 	0.69170 0.91910 0.05346 0.40000
C 	C 	0.56280 0.11118 0.07418 0.33400
C 	C 	0.54780 0.35320 0.81890 0.41700
C 	C 	0.57130 0.32260 0.86368 -0.17100
C 	C 	0.50910 0.28770 0.88499 0.09900
C 	C 	0.52940 0.26011 0.92708 -0.17500
C 	C 	0.61200 0.26817 0.94817 0.10200
C 	C 	0.67400 0.30333 0.92666 -0.17800
C 	C 	0.65360 0.33005 0.88435 0.10100
C 	C 	0.76250 0.31441 0.94915 0.37100
C 	C 	0.46050 0.22217 0.94872 0.40600
C 	C 	0.32270 0.45160 0.82575 0.34200
C 	C 	0.25610 0.46230 0.86438 -0.11800
C 	C 	0.25560 0.51388 0.88720 0.06100
C 	C 	0.19460 0.52453 0.92302 -0.13900
C 	C 	0.13330 0.48337 0.93550 0.05900
C 	C 	0.13190 0.43206 0.91235 -0.11900
C 	C 	0.19380 0.42115 0.87692 0.04900
C 	C 	0.19170 0.58090 0.94654 0.40000
C 	C 	0.06280 0.38882 0.92582 0.33400
C 	C 	0.95220 0.85320 0.68110 0.41400
C 	C 	0.92870 0.82260 0.63632 -0.16900
C 	C 	0.99090 0.78770 0.61501 0.09500
C 	C 	0.97060 0.76011 0.57292 -0.17400
C 	C 	0.88800 0.76817 0.55183 0.10100
C 	C 	0.82600 0.80333 0.57334 -0.17800
C 	C 	0.84640 0.83005 0.61565 0.09900
C 	C 	0.73750 0.81441 0.55085 0.37100
C 	C 	0.03950 0.72217 0.55128 0.40700
C 	C 	0.17730 0.95160 0.67425 0.34100
C 	C 	0.24390 0.96230 0.63562 -0.11700
C 	C 	0.24440 0.01388 0.61280 0.05900
C 	C 	0.30540 0.02453 0.57698 -0.13900
C 	C 	0.36670 0.98337 0.56450 0.05900
C 	C 	0.36810 0.93206 0.58765 -0.11900
C 	C 	0.30620 0.92115 0.62308 0.04900
C 	C 	0.30830 0.08090 0.55346 0.40000
C 	C 	0.43720 0.88882 0.57418 0.33400
C 	C 	0.45220 0.64680 0.31890 0.41700
C 	C 	0.42870 0.67740 0.36368 -0.17000
C 	C 	0.49090 0.71230 0.38499 0.09900
C 	C 	0.47060 0.73989 0.42708 -0.17500
C 	C 	0.38800 0.73183 0.44817 0.10200
C 	C 	0.32600 0.69667 0.42666 -0.17800
C 	C 	0.34640 0.66995 0.38435 0.10100
C 	C 	0.23750 0.68559 0.44915 0.37100
C 	C 	0.53950 0.77783 0.44872 0.40600
C 	C 	0.67730 0.54840 0.32575 0.34200
C 	C 	0.74390 0.53770 0.36438 -0.11800
C 	C 	0.74440 0.48612 0.38720 0.06100
C 	C 	0.80540 0.47547 0.42302 -0.13900
C 	C 	0.86670 0.51663 0.43550 0.05900
C 	C 	0.86810 0.56794 0.41235 -0.11900
C 	C 	0.80620 0.57885 0.37692 0.04900
C 	C 	0.80830 0.41910 0.44654 0.40000
C 	C 	0.93720 0.61118 0.42582 0.33400
O 	O 	0.02780 0.84268 0.80197 -0.45400
O 	O 	0.89430 0.88599 0.80311 -0.47800
O 	O 	0.67820 0.84033 0.92573 -0.42800
O 	O 	0.72120 0.79918 0.99046 -0.52400
O 	O 	0.01740 0.69767 0.98658 -0.46400
O 	O 	0.11150 0.71654 0.92724 -0.48200
O 	O 	0.11600 0.98700 0.82099 -0.27100
O 	O 	0.18830 0.90840 0.80093 -0.39900
O 	O 	0.25970 0.11893 0.93008 -0.47100
O 	O 	0.35980 0.08465 0.98166 -0.45000
O 	O 	0.49990 0.90700 0.95190 -0.40900
O 	O 	0.43020 0.83914 0.91246 -0.31900
O 	O 	0.52780 0.65732 0.19803 -0.45600
O 	O 	0.39430 0.61401 0.19689 -0.47800
O 	O 	0.17820 0.65967 0.07427 -0.42800
O 	O 	0.22120 0.70082 0.00954 -0.52400
O 	O 	0.51740 0.80233 0.01342 -0.46500
O 	O 	0.61150 0.78346 0.07276 -0.48200
O 	O 	0.61600 0.51300 0.17901 -0.27200
O 	O 	0.68830 0.59160 0.19907 -0.39900
O 	O 	0.75970 0.38107 0.06992 -0.47100
O 	O 	0.85980 0.41535 0.01834 -0.45000
O 	O 	0.99990 0.59300 0.04810 -0.40800
O 	O 	0.93020 0.66086 0.08754 -0.31900
O 	O 	0.97220 0.15732 0.30197 -0.45500
O 	O 	0.10570 0.11401 0.30311 -0.47800
O 	O 	0.32180 0.15967 0.42573 -0.42800
O 	O 	0.27880 0.20082 0.49046 -0.52400
O 	O 	0.98260 0.30233 0.48658 -0.46500
O 	O 	0.88850 0.28346 0.42724 -0.48200
O 	O 	0.88400 0.01300 0.32099 -0.27100
O 	O 	0.81170 0.09160 0.30093 -0.39900
O 	O 	0.74030 0.88107 0.43008 -0.47200
O 	O 	0.64020 0.91535 0.48166 -0.45000
O 	O 	0.50010 0.09300 0.45190 -0.40900
O 	O 	0.56980 0.16086 0.41246 -0.31900
O 	O 	0.47220 0.34268 0.69803 -0.45600
O 	O 	0.60570 0.38599 0.69689 -0.47800
O 	O 	0.82180 0.34033 0.57427 -0.42800
O 	O 	0.77880 0.29918 0.50954 -0.52400
O 	O 	0.48260 0.19767 0.51342 -0.46500
O 	O 	0.38850 0.21654 0.57276 -0.48200
O 	O 	0.38400 0.48700 0.67901 -0.27200
O 	O 	0.31170 0.40840 0.69907 -0.39900
O 	O 	0.24030 0.61893 0.56992 -0.47100
O 	O 	0.14020 0.58465 0.51834 -0.45000
O 	O 	0.00010 0.40700 0.54810 -0.40900
O 	O 	0.06980 0.33914 0.58754 -0.31900
O 	O 	0.97220 0.15732 0.19803 -0.45400
O 	O 	0.10570 0.11401 0.19689 -0.47800
O 	O 	0.32180 0.15967 0.07427 -0.42800
O 	O 	0.27880 0.20082 0.00954 -0.52400
O 	O 	0.98260 0.30233 0.01342 -0.46400
O 	O 	0.88850 0.28346 0.07276 -0.48200
O 	O 	0.88400 0.01300 0.17901 -0.27100
O 	O 	0.81170 0.09160 0.19907 -0.39900
O 	O 	0.74030 0.88107 0.06992 -0.47100
O 	O 	0.64020 0.91535 0.01834 -0.45000
O 	O 	0.50010 0.09300 0.04810 -0.40900
O 	O 	0.56980 0.16086 0.08754 -0.31900
O 	O 	0.47220 0.34268 0.80197 -0.45600
O 	O 	0.60570 0.38599 0.80311 -0.47800
O 	O 	0.82180 0.34033 0.92573 -0.42800
O 	O 	0.77880 0.29918 0.99046 -0.52400
O 	O 	0.48260 0.19767 0.98658 -0.46500
O 	O 	0.38850 0.21654 0.92724 -0.48200
O 	O 	0.38400 0.48700 0.82099 -0.27200
O 	O 	0.31170 0.40840 0.80093 -0.39900
O 	O 	0.24030 0.61893 0.93008 -0.47100
O 	O 	0.14020 0.58465 0.98166 -0.45000
O 	O 	0.00010 0.40700 0.95190 -0.40800
O 	O 	0.06980 0.33914 0.91246 -0.31900
O 	O 	0.02780 0.84268 0.69803 -0.45500
O 	O 	0.89430 0.88599 0.69689 -0.47800
O 	O 	0.67820 0.84033 0.57427 -0.42800
O 	O 	0.72120 0.79918 0.50954 -0.52400
O 	O 	0.01740 0.69767 0.51342 -0.46500
O 	O 	0.11150 0.71654 0.57276 -0.48200
O 	O 	0.11600 0.98700 0.67901 -0.27100
O 	O 	0.18830 0.90840 0.69907 -0.39900
O 	O 	0.25970 0.11893 0.56992 -0.47200
O 	O 	0.35980 0.08465 0.51834 -0.45000
O 	O 	0.49990 0.90700 0.54810 -0.40900
O 	O 	0.43020 0.83914 0.58754 -0.31900
O 	O 	0.52780 0.65732 0.30197 -0.45600
O 	O 	0.39430 0.61401 0.30311 -0.47800
O 	O 	0.17820 0.65967 0.42573 -0.42800
O 	O 	0.22120 0.70082 0.49046 -0.52400
O 	O 	0.51740 0.80233 0.48658 -0.46500
O 	O 	0.61150 0.78346 0.42724 -0.48200
O 	O 	0.61600 0.51300 0.32099 -0.27200
O 	O 	0.68830 0.59160 0.30093 -0.39900
O 	O 	0.75970 0.38107 0.43008 -0.47100
O 	O 	0.85980 0.41535 0.48166 -0.45000
O 	O 	0.99990 0.59300 0.45190 -0.40900
O 	O 	0.93020 0.66086 0.41246 -0.31900
O 	O 	0.02600 0.95509 0.75000 -0.40800
O 	O 	0.52600 0.54491 0.25000 -0.40900
O 	O 	0.97400 0.04491 0.25000 -0.40800
O 	O 	0.47400 0.45509 0.75000 -0.40900
