data_crystal

_cell_length_a 17.54200
_cell_length_b 17.54200
_cell_length_c 17.54200
_cell_angle_alpha 90.00000
_cell_angle_beta  90.00000
_cell_angle_gamma 90.00000

_symmetry_space_group_name_	'P 1'
_symmetry_space_group_name_H-M	'P 1'

loop_
_symmetry_equiv_pos_as_xyz
  x,y,z

loop_
_atom_site_label
_atom_site_type_symbol
_atom_site_fract_x
_atom_site_fract_y
_atom_site_fract_z
_atom_site_charge
N 	N 	0.54160 0.65220 0.19970 -0.20500
H 	H 	0.52800 0.67060 0.24440 0.11200
N 	N 	0.54200 0.57940 0.09840 -0.24400
C 	C 	0.64470 0.74670 0.17280 0.02600
C 	C 	0.62810 0.79220 0.23590 -0.09200
H 	H 	0.58580 0.77990 0.26740 0.05600
C 	C 	0.59790 0.68010 0.15420 0.04300
C 	C 	0.59610 0.63450 0.09190 -0.02200
H 	H 	0.62860 0.64030 0.04900 0.00700
C 	C 	0.51050 0.59150 0.16440 0.11000
H 	H 	0.47050 0.56140 0.18500 -0.02400
N 	N 	0.95840 0.34780 0.69970 -0.22600
H 	H 	0.97200 0.32940 0.74440 0.13600
N 	N 	0.95800 0.42060 0.59840 -0.24200
C 	C 	0.85530 0.25330 0.67280 0.02900
C 	C 	0.87190 0.20780 0.73590 -0.09100
H 	H 	0.91420 0.22010 0.76740 0.06500
C 	C 	0.90210 0.31990 0.65420 0.05400
C 	C 	0.90390 0.36550 0.59190 -0.01700
H 	H 	0.87140 0.35970 0.54900 0.02400
C 	C 	0.98950 0.40850 0.66440 0.22900
H 	H 	0.02950 0.43860 0.68500 -0.09800
N 	N 	0.45840 0.15220 0.30030 -0.20400
H 	H 	0.47200 0.17060 0.25560 0.10300
N 	N 	0.45800 0.07940 0.40160 -0.24700
C 	C 	0.35530 0.24670 0.32720 0.02300
C 	C 	0.37190 0.29220 0.26410 -0.09500
H 	H 	0.41420 0.27990 0.23260 0.05200
C 	C 	0.40210 0.18010 0.34580 0.03900
C 	C 	0.40390 0.13450 0.40810 -0.02500
H 	H 	0.37140 0.14030 0.45100 0.01600
C 	C 	0.48950 0.09150 0.33560 0.10300
H 	H 	0.52950 0.06140 0.31500 -0.04100
N 	N 	0.04160 0.84780 0.80030 -0.18300
H 	H 	0.02800 0.82940 0.75560 0.10100
N 	N 	0.04200 0.92060 0.90160 -0.20300
C 	C 	0.14470 0.75330 0.82720 0.03000
C 	C 	0.12810 0.70780 0.76410 -0.09200
H 	H 	0.08580 0.72010 0.73260 0.05300
C 	C 	0.09790 0.81990 0.84580 0.04700
C 	C 	0.09610 0.86550 0.90810 -0.01600
H 	H 	0.12860 0.85970 0.95100 0.03700
C 	C 	0.01050 0.90850 0.83560 0.01300
H 	H 	0.97050 0.93860 0.81500 0.07200
N 	N 	0.19970 0.54160 0.65220 -0.20400
H 	H 	0.24440 0.52800 0.67060 0.11300
N 	N 	0.09840 0.54200 0.57940 -0.24300
C 	C 	0.17280 0.64470 0.74670 0.02700
C 	C 	0.23590 0.62810 0.79220 -0.09100
H 	H 	0.26740 0.58580 0.77990 0.05700
C 	C 	0.15420 0.59790 0.68010 0.04400
C 	C 	0.09190 0.59610 0.63450 -0.02100
H 	H 	0.04900 0.62860 0.64030 0.00800
C 	C 	0.16440 0.51050 0.59150 0.11100
H 	H 	0.18500 0.47050 0.56140 -0.02300
N 	N 	0.69970 0.95840 0.34780 -0.22500
H 	H 	0.74440 0.97200 0.32940 0.13700
N 	N 	0.59840 0.95800 0.42060 -0.24100
C 	C 	0.67280 0.85530 0.25330 0.03000
C 	C 	0.73590 0.87190 0.20780 -0.09100
H 	H 	0.76740 0.91420 0.22010 0.06500
C 	C 	0.65420 0.90210 0.31990 0.05400
C 	C 	0.59190 0.90390 0.36550 -0.01700
H 	H 	0.54900 0.87140 0.35970 0.02400
C 	C 	0.66440 0.98950 0.40850 0.22900
H 	H 	0.68500 0.02950 0.43860 -0.09800
N 	N 	0.30030 0.45840 0.15220 -0.20400
H 	H 	0.25560 0.47200 0.17060 0.10300
N 	N 	0.40160 0.45800 0.07940 -0.24700
C 	C 	0.32720 0.35530 0.24670 0.02300
C 	C 	0.26410 0.37190 0.29220 -0.09500
H 	H 	0.23260 0.41420 0.27990 0.05200
C 	C 	0.34580 0.40210 0.18010 0.03900
C 	C 	0.40810 0.40390 0.13450 -0.02500
H 	H 	0.45100 0.37140 0.14030 0.01600
C 	C 	0.33560 0.48950 0.09150 0.10300
H 	H 	0.31500 0.52950 0.06140 -0.04100
N 	N 	0.80030 0.04160 0.84780 -0.18300
H 	H 	0.75560 0.02800 0.82940 0.10100
N 	N 	0.90160 0.04200 0.92060 -0.20300
C 	C 	0.82720 0.14470 0.75330 0.03000
C 	C 	0.76410 0.12810 0.70780 -0.09200
H 	H 	0.73260 0.08580 0.72010 0.05300
C 	C 	0.84580 0.09790 0.81990 0.04700
C 	C 	0.90810 0.09610 0.86550 -0.01600
H 	H 	0.95100 0.12860 0.85970 0.03700
C 	C 	0.83560 0.01050 0.90850 0.01300
H 	H 	0.81500 0.97050 0.93860 0.07200
N 	N 	0.65220 0.19970 0.54160 -0.20400
H 	H 	0.67060 0.24440 0.52800 0.11300
N 	N 	0.57940 0.09840 0.54200 -0.24300
C 	C 	0.74670 0.17280 0.64470 0.02700
C 	C 	0.79220 0.23590 0.62810 -0.09100
H 	H 	0.77990 0.26740 0.58580 0.05700
C 	C 	0.68010 0.15420 0.59790 0.04400
C 	C 	0.63450 0.09190 0.59610 -0.02100
H 	H 	0.64030 0.04900 0.62860 0.00800
C 	C 	0.59150 0.16440 0.51050 0.11100
H 	H 	0.56140 0.18500 0.47050 -0.02300
N 	N 	0.34780 0.69970 0.95840 -0.22500
H 	H 	0.32940 0.74440 0.97200 0.13700
N 	N 	0.42060 0.59840 0.95800 -0.24100
C 	C 	0.25330 0.67280 0.85530 0.03000
C 	C 	0.20780 0.73590 0.87190 -0.09100
H 	H 	0.22010 0.76740 0.91420 0.06500
C 	C 	0.31990 0.65420 0.90210 0.05400
C 	C 	0.36550 0.59190 0.90390 -0.01700
H 	H 	0.35970 0.54900 0.87140 0.02400
C 	C 	0.40850 0.66440 0.98950 0.22900
H 	H 	0.43860 0.68500 0.02950 -0.09800
N 	N 	0.15220 0.30030 0.45840 -0.20400
H 	H 	0.17060 0.25560 0.47200 0.10300
N 	N 	0.07940 0.40160 0.45800 -0.24700
C 	C 	0.24670 0.32720 0.35530 0.02300
C 	C 	0.29220 0.26410 0.37190 -0.09500
H 	H 	0.27990 0.23260 0.41420 0.05200
C 	C 	0.18010 0.34580 0.40210 0.03900
C 	C 	0.13450 0.40810 0.40390 -0.02500
H 	H 	0.14030 0.45100 0.37140 0.01600
C 	C 	0.09150 0.33560 0.48950 0.10300
H 	H 	0.06140 0.31500 0.52950 -0.04100
N 	N 	0.84780 0.80030 0.04160 -0.18300
H 	H 	0.82940 0.75560 0.02800 0.10100
N 	N 	0.92060 0.90160 0.04200 -0.20300
C 	C 	0.75330 0.82720 0.14470 0.03000
C 	C 	0.70780 0.76410 0.12810 -0.09200
H 	H 	0.72010 0.73260 0.08580 0.05300
C 	C 	0.81990 0.84580 0.09790 0.04700
C 	C 	0.86550 0.90810 0.09610 -0.01600
H 	H 	0.85970 0.95100 0.12860 0.03700
C 	C 	0.90850 0.83560 0.01050 0.01300
H 	H 	0.93860 0.81500 0.97050 0.07200
N 	N 	0.45840 0.34780 0.80030 -0.20400
H 	H 	0.47200 0.32940 0.75560 0.11400
N 	N 	0.45800 0.42060 0.90160 -0.22500
C 	C 	0.35530 0.25330 0.82720 0.02800
C 	C 	0.37190 0.20780 0.76410 -0.09300
H 	H 	0.41420 0.22010 0.73260 0.05600
C 	C 	0.40210 0.31990 0.84580 0.04800
C 	C 	0.40390 0.36550 0.90810 -0.01900
H 	H 	0.37140 0.35970 0.95100 0.03400
C 	C 	0.48950 0.40850 0.83560 0.11300
H 	H 	0.52950 0.43860 0.81500 -0.01900
N 	N 	0.04160 0.65220 0.30030 -0.18200
H 	H 	0.02800 0.67060 0.25560 0.08900
N 	N 	0.04200 0.57940 0.40160 -0.22700
C 	C 	0.14470 0.74670 0.32720 0.02500
C 	C 	0.12810 0.79220 0.26410 -0.09400
H 	H 	0.08580 0.77990 0.23260 0.04800
C 	C 	0.09790 0.68010 0.34580 0.03800
C 	C 	0.09610 0.63450 0.40810 -0.02200
H 	H 	0.12860 0.64030 0.45100 0.01800
C 	C 	0.01050 0.59150 0.33560 -0.00600
H 	H 	0.97050 0.56140 0.31500 0.05600
N 	N 	0.54160 0.84780 0.69970 -0.20300
H 	H 	0.52800 0.82940 0.74440 0.12400
N 	N 	0.54200 0.92060 0.59840 -0.22200
C 	C 	0.64470 0.75330 0.67280 0.03200
C 	C 	0.62810 0.70780 0.73590 -0.09000
H 	H 	0.58580 0.72010 0.76740 0.06100
C 	C 	0.59790 0.81990 0.65420 0.05200
C 	C 	0.59610 0.86550 0.59190 -0.01500
H 	H 	0.62860 0.85970 0.54900 0.02600
C 	C 	0.51050 0.90850 0.66440 0.12100
H 	H 	0.47050 0.93860 0.68500 -0.00200
N 	N 	0.95840 0.15220 0.19970 -0.22700
H 	H 	0.97200 0.17060 0.24440 0.12700
N 	N 	0.95800 0.07940 0.09840 -0.25900
C 	C 	0.85530 0.24670 0.17280 0.02500
C 	C 	0.87190 0.29220 0.23590 -0.09200
H 	H 	0.91420 0.27990 0.26740 0.06100
C 	C 	0.90210 0.18010 0.15420 0.04600
C 	C 	0.90390 0.13450 0.09190 -0.02400
H 	H 	0.87140 0.14030 0.04900 0.00700
C 	C 	0.98950 0.09150 0.16440 0.22500
H 	H 	0.02950 0.06140 0.18500 -0.12200
N 	N 	0.80030 0.45840 0.34780 -0.20400
H 	H 	0.75560 0.47200 0.32940 0.11400
N 	N 	0.90160 0.45800 0.42060 -0.22500
C 	C 	0.82720 0.35530 0.25330 0.02800
C 	C 	0.76410 0.37190 0.20780 -0.09300
H 	H 	0.73260 0.41420 0.22010 0.05600
C 	C 	0.84580 0.40210 0.31990 0.04800
C 	C 	0.90810 0.40390 0.36550 -0.01900
H 	H 	0.95100 0.37140 0.35970 0.03400
C 	C 	0.83560 0.48950 0.40850 0.11300
H 	H 	0.81500 0.52950 0.43860 -0.01900
N 	N 	0.30030 0.04160 0.65220 -0.18200
H 	H 	0.25560 0.02800 0.67060 0.08900
N 	N 	0.40160 0.04200 0.57940 -0.22700
C 	C 	0.32720 0.14470 0.74670 0.02500
C 	C 	0.26410 0.12810 0.79220 -0.09400
H 	H 	0.23260 0.08580 0.77990 0.04800
C 	C 	0.34580 0.09790 0.68010 0.03800
C 	C 	0.40810 0.09610 0.63450 -0.02200
H 	H 	0.45100 0.12860 0.64030 0.01800
C 	C 	0.33560 0.01050 0.59150 -0.00600
H 	H 	0.31500 0.97050 0.56140 0.05600
N 	N 	0.69970 0.54160 0.84780 -0.20300
H 	H 	0.74440 0.52800 0.82940 0.12400
N 	N 	0.59840 0.54200 0.92060 -0.22200
C 	C 	0.67280 0.64470 0.75330 0.03200
C 	C 	0.73590 0.62810 0.70780 -0.09000
H 	H 	0.76740 0.58580 0.72010 0.06100
C 	C 	0.65420 0.59790 0.81990 0.05200
C 	C 	0.59190 0.59610 0.86550 -0.01500
H 	H 	0.54900 0.62860 0.85970 0.02600
C 	C 	0.66440 0.51050 0.90850 0.12100
H 	H 	0.68500 0.47050 0.93860 -0.00200
N 	N 	0.19970 0.95840 0.15220 -0.22700
H 	H 	0.24440 0.97200 0.17060 0.12700
N 	N 	0.09840 0.95800 0.07940 -0.25900
C 	C 	0.17280 0.85530 0.24670 0.02500
C 	C 	0.23590 0.87190 0.29220 -0.09200
H 	H 	0.26740 0.91420 0.27990 0.06100
C 	C 	0.15420 0.90210 0.18010 0.04600
C 	C 	0.09190 0.90390 0.13450 -0.02400
H 	H 	0.04900 0.87140 0.14030 0.00700
C 	C 	0.16440 0.98950 0.09150 0.22500
H 	H 	0.18500 0.02950 0.06140 -0.12200
N 	N 	0.34780 0.80030 0.45840 -0.20400
H 	H 	0.32940 0.75560 0.47200 0.11400
N 	N 	0.42060 0.90160 0.45800 -0.22500
C 	C 	0.25330 0.82720 0.35530 0.02800
C 	C 	0.20780 0.76410 0.37190 -0.09300
H 	H 	0.22010 0.73260 0.41420 0.05600
C 	C 	0.31990 0.84580 0.40210 0.04800
C 	C 	0.36550 0.90810 0.40390 -0.01900
H 	H 	0.35970 0.95100 0.37140 0.03400
C 	C 	0.40850 0.83560 0.48950 0.11300
H 	H 	0.43860 0.81500 0.52950 -0.01900
N 	N 	0.65220 0.30030 0.04160 -0.18200
H 	H 	0.67060 0.25560 0.02800 0.08900
N 	N 	0.57940 0.40160 0.04200 -0.22700
C 	C 	0.74670 0.32720 0.14470 0.02500
C 	C 	0.79220 0.26410 0.12810 -0.09400
H 	H 	0.77990 0.23260 0.08580 0.04800
C 	C 	0.68010 0.34580 0.09790 0.03800
C 	C 	0.63450 0.40810 0.09610 -0.02200
H 	H 	0.64030 0.45100 0.12860 0.01800
C 	C 	0.59150 0.33560 0.01050 -0.00600
H 	H 	0.56140 0.31500 0.97050 0.05600
N 	N 	0.84780 0.69970 0.54160 -0.20300
H 	H 	0.82940 0.74440 0.52800 0.12400
N 	N 	0.92060 0.59840 0.54200 -0.22200
C 	C 	0.75330 0.67280 0.64470 0.03200
C 	C 	0.70780 0.73590 0.62810 -0.09000
H 	H 	0.72010 0.76740 0.58580 0.06100
C 	C 	0.81990 0.65420 0.59790 0.05200
C 	C 	0.86550 0.59190 0.59610 -0.01500
H 	H 	0.85970 0.54900 0.62860 0.02600
C 	C 	0.90850 0.66440 0.51050 0.12100
H 	H 	0.93860 0.68500 0.47050 -0.00200
N 	N 	0.15220 0.19970 0.95840 -0.22700
H 	H 	0.17060 0.24440 0.97200 0.12700
N 	N 	0.07940 0.09840 0.95800 -0.25900
C 	C 	0.24670 0.17280 0.85530 0.02500
C 	C 	0.29220 0.23590 0.87190 -0.09200
H 	H 	0.27990 0.26740 0.91420 0.06100
C 	C 	0.18010 0.15420 0.90210 0.04600
C 	C 	0.13450 0.09190 0.90390 -0.02400
H 	H 	0.14030 0.04900 0.87140 0.00700
C 	C 	0.09150 0.16440 0.98950 0.22500
H 	H 	0.06140 0.18500 0.02950 -0.12200
Cd	Cd	0.50000 0.50000 -0.00000 1.17200
Cd	Cd	0.00000 0.50000 0.50000 1.17200
Cd	Cd	0.50000 0.00000 0.50000 1.17200
Cd	Cd	-0.00000 0.00000 -0.00000 1.13400
