data_crystal

_cell_length_a 11.37480
_cell_length_b 23.71110
_cell_length_c 22.08420
_cell_angle_alpha 90.00000
_cell_angle_beta  90.00000
_cell_angle_gamma 90.00000

_symmetry_space_group_name_	'P 1'
_symmetry_space_group_name_H-M	'P 1'

loop_
_symmetry_equiv_pos_as_xyz
  x,y,z

loop_
_atom_site_label
_atom_site_type_symbol
_atom_site_fract_x
_atom_site_fract_y
_atom_site_fract_z
_atom_site_charge
Mg	Mg	0.71110 0.94058 0.00243 1.45300
Mg	Mg	0.28890 0.05942 0.99757 1.45900
Mg	Mg	-0.00000 0.00000 -0.00000 1.46300
Mg	Mg	0.28890 0.44058 0.49757 1.45600
Mg	Mg	0.78890 0.55942 0.00243 1.44900
Mg	Mg	0.21110 0.05942 0.49757 1.45200
Mg	Mg	-0.00000 0.50000 0.50000 1.47600
Mg	Mg	0.78890 0.94058 0.50243 1.46200
Mg	Mg	0.21110 0.44058 0.99757 1.46400
Mg	Mg	0.71110 0.55942 0.50243 1.45700
Mg	Mg	0.50000 0.00000 0.50000 1.47200
Mg	Mg	0.50000 0.50000 -0.00000 1.47200
H 	H 	0.11480 0.61640 0.36980 -0.00800
H 	H 	0.69230 0.69690 0.88470 -0.03500
H 	H 	0.86310 0.12410 0.74950 0.18600
H 	H 	0.93890 0.43360 0.32480 -0.06200
H 	H 	0.09630 0.58330 0.12630 -0.05500
H 	H 	0.06110 0.93360 0.17520 0.01300
H 	H 	0.89860 0.17180 0.32940 0.15700
H 	H 	0.62450 0.76780 0.82190 0.15500
H 	H 	0.31860 0.68530 0.80470 0.17600
H 	H 	0.06110 0.56640 0.67520 0.00500
H 	H 	0.90730 0.75510 0.20440 0.11400
H 	H 	0.18140 0.68530 0.30470 0.14300
H 	H 	0.40730 0.24490 0.29560 0.15100
H 	H 	0.59270 0.75510 0.70440 0.14800
H 	H 	0.68140 0.31470 0.19530 0.18000
H 	H 	0.43890 0.93360 0.67520 -0.01600
H 	H 	0.87210 0.12330 0.97760 0.00100
H 	H 	0.62170 0.28770 0.93210 0.15100
H 	H 	0.40730 0.25510 0.79560 0.14800
H 	H 	0.09270 0.25510 0.29560 0.18200
H 	H 	0.81860 0.18530 0.19530 0.21300
H 	H 	0.38520 0.61640 0.86980 -0.03300
H 	H 	0.37830 0.78770 0.56790 0.14400
H 	H 	0.87830 0.21230 0.93210 0.16000
H 	H 	0.89860 0.32820 0.82940 0.15500
H 	H 	0.40370 0.91670 0.12630 -0.03800
H 	H 	0.59630 0.08330 0.87370 -0.04700
H 	H 	0.93890 0.06640 0.82480 -0.07600
H 	H 	0.37550 0.26780 0.67810 0.15600
H 	H 	0.62790 0.37670 0.97760 -0.00400
H 	H 	0.11480 0.88360 0.86980 0.01500
H 	H 	0.19230 0.30310 0.61530 -0.08200
H 	H 	0.12170 0.71230 0.56790 0.14100
H 	H 	0.62790 0.12330 0.47760 -0.03000
H 	H 	0.12450 0.23220 0.67810 0.19000
H 	H 	0.60140 0.32820 0.32940 0.15300
H 	H 	0.09270 0.24490 0.79560 0.18900
H 	H 	0.32920 0.18620 0.36840 -0.05000
H 	H 	0.10140 0.82820 0.67060 0.14800
H 	H 	0.61480 0.11640 0.63020 -0.05100
H 	H 	0.59630 0.41670 0.37370 -0.04200
H 	H 	0.19230 0.19690 0.11530 -0.09200
H 	H 	0.37550 0.23220 0.17810 0.15300
H 	H 	0.36310 0.62410 0.25050 0.15200
H 	H 	0.62450 0.73220 0.32190 0.15200
H 	H 	0.87550 0.73220 0.82190 0.11300
H 	H 	0.87830 0.28770 0.43210 0.15100
H 	H 	0.13690 0.62410 0.75050 0.11600
H 	H 	0.37210 0.62330 0.02240 -0.04900
H 	H 	0.17080 0.18620 0.86840 -0.07700
H 	H 	0.69230 0.80310 0.38470 -0.04100
H 	H 	0.30770 0.19690 0.61530 -0.05300
H 	H 	0.80770 0.80310 0.88470 0.00100
H 	H 	0.68140 0.18530 0.69530 0.17900
H 	H 	0.17080 0.31380 0.36840 -0.07800
H 	H 	0.32920 0.31380 0.86840 -0.04000
H 	H 	0.67080 0.81380 0.63160 -0.03900
H 	H 	0.37830 0.71230 0.06790 0.14100
H 	H 	0.37210 0.87670 0.52240 -0.02400
H 	H 	0.86310 0.37590 0.24950 0.18500
H 	H 	0.18140 0.81470 0.80470 0.13900
H 	H 	0.63690 0.37590 0.74950 0.15200
H 	H 	0.61480 0.38360 0.13020 -0.05100
H 	H 	0.67080 0.68620 0.13160 -0.04900
H 	H 	0.39860 0.67180 0.67060 0.15300
H 	H 	0.10140 0.67180 0.17060 0.15100
H 	H 	0.82920 0.81380 0.13160 -0.01600
H 	H 	0.12170 0.78770 0.06790 0.13300
H 	H 	0.87550 0.76780 0.32190 0.12100
H 	H 	0.81860 0.31470 0.69530 0.21600
H 	H 	0.40370 0.58330 0.62630 -0.04300
H 	H 	0.90730 0.74490 0.70440 0.11300
H 	H 	0.62170 0.21230 0.43210 0.14800
H 	H 	0.82920 0.68620 0.63160 -0.00700
H 	H 	0.56110 0.43360 0.82480 -0.02800
H 	H 	0.90370 0.08330 0.37370 -0.04800
H 	H 	0.09630 0.91670 0.62630 -0.03700
H 	H 	0.13690 0.87590 0.25050 0.12400
H 	H 	0.12790 0.62330 0.52240 -0.03600
H 	H 	0.88520 0.11640 0.13020 -0.09500
H 	H 	0.30770 0.30310 0.11530 -0.05900
H 	H 	0.90370 0.41670 0.87370 -0.02900
H 	H 	0.87210 0.37670 0.47760 -0.01800
H 	H 	0.36310 0.87590 0.75050 0.15800
H 	H 	0.59270 0.74490 0.20440 0.15000
H 	H 	0.43890 0.56640 0.17520 -0.03100
H 	H 	0.39860 0.82820 0.17060 0.15500
H 	H 	0.88520 0.38360 0.63020 -0.07800
H 	H 	0.31860 0.81470 0.30470 0.17700
H 	H 	0.56110 0.06640 0.32480 -0.04300
H 	H 	0.38520 0.88360 0.36980 -0.03300
H 	H 	0.80770 0.69690 0.38470 -0.01500
H 	H 	0.12790 0.87670 0.02240 -0.05200
H 	H 	0.12450 0.26780 0.17810 0.19200
H 	H 	0.63690 0.12410 0.24950 0.14700
H 	H 	0.60140 0.17180 0.82940 0.15100
C 	C 	0.93800 0.70890 0.69880 -0.21400
C 	C 	0.67810 0.18613 0.42030 -0.32500
C 	C 	0.23170 0.53608 0.04546 0.42200
C 	C 	0.65360 0.39088 0.38540 0.19400
C 	C 	0.81840 0.36732 0.44750 0.19400
C 	C 	0.15620 0.66190 0.14120 -0.33900
C 	C 	0.60770 0.82610 0.65480 0.21700
C 	C 	0.07650 0.26270 0.66840 -0.49000
C 	C 	0.88370 0.80509 0.86940 0.12200
C 	C 	0.97000 0.39772 0.31900 0.33100
C 	C 	0.56140 0.62077 0.14480 -0.27100
C 	C 	0.60500 0.58419 0.09340 0.49200
C 	C 	0.42420 0.86320 0.72600 -0.31400
C 	C 	0.57650 0.73730 0.83160 -0.34700
C 	C 	0.89320 0.18810 0.17840 -0.47000
C 	C 	0.43860 0.37923 0.85520 -0.26300
C 	C 	0.84640 0.10912 0.38540 0.20300
C 	C 	0.75810 0.19938 0.37670 0.33400
C 	C 	0.93370 0.35332 0.63980 0.36200
C 	C 	0.58770 0.60427 0.92730 0.49400
C 	C 	0.23460 0.59408 0.07082 -0.27800
C 	C 	0.43800 0.29110 0.80120 -0.34500
C 	C 	0.34380 0.83810 0.14120 -0.32900
C 	C 	0.02980 0.69010 0.73420 0.23300
C 	C 	0.38370 0.30509 0.13060 0.23600
C 	C 	0.82190 0.31387 0.42030 -0.31700
C 	C 	0.75810 0.30062 0.87670 0.32500
C 	C 	0.03620 0.76650 0.80840 0.23300
C 	C 	0.45460 0.14939 0.61503 -0.29300
C 	C 	0.60680 0.31190 0.17840 -0.37000
C 	C 	0.06200 0.20890 0.80120 -0.48600
C 	C 	0.53620 0.26650 0.19160 0.35700
C 	C 	0.76830 0.46392 0.95454 0.40600
C 	C 	0.26540 0.59408 0.57082 -0.26100
C 	C 	0.60680 0.18810 0.67840 -0.36600
C 	C 	0.74190 0.30062 0.37670 0.32900
C 	C 	0.39500 0.41581 0.90660 0.48900
C 	C 	0.43860 0.12077 0.35520 -0.28000
C 	C 	0.31840 0.63268 0.05250 0.20400
C 	C 	0.45460 0.35061 0.11503 -0.29900
C 	C 	0.43370 0.85332 0.36020 0.22900
C 	C 	0.47020 0.80990 0.73420 0.34400
C 	C 	0.92350 0.76270 0.83160 -0.21200
C 	C 	0.67810 0.31387 0.92030 -0.30500
C 	C 	0.89320 0.31190 0.67840 -0.46100
C 	C 	0.76540 0.40592 0.92918 -0.23400
C 	C 	0.84380 0.33810 0.85880 -0.31200
C 	C 	0.34640 0.60912 0.61460 0.19700
C 	C 	0.56630 0.14668 0.63980 0.24200
C 	C 	0.53000 0.39772 0.81900 0.21000
C 	C 	0.43370 0.64668 0.86020 0.22900
C 	C 	0.68160 0.36732 0.94750 0.18600
C 	C 	0.04540 0.14939 0.11503 -0.40400
C 	C 	0.42350 0.26270 0.16840 -0.37200
C 	C 	0.39320 0.68810 0.82160 -0.34600
C 	C 	0.53000 0.10228 0.31900 0.21800
C 	C 	0.93860 0.62077 0.64480 -0.16100
C 	C 	0.97000 0.10228 0.81900 0.34300
C 	C 	0.23170 0.96392 0.54546 0.40700
C 	C 	0.10500 0.41581 0.40660 0.52200
C 	C 	0.76540 0.09408 0.42918 -0.26700
C 	C 	0.57580 0.13680 0.27400 -0.33300
C 	C 	0.04540 0.35061 0.61503 -0.38700
C 	C 	0.26830 0.96392 0.04546 0.41300
C 	C 	0.08770 0.39573 0.57270 0.53400
C 	C 	0.73460 0.09408 0.92918 -0.24700
C 	C 	0.06140 0.12077 0.85520 -0.38000
C 	C 	0.10500 0.08419 0.90660 0.52600
C 	C 	0.24190 0.69938 0.12330 0.33200
C 	C 	0.32190 0.68613 0.07970 -0.33500
C 	C 	0.58770 0.89573 0.42730 0.49600
C 	C 	0.46380 0.73350 0.80840 0.35000
C 	C 	0.92420 0.13680 0.77400 -0.43000
C 	C 	0.06140 0.37923 0.35520 -0.36600
C 	C 	0.56140 0.87923 0.64480 -0.25400
C 	C 	0.84640 0.39088 0.88540 0.18800
C 	C 	0.18160 0.63268 0.55250 0.19600
C 	C 	0.74190 0.19938 0.87670 0.32900
C 	C 	0.34380 0.66190 0.64120 -0.32700
C 	C 	0.26540 0.90592 0.07082 -0.26400
C 	C 	0.17810 0.81387 0.07970 -0.32900
C 	C 	0.60500 0.91581 0.59340 0.48600
C 	C 	0.24190 0.80062 0.62330 0.32300
C 	C 	0.47020 0.69010 0.23420 0.34800
C 	C 	0.31840 0.86732 0.55250 0.18800
C 	C 	0.54540 0.85061 0.38497 -0.27000
C 	C 	0.73170 0.03608 0.95454 0.41300
C 	C 	0.97020 0.30990 0.26580 0.45100
C 	C 	0.07650 0.23730 0.16840 -0.49500
C 	C 	0.07580 0.86320 0.22600 -0.23000
C 	C 	0.91230 0.89573 0.92730 0.45700
C 	C 	0.65620 0.33810 0.35880 -0.32500
C 	C 	0.03620 0.73350 0.30840 0.25000
C 	C 	0.18160 0.86732 0.05250 0.19600
C 	C 	0.61630 0.69491 0.86940 0.22300
C 	C 	0.53620 0.23350 0.69160 0.35800
C 	C 	0.56200 0.79110 0.69880 -0.34000
C 	C 	0.03000 0.89772 0.18100 0.10200
C 	C 	0.06200 0.29110 0.30120 -0.47200
C 	C 	0.54540 0.64939 0.88497 -0.26300
C 	C 	0.06630 0.85332 0.86020 0.09600
C 	C 	0.47000 0.89772 0.68100 0.20900
C 	C 	0.03000 0.60228 0.68100 0.08800
C 	C 	0.11630 0.30509 0.63060 0.32600
C 	C 	0.57580 0.36320 0.77400 -0.32200
C 	C 	0.17810 0.68613 0.57970 -0.32400
C 	C 	0.56630 0.35332 0.13980 0.24200
C 	C 	0.41230 0.39573 0.07270 0.50600
C 	C 	0.76830 0.03608 0.45454 0.42000
C 	C 	0.34640 0.89088 0.11460 0.19700
C 	C 	0.57650 0.76270 0.33160 -0.35300
C 	C 	0.95460 0.85061 0.88497 -0.14800
C 	C 	0.15360 0.60912 0.11460 0.20400
C 	C 	0.61630 0.80509 0.36940 0.22400
C 	C 	0.73170 0.46392 0.45454 0.41400
C 	C 	0.88370 0.69491 0.36940 0.14000
C 	C 	0.32190 0.81387 0.57970 -0.31500
C 	C 	0.96380 0.23350 0.19160 0.46400
C 	C 	0.10680 0.68810 0.32160 -0.26200
C 	C 	0.38370 0.19491 0.63060 0.23600
C 	C 	0.39500 0.08419 0.40660 0.49500
C 	C 	0.39230 0.17390 0.34520 0.22800
C 	C 	0.08770 0.10427 0.07270 0.53900
C 	C 	0.92350 0.73730 0.33160 -0.23900
C 	C 	0.68160 0.13268 0.44750 0.20200
C 	C 	0.10770 0.32610 0.34520 0.31500
C 	C 	0.89500 0.91581 0.09340 0.45900
C 	C 	0.42420 0.63680 0.22600 -0.32500
C 	C 	0.25810 0.80062 0.12330 0.32800
C 	C 	0.97020 0.19010 0.76580 0.46100
C 	C 	0.11630 0.19491 0.13060 0.32900
C 	C 	0.81840 0.13268 0.94750 0.19300
C 	C 	0.43800 0.20890 0.30120 -0.35500
C 	C 	0.41230 0.10427 0.57270 0.50400
C 	C 	0.52980 0.19010 0.26580 0.34900
C 	C 	0.92420 0.36320 0.27400 -0.41700
C 	C 	0.06630 0.64668 0.36020 0.11600
C 	C 	0.95460 0.64939 0.38497 -0.18200
C 	C 	0.96380 0.26650 0.69160 0.46600
C 	C 	0.26830 0.53608 0.54546 0.41400
C 	C 	0.89500 0.58419 0.59340 0.45700
C 	C 	0.52980 0.30990 0.76580 0.34400
C 	C 	0.93860 0.87923 0.14480 -0.16900
C 	C 	0.65620 0.16190 0.85880 -0.32200
C 	C 	0.93370 0.14668 0.13980 0.36300
C 	C 	0.39230 0.32610 0.84520 0.22000
C 	C 	0.56200 0.70890 0.19880 -0.35100
C 	C 	0.91230 0.60427 0.42730 0.46800
C 	C 	0.07580 0.63680 0.72600 -0.22300
C 	C 	0.65360 0.10912 0.88540 0.19300
C 	C 	0.89230 0.82610 0.15480 0.13300
C 	C 	0.89230 0.67390 0.65480 0.12400
C 	C 	0.60770 0.67390 0.15480 0.22600
C 	C 	0.84380 0.16190 0.35880 -0.33200
C 	C 	0.25810 0.69938 0.62330 0.32800
C 	C 	0.15620 0.83810 0.64120 -0.32000
C 	C 	0.10770 0.17390 0.84520 0.32500
C 	C 	0.46380 0.76650 0.30840 0.35000
C 	C 	0.10680 0.81190 0.82160 -0.23500
C 	C 	0.02980 0.80990 0.23420 0.24500
C 	C 	0.82190 0.18613 0.92030 -0.30900
C 	C 	0.93800 0.79110 0.19880 -0.22800
C 	C 	0.47000 0.60228 0.18100 0.21600
C 	C 	0.23460 0.90592 0.57082 -0.24600
C 	C 	0.39320 0.81190 0.32160 -0.35000
C 	C 	0.73460 0.40592 0.42918 -0.25300
C 	C 	0.42350 0.23730 0.66840 -0.36600
C 	C 	0.15360 0.89088 0.61460 0.18800
O 	O 	0.98760 0.57158 0.44825 -0.49000
O 	O 	0.58900 0.27693 0.72397 -0.33400
O 	O 	0.14630 0.50442 0.05747 -0.54900
O 	O 	0.58900 0.22307 0.22397 -0.34000
O 	O 	0.25000 0.75000 0.65580 -0.30800
O 	O 	0.81400 0.01786 0.98837 -0.59700
O 	O 	0.95950 0.54413 0.57717 -0.49400
O 	O 	0.64630 0.00442 0.94253 -0.53300
O 	O 	0.41100 0.72307 0.27603 -0.33200
O 	O 	0.54050 0.54413 0.07717 -0.53500
O 	O 	0.45950 0.04413 0.42283 -0.54400
O 	O 	0.30360 0.10331 0.56102 -0.57400
O 	O 	0.31400 0.98214 0.51163 -0.57700
O 	O 	0.04050 0.45587 0.42283 -0.54200
O 	O 	0.79790 0.59725 0.57057 -0.57000
O 	O 	0.45950 0.45587 0.92283 -0.50000
O 	O 	0.25000 0.75000 0.15580 -0.31100
O 	O 	0.75000 0.25000 0.84420 -0.30500
O 	O 	0.48760 0.42842 0.05175 -0.54400
O 	O 	0.64630 0.49558 0.44253 -0.52000
O 	O 	0.80360 0.89669 0.93898 -0.50000
O 	O 	0.48760 0.07158 0.55175 -0.53600
O 	O 	0.29790 0.40275 0.92943 -0.56100
O 	O 	0.98760 0.92842 0.94825 -0.43700
O 	O 	0.80360 0.60331 0.43898 -0.54200
O 	O 	0.04050 0.04413 0.92283 -0.55000
O 	O 	0.31400 0.51786 0.01163 -0.64100
O 	O 	0.79790 0.90275 0.07057 -0.58200
O 	O 	0.68600 0.48214 0.98837 -0.57200
O 	O 	0.29790 0.09725 0.42943 -0.60000
O 	O 	0.20210 0.09725 0.92943 -0.58100
O 	O 	0.91100 0.27693 0.22397 -0.37900
O 	O 	0.68600 0.01786 0.48837 -0.63800
O 	O 	0.85370 0.00442 0.44253 -0.54600
O 	O 	0.30360 0.39669 0.06102 -0.57700
O 	O 	0.54050 0.95587 0.57717 -0.49100
O 	O 	0.01240 0.07158 0.05175 -0.58600
O 	O 	0.35370 0.99558 0.05747 -0.50600
O 	O 	0.20210 0.40275 0.42943 -0.59000
O 	O 	0.69640 0.89669 0.43898 -0.53000
O 	O 	0.51240 0.92842 0.44825 -0.49400
O 	O 	0.08900 0.72307 0.77603 -0.28400
O 	O 	0.51240 0.57158 0.94825 -0.48500
O 	O 	0.70210 0.59725 0.07057 -0.60100
O 	O 	0.70210 0.90275 0.57057 -0.56200
O 	O 	0.41100 0.77693 0.77603 -0.32700
O 	O 	0.01240 0.42842 0.55175 -0.54100
O 	O 	0.08900 0.77693 0.27603 -0.29100
O 	O 	0.95950 0.95587 0.07717 -0.48800
O 	O 	0.85370 0.49558 0.94253 -0.49000
O 	O 	0.19640 0.39669 0.56102 -0.56200
O 	O 	0.18600 0.51786 0.51163 -0.61600
O 	O 	0.69640 0.60331 0.93898 -0.52400
O 	O 	0.81400 0.48214 0.48837 -0.60100
O 	O 	0.91100 0.22307 0.72397 -0.38000
O 	O 	0.35370 0.50442 0.55747 -0.52100
O 	O 	0.18600 0.98214 0.01163 -0.61200
O 	O 	0.19640 0.10331 0.06102 -0.60000
O 	O 	0.75000 0.25000 0.34420 -0.30800
O 	O 	0.14630 0.99558 0.55747 -0.49400
