data_crystal

_cell_length_a 9.23800
_cell_length_b 12.26800
_cell_length_c 18.09800
_cell_angle_alpha 90.00000
_cell_angle_beta  91.41000
_cell_angle_gamma 90.00000

_symmetry_space_group_name_	'P 1'
_symmetry_space_group_name_H-M	'P 1'

loop_
_symmetry_equiv_pos_as_xyz
  x,y,z

loop_
_atom_site_label
_atom_site_type_symbol
_atom_site_fract_x
_atom_site_fract_y
_atom_site_fract_z
_atom_site_charge
Ag	Ag	0.62558 0.43759 0.50856 0.48800
Ag	Ag	0.85970 0.37105 0.25409 0.44300
Ag	Ag	0.91630 0.41383 0.76005 0.44800
Cu	Cu	0.14870 0.21210 0.51504 0.85800
C 	C 	0.44080 0.35080 0.50590 -0.16800
N 	N 	0.34340 0.29280 0.50600 -0.20200
C 	C 	0.96430 0.16810 0.65830 -0.16600
N 	N 	0.02460 0.18640 0.60610 -0.20300
C 	C 	0.80500 0.42120 0.35850 -0.16300
N 	N 	0.76440 0.44080 0.41620 -0.17700
C 	C 	0.00630 0.13500 0.36090 -0.14000
N 	N 	0.06010 0.16010 0.41440 -0.20200
C 	C 	0.82130 0.45180 0.66090 -0.16800
N 	N 	0.76680 0.46070 0.60300 -0.17700
N 	N 	0.05260 0.35470 0.50150 -0.42700
H 	H 	0.97640 0.34730 0.47080 0.11100
H 	H 	0.11470 0.40200 0.48260 0.10800
H 	H 	0.02340 0.37910 0.54500 0.10800
N 	N 	0.24950 0.07030 0.53460 -0.27400
C 	C 	0.24590 0.98430 0.49300 0.14700
H 	H 	0.19200 0.98800 0.44900 -0.05400
C 	C 	0.31480 0.88970 0.50890 -0.26000
H 	H 	0.30740 0.83140 0.47620 0.08600
C 	C 	0.39010 0.88020 0.56880 0.15100
H 	H 	0.44260 0.81690 0.57860 -0.05500
C 	C 	0.39240 0.96710 0.61990 -0.24700
H 	H 	0.43750 0.96200 0.66630 0.06800
C 	C 	0.32240 0.06010 0.59570 0.13100
H 	H 	0.32850 0.12100 0.62620 -0.06800
Ag	Ag	0.37442 0.93759 0.99144 0.48800
Ag	Ag	0.14030 0.87105 0.24591 0.44400
Ag	Ag	0.08370 0.91383 0.73995 0.44800
Cu	Cu	0.85130 0.71210 0.98496 0.85900
C 	C 	0.55920 0.85080 0.99410 -0.16700
N 	N 	0.65660 0.79280 0.99400 -0.20100
C 	C 	0.03570 0.66810 0.84170 -0.16500
N 	N 	0.97540 0.68640 0.89390 -0.20300
C 	C 	0.19500 0.92120 0.14150 -0.16400
N 	N 	0.23560 0.94080 0.08380 -0.17700
C 	C 	0.99370 0.63500 0.13910 -0.14100
N 	N 	0.93990 0.66010 0.08560 -0.20200
C 	C 	0.17870 0.95180 0.83910 -0.16900
N 	N 	0.23320 0.96070 0.89700 -0.17700
N 	N 	0.94740 0.85470 0.99850 -0.42700
H 	H 	0.02360 0.84730 0.02920 0.11100
H 	H 	0.88530 0.90200 0.01740 0.10900
H 	H 	0.97660 0.87910 0.95500 0.10900
N 	N 	0.75050 0.57030 0.96540 -0.27400
C 	C 	0.75410 0.48430 0.00700 0.14600
H 	H 	0.80800 0.48800 0.05100 -0.05300
C 	C 	0.68520 0.38970 0.99110 -0.25600
H 	H 	0.69260 0.33140 0.02380 0.08500
C 	C 	0.60990 0.38020 0.93120 0.14700
H 	H 	0.55740 0.31690 0.92140 -0.05400
C 	C 	0.60760 0.46710 0.88010 -0.24200
H 	H 	0.56250 0.46200 0.83370 0.06700
C 	C 	0.67760 0.56010 0.90430 0.12700
H 	H 	0.67150 0.62100 0.87380 -0.06700
Ag	Ag	0.37442 0.56241 0.49144 0.48900
Ag	Ag	0.14030 0.62895 0.74591 0.44400
Ag	Ag	0.08370 0.58617 0.23995 0.44900
Cu	Cu	0.85130 0.78790 0.48496 0.85900
C 	C 	0.55920 0.64920 0.49410 -0.16700
N 	N 	0.65660 0.70720 0.49400 -0.20100
C 	C 	0.03570 0.83190 0.34170 -0.16600
N 	N 	0.97540 0.81360 0.39390 -0.20300
C 	C 	0.19500 0.57880 0.64150 -0.16300
N 	N 	0.23560 0.55920 0.58380 -0.17700
C 	C 	0.99370 0.86500 0.63910 -0.14000
N 	N 	0.93990 0.83990 0.58560 -0.20200
C 	C 	0.17870 0.54820 0.33910 -0.16800
N 	N 	0.23320 0.53930 0.39700 -0.17700
N 	N 	0.94740 0.64530 0.49850 -0.42700
H 	H 	0.02360 0.65270 0.52920 0.11100
H 	H 	0.88530 0.59800 0.51740 0.10800
H 	H 	0.97660 0.62090 0.45500 0.10800
N 	N 	0.75050 0.92970 0.46540 -0.27400
C 	C 	0.75410 0.01570 0.50700 0.14700
H 	H 	0.80800 0.01200 0.55100 -0.05400
C 	C 	0.68520 0.11030 0.49110 -0.26000
H 	H 	0.69260 0.16860 0.52380 0.08600
C 	C 	0.60990 0.11980 0.43120 0.15100
H 	H 	0.55740 0.18310 0.42140 -0.05500
C 	C 	0.60760 0.03290 0.38010 -0.24700
H 	H 	0.56250 0.03800 0.33370 0.06800
C 	C 	0.67760 0.93990 0.40430 0.13100
H 	H 	0.67150 0.87900 0.37380 -0.06800
Ag	Ag	0.62558 0.06241 0.00856 0.48800
Ag	Ag	0.85970 0.12895 0.75409 0.44400
Ag	Ag	0.91630 0.08617 0.26005 0.44800
Cu	Cu	0.14870 0.28790 0.01504 0.85900
C 	C 	0.44080 0.14920 0.00590 -0.16700
N 	N 	0.34340 0.20720 0.00600 -0.20100
C 	C 	0.96430 0.33190 0.15830 -0.16500
N 	N 	0.02460 0.31360 0.10610 -0.20300
C 	C 	0.80500 0.07880 0.85850 -0.16400
N 	N 	0.76440 0.05920 0.91620 -0.17700
C 	C 	0.00630 0.36500 0.86090 -0.14100
N 	N 	0.06010 0.33990 0.91440 -0.20200
C 	C 	0.82130 0.04820 0.16090 -0.16900
N 	N 	0.76680 0.03930 0.10300 -0.17700
N 	N 	0.05260 0.14530 0.00150 -0.42700
H 	H 	0.97640 0.15270 0.97080 0.11100
H 	H 	0.11470 0.09800 0.98260 0.10900
H 	H 	0.02340 0.12090 0.04500 0.10900
N 	N 	0.24950 0.42970 0.03460 -0.27400
C 	C 	0.24590 0.51570 0.99300 0.14600
H 	H 	0.19200 0.51200 0.94900 -0.05300
C 	C 	0.31480 0.61030 0.00890 -0.25600
H 	H 	0.30740 0.66860 0.97620 0.08500
C 	C 	0.39010 0.61980 0.06880 0.14700
H 	H 	0.44260 0.68310 0.07860 -0.05400
C 	C 	0.39240 0.53290 0.11990 -0.24200
H 	H 	0.43750 0.53800 0.16630 0.06700
C 	C 	0.32240 0.43990 0.09570 0.12700
H 	H 	0.32850 0.37900 0.12620 -0.06700
