data_crystal

_cell_length_a 9.01400
_cell_length_b 12.27300
_cell_length_c 17.83500
_cell_angle_alpha 90.00000
_cell_angle_beta  91.02000
_cell_angle_gamma 90.00000

_symmetry_space_group_name_	'P 1'
_symmetry_space_group_name_H-M	'P 1'

loop_
_symmetry_equiv_pos_as_xyz
  x,y,z

loop_
_atom_site_label
_atom_site_type_symbol
_atom_site_fract_x
_atom_site_fract_y
_atom_site_fract_z
_atom_site_charge
Cu	Cu	0.62438 0.05625 0.00674 0.79100
Ag	Ag	0.91234 0.08159 0.25736 0.44700
Ag	Ag	0.85461 0.12647 0.75522 0.44300
C 	C 	0.80110 0.07460 0.85990 -0.16000
N 	N 	0.75050 0.05850 0.91630 -0.23400
C 	C 	0.81320 0.04660 0.15520 -0.15900
N 	N 	0.75100 0.03900 0.09850 -0.23700
Cu	Cu	0.15129 0.28689 0.01479 0.85400
C 	C 	0.00390 0.36600 0.85810 -0.14800
N 	N 	0.05890 0.33920 0.91320 -0.20300
N 	N 	0.02760 0.31370 0.10790 -0.20500
C 	C 	0.96350 0.33400 0.15990 -0.17200
N 	N 	0.34900 0.20380 0.00750 -0.17400
C 	C 	0.44490 0.14150 0.00690 -0.32100
N 	N 	0.25500 0.42930 0.03550 -0.24500
C 	C 	0.24660 0.51680 0.99160 0.07500
H 	H 	0.19250 0.51250 0.94690 -0.02900
C 	C 	0.31570 0.61380 0.01030 -0.15700
H 	H 	0.30790 0.67370 0.97850 0.04300
C 	C 	0.39520 0.62060 0.07560 0.06000
H 	H 	0.44320 0.68510 0.08880 -0.03000
C 	C 	0.40390 0.53220 0.12150 -0.17900
H 	H 	0.45790 0.53500 0.16640 0.04200
C 	C 	0.33030 0.43820 0.09980 0.07500
H 	H 	0.33400 0.37830 0.13170 -0.05200
N 	N 	0.05030 0.14240 0.00250 -0.41600
H 	H 	0.95510 0.15280 0.99050 0.09700
H 	H 	0.09360 0.10490 0.96620 0.09800
H 	H 	0.05740 0.10530 0.04530 0.09700
Cu	Cu	0.37562 0.55625 0.49326 0.79100
Ag	Ag	0.08766 0.58159 0.24264 0.44700
Ag	Ag	0.14539 0.62647 0.74478 0.44300
C 	C 	0.19890 0.57460 0.64010 -0.16000
N 	N 	0.24950 0.55850 0.58370 -0.23500
C 	C 	0.18680 0.54660 0.34480 -0.15800
N 	N 	0.24900 0.53900 0.40150 -0.23700
Cu	Cu	0.84871 0.78689 0.48521 0.85400
C 	C 	0.99610 0.86600 0.64190 -0.14600
N 	N 	0.94110 0.83920 0.58680 -0.20300
N 	N 	0.97240 0.81370 0.39210 -0.20400
C 	C 	0.03650 0.83400 0.34010 -0.17300
N 	N 	0.65100 0.70380 0.49250 -0.17400
C 	C 	0.55510 0.64150 0.49310 -0.32000
N 	N 	0.74500 0.92930 0.46450 -0.24500
C 	C 	0.75340 0.01680 0.50840 0.07500
H 	H 	0.80750 0.01250 0.55310 -0.03000
C 	C 	0.68430 0.11380 0.48970 -0.16200
H 	H 	0.69210 0.17370 0.52150 0.04500
C 	C 	0.60480 0.12060 0.42440 0.06400
H 	H 	0.55680 0.18510 0.41120 -0.03200
C 	C 	0.59610 0.03220 0.37850 -0.18400
H 	H 	0.54210 0.03500 0.33360 0.04300
C 	C 	0.66970 0.93820 0.40020 0.07900
H 	H 	0.66600 0.87830 0.36830 -0.05300
N 	N 	0.94970 0.64240 0.49750 -0.41400
H 	H 	0.04490 0.65280 0.50950 0.09700
H 	H 	0.90640 0.60490 0.53380 0.09600
H 	H 	0.94260 0.60530 0.45470 0.09600
Cu	Cu	0.37562 0.94375 0.99326 0.79000
Ag	Ag	0.08766 0.91841 0.74264 0.44600
Ag	Ag	0.14539 0.87353 0.24478 0.44300
C 	C 	0.19890 0.92540 0.14010 -0.16000
N 	N 	0.24950 0.94150 0.08370 -0.23400
C 	C 	0.18680 0.95340 0.84480 -0.15900
N 	N 	0.24900 0.96100 0.90150 -0.23700
Cu	Cu	0.84871 0.71311 0.98521 0.85400
C 	C 	0.99610 0.63400 0.14190 -0.14800
N 	N 	0.94110 0.66080 0.08680 -0.20300
N 	N 	0.97240 0.68630 0.89210 -0.20500
C 	C 	0.03650 0.66600 0.84010 -0.17200
N 	N 	0.65100 0.79620 0.99250 -0.17400
C 	C 	0.55510 0.85850 0.99310 -0.32100
N 	N 	0.74500 0.57070 0.96450 -0.24500
C 	C 	0.75340 0.48320 0.00840 0.07500
H 	H 	0.80750 0.48750 0.05310 -0.02900
C 	C 	0.68430 0.38620 0.98970 -0.15700
H 	H 	0.69210 0.32630 0.02150 0.04300
C 	C 	0.60480 0.37940 0.92440 0.06000
H 	H 	0.55680 0.31490 0.91120 -0.03000
C 	C 	0.59610 0.46780 0.87850 -0.17900
H 	H 	0.54210 0.46500 0.83360 0.04200
C 	C 	0.66970 0.56180 0.90020 0.07500
H 	H 	0.66600 0.62170 0.86830 -0.05200
N 	N 	0.94970 0.85760 0.99750 -0.41600
H 	H 	0.04490 0.84720 0.00950 0.09700
H 	H 	0.90640 0.89510 0.03380 0.09800
H 	H 	0.94260 0.89470 0.95470 0.09700
Cu	Cu	0.62438 0.44375 0.50674 0.79100
Ag	Ag	0.91234 0.41841 0.75736 0.44700
Ag	Ag	0.85461 0.37353 0.25522 0.44300
C 	C 	0.80110 0.42540 0.35990 -0.16000
N 	N 	0.75050 0.44150 0.41630 -0.23500
C 	C 	0.81320 0.45340 0.65520 -0.15800
N 	N 	0.75100 0.46100 0.59850 -0.23700
Cu	Cu	0.15129 0.21311 0.51479 0.85400
C 	C 	0.00390 0.13400 0.35810 -0.14600
N 	N 	0.05890 0.16080 0.41320 -0.20300
N 	N 	0.02760 0.18630 0.60790 -0.20400
C 	C 	0.96350 0.16600 0.65990 -0.17300
N 	N 	0.34900 0.29620 0.50750 -0.17400
C 	C 	0.44490 0.35850 0.50690 -0.32000
N 	N 	0.25500 0.07070 0.53550 -0.24500
C 	C 	0.24660 0.98320 0.49160 0.07500
H 	H 	0.19250 0.98750 0.44690 -0.03000
C 	C 	0.31570 0.88620 0.51030 -0.16200
H 	H 	0.30790 0.82630 0.47850 0.04500
C 	C 	0.39520 0.87940 0.57560 0.06400
H 	H 	0.44320 0.81490 0.58880 -0.03200
C 	C 	0.40390 0.96780 0.62150 -0.18400
H 	H 	0.45790 0.96500 0.66640 0.04300
C 	C 	0.33030 0.06180 0.59980 0.07900
H 	H 	0.33400 0.12170 0.63170 -0.05300
N 	N 	0.05030 0.35760 0.50250 -0.41400
H 	H 	0.95510 0.34720 0.49050 0.09700
H 	H 	0.09360 0.39510 0.46620 0.09600
H 	H 	0.05740 0.39470 0.54530 0.09600
