data_crystal

_cell_length_a 12.04500
_cell_length_b 25.38000
_cell_length_c 20.65800
_cell_angle_alpha 90.00000
_cell_angle_beta  90.00000
_cell_angle_gamma 90.00000

_symmetry_space_group_name_	'P 1'
_symmetry_space_group_name_H-M	'P 1'

loop_
_symmetry_equiv_pos_as_xyz
  x,y,z

loop_
_atom_site_label
_atom_site_type_symbol
_atom_site_fract_x
_atom_site_fract_y
_atom_site_fract_z
_atom_site_charge
W 	W 	0.76132 0.21989 0.41479 1.38100
O 	O 	0.64750 0.20140 0.37490 -0.44100
O 	O 	0.72400 0.29060 0.43410 -0.48100
O 	O 	0.15200 0.37230 0.43640 -0.45400
O 	O 	0.15300 0.24920 0.35030 -0.49600
O 	O 	0.84600 0.15650 0.41100 -0.38500
O 	O 	0.11710 0.08090 0.24000 -0.53800
O 	O 	0.29480 0.07890 0.26680 -0.48400
O 	O 	0.04100 0.22870 0.43520 -0.43900
N 	N 	0.12500 0.17640 0.19020 -0.29400
H 	H 	0.13540 0.17840 0.14710 0.08100
H 	H 	0.10950 0.20890 0.20490 0.11400
C 	C 	0.22900 0.15680 0.22100 -0.34500
H 	H 	0.24790 0.17940 0.25760 0.14400
H 	H 	0.28930 0.15770 0.19060 0.13700
C 	C 	0.21200 0.10200 0.24470 0.42800
W 	W 	0.26132 0.71989 0.91479 1.41200
O 	O 	0.14750 0.70140 0.87490 -0.48800
O 	O 	0.22400 0.79060 0.93410 -0.50900
O 	O 	0.65200 0.87230 0.93640 -0.48900
O 	O 	0.65300 0.74920 0.85030 -0.52800
O 	O 	0.34600 0.65650 0.91100 -0.49800
O 	O 	0.61710 0.58090 0.74000 -0.49000
O 	O 	0.79480 0.57890 0.76680 -0.41900
O 	O 	0.54100 0.72870 0.93520 -0.28300
N 	N 	0.62500 0.67640 0.69020 -0.29200
H 	H 	0.63540 0.67840 0.64710 0.10600
H 	H 	0.60950 0.70890 0.70490 0.13000
C 	C 	0.72900 0.65680 0.72100 -0.35100
H 	H 	0.74790 0.67940 0.75760 0.16200
H 	H 	0.78930 0.65770 0.69060 0.17800
C 	C 	0.71200 0.60200 0.74470 0.42500
W 	W 	0.23868 0.78011 0.41479 1.42100
O 	O 	0.35250 0.79860 0.37490 -0.44800
O 	O 	0.27600 0.70940 0.43410 -0.48600
O 	O 	0.84800 0.62770 0.43640 -0.37800
O 	O 	0.84700 0.75080 0.35030 -0.43300
O 	O 	0.15400 0.84350 0.41100 -0.45300
O 	O 	0.88290 0.91910 0.24000 -0.37600
O 	O 	0.70520 0.92110 0.26680 -0.43400
O 	O 	0.95900 0.77130 0.43520 0.02100
N 	N 	0.87500 0.82360 0.19020 -0.28200
H 	H 	0.86460 0.82160 0.14710 0.13600
H 	H 	0.89050 0.79110 0.20490 0.18700
C 	C 	0.77100 0.84320 0.22100 -0.29100
H 	H 	0.75210 0.82060 0.25760 0.13900
H 	H 	0.71070 0.84230 0.19060 0.12600
C 	C 	0.78800 0.89800 0.24470 0.40400
W 	W 	0.73868 0.28011 0.91479 1.41800
O 	O 	0.85250 0.29860 0.87490 -0.38900
O 	O 	0.77600 0.20940 0.93410 -0.48200
O 	O 	0.34800 0.12770 0.93640 -0.50100
O 	O 	0.34700 0.25080 0.85030 -0.52800
O 	O 	0.65400 0.34350 0.91100 -0.48400
O 	O 	0.38290 0.41910 0.74000 -0.49500
O 	O 	0.20520 0.42110 0.76680 -0.48600
O 	O 	0.45900 0.27130 0.93520 -0.28100
N 	N 	0.37500 0.32360 0.69020 -0.29400
H 	H 	0.36460 0.32160 0.64710 0.10500
H 	H 	0.39050 0.29110 0.70490 0.13000
C 	C 	0.27100 0.34320 0.72100 -0.33700
H 	H 	0.25210 0.32060 0.75760 0.13900
H 	H 	0.21070 0.34230 0.69060 0.13800
C 	C 	0.28800 0.39800 0.74470 0.42100
W 	W 	0.23868 0.21989 0.58521 1.42000
O 	O 	0.35250 0.20140 0.62510 -0.45200
O 	O 	0.27600 0.29060 0.56590 -0.48600
O 	O 	0.84800 0.37230 0.56360 -0.37800
O 	O 	0.84700 0.24920 0.64970 -0.43200
O 	O 	0.15400 0.15650 0.58900 -0.46000
O 	O 	0.88290 0.08090 0.76000 -0.40100
O 	O 	0.70520 0.07890 0.73320 -0.46400
O 	O 	0.95900 0.22870 0.56480 0.02300
N 	N 	0.87500 0.17640 0.80980 -0.28100
H 	H 	0.86460 0.17840 0.85290 0.13200
H 	H 	0.89050 0.20890 0.79510 0.18700
C 	C 	0.77100 0.15680 0.77900 -0.29700
H 	H 	0.75210 0.17940 0.74240 0.14000
H 	H 	0.71070 0.15770 0.80940 0.12500
C 	C 	0.78800 0.10200 0.75530 0.40900
W 	W 	0.73868 0.71989 0.08521 1.42800
O 	O 	0.85250 0.70140 0.12510 -0.38800
O 	O 	0.77600 0.79060 0.06590 -0.47700
O 	O 	0.34800 0.87230 0.06360 -0.48900
O 	O 	0.34700 0.74920 0.14970 -0.53000
O 	O 	0.65400 0.65650 0.08900 -0.48200
O 	O 	0.38290 0.58090 0.26000 -0.49500
O 	O 	0.20520 0.57890 0.23320 -0.48600
O 	O 	0.45900 0.72870 0.06480 -0.27800
N 	N 	0.37500 0.67640 0.30980 -0.29400
H 	H 	0.36460 0.67840 0.35290 0.10500
H 	H 	0.39050 0.70890 0.29510 0.13000
C 	C 	0.27100 0.65680 0.27900 -0.33700
H 	H 	0.25210 0.67940 0.24240 0.13800
H 	H 	0.21070 0.65770 0.30940 0.13800
C 	C 	0.28800 0.60200 0.25530 0.42100
W 	W 	0.76132 0.78011 0.58521 1.38100
O 	O 	0.64750 0.79860 0.62510 -0.43700
O 	O 	0.72400 0.70940 0.56590 -0.48100
O 	O 	0.15200 0.62770 0.56360 -0.45400
O 	O 	0.15300 0.75080 0.64970 -0.49600
O 	O 	0.84600 0.84350 0.58900 -0.38000
O 	O 	0.11710 0.91910 0.76000 -0.51400
O 	O 	0.29480 0.92110 0.73320 -0.45400
O 	O 	0.04100 0.77130 0.56480 -0.43800
N 	N 	0.12500 0.82360 0.80980 -0.29500
H 	H 	0.13540 0.82160 0.85290 0.08300
H 	H 	0.10950 0.79110 0.79510 0.11400
C 	C 	0.22900 0.84320 0.77900 -0.33900
H 	H 	0.24790 0.82060 0.74240 0.14200
H 	H 	0.28930 0.84230 0.80940 0.13800
C 	C 	0.21200 0.89800 0.75530 0.42300
W 	W 	0.26132 0.28011 0.08521 1.42200
O 	O 	0.14750 0.29860 0.12510 -0.48700
O 	O 	0.22400 0.20940 0.06590 -0.50300
O 	O 	0.65200 0.12770 0.06360 -0.48900
O 	O 	0.65300 0.25080 0.14970 -0.53000
O 	O 	0.34600 0.34350 0.08900 -0.49600
O 	O 	0.61710 0.41910 0.26000 -0.49000
O 	O 	0.79480 0.42110 0.23320 -0.41800
O 	O 	0.54100 0.27130 0.06480 -0.28000
N 	N 	0.62500 0.32360 0.30980 -0.29200
H 	H 	0.63540 0.32160 0.35290 0.10600
H 	H 	0.60950 0.29110 0.29510 0.13000
C 	C 	0.72900 0.34320 0.27900 -0.35100
H 	H 	0.74790 0.32060 0.24240 0.16200
H 	H 	0.78930 0.34230 0.30940 0.17800
C 	C 	0.71200 0.39800 0.25530 0.42500
W 	W 	0.23868 0.78011 0.58521 1.42100
O 	O 	0.35250 0.79860 0.62510 -0.44800
O 	O 	0.27600 0.70940 0.56590 -0.48600
O 	O 	0.84800 0.62770 0.56360 -0.37800
O 	O 	0.84700 0.75080 0.64970 -0.43300
O 	O 	0.15400 0.84350 0.58900 -0.45300
O 	O 	0.88290 0.91910 0.76000 -0.37700
O 	O 	0.70520 0.92110 0.73320 -0.43400
O 	O 	0.95900 0.77130 0.56480 0.02100
N 	N 	0.87500 0.82360 0.80980 -0.28200
H 	H 	0.86460 0.82160 0.85290 0.13500
H 	H 	0.89050 0.79110 0.79510 0.18600
C 	C 	0.77100 0.84320 0.77900 -0.29100
H 	H 	0.75210 0.82060 0.74240 0.13900
H 	H 	0.71070 0.84230 0.80940 0.12600
C 	C 	0.78800 0.89800 0.75530 0.40400
W 	W 	0.73868 0.28011 0.08521 1.42700
O 	O 	0.85250 0.29860 0.12510 -0.38800
O 	O 	0.77600 0.20940 0.06590 -0.47700
O 	O 	0.34800 0.12770 0.06360 -0.49500
O 	O 	0.34700 0.25080 0.14970 -0.53000
O 	O 	0.65400 0.34350 0.08900 -0.48200
O 	O 	0.38290 0.41910 0.26000 -0.49500
O 	O 	0.20520 0.42110 0.23320 -0.48600
O 	O 	0.45900 0.27130 0.06480 -0.27800
N 	N 	0.37500 0.32360 0.30980 -0.29400
H 	H 	0.36460 0.32160 0.35290 0.10500
H 	H 	0.39050 0.29110 0.29510 0.13000
C 	C 	0.27100 0.34320 0.27900 -0.33700
H 	H 	0.25210 0.32060 0.24240 0.13800
H 	H 	0.21070 0.34230 0.30940 0.13800
C 	C 	0.28800 0.39800 0.25530 0.42100
W 	W 	0.76132 0.21989 0.58521 1.38000
O 	O 	0.64750 0.20140 0.62510 -0.44200
O 	O 	0.72400 0.29060 0.56590 -0.48100
O 	O 	0.15200 0.37230 0.56360 -0.45400
O 	O 	0.15300 0.24920 0.64970 -0.49600
O 	O 	0.84600 0.15650 0.58900 -0.38500
O 	O 	0.11710 0.08090 0.76000 -0.53900
O 	O 	0.29480 0.07890 0.73320 -0.48400
O 	O 	0.04100 0.22870 0.56480 -0.43900
N 	N 	0.12500 0.17640 0.80980 -0.29400
H 	H 	0.13540 0.17840 0.85290 0.07900
H 	H 	0.10950 0.20890 0.79510 0.11300
C 	C 	0.22900 0.15680 0.77900 -0.34500
H 	H 	0.24790 0.17940 0.74240 0.14400
H 	H 	0.28930 0.15770 0.80940 0.13700
C 	C 	0.21200 0.10200 0.75530 0.42800
W 	W 	0.26132 0.71989 0.08521 1.42200
O 	O 	0.14750 0.70140 0.12510 -0.48700
O 	O 	0.22400 0.79060 0.06590 -0.50400
O 	O 	0.65200 0.87230 0.06360 -0.48300
O 	O 	0.65300 0.74920 0.14970 -0.53000
O 	O 	0.34600 0.65650 0.08900 -0.49600
O 	O 	0.61710 0.58090 0.26000 -0.49000
O 	O 	0.79480 0.57890 0.23320 -0.41900
O 	O 	0.54100 0.72870 0.06480 -0.28000
N 	N 	0.62500 0.67640 0.30980 -0.29200
H 	H 	0.63540 0.67840 0.35290 0.10600
H 	H 	0.60950 0.70890 0.29510 0.13000
C 	C 	0.72900 0.65680 0.27900 -0.35100
H 	H 	0.74790 0.67940 0.24240 0.16200
H 	H 	0.78930 0.65770 0.30940 0.17800
C 	C 	0.71200 0.60200 0.25530 0.42500
W 	W 	0.76132 0.78011 0.41479 1.38100
O 	O 	0.64750 0.79860 0.37490 -0.43700
O 	O 	0.72400 0.70940 0.43410 -0.48100
O 	O 	0.15200 0.62770 0.43640 -0.45400
O 	O 	0.15300 0.75080 0.35030 -0.49600
O 	O 	0.84600 0.84350 0.41100 -0.38000
O 	O 	0.11710 0.91910 0.24000 -0.51300
O 	O 	0.29480 0.92110 0.26680 -0.45400
O 	O 	0.04100 0.77130 0.43520 -0.43800
N 	N 	0.12500 0.82360 0.19020 -0.29500
H 	H 	0.13540 0.82160 0.14710 0.08400
H 	H 	0.10950 0.79110 0.20490 0.11400
C 	C 	0.22900 0.84320 0.22100 -0.33900
H 	H 	0.24790 0.82060 0.25760 0.14200
H 	H 	0.28930 0.84230 0.19060 0.13800
C 	C 	0.21200 0.89800 0.24470 0.42300
W 	W 	0.26132 0.28011 0.91479 1.41200
O 	O 	0.14750 0.29860 0.87490 -0.48800
O 	O 	0.22400 0.20940 0.93410 -0.50900
O 	O 	0.65200 0.12770 0.93640 -0.49400
O 	O 	0.65300 0.25080 0.85030 -0.52800
O 	O 	0.34600 0.34350 0.91100 -0.49800
O 	O 	0.61710 0.41910 0.74000 -0.49000
O 	O 	0.79480 0.42110 0.76680 -0.41900
O 	O 	0.54100 0.27130 0.93520 -0.28300
N 	N 	0.62500 0.32360 0.69020 -0.29200
H 	H 	0.63540 0.32160 0.64710 0.10600
H 	H 	0.60950 0.29110 0.70490 0.13000
C 	C 	0.72900 0.34320 0.72100 -0.35100
H 	H 	0.74790 0.32060 0.75760 0.16200
H 	H 	0.78930 0.34230 0.69060 0.17800
C 	C 	0.71200 0.39800 0.74470 0.42500
W 	W 	0.23868 0.21989 0.41479 1.42000
O 	O 	0.35250 0.20140 0.37490 -0.45200
O 	O 	0.27600 0.29060 0.43410 -0.48600
O 	O 	0.84800 0.37230 0.43640 -0.37800
O 	O 	0.84700 0.24920 0.35030 -0.43200
O 	O 	0.15400 0.15650 0.41100 -0.46000
O 	O 	0.88290 0.08090 0.24000 -0.40000
O 	O 	0.70520 0.07890 0.26680 -0.46400
O 	O 	0.95900 0.22870 0.43520 0.02300
N 	N 	0.87500 0.17640 0.19020 -0.28100
H 	H 	0.86460 0.17840 0.14710 0.13300
H 	H 	0.89050 0.20890 0.20490 0.18700
C 	C 	0.77100 0.15680 0.22100 -0.29700
H 	H 	0.75210 0.17940 0.25760 0.14000
H 	H 	0.71070 0.15770 0.19060 0.12500
C 	C 	0.78800 0.10200 0.24470 0.40900
W 	W 	0.73868 0.71989 0.91479 1.41800
O 	O 	0.85250 0.70140 0.87490 -0.38900
O 	O 	0.77600 0.79060 0.93410 -0.48200
O 	O 	0.34800 0.87230 0.93640 -0.49500
O 	O 	0.34700 0.74920 0.85030 -0.52900
O 	O 	0.65400 0.65650 0.91100 -0.48400
O 	O 	0.38290 0.58090 0.74000 -0.49500
O 	O 	0.20520 0.57890 0.76680 -0.48600
O 	O 	0.45900 0.72870 0.93520 -0.28200
N 	N 	0.37500 0.67640 0.69020 -0.29400
H 	H 	0.36460 0.67840 0.64710 0.10500
H 	H 	0.39050 0.70890 0.70490 0.13000
C 	C 	0.27100 0.65680 0.72100 -0.33700
H 	H 	0.25210 0.67940 0.75760 0.13800
H 	H 	0.21070 0.65770 0.69060 0.13800
C 	C 	0.28800 0.60200 0.74470 0.42100
W 	W 	-0.00000 0.14251 0.40945 1.18900
W 	W 	-0.00000 0.38221 0.41976 0.83000
W 	W 	-0.00000 0.25527 0.33157 1.15600
Cu	Cu	-0.00000 0.12822 0.20930 0.81600
O 	O 	-0.00000 0.17860 0.32790 -0.55200
O 	O 	-0.00000 0.07840 0.38490 -0.45000
O 	O 	-0.00000 0.32650 0.36090 -0.52100
O 	O 	-0.00000 0.27010 0.25180 -0.50100
W 	W 	0.50000 0.64251 0.90945 1.37900
W 	W 	0.50000 0.88221 0.91976 1.04900
W 	W 	0.50000 0.75527 0.83157 1.35800
Cu	Cu	0.50000 0.62822 0.70930 0.88900
O 	O 	0.50000 0.67860 0.82790 -0.52300
O 	O 	0.50000 0.57840 0.88490 -0.41500
O 	O 	0.50000 0.82650 0.86090 -0.50400
O 	O 	0.50000 0.77010 0.75180 -0.45800
W 	W 	-0.00000 0.85749 0.40945 1.19100
W 	W 	-0.00000 0.61779 0.41976 0.83000
W 	W 	-0.00000 0.74473 0.33157 1.15600
Cu	Cu	-0.00000 0.87178 0.20930 0.82000
O 	O 	-0.00000 0.82140 0.32790 -0.55100
O 	O 	0.00000 0.92160 0.38490 -0.42200
O 	O 	-0.00000 0.67350 0.36090 -0.52100
O 	O 	0.00000 0.72990 0.25180 -0.50100
W 	W 	0.50000 0.35749 0.90945 1.37900
W 	W 	0.50000 0.11779 0.91976 1.02400
W 	W 	0.50000 0.24473 0.83157 1.35700
Cu	Cu	0.50000 0.37178 0.70930 0.88900
O 	O 	0.50000 0.32140 0.82790 -0.52300
O 	O 	0.50000 0.42160 0.88490 -0.41500
O 	O 	0.50000 0.17350 0.86090 -0.50400
O 	O 	0.50000 0.22990 0.75180 -0.45900
W 	W 	-0.00000 0.14251 0.59055 1.18900
W 	W 	-0.00000 0.38221 0.58024 0.83000
W 	W 	-0.00000 0.25527 0.66843 1.15600
Cu	Cu	-0.00000 0.12822 0.79070 0.81500
O 	O 	-0.00000 0.17860 0.67210 -0.55200
O 	O 	-0.00000 0.07840 0.61510 -0.45000
O 	O 	0.00000 0.32650 0.63910 -0.52100
O 	O 	-0.00000 0.27010 0.74820 -0.50100
W 	W 	0.50000 0.64251 0.09055 1.38700
W 	W 	0.50000 0.88221 0.08024 1.05900
W 	W 	0.50000 0.75527 0.16843 1.35900
Cu	Cu	0.50000 0.62822 0.29070 0.88900
O 	O 	0.50000 0.67860 0.17210 -0.52400
O 	O 	0.50000 0.57840 0.11510 -0.41300
O 	O 	0.50000 0.82650 0.13910 -0.50500
O 	O 	0.50000 0.77010 0.24820 -0.45800
W 	W 	-0.00000 0.85749 0.59055 1.19100
W 	W 	0.00000 0.61779 0.58024 0.83000
W 	W 	-0.00000 0.74473 0.66843 1.15700
Cu	Cu	-0.00000 0.87178 0.79070 0.81900
O 	O 	-0.00000 0.82140 0.67210 -0.55100
O 	O 	-0.00000 0.92160 0.61510 -0.42200
O 	O 	0.00000 0.67350 0.63910 -0.52100
O 	O 	-0.00000 0.72990 0.74820 -0.50100
W 	W 	0.50000 0.35749 0.09055 1.38700
W 	W 	0.50000 0.11779 0.08024 1.03500
W 	W 	0.50000 0.24473 0.16843 1.35800
Cu	Cu	0.50000 0.37178 0.29070 0.88900
O 	O 	0.50000 0.32140 0.17210 -0.52400
O 	O 	0.50000 0.42160 0.11510 -0.41300
O 	O 	0.50000 0.17350 0.13910 -0.50400
O 	O 	0.50000 0.22990 0.24820 -0.46000
W 	W 	0.23961 0.34061 0.50000 1.05100
O 	O 	0.72200 0.19760 0.50000 -0.47100
O 	O 	0.13500 0.25970 0.50000 -0.28300
O 	O 	0.04200 0.31920 0.50000 -0.37600
W 	W 	0.73961 0.84061 -0.00000 1.12400
O 	O 	0.22200 0.69760 -0.00000 -0.49900
O 	O 	0.63500 0.75970 -0.00000 -0.35600
O 	O 	0.54200 0.81920 -0.00000 -0.23500
W 	W 	0.76039 0.65939 0.50000 1.02600
O 	O 	0.27800 0.80240 0.50000 -0.47700
O 	O 	0.86500 0.74030 0.50000 -0.31700
O 	O 	0.95800 0.68080 0.50000 0.05600
W 	W 	0.26039 0.15939 -0.00000 1.02700
O 	O 	0.77800 0.30240 -0.00000 -0.45100
O 	O 	0.36500 0.24030 -0.00000 -0.34900
O 	O 	0.45800 0.18080 -0.00000 -0.22400
W 	W 	0.76039 0.34061 0.50000 1.02600
O 	O 	0.27800 0.19760 0.50000 -0.48200
O 	O 	0.86500 0.25970 0.50000 -0.31700
O 	O 	0.95800 0.31920 0.50000 0.05700
W 	W 	0.26039 0.84061 -0.00000 1.04100
O 	O 	0.77800 0.69760 -0.00000 -0.45100
O 	O 	0.36500 0.75970 -0.00000 -0.35100
O 	O 	0.45800 0.81920 -0.00000 -0.22800
W 	W 	0.23961 0.65939 0.50000 1.05100
O 	O 	0.72200 0.80240 0.50000 -0.46600
O 	O 	0.13500 0.74030 0.50000 -0.28400
O 	O 	0.04200 0.68080 0.50000 -0.37600
W 	W 	0.73961 0.15939 -0.00000 1.11000
O 	O 	0.22200 0.30240 -0.00000 -0.49900
O 	O 	0.63500 0.24030 -0.00000 -0.35500
O 	O 	0.54200 0.18080 -0.00000 -0.23200
Cu	Cu	0.30090 0.00000 0.27060 0.86600
O 	O 	0.22600 -0.00000 0.35520 -0.28600
Cu	Cu	0.80090 0.50000 0.77060 0.92200
O 	O 	0.72600 0.50000 0.85520 -0.22700
Cu	Cu	0.69910 0.00000 0.27060 0.87500
O 	O 	0.77400 -0.00000 0.35520 -0.22300
Cu	Cu	0.19910 0.50000 0.77060 0.88100
O 	O 	0.27400 0.50000 0.85520 -0.27000
Cu	Cu	0.69910 0.00000 0.72940 0.87500
O 	O 	0.77400 0.00000 0.64480 -0.22300
Cu	Cu	0.19910 0.50000 0.22940 0.88100
O 	O 	0.27400 0.50000 0.14480 -0.26700
Cu	Cu	0.30090 0.00000 0.72940 0.86600
O 	O 	0.22600 0.00000 0.64480 -0.28600
Cu	Cu	0.80090 0.50000 0.22940 0.92200
O 	O 	0.72600 0.50000 0.14480 -0.22400
P 	P 	-0.00000 0.25960 0.50000 0.41200
O 	O 	-0.00000 0.13000 0.50000 -0.49600
O 	O 	-0.00000 0.42140 0.50000 -0.48300
P 	P 	0.50000 0.75960 -0.00000 0.69200
O 	O 	0.50000 0.63000 -0.00000 -0.47100
O 	O 	0.50000 0.92140 -0.00000 -0.45100
P 	P 	0.00000 0.74040 0.50000 0.41300
O 	O 	-0.00000 0.87000 0.50000 -0.48600
O 	O 	-0.00000 0.57860 0.50000 -0.48300
P 	P 	0.50000 0.24040 -0.00000 0.69200
O 	O 	0.50000 0.37000 -0.00000 -0.47100
O 	O 	0.50000 0.07860 -0.00000 -0.47100
Cl	Cl	0.50000 0.00000 0.32800 -0.58000
Cl	Cl	0.50000 0.00000 0.30200 -0.00900
Cl	Cl	-0.00000 0.50000 0.82800 -0.60400
Cl	Cl	0.00000 0.50000 0.80200 -0.07900
Cl	Cl	0.50000 0.00000 0.67200 -0.58100
Cl	Cl	0.50000 0.00000 0.69800 -0.00800
Cl	Cl	-0.00000 0.50000 0.17200 -0.60700
Cl	Cl	-0.00000 0.50000 0.19800 -0.07300
K 	K 	-0.00000 0.00000 0.30000 0.62700
K 	K 	0.50000 0.50000 0.80000 0.66900
K 	K 	0.00000 0.00000 0.70000 0.62700
K 	K 	0.50000 0.50000 0.20000 0.66900
K 	K 	0.50000 0.12740 0.31100 0.66200
K 	K 	-0.00000 0.62740 0.81100 0.63200
K 	K 	0.50000 0.87260 0.31100 0.66800
K 	K 	-0.00000 0.37260 0.81100 0.63200
K 	K 	0.50000 0.12740 0.68900 0.66200
K 	K 	-0.00000 0.62740 0.18900 0.63200
K 	K 	0.50000 0.87260 0.68900 0.66800
K 	K 	-0.00000 0.37260 0.18900 0.63200
