data_crystal

_cell_length_a 15.06370
_cell_length_b 15.06370
_cell_length_c 10.83790
_cell_angle_alpha 90.00000
_cell_angle_beta  90.00000
_cell_angle_gamma 90.00000

_symmetry_space_group_name_	'P 1'
_symmetry_space_group_name_H-M	'P 1'

loop_
_symmetry_equiv_pos_as_xyz
  x,y,z

loop_
_atom_site_label
_atom_site_type_symbol
_atom_site_fract_x
_atom_site_fract_y
_atom_site_fract_z
_atom_site_charge
C 	C 	0.70030 0.86540 0.75450 -1.03200
H 	H 	0.64990 0.85830 0.80800 0.28800
H 	H 	0.75360 0.86720 0.80300 0.27500
H 	H 	0.70310 0.81630 0.69820 0.30600
C 	C 	0.69110 0.95050 0.68310 0.56400
C 	C 	0.75820 0.97290 0.59940 -0.68900
H 	H 	0.81330 0.94620 0.61040 0.18100
C 	C 	0.74930 0.03340 0.49810 0.51600
C 	C 	0.81890 0.03040 0.39550 -0.91600
H 	H 	0.80470 0.07380 0.33390 0.26000
H 	H 	0.81940 0.97240 0.35880 0.24600
H 	H 	0.87640 0.04300 0.42960 0.21300
C 	C 	0.77800 0.27670 0.84410 -0.94500
H 	H 	0.80620 0.22430 0.87580 0.23200
H 	H 	0.74830 0.30720 0.91010 0.23200
H 	H 	0.82200 0.31510 0.80860 0.27200
C 	C 	0.71120 0.25090 0.74650 0.53300
C 	C 	0.66320 0.32040 0.68840 -0.69000
H 	H 	0.66690 0.37660 0.72330 0.19400
C 	C 	0.61010 0.31080 0.58190 0.53500
C 	C 	0.58500 0.39330 0.51090 -0.93300
H 	H 	0.54970 0.37710 0.44070 0.25500
H 	H 	0.63790 0.42300 0.48360 0.24600
H 	H 	0.55160 0.43230 0.56330 0.22000
C 	C 	0.39390 0.14840 0.89540 -0.99100
H 	H 	0.42650 0.19550 0.93410 0.24500
H 	H 	0.38790 0.09980 0.95210 0.28100
H 	H 	0.33610 0.16950 0.87230 0.26600
C 	C 	0.44300 0.11740 0.78170 0.56100
C 	C 	0.40540 0.04840 0.71000 -0.73800
H 	H 	0.36080 0.01420 0.74560 0.21800
C 	C 	0.43110 0.02810 0.58850 0.58200
C 	C 	0.37550 0.96130 0.51920 -1.03900
H 	H 	0.39920 0.95350 0.43770 0.31200
H 	H 	0.31550 0.98240 0.51370 0.28100
H 	H 	0.37650 0.90560 0.56220 0.27700
O 	O 	0.62160 0.99580 0.70000 -0.54200
O 	O 	0.68560 0.08570 0.48520 -0.51100
O 	O 	0.49570 0.06210 0.53090 -0.54700
O 	O 	0.51490 0.15790 0.75750 -0.54400
O 	O 	0.70280 0.16900 0.72530 -0.54200
O 	O 	0.58420 0.23740 0.53860 -0.49900
Ni	Ni	0.60177 0.11837 0.62214 1.15000
Ag	Ag	0.54348 0.31709 0.83204 0.41800
Ag	Ag	0.51851 0.06257 0.31184 0.50600
Ag	Ag	0.83580 0.06081 0.74542 0.40800
C 	C 	0.29970 0.13460 0.25450 -1.02100
H 	H 	0.35010 0.14170 0.30800 0.29200
H 	H 	0.24640 0.13280 0.30300 0.27400
H 	H 	0.29690 0.18370 0.19820 0.31000
C 	C 	0.30890 0.04950 0.18310 0.54000
C 	C 	0.24180 0.02710 0.09940 -0.59700
H 	H 	0.18670 0.05380 0.11040 0.15900
C 	C 	0.25070 0.96660 0.99810 0.42200
C 	C 	0.18110 0.96960 0.89550 -0.76700
H 	H 	0.19530 0.92620 0.83390 0.21300
H 	H 	0.18060 0.02760 0.85880 0.18400
H 	H 	0.12360 0.95700 0.92960 0.16100
C 	C 	0.22200 0.72330 0.34410 -0.94000
H 	H 	0.19380 0.77570 0.37580 0.24500
H 	H 	0.25170 0.69280 0.41010 0.24700
H 	H 	0.17800 0.68490 0.30860 0.28100
C 	C 	0.28880 0.74910 0.24650 0.50100
C 	C 	0.33680 0.67960 0.18840 -0.57200
H 	H 	0.33310 0.62340 0.22330 0.16100
C 	C 	0.38990 0.68920 0.08190 0.35300
C 	C 	0.41500 0.60670 0.01090 -0.32400
H 	H 	0.45030 0.62290 0.94070 0.04000
H 	H 	0.36210 0.57700 0.98360 0.03000
H 	H 	0.44840 0.56770 0.06330 0.05400
C 	C 	0.60610 0.85160 0.39540 -1.03300
H 	H 	0.57350 0.80450 0.43410 0.27100
H 	H 	0.61210 0.90020 0.45210 0.31200
H 	H 	0.66390 0.83050 0.37230 0.28900
C 	C 	0.55700 0.88260 0.28170 0.56500
C 	C 	0.59460 0.95160 0.21000 -0.69800
H 	H 	0.63920 0.98580 0.24560 0.21100
C 	C 	0.56890 0.97190 0.08850 0.51300
C 	C 	0.62450 0.03870 0.01920 -0.77300
H 	H 	0.60080 0.04650 0.93770 0.19400
H 	H 	0.68450 0.01760 0.01370 0.21800
H 	H 	0.62350 0.09440 0.06220 0.21200
O 	O 	0.37840 0.00420 0.20000 -0.53200
O 	O 	0.31440 0.91430 0.98520 -0.51100
O 	O 	0.50430 0.93790 0.03090 -0.50000
O 	O 	0.48510 0.84210 0.25750 -0.54200
O 	O 	0.29720 0.83100 0.22530 -0.52000
O 	O 	0.41580 0.76260 0.03860 -0.42200
Ni	Ni	0.39823 0.88163 0.12214 1.15500
Ag	Ag	0.45652 0.68291 0.33204 0.42900
Ag	Ag	0.48149 0.93743 0.81184 0.49600
Ag	Ag	0.16420 0.93919 0.24542 0.42600
C 	C 	0.13460 0.70030 0.00450 -0.60700
H 	H 	0.14170 0.64990 0.05800 0.18300
H 	H 	0.13280 0.75360 0.05300 0.17000
H 	H 	0.18370 0.70310 0.94820 0.14900
C 	C 	0.04950 0.69110 0.93310 0.39100
C 	C 	0.02710 0.75820 0.84940 -0.59100
H 	H 	0.05380 0.81330 0.86040 0.14200
C 	C 	0.96660 0.74930 0.74810 0.46600
C 	C 	0.96960 0.81890 0.64550 -0.83900
H 	H 	0.92620 0.80470 0.58390 0.23400
H 	H 	0.02760 0.81940 0.60880 0.21700
H 	H 	0.95700 0.87640 0.67960 0.19000
C 	C 	0.72330 0.77800 0.09410 -0.84600
H 	H 	0.77570 0.80620 0.12580 0.22900
H 	H 	0.69280 0.74830 0.16010 0.22800
H 	H 	0.68490 0.82200 0.05860 0.26600
C 	C 	0.74910 0.71120 0.99650 0.46000
C 	C 	0.67960 0.66320 0.93840 -0.66200
H 	H 	0.62340 0.66690 0.97330 0.17100
C 	C 	0.68920 0.61010 0.83190 0.51300
C 	C 	0.60670 0.58500 0.76090 -0.91000
H 	H 	0.62290 0.54970 0.69070 0.24600
H 	H 	0.57700 0.63790 0.73360 0.24000
H 	H 	0.56770 0.55160 0.81330 0.21300
C 	C 	0.85160 0.39390 0.14540 -1.17300
H 	H 	0.80450 0.42650 0.18410 0.31400
H 	H 	0.90020 0.38790 0.20210 0.35600
H 	H 	0.83050 0.33610 0.12230 0.34200
C 	C 	0.88260 0.44300 0.03170 0.69500
C 	C 	0.95160 0.40540 0.96000 -0.87000
H 	H 	0.98580 0.36080 0.99560 0.24200
C 	C 	0.97190 0.43110 0.83850 0.63600
C 	C 	0.03870 0.37550 0.76920 -1.09700
H 	H 	0.04650 0.39920 0.68770 0.32700
H 	H 	0.01760 0.31550 0.76370 0.29200
H 	H 	0.09440 0.37650 0.81220 0.28600
O 	O 	0.00420 0.62160 0.95000 -0.52000
O 	O 	0.91430 0.68560 0.73520 -0.49600
O 	O 	0.93790 0.49570 0.78090 -0.56900
O 	O 	0.84210 0.51490 0.00750 -0.54600
O 	O 	0.83100 0.70280 0.97530 -0.53800
O 	O 	0.76260 0.58420 0.78860 -0.49900
Ni	Ni	0.88163 0.60177 0.87214 1.14100
Ag	Ag	0.68291 0.54348 0.08204 0.45200
Ag	Ag	0.93743 0.51851 0.56184 0.50400
Ag	Ag	0.93919 0.83580 0.99542 0.40000
C 	C 	0.86540 0.29970 0.50450 -1.06100
H 	H 	0.85830 0.35010 0.55800 0.30100
H 	H 	0.86720 0.24640 0.55300 0.28500
H 	H 	0.81630 0.29690 0.44820 0.31300
C 	C 	0.95050 0.30890 0.43310 0.57800
C 	C 	0.97290 0.24180 0.34940 -0.70900
H 	H 	0.94620 0.18670 0.36040 0.18700
C 	C 	0.03340 0.25070 0.24810 0.53600
C 	C 	0.03040 0.18110 0.14550 -0.95300
H 	H 	0.07380 0.19530 0.08390 0.28200
H 	H 	0.97240 0.18060 0.10880 0.26500
H 	H 	0.04300 0.12360 0.17960 0.23000
C 	C 	0.27670 0.22200 0.59410 -0.99800
H 	H 	0.22430 0.19380 0.62580 0.25800
H 	H 	0.30720 0.25170 0.66010 0.26200
H 	H 	0.31510 0.17800 0.55860 0.29300
C 	C 	0.25090 0.28880 0.49650 0.55700
C 	C 	0.32040 0.33680 0.43840 -0.71100
H 	H 	0.37660 0.33310 0.47330 0.20400
C 	C 	0.31080 0.38990 0.33190 0.55800
C 	C 	0.39330 0.41500 0.26090 -0.98200
H 	H 	0.37710 0.45030 0.19070 0.28400
H 	H 	0.42300 0.36210 0.23360 0.26900
H 	H 	0.43230 0.44840 0.31330 0.23800
C 	C 	0.14840 0.60610 0.64540 -1.06500
H 	H 	0.19550 0.57350 0.68410 0.27900
H 	H 	0.09980 0.61210 0.70210 0.32100
H 	H 	0.16950 0.66390 0.62230 0.29800
C 	C 	0.11740 0.55700 0.53170 0.59200
C 	C 	0.04840 0.59460 0.46000 -0.76200
H 	H 	0.01420 0.63920 0.49560 0.23100
C 	C 	0.02810 0.56890 0.33850 0.60900
C 	C 	0.96130 0.62450 0.26920 -1.08900
H 	H 	0.95350 0.60080 0.18770 0.33500
H 	H 	0.98240 0.68450 0.26370 0.30300
H 	H 	0.90560 0.62350 0.31220 0.29300
O 	O 	0.99580 0.37840 0.45000 -0.55100
O 	O 	0.08570 0.31440 0.23520 -0.51100
O 	O 	0.06210 0.50430 0.28090 -0.55000
O 	O 	0.15790 0.48510 0.50750 -0.55100
O 	O 	0.16900 0.29720 0.47530 -0.54600
O 	O 	0.23740 0.41580 0.28860 -0.49800
Ni	Ni	0.11837 0.39823 0.37214 1.15200
Ag	Ag	0.31709 0.45652 0.58204 0.42600
Ag	Ag	0.06257 0.48149 0.06184 0.53000
Ag	Ag	0.06081 0.16420 0.49542 0.41500
