data_crystal

_cell_length_a 6.46330
_cell_length_b 17.07200
_cell_length_c 23.81600
_cell_angle_alpha 90.00000
_cell_angle_beta  90.60200
_cell_angle_gamma 90.00000

_symmetry_space_group_name_	'P 1'
_symmetry_space_group_name_H-M	'P 1'

loop_
_symmetry_equiv_pos_as_xyz
  x,y,z

loop_
_atom_site_label
_atom_site_type_symbol
_atom_site_fract_x
_atom_site_fract_y
_atom_site_fract_z
_atom_site_charge
Eu	Eu	0.26189 0.06280 0.02277 1.98800
C 	C 	0.23490 0.94080 0.93130 0.53500
C 	C 	0.27170 0.89440 0.88250 -0.38600
C 	C 	0.46770 0.85700 0.87250 0.41000
C 	C 	0.48630 0.81280 0.82310 -0.32100
H 	H 	0.61240 0.78880 0.81580 0.14100
C 	C 	0.32650 0.80330 0.78470 0.12800
C 	C 	0.13660 0.83940 0.79440 -0.24300
H 	H 	0.02710 0.83300 0.76910 0.10800
C 	C 	0.11270 0.88500 0.84220 0.21700
H 	H 	0.98720 0.91030 0.84770 -0.05600
C 	C 	0.35620 0.75130 0.73480 0.11000
C 	C 	0.19660 0.70610 0.71480 -0.28800
H 	H 	0.06840 0.70900 0.73210 0.14000
C 	C 	0.22160 0.65570 0.66920 0.36400
C 	C 	0.41210 0.65260 0.64200 -0.33000
C 	C 	0.57240 0.70110 0.66200 0.18200
H 	H 	0.69970 0.70070 0.64420 -0.02000
C 	C 	0.54330 0.74920 0.70770 -0.21600
H 	H 	0.65150 0.78060 0.72040 0.09700
C 	C 	0.44640 0.60090 0.59350 0.52100
O 	O 	0.06310 0.97660 0.94010 -0.62600
O 	O 	0.37590 0.95090 0.96920 -0.66500
O 	O 	0.60110 0.61260 0.56280 -0.53400
O 	O 	0.31560 0.54540 0.58540 -0.52000
O 	O 	0.62670 0.86290 0.90690 -0.54800
O 	O 	0.05650 0.61160 0.65390 -0.48100
H 	H 	0.09060 0.58070 0.62930 0.28700
Eu	Eu	0.73811 0.56280 0.47723 1.99500
C 	C 	0.76510 0.44080 0.56870 0.53500
C 	C 	0.72830 0.39440 0.61750 -0.38400
C 	C 	0.53230 0.35700 0.62750 0.40900
C 	C 	0.51370 0.31280 0.67690 -0.31900
H 	H 	0.38760 0.28880 0.68420 0.14100
C 	C 	0.67350 0.30330 0.71530 0.12600
C 	C 	0.86340 0.33940 0.70560 -0.23900
H 	H 	0.97290 0.33300 0.73090 0.10600
C 	C 	0.88730 0.38500 0.65780 0.20900
H 	H 	0.01280 0.41030 0.65230 -0.05200
C 	C 	0.64380 0.25130 0.76520 0.11100
C 	C 	0.80340 0.20610 0.78520 -0.28800
H 	H 	0.93160 0.20900 0.76790 0.14000
C 	C 	0.77840 0.15570 0.83080 0.36400
C 	C 	0.58790 0.15260 0.85800 -0.33000
C 	C 	0.42760 0.20110 0.83800 0.18200
H 	H 	0.30030 0.20070 0.85580 -0.02000
C 	C 	0.45670 0.24920 0.79230 -0.21600
H 	H 	0.34850 0.28060 0.77960 0.09800
C 	C 	0.55360 0.10090 0.90650 0.52000
O 	O 	0.93690 0.47660 0.55990 -0.62800
O 	O 	0.62410 0.45090 0.53080 -0.66600
O 	O 	0.39890 0.11260 0.93720 -0.53100
O 	O 	0.68440 0.04540 0.91460 -0.51700
O 	O 	0.37330 0.36290 0.59310 -0.54800
O 	O 	0.94350 0.11160 0.84610 -0.48000
H 	H 	0.90940 0.08070 0.87070 0.28800
Eu	Eu	0.73811 0.93720 0.97723 1.98800
C 	C 	0.76510 0.05920 0.06870 0.53500
C 	C 	0.72830 0.10560 0.11750 -0.38600
C 	C 	0.53230 0.14300 0.12750 0.41000
C 	C 	0.51370 0.18720 0.17690 -0.32100
H 	H 	0.38760 0.21120 0.18420 0.14100
C 	C 	0.67350 0.19670 0.21530 0.12800
C 	C 	0.86340 0.16060 0.20560 -0.24300
H 	H 	0.97290 0.16700 0.23090 0.10800
C 	C 	0.88730 0.11500 0.15780 0.21700
H 	H 	0.01280 0.08970 0.15230 -0.05600
C 	C 	0.64380 0.24870 0.26520 0.11000
C 	C 	0.80340 0.29390 0.28520 -0.28800
H 	H 	0.93160 0.29100 0.26790 0.14000
C 	C 	0.77840 0.34430 0.33080 0.36400
C 	C 	0.58790 0.34740 0.35800 -0.33000
C 	C 	0.42760 0.29890 0.33800 0.18200
H 	H 	0.30030 0.29930 0.35580 -0.02000
C 	C 	0.45670 0.25080 0.29230 -0.21600
H 	H 	0.34850 0.21940 0.27960 0.09700
C 	C 	0.55360 0.39910 0.40650 0.52100
O 	O 	0.93690 0.02340 0.05990 -0.62600
O 	O 	0.62410 0.04910 0.03080 -0.66500
O 	O 	0.39890 0.38740 0.43720 -0.53400
O 	O 	0.68440 0.45460 0.41460 -0.52000
O 	O 	0.37330 0.13710 0.09310 -0.54800
O 	O 	0.94350 0.38840 0.34610 -0.48100
H 	H 	0.90940 0.41930 0.37070 0.28700
Eu	Eu	0.26189 0.43720 0.52277 1.99500
C 	C 	0.23490 0.55920 0.43130 0.53500
C 	C 	0.27170 0.60560 0.38250 -0.38400
C 	C 	0.46770 0.64300 0.37250 0.40900
C 	C 	0.48630 0.68720 0.32310 -0.31900
H 	H 	0.61240 0.71120 0.31580 0.14100
C 	C 	0.32650 0.69670 0.28470 0.12600
C 	C 	0.13660 0.66060 0.29440 -0.23900
H 	H 	0.02710 0.66700 0.26910 0.10600
C 	C 	0.11270 0.61500 0.34220 0.20900
H 	H 	0.98720 0.58970 0.34770 -0.05200
C 	C 	0.35620 0.74870 0.23480 0.11100
C 	C 	0.19660 0.79390 0.21480 -0.28800
H 	H 	0.06840 0.79100 0.23210 0.14000
C 	C 	0.22160 0.84430 0.16920 0.36400
C 	C 	0.41210 0.84740 0.14200 -0.33000
C 	C 	0.57240 0.79890 0.16200 0.18200
H 	H 	0.69970 0.79930 0.14420 -0.02000
C 	C 	0.54330 0.75080 0.20770 -0.21600
H 	H 	0.65150 0.71940 0.22040 0.09800
C 	C 	0.44640 0.89910 0.09350 0.52000
O 	O 	0.06310 0.52340 0.44010 -0.62800
O 	O 	0.37590 0.54910 0.46920 -0.66600
O 	O 	0.60110 0.88740 0.06280 -0.53100
O 	O 	0.31560 0.95460 0.08540 -0.51700
O 	O 	0.62670 0.63710 0.40690 -0.54800
O 	O 	0.05650 0.88840 0.15390 -0.48000
H 	H 	0.09060 0.91930 0.12930 0.28800
