data_crystal

_cell_length_a 6.43990
_cell_length_b 17.02300
_cell_length_c 23.83300
_cell_angle_alpha 90.00000
_cell_angle_beta  90.79200
_cell_angle_gamma 90.00000

_symmetry_space_group_name_	'P 1'
_symmetry_space_group_name_H-M	'P 1'

loop_
_symmetry_equiv_pos_as_xyz
  x,y,z

loop_
_atom_site_label
_atom_site_type_symbol
_atom_site_fract_x
_atom_site_fract_y
_atom_site_fract_z
_atom_site_charge
Gd	Gd	0.26297 0.06312 0.02216 1.60400
C 	C 	0.23290 0.93880 0.93230 0.49200
C 	C 	0.27050 0.89250 0.88330 -0.34600
C 	C 	0.46610 0.85430 0.87370 0.37500
C 	C 	0.48440 0.81060 0.82450 -0.30200
H 	H 	0.61230 0.78790 0.81670 0.13700
C 	C 	0.32280 0.79910 0.78660 0.12500
C 	C 	0.13290 0.83700 0.79700 -0.23600
H 	H 	0.02200 0.83070 0.77200 0.10800
C 	C 	0.11040 0.88240 0.84310 0.20600
H 	H 	0.98450 0.90790 0.84850 -0.04200
C 	C 	0.35570 0.74850 0.73630 0.09800
C 	C 	0.19480 0.70170 0.71670 -0.27000
H 	H 	0.06660 0.70300 0.73420 0.13700
C 	C 	0.22480 0.65250 0.67090 0.34300
C 	C 	0.41110 0.65050 0.64320 -0.29500
C 	C 	0.57150 0.69830 0.66280 0.15400
H 	H 	0.69940 0.69730 0.64510 -0.00500
C 	C 	0.54150 0.74830 0.70890 -0.19000
H 	H 	0.64820 0.78130 0.72100 0.09100
C 	C 	0.44680 0.59960 0.59330 0.46900
O 	O 	0.06090 0.97490 0.94030 -0.53900
O 	O 	0.37550 0.94910 0.96970 -0.56500
O 	O 	0.60290 0.61220 0.56270 -0.46400
O 	O 	0.31930 0.54240 0.58640 -0.45300
O 	O 	0.62870 0.86110 0.90770 -0.46700
O 	O 	0.05770 0.60580 0.65570 -0.46300
H 	H 	0.09300 0.57500 0.63120 0.28900
Gd	Gd	0.73703 0.56312 0.47784 1.61000
C 	C 	0.76710 0.43880 0.56770 0.49300
C 	C 	0.72950 0.39250 0.61670 -0.34300
C 	C 	0.53390 0.35430 0.62630 0.37500
C 	C 	0.51560 0.31060 0.67550 -0.30000
H 	H 	0.38770 0.28790 0.68330 0.13800
C 	C 	0.67720 0.29910 0.71340 0.12300
C 	C 	0.86710 0.33700 0.70300 -0.23200
H 	H 	0.97800 0.33070 0.72800 0.10600
C 	C 	0.88960 0.38240 0.65690 0.20000
H 	H 	0.01550 0.40790 0.65150 -0.03800
C 	C 	0.64430 0.24850 0.76370 0.09900
C 	C 	0.80520 0.20170 0.78330 -0.27000
H 	H 	0.93340 0.20300 0.76580 0.13700
C 	C 	0.77520 0.15250 0.82910 0.34300
C 	C 	0.58890 0.15050 0.85680 -0.29400
C 	C 	0.42850 0.19830 0.83720 0.15400
H 	H 	0.30060 0.19730 0.85490 -0.00500
C 	C 	0.45850 0.24830 0.79110 -0.19100
H 	H 	0.35180 0.28130 0.77900 0.09200
C 	C 	0.55320 0.09960 0.90670 0.46800
O 	O 	0.93910 0.47490 0.55970 -0.54000
O 	O 	0.62450 0.44910 0.53030 -0.56500
O 	O 	0.39710 0.11220 0.93730 -0.46200
O 	O 	0.68070 0.04240 0.91360 -0.45100
O 	O 	0.37130 0.36110 0.59230 -0.46700
O 	O 	0.94230 0.10580 0.84430 -0.46300
H 	H 	0.90700 0.07500 0.86880 0.28900
Gd	Gd	0.73703 0.93688 0.97784 1.60500
C 	C 	0.76710 0.06120 0.06770 0.49300
C 	C 	0.72950 0.10750 0.11670 -0.34500
C 	C 	0.53390 0.14570 0.12630 0.37600
C 	C 	0.51560 0.18940 0.17550 -0.30100
H 	H 	0.38770 0.21210 0.18330 0.13800
C 	C 	0.67720 0.20090 0.21340 0.12500
C 	C 	0.86710 0.16300 0.20300 -0.23600
H 	H 	0.97800 0.16930 0.22800 0.10800
C 	C 	0.88960 0.11760 0.15690 0.20600
H 	H 	0.01550 0.09210 0.15150 -0.04200
C 	C 	0.64430 0.25150 0.26370 0.09800
C 	C 	0.80520 0.29830 0.28330 -0.27000
H 	H 	0.93340 0.29700 0.26580 0.13700
C 	C 	0.77520 0.34750 0.32910 0.34300
C 	C 	0.58890 0.34950 0.35680 -0.29500
C 	C 	0.42850 0.30170 0.33720 0.15400
H 	H 	0.30060 0.30270 0.35490 -0.00500
C 	C 	0.45850 0.25170 0.29110 -0.19000
H 	H 	0.35180 0.21870 0.27900 0.09100
C 	C 	0.55320 0.40040 0.40670 0.46900
O 	O 	0.93910 0.02510 0.05970 -0.53900
O 	O 	0.62450 0.05090 0.03030 -0.56500
O 	O 	0.39710 0.38780 0.43730 -0.46400
O 	O 	0.68070 0.45760 0.41360 -0.45300
O 	O 	0.37130 0.13890 0.09230 -0.46700
O 	O 	0.94230 0.39420 0.34430 -0.46300
H 	H 	0.90700 0.42500 0.36880 0.28900
Gd	Gd	0.26297 0.43688 0.52216 1.61000
C 	C 	0.23290 0.56120 0.43230 0.49300
C 	C 	0.27050 0.60750 0.38330 -0.34300
C 	C 	0.46610 0.64570 0.37370 0.37500
C 	C 	0.48440 0.68940 0.32450 -0.30000
H 	H 	0.61230 0.71210 0.31670 0.13800
C 	C 	0.32280 0.70090 0.28660 0.12300
C 	C 	0.13290 0.66300 0.29700 -0.23200
H 	H 	0.02200 0.66930 0.27200 0.10600
C 	C 	0.11040 0.61760 0.34310 0.20000
H 	H 	0.98450 0.59210 0.34850 -0.03800
C 	C 	0.35570 0.75150 0.23630 0.09900
C 	C 	0.19480 0.79830 0.21670 -0.27000
H 	H 	0.06660 0.79700 0.23420 0.13700
C 	C 	0.22480 0.84750 0.17090 0.34300
C 	C 	0.41110 0.84950 0.14320 -0.29400
C 	C 	0.57150 0.80170 0.16280 0.15400
H 	H 	0.69940 0.80270 0.14510 -0.00500
C 	C 	0.54150 0.75170 0.20890 -0.19100
H 	H 	0.64820 0.71870 0.22100 0.09200
C 	C 	0.44680 0.90040 0.09330 0.46800
O 	O 	0.06090 0.52510 0.44030 -0.54000
O 	O 	0.37550 0.55090 0.46970 -0.56500
O 	O 	0.60290 0.88780 0.06270 -0.46200
O 	O 	0.31930 0.95760 0.08640 -0.45100
O 	O 	0.62870 0.63890 0.40770 -0.46700
O 	O 	0.05770 0.89420 0.15570 -0.46300
H 	H 	0.09300 0.92500 0.13120 0.28900
