data_crystal

_cell_length_a 7.57640
_cell_length_b 14.12000
_cell_length_c 15.79500
_cell_angle_alpha 71.81000
_cell_angle_beta  87.78000
_cell_angle_gamma 79.38000

_symmetry_space_group_name_	'P 1'
_symmetry_space_group_name_H-M	'P 1'

loop_
_symmetry_equiv_pos_as_xyz
  x,y,z

loop_
_atom_site_label
_atom_site_type_symbol
_atom_site_fract_x
_atom_site_fract_y
_atom_site_fract_z
_atom_site_charge
Cd	Cd	0.02100 0.27030 0.72630 1.23700
Cd	Cd	0.51419 0.16625 0.73773 1.24600
C 	C 	0.33970 0.19830 0.88110 0.42800
C 	C 	0.24440 0.24250 0.94580 -0.27400
C 	C 	0.18980 0.18530 0.02330 0.21500
H 	H 	0.21250 0.11500 0.03720 -0.02600
C 	C 	0.10220 0.22870 0.08130 -0.27600
H 	H 	0.06380 0.18810 0.13470 0.14000
C 	C 	0.06910 0.33100 0.06300 0.18800
H 	H 	0.00520 0.36030 0.10270 -0.03900
C 	C 	0.13120 0.39110 0.98500 -0.26900
H 	H 	0.11350 0.46100 0.97330 0.13300
C 	C 	0.21770 0.34850 0.92540 0.22700
C 	C 	0.31280 0.54640 0.74490 0.24300
C 	C 	0.32500 0.64470 0.73460 -0.29900
H 	H 	0.28830 0.67290 0.77970 0.13600
C 	C 	0.39140 0.70140 0.65760 0.21200
H 	H 	0.39890 0.76830 0.65090 -0.04000
C 	C 	0.44640 0.66260 0.59090 -0.28500
H 	H 	0.49320 0.70120 0.53900 0.13800
C 	C 	0.43040 0.56390 0.60270 0.20400
H 	H 	0.46550 0.53670 0.55680 -0.03800
C 	C 	0.36630 0.50440 0.67760 -0.27300
C 	C 	0.34020 0.40280 0.67910 0.48300
C 	C 	0.09170 0.98290 0.90170 0.22000
C 	C 	0.26810 0.93030 0.92500 -0.26500
H 	H 	0.31440 0.91610 0.98220 0.15200
C 	C 	0.36900 0.90070 0.86180 0.16700
H 	H 	0.48500 0.86470 0.87720 -0.02200
C 	C 	0.30790 0.92140 0.77660 -0.25800
H 	H 	0.38070 0.90110 0.73440 0.12100
C 	C 	0.13330 0.97400 0.75510 0.16800
H 	H 	0.08640 0.98670 0.69830 -0.02200
C 	C 	0.03150 0.00660 0.81570 -0.26900
C 	C 	0.84940 0.06580 0.78750 0.44200
C 	C 	0.32250 0.10150 0.46160 0.28900
C 	C 	0.29110 0.10730 0.37590 -0.35700
H 	H 	0.34380 0.05540 0.35350 0.17100
C 	C 	0.18130 0.19030 0.32370 0.29200
H 	H 	0.16030 0.19490 0.26480 -0.07200
C 	C 	0.10320 0.26480 0.35340 -0.35100
H 	H 	0.03030 0.32120 0.31540 0.15800
C 	C 	0.12980 0.25890 0.44120 0.24700
H 	H 	0.07360 0.31080 0.46290 -0.05500
C 	C 	0.24050 0.17520 0.49620 -0.30900
C 	C 	0.27590 0.17330 0.58840 0.50600
C 	C 	0.53800 0.51770 0.96250 -0.09400
H 	H 	0.51730 0.58790 0.93780 0.06400
C 	C 	0.65230 0.46070 0.91190 0.15800
C 	C 	0.68180 0.35550 0.93790 -0.19100
H 	H 	0.63130 0.31870 0.98950 0.10700
C 	C 	0.78620 0.30720 0.88610 0.12200
H 	H 	0.80570 0.23670 0.90370 -0.00500
C 	C 	0.83150 0.45530 0.78770 0.13800
H 	H 	0.88270 0.49090 0.73580 -0.02700
C 	C 	0.72730 0.50810 0.83630 -0.21600
H 	H 	0.70810 0.57860 0.81640 0.10700
N 	N 	0.27970 0.40210 0.84340 -0.11700
N 	N 	0.24390 0.49580 0.82630 -0.11700
N 	N 	0.97500 0.01760 0.96000 -0.10800
N 	N 	0.43450 0.01560 0.51950 -0.11100
N 	N 	0.86150 0.35590 0.81180 -0.25600
O 	O 	0.25530 0.18920 0.81770 -0.54500
O 	O 	0.50650 0.17420 0.88560 -0.39300
O 	O 	0.47550 0.33750 0.68280 -0.46500
O 	O 	0.18280 0.39320 0.67100 -0.46700
O 	O 	0.82570 0.16020 0.76320 -0.53400
O 	O 	0.72410 0.02170 0.78640 -0.42300
O 	O 	0.14300 0.19570 0.62990 -0.50000
O 	O 	0.43330 0.14990 0.61560 -0.49000
Cd	Cd	0.97900 0.72970 0.27370 1.23600
Cd	Cd	0.48581 0.83375 0.26227 1.24500
C 	C 	0.66030 0.80170 0.11890 0.42800
C 	C 	0.75560 0.75750 0.05420 -0.27400
C 	C 	0.81020 0.81470 0.97670 0.21500
H 	H 	0.78750 0.88500 0.96280 -0.02600
C 	C 	0.89780 0.77130 0.91870 -0.27600
H 	H 	0.93620 0.81190 0.86530 0.14000
C 	C 	0.93090 0.66900 0.93700 0.18800
H 	H 	0.99480 0.63970 0.89730 -0.03900
C 	C 	0.86880 0.60890 0.01500 -0.26900
H 	H 	0.88650 0.53900 0.02670 0.13300
C 	C 	0.78230 0.65150 0.07460 0.22700
C 	C 	0.68720 0.45360 0.25510 0.24300
C 	C 	0.67500 0.35530 0.26540 -0.29900
H 	H 	0.71170 0.32710 0.22030 0.13600
C 	C 	0.60860 0.29860 0.34240 0.21200
H 	H 	0.60110 0.23170 0.34910 -0.04000
C 	C 	0.55360 0.33740 0.40910 -0.28500
H 	H 	0.50680 0.29880 0.46100 0.13800
C 	C 	0.56960 0.43610 0.39730 0.20400
H 	H 	0.53450 0.46330 0.44320 -0.03800
C 	C 	0.63370 0.49560 0.32240 -0.27300
C 	C 	0.65980 0.59720 0.32090 0.48300
C 	C 	0.90830 0.01710 0.09830 0.22000
C 	C 	0.73190 0.06970 0.07500 -0.26500
H 	H 	0.68560 0.08390 0.01780 0.15200
C 	C 	0.63100 0.09930 0.13820 0.16700
H 	H 	0.51500 0.13530 0.12280 -0.02200
C 	C 	0.69210 0.07860 0.22340 -0.25800
H 	H 	0.61930 0.09890 0.26560 0.12100
C 	C 	0.86670 0.02600 0.24490 0.16800
H 	H 	0.91360 0.01330 0.30170 -0.02200
C 	C 	0.96850 0.99340 0.18430 -0.26900
C 	C 	0.15060 0.93420 0.21250 0.44200
C 	C 	0.67750 0.89850 0.53840 0.28900
C 	C 	0.70890 0.89270 0.62410 -0.35700
H 	H 	0.65620 0.94460 0.64650 0.17100
C 	C 	0.81870 0.80970 0.67630 0.29200
H 	H 	0.83970 0.80510 0.73520 -0.07200
C 	C 	0.89680 0.73520 0.64660 -0.35100
H 	H 	0.96970 0.67880 0.68460 0.15800
C 	C 	0.87020 0.74110 0.55880 0.24700
H 	H 	0.92640 0.68920 0.53710 -0.05500
C 	C 	0.75950 0.82480 0.50380 -0.30900
C 	C 	0.72410 0.82670 0.41160 0.50600
C 	C 	0.46200 0.48230 0.03750 -0.09400
H 	H 	0.48270 0.41210 0.06220 0.06400
C 	C 	0.34770 0.53930 0.08810 0.15800
C 	C 	0.31820 0.64450 0.06210 -0.19100
H 	H 	0.36870 0.68130 0.01050 0.10700
C 	C 	0.21380 0.69280 0.11390 0.12200
H 	H 	0.19430 0.76330 0.09630 -0.00500
C 	C 	0.16850 0.54470 0.21230 0.13800
H 	H 	0.11730 0.50910 0.26420 -0.02700
C 	C 	0.27270 0.49190 0.16370 -0.21600
H 	H 	0.29190 0.42140 0.18360 0.10700
N 	N 	0.72030 0.59790 0.15660 -0.11700
N 	N 	0.75610 0.50420 0.17370 -0.11700
N 	N 	0.02500 0.98240 0.04000 -0.10800
N 	N 	0.56550 0.98440 0.48050 -0.11100
N 	N 	0.13850 0.64410 0.18820 -0.25600
O 	O 	0.74470 0.81080 0.18230 -0.54500
O 	O 	0.49350 0.82580 0.11440 -0.39300
O 	O 	0.52450 0.66250 0.31720 -0.46500
O 	O 	0.81720 0.60680 0.32900 -0.46700
O 	O 	0.17430 0.83980 0.23680 -0.53400
O 	O 	0.27590 0.97830 0.21360 -0.42300
O 	O 	0.85700 0.80430 0.37010 -0.50000
O 	O 	0.56670 0.85010 0.38440 -0.49000
