data_crystal

_cell_length_a 15.63040
_cell_length_b 17.77320
_cell_length_c 17.24820
_cell_angle_alpha 90.00000
_cell_angle_beta  91.59100
_cell_angle_gamma 90.00000

_symmetry_space_group_name_	'P 1'
_symmetry_space_group_name_H-M	'P 1'

loop_
_symmetry_equiv_pos_as_xyz
  x,y,z

loop_
_atom_site_label
_atom_site_type_symbol
_atom_site_fract_x
_atom_site_fract_y
_atom_site_fract_z
_atom_site_charge
Zn	Zn	0.46970 0.64139 0.67501 1.21100
Zn	Zn	0.46567 0.67756 0.26537 1.19300
N 	N 	0.38020 0.70140 0.73200 -0.26200
N 	N 	0.30660 0.76260 0.81760 -0.16200
N 	N 	0.30590 0.78180 0.10110 -0.15600
N 	N 	0.37740 0.72720 0.19670 -0.28000
N 	N 	0.09120 0.06730 0.89500 -0.26700
N 	N 	0.17400 0.97400 0.94300 -0.11600
O 	O 	0.55150 0.70200 0.61860 -0.46700
O 	O 	0.44150 0.75270 0.55970 -0.31100
O 	O 	0.52410 0.75660 0.32700 -0.45900
O 	O 	0.52170 0.67920 0.42840 -0.30800
O 	O 	0.95540 0.09700 0.26330 -0.46500
O 	O 	0.92770 0.18090 0.35260 -0.34000
O 	O 	0.96670 0.09590 0.73600 -0.44000
O 	O 	0.89850 0.03750 0.83000 -0.32700
C 	C 	0.52130 0.74240 0.56830 0.35400
C 	C 	0.58160 0.79290 0.52560 -0.04500
C 	C 	0.63300 0.84170 0.57280 -0.02900
H 	H 	0.62970 0.83920 0.62650 0.04700
C 	C 	0.68920 0.89400 0.53900 -0.01500
C 	C 	0.68920 0.90140 0.45900 -0.01800
C 	C 	0.63830 0.85150 0.41210 -0.03000
H 	H 	0.63990 0.85520 0.35830 0.05600
C 	C 	0.58540 0.79670 0.44550 -0.04600
C 	C 	0.54030 0.74090 0.39660 0.32300
C 	C 	0.74230 0.95990 0.41950 0.07200
C 	C 	0.79560 0.93990 0.36160 -0.13900
H 	H 	0.79430 0.89080 0.34310 0.07900
C 	C 	0.85150 0.99120 0.32990 0.04800
H 	H 	0.88880 0.97590 0.29180 0.00900
C 	C 	0.85170 0.06650 0.35560 -0.11500
C 	C 	0.79730 0.08680 0.41140 0.05300
H 	H 	0.79800 0.13630 0.42920 0.02900
C 	C 	0.74050 0.03610 0.44300 -0.12200
H 	H 	0.70150 0.05210 0.47930 0.08400
C 	C 	0.91520 0.12020 0.32200 0.34100
C 	C 	0.74730 0.93620 0.59320 0.06400
C 	C 	0.71720 0.96230 0.66230 -0.12100
H 	H 	0.66010 0.95480 0.67390 0.07200
C 	C 	0.77030 0.99950 0.71460 0.01600
H 	H 	0.74830 0.01560 0.76130 0.03100
C 	C 	0.85160 0.01290 0.70030 -0.09900
C 	C 	0.88550 0.98620 0.63050 0.01000
H 	H 	0.94270 0.99410 0.61950 0.03300
C 	C 	0.83260 0.94860 0.57930 -0.11800
H 	H 	0.85500 0.93070 0.53340 0.07400
C 	C 	0.90980 0.05120 0.75990 0.31500
C 	C 	0.29670 0.71400 0.70340 -0.01200
H 	H 	0.27490 0.69770 0.65560 0.02700
C 	C 	0.25440 0.75200 0.75410 0.01800
H 	H 	0.19840 0.76900 0.74810 0.03300
C 	C 	0.38200 0.73080 0.80020 0.11800
H 	H 	0.42970 0.73020 0.83360 -0.01900
C 	C 	0.28470 0.80060 0.88890 0.22200
C 	C 	0.30880 0.77360 0.95980 -0.28600
H 	H 	0.34190 0.73020 0.96380 0.13600
C 	C 	0.28420 0.81050 0.02570 0.23200
C 	C 	0.23350 0.87720 0.02000 -0.29300
H 	H 	0.21770 0.90280 0.06430 0.15300
C 	C 	0.20930 0.90200 0.94960 0.25000
C 	C 	0.23570 0.86810 0.88110 -0.27400
H 	H 	0.22200 0.88860 0.83270 0.13700
C 	C 	0.37840 0.74380 0.12420 0.11700
H 	H 	0.42270 0.73150 0.09160 -0.01400
C 	C 	0.30050 0.75250 0.22280 0.00200
H 	H 	0.28200 0.74650 0.27320 0.00300
C 	C 	0.25700 0.78600 0.16760 0.00100
H 	H 	0.20360 0.80840 0.17160 0.04700
C 	C 	0.12980 0.00590 0.88480 0.14100
H 	H 	0.14810 0.99300 0.83570 -0.02100
C 	C 	0.19070 0.04050 0.99160 -0.00400
H 	H 	0.22720 0.04300 0.03510 0.03100
C 	C 	0.14320 0.09760 0.96100 -0.03300
H 	H 	0.14330 0.14710 0.97840 0.04100
N 	N 	0.14300 0.96300 0.94100 -0.05400
C 	C 	0.08250 0.97890 0.99300 0.00600
H 	H 	0.06860 0.95290 0.03770 0.03800
C 	C 	0.04680 0.04370 0.96250 -0.02200
H 	H 	0.00030 0.06870 0.98290 0.03400
Zn	Zn	0.03030 0.14139 0.82499 1.20900
Zn	Zn	0.03433 0.17756 0.23463 1.18900
N 	N 	0.11980 0.20140 0.76800 -0.26400
N 	N 	0.19340 0.26260 0.68240 -0.16400
N 	N 	0.19410 0.28180 0.39890 -0.15800
N 	N 	0.12260 0.22720 0.30330 -0.28200
N 	N 	0.40880 0.56730 0.60500 -0.27200
N 	N 	0.32600 0.47400 0.55700 -0.14000
O 	O 	0.94850 0.20200 0.88140 -0.46700
O 	O 	0.05850 0.25270 0.94030 -0.31400
O 	O 	0.97590 0.25660 0.17300 -0.45700
O 	O 	0.97830 0.17920 0.07160 -0.30500
O 	O 	0.54460 0.59700 0.23670 -0.47000
O 	O 	0.57230 0.68090 0.14740 -0.34300
O 	O 	0.53330 0.59590 0.76400 -0.44600
O 	O 	0.60150 0.53750 0.67000 -0.33200
C 	C 	0.97870 0.24240 0.93170 0.35800
C 	C 	0.91840 0.29290 0.97440 -0.05000
C 	C 	0.86700 0.34170 0.92720 -0.02300
H 	H 	0.87030 0.33920 0.87350 0.04500
C 	C 	0.81080 0.39400 0.96100 -0.02500
C 	C 	0.81080 0.40140 0.04100 -0.01500
C 	C 	0.86170 0.35150 0.08790 -0.03300
H 	H 	0.86010 0.35520 0.14170 0.05700
C 	C 	0.91460 0.29670 0.05450 -0.04100
C 	C 	0.95970 0.24090 0.10340 0.32100
C 	C 	0.75770 0.45990 0.08050 0.08300
C 	C 	0.70440 0.43990 0.13840 -0.15100
H 	H 	0.70570 0.39080 0.15690 0.08400
C 	C 	0.64850 0.49120 0.17010 0.06600
H 	H 	0.61120 0.47590 0.20820 0.00600
C 	C 	0.64830 0.56650 0.14440 -0.13100
C 	C 	0.70270 0.58680 0.08860 0.06600
H 	H 	0.70200 0.63630 0.07080 0.02400
C 	C 	0.75950 0.53610 0.05700 -0.13700
H 	H 	0.79850 0.55210 0.02070 0.08900
C 	C 	0.58480 0.62020 0.17800 0.34600
C 	C 	0.75270 0.43620 0.90680 0.08600
C 	C 	0.78280 0.46230 0.83770 -0.15300
H 	H 	0.83990 0.45480 0.82610 0.08300
C 	C 	0.72970 0.49950 0.78540 0.06200
H 	H 	0.75170 0.51560 0.73870 0.01200
C 	C 	0.64840 0.51290 0.79970 -0.13600
C 	C 	0.61450 0.48620 0.86950 0.04400
H 	H 	0.55730 0.49410 0.88050 0.02400
C 	C 	0.66740 0.44860 0.92070 -0.14400
H 	H 	0.64500 0.43070 0.96660 0.08300
C 	C 	0.59020 0.55120 0.74010 0.32700
C 	C 	0.20330 0.21400 0.79660 -0.01300
H 	H 	0.22510 0.19770 0.84440 0.02700
C 	C 	0.24560 0.25200 0.74590 0.01800
H 	H 	0.30160 0.26900 0.75190 0.03300
C 	C 	0.11800 0.23080 0.69980 0.11800
H 	H 	0.07030 0.23020 0.66640 -0.02000
C 	C 	0.21530 0.30060 0.61110 0.22300
C 	C 	0.19120 0.27360 0.54020 -0.28800
H 	H 	0.15810 0.23020 0.53620 0.13600
C 	C 	0.21580 0.31050 0.47430 0.23400
C 	C 	0.26650 0.37720 0.48000 -0.29300
H 	H 	0.28230 0.40280 0.43570 0.15400
C 	C 	0.29070 0.40200 0.55040 0.25200
C 	C 	0.26430 0.36810 0.61890 -0.27600
H 	H 	0.27800 0.38860 0.66730 0.13700
C 	C 	0.12160 0.24380 0.37580 0.11700
H 	H 	0.07730 0.23150 0.40840 -0.01500
C 	C 	0.19950 0.25250 0.27720 0.00100
H 	H 	0.21800 0.24650 0.22680 0.00200
C 	C 	0.24300 0.28600 0.33240 0.00100
H 	H 	0.29640 0.30840 0.32840 0.04700
C 	C 	0.37020 0.50590 0.61520 0.15800
H 	H 	0.35190 0.49300 0.66430 -0.03100
C 	C 	0.30930 0.54050 0.50840 0.01100
H 	H 	0.27280 0.54300 0.46490 0.02800
C 	C 	0.35680 0.59760 0.53900 -0.04200
H 	H 	0.35670 0.64710 0.52160 0.04500
N 	N 	0.35700 0.46300 0.55900 -0.03500
C 	C 	0.41750 0.47890 0.50700 -0.02300
H 	H 	0.43140 0.45290 0.46230 0.04700
C 	C 	0.45320 0.54370 0.53750 -0.00200
H 	H 	0.49970 0.56870 0.51710 0.03000
Zn	Zn	0.53030 0.35861 0.32499 1.21000
Zn	Zn	0.53433 0.32244 0.73463 1.19200
N 	N 	0.61980 0.29860 0.26800 -0.26300
N 	N 	0.69340 0.23740 0.18240 -0.16300
N 	N 	0.69410 0.21820 0.89890 -0.15700
N 	N 	0.62260 0.27280 0.80330 -0.28100
N 	N 	0.90880 0.93270 0.10500 -0.26800
N 	N 	0.82600 0.02600 0.05700 -0.11700
O 	O 	0.44850 0.29800 0.38140 -0.46700
O 	O 	0.55850 0.24730 0.44030 -0.31100
O 	O 	0.47590 0.24340 0.67300 -0.45900
O 	O 	0.47830 0.32080 0.57160 -0.30800
O 	O 	0.04460 0.90300 0.73670 -0.46500
O 	O 	0.07230 0.81910 0.64740 -0.34000
O 	O 	0.03330 0.90410 0.26400 -0.44000
O 	O 	0.10150 0.96250 0.17000 -0.32700
C 	C 	0.47870 0.25760 0.43170 0.35400
C 	C 	0.41840 0.20710 0.47440 -0.04500
C 	C 	0.36700 0.15830 0.42720 -0.02900
H 	H 	0.37030 0.16080 0.37350 0.04700
C 	C 	0.31080 0.10600 0.46100 -0.01500
C 	C 	0.31080 0.09860 0.54100 -0.01800
C 	C 	0.36170 0.14850 0.58790 -0.03000
H 	H 	0.36010 0.14480 0.64170 0.05600
C 	C 	0.41460 0.20330 0.55450 -0.04600
C 	C 	0.45970 0.25910 0.60340 0.32300
C 	C 	0.25770 0.04010 0.58050 0.07200
C 	C 	0.20440 0.06010 0.63840 -0.13900
H 	H 	0.20570 0.10920 0.65690 0.07900
C 	C 	0.14850 0.00880 0.67010 0.04800
H 	H 	0.11120 0.02410 0.70820 0.00900
C 	C 	0.14830 0.93350 0.64440 -0.11500
C 	C 	0.20270 0.91320 0.58860 0.05300
H 	H 	0.20200 0.86370 0.57080 0.02900
C 	C 	0.25950 0.96390 0.55700 -0.12200
H 	H 	0.29850 0.94790 0.52070 0.08400
C 	C 	0.08480 0.87980 0.67800 0.34100
C 	C 	0.25270 0.06380 0.40680 0.06400
C 	C 	0.28280 0.03770 0.33770 -0.12100
H 	H 	0.33990 0.04520 0.32610 0.07200
C 	C 	0.22970 0.00050 0.28540 0.01600
H 	H 	0.25170 0.98440 0.23870 0.03100
C 	C 	0.14840 0.98710 0.29970 -0.09900
C 	C 	0.11450 0.01380 0.36950 0.01000
H 	H 	0.05730 0.00590 0.38050 0.03300
C 	C 	0.16740 0.05140 0.42070 -0.11800
H 	H 	0.14500 0.06930 0.46660 0.07400
C 	C 	0.09020 0.94880 0.24010 0.31500
C 	C 	0.70330 0.28600 0.29660 -0.01200
H 	H 	0.72510 0.30230 0.34440 0.02700
C 	C 	0.74560 0.24800 0.24590 0.01800
H 	H 	0.80160 0.23100 0.25190 0.03300
C 	C 	0.61800 0.26920 0.19980 0.11800
H 	H 	0.57030 0.26980 0.16640 -0.01900
C 	C 	0.71530 0.19940 0.11110 0.22200
C 	C 	0.69120 0.22640 0.04020 -0.28600
H 	H 	0.65810 0.26980 0.03620 0.13600
C 	C 	0.71580 0.18950 0.97430 0.23200
C 	C 	0.76650 0.12280 0.98000 -0.29300
H 	H 	0.78230 0.09720 0.93570 0.15300
C 	C 	0.79070 0.09800 0.05040 0.25000
C 	C 	0.76430 0.13190 0.11890 -0.27400
H 	H 	0.77800 0.11140 0.16730 0.13700
C 	C 	0.62160 0.25620 0.87580 0.11700
H 	H 	0.57730 0.26850 0.90840 -0.01400
C 	C 	0.69950 0.24750 0.77720 0.00200
H 	H 	0.71800 0.25350 0.72680 0.00300
C 	C 	0.74300 0.21400 0.83240 0.00100
H 	H 	0.79640 0.19160 0.82840 0.04700
C 	C 	0.87020 0.99410 0.11520 0.14100
H 	H 	0.85190 0.00700 0.16430 -0.02100
C 	C 	0.80930 0.95950 0.00840 -0.00400
H 	H 	0.77280 0.95700 0.96490 0.03100
C 	C 	0.85680 0.90240 0.03900 -0.03300
H 	H 	0.85670 0.85290 0.02160 0.04100
N 	N 	0.85700 0.03700 0.05900 -0.05400
C 	C 	0.91750 0.02110 0.00700 0.00600
H 	H 	0.93140 0.04710 0.96230 0.03800
C 	C 	0.95320 0.95630 0.03750 -0.02200
H 	H 	0.99970 0.93130 0.01710 0.03400
Zn	Zn	0.96970 0.85861 0.17501 1.20900
Zn	Zn	0.96567 0.82244 0.76537 1.18900
N 	N 	0.88020 0.79860 0.23200 -0.26400
N 	N 	0.80660 0.73740 0.31760 -0.16400
N 	N 	0.80590 0.71820 0.60110 -0.15800
N 	N 	0.87740 0.77280 0.69670 -0.28200
N 	N 	0.59120 0.43270 0.39500 -0.27200
N 	N 	0.67400 0.52600 0.44300 -0.14000
O 	O 	0.05150 0.79800 0.11860 -0.46700
O 	O 	0.94150 0.74730 0.05970 -0.31400
O 	O 	0.02410 0.74340 0.82700 -0.45700
O 	O 	0.02170 0.82080 0.92840 -0.30500
O 	O 	0.45540 0.40300 0.76330 -0.47000
O 	O 	0.42770 0.31910 0.85260 -0.34300
O 	O 	0.46670 0.40410 0.23600 -0.44600
O 	O 	0.39850 0.46250 0.33000 -0.33200
C 	C 	0.02130 0.75760 0.06830 0.35800
C 	C 	0.08160 0.70710 0.02560 -0.05000
C 	C 	0.13300 0.65830 0.07280 -0.02300
H 	H 	0.12970 0.66080 0.12650 0.04500
C 	C 	0.18920 0.60600 0.03900 -0.02500
C 	C 	0.18920 0.59860 0.95900 -0.01500
C 	C 	0.13830 0.64850 0.91210 -0.03300
H 	H 	0.13990 0.64480 0.85830 0.05700
C 	C 	0.08540 0.70330 0.94550 -0.04100
C 	C 	0.04030 0.75910 0.89660 0.32100
C 	C 	0.24230 0.54010 0.91950 0.08300
C 	C 	0.29560 0.56010 0.86160 -0.15100
H 	H 	0.29430 0.60920 0.84310 0.08400
C 	C 	0.35150 0.50880 0.82990 0.06600
H 	H 	0.38880 0.52410 0.79180 0.00600
C 	C 	0.35170 0.43350 0.85560 -0.13100
C 	C 	0.29730 0.41320 0.91140 0.06600
H 	H 	0.29800 0.36370 0.92920 0.02400
C 	C 	0.24050 0.46390 0.94300 -0.13700
H 	H 	0.20150 0.44790 0.97930 0.08900
C 	C 	0.41520 0.37980 0.82200 0.34600
C 	C 	0.24730 0.56380 0.09320 0.08600
C 	C 	0.21720 0.53770 0.16230 -0.15300
H 	H 	0.16010 0.54520 0.17390 0.08300
C 	C 	0.27030 0.50050 0.21460 0.06200
H 	H 	0.24830 0.48440 0.26130 0.01200
C 	C 	0.35160 0.48710 0.20030 -0.13600
C 	C 	0.38550 0.51380 0.13050 0.04400
H 	H 	0.44270 0.50590 0.11950 0.02400
C 	C 	0.33260 0.55140 0.07930 -0.14400
H 	H 	0.35500 0.56930 0.03340 0.08300
C 	C 	0.40980 0.44880 0.25990 0.32700
C 	C 	0.79670 0.78600 0.20340 -0.01300
H 	H 	0.77490 0.80230 0.15560 0.02700
C 	C 	0.75440 0.74800 0.25410 0.01800
H 	H 	0.69840 0.73100 0.24810 0.03300
C 	C 	0.88200 0.76920 0.30020 0.11800
H 	H 	0.92970 0.76980 0.33360 -0.02000
C 	C 	0.78470 0.69940 0.38890 0.22300
C 	C 	0.80880 0.72640 0.45980 -0.28800
H 	H 	0.84190 0.76980 0.46380 0.13600
C 	C 	0.78420 0.68950 0.52570 0.23400
C 	C 	0.73350 0.62280 0.52000 -0.29300
H 	H 	0.71770 0.59720 0.56430 0.15400
C 	C 	0.70930 0.59800 0.44960 0.25200
C 	C 	0.73570 0.63190 0.38110 -0.27600
H 	H 	0.72200 0.61140 0.33270 0.13700
C 	C 	0.87840 0.75620 0.62420 0.11700
H 	H 	0.92270 0.76850 0.59160 -0.01500
C 	C 	0.80050 0.74750 0.72280 0.00100
H 	H 	0.78200 0.75350 0.77320 0.00200
C 	C 	0.75700 0.71400 0.66760 0.00100
H 	H 	0.70360 0.69160 0.67160 0.04700
C 	C 	0.62980 0.49410 0.38480 0.15800
H 	H 	0.64810 0.50700 0.33570 -0.03100
C 	C 	0.69070 0.45950 0.49160 0.01100
H 	H 	0.72720 0.45700 0.53510 0.02800
C 	C 	0.64320 0.40240 0.46100 -0.04200
H 	H 	0.64330 0.35290 0.47840 0.04500
N 	N 	0.64300 0.53700 0.44100 -0.03500
C 	C 	0.58250 0.52110 0.49300 -0.02300
H 	H 	0.56860 0.54710 0.53770 0.04700
C 	C 	0.54680 0.45630 0.46250 -0.00200
H 	H 	0.50030 0.43130 0.48290 0.03000
