data_crystal

_cell_length_a 18.66600
_cell_length_b 13.99800
_cell_length_c 27.17900
_cell_angle_alpha 90.00000
_cell_angle_beta  131.03200
_cell_angle_gamma 90.00000

_symmetry_space_group_name_	'P 1'
_symmetry_space_group_name_H-M	'P 1'

loop_
_symmetry_equiv_pos_as_xyz
  x,y,z

loop_
_atom_site_label
_atom_site_type_symbol
_atom_site_fract_x
_atom_site_fract_y
_atom_site_fract_z
_atom_site_charge
C 	C 	0.40150 0.94540 0.92750 0.11100
H 	H 	0.39900 0.97980 0.95560 -0.05500
C 	C 	0.39750 0.99430 0.88310 -0.20800
H 	H 	0.38980 0.06020 0.88030 0.09900
C 	C 	0.40430 0.94920 0.84290 0.10300
C 	C 	0.41690 0.85430 0.85090 -0.17700
H 	H 	0.42530 0.81980 0.82580 0.09500
C 	C 	0.41770 0.80660 0.89620 0.10000
H 	H 	0.42480 0.74060 0.89980 -0.01600
C 	C 	0.39560 0.00100 0.79020 0.04500
C 	C 	0.39810 0.09730 0.78800 -0.11600
H 	H 	0.40770 0.13320 0.82060 0.06500
C 	C 	0.38650 0.14450 0.73740 0.04400
C 	C 	0.37880 0.08910 0.69290 -0.11800
H 	H 	0.37230 0.11810 0.65930 0.06900
C 	C 	0.37270 0.93140 0.64910 0.06700
C 	C 	0.36910 0.97220 0.60060 -0.13700
H 	H 	0.36580 0.03830 0.59580 0.07700
C 	C 	0.37030 0.91530 0.55950 0.08400
H 	H 	0.36630 0.94470 0.52700 -0.00400
C 	C 	0.37510 0.83350 0.65100 -0.13700
H 	H 	0.37380 0.80150 0.68040 0.08400
C 	C 	0.37960 0.78170 0.60960 0.07800
H 	H 	0.38480 0.71560 0.61390 -0.03700
C 	C 	0.38480 0.24970 0.73170 0.06200
C 	C 	0.38060 0.31030 0.77130 -0.13900
H 	H 	0.37990 0.28440 0.80250 0.08500
C 	C 	0.37780 0.40790 0.76370 0.08400
H 	H 	0.37670 0.44620 0.79120 0.01300
C 	C 	0.38180 0.39580 0.68430 0.09900
H 	H 	0.38380 0.42470 0.65430 -0.00200
C 	C 	0.38510 0.29710 0.68710 -0.14200
H 	H 	0.38750 0.26250 0.65900 0.07600
C 	C 	0.57820 0.68670 0.07760 0.31500
C 	C 	0.67210 0.63170 0.12100 -0.10800
C 	C 	0.75430 0.67580 0.17370 0.04600
H 	H 	0.75250 0.74000 0.18160 0.03100
C 	C 	0.83910 0.62690 0.21490 -0.11800
C 	C 	0.84210 0.53330 0.20070 0.06200
H 	H 	0.89910 0.49980 0.22810 0.03500
C 	C 	0.76250 0.48810 0.14680 -0.14000
C 	C 	0.67660 0.53820 0.10660 0.05200
H 	H 	0.62220 0.50860 0.07000 0.04500
C 	C 	0.93080 0.67420 0.27120 0.32200
C 	C 	0.76940 0.38780 0.13070 0.41000
C 	C 	0.12240 0.71710 0.97910 0.07000
H 	H 	0.12570 0.78300 0.98440 -0.02900
C 	C 	0.12620 0.66220 0.02200 -0.13200
H 	H 	0.13240 0.69110 0.05550 0.07300
C 	C 	0.12070 0.56450 0.01630 0.05900
C 	C 	0.10950 0.52800 0.96370 -0.12400
H 	H 	0.10330 0.46250 0.95640 0.08200
C 	C 	0.10740 0.58850 0.92190 0.07200
H 	H 	0.10100 0.56180 0.88780 -0.00200
C 	C 	0.12380 0.50690 0.06250 0.07700
C 	C 	0.13010 0.54550 0.10980 -0.13500
H 	H 	0.13290 0.61160 0.11440 0.07400
C 	C 	0.13250 0.48960 0.15120 0.06900
C 	C 	0.13090 0.39310 0.14790 -0.13400
H 	H 	0.13370 0.35650 0.17770 0.08200
C 	C 	0.12510 0.35000 0.10010 0.07600
C 	C 	0.13700 0.53900 0.20180 0.05900
C 	C 	0.16250 0.63470 0.21830 -0.13400
H 	H 	0.17910 0.66990 0.19810 0.07600
C 	C 	0.16330 0.67780 0.26450 0.07900
H 	H 	0.18470 0.74060 0.27580 -0.00500
C 	C 	0.11440 0.54550 0.27920 0.08400
H 	H 	0.09740 0.51270 0.30000 -0.01300
C 	C 	0.11500 0.49500 0.23580 -0.14500
H 	H 	0.10040 0.43020 0.22940 0.09500
C 	C 	0.11970 0.24260 0.09310 0.04800
C 	C 	0.13860 0.18560 0.14230 -0.11500
H 	H 	0.15340 0.21360 0.17900 0.07500
C 	C 	0.13520 0.08670 0.13660 0.05600
H 	H 	0.14790 0.04850 0.16950 0.02600
N 	N 	0.11300 0.04480 0.08160 -0.12100
C 	C 	0.09410 0.10180 0.03240 0.05400
H 	H 	0.07930 0.07380 0.99560 0.01500
C 	C 	0.09750 0.20080 0.03810 -0.11600
H 	H 	0.08480 0.23890 0.00520 0.07600
C 	C 	0.38050 0.99470 0.69660 0.07000
Cd	Cd	0.39886 0.76300 0.00104 1.17600
Cd	Cd	0.11916 0.77715 0.86077 1.18500
N 	N 	0.40870 0.85160 0.93360 -0.27500
N 	N 	0.37680 0.82210 0.56420 -0.25700
N 	N 	0.11430 0.68220 0.92900 -0.25100
N 	N 	0.13620 0.63700 0.29350 -0.24700
N 	N 	0.37640 0.45060 0.71930 -0.13900
N 	N 	0.38640 0.94720 0.74370 -0.12400
N 	N 	0.12170 0.40770 0.05650 -0.12700
O 	O 	0.50930 0.64500 0.02700 -0.37200
O 	O 	0.57290 0.76820 0.09350 -0.39400
O 	O 	0.85060 0.35180 0.16870 -0.46100
O 	O 	0.69800 0.34850 0.08190 -0.48400
O 	O 	0.94020 0.76170 0.27210 -0.35600
O 	O 	0.99700 0.62060 0.31630 -0.41900
C 	C 	0.59850 0.44540 0.57250 0.11200
H 	H 	0.60100 0.47980 0.54440 -0.05500
C 	C 	0.60250 0.49430 0.61690 -0.20800
H 	H 	0.61020 0.56020 0.61970 0.10000
C 	C 	0.59570 0.44920 0.65710 0.10300
C 	C 	0.58310 0.35430 0.64910 -0.17700
H 	H 	0.57470 0.31980 0.67420 0.09500
C 	C 	0.58230 0.30660 0.60380 0.10000
H 	H 	0.57520 0.24060 0.60020 -0.01700
C 	C 	0.60440 0.50100 0.70980 0.04600
C 	C 	0.60190 0.59730 0.71200 -0.11600
H 	H 	0.59230 0.63320 0.67940 0.06500
C 	C 	0.61350 0.64450 0.76260 0.04500
C 	C 	0.62120 0.58910 0.80710 -0.11900
H 	H 	0.62770 0.61810 0.84070 0.06900
C 	C 	0.62730 0.43140 0.85090 0.06600
C 	C 	0.63090 0.47220 0.89940 -0.13500
H 	H 	0.63420 0.53830 0.90420 0.07700
C 	C 	0.62970 0.41530 0.94050 0.08300
H 	H 	0.63370 0.44470 0.97300 -0.00300
C 	C 	0.62490 0.33350 0.84900 -0.13700
H 	H 	0.62620 0.30150 0.81960 0.08400
C 	C 	0.62040 0.28170 0.89040 0.07700
H 	H 	0.61520 0.21560 0.88610 -0.03700
C 	C 	0.61520 0.74970 0.76830 0.06200
C 	C 	0.61940 0.81030 0.72870 -0.13900
H 	H 	0.62010 0.78440 0.69750 0.08500
C 	C 	0.62220 0.90790 0.73630 0.08400
H 	H 	0.62330 0.94620 0.70880 0.01300
C 	C 	0.61820 0.89580 0.81570 0.09900
H 	H 	0.61620 0.92470 0.84570 -0.00100
C 	C 	0.61490 0.79710 0.81290 -0.14200
H 	H 	0.61250 0.76250 0.84100 0.07600
C 	C 	0.42180 0.18670 0.42240 0.31600
C 	C 	0.32790 0.13170 0.37900 -0.11200
C 	C 	0.24570 0.17580 0.32630 0.05100
H 	H 	0.24750 0.24000 0.31840 0.03000
C 	C 	0.16090 0.12690 0.28510 -0.12400
C 	C 	0.15790 0.03330 0.29930 0.07400
H 	H 	0.10090 0.99980 0.27190 0.03000
C 	C 	0.23750 0.98810 0.35320 -0.14900
C 	C 	0.32340 0.03820 0.39340 0.05900
H 	H 	0.37780 0.00860 0.43000 0.04200
C 	C 	0.06920 0.17420 0.22880 0.32400
C 	C 	0.23060 0.88780 0.36930 0.41300
C 	C 	0.87760 0.21710 0.52090 0.06800
H 	H 	0.87430 0.28300 0.51560 -0.02900
C 	C 	0.87380 0.16220 0.47800 -0.13100
H 	H 	0.86760 0.19110 0.44450 0.07300
C 	C 	0.87930 0.06450 0.48370 0.06000
C 	C 	0.89050 0.02800 0.53630 -0.13000
H 	H 	0.89670 0.96250 0.54360 0.08500
C 	C 	0.89260 0.08850 0.57810 0.07400
H 	H 	0.89900 0.06180 0.61220 -0.00300
C 	C 	0.87620 0.00690 0.43750 0.07700
C 	C 	0.86990 0.04550 0.39020 -0.14000
H 	H 	0.86710 0.11160 0.38560 0.07600
C 	C 	0.86750 0.98960 0.34880 0.07600
C 	C 	0.86910 0.89310 0.35210 -0.13800
H 	H 	0.86630 0.85650 0.32230 0.08400
C 	C 	0.87490 0.85000 0.39990 0.07700
C 	C 	0.86300 0.03900 0.29820 0.05200
C 	C 	0.83750 0.13470 0.28170 -0.13000
H 	H 	0.82090 0.16990 0.30190 0.07400
C 	C 	0.83670 0.17780 0.23550 0.07700
H 	H 	0.81530 0.24060 0.22420 -0.00400
C 	C 	0.88560 0.04550 0.22080 0.07900
H 	H 	0.90260 0.01270 0.20000 -0.01200
C 	C 	0.88500 0.99500 0.26420 -0.13800
H 	H 	0.89960 0.93020 0.27060 0.09200
C 	C 	0.88030 0.74260 0.40690 0.04800
C 	C 	0.86140 0.68560 0.35770 -0.11400
H 	H 	0.84660 0.71360 0.32100 0.07500
C 	C 	0.86480 0.58670 0.36340 0.05600
H 	H 	0.85210 0.54850 0.33050 0.02500
N 	N 	0.88700 0.54480 0.41840 -0.12100
C 	C 	0.90590 0.60180 0.46760 0.05300
H 	H 	0.92070 0.57380 0.50440 0.01500
C 	C 	0.90250 0.70080 0.46190 -0.11500
H 	H 	0.91520 0.73890 0.49480 0.07500
C 	C 	0.61950 0.49470 0.80340 0.07100
Cd	Cd	0.60114 0.26300 0.49896 1.17600
Cd	Cd	0.88084 0.27715 0.63923 1.18500
N 	N 	0.59130 0.35160 0.56640 -0.27600
N 	N 	0.62320 0.32210 0.93580 -0.25700
N 	N 	0.88570 0.18220 0.57100 -0.25100
N 	N 	0.86380 0.13700 0.20650 -0.24600
N 	N 	0.62360 0.95060 0.78070 -0.13900
N 	N 	0.61360 0.44720 0.75630 -0.12400
N 	N 	0.87830 0.90770 0.44350 -0.12600
O 	O 	0.49070 0.14500 0.47300 -0.37200
O 	O 	0.42710 0.26820 0.40650 -0.39500
O 	O 	0.14940 0.85180 0.33130 -0.46200
O 	O 	0.30200 0.84850 0.41810 -0.48500
O 	O 	0.05980 0.26170 0.22790 -0.35800
O 	O 	0.00300 0.12060 0.18370 -0.41900
C 	C 	0.59850 0.05460 0.07250 0.11200
H 	H 	0.60100 0.02020 0.04440 -0.05400
C 	C 	0.60250 0.00570 0.11690 -0.20700
H 	H 	0.61020 0.93980 0.11970 0.10000
C 	C 	0.59570 0.05080 0.15710 0.10300
C 	C 	0.58310 0.14570 0.14910 -0.17700
H 	H 	0.57470 0.18020 0.17420 0.09500
C 	C 	0.58230 0.19340 0.10380 0.10000
H 	H 	0.57520 0.25940 0.10020 -0.01600
C 	C 	0.60440 0.99900 0.20980 0.04500
C 	C 	0.60190 0.90270 0.21200 -0.11600
H 	H 	0.59230 0.86680 0.17940 0.06500
C 	C 	0.61350 0.85550 0.26260 0.04400
C 	C 	0.62120 0.91090 0.30710 -0.11800
H 	H 	0.62770 0.88190 0.34070 0.06900
C 	C 	0.62730 0.06860 0.35090 0.06700
C 	C 	0.63090 0.02780 0.39940 -0.13700
H 	H 	0.63420 0.96170 0.40420 0.07700
C 	C 	0.62970 0.08470 0.44050 0.08400
H 	H 	0.63370 0.05530 0.47300 -0.00400
C 	C 	0.62490 0.16650 0.34900 -0.13700
H 	H 	0.62620 0.19850 0.31960 0.08400
C 	C 	0.62040 0.21830 0.39040 0.07800
H 	H 	0.61520 0.28440 0.38610 -0.03700
C 	C 	0.61520 0.75030 0.26830 0.06200
C 	C 	0.61940 0.68970 0.22870 -0.13900
H 	H 	0.62010 0.71560 0.19750 0.08500
C 	C 	0.62220 0.59210 0.23630 0.08400
H 	H 	0.62330 0.55380 0.20880 0.01300
C 	C 	0.61820 0.60420 0.31570 0.09900
H 	H 	0.61620 0.57530 0.34570 -0.00200
C 	C 	0.61490 0.70290 0.31290 -0.14200
H 	H 	0.61250 0.73750 0.34100 0.07600
C 	C 	0.42180 0.31330 0.92240 0.31500
C 	C 	0.32790 0.36830 0.87900 -0.10800
C 	C 	0.24570 0.32420 0.82630 0.04600
H 	H 	0.24750 0.26000 0.81840 0.03100
C 	C 	0.16090 0.37310 0.78510 -0.11800
C 	C 	0.15790 0.46670 0.79930 0.06200
H 	H 	0.10090 0.50020 0.77190 0.03500
C 	C 	0.23750 0.51190 0.85320 -0.14000
C 	C 	0.32340 0.46180 0.89340 0.05200
H 	H 	0.37780 0.49140 0.93000 0.04500
C 	C 	0.06920 0.32580 0.72880 0.32200
C 	C 	0.23060 0.61220 0.86930 0.41000
C 	C 	0.87760 0.28290 0.02090 0.07000
H 	H 	0.87430 0.21700 0.01560 -0.02900
C 	C 	0.87380 0.33780 0.97800 -0.13200
H 	H 	0.86760 0.30890 0.94450 0.07300
C 	C 	0.87930 0.43550 0.98370 0.05900
C 	C 	0.89050 0.47200 0.03630 -0.12400
H 	H 	0.89670 0.53750 0.04360 0.08200
C 	C 	0.89260 0.41150 0.07810 0.07200
H 	H 	0.89900 0.43820 0.11220 -0.00200
C 	C 	0.87620 0.49310 0.93750 0.07700
C 	C 	0.86990 0.45450 0.89020 -0.13500
H 	H 	0.86710 0.38840 0.88560 0.07400
C 	C 	0.86750 0.51040 0.84880 0.06900
C 	C 	0.86910 0.60690 0.85210 -0.13400
H 	H 	0.86630 0.64350 0.82230 0.08200
C 	C 	0.87490 0.65000 0.89990 0.07600
C 	C 	0.86300 0.46100 0.79820 0.05900
C 	C 	0.83750 0.36530 0.78170 -0.13400
H 	H 	0.82090 0.33010 0.80190 0.07600
C 	C 	0.83670 0.32220 0.73550 0.07900
H 	H 	0.81530 0.25940 0.72420 -0.00500
C 	C 	0.88560 0.45450 0.72080 0.08400
H 	H 	0.90260 0.48730 0.70000 -0.01300
C 	C 	0.88500 0.50500 0.76420 -0.14500
H 	H 	0.89960 0.56980 0.77060 0.09500
C 	C 	0.88030 0.75740 0.90690 0.04800
C 	C 	0.86140 0.81440 0.85770 -0.11500
H 	H 	0.84660 0.78640 0.82100 0.07500
C 	C 	0.86480 0.91330 0.86340 0.05600
H 	H 	0.85210 0.95150 0.83050 0.02600
N 	N 	0.88700 0.95520 0.91840 -0.12100
C 	C 	0.90590 0.89820 0.96760 0.05400
H 	H 	0.92070 0.92620 0.00440 0.01500
C 	C 	0.90250 0.79920 0.96190 -0.11600
H 	H 	0.91520 0.76110 0.99480 0.07600
C 	C 	0.61950 0.00530 0.30340 0.07000
Cd	Cd	0.60114 0.23700 0.99896 1.17600
Cd	Cd	0.88084 0.22285 0.13923 1.18500
N 	N 	0.59130 0.14840 0.06640 -0.27500
N 	N 	0.62320 0.17790 0.43580 -0.25700
N 	N 	0.88570 0.31780 0.07100 -0.25100
N 	N 	0.86380 0.36300 0.70650 -0.24700
N 	N 	0.62360 0.54940 0.28070 -0.13900
N 	N 	0.61360 0.05280 0.25630 -0.12400
N 	N 	0.87830 0.59230 0.94350 -0.12700
O 	O 	0.49070 0.35500 0.97300 -0.37200
O 	O 	0.42710 0.23180 0.90650 -0.39400
O 	O 	0.14940 0.64820 0.83130 -0.46100
O 	O 	0.30200 0.65150 0.91810 -0.48400
O 	O 	0.05980 0.23830 0.72790 -0.35600
O 	O 	0.00300 0.37940 0.68370 -0.41900
C 	C 	0.40150 0.55460 0.42750 0.11200
H 	H 	0.39900 0.52020 0.45560 -0.05500
C 	C 	0.39750 0.50570 0.38310 -0.20800
H 	H 	0.38980 0.43980 0.38030 0.10000
C 	C 	0.40430 0.55080 0.34290 0.10300
C 	C 	0.41690 0.64570 0.35090 -0.17700
H 	H 	0.42530 0.68020 0.32580 0.09500
C 	C 	0.41770 0.69340 0.39620 0.10000
H 	H 	0.42480 0.75940 0.39980 -0.01700
C 	C 	0.39560 0.49900 0.29020 0.04600
C 	C 	0.39810 0.40270 0.28800 -0.11600
H 	H 	0.40770 0.36680 0.32060 0.06500
C 	C 	0.38650 0.35550 0.23740 0.04500
C 	C 	0.37880 0.41090 0.19290 -0.11900
H 	H 	0.37230 0.38190 0.15930 0.06900
C 	C 	0.37270 0.56860 0.14910 0.06600
C 	C 	0.36910 0.52780 0.10060 -0.13500
H 	H 	0.36580 0.46170 0.09580 0.07700
C 	C 	0.37030 0.58470 0.05950 0.08300
H 	H 	0.36630 0.55530 0.02700 -0.00300
C 	C 	0.37510 0.66650 0.15100 -0.13700
H 	H 	0.37380 0.69850 0.18040 0.08400
C 	C 	0.37960 0.71830 0.10960 0.07700
H 	H 	0.38480 0.78440 0.11390 -0.03700
C 	C 	0.38480 0.25030 0.23170 0.06200
C 	C 	0.38060 0.18970 0.27130 -0.13900
H 	H 	0.37990 0.21560 0.30250 0.08500
C 	C 	0.37780 0.09210 0.26370 0.08400
H 	H 	0.37670 0.05380 0.29120 0.01300
C 	C 	0.38180 0.10420 0.18430 0.09900
H 	H 	0.38380 0.07530 0.15430 -0.00100
C 	C 	0.38510 0.20290 0.18710 -0.14200
H 	H 	0.38750 0.23750 0.15900 0.07600
C 	C 	0.57820 0.81330 0.57760 0.31600
C 	C 	0.67210 0.86830 0.62100 -0.11200
C 	C 	0.75430 0.82420 0.67370 0.05100
H 	H 	0.75250 0.76000 0.68160 0.03000
C 	C 	0.83910 0.87310 0.71490 -0.12400
C 	C 	0.84210 0.96670 0.70070 0.07400
H 	H 	0.89910 0.00020 0.72810 0.03000
C 	C 	0.76250 0.01190 0.64680 -0.14900
C 	C 	0.67660 0.96180 0.60660 0.05900
H 	H 	0.62220 0.99140 0.57000 0.04200
C 	C 	0.93080 0.82580 0.77120 0.32400
C 	C 	0.76940 0.11220 0.63070 0.41300
C 	C 	0.12240 0.78290 0.47910 0.06800
H 	H 	0.12570 0.71700 0.48440 -0.02900
C 	C 	0.12620 0.83780 0.52200 -0.13100
H 	H 	0.13240 0.80890 0.55550 0.07300
C 	C 	0.12070 0.93550 0.51630 0.06000
C 	C 	0.10950 0.97200 0.46370 -0.13000
H 	H 	0.10330 0.03750 0.45640 0.08500
C 	C 	0.10740 0.91150 0.42190 0.07400
H 	H 	0.10100 0.93820 0.38780 -0.00300
C 	C 	0.12380 0.99310 0.56250 0.07700
C 	C 	0.13010 0.95450 0.60980 -0.14000
H 	H 	0.13290 0.88840 0.61440 0.07600
C 	C 	0.13250 0.01040 0.65120 0.07600
C 	C 	0.13090 0.10690 0.64790 -0.13800
H 	H 	0.13370 0.14350 0.67770 0.08400
C 	C 	0.12510 0.15000 0.60010 0.07700
C 	C 	0.13700 0.96100 0.70180 0.05200
C 	C 	0.16250 0.86530 0.71830 -0.13000
H 	H 	0.17910 0.83010 0.69810 0.07400
C 	C 	0.16330 0.82220 0.76450 0.07700
H 	H 	0.18470 0.75940 0.77580 -0.00400
C 	C 	0.11440 0.95450 0.77920 0.07900
H 	H 	0.09740 0.98730 0.80000 -0.01200
C 	C 	0.11500 0.00500 0.73580 -0.13800
H 	H 	0.10040 0.06980 0.72940 0.09200
C 	C 	0.11970 0.25740 0.59310 0.04800
C 	C 	0.13860 0.31440 0.64230 -0.11400
H 	H 	0.15340 0.28640 0.67900 0.07500
C 	C 	0.13520 0.41330 0.63660 0.05600
H 	H 	0.14790 0.45150 0.66950 0.02500
N 	N 	0.11300 0.45520 0.58160 -0.12100
C 	C 	0.09410 0.39820 0.53240 0.05300
H 	H 	0.07930 0.42620 0.49560 0.01500
C 	C 	0.09750 0.29920 0.53810 -0.11500
H 	H 	0.08480 0.26110 0.50520 0.07500
C 	C 	0.38050 0.50530 0.19660 0.07100
Cd	Cd	0.39886 0.73700 0.50104 1.17600
Cd	Cd	0.11916 0.72285 0.36077 1.18500
N 	N 	0.40870 0.64840 0.43360 -0.27600
N 	N 	0.37680 0.67790 0.06420 -0.25700
N 	N 	0.11430 0.81780 0.42900 -0.25100
N 	N 	0.13620 0.86300 0.79350 -0.24600
N 	N 	0.37640 0.04940 0.21930 -0.13900
N 	N 	0.38640 0.55280 0.24370 -0.12400
N 	N 	0.12170 0.09230 0.55650 -0.12600
O 	O 	0.50930 0.85500 0.52700 -0.37200
O 	O 	0.57290 0.73180 0.59350 -0.39500
O 	O 	0.85060 0.14820 0.66870 -0.46200
O 	O 	0.69800 0.15150 0.58190 -0.48500
O 	O 	0.94020 0.73830 0.77210 -0.35800
O 	O 	0.99700 0.87940 0.81630 -0.41900
