data_crystal

_cell_length_a 9.87920
_cell_length_b 12.07980
_cell_length_c 12.25910
_cell_angle_alpha 109.80800
_cell_angle_beta  100.04500
_cell_angle_gamma 102.51500

_symmetry_space_group_name_	'P 1'
_symmetry_space_group_name_H-M	'P 1'

loop_
_symmetry_equiv_pos_as_xyz
  x,y,z

loop_
_atom_site_label
_atom_site_type_symbol
_atom_site_fract_x
_atom_site_fract_y
_atom_site_fract_z
_atom_site_charge
U 	U 	0.89620 0.17411 0.52161 0.01900
U 	U 	0.13682 0.33724 0.98842 0.01900
P 	P 	0.74280 0.33790 0.36620 0.46500
P 	P 	0.01710 0.54250 0.20850 0.40800
P 	P 	0.03550 0.04740 0.72830 0.39700
P 	P 	0.72280 0.75850 0.77940 0.41000
O 	O 	0.64660 0.23060 0.25110 -0.41600
H 	H 	0.56220 0.22900 0.24570 0.31500
O 	O 	0.65860 0.38720 0.45250 -0.19200
O 	O 	0.86250 0.29650 0.42160 -0.18600
O 	O 	0.12890 0.50560 0.14290 -0.14900
O 	O 	0.88730 0.54880 0.12440 -0.15500
O 	O 	0.09370 0.66730 0.30910 -0.15400
O 	O 	0.13310 0.16960 0.82590 -0.15300
O 	O 	0.92140 0.06550 0.63960 -0.15500
O 	O 	0.13270 0.98050 0.66390 -0.14800
O 	O 	0.62040 0.83080 0.82260 -0.20700
O 	O 	0.64360 0.62800 0.68860 -0.17500
O 	O 	0.82810 0.75860 0.88650 -0.17700
C 	C 	0.82950 0.45670 0.32560 -0.22400
H 	H 	0.75740 0.47080 0.27140 0.14100
H 	H 	0.87030 0.53200 0.39750 0.13200
C 	C 	0.94980 0.43140 0.26460 -0.18200
H 	H 	0.91280 0.35100 0.19870 0.12700
H 	H 	0.02850 0.42880 0.32250 0.11800
C 	C 	0.94340 0.95580 0.79890 -0.17600
H 	H 	0.01420 0.93670 0.84930 0.12100
H 	H 	0.89580 0.00450 0.85070 0.12100
C 	C 	0.83390 0.83770 0.71070 -0.20000
H 	H 	0.88350 0.78350 0.66780 0.12300
H 	H 	0.77250 0.85570 0.65210 0.13200
U 	U 	0.10380 0.82589 0.47839 0.01800
U 	U 	0.86318 0.66276 0.01158 0.01800
P 	P 	0.25720 0.66210 0.63380 0.46400
P 	P 	0.98290 0.45750 0.79150 0.40700
P 	P 	0.96450 0.95260 0.27170 0.39600
P 	P 	0.27720 0.24150 0.22060 0.40900
O 	O 	0.35340 0.76940 0.74890 -0.41600
H 	H 	0.43780 0.77100 0.75430 0.31500
O 	O 	0.34140 0.61280 0.54750 -0.19200
O 	O 	0.13750 0.70350 0.57840 -0.18600
O 	O 	0.87110 0.49440 0.85710 -0.14900
O 	O 	0.11270 0.45120 0.87560 -0.15500
O 	O 	0.90630 0.33270 0.69090 -0.15400
O 	O 	0.86690 0.83040 0.17410 -0.15300
O 	O 	0.07860 0.93450 0.36040 -0.15500
O 	O 	0.86730 0.01950 0.33610 -0.14800
O 	O 	0.37960 0.16920 0.17740 -0.20700
O 	O 	0.35640 0.37200 0.31140 -0.17500
O 	O 	0.17190 0.24140 0.11350 -0.17700
C 	C 	0.17050 0.54330 0.67440 -0.22400
H 	H 	0.24260 0.52920 0.72860 0.14100
H 	H 	0.12970 0.46800 0.60250 0.13200
C 	C 	0.05020 0.56860 0.73540 -0.18200
H 	H 	0.08720 0.64900 0.80130 0.12700
H 	H 	0.97150 0.57120 0.67750 0.11800
C 	C 	0.05660 0.04420 0.20110 -0.17600
H 	H 	0.98580 0.06330 0.15070 0.12100
H 	H 	0.10420 0.99550 0.14930 0.12100
C 	C 	0.16610 0.16230 0.28930 -0.20000
H 	H 	0.11650 0.21650 0.33220 0.12300
H 	H 	0.22750 0.14430 0.34790 0.13200
U 	U 	0.50000 0.50000 0.50000 0.00800
