data_crystal

_cell_length_a 26.33960
_cell_length_b 14.03980
_cell_length_c 16.87180
_cell_angle_alpha 90.00000
_cell_angle_beta  97.75900
_cell_angle_gamma 90.00000

_symmetry_space_group_name_	'P 1'
_symmetry_space_group_name_H-M	'P 1'

loop_
_symmetry_equiv_pos_as_xyz
  x,y,z

loop_
_atom_site_label
_atom_site_type_symbol
_atom_site_fract_x
_atom_site_fract_y
_atom_site_fract_z
_atom_site_charge
Eu	Eu	0.00142 0.57673 0.38946 2.22700
N 	N 	0.19030 0.23220 0.47340 -0.14700
N 	N 	0.29120 0.27420 0.35390 -0.14800
N 	N 	0.22940 0.69580 0.32180 -0.11500
N 	N 	0.30580 0.77700 0.16700 -0.09800
N 	N 	0.81340 0.27840 0.47820 -0.15200
N 	N 	0.69090 0.25710 0.35830 -0.16200
N 	N 	0.01760 0.74250 0.41030 -0.31800
H 	H 	0.02250 0.74760 0.46390 0.10600
H 	H 	0.04880 0.75000 0.39530 0.10100
H 	H 	0.53120 0.29480 0.23660 0.15400
H 	H 	0.47810 0.29480 0.20560 0.13700
O 	O 	0.04720 0.43100 0.40330 -0.52900
O 	O 	0.05920 0.36780 0.52650 -0.51800
O 	O 	0.43040 0.16360 0.31580 -0.58700
O 	O 	0.44310 0.10330 0.43850 -0.56800
O 	O 	0.07890 0.61070 0.33420 -0.51300
O 	O 	0.05370 0.65590 0.20880 -0.52300
O 	O 	0.45070 0.97250 0.24770 -1.00900
O 	O 	0.43470 0.92170 0.12380 -0.40600
O 	O 	0.95020 0.42400 0.48210 -0.60000
O 	O 	0.92870 0.47080 0.35780 -0.51800
O 	O 	0.54740 0.14110 0.37310 -0.64000
O 	O 	0.57470 0.07620 0.48820 -0.53700
H 	H 	0.97390 0.45450 0.24510 0.33400
C 	C 	0.07200 0.38410 0.46010 0.50500
C 	C 	0.14420 0.26580 0.48500 0.11400
H 	H 	0.12600 0.23580 0.52140 -0.00100
C 	C 	0.12310 0.34640 0.44250 -0.20900
C 	C 	0.14620 0.38080 0.38270 0.12800
H 	H 	0.13090 0.42760 0.34840 -0.00700
C 	C 	0.19430 0.34340 0.37420 -0.17500
H 	H 	0.21180 0.36730 0.33410 0.09800
C 	C 	0.21590 0.27510 0.42100 0.09800
C 	C 	0.41760 0.14540 0.38210 0.55700
C 	C 	0.33790 0.24270 0.34450 0.13700
H 	H 	0.35340 0.26680 0.30240 -0.00600
C 	C 	0.36400 0.17610 0.39430 -0.24400
C 	C 	0.34200 0.14510 0.45600 0.13700
H 	H 	0.36010 0.10570 0.49420 -0.00000
C 	C 	0.29190 0.17170 0.46340 -0.17100
H 	H 	0.27490 0.14320 0.50210 0.10000
C 	C 	0.26750 0.23970 0.41370 0.08500
C 	C 	0.08750 0.64420 0.26790 0.48700
C 	C 	0.18070 0.66000 0.32340 0.30100
H 	H 	0.17430 0.62310 0.36670 -0.06200
C 	C 	0.14060 0.67770 0.26160 -0.18200
C 	C 	0.14810 0.72700 0.20050 0.06800
H 	H 	0.12200 0.73680 0.15850 0.00600
C 	C 	0.19760 0.76600 0.19890 0.04800
H 	H 	0.20220 0.80730 0.15750 0.02900
C 	C 	0.23570 0.74770 0.24990 0.04700
C 	C 	0.42570 0.92500 0.19310 0.67300
C 	C 	0.34850 0.81550 0.15670 0.07100
H 	H 	0.36140 0.80090 0.10940 0.03400
C 	C 	0.37740 0.87670 0.20900 -0.66700
C 	C 	0.35610 0.89600 0.27970 -0.07400
H 	H 	0.37290 0.93570 0.31890 0.00700
C 	C 	0.30920 0.85400 0.29000 -0.13800
H 	H 	0.29320 0.87020 0.33390 0.08800
C 	C 	0.28700 0.79000 0.23600 0.03400
C 	C 	0.92030 0.42630 0.41900 0.51400
C 	C 	0.85890 0.32320 0.47720 0.14800
H 	H 	0.88380 0.31710 0.52160 -0.03000
C 	C 	0.87000 0.37650 0.41440 -0.24900
C 	C 	0.83350 0.38230 0.35060 0.14700
H 	H 	0.84020 0.41690 0.30610 -0.01200
C 	C 	0.78680 0.33860 0.34940 -0.18000
H 	H 	0.76160 0.34510 0.30550 0.10300
C 	C 	0.77810 0.28460 0.41480 0.08300
C 	C 	0.58120 0.12660 0.42920 0.57800
C 	C 	0.64360 0.21940 0.36220 0.17000
H 	H 	0.61750 0.23050 0.32050 -0.03900
C 	C 	0.63380 0.16630 0.42540 -0.29000
C 	C 	0.67470 0.14490 0.48000 0.19700
H 	H 	0.67040 0.10230 0.52070 -0.03200
C 	C 	0.72160 0.18310 0.47770 -0.24300
H 	H 	0.74920 0.16810 0.51620 0.12400
C 	C 	0.72680 0.24270 0.41850 0.12800
C 	C 	0.99280 0.82830 0.38590 -0.25500
H 	H 	0.01040 0.85860 0.34650 0.10800
H 	H 	0.99300 0.86970 0.43120 0.08500
H 	H 	0.95800 0.81530 0.36330 0.09800
H 	H 	0.50640 0.41780 0.27200 0.09200
H 	H 	0.50730 0.35680 0.35000 0.08300
H 	H 	0.45510 0.37830 0.29670 0.08600
Eu	Eu	0.49758 0.97548 0.03638 1.06800
C 	C 	0.49080 0.36530 0.29620 -0.31000
N 	N 	0.21920 0.75810 0.31240 -0.05100
N 	N 	0.29660 0.84930 0.20180 -0.24000
O 	O 	0.43240 0.98690 0.20510 -0.39200
O 	O 	0.45590 0.96220 0.33330 -0.48300
C 	C 	0.17240 0.71800 0.32080 -0.20900
H 	H 	0.16210 0.71870 0.37140 0.08800
C 	C 	0.15930 0.68000 0.18600 -0.00200
H 	H 	0.13790 0.66010 0.14080 0.03200
C 	C 	0.20680 0.71120 0.17780 -0.16900
H 	H 	0.21990 0.70900 0.12930 0.09900
C 	C 	0.42670 0.95300 0.26510 1.17000
C 	C 	0.34150 0.89520 0.20350 0.71400
H 	H 	0.34670 0.93230 0.15970 -0.15000
C 	C 	0.37940 0.89000 0.26530 -0.16400
C 	C 	0.36760 0.83580 0.33270 0.16700
H 	H 	0.39110 0.83440 0.37910 -0.04100
C 	C 	0.32320 0.78690 0.33030 -0.17700
H 	H 	0.31680 0.74800 0.37250 0.09500
C 	C 	0.28700 0.79700 0.26200 0.16300
Eu	Eu	0.99858 0.57673 0.11054 2.12800
N 	N 	0.80970 0.23220 0.02660 -0.14700
N 	N 	0.70880 0.27420 0.14610 -0.14700
N 	N 	0.77060 0.69580 0.17820 -0.11400
N 	N 	0.69420 0.77700 0.33300 -0.09600
N 	N 	0.18660 0.27840 0.02180 -0.15100
N 	N 	0.30910 0.25710 0.14170 -0.16200
N 	N 	0.98240 0.74250 0.08970 -0.37300
H 	H 	0.97750 0.74760 0.03610 0.10300
H 	H 	0.95120 0.75000 0.10470 0.10800
H 	H 	0.46880 0.29480 0.26340 0.15400
H 	H 	0.52190 0.29480 0.29440 0.13700
O 	O 	0.95280 0.43100 0.09670 -0.53200
O 	O 	0.94080 0.36780 0.97350 -0.53600
O 	O 	0.56960 0.16360 0.18420 -0.58700
O 	O 	0.55690 0.10330 0.06150 -0.56700
O 	O 	0.92110 0.61070 0.16580 -0.51000
O 	O 	0.94630 0.65590 0.29120 -0.55100
O 	O 	0.54930 0.97250 0.25230 -1.00900
O 	O 	0.56530 0.92170 0.37620 -0.40500
O 	O 	0.04980 0.42400 0.01790 -0.59200
O 	O 	0.07130 0.47080 0.14220 -0.50000
O 	O 	0.45260 0.14110 0.12690 -0.63900
O 	O 	0.42530 0.07620 0.01180 -0.53500
H 	H 	0.02610 0.45450 0.25490 0.35400
C 	C 	0.92800 0.38410 0.03990 0.50200
C 	C 	0.85580 0.26580 0.01500 0.11000
H 	H 	0.87400 0.23580 0.97860 -0.00200
C 	C 	0.87690 0.34640 0.05750 -0.21000
C 	C 	0.85380 0.38080 0.11730 0.12600
H 	H 	0.86910 0.42760 0.15160 -0.00700
C 	C 	0.80570 0.34340 0.12580 -0.17500
H 	H 	0.78820 0.36730 0.16590 0.09800
C 	C 	0.78410 0.27510 0.07900 0.09800
C 	C 	0.58240 0.14540 0.11790 0.55600
C 	C 	0.66210 0.24270 0.15550 0.13700
H 	H 	0.64660 0.26680 0.19760 -0.00600
C 	C 	0.63600 0.17610 0.10570 -0.24300
C 	C 	0.65800 0.14510 0.04400 0.13600
H 	H 	0.63990 0.10570 0.00580 0.00000
C 	C 	0.70810 0.17170 0.03660 -0.17100
H 	H 	0.72510 0.14320 0.99790 0.09900
C 	C 	0.73250 0.23970 0.08630 0.08400
C 	C 	0.91250 0.64420 0.23210 0.49200
C 	C 	0.81930 0.66000 0.17660 0.29800
H 	H 	0.82570 0.62310 0.13330 -0.06100
C 	C 	0.85940 0.67770 0.23840 -0.18700
C 	C 	0.85190 0.72700 0.29950 0.06700
H 	H 	0.87800 0.73680 0.34150 0.00100
C 	C 	0.80240 0.76600 0.30110 0.04200
H 	H 	0.79780 0.80730 0.34250 0.02900
C 	C 	0.76430 0.74770 0.25010 0.04900
C 	C 	0.57430 0.92500 0.30690 0.67200
C 	C 	0.65150 0.81550 0.34330 0.07000
H 	H 	0.63860 0.80090 0.39060 0.03400
C 	C 	0.62260 0.87670 0.29100 -0.66600
C 	C 	0.64390 0.89600 0.22030 -0.07400
H 	H 	0.62710 0.93570 0.18110 0.00700
C 	C 	0.69080 0.85400 0.21000 -0.13700
H 	H 	0.70680 0.87020 0.16610 0.08700
C 	C 	0.71300 0.79000 0.26400 0.03300
C 	C 	0.07970 0.42630 0.08100 0.51700
C 	C 	0.14110 0.32320 0.02280 0.15700
H 	H 	0.11620 0.31710 0.97840 -0.03500
C 	C 	0.13000 0.37650 0.08560 -0.25100
C 	C 	0.16650 0.38230 0.14940 0.15100
H 	H 	0.15980 0.41690 0.19390 -0.01300
C 	C 	0.21320 0.33860 0.15060 -0.18200
H 	H 	0.23840 0.34510 0.19450 0.10400
C 	C 	0.22190 0.28460 0.08520 0.08600
C 	C 	0.41880 0.12660 0.07080 0.57800
C 	C 	0.35640 0.21940 0.13780 0.17000
H 	H 	0.38250 0.23050 0.17950 -0.03900
C 	C 	0.36620 0.16630 0.07460 -0.29000
C 	C 	0.32530 0.14490 0.02000 0.19900
H 	H 	0.32960 0.10230 0.97930 -0.03400
C 	C 	0.27840 0.18310 0.02230 -0.23900
H 	H 	0.25080 0.16810 0.98380 0.12100
C 	C 	0.27320 0.24270 0.08150 0.12600
C 	C 	0.00720 0.82830 0.11410 0.01700
H 	H 	0.98960 0.85860 0.15350 -0.00600
H 	H 	0.00700 0.86970 0.06880 0.02000
H 	H 	0.04200 0.81530 0.13670 0.02600
H 	H 	0.49360 0.41780 0.22800 0.09200
H 	H 	0.49270 0.35680 0.15000 0.08300
H 	H 	0.54490 0.37830 0.20330 0.08600
Eu	Eu	0.50242 0.97548 0.46362 1.07000
C 	C 	0.50920 0.36530 0.20380 -0.31100
N 	N 	0.78080 0.75810 0.18760 -0.05300
N 	N 	0.70340 0.84930 0.29820 -0.24000
O 	O 	0.56760 0.98690 0.29490 -0.39100
O 	O 	0.54410 0.96220 0.16670 -0.48400
C 	C 	0.82760 0.71800 0.17920 -0.20400
H 	H 	0.83790 0.71870 0.12860 0.08500
C 	C 	0.84070 0.68000 0.31400 0.00200
H 	H 	0.86210 0.66010 0.35920 0.02900
C 	C 	0.79320 0.71120 0.32220 -0.16600
H 	H 	0.78010 0.70900 0.37070 0.09800
C 	C 	0.57330 0.95300 0.23490 1.17100
C 	C 	0.65850 0.89520 0.29650 0.71300
H 	H 	0.65330 0.93230 0.34030 -0.15000
C 	C 	0.62060 0.89000 0.23470 -0.16400
C 	C 	0.63240 0.83580 0.16730 0.16700
H 	H 	0.60890 0.83440 0.12090 -0.04100
C 	C 	0.67680 0.78690 0.16970 -0.17800
H 	H 	0.68320 0.74800 0.12750 0.09500
C 	C 	0.71300 0.79700 0.23800 0.16300
Eu	Eu	0.99858 0.42327 0.61054 2.13800
N 	N 	0.80970 0.76780 0.52660 -0.14700
N 	N 	0.70880 0.72580 0.64610 -0.14700
N 	N 	0.77060 0.30420 0.67820 -0.11400
N 	N 	0.69420 0.22300 0.83300 -0.09600
N 	N 	0.18660 0.72160 0.52180 -0.15100
N 	N 	0.30910 0.74290 0.64170 -0.16200
N 	N 	0.98240 0.25750 0.58970 -0.36900
H 	H 	0.97750 0.25240 0.53610 0.10400
H 	H 	0.95120 0.25000 0.60470 0.10800
H 	H 	0.46880 0.70520 0.76340 0.15400
H 	H 	0.52190 0.70520 0.79440 0.13700
O 	O 	0.95280 0.56900 0.59670 -0.53300
O 	O 	0.94080 0.63220 0.47350 -0.54000
O 	O 	0.56960 0.83640 0.68420 -0.58700
O 	O 	0.55690 0.89670 0.56150 -0.56800
O 	O 	0.92110 0.38930 0.66580 -0.51000
O 	O 	0.94630 0.34410 0.79120 -0.54800
O 	O 	0.54930 0.02750 0.75230 -1.00900
O 	O 	0.56530 0.07830 0.87620 -0.40600
O 	O 	0.04980 0.57600 0.51790 -0.59500
O 	O 	0.07130 0.52920 0.64220 -0.50200
O 	O 	0.45260 0.85890 0.62690 -0.64000
O 	O 	0.42530 0.92380 0.51180 -0.53700
H 	H 	0.02610 0.54550 0.75490 0.35500
C 	C 	0.92800 0.61590 0.53990 0.50700
C 	C 	0.85580 0.73420 0.51500 0.11400
H 	H 	0.87400 0.76420 0.47860 -0.00400
C 	C 	0.87690 0.65360 0.55750 -0.21300
C 	C 	0.85380 0.61920 0.61730 0.12800
H 	H 	0.86910 0.57240 0.65160 -0.00800
C 	C 	0.80570 0.65660 0.62580 -0.17700
H 	H 	0.78820 0.63270 0.66590 0.09800
C 	C 	0.78410 0.72490 0.57900 0.09900
C 	C 	0.58240 0.85460 0.61790 0.55700
C 	C 	0.66210 0.75730 0.65550 0.13700
H 	H 	0.64660 0.73320 0.69760 -0.00600
C 	C 	0.63600 0.82390 0.60570 -0.24300
C 	C 	0.65800 0.85490 0.54400 0.13600
H 	H 	0.63990 0.89430 0.50580 -0.00000
C 	C 	0.70810 0.82830 0.53660 -0.17100
H 	H 	0.72510 0.85680 0.49790 0.09900
C 	C 	0.73250 0.76030 0.58630 0.08400
C 	C 	0.91250 0.35580 0.73210 0.49200
C 	C 	0.81930 0.34000 0.67660 0.29800
H 	H 	0.82570 0.37690 0.63330 -0.06100
C 	C 	0.85940 0.32230 0.73840 -0.18700
C 	C 	0.85190 0.27300 0.79950 0.06700
H 	H 	0.87800 0.26320 0.84150 0.00200
C 	C 	0.80240 0.23400 0.80110 0.04300
H 	H 	0.79780 0.19270 0.84250 0.02900
C 	C 	0.76430 0.25230 0.75010 0.04900
C 	C 	0.57430 0.07500 0.80690 0.67200
C 	C 	0.65150 0.18450 0.84330 0.07000
H 	H 	0.63860 0.19910 0.89060 0.03400
C 	C 	0.62260 0.12330 0.79100 -0.66700
C 	C 	0.64390 0.10400 0.72030 -0.07400
H 	H 	0.62710 0.06430 0.68110 0.00700
C 	C 	0.69080 0.14600 0.71000 -0.13700
H 	H 	0.70680 0.12980 0.66610 0.08700
C 	C 	0.71300 0.21000 0.76400 0.03300
C 	C 	0.07970 0.57370 0.58100 0.51700
C 	C 	0.14110 0.67680 0.52280 0.15100
H 	H 	0.11620 0.68290 0.47840 -0.03100
C 	C 	0.13000 0.62350 0.58560 -0.24900
C 	C 	0.16650 0.61770 0.64940 0.14800
H 	H 	0.15980 0.58310 0.69390 -0.01200
C 	C 	0.21320 0.66140 0.65060 -0.18100
H 	H 	0.23840 0.65490 0.69450 0.10300
C 	C 	0.22190 0.71540 0.58520 0.08400
C 	C 	0.41880 0.87340 0.57080 0.57800
C 	C 	0.35640 0.78060 0.63780 0.17000
H 	H 	0.38250 0.76950 0.67950 -0.03900
C 	C 	0.36620 0.83370 0.57460 -0.29000
C 	C 	0.32530 0.85510 0.52000 0.19700
H 	H 	0.32960 0.89770 0.47930 -0.03200
C 	C 	0.27840 0.81690 0.52230 -0.24400
H 	H 	0.25080 0.83190 0.48380 0.12400
C 	C 	0.27320 0.75730 0.58150 0.12800
C 	C 	0.00720 0.17170 0.61410 -0.00300
H 	H 	0.98960 0.14140 0.65350 0.00300
H 	H 	0.00700 0.13030 0.56880 0.02500
H 	H 	0.04200 0.18470 0.63670 0.03100
H 	H 	0.49360 0.58220 0.72800 0.09200
H 	H 	0.49270 0.64320 0.65000 0.08300
H 	H 	0.54490 0.62170 0.70330 0.08600
Eu	Eu	0.50242 0.02452 0.96362 1.06700
C 	C 	0.50920 0.63470 0.70380 -0.31100
N 	N 	0.78080 0.24190 0.68760 -0.05300
N 	N 	0.70340 0.15070 0.79820 -0.24000
O 	O 	0.56760 0.01310 0.79490 -0.39100
O 	O 	0.54410 0.03780 0.66670 -0.48400
C 	C 	0.82760 0.28200 0.67920 -0.20500
H 	H 	0.83790 0.28130 0.62860 0.08600
C 	C 	0.84070 0.32000 0.81400 0.00200
H 	H 	0.86210 0.33990 0.85920 0.03000
C 	C 	0.79320 0.28880 0.82220 -0.16600
H 	H 	0.78010 0.29100 0.87070 0.09800
C 	C 	0.57330 0.04700 0.73490 1.17100
C 	C 	0.65850 0.10480 0.79650 0.71300
H 	H 	0.65330 0.06770 0.84030 -0.15000
C 	C 	0.62060 0.11000 0.73470 -0.16400
C 	C 	0.63240 0.16420 0.66730 0.16800
H 	H 	0.60890 0.16560 0.62090 -0.04100
C 	C 	0.67680 0.21310 0.66970 -0.17800
H 	H 	0.68320 0.25200 0.62750 0.09500
C 	C 	0.71300 0.20300 0.73800 0.16300
Eu	Eu	0.00142 0.42327 0.88946 2.21900
N 	N 	0.19030 0.76780 0.97340 -0.14600
N 	N 	0.29120 0.72580 0.85390 -0.14700
N 	N 	0.22940 0.30420 0.82180 -0.11400
N 	N 	0.30580 0.22300 0.66700 -0.09700
N 	N 	0.81340 0.72160 0.97820 -0.15200
N 	N 	0.69090 0.74290 0.85830 -0.16200
N 	N 	0.01760 0.25750 0.91030 -0.32200
H 	H 	0.02250 0.25240 0.96390 0.10500
H 	H 	0.04880 0.25000 0.89530 0.10200
H 	H 	0.53120 0.70520 0.73660 0.15400
H 	H 	0.47810 0.70520 0.70560 0.13700
O 	O 	0.04720 0.56900 0.90330 -0.52800
O 	O 	0.05920 0.63220 0.02650 -0.51400
O 	O 	0.43040 0.83640 0.81580 -0.58700
O 	O 	0.44310 0.89670 0.93850 -0.56700
O 	O 	0.07890 0.38930 0.83420 -0.51300
O 	O 	0.05370 0.34410 0.70880 -0.52500
O 	O 	0.45070 0.02750 0.74770 -1.00900
O 	O 	0.43470 0.07830 0.62380 -0.40600
O 	O 	0.95020 0.57600 0.98210 -0.59600
O 	O 	0.92870 0.52920 0.85780 -0.51700
O 	O 	0.54740 0.85890 0.87310 -0.63900
O 	O 	0.57470 0.92380 0.98820 -0.53500
H 	H 	0.97390 0.54550 0.74510 0.33900
C 	C 	0.07200 0.61590 0.96010 0.50000
C 	C 	0.14420 0.73420 0.98500 0.11000
H 	H 	0.12600 0.76420 0.02140 0.00200
C 	C 	0.12310 0.65360 0.94250 -0.20700
C 	C 	0.14620 0.61920 0.88270 0.12500
H 	H 	0.13090 0.57240 0.84840 -0.00600
C 	C 	0.19430 0.65660 0.87420 -0.17400
H 	H 	0.21180 0.63270 0.83410 0.09700
C 	C 	0.21590 0.72490 0.92100 0.09800
C 	C 	0.41760 0.85460 0.88210 0.55600
C 	C 	0.33790 0.75730 0.84450 0.13700
H 	H 	0.35340 0.73320 0.80240 -0.00600
C 	C 	0.36400 0.82390 0.89430 -0.24300
C 	C 	0.34200 0.85490 0.95600 0.13700
H 	H 	0.36010 0.89430 0.99420 0.00000
C 	C 	0.29190 0.82830 0.96340 -0.17100
H 	H 	0.27490 0.85680 0.00210 0.10000
C 	C 	0.26750 0.76030 0.91370 0.08500
C 	C 	0.08750 0.35580 0.76790 0.48800
C 	C 	0.18070 0.34000 0.82340 0.30000
H 	H 	0.17430 0.37690 0.86670 -0.06300
C 	C 	0.14060 0.32230 0.76160 -0.18300
C 	C 	0.14810 0.27300 0.70050 0.06800
H 	H 	0.12200 0.26320 0.65850 0.00600
C 	C 	0.19760 0.23400 0.69890 0.04800
H 	H 	0.20220 0.19270 0.65750 0.02900
C 	C 	0.23570 0.25230 0.74990 0.04800
C 	C 	0.42570 0.07500 0.69310 0.67200
C 	C 	0.34850 0.18450 0.65670 0.07100
H 	H 	0.36140 0.19910 0.60940 0.03400
C 	C 	0.37740 0.12330 0.70900 -0.66700
C 	C 	0.35610 0.10400 0.77970 -0.07400
H 	H 	0.37290 0.06430 0.81890 0.00700
C 	C 	0.30920 0.14600 0.79000 -0.13800
H 	H 	0.29320 0.12980 0.83390 0.08700
C 	C 	0.28700 0.21000 0.73600 0.03400
C 	C 	0.92030 0.57370 0.91900 0.51500
C 	C 	0.85890 0.67680 0.97720 0.15500
H 	H 	0.88380 0.68290 0.02160 -0.03500
C 	C 	0.87000 0.62350 0.91440 -0.25100
C 	C 	0.83350 0.61770 0.85060 0.14900
H 	H 	0.84020 0.58310 0.80610 -0.01300
C 	C 	0.78680 0.66140 0.84940 -0.18200
H 	H 	0.76160 0.65490 0.80550 0.10400
C 	C 	0.77810 0.71540 0.91480 0.08500
C 	C 	0.58120 0.87340 0.92920 0.57800
C 	C 	0.64360 0.78060 0.86220 0.17000
H 	H 	0.61750 0.76950 0.82050 -0.03900
C 	C 	0.63380 0.83370 0.92540 -0.29000
C 	C 	0.67470 0.85510 0.98000 0.19900
H 	H 	0.67040 0.89770 0.02070 -0.03400
C 	C 	0.72160 0.81690 0.97770 -0.23900
H 	H 	0.74920 0.83190 0.01620 0.12000
C 	C 	0.72680 0.75730 0.91850 0.12600
C 	C 	0.99280 0.17170 0.88590 -0.23300
H 	H 	0.01040 0.14140 0.84650 0.09900
H 	H 	0.99300 0.13030 0.93120 0.07900
H 	H 	0.95800 0.18470 0.86330 0.09200
H 	H 	0.50640 0.58220 0.77200 0.09200
H 	H 	0.50730 0.64320 0.85000 0.08300
H 	H 	0.45510 0.62170 0.79670 0.08600
Eu	Eu	0.49758 0.02452 0.53638 1.07100
C 	C 	0.49080 0.63470 0.79620 -0.31000
N 	N 	0.21920 0.24190 0.81240 -0.05100
N 	N 	0.29660 0.15070 0.70180 -0.23900
O 	O 	0.43240 0.01310 0.70510 -0.39200
O 	O 	0.45590 0.03780 0.83330 -0.48300
C 	C 	0.17240 0.28200 0.82080 -0.20800
H 	H 	0.16210 0.28130 0.87140 0.08700
C 	C 	0.15930 0.32000 0.68600 -0.00200
H 	H 	0.13790 0.33990 0.64080 0.03100
C 	C 	0.20680 0.28880 0.67780 -0.16800
H 	H 	0.21990 0.29100 0.62930 0.09900
C 	C 	0.42670 0.04700 0.76510 1.17000
C 	C 	0.34150 0.10480 0.70350 0.71300
H 	H 	0.34670 0.06770 0.65970 -0.15000
C 	C 	0.37940 0.11000 0.76530 -0.16300
C 	C 	0.36760 0.16420 0.83270 0.16700
H 	H 	0.39110 0.16560 0.87910 -0.04100
C 	C 	0.32320 0.21310 0.83030 -0.17700
H 	H 	0.31680 0.25200 0.87250 0.09500
C 	C 	0.28700 0.20300 0.76200 0.16300
Eu	Eu	0.50000 0.11263 0.25000 2.49200
N 	N 	0.50000 0.28190 0.25000 -0.50000
Eu	Eu	0.50000 0.88737 0.75000 2.49200
N 	N 	0.50000 0.71810 0.75000 -0.50000
O 	O 	0.00000 0.49080 0.25000 -0.87700
O 	O 	-0.00000 0.50920 0.75000 -0.88300
