data_crystal

_cell_length_a 11.08300
_cell_length_b 17.98300
_cell_length_c 17.98300
_cell_angle_alpha 90.00000
_cell_angle_beta  90.00000
_cell_angle_gamma 90.00000

_symmetry_space_group_name_	'P 1'
_symmetry_space_group_name_H-M	'P 1'

loop_
_symmetry_equiv_pos_as_xyz
  x,y,z

loop_
_atom_site_label
_atom_site_type_symbol
_atom_site_fract_x
_atom_site_fract_y
_atom_site_fract_z
_atom_site_charge
V 	V 	0.15457 0.03736 0.55969 1.71000
V 	V 	0.65457 0.96264 0.44031 1.72100
V 	V 	0.40457 0.94031 0.53736 1.71900
V 	V 	0.90457 0.05969 0.46264 1.74600
V 	V 	0.09543 0.46264 0.05969 1.69700
V 	V 	0.59543 0.53736 0.94031 1.72000
V 	V 	0.84543 0.55969 0.03736 1.72800
V 	V 	0.34543 0.44031 0.96264 1.71700
V 	V 	0.25000 0.03933 0.96067 1.83100
V 	V 	0.75000 0.96067 0.03933 1.83500
V 	V 	0.50000 0.53933 0.53933 1.83600
V 	V 	0.00000 0.46067 0.46067 1.79900
V 	V 	0.00000 0.06713 0.06713 1.58700
V 	V 	0.50000 0.93287 0.93287 1.62100
V 	V 	0.25000 0.43287 0.56713 1.61200
V 	V 	0.75000 0.56713 0.43287 1.62800
Ni	Ni	0.17219 0.02931 0.76460 1.00500
Ni	Ni	0.67219 0.97069 0.23540 1.03200
Ni	Ni	0.42219 0.73540 0.52931 1.02700
Ni	Ni	0.92219 0.26460 0.47069 1.03800
Ni	Ni	0.07781 0.47069 0.26460 1.01400
Ni	Ni	0.57781 0.52931 0.73540 1.02500
Ni	Ni	0.82781 0.76460 0.02931 1.04400
Ni	Ni	0.32781 0.23540 0.97069 1.01800
H 	H 	0.21240 0.89020 0.65400 -0.05700
H 	H 	0.20030 0.75940 0.68760 0.00400
H 	H 	0.14150 0.88190 0.86600 -0.03500
H 	H 	0.22400 0.72210 0.86850 0.00400
H 	H 	0.08560 0.73850 0.87560 0.03600
H 	H 	0.93200 0.02620 0.66680 0.00000
H 	H 	0.94520 0.03820 0.88360 -0.00100
H 	H 	0.73250 0.03460 0.84820 -0.01700
H 	H 	0.05120 0.48590 0.84300 -0.06300
H 	H 	0.13120 0.51130 0.77590 -0.06000
H 	H 	0.02450 0.61060 0.87810 0.02200
H 	H 	0.16090 0.58790 0.88000 -0.02000
H 	H 	0.05520 0.67060 0.76300 0.03000
H 	H 	0.19210 0.64820 0.76550 -0.00300
H 	H 	0.71240 0.10980 0.34600 -0.05000
H 	H 	0.70030 0.24060 0.31240 0.01300
H 	H 	0.64150 0.11810 0.13400 -0.02400
H 	H 	0.72400 0.27790 0.13150 0.01500
H 	H 	0.58560 0.26150 0.12440 0.05700
H 	H 	0.43200 0.97380 0.33320 -0.02500
H 	H 	0.44520 0.96180 0.11640 -0.02400
H 	H 	0.23250 0.96540 0.15180 -0.02000
H 	H 	0.55120 0.51410 0.15700 -0.04800
H 	H 	0.63120 0.48870 0.22410 -0.05700
H 	H 	0.52450 0.38940 0.12190 0.06400
H 	H 	0.66090 0.41210 0.12000 0.00300
H 	H 	0.55520 0.32940 0.23700 0.05400
H 	H 	0.69210 0.35180 0.23450 0.00400
H 	H 	0.46240 0.84600 0.39020 -0.05200
H 	H 	0.45030 0.81240 0.25940 0.01000
H 	H 	0.39150 0.63400 0.38190 -0.02700
H 	H 	0.47400 0.63150 0.22210 0.01000
H 	H 	0.33560 0.62440 0.23850 0.05600
H 	H 	0.18200 0.83320 0.52620 -0.03400
H 	H 	0.19520 0.61640 0.53820 -0.06600
H 	H 	0.98250 0.65180 0.53460 0.11700
H 	H 	0.30120 0.65700 0.98590 -0.05500
H 	H 	0.38120 0.72410 0.01130 -0.06800
H 	H 	0.27450 0.62190 0.11060 0.06300
H 	H 	0.41090 0.62000 0.08790 0.00000
H 	H 	0.30520 0.73700 0.17060 0.05200
H 	H 	0.44210 0.73450 0.14820 -0.00400
H 	H 	0.96240 0.15400 0.60980 -0.03400
H 	H 	0.95030 0.18760 0.74060 0.01800
H 	H 	0.89150 0.36600 0.61810 -0.02100
H 	H 	0.97400 0.36850 0.77790 0.02900
H 	H 	0.83560 0.37560 0.76150 0.05900
H 	H 	0.68200 0.16680 0.47380 -0.02400
H 	H 	0.69520 0.38360 0.46180 -0.02100
H 	H 	0.48250 0.34820 0.46540 -0.01800
H 	H 	0.80120 0.34300 0.01410 -0.03800
H 	H 	0.88120 0.27590 0.98870 -0.04700
H 	H 	0.77450 0.37810 0.88940 0.06400
H 	H 	0.91090 0.38000 0.91210 0.01400
H 	H 	0.80520 0.26300 0.82940 0.05400
H 	H 	0.94210 0.26550 0.85180 0.01000
H 	H 	0.03760 0.60980 0.15400 -0.07100
H 	H 	0.04970 0.74060 0.18760 0.00100
H 	H 	0.10850 0.61810 0.36600 -0.03200
H 	H 	0.02600 0.77790 0.36850 -0.01500
H 	H 	0.16440 0.76150 0.37560 0.05300
H 	H 	0.31800 0.47380 0.16680 -0.02400
H 	H 	0.30480 0.46180 0.38360 -0.02600
H 	H 	0.51750 0.46540 0.34820 -0.01300
H 	H 	0.19880 0.01410 0.34300 -0.06700
H 	H 	0.11880 0.98870 0.27590 -0.08500
H 	H 	0.22550 0.88940 0.37810 0.06500
H 	H 	0.08910 0.91210 0.38000 -0.01400
H 	H 	0.19480 0.82940 0.26300 0.05100
H 	H 	0.05790 0.85180 0.26550 -0.02000
H 	H 	0.53760 0.39020 0.84600 -0.05400
H 	H 	0.54970 0.25940 0.81240 0.00700
H 	H 	0.60850 0.38190 0.63400 -0.02700
H 	H 	0.52600 0.22210 0.63150 0.00300
H 	H 	0.66440 0.23850 0.62440 0.05600
H 	H 	0.81800 0.52620 0.83320 -0.01400
H 	H 	0.80480 0.53820 0.61640 0.01900
H 	H 	0.01750 0.53460 0.65180 -0.15100
H 	H 	0.69880 0.98590 0.65700 -0.05400
H 	H 	0.61880 0.01130 0.72410 -0.07000
H 	H 	0.72550 0.11060 0.62190 0.06800
H 	H 	0.58910 0.08790 0.62000 0.00000
H 	H 	0.69480 0.17060 0.73700 0.05100
H 	H 	0.55790 0.14820 0.73450 -0.00900
H 	H 	0.78760 0.65400 0.89020 -0.04800
H 	H 	0.79970 0.68760 0.75940 0.01300
H 	H 	0.85850 0.86600 0.88190 -0.01800
H 	H 	0.77600 0.86850 0.72210 0.00900
H 	H 	0.91440 0.87560 0.73850 0.07400
H 	H 	0.06800 0.66680 0.02620 -0.04600
H 	H 	0.05480 0.88360 0.03820 -0.04300
H 	H 	0.26750 0.84820 0.03460 -0.01600
H 	H 	0.94880 0.84300 0.48590 -0.04500
H 	H 	0.86880 0.77590 0.51130 -0.07500
H 	H 	0.97550 0.87810 0.61060 0.10500
H 	H 	0.83910 0.88000 0.58790 0.01700
H 	H 	0.94480 0.76300 0.67060 0.07400
H 	H 	0.80790 0.76550 0.64820 -0.00800
H 	H 	0.28760 0.34600 0.10980 -0.05500
H 	H 	0.29970 0.31240 0.24060 0.00500
H 	H 	0.35850 0.13400 0.11810 -0.02600
H 	H 	0.27600 0.13150 0.27790 -0.00000
H 	H 	0.41440 0.12440 0.26150 0.05700
H 	H 	0.56800 0.33320 0.97380 -0.02400
H 	H 	0.55480 0.11640 0.96180 -0.02600
H 	H 	0.76750 0.15180 0.96540 -0.01000
H 	H 	0.44880 0.15700 0.51410 -0.05800
H 	H 	0.36880 0.22410 0.48870 -0.07800
H 	H 	0.47550 0.12190 0.38940 0.06700
H 	H 	0.33910 0.12000 0.41210 -0.00400
H 	H 	0.44480 0.23700 0.32940 0.04900
H 	H 	0.30790 0.23450 0.35180 -0.01700
C 	C 	0.19710 0.87206 0.70154 -0.02600
C 	C 	0.19010 0.79962 0.71944 -0.05300
C 	C 	0.15830 0.86802 0.81730 0.03400
C 	C 	0.15040 0.73005 0.84041 -0.06300
C 	C 	0.90960 0.02887 0.71658 0.08200
C 	C 	0.91610 0.03530 0.83517 0.00000
C 	C 	0.79820 0.03350 0.81610 -0.01600
C 	C 	0.06280 0.52509 0.80663 -0.05300
C 	C 	0.09280 0.59670 0.84732 -0.11200
C 	C 	0.12290 0.66110 0.79586 -0.08400
C 	C 	0.69710 0.12794 0.29846 -0.00800
C 	C 	0.69010 0.20038 0.28056 -0.03900
C 	C 	0.65830 0.13198 0.18270 0.05400
C 	C 	0.65040 0.26995 0.15959 -0.06900
C 	C 	0.40960 0.97113 0.28342 0.08300
C 	C 	0.41610 0.96470 0.16483 -0.00400
C 	C 	0.29820 0.96650 0.18390 -0.02000
C 	C 	0.56280 0.47491 0.19337 0.02300
C 	C 	0.59280 0.40330 0.15268 -0.14900
C 	C 	0.62290 0.33890 0.20414 -0.06600
C 	C 	0.44710 0.79846 0.37206 -0.01200
C 	C 	0.44010 0.78056 0.29962 -0.04100
C 	C 	0.40830 0.68270 0.36802 0.05000
C 	C 	0.40040 0.65959 0.23005 -0.07100
C 	C 	0.15960 0.78342 0.52887 0.08100
C 	C 	0.16610 0.66483 0.53530 0.09600
C 	C 	0.04820 0.68390 0.53350 -0.22800
C 	C 	0.31280 0.69337 0.02509 0.03100
C 	C 	0.34280 0.65268 0.09670 -0.15600
C 	C 	0.37290 0.70414 0.16110 -0.06100
C 	C 	0.94710 0.20154 0.62794 -0.00900
C 	C 	0.94010 0.21944 0.70038 -0.03200
C 	C 	0.90830 0.31730 0.63198 0.05800
C 	C 	0.90040 0.34041 0.76995 -0.07400
C 	C 	0.65960 0.21658 0.47113 0.08300
C 	C 	0.66610 0.33517 0.46470 -0.00300
C 	C 	0.54820 0.31610 0.46650 -0.02000
C 	C 	0.81280 0.30663 0.97491 0.01400
C 	C 	0.84280 0.34732 0.90330 -0.14900
C 	C 	0.87290 0.29586 0.83890 -0.06400
C 	C 	0.05290 0.62794 0.20154 -0.02000
C 	C 	0.05990 0.70038 0.21944 -0.05400
C 	C 	0.09170 0.63198 0.31730 0.03800
C 	C 	0.09960 0.76995 0.34041 -0.06800
C 	C 	0.34040 0.47113 0.21658 0.08100
C 	C 	0.33390 0.46470 0.33517 -0.00400
C 	C 	0.45180 0.46650 0.31610 -0.02100
C 	C 	0.18720 0.97491 0.30663 0.04400
C 	C 	0.15720 0.90330 0.34732 -0.16100
C 	C 	0.12710 0.83890 0.29586 -0.06000
C 	C 	0.55290 0.37206 0.79846 -0.01700
C 	C 	0.55990 0.29962 0.78056 -0.04600
C 	C 	0.59170 0.36802 0.68270 0.04500
C 	C 	0.59960 0.23005 0.65959 -0.07300
C 	C 	0.84040 0.52887 0.78342 0.08400
C 	C 	0.83390 0.53530 0.66483 -0.10400
C 	C 	0.95180 0.53350 0.68390 0.19200
C 	C 	0.68720 0.02509 0.69337 0.03600
C 	C 	0.65720 0.09670 0.65268 -0.16100
C 	C 	0.62710 0.16110 0.70414 -0.05800
C 	C 	0.80290 0.70154 0.87206 -0.00200
C 	C 	0.80990 0.71944 0.79962 -0.03300
C 	C 	0.84170 0.81730 0.86802 0.06200
C 	C 	0.84960 0.84041 0.73005 -0.07800
C 	C 	0.09040 0.71658 0.02887 0.08400
C 	C 	0.08390 0.83517 0.03530 -0.00700
C 	C 	0.20180 0.81610 0.03350 -0.02300
C 	C 	0.93720 0.80663 0.52509 0.10800
C 	C 	0.90720 0.84732 0.59670 -0.19600
C 	C 	0.87710 0.79586 0.66110 -0.04200
C 	C 	0.30290 0.29846 0.12794 -0.02000
C 	C 	0.30990 0.28056 0.20038 -0.04700
C 	C 	0.34170 0.18270 0.13198 0.04300
C 	C 	0.34960 0.15959 0.26995 -0.07500
C 	C 	0.59040 0.28342 0.97113 0.08100
C 	C 	0.58390 0.16483 0.96470 -0.00200
C 	C 	0.70180 0.18390 0.96650 -0.02200
C 	C 	0.43720 0.19337 0.47491 0.03800
C 	C 	0.40720 0.15268 0.40330 -0.16400
C 	C 	0.37710 0.20414 0.33890 -0.05500
N 	N 	0.16500 0.79699 0.79344 -0.12900
N 	N 	0.17870 0.91516 0.76268 -0.26600
N 	N 	0.98670 0.03243 0.77245 -0.21000
N 	N 	0.95510 0.52957 0.75951 -0.12500
N 	N 	0.66500 0.20301 0.20656 -0.12100
N 	N 	0.67870 0.08484 0.23732 -0.25500
N 	N 	0.48670 0.96757 0.22755 -0.24200
N 	N 	0.45510 0.47043 0.24049 -0.13700
N 	N 	0.41500 0.70656 0.29699 -0.12200
N 	N 	0.42870 0.73732 0.41516 -0.26000
N 	N 	0.23670 0.72755 0.53243 -0.25800
N 	N 	0.20510 0.74049 0.02957 -0.14000
N 	N 	0.91500 0.29344 0.70301 -0.12000
N 	N 	0.92870 0.26268 0.58484 -0.25300
N 	N 	0.73670 0.27245 0.46757 -0.24100
N 	N 	0.70510 0.25951 0.97043 -0.13500
N 	N 	0.08500 0.70301 0.29344 -0.12700
N 	N 	0.07130 0.58484 0.26268 -0.26700
N 	N 	0.26330 0.46757 0.27245 -0.24400
N 	N 	0.29490 0.97043 0.25951 -0.14200
N 	N 	0.58500 0.29699 0.70656 -0.12400
N 	N 	0.57130 0.41516 0.73732 -0.26100
N 	N 	0.76330 0.53243 0.72755 -0.22600
N 	N 	0.79490 0.02957 0.74049 -0.13800
N 	N 	0.83500 0.79344 0.79699 -0.11800
N 	N 	0.82130 0.76268 0.91516 -0.25200
N 	N 	0.01330 0.77245 0.03243 -0.27000
N 	N 	0.04490 0.75951 0.52957 -0.15000
N 	N 	0.33500 0.20656 0.20301 -0.12500
N 	N 	0.32130 0.23732 0.08484 -0.26200
N 	N 	0.51330 0.22755 0.96757 -0.24300
N 	N 	0.54490 0.24049 0.47043 -0.14000
O 	O 	0.13277 0.02592 0.02745 -0.91300
O 	O 	0.19447 0.02936 0.87701 -0.83600
O 	O 	0.25166 0.96696 0.52073 -0.89300
O 	O 	0.16079 0.03375 0.65069 -0.85700
O 	O 	0.63277 0.97408 0.97255 -0.89200
O 	O 	0.69447 0.97064 0.12299 -0.80200
O 	O 	0.75166 0.03304 0.47927 -0.87700
O 	O 	0.66079 0.96625 0.34931 -0.81600
O 	O 	0.38277 0.47255 0.52592 -0.89700
O 	O 	0.44447 0.62299 0.52936 -0.80800
O 	O 	0.50166 0.97927 0.46696 -0.88900
O 	O 	0.41079 0.84931 0.53375 -0.82300
O 	O 	0.88277 0.52745 0.47408 -0.85500
O 	O 	0.94447 0.37701 0.47064 -0.76100
O 	O 	0.00166 0.02073 0.53304 -0.96100
O 	O 	0.91079 0.15069 0.46625 -0.79700
O 	O 	0.11723 0.47408 0.52745 -0.92100
O 	O 	0.05553 0.47064 0.37701 -0.83900
O 	O 	0.99834 0.53304 0.02073 -0.82300
O 	O 	0.08921 0.46625 0.15069 -0.84900
O 	O 	0.61723 0.52592 0.47255 -0.89200
O 	O 	0.55553 0.52936 0.62299 -0.80900
O 	O 	0.49834 0.46696 0.97927 -0.88900
O 	O 	0.58921 0.53375 0.84931 -0.82500
O 	O 	0.86723 0.02745 0.02592 -0.85100
O 	O 	0.80553 0.87701 0.02936 -0.78900
O 	O 	0.74834 0.52073 0.96696 -0.88200
O 	O 	0.83921 0.65069 0.03375 -0.79600
O 	O 	0.36723 0.97255 0.97408 -0.89100
O 	O 	0.30553 0.12299 0.97064 -0.82100
O 	O 	0.24834 0.47927 0.03304 -0.89700
O 	O 	0.33921 0.34931 0.96625 -0.83600
