data_crystal

_cell_length_a 16.23870
_cell_length_b 18.67010
_cell_length_c 21.65650
_cell_angle_alpha 90.00000
_cell_angle_beta  106.13800
_cell_angle_gamma 90.00000

_symmetry_space_group_name_	'P 1'
_symmetry_space_group_name_H-M	'P 1'

loop_
_symmetry_equiv_pos_as_xyz
  x,y,z

loop_
_atom_site_label
_atom_site_type_symbol
_atom_site_fract_x
_atom_site_fract_y
_atom_site_fract_z
_atom_site_charge
C 	C 	0.59780 0.06670 0.27381 0.40400
C 	C 	0.68100 0.09390 0.31488 -0.18900
C 	C 	0.75690 0.06180 0.31252 0.13700
H 	H 	0.75490 0.02100 0.28760 -0.00100
C 	C 	0.83480 0.08890 0.34621 -0.22900
H 	H 	0.88480 0.06590 0.34410 0.11600
C 	C 	0.84040 0.15031 0.38344 0.19800
C 	C 	0.76480 0.18052 0.38850 -0.23300
H 	H 	0.76670 0.21990 0.41510 0.11700
C 	C 	0.68660 0.15270 0.35436 0.13500
H 	H 	0.63650 0.17420 0.35810 -0.00300
C 	C 	0.99110 0.16910 0.38692 0.18000
C 	C 	0.98310 0.18410 0.32403 -0.20300
H 	H 	0.93190 0.20270 0.29830 0.10900
C 	C 	0.05070 0.17200 0.29840 0.08400
H 	H 	0.04390 0.18180 0.25520 0.00300
C 	C 	0.12750 0.14590 0.33511 -0.12400
C 	C 	0.13540 0.13520 0.39898 0.08900
H 	H 	0.18790 0.12040 0.42580 -0.00200
C 	C 	0.06840 0.14550 0.42424 -0.20800
H 	H 	0.07540 0.13630 0.46760 0.10700
C 	C 	0.19800 0.12770 0.30697 0.16900
C 	C 	0.18380 0.10800 0.24473 -0.22000
H 	H 	0.12840 0.10920 0.21740 0.10800
C 	C 	0.25020 0.08610 0.22134 0.13700
H 	H 	0.23730 0.07220 0.17850 -0.01700
C 	C 	0.34630 0.10940 0.31401 0.12500
H 	H 	0.40310 0.11280 0.33850 -0.01400
C 	C 	0.28260 0.13160 0.34128 -0.20900
H 	H 	0.29750 0.14920 0.38310 0.10500
C 	C 	0.93380 0.22987 0.46573 0.19900
C 	C 	0.98350 0.29012 0.46495 -0.22900
H 	H 	0.00940 0.29640 0.43200 0.12200
C 	C 	0.99450 0.34055 0.51287 0.13400
H 	H 	0.02860 0.38040 0.51250 0.00300
C 	C 	0.95517 0.33267 0.56188 -0.19000
C 	C 	0.90730 0.27151 0.56234 0.13900
H 	H 	0.88170 0.26480 0.59540 -0.00300
C 	C 	0.89660 0.22082 0.51528 -0.23800
H 	H 	0.86430 0.18010 0.51660 0.11700
C 	C 	0.96160 0.39048 0.61006 0.40200
C 	C 	0.84700 0.56244 0.60946 0.38800
C 	C 	0.76671 0.59862 0.57190 -0.17800
C 	C 	0.76700 0.66610 0.54640 0.12200
H 	H 	0.81910 0.68890 0.55010 0.00100
C 	C 	0.69160 0.70080 0.51535 -0.21800
H 	H 	0.69320 0.74710 0.49990 0.10800
C 	C 	0.61320 0.66626 0.50725 0.18400
C 	C 	0.61300 0.59770 0.53154 -0.21600
H 	H 	0.56120 0.57360 0.52570 0.11000
C 	C 	0.68810 0.56480 0.56417 0.12000
H 	H 	0.68640 0.51930 0.58130 0.00000
C 	C 	0.46220 0.68360 0.50066 0.14700
C 	C 	0.46950 0.68900 0.56537 -0.16900
H 	H 	0.51910 0.70770 0.59320 0.09600
C 	C 	0.40290 0.66660 0.58872 0.04500
H 	H 	0.40920 0.66920 0.63270 0.01500
C 	C 	0.32710 0.64041 0.54865 -0.08500
C 	C 	0.31940 0.63860 0.48277 0.03900
H 	H 	0.26830 0.62300 0.45450 0.02200
C 	C 	0.38620 0.65960 0.45889 -0.16400
H 	H 	0.38020 0.65770 0.41490 0.09100
C 	C 	0.25730 0.61448 0.57452 0.13100
C 	C 	0.24840 0.63730 0.63306 -0.18500
H 	H 	0.28810 0.66920 0.65770 0.09600
C 	C 	0.18190 0.61348 0.65536 0.10700
H 	H 	0.17760 0.63050 0.69470 -0.00800
C 	C 	0.19770 0.56480 0.54266 -0.18300
H 	H 	0.20130 0.54600 0.50370 0.10200
C 	C 	0.13330 0.54283 0.56789 0.11300
H 	H 	0.09440 0.50910 0.54510 -0.00000
C 	C 	0.52440 0.74850 0.42507 0.19700
C 	C 	0.57140 0.74190 0.38121 -0.23700
H 	H 	0.61050 0.70470 0.38540 0.11600
C 	C 	0.56100 0.78981 0.33126 0.13700
H 	H 	0.59400 0.78450 0.30260 -0.00500
C 	C 	0.50290 0.84548 0.32264 -0.19200
C 	C 	0.45550 0.85110 0.36662 0.13900
H 	H 	0.41550 0.88780 0.36200 -0.00200
C 	C 	0.46600 0.80420 0.41662 -0.23300
H 	H 	0.43330 0.80970 0.44540 0.11700
C 	C 	0.49310 0.89797 0.26964 0.40300
Co	Co	0.02315 0.53723 0.65882 1.15300
Co	Co	0.92695 0.45554 0.72033 1.15400
N 	N 	0.33030 0.08377 0.25541 -0.25600
N 	N 	0.12314 0.56698 0.62309 -0.24500
N 	N 	0.92114 0.18015 0.41445 -0.20100
N 	N 	0.53435 0.70052 0.47727 -0.19400
O 	O 	0.92621 0.37984 0.65436 -0.44800
O 	O 	0.99981 0.44712 0.60294 -0.45400
O 	O 	0.52965 0.08808 0.28488 -0.43600
O 	O 	0.60095 0.02472 0.22946 -0.47100
O 	O 	0.84016 0.51123 0.64525 -0.44900
O 	O 	0.91773 0.58561 0.60332 -0.44400
O 	O 	0.44484 0.95086 0.26959 -0.46100
O 	O 	0.53389 0.88734 0.22878 -0.44100
C 	C 	0.09780 0.43330 0.77381 0.40300
C 	C 	0.18100 0.40610 0.81488 -0.19000
C 	C 	0.25690 0.43820 0.81252 0.13600
H 	H 	0.25490 0.47900 0.78760 -0.00200
C 	C 	0.33480 0.41110 0.84621 -0.23000
H 	H 	0.38480 0.43410 0.84410 0.11500
C 	C 	0.34040 0.34969 0.88344 0.19700
C 	C 	0.26480 0.31948 0.88850 -0.23400
H 	H 	0.26670 0.28010 0.91510 0.11700
C 	C 	0.18660 0.34730 0.85436 0.13500
H 	H 	0.13650 0.32580 0.85810 -0.00300
C 	C 	0.49110 0.33090 0.88692 0.18000
C 	C 	0.48310 0.31590 0.82403 -0.20500
H 	H 	0.43190 0.29730 0.79830 0.10900
C 	C 	0.55070 0.32800 0.79840 0.08600
H 	H 	0.54390 0.31820 0.75520 0.00300
C 	C 	0.62750 0.35410 0.83511 -0.12500
C 	C 	0.63540 0.36480 0.89898 0.08900
H 	H 	0.68790 0.37960 0.92580 -0.00200
C 	C 	0.56840 0.35450 0.92424 -0.20800
H 	H 	0.57540 0.36370 0.96760 0.10700
C 	C 	0.69800 0.37230 0.80697 0.16900
C 	C 	0.68380 0.39200 0.74473 -0.22000
H 	H 	0.62840 0.39080 0.71740 0.10800
C 	C 	0.75020 0.41390 0.72134 0.13700
H 	H 	0.73730 0.42780 0.67850 -0.01700
C 	C 	0.84630 0.39060 0.81401 0.12500
H 	H 	0.90310 0.38720 0.83850 -0.01400
C 	C 	0.78260 0.36840 0.84128 -0.20900
H 	H 	0.79750 0.35080 0.88310 0.10500
C 	C 	0.43380 0.27013 0.96573 0.19900
C 	C 	0.48350 0.20988 0.96495 -0.23100
H 	H 	0.50940 0.20360 0.93200 0.12300
C 	C 	0.49450 0.15945 0.01287 0.13400
H 	H 	0.52860 0.11960 0.01250 0.00300
C 	C 	0.45517 0.16733 0.06188 -0.19000
C 	C 	0.40730 0.22849 0.06234 0.14000
H 	H 	0.38170 0.23520 0.09540 -0.00300
C 	C 	0.39660 0.27918 0.01528 -0.23900
H 	H 	0.36430 0.31990 0.01660 0.11700
C 	C 	0.46160 0.10952 0.11006 0.40200
C 	C 	0.34700 0.93756 0.10946 0.38900
C 	C 	0.26671 0.90138 0.07190 -0.17800
C 	C 	0.26700 0.83390 0.04640 0.12300
H 	H 	0.31910 0.81110 0.05010 0.00100
C 	C 	0.19160 0.79920 0.01535 -0.22000
H 	H 	0.19320 0.75290 0.99990 0.11000
C 	C 	0.11320 0.83374 0.00725 0.18300
C 	C 	0.11300 0.90230 0.03154 -0.21600
H 	H 	0.06120 0.92640 0.02570 0.11000
C 	C 	0.18810 0.93520 0.06417 0.12000
H 	H 	0.18640 0.98070 0.08130 0.00000
C 	C 	0.96220 0.81640 0.00066 0.14700
C 	C 	0.96950 0.81100 0.06537 -0.16800
H 	H 	0.01910 0.79230 0.09320 0.09500
C 	C 	0.90290 0.83340 0.08872 0.04400
H 	H 	0.90920 0.83080 0.13270 0.01500
C 	C 	0.82710 0.85959 0.04865 -0.08400
C 	C 	0.81940 0.86140 0.98277 0.03800
H 	H 	0.76830 0.87700 0.95450 0.02200
C 	C 	0.88620 0.84040 0.95889 -0.16500
H 	H 	0.88020 0.84230 0.91490 0.09100
C 	C 	0.75730 0.88552 0.07452 0.13100
C 	C 	0.74840 0.86270 0.13306 -0.18400
H 	H 	0.78810 0.83080 0.15770 0.09600
C 	C 	0.68190 0.88652 0.15536 0.10700
H 	H 	0.67760 0.86950 0.19470 -0.00800
C 	C 	0.69770 0.93520 0.04266 -0.18200
H 	H 	0.70130 0.95400 0.00370 0.10200
C 	C 	0.63330 0.95717 0.06789 0.11200
H 	H 	0.59440 0.99090 0.04510 -0.00000
C 	C 	0.02440 0.75150 0.92507 0.19800
C 	C 	0.07140 0.75810 0.88121 -0.23600
H 	H 	0.11050 0.79530 0.88540 0.11600
C 	C 	0.06100 0.71019 0.83126 0.13600
H 	H 	0.09400 0.71550 0.80260 -0.00500
C 	C 	0.00290 0.65452 0.82264 -0.18900
C 	C 	0.95550 0.64890 0.86662 0.13700
H 	H 	0.91550 0.61220 0.86200 -0.00100
C 	C 	0.96600 0.69580 0.91662 -0.23400
H 	H 	0.93330 0.69030 0.94540 0.11700
C 	C 	0.99310 0.60203 0.76964 0.40100
Co	Co	0.52315 0.96277 0.15882 1.15300
Co	Co	0.42695 0.04446 0.22033 1.15400
N 	N 	0.83030 0.41623 0.75541 -0.25600
N 	N 	0.62314 0.93302 0.12309 -0.24500
N 	N 	0.42114 0.31985 0.91445 -0.20100
N 	N 	0.03435 0.79948 0.97727 -0.19300
O 	O 	0.42621 0.12016 0.15436 -0.44800
O 	O 	0.49981 0.05288 0.10294 -0.45300
O 	O 	0.02965 0.41192 0.78488 -0.43600
O 	O 	0.10095 0.47528 0.72946 -0.47100
O 	O 	0.34016 0.98877 0.14525 -0.44800
O 	O 	0.41773 0.91439 0.10332 -0.44400
O 	O 	0.94484 0.54914 0.76959 -0.46100
O 	O 	0.03389 0.61266 0.72878 -0.44000
C 	C 	0.90220 0.56670 0.22619 0.40300
C 	C 	0.81900 0.59390 0.18512 -0.19000
C 	C 	0.74310 0.56180 0.18748 0.13600
H 	H 	0.74510 0.52100 0.21240 -0.00200
C 	C 	0.66520 0.58890 0.15379 -0.23000
H 	H 	0.61520 0.56590 0.15590 0.11500
C 	C 	0.65960 0.65031 0.11656 0.19700
C 	C 	0.73520 0.68052 0.11150 -0.23400
H 	H 	0.73330 0.71990 0.08490 0.11700
C 	C 	0.81340 0.65270 0.14564 0.13500
H 	H 	0.86350 0.67420 0.14190 -0.00300
C 	C 	0.50890 0.66910 0.11308 0.18000
C 	C 	0.51690 0.68410 0.17597 -0.20500
H 	H 	0.56810 0.70270 0.20170 0.10900
C 	C 	0.44930 0.67200 0.20160 0.08600
H 	H 	0.45610 0.68180 0.24480 0.00300
C 	C 	0.37250 0.64590 0.16489 -0.12500
C 	C 	0.36460 0.63520 0.10102 0.08900
H 	H 	0.31210 0.62040 0.07420 -0.00200
C 	C 	0.43160 0.64550 0.07576 -0.20800
H 	H 	0.42460 0.63630 0.03240 0.10700
C 	C 	0.30200 0.62770 0.19303 0.16900
C 	C 	0.31620 0.60800 0.25527 -0.22000
H 	H 	0.37160 0.60920 0.28260 0.10800
C 	C 	0.24980 0.58610 0.27866 0.13700
H 	H 	0.26270 0.57220 0.32150 -0.01700
C 	C 	0.15370 0.60940 0.18599 0.12500
H 	H 	0.09690 0.61280 0.16150 -0.01400
C 	C 	0.21740 0.63160 0.15872 -0.20900
H 	H 	0.20250 0.64920 0.11690 0.10500
C 	C 	0.56620 0.72987 0.03427 0.19900
C 	C 	0.51650 0.79012 0.03505 -0.23100
H 	H 	0.49060 0.79640 0.06800 0.12300
C 	C 	0.50550 0.84055 0.98713 0.13400
H 	H 	0.47140 0.88040 0.98750 0.00300
C 	C 	0.54483 0.83267 0.93812 -0.19000
C 	C 	0.59270 0.77151 0.93766 0.14000
H 	H 	0.61830 0.76480 0.90460 -0.00300
C 	C 	0.60340 0.72082 0.98472 -0.23900
H 	H 	0.63570 0.68010 0.98340 0.11700
C 	C 	0.53840 0.89048 0.88994 0.40200
C 	C 	0.65300 0.06244 0.89054 0.38900
C 	C 	0.73329 0.09862 0.92810 -0.17800
C 	C 	0.73300 0.16610 0.95360 0.12300
H 	H 	0.68090 0.18890 0.94990 0.00100
C 	C 	0.80840 0.20080 0.98465 -0.22000
H 	H 	0.80680 0.24710 0.00010 0.11000
C 	C 	0.88680 0.16626 0.99275 0.18300
C 	C 	0.88700 0.09770 0.96846 -0.21600
H 	H 	0.93880 0.07360 0.97430 0.11000
C 	C 	0.81190 0.06480 0.93583 0.12000
H 	H 	0.81360 0.01930 0.91870 0.00000
C 	C 	0.03780 0.18360 0.99934 0.14700
C 	C 	0.03050 0.18900 0.93463 -0.16800
H 	H 	0.98090 0.20770 0.90680 0.09500
C 	C 	0.09710 0.16660 0.91128 0.04400
H 	H 	0.09080 0.16920 0.86730 0.01500
C 	C 	0.17290 0.14041 0.95135 -0.08400
C 	C 	0.18060 0.13860 0.01723 0.03800
H 	H 	0.23170 0.12300 0.04550 0.02200
C 	C 	0.11380 0.15960 0.04111 -0.16500
H 	H 	0.11980 0.15770 0.08510 0.09100
C 	C 	0.24270 0.11448 0.92548 0.13100
C 	C 	0.25160 0.13730 0.86694 -0.18400
H 	H 	0.21190 0.16920 0.84230 0.09600
C 	C 	0.31810 0.11348 0.84464 0.10700
H 	H 	0.32240 0.13050 0.80530 -0.00800
C 	C 	0.30230 0.06480 0.95734 -0.18200
H 	H 	0.29870 0.04600 0.99630 0.10200
C 	C 	0.36670 0.04283 0.93211 0.11200
H 	H 	0.40560 0.00910 0.95490 -0.00000
C 	C 	0.97560 0.24850 0.07493 0.19800
C 	C 	0.92860 0.24190 0.11879 -0.23600
H 	H 	0.88950 0.20470 0.11460 0.11600
C 	C 	0.93900 0.28981 0.16874 0.13600
H 	H 	0.90600 0.28450 0.19740 -0.00500
C 	C 	0.99710 0.34548 0.17736 -0.18900
C 	C 	0.04450 0.35110 0.13338 0.13700
H 	H 	0.08450 0.38780 0.13800 -0.00100
C 	C 	0.03400 0.30420 0.08338 -0.23400
H 	H 	0.06670 0.30970 0.05460 0.11700
C 	C 	0.00690 0.39797 0.23036 0.40100
Co	Co	0.47685 0.03723 0.84118 1.15300
Co	Co	0.57305 0.95554 0.77967 1.15400
N 	N 	0.16970 0.58377 0.24459 -0.25600
N 	N 	0.37686 0.06698 0.87691 -0.24500
N 	N 	0.57886 0.68015 0.08555 -0.20100
N 	N 	0.96565 0.20052 0.02273 -0.19300
O 	O 	0.57379 0.87984 0.84564 -0.44800
O 	O 	0.50019 0.94712 0.89706 -0.45300
O 	O 	0.97035 0.58808 0.21512 -0.43600
O 	O 	0.89905 0.52472 0.27054 -0.47100
O 	O 	0.65984 0.01123 0.85475 -0.44800
O 	O 	0.58227 0.08561 0.89668 -0.44400
O 	O 	0.05516 0.45086 0.23041 -0.46100
O 	O 	0.96611 0.38734 0.27122 -0.44000
C 	C 	0.40220 0.93330 0.72619 0.40300
C 	C 	0.31900 0.90610 0.68512 -0.19000
C 	C 	0.24310 0.93820 0.68748 0.13600
H 	H 	0.24510 0.97900 0.71240 -0.00200
C 	C 	0.16520 0.91110 0.65379 -0.23000
H 	H 	0.11520 0.93410 0.65590 0.11500
C 	C 	0.15960 0.84969 0.61656 0.19700
C 	C 	0.23520 0.81948 0.61150 -0.23400
H 	H 	0.23330 0.78010 0.58490 0.11700
C 	C 	0.31340 0.84730 0.64564 0.13500
H 	H 	0.36350 0.82580 0.64190 -0.00300
C 	C 	0.00890 0.83090 0.61308 0.18000
C 	C 	0.01690 0.81590 0.67597 -0.20300
H 	H 	0.06810 0.79730 0.70170 0.10900
C 	C 	0.94930 0.82800 0.70160 0.08400
H 	H 	0.95610 0.81820 0.74480 0.00300
C 	C 	0.87250 0.85410 0.66489 -0.12400
C 	C 	0.86460 0.86480 0.60102 0.08900
H 	H 	0.81210 0.87960 0.57420 -0.00200
C 	C 	0.93160 0.85450 0.57576 -0.20800
H 	H 	0.92460 0.86370 0.53240 0.10700
C 	C 	0.80200 0.87230 0.69303 0.16900
C 	C 	0.81620 0.89200 0.75527 -0.22000
H 	H 	0.87160 0.89080 0.78260 0.10800
C 	C 	0.74980 0.91390 0.77866 0.13700
H 	H 	0.76270 0.92780 0.82150 -0.01700
C 	C 	0.65370 0.89060 0.68599 0.12500
H 	H 	0.59690 0.88720 0.66150 -0.01400
C 	C 	0.71740 0.86840 0.65872 -0.20900
H 	H 	0.70250 0.85080 0.61690 0.10500
C 	C 	0.06620 0.77013 0.53427 0.19900
C 	C 	0.01650 0.70988 0.53505 -0.22900
H 	H 	0.99060 0.70360 0.56800 0.12200
C 	C 	0.00550 0.65945 0.48713 0.13400
H 	H 	0.97140 0.61960 0.48750 0.00300
C 	C 	0.04483 0.66733 0.43812 -0.19000
C 	C 	0.09270 0.72849 0.43766 0.13900
H 	H 	0.11830 0.73520 0.40460 -0.00300
C 	C 	0.10340 0.77918 0.48472 -0.23800
H 	H 	0.13570 0.81990 0.48340 0.11700
C 	C 	0.03840 0.60952 0.38994 0.40200
C 	C 	0.15300 0.43756 0.39054 0.38800
C 	C 	0.23329 0.40138 0.42810 -0.17800
C 	C 	0.23300 0.33390 0.45360 0.12200
H 	H 	0.18090 0.31110 0.44990 0.00100
C 	C 	0.30840 0.29920 0.48465 -0.21800
H 	H 	0.30680 0.25290 0.50010 0.10800
C 	C 	0.38680 0.33374 0.49275 0.18400
C 	C 	0.38700 0.40230 0.46846 -0.21600
H 	H 	0.43880 0.42640 0.47430 0.11000
C 	C 	0.31190 0.43520 0.43583 0.12000
H 	H 	0.31360 0.48070 0.41870 0.00000
C 	C 	0.53780 0.31640 0.49934 0.14700
C 	C 	0.53050 0.31100 0.43463 -0.16900
H 	H 	0.48090 0.29230 0.40680 0.09600
C 	C 	0.59710 0.33340 0.41128 0.04500
H 	H 	0.59080 0.33080 0.36730 0.01500
C 	C 	0.67290 0.35959 0.45135 -0.08500
C 	C 	0.68060 0.36140 0.51723 0.03900
H 	H 	0.73170 0.37700 0.54550 0.02200
C 	C 	0.61380 0.34040 0.54111 -0.16400
H 	H 	0.61980 0.34230 0.58510 0.09100
C 	C 	0.74270 0.38552 0.42548 0.13100
C 	C 	0.75160 0.36270 0.36694 -0.18500
H 	H 	0.71190 0.33080 0.34230 0.09600
C 	C 	0.81810 0.38652 0.34464 0.10700
H 	H 	0.82240 0.36950 0.30530 -0.00800
C 	C 	0.80230 0.43520 0.45734 -0.18300
H 	H 	0.79870 0.45400 0.49630 0.10200
C 	C 	0.86670 0.45717 0.43211 0.11300
H 	H 	0.90560 0.49090 0.45490 -0.00000
C 	C 	0.47560 0.25150 0.57493 0.19700
C 	C 	0.42860 0.25810 0.61879 -0.23700
H 	H 	0.38950 0.29530 0.61460 0.11600
C 	C 	0.43900 0.21019 0.66874 0.13700
H 	H 	0.40600 0.21550 0.69740 -0.00500
C 	C 	0.49710 0.15452 0.67736 -0.19200
C 	C 	0.54450 0.14890 0.63338 0.13900
H 	H 	0.58450 0.11220 0.63800 -0.00200
C 	C 	0.53400 0.19580 0.58338 -0.23300
H 	H 	0.56670 0.19030 0.55460 0.11700
C 	C 	0.50690 0.10203 0.73036 0.40300
Co	Co	0.97685 0.46277 0.34118 1.15300
Co	Co	0.07305 0.54446 0.27967 1.15400
N 	N 	0.66970 0.91623 0.74459 -0.25600
N 	N 	0.87686 0.43302 0.37691 -0.24500
N 	N 	0.07886 0.81985 0.58555 -0.20100
N 	N 	0.46565 0.29948 0.52273 -0.19400
O 	O 	0.07379 0.62016 0.34564 -0.44800
O 	O 	0.00019 0.55288 0.39706 -0.45400
O 	O 	0.47035 0.91192 0.71512 -0.43600
O 	O 	0.39905 0.97528 0.77054 -0.47100
O 	O 	0.15984 0.48877 0.35475 -0.44900
O 	O 	0.08227 0.41439 0.39668 -0.44400
O 	O 	0.55516 0.04914 0.73041 -0.46100
O 	O 	0.46611 0.11266 0.77122 -0.44100
