data_crystal

_cell_length_a 20.05530
_cell_length_b 11.14620
_cell_length_c 19.53540
_cell_angle_alpha 90.00000
_cell_angle_beta  108.35200
_cell_angle_gamma 90.00000

_symmetry_space_group_name_	'P 1'
_symmetry_space_group_name_H-M	'P 1'

loop_
_symmetry_equiv_pos_as_xyz
  x,y,z

loop_
_atom_site_label
_atom_site_type_symbol
_atom_site_fract_x
_atom_site_fract_y
_atom_site_fract_z
_atom_site_charge
Zn	Zn	0.41162 0.70846 0.23228 1.20800
Zn	Zn	0.27567 0.71259 0.09805 1.18600
Zn	Zn	0.27852 0.56653 0.23845 1.21000
Zn	Zn	0.27547 0.85268 0.23969 1.18100
C 	C 	0.41080 0.55740 0.35680 0.41900
C 	C 	0.40880 0.37640 0.59150 0.40300
C 	C 	0.44840 0.52530 0.43380 -0.15800
C 	C 	0.41360 0.46280 0.47440 0.08300
H 	H 	0.36820 0.43490 0.45230 0.02400
C 	C 	0.44630 0.44160 0.54750 -0.14400
C 	C 	0.51450 0.48330 0.57910 0.06500
H 	H 	0.53670 0.46980 0.62800 0.02400
C 	C 	0.55000 0.54390 0.53990 -0.12700
H 	H 	0.59570 0.57070 0.56190 0.06300
C 	C 	0.51590 0.56520 0.46530 0.06100
H 	H 	0.53920 0.60590 0.43800 0.01200
C 	C 	0.25800 0.43260 0.11030 0.39400
C 	C 	0.25150 0.98460 0.11120 0.37600
C 	C 	0.24290 0.31630 0.06970 -0.11100
C 	C 	0.25020 0.20850 0.10670 0.05000
H 	H 	0.26340 0.20870 0.15680 0.03800
C 	C 	0.23780 0.10010 0.06950 -0.10400
C 	C 	0.21720 0.09930 0.99510 0.01300
H 	H 	0.20910 0.02700 0.97000 0.01600
C 	C 	0.20880 0.20810 0.95780 -0.09800
H 	H 	0.19380 0.20830 0.90770 0.05000
C 	C 	0.22260 0.31610 0.99540 0.01400
H 	H 	0.21820 0.38810 0.97030 0.02600
C 	C 	0.15180 0.68580 0.23980 0.38100
C 	C 	0.93880 0.44510 0.24010 0.37100
C 	C 	0.07520 0.67780 0.23270 -0.10900
C 	C 	0.04390 0.56680 0.23570 0.01200
H 	H 	0.07000 0.49660 0.24020 0.04800
C 	C 	0.97300 0.56190 0.23180 -0.08200
C 	C 	0.93520 0.66780 0.22480 0.00700
H 	H 	0.88870 0.66550 0.22450 0.04300
C 	C 	0.96570 0.77690 0.21810 -0.05100
H 	H 	0.93930 0.84710 0.21090 0.05400
C 	C 	0.03480 0.78020 0.22220 -0.00700
H 	H 	0.05520 0.85350 0.21770 0.04000
O 	O 	0.44330 0.61730 0.32400 -0.52100
O 	O 	0.34870 0.52200 0.33100 -0.51300
O 	O 	0.35780 0.31330 0.56080 -0.48800
O 	O 	0.43580 0.39060 0.65960 -0.49100
O 	O 	0.25660 0.52680 0.07720 -0.49800
O 	O 	0.27010 0.42500 0.17870 -0.49000
O 	O 	0.27610 0.89880 0.08530 -0.49000
O 	O 	0.23870 0.98310 0.17100 -0.48500
O 	O 	0.18560 0.58850 0.24860 -0.50500
O 	O 	0.17710 0.78750 0.23750 -0.50900
O 	O 	0.30940 0.71100 0.20350 -0.96000
O 	O 	0.88180 0.45030 0.25280 -0.46700
O 	O 	0.96970 0.35090 0.23290 -0.46800
Zn	Zn	0.91162 0.20846 0.23228 1.20900
Zn	Zn	0.77567 0.21259 0.09805 1.18600
Zn	Zn	0.77852 0.06653 0.23845 1.21000
Zn	Zn	0.77547 0.35268 0.23969 1.18100
C 	C 	0.91080 0.05740 0.35680 0.40200
C 	C 	0.90880 0.87640 0.59150 0.38600
C 	C 	0.94840 0.02530 0.43380 -0.10300
C 	C 	0.91360 0.96280 0.47440 0.04000
H 	H 	0.86820 0.93490 0.45230 0.03900
C 	C 	0.94630 0.94160 0.54750 -0.09100
C 	C 	0.01450 0.98330 0.57910 -0.00300
H 	H 	0.03670 0.96980 0.62800 0.04200
C 	C 	0.05000 0.04390 0.53990 -0.07200
H 	H 	0.09570 0.07070 0.56190 0.04200
C 	C 	0.01590 0.06520 0.46530 -0.00600
H 	H 	0.03920 0.10590 0.43800 0.03000
C 	C 	0.75800 0.93260 0.11030 0.39300
C 	C 	0.75150 0.48460 0.11120 0.37600
C 	C 	0.74290 0.81630 0.06970 -0.11000
C 	C 	0.75020 0.70850 0.10670 0.05100
H 	H 	0.76340 0.70870 0.15680 0.03800
C 	C 	0.73780 0.60010 0.06950 -0.10400
C 	C 	0.71720 0.59930 0.99510 0.01400
H 	H 	0.70910 0.52700 0.97000 0.01700
C 	C 	0.70880 0.70810 0.95780 -0.09700
H 	H 	0.69380 0.70830 0.90770 0.05100
C 	C 	0.72260 0.81610 0.99540 0.01500
H 	H 	0.71820 0.88810 0.97030 0.02700
C 	C 	0.65180 0.18580 0.23980 0.39900
C 	C 	0.43880 0.94510 0.24010 0.38900
C 	C 	0.57520 0.17780 0.23270 -0.15400
C 	C 	0.54390 0.06680 0.23570 0.07700
H 	H 	0.57000 0.99660 0.24020 0.03000
C 	C 	0.47300 0.06190 0.23180 -0.13900
C 	C 	0.43520 0.16780 0.22480 0.06500
H 	H 	0.38870 0.16550 0.22450 0.02300
C 	C 	0.46570 0.27690 0.21810 -0.13500
H 	H 	0.43930 0.34710 0.21090 0.08100
C 	C 	0.53480 0.28020 0.22220 0.07300
H 	H 	0.55520 0.35350 0.21770 0.01800
O 	O 	0.94330 0.11730 0.32400 -0.51100
O 	O 	0.84870 0.02200 0.33100 -0.50800
O 	O 	0.85780 0.81330 0.56080 -0.48200
O 	O 	0.93580 0.89060 0.65960 -0.48300
O 	O 	0.75660 0.02680 0.07720 -0.49600
O 	O 	0.77010 0.92500 0.17870 -0.48900
O 	O 	0.77610 0.39880 0.08530 -0.48900
O 	O 	0.73870 0.48310 0.17100 -0.48400
O 	O 	0.68560 0.08850 0.24860 -0.50800
O 	O 	0.67710 0.28750 0.23750 -0.51200
O 	O 	0.80940 0.21100 0.20350 -0.96000
O 	O 	0.38180 0.95030 0.25280 -0.47300
O 	O 	0.46970 0.85090 0.23290 -0.47800
Zn	Zn	0.41162 0.29154 0.73228 1.20800
Zn	Zn	0.27567 0.28741 0.59805 1.18600
Zn	Zn	0.27852 0.43347 0.73845 1.21000
Zn	Zn	0.27547 0.14732 0.73969 1.18100
C 	C 	0.41080 0.44260 0.85680 0.40700
C 	C 	0.40880 0.62360 0.09150 0.39000
C 	C 	0.44840 0.47470 0.93380 -0.12700
C 	C 	0.41360 0.53720 0.97440 0.03600
H 	H 	0.36820 0.56510 0.95230 0.03500
C 	C 	0.44630 0.55840 0.04750 -0.10300
C 	C 	0.51450 0.51670 0.07910 0.02600
H 	H 	0.53670 0.53020 0.12800 0.03900
C 	C 	0.55000 0.45610 0.03990 -0.07200
H 	H 	0.59570 0.42930 0.06190 0.04700
C 	C 	0.51590 0.43480 0.96530 0.01000
H 	H 	0.53920 0.39410 0.93800 0.02700
C 	C 	0.25800 0.56740 0.61030 0.40800
C 	C 	0.25150 0.01540 0.61120 0.39100
C 	C 	0.24290 0.68370 0.56970 -0.15600
C 	C 	0.25020 0.79150 0.60670 0.08600
H 	H 	0.26340 0.79130 0.65680 0.02500
C 	C 	0.23780 0.89990 0.56950 -0.14900
C 	C 	0.21720 0.90070 0.49510 0.06900
H 	H 	0.20910 0.97300 0.47000 0.00100
C 	C 	0.20880 0.79190 0.45780 -0.14400
H 	H 	0.19380 0.79170 0.40770 0.06700
C 	C 	0.22260 0.68390 0.49540 0.07100
H 	H 	0.21820 0.61190 0.47030 0.01100
C 	C 	0.15180 0.31420 0.73980 0.38100
C 	C 	0.93880 0.55490 0.74010 0.37100
C 	C 	0.07520 0.32220 0.73270 -0.11000
C 	C 	0.04390 0.43320 0.73570 0.01100
H 	H 	0.07000 0.50340 0.74020 0.04700
C 	C 	0.97300 0.43810 0.73180 -0.08300
C 	C 	0.93520 0.33220 0.72480 0.00700
H 	H 	0.88870 0.33450 0.72450 0.04300
C 	C 	0.96570 0.22310 0.71810 -0.05200
H 	H 	0.93930 0.15290 0.71090 0.05400
C 	C 	0.03480 0.21980 0.72220 -0.00700
H 	H 	0.05520 0.14650 0.71770 0.04000
O 	O 	0.44330 0.38270 0.82400 -0.51900
O 	O 	0.34870 0.47800 0.83100 -0.51100
O 	O 	0.35780 0.68670 0.06080 -0.48100
O 	O 	0.43580 0.60940 0.15960 -0.48700
O 	O 	0.25660 0.47320 0.57720 -0.50500
O 	O 	0.27010 0.57500 0.67870 -0.49400
O 	O 	0.27610 0.10120 0.58530 -0.49700
O 	O 	0.23870 0.01690 0.67100 -0.48900
O 	O 	0.18560 0.41150 0.74860 -0.50700
O 	O 	0.17710 0.21250 0.73750 -0.50900
O 	O 	0.30940 0.28900 0.70350 -0.96000
O 	O 	0.88180 0.54970 0.75280 -0.46800
O 	O 	0.96970 0.64910 0.73290 -0.46900
Zn	Zn	0.91162 0.79154 0.73228 1.20800
Zn	Zn	0.77567 0.78741 0.59805 1.18600
Zn	Zn	0.77852 0.93347 0.73845 1.21000
Zn	Zn	0.77547 0.64732 0.73969 1.18100
C 	C 	0.91080 0.94260 0.85680 0.39200
C 	C 	0.90880 0.12360 0.09150 0.37400
C 	C 	0.94840 0.97470 0.93380 -0.07700
C 	C 	0.91360 0.03720 0.97440 -0.00300
H 	H 	0.86820 0.06510 0.95230 0.04900
C 	C 	0.94630 0.05840 0.04750 -0.05300
C 	C 	0.01450 0.01670 0.07910 -0.03700
H 	H 	0.03670 0.03020 0.12800 0.05400
C 	C 	0.05000 0.95610 0.03990 -0.02400
H 	H 	0.09570 0.92930 0.06190 0.02800
C 	C 	0.01590 0.93480 0.96530 -0.05200
H 	H 	0.03920 0.89410 0.93800 0.04200
C 	C 	0.75800 0.06740 0.61030 0.40900
C 	C 	0.75150 0.51540 0.61120 0.38900
C 	C 	0.74290 0.18370 0.56970 -0.15400
C 	C 	0.75020 0.29150 0.60670 0.08600
H 	H 	0.76340 0.29130 0.65680 0.02500
C 	C 	0.73780 0.39990 0.56950 -0.14700
C 	C 	0.71720 0.40070 0.49510 0.06900
H 	H 	0.70910 0.47300 0.47000 0.00300
C 	C 	0.70880 0.29190 0.45780 -0.14200
H 	H 	0.69380 0.29170 0.40770 0.06800
C 	C 	0.72260 0.18390 0.49540 0.07100
H 	H 	0.71820 0.11190 0.47030 0.01300
C 	C 	0.65180 0.81420 0.73980 0.39800
C 	C 	0.43880 0.05490 0.74010 0.38900
C 	C 	0.57520 0.82220 0.73270 -0.15400
C 	C 	0.54390 0.93320 0.73570 0.07400
H 	H 	0.57000 0.00340 0.74020 0.03100
C 	C 	0.47300 0.93810 0.73180 -0.14000
C 	C 	0.43520 0.83220 0.72480 0.06500
H 	H 	0.38870 0.83450 0.72450 0.02200
C 	C 	0.46570 0.72310 0.71810 -0.13600
H 	H 	0.43930 0.65290 0.71090 0.08100
C 	C 	0.53480 0.71980 0.72220 0.07200
H 	H 	0.55520 0.64650 0.71770 0.01800
O 	O 	0.94330 0.88270 0.82400 -0.51000
O 	O 	0.84870 0.97800 0.83100 -0.50600
O 	O 	0.85780 0.18670 0.06080 -0.47500
O 	O 	0.93580 0.10940 0.15960 -0.47900
O 	O 	0.75660 0.97320 0.57720 -0.50500
O 	O 	0.77010 0.07500 0.67870 -0.49300
O 	O 	0.77610 0.60120 0.58530 -0.49600
O 	O 	0.73870 0.51690 0.67100 -0.48800
O 	O 	0.68560 0.91150 0.74860 -0.50900
O 	O 	0.67710 0.71250 0.73750 -0.51200
O 	O 	0.80940 0.78900 0.70350 -0.96000
O 	O 	0.38180 0.04970 0.75280 -0.47400
O 	O 	0.46970 0.14910 0.73290 -0.48000
