data_crystal

_cell_length_a 13.38000
_cell_length_b 17.64000
_cell_length_c 21.46000
_cell_angle_alpha 90.00000
_cell_angle_beta  90.00000
_cell_angle_gamma 90.00000

_symmetry_space_group_name_	'P 1'
_symmetry_space_group_name_H-M	'P 1'

loop_
_symmetry_equiv_pos_as_xyz
  x,y,z

loop_
_atom_site_label
_atom_site_type_symbol
_atom_site_fract_x
_atom_site_fract_y
_atom_site_fract_z
_atom_site_charge
Cd	Cd	0.70294 0.87222 0.14313 1.23200
Cd	Cd	0.67052 0.05659 0.23425 1.24500
Cd	Cd	0.85288 0.19928 0.21988 1.22300
Cd	Cd	0.29706 0.12778 0.64313 1.23000
Cd	Cd	0.32948 0.94341 0.73425 1.24500
Cd	Cd	0.14712 0.80072 0.71988 1.22200
Cd	Cd	0.79706 0.37222 0.14313 1.23100
Cd	Cd	0.82948 0.55659 0.23425 1.24500
Cd	Cd	0.64712 0.69928 0.21988 1.22300
Cd	Cd	0.20294 0.62778 0.64313 1.23000
Cd	Cd	0.17052 0.44341 0.73425 1.24500
Cd	Cd	0.35288 0.30072 0.71988 1.22200
H 	H 	0.00660 0.90790 0.16210 0.00200
H 	H 	0.95020 0.91460 0.09820 -0.01400
H 	H 	0.01240 0.04280 0.16780 0.20700
H 	H 	0.94930 0.04690 0.10600 0.20200
H 	H 	0.32610 0.03500 0.16870 0.01400
H 	H 	0.37840 0.05560 0.10550 0.00100
H 	H 	0.44850 0.93310 0.10300 0.18500
H 	H 	0.40090 0.91700 0.16870 0.17600
H 	H 	0.24000 0.97040 0.91800 0.01800
H 	H 	0.13960 0.92470 0.91720 0.01600
H 	H 	0.32950 0.85390 0.93660 0.18100
H 	H 	0.22760 0.80930 0.93070 0.17400
H 	H 	0.39630 0.63700 0.08000 0.00700
H 	H 	0.34920 0.68730 0.13280 -0.00100
H 	H 	0.44370 0.74520 0.02470 0.19400
H 	H 	0.39040 0.79730 0.07360 0.18800
H 	H 	0.96060 0.76700 0.04530 0.01300
H 	H 	0.02250 0.78860 0.10470 0.00500
H 	H 	0.98960 0.67030 0.14860 0.18900
H 	H 	0.93220 0.64530 0.08830 0.18700
H 	H 	0.09700 0.58860 0.90430 0.00800
H 	H 	0.21310 0.57680 0.90190 0.00500
H 	H 	0.11030 0.70200 0.85150 0.18800
H 	H 	0.22720 0.69880 0.85480 0.19100
H 	H 	0.99340 0.09210 0.66210 0.00000
H 	H 	0.04980 0.08540 0.59820 -0.01500
H 	H 	0.98760 0.95720 0.66780 0.20600
H 	H 	0.05070 0.95310 0.60600 0.20000
H 	H 	0.67390 0.96500 0.66870 0.01300
H 	H 	0.62160 0.94440 0.60550 -0.00100
H 	H 	0.55150 0.06690 0.60300 0.18400
H 	H 	0.59910 0.08300 0.66870 0.17500
H 	H 	0.76000 0.02960 0.41800 0.01500
H 	H 	0.86040 0.07530 0.41720 0.01400
H 	H 	0.67050 0.14610 0.43660 0.19100
H 	H 	0.77240 0.19070 0.43070 0.18100
H 	H 	0.60370 0.36300 0.58000 0.00400
H 	H 	0.65080 0.31270 0.63280 -0.00100
H 	H 	0.55630 0.25480 0.52470 0.18700
H 	H 	0.60960 0.20270 0.57360 0.18500
H 	H 	0.03940 0.23300 0.54530 0.01100
H 	H 	0.97750 0.21140 0.60470 0.00500
H 	H 	0.01040 0.32970 0.64860 0.18800
H 	H 	0.06780 0.35470 0.58830 0.18400
H 	H 	0.90300 0.41140 0.40430 0.01000
H 	H 	0.78690 0.42320 0.40190 0.00700
H 	H 	0.88970 0.29800 0.35150 0.19000
H 	H 	0.77280 0.30120 0.35480 0.19200
H 	H 	0.49340 0.40790 0.16210 0.00000
H 	H 	0.54980 0.41460 0.09820 -0.01500
H 	H 	0.48760 0.54280 0.16780 0.20700
H 	H 	0.55070 0.54690 0.10600 0.20200
H 	H 	0.17390 0.53500 0.16870 0.01400
H 	H 	0.12160 0.55560 0.10550 0.00100
H 	H 	0.05150 0.43310 0.10300 0.18600
H 	H 	0.09910 0.41700 0.16870 0.17600
H 	H 	0.26000 0.47040 0.91800 0.01800
H 	H 	0.36040 0.42470 0.91720 0.01600
H 	H 	0.17050 0.35390 0.93660 0.18200
H 	H 	0.27240 0.30930 0.93070 0.17400
H 	H 	0.10370 0.13700 0.08000 0.00700
H 	H 	0.15080 0.18730 0.13280 -0.00100
H 	H 	0.05630 0.24520 0.02470 0.19300
H 	H 	0.10960 0.29730 0.07360 0.18800
H 	H 	0.53940 0.26700 0.04530 0.01500
H 	H 	0.47750 0.28860 0.10470 0.00600
H 	H 	0.51040 0.17030 0.14860 0.18900
H 	H 	0.56780 0.14530 0.08830 0.18600
H 	H 	0.40300 0.08860 0.90430 0.00900
H 	H 	0.28690 0.07680 0.90190 0.00600
H 	H 	0.38970 0.20200 0.85150 0.18800
H 	H 	0.27280 0.19880 0.85480 0.19100
H 	H 	0.50660 0.59210 0.66210 0.00000
H 	H 	0.45020 0.58540 0.59820 -0.01500
H 	H 	0.51240 0.45720 0.66780 0.20600
H 	H 	0.44930 0.45310 0.60600 0.20000
H 	H 	0.82610 0.46500 0.66870 0.01300
H 	H 	0.87840 0.44440 0.60550 -0.00200
H 	H 	0.94850 0.56690 0.60300 0.18500
H 	H 	0.90090 0.58300 0.66870 0.17600
H 	H 	0.74000 0.52960 0.41800 0.01500
H 	H 	0.63960 0.57530 0.41720 0.01400
H 	H 	0.82950 0.64610 0.43660 0.19100
H 	H 	0.72760 0.69070 0.43070 0.18100
H 	H 	0.89630 0.86300 0.58000 0.00400
H 	H 	0.84920 0.81270 0.63280 -0.00100
H 	H 	0.94370 0.75480 0.52470 0.18700
H 	H 	0.89040 0.70270 0.57360 0.18500
H 	H 	0.46060 0.73300 0.54530 0.01100
H 	H 	0.52250 0.71140 0.60470 0.00500
H 	H 	0.48960 0.82970 0.64860 0.18800
H 	H 	0.43220 0.85470 0.58830 0.18400
H 	H 	0.59700 0.91140 0.40430 0.01000
H 	H 	0.71310 0.92320 0.40190 0.00700
H 	H 	0.61030 0.79800 0.35150 0.19000
H 	H 	0.72720 0.80120 0.35480 0.19200
C 	C 	0.17890 0.96610 0.12860 0.29000
C 	C 	0.27550 0.96720 0.03280 0.29100
C 	C 	0.10080 0.93020 0.02980 0.29800
C 	C 	0.99900 0.93880 0.12500 0.19600
C 	C 	0.96230 0.01690 0.14310 -0.53600
C 	C 	0.86720 0.00730 0.18030 0.51900
C 	C 	0.34940 0.01440 0.12940 0.16800
C 	C 	0.42740 0.95630 0.14180 -0.45000
C 	C 	0.51790 0.99590 0.17380 0.43000
C 	C 	0.20580 0.92680 0.93550 0.12200
C 	C 	0.26370 0.85430 0.91760 -0.45500
C 	C 	0.27120 0.85820 0.84720 0.48800
C 	C 	0.26040 0.64780 0.99730 0.25900
C 	C 	0.08260 0.68410 0.99190 0.27500
C 	C 	0.18610 0.72270 0.07980 0.27600
C 	C 	0.36210 0.68440 0.08840 0.16000
C 	C 	0.42810 0.75070 0.06860 -0.48700
C 	C 	0.52470 0.75780 0.10450 0.51000
C 	C 	0.00410 0.74700 0.07750 0.18100
C 	C 	0.94750 0.68820 0.11490 -0.49000
C 	C 	0.84990 0.72000 0.14210 0.49300
C 	C 	0.16090 0.61470 0.90550 0.18900
C 	C 	0.16740 0.66820 0.85060 -0.52600
C 	C 	0.17010 0.62830 0.78880 0.53400
C 	C 	0.82110 0.03390 0.62860 0.29000
C 	C 	0.72450 0.03280 0.53280 0.29000
C 	C 	0.89920 0.06980 0.52980 0.29700
C 	C 	0.00100 0.06120 0.62500 0.19900
C 	C 	0.03770 0.98310 0.64310 -0.53500
C 	C 	0.13280 0.99270 0.68030 0.51700
C 	C 	0.65060 0.98560 0.62940 0.16800
C 	C 	0.57260 0.04370 0.64180 -0.45000
C 	C 	0.48210 0.00410 0.67380 0.43100
C 	C 	0.79420 0.07320 0.43550 0.14600
C 	C 	0.73630 0.14570 0.41760 -0.46800
C 	C 	0.72880 0.14180 0.34720 0.49300
C 	C 	0.73960 0.35220 0.49730 0.27600
C 	C 	0.91740 0.31590 0.49190 0.29300
C 	C 	0.81390 0.27730 0.57980 0.27500
C 	C 	0.63790 0.31560 0.58840 0.15900
C 	C 	0.57190 0.24930 0.56860 -0.48400
C 	C 	0.47530 0.24220 0.60450 0.50800
C 	C 	0.99590 0.25300 0.57750 0.17800
C 	C 	0.05250 0.31180 0.61490 -0.48700
C 	C 	0.15010 0.28000 0.64210 0.49100
C 	C 	0.83910 0.38530 0.40550 0.18900
C 	C 	0.83260 0.33180 0.35060 -0.52700
C 	C 	0.82990 0.37170 0.28880 0.53500
C 	C 	0.32110 0.46610 0.12860 0.29000
C 	C 	0.22450 0.46720 0.03280 0.29100
C 	C 	0.39920 0.43020 0.02980 0.29800
C 	C 	0.50100 0.43880 0.12500 0.19900
C 	C 	0.53770 0.51690 0.14310 -0.53700
C 	C 	0.63280 0.50730 0.18030 0.52000
C 	C 	0.15060 0.51440 0.12940 0.17000
C 	C 	0.07260 0.45630 0.14180 -0.45100
C 	C 	0.98210 0.49590 0.17380 0.42900
C 	C 	0.29420 0.42680 0.93550 0.12400
C 	C 	0.23630 0.35430 0.91760 -0.45600
C 	C 	0.22880 0.35820 0.84720 0.48900
C 	C 	0.23960 0.14780 0.99730 0.26000
C 	C 	0.41740 0.18410 0.99190 0.27700
C 	C 	0.31390 0.22270 0.07980 0.27600
C 	C 	0.13790 0.18440 0.08840 0.16000
C 	C 	0.07190 0.25070 0.06860 -0.48600
C 	C 	0.97530 0.25780 0.10450 0.50900
C 	C 	0.49590 0.24700 0.07750 0.17700
C 	C 	0.55250 0.18820 0.11490 -0.48700
C 	C 	0.65010 0.22000 0.14210 0.49200
C 	C 	0.33910 0.11470 0.90550 0.18800
C 	C 	0.33260 0.16820 0.85060 -0.52600
C 	C 	0.32990 0.12830 0.78880 0.53400
C 	C 	0.67890 0.53390 0.62860 0.29000
C 	C 	0.77550 0.53280 0.53280 0.29000
C 	C 	0.60080 0.56980 0.52980 0.29700
C 	C 	0.49900 0.56120 0.62500 0.19900
C 	C 	0.46230 0.48310 0.64310 -0.53600
C 	C 	0.36720 0.49270 0.68030 0.51900
C 	C 	0.84940 0.48560 0.62940 0.17100
C 	C 	0.92740 0.54370 0.64180 -0.45300
C 	C 	0.01790 0.50410 0.67380 0.42900
C 	C 	0.70580 0.57320 0.43550 0.14600
C 	C 	0.76370 0.64570 0.41760 -0.46800
C 	C 	0.77120 0.64180 0.34720 0.49300
C 	C 	0.76040 0.85220 0.49730 0.27600
C 	C 	0.58260 0.81590 0.49190 0.29300
C 	C 	0.68610 0.77730 0.57980 0.27500
C 	C 	0.86210 0.81560 0.58840 0.15900
C 	C 	0.92810 0.74930 0.56860 -0.48400
C 	C 	0.02470 0.74220 0.60450 0.50800
C 	C 	0.50410 0.75300 0.57750 0.17800
C 	C 	0.44750 0.81180 0.61490 -0.48700
C 	C 	0.34990 0.78000 0.64210 0.49100
C 	C 	0.66090 0.88530 0.40550 0.18900
C 	C 	0.66740 0.83180 0.35060 -0.52700
C 	C 	0.67010 0.87170 0.28880 0.53500
N 	N 	0.09520 0.94420 0.09240 -0.21200
N 	N 	0.26500 0.98330 0.09540 -0.21200
N 	N 	0.19620 0.93720 0.00300 -0.19800
N 	N 	0.26420 0.68640 0.05310 -0.20200
N 	N 	0.09300 0.71690 0.04890 -0.20400
N 	N 	0.17090 0.65310 0.96510 -0.20800
N 	N 	0.90480 0.05580 0.59240 -0.21300
N 	N 	0.73500 0.01670 0.59540 -0.21200
N 	N 	0.80380 0.06280 0.50300 -0.20800
N 	N 	0.73580 0.31360 0.55310 -0.21200
N 	N 	0.90700 0.28310 0.54890 -0.21400
N 	N 	0.82910 0.34690 0.46510 -0.21000
N 	N 	0.40480 0.44420 0.09240 -0.21200
N 	N 	0.23500 0.48330 0.09540 -0.21200
N 	N 	0.30380 0.43720 0.00300 -0.19800
N 	N 	0.23580 0.18640 0.05310 -0.20300
N 	N 	0.40700 0.21690 0.04890 -0.20400
N 	N 	0.32910 0.15310 0.96510 -0.20800
N 	N 	0.59520 0.55580 0.59240 -0.21300
N 	N 	0.76500 0.51670 0.59540 -0.21300
N 	N 	0.69620 0.56280 0.50300 -0.20800
N 	N 	0.76420 0.81360 0.55310 -0.21200
N 	N 	0.59300 0.78310 0.54890 -0.21400
N 	N 	0.67090 0.84690 0.46510 -0.21000
O 	O 	0.17460 0.97420 0.18360 -0.25200
O 	O 	0.35300 0.98390 0.00600 -0.24100
O 	O 	0.02890 0.91140 0.00020 -0.24300
O 	O 	0.82660 0.94510 0.18510 -0.49100
O 	O 	0.83050 0.06690 0.20560 -0.56800
O 	O 	0.50200 0.04260 0.21510 -0.41100
O 	O 	0.60570 0.98190 0.15380 -0.53500
O 	O 	0.34410 0.88950 0.82530 -0.46500
O 	O 	0.19610 0.83540 0.81610 -0.49000
O 	O 	0.32980 0.60900 0.97860 -0.24900
O 	O 	0.00620 0.68190 0.96420 -0.26000
O 	O 	0.19320 0.75830 0.12870 -0.24200
O 	O 	0.55270 0.70220 0.13530 -0.50300
O 	O 	0.56850 0.81980 0.09940 -0.50100
O 	O 	0.16520 0.55990 0.78710 -0.46300
O 	O 	0.17080 0.67180 0.73980 -0.58900
O 	O 	0.80500 0.68020 0.18450 -0.54900
O 	O 	0.82030 0.78300 0.12510 -0.47700
O 	O 	0.82540 0.02580 0.68360 -0.25300
O 	O 	0.64700 0.01610 0.50600 -0.25000
O 	O 	0.97110 0.08860 0.50020 -0.25100
O 	O 	0.17340 0.05490 0.68510 -0.49000
O 	O 	0.16950 0.93310 0.70560 -0.56800
O 	O 	0.49800 0.95740 0.71510 -0.41300
O 	O 	0.39430 0.01810 0.65380 -0.53600
O 	O 	0.65590 0.11050 0.32530 -0.46400
O 	O 	0.80390 0.16460 0.31610 -0.49000
O 	O 	0.67020 0.39100 0.47860 -0.24400
O 	O 	0.99380 0.31810 0.46420 -0.25700
O 	O 	0.80680 0.24170 0.62870 -0.24300
O 	O 	0.44730 0.29780 0.63530 -0.50300
O 	O 	0.43150 0.18020 0.59940 -0.50300
O 	O 	0.83480 0.44010 0.28710 -0.46300
O 	O 	0.82920 0.32820 0.23980 -0.58900
O 	O 	0.19500 0.31980 0.68450 -0.55000
O 	O 	0.17970 0.21700 0.62510 -0.47800
O 	O 	0.32540 0.47420 0.18360 -0.25300
O 	O 	0.14700 0.48390 0.00600 -0.24100
O 	O 	0.47110 0.41140 0.00020 -0.24400
O 	O 	0.67340 0.44510 0.18510 -0.49100
O 	O 	0.66950 0.56690 0.20560 -0.56800
O 	O 	0.99800 0.54260 0.21510 -0.41100
O 	O 	0.89430 0.48190 0.15380 -0.53500
O 	O 	0.15590 0.38950 0.82530 -0.46400
O 	O 	0.30390 0.33540 0.81610 -0.48900
O 	O 	0.17020 0.10900 0.97860 -0.24900
O 	O 	0.49380 0.18190 0.96420 -0.25900
O 	O 	0.30680 0.25830 0.12870 -0.24200
O 	O 	0.94730 0.20220 0.13530 -0.50300
O 	O 	0.93150 0.31980 0.09940 -0.50100
O 	O 	0.33480 0.05990 0.78710 -0.46200
O 	O 	0.32920 0.17180 0.73980 -0.58900
O 	O 	0.69500 0.18020 0.18450 -0.54900
O 	O 	0.67970 0.28300 0.12510 -0.47600
O 	O 	0.67460 0.52580 0.68360 -0.25400
O 	O 	0.85300 0.51610 0.50600 -0.25100
O 	O 	0.52890 0.58860 0.50020 -0.25100
O 	O 	0.32660 0.55490 0.68510 -0.49100
O 	O 	0.33050 0.43310 0.70560 -0.56800
O 	O 	0.00200 0.45740 0.71510 -0.41200
O 	O 	0.10570 0.51810 0.65380 -0.53600
O 	O 	0.84410 0.61050 0.32530 -0.46400
O 	O 	0.69610 0.66460 0.31610 -0.49000
O 	O 	0.82980 0.89100 0.47860 -0.24500
O 	O 	0.50620 0.81810 0.46420 -0.25700
O 	O 	0.69320 0.74170 0.62870 -0.24300
O 	O 	0.05270 0.79780 0.63530 -0.50300
O 	O 	0.06850 0.68020 0.59940 -0.50300
O 	O 	0.66520 0.94010 0.28710 -0.46300
O 	O 	0.67080 0.82820 0.23980 -0.58900
O 	O 	0.30500 0.81980 0.68450 -0.55000
O 	O 	0.32030 0.71700 0.62510 -0.47800
