data_crystal

_cell_length_a 18.24100
_cell_length_b 18.24100
_cell_length_c 18.24100
_cell_angle_alpha 90.00000
_cell_angle_beta  90.00000
_cell_angle_gamma 90.00000

_symmetry_space_group_name_	'P 1'
_symmetry_space_group_name_H-M	'P 1'

loop_
_symmetry_equiv_pos_as_xyz
  x,y,z

loop_
_atom_site_label
_atom_site_type_symbol
_atom_site_fract_x
_atom_site_fract_y
_atom_site_fract_z
_atom_site_charge
C 	C 	0.28740 0.65610 0.12470 0.07500
C 	C 	0.31950 0.60010 0.08890 -0.12700
H 	H 	0.24450 0.67710 0.10400 -0.01700
H 	H 	0.29820 0.58170 0.04510 0.07900
C 	C 	0.21260 0.84390 0.12470 0.07600
C 	C 	0.18050 0.89990 0.08890 -0.12800
H 	H 	0.25550 0.82290 0.10400 -0.01800
H 	H 	0.20180 0.91830 0.04510 0.07800
C 	C 	0.21260 0.65610 0.37530 0.07400
C 	C 	0.18050 0.60010 0.41110 -0.12800
H 	H 	0.25550 0.67710 0.39600 -0.01800
H 	H 	0.20180 0.58170 0.45490 0.07800
C 	C 	0.28740 0.84390 0.37530 0.07400
C 	C 	0.31950 0.89990 0.41110 -0.12800
H 	H 	0.24450 0.82290 0.39600 -0.01800
H 	H 	0.29820 0.91830 0.45490 0.07800
C 	C 	0.12470 0.28740 0.65610 0.07400
C 	C 	0.08890 0.31950 0.60010 -0.12800
H 	H 	0.10400 0.24450 0.67710 -0.01800
H 	H 	0.04510 0.29820 0.58170 0.07800
C 	C 	0.12470 0.21260 0.84390 0.07500
C 	C 	0.08890 0.18050 0.89990 -0.12900
H 	H 	0.10400 0.25550 0.82290 -0.01800
H 	H 	0.04510 0.20180 0.91830 0.07800
C 	C 	0.37530 0.21260 0.65610 0.07400
C 	C 	0.41110 0.18050 0.60010 -0.12800
H 	H 	0.39600 0.25550 0.67710 -0.01800
H 	H 	0.45490 0.20180 0.58170 0.07800
C 	C 	0.37530 0.28740 0.84390 0.07400
C 	C 	0.41110 0.31950 0.89990 -0.12800
H 	H 	0.39600 0.24450 0.82290 -0.01800
H 	H 	0.45490 0.29820 0.91830 0.07800
C 	C 	0.65610 0.12470 0.28740 0.07400
C 	C 	0.60010 0.08890 0.31950 -0.12800
H 	H 	0.67710 0.10400 0.24450 -0.01800
H 	H 	0.58170 0.04510 0.29820 0.07800
C 	C 	0.84390 0.12470 0.21260 0.07500
C 	C 	0.89990 0.08890 0.18050 -0.12900
H 	H 	0.82290 0.10400 0.25550 -0.01800
H 	H 	0.91830 0.04510 0.20180 0.07800
C 	C 	0.65610 0.37530 0.21260 0.07400
C 	C 	0.60010 0.41110 0.18050 -0.12800
H 	H 	0.67710 0.39600 0.25550 -0.01800
H 	H 	0.58170 0.45490 0.20180 0.07800
C 	C 	0.84390 0.37530 0.28740 0.07400
C 	C 	0.89990 0.41110 0.31950 -0.12800
H 	H 	0.82290 0.39600 0.24450 -0.01800
H 	H 	0.91830 0.45490 0.29820 0.07800
C 	C 	0.84390 0.21260 0.12470 0.07500
C 	C 	0.89990 0.18050 0.08890 -0.12900
H 	H 	0.82290 0.25550 0.10400 -0.01800
H 	H 	0.91830 0.20180 0.04510 0.07800
C 	C 	0.65610 0.28740 0.12470 0.07400
C 	C 	0.60010 0.31950 0.08890 -0.12800
H 	H 	0.67710 0.24450 0.10400 -0.01800
H 	H 	0.58170 0.29820 0.04510 0.07800
C 	C 	0.84390 0.28740 0.37530 0.07400
C 	C 	0.89990 0.31950 0.41110 -0.12800
H 	H 	0.82290 0.24450 0.39600 -0.01800
H 	H 	0.91830 0.29820 0.45490 0.07800
C 	C 	0.65610 0.21260 0.37530 0.07400
C 	C 	0.60010 0.18050 0.41110 -0.12800
H 	H 	0.67710 0.25550 0.39600 -0.01800
H 	H 	0.58170 0.20180 0.45490 0.07800
C 	C 	0.21260 0.37530 0.65610 0.07400
C 	C 	0.18050 0.41110 0.60010 -0.12800
H 	H 	0.25550 0.39600 0.67710 -0.01800
H 	H 	0.20180 0.45490 0.58170 0.07800
C 	C 	0.28740 0.37530 0.84390 0.07400
C 	C 	0.31950 0.41110 0.89990 -0.12800
H 	H 	0.24450 0.39600 0.82290 -0.01800
H 	H 	0.29820 0.45490 0.91830 0.07800
C 	C 	0.28740 0.12470 0.65610 0.07400
C 	C 	0.31950 0.08890 0.60010 -0.12800
H 	H 	0.24450 0.10400 0.67710 -0.01800
H 	H 	0.29820 0.04510 0.58170 0.07800
C 	C 	0.21260 0.12470 0.84390 0.07500
C 	C 	0.18050 0.08890 0.89990 -0.12900
H 	H 	0.25550 0.10400 0.82290 -0.01800
H 	H 	0.20180 0.04510 0.91830 0.07800
C 	C 	0.37530 0.84390 0.28740 0.07400
C 	C 	0.41110 0.89990 0.31950 -0.12800
H 	H 	0.39600 0.82290 0.24450 -0.01800
H 	H 	0.45490 0.91830 0.29820 0.07800
C 	C 	0.37530 0.65610 0.21260 0.07400
C 	C 	0.41110 0.60010 0.18050 -0.12800
H 	H 	0.39600 0.67710 0.25550 -0.01800
H 	H 	0.45490 0.58170 0.20180 0.07800
C 	C 	0.12470 0.84390 0.21260 0.07500
C 	C 	0.08890 0.89990 0.18050 -0.12900
H 	H 	0.10400 0.82290 0.25550 -0.01800
H 	H 	0.04510 0.91830 0.20180 0.07800
C 	C 	0.12470 0.65610 0.28740 0.07400
C 	C 	0.08890 0.60010 0.31950 -0.12800
H 	H 	0.10400 0.67710 0.24450 -0.01800
H 	H 	0.04510 0.58170 0.29820 0.07800
C 	C 	0.38400 0.56890 0.11600 0.05300
N 	N 	0.31250 0.68390 0.18750 -0.24400
C 	C 	0.41880 0.50530 0.08120 0.10600
C 	C 	0.11600 0.93110 0.11600 0.05500
N 	N 	0.18750 0.81610 0.18750 -0.24400
C 	C 	0.08120 0.99470 0.08120 0.10100
C 	C 	0.11600 0.56890 0.38400 0.05300
N 	N 	0.18750 0.68390 0.31250 -0.24400
C 	C 	0.08120 0.50530 0.41880 0.10600
C 	C 	0.38400 0.93110 0.38400 0.05300
N 	N 	0.31250 0.81610 0.31250 -0.24400
C 	C 	0.41880 0.99470 0.41880 0.10500
C 	C 	0.11600 0.38400 0.56890 0.05300
N 	N 	0.18750 0.31250 0.68390 -0.24400
C 	C 	0.08120 0.41880 0.50530 0.10600
C 	C 	0.11600 0.11600 0.93110 0.05500
N 	N 	0.18750 0.18750 0.81610 -0.24400
C 	C 	0.08120 0.08120 0.99470 0.10100
C 	C 	0.38400 0.11600 0.56890 0.05300
N 	N 	0.31250 0.18750 0.68390 -0.24400
C 	C 	0.41880 0.08120 0.50530 0.10600
C 	C 	0.38400 0.38400 0.93110 0.05300
N 	N 	0.31250 0.31250 0.81610 -0.24400
C 	C 	0.41880 0.41880 0.99470 0.10500
C 	C 	0.56890 0.11600 0.38400 0.05300
N 	N 	0.68390 0.18750 0.31250 -0.24400
C 	C 	0.50530 0.08120 0.41880 0.10600
C 	C 	0.93110 0.11600 0.11600 0.05500
N 	N 	0.81610 0.18750 0.18750 -0.24400
C 	C 	0.99470 0.08120 0.08120 0.10100
C 	C 	0.56890 0.38400 0.11600 0.05300
N 	N 	0.68390 0.31250 0.18750 -0.24400
C 	C 	0.50530 0.41880 0.08120 0.10600
C 	C 	0.93110 0.38400 0.38400 0.05300
N 	N 	0.81610 0.31250 0.31250 -0.24400
C 	C 	0.99470 0.41880 0.41880 0.10500
N 	N 	0.38740 0.47890 0.02110 -0.14100
N 	N 	0.11260 0.02110 0.02110 -0.13700
N 	N 	0.11260 0.47890 0.47890 -0.14200
N 	N 	0.38740 0.02110 0.47890 -0.14100
N 	N 	0.02110 0.38740 0.47890 -0.14100
N 	N 	0.02110 0.11260 0.02110 -0.13700
N 	N 	0.47890 0.11260 0.47890 -0.14200
N 	N 	0.47890 0.38740 0.02110 -0.14100
N 	N 	0.47890 0.02110 0.38740 -0.14100
N 	N 	0.02110 0.02110 0.11260 -0.13700
N 	N 	0.47890 0.47890 0.11260 -0.14200
N 	N 	0.02110 0.47890 0.38740 -0.14100
Cu	Cu	0.25000 0.75000 0.25000 0.85600
Cu	Cu	0.25000 0.25000 0.75000 0.85600
Cu	Cu	0.75000 0.25000 0.25000 0.85600
C 	C 	0.15610 0.78740 0.87530 0.07500
C 	C 	0.10010 0.81950 0.91110 -0.12900
H 	H 	0.17710 0.74450 0.89600 -0.01800
H 	H 	0.08170 0.79820 0.95490 0.07800
C 	C 	0.34390 0.71260 0.87530 0.07400
C 	C 	0.39990 0.68050 0.91110 -0.12800
H 	H 	0.32290 0.75550 0.89600 -0.01800
H 	H 	0.41830 0.70180 0.95490 0.07800
C 	C 	0.15610 0.71260 0.62470 0.07400
C 	C 	0.10010 0.68050 0.58890 -0.12800
H 	H 	0.17710 0.75550 0.60400 -0.01800
H 	H 	0.08170 0.70180 0.54510 0.07800
C 	C 	0.34390 0.78740 0.62470 0.07400
C 	C 	0.39990 0.81950 0.58890 -0.12800
H 	H 	0.32290 0.74450 0.60400 -0.01800
H 	H 	0.41830 0.79820 0.54510 0.07800
C 	C 	0.78740 0.62470 0.34390 0.07400
C 	C 	0.81950 0.58890 0.39990 -0.12800
H 	H 	0.74450 0.60400 0.32290 -0.01800
H 	H 	0.79820 0.54510 0.41830 0.07800
C 	C 	0.71260 0.62470 0.15610 0.07400
C 	C 	0.68050 0.58890 0.10010 -0.12800
H 	H 	0.75550 0.60400 0.17710 -0.01800
H 	H 	0.70180 0.54510 0.08170 0.07800
C 	C 	0.71260 0.87530 0.34390 0.07400
C 	C 	0.68050 0.91110 0.39990 -0.12800
H 	H 	0.75550 0.89600 0.32290 -0.01800
H 	H 	0.70180 0.95490 0.41830 0.07800
C 	C 	0.78740 0.87530 0.15610 0.07500
C 	C 	0.81950 0.91110 0.10010 -0.12900
H 	H 	0.74450 0.89600 0.17710 -0.01800
H 	H 	0.79820 0.95490 0.08170 0.07800
C 	C 	0.62470 0.15610 0.71260 0.07400
C 	C 	0.58890 0.10010 0.68050 -0.12800
H 	H 	0.60400 0.17710 0.75550 -0.01800
H 	H 	0.54510 0.08170 0.70180 0.07800
C 	C 	0.62470 0.34390 0.78740 0.07400
C 	C 	0.58890 0.39990 0.81950 -0.12800
H 	H 	0.60400 0.32290 0.74450 -0.01800
H 	H 	0.54510 0.41830 0.79820 0.07800
C 	C 	0.87530 0.15610 0.78740 0.07500
C 	C 	0.91110 0.10010 0.81950 -0.12900
H 	H 	0.89600 0.17710 0.74450 -0.01800
H 	H 	0.95490 0.08170 0.79820 0.07800
C 	C 	0.87530 0.34390 0.71260 0.07400
C 	C 	0.91110 0.39990 0.68050 -0.12800
H 	H 	0.89600 0.32290 0.75550 -0.01800
H 	H 	0.95490 0.41830 0.70180 0.07800
C 	C 	0.71260 0.34390 0.87530 0.07400
C 	C 	0.68050 0.39990 0.91110 -0.12800
H 	H 	0.75550 0.32290 0.89600 -0.01800
H 	H 	0.70180 0.41830 0.95490 0.07800
C 	C 	0.78740 0.15610 0.87530 0.07500
C 	C 	0.81950 0.10010 0.91110 -0.12900
H 	H 	0.74450 0.17710 0.89600 -0.01800
H 	H 	0.79820 0.08170 0.95490 0.07800
C 	C 	0.78740 0.34390 0.62470 0.07400
C 	C 	0.81950 0.39990 0.58890 -0.12800
H 	H 	0.74450 0.32290 0.60400 -0.01800
H 	H 	0.79820 0.41830 0.54510 0.07800
C 	C 	0.71260 0.15610 0.62470 0.07400
C 	C 	0.68050 0.10010 0.58890 -0.12800
H 	H 	0.75550 0.17710 0.60400 -0.01800
H 	H 	0.70180 0.08170 0.54510 0.07800
C 	C 	0.87530 0.71260 0.34390 0.07400
C 	C 	0.91110 0.68050 0.39990 -0.12800
H 	H 	0.89600 0.75550 0.32290 -0.01800
H 	H 	0.95490 0.70180 0.41830 0.07800
C 	C 	0.87530 0.78740 0.15610 0.07500
C 	C 	0.91110 0.81950 0.10010 -0.12900
H 	H 	0.89600 0.74450 0.17710 -0.01800
H 	H 	0.95490 0.79820 0.08170 0.07800
C 	C 	0.62470 0.78740 0.34390 0.07400
C 	C 	0.58890 0.81950 0.39990 -0.12800
H 	H 	0.60400 0.74450 0.32290 -0.01800
H 	H 	0.54510 0.79820 0.41830 0.07800
C 	C 	0.62470 0.71260 0.15610 0.07400
C 	C 	0.58890 0.68050 0.10010 -0.12800
H 	H 	0.60400 0.75550 0.17710 -0.01800
H 	H 	0.54510 0.70180 0.08170 0.07800
C 	C 	0.34390 0.87530 0.71260 0.07400
C 	C 	0.39990 0.91110 0.68050 -0.12800
H 	H 	0.32290 0.89600 0.75550 -0.01800
H 	H 	0.41830 0.95490 0.70180 0.07800
C 	C 	0.15610 0.87530 0.78740 0.07500
C 	C 	0.10010 0.91110 0.81950 -0.12900
H 	H 	0.17710 0.89600 0.74450 -0.01800
H 	H 	0.08170 0.95490 0.79820 0.07800
C 	C 	0.34390 0.62470 0.78740 0.07400
C 	C 	0.39990 0.58890 0.81950 -0.12800
H 	H 	0.32290 0.60400 0.74450 -0.01800
H 	H 	0.41830 0.54510 0.79820 0.07800
C 	C 	0.15610 0.62470 0.71260 0.07400
C 	C 	0.10010 0.58890 0.68050 -0.12800
H 	H 	0.17710 0.60400 0.75550 -0.01800
H 	H 	0.08170 0.54510 0.70180 0.07800
C 	C 	0.06890 0.88400 0.88400 0.05500
N 	N 	0.18390 0.81250 0.81250 -0.24400
C 	C 	0.00530 0.91880 0.91880 0.10100
C 	C 	0.43110 0.61600 0.88400 0.05300
N 	N 	0.31610 0.68750 0.81250 -0.24400
C 	C 	0.49470 0.58120 0.91880 0.10600
C 	C 	0.06890 0.61600 0.61600 0.05300
N 	N 	0.18390 0.68750 0.68750 -0.24400
C 	C 	0.00530 0.58120 0.58120 0.10500
C 	C 	0.43110 0.88400 0.61600 0.05300
N 	N 	0.31610 0.81250 0.68750 -0.24400
C 	C 	0.49470 0.91880 0.58120 0.10600
C 	C 	0.88400 0.61600 0.43110 0.05300
N 	N 	0.81250 0.68750 0.31610 -0.24400
C 	C 	0.91880 0.58120 0.49470 0.10600
C 	C 	0.61600 0.61600 0.06890 0.05300
N 	N 	0.68750 0.68750 0.18390 -0.24400
C 	C 	0.58120 0.58120 0.00530 0.10500
C 	C 	0.61600 0.88400 0.43110 0.05300
N 	N 	0.68750 0.81250 0.31610 -0.24400
C 	C 	0.58120 0.91880 0.49470 0.10600
C 	C 	0.88400 0.88400 0.06890 0.05500
N 	N 	0.81250 0.81250 0.18390 -0.24400
C 	C 	0.91880 0.91880 0.00530 0.10100
C 	C 	0.61600 0.06890 0.61600 0.05300
N 	N 	0.68750 0.18390 0.68750 -0.24400
C 	C 	0.58120 0.00530 0.58120 0.10500
C 	C 	0.61600 0.43110 0.88400 0.05300
N 	N 	0.68750 0.31610 0.81250 -0.24400
C 	C 	0.58120 0.49470 0.91880 0.10600
C 	C 	0.88400 0.06890 0.88400 0.05500
N 	N 	0.81250 0.18390 0.81250 -0.24400
C 	C 	0.91880 0.00530 0.91880 0.10100
C 	C 	0.88400 0.43110 0.61600 0.05300
N 	N 	0.81250 0.31610 0.68750 -0.24400
C 	C 	0.91880 0.49470 0.58120 0.10600
N 	N 	0.97890 0.88740 0.97890 -0.13700
N 	N 	0.52110 0.61260 0.97890 -0.14100
N 	N 	0.97890 0.61260 0.52110 -0.14100
N 	N 	0.52110 0.88740 0.52110 -0.14200
N 	N 	0.88740 0.52110 0.52110 -0.14200
N 	N 	0.61260 0.52110 0.97890 -0.14100
N 	N 	0.61260 0.97890 0.52110 -0.14100
N 	N 	0.88740 0.97890 0.97890 -0.13700
N 	N 	0.52110 0.97890 0.61260 -0.14100
N 	N 	0.52110 0.52110 0.88740 -0.14200
N 	N 	0.97890 0.97890 0.88740 -0.13700
N 	N 	0.97890 0.52110 0.61260 -0.14100
Cu	Cu	0.25000 0.75000 0.75000 0.85600
Cu	Cu	0.75000 0.75000 0.25000 0.85600
Cu	Cu	0.75000 0.25000 0.75000 0.85600
