data_crystal

_cell_length_a 17.28000
_cell_length_b 14.80200
_cell_length_c 14.36500
_cell_angle_alpha 90.00000
_cell_angle_beta  116.30800
_cell_angle_gamma 90.00000

_symmetry_space_group_name_	'P 1'
_symmetry_space_group_name_H-M	'P 1'

loop_
_symmetry_equiv_pos_as_xyz
  x,y,z

loop_
_atom_site_label
_atom_site_type_symbol
_atom_site_fract_x
_atom_site_fract_y
_atom_site_fract_z
_atom_site_charge
Co	Co	0.19139 0.48307 0.15761 1.20700
Co	Co	0.20085 0.49848 0.41458 1.20800
O 	O 	0.51360 0.41850 0.56060 -0.12700
O 	O 	0.12650 0.48320 0.99470 -0.39400
N 	N 	0.59700 0.42780 0.62030 -0.07900
N 	N 	0.04170 0.47370 0.93980 -0.04700
C 	C 	0.64670 0.35190 0.64660 0.05100
H 	H 	0.62180 0.29540 0.62390 0.04100
C 	C 	0.73500 0.35970 0.70770 -0.11700
H 	H 	0.76960 0.30840 0.72330 0.07900
C 	C 	0.77310 0.44410 0.74620 0.05500
C 	C 	0.71740 0.51730 0.71810 -0.12400
H 	H 	0.73980 0.57450 0.74120 0.07400
C 	C 	0.63100 0.50820 0.65760 0.06100
H 	H 	0.59550 0.55870 0.64220 0.02700
C 	C 	0.00780 0.39120 0.91450 0.04800
H 	H 	0.04390 0.34120 0.93860 0.03600
C 	C 	0.92140 0.37810 0.85390 -0.10500
H 	H 	0.89870 0.32000 0.83920 0.07100
C 	C 	0.86690 0.45490 0.81370 0.02700
C 	C 	0.90470 0.53980 0.84120 -0.07900
H 	H 	0.87120 0.59140 0.81590 0.05700
C 	C 	0.99120 0.54780 0.90540 -0.00700
H 	H 	0.01540 0.60480 0.92560 0.05700
O 	O 	0.13980 0.60710 0.32360 -0.42600
O 	O 	0.10760 0.58190 0.15740 -0.41500
O 	O 	0.79470 0.91350 0.01100 -0.41300
O 	O 	0.77240 0.88300 0.15000 -0.41900
C 	C 	0.97460 0.91680 0.27630 -0.09700
H 	H 	0.92820 0.95650 0.25460 0.06900
C 	C 	0.04960 0.93880 0.35950 0.00300
H 	H 	0.05390 0.99270 0.39470 0.03800
C 	C 	0.12040 0.88030 0.39230 -0.03100
H 	H 	0.17200 0.89660 0.44840 0.04400
C 	C 	0.11530 0.79890 0.34330 -0.07700
H 	H 	0.16270 0.76030 0.36750 0.07500
C 	C 	0.03640 0.77310 0.25420 0.05000
C 	C 	0.96520 0.83310 0.22060 0.04100
C 	C 	0.88730 0.81080 0.13280 -0.10500
C 	C 	0.88320 0.73390 0.07810 0.00400
H 	H 	0.83270 0.71970 0.01940 0.04100
C 	C 	0.95410 0.67720 0.10980 -0.03400
H 	H 	0.95030 0.62590 0.07040 0.05500
C 	C 	0.02910 0.69360 0.19670 -0.08200
C 	C 	0.09890 0.62090 0.22890 0.38700
C 	C 	0.81160 0.87500 0.09510 0.38600
O 	O 	0.26640 0.39220 0.50660 -0.41900
O 	O 	0.28120 0.41970 0.66690 -0.42600
O 	O 	0.61050 0.08940 0.81840 -0.44000
O 	O 	0.60870 0.11280 0.66540 -0.42300
C 	C 	0.40570 0.06860 0.58930 -0.09300
H 	H 	0.45160 0.02830 0.60920 0.07700
C 	C 	0.32450 0.04080 0.52180 -0.00300
H 	H 	0.31500 0.98140 0.49820 0.02900
C 	C 	0.25550 0.10230 0.48830 -0.03400
H 	H 	0.20100 0.08420 0.43980 0.04700
C 	C 	0.26760 0.18750 0.52590 -0.07700
H 	H 	0.22100 0.22690 0.50380 0.07200
C 	C 	0.34850 0.21710 0.59640 0.04600
C 	C 	0.42070 0.15580 0.62850 0.05800
C 	C 	0.50420 0.18410 0.70360 -0.10900
C 	C 	0.51569 0.26569 0.75349 -0.00300
H 	H 	0.56890 0.28060 0.80760 0.03600
C 	C 	0.44479 0.32736 0.72116 -0.00100
H 	H 	0.45280 0.38300 0.75420 0.03800
C 	C 	0.36570 0.30661 0.64309 -0.10700
C 	C 	0.29887 0.37710 0.60317 0.38600
C 	C 	0.58147 0.12385 0.73145 0.40800
O 	O 	0.27541 0.47725 0.32516 -0.62900
H 	H 	0.31970 0.52330 0.34380 0.21200
H 	H 	0.30370 0.41880 0.34270 0.21200
Co	Co	0.69139 0.98307 0.15761 1.20300
Co	Co	0.70085 0.99848 0.41458 1.20600
O 	O 	0.01360 0.91850 0.56060 -0.12300
O 	O 	0.62650 0.98320 0.99470 -0.39100
N 	N 	0.09700 0.92780 0.62030 -0.08000
N 	N 	0.54170 0.97370 0.93980 -0.05300
C 	C 	0.14670 0.85190 0.64660 0.05100
H 	H 	0.12180 0.79540 0.62390 0.04100
C 	C 	0.23500 0.85970 0.70770 -0.11600
H 	H 	0.26960 0.80840 0.72330 0.07900
C 	C 	0.27310 0.94410 0.74620 0.05300
C 	C 	0.21740 0.01730 0.71810 -0.12100
H 	H 	0.23980 0.07450 0.74120 0.07300
C 	C 	0.13100 0.00820 0.65760 0.06400
H 	H 	0.09550 0.05870 0.64220 0.02900
C 	C 	0.50780 0.89120 0.91450 0.03300
H 	H 	0.54390 0.84120 0.93860 0.04100
C 	C 	0.42140 0.87810 0.85390 -0.09100
H 	H 	0.39870 0.82000 0.83920 0.06800
C 	C 	0.36690 0.95490 0.81370 0.03000
C 	C 	0.40470 0.03980 0.84120 -0.09200
H 	H 	0.37120 0.09140 0.81590 0.06300
C 	C 	0.49120 0.04780 0.90540 0.02600
H 	H 	0.51540 0.10480 0.92560 0.03900
O 	O 	0.63980 0.10710 0.32360 -0.42500
O 	O 	0.60760 0.08190 0.15740 -0.41400
O 	O 	0.29470 0.41350 0.01100 -0.40700
O 	O 	0.27240 0.38300 0.15000 -0.41700
C 	C 	0.47460 0.41680 0.27630 -0.06900
H 	H 	0.42820 0.45650 0.25460 0.06300
C 	C 	0.54960 0.43880 0.35950 -0.02600
H 	H 	0.55390 0.49270 0.39470 0.04700
C 	C 	0.62040 0.38030 0.39230 -0.01500
H 	H 	0.67200 0.39660 0.44840 0.03900
C 	C 	0.61530 0.29890 0.34330 -0.08800
H 	H 	0.66270 0.26030 0.36750 0.07900
C 	C 	0.53640 0.27310 0.25420 0.05200
C 	C 	0.46520 0.33310 0.22060 0.03900
C 	C 	0.38730 0.31080 0.13280 -0.09600
C 	C 	0.38320 0.23390 0.07810 -0.00700
H 	H 	0.33270 0.21970 0.01940 0.04800
C 	C 	0.45410 0.17720 0.10980 -0.01000
H 	H 	0.45030 0.12590 0.07040 0.05200
C 	C 	0.52910 0.19360 0.19670 -0.09900
C 	C 	0.59890 0.12090 0.22890 0.39100
C 	C 	0.31160 0.37500 0.09510 0.38400
O 	O 	0.76640 0.89220 0.50660 -0.42000
O 	O 	0.78120 0.91970 0.66690 -0.42800
O 	O 	0.11050 0.58940 0.81840 -0.43700
O 	O 	0.10870 0.61280 0.66540 -0.42100
C 	C 	0.90570 0.56860 0.58930 -0.07200
H 	H 	0.95160 0.52830 0.60920 0.06500
C 	C 	0.82450 0.54080 0.52180 -0.03000
H 	H 	0.81500 0.48140 0.49820 0.04100
C 	C 	0.75550 0.60230 0.48830 -0.01500
H 	H 	0.70100 0.58420 0.43980 0.03800
C 	C 	0.76760 0.68750 0.52590 -0.09100
H 	H 	0.72100 0.72690 0.50380 0.07600
C 	C 	0.84850 0.71710 0.59640 0.05500
C 	C 	0.92070 0.65580 0.62850 0.03700
C 	C 	0.00420 0.68410 0.70360 -0.09700
C 	C 	0.01569 0.76569 0.75349 0.00600
H 	H 	0.06890 0.78060 0.80760 0.03400
C 	C 	0.94479 0.82736 0.72116 -0.01300
H 	H 	0.95280 0.88300 0.75420 0.03900
C 	C 	0.86570 0.80661 0.64309 -0.10800
C 	C 	0.79887 0.87710 0.60317 0.38500
C 	C 	0.08147 0.62385 0.73145 0.40600
O 	O 	0.77541 0.97725 0.32516 -0.63600
H 	H 	0.81970 0.02330 0.34380 0.21800
H 	H 	0.80370 0.91880 0.34270 0.21200
Co	Co	0.19139 0.51693 0.65761 1.20300
Co	Co	0.20085 0.50152 0.91458 1.20000
O 	O 	0.51360 0.58150 0.06060 -0.11800
O 	O 	0.12650 0.51680 0.49470 -0.37900
N 	N 	0.59700 0.57220 0.12030 -0.07800
N 	N 	0.04170 0.52630 0.43980 -0.04600
C 	C 	0.64670 0.64810 0.14660 0.05500
H 	H 	0.62180 0.70460 0.12390 0.04400
C 	C 	0.73500 0.64030 0.20770 -0.11400
H 	H 	0.76960 0.69160 0.22330 0.08100
C 	C 	0.77310 0.55590 0.24620 0.05700
C 	C 	0.71740 0.48270 0.21810 -0.12200
H 	H 	0.73980 0.42550 0.24120 0.07500
C 	C 	0.63100 0.49180 0.15760 0.06500
H 	H 	0.59550 0.44130 0.14220 0.02900
C 	C 	0.00780 0.60880 0.41450 0.05400
H 	H 	0.04390 0.65880 0.43860 0.04000
C 	C 	0.92140 0.62190 0.35390 -0.10500
H 	H 	0.89870 0.68000 0.33920 0.07400
C 	C 	0.86690 0.54510 0.31370 0.03100
C 	C 	0.90470 0.46020 0.34120 -0.07900
H 	H 	0.87120 0.40860 0.31590 0.05900
C 	C 	0.99120 0.45220 0.40540 -0.00200
H 	H 	0.01540 0.39520 0.42560 0.06200
O 	O 	0.13980 0.39290 0.82360 -0.43000
O 	O 	0.10760 0.41810 0.65740 -0.42100
O 	O 	0.79470 0.08650 0.51100 -0.42000
O 	O 	0.77240 0.11700 0.65000 -0.42200
C 	C 	0.97460 0.08320 0.77630 -0.09600
H 	H 	0.92820 0.04350 0.75460 0.07100
C 	C 	0.04960 0.06120 0.85950 -0.00000
H 	H 	0.05390 0.00730 0.89470 0.03300
C 	C 	0.12040 0.11970 0.89230 -0.03500
H 	H 	0.17200 0.10340 0.94840 0.03900
C 	C 	0.11530 0.20110 0.84330 -0.07700
H 	H 	0.16270 0.23970 0.86750 0.07000
C 	C 	0.03640 0.22690 0.75420 0.04800
C 	C 	0.96520 0.16690 0.72060 0.04300
C 	C 	0.88730 0.18920 0.63280 -0.10800
C 	C 	0.88320 0.26610 0.57810 0.00400
H 	H 	0.83270 0.28030 0.51940 0.03300
C 	C 	0.95410 0.32280 0.60980 -0.03400
H 	H 	0.95030 0.37410 0.57040 0.04900
C 	C 	0.02910 0.30640 0.69670 -0.08400
C 	C 	0.09890 0.37910 0.72890 0.39000
C 	C 	0.81160 0.12500 0.59510 0.38800
O 	O 	0.26640 0.60780 0.00660 -0.40100
O 	O 	0.28120 0.58030 0.16690 -0.41800
O 	O 	0.61050 0.91060 0.31840 -0.44100
O 	O 	0.60870 0.88720 0.16540 -0.42300
C 	C 	0.40570 0.93140 0.08930 -0.22300
H 	H 	0.45160 0.97170 0.10920 0.12200
C 	C 	0.32450 0.95920 0.02180 0.19500
H 	H 	0.31500 0.01860 0.99820 -0.05500
C 	C 	0.25550 0.89770 0.98830 -0.23800
H 	H 	0.20100 0.91580 0.93980 0.11200
C 	C 	0.26760 0.81250 0.02590 0.08200
H 	H 	0.22100 0.77310 0.00380 0.02300
C 	C 	0.34850 0.78290 0.09640 -0.03900
C 	C 	0.42070 0.84420 0.12850 0.14100
C 	C 	0.50420 0.81590 0.20360 -0.14700
C 	C 	0.51569 0.73431 0.25349 0.03200
H 	H 	0.56890 0.71940 0.30760 0.02700
C 	C 	0.44479 0.67264 0.22116 -0.03600
H 	H 	0.45280 0.61700 0.25420 0.05200
C 	C 	0.36570 0.69339 0.14309 -0.06300
C 	C 	0.29887 0.62290 0.10317 0.36800
C 	C 	0.58147 0.87615 0.23145 0.42100
O 	O 	0.27541 0.52275 0.82516 -0.62900
H 	H 	0.31970 0.47670 0.84380 0.20700
H 	H 	0.30370 0.58120 0.84270 0.20600
Co	Co	0.69139 0.01693 0.65761 1.20400
Co	Co	0.70085 0.00152 0.91458 1.20000
O 	O 	0.01360 0.08150 0.06060 -0.11000
O 	O 	0.62650 0.01680 0.49470 -0.37600
N 	N 	0.09700 0.07220 0.12030 -0.07500
N 	N 	0.54170 0.02630 0.43980 -0.05100
C 	C 	0.14670 0.14810 0.14660 0.05800
H 	H 	0.12180 0.20460 0.12390 0.04400
C 	C 	0.23500 0.14030 0.20770 -0.11600
H 	H 	0.26960 0.19160 0.22330 0.08200
C 	C 	0.27310 0.05590 0.24620 0.06300
C 	C 	0.21740 0.98270 0.21810 -0.13000
H 	H 	0.23980 0.92550 0.24120 0.07700
C 	C 	0.13100 0.99180 0.15760 0.06000
H 	H 	0.09550 0.94130 0.14220 0.03100
C 	C 	0.50780 0.10880 0.41450 0.03900
H 	H 	0.54390 0.15880 0.43860 0.04400
C 	C 	0.42140 0.12190 0.35390 -0.09200
H 	H 	0.39870 0.18000 0.33920 0.07100
C 	C 	0.36690 0.04510 0.31370 0.03900
C 	C 	0.40470 0.96020 0.34120 -0.10000
H 	H 	0.37120 0.90860 0.31590 0.06700
C 	C 	0.49120 0.95220 0.40540 0.03000
H 	H 	0.51540 0.89520 0.42560 0.04400
O 	O 	0.63980 0.89290 0.82360 -0.43100
O 	O 	0.60760 0.91810 0.65740 -0.42500
O 	O 	0.29470 0.58650 0.51100 -0.42100
O 	O 	0.27240 0.61700 0.65000 -0.42200
C 	C 	0.47460 0.58320 0.77630 -0.07400
H 	H 	0.42820 0.54350 0.75460 0.06400
C 	C 	0.54960 0.56120 0.85950 -0.02500
H 	H 	0.55390 0.50730 0.89470 0.03900
C 	C 	0.62040 0.61970 0.89230 -0.02100
H 	H 	0.67200 0.60340 0.94840 0.03500
C 	C 	0.61530 0.70110 0.84330 -0.08600
H 	H 	0.66270 0.73970 0.86750 0.07500
C 	C 	0.53640 0.72690 0.75420 0.04900
C 	C 	0.46520 0.66690 0.72060 0.04100
C 	C 	0.38730 0.68920 0.63280 -0.10100
C 	C 	0.38320 0.76610 0.57810 -0.00700
H 	H 	0.33270 0.78030 0.51940 0.03700
C 	C 	0.45410 0.82280 0.60980 -0.01300
H 	H 	0.45030 0.87410 0.57040 0.04400
C 	C 	0.52910 0.80640 0.69670 -0.10100
C 	C 	0.59890 0.87910 0.72890 0.39300
C 	C 	0.31160 0.62500 0.59510 0.38600
O 	O 	0.76640 0.10780 0.00660 -0.39600
O 	O 	0.78120 0.08030 0.16690 -0.41400
O 	O 	0.11050 0.41060 0.31840 -0.43900
O 	O 	0.10870 0.38720 0.16540 -0.42000
C 	C 	0.90570 0.43140 0.08930 -0.24700
H 	H 	0.95160 0.47170 0.10920 0.13000
C 	C 	0.82450 0.45920 0.02180 0.23800
H 	H 	0.81500 0.51860 0.99820 -0.07100
C 	C 	0.75550 0.39770 0.98830 -0.28500
H 	H 	0.70100 0.41580 0.93980 0.12700
C 	C 	0.76760 0.31250 0.02590 0.11800
H 	H 	0.72100 0.27310 0.00380 0.01200
C 	C 	0.84850 0.28290 0.09640 -0.05800
C 	C 	0.92070 0.34420 0.12850 0.15000
C 	C 	0.00420 0.31590 0.20360 -0.14800
C 	C 	0.01569 0.23431 0.25349 0.05300
H 	H 	0.06890 0.21940 0.30760 0.02200
C 	C 	0.94479 0.17264 0.22116 -0.06000
H 	H 	0.95280 0.11700 0.25420 0.05900
C 	C 	0.86570 0.19339 0.14309 -0.04900
C 	C 	0.79887 0.12290 0.10317 0.36300
C 	C 	0.08147 0.37615 0.23145 0.42300
O 	O 	0.77541 0.02275 0.82516 -0.62700
H 	H 	0.81970 0.97670 0.84380 0.20600
H 	H 	0.80370 0.08120 0.84270 0.20400
