data_crystal

_cell_length_a 10.17460
_cell_length_b 10.17460
_cell_length_c 29.51070
_cell_angle_alpha 90.00000
_cell_angle_beta  90.00000
_cell_angle_gamma 90.00000

_symmetry_space_group_name_	'P 1'
_symmetry_space_group_name_H-M	'P 1'

loop_
_symmetry_equiv_pos_as_xyz
  x,y,z

loop_
_atom_site_label
_atom_site_type_symbol
_atom_site_fract_x
_atom_site_fract_y
_atom_site_fract_z
_atom_site_charge
S 	S 	0.34284 0.39974 0.94163 -0.09400
S 	S 	0.07460 0.66758 0.91464 -0.12900
C 	C 	0.06280 0.78380 0.87530 0.08200
C 	C 	0.21960 0.42890 0.97739 0.07900
N 	N 	0.13560 0.44840 0.00263 -0.29400
N 	N 	0.05140 0.86680 0.84917 -0.26400
S 	S 	0.84284 0.89974 0.44163 0.09300
S 	S 	0.57460 0.16758 0.41464 -0.12200
C 	C 	0.56280 0.28380 0.37530 0.09600
C 	C 	0.71960 0.92890 0.47739 0.11500
N 	N 	0.63560 0.94840 0.50263 -0.22600
N 	N 	0.55140 0.36680 0.34917 -0.27900
S 	S 	0.65716 0.60026 0.94163 -0.04400
S 	S 	0.92540 0.33242 0.91464 -0.01100
C 	C 	0.93720 0.21620 0.87530 0.09800
C 	C 	0.78040 0.57110 0.97739 0.11300
N 	N 	0.86440 0.55160 0.00263 -0.23200
N 	N 	0.94860 0.13320 0.84917 -0.25700
S 	S 	0.15716 0.10026 0.44163 -0.23500
S 	S 	0.42540 0.83242 0.41464 -0.02200
C 	C 	0.43720 0.71620 0.37530 0.08700
C 	C 	0.28040 0.07110 0.47739 0.07700
N 	N 	0.36440 0.05160 0.50263 -0.30100
N 	N 	0.44860 0.63320 0.34917 -0.27500
S 	S 	0.39974 0.65716 0.05837 -0.06600
S 	S 	0.66758 0.92540 0.08536 0.02300
C 	C 	0.78380 0.93720 0.12470 0.12600
C 	C 	0.42890 0.78040 0.02261 0.10900
N 	N 	0.44840 0.86440 0.99737 -0.23500
N 	N 	0.86680 0.94860 0.15083 -0.20000
S 	S 	0.89974 0.15716 0.55837 -0.05800
S 	S 	0.16758 0.42540 0.58536 -0.12100
C 	C 	0.28380 0.43720 0.62470 0.09700
C 	C 	0.92890 0.28040 0.52261 0.12800
N 	N 	0.94840 0.36440 0.49737 -0.23500
N 	N 	0.36680 0.44860 0.65083 -0.28100
S 	S 	0.60026 0.34284 0.05837 -0.06900
S 	S 	0.33242 0.07460 0.08536 -0.16300
C 	C 	0.21620 0.06280 0.12470 0.05300
C 	C 	0.57110 0.21960 0.02261 0.08400
N 	N 	0.55160 0.13560 0.99737 -0.29100
N 	N 	0.13320 0.05140 0.15083 -0.32300
S 	S 	0.10026 0.84284 0.55837 -0.07500
S 	S 	0.83242 0.57460 0.58536 -0.02400
C 	C 	0.71620 0.56280 0.62470 0.08600
C 	C 	0.07110 0.71960 0.52261 0.06400
N 	N 	0.05160 0.63560 0.49737 -0.29200
N 	N 	0.63320 0.55140 0.65083 -0.27300
S 	S 	0.15716 0.39974 0.80837 -0.15800
S 	S 	0.42540 0.66758 0.83536 -0.05400
C 	C 	0.43720 0.78380 0.87470 0.10700
C 	C 	0.28040 0.42890 0.77261 0.10100
N 	N 	0.36440 0.44840 0.74737 -0.27700
N 	N 	0.44860 0.86680 0.90083 -0.24000
S 	S 	0.65716 0.89974 0.30837 0.02900
S 	S 	0.92540 0.16758 0.33536 -0.04100
C 	C 	0.93720 0.28380 0.37470 0.11800
C 	C 	0.78040 0.92890 0.27261 0.13500
N 	N 	0.86440 0.94840 0.24737 -0.19500
N 	N 	0.94860 0.36680 0.40083 -0.23900
S 	S 	0.84284 0.60026 0.80837 0.02100
S 	S 	0.57460 0.33242 0.83536 -0.09100
C 	C 	0.56280 0.21620 0.87470 0.07600
C 	C 	0.71960 0.57110 0.77261 0.09400
N 	N 	0.63560 0.55160 0.74737 -0.26500
N 	N 	0.55140 0.13320 0.90083 -0.29700
S 	S 	0.34284 0.10026 0.30837 -0.17000
S 	S 	0.07460 0.83242 0.33536 -0.09600
C 	C 	0.06280 0.71620 0.37470 0.06200
C 	C 	0.21960 0.07110 0.27261 0.05400
N 	N 	0.13560 0.05160 0.24737 -0.31800
N 	N 	0.05140 0.63320 0.40083 -0.29900
S 	S 	0.10026 0.65716 0.69163 -0.14200
S 	S 	0.83242 0.92540 0.66464 0.05200
C 	C 	0.71620 0.93720 0.62530 0.10700
C 	C 	0.07110 0.78040 0.72739 0.08600
N 	N 	0.05160 0.86440 0.75263 -0.25900
N 	N 	0.63320 0.94860 0.59917 -0.23300
S 	S 	0.60026 0.15716 0.19163 -0.13300
S 	S 	0.33242 0.42540 0.16464 -0.08900
C 	C 	0.21620 0.43720 0.12530 0.07800
C 	C 	0.57110 0.28040 0.22739 0.10600
N 	N 	0.55160 0.36440 0.25263 -0.27400
N 	N 	0.13320 0.44860 0.09917 -0.29900
S 	S 	0.89974 0.34284 0.69163 0.00500
S 	S 	0.16758 0.07460 0.66464 -0.19600
C 	C 	0.28380 0.06280 0.62530 0.07200
C 	C 	0.92890 0.21960 0.72739 0.10600
N 	N 	0.94840 0.13560 0.75263 -0.25100
N 	N 	0.36680 0.05140 0.59917 -0.30500
S 	S 	0.39974 0.84284 0.19163 0.00000
S 	S 	0.66758 0.57460 0.16464 -0.05500
C 	C 	0.78380 0.56280 0.12530 0.10600
C 	C 	0.42890 0.71960 0.22739 0.08900
N 	N 	0.44840 0.63560 0.25263 -0.26800
N 	N 	0.86680 0.55140 0.09917 -0.23800
Hg	Hg	0.25000 0.52953 0.87500 -0.02400
Hg	Hg	0.75000 0.02953 0.37500 -0.12200
Hg	Hg	0.75000 0.47047 0.87500 0.00500
Hg	Hg	0.25000 0.97047 0.37500 0.10600
Hg	Hg	0.52953 0.75000 0.12500 0.00300
Hg	Hg	0.47047 0.25000 0.12500 -0.02200
Hg	Hg	0.97047 0.75000 0.62500 0.12900
Hg	Hg	0.02953 0.25000 0.62500 -0.15300
Ni	Ni	0.00000 0.50000 0.05060 0.97900
Ni	Ni	0.50000 -0.00000 0.55060 0.98000
Ni	Ni	0.50000 0.00000 0.94940 0.97900
Ni	Ni	0.00000 0.50000 0.44940 0.98000
Ni	Ni	0.50000 0.50000 0.69940 1.02800
Ni	Ni	-0.00000 0.00000 0.19940 0.93200
Ni	Ni	-0.00000 -0.00000 0.80060 0.93100
Ni	Ni	0.50000 0.50000 0.30060 1.02800
