data_crystal

_cell_length_a 10.15610
_cell_length_b 12.28430
_cell_length_c 14.68670
_cell_angle_alpha 90.00000
_cell_angle_beta  102.99900
_cell_angle_gamma 90.00000

_symmetry_space_group_name_	'P 1'
_symmetry_space_group_name_H-M	'P 1'

loop_
_symmetry_equiv_pos_as_xyz
  x,y,z

loop_
_atom_site_label
_atom_site_type_symbol
_atom_site_fract_x
_atom_site_fract_y
_atom_site_fract_z
_atom_site_charge
Cd	Cd	0.81048 0.92430 0.93890 1.22800
Cd	Cd	0.18952 0.42430 0.56110 1.23000
Cd	Cd	0.18952 0.07570 0.06110 1.22900
Cd	Cd	0.81048 0.57570 0.43890 1.23100
H 	H 	0.54090 0.16320 0.70320 0.04600
H 	H 	0.65510 0.38680 0.53840 0.02600
H 	H 	0.92850 0.18170 0.68590 0.02900
H 	H 	0.95300 0.07240 0.82910 0.23000
H 	H 	0.45910 0.66320 0.79680 0.04500
H 	H 	0.34490 0.88680 0.96160 0.02500
H 	H 	0.07150 0.68170 0.81410 0.02900
H 	H 	0.04700 0.57240 0.67090 0.23000
H 	H 	0.45910 0.83680 0.29680 0.04600
H 	H 	0.34490 0.61320 0.46160 0.02600
H 	H 	0.07150 0.81830 0.31410 0.02900
H 	H 	0.04700 0.92760 0.17090 0.23000
H 	H 	0.54090 0.33680 0.20320 0.04500
H 	H 	0.65510 0.11320 0.03840 0.02500
H 	H 	0.92850 0.31830 0.18590 0.02900
H 	H 	0.95300 0.42760 0.32910 0.23000
C 	C 	0.77980 0.06870 0.77630 0.39800
C 	C 	0.74050 0.15740 0.70560 -0.14300
C 	C 	0.60830 0.19560 0.67890 0.06700
C 	C 	0.57590 0.28130 0.61650 -0.10600
C 	C 	0.43340 0.32400 0.59250 0.31700
C 	C 	0.67640 0.32940 0.58050 0.07100
C 	C 	0.80900 0.29270 0.60680 -0.14800
C 	C 	0.91960 0.34620 0.57030 0.40000
C 	C 	0.83990 0.20680 0.66870 0.08400
C 	C 	0.22020 0.56870 0.72370 0.39800
C 	C 	0.25950 0.65740 0.79440 -0.14400
C 	C 	0.39170 0.69560 0.82110 0.06800
C 	C 	0.42410 0.78130 0.88350 -0.10700
C 	C 	0.56660 0.82400 0.90750 0.31800
C 	C 	0.32360 0.82940 0.91950 0.07200
C 	C 	0.19100 0.79270 0.89320 -0.14900
C 	C 	0.08040 0.84620 0.92970 0.40400
C 	C 	0.16010 0.70680 0.83130 0.08500
C 	C 	0.22020 0.93130 0.22370 0.39800
C 	C 	0.25950 0.84260 0.29440 -0.14300
C 	C 	0.39170 0.80440 0.32110 0.06700
C 	C 	0.42410 0.71870 0.38350 -0.10600
C 	C 	0.56660 0.67600 0.40750 0.31700
C 	C 	0.32360 0.67060 0.41950 0.07100
C 	C 	0.19100 0.70730 0.39320 -0.14800
C 	C 	0.08040 0.65380 0.42970 0.40000
C 	C 	0.16010 0.79320 0.33130 0.08400
C 	C 	0.77980 0.43130 0.27630 0.39800
C 	C 	0.74050 0.34260 0.20560 -0.14400
C 	C 	0.60830 0.30440 0.17890 0.06800
C 	C 	0.57590 0.21870 0.11650 -0.10700
C 	C 	0.43340 0.17600 0.09250 0.31800
C 	C 	0.67640 0.17060 0.08050 0.07200
C 	C 	0.80900 0.20730 0.10680 -0.14900
C 	C 	0.91960 0.15380 0.07030 0.40400
C 	C 	0.83990 0.29320 0.16870 0.08500
O 	O 	0.69360 0.03640 0.81990 -0.37700
O 	O 	0.89750 0.03120 0.79280 -0.51200
O 	O 	0.03850 0.31680 0.60480 -0.41700
O 	O 	0.89050 0.41460 0.50690 -0.48500
O 	O 	0.40430 0.39760 0.53190 -0.36400
O 	O 	0.34990 0.28740 0.63560 -0.34200
O 	O 	0.30640 0.53640 0.68010 -0.37800
O 	O 	0.10250 0.53120 0.70720 -0.51400
O 	O 	0.96150 0.81680 0.89520 -0.42100
O 	O 	0.10950 0.91460 0.99310 -0.48500
O 	O 	0.59570 0.89760 0.96810 -0.36600
O 	O 	0.65010 0.78740 0.86440 -0.34300
O 	O 	0.30640 0.96360 0.18010 -0.37700
O 	O 	0.10250 0.96880 0.20720 -0.51200
O 	O 	0.96150 0.68320 0.39520 -0.41700
O 	O 	0.10950 0.58540 0.49310 -0.48500
O 	O 	0.59570 0.60240 0.46810 -0.36400
O 	O 	0.65010 0.71260 0.36440 -0.34200
O 	O 	0.69360 0.46360 0.31990 -0.37800
O 	O 	0.89750 0.46880 0.29280 -0.51400
O 	O 	0.03850 0.18320 0.10480 -0.42100
O 	O 	0.89050 0.08540 0.00690 -0.48500
O 	O 	0.40430 0.10240 0.03190 -0.36600
O 	O 	0.34990 0.21260 0.13560 -0.34300
