data_crystal

_cell_length_a 10.29040
_cell_length_b 13.20610
_cell_length_c 24.86740
_cell_angle_alpha 90.00000
_cell_angle_beta  90.92200
_cell_angle_gamma 90.00000

_symmetry_space_group_name_	'P 1'
_symmetry_space_group_name_H-M	'P 1'

loop_
_symmetry_equiv_pos_as_xyz
  x,y,z

loop_
_atom_site_label
_atom_site_type_symbol
_atom_site_fract_x
_atom_site_fract_y
_atom_site_fract_z
_atom_site_charge
Ag	Ag	0.18870 0.60735 0.05483 0.25700
S 	S 	0.41300 0.78970 0.07487 0.29200
O 	O 	0.40630 0.70240 0.04100 -0.21200
O 	O 	0.32840 0.78870 0.11940 0.05300
O 	O 	0.53820 0.82630 0.08860 -0.10000
C 	C 	0.34960 0.88680 0.03210 0.43700
F 	F 	0.22740 0.86560 0.01950 -0.34400
F 	F 	0.41440 0.89490 0.98720 -0.03700
F 	F 	0.35840 0.97730 0.05640 -0.28700
Si	Si	0.82576 0.17276 0.21279 1.17900
N 	N 	0.03420 0.70380 0.08991 -0.15800
N 	N 	0.32760 0.49370 0.09472 -0.14600
N 	N 	0.67060 0.96760 0.47301 -0.15600
C 	C 	0.87110 0.05420 0.17548 -0.41900
C 	C 	0.00120 0.02550 0.17442 0.21400
H 	H 	0.06530 0.06940 0.18950 -0.05200
C 	C 	0.03960 0.93480 0.15198 -0.19100
H 	H 	0.12890 0.91650 0.15190 0.14600
C 	C 	0.94730 0.87070 0.12963 0.13100
C 	C 	0.81650 0.89690 0.12950 -0.19300
H 	H 	0.75320 0.85270 0.11410 0.15100
C 	C 	0.77950 0.98800 0.15213 0.22000
H 	H 	0.69020 0.00620 0.15180 -0.00800
C 	C 	0.99190 0.77690 0.10646 0.08700
C 	C 	0.68960 0.24620 0.18000 -0.43500
C 	C 	0.65590 0.23960 0.12569 0.23000
H 	H 	0.69720 0.19030 0.10400 0.00200
C 	C 	0.56360 0.30310 0.10246 -0.20600
H 	H 	0.54180 0.29770 0.06530 0.15800
C 	C 	0.50350 0.37480 0.13446 0.12300
C 	C 	0.53450 0.38350 0.18903 -0.21400
H 	H 	0.49280 0.43250 0.21080 0.09800
C 	C 	0.62710 0.31940 0.21074 0.21200
H 	H 	0.64910 0.32520 0.24790 -0.05900
C 	C 	0.40670 0.44130 0.11152 0.04800
C 	C 	0.77530 0.12990 0.28127 -0.45400
C 	C 	0.66440 0.07020 0.28812 0.22700
H 	H 	0.60810 0.05790 0.25820 -0.06200
C 	C 	0.63510 0.02890 0.33712 -0.23800
H 	H 	0.55980 0.98800 0.34090 0.09500
C 	C 	0.71580 0.04730 0.38087 0.13600
C 	C 	0.82450 0.10820 0.37629 -0.23400
H 	H 	0.87880 0.12190 0.40670 0.15000
C 	C 	0.85250 0.14860 0.32646 0.23500
H 	H 	0.92690 0.19060 0.32310 -0.04500
C 	C 	0.68870 0.00340 0.43221 0.03600
C 	C 	0.96720 0.25940 0.21878 -1.21100
H 	H 	0.99940 0.27500 0.18280 0.36600
H 	H 	0.03620 0.22670 0.24010 0.36700
H 	H 	0.94060 0.32210 0.23650 0.36500
Ag	Ag	0.16360 0.60580 0.05230 0.28300
S 	S 	0.40610 0.76990 0.05720 0.18200
O 	O 	0.30770 0.73260 0.02110 -0.10500
O 	O 	0.38650 0.75750 0.11310 -0.31500
O 	O 	0.53400 0.75120 0.03950 -0.10400
C 	C 	0.39180 0.90330 0.04640 0.47500
F 	F 	0.27560 0.93110 0.06340 -0.31100
F 	F 	0.39900 0.92760 0.99540 -0.36000
F 	F 	0.49190 0.95010 0.07130 -0.30400
Ag	Ag	0.68870 0.89265 0.55483 0.25800
S 	S 	0.91300 0.71030 0.57487 0.29200
O 	O 	0.90630 0.79760 0.54100 -0.21200
O 	O 	0.82840 0.71130 0.61940 0.05400
O 	O 	0.03820 0.67370 0.58860 -0.09900
C 	C 	0.84960 0.61320 0.53210 0.43700
F 	F 	0.72740 0.63440 0.51950 -0.34400
F 	F 	0.91440 0.60510 0.48720 -0.03700
F 	F 	0.85840 0.52270 0.55640 -0.28700
Si	Si	0.32576 0.32724 0.71279 1.19400
N 	N 	0.53420 0.79620 0.58991 -0.15800
N 	N 	0.82760 0.00630 0.59472 -0.14600
N 	N 	0.17060 0.53240 0.97301 -0.15400
C 	C 	0.37110 0.44580 0.67548 -0.44300
C 	C 	0.50120 0.47450 0.67442 0.24200
H 	H 	0.56530 0.43060 0.68950 -0.06000
C 	C 	0.53960 0.56520 0.65198 -0.21700
H 	H 	0.62890 0.58350 0.65190 0.15400
C 	C 	0.44730 0.62930 0.62963 0.14800
C 	C 	0.31650 0.60310 0.62950 -0.21100
H 	H 	0.25320 0.64730 0.61410 0.15700
C 	C 	0.27950 0.51200 0.65213 0.24400
H 	H 	0.19020 0.49380 0.65180 -0.01700
C 	C 	0.49190 0.72310 0.60646 0.08300
C 	C 	0.18960 0.25380 0.68000 -0.44100
C 	C 	0.15590 0.26040 0.62569 0.23400
H 	H 	0.19720 0.30970 0.60400 0.00100
C 	C 	0.06360 0.19690 0.60246 -0.20800
H 	H 	0.04180 0.20230 0.56530 0.15800
C 	C 	0.00350 0.12520 0.63446 0.12300
C 	C 	0.03450 0.11650 0.68903 -0.22200
H 	H 	0.99280 0.06750 0.71080 0.10300
C 	C 	0.12710 0.18060 0.71074 0.21800
H 	H 	0.14910 0.17480 0.74790 -0.06100
C 	C 	0.90670 0.05870 0.61152 0.05100
C 	C 	0.27530 0.37010 0.78127 -0.46000
C 	C 	0.16440 0.42980 0.78812 0.23200
H 	H 	0.10810 0.44210 0.75820 -0.06300
C 	C 	0.13510 0.47110 0.83712 -0.24400
H 	H 	0.05980 0.51200 0.84090 0.09800
C 	C 	0.21580 0.45270 0.88087 0.14000
C 	C 	0.32450 0.39180 0.87629 -0.23900
H 	H 	0.37880 0.37810 0.90670 0.15100
C 	C 	0.35250 0.35140 0.82646 0.24000
H 	H 	0.42690 0.30940 0.82310 -0.04700
C 	C 	0.18870 0.49660 0.93221 0.03300
C 	C 	0.46720 0.24060 0.71878 -1.22900
H 	H 	0.49940 0.22500 0.68280 0.37000
H 	H 	0.53620 0.27330 0.74010 0.37400
H 	H 	0.44060 0.17790 0.73650 0.37000
Ag	Ag	0.66360 0.89420 0.55230 0.28300
S 	S 	0.90610 0.73010 0.55720 0.18100
O 	O 	0.80770 0.76740 0.52110 -0.10500
O 	O 	0.88650 0.74250 0.61310 -0.31500
O 	O 	0.03400 0.74880 0.53950 -0.10200
C 	C 	0.89180 0.59670 0.54640 0.47600
F 	F 	0.77560 0.56890 0.56340 -0.31100
F 	F 	0.89900 0.57240 0.49540 -0.36000
F 	F 	0.99190 0.54990 0.57130 -0.30400
Ag	Ag	0.31130 0.10735 0.44517 0.25800
S 	S 	0.08700 0.28970 0.42513 0.29200
O 	O 	0.09370 0.20240 0.45900 -0.21200
O 	O 	0.17160 0.28870 0.38060 0.05400
O 	O 	0.96180 0.32630 0.41140 -0.09900
C 	C 	0.15040 0.38680 0.46790 0.43700
F 	F 	0.27260 0.36560 0.48050 -0.34400
F 	F 	0.08560 0.39490 0.51280 -0.03700
F 	F 	0.14160 0.47730 0.44360 -0.28700
Si	Si	0.67424 0.67276 0.28721 1.19400
N 	N 	0.46580 0.20380 0.41009 -0.15800
N 	N 	0.17240 0.99370 0.40528 -0.14600
N 	N 	0.82940 0.46760 0.02699 -0.15400
C 	C 	0.62890 0.55420 0.32452 -0.44300
C 	C 	0.49880 0.52550 0.32558 0.24200
H 	H 	0.43470 0.56940 0.31050 -0.06000
C 	C 	0.46040 0.43480 0.34802 -0.21700
H 	H 	0.37110 0.41650 0.34810 0.15400
C 	C 	0.55270 0.37070 0.37037 0.14800
C 	C 	0.68350 0.39690 0.37050 -0.21100
H 	H 	0.74680 0.35270 0.38590 0.15700
C 	C 	0.72050 0.48800 0.34787 0.24400
H 	H 	0.80980 0.50620 0.34820 -0.01700
C 	C 	0.50810 0.27690 0.39354 0.08300
C 	C 	0.81040 0.74620 0.32000 -0.44100
C 	C 	0.84410 0.73960 0.37431 0.23400
H 	H 	0.80280 0.69030 0.39600 0.00100
C 	C 	0.93640 0.80310 0.39754 -0.20800
H 	H 	0.95820 0.79770 0.43470 0.15800
C 	C 	0.99650 0.87480 0.36554 0.12300
C 	C 	0.96550 0.88350 0.31097 -0.22200
H 	H 	0.00720 0.93250 0.28920 0.10300
C 	C 	0.87290 0.81940 0.28926 0.21800
H 	H 	0.85090 0.82520 0.25210 -0.06100
C 	C 	0.09330 0.94130 0.38848 0.05100
C 	C 	0.72470 0.62990 0.21873 -0.46000
C 	C 	0.83560 0.57020 0.21188 0.23200
H 	H 	0.89190 0.55790 0.24180 -0.06300
C 	C 	0.86490 0.52890 0.16288 -0.24400
H 	H 	0.94020 0.48800 0.15910 0.09800
C 	C 	0.78420 0.54730 0.11913 0.14000
C 	C 	0.67550 0.60820 0.12371 -0.23900
H 	H 	0.62120 0.62190 0.09330 0.15100
C 	C 	0.64750 0.64860 0.17354 0.24000
H 	H 	0.57310 0.69060 0.17690 -0.04700
C 	C 	0.81130 0.50340 0.06779 0.03300
C 	C 	0.53280 0.75940 0.28122 -1.22900
H 	H 	0.50060 0.77500 0.31720 0.37000
H 	H 	0.46380 0.72670 0.25990 0.37400
H 	H 	0.55940 0.82210 0.26350 0.37000
Ag	Ag	0.33640 0.10580 0.44770 0.28300
S 	S 	0.09390 0.26990 0.44280 0.18100
O 	O 	0.19230 0.23260 0.47890 -0.10500
O 	O 	0.11350 0.25750 0.38690 -0.31500
O 	O 	0.96600 0.25120 0.46050 -0.10200
C 	C 	0.10820 0.40330 0.45360 0.47600
F 	F 	0.22440 0.43110 0.43660 -0.31100
F 	F 	0.10100 0.42760 0.50460 -0.36000
F 	F 	0.00810 0.45010 0.42870 -0.30400
Ag	Ag	0.81130 0.39265 0.94517 0.25800
S 	S 	0.58700 0.21030 0.92513 0.29300
O 	O 	0.59370 0.29760 0.95900 -0.21100
O 	O 	0.67160 0.21130 0.88060 0.05400
O 	O 	0.46180 0.17370 0.91140 -0.10000
C 	C 	0.65040 0.11320 0.96790 0.43700
F 	F 	0.77260 0.13440 0.98050 -0.34400
F 	F 	0.58560 0.10510 0.01280 -0.03700
F 	F 	0.64160 0.02270 0.94360 -0.28700
Si	Si	0.17424 0.82724 0.78721 1.17900
N 	N 	0.96580 0.29620 0.91009 -0.15800
N 	N 	0.67240 0.50630 0.90528 -0.14600
N 	N 	0.32940 0.03240 0.52699 -0.15600
C 	C 	0.12890 0.94580 0.82452 -0.41900
C 	C 	0.99880 0.97450 0.82558 0.21400
H 	H 	0.93470 0.93060 0.81050 -0.05200
C 	C 	0.96040 0.06520 0.84802 -0.19100
H 	H 	0.87110 0.08350 0.84810 0.14600
C 	C 	0.05270 0.12930 0.87037 0.13100
C 	C 	0.18350 0.10310 0.87050 -0.19300
H 	H 	0.24680 0.14730 0.88590 0.15100
C 	C 	0.22050 0.01200 0.84787 0.22000
H 	H 	0.30980 0.99380 0.84820 -0.00800
C 	C 	0.00810 0.22310 0.89354 0.08700
C 	C 	0.31040 0.75380 0.82000 -0.43500
C 	C 	0.34410 0.76040 0.87431 0.23000
H 	H 	0.30280 0.80970 0.89600 0.00200
C 	C 	0.43640 0.69690 0.89754 -0.20600
H 	H 	0.45820 0.70230 0.93470 0.15800
C 	C 	0.49650 0.62520 0.86554 0.12300
C 	C 	0.46550 0.61650 0.81097 -0.21400
H 	H 	0.50720 0.56750 0.78920 0.09800
C 	C 	0.37290 0.68060 0.78926 0.21200
H 	H 	0.35090 0.67480 0.75210 -0.05900
C 	C 	0.59330 0.55870 0.88848 0.04800
C 	C 	0.22470 0.87010 0.71873 -0.45400
C 	C 	0.33560 0.92980 0.71188 0.22700
H 	H 	0.39190 0.94210 0.74180 -0.06200
C 	C 	0.36490 0.97110 0.66288 -0.23800
H 	H 	0.44020 0.01200 0.65910 0.09500
C 	C 	0.28420 0.95270 0.61913 0.13600
C 	C 	0.17550 0.89180 0.62371 -0.23400
H 	H 	0.12120 0.87810 0.59330 0.15000
C 	C 	0.14750 0.85140 0.67354 0.23500
H 	H 	0.07310 0.80940 0.67690 -0.04500
C 	C 	0.31130 0.99660 0.56779 0.03600
C 	C 	0.03280 0.74060 0.78122 -1.21100
H 	H 	0.00060 0.72500 0.81720 0.36600
H 	H 	0.96380 0.77330 0.75990 0.36700
H 	H 	0.05940 0.67790 0.76350 0.36500
Ag	Ag	0.83640 0.39420 0.94770 0.28300
S 	S 	0.59390 0.23010 0.94280 0.18200
O 	O 	0.69230 0.26740 0.97890 -0.10500
O 	O 	0.61350 0.24250 0.88690 -0.31500
O 	O 	0.46600 0.24880 0.96050 -0.10400
C 	C 	0.60820 0.09670 0.95360 0.47500
F 	F 	0.72440 0.06890 0.93660 -0.31100
F 	F 	0.60100 0.07240 0.00460 -0.36000
F 	F 	0.50810 0.04990 0.92870 -0.30400
