data_crystal

_cell_length_a 19.21510
_cell_length_b 30.13890
_cell_length_c 13.86880
_cell_angle_alpha 90.00000
_cell_angle_beta  128.77100
_cell_angle_gamma 90.00000

_symmetry_space_group_name_	'P 1'
_symmetry_space_group_name_H-M	'P 1'

loop_
_symmetry_equiv_pos_as_xyz
  x,y,z

loop_
_atom_site_label
_atom_site_type_symbol
_atom_site_fract_x
_atom_site_fract_y
_atom_site_fract_z
_atom_site_charge
Ag	Ag	0.19928 0.22289 0.38637 0.54700
O 	O 	0.07520 0.12273 0.24080 -0.29600
O 	O 	0.16120 0.16964 0.23230 -0.23700
O 	O 	0.28300 0.17243 0.53250 -0.23900
O 	O 	0.33390 0.21129 0.70230 -0.24800
F 	F 	0.20130 0.10218 0.14860 -0.49200
F 	F 	0.25710 0.08571 0.32940 -0.46900
F 	F 	0.13280 0.05710 0.17850 -0.48900
C 	C 	0.37700 0.14110 0.73600 0.29100
F 	F 	0.37550 0.13530 0.82000 -0.26600
F 	F 	0.35600 0.10200 0.66900 -0.18900
F 	F 	0.46510 0.14410 0.78400 -0.11200
N 	N 	0.11360 0.01748 0.38250 -0.14200
N 	N 	0.43030 0.73007 0.09540 -0.20000
C 	C 	0.48430 0.83878 0.84390 -0.31000
C 	C 	0.41710 0.84787 0.85300 0.17000
H 	H 	0.37980 0.87310 0.81240 0.03900
C 	C 	0.40480 0.82029 0.92070 -0.13100
H 	H 	0.35930 0.82660 0.92710 0.13100
C 	C 	0.45800 0.78403 0.97830 0.11500
C 	C 	0.52540 0.77435 0.97210 -0.16500
H 	H 	0.56210 0.74900 0.01310 0.11700
C 	C 	0.53860 0.80180 0.90600 0.18000
H 	H 	0.58540 0.79550 0.90240 -0.02200
C 	C 	0.44320 0.75453 0.04510 0.06800
C 	C 	0.39930 0.91190 0.64940 -0.30200
C 	C 	0.39360 0.95113 0.69860 0.17800
H 	H 	0.44180 0.95930 0.78130 0.01300
C 	C 	0.31950 0.97793 0.62950 -0.12900
H 	H 	0.31610 0.00420 0.66410 0.16300
C 	C 	0.24960 0.96602 0.50800 0.12300
C 	C 	0.25330 0.92755 0.45800 -0.13100
H 	H 	0.20460 0.91940 0.37560 0.12200
C 	C 	0.32840 0.90066 0.52820 0.17400
H 	H 	0.33130 0.87440 0.49310 0.01500
C 	C 	0.17280 0.99468 0.43620 0.14000
C 	C 	0.13380 0.13286 0.23120 0.13800
C 	C 	0.18130 0.09390 0.22110 0.85200
C 	C 	0.32230 0.17814 0.64330 0.16400
C 	C 	0.35200 0.13430 0.71400 0.49600
F 	F 	0.33700 0.09900 0.66200 -0.21600
F 	F 	0.44340 0.13780 0.81200 -0.31500
F 	F 	0.32520 0.13080 0.78600 -0.24500
Ag	Ag	0.69928 0.72289 0.38637 0.55000
O 	O 	0.57520 0.62273 0.24080 -0.28300
O 	O 	0.66120 0.66964 0.23230 -0.23000
O 	O 	0.78300 0.67243 0.53250 -0.23600
O 	O 	0.83390 0.71129 0.70230 -0.24000
F 	F 	0.70130 0.60218 0.14860 -0.48800
F 	F 	0.75710 0.58571 0.32940 -0.46500
F 	F 	0.63280 0.55710 0.17850 -0.48100
C 	C 	0.87700 0.64110 0.73600 0.29200
F 	F 	0.87550 0.63530 0.82000 -0.25600
F 	F 	0.85600 0.60200 0.66900 -0.18700
F 	F 	0.96510 0.64410 0.78400 -0.08300
N 	N 	0.61360 0.51748 0.38250 -0.13800
N 	N 	0.93030 0.23007 0.09540 -0.18200
C 	C 	0.98430 0.33878 0.84390 -0.12200
C 	C 	0.91710 0.34787 0.85300 0.09700
H 	H 	0.87980 0.37310 0.81240 0.07300
C 	C 	0.90480 0.32029 0.92070 -0.09200
H 	H 	0.85930 0.32660 0.92710 0.12200
C 	C 	0.95800 0.28403 0.97830 0.15400
C 	C 	0.02540 0.27435 0.97210 -0.18300
H 	H 	0.06210 0.24900 0.01310 0.10900
C 	C 	0.03860 0.30180 0.90600 0.04400
H 	H 	0.08540 0.29550 0.90240 0.01500
C 	C 	0.94320 0.25453 0.04510 0.08400
C 	C 	0.89930 0.41190 0.64940 -0.16900
C 	C 	0.89360 0.45113 0.69860 0.10300
H 	H 	0.94180 0.45930 0.78130 0.06000
C 	C 	0.81950 0.47793 0.62950 -0.06900
H 	H 	0.81610 0.50420 0.66410 0.15000
C 	C 	0.74960 0.46602 0.50800 0.08500
C 	C 	0.75330 0.42755 0.45800 -0.07400
H 	H 	0.70460 0.41940 0.37560 0.11100
C 	C 	0.82840 0.40066 0.52820 0.10000
H 	H 	0.83130 0.37440 0.49310 0.05200
C 	C 	0.67280 0.49468 0.43620 0.16400
C 	C 	0.63380 0.63286 0.23120 0.14000
C 	C 	0.68130 0.59390 0.22110 0.85300
C 	C 	0.82230 0.67814 0.64330 0.16800
C 	C 	0.85200 0.63430 0.71400 0.49500
F 	F 	0.83700 0.59900 0.66200 -0.20800
F 	F 	0.94340 0.63780 0.81200 -0.31300
F 	F 	0.82520 0.63080 0.78600 -0.24300
Ag	Ag	0.80072 0.22289 0.11363 0.55600
O 	O 	0.92480 0.12273 0.25920 -0.24700
O 	O 	0.83880 0.16964 0.26770 -0.21900
O 	O 	0.71700 0.17243 0.96750 -0.23800
O 	O 	0.66610 0.21129 0.79770 -0.24700
F 	F 	0.79870 0.10218 0.35140 -0.48400
F 	F 	0.74290 0.08571 0.17060 -0.46800
F 	F 	0.86720 0.05710 0.32150 -0.46900
C 	C 	0.62300 0.14110 0.76400 0.29400
F 	F 	0.62450 0.13530 0.68000 -0.26800
F 	F 	0.64400 0.10200 0.83100 -0.18400
F 	F 	0.53490 0.14410 0.71600 -0.11200
N 	N 	0.88640 0.01748 0.11750 -0.11700
N 	N 	0.56970 0.73007 0.40460 -0.19900
C 	C 	0.51570 0.83878 0.65610 -0.30800
C 	C 	0.58290 0.84787 0.64700 0.17000
H 	H 	0.62020 0.87310 0.68760 0.04000
C 	C 	0.59520 0.82029 0.57930 -0.13000
H 	H 	0.64070 0.82660 0.57290 0.13200
C 	C 	0.54200 0.78403 0.52170 0.11700
C 	C 	0.47460 0.77435 0.52790 -0.15800
H 	H 	0.43790 0.74900 0.48690 0.11100
C 	C 	0.46140 0.80180 0.59400 0.17700
H 	H 	0.41460 0.79550 0.59760 -0.02200
C 	C 	0.55680 0.75453 0.45490 0.06400
C 	C 	0.60070 0.91190 0.85060 -0.29200
C 	C 	0.60640 0.95113 0.80140 0.16900
H 	H 	0.55820 0.95930 0.71870 0.01600
C 	C 	0.68050 0.97793 0.87050 -0.11700
H 	H 	0.68390 0.00420 0.83590 0.16200
C 	C 	0.75040 0.96602 0.99200 0.10900
C 	C 	0.74670 0.92755 0.04200 -0.10600
H 	H 	0.79540 0.91940 0.12440 0.13000
C 	C 	0.67160 0.90066 0.97180 0.15400
H 	H 	0.66870 0.87440 0.00690 0.02800
C 	C 	0.82720 0.99468 0.06380 0.16400
C 	C 	0.86620 0.13286 0.26880 0.13800
C 	C 	0.81870 0.09390 0.27890 0.85700
C 	C 	0.67770 0.17814 0.85670 0.16600
C 	C 	0.64800 0.13430 0.78600 0.49500
F 	F 	0.66300 0.09900 0.83800 -0.21900
F 	F 	0.55660 0.13780 0.68800 -0.31400
F 	F 	0.67480 0.13080 0.71400 -0.23700
Ag	Ag	0.30072 0.72289 0.11363 0.55000
O 	O 	0.42480 0.62273 0.25920 -0.28300
O 	O 	0.33880 0.66964 0.26770 -0.23100
O 	O 	0.21700 0.67243 0.96750 -0.24200
O 	O 	0.16610 0.71129 0.79770 -0.25500
F 	F 	0.29870 0.60218 0.35140 -0.49000
F 	F 	0.24290 0.58571 0.17060 -0.47300
F 	F 	0.36720 0.55710 0.32150 -0.48300
C 	C 	0.12300 0.64110 0.76400 0.29200
F 	F 	0.12450 0.63530 0.68000 -0.27800
F 	F 	0.14400 0.60200 0.83100 -0.18600
F 	F 	0.03490 0.64410 0.71600 -0.14100
N 	N 	0.38640 0.51748 0.11750 -0.13900
N 	N 	0.06970 0.23007 0.40460 -0.21600
C 	C 	0.01570 0.33878 0.65610 -0.29600
C 	C 	0.08290 0.34787 0.64700 0.11900
H 	H 	0.12020 0.37310 0.68760 0.05600
C 	C 	0.09520 0.32029 0.57930 -0.07800
H 	H 	0.14070 0.32660 0.57290 0.11000
C 	C 	0.04200 0.28403 0.52170 0.00700
C 	C 	0.97460 0.27435 0.52790 -0.04500
H 	H 	0.93790 0.24900 0.48690 0.08900
C 	C 	0.96140 0.30180 0.59400 0.18400
H 	H 	0.91460 0.29550 0.59760 -0.00900
C 	C 	0.05680 0.25453 0.45490 0.07300
C 	C 	0.10070 0.41190 0.85060 -0.22700
C 	C 	0.10640 0.45113 0.80140 0.11900
H 	H 	0.05820 0.45930 0.71870 0.01800
C 	C 	0.18050 0.47793 0.87050 -0.08900
H 	H 	0.18390 0.50420 0.83590 0.14600
C 	C 	0.25040 0.46602 0.99200 0.08000
C 	C 	0.24670 0.42755 0.04200 -0.07400
H 	H 	0.29540 0.41940 0.12440 0.11000
C 	C 	0.17160 0.40066 0.97180 0.10200
H 	H 	0.16870 0.37440 0.00690 0.04100
C 	C 	0.32720 0.49468 0.06380 0.16500
C 	C 	0.36620 0.63286 0.26880 0.13900
C 	C 	0.31870 0.59390 0.27890 0.85400
C 	C 	0.17770 0.67814 0.85670 0.16200
C 	C 	0.14800 0.63430 0.78600 0.49600
F 	F 	0.16300 0.59900 0.83800 -0.22600
F 	F 	0.05660 0.63780 0.68800 -0.31600
F 	F 	0.17480 0.63080 0.71400 -0.24000
Ag	Ag	0.80072 0.77711 0.61363 0.55500
O 	O 	0.92480 0.87727 0.75920 -0.24800
O 	O 	0.83880 0.83036 0.76770 -0.22000
O 	O 	0.71700 0.82757 0.46750 -0.23600
O 	O 	0.66610 0.78871 0.29770 -0.24600
F 	F 	0.79870 0.89782 0.85140 -0.48500
F 	F 	0.74290 0.91429 0.67060 -0.46900
F 	F 	0.86720 0.94290 0.82150 -0.47000
C 	C 	0.62300 0.85890 0.26400 0.29400
F 	F 	0.62450 0.86470 0.18000 -0.26800
F 	F 	0.64400 0.89800 0.33100 -0.18300
F 	F 	0.53490 0.85590 0.21600 -0.11200
N 	N 	0.88640 0.98252 0.61750 -0.11500
N 	N 	0.56970 0.26993 0.90460 -0.19900
C 	C 	0.51570 0.16122 0.15610 -0.31100
C 	C 	0.58290 0.15213 0.14700 0.17300
H 	H 	0.62020 0.12690 0.18760 0.04000
C 	C 	0.59520 0.17971 0.07930 -0.13200
H 	H 	0.64070 0.17340 0.07290 0.13400
C 	C 	0.54200 0.21597 0.02170 0.12000
C 	C 	0.47460 0.22565 0.02790 -0.15300
H 	H 	0.43790 0.25100 0.98690 0.10700
C 	C 	0.46140 0.19820 0.09400 0.17700
H 	H 	0.41460 0.20450 0.09760 -0.02100
C 	C 	0.55680 0.24547 0.95490 0.06000
C 	C 	0.60070 0.08810 0.35060 -0.30700
C 	C 	0.60640 0.04887 0.30140 0.18300
H 	H 	0.55820 0.04070 0.21870 0.01200
C 	C 	0.68050 0.02207 0.37050 -0.13300
H 	H 	0.68390 0.99580 0.33590 0.16800
C 	C 	0.75040 0.03398 0.49200 0.13200
C 	C 	0.74670 0.07245 0.54200 -0.13500
H 	H 	0.79540 0.08060 0.62440 0.13800
C 	C 	0.67160 0.09934 0.47180 0.18300
H 	H 	0.66870 0.12560 0.50690 0.01600
C 	C 	0.82720 0.00532 0.56380 0.15300
C 	C 	0.86620 0.86714 0.76880 0.13700
C 	C 	0.81870 0.90610 0.77890 0.85700
C 	C 	0.67770 0.82186 0.35670 0.16600
C 	C 	0.64800 0.86570 0.28600 0.49500
F 	F 	0.66300 0.90100 0.33800 -0.21900
F 	F 	0.55660 0.86220 0.18800 -0.31300
F 	F 	0.67480 0.86920 0.21400 -0.23600
Ag	Ag	0.30072 0.27711 0.61363 0.54900
O 	O 	0.42480 0.37727 0.75920 -0.28300
O 	O 	0.33880 0.33036 0.76770 -0.23200
O 	O 	0.21700 0.32757 0.46750 -0.24000
O 	O 	0.16610 0.28871 0.29770 -0.25400
F 	F 	0.29870 0.39782 0.85140 -0.49000
F 	F 	0.24290 0.41429 0.67060 -0.47400
F 	F 	0.36720 0.44290 0.82150 -0.48400
C 	C 	0.12300 0.35890 0.26400 0.29200
F 	F 	0.12450 0.36470 0.18000 -0.27700
F 	F 	0.14400 0.39800 0.33100 -0.18500
F 	F 	0.03490 0.35590 0.21600 -0.14000
N 	N 	0.38640 0.48252 0.61750 -0.13600
N 	N 	0.06970 0.76993 0.90460 -0.21500
C 	C 	0.01570 0.66122 0.15610 -0.29900
C 	C 	0.08290 0.65213 0.14700 0.12200
H 	H 	0.12020 0.62690 0.18760 0.05500
C 	C 	0.09520 0.67971 0.07930 -0.08100
H 	H 	0.14070 0.67340 0.07290 0.11200
C 	C 	0.04200 0.71597 0.02170 0.01300
C 	C 	0.97460 0.72565 0.02790 -0.04100
H 	H 	0.93790 0.75100 0.98690 0.08500
C 	C 	0.96140 0.69820 0.09400 0.18400
H 	H 	0.91460 0.70450 0.09760 -0.00800
C 	C 	0.05680 0.74547 0.95490 0.06800
C 	C 	0.10070 0.58810 0.35060 -0.24300
C 	C 	0.10640 0.54887 0.30140 0.13400
H 	H 	0.05820 0.54070 0.21870 0.01400
C 	C 	0.18050 0.52207 0.37050 -0.10500
H 	H 	0.18390 0.49580 0.33590 0.15200
C 	C 	0.25040 0.53398 0.49200 0.10300
C 	C 	0.24670 0.57245 0.54200 -0.10400
H 	H 	0.29540 0.58060 0.62440 0.11900
C 	C 	0.17160 0.59934 0.47180 0.13200
H 	H 	0.16870 0.62560 0.50690 0.02800
C 	C 	0.32720 0.50532 0.56380 0.15300
C 	C 	0.36620 0.36714 0.76880 0.13900
C 	C 	0.31870 0.40610 0.77890 0.85400
C 	C 	0.17770 0.32186 0.35670 0.16200
C 	C 	0.14800 0.36570 0.28600 0.49600
F 	F 	0.16300 0.40100 0.33800 -0.22600
F 	F 	0.05660 0.36220 0.18800 -0.31500
F 	F 	0.17480 0.36920 0.21400 -0.24000
Ag	Ag	0.19928 0.77711 0.88637 0.54500
O 	O 	0.07520 0.87727 0.74080 -0.29800
O 	O 	0.16120 0.83036 0.73230 -0.23800
O 	O 	0.28300 0.82757 0.03250 -0.23800
O 	O 	0.33390 0.78871 0.20230 -0.24800
F 	F 	0.20130 0.89782 0.64860 -0.49400
F 	F 	0.25710 0.91429 0.82940 -0.47100
F 	F 	0.13280 0.94290 0.67850 -0.49200
C 	C 	0.37700 0.85890 0.23600 0.29200
F 	F 	0.37550 0.86470 0.32000 -0.26600
F 	F 	0.35600 0.89800 0.16900 -0.18800
F 	F 	0.46510 0.85590 0.28400 -0.11100
N 	N 	0.11360 0.98252 0.88250 -0.14000
N 	N 	0.43030 0.26993 0.59540 -0.19900
C 	C 	0.48430 0.16122 0.34390 -0.31200
C 	C 	0.41710 0.15213 0.35300 0.17300
H 	H 	0.37980 0.12690 0.31240 0.03900
C 	C 	0.40480 0.17971 0.42070 -0.13300
H 	H 	0.35930 0.17340 0.42710 0.13200
C 	C 	0.45800 0.21597 0.47830 0.11800
C 	C 	0.52540 0.22565 0.47210 -0.15900
H 	H 	0.56210 0.25100 0.51310 0.11300
C 	C 	0.53860 0.19820 0.40600 0.18000
H 	H 	0.58540 0.20450 0.40240 -0.02100
C 	C 	0.44320 0.24547 0.54510 0.06400
C 	C 	0.39930 0.08810 0.14940 -0.31600
C 	C 	0.39360 0.04887 0.19860 0.19200
H 	H 	0.44180 0.04070 0.28130 0.00900
C 	C 	0.31950 0.02207 0.12950 -0.14400
H 	H 	0.31610 0.99580 0.16410 0.16900
C 	C 	0.24960 0.03398 0.00800 0.14400
C 	C 	0.25330 0.07245 0.95800 -0.15800
H 	H 	0.20460 0.08060 0.87560 0.13000
C 	C 	0.32840 0.09934 0.02820 0.20200
H 	H 	0.33130 0.12560 0.99310 0.00300
C 	C 	0.17280 0.00532 0.93620 0.13000
C 	C 	0.13380 0.86714 0.73120 0.13800
C 	C 	0.18130 0.90610 0.72110 0.85200
C 	C 	0.32230 0.82186 0.14330 0.16400
C 	C 	0.35200 0.86570 0.21400 0.49600
F 	F 	0.33700 0.90100 0.16200 -0.21600
F 	F 	0.44340 0.86220 0.31200 -0.31400
F 	F 	0.32520 0.86920 0.28600 -0.24500
Ag	Ag	0.69928 0.27711 0.88637 0.54800
O 	O 	0.57520 0.37727 0.74080 -0.28300
O 	O 	0.66120 0.33036 0.73230 -0.23100
O 	O 	0.78300 0.32757 0.03250 -0.23400
O 	O 	0.83390 0.28871 0.20230 -0.23900
F 	F 	0.70130 0.39782 0.64860 -0.48800
F 	F 	0.75710 0.41429 0.82940 -0.46600
F 	F 	0.63280 0.44290 0.67850 -0.48100
C 	C 	0.87700 0.35890 0.23600 0.29300
F 	F 	0.87550 0.36470 0.32000 -0.25500
F 	F 	0.85600 0.39800 0.16900 -0.18700
F 	F 	0.96510 0.35590 0.28400 -0.08200
N 	N 	0.61360 0.48252 0.88250 -0.13500
N 	N 	0.93030 0.76993 0.59540 -0.18100
C 	C 	0.98430 0.66122 0.34390 -0.12500
C 	C 	0.91710 0.65213 0.35300 0.10000
H 	H 	0.87980 0.62690 0.31240 0.07200
C 	C 	0.90480 0.67971 0.42070 -0.09500
H 	H 	0.85930 0.67340 0.42710 0.12500
C 	C 	0.95800 0.71597 0.47830 0.16000
C 	C 	0.02540 0.72565 0.47210 -0.17900
H 	H 	0.06210 0.75100 0.51310 0.10500
C 	C 	0.03860 0.69820 0.40600 0.04400
H 	H 	0.08540 0.70450 0.40240 0.01600
C 	C 	0.94320 0.74547 0.54510 0.07900
C 	C 	0.89930 0.58810 0.14940 -0.18500
C 	C 	0.89360 0.54887 0.19860 0.11900
H 	H 	0.94180 0.54070 0.28130 0.05600
C 	C 	0.81950 0.52207 0.12950 -0.08600
H 	H 	0.81610 0.49580 0.16410 0.15700
C 	C 	0.74960 0.53398 0.00800 0.10900
C 	C 	0.75330 0.57245 0.95800 -0.10500
H 	H 	0.70460 0.58060 0.87560 0.12100
C 	C 	0.82840 0.59934 0.02820 0.13000
H 	H 	0.83130 0.62560 0.99310 0.03900
C 	C 	0.67280 0.50532 0.93620 0.15200
C 	C 	0.63380 0.36714 0.73120 0.14000
C 	C 	0.68130 0.40610 0.72110 0.85300
C 	C 	0.82230 0.32186 0.14330 0.16800
C 	C 	0.85200 0.36570 0.21400 0.49500
F 	F 	0.83700 0.40100 0.16200 -0.20800
F 	F 	0.94340 0.36220 0.31200 -0.31200
F 	F 	0.82520 0.36920 0.28600 -0.24200
Ag	Ag	0.00000 0.17904 0.25000 0.52300
Ag	Ag	0.00000 0.06283 0.25000 0.59700
Ag	Ag	0.50000 0.67904 0.25000 0.55400
Ag	Ag	0.50000 0.56284 0.25000 0.62800
Ag	Ag	0.00000 0.82096 0.75000 0.52200
Ag	Ag	0.00000 0.93717 0.75000 0.59600
Ag	Ag	0.50000 0.32096 0.75000 0.55400
Ag	Ag	0.50000 0.43717 0.75000 0.62800
Si	Si	0.50000 0.87547 0.75000 0.88600
Si	Si	0.00000 0.37547 0.75000 0.64500
Si	Si	0.50000 0.12453 0.25000 0.89900
Si	Si	0.00000 0.62453 0.25000 0.66000
