data_crystal

_cell_length_a 16.15500
_cell_length_b 16.89300
_cell_length_c 20.51400
_cell_angle_alpha 110.62800
_cell_angle_beta  90.00000
_cell_angle_gamma 90.00000

_symmetry_space_group_name_	'P 1'
_symmetry_space_group_name_H-M	'P 1'

loop_
_symmetry_equiv_pos_as_xyz
  x,y,z

loop_
_atom_site_label
_atom_site_type_symbol
_atom_site_fract_x
_atom_site_fract_y
_atom_site_fract_z
_atom_site_charge
Cd	Cd	0.08208 0.74664 0.74448 1.24600
Cd	Cd	0.01491 0.82249 0.93401 1.19100
Cd	Cd	0.58208 0.25336 0.75552 1.24600
Cd	Cd	0.51491 0.17751 0.56599 1.19300
H 	H 	0.15270 0.85410 0.86620 0.23200
H 	H 	0.16340 0.76210 0.86690 0.22900
H 	H 	0.04600 0.83060 0.63530 -0.05000
H 	H 	0.96410 0.82280 0.54290 0.12900
H 	H 	0.90000 0.59430 0.52680 0.12700
H 	H 	0.97530 0.60570 0.62060 -0.04700
H 	H 	0.82540 0.89590 0.50340 0.28500
H 	H 	0.80300 0.85310 0.55760 0.28400
H 	H 	0.73520 0.86320 0.50650 0.28400
H 	H 	0.89230 0.52310 0.32590 0.26400
H 	H 	0.88900 0.52240 0.40210 0.24800
H 	H 	0.96520 0.56230 0.37760 0.25400
H 	H 	0.70850 0.83530 0.39980 0.02200
H 	H 	0.68950 0.75250 0.33600 0.03200
H 	H 	0.72860 0.67990 0.20480 0.27500
H 	H 	0.74710 0.72310 0.15010 0.26800
H 	H 	0.67400 0.75580 0.20310 0.27600
H 	H 	0.91880 0.01330 0.29930 0.23400
H 	H 	0.99050 0.94640 0.28110 0.23200
H 	H 	0.96100 0.98890 0.35850 0.22900
H 	H 	0.85800 0.71520 0.10660 0.09500
H 	H 	0.91910 0.71350 0.00520 -0.02500
H 	H 	0.93320 0.95660 0.08090 -0.05100
H 	H 	0.90320 0.96490 0.19290 0.11600
H 	H 	0.32140 0.01380 0.83330 0.03900
H 	H 	0.40480 0.09810 0.79500 0.02800
H 	H 	0.33000 0.97720 0.60120 0.01100
H 	H 	0.23210 0.90870 0.64000 0.04700
H 	H 	0.91990 0.53100 0.69500 0.02200
H 	H 	0.83210 0.41580 0.66100 0.05800
H 	H 	0.77020 0.47300 0.86300 0.05000
H 	H 	0.86260 0.58360 0.89440 0.03500
H 	H 	0.65270 0.14590 0.63380 0.23100
H 	H 	0.66340 0.23790 0.63310 0.22800
H 	H 	0.54600 0.16940 0.86470 -0.05100
H 	H 	0.46410 0.17720 0.95710 0.13000
H 	H 	0.40000 0.40570 0.97320 0.12700
H 	H 	0.47530 0.39430 0.87940 -0.04700
H 	H 	0.32540 0.10410 0.99660 0.28500
H 	H 	0.30300 0.14690 0.94240 0.28400
H 	H 	0.23520 0.13680 0.99350 0.28400
H 	H 	0.39230 0.47690 0.17410 0.26400
H 	H 	0.38900 0.47760 0.09790 0.24900
H 	H 	0.46520 0.43770 0.12240 0.25400
H 	H 	0.20850 0.16470 0.10020 0.02200
H 	H 	0.18950 0.24750 0.16400 0.03200
H 	H 	0.22860 0.32010 0.29520 0.27500
H 	H 	0.24710 0.27690 0.34990 0.26800
H 	H 	0.17400 0.24420 0.29690 0.27600
H 	H 	0.41880 0.98670 0.20070 0.24300
H 	H 	0.49050 0.05360 0.21890 0.23600
H 	H 	0.46100 0.01110 0.14150 0.23300
H 	H 	0.35800 0.28480 0.39340 0.09600
H 	H 	0.41910 0.28650 0.49480 -0.02500
H 	H 	0.43320 0.04340 0.41910 -0.05200
H 	H 	0.40320 0.03510 0.30710 0.11500
H 	H 	0.82140 0.98620 0.66670 0.03900
H 	H 	0.90480 0.90190 0.70500 0.02900
H 	H 	0.83000 0.02280 0.89880 0.01200
H 	H 	0.73210 0.09130 0.86000 0.04600
H 	H 	0.41990 0.46900 0.80500 0.02200
H 	H 	0.33210 0.58420 0.83900 0.05800
H 	H 	0.27020 0.52700 0.63700 0.04900
H 	H 	0.36260 0.41640 0.60560 0.03500
C 	C 	0.01560 0.78150 0.61400 0.17500
C 	C 	0.96530 0.77680 0.55790 -0.31400
C 	C 	0.91830 0.70930 0.52430 0.29600
C 	C 	0.92770 0.64480 0.54930 -0.31700
C 	C 	0.97450 0.65060 0.60430 0.16400
C 	C 	0.86740 0.70510 0.46620 -0.33100
C 	C 	0.81600 0.76820 0.45950 0.34100
C 	C 	0.79300 0.85270 0.51140 -0.86700
C 	C 	0.86130 0.64280 0.39860 0.29500
C 	C 	0.90640 0.55390 0.37360 -0.75500
C 	C 	0.73340 0.78800 0.36300 0.02800
C 	C 	0.78700 0.79370 0.24800 0.30800
C 	C 	0.72890 0.73250 0.19680 -0.82000
C 	C 	0.84930 0.84200 0.22930 -0.26100
C 	C 	0.87840 0.89560 0.29950 0.26300
C 	C 	0.94300 0.96800 0.31070 -0.69200
C 	C 	0.87660 0.83950 0.16490 0.22100
C 	C 	0.87970 0.76520 0.10440 -0.23100
C 	C 	0.91370 0.76450 0.04200 0.09800
C 	C 	0.92580 0.90600 0.08860 0.12900
C 	C 	0.90200 0.91340 0.15610 -0.24800
C 	C 	0.20760 0.89870 0.76870 0.33700
C 	C 	0.26680 0.94990 0.74120 -0.06300
C 	C 	0.32040 0.00810 0.78650 -0.03900
C 	C 	0.37190 0.05740 0.76320 -0.01200
C 	C 	0.37570 0.04750 0.69320 -0.11100
C 	C 	0.32600 0.98800 0.64870 0.01200
C 	C 	0.26960 0.94380 0.67150 -0.05100
C 	C 	0.43630 0.09990 0.66960 0.38500
C 	C 	0.95590 0.65010 0.81530 0.40600
C 	C 	0.89970 0.57060 0.79550 -0.10500
C 	C 	0.88970 0.51910 0.72900 0.01300
C 	C 	0.83790 0.44980 0.70750 -0.06700
C 	C 	0.79230 0.43390 0.76400 -0.03900
C 	C 	0.73010 0.36010 0.73860 0.30800
C 	C 	0.80120 0.48340 0.82870 -0.04900
C 	C 	0.85520 0.55100 0.84760 0.00600
C 	C 	0.51560 0.21850 0.88600 0.18200
C 	C 	0.46530 0.22320 0.94210 -0.32100
C 	C 	0.41830 0.29070 0.97570 0.29900
C 	C 	0.42770 0.35520 0.95070 -0.31700
C 	C 	0.47450 0.34940 0.89570 0.16200
C 	C 	0.36740 0.29490 0.03380 -0.33200
C 	C 	0.31600 0.23180 0.04050 0.34200
C 	C 	0.29300 0.14730 0.98860 -0.86900
C 	C 	0.36130 0.35720 0.10140 0.29500
C 	C 	0.40640 0.44610 0.12640 -0.75600
C 	C 	0.23340 0.21200 0.13700 0.02800
C 	C 	0.28700 0.20630 0.25200 0.30900
C 	C 	0.22890 0.26750 0.30320 -0.82100
C 	C 	0.34930 0.15800 0.27070 -0.26300
C 	C 	0.37840 0.10440 0.20050 0.26700
C 	C 	0.44300 0.03200 0.18930 -0.71000
C 	C 	0.37660 0.16050 0.33510 0.22100
C 	C 	0.37970 0.23480 0.39560 -0.23100
C 	C 	0.41370 0.23550 0.45800 0.09800
C 	C 	0.42580 0.09400 0.41140 0.12900
C 	C 	0.40200 0.08660 0.34390 -0.24800
C 	C 	0.70760 0.10130 0.73130 0.33800
C 	C 	0.76680 0.05010 0.75880 -0.06500
C 	C 	0.82040 0.99190 0.71350 -0.03600
C 	C 	0.87190 0.94260 0.73680 -0.01400
C 	C 	0.87570 0.95250 0.80680 -0.10700
C 	C 	0.82600 0.01200 0.85130 0.00800
C 	C 	0.76960 0.05620 0.82850 -0.04800
C 	C 	0.93630 0.90010 0.83040 0.38400
C 	C 	0.45590 0.34990 0.68470 0.40200
C 	C 	0.39970 0.42940 0.70450 -0.10400
C 	C 	0.38970 0.48090 0.77100 0.01200
C 	C 	0.33790 0.55020 0.79250 -0.06600
C 	C 	0.29230 0.56610 0.73600 -0.03900
C 	C 	0.23010 0.63990 0.76140 0.30800
C 	C 	0.30120 0.51660 0.67130 -0.04800
C 	C 	0.35520 0.44900 0.65240 0.00500
N 	N 	0.02180 0.72110 0.63760 -0.27100
N 	N 	0.78700 0.74030 0.39270 -0.14100
N 	N 	0.81400 0.66110 0.35390 -0.13400
N 	N 	0.83860 0.88160 0.34940 -0.13400
N 	N 	0.78460 0.81980 0.31810 -0.13400
N 	N 	0.93890 0.83670 0.03460 -0.27300
N 	N 	0.52180 0.27890 0.86240 -0.27000
N 	N 	0.28700 0.25970 0.10730 -0.14100
N 	N 	0.31400 0.33890 0.14610 -0.13400
N 	N 	0.33860 0.11840 0.15060 -0.13500
N 	N 	0.28460 0.18020 0.18190 -0.13400
N 	N 	0.43890 0.16330 0.46540 -0.27300
O 	O 	0.20880 0.91330 0.83230 -0.33200
O 	O 	0.16370 0.84560 0.72460 -0.41000
O 	O 	0.47640 0.15480 0.71590 -0.44500
O 	O 	0.43680 0.09220 0.60690 -0.46200
O 	O 	0.95090 0.70050 0.87720 -0.46000
O 	O 	0.00220 0.65240 0.76930 -0.46400
O 	O 	0.72360 0.32310 0.67030 -0.30700
O 	O 	0.68810 0.34730 0.78320 -0.40800
O 	O 	0.12440 0.80090 0.85810 -0.71000
O 	O 	0.70880 0.08670 0.66770 -0.33100
O 	O 	0.66370 0.15440 0.77540 -0.40900
O 	O 	0.97640 0.84520 0.78410 -0.44200
O 	O 	0.93680 0.90780 0.89310 -0.45900
O 	O 	0.45090 0.29950 0.62280 -0.46100
O 	O 	0.50220 0.34760 0.73070 -0.46100
O 	O 	0.22360 0.67690 0.82970 -0.30700
O 	O 	0.18810 0.65270 0.71680 -0.40800
O 	O 	0.62440 0.19910 0.64190 -0.70900
Cd	Cd	0.91792 0.25336 0.25552 1.24500
Cd	Cd	0.98509 0.17751 0.06599 1.19000
Cd	Cd	0.41792 0.74664 0.24448 1.24500
Cd	Cd	0.48509 0.82249 0.43401 1.19200
H 	H 	0.84730 0.14590 0.13380 0.23100
H 	H 	0.83660 0.23790 0.13310 0.22800
H 	H 	0.95400 0.16940 0.36470 -0.05000
H 	H 	0.03590 0.17720 0.45710 0.12900
H 	H 	0.10000 0.40570 0.47320 0.12700
H 	H 	0.02470 0.39430 0.37940 -0.04700
H 	H 	0.17460 0.10410 0.49660 0.28500
H 	H 	0.19700 0.14690 0.44240 0.28400
H 	H 	0.26480 0.13680 0.49350 0.28400
H 	H 	0.10770 0.47690 0.67410 0.26400
H 	H 	0.11100 0.47760 0.59790 0.24800
H 	H 	0.03480 0.43770 0.62240 0.25400
H 	H 	0.29150 0.16470 0.60020 0.02200
H 	H 	0.31050 0.24750 0.66400 0.03200
H 	H 	0.27140 0.32010 0.79520 0.27500
H 	H 	0.25290 0.27690 0.84990 0.26800
H 	H 	0.32600 0.24420 0.79690 0.27600
H 	H 	0.08120 0.98670 0.70070 0.23400
H 	H 	0.00950 0.05360 0.71890 0.23200
H 	H 	0.03900 0.01110 0.64150 0.22900
H 	H 	0.14200 0.28480 0.89340 0.09500
H 	H 	0.08090 0.28650 0.99480 -0.02500
H 	H 	0.06680 0.04340 0.91910 -0.05100
H 	H 	0.09680 0.03510 0.80710 0.11600
H 	H 	0.67860 0.98620 0.16670 0.03900
H 	H 	0.59520 0.90190 0.20500 0.02800
H 	H 	0.67000 0.02280 0.39880 0.01100
H 	H 	0.76790 0.09130 0.36000 0.04700
H 	H 	0.08010 0.46900 0.30500 0.02200
H 	H 	0.16790 0.58420 0.33900 0.05800
H 	H 	0.22980 0.52700 0.13700 0.05000
H 	H 	0.13740 0.41640 0.10560 0.03500
H 	H 	0.34730 0.85410 0.36620 0.23100
H 	H 	0.33660 0.76210 0.36690 0.22800
H 	H 	0.45400 0.83060 0.13530 -0.05100
H 	H 	0.53590 0.82280 0.04290 0.13000
H 	H 	0.60000 0.59430 0.02680 0.12700
H 	H 	0.52470 0.60570 0.12060 -0.04700
H 	H 	0.67460 0.89590 0.00340 0.28500
H 	H 	0.69700 0.85310 0.05760 0.28400
H 	H 	0.76480 0.86320 0.00650 0.28400
H 	H 	0.60770 0.52310 0.82590 0.26400
H 	H 	0.61100 0.52240 0.90210 0.24900
H 	H 	0.53480 0.56230 0.87760 0.25400
H 	H 	0.79150 0.83530 0.89980 0.02200
H 	H 	0.81050 0.75250 0.83600 0.03200
H 	H 	0.77140 0.67990 0.70480 0.27500
H 	H 	0.75290 0.72310 0.65010 0.26800
H 	H 	0.82600 0.75580 0.70310 0.27600
H 	H 	0.58120 0.01330 0.79930 0.24300
H 	H 	0.50950 0.94640 0.78110 0.23600
H 	H 	0.53900 0.98890 0.85850 0.23300
H 	H 	0.64200 0.71520 0.60660 0.09600
H 	H 	0.58090 0.71350 0.50520 -0.02500
H 	H 	0.56680 0.95660 0.58090 -0.05200
H 	H 	0.59680 0.96490 0.69290 0.11500
H 	H 	0.17860 0.01380 0.33330 0.03900
H 	H 	0.09520 0.09810 0.29500 0.02900
H 	H 	0.17000 0.97720 0.10120 0.01200
H 	H 	0.26790 0.90870 0.14000 0.04600
H 	H 	0.58010 0.53100 0.19500 0.02200
H 	H 	0.66790 0.41580 0.16100 0.05800
H 	H 	0.72980 0.47300 0.36300 0.04900
H 	H 	0.63740 0.58360 0.39440 0.03500
C 	C 	0.98440 0.21850 0.38600 0.17500
C 	C 	0.03470 0.22320 0.44210 -0.31400
C 	C 	0.08170 0.29070 0.47570 0.29600
C 	C 	0.07230 0.35520 0.45070 -0.31700
C 	C 	0.02550 0.34940 0.39570 0.16400
C 	C 	0.13260 0.29490 0.53380 -0.33100
C 	C 	0.18400 0.23180 0.54050 0.34100
C 	C 	0.20700 0.14730 0.48860 -0.86700
C 	C 	0.13870 0.35720 0.60140 0.29500
C 	C 	0.09360 0.44610 0.62640 -0.75500
C 	C 	0.26660 0.21200 0.63700 0.02800
C 	C 	0.21300 0.20630 0.75200 0.30800
C 	C 	0.27110 0.26750 0.80320 -0.82000
C 	C 	0.15070 0.15800 0.77070 -0.26100
C 	C 	0.12160 0.10440 0.70050 0.26300
C 	C 	0.05700 0.03200 0.68930 -0.69200
C 	C 	0.12340 0.16050 0.83510 0.22100
C 	C 	0.12030 0.23480 0.89560 -0.23100
C 	C 	0.08630 0.23550 0.95800 0.09800
C 	C 	0.07420 0.09400 0.91140 0.12900
C 	C 	0.09800 0.08660 0.84390 -0.24800
C 	C 	0.79240 0.10130 0.23130 0.33700
C 	C 	0.73320 0.05010 0.25880 -0.06300
C 	C 	0.67960 0.99190 0.21350 -0.03900
C 	C 	0.62810 0.94260 0.23680 -0.01200
C 	C 	0.62430 0.95250 0.30680 -0.11100
C 	C 	0.67400 0.01200 0.35130 0.01200
C 	C 	0.73040 0.05620 0.32850 -0.05100
C 	C 	0.56370 0.90010 0.33040 0.38500
C 	C 	0.04410 0.34990 0.18470 0.40600
C 	C 	0.10030 0.42940 0.20450 -0.10500
C 	C 	0.11030 0.48090 0.27100 0.01300
C 	C 	0.16210 0.55020 0.29250 -0.06700
C 	C 	0.20770 0.56610 0.23600 -0.03900
C 	C 	0.26990 0.63990 0.26140 0.30800
C 	C 	0.19880 0.51660 0.17130 -0.04900
C 	C 	0.14480 0.44900 0.15240 0.00600
C 	C 	0.48440 0.78150 0.11400 0.18200
C 	C 	0.53470 0.77680 0.05790 -0.32100
C 	C 	0.58170 0.70930 0.02430 0.29900
C 	C 	0.57230 0.64480 0.04930 -0.31700
C 	C 	0.52550 0.65060 0.10430 0.16200
C 	C 	0.63260 0.70510 0.96620 -0.33200
C 	C 	0.68400 0.76820 0.95950 0.34200
C 	C 	0.70700 0.85270 0.01140 -0.86900
C 	C 	0.63870 0.64280 0.89860 0.29500
C 	C 	0.59360 0.55390 0.87360 -0.75600
C 	C 	0.76660 0.78800 0.86300 0.02800
C 	C 	0.71300 0.79370 0.74800 0.30900
C 	C 	0.77110 0.73250 0.69680 -0.82100
C 	C 	0.65070 0.84200 0.72930 -0.26300
C 	C 	0.62160 0.89560 0.79950 0.26700
C 	C 	0.55700 0.96800 0.81070 -0.71000
C 	C 	0.62340 0.83950 0.66490 0.22100
C 	C 	0.62030 0.76520 0.60440 -0.23100
C 	C 	0.58630 0.76450 0.54200 0.09800
C 	C 	0.57420 0.90600 0.58860 0.12900
C 	C 	0.59800 0.91340 0.65610 -0.24800
C 	C 	0.29240 0.89870 0.26870 0.33800
C 	C 	0.23320 0.94990 0.24120 -0.06500
C 	C 	0.17960 0.00810 0.28650 -0.03600
C 	C 	0.12810 0.05740 0.26320 -0.01400
C 	C 	0.12430 0.04750 0.19320 -0.10700
C 	C 	0.17400 0.98800 0.14870 0.00800
C 	C 	0.23040 0.94380 0.17150 -0.04800
C 	C 	0.06370 0.09990 0.16960 0.38400
C 	C 	0.54410 0.65010 0.31530 0.40200
C 	C 	0.60030 0.57060 0.29550 -0.10400
C 	C 	0.61030 0.51910 0.22900 0.01200
C 	C 	0.66210 0.44980 0.20750 -0.06600
C 	C 	0.70770 0.43390 0.26400 -0.03900
C 	C 	0.76990 0.36010 0.23860 0.30800
C 	C 	0.69880 0.48340 0.32870 -0.04800
C 	C 	0.64480 0.55100 0.34760 0.00500
N 	N 	0.97820 0.27890 0.36240 -0.27100
N 	N 	0.21300 0.25970 0.60730 -0.14100
N 	N 	0.18600 0.33890 0.64610 -0.13400
N 	N 	0.16140 0.11840 0.65060 -0.13400
N 	N 	0.21540 0.18020 0.68190 -0.13400
N 	N 	0.06110 0.16330 0.96540 -0.27300
N 	N 	0.47820 0.72110 0.13760 -0.27000
N 	N 	0.71300 0.74030 0.89270 -0.14100
N 	N 	0.68600 0.66110 0.85390 -0.13400
N 	N 	0.66140 0.88160 0.84940 -0.13500
N 	N 	0.71540 0.81980 0.81810 -0.13400
N 	N 	0.56110 0.83670 0.53460 -0.27300
O 	O 	0.79120 0.08670 0.16770 -0.33200
O 	O 	0.83630 0.15440 0.27540 -0.41000
O 	O 	0.52360 0.84520 0.28410 -0.44500
O 	O 	0.56320 0.90780 0.39310 -0.46200
O 	O 	0.04910 0.29950 0.12280 -0.46000
O 	O 	0.99780 0.34760 0.23070 -0.46400
O 	O 	0.27640 0.67690 0.32970 -0.30700
O 	O 	0.31190 0.65270 0.21680 -0.40800
O 	O 	0.87560 0.19910 0.14190 -0.71000
O 	O 	0.29120 0.91330 0.33230 -0.33100
O 	O 	0.33630 0.84560 0.22460 -0.40900
O 	O 	0.02360 0.15480 0.21590 -0.44200
O 	O 	0.06320 0.09220 0.10690 -0.45900
O 	O 	0.54910 0.70050 0.37720 -0.46100
O 	O 	0.49780 0.65240 0.26930 -0.46100
O 	O 	0.77640 0.32310 0.17030 -0.30700
O 	O 	0.81190 0.34730 0.28320 -0.40800
O 	O 	0.37560 0.80090 0.35810 -0.70900
