data_crystal

_cell_length_a 11.39720
_cell_length_b 11.82550
_cell_length_c 18.99140
_cell_angle_alpha 90.00000
_cell_angle_beta  90.00000
_cell_angle_gamma 118.03800

_symmetry_space_group_name_	'P 1'
_symmetry_space_group_name_H-M	'P 1'

loop_
_symmetry_equiv_pos_as_xyz
  x,y,z

loop_
_atom_site_label
_atom_site_type_symbol
_atom_site_fract_x
_atom_site_fract_y
_atom_site_fract_z
_atom_site_charge
Co	Co	0.31629 0.16796 0.50568 1.13800
Co	Co	0.18371 0.33204 0.00568 1.13400
Co	Co	0.68371 0.83204 0.49432 1.15100
Co	Co	0.81629 0.66796 0.99432 1.15400
Co	Co	0.50000 0.50000 0.50000 1.20000
Co	Co	-0.00000 0.00000 -0.00000 1.16500
H 	H 	0.53830 0.11150 0.33540 0.04100
H 	H 	0.83900 0.49480 0.23350 0.07000
H 	H 	0.70460 0.49260 0.32120 0.03900
H 	H 	0.91830 0.37310 0.15300 0.05300
H 	H 	0.74140 0.99180 0.16310 0.06800
H 	H 	0.61270 0.99070 0.25250 0.09800
H 	H 	0.20770 0.49130 0.55280 0.08600
H 	H 	0.14450 0.64910 0.60420 0.10500
H 	H 	0.99210 0.25790 0.39640 0.10700
H 	H 	0.16130 0.93550 0.53070 0.06300
H 	H 	0.35380 0.93830 0.54910 0.11700
H 	H 	0.27230 0.82280 0.49590 0.13100
H 	H 	0.38420 0.95600 0.46520 0.13200
H 	H 	0.07210 0.94590 0.42800 0.11200
H 	H 	0.10860 0.83050 0.42490 0.12800
H 	H 	0.20890 0.96440 0.38860 0.12800
H 	H 	0.96170 0.38850 0.83540 0.05500
H 	H 	0.66100 0.00520 0.73350 0.05700
H 	H 	0.79540 0.00740 0.82120 0.03100
H 	H 	0.58170 0.12690 0.65300 0.04000
H 	H 	0.75860 0.50820 0.66310 0.04000
H 	H 	0.88730 0.50930 0.75250 0.07200
H 	H 	0.29230 0.00870 0.05280 0.09800
H 	H 	0.35550 0.85090 0.10420 0.10300
H 	H 	0.50790 0.24210 0.89640 0.06200
H 	H 	0.33870 0.56450 0.03070 0.04200
H 	H 	0.14620 0.56170 0.04910 0.14800
H 	H 	0.22770 0.67720 0.99590 0.19100
H 	H 	0.11580 0.54400 0.96520 0.17800
H 	H 	0.42790 0.55410 0.92800 0.12100
H 	H 	0.39140 0.66950 0.92490 0.14400
H 	H 	0.29110 0.53560 0.88860 0.12900
H 	H 	0.46170 0.88850 0.66460 0.05400
H 	H 	0.16100 0.50520 0.76650 0.05800
H 	H 	0.29540 0.50740 0.67880 0.03300
H 	H 	0.08170 0.62690 0.84700 0.03900
H 	H 	0.25860 0.00820 0.83690 0.00600
H 	H 	0.38730 0.00930 0.74750 0.03200
H 	H 	0.79230 0.50870 0.44720 0.03900
H 	H 	0.85550 0.35090 0.39580 0.02300
H 	H 	0.00790 0.74210 0.60360 -0.03000
H 	H 	0.83870 0.06450 0.46930 0.06400
H 	H 	0.64620 0.06170 0.45090 0.09700
H 	H 	0.72770 0.17720 0.50410 0.12700
H 	H 	0.61580 0.04400 0.53480 0.11000
H 	H 	0.92790 0.05410 0.57200 0.11300
H 	H 	0.89140 0.16950 0.57510 0.14000
H 	H 	0.79110 0.03560 0.61140 0.12000
H 	H 	0.03830 0.61150 0.16460 0.03900
H 	H 	0.33900 0.99480 0.26650 0.07200
H 	H 	0.20460 0.99260 0.17880 0.04400
H 	H 	0.41830 0.87310 0.34700 0.05200
H 	H 	0.24140 0.49180 0.33690 0.03800
H 	H 	0.11270 0.49070 0.24750 0.05600
H 	H 	0.70770 0.99130 0.94720 0.02800
H 	H 	0.64450 0.14910 0.89580 0.03000
H 	H 	0.49210 0.75790 0.10360 0.00600
H 	H 	0.66130 0.43550 0.96930 0.08200
H 	H 	0.85380 0.43830 0.95090 0.06900
H 	H 	0.77230 0.32280 0.00410 0.07400
H 	H 	0.88420 0.45600 0.03480 0.07100
H 	H 	0.57210 0.44590 0.07200 0.10100
H 	H 	0.60860 0.33050 0.07510 0.12100
H 	H 	0.70890 0.46440 0.11140 0.11700
C 	C 	0.51760 0.30120 0.39570 0.36800
C 	C 	0.60600 0.29980 0.33722 -0.08900
C 	C 	0.59860 0.18690 0.31442 -0.05100
C 	C 	0.68040 0.18370 0.25911 0.03500
C 	C 	0.77380 0.30060 0.22827 0.01800
C 	C 	0.78040 0.41650 0.25327 -0.09600
C 	C 	0.69940 0.41610 0.30565 0.01300
C 	C 	0.85640 0.29730 0.17371 -0.03400
C 	C 	0.84690 0.18400 0.14934 -0.09100
C 	C 	0.93840 0.18170 0.09280 0.40100
C 	C 	0.75130 0.06800 0.17971 -0.00900
C 	C 	0.67160 0.06720 0.23295 -0.14400
C 	C 	0.19570 0.29630 0.47957 0.28900
C 	C 	0.11490 0.36590 0.47643 -0.00600
C 	C 	0.13810 0.46280 0.52197 -0.12400
C 	C 	0.05400 0.52190 0.52389 0.08300
C 	C 	0.07430 0.62120 0.57205 -0.21600
C 	C 	0.00660 0.32320 0.42839 -0.15600
C 	C 	0.31710 0.91710 0.50142 -0.33300
C 	C 	0.14460 0.92260 0.42689 -0.32000
C 	C 	0.98240 0.19880 0.89570 0.39900
C 	C 	0.89400 0.20020 0.83722 -0.09400
C 	C 	0.90140 0.31310 0.81442 -0.03900
C 	C 	0.81960 0.31630 0.75911 0.02800
C 	C 	0.72620 0.19940 0.72827 0.01700
C 	C 	0.71960 0.08350 0.75327 -0.09800
C 	C 	0.80060 0.08390 0.80565 0.01600
C 	C 	0.64360 0.20270 0.67371 -0.03400
C 	C 	0.65310 0.31600 0.64934 -0.09400
C 	C 	0.56160 0.31830 0.59280 0.37200
C 	C 	0.74870 0.43200 0.67971 0.02400
C 	C 	0.82840 0.43280 0.73295 -0.10400
C 	C 	0.30430 0.20370 0.97957 0.31000
C 	C 	0.38510 0.13410 0.97643 0.01400
C 	C 	0.36190 0.03720 0.02197 -0.20600
C 	C 	0.44600 0.97810 0.02389 0.16200
C 	C 	0.42570 0.87880 0.07205 -0.19900
C 	C 	0.49340 0.17680 0.92839 -0.07900
C 	C 	0.18290 0.58290 0.00142 -0.48900
C 	C 	0.35540 0.57740 0.92689 -0.34000
C 	C 	0.48240 0.69880 0.60430 0.36700
C 	C 	0.39400 0.70020 0.66278 -0.09100
C 	C 	0.40140 0.81310 0.68558 -0.03700
C 	C 	0.31960 0.81630 0.74089 0.01300
C 	C 	0.22620 0.69940 0.77173 0.02100
C 	C 	0.21960 0.58350 0.74673 -0.10100
C 	C 	0.30060 0.58390 0.69435 0.01200
C 	C 	0.14360 0.70270 0.82629 -0.04000
C 	C 	0.15310 0.81600 0.85066 -0.09300
C 	C 	0.06160 0.81830 0.90720 0.34600
C 	C 	0.24870 0.93200 0.82029 0.05400
C 	C 	0.32840 0.93280 0.76705 -0.06300
C 	C 	0.80430 0.70370 0.52043 0.34200
C 	C 	0.88510 0.63410 0.52357 -0.14100
C 	C 	0.86190 0.53720 0.47803 0.01600
C 	C 	0.94600 0.47810 0.47611 -0.03200
C 	C 	0.92570 0.37880 0.42795 0.03600
C 	C 	0.99340 0.67680 0.57161 0.15200
C 	C 	0.68290 0.08290 0.49858 -0.31300
C 	C 	0.85540 0.07740 0.57311 -0.32400
C 	C 	0.01760 0.80120 0.10430 0.33200
C 	C 	0.10600 0.79980 0.16278 -0.08400
C 	C 	0.09860 0.68690 0.18558 -0.04900
C 	C 	0.18040 0.68370 0.24089 0.01800
C 	C 	0.27380 0.80060 0.27173 0.02300
C 	C 	0.28040 0.91650 0.24673 -0.09900
C 	C 	0.19940 0.91610 0.19435 0.00900
C 	C 	0.35640 0.79730 0.32629 -0.04400
C 	C 	0.34690 0.68400 0.35066 -0.08600
C 	C 	0.43840 0.68170 0.40720 0.36800
C 	C 	0.25130 0.56800 0.32029 0.01300
C 	C 	0.17160 0.56720 0.26705 -0.09900
C 	C 	0.69570 0.79630 0.02043 0.32500
C 	C 	0.61490 0.86590 0.02357 -0.16000
C 	C 	0.63810 0.96280 0.97803 0.08900
C 	C 	0.55400 0.02190 0.97611 -0.10200
C 	C 	0.57430 0.12120 0.92795 0.00500
C 	C 	0.50660 0.82320 0.07161 0.09200
C 	C 	0.81710 0.41710 0.99858 -0.17300
C 	C 	0.64460 0.42260 0.07311 -0.30100
N 	N 	0.22040 0.96730 0.49339 -0.17600
N 	N 	0.27960 0.53270 0.99339 -0.13900
N 	N 	0.77960 0.03270 0.50661 -0.18900
N 	N 	0.72040 0.46730 0.00661 -0.22300
O 	O 	0.30498 0.34341 0.51437 -0.50300
O 	O 	0.42543 0.19500 0.41612 -0.44600
O 	O 	0.54306 0.40985 0.41925 -0.42600
O 	O 	0.02188 0.28912 0.06774 -0.49300
O 	O 	0.92690 0.07452 0.07673 -0.43300
O 	O 	0.15305 0.18885 0.45113 -0.40100
O 	O 	0.19502 0.15659 0.01437 -0.53000
O 	O 	0.07457 0.30500 0.91612 -0.45700
O 	O 	0.95694 0.09015 0.91925 -0.42100
O 	O 	0.47812 0.21088 0.56774 -0.46300
O 	O 	0.57310 0.42548 0.57673 -0.42400
O 	O 	0.34695 0.31115 0.95113 -0.38400
O 	O 	0.69502 0.65659 0.48563 -0.51000
O 	O 	0.57457 0.80500 0.58388 -0.42900
O 	O 	0.45694 0.59015 0.58075 -0.42700
O 	O 	0.97812 0.71088 0.93226 -0.42700
O 	O 	0.07310 0.92548 0.92327 -0.39900
O 	O 	0.84695 0.81115 0.54887 -0.38300
O 	O 	0.80498 0.84341 0.98563 -0.47800
O 	O 	0.92543 0.69500 0.08388 -0.41500
O 	O 	0.04306 0.90985 0.08075 -0.41600
O 	O 	0.52188 0.78912 0.43226 -0.45000
O 	O 	0.42690 0.57452 0.42327 -0.42300
O 	O 	0.65305 0.68885 0.04887 -0.39600
