data_crystal

_cell_length_a 12.07360
_cell_length_b 16.17150
_cell_length_c 16.17150
_cell_angle_alpha 65.97730
_cell_angle_beta  75.58960
_cell_angle_gamma 104.41000

_symmetry_space_group_name_	'P 1'
_symmetry_space_group_name_H-M	'P 1'

loop_
_symmetry_equiv_pos_as_xyz
  x,y,z

loop_
_atom_site_label
_atom_site_type_symbol
_atom_site_fract_x
_atom_site_fract_y
_atom_site_fract_z
_atom_site_charge
Cd	Cd	0.00700 0.51400 0.74300 1.20200
Cd	Cd	0.75000 0.74300 0.74300 1.20200
Cd	Cd	0.49300 0.74300 0.51400 1.20200
H 	H 	0.97840 0.60980 0.53070 0.01700
H 	H 	0.12910 0.68420 0.36360 0.03300
H 	H 	0.32000 0.51780 0.34870 0.16500
H 	H 	0.41430 0.60910 0.24590 0.15200
H 	H 	0.37220 0.71190 0.29320 -0.00100
H 	H 	0.41340 0.64140 0.36730 -0.02100
H 	H 	0.50910 0.53070 0.85950 0.01700
H 	H 	0.49270 0.36360 0.95220 0.03400
H 	H 	0.66870 0.34870 0.13350 0.16300
H 	H 	0.66020 0.24590 0.14500 0.15000
H 	H 	0.66540 0.29320 0.99490 0.00600
H 	H 	0.78070 0.36730 0.99130 -0.01400
H 	H 	0.36860 0.85950 0.60980 0.01700
H 	H 	0.44490 0.95220 0.68420 0.03400
H 	H 	0.80220 0.13350 0.51780 0.16500
H 	H 	0.80520 0.14500 0.60910 0.15200
H 	H 	0.66030 0.99490 0.71190 0.00200
H 	H 	0.77200 0.99130 0.64140 -0.01900
H 	H 	0.99090 0.85950 0.53070 0.01800
H 	H 	0.00730 0.95220 0.36360 0.03300
H 	H 	0.83130 0.13350 0.34870 0.16500
H 	H 	0.83980 0.14500 0.24590 0.15200
H 	H 	0.83460 0.99490 0.29320 0.00300
H 	H 	0.71930 0.99130 0.36730 -0.01800
H 	H 	0.13140 0.60980 0.85950 0.01700
H 	H 	0.05510 0.68420 0.95220 0.03500
H 	H 	0.69780 0.51780 0.13350 0.16200
H 	H 	0.69480 0.60910 0.14500 0.14900
H 	H 	0.83970 0.71190 0.99490 0.00700
H 	H 	0.72800 0.64140 0.99130 -0.01400
H 	H 	0.52160 0.53070 0.60980 0.01700
H 	H 	0.37090 0.36360 0.68420 0.03400
H 	H 	0.18000 0.34870 0.51780 0.16600
H 	H 	0.08570 0.24590 0.60910 0.15400
H 	H 	0.12780 0.29320 0.71190 -0.00000
H 	H 	0.08660 0.36730 0.64140 -0.02100
C 	C 	0.20770 0.56150 0.52380 0.06500
C 	C 	0.05410 0.60360 0.51340 -0.01200
C 	C 	0.13710 0.64510 0.42080 0.00900
C 	C 	0.33580 0.58420 0.30050 -0.42100
C 	C 	0.22620 0.58050 0.26020 0.44700
C 	C 	0.34700 0.64420 0.34400 0.15500
C 	C 	0.73150 0.52380 0.91470 0.06400
C 	C 	0.56750 0.51340 0.88300 -0.01000
C 	C 	0.55790 0.42080 0.93410 0.00700
C 	C 	0.63630 0.30050 0.11530 -0.41100
C 	C 	0.48640 0.26020 0.15930 0.44400
C 	C 	0.69100 0.34400 0.01180 0.13800
C 	C 	0.64620 0.91470 0.56150 0.06500
C 	C 	0.45050 0.88300 0.60360 -0.01000
C 	C 	0.49200 0.93410 0.64510 0.00800
C 	C 	0.75160 0.11530 0.58420 -0.41800
C 	C 	0.64570 0.15930 0.58050 0.44600
C 	C 	0.70280 0.01180 0.64420 0.14900
C 	C 	0.76850 0.91470 0.52380 0.06500
C 	C 	0.93250 0.88300 0.51340 -0.01100
C 	C 	0.94210 0.93410 0.42080 0.01000
C 	C 	0.86370 0.11530 0.30050 -0.42000
C 	C 	0.01360 0.15930 0.26020 0.45000
C 	C 	0.80900 0.01180 0.34400 0.14600
C 	C 	0.85380 0.56150 0.91470 0.06500
C 	C 	0.04950 0.60360 0.88300 -0.01200
C 	C 	0.00800 0.64510 0.93410 0.00300
C 	C 	0.74840 0.58420 0.11530 -0.40900
C 	C 	0.85430 0.58050 0.15930 0.44300
C 	C 	0.79720 0.64420 0.01180 0.13500
C 	C 	0.29230 0.52380 0.56150 0.06500
C 	C 	0.44590 0.51340 0.60360 -0.01100
C 	C 	0.36290 0.42080 0.64510 0.00800
C 	C 	0.16420 0.30050 0.58420 -0.42100
C 	C 	0.27380 0.26020 0.58050 0.44700
C 	C 	0.15300 0.34400 0.64420 0.15500
N 	N 	0.09720 0.55130 0.57840 -0.21700
N 	N 	0.23550 0.61900 0.42620 -0.14200
N 	N 	0.67560 0.57840 0.87030 -0.21700
N 	N 	0.66170 0.42620 0.95480 -0.13900
N 	N 	0.54590 0.87030 0.55130 -0.21700
N 	N 	0.61650 0.95480 0.61900 -0.14100
N 	N 	0.82440 0.87030 0.57840 -0.21700
N 	N 	0.83830 0.95480 0.42620 -0.14000
N 	N 	0.95410 0.55130 0.87030 -0.21500
N 	N 	0.88350 0.61900 0.95480 -0.13600
N 	N 	0.40280 0.57840 0.55130 -0.21700
N 	N 	0.26450 0.42620 0.61900 -0.14200
O 	O 	0.17770 0.63290 0.21840 -0.38700
O 	O 	0.17910 0.49340 0.28830 -0.44700
O 	O 	0.39610 0.21840 0.14870 -0.38700
O 	O 	0.46740 0.28830 0.21830 -0.44600
O 	O 	0.54480 0.14870 0.63290 -0.38700
O 	O 	0.68570 0.21830 0.49340 -0.44700
O 	O 	0.10390 0.14870 0.21840 -0.38700
O 	O 	0.03260 0.21830 0.28830 -0.44700
O 	O 	0.95520 0.63290 0.14870 -0.38700
O 	O 	0.81430 0.49340 0.21830 -0.44700
O 	O 	0.32230 0.21840 0.63290 -0.38800
O 	O 	0.32090 0.28830 0.49340 -0.44700
Cd	Cd	0.99300 0.48600 0.25700 1.20300
Cd	Cd	0.25000 0.25700 0.25700 1.20300
Cd	Cd	0.50700 0.25700 0.48600 1.20300
H 	H 	0.02160 0.39020 0.46930 0.01800
H 	H 	0.87090 0.31580 0.63640 0.03400
H 	H 	0.68000 0.48220 0.65130 0.16600
H 	H 	0.58570 0.39090 0.75410 0.15300
H 	H 	0.62780 0.28810 0.70680 -0.00000
H 	H 	0.58660 0.35860 0.63270 -0.02100
H 	H 	0.49090 0.46930 0.14050 0.01700
H 	H 	0.50730 0.63640 0.04780 0.03400
H 	H 	0.33130 0.65130 0.86650 0.16300
H 	H 	0.33980 0.75410 0.85500 0.15000
H 	H 	0.33460 0.70680 0.00510 0.00600
H 	H 	0.21930 0.63270 0.00870 -0.01400
H 	H 	0.63140 0.14050 0.39020 0.01700
H 	H 	0.55510 0.04780 0.31580 0.03400
H 	H 	0.19780 0.86650 0.48220 0.16500
H 	H 	0.19480 0.85500 0.39090 0.15200
H 	H 	0.33970 0.00510 0.28810 0.00200
H 	H 	0.22800 0.00870 0.35860 -0.01900
H 	H 	0.00910 0.14050 0.46930 0.01800
H 	H 	0.99270 0.04780 0.63640 0.03300
H 	H 	0.16870 0.86650 0.65130 0.16500
H 	H 	0.16020 0.85500 0.75410 0.15200
H 	H 	0.16540 0.00510 0.70680 0.00300
H 	H 	0.28070 0.00870 0.63270 -0.01800
H 	H 	0.86860 0.39020 0.14050 0.01700
H 	H 	0.94490 0.31580 0.04780 0.03500
H 	H 	0.30220 0.48220 0.86650 0.16200
H 	H 	0.30520 0.39090 0.85500 0.14900
H 	H 	0.16030 0.28810 0.00510 0.00700
H 	H 	0.27200 0.35860 0.00870 -0.01400
H 	H 	0.47840 0.46930 0.39020 0.01700
H 	H 	0.62910 0.63640 0.31580 0.03400
H 	H 	0.82000 0.65130 0.48220 0.16600
H 	H 	0.91430 0.75410 0.39090 0.15400
H 	H 	0.87220 0.70680 0.28810 -0.00000
H 	H 	0.91340 0.63270 0.35860 -0.02100
C 	C 	0.79230 0.43850 0.47620 0.06500
C 	C 	0.94590 0.39640 0.48660 -0.01200
C 	C 	0.86290 0.35490 0.57920 0.00900
C 	C 	0.66420 0.41580 0.69950 -0.42100
C 	C 	0.77380 0.41950 0.73980 0.44700
C 	C 	0.65300 0.35580 0.65600 0.15500
C 	C 	0.26850 0.47620 0.08530 0.06400
C 	C 	0.43250 0.48660 0.11700 -0.01000
C 	C 	0.44210 0.57920 0.06590 0.00700
C 	C 	0.36370 0.69950 0.88470 -0.41100
C 	C 	0.51360 0.73980 0.84070 0.44400
C 	C 	0.30900 0.65600 0.98820 0.13800
C 	C 	0.35380 0.08530 0.43850 0.06500
C 	C 	0.54950 0.11700 0.39640 -0.01000
C 	C 	0.50800 0.06590 0.35490 0.00800
C 	C 	0.24840 0.88470 0.41580 -0.41800
C 	C 	0.35430 0.84070 0.41950 0.44600
C 	C 	0.29720 0.98820 0.35580 0.14900
C 	C 	0.23150 0.08530 0.47620 0.06500
C 	C 	0.06750 0.11700 0.48660 -0.01100
C 	C 	0.05790 0.06590 0.57920 0.01000
C 	C 	0.13630 0.88470 0.69950 -0.42000
C 	C 	0.98640 0.84070 0.73980 0.45000
C 	C 	0.19100 0.98820 0.65600 0.14600
C 	C 	0.14620 0.43850 0.08530 0.06500
C 	C 	0.95050 0.39640 0.11700 -0.01200
C 	C 	0.99200 0.35490 0.06590 0.00300
C 	C 	0.25160 0.41580 0.88470 -0.40900
C 	C 	0.14570 0.41950 0.84070 0.44300
C 	C 	0.20280 0.35580 0.98820 0.13500
C 	C 	0.70770 0.47620 0.43850 0.06500
C 	C 	0.55410 0.48660 0.39640 -0.01100
C 	C 	0.63710 0.57920 0.35490 0.00800
C 	C 	0.83580 0.69950 0.41580 -0.42100
C 	C 	0.72620 0.73980 0.41950 0.44700
C 	C 	0.84700 0.65600 0.35580 0.15500
N 	N 	0.90280 0.44870 0.42160 -0.21700
N 	N 	0.76450 0.38100 0.57380 -0.14200
N 	N 	0.32440 0.42160 0.12970 -0.21700
N 	N 	0.33830 0.57380 0.04520 -0.13900
N 	N 	0.45410 0.12970 0.44870 -0.21700
N 	N 	0.38350 0.04520 0.38100 -0.14100
N 	N 	0.17560 0.12970 0.42160 -0.21700
N 	N 	0.16170 0.04520 0.57380 -0.14000
N 	N 	0.04590 0.44870 0.12970 -0.21500
N 	N 	0.11650 0.38100 0.04520 -0.13600
N 	N 	0.59720 0.42160 0.44870 -0.21700
N 	N 	0.73550 0.57380 0.38100 -0.14200
O 	O 	0.82230 0.36710 0.78160 -0.38700
O 	O 	0.82090 0.50660 0.71170 -0.44700
O 	O 	0.60390 0.78160 0.85130 -0.38700
O 	O 	0.53260 0.71170 0.78170 -0.44600
O 	O 	0.45520 0.85130 0.36710 -0.38700
O 	O 	0.31430 0.78170 0.50660 -0.44700
O 	O 	0.89610 0.85130 0.78160 -0.38700
O 	O 	0.96740 0.78170 0.71170 -0.44700
O 	O 	0.04480 0.36710 0.85130 -0.38700
O 	O 	0.18570 0.50660 0.78170 -0.44700
O 	O 	0.67770 0.78160 0.36710 -0.38800
O 	O 	0.67910 0.71170 0.50660 -0.44700
