data_crystal

_cell_length_a 12.00470
_cell_length_b 10.95630
_cell_length_c 21.07670
_cell_angle_alpha 90.00000
_cell_angle_beta  106.38900
_cell_angle_gamma 90.00000

_symmetry_space_group_name_	'P 1'
_symmetry_space_group_name_H-M	'P 1'

loop_
_symmetry_equiv_pos_as_xyz
  x,y,z

loop_
_atom_site_label
_atom_site_type_symbol
_atom_site_fract_x
_atom_site_fract_y
_atom_site_fract_z
_atom_site_charge
Cd	Cd	0.63605 0.68064 0.96029 1.22800
Ca	Ca	0.35622 0.55455 0.87272 1.48500
O 	O 	0.62720 0.76880 0.86510 -0.43500
O 	O 	0.43810 0.72430 0.83504 -0.53500
O 	O 	0.22040 0.88120 0.59088 -0.54400
O 	O 	0.30970 0.77360 0.53028 -0.40200
O 	O 	0.73190 0.84950 0.65890 -0.27100
O 	O 	0.96340 0.96860 0.60697 -0.55800
O 	O 	0.78190 0.00040 0.54950 -0.44100
O 	O 	0.04170 0.67710 0.50671 -0.39000
O 	O 	0.94410 0.84870 0.47812 -0.54400
C 	C 	0.52830 0.76240 0.82360 0.36700
C 	C 	0.52270 0.79970 0.75384 -0.07300
C 	C 	0.41880 0.80680 0.70410 -0.01200
H 	H 	0.34890 0.80050 0.71460 -0.00300
C 	C 	0.41820 0.82310 0.63906 -0.08300
C 	C 	0.52310 0.83290 0.62320 -0.12200
H 	H 	0.52340 0.83990 0.57930 0.09200
C 	C 	0.62580 0.83220 0.67280 0.17800
C 	C 	0.62730 0.81650 0.73820 -0.12000
H 	H 	0.69730 0.81700 0.77140 0.09300
C 	C 	0.30780 0.82590 0.58300 0.34800
C 	C 	0.76560 0.76040 0.62130 0.24800
C 	C 	0.83630 0.79860 0.58290 -0.19200
C 	C 	0.88160 0.71110 0.54930 0.01300
C 	C 	0.85740 0.58810 0.55460 -0.13300
H 	H 	0.89030 0.52980 0.53330 0.08900
C 	C 	0.78410 0.55260 0.59170 0.09500
H 	H 	0.76570 0.47060 0.59390 0.00100
C 	C 	0.73840 0.63830 0.62530 -0.23600
H 	H 	0.68970 0.61420 0.65030 0.11900
C 	C 	0.86280 0.93200 0.57950 0.43900
C 	C 	0.95960 0.74700 0.50840 0.29600
Cd	Cd	0.86395 0.18064 0.53971 1.22900
Ca	Ca	0.14378 0.05455 0.62728 1.48600
O 	O 	0.87280 0.26880 0.63490 -0.43400
O 	O 	0.06190 0.22430 0.66496 -0.53400
O 	O 	0.27960 0.38120 0.90912 -0.54400
O 	O 	0.19030 0.27360 0.96972 -0.40100
O 	O 	0.76810 0.34950 0.84110 -0.27100
O 	O 	0.53660 0.46860 0.89303 -0.55800
O 	O 	0.71810 0.50040 0.95050 -0.44200
O 	O 	0.45830 0.17710 0.99329 -0.39000
O 	O 	0.55590 0.34870 0.02188 -0.54300
C 	C 	0.97170 0.26240 0.67640 0.36700
C 	C 	0.97730 0.29970 0.74616 -0.07400
C 	C 	0.08120 0.30680 0.79590 -0.01200
H 	H 	0.15110 0.30050 0.78540 -0.00300
C 	C 	0.08180 0.32310 0.86094 -0.08300
C 	C 	0.97690 0.33290 0.87680 -0.12200
H 	H 	0.97660 0.33990 0.92070 0.09200
C 	C 	0.87420 0.33220 0.82720 0.17800
C 	C 	0.87270 0.31650 0.76180 -0.12000
H 	H 	0.80270 0.31700 0.72860 0.09300
C 	C 	0.19220 0.32590 0.91700 0.34800
C 	C 	0.73440 0.26040 0.87870 0.24800
C 	C 	0.66370 0.29860 0.91710 -0.19300
C 	C 	0.61840 0.21110 0.95070 0.01400
C 	C 	0.64260 0.08810 0.94540 -0.13400
H 	H 	0.60970 0.02980 0.96670 0.08900
C 	C 	0.71590 0.05260 0.90830 0.09700
H 	H 	0.73430 0.97060 0.90610 0.00000
C 	C 	0.76160 0.13830 0.87470 -0.23700
H 	H 	0.81030 0.11420 0.84970 0.11900
C 	C 	0.63720 0.43200 0.92050 0.43900
C 	C 	0.54040 0.24700 0.99160 0.29600
Cd	Cd	0.36395 0.31936 0.03971 1.22900
Ca	Ca	0.64378 0.44545 0.12728 1.48600
O 	O 	0.37280 0.23120 0.13490 -0.43400
O 	O 	0.56190 0.27570 0.16496 -0.53400
O 	O 	0.77960 0.11880 0.40912 -0.54300
O 	O 	0.69030 0.22640 0.46972 -0.40100
O 	O 	0.26810 0.15050 0.34110 -0.27100
O 	O 	0.03660 0.03140 0.39303 -0.55800
O 	O 	0.21810 0.99960 0.45050 -0.44100
O 	O 	0.95830 0.32290 0.49329 -0.39000
O 	O 	0.05590 0.15130 0.52188 -0.54400
C 	C 	0.47170 0.23760 0.17640 0.36700
C 	C 	0.47730 0.20030 0.24616 -0.07300
C 	C 	0.58120 0.19320 0.29590 -0.01200
H 	H 	0.65110 0.19950 0.28540 -0.00300
C 	C 	0.58180 0.17690 0.36094 -0.08300
C 	C 	0.47690 0.16710 0.37680 -0.12200
H 	H 	0.47660 0.16010 0.42070 0.09200
C 	C 	0.37420 0.16780 0.32720 0.17800
C 	C 	0.37270 0.18350 0.26180 -0.12000
H 	H 	0.30270 0.18300 0.22860 0.09300
C 	C 	0.69220 0.17410 0.41700 0.34800
C 	C 	0.23440 0.23960 0.37870 0.24800
C 	C 	0.16370 0.20140 0.41710 -0.19200
C 	C 	0.11840 0.28890 0.45070 0.01300
C 	C 	0.14260 0.41190 0.44540 -0.13300
H 	H 	0.10970 0.47020 0.46670 0.08900
C 	C 	0.21590 0.44740 0.40830 0.09500
H 	H 	0.23430 0.52940 0.40610 0.00100
C 	C 	0.26160 0.36170 0.37470 -0.23600
H 	H 	0.31030 0.38580 0.34970 0.11900
C 	C 	0.13720 0.06800 0.42050 0.43900
C 	C 	0.04040 0.25300 0.49160 0.29600
Cd	Cd	0.13605 0.81936 0.46029 1.22900
Ca	Ca	0.85622 0.94545 0.37272 1.48600
O 	O 	0.12720 0.73120 0.36510 -0.43400
O 	O 	0.93810 0.77570 0.33504 -0.53400
O 	O 	0.72040 0.61880 0.09088 -0.54400
O 	O 	0.80970 0.72640 0.03028 -0.40100
O 	O 	0.23190 0.65050 0.15890 -0.27100
O 	O 	0.46340 0.53140 0.10697 -0.55800
O 	O 	0.28190 0.49960 0.04950 -0.44200
O 	O 	0.54170 0.82290 0.00671 -0.39000
O 	O 	0.44410 0.65130 0.97812 -0.54300
C 	C 	0.02830 0.73760 0.32360 0.36700
C 	C 	0.02270 0.70030 0.25384 -0.07400
C 	C 	0.91880 0.69320 0.20410 -0.01200
H 	H 	0.84890 0.69950 0.21460 -0.00300
C 	C 	0.91820 0.67690 0.13906 -0.08300
C 	C 	0.02310 0.66710 0.12320 -0.12200
H 	H 	0.02340 0.66010 0.07930 0.09200
C 	C 	0.12580 0.66780 0.17280 0.17800
C 	C 	0.12730 0.68350 0.23820 -0.12000
H 	H 	0.19730 0.68300 0.27140 0.09300
C 	C 	0.80780 0.67410 0.08300 0.34800
C 	C 	0.26560 0.73960 0.12130 0.24800
C 	C 	0.33630 0.70140 0.08290 -0.19300
C 	C 	0.38160 0.78890 0.04930 0.01400
C 	C 	0.35740 0.91190 0.05460 -0.13400
H 	H 	0.39030 0.97020 0.03330 0.08900
C 	C 	0.28410 0.94740 0.09170 0.09700
H 	H 	0.26570 0.02940 0.09390 0.00000
C 	C 	0.23840 0.86170 0.12530 -0.23700
H 	H 	0.18970 0.88580 0.15030 0.11900
C 	C 	0.36280 0.56800 0.07950 0.43900
C 	C 	0.45960 0.75300 0.00840 0.29600
