data_crystal

_cell_length_a 10.27240
_cell_length_b 13.31260
_cell_length_c 15.29490
_cell_angle_alpha 100.30700
_cell_angle_beta  107.57200
_cell_angle_gamma 100.41400

_symmetry_space_group_name_	'P 1'
_symmetry_space_group_name_H-M	'P 1'

loop_
_symmetry_equiv_pos_as_xyz
  x,y,z

loop_
_atom_site_label
_atom_site_type_symbol
_atom_site_fract_x
_atom_site_fract_y
_atom_site_fract_z
_atom_site_charge
Ba	Ba	0.52643 0.82036 0.98816 1.93700
Ba	Ba	0.91322 0.07525 0.10966 1.87500
C 	C 	0.34550 0.29270 0.30330 -0.04200
C 	C 	0.48540 0.31280 0.35980 -0.07900
H 	H 	0.55160 0.29980 0.33190 0.08000
C 	C 	0.52900 0.35150 0.45630 0.05900
H 	H 	0.62420 0.36710 0.49260 0.02700
C 	C 	0.43190 0.36740 0.49950 -0.19900
H 	H 	0.46050 0.39230 0.56490 0.11000
C 	C 	0.29120 0.34570 0.44410 0.22500
C 	C 	0.24630 0.31150 0.34670 -0.14200
C 	C 	0.30330 0.24720 0.19850 0.40800
C 	C 	0.09280 0.29800 0.29190 0.36300
C 	C 	0.22270 0.38200 0.57840 0.19000
C 	C 	0.24720 0.30530 0.62600 -0.11700
H 	H 	0.24080 0.23770 0.59310 0.11000
C 	C 	0.28140 0.32950 0.72360 -0.07100
C 	C 	0.29100 0.43030 0.77210 0.00600
H 	H 	0.31580 0.44700 0.83770 0.02900
C 	C 	0.26370 0.50680 0.72270 -0.05700
C 	C 	0.22780 0.48210 0.62460 -0.11100
H 	H 	0.20770 0.53230 0.59090 0.11600
C 	C 	0.30620 0.24940 0.77840 0.40200
C 	C 	0.27870 0.61530 0.77720 0.39700
C 	C 	0.60570 0.98850 0.79040 -0.06500
C 	C 	0.67750 0.99380 0.72770 -0.07900
H 	H 	0.77530 0.01760 0.75050 0.04600
C 	C 	0.60520 0.96400 0.63120 0.06000
H 	H 	0.65530 0.96820 0.58990 0.01800
C 	C 	0.46240 0.92870 0.59540 -0.20900
H 	H 	0.41490 0.90790 0.53030 0.11200
C 	C 	0.38820 0.92410 0.65810 0.22900
C 	C 	0.45830 0.95370 0.75500 -0.17900
C 	C 	0.68970 0.01500 0.89410 0.34900
C 	C 	0.36770 0.95060 0.81680 0.38900
C 	C 	0.17410 0.86180 0.53080 0.21900
C 	C 	0.13560 0.94000 0.48680 -0.16600
H 	H 	0.15050 0.00800 0.52250 0.13700
C 	C 	0.07460 0.91530 0.38850 -0.03400
C 	C 	0.05540 0.81350 0.33590 -0.03100
H 	H 	0.01650 0.79710 0.27020 0.04700
C 	C 	0.09390 0.73650 0.38110 -0.01600
C 	C 	0.15120 0.76020 0.47880 -0.15000
H 	H 	0.17420 0.70800 0.50930 0.12500
C 	C 	0.03650 0.99740 0.33740 0.38800
C 	C 	0.07620 0.63020 0.32080 0.33500
O 	O 	0.17460 0.20590 0.15160 -0.50200
O 	O 	0.39840 0.25290 0.16350 -0.46700
O 	O 	0.82630 0.85980 0.02850 -0.94000
H 	H 	0.82100 0.82900 0.97350 0.31700
H 	H 	0.86800 0.82600 0.06400 0.34400
O 	O 	0.05980 0.37260 0.25890 -0.29900
O 	O 	0.00550 0.21380 0.28420 -0.41300
O 	O 	0.18590 0.36040 0.48010 -0.24600
O 	O 	0.29580 0.15650 0.72580 -0.47800
H 	H 	0.30970 0.11190 0.75880 0.27600
O 	O 	0.33590 0.26910 0.86380 -0.46400
O 	O 	0.32050 0.64170 0.86250 -0.48000
O 	O 	0.24200 0.67740 0.72030 -0.44400
H 	H 	0.25670 0.73560 0.75980 0.25000
O 	O 	0.82200 0.03280 0.91700 -0.52400
O 	O 	0.62510 0.01580 0.95270 -0.59800
O 	O 	0.32970 0.86750 0.84020 -0.55200
O 	O 	0.32770 0.03200 0.83980 -0.52000
O 	O 	0.24240 0.88810 0.62870 -0.26900
O 	O 	0.07340 0.09230 0.39170 -0.43600
H 	H 	0.05390 0.14610 0.36620 0.26700
O 	O 	0.97960 0.97440 0.25260 -0.42700
O 	O 	0.03410 0.61060 0.23520 -0.28700
O 	O 	0.11130 0.56140 0.36900 -0.43300
H 	H 	0.11040 0.51030 0.32640 0.28500
Ba	Ba	0.47357 0.17964 0.01184 1.93600
Ba	Ba	0.08678 0.92475 0.89034 1.87400
C 	C 	0.65450 0.70730 0.69670 -0.04200
C 	C 	0.51460 0.68720 0.64020 -0.07900
H 	H 	0.44840 0.70020 0.66810 0.08000
C 	C 	0.47100 0.64850 0.54370 0.05900
H 	H 	0.37580 0.63290 0.50740 0.02700
C 	C 	0.56810 0.63260 0.50050 -0.19900
H 	H 	0.53950 0.60770 0.43510 0.11000
C 	C 	0.70880 0.65430 0.55590 0.22500
C 	C 	0.75370 0.68850 0.65330 -0.14200
C 	C 	0.69670 0.75280 0.80150 0.40800
C 	C 	0.90720 0.70200 0.70810 0.36300
C 	C 	0.77730 0.61800 0.42160 0.19000
C 	C 	0.75280 0.69470 0.37400 -0.11700
H 	H 	0.75920 0.76230 0.40690 0.11000
C 	C 	0.71860 0.67050 0.27640 -0.07100
C 	C 	0.70900 0.56970 0.22790 0.00600
H 	H 	0.68420 0.55300 0.16230 0.02900
C 	C 	0.73630 0.49320 0.27730 -0.05700
C 	C 	0.77220 0.51790 0.37540 -0.11100
H 	H 	0.79230 0.46770 0.40910 0.11600
C 	C 	0.69380 0.75060 0.22160 0.40200
C 	C 	0.72130 0.38470 0.22280 0.39700
C 	C 	0.39430 0.01150 0.20960 -0.06500
C 	C 	0.32250 0.00620 0.27230 -0.07900
H 	H 	0.22470 0.98240 0.24950 0.04600
C 	C 	0.39480 0.03600 0.36880 0.06000
H 	H 	0.34470 0.03180 0.41010 0.01800
C 	C 	0.53760 0.07130 0.40460 -0.20900
H 	H 	0.58510 0.09210 0.46970 0.11200
C 	C 	0.61180 0.07590 0.34190 0.22900
C 	C 	0.54170 0.04630 0.24500 -0.17900
C 	C 	0.31030 0.98500 0.10590 0.34900
C 	C 	0.63230 0.04940 0.18320 0.38900
C 	C 	0.82590 0.13820 0.46920 0.21900
C 	C 	0.86440 0.06000 0.51320 -0.16600
H 	H 	0.84950 0.99200 0.47750 0.13700
C 	C 	0.92540 0.08470 0.61150 -0.03400
C 	C 	0.94460 0.18650 0.66410 -0.03100
H 	H 	0.98350 0.20290 0.72980 0.04700
C 	C 	0.90610 0.26350 0.61890 -0.01600
C 	C 	0.84880 0.23980 0.52120 -0.15000
H 	H 	0.82580 0.29200 0.49070 0.12500
C 	C 	0.96350 0.00260 0.66260 0.38800
C 	C 	0.92380 0.36980 0.67920 0.33500
O 	O 	0.82540 0.79410 0.84840 -0.50200
O 	O 	0.60160 0.74710 0.83650 -0.46700
O 	O 	0.17370 0.14020 0.97150 -0.94000
H 	H 	0.17900 0.17100 0.02650 0.31700
H 	H 	0.13200 0.17400 0.93600 0.34400
O 	O 	0.94020 0.62740 0.74110 -0.29900
O 	O 	0.99450 0.78620 0.71580 -0.41300
O 	O 	0.81410 0.63960 0.51990 -0.24600
O 	O 	0.70420 0.84350 0.27420 -0.47800
H 	H 	0.69030 0.88810 0.24120 0.27600
O 	O 	0.66410 0.73090 0.13620 -0.46400
O 	O 	0.67950 0.35830 0.13750 -0.48000
O 	O 	0.75800 0.32260 0.27970 -0.44400
H 	H 	0.74330 0.26440 0.24020 0.25000
O 	O 	0.17800 0.96720 0.08300 -0.52400
O 	O 	0.37490 0.98420 0.04730 -0.59800
O 	O 	0.67030 0.13250 0.15980 -0.55200
O 	O 	0.67230 0.96800 0.16020 -0.52000
O 	O 	0.75760 0.11190 0.37130 -0.26900
O 	O 	0.92660 0.90770 0.60830 -0.43600
H 	H 	0.94610 0.85390 0.63380 0.26700
O 	O 	0.02040 0.02560 0.74740 -0.42700
O 	O 	0.96590 0.38940 0.76480 -0.28700
O 	O 	0.88870 0.43860 0.63100 -0.43300
H 	H 	0.88960 0.48970 0.67360 0.28500
