data_crystal

_cell_length_a 10.27260
_cell_length_b 13.33460
_cell_length_c 15.27450
_cell_angle_alpha 100.55400
_cell_angle_beta  107.52400
_cell_angle_gamma 99.34100

_symmetry_space_group_name_	'P 1'
_symmetry_space_group_name_H-M	'P 1'

loop_
_symmetry_equiv_pos_as_xyz
  x,y,z

loop_
_atom_site_label
_atom_site_type_symbol
_atom_site_fract_x
_atom_site_fract_y
_atom_site_fract_z
_atom_site_charge
Ba	Ba	0.52788 0.82020 0.49016 1.98700
Ba	Ba	0.08845 0.92503 0.39152 1.90700
C 	C 	0.78270 0.61790 0.92300 0.16800
C 	C 	0.15330 0.75990 0.98000 0.03100
C 	C 	0.75960 0.69570 0.87590 -0.09500
H 	H 	0.76820 0.76370 0.90900 0.10600
C 	C 	0.09480 0.73630 0.88120 -0.10000
C 	C 	0.72340 0.67060 0.77800 -0.09500
C 	C 	0.77320 0.51760 0.87560 -0.07600
H 	H 	0.79300 0.46700 0.90900 0.11400
C 	C 	0.13670 0.93960 0.98640 -0.08900
H 	H 	0.15090 0.00750 0.02200 0.11300
C 	C 	0.73400 0.49200 0.77780 -0.11400
C 	C 	0.05690 0.81460 0.83650 0.03100
H 	H 	0.01840 0.79900 0.77080 0.02600
C 	C 	0.07610 0.91530 0.88900 -0.08300
C 	C 	0.17570 0.86250 0.03020 0.13300
C 	C 	0.91460 0.70250 0.21030 0.37100
C 	C 	0.70960 0.56930 0.72960 0.04500
H 	H 	0.68370 0.55270 0.66390 0.01500
C 	C 	0.45880 0.95060 0.25410 -0.18900
C 	C 	0.07480 0.62970 0.82070 0.36300
C 	C 	0.57620 0.63300 0.00390 -0.20100
H 	H 	0.54790 0.60840 0.93850 0.11100
C 	C 	0.36960 0.95020 0.31670 0.41700
C 	C 	0.71560 0.65510 0.05810 0.22500
C 	C 	0.71550 0.38280 0.72390 0.53400
C 	C 	0.66210 0.70660 0.20000 -0.04300
C 	C 	0.76100 0.68980 0.15660 -0.14000
C 	C 	0.70380 0.75130 0.30520 0.41400
C 	C 	0.38930 0.92080 0.15680 0.22900
C 	C 	0.69930 0.75090 0.72250 0.42400
C 	C 	0.46210 0.92240 0.09380 -0.20100
H 	H 	0.41410 0.90290 0.02890 0.10900
C 	C 	0.03690 0.99730 0.83730 0.43200
C 	C 	0.69080 0.01030 0.39270 0.33700
C 	C 	0.60580 0.98040 0.28880 -0.04900
C 	C 	0.67730 0.98070 0.22480 -0.07000
H 	H 	0.77480 0.99980 0.24720 0.04000
C 	C 	0.52110 0.68480 0.14430 -0.07900
H 	H 	0.45460 0.69550 0.17280 0.08500
C 	C 	0.60610 0.95320 0.12870 0.05000
H 	H 	0.65580 0.95540 0.08700 0.02400
C 	C 	0.47860 0.64760 0.04720 0.06100
H 	H 	0.38390 0.63240 0.01100 0.03200
O 	O 	0.07290 0.09190 0.89100 -0.56900
H 	H 	0.05100 0.12800 0.85800 0.37000
O 	O 	0.97820 0.97400 0.75190 -0.45200
O 	O 	0.82670 0.85950 0.53100 -0.91900
H 	H 	0.84360 0.84170 0.47990 0.30600
H 	H 	0.86880 0.82260 0.56490 0.32100
O 	O 	0.66920 0.73120 0.63730 -0.48000
O 	O 	0.71290 0.84420 0.77490 -0.52100
H 	H 	0.68700 0.88000 0.73900 0.30400
O 	O 	0.75100 0.31990 0.77870 -0.76200
H 	H 	0.73800 0.26900 0.75100 0.49900
O 	O 	0.67040 0.35670 0.63790 -0.52700
O 	O 	0.82130 0.64140 0.02140 -0.23400
O 	O 	0.83110 0.79190 0.35110 -0.50300
O 	O 	0.60870 0.74680 0.34050 -0.46500
O 	O 	0.95070 0.62840 0.24270 -0.30400
O 	O 	0.99780 0.78640 0.21710 -0.42300
O 	O 	0.24450 0.88940 0.12827 -0.24500
O 	O 	0.11300 0.56120 0.86940 -0.40200
H 	H 	0.09300 0.50100 0.82600 0.26600
O 	O 	0.02990 0.60910 0.73530 -0.29300
O 	O 	0.33240 0.86790 0.34070 -0.57400
O 	O 	0.62570 0.01390 0.45200 -0.61600
O 	O 	0.82170 0.02790 0.41570 -0.55100
O 	O 	0.32870 0.03190 0.33910 -0.54300
Ba	Ba	0.47212 0.17980 0.50984 1.98800
Ba	Ba	0.91155 0.07497 0.60848 1.90800
C 	C 	0.21730 0.38210 0.07700 0.16900
C 	C 	0.84670 0.24010 0.02000 0.03200
C 	C 	0.24040 0.30430 0.12410 -0.09400
H 	H 	0.23180 0.23630 0.09100 0.10700
C 	C 	0.90520 0.26370 0.11880 -0.09900
C 	C 	0.27660 0.32940 0.22200 -0.09400
C 	C 	0.22680 0.48240 0.12440 -0.07500
H 	H 	0.20700 0.53300 0.09100 0.11500
C 	C 	0.86330 0.06040 0.01360 -0.08800
H 	H 	0.84910 0.99250 0.97800 0.11400
C 	C 	0.26600 0.50800 0.22220 -0.11300
C 	C 	0.94310 0.18540 0.16350 0.03200
H 	H 	0.98160 0.20100 0.22920 0.02600
C 	C 	0.92390 0.08470 0.11100 -0.08300
C 	C 	0.82430 0.13750 0.96980 0.13300
C 	C 	0.08540 0.29750 0.78970 0.37100
C 	C 	0.29040 0.43070 0.27040 0.04500
H 	H 	0.31630 0.44730 0.33610 0.01500
C 	C 	0.54120 0.04940 0.74590 -0.18900
C 	C 	0.92520 0.37030 0.17930 0.36300
C 	C 	0.42380 0.36700 0.99610 -0.20100
H 	H 	0.45210 0.39160 0.06150 0.11100
C 	C 	0.63040 0.04980 0.68330 0.41700
C 	C 	0.28440 0.34490 0.94190 0.22500
C 	C 	0.28450 0.61720 0.27610 0.53400
C 	C 	0.33790 0.29340 0.80000 -0.04300
C 	C 	0.23900 0.31020 0.84340 -0.14000
C 	C 	0.29620 0.24870 0.69480 0.41400
C 	C 	0.61070 0.07920 0.84320 0.22900
C 	C 	0.30070 0.24910 0.27750 0.42400
C 	C 	0.53790 0.07760 0.90620 -0.20100
H 	H 	0.58590 0.09710 0.97110 0.10900
C 	C 	0.96310 0.00270 0.16270 0.43200
C 	C 	0.30920 0.98970 0.60730 0.33700
C 	C 	0.39420 0.01960 0.71120 -0.04900
C 	C 	0.32270 0.01930 0.77520 -0.07000
H 	H 	0.22520 0.00020 0.75280 0.04000
C 	C 	0.47890 0.31520 0.85570 -0.07900
H 	H 	0.54540 0.30450 0.82720 0.08500
C 	C 	0.39390 0.04680 0.87130 0.05000
H 	H 	0.34420 0.04460 0.91300 0.02400
C 	C 	0.52140 0.35240 0.95280 0.06100
H 	H 	0.61610 0.36760 0.98900 0.03200
O 	O 	0.92710 0.90810 0.10900 -0.56900
H 	H 	0.94900 0.87200 0.14200 0.37000
O 	O 	0.02180 0.02600 0.24810 -0.45200
O 	O 	0.17330 0.14050 0.46900 -0.91900
H 	H 	0.15640 0.15830 0.52010 0.30600
H 	H 	0.13120 0.17740 0.43510 0.32100
O 	O 	0.33080 0.26880 0.36270 -0.48000
O 	O 	0.28710 0.15580 0.22510 -0.52100
H 	H 	0.31300 0.12000 0.26100 0.30400
O 	O 	0.24900 0.68010 0.22130 -0.76200
H 	H 	0.26200 0.73100 0.24900 0.49900
O 	O 	0.32960 0.64330 0.36210 -0.52700
O 	O 	0.17870 0.35860 0.97860 -0.23400
O 	O 	0.16890 0.20810 0.64890 -0.50300
O 	O 	0.39130 0.25320 0.65950 -0.46500
O 	O 	0.04930 0.37160 0.75730 -0.30400
O 	O 	0.00220 0.21360 0.78290 -0.42300
O 	O 	0.75550 0.11060 0.87173 -0.24500
O 	O 	0.88700 0.43880 0.13060 -0.40200
H 	H 	0.90700 0.49900 0.17400 0.26600
O 	O 	0.97010 0.39090 0.26470 -0.29300
O 	O 	0.66760 0.13210 0.65930 -0.57400
O 	O 	0.37430 0.98610 0.54800 -0.61600
O 	O 	0.17830 0.97210 0.58430 -0.55100
O 	O 	0.67130 0.96810 0.66090 -0.54300
