data_crystal

_cell_length_a 12.90210
_cell_length_b 12.90210
_cell_length_c 62.40700
_cell_angle_alpha 90.00000
_cell_angle_beta  90.00000
_cell_angle_gamma 120.00000

_symmetry_space_group_name_	'P 1'
_symmetry_space_group_name_H-M	'P 1'

loop_
_symmetry_equiv_pos_as_xyz
  x,y,z

loop_
_atom_site_label
_atom_site_type_symbol
_atom_site_fract_x
_atom_site_fract_y
_atom_site_fract_z
_atom_site_charge
N 	N 	0.19733 0.53141 0.02214 -0.25600
C 	C 	0.10400 0.47002 0.02958 0.07300
C 	C 	0.89121 0.37172 0.02600 0.12500
C 	C 	0.99099 0.39867 0.03858 -0.09800
C 	C 	0.97604 0.36629 0.06140 0.09300
C 	C 	0.06059 0.34937 0.07261 -0.10200
H 	H 	0.13010 0.36010 0.06540 0.05400
C 	C 	0.87473 0.34969 0.07269 -0.06300
H 	H 	0.81630 0.36120 0.06550 0.04800
N 	N 	0.80717 0.34828 0.01595 -0.26100
N 	N 	0.86400 0.86474 0.35547 -0.24100
C 	C 	0.77067 0.80335 0.36291 0.13900
C 	C 	0.55788 0.70505 0.35933 0.13300
C 	C 	0.65766 0.73200 0.37191 -0.14100
C 	C 	0.64271 0.69962 0.39473 0.07100
C 	C 	0.72726 0.68270 0.40594 -0.06900
H 	H 	0.79677 0.69343 0.39873 0.06400
C 	C 	0.54140 0.68302 0.40602 -0.06900
H 	H 	0.48297 0.69453 0.39883 0.05200
N 	N 	0.47384 0.68161 0.34928 -0.26400
N 	N 	0.53066 0.19808 0.68881 -0.26900
C 	C 	0.43733 0.13669 0.69625 0.13400
C 	C 	0.22454 0.03839 0.69267 0.12600
C 	C 	0.32432 0.06534 0.70525 -0.18100
C 	C 	0.30937 0.03296 0.72807 0.14900
C 	C 	0.39392 0.01604 0.73928 -0.21500
H 	H 	0.46343 0.02677 0.73207 0.09100
C 	C 	0.20806 0.01636 0.73936 -0.21800
H 	H 	0.14963 0.02787 0.73217 0.07900
N 	N 	0.14050 0.01495 0.68262 -0.28600
N 	N 	0.46859 0.66592 0.02214 -0.26200
C 	C 	0.52998 0.63398 0.02958 0.13200
C 	C 	0.62828 0.51949 0.02600 0.13400
C 	C 	0.60133 0.59232 0.03858 -0.14000
C 	C 	0.63371 0.60975 0.06140 0.06900
C 	C 	0.65063 0.71122 0.07261 -0.06600
H 	H 	0.63990 0.77000 0.06540 0.06200
C 	C 	0.65031 0.52504 0.07269 -0.06700
H 	H 	0.63880 0.45510 0.06550 0.05000
N 	N 	0.65172 0.45889 0.01595 -0.26300
N 	N 	0.13526 0.99925 0.35547 -0.25400
C 	C 	0.19665 0.96731 0.36291 0.14300
C 	C 	0.29495 0.85282 0.35933 0.14000
C 	C 	0.26800 0.92565 0.37191 -0.15500
C 	C 	0.30038 0.94308 0.39473 0.12100
C 	C 	0.31730 0.04455 0.40594 -0.12800
H 	H 	0.30657 0.10333 0.39873 0.06000
C 	C 	0.31698 0.85837 0.40602 -0.08600
H 	H 	0.30547 0.78843 0.39883 0.05600
N 	N 	0.31839 0.79222 0.34928 -0.26500
N 	N 	0.80192 0.33259 0.68881 -0.25800
C 	C 	0.86331 0.30065 0.69625 0.12000
C 	C 	0.96161 0.18616 0.69267 0.12300
C 	C 	0.93466 0.25899 0.70525 -0.10400
C 	C 	0.96704 0.27642 0.72807 -0.02100
C 	C 	0.98396 0.37789 0.73928 0.07400
H 	H 	0.97323 0.43667 0.73207 0.02000
C 	C 	0.98364 0.19171 0.73936 0.07600
H 	H 	0.97213 0.12177 0.73217 0.00500
N 	N 	0.98505 0.12556 0.68262 -0.24900
N 	N 	0.33408 0.80267 0.02214 -0.27400
C 	C 	0.36602 0.89600 0.02958 0.17900
C 	C 	0.48051 0.10879 0.02600 0.13100
C 	C 	0.40768 0.00901 0.03858 -0.18900
C 	C 	0.39025 0.02396 0.06140 0.03900
C 	C 	0.28878 0.93941 0.07261 -0.04300
H 	H 	0.23000 0.86990 0.06540 0.04800
C 	C 	0.47496 0.12527 0.07269 -0.07900
H 	H 	0.54490 0.18370 0.06550 0.05200
N 	N 	0.54111 0.19283 0.01595 -0.27000
N 	N 	0.00075 0.13600 0.35547 -0.28100
C 	C 	0.03269 0.22933 0.36291 0.10300
C 	C 	0.14718 0.44212 0.35933 0.11700
C 	C 	0.07435 0.34234 0.37191 -0.12900
C 	C 	0.05692 0.35729 0.39473 0.00900
C 	C 	0.95545 0.27274 0.40594 -0.01500
H 	H 	0.89667 0.20323 0.39873 0.04100
C 	C 	0.14163 0.45860 0.40602 -0.05400
H 	H 	0.21157 0.51703 0.39883 0.04400
N 	N 	0.20778 0.52616 0.34928 -0.26400
N 	N 	0.66741 0.46934 0.68881 -0.26300
C 	C 	0.69935 0.56267 0.69625 0.13300
C 	C 	0.81384 0.77546 0.69267 0.14100
C 	C 	0.74101 0.67568 0.70525 -0.14000
C 	C 	0.72358 0.69063 0.72807 0.07200
C 	C 	0.62211 0.60608 0.73928 -0.06900
H 	H 	0.56333 0.53657 0.73207 0.05400
C 	C 	0.80829 0.79194 0.73936 -0.06500
H 	H 	0.87823 0.85037 0.73217 0.06800
N 	N 	0.87444 0.85950 0.68262 -0.24100
N 	N 	0.53141 0.19733 0.47786 -0.25500
C 	C 	0.47002 0.10400 0.47042 0.07400
C 	C 	0.37172 0.89121 0.47400 0.12600
C 	C 	0.39867 0.99099 0.46142 -0.09700
C 	C 	0.36629 0.97604 0.43860 0.09400
C 	C 	0.34937 0.06059 0.42739 -0.10100
H 	H 	0.36010 0.13010 0.43460 0.05500
C 	C 	0.34969 0.87473 0.42731 -0.06200
H 	H 	0.36120 0.81630 0.43450 0.04900
N 	N 	0.34828 0.80717 0.48405 -0.26000
N 	N 	0.19808 0.53066 0.81119 -0.26900
C 	C 	0.13669 0.43733 0.80375 0.13400
C 	C 	0.03839 0.22454 0.80733 0.12600
C 	C 	0.06534 0.32432 0.79475 -0.18100
C 	C 	0.03296 0.30937 0.77193 0.14900
C 	C 	0.01604 0.39392 0.76072 -0.21500
H 	H 	0.02677 0.46343 0.76793 0.09100
C 	C 	0.01636 0.20806 0.76064 -0.21800
H 	H 	0.02787 0.14963 0.76783 0.07900
N 	N 	0.01495 0.14050 0.81738 -0.28600
N 	N 	0.86474 0.86400 0.14453 -0.24000
C 	C 	0.80335 0.77067 0.13709 0.14000
C 	C 	0.70505 0.55788 0.14067 0.13400
C 	C 	0.73200 0.65766 0.12809 -0.14000
C 	C 	0.69962 0.64271 0.10527 0.07200
C 	C 	0.68270 0.72726 0.09406 -0.06800
H 	H 	0.69343 0.79677 0.10127 0.06400
C 	C 	0.68302 0.54140 0.09398 -0.06900
H 	H 	0.69453 0.48297 0.10117 0.05200
N 	N 	0.68161 0.47384 0.15072 -0.26400
N 	N 	0.66592 0.46859 0.47786 -0.26200
C 	C 	0.63398 0.52998 0.47042 0.13200
C 	C 	0.51949 0.62828 0.47400 0.13400
C 	C 	0.59232 0.60133 0.46142 -0.14000
C 	C 	0.60975 0.63371 0.43860 0.06900
C 	C 	0.71122 0.65063 0.42739 -0.06600
H 	H 	0.77000 0.63990 0.43460 0.06200
C 	C 	0.52504 0.65031 0.42731 -0.06700
H 	H 	0.45510 0.63880 0.43450 0.05000
N 	N 	0.45889 0.65172 0.48405 -0.26300
N 	N 	0.33259 0.80192 0.81119 -0.25800
C 	C 	0.30065 0.86331 0.80375 0.12000
C 	C 	0.18616 0.96161 0.80733 0.12300
C 	C 	0.25899 0.93466 0.79475 -0.10400
C 	C 	0.27642 0.96704 0.77193 -0.02100
C 	C 	0.37789 0.98396 0.76072 0.07400
H 	H 	0.43667 0.97323 0.76793 0.02000
C 	C 	0.19171 0.98364 0.76064 0.07600
H 	H 	0.12177 0.97213 0.76783 0.00500
N 	N 	0.12556 0.98505 0.81738 -0.24900
N 	N 	0.99925 0.13526 0.14453 -0.25400
C 	C 	0.96731 0.19665 0.13709 0.14300
C 	C 	0.85282 0.29495 0.14067 0.14000
C 	C 	0.92565 0.26800 0.12809 -0.15500
C 	C 	0.94308 0.30038 0.10527 0.12100
C 	C 	0.04455 0.31730 0.09406 -0.12800
H 	H 	0.10333 0.30657 0.10127 0.06000
C 	C 	0.85837 0.31698 0.09398 -0.08600
H 	H 	0.78843 0.30547 0.10117 0.05600
N 	N 	0.79222 0.31839 0.15072 -0.26500
N 	N 	0.80267 0.33408 0.47786 -0.27400
C 	C 	0.89600 0.36602 0.47042 0.17900
C 	C 	0.10879 0.48051 0.47400 0.13100
C 	C 	0.00901 0.40768 0.46142 -0.18900
C 	C 	0.02396 0.39025 0.43860 0.03900
C 	C 	0.93941 0.28878 0.42739 -0.04300
H 	H 	0.86990 0.23000 0.43460 0.04800
C 	C 	0.12527 0.47496 0.42731 -0.07900
H 	H 	0.18370 0.54490 0.43450 0.05200
N 	N 	0.19283 0.54111 0.48405 -0.27000
N 	N 	0.46934 0.66741 0.81119 -0.26300
C 	C 	0.56267 0.69935 0.80375 0.13300
C 	C 	0.77546 0.81384 0.80733 0.14100
C 	C 	0.67568 0.74101 0.79475 -0.14000
C 	C 	0.69063 0.72358 0.77193 0.07200
C 	C 	0.60608 0.62211 0.76072 -0.06900
H 	H 	0.53657 0.56333 0.76793 0.05400
C 	C 	0.79194 0.80829 0.76064 -0.06500
H 	H 	0.85037 0.87823 0.76783 0.06800
N 	N 	0.85950 0.87444 0.81738 -0.24100
N 	N 	0.13600 0.00075 0.14453 -0.28100
C 	C 	0.22933 0.03269 0.13709 0.10300
C 	C 	0.44212 0.14718 0.14067 0.11700
C 	C 	0.34234 0.07435 0.12809 -0.12900
C 	C 	0.35729 0.05692 0.10527 0.00900
C 	C 	0.27274 0.95545 0.09406 -0.01500
H 	H 	0.20323 0.89667 0.10127 0.04100
C 	C 	0.45860 0.14163 0.09398 -0.05400
H 	H 	0.51703 0.21157 0.10117 0.04400
N 	N 	0.52616 0.20778 0.15072 -0.26400
N 	N 	0.80267 0.46859 0.97786 -0.27200
C 	C 	0.89600 0.52998 0.97042 0.18100
C 	C 	0.10879 0.62828 0.97400 0.13400
C 	C 	0.00901 0.60133 0.96142 -0.18600
C 	C 	0.02396 0.63371 0.93860 0.04200
C 	C 	0.93941 0.65063 0.92739 -0.04000
H 	H 	0.86990 0.63990 0.93460 0.05500
C 	C 	0.12527 0.65031 0.92731 -0.07600
H 	H 	0.18370 0.63880 0.93450 0.05200
N 	N 	0.19283 0.65172 0.98405 -0.26800
N 	N 	0.46934 0.80192 0.31119 -0.25800
C 	C 	0.56267 0.86331 0.30375 0.12500
C 	C 	0.77546 0.96161 0.30733 0.13400
C 	C 	0.67568 0.93466 0.29475 -0.10400
C 	C 	0.69063 0.96704 0.27193 -0.01100
C 	C 	0.60608 0.98396 0.26072 0.06800
H 	H 	0.53657 0.97323 0.26793 0.02100
C 	C 	0.79194 0.98364 0.26064 0.07000
H 	H 	0.85037 0.97213 0.26783 0.02400
N 	N 	0.85950 0.98505 0.31738 -0.23300
N 	N 	0.13600 0.13526 0.64453 -0.27800
C 	C 	0.22933 0.19665 0.63709 0.11600
C 	C 	0.44212 0.29495 0.64067 0.12600
C 	C 	0.34234 0.26800 0.62809 -0.14300
C 	C 	0.35729 0.30038 0.60527 0.06100
C 	C 	0.27274 0.31730 0.59406 -0.07100
H 	H 	0.20323 0.30657 0.60127 0.04600
C 	C 	0.45860 0.31698 0.59398 -0.07000
H 	H 	0.51703 0.30547 0.60117 0.04900
N 	N 	0.52616 0.31839 0.65072 -0.26400
N 	N 	0.53141 0.33408 0.97786 -0.26600
C 	C 	0.47002 0.36602 0.97042 0.12500
C 	C 	0.37172 0.48051 0.97400 0.12700
C 	C 	0.39867 0.40768 0.96142 -0.14400
C 	C 	0.36629 0.39025 0.93860 0.06500
C 	C 	0.34937 0.28878 0.92739 -0.07400
H 	H 	0.36010 0.23000 0.93460 0.04800
C 	C 	0.34969 0.47496 0.92731 -0.07200
H 	H 	0.36120 0.54490 0.93450 0.05100
N 	N 	0.34828 0.54111 0.98405 -0.26600
N 	N 	0.19808 0.66741 0.31119 -0.26900
C 	C 	0.13669 0.69935 0.30375 0.13700
C 	C 	0.03839 0.81384 0.30733 0.13700
C 	C 	0.06534 0.74101 0.29475 -0.17700
C 	C 	0.03296 0.72358 0.27193 0.15000
C 	C 	0.01604 0.62211 0.26072 -0.20700
H 	H 	0.02677 0.56333 0.26793 0.08800
C 	C 	0.01636 0.80829 0.26064 -0.20500
H 	H 	0.02787 0.87823 0.26783 0.09500
N 	N 	0.01495 0.87444 0.31738 -0.26600
N 	N 	0.86474 0.00075 0.64453 -0.26100
C 	C 	0.80335 0.03269 0.63709 0.11600
C 	C 	0.70505 0.14718 0.64067 0.12200
C 	C 	0.73200 0.07435 0.62809 -0.12900
C 	C 	0.69962 0.05692 0.60527 0.01800
C 	C 	0.68270 0.95545 0.59406 -0.01700
H 	H 	0.69343 0.89667 0.60127 0.05100
C 	C 	0.68302 0.14163 0.59398 -0.05500
H 	H 	0.69453 0.21157 0.60117 0.04600
N 	N 	0.68161 0.20778 0.65072 -0.26400
N 	N 	0.66592 0.19733 0.97786 -0.25300
C 	C 	0.63398 0.10400 0.97042 0.07900
C 	C 	0.51949 0.89121 0.97400 0.13000
C 	C 	0.59232 0.99099 0.96142 -0.09600
C 	C 	0.60975 0.97604 0.93860 0.09400
C 	C 	0.71122 0.06059 0.92739 -0.09600
H 	H 	0.77000 0.13010 0.93460 0.06300
C 	C 	0.52504 0.87473 0.92731 -0.06000
H 	H 	0.45510 0.81630 0.93450 0.04900
N 	N 	0.45889 0.80717 0.98405 -0.25800
N 	N 	0.33259 0.53066 0.31119 -0.26400
C 	C 	0.30065 0.43733 0.30375 0.12400
C 	C 	0.18616 0.22454 0.30733 0.11800
C 	C 	0.25899 0.32432 0.29475 -0.14300
C 	C 	0.27642 0.30937 0.27193 0.06100
C 	C 	0.37789 0.39392 0.26072 -0.07100
H 	H 	0.43667 0.46343 0.26793 0.05600
C 	C 	0.19171 0.20806 0.26064 -0.07400
H 	H 	0.12177 0.14963 0.26783 0.03300
N 	N 	0.12556 0.14050 0.31738 -0.27800
N 	N 	0.99925 0.86400 0.64453 -0.23700
C 	C 	0.96731 0.77067 0.63709 0.15300
C 	C 	0.85282 0.55788 0.64067 0.14300
C 	C 	0.92565 0.65766 0.62809 -0.15300
C 	C 	0.94308 0.64271 0.60527 0.12300
C 	C 	0.04455 0.72726 0.59406 -0.12300
H 	H 	0.10333 0.79677 0.60127 0.06900
C 	C 	0.85837 0.54140 0.59398 -0.08400
H 	H 	0.78843 0.48297 0.60117 0.05700
N 	N 	0.79222 0.47384 0.65072 -0.26400
N 	N 	0.46859 0.80267 0.52214 -0.27200
C 	C 	0.52998 0.89600 0.52958 0.18100
C 	C 	0.62828 0.10879 0.52600 0.13400
C 	C 	0.60133 0.00901 0.53858 -0.18600
C 	C 	0.63371 0.02396 0.56140 0.04200
C 	C 	0.65063 0.93941 0.57261 -0.04000
H 	H 	0.63990 0.86990 0.56540 0.05500
C 	C 	0.65031 0.12527 0.57269 -0.07600
H 	H 	0.63880 0.18370 0.56550 0.05200
N 	N 	0.65172 0.19283 0.51595 -0.26800
N 	N 	0.13526 0.13600 0.85547 -0.27800
C 	C 	0.19665 0.22933 0.86291 0.11600
C 	C 	0.29495 0.44212 0.85933 0.12600
C 	C 	0.26800 0.34234 0.87191 -0.14300
C 	C 	0.30038 0.35729 0.89473 0.06100
C 	C 	0.31730 0.27274 0.90594 -0.07100
H 	H 	0.30657 0.20323 0.89873 0.04600
C 	C 	0.31698 0.45860 0.90602 -0.07000
H 	H 	0.30547 0.51703 0.89883 0.04900
N 	N 	0.31839 0.52616 0.84928 -0.26400
N 	N 	0.80192 0.46934 0.18881 -0.25800
C 	C 	0.86331 0.56267 0.19625 0.12500
C 	C 	0.96161 0.77546 0.19267 0.13400
C 	C 	0.93466 0.67568 0.20525 -0.10400
C 	C 	0.96704 0.69063 0.22807 -0.01100
C 	C 	0.98396 0.60608 0.23928 0.06800
H 	H 	0.97323 0.53657 0.23207 0.02100
C 	C 	0.98364 0.79194 0.23936 0.07000
H 	H 	0.97213 0.85037 0.23217 0.02400
N 	N 	0.98505 0.85950 0.18262 -0.23300
N 	N 	0.33408 0.53141 0.52214 -0.26600
C 	C 	0.36602 0.47002 0.52958 0.12500
C 	C 	0.48051 0.37172 0.52600 0.12700
C 	C 	0.40768 0.39867 0.53858 -0.14400
C 	C 	0.39025 0.36629 0.56140 0.06500
C 	C 	0.28878 0.34937 0.57261 -0.07400
H 	H 	0.23000 0.36010 0.56540 0.04800
C 	C 	0.47496 0.34969 0.57269 -0.07200
H 	H 	0.54490 0.36120 0.56550 0.05100
N 	N 	0.54111 0.34828 0.51595 -0.26600
N 	N 	0.00075 0.86474 0.85547 -0.26100
C 	C 	0.03269 0.80335 0.86291 0.11600
C 	C 	0.14718 0.70505 0.85933 0.12200
C 	C 	0.07435 0.73200 0.87191 -0.12900
C 	C 	0.05692 0.69962 0.89473 0.01800
C 	C 	0.95545 0.68270 0.90594 -0.01700
H 	H 	0.89667 0.69343 0.89873 0.05100
C 	C 	0.14163 0.68302 0.90602 -0.05500
H 	H 	0.21157 0.69453 0.89883 0.04600
N 	N 	0.20778 0.68161 0.84928 -0.26400
N 	N 	0.66741 0.19808 0.18881 -0.26900
C 	C 	0.69935 0.13669 0.19625 0.13700
C 	C 	0.81384 0.03839 0.19267 0.13700
C 	C 	0.74101 0.06534 0.20525 -0.17700
C 	C 	0.72358 0.03296 0.22807 0.15000
C 	C 	0.62211 0.01604 0.23928 -0.20700
H 	H 	0.56333 0.02677 0.23207 0.08800
C 	C 	0.80829 0.01636 0.23936 -0.20500
H 	H 	0.87823 0.02787 0.23217 0.09500
N 	N 	0.87444 0.01495 0.18262 -0.26600
N 	N 	0.19733 0.66592 0.52214 -0.25300
C 	C 	0.10400 0.63398 0.52958 0.07900
C 	C 	0.89121 0.51949 0.52600 0.13000
C 	C 	0.99099 0.59232 0.53858 -0.09600
C 	C 	0.97604 0.60975 0.56140 0.09400
C 	C 	0.06059 0.71122 0.57261 -0.09600
H 	H 	0.13010 0.77000 0.56540 0.06300
C 	C 	0.87473 0.52504 0.57269 -0.06000
H 	H 	0.81630 0.45510 0.56550 0.04900
N 	N 	0.80717 0.45889 0.51595 -0.25800
N 	N 	0.86400 0.99925 0.85547 -0.23700
C 	C 	0.77067 0.96731 0.86291 0.15300
C 	C 	0.55788 0.85282 0.85933 0.14300
C 	C 	0.65766 0.92565 0.87191 -0.15300
C 	C 	0.64271 0.94308 0.89473 0.12300
C 	C 	0.72726 0.04455 0.90594 -0.12300
H 	H 	0.79677 0.10333 0.89873 0.06900
C 	C 	0.54140 0.85837 0.90602 -0.08400
H 	H 	0.48297 0.78843 0.89883 0.05700
N 	N 	0.47384 0.79222 0.84928 -0.26400
N 	N 	0.53066 0.33259 0.18881 -0.26400
C 	C 	0.43733 0.30065 0.19625 0.12400
C 	C 	0.22454 0.18616 0.19267 0.11800
C 	C 	0.32432 0.25899 0.20525 -0.14300
C 	C 	0.30937 0.27642 0.22807 0.06100
C 	C 	0.39392 0.37789 0.23928 -0.07100
H 	H 	0.46343 0.43667 0.23207 0.05600
C 	C 	0.20806 0.19171 0.23936 -0.07400
H 	H 	0.14963 0.12177 0.23217 0.03300
N 	N 	0.14050 0.12556 0.18262 -0.27800
Co	Co	0.33333 0.66667 0.00347 1.13600
Co	Co	-0.00000 0.00000 0.33680 1.09800
Co	Co	0.66667 0.33333 0.67014 1.13600
Co	Co	0.66667 0.33333 0.49653 1.13600
Co	Co	0.33333 0.66667 0.82986 1.13600
Co	Co	-0.00000 0.00000 0.16320 1.09800
Co	Co	0.66667 0.33333 0.99653 1.13600
Co	Co	0.33333 0.66667 0.32986 1.13600
Co	Co	-0.00000 0.00000 0.66320 1.09800
Co	Co	0.33333 0.66667 0.50347 1.13600
Co	Co	-0.00000 0.00000 0.83680 1.09800
Co	Co	0.66667 0.33333 0.17014 1.13600
