data_crystal

_cell_length_a 13.01570
_cell_length_b 13.01570
_cell_length_c 62.61500
_cell_angle_alpha 90.00000
_cell_angle_beta  90.00000
_cell_angle_gamma 120.00000

_symmetry_space_group_name_	'P 1'
_symmetry_space_group_name_H-M	'P 1'

loop_
_symmetry_equiv_pos_as_xyz
  x,y,z

loop_
_atom_site_label
_atom_site_type_symbol
_atom_site_fract_x
_atom_site_fract_y
_atom_site_fract_z
_atom_site_charge
N 	N 	0.45971 0.65006 0.98407 -0.25800
C 	C 	0.59225 0.60124 0.96128 -0.13700
C 	C 	0.71019 0.65047 0.92735 -0.06600
H 	H 	0.76830 0.63960 0.93450 0.06100
C 	C 	0.60974 0.63348 0.93851 0.06800
C 	C 	0.52012 0.62732 0.97393 0.12900
C 	C 	0.52591 0.65029 0.92738 -0.06800
H 	H 	0.45680 0.63920 0.93460 0.05000
N 	N 	0.66717 0.47127 0.97780 -0.25800
C 	C 	0.63491 0.53148 0.97027 0.12700
N 	N 	0.12638 0.98339 0.31740 -0.24800
C 	C 	0.25892 0.93457 0.29461 -0.10400
C 	C 	0.37686 0.98380 0.26068 0.06500
H 	H 	0.43497 0.97293 0.26783 0.02200
C 	C 	0.27641 0.96681 0.27184 -0.01600
C 	C 	0.18679 0.96065 0.30726 0.11900
C 	C 	0.19258 0.98362 0.26071 0.06300
H 	H 	0.12347 0.97253 0.26793 0.00900
N 	N 	0.33384 0.80460 0.31113 -0.25500
C 	C 	0.30158 0.86481 0.30360 0.11700
N 	N 	0.79304 0.31673 0.65074 -0.26300
C 	C 	0.92558 0.26791 0.62795 -0.17400
C 	C 	0.04352 0.31714 0.59402 -0.13000
H 	H 	0.10163 0.30627 0.60117 0.06100
C 	C 	0.94307 0.30015 0.60518 0.12600
C 	C 	0.85345 0.29399 0.64060 0.14200
C 	C 	0.85924 0.31696 0.59405 -0.09100
H 	H 	0.79013 0.30587 0.60127 0.05700
N 	N 	0.00050 0.13794 0.64447 -0.30800
C 	C 	0.96824 0.19815 0.63694 0.18400
N 	N 	0.34994 0.80965 0.98407 -0.25600
C 	C 	0.39876 0.99101 0.96128 -0.09600
C 	C 	0.34953 0.05972 0.92735 -0.09500
H 	H 	0.36040 0.12870 0.93450 0.05300
C 	C 	0.36652 0.97626 0.93851 0.08800
C 	C 	0.37268 0.89280 0.97393 0.12200
C 	C 	0.34971 0.87562 0.92738 -0.05900
H 	H 	0.36080 0.81760 0.93460 0.04700
N 	N 	0.52873 0.19590 0.97780 -0.25200
C 	C 	0.46852 0.10343 0.97027 0.07400
N 	N 	0.01661 0.14298 0.31740 -0.27800
C 	C 	0.06543 0.32434 0.29461 -0.17500
C 	C 	0.01620 0.39305 0.26068 -0.20600
H 	H 	0.02707 0.46203 0.26783 0.08900
C 	C 	0.03319 0.30959 0.27184 0.14200
C 	C 	0.03935 0.22613 0.30726 0.12200
C 	C 	0.01638 0.20895 0.26071 -0.20600
H 	H 	0.02747 0.15093 0.26793 0.07600
N 	N 	0.19540 0.52923 0.31113 -0.26500
C 	C 	0.13519 0.43676 0.30360 0.12900
N 	N 	0.68327 0.47632 0.65074 -0.25900
C 	C 	0.73209 0.65768 0.62795 -0.13800
C 	C 	0.68286 0.72639 0.59402 -0.06900
H 	H 	0.69373 0.79537 0.60117 0.06300
C 	C 	0.69985 0.64293 0.60518 0.07100
C 	C 	0.70601 0.55947 0.64060 0.13000
C 	C 	0.68304 0.54229 0.59405 -0.06900
H 	H 	0.69413 0.48427 0.60127 0.05200
N 	N 	0.86206 0.86257 0.64447 -0.23800
C 	C 	0.80185 0.77010 0.63694 0.13400
N 	N 	0.19035 0.54029 0.98407 -0.26600
C 	C 	0.00899 0.40775 0.96128 -0.18500
C 	C 	0.94028 0.28981 0.92735 -0.04900
H 	H 	0.87130 0.23170 0.93450 0.04900
C 	C 	0.02374 0.39026 0.93851 0.04200
C 	C 	0.10720 0.47988 0.97393 0.12600
C 	C 	0.12438 0.47409 0.92738 -0.08300
H 	H 	0.18240 0.54320 0.93460 0.05300
N 	N 	0.80410 0.33283 0.97780 -0.27000
C 	C 	0.89657 0.36509 0.97027 0.17300
N 	N 	0.85702 0.87362 0.31740 -0.23800
C 	C 	0.67566 0.74108 0.29461 -0.13700
C 	C 	0.60695 0.62314 0.26068 -0.06900
H 	H 	0.53797 0.56503 0.26783 0.05300
C 	C 	0.69041 0.72359 0.27184 0.07100
C 	C 	0.77387 0.81321 0.30726 0.13600
C 	C 	0.79105 0.80742 0.26071 -0.06600
H 	H 	0.84907 0.87653 0.26793 0.06600
N 	N 	0.47077 0.66616 0.31113 -0.26000
C 	C 	0.56324 0.69842 0.30360 0.12800
N 	N 	0.52368 0.20696 0.65074 -0.25800
C 	C 	0.34232 0.07442 0.62795 -0.10500
C 	C 	0.27361 0.95648 0.59402 -0.01000
H 	H 	0.20463 0.89837 0.60117 0.03900
C 	C 	0.35707 0.05693 0.60518 -0.00100
C 	C 	0.44053 0.14655 0.64060 0.10600
C 	C 	0.45771 0.14076 0.59405 -0.04800
H 	H 	0.51573 0.20987 0.60127 0.04100
N 	N 	0.13743 0.99950 0.64447 -0.21600
C 	C 	0.22990 0.03176 0.63694 0.05300
N 	N 	0.65006 0.45971 0.51593 -0.25900
C 	C 	0.60124 0.59225 0.53872 -0.13800
C 	C 	0.65047 0.71019 0.57265 -0.06600
H 	H 	0.63960 0.76830 0.56550 0.06100
C 	C 	0.63348 0.60974 0.56149 0.06800
C 	C 	0.62732 0.52012 0.52607 0.12900
C 	C 	0.65029 0.52591 0.57262 -0.06800
H 	H 	0.63920 0.45680 0.56540 0.05000
N 	N 	0.47127 0.66717 0.52220 -0.25800
C 	C 	0.53148 0.63491 0.52973 0.12700
N 	N 	0.31673 0.79304 0.84926 -0.26300
C 	C 	0.26791 0.92558 0.87205 -0.17400
C 	C 	0.31714 0.04352 0.90598 -0.13000
H 	H 	0.30627 0.10163 0.89883 0.06100
C 	C 	0.30015 0.94307 0.89482 0.12600
C 	C 	0.29399 0.85345 0.85940 0.14200
C 	C 	0.31696 0.85924 0.90595 -0.09100
H 	H 	0.30587 0.79013 0.89873 0.05700
N 	N 	0.13794 0.00050 0.85553 -0.30800
C 	C 	0.19815 0.96824 0.86306 0.18400
N 	N 	0.98339 0.12638 0.18260 -0.24800
C 	C 	0.93457 0.25892 0.20539 -0.10400
C 	C 	0.98380 0.37686 0.23932 0.06500
H 	H 	0.97293 0.43497 0.23217 0.02200
C 	C 	0.96681 0.27641 0.22816 -0.01600
C 	C 	0.96065 0.18679 0.19274 0.11900
C 	C 	0.98362 0.19258 0.23929 0.06300
H 	H 	0.97253 0.12347 0.23207 0.00900
N 	N 	0.80460 0.33384 0.18887 -0.25500
C 	C 	0.86481 0.30158 0.19640 0.11700
N 	N 	0.80965 0.34994 0.51593 -0.25600
C 	C 	0.99101 0.39876 0.53872 -0.09600
C 	C 	0.05972 0.34953 0.57265 -0.09500
H 	H 	0.12870 0.36040 0.56550 0.05300
C 	C 	0.97626 0.36652 0.56149 0.08800
C 	C 	0.89280 0.37268 0.52607 0.12200
C 	C 	0.87562 0.34971 0.57262 -0.05900
H 	H 	0.81760 0.36080 0.56540 0.04700
N 	N 	0.19590 0.52873 0.52220 -0.25200
C 	C 	0.10343 0.46852 0.52973 0.07400
N 	N 	0.47632 0.68327 0.84926 -0.25900
C 	C 	0.65768 0.73209 0.87205 -0.13800
C 	C 	0.72639 0.68286 0.90598 -0.06900
H 	H 	0.79537 0.69373 0.89883 0.06300
C 	C 	0.64293 0.69985 0.89482 0.07100
C 	C 	0.55947 0.70601 0.85940 0.13000
C 	C 	0.54229 0.68304 0.90595 -0.06900
H 	H 	0.48427 0.69413 0.89873 0.05200
N 	N 	0.86257 0.86206 0.85553 -0.23800
C 	C 	0.77010 0.80185 0.86306 0.13400
N 	N 	0.14298 0.01661 0.18260 -0.27800
C 	C 	0.32434 0.06543 0.20539 -0.17500
C 	C 	0.39305 0.01620 0.23932 -0.20600
H 	H 	0.46203 0.02707 0.23217 0.08900
C 	C 	0.30959 0.03319 0.22816 0.14200
C 	C 	0.22613 0.03935 0.19274 0.12200
C 	C 	0.20895 0.01638 0.23929 -0.20600
H 	H 	0.15093 0.02747 0.23207 0.07600
N 	N 	0.52923 0.19540 0.18887 -0.26500
C 	C 	0.43676 0.13519 0.19640 0.12900
N 	N 	0.54029 0.19035 0.51593 -0.26600
C 	C 	0.40775 0.00899 0.53872 -0.18500
C 	C 	0.28981 0.94028 0.57265 -0.04900
H 	H 	0.23170 0.87130 0.56550 0.04900
C 	C 	0.39026 0.02374 0.56149 0.04200
C 	C 	0.47988 0.10720 0.52607 0.12600
C 	C 	0.47409 0.12438 0.57262 -0.08300
H 	H 	0.54320 0.18240 0.56540 0.05300
N 	N 	0.33283 0.80410 0.52220 -0.27000
C 	C 	0.36509 0.89657 0.52973 0.17300
N 	N 	0.20696 0.52368 0.84926 -0.25800
C 	C 	0.07442 0.34232 0.87205 -0.10500
C 	C 	0.95648 0.27361 0.90598 -0.01000
H 	H 	0.89837 0.20463 0.89883 0.03900
C 	C 	0.05693 0.35707 0.89482 -0.00100
C 	C 	0.14655 0.44053 0.85940 0.10600
C 	C 	0.14076 0.45771 0.90595 -0.04800
H 	H 	0.20987 0.51573 0.89873 0.04100
N 	N 	0.99950 0.13743 0.85553 -0.21600
C 	C 	0.03176 0.22990 0.86306 0.05300
N 	N 	0.87362 0.85702 0.18260 -0.23800
C 	C 	0.74108 0.67566 0.20539 -0.13700
C 	C 	0.62314 0.60695 0.23932 -0.06900
H 	H 	0.56503 0.53797 0.23217 0.05300
C 	C 	0.72359 0.69041 0.22816 0.07100
C 	C 	0.81321 0.77387 0.19274 0.13600
C 	C 	0.80742 0.79105 0.23929 -0.06600
H 	H 	0.87653 0.84907 0.23207 0.06600
N 	N 	0.66616 0.47077 0.18887 -0.26000
C 	C 	0.69842 0.56324 0.19640 0.12800
N 	N 	0.54029 0.34994 0.01593 -0.26200
C 	C 	0.40775 0.39876 0.03872 -0.14100
C 	C 	0.28981 0.34953 0.07265 -0.07400
H 	H 	0.23170 0.36040 0.06550 0.04800
C 	C 	0.39026 0.36652 0.06149 0.06400
C 	C 	0.47988 0.37268 0.02607 0.12200
C 	C 	0.47409 0.34971 0.07262 -0.07200
H 	H 	0.54320 0.36080 0.06540 0.05000
N 	N 	0.33283 0.52873 0.02220 -0.26200
C 	C 	0.36509 0.46852 0.02973 0.12100
N 	N 	0.20696 0.68327 0.34926 -0.25700
C 	C 	0.07442 0.73209 0.37205 -0.10700
C 	C 	0.95648 0.68286 0.40598 -0.01200
H 	H 	0.89837 0.69373 0.39883 0.04800
C 	C 	0.05693 0.69985 0.39482 0.00900
C 	C 	0.14655 0.70601 0.35940 0.11100
C 	C 	0.14076 0.68304 0.40595 -0.04900
H 	H 	0.20987 0.69413 0.39873 0.04400
N 	N 	0.99950 0.86206 0.35553 -0.20400
C 	C 	0.03176 0.80185 0.36306 0.06900
N 	N 	0.87362 0.01661 0.68260 -0.25900
C 	C 	0.74108 0.06543 0.70539 -0.17100
C 	C 	0.62314 0.01620 0.73932 -0.19800
H 	H 	0.56503 0.02707 0.73217 0.08500
C 	C 	0.72359 0.03319 0.72816 0.14200
C 	C 	0.81321 0.03935 0.69274 0.13200
C 	C 	0.80742 0.01638 0.73929 -0.19200
H 	H 	0.87653 0.02747 0.73207 0.09000
N 	N 	0.66616 0.19540 0.68887 -0.26500
C 	C 	0.69842 0.13519 0.69640 0.13200
N 	N 	0.65006 0.19035 0.01593 -0.26400
C 	C 	0.60124 0.00899 0.03872 -0.18200
C 	C 	0.65047 0.94028 0.07265 -0.04500
H 	H 	0.63960 0.87130 0.06550 0.05500
C 	C 	0.63348 0.02374 0.06149 0.04400
C 	C 	0.62732 0.10720 0.02607 0.13000
C 	C 	0.65029 0.12438 0.07262 -0.08000
H 	H 	0.63920 0.18240 0.06540 0.05200
N 	N 	0.47127 0.80410 0.02220 -0.26800
C 	C 	0.53148 0.89657 0.02973 0.17400
N 	N 	0.31673 0.52368 0.34926 -0.26100
C 	C 	0.26791 0.34232 0.37205 -0.14000
C 	C 	0.31714 0.27361 0.40598 -0.07100
H 	H 	0.30627 0.20463 0.39883 0.04600
C 	C 	0.30015 0.35707 0.39482 0.06100
C 	C 	0.29399 0.44053 0.35940 0.12200
C 	C 	0.31696 0.45771 0.40595 -0.07000
H 	H 	0.30587 0.51573 0.39873 0.04800
N 	N 	0.13794 0.13743 0.35553 -0.27200
C 	C 	0.19815 0.22990 0.36306 0.11400
N 	N 	0.98339 0.85702 0.68260 -0.23200
C 	C 	0.93457 0.67566 0.70539 -0.10500
C 	C 	0.98380 0.60695 0.73932 0.05900
H 	H 	0.97293 0.53797 0.73217 0.02300
C 	C 	0.96681 0.69041 0.72816 -0.00600
C 	C 	0.96065 0.77387 0.69274 0.12900
C 	C 	0.98362 0.79105 0.73929 0.05700
H 	H 	0.97253 0.84907 0.73207 0.02700
N 	N 	0.80460 0.47077 0.68887 -0.25500
C 	C 	0.86481 0.56324 0.69640 0.12100
N 	N 	0.80965 0.45971 0.01593 -0.25500
C 	C 	0.99101 0.59225 0.03872 -0.09600
C 	C 	0.05972 0.71019 0.07265 -0.09100
H 	H 	0.12870 0.76830 0.06550 0.06000
C 	C 	0.97626 0.60974 0.06149 0.08900
C 	C 	0.89280 0.52012 0.02607 0.12600
C 	C 	0.87562 0.52591 0.07262 -0.05700
H 	H 	0.81760 0.45680 0.06540 0.04800
N 	N 	0.19590 0.66717 0.02220 -0.25000
C 	C 	0.10343 0.63491 0.02973 0.07800
N 	N 	0.47632 0.79304 0.34926 -0.26200
C 	C 	0.65768 0.92558 0.37205 -0.16900
C 	C 	0.72639 0.04352 0.40598 -0.12500
H 	H 	0.79537 0.10163 0.39883 0.07000
C 	C 	0.64293 0.94307 0.39482 0.12700
C 	C 	0.55947 0.85345 0.35940 0.14500
C 	C 	0.54229 0.85924 0.40595 -0.08900
H 	H 	0.48427 0.79013 0.39873 0.05800
N 	N 	0.86257 0.00050 0.35553 -0.28600
C 	C 	0.77010 0.96824 0.36306 0.18800
N 	N 	0.14298 0.12638 0.68260 -0.27200
C 	C 	0.32434 0.25892 0.70539 -0.14100
C 	C 	0.39305 0.37686 0.73932 -0.07100
H 	H 	0.46203 0.43497 0.73217 0.05600
C 	C 	0.30959 0.27641 0.72816 0.06100
C 	C 	0.22613 0.18679 0.69274 0.11500
C 	C 	0.20895 0.19258 0.73929 -0.07400
H 	H 	0.15093 0.12347 0.73207 0.03400
N 	N 	0.52923 0.33384 0.68887 -0.26000
C 	C 	0.43676 0.30158 0.69640 0.12100
N 	N 	0.34994 0.54029 0.48407 -0.26200
C 	C 	0.39876 0.40775 0.46128 -0.14100
C 	C 	0.34953 0.28981 0.42735 -0.07400
H 	H 	0.36040 0.23170 0.43450 0.04800
C 	C 	0.36652 0.39026 0.43851 0.06400
C 	C 	0.37268 0.47988 0.47393 0.12200
C 	C 	0.34971 0.47409 0.42738 -0.07200
H 	H 	0.36080 0.54320 0.43460 0.05000
N 	N 	0.52873 0.33283 0.47780 -0.26200
C 	C 	0.46852 0.36509 0.47027 0.12100
N 	N 	0.01661 0.87362 0.81740 -0.25900
C 	C 	0.06543 0.74108 0.79461 -0.17100
C 	C 	0.01620 0.62314 0.76068 -0.19800
H 	H 	0.02707 0.56503 0.76783 0.08500
C 	C 	0.03319 0.72359 0.77184 0.14200
C 	C 	0.03935 0.81321 0.80726 0.13200
C 	C 	0.01638 0.80742 0.76071 -0.19200
H 	H 	0.02747 0.87653 0.76793 0.09000
N 	N 	0.19540 0.66616 0.81113 -0.26500
C 	C 	0.13519 0.69842 0.80360 0.13200
N 	N 	0.68327 0.20696 0.15074 -0.25700
C 	C 	0.73209 0.07442 0.12795 -0.10700
C 	C 	0.68286 0.95648 0.09402 -0.01200
H 	H 	0.69373 0.89837 0.10117 0.04800
C 	C 	0.69985 0.05693 0.10518 0.00900
C 	C 	0.70601 0.14655 0.14060 0.11100
C 	C 	0.68304 0.14076 0.09405 -0.04900
H 	H 	0.69413 0.20987 0.10127 0.04400
N 	N 	0.86206 0.99950 0.14447 -0.20400
C 	C 	0.80185 0.03176 0.13694 0.06900
N 	N 	0.19035 0.65006 0.48407 -0.26400
C 	C 	0.00899 0.60124 0.46128 -0.18200
C 	C 	0.94028 0.65047 0.42735 -0.04500
H 	H 	0.87130 0.63960 0.43450 0.05500
C 	C 	0.02374 0.63348 0.43851 0.04400
C 	C 	0.10720 0.62732 0.47393 0.13000
C 	C 	0.12438 0.65029 0.42738 -0.08000
H 	H 	0.18240 0.63920 0.43460 0.05200
N 	N 	0.80410 0.47127 0.47780 -0.26800
C 	C 	0.89657 0.53148 0.47027 0.17400
N 	N 	0.85702 0.98339 0.81740 -0.23200
C 	C 	0.67566 0.93457 0.79461 -0.10500
C 	C 	0.60695 0.98380 0.76068 0.05900
H 	H 	0.53797 0.97293 0.76783 0.02300
C 	C 	0.69041 0.96681 0.77184 -0.00600
C 	C 	0.77387 0.96065 0.80726 0.12900
C 	C 	0.79105 0.98362 0.76071 0.05700
H 	H 	0.84907 0.97253 0.76793 0.02700
N 	N 	0.47077 0.80460 0.81113 -0.25500
C 	C 	0.56324 0.86481 0.80360 0.12100
N 	N 	0.52368 0.31673 0.15074 -0.26100
C 	C 	0.34232 0.26791 0.12795 -0.14000
C 	C 	0.27361 0.31714 0.09402 -0.07100
H 	H 	0.20463 0.30627 0.10117 0.04600
C 	C 	0.35707 0.30015 0.10518 0.06100
C 	C 	0.44053 0.29399 0.14060 0.12200
C 	C 	0.45771 0.31696 0.09405 -0.07000
H 	H 	0.51573 0.30587 0.10127 0.04800
N 	N 	0.13743 0.13794 0.14447 -0.27200
C 	C 	0.22990 0.19815 0.13694 0.11400
N 	N 	0.45971 0.80965 0.48407 -0.25500
C 	C 	0.59225 0.99101 0.46128 -0.09600
C 	C 	0.71019 0.05972 0.42735 -0.09100
H 	H 	0.76830 0.12870 0.43450 0.06000
C 	C 	0.60974 0.97626 0.43851 0.08900
C 	C 	0.52012 0.89280 0.47393 0.12600
C 	C 	0.52591 0.87562 0.42738 -0.05700
H 	H 	0.45680 0.81760 0.43460 0.04800
N 	N 	0.66717 0.19590 0.47780 -0.25000
C 	C 	0.63491 0.10343 0.47027 0.07800
N 	N 	0.12638 0.14298 0.81740 -0.27200
C 	C 	0.25892 0.32434 0.79461 -0.14100
C 	C 	0.37686 0.39305 0.76068 -0.07100
H 	H 	0.43497 0.46203 0.76783 0.05600
C 	C 	0.27641 0.30959 0.77184 0.06100
C 	C 	0.18679 0.22613 0.80726 0.11500
C 	C 	0.19258 0.20895 0.76071 -0.07400
H 	H 	0.12347 0.15093 0.76793 0.03400
N 	N 	0.33384 0.52923 0.81113 -0.26000
C 	C 	0.30158 0.43676 0.80360 0.12100
N 	N 	0.79304 0.47632 0.15074 -0.26200
C 	C 	0.92558 0.65768 0.12795 -0.16900
C 	C 	0.04352 0.72639 0.09402 -0.12500
H 	H 	0.10163 0.79537 0.10117 0.07000
C 	C 	0.94307 0.64293 0.10518 0.12700
C 	C 	0.85345 0.55947 0.14060 0.14500
C 	C 	0.85924 0.54229 0.09405 -0.08900
H 	H 	0.79013 0.48427 0.10127 0.05800
N 	N 	0.00050 0.86257 0.14447 -0.28600
C 	C 	0.96824 0.77010 0.13694 0.18800
Fe	Fe	0.33333 0.66667 0.00354 1.13700
Fe	Fe	0.00000 0.00000 0.33688 1.09600
Fe	Fe	0.66667 0.33333 0.67021 1.13700
Fe	Fe	0.66667 0.33333 0.49646 1.13700
Fe	Fe	0.33333 0.66667 0.82979 1.13700
Fe	Fe	-0.00000 0.00000 0.16312 1.09600
Fe	Fe	0.66667 0.33333 0.99646 1.13700
Fe	Fe	0.33333 0.66667 0.32979 1.13700
Fe	Fe	-0.00000 0.00000 0.66312 1.09600
Fe	Fe	0.33333 0.66667 0.50354 1.13700
Fe	Fe	-0.00000 0.00000 0.83688 1.09600
Fe	Fe	0.66667 0.33333 0.17021 1.13700
