data_crystal

_cell_length_a 12.87170
_cell_length_b 12.87170
_cell_length_c 61.93100
_cell_angle_alpha 90.00000
_cell_angle_beta  90.00000
_cell_angle_gamma 120.00000

_symmetry_space_group_name_	'P 1'
_symmetry_space_group_name_H-M	'P 1'

loop_
_symmetry_equiv_pos_as_xyz
  x,y,z

loop_
_atom_site_label
_atom_site_type_symbol
_atom_site_fract_x
_atom_site_fract_y
_atom_site_fract_z
_atom_site_charge
N 	N 	0.33402 0.80158 0.02172 -0.26700
N 	N 	0.54083 0.19482 0.01568 -0.26400
C 	C 	0.36589 0.89549 0.02915 0.17600
C 	C 	0.48026 0.10949 0.02562 0.13000
C 	C 	0.40735 0.00903 0.03824 -0.18600
C 	C 	0.38977 0.02375 0.06116 0.04200
C 	C 	0.28837 0.93882 0.07253 -0.04800
C 	C 	0.47470 0.12515 0.07254 -0.08100
H 	H 	0.23070 0.87020 0.06540 0.05000
H 	H 	0.54440 0.18680 0.06580 0.05200
N 	N 	0.00069 0.13491 0.35505 -0.27400
N 	N 	0.20750 0.52815 0.34901 -0.25800
C 	C 	0.03256 0.22882 0.36248 0.10300
C 	C 	0.14693 0.44282 0.35895 0.11700
C 	C 	0.07402 0.34236 0.37157 -0.12800
C 	C 	0.05644 0.35708 0.39449 0.01300
C 	C 	0.95504 0.27215 0.40586 -0.01800
C 	C 	0.14137 0.45848 0.40587 -0.05500
H 	H 	0.89737 0.20353 0.39873 0.04400
H 	H 	0.21107 0.52013 0.39913 0.04500
N 	N 	0.66735 0.46825 0.68839 -0.25600
N 	N 	0.87416 0.86149 0.68235 -0.23500
C 	C 	0.69922 0.56216 0.69582 0.13300
C 	C 	0.81359 0.77616 0.69229 0.14100
C 	C 	0.74068 0.67570 0.70491 -0.13800
C 	C 	0.72310 0.69042 0.72783 0.07400
C 	C 	0.62170 0.60549 0.73920 -0.07100
C 	C 	0.80803 0.79182 0.73921 -0.06700
H 	H 	0.56403 0.53687 0.73207 0.05700
H 	H 	0.87773 0.85347 0.73247 0.06800
N 	N 	0.19842 0.53244 0.02172 -0.24800
N 	N 	0.80518 0.34601 0.01568 -0.25300
C 	C 	0.10451 0.47040 0.02915 0.07700
C 	C 	0.89051 0.37077 0.02562 0.12700
C 	C 	0.99097 0.39832 0.03824 -0.09700
C 	C 	0.97625 0.36602 0.06116 0.09400
C 	C 	0.06118 0.34955 0.07253 -0.10100
C 	C 	0.87485 0.34955 0.07254 -0.06200
H 	H 	0.12980 0.36050 0.06540 0.05800
H 	H 	0.81320 0.35760 0.06580 0.05000
N 	N 	0.86509 0.86577 0.35505 -0.23400
N 	N 	0.47185 0.67934 0.34901 -0.25700
C 	C 	0.77118 0.80373 0.36248 0.13900
C 	C 	0.55718 0.70410 0.35895 0.13500
C 	C 	0.65764 0.73165 0.37157 -0.13800
C 	C 	0.64292 0.69935 0.39449 0.07400
C 	C 	0.72785 0.68288 0.40586 -0.07100
C 	C 	0.54152 0.68288 0.40587 -0.06900
H 	H 	0.79647 0.69383 0.39873 0.06600
H 	H 	0.47987 0.69093 0.39913 0.05300
N 	N 	0.53175 0.19911 0.68839 -0.26200
N 	N 	0.13851 0.01268 0.68235 -0.27900
C 	C 	0.43784 0.13707 0.69582 0.13400
C 	C 	0.22384 0.03744 0.69229 0.12700
C 	C 	0.32430 0.06499 0.70491 -0.17900
C 	C 	0.30958 0.03269 0.72783 0.15100
C 	C 	0.39451 0.01622 0.73920 -0.21900
C 	C 	0.20818 0.01622 0.73921 -0.21200
H 	H 	0.46313 0.02717 0.73207 0.09700
H 	H 	0.14653 0.02427 0.73247 0.07800
N 	N 	0.46756 0.66598 0.02172 -0.25500
N 	N 	0.65399 0.45917 0.01568 -0.25600
C 	C 	0.52960 0.63411 0.02915 0.13200
C 	C 	0.62923 0.51974 0.02562 0.13400
C 	C 	0.60168 0.59265 0.03824 -0.13900
C 	C 	0.63398 0.61023 0.06116 0.07100
C 	C 	0.65045 0.71163 0.07253 -0.06900
C 	C 	0.65045 0.52530 0.07254 -0.06900
H 	H 	0.63950 0.76930 0.06540 0.06400
H 	H 	0.64240 0.45560 0.06580 0.05100
N 	N 	0.13423 0.99931 0.35505 -0.24700
N 	N 	0.32066 0.79250 0.34901 -0.25800
C 	C 	0.19627 0.96744 0.36248 0.14300
C 	C 	0.29590 0.85307 0.35895 0.14000
C 	C 	0.26835 0.92598 0.37157 -0.15300
C 	C 	0.30065 0.94356 0.39449 0.12200
C 	C 	0.31712 0.04496 0.40586 -0.12900
C 	C 	0.31712 0.85863 0.40587 -0.08700
H 	H 	0.30617 0.10263 0.39873 0.06400
H 	H 	0.30907 0.78893 0.39913 0.05700
N 	N 	0.80089 0.33265 0.68839 -0.25100
N 	N 	0.98732 0.12584 0.68235 -0.24300
C 	C 	0.86293 0.30078 0.69582 0.12000
C 	C 	0.96256 0.18641 0.69229 0.12300
C 	C 	0.93501 0.25932 0.70491 -0.10200
C 	C 	0.96731 0.27690 0.72783 -0.01800
C 	C 	0.98378 0.37830 0.73920 0.07400
C 	C 	0.98378 0.19197 0.73921 0.06800
H 	H 	0.97283 0.43597 0.73207 0.02000
H 	H 	0.97573 0.12227 0.73247 0.00900
N 	N 	0.80158 0.33402 0.47828 -0.26600
N 	N 	0.19482 0.54083 0.48432 -0.26300
C 	C 	0.89549 0.36589 0.47085 0.17700
C 	C 	0.10949 0.48026 0.47438 0.13100
C 	C 	0.00903 0.40735 0.46176 -0.18500
C 	C 	0.02375 0.38977 0.43884 0.04300
C 	C 	0.93882 0.28837 0.42747 -0.04700
C 	C 	0.12515 0.47470 0.42746 -0.08000
H 	H 	0.87020 0.23070 0.43460 0.05100
H 	H 	0.18680 0.54440 0.43420 0.05300
N 	N 	0.46825 0.66735 0.81161 -0.25600
N 	N 	0.86149 0.87416 0.81765 -0.23500
C 	C 	0.56216 0.69922 0.80418 0.13300
C 	C 	0.77616 0.81359 0.80771 0.14100
C 	C 	0.67570 0.74068 0.79509 -0.13800
C 	C 	0.69042 0.72310 0.77217 0.07400
C 	C 	0.60549 0.62170 0.76080 -0.07100
C 	C 	0.79182 0.80803 0.76079 -0.06700
H 	H 	0.53687 0.56403 0.76793 0.05700
H 	H 	0.85347 0.87773 0.76753 0.06800
N 	N 	0.13491 0.00069 0.14495 -0.27300
N 	N 	0.52815 0.20750 0.15099 -0.25700
C 	C 	0.22882 0.03256 0.13752 0.10400
C 	C 	0.44282 0.14693 0.14105 0.11800
C 	C 	0.34236 0.07402 0.12843 -0.12800
C 	C 	0.35708 0.05644 0.10551 0.01300
C 	C 	0.27215 0.95504 0.09414 -0.01800
C 	C 	0.45848 0.14137 0.09413 -0.05500
H 	H 	0.20353 0.89737 0.10127 0.04400
H 	H 	0.52013 0.21107 0.10087 0.04500
N 	N 	0.53244 0.19842 0.47828 -0.24800
N 	N 	0.34601 0.80518 0.48432 -0.25300
C 	C 	0.47040 0.10451 0.47085 0.07700
C 	C 	0.37077 0.89051 0.47438 0.12700
C 	C 	0.39832 0.99097 0.46176 -0.09700
C 	C 	0.36602 0.97625 0.43884 0.09400
C 	C 	0.34955 0.06118 0.42747 -0.10100
C 	C 	0.34955 0.87485 0.42746 -0.06200
H 	H 	0.36050 0.12980 0.43460 0.05800
H 	H 	0.35760 0.81320 0.43420 0.05000
N 	N 	0.19911 0.53175 0.81161 -0.26200
N 	N 	0.01268 0.13851 0.81765 -0.27900
C 	C 	0.13707 0.43784 0.80418 0.13400
C 	C 	0.03744 0.22384 0.80771 0.12700
C 	C 	0.06499 0.32430 0.79509 -0.17900
C 	C 	0.03269 0.30958 0.77217 0.15100
C 	C 	0.01622 0.39451 0.76080 -0.21900
C 	C 	0.01622 0.20818 0.76079 -0.21200
H 	H 	0.02717 0.46313 0.76793 0.09700
H 	H 	0.02427 0.14653 0.76753 0.07800
N 	N 	0.86577 0.86509 0.14495 -0.23400
N 	N 	0.67934 0.47185 0.15099 -0.25700
C 	C 	0.80373 0.77118 0.13752 0.13900
C 	C 	0.70410 0.55718 0.14105 0.13500
C 	C 	0.73165 0.65764 0.12843 -0.13800
C 	C 	0.69935 0.64292 0.10551 0.07400
C 	C 	0.68288 0.72785 0.09414 -0.07100
C 	C 	0.68288 0.54152 0.09413 -0.06900
H 	H 	0.69383 0.79647 0.10127 0.06600
H 	H 	0.69093 0.47987 0.10087 0.05300
N 	N 	0.66598 0.46756 0.47828 -0.25500
N 	N 	0.45917 0.65399 0.48432 -0.25600
C 	C 	0.63411 0.52960 0.47085 0.13200
C 	C 	0.51974 0.62923 0.47438 0.13400
C 	C 	0.59265 0.60168 0.46176 -0.13900
C 	C 	0.61023 0.63398 0.43884 0.07100
C 	C 	0.71163 0.65045 0.42747 -0.06900
C 	C 	0.52530 0.65045 0.42746 -0.06900
H 	H 	0.76930 0.63950 0.43460 0.06400
H 	H 	0.45560 0.64240 0.43420 0.05100
N 	N 	0.33265 0.80089 0.81161 -0.25100
N 	N 	0.12584 0.98732 0.81765 -0.24300
C 	C 	0.30078 0.86293 0.80418 0.12000
C 	C 	0.18641 0.96256 0.80771 0.12300
C 	C 	0.25932 0.93501 0.79509 -0.10200
C 	C 	0.27690 0.96731 0.77217 -0.01800
C 	C 	0.37830 0.98378 0.76080 0.07400
C 	C 	0.19197 0.98378 0.76079 0.06800
H 	H 	0.43597 0.97283 0.76793 0.02000
H 	H 	0.12227 0.97573 0.76753 0.00900
N 	N 	0.99931 0.13423 0.14495 -0.24700
N 	N 	0.79250 0.32066 0.15099 -0.25800
C 	C 	0.96744 0.19627 0.13752 0.14300
C 	C 	0.85307 0.29590 0.14105 0.14000
C 	C 	0.92598 0.26835 0.12843 -0.15300
C 	C 	0.94356 0.30065 0.10551 0.12200
C 	C 	0.04496 0.31712 0.09414 -0.12900
C 	C 	0.85863 0.31712 0.09413 -0.08700
H 	H 	0.10263 0.30617 0.10127 0.06400
H 	H 	0.78893 0.30907 0.10087 0.05700
N 	N 	0.66598 0.19842 0.97828 -0.24600
N 	N 	0.45917 0.80518 0.98432 -0.25200
C 	C 	0.63411 0.10451 0.97085 0.08200
C 	C 	0.51974 0.89051 0.97438 0.13100
C 	C 	0.59265 0.99097 0.96176 -0.09700
C 	C 	0.61023 0.97625 0.93884 0.09500
C 	C 	0.71163 0.06118 0.92747 -0.09700
C 	C 	0.52530 0.87485 0.92746 -0.06100
H 	H 	0.76930 0.12980 0.93460 0.06500
H 	H 	0.45560 0.81320 0.93420 0.05000
N 	N 	0.33265 0.53175 0.31161 -0.25600
N 	N 	0.12584 0.13851 0.31765 -0.27100
C 	C 	0.30078 0.43784 0.30418 0.12500
C 	C 	0.18641 0.22384 0.30771 0.11900
C 	C 	0.25932 0.32430 0.29509 -0.14100
C 	C 	0.27690 0.30958 0.27217 0.06400
C 	C 	0.37830 0.39451 0.26080 -0.07300
C 	C 	0.19197 0.20818 0.26079 -0.07400
H 	H 	0.43597 0.46313 0.26793 0.05900
H 	H 	0.12227 0.14653 0.26753 0.03500
N 	N 	0.99931 0.86509 0.64495 -0.23000
N 	N 	0.79250 0.47185 0.65099 -0.25700
C 	C 	0.96744 0.77118 0.63752 0.15200
C 	C 	0.85307 0.55718 0.64105 0.14300
C 	C 	0.92598 0.65764 0.62843 -0.15100
C 	C 	0.94356 0.64292 0.60551 0.12400
C 	C 	0.04496 0.72785 0.59414 -0.12400
C 	C 	0.85863 0.54152 0.59413 -0.08500
H 	H 	0.10263 0.79647 0.60127 0.07200
H 	H 	0.78893 0.47987 0.60087 0.05800
N 	N 	0.80158 0.46756 0.97828 -0.26400
N 	N 	0.19482 0.65399 0.98432 -0.26100
C 	C 	0.89549 0.52960 0.97085 0.17800
C 	C 	0.10949 0.62923 0.97438 0.13400
C 	C 	0.00903 0.60168 0.96176 -0.18200
C 	C 	0.02375 0.63398 0.93884 0.04600
C 	C 	0.93882 0.65045 0.92747 -0.04400
C 	C 	0.12515 0.65045 0.92746 -0.07800
H 	H 	0.87020 0.63950 0.93460 0.05700
H 	H 	0.18680 0.64240 0.93420 0.05300
N 	N 	0.46825 0.80089 0.31161 -0.25100
N 	N 	0.86149 0.98732 0.31765 -0.22700
C 	C 	0.56216 0.86293 0.30418 0.12500
C 	C 	0.77616 0.96256 0.30771 0.13400
C 	C 	0.67570 0.93501 0.29509 -0.10200
C 	C 	0.69042 0.96731 0.27217 -0.00800
C 	C 	0.60549 0.98378 0.26080 0.06800
C 	C 	0.79182 0.98378 0.26079 0.06200
H 	H 	0.53687 0.97283 0.26793 0.02100
H 	H 	0.85347 0.97573 0.26753 0.02700
N 	N 	0.13491 0.13423 0.64495 -0.27000
N 	N 	0.52815 0.32066 0.65099 -0.25800
C 	C 	0.22882 0.19627 0.63752 0.11700
C 	C 	0.44282 0.29590 0.64105 0.12700
C 	C 	0.34236 0.26835 0.62843 -0.14100
C 	C 	0.35708 0.30065 0.60551 0.06400
C 	C 	0.27215 0.31712 0.59414 -0.07400
C 	C 	0.45848 0.31712 0.59413 -0.07100
H 	H 	0.20353 0.30617 0.60127 0.04900
H 	H 	0.52013 0.30907 0.60087 0.05000
N 	N 	0.53244 0.33402 0.97828 -0.25800
N 	N 	0.34601 0.54083 0.98432 -0.25900
C 	C 	0.47040 0.36589 0.97085 0.12600
C 	C 	0.37077 0.48026 0.97438 0.12700
C 	C 	0.39832 0.40735 0.96176 -0.14200
C 	C 	0.36602 0.38977 0.93884 0.06700
C 	C 	0.34955 0.28837 0.92747 -0.07600
C 	C 	0.34955 0.47470 0.92746 -0.07200
H 	H 	0.36050 0.23070 0.93460 0.05100
H 	H 	0.35760 0.54440 0.93420 0.05200
N 	N 	0.19911 0.66735 0.31161 -0.26100
N 	N 	0.01268 0.87416 0.31765 -0.25900
C 	C 	0.13707 0.69922 0.30418 0.13700
C 	C 	0.03744 0.81359 0.30771 0.13800
C 	C 	0.06499 0.74068 0.29509 -0.17500
C 	C 	0.03269 0.72310 0.27217 0.15200
C 	C 	0.01622 0.62170 0.26080 -0.21100
C 	C 	0.01622 0.80803 0.26079 -0.20000
H 	H 	0.02717 0.56403 0.26793 0.09300
H 	H 	0.02427 0.87773 0.26753 0.09400
N 	N 	0.86577 0.00069 0.64495 -0.25400
N 	N 	0.67934 0.20750 0.65099 -0.25700
C 	C 	0.80373 0.03256 0.63752 0.11600
C 	C 	0.70410 0.14693 0.64105 0.12300
C 	C 	0.73165 0.07402 0.62843 -0.12700
C 	C 	0.69935 0.05644 0.60551 0.02100
C 	C 	0.68288 0.95504 0.59414 -0.02000
C 	C 	0.68288 0.14137 0.59413 -0.05500
H 	H 	0.69383 0.89737 0.60127 0.05300
H 	H 	0.69093 0.21107 0.60087 0.04700
N 	N 	0.19842 0.66598 0.52172 -0.24600
N 	N 	0.80518 0.45917 0.51568 -0.25200
C 	C 	0.10451 0.63411 0.52915 0.08200
C 	C 	0.89051 0.51974 0.52562 0.13100
C 	C 	0.99097 0.59265 0.53824 -0.09700
C 	C 	0.97625 0.61023 0.56116 0.09500
C 	C 	0.06118 0.71163 0.57253 -0.09700
C 	C 	0.87485 0.52530 0.57254 -0.06100
H 	H 	0.12980 0.76930 0.56540 0.06500
H 	H 	0.81320 0.45560 0.56580 0.05000
N 	N 	0.86509 0.99931 0.85505 -0.23000
N 	N 	0.47185 0.79250 0.84901 -0.25700
C 	C 	0.77118 0.96744 0.86248 0.15200
C 	C 	0.55718 0.85307 0.85895 0.14300
C 	C 	0.65764 0.92598 0.87157 -0.15100
C 	C 	0.64292 0.94356 0.89449 0.12400
C 	C 	0.72785 0.04496 0.90586 -0.12400
C 	C 	0.54152 0.85863 0.90587 -0.08500
H 	H 	0.79647 0.10263 0.89873 0.07200
H 	H 	0.47987 0.78893 0.89913 0.05800
N 	N 	0.53175 0.33265 0.18839 -0.25600
N 	N 	0.13851 0.12584 0.18235 -0.27100
C 	C 	0.43784 0.30078 0.19582 0.12500
C 	C 	0.22384 0.18641 0.19229 0.11900
C 	C 	0.32430 0.25932 0.20491 -0.14100
C 	C 	0.30958 0.27690 0.22783 0.06400
C 	C 	0.39451 0.37830 0.23920 -0.07300
C 	C 	0.20818 0.19197 0.23921 -0.07400
H 	H 	0.46313 0.43597 0.23207 0.05900
H 	H 	0.14653 0.12227 0.23247 0.03500
N 	N 	0.46756 0.80158 0.52172 -0.26400
N 	N 	0.65399 0.19482 0.51568 -0.26100
C 	C 	0.52960 0.89549 0.52915 0.17800
C 	C 	0.62923 0.10949 0.52562 0.13400
C 	C 	0.60168 0.00903 0.53824 -0.18200
C 	C 	0.63398 0.02375 0.56116 0.04600
C 	C 	0.65045 0.93882 0.57253 -0.04400
C 	C 	0.65045 0.12515 0.57254 -0.07800
H 	H 	0.63950 0.87020 0.56540 0.05700
H 	H 	0.64240 0.18680 0.56580 0.05300
N 	N 	0.13423 0.13491 0.85505 -0.27000
N 	N 	0.32066 0.52815 0.84901 -0.25800
C 	C 	0.19627 0.22882 0.86248 0.11700
C 	C 	0.29590 0.44282 0.85895 0.12700
C 	C 	0.26835 0.34236 0.87157 -0.14100
C 	C 	0.30065 0.35708 0.89449 0.06400
C 	C 	0.31712 0.27215 0.90586 -0.07400
C 	C 	0.31712 0.45848 0.90587 -0.07100
H 	H 	0.30617 0.20353 0.89873 0.04900
H 	H 	0.30907 0.52013 0.89913 0.05000
N 	N 	0.80089 0.46825 0.18839 -0.25100
N 	N 	0.98732 0.86149 0.18235 -0.22700
C 	C 	0.86293 0.56216 0.19582 0.12500
C 	C 	0.96256 0.77616 0.19229 0.13400
C 	C 	0.93501 0.67570 0.20491 -0.10200
C 	C 	0.96731 0.69042 0.22783 -0.00800
C 	C 	0.98378 0.60549 0.23920 0.06800
C 	C 	0.98378 0.79182 0.23921 0.06200
H 	H 	0.97283 0.53687 0.23207 0.02100
H 	H 	0.97573 0.85347 0.23247 0.02700
N 	N 	0.33402 0.53244 0.52172 -0.25800
N 	N 	0.54083 0.34601 0.51568 -0.25900
C 	C 	0.36589 0.47040 0.52915 0.12600
C 	C 	0.48026 0.37077 0.52562 0.12700
C 	C 	0.40735 0.39832 0.53824 -0.14200
C 	C 	0.38977 0.36602 0.56116 0.06700
C 	C 	0.28837 0.34955 0.57253 -0.07600
C 	C 	0.47470 0.34955 0.57254 -0.07200
H 	H 	0.23070 0.36050 0.56540 0.05100
H 	H 	0.54440 0.35760 0.56580 0.05200
N 	N 	0.00069 0.86577 0.85505 -0.25400
N 	N 	0.20750 0.67934 0.84901 -0.25700
C 	C 	0.03256 0.80373 0.86248 0.11600
C 	C 	0.14693 0.70410 0.85895 0.12300
C 	C 	0.07402 0.73165 0.87157 -0.12700
C 	C 	0.05644 0.69935 0.89449 0.02100
C 	C 	0.95504 0.68288 0.90586 -0.02000
C 	C 	0.14137 0.68288 0.90587 -0.05500
H 	H 	0.89737 0.69383 0.89873 0.05300
H 	H 	0.21107 0.69093 0.89913 0.04700
N 	N 	0.66735 0.19911 0.18839 -0.26100
N 	N 	0.87416 0.01268 0.18235 -0.25900
C 	C 	0.69922 0.13707 0.19582 0.13700
C 	C 	0.81359 0.03744 0.19229 0.13800
C 	C 	0.74068 0.06499 0.20491 -0.17500
C 	C 	0.72310 0.03269 0.22783 0.15200
C 	C 	0.62170 0.01622 0.23920 -0.21100
C 	C 	0.80803 0.01622 0.23921 -0.20000
H 	H 	0.56403 0.02717 0.23207 0.09300
H 	H 	0.87773 0.02427 0.23247 0.09400
Ni	Ni	0.33333 0.66667 0.00336 1.07600
Ni	Ni	-0.00000 0.00000 0.33669 1.04200
Ni	Ni	0.66667 0.33333 0.67003 1.07600
Ni	Ni	0.66667 0.33333 0.49664 1.07600
Ni	Ni	0.33333 0.66667 0.82997 1.07600
Ni	Ni	-0.00000 -0.00000 0.16331 1.04200
Ni	Ni	0.66667 0.33333 0.99664 1.07600
Ni	Ni	0.33333 0.66667 0.32997 1.07600
Ni	Ni	-0.00000 0.00000 0.66331 1.04200
Ni	Ni	0.33333 0.66667 0.50336 1.07600
Ni	Ni	-0.00000 0.00000 0.83669 1.04200
Ni	Ni	0.66667 0.33333 0.17003 1.07600
