data_crystal

_cell_length_a 12.97280
_cell_length_b 12.97280
_cell_length_c 62.65200
_cell_angle_alpha 90.00000
_cell_angle_beta  90.00000
_cell_angle_gamma 120.00000

_symmetry_space_group_name_	'P 1'
_symmetry_space_group_name_H-M	'P 1'

loop_
_symmetry_equiv_pos_as_xyz
  x,y,z

loop_
_atom_site_label
_atom_site_type_symbol
_atom_site_fract_x
_atom_site_fract_y
_atom_site_fract_z
_atom_site_charge
N 	N 	0.34875 0.53994 0.98400 -0.27200
C 	C 	0.37215 0.47959 0.97391 0.12800
C 	C 	0.36617 0.38956 0.93858 0.06600
C 	C 	0.39873 0.40710 0.96131 -0.14500
C 	C 	0.34960 0.47377 0.92737 -0.07200
H 	H 	0.36080 0.54320 0.93450 0.05200
C 	C 	0.34933 0.28869 0.92740 -0.07400
H 	H 	0.35990 0.23020 0.93460 0.04800
C 	C 	0.46874 0.36469 0.97033 0.12700
N 	N 	0.52882 0.33162 0.97772 -0.27500
N 	N 	0.01542 0.87327 0.31734 -0.27300
C 	C 	0.03882 0.81292 0.30724 0.13700
C 	C 	0.03284 0.72289 0.27191 0.14700
C 	C 	0.06540 0.74043 0.29464 -0.17700
C 	C 	0.01627 0.80710 0.26071 -0.20000
H 	H 	0.02747 0.87653 0.26783 0.09300
C 	C 	0.01600 0.62202 0.26073 -0.20300
H 	H 	0.02657 0.56353 0.26793 0.08600
C 	C 	0.13541 0.69802 0.30366 0.13800
N 	N 	0.19549 0.66495 0.31105 -0.27800
N 	N 	0.68208 0.20661 0.65067 -0.26900
C 	C 	0.70548 0.14626 0.64057 0.11400
C 	C 	0.69950 0.05623 0.60525 0.00700
C 	C 	0.73206 0.07377 0.62797 -0.10900
C 	C 	0.68293 0.14044 0.59404 -0.04900
H 	H 	0.69413 0.20987 0.60117 0.04300
C 	C 	0.68266 0.95536 0.59406 -0.00900
H 	H 	0.69323 0.89687 0.60127 0.04800
C 	C 	0.80207 0.03136 0.63700 0.07100
N 	N 	0.86215 0.99829 0.64439 -0.21600
N 	N 	0.46006 0.80881 0.98400 -0.26600
C 	C 	0.52041 0.89256 0.97391 0.13000
C 	C 	0.61044 0.97661 0.93858 0.09100
C 	C 	0.59290 0.99163 0.96131 -0.09700
C 	C 	0.52623 0.87583 0.92737 -0.05700
H 	H 	0.45680 0.81760 0.93450 0.04800
C 	C 	0.71131 0.06064 0.92740 -0.09200
H 	H 	0.76980 0.12970 0.93460 0.06100
C 	C 	0.63531 0.10405 0.97033 0.08000
N 	N 	0.66838 0.19720 0.97772 -0.26200
N 	N 	0.12673 0.14214 0.31734 -0.28700
C 	C 	0.18708 0.22589 0.30724 0.11800
C 	C 	0.27711 0.30994 0.27191 0.06200
C 	C 	0.25957 0.32496 0.29464 -0.14500
C 	C 	0.19290 0.20916 0.26071 -0.07500
H 	H 	0.12347 0.15093 0.26783 0.03300
C 	C 	0.37798 0.39397 0.26073 -0.07100
H 	H 	0.43647 0.46303 0.26793 0.05600
C 	C 	0.30198 0.43738 0.30366 0.12600
N 	N 	0.33505 0.53053 0.31105 -0.27300
N 	N 	0.79339 0.47548 0.65067 -0.27300
C 	C 	0.85374 0.55923 0.64057 0.15000
C 	C 	0.94377 0.64328 0.60525 0.13100
C 	C 	0.92623 0.65830 0.62797 -0.17500
C 	C 	0.85956 0.54250 0.59404 -0.09100
H 	H 	0.79013 0.48427 0.60117 0.05900
C 	C 	0.04464 0.72731 0.59406 -0.12800
H 	H 	0.10313 0.79637 0.60127 0.07100
C 	C 	0.96864 0.77072 0.63700 0.19800
N 	N 	0.00171 0.86387 0.64439 -0.30300
N 	N 	0.19119 0.65125 0.98400 -0.27600
C 	C 	0.10744 0.62785 0.97391 0.13400
C 	C 	0.02339 0.63383 0.93858 0.04500
C 	C 	0.00837 0.60127 0.96131 -0.18900
C 	C 	0.12417 0.65040 0.92737 -0.08200
H 	H 	0.18240 0.63920 0.93450 0.05300
C 	C 	0.93936 0.65067 0.92740 -0.04400
H 	H 	0.87030 0.64010 0.93460 0.05500
C 	C 	0.89595 0.53126 0.97033 0.18300
N 	N 	0.80280 0.47118 0.97772 -0.28200
N 	N 	0.85786 0.98458 0.31734 -0.24400
C 	C 	0.77411 0.96118 0.30724 0.13400
C 	C 	0.69006 0.96716 0.27191 -0.00700
C 	C 	0.67504 0.93460 0.29464 -0.10800
C 	C 	0.79084 0.98373 0.26071 0.06300
H 	H 	0.84907 0.97253 0.26783 0.02600
C 	C 	0.60603 0.98400 0.26073 0.06300
H 	H 	0.53697 0.97343 0.26793 0.02200
C 	C 	0.56262 0.86459 0.30366 0.12600
N 	N 	0.46947 0.80451 0.31105 -0.26700
N 	N 	0.52452 0.31792 0.65067 -0.27200
C 	C 	0.44077 0.29452 0.64057 0.12600
C 	C 	0.35672 0.30050 0.60525 0.06200
C 	C 	0.34170 0.26794 0.62797 -0.14500
C 	C 	0.45750 0.31707 0.59404 -0.07100
H 	H 	0.51573 0.30587 0.60117 0.04900
C 	C 	0.27269 0.31734 0.59406 -0.07200
H 	H 	0.20363 0.30677 0.60127 0.04500
C 	C 	0.22928 0.19793 0.63700 0.11800
N 	N 	0.13613 0.13785 0.64439 -0.28900
N 	N 	0.53994 0.34875 0.51600 -0.27300
C 	C 	0.47959 0.37215 0.52609 0.12700
C 	C 	0.38956 0.36617 0.56142 0.06500
C 	C 	0.40710 0.39873 0.53869 -0.14600
C 	C 	0.47377 0.34960 0.57263 -0.07300
H 	H 	0.54320 0.36080 0.56550 0.05100
C 	C 	0.28869 0.34933 0.57260 -0.07500
H 	H 	0.23020 0.35990 0.56540 0.04700
C 	C 	0.36469 0.46874 0.52967 0.12700
N 	N 	0.33162 0.52882 0.52228 -0.27500
N 	N 	0.20661 0.68208 0.84933 -0.26900
C 	C 	0.14626 0.70548 0.85943 0.11400
C 	C 	0.05623 0.69950 0.89475 0.00700
C 	C 	0.07377 0.73206 0.87203 -0.10900
C 	C 	0.14044 0.68293 0.90596 -0.04900
H 	H 	0.20987 0.69413 0.89883 0.04300
C 	C 	0.95536 0.68266 0.90594 -0.00900
H 	H 	0.89687 0.69323 0.89873 0.04800
C 	C 	0.03136 0.80207 0.86300 0.07100
N 	N 	0.99829 0.86215 0.85561 -0.21600
N 	N 	0.87327 0.01542 0.18266 -0.27300
C 	C 	0.81292 0.03882 0.19276 0.13700
C 	C 	0.72289 0.03284 0.22809 0.14700
C 	C 	0.74043 0.06540 0.20536 -0.17700
C 	C 	0.80710 0.01627 0.23929 -0.20000
H 	H 	0.87653 0.02747 0.23217 0.09300
C 	C 	0.62202 0.01600 0.23927 -0.20300
H 	H 	0.56353 0.02657 0.23207 0.08600
C 	C 	0.69802 0.13541 0.19634 0.13800
N 	N 	0.66495 0.19549 0.18895 -0.27800
N 	N 	0.80881 0.46006 0.51600 -0.26600
C 	C 	0.89256 0.52041 0.52609 0.13000
C 	C 	0.97661 0.61044 0.56142 0.09100
C 	C 	0.99163 0.59290 0.53869 -0.09700
C 	C 	0.87583 0.52623 0.57263 -0.05700
H 	H 	0.81760 0.45680 0.56550 0.04800
C 	C 	0.06064 0.71131 0.57260 -0.09200
H 	H 	0.12970 0.76980 0.56540 0.06100
C 	C 	0.10405 0.63531 0.52967 0.08000
N 	N 	0.19720 0.66838 0.52228 -0.26200
N 	N 	0.47548 0.79339 0.84933 -0.27300
C 	C 	0.55923 0.85374 0.85943 0.15000
C 	C 	0.64328 0.94377 0.89475 0.13100
C 	C 	0.65830 0.92623 0.87203 -0.17500
C 	C 	0.54250 0.85956 0.90596 -0.09100
H 	H 	0.48427 0.79013 0.89883 0.05900
C 	C 	0.72731 0.04464 0.90594 -0.12800
H 	H 	0.79637 0.10313 0.89873 0.07100
C 	C 	0.77072 0.96864 0.86300 0.19800
N 	N 	0.86387 0.00171 0.85561 -0.30300
N 	N 	0.14214 0.12673 0.18266 -0.28700
C 	C 	0.22589 0.18708 0.19276 0.11800
C 	C 	0.30994 0.27711 0.22809 0.06200
C 	C 	0.32496 0.25957 0.20536 -0.14500
C 	C 	0.20916 0.19290 0.23929 -0.07500
H 	H 	0.15093 0.12347 0.23217 0.03300
C 	C 	0.39397 0.37798 0.23927 -0.07100
H 	H 	0.46303 0.43647 0.23207 0.05600
C 	C 	0.43738 0.30198 0.19634 0.12600
N 	N 	0.53053 0.33505 0.18895 -0.27300
N 	N 	0.65125 0.19119 0.51600 -0.27600
C 	C 	0.62785 0.10744 0.52609 0.13400
C 	C 	0.63383 0.02339 0.56142 0.04500
C 	C 	0.60127 0.00837 0.53869 -0.18900
C 	C 	0.65040 0.12417 0.57263 -0.08200
H 	H 	0.63920 0.18240 0.56550 0.05300
C 	C 	0.65067 0.93936 0.57260 -0.04400
H 	H 	0.64010 0.87030 0.56540 0.05500
C 	C 	0.53126 0.89595 0.52967 0.18300
N 	N 	0.47118 0.80280 0.52228 -0.28200
N 	N 	0.31792 0.52452 0.84933 -0.27200
C 	C 	0.29452 0.44077 0.85943 0.12600
C 	C 	0.30050 0.35672 0.89475 0.06200
C 	C 	0.26794 0.34170 0.87203 -0.14500
C 	C 	0.31707 0.45750 0.90596 -0.07100
H 	H 	0.30587 0.51573 0.89883 0.04900
C 	C 	0.31734 0.27269 0.90594 -0.07200
H 	H 	0.30677 0.20363 0.89873 0.04500
C 	C 	0.19793 0.22928 0.86300 0.11800
N 	N 	0.13785 0.13613 0.85561 -0.28900
N 	N 	0.98458 0.85786 0.18266 -0.24400
C 	C 	0.96118 0.77411 0.19276 0.13400
C 	C 	0.96716 0.69006 0.22809 -0.00700
C 	C 	0.93460 0.67504 0.20536 -0.10800
C 	C 	0.98373 0.79084 0.23929 0.06300
H 	H 	0.97253 0.84907 0.23217 0.02600
C 	C 	0.98400 0.60603 0.23927 0.06300
H 	H 	0.97343 0.53697 0.23207 0.02200
C 	C 	0.86459 0.56262 0.19634 0.12600
N 	N 	0.80451 0.46947 0.18895 -0.26700
N 	N 	0.65125 0.46006 0.01600 -0.27000
C 	C 	0.62785 0.52041 0.02609 0.13400
C 	C 	0.63383 0.61044 0.06142 0.06900
C 	C 	0.60127 0.59290 0.03869 -0.14200
C 	C 	0.65040 0.52623 0.07263 -0.06800
H 	H 	0.63920 0.45680 0.06550 0.05000
C 	C 	0.65067 0.71131 0.07260 -0.06700
H 	H 	0.64010 0.76980 0.06540 0.06200
C 	C 	0.53126 0.63531 0.02967 0.13300
N 	N 	0.47118 0.66838 0.02228 -0.27100
N 	N 	0.31792 0.79339 0.34933 -0.27400
C 	C 	0.29452 0.85374 0.35943 0.14700
C 	C 	0.30050 0.94377 0.39475 0.13100
C 	C 	0.26794 0.92623 0.37203 -0.18000
C 	C 	0.31707 0.85956 0.40596 -0.09300
H 	H 	0.30587 0.79013 0.39883 0.05800
C 	C 	0.31734 0.04464 0.40594 -0.13400
H 	H 	0.30677 0.10313 0.39873 0.06200
C 	C 	0.19793 0.96864 0.36300 0.19400
N 	N 	0.13785 0.00171 0.35561 -0.32700
N 	N 	0.98458 0.12673 0.68266 -0.26100
C 	C 	0.96118 0.18708 0.69276 0.12300
C 	C 	0.96716 0.27711 0.72809 -0.01700
C 	C 	0.93460 0.25957 0.70536 -0.10700
C 	C 	0.98373 0.19290 0.73929 0.06900
H 	H 	0.97253 0.12347 0.73217 0.00700
C 	C 	0.98400 0.37798 0.73927 0.06900
H 	H 	0.97343 0.43647 0.73207 0.02100
C 	C 	0.86459 0.30198 0.69634 0.12200
N 	N 	0.80451 0.33505 0.68895 -0.26700
N 	N 	0.53994 0.19119 0.01600 -0.27700
C 	C 	0.47959 0.10744 0.02609 0.13100
C 	C 	0.38956 0.02339 0.06142 0.04200
C 	C 	0.40710 0.00837 0.03869 -0.19200
C 	C 	0.47377 0.12417 0.07263 -0.08500
H 	H 	0.54320 0.18240 0.06550 0.05400
C 	C 	0.28869 0.93936 0.07260 -0.04800
H 	H 	0.23020 0.87030 0.06540 0.04900
C 	C 	0.36469 0.89595 0.02967 0.18200
N 	N 	0.33162 0.80280 0.02228 -0.28400
N 	N 	0.20661 0.52452 0.34933 -0.26900
C 	C 	0.14626 0.44077 0.35943 0.10900
C 	C 	0.05623 0.35672 0.39475 -0.00300
C 	C 	0.07377 0.34170 0.37203 -0.10700
C 	C 	0.14044 0.45750 0.40596 -0.04700
H 	H 	0.20987 0.51573 0.39883 0.04100
C 	C 	0.95536 0.27269 0.40594 -0.00700
H 	H 	0.89687 0.20363 0.39873 0.03800
C 	C 	0.03136 0.22928 0.36300 0.05300
N 	N 	0.99829 0.13613 0.35561 -0.22900
N 	N 	0.87327 0.85786 0.68266 -0.25000
C 	C 	0.81292 0.77411 0.69276 0.14100
C 	C 	0.72289 0.69006 0.72809 0.07200
C 	C 	0.74043 0.67504 0.70536 -0.14200
C 	C 	0.80710 0.79084 0.73929 -0.06600
H 	H 	0.87653 0.84907 0.73217 0.06700
C 	C 	0.62202 0.60603 0.73927 -0.06900
H 	H 	0.56353 0.53697 0.73207 0.05300
C 	C 	0.69802 0.56262 0.69634 0.13400
N 	N 	0.66495 0.46947 0.68895 -0.27300
N 	N 	0.80881 0.34875 0.01600 -0.26700
C 	C 	0.89256 0.37215 0.02609 0.12600
C 	C 	0.97661 0.36617 0.06142 0.09000
C 	C 	0.99163 0.39873 0.03869 -0.09800
C 	C 	0.87583 0.34960 0.07263 -0.05900
H 	H 	0.81760 0.36080 0.06550 0.04800
C 	C 	0.06064 0.34933 0.07260 -0.09700
H 	H 	0.12970 0.35990 0.06540 0.05300
C 	C 	0.10405 0.46874 0.02967 0.07600
N 	N 	0.19720 0.52882 0.02228 -0.26400
N 	N 	0.47548 0.68208 0.34933 -0.27100
C 	C 	0.55923 0.70548 0.35943 0.13400
C 	C 	0.64328 0.69950 0.39475 0.07200
C 	C 	0.65830 0.73206 0.37203 -0.14200
C 	C 	0.54250 0.68293 0.40596 -0.07000
H 	H 	0.48427 0.69413 0.39883 0.05200
C 	C 	0.72731 0.68266 0.40594 -0.06900
H 	H 	0.79637 0.69323 0.39873 0.06400
C 	C 	0.77072 0.80207 0.36300 0.14000
N 	N 	0.86387 0.86215 0.35561 -0.25100
N 	N 	0.14214 0.01542 0.68266 -0.29300
C 	C 	0.22589 0.03882 0.69276 0.12500
C 	C 	0.30994 0.03284 0.72809 0.14600
C 	C 	0.32496 0.06540 0.70536 -0.18100
C 	C 	0.20916 0.01627 0.73929 -0.21400
H 	H 	0.15093 0.02747 0.73217 0.07700
C 	C 	0.39397 0.01600 0.73927 -0.21100
H 	H 	0.46303 0.02657 0.73207 0.08900
C 	C 	0.43738 0.13541 0.69634 0.13400
N 	N 	0.53053 0.19549 0.68895 -0.27800
N 	N 	0.46006 0.65125 0.48400 -0.27000
C 	C 	0.52041 0.62785 0.47391 0.13400
C 	C 	0.61044 0.63383 0.43858 0.06900
C 	C 	0.59290 0.60127 0.46131 -0.14200
C 	C 	0.52623 0.65040 0.42737 -0.06800
H 	H 	0.45680 0.63920 0.43450 0.05000
C 	C 	0.71131 0.65067 0.42740 -0.06700
H 	H 	0.76980 0.64010 0.43460 0.06200
C 	C 	0.63531 0.53126 0.47033 0.13300
N 	N 	0.66838 0.47118 0.47772 -0.27100
N 	N 	0.12673 0.98458 0.81734 -0.26100
C 	C 	0.18708 0.96118 0.80724 0.12300
C 	C 	0.27711 0.96716 0.77191 -0.01700
C 	C 	0.25957 0.93460 0.79464 -0.10700
C 	C 	0.19290 0.98373 0.76071 0.06900
H 	H 	0.12347 0.97253 0.76783 0.00700
C 	C 	0.37798 0.98400 0.76073 0.06900
H 	H 	0.43647 0.97343 0.76793 0.02100
C 	C 	0.30198 0.86459 0.80366 0.12200
N 	N 	0.33505 0.80451 0.81105 -0.26700
N 	N 	0.79339 0.31792 0.15067 -0.27400
C 	C 	0.85374 0.29452 0.14057 0.14700
C 	C 	0.94377 0.30050 0.10525 0.13100
C 	C 	0.92623 0.26794 0.12797 -0.18000
C 	C 	0.85956 0.31707 0.09404 -0.09300
H 	H 	0.79013 0.30587 0.10117 0.05800
C 	C 	0.04464 0.31734 0.09406 -0.13400
H 	H 	0.10313 0.30677 0.10127 0.06200
C 	C 	0.96864 0.19793 0.13700 0.19400
N 	N 	0.00171 0.13785 0.14439 -0.32700
N 	N 	0.19119 0.53994 0.48400 -0.27700
C 	C 	0.10744 0.47959 0.47391 0.13100
C 	C 	0.02339 0.38956 0.43858 0.04200
C 	C 	0.00837 0.40710 0.46131 -0.19200
C 	C 	0.12417 0.47377 0.42737 -0.08500
H 	H 	0.18240 0.54320 0.43450 0.05400
C 	C 	0.93936 0.28869 0.42740 -0.04800
H 	H 	0.87030 0.23020 0.43460 0.04900
C 	C 	0.89595 0.36469 0.47033 0.18200
N 	N 	0.80280 0.33162 0.47772 -0.28400
N 	N 	0.85786 0.87327 0.81734 -0.25000
C 	C 	0.77411 0.81292 0.80724 0.14100
C 	C 	0.69006 0.72289 0.77191 0.07200
C 	C 	0.67504 0.74043 0.79464 -0.14200
C 	C 	0.79084 0.80710 0.76071 -0.06600
H 	H 	0.84907 0.87653 0.76783 0.06700
C 	C 	0.60603 0.62202 0.76073 -0.06900
H 	H 	0.53697 0.56353 0.76793 0.05300
C 	C 	0.56262 0.69802 0.80366 0.13400
N 	N 	0.46947 0.66495 0.81105 -0.27300
N 	N 	0.52452 0.20661 0.15067 -0.26900
C 	C 	0.44077 0.14626 0.14057 0.10900
C 	C 	0.35672 0.05623 0.10525 -0.00300
C 	C 	0.34170 0.07377 0.12797 -0.10700
C 	C 	0.45750 0.14044 0.09404 -0.04700
H 	H 	0.51573 0.20987 0.10117 0.04100
C 	C 	0.27269 0.95536 0.09406 -0.00700
H 	H 	0.20363 0.89687 0.10127 0.03800
C 	C 	0.22928 0.03136 0.13700 0.05300
N 	N 	0.13613 0.99829 0.14439 -0.22900
N 	N 	0.34875 0.80881 0.48400 -0.26700
C 	C 	0.37215 0.89256 0.47391 0.12600
C 	C 	0.36617 0.97661 0.43858 0.09000
C 	C 	0.39873 0.99163 0.46131 -0.09800
C 	C 	0.34960 0.87583 0.42737 -0.05900
H 	H 	0.36080 0.81760 0.43450 0.04800
C 	C 	0.34933 0.06064 0.42740 -0.09700
H 	H 	0.35990 0.12970 0.43460 0.05300
C 	C 	0.46874 0.10405 0.47033 0.07600
N 	N 	0.52882 0.19720 0.47772 -0.26400
N 	N 	0.01542 0.14214 0.81734 -0.29300
C 	C 	0.03882 0.22589 0.80724 0.12500
C 	C 	0.03284 0.30994 0.77191 0.14600
C 	C 	0.06540 0.32496 0.79464 -0.18100
C 	C 	0.01627 0.20916 0.76071 -0.21400
H 	H 	0.02747 0.15093 0.76783 0.07700
C 	C 	0.01600 0.39397 0.76073 -0.21100
H 	H 	0.02657 0.46303 0.76793 0.08900
C 	C 	0.13541 0.43738 0.80366 0.13400
N 	N 	0.19549 0.53053 0.81105 -0.27800
N 	N 	0.68208 0.47548 0.15067 -0.27100
C 	C 	0.70548 0.55923 0.14057 0.13400
C 	C 	0.69950 0.64328 0.10525 0.07200
C 	C 	0.73206 0.65830 0.12797 -0.14200
C 	C 	0.68293 0.54250 0.09404 -0.07000
H 	H 	0.69413 0.48427 0.10117 0.05200
C 	C 	0.68266 0.72731 0.09406 -0.06900
H 	H 	0.69323 0.79637 0.10127 0.06400
C 	C 	0.80207 0.77072 0.13700 0.14000
N 	N 	0.86215 0.86387 0.14439 -0.25100
Zn	Zn	0.33333 0.66667 0.00362 1.19100
Zn	Zn	-0.00000 0.00000 0.33695 1.16500
Zn	Zn	0.66667 0.33333 0.67028 1.19100
Zn	Zn	0.66667 0.33333 0.49638 1.19100
Zn	Zn	0.33333 0.66667 0.82972 1.19100
Zn	Zn	-0.00000 -0.00000 0.16305 1.16500
Zn	Zn	0.66667 0.33333 0.99638 1.19100
Zn	Zn	0.33333 0.66667 0.32972 1.19100
Zn	Zn	-0.00000 -0.00000 0.66305 1.16400
Zn	Zn	0.33333 0.66667 0.50362 1.19100
Zn	Zn	-0.00000 -0.00000 0.83695 1.16400
Zn	Zn	0.66667 0.33333 0.17028 1.19100
