data_crystal

_cell_length_a 19.26500
_cell_length_b 19.26500
_cell_length_c 15.91300
_cell_angle_alpha 90.00000
_cell_angle_beta  90.00000
_cell_angle_gamma 90.00000

_symmetry_space_group_name_	'P 1'
_symmetry_space_group_name_H-M	'P 1'

loop_
_symmetry_equiv_pos_as_xyz
  x,y,z

loop_
_atom_site_label
_atom_site_type_symbol
_atom_site_fract_x
_atom_site_fract_y
_atom_site_fract_z
_atom_site_charge
N 	N 	0.70370 0.31350 0.55740 -0.12000
O 	O 	0.59620 0.23990 0.82140 -0.39200
O 	O 	0.54500 0.31420 0.73820 -0.29800
C 	C 	0.59530 0.27830 0.75810 0.33000
C 	C 	0.65940 0.27900 0.70310 -0.06100
C 	C 	0.64440 0.31610 0.62090 0.08500
C 	C 	0.71980 0.24010 0.53060 0.05200
C 	C 	0.67970 0.35250 0.48300 0.04900
C 	C 	0.76860 0.34540 0.58970 0.04500
N 	N 	0.20370 0.81350 0.05740 -0.11900
O 	O 	0.09620 0.73990 0.32140 -0.40400
O 	O 	0.04500 0.81420 0.23820 -0.33400
C 	C 	0.09530 0.77830 0.25810 0.33300
C 	C 	0.15940 0.77900 0.20310 -0.06300
C 	C 	0.14440 0.81610 0.12090 0.07300
C 	C 	0.21980 0.74010 0.03060 0.05100
C 	C 	0.17970 0.85250 0.98300 0.04200
C 	C 	0.26860 0.84540 0.08970 0.04600
N 	N 	0.79630 0.68650 0.05740 -0.12200
O 	O 	0.90380 0.76010 0.32140 -0.37200
O 	O 	0.95500 0.68580 0.23820 -0.25700
C 	C 	0.90470 0.72170 0.25810 0.32600
C 	C 	0.84060 0.72100 0.20310 -0.05900
C 	C 	0.85560 0.68390 0.12090 0.09700
C 	C 	0.78020 0.75990 0.03060 0.05400
C 	C 	0.82030 0.64750 0.98300 0.05500
C 	C 	0.73140 0.65460 0.08970 0.04700
N 	N 	0.29630 0.18650 0.55740 -0.12000
O 	O 	0.40380 0.26010 0.82140 -0.39200
O 	O 	0.45500 0.18580 0.73820 -0.29800
C 	C 	0.40470 0.22170 0.75810 0.33000
C 	C 	0.34060 0.22100 0.70310 -0.06100
C 	C 	0.35560 0.18390 0.62090 0.08500
C 	C 	0.28020 0.25990 0.53060 0.05200
C 	C 	0.32030 0.14750 0.48300 0.04900
C 	C 	0.23140 0.15460 0.58970 0.04700
N 	N 	0.93650 0.45370 0.80740 -0.09400
O 	O 	0.01010 0.34620 0.07140 -0.48100
O 	O 	0.93580 0.29500 0.98820 -0.30300
C 	C 	0.97170 0.34530 0.00810 0.42900
C 	C 	0.97100 0.40940 0.95310 -0.04300
C 	C 	0.93390 0.39440 0.87090 0.10300
C 	C 	0.00990 0.46980 0.78060 -0.00600
C 	C 	0.89750 0.42970 0.73300 0.05900
C 	C 	0.90460 0.51860 0.83970 0.06100
N 	N 	0.43650 0.95370 0.30740 -0.12000
O 	O 	0.51010 0.84620 0.57140 -0.39200
O 	O 	0.43580 0.79500 0.48820 -0.29800
C 	C 	0.47170 0.84530 0.50810 0.33000
C 	C 	0.47100 0.90940 0.45310 -0.06100
C 	C 	0.43390 0.89440 0.37090 0.08500
C 	C 	0.50990 0.96980 0.28060 0.05200
C 	C 	0.39750 0.92970 0.23300 0.04800
C 	C 	0.40460 0.01860 0.33970 0.04600
N 	N 	0.56350 0.54630 0.30740 -0.12000
O 	O 	0.48990 0.65380 0.57140 -0.39200
O 	O 	0.56420 0.70500 0.48820 -0.29800
C 	C 	0.52830 0.65470 0.50810 0.33000
C 	C 	0.52900 0.59060 0.45310 -0.06100
C 	C 	0.56610 0.60560 0.37090 0.08500
C 	C 	0.49010 0.53020 0.28060 0.05200
C 	C 	0.60250 0.57030 0.23300 0.04900
C 	C 	0.59540 0.48140 0.33970 0.04600
N 	N 	0.06350 0.04630 0.80740 -0.14600
O 	O 	0.98990 0.15380 0.07140 -0.29500
O 	O 	0.06420 0.20500 0.98820 -0.28800
C 	C 	0.02830 0.15470 0.00810 0.23100
C 	C 	0.02900 0.09060 0.95310 -0.07900
C 	C 	0.06610 0.10560 0.87090 0.06800
C 	C 	0.99010 0.03020 0.78060 0.11100
C 	C 	0.10250 0.07030 0.73300 0.03900
C 	C 	0.09540 0.98140 0.83970 0.03200
N 	N 	0.79630 0.31350 0.44260 -0.12200
O 	O 	0.90380 0.23990 0.17860 -0.37200
O 	O 	0.95500 0.31420 0.26180 -0.25700
C 	C 	0.90470 0.27830 0.24190 0.32600
C 	C 	0.84060 0.27900 0.29690 -0.05900
C 	C 	0.85560 0.31610 0.37910 0.09700
C 	C 	0.78020 0.24010 0.46940 0.05400
C 	C 	0.82030 0.35250 0.51700 0.05600
C 	C 	0.73140 0.34540 0.41030 0.04700
N 	N 	0.29630 0.81350 0.94260 -0.12000
O 	O 	0.40380 0.73990 0.67860 -0.39200
O 	O 	0.45500 0.81420 0.76180 -0.29800
C 	C 	0.40470 0.77830 0.74190 0.33000
C 	C 	0.34060 0.77900 0.79690 -0.06100
C 	C 	0.35560 0.81610 0.87910 0.08500
C 	C 	0.28020 0.74010 0.96940 0.05200
C 	C 	0.32030 0.85250 0.01700 0.04900
C 	C 	0.23140 0.84540 0.91030 0.04700
N 	N 	0.70370 0.68650 0.94260 -0.12000
O 	O 	0.59620 0.76010 0.67860 -0.39200
O 	O 	0.54500 0.68580 0.76180 -0.29800
C 	C 	0.59530 0.72170 0.74190 0.33000
C 	C 	0.65940 0.72100 0.79690 -0.06100
C 	C 	0.64440 0.68390 0.87910 0.08500
C 	C 	0.71980 0.75990 0.96940 0.05200
C 	C 	0.67970 0.64750 0.01700 0.04800
C 	C 	0.76860 0.65460 0.91030 0.04500
N 	N 	0.20370 0.18650 0.44260 -0.11900
O 	O 	0.09620 0.26010 0.17860 -0.40400
O 	O 	0.04500 0.18580 0.26180 -0.33400
C 	C 	0.09530 0.22170 0.24190 0.33300
C 	C 	0.15940 0.22100 0.29690 -0.06300
C 	C 	0.14440 0.18390 0.37910 0.07300
C 	C 	0.21980 0.25990 0.46940 0.05100
C 	C 	0.17970 0.14750 0.51700 0.04200
C 	C 	0.26860 0.15460 0.41030 0.04600
N 	N 	0.56350 0.45370 0.19260 -0.12000
O 	O 	0.48990 0.34620 0.92860 -0.39200
O 	O 	0.56420 0.29500 0.01180 -0.29800
C 	C 	0.52830 0.34530 0.99190 0.33000
C 	C 	0.52900 0.40940 0.04690 -0.06100
C 	C 	0.56610 0.39440 0.12910 0.08500
C 	C 	0.49010 0.46980 0.21940 0.05200
C 	C 	0.60250 0.42970 0.26700 0.04900
C 	C 	0.59540 0.51860 0.16030 0.04600
N 	N 	0.06350 0.95370 0.69260 -0.14600
O 	O 	0.98990 0.84620 0.42860 -0.29400
O 	O 	0.06420 0.79500 0.51180 -0.28800
C 	C 	0.02830 0.84530 0.49190 0.22900
C 	C 	0.02900 0.90940 0.54690 -0.07900
C 	C 	0.06610 0.89440 0.62910 0.06800
C 	C 	0.99010 0.96980 0.71940 0.11100
C 	C 	0.10250 0.92970 0.76700 0.03900
C 	C 	0.09540 0.01860 0.66030 0.03200
N 	N 	0.93650 0.54630 0.69260 -0.09400
O 	O 	0.01010 0.65380 0.42860 -0.48200
O 	O 	0.93580 0.70500 0.51180 -0.30300
C 	C 	0.97170 0.65470 0.49190 0.43000
C 	C 	0.97100 0.59060 0.54690 -0.04200
C 	C 	0.93390 0.60560 0.62910 0.10300
C 	C 	0.00990 0.53020 0.71940 -0.00700
C 	C 	0.89750 0.57030 0.76700 0.05900
C 	C 	0.90460 0.48140 0.66030 0.06100
N 	N 	0.43650 0.04630 0.19260 -0.12000
O 	O 	0.51010 0.15380 0.92860 -0.39200
O 	O 	0.43580 0.20500 0.01180 -0.29800
C 	C 	0.47170 0.15470 0.99190 0.33000
C 	C 	0.47100 0.09060 0.04690 -0.06100
C 	C 	0.43390 0.10560 0.12910 0.08500
C 	C 	0.50990 0.03020 0.21940 0.05200
C 	C 	0.39750 0.07030 0.26700 0.04800
C 	C 	0.40460 0.98140 0.16030 0.04600
Zn	Zn	0.50000 0.25000 0.87500 1.23600
Zn	Zn	0.00000 0.75000 0.37500 1.21100
Zn	Zn	-0.00000 0.25000 0.12500 1.21100
Zn	Zn	0.50000 0.75000 0.62500 1.23600
N 	N 	0.29630 0.68650 0.44260 -0.12000
O 	O 	0.40380 0.76010 0.17860 -0.39200
O 	O 	0.45500 0.68580 0.26180 -0.29800
C 	C 	0.40470 0.72170 0.24190 0.33000
C 	C 	0.34060 0.72100 0.29690 -0.06100
C 	C 	0.35560 0.68390 0.37910 0.08500
C 	C 	0.28020 0.75990 0.46940 0.05200
C 	C 	0.32030 0.64750 0.51700 0.04900
C 	C 	0.23140 0.65460 0.41030 0.04700
N 	N 	0.79630 0.18650 0.94260 -0.12200
O 	O 	0.90380 0.26010 0.67860 -0.37200
O 	O 	0.95500 0.18580 0.76180 -0.25700
C 	C 	0.90470 0.22170 0.74190 0.32600
C 	C 	0.84060 0.22100 0.79690 -0.05900
C 	C 	0.85560 0.18390 0.87910 0.09700
C 	C 	0.78020 0.25990 0.96940 0.05400
C 	C 	0.82030 0.14750 0.01700 0.05500
C 	C 	0.73140 0.15460 0.91030 0.04700
N 	N 	0.20370 0.31350 0.94260 -0.11900
O 	O 	0.09620 0.23990 0.67860 -0.40400
O 	O 	0.04500 0.31420 0.76180 -0.33400
C 	C 	0.09530 0.27830 0.74190 0.33300
C 	C 	0.15940 0.27900 0.79690 -0.06300
C 	C 	0.14440 0.31610 0.87910 0.07300
C 	C 	0.21980 0.24010 0.96940 0.05100
C 	C 	0.17970 0.35250 0.01700 0.04200
C 	C 	0.26860 0.34540 0.91030 0.04500
N 	N 	0.70370 0.81350 0.44260 -0.12000
O 	O 	0.59620 0.73990 0.17860 -0.39200
O 	O 	0.54500 0.81420 0.26180 -0.29800
C 	C 	0.59530 0.77830 0.24190 0.33000
C 	C 	0.65940 0.77900 0.29690 -0.06100
C 	C 	0.64440 0.81610 0.37910 0.08500
C 	C 	0.71980 0.74010 0.46940 0.05200
C 	C 	0.67970 0.85250 0.51700 0.04900
C 	C 	0.76860 0.84540 0.41030 0.04500
N 	N 	0.06350 0.54630 0.19260 -0.14600
O 	O 	0.98990 0.65380 0.92860 -0.29500
O 	O 	0.06420 0.70500 0.01180 -0.28800
C 	C 	0.02830 0.65470 0.99190 0.23000
C 	C 	0.02900 0.59060 0.04690 -0.07900
C 	C 	0.06610 0.60560 0.12910 0.06800
C 	C 	0.99010 0.53020 0.21940 0.11200
C 	C 	0.10250 0.57030 0.26700 0.03900
C 	C 	0.09540 0.48140 0.16030 0.03100
N 	N 	0.56350 0.04630 0.69260 -0.12000
O 	O 	0.48990 0.15380 0.42860 -0.39200
O 	O 	0.56420 0.20500 0.51180 -0.29800
C 	C 	0.52830 0.15470 0.49190 0.33000
C 	C 	0.52900 0.09060 0.54690 -0.06100
C 	C 	0.56610 0.10560 0.62910 0.08500
C 	C 	0.49010 0.03020 0.71940 0.05200
C 	C 	0.60250 0.07030 0.76700 0.04900
C 	C 	0.59540 0.98140 0.66030 0.04600
N 	N 	0.43650 0.45370 0.69260 -0.12000
O 	O 	0.51010 0.34620 0.42860 -0.39200
O 	O 	0.43580 0.29500 0.51180 -0.29800
C 	C 	0.47170 0.34530 0.49190 0.33000
C 	C 	0.47100 0.40940 0.54690 -0.06100
C 	C 	0.43390 0.39440 0.62910 0.08500
C 	C 	0.50990 0.46980 0.71940 0.05200
C 	C 	0.39750 0.42970 0.76700 0.04800
C 	C 	0.40460 0.51860 0.66030 0.04600
N 	N 	0.93650 0.95370 0.19260 -0.09500
O 	O 	0.01010 0.84620 0.92860 -0.48000
O 	O 	0.93580 0.79500 0.01180 -0.30300
C 	C 	0.97170 0.84530 0.99190 0.42800
C 	C 	0.97100 0.90940 0.04690 -0.04300
C 	C 	0.93390 0.89440 0.12910 0.10200
C 	C 	0.00990 0.96980 0.21940 -0.00600
C 	C 	0.89750 0.92970 0.26700 0.05900
C 	C 	0.90460 0.01860 0.16030 0.06000
N 	N 	0.20370 0.68650 0.55740 -0.11900
O 	O 	0.09620 0.76010 0.82140 -0.40400
O 	O 	0.04500 0.68580 0.73820 -0.33400
C 	C 	0.09530 0.72170 0.75810 0.33300
C 	C 	0.15940 0.72100 0.70310 -0.06300
C 	C 	0.14440 0.68390 0.62090 0.07300
C 	C 	0.21980 0.75990 0.53060 0.05100
C 	C 	0.17970 0.64750 0.48300 0.04200
C 	C 	0.26860 0.65460 0.58970 0.04500
N 	N 	0.70370 0.18650 0.05740 -0.12000
O 	O 	0.59620 0.26010 0.32140 -0.39200
O 	O 	0.54500 0.18580 0.23820 -0.29800
C 	C 	0.59530 0.22170 0.25810 0.33000
C 	C 	0.65940 0.22100 0.20310 -0.06100
C 	C 	0.64440 0.18390 0.12090 0.08500
C 	C 	0.71980 0.25990 0.03060 0.05200
C 	C 	0.67970 0.14750 0.98300 0.04800
C 	C 	0.76860 0.15460 0.08970 0.04500
N 	N 	0.29630 0.31350 0.05740 -0.12000
O 	O 	0.40380 0.23990 0.32140 -0.39200
O 	O 	0.45500 0.31420 0.23820 -0.29800
C 	C 	0.40470 0.27830 0.25810 0.33000
C 	C 	0.34060 0.27900 0.20310 -0.06100
C 	C 	0.35560 0.31610 0.12090 0.08500
C 	C 	0.28020 0.24010 0.03060 0.05200
C 	C 	0.32030 0.35250 0.98300 0.04900
C 	C 	0.23140 0.34540 0.08970 0.04700
N 	N 	0.79630 0.81350 0.55740 -0.12200
O 	O 	0.90380 0.73990 0.82140 -0.37200
O 	O 	0.95500 0.81420 0.73820 -0.25700
C 	C 	0.90470 0.77830 0.75810 0.32600
C 	C 	0.84060 0.77900 0.70310 -0.05900
C 	C 	0.85560 0.81610 0.62090 0.09700
C 	C 	0.78020 0.74010 0.53060 0.05400
C 	C 	0.82030 0.85250 0.48300 0.05600
C 	C 	0.73140 0.84540 0.58970 0.04700
N 	N 	0.43650 0.54630 0.80740 -0.12000
O 	O 	0.51010 0.65380 0.07140 -0.39200
O 	O 	0.43580 0.70500 0.98820 -0.29800
C 	C 	0.47170 0.65470 0.00810 0.33000
C 	C 	0.47100 0.59060 0.95310 -0.06100
C 	C 	0.43390 0.60560 0.87090 0.08500
C 	C 	0.50990 0.53020 0.78060 0.05200
C 	C 	0.39750 0.57030 0.73300 0.04800
C 	C 	0.40460 0.48140 0.83970 0.04600
N 	N 	0.93650 0.04630 0.30740 -0.09400
O 	O 	0.01010 0.15380 0.57140 -0.48100
O 	O 	0.93580 0.20500 0.48820 -0.30300
C 	C 	0.97170 0.15470 0.50810 0.43000
C 	C 	0.97100 0.09060 0.45310 -0.04300
C 	C 	0.93390 0.10560 0.37090 0.10300
C 	C 	0.00990 0.03020 0.28060 -0.00600
C 	C 	0.89750 0.07030 0.23300 0.05900
C 	C 	0.90460 0.98140 0.33970 0.06100
N 	N 	0.06350 0.45370 0.30740 -0.14600
O 	O 	0.98990 0.34620 0.57140 -0.29300
O 	O 	0.06420 0.29500 0.48820 -0.28800
C 	C 	0.02830 0.34530 0.50810 0.22800
C 	C 	0.02900 0.40940 0.45310 -0.08000
C 	C 	0.06610 0.39440 0.37090 0.06800
C 	C 	0.99010 0.46980 0.28060 0.11200
C 	C 	0.10250 0.42970 0.23300 0.03900
C 	C 	0.09540 0.51860 0.33970 0.03100
N 	N 	0.56350 0.95370 0.80740 -0.12000
O 	O 	0.48990 0.84620 0.07140 -0.39200
O 	O 	0.56420 0.79500 0.98820 -0.29800
C 	C 	0.52830 0.84530 0.00810 0.33000
C 	C 	0.52900 0.90940 0.95310 -0.06100
C 	C 	0.56610 0.89440 0.87090 0.08500
C 	C 	0.49010 0.96980 0.78060 0.05200
C 	C 	0.60250 0.92970 0.73300 0.04900
C 	C 	0.59540 0.01860 0.83970 0.04600
Zn	Zn	0.50000 0.75000 0.12500 1.23600
Zn	Zn	-0.00000 0.25000 0.62500 1.21100
Zn	Zn	0.00000 0.75000 0.87500 1.21100
Zn	Zn	0.50000 0.25000 0.37500 1.23600
