data_crystal

_cell_length_a 18.55900
_cell_length_b 18.55900
_cell_length_c 10.98000
_cell_angle_alpha 90.00000
_cell_angle_beta  90.00000
_cell_angle_gamma 120.00000

_symmetry_space_group_name_	'P 1'
_symmetry_space_group_name_H-M	'P 1'

loop_
_symmetry_equiv_pos_as_xyz
  x,y,z

loop_
_atom_site_label
_atom_site_type_symbol
_atom_site_fract_x
_atom_site_fract_y
_atom_site_fract_z
_atom_site_charge
S 	S 	0.05860 0.22770 0.04890 0.00400
O 	O 	0.37154 0.48137 0.50980 -0.40700
O 	O 	0.41101 0.44020 0.34380 -0.40000
C 	C 	0.35920 0.45040 0.40590 0.35700
C 	C 	0.27640 0.42320 0.34760 -0.07400
C 	C 	0.25470 0.38140 0.23700 -0.02600
H 	H 	0.29170 0.36680 0.19930 0.06100
S 	S 	0.77230 0.83090 0.04890 0.00400
O 	O 	0.51863 0.89017 0.50980 -0.40800
O 	O 	0.55980 0.97081 0.34380 -0.40100
C 	C 	0.54960 0.90880 0.40590 0.35600
C 	C 	0.57680 0.85320 0.34760 -0.07400
C 	C 	0.61860 0.87330 0.23700 -0.02700
H 	H 	0.63320 0.92490 0.19930 0.06000
S 	S 	0.16910 0.94140 0.04890 0.00400
O 	O 	0.10983 0.62846 0.50980 -0.40800
O 	O 	0.02919 0.58899 0.34380 -0.40100
C 	C 	0.09120 0.64080 0.40590 0.35600
C 	C 	0.14680 0.72360 0.34760 -0.07400
C 	C 	0.12670 0.74530 0.23700 -0.02700
H 	H 	0.07510 0.70830 0.19930 0.06100
S 	S 	0.22770 0.05860 0.95110 0.00300
O 	O 	0.48137 0.37154 0.49020 -0.40800
O 	O 	0.44020 0.41101 0.65620 -0.40100
C 	C 	0.45040 0.35920 0.59410 0.35600
C 	C 	0.42320 0.27640 0.65240 -0.07500
C 	C 	0.38140 0.25470 0.76300 -0.02700
H 	H 	0.36680 0.29170 0.80070 0.06000
S 	S 	0.83090 0.77230 0.95110 0.00300
O 	O 	0.89017 0.51863 0.49020 -0.40800
O 	O 	0.97081 0.55980 0.65620 -0.40100
C 	C 	0.90880 0.54960 0.59410 0.35600
C 	C 	0.85320 0.57680 0.65240 -0.07400
C 	C 	0.87330 0.61860 0.76300 -0.02700
H 	H 	0.92490 0.63320 0.80070 0.06000
S 	S 	0.94140 0.16910 0.95110 0.00400
O 	O 	0.62846 0.10983 0.49020 -0.40800
O 	O 	0.58899 0.02919 0.65620 -0.40100
C 	C 	0.64080 0.09120 0.59410 0.35600
C 	C 	0.72360 0.14680 0.65240 -0.07400
C 	C 	0.74530 0.12670 0.76300 -0.02700
H 	H 	0.70830 0.07510 0.80070 0.06100
S 	S 	0.94140 0.77230 0.95110 0.00300
O 	O 	0.62846 0.51863 0.49020 -0.40800
O 	O 	0.58899 0.55980 0.65620 -0.40100
C 	C 	0.64080 0.54960 0.59410 0.35600
C 	C 	0.72360 0.57680 0.65240 -0.07500
C 	C 	0.74530 0.61860 0.76300 -0.02700
H 	H 	0.70830 0.63320 0.80070 0.06000
S 	S 	0.22770 0.16910 0.95110 0.00300
O 	O 	0.48137 0.10983 0.49020 -0.40800
O 	O 	0.44020 0.02919 0.65620 -0.40100
C 	C 	0.45040 0.09120 0.59410 0.35600
C 	C 	0.42320 0.14680 0.65240 -0.07400
C 	C 	0.38140 0.12670 0.76300 -0.02700
H 	H 	0.36680 0.07510 0.80070 0.06000
S 	S 	0.83090 0.05860 0.95110 0.00400
O 	O 	0.89017 0.37154 0.49020 -0.40800
O 	O 	0.97081 0.41101 0.65620 -0.40100
C 	C 	0.90880 0.35920 0.59410 0.35600
C 	C 	0.85320 0.27640 0.65240 -0.07400
C 	C 	0.87330 0.25470 0.76300 -0.02700
H 	H 	0.92490 0.29170 0.80070 0.06100
S 	S 	0.77230 0.94140 0.04890 0.00300
O 	O 	0.51863 0.62846 0.50980 -0.40800
O 	O 	0.55980 0.58899 0.34380 -0.40100
C 	C 	0.54960 0.64080 0.40590 0.35600
C 	C 	0.57680 0.72360 0.34760 -0.07500
C 	C 	0.61860 0.74530 0.23700 -0.02700
H 	H 	0.63320 0.70830 0.19930 0.06000
S 	S 	0.16910 0.22770 0.04890 0.00300
O 	O 	0.10983 0.48137 0.50980 -0.40800
O 	O 	0.02919 0.44020 0.34380 -0.40100
C 	C 	0.09120 0.45040 0.40590 0.35600
C 	C 	0.14680 0.42320 0.34760 -0.07400
C 	C 	0.12670 0.38140 0.23700 -0.02700
H 	H 	0.07510 0.36680 0.19930 0.06000
S 	S 	0.05860 0.83090 0.04890 0.00400
O 	O 	0.37154 0.89017 0.50980 -0.40800
O 	O 	0.41101 0.97081 0.34380 -0.40100
C 	C 	0.35920 0.90880 0.40590 0.35600
C 	C 	0.27640 0.85320 0.34760 -0.07400
C 	C 	0.25470 0.87330 0.23700 -0.02700
H 	H 	0.29170 0.92490 0.19930 0.06100
Cu	Cu	0.47617 0.52383 0.59810 0.90700
Cu	Cu	0.47617 0.95234 0.59810 0.90600
Cu	Cu	0.04766 0.52383 0.59810 0.90600
Cu	Cu	0.52383 0.47617 0.40190 0.90700
Cu	Cu	0.95234 0.47617 0.40190 0.90600
Cu	Cu	0.52383 0.04766 0.40190 0.90600
C 	C 	0.18045 0.36090 0.18080 0.01900
C 	C 	0.22170 0.44340 0.40350 0.02000
H 	H 	0.23550 0.47100 0.48000 0.05600
C 	C 	0.08215 0.16430 0.16710 -0.00400
C 	C 	0.15880 0.31760 0.05490 -0.01700
C 	C 	0.63910 0.81955 0.18080 0.01900
C 	C 	0.55660 0.77830 0.40350 0.02000
H 	H 	0.52900 0.76450 0.48000 0.05600
C 	C 	0.83570 0.91785 0.16710 -0.00400
C 	C 	0.68240 0.84120 0.05490 -0.01700
C 	C 	0.18045 0.81955 0.18080 0.01900
C 	C 	0.22170 0.77830 0.40350 0.02000
H 	H 	0.23550 0.76450 0.48000 0.05600
C 	C 	0.08215 0.91785 0.16710 -0.00400
C 	C 	0.15880 0.84120 0.05490 -0.01800
C 	C 	0.36090 0.18045 0.81920 0.01900
C 	C 	0.44340 0.22170 0.59650 0.02000
H 	H 	0.47100 0.23550 0.52000 0.05600
C 	C 	0.16430 0.08215 0.83290 -0.00400
C 	C 	0.31760 0.15880 0.94510 -0.01700
C 	C 	0.81955 0.63910 0.81920 0.01900
C 	C 	0.77830 0.55660 0.59650 0.02000
H 	H 	0.76450 0.52900 0.52000 0.05600
C 	C 	0.91785 0.83570 0.83290 -0.00400
C 	C 	0.84120 0.68240 0.94510 -0.01700
C 	C 	0.81955 0.18045 0.81920 0.01900
C 	C 	0.77830 0.22170 0.59650 0.02000
H 	H 	0.76450 0.23550 0.52000 0.05600
C 	C 	0.91785 0.08215 0.83290 -0.00400
C 	C 	0.84120 0.15880 0.94510 -0.01800
