data_crystal

_cell_length_a 5.30500
_cell_length_b 9.29600
_cell_length_c 15.47400
_cell_angle_alpha 86.46200
_cell_angle_beta  86.42000
_cell_angle_gamma 78.90600

_symmetry_space_group_name_	'P 1'
_symmetry_space_group_name_H-M	'P 1'

loop_
_symmetry_equiv_pos_as_xyz
  x,y,z

loop_
_atom_site_label
_atom_site_type_symbol
_atom_site_fract_x
_atom_site_fract_y
_atom_site_fract_z
_atom_site_charge
Zn	Zn	0.77560 0.61900 0.26355 1.21300
Zn	Zn	0.27790 0.55550 0.39633 1.22100
Zn	Zn	0.20570 0.57550 0.09975 1.22300
Zn	Zn	0.01540 0.15090 0.25745 1.19600
P 	P 	0.76210 0.39560 0.11850 0.57400
P 	P 	0.82730 0.36320 0.40730 0.53800
P 	P 	0.21210 0.79600 0.24050 0.54600
O 	O 	0.10000 0.67370 0.29820 -0.64900
O 	O 	0.89000 0.51480 0.15750 -0.65600
O 	O 	0.64900 0.49640 0.36060 -0.64700
O 	O 	0.49200 0.78050 0.25930 -0.51800
O 	O 	0.10100 0.39130 0.40200 -0.53800
O 	O 	0.28200 0.65650 0.50010 -0.49000
O 	O 	0.47600 0.42850 0.15040 -0.52600
O 	O 	0.17700 0.76860 0.14510 -0.49700
O 	O 	0.20600 0.59160 0.97870 -0.52600
O 	O 	0.81500 0.22340 0.36070 -0.47000
O 	O 	0.06000 0.94380 0.26510 -0.49000
O 	O 	0.88400 0.24450 0.15140 -0.50300
Zn	Zn	0.22440 0.38100 0.73645 1.21200
Zn	Zn	0.72210 0.44450 0.60367 1.22000
Zn	Zn	0.79430 0.42450 0.90025 1.22300
Zn	Zn	0.98460 0.84910 0.74255 1.19600
P 	P 	0.23790 0.60440 0.88150 0.57400
P 	P 	0.17270 0.63680 0.59270 0.53800
P 	P 	0.78790 0.20400 0.75950 0.54600
O 	O 	0.90000 0.32630 0.70180 -0.64900
O 	O 	0.11000 0.48520 0.84250 -0.65600
O 	O 	0.35100 0.50360 0.63940 -0.64700
O 	O 	0.50800 0.21950 0.74070 -0.51800
O 	O 	0.89900 0.60870 0.59800 -0.53800
O 	O 	0.71800 0.34350 0.49990 -0.49000
O 	O 	0.52400 0.57150 0.84960 -0.52600
O 	O 	0.82300 0.23140 0.85490 -0.49700
O 	O 	0.79400 0.40840 0.02130 -0.52600
O 	O 	0.18500 0.77660 0.63930 -0.47000
O 	O 	0.94000 0.05620 0.73490 -0.49000
O 	O 	0.11600 0.75550 0.84860 -0.50300
