data_crystal

_cell_length_a 10.95900
_cell_length_b 16.56500
_cell_length_c 19.75000
_cell_angle_alpha 90.00000
_cell_angle_beta  90.00000
_cell_angle_gamma 90.00000

_symmetry_space_group_name_	'P 1'
_symmetry_space_group_name_H-M	'P 1'

loop_
_symmetry_equiv_pos_as_xyz
  x,y,z

loop_
_atom_site_label
_atom_site_type_symbol
_atom_site_fract_x
_atom_site_fract_y
_atom_site_fract_z
_atom_site_charge
Eu	Eu	0.70744 0.75000 0.29601 1.81100
Eu	Eu	0.79256 0.25000 0.79601 1.81200
Eu	Eu	0.20744 0.75000 0.20399 1.81100
Eu	Eu	0.29256 0.25000 0.70399 1.81000
H 	H 	0.18730 0.56940 0.46720 0.09700
H 	H 	0.56930 0.31860 0.01340 0.09200
H 	H 	0.47600 0.50810 0.17280 -0.00100
H 	H 	0.31530 0.25000 0.90650 0.02600
H 	H 	0.93070 0.81860 0.51340 0.09100
H 	H 	0.48310 0.75000 0.57160 0.05600
H 	H 	0.02790 0.82900 0.45570 0.08000
H 	H 	0.02400 0.49190 0.67280 -0.00200
H 	H 	0.31270 0.43060 0.96720 0.09600
H 	H 	0.18730 0.93060 0.46720 0.09700
H 	H 	0.45830 0.60790 0.87900 0.10900
H 	H 	0.34930 0.25000 0.19100 0.28400
H 	H 	0.97210 0.32900 0.54430 0.08000
H 	H 	0.54170 0.39210 0.12100 0.10900
H 	H 	0.46410 0.25000 0.54170 0.03700
H 	H 	0.52790 0.82900 0.04430 0.07900
H 	H 	0.52400 0.49190 0.82720 -0.00100
H 	H 	0.24610 0.95160 0.01810 0.01100
H 	H 	0.06930 0.18140 0.48660 0.09100
H 	H 	0.15070 0.75000 0.69100 0.28400
H 	H 	0.97600 0.50810 0.32720 -0.00200
H 	H 	0.18470 0.75000 0.40650 0.02500
H 	H 	0.54170 0.10790 0.12100 0.10900
H 	H 	0.95830 0.89210 0.62100 0.10900
H 	H 	0.65070 0.75000 0.80900 0.28400
H 	H 	0.68730 0.93060 0.03280 0.09400
H 	H 	0.97600 0.99190 0.32720 -0.00500
H 	H 	0.02790 0.67100 0.45570 0.08000
H 	H 	0.93070 0.68140 0.51340 0.09200
H 	H 	0.84930 0.25000 0.30900 0.28400
H 	H 	0.98310 0.75000 0.92840 0.05400
H 	H 	0.75390 0.04840 0.98190 0.01100
H 	H 	0.47210 0.32900 0.95570 0.07900
H 	H 	0.31270 0.06940 0.96720 0.09400
H 	H 	0.52400 0.00810 0.82720 -0.00300
H 	H 	0.97210 0.17100 0.54430 0.08000
H 	H 	0.47210 0.17100 0.95570 0.07900
H 	H 	0.02400 0.00810 0.67280 -0.00500
H 	H 	0.43070 0.81860 0.98660 0.09100
H 	H 	0.24610 0.54840 0.01810 0.01000
H 	H 	0.06930 0.31860 0.48660 0.09200
H 	H 	0.51690 0.25000 0.42840 0.05600
H 	H 	0.68470 0.75000 0.09350 0.02600
H 	H 	0.81530 0.25000 0.59350 0.02500
H 	H 	0.04170 0.10790 0.37900 0.10900
H 	H 	0.68730 0.56940 0.03280 0.09600
H 	H 	0.04170 0.39210 0.37900 0.10900
H 	H 	0.53590 0.75000 0.45830 0.03700
H 	H 	0.56930 0.18140 0.01340 0.09100
H 	H 	0.25390 0.45160 0.51810 0.01000
H 	H 	0.01690 0.25000 0.07160 0.05400
H 	H 	0.74610 0.95160 0.48190 0.01000
H 	H 	0.96410 0.25000 0.95830 0.04100
H 	H 	0.81270 0.06940 0.53280 0.09700
H 	H 	0.75390 0.45160 0.98190 0.01000
H 	H 	0.52790 0.67100 0.04430 0.07900
H 	H 	0.43070 0.68140 0.98660 0.09200
H 	H 	0.47600 0.99190 0.17280 -0.00300
H 	H 	0.45830 0.89210 0.87900 0.10900
H 	H 	0.81270 0.43060 0.53280 0.09700
H 	H 	0.03590 0.75000 0.04170 0.04100
H 	H 	0.25390 0.04840 0.51810 0.01000
H 	H 	0.74610 0.54840 0.48190 0.01000
H 	H 	0.95830 0.60790 0.62100 0.10900
C 	C 	0.48270 0.32390 0.00430 -0.18100
C 	C 	0.15390 0.55360 0.50840 -0.19100
C 	C 	0.80580 0.51730 0.46090 0.09500
C 	C 	0.94300 0.00680 0.36880 0.10400
C 	C 	0.36540 0.75000 0.42210 -0.14500
C 	C 	0.79080 0.25000 0.49110 0.08400
C 	C 	0.68740 0.11770 0.86640 0.34000
C 	C 	0.20920 0.75000 0.50890 0.08400
C 	C 	0.04590 0.25000 0.97080 0.01000
C 	C 	0.44300 0.49320 0.13120 0.09800
C 	C 	0.43520 0.39940 0.03850 0.16800
C 	C 	0.80030 0.75000 0.94160 -0.10400
C 	C 	0.31260 0.88230 0.13360 0.34000
C 	C 	0.68740 0.38230 0.86640 0.34000
C 	C 	0.81260 0.88230 0.36640 0.34100
C 	C 	0.19420 0.48270 0.53910 0.09500
C 	C 	0.13460 0.25000 0.92210 -0.14000
C 	C 	0.64620 0.04210 0.89910 -0.15900
C 	C 	0.51730 0.67610 0.99570 -0.18100
C 	C 	0.35380 0.95790 0.10090 -0.15900
C 	C 	0.14620 0.04210 0.60090 -0.16200
C 	C 	0.51730 0.82390 0.99570 -0.18000
C 	C 	0.89760 0.75000 0.15290 0.53400
C 	C 	0.01730 0.82390 0.50430 -0.18200
C 	C 	0.65390 0.94640 0.99160 -0.18600
C 	C 	0.93520 0.39940 0.46150 0.16900
C 	C 	0.54590 0.25000 0.52920 0.02000
C 	C 	0.64620 0.45790 0.89910 -0.15800
C 	C 	0.14620 0.45790 0.60090 -0.15900
C 	C 	0.80580 0.98270 0.46090 0.09500
C 	C 	0.72690 0.25000 0.36700 0.39600
C 	C 	0.48230 0.07640 0.10010 -0.19300
C 	C 	0.77310 0.75000 0.86700 0.39700
C 	C 	0.05700 0.50680 0.63120 0.09900
C 	C 	0.06480 0.60060 0.53850 0.16900
C 	C 	0.85380 0.95790 0.39910 -0.16200
C 	C 	0.34610 0.05360 0.00840 -0.18600
C 	C 	0.01770 0.92360 0.60010 -0.19500
C 	C 	0.94300 0.49320 0.36880 0.09900
C 	C 	0.39760 0.75000 0.34710 0.53700
C 	C 	0.10240 0.25000 0.84710 0.53400
C 	C 	0.63460 0.25000 0.57790 -0.14500
C 	C 	0.07770 0.25000 0.03880 -0.02000
C 	C 	0.45410 0.75000 0.47080 0.02000
C 	C 	0.95410 0.75000 0.02920 0.01000
C 	C 	0.98230 0.42360 0.39990 -0.19400
C 	C 	0.30580 0.98270 0.03910 0.09100
C 	C 	0.34610 0.44640 0.00840 -0.19000
C 	C 	0.48230 0.42360 0.10010 -0.19300
C 	C 	0.05700 0.99320 0.63120 0.10400
C 	C 	0.30580 0.51730 0.03910 0.09400
C 	C 	0.93520 0.10060 0.46150 0.17000
C 	C 	0.55700 0.50680 0.86880 0.09800
C 	C 	0.19420 0.01730 0.53910 0.09500
C 	C 	0.70920 0.75000 0.99110 0.08700
C 	C 	0.57770 0.25000 0.46120 -0.02700
C 	C 	0.56480 0.60060 0.96150 0.16800
C 	C 	0.18740 0.11770 0.63360 0.34100
C 	C 	0.51770 0.92360 0.89990 -0.19300
C 	C 	0.18740 0.38230 0.63360 0.34000
C 	C 	0.65390 0.55360 0.99160 -0.19000
C 	C 	0.86540 0.75000 0.07790 -0.14000
C 	C 	0.69420 0.48270 0.96090 0.09400
C 	C 	0.51770 0.57640 0.89990 -0.19300
C 	C 	0.01770 0.57640 0.60010 -0.19400
C 	C 	0.30030 0.75000 0.55840 -0.10100
C 	C 	0.92230 0.75000 0.96120 -0.02000
C 	C 	0.75570 0.25000 0.55990 -0.03100
C 	C 	0.74430 0.75000 0.05990 -0.03600
C 	C 	0.35380 0.54210 0.10090 -0.15800
C 	C 	0.85380 0.54210 0.39910 -0.15900
C 	C 	0.01730 0.67610 0.50430 -0.18200
C 	C 	0.69420 0.01730 0.96090 0.09100
C 	C 	0.43520 0.10060 0.03850 0.16700
C 	C 	0.98270 0.32390 0.49570 -0.18200
C 	C 	0.98270 0.17610 0.49570 -0.18200
C 	C 	0.84610 0.44640 0.49160 -0.19100
C 	C 	0.06480 0.89940 0.53850 0.17000
C 	C 	0.48270 0.17610 0.00430 -0.18000
C 	C 	0.98230 0.07640 0.39990 -0.19500
C 	C 	0.27310 0.75000 0.63300 0.39600
C 	C 	0.25570 0.25000 0.94010 -0.03600
C 	C 	0.60240 0.25000 0.65290 0.53700
C 	C 	0.31260 0.61770 0.13360 0.34000
C 	C 	0.15390 0.94640 0.50840 -0.19100
C 	C 	0.84610 0.05360 0.49160 -0.19100
C 	C 	0.19970 0.25000 0.05840 -0.10400
C 	C 	0.55700 0.99320 0.86880 0.10000
C 	C 	0.29080 0.25000 0.00890 0.08700
C 	C 	0.56480 0.89940 0.96150 0.16700
C 	C 	0.69970 0.25000 0.44160 -0.10100
C 	C 	0.42230 0.75000 0.53880 -0.02700
C 	C 	0.24430 0.75000 0.44010 -0.03100
C 	C 	0.81260 0.61770 0.36640 0.34000
C 	C 	0.22690 0.25000 0.13300 0.39700
C 	C 	0.44300 0.00680 0.13120 0.10000
N 	N 	0.58180 0.75000 0.97160 -0.06200
N 	N 	0.08180 0.75000 0.52840 -0.06100
N 	N 	0.41820 0.25000 0.02840 -0.06200
N 	N 	0.91820 0.25000 0.47160 -0.06100
O 	O 	0.18610 0.25000 0.80540 -0.56500
O 	O 	0.34280 0.25000 0.14970 -0.47400
O 	O 	0.22280 0.65470 0.10960 -0.42200
O 	O 	0.13580 0.35610 0.68630 -0.43700
O 	O 	0.65720 0.75000 0.85030 -0.47400
O 	O 	0.64760 0.25000 0.32590 -0.29600
O 	O 	0.31390 0.75000 0.30540 -0.56600
O 	O 	0.77720 0.34530 0.89040 -0.42200
O 	O 	0.13580 0.14390 0.68630 -0.43700
O 	O 	0.63580 0.35610 0.81370 -0.43600
O 	O 	0.49240 0.25000 0.66720 -0.55700
O 	O 	0.63580 0.14390 0.81370 -0.43600
O 	O 	0.77720 0.15470 0.89040 -0.42200
O 	O 	0.72280 0.84530 0.39040 -0.42200
O 	O 	0.00760 0.75000 0.16720 -0.55500
O 	O 	0.22280 0.84530 0.10960 -0.42200
O 	O 	0.27720 0.34530 0.60960 -0.42200
O 	O 	0.36420 0.64390 0.18630 -0.43600
O 	O 	0.14760 0.25000 0.17410 -0.29600
O 	O 	0.72280 0.65470 0.39040 -0.42200
O 	O 	0.99240 0.25000 0.83280 -0.55500
O 	O 	0.35240 0.75000 0.67410 -0.29600
O 	O 	0.36420 0.85610 0.18630 -0.43600
O 	O 	0.15720 0.75000 0.64970 -0.47300
O 	O 	0.85240 0.75000 0.82590 -0.29600
O 	O 	0.50760 0.75000 0.33280 -0.55700
O 	O 	0.84280 0.25000 0.35030 -0.47300
O 	O 	0.86420 0.64390 0.31370 -0.43700
O 	O 	0.86420 0.85610 0.31370 -0.43700
O 	O 	0.27720 0.15470 0.60960 -0.42200
O 	O 	0.68610 0.25000 0.69460 -0.56600
O 	O 	0.81390 0.75000 0.19460 -0.56500
