data_crystal

_cell_length_a 10.91300
_cell_length_b 16.54200
_cell_length_c 19.79300
_cell_angle_alpha 90.00000
_cell_angle_beta  90.00000
_cell_angle_gamma 90.00000

_symmetry_space_group_name_	'P 1'
_symmetry_space_group_name_H-M	'P 1'

loop_
_symmetry_equiv_pos_as_xyz
  x,y,z

loop_
_atom_site_label
_atom_site_type_symbol
_atom_site_fract_x
_atom_site_fract_y
_atom_site_fract_z
_atom_site_charge
Tb	Tb	0.20671 0.75000 0.20436 1.71800
Tb	Tb	0.79329 0.25000 0.79564 1.71800
Tb	Tb	0.29329 0.25000 0.70436 1.71700
Tb	Tb	0.70671 0.75000 0.29564 1.71700
H 	H 	0.57100 0.18160 0.01410 0.09100
H 	H 	0.31750 0.25000 0.90580 0.03100
H 	H 	0.81030 0.06850 0.53160 0.09800
H 	H 	0.42900 0.81840 0.98590 0.09100
H 	H 	0.02420 0.00990 0.67290 -0.00200
H 	H 	0.75550 0.45210 0.98060 0.01100
H 	H 	0.96040 0.25000 0.95730 0.04500
H 	H 	0.65370 0.75000 0.80860 0.28000
H 	H 	0.98630 0.75000 0.93020 0.05400
H 	H 	0.54160 0.39350 0.12200 0.10700
H 	H 	0.48630 0.75000 0.56980 0.05600
H 	H 	0.07100 0.31840 0.48590 0.09100
H 	H 	0.04160 0.39350 0.37800 0.10700
H 	H 	0.47430 0.17090 0.95600 0.08000
H 	H 	0.95840 0.60650 0.62200 0.10700
H 	H 	0.46040 0.25000 0.54270 0.04100
H 	H 	0.92900 0.81840 0.51410 0.09100
H 	H 	0.25550 0.04790 0.51940 0.01000
H 	H 	0.97580 0.50990 0.32710 0.00100
H 	H 	0.68970 0.93150 0.03160 0.09500
H 	H 	0.25550 0.45210 0.51940 0.01000
H 	H 	0.45840 0.60650 0.87800 0.10700
H 	H 	0.97430 0.17090 0.54400 0.08100
H 	H 	0.18970 0.93150 0.46840 0.09800
H 	H 	0.07100 0.18160 0.48590 0.09100
H 	H 	0.97430 0.32910 0.54400 0.08100
H 	H 	0.97580 0.99010 0.32710 -0.00200
H 	H 	0.51370 0.25000 0.43020 0.05600
H 	H 	0.34630 0.25000 0.19140 0.28000
H 	H 	0.45840 0.89350 0.87800 0.10700
H 	H 	0.81030 0.43150 0.53160 0.09800
H 	H 	0.42900 0.68160 0.98590 0.09100
H 	H 	0.84630 0.25000 0.30860 0.28000
H 	H 	0.03960 0.75000 0.04270 0.04500
H 	H 	0.18250 0.75000 0.40580 0.03000
H 	H 	0.52570 0.67090 0.04400 0.08000
H 	H 	0.47580 0.50990 0.17290 0.00100
H 	H 	0.15370 0.75000 0.69140 0.28000
H 	H 	0.01370 0.25000 0.06980 0.05400
H 	H 	0.54160 0.10650 0.12200 0.10700
H 	H 	0.31030 0.43150 0.96840 0.09700
H 	H 	0.68250 0.75000 0.09420 0.03100
H 	H 	0.92900 0.68160 0.51410 0.09100
H 	H 	0.52570 0.82910 0.04400 0.08000
H 	H 	0.74450 0.54790 0.48060 0.01000
H 	H 	0.47580 0.99010 0.17290 0.00000
H 	H 	0.31030 0.06850 0.96840 0.09500
H 	H 	0.74450 0.95210 0.48060 0.01000
H 	H 	0.02570 0.67090 0.45600 0.08100
H 	H 	0.57100 0.31840 0.01410 0.09100
H 	H 	0.75550 0.04790 0.98060 0.01100
H 	H 	0.95840 0.89350 0.62200 0.10700
H 	H 	0.81750 0.25000 0.59420 0.03000
H 	H 	0.68970 0.56850 0.03160 0.09700
H 	H 	0.04160 0.10650 0.37800 0.10700
H 	H 	0.52420 0.49010 0.82710 0.00100
H 	H 	0.24450 0.54790 0.01940 0.01100
H 	H 	0.52420 0.00990 0.82710 0.00000
H 	H 	0.02420 0.49010 0.67290 0.00100
H 	H 	0.47430 0.32910 0.95600 0.08000
H 	H 	0.53960 0.75000 0.45730 0.04100
H 	H 	0.18970 0.56850 0.46840 0.09800
H 	H 	0.24450 0.95210 0.01940 0.01100
H 	H 	0.02570 0.82910 0.45600 0.08100
C 	C 	0.39730 0.75000 0.34660 0.53000
C 	C 	0.51810 0.57540 0.89910 -0.18700
C 	C 	0.65560 0.55290 0.99060 -0.18700
C 	C 	0.69750 0.25000 0.44240 -0.09800
C 	C 	0.93500 0.10060 0.46080 0.16400
C 	C 	0.55760 0.50530 0.86840 0.09500
C 	C 	0.85310 0.95680 0.39850 -0.15900
C 	C 	0.98420 0.17610 0.49550 -0.17900
C 	C 	0.80500 0.51710 0.45980 0.09500
C 	C 	0.84440 0.05290 0.49060 -0.18800
C 	C 	0.43500 0.39940 0.03920 0.16200
C 	C 	0.77710 0.75000 0.86750 0.38500
C 	C 	0.68860 0.38150 0.86590 0.32900
C 	C 	0.30250 0.75000 0.55760 -0.09800
C 	C 	0.56500 0.89940 0.96080 0.16100
C 	C 	0.63370 0.25000 0.57930 -0.14000
C 	C 	0.64690 0.45680 0.89850 -0.15500
C 	C 	0.81140 0.61850 0.36590 0.32900
C 	C 	0.98190 0.42460 0.39910 -0.18800
C 	C 	0.64690 0.04320 0.89850 -0.15500
C 	C 	0.68860 0.11850 0.86590 0.32900
C 	C 	0.86630 0.75000 0.07930 -0.13600
C 	C 	0.18860 0.38150 0.63410 0.32900
C 	C 	0.21050 0.75000 0.50900 0.08500
C 	C 	0.65560 0.94710 0.99060 -0.18300
C 	C 	0.35310 0.95680 0.10150 -0.15500
C 	C 	0.95750 0.75000 0.03030 0.00600
C 	C 	0.71050 0.75000 0.99100 0.08800
C 	C 	0.69500 0.48290 0.95980 0.09400
C 	C 	0.54250 0.25000 0.53030 0.01500
C 	C 	0.05760 0.50530 0.63160 0.09500
C 	C 	0.30500 0.51710 0.04020 0.09400
C 	C 	0.51810 0.92460 0.89910 -0.18800
C 	C 	0.98190 0.07540 0.39910 -0.18900
C 	C 	0.48190 0.07540 0.10090 -0.18800
C 	C 	0.34440 0.05290 0.00940 -0.18300
C 	C 	0.01580 0.82390 0.50450 -0.17900
C 	C 	0.94240 0.49470 0.36840 0.09500
C 	C 	0.81140 0.88150 0.36590 0.33000
C 	C 	0.34440 0.44710 0.00940 -0.18700
C 	C 	0.31140 0.88150 0.13410 0.32900
C 	C 	0.80250 0.75000 0.94240 -0.10100
C 	C 	0.84440 0.44710 0.49060 -0.18800
C 	C 	0.25690 0.25000 0.93880 -0.03900
C 	C 	0.56500 0.60060 0.96080 0.16200
C 	C 	0.15560 0.94710 0.50940 -0.18800
C 	C 	0.51580 0.82390 0.99550 -0.17700
C 	C 	0.85310 0.54320 0.39850 -0.15500
C 	C 	0.15560 0.55290 0.50940 -0.18800
C 	C 	0.10270 0.25000 0.84660 0.52600
C 	C 	0.89730 0.75000 0.15340 0.52600
C 	C 	0.69500 0.01710 0.95980 0.09200
C 	C 	0.27710 0.75000 0.63250 0.38400
C 	C 	0.06500 0.89940 0.53920 0.16400
C 	C 	0.80500 0.98290 0.45980 0.09500
C 	C 	0.18860 0.11850 0.63410 0.33000
C 	C 	0.51580 0.67610 0.99550 -0.17800
C 	C 	0.36630 0.75000 0.42070 -0.14000
C 	C 	0.19500 0.48290 0.54020 0.09500
C 	C 	0.93500 0.39940 0.46080 0.16300
C 	C 	0.55760 0.99470 0.86840 0.09700
C 	C 	0.57500 0.25000 0.46290 -0.02500
C 	C 	0.48190 0.42460 0.10090 -0.18700
C 	C 	0.19500 0.01710 0.54020 0.09500
C 	C 	0.01580 0.67610 0.50450 -0.17900
C 	C 	0.48420 0.32390 0.00450 -0.17800
C 	C 	0.01810 0.92460 0.60090 -0.18900
C 	C 	0.07500 0.25000 0.03710 -0.01900
C 	C 	0.60270 0.25000 0.65340 0.53000
C 	C 	0.14690 0.04320 0.60150 -0.15900
C 	C 	0.42500 0.75000 0.53710 -0.02500
C 	C 	0.72290 0.25000 0.36750 0.38400
C 	C 	0.44240 0.00530 0.13160 0.09700
C 	C 	0.30500 0.98290 0.04020 0.09200
C 	C 	0.05760 0.99470 0.63160 0.10100
C 	C 	0.31140 0.61850 0.13410 0.32900
C 	C 	0.74310 0.75000 0.06120 -0.03900
C 	C 	0.48420 0.17610 0.00450 -0.17700
C 	C 	0.06500 0.60060 0.53920 0.16300
C 	C 	0.14690 0.45680 0.60150 -0.15500
C 	C 	0.19750 0.25000 0.05760 -0.10100
C 	C 	0.78950 0.25000 0.49100 0.08500
C 	C 	0.44240 0.49470 0.13160 0.09500
C 	C 	0.04250 0.25000 0.96970 0.00600
C 	C 	0.92500 0.75000 0.96290 -0.01900
C 	C 	0.35310 0.54320 0.10150 -0.15500
C 	C 	0.94240 0.00530 0.36840 0.10100
C 	C 	0.01810 0.57540 0.60090 -0.18800
C 	C 	0.45750 0.75000 0.46970 0.01500
C 	C 	0.43500 0.10060 0.03920 0.16100
C 	C 	0.75690 0.25000 0.56120 -0.03500
C 	C 	0.22290 0.25000 0.13250 0.38500
C 	C 	0.28950 0.25000 0.00900 0.08800
C 	C 	0.13370 0.25000 0.92070 -0.13600
C 	C 	0.24310 0.75000 0.43880 -0.03500
C 	C 	0.98420 0.32390 0.49550 -0.17900
N 	N 	0.91770 0.25000 0.47130 -0.06200
N 	N 	0.58230 0.75000 0.97130 -0.06300
N 	N 	0.41770 0.25000 0.02870 -0.06300
N 	N 	0.08230 0.75000 0.52870 -0.06200
O 	O 	0.71930 0.65490 0.38880 -0.40900
O 	O 	0.35690 0.75000 0.67320 -0.29200
O 	O 	0.63570 0.35450 0.81310 -0.42000
O 	O 	0.49310 0.25000 0.66790 -0.54000
O 	O 	0.50690 0.75000 0.33210 -0.54000
O 	O 	0.84070 0.25000 0.34990 -0.46100
O 	O 	0.18860 0.25000 0.80560 -0.54500
O 	O 	0.78070 0.34510 0.88880 -0.40900
O 	O 	0.21930 0.84510 0.11120 -0.40900
O 	O 	0.86430 0.64550 0.31310 -0.42000
O 	O 	0.78070 0.15490 0.88880 -0.40900
O 	O 	0.71930 0.84510 0.38880 -0.40900
O 	O 	0.63570 0.14550 0.81310 -0.42000
O 	O 	0.00690 0.75000 0.16790 -0.53900
O 	O 	0.21930 0.65490 0.11120 -0.40900
O 	O 	0.64310 0.25000 0.32680 -0.29200
O 	O 	0.86430 0.85450 0.31310 -0.42100
O 	O 	0.14310 0.25000 0.17320 -0.29200
O 	O 	0.36430 0.64550 0.18690 -0.42000
O 	O 	0.13570 0.35450 0.68690 -0.42000
O 	O 	0.85690 0.75000 0.82680 -0.29200
O 	O 	0.13570 0.14550 0.68690 -0.42100
O 	O 	0.28070 0.15490 0.61120 -0.40900
O 	O 	0.31140 0.75000 0.30560 -0.54500
O 	O 	0.65930 0.75000 0.84990 -0.46200
O 	O 	0.36430 0.85450 0.18690 -0.42000
O 	O 	0.28070 0.34510 0.61120 -0.40900
O 	O 	0.68860 0.25000 0.69440 -0.54500
O 	O 	0.81140 0.75000 0.19440 -0.54500
O 	O 	0.99310 0.25000 0.83210 -0.53900
O 	O 	0.34070 0.25000 0.15010 -0.46200
O 	O 	0.15930 0.75000 0.65010 -0.46100
