data_crystal

_cell_length_a 10.93200
_cell_length_b 16.71300
_cell_length_c 18.89300
_cell_angle_alpha 90.00000
_cell_angle_beta  90.00000
_cell_angle_gamma 90.00000

_symmetry_space_group_name_	'P 1'
_symmetry_space_group_name_H-M	'P 1'

loop_
_symmetry_equiv_pos_as_xyz
  x,y,z

loop_
_atom_site_label
_atom_site_type_symbol
_atom_site_fract_x
_atom_site_fract_y
_atom_site_fract_z
_atom_site_charge
Tb	Tb	0.29423 0.25000 0.70461 1.74700
Tb	Tb	0.20577 0.75000 0.20461 1.74800
Tb	Tb	0.70577 0.75000 0.29539 1.74700
Tb	Tb	0.79423 0.25000 0.79539 1.74800
H 	H 	0.53850 0.01040 0.81900 -0.01200
H 	H 	0.48050 0.32790 0.95820 0.08400
H 	H 	0.97430 0.75000 0.91350 0.05100
H 	H 	0.97140 0.89340 0.63520 0.12000
H 	H 	0.24980 0.04680 0.51260 0.00300
H 	H 	0.96150 0.98960 0.31900 -0.01400
H 	H 	0.32180 0.07060 0.96260 0.09800
H 	H 	0.36400 0.25000 0.20690 0.28500
H 	H 	0.74980 0.45320 0.98740 0.00400
H 	H 	0.67820 0.92940 0.03740 0.09800
H 	H 	0.17820 0.57060 0.46260 0.10100
H 	H 	0.52860 0.39340 0.13520 0.11900
H 	H 	0.25020 0.95320 0.01260 0.00500
H 	H 	0.51950 0.82790 0.04180 0.08300
H 	H 	0.53850 0.48960 0.81900 -0.01100
H 	H 	0.07470 0.32090 0.47950 0.09600
H 	H 	0.46150 0.98960 0.18100 -0.01200
H 	H 	0.47430 0.75000 0.58650 0.05400
H 	H 	0.82180 0.42940 0.53740 0.10100
H 	H 	0.51950 0.67210 0.04180 0.08400
H 	H 	0.07470 0.17910 0.47950 0.09600
H 	H 	0.01950 0.67210 0.45820 0.08500
H 	H 	0.96440 0.25000 0.96960 0.04600
H 	H 	0.32180 0.42940 0.96260 0.10000
H 	H 	0.98050 0.17210 0.54180 0.08500
H 	H 	0.82180 0.07060 0.53740 0.10100
H 	H 	0.46150 0.51040 0.18100 -0.01100
H 	H 	0.52860 0.10660 0.13520 0.12000
H 	H 	0.98050 0.32790 0.54180 0.08500
H 	H 	0.57470 0.17910 0.02050 0.09600
H 	H 	0.46440 0.25000 0.53040 0.04300
H 	H 	0.42530 0.67910 0.97950 0.09600
H 	H 	0.96150 0.51040 0.31900 -0.01100
H 	H 	0.01950 0.82790 0.45820 0.08500
H 	H 	0.63600 0.75000 0.79310 0.28500
H 	H 	0.67820 0.57060 0.03740 0.10000
H 	H 	0.03560 0.75000 0.03040 0.04600
H 	H 	0.03850 0.01040 0.68100 -0.01400
H 	H 	0.24980 0.45320 0.51260 0.00400
H 	H 	0.03850 0.48960 0.68100 -0.01100
H 	H 	0.25020 0.54680 0.01260 0.00400
H 	H 	0.02860 0.10660 0.36480 0.12000
H 	H 	0.74980 0.04680 0.98740 0.00500
H 	H 	0.86400 0.25000 0.29310 0.28500
H 	H 	0.48050 0.17210 0.95820 0.08300
H 	H 	0.57470 0.32090 0.02050 0.09600
H 	H 	0.47140 0.89340 0.86480 0.12000
H 	H 	0.18350 0.75000 0.40920 0.02300
H 	H 	0.02570 0.25000 0.08650 0.05100
H 	H 	0.75020 0.95320 0.48740 0.00300
H 	H 	0.42530 0.82090 0.97950 0.09600
H 	H 	0.52570 0.25000 0.41350 0.05400
H 	H 	0.13600 0.75000 0.70690 0.28500
H 	H 	0.17820 0.92940 0.46260 0.10100
H 	H 	0.02860 0.39340 0.36480 0.11900
H 	H 	0.81650 0.25000 0.59080 0.02300
H 	H 	0.53560 0.75000 0.46960 0.04300
H 	H 	0.92530 0.67910 0.52050 0.09600
H 	H 	0.47140 0.60660 0.86480 0.11900
H 	H 	0.75020 0.54680 0.48740 0.00400
H 	H 	0.97140 0.60660 0.63520 0.11900
H 	H 	0.92530 0.82090 0.52050 0.09600
H 	H 	0.68350 0.75000 0.09080 0.02500
H 	H 	0.31650 0.25000 0.90920 0.02500
C 	C 	0.89960 0.75000 0.14700 0.49600
C 	C 	0.97440 0.42480 0.39070 -0.21500
C 	C 	0.69190 0.48360 0.96340 0.11000
C 	C 	0.06350 0.89950 0.54210 0.18000
C 	C 	0.29450 0.75000 0.57030 -0.09800
C 	C 	0.43310 0.49430 0.13680 0.12700
C 	C 	0.74240 0.75000 0.05530 -0.02900
C 	C 	0.06690 0.50570 0.63680 0.12800
C 	C 	0.35080 0.05430 0.00660 -0.19900
C 	C 	0.14960 0.45790 0.60180 -0.18000
C 	C 	0.80780 0.88150 0.36830 0.34800
C 	C 	0.56350 0.60050 0.95790 0.17800
C 	C 	0.74100 0.25000 0.35210 0.38200
C 	C 	0.36320 0.75000 0.42800 -0.14400
C 	C 	0.69190 0.01640 0.96340 0.10800
C 	C 	0.85080 0.44570 0.49340 -0.20300
C 	C 	0.06690 0.99430 0.63680 0.13400
C 	C 	0.41520 0.75000 0.55110 -0.02000
C 	C 	0.80810 0.51640 0.46340 0.11100
C 	C 	0.06350 0.60050 0.54210 0.17900
C 	C 	0.97440 0.07520 0.39070 -0.21700
C 	C 	0.93650 0.39950 0.45790 0.17900
C 	C 	0.51170 0.82460 0.99080 -0.19000
C 	C 	0.48830 0.32460 0.00920 -0.19200
C 	C 	0.80810 0.98360 0.46340 0.11200
C 	C 	0.30810 0.98360 0.03660 0.10800
C 	C 	0.80780 0.61850 0.36830 0.34600
C 	C 	0.04710 0.25000 0.98110 0.00300
C 	C 	0.14920 0.94570 0.50660 -0.20300
C 	C 	0.91520 0.75000 0.94890 -0.01400
C 	C 	0.39960 0.75000 0.35300 0.49900
C 	C 	0.56350 0.89950 0.95790 0.17700
C 	C 	0.30810 0.51640 0.03660 0.11000
C 	C 	0.19190 0.01640 0.53660 0.11200
C 	C 	0.43650 0.10050 0.04210 0.17700
C 	C 	0.93650 0.10050 0.45790 0.18000
C 	C 	0.98830 0.17540 0.49080 -0.19200
C 	C 	0.69220 0.11850 0.86830 0.34600
C 	C 	0.47440 0.42480 0.10930 -0.21500
C 	C 	0.02560 0.92480 0.60930 -0.21700
C 	C 	0.13680 0.25000 0.92800 -0.14000
C 	C 	0.35040 0.95790 0.10180 -0.18000
C 	C 	0.64960 0.04210 0.89820 -0.18000
C 	C 	0.24100 0.25000 0.14790 0.38300
C 	C 	0.35080 0.44570 0.00660 -0.20200
C 	C 	0.93310 0.00570 0.36320 0.13400
C 	C 	0.70670 0.75000 0.98160 0.08500
C 	C 	0.75900 0.75000 0.85210 0.38300
C 	C 	0.64960 0.45790 0.89820 -0.18000
C 	C 	0.30780 0.88150 0.13170 0.34600
C 	C 	0.35040 0.54210 0.10180 -0.18000
C 	C 	0.56690 0.50570 0.86320 0.12700
C 	C 	0.01170 0.82460 0.50920 -0.19200
C 	C 	0.54710 0.25000 0.51890 0.01100
C 	C 	0.48830 0.17540 0.00920 -0.19000
C 	C 	0.70550 0.25000 0.42970 -0.09800
C 	C 	0.19220 0.38150 0.63170 0.34600
C 	C 	0.30780 0.61850 0.13170 0.34600
C 	C 	0.93310 0.49430 0.36320 0.12800
C 	C 	0.75760 0.25000 0.55530 -0.02400
C 	C 	0.64920 0.55430 0.99340 -0.20200
C 	C 	0.43650 0.39950 0.04210 0.17800
C 	C 	0.79330 0.25000 0.48160 0.08200
C 	C 	0.08480 0.25000 0.05110 -0.01400
C 	C 	0.98830 0.32460 0.49080 -0.19200
C 	C 	0.02560 0.57520 0.60930 -0.21500
C 	C 	0.47440 0.07520 0.10930 -0.21500
C 	C 	0.56690 0.99430 0.86320 0.12900
C 	C 	0.79450 0.75000 0.92970 -0.10100
C 	C 	0.20670 0.75000 0.51840 0.08200
C 	C 	0.25900 0.75000 0.64790 0.38200
C 	C 	0.24240 0.75000 0.44470 -0.02400
C 	C 	0.14920 0.55430 0.50660 -0.20300
C 	C 	0.86320 0.75000 0.07200 -0.14000
C 	C 	0.51170 0.67540 0.99080 -0.19200
C 	C 	0.43310 0.00570 0.13680 0.12900
C 	C 	0.25760 0.25000 0.94470 -0.02900
C 	C 	0.29330 0.25000 0.01840 0.08500
C 	C 	0.01170 0.67540 0.50920 -0.19200
C 	C 	0.64920 0.94570 0.99340 -0.19900
C 	C 	0.52560 0.57520 0.89070 -0.21500
C 	C 	0.69220 0.38150 0.86830 0.34600
C 	C 	0.85040 0.95790 0.39820 -0.18400
C 	C 	0.60040 0.25000 0.64700 0.49900
C 	C 	0.14960 0.04210 0.60180 -0.18400
C 	C 	0.58480 0.25000 0.44890 -0.02000
C 	C 	0.19220 0.11850 0.63170 0.34800
C 	C 	0.19190 0.48360 0.53660 0.11100
C 	C 	0.45290 0.75000 0.48110 0.01100
C 	C 	0.52560 0.92480 0.89070 -0.21500
C 	C 	0.10040 0.25000 0.85300 0.49600
C 	C 	0.20550 0.25000 0.07030 -0.10100
C 	C 	0.95290 0.75000 0.01890 0.00300
C 	C 	0.85040 0.54210 0.39820 -0.18000
C 	C 	0.63680 0.25000 0.57200 -0.14400
C 	C 	0.85080 0.05430 0.49340 -0.20300
N 	N 	0.42440 0.25000 0.03500 -0.06000
N 	N 	0.92440 0.25000 0.46500 -0.05900
N 	N 	0.57560 0.75000 0.96500 -0.06000
N 	N 	0.07560 0.75000 0.53500 -0.05900
O 	O 	0.65920 0.25000 0.30740 -0.28300
O 	O 	0.15920 0.25000 0.19260 -0.28300
O 	O 	0.35600 0.25000 0.16380 -0.47600
O 	O 	0.21470 0.84670 0.10810 -0.41200
O 	O 	0.68530 0.25000 0.69300 -0.53600
O 	O 	0.98890 0.25000 0.83620 -0.52800
O 	O 	0.71470 0.84670 0.39190 -0.41200
O 	O 	0.13710 0.35020 0.68380 -0.43300
O 	O 	0.86290 0.85020 0.31620 -0.43400
O 	O 	0.36290 0.64980 0.18380 -0.43300
O 	O 	0.64400 0.75000 0.83620 -0.47600
O 	O 	0.18530 0.25000 0.80700 -0.53500
O 	O 	0.48890 0.25000 0.66380 -0.52900
O 	O 	0.86290 0.64980 0.31620 -0.43300
O 	O 	0.85600 0.25000 0.33620 -0.47500
O 	O 	0.78530 0.15330 0.89190 -0.41200
O 	O 	0.78530 0.34670 0.89190 -0.41200
O 	O 	0.28530 0.34670 0.60810 -0.41200
O 	O 	0.01110 0.75000 0.16380 -0.52800
O 	O 	0.14400 0.75000 0.66380 -0.47500
O 	O 	0.31470 0.75000 0.30700 -0.53600
O 	O 	0.63710 0.14980 0.81620 -0.43300
O 	O 	0.34080 0.75000 0.69260 -0.28300
O 	O 	0.84080 0.75000 0.80740 -0.28300
O 	O 	0.36290 0.85020 0.18380 -0.43300
O 	O 	0.21470 0.65330 0.10810 -0.41200
O 	O 	0.71470 0.65330 0.39190 -0.41200
O 	O 	0.13710 0.14980 0.68380 -0.43400
O 	O 	0.81470 0.75000 0.19300 -0.53500
O 	O 	0.28530 0.15330 0.60810 -0.41200
O 	O 	0.51110 0.75000 0.33620 -0.52900
O 	O 	0.63710 0.35020 0.81620 -0.43300
