data_crystal

_cell_length_a 11.04800
_cell_length_b 16.70200
_cell_length_c 18.73900
_cell_angle_alpha 90.00000
_cell_angle_beta  90.00000
_cell_angle_gamma 90.00000

_symmetry_space_group_name_	'P 1'
_symmetry_space_group_name_H-M	'P 1'

loop_
_symmetry_equiv_pos_as_xyz
  x,y,z

loop_
_atom_site_label
_atom_site_type_symbol
_atom_site_fract_x
_atom_site_fract_y
_atom_site_fract_z
_atom_site_charge
Eu	Eu	0.79712 0.25000 0.79524 1.82800
Eu	Eu	0.29712 0.25000 0.70476 1.82800
Eu	Eu	0.20288 0.75000 0.20476 1.82800
Eu	Eu	0.70288 0.75000 0.29524 1.82800
H 	H 	0.92600 0.67900 0.51830 0.09500
H 	H 	0.32570 0.07030 0.95860 0.09400
H 	H 	0.17430 0.92970 0.45860 0.09600
H 	H 	0.95530 0.51010 0.31900 -0.01200
H 	H 	0.45530 0.98990 0.18100 -0.01300
H 	H 	0.54470 0.01010 0.81900 -0.01300
H 	H 	0.52510 0.39310 0.13560 0.11900
H 	H 	0.52940 0.75000 0.47430 0.03700
H 	H 	0.02060 0.82760 0.45610 0.08200
H 	H 	0.24800 0.95420 0.01200 0.00700
H 	H 	0.67430 0.92970 0.04140 0.09400
H 	H 	0.97940 0.32760 0.54390 0.08200
H 	H 	0.57400 0.32100 0.01830 0.09500
H 	H 	0.82570 0.07030 0.54140 0.09600
H 	H 	0.42600 0.82100 0.98170 0.09400
H 	H 	0.31740 0.25000 0.90930 0.01900
H 	H 	0.81740 0.25000 0.59070 0.01700
H 	H 	0.74800 0.54580 0.48800 0.00600
H 	H 	0.07400 0.32100 0.48170 0.09500
H 	H 	0.68260 0.75000 0.09070 0.01900
H 	H 	0.32570 0.42970 0.95860 0.09500
H 	H 	0.17430 0.57030 0.45860 0.09600
H 	H 	0.47060 0.75000 0.58810 0.05700
H 	H 	0.45530 0.51010 0.18100 -0.01200
H 	H 	0.52510 0.10690 0.13560 0.11900
H 	H 	0.18260 0.75000 0.40930 0.01700
H 	H 	0.74800 0.95420 0.48800 0.00600
H 	H 	0.02060 0.67240 0.45610 0.08200
H 	H 	0.04470 0.01010 0.68100 -0.01500
H 	H 	0.82570 0.42970 0.54140 0.09600
H 	H 	0.52940 0.25000 0.41190 0.05700
H 	H 	0.54470 0.48990 0.81900 -0.01200
H 	H 	0.42600 0.67900 0.98170 0.09500
H 	H 	0.02940 0.75000 0.02570 0.04200
H 	H 	0.97060 0.25000 0.97430 0.04200
H 	H 	0.67430 0.57030 0.04140 0.09500
H 	H 	0.47490 0.89310 0.86440 0.11900
H 	H 	0.75200 0.45420 0.98800 0.00600
H 	H 	0.97490 0.89310 0.63560 0.11900
H 	H 	0.47490 0.60690 0.86440 0.11900
H 	H 	0.02940 0.25000 0.08810 0.05400
H 	H 	0.12710 0.75000 0.70720 0.28900
H 	H 	0.52060 0.67240 0.04390 0.08200
H 	H 	0.97940 0.17240 0.54390 0.08200
H 	H 	0.92600 0.82100 0.51830 0.09400
H 	H 	0.37290 0.25000 0.20720 0.28900
H 	H 	0.97060 0.75000 0.91190 0.05400
H 	H 	0.75200 0.04580 0.98800 0.00700
H 	H 	0.47060 0.25000 0.52570 0.03700
H 	H 	0.04470 0.48990 0.68100 -0.01200
H 	H 	0.02510 0.39310 0.36440 0.11900
H 	H 	0.95530 0.98990 0.31900 -0.01500
H 	H 	0.25200 0.45420 0.51200 0.00600
H 	H 	0.25200 0.04580 0.51200 0.00600
H 	H 	0.47940 0.17240 0.95610 0.08100
H 	H 	0.02510 0.10690 0.36440 0.11900
H 	H 	0.57400 0.17900 0.01830 0.09400
H 	H 	0.97490 0.60690 0.63560 0.11900
H 	H 	0.47940 0.32760 0.95610 0.08200
H 	H 	0.24800 0.54580 0.01200 0.00600
H 	H 	0.52060 0.82760 0.04390 0.08100
H 	H 	0.07400 0.17900 0.48170 0.09400
H 	H 	0.62710 0.75000 0.79280 0.28900
H 	H 	0.87290 0.25000 0.29280 0.28900
C 	C 	0.93670 0.10070 0.45890 0.17500
C 	C 	0.75950 0.25000 0.55460 -0.02000
C 	C 	0.57160 0.99360 0.86360 0.12700
C 	C 	0.84640 0.95960 0.39920 -0.18200
C 	C 	0.43670 0.39930 0.04110 0.17300
C 	C 	0.51170 0.67540 0.99250 -0.18800
C 	C 	0.44730 0.75000 0.48510 0.02200
C 	C 	0.93670 0.39930 0.45890 0.17400
C 	C 	0.74680 0.25000 0.34810 0.40800
C 	C 	0.91210 0.75000 0.94750 -0.02400
C 	C 	0.06330 0.60070 0.54110 0.17400
C 	C 	0.70480 0.75000 0.98150 0.08500
C 	C 	0.34640 0.54040 0.10080 -0.17800
C 	C 	0.79520 0.25000 0.48150 0.08100
C 	C 	0.02820 0.57580 0.60900 -0.21400
C 	C 	0.15360 0.04040 0.60080 -0.18200
C 	C 	0.85180 0.05480 0.49630 -0.19400
C 	C 	0.08790 0.25000 0.05250 -0.02400
C 	C 	0.74050 0.75000 0.05460 -0.02500
C 	C 	0.47180 0.42420 0.10900 -0.21300
C 	C 	0.86090 0.75000 0.07090 -0.14800
C 	C 	0.56330 0.89930 0.95890 0.17300
C 	C 	0.34640 0.95960 0.10080 -0.17900
C 	C 	0.42840 0.00640 0.13640 0.12700
C 	C 	0.84640 0.54040 0.39920 -0.17900
C 	C 	0.36090 0.75000 0.42910 -0.15300
C 	C 	0.42840 0.49360 0.13640 0.12500
C 	C 	0.92840 0.00640 0.36360 0.13200
C 	C 	0.19580 0.38240 0.63100 0.34700
C 	C 	0.24680 0.25000 0.15190 0.41000
C 	C 	0.25320 0.75000 0.65190 0.40800
C 	C 	0.64820 0.94520 0.99630 -0.19000
C 	C 	0.98830 0.32460 0.49250 -0.18800
C 	C 	0.29520 0.25000 0.01850 0.08500
C 	C 	0.24050 0.75000 0.44540 -0.02000
C 	C 	0.71140 0.25000 0.42780 -0.09300
C 	C 	0.75320 0.75000 0.84810 0.41000
C 	C 	0.80420 0.61760 0.36900 0.34700
C 	C 	0.10070 0.25000 0.85270 0.52900
C 	C 	0.65360 0.45960 0.89920 -0.17800
C 	C 	0.52820 0.92420 0.89100 -0.21300
C 	C 	0.97180 0.42420 0.39100 -0.21400
C 	C 	0.69370 0.01580 0.96420 0.10200
C 	C 	0.35180 0.44520 0.00370 -0.19300
C 	C 	0.65360 0.04040 0.89920 -0.17900
C 	C 	0.63910 0.25000 0.57090 -0.15300
C 	C 	0.35180 0.05480 0.00370 -0.19000
C 	C 	0.28860 0.75000 0.57220 -0.09300
C 	C 	0.21140 0.25000 0.07220 -0.09700
C 	C 	0.69580 0.38240 0.86900 0.34600
C 	C 	0.19370 0.48420 0.53580 0.10500
C 	C 	0.02820 0.92420 0.60900 -0.21600
C 	C 	0.80420 0.88240 0.36900 0.34800
C 	C 	0.20480 0.75000 0.51850 0.08100
C 	C 	0.30630 0.51580 0.03580 0.10400
C 	C 	0.30420 0.88240 0.13100 0.34700
C 	C 	0.51170 0.82460 0.99250 -0.18600
C 	C 	0.52820 0.57580 0.89100 -0.21300
C 	C 	0.06330 0.89930 0.54110 0.17500
C 	C 	0.89930 0.75000 0.14730 0.52900
C 	C 	0.92840 0.49360 0.36360 0.12600
C 	C 	0.60070 0.25000 0.64730 0.53300
C 	C 	0.25950 0.25000 0.94540 -0.02500
C 	C 	0.07160 0.99360 0.63640 0.13200
C 	C 	0.80630 0.51580 0.46420 0.10500
C 	C 	0.19370 0.01580 0.53580 0.10600
C 	C 	0.19580 0.11760 0.63100 0.34800
C 	C 	0.55270 0.25000 0.51490 0.02200
C 	C 	0.64820 0.55480 0.99630 -0.19300
C 	C 	0.07160 0.50640 0.63640 0.12600
C 	C 	0.15360 0.45960 0.60080 -0.17900
C 	C 	0.01170 0.82460 0.50750 -0.18800
C 	C 	0.69580 0.11760 0.86900 0.34700
C 	C 	0.80630 0.98420 0.46420 0.10600
C 	C 	0.41210 0.75000 0.55250 -0.03200
C 	C 	0.78860 0.75000 0.92780 -0.09700
C 	C 	0.48830 0.17540 0.00750 -0.18600
C 	C 	0.13910 0.25000 0.92910 -0.14800
C 	C 	0.43670 0.10070 0.04110 0.17300
C 	C 	0.47180 0.07580 0.10900 -0.21300
C 	C 	0.30630 0.98420 0.03580 0.10200
C 	C 	0.97180 0.07580 0.39100 -0.21600
C 	C 	0.30420 0.61760 0.13100 0.34600
C 	C 	0.14820 0.55480 0.50370 -0.19400
C 	C 	0.57160 0.50640 0.86360 0.12500
C 	C 	0.14820 0.94520 0.50370 -0.19400
C 	C 	0.58790 0.25000 0.44750 -0.03200
C 	C 	0.69370 0.48420 0.96420 0.10400
C 	C 	0.39930 0.75000 0.35270 0.53300
C 	C 	0.01170 0.67540 0.50750 -0.18800
C 	C 	0.56330 0.60070 0.95890 0.17300
C 	C 	0.98830 0.17540 0.49250 -0.18800
C 	C 	0.85180 0.44520 0.49630 -0.19400
C 	C 	0.05270 0.25000 0.98510 0.01100
C 	C 	0.94730 0.75000 0.01490 0.01100
C 	C 	0.48830 0.32460 0.00750 -0.18800
N 	N 	0.92420 0.25000 0.46500 -0.06100
N 	N 	0.57580 0.75000 0.96500 -0.06100
N 	N 	0.42420 0.25000 0.03500 -0.06100
N 	N 	0.07580 0.75000 0.53500 -0.06100
O 	O 	0.83100 0.75000 0.80410 -0.30300
O 	O 	0.36040 0.64950 0.18180 -0.44400
O 	O 	0.00910 0.75000 0.16160 -0.55400
O 	O 	0.36100 0.25000 0.16410 -0.49100
O 	O 	0.18390 0.25000 0.80730 -0.56500
O 	O 	0.13960 0.35050 0.68180 -0.44500
O 	O 	0.13960 0.14950 0.68180 -0.44500
O 	O 	0.36040 0.85050 0.18180 -0.44500
O 	O 	0.86040 0.85050 0.31820 -0.44500
O 	O 	0.21180 0.65210 0.10660 -0.41700
O 	O 	0.33100 0.75000 0.69590 -0.30200
O 	O 	0.71180 0.84790 0.39340 -0.41800
O 	O 	0.50910 0.75000 0.33840 -0.55600
O 	O 	0.86100 0.25000 0.33590 -0.49000
O 	O 	0.13900 0.75000 0.66410 -0.49000
O 	O 	0.78820 0.34790 0.89340 -0.41700
O 	O 	0.63960 0.35050 0.81820 -0.44400
O 	O 	0.66900 0.25000 0.30410 -0.30200
O 	O 	0.78820 0.15210 0.89340 -0.41700
O 	O 	0.28820 0.15210 0.60660 -0.41800
O 	O 	0.86040 0.64950 0.31820 -0.44500
O 	O 	0.28820 0.34790 0.60660 -0.41700
O 	O 	0.99090 0.25000 0.83840 -0.55400
O 	O 	0.63960 0.14950 0.81820 -0.44500
O 	O 	0.31610 0.75000 0.30730 -0.56600
O 	O 	0.49090 0.25000 0.66160 -0.55600
O 	O 	0.63900 0.75000 0.83590 -0.49100
O 	O 	0.68390 0.25000 0.69270 -0.56600
O 	O 	0.21180 0.84790 0.10660 -0.41700
O 	O 	0.71180 0.65210 0.39340 -0.41700
O 	O 	0.81610 0.75000 0.19270 -0.56500
O 	O 	0.16900 0.25000 0.19590 -0.30300
