data_crystal

_cell_length_a 10.92900
_cell_length_b 16.58600
_cell_length_c 19.39600
_cell_angle_alpha 90.00000
_cell_angle_beta  90.00000
_cell_angle_gamma 90.00000

_symmetry_space_group_name_	'P 1'
_symmetry_space_group_name_H-M	'P 1'

loop_
_symmetry_equiv_pos_as_xyz
  x,y,z

loop_
_atom_site_label
_atom_site_type_symbol
_atom_site_fract_x
_atom_site_fract_y
_atom_site_fract_z
_atom_site_charge
O 	O 	0.36850 0.85360 0.18462 -0.42500
O 	O 	0.22230 0.84430 0.10860 -0.41000
C 	C 	0.48120 0.17590 0.00240 -0.18200
H 	H 	0.56840 0.18070 0.01100 0.09300
H 	H 	0.46920 0.17150 0.95300 0.08100
C 	C 	0.43350 0.10020 0.03730 0.17000
C 	C 	0.48190 0.07540 0.09950 -0.19900
H 	H 	0.54080 0.10690 0.12120 0.11200
C 	C 	0.44410 0.00480 0.12980 0.10800
H 	H 	0.48010 0.98800 0.17080 -0.00400
C 	C 	0.35390 0.95880 0.10030 -0.15700
C 	C 	0.30310 0.98350 0.03810 0.09400
H 	H 	0.24200 0.95280 0.01750 0.01100
C 	C 	0.34310 0.05340 0.00670 -0.18900
H 	H 	0.30930 0.06930 0.96490 0.09600
C 	C 	0.31300 0.88130 0.13290 0.33000
O 	O 	0.13150 0.14640 0.68462 -0.42600
O 	O 	0.27770 0.15570 0.60860 -0.41000
C 	C 	0.01880 0.82410 0.50240 -0.18400
H 	H 	0.93160 0.81930 0.51100 0.09300
H 	H 	0.03080 0.82850 0.45300 0.08200
C 	C 	0.06650 0.89980 0.53730 0.17300
C 	C 	0.01810 0.92460 0.59950 -0.20100
H 	H 	0.95920 0.89310 0.62120 0.11200
C 	C 	0.05590 0.99520 0.62980 0.11200
H 	H 	0.01990 0.01200 0.67080 -0.00600
C 	C 	0.14610 0.04120 0.60030 -0.16100
C 	C 	0.19690 0.01650 0.53810 0.09800
H 	H 	0.25800 0.04720 0.51750 0.00900
C 	C 	0.15690 0.94660 0.50670 -0.19400
H 	H 	0.19070 0.93070 0.46490 0.09900
C 	C 	0.18700 0.11870 0.63290 0.33100
O 	O 	0.63150 0.35360 0.81538 -0.42500
O 	O 	0.77770 0.34430 0.89140 -0.41000
C 	C 	0.51880 0.67590 0.99760 -0.18300
H 	H 	0.43160 0.68070 0.98900 0.09300
H 	H 	0.53080 0.67150 0.04700 0.08100
C 	C 	0.56650 0.60020 0.96270 0.17100
C 	C 	0.51810 0.57540 0.90050 -0.19900
H 	H 	0.45920 0.60690 0.87880 0.11200
C 	C 	0.55590 0.50480 0.87020 0.10500
H 	H 	0.51990 0.48800 0.82920 -0.00300
C 	C 	0.64610 0.45880 0.89970 -0.15600
C 	C 	0.69690 0.48350 0.96190 0.09600
H 	H 	0.75800 0.45280 0.98250 0.01000
C 	C 	0.65690 0.55340 0.99330 -0.19200
H 	H 	0.69070 0.56930 0.03510 0.09800
C 	C 	0.68700 0.38130 0.86710 0.33000
O 	O 	0.86850 0.64640 0.31538 -0.42600
O 	O 	0.72230 0.65570 0.39140 -0.41000
C 	C 	0.98120 0.32410 0.49760 -0.18400
H 	H 	0.06840 0.31930 0.48900 0.09300
H 	H 	0.96920 0.32850 0.54700 0.08200
C 	C 	0.93350 0.39980 0.46270 0.17200
C 	C 	0.98190 0.42460 0.40050 -0.19900
H 	H 	0.04080 0.39310 0.37880 0.11200
C 	C 	0.94410 0.49520 0.37020 0.10600
H 	H 	0.98010 0.51200 0.32920 -0.00300
C 	C 	0.85390 0.54120 0.39970 -0.15700
C 	C 	0.80310 0.51650 0.46190 0.09700
H 	H 	0.74200 0.54720 0.48250 0.00900
C 	C 	0.84310 0.44660 0.49330 -0.19400
H 	H 	0.80930 0.43070 0.53510 0.09900
C 	C 	0.81300 0.61870 0.36710 0.33000
O 	O 	0.63150 0.14640 0.81538 -0.42500
O 	O 	0.77770 0.15570 0.89140 -0.41000
C 	C 	0.51880 0.82410 0.99760 -0.18200
H 	H 	0.43160 0.81930 0.98900 0.09300
H 	H 	0.53080 0.82850 0.04700 0.08100
C 	C 	0.56650 0.89980 0.96270 0.17000
C 	C 	0.51810 0.92460 0.90050 -0.19900
H 	H 	0.45920 0.89310 0.87880 0.11200
C 	C 	0.55590 0.99520 0.87020 0.10800
H 	H 	0.51990 0.01200 0.82920 -0.00400
C 	C 	0.64610 0.04120 0.89970 -0.15700
C 	C 	0.69690 0.01650 0.96190 0.09400
H 	H 	0.75800 0.04720 0.98250 0.01100
C 	C 	0.65690 0.94660 0.99330 -0.18900
H 	H 	0.69070 0.93070 0.03510 0.09600
C 	C 	0.68700 0.11870 0.86710 0.33000
O 	O 	0.86850 0.85360 0.31538 -0.42600
O 	O 	0.72230 0.84430 0.39140 -0.41000
C 	C 	0.98120 0.17590 0.49760 -0.18400
H 	H 	0.06840 0.18070 0.48900 0.09300
H 	H 	0.96920 0.17150 0.54700 0.08200
C 	C 	0.93350 0.10020 0.46270 0.17300
C 	C 	0.98190 0.07540 0.40050 -0.20100
H 	H 	0.04080 0.10690 0.37880 0.11200
C 	C 	0.94410 0.00480 0.37020 0.11200
H 	H 	0.98010 0.98800 0.32920 -0.00600
C 	C 	0.85390 0.95880 0.39970 -0.16100
C 	C 	0.80310 0.98350 0.46190 0.09800
H 	H 	0.74200 0.95280 0.48250 0.00900
C 	C 	0.84310 0.05340 0.49330 -0.19400
H 	H 	0.80930 0.06930 0.53510 0.09900
C 	C 	0.81300 0.88130 0.36710 0.33100
O 	O 	0.36850 0.64640 0.18462 -0.42500
O 	O 	0.22230 0.65570 0.10860 -0.41000
C 	C 	0.48120 0.32410 0.00240 -0.18300
H 	H 	0.56840 0.31930 0.01100 0.09300
H 	H 	0.46920 0.32850 0.95300 0.08100
C 	C 	0.43350 0.39980 0.03730 0.17100
C 	C 	0.48190 0.42460 0.09950 -0.19900
H 	H 	0.54080 0.39310 0.12120 0.11200
C 	C 	0.44410 0.49520 0.12980 0.10500
H 	H 	0.48010 0.51200 0.17080 -0.00300
C 	C 	0.35390 0.54120 0.10030 -0.15600
C 	C 	0.30310 0.51650 0.03810 0.09600
H 	H 	0.24200 0.54720 0.01750 0.01000
C 	C 	0.34310 0.44660 0.00670 -0.19200
H 	H 	0.30930 0.43070 0.96490 0.09800
C 	C 	0.31300 0.61870 0.13290 0.33000
O 	O 	0.13150 0.35360 0.68462 -0.42600
O 	O 	0.27770 0.34430 0.60860 -0.41000
C 	C 	0.01880 0.67590 0.50240 -0.18400
H 	H 	0.93160 0.68070 0.51100 0.09300
H 	H 	0.03080 0.67150 0.45300 0.08200
C 	C 	0.06650 0.60020 0.53730 0.17200
C 	C 	0.01810 0.57540 0.59950 -0.19900
H 	H 	0.95920 0.60690 0.62120 0.11200
C 	C 	0.05590 0.50480 0.62980 0.10600
H 	H 	0.01990 0.48800 0.67080 -0.00300
C 	C 	0.14610 0.45880 0.60030 -0.15700
C 	C 	0.19690 0.48350 0.53810 0.09700
H 	H 	0.25800 0.45280 0.51750 0.00900
C 	C 	0.15690 0.55340 0.50670 -0.19400
H 	H 	0.19070 0.56930 0.46490 0.09900
C 	C 	0.18700 0.38130 0.63290 0.33000
N 	N 	0.41790 0.25000 0.02820 -0.06000
Tb	Tb	0.28820 0.25000 0.70407 1.74000
O 	O 	0.18040 0.25000 0.80460 -0.55300
O 	O 	0.98570 0.25000 0.83270 -0.54600
O 	O 	0.34670 0.25000 0.15260 -0.46300
H 	H 	0.35480 0.25000 0.19460 0.28000
O 	O 	0.14960 0.25000 0.18010 -0.28600
C 	C 	0.09560 0.25000 0.84750 0.52900
C 	C 	0.13010 0.25000 0.92260 -0.14000
C 	C 	0.04150 0.25000 0.97350 0.00900
H 	H 	0.95910 0.25000 0.96170 0.04400
C 	C 	0.07650 0.25000 0.04230 -0.02300
H 	H 	0.01690 0.25000 0.07650 0.05500
C 	C 	0.19990 0.25000 0.06070 -0.09700
C 	C 	0.28690 0.25000 0.00950 0.08600
C 	C 	0.25270 0.25000 0.94010 -0.03600
H 	H 	0.31210 0.25000 0.90590 0.02800
C 	C 	0.22890 0.25000 0.13700 0.37800
N 	N 	0.08210 0.75000 0.52820 -0.06000
Tb	Tb	0.21180 0.75000 0.20407 1.74000
O 	O 	0.31960 0.75000 0.30460 -0.55400
O 	O 	0.51430 0.75000 0.33270 -0.54700
O 	O 	0.15330 0.75000 0.65260 -0.46200
H 	H 	0.14520 0.75000 0.69460 0.28000
O 	O 	0.35040 0.75000 0.68010 -0.28600
C 	C 	0.40440 0.75000 0.34750 0.53200
C 	C 	0.36990 0.75000 0.42260 -0.14500
C 	C 	0.45850 0.75000 0.47350 0.01900
H 	H 	0.54090 0.75000 0.46170 0.04000
C 	C 	0.42350 0.75000 0.54230 -0.03000
H 	H 	0.48310 0.75000 0.57650 0.05700
C 	C 	0.30010 0.75000 0.56070 -0.09300
C 	C 	0.21310 0.75000 0.50950 0.08200
C 	C 	0.24730 0.75000 0.44010 -0.03100
H 	H 	0.18790 0.75000 0.40590 0.02600
C 	C 	0.27110 0.75000 0.63700 0.37600
N 	N 	0.58210 0.75000 0.97180 -0.06000
Tb	Tb	0.71180 0.75000 0.29593 1.74000
O 	O 	0.81960 0.75000 0.19540 -0.55300
O 	O 	0.01430 0.75000 0.16730 -0.54600
O 	O 	0.65330 0.75000 0.84740 -0.46300
H 	H 	0.64520 0.75000 0.80540 0.28000
O 	O 	0.85040 0.75000 0.81990 -0.28600
C 	C 	0.90440 0.75000 0.15250 0.52900
C 	C 	0.86990 0.75000 0.07740 -0.14000
C 	C 	0.95850 0.75000 0.02650 0.00900
H 	H 	0.04090 0.75000 0.03830 0.04400
C 	C 	0.92350 0.75000 0.95770 -0.02300
H 	H 	0.98310 0.75000 0.92350 0.05500
C 	C 	0.80010 0.75000 0.93930 -0.09700
C 	C 	0.71310 0.75000 0.99050 0.08600
C 	C 	0.74730 0.75000 0.05990 -0.03600
H 	H 	0.68790 0.75000 0.09410 0.02800
C 	C 	0.77110 0.75000 0.86300 0.37800
N 	N 	0.91790 0.25000 0.47180 -0.06000
Tb	Tb	0.78820 0.25000 0.79593 1.74000
O 	O 	0.68040 0.25000 0.69540 -0.55400
O 	O 	0.48570 0.25000 0.66730 -0.54700
O 	O 	0.84670 0.25000 0.34740 -0.46200
H 	H 	0.85480 0.25000 0.30540 0.28000
O 	O 	0.64960 0.25000 0.31990 -0.28600
C 	C 	0.59560 0.25000 0.65250 0.53200
C 	C 	0.63010 0.25000 0.57740 -0.14500
C 	C 	0.54150 0.25000 0.52650 0.01900
H 	H 	0.45910 0.25000 0.53830 0.04000
C 	C 	0.57650 0.25000 0.45770 -0.03000
H 	H 	0.51690 0.25000 0.42350 0.05700
C 	C 	0.69990 0.25000 0.43930 -0.09300
C 	C 	0.78690 0.25000 0.49050 0.08200
C 	C 	0.75270 0.25000 0.55990 -0.03100
H 	H 	0.81210 0.25000 0.59410 0.02600
C 	C 	0.72890 0.25000 0.36300 0.37600
