data_crystal

_cell_length_a 8.48700
_cell_length_b 17.92400
_cell_length_c 26.56160
_cell_angle_alpha 87.83280
_cell_angle_beta  80.80760
_cell_angle_gamma 76.30570

_symmetry_space_group_name_	'P 1'
_symmetry_space_group_name_H-M	'P 1'

loop_
_symmetry_equiv_pos_as_xyz
  x,y,z

loop_
_atom_site_label
_atom_site_type_symbol
_atom_site_fract_x
_atom_site_fract_y
_atom_site_fract_z
_atom_site_charge
Tb	Tb	0.88132 0.50000 0.23736 1.90800
Tb	Tb	0.13132 -0.00000 0.73736 1.69400
Tb	Tb	0.60565 0.00000 0.78870 1.84900
Tb	Tb	0.35565 0.50000 0.28870 2.11100
H 	H 	0.37020 0.61260 0.50500 0.10500
H 	H 	0.62280 0.24040 0.33120 0.01300
H 	H 	0.72890 0.79420 0.20580 0.11000
H 	H 	0.99860 0.17420 0.72560 -0.05400
H 	H 	0.80100 0.11940 0.97980 0.09400
H 	H 	0.55940 0.22640 0.71360 -0.00700
H 	H 	0.74970 0.40240 0.39160 0.00500
H 	H 	0.84980 0.61940 0.47980 0.10000
H 	H 	0.25060 0.72640 0.21360 -0.01000
H 	H 	0.37370 0.60080 0.41780 0.01100
H 	H 	0.53880 0.34040 0.67240 0.10500
H 	H 	0.70620 0.67780 0.13660 -0.02700
H 	H 	0.54530 0.61780 0.81000 0.10900
H 	H 	0.81270 0.35940 0.65420 0.07400
H 	H 	0.35770 0.10080 0.91780 0.00900
H 	H 	0.13400 0.82220 0.63660 0.00400
H 	H 	0.50010 0.50120 0.54500 0.08500
H 	H 	0.95490 0.49880 0.54500 0.07700
H 	H 	0.20630 0.90240 0.89160 0.03900
H 	H 	0.91310 0.88220 0.31000 0.13300
H 	H 	0.27310 0.70580 0.70580 0.09800
H 	H 	0.20850 0.39920 0.41780 -0.00000
H 	H 	0.77690 0.11780 0.31000 0.08700
H 	H 	0.90210 0.09760 0.89160 0.00800
H 	H 	0.21680 0.29100 0.59320 0.10800
H 	H 	0.92210 0.14060 0.15420 0.05400
H 	H 	0.26000 0.95620 0.19180 0.07000
H 	H 	0.04600 0.75960 0.33120 0.03400
H 	H 	0.54820 0.04380 0.19180 0.09700
H 	H 	0.73280 0.88740 0.00500 0.07700
H 	H 	0.02110 0.29420 0.70580 0.12200
H 	H 	0.67040 0.38060 0.47980 0.10000
H 	H 	0.15720 0.32220 0.13660 -0.01600
H 	H 	0.19840 0.84040 0.17240 0.11700
H 	H 	0.64470 0.38220 0.81000 0.11900
H 	H 	0.53580 0.27360 0.21360 -0.00800
H 	H 	0.61320 0.25960 0.83120 0.01300
H 	H 	0.21920 0.88060 0.97980 0.09100
H 	H 	0.25780 0.20900 0.09320 0.10800
H 	H 	0.12480 0.38740 0.50500 0.10400
H 	H 	0.27580 0.82580 0.72560 -0.02500
H 	H 	0.19000 0.70900 0.59320 0.09700
H 	H 	0.75130 0.99880 0.04500 0.07700
H 	H 	0.85870 0.59760 0.39160 0.00900
H 	H 	0.26220 0.11260 0.00500 0.09200
H 	H 	0.92370 0.85940 0.15420 0.08100
H 	H 	0.72700 0.77360 0.71360 0.00700
H 	H 	0.78880 0.65960 0.67240 0.09100
H 	H 	0.62920 0.15960 0.17240 0.09900
H 	H 	0.34200 0.45620 0.69180 0.08600
H 	H 	0.06530 0.20580 0.20580 0.11100
H 	H 	0.96620 0.54380 0.69180 0.07700
H 	H 	0.55560 0.74040 0.83120 0.02200
H 	H 	0.72450 0.89920 0.91780 0.03900
H 	H 	0.22940 0.17780 0.63660 -0.02300
H 	H 	0.92280 0.32580 0.22560 -0.05000
H 	H 	0.64900 0.79100 0.09320 0.11400
H 	H 	0.85160 0.67420 0.22560 -0.05500
H 	H 	0.53310 0.64060 0.65420 0.07900
H 	H 	0.20370 0.00120 0.04500 0.09200
C 	C 	0.20540 0.07640 0.84140 0.51100
C 	C 	0.02240 0.06840 0.23840 0.12000
C 	C 	0.05050 0.07980 0.09280 0.05800
C 	C 	0.73680 0.94800 0.18200 0.16200
C 	C 	0.92370 0.21520 0.74280 0.16500
C 	C 	0.80380 0.15980 0.29220 -0.14800
C 	C 	0.63080 0.03300 0.11680 -0.02400
C 	C 	0.38150 0.89940 0.09860 0.05100
C 	C 	0.48330 0.69060 0.17960 -0.22800
C 	C 	0.85920 0.69260 0.66500 -0.14300
C 	C 	0.42080 0.56840 0.73840 0.08200
C 	C 	0.50300 0.59740 0.64440 -0.10200
C 	C 	0.88320 0.44800 0.68200 0.03900
C 	C 	0.98230 0.76620 0.30520 0.09200
C 	C 	0.10000 0.39860 0.43060 0.12700
C 	C 	0.38890 0.48640 0.66720 -0.11000
C 	C 	0.56970 0.77860 0.11820 -0.20000
C 	C 	0.77050 0.12220 0.78920 0.41900
C 	C 	0.90400 0.84020 0.29220 -0.17400
C 	C 	0.49420 0.65980 0.79220 -0.15000
C 	C 	0.46940 0.60140 0.43060 0.10700
C 	C 	0.45200 0.17080 0.12960 0.09800
C 	C 	0.88890 0.28480 0.24280 0.14600
C 	C 	0.48840 0.23960 0.68960 0.13600
C 	C 	0.71360 0.34020 0.79220 -0.17800
C 	C 	0.98860 0.87360 0.05760 0.10300
C 	C 	0.95380 0.12640 0.05760 0.05000
C 	C 	0.43480 0.55200 0.68200 0.04700
C 	C 	0.85040 0.90260 0.14440 -0.12000
C 	C 	0.11290 0.89920 0.91440 0.06800
C 	C 	0.29290 0.21080 0.64360 0.12800
C 	C 	0.79590 0.78720 0.23100 -0.22000
C 	C 	0.99760 0.67080 0.62960 0.05800
C 	C 	0.33240 0.73960 0.18960 0.15700
C 	C 	0.30180 0.80740 0.16500 -0.20100
C 	C 	0.46660 0.61040 0.48240 -0.15200
C 	C 	0.60270 0.71080 0.14360 0.14600
C 	C 	0.31210 0.22140 0.11820 -0.18000
C 	C 	0.08120 0.05200 0.18200 -0.07900
C 	C 	0.96940 0.53300 0.61680 0.03000
C 	C 	0.91240 0.11320 0.96760 -0.15000
C 	C 	0.41380 0.46700 0.61680 0.05800
C 	C 	0.93120 0.14940 0.25360 0.07100
C 	C 	0.84080 0.43160 0.73840 0.07300
C 	C 	0.88410 0.88640 0.70620 0.44600
C 	C 	0.41580 0.64940 0.75360 0.09200
C 	C 	0.62680 0.57640 0.34140 0.54800
C 	C 	0.40970 0.11360 0.70620 0.47200
C 	C 	0.83020 0.37360 0.55760 0.08900
C 	C 	0.69630 0.26620 0.80520 0.11000
C 	C 	0.27330 0.38640 0.20620 0.49000
C 	C 	0.75240 0.29880 0.28020 -0.18400
C 	C 	0.00520 0.09740 0.14440 -0.06200
C 	C 	0.13960 0.09360 0.89760 -0.17900
C 	C 	0.03090 0.60060 0.59860 0.10600
C 	C 	0.82200 0.76040 0.68960 0.10400
C 	C 	0.09830 0.72140 0.61820 -0.13200
C 	C 	0.88550 0.38420 0.50080 0.06300
C 	C 	0.12000 0.88680 0.96760 -0.06000
C 	C 	0.85670 0.92020 0.09280 0.02100
C 	C 	0.73920 0.93160 0.23840 0.04500
C 	C 	0.71250 0.23380 0.30520 0.08400
C 	C 	0.96740 0.70120 0.28020 -0.20100
C 	C 	0.64270 0.37780 0.28920 0.41900
C 	C 	0.25370 0.28920 0.14360 0.12800
C 	C 	0.52050 0.61360 0.20620 0.49700
C 	C 	0.88030 0.42020 0.59280 0.02700
C 	C 	0.33310 0.71280 0.73100 -0.17800
C 	C 	0.06810 0.62220 0.28920 0.43400
C 	C 	0.85260 0.40260 0.64440 -0.09600
C 	C 	0.82080 0.89860 0.93060 0.06000
C 	C 	0.93590 0.28720 0.73100 -0.23200
C 	C 	0.76210 0.60080 0.41440 0.09300
C 	C 	0.51990 0.10060 0.09860 0.08100
C 	C 	0.17260 0.01460 0.07920 -0.22100
C 	C 	0.37280 0.32920 0.62960 0.11000
C 	C 	0.20750 0.98640 0.16720 0.01300
C 	C 	0.33350 0.78480 0.74280 0.12400
C 	C 	0.82700 0.88960 0.98240 -0.07500
C 	C 	0.41860 0.79880 0.78020 -0.16200
C 	C 	0.62530 0.01360 0.16720 -0.22700
C 	C 	0.28350 0.27860 0.61820 -0.18600
C 	C 	0.82350 0.39920 0.41440 0.10300
C 	C 	0.97310 0.21280 0.23100 -0.20600
C 	C 	0.33710 0.30940 0.17960 -0.21500
C 	C 	0.95320 0.92360 0.84140 0.49400
C 	C 	0.03180 0.42360 0.34140 0.57900
C 	C 	0.81520 0.85060 0.25360 0.13100
C 	C 	0.37050 0.39940 0.59860 0.06800
C 	C 	0.25240 0.96700 0.11680 0.13900
C 	C 	0.80120 0.20120 0.78020 -0.19600
C 	C 	0.61220 0.62640 0.55760 0.08600
C 	C 	0.48360 0.51460 0.57920 -0.09700
C 	C 	0.01970 0.11580 0.00080 0.07500
C 	C 	0.52690 0.57980 0.59280 0.04000
C 	C 	0.44030 0.87780 0.78920 0.39300
C 	C 	0.83060 0.35060 0.75360 0.11900
C 	C 	0.94390 0.51360 0.66720 -0.09600
C 	C 	0.05100 0.38960 0.48240 -0.15300
C 	C 	0.39650 0.19060 0.67960 -0.21300
C 	C 	0.19060 0.11040 0.98240 -0.14300
C 	C 	0.98320 0.40640 0.39760 -0.22800
C 	C 	0.61920 0.59360 0.39760 -0.19300
C 	C 	0.86830 0.71520 0.24280 0.16400
C 	C 	0.92390 0.80940 0.67960 -0.18400
C 	C 	0.75680 0.61320 0.46760 -0.13600
C 	C 	0.06350 0.78920 0.64360 0.10600
C 	C 	0.93720 0.48540 0.57920 -0.08300
C 	C 	0.41840 0.82920 0.12960 0.13000
C 	C 	0.24860 0.10140 0.93060 0.08100
C 	C 	0.49850 0.73380 0.80520 0.08200
C 	C 	0.97270 0.10080 0.91440 0.06100
C 	C 	0.47580 0.30740 0.66500 -0.18600
C 	C 	0.53320 0.19260 0.16500 -0.18100
C 	C 	0.47800 0.26040 0.18960 0.13400
C 	C 	0.74820 0.98540 0.07920 0.02900
C 	C 	0.77560 0.38680 0.46760 -0.14400
C 	C 	0.61370 0.61580 0.50080 0.07400
C 	C 	0.96280 0.90640 0.89760 -0.14500
C 	C 	0.97950 0.88420 0.00080 0.01000
O 	O 	0.68645 0.67020 0.56990 -0.18700
O 	O 	0.80550 0.94080 0.83280 -0.47600
O 	O 	0.33163 0.40240 0.55494 -0.18500
O 	O 	0.38558 0.93324 0.76140 -0.48200
O 	O 	0.36170 0.05920 0.83280 -0.54600
O 	O 	0.74620 0.57580 0.31100 -0.52100
O 	O 	0.04200 0.01780 0.26940 -0.24300
O 	O 	0.80980 0.48220 0.76940 -0.18200
O 	O 	0.82345 0.17020 0.06990 -0.19000
O 	O 	0.07200 0.92420 0.81100 -0.44000
O 	O 	0.46103 0.90240 0.05494 -0.15500
O 	O 	0.37890 0.41600 0.22360 -0.52700
O 	O 	0.49630 0.55920 0.33280 -0.56100
O 	O 	0.52590 0.88480 0.82300 -0.39000
O 	O 	0.17090 0.44080 0.33280 -0.56900
O 	O 	0.42080 0.51780 0.76940 -0.18200
O 	O 	0.11700 0.07580 0.81100 -0.50300
O 	O 	0.73150 0.91600 0.72360 -0.44800
O 	O 	0.06882 0.56676 0.26140 -0.57400
O 	O 	0.66990 0.58340 0.20740 -0.56300
O 	O 	0.74365 0.32980 0.56990 -0.19900
O 	O 	0.51630 0.38480 0.32300 -0.44300
O 	O 	0.00330 0.91660 0.70740 -0.47300
O 	O 	0.94280 0.42420 0.31100 -0.53800
O 	O 	0.28930 0.08340 0.70740 -0.54500
O 	O 	0.85302 0.06676 0.76140 -0.57200
O 	O 	0.39750 0.58400 0.22360 -0.52700
O 	O 	0.48403 0.09760 0.05494 -0.21300
O 	O 	0.54490 0.08400 0.72360 -0.51300
O 	O 	0.10665 0.82980 0.06990 -0.18400
O 	O 	0.65110 0.11520 0.82300 -0.43200
O 	O 	0.66978 0.43324 0.26140 -0.57600
O 	O 	0.12270 0.41660 0.20740 -0.55500
O 	O 	0.68860 0.98220 0.26940 -0.12000
O 	O 	0.16070 0.61520 0.32300 -0.44100
O 	O 	0.11343 0.59760 0.55494 -0.18800
