data_crystal

_cell_length_a 12.32750
_cell_length_b 12.32750
_cell_length_c 12.54150
_cell_angle_alpha 90.00000
_cell_angle_beta  90.00000
_cell_angle_gamma 120.00000

_symmetry_space_group_name_	'P 1'
_symmetry_space_group_name_H-M	'P 1'

loop_
_symmetry_equiv_pos_as_xyz
  x,y,z

loop_
_atom_site_label
_atom_site_type_symbol
_atom_site_fract_x
_atom_site_fract_y
_atom_site_fract_z
_atom_site_charge
N 	N 	0.35110 0.22670 0.09320 -0.11600
N 	N 	0.44580 0.30890 0.03260 -0.19400
N 	N 	0.50300 0.25050 0.99650 -0.06200
N 	N 	0.44670 0.13380 0.03300 -0.24400
N 	N 	0.52740 0.47350 0.83610 -0.16100
N 	N 	0.58790 0.41260 0.80160 -0.13700
C 	C 	0.35150 0.12050 0.09280 0.08200
H 	H 	0.29470 0.04780 0.12850 -0.03300
N 	N 	0.77330 0.12440 0.09320 -0.11300
N 	N 	0.69110 0.13690 0.03260 -0.19900
N 	N 	0.74950 0.25250 0.99650 -0.06100
N 	N 	0.86620 0.31290 0.03300 -0.21600
N 	N 	0.52650 0.05390 0.83610 -0.21800
N 	N 	0.58740 0.17530 0.80160 -0.14100
C 	C 	0.87950 0.23100 0.09280 0.09400
H 	H 	0.95220 0.24690 0.12850 0.01200
N 	N 	0.87560 0.64890 0.09320 -0.08400
N 	N 	0.86310 0.55420 0.03260 -0.17100
N 	N 	0.74750 0.49700 0.99650 -0.05900
N 	N 	0.68710 0.55330 0.03300 -0.23200
N 	N 	0.94610 0.47260 0.83610 -0.08700
N 	N 	0.82470 0.41210 0.80160 -0.13300
C 	C 	0.76900 0.64850 0.09280 0.09600
H 	H 	0.75310 0.70530 0.12850 0.00700
N 	N 	0.77330 0.64890 0.40680 -0.08400
N 	N 	0.69110 0.55420 0.46740 -0.13400
N 	N 	0.74950 0.49700 0.50350 -0.14000
N 	N 	0.86620 0.55330 0.46700 -0.16400
N 	N 	0.52650 0.47260 0.66390 -0.18000
N 	N 	0.58740 0.41210 0.69840 -0.14300
C 	C 	0.87950 0.64850 0.40720 0.11500
H 	H 	0.95220 0.70530 0.37150 0.03100
N 	N 	0.87560 0.22670 0.40680 -0.08200
N 	N 	0.86310 0.30890 0.46740 -0.11900
N 	N 	0.74750 0.25050 0.50350 -0.14200
N 	N 	0.68710 0.13380 0.46700 -0.19000
N 	N 	0.94610 0.47350 0.66390 -0.10400
N 	N 	0.82470 0.41260 0.69840 -0.13800
C 	C 	0.76900 0.12050 0.40720 0.10400
H 	H 	0.75310 0.04780 0.37150 -0.01100
N 	N 	0.35110 0.12440 0.40680 -0.11300
N 	N 	0.44580 0.13690 0.46740 -0.14700
N 	N 	0.50300 0.25250 0.50350 -0.14600
N 	N 	0.44670 0.31290 0.46700 -0.18500
N 	N 	0.52740 0.05390 0.66390 -0.23700
N 	N 	0.58790 0.17530 0.69840 -0.14700
C 	C 	0.35150 0.23100 0.40720 0.10100
H 	H 	0.29470 0.24690 0.37150 -0.01300
N 	N 	0.64890 0.77330 0.90680 -0.06900
N 	N 	0.55420 0.69110 0.96740 -0.07000
N 	N 	0.49700 0.74950 0.00350 -0.22100
N 	N 	0.55330 0.86620 0.96700 -0.10500
N 	N 	0.47260 0.52650 0.16390 -0.19000
N 	N 	0.41210 0.58740 0.19840 -0.15000
C 	C 	0.64850 0.87950 0.90720 0.12900
H 	H 	0.70530 0.95220 0.87150 0.04300
N 	N 	0.22670 0.87560 0.90680 -0.07000
N 	N 	0.30890 0.86310 0.96740 -0.05800
N 	N 	0.25050 0.74750 0.00350 -0.22400
N 	N 	0.13380 0.68710 0.96700 -0.12900
N 	N 	0.47350 0.94610 0.16390 -0.12400
N 	N 	0.41260 0.82470 0.19840 -0.14600
C 	C 	0.12050 0.76900 0.90720 0.11800
H 	H 	0.04780 0.75310 0.87150 -0.00000
N 	N 	0.12440 0.35110 0.90680 -0.09800
N 	N 	0.13690 0.44580 0.96740 -0.08300
N 	N 	0.25250 0.50300 0.00350 -0.22800
N 	N 	0.31290 0.44670 0.96700 -0.12200
N 	N 	0.05390 0.52740 0.16390 -0.25900
N 	N 	0.17530 0.58790 0.19840 -0.15400
C 	C 	0.23100 0.35150 0.90720 0.11700
H 	H 	0.24690 0.29470 0.87150 0.00300
N 	N 	0.22670 0.35110 0.59320 -0.10100
N 	N 	0.30890 0.44580 0.53260 -0.13900
N 	N 	0.25050 0.50300 0.49650 -0.14600
N 	N 	0.13380 0.44670 0.53300 -0.19300
N 	N 	0.47350 0.52740 0.33610 -0.18200
N 	N 	0.41260 0.58790 0.30160 -0.14500
C 	C 	0.12050 0.35150 0.59280 0.09700
H 	H 	0.04780 0.29470 0.62850 -0.02200
N 	N 	0.12440 0.77330 0.59320 -0.10200
N 	N 	0.13690 0.69110 0.53260 -0.14600
N 	N 	0.25250 0.74950 0.49650 -0.14400
N 	N 	0.31290 0.86620 0.53300 -0.16800
N 	N 	0.05390 0.52650 0.33610 -0.25100
N 	N 	0.17530 0.58740 0.30160 -0.15000
C 	C 	0.23100 0.87950 0.59280 0.10800
H 	H 	0.24690 0.95220 0.62850 0.02000
N 	N 	0.64890 0.87560 0.59320 -0.07200
N 	N 	0.55420 0.86310 0.53260 -0.12000
N 	N 	0.49700 0.74750 0.49650 -0.14100
N 	N 	0.55330 0.68710 0.53300 -0.18100
N 	N 	0.47260 0.94610 0.33610 -0.11700
N 	N 	0.41210 0.82470 0.30160 -0.14100
C 	C 	0.64850 0.76900 0.59280 0.11100
H 	H 	0.70530 0.75310 0.62850 0.02000
Cu	Cu	0.50000 0.50000 -0.00000 0.82500
Cu	Cu	0.50000 0.00000 -0.00000 0.79700
Cu	Cu	-0.00000 0.50000 -0.00000 0.79100
Cu	Cu	0.50000 0.50000 0.50000 0.86900
Cu	Cu	-0.00000 0.50000 0.50000 0.83500
Cu	Cu	0.50000 0.00000 0.50000 0.84000
Cu	Cu	0.66667 0.33333 0.90079 0.87400
Cu	Cu	0.66667 0.33333 0.59921 0.86200
Cu	Cu	0.33333 0.66667 0.09921 0.85200
Cu	Cu	0.33333 0.66667 0.40079 0.86100
C 	C 	0.49080 0.50920 0.75000 0.11400
H 	H 	0.44730 0.55270 0.75000 -0.00500
C 	C 	0.49080 0.98160 0.75000 0.25500
H 	H 	0.44730 0.89460 0.75000 -0.04500
C 	C 	0.01840 0.50920 0.75000 -0.05300
H 	H 	0.10540 0.55270 0.75000 0.04500
C 	C 	0.50920 0.49080 0.25000 0.11200
H 	H 	0.55270 0.44730 0.25000 -0.01400
C 	C 	0.50920 0.01840 0.25000 -0.03200
H 	H 	0.55270 0.10540 0.25000 0.02900
C 	C 	0.98160 0.49080 0.25000 0.28400
H 	H 	0.89460 0.44730 0.25000 -0.06300
