data_crystal

_cell_length_a 11.61190
_cell_length_b 8.61160
_cell_length_c 8.87610
_cell_angle_alpha 90.00000
_cell_angle_beta  90.00000
_cell_angle_gamma 90.00000

_symmetry_space_group_name_	'P 1'
_symmetry_space_group_name_H-M	'P 1'

loop_
_symmetry_equiv_pos_as_xyz
  x,y,z

loop_
_atom_site_label
_atom_site_type_symbol
_atom_site_fract_x
_atom_site_fract_y
_atom_site_fract_z
_atom_site_charge
N 	N 	0.71980 0.58470 0.33950 -0.18000
N 	N 	0.62560 0.49300 0.34240 -0.13800
N 	N 	0.63060 0.38890 0.23670 -0.07100
N 	N 	0.72960 0.41050 0.16190 -0.19200
C 	C 	0.78220 0.53070 0.22570 0.10700
H 	H 	0.85270 0.57120 0.19500 0.03400
N 	N 	0.28020 0.41530 0.33950 -0.19000
N 	N 	0.37440 0.50700 0.34240 -0.14000
N 	N 	0.36940 0.61110 0.23670 -0.06900
N 	N 	0.27040 0.58950 0.16190 -0.19700
C 	C 	0.21780 0.46930 0.22570 0.10400
H 	H 	0.14730 0.42880 0.19500 0.00100
N 	N 	0.78020 0.08470 0.16050 -0.20600
N 	N 	0.87440 0.99300 0.15760 -0.10000
N 	N 	0.86940 0.88890 0.26330 -0.03800
N 	N 	0.77040 0.91050 0.33810 -0.15300
C 	C 	0.71780 0.03070 0.27430 0.06100
H 	H 	0.64730 0.07120 0.30500 0.02300
N 	N 	0.21980 0.91530 0.16050 -0.18700
N 	N 	0.12560 0.00700 0.15760 -0.18100
N 	N 	0.13060 0.11110 0.26330 -0.07900
N 	N 	0.22960 0.08950 0.33810 -0.21300
C 	C 	0.28220 0.96930 0.27430 0.15800
H 	H 	0.35270 0.92880 0.30500 0.00900
N 	N 	0.28020 0.41530 0.66050 -0.18300
N 	N 	0.37440 0.50700 0.65760 -0.13200
N 	N 	0.36940 0.61110 0.76330 -0.04000
N 	N 	0.27040 0.58950 0.83810 -0.14100
C 	C 	0.21780 0.46930 0.77430 0.12600
H 	H 	0.14730 0.42880 0.80500 0.04300
N 	N 	0.71980 0.58470 0.66050 -0.17500
N 	N 	0.62560 0.49300 0.65760 -0.13000
N 	N 	0.63060 0.38890 0.76330 -0.04100
N 	N 	0.72960 0.41050 0.83810 -0.13700
C 	C 	0.78220 0.53070 0.77430 0.12800
H 	H 	0.85270 0.57120 0.80500 0.07400
N 	N 	0.21980 0.91530 0.83950 -0.13700
N 	N 	0.12560 0.00700 0.84240 -0.12300
N 	N 	0.13060 0.11110 0.73670 -0.06200
N 	N 	0.22960 0.08950 0.66190 -0.20600
C 	C 	0.28220 0.96930 0.72570 0.17200
H 	H 	0.35270 0.92880 0.69500 0.02400
N 	N 	0.78020 0.08470 0.83950 -0.15300
N 	N 	0.87440 0.99300 0.84240 -0.05100
N 	N 	0.86940 0.88890 0.73670 -0.02200
N 	N 	0.77040 0.91050 0.66190 -0.15000
C 	C 	0.71780 0.03070 0.72570 0.08100
H 	H 	0.64730 0.07120 0.69500 0.03800
Cu	Cu	0.73167 0.75605 0.50000 0.89500
Cl	Cl	0.52122 0.80114 0.50000 -0.47600
Cu	Cu	0.26833 0.24395 0.50000 0.88300
Cl	Cl	0.47878 0.19886 0.50000 -0.51100
Cu	Cu	0.76833 0.25605 -0.00000 0.83900
Cl	Cl	0.97878 0.30114 -0.00000 -0.52100
Cu	Cu	0.23167 0.74395 -0.00000 0.84300
Cl	Cl	0.02122 0.69886 -0.00000 -0.62400
Cu	Cu	0.50000 0.50000 0.50000 0.89900
Cu	Cu	-0.00000 0.00000 -0.00000 0.80700
