data_crystal

_cell_length_a 15.08500
_cell_length_b 15.08500
_cell_length_c 18.90600
_cell_angle_alpha 90.00000
_cell_angle_beta  90.00000
_cell_angle_gamma 90.00000

_symmetry_space_group_name_	'P 1'
_symmetry_space_group_name_H-M	'P 1'

loop_
_symmetry_equiv_pos_as_xyz
  x,y,z

loop_
_atom_site_label
_atom_site_type_symbol
_atom_site_fract_x
_atom_site_fract_y
_atom_site_fract_z
_atom_site_charge
O 	O 	0.62141 0.55569 0.94102 -0.39900
C 	C 	0.76470 0.67090 0.93632 0.05400
H 	H 	0.74390 0.64750 0.89270 0.04500
C 	C 	0.55800 0.57200 0.79210 0.02900
H 	H 	0.57900 0.60100 0.81300 0.02800
H 	H 	0.51000 0.63100 0.81600 0.03500
C 	C 	0.08500 0.97800 0.29260 0.02700
C 	C 	0.08300 0.04900 0.28950 -0.02800
C 	C 	0.09360 0.01500 0.28820 0.43900
O 	O 	0.12141 0.05569 0.44102 -0.49500
C 	C 	0.26470 0.17090 0.43632 -0.00600
H 	H 	0.24390 0.14750 0.39270 0.02300
C 	C 	0.05800 0.07200 0.29210 -0.42700
H 	H 	0.07900 0.10100 0.31300 0.30300
H 	H 	0.01000 0.13100 0.31600 0.01600
C 	C 	0.58500 0.47800 0.79260 -0.00300
C 	C 	0.58300 0.54900 0.78950 -0.03200
C 	C 	0.59360 0.51500 0.78820 -0.04200
O 	O 	0.37859 0.44431 0.94102 -0.40500
C 	C 	0.23530 0.32910 0.93632 0.01300
H 	H 	0.25610 0.35250 0.89270 0.03700
C 	C 	0.44200 0.42800 0.79210 0.00500
H 	H 	0.42100 0.39900 0.81300 0.02700
H 	H 	0.49000 0.36900 0.81600 0.04500
C 	C 	0.91500 0.02200 0.29260 -0.14900
C 	C 	0.91700 0.95100 0.28950 0.08000
C 	C 	0.90640 0.98500 0.28820 -0.42000
O 	O 	0.87859 0.94431 0.44102 -0.36300
C 	C 	0.73530 0.82910 0.43632 -0.02600
H 	H 	0.75610 0.85250 0.39270 0.07200
C 	C 	0.94200 0.92800 0.29210 0.42900
H 	H 	0.92100 0.89900 0.31300 -0.24600
H 	H 	0.99000 0.86900 0.31600 0.05200
C 	C 	0.41500 0.52200 0.79260 -0.01500
C 	C 	0.41700 0.45100 0.78950 0.00200
C 	C 	0.40640 0.48500 0.78820 -0.01300
O 	O 	0.44431 0.62141 0.94102 -0.40100
C 	C 	0.32910 0.76470 0.93632 0.03800
H 	H 	0.35250 0.74390 0.89270 0.04300
C 	C 	0.42800 0.55800 0.79210 0.00500
H 	H 	0.39900 0.57900 0.81300 0.04100
H 	H 	0.36900 0.51000 0.81600 0.02900
C 	C 	0.02200 0.08500 0.29260 -0.34900
C 	C 	0.95100 0.08300 0.28950 0.49000
C 	C 	0.98500 0.09360 0.28820 0.03100
O 	O 	0.94431 0.12141 0.44102 -0.41300
C 	C 	0.82910 0.26470 0.43632 -0.01900
H 	H 	0.85250 0.24390 0.39270 0.05500
C 	C 	0.92800 0.05800 0.29210 0.13700
H 	H 	0.89900 0.07900 0.31300 -0.19700
H 	H 	0.86900 0.01000 0.31600 0.21900
C 	C 	0.52200 0.58500 0.79260 0.01700
C 	C 	0.45100 0.58300 0.78950 -0.02900
C 	C 	0.48500 0.59360 0.78820 -0.02600
O 	O 	0.55569 0.37859 0.94102 -0.40400
C 	C 	0.67090 0.23530 0.93632 0.03100
H 	H 	0.64750 0.25610 0.89270 0.03800
C 	C 	0.57200 0.44200 0.79210 0.02800
H 	H 	0.60100 0.42100 0.81300 0.01400
H 	H 	0.63100 0.49000 0.81600 0.05100
C 	C 	0.97800 0.91500 0.29260 0.25900
C 	C 	0.04900 0.91700 0.28950 -0.40400
C 	C 	0.01500 0.90640 0.28820 -0.02800
O 	O 	0.05569 0.87859 0.44102 -0.43400
C 	C 	0.17090 0.73530 0.43632 -0.01400
H 	H 	0.14750 0.75610 0.39270 0.04300
C 	C 	0.07200 0.94200 0.29210 -0.11500
H 	H 	0.10100 0.92100 0.31300 0.24200
H 	H 	0.13100 0.99000 0.31600 -0.12900
C 	C 	0.47800 0.41500 0.79260 -0.03500
C 	C 	0.54900 0.41700 0.78950 -0.00000
C 	C 	0.51500 0.40640 0.78820 -0.02900
O 	O 	0.37859 0.55569 0.55898 -0.44800
C 	C 	0.23530 0.67090 0.56368 -0.01600
H 	H 	0.25610 0.64750 0.60730 0.04700
C 	C 	0.44200 0.57200 0.70790 0.02700
H 	H 	0.42100 0.60100 0.68700 0.01300
H 	H 	0.49000 0.63100 0.68400 0.05000
C 	C 	0.91500 0.97800 0.20740 0.26000
C 	C 	0.91700 0.04900 0.21050 -0.40500
C 	C 	0.90640 0.01500 0.21180 -0.03000
O 	O 	0.87859 0.05569 0.05898 -0.42800
C 	C 	0.73530 0.17090 0.06368 -0.01200
H 	H 	0.75610 0.14750 0.10730 0.04200
C 	C 	0.94200 0.07200 0.20790 -0.11500
H 	H 	0.92100 0.10100 0.18700 0.24100
H 	H 	0.99000 0.13100 0.18400 -0.13100
C 	C 	0.41500 0.47800 0.70740 -0.03800
C 	C 	0.41700 0.54900 0.71050 0.00200
C 	C 	0.40640 0.51500 0.71180 -0.02800
O 	O 	0.62141 0.44431 0.55898 -0.44600
C 	C 	0.76470 0.32910 0.56368 -0.00900
H 	H 	0.74390 0.35250 0.60730 0.05100
C 	C 	0.55800 0.42800 0.70790 0.00400
H 	H 	0.57900 0.39900 0.68700 0.04000
H 	H 	0.51000 0.36900 0.68400 0.02800
C 	C 	0.08500 0.02200 0.20740 -0.35200
C 	C 	0.08300 0.95100 0.21050 0.49400
C 	C 	0.09360 0.98500 0.21180 0.03400
O 	O 	0.12141 0.94431 0.05898 -0.40800
C 	C 	0.26470 0.82910 0.06368 -0.01700
H 	H 	0.24390 0.85250 0.10730 0.05300
C 	C 	0.05800 0.92800 0.20790 0.13500
H 	H 	0.07900 0.89900 0.18700 -0.19700
H 	H 	0.01000 0.86900 0.18400 0.22000
C 	C 	0.58500 0.52200 0.70740 0.01500
C 	C 	0.58300 0.45100 0.71050 -0.02700
C 	C 	0.59360 0.48500 0.71180 -0.02500
O 	O 	0.55569 0.62141 0.55898 -0.44400
C 	C 	0.67090 0.76470 0.56368 0.00700
H 	H 	0.64750 0.74390 0.60730 0.05200
C 	C 	0.57200 0.55800 0.70790 0.02700
H 	H 	0.60100 0.57900 0.68700 0.02600
H 	H 	0.63100 0.51000 0.68400 0.03400
C 	C 	0.97800 0.08500 0.20740 0.02800
C 	C 	0.04900 0.08300 0.21050 -0.02900
C 	C 	0.01500 0.09360 0.21180 0.44000
O 	O 	0.05569 0.12141 0.05898 -0.48900
C 	C 	0.17090 0.26470 0.06368 -0.00400
H 	H 	0.14750 0.24390 0.10730 0.02100
C 	C 	0.07200 0.05800 0.20790 -0.42900
H 	H 	0.10100 0.07900 0.18700 0.30400
H 	H 	0.13100 0.01000 0.18400 0.01500
C 	C 	0.47800 0.58500 0.70740 -0.00500
C 	C 	0.54900 0.58300 0.71050 -0.03000
C 	C 	0.51500 0.59360 0.71180 -0.04100
O 	O 	0.44431 0.37859 0.55898 -0.45000
C 	C 	0.32910 0.23530 0.56368 -0.03300
H 	H 	0.35250 0.25610 0.60730 0.04600
C 	C 	0.42800 0.44200 0.70790 0.00400
H 	H 	0.39900 0.42100 0.68700 0.02700
H 	H 	0.36900 0.49000 0.68400 0.04400
C 	C 	0.02200 0.91500 0.20740 -0.15400
C 	C 	0.95100 0.91700 0.21050 0.08300
C 	C 	0.98500 0.90640 0.21180 -0.41900
O 	O 	0.94431 0.87859 0.05898 -0.35800
C 	C 	0.82910 0.73530 0.06368 -0.02300
H 	H 	0.85250 0.75610 0.10730 0.07000
C 	C 	0.92800 0.94200 0.20790 0.43000
H 	H 	0.89900 0.92100 0.18700 -0.24800
H 	H 	0.86900 0.99000 0.18400 0.05200
C 	C 	0.52200 0.41500 0.70740 -0.01800
C 	C 	0.45100 0.41700 0.71050 0.00500
C 	C 	0.48500 0.40640 0.71180 -0.01200
O 	O 	0.37859 0.44431 0.05898 -0.44500
C 	C 	0.23530 0.32910 0.06368 -0.03100
H 	H 	0.25610 0.35250 0.10730 0.04300
C 	C 	0.44200 0.42800 0.20790 0.00300
H 	H 	0.42100 0.39900 0.18700 0.02600
H 	H 	0.49000 0.36900 0.18400 0.04300
C 	C 	0.91500 0.02200 0.70740 -0.14800
C 	C 	0.91700 0.95100 0.71050 0.08000
C 	C 	0.90640 0.98500 0.71180 -0.42000
O 	O 	0.87859 0.94431 0.55898 -0.36300
C 	C 	0.73530 0.82910 0.56368 -0.02500
H 	H 	0.75610 0.85250 0.60730 0.07400
C 	C 	0.94200 0.92800 0.70790 0.43000
H 	H 	0.92100 0.89900 0.68700 -0.24500
H 	H 	0.99000 0.86900 0.68400 0.05300
C 	C 	0.41500 0.52200 0.20740 -0.02000
C 	C 	0.41700 0.45100 0.21050 0.00700
C 	C 	0.40640 0.48500 0.21180 -0.01100
O 	O 	0.62141 0.55569 0.05898 -0.43900
C 	C 	0.76470 0.67090 0.06368 0.00900
H 	H 	0.74390 0.64750 0.10730 0.04900
C 	C 	0.55800 0.57200 0.20790 0.02600
H 	H 	0.57900 0.60100 0.18700 0.02500
H 	H 	0.51000 0.63100 0.18400 0.03200
C 	C 	0.08500 0.97800 0.70740 0.02700
C 	C 	0.08300 0.04900 0.71050 -0.03000
C 	C 	0.09360 0.01500 0.71180 0.43900
O 	O 	0.12141 0.05569 0.55898 -0.49400
C 	C 	0.26470 0.17090 0.56368 -0.00600
H 	H 	0.24390 0.14750 0.60730 0.02400
C 	C 	0.05800 0.07200 0.70790 -0.42700
H 	H 	0.07900 0.10100 0.68700 0.30400
H 	H 	0.01000 0.13100 0.68400 0.01700
C 	C 	0.58500 0.47800 0.20740 -0.00800
C 	C 	0.58300 0.54900 0.21050 -0.02700
C 	C 	0.59360 0.51500 0.21180 -0.04000
O 	O 	0.55569 0.37859 0.05898 -0.44300
C 	C 	0.67090 0.23530 0.06368 -0.01400
H 	H 	0.64750 0.25610 0.10730 0.04400
C 	C 	0.57200 0.44200 0.20790 0.02600
H 	H 	0.60100 0.42100 0.18700 0.01200
H 	H 	0.63100 0.49000 0.18400 0.04900
C 	C 	0.97800 0.91500 0.70740 0.26000
C 	C 	0.04900 0.91700 0.71050 -0.40500
C 	C 	0.01500 0.90640 0.71180 -0.02800
O 	O 	0.05569 0.87859 0.55898 -0.43300
C 	C 	0.17090 0.73530 0.56368 -0.01400
H 	H 	0.14750 0.75610 0.60730 0.04500
C 	C 	0.07200 0.94200 0.70790 -0.11500
H 	H 	0.10100 0.92100 0.68700 0.24300
H 	H 	0.13100 0.99000 0.68400 -0.12800
C 	C 	0.47800 0.41500 0.20740 -0.04000
C 	C 	0.54900 0.41700 0.21050 0.00400
C 	C 	0.51500 0.40640 0.21180 -0.02700
O 	O 	0.44431 0.62141 0.05898 -0.44100
C 	C 	0.32910 0.76470 0.06368 -0.00700
H 	H 	0.35250 0.74390 0.10730 0.04800
C 	C 	0.42800 0.55800 0.20790 0.00300
H 	H 	0.39900 0.57900 0.18700 0.03900
H 	H 	0.36900 0.51000 0.18400 0.02700
C 	C 	0.02200 0.08500 0.70740 -0.34800
C 	C 	0.95100 0.08300 0.71050 0.49000
C 	C 	0.98500 0.09360 0.71180 0.03100
O 	O 	0.94431 0.12141 0.55898 -0.41300
C 	C 	0.82910 0.26470 0.56368 -0.01900
H 	H 	0.85250 0.24390 0.60730 0.05600
C 	C 	0.92800 0.05800 0.70790 0.13800
H 	H 	0.89900 0.07900 0.68700 -0.19700
H 	H 	0.86900 0.01000 0.68400 0.22000
C 	C 	0.52200 0.58500 0.20740 0.01200
C 	C 	0.45100 0.58300 0.21050 -0.02500
C 	C 	0.48500 0.59360 0.21180 -0.02400
O 	O 	0.62141 0.44431 0.44102 -0.44600
C 	C 	0.76470 0.32910 0.43632 -0.00900
H 	H 	0.74390 0.35250 0.39270 0.05000
C 	C 	0.55800 0.42800 0.29210 0.00300
H 	H 	0.57900 0.39900 0.31300 0.03900
H 	H 	0.51000 0.36900 0.31600 0.02800
C 	C 	0.08500 0.02200 0.79260 -0.34700
C 	C 	0.08300 0.95100 0.78950 0.49000
C 	C 	0.09360 0.98500 0.78820 0.03200
O 	O 	0.12141 0.94431 0.94102 -0.37000
C 	C 	0.26470 0.82910 0.93632 0.02700
H 	H 	0.24390 0.85250 0.89270 0.04700
C 	C 	0.05800 0.92800 0.79210 0.13700
H 	H 	0.07900 0.89900 0.81300 -0.19600
H 	H 	0.01000 0.86900 0.81600 0.22200
C 	C 	0.58500 0.52200 0.29260 0.01400
C 	C 	0.58300 0.45100 0.28950 -0.02700
C 	C 	0.59360 0.48500 0.28820 -0.02500
O 	O 	0.37859 0.55569 0.44102 -0.44800
C 	C 	0.23530 0.67090 0.43632 -0.01600
H 	H 	0.25610 0.64750 0.39270 0.04600
C 	C 	0.44200 0.57200 0.29210 0.02700
H 	H 	0.42100 0.60100 0.31300 0.01200
H 	H 	0.49000 0.63100 0.31600 0.04900
C 	C 	0.91500 0.97800 0.79260 0.26400
C 	C 	0.91700 0.04900 0.78950 -0.41000
C 	C 	0.90640 0.01500 0.78820 -0.03200
O 	O 	0.87859 0.05569 0.94102 -0.39000
C 	C 	0.73530 0.17090 0.93632 0.03200
H 	H 	0.75610 0.14750 0.89270 0.03600
C 	C 	0.94200 0.07200 0.79210 -0.11300
H 	H 	0.92100 0.10100 0.81300 0.24300
H 	H 	0.99000 0.13100 0.81600 -0.12900
C 	C 	0.41500 0.47800 0.29260 -0.03800
C 	C 	0.41700 0.54900 0.28950 0.00200
C 	C 	0.40640 0.51500 0.28820 -0.02800
O 	O 	0.44431 0.37859 0.44102 -0.45000
C 	C 	0.32910 0.23530 0.43632 -0.03400
H 	H 	0.35250 0.25610 0.39270 0.04500
C 	C 	0.42800 0.44200 0.29210 0.00400
H 	H 	0.39900 0.42100 0.31300 0.02600
H 	H 	0.36900 0.49000 0.31600 0.04400
C 	C 	0.02200 0.91500 0.79260 -0.14900
C 	C 	0.95100 0.91700 0.78950 0.07900
C 	C 	0.98500 0.90640 0.78820 -0.42200
O 	O 	0.94431 0.87859 0.94102 -0.32000
C 	C 	0.82910 0.73530 0.93632 0.02100
H 	H 	0.85250 0.75610 0.89270 0.06500
C 	C 	0.92800 0.94200 0.79210 0.43200
H 	H 	0.89900 0.92100 0.81300 -0.24700
H 	H 	0.86900 0.99000 0.81600 0.05400
C 	C 	0.52200 0.41500 0.29260 -0.01800
C 	C 	0.45100 0.41700 0.28950 0.00500
C 	C 	0.48500 0.40640 0.28820 -0.01200
O 	O 	0.55569 0.62141 0.44102 -0.44400
C 	C 	0.67090 0.76470 0.43632 0.00600
H 	H 	0.64750 0.74390 0.39270 0.05100
C 	C 	0.57200 0.55800 0.29210 0.02600
H 	H 	0.60100 0.57900 0.31300 0.02600
H 	H 	0.63100 0.51000 0.31600 0.03300
C 	C 	0.97800 0.08500 0.79260 0.03300
C 	C 	0.04900 0.08300 0.78950 -0.03400
C 	C 	0.01500 0.09360 0.78820 0.43800
O 	O 	0.05569 0.12141 0.94102 -0.45100
C 	C 	0.17090 0.26470 0.93632 0.04000
H 	H 	0.14750 0.24390 0.89270 0.01600
C 	C 	0.07200 0.05800 0.79210 -0.42800
H 	H 	0.10100 0.07900 0.81300 0.30600
H 	H 	0.13100 0.01000 0.81600 0.01700
C 	C 	0.47800 0.58500 0.29260 -0.00600
C 	C 	0.54900 0.58300 0.28950 -0.02900
C 	C 	0.51500 0.59360 0.28820 -0.04100
Co	Co	0.50000 0.50000 0.92903 1.14700
N 	N 	0.50000 0.50000 0.81840 -0.18700
Co	Co	-0.00000 -0.00000 0.42903 1.06900
N 	N 	-0.00000 -0.00000 0.31840 -0.28600
Co	Co	0.50000 0.50000 0.57097 1.14300
N 	N 	0.50000 0.50000 0.68160 -0.18600
Co	Co	0.00000 0.00000 0.07097 1.06200
N 	N 	0.00000 0.00000 0.18160 -0.28600
Co	Co	0.50000 0.50000 0.07097 1.13500
N 	N 	0.50000 0.50000 0.18160 -0.18500
Co	Co	0.00000 -0.00000 0.57097 1.06900
N 	N 	-0.00000 0.00000 0.68160 -0.28700
Co	Co	0.50000 0.50000 0.42903 1.14300
N 	N 	0.50000 0.50000 0.31840 -0.18500
Co	Co	-0.00000 -0.00000 0.92903 1.07400
N 	N 	-0.00000 -0.00000 0.81840 -0.28800
C 	C 	0.65270 0.57840 -0.00000 0.32000
C 	C 	0.72980 0.63950 -0.00000 -0.12300
C 	C 	0.15270 0.07840 0.50000 0.36600
C 	C 	0.22980 0.13950 0.50000 -0.11000
C 	C 	0.34730 0.42160 -0.00000 0.30800
C 	C 	0.27020 0.36050 -0.00000 -0.11700
C 	C 	0.84730 0.92160 0.50000 0.34500
C 	C 	0.77020 0.86050 0.50000 -0.04100
C 	C 	0.42160 0.65270 -0.00000 0.31500
C 	C 	0.36050 0.72980 -0.00000 -0.12000
C 	C 	0.92160 0.15270 0.50000 0.35000
C 	C 	0.86050 0.22980 0.50000 -0.06600
C 	C 	0.57840 0.34730 -0.00000 0.31300
C 	C 	0.63950 0.27020 -0.00000 -0.12100
C 	C 	0.07840 0.84730 0.50000 0.35900
C 	C 	0.13950 0.77020 0.50000 -0.08000
C 	C 	0.34730 0.57840 0.50000 0.36200
C 	C 	0.27020 0.63950 0.50000 -0.07900
C 	C 	0.84730 0.07840 -0.00000 0.31100
C 	C 	0.77020 0.13950 -0.00000 -0.12100
C 	C 	0.65270 0.42160 0.50000 0.36500
C 	C 	0.72980 0.36050 0.50000 -0.07800
C 	C 	0.15270 0.92160 -0.00000 0.30200
C 	C 	0.22980 0.86050 -0.00000 -0.10800
C 	C 	0.57840 0.65270 0.50000 0.36900
C 	C 	0.63950 0.72980 0.50000 -0.08100
C 	C 	0.07840 0.15270 -0.00000 0.31800
C 	C 	0.13950 0.22980 -0.00000 -0.15100
C 	C 	0.42160 0.34730 0.50000 0.35700
C 	C 	0.36050 0.27020 0.50000 -0.07500
C 	C 	0.92160 0.84730 -0.00000 0.29600
C 	C 	0.86050 0.77020 -0.00000 -0.08300
