data_crystal

_cell_length_a 30.09500
_cell_length_b 30.09500
_cell_length_c 6.77070
_cell_angle_alpha 90.00000
_cell_angle_beta  90.00000
_cell_angle_gamma 120.00000

_symmetry_space_group_name_	'P 1'
_symmetry_space_group_name_H-M	'P 1'

loop_
_symmetry_equiv_pos_as_xyz
  x,y,z

loop_
_atom_site_label
_atom_site_type_symbol
_atom_site_fract_x
_atom_site_fract_y
_atom_site_fract_z
_atom_site_charge
C 	C 	0.20062 0.29965 0.29880 0.88900
Zn	Zn	0.18109 0.21764 0.57502 1.20900
Zn	Zn	0.22094 0.22715 0.07339 1.19800
O 	O 	0.18156 0.18628 0.84680 -0.60900
O 	O 	0.19858 0.25167 0.29880 -0.69400
N 	N 	0.18983 0.16001 0.45800 -0.26200
N 	N 	0.20517 0.16068 0.27010 -0.15900
N 	N 	0.21440 0.12346 0.24040 -0.07600
N 	N 	0.20446 0.09693 0.41220 -0.24100
N 	N 	0.28440 0.36863 0.73860 -0.27100
N 	N 	0.27619 0.34376 0.91220 -0.09400
N 	N 	0.24402 0.29525 0.88120 -0.17500
N 	N 	0.23050 0.28784 0.68960 -0.26400
C 	C 	0.18969 0.12026 0.54290 0.22800
C 	C 	0.17548 0.10506 0.75480 -0.47000
H 	H 	0.20620 0.11310 0.82910 0.15600
H 	H 	0.15240 0.06830 0.76210 0.14900
C 	C 	0.14962 0.13253 0.84800 0.31900
H 	H 	0.11830 0.12350 0.77630 -0.09100
H 	H 	0.14030 0.12090 0.98330 -0.08700
C 	C 	0.25605 0.33389 0.60460 0.29100
C 	C 	0.25111 0.34190 0.38880 -0.65900
H 	H 	0.27970 0.34290 0.31850 0.18400
H 	H 	0.25310 0.37480 0.37090 0.21800
C 	C 	0.17790 0.29810 0.36700 -0.68200
C 	C 	0.86729 0.63298 0.63213 0.89300
Zn	Zn	0.84775 0.55097 0.90835 1.20500
Zn	Zn	0.88761 0.56049 0.40672 1.19700
O 	O 	0.84823 0.51961 0.18013 -0.60600
O 	O 	0.86525 0.58500 0.63213 -0.69600
N 	N 	0.85650 0.49334 0.79133 -0.26100
N 	N 	0.87184 0.49401 0.60343 -0.15900
N 	N 	0.88107 0.45679 0.57373 -0.07600
N 	N 	0.87113 0.43026 0.74553 -0.23900
N 	N 	0.95107 0.70196 0.07193 -0.26800
N 	N 	0.94286 0.67709 0.24553 -0.09500
N 	N 	0.91069 0.62858 0.21453 -0.17500
N 	N 	0.89717 0.62117 0.02293 -0.25900
C 	C 	0.85636 0.45359 0.87623 0.21400
C 	C 	0.84215 0.43839 0.08813 -0.45000
H 	H 	0.87287 0.44643 0.16243 0.15200
H 	H 	0.81907 0.40163 0.09543 0.14600
C 	C 	0.81629 0.46586 0.18133 0.30900
H 	H 	0.78497 0.45683 0.10963 -0.08500
H 	H 	0.80697 0.45423 0.31663 -0.08500
C 	C 	0.92272 0.66722 0.93793 0.28200
C 	C 	0.91778 0.67523 0.72213 -0.65800
H 	H 	0.94637 0.67623 0.65183 0.18400
H 	H 	0.91977 0.70813 0.70423 0.21800
C 	C 	0.84457 0.63143 0.70033 -0.68800
C 	C 	0.53395 0.96632 0.96547 0.92200
Zn	Zn	0.51442 0.88430 0.24169 1.20700
Zn	Zn	0.55428 0.89382 0.74006 1.19700
O 	O 	0.51489 0.85295 0.51347 -0.61100
O 	O 	0.53191 0.91834 0.96547 -0.69600
N 	N 	0.52316 0.82668 0.12467 -0.26600
N 	N 	0.53850 0.82735 0.93677 -0.15500
N 	N 	0.54773 0.79013 0.90707 -0.07200
N 	N 	0.53779 0.76360 0.07887 -0.24600
N 	N 	0.61773 0.03530 0.40527 -0.27200
N 	N 	0.60952 0.01043 0.57887 -0.09500
N 	N 	0.57735 0.96192 0.54787 -0.17600
N 	N 	0.56383 0.95451 0.35627 -0.26500
C 	C 	0.52302 0.78693 0.20957 0.22700
C 	C 	0.50881 0.77173 0.42147 -0.47000
H 	H 	0.53953 0.77977 0.49577 0.15600
H 	H 	0.48573 0.73497 0.42877 0.14800
C 	C 	0.48295 0.79920 0.51467 0.31900
H 	H 	0.45163 0.79017 0.44297 -0.09200
H 	H 	0.47363 0.78757 0.64997 -0.08700
C 	C 	0.58938 0.00056 0.27127 0.29500
C 	C 	0.58444 0.00857 0.05547 -0.66900
H 	H 	0.61303 0.00957 0.98517 0.18400
H 	H 	0.58643 0.04147 0.03757 0.22400
C 	C 	0.51123 0.96477 0.03367 -0.71200
C 	C 	0.70035 0.90097 0.29880 0.88700
Zn	Zn	0.78236 0.96345 0.57502 1.20800
Zn	Zn	0.77285 0.99379 0.07339 1.19600
O 	O 	0.81372 0.99528 0.84680 -0.60900
O 	O 	0.74833 0.94691 0.29880 -0.69400
N 	N 	0.83999 0.02982 0.45800 -0.26200
N 	N 	0.83932 0.04449 0.27010 -0.15900
N 	N 	0.87654 0.09094 0.24040 -0.07500
N 	N 	0.90307 0.10753 0.41220 -0.24100
N 	N 	0.63137 0.91577 0.73860 -0.27100
N 	N 	0.65624 0.93243 0.91220 -0.09400
N 	N 	0.70475 0.94877 0.88120 -0.17500
N 	N 	0.71216 0.94266 0.68960 -0.26400
C 	C 	0.87974 0.06943 0.54290 0.22800
C 	C 	0.89494 0.07042 0.75480 -0.46800
H 	H 	0.88690 0.09310 0.82910 0.15500
H 	H 	0.93170 0.08410 0.76210 0.14800
C 	C 	0.86747 0.01709 0.84800 0.31600
H 	H 	0.87650 0.99480 0.77630 -0.08900
H 	H 	0.87910 0.01940 0.98330 -0.08700
C 	C 	0.66611 0.92216 0.60460 0.29100
C 	C 	0.65810 0.90921 0.38880 -0.65900
H 	H 	0.65710 0.93680 0.31850 0.18400
H 	H 	0.62520 0.87830 0.37090 0.21800
C 	C 	0.70190 0.87980 0.36700 -0.68200
C 	C 	0.36702 0.23430 0.63213 0.89400
Zn	Zn	0.44903 0.29678 0.90835 1.20600
Zn	Zn	0.43951 0.32712 0.40672 1.19700
O 	O 	0.48039 0.32861 0.18013 -0.60600
O 	O 	0.41500 0.28024 0.63213 -0.69600
N 	N 	0.50666 0.36315 0.79133 -0.26100
N 	N 	0.50599 0.37782 0.60343 -0.15900
N 	N 	0.54321 0.42427 0.57373 -0.07600
N 	N 	0.56974 0.44086 0.74553 -0.23900
N 	N 	0.29804 0.24910 0.07193 -0.26800
N 	N 	0.32291 0.26576 0.24553 -0.09500
N 	N 	0.37142 0.28210 0.21453 -0.17500
N 	N 	0.37883 0.27599 0.02293 -0.25900
C 	C 	0.54641 0.40276 0.87623 0.21500
C 	C 	0.56161 0.40375 0.08813 -0.45100
H 	H 	0.55357 0.42643 0.16243 0.15200
H 	H 	0.59837 0.41743 0.09543 0.14600
C 	C 	0.53414 0.35042 0.18133 0.31000
H 	H 	0.54317 0.32813 0.10963 -0.08500
H 	H 	0.54577 0.35273 0.31663 -0.08500
C 	C 	0.33278 0.25549 0.93793 0.28300
C 	C 	0.32477 0.24254 0.72213 -0.65800
H 	H 	0.32377 0.27013 0.65183 0.18400
H 	H 	0.29187 0.21163 0.70423 0.21800
C 	C 	0.36857 0.21313 0.70033 -0.68800
C 	C 	0.03368 0.56764 0.96547 0.92500
Zn	Zn	0.11570 0.63012 0.24169 1.20700
Zn	Zn	0.10618 0.66046 0.74006 1.19700
O 	O 	0.14705 0.66195 0.51347 -0.61100
O 	O 	0.08166 0.61358 0.96547 -0.69600
N 	N 	0.17332 0.69649 0.12467 -0.26700
N 	N 	0.17265 0.71116 0.93677 -0.15500
N 	N 	0.20987 0.75761 0.90707 -0.07100
N 	N 	0.23640 0.77420 0.07887 -0.24700
N 	N 	0.96470 0.58244 0.40527 -0.27200
N 	N 	0.98957 0.59910 0.57887 -0.09500
N 	N 	0.03808 0.61544 0.54787 -0.17600
N 	N 	0.04549 0.60933 0.35627 -0.26500
C 	C 	0.21307 0.73610 0.20957 0.22700
C 	C 	0.22827 0.73709 0.42147 -0.47000
H 	H 	0.22023 0.75977 0.49577 0.15600
H 	H 	0.26503 0.75077 0.42877 0.14800
C 	C 	0.20080 0.68376 0.51467 0.31900
H 	H 	0.20983 0.66147 0.44297 -0.09200
H 	H 	0.21243 0.68607 0.64997 -0.08700
C 	C 	0.99944 0.58883 0.27127 0.29500
C 	C 	0.99143 0.57588 0.05547 -0.67100
H 	H 	0.99043 0.60347 0.98517 0.18500
H 	H 	0.95853 0.54497 0.03757 0.22500
C 	C 	0.03523 0.54647 0.03367 -0.71400
C 	C 	0.09903 0.79938 0.29880 0.88600
Zn	Zn	0.03655 0.81891 0.57502 1.20800
Zn	Zn	0.00621 0.77906 0.07339 1.19600
O 	O 	0.00472 0.81844 0.84680 -0.60800
O 	O 	0.05309 0.80142 0.29880 -0.69400
N 	N 	0.97018 0.81017 0.45800 -0.26200
N 	N 	0.95551 0.79483 0.27010 -0.15900
N 	N 	0.90906 0.78560 0.24040 -0.07600
N 	N 	0.89247 0.79554 0.41220 -0.24100
N 	N 	0.08423 0.71560 0.73860 -0.27100
N 	N 	0.06757 0.72381 0.91220 -0.09400
N 	N 	0.05123 0.75598 0.88120 -0.17500
N 	N 	0.05734 0.76950 0.68960 -0.26400
C 	C 	0.93057 0.81031 0.54290 0.22700
C 	C 	0.92958 0.82452 0.75480 -0.46800
H 	H 	0.90690 0.79380 0.82910 0.15500
H 	H 	0.91590 0.84760 0.76210 0.14800
C 	C 	0.98291 0.85038 0.84800 0.31500
H 	H 	0.00520 0.88170 0.77630 -0.08900
H 	H 	0.98060 0.85970 0.98330 -0.08600
C 	C 	0.07784 0.74395 0.60460 0.29100
C 	C 	0.09079 0.74889 0.38880 -0.65900
H 	H 	0.06320 0.72030 0.31850 0.18400
H 	H 	0.12170 0.74690 0.37090 0.21800
C 	C 	0.12020 0.82210 0.36700 -0.68100
C 	C 	0.76570 0.13271 0.63213 0.89300
Zn	Zn	0.70322 0.15225 0.90835 1.20500
Zn	Zn	0.67288 0.11239 0.40672 1.19700
O 	O 	0.67139 0.15177 0.18013 -0.60600
O 	O 	0.71976 0.13475 0.63213 -0.69600
N 	N 	0.63685 0.14350 0.79133 -0.26100
N 	N 	0.62218 0.12816 0.60343 -0.16000
N 	N 	0.57573 0.11893 0.57373 -0.07600
N 	N 	0.55914 0.12887 0.74553 -0.23900
N 	N 	0.75090 0.04893 0.07193 -0.26700
N 	N 	0.73424 0.05714 0.24553 -0.09500
N 	N 	0.71790 0.08931 0.21453 -0.17500
N 	N 	0.72401 0.10283 0.02293 -0.25800
C 	C 	0.59724 0.14364 0.87623 0.21400
C 	C 	0.59625 0.15785 0.08813 -0.44900
H 	H 	0.57357 0.12713 0.16243 0.15200
H 	H 	0.58257 0.18093 0.09543 0.14600
C 	C 	0.64958 0.18371 0.18133 0.30900
H 	H 	0.67187 0.21503 0.10963 -0.08400
H 	H 	0.64727 0.19303 0.31663 -0.08500
C 	C 	0.74451 0.07728 0.93793 0.28100
C 	C 	0.75746 0.08222 0.72213 -0.65700
H 	H 	0.72987 0.05363 0.65183 0.18400
H 	H 	0.78837 0.08023 0.70423 0.21700
C 	C 	0.78687 0.15543 0.70033 -0.68800
C 	C 	0.43236 0.46605 0.96547 0.91200
Zn	Zn	0.36988 0.48558 0.24169 1.20700
Zn	Zn	0.33954 0.44572 0.74006 1.19700
O 	O 	0.33805 0.48511 0.51347 -0.61000
O 	O 	0.38642 0.46809 0.96547 -0.69500
N 	N 	0.30351 0.47684 0.12467 -0.26600
N 	N 	0.28884 0.46150 0.93677 -0.15500
N 	N 	0.24239 0.45227 0.90707 -0.07200
N 	N 	0.22580 0.46221 0.07887 -0.24600
N 	N 	0.41756 0.38227 0.40527 -0.27200
N 	N 	0.40090 0.39048 0.57887 -0.09500
N 	N 	0.38456 0.42265 0.54787 -0.17600
N 	N 	0.39067 0.43617 0.35627 -0.26500
C 	C 	0.26390 0.47698 0.20957 0.22700
C 	C 	0.26291 0.49119 0.42147 -0.47000
H 	H 	0.24023 0.46047 0.49577 0.15600
H 	H 	0.24923 0.51427 0.42877 0.14800
C 	C 	0.31624 0.51705 0.51467 0.31900
H 	H 	0.33853 0.54837 0.44297 -0.09200
H 	H 	0.31393 0.52637 0.64997 -0.08700
C 	C 	0.41117 0.41062 0.27127 0.29400
C 	C 	0.42412 0.41556 0.05547 -0.66900
H 	H 	0.39653 0.38697 0.98517 0.18600
H 	H 	0.45503 0.41357 0.03757 0.22300
C 	C 	0.45353 0.48877 0.03367 -0.70300
C 	C 	0.79938 0.70035 0.70120 0.88800
Zn	Zn	0.81891 0.78236 0.42498 1.20800
Zn	Zn	0.77906 0.77285 0.92661 1.19700
O 	O 	0.81844 0.81372 0.15320 -0.61000
O 	O 	0.80142 0.74833 0.70120 -0.69400
N 	N 	0.81017 0.83999 0.54200 -0.26200
N 	N 	0.79483 0.83932 0.72990 -0.15900
N 	N 	0.78560 0.87654 0.75960 -0.07600
N 	N 	0.79554 0.90307 0.58780 -0.24100
N 	N 	0.71560 0.63137 0.26140 -0.27100
N 	N 	0.72381 0.65624 0.08780 -0.09400
N 	N 	0.75598 0.70475 0.11880 -0.17500
N 	N 	0.76950 0.71216 0.31040 -0.26400
C 	C 	0.81031 0.87974 0.45710 0.22800
C 	C 	0.82452 0.89494 0.24520 -0.47000
H 	H 	0.79380 0.88690 0.17090 0.15600
H 	H 	0.84760 0.93170 0.23790 0.14900
C 	C 	0.85038 0.86747 0.15200 0.31900
H 	H 	0.88170 0.87650 0.22370 -0.09100
H 	H 	0.85970 0.87910 0.01670 -0.08700
C 	C 	0.74395 0.66611 0.39540 0.29100
C 	C 	0.74889 0.65810 0.61120 -0.65900
H 	H 	0.72030 0.65710 0.68150 0.18400
H 	H 	0.74690 0.62520 0.62910 0.21800
C 	C 	0.82210 0.70190 0.63300 -0.68200
C 	C 	0.46605 0.03368 0.03453 0.92200
Zn	Zn	0.48558 0.11570 0.75831 1.20700
Zn	Zn	0.44572 0.10618 0.25994 1.19700
O 	O 	0.48511 0.14705 0.48653 -0.61100
O 	O 	0.46809 0.08166 0.03453 -0.69600
N 	N 	0.47684 0.17332 0.87533 -0.26600
N 	N 	0.46150 0.17265 0.06323 -0.15500
N 	N 	0.45227 0.20987 0.09293 -0.07200
N 	N 	0.46221 0.23640 0.92113 -0.24600
N 	N 	0.38227 0.96470 0.59473 -0.27200
N 	N 	0.39048 0.98957 0.42113 -0.09500
N 	N 	0.42265 0.03808 0.45213 -0.17600
N 	N 	0.43617 0.04549 0.64373 -0.26500
C 	C 	0.47698 0.21307 0.79043 0.22700
C 	C 	0.49119 0.22827 0.57853 -0.47000
H 	H 	0.46047 0.22023 0.50423 0.15600
H 	H 	0.51427 0.26503 0.57123 0.14800
C 	C 	0.51705 0.20080 0.48533 0.31900
H 	H 	0.54837 0.20983 0.55703 -0.09200
H 	H 	0.52637 0.21243 0.35003 -0.08700
C 	C 	0.41062 0.99944 0.72873 0.29500
C 	C 	0.41556 0.99143 0.94453 -0.66900
H 	H 	0.38697 0.99043 0.01483 0.18400
H 	H 	0.41357 0.95853 0.96243 0.22400
C 	C 	0.48877 0.03523 0.96633 -0.71200
C 	C 	0.13271 0.36702 0.36787 0.89300
Zn	Zn	0.15225 0.44903 0.09165 1.20500
Zn	Zn	0.11239 0.43951 0.59328 1.19700
O 	O 	0.15177 0.48039 0.81987 -0.60600
O 	O 	0.13475 0.41500 0.36787 -0.69600
N 	N 	0.14350 0.50666 0.20867 -0.26100
N 	N 	0.12816 0.50599 0.39657 -0.15900
N 	N 	0.11893 0.54321 0.42627 -0.07600
N 	N 	0.12887 0.56974 0.25447 -0.23900
N 	N 	0.04893 0.29804 0.92807 -0.26800
N 	N 	0.05714 0.32291 0.75447 -0.09500
N 	N 	0.08931 0.37142 0.78547 -0.17500
N 	N 	0.10283 0.37883 0.97707 -0.25900
C 	C 	0.14364 0.54641 0.12377 0.21400
C 	C 	0.15785 0.56161 0.91187 -0.45000
H 	H 	0.12713 0.55357 0.83757 0.15200
H 	H 	0.18093 0.59837 0.90457 0.14600
C 	C 	0.18371 0.53414 0.81867 0.30900
H 	H 	0.21503 0.54317 0.89037 -0.08500
H 	H 	0.19303 0.54577 0.68337 -0.08500
C 	C 	0.07728 0.33278 0.06207 0.28200
C 	C 	0.08222 0.32477 0.27787 -0.65800
H 	H 	0.05363 0.32377 0.34817 0.18400
H 	H 	0.08023 0.29187 0.29577 0.21800
C 	C 	0.15543 0.36857 0.29967 -0.68800
C 	C 	0.29965 0.09903 0.70120 0.88700
Zn	Zn	0.21764 0.03655 0.42498 1.20800
Zn	Zn	0.22715 0.00621 0.92661 1.19600
O 	O 	0.18628 0.00472 0.15320 -0.60900
O 	O 	0.25167 0.05309 0.70120 -0.69400
N 	N 	0.16001 0.97018 0.54200 -0.26200
N 	N 	0.16068 0.95551 0.72990 -0.15900
N 	N 	0.12346 0.90906 0.75960 -0.07500
N 	N 	0.09693 0.89247 0.58780 -0.24100
N 	N 	0.36863 0.08423 0.26140 -0.27100
N 	N 	0.34376 0.06757 0.08780 -0.09400
N 	N 	0.29525 0.05123 0.11880 -0.17500
N 	N 	0.28784 0.05734 0.31040 -0.26400
C 	C 	0.12026 0.93057 0.45710 0.22800
C 	C 	0.10506 0.92958 0.24520 -0.46800
H 	H 	0.11310 0.90690 0.17090 0.15500
H 	H 	0.06830 0.91590 0.23790 0.14800
C 	C 	0.13253 0.98291 0.15200 0.31600
H 	H 	0.12350 0.00520 0.22370 -0.08900
H 	H 	0.12090 0.98060 0.01670 -0.08700
C 	C 	0.33389 0.07784 0.39540 0.29100
C 	C 	0.34190 0.09079 0.61120 -0.65900
H 	H 	0.34290 0.06320 0.68150 0.18400
H 	H 	0.37480 0.12170 0.62910 0.21800
C 	C 	0.29810 0.12020 0.63300 -0.68200
C 	C 	0.96632 0.43236 0.03453 0.92500
Zn	Zn	0.88430 0.36988 0.75831 1.20700
Zn	Zn	0.89382 0.33954 0.25994 1.19700
O 	O 	0.85295 0.33805 0.48653 -0.61100
O 	O 	0.91834 0.38642 0.03453 -0.69600
N 	N 	0.82668 0.30351 0.87533 -0.26700
N 	N 	0.82735 0.28884 0.06323 -0.15500
N 	N 	0.79013 0.24239 0.09293 -0.07100
N 	N 	0.76360 0.22580 0.92113 -0.24700
N 	N 	0.03530 0.41756 0.59473 -0.27200
N 	N 	0.01043 0.40090 0.42113 -0.09500
N 	N 	0.96192 0.38456 0.45213 -0.17600
N 	N 	0.95451 0.39067 0.64373 -0.26500
C 	C 	0.78693 0.26390 0.79043 0.22700
C 	C 	0.77173 0.26291 0.57853 -0.47000
H 	H 	0.77977 0.24023 0.50423 0.15600
H 	H 	0.73497 0.24923 0.57123 0.14800
C 	C 	0.79920 0.31624 0.48533 0.31900
H 	H 	0.79017 0.33853 0.55703 -0.09200
H 	H 	0.78757 0.31393 0.35003 -0.08700
C 	C 	0.00056 0.41117 0.72873 0.29500
C 	C 	0.00857 0.42412 0.94453 -0.67100
H 	H 	0.00957 0.39653 0.01483 0.18500
H 	H 	0.04147 0.45503 0.96243 0.22500
C 	C 	0.96477 0.45353 0.96633 -0.71400
C 	C 	0.63298 0.76570 0.36787 0.89400
Zn	Zn	0.55097 0.70322 0.09165 1.20600
Zn	Zn	0.56049 0.67288 0.59328 1.19700
O 	O 	0.51961 0.67139 0.81987 -0.60600
O 	O 	0.58500 0.71976 0.36787 -0.69600
N 	N 	0.49334 0.63685 0.20867 -0.26100
N 	N 	0.49401 0.62218 0.39657 -0.15900
N 	N 	0.45679 0.57573 0.42627 -0.07600
N 	N 	0.43026 0.55914 0.25447 -0.23900
N 	N 	0.70196 0.75090 0.92807 -0.26800
N 	N 	0.67709 0.73424 0.75447 -0.09500
N 	N 	0.62858 0.71790 0.78547 -0.17500
N 	N 	0.62117 0.72401 0.97707 -0.25900
C 	C 	0.45359 0.59724 0.12377 0.21500
C 	C 	0.43839 0.59625 0.91187 -0.45100
H 	H 	0.44643 0.57357 0.83757 0.15200
H 	H 	0.40163 0.58257 0.90457 0.14600
C 	C 	0.46586 0.64958 0.81867 0.31000
H 	H 	0.45683 0.67187 0.89037 -0.08500
H 	H 	0.45423 0.64727 0.68337 -0.08500
C 	C 	0.66722 0.74451 0.06207 0.28300
C 	C 	0.67523 0.75746 0.27787 -0.65800
H 	H 	0.67623 0.72987 0.34817 0.18400
H 	H 	0.70813 0.78837 0.29577 0.21800
C 	C 	0.63143 0.78687 0.29967 -0.68800
C 	C 	0.90097 0.20062 0.70120 0.88600
Zn	Zn	0.96345 0.18109 0.42498 1.20800
Zn	Zn	0.99379 0.22094 0.92661 1.19600
O 	O 	0.99528 0.18156 0.15320 -0.60800
O 	O 	0.94691 0.19858 0.70120 -0.69400
N 	N 	0.02982 0.18983 0.54200 -0.26200
N 	N 	0.04449 0.20517 0.72990 -0.15900
N 	N 	0.09094 0.21440 0.75960 -0.07600
N 	N 	0.10753 0.20446 0.58780 -0.24100
N 	N 	0.91577 0.28440 0.26140 -0.27100
N 	N 	0.93243 0.27619 0.08780 -0.09400
N 	N 	0.94877 0.24402 0.11880 -0.17500
N 	N 	0.94266 0.23050 0.31040 -0.26400
C 	C 	0.06943 0.18969 0.45710 0.22700
C 	C 	0.07042 0.17548 0.24520 -0.46800
H 	H 	0.09310 0.20620 0.17090 0.15500
H 	H 	0.08410 0.15240 0.23790 0.14800
C 	C 	0.01709 0.14962 0.15200 0.31500
H 	H 	0.99480 0.11830 0.22370 -0.08900
H 	H 	0.01940 0.14030 0.01670 -0.08600
C 	C 	0.92216 0.25605 0.39540 0.29100
C 	C 	0.90921 0.25111 0.61120 -0.65900
H 	H 	0.93680 0.27970 0.68150 0.18400
H 	H 	0.87830 0.25310 0.62910 0.21800
C 	C 	0.87980 0.17790 0.63300 -0.68100
C 	C 	0.56764 0.53395 0.03453 0.91200
Zn	Zn	0.63012 0.51442 0.75831 1.20700
Zn	Zn	0.66046 0.55428 0.25994 1.19700
O 	O 	0.66195 0.51489 0.48653 -0.61000
O 	O 	0.61358 0.53191 0.03453 -0.69500
N 	N 	0.69649 0.52316 0.87533 -0.26600
N 	N 	0.71116 0.53850 0.06323 -0.15500
N 	N 	0.75761 0.54773 0.09293 -0.07200
N 	N 	0.77420 0.53779 0.92113 -0.24600
N 	N 	0.58244 0.61773 0.59473 -0.27200
N 	N 	0.59910 0.60952 0.42113 -0.09500
N 	N 	0.61544 0.57735 0.45213 -0.17600
N 	N 	0.60933 0.56383 0.64373 -0.26500
C 	C 	0.73610 0.52302 0.79043 0.22700
C 	C 	0.73709 0.50881 0.57853 -0.47000
H 	H 	0.75977 0.53953 0.50423 0.15600
H 	H 	0.75077 0.48573 0.57123 0.14800
C 	C 	0.68376 0.48295 0.48533 0.31900
H 	H 	0.66147 0.45163 0.55703 -0.09200
H 	H 	0.68607 0.47363 0.35003 -0.08700
C 	C 	0.58883 0.58938 0.72873 0.29400
C 	C 	0.57588 0.58444 0.94453 -0.66900
H 	H 	0.60347 0.61303 0.01483 0.18600
H 	H 	0.54497 0.58643 0.96243 0.22300
C 	C 	0.54647 0.51123 0.96633 -0.70300
C 	C 	0.23430 0.86729 0.36787 0.89300
Zn	Zn	0.29678 0.84775 0.09165 1.20500
Zn	Zn	0.32712 0.88761 0.59328 1.19700
O 	O 	0.32861 0.84823 0.81987 -0.60600
O 	O 	0.28024 0.86525 0.36787 -0.69600
N 	N 	0.36315 0.85650 0.20867 -0.26100
N 	N 	0.37782 0.87184 0.39657 -0.16000
N 	N 	0.42427 0.88107 0.42627 -0.07600
N 	N 	0.44086 0.87113 0.25447 -0.23900
N 	N 	0.24910 0.95107 0.92807 -0.26700
N 	N 	0.26576 0.94286 0.75447 -0.09500
N 	N 	0.28210 0.91069 0.78547 -0.17500
N 	N 	0.27599 0.89717 0.97707 -0.25800
C 	C 	0.40276 0.85636 0.12377 0.21400
C 	C 	0.40375 0.84215 0.91187 -0.44900
H 	H 	0.42643 0.87287 0.83757 0.15200
H 	H 	0.41743 0.81907 0.90457 0.14600
C 	C 	0.35042 0.81629 0.81867 0.30900
H 	H 	0.32813 0.78497 0.89037 -0.08400
H 	H 	0.35273 0.80697 0.68337 -0.08500
C 	C 	0.25549 0.92272 0.06207 0.28100
C 	C 	0.24254 0.91778 0.27787 -0.65700
H 	H 	0.27013 0.94637 0.34817 0.18400
H 	H 	0.21163 0.91977 0.29577 0.21700
C 	C 	0.21313 0.84457 0.29967 -0.68800
