data_crystal

_cell_length_a 7.37810
_cell_length_b 13.57400
_cell_length_c 13.57800
_cell_angle_alpha 113.18100
_cell_angle_beta  103.84100
_cell_angle_gamma 90.95200

_symmetry_space_group_name_	'P 1'
_symmetry_space_group_name_H-M	'P 1'

loop_
_symmetry_equiv_pos_as_xyz
  x,y,z

loop_
_atom_site_label
_atom_site_type_symbol
_atom_site_fract_x
_atom_site_fract_y
_atom_site_fract_z
_atom_site_charge
Cd	Cd	0.31565 0.22785 0.98577 1.20400
Cd	Cd	0.36573 0.76845 0.60502 1.17000
Cd	Cd	0.82032 0.24499 0.00416 1.20800
Cd	Cd	0.60071 0.43771 0.23774 1.20800
Cd	Cd	0.17968 0.75501 0.99584 1.20800
Cd	Cd	0.39929 0.56229 0.76226 1.20800
Cd	Cd	0.68435 0.77215 0.01423 1.20500
Cd	Cd	0.63427 0.23155 0.39498 1.17000
Cd	Cd	0.50000 0.50000 0.50000 1.20100
H 	H 	0.08040 0.22530 0.51850 0.16000
H 	H 	0.78380 0.40020 0.75360 0.19500
H 	H 	0.80650 0.71690 0.35630 0.19100
H 	H 	0.90460 0.40520 0.86730 0.20100
H 	H 	0.82580 0.89370 0.73380 0.17700
H 	H 	0.07060 0.99920 0.16540 0.17200
H 	H 	0.09540 0.59480 0.13270 0.20100
H 	H 	0.91960 0.77470 0.48150 0.16000
H 	H 	0.17420 0.10630 0.26620 0.17700
H 	H 	0.21620 0.59980 0.24640 0.19500
H 	H 	0.92940 0.00080 0.83460 0.17200
H 	H 	0.19350 0.28310 0.64370 0.19100
C 	C 	0.95890 0.61760 0.41170 0.23600
C 	C 	0.37160 0.59680 0.14250 0.25700
C 	C 	0.83090 0.94140 0.80990 -0.54300
C 	C 	0.66690 0.69390 0.46040 0.50400
C 	C 	0.62840 0.40320 0.85750 0.25700
C 	C 	0.16910 0.05860 0.19010 -0.54300
C 	C 	0.64680 0.98450 0.81400 0.26400
C 	C 	0.19880 0.56540 0.16660 -0.59100
C 	C 	0.15700 0.29140 0.57410 -0.57400
C 	C 	0.14020 0.44490 0.12800 0.52600
C 	C 	0.33310 0.30610 0.53960 0.50400
C 	C 	0.35320 0.01550 0.18600 0.26400
C 	C 	0.80120 0.43460 0.83340 -0.59100
C 	C 	0.85980 0.55510 0.87200 0.52600
C 	C 	0.12230 0.12060 0.11610 0.50200
C 	C 	0.04110 0.38240 0.58830 0.23600
C 	C 	0.84300 0.70860 0.42590 -0.57400
C 	C 	0.87770 0.87940 0.88390 0.50200
N 	N 	0.62660 0.08220 0.88290 -0.23400
N 	N 	0.65830 0.60690 0.13200 -0.08000
N 	N 	0.34830 0.98920 0.79440 -0.09200
N 	N 	0.04810 0.81440 0.21130 -0.05900
N 	N 	0.88490 0.16650 0.69880 -0.12100
N 	N 	0.18900 0.52750 0.43190 -0.17100
N 	N 	0.43770 0.08230 0.86870 -0.16200
N 	N 	0.04290 0.45810 0.36450 -0.08500
N 	N 	0.65170 0.01080 0.20560 -0.09200
N 	N 	0.98540 0.79130 0.11540 -0.31000
N 	N 	0.10200 0.48610 0.64860 -0.24000
N 	N 	0.61460 0.33490 0.90410 -0.22600
N 	N 	0.34170 0.39310 0.86800 -0.08000
N 	N 	0.37340 0.91780 0.11710 -0.23400
N 	N 	0.95190 0.18560 0.78870 -0.05900
N 	N 	0.53790 0.55910 0.16470 -0.23900
N 	N 	0.11510 0.83350 0.30120 -0.12100
N 	N 	0.56570 0.66920 0.09040 -0.18000
N 	N 	0.95710 0.54190 0.63550 -0.08500
N 	N 	0.46210 0.44090 0.83530 -0.23900
N 	N 	0.81100 0.47250 0.56810 -0.17100
N 	N 	0.38540 0.66510 0.09590 -0.22600
N 	N 	0.86010 0.37200 0.53740 -0.25900
N 	N 	0.56230 0.91770 0.13130 -0.16200
N 	N 	0.89800 0.51390 0.35140 -0.24000
N 	N 	0.01460 0.20870 0.88460 -0.31000
N 	N 	0.13990 0.62800 0.46260 -0.25900
N 	N 	0.52040 0.07360 0.24210 -0.24900
N 	N 	0.47960 0.92640 0.75790 -0.24900
N 	N 	0.43430 0.33080 0.90960 -0.18000
O 	O 	0.57310 0.60100 0.41150 -0.58300
O 	O 	0.62060 0.77370 0.53040 -0.50500
O 	O 	0.02880 0.83760 0.88500 -0.48500
O 	O 	0.42690 0.39900 0.58850 -0.58300
O 	O 	0.26950 0.38470 0.13350 -0.57300
O 	O 	0.50280 0.64110 0.66060 -0.59800
O 	O 	0.37940 0.22630 0.46960 -0.50500
O 	O 	0.61020 0.27610 0.10800 -0.59400
O 	O 	0.76510 0.87700 0.93770 -0.49800
O 	O 	0.23490 0.12300 0.06230 -0.49800
O 	O 	0.97010 0.41440 0.09600 -0.52500
O 	O 	0.49720 0.35890 0.33940 -0.59800
O 	O 	0.73050 0.61530 0.86650 -0.57300
O 	O 	0.02990 0.58560 0.90400 -0.52500
O 	O 	0.38980 0.72390 0.89200 -0.59400
O 	O 	0.97120 0.16240 0.11500 -0.48500
