data_crystal

_cell_length_a 16.85200
_cell_length_b 17.11600
_cell_length_c 9.71030
_cell_angle_alpha 90.00000
_cell_angle_beta  118.68300
_cell_angle_gamma 90.00000

_symmetry_space_group_name_	'P 1'
_symmetry_space_group_name_H-M	'P 1'

loop_
_symmetry_equiv_pos_as_xyz
  x,y,z

loop_
_atom_site_label
_atom_site_type_symbol
_atom_site_fract_x
_atom_site_fract_y
_atom_site_fract_z
_atom_site_charge
O 	O 	0.14040 0.18910 0.59360 -0.46600
C 	C 	0.06300 0.16010 0.50280 0.30500
Zn	Zn	0.73316 0.39211 0.15579 1.19400
N 	N 	0.74530 0.47520 0.30960 -0.30300
N 	N 	0.84320 0.32020 0.26580 -0.26000
C 	C 	0.92540 0.34570 0.36300 0.05700
H 	H 	0.93400 0.39930 0.37860 -0.01100
C 	C 	0.83090 0.24260 0.24220 0.03200
H 	H 	0.77370 0.22370 0.17270 0.00200
C 	C 	0.90160 0.19010 0.31900 -0.07800
H 	H 	0.89140 0.13670 0.30180 0.05800
C 	C 	0.70910 0.48880 0.40060 0.35000
N 	N 	0.74630 0.55320 0.48550 -0.29200
N 	N 	0.80690 0.53280 0.33830 -0.07600
N 	N 	0.80700 0.57940 0.44380 -0.07000
C 	C 	0.98650 0.21720 0.42010 -0.02500
C 	C 	0.63860 0.44030 0.40810 -0.94200
H 	H 	0.58180 0.44850 0.31510 0.30100
H 	H 	0.63310 0.45490 0.49860 0.29900
H 	H 	0.65510 0.38620 0.41560 0.29000
C 	C 	0.99970 0.29740 0.44320 -0.08500
H 	H 	0.05650 0.31790 0.51010 0.07400
O 	O 	0.04830 0.09000 0.47740 -0.34800
O 	O 	0.64040 0.68910 0.59360 -0.46700
C 	C 	0.56300 0.66010 0.50280 0.30400
Zn	Zn	0.23316 0.89211 0.15579 1.19200
N 	N 	0.24530 0.97520 0.30960 -0.30500
N 	N 	0.34320 0.82020 0.26580 -0.26100
C 	C 	0.42540 0.84570 0.36300 0.05600
H 	H 	0.43400 0.89930 0.37860 -0.01100
C 	C 	0.33090 0.74260 0.24220 0.03100
H 	H 	0.27370 0.72370 0.17270 0.00200
C 	C 	0.40160 0.69010 0.31900 -0.07800
H 	H 	0.39140 0.63670 0.30180 0.05700
C 	C 	0.20910 0.98880 0.40060 0.35000
N 	N 	0.24630 0.05320 0.48550 -0.29200
N 	N 	0.30690 0.03280 0.33830 -0.07500
N 	N 	0.30700 0.07940 0.44380 -0.07000
C 	C 	0.48650 0.71720 0.42010 -0.02600
C 	C 	0.13860 0.94030 0.40810 -0.94200
H 	H 	0.08180 0.94850 0.31510 0.30100
H 	H 	0.13310 0.95490 0.49860 0.29900
H 	H 	0.15510 0.88620 0.41560 0.29000
C 	C 	0.49970 0.79740 0.44320 -0.08500
H 	H 	0.55650 0.81790 0.51010 0.07500
O 	O 	0.54830 0.59000 0.47740 -0.34700
O 	O 	0.14040 0.81090 0.09360 -0.46600
C 	C 	0.06300 0.83990 0.00280 0.29700
Zn	Zn	0.73316 0.60789 0.65579 1.19300
N 	N 	0.74530 0.52480 0.80960 -0.30400
N 	N 	0.84320 0.67980 0.76580 -0.26100
C 	C 	0.92540 0.65430 0.86300 0.05700
H 	H 	0.93400 0.60070 0.87860 -0.01100
C 	C 	0.83090 0.75740 0.74220 0.03200
H 	H 	0.77370 0.77630 0.67270 0.00200
C 	C 	0.90160 0.80990 0.81900 -0.08000
H 	H 	0.89140 0.86330 0.80180 0.05800
C 	C 	0.70910 0.51120 0.90060 0.35000
N 	N 	0.74630 0.44680 0.98550 -0.29200
N 	N 	0.80690 0.46720 0.83830 -0.07600
N 	N 	0.80700 0.42060 0.94380 -0.07000
C 	C 	0.98650 0.78280 0.92010 -0.02300
C 	C 	0.63860 0.55970 0.90810 -0.94300
H 	H 	0.58180 0.55150 0.81510 0.30100
H 	H 	0.63310 0.54510 0.99860 0.29900
H 	H 	0.65510 0.61380 0.91560 0.29000
C 	C 	0.99970 0.70260 0.94320 -0.08600
H 	H 	0.05650 0.68210 0.01010 0.07400
O 	O 	0.04830 0.91000 0.97740 -0.34100
O 	O 	0.64040 0.31090 0.09360 -0.46700
C 	C 	0.56300 0.33990 0.00280 0.30600
Zn	Zn	0.23316 0.10789 0.65579 1.19300
N 	N 	0.24530 0.02480 0.80960 -0.30400
N 	N 	0.34320 0.17980 0.76580 -0.26100
C 	C 	0.42540 0.15430 0.86300 0.05900
H 	H 	0.43400 0.10070 0.87860 -0.01200
C 	C 	0.33090 0.25740 0.74220 0.03200
H 	H 	0.27370 0.27630 0.67270 0.00200
C 	C 	0.40160 0.30990 0.81900 -0.07900
H 	H 	0.39140 0.36330 0.80180 0.05700
C 	C 	0.20910 0.01120 0.90060 0.34400
N 	N 	0.24630 0.94680 0.98550 -0.28800
N 	N 	0.30690 0.96720 0.83830 -0.07400
N 	N 	0.30700 0.92060 0.94380 -0.06900
C 	C 	0.48650 0.28280 0.92010 -0.02600
C 	C 	0.13860 0.05970 0.90810 -0.93400
H 	H 	0.08180 0.05150 0.81510 0.29800
H 	H 	0.13310 0.04510 0.99860 0.29500
H 	H 	0.15510 0.11380 0.91560 0.28700
C 	C 	0.49970 0.20260 0.94320 -0.09100
H 	H 	0.55650 0.18210 0.01010 0.07900
O 	O 	0.54830 0.41000 0.97740 -0.34900
O 	O 	0.85960 0.18910 0.90640 -0.46600
C 	C 	0.93700 0.16010 0.99720 0.29700
Zn	Zn	0.26684 0.39211 0.34421 1.19300
N 	N 	0.25470 0.47520 0.19040 -0.30400
N 	N 	0.15680 0.32020 0.23420 -0.26100
C 	C 	0.07460 0.34570 0.13700 0.05700
H 	H 	0.06600 0.39930 0.12140 -0.01100
C 	C 	0.16910 0.24260 0.25780 0.03200
H 	H 	0.22630 0.22370 0.32730 0.00200
C 	C 	0.09840 0.19010 0.18100 -0.08000
H 	H 	0.10860 0.13670 0.19820 0.05800
C 	C 	0.29090 0.48880 0.09940 0.35000
N 	N 	0.25370 0.55320 0.01450 -0.29200
N 	N 	0.19310 0.53280 0.16170 -0.07600
N 	N 	0.19300 0.57940 0.05620 -0.07000
C 	C 	0.01350 0.21720 0.07990 -0.02300
C 	C 	0.36140 0.44030 0.09190 -0.94300
H 	H 	0.41820 0.44850 0.18490 0.30100
H 	H 	0.36690 0.45490 0.00140 0.29900
H 	H 	0.34490 0.38620 0.08440 0.29000
C 	C 	0.00030 0.29740 0.05680 -0.08600
H 	H 	0.94350 0.31790 0.98990 0.07400
O 	O 	0.95170 0.09000 0.02260 -0.34100
O 	O 	0.35960 0.68910 0.90640 -0.46700
C 	C 	0.43700 0.66010 0.99720 0.30600
Zn	Zn	0.76684 0.89211 0.34421 1.19300
N 	N 	0.75470 0.97520 0.19040 -0.30400
N 	N 	0.65680 0.82020 0.23420 -0.26100
C 	C 	0.57460 0.84570 0.13700 0.05900
H 	H 	0.56600 0.89930 0.12140 -0.01200
C 	C 	0.66910 0.74260 0.25780 0.03200
H 	H 	0.72630 0.72370 0.32730 0.00200
C 	C 	0.59840 0.69010 0.18100 -0.07900
H 	H 	0.60860 0.63670 0.19820 0.05700
C 	C 	0.79090 0.98880 0.09940 0.34400
N 	N 	0.75370 0.05320 0.01450 -0.28800
N 	N 	0.69310 0.03280 0.16170 -0.07400
N 	N 	0.69300 0.07940 0.05620 -0.06900
C 	C 	0.51350 0.71720 0.07990 -0.02600
C 	C 	0.86140 0.94030 0.09190 -0.93400
H 	H 	0.91820 0.94850 0.18490 0.29800
H 	H 	0.86690 0.95490 0.00140 0.29500
H 	H 	0.84490 0.88620 0.08440 0.28700
C 	C 	0.50030 0.79740 0.05680 -0.09100
H 	H 	0.44350 0.81790 0.98990 0.07900
O 	O 	0.45170 0.59000 0.02260 -0.34900
O 	O 	0.85960 0.81090 0.40640 -0.46700
C 	C 	0.93700 0.83990 0.49720 0.30400
Zn	Zn	0.26684 0.60789 0.84421 1.19300
N 	N 	0.25470 0.52480 0.69040 -0.30400
N 	N 	0.15680 0.67980 0.73420 -0.26000
C 	C 	0.07460 0.65430 0.63700 0.05700
H 	H 	0.06600 0.60070 0.62140 -0.01100
C 	C 	0.16910 0.75740 0.75780 0.03200
H 	H 	0.22630 0.77630 0.82730 0.00200
C 	C 	0.09840 0.80990 0.68100 -0.07800
H 	H 	0.10860 0.86330 0.69820 0.05800
C 	C 	0.29090 0.51120 0.59940 0.35000
N 	N 	0.25370 0.44680 0.51450 -0.29200
N 	N 	0.19310 0.46720 0.66170 -0.07600
N 	N 	0.19300 0.42060 0.55620 -0.07000
C 	C 	0.01350 0.78280 0.57990 -0.02500
C 	C 	0.36140 0.55970 0.59190 -0.94200
H 	H 	0.41820 0.55150 0.68490 0.30100
H 	H 	0.36690 0.54510 0.50140 0.29900
H 	H 	0.34490 0.61380 0.58440 0.29000
C 	C 	0.00030 0.70260 0.55680 -0.08500
H 	H 	0.94350 0.68210 0.48990 0.07400
O 	O 	0.95170 0.91000 0.52260 -0.34800
O 	O 	0.35960 0.31090 0.40640 -0.46700
C 	C 	0.43700 0.33990 0.49720 0.30400
Zn	Zn	0.76684 0.10789 0.84421 1.19200
N 	N 	0.75470 0.02480 0.69040 -0.30500
N 	N 	0.65680 0.17980 0.73420 -0.26100
C 	C 	0.57460 0.15430 0.63700 0.05600
H 	H 	0.56600 0.10070 0.62140 -0.01100
C 	C 	0.66910 0.25740 0.75780 0.03100
H 	H 	0.72630 0.27630 0.82730 0.00200
C 	C 	0.59840 0.30990 0.68100 -0.07800
H 	H 	0.60860 0.36330 0.69820 0.05700
C 	C 	0.79090 0.01120 0.59940 0.35000
N 	N 	0.75370 0.94680 0.51450 -0.29200
N 	N 	0.69310 0.96720 0.66170 -0.07500
N 	N 	0.69300 0.92060 0.55620 -0.07000
C 	C 	0.51350 0.28280 0.57990 -0.02600
C 	C 	0.86140 0.05970 0.59190 -0.94200
H 	H 	0.91820 0.05150 0.68490 0.30100
H 	H 	0.86690 0.04510 0.50140 0.29900
H 	H 	0.84490 0.11380 0.58440 0.29000
C 	C 	0.50030 0.20260 0.55680 -0.08500
H 	H 	0.44350 0.18210 0.48990 0.07500
O 	O 	0.45170 0.41000 0.52260 -0.34700
