data_crystal

_cell_length_a 15.29000
_cell_length_b 24.48000
_cell_length_c 21.79000
_cell_angle_alpha 90.00000
_cell_angle_beta  90.00000
_cell_angle_gamma 90.00000

_symmetry_space_group_name_	'P 1'
_symmetry_space_group_name_H-M	'P 1'

loop_
_symmetry_equiv_pos_as_xyz
  x,y,z

loop_
_atom_site_label
_atom_site_type_symbol
_atom_site_fract_x
_atom_site_fract_y
_atom_site_fract_z
_atom_site_charge
O 	O 	0.09730 0.31092 0.16570 -0.44100
O 	O 	0.07310 0.30780 0.36980 -0.43500
O 	O 	0.16510 0.30730 0.25620 -0.44000
C 	C 	0.15420 0.32580 0.20150 0.39700
C 	C 	0.21750 0.36750 0.18350 -0.10500
C 	C 	0.28910 0.38170 0.22090 0.01600
H 	H 	0.29820 0.36170 0.25770 0.03300
C 	C 	0.34610 0.42300 0.20670 -0.05400
H 	H 	0.39490 0.43020 0.23250 0.05000
C 	C 	0.33200 0.45470 0.15410 -0.04100
H 	H 	0.36830 0.48530 0.14570 0.05200
C 	C 	0.26390 0.44080 0.11380 0.00300
C 	C 	0.20600 0.39760 0.12930 -0.01600
H 	H 	0.15890 0.38900 0.10270 0.04500
C 	C 	0.25200 0.47120 0.05520 0.00600
C 	C 	0.07750 0.39740 0.44700 -0.61700
C 	C 	0.07750 0.43790 0.49200 -0.73900
C 	C 	0.92480 0.42070 0.51190 1.00400
C 	C 	0.92470 0.38010 0.46640 0.49700
H 	H 	0.12950 0.38940 0.42480 0.25200
H 	H 	0.87270 0.42850 0.53400 -0.16800
H 	H 	0.87240 0.36060 0.45760 -0.12900
O 	O 	0.59730 0.81092 0.16570 -0.43400
O 	O 	0.57310 0.80780 0.36980 -0.43900
O 	O 	0.66510 0.80730 0.25620 -0.43700
C 	C 	0.65420 0.82580 0.20150 0.39500
C 	C 	0.71750 0.86750 0.18350 -0.10100
C 	C 	0.78910 0.88170 0.22090 0.01500
H 	H 	0.79820 0.86170 0.25770 0.03700
C 	C 	0.84610 0.92300 0.20670 -0.05100
H 	H 	0.89490 0.93020 0.23250 0.05500
C 	C 	0.83200 0.95470 0.15410 -0.04100
H 	H 	0.86830 0.98530 0.14570 0.05700
C 	C 	0.76390 0.94080 0.11380 0.00600
C 	C 	0.70600 0.89760 0.12930 -0.01700
H 	H 	0.65890 0.88900 0.10270 0.04900
C 	C 	0.75200 0.97120 0.05520 0.00800
C 	C 	0.57750 0.89740 0.44700 -0.66400
C 	C 	0.57750 0.93790 0.49200 -0.79900
C 	C 	0.42480 0.92070 0.51190 1.07600
C 	C 	0.42470 0.88010 0.46640 0.53200
H 	H 	0.62950 0.88940 0.42480 0.27000
H 	H 	0.37270 0.92850 0.53400 -0.18500
H 	H 	0.37240 0.86060 0.45760 -0.14300
O 	O 	0.90270 0.18908 0.16570 -0.42000
O 	O 	0.92690 0.19220 0.36980 -0.41000
O 	O 	0.83490 0.19270 0.25620 -0.43400
C 	C 	0.84580 0.17420 0.20150 0.39400
C 	C 	0.78250 0.13250 0.18350 -0.09800
C 	C 	0.71090 0.11830 0.22090 0.01200
H 	H 	0.70180 0.13830 0.25770 0.03400
C 	C 	0.65390 0.07700 0.20670 -0.05100
H 	H 	0.60510 0.06980 0.23250 0.04800
C 	C 	0.66800 0.04530 0.15410 -0.04400
H 	H 	0.63170 0.01470 0.14570 0.05200
C 	C 	0.73610 0.05920 0.11380 0.00700
C 	C 	0.79400 0.10240 0.12930 -0.01800
H 	H 	0.84110 0.11100 0.10270 0.05400
C 	C 	0.74800 0.02880 0.05520 0.00700
C 	C 	0.92250 0.10260 0.44700 -0.59100
C 	C 	0.92250 0.06210 0.49200 -0.70900
C 	C 	0.07520 0.07930 0.51190 1.00000
C 	C 	0.07530 0.11990 0.46640 0.49000
H 	H 	0.87050 0.11060 0.42480 0.24700
H 	H 	0.12730 0.07150 0.53400 -0.17100
H 	H 	0.12760 0.13940 0.45760 -0.13000
O 	O 	0.40270 0.68908 0.16570 -0.43500
O 	O 	0.42690 0.69220 0.36980 -0.44100
O 	O 	0.33490 0.69270 0.25620 -0.44000
C 	C 	0.34580 0.67420 0.20150 0.39500
C 	C 	0.28250 0.63250 0.18350 -0.10300
C 	C 	0.21090 0.61830 0.22090 0.01200
H 	H 	0.20180 0.63830 0.25770 0.03100
C 	C 	0.15390 0.57700 0.20670 -0.05400
H 	H 	0.10510 0.56980 0.23250 0.04200
C 	C 	0.16800 0.54530 0.15410 -0.04500
H 	H 	0.13170 0.51470 0.14570 0.04700
C 	C 	0.23610 0.55920 0.11380 0.00400
C 	C 	0.29400 0.60240 0.12930 -0.01800
H 	H 	0.34110 0.61100 0.10270 0.04900
C 	C 	0.24800 0.52880 0.05520 0.00500
C 	C 	0.42250 0.60260 0.44700 -0.66700
C 	C 	0.42250 0.56210 0.49200 -0.80100
C 	C 	0.57520 0.57930 0.51190 1.08500
C 	C 	0.57530 0.61990 0.46640 0.53600
H 	H 	0.37050 0.61060 0.42480 0.27000
H 	H 	0.62730 0.57150 0.53400 -0.18500
H 	H 	0.62760 0.63940 0.45760 -0.14300
O 	O 	0.90270 0.81092 0.83430 -0.42100
O 	O 	0.92690 0.80780 0.63020 -0.41000
O 	O 	0.83490 0.80730 0.74380 -0.43400
C 	C 	0.84580 0.82580 0.79850 0.39400
C 	C 	0.78250 0.86750 0.81650 -0.09800
C 	C 	0.71090 0.88170 0.77910 0.01200
H 	H 	0.70180 0.86170 0.74230 0.03400
C 	C 	0.65390 0.92300 0.79330 -0.05100
H 	H 	0.60510 0.93020 0.76750 0.04800
C 	C 	0.66800 0.95470 0.84590 -0.04400
H 	H 	0.63170 0.98530 0.85430 0.05200
C 	C 	0.73610 0.94080 0.88620 0.00700
C 	C 	0.79400 0.89760 0.87070 -0.01900
H 	H 	0.84110 0.88900 0.89730 0.05300
C 	C 	0.74800 0.97120 0.94480 0.00500
C 	C 	0.92250 0.89740 0.55300 -0.59100
C 	C 	0.92250 0.93790 0.50800 -0.70900
C 	C 	0.07520 0.92070 0.48810 1.00000
C 	C 	0.07530 0.88010 0.53360 0.49000
H 	H 	0.87050 0.88940 0.57520 0.24700
H 	H 	0.12730 0.92850 0.46600 -0.17100
H 	H 	0.12760 0.86060 0.54240 -0.13000
O 	O 	0.40270 0.31092 0.83430 -0.43600
O 	O 	0.42690 0.30780 0.63020 -0.44100
O 	O 	0.33490 0.30730 0.74380 -0.44000
C 	C 	0.34580 0.32580 0.79850 0.39500
C 	C 	0.28250 0.36750 0.81650 -0.10400
C 	C 	0.21090 0.38170 0.77910 0.01200
H 	H 	0.20180 0.36170 0.74230 0.03100
C 	C 	0.15390 0.42300 0.79330 -0.05500
H 	H 	0.10510 0.43020 0.76750 0.04200
C 	C 	0.16800 0.45470 0.84590 -0.04500
H 	H 	0.13170 0.48530 0.85430 0.04700
C 	C 	0.23610 0.44080 0.88620 0.00400
C 	C 	0.29400 0.39760 0.87070 -0.01800
H 	H 	0.34110 0.38900 0.89730 0.04800
C 	C 	0.24800 0.47120 0.94480 0.00300
C 	C 	0.42250 0.39740 0.55300 -0.66700
C 	C 	0.42250 0.43790 0.50800 -0.80100
C 	C 	0.57520 0.42070 0.48810 1.08500
C 	C 	0.57530 0.38010 0.53360 0.53600
H 	H 	0.37050 0.38940 0.57520 0.27000
H 	H 	0.62730 0.42850 0.46600 -0.18500
H 	H 	0.62760 0.36060 0.54240 -0.14300
O 	O 	0.09730 0.68908 0.83430 -0.44200
O 	O 	0.07310 0.69220 0.63020 -0.43600
O 	O 	0.16510 0.69270 0.74380 -0.44100
C 	C 	0.15420 0.67420 0.79850 0.39600
C 	C 	0.21750 0.63250 0.81650 -0.10600
C 	C 	0.28910 0.61830 0.77910 0.01500
H 	H 	0.29820 0.63830 0.74230 0.03200
C 	C 	0.34610 0.57700 0.79330 -0.05500
H 	H 	0.39490 0.56980 0.76750 0.04900
C 	C 	0.33200 0.54530 0.84590 -0.04200
H 	H 	0.36830 0.51470 0.85430 0.05200
C 	C 	0.26390 0.55920 0.88620 0.00300
C 	C 	0.20600 0.60240 0.87070 -0.01600
H 	H 	0.15890 0.61100 0.89730 0.04400
C 	C 	0.25200 0.52880 0.94480 0.00400
C 	C 	0.07750 0.60260 0.55300 -0.61700
C 	C 	0.07750 0.56210 0.50800 -0.73900
C 	C 	0.92480 0.57930 0.48810 1.00400
C 	C 	0.92470 0.61990 0.53360 0.49700
H 	H 	0.12950 0.61060 0.57520 0.25200
H 	H 	0.87270 0.57150 0.46600 -0.16800
H 	H 	0.87240 0.63940 0.54240 -0.12900
O 	O 	0.59730 0.18908 0.83430 -0.43500
O 	O 	0.57310 0.19220 0.63020 -0.43900
O 	O 	0.66510 0.19270 0.74380 -0.43700
C 	C 	0.65420 0.17420 0.79850 0.39500
C 	C 	0.71750 0.13250 0.81650 -0.10100
C 	C 	0.78910 0.11830 0.77910 0.01500
H 	H 	0.79820 0.13830 0.74230 0.03700
C 	C 	0.84610 0.07700 0.79330 -0.05100
H 	H 	0.89490 0.06980 0.76750 0.05500
C 	C 	0.83200 0.04530 0.84590 -0.04100
H 	H 	0.86830 0.01470 0.85430 0.05600
C 	C 	0.76390 0.05920 0.88620 0.00600
C 	C 	0.70600 0.10240 0.87070 -0.01700
H 	H 	0.65890 0.11100 0.89730 0.04900
C 	C 	0.75200 0.02880 0.94480 0.00600
C 	C 	0.57750 0.10260 0.55300 -0.66400
C 	C 	0.57750 0.06210 0.50800 -0.79800
C 	C 	0.42480 0.07930 0.48810 1.07600
C 	C 	0.42470 0.11990 0.53360 0.53200
H 	H 	0.62950 0.11060 0.57520 0.27000
H 	H 	0.37270 0.07150 0.46600 -0.18400
H 	H 	0.37240 0.13940 0.54240 -0.14300
O 	O 	0.90270 0.68908 0.83430 -0.42100
O 	O 	0.92690 0.69220 0.63020 -0.41000
O 	O 	0.83490 0.69270 0.74380 -0.43400
C 	C 	0.84580 0.67420 0.79850 0.39400
C 	C 	0.78250 0.63250 0.81650 -0.09800
C 	C 	0.71090 0.61830 0.77910 0.01200
H 	H 	0.70180 0.63830 0.74230 0.03400
C 	C 	0.65390 0.57700 0.79330 -0.05100
H 	H 	0.60510 0.56980 0.76750 0.04800
C 	C 	0.66800 0.54530 0.84590 -0.04400
H 	H 	0.63170 0.51470 0.85430 0.05200
C 	C 	0.73610 0.55920 0.88620 0.00700
C 	C 	0.79400 0.60240 0.87070 -0.01900
H 	H 	0.84110 0.61100 0.89730 0.05300
C 	C 	0.74800 0.52880 0.94480 0.00500
C 	C 	0.92250 0.60260 0.55300 -0.59400
C 	C 	0.92250 0.56210 0.50800 -0.71300
C 	C 	0.07520 0.57930 0.48810 1.00600
C 	C 	0.07530 0.61990 0.53360 0.49300
H 	H 	0.87050 0.61060 0.57520 0.24900
H 	H 	0.12730 0.57150 0.46600 -0.17200
H 	H 	0.12760 0.63940 0.54240 -0.13100
O 	O 	0.40270 0.18908 0.83430 -0.43600
O 	O 	0.42690 0.19220 0.63020 -0.44100
O 	O 	0.33490 0.19270 0.74380 -0.44000
C 	C 	0.34580 0.17420 0.79850 0.39500
C 	C 	0.28250 0.13250 0.81650 -0.10400
C 	C 	0.21090 0.11830 0.77910 0.01200
H 	H 	0.20180 0.13830 0.74230 0.03100
C 	C 	0.15390 0.07700 0.79330 -0.05500
H 	H 	0.10510 0.06980 0.76750 0.04200
C 	C 	0.16800 0.04530 0.84590 -0.04500
H 	H 	0.13170 0.01470 0.85430 0.04700
C 	C 	0.23610 0.05920 0.88620 0.00400
C 	C 	0.29400 0.10240 0.87070 -0.01800
H 	H 	0.34110 0.11100 0.89730 0.04800
C 	C 	0.24800 0.02880 0.94480 0.00300
C 	C 	0.42250 0.10260 0.55300 -0.66300
C 	C 	0.42250 0.06210 0.50800 -0.79700
C 	C 	0.57520 0.07930 0.48810 1.07900
C 	C 	0.57530 0.11990 0.53360 0.53300
H 	H 	0.37050 0.11060 0.57520 0.26800
H 	H 	0.62730 0.07150 0.46600 -0.18400
H 	H 	0.62760 0.13940 0.54240 -0.14200
O 	O 	0.09730 0.81092 0.83430 -0.44200
O 	O 	0.07310 0.80780 0.63020 -0.43600
O 	O 	0.16510 0.80730 0.74380 -0.44100
C 	C 	0.15420 0.82580 0.79850 0.39600
C 	C 	0.21750 0.86750 0.81650 -0.10600
C 	C 	0.28910 0.88170 0.77910 0.01500
H 	H 	0.29820 0.86170 0.74230 0.03200
C 	C 	0.34610 0.92300 0.79330 -0.05500
H 	H 	0.39490 0.93020 0.76750 0.04900
C 	C 	0.33200 0.95470 0.84590 -0.04200
H 	H 	0.36830 0.98530 0.85430 0.05100
C 	C 	0.26390 0.94080 0.88620 0.00300
C 	C 	0.20600 0.89760 0.87070 -0.01600
H 	H 	0.15890 0.88900 0.89730 0.04400
C 	C 	0.25200 0.97120 0.94480 0.00400
C 	C 	0.07750 0.89740 0.55300 -0.61400
C 	C 	0.07750 0.93790 0.50800 -0.73500
C 	C 	0.92480 0.92070 0.48810 0.99800
C 	C 	0.92470 0.88010 0.53360 0.49400
H 	H 	0.12950 0.88940 0.57520 0.25100
H 	H 	0.87270 0.92850 0.46600 -0.16700
H 	H 	0.87240 0.86060 0.54240 -0.12800
O 	O 	0.59730 0.31092 0.83430 -0.43500
O 	O 	0.57310 0.30780 0.63020 -0.43900
O 	O 	0.66510 0.30730 0.74380 -0.43700
C 	C 	0.65420 0.32580 0.79850 0.39500
C 	C 	0.71750 0.36750 0.81650 -0.10100
C 	C 	0.78910 0.38170 0.77910 0.01500
H 	H 	0.79820 0.36170 0.74230 0.03700
C 	C 	0.84610 0.42300 0.79330 -0.05100
H 	H 	0.89490 0.43020 0.76750 0.05600
C 	C 	0.83200 0.45470 0.84590 -0.04100
H 	H 	0.86830 0.48530 0.85430 0.05700
C 	C 	0.76390 0.44080 0.88620 0.00700
C 	C 	0.70600 0.39760 0.87070 -0.01700
H 	H 	0.65890 0.38900 0.89730 0.04900
C 	C 	0.75200 0.47120 0.94480 0.00600
C 	C 	0.57750 0.39740 0.55300 -0.66800
C 	C 	0.57750 0.43790 0.50800 -0.80300
C 	C 	0.42480 0.42070 0.48810 1.08200
C 	C 	0.42470 0.38010 0.53360 0.53500
H 	H 	0.62950 0.38940 0.57520 0.27200
H 	H 	0.37270 0.42850 0.46600 -0.18600
H 	H 	0.37240 0.36060 0.54240 -0.14400
O 	O 	0.09730 0.18908 0.16570 -0.44200
O 	O 	0.07310 0.19220 0.36980 -0.43600
O 	O 	0.16510 0.19270 0.25620 -0.44100
C 	C 	0.15420 0.17420 0.20150 0.39600
C 	C 	0.21750 0.13250 0.18350 -0.10600
C 	C 	0.28910 0.11830 0.22090 0.01500
H 	H 	0.29820 0.13830 0.25770 0.03200
C 	C 	0.34610 0.07700 0.20670 -0.05500
H 	H 	0.39490 0.06980 0.23250 0.04900
C 	C 	0.33200 0.04530 0.15410 -0.04200
H 	H 	0.36830 0.01470 0.14570 0.05200
C 	C 	0.26390 0.05920 0.11380 0.00300
C 	C 	0.20600 0.10240 0.12930 -0.01600
H 	H 	0.15890 0.11100 0.10270 0.04500
C 	C 	0.25200 0.02880 0.05520 0.00600
C 	C 	0.07750 0.10260 0.44700 -0.61400
C 	C 	0.07750 0.06210 0.49200 -0.73500
C 	C 	0.92480 0.07930 0.51190 0.99800
C 	C 	0.92470 0.11990 0.46640 0.49400
H 	H 	0.12950 0.11060 0.42480 0.25100
H 	H 	0.87270 0.07150 0.53400 -0.16700
H 	H 	0.87240 0.13940 0.45760 -0.12800
O 	O 	0.59730 0.68908 0.16570 -0.43400
O 	O 	0.57310 0.69220 0.36980 -0.43900
O 	O 	0.66510 0.69270 0.25620 -0.43700
C 	C 	0.65420 0.67420 0.20150 0.39500
C 	C 	0.71750 0.63250 0.18350 -0.10100
C 	C 	0.78910 0.61830 0.22090 0.01500
H 	H 	0.79820 0.63830 0.25770 0.03700
C 	C 	0.84610 0.57700 0.20670 -0.05100
H 	H 	0.89490 0.56980 0.23250 0.05600
C 	C 	0.83200 0.54530 0.15410 -0.04100
H 	H 	0.86830 0.51470 0.14570 0.05700
C 	C 	0.76390 0.55920 0.11380 0.00700
C 	C 	0.70600 0.60240 0.12930 -0.01700
H 	H 	0.65890 0.61100 0.10270 0.04900
C 	C 	0.75200 0.52880 0.05520 0.00800
C 	C 	0.57750 0.60260 0.44700 -0.66800
C 	C 	0.57750 0.56210 0.49200 -0.80300
C 	C 	0.42480 0.57930 0.51190 1.08200
C 	C 	0.42470 0.61990 0.46640 0.53500
H 	H 	0.62950 0.61060 0.42480 0.27200
H 	H 	0.37270 0.57150 0.53400 -0.18600
H 	H 	0.37240 0.63940 0.45760 -0.14400
O 	O 	0.90270 0.31092 0.16570 -0.42000
O 	O 	0.92690 0.30780 0.36980 -0.41000
O 	O 	0.83490 0.30730 0.25620 -0.43400
C 	C 	0.84580 0.32580 0.20150 0.39400
C 	C 	0.78250 0.36750 0.18350 -0.09800
C 	C 	0.71090 0.38170 0.22090 0.01200
H 	H 	0.70180 0.36170 0.25770 0.03400
C 	C 	0.65390 0.42300 0.20670 -0.05100
H 	H 	0.60510 0.43020 0.23250 0.04800
C 	C 	0.66800 0.45470 0.15410 -0.04400
H 	H 	0.63170 0.48530 0.14570 0.05200
C 	C 	0.73610 0.44080 0.11380 0.00700
C 	C 	0.79400 0.39760 0.12930 -0.01800
H 	H 	0.84110 0.38900 0.10270 0.05400
C 	C 	0.74800 0.47120 0.05520 0.00700
C 	C 	0.92250 0.39740 0.44700 -0.59400
C 	C 	0.92250 0.43790 0.49200 -0.71300
C 	C 	0.07520 0.42070 0.51190 1.00600
C 	C 	0.07530 0.38010 0.46640 0.49300
H 	H 	0.87050 0.38940 0.42480 0.24900
H 	H 	0.12730 0.42850 0.53400 -0.17200
H 	H 	0.12760 0.36060 0.45760 -0.13100
O 	O 	0.40270 0.81092 0.16570 -0.43500
O 	O 	0.42690 0.80780 0.36980 -0.44100
O 	O 	0.33490 0.80730 0.25620 -0.44000
C 	C 	0.34580 0.82580 0.20150 0.39500
C 	C 	0.28250 0.86750 0.18350 -0.10300
C 	C 	0.21090 0.88170 0.22090 0.01200
H 	H 	0.20180 0.86170 0.25770 0.03100
C 	C 	0.15390 0.92300 0.20670 -0.05500
H 	H 	0.10510 0.93020 0.23250 0.04200
C 	C 	0.16800 0.95470 0.15410 -0.04500
H 	H 	0.13170 0.98530 0.14570 0.04700
C 	C 	0.23610 0.94080 0.11380 0.00400
C 	C 	0.29400 0.89760 0.12930 -0.01800
H 	H 	0.34110 0.88900 0.10270 0.04900
C 	C 	0.24800 0.97120 0.05520 0.00500
C 	C 	0.42250 0.89740 0.44700 -0.66300
C 	C 	0.42250 0.93790 0.49200 -0.79700
C 	C 	0.57520 0.92070 0.51190 1.07900
C 	C 	0.57530 0.88010 0.46640 0.53300
H 	H 	0.37050 0.88940 0.42480 0.26800
H 	H 	0.62730 0.92850 0.53400 -0.18400
H 	H 	0.62760 0.86060 0.45760 -0.14200
Fe	Fe	-0.00000 0.25000 0.17320 1.17900
O 	O 	-0.00000 0.25000 0.26480 -0.68400
Fe	Fe	0.50000 0.75000 0.17320 1.19200
O 	O 	0.50000 0.75000 0.26480 -0.66600
Fe	Fe	-0.00000 0.75000 0.82680 1.17900
O 	O 	-0.00000 0.75000 0.73520 -0.68400
Fe	Fe	0.50000 0.25000 0.82680 1.19200
O 	O 	0.50000 0.25000 0.73520 -0.66600
Fe	Fe	0.10610 0.25000 0.30657 1.22200
Fe	Fe	0.60610 0.75000 0.30657 1.22500
Fe	Fe	0.89390 0.25000 0.30657 1.23200
Fe	Fe	0.39390 0.75000 0.30657 1.22400
Fe	Fe	0.89390 0.75000 0.69343 1.23200
Fe	Fe	0.39390 0.25000 0.69343 1.22400
Fe	Fe	0.10610 0.75000 0.69343 1.22200
Fe	Fe	0.60610 0.25000 0.69343 1.22500
C 	C 	0.25000 0.44500 -0.00000 -0.07400
H 	H 	0.25000 0.40620 -0.00000 0.05800
C 	C 	0.75000 0.05500 -0.00000 -0.07200
H 	H 	0.75000 0.09380 -0.00000 0.06100
C 	C 	0.75000 0.94500 -0.00000 -0.07200
H 	H 	0.75000 0.90620 -0.00000 0.06100
C 	C 	0.25000 0.55500 -0.00000 -0.07400
H 	H 	0.25000 0.59380 -0.00000 0.05800
C 	C 	0.75000 0.55500 -0.00000 -0.07200
H 	H 	0.75000 0.59380 -0.00000 0.06100
C 	C 	0.25000 0.05500 -0.00000 -0.07400
H 	H 	0.25000 0.09380 -0.00000 0.05800
C 	C 	0.25000 0.94500 -0.00000 -0.07400
H 	H 	0.25000 0.90620 -0.00000 0.05800
C 	C 	0.75000 0.44500 -0.00000 -0.07200
H 	H 	0.75000 0.40620 -0.00000 0.06100
C 	C 	-0.00000 0.32360 0.38820 0.33600
C 	C 	-0.00000 0.36840 0.43470 -0.08500
C 	C 	-0.00000 0.44910 0.52450 -0.29000
H 	H 	-0.00000 0.46310 0.56520 0.14800
C 	C 	0.50000 0.82360 0.38820 0.36800
C 	C 	0.50000 0.86840 0.43470 -0.05800
C 	C 	0.50000 0.94910 0.52450 -0.26200
H 	H 	0.50000 0.96310 0.56520 0.15100
C 	C 	-0.00000 0.17640 0.38820 0.33600
C 	C 	-0.00000 0.13160 0.43470 -0.08500
C 	C 	-0.00000 0.05090 0.52450 -0.28900
H 	H 	-0.00000 0.03690 0.56520 0.14800
C 	C 	0.50000 0.67640 0.38820 0.36800
C 	C 	0.50000 0.63160 0.43470 -0.05800
C 	C 	0.50000 0.55090 0.52450 -0.26400
H 	H 	0.50000 0.53690 0.56520 0.15100
C 	C 	-0.00000 0.82360 0.61180 0.33600
C 	C 	-0.00000 0.86840 0.56530 -0.08500
C 	C 	-0.00000 0.94910 0.47550 -0.28800
H 	H 	-0.00000 0.96310 0.43480 0.14800
C 	C 	0.50000 0.32360 0.61180 0.36800
C 	C 	0.50000 0.36840 0.56530 -0.05800
C 	C 	0.50000 0.44910 0.47550 -0.26400
H 	H 	0.50000 0.46310 0.43480 0.15100
C 	C 	-0.00000 0.67640 0.61180 0.33600
C 	C 	-0.00000 0.63160 0.56530 -0.08500
C 	C 	-0.00000 0.55090 0.47550 -0.29000
H 	H 	-0.00000 0.53690 0.43480 0.14800
C 	C 	0.50000 0.17640 0.61180 0.36800
C 	C 	0.50000 0.13160 0.56530 -0.05800
C 	C 	0.50000 0.05090 0.47550 -0.26200
H 	H 	0.50000 0.03690 0.43480 0.15100
