data_crystal

_cell_length_a 9.89180
_cell_length_b 23.57000
_cell_length_c 15.36680
_cell_angle_alpha 90.00000
_cell_angle_beta  90.00000
_cell_angle_gamma 90.00000

_symmetry_space_group_name_	'P 1'
_symmetry_space_group_name_H-M	'P 1'

loop_
_symmetry_equiv_pos_as_xyz
  x,y,z

loop_
_atom_site_label
_atom_site_type_symbol
_atom_site_fract_x
_atom_site_fract_y
_atom_site_fract_z
_atom_site_charge
Fe	Fe	0.29528 0.56928 0.13681 1.25500
Fe	Fe	0.49071 0.50000 0.27423 1.22400
Fe	Fe	0.70472 0.93072 0.63681 1.26200
Fe	Fe	0.70472 0.06928 0.63681 1.25400
Fe	Fe	0.50929 0.00000 0.77423 1.21100
Fe	Fe	0.29528 0.43072 0.13681 1.25500
H 	H 	0.61290 0.79690 0.07160 0.04300
H 	H 	0.08640 0.24750 0.40930 0.08300
H 	H 	0.91360 0.25250 0.90930 0.05000
H 	H 	0.13170 0.67490 0.31900 0.03500
H 	H 	0.13170 0.32510 0.31900 0.03400
H 	H 	0.00450 0.21010 0.53750 0.05300
H 	H 	0.91360 0.74750 0.90930 0.05000
H 	H 	0.56760 0.87450 0.98130 0.05900
H 	H 	0.59210 0.30200 0.07980 0.07100
H 	H 	0.84260 0.42670 0.16330 0.06300
H 	H 	0.43240 0.37450 0.48130 0.02600
H 	H 	0.61290 0.20310 0.07160 0.04000
H 	H 	0.43240 0.62550 0.48130 0.02600
H 	H 	0.40790 0.19800 0.57980 0.05200
H 	H 	0.15740 0.92670 0.66330 0.06300
H 	H 	0.38710 0.29690 0.57160 0.08100
H 	H 	0.56760 0.12550 0.98130 0.05200
H 	H 	0.86830 0.17490 0.81900 0.05300
H 	H 	0.99550 0.28990 0.03750 0.07500
H 	H 	0.15740 0.07330 0.66330 0.05100
H 	H 	0.84260 0.57330 0.16330 0.06400
H 	H 	0.00450 0.78990 0.53750 0.05600
H 	H 	0.59210 0.69800 0.07980 0.07100
H 	H 	0.38710 0.70310 0.57160 0.08100
H 	H 	0.08640 0.75250 0.40930 0.08500
H 	H 	0.99550 0.71010 0.03750 0.07600
H 	H 	0.40790 0.80200 0.57980 0.05400
H 	H 	0.86830 0.82510 0.81900 0.05500
C 	C 	0.82937 0.60872 0.13500 0.00700
C 	C 	0.92016 0.31005 0.06010 -0.05000
C 	C 	0.79057 0.71220 0.05178 0.05100
C 	C 	0.20943 0.21220 0.55178 -0.02600
C 	C 	0.92016 0.68995 0.06010 -0.05000
C 	C 	0.36220 0.65126 0.46666 0.06400
C 	C 	0.23252 0.73517 0.49900 0.08200
C 	C 	0.28635 0.35713 0.39162 -0.13400
C 	C 	0.93947 0.36181 0.10160 -0.04600
C 	C 	0.30015 0.13105 0.62700 -0.09800
C 	C 	0.76748 0.76483 0.99900 -0.03600
C 	C 	0.42030 0.90239 0.65710 0.39000
C 	C 	0.17063 0.10872 0.63500 0.02900
C 	C 	0.32590 0.40061 0.32650 0.39900
C 	C 	0.66473 0.19741 0.02034 0.01200
C 	C 	0.71365 0.85713 0.89162 -0.07400
C 	C 	0.20943 0.78780 0.55178 -0.02200
C 	C 	0.76748 0.23517 0.99900 -0.03800
C 	C 	0.84340 0.77328 0.92390 -0.04800
C 	C 	0.18350 0.31937 0.37027 0.06400
C 	C 	0.18350 0.68063 0.37027 0.06400
C 	C 	0.33527 0.69741 0.52034 -0.12600
C 	C 	0.32770 0.50000 0.87980 -0.07200
C 	C 	0.81650 0.81937 0.87027 -0.00300
C 	C 	0.69985 0.36895 0.12700 -0.07000
C 	C 	0.07984 0.81005 0.56010 -0.01200
C 	C 	0.67230 -0.00000 0.37980 -0.07400
C 	C 	0.31944 0.18277 0.58536 0.00300
C 	C 	0.71365 0.14287 0.89162 -0.08000
C 	C 	0.79057 0.28780 0.05178 0.05000
C 	C 	0.57970 0.59761 0.15710 0.38400
C 	C 	0.07984 0.18995 0.56010 -0.00900
C 	C 	0.23252 0.26483 0.49900 0.08300
C 	C 	0.06053 0.13819 0.60160 -0.07400
C 	C 	0.33527 0.30259 0.52034 -0.12700
C 	C 	0.66473 0.80259 0.02034 0.01300
C 	C 	0.81650 0.18063 0.87027 -0.00200
C 	C 	0.32590 0.59939 0.32650 0.39900
C 	C 	0.68056 0.31723 0.08536 -0.03900
C 	C 	0.57970 0.40239 0.15710 0.38400
C 	C 	0.17063 0.89128 0.63500 0.02400
C 	C 	0.31944 0.81723 0.58536 -0.00000
C 	C 	0.84340 0.22672 0.92390 -0.05000
C 	C 	0.92360 0.11325 0.61200 0.30500
C 	C 	0.68650 0.00000 0.47320 0.36800
C 	C 	0.15660 0.27328 0.42390 -0.12600
C 	C 	0.69985 0.63105 0.12700 -0.07000
C 	C 	0.15660 0.72672 0.42390 -0.12400
C 	C 	0.82937 0.39128 0.13500 0.00700
C 	C 	0.63780 0.84874 0.96666 -0.04200
C 	C 	0.68056 0.68277 0.08536 -0.03900
C 	C 	0.67410 0.90061 0.82650 0.37600
C 	C 	0.07640 0.38675 0.11200 0.29600
C 	C 	0.92360 0.88675 0.61200 0.30000
C 	C 	0.06053 0.86181 0.60160 -0.06400
C 	C 	0.63780 0.15126 0.96666 -0.04200
C 	C 	0.42030 0.09761 0.65710 0.39200
C 	C 	0.36220 0.34874 0.46666 0.06500
C 	C 	0.28635 0.64287 0.39162 -0.13400
C 	C 	0.07640 0.61325 0.11200 0.29600
C 	C 	0.67410 0.09939 0.82650 0.37800
C 	C 	0.93947 0.63819 0.10160 -0.04500
C 	C 	0.31350 0.50000 0.97320 0.34000
C 	C 	0.30015 0.86895 0.62700 -0.08900
O 	O 	0.64600 0.00000 0.68280 -0.68100
O 	O 	0.18039 0.35875 0.09243 -0.32600
O 	O 	0.08852 0.43716 0.13820 -0.36100
O 	O 	0.27120 0.39560 0.25197 -0.42700
O 	O 	0.30840 0.54640 0.01239 -0.39000
O 	O 	0.08852 0.56284 0.13820 -0.36100
O 	O 	0.59382 0.93936 0.84746 -0.42200
O 	O 	0.27120 0.60440 0.25197 -0.42600
O 	O 	0.60175 0.44115 0.21099 -0.43600
O 	O 	0.91148 0.93716 0.63820 -0.35400
O 	O 	0.35400 0.50000 0.18280 -0.66500
O 	O 	0.53125 0.88966 0.62370 -0.41800
O 	O 	0.81961 0.85875 0.59243 -0.33000
O 	O 	0.60175 0.55885 0.21099 -0.43600
O 	O 	0.72880 0.10440 0.75197 -0.42400
O 	O 	0.46875 0.38966 0.12370 -0.41800
O 	O 	0.40618 0.43936 0.34746 -0.43900
O 	O 	0.81961 0.14125 0.59243 -0.33300
O 	O 	0.30840 0.45360 0.01239 -0.39000
O 	O 	0.18039 0.64125 0.09243 -0.32500
O 	O 	0.40618 0.56064 0.34746 -0.43900
O 	O 	0.59382 0.06064 0.84746 -0.44200
O 	O 	0.69160 0.95360 0.51239 -0.39200
O 	O 	0.46875 0.61034 0.12370 -0.41700
O 	O 	0.91148 0.06284 0.63820 -0.37200
O 	O 	0.53125 0.11034 0.62370 -0.42300
O 	O 	0.69160 0.04640 0.51239 -0.41700
O 	O 	0.39825 0.05885 0.71099 -0.44500
O 	O 	0.39825 0.94115 0.71099 -0.42600
O 	O 	0.72880 0.89560 0.75197 -0.41800
