data_crystal

_cell_length_a 18.54900
_cell_length_b 25.08500
_cell_length_c 35.49400
_cell_angle_alpha 91.60700
_cell_angle_beta  90.00000
_cell_angle_gamma 90.00000

_symmetry_space_group_name_	'P 1'
_symmetry_space_group_name_H-M	'P 1'

loop_
_symmetry_equiv_pos_as_xyz
  x,y,z

loop_
_atom_site_label
_atom_site_type_symbol
_atom_site_fract_x
_atom_site_fract_y
_atom_site_fract_z
_atom_site_charge
Fe	Fe	0.72265 0.70424 0.62651 1.23300
Fe	Fe	0.14851 0.17759 0.88485 1.21600
Fe	Fe	0.41146 0.25669 0.31937 1.22300
Fe	Fe	0.85149 0.82241 0.11515 1.21700
Fe	Fe	0.08854 0.25669 0.81937 1.22300
Fe	Fe	0.64851 0.82241 0.61515 1.21700
Fe	Fe	0.77735 0.70424 0.12651 1.23400
Fe	Fe	0.35149 0.17759 0.38485 1.21700
Fe	Fe	0.91146 0.74331 0.18063 1.22300
Fe	Fe	0.27735 0.29576 0.37349 1.23400
Fe	Fe	0.58854 0.74331 0.68063 1.22300
Fe	Fe	0.22265 0.29576 0.87349 1.23400
H 	H 	0.19970 0.00360 0.59690 0.22000
H 	H 	0.67280 0.96700 0.86500 0.21700
H 	H 	0.24630 0.96450 0.18930 0.04600
H 	H 	0.83180 0.05550 0.87370 0.07600
H 	H 	0.63530 0.54770 0.60170 0.02000
H 	H 	0.75370 0.03550 0.81070 0.04600
H 	H 	0.77660 0.87410 0.35530 0.12800
H 	H 	0.28660 0.98330 0.25670 0.07100
H 	H 	0.19060 0.29700 0.71650 0.01800
H 	H 	0.70690 0.94850 0.69720 0.02400
H 	H 	0.43170 0.06130 0.19310 0.06400
H 	H 	0.20190 0.03800 0.12810 -0.06400
H 	H 	0.79840 0.84230 0.91170 -0.00200
H 	H 	0.56570 0.57700 0.31530 0.04300
H 	H 	0.56740 0.76300 0.13830 0.02900
H 	H 	0.25370 0.96450 0.68930 0.04600
H 	H 	0.17260 0.35750 0.97310 0.01800
H 	H 	0.41920 0.53630 0.40380 0.07500
H 	H 	0.32720 0.03300 0.13500 0.21700
H 	H 	0.86470 0.54770 0.10170 0.02000
H 	H 	0.20690 0.05150 0.80280 0.02400
H 	H 	0.24180 0.31910 0.16350 0.09100
H 	H 	0.08080 0.53630 0.90380 0.07500
H 	H 	0.46470 0.96350 0.18570 0.04500
H 	H 	0.96470 0.03650 0.31430 0.04500
H 	H 	0.63240 0.23410 0.34380 0.02800
H 	H 	0.89880 0.85020 0.85880 0.10100
H 	H 	0.52490 0.58460 0.42750 0.04400
H 	H 	0.56830 0.93870 0.80690 0.06400
H 	H 	0.54070 0.94750 0.12790 0.07300
H 	H 	0.54370 0.19670 0.84810 0.08700
H 	H 	0.80230 0.88910 0.84160 0.12900
H 	H 	0.36200 0.33220 0.78350 0.01900
H 	H 	0.06170 0.12960 0.73930 0.02200
H 	H 	0.94540 0.09470 0.88200 0.02200
H 	H 	0.06830 0.06130 0.69310 0.06400
H 	H 	0.47510 0.41540 0.57250 0.04400
H 	H 	0.56320 0.74790 0.43640 0.08700
H 	H 	0.85920 0.60490 0.96810 0.08400
H 	H 	0.39880 0.14980 0.64120 0.10100
H 	H 	0.84820 0.90710 0.61430 0.02200
H 	H 	0.36760 0.76590 0.65620 0.02800
H 	H 	0.95930 0.94750 0.62790 0.07300
H 	H 	0.15180 0.09290 0.38570 0.02200
H 	H 	0.42530 0.51210 0.66970 0.07500
H 	H 	0.71250 0.93210 0.41050 -0.05600
H 	H 	0.82720 0.96700 0.36500 0.21700
H 	H 	0.67260 0.64250 0.52690 0.01800
H 	H 	0.86280 0.77070 0.83140 0.00500
H 	H 	0.93830 0.87040 0.26070 0.02200
H 	H 	0.03530 0.96350 0.68570 0.04500
H 	H 	0.43430 0.42300 0.68470 0.04300
H 	H 	0.43260 0.23700 0.86170 0.02900
H 	H 	0.22760 0.19570 0.12250 0.00400
H 	H 	0.20160 0.15770 0.08830 -0.00200
H 	H 	0.59490 0.78540 0.49510 0.01500
H 	H 	0.14080 0.39510 0.03190 0.08400
H 	H 	0.93430 0.57700 0.81530 0.04300
H 	H 	0.30030 0.00360 0.09690 0.22000
H 	H 	0.13800 0.33220 0.28350 0.01900
H 	H 	0.22340 0.12590 0.64470 0.12800
H 	H 	0.90710 0.82310 0.89890 0.10700
H 	H 	0.09290 0.17690 0.10110 0.10700
H 	H 	0.27660 0.12590 0.14470 0.12800
H 	H 	0.45630 0.80330 0.15190 0.08700
H 	H 	0.25400 0.80510 0.66460 0.08300
H 	H 	0.33670 0.06140 0.09550 0.21300
H 	H 	0.79810 0.96200 0.87190 -0.06400
H 	H 	0.66820 0.05550 0.37370 0.07600
H 	H 	0.06570 0.42300 0.18470 0.04300
H 	H 	0.86200 0.66780 0.71650 0.01900
H 	H 	0.82740 0.64250 0.02690 0.01800
H 	H 	0.74180 0.68090 0.33650 0.09100
H 	H 	0.42950 0.35420 0.73050 0.08100
H 	H 	0.75820 0.68090 0.83650 0.09100
H 	H 	0.19770 0.11090 0.15840 0.12900
H 	H 	0.40510 0.21460 0.50490 0.01500
H 	H 	0.52030 0.40390 0.32470 0.02100
H 	H 	0.92530 0.48790 0.83030 0.07500
H 	H 	0.93260 0.76300 0.63830 0.02900
H 	H 	0.92950 0.64580 0.76950 0.08100
H 	H 	0.83670 0.93860 0.40450 0.21300
H 	H 	0.43830 0.12960 0.23930 0.02200
H 	H 	0.56170 0.87040 0.76070 0.02200
H 	H 	0.78660 0.01670 0.24330 0.07100
H 	H 	0.72340 0.87410 0.85530 0.12800
H 	H 	0.93170 0.93870 0.30690 0.06400
H 	H 	0.30230 0.11090 0.65840 0.12900
H 	H 	0.79310 0.94850 0.19720 0.02400
H 	H 	0.70160 0.84230 0.41170 -0.00200
H 	H 	0.90510 0.78540 0.99510 0.01500
H 	H 	0.63800 0.66780 0.21650 0.01900
H 	H 	0.30940 0.29700 0.21650 0.01800
H 	H 	0.07050 0.35420 0.23050 0.08100
H 	H 	0.57470 0.48790 0.33030 0.07500
H 	H 	0.13530 0.45230 0.89830 0.02000
H 	H 	0.05460 0.90530 0.11800 0.02200
H 	H 	0.95630 0.19670 0.34810 0.08700
H 	H 	0.09490 0.21460 0.00490 0.01500
H 	H 	0.80940 0.70300 0.28350 0.01800
H 	H 	0.66330 0.93860 0.90450 0.21300
H 	H 	0.74600 0.19490 0.33540 0.08300
H 	H 	0.74630 0.03550 0.31070 0.04600
H 	H 	0.21340 0.98330 0.75670 0.07100
H 	H 	0.69060 0.70300 0.78350 0.01800
H 	H 	0.43920 0.23630 0.64860 -0.00200
H 	H 	0.64080 0.60490 0.46810 0.08400
H 	H 	0.29310 0.05150 0.30280 0.02400
H 	H 	0.27240 0.19570 0.62250 0.00400
H 	H 	0.33180 0.94450 0.62630 0.07600
H 	H 	0.77240 0.80430 0.87750 0.00400
H 	H 	0.80030 0.99640 0.40310 0.22000
H 	H 	0.17280 0.03300 0.63500 0.21700
H 	H 	0.13240 0.76590 0.15620 0.02800
H 	H 	0.65180 0.90710 0.11430 0.02200
H 	H 	0.86760 0.23410 0.84380 0.02800
H 	H 	0.93920 0.76370 0.85140 -0.00200
H 	H 	0.36470 0.45230 0.39830 0.02000
H 	H 	0.02030 0.59610 0.17530 0.02000
H 	H 	0.60120 0.85020 0.35880 0.10100
H 	H 	0.24600 0.80510 0.16460 0.08300
H 	H 	0.29840 0.15770 0.58830 -0.00200
H 	H 	0.70190 0.96200 0.37190 -0.06400
H 	H 	0.56080 0.76370 0.35140 -0.00200
H 	H 	0.06080 0.23630 0.14860 -0.00200
H 	H 	0.58080 0.46370 0.59620 0.07500
H 	H 	0.55460 0.09470 0.38200 0.02200
H 	H 	0.10120 0.14980 0.14120 0.10100
H 	H 	0.72760 0.80430 0.37750 0.00400
H 	H 	0.06320 0.25210 0.06360 0.08700
H 	H 	0.34820 0.09290 0.88570 0.02200
H 	H 	0.97970 0.40390 0.82470 0.02000
H 	H 	0.69770 0.88910 0.34160 0.12900
H 	H 	0.21250 0.06790 0.08950 -0.05600
H 	H 	0.97510 0.58460 0.92750 0.04400
H 	H 	0.04070 0.05250 0.37210 0.07300
H 	H 	0.36280 0.22930 0.66860 0.00500
H 	H 	0.29810 0.03800 0.62810 -0.06400
H 	H 	0.53530 0.03650 0.81430 0.04500
H 	H 	0.35920 0.39510 0.53190 0.08400
H 	H 	0.59290 0.82310 0.39890 0.10700
H 	H 	0.06740 0.23700 0.36170 0.02900
H 	H 	0.71340 0.01670 0.74330 0.07100
H 	H 	0.28750 0.06790 0.58950 -0.05600
H 	H 	0.04370 0.80330 0.65190 0.08700
H 	H 	0.32740 0.35750 0.47310 0.01800
H 	H 	0.78750 0.93210 0.91050 -0.05600
H 	H 	0.40710 0.17690 0.60110 0.10700
H 	H 	0.07470 0.51210 0.16970 0.07500
H 	H 	0.43680 0.25210 0.56360 0.08700
H 	H 	0.44540 0.90530 0.61800 0.02200
H 	H 	0.75400 0.19490 0.83540 0.08300
H 	H 	0.47970 0.59610 0.67530 0.02100
H 	H 	0.57050 0.64580 0.26950 0.08100
H 	H 	0.69970 0.99640 0.90310 0.22000
H 	H 	0.13720 0.22930 0.16860 0.00500
H 	H 	0.91920 0.46370 0.09620 0.07500
H 	H 	0.25820 0.31910 0.66350 0.09100
H 	H 	0.93680 0.74790 0.93640 0.08700
H 	H 	0.45930 0.05250 0.87210 0.07300
H 	H 	0.02490 0.41540 0.07250 0.04400
H 	H 	0.63720 0.77070 0.33140 0.00500
H 	H 	0.16330 0.06140 0.59550 0.21300
H 	H 	0.16820 0.94450 0.12630 0.07600
C 	C 	0.16090 0.90824 0.13237 -0.13500
C 	C 	0.41978 0.94844 0.17816 -0.04600
C 	C 	0.27340 0.30130 0.28857 0.38600
C 	C 	0.59740 0.63240 0.64277 0.40500
C 	C 	0.36628 0.09700 0.27540 -0.13600
C 	C 	0.91462 0.72649 0.95473 -0.14600
C 	C 	0.65037 0.66388 0.50848 0.08000
C 	C 	0.42970 0.40508 0.66088 -0.03700
C 	C 	0.06200 0.19958 0.36385 0.05200
C 	C 	0.92970 0.59492 0.83912 -0.03700
C 	C 	0.11436 0.33098 0.12295 0.11200
C 	C 	0.10425 0.25120 0.01036 0.08200
C 	C 	0.12002 0.16875 0.37502 -0.12000
C 	C 	0.64146 0.98412 0.77945 0.06200
C 	C 	0.36030 0.80216 0.65013 0.05000
C 	C 	0.11896 0.34264 0.22765 -0.14700
C 	C 	0.73000 0.68748 0.24502 -0.14700
C 	C 	0.23000 0.31252 0.25498 -0.14700
C 	C 	0.12110 0.17750 0.12480 -0.26700
C 	C 	0.82122 0.94647 0.21943 0.05400
C 	C 	0.27000 0.31252 0.75498 -0.14700
C 	C 	0.30780 0.19820 0.88074 0.38500
C 	C 	0.85580 0.02893 0.30873 -0.01900
C 	C 	0.09263 0.45954 0.88447 0.06600
C 	C 	0.63675 0.71749 0.51652 -0.15900
C 	C 	0.22660 0.30130 0.78857 0.38600
C 	C 	0.58350 0.64731 0.40884 -0.06100
C 	C 	0.60425 0.74880 0.48964 0.08200
C 	C 	0.00400 0.82440 0.64425 -0.12600
C 	C 	0.61896 0.65736 0.27235 -0.14700
C 	C 	0.88730 0.77000 0.85620 0.12200
C 	C 	0.87140 0.85990 0.19479 0.39800
C 	C 	0.78221 0.12154 0.85379 0.09600
C 	C 	0.50210 0.52000 0.36760 0.07300
C 	C 	0.03940 0.42680 0.12909 -0.01500
C 	C 	0.88104 0.65736 0.77235 -0.14700
C 	C 	0.91800 0.09620 0.34592 -0.05300
C 	C 	0.12860 0.14010 0.80521 0.39800
C 	C 	0.99970 0.56921 0.15921 0.06800
C 	C 	0.09347 0.88499 0.12741 0.05600
C 	C 	0.13150 0.35842 0.02643 -0.14900
C 	C 	0.76087 0.69134 0.28068 0.07300
C 	C 	0.73913 0.69134 0.78068 0.07300
C 	C 	0.98809 0.12079 0.35882 0.09500
C 	C 	0.71779 0.12154 0.35379 0.09600
C 	C 	0.28827 0.90440 0.15623 -0.05400
C 	C 	0.29284 0.82542 0.65509 -0.12500
C 	C 	0.14146 0.01588 0.72055 0.06200
C 	C 	0.72080 0.67822 0.31217 -0.14500
C 	C 	0.32122 0.05353 0.28057 0.05400
C 	C 	0.99180 0.19420 0.86434 0.36900
C 	C 	0.58284 0.16805 0.36371 -0.11800
C 	C 	0.08538 0.27351 0.04527 -0.14600
C 	C 	0.07030 0.40508 0.16088 -0.03700
C 	C 	0.86850 0.64158 0.97357 -0.14900
C 	C 	0.46060 0.42680 0.62909 -0.01500
C 	C 	0.95399 0.59940 0.90577 -0.03600
C 	C 	0.93970 0.49057 0.11222 -0.13100
C 	C 	0.35020 0.33877 0.69199 0.10400
C 	C 	0.80260 0.83570 0.88410 0.11900
C 	C 	0.27240 0.11630 0.63570 -0.35800
C 	C 	0.33920 0.26120 0.44689 0.40900
C 	C 	0.79005 0.05095 0.31969 -0.04900
C 	C 	0.61270 0.77000 0.35620 0.12200
C 	C 	0.08022 0.94844 0.67816 -0.04600
C 	C 	0.38564 0.33098 0.62295 0.11200
C 	C 	0.59263 0.54046 0.61553 0.06600
C 	C 	0.83910 0.09176 0.86763 -0.13500
C 	C 	0.56030 0.49057 0.61222 -0.13100
C 	C 	0.84963 0.66388 0.00848 0.08000
C 	C 	0.64420 0.02893 0.80873 -0.01900
C 	C 	0.70716 0.17458 0.34491 -0.12500
C 	C 	0.63150 0.64158 0.47357 -0.14900
C 	C 	0.77240 0.88370 0.86430 -0.35800
C 	C 	0.73320 0.93650 0.38500 0.29200
C 	C 	0.00820 0.80580 0.13566 0.36900
C 	C 	0.50030 0.56921 0.65921 0.06700
C 	C 	0.09900 0.32712 0.05330 0.11000
C 	C 	0.80780 0.80180 0.61926 0.38500
C 	C 	0.21173 0.90440 0.65623 -0.05400
C 	C 	0.40653 0.88499 0.62741 0.05600
C 	C 	0.09253 0.09990 0.74280 0.05500
C 	C 	0.35854 0.01588 0.22055 0.06200
C 	C 	0.33910 0.90824 0.63237 -0.13500
C 	C 	0.08200 0.90380 0.65408 -0.05300
C 	C 	0.91716 0.16805 0.86371 -0.11800
C 	C 	0.86325 0.71749 0.01652 -0.15900
C 	C 	0.39225 0.35718 0.65781 -0.05900
C 	C 	0.91978 0.05156 0.32184 -0.04600
C 	C 	0.87998 0.83125 0.62498 -0.12000
C 	C 	0.31735 0.01298 0.25315 -0.12300
C 	C 	0.54601 0.59940 0.40577 -0.03600
C 	C 	0.90737 0.54046 0.11553 0.06600
C 	C 	0.54610 0.91004 0.13001 -0.13400
C 	C 	0.60775 0.64282 0.34219 -0.05900
C 	C 	0.40360 0.05934 0.21538 -0.12700
C 	C 	0.68265 0.98702 0.74685 -0.12300
C 	C 	0.17878 0.05353 0.78057 0.05400
C 	C 	0.64980 0.66123 0.30801 0.10400
C 	C 	0.14776 0.88177 0.64312 0.09900
C 	C 	0.03210 0.51932 0.15589 -0.13100
C 	C 	0.99790 0.52000 0.86760 0.07400
C 	C 	0.18265 0.01298 0.75315 -0.12300
C 	C 	0.76680 0.93650 0.88500 0.29200
C 	C 	0.39575 0.25120 0.51036 0.08200
C 	C 	0.46790 0.51932 0.65589 -0.13000
C 	C 	0.59253 0.90010 0.75720 0.05500
C 	C 	0.06030 0.50943 0.88778 -0.13100
C 	C 	0.69740 0.83570 0.38410 0.11900
C 	C 	0.45399 0.40060 0.59423 -0.03600
C 	C 	0.08284 0.83195 0.13629 -0.11800
C 	C 	0.15910 0.32951 0.25915 0.07200
C 	C 	0.77000 0.68748 0.74502 -0.14700
C 	C 	0.78827 0.09560 0.34377 -0.05400
C 	C 	0.87890 0.82250 0.87520 -0.26700
C 	C 	0.85854 0.98412 0.27945 0.06200
C 	C 	0.99600 0.17560 0.35575 -0.12600
C 	C 	0.93740 0.57978 0.13903 -0.14900
C 	C 	0.43970 0.50943 0.38778 -0.13100
C 	C 	0.90100 0.67288 0.94670 0.11000
C 	C 	0.23320 0.06350 0.11500 0.29200
C 	C 	0.04601 0.40060 0.09423 -0.03600
C 	C 	0.86030 0.19784 0.84987 0.05000
C 	C 	0.49180 0.80580 0.63566 0.37000
C 	C 	0.35224 0.88177 0.14312 0.09900
C 	C 	0.34963 0.33612 0.49152 0.08000
C 	C 	0.20995 0.94905 0.68031 -0.04900
C 	C 	0.81735 0.98702 0.24685 -0.12300
C 	C 	0.22080 0.32178 0.18783 -0.14500
C 	C 	0.79284 0.17458 0.84491 -0.12500
C 	C 	0.30550 0.03820 0.11020 -0.65900
C 	C 	0.77920 0.67822 0.81217 -0.14500
C 	C 	0.00210 0.48000 0.13240 0.07400
C 	C 	0.37890 0.17750 0.62480 -0.26700
C 	C 	0.51191 0.12079 0.85882 0.09500
C 	C 	0.14420 0.97107 0.69127 -0.01900
C 	C 	0.19220 0.19820 0.38074 0.38500
C 	C 	0.77340 0.69870 0.21143 0.38600
C 	C 	0.85224 0.11823 0.35688 0.09900
C 	C 	0.86628 0.90300 0.22460 -0.13600
C 	C 	0.16080 0.26120 0.94689 0.40900
C 	C 	0.10775 0.35718 0.15781 -0.05900
C 	C 	0.49600 0.82440 0.14425 -0.12600
C 	C 	0.20716 0.82542 0.15509 -0.12500
C 	C 	0.66090 0.09176 0.36763 -0.13500
C 	C 	0.56260 0.57978 0.63903 -0.14900
C 	C 	0.93800 0.80042 0.63615 0.05200
C 	C 	0.36850 0.35842 0.52643 -0.14900
C 	C 	0.58022 0.05156 0.82184 -0.04600
C 	C 	0.58538 0.72649 0.45473 -0.14600
C 	C 	0.38730 0.23000 0.64380 0.12200
C 	C 	0.19450 0.03820 0.61020 -0.66000
C 	C 	0.56200 0.80042 0.13615 0.05200
C 	C 	0.65910 0.67049 0.24085 0.07200
C 	C 	0.13675 0.28251 0.98348 -0.15900
C 	C 	0.41650 0.35269 0.59116 -0.06100
C 	C 	0.89575 0.74880 0.98964 0.08200
C 	C 	0.09640 0.05934 0.71538 -0.12700
C 	C 	0.96060 0.57320 0.87091 -0.01500
C 	C 	0.80550 0.96180 0.38980 -0.66000
C 	C 	0.90360 0.94066 0.28462 -0.12700
C 	C 	0.37140 0.14010 0.30521 0.39800
C 	C 	0.06260 0.42022 0.86097 -0.14900
C 	C 	0.41462 0.27351 0.54527 -0.14600
C 	C 	0.38789 0.11394 0.87809 0.05600
C 	C 	0.49970 0.43079 0.34079 0.06700
C 	C 	0.43800 0.19958 0.86385 0.05200
C 	C 	0.50820 0.19420 0.36434 0.37000
C 	C 	0.72760 0.88370 0.36430 -0.35800
C 	C 	0.69450 0.96180 0.88980 -0.65900
C 	C 	0.41716 0.83195 0.63629 -0.11800
C 	C 	0.91650 0.64731 0.90884 -0.06200
C 	C 	0.71173 0.09560 0.84377 -0.05400
C 	C 	0.35580 0.97107 0.19127 -0.01900
C 	C 	0.11211 0.11394 0.37809 0.05600
C 	C 	0.09740 0.36760 0.85723 0.40500
C 	C 	0.22760 0.11630 0.13570 -0.35800
C 	C 	0.62860 0.85990 0.69479 0.39800
C 	C 	0.62002 0.83125 0.12498 -0.12000
C 	C 	0.89225 0.64282 0.84219 -0.05900
C 	C 	0.90260 0.63240 0.14277 0.40500
C 	C 	0.57030 0.59492 0.33912 -0.03700
C 	C 	0.36325 0.28251 0.48348 -0.15900
C 	C 	0.27920 0.32178 0.68783 -0.14500
C 	C 	0.85020 0.66123 0.80801 0.10400
C 	C 	0.41800 0.90380 0.15408 -0.05300
C 	C 	0.38104 0.34264 0.72765 -0.14700
C 	C 	0.58200 0.09620 0.84592 -0.05300
C 	C 	0.61211 0.88606 0.12191 0.05600
C 	C 	0.63372 0.90300 0.72460 -0.13600
C 	C 	0.01191 0.87921 0.64118 0.09500
C 	C 	0.59640 0.94066 0.78462 -0.12700
C 	C 	0.13970 0.80216 0.15013 0.05000
C 	C 	0.29005 0.94905 0.18031 -0.04900
C 	C 	0.59347 0.11501 0.37259 0.05600
C 	C 	0.50400 0.17560 0.85575 -0.12600
C 	C 	0.59900 0.67288 0.44670 0.11000
C 	C 	0.67878 0.94647 0.71943 0.05400
C 	C 	0.45390 0.08996 0.86999 -0.13400
C 	C 	0.96790 0.48068 0.84411 -0.13100
C 	C 	0.23913 0.30866 0.71932 0.07300
C 	C 	0.04610 0.08996 0.36999 -0.13400
C 	C 	0.61436 0.66902 0.37705 0.11200
C 	C 	0.53940 0.57320 0.37091 -0.01500
C 	C 	0.62110 0.82250 0.37520 -0.26700
C 	C 	0.66080 0.73880 0.55311 0.40900
C 	C 	0.14980 0.33877 0.19199 0.10400
C 	C 	0.40737 0.45954 0.38447 0.06600
C 	C 	0.95390 0.91004 0.63001 -0.13400
C 	C 	0.72660 0.69870 0.71143 0.38600
C 	C 	0.00030 0.43079 0.84079 0.06800
C 	C 	0.30260 0.16430 0.61590 0.11900
C 	C 	0.40260 0.36760 0.35723 0.40500
C 	C 	0.48809 0.87921 0.14118 0.09500
C 	C 	0.19740 0.16430 0.11590 0.11900
C 	C 	0.49790 0.48000 0.63240 0.07300
C 	C 	0.70995 0.05095 0.81969 -0.04900
C 	C 	0.43740 0.42022 0.36097 -0.14900
C 	C 	0.84090 0.67049 0.74085 0.07200
C 	C 	0.34090 0.32951 0.75915 0.07200
C 	C 	0.26680 0.06350 0.61500 0.29200
C 	C 	0.69220 0.80180 0.11926 0.38500
C 	C 	0.40747 0.09990 0.24280 0.05500
C 	C 	0.26087 0.30866 0.21932 0.07300
C 	C 	0.40100 0.32712 0.55330 0.11000
C 	C 	0.15037 0.33612 0.99152 0.08000
C 	C 	0.90653 0.11501 0.87259 0.05600
C 	C 	0.37998 0.16875 0.87502 -0.12000
C 	C 	0.08350 0.35269 0.09116 -0.06200
C 	C 	0.88564 0.66902 0.87705 0.11200
C 	C 	0.64776 0.11823 0.85688 0.09900
C 	C 	0.63970 0.19784 0.34987 0.05000
C 	C 	0.83920 0.73880 0.05311 0.40900
C 	C 	0.88789 0.88606 0.62191 0.05600
C 	C 	0.53210 0.48068 0.34411 -0.13000
C 	C 	0.21779 0.87846 0.14621 0.09600
C 	C 	0.90747 0.90010 0.25720 0.05500
C 	C 	0.13372 0.09700 0.77540 -0.13600
C 	C 	0.28221 0.87846 0.64621 0.09600
C 	C 	0.11270 0.23000 0.14380 0.12200
O 	O 	0.24874 0.31344 0.32132 -0.43500
O 	O 	0.79656 0.71226 0.07164 -0.45300
O 	O 	0.25611 0.16812 0.89106 -0.43200
O 	O 	0.30542 0.24665 0.87419 -0.44700
O 	O 	0.16617 0.27826 0.78277 -0.43100
O 	O 	0.14130 0.27420 0.12284 -0.21800
O 	O 	0.15437 0.24357 0.85901 -0.66100
O 	O 	0.36421 0.21534 0.43610 -0.42800
O 	O 	0.06905 0.33334 0.83435 -0.43700
O 	O 	0.24389 0.16812 0.39106 -0.43200
O 	O 	0.84563 0.75643 0.14099 -0.66100
O 	O 	0.86421 0.78466 0.06390 -0.42800
O 	O 	0.80542 0.75335 0.62581 -0.44700
O 	O 	0.34950 0.83905 0.11286 -0.17600
O 	O 	0.83383 0.72174 0.21723 -0.43100
O 	O 	0.00043 0.23787 0.84835 -0.43300
O 	O 	0.84601 0.64131 0.12512 -0.44000
O 	O 	0.99957 0.76213 0.15165 -0.43300
O 	O 	0.65437 0.75643 0.64099 -0.66100
O 	O 	0.66617 0.72174 0.71723 -0.43100
O 	O 	0.20344 0.28774 0.92836 -0.45300
O 	O 	0.04017 0.16743 0.88120 -0.42600
O 	O 	0.74874 0.68656 0.17868 -0.43500
O 	O 	0.65399 0.64131 0.62512 -0.44000
O 	O 	0.74389 0.83188 0.10894 -0.43200
O 	O 	0.35870 0.27420 0.62284 -0.21800
O 	O 	0.75611 0.83188 0.60894 -0.43200
O 	O 	0.15399 0.35869 0.87488 -0.44000
O 	O 	0.19458 0.24665 0.37419 -0.44700
O 	O 	0.84950 0.16095 0.38714 -0.17600
O 	O 	0.63579 0.78466 0.56390 -0.42800
O 	O 	0.54017 0.83257 0.61880 -0.42700
O 	O 	0.64130 0.72580 0.37716 -0.21800
O 	O 	0.29656 0.28774 0.42836 -0.45300
O 	O 	0.70344 0.71226 0.57164 -0.45300
O 	O 	0.59309 0.81839 0.70343 -0.43800
O 	O 	0.45983 0.16743 0.38120 -0.42700
O 	O 	0.43095 0.33334 0.33435 -0.43700
O 	O 	0.15750 0.13303 0.83602 -0.43900
O 	O 	0.90691 0.81839 0.20343 -0.43800
O 	O 	0.85870 0.72580 0.87716 -0.21800
O 	O 	0.09309 0.18161 0.79657 -0.43800
O 	O 	0.50043 0.76213 0.65165 -0.43400
O 	O 	0.34250 0.13303 0.33602 -0.43900
O 	O 	0.34601 0.35869 0.37488 -0.44000
O 	O 	0.33383 0.27826 0.28277 -0.43100
O 	O 	0.15050 0.83905 0.61286 -0.17600
O 	O 	0.13579 0.21534 0.93610 -0.42800
O 	O 	0.56905 0.66666 0.66565 -0.43700
O 	O 	0.75126 0.68656 0.67868 -0.43500
O 	O 	0.49957 0.23787 0.34835 -0.43400
O 	O 	0.40691 0.18161 0.29657 -0.43800
O 	O 	0.93095 0.66666 0.16565 -0.43700
O 	O 	0.25126 0.31344 0.82132 -0.43500
O 	O 	0.69458 0.75335 0.12581 -0.44700
O 	O 	0.34563 0.24357 0.35901 -0.66100
O 	O 	0.95983 0.83257 0.11880 -0.42600
O 	O 	0.65050 0.16095 0.88714 -0.17600
O 	O 	0.84250 0.86697 0.16398 -0.43900
O 	O 	0.65750 0.86697 0.66398 -0.43900
