data_crystal

_cell_length_a 18.37500
_cell_length_b 24.68800
_cell_length_c 35.25700
_cell_angle_alpha 90.34500
_cell_angle_beta  90.00000
_cell_angle_gamma 90.00000

_symmetry_space_group_name_	'P 1'
_symmetry_space_group_name_H-M	'P 1'

loop_
_symmetry_equiv_pos_as_xyz
  x,y,z

loop_
_atom_site_label
_atom_site_type_symbol
_atom_site_fract_x
_atom_site_fract_y
_atom_site_fract_z
_atom_site_charge
Fe	Fe	0.34049 0.82819 0.89128 1.22300
Fe	Fe	0.76592 0.29304 0.62137 1.22900
Fe	Fe	0.90455 0.25434 0.67461 1.22600
Fe	Fe	0.40455 0.74566 0.82539 1.22600
Fe	Fe	0.84049 0.17181 0.60872 1.22300
Fe	Fe	0.23408 0.70696 0.37863 1.22900
Fe	Fe	0.59545 0.25434 0.17461 1.22600
Fe	Fe	0.73408 0.29304 0.12137 1.22900
Fe	Fe	0.15951 0.82819 0.39128 1.22300
Fe	Fe	0.09545 0.74566 0.32539 1.22600
Fe	Fe	0.65951 0.17181 0.10872 1.22300
Fe	Fe	0.26592 0.70696 0.87863 1.22900
H 	H 	0.28960 0.95490 0.80950 0.01600
H 	H 	0.56500 0.35610 0.76720 0.07900
H 	H 	0.41140 0.92780 0.69450 0.08700
H 	H 	0.43630 0.75070 0.06780 0.09000
H 	H 	0.78160 0.97990 0.73890 0.09400
H 	H 	0.32310 0.64500 0.97450 0.01700
H 	H 	0.08100 0.86300 0.24270 0.01500
H 	H 	0.78410 0.00460 0.29680 0.22700
H 	H 	0.53680 0.04470 0.63530 0.07500
H 	H 	0.57180 0.51470 0.83630 0.08900
H 	H 	0.59120 0.53730 0.09650 0.10800
H 	H 	0.71840 0.97990 0.23890 0.09400
H 	H 	0.07180 0.48530 0.66370 0.08900
H 	H 	0.58100 0.13700 0.25730 0.01500
H 	H 	0.44800 0.76580 0.36770 0.02300
H 	H 	0.45360 0.02990 0.68880 0.03500
H 	H 	0.10140 0.78980 0.51120 0.01500
H 	H 	0.76350 0.31630 0.33290 0.07600
H 	H 	0.93500 0.35610 0.26720 0.07900
H 	H 	0.06500 0.64390 0.73280 0.07900
H 	H 	0.41900 0.86300 0.74270 0.01500
H 	H 	0.13170 0.66440 0.78640 0.01800
H 	H 	0.60140 0.21020 0.98880 0.01500
H 	H 	0.55860 0.80830 0.35300 0.07400
H 	H 	0.08860 0.92780 0.19450 0.08700
H 	H 	0.87590 0.76830 0.34950 0.01800
H 	H 	0.51420 0.59880 0.83100 0.01300
H 	H 	0.44080 0.57520 0.18370 0.03100
H 	H 	0.21590 0.99540 0.70320 0.22700
H 	H 	0.82310 0.35500 0.52550 0.01700
H 	H 	0.65600 0.95300 0.87550 0.09600
H 	H 	0.58860 0.07220 0.30550 0.08700
H 	H 	0.80360 0.29340 0.77880 0.02100
H 	H 	0.91900 0.13700 0.75730 0.01500
H 	H 	0.71590 0.00460 0.79680 0.22700
H 	H 	0.89860 0.21020 0.48880 0.01500
H 	H 	0.17690 0.64500 0.47450 0.01700
H 	H 	0.85330 0.08690 0.11920 0.02100
H 	H 	0.48580 0.40120 0.16900 0.01300
H 	H 	0.94080 0.42480 0.31630 0.03100
H 	H 	0.94140 0.80830 0.85300 0.07400
H 	H 	0.46320 0.95530 0.36470 0.07500
H 	H 	0.06370 0.75070 0.56780 0.09000
H 	H 	0.63170 0.33560 0.71360 0.01800
H 	H 	0.73650 0.31630 0.83290 0.07600
H 	H 	0.98580 0.59880 0.33100 0.01300
H 	H 	0.90880 0.53730 0.59650 0.10800
H 	H 	0.14100 0.70100 0.62440 0.03300
H 	H 	0.36830 0.66440 0.28640 0.01800
H 	H 	0.52680 0.45030 0.94380 0.22200
H 	H 	0.15600 0.04700 0.62450 0.09600
H 	H 	0.47320 0.54970 0.05620 0.22200
H 	H 	0.97320 0.45030 0.44380 0.22200
H 	H 	0.35900 0.70100 0.12440 0.03300
H 	H 	0.62410 0.76830 0.84950 0.01800
H 	H 	0.69640 0.29340 0.27880 0.02100
H 	H 	0.64670 0.08690 0.61920 0.02100
H 	H 	0.96320 0.04470 0.13530 0.07500
H 	H 	0.40880 0.46270 0.90350 0.10800
H 	H 	0.03680 0.95530 0.86470 0.07500
H 	H 	0.84400 0.95300 0.37550 0.09600
H 	H 	0.86830 0.33560 0.21360 0.01800
H 	H 	0.56370 0.24930 0.93220 0.09000
H 	H 	0.28160 0.02010 0.76110 0.09400
H 	H 	0.13930 0.60580 0.53140 0.08900
H 	H 	0.12410 0.23170 0.65050 0.01800
H 	H 	0.02680 0.54970 0.55620 0.22200
H 	H 	0.04640 0.02990 0.18880 0.03500
H 	H 	0.26350 0.68370 0.16710 0.07600
H 	H 	0.39860 0.78980 0.01120 0.01500
H 	H 	0.91140 0.07220 0.80550 0.08700
H 	H 	0.37590 0.23170 0.15050 0.01800
H 	H 	0.63930 0.39420 0.96860 0.08900
H 	H 	0.04370 0.08880 0.61230 0.01700
H 	H 	0.14670 0.91310 0.88080 0.02100
H 	H 	0.86070 0.39420 0.46860 0.08900
H 	H 	0.71040 0.04510 0.19050 0.01600
H 	H 	0.05200 0.76580 0.86770 0.02300
H 	H 	0.23650 0.68370 0.66710 0.07600
H 	H 	0.64100 0.29900 0.87560 0.03300
H 	H 	0.01420 0.40120 0.66900 0.01300
H 	H 	0.34400 0.04700 0.12450 0.09600
H 	H 	0.15860 0.14030 0.12690 0.03500
H 	H 	0.35220 0.54680 0.89910 0.01100
H 	H 	0.09120 0.46270 0.40350 0.10800
H 	H 	0.35330 0.91310 0.38080 0.02100
H 	H 	0.55920 0.42480 0.81630 0.03100
H 	H 	0.23670 0.19040 0.66140 0.08500
H 	H 	0.45630 0.08880 0.11230 0.01700
H 	H 	0.44140 0.19170 0.64700 0.07400
H 	H 	0.84140 0.85970 0.87310 0.03500
H 	H 	0.36070 0.60580 0.03140 0.08900
H 	H 	0.67690 0.35500 0.02550 0.01700
H 	H 	0.55200 0.23420 0.63230 0.02300
H 	H 	0.05920 0.57520 0.68370 0.03100
H 	H 	0.42820 0.48530 0.16370 0.08900
H 	H 	0.64780 0.45320 0.10090 0.01100
H 	H 	0.85220 0.45320 0.60090 0.01100
H 	H 	0.05860 0.19170 0.14700 0.07400
H 	H 	0.78960 0.04510 0.69050 0.01600
H 	H 	0.34140 0.14030 0.62690 0.03500
H 	H 	0.94800 0.23420 0.13230 0.02300
H 	H 	0.73670 0.80960 0.83860 0.08500
H 	H 	0.93630 0.24930 0.43220 0.09000
H 	H 	0.76330 0.80960 0.33860 0.08500
H 	H 	0.21840 0.02010 0.26110 0.09400
H 	H 	0.19640 0.70660 0.22120 0.02100
H 	H 	0.30360 0.70660 0.72120 0.02100
H 	H 	0.14780 0.54680 0.39910 0.01100
H 	H 	0.65860 0.85970 0.37310 0.03500
H 	H 	0.43500 0.64390 0.23280 0.07900
H 	H 	0.28410 0.99540 0.20320 0.22700
H 	H 	0.26330 0.19040 0.16140 0.08500
H 	H 	0.54640 0.97010 0.31120 0.03500
H 	H 	0.95630 0.91120 0.38770 0.01700
H 	H 	0.95360 0.97010 0.81120 0.03500
H 	H 	0.92820 0.51470 0.33630 0.08900
H 	H 	0.85900 0.29900 0.37560 0.03300
H 	H 	0.21040 0.95490 0.30950 0.01600
H 	H 	0.54370 0.91120 0.88770 0.01700
C 	C 	0.88628 0.34391 0.26983 -0.14000
C 	C 	0.89080 0.24777 0.48476 0.09000
C 	C 	0.22329 0.08919 0.15677 -0.09700
C 	C 	0.13674 0.86188 0.31135 0.41500
C 	C 	0.71492 0.32011 0.80857 -0.13400
C 	C 	0.19724 0.16956 0.65180 -0.15400
C 	C 	0.15401 0.66652 0.49344 0.08300
C 	C 	0.83028 0.25330 0.54818 0.40200
C 	C 	0.51691 0.82969 0.35852 -0.12800
C 	C 	0.63151 0.35665 0.97269 -0.15600
C 	C 	0.39500 0.89186 0.37505 0.06500
C 	C 	0.54220 0.39900 0.90571 0.19400
C 	C 	0.27671 0.08919 0.65677 -0.09700
C 	C 	0.90872 0.95501 0.81933 -0.00300
C 	C 	0.65810 0.88950 0.35610 -0.01000
C 	C 	0.50451 0.51912 0.12920 0.13700
C 	C 	0.39080 0.75223 0.01524 0.08900
C 	C 	0.60500 0.10814 0.62495 0.06500
C 	C 	0.81457 0.05063 0.71375 0.08700
C 	C 	0.85739 0.27831 0.51245 -0.15300
C 	C 	0.46690 0.57292 0.12830 -0.11200
C 	C 	0.26650 0.70073 0.79333 0.39100
C 	C 	0.88643 0.33159 0.37460 -0.00300
C 	C 	0.49264 0.57121 0.84592 0.09200
C 	C 	0.61357 0.33159 0.87460 -0.00300
C 	C 	0.53935 0.08307 0.63435 -0.13100
C 	C 	0.39485 0.64181 0.16002 -0.04400
C 	C 	0.41721 0.10939 0.12257 0.08400
C 	C 	0.76650 0.29927 0.70667 0.39100
C 	C 	0.34680 0.66869 0.26206 0.07300
C 	C 	0.60874 0.10498 0.25346 0.08400
C 	C 	0.22245 0.04575 0.18191 0.19900
C 	C 	0.56480 0.40612 0.83955 0.00000
C 	C 	0.65439 0.01981 0.27654 0.12300
C 	C 	0.85029 0.91547 0.37023 -0.14900
C 	C 	0.34190 0.11050 0.64390 -0.01000
C 	C 	0.35650 0.66077 0.19413 0.08600
C 	C 	0.36928 0.19424 0.14513 0.07600
C 	C 	0.14971 0.08453 0.62977 -0.14900
C 	C 	0.39198 0.63581 0.86258 0.41800
C 	C 	0.15717 0.02345 0.19381 -0.11600
C 	C 	0.00451 0.48088 0.37080 0.13700
C 	C 	0.80972 0.01174 0.74270 -0.16800
C 	C 	0.15439 0.98019 0.22346 0.12300
C 	C 	0.40832 0.08876 0.65555 -0.03600
C 	C 	0.39114 0.83578 0.37597 -0.14400
C 	C 	0.01691 0.17031 0.14148 -0.12800
C 	C 	0.57277 0.41871 0.13560 -0.16400
C 	C 	0.07277 0.58129 0.36440 -0.16300
C 	C 	0.39126 0.89502 0.74654 0.08400
C 	C 	0.89500 0.10814 0.12495 0.06500
C 	C 	0.15810 0.11050 0.14390 -0.01000
C 	C 	0.43520 0.59388 0.16045 0.00000
C 	C 	0.90832 0.91124 0.84445 -0.03600
C 	C 	0.65717 0.97655 0.30619 -0.11600
C 	C 	0.66972 0.25330 0.04818 0.40200
C 	C 	0.45780 0.60100 0.09429 0.19400
C 	C 	0.02214 0.11369 0.14237 0.07900
C 	C 	0.40180 0.67397 0.05499 0.13400
C 	C 	0.34283 0.02345 0.69381 -0.11600
C 	C 	0.08279 0.10939 0.62257 0.08400
C 	C 	0.04874 0.80420 0.86745 0.06400
C 	C 	0.89485 0.35819 0.33998 -0.04300
C 	C 	0.57354 0.83676 0.86965 -0.14800
C 	C 	0.10886 0.83578 0.87597 -0.14400
C 	C 	0.86326 0.13812 0.68865 0.41500
C 	C 	0.45126 0.80420 0.36745 0.06400
C 	C 	0.14450 0.90333 0.28084 -0.15800
C 	C 	0.59820 0.32603 0.94501 0.13400
C 	C 	0.93520 0.40612 0.33955 0.00000
C 	C 	0.06480 0.59388 0.66045 0.00000
C 	C 	0.52701 0.52116 0.84904 -0.17100
C 	C 	0.10920 0.75223 0.51524 0.09000
C 	C 	0.60333 0.45950 0.11391 0.09700
C 	C 	0.65401 0.33348 0.00656 0.08300
C 	C 	0.60802 0.36419 0.13742 0.41800
C 	C 	0.64350 0.33923 0.80587 0.08600
C 	C 	0.28508 0.67989 0.19143 -0.13400
C 	C 	0.29310 0.11450 0.14454 0.13200
C 	C 	0.54874 0.19580 0.63255 0.06400
C 	C 	0.69028 0.01174 0.24270 -0.16800
C 	C 	0.88665 0.06655 0.78220 -0.16200
C 	C 	0.35029 0.08453 0.12977 -0.15000
C 	C 	0.48309 0.17031 0.64148 -0.12800
C 	C 	0.56934 0.50948 0.11109 -0.17800
C 	C 	0.99928 0.18940 0.62859 0.40800
C 	C 	0.72329 0.91081 0.34323 -0.09700
C 	C 	0.84283 0.97655 0.80619 -0.11600
C 	C 	0.64971 0.91547 0.87023 -0.15000
C 	C 	0.77755 0.95425 0.81809 0.19900
C 	C 	0.19028 0.98826 0.25730 -0.16800
C 	C 	0.59168 0.91124 0.34445 -0.03600
C 	C 	0.30276 0.16956 0.15180 -0.15400
C 	C 	0.61372 0.34391 0.76983 -0.14000
C 	C 	0.49549 0.48088 0.87080 0.13700
C 	C 	0.89114 0.16422 0.12403 -0.14400
C 	C 	0.00736 0.57121 0.34592 0.09100
C 	C 	0.93066 0.50948 0.61109 -0.17800
C 	C 	0.25519 0.69345 0.72356 0.06600
C 	C 	0.42723 0.58129 0.86440 -0.16400
C 	C 	0.91322 0.27089 0.45109 -0.16300
C 	C 	0.47299 0.47884 0.15096 -0.17100
C 	C 	0.70690 0.88550 0.85546 0.13200
C 	C 	0.41748 0.64792 0.09275 -0.10500
C 	C 	0.72380 0.31242 0.74073 -0.14600
C 	C 	0.58279 0.89061 0.87743 0.08400
C 	C 	0.97786 0.88631 0.85763 0.07900
C 	C 	0.85550 0.09667 0.71916 -0.15800
C 	C 	0.35550 0.90333 0.78084 -0.15800
C 	C 	0.63674 0.13812 0.18865 0.41500
C 	C 	0.64261 0.27831 0.01245 -0.15300
C 	C 	0.11357 0.66841 0.62540 -0.00300
C 	C 	0.79310 0.88550 0.35546 0.13200
C 	C 	0.24481 0.69345 0.22356 0.06600
C 	C 	0.09820 0.67397 0.55499 0.13400
C 	C 	0.60515 0.35819 0.83998 -0.04400
C 	C 	0.38643 0.66841 0.12540 -0.00300
C 	C 	0.18543 0.94937 0.28625 0.08700
C 	C 	0.58678 0.27089 0.95109 -0.16300
C 	C 	0.67900 0.19136 0.61517 0.40900
C 	C 	0.86928 0.80576 0.35487 0.07600
C 	C 	0.96065 0.08307 0.13435 -0.13100
C 	C 	0.03935 0.91693 0.86565 -0.13100
C 	C 	0.17900 0.80864 0.88483 0.40900
C 	C 	0.85650 0.33923 0.30587 0.08600
C 	C 	0.91721 0.89061 0.37743 0.08400
C 	C 	0.13072 0.19424 0.64513 0.07600
C 	C 	0.10802 0.63581 0.36258 0.41800
C 	C 	0.33028 0.74670 0.95182 0.40200
C 	C 	0.75519 0.30655 0.77644 0.06600
C 	C 	0.42646 0.16324 0.13035 -0.14800
C 	C 	0.08252 0.64792 0.59275 -0.10500
C 	C 	0.69724 0.83044 0.84820 -0.15400
C 	C 	0.91748 0.35208 0.40725 -0.10500
C 	C 	0.31457 0.94937 0.78625 0.08700
C 	C 	0.38628 0.65609 0.23017 -0.14000
C 	C 	0.27620 0.68758 0.25927 -0.14600
C 	C 	0.72245 0.95425 0.31809 0.19900
C 	C 	0.15320 0.66869 0.76206 0.07300
C 	C 	0.64450 0.09667 0.21916 -0.15800
C 	C 	0.46065 0.91693 0.36565 -0.13100
C 	C 	0.74481 0.30655 0.27644 0.06600
C 	C 	0.14350 0.66077 0.69413 0.08600
C 	C 	0.32100 0.80864 0.38483 0.40900
C 	C 	0.10500 0.89186 0.87505 0.06500
C 	C 	0.78508 0.32011 0.30857 -0.13400
C 	C 	0.49928 0.81060 0.87141 0.40800
C 	C 	0.11372 0.65609 0.73017 -0.14000
C 	C 	0.27755 0.04575 0.68191 0.19900
C 	C 	0.23350 0.70073 0.29333 0.39100
C 	C 	0.96690 0.42708 0.37170 -0.11200
C 	C 	0.84680 0.33131 0.23794 0.07300
C 	C 	0.16972 0.74670 0.45182 0.40200
C 	C 	0.82100 0.19136 0.11517 0.40900
C 	C 	0.02701 0.47884 0.65096 -0.17100
C 	C 	0.89126 0.10498 0.75346 0.08400
C 	C 	0.84190 0.88950 0.85610 -0.01000
C 	C 	0.03310 0.57292 0.62830 -0.11200
C 	C 	0.36326 0.86188 0.81135 0.41500
C 	C 	0.89667 0.45950 0.61391 0.09600
C 	C 	0.63072 0.80576 0.85487 0.07600
C 	C 	0.77671 0.91081 0.84323 -0.09700
C 	C 	0.50072 0.18940 0.12859 0.40800
C 	C 	0.36849 0.64335 0.02731 -0.15600
C 	C 	0.92723 0.41871 0.63560 -0.16300
C 	C 	0.86849 0.35665 0.47269 -0.15600
C 	C 	0.30972 0.98826 0.75730 -0.16800
C 	C 	0.21492 0.67989 0.69143 -0.13400
C 	C 	0.35739 0.72169 0.98755 -0.15300
C 	C 	0.59128 0.95501 0.31933 -0.00300
C 	C 	0.90180 0.32603 0.44501 0.13400
C 	C 	0.20690 0.11450 0.64454 0.13200
C 	C 	0.47786 0.11369 0.64237 0.07900
C 	C 	0.09168 0.08876 0.15555 -0.03600
C 	C 	0.97299 0.52116 0.34904 -0.17100
C 	C 	0.80276 0.83044 0.34820 -0.15400
C 	C 	0.95126 0.19580 0.13255 0.06400
C 	C 	0.22380 0.68758 0.75927 -0.14600
C 	C 	0.73350 0.29927 0.20667 0.39100
C 	C 	0.09128 0.04499 0.18067 -0.00300
C 	C 	0.04220 0.60100 0.59429 0.19400
C 	C 	0.08678 0.72911 0.54891 -0.16300
C 	C 	0.58252 0.35208 0.90725 -0.10500
C 	C 	0.99264 0.42879 0.65408 0.09100
C 	C 	0.14261 0.72169 0.48755 -0.15300
C 	C 	0.84599 0.33348 0.50656 0.08300
C 	C 	0.00072 0.81060 0.37141 0.40800
C 	C 	0.07354 0.16324 0.63035 -0.14800
C 	C 	0.60920 0.24777 0.98476 0.08900
C 	C 	0.38665 0.93345 0.71780 -0.16200
C 	C 	0.61335 0.06655 0.28220 -0.16200
C 	C 	0.68543 0.05063 0.21375 0.08700
C 	C 	0.10515 0.64181 0.66002 -0.04300
C 	C 	0.53310 0.42708 0.87170 -0.11200
C 	C 	0.60886 0.16422 0.62403 -0.14400
C 	C 	0.89198 0.36419 0.63742 0.41800
C 	C 	0.98309 0.82969 0.85852 -0.12800
C 	C 	0.84561 0.01981 0.77654 0.12300
C 	C 	0.92646 0.83676 0.36965 -0.14800
C 	C 	0.65320 0.33131 0.73794 0.07300
C 	C 	0.10333 0.54050 0.38609 0.09600
C 	C 	0.10874 0.89502 0.24654 0.08400
C 	C 	0.52214 0.88631 0.35763 0.07900
C 	C 	0.34599 0.66652 0.99344 0.08300
C 	C 	0.41322 0.72911 0.04891 -0.16300
C 	C 	0.13151 0.64335 0.52731 -0.15600
C 	C 	0.95780 0.39900 0.40571 0.19400
C 	C 	0.99549 0.51912 0.62920 0.13700
C 	C 	0.77620 0.31242 0.24073 -0.14600
C 	C 	0.39667 0.54050 0.88609 0.09700
C 	C 	0.06934 0.49052 0.38891 -0.17800
C 	C 	0.40872 0.04499 0.68067 -0.00300
C 	C 	0.50736 0.42879 0.15408 0.09200
C 	C 	0.11335 0.93345 0.21780 -0.16200
C 	C 	0.43066 0.49052 0.88891 -0.17800
C 	C 	0.34561 0.98019 0.72346 0.12300
O 	O 	0.83592 0.23818 0.63471 -0.64900
O 	O 	0.45084 0.83851 0.88790 -0.43300
O 	O 	0.09803 0.82153 0.30484 -0.45200
O 	O 	0.16408 0.76182 0.36529 -0.64900
O 	O 	0.99210 0.42032 0.43813 -0.38100
O 	O 	0.50790 0.42032 0.93813 -0.38100
O 	O 	0.31835 0.75825 0.37783 -0.43900
O 	O 	0.81835 0.24175 0.12217 -0.43900
O 	O 	0.50943 0.23457 0.14293 -0.44900
O 	O 	0.33592 0.76182 0.86529 -0.64900
O 	O 	0.25857 0.68748 0.32542 -0.44200
O 	O 	0.95084 0.16149 0.61210 -0.43300
O 	O 	0.85522 0.20848 0.55783 -0.43600
O 	O 	0.42070 0.66796 0.83869 -0.44500
O 	O 	0.26830 0.83611 0.39602 -0.44700
O 	O 	0.68165 0.24175 0.62217 -0.43900
O 	O 	0.66880 0.12819 0.15795 -0.43200
O 	O 	0.00943 0.76543 0.35707 -0.44900
O 	O 	0.28932 0.02642 0.19393 -0.38600
O 	O 	0.23170 0.83611 0.89602 -0.44700
O 	O 	0.54916 0.16149 0.11210 -0.43300
O 	O 	0.16316 0.64471 0.38150 -0.45100
O 	O 	0.66408 0.23818 0.13471 -0.64900
O 	O 	0.76830 0.16389 0.10398 -0.44700
O 	O 	0.73170 0.16389 0.60398 -0.44700
O 	O 	0.49057 0.76543 0.85707 -0.44900
O 	O 	0.04916 0.83851 0.38790 -0.43300
O 	O 	0.40197 0.82153 0.80484 -0.45200
O 	O 	0.33684 0.64471 0.88150 -0.45100
O 	O 	0.35522 0.79152 0.94217 -0.43600
O 	O 	0.49210 0.57968 0.06187 -0.38100
O 	O 	0.14478 0.79152 0.44217 -0.43600
O 	O 	0.83120 0.12819 0.65795 -0.43200
O 	O 	0.99057 0.23457 0.64293 -0.44900
O 	O 	0.71668 0.28094 0.06651 -0.44500
O 	O 	0.33120 0.87181 0.84205 -0.43200
O 	O 	0.82753 0.27493 0.71169 -0.43500
O 	O 	0.16880 0.87181 0.34205 -0.43200
O 	O 	0.00790 0.57968 0.56187 -0.38100
O 	O 	0.67247 0.27493 0.21169 -0.43500
O 	O 	0.59803 0.17847 0.19516 -0.45200
O 	O 	0.74143 0.31252 0.67458 -0.44200
O 	O 	0.83684 0.35529 0.61850 -0.45100
O 	O 	0.92070 0.33204 0.66131 -0.44500
O 	O 	0.24143 0.68748 0.82542 -0.44200
O 	O 	0.71068 0.97358 0.80607 -0.38600
O 	O 	0.75857 0.31252 0.17458 -0.44200
O 	O 	0.78332 0.28094 0.56651 -0.44500
O 	O 	0.18165 0.75825 0.87783 -0.43900
O 	O 	0.21668 0.71906 0.43349 -0.44500
O 	O 	0.78932 0.97358 0.30607 -0.38600
O 	O 	0.28332 0.71906 0.93349 -0.44500
O 	O 	0.66316 0.35529 0.11850 -0.45100
O 	O 	0.21068 0.02642 0.69393 -0.38600
O 	O 	0.90197 0.17847 0.69516 -0.45200
O 	O 	0.57930 0.33204 0.16131 -0.44500
O 	O 	0.07930 0.66796 0.33869 -0.44500
O 	O 	0.32753 0.72507 0.78831 -0.43500
O 	O 	0.17247 0.72507 0.28831 -0.43500
O 	O 	0.64478 0.20848 0.05783 -0.43600
