data_crystal

_cell_length_a 16.69700
_cell_length_b 13.84800
_cell_length_c 10.87300
_cell_angle_alpha 90.00000
_cell_angle_beta  101.62000
_cell_angle_gamma 90.00000

_symmetry_space_group_name_	'P 1'
_symmetry_space_group_name_H-M	'P 1'

loop_
_symmetry_equiv_pos_as_xyz
  x,y,z

loop_
_atom_site_label
_atom_site_type_symbol
_atom_site_fract_x
_atom_site_fract_y
_atom_site_fract_z
_atom_site_charge
Fe	Fe	0.93480 0.63060 0.85780 0.80000
O 	O 	0.87150 0.41380 0.97180 -0.34100
O 	O 	0.83630 0.54030 0.83600 -0.35400
O 	O 	0.71140 0.35110 0.92160 -0.13700
O 	O 	0.62400 0.21430 0.02030 -0.37000
O 	O 	0.51750 0.24110 0.85840 -0.37900
O 	O 	0.99150 0.40650 0.80950 -0.36200
O 	O 	0.98130 0.56000 0.72600 -0.32900
O 	O 	0.86450 0.71150 0.71580 -0.20400
C 	C 	0.82350 0.46120 0.89530 0.31600
C 	C 	0.73460 0.42920 0.85710 0.06100
C 	C 	0.67760 0.45700 0.76540 -0.04800
H 	H 	0.68090 0.50680 0.70660 0.07900
C 	C 	0.60640 0.39580 0.77050 -0.02800
H 	H 	0.55360 0.39910 0.71820 0.07400
C 	C 	0.63280 0.33370 0.86640 0.04800
C 	C 	0.58620 0.25500 0.91810 0.37400
C 	C 	0.98660 0.46730 0.72230 0.30100
C 	C 	0.99930 0.42750 0.59750 0.08100
C 	C 	0.99850 0.32640 0.56740 -0.03300
H 	H 	0.99640 0.27280 0.62110 0.07800
Co	Co	0.93420 0.63370 0.87660 0.34700
Fe	Fe	0.43480 0.13060 0.85780 0.79900
O 	O 	0.37150 0.91380 0.97180 -0.33700
O 	O 	0.33630 0.04030 0.83600 -0.31000
O 	O 	0.21140 0.85110 0.92160 -0.14900
O 	O 	0.12400 0.71430 0.02030 -0.38200
O 	O 	0.01750 0.74110 0.85840 -0.38900
O 	O 	0.49150 0.90650 0.80950 -0.36400
O 	O 	0.48130 0.06000 0.72600 -0.28900
O 	O 	0.36450 0.21150 0.71580 -0.19900
C 	C 	0.32350 0.96120 0.89530 0.24700
C 	C 	0.23460 0.92920 0.85710 0.11300
C 	C 	0.17760 0.95700 0.76540 -0.17400
H 	H 	0.18090 0.00680 0.70660 0.15100
C 	C 	0.10640 0.89580 0.77050 0.02100
H 	H 	0.05360 0.89910 0.71820 0.04600
C 	C 	0.13280 0.83370 0.86640 0.02500
C 	C 	0.08620 0.75500 0.91810 0.38300
C 	C 	0.48660 0.96730 0.72230 0.24700
C 	C 	0.49930 0.92750 0.59750 0.08200
C 	C 	0.49850 0.82640 0.56740 -0.05100
H 	H 	0.49640 0.77280 0.62110 0.07500
Co	Co	0.43420 0.13370 0.87660 0.34700
Fe	Fe	0.06520 0.63060 0.14220 0.79400
O 	O 	0.12850 0.41380 0.02820 -0.37600
O 	O 	0.16370 0.54030 0.16400 -0.36200
O 	O 	0.28860 0.35110 0.07840 -0.16200
O 	O 	0.37600 0.21430 0.97970 -0.29900
O 	O 	0.48250 0.24110 0.14160 -0.36900
O 	O 	0.00850 0.40650 0.19050 -0.38900
O 	O 	0.01870 0.56000 0.27400 -0.34300
O 	O 	0.13550 0.71150 0.28420 -0.21400
C 	C 	0.17650 0.46120 0.10470 0.31600
C 	C 	0.26540 0.42920 0.14290 0.05300
C 	C 	0.32240 0.45700 0.23460 -0.04400
H 	H 	0.31910 0.50680 0.29340 0.07500
C 	C 	0.39360 0.39580 0.22950 -0.04600
H 	H 	0.44640 0.39910 0.28180 0.07600
C 	C 	0.36720 0.33370 0.13360 0.06500
C 	C 	0.41380 0.25500 0.08190 0.28600
C 	C 	0.01340 0.46730 0.27770 0.30300
C 	C 	0.00070 0.42750 0.40250 0.07000
C 	C 	0.00150 0.32640 0.43260 -0.05400
H 	H 	0.00360 0.27280 0.37890 0.07500
Co	Co	0.06580 0.63370 0.12340 0.34100
Fe	Fe	0.56520 0.13060 0.14220 0.79400
O 	O 	0.62850 0.91380 0.02820 -0.36700
O 	O 	0.66370 0.04030 0.16400 -0.31000
O 	O 	0.78860 0.85110 0.07840 -0.17500
O 	O 	0.87600 0.71430 0.97970 -0.30100
O 	O 	0.98250 0.74110 0.14160 -0.36700
O 	O 	0.50850 0.90650 0.19050 -0.38500
O 	O 	0.51870 0.06000 0.27400 -0.29400
O 	O 	0.63550 0.21150 0.28420 -0.20300
C 	C 	0.67650 0.96120 0.10470 0.24000
C 	C 	0.76540 0.92920 0.14290 0.11000
C 	C 	0.82240 0.95700 0.23460 -0.17900
H 	H 	0.81910 0.00680 0.29340 0.15500
C 	C 	0.89360 0.89580 0.22950 0.00700
H 	H 	0.94640 0.89910 0.28180 0.05100
C 	C 	0.86720 0.83370 0.13360 0.04500
C 	C 	0.91380 0.75500 0.08190 0.28800
C 	C 	0.51340 0.96730 0.27770 0.24500
C 	C 	0.50070 0.92750 0.40250 0.07800
C 	C 	0.50150 0.82640 0.43260 -0.04900
H 	H 	0.50360 0.77280 0.37890 0.06900
Co	Co	0.56580 0.13370 0.12340 0.34300
O 	O 	0.00000 0.48290 0.50000 -0.17000
O 	O 	0.50000 0.98290 0.50000 -0.18600
O 	O 	-0.00000 0.56810 -0.00000 -0.63600
Fe	Fe	-0.00000 0.41950 -0.00000 0.76000
Co	Co	-0.00000 0.43230 -0.00000 0.31800
O 	O 	0.50000 0.06810 -0.00000 -0.60900
Fe	Fe	0.50000 0.91950 -0.00000 0.75200
Co	Co	0.50000 0.93230 -0.00000 0.31400
