data_crystal

_cell_length_a 15.39200
_cell_length_b 15.39200
_cell_length_c 12.42500
_cell_angle_alpha 90.00000
_cell_angle_beta  90.00000
_cell_angle_gamma 120.00000

_symmetry_space_group_name_	'P 1'
_symmetry_space_group_name_H-M	'P 1'

loop_
_symmetry_equiv_pos_as_xyz
  x,y,z

loop_
_atom_site_label
_atom_site_type_symbol
_atom_site_fract_x
_atom_site_fract_y
_atom_site_fract_z
_atom_site_charge
O 	O 	0.23270 0.47560 0.63530 -0.43500
O 	O 	0.14280 0.55250 0.63680 -0.41000
C 	C 	0.15840 0.48270 0.60980 0.32100
C 	C 	0.07579 0.39310 0.55250 -0.07200
C 	C 	0.07580 0.30280 0.55260 -0.05300
H 	H 	0.12810 0.29780 0.58910 0.07200
Br	Br	0.10580 0.19700 0.31510 -0.17500
H 	H 	0.97700 0.43920 0.53850 0.61200
C 	C 	0.09380 0.41220 0.52210 0.89000
C 	C 	0.12720 0.35650 0.46550 -0.63900
H 	H 	0.19180 0.36430 0.48140 0.25200
C 	C 	0.06680 0.28910 0.38680 0.48100
C 	C 	0.93960 0.33310 0.42130 0.87500
C 	C 	0.97300 0.27740 0.36470 -0.72800
H 	H 	0.93140 0.23080 0.31030 0.26400
O 	O 	0.52440 0.75710 0.63530 -0.45100
O 	O 	0.44750 0.59030 0.63680 -0.43400
C 	C 	0.51730 0.67570 0.60980 0.40200
C 	C 	0.60690 0.68269 0.55250 -0.06300
C 	C 	0.69720 0.77300 0.55260 0.02500
H 	H 	0.70220 0.83030 0.58910 0.04400
Br	Br	0.80300 0.90880 0.31510 -0.16800
H 	H 	0.56080 0.53780 0.53850 -0.31600
C 	C 	0.58780 0.68160 0.52210 0.16500
C 	C 	0.64350 0.77070 0.46550 -0.19300
H 	H 	0.63570 0.82750 0.48140 0.11300
C 	C 	0.71090 0.77770 0.38680 0.16700
C 	C 	0.66690 0.60650 0.42130 0.09000
C 	C 	0.72260 0.69560 0.36470 -0.16700
H 	H 	0.76920 0.70060 0.31030 0.10200
O 	O 	0.24290 0.76730 0.63530 -0.43000
O 	O 	0.40970 0.85720 0.63680 -0.45000
C 	C 	0.32430 0.84160 0.60980 0.34400
C 	C 	0.31731 0.92421 0.55250 -0.01400
C 	C 	0.22700 0.92420 0.55260 -0.03000
H 	H 	0.16970 0.87190 0.58910 0.06700
Br	Br	0.09120 0.89420 0.31510 -0.11200
H 	H 	0.46220 0.02300 0.53850 0.42400
C 	C 	0.31840 0.90620 0.52210 -0.30000
C 	C 	0.22930 0.87280 0.46550 0.09100
H 	H 	0.17250 0.80820 0.48140 0.03300
C 	C 	0.22230 0.93320 0.38680 -0.05300
C 	C 	0.39350 0.06040 0.42130 -0.22700
C 	C 	0.30440 0.02700 0.36470 0.12700
H 	H 	0.29940 0.06860 0.31030 0.02700
O 	O 	0.23270 0.47560 0.86470 -0.42100
O 	O 	0.14280 0.55250 0.86320 -0.41700
C 	C 	0.15840 0.48270 0.89020 0.32500
C 	C 	0.07579 0.39310 0.94750 -0.00800
C 	C 	0.07580 0.30280 0.94740 -0.08000
H 	H 	0.12810 0.29780 0.91090 0.08100
Br	Br	0.10580 0.19700 0.18490 -0.09400
H 	H 	0.97700 0.43920 0.96150 0.61900
C 	C 	0.09380 0.41220 0.97790 -0.03100
C 	C 	0.12720 0.35650 0.03450 -0.07200
H 	H 	0.19180 0.36430 0.01860 0.08000
C 	C 	0.06680 0.28910 0.11320 0.13600
C 	C 	0.93960 0.33310 0.07870 -0.00200
C 	C 	0.97300 0.27740 0.13530 -0.17100
H 	H 	0.93140 0.23080 0.18970 0.06900
O 	O 	0.52440 0.75710 0.86470 -0.44300
O 	O 	0.44750 0.59030 0.86320 -0.43600
C 	C 	0.51730 0.67570 0.89020 0.40000
C 	C 	0.60690 0.68269 0.94750 -0.02700
C 	C 	0.69720 0.77300 0.94740 0.01200
H 	H 	0.70220 0.83030 0.91090 0.04800
Br	Br	0.80300 0.90880 0.18490 -0.12800
H 	H 	0.56080 0.53780 0.96150 -0.26400
C 	C 	0.58780 0.68160 0.97790 -0.31800
C 	C 	0.64350 0.77070 0.03450 0.10100
H 	H 	0.63570 0.82750 0.01860 0.02300
C 	C 	0.71090 0.77770 0.11320 -0.00900
C 	C 	0.66690 0.60650 0.07870 -0.35400
C 	C 	0.72260 0.69560 0.13530 0.11400
H 	H 	0.76920 0.70060 0.18970 0.00300
O 	O 	0.24290 0.76730 0.86470 -0.41500
O 	O 	0.40970 0.85720 0.86320 -0.45100
C 	C 	0.32430 0.84160 0.89020 0.32600
C 	C 	0.31731 0.92421 0.94750 0.04200
C 	C 	0.22700 0.92420 0.94740 -0.02000
H 	H 	0.16970 0.87190 0.91090 0.06400
Br	Br	0.09120 0.89420 0.18490 -0.07200
H 	H 	0.46220 0.02300 0.96150 0.66400
C 	C 	0.31840 0.90620 0.97790 -0.80000
C 	C 	0.22930 0.87280 0.03450 0.37700
H 	H 	0.17250 0.80820 0.01860 -0.05500
C 	C 	0.22230 0.93320 0.11320 -0.24300
C 	C 	0.39350 0.06040 0.07870 -0.78800
C 	C 	0.30440 0.02700 0.13530 0.45000
H 	H 	0.29940 0.06860 0.18970 -0.08600
O 	O 	0.47560 0.23270 0.36470 -0.42700
O 	O 	0.55250 0.14280 0.36320 -0.41300
C 	C 	0.48270 0.15840 0.39020 0.34000
C 	C 	0.39310 0.07579 0.44750 -0.03500
C 	C 	0.30280 0.07580 0.44740 -0.04300
H 	H 	0.29780 0.12810 0.41090 0.07200
Br	Br	0.19700 0.10580 0.68490 -0.11600
H 	H 	0.43920 0.97700 0.46150 0.42400
C 	C 	0.41220 0.09380 0.47790 0.28700
C 	C 	0.35650 0.12720 0.53450 -0.27500
H 	H 	0.36430 0.19180 0.51860 0.14000
C 	C 	0.28910 0.06680 0.61320 0.24200
C 	C 	0.33310 0.93960 0.57870 0.30200
C 	C 	0.27740 0.97300 0.63530 -0.33800
H 	H 	0.23080 0.93140 0.68970 0.12500
O 	O 	0.75710 0.52440 0.36470 -0.44600
O 	O 	0.59030 0.44750 0.36320 -0.43300
C 	C 	0.67570 0.51730 0.39020 0.40600
C 	C 	0.68269 0.60690 0.44750 -0.03900
C 	C 	0.77300 0.69720 0.44740 0.02400
H 	H 	0.83030 0.70220 0.41090 0.04400
Br	Br	0.90880 0.80300 0.68490 -0.13500
H 	H 	0.53780 0.56080 0.46150 -0.34600
C 	C 	0.68160 0.58780 0.47790 -0.16700
C 	C 	0.77070 0.64350 0.53450 0.00500
H 	H 	0.82750 0.63570 0.51860 0.05000
C 	C 	0.77770 0.71090 0.61320 0.04100
C 	C 	0.60650 0.66690 0.57870 -0.21400
C 	C 	0.69560 0.72260 0.63530 0.03400
H 	H 	0.70060 0.76920 0.68970 0.02500
O 	O 	0.76730 0.24290 0.36470 -0.41800
O 	O 	0.85720 0.40970 0.36320 -0.45600
C 	C 	0.84160 0.32430 0.39020 0.34100
C 	C 	0.92421 0.31731 0.44750 0.03300
C 	C 	0.92420 0.22700 0.44740 -0.04000
H 	H 	0.87190 0.16970 0.41090 0.07000
Br	Br	0.89420 0.09120 0.68490 -0.06200
H 	H 	0.02300 0.46220 0.46150 0.51400
C 	C 	0.90620 0.31840 0.47790 -0.91000
C 	C 	0.87280 0.22930 0.53450 0.45300
H 	H 	0.80820 0.17250 0.51860 -0.08000
C 	C 	0.93320 0.22230 0.61320 -0.28800
C 	C 	0.06040 0.39350 0.57870 -0.76000
C 	C 	0.02700 0.30440 0.63530 0.49400
H 	H 	0.06860 0.29940 0.68970 -0.10700
O 	O 	0.47560 0.23270 0.13530 -0.42800
O 	O 	0.55250 0.14280 0.13680 -0.40600
C 	C 	0.48270 0.15840 0.10980 0.30800
C 	C 	0.39310 0.07579 0.05250 -0.05000
C 	C 	0.30280 0.07580 0.05260 -0.00000
H 	H 	0.29780 0.12810 0.08910 0.06000
Br	Br	0.19700 0.10580 0.81510 -0.17700
H 	H 	0.43920 0.97700 0.03850 0.78100
C 	C 	0.41220 0.09380 0.02210 0.94000
C 	C 	0.35650 0.12720 0.96550 -0.70100
H 	H 	0.36430 0.19180 0.98140 0.26600
C 	C 	0.28910 0.06680 0.88680 0.47400
C 	C 	0.33310 0.93960 0.92130 0.79300
C 	C 	0.27740 0.97300 0.86470 -0.69000
H 	H 	0.23080 0.93140 0.81030 0.24800
O 	O 	0.75710 0.52440 0.13530 -0.45100
O 	O 	0.59030 0.44750 0.13680 -0.42900
C 	C 	0.67570 0.51730 0.10980 0.39200
C 	C 	0.68269 0.60690 0.05250 -0.06500
C 	C 	0.77300 0.69720 0.05260 0.03700
H 	H 	0.83030 0.70220 0.08910 0.04000
Br	Br	0.90880 0.80300 0.81510 -0.17900
H 	H 	0.53780 0.56080 0.03850 -0.19400
C 	C 	0.68160 0.58780 0.02210 0.33200
C 	C 	0.77070 0.64350 0.96550 -0.30700
H 	H 	0.82750 0.63570 0.98140 0.14200
C 	C 	0.77770 0.71090 0.88680 0.22500
C 	C 	0.60650 0.66690 0.92130 0.23900
C 	C 	0.69560 0.72260 0.86470 -0.26200
H 	H 	0.70060 0.76920 0.81030 0.12900
O 	O 	0.76730 0.24290 0.13530 -0.42700
O 	O 	0.85720 0.40970 0.13680 -0.44600
C 	C 	0.84160 0.32430 0.10980 0.32200
C 	C 	0.92421 0.31731 0.05250 -0.02100
C 	C 	0.92420 0.22700 0.05260 -0.01500
H 	H 	0.87190 0.16970 0.08910 0.06400
Br	Br	0.89420 0.09120 0.81510 -0.15100
H 	H 	0.02300 0.46220 0.03850 0.70400
C 	C 	0.90620 0.31840 0.02210 0.06400
C 	C 	0.87280 0.22930 0.96550 -0.14800
H 	H 	0.80820 0.17250 0.98140 0.09800
C 	C 	0.93320 0.22230 0.88680 0.06000
C 	C 	0.06040 0.39350 0.92130 0.09400
C 	C 	0.02700 0.30440 0.86470 -0.05900
H 	H 	0.06860 0.29940 0.81030 0.08700
Fe	Fe	0.20650 0.66060 0.75000 1.22200
Fe	Fe	0.33940 0.54590 0.75000 1.22300
Fe	Fe	0.45410 0.79350 0.75000 1.21800
Fe	Fe	0.66060 0.20650 0.25000 1.22300
Fe	Fe	0.54590 0.33940 0.25000 1.22400
Fe	Fe	0.79350 0.45410 0.25000 1.21800
O 	O 	0.33333 0.66667 0.75000 -0.65700
O 	O 	0.66667 0.33333 0.25000 -0.65800
Br	Br	-0.00000 0.09910 0.50000 -0.04900
C 	C 	0.00000 0.40040 0.50000 -0.32500
H 	H 	0.00000 0.46210 0.50000 -0.70800
C 	C 	-0.00000 0.21970 0.50000 0.13900
Br	Br	0.90090 0.90090 0.50000 -0.17500
C 	C 	0.59960 0.59960 0.50000 0.23100
H 	H 	0.53790 0.53790 0.50000 0.50300
C 	C 	0.78030 0.78030 0.50000 0.05100
Br	Br	0.09910 0.00000 0.50000 -0.05000
C 	C 	0.40040 0.00000 0.50000 -0.24100
H 	H 	0.46210 0.00000 0.50000 -0.52000
C 	C 	0.21970 0.00000 0.50000 0.12400
Br	Br	-0.00000 0.09910 -0.00000 -0.04300
C 	C 	-0.00000 0.40040 -0.00000 -0.39000
H 	H 	-0.00000 0.46210 -0.00000 -0.84200
C 	C 	-0.00000 0.21970 -0.00000 0.14600
Br	Br	0.90090 0.90090 -0.00000 -0.17500
C 	C 	0.59960 0.59960 -0.00000 0.16600
H 	H 	0.53790 0.53790 -0.00000 0.36500
C 	C 	0.78030 0.78030 -0.00000 0.05600
Br	Br	0.09910 0.00000 -0.00000 -0.04000
C 	C 	0.40040 0.00000 -0.00000 -0.44100
H 	H 	0.46210 0.00000 -0.00000 -0.92100
C 	C 	0.21970 0.00000 -0.00000 0.11800
