data_crystal

_cell_length_a 12.30810
_cell_length_b 12.30810
_cell_length_c 27.37500
_cell_angle_alpha 90.00000
_cell_angle_beta  90.00000
_cell_angle_gamma 120.00000

_symmetry_space_group_name_	'P 1'
_symmetry_space_group_name_H-M	'P 1'

loop_
_symmetry_equiv_pos_as_xyz
  x,y,z

loop_
_atom_site_label
_atom_site_type_symbol
_atom_site_fract_x
_atom_site_fract_y
_atom_site_fract_z
_atom_site_charge
Fe	Fe	0.48641 0.24321 0.75000 1.22000
Fe	Fe	0.51359 0.75680 0.25000 1.22300
Fe	Fe	0.24320 0.48640 0.25000 1.22000
Fe	Fe	0.75680 0.51360 0.75000 1.22300
Fe	Fe	0.24320 0.75679 0.25000 1.22100
Fe	Fe	0.75680 0.24321 0.75000 1.22100
H 	H 	0.31640 0.93140 0.10590 0.04600
H 	H 	0.28220 0.97470 0.45640 0.09900
H 	H 	0.30750 0.02530 0.54360 0.08300
H 	H 	0.06630 0.71040 0.12650 0.04000
H 	H 	0.71040 0.06630 0.87350 0.03600
H 	H 	0.61500 0.93140 0.39410 0.04500
H 	H 	0.35590 0.06630 0.62650 0.03500
H 	H 	0.61500 0.68360 0.10590 0.04400
H 	H 	0.06860 0.38500 0.10590 0.04100
H 	H 	0.28960 0.93370 0.37350 0.03500
H 	H 	0.35590 0.28960 0.87350 0.03200
H 	H 	0.93370 0.28960 0.62650 0.03500
H 	H 	0.71780 0.02530 0.95640 0.09100
H 	H 	0.64410 0.71040 0.37350 0.03800
H 	H 	0.30750 0.28220 0.95640 0.09700
H 	H 	0.93140 0.31640 0.89410 0.04500
H 	H 	0.06630 0.35590 0.37350 0.03500
H 	H 	0.93140 0.61500 0.60590 0.04500
H 	H 	0.38500 0.31640 0.60590 0.03700
H 	H 	0.97470 0.69250 0.95640 0.10700
H 	H 	0.71040 0.64410 0.62650 0.03800
H 	H 	0.71780 0.69250 0.54360 0.09500
H 	H 	0.68360 0.61500 0.89410 0.04400
H 	H 	0.93370 0.64410 0.87350 0.03700
H 	H 	0.28220 0.30750 0.04360 0.08100
H 	H 	0.97470 0.28220 0.54360 0.09800
H 	H 	0.69250 0.97470 0.04360 0.09300
H 	H 	0.02530 0.71780 0.04360 0.07700
H 	H 	0.64410 0.93370 0.12650 0.04000
H 	H 	0.28960 0.35590 0.12650 0.03600
H 	H 	0.68360 0.06860 0.60590 0.04100
H 	H 	0.69250 0.71780 0.45640 0.09500
H 	H 	0.38500 0.06860 0.89410 0.04200
H 	H 	0.02530 0.30750 0.45640 0.08400
H 	H 	0.06860 0.68360 0.39410 0.04100
H 	H 	0.31640 0.38500 0.39410 0.03700
C 	C 	0.55020 0.11190 0.82351 0.38800
C 	C 	0.94080 0.58720 0.89492 0.05500
C 	C 	0.88810 0.44980 0.67649 0.39100
C 	C 	0.94080 0.35360 0.60508 0.05000
C 	C 	0.41280 0.35360 0.89492 0.05000
C 	C 	0.45240 0.39290 0.59387 0.05000
C 	C 	0.60710 0.05950 0.59387 0.03800
C 	C 	0.35360 0.41280 0.10508 0.03600
C 	C 	0.35360 0.94080 0.39492 0.05100
C 	C 	0.35020 0.96760 0.44369 -0.10400
C 	C 	0.43830 0.55020 0.32351 0.39100
C 	C 	0.58720 0.94080 0.10508 0.04100
C 	C 	0.03240 0.64980 0.05631 -0.07400
C 	C 	0.46380 0.01630 0.52651 0.02900
C 	C 	0.54710 0.07650 0.87624 -0.11100
C 	C 	0.55020 0.43830 0.67649 0.39100
C 	C 	0.41280 0.05920 0.60508 0.03600
C 	C 	0.44750 0.98370 0.47349 0.07200
C 	C 	0.97150 0.42690 0.95498 -0.05000
C 	C 	0.39290 0.45240 0.40613 0.05000
C 	C 	0.01630 0.55250 0.02651 0.00900
C 	C 	0.44980 0.88810 0.32351 0.39100
C 	C 	0.58720 0.64640 0.39492 0.04700
C 	C 	0.57310 0.02850 0.54502 -0.06100
C 	C 	0.94050 0.54760 0.59387 0.04500
C 	C 	0.53620 0.98370 0.02651 0.04900
C 	C 	0.07650 0.54710 0.12376 -0.10600
C 	C 	0.54460 0.57310 0.04502 -0.06000
C 	C 	0.64640 0.05920 0.89492 0.04100
C 	C 	0.45290 0.52940 0.12376 -0.10900
C 	C 	0.55250 0.01630 0.97349 0.04700
C 	C 	0.88810 0.43830 0.82351 0.39100
C 	C 	0.52940 0.07650 0.62376 -0.11100
C 	C 	0.54710 0.47060 0.62376 -0.11700
C 	C 	0.02850 0.45540 0.04502 -0.05100
C 	C 	0.97150 0.54460 0.54502 -0.06100
C 	C 	0.64980 0.03240 0.94369 -0.09300
C 	C 	0.03240 0.38260 0.44369 -0.08700
C 	C 	0.35020 0.38260 0.05631 -0.08400
C 	C 	0.64980 0.61740 0.55631 -0.09700
C 	C 	0.54760 0.94050 0.40613 0.04500
C 	C 	0.54460 0.97150 0.45498 -0.05900
C 	C 	0.45540 0.42690 0.54502 -0.07500
C 	C 	0.57310 0.54460 0.95498 -0.06000
C 	C 	0.42690 0.97150 0.04502 -0.04800
C 	C 	0.38260 0.03240 0.55631 -0.08500
C 	C 	0.05920 0.41280 0.39492 0.03700
C 	C 	0.45240 0.05950 0.90613 0.03500
C 	C 	0.05950 0.45240 0.09387 0.03000
C 	C 	0.45290 0.92350 0.37624 -0.11300
C 	C 	0.92350 0.45290 0.62376 -0.11300
C 	C 	0.60710 0.54760 0.90613 0.04500
C 	C 	0.47060 0.54710 0.37624 -0.11700
C 	C 	0.94050 0.39290 0.90613 0.04200
C 	C 	0.61740 0.96760 0.05631 -0.09000
C 	C 	0.92350 0.47060 0.87624 -0.11300
C 	C 	0.11190 0.55020 0.17649 0.38600
C 	C 	0.56170 0.11190 0.67649 0.38800
C 	C 	0.43830 0.88810 0.17649 0.38900
C 	C 	0.44750 0.46380 0.02651 0.02900
C 	C 	0.96760 0.61740 0.94369 -0.11000
C 	C 	0.47060 0.92350 0.12376 -0.10700
C 	C 	0.53620 0.55250 0.47349 0.05500
C 	C 	0.44980 0.56170 0.17649 0.38900
C 	C 	0.02850 0.57310 0.45498 -0.06300
C 	C 	0.56170 0.44980 0.82351 0.39100
C 	C 	0.45540 0.02850 0.95498 -0.05100
C 	C 	0.55250 0.53620 0.52651 0.05500
C 	C 	0.98370 0.44750 0.52651 0.07000
C 	C 	0.96760 0.35020 0.55631 -0.10300
C 	C 	0.05950 0.60710 0.40613 0.04000
C 	C 	0.39290 0.94050 0.09387 0.03500
C 	C 	0.42690 0.45540 0.45498 -0.07500
C 	C 	0.98370 0.53620 0.97349 0.08700
C 	C 	0.07650 0.52940 0.37624 -0.11200
C 	C 	0.11190 0.56170 0.32351 0.38900
C 	C 	0.61740 0.64980 0.44369 -0.09800
C 	C 	0.05920 0.64640 0.10508 0.02800
C 	C 	0.52940 0.45290 0.87624 -0.11500
C 	C 	0.46380 0.44750 0.97349 0.07100
C 	C 	0.01630 0.46380 0.47349 0.03300
C 	C 	0.54760 0.60710 0.09387 0.03800
C 	C 	0.64640 0.58720 0.60508 0.04700
C 	C 	0.38260 0.35020 0.94369 -0.10500
S 	S 	0.34079 0.34079 0.50000 0.31600
S 	S 	0.00000 0.34079 -0.00000 0.24800
S 	S 	0.00000 0.65921 0.50000 0.28300
S 	S 	0.34079 0.00000 -0.00000 0.24500
S 	S 	0.65921 0.00000 0.50000 0.27800
S 	S 	0.65921 0.65921 -0.00000 0.28000
O 	O 	0.52410 0.85420 0.31129 -0.43500
O 	O 	0.88520 0.22430 0.01129 -0.20200
O 	O 	0.22430 0.33910 0.51129 -0.22000
O 	O 	0.47590 0.14580 0.81129 -0.43900
O 	O 	0.77570 0.66090 0.01129 -0.20900
O 	O 	0.47570 0.36330 0.79692 -0.43100
O 	O 	0.63670 0.11240 0.79692 -0.43100
O 	O 	0.22430 0.88520 0.98871 -0.18100
O 	O 	0.66090 0.88520 0.51129 -0.19600
O 	O 	0.33910 0.11480 0.01129 -0.21300
O 	O 	0.47570 0.11240 0.70308 -0.43300
O 	O 	0.11480 0.77570 0.51129 -0.20800
O 	O 	0.33333 0.66666 0.25000 -0.64400
O 	O 	0.14580 0.47590 0.18871 -0.43900
O 	O 	0.11240 0.63670 0.20308 -0.43100
O 	O 	0.77570 0.11480 0.48871 -0.20800
O 	O 	0.36330 0.88760 0.29692 -0.42800
O 	O 	0.11480 0.33910 0.98871 -0.19400
O 	O 	0.52430 0.63670 0.29692 -0.42900
O 	O 	0.66090 0.77570 0.98871 -0.19000
O 	O 	0.52430 0.88760 0.20308 -0.42600
O 	O 	0.33010 0.47590 0.31129 -0.43900
O 	O 	0.66990 0.14580 0.68871 -0.43800
O 	O 	0.63670 0.52430 0.70308 -0.42800
O 	O 	0.88760 0.52430 0.79692 -0.42600
O 	O 	0.36330 0.47570 0.20308 -0.43100
O 	O 	0.47590 0.33010 0.68871 -0.43900
O 	O 	0.66667 0.33334 0.75000 -0.64400
O 	O 	0.33010 0.85420 0.18871 -0.43600
O 	O 	0.88760 0.36330 0.70308 -0.42800
O 	O 	0.85420 0.52410 0.68871 -0.43500
O 	O 	0.11240 0.47570 0.29692 -0.43300
O 	O 	0.66990 0.52410 0.81129 -0.43600
O 	O 	0.88520 0.66090 0.48871 -0.19800
O 	O 	0.33910 0.22430 0.48871 -0.22000
O 	O 	0.85420 0.33010 0.81129 -0.43600
O 	O 	0.14580 0.66990 0.31129 -0.43800
O 	O 	0.52410 0.66990 0.18871 -0.43600
