data_crystal

_cell_length_a 18.69960
_cell_length_b 18.69960
_cell_length_c 28.85720
_cell_angle_alpha 90.00000
_cell_angle_beta  90.00000
_cell_angle_gamma 120.00000

_symmetry_space_group_name_	'P 1'
_symmetry_space_group_name_H-M	'P 1'

loop_
_symmetry_equiv_pos_as_xyz
  x,y,z

loop_
_atom_site_label
_atom_site_type_symbol
_atom_site_fract_x
_atom_site_fract_y
_atom_site_fract_z
_atom_site_charge
Fe	Fe	0.05920 0.11840 0.33810 1.23300
Fe	Fe	0.60790 0.21580 0.83760 1.23200
Fe	Fe	0.05920 0.94080 0.33810 1.22300
Fe	Fe	0.78420 0.39210 0.83760 1.23100
Fe	Fe	0.88160 0.94080 0.33810 1.21600
Fe	Fe	0.60790 0.39210 0.83760 1.23200
H 	H 	0.69090 0.59890 0.02960 0.08300
H 	H 	0.87490 0.34300 0.71250 0.01600
H 	H 	0.87740 0.34020 0.95570 0.02800
H 	H 	0.90800 0.30910 0.02960 0.07900
H 	H 	0.00640 0.21150 0.45950 0.04100
H 	H 	0.97760 0.73800 0.53490 0.08300
H 	H 	0.98420 0.75130 0.14020 0.08300
H 	H 	0.20510 0.21150 0.45950 0.01700
H 	H 	0.87740 0.53720 0.95570 0.02800
H 	H 	0.00640 0.79490 0.45950 0.04200
H 	H 	0.46280 0.34020 0.95570 0.03100
H 	H 	0.90160 0.58610 0.63660 0.09100
H 	H 	0.41390 0.31550 0.63660 0.09500
H 	H 	0.69090 0.09200 0.02960 0.08600
H 	H 	0.76040 0.02240 0.53490 0.10200
H 	H 	0.76710 0.75130 0.14020 0.09100
H 	H 	0.46280 0.12260 0.95570 0.03300
H 	H 	0.24870 0.23290 0.14020 0.09900
H 	H 	0.87490 0.53190 0.71250 0.01700
H 	H 	0.65700 0.12510 0.71250 0.02200
H 	H 	0.90160 0.31550 0.63660 0.09100
H 	H 	0.46810 0.34300 0.71250 0.01900
H 	H 	0.65700 0.53190 0.71250 0.02000
H 	H 	0.40110 0.09200 0.02960 0.08700
H 	H 	0.79250 0.80250 0.21650 0.02600
H 	H 	0.19750 0.99000 0.21650 -0.00100
H 	H 	0.40110 0.30910 0.02960 0.08400
H 	H 	0.78850 0.99360 0.45950 0.00300
H 	H 	0.79250 0.99000 0.21650 0.00500
H 	H 	0.01000 0.80250 0.21650 0.04400
H 	H 	0.65980 0.12260 0.95570 0.03400
H 	H 	0.01000 0.20750 0.21650 0.04500
H 	H 	0.98420 0.23290 0.14020 0.08600
H 	H 	0.68450 0.58610 0.63660 0.09500
H 	H 	0.76710 0.01580 0.14020 0.10200
H 	H 	0.19750 0.20750 0.21650 0.02100
H 	H 	0.68450 0.09840 0.63660 0.09800
H 	H 	0.97760 0.23960 0.53490 0.08500
H 	H 	0.41390 0.09840 0.63660 0.09900
H 	H 	0.26200 0.02240 0.53490 0.10700
H 	H 	0.78850 0.79490 0.45950 0.02300
H 	H 	0.20510 0.99360 0.45950 -0.00300
H 	H 	0.90800 0.59890 0.02960 0.08100
H 	H 	0.65980 0.53720 0.95570 0.03100
H 	H 	0.46810 0.12510 0.71250 0.02200
H 	H 	0.24870 0.01580 0.14020 0.10700
H 	H 	0.76040 0.73800 0.53490 0.09100
H 	H 	0.26200 0.23960 0.53490 0.09900
C 	C 	0.20020 0.10010 0.45320 -0.15400
C 	C 	0.83980 0.29000 0.97070 0.04100
C 	C 	0.81620 0.76180 0.15580 -0.15000
C 	C 	0.91990 0.83980 0.27180 0.35200
C 	C 	0.23820 0.18380 0.15580 -0.16900
C 	C 	0.46820 0.23410 0.94920 -0.13400
C 	C 	0.74640 0.25360 0.90220 0.41900
C 	C 	0.89990 0.10010 0.45320 -0.13700
C 	C 	0.86670 0.13330 0.54090 0.15800
C 	C 	0.79530 0.59060 0.63050 0.16000
C 	C 	0.39600 0.19800 0.03580 0.13400
C 	C 	0.76360 0.23640 0.71900 -0.14300
C 	C 	0.85790 0.58630 0.01450 -0.12300
C 	C 	0.76590 0.53180 0.94920 -0.13500
C 	C 	0.41370 0.14210 0.01450 -0.12300
C 	C 	0.91790 0.83580 0.40540 0.36400
C 	C 	0.81000 0.06030 0.51940 -0.17100
C 	C 	0.90350 0.80700 0.22320 -0.11700
C 	C 	0.82660 0.78340 0.47480 0.06600
C 	C 	0.96090 0.16880 0.20100 0.04400
C 	C 	0.45020 0.29000 0.97070 0.04500
C 	C 	0.47280 0.23640 0.71900 -0.14200
C 	C 	0.20790 0.03910 0.20100 0.11600
C 	C 	0.42490 0.27730 0.65210 -0.16600
C 	C 	0.21660 0.17340 0.47480 0.09100
C 	C 	0.83120 0.03910 0.20100 0.09800
C 	C 	0.87350 0.74700 0.13380 0.14200
C 	C 	0.25030 0.06030 0.51940 -0.18400
C 	C 	0.41370 0.27160 0.01450 -0.12300
C 	C 	0.90350 0.09650 0.22320 -0.12800
C 	C 	0.74640 0.25360 0.76720 0.36700
C 	C 	0.76360 0.52720 0.71900 -0.14300
C 	C 	0.91990 0.08010 0.27180 0.35600
C 	C 	0.80200 0.60400 0.03580 0.13200
C 	C 	0.70640 0.54290 0.69710 0.07900
C 	C 	0.82660 0.04320 0.47480 0.10000
C 	C 	0.45710 0.29360 0.69710 0.08000
C 	C 	0.85240 0.57510 0.65210 -0.16600
C 	C 	0.72840 0.58630 0.01450 -0.12300
C 	C 	0.50720 0.25360 0.90220 0.42000
C 	C 	0.79530 0.20470 0.63050 0.16100
C 	C 	0.91790 0.08210 0.40540 0.36800
C 	C 	0.83650 0.29360 0.69710 0.07800
C 	C 	0.81000 0.74970 0.51940 -0.15400
C 	C 	0.87350 0.12650 0.13380 0.15200
C 	C 	0.95680 0.78340 0.47480 0.04000
C 	C 	0.95680 0.17340 0.47480 0.04700
C 	C 	0.83120 0.79210 0.20100 0.06200
C 	C 	0.72840 0.14210 0.01450 -0.12000
C 	C 	0.16020 0.08010 0.27180 0.36300
C 	C 	0.42490 0.14760 0.65210 -0.16600
C 	C 	0.20790 0.16880 0.20100 0.08700
C 	C 	0.96090 0.79210 0.20100 0.03700
C 	C 	0.89990 0.79980 0.45320 -0.12700
C 	C 	0.16420 0.08210 0.40540 0.37500
C 	C 	0.86670 0.73340 0.54090 0.14800
C 	C 	0.94560 0.76180 0.15580 -0.14100
C 	C 	0.94560 0.18380 0.15580 -0.14700
C 	C 	0.19300 0.09650 0.22320 -0.14500
C 	C 	0.83980 0.54980 0.97070 0.04400
C 	C 	0.45710 0.16350 0.69710 0.08000
C 	C 	0.85790 0.27160 0.01450 -0.12100
C 	C 	0.25030 0.19000 0.51940 -0.17300
C 	C 	0.45020 0.16020 0.97070 0.04500
C 	C 	0.93970 0.19000 0.51940 -0.15000
C 	C 	0.80200 0.19800 0.03580 0.13100
C 	C 	0.25300 0.12650 0.13380 0.16700
C 	C 	0.26660 0.13330 0.54090 0.17300
C 	C 	0.71000 0.16020 0.97070 0.04200
C 	C 	0.71000 0.54980 0.97070 0.04500
C 	C 	0.93970 0.74970 0.51940 -0.14400
C 	C 	0.21660 0.04320 0.47480 0.11800
C 	C 	0.81620 0.05440 0.15580 -0.16800
C 	C 	0.72270 0.14760 0.65210 -0.16600
C 	C 	0.74640 0.49280 0.90220 0.42000
C 	C 	0.85240 0.27730 0.65210 -0.16600
C 	C 	0.50720 0.25360 0.76720 0.36800
C 	C 	0.40940 0.20470 0.63050 0.16300
C 	C 	0.70640 0.16350 0.69710 0.08000
C 	C 	0.23820 0.05440 0.15580 -0.18000
C 	C 	0.76590 0.23410 0.94920 -0.13300
C 	C 	0.74640 0.49280 0.76720 0.36700
C 	C 	0.83650 0.54290 0.69710 0.07800
C 	C 	0.72270 0.57510 0.65210 -0.16600
N 	N 	0.82030 0.64060 0.07970 -0.09600
N 	N 	0.85830 0.71660 0.08840 -0.09800
N 	N 	0.82030 0.17970 0.07970 -0.09500
N 	N 	0.81120 0.18880 0.58590 -0.10000
N 	N 	0.37760 0.18880 0.58590 -0.10000
N 	N 	0.85000 0.70000 0.58510 -0.10200
N 	N 	0.28340 0.14170 0.08840 -0.09800
N 	N 	0.30000 0.15000 0.58510 -0.10300
N 	N 	0.81120 0.62240 0.58590 -0.10000
N 	N 	0.35940 0.17970 0.07970 -0.09500
N 	N 	0.85830 0.14170 0.08840 -0.09800
N 	N 	0.85000 0.15000 0.58510 -0.10200
O 	O 	0.00000 0.00000 0.33820 -0.62400
O 	O 	0.67670 0.20500 0.88620 -0.45200
O 	O 	0.99330 0.12920 0.28780 -0.43200
O 	O 	0.53030 0.20610 0.78650 -0.41700
O 	O 	0.79500 0.47170 0.88620 -0.45500
O 	O 	0.87100 0.00960 0.38840 -0.41800
O 	O 	0.67580 0.46970 0.78650 -0.41800
O 	O 	0.13590 0.00670 0.28780 -0.41500
O 	O 	0.52830 0.20500 0.88620 -0.45200
O 	O 	0.52830 0.32330 0.88620 -0.45300
O 	O 	0.87080 0.00670 0.28780 -0.41800
O 	O 	0.79500 0.32330 0.88620 -0.45500
O 	O 	0.99040 0.86140 0.38840 -0.43200
O 	O 	0.99330 0.86410 0.28780 -0.43300
O 	O 	0.67580 0.20610 0.78650 -0.41700
O 	O 	0.87080 0.86410 0.28780 -0.42700
O 	O 	0.99040 0.12900 0.38840 -0.43100
O 	O 	0.13590 0.12920 0.28780 -0.42200
O 	O 	0.79390 0.32420 0.78650 -0.42000
O 	O 	0.67670 0.47170 0.88620 -0.45400
O 	O 	0.79390 0.46970 0.78650 -0.42000
O 	O 	0.53030 0.32420 0.78650 -0.41800
O 	O 	0.87100 0.86140 0.38840 -0.42600
O 	O 	0.13860 0.00960 0.38840 -0.41400
O 	O 	0.66667 0.33334 0.83880 -0.65000
O 	O 	0.13860 0.12900 0.38840 -0.42100
Fe	Fe	0.11840 0.05920 0.83810 1.23200
Fe	Fe	0.94080 0.88160 0.83810 1.21600
Fe	Fe	0.39210 0.78420 0.33760 1.23200
Fe	Fe	0.39210 0.60790 0.33760 1.23300
Fe	Fe	0.94080 0.05920 0.83810 1.22200
Fe	Fe	0.21580 0.60790 0.33760 1.23400
H 	H 	0.75130 0.98420 0.64020 0.08400
H 	H 	0.34020 0.87740 0.45570 0.01500
H 	H 	0.73800 0.97760 0.03490 0.07300
H 	H 	0.53190 0.65700 0.21250 0.02000
H 	H 	0.02240 0.76040 0.03490 0.09500
H 	H 	0.02240 0.26200 0.03490 0.09700
H 	H 	0.23960 0.97760 0.03490 0.07800
H 	H 	0.09200 0.40110 0.52960 0.10000
H 	H 	0.79490 0.00640 0.95950 0.04800
H 	H 	0.21150 0.20510 0.95950 0.02800
H 	H 	0.30910 0.40110 0.52960 0.09600
H 	H 	0.34300 0.46810 0.21250 0.02000
H 	H 	0.58610 0.68450 0.13660 0.09600
H 	H 	0.23290 0.24870 0.64020 0.09800
H 	H 	0.53720 0.65980 0.45570 0.01700
H 	H 	0.99000 0.19750 0.71650 -0.00300
H 	H 	0.99360 0.20510 0.95950 0.00300
H 	H 	0.20750 0.19750 0.71650 0.02000
H 	H 	0.12260 0.65980 0.45570 0.02000
H 	H 	0.09840 0.68450 0.13660 0.09900
H 	H 	0.58610 0.90160 0.13660 0.09200
H 	H 	0.59890 0.90800 0.52960 0.09300
H 	H 	0.80250 0.01000 0.71650 0.04200
H 	H 	0.34300 0.87490 0.21250 0.01700
H 	H 	0.59890 0.69090 0.52960 0.09600
H 	H 	0.21150 0.00640 0.95950 0.04600
H 	H 	0.12260 0.46280 0.45570 0.02000
H 	H 	0.79490 0.78850 0.95950 0.03300
H 	H 	0.12510 0.46810 0.21250 0.02200
H 	H 	0.23960 0.26200 0.03490 0.08800
H 	H 	0.01580 0.76710 0.64020 0.10300
H 	H 	0.31550 0.41390 0.13660 0.09600
H 	H 	0.99360 0.78850 0.95950 0.00700
H 	H 	0.53720 0.87740 0.45570 0.01500
H 	H 	0.99000 0.79250 0.71650 0.00200
H 	H 	0.73800 0.76040 0.03490 0.08100
H 	H 	0.20750 0.01000 0.71650 0.04200
H 	H 	0.31550 0.90160 0.13660 0.09200
H 	H 	0.09200 0.69090 0.52960 0.09900
H 	H 	0.01580 0.24870 0.64020 0.10800
H 	H 	0.80250 0.79250 0.71650 0.02600
H 	H 	0.12510 0.65700 0.21250 0.02200
H 	H 	0.34020 0.46280 0.45570 0.01800
H 	H 	0.23290 0.98420 0.64020 0.08700
H 	H 	0.30910 0.90800 0.52960 0.09300
H 	H 	0.53190 0.87490 0.21250 0.01700
H 	H 	0.75130 0.76710 0.64020 0.09100
H 	H 	0.09840 0.41390 0.13660 0.10000
C 	C 	0.16880 0.96090 0.70100 0.04900
C 	C 	0.08010 0.16020 0.77180 0.36300
C 	C 	0.08210 0.91790 0.90540 0.36300
C 	C 	0.16020 0.71000 0.47070 0.09300
C 	C 	0.05440 0.23820 0.65580 -0.18200
C 	C 	0.25360 0.74640 0.26720 0.36700
C 	C 	0.08010 0.91990 0.77180 0.35700
C 	C 	0.14760 0.72270 0.15210 -0.16600
C 	C 	0.14210 0.41370 0.51450 -0.17000
C 	C 	0.23410 0.76590 0.44920 -0.16300
C 	C 	0.13330 0.26660 0.04090 0.15100
C 	C 	0.20470 0.79530 0.13050 0.16200
C 	C 	0.29360 0.45710 0.19710 0.08000
C 	C 	0.20470 0.40940 0.13050 0.16400
C 	C 	0.19800 0.39600 0.53580 0.16000
C 	C 	0.60400 0.80200 0.53580 0.15800
C 	C 	0.76180 0.94560 0.65580 -0.14300
C 	C 	0.04320 0.82660 0.97480 0.07300
C 	C 	0.27730 0.85240 0.15210 -0.16600
C 	C 	0.16880 0.20790 0.70100 0.08800
C 	C 	0.23410 0.46820 0.44920 -0.16200
C 	C 	0.18380 0.23820 0.65580 -0.17000
C 	C 	0.16020 0.45020 0.47070 0.09300
C 	C 	0.76180 0.81620 0.65580 -0.15100
C 	C 	0.17340 0.21660 0.97480 0.05000
C 	C 	0.53180 0.76590 0.44920 -0.16300
C 	C 	0.23640 0.76360 0.21900 -0.14300
C 	C 	0.10010 0.89990 0.95320 -0.12200
C 	C 	0.13330 0.86670 0.04090 0.14200
C 	C 	0.73340 0.86670 0.04090 0.12700
C 	C 	0.10010 0.20020 0.95320 -0.13200
C 	C 	0.58630 0.85790 0.51450 -0.17100
C 	C 	0.17340 0.95680 0.97480 0.02000
C 	C 	0.80700 0.90350 0.72320 -0.11900
C 	C 	0.54290 0.83650 0.19710 0.07900
C 	C 	0.59060 0.79530 0.13050 0.16100
C 	C 	0.19000 0.25030 0.01940 -0.13100
C 	C 	0.25360 0.50720 0.26720 0.36800
C 	C 	0.49280 0.74640 0.26720 0.36700
C 	C 	0.08210 0.16420 0.90540 0.36700
C 	C 	0.54980 0.71000 0.47070 0.09200
C 	C 	0.05440 0.81620 0.65580 -0.17100
C 	C 	0.09650 0.90350 0.72320 -0.13200
C 	C 	0.03910 0.83120 0.70100 0.10300
C 	C 	0.09650 0.19300 0.72320 -0.14600
C 	C 	0.83980 0.91990 0.77180 0.35200
C 	C 	0.57510 0.72270 0.15210 -0.16600
C 	C 	0.78340 0.82660 0.97480 0.02400
C 	C 	0.25360 0.74640 0.40220 0.43100
C 	C 	0.27730 0.42490 0.15210 -0.16600
C 	C 	0.12650 0.87350 0.63380 0.15400
C 	C 	0.83580 0.91790 0.90540 0.35600
C 	C 	0.74700 0.87350 0.63380 0.14300
C 	C 	0.74970 0.93970 0.01940 -0.10500
C 	C 	0.06030 0.81000 0.01940 -0.14000
C 	C 	0.29360 0.83650 0.19710 0.07900
C 	C 	0.29000 0.83980 0.47070 0.09200
C 	C 	0.79210 0.83120 0.70100 0.06300
C 	C 	0.18380 0.94560 0.65580 -0.15000
C 	C 	0.54290 0.70640 0.19710 0.07900
C 	C 	0.29000 0.45020 0.47070 0.09300
C 	C 	0.79980 0.89990 0.95320 -0.10400
C 	C 	0.16350 0.70640 0.19710 0.08000
C 	C 	0.19800 0.80200 0.53580 0.15900
C 	C 	0.19000 0.93970 0.01940 -0.12000
C 	C 	0.27160 0.85790 0.51450 -0.17100
C 	C 	0.16350 0.45710 0.19710 0.08100
C 	C 	0.54980 0.83980 0.47070 0.09200
C 	C 	0.78340 0.95680 0.97480 0.00400
C 	C 	0.25360 0.50720 0.40220 0.43100
C 	C 	0.27160 0.41370 0.51450 -0.17100
C 	C 	0.49280 0.74640 0.40220 0.43100
C 	C 	0.74970 0.81000 0.01940 -0.11200
C 	C 	0.79210 0.96090 0.70100 0.04100
C 	C 	0.23640 0.47280 0.21900 -0.14200
C 	C 	0.03910 0.20790 0.70100 0.12000
C 	C 	0.57510 0.85240 0.15210 -0.16600
C 	C 	0.04320 0.21660 0.97480 0.08300
C 	C 	0.58630 0.72840 0.51450 -0.17100
C 	C 	0.14210 0.72840 0.51450 -0.17000
C 	C 	0.12650 0.25300 0.63380 0.16700
C 	C 	0.14760 0.42490 0.15210 -0.16600
C 	C 	0.06030 0.25030 0.01940 -0.14500
C 	C 	0.52720 0.76360 0.21900 -0.14300
N 	N 	0.62240 0.81120 0.08590 -0.09900
N 	N 	0.71660 0.85830 0.58840 -0.09900
N 	N 	0.15000 0.85000 0.08510 -0.09900
N 	N 	0.70000 0.85000 0.08510 -0.09800
N 	N 	0.18880 0.81120 0.08590 -0.09800
N 	N 	0.18880 0.37760 0.08590 -0.09800
N 	N 	0.15000 0.30000 0.08510 -0.09800
N 	N 	0.14170 0.85830 0.58840 -0.09900
N 	N 	0.64060 0.82030 0.57970 -0.10100
N 	N 	0.17970 0.35940 0.57970 -0.10000
N 	N 	0.14170 0.28340 0.58840 -0.09900
N 	N 	0.17970 0.82030 0.57970 -0.10100
O 	O 	0.32420 0.53030 0.28650 -0.41800
O 	O 	0.46970 0.79390 0.28650 -0.41900
O 	O 	0.86140 0.99040 0.88840 -0.43000
O 	O 	0.32330 0.79500 0.38620 -0.45700
O 	O 	0.32420 0.79390 0.28650 -0.41900
O 	O 	0.12900 0.99040 0.88840 -0.42900
O 	O 	0.00960 0.13860 0.88840 -0.41200
O 	O 	0.12920 0.99330 0.78780 -0.43100
O 	O 	0.00000 0.00000 0.83820 -0.62400
O 	O 	0.00670 0.13590 0.78780 -0.41400
O 	O 	0.00670 0.87080 0.78780 -0.41700
O 	O 	0.12920 0.13590 0.78780 -0.42200
O 	O 	0.47170 0.67670 0.38620 -0.45600
O 	O 	0.46970 0.67580 0.28650 -0.41800
O 	O 	0.12900 0.13860 0.88840 -0.42000
O 	O 	0.32330 0.52830 0.38620 -0.45500
O 	O 	0.20500 0.67670 0.38620 -0.45400
O 	O 	0.86140 0.87100 0.88840 -0.42500
O 	O 	0.20500 0.52830 0.38620 -0.45400
O 	O 	0.20610 0.67580 0.28650 -0.41700
O 	O 	0.00960 0.87100 0.88840 -0.41600
O 	O 	0.86410 0.87080 0.78780 -0.42800
O 	O 	0.86410 0.99330 0.78780 -0.43300
O 	O 	0.33333 0.66666 0.33880 -0.65000
O 	O 	0.47170 0.79500 0.38620 -0.45700
O 	O 	0.20610 0.53030 0.28650 -0.41600
Fe	Fe	0.72570 0.45140 0.30630 1.21600
Fe	Fe	0.27430 0.54860 0.80630 1.21600
Fe	Fe	0.54860 0.27430 0.30630 1.21600
Fe	Fe	0.72570 0.27430 0.30630 1.21600
Fe	Fe	0.27430 0.72570 0.80630 1.21600
Fe	Fe	0.45140 0.72570 0.80630 1.21500
H 	H 	0.45490 0.12750 0.42350 0.02300
H 	H 	0.63200 0.58520 0.11940 0.09200
H 	H 	0.95980 0.58840 0.48890 0.08300
H 	H 	0.41480 0.04680 0.11940 0.09800
H 	H 	0.63200 0.04680 0.11940 0.09800
H 	H 	0.58520 0.63200 0.61940 0.09100
H 	H 	0.12950 0.67360 0.68660 0.02100
H 	H 	0.87250 0.32740 0.42350 0.02600
H 	H 	0.58520 0.95320 0.61940 0.08500
H 	H 	0.04680 0.63200 0.61940 0.09800
H 	H 	0.87050 0.54410 0.18660 0.02400
H 	H 	0.41160 0.37140 0.48890 0.09000
H 	H 	0.32640 0.45590 0.68660 0.02300
H 	H 	0.37140 0.95980 0.98890 0.07700
H 	H 	0.32740 0.87250 0.92350 0.02700
H 	H 	0.04020 0.41160 0.98890 0.09000
H 	H 	0.36800 0.41480 0.61940 0.09100
H 	H 	0.58840 0.62860 0.98890 0.08200
H 	H 	0.12750 0.45490 0.92350 0.02400
H 	H 	0.87250 0.54510 0.42350 0.02500
H 	H 	0.67260 0.12750 0.42350 0.02300
H 	H 	0.04020 0.62860 0.98890 0.09000
H 	H 	0.67360 0.12950 0.18660 0.02100
H 	H 	0.67360 0.54410 0.18660 0.02200
H 	H 	0.37140 0.41160 0.98890 0.08200
H 	H 	0.54410 0.67360 0.68660 0.02200
H 	H 	0.62860 0.04020 0.48890 0.09600
H 	H 	0.04680 0.41480 0.61940 0.09800
H 	H 	0.87050 0.32640 0.18660 0.02400
H 	H 	0.62860 0.58840 0.48890 0.09000
H 	H 	0.67260 0.54510 0.42350 0.02400
H 	H 	0.12750 0.67260 0.92350 0.02400
H 	H 	0.41480 0.36800 0.11940 0.09200
H 	H 	0.54510 0.87250 0.92350 0.02700
H 	H 	0.54510 0.67260 0.92350 0.02500
H 	H 	0.95980 0.37140 0.48890 0.08300
H 	H 	0.95320 0.36800 0.11940 0.08600
H 	H 	0.45490 0.32740 0.42350 0.02400
H 	H 	0.36800 0.95320 0.61940 0.08500
H 	H 	0.54410 0.87050 0.68660 0.02400
H 	H 	0.32740 0.45490 0.92350 0.02600
H 	H 	0.45590 0.12950 0.18660 0.02100
H 	H 	0.58840 0.95980 0.98890 0.07600
H 	H 	0.32640 0.87050 0.68660 0.02400
H 	H 	0.12950 0.45590 0.68660 0.02100
H 	H 	0.45590 0.32640 0.18660 0.02200
H 	H 	0.95320 0.58520 0.11940 0.08600
H 	H 	0.41160 0.04020 0.48890 0.09600
C 	C 	0.37870 0.88730 0.67300 0.07200
C 	C 	0.43170 0.86340 0.69240 -0.13900
C 	C 	0.46700 0.06370 0.13310 -0.17000
C 	C 	0.51650 0.03300 0.49430 0.16400
C 	C 	0.04000 0.52000 0.61390 0.16900
C 	C 	0.94200 0.40620 0.47550 -0.14600
C 	C 	0.86340 0.43170 0.19240 -0.14000
C 	C 	0.48990 0.10970 0.43680 0.07700
C 	C 	0.05800 0.46420 0.97550 -0.15500
C 	C 	0.10970 0.48990 0.93680 0.07000
C 	C 	0.89030 0.51010 0.43680 0.06200
C 	C 	0.11270 0.62130 0.67300 0.08700
C 	C 	0.59670 0.06370 0.13310 -0.17000
C 	C 	0.50860 0.62130 0.67300 0.07900
C 	C 	0.13500 0.56750 0.91790 -0.12600
C 	C 	0.37870 0.49140 0.67300 0.07900
C 	C 	0.59525 0.19050 0.37630 0.37000
C 	C 	0.13660 0.56830 0.69240 -0.14600
C 	C 	0.61980 0.51010 0.43680 0.07000
C 	C 	0.43250 0.56750 0.91790 -0.12200
C 	C 	0.53580 0.59380 0.97550 -0.14600
C 	C 	0.94200 0.53580 0.47550 -0.14600
C 	C 	0.48000 0.96000 0.61390 0.13400
C 	C 	0.19050 0.59525 0.87630 0.36800
C 	C 	0.40540 0.59460 0.73510 0.40300
C 	C 	0.59460 0.40540 0.23510 0.40300
C 	C 	0.40620 0.94200 0.97550 -0.13900
C 	C 	0.56830 0.13660 0.19240 -0.14700
C 	C 	0.06370 0.59670 0.63310 -0.17000
C 	C 	0.11270 0.49140 0.67300 0.08700
C 	C 	0.05800 0.59380 0.97550 -0.15500
C 	C 	0.53300 0.93630 0.63310 -0.15400
C 	C 	0.18920 0.59460 0.73510 0.40500
C 	C 	0.59460 0.18920 0.23510 0.40500
C 	C 	0.03300 0.51650 0.99430 0.14900
C 	C 	0.51650 0.48350 0.49430 0.14800
C 	C 	0.52000 0.04000 0.11390 0.16900
C 	C 	0.40475 0.80950 0.87630 0.36500
C 	C 	0.49140 0.37870 0.17300 0.08000
C 	C 	0.38020 0.48990 0.93680 0.06200
C 	C 	0.56830 0.43170 0.19240 -0.14300
C 	C 	0.40540 0.81080 0.73510 0.40200
C 	C 	0.81080 0.40540 0.23510 0.40200
C 	C 	0.40475 0.59525 0.87630 0.36600
C 	C 	0.46420 0.05800 0.47550 -0.16300
C 	C 	0.93630 0.40330 0.13310 -0.15400
C 	C 	0.46420 0.40620 0.47550 -0.15500
C 	C 	0.56750 0.13500 0.41790 -0.13000
C 	C 	0.88730 0.50860 0.17300 0.07300
C 	C 	0.48350 0.51650 0.99430 0.12900
C 	C 	0.80950 0.40475 0.37630 0.36700
C 	C 	0.46700 0.40330 0.13310 -0.16200
C 	C 	0.10970 0.61980 0.93680 0.07000
C 	C 	0.61980 0.10970 0.43680 0.07700
C 	C 	0.62130 0.11270 0.17300 0.08800
C 	C 	0.40620 0.46420 0.97550 -0.14600
C 	C 	0.40330 0.93630 0.63310 -0.15400
C 	C 	0.59380 0.53580 0.47550 -0.15500
C 	C 	0.52000 0.48000 0.11390 0.15200
C 	C 	0.53580 0.94200 0.97550 -0.13900
C 	C 	0.40330 0.46700 0.63310 -0.16100
C 	C 	0.48350 0.96700 0.99430 0.11400
C 	C 	0.88730 0.37870 0.17300 0.07300
C 	C 	0.89030 0.38020 0.43680 0.06200
C 	C 	0.51010 0.89030 0.93680 0.05500
C 	C 	0.93630 0.53300 0.13310 -0.15400
C 	C 	0.43250 0.86500 0.91790 -0.11900
C 	C 	0.49140 0.11270 0.17300 0.08800
C 	C 	0.96700 0.48350 0.49430 0.12900
C 	C 	0.59380 0.05800 0.47550 -0.16300
C 	C 	0.86500 0.43250 0.41790 -0.12300
C 	C 	0.38020 0.89030 0.93680 0.05500
C 	C 	0.62130 0.50860 0.17300 0.08000
C 	C 	0.48000 0.52000 0.61390 0.15000
C 	C 	0.59670 0.53300 0.13310 -0.16200
C 	C 	0.59525 0.40475 0.37630 0.36900
C 	C 	0.96000 0.48000 0.11390 0.13500
C 	C 	0.53300 0.59670 0.63310 -0.16100
C 	C 	0.48990 0.38020 0.43680 0.07000
C 	C 	0.43170 0.56830 0.69240 -0.14300
C 	C 	0.56750 0.43250 0.41790 -0.12700
C 	C 	0.51010 0.61980 0.93680 0.06200
C 	C 	0.50860 0.88730 0.67300 0.07300
C 	C 	0.06370 0.46700 0.63310 -0.17000
N 	N 	0.49045 0.98090 0.53330 -0.11100
N 	N 	0.50470 0.00940 0.57370 -0.08400
N 	N 	0.49530 0.99060 0.07370 -0.11100
N 	N 	0.00940 0.50470 0.07370 -0.08300
N 	N 	0.49045 0.50955 0.53330 -0.09800
N 	N 	0.50470 0.49530 0.57370 -0.09800
N 	N 	0.99060 0.49530 0.57370 -0.11300
N 	N 	0.50955 0.01910 0.03330 -0.07400
N 	N 	0.50955 0.49045 0.03330 -0.08800
N 	N 	0.49530 0.50470 0.07370 -0.09600
N 	N 	0.01910 0.50955 0.53330 -0.08300
N 	N 	0.98090 0.49045 0.03330 -0.10200
O 	O 	0.53880 0.34210 0.25400 -0.43800
O 	O 	0.33333 0.66666 0.80730 -0.67100
O 	O 	0.19350 0.65680 0.85640 -0.42900
O 	O 	0.80330 0.46120 0.25400 -0.43900
O 	O 	0.19350 0.53670 0.85640 -0.42900
O 	O 	0.46330 0.80650 0.85640 -0.43100
O 	O 	0.34320 0.80650 0.85640 -0.43100
O 	O 	0.66667 0.33334 0.30730 -0.67100
O 	O 	0.80330 0.34210 0.25400 -0.43900
O 	O 	0.34210 0.53880 0.75400 -0.43800
O 	O 	0.53880 0.19670 0.25400 -0.43700
O 	O 	0.65680 0.46330 0.35640 -0.43100
O 	O 	0.19670 0.65790 0.75400 -0.43700
O 	O 	0.46120 0.80330 0.75400 -0.43900
O 	O 	0.65790 0.19670 0.25400 -0.43800
O 	O 	0.19670 0.53880 0.75400 -0.43700
O 	O 	0.65790 0.46120 0.25400 -0.43800
O 	O 	0.34320 0.53670 0.85640 -0.43000
O 	O 	0.34210 0.80330 0.75400 -0.43800
O 	O 	0.53670 0.34320 0.35640 -0.43000
O 	O 	0.80650 0.34320 0.35640 -0.43100
O 	O 	0.80650 0.46330 0.35640 -0.43100
O 	O 	0.46330 0.65680 0.85640 -0.43000
O 	O 	0.53670 0.19350 0.35640 -0.42900
O 	O 	0.46120 0.65790 0.75400 -0.43800
O 	O 	0.65680 0.19350 0.35640 -0.43000
