data_crystal

_cell_length_a 8.15760
_cell_length_b 23.52970
_cell_length_c 23.52970
_cell_angle_alpha 88.27810
_cell_angle_beta  80.01750
_cell_angle_gamma 80.01770

_symmetry_space_group_name_	'P 1'
_symmetry_space_group_name_H-M	'P 1'

loop_
_symmetry_equiv_pos_as_xyz
  x,y,z

loop_
_atom_site_label
_atom_site_type_symbol
_atom_site_fract_x
_atom_site_fract_y
_atom_site_fract_z
_atom_site_charge
Zn	Zn	0.25504 0.93853 0.94953 1.24200
Zn	Zn	0.79543 0.94953 0.06147 1.24400
Zn	Zn	0.14310 0.06147 0.05047 1.24200
Zn	Zn	0.25000 0.50000 0.50000 1.49100
Zn	Zn	0.80643 0.05047 0.93853 1.24500
Zn	Zn	0.50000 0.00000 -0.00000 1.22800
H 	H 	0.90740 0.00510 0.71690 0.07500
H 	H 	0.17960 0.11610 0.38070 0.31000
H 	H 	0.31990 0.03100 0.19840 0.13200
H 	H 	0.23980 0.97920 0.18140 0.12800
H 	H 	0.07290 0.18030 0.61410 0.29100
H 	H 	0.42200 0.98360 0.72140 0.06600
H 	H 	0.64910 0.80160 0.03100 0.13300
H 	H 	0.70560 0.68310 0.49230 0.02600
H 	H 	0.62940 0.99490 0.28310 0.06500
H 	H 	0.61980 0.48950 0.25170 0.07000
H 	H 	0.05430 0.02210 0.79330 0.12800
H 	H 	0.97080 0.99440 0.36780 0.08000
H 	H 	0.31320 0.37020 0.84380 0.31500
H 	H 	0.80210 0.49230 0.31690 0.03100
H 	H 	0.30060 0.95170 0.47950 0.30200
H 	H 	0.00870 0.48760 0.13020 0.04700
H 	H 	0.33330 0.86340 0.38960 0.07200
H 	H 	0.26360 0.80980 0.02120 0.12400
H 	H 	0.36100 0.51050 0.74830 0.07700
H 	H 	0.19670 0.49440 0.18440 0.04600
H 	H 	0.62830 0.69850 0.88190 0.05800
H 	H 	0.84300 0.84380 0.62980 0.32300
H 	H 	0.48980 0.88190 0.30150 0.05200
H 	H 	0.50370 0.86980 0.48760 0.08800
H 	H 	0.68240 0.38000 0.49500 0.23800
H 	H 	0.41520 0.63190 0.55990 0.23600
H 	H 	0.67320 0.11810 0.69850 0.05600
H 	H 	0.96310 0.86730 0.35490 0.31300
H 	H 	0.12700 0.01640 0.27860 0.06400
H 	H 	0.85260 0.12910 0.31010 0.05900
H 	H 	0.46330 0.01020 0.37300 0.06400
H 	H 	0.12850 0.25170 0.51050 0.07900
H 	H 	0.86110 0.13020 0.51240 0.07500
H 	H 	0.27250 0.53670 0.02130 0.30800
H 	H 	0.93760 0.50500 0.38000 0.25200
H 	H 	0.37570 0.71690 0.99490 0.06600
H 	H 	0.85300 0.37830 0.11810 0.29800
H 	H 	0.82260 0.49500 0.62000 0.23200
H 	H 	0.61890 0.18440 0.50560 0.03000
H 	H 	0.84230 0.52310 0.00390 0.29800
H 	H 	0.62650 0.51240 0.86980 0.08500
H 	H 	0.55740 0.62000 0.50500 0.23800
H 	H 	0.23250 0.85870 0.59910 0.06000
H 	H 	0.13640 0.17930 0.40510 0.31300
H 	H 	0.72080 0.82070 0.59490 0.31800
H 	H 	0.70430 0.61930 0.11610 0.31600
H 	H 	0.31300 0.61410 0.81970 0.29500
H 	H 	0.09460 0.19020 0.97880 0.11000
H 	H 	0.18530 0.13270 0.64510 0.29600
H 	H 	0.84650 0.98980 0.62700 0.05200
H 	H 	0.68430 0.59490 0.17930 0.31800
H 	H 	0.69030 0.14130 0.40090 0.06800
H 	H 	0.92360 0.20670 0.02210 0.11600
H 	H 	0.70620 0.02130 0.46330 0.30900
H 	H 	0.15240 0.79330 0.97790 0.11500
H 	H 	0.95290 0.44010 0.63190 0.23300
H 	H 	0.27710 0.38960 0.13660 0.06700
H 	H 	0.88100 0.31690 0.50770 0.02600
H 	H 	0.45850 0.40510 0.82070 0.31300
H 	H 	0.21990 0.47950 0.04830 0.30100
H 	H 	0.16370 0.37300 0.98980 0.04600
H 	H 	0.92660 0.97880 0.80980 0.14200
H 	H 	0.57880 0.18140 0.02080 0.13000
H 	H 	0.08750 0.28310 0.00510 0.08700
H 	H 	0.83730 0.31010 0.87090 0.07200
H 	H 	0.67640 0.88390 0.61930 0.31400
H 	H 	0.54930 0.96900 0.80160 0.12800
H 	H 	0.68200 0.35490 0.13270 0.30300
H 	H 	0.20870 0.30150 0.11810 0.05200
H 	H 	0.86970 0.97790 0.20670 0.12200
H 	H 	0.48170 0.19840 0.96900 0.12800
H 	H 	0.87550 0.50560 0.81560 0.02700
H 	H 	0.90880 0.40090 0.85870 0.05200
H 	H 	0.86730 0.81970 0.38590 0.30700
H 	H 	0.36930 0.47690 0.99610 0.29900
H 	H 	0.66140 0.36780 0.00560 0.06600
H 	H 	0.74680 0.38590 0.18030 0.30000
H 	H 	0.61130 0.50770 0.68310 0.02700
H 	H 	0.02490 0.55990 0.36810 0.24100
H 	H 	0.31660 0.15620 0.37020 0.31700
H 	H 	0.29180 0.87090 0.68990 0.06000
H 	H 	0.15380 0.00390 0.47690 0.30300
H 	H 	0.85660 0.72140 0.01640 0.08100
H 	H 	0.78100 0.81860 0.97920 0.13300
H 	H 	0.34940 0.62170 0.88190 0.29100
H 	H 	0.33300 0.00560 0.63220 0.06400
H 	H 	0.76870 0.88190 0.37830 0.30200
H 	H 	0.16840 0.59910 0.14130 0.06500
H 	H 	0.01830 0.68990 0.12910 0.05400
H 	H 	0.19080 0.97870 0.53670 0.30800
H 	H 	0.58630 0.13660 0.61040 0.06800
H 	H 	0.52720 0.62980 0.15620 0.32000
H 	H 	0.71520 0.02120 0.19020 0.12900
H 	H 	0.63460 0.99610 0.52310 0.29800
H 	H 	0.89070 0.74830 0.48950 0.08400
H 	H 	0.59440 0.27860 0.98360 0.06600
H 	H 	0.80330 0.61040 0.86340 0.06700
H 	H 	0.83050 0.46330 0.97870 0.30300
H 	H 	0.74770 0.52050 0.95170 0.29500
H 	H 	0.52650 0.62700 0.01020 0.06300
H 	H 	0.03480 0.63220 0.99440 0.04400
H 	H 	0.40040 0.02080 0.81860 0.12900
H 	H 	0.43970 0.38070 0.88390 0.31000
H 	H 	0.60700 0.36810 0.44010 0.23700
H 	H 	0.16960 0.64510 0.86730 0.29600
H 	H 	0.02890 0.11810 0.62170 0.28600
H 	H 	0.73180 0.04830 0.52050 0.30300
H 	H 	0.30890 0.81560 0.49440 0.01800
C 	C 	0.49450 0.07140 0.50400 0.41200
C 	C 	0.18010 0.14340 0.50540 -0.34900
C 	C 	0.97930 0.90940 0.54740 -0.33800
C 	C 	0.55230 0.10610 0.63290 -0.12900
C 	C 	0.04400 0.98320 0.80620 -0.30600
C 	C 	0.05000 0.39560 0.92160 0.08100
C 	C 	0.83340 0.01680 0.19380 -0.27900
C 	C 	0.55120 0.04990 0.71950 0.11300
C 	C 	0.48050 0.73940 0.48960 0.04200
C 	C 	0.95250 0.64570 0.97210 -0.08700
C 	C 	0.21210 0.55710 0.87750 0.38900
C 	C 	0.43410 0.49600 0.07140 0.41200
C 	C 	0.16790 0.98510 0.30030 -0.08000
C 	C 	0.37950 0.39700 0.85400 -0.96800
C 	C 	0.93100 0.48200 0.63200 -0.69500
C 	C 	0.48920 0.50500 0.82060 0.19000
C 	C 	0.59290 0.54850 0.12490 0.42500
C 	C 	0.69020 0.82060 0.49500 0.20200
C 	C 	0.16400 0.49540 0.40860 1.15200
C 	C 	0.05360 0.30620 0.97500 -0.14800
C 	C 	0.13800 0.92690 0.38710 0.14800
C 	C 	0.72930 0.71950 0.95010 0.12600
C 	C 	0.42740 0.40860 0.50460 1.13800
C 	C 	0.38540 0.90450 0.31430 -0.06600
C 	C 	0.47330 0.54740 0.09060 -0.36000
C 	C 	0.71010 0.68570 0.90450 -0.08400
C 	C 	0.08550 0.49230 0.20070 -0.05900
C 	C 	0.67550 0.11270 0.37670 -0.12500
C 	C 	0.38800 0.08780 0.55680 -0.34100
C 	C 	0.05520 0.55680 0.91220 -0.34200
C 	C 	0.90310 0.32270 0.89490 -0.12000
C 	C 	0.36720 0.60440 0.07840 0.12700
C 	C 	0.31320 0.49750 0.03070 -0.94700
C 	C 	0.64020 0.02500 0.30620 -0.08400
C 	C 	0.31450 0.50540 0.85660 -0.35400
C 	C 	0.63050 0.60300 0.14600 -0.98000
C 	C 	0.21180 0.62330 0.11270 -0.12400
C 	C 	0.81480 0.63290 0.89390 -0.12000
C 	C 	0.45330 0.01490 0.69970 -0.08500
C 	C 	0.06800 0.50460 0.59140 1.10900
C 	C 	0.77420 0.10510 0.32270 -0.07800
C 	C 	0.87400 0.86000 0.38520 -0.93900
C 	C 	0.12070 0.67730 0.10510 -0.08100
C 	C 	0.53180 0.30030 0.01490 -0.08400
C 	C 	0.84140 0.50250 0.96930 -0.92400
C 	C 	0.77530 0.75990 0.49150 -0.16800
C 	C 	0.84550 0.49130 0.27770 -0.03500
C 	C 	0.26630 0.45150 0.87510 0.41800
C 	C 	0.16490 0.88730 0.62330 -0.10800
C 	C 	0.30030 0.31430 0.09550 -0.07300
C 	C 	0.93550 0.96570 0.63990 -0.08700
C 	C 	0.71380 0.20070 0.50770 -0.01300
C 	C 	0.02840 0.92160 0.60440 0.09200
C 	C 	0.09880 0.36010 0.96570 -0.07300
C 	C 	0.64670 0.44290 0.12250 0.39200
C 	C 	0.62650 0.50840 0.83060 -0.22300
C 	C 	0.95760 0.28680 0.93900 0.16500
C 	C 	0.57030 0.35430 0.02790 -0.12400
C 	C 	0.34060 0.59140 0.49540 1.13700
C 	C 	0.77850 0.50770 0.79930 0.00600
C 	C 	0.54290 0.83060 0.49160 -0.23700
C 	C 	0.66320 0.72230 0.49130 -0.02000
C 	C 	0.04500 0.51800 0.36800 -0.74700
C 	C 	0.18340 0.71320 0.06100 0.12000
C 	C 	0.46480 0.50850 0.75990 -0.16000
C 	C 	0.73320 0.49150 0.24010 -0.13600
C 	C 	0.54110 0.03430 0.36010 -0.11900
C 	C 	0.55440 0.07840 0.39560 0.12800
C 	C 	0.97280 0.19380 0.98320 -0.24600
C 	C 	0.10340 0.93900 0.71320 0.11500
C 	C 	0.26600 0.61480 0.86000 -0.90500
C 	C 	0.28220 0.12490 0.45150 0.42300
C 	C 	0.06990 0.92860 0.49600 0.40500
C 	C 	0.46930 0.18570 0.00890 -0.28100
C 	C 	0.58700 0.36800 0.48200 -0.72000
C 	C 	0.93750 0.02810 0.13710 0.45800
C 	C 	0.33480 0.69380 0.02500 -0.08800
C 	C 	0.94780 0.37670 0.88730 -0.07300
C 	C 	0.78010 0.51040 0.73940 0.04900
C 	C 	0.93510 0.61290 0.92690 0.12600
C 	C 	0.76650 0.85400 0.60300 -0.98200
C 	C 	0.84700 0.69970 0.98510 -0.11300
C 	C 	0.52420 0.44320 0.08780 -0.34300
C 	C 	0.00580 0.17940 0.50500 0.16500
C 	C 	0.97140 0.97500 0.69380 -0.09600
C 	C 	0.81480 0.49500 0.17940 0.14400
C 	C 	0.42220 0.79930 0.49230 0.01500
C 	C 	0.40800 0.12970 0.01410 0.47900
C 	C 	0.10270 0.97190 0.86290 0.44700
C 	C 	0.96550 0.49160 0.16940 -0.13100
C 	C 	0.66390 0.81430 0.99110 -0.28700
C 	C 	0.45200 0.07310 0.61290 0.13200
C 	C 	0.86510 0.16940 0.50840 -0.18600
C 	C 	0.92540 0.13710 0.97190 0.43100
C 	C 	0.43700 0.63200 0.51800 -0.72000
C 	C 	0.74080 0.38520 0.14000 -0.91400
C 	C 	0.87680 0.27770 0.50870 -0.01600
C 	C 	0.61450 0.50870 0.72230 -0.02700
C 	C 	0.00150 0.50400 0.92860 0.39100
C 	C 	0.03440 0.86290 0.02810 0.42700
C 	C 	0.07540 0.97210 0.35430 -0.15200
C 	C 	0.39890 0.28050 0.04990 0.11200
C 	C 	0.70950 0.26060 0.51040 0.05200
C 	C 	0.57790 0.01410 0.87030 0.47900
C 	C 	0.02990 0.48960 0.26060 0.06000
C 	C 	0.40180 0.02790 0.64570 -0.12300
C 	C 	0.23080 0.12250 0.55710 0.38700
C 	C 	0.75560 0.06100 0.28680 0.11900
C 	C 	0.65610 0.03070 0.50250 -0.94600
C 	C 	0.52180 0.00890 0.81430 -0.28000
C 	C 	0.02670 0.24010 0.50850 -0.16700
C 	C 	0.29130 0.89390 0.36710 -0.14300
C 	C 	0.91040 0.87750 0.44290 0.41700
C 	C 	0.42460 0.63990 0.03430 -0.11700
C 	C 	0.11130 0.45260 0.90940 -0.34200
C 	C 	0.22350 0.14600 0.39700 -0.97200
C 	C 	0.43610 0.09060 0.45260 -0.36000
C 	C 	0.32060 0.95010 0.28050 0.10600
C 	C 	0.14980 0.80620 0.01680 -0.26500
C 	C 	0.03260 0.91220 0.44320 -0.36300
C 	C 	0.85860 0.87510 0.54850 0.42800
C 	C 	0.55180 0.87030 0.98590 0.47600
C 	C 	0.11920 0.14000 0.61480 -0.89800
C 	C 	0.67650 0.49460 0.14340 -0.34100
C 	C 	0.34160 0.36710 0.10610 -0.13100
C 	C 	0.34500 0.99110 0.18570 -0.28700
C 	C 	0.20200 0.89490 0.67730 -0.09000
C 	C 	0.46230 0.98590 0.12970 0.47400
C 	C 	0.18930 0.96930 0.49750 -0.95400
C 	C 	0.82890 0.85660 0.49460 -0.36700
C 	C 	0.47490 0.38710 0.07310 0.13400
C 	C 	0.60420 0.09550 0.68570 -0.07500
O 	O 	0.42032 0.95555 0.22801 -0.14700
O 	O 	0.03469 0.00469 0.90393 -0.54600
O 	O 	0.22699 0.93420 0.86822 -0.45600
O 	O 	0.68961 0.04356 0.87242 -0.48200
O 	O 	0.11340 0.50230 0.55690 -1.16800
O 	O 	0.08534 0.76553 0.05819 -0.15900
O 	O 	0.62413 0.77199 0.95555 -0.15100
O 	O 	0.14913 0.94181 0.76553 -0.14900
O 	O 	0.90479 0.86822 0.06580 -0.44100
O 	O 	0.92900 0.50600 0.69600 -0.13100
O 	O 	0.50710 0.98743 0.91157 -0.54600
O 	O 	0.25400 0.00000 -0.00000 -0.70400
O 	O 	0.13100 0.49400 0.30400 -0.13500
O 	O 	0.26683 0.12758 0.04356 -0.48500
O 	O 	0.74600 0.00000 -0.00000 -0.69900
O 	O 	0.02941 0.06580 0.13178 -0.46500
O 	O 	0.37500 0.69600 0.49400 -0.13300
O 	O 	0.40610 0.01257 0.08843 -0.54000
O 	O 	0.06138 0.90393 0.99531 -0.54200
O 	O 	0.60559 0.95644 0.12758 -0.48300
O 	O 	0.17260 0.49770 0.44310 -1.19400
O 	O 	0.58133 0.91157 0.01257 -0.54100
O 	O 	0.90906 0.23447 0.94181 -0.16700
O 	O 	0.32970 0.55690 0.49770 -1.18200
O 	O 	0.56500 0.30400 0.50600 -0.13400
O 	O 	0.38430 0.44310 0.50230 -1.18300
O 	O 	0.94331 0.99531 0.09607 -0.54300
O 	O 	0.96062 0.09607 0.00469 -0.53000
O 	O 	0.43797 0.87242 0.95644 -0.48400
O 	O 	0.83881 0.13178 0.93420 -0.44800
O 	O 	0.60388 0.04445 0.77199 -0.14900
O 	O 	0.85647 0.05819 0.23447 -0.14800
O 	O 	0.50547 0.08843 0.98743 -0.54500
O 	O 	0.35167 0.22801 0.04445 -0.15000
