data_crystal

_cell_length_a 8.03550
_cell_length_b 23.42220
_cell_length_c 23.42220
_cell_angle_alpha 88.31390
_cell_angle_beta  80.12280
_cell_angle_gamma 80.12310

_symmetry_space_group_name_	'P 1'
_symmetry_space_group_name_H-M	'P 1'

loop_
_symmetry_equiv_pos_as_xyz
  x,y,z

loop_
_atom_site_label
_atom_site_type_symbol
_atom_site_fract_x
_atom_site_fract_y
_atom_site_fract_z
_atom_site_charge
Zn	Zn	0.14115 0.06228 0.05354 1.24300
Zn	Zn	0.80531 0.05354 0.93772 1.24500
Zn	Zn	0.25697 0.93772 0.94646 1.24400
Zn	Zn	0.50000 0.00000 -0.00000 1.22400
Zn	Zn	0.79657 0.94646 0.06228 1.24500
Fe	Fe	0.25000 0.50000 0.50000 1.19800
H 	H 	0.22600 0.70600 0.45780 0.07600
H 	H 	0.33850 0.00390 0.63150 0.05900
H 	H 	0.41960 0.37450 0.88030 0.29200
H 	H 	0.00160 0.16840 0.60920 0.29100
H 	H 	0.94340 0.39830 0.85130 0.06400
H 	H 	0.65760 0.36850 0.00390 0.05900
H 	H 	0.83540 0.13120 0.30680 0.06100
H 	H 	0.80510 0.36220 0.11140 0.29200
H 	H 	0.64370 0.69970 0.87790 0.06400
H 	H 	0.92180 0.00990 0.70970 0.06800
H 	H 	0.82940 0.82180 0.62200 0.29400
H 	H 	0.83000 0.39080 0.16840 0.29400
H 	H 	0.16240 0.37440 0.99140 0.05100
H 	H 	0.73620 0.05320 0.50000 0.31200
H 	H 	0.76380 0.50000 0.94680 0.30300
H 	H 	0.72970 0.00820 0.19880 0.11500
H 	H 	0.20590 0.11970 0.37450 0.29400
H 	H 	0.86570 0.74720 0.50920 0.08200
H 	H 	0.66150 0.00810 0.46790 0.31400
H 	H 	0.88530 0.21510 0.02790 0.10500
H 	H 	0.85780 0.30680 0.86880 0.07000
H 	H 	0.08810 0.17200 0.40920 0.30000
H 	H 	0.27870 0.63780 0.88860 0.28900
H 	H 	0.06830 0.29030 0.00990 0.07500
H 	H 	0.21060 0.50000 0.05320 0.31000
H 	H 	0.65190 0.50690 0.86570 0.05800
H 	H 	0.59010 0.28040 0.98360 0.07200
H 	H 	0.59690 0.52260 0.67060 0.09800
H 	H 	0.20530 0.85130 0.60170 0.06800
H 	H 	0.31620 0.45780 0.29400 0.07500
H 	H 	0.97390 0.99610 0.36850 0.06100
H 	H 	0.22130 0.30030 0.12210 0.06000
H 	H 	0.18090 0.99180 0.46420 0.30600
H 	H 	0.64340 0.79810 0.02970 0.11700
H 	H 	0.27320 0.17820 0.37800 0.29400
H 	H 	0.84620 0.99140 0.62560 0.05600
H 	H 	0.12830 0.78490 0.97210 0.10300
H 	H 	0.85410 0.71960 0.01640 0.08100
H 	H 	0.57500 0.14270 0.61250 0.06500
H 	H 	0.19300 0.60170 0.14870 0.07300
H 	H 	0.26210 0.80120 0.00820 0.11400
H 	H 	0.47840 0.87790 0.30030 0.06100
H 	H 	0.66930 0.82800 0.59080 0.30000
H 	H 	0.38710 0.49080 0.74720 0.08000
H 	H 	0.78100 0.81490 0.97890 0.11900
H 	H 	0.34880 0.37800 0.82180 0.29200
H 	H 	0.48240 0.86570 0.49310 0.05800
H 	H 	0.33040 0.53210 0.00810 0.31300
H 	H 	0.12210 0.25280 0.49080 0.08100
H 	H 	0.28940 0.94680 0.50000 0.30500
H 	H 	0.77920 0.83160 0.39080 0.29500
H 	H 	0.03000 0.63150 0.99610 0.04900
H 	H 	0.55850 0.97030 0.79810 0.11400
H 	H 	0.70010 0.88030 0.62550 0.29300
H 	H 	0.35490 0.46420 0.00820 0.31200
H 	H 	0.41790 0.28760 0.47400 0.07000
H 	H 	0.97010 0.83230 0.36230 0.29600
H 	H 	0.08350 0.11140 0.63780 0.28900
H 	H 	0.81250 0.61250 0.85730 0.06300
H 	H 	0.73250 0.67060 0.47740 0.09800
H 	H 	0.19700 0.49600 0.20560 0.06200
H 	H 	0.30700 0.79440 0.49600 0.05100
H 	H 	0.27340 0.86880 0.69320 0.06400
H 	H 	0.42630 0.98360 0.71960 0.07100
H 	H 	0.07150 0.19880 0.99180 0.10900
H 	H 	0.79010 0.47740 0.32940 0.10500
H 	H 	0.32690 0.02970 0.20190 0.11700
H 	H 	0.16470 0.16770 0.63770 0.29200
H 	H 	0.54860 0.62200 0.17820 0.29400
H 	H 	0.19760 0.63770 0.83230 0.29100
H 	H 	0.38920 0.60920 0.83160 0.29100
H 	H 	0.88050 0.32940 0.52260 0.09700
H 	H 	0.93670 0.99180 0.80120 0.12000
H 	H 	0.84120 0.13430 0.50690 0.05700
H 	H 	0.28230 0.38750 0.14270 0.06500
H 	H 	0.33020 0.85730 0.38750 0.06500
H 	H 	0.03340 0.69320 0.13120 0.06000
H 	H 	0.82730 0.53580 0.99180 0.30400
H 	H 	0.36850 0.70970 0.99010 0.06000
H 	H 	0.47120 0.20190 0.97030 0.11400
H 	H 	0.59740 0.20560 0.50400 0.05300
H 	H 	0.17950 0.71240 0.52600 0.06900
H 	H 	0.46320 0.00860 0.37440 0.06500
H 	H 	0.02450 0.49310 0.13430 0.04300
H 	H 	0.65660 0.12210 0.69970 0.06200
H 	H 	0.10810 0.47400 0.71240 0.07100
H 	H 	0.12950 0.01640 0.28040 0.07500
H 	H 	0.73990 0.59080 0.17200 0.30100
H 	H 	0.08680 0.02790 0.78490 0.10900
H 	H 	0.29450 0.52600 0.28760 0.06900
H 	H 	0.38980 0.29400 0.54220 0.07600
H 	H 	0.65830 0.14870 0.39830 0.07400
H 	H 	0.06800 0.54220 0.70600 0.07600
H 	H 	0.67440 0.62550 0.11970 0.29500
H 	H 	0.63690 0.00820 0.53580 0.31300
H 	H 	0.66760 0.36230 0.16770 0.29400
H 	H 	0.40410 0.02110 0.81490 0.11800
H 	H 	0.87060 0.46790 0.99190 0.30600
H 	H 	0.24010 0.97890 0.18510 0.11700
H 	H 	0.89960 0.97210 0.21510 0.10500
H 	H 	0.57480 0.18510 0.02110 0.11800
H 	H 	0.62510 0.50920 0.25280 0.07400
H 	H 	0.52820 0.62560 0.00860 0.06400
H 	H 	0.13750 0.99190 0.53210 0.30600
H 	H 	0.50270 0.40920 0.82800 0.29800
H 	H 	0.89860 0.50400 0.79440 0.05400
H 	H 	0.83270 0.88860 0.36220 0.29300
H 	H 	0.64140 0.99010 0.29030 0.05900
C 	C 	0.37110 0.60440 0.07940 0.14800
C 	C 	0.37310 0.09070 0.55730 -0.35000
C 	C 	0.85120 0.17330 0.50630 -0.13500
C 	C 	0.34910 0.98980 0.18860 -0.24100
C 	C 	0.97710 0.97680 0.68900 -0.09200
C 	C 	0.46230 0.18860 0.01020 -0.23600
C 	C 	0.95050 0.20050 0.99090 -0.21500
C 	C 	0.01450 0.50400 0.92680 0.40100
C 	C 	0.67580 0.70810 0.48630 -0.09100
C 	C 	0.13440 0.67890 0.10630 -0.07700
C 	C 	0.97730 0.90490 0.54850 -0.33800
C 	C 	0.96920 0.37630 0.88330 -0.10300
C 	C 	0.68530 0.49390 0.14750 -0.33000
C 	C 	0.47420 0.54850 0.09510 -0.35100
C 	C 	0.52870 0.30200 0.01540 -0.09800
C 	C 	0.72530 0.27530 0.51010 0.12800
C 	C 	0.74810 0.05990 0.28930 0.11400
C 	C 	0.42720 0.31210 0.50550 -0.11400
C 	C 	0.17690 0.96790 0.49830 -0.95700
C 	C 	0.48470 0.50200 0.75660 -0.11900
C 	C 	0.22220 0.12720 0.55800 0.38800
C 	C 	0.59430 0.54640 0.13100 0.38600
C 	C 	0.39580 0.28200 0.05100 0.12500
C 	C 	0.47620 0.38790 0.07710 0.12400
C 	C 	0.54300 0.11090 0.63350 -0.11700
C 	C 	0.10730 0.14530 0.61610 -0.88500
C 	C 	0.27470 0.13100 0.45360 0.38900
C 	C 	0.46490 0.98520 0.12920 0.46100
C 	C 	0.34610 0.36650 0.11090 -0.11700
C 	C 	0.30680 0.49930 0.37710 0.30600
C 	C 	0.33390 0.68900 0.02320 -0.07900
C 	C 	0.79070 0.50620 0.78440 -0.07800
C 	C 	0.05490 0.39560 0.92060 0.11900
C 	C 	0.06730 0.50550 0.68790 -0.11800
C 	C 	0.69530 0.81290 0.49450 0.14600
C 	C 	0.61610 0.51370 0.70810 -0.09200
C 	C 	0.84900 0.00910 0.20050 -0.22400
C 	C 	0.53080 0.82670 0.49370 -0.14200
C 	C 	0.13590 0.92290 0.38790 0.12500
C 	C 	0.19390 0.62290 0.49930 0.30700
C 	C 	0.45590 0.01540 0.69800 -0.09700
C 	C 	0.08130 0.49380 0.21560 -0.10800
C 	C 	0.49180 0.50550 0.81290 0.14300
C 	C 	0.64310 0.03210 0.50170 -0.97500
C 	C 	0.42490 0.78440 0.49380 -0.07700
C 	C 	0.18670 0.89370 0.67890 -0.08600
C 	C 	0.05860 0.99090 0.79950 -0.23600
C 	C 	0.55320 0.05100 0.71800 0.12500
C 	C 	0.81020 0.49450 0.18710 0.12500
C 	C 	0.14750 0.88330 0.62370 -0.12100
C 	C 	0.93600 0.96690 0.63850 -0.10900
C 	C 	0.07670 0.97220 0.35440 -0.10900
C 	C 	0.30950 0.31450 0.09790 -0.08500
C 	C 	0.32480 0.49830 0.03210 -0.97200
C 	C 	0.97550 0.49370 0.17330 -0.10700
C 	C 	0.57930 0.01480 0.87080 0.46500
C 	C 	0.31610 0.37710 0.50070 0.30700
C 	C 	0.94120 0.61210 0.92290 0.11700
C 	C 	0.28740 0.88910 0.36650 -0.11800
C 	C 	0.75930 0.10630 0.32110 -0.07500
C 	C 	0.40590 0.12920 0.01480 0.46400
C 	C 	0.53620 0.44270 0.09070 -0.34800
C 	C 	0.83790 0.48630 0.29190 -0.11000
C 	C 	0.75870 0.75660 0.49800 -0.12100
C 	C 	0.85930 0.86900 0.54640 0.38400
C 	C 	0.03020 0.86070 0.02170 0.40500
C 	C 	0.85520 0.50170 0.96790 -0.94700
C 	C 	0.42550 0.63850 0.03310 -0.12900
C 	C 	0.70310 0.21560 0.50620 -0.07900
C 	C 	0.74330 0.49800 0.24340 -0.10300
C 	C 	0.82350 0.63350 0.88910 -0.10800
C 	C 	0.65060 0.44200 0.12720 0.38700
C 	C 	0.86870 0.85470 0.38390 -0.89300
C 	C 	0.09710 0.36150 0.96690 -0.09600
C 	C 	0.90740 0.87280 0.44200 0.39400
C 	C 	0.16930 0.98460 0.30200 -0.10300
C 	C 	0.32670 0.50610 0.85250 -0.33300
C 	C 	0.94810 0.02170 0.13930 0.41700
C 	C 	0.11780 0.45150 0.90490 -0.33800
C 	C 	0.72190 0.68550 0.90210 -0.09300
C 	C 	0.65450 0.11670 0.37630 -0.13500
C 	C 	0.18320 0.50070 0.62290 0.30700
C 	C 	0.74740 0.38390 0.14530 -0.88700
C 	C 	0.56890 0.35440 0.02780 -0.10300
C 	C 	0.10910 0.97830 0.86070 0.41100
C 	C 	0.75450 0.84780 0.60120 -0.89700
C 	C 	0.54950 0.07940 0.39560 0.15000
C 	C 	0.02110 0.90930 0.44270 -0.35200
C 	C 	0.00270 0.18710 0.50550 0.14100
C 	C 	0.84610 0.69800 0.98460 -0.11600
C 	C 	0.59260 0.09790 0.68550 -0.08400
C 	C 	0.76460 0.51010 0.72470 0.12900
C 	C 	0.24480 0.68790 0.49450 -0.11300
C 	C 	0.02450 0.92060 0.60440 0.12900
C 	C 	0.72880 0.71800 0.94900 0.13400
C 	C 	0.52750 0.01020 0.81140 -0.23600
C 	C 	0.51070 0.72470 0.48990 0.12800
C 	C 	0.40330 0.02780 0.64560 -0.10400
C 	C 	0.16720 0.14750 0.50610 -0.33800
C 	C 	0.54140 0.03310 0.36150 -0.13200
C 	C 	0.37600 0.90210 0.31450 -0.08500
C 	C 	0.66110 0.81140 0.98980 -0.24000
C 	C 	0.82080 0.85250 0.49390 -0.33800
C 	C 	0.14190 0.79950 0.00910 -0.21900
C 	C 	0.32220 0.94900 0.28200 0.12600
C 	C 	0.22880 0.62370 0.11670 -0.13300
C 	C 	0.27660 0.61610 0.85470 -0.88100
C 	C 	0.20350 0.15220 0.39880 -0.90000
C 	C 	0.21980 0.55800 0.87280 0.38400
C 	C 	0.27170 0.45360 0.86900 0.38000
C 	C 	0.99940 0.48990 0.27530 0.15100
C 	C 	0.06960 0.55730 0.90930 -0.34400
C 	C 	0.09730 0.94010 0.71070 0.12000
C 	C 	0.44670 0.07710 0.61210 0.12400
C 	C 	0.64290 0.02320 0.31100 -0.07500
C 	C 	0.64430 0.60120 0.15220 -0.89900
C 	C 	0.19200 0.71070 0.05990 0.11600
C 	C 	0.91960 0.32110 0.89370 -0.10200
C 	C 	0.44530 0.49600 0.07320 0.41600
C 	C 	0.87020 0.29190 0.51370 -0.08700
C 	C 	0.01330 0.24340 0.50200 -0.12400
C 	C 	0.43070 0.09510 0.45150 -0.35300
C 	C 	0.48150 0.07320 0.50400 0.41800
C 	C 	0.54990 0.87080 0.98520 0.46200
C 	C 	0.05870 0.92680 0.49600 0.40600
C 	C 	0.91260 0.13930 0.97830 0.40600
C 	C 	0.96260 0.28930 0.94010 0.14300
C 	C 	0.39770 0.39880 0.84780 -0.89200
C 	C 	0.95110 0.64560 0.97220 -0.08500
C 	C 	0.04610 0.31100 0.97680 -0.11900
C 	C 	0.64250 0.50630 0.82670 -0.14000
C 	C 	0.26070 0.49450 0.31210 -0.11000
O 	O 	0.15530 0.94470 0.76330 -0.15500
O 	O 	0.34760 0.22940 0.04560 -0.15700
O 	O 	0.15560 0.37220 0.51060 -0.26600
O 	O 	0.43710 0.87180 0.95420 -0.48300
O 	O 	0.22290 0.93820 0.86660 -0.46100
O 	O 	0.95380 0.98500 0.09920 -0.51600
O 	O 	0.31360 0.57950 0.49130 -0.38800
O 	O 	0.42220 0.67720 0.49840 -0.16700
O 	O 	0.38440 0.42050 0.50870 -0.38900
O 	O 	0.91050 0.86660 0.06180 -0.45600
O 	O 	0.03800 0.01500 0.90080 -0.51600
O 	O 	0.06120 0.90080 0.98500 -0.51600
O 	O 	0.62260 0.77060 0.95440 -0.15800
O 	O 	0.10690 0.50870 0.57950 -0.39000
O 	O 	0.03840 0.62780 0.48940 -0.26700
O 	O 	0.42300 0.95440 0.22940 -0.15600
O 	O 	0.50510 0.98940 0.91180 -0.55600
O 	O 	0.90000 0.23670 0.94470 -0.16300
O 	O 	0.02770 0.06180 0.13340 -0.46500
O 	O 	0.60870 0.95420 0.12820 -0.48300
O 	O 	0.24470 0.00000 -0.00000 -0.67900
O 	O 	0.40630 0.01060 0.08820 -0.55200
O 	O 	0.07940 0.49840 0.32280 -0.17400
O 	O 	0.47220 0.48940 0.37220 -0.26500
O 	O 	0.69110 0.04580 0.87180 -0.48300
O 	O 	0.86330 0.05530 0.23670 -0.15400
O 	O 	0.26310 0.12820 0.04580 -0.48400
O 	O 	0.83890 0.13340 0.93820 -0.45800
O 	O 	0.08140 0.76330 0.05530 -0.15800
O 	O 	0.75530 0.00000 -0.00000 -0.67800
O 	O 	0.19510 0.49130 0.42050 -0.38900
O 	O 	0.59780 0.32280 0.50160 -0.16600
O 	O 	0.58310 0.91180 0.01060 -0.55300
O 	O 	0.60680 0.04560 0.77060 -0.15600
O 	O 	0.94700 0.09920 0.01500 -0.51100
O 	O 	0.50550 0.08820 0.98940 -0.55500
O 	O 	0.33380 0.51060 0.62780 -0.26500
O 	O 	0.90060 0.50160 0.67720 -0.16300
