data_crystal

_cell_length_a 7.58830
_cell_length_b 15.78380
_cell_length_c 15.78380
_cell_angle_alpha 94.28250
_cell_angle_beta  99.47870
_cell_angle_gamma 99.47870

_symmetry_space_group_name_	'P 1'
_symmetry_space_group_name_H-M	'P 1'

loop_
_symmetry_equiv_pos_as_xyz
  x,y,z

loop_
_atom_site_label
_atom_site_type_symbol
_atom_site_fract_x
_atom_site_fract_y
_atom_site_fract_z
_atom_site_charge
Zn	Zn	0.20158 0.50695 0.62315 1.24500
Zn	Zn	0.70158 0.62315 0.50695 1.24400
H 	H 	0.96220 0.30480 0.40800 0.10500
H 	H 	0.62540 0.24890 0.86890 0.07100
H 	H 	0.76070 0.64960 0.73280 0.13400
H 	H 	0.65290 0.02310 0.31730 0.24500
H 	H 	0.61390 0.07190 0.80050 0.04400
H 	H 	0.35870 0.92320 0.18160 0.04300
H 	H 	0.23300 0.04480 0.11080 0.20300
H 	H 	0.99310 0.18600 0.15880 0.03000
H 	H 	0.03840 0.13120 0.75940 0.29500
H 	H 	0.72140 0.87930 0.91670 0.05300
H 	H 	0.89700 0.72130 0.70110 0.13100
H 	H 	0.17760 0.07330 0.73770 0.29600
H 	H 	0.70120 0.80820 0.32820 0.07400
H 	H 	0.31910 0.31520 0.09600 0.24200
H 	H 	0.49310 0.15880 0.18600 0.03900
H 	H 	0.67760 0.73770 0.07330 0.29300
H 	H 	0.72490 0.32690 0.04530 0.05000
H 	H 	0.17100 0.85150 0.46990 0.08800
H 	H 	0.73300 0.11080 0.04480 0.20300
H 	H 	0.39430 0.16820 0.40640 0.08700
H 	H 	0.89430 0.40640 0.16820 0.08400
H 	H 	0.47250 0.75250 0.40030 0.07000
H 	H 	0.15290 0.31730 0.02310 0.24900
H 	H 	0.97250 0.40030 0.75250 0.07000
H 	H 	0.22140 0.91670 0.87930 0.05400
H 	H 	0.85870 0.18160 0.92320 0.04500
H 	H 	0.08250 0.06030 0.03570 0.20800
H 	H 	0.58250 0.03570 0.06030 0.20700
H 	H 	0.28200 0.41680 0.33940 0.11300
H 	H 	0.65700 0.03290 0.97350 0.18300
H 	H 	0.39700 0.70110 0.72130 0.13400
H 	H 	0.78200 0.33940 0.41680 0.11300
H 	H 	0.26070 0.73280 0.64960 0.13700
H 	H 	0.20120 0.32820 0.80820 0.07400
H 	H 	0.53840 0.75940 0.13120 0.29100
H 	H 	0.15700 0.97350 0.03290 0.18500
H 	H 	0.34640 0.36640 0.01640 0.24800
H 	H 	0.84640 0.01640 0.36640 0.24400
H 	H 	0.76290 0.78850 0.80390 0.07900
H 	H 	0.81910 0.09600 0.31520 0.23800
H 	H 	0.15300 0.70690 0.96150 0.07400
H 	H 	0.67100 0.46990 0.85150 0.08900
H 	H 	0.26120 0.77000 0.48320 0.10000
H 	H 	0.02570 0.03810 0.78910 0.29200
H 	H 	0.46220 0.40800 0.30480 0.10600
H 	H 	0.66750 0.23420 0.30980 0.07700
H 	H 	0.52570 0.78910 0.03810 0.28800
H 	H 	0.12540 0.86890 0.24890 0.07400
H 	H 	0.65300 0.96150 0.70690 0.07400
H 	H 	0.26290 0.80390 0.78850 0.08200
H 	H 	0.16750 0.30980 0.23420 0.08200
H 	H 	0.11390 0.80050 0.07190 0.04400
H 	H 	0.76120 0.48320 0.77000 0.10100
H 	H 	0.22490 0.04530 0.32690 0.05000
C 	C 	0.31780 0.23490 0.98650 0.21900
C 	C 	0.10710 0.08860 0.77980 -0.86400
C 	C 	0.95740 0.02040 0.19380 -0.15700
C 	C 	0.40670 0.00700 0.84800 0.09900
C 	C 	0.05490 0.24620 0.87120 0.08900
C 	C 	0.73300 0.86410 0.12510 0.32000
C 	C 	0.20320 0.20100 0.90800 -0.24500
C 	C 	0.08540 0.31220 0.82060 -0.08500
C 	C 	0.28060 0.31600 0.03500 -0.70000
C 	C 	0.44880 0.78700 0.35600 -0.09500
C 	C 	0.80840 0.84430 0.92650 -0.10900
C 	C 	0.49410 0.49470 0.74810 0.36300
C 	C 	0.99410 0.74810 0.49470 0.35600
C 	C 	0.07270 0.18210 0.20930 -0.02600
C 	C 	0.96240 0.73810 0.87050 0.14000
C 	C 	0.79360 0.32940 0.25100 0.16200
C 	C 	0.30840 0.92650 0.84430 -0.10800
C 	C 	0.94460 0.59900 0.67140 0.45000
C 	C 	0.65270 0.45610 0.78930 -0.17100
C 	C 	0.98320 0.97890 0.11710 0.18800
C 	C 	0.74110 0.26570 0.85670 -0.10600
C 	C 	0.38190 0.88830 0.22550 -0.08400
C 	C 	0.12680 0.01790 0.06990 -0.56700
C 	C 	0.90670 0.84800 0.00700 0.09200
C 	C 	0.88190 0.22550 0.88830 -0.09400
C 	C 	0.62680 0.06990 0.01790 -0.57000
C 	C 	0.24110 0.85670 0.26570 -0.10900
C 	C 	0.77700 0.33200 0.80620 0.13600
C 	C 	0.40360 0.40450 0.35490 -0.18700
C 	C 	0.45740 0.19380 0.02040 -0.15600
C 	C 	0.51590 0.46960 0.43220 0.39200
C 	C 	0.37070 0.08420 0.89840 -0.24200
C 	C 	0.83350 0.79000 0.85820 -0.10900
C 	C 	0.04010 0.79700 0.01800 -0.03800
C 	C 	0.23300 0.12510 0.86410 0.32600
C 	C 	0.67630 0.25420 0.25640 -0.13600
C 	C 	0.70900 0.30920 0.09880 -0.04700
C 	C 	0.15270 0.78930 0.45610 -0.16300
C 	C 	0.29360 0.25100 0.32940 0.16800
C 	C 	0.81270 0.35670 0.17210 -0.13400
C 	C 	0.01590 0.43220 0.46960 0.39800
C 	C 	0.08290 0.10170 0.23670 0.04100
C 	C 	0.94880 0.35600 0.78700 -0.10200
C 	C 	0.46240 0.87050 0.73810 0.14800
C 	C 	0.60710 0.77980 0.08860 -0.85600
C 	C 	0.78060 0.03500 0.31600 -0.69400
C 	C 	0.20900 0.09880 0.30920 -0.04200
C 	C 	0.54010 0.01800 0.79700 -0.04500
C 	C 	0.56580 0.95170 0.74190 -0.14800
C 	C 	0.87070 0.89840 0.08420 -0.23900
C 	C 	0.44460 0.67140 0.59900 0.46000
C 	C 	0.31270 0.17210 0.35670 -0.13800
C 	C 	0.81780 0.98650 0.23490 0.21600
C 	C 	0.90360 0.35490 0.40450 -0.19400
C 	C 	0.57270 0.20930 0.18210 -0.04100
C 	C 	0.58290 0.23670 0.10170 0.04300
C 	C 	0.55490 0.87120 0.24620 0.08300
C 	C 	0.06580 0.74190 0.95170 -0.14100
C 	C 	0.27700 0.80620 0.33200 0.13700
C 	C 	0.58540 0.82060 0.31220 -0.09100
C 	C 	0.48320 0.11710 0.97890 0.19300
C 	C 	0.70320 0.90800 0.20100 -0.24200
C 	C 	0.17630 0.25640 0.25420 -0.14500
C 	C 	0.33350 0.85820 0.79000 -0.11000
C 	C 	0.38650 0.72740 0.66740 -0.28400
C 	C 	0.88650 0.66740 0.72740 -0.27900
O 	O 	0.49770 0.57080 0.76840 -0.32600
O 	O 	0.07560 0.56540 0.70340 -0.45800
O 	O 	0.06530 0.40990 0.54210 -0.45000
O 	O 	0.86030 0.57880 0.59660 -0.51400
O 	O 	0.36030 0.59660 0.57880 -0.51400
O 	O 	0.56530 0.54210 0.40990 -0.45100
O 	O 	0.87070 0.69370 0.44470 -0.41100
O 	O 	0.89710 0.38460 0.32020 -0.17000
O 	O 	0.99850 0.67950 0.80950 -0.15300
O 	O 	0.53900 0.44670 0.50410 -0.30700
O 	O 	0.49850 0.80950 0.67950 -0.15000
O 	O 	0.39710 0.32020 0.38460 -0.17000
O 	O 	0.13290 0.77170 0.36970 -0.15900
O 	O 	0.03900 0.50410 0.44670 -0.30500
O 	O 	0.63290 0.36970 0.77170 -0.15900
O 	O 	0.99770 0.76840 0.57080 -0.32700
O 	O 	0.57560 0.70340 0.56540 -0.46600
O 	O 	0.37070 0.44470 0.69370 -0.41000
