data_crystal

_cell_length_a 14.82280
_cell_length_b 14.82280
_cell_length_c 11.79190
_cell_angle_alpha 90.00000
_cell_angle_beta  90.00000
_cell_angle_gamma 90.00000

_symmetry_space_group_name_	'P 1'
_symmetry_space_group_name_H-M	'P 1'

loop_
_symmetry_equiv_pos_as_xyz
  x,y,z

loop_
_atom_site_label
_atom_site_type_symbol
_atom_site_fract_x
_atom_site_fract_y
_atom_site_fract_z
_atom_site_charge
O 	O 	0.60387 0.28645 0.75390 -0.67900
O 	O 	0.62488 0.37919 0.60604 -0.62800
C 	C 	0.58992 0.35603 0.69874 0.52200
C 	C 	0.53881 0.42876 0.76206 -0.10200
C 	C 	0.53767 0.42905 0.88125 -0.06200
H 	H 	0.57318 0.38162 0.90735 0.08400
O 	O 	0.10387 0.78645 0.25390 -0.69600
O 	O 	0.12488 0.87919 0.10604 -0.65400
C 	C 	0.08992 0.85603 0.19874 0.53700
C 	C 	0.03881 0.92876 0.26206 -0.14500
C 	C 	0.03767 0.92905 0.38125 0.06500
H 	H 	0.07318 0.88162 0.40735 0.02100
O 	O 	0.89613 0.21355 0.25390 -0.69600
O 	O 	0.87512 0.12081 0.10604 -0.65900
C 	C 	0.91008 0.14397 0.19874 0.53800
C 	C 	0.96119 0.07124 0.26206 -0.15500
C 	C 	0.96233 0.07095 0.38125 0.05000
H 	H 	0.92682 0.11838 0.40735 0.02400
O 	O 	0.39613 0.71355 0.75390 -0.67700
O 	O 	0.37512 0.62081 0.60604 -0.63000
C 	C 	0.41008 0.64397 0.69874 0.52200
C 	C 	0.46119 0.57124 0.76206 -0.10200
C 	C 	0.46233 0.57095 0.88125 -0.06100
H 	H 	0.42682 0.61838 0.90735 0.08500
O 	O 	0.71355 0.10387 0.00390 -0.82200
O 	O 	0.62081 0.12488 0.85604 -0.69500
C 	C 	0.64397 0.08992 0.94874 0.81900
C 	C 	0.57124 0.03881 0.01206 -0.57400
C 	C 	0.57095 0.03767 0.13125 0.32200
H 	H 	0.61838 0.07318 0.15735 -0.07200
O 	O 	0.21355 0.60387 0.50390 -0.69700
O 	O 	0.12081 0.62488 0.35604 -0.64700
C 	C 	0.14397 0.58992 0.44874 0.55700
C 	C 	0.07124 0.53881 0.51206 -0.20500
C 	C 	0.07095 0.53767 0.63125 0.11700
H 	H 	0.11838 0.57318 0.65735 0.00000
O 	O 	0.78645 0.39613 0.50390 -0.69500
O 	O 	0.87919 0.37512 0.35604 -0.64500
C 	C 	0.85603 0.41008 0.44874 0.55700
C 	C 	0.92876 0.46119 0.51206 -0.19700
C 	C 	0.92905 0.46233 0.63125 0.12900
H 	H 	0.88162 0.42682 0.65735 -0.00200
O 	O 	0.28645 0.89613 0.00390 -0.82100
O 	O 	0.37919 0.87512 0.85604 -0.68800
C 	C 	0.35603 0.91008 0.94874 0.82500
C 	C 	0.42876 0.96119 0.01206 -0.55900
C 	C 	0.42905 0.96233 0.13125 0.34900
H 	H 	0.38162 0.92682 0.15735 -0.07700
O 	O 	0.89613 0.28645 0.99610 -0.55800
O 	O 	0.87512 0.37919 0.14396 -0.57400
C 	C 	0.91008 0.35603 0.05126 0.25200
C 	C 	0.96119 0.42876 0.98794 0.28000
C 	C 	0.96233 0.42905 0.86875 -0.25700
H 	H 	0.92682 0.38162 0.84265 0.13300
O 	O 	0.39613 0.78645 0.49610 -0.68500
O 	O 	0.37512 0.87919 0.64396 -0.61800
C 	C 	0.41008 0.85603 0.55126 0.51800
C 	C 	0.46119 0.92876 0.48794 -0.08300
C 	C 	0.46233 0.92905 0.36875 -0.03400
H 	H 	0.42682 0.88162 0.34265 0.05700
O 	O 	0.60387 0.21355 0.49610 -0.68800
O 	O 	0.62488 0.12081 0.64396 -0.62600
C 	C 	0.58992 0.14397 0.55126 0.51900
C 	C 	0.53881 0.07124 0.48794 -0.10300
C 	C 	0.53767 0.07095 0.36875 -0.05900
H 	H 	0.57318 0.11838 0.34265 0.06100
O 	O 	0.10387 0.71355 0.99610 -0.55800
O 	O 	0.12488 0.62081 0.14396 -0.57800
C 	C 	0.08992 0.64397 0.05126 0.25300
C 	C 	0.03881 0.57124 0.98794 0.27100
C 	C 	0.03767 0.57095 0.86875 -0.26800
H 	H 	0.07318 0.61838 0.84265 0.13500
O 	O 	0.78645 0.10387 0.74610 -0.68600
O 	O 	0.87919 0.12488 0.89396 -0.60800
C 	C 	0.85603 0.08992 0.80126 0.53000
C 	C 	0.92876 0.03881 0.73794 -0.12500
C 	C 	0.92905 0.03767 0.61875 0.02900
H 	H 	0.88162 0.07318 0.59265 0.03100
O 	O 	0.28645 0.60387 0.24610 -0.70600
O 	O 	0.37919 0.62488 0.39396 -0.64200
C 	C 	0.35603 0.58992 0.30126 0.56000
C 	C 	0.42876 0.53881 0.23794 -0.21500
C 	C 	0.42905 0.53767 0.11875 0.11800
H 	H 	0.38162 0.57318 0.09265 -0.02000
O 	O 	0.71355 0.39613 0.24610 -0.70500
O 	O 	0.62081 0.37512 0.39396 -0.64300
C 	C 	0.64397 0.41008 0.30126 0.56100
C 	C 	0.57124 0.46119 0.23794 -0.21400
C 	C 	0.57095 0.46233 0.11875 0.11900
H 	H 	0.61838 0.42682 0.09265 -0.02000
O 	O 	0.21355 0.89613 0.74610 -0.68200
O 	O 	0.12081 0.87512 0.89396 -0.60400
C 	C 	0.14397 0.91008 0.80126 0.53000
C 	C 	0.07124 0.96119 0.73794 -0.11200
C 	C 	0.07095 0.96233 0.61875 0.04600
H 	H 	0.11838 0.92682 0.59265 0.02900
Al	Al	0.69415 0.30585 0.50000 2.39600
Al	Al	0.19415 0.80585 -0.00000 2.39200
Al	Al	0.80585 0.19415 -0.00000 2.39200
Al	Al	0.30585 0.69415 0.50000 2.39600
Al	Al	0.69415 0.19415 0.75000 2.39700
Al	Al	0.19415 0.69415 0.25000 2.39600
Al	Al	0.80585 0.30585 0.25000 2.39600
Al	Al	0.30585 0.80585 0.75000 2.39700
O 	O 	0.75552 0.25000 0.62500 -1.12200
H 	H 	0.81486 0.25000 0.62500 0.37000
O 	O 	0.25552 0.75000 0.12500 -1.13500
H 	H 	0.31486 0.75000 0.12500 0.36600
O 	O 	0.74448 0.25000 0.12500 -1.13500
H 	H 	0.68514 0.25000 0.12500 0.36500
O 	O 	0.24448 0.75000 0.62500 -1.12200
H 	H 	0.18514 0.75000 0.62500 0.37000
O 	O 	0.75000 0.25552 0.87500 -1.10700
H 	H 	0.75000 0.31486 0.87500 0.37500
O 	O 	0.25000 0.75552 0.37500 -1.12300
H 	H 	0.25000 0.81486 0.37500 0.37200
O 	O 	0.75000 0.24448 0.37500 -1.12300
H 	H 	0.75000 0.18514 0.37500 0.37000
O 	O 	0.25000 0.74448 0.87500 -1.10700
H 	H 	0.25000 0.68514 0.87500 0.37400
C 	C 	0.50000 0.50000 0.70562 0.06100
C 	C 	0.50000 0.50000 0.93719 0.15200
H 	H 	0.50000 0.50000 0.62900 0.05400
C 	C 	0.00000 0.00000 0.20562 0.07000
C 	C 	0.00000 0.00000 0.43719 -0.06200
H 	H 	0.00000 0.00000 0.12900 0.02400
C 	C 	0.50000 0.00000 0.95562 0.62000
C 	C 	0.50000 0.00000 0.18719 -0.29600
H 	H 	0.50000 0.00000 0.87900 -0.14400
C 	C 	0.00000 0.50000 0.45562 0.14700
C 	C 	0.00000 0.50000 0.68719 -0.15800
H 	H 	0.00000 0.50000 0.37900 0.01300
C 	C 	0.00000 0.50000 0.04438 -0.45400
C 	C 	0.00000 0.50000 0.81281 0.22900
H 	H 	0.00000 0.50000 0.12100 0.22300
C 	C 	0.50000 0.00000 0.54438 0.02000
C 	C 	0.50000 0.00000 0.31281 0.08700
H 	H 	0.50000 0.00000 0.62100 0.06700
C 	C 	0.00000 0.00000 0.79438 0.03800
C 	C 	0.00000 0.00000 0.56281 -0.04100
H 	H 	0.00000 0.00000 0.87100 0.06500
C 	C 	0.50000 0.50000 0.29438 0.16400
C 	C 	0.50000 0.50000 0.06281 -0.18700
H 	H 	0.50000 0.50000 0.37100 0.01600
