data_crystal

_cell_length_a 11.77850
_cell_length_b 12.00490
_cell_length_c 12.00490
_cell_angle_alpha 76.07450
_cell_angle_beta  60.62190
_cell_angle_gamma 60.62190

_symmetry_space_group_name_	'P 1'
_symmetry_space_group_name_H-M	'P 1'

loop_
_symmetry_equiv_pos_as_xyz
  x,y,z

loop_
_atom_site_label
_atom_site_type_symbol
_atom_site_fract_x
_atom_site_fract_y
_atom_site_fract_z
_atom_site_charge
Al	Al	0.19440 0.00000 0.61120 2.38800
Al	Al	0.44440 0.11120 0.50000 2.39000
Al	Al	0.80560 0.00000 0.38880 2.38800
Al	Al	0.05560 0.88880 0.50000 2.40600
H 	H 	0.14172 0.50000 0.50000 0.03900
H 	H 	0.34664 0.95005 0.19623 0.02600
H 	H 	0.35828 0.50000 0.50000 0.03100
H 	H 	0.89172 0.00000 -0.00000 0.05600
H 	H 	0.44182 0.93318 0.43318 0.35100
H 	H 	0.70331 0.95005 0.80377 0.02200
H 	H 	0.90336 0.30377 0.54995 -0.00500
H 	H 	0.75708 0.69623 0.45005 0.02000
H 	H 	0.10828 0.00000 -0.00000 0.02600
H 	H 	0.45713 0.04995 0.19623 -0.02500
H 	H 	0.62500 0.93318 0.56682 0.35000
H 	H 	0.12500 0.06682 0.43318 0.31500
H 	H 	0.79287 0.30377 0.45005 0.01100
H 	H 	0.80818 0.06682 0.56682 0.32000
H 	H 	0.49292 0.04995 0.80377 -0.02100
H 	H 	0.54669 0.69623 0.54995 0.02100
C 	C 	0.10123 0.95717 0.23143 0.72300
C 	C 	0.43446 0.00000 -0.00000 -0.17100
C 	C 	0.58266 0.26857 0.45717 0.62000
C 	C 	0.57694 0.38801 0.47149 -0.23600
C 	C 	0.28983 0.04283 0.76857 0.34100
C 	C 	0.67306 0.02851 0.11199 -0.14300
C 	C 	0.91653 0.38801 0.52851 0.16900
C 	C 	0.68446 0.50000 0.50000 -0.03100
C 	C 	0.96017 0.73143 0.45717 0.68900
C 	C 	0.69504 0.97149 0.88801 0.26700
C 	C 	0.03505 0.38801 0.52851 -0.31500
C 	C 	0.14877 0.26857 0.54283 0.63800
C 	C 	0.55496 0.61199 0.52851 0.07500
C 	C 	0.56554 0.00000 -0.00000 -0.19000
C 	C 	0.81356 0.97149 0.88801 -0.14500
C 	C 	0.43644 0.61199 0.52851 -0.22600
C 	C 	0.33347 0.97149 0.11199 0.24600
C 	C 	0.05257 0.50000 0.50000 0.11200
C 	C 	0.44743 0.50000 0.50000 0.16500
C 	C 	0.94160 0.95717 0.76857 0.90800
C 	C 	0.95157 0.61199 0.47149 -0.17600
C 	C 	0.83305 0.61199 0.47149 0.08600
C 	C 	0.69546 0.38801 0.47149 0.07400
C 	C 	0.21495 0.97149 0.11199 -0.09600
C 	C 	0.30840 0.73143 0.54283 0.60400
C 	C 	0.55454 0.02851 0.11199 0.04100
C 	C 	0.29843 0.02851 0.88801 -0.15500
C 	C 	0.66734 0.04283 0.23143 0.33800
C 	C 	0.19743 0.00000 -0.00000 -0.05600
C 	C 	0.41695 0.02851 0.88801 0.01300
C 	C 	0.81554 0.50000 0.50000 -0.05900
C 	C 	0.80257 0.00000 -0.00000 -0.02900
O 	O 	0.22532 0.99375 0.75569 -0.40200
O 	O 	0.62500 0.99402 0.50598 -0.96200
O 	O 	0.23101 0.74431 0.49375 -0.62900
O 	O 	0.02468 0.74431 0.50625 -0.70400
O 	O 	0.46907 0.25569 0.50625 -0.68000
O 	O 	0.97476 0.00625 0.24431 -0.77900
O 	O 	0.54886 0.10419 0.32099 -0.70600
O 	O 	0.34695 0.10419 0.67901 -0.71100
O 	O 	0.11985 0.17901 0.60419 -0.78400
O 	O 	0.27596 0.82099 0.60419 -0.67900
O 	O 	0.13015 0.89581 0.32099 -0.71000
O 	O 	0.38098 0.99402 0.49402 -0.96500
O 	O 	0.78093 0.99375 0.24431 -0.37800
O 	O 	0.70114 0.17901 0.39581 -0.75900
O 	O 	0.01899 0.00625 0.75569 -0.93100
O 	O 	0.86902 0.00598 0.50598 -1.16100
O 	O 	0.97404 0.89581 0.67901 -0.69500
O 	O 	0.12500 0.00598 0.49402 -1.19800
O 	O 	0.90305 0.82099 0.39581 -0.67200
O 	O 	0.27524 0.25569 0.49375 -0.68500
