data_crystal

_cell_length_a 8.22210
_cell_length_b 9.44100
_cell_length_c 11.93200
_cell_angle_alpha 90.00000
_cell_angle_beta  90.00000
_cell_angle_gamma 90.00000

_symmetry_space_group_name_	'P 1'
_symmetry_space_group_name_H-M	'P 1'

loop_
_symmetry_equiv_pos_as_xyz
  x,y,z

loop_
_atom_site_label
_atom_site_type_symbol
_atom_site_fract_x
_atom_site_fract_y
_atom_site_fract_z
_atom_site_charge
Ag	Ag	0.29460 0.11060 0.18180 0.49400
Ag	Ag	0.79460 0.88940 0.81820 0.49600
Ag	Ag	0.29460 0.38940 0.68180 0.49500
Ag	Ag	0.79460 0.61060 0.31820 0.49800
H 	H 	0.26720 0.20930 0.44470 -0.04400
H 	H 	0.56150 0.32100 0.20690 -0.03300
H 	H 	0.54090 0.53510 0.51690 -0.03400
H 	H 	0.76720 0.79070 0.55530 -0.04200
H 	H 	0.06150 0.67900 0.79310 -0.03300
H 	H 	0.04090 0.46490 0.48310 -0.03500
H 	H 	0.26720 0.29070 0.94470 -0.04400
H 	H 	0.56150 0.17900 0.70690 -0.03200
H 	H 	0.54090 0.96490 0.01690 -0.03400
H 	H 	0.76720 0.70930 0.05530 -0.04200
H 	H 	0.06150 0.82100 0.29310 -0.03300
H 	H 	0.04090 0.03510 0.98310 -0.03300
C 	C 	0.52610 0.35050 0.28710 0.06700
C 	C 	0.35030 0.27100 0.41800 0.08400
C 	C 	0.52390 0.44530 0.46100 0.07700
C 	C 	0.02610 0.64950 0.71290 0.05500
C 	C 	0.85030 0.72900 0.58200 0.08600
C 	C 	0.02390 0.55470 0.53900 0.06500
C 	C 	0.52610 0.14950 0.78710 0.06700
C 	C 	0.35030 0.22900 0.91800 0.08400
C 	C 	0.52390 0.05470 0.96100 0.07800
C 	C 	0.02610 0.85050 0.21290 0.05500
C 	C 	0.85030 0.77100 0.08200 0.08600
C 	C 	0.02390 0.94530 0.03900 0.06500
N 	N 	0.40430 0.26320 0.31310 -0.20900
N 	N 	0.40690 0.13980 0.99480 -0.19900
N 	N 	0.09060 0.94550 0.14030 -0.20100
N 	N 	0.90430 0.73680 0.68690 -0.20200
N 	N 	0.90690 0.86020 0.00520 -0.19100
N 	N 	0.59060 0.05450 0.85970 -0.20300
N 	N 	0.40430 0.23680 0.81310 -0.20900
N 	N 	0.40690 0.36020 0.49480 -0.20000
N 	N 	0.09060 0.55450 0.64030 -0.20200
N 	N 	0.90430 0.76320 0.18690 -0.20100
N 	N 	0.90690 0.63980 0.50520 -0.19200
N 	N 	0.59060 0.44550 0.35970 -0.20400
