data_crystal

_cell_length_a 10.10200
_cell_length_b 10.76900
_cell_length_c 14.49530
_cell_angle_alpha 98.01250
_cell_angle_beta  95.70370
_cell_angle_gamma 110.53500

_symmetry_space_group_name_	'P 1'
_symmetry_space_group_name_H-M	'P 1'

loop_
_symmetry_equiv_pos_as_xyz
  x,y,z

loop_
_atom_site_label
_atom_site_type_symbol
_atom_site_fract_x
_atom_site_fract_y
_atom_site_fract_z
_atom_site_charge
Cd	Cd	-0.00000 0.50000 -0.00000 1.20300
Cd	Cd	0.90262 0.36299 0.40275 1.21300
Cd	Cd	0.02308 0.27707 0.17915 1.20300
Cd	Cd	0.09738 0.63701 0.59725 1.19400
Cd	Cd	0.97692 0.72293 0.82085 1.23500
H 	H 	0.33120 0.05290 0.83110 0.03000
H 	H 	0.16780 0.92490 0.33580 0.05000
H 	H 	0.59790 0.58110 0.65950 0.06000
H 	H 	0.45720 0.20140 0.18720 0.08000
H 	H 	0.72860 0.53580 0.07360 0.08700
H 	H 	0.82210 0.86240 0.68640 0.00900
H 	H 	0.64840 0.49130 0.39030 0.04000
H 	H 	0.52680 0.21350 0.93260 0.07900
H 	H 	0.54280 0.79860 0.81280 0.04300
H 	H 	0.07610 0.01660 0.92760 0.01200
H 	H 	0.17790 0.13760 0.31360 0.01300
H 	H 	0.83220 0.07510 0.66420 0.07200
H 	H 	0.27140 0.46420 0.92640 -0.01800
H 	H 	0.92390 0.98340 0.07240 -0.00800
H 	H 	0.53090 0.46480 0.15150 0.00800
H 	H 	0.08590 0.22880 0.91650 0.09500
H 	H 	0.40210 0.41890 0.34050 0.05900
H 	H 	0.35160 0.50870 0.60970 0.03500
H 	H 	0.66880 0.94710 0.16890 0.07000
H 	H 	0.46910 0.53520 0.84850 0.09700
H 	H 	0.27130 0.04320 0.07320 0.00300
H 	H 	0.47320 0.78650 0.06740 0.01700
H 	H 	0.72870 0.95680 0.92680 0.08000
H 	H 	0.91410 0.77120 0.08350 0.05400
C 	C 	0.35380 0.46340 0.47100 -0.10400
C 	C 	0.48190 0.52080 0.91000 -0.15300
C 	C 	0.29990 0.80870 0.73910 0.32500
C 	C 	0.64620 0.53660 0.52900 -0.09400
C 	C 	0.03450 0.82200 0.21410 -0.02400
C 	C 	0.58750 0.96600 0.15260 -0.08900
C 	C 	0.87740 0.93800 0.73160 0.06500
C 	C 	0.36260 0.47850 0.95650 0.15200
C 	C 	0.58230 0.08820 0.18910 -0.01800
C 	C 	0.34870 0.02210 0.09580 0.07000
C 	C 	0.52910 0.12960 0.90890 -0.07400
C 	C 	0.46210 0.11910 0.16210 -0.09500
C 	C 	0.80280 0.57790 0.56130 0.35800
C 	C 	0.96550 0.17800 0.78590 0.08200
C 	C 	0.02630 0.02910 0.87440 0.04800
C 	C 	0.12260 0.06200 0.26840 0.03100
C 	C 	0.65130 0.97790 0.90420 -0.07000
C 	C 	0.22180 0.79410 0.99800 0.48300
C 	C 	0.25670 0.40420 0.09710 0.36200
C 	C 	0.58830 0.49330 0.43460 -0.01200
C 	C 	0.88310 0.06560 0.71810 -0.11600
C 	C 	0.41170 0.50670 0.56540 -0.00700
C 	C 	0.38440 0.45870 0.04700 -0.21200
C 	C 	0.98790 0.31480 0.77040 0.12800
C 	C 	0.03470 0.15670 0.86750 -0.18000
C 	C 	0.74330 0.59580 0.90290 0.27100
C 	C 	0.51810 0.47920 0.09000 0.10500
C 	C 	0.70010 0.19130 0.26090 0.28900
C 	C 	0.55920 0.54760 0.59610 -0.02500
C 	C 	0.53790 0.88090 0.83790 0.01700
C 	C 	0.47090 0.87040 0.09110 0.05900
C 	C 	0.41250 0.03400 0.84740 0.02800
C 	C 	0.77820 0.20590 0.00200 0.27300
C 	C 	0.35100 0.89990 0.06490 -0.18400
C 	C 	0.11690 0.93440 0.28190 -0.08900
C 	C 	0.01210 0.68520 0.22960 0.06500
C 	C 	0.64900 0.10010 0.93510 0.01500
C 	C 	0.61560 0.54130 0.95300 0.06800
C 	C 	0.63740 0.52150 0.04350 -0.18100
C 	C 	0.41770 0.91180 0.81090 -0.10000
C 	C 	0.96530 0.84330 0.13250 -0.06400
C 	C 	0.19720 0.42210 0.43870 0.36300
C 	C 	0.97370 0.97090 0.12560 0.10100
C 	C 	0.44080 0.45240 0.40390 -0.02000
N 	N 	0.99520 0.65140 0.31410 -0.07800
N 	N 	0.98240 0.47730 0.21540 -0.14500
N 	N 	0.02220 0.47880 0.69660 -0.16800
N 	N 	0.97780 0.52120 0.30340 -0.14800
N 	N 	0.99530 0.42120 0.83420 -0.15200
N 	N 	0.95080 0.92310 0.80910 -0.20100
N 	N 	0.01760 0.52270 0.78460 -0.19400
N 	N 	0.00480 0.34860 0.68590 -0.13800
N 	N 	0.00470 0.57880 0.16580 -0.20700
N 	N 	0.04920 0.07690 0.19090 -0.25000
O 	O 	0.12570 0.46360 0.49680 -0.56000
O 	O 	0.72570 0.62600 0.82380 -0.36300
O 	O 	0.32900 0.73040 0.68000 -0.40700
O 	O 	0.17200 0.80870 0.73530 -0.50700
O 	O 	0.82800 0.19130 0.26470 -0.47000
O 	O 	0.79900 0.32670 0.99920 -0.37500
O 	O 	0.20100 0.67330 0.00080 -0.51100
O 	O 	0.85320 0.16350 0.05260 -0.39800
O 	O 	0.86410 0.65170 0.63870 -0.44200
O 	O 	0.14680 0.83650 0.94740 -0.46300
O 	O 	0.13590 0.34830 0.36130 -0.47400
O 	O 	0.27430 0.37400 0.17620 -0.39700
O 	O 	0.67100 0.26960 0.32000 -0.39200
O 	O 	0.13220 0.38620 0.05320 -0.54000
O 	O 	0.87430 0.53640 0.50320 -0.52500
O 	O 	0.86780 0.61380 0.94680 -0.45700
