data_crystal

_cell_length_a 8.83800
_cell_length_b 15.98700
_cell_length_c 16.92000
_cell_angle_alpha 90.00000
_cell_angle_beta  90.00000
_cell_angle_gamma 90.00000

_symmetry_space_group_name_	'P 1'
_symmetry_space_group_name_H-M	'P 1'

loop_
_symmetry_equiv_pos_as_xyz
  x,y,z

loop_
_atom_site_label
_atom_site_type_symbol
_atom_site_fract_x
_atom_site_fract_y
_atom_site_fract_z
_atom_site_charge
Cu	Cu	0.07040 0.19389 0.78161 0.89900
Cu	Cu	0.07040 0.69389 0.71839 0.89900
Cu	Cu	0.57040 0.80611 0.21839 0.90400
Cu	Cu	0.57040 0.30611 0.28161 0.90400
H 	H 	0.99960 0.65430 0.29570 0.07200
H 	H 	0.65770 0.51860 0.34940 0.03600
H 	H 	0.61040 0.23840 0.62220 0.06700
H 	H 	0.92930 0.01900 0.31070 0.14300
H 	H 	0.62810 0.90050 0.60450 0.03700
H 	H 	0.53730 0.71810 0.55770 0.08400
H 	H 	0.65770 0.01860 0.15060 0.03800
H 	H 	0.36280 0.68030 0.15250 0.03700
H 	H 	0.74930 0.45170 0.45700 0.06900
H 	H 	0.42930 0.48100 0.81070 0.13300
H 	H 	0.17650 0.87910 0.12740 0.04800
H 	H 	0.38270 0.48130 0.44920 0.04300
H 	H 	0.84540 0.73520 0.42850 0.04900
H 	H 	0.92930 0.51900 0.18930 0.14300
H 	H 	0.53730 0.21810 0.94230 0.08400
H 	H 	0.31410 0.08570 0.72710 -0.00600
H 	H 	0.78690 0.76560 0.09290 0.01600
H 	H 	0.24930 0.54830 0.54300 0.06600
H 	H 	0.12810 0.59950 0.10450 0.03700
H 	H 	0.86280 0.81970 0.65250 0.03900
H 	H 	0.42930 0.98100 0.68930 0.13300
H 	H 	0.67650 0.12090 0.87260 0.03600
H 	H 	0.86280 0.31970 0.84750 0.03900
H 	H 	0.81410 0.91430 0.27290 -0.00500
H 	H 	0.49960 0.34570 0.70430 0.05500
H 	H 	0.74930 0.95170 0.04300 0.06600
H 	H 	0.88270 0.51870 0.55080 0.04500
H 	H 	0.15770 0.48140 0.65060 0.03400
H 	H 	0.36280 0.18030 0.34750 0.03700
H 	H 	0.67650 0.62090 0.62740 0.03600
H 	H 	0.62810 0.40050 0.89550 0.03700
H 	H 	0.34540 0.76480 0.92850 0.04800
H 	H 	0.33410 0.32710 0.15840 0.01800
H 	H 	0.83410 0.17290 0.65840 0.01900
H 	H 	0.33410 0.82710 0.34160 0.01800
H 	H 	0.34540 0.26480 0.57150 0.04700
H 	H 	0.83410 0.67290 0.84160 0.01900
H 	H 	0.81410 0.41430 0.22710 -0.00500
H 	H 	0.49960 0.84570 0.79570 0.05500
H 	H 	0.15770 0.98140 0.84940 0.03700
H 	H 	0.28690 0.73440 0.59290 0.00500
H 	H 	0.61040 0.73840 0.87780 0.06800
H 	H 	0.11040 0.76160 0.37780 0.06000
H 	H 	0.12810 0.09950 0.39550 0.03700
H 	H 	0.38270 0.98130 0.05080 0.04600
H 	H 	0.11040 0.26160 0.12220 0.06000
H 	H 	0.03730 0.28190 0.44230 0.05500
H 	H 	0.99960 0.15430 0.20430 0.07200
H 	H 	0.31410 0.58570 0.77290 -0.00600
H 	H 	0.17650 0.37910 0.37260 0.04900
H 	H 	0.03730 0.78190 0.05770 0.05700
H 	H 	0.84540 0.23520 0.07150 0.05000
H 	H 	0.78690 0.26560 0.40710 0.01700
H 	H 	0.24930 0.04830 0.95700 0.06000
H 	H 	0.88270 0.01870 0.94920 0.04700
H 	H 	0.28690 0.23440 0.90710 0.00500
C 	C 	0.80760 0.30390 0.80160 0.02200
C 	C 	0.84910 0.30020 0.37510 0.06300
C 	C 	0.97390 0.68270 0.55810 0.33200
C 	C 	0.36120 0.11210 0.77090 0.06600
C 	C 	0.86120 0.88790 0.22910 0.07300
C 	C 	0.67500 0.84520 0.71370 0.00900
C 	C 	0.61440 0.90470 0.66000 0.01700
C 	C 	0.67500 0.34520 0.78630 0.00900
C 	C 	0.76790 0.50990 0.45110 -0.08600
C 	C 	0.57500 0.13260 0.85720 0.05200
C 	C 	0.76790 0.00990 0.04890 -0.07700
C 	C 	0.47390 0.31730 0.44190 0.31500
C 	C 	0.73970 0.13540 0.11990 -0.07100
C 	C 	0.37850 0.86690 0.99830 -0.07800
C 	C 	0.11440 0.09530 0.34000 0.01000
C 	C 	0.21330 0.95150 0.88820 0.00900
C 	C 	0.71330 0.54850 0.38820 0.01900
C 	C 	0.66000 0.75500 0.83060 -0.06600
C 	C 	0.61440 0.40470 0.84000 0.01700
C 	C 	0.86120 0.38790 0.27090 0.07300
C 	C 	0.23970 0.36460 0.61990 -0.07500
C 	C 	0.34910 0.69980 0.62490 0.09000
C 	C 	0.11440 0.59530 0.16000 0.01000
C 	C 	0.17500 0.15480 0.28630 0.01900
C 	C 	0.29290 0.28340 0.18970 0.03700
C 	C 	0.30760 0.19610 0.30160 0.01500
C 	C 	0.10110 0.47420 0.24290 0.23500
C 	C 	0.80760 0.80390 0.69840 0.02200
C 	C 	0.23970 0.86460 0.88010 -0.07100
C 	C 	0.17500 0.65480 0.21370 0.01900
C 	C 	0.82430 0.17720 0.06560 0.01400
C 	C 	0.21330 0.45150 0.61180 0.01600
C 	C 	0.30760 0.69610 0.19840 0.01500
C 	C 	0.87850 0.13310 0.00170 -0.08200
C 	C 	0.79290 0.21660 0.68970 0.04500
C 	C 	0.60110 0.52580 0.75710 0.23800
C 	C 	0.57500 0.63260 0.64280 0.05200
C 	C 	0.99520 0.81160 0.10100 -0.07600
C 	C 	0.47390 0.81730 0.05810 0.31300
C 	C 	0.09300 0.67950 0.28210 -0.05300
C 	C 	0.01470 0.40870 0.29210 -0.08900
C 	C 	0.67250 0.68740 0.30910 0.31000
C 	C 	0.59300 0.82050 0.78210 -0.02500
C 	C 	0.51470 0.09130 0.79210 -0.09200
C 	C 	0.32430 0.32280 0.56560 0.01400
C 	C 	0.99520 0.31160 0.39900 -0.07200
C 	C 	0.32430 0.82280 0.93440 0.01000
C 	C 	0.07500 0.86740 0.14280 0.01100
C 	C 	0.82430 0.67720 0.43440 0.01700
C 	C 	0.34720 0.45130 0.49400 0.02100
C 	C 	0.37850 0.36690 0.50170 -0.08400
C 	C 	0.51470 0.59130 0.70790 -0.09200
C 	C 	0.84720 0.04870 0.99400 0.01700
C 	C 	0.66000 0.25500 0.66940 -0.06600
C 	C 	0.01470 0.90870 0.20790 -0.09000
C 	C 	0.26790 0.99010 0.95110 -0.07300
C 	C 	0.16000 0.74500 0.33060 -0.05400
C 	C 	0.71330 0.04850 0.11180 0.01400
C 	C 	0.84720 0.54870 0.50600 0.02500
C 	C 	0.49520 0.18840 0.89900 -0.13600
C 	C 	0.09300 0.17950 0.21790 -0.05300
C 	C 	0.97390 0.18270 0.94190 0.33100
C 	C 	0.36120 0.61210 0.72910 0.06700
C 	C 	0.67250 0.18740 0.19090 0.30900
C 	C 	0.34910 0.19980 0.87510 0.09000
C 	C 	0.84910 0.80020 0.12490 0.06500
C 	C 	0.73970 0.63540 0.38010 -0.07500
C 	C 	0.26790 0.49010 0.54890 -0.08500
C 	C 	0.34720 0.95130 0.00600 0.01200
C 	C 	0.49520 0.68840 0.60100 -0.13600
C 	C 	0.10110 0.97420 0.25710 0.23600
C 	C 	0.16000 0.24500 0.16940 -0.05400
C 	C 	0.59300 0.32050 0.71790 -0.02500
C 	C 	0.17250 0.81260 0.80910 0.30700
C 	C 	0.60110 0.02580 0.74290 0.23700
C 	C 	0.87850 0.63310 0.49830 -0.08600
C 	C 	0.17250 0.31260 0.69090 0.30900
C 	C 	0.79290 0.71660 0.81030 0.04500
C 	C 	0.29290 0.78340 0.31030 0.03600
C 	C 	0.07500 0.36740 0.35720 0.00800
N 	N 	0.86410 0.74350 0.74310 -0.19000
N 	N 	0.36410 0.75650 0.24310 -0.19100
N 	N 	0.78790 0.33260 0.31240 -0.21500
N 	N 	0.52690 0.97480 0.69760 -0.22300
N 	N 	0.86410 0.24350 0.75690 -0.19000
N 	N 	0.02690 0.02520 0.30240 -0.23300
N 	N 	0.28790 0.66740 0.68760 -0.22100
N 	N 	0.52690 0.47480 0.80240 -0.22400
N 	N 	0.28790 0.16740 0.81240 -0.22100
N 	N 	0.02690 0.52520 0.19760 -0.23200
N 	N 	0.78790 0.83260 0.18760 -0.21500
N 	N 	0.36410 0.25650 0.25690 -0.19100
O 	O 	0.01900 0.75330 0.54620 -0.30000
O 	O 	0.23830 0.97840 0.24090 -0.22900
O 	O 	0.15650 0.35110 0.75630 -0.29400
O 	O 	0.14740 0.23810 0.67950 -0.39100
O 	O 	0.73830 0.02160 0.75910 -0.22800
O 	O 	0.98960 0.64190 0.62430 -0.38300
O 	O 	0.15650 0.85110 0.74370 -0.29300
O 	O 	0.73830 0.52160 0.74090 -0.22700
O 	O 	0.64740 0.26190 0.17950 -0.38700
O 	O 	0.65650 0.14890 0.25630 -0.29000
O 	O 	0.64740 0.76190 0.32050 -0.38700
O 	O 	0.51900 0.74670 0.04620 -0.28500
O 	O 	0.98960 0.14190 0.87570 -0.38200
O 	O 	0.51900 0.24670 0.45380 -0.28500
O 	O 	0.23830 0.47840 0.25910 -0.22900
O 	O 	0.14740 0.73810 0.82050 -0.39000
O 	O 	0.48960 0.85810 0.12430 -0.38500
O 	O 	0.65650 0.64890 0.24370 -0.29000
O 	O 	0.01900 0.25330 0.95380 -0.30100
O 	O 	0.48960 0.35810 0.37570 -0.38500
