data_crystal

_cell_length_a 10.12800
_cell_length_b 12.64800
_cell_length_c 15.46700
_cell_angle_alpha 106.91600
_cell_angle_beta  104.12200
_cell_angle_gamma 104.24700

_symmetry_space_group_name_	'P 1'
_symmetry_space_group_name_H-M	'P 1'

loop_
_symmetry_equiv_pos_as_xyz
  x,y,z

loop_
_atom_site_label
_atom_site_type_symbol
_atom_site_fract_x
_atom_site_fract_y
_atom_site_fract_z
_atom_site_charge
Cd	Cd	0.53107 0.03352 0.14654 1.22300
Cd	Cd	0.46893 0.96648 0.85346 1.22300
H 	H 	0.78720 0.87570 0.87770 0.04000
H 	H 	0.47820 0.27130 0.24090 0.00500
H 	H 	0.82220 0.55990 0.32270 0.04500
H 	H 	0.60790 0.29350 0.81470 0.04200
H 	H 	0.83330 0.23930 0.20250 0.03000
H 	H 	0.54230 0.23630 0.70200 0.03300
H 	H 	0.16670 0.76070 0.79750 0.03000
H 	H 	0.13490 0.18310 0.75050 0.10100
H 	H 	0.01480 0.38880 0.74570 0.01800
H 	H 	0.98520 0.61120 0.25430 0.01800
H 	H 	0.62990 0.57690 0.98410 0.12000
H 	H 	0.99580 0.10030 0.14850 0.04800
H 	H 	0.86510 0.81690 0.24950 0.10100
H 	H 	0.33120 0.28540 0.71590 0.04600
H 	H 	0.35220 0.18340 0.75020 0.04000
H 	H 	0.83710 0.59880 0.94410 0.02700
H 	H 	0.21620 0.90100 0.13000 0.02800
H 	H 	0.66880 0.71460 0.28410 0.04600
H 	H 	0.06890 0.83950 0.20590 0.02100
H 	H 	0.72420 0.41590 0.07070 0.06400
H 	H 	0.16290 0.40120 0.05590 0.02700
H 	H 	0.92480 0.67300 0.72860 0.01800
H 	H 	0.29910 0.01520 0.40180 0.05200
H 	H 	0.29790 0.99350 0.54510 0.05300
H 	H 	0.70210 0.00650 0.45490 0.05300
H 	H 	0.05880 0.56290 0.95920 0.05100
H 	H 	0.27580 0.58410 0.92930 0.06400
H 	H 	0.78840 0.31010 0.75120 0.10500
H 	H 	0.29930 0.40340 0.26330 0.10900
H 	H 	0.52180 0.72870 0.75910 0.00600
H 	H 	0.78380 0.09900 0.87000 0.02800
H 	H 	0.07520 0.32700 0.27140 0.01800
H 	H 	0.37010 0.42310 0.01590 0.12000
H 	H 	0.17780 0.44010 0.67730 0.04600
H 	H 	0.93110 0.16050 0.79410 0.02100
H 	H 	0.70090 0.98480 0.59820 0.05200
H 	H 	0.00420 0.89970 0.85150 0.04800
H 	H 	0.45950 0.76590 0.00550 0.01800
H 	H 	0.41690 0.52570 0.69350 0.07100
H 	H 	0.54050 0.23410 0.99450 0.01800
H 	H 	0.39210 0.70650 0.18530 0.04300
H 	H 	0.70070 0.59660 0.73670 0.10900
H 	H 	0.21280 0.12430 0.12230 0.04100
H 	H 	0.21160 0.68990 0.24880 0.10500
H 	H 	0.45770 0.76370 0.29800 0.03300
H 	H 	0.64780 0.81660 0.24980 0.04000
H 	H 	0.58310 0.47430 0.30650 0.07100
H 	H 	0.94120 0.43710 0.04080 0.05100
C 	C 	0.37950 0.99590 0.52720 -0.02700
C 	C 	0.85900 0.77180 0.18830 -0.19100
C 	C 	0.27220 0.30980 0.87730 0.21700
C 	C 	0.50160 0.01400 0.41390 -0.05000
C 	C 	0.28120 0.37200 0.97030 -0.18800
C 	C 	0.15700 0.35740 0.99440 0.03700
C 	C 	0.22190 0.52150 0.70490 -0.03200
C 	C 	0.02340 0.27870 0.92860 -0.04500
C 	C 	0.62050 0.00410 0.47280 -0.02700
C 	C 	0.18420 0.61600 0.25260 -0.20100
C 	C 	0.04860 0.56910 0.25680 0.04400
C 	C 	0.99470 0.53910 0.73550 -0.04700
C 	C 	0.72120 0.44520 0.74610 0.22700
C 	C 	0.39290 0.26670 0.76360 -0.00300
C 	C 	0.14100 0.22820 0.81170 -0.19100
C 	C 	0.97660 0.72130 0.07140 -0.04500
C 	C 	0.85490 0.40890 0.26290 0.01000
C 	C 	0.45860 0.70510 0.24160 0.01800
C 	C 	0.00280 0.94090 0.91160 -0.01000
C 	C 	0.77290 0.16390 0.91110 -0.00600
C 	C 	0.42610 0.69450 0.75340 0.05200
C 	C 	0.21720 0.71240 0.77570 0.00400
C 	C 	0.23630 0.44580 0.26160 -0.19400
C 	C 	0.89800 0.59970 0.73340 0.04400
C 	C 	0.61970 0.99070 0.55880 -0.03000
C 	C 	0.57390 0.30550 0.24660 0.05200
C 	C 	0.38030 0.00930 0.44120 -0.03000
C 	C 	0.72780 0.69020 0.12270 0.21700
C 	C 	0.49840 0.98600 0.58610 -0.05000
C 	C 	0.87280 0.92560 0.92750 -0.02000
C 	C 	0.26220 0.64750 0.97020 -0.06400
C 	C 	0.13140 0.01660 0.98360 -0.08500
C 	C 	0.73780 0.35250 0.02980 -0.06400
C 	C 	0.63640 0.42780 0.28630 -0.07900
C 	C 	0.50030 0.02610 0.31950 0.28200
C 	C 	0.49970 0.97390 0.68050 0.28200
C 	C 	0.81580 0.38400 0.74740 -0.20100
C 	C 	0.71880 0.62800 0.02970 -0.18800
C 	C 	0.54140 0.29490 0.75840 0.01800
C 	C 	0.77810 0.47850 0.29510 -0.03200
C 	C 	0.22710 0.83610 0.08890 -0.00600
C 	C 	0.98080 0.78520 0.16140 0.03700
C 	C 	0.27880 0.55480 0.25390 0.22700
C 	C 	0.84300 0.64260 0.00560 0.03700
C 	C 	0.11150 0.73070 0.04730 0.01500
C 	C 	0.12720 0.07440 0.07250 -0.02000
C 	C 	0.14510 0.59110 0.73710 0.01000
C 	C 	0.13260 0.63570 0.98780 -0.04400
C 	C 	0.10200 0.40030 0.26660 0.04400
C 	C 	0.95140 0.43090 0.74320 0.04400
C 	C 	0.72590 0.97100 0.03300 0.35200
C 	C 	0.86740 0.36430 0.01220 -0.04400
C 	C 	0.01920 0.21480 0.83860 0.03700
C 	C 	0.86860 0.98340 0.01640 -0.08500
C 	C 	0.99720 0.05910 0.08840 -0.01000
C 	C 	0.37130 0.75720 0.01570 0.03400
C 	C 	0.76370 0.55420 0.73840 -0.19400
C 	C 	0.62870 0.24280 0.98430 0.03400
C 	C 	0.60710 0.73330 0.23640 -0.00300
C 	C 	0.36360 0.57220 0.71370 -0.07900
C 	C 	0.78280 0.28760 0.22430 0.00400
C 	C 	0.27410 0.02900 0.96700 0.35200
C 	C 	0.88850 0.26930 0.95270 0.01500
C 	C 	0.00530 0.46090 0.26450 -0.04700
N 	N 	0.35380 0.76390 0.78330 -0.20700
N 	N 	0.64610 0.15050 0.92690 -0.21500
N 	N 	0.35390 0.84950 0.07310 -0.21500
N 	N 	0.64620 0.23610 0.21670 -0.20700
O 	O 	0.73240 0.02080 0.11830 -0.42200
O 	O 	0.59370 0.94120 0.72450 -0.33800
O 	O 	0.40630 0.05880 0.27550 -0.33800
O 	O 	0.41290 0.59140 0.24650 -0.23100
O 	O 	0.39940 0.33430 0.85850 -0.22400
O 	O 	0.60060 0.66570 0.14150 -0.22400
O 	O 	0.39000 0.08270 0.03720 -0.45300
O 	O 	0.39990 0.99540 0.71140 -0.37700
O 	O 	0.26760 0.97920 0.88170 -0.42200
O 	O 	0.61000 0.91730 0.96280 -0.45300
O 	O 	0.58710 0.40860 0.75350 -0.23100
O 	O 	0.60010 0.00460 0.28860 -0.37700
