data_crystal

_cell_length_a 9.85520
_cell_length_b 17.98280
_cell_length_c 21.35900
_cell_angle_alpha 103.91200
_cell_angle_beta  90.00000
_cell_angle_gamma 90.00000

_symmetry_space_group_name_	'P 1'
_symmetry_space_group_name_H-M	'P 1'

loop_
_symmetry_equiv_pos_as_xyz
  x,y,z

loop_
_atom_site_label
_atom_site_type_symbol
_atom_site_fract_x
_atom_site_fract_y
_atom_site_fract_z
_atom_site_charge
Mn	Mn	0.11822 0.19639 0.12139 1.23600
Mn	Mn	0.10540 0.27883 0.29397 1.30500
Mn	Mn	0.28262 0.28611 0.44258 1.27900
Mn	Mn	0.61822 0.80361 0.37861 1.23600
Mn	Mn	0.60540 0.72117 0.20603 1.30500
Mn	Mn	0.78262 0.71389 0.05742 1.27900
Mn	Mn	0.88178 0.80361 0.87861 1.23600
Mn	Mn	0.89460 0.72117 0.70603 1.30500
Mn	Mn	0.71738 0.71389 0.55742 1.28000
Mn	Mn	0.38178 0.19639 0.62139 1.23700
Mn	Mn	0.39460 0.27883 0.79397 1.30600
Mn	Mn	0.21738 0.28611 0.94258 1.28000
H 	H 	0.84620 0.07470 0.32690 0.04200
H 	H 	0.77630 0.93920 0.30810 0.00700
H 	H 	0.09940 0.38670 0.09860 0.00600
H 	H 	0.02060 0.50180 0.06660 0.03200
H 	H 	0.79230 0.28940 0.36010 0.04200
H 	H 	0.56090 0.28110 0.40280 0.01700
H 	H 	0.34620 0.92530 0.17310 0.04200
H 	H 	0.27630 0.06080 0.19190 0.00700
H 	H 	0.59940 0.61330 0.40140 0.00500
H 	H 	0.52060 0.49820 0.43340 0.03300
H 	H 	0.29230 0.71060 0.13990 0.04200
H 	H 	0.06090 0.71890 0.09720 0.01800
H 	H 	0.15380 0.92530 0.67310 0.04200
H 	H 	0.22370 0.06080 0.69190 0.00700
H 	H 	0.90060 0.61330 0.90140 0.00600
H 	H 	0.97940 0.49820 0.93340 0.03200
H 	H 	0.20770 0.71060 0.63990 0.04200
H 	H 	0.43910 0.71890 0.59720 0.01700
H 	H 	0.65380 0.07470 0.82690 0.04200
H 	H 	0.72370 0.93920 0.80810 0.00700
H 	H 	0.40060 0.38670 0.59860 0.00500
H 	H 	0.47940 0.50180 0.56660 0.03300
H 	H 	0.70770 0.28940 0.86010 0.04200
H 	H 	0.93910 0.28110 0.90280 0.01800
C 	C 	0.92490 0.05299 0.23613 -0.11000
C 	C 	0.86170 0.03760 0.28770 -0.01000
C 	C 	0.82100 0.96002 0.27679 0.00700
C 	C 	0.85290 0.91879 0.21698 -0.12000
C 	C 	0.97980 0.12715 0.22879 0.40800
C 	C 	0.81770 0.83754 0.18621 0.40000
C 	C 	0.97870 0.41306 0.17856 -0.11400
C 	C 	0.03570 0.42174 0.12281 0.00300
C 	C 	0.99100 0.48766 0.10447 -0.01000
C 	C 	0.90040 0.52889 0.14720 -0.11000
C 	C 	0.00770 0.35506 0.21442 0.35700
C 	C 	0.83050 0.60153 0.14484 0.39500
C 	C 	0.87130 0.25697 0.43822 -0.11400
C 	C 	0.77370 0.27529 0.39938 -0.00700
C 	C 	0.64090 0.27089 0.42414 0.00700
C 	C 	0.64000 0.25050 0.48192 -0.13700
C 	C 	0.01870 0.25975 0.43241 0.35600
C 	C 	0.52850 0.24095 0.52458 0.38800
C 	C 	0.42490 0.94701 0.26387 -0.11100
C 	C 	0.36170 0.96240 0.21230 -0.01100
C 	C 	0.32100 0.03998 0.22321 0.00800
C 	C 	0.35290 0.08121 0.28302 -0.12000
C 	C 	0.47980 0.87285 0.27121 0.40600
C 	C 	0.31770 0.16246 0.31379 0.40000
C 	C 	0.47870 0.58694 0.32144 -0.11700
C 	C 	0.53570 0.57826 0.37719 0.00700
C 	C 	0.49100 0.51234 0.39553 -0.01300
C 	C 	0.40040 0.47111 0.35280 -0.10900
C 	C 	0.50770 0.64494 0.28558 0.36100
C 	C 	0.33050 0.39847 0.35516 0.39400
C 	C 	0.37130 0.74303 0.06178 -0.11500
C 	C 	0.27370 0.72471 0.10062 -0.00700
C 	C 	0.14090 0.72911 0.07586 0.00700
C 	C 	0.14000 0.74950 0.01808 -0.13700
C 	C 	0.51870 0.74025 0.06759 0.35800
C 	C 	0.02850 0.75905 0.97542 0.39000
C 	C 	0.07510 0.94701 0.76387 -0.11000
C 	C 	0.13830 0.96240 0.71230 -0.01000
C 	C 	0.17900 0.03998 0.72321 0.00700
C 	C 	0.14710 0.08121 0.78302 -0.12000
C 	C 	0.02020 0.87285 0.77121 0.40800
C 	C 	0.18230 0.16246 0.81379 0.40000
C 	C 	0.02130 0.58694 0.82144 -0.11400
C 	C 	0.96430 0.57826 0.87719 0.00300
C 	C 	0.00900 0.51234 0.89553 -0.01000
C 	C 	0.09960 0.47111 0.85280 -0.11000
C 	C 	0.99230 0.64494 0.78558 0.35700
C 	C 	0.16950 0.39847 0.85516 0.39500
C 	C 	0.12870 0.74303 0.56178 -0.11400
C 	C 	0.22630 0.72471 0.60062 -0.00700
C 	C 	0.35910 0.72911 0.57586 0.00700
C 	C 	0.36000 0.74950 0.51808 -0.13700
C 	C 	0.98130 0.74025 0.56759 0.35600
C 	C 	0.47150 0.75905 0.47542 0.38800
C 	C 	0.57510 0.05299 0.73613 -0.11100
C 	C 	0.63830 0.03760 0.78770 -0.01100
C 	C 	0.67900 0.96002 0.77679 0.00800
C 	C 	0.64710 0.91879 0.71698 -0.12000
C 	C 	0.52020 0.12715 0.72879 0.40600
C 	C 	0.68230 0.83754 0.68621 0.40000
C 	C 	0.52130 0.41306 0.67856 -0.11700
C 	C 	0.46430 0.42174 0.62281 0.00700
C 	C 	0.50900 0.48766 0.60447 -0.01300
C 	C 	0.59960 0.52889 0.64720 -0.10900
C 	C 	0.49230 0.35506 0.71442 0.36100
C 	C 	0.66950 0.60153 0.64484 0.39400
C 	C 	0.62870 0.25697 0.93822 -0.11500
C 	C 	0.72630 0.27529 0.89938 -0.00700
C 	C 	0.85910 0.27089 0.92414 0.00700
C 	C 	0.86000 0.25050 0.98192 -0.13700
C 	C 	0.48130 0.25975 0.93241 0.35800
C 	C 	0.97150 0.24095 0.02458 0.39000
S 	S 	0.86755 0.48669 0.20972 0.07900
S 	S 	0.80314 0.23576 0.50565 0.06600
S 	S 	0.93531 0.97308 0.17301 0.05200
S 	S 	0.36755 0.51331 0.29028 0.07900
S 	S 	0.30314 0.76424 0.99435 0.06600
S 	S 	0.43531 0.02692 0.32699 0.05300
S 	S 	0.13245 0.51331 0.79028 0.07900
S 	S 	0.19686 0.76424 0.49435 0.06600
S 	S 	0.06469 0.02692 0.82699 0.05200
S 	S 	0.63245 0.48669 0.70972 0.07900
S 	S 	0.69686 0.23576 0.00565 0.06600
S 	S 	0.56469 0.97308 0.67301 0.05300
O 	O 	0.03229 0.12662 0.17474 -0.50800
O 	O 	0.97312 0.18324 0.27624 -0.45400
O 	O 	0.83559 0.81506 0.12666 -0.46400
O 	O 	0.76956 0.79879 0.22287 -0.49000
O 	O 	0.09719 0.30371 0.19261 -0.55000
O 	O 	0.95164 0.35922 0.26766 -0.38700
O 	O 	0.86996 0.63354 0.10163 -0.48100
O 	O 	0.74044 0.62455 0.18616 -0.44400
O 	O 	0.07077 0.29558 0.39366 -0.54600
O 	O 	0.09051 0.23213 0.46951 -0.43400
O 	O 	0.40803 0.25506 0.51201 -0.54200
O 	O 	0.56046 0.21777 0.57342 -0.45400
O 	O 	0.53229 0.87338 0.32526 -0.50600
O 	O 	0.47312 0.81676 0.22376 -0.45500
O 	O 	0.33559 0.18494 0.37334 -0.46400
O 	O 	0.26956 0.20121 0.27713 -0.49000
O 	O 	0.59719 0.69629 0.30739 -0.55100
O 	O 	0.45164 0.64078 0.23234 -0.38900
O 	O 	0.36996 0.36646 0.39837 -0.48100
O 	O 	0.24044 0.37545 0.31384 -0.44400
O 	O 	0.57077 0.70442 0.10634 -0.54600
O 	O 	0.59051 0.76787 0.03049 -0.43400
O 	O 	0.90803 0.74494 0.98799 -0.54300
O 	O 	0.06046 0.78223 0.92658 -0.45300
O 	O 	0.96771 0.87338 0.82526 -0.50800
O 	O 	0.02688 0.81676 0.72376 -0.45400
O 	O 	0.16441 0.18494 0.87334 -0.46400
O 	O 	0.23044 0.20121 0.77713 -0.49000
O 	O 	0.90281 0.69629 0.80739 -0.55000
O 	O 	0.04836 0.64078 0.73234 -0.38700
O 	O 	0.13004 0.36646 0.89837 -0.48100
O 	O 	0.25956 0.37545 0.81384 -0.44400
O 	O 	0.92923 0.70442 0.60634 -0.54600
O 	O 	0.90949 0.76787 0.53049 -0.43400
O 	O 	0.59197 0.74494 0.48799 -0.54200
O 	O 	0.43954 0.78223 0.42658 -0.45400
O 	O 	0.46771 0.12662 0.67474 -0.50600
O 	O 	0.52688 0.18324 0.77624 -0.45500
O 	O 	0.66441 0.81506 0.62666 -0.46400
O 	O 	0.73044 0.79879 0.72287 -0.49000
O 	O 	0.40281 0.30371 0.69261 -0.55100
O 	O 	0.54836 0.35922 0.76766 -0.38900
O 	O 	0.63004 0.63354 0.60163 -0.48100
O 	O 	0.75956 0.62455 0.68616 -0.44400
O 	O 	0.42923 0.29558 0.89366 -0.54600
O 	O 	0.40949 0.23213 0.96951 -0.43400
O 	O 	0.09197 0.25506 0.01201 -0.54300
O 	O 	0.93954 0.21777 0.07342 -0.45300
