data_crystal

_cell_length_a 17.08800
_cell_length_b 14.76900
_cell_length_c 14.16500
_cell_angle_alpha 90.00000
_cell_angle_beta  116.03900
_cell_angle_gamma 90.00000

_symmetry_space_group_name_	'P 1'
_symmetry_space_group_name_H-M	'P 1'

loop_
_symmetry_equiv_pos_as_xyz
  x,y,z

loop_
_atom_site_label
_atom_site_type_symbol
_atom_site_fract_x
_atom_site_fract_y
_atom_site_fract_z
_atom_site_charge
Ni	Ni	0.79498 0.00151 0.99805 1.13400
Ni	Ni	0.80473 0.01593 0.25453 1.15200
O 	O 	0.48490 0.91690 0.35520 -0.12900
O 	O 	0.86830 0.98670 0.91520 -0.36600
N 	N 	0.39920 0.92620 0.29220 -0.08300
N 	N 	0.95230 0.97620 0.96920 -0.06700
C 	C 	0.35050 0.85100 0.26640 0.06200
H 	H 	0.37530 0.79450 0.29020 0.03800
C 	C 	0.26140 0.86000 0.20300 -0.12500
H 	H 	0.22620 0.80870 0.18530 0.08600
C 	C 	0.22440 0.94320 0.16620 0.07100
C 	C 	0.27570 0.01500 0.19080 -0.12700
H 	H 	0.25260 0.07140 0.16320 0.07900
C 	C 	0.36610 0.00660 0.25930 0.06400
H 	H 	0.40130 0.05770 0.28060 0.02600
C 	C 	0.00460 0.04850 0.00700 0.12500
H 	H 	0.98080 0.10620 0.99010 -0.00700
C 	C 	0.09150 0.03960 0.06940 -0.13000
H 	H 	0.12620 0.09110 0.09270 0.08400
C 	C 	0.12860 0.95560 0.09820 0.03900
C 	C 	0.07500 0.88120 0.05700 -0.05100
H 	H 	0.09900 0.82350 0.07280 0.06200
C 	C 	0.98820 0.89000 0.99430 -0.00900
H 	H 	0.95330 0.83900 0.96840 0.05100
O 	O 	0.38530 0.41100 0.59030 -0.41900
O 	O 	0.38840 0.38880 0.74810 -0.40300
O 	O 	0.72950 0.10850 0.90580 -0.43000
O 	O 	0.71760 0.08050 0.74520 -0.43100
C 	C 	0.64610 0.27980 0.81420 0.06100
C 	C 	0.73030 0.31110 0.88690 -0.09800
H 	H 	0.77720 0.27150 0.90840 0.07100
C 	C 	0.74400 0.39720 0.92560 -0.01800
H 	H 	0.79930 0.41530 0.97390 0.02300
C 	C 	0.67330 0.45910 0.89190 -0.03600
H 	H 	0.68260 0.51830 0.91690 0.03400
C 	C 	0.59240 0.43220 0.82330 -0.07300
H 	H 	0.54670 0.47360 0.80150 0.06600
C 	C 	0.57610 0.34430 0.78510 0.03500
C 	C 	0.49100 0.31520 0.70850 -0.08800
C 	C 	0.48240 0.23080 0.66170 -0.02300
H 	H 	0.42860 0.21360 0.60880 0.04700
C 	C 	0.55000 0.17350 0.69100 0.01900
H 	H 	0.54180 0.11830 0.65630 0.03000
C 	C 	0.63020 0.19300 0.76970 -0.12500
C 	C 	0.41430 0.37880 0.67890 0.39300
C 	C 	0.70000 0.12370 0.80950 0.40200
O 	O 	0.88900 0.91840 0.25440 -0.40300
O 	O 	0.85970 0.89630 0.08640 -0.39700
O 	O 	0.22510 0.61690 0.26150 -0.41400
O 	O 	0.20350 0.58670 0.40350 -0.41600
C 	C 	0.96000 0.72500 0.15820 0.11200
C 	C 	0.88160 0.70040 0.07050 -0.18400
H 	H 	0.83390 0.73910 0.04820 0.12500
C 	C 	0.87480 0.62210 0.01870 0.15000
H 	H 	0.82350 0.60740 0.96030 -0.04700
C 	C 	0.94800 0.56180 0.05510 -0.08800
H 	H 	0.94350 0.50730 0.02020 0.08900
C 	C 	0.02190 0.58220 0.13770 -0.03500
H 	H 	0.06790 0.54120 0.16080 0.04700
C 	C 	0.03220 0.66790 0.19250 -0.00800
C 	C 	0.10970 0.68860 0.28090 -0.09000
C 	C 	0.11610 0.76310 0.33690 -0.00900
H 	H 	0.16700 0.77460 0.39740 0.03600
C 	C 	0.04420 0.82630 0.30420 -0.03700
H 	H 	0.04950 0.87920 0.34200 0.04800
C 	C 	0.96810 0.80740 0.21680 -0.08800
C 	C 	0.18720 0.62630 0.31850 0.38000
C 	C 	0.89870 0.88160 0.18160 0.39300
O 	O 	0.72640 0.02270 0.08960 -0.90600
H 	H 	0.68670 0.98270 0.07290 0.37000
H 	H 	0.70160 0.07410 0.07430 0.37400
Ni	Ni	0.29498 0.50151 0.99805 1.13500
Ni	Ni	0.30473 0.51593 0.25453 1.15000
O 	O 	0.98490 0.41690 0.35520 -0.12100
O 	O 	0.36830 0.48670 0.91520 -0.36900
N 	N 	0.89920 0.42620 0.29220 -0.08300
N 	N 	0.45230 0.47620 0.96920 -0.08200
C 	C 	0.85050 0.35100 0.26640 0.06300
H 	H 	0.87530 0.29450 0.29020 0.03900
C 	C 	0.76140 0.36000 0.20300 -0.12600
H 	H 	0.72620 0.30870 0.18530 0.08700
C 	C 	0.72440 0.44320 0.16620 0.07200
C 	C 	0.77570 0.51500 0.19080 -0.12700
H 	H 	0.75260 0.57140 0.16320 0.08000
C 	C 	0.86610 0.50660 0.25930 0.06600
H 	H 	0.90130 0.55770 0.28060 0.02900
C 	C 	0.50460 0.54850 0.00700 0.19300
H 	H 	0.48080 0.60620 0.99010 -0.04200
C 	C 	0.59150 0.53960 0.06940 -0.15800
H 	H 	0.62620 0.59110 0.09270 0.09500
C 	C 	0.62860 0.45560 0.09820 0.04000
C 	C 	0.57500 0.38120 0.05700 -0.01300
H 	H 	0.59900 0.32350 0.07280 0.05300
C 	C 	0.48820 0.39000 0.99430 -0.04900
H 	H 	0.45330 0.33900 0.96840 0.06100
O 	O 	0.88530 0.91100 0.59030 -0.41600
O 	O 	0.88840 0.88880 0.74810 -0.40100
O 	O 	0.22950 0.60850 0.90580 -0.42800
O 	O 	0.21760 0.58050 0.74520 -0.43000
C 	C 	0.14610 0.77980 0.81420 0.05500
C 	C 	0.23030 0.81110 0.88690 -0.09300
H 	H 	0.27720 0.77150 0.90840 0.06900
C 	C 	0.24400 0.89720 0.92560 -0.02300
H 	H 	0.29930 0.91530 0.97390 0.02500
C 	C 	0.17330 0.95910 0.89190 -0.02700
H 	H 	0.18260 0.01830 0.91690 0.02800
C 	C 	0.09240 0.93220 0.82330 -0.07300
H 	H 	0.04670 0.97360 0.80150 0.06100
C 	C 	0.07610 0.84430 0.78510 0.02200
C 	C 	0.99100 0.81520 0.70850 -0.08200
C 	C 	0.98240 0.73080 0.66170 0.01700
H 	H 	0.92860 0.71360 0.60880 0.03500
C 	C 	0.05000 0.67350 0.69100 -0.02600
H 	H 	0.04180 0.61830 0.65630 0.04000
C 	C 	0.13020 0.69300 0.76970 -0.11100
C 	C 	0.91430 0.87880 0.67890 0.39500
C 	C 	0.20000 0.62370 0.80950 0.39500
O 	O 	0.38900 0.41840 0.25440 -0.40900
O 	O 	0.35970 0.39630 0.08640 -0.40000
O 	O 	0.72510 0.11690 0.26150 -0.41200
O 	O 	0.70350 0.08670 0.40350 -0.41400
C 	C 	0.46000 0.22500 0.15820 0.11900
C 	C 	0.38160 0.20040 0.07050 -0.21400
H 	H 	0.33390 0.23910 0.04820 0.13700
C 	C 	0.37480 0.12210 0.01870 0.19400
H 	H 	0.32350 0.10740 0.96030 -0.06500
C 	C 	0.44800 0.06180 0.05510 -0.15500
H 	H 	0.44350 0.00730 0.02020 0.10800
C 	C 	0.52190 0.08220 0.13770 0.02700
H 	H 	0.56790 0.04120 0.16080 0.03000
C 	C 	0.53220 0.16790 0.19250 -0.01700
C 	C 	0.60970 0.18860 0.28090 -0.07300
C 	C 	0.61610 0.26310 0.33690 -0.02900
H 	H 	0.66700 0.27460 0.39740 0.04400
C 	C 	0.54420 0.32630 0.30420 0.00600
H 	H 	0.54950 0.37920 0.34200 0.03800
C 	C 	0.46810 0.30740 0.21680 -0.12200
C 	C 	0.68720 0.12630 0.31850 0.37500
C 	C 	0.39870 0.38160 0.18160 0.40100
O 	O 	0.22640 0.52270 0.08960 -0.90700
H 	H 	0.18670 0.48270 0.07290 0.36900
H 	H 	0.20160 0.57410 0.07430 0.37200
Ni	Ni	0.79498 0.99849 0.49805 1.15500
Ni	Ni	0.80473 0.98407 0.75453 1.15100
O 	O 	0.48490 0.08310 0.85520 -0.14700
O 	O 	0.86830 0.01330 0.41520 -0.36500
N 	N 	0.39920 0.07380 0.79220 -0.08600
N 	N 	0.95230 0.02380 0.46920 -0.03100
C 	C 	0.35050 0.14900 0.76640 0.05700
H 	H 	0.37530 0.20550 0.79020 0.03500
C 	C 	0.26140 0.14000 0.70300 -0.12600
H 	H 	0.22620 0.19130 0.68530 0.08200
C 	C 	0.22440 0.05680 0.66620 0.06600
C 	C 	0.27570 0.98500 0.69080 -0.12700
H 	H 	0.25260 0.92860 0.66320 0.07500
C 	C 	0.36610 0.99340 0.75930 0.06300
H 	H 	0.40130 0.94230 0.78060 0.02200
C 	C 	0.00460 0.95150 0.50700 -0.03500
H 	H 	0.98080 0.89380 0.49010 0.08300
C 	C 	0.09150 0.96040 0.56940 -0.05900
H 	H 	0.12620 0.90890 0.59270 0.05000
C 	C 	0.12860 0.04440 0.59820 0.02400
C 	C 	0.07500 0.11880 0.55700 -0.11600
H 	H 	0.09900 0.17650 0.57280 0.07400
C 	C 	0.98820 0.11000 0.49430 0.06400
H 	H 	0.95330 0.16100 0.46840 0.04000
O 	O 	0.38530 0.58900 0.09030 -0.39600
O 	O 	0.38840 0.61120 0.24810 -0.39800
O 	O 	0.72950 0.89150 0.40580 -0.41400
O 	O 	0.71760 0.91950 0.24520 -0.42500
C 	C 	0.64610 0.72020 0.31420 0.06300
C 	C 	0.73030 0.68890 0.38690 -0.09100
H 	H 	0.77720 0.72850 0.40840 0.07800
C 	C 	0.74400 0.60280 0.42560 -0.01700
H 	H 	0.79930 0.58470 0.47390 0.03900
C 	C 	0.67330 0.54090 0.39190 -0.02800
H 	H 	0.68260 0.48170 0.41690 0.04000
C 	C 	0.59240 0.56780 0.32330 -0.07100
H 	H 	0.54670 0.52640 0.30150 0.06900
C 	C 	0.57610 0.65570 0.28510 0.03700
C 	C 	0.49100 0.68480 0.20850 -0.08000
C 	C 	0.48240 0.76920 0.16170 -0.02400
H 	H 	0.42860 0.78640 0.10880 0.05800
C 	C 	0.55000 0.82650 0.19100 0.02400
H 	H 	0.54180 0.88170 0.15630 0.03500
C 	C 	0.63020 0.80700 0.26970 -0.12100
C 	C 	0.41430 0.62120 0.17890 0.38700
C 	C 	0.70000 0.87630 0.30950 0.39900
O 	O 	0.88900 0.08160 0.75440 -0.40700
O 	O 	0.85970 0.10370 0.58640 -0.41600
O 	O 	0.22510 0.38310 0.76150 -0.42200
O 	O 	0.20350 0.41330 0.90350 -0.43500
C 	C 	0.96000 0.27500 0.65820 0.03700
C 	C 	0.88160 0.29960 0.57050 -0.05700
H 	H 	0.83390 0.26090 0.54820 0.06700
C 	C 	0.87480 0.37790 0.51870 -0.05600
H 	H 	0.82350 0.39260 0.46030 0.05400
C 	C 	0.94800 0.43820 0.55510 0.04500
H 	H 	0.94350 0.49270 0.52020 0.02600
C 	C 	0.02190 0.41780 0.63770 -0.13700
H 	H 	0.06790 0.45880 0.66080 0.08000
C 	C 	0.03220 0.33210 0.69250 0.05400
C 	C 	0.10970 0.31140 0.78090 -0.13000
C 	C 	0.11610 0.23690 0.83690 0.02200
H 	H 	0.16700 0.22540 0.89740 0.01500
C 	C 	0.04420 0.17370 0.80420 -0.06700
H 	H 	0.04950 0.12080 0.84200 0.05100
C 	C 	0.96810 0.19260 0.71680 -0.06000
C 	C 	0.18720 0.37370 0.81850 0.39400
C 	C 	0.89870 0.11840 0.68160 0.38700
O 	O 	0.72640 0.97730 0.58960 -0.90900
H 	H 	0.68670 0.01730 0.57290 0.35900
H 	H 	0.70160 0.92590 0.57430 0.36200
Ni	Ni	0.29498 0.49849 0.49805 1.15400
Ni	Ni	0.30473 0.48407 0.75453 1.15000
O 	O 	0.98490 0.58310 0.85520 -0.13600
O 	O 	0.36830 0.51330 0.41520 -0.36400
N 	N 	0.89920 0.57380 0.79220 -0.08400
N 	N 	0.45230 0.52380 0.46920 -0.04600
C 	C 	0.85050 0.64900 0.76640 0.05800
H 	H 	0.87530 0.70550 0.79020 0.03600
C 	C 	0.76140 0.64000 0.70300 -0.12700
H 	H 	0.72620 0.69130 0.68530 0.08300
C 	C 	0.72440 0.55680 0.66620 0.06900
C 	C 	0.77570 0.48500 0.69080 -0.13000
H 	H 	0.75260 0.42860 0.66320 0.07600
C 	C 	0.86610 0.49340 0.75930 0.06100
H 	H 	0.90130 0.44230 0.78060 0.02600
C 	C 	0.50460 0.45150 0.50700 0.03300
H 	H 	0.48080 0.39380 0.49010 0.04700
C 	C 	0.59150 0.46040 0.56940 -0.09200
H 	H 	0.62620 0.40890 0.59270 0.06300
C 	C 	0.62860 0.54440 0.59820 0.02900
C 	C 	0.57500 0.61880 0.55700 -0.08500
H 	H 	0.59900 0.67650 0.57280 0.06700
C 	C 	0.48820 0.61000 0.49430 0.03100
H 	H 	0.45330 0.66100 0.46840 0.04800
O 	O 	0.88530 0.08900 0.09030 -0.39200
O 	O 	0.88840 0.11120 0.24810 -0.39500
O 	O 	0.22950 0.39150 0.40580 -0.41400
O 	O 	0.21760 0.41950 0.24520 -0.42500
C 	C 	0.14610 0.22020 0.31420 0.06500
C 	C 	0.23030 0.18890 0.38690 -0.09700
H 	H 	0.27720 0.22850 0.40840 0.07900
C 	C 	0.24400 0.10280 0.42560 -0.00700
H 	H 	0.29930 0.08470 0.47390 0.03400
C 	C 	0.17330 0.04090 0.39190 -0.04400
H 	H 	0.18260 0.98170 0.41690 0.04600
C 	C 	0.09240 0.06780 0.32330 -0.05400
H 	H 	0.04670 0.02640 0.30150 0.05600
C 	C 	0.07610 0.15570 0.28510 0.01300
C 	C 	0.99100 0.18480 0.20850 -0.06800
C 	C 	0.98240 0.26920 0.16170 0.01200
H 	H 	0.92860 0.28640 0.10880 0.04900
C 	C 	0.05000 0.32650 0.19100 -0.01800
H 	H 	0.04180 0.38170 0.15630 0.04200
C 	C 	0.13020 0.30700 0.26970 -0.11100
C 	C 	0.91430 0.12120 0.17890 0.38800
C 	C 	0.20000 0.37630 0.30950 0.39400
O 	O 	0.38900 0.58160 0.75440 -0.41200
O 	O 	0.35970 0.60370 0.58640 -0.41900
O 	O 	0.72510 0.88310 0.76150 -0.41900
O 	O 	0.70350 0.91330 0.90350 -0.43000
C 	C 	0.46000 0.77500 0.65820 0.04100
C 	C 	0.38160 0.79960 0.57050 -0.08100
H 	H 	0.33390 0.76090 0.54820 0.07500
C 	C 	0.37480 0.87790 0.51870 -0.02200
H 	H 	0.32350 0.89260 0.46030 0.04200
C 	C 	0.44800 0.93820 0.55510 -0.01600
H 	H 	0.44350 0.99270 0.52020 0.04300
C 	C 	0.52190 0.91780 0.63770 -0.07900
H 	H 	0.56790 0.95880 0.66080 0.06500
C 	C 	0.53220 0.83210 0.69250 0.04900
C 	C 	0.60970 0.81140 0.78090 -0.11500
C 	C 	0.61610 0.73690 0.83690 0.00300
H 	H 	0.66700 0.72540 0.89740 0.02300
C 	C 	0.54420 0.67370 0.80420 -0.02500
H 	H 	0.54950 0.62080 0.84200 0.04200
C 	C 	0.46810 0.69260 0.71680 -0.09300
C 	C 	0.68720 0.87370 0.81850 0.38900
C 	C 	0.39870 0.61840 0.68160 0.39400
O 	O 	0.22640 0.47730 0.58960 -0.91000
H 	H 	0.18670 0.51730 0.57290 0.35800
H 	H 	0.20160 0.42590 0.57430 0.36100
