data_crystal

_cell_length_a 13.84360
_cell_length_b 17.80390
_cell_length_c 17.14760
_cell_angle_alpha 90.00000
_cell_angle_beta  110.26800
_cell_angle_gamma 90.00000

_symmetry_space_group_name_	'P 1'
_symmetry_space_group_name_H-M	'P 1'

loop_
_symmetry_equiv_pos_as_xyz
  x,y,z

loop_
_atom_site_label
_atom_site_type_symbol
_atom_site_fract_x
_atom_site_fract_y
_atom_site_fract_z
_atom_site_charge
Cu	Cu	0.23929 0.51055 0.43782 0.87600
O 	O 	0.36960 0.46670 0.50150 -0.56500
H 	H 	0.37360 0.46950 0.55920 0.13900
N 	N 	0.16380 0.41640 0.45170 -0.19900
N 	N 	0.08130 0.41280 0.47840 -0.20700
N 	N 	0.12010 0.29860 0.45630 -0.19100
N 	N 	0.89000 0.05200 0.14220 -0.22400
N 	N 	0.97950 0.06190 0.12600 -0.16200
N 	N 	0.00710 0.08990 0.25700 -0.20100
N 	N 	0.78690 0.06030 0.95300 -0.18200
N 	N 	0.86910 0.05100 0.92620 -0.19700
N 	N 	0.73980 0.09570 0.82300 -0.18500
N 	N 	0.57480 0.41290 0.56800 -0.21100
N 	N 	0.67820 0.40380 0.58450 -0.21000
N 	N 	0.61700 0.29890 0.61330 -0.18500
C 	C 	0.18600 0.34640 0.43850 0.09100
H 	H 	0.23990 0.33180 0.41940 -0.03200
C 	C 	0.05700 0.34260 0.47990 0.10300
H 	H 	0.00170 0.32490 0.49570 -0.03300
C 	C 	0.90900 0.06790 0.22060 0.10900
H 	H 	0.86010 0.06440 0.24800 -0.04800
C 	C 	0.04740 0.08680 0.19530 0.07100
H 	H 	0.11580 0.10090 0.20150 -0.02700
C 	C 	0.11820 0.21510 0.44710 0.33800
C 	C 	0.22740 0.18450 0.47670 -0.43300
H 	H 	0.26300 0.19780 0.53580 0.14200
H 	H 	0.26630 0.20660 0.44360 0.13800
C 	C 	0.22270 0.09910 0.46660 0.32600
H 	H 	0.29450 0.07880 0.48570 -0.09000
C 	C 	0.16870 0.07840 0.37500 -0.42700
H 	H 	0.20720 0.09960 0.34100 0.12900
H 	H 	0.16620 0.02320 0.36840 0.12300
C 	C 	0.05970 0.11030 0.34610 0.34800
C 	C 	0.06360 0.19550 0.35460 -0.45900
H 	H 	0.99290 0.21640 0.33470 0.16400
H 	H 	0.10190 0.21730 0.32080 0.14800
C 	C 	0.05990 0.18220 0.49950 -0.46700
H 	H 	0.98900 0.20260 0.48130 0.16200
H 	H 	0.09490 0.19530 0.55870 0.14800
C 	C 	0.05710 0.09590 0.48800 0.35400
H 	H 	0.01840 0.07320 0.52170 -0.11300
C 	C 	0.00160 0.07700 0.39720 -0.50500
H 	H 	0.99700 0.02190 0.38970 0.16000
H 	H 	0.93080 0.09760 0.37880 0.16300
C 	C 	0.16570 0.06440 0.51810 -0.45000
H 	H 	0.20080 0.07670 0.57750 0.13700
H 	H 	0.16380 0.00910 0.51180 0.13000
C 	C 	0.71130 0.08720 0.88940 0.09100
H 	H 	0.64490 0.09920 0.89050 -0.03600
C 	C 	0.83910 0.07330 0.84780 0.09200
H 	H 	0.88100 0.07350 0.81420 -0.02600
C 	C 	0.53960 0.34890 0.58700 0.08800
H 	H 	0.47040 0.33960 0.58270 -0.02100
C 	C 	0.70050 0.33460 0.61210 0.10100
H 	H 	0.76740 0.31310 0.62890 -0.02300
C 	C 	0.67010 0.11590 0.73680 0.29800
C 	C 	0.70150 0.06970 0.67540 -0.39700
H 	H 	0.69730 0.01560 0.68700 0.11500
H 	H 	0.77350 0.08150 0.68110 0.12200
C 	C 	0.63020 0.08760 0.58750 0.28800
H 	H 	0.65140 0.05680 0.54740 -0.09000
C 	C 	0.64070 0.17130 0.56960 -0.39600
H 	H 	0.71280 0.18280 0.57540 0.12900
H 	H 	0.59590 0.18360 0.51220 0.12600
C 	C 	0.60900 0.21720 0.63160 0.29700
C 	C 	0.68030 0.20000 0.72060 -0.39300
H 	H 	0.66040 0.23060 0.76080 0.13600
H 	H 	0.75250 0.21210 0.72710 0.13500
C 	C 	0.55930 0.09780 0.72710 -0.39700
H 	H 	0.55330 0.04380 0.73880 0.11700
H 	H 	0.53860 0.12750 0.76760 0.12500
C 	C 	0.48960 0.11580 0.64040 0.28500
H 	H 	0.41690 0.10360 0.63480 -0.07800
C 	C 	0.49760 0.19990 0.62290 -0.39100
H 	H 	0.45100 0.21230 0.56600 0.12800
H 	H 	0.47710 0.23050 0.66280 0.12800
C 	C 	0.52040 0.06930 0.57670 -0.39500
H 	H 	0.51340 0.01500 0.58590 0.11400
H 	H 	0.47500 0.08190 0.51950 0.12100
Cu	Cu	0.76071 0.01055 0.06218 0.84500
O 	O 	0.63040 0.96670 0.99850 -0.51300
H 	H 	0.62640 0.96950 0.94080 0.15100
N 	N 	0.83620 0.91640 0.04830 -0.18500
N 	N 	0.91870 0.91280 0.02160 -0.18900
N 	N 	0.87990 0.79860 0.04370 -0.18100
N 	N 	0.11000 0.55200 0.35780 -0.21100
N 	N 	0.02050 0.56190 0.37400 -0.17400
N 	N 	0.99290 0.58990 0.24300 -0.16900
N 	N 	0.21310 0.56030 0.54700 -0.18700
N 	N 	0.13090 0.55100 0.57380 -0.20300
N 	N 	0.26020 0.59570 0.67700 -0.18600
N 	N 	0.42520 0.91290 0.93200 -0.19100
N 	N 	0.32180 0.90380 0.91550 -0.19900
N 	N 	0.38300 0.79890 0.88670 -0.18600
C 	C 	0.81400 0.84640 0.06150 0.09100
H 	H 	0.76010 0.83180 0.08060 -0.02800
C 	C 	0.94300 0.84260 0.02010 0.10400
H 	H 	0.99830 0.82490 0.00430 -0.02000
C 	C 	0.09100 0.56790 0.27940 0.07600
H 	H 	0.13990 0.56440 0.25200 -0.03000
C 	C 	0.95260 0.58680 0.30470 0.11400
H 	H 	0.88420 0.60090 0.29850 -0.02500
C 	C 	0.88180 0.71510 0.05290 0.27700
C 	C 	0.77260 0.68450 0.02330 -0.41800
H 	H 	0.73700 0.69780 0.96420 0.15600
H 	H 	0.73370 0.70660 0.05640 0.13000
C 	C 	0.77730 0.59910 0.03340 0.23800
H 	H 	0.70550 0.57880 0.01430 -0.06800
C 	C 	0.83130 0.57840 0.12500 -0.35600
H 	H 	0.79280 0.59960 0.15900 0.11800
H 	H 	0.83380 0.52320 0.13160 0.12000
C 	C 	0.94030 0.61030 0.15390 0.25500
C 	C 	0.93640 0.69550 0.14540 -0.32900
H 	H 	0.00710 0.71640 0.16530 0.10400
H 	H 	0.89810 0.71730 0.17920 0.12100
C 	C 	0.94010 0.68220 0.00050 -0.34200
H 	H 	0.01100 0.70260 0.01870 0.09600
H 	H 	0.90510 0.69530 0.94130 0.13500
C 	C 	0.94290 0.59590 0.01200 0.15500
H 	H 	0.98160 0.57320 0.97830 -0.01500
C 	C 	0.99840 0.57700 0.10280 -0.26300
H 	H 	0.00300 0.52190 0.11030 0.08100
H 	H 	0.06920 0.59760 0.12120 0.08000
C 	C 	0.83430 0.56440 0.98190 -0.28800
H 	H 	0.79920 0.57670 0.92250 0.10300
H 	H 	0.83620 0.50910 0.98820 0.11500
C 	C 	0.28870 0.58720 0.61060 0.09500
H 	H 	0.35510 0.59920 0.60950 -0.03800
C 	C 	0.16090 0.57330 0.65220 0.09500
H 	H 	0.11900 0.57350 0.68580 -0.02400
C 	C 	0.46040 0.84890 0.91300 0.09300
H 	H 	0.52960 0.83960 0.91730 -0.01500
C 	C 	0.29950 0.83460 0.88790 0.10600
H 	H 	0.23260 0.81310 0.87110 -0.02200
C 	C 	0.32990 0.61590 0.76320 0.31300
C 	C 	0.29850 0.56970 0.82460 -0.41900
H 	H 	0.30270 0.51560 0.81300 0.13700
H 	H 	0.22650 0.58150 0.81890 0.13600
C 	C 	0.36980 0.58760 0.91250 0.31300
H 	H 	0.34860 0.55680 0.95260 -0.07400
C 	C 	0.35930 0.67130 0.93040 -0.41600
H 	H 	0.28720 0.68280 0.92460 0.14100
H 	H 	0.40410 0.68360 0.98780 0.14300
C 	C 	0.39100 0.71720 0.86840 0.31000
C 	C 	0.31970 0.70000 0.77940 -0.40500
H 	H 	0.33960 0.73060 0.73920 0.13900
H 	H 	0.24750 0.71210 0.77290 0.13800
C 	C 	0.44070 0.59780 0.77290 -0.41600
H 	H 	0.44670 0.54380 0.76120 0.13200
H 	H 	0.46140 0.62750 0.73240 0.13200
C 	C 	0.51040 0.61580 0.85960 0.30700
H 	H 	0.58310 0.60360 0.86520 -0.07700
C 	C 	0.50240 0.69990 0.87710 -0.40900
H 	H 	0.54900 0.71230 0.93400 0.14000
H 	H 	0.52290 0.73050 0.83720 0.13600
C 	C 	0.47960 0.56930 0.92330 -0.42500
H 	H 	0.48660 0.51500 0.91410 0.14500
H 	H 	0.52500 0.58190 0.98050 0.15000
Cu	Cu	0.76071 0.48945 0.56218 0.87600
O 	O 	0.63040 0.53330 0.49850 -0.56400
H 	H 	0.62640 0.53050 0.44080 0.13900
N 	N 	0.83620 0.58360 0.54830 -0.19700
N 	N 	0.91870 0.58720 0.52160 -0.20000
N 	N 	0.87990 0.70140 0.54370 -0.18000
N 	N 	0.11000 0.94800 0.85780 -0.20300
N 	N 	0.02050 0.93810 0.87400 -0.15800
N 	N 	0.99290 0.91010 0.74300 -0.17300
N 	N 	0.21310 0.93970 0.04700 -0.18800
N 	N 	0.13090 0.94900 0.07380 -0.19300
N 	N 	0.26020 0.90430 0.17700 -0.18700
N 	N 	0.42520 0.58710 0.43200 -0.21200
N 	N 	0.32180 0.59620 0.41550 -0.21000
N 	N 	0.38300 0.70110 0.38670 -0.18700
C 	C 	0.81400 0.65360 0.56150 0.09200
H 	H 	0.76010 0.66820 0.58060 -0.02800
C 	C 	0.94300 0.65740 0.52010 0.10600
H 	H 	0.99830 0.67510 0.50430 -0.01700
C 	C 	0.09100 0.93210 0.77940 0.08300
H 	H 	0.13990 0.93560 0.75200 -0.02300
C 	C 	0.95260 0.91320 0.80470 0.12200
H 	H 	0.88420 0.89910 0.79850 -0.01700
C 	C 	0.88180 0.78490 0.55290 0.28300
C 	C 	0.77260 0.81550 0.52330 -0.39900
H 	H 	0.73700 0.80220 0.46420 0.13400
H 	H 	0.73370 0.79340 0.55640 0.13100
C 	C 	0.77730 0.90090 0.53340 0.29900
H 	H 	0.70550 0.92120 0.51430 -0.06700
C 	C 	0.83130 0.92160 0.62500 -0.40400
H 	H 	0.79280 0.90040 0.65900 0.14000
H 	H 	0.83380 0.97680 0.63160 0.15400
C 	C 	0.94030 0.88970 0.65390 0.29000
C 	C 	0.93640 0.80450 0.64540 -0.35300
H 	H 	0.00710 0.78360 0.66530 0.11200
H 	H 	0.89810 0.78270 0.67920 0.12600
C 	C 	0.94010 0.81780 0.50050 -0.34600
H 	H 	0.01100 0.79740 0.51870 0.10700
H 	H 	0.90510 0.80470 0.44130 0.12300
C 	C 	0.94290 0.90410 0.51200 0.26200
H 	H 	0.98160 0.92680 0.47830 -0.04700
C 	C 	0.99840 0.92300 0.60280 -0.33000
H 	H 	0.00300 0.97810 0.61030 0.11700
H 	H 	0.06920 0.90240 0.62120 0.10800
C 	C 	0.83430 0.93560 0.48190 -0.40700
H 	H 	0.79920 0.92330 0.42250 0.14100
H 	H 	0.83620 0.99090 0.48820 0.15400
C 	C 	0.28870 0.91280 0.11060 0.09900
H 	H 	0.35510 0.90080 0.10950 -0.03800
C 	C 	0.16090 0.92670 0.15220 0.10000
H 	H 	0.11900 0.92650 0.18580 -0.01500
C 	C 	0.46040 0.65110 0.41300 0.08800
H 	H 	0.52960 0.66040 0.41730 -0.02100
C 	C 	0.29950 0.66540 0.38790 0.10200
H 	H 	0.23260 0.68690 0.37110 -0.02400
C 	C 	0.32990 0.88410 0.26320 0.31900
C 	C 	0.29850 0.93030 0.32460 -0.43100
H 	H 	0.30270 0.98440 0.31300 0.15600
H 	H 	0.22650 0.91850 0.31890 0.14800
C 	C 	0.36980 0.91240 0.41250 0.31900
H 	H 	0.34860 0.94320 0.45260 -0.06800
C 	C 	0.35930 0.82870 0.43040 -0.41500
H 	H 	0.28720 0.81720 0.42460 0.14000
H 	H 	0.40410 0.81640 0.48780 0.13900
C 	C 	0.39100 0.78280 0.36840 0.30800
C 	C 	0.31970 0.80000 0.27940 -0.40600
H 	H 	0.33960 0.76940 0.23920 0.13500
H 	H 	0.24750 0.78790 0.27290 0.13700
C 	C 	0.44070 0.90220 0.27290 -0.42400
H 	H 	0.44670 0.95620 0.26120 0.14400
H 	H 	0.46140 0.87250 0.23240 0.13500
C 	C 	0.51040 0.88420 0.35960 0.31200
H 	H 	0.58310 0.89640 0.36520 -0.07700
C 	C 	0.50240 0.80010 0.37710 -0.40800
H 	H 	0.54900 0.78770 0.43400 0.13500
H 	H 	0.52290 0.76950 0.33720 0.13300
C 	C 	0.47960 0.93070 0.42330 -0.43200
H 	H 	0.48660 0.98500 0.41410 0.15600
H 	H 	0.52500 0.91810 0.48050 0.15100
Cu	Cu	0.23929 0.98945 0.93782 0.90400
O 	O 	0.36960 0.03330 0.00150 -0.60500
H 	H 	0.37360 0.03050 0.05920 0.12600
N 	N 	0.16380 0.08360 0.95170 -0.20500
N 	N 	0.08130 0.08720 0.97840 -0.20300
N 	N 	0.12010 0.20140 0.95630 -0.18700
N 	N 	0.89000 0.44800 0.64220 -0.21500
N 	N 	0.97950 0.43810 0.62600 -0.14900
N 	N 	0.00710 0.41010 0.75700 -0.20400
N 	N 	0.78690 0.43970 0.45300 -0.18600
N 	N 	0.86910 0.44900 0.42620 -0.19600
N 	N 	0.73980 0.40430 0.32300 -0.18500
N 	N 	0.57480 0.08710 0.06800 -0.22300
N 	N 	0.67820 0.09620 0.08450 -0.22000
N 	N 	0.61700 0.20110 0.11330 -0.18600
C 	C 	0.18600 0.15360 0.93850 0.09500
H 	H 	0.23990 0.16820 0.91940 -0.02800
C 	C 	0.05700 0.15740 0.97990 0.10800
H 	H 	0.00170 0.17510 0.99570 -0.02200
C 	C 	0.90900 0.43210 0.72060 0.11600
H 	H 	0.86010 0.43560 0.74800 -0.04100
C 	C 	0.04740 0.41320 0.69530 0.07900
H 	H 	0.11580 0.39910 0.70150 -0.01900
C 	C 	0.11820 0.28490 0.94710 0.33300
C 	C 	0.22740 0.31550 0.97670 -0.39800
H 	H 	0.26300 0.30220 0.03580 0.11000
H 	H 	0.26630 0.29340 0.94360 0.13500
C 	C 	0.22270 0.40090 0.96660 0.39000
H 	H 	0.29450 0.42120 0.98570 -0.08800
C 	C 	0.16870 0.42160 0.87500 -0.47600
H 	H 	0.20720 0.40040 0.84100 0.15100
H 	H 	0.16620 0.47680 0.86840 0.15700
C 	C 	0.05970 0.38970 0.84610 0.38200
C 	C 	0.06360 0.30450 0.85460 -0.47000
H 	H 	0.99290 0.28360 0.83470 0.16400
H 	H 	0.10190 0.28270 0.82080 0.15100
C 	C 	0.05990 0.31780 0.99950 -0.44500
H 	H 	0.98900 0.29740 0.98130 0.16300
H 	H 	0.09490 0.30470 0.05870 0.12100
C 	C 	0.05710 0.40410 0.98800 0.47500
H 	H 	0.01840 0.42680 0.02170 -0.15700
C 	C 	0.00160 0.42300 0.89720 -0.57800
H 	H 	0.99700 0.47810 0.88970 0.20000
H 	H 	0.93080 0.40240 0.87880 0.19300
C 	C 	0.16570 0.43560 0.01810 -0.58600
H 	H 	0.20080 0.42330 0.07750 0.17700
H 	H 	0.16380 0.49090 0.01180 0.17100
C 	C 	0.71130 0.41280 0.38940 0.09500
H 	H 	0.64490 0.40080 0.39050 -0.03900
C 	C 	0.83910 0.42670 0.34780 0.09700
H 	H 	0.88100 0.42650 0.31420 -0.01800
C 	C 	0.53960 0.15110 0.08700 0.08200
H 	H 	0.47040 0.16040 0.08270 -0.02700
C 	C 	0.70050 0.16540 0.11210 0.09700
H 	H 	0.76740 0.18690 0.12890 -0.02400
C 	C 	0.67010 0.38410 0.23680 0.30300
C 	C 	0.70150 0.43030 0.17540 -0.40700
H 	H 	0.69730 0.48440 0.18700 0.13300
H 	H 	0.77350 0.41850 0.18110 0.13400
C 	C 	0.63020 0.41240 0.08750 0.29300
H 	H 	0.65140 0.44320 0.04740 -0.08200
C 	C 	0.64070 0.32870 0.06960 -0.39300
H 	H 	0.71280 0.31720 0.07540 0.12800
H 	H 	0.59590 0.31640 0.01220 0.12100
C 	C 	0.60900 0.28280 0.13160 0.29200
C 	C 	0.68030 0.30000 0.22060 -0.39100
H 	H 	0.66040 0.26940 0.26080 0.13000
H 	H 	0.75250 0.28790 0.22710 0.13400
C 	C 	0.55930 0.40220 0.22710 -0.40100
H 	H 	0.55330 0.45620 0.23880 0.12600
H 	H 	0.53860 0.37250 0.26760 0.12500
C 	C 	0.48960 0.38420 0.14040 0.28500
H 	H 	0.41690 0.39640 0.13480 -0.07900
C 	C 	0.49760 0.30010 0.12290 -0.38600
H 	H 	0.45100 0.28770 0.06600 0.12100
H 	H 	0.47710 0.26950 0.16280 0.12300
C 	C 	0.52040 0.43070 0.07670 -0.39900
H 	H 	0.51340 0.48500 0.08590 0.12300
H 	H 	0.47500 0.41810 0.01950 0.12100
Cu	Cu	0.50000 0.50000 0.50000 0.87600
Cu	Cu	0.50000 0.00000 -0.00000 0.83900
Cu	Cu	-0.00000 0.00000 -0.00000 0.81800
Cu	Cu	0.00000 0.50000 0.50000 0.85600
