data_crystal

_cell_length_a 24.83600
_cell_length_b 9.69030
_cell_length_c 21.65270
_cell_angle_alpha 90.00000
_cell_angle_beta  103.24400
_cell_angle_gamma 90.00000

_symmetry_space_group_name_	'P 1'
_symmetry_space_group_name_H-M	'P 1'

loop_
_symmetry_equiv_pos_as_xyz
  x,y,z

loop_
_atom_site_label
_atom_site_type_symbol
_atom_site_fract_x
_atom_site_fract_y
_atom_site_fract_z
_atom_site_charge
Cu	Cu	0.70213 0.08463 0.53012 0.92300
Cl	Cl	0.71410 0.31850 0.80150 -5.81700
O 	O 	0.73536 0.29990 0.56535 -0.33200
O 	O 	0.81001 0.42480 0.56186 -0.34200
O 	O 	0.79391 0.55090 0.88010 -0.40800
O 	O 	0.85740 0.38230 0.89941 -0.41400
N 	N 	0.62457 0.15540 0.51774 -0.21800
N 	N 	0.27670 0.49630 0.54019 -0.21100
C 	C 	0.77691 0.36920 0.59039 0.18100
C 	C 	0.78861 0.39040 0.66019 0.26000
C 	C 	0.81120 0.43160 0.79378 -0.73500
C 	C 	0.75115 0.35090 0.69500 1.65400
H 	H 	0.71740 0.30920 0.67370 -0.51400
C 	C 	0.76140 0.37040 0.76110 0.49500
C 	C 	0.85090 0.47160 0.75900 0.86700
H 	H 	0.88500 0.51140 0.78040 -0.29100
C 	C 	0.83940 0.45190 0.69270 -0.12500
H 	H 	0.86570 0.47990 0.66950 -0.05100
C 	C 	0.82246 0.45240 0.86397 0.63100
C 	C 	0.58318 0.10780 0.47230 0.11000
H 	H 	0.59160 0.04550 0.44200 0.03200
C 	C 	0.52846 0.14510 0.46720 -0.16500
H 	H 	0.50000 0.10670 0.43480 0.12700
C 	C 	0.51565 0.23940 0.51004 0.14400
C 	C 	0.55924 0.28990 0.55660 -0.15300
H 	H 	0.55250 0.35500 0.58680 0.13200
C 	C 	0.61211 0.24560 0.55880 0.11900
H 	H 	0.64130 0.28100 0.59120 0.03400
C 	C 	0.45756 0.27760 0.50610 -0.08200
H 	H 	0.42980 0.23560 0.47410 0.08700
C 	C 	0.44182 0.36750 0.54480 -0.06400
H 	H 	0.47000 0.40970 0.57620 0.08800
C 	C 	0.38444 0.40680 0.54300 0.15600
C 	C 	0.37364 0.50290 0.58590 -0.11000
H 	H 	0.40330 0.54170 0.61670 0.14300
C 	C 	0.31997 0.54230 0.58412 0.16300
H 	H 	0.31340 0.60480 0.61540 0.08100
C 	C 	0.28679 0.40210 0.49841 0.09900
H 	H 	0.25650 0.36730 0.46730 -0.05900
C 	C 	0.33899 0.35400 0.49873 -0.17100
H 	H 	0.34410 0.28560 0.46920 0.06400
Cl	Cl	0.73460 0.24930 0.80960 8.55300
Cl	Cl	0.89170 0.62210 0.79360 -0.62600
Cl	Cl	0.82600 0.65610 0.64810 -0.86300
C 	C 	0.75821 0.31490 0.69795 0.01300
H 	H 	0.73040 0.25110 0.67860 0.19700
C 	C 	0.77013 0.33640 0.76383 0.62200
C 	C 	0.84106 0.50460 0.75601 0.17600
H 	H 	0.86900 0.56800 0.77540 0.45600
C 	C 	0.82979 0.48410 0.68999 -0.14100
H 	H 	0.85020 0.53410 0.66520 0.36400
H 	H 	0.75020 0.28590 0.78890 -2.86300
C 	C 	0.77820 0.28740 0.70030 -2.64600
H 	H 	0.76380 0.20170 0.68260 0.90200
C 	C 	0.78850 0.30580 0.76660 1.27400
H 	H 	0.78010 0.23410 0.79290 -0.99800
C 	C 	0.82170 0.53880 0.75350 -1.08800
H 	H 	0.83560 0.62490 0.77110 0.37900
C 	C 	0.81140 0.51780 0.68750 -0.02900
Cu	Cu	0.20213 0.58463 0.53012 0.92200
Cl	Cl	0.21410 0.81850 0.80150 -5.81600
O 	O 	0.23536 0.79990 0.56535 -0.33300
O 	O 	0.31001 0.92480 0.56186 -0.34400
O 	O 	0.29391 0.05090 0.88010 -0.41000
O 	O 	0.35740 0.88230 0.89941 -0.41500
N 	N 	0.12457 0.65540 0.51774 -0.21600
N 	N 	0.77670 0.99630 0.54019 -0.21100
C 	C 	0.27691 0.86920 0.59039 0.18100
C 	C 	0.28861 0.89040 0.66019 0.25900
C 	C 	0.31120 0.93160 0.79378 -0.73400
C 	C 	0.25115 0.85090 0.69500 1.65300
H 	H 	0.21740 0.80920 0.67370 -0.51400
C 	C 	0.26140 0.87040 0.76110 0.49600
C 	C 	0.35090 0.97160 0.75900 0.86400
H 	H 	0.38500 0.01140 0.78040 -0.29200
C 	C 	0.33940 0.95190 0.69270 -0.12300
H 	H 	0.36570 0.97990 0.66950 -0.05200
C 	C 	0.32246 0.95240 0.86397 0.63200
C 	C 	0.08318 0.60780 0.47230 0.10300
H 	H 	0.09160 0.54550 0.44200 0.03400
C 	C 	0.02846 0.64510 0.46720 -0.15400
H 	H 	-0.00000 0.60670 0.43480 0.12000
C 	C 	0.01565 0.73940 0.51004 0.12300
C 	C 	0.05924 0.78990 0.55660 -0.14200
H 	H 	0.05250 0.85500 0.58680 0.12600
C 	C 	0.11211 0.74560 0.55880 0.11200
H 	H 	0.14130 0.78100 0.59120 0.03600
C 	C 	0.95756 0.77760 0.50610 -0.05900
H 	H 	0.92980 0.73560 0.47410 0.08100
C 	C 	0.94182 0.86750 0.54480 -0.07700
H 	H 	0.97000 0.90970 0.57620 0.09500
C 	C 	0.88444 0.90680 0.54300 0.16400
C 	C 	0.87364 0.00290 0.58590 -0.11500
H 	H 	0.90330 0.04170 0.61670 0.14600
C 	C 	0.81997 0.04230 0.58412 0.16500
H 	H 	0.81340 0.10480 0.61540 0.08100
C 	C 	0.78679 0.90210 0.49841 0.10100
H 	H 	0.75650 0.86730 0.46730 -0.05900
C 	C 	0.83899 0.85400 0.49873 -0.17500
H 	H 	0.84410 0.78560 0.46920 0.06600
Cl	Cl	0.23460 0.74930 0.80960 8.55000
Cl	Cl	0.39170 0.12210 0.79360 -0.63200
Cl	Cl	0.32600 0.15610 0.64810 -0.86300
C 	C 	0.25821 0.81490 0.69795 0.01300
H 	H 	0.23040 0.75110 0.67860 0.19700
C 	C 	0.27013 0.83640 0.76383 0.62200
C 	C 	0.34106 0.00460 0.75601 0.17600
H 	H 	0.36900 0.06800 0.77540 0.46000
C 	C 	0.32979 0.98410 0.68999 -0.14000
H 	H 	0.35020 0.03410 0.66520 0.36400
H 	H 	0.25020 0.78590 0.78890 -2.86200
C 	C 	0.27820 0.78740 0.70030 -2.64600
H 	H 	0.26380 0.70170 0.68260 0.90200
C 	C 	0.28850 0.80580 0.76660 1.27200
H 	H 	0.28010 0.73410 0.79290 -0.99800
C 	C 	0.32170 0.03880 0.75350 -1.08700
H 	H 	0.33560 0.12490 0.77110 0.37800
C 	C 	0.31140 0.01780 0.68750 -0.03000
Cu	Cu	0.29787 0.08463 0.96988 0.92200
Cl	Cl	0.28590 0.31850 0.69850 -5.82000
O 	O 	0.26464 0.29990 0.93465 -0.33300
O 	O 	0.18999 0.42480 0.93814 -0.34300
O 	O 	0.20609 0.55090 0.61990 -0.40900
O 	O 	0.14260 0.38230 0.60059 -0.41600
N 	N 	0.37543 0.15540 0.98226 -0.21800
N 	N 	0.72330 0.49630 0.95981 -0.21100
C 	C 	0.22309 0.36920 0.90961 0.18100
C 	C 	0.21139 0.39040 0.83981 0.25900
C 	C 	0.18880 0.43160 0.70622 -0.73500
C 	C 	0.24885 0.35090 0.80500 1.65500
H 	H 	0.28260 0.30920 0.82630 -0.51400
C 	C 	0.23860 0.37040 0.73890 0.49600
C 	C 	0.14910 0.47160 0.74100 0.86500
H 	H 	0.11500 0.51140 0.71960 -0.29300
C 	C 	0.16060 0.45190 0.80730 -0.12600
H 	H 	0.13430 0.47990 0.83050 -0.05200
C 	C 	0.17754 0.45240 0.63603 0.63100
C 	C 	0.41682 0.10780 0.02770 0.11000
H 	H 	0.40840 0.04550 0.05800 0.03200
C 	C 	0.47154 0.14510 0.03280 -0.16400
H 	H 	0.50000 0.10670 0.06520 0.12700
C 	C 	0.48435 0.23940 0.98996 0.14400
C 	C 	0.44076 0.28990 0.94340 -0.15300
H 	H 	0.44750 0.35500 0.91320 0.13200
C 	C 	0.38789 0.24560 0.94120 0.11900
H 	H 	0.35870 0.28100 0.90880 0.03400
C 	C 	0.54244 0.27760 0.99390 -0.08200
H 	H 	0.57020 0.23560 0.02590 0.08800
C 	C 	0.55818 0.36750 0.95520 -0.06300
H 	H 	0.53000 0.40970 0.92380 0.08800
C 	C 	0.61556 0.40680 0.95700 0.15500
C 	C 	0.62636 0.50290 0.91410 -0.10900
H 	H 	0.59670 0.54170 0.88330 0.14300
C 	C 	0.68003 0.54230 0.91588 0.16300
H 	H 	0.68660 0.60480 0.88460 0.08100
C 	C 	0.71321 0.40210 0.00159 0.09900
H 	H 	0.74350 0.36730 0.03270 -0.05900
C 	C 	0.66101 0.35400 0.00127 -0.17000
H 	H 	0.65590 0.28560 0.03080 0.06400
Cl	Cl	0.26540 0.24930 0.69040 8.55500
Cl	Cl	0.10830 0.62210 0.70640 -0.63600
Cl	Cl	0.17400 0.65610 0.85190 -0.86300
C 	C 	0.24179 0.31490 0.80205 0.01300
H 	H 	0.26960 0.25110 0.82140 0.19700
C 	C 	0.22987 0.33640 0.73617 0.62200
C 	C 	0.15894 0.50460 0.74399 0.17600
H 	H 	0.13100 0.56800 0.72460 0.46300
C 	C 	0.17021 0.48410 0.81001 -0.14100
H 	H 	0.14980 0.53410 0.83480 0.36400
H 	H 	0.24980 0.28590 0.71110 -2.86400
C 	C 	0.22180 0.28740 0.79970 -2.64800
H 	H 	0.23620 0.20170 0.81740 0.90200
C 	C 	0.21150 0.30580 0.73340 1.27300
H 	H 	0.21990 0.23410 0.70710 -0.99800
C 	C 	0.17830 0.53880 0.74650 -1.08800
H 	H 	0.16440 0.62490 0.72890 0.37800
C 	C 	0.18860 0.51780 0.81250 -0.02700
Cu	Cu	0.79787 0.58463 0.96988 0.92200
Cl	Cl	0.78590 0.81850 0.69850 -5.82400
O 	O 	0.76464 0.79990 0.93465 -0.33300
O 	O 	0.68999 0.92480 0.93814 -0.34300
O 	O 	0.70609 0.05090 0.61990 -0.41000
O 	O 	0.64260 0.88230 0.60059 -0.41600
N 	N 	0.87543 0.65540 0.98226 -0.21600
N 	N 	0.22330 0.99630 0.95981 -0.20900
C 	C 	0.72309 0.86920 0.90961 0.18100
C 	C 	0.71139 0.89040 0.83981 0.26000
C 	C 	0.68880 0.93160 0.70622 -0.73500
C 	C 	0.74885 0.85090 0.80500 1.65600
H 	H 	0.78260 0.80920 0.82630 -0.51500
C 	C 	0.73860 0.87040 0.73890 0.49700
C 	C 	0.64910 0.97160 0.74100 0.86700
H 	H 	0.61500 0.01140 0.71960 -0.29200
C 	C 	0.66060 0.95190 0.80730 -0.12500
H 	H 	0.63430 0.97990 0.83050 -0.05100
C 	C 	0.67754 0.95240 0.63603 0.63200
C 	C 	0.91682 0.60780 0.02770 0.10200
H 	H 	0.90840 0.54550 0.05800 0.03600
C 	C 	0.97154 0.64510 0.03280 -0.14600
H 	H 	0.00000 0.60670 0.06520 0.11400
C 	C 	0.98435 0.73940 0.98996 0.14800
C 	C 	0.94076 0.78990 0.94340 -0.15300
H 	H 	0.94750 0.85500 0.91320 0.13500
C 	C 	0.88789 0.74560 0.94120 0.11900
H 	H 	0.85870 0.78100 0.90880 0.03400
C 	C 	0.04244 0.77760 0.99390 -0.09000
H 	H 	0.07020 0.73560 0.02590 0.08800
C 	C 	0.05818 0.86750 0.95520 -0.06100
H 	H 	0.03000 0.90970 0.92380 0.08400
C 	C 	0.11556 0.90680 0.95700 0.15600
C 	C 	0.12636 0.00290 0.91410 -0.11000
H 	H 	0.09670 0.04170 0.88330 0.14200
C 	C 	0.18003 0.04230 0.91588 0.16200
H 	H 	0.18660 0.10480 0.88460 0.08100
C 	C 	0.21321 0.90210 0.00159 0.09800
H 	H 	0.24350 0.86730 0.03270 -0.05900
C 	C 	0.16101 0.85400 0.00127 -0.17100
H 	H 	0.15590 0.78560 0.03080 0.06400
Cl	Cl	0.76540 0.74930 0.69040 8.56200
Cl	Cl	0.60830 0.12210 0.70640 -0.63100
Cl	Cl	0.67400 0.15610 0.85190 -0.86300
C 	C 	0.74179 0.81490 0.80205 0.01300
H 	H 	0.76960 0.75110 0.82140 0.19700
C 	C 	0.72987 0.83640 0.73617 0.62300
C 	C 	0.65894 0.00460 0.74399 0.17600
H 	H 	0.63100 0.06800 0.72460 0.46000
C 	C 	0.67021 0.98410 0.81001 -0.14100
H 	H 	0.64980 0.03410 0.83480 0.36300
H 	H 	0.74980 0.78590 0.71110 -2.86600
C 	C 	0.72180 0.78740 0.79970 -2.65000
H 	H 	0.73620 0.70170 0.81740 0.90300
C 	C 	0.71150 0.80580 0.73340 1.27400
H 	H 	0.71990 0.73410 0.70710 -0.99900
C 	C 	0.67830 0.03880 0.74650 -1.08900
H 	H 	0.66440 0.12490 0.72890 0.37900
C 	C 	0.68860 0.01780 0.81250 -0.02800
Cu	Cu	0.29787 0.91537 0.46988 0.92200
Cl	Cl	0.28590 0.68150 0.19850 -5.82100
O 	O 	0.26464 0.70010 0.43465 -0.33300
O 	O 	0.18999 0.57520 0.43814 -0.34400
O 	O 	0.20609 0.44910 0.11990 -0.40900
O 	O 	0.14260 0.61770 0.10059 -0.41600
N 	N 	0.37543 0.84460 0.48226 -0.21800
N 	N 	0.72330 0.50370 0.45981 -0.21100
C 	C 	0.22309 0.63080 0.40961 0.18100
C 	C 	0.21139 0.60960 0.33981 0.25900
C 	C 	0.18880 0.56840 0.20622 -0.73500
C 	C 	0.24885 0.64910 0.30500 1.65500
H 	H 	0.28260 0.69080 0.32630 -0.51500
C 	C 	0.23860 0.62960 0.23890 0.49600
C 	C 	0.14910 0.52840 0.24100 0.86500
H 	H 	0.11500 0.48860 0.21960 -0.29300
C 	C 	0.16060 0.54810 0.30730 -0.12600
H 	H 	0.13430 0.52010 0.33050 -0.05200
C 	C 	0.17754 0.54760 0.13603 0.63100
C 	C 	0.41682 0.89220 0.52770 0.11000
H 	H 	0.40840 0.95450 0.55800 0.03200
C 	C 	0.47154 0.85490 0.53280 -0.16500
H 	H 	0.50000 0.89330 0.56520 0.12700
C 	C 	0.48435 0.76060 0.48996 0.14400
C 	C 	0.44076 0.71010 0.44340 -0.15300
H 	H 	0.44750 0.64500 0.41320 0.13200
C 	C 	0.38789 0.75440 0.44120 0.11900
H 	H 	0.35870 0.71900 0.40880 0.03400
C 	C 	0.54244 0.72240 0.49390 -0.08200
H 	H 	0.57020 0.76440 0.52590 0.08700
C 	C 	0.55818 0.63250 0.45520 -0.06400
H 	H 	0.53000 0.59030 0.42380 0.08800
C 	C 	0.61556 0.59320 0.45700 0.15600
C 	C 	0.62636 0.49710 0.41410 -0.11000
H 	H 	0.59670 0.45830 0.38330 0.14300
C 	C 	0.68003 0.45770 0.41588 0.16300
H 	H 	0.68660 0.39520 0.38460 0.08100
C 	C 	0.71321 0.59790 0.50159 0.09900
H 	H 	0.74350 0.63270 0.53270 -0.05900
C 	C 	0.66101 0.64600 0.50127 -0.17100
H 	H 	0.65590 0.71440 0.53080 0.06400
Cl	Cl	0.26540 0.75070 0.19040 8.55700
Cl	Cl	0.10830 0.37790 0.20640 -0.63600
Cl	Cl	0.17400 0.34390 0.35190 -0.86400
C 	C 	0.24179 0.68510 0.30205 0.01300
H 	H 	0.26960 0.74890 0.32140 0.19700
C 	C 	0.22987 0.66360 0.23617 0.62200
C 	C 	0.15894 0.49540 0.24399 0.17600
H 	H 	0.13100 0.43200 0.22460 0.46300
C 	C 	0.17021 0.51590 0.31001 -0.14100
H 	H 	0.14980 0.46590 0.33480 0.36400
H 	H 	0.24980 0.71410 0.21110 -2.86400
C 	C 	0.22180 0.71260 0.29970 -2.64800
H 	H 	0.23620 0.79830 0.31740 0.90200
C 	C 	0.21150 0.69420 0.23340 1.27300
H 	H 	0.21990 0.76590 0.20710 -0.99900
C 	C 	0.17830 0.46120 0.24650 -1.08800
H 	H 	0.16440 0.37510 0.22890 0.37800
C 	C 	0.18860 0.48220 0.31250 -0.02700
Cu	Cu	0.79787 0.41537 0.46988 0.92200
Cl	Cl	0.78590 0.18150 0.19850 -5.82400
O 	O 	0.76464 0.20010 0.43465 -0.33300
O 	O 	0.68999 0.07520 0.43814 -0.34400
O 	O 	0.70609 0.94910 0.11990 -0.41000
O 	O 	0.64260 0.11770 0.10059 -0.41600
N 	N 	0.87543 0.34460 0.48226 -0.21700
N 	N 	0.22330 0.00370 0.45981 -0.21000
C 	C 	0.72309 0.13080 0.40961 0.18100
C 	C 	0.71139 0.10960 0.33981 0.26000
C 	C 	0.68880 0.06840 0.20622 -0.73600
C 	C 	0.74885 0.14910 0.30500 1.65600
H 	H 	0.78260 0.19080 0.32630 -0.51500
C 	C 	0.73860 0.12960 0.23890 0.49700
C 	C 	0.64910 0.02840 0.24100 0.86500
H 	H 	0.61500 0.98860 0.21960 -0.29200
C 	C 	0.66060 0.04810 0.30730 -0.12400
H 	H 	0.63430 0.02010 0.33050 -0.05200
C 	C 	0.67754 0.04760 0.13603 0.63200
C 	C 	0.91682 0.39220 0.52770 0.10400
H 	H 	0.90840 0.45450 0.55800 0.03600
C 	C 	0.97154 0.35490 0.53280 -0.14900
H 	H 	0.00000 0.39330 0.56520 0.11500
C 	C 	0.98435 0.26060 0.48996 0.15200
C 	C 	0.94076 0.21010 0.44340 -0.15600
H 	H 	0.94750 0.14500 0.41320 0.13600
C 	C 	0.88789 0.25440 0.44120 0.12000
H 	H 	0.85870 0.21900 0.40880 0.03400
C 	C 	0.04244 0.22240 0.49390 -0.09600
H 	H 	0.07020 0.26440 0.52590 0.09100
C 	C 	0.05818 0.13250 0.45520 -0.05600
H 	H 	0.03000 0.09030 0.42380 0.08200
C 	C 	0.11556 0.09320 0.45700 0.15200
C 	C 	0.12636 0.99710 0.41410 -0.10700
H 	H 	0.09670 0.95830 0.38330 0.14100
C 	C 	0.18003 0.95770 0.41588 0.16100
H 	H 	0.18660 0.89520 0.38460 0.08100
C 	C 	0.21321 0.09790 0.50159 0.09800
H 	H 	0.24350 0.13270 0.53270 -0.05800
C 	C 	0.16101 0.14600 0.50127 -0.16800
H 	H 	0.15590 0.21440 0.53080 0.06300
Cl	Cl	0.76540 0.25070 0.19040 8.56300
Cl	Cl	0.60830 0.87790 0.20640 -0.63200
Cl	Cl	0.67400 0.84390 0.35190 -0.86300
C 	C 	0.74179 0.18510 0.30205 0.01300
H 	H 	0.76960 0.24890 0.32140 0.19700
C 	C 	0.72987 0.16360 0.23617 0.62300
C 	C 	0.65894 0.99540 0.24399 0.17600
H 	H 	0.63100 0.93200 0.22460 0.46000
C 	C 	0.67021 0.01590 0.31001 -0.14000
H 	H 	0.64980 0.96590 0.33480 0.36400
H 	H 	0.74980 0.21410 0.21110 -2.86700
C 	C 	0.72180 0.21260 0.29970 -2.65000
H 	H 	0.73620 0.29830 0.31740 0.90300
C 	C 	0.71150 0.19420 0.23340 1.27400
H 	H 	0.71990 0.26590 0.20710 -0.99900
C 	C 	0.67830 0.96120 0.24650 -1.08700
H 	H 	0.66440 0.87510 0.22890 0.37800
C 	C 	0.68860 0.98220 0.31250 -0.03000
Cu	Cu	0.70213 0.91537 0.03012 0.92200
Cl	Cl	0.71410 0.68150 0.30150 -5.81700
O 	O 	0.73536 0.70010 0.06535 -0.33300
O 	O 	0.81001 0.57520 0.06186 -0.34300
O 	O 	0.79391 0.44910 0.38010 -0.40900
O 	O 	0.85740 0.61770 0.39941 -0.41400
N 	N 	0.62457 0.84460 0.01774 -0.21800
N 	N 	0.27670 0.50370 0.04019 -0.21100
C 	C 	0.77691 0.63080 0.09039 0.18100
C 	C 	0.78861 0.60960 0.16019 0.26000
C 	C 	0.81120 0.56840 0.29378 -0.73500
C 	C 	0.75115 0.64910 0.19500 1.65400
H 	H 	0.71740 0.69080 0.17370 -0.51400
C 	C 	0.76140 0.62960 0.26110 0.49500
C 	C 	0.85090 0.52840 0.25900 0.86700
H 	H 	0.88500 0.48860 0.28040 -0.29100
C 	C 	0.83940 0.54810 0.19270 -0.12500
H 	H 	0.86570 0.52010 0.16950 -0.05100
C 	C 	0.82246 0.54760 0.36397 0.63100
C 	C 	0.58318 0.89220 0.97230 0.11000
H 	H 	0.59160 0.95450 0.94200 0.03200
C 	C 	0.52846 0.85490 0.96720 -0.16400
H 	H 	0.50000 0.89330 0.93480 0.12700
C 	C 	0.51565 0.76060 0.01004 0.14400
C 	C 	0.55924 0.71010 0.05660 -0.15300
H 	H 	0.55250 0.64500 0.08680 0.13200
C 	C 	0.61211 0.75440 0.05880 0.11900
H 	H 	0.64130 0.71900 0.09120 0.03400
C 	C 	0.45756 0.72240 0.00610 -0.08300
H 	H 	0.42980 0.76440 0.97410 0.08800
C 	C 	0.44182 0.63250 0.04480 -0.06300
H 	H 	0.47000 0.59030 0.07620 0.08700
C 	C 	0.38444 0.59320 0.04300 0.15500
C 	C 	0.37364 0.49710 0.08590 -0.10900
H 	H 	0.40330 0.45830 0.11670 0.14300
C 	C 	0.31997 0.45770 0.08412 0.16300
H 	H 	0.31340 0.39520 0.11540 0.08100
C 	C 	0.28679 0.59790 0.99841 0.09900
H 	H 	0.25650 0.63270 0.96730 -0.05900
C 	C 	0.33899 0.64600 0.99873 -0.16900
H 	H 	0.34410 0.71440 0.96920 0.06400
Cl	Cl	0.73460 0.75070 0.30960 8.55100
Cl	Cl	0.89170 0.37790 0.29360 -0.62600
Cl	Cl	0.82600 0.34390 0.14810 -0.86300
C 	C 	0.75821 0.68510 0.19795 0.01300
H 	H 	0.73040 0.74890 0.17860 0.19700
C 	C 	0.77013 0.66360 0.26383 0.62200
C 	C 	0.84106 0.49540 0.25601 0.17600
H 	H 	0.86900 0.43200 0.27540 0.45600
C 	C 	0.82979 0.51590 0.18999 -0.14100
H 	H 	0.85020 0.46590 0.16520 0.36400
H 	H 	0.75020 0.71410 0.28890 -2.86200
C 	C 	0.77820 0.71260 0.20030 -2.64600
H 	H 	0.76380 0.79830 0.18260 0.90200
C 	C 	0.78850 0.69420 0.26660 1.27300
H 	H 	0.78010 0.76590 0.29290 -0.99800
C 	C 	0.82170 0.46120 0.25350 -1.08800
H 	H 	0.83560 0.37510 0.27110 0.37900
C 	C 	0.81140 0.48220 0.18750 -0.02900
Cu	Cu	0.20213 0.41537 0.03012 0.92200
Cl	Cl	0.21410 0.18150 0.30150 -5.81600
O 	O 	0.23536 0.20010 0.06535 -0.33300
O 	O 	0.31001 0.07520 0.06186 -0.34300
O 	O 	0.29391 0.94910 0.38010 -0.41000
O 	O 	0.35740 0.11770 0.39941 -0.41500
N 	N 	0.12457 0.34460 0.01774 -0.21500
N 	N 	0.77670 0.00370 0.04019 -0.21100
C 	C 	0.27691 0.13080 0.09039 0.18100
C 	C 	0.28861 0.10960 0.16019 0.25900
C 	C 	0.31120 0.06840 0.29378 -0.73400
C 	C 	0.25115 0.14910 0.19500 1.65400
H 	H 	0.21740 0.19080 0.17370 -0.51400
C 	C 	0.26140 0.12960 0.26110 0.49600
C 	C 	0.35090 0.02840 0.25900 0.86600
H 	H 	0.38500 0.98860 0.28040 -0.29200
C 	C 	0.33940 0.04810 0.19270 -0.12400
H 	H 	0.36570 0.02010 0.16950 -0.05100
C 	C 	0.32246 0.04760 0.36397 0.63100
C 	C 	0.08318 0.39220 0.97230 0.10300
H 	H 	0.09160 0.45450 0.94200 0.03400
C 	C 	0.02846 0.35490 0.96720 -0.15200
H 	H 	0.00000 0.39330 0.93480 0.11900
C 	C 	0.01565 0.26060 0.01004 0.12100
C 	C 	0.05924 0.21010 0.05660 -0.14000
H 	H 	0.05250 0.14500 0.08680 0.12500
C 	C 	0.11211 0.25440 0.05880 0.11200
H 	H 	0.14130 0.21900 0.09120 0.03600
C 	C 	0.95756 0.22240 0.00610 -0.05400
H 	H 	0.92980 0.26440 0.97410 0.07900
C 	C 	0.94182 0.13250 0.04480 -0.08000
H 	H 	0.97000 0.09030 0.07620 0.09700
C 	C 	0.88444 0.09320 0.04300 0.16800
C 	C 	0.87364 0.99710 0.08590 -0.11700
H 	H 	0.90330 0.95830 0.11670 0.14700
C 	C 	0.81997 0.95770 0.08412 0.16600
H 	H 	0.81340 0.89520 0.11540 0.08000
C 	C 	0.78679 0.09790 0.99841 0.10200
H 	H 	0.75650 0.13270 0.96730 -0.06000
C 	C 	0.83899 0.14600 0.99873 -0.17800
H 	H 	0.84410 0.21440 0.96920 0.06700
Cl	Cl	0.23460 0.25070 0.30960 8.54900
Cl	Cl	0.39170 0.87790 0.29360 -0.63100
Cl	Cl	0.32600 0.84390 0.14810 -0.86300
C 	C 	0.25821 0.18510 0.19795 0.01300
H 	H 	0.23040 0.24890 0.17860 0.19700
C 	C 	0.27013 0.16360 0.26383 0.62200
C 	C 	0.34106 0.99540 0.25601 0.17600
H 	H 	0.36900 0.93200 0.27540 0.46000
C 	C 	0.32979 0.01590 0.18999 -0.14100
H 	H 	0.35020 0.96590 0.16520 0.36400
H 	H 	0.25020 0.21410 0.28890 -2.86100
C 	C 	0.27820 0.21260 0.20030 -2.64600
H 	H 	0.26380 0.29830 0.18260 0.90200
C 	C 	0.28850 0.19420 0.26660 1.27200
H 	H 	0.28010 0.26590 0.29290 -0.99800
C 	C 	0.32170 0.96120 0.25350 -1.08900
H 	H 	0.33560 0.87510 0.27110 0.37900
C 	C 	0.31140 0.98220 0.18750 -0.02900
