data_crystal

_cell_length_a 24.94970
_cell_length_b 9.48520
_cell_length_c 21.73190
_cell_angle_alpha 90.00000
_cell_angle_beta  102.26100
_cell_angle_gamma 90.00000

_symmetry_space_group_name_	'P 1'
_symmetry_space_group_name_H-M	'P 1'

loop_
_symmetry_equiv_pos_as_xyz
  x,y,z

loop_
_atom_site_label
_atom_site_type_symbol
_atom_site_fract_x
_atom_site_fract_y
_atom_site_fract_z
_atom_site_charge
Cu	Cu	0.79709 0.57882 0.47043 0.92100
N 	N 	0.87464 0.64810 0.48242 -0.22000
N 	N 	0.22263 0.99020 0.46251 -0.21600
C 	C 	0.88893 0.73520 0.44069 0.10700
H 	H 	0.86110 0.76920 0.40720 0.00800
C 	C 	0.94214 0.77880 0.44360 -0.17100
H 	H 	0.95020 0.84130 0.41270 0.09600
C 	C 	0.98369 0.73130 0.49167 0.13500
C 	C 	0.96882 0.64010 0.53490 -0.17300
H 	H 	0.99600 0.60360 0.56850 0.09900
C 	C 	0.91446 0.60210 0.52926 0.10200
H 	H 	0.90510 0.54080 0.55990 0.00200
C 	C 	0.04143 0.76960 0.49662 -0.10500
H 	H 	0.06820 0.72570 0.52850 0.08600
C 	C 	0.05840 0.86210 0.45910 -0.06600
H 	H 	0.03100 0.90730 0.42830 0.05600
C 	C 	0.11561 0.90080 0.46083 0.11500
C 	C 	0.12705 0.99680 0.41680 -0.15000
H 	H 	0.09810 0.03520 0.38580 0.08900
C 	C 	0.18071 0.03620 0.41836 0.10100
H 	H 	0.18800 0.09830 0.38680 0.01000
C 	C 	0.21186 0.89690 0.50469 0.10000
H 	H 	0.24160 0.86260 0.53600 0.00800
C 	C 	0.15999 0.84840 0.50487 -0.16000
H 	H 	0.15450 0.77980 0.53480 0.10100
Cu	Cu	0.29709 0.07882 0.47043 0.92100
N 	N 	0.37464 0.14810 0.48242 -0.22000
N 	N 	0.72263 0.49020 0.46251 -0.21700
C 	C 	0.38893 0.23520 0.44069 0.10700
H 	H 	0.36110 0.26920 0.40720 0.00800
C 	C 	0.44214 0.27880 0.44360 -0.17100
H 	H 	0.45020 0.34130 0.41270 0.09500
C 	C 	0.48369 0.23130 0.49167 0.13500
C 	C 	0.46882 0.14010 0.53490 -0.17300
H 	H 	0.49600 0.10360 0.56850 0.09900
C 	C 	0.41446 0.10210 0.52926 0.10200
H 	H 	0.40510 0.04080 0.55990 0.00200
C 	C 	0.54143 0.26960 0.49662 -0.10400
H 	H 	0.56820 0.22570 0.52850 0.08600
C 	C 	0.55840 0.36210 0.45910 -0.06600
H 	H 	0.53100 0.40730 0.42830 0.05600
C 	C 	0.61561 0.40080 0.46083 0.11600
C 	C 	0.62705 0.49680 0.41680 -0.15200
H 	H 	0.59810 0.53520 0.38580 0.09000
C 	C 	0.68071 0.53620 0.41836 0.10300
H 	H 	0.68800 0.59830 0.38680 0.00900
C 	C 	0.71186 0.39690 0.50469 0.10100
H 	H 	0.74160 0.36260 0.53600 0.00800
C 	C 	0.65999 0.34840 0.50487 -0.16000
H 	H 	0.65450 0.27980 0.53480 0.10100
O 	O 	0.23293 0.79800 0.06622 -0.35800
O 	O 	0.30783 0.92350 0.06196 -0.39300
O 	O 	0.29220 0.03670 0.38119 -0.37500
O 	O 	0.36502 0.89230 0.39499 -0.29500
O 	O 	0.17629 0.80520 0.27444 -0.11800
O 	O 	0.24415 0.74950 0.35020 -0.11900
N 	N 	0.22561 0.79920 0.29810 -0.01200
C 	C 	0.27404 0.86650 0.09078 0.33700
C 	C 	0.28696 0.88800 0.16120 -0.02600
C 	C 	0.33448 0.95690 0.19135 -0.04100
H 	H 	0.35890 0.99330 0.16720 0.06800
C 	C 	0.34678 0.97330 0.25666 0.02600
H 	H 	0.38000 0.01810 0.27660 0.03800
C 	C 	0.31100 0.92500 0.29253 -0.10100
C 	C 	0.26425 0.85460 0.26154 0.12600
C 	C 	0.25211 0.83390 0.19698 -0.08200
H 	H 	0.22020 0.78300 0.17750 0.09500
C 	C 	0.32467 0.95020 0.36326 0.35500
O 	O 	0.73293 0.29800 0.06622 -0.35800
O 	O 	0.80783 0.42350 0.06196 -0.39300
O 	O 	0.79220 0.53670 0.38119 -0.37500
O 	O 	0.86502 0.39230 0.39499 -0.29500
O 	O 	0.67629 0.30520 0.27444 -0.11900
O 	O 	0.74415 0.24950 0.35020 -0.11900
N 	N 	0.72561 0.29920 0.29810 -0.01200
C 	C 	0.77404 0.36650 0.09078 0.33700
C 	C 	0.78696 0.38800 0.16120 -0.02600
C 	C 	0.83448 0.45690 0.19135 -0.04000
H 	H 	0.85890 0.49330 0.16720 0.06700
C 	C 	0.84678 0.47330 0.25666 0.02400
H 	H 	0.88000 0.51810 0.27660 0.03900
C 	C 	0.81100 0.42500 0.29253 -0.10100
C 	C 	0.76425 0.35460 0.26154 0.12500
C 	C 	0.75211 0.33390 0.19698 -0.08200
H 	H 	0.72020 0.28300 0.17750 0.09500
C 	C 	0.82467 0.45020 0.36326 0.35500
O 	O 	0.23293 0.20200 0.56622 -0.35800
O 	O 	0.30783 0.07650 0.56196 -0.39300
O 	O 	0.29220 0.96330 0.88119 -0.37600
O 	O 	0.36502 0.10770 0.89499 -0.29500
O 	O 	0.17629 0.19480 0.77444 -0.11800
O 	O 	0.24415 0.25050 0.85020 -0.11800
N 	N 	0.22561 0.20080 0.79810 -0.01200
C 	C 	0.27404 0.13350 0.59078 0.33700
C 	C 	0.28696 0.11200 0.66120 -0.02600
C 	C 	0.33448 0.04310 0.69135 -0.04100
H 	H 	0.35890 0.00670 0.66720 0.06800
C 	C 	0.34678 0.02670 0.75666 0.02600
H 	H 	0.38000 0.98190 0.77660 0.03800
C 	C 	0.31100 0.07500 0.79253 -0.10200
C 	C 	0.26425 0.14540 0.76154 0.12600
C 	C 	0.25211 0.16610 0.69698 -0.08200
H 	H 	0.22020 0.21700 0.67750 0.09500
C 	C 	0.32467 0.04980 0.86326 0.35600
O 	O 	0.73293 0.70200 0.56622 -0.35800
O 	O 	0.80783 0.57650 0.56196 -0.39300
O 	O 	0.79220 0.46330 0.88119 -0.37500
O 	O 	0.86502 0.60770 0.89499 -0.29500
O 	O 	0.67629 0.69480 0.77444 -0.11900
O 	O 	0.74415 0.75050 0.85020 -0.11900
N 	N 	0.72561 0.70080 0.79810 -0.01200
C 	C 	0.77404 0.63350 0.59078 0.33800
C 	C 	0.78696 0.61200 0.66120 -0.02600
C 	C 	0.83448 0.54310 0.69135 -0.04000
H 	H 	0.85890 0.50670 0.66720 0.06700
C 	C 	0.84678 0.52670 0.75666 0.02400
H 	H 	0.88000 0.48190 0.77660 0.03900
C 	C 	0.81100 0.57500 0.79253 -0.10100
C 	C 	0.76425 0.64540 0.76154 0.12500
C 	C 	0.75211 0.66610 0.69698 -0.08200
H 	H 	0.72020 0.71700 0.67750 0.09500
C 	C 	0.82467 0.54980 0.86326 0.35500
Cu	Cu	0.79709 0.42118 0.97043 0.92100
N 	N 	0.87464 0.35190 0.98242 -0.21900
N 	N 	0.22263 0.00980 0.96251 -0.21400
C 	C 	0.88893 0.26480 0.94069 0.10600
H 	H 	0.86110 0.23080 0.90720 0.00800
C 	C 	0.94214 0.22120 0.94360 -0.17000
H 	H 	0.95020 0.15870 0.91270 0.09500
C 	C 	0.98369 0.26870 0.99167 0.13300
C 	C 	0.96882 0.35990 0.03490 -0.17200
H 	H 	0.99600 0.39640 0.06850 0.09900
C 	C 	0.91446 0.39790 0.02926 0.10100
H 	H 	0.90510 0.45920 0.05990 0.00200
C 	C 	0.04143 0.23040 0.99662 -0.10000
H 	H 	0.06820 0.27430 0.02850 0.08400
C 	C 	0.05840 0.13790 0.95910 -0.06700
H 	H 	0.03100 0.09270 0.92830 0.05700
C 	C 	0.11561 0.09920 0.96083 0.11600
C 	C 	0.12705 0.00320 0.91680 -0.14700
H 	H 	0.09810 0.96480 0.88580 0.08800
C 	C 	0.18071 0.96380 0.91836 0.09800
H 	H 	0.18800 0.90170 0.88680 0.01100
C 	C 	0.21186 0.10310 0.00469 0.09900
H 	H 	0.24160 0.13740 0.03600 0.00900
C 	C 	0.15999 0.15160 0.00487 -0.16100
H 	H 	0.15450 0.22020 0.03480 0.10100
Cu	Cu	0.29709 0.92118 0.97043 0.92000
N 	N 	0.37464 0.85190 0.98242 -0.22000
N 	N 	0.72263 0.50980 0.96251 -0.21700
C 	C 	0.38893 0.76480 0.94069 0.10700
H 	H 	0.36110 0.73080 0.90720 0.00800
C 	C 	0.44214 0.72120 0.94360 -0.17100
H 	H 	0.45020 0.65870 0.91270 0.09600
C 	C 	0.48369 0.76870 0.99167 0.13400
C 	C 	0.46882 0.85990 0.03490 -0.17300
H 	H 	0.49600 0.89640 0.06850 0.09900
C 	C 	0.41446 0.89790 0.02926 0.10300
H 	H 	0.40510 0.95920 0.05990 0.00200
C 	C 	0.54143 0.73040 0.99662 -0.10600
H 	H 	0.56820 0.77430 0.02850 0.08700
C 	C 	0.55840 0.63790 0.95910 -0.06500
H 	H 	0.53100 0.59270 0.92830 0.05500
C 	C 	0.61561 0.59920 0.96083 0.11500
C 	C 	0.62705 0.50320 0.91680 -0.15100
H 	H 	0.59810 0.46480 0.88580 0.09000
C 	C 	0.68071 0.46380 0.91836 0.10200
H 	H 	0.68800 0.40170 0.88680 0.00900
C 	C 	0.71186 0.60310 0.00469 0.10100
H 	H 	0.74160 0.63740 0.03600 0.00900
C 	C 	0.65999 0.65160 0.00487 -0.15900
H 	H 	0.65450 0.72020 0.03480 0.10100
O 	O 	0.76707 0.79800 0.43378 -0.35800
O 	O 	0.69217 0.92350 0.43804 -0.39300
O 	O 	0.70780 0.03670 0.11881 -0.37600
O 	O 	0.63498 0.89230 0.10501 -0.29500
O 	O 	0.82371 0.80520 0.22556 -0.11800
O 	O 	0.75585 0.74950 0.14980 -0.11800
N 	N 	0.77439 0.79920 0.20190 -0.01200
C 	C 	0.72596 0.86650 0.40922 0.33700
C 	C 	0.71304 0.88800 0.33880 -0.02600
C 	C 	0.66552 0.95690 0.30865 -0.04100
H 	H 	0.64110 0.99330 0.33280 0.06800
C 	C 	0.65322 0.97330 0.24334 0.02600
H 	H 	0.62000 0.01810 0.22340 0.03800
C 	C 	0.68900 0.92500 0.20747 -0.10200
C 	C 	0.73575 0.85460 0.23846 0.12600
C 	C 	0.74789 0.83390 0.30302 -0.08200
H 	H 	0.77980 0.78300 0.32250 0.09500
C 	C 	0.67533 0.95020 0.13674 0.35600
O 	O 	0.26707 0.29800 0.43378 -0.35800
O 	O 	0.19217 0.42350 0.43804 -0.39300
O 	O 	0.20780 0.53670 0.11881 -0.37500
O 	O 	0.13498 0.39230 0.10501 -0.29500
O 	O 	0.32371 0.30520 0.22556 -0.11900
O 	O 	0.25585 0.24950 0.14980 -0.11900
N 	N 	0.27439 0.29920 0.20190 -0.01200
C 	C 	0.22596 0.36650 0.40922 0.33800
C 	C 	0.21304 0.38800 0.33880 -0.02600
C 	C 	0.16552 0.45690 0.30865 -0.04000
H 	H 	0.14110 0.49330 0.33280 0.06700
C 	C 	0.15322 0.47330 0.24334 0.02400
H 	H 	0.12000 0.51810 0.22340 0.03900
C 	C 	0.18900 0.42500 0.20747 -0.10100
C 	C 	0.23575 0.35460 0.23846 0.12500
C 	C 	0.24789 0.33390 0.30302 -0.08200
H 	H 	0.27980 0.28300 0.32250 0.09500
C 	C 	0.17533 0.45020 0.13674 0.35500
Cu	Cu	0.20291 0.57882 0.02957 0.92100
N 	N 	0.12536 0.64810 0.01758 -0.21900
N 	N 	0.77737 0.99020 0.03749 -0.21400
C 	C 	0.11107 0.73520 0.05931 0.10600
H 	H 	0.13890 0.76920 0.09280 0.00800
C 	C 	0.05786 0.77880 0.05640 -0.17000
H 	H 	0.04980 0.84130 0.08730 0.09500
C 	C 	0.01631 0.73130 0.00833 0.13300
C 	C 	0.03118 0.64010 0.96510 -0.17200
H 	H 	0.00400 0.60360 0.93150 0.09900
C 	C 	0.08554 0.60210 0.97074 0.10100
H 	H 	0.09490 0.54080 0.94010 0.00200
C 	C 	0.95857 0.76960 0.00338 -0.10000
H 	H 	0.93180 0.72570 0.97150 0.08400
C 	C 	0.94160 0.86210 0.04090 -0.06700
H 	H 	0.96900 0.90730 0.07170 0.05700
C 	C 	0.88439 0.90080 0.03917 0.11600
C 	C 	0.87295 0.99680 0.08320 -0.14700
H 	H 	0.90190 0.03520 0.11420 0.08800
C 	C 	0.81929 0.03620 0.08164 0.09800
H 	H 	0.81200 0.09830 0.11320 0.01100
C 	C 	0.78814 0.89690 0.99531 0.09900
H 	H 	0.75840 0.86260 0.96400 0.00900
C 	C 	0.84001 0.84840 0.99513 -0.16100
H 	H 	0.84550 0.77980 0.96520 0.10100
Cu	Cu	0.70291 0.07882 0.02957 0.92000
N 	N 	0.62536 0.14810 0.01758 -0.22000
N 	N 	0.27737 0.49020 0.03749 -0.21700
C 	C 	0.61107 0.23520 0.05931 0.10700
H 	H 	0.63890 0.26920 0.09280 0.00800
C 	C 	0.55786 0.27880 0.05640 -0.17100
H 	H 	0.54980 0.34130 0.08730 0.09600
C 	C 	0.51631 0.23130 0.00833 0.13400
C 	C 	0.53118 0.14010 0.96510 -0.17300
H 	H 	0.50400 0.10360 0.93150 0.09900
C 	C 	0.58554 0.10210 0.97074 0.10300
H 	H 	0.59490 0.04080 0.94010 0.00200
C 	C 	0.45857 0.26960 0.00338 -0.10600
H 	H 	0.43180 0.22570 0.97150 0.08700
C 	C 	0.44160 0.36210 0.04090 -0.06500
H 	H 	0.46900 0.40730 0.07170 0.05500
C 	C 	0.38439 0.40080 0.03917 0.11500
C 	C 	0.37295 0.49680 0.08320 -0.15100
H 	H 	0.40190 0.53520 0.11420 0.09000
C 	C 	0.31929 0.53620 0.08164 0.10200
H 	H 	0.31200 0.59830 0.11320 0.00900
C 	C 	0.28814 0.39690 0.99531 0.10100
H 	H 	0.25840 0.36260 0.96400 0.00900
C 	C 	0.34001 0.34840 0.99513 -0.15900
H 	H 	0.34550 0.27980 0.96520 0.10100
Cu	Cu	0.20291 0.42118 0.52957 0.92100
N 	N 	0.12536 0.35190 0.51758 -0.22000
N 	N 	0.77737 0.00980 0.53749 -0.21600
C 	C 	0.11107 0.26480 0.55931 0.10700
H 	H 	0.13890 0.23080 0.59280 0.00800
C 	C 	0.05786 0.22120 0.55640 -0.17100
H 	H 	0.04980 0.15870 0.58730 0.09600
C 	C 	0.01631 0.26870 0.50833 0.13500
C 	C 	0.03118 0.35990 0.46510 -0.17300
H 	H 	0.00400 0.39640 0.43150 0.09900
C 	C 	0.08554 0.39790 0.47074 0.10200
H 	H 	0.09490 0.45920 0.44010 0.00200
C 	C 	0.95857 0.23040 0.50338 -0.10500
H 	H 	0.93180 0.27430 0.47150 0.08600
C 	C 	0.94160 0.13790 0.54090 -0.06600
H 	H 	0.96900 0.09270 0.57170 0.05600
C 	C 	0.88439 0.09920 0.53917 0.11500
C 	C 	0.87295 0.00320 0.58320 -0.15000
H 	H 	0.90190 0.96480 0.61420 0.08900
C 	C 	0.81929 0.96380 0.58164 0.10100
H 	H 	0.81200 0.90170 0.61320 0.01000
C 	C 	0.78814 0.10310 0.49531 0.10000
H 	H 	0.75840 0.13740 0.46400 0.00800
C 	C 	0.84001 0.15160 0.49513 -0.16000
H 	H 	0.84550 0.22020 0.46520 0.10100
Cu	Cu	0.70291 0.92118 0.52957 0.92100
N 	N 	0.62536 0.85190 0.51758 -0.22000
N 	N 	0.27737 0.50980 0.53749 -0.21700
C 	C 	0.61107 0.76480 0.55931 0.10700
H 	H 	0.63890 0.73080 0.59280 0.00800
C 	C 	0.55786 0.72120 0.55640 -0.17100
H 	H 	0.54980 0.65870 0.58730 0.09500
C 	C 	0.51631 0.76870 0.50833 0.13500
C 	C 	0.53118 0.85990 0.46510 -0.17300
H 	H 	0.50400 0.89640 0.43150 0.09900
C 	C 	0.58554 0.89790 0.47074 0.10200
H 	H 	0.59490 0.95920 0.44010 0.00200
C 	C 	0.45857 0.73040 0.50338 -0.10400
H 	H 	0.43180 0.77430 0.47150 0.08600
C 	C 	0.44160 0.63790 0.54090 -0.06600
H 	H 	0.46900 0.59270 0.57170 0.05600
C 	C 	0.38439 0.59920 0.53917 0.11600
C 	C 	0.37295 0.50320 0.58320 -0.15200
H 	H 	0.40190 0.46480 0.61420 0.09000
C 	C 	0.31929 0.46380 0.58164 0.10300
H 	H 	0.31200 0.40170 0.61320 0.00900
C 	C 	0.28814 0.60310 0.49531 0.10100
H 	H 	0.25840 0.63740 0.46400 0.00800
C 	C 	0.34001 0.65160 0.49513 -0.16000
H 	H 	0.34550 0.72020 0.46520 0.10100
O 	O 	0.76707 0.20200 0.93378 -0.35800
O 	O 	0.69217 0.07650 0.93804 -0.39300
O 	O 	0.70780 0.96330 0.61881 -0.37500
O 	O 	0.63498 0.10770 0.60501 -0.29500
O 	O 	0.82371 0.19480 0.72556 -0.11800
O 	O 	0.75585 0.25050 0.64980 -0.11900
N 	N 	0.77439 0.20080 0.70190 -0.01200
C 	C 	0.72596 0.13350 0.90922 0.33700
C 	C 	0.71304 0.11200 0.83880 -0.02600
C 	C 	0.66552 0.04310 0.80865 -0.04100
H 	H 	0.64110 0.00670 0.83280 0.06800
C 	C 	0.65322 0.02670 0.74334 0.02600
H 	H 	0.62000 0.98190 0.72340 0.03800
C 	C 	0.68900 0.07500 0.70747 -0.10100
C 	C 	0.73575 0.14540 0.73846 0.12600
C 	C 	0.74789 0.16610 0.80302 -0.08200
H 	H 	0.77980 0.21700 0.82250 0.09500
C 	C 	0.67533 0.04980 0.63674 0.35500
O 	O 	0.26707 0.70200 0.93378 -0.35800
O 	O 	0.19217 0.57650 0.93804 -0.39300
O 	O 	0.20780 0.46330 0.61881 -0.37500
O 	O 	0.13498 0.60770 0.60501 -0.29500
O 	O 	0.32371 0.69480 0.72556 -0.11900
O 	O 	0.25585 0.75050 0.64980 -0.11900
N 	N 	0.27439 0.70080 0.70190 -0.01200
C 	C 	0.22596 0.63350 0.90922 0.33700
C 	C 	0.21304 0.61200 0.83880 -0.02600
C 	C 	0.16552 0.54310 0.80865 -0.04000
H 	H 	0.14110 0.50670 0.83280 0.06700
C 	C 	0.15322 0.52670 0.74334 0.02400
H 	H 	0.12000 0.48190 0.72340 0.03900
C 	C 	0.18900 0.57500 0.70747 -0.10100
C 	C 	0.23575 0.64540 0.73846 0.12500
C 	C 	0.24789 0.66610 0.80302 -0.08200
H 	H 	0.27980 0.71700 0.82250 0.09500
C 	C 	0.17533 0.54980 0.63674 0.35500
