data_crystal

_cell_length_a 24.66480
_cell_length_b 10.04900
_cell_length_c 21.49140
_cell_angle_alpha 90.00000
_cell_angle_beta  104.42400
_cell_angle_gamma 90.00000

_symmetry_space_group_name_	'P 1'
_symmetry_space_group_name_H-M	'P 1'

loop_
_symmetry_equiv_pos_as_xyz
  x,y,z

loop_
_atom_site_label
_atom_site_type_symbol
_atom_site_fract_x
_atom_site_fract_y
_atom_site_fract_z
_atom_site_charge
Cu	Cu	0.70008 0.09372 0.52967 0.92400
O 	O 	0.73519 0.30050 0.56499 -0.35700
O 	O 	0.81296 0.41460 0.56345 -0.38300
O 	O 	0.79517 0.56120 0.87946 -0.37700
O 	O 	0.85040 0.38450 0.90620 -0.29700
N 	N 	0.62182 0.16200 0.51692 -0.21800
N 	N 	0.27462 0.50380 0.54030 -0.21400
C 	C 	0.77885 0.36320 0.59160 0.34200
C 	C 	0.78973 0.38700 0.66166 -0.05100
C 	C 	0.75642 0.31930 0.69865 0.02800
H 	H 	0.72740 0.25990 0.67850 0.01900
C 	C 	0.76807 0.34340 0.76486 0.01900
C 	C 	0.81064 0.43250 0.79615 -0.09000
C 	C 	0.84280 0.49710 0.75920 -0.03600
H 	H 	0.87180 0.55660 0.77950 -0.00900
C 	C 	0.83240 0.47410 0.69280 0.08200
H 	H 	0.85450 0.51810 0.66870 0.13300
C 	C 	0.82080 0.45650 0.86650 0.34100
C 	C 	0.57910 0.11350 0.47240 0.10000
H 	H 	0.58670 0.05200 0.44200 0.00900
C 	C 	0.52400 0.14810 0.46810 -0.17100
H 	H 	0.49470 0.10820 0.43640 0.09800
C 	C 	0.51170 0.24130 0.51020 0.13200
C 	C 	0.55650 0.29290 0.55560 -0.16800
H 	H 	0.55020 0.35590 0.58600 0.09400
C 	C 	0.61030 0.25360 0.55690 0.09900
H 	H 	0.64050 0.29310 0.58760 0.01000
C 	C 	0.45360 0.27870 0.50680 -0.10200
H 	H 	0.42480 0.23590 0.47570 0.08600
C 	C 	0.43900 0.36860 0.54450 -0.06300
H 	H 	0.46840 0.41020 0.57550 0.05700
C 	C 	0.38180 0.41010 0.54300 0.12200
C 	C 	0.37320 0.50870 0.58480 -0.14900
H 	H 	0.40430 0.54700 0.61470 0.09100
C 	C 	0.31950 0.55130 0.58310 0.10600
H 	H 	0.31430 0.61610 0.61320 0.00300
C 	C 	0.28250 0.40780 0.50040 0.10600
H 	H 	0.25060 0.37270 0.47050 0.01900
C 	C 	0.33420 0.35720 0.50040 -0.15200
H 	H 	0.33770 0.28740 0.47180 0.11000
Br	Br	0.70335 0.33680 0.80126 -0.03400
Br	Br	0.83481 0.65740 0.64576 -0.20000
C 	C 	0.74972 0.35760 0.69460 0.17600
H 	H 	0.71480 0.32160 0.67170 -0.01800
C 	C 	0.75910 0.37940 0.76120 -0.01800
C 	C 	0.85250 0.46270 0.76320 -0.31000
H 	H 	0.88760 0.49770 0.78610 0.15200
C 	C 	0.84180 0.44050 0.69640 0.12400
H 	H 	0.86960 0.46170 0.67440 -0.06800
C 	C 	0.77690 0.29110 0.70210 -0.27900
H 	H 	0.76110 0.20910 0.68430 0.13400
C 	C 	0.78660 0.31170 0.76890 0.06400
H 	H 	0.77690 0.24470 0.79540 0.08700
C 	C 	0.82390 0.53210 0.75540 0.34700
H 	H 	0.83930 0.61450 0.77310 -0.04100
C 	C 	0.81420 0.50920 0.68880 -0.18800
Br	Br	0.72469 0.25740 0.81221 -0.20800
Cu	Cu	0.20008 0.59372 0.52967 0.92300
O 	O 	0.23519 0.80050 0.56499 -0.35800
O 	O 	0.31296 0.91460 0.56345 -0.38400
O 	O 	0.29517 0.06120 0.87946 -0.37800
O 	O 	0.35040 0.88450 0.90620 -0.29800
N 	N 	0.12182 0.66200 0.51692 -0.21900
N 	N 	0.77462 0.00380 0.54030 -0.21500
C 	C 	0.27885 0.86320 0.59160 0.34100
C 	C 	0.28973 0.88700 0.66166 -0.05200
C 	C 	0.25642 0.81930 0.69865 0.02700
H 	H 	0.22740 0.75990 0.67850 0.01800
C 	C 	0.26807 0.84340 0.76486 0.01800
C 	C 	0.31064 0.93250 0.79615 -0.09100
C 	C 	0.34280 0.99710 0.75920 -0.03700
H 	H 	0.37180 0.05660 0.77950 -0.01100
C 	C 	0.33240 0.97410 0.69280 0.08100
H 	H 	0.35450 0.01810 0.66870 0.13300
C 	C 	0.32080 0.95650 0.86650 0.34100
C 	C 	0.07910 0.61350 0.47240 0.10100
H 	H 	0.08670 0.55200 0.44200 0.00900
C 	C 	0.02400 0.64810 0.46810 -0.17100
H 	H 	0.99470 0.60820 0.43640 0.09800
C 	C 	0.01170 0.74130 0.51020 0.13200
C 	C 	0.05650 0.79290 0.55560 -0.16800
H 	H 	0.05020 0.85590 0.58600 0.09400
C 	C 	0.11030 0.75360 0.55690 0.09900
H 	H 	0.14050 0.79310 0.58760 0.01000
C 	C 	0.95360 0.77870 0.50680 -0.10200
H 	H 	0.92480 0.73590 0.47570 0.08600
C 	C 	0.93900 0.86860 0.54450 -0.06300
H 	H 	0.96840 0.91020 0.57550 0.05600
C 	C 	0.88180 0.91010 0.54300 0.12200
C 	C 	0.87320 0.00870 0.58480 -0.14900
H 	H 	0.90430 0.04700 0.61470 0.09100
C 	C 	0.81950 0.05130 0.58310 0.10600
H 	H 	0.81430 0.11610 0.61320 0.00300
C 	C 	0.78250 0.90780 0.50040 0.10600
H 	H 	0.75060 0.87270 0.47050 0.01900
C 	C 	0.83420 0.85720 0.50040 -0.15200
H 	H 	0.83770 0.78740 0.47180 0.11000
Br	Br	0.20335 0.83680 0.80126 -0.03400
Br	Br	0.33481 0.15740 0.64576 -0.20000
C 	C 	0.24972 0.85760 0.69460 0.17500
H 	H 	0.21480 0.82160 0.67170 -0.01700
C 	C 	0.25910 0.87940 0.76120 -0.01700
C 	C 	0.35250 0.96270 0.76320 -0.31000
H 	H 	0.38760 0.99770 0.78610 0.15200
C 	C 	0.34180 0.94050 0.69640 0.12500
H 	H 	0.36960 0.96170 0.67440 -0.06900
C 	C 	0.27690 0.79110 0.70210 -0.27800
H 	H 	0.26110 0.70910 0.68430 0.13400
C 	C 	0.28660 0.81170 0.76890 0.06400
H 	H 	0.27690 0.74470 0.79540 0.08700
C 	C 	0.32390 0.03210 0.75540 0.34800
H 	H 	0.33930 0.11450 0.77310 -0.04100
C 	C 	0.31420 0.00920 0.68880 -0.18900
Br	Br	0.22469 0.75740 0.81221 -0.20900
Cu	Cu	0.29992 0.09372 0.97033 0.92300
O 	O 	0.26481 0.30050 0.93501 -0.35800
O 	O 	0.18704 0.41460 0.93655 -0.38400
O 	O 	0.20483 0.56120 0.62054 -0.37800
O 	O 	0.14960 0.38450 0.59380 -0.29800
N 	N 	0.37818 0.16200 0.98308 -0.21900
N 	N 	0.72538 0.50380 0.95970 -0.21500
C 	C 	0.22115 0.36320 0.90840 0.34100
C 	C 	0.21027 0.38700 0.83834 -0.05200
C 	C 	0.24358 0.31930 0.80135 0.02700
H 	H 	0.27260 0.25990 0.82150 0.01800
C 	C 	0.23193 0.34340 0.73514 0.01800
C 	C 	0.18936 0.43250 0.70385 -0.09100
C 	C 	0.15720 0.49710 0.74080 -0.03700
H 	H 	0.12820 0.55660 0.72050 -0.01000
C 	C 	0.16760 0.47410 0.80720 0.08100
H 	H 	0.14550 0.51810 0.83130 0.13300
C 	C 	0.17920 0.45650 0.63350 0.34100
C 	C 	0.42090 0.11350 0.02760 0.10100
H 	H 	0.41330 0.05200 0.05800 0.00900
C 	C 	0.47600 0.14810 0.03190 -0.17100
H 	H 	0.50530 0.10820 0.06360 0.09800
C 	C 	0.48830 0.24130 0.98980 0.13200
C 	C 	0.44350 0.29290 0.94440 -0.16800
H 	H 	0.44980 0.35590 0.91400 0.09400
C 	C 	0.38970 0.25360 0.94310 0.09900
H 	H 	0.35950 0.29310 0.91240 0.01000
C 	C 	0.54640 0.27870 0.99320 -0.10200
H 	H 	0.57520 0.23590 0.02430 0.08700
C 	C 	0.56100 0.36860 0.95550 -0.06200
H 	H 	0.53160 0.41020 0.92450 0.05600
C 	C 	0.61820 0.41010 0.95700 0.12200
C 	C 	0.62680 0.50870 0.91520 -0.14900
H 	H 	0.59570 0.54700 0.88530 0.09100
C 	C 	0.68050 0.55130 0.91690 0.10600
H 	H 	0.68570 0.61610 0.88680 0.00300
C 	C 	0.71750 0.40780 0.99960 0.10600
H 	H 	0.74940 0.37270 0.02950 0.02000
C 	C 	0.66580 0.35720 0.99960 -0.15300
H 	H 	0.66230 0.28740 0.02820 0.11000
Br	Br	0.29665 0.33680 0.69874 -0.03400
Br	Br	0.16519 0.65740 0.85424 -0.20000
C 	C 	0.25028 0.35760 0.80540 0.17600
H 	H 	0.28520 0.32160 0.82830 -0.01700
C 	C 	0.24090 0.37940 0.73880 -0.01800
C 	C 	0.14750 0.46270 0.73680 -0.31000
H 	H 	0.11240 0.49770 0.71390 0.15200
C 	C 	0.15820 0.44050 0.80360 0.12400
H 	H 	0.13040 0.46170 0.82560 -0.06800
C 	C 	0.22310 0.29110 0.79790 -0.27900
H 	H 	0.23890 0.20910 0.81570 0.13400
C 	C 	0.21340 0.31170 0.73110 0.06400
H 	H 	0.22310 0.24470 0.70460 0.08700
C 	C 	0.17610 0.53210 0.74460 0.34700
H 	H 	0.16070 0.61450 0.72690 -0.04100
C 	C 	0.18580 0.50920 0.81120 -0.18800
Br	Br	0.27531 0.25740 0.68779 -0.20800
Cu	Cu	0.79992 0.59372 0.97033 0.92300
O 	O 	0.76481 0.80050 0.93501 -0.35800
O 	O 	0.68704 0.91460 0.93655 -0.38400
O 	O 	0.70483 0.06120 0.62054 -0.37800
O 	O 	0.64960 0.88450 0.59380 -0.29800
N 	N 	0.87818 0.66200 0.98308 -0.21800
N 	N 	0.22538 0.00380 0.95970 -0.21600
C 	C 	0.72115 0.86320 0.90840 0.34100
C 	C 	0.71027 0.88700 0.83834 -0.05200
C 	C 	0.74358 0.81930 0.80135 0.02700
H 	H 	0.77260 0.75990 0.82150 0.01800
C 	C 	0.73193 0.84340 0.73514 0.01800
C 	C 	0.68936 0.93250 0.70385 -0.09100
C 	C 	0.65720 0.99710 0.74080 -0.03700
H 	H 	0.62820 0.05660 0.72050 -0.01100
C 	C 	0.66760 0.97410 0.80720 0.08000
H 	H 	0.64550 0.01810 0.83130 0.13300
C 	C 	0.67920 0.95650 0.63350 0.34100
C 	C 	0.92090 0.61350 0.02760 0.09800
H 	H 	0.91330 0.55200 0.05800 0.01000
C 	C 	0.97600 0.64810 0.03190 -0.16500
H 	H 	0.00530 0.60820 0.06360 0.09500
C 	C 	0.98830 0.74130 0.98980 0.12500
C 	C 	0.94350 0.79290 0.94440 -0.16400
H 	H 	0.94980 0.85590 0.91400 0.09200
C 	C 	0.88970 0.75360 0.94310 0.09700
H 	H 	0.85950 0.79310 0.91240 0.01100
C 	C 	0.04640 0.77870 0.99320 -0.09400
H 	H 	0.07520 0.73590 0.02430 0.08300
C 	C 	0.06100 0.86860 0.95550 -0.06700
H 	H 	0.03160 0.91020 0.92450 0.05800
C 	C 	0.11820 0.91010 0.95700 0.12500
C 	C 	0.12680 0.00870 0.91520 -0.15100
H 	H 	0.09570 0.04700 0.88530 0.09200
C 	C 	0.18050 0.05130 0.91690 0.10700
H 	H 	0.18570 0.11610 0.88680 0.00300
C 	C 	0.21750 0.90780 0.99960 0.10900
H 	H 	0.24940 0.87270 0.02950 0.01800
C 	C 	0.16580 0.85720 0.99960 -0.15300
H 	H 	0.16230 0.78740 0.02820 0.10900
Br	Br	0.79665 0.83680 0.69874 -0.03400
Br	Br	0.66519 0.15740 0.85424 -0.20000
C 	C 	0.75028 0.85760 0.80540 0.17600
H 	H 	0.78520 0.82160 0.82830 -0.01800
C 	C 	0.74090 0.87940 0.73880 -0.01700
C 	C 	0.64750 0.96270 0.73680 -0.30900
H 	H 	0.61240 0.99770 0.71390 0.15200
C 	C 	0.65820 0.94050 0.80360 0.12500
H 	H 	0.63040 0.96170 0.82560 -0.06800
C 	C 	0.72310 0.79110 0.79790 -0.27900
H 	H 	0.73890 0.70910 0.81570 0.13400
C 	C 	0.71340 0.81170 0.73110 0.06400
H 	H 	0.72310 0.74470 0.70460 0.08700
C 	C 	0.67610 0.03210 0.74460 0.34700
H 	H 	0.66070 0.11450 0.72690 -0.04100
C 	C 	0.68580 0.00920 0.81120 -0.18900
Br	Br	0.77531 0.75740 0.68779 -0.20800
Cu	Cu	0.29992 0.90628 0.47033 0.92300
O 	O 	0.26481 0.69950 0.43501 -0.35800
O 	O 	0.18704 0.58540 0.43655 -0.38400
O 	O 	0.20483 0.43880 0.12054 -0.37800
O 	O 	0.14960 0.61550 0.09380 -0.29800
N 	N 	0.37818 0.83800 0.48308 -0.21900
N 	N 	0.72538 0.49620 0.45970 -0.21500
C 	C 	0.22115 0.63680 0.40840 0.34100
C 	C 	0.21027 0.61300 0.33834 -0.05200
C 	C 	0.24358 0.68070 0.30135 0.02700
H 	H 	0.27260 0.74010 0.32150 0.01800
C 	C 	0.23193 0.65660 0.23514 0.01800
C 	C 	0.18936 0.56750 0.20385 -0.09100
C 	C 	0.15720 0.50290 0.24080 -0.03700
H 	H 	0.12820 0.44340 0.22050 -0.01000
C 	C 	0.16760 0.52590 0.30720 0.08100
H 	H 	0.14550 0.48190 0.33130 0.13300
C 	C 	0.17920 0.54350 0.13350 0.34100
C 	C 	0.42090 0.88650 0.52760 0.10000
H 	H 	0.41330 0.94800 0.55800 0.00900
C 	C 	0.47600 0.85190 0.53190 -0.17100
H 	H 	0.50530 0.89180 0.56360 0.09800
C 	C 	0.48830 0.75870 0.48980 0.13200
C 	C 	0.44350 0.70710 0.44440 -0.16800
H 	H 	0.44980 0.64410 0.41400 0.09400
C 	C 	0.38970 0.74640 0.44310 0.09900
H 	H 	0.35950 0.70690 0.41240 0.01000
C 	C 	0.54640 0.72130 0.49320 -0.10200
H 	H 	0.57520 0.76410 0.52430 0.08600
C 	C 	0.56100 0.63140 0.45550 -0.06300
H 	H 	0.53160 0.58980 0.42450 0.05700
C 	C 	0.61820 0.58990 0.45700 0.12200
C 	C 	0.62680 0.49130 0.41520 -0.14900
H 	H 	0.59570 0.45300 0.38530 0.09100
C 	C 	0.68050 0.44870 0.41690 0.10600
H 	H 	0.68570 0.38390 0.38680 0.00300
C 	C 	0.71750 0.59220 0.49960 0.10600
H 	H 	0.74940 0.62730 0.52950 0.01900
C 	C 	0.66580 0.64280 0.49960 -0.15200
H 	H 	0.66230 0.71260 0.52820 0.11000
Br	Br	0.29665 0.66320 0.19874 -0.03400
Br	Br	0.16519 0.34260 0.35424 -0.20000
C 	C 	0.25028 0.64240 0.30540 0.17600
H 	H 	0.28520 0.67840 0.32830 -0.01800
C 	C 	0.24090 0.62060 0.23880 -0.01800
C 	C 	0.14750 0.53730 0.23680 -0.31000
H 	H 	0.11240 0.50230 0.21390 0.15200
C 	C 	0.15820 0.55950 0.30360 0.12400
H 	H 	0.13040 0.53830 0.32560 -0.06800
C 	C 	0.22310 0.70890 0.29790 -0.27900
H 	H 	0.23890 0.79090 0.31570 0.13400
C 	C 	0.21340 0.68830 0.23110 0.06400
H 	H 	0.22310 0.75530 0.20460 0.08700
C 	C 	0.17610 0.46790 0.24460 0.34700
H 	H 	0.16070 0.38550 0.22690 -0.04100
C 	C 	0.18580 0.49080 0.31120 -0.18800
Br	Br	0.27531 0.74260 0.18779 -0.20800
Cu	Cu	0.79992 0.40628 0.47033 0.92300
O 	O 	0.76481 0.19950 0.43501 -0.35800
O 	O 	0.68704 0.08540 0.43655 -0.38400
O 	O 	0.70483 0.93880 0.12054 -0.37800
O 	O 	0.64960 0.11550 0.09380 -0.29800
N 	N 	0.87818 0.33800 0.48308 -0.21900
N 	N 	0.22538 0.99620 0.45970 -0.21500
C 	C 	0.72115 0.13680 0.40840 0.34100
C 	C 	0.71027 0.11300 0.33834 -0.05200
C 	C 	0.74358 0.18070 0.30135 0.02700
H 	H 	0.77260 0.24010 0.32150 0.01800
C 	C 	0.73193 0.15660 0.23514 0.01800
C 	C 	0.68936 0.06750 0.20385 -0.09100
C 	C 	0.65720 0.00290 0.24080 -0.03700
H 	H 	0.62820 0.94340 0.22050 -0.01100
C 	C 	0.66760 0.02590 0.30720 0.08100
H 	H 	0.64550 0.98190 0.33130 0.13300
C 	C 	0.67920 0.04350 0.13350 0.34100
C 	C 	0.92090 0.38650 0.52760 0.10100
H 	H 	0.91330 0.44800 0.55800 0.00900
C 	C 	0.97600 0.35190 0.53190 -0.17100
H 	H 	0.00530 0.39180 0.56360 0.09800
C 	C 	0.98830 0.25870 0.48980 0.13200
C 	C 	0.94350 0.20710 0.44440 -0.16800
H 	H 	0.94980 0.14410 0.41400 0.09400
C 	C 	0.88970 0.24640 0.44310 0.09900
H 	H 	0.85950 0.20690 0.41240 0.01000
C 	C 	0.04640 0.22130 0.49320 -0.10200
H 	H 	0.07520 0.26410 0.52430 0.08600
C 	C 	0.06100 0.13140 0.45550 -0.06300
H 	H 	0.03160 0.08980 0.42450 0.05600
C 	C 	0.11820 0.08990 0.45700 0.12200
C 	C 	0.12680 0.99130 0.41520 -0.14900
H 	H 	0.09570 0.95300 0.38530 0.09100
C 	C 	0.18050 0.94870 0.41690 0.10600
H 	H 	0.18570 0.88390 0.38680 0.00300
C 	C 	0.21750 0.09220 0.49960 0.10600
H 	H 	0.24940 0.12730 0.52950 0.01900
C 	C 	0.16580 0.14280 0.49960 -0.15200
H 	H 	0.16230 0.21260 0.52820 0.11000
Br	Br	0.79665 0.16320 0.19874 -0.03400
Br	Br	0.66519 0.84260 0.35424 -0.20000
C 	C 	0.75028 0.14240 0.30540 0.17500
H 	H 	0.78520 0.17840 0.32830 -0.01700
C 	C 	0.74090 0.12060 0.23880 -0.01700
C 	C 	0.64750 0.03730 0.23680 -0.31000
H 	H 	0.61240 0.00230 0.21390 0.15200
C 	C 	0.65820 0.05950 0.30360 0.12500
H 	H 	0.63040 0.03830 0.32560 -0.06900
C 	C 	0.72310 0.20890 0.29790 -0.27800
H 	H 	0.73890 0.29090 0.31570 0.13400
C 	C 	0.71340 0.18830 0.23110 0.06400
H 	H 	0.72310 0.25530 0.20460 0.08700
C 	C 	0.67610 0.96790 0.24460 0.34800
H 	H 	0.66070 0.88550 0.22690 -0.04100
C 	C 	0.68580 0.99080 0.31120 -0.18900
Br	Br	0.77531 0.24260 0.18779 -0.20900
Cu	Cu	0.70008 0.90628 0.02967 0.92300
O 	O 	0.73519 0.69950 0.06499 -0.35800
O 	O 	0.81296 0.58540 0.06345 -0.38400
O 	O 	0.79517 0.43880 0.37946 -0.37800
O 	O 	0.85040 0.61550 0.40620 -0.29800
N 	N 	0.62182 0.83800 0.01692 -0.21900
N 	N 	0.27462 0.49620 0.04030 -0.21500
C 	C 	0.77885 0.63680 0.09160 0.34100
C 	C 	0.78973 0.61300 0.16166 -0.05200
C 	C 	0.75642 0.68070 0.19865 0.02700
H 	H 	0.72740 0.74010 0.17850 0.01800
C 	C 	0.76807 0.65660 0.26486 0.01800
C 	C 	0.81064 0.56750 0.29615 -0.09100
C 	C 	0.84280 0.50290 0.25920 -0.03700
H 	H 	0.87180 0.44340 0.27950 -0.01000
C 	C 	0.83240 0.52590 0.19280 0.08100
H 	H 	0.85450 0.48190 0.16870 0.13300
C 	C 	0.82080 0.54350 0.36650 0.34100
C 	C 	0.57910 0.88650 0.97240 0.10100
H 	H 	0.58670 0.94800 0.94200 0.00900
C 	C 	0.52400 0.85190 0.96810 -0.17100
H 	H 	0.49470 0.89180 0.93640 0.09800
C 	C 	0.51170 0.75870 0.01020 0.13200
C 	C 	0.55650 0.70710 0.05560 -0.16800
H 	H 	0.55020 0.64410 0.08600 0.09400
C 	C 	0.61030 0.74640 0.05690 0.09900
H 	H 	0.64050 0.70690 0.08760 0.01000
C 	C 	0.45360 0.72130 0.00680 -0.10200
H 	H 	0.42480 0.76410 0.97570 0.08700
C 	C 	0.43900 0.63140 0.04450 -0.06200
H 	H 	0.46840 0.58980 0.07550 0.05600
C 	C 	0.38180 0.58990 0.04300 0.12200
C 	C 	0.37320 0.49130 0.08480 -0.14900
H 	H 	0.40430 0.45300 0.11470 0.09100
C 	C 	0.31950 0.44870 0.08310 0.10600
H 	H 	0.31430 0.38390 0.11320 0.00300
C 	C 	0.28250 0.59220 0.00040 0.10600
H 	H 	0.25060 0.62730 0.97050 0.02000
C 	C 	0.33420 0.64280 0.00040 -0.15300
H 	H 	0.33770 0.71260 0.97180 0.11000
Br	Br	0.70335 0.66320 0.30126 -0.03400
Br	Br	0.83481 0.34260 0.14576 -0.20000
C 	C 	0.74972 0.64240 0.19460 0.17600
H 	H 	0.71480 0.67840 0.17170 -0.01700
C 	C 	0.75910 0.62060 0.26120 -0.01800
C 	C 	0.85250 0.53730 0.26320 -0.31000
H 	H 	0.88760 0.50230 0.28610 0.15200
C 	C 	0.84180 0.55950 0.19640 0.12400
H 	H 	0.86960 0.53830 0.17440 -0.06800
C 	C 	0.77690 0.70890 0.20210 -0.27900
H 	H 	0.76110 0.79090 0.18430 0.13400
C 	C 	0.78660 0.68830 0.26890 0.06400
H 	H 	0.77690 0.75530 0.29540 0.08700
C 	C 	0.82390 0.46790 0.25540 0.34700
H 	H 	0.83930 0.38550 0.27310 -0.04100
C 	C 	0.81420 0.49080 0.18880 -0.18800
Br	Br	0.72469 0.74260 0.31221 -0.20800
Cu	Cu	0.20008 0.40628 0.02967 0.92300
O 	O 	0.23519 0.19950 0.06499 -0.35800
O 	O 	0.31296 0.08540 0.06345 -0.38400
O 	O 	0.29517 0.93880 0.37946 -0.37800
O 	O 	0.35040 0.11550 0.40620 -0.29800
N 	N 	0.12182 0.33800 0.01692 -0.21800
N 	N 	0.77462 0.99620 0.04030 -0.21600
C 	C 	0.27885 0.13680 0.09160 0.34100
C 	C 	0.28973 0.11300 0.16166 -0.05200
C 	C 	0.25642 0.18070 0.19865 0.02700
H 	H 	0.22740 0.24010 0.17850 0.01800
C 	C 	0.26807 0.15660 0.26486 0.01800
C 	C 	0.31064 0.06750 0.29615 -0.09100
C 	C 	0.34280 0.00290 0.25920 -0.03700
H 	H 	0.37180 0.94340 0.27950 -0.01100
C 	C 	0.33240 0.02590 0.19280 0.08000
H 	H 	0.35450 0.98190 0.16870 0.13300
C 	C 	0.32080 0.04350 0.36650 0.34100
C 	C 	0.07910 0.38650 0.97240 0.09800
H 	H 	0.08670 0.44800 0.94200 0.01000
C 	C 	0.02400 0.35190 0.96810 -0.16500
H 	H 	0.99470 0.39180 0.93640 0.09500
C 	C 	0.01170 0.25870 0.01020 0.12500
C 	C 	0.05650 0.20710 0.05560 -0.16400
H 	H 	0.05020 0.14410 0.08600 0.09200
C 	C 	0.11030 0.24640 0.05690 0.09700
H 	H 	0.14050 0.20690 0.08760 0.01100
C 	C 	0.95360 0.22130 0.00680 -0.09400
H 	H 	0.92480 0.26410 0.97570 0.08300
C 	C 	0.93900 0.13140 0.04450 -0.06700
H 	H 	0.96840 0.08980 0.07550 0.05800
C 	C 	0.88180 0.08990 0.04300 0.12500
C 	C 	0.87320 0.99130 0.08480 -0.15100
H 	H 	0.90430 0.95300 0.11470 0.09200
C 	C 	0.81950 0.94870 0.08310 0.10700
H 	H 	0.81430 0.88390 0.11320 0.00300
C 	C 	0.78250 0.09220 0.00040 0.10900
H 	H 	0.75060 0.12730 0.97050 0.01800
C 	C 	0.83420 0.14280 0.00040 -0.15300
H 	H 	0.83770 0.21260 0.97180 0.10900
Br	Br	0.20335 0.16320 0.30126 -0.03400
Br	Br	0.33481 0.84260 0.14576 -0.20000
C 	C 	0.24972 0.14240 0.19460 0.17600
H 	H 	0.21480 0.17840 0.17170 -0.01800
C 	C 	0.25910 0.12060 0.26120 -0.01700
C 	C 	0.35250 0.03730 0.26320 -0.30900
H 	H 	0.38760 0.00230 0.28610 0.15200
C 	C 	0.34180 0.05950 0.19640 0.12500
H 	H 	0.36960 0.03830 0.17440 -0.06800
C 	C 	0.27690 0.20890 0.20210 -0.27900
H 	H 	0.26110 0.29090 0.18430 0.13400
C 	C 	0.28660 0.18830 0.26890 0.06400
H 	H 	0.27690 0.25530 0.29540 0.08700
C 	C 	0.32390 0.96790 0.25540 0.34700
H 	H 	0.33930 0.88550 0.27310 -0.04100
C 	C 	0.31420 0.99080 0.18880 -0.18900
Br	Br	0.22469 0.24260 0.31221 -0.20800
