data_crystal

_cell_length_a 9.81200
_cell_length_b 14.28300
_cell_length_c 19.57200
_cell_angle_alpha 90.00000
_cell_angle_beta  96.94100
_cell_angle_gamma 90.00000

_symmetry_space_group_name_	'P 1'
_symmetry_space_group_name_H-M	'P 1'

loop_
_symmetry_equiv_pos_as_xyz
  x,y,z

loop_
_atom_site_label
_atom_site_type_symbol
_atom_site_fract_x
_atom_site_fract_y
_atom_site_fract_z
_atom_site_charge
Cd	Cd	0.73402 0.24952 0.34863 1.21500
C 	C 	0.26060 0.98670 0.27660 -0.29300
H 	H 	0.22850 0.00310 0.23160 0.14800
C 	C 	0.18030 0.99890 0.32920 0.23600
C 	C 	0.22420 0.97420 0.39640 -0.28800
H 	H 	0.16780 0.98280 0.43080 0.13700
C 	C 	0.35420 0.93630 0.41130 0.23200
C 	C 	0.43880 0.92440 0.36000 -0.28100
H 	H 	0.52680 0.90010 0.37020 0.13800
C 	C 	0.38940 0.94950 0.29310 0.23600
C 	C 	0.99440 0.11180 0.34550 0.10600
H 	H 	0.04400 0.14630 0.38040 -0.00400
C 	C 	0.83330 0.06320 0.27100 0.00500
H 	H 	0.74800 0.05760 0.24490 0.02600
C 	C 	0.94260 0.00710 0.26580 0.01200
H 	H 	0.94740 0.95770 0.23520 0.03200
C 	C 	0.32320 0.90170 0.53240 0.09600
H 	H 	0.23400 0.92450 0.53020 -0.01100
C 	C 	0.51620 0.83910 0.56890 -0.00400
H 	H 	0.58630 0.81010 0.59750 0.03800
C 	C 	0.52520 0.86560 0.50330 0.01800
H 	H 	0.60000 0.85790 0.47880 0.02600
C 	C 	0.56660 0.86410 0.23800 0.09900
H 	H 	0.58390 0.81840 0.27180 0.00400
C 	C 	0.57240 0.94350 0.14590 0.01100
H 	H 	0.59630 0.96340 0.10370 0.03100
C 	C 	0.47730 0.98450 0.18020 0.00300
H 	H 	0.42400 0.03650 0.16630 0.03700
C 	C 	0.53390 0.25160 0.23330 0.26700
C 	C 	0.31620 0.20690 0.98950 0.25600
C 	C 	0.30720 0.20570 0.06560 0.04700
C 	C 	0.42130 0.22790 0.11210 -0.10400
H 	H 	0.50570 0.23890 0.09650 0.08900
C 	C 	0.40860 0.23370 0.18200 0.04200
C 	C 	0.28360 0.21890 0.20470 -0.21500
H 	H 	0.27540 0.22380 0.25140 0.13500
C 	C 	0.16880 0.19660 0.15850 0.29700
C 	C 	0.18140 0.18810 0.08910 -0.23200
H 	H 	0.10610 0.17080 0.05830 0.12300
N 	N 	0.86740 0.12930 0.32050 -0.23200
N 	N 	0.04430 0.03740 0.31424 -0.15300
N 	N 	0.38990 0.86100 0.58730 -0.20200
N 	N 	0.40110 0.90620 0.47990 -0.15800
N 	N 	0.62840 0.86870 0.18230 -0.22600
N 	N 	0.47510 0.93360 0.23996 -0.15800
O 	O 	0.65070 0.24120 0.21520 -0.33000
O 	O 	0.51720 0.27470 0.29322 -0.38200
O 	O 	0.41360 0.24900 0.96690 -0.31500
O 	O 	0.21960 0.16990 0.95025 -0.37000
O 	O 	0.04830 0.18340 0.18494 -0.44000
H 	H 	0.98980 0.16490 0.15450 0.24800
Cd	Cd	0.76598 0.74952 0.15137 1.21600
C 	C 	0.23940 0.48670 0.22340 -0.29000
H 	H 	0.27150 0.50310 0.26840 0.14800
C 	C 	0.31970 0.49890 0.17080 0.23800
C 	C 	0.27580 0.47420 0.10360 -0.28700
H 	H 	0.33220 0.48280 0.06920 0.13900
C 	C 	0.14580 0.43630 0.08870 0.23200
C 	C 	0.06120 0.42440 0.14000 -0.27500
H 	H 	0.97320 0.40010 0.12980 0.13500
C 	C 	0.11060 0.44950 0.20690 0.23400
C 	C 	0.50560 0.61180 0.15450 0.11300
H 	H 	0.45600 0.64630 0.11960 -0.00800
C 	C 	0.66670 0.56320 0.22900 0.00100
H 	H 	0.75200 0.55760 0.25510 0.02800
C 	C 	0.55740 0.50710 0.23420 0.02200
H 	H 	0.55260 0.45770 0.26480 0.02800
C 	C 	0.17680 0.40170 0.96760 0.09400
H 	H 	0.26600 0.42450 0.96980 -0.01000
C 	C 	0.98380 0.33910 0.93110 -0.00500
H 	H 	0.91370 0.31010 0.90250 0.03900
C 	C 	0.97480 0.36560 0.99670 0.02200
H 	H 	0.90000 0.35790 0.02120 0.02300
C 	C 	0.93340 0.36410 0.26200 0.09700
H 	H 	0.91610 0.31840 0.22820 0.00400
C 	C 	0.92760 0.44350 0.35410 0.00900
H 	H 	0.90370 0.46340 0.39630 0.03100
C 	C 	0.02270 0.48450 0.31980 0.00400
H 	H 	0.07600 0.53650 0.33370 0.03700
C 	C 	0.96610 0.75160 0.26670 0.26600
C 	C 	0.18380 0.70690 0.51050 0.25600
C 	C 	0.19280 0.70570 0.43440 0.04800
C 	C 	0.07870 0.72790 0.38790 -0.10500
H 	H 	0.99430 0.73890 0.40350 0.09000
C 	C 	0.09140 0.73370 0.31800 0.04300
C 	C 	0.21640 0.71890 0.29530 -0.21700
H 	H 	0.22460 0.72380 0.24860 0.13600
C 	C 	0.33120 0.69660 0.34150 0.29900
C 	C 	0.31860 0.68810 0.41090 -0.23400
H 	H 	0.39390 0.67080 0.44170 0.12300
N 	N 	0.63260 0.62930 0.17950 -0.23200
N 	N 	0.45570 0.53740 0.18576 -0.15800
N 	N 	0.11010 0.36100 0.91270 -0.20200
N 	N 	0.09890 0.40620 0.02010 -0.15700
N 	N 	0.87160 0.36870 0.31770 -0.22500
N 	N 	0.02490 0.43360 0.26004 -0.15700
O 	O 	0.84930 0.74120 0.28480 -0.33000
O 	O 	0.98280 0.77470 0.20678 -0.38200
O 	O 	0.08640 0.74900 0.53310 -0.31500
O 	O 	0.28040 0.66990 0.54975 -0.37000
O 	O 	0.45170 0.68340 0.31506 -0.44500
H 	H 	0.51020 0.66490 0.34550 0.25300
Cd	Cd	0.26598 0.75048 0.65137 1.21600
C 	C 	0.73940 0.01330 0.72340 -0.29200
H 	H 	0.77150 0.99690 0.76840 0.14900
C 	C 	0.81970 0.00110 0.67080 0.23700
C 	C 	0.77580 0.02580 0.60360 -0.28700
H 	H 	0.83220 0.01720 0.56920 0.13800
C 	C 	0.64580 0.06370 0.58870 0.23300
C 	C 	0.56120 0.07560 0.64000 -0.28000
H 	H 	0.47320 0.09990 0.62980 0.13800
C 	C 	0.61060 0.05050 0.70690 0.23600
C 	C 	0.00560 0.88820 0.65450 0.10600
H 	H 	0.95600 0.85370 0.61960 -0.00400
C 	C 	0.16670 0.93680 0.72900 0.00500
H 	H 	0.25200 0.94240 0.75510 0.02600
C 	C 	0.05740 0.99290 0.73420 0.01200
H 	H 	0.05260 0.04230 0.76480 0.03200
C 	C 	0.67680 0.09830 0.46760 0.09600
H 	H 	0.76600 0.07550 0.46980 -0.01100
C 	C 	0.48380 0.16090 0.43110 -0.00400
H 	H 	0.41370 0.18990 0.40250 0.03800
C 	C 	0.47480 0.13440 0.49670 0.01800
H 	H 	0.40000 0.14210 0.52120 0.02600
C 	C 	0.43340 0.13590 0.76200 0.09900
H 	H 	0.41610 0.18160 0.72820 0.00400
C 	C 	0.42760 0.05650 0.85410 0.01100
H 	H 	0.40370 0.03660 0.89630 0.03100
C 	C 	0.52270 0.01550 0.81980 0.00300
H 	H 	0.57600 0.96350 0.83370 0.03700
C 	C 	0.46610 0.74840 0.76670 0.26700
C 	C 	0.68380 0.79310 0.01050 0.25600
C 	C 	0.69280 0.79430 0.93440 0.04700
C 	C 	0.57870 0.77210 0.88790 -0.10400
H 	H 	0.49430 0.76110 0.90350 0.08900
C 	C 	0.59140 0.76630 0.81800 0.04200
C 	C 	0.71640 0.78110 0.79530 -0.21500
H 	H 	0.72460 0.77620 0.74860 0.13500
C 	C 	0.83120 0.80340 0.84150 0.29700
C 	C 	0.81860 0.81190 0.91090 -0.23200
H 	H 	0.89390 0.82920 0.94170 0.12300
N 	N 	0.13260 0.87070 0.67950 -0.23200
N 	N 	0.95570 0.96260 0.68576 -0.15300
N 	N 	0.61010 0.13900 0.41270 -0.20200
N 	N 	0.59890 0.09380 0.52010 -0.15800
N 	N 	0.37160 0.13130 0.81770 -0.22600
N 	N 	0.52490 0.06640 0.76004 -0.15800
O 	O 	0.34930 0.75880 0.78480 -0.33000
O 	O 	0.48280 0.72530 0.70678 -0.38200
O 	O 	0.58640 0.75100 0.03310 -0.31500
O 	O 	0.78040 0.83010 0.04975 -0.37000
O 	O 	0.95170 0.81660 0.81506 -0.44000
H 	H 	0.01020 0.83510 0.84550 0.24800
Cd	Cd	0.23402 0.25048 0.84863 1.21600
C 	C 	0.76060 0.51330 0.77660 -0.29000
H 	H 	0.72850 0.49690 0.73160 0.14800
C 	C 	0.68030 0.50110 0.82920 0.23800
C 	C 	0.72420 0.52580 0.89640 -0.28700
H 	H 	0.66780 0.51720 0.93080 0.13900
C 	C 	0.85420 0.56370 0.91130 0.23200
C 	C 	0.93880 0.57560 0.86000 -0.27500
H 	H 	0.02680 0.59990 0.87020 0.13500
C 	C 	0.88940 0.55050 0.79310 0.23400
C 	C 	0.49440 0.38820 0.84550 0.11300
H 	H 	0.54400 0.35370 0.88040 -0.00800
C 	C 	0.33330 0.43680 0.77100 0.00100
H 	H 	0.24800 0.44240 0.74490 0.02800
C 	C 	0.44260 0.49290 0.76580 0.02200
H 	H 	0.44740 0.54230 0.73520 0.02800
C 	C 	0.82320 0.59830 0.03240 0.09400
H 	H 	0.73400 0.57550 0.03020 -0.01000
C 	C 	0.01620 0.66090 0.06890 -0.00500
H 	H 	0.08630 0.68990 0.09750 0.03900
C 	C 	0.02520 0.63440 0.00330 0.02200
H 	H 	0.10000 0.64210 0.97880 0.02300
C 	C 	0.06660 0.63590 0.73800 0.09700
H 	H 	0.08390 0.68160 0.77180 0.00400
C 	C 	0.07240 0.55650 0.64590 0.00900
H 	H 	0.09630 0.53660 0.60370 0.03100
C 	C 	0.97730 0.51550 0.68020 0.00400
H 	H 	0.92400 0.46350 0.66630 0.03700
C 	C 	0.03390 0.24840 0.73330 0.26600
C 	C 	0.81620 0.29310 0.48950 0.25600
C 	C 	0.80720 0.29430 0.56560 0.04800
C 	C 	0.92130 0.27210 0.61210 -0.10500
H 	H 	0.00570 0.26110 0.59650 0.09000
C 	C 	0.90860 0.26630 0.68200 0.04300
C 	C 	0.78360 0.28110 0.70470 -0.21700
H 	H 	0.77540 0.27620 0.75140 0.13600
C 	C 	0.66880 0.30340 0.65850 0.29900
C 	C 	0.68140 0.31190 0.58910 -0.23400
H 	H 	0.60610 0.32920 0.55830 0.12300
N 	N 	0.36740 0.37070 0.82050 -0.23200
N 	N 	0.54430 0.46260 0.81424 -0.15800
N 	N 	0.88990 0.63900 0.08730 -0.20200
N 	N 	0.90110 0.59380 0.97990 -0.15700
N 	N 	0.12840 0.63130 0.68230 -0.22500
N 	N 	0.97510 0.56640 0.73996 -0.15700
O 	O 	0.15070 0.25880 0.71520 -0.33000
O 	O 	0.01720 0.22530 0.79322 -0.38200
O 	O 	0.91360 0.25100 0.46690 -0.31500
O 	O 	0.71960 0.33010 0.45025 -0.37000
O 	O 	0.54830 0.31660 0.68494 -0.44500
H 	H 	0.48980 0.33510 0.65450 0.25300
