data_crystal

_cell_length_a 10.31230
_cell_length_b 10.31230
_cell_length_c 15.06200
_cell_angle_alpha 70.32790
_cell_angle_beta  70.32790
_cell_angle_gamma 77.86110

_symmetry_space_group_name_	'P 1'
_symmetry_space_group_name_H-M	'P 1'

loop_
_symmetry_equiv_pos_as_xyz
  x,y,z

loop_
_atom_site_label
_atom_site_type_symbol
_atom_site_fract_x
_atom_site_fract_y
_atom_site_fract_z
_atom_site_charge
Cd	Cd	0.32715 0.85749 0.48432 1.21500
Cd	Cd	0.17009 0.78933 0.15322 1.22800
Cd	Cd	0.91162 0.28028 0.22959 1.21700
Cd	Cd	0.84195 0.54019 0.61716 1.21300
Cd	Cd	0.85749 0.32715 0.98432 1.19900
Cd	Cd	0.78933 0.17009 0.65322 1.22600
Cd	Cd	0.28028 0.91162 0.72959 1.21500
Cd	Cd	0.54019 0.84195 0.11716 1.22000
H 	H 	0.63280 0.90360 0.31620 0.07200
H 	H 	0.66620 0.82760 0.41660 0.06900
H 	H 	0.77800 0.00660 0.40190 -0.03300
H 	H 	0.84050 0.96590 0.30340 -0.11100
H 	H 	0.60610 0.21330 0.40710 0.06100
H 	H 	0.57040 0.30360 0.30950 0.05600
H 	H 	0.39510 0.16570 0.41090 0.03500
H 	H 	0.46250 0.12770 0.31140 0.05200
H 	H 	0.91470 0.63550 0.36390 -0.01000
H 	H 	0.17140 0.01220 0.28840 -0.00400
H 	H 	0.93800 0.82600 0.64380 -0.06500
H 	H 	0.70980 0.14560 0.23380 0.12400
H 	H 	0.52430 0.98590 0.48140 0.08300
H 	H 	0.90360 0.63280 0.81620 0.07100
H 	H 	0.82760 0.66620 0.91660 0.05700
H 	H 	0.00660 0.77800 0.90190 -0.04200
H 	H 	0.96590 0.84050 0.80340 -0.11300
H 	H 	0.21330 0.60610 0.90710 0.04900
H 	H 	0.30360 0.57040 0.80950 0.05100
H 	H 	0.16570 0.39510 0.91090 0.02500
H 	H 	0.12770 0.46250 0.81140 0.05000
H 	H 	0.63550 0.91470 0.86390 -0.01600
H 	H 	0.01220 0.17140 0.78840 -0.00600
H 	H 	0.82600 0.93800 0.14380 -0.06200
H 	H 	0.14560 0.70980 0.73380 0.12300
H 	H 	0.98590 0.52430 0.98140 0.06300
C 	C 	0.64240 0.91760 0.37410 -0.21900
C 	C 	0.75790 0.00690 0.34330 0.19500
C 	C 	0.59420 0.20960 0.34690 -0.07300
C 	C 	0.47900 0.12520 0.37170 -0.01000
C 	C 	0.14217 0.61457 0.56550 0.30600
C 	C 	0.11466 0.64326 0.46990 -0.01400
C 	C 	0.18173 0.69953 0.37100 -0.07700
C 	C 	0.32110 0.74650 0.31570 0.35900
C 	C 	0.98909 0.64569 0.38170 0.04900
C 	C 	0.09575 0.07095 0.57710 0.45500
C 	C 	0.08210 0.09730 0.47600 -0.09400
C 	C 	0.00136 0.19376 0.41964 0.02300
C 	C 	0.89236 0.31236 0.43320 0.23400
C 	C 	0.13250 0.05490 0.33830 0.12900
C 	C 	0.54681 0.07721 0.62475 0.37500
C 	C 	0.64756 0.95096 0.63270 -0.12900
C 	C 	0.65328 0.81188 0.63777 -0.03300
C 	C 	0.55482 0.72962 0.63070 0.30100
C 	C 	0.84670 0.84370 0.64170 0.10600
C 	C 	0.91760 0.64240 0.87410 -0.22100
C 	C 	0.00690 0.75790 0.84330 0.19900
C 	C 	0.20960 0.59420 0.84690 -0.06800
C 	C 	0.12520 0.47900 0.87170 -0.01200
C 	C 	0.61457 0.14217 0.06550 0.36900
C 	C 	0.64326 0.11466 0.96990 -0.08200
C 	C 	0.69953 0.18173 0.87100 -0.06200
C 	C 	0.74650 0.32110 0.81570 0.34900
C 	C 	0.64569 0.98909 0.88170 0.04900
C 	C 	0.07095 0.09575 0.07710 0.51000
C 	C 	0.09730 0.08210 0.97600 -0.15900
C 	C 	0.19376 0.00136 0.91964 0.04400
C 	C 	0.31236 0.89236 0.93320 0.16700
C 	C 	0.05490 0.13250 0.83830 0.12700
C 	C 	0.07721 0.54681 0.12475 0.37700
C 	C 	0.95096 0.64756 0.13270 -0.11800
C 	C 	0.81188 0.65328 0.13777 -0.02500
C 	C 	0.72962 0.55482 0.13070 0.30600
C 	C 	0.84370 0.84670 0.14170 0.11600
N 	N 	0.72729 0.14989 0.28800 -0.27900
N 	N 	0.50945 0.98065 0.42651 -0.25900
N 	N 	0.10337 0.69917 0.31615 -0.19000
N 	N 	0.99177 0.60937 0.47208 -0.25900
N 	N 	0.16744 0.01384 0.41952 -0.19800
N 	N 	0.03546 0.16420 0.33268 -0.21800
N 	N 	0.77527 0.96703 0.63584 -0.25000
N 	N 	0.77756 0.74734 0.64416 -0.24100
N 	N 	0.14989 0.72729 0.78800 -0.28100
N 	N 	0.98065 0.50945 0.92651 -0.26000
N 	N 	0.69917 0.10337 0.81615 -0.19500
N 	N 	0.60937 0.99177 0.97208 -0.26600
N 	N 	0.01384 0.16744 0.91952 -0.19700
N 	N 	0.16420 0.03546 0.83268 -0.22200
N 	N 	0.96703 0.77527 0.13584 -0.24700
N 	N 	0.74734 0.77756 0.14416 -0.23700
O 	O 	0.24368 0.65912 0.57054 -0.39900
O 	O 	0.06013 0.54507 0.63902 -0.35300
O 	O 	0.40385 0.76033 0.35425 -0.44900
O 	O 	0.34816 0.77838 0.22312 -0.55100
O 	O 	0.19171 0.97537 0.59788 -0.58800
O 	O 	0.02238 0.13436 0.63308 -0.43400
O 	O 	0.84793 0.34171 0.51519 -0.43800
O 	O 	0.84844 0.38156 0.36045 -0.37500
O 	O 	0.58156 0.18754 0.61877 -0.38900
O 	O 	0.42851 0.06847 0.62036 -0.37200
O 	O 	0.43157 0.78043 0.63171 -0.46400
O 	O 	0.60406 0.61108 0.62056 -0.37600
O 	O 	0.65912 0.24368 0.07054 -0.39100
O 	O 	0.54507 0.06013 0.13902 -0.35800
O 	O 	0.76033 0.40385 0.85425 -0.45700
O 	O 	0.77838 0.34816 0.72312 -0.55200
O 	O 	0.97537 0.19171 0.09788 -0.58000
O 	O 	0.13436 0.02238 0.13308 -0.44100
O 	O 	0.34171 0.84793 0.01519 -0.38200
O 	O 	0.38156 0.84844 0.86045 -0.36600
O 	O 	0.18754 0.58156 0.11877 -0.37600
O 	O 	0.06847 0.42851 0.12036 -0.35700
O 	O 	0.78043 0.43157 0.13171 -0.45000
O 	O 	0.61108 0.60406 0.12056 -0.36400
