data_crystal

_cell_length_a 46.56100
_cell_length_b 5.92630
_cell_length_c 33.49500
_cell_angle_alpha 90.00000
_cell_angle_beta  128.79400
_cell_angle_gamma 90.00000

_symmetry_space_group_name_	'P 1'
_symmetry_space_group_name_H-M	'P 1'

loop_
_symmetry_equiv_pos_as_xyz
  x,y,z

loop_
_atom_site_label
_atom_site_type_symbol
_atom_site_fract_x
_atom_site_fract_y
_atom_site_fract_z
_atom_site_charge
O 	O 	0.28876 0.70190 0.84918 -0.43300
O 	O 	0.30763 0.03540 0.84415 -0.44700
C 	C 	0.31456 0.83590 0.86240 0.34300
C 	C 	0.35384 0.76660 0.90140 -0.20800
C 	C 	0.36296 0.55750 0.92450 0.17600
H 	H 	0.34440 0.45850 0.91610 -0.02600
C 	C 	0.38177 0.91510 0.91410 0.17400
H 	H 	0.37590 0.05640 0.89870 -0.01300
C 	C 	0.41795 0.85040 0.94932 -0.30800
H 	H 	0.43660 0.94860 0.95790 0.15600
C 	C 	0.39967 0.49380 0.96010 -0.31300
H 	H 	0.40580 0.35260 0.97560 0.14200
C 	C 	0.42679 0.64080 0.97219 0.32100
O 	O 	0.46374 0.58360 0.00290 -0.31600
C 	C 	0.47705 0.43240 0.04272 0.32700
C 	C 	0.49444 0.23790 0.04390 -0.37300
H 	H 	0.49530 0.20430 0.01750 0.19600
C 	C 	0.47642 0.48610 0.08240 -0.26500
H 	H 	0.46560 0.61970 0.08170 0.14100
O 	O 	0.50118 0.25690 0.19963 -0.40200
Cd	Cd	0.74553 0.49939 0.29268 1.16300
O 	O 	0.52592 0.89850 0.08430 -0.31400
O 	O 	0.68513 0.46730 0.22507 -0.45500
C 	C 	0.63666 0.73380 0.19180 -0.20000
C 	C 	0.67589 0.66040 0.22760 0.34800
C 	C 	0.56297 0.85370 0.12281 0.30400
C 	C 	0.61062 0.58090 0.15440 0.15200
H 	H 	0.61790 0.43730 0.15280 -0.00400
O 	O 	0.69975 0.80080 0.26215 -0.42800
C 	C 	0.62489 0.94310 0.19340 0.15900
H 	H 	0.64220 0.04550 0.21810 -0.01700
C 	C 	0.57356 0.64490 0.11950 -0.29100
H 	H 	0.55620 0.54520 0.09400 0.15900
C 	C 	0.51039 0.09740 0.08570 0.32200
C 	C 	0.49233 0.33600 0.12370 0.09500
C 	C 	0.58849 0.00760 0.16000 -0.29500
H 	H 	0.58110 0.15000 0.16210 0.13400
C 	C 	0.50886 0.14010 0.12520 -0.27100
H 	H 	0.51880 0.03830 0.15200 0.13500
O 	O 	0.48590 0.59900 0.17006 -0.41400
C 	C 	0.49238 0.40200 0.16600 0.25100
O 	O 	0.71124 0.70190 0.65082 -0.43200
O 	O 	0.69237 0.03540 0.65585 -0.44600
C 	C 	0.68544 0.83590 0.63760 0.34400
C 	C 	0.64616 0.76660 0.59860 -0.20600
C 	C 	0.63704 0.55750 0.57550 0.17700
H 	H 	0.65560 0.45850 0.58390 -0.02500
C 	C 	0.61823 0.91510 0.58590 0.17500
H 	H 	0.62410 0.05640 0.60130 -0.01200
C 	C 	0.58205 0.85040 0.55068 -0.30600
H 	H 	0.56340 0.94860 0.54210 0.15700
C 	C 	0.60033 0.49380 0.53990 -0.31300
H 	H 	0.59420 0.35260 0.52440 0.14200
C 	C 	0.57321 0.64080 0.52781 0.32100
O 	O 	0.53626 0.58360 0.49710 -0.31600
C 	C 	0.52295 0.43240 0.45728 0.32700
C 	C 	0.50556 0.23790 0.45610 -0.37200
H 	H 	0.50470 0.20430 0.48250 0.19600
C 	C 	0.52358 0.48610 0.41760 -0.26500
H 	H 	0.53440 0.61970 0.41830 0.14100
O 	O 	0.49882 0.25690 0.30037 -0.40200
Cd	Cd	0.25447 0.49939 0.20732 1.16300
O 	O 	0.47408 0.89850 0.41570 -0.31400
O 	O 	0.31487 0.46730 0.27493 -0.45500
C 	C 	0.36334 0.73380 0.30820 -0.20000
C 	C 	0.32411 0.66040 0.27240 0.34800
C 	C 	0.43703 0.85370 0.37719 0.30400
C 	C 	0.38938 0.58090 0.34560 0.15200
H 	H 	0.38210 0.43730 0.34720 -0.00400
O 	O 	0.30025 0.80080 0.23785 -0.42800
C 	C 	0.37511 0.94310 0.30660 0.16000
H 	H 	0.35780 0.04550 0.28190 -0.01800
C 	C 	0.42644 0.64490 0.38050 -0.29100
H 	H 	0.44380 0.54520 0.40600 0.15900
C 	C 	0.48961 0.09740 0.41430 0.32200
C 	C 	0.50767 0.33600 0.37630 0.09500
C 	C 	0.41151 0.00760 0.34000 -0.29500
H 	H 	0.41890 0.15000 0.33790 0.13400
C 	C 	0.49114 0.14010 0.37480 -0.27100
H 	H 	0.48120 0.03830 0.34800 0.13500
O 	O 	0.51410 0.59900 0.32994 -0.41400
C 	C 	0.50762 0.40200 0.33400 0.25100
O 	O 	0.21124 0.79810 0.15082 -0.43100
O 	O 	0.19237 0.46460 0.15585 -0.44300
C 	C 	0.18544 0.66410 0.13760 0.33500
C 	C 	0.14616 0.73340 0.09860 -0.18800
C 	C 	0.13704 0.94250 0.07550 0.14500
H 	H 	0.15560 0.04150 0.08390 -0.01200
C 	C 	0.11823 0.58490 0.08590 0.15400
H 	H 	0.12410 0.44360 0.10130 -0.00400
C 	C 	0.08205 0.64960 0.05068 -0.28700
H 	H 	0.06340 0.55140 0.04210 0.15000
C 	C 	0.10033 0.00620 0.03990 -0.28300
H 	H 	0.09420 0.14740 0.02440 0.13300
C 	C 	0.07321 0.85920 0.02781 0.30100
O 	O 	0.03626 0.91640 0.99710 -0.31100
C 	C 	0.02295 0.06760 0.95728 0.32100
C 	C 	0.00556 0.26210 0.95610 -0.36700
H 	H 	0.00470 0.29570 0.98250 0.19400
C 	C 	0.02358 0.01390 0.91760 -0.25100
H 	H 	0.03440 0.88030 0.91830 0.13400
O 	O 	0.99882 0.24310 0.80037 -0.40300
Cd	Cd	0.75447 0.00061 0.70732 1.16300
O 	O 	0.97408 0.60150 0.91570 -0.31600
O 	O 	0.81487 0.03270 0.77493 -0.45700
C 	C 	0.86334 0.76620 0.80820 -0.21200
C 	C 	0.82411 0.83960 0.77240 0.35400
C 	C 	0.93703 0.64630 0.87719 0.31700
C 	C 	0.88938 0.91910 0.84560 0.16300
H 	H 	0.88210 0.06270 0.84720 -0.00900
O 	O 	0.80025 0.69920 0.73785 -0.42800
C 	C 	0.87511 0.55690 0.80660 0.18300
H 	H 	0.85780 0.45450 0.78190 -0.02700
C 	C 	0.92644 0.85510 0.88050 -0.30300
H 	H 	0.94380 0.95480 0.90600 0.16200
C 	C 	0.98961 0.40260 0.91430 0.31800
C 	C 	0.00767 0.16400 0.87630 0.08700
C 	C 	0.91151 0.49240 0.84000 -0.31600
H 	H 	0.91890 0.35000 0.83790 0.14100
C 	C 	0.99114 0.35990 0.87480 -0.26500
H 	H 	0.98120 0.46170 0.84800 0.13200
O 	O 	0.01410 0.90100 0.82994 -0.42000
C 	C 	0.00762 0.09800 0.83400 0.26200
O 	O 	0.78876 0.79810 0.34918 -0.43100
O 	O 	0.80763 0.46460 0.34415 -0.44300
C 	C 	0.81456 0.66410 0.36240 0.33500
C 	C 	0.85384 0.73340 0.40140 -0.18900
C 	C 	0.86296 0.94250 0.42450 0.14600
H 	H 	0.84440 0.04150 0.41610 -0.01200
C 	C 	0.88177 0.58490 0.41410 0.15500
H 	H 	0.87590 0.44360 0.39870 -0.00400
C 	C 	0.91795 0.64960 0.44932 -0.28800
H 	H 	0.93660 0.55140 0.45790 0.15100
C 	C 	0.89967 0.00620 0.46010 -0.28400
H 	H 	0.90580 0.14740 0.47560 0.13300
C 	C 	0.92679 0.85920 0.47219 0.30200
O 	O 	0.96374 0.91640 0.50290 -0.31200
C 	C 	0.97705 0.06760 0.54272 0.32200
C 	C 	0.99444 0.26210 0.54390 -0.36800
H 	H 	0.99530 0.29570 0.51750 0.19400
C 	C 	0.97642 0.01390 0.58240 -0.25000
H 	H 	0.96560 0.88030 0.58170 0.13400
O 	O 	0.00118 0.24310 0.69963 -0.40300
Cd	Cd	0.24553 0.00061 0.79268 1.16300
O 	O 	0.02592 0.60150 0.58430 -0.31600
O 	O 	0.18513 0.03270 0.72507 -0.45700
C 	C 	0.13666 0.76620 0.69180 -0.21300
C 	C 	0.17589 0.83960 0.72760 0.35400
C 	C 	0.06297 0.64630 0.62281 0.31700
C 	C 	0.11062 0.91910 0.65440 0.16400
H 	H 	0.11790 0.06270 0.65280 -0.00900
O 	O 	0.19975 0.69920 0.76215 -0.42800
C 	C 	0.12489 0.55690 0.69340 0.18300
H 	H 	0.14220 0.45450 0.71810 -0.02700
C 	C 	0.07356 0.85510 0.61950 -0.30300
H 	H 	0.05620 0.95480 0.59400 0.16300
C 	C 	0.01039 0.40260 0.58570 0.31800
C 	C 	0.99233 0.16400 0.62370 0.08700
C 	C 	0.08849 0.49240 0.66000 -0.31600
H 	H 	0.08110 0.35000 0.66210 0.14100
C 	C 	0.00886 0.35990 0.62520 -0.26500
H 	H 	0.01880 0.46170 0.65200 0.13200
O 	O 	0.98590 0.90100 0.67006 -0.42000
C 	C 	0.99238 0.09800 0.66600 0.26200
Cd	Cd	0.50000 0.54621 0.25000 1.17000
Cd	Cd	1.00000 0.95379 0.75000 1.16800
O 	O 	0.78876 0.20190 0.84918 -0.43100
O 	O 	0.80763 0.53540 0.84415 -0.44300
C 	C 	0.81456 0.33590 0.86240 0.33500
C 	C 	0.85384 0.26660 0.90140 -0.18800
C 	C 	0.86296 0.05750 0.92450 0.14500
H 	H 	0.84440 0.95850 0.91610 -0.01200
C 	C 	0.88177 0.41510 0.91410 0.15400
H 	H 	0.87590 0.55640 0.89870 -0.00400
C 	C 	0.91795 0.35040 0.94932 -0.28700
H 	H 	0.93660 0.44860 0.95790 0.15000
C 	C 	0.89967 0.99380 0.96010 -0.28300
H 	H 	0.90580 0.85260 0.97560 0.13300
C 	C 	0.92679 0.14080 0.97219 0.30100
O 	O 	0.96374 0.08360 0.00290 -0.31100
C 	C 	0.97705 0.93240 0.04272 0.32100
C 	C 	0.99444 0.73790 0.04390 -0.36700
H 	H 	0.99530 0.70430 0.01750 0.19400
C 	C 	0.97642 0.98610 0.08240 -0.25100
H 	H 	0.96560 0.11970 0.08170 0.13400
O 	O 	0.00118 0.75690 0.19963 -0.40300
Cd	Cd	0.24553 0.99939 0.29268 1.16300
O 	O 	0.02592 0.39850 0.08430 -0.31600
O 	O 	0.18513 0.96730 0.22507 -0.45700
C 	C 	0.13666 0.23380 0.19180 -0.21200
C 	C 	0.17589 0.16040 0.22760 0.35400
C 	C 	0.06297 0.35370 0.12281 0.31700
C 	C 	0.11062 0.08090 0.15440 0.16300
H 	H 	0.11790 0.93730 0.15280 -0.00900
O 	O 	0.19975 0.30080 0.26215 -0.42800
C 	C 	0.12489 0.44310 0.19340 0.18300
H 	H 	0.14220 0.54550 0.21810 -0.02700
C 	C 	0.07356 0.14490 0.11950 -0.30300
H 	H 	0.05620 0.04520 0.09400 0.16200
C 	C 	0.01039 0.59740 0.08570 0.31800
C 	C 	0.99233 0.83600 0.12370 0.08700
C 	C 	0.08849 0.50760 0.16000 -0.31600
H 	H 	0.08110 0.65000 0.16210 0.14100
C 	C 	0.00886 0.64010 0.12520 -0.26500
H 	H 	0.01880 0.53830 0.15200 0.13200
O 	O 	0.98590 0.09900 0.17006 -0.42000
C 	C 	0.99238 0.90200 0.16600 0.26200
O 	O 	0.21124 0.20190 0.65082 -0.43100
O 	O 	0.19237 0.53540 0.65585 -0.44300
C 	C 	0.18544 0.33590 0.63760 0.33500
C 	C 	0.14616 0.26660 0.59860 -0.18900
C 	C 	0.13704 0.05750 0.57550 0.14600
H 	H 	0.15560 0.95850 0.58390 -0.01200
C 	C 	0.11823 0.41510 0.58590 0.15500
H 	H 	0.12410 0.55640 0.60130 -0.00400
C 	C 	0.08205 0.35040 0.55068 -0.28800
H 	H 	0.06340 0.44860 0.54210 0.15100
C 	C 	0.10033 0.99380 0.53990 -0.28400
H 	H 	0.09420 0.85260 0.52440 0.13300
C 	C 	0.07321 0.14080 0.52781 0.30200
O 	O 	0.03626 0.08360 0.49710 -0.31200
C 	C 	0.02295 0.93240 0.45728 0.32200
C 	C 	0.00556 0.73790 0.45610 -0.36800
H 	H 	0.00470 0.70430 0.48250 0.19400
C 	C 	0.02358 0.98610 0.41760 -0.25000
H 	H 	0.03440 0.11970 0.41830 0.13400
O 	O 	0.99882 0.75690 0.30037 -0.40300
Cd	Cd	0.75447 0.99939 0.20732 1.16300
O 	O 	0.97408 0.39850 0.41570 -0.31600
O 	O 	0.81487 0.96730 0.27493 -0.45700
C 	C 	0.86334 0.23380 0.30820 -0.21300
C 	C 	0.82411 0.16040 0.27240 0.35400
C 	C 	0.93703 0.35370 0.37719 0.31700
C 	C 	0.88938 0.08090 0.34560 0.16400
H 	H 	0.88210 0.93730 0.34720 -0.00900
O 	O 	0.80025 0.30080 0.23785 -0.42800
C 	C 	0.87511 0.44310 0.30660 0.18300
H 	H 	0.85780 0.54550 0.28190 -0.02700
C 	C 	0.92644 0.14490 0.38050 -0.30300
H 	H 	0.94380 0.04520 0.40600 0.16300
C 	C 	0.98961 0.59740 0.41430 0.31800
C 	C 	0.00767 0.83600 0.37630 0.08700
C 	C 	0.91151 0.50760 0.34000 -0.31600
H 	H 	0.91890 0.65000 0.33790 0.14100
C 	C 	0.99114 0.64010 0.37480 -0.26500
H 	H 	0.98120 0.53830 0.34800 0.13200
O 	O 	0.01410 0.09900 0.32994 -0.42000
C 	C 	0.00762 0.90200 0.33400 0.26200
O 	O 	0.71124 0.29810 0.15082 -0.43200
O 	O 	0.69237 0.96460 0.15585 -0.44600
C 	C 	0.68544 0.16410 0.13760 0.34400
C 	C 	0.64616 0.23340 0.09860 -0.20700
C 	C 	0.63704 0.44250 0.07550 0.17700
H 	H 	0.65560 0.54150 0.08390 -0.02500
C 	C 	0.61823 0.08490 0.08590 0.17500
H 	H 	0.62410 0.94360 0.10130 -0.01200
C 	C 	0.58205 0.14960 0.05068 -0.30700
H 	H 	0.56340 0.05140 0.04210 0.15700
C 	C 	0.60033 0.50620 0.03990 -0.31300
H 	H 	0.59420 0.64740 0.02440 0.14200
C 	C 	0.57321 0.35920 0.02781 0.32100
O 	O 	0.53626 0.41640 0.99710 -0.31600
C 	C 	0.52295 0.56760 0.95728 0.32700
C 	C 	0.50556 0.76210 0.95610 -0.37300
H 	H 	0.50470 0.79570 0.98250 0.19600
C 	C 	0.52358 0.51390 0.91760 -0.26500
H 	H 	0.53440 0.38030 0.91830 0.14100
O 	O 	0.49882 0.74310 0.80037 -0.40200
Cd	Cd	0.25447 0.50061 0.70732 1.16300
O 	O 	0.47408 0.10150 0.91570 -0.31400
O 	O 	0.31487 0.53270 0.77493 -0.45500
C 	C 	0.36334 0.26620 0.80820 -0.20000
C 	C 	0.32411 0.33960 0.77240 0.34800
C 	C 	0.43703 0.14630 0.87719 0.30400
C 	C 	0.38938 0.41910 0.84560 0.15200
H 	H 	0.38210 0.56270 0.84720 -0.00400
O 	O 	0.30025 0.19920 0.73785 -0.42800
C 	C 	0.37511 0.05690 0.80660 0.15900
H 	H 	0.35780 0.95450 0.78190 -0.01700
C 	C 	0.42644 0.35510 0.88050 -0.29100
H 	H 	0.44380 0.45480 0.90600 0.15900
C 	C 	0.48961 0.90260 0.91430 0.32200
C 	C 	0.50767 0.66400 0.87630 0.09500
C 	C 	0.41151 0.99240 0.84000 -0.29500
H 	H 	0.41890 0.85000 0.83790 0.13400
C 	C 	0.49114 0.85990 0.87480 -0.27100
H 	H 	0.48120 0.96170 0.84800 0.13500
O 	O 	0.51410 0.40100 0.82994 -0.41400
C 	C 	0.50762 0.59800 0.83400 0.25100
O 	O 	0.28876 0.29810 0.34918 -0.43200
O 	O 	0.30763 0.96460 0.34415 -0.44600
C 	C 	0.31456 0.16410 0.36240 0.34400
C 	C 	0.35384 0.23340 0.40140 -0.20600
C 	C 	0.36296 0.44250 0.42450 0.17700
H 	H 	0.34440 0.54150 0.41610 -0.02500
C 	C 	0.38177 0.08490 0.41410 0.17500
H 	H 	0.37590 0.94360 0.39870 -0.01200
C 	C 	0.41795 0.14960 0.44932 -0.30600
H 	H 	0.43660 0.05140 0.45790 0.15700
C 	C 	0.39967 0.50620 0.46010 -0.31300
H 	H 	0.40580 0.64740 0.47560 0.14200
C 	C 	0.42679 0.35920 0.47219 0.32100
O 	O 	0.46374 0.41640 0.50290 -0.31600
C 	C 	0.47705 0.56760 0.54272 0.32700
C 	C 	0.49444 0.76210 0.54390 -0.37200
H 	H 	0.49530 0.79570 0.51750 0.19600
C 	C 	0.47642 0.51390 0.58240 -0.26500
H 	H 	0.46560 0.38030 0.58170 0.14100
O 	O 	0.50118 0.74310 0.69963 -0.40200
Cd	Cd	0.74553 0.50061 0.79268 1.16300
O 	O 	0.52592 0.10150 0.58430 -0.31400
O 	O 	0.68513 0.53270 0.72507 -0.45500
C 	C 	0.63666 0.26620 0.69180 -0.20000
C 	C 	0.67589 0.33960 0.72760 0.34800
C 	C 	0.56297 0.14630 0.62281 0.30400
C 	C 	0.61062 0.41910 0.65440 0.15200
H 	H 	0.61790 0.56270 0.65280 -0.00400
O 	O 	0.69975 0.19920 0.76215 -0.42800
C 	C 	0.62489 0.05690 0.69340 0.16000
H 	H 	0.64220 0.95450 0.71810 -0.01800
C 	C 	0.57356 0.35510 0.61950 -0.29100
H 	H 	0.55620 0.45480 0.59400 0.15900
C 	C 	0.51039 0.90260 0.58570 0.32200
C 	C 	0.49233 0.66400 0.62370 0.09500
C 	C 	0.58849 0.99240 0.66000 -0.29500
H 	H 	0.58110 0.85000 0.66210 0.13400
C 	C 	0.50886 0.85990 0.62520 -0.27100
H 	H 	0.51880 0.96170 0.65200 0.13500
O 	O 	0.48590 0.40100 0.67006 -0.41400
C 	C 	0.49238 0.59800 0.66600 0.25100
Cd	Cd	0.00000 0.04621 0.25000 1.16800
Cd	Cd	0.50000 0.45379 0.75000 1.17000
