data_crystal

_cell_length_a 14.94400
_cell_length_b 16.94000
_cell_length_c 10.38400
_cell_angle_alpha 90.00000
_cell_angle_beta  123.74000
_cell_angle_gamma 90.00000

_symmetry_space_group_name_	'P 1'
_symmetry_space_group_name_H-M	'P 1'

loop_
_symmetry_equiv_pos_as_xyz
  x,y,z

loop_
_atom_site_label
_atom_site_type_symbol
_atom_site_fract_x
_atom_site_fract_y
_atom_site_fract_z
_atom_site_charge
Co	Co	0.15470 0.45180 0.67146 1.12700
O 	O 	0.14317 0.49604 0.85270 -0.44400
N 	N 	0.99090 0.47405 0.48980 -0.25600
N 	N 	0.19940 0.57668 0.68700 -0.20200
O 	O 	0.18549 0.40247 0.51450 -0.42300
N 	N 	0.11150 0.33807 0.70280 -0.26300
C 	C 	0.17420 0.56537 0.89820 0.33400
C 	C 	0.93400 0.53750 0.47990 0.15400
C 	C 	0.94060 0.42296 0.37080 0.15200
S 	S 	0.23794 0.63992 0.60764 0.05100
C 	C 	0.20180 0.61408 0.80310 -0.05900
C 	C 	0.83100 0.55240 0.35340 -0.27100
H 	H 	0.96520 0.57320 0.56170 -0.01700
C 	C 	0.83870 0.43427 0.24040 -0.27600
H 	H 	0.97690 0.37700 0.37700 -0.01300
N 	N 	0.25710 0.71612 0.71820 -0.10900
C 	C 	0.23350 0.69454 0.81890 0.02700
H 	H 	0.79490 0.59750 0.35170 0.14000
C 	C 	0.78110 0.50088 0.22950 0.25500
H 	H 	0.80890 0.39750 0.16040 0.14500
C 	C 	0.24160 0.75506 0.93480 0.27600
C 	C 	0.67080 0.51820 0.08520 -0.40000
O 	O 	0.15850 0.79226 0.89410 -0.24300
O 	O 	0.33170 0.76317 0.05720 -0.23500
H 	H 	0.61960 0.52640 0.11360 0.14200
H 	H 	0.64670 0.47330 0.01550 0.14900
C 	C 	0.67490 0.59130 0.00360 0.18700
C 	C 	0.56960 0.61150 0.85320 -0.39400
H 	H 	0.69660 0.63590 0.07340 -0.01500
H 	H 	0.72970 0.58350 0.98210 -0.02600
H 	H 	0.55170 0.57050 0.77740 0.13500
H 	H 	0.51240 0.61400 0.87090 0.14200
C 	C 	0.57840 0.68981 0.79150 0.24100
C 	C 	0.51720 0.75540 0.77700 -0.25800
C 	C 	0.65340 0.70110 0.75440 -0.25400
H 	H 	0.46390 0.75080 0.79690 0.12900
C 	C 	0.53580 0.82720 0.73330 0.14400
H 	H 	0.69480 0.65880 0.75900 0.12500
C 	C 	0.66720 0.77413 0.71100 0.13900
H 	H 	0.49390 0.87010 0.72440 -0.02300
H 	H 	0.71770 0.77950 0.68590 -0.01200
Co	Co	0.65470 0.95180 0.67146 1.12900
O 	O 	0.64317 0.99604 0.85270 -0.44200
N 	N 	0.49090 0.97405 0.48980 -0.26000
N 	N 	0.69940 0.07668 0.68700 -0.20100
O 	O 	0.68549 0.90247 0.51450 -0.42100
N 	N 	0.61150 0.83807 0.70280 -0.26400
C 	C 	0.67420 0.06537 0.89820 0.33500
C 	C 	0.43400 0.03750 0.47990 0.15300
C 	C 	0.44060 0.92296 0.37080 0.15100
S 	S 	0.73794 0.13992 0.60764 0.05600
C 	C 	0.70180 0.11408 0.80310 -0.05700
C 	C 	0.33100 0.05240 0.35340 -0.27100
H 	H 	0.46520 0.07320 0.56170 -0.02000
C 	C 	0.33870 0.93427 0.24040 -0.27500
H 	H 	0.47690 0.87700 0.37700 -0.01700
N 	N 	0.75710 0.21612 0.71820 -0.10900
C 	C 	0.73350 0.19454 0.81890 0.02800
H 	H 	0.29490 0.09750 0.35170 0.13900
C 	C 	0.28110 0.00088 0.22950 0.25200
H 	H 	0.30890 0.89750 0.16040 0.14400
C 	C 	0.74160 0.25506 0.93480 0.27500
C 	C 	0.17080 0.01820 0.08520 -0.39600
O 	O 	0.65850 0.29226 0.89410 -0.24000
O 	O 	0.83170 0.26317 0.05720 -0.23300
H 	H 	0.11960 0.02640 0.11360 0.14000
H 	H 	0.14670 0.97330 0.01550 0.14700
C 	C 	0.17490 0.09130 0.00360 0.18000
C 	C 	0.06960 0.11150 0.85320 -0.39000
H 	H 	0.19660 0.13590 0.07340 -0.01300
H 	H 	0.22970 0.08350 0.98210 -0.02300
H 	H 	0.05170 0.07050 0.77740 0.13200
H 	H 	0.01240 0.11400 0.87090 0.13800
C 	C 	0.07840 0.18981 0.79150 0.24200
C 	C 	0.01720 0.25540 0.77700 -0.27200
C 	C 	0.15340 0.20110 0.75440 -0.25500
H 	H 	0.96390 0.25080 0.79690 0.14100
C 	C 	0.03580 0.32720 0.73330 0.13000
H 	H 	0.19480 0.15880 0.75900 0.12500
C 	C 	0.16720 0.27413 0.71100 0.13800
H 	H 	0.99390 0.37010 0.72440 -0.01200
H 	H 	0.21770 0.27950 0.68590 -0.01300
Co	Co	0.15470 0.54820 0.17146 1.12700
O 	O 	0.14317 0.50396 0.35270 -0.44500
N 	N 	0.99090 0.52595 0.98980 -0.25500
N 	N 	0.19940 0.42332 0.18700 -0.20200
O 	O 	0.18549 0.59753 0.01450 -0.42100
N 	N 	0.11150 0.66193 0.20280 -0.26200
C 	C 	0.17420 0.43463 0.39820 0.33700
C 	C 	0.93400 0.46250 0.97990 0.14300
C 	C 	0.94060 0.57704 0.87080 0.14800
S 	S 	0.23794 0.36008 0.10764 0.05300
C 	C 	0.20180 0.38592 0.30310 -0.05900
C 	C 	0.83100 0.44760 0.85340 -0.26200
H 	H 	0.96520 0.42680 0.06170 -0.01100
C 	C 	0.83870 0.56573 0.74040 -0.27000
H 	H 	0.97690 0.62300 0.87700 -0.01300
N 	N 	0.25710 0.28388 0.21820 -0.10900
C 	C 	0.23350 0.30546 0.31890 0.02700
H 	H 	0.79490 0.40250 0.85170 0.13600
C 	C 	0.78110 0.49912 0.72950 0.24500
H 	H 	0.80890 0.60250 0.66040 0.14200
C 	C 	0.24160 0.24494 0.43480 0.28000
C 	C 	0.67080 0.48180 0.58520 -0.38400
O 	O 	0.15850 0.20774 0.39410 -0.24200
O 	O 	0.33170 0.23683 0.55720 -0.23900
H 	H 	0.61960 0.47360 0.61360 0.13700
H 	H 	0.64670 0.52670 0.51550 0.14400
C 	C 	0.67490 0.40870 0.50360 0.16300
C 	C 	0.56960 0.38850 0.35320 -0.37700
H 	H 	0.69660 0.36410 0.57340 -0.00800
H 	H 	0.72970 0.41650 0.48210 -0.01600
H 	H 	0.55170 0.42950 0.27740 0.13100
H 	H 	0.51240 0.38600 0.37090 0.13800
C 	C 	0.57840 0.31019 0.29150 0.23400
C 	C 	0.51720 0.24460 0.27700 -0.25400
C 	C 	0.65340 0.29890 0.25440 -0.24900
H 	H 	0.46390 0.24920 0.29690 0.12800
C 	C 	0.53580 0.17280 0.23330 0.14200
H 	H 	0.69480 0.34120 0.25900 0.12300
C 	C 	0.66720 0.22587 0.21100 0.13700
H 	H 	0.49390 0.12990 0.22440 -0.02200
H 	H 	0.71770 0.22050 0.18590 -0.01100
Co	Co	0.65470 0.04820 0.17146 1.12900
O 	O 	0.64317 0.00396 0.35270 -0.44200
N 	N 	0.49090 0.02595 0.98980 -0.25800
N 	N 	0.69940 0.92332 0.18700 -0.20100
O 	O 	0.68549 0.09753 0.01450 -0.41800
N 	N 	0.61150 0.16193 0.20280 -0.26300
C 	C 	0.67420 0.93463 0.39820 0.33900
C 	C 	0.43400 0.96250 0.97990 0.14200
C 	C 	0.44060 0.07704 0.87080 0.14800
S 	S 	0.73794 0.86008 0.10764 0.05900
C 	C 	0.70180 0.88592 0.30310 -0.05700
C 	C 	0.33100 0.94760 0.85340 -0.26200
H 	H 	0.46520 0.92680 0.06170 -0.01400
C 	C 	0.33870 0.06573 0.74040 -0.27000
H 	H 	0.47690 0.12300 0.87700 -0.01600
N 	N 	0.75710 0.78388 0.21820 -0.10900
C 	C 	0.73350 0.80546 0.31890 0.02900
H 	H 	0.29490 0.90250 0.85170 0.13500
C 	C 	0.28110 0.99912 0.72950 0.24400
H 	H 	0.30890 0.10250 0.66040 0.14200
C 	C 	0.74160 0.74494 0.43480 0.27900
C 	C 	0.17080 0.98180 0.58520 -0.38200
O 	O 	0.65850 0.70774 0.39410 -0.24000
O 	O 	0.83170 0.73683 0.55720 -0.23600
H 	H 	0.11960 0.97360 0.61360 0.13500
H 	H 	0.14670 0.02670 0.51550 0.14200
C 	C 	0.17490 0.90870 0.50360 0.16200
C 	C 	0.06960 0.88850 0.35320 -0.37800
H 	H 	0.19660 0.86410 0.57340 -0.00900
H 	H 	0.22970 0.91650 0.48210 -0.01600
H 	H 	0.05170 0.92950 0.27740 0.12900
H 	H 	0.01240 0.88600 0.37090 0.13500
C 	C 	0.07840 0.81019 0.29150 0.23800
C 	C 	0.01720 0.74460 0.27700 -0.27000
C 	C 	0.15340 0.79890 0.25440 -0.25200
H 	H 	0.96390 0.74920 0.29690 0.14200
C 	C 	0.03580 0.67280 0.23330 0.12900
H 	H 	0.19480 0.84120 0.25900 0.12400
C 	C 	0.16720 0.72587 0.21100 0.13700
H 	H 	0.99390 0.62990 0.22440 -0.01000
H 	H 	0.21770 0.72050 0.18590 -0.01200
