data_crystal

_cell_length_a 9.81870
_cell_length_b 17.63980
_cell_length_c 12.07120
_cell_angle_alpha 90.00000
_cell_angle_beta  97.58200
_cell_angle_gamma 90.00000

_symmetry_space_group_name_	'P 1'
_symmetry_space_group_name_H-M	'P 1'

loop_
_symmetry_equiv_pos_as_xyz
  x,y,z

loop_
_atom_site_label
_atom_site_type_symbol
_atom_site_fract_x
_atom_site_fract_y
_atom_site_fract_z
_atom_site_charge
C 	C 	0.32420 0.08330 0.18580 0.30500
C 	C 	0.83530 0.12940 0.21760 0.31300
C 	C 	0.57880 0.10810 0.20280 -0.02500
H 	H 	0.58950 0.06130 0.16590 0.07000
C 	C 	0.44930 0.13080 0.22410 -0.03500
C 	C 	0.69300 0.15350 0.23550 -0.03800
C 	C 	0.43370 0.19910 0.27960 -0.09800
H 	H 	0.34610 0.21430 0.29700 0.08200
C 	C 	0.67680 0.22300 0.28750 -0.09600
H 	H 	0.75340 0.25530 0.30800 0.08200
C 	C 	0.54720 0.24390 0.30860 0.11300
C 	C 	0.61740 0.26690 0.55690 -0.70800
H 	H 	0.71640 0.26190 0.55450 0.24200
H 	H 	0.57190 0.21860 0.53560 0.24100
H 	H 	0.60120 0.28050 0.63280 0.24500
C 	C 	0.56100 0.32700 0.47790 0.29400
C 	C 	0.48540 0.38270 0.32070 0.07800
C 	C 	0.44120 0.40250 0.20350 0.08100
C 	C 	0.38290 0.37300 0.02210 0.06900
H 	H 	0.37740 0.33760 0.96240 0.01800
C 	C 	0.34000 0.44650 0.99920 -0.13800
H 	H 	0.30050 0.46150 0.92640 0.08500
C 	C 	0.35720 0.49750 0.08690 0.08700
H 	H 	0.33050 0.54890 0.07390 0.00800
N 	N 	0.53110 0.31504 0.36480 -0.17900
N 	N 	0.53420 0.39778 0.50040 -0.25300
N 	N 	0.48590 0.43318 0.40080 -0.21300
N 	N 	0.41060 0.47612 0.18960 -0.22600
N 	N 	0.43190 0.34950 0.12550 -0.13000
O 	O 	0.33340 0.02942 0.12050 -0.29700
O 	O 	0.21430 0.10366 0.22100 -0.44300
O 	O 	0.85090 0.06312 0.18140 -0.42600
O 	O 	0.93230 0.17290 0.24170 -0.31900
Zn	Zn	0.45128 0.54668 0.34360 1.20700
C 	C 	0.17580 0.58330 0.31420 0.30600
C 	C 	0.66470 0.62940 0.28240 0.31400
C 	C 	0.92120 0.60810 0.29720 -0.02500
H 	H 	0.91050 0.56130 0.33410 0.07100
C 	C 	0.05070 0.63080 0.27590 -0.03300
C 	C 	0.80700 0.65350 0.26450 -0.03800
C 	C 	0.06630 0.69910 0.22040 -0.09500
H 	H 	0.15390 0.71430 0.20300 0.08100
C 	C 	0.82320 0.72300 0.21250 -0.09500
H 	H 	0.74660 0.75530 0.19200 0.08100
C 	C 	0.95280 0.74390 0.19140 0.11100
C 	C 	0.88260 0.76690 0.94310 -0.70900
H 	H 	0.78360 0.76190 0.94550 0.24200
H 	H 	0.92810 0.71860 0.96440 0.24000
H 	H 	0.89880 0.78050 0.86720 0.24500
C 	C 	0.93900 0.82700 0.02210 0.29500
C 	C 	0.01460 0.88270 0.17930 0.08100
C 	C 	0.05880 0.90250 0.29650 0.08100
C 	C 	0.11710 0.87300 0.47790 0.07300
H 	H 	0.12260 0.83760 0.53760 0.01700
C 	C 	0.16000 0.94650 0.50080 -0.14400
H 	H 	0.19950 0.96150 0.57360 0.08700
C 	C 	0.14280 0.99750 0.41310 0.09700
H 	H 	0.16950 0.04890 0.42610 0.00200
N 	N 	0.96890 0.81504 0.13520 -0.18000
N 	N 	0.96580 0.89778 0.99960 -0.25600
N 	N 	0.01410 0.93318 0.09920 -0.21100
N 	N 	0.08940 0.97612 0.31040 -0.22600
N 	N 	0.06810 0.84950 0.37450 -0.13000
O 	O 	0.16660 0.52942 0.37950 -0.29600
O 	O 	0.28570 0.60366 0.27900 -0.44200
O 	O 	0.64910 0.56312 0.31860 -0.42800
O 	O 	0.56770 0.67290 0.25830 -0.32100
Zn	Zn	0.04872 0.04668 0.15640 1.20600
C 	C 	0.67580 0.91670 0.81420 0.30600
C 	C 	0.16470 0.87060 0.78240 0.31400
C 	C 	0.42120 0.89190 0.79720 -0.02400
H 	H 	0.41050 0.93870 0.83410 0.07100
C 	C 	0.55070 0.86920 0.77590 -0.03400
C 	C 	0.30700 0.84650 0.76450 -0.03700
C 	C 	0.56630 0.80090 0.72040 -0.09800
H 	H 	0.65390 0.78570 0.70300 0.08200
C 	C 	0.32320 0.77700 0.71250 -0.09600
H 	H 	0.24660 0.74470 0.69200 0.08200
C 	C 	0.45280 0.75610 0.69140 0.11300
C 	C 	0.38260 0.73310 0.44310 -0.70800
H 	H 	0.28360 0.73810 0.44550 0.24200
H 	H 	0.42810 0.78140 0.46440 0.24100
H 	H 	0.39880 0.71950 0.36720 0.24500
C 	C 	0.43900 0.67300 0.52210 0.29400
C 	C 	0.51460 0.61730 0.67930 0.07800
C 	C 	0.55880 0.59750 0.79650 0.08100
C 	C 	0.61710 0.62700 0.97790 0.06900
H 	H 	0.62260 0.66240 0.03760 0.01800
C 	C 	0.66000 0.55350 0.00080 -0.13800
H 	H 	0.69950 0.53850 0.07360 0.08500
C 	C 	0.64280 0.50250 0.91310 0.08700
H 	H 	0.66950 0.45110 0.92610 0.00800
N 	N 	0.46890 0.68496 0.63520 -0.17900
N 	N 	0.46580 0.60222 0.49960 -0.25300
N 	N 	0.51410 0.56682 0.59920 -0.21300
N 	N 	0.58940 0.52388 0.81040 -0.22600
N 	N 	0.56810 0.65050 0.87450 -0.13000
O 	O 	0.66660 0.97058 0.87950 -0.29700
O 	O 	0.78570 0.89634 0.77900 -0.44300
O 	O 	0.14910 0.93688 0.81860 -0.42600
O 	O 	0.06770 0.82710 0.75830 -0.31900
Zn	Zn	0.54872 0.45332 0.65640 1.20700
C 	C 	0.82420 0.41670 0.68580 0.30600
C 	C 	0.33530 0.37060 0.71760 0.31400
C 	C 	0.07880 0.39190 0.70280 -0.02500
H 	H 	0.08950 0.43870 0.66590 0.07100
C 	C 	0.94930 0.36920 0.72410 -0.03300
C 	C 	0.19300 0.34650 0.73550 -0.03800
C 	C 	0.93370 0.30090 0.77960 -0.09500
H 	H 	0.84610 0.28570 0.79700 0.08100
C 	C 	0.17680 0.27700 0.78750 -0.09500
H 	H 	0.25340 0.24470 0.80800 0.08100
C 	C 	0.04720 0.25610 0.80860 0.11100
C 	C 	0.11740 0.23310 0.05690 -0.70900
H 	H 	0.21640 0.23810 0.05450 0.24200
H 	H 	0.07190 0.28140 0.03560 0.24000
H 	H 	0.10120 0.21950 0.13280 0.24500
C 	C 	0.06100 0.17300 0.97790 0.29500
C 	C 	0.98540 0.11730 0.82070 0.08100
C 	C 	0.94120 0.09750 0.70350 0.08100
C 	C 	0.88290 0.12700 0.52210 0.07300
H 	H 	0.87740 0.16240 0.46240 0.01700
C 	C 	0.84000 0.05350 0.49920 -0.14400
H 	H 	0.80050 0.03850 0.42640 0.08700
C 	C 	0.85720 0.00250 0.58690 0.09700
H 	H 	0.83050 0.95110 0.57390 0.00200
N 	N 	0.03110 0.18496 0.86480 -0.18000
N 	N 	0.03420 0.10222 0.00040 -0.25600
N 	N 	0.98590 0.06682 0.90080 -0.21100
N 	N 	0.91060 0.02388 0.68960 -0.22600
N 	N 	0.93190 0.15050 0.62550 -0.13000
O 	O 	0.83340 0.47058 0.62050 -0.29600
O 	O 	0.71430 0.39634 0.72100 -0.44200
O 	O 	0.35090 0.43688 0.68140 -0.42800
O 	O 	0.43230 0.32710 0.74170 -0.32100
Zn	Zn	0.95128 0.95332 0.84360 1.20600
