data_crystal

_cell_length_a 8.62700
_cell_length_b 9.65000
_cell_length_c 13.21800
_cell_angle_alpha 90.00000
_cell_angle_beta  90.00000
_cell_angle_gamma 95.93000

_symmetry_space_group_name_	'P 1'
_symmetry_space_group_name_H-M	'P 1'

loop_
_symmetry_equiv_pos_as_xyz
  x,y,z

loop_
_atom_site_label
_atom_site_type_symbol
_atom_site_fract_x
_atom_site_fract_y
_atom_site_fract_z
_atom_site_charge
Ce	Ce	0.45516 0.00433 0.76576 2.04200
Ce	Ce	0.04484 0.49567 0.26576 2.04200
Ce	Ce	0.54484 0.99567 0.23424 2.04300
Ce	Ce	0.95516 0.50433 0.73424 2.04300
C 	C 	0.40990 0.37430 0.97460 -0.10800
C 	C 	0.52750 0.37660 0.04860 -0.06100
C 	C 	0.38130 0.49950 0.92740 -0.05700
C 	C 	0.30670 0.24040 0.94860 0.41000
C 	C 	0.54450 0.24870 0.10990 0.30800
C 	C 	0.24420 0.50430 0.85810 0.29800
C 	C 	0.09010 0.12570 0.47460 -0.10400
C 	C 	0.97250 0.12340 0.54860 -0.06500
C 	C 	0.11870 0.00050 0.42740 -0.05100
C 	C 	0.19330 0.25960 0.44860 0.41000
C 	C 	0.95550 0.25130 0.60990 0.31000
C 	C 	0.25580 0.99570 0.35810 0.29200
C 	C 	0.59010 0.62570 0.02540 -0.10800
C 	C 	0.47250 0.62340 0.95140 -0.06100
C 	C 	0.61870 0.50050 0.07260 -0.05700
C 	C 	0.69330 0.75960 0.05140 0.41000
C 	C 	0.45550 0.75130 0.89010 0.30800
C 	C 	0.75580 0.49570 0.14190 0.29800
C 	C 	0.90990 0.87430 0.52540 -0.10400
C 	C 	0.02750 0.87660 0.45140 -0.06500
C 	C 	0.88130 0.99950 0.57260 -0.05100
C 	C 	0.80670 0.74040 0.55140 0.41000
C 	C 	0.04450 0.74870 0.39010 0.31000
C 	C 	0.74420 0.00430 0.64190 0.29200
O 	O 	0.35650 0.16220 0.88410 -0.56900
O 	O 	0.17780 0.22050 0.99180 -0.34700
O 	O 	0.55010 0.13330 0.06640 -0.46400
O 	O 	0.54760 0.25880 0.20410 -0.49100
O 	O 	0.21800 0.41590 0.78930 -0.46700
O 	O 	0.15230 0.59650 0.87500 -0.49500
O 	O 	0.14350 0.33780 0.38410 -0.56700
O 	O 	0.32220 0.27950 0.49180 -0.34500
O 	O 	0.94990 0.36670 0.56640 -0.46800
O 	O 	0.95240 0.24120 0.70410 -0.49500
O 	O 	0.28200 0.08410 0.28930 -0.46400
O 	O 	0.34770 0.90350 0.37500 -0.49500
O 	O 	0.64350 0.83780 0.11590 -0.56900
O 	O 	0.82220 0.77950 0.00820 -0.34700
O 	O 	0.44990 0.86670 0.93360 -0.46400
O 	O 	0.45240 0.74120 0.79590 -0.49100
O 	O 	0.78200 0.58410 0.21070 -0.46700
O 	O 	0.84770 0.40350 0.12500 -0.49500
O 	O 	0.85650 0.66220 0.61590 -0.56700
O 	O 	0.67780 0.72050 0.50820 -0.34500
O 	O 	0.05010 0.63330 0.43360 -0.46800
O 	O 	0.04760 0.75880 0.29590 -0.49500
O 	O 	0.71800 0.91590 0.71070 -0.46400
O 	O 	0.65230 0.09650 0.62500 -0.49500
