data_crystal

_cell_length_a 8.50500
_cell_length_b 9.53600
_cell_length_c 13.14500
_cell_angle_alpha 90.00000
_cell_angle_beta  90.00000
_cell_angle_gamma 94.73000

_symmetry_space_group_name_	'P 1'
_symmetry_space_group_name_H-M	'P 1'

loop_
_symmetry_equiv_pos_as_xyz
  x,y,z

loop_
_atom_site_label
_atom_site_type_symbol
_atom_site_fract_x
_atom_site_fract_y
_atom_site_fract_z
_atom_site_charge
Eu	Eu	0.03952 0.49251 0.76835 1.54200
Eu	Eu	0.46048 0.00749 0.26835 1.54000
Eu	Eu	0.96048 0.50749 0.23165 1.54300
Eu	Eu	0.53952 0.99251 0.73165 1.54100
C 	C 	0.09250 0.12450 0.97380 -0.07700
C 	C 	0.97570 0.12600 0.04920 -0.05600
C 	C 	0.11760 0.99720 0.92590 -0.05000
C 	C 	0.19840 0.25720 0.94780 0.39600
C 	C 	0.96030 0.25590 0.11080 0.30600
C 	C 	0.25380 0.98970 0.85300 0.29400
C 	C 	0.40750 0.37550 0.47380 -0.08700
C 	C 	0.52430 0.37400 0.54920 -0.04900
C 	C 	0.38240 0.50280 0.42590 -0.04600
C 	C 	0.30160 0.24280 0.44780 0.39800
C 	C 	0.53970 0.24410 0.61080 0.30400
C 	C 	0.24620 0.51030 0.35300 0.29700
C 	C 	0.90750 0.87550 0.02620 -0.07700
C 	C 	0.02430 0.87400 0.95080 -0.05600
C 	C 	0.88240 0.00280 0.07410 -0.05000
C 	C 	0.80160 0.74280 0.05220 0.39600
C 	C 	0.03970 0.74410 0.88920 0.30600
C 	C 	0.74620 0.01030 0.14700 0.29400
C 	C 	0.59250 0.62450 0.52620 -0.08700
C 	C 	0.47570 0.62600 0.45080 -0.04900
C 	C 	0.61760 0.49720 0.57410 -0.04600
C 	C 	0.69840 0.75720 0.55220 0.39800
C 	C 	0.46030 0.75590 0.38920 0.30400
C 	C 	0.75380 0.48970 0.64700 0.29700
O 	O 	0.14910 0.34140 0.88580 -0.46700
O 	O 	0.33140 0.26880 0.98920 -0.30300
O 	O 	0.95040 0.37280 0.06700 -0.38400
O 	O 	0.96260 0.24790 0.20570 -0.40500
O 	O 	0.28250 0.08400 0.78770 -0.38700
O 	O 	0.34210 0.88970 0.86300 -0.41000
O 	O 	0.35090 0.15860 0.38580 -0.46800
O 	O 	0.16860 0.23120 0.48920 -0.30400
O 	O 	0.54960 0.12720 0.56700 -0.38100
O 	O 	0.53740 0.25210 0.70570 -0.40400
O 	O 	0.21750 0.41600 0.28770 -0.39100
O 	O 	0.15790 0.61030 0.36300 -0.40900
O 	O 	0.85090 0.65860 0.11420 -0.46700
O 	O 	0.66860 0.73120 0.01080 -0.30300
O 	O 	0.04960 0.62720 0.93300 -0.38400
O 	O 	0.03740 0.75210 0.79430 -0.40500
O 	O 	0.71750 0.91600 0.21230 -0.38700
O 	O 	0.65790 0.11030 0.13700 -0.41000
O 	O 	0.64910 0.84140 0.61420 -0.46800
O 	O 	0.83140 0.76880 0.51080 -0.30400
O 	O 	0.45040 0.87280 0.43300 -0.38100
O 	O 	0.46260 0.74790 0.29430 -0.40400
O 	O 	0.78250 0.58400 0.71230 -0.39100
O 	O 	0.84210 0.38970 0.63700 -0.40900
