data_crystal

_cell_length_a 9.80540
_cell_length_b 17.98140
_cell_length_c 11.97750
_cell_angle_alpha 90.00000
_cell_angle_beta  97.88100
_cell_angle_gamma 90.00000

_symmetry_space_group_name_	'P 1'
_symmetry_space_group_name_H-M	'P 1'

loop_
_symmetry_equiv_pos_as_xyz
  x,y,z

loop_
_atom_site_label
_atom_site_type_symbol
_atom_site_fract_x
_atom_site_fract_y
_atom_site_fract_z
_atom_site_charge
C 	C 	0.32210 0.09120 0.18900 0.28700
C 	C 	0.83630 0.13940 0.20490 0.29300
C 	C 	0.57920 0.11570 0.20080 -0.02900
H 	H 	0.58900 0.06880 0.16610 0.07200
C 	C 	0.44930 0.13820 0.22350 -0.02100
C 	C 	0.69600 0.16120 0.22840 -0.02900
C 	C 	0.43520 0.20590 0.27910 -0.09400
H 	H 	0.34820 0.22110 0.29760 0.09100
C 	C 	0.67950 0.23050 0.28070 -0.09200
H 	H 	0.75570 0.26310 0.29790 0.08400
C 	C 	0.55100 0.25020 0.30640 0.10400
C 	C 	0.56300 0.33390 0.47460 0.10500
H 	H 	0.59720 0.29770 0.52910 0.01100
C 	C 	0.48850 0.38750 0.31570 0.08300
C 	C 	0.44230 0.40730 0.19630 0.05100
C 	C 	0.43940 0.36010 0.10500 -0.10200
H 	H 	0.47330 0.31070 0.11420 0.07600
C 	C 	0.38540 0.38710 0.99910 0.03800
H 	H 	0.38450 0.35640 0.93450 0.02600
C 	C 	0.33390 0.45720 0.98820 -0.10800
H 	H 	0.29170 0.47490 0.91690 0.07900
C 	C 	0.34400 0.50310 0.08310 0.06300
H 	H 	0.31200 0.55290 0.07500 0.01300
N 	N 	0.53470 0.32135 0.36210 -0.14400
N 	N 	0.53590 0.40396 0.49730 -0.20800
N 	N 	0.48890 0.43771 0.39560 -0.21400
N 	N 	0.39840 0.47820 0.18670 -0.22000
O 	O 	0.32930 0.03330 0.13220 -0.30000
O 	O 	0.20950 0.11575 0.21830 -0.41900
O 	O 	0.86020 0.07042 0.19220 -0.41800
O 	O 	0.92440 0.18940 0.19780 -0.27600
Zn	Zn	0.44553 0.54772 0.33909 1.20600
C 	C 	0.17790 0.59120 0.31100 0.28600
C 	C 	0.66370 0.63940 0.29510 0.29200
C 	C 	0.92080 0.61570 0.29920 -0.02900
H 	H 	0.91100 0.56880 0.33390 0.07100
C 	C 	0.05070 0.63820 0.27650 -0.02200
C 	C 	0.80400 0.66120 0.27160 -0.03000
C 	C 	0.06480 0.70590 0.22090 -0.09500
H 	H 	0.15180 0.72110 0.20240 0.09000
C 	C 	0.82050 0.73050 0.21930 -0.09300
H 	H 	0.74430 0.76310 0.20210 0.08300
C 	C 	0.94900 0.75020 0.19360 0.10400
C 	C 	0.93700 0.83390 0.02540 0.11300
H 	H 	0.90280 0.79770 0.97090 0.00300
C 	C 	0.01150 0.88750 0.18430 0.08400
C 	C 	0.05770 0.90730 0.30370 0.04900
C 	C 	0.06060 0.86010 0.39500 -0.09500
H 	H 	0.02670 0.81070 0.38580 0.07400
C 	C 	0.11460 0.88710 0.50090 0.03000
H 	H 	0.11550 0.85640 0.56550 0.02900
C 	C 	0.16610 0.95720 0.51180 -0.09800
H 	H 	0.20830 0.97490 0.58310 0.07600
C 	C 	0.15600 0.00310 0.41690 0.05200
H 	H 	0.18800 0.05290 0.42500 0.01600
N 	N 	0.96530 0.82135 0.13790 -0.14600
N 	N 	0.96410 0.90396 0.00270 -0.20800
N 	N 	0.01110 0.93771 0.10440 -0.21300
N 	N 	0.10160 0.97820 0.31330 -0.21500
O 	O 	0.17070 0.53330 0.36780 -0.29800
O 	O 	0.29050 0.61575 0.28170 -0.41700
O 	O 	0.63980 0.57042 0.30780 -0.42000
O 	O 	0.57560 0.68940 0.30220 -0.27900
Zn	Zn	0.05447 0.04772 0.16091 1.20400
C 	C 	0.67790 0.90880 0.81100 0.28600
C 	C 	0.16370 0.86060 0.79510 0.29200
C 	C 	0.42080 0.88430 0.79920 -0.03000
H 	H 	0.41100 0.93120 0.83390 0.07100
C 	C 	0.55070 0.86180 0.77650 -0.02200
C 	C 	0.30400 0.83880 0.77160 -0.03000
C 	C 	0.56480 0.79410 0.72090 -0.09500
H 	H 	0.65180 0.77890 0.70240 0.09000
C 	C 	0.32050 0.76950 0.71930 -0.09300
H 	H 	0.24430 0.73690 0.70210 0.08300
C 	C 	0.44900 0.74980 0.69360 0.10300
C 	C 	0.43700 0.66610 0.52540 0.10400
H 	H 	0.40280 0.70230 0.47090 0.01100
C 	C 	0.51150 0.61250 0.68430 0.08300
C 	C 	0.55770 0.59270 0.80370 0.05100
C 	C 	0.56060 0.63990 0.89500 -0.10200
H 	H 	0.52670 0.68930 0.88580 0.07600
C 	C 	0.61460 0.61290 0.00090 0.03800
H 	H 	0.61550 0.64360 0.06550 0.02600
C 	C 	0.66610 0.54280 0.01180 -0.10800
H 	H 	0.70830 0.52510 0.08310 0.07900
C 	C 	0.65600 0.49690 0.91690 0.06300
H 	H 	0.68800 0.44710 0.92500 0.01300
N 	N 	0.46530 0.67865 0.63790 -0.14400
N 	N 	0.46410 0.59604 0.50270 -0.20800
N 	N 	0.51110 0.56229 0.60440 -0.21400
N 	N 	0.60160 0.52180 0.81330 -0.22000
O 	O 	0.67070 0.96670 0.86780 -0.30000
O 	O 	0.79050 0.88425 0.78170 -0.41900
O 	O 	0.13980 0.92958 0.80780 -0.41800
O 	O 	0.07560 0.81060 0.80220 -0.27600
Zn	Zn	0.55447 0.45228 0.66091 1.20600
C 	C 	0.82210 0.40880 0.68900 0.28600
C 	C 	0.33630 0.36060 0.70490 0.29200
C 	C 	0.07920 0.38430 0.70080 -0.02900
H 	H 	0.08900 0.43120 0.66610 0.07100
C 	C 	0.94930 0.36180 0.72350 -0.02200
C 	C 	0.19600 0.33880 0.72840 -0.03000
C 	C 	0.93520 0.29410 0.77910 -0.09500
H 	H 	0.84820 0.27890 0.79760 0.09000
C 	C 	0.17950 0.26950 0.78070 -0.09300
H 	H 	0.25570 0.23690 0.79790 0.08300
C 	C 	0.05100 0.24980 0.80640 0.10400
C 	C 	0.06300 0.16610 0.97460 0.11300
H 	H 	0.09720 0.20230 0.02910 0.00300
C 	C 	0.98850 0.11250 0.81570 0.08400
C 	C 	0.94230 0.09270 0.69630 0.04900
C 	C 	0.93940 0.13990 0.60500 -0.09500
H 	H 	0.97330 0.18930 0.61420 0.07400
C 	C 	0.88540 0.11290 0.49910 0.03000
H 	H 	0.88450 0.14360 0.43450 0.02900
C 	C 	0.83390 0.04280 0.48820 -0.09800
H 	H 	0.79170 0.02510 0.41690 0.07600
C 	C 	0.84400 0.99690 0.58310 0.05200
H 	H 	0.81200 0.94710 0.57500 0.01600
N 	N 	0.03470 0.17865 0.86210 -0.14600
N 	N 	0.03590 0.09604 0.99730 -0.20800
N 	N 	0.98890 0.06229 0.89560 -0.21300
N 	N 	0.89840 0.02180 0.68670 -0.21500
O 	O 	0.82930 0.46670 0.63220 -0.29800
O 	O 	0.70950 0.38425 0.71830 -0.41700
O 	O 	0.36020 0.42958 0.69220 -0.42000
O 	O 	0.42440 0.31060 0.69780 -0.27900
Zn	Zn	0.94553 0.95228 0.83909 1.20400
