data_crystal

_cell_length_a 9.87670
_cell_length_b 17.43890
_cell_length_c 12.01770
_cell_angle_alpha 90.00000
_cell_angle_beta  97.45800
_cell_angle_gamma 90.00000

_symmetry_space_group_name_	'P 1'
_symmetry_space_group_name_H-M	'P 1'

loop_
_symmetry_equiv_pos_as_xyz
  x,y,z

loop_
_atom_site_label
_atom_site_type_symbol
_atom_site_fract_x
_atom_site_fract_y
_atom_site_fract_z
_atom_site_charge
C 	C 	0.32310 0.08230 0.18360 0.30700
C 	C 	0.83180 0.12250 0.21080 0.32400
C 	C 	0.57750 0.10485 0.19880 -0.02000
H 	H 	0.58620 0.05770 0.16080 0.07000
C 	C 	0.44960 0.12876 0.22170 -0.03700
C 	C 	0.69260 0.14930 0.23110 -0.04500
C 	C 	0.43630 0.19772 0.27760 -0.09500
H 	H 	0.34990 0.21400 0.29550 0.08000
C 	C 	0.67900 0.21985 0.28390 -0.09100
H 	H 	0.75610 0.25190 0.30390 0.07900
C 	C 	0.55110 0.24191 0.30650 0.10900
C 	C 	0.61930 0.26460 0.55650 -0.71100
H 	H 	0.71880 0.26260 0.55850 0.24300
H 	H 	0.57990 0.21490 0.53180 0.24100
H 	H 	0.59660 0.27630 0.63160 0.24700
C 	C 	0.56290 0.32505 0.47720 0.29600
C 	C 	0.48880 0.38188 0.32050 0.08200
C 	C 	0.44440 0.40343 0.20310 0.08100
C 	C 	0.38360 0.37600 0.02060 0.07000
H 	H 	0.37620 0.34090 0.95960 0.01800
C 	C 	0.34190 0.45040 0.00070 -0.14000
H 	H 	0.30160 0.46640 0.92830 0.08500
C 	C 	0.36070 0.50110 0.08980 0.08700
H 	H 	0.33450 0.55320 0.07810 0.00900
N 	N 	0.53530 0.31382 0.36380 -0.18000
N 	N 	0.53370 0.39649 0.50080 -0.24500
N 	N 	0.48660 0.43232 0.40090 -0.20600
N 	N 	0.43450 0.35075 0.12350 -0.13000
N 	N 	0.41520 0.47831 0.19200 -0.22300
O 	O 	0.32900 0.02858 0.11650 -0.29400
O 	O 	0.21570 0.10252 0.22140 -0.42300
O 	O 	0.84390 0.05596 0.17390 -0.40200
O 	O 	0.93210 0.16220 0.23510 -0.33800
Co	Co	0.45150 0.54625 0.34492 1.15300
C 	C 	0.17690 0.58230 0.31640 0.30600
C 	C 	0.66820 0.62250 0.28920 0.32500
C 	C 	0.92250 0.60485 0.30120 -0.02100
H 	H 	0.91380 0.55770 0.33920 0.07000
C 	C 	0.05040 0.62876 0.27830 -0.03700
C 	C 	0.80740 0.64930 0.26890 -0.04600
C 	C 	0.06370 0.69772 0.22240 -0.09100
H 	H 	0.15010 0.71400 0.20450 0.07900
C 	C 	0.82100 0.71985 0.21610 -0.08900
H 	H 	0.74390 0.75190 0.19610 0.07800
C 	C 	0.94890 0.74191 0.19350 0.10600
C 	C 	0.88070 0.76460 0.94350 -0.71100
H 	H 	0.78120 0.76260 0.94150 0.24200
H 	H 	0.92010 0.71490 0.96820 0.24000
H 	H 	0.90340 0.77630 0.86840 0.24600
C 	C 	0.93710 0.82505 0.02280 0.29600
C 	C 	0.01120 0.88188 0.17950 0.08600
C 	C 	0.05560 0.90343 0.29690 0.08100
C 	C 	0.11640 0.87600 0.47940 0.06600
H 	H 	0.12380 0.84090 0.54040 0.02000
C 	C 	0.15810 0.95040 0.49930 -0.12700
H 	H 	0.19840 0.96640 0.57170 0.08200
C 	C 	0.13930 0.00110 0.41020 0.07400
H 	H 	0.16550 0.05320 0.42190 0.01300
N 	N 	0.96470 0.81382 0.13620 -0.18200
N 	N 	0.96630 0.89649 0.99920 -0.24800
N 	N 	0.01340 0.93232 0.09910 -0.20400
N 	N 	0.06550 0.85075 0.37650 -0.12900
N 	N 	0.08480 0.97831 0.30800 -0.21800
O 	O 	0.17100 0.52858 0.38350 -0.29300
O 	O 	0.28430 0.60252 0.27860 -0.42200
O 	O 	0.65610 0.55596 0.32610 -0.40400
O 	O 	0.56790 0.66220 0.26490 -0.34000
Co	Co	0.04850 0.04625 0.15508 1.15100
C 	C 	0.67690 0.91770 0.81640 0.30700
C 	C 	0.16820 0.87750 0.78920 0.32400
C 	C 	0.42250 0.89515 0.80120 -0.02000
H 	H 	0.41380 0.94230 0.83920 0.07000
C 	C 	0.55040 0.87124 0.77830 -0.03700
C 	C 	0.30740 0.85070 0.76890 -0.04500
C 	C 	0.56370 0.80228 0.72240 -0.09500
H 	H 	0.65010 0.78600 0.70450 0.08000
C 	C 	0.32100 0.78015 0.71610 -0.09100
H 	H 	0.24390 0.74810 0.69610 0.07900
C 	C 	0.44890 0.75809 0.69350 0.10900
C 	C 	0.38070 0.73540 0.44350 -0.71100
H 	H 	0.28120 0.73740 0.44150 0.24300
H 	H 	0.42010 0.78510 0.46820 0.24100
H 	H 	0.40340 0.72370 0.36840 0.24700
C 	C 	0.43710 0.67495 0.52280 0.29600
C 	C 	0.51120 0.61812 0.67950 0.08200
C 	C 	0.55560 0.59657 0.79690 0.08100
C 	C 	0.61640 0.62400 0.97940 0.07000
H 	H 	0.62380 0.65910 0.04040 0.01800
C 	C 	0.65810 0.54960 0.99930 -0.14000
H 	H 	0.69840 0.53360 0.07170 0.08500
C 	C 	0.63930 0.49890 0.91020 0.08700
H 	H 	0.66550 0.44680 0.92190 0.00900
N 	N 	0.46470 0.68618 0.63620 -0.18000
N 	N 	0.46630 0.60351 0.49920 -0.24500
N 	N 	0.51340 0.56768 0.59910 -0.20600
N 	N 	0.56550 0.64925 0.87650 -0.13000
N 	N 	0.58480 0.52169 0.80800 -0.22300
O 	O 	0.67100 0.97142 0.88350 -0.29400
O 	O 	0.78430 0.89748 0.77860 -0.42300
O 	O 	0.15610 0.94404 0.82610 -0.40200
O 	O 	0.06790 0.83780 0.76490 -0.33800
Co	Co	0.54850 0.45375 0.65508 1.15300
C 	C 	0.82310 0.41770 0.68360 0.30600
C 	C 	0.33180 0.37750 0.71080 0.32500
C 	C 	0.07750 0.39515 0.69880 -0.02100
H 	H 	0.08620 0.44230 0.66080 0.07000
C 	C 	0.94960 0.37124 0.72170 -0.03700
C 	C 	0.19260 0.35070 0.73110 -0.04600
C 	C 	0.93630 0.30228 0.77760 -0.09100
H 	H 	0.84990 0.28600 0.79550 0.07900
C 	C 	0.17900 0.28015 0.78390 -0.08900
H 	H 	0.25610 0.24810 0.80390 0.07800
C 	C 	0.05110 0.25809 0.80650 0.10600
C 	C 	0.11930 0.23540 0.05650 -0.71100
H 	H 	0.21880 0.23740 0.05850 0.24200
H 	H 	0.07990 0.28510 0.03180 0.24000
H 	H 	0.09660 0.22370 0.13160 0.24600
C 	C 	0.06290 0.17495 0.97720 0.29600
C 	C 	0.98880 0.11812 0.82050 0.08600
C 	C 	0.94440 0.09657 0.70310 0.08100
C 	C 	0.88360 0.12400 0.52060 0.06600
H 	H 	0.87620 0.15910 0.45960 0.02000
C 	C 	0.84190 0.04960 0.50070 -0.12700
H 	H 	0.80160 0.03360 0.42830 0.08200
C 	C 	0.86070 0.99890 0.58980 0.07400
H 	H 	0.83450 0.94680 0.57810 0.01300
N 	N 	0.03530 0.18618 0.86380 -0.18200
N 	N 	0.03370 0.10351 0.00080 -0.24800
N 	N 	0.98660 0.06768 0.90090 -0.20400
N 	N 	0.93450 0.14925 0.62350 -0.12900
N 	N 	0.91520 0.02169 0.69200 -0.21800
O 	O 	0.82900 0.47142 0.61650 -0.29300
O 	O 	0.71570 0.39748 0.72140 -0.42200
O 	O 	0.34390 0.44404 0.67390 -0.40400
O 	O 	0.43210 0.33780 0.73510 -0.34000
Co	Co	0.95150 0.95375 0.84492 1.15100
