data_crystal

_cell_length_a 10.08020
_cell_length_b 17.45100
_cell_length_c 11.51850
_cell_angle_alpha 90.00000
_cell_angle_beta  99.78100
_cell_angle_gamma 90.00000

_symmetry_space_group_name_	'P 1'
_symmetry_space_group_name_H-M	'P 1'

loop_
_symmetry_equiv_pos_as_xyz
  x,y,z

loop_
_atom_site_label
_atom_site_type_symbol
_atom_site_fract_x
_atom_site_fract_y
_atom_site_fract_z
_atom_site_charge
C 	C 	0.34870 0.07830 0.17500 0.29700
C 	C 	0.84950 0.13380 0.20630 0.27900
C 	C 	0.59790 0.10830 0.18970 -0.03600
H 	H 	0.60910 0.06100 0.15190 0.07600
C 	C 	0.47040 0.12900 0.21150 -0.03000
C 	C 	0.70900 0.15600 0.22260 -0.01600
C 	C 	0.45380 0.19840 0.26860 -0.10200
H 	H 	0.36870 0.21230 0.28690 0.07500
C 	C 	0.69160 0.22670 0.27590 -0.10300
H 	H 	0.76570 0.26050 0.29660 0.08600
C 	C 	0.56520 0.24670 0.29810 0.10700
C 	C 	0.64830 0.26480 0.55810 -0.68500
H 	H 	0.74330 0.26180 0.54980 0.23500
H 	H 	0.60450 0.21540 0.53630 0.23700
H 	H 	0.64160 0.27680 0.64000 0.24200
C 	C 	0.58070 0.32580 0.47940 0.29000
C 	C 	0.49280 0.38620 0.31620 0.09500
C 	C 	0.44420 0.41090 0.19530 0.01300
C 	C 	0.43890 0.36710 0.09260 -0.00000
H 	H 	0.47480 0.31660 0.09860 0.04000
C 	C 	0.33430 0.46530 0.98150 0.00400
H 	H 	0.29080 0.48520 0.90800 0.04800
C 	C 	0.34340 0.51120 0.08130 0.01900
H 	H 	0.30900 0.56190 0.07400 0.03200
N 	N 	0.54730 0.31730 0.35950 -0.18100
N 	N 	0.54670 0.39650 0.50820 -0.21600
N 	N 	0.49020 0.43390 0.40490 -0.16300
N 	N 	0.39960 0.48500 0.18740 -0.18500
N 	N 	0.38440 0.39450 0.98520 -0.10200
O 	O 	0.35180 0.02700 0.09820 -0.25700
O 	O 	0.24420 0.09600 0.21520 -0.39000
O 	O 	0.86870 0.06345 0.18200 -0.34100
O 	O 	0.93950 0.18430 0.21610 -0.28300
Cu	Cu	0.43189 0.55000 0.33726 0.91100
C 	C 	0.15130 0.57830 0.32500 0.29800
C 	C 	0.65050 0.63380 0.29370 0.28000
C 	C 	0.90210 0.60830 0.31030 -0.03600
H 	H 	0.89090 0.56100 0.34810 0.07700
C 	C 	0.02960 0.62900 0.28850 -0.02900
C 	C 	0.79100 0.65600 0.27740 -0.01600
C 	C 	0.04620 0.69840 0.23140 -0.09900
H 	H 	0.13130 0.71230 0.21310 0.07600
C 	C 	0.80840 0.72670 0.22410 -0.10200
H 	H 	0.73430 0.76050 0.20340 0.08500
C 	C 	0.93480 0.74670 0.20190 0.10500
C 	C 	0.85170 0.76480 0.94190 -0.68400
H 	H 	0.75670 0.76180 0.95020 0.23500
H 	H 	0.89550 0.71540 0.96370 0.23700
H 	H 	0.85840 0.77680 0.86000 0.24100
C 	C 	0.91930 0.82580 0.02060 0.29000
C 	C 	0.00720 0.88620 0.18380 0.09700
C 	C 	0.05580 0.91090 0.30470 0.01300
C 	C 	0.06110 0.86710 0.40740 0.00100
H 	H 	0.02520 0.81660 0.40140 0.04000
C 	C 	0.16570 0.96530 0.51850 0.01000
H 	H 	0.20920 0.98520 0.59200 0.04600
C 	C 	0.15660 0.01120 0.41870 0.01000
H 	H 	0.19100 0.06190 0.42600 0.03400
N 	N 	0.95270 0.81730 0.14050 -0.18200
N 	N 	0.95330 0.89650 0.99180 -0.21800
N 	N 	0.00980 0.93390 0.09510 -0.16200
N 	N 	0.10040 0.98500 0.31260 -0.18200
N 	N 	0.11560 0.89450 0.51480 -0.10200
O 	O 	0.14820 0.52700 0.40180 -0.25600
O 	O 	0.25580 0.59600 0.28480 -0.39000
O 	O 	0.63130 0.56345 0.31800 -0.34200
O 	O 	0.56050 0.68430 0.28390 -0.28400
Cu	Cu	0.06811 0.05000 0.16274 0.90900
C 	C 	0.65130 0.92170 0.82500 0.29800
C 	C 	0.15050 0.86620 0.79370 0.28000
C 	C 	0.40210 0.89170 0.81030 -0.03500
H 	H 	0.39090 0.93900 0.84810 0.07700
C 	C 	0.52960 0.87100 0.78850 -0.02900
C 	C 	0.29100 0.84400 0.77740 -0.01500
C 	C 	0.54620 0.80160 0.73140 -0.10100
H 	H 	0.63130 0.78770 0.71310 0.07600
C 	C 	0.30840 0.77330 0.72410 -0.10300
H 	H 	0.23430 0.73950 0.70340 0.08600
C 	C 	0.43480 0.75330 0.70190 0.10700
C 	C 	0.35170 0.73520 0.44190 -0.68500
H 	H 	0.25670 0.73820 0.45020 0.23500
H 	H 	0.39550 0.78460 0.46370 0.23700
H 	H 	0.35840 0.72320 0.36000 0.24200
C 	C 	0.41930 0.67420 0.52060 0.29000
C 	C 	0.50720 0.61380 0.68380 0.09500
C 	C 	0.55580 0.58910 0.80470 0.01300
C 	C 	0.56110 0.63290 0.90740 -0.00000
H 	H 	0.52520 0.68340 0.90140 0.04000
C 	C 	0.66570 0.53470 0.01850 0.00400
H 	H 	0.70920 0.51480 0.09200 0.04800
C 	C 	0.65660 0.48880 0.91870 0.01900
H 	H 	0.69100 0.43810 0.92600 0.03200
N 	N 	0.45270 0.68270 0.64050 -0.18100
N 	N 	0.45330 0.60350 0.49180 -0.21600
N 	N 	0.50980 0.56610 0.59510 -0.16300
N 	N 	0.60040 0.51500 0.81260 -0.18500
N 	N 	0.61560 0.60550 0.01480 -0.10200
O 	O 	0.64820 0.97300 0.90180 -0.25700
O 	O 	0.75580 0.90400 0.78480 -0.39000
O 	O 	0.13130 0.93655 0.81800 -0.34100
O 	O 	0.06050 0.81570 0.78390 -0.28300
Cu	Cu	0.56811 0.45000 0.66274 0.91100
C 	C 	0.84870 0.42170 0.67500 0.29800
C 	C 	0.34950 0.36620 0.70630 0.28000
C 	C 	0.09790 0.39170 0.68970 -0.03600
H 	H 	0.10910 0.43900 0.65190 0.07700
C 	C 	0.97040 0.37100 0.71150 -0.02900
C 	C 	0.20900 0.34400 0.72260 -0.01600
C 	C 	0.95380 0.30160 0.76860 -0.09900
H 	H 	0.86870 0.28770 0.78690 0.07600
C 	C 	0.19160 0.27330 0.77590 -0.10200
H 	H 	0.26570 0.23950 0.79660 0.08500
C 	C 	0.06520 0.25330 0.79810 0.10500
C 	C 	0.14830 0.23520 0.05810 -0.68400
H 	H 	0.24330 0.23820 0.04980 0.23500
H 	H 	0.10450 0.28460 0.03630 0.23700
H 	H 	0.14160 0.22320 0.14000 0.24100
C 	C 	0.08070 0.17420 0.97940 0.29000
C 	C 	0.99280 0.11380 0.81620 0.09700
C 	C 	0.94420 0.08910 0.69530 0.01300
C 	C 	0.93890 0.13290 0.59260 0.00100
H 	H 	0.97480 0.18340 0.59860 0.04000
C 	C 	0.83430 0.03470 0.48150 0.01000
H 	H 	0.79080 0.01480 0.40800 0.04600
C 	C 	0.84340 0.98880 0.58130 0.01000
H 	H 	0.80900 0.93810 0.57400 0.03400
N 	N 	0.04730 0.18270 0.85950 -0.18200
N 	N 	0.04670 0.10350 0.00820 -0.21800
N 	N 	0.99020 0.06610 0.90490 -0.16200
N 	N 	0.89960 0.01500 0.68740 -0.18200
N 	N 	0.88440 0.10550 0.48520 -0.10200
O 	O 	0.85180 0.47300 0.59820 -0.25600
O 	O 	0.74420 0.40400 0.71520 -0.39000
O 	O 	0.36870 0.43655 0.68200 -0.34200
O 	O 	0.43950 0.31570 0.71610 -0.28400
Cu	Cu	0.93189 0.95000 0.83726 0.90900
