data_crystal

_cell_length_a 9.84390
_cell_length_b 17.67470
_cell_length_c 11.80510
_cell_angle_alpha 90.00000
_cell_angle_beta  99.45800
_cell_angle_gamma 90.00000

_symmetry_space_group_name_	'P 1'
_symmetry_space_group_name_H-M	'P 1'

loop_
_symmetry_equiv_pos_as_xyz
  x,y,z

loop_
_atom_site_label
_atom_site_type_symbol
_atom_site_fract_x
_atom_site_fract_y
_atom_site_fract_z
_atom_site_charge
C 	C 	0.33090 0.08174 0.18640 0.31500
C 	C 	0.84060 0.13421 0.20770 0.30800
C 	C 	0.58520 0.10904 0.19900 -0.03100
H 	H 	0.59560 0.06200 0.16410 0.07300
C 	C 	0.45640 0.13107 0.22140 -0.03200
C 	C 	0.69810 0.15626 0.22775 -0.02300
C 	C 	0.44080 0.20006 0.27360 -0.10800
H 	H 	0.35480 0.21470 0.29120 0.08000
C 	C 	0.68270 0.22685 0.27710 -0.10600
H 	H 	0.75810 0.25990 0.29490 0.08600
C 	C 	0.55420 0.24704 0.29924 0.11200
C 	C 	0.63410 0.26913 0.54970 -0.82500
H 	H 	0.73070 0.26450 0.54330 0.27900
H 	H 	0.58790 0.22140 0.52930 0.28200
H 	H 	0.62560 0.28220 0.62800 0.28400
C 	C 	0.56990 0.32919 0.47090 0.32900
C 	C 	0.48940 0.38535 0.31020 0.09600
C 	C 	0.44120 0.40637 0.18930 0.00900
C 	C 	0.43620 0.35940 0.09410 -0.00300
H 	H 	0.47140 0.31000 0.10390 0.03900
C 	C 	0.33440 0.45426 0.98040 -0.00200
H 	H 	0.29150 0.47220 0.90840 0.04800
C 	C 	0.34590 0.50236 0.07470 0.02200
H 	H 	0.31500 0.55260 0.06440 0.02900
N 	N 	0.53854 0.31827 0.35518 -0.19300
N 	N 	0.53893 0.39914 0.49532 -0.25900
N 	N 	0.48769 0.43442 0.39303 -0.22000
N 	N 	0.39980 0.47857 0.17860 -0.19400
N 	N 	0.38180 0.38365 0.98860 -0.10300
O 	O 	0.33700 0.02745 0.12120 -0.30200
O 	O 	0.22370 0.10246 0.22271 -0.45400
O 	O 	0.86153 0.06497 0.18856 -0.42800
O 	O 	0.92880 0.18473 0.20870 -0.31000
Zn	Zn	0.44664 0.54765 0.34196 1.20700
C 	C 	0.16910 0.58174 0.31360 0.31400
C 	C 	0.65940 0.63421 0.29230 0.30700
C 	C 	0.91480 0.60904 0.30100 -0.03200
H 	H 	0.90440 0.56200 0.33590 0.07200
C 	C 	0.04360 0.63107 0.27860 -0.03300
C 	C 	0.80190 0.65626 0.27225 -0.02400
C 	C 	0.05920 0.70006 0.22640 -0.10800
H 	H 	0.14520 0.71470 0.20880 0.08100
C 	C 	0.81730 0.72685 0.22290 -0.10600
H 	H 	0.74190 0.75990 0.20510 0.08600
C 	C 	0.94580 0.74704 0.20076 0.11200
C 	C 	0.86590 0.76913 0.95030 -0.83300
H 	H 	0.76930 0.76450 0.95670 0.28000
H 	H 	0.91210 0.72140 0.97070 0.28300
H 	H 	0.87440 0.78220 0.87200 0.28500
C 	C 	0.93010 0.82919 0.02910 0.33300
C 	C 	0.01060 0.88535 0.18980 0.09800
C 	C 	0.05880 0.90637 0.31070 0.00800
C 	C 	0.06380 0.85940 0.40590 0.00000
H 	H 	0.02860 0.81000 0.39610 0.03800
C 	C 	0.16560 0.95426 0.51960 0.00500
H 	H 	0.20850 0.97220 0.59160 0.04600
C 	C 	0.15410 0.00236 0.42530 0.01100
H 	H 	0.18500 0.05260 0.43560 0.03200
N 	N 	0.96146 0.81827 0.14482 -0.19400
N 	N 	0.96107 0.89914 0.00468 -0.26000
N 	N 	0.01231 0.93442 0.10697 -0.21800
N 	N 	0.10020 0.97857 0.32140 -0.19000
N 	N 	0.11820 0.88365 0.51140 -0.10500
O 	O 	0.16300 0.52745 0.37880 -0.30000
O 	O 	0.27630 0.60246 0.27729 -0.45200
O 	O 	0.63847 0.56497 0.31144 -0.43000
O 	O 	0.57120 0.68473 0.29130 -0.31300
Zn	Zn	0.05336 0.04765 0.15804 1.20500
C 	C 	0.66910 0.91826 0.81360 0.31400
C 	C 	0.15940 0.86579 0.79230 0.30700
C 	C 	0.41480 0.89096 0.80100 -0.03200
H 	H 	0.40440 0.93800 0.83590 0.07200
C 	C 	0.54360 0.86893 0.77860 -0.03300
C 	C 	0.30190 0.84374 0.77225 -0.02400
C 	C 	0.55920 0.79994 0.72640 -0.10800
H 	H 	0.64520 0.78530 0.70880 0.08000
C 	C 	0.31730 0.77315 0.72290 -0.10600
H 	H 	0.24190 0.74010 0.70510 0.08600
C 	C 	0.44580 0.75296 0.70076 0.11200
C 	C 	0.36590 0.73087 0.45030 -0.82500
H 	H 	0.26930 0.73550 0.45670 0.27900
H 	H 	0.41210 0.77860 0.47070 0.28200
H 	H 	0.37440 0.71780 0.37200 0.28400
C 	C 	0.43010 0.67081 0.52910 0.32900
C 	C 	0.51060 0.61465 0.68980 0.09600
C 	C 	0.55880 0.59363 0.81070 0.00900
C 	C 	0.56380 0.64060 0.90590 -0.00300
H 	H 	0.52860 0.69000 0.89610 0.03900
C 	C 	0.66560 0.54574 0.01960 -0.00200
H 	H 	0.70850 0.52780 0.09160 0.04800
C 	C 	0.65410 0.49764 0.92530 0.02200
H 	H 	0.68500 0.44740 0.93560 0.02900
N 	N 	0.46146 0.68173 0.64482 -0.19300
N 	N 	0.46107 0.60086 0.50468 -0.25900
N 	N 	0.51231 0.56558 0.60697 -0.22000
N 	N 	0.60020 0.52143 0.82140 -0.19400
N 	N 	0.61820 0.61635 0.01140 -0.10300
O 	O 	0.66300 0.97255 0.87880 -0.30200
O 	O 	0.77630 0.89754 0.77729 -0.45400
O 	O 	0.13847 0.93503 0.81144 -0.42800
O 	O 	0.07120 0.81527 0.79130 -0.31000
Zn	Zn	0.55336 0.45235 0.65804 1.20700
C 	C 	0.83090 0.41826 0.68640 0.31400
C 	C 	0.34060 0.36579 0.70770 0.30700
C 	C 	0.08520 0.39096 0.69900 -0.03200
H 	H 	0.09560 0.43800 0.66410 0.07200
C 	C 	0.95640 0.36893 0.72140 -0.03300
C 	C 	0.19810 0.34374 0.72775 -0.02400
C 	C 	0.94080 0.29994 0.77360 -0.10800
H 	H 	0.85480 0.28530 0.79120 0.08100
C 	C 	0.18270 0.27315 0.77710 -0.10600
H 	H 	0.25810 0.24010 0.79490 0.08600
C 	C 	0.05420 0.25296 0.79924 0.11200
C 	C 	0.13410 0.23087 0.04970 -0.83300
H 	H 	0.23070 0.23550 0.04330 0.28000
H 	H 	0.08790 0.27860 0.02930 0.28300
H 	H 	0.12560 0.21780 0.12800 0.28500
C 	C 	0.06990 0.17081 0.97090 0.33300
C 	C 	0.98940 0.11465 0.81020 0.09800
C 	C 	0.94120 0.09363 0.68930 0.00800
C 	C 	0.93620 0.14060 0.59410 0.00000
H 	H 	0.97140 0.19000 0.60390 0.03800
C 	C 	0.83440 0.04574 0.48040 0.00500
H 	H 	0.79150 0.02780 0.40840 0.04600
C 	C 	0.84590 0.99764 0.57470 0.01100
H 	H 	0.81500 0.94740 0.56440 0.03200
N 	N 	0.03854 0.18173 0.85518 -0.19400
N 	N 	0.03893 0.10086 0.99532 -0.26000
N 	N 	0.98769 0.06558 0.89303 -0.21800
N 	N 	0.89980 0.02143 0.67860 -0.19000
N 	N 	0.88180 0.11635 0.48860 -0.10500
O 	O 	0.83700 0.47255 0.62120 -0.30000
O 	O 	0.72370 0.39754 0.72271 -0.45200
O 	O 	0.36153 0.43503 0.68856 -0.43000
O 	O 	0.42880 0.31527 0.70870 -0.31300
Zn	Zn	0.94664 0.95235 0.84196 1.20500
