data_crystal

_cell_length_a 9.96020
_cell_length_b 17.00860
_cell_length_c 12.22790
_cell_angle_alpha 90.00000
_cell_angle_beta  96.94700
_cell_angle_gamma 90.00000

_symmetry_space_group_name_	'P 1'
_symmetry_space_group_name_H-M	'P 1'

loop_
_symmetry_equiv_pos_as_xyz
  x,y,z

loop_
_atom_site_label
_atom_site_type_symbol
_atom_site_fract_x
_atom_site_fract_y
_atom_site_fract_z
_atom_site_charge
C 	C 	0.33490 0.05740 0.21740 0.31400
C 	C 	0.83310 0.11700 0.23860 0.27600
C 	C 	0.58300 0.08830 0.23390 -0.03100
H 	H 	0.59700 0.03860 0.20140 0.06700
C 	C 	0.45360 0.11090 0.25360 -0.03200
C 	C 	0.69300 0.13940 0.26240 -0.02400
C 	C 	0.43200 0.18240 0.30180 -0.09400
H 	H 	0.34330 0.19790 0.31380 0.07800
C 	C 	0.67240 0.21110 0.31160 -0.09900
H 	H 	0.74580 0.24600 0.33090 0.08200
C 	C 	0.54170 0.23110 0.33250 0.11200
C 	C 	0.59280 0.25570 0.58030 -0.71300
H 	H 	0.69170 0.25650 0.59460 0.25000
H 	H 	0.56270 0.20390 0.55190 0.24400
H 	H 	0.55440 0.26620 0.64900 0.24600
C 	C 	0.54690 0.31660 0.49830 0.30000
C 	C 	0.48010 0.37600 0.34310 0.08100
C 	C 	0.44240 0.39720 0.22690 0.09500
C 	C 	0.38450 0.36710 0.04760 0.07200
H 	H 	0.37430 0.32980 0.98940 0.02200
C 	C 	0.35830 0.44490 0.02350 -0.13500
H 	H 	0.32480 0.46120 0.95100 0.08500
C 	C 	0.38220 0.49840 0.10780 0.08900
H 	H 	0.36690 0.55270 0.09310 0.00700
N 	N 	0.52050 0.30412 0.38750 -0.18100
N 	N 	0.52210 0.39128 0.51940 -0.22100
N 	N 	0.47950 0.42836 0.42090 -0.15700
N 	N 	0.42680 0.47502 0.21070 -0.21400
N 	N 	0.42440 0.34190 0.15110 -0.13100
O 	O 	0.35220 0.98500 0.21580 -0.26000
O 	O 	0.22410 0.09235 0.19290 -0.39400
O 	O 	0.84380 0.05952 0.17230 -0.35100
O 	O 	0.93200 0.15455 0.28370 -0.29600
Cu	Cu	0.45556 0.54850 0.34140 0.91400
C 	C 	0.16510 0.55740 0.28260 0.31800
C 	C 	0.66690 0.61700 0.26140 0.27700
C 	C 	0.91700 0.58830 0.26610 -0.03000
H 	H 	0.90300 0.53860 0.29860 0.06800
C 	C 	0.04640 0.61090 0.24640 -0.03300
C 	C 	0.80700 0.63940 0.23760 -0.02500
C 	C 	0.06800 0.68240 0.19820 -0.09000
H 	H 	0.15670 0.69790 0.18620 0.07800
C 	C 	0.82760 0.71110 0.18840 -0.09800
H 	H 	0.75420 0.74600 0.16910 0.08100
C 	C 	0.95830 0.73110 0.16750 0.10900
C 	C 	0.90720 0.75570 0.91970 -0.71300
H 	H 	0.80830 0.75650 0.90540 0.24900
H 	H 	0.93730 0.70390 0.94810 0.24300
H 	H 	0.94560 0.76620 0.85100 0.24500
C 	C 	0.95310 0.81660 0.00170 0.30000
C 	C 	0.01990 0.87600 0.15690 0.08300
C 	C 	0.05760 0.89720 0.27310 0.09500
C 	C 	0.11550 0.86710 0.45240 0.07500
H 	H 	0.12570 0.82980 0.51060 0.02100
C 	C 	0.14170 0.94490 0.47650 -0.14000
H 	H 	0.17520 0.96120 0.54900 0.08700
C 	C 	0.11780 0.99840 0.39220 0.09800
H 	H 	0.13310 0.05270 0.40690 0.00100
N 	N 	0.97950 0.80412 0.11250 -0.18200
N 	N 	0.97790 0.89128 0.98060 -0.22400
N 	N 	0.02050 0.92836 0.07910 -0.15500
N 	N 	0.07320 0.97502 0.28930 -0.21400
N 	N 	0.07560 0.84190 0.34890 -0.13100
O 	O 	0.14780 0.48500 0.28420 -0.26300
O 	O 	0.27590 0.59235 0.30710 -0.39400
O 	O 	0.65620 0.55952 0.32770 -0.35200
O 	O 	0.56800 0.65455 0.21630 -0.29800
Cu	Cu	0.04444 0.04850 0.15860 0.91100
C 	C 	0.66510 0.94260 0.78260 0.31500
C 	C 	0.16690 0.88300 0.76140 0.27700
C 	C 	0.41700 0.91170 0.76610 -0.03000
H 	H 	0.40300 0.96140 0.79860 0.06800
C 	C 	0.54640 0.88910 0.74640 -0.03200
C 	C 	0.30700 0.86060 0.73760 -0.02400
C 	C 	0.56800 0.81760 0.69820 -0.09400
H 	H 	0.65670 0.80210 0.68620 0.07800
C 	C 	0.32760 0.78890 0.68840 -0.09900
H 	H 	0.25420 0.75400 0.66910 0.08200
C 	C 	0.45830 0.76890 0.66750 0.11200
C 	C 	0.40720 0.74430 0.41970 -0.71300
H 	H 	0.30830 0.74350 0.40540 0.25000
H 	H 	0.43730 0.79610 0.44810 0.24400
H 	H 	0.44560 0.73380 0.35100 0.24600
C 	C 	0.45310 0.68340 0.50170 0.30000
C 	C 	0.51990 0.62400 0.65690 0.08100
C 	C 	0.55760 0.60280 0.77310 0.09500
C 	C 	0.61550 0.63290 0.95240 0.07200
H 	H 	0.62570 0.67020 0.01060 0.02200
C 	C 	0.64170 0.55510 0.97650 -0.13500
H 	H 	0.67520 0.53880 0.04900 0.08500
C 	C 	0.61780 0.50160 0.89220 0.08900
H 	H 	0.63310 0.44730 0.90690 0.00700
N 	N 	0.47950 0.69588 0.61250 -0.18100
N 	N 	0.47790 0.60872 0.48060 -0.22100
N 	N 	0.52050 0.57164 0.57910 -0.15700
N 	N 	0.57320 0.52498 0.78930 -0.21400
N 	N 	0.57560 0.65810 0.84890 -0.13100
O 	O 	0.64780 0.01500 0.78420 -0.26000
O 	O 	0.77590 0.90765 0.80710 -0.39400
O 	O 	0.15620 0.94048 0.82770 -0.35100
O 	O 	0.06800 0.84545 0.71630 -0.29600
Cu	Cu	0.54444 0.45150 0.65860 0.91400
C 	C 	0.83490 0.44260 0.71740 0.31800
C 	C 	0.33310 0.38300 0.73860 0.27700
C 	C 	0.08300 0.41170 0.73390 -0.03000
H 	H 	0.09700 0.46140 0.70140 0.06800
C 	C 	0.95360 0.38910 0.75360 -0.03300
C 	C 	0.19300 0.36060 0.76240 -0.02500
C 	C 	0.93200 0.31760 0.80180 -0.09000
H 	H 	0.84330 0.30210 0.81380 0.07800
C 	C 	0.17240 0.28890 0.81160 -0.09800
H 	H 	0.24580 0.25400 0.83090 0.08100
C 	C 	0.04170 0.26890 0.83250 0.10900
C 	C 	0.09280 0.24430 0.08030 -0.71300
H 	H 	0.19170 0.24350 0.09460 0.24900
H 	H 	0.06270 0.29610 0.05190 0.24300
H 	H 	0.05440 0.23380 0.14900 0.24500
C 	C 	0.04690 0.18340 0.99830 0.30000
C 	C 	0.98010 0.12400 0.84310 0.08300
C 	C 	0.94240 0.10280 0.72690 0.09500
C 	C 	0.88450 0.13290 0.54760 0.07500
H 	H 	0.87430 0.17020 0.48940 0.02100
C 	C 	0.85830 0.05510 0.52350 -0.14000
H 	H 	0.82480 0.03880 0.45100 0.08700
C 	C 	0.88220 0.00160 0.60780 0.09800
H 	H 	0.86690 0.94730 0.59310 0.00100
N 	N 	0.02050 0.19588 0.88750 -0.18200
N 	N 	0.02210 0.10872 0.01940 -0.22400
N 	N 	0.97950 0.07164 0.92090 -0.15500
N 	N 	0.92680 0.02498 0.71070 -0.21400
N 	N 	0.92440 0.15810 0.65110 -0.13100
O 	O 	0.85220 0.51500 0.71580 -0.26300
O 	O 	0.72410 0.40765 0.69290 -0.39400
O 	O 	0.34380 0.44048 0.67230 -0.35200
O 	O 	0.43200 0.34545 0.78370 -0.29800
Cu	Cu	0.95556 0.95150 0.84140 0.91100
