data_crystal

_cell_length_a 9.99770
_cell_length_b 18.28870
_cell_length_c 12.00820
_cell_angle_alpha 90.00000
_cell_angle_beta  100.58100
_cell_angle_gamma 90.00000

_symmetry_space_group_name_	'P 1'
_symmetry_space_group_name_H-M	'P 1'

loop_
_symmetry_equiv_pos_as_xyz
  x,y,z

loop_
_atom_site_label
_atom_site_type_symbol
_atom_site_fract_x
_atom_site_fract_y
_atom_site_fract_z
_atom_site_charge
C 	C 	0.32020 0.09008 0.22740 0.28400
C 	C 	0.81560 0.12515 0.20400 0.29000
C 	C 	0.56870 0.10872 0.21840 -0.03400
H 	H 	0.57210 0.06050 0.18960 0.07000
C 	C 	0.44860 0.13466 0.24660 -0.02800
C 	C 	0.68450 0.15299 0.23200 -0.02500
C 	C 	0.44360 0.20479 0.29040 -0.10600
H 	H 	0.36240 0.22280 0.31100 0.08100
C 	C 	0.68000 0.22366 0.27490 -0.10000
H 	H 	0.75780 0.25440 0.28430 0.08400
C 	C 	0.55960 0.24788 0.30340 0.10800
C 	C 	0.63930 0.27080 0.55110 -0.69200
H 	H 	0.73250 0.25970 0.54190 0.23600
H 	H 	0.58320 0.22660 0.53650 0.23800
H 	H 	0.63980 0.28780 0.62850 0.23100
C 	C 	0.58210 0.32882 0.46960 0.28600
C 	C 	0.50540 0.38354 0.30930 0.09400
C 	C 	0.45640 0.40258 0.18950 0.01100
C 	C 	0.44990 0.35548 0.09770 -0.00000
H 	H 	0.48740 0.30780 0.10990 0.03900
C 	C 	0.34230 0.44296 0.97930 0.00200
H 	H 	0.29690 0.45820 0.90650 0.04600
C 	C 	0.35480 0.49182 0.06960 0.01300
H 	H 	0.32160 0.54030 0.05660 0.03000
N 	N 	0.55334 0.31873 0.35521 -0.18400
N 	N 	0.55290 0.39676 0.49243 -0.24400
N 	N 	0.50460 0.43132 0.39130 -0.20200
N 	N 	0.41240 0.47159 0.17374 -0.19100
N 	N 	0.39230 0.37552 0.99250 -0.10500
O 	O 	0.31550 0.03037 0.17620 -0.32700
O 	O 	0.21881 0.11744 0.26132 -0.40200
O 	O 	0.82620 0.05757 0.18712 -0.38600
O 	O 	0.91079 0.16877 0.19945 -0.33200
Cd	Cd	0.45215 0.55175 0.33413 1.21600
C 	C 	0.17980 0.59008 0.27260 0.28200
C 	C 	0.68440 0.62515 0.29600 0.29000
C 	C 	0.93130 0.60872 0.28160 -0.03200
H 	H 	0.92790 0.56050 0.31040 0.07000
C 	C 	0.05140 0.63466 0.25340 -0.02900
C 	C 	0.81550 0.65299 0.26800 -0.02600
C 	C 	0.05640 0.70479 0.20960 -0.10700
H 	H 	0.13760 0.72280 0.18900 0.08100
C 	C 	0.82000 0.72366 0.22510 -0.10000
H 	H 	0.74220 0.75440 0.21570 0.08400
C 	C 	0.94040 0.74788 0.19660 0.11000
C 	C 	0.86070 0.77080 0.94890 -0.70100
H 	H 	0.76750 0.75970 0.95810 0.23700
H 	H 	0.91680 0.72660 0.96350 0.23900
H 	H 	0.86020 0.78780 0.87150 0.23200
C 	C 	0.91790 0.82882 0.03040 0.29100
C 	C 	0.99460 0.88354 0.19070 0.09400
C 	C 	0.04360 0.90258 0.31050 0.01100
C 	C 	0.05010 0.85548 0.40230 0.00100
H 	H 	0.01260 0.80780 0.39010 0.03900
C 	C 	0.15770 0.94296 0.52070 -0.00300
H 	H 	0.20310 0.95820 0.59350 0.04700
C 	C 	0.14520 0.99182 0.43040 0.02200
H 	H 	0.17840 0.04030 0.44340 0.02600
N 	N 	0.94666 0.81873 0.14479 -0.18500
N 	N 	0.94710 0.89676 0.00757 -0.24400
N 	N 	0.99540 0.93132 0.10870 -0.20100
N 	N 	0.08760 0.97159 0.32626 -0.19200
N 	N 	0.10770 0.87552 0.50750 -0.10400
O 	O 	0.18450 0.53037 0.32380 -0.32500
O 	O 	0.28119 0.61744 0.23868 -0.40000
O 	O 	0.67380 0.55757 0.31288 -0.38700
O 	O 	0.58921 0.66877 0.30055 -0.33400
Cd	Cd	0.04785 0.05175 0.16587 1.21400
C 	C 	0.67980 0.90992 0.77260 0.28300
C 	C 	0.18440 0.87485 0.79600 0.28900
C 	C 	0.43130 0.89128 0.78160 -0.03400
H 	H 	0.42790 0.93950 0.81040 0.07000
C 	C 	0.55140 0.86534 0.75340 -0.02800
C 	C 	0.31550 0.84701 0.76800 -0.02500
C 	C 	0.55640 0.79521 0.70960 -0.10600
H 	H 	0.63760 0.77720 0.68900 0.08100
C 	C 	0.32000 0.77634 0.72510 -0.10000
H 	H 	0.24220 0.74560 0.71570 0.08400
C 	C 	0.44040 0.75212 0.69660 0.10800
C 	C 	0.36070 0.72920 0.44890 -0.69200
H 	H 	0.26750 0.74030 0.45810 0.23600
H 	H 	0.41680 0.77340 0.46350 0.23800
H 	H 	0.36020 0.71220 0.37150 0.23100
C 	C 	0.41790 0.67118 0.53040 0.28600
C 	C 	0.49460 0.61646 0.69070 0.09400
C 	C 	0.54360 0.59742 0.81050 0.01100
C 	C 	0.55010 0.64452 0.90230 -0.00000
H 	H 	0.51260 0.69220 0.89010 0.03900
C 	C 	0.65770 0.55704 0.02070 0.00200
H 	H 	0.70310 0.54180 0.09350 0.04600
C 	C 	0.64520 0.50818 0.93040 0.01300
H 	H 	0.67840 0.45970 0.94340 0.03000
N 	N 	0.44666 0.68127 0.64479 -0.18400
N 	N 	0.44710 0.60324 0.50757 -0.24400
N 	N 	0.49540 0.56868 0.60870 -0.20200
N 	N 	0.58760 0.52841 0.82626 -0.19100
N 	N 	0.60770 0.62448 0.00750 -0.10500
O 	O 	0.68450 0.96963 0.82380 -0.32700
O 	O 	0.78119 0.88256 0.73868 -0.40200
O 	O 	0.17380 0.94243 0.81288 -0.38600
O 	O 	0.08921 0.83123 0.80055 -0.33200
Cd	Cd	0.54785 0.44825 0.66587 1.21600
C 	C 	0.82020 0.40992 0.72740 0.28200
C 	C 	0.31560 0.37485 0.70400 0.29000
C 	C 	0.06870 0.39128 0.71840 -0.03200
H 	H 	0.07210 0.43950 0.68960 0.07000
C 	C 	0.94860 0.36534 0.74660 -0.02900
C 	C 	0.18450 0.34701 0.73200 -0.02600
C 	C 	0.94360 0.29521 0.79040 -0.10700
H 	H 	0.86240 0.27720 0.81100 0.08100
C 	C 	0.18000 0.27634 0.77490 -0.10000
H 	H 	0.25780 0.24560 0.78430 0.08400
C 	C 	0.05960 0.25212 0.80340 0.11000
C 	C 	0.13930 0.22920 0.05110 -0.70100
H 	H 	0.23250 0.24030 0.04190 0.23700
H 	H 	0.08320 0.27340 0.03650 0.23900
H 	H 	0.13980 0.21220 0.12850 0.23200
C 	C 	0.08210 0.17118 0.96960 0.29100
C 	C 	0.00540 0.11646 0.80930 0.09400
C 	C 	0.95640 0.09742 0.68950 0.01100
C 	C 	0.94990 0.14452 0.59770 0.00100
H 	H 	0.98740 0.19220 0.60990 0.03900
C 	C 	0.84230 0.05704 0.47930 -0.00300
H 	H 	0.79690 0.04180 0.40650 0.04700
C 	C 	0.85480 0.00818 0.56960 0.02200
H 	H 	0.82160 0.95970 0.55660 0.02600
N 	N 	0.05334 0.18127 0.85521 -0.18500
N 	N 	0.05290 0.10324 0.99243 -0.24400
N 	N 	0.00460 0.06868 0.89130 -0.20100
N 	N 	0.91240 0.02841 0.67374 -0.19200
N 	N 	0.89230 0.12448 0.49250 -0.10400
O 	O 	0.81550 0.46963 0.67620 -0.32500
O 	O 	0.71881 0.38256 0.76132 -0.40000
O 	O 	0.32620 0.44243 0.68712 -0.38700
O 	O 	0.41079 0.33123 0.69945 -0.33400
Cd	Cd	0.95215 0.94825 0.83413 1.21400
