data_crystal

_cell_length_a 14.31420
_cell_length_b 10.02770
_cell_length_c 10.49170
_cell_angle_alpha 90.00000
_cell_angle_beta  94.10200
_cell_angle_gamma 90.00000

_symmetry_space_group_name_	'P 1'
_symmetry_space_group_name_H-M	'P 1'

loop_
_symmetry_equiv_pos_as_xyz
  x,y,z

loop_
_atom_site_label
_atom_site_type_symbol
_atom_site_fract_x
_atom_site_fract_y
_atom_site_fract_z
_atom_site_charge
Zn	Zn	0.54564 0.87381 0.14422 1.24100
Zn	Zn	0.95654 0.86625 0.10163 1.23900
P 	P 	0.51022 0.19285 0.13423 0.60200
P 	P 	0.74004 0.97354 0.04200 0.57400
P 	P 	0.00657 0.82839 0.82680 0.57800
O 	O 	0.60720 0.22250 0.20870 -0.66100
O 	O 	0.48340 0.04700 0.15580 -0.47800
O 	O 	0.51920 0.22410 0.99410 -0.43500
O 	O 	0.43980 0.28520 0.19150 -0.40500
O 	O 	0.69990 0.02350 0.90580 -0.49900
O 	O 	0.74770 0.09450 0.13130 -0.30900
O 	O 	0.67200 0.87080 0.08880 -0.43300
O 	O 	0.83440 0.91260 0.02260 -0.42200
O 	O 	0.10310 0.79980 0.76710 -0.53300
O 	O 	0.01810 0.77440 0.96440 -0.40800
O 	O 	0.98560 0.97670 0.82320 -0.44400
O 	O 	0.93410 0.75190 0.74290 -0.39600
H 	H 	0.64500 0.19000 0.18000 0.46900
H 	H 	0.64900 0.00700 0.89000 0.34100
H 	H 	0.14900 0.82500 0.80400 0.37500
Zn	Zn	0.45436 0.37381 0.35578 1.24300
Zn	Zn	0.04346 0.36625 0.39837 1.24300
P 	P 	0.48978 0.69285 0.36577 0.59900
P 	P 	0.25996 0.47354 0.45800 0.58500
P 	P 	0.99343 0.32839 0.67320 0.58200
O 	O 	0.39280 0.72250 0.29130 -0.66000
O 	O 	0.51660 0.54700 0.34420 -0.48100
O 	O 	0.48080 0.72410 0.50590 -0.43000
O 	O 	0.56020 0.78520 0.30850 -0.40600
O 	O 	0.30010 0.52350 0.59420 -0.50100
O 	O 	0.25230 0.59450 0.36870 -0.31500
O 	O 	0.32800 0.37080 0.41120 -0.43200
O 	O 	0.16560 0.41260 0.47740 -0.41800
O 	O 	0.89690 0.29980 0.73290 -0.53400
O 	O 	0.98190 0.27440 0.53560 -0.41000
O 	O 	0.01440 0.47670 0.67680 -0.45000
O 	O 	0.06590 0.25190 0.75710 -0.40100
H 	H 	0.35500 0.69000 0.32000 0.46800
H 	H 	0.35100 0.50700 0.61000 0.34400
H 	H 	0.85100 0.32500 0.69600 0.37400
Zn	Zn	0.45436 0.12619 0.85578 1.24200
Zn	Zn	0.04346 0.13375 0.89837 1.24000
P 	P 	0.48978 0.80715 0.86577 0.60300
P 	P 	0.25996 0.02646 0.95800 0.57500
P 	P 	0.99343 0.17161 0.17320 0.57900
O 	O 	0.39280 0.77750 0.79130 -0.66000
O 	O 	0.51660 0.95300 0.84420 -0.47700
O 	O 	0.48080 0.77590 0.00590 -0.43400
O 	O 	0.56020 0.71480 0.80850 -0.40500
O 	O 	0.30010 0.97650 0.09420 -0.49900
O 	O 	0.25230 0.90550 0.86870 -0.30900
O 	O 	0.32800 0.12920 0.91120 -0.43300
O 	O 	0.16560 0.08740 0.97740 -0.42200
O 	O 	0.89690 0.20020 0.23290 -0.53300
O 	O 	0.98190 0.22560 0.03560 -0.40800
O 	O 	0.01440 0.02330 0.17680 -0.44400
O 	O 	0.06590 0.24810 0.25710 -0.39600
H 	H 	0.35500 0.81000 0.82000 0.46900
H 	H 	0.35100 0.99300 0.11000 0.34100
H 	H 	0.85100 0.17500 0.19600 0.37500
Zn	Zn	0.54564 0.62619 0.64422 1.24300
Zn	Zn	0.95654 0.63375 0.60163 1.24300
P 	P 	0.51022 0.30715 0.63423 0.59900
P 	P 	0.74004 0.52646 0.54200 0.58500
P 	P 	0.00657 0.67161 0.32680 0.58200
O 	O 	0.60720 0.27750 0.70870 -0.66000
O 	O 	0.48340 0.45300 0.65580 -0.48100
O 	O 	0.51920 0.27590 0.49410 -0.43000
O 	O 	0.43980 0.21480 0.69150 -0.40600
O 	O 	0.69990 0.47650 0.40580 -0.50100
O 	O 	0.74770 0.40550 0.63130 -0.31500
O 	O 	0.67200 0.62920 0.58880 -0.43200
O 	O 	0.83440 0.58740 0.52260 -0.41800
O 	O 	0.10310 0.70020 0.26710 -0.53400
O 	O 	0.01810 0.72560 0.46440 -0.41000
O 	O 	0.98560 0.52330 0.32320 -0.45000
O 	O 	0.93410 0.74810 0.24290 -0.40100
H 	H 	0.64500 0.31000 0.68000 0.46800
H 	H 	0.64900 0.49300 0.39000 0.34400
H 	H 	0.14900 0.67500 0.30400 0.37400
