data_crystal

_cell_length_a 10.54000
_cell_length_b 10.05000
_cell_length_c 14.37000
_cell_angle_alpha 90.00000
_cell_angle_beta  90.00000
_cell_angle_gamma 90.00000

_symmetry_space_group_name_	'P 1'
_symmetry_space_group_name_H-M	'P 1'

loop_
_symmetry_equiv_pos_as_xyz
  x,y,z

loop_
_atom_site_label
_atom_site_type_symbol
_atom_site_fract_x
_atom_site_fract_y
_atom_site_fract_z
_atom_site_charge
Zn	Zn	0.40961 0.62734 0.55240 1.24600
Zn	Zn	0.15272 0.13170 0.46357 1.24000
P 	P 	0.18500 0.81290 0.49620 0.54400
P 	P 	0.37520 0.32290 0.51120 0.50900
P 	P 	0.04820 0.02200 0.26640 0.51500
O 	O 	0.36880 0.46810 0.48160 -0.42600
O 	O 	0.26080 0.73600 0.56710 -0.40800
O 	O 	0.08720 0.12880 0.33590 -0.39700
O 	O 	0.20520 0.96050 0.50910 -0.44000
O 	O 	0.30610 0.23420 0.44230 -0.39200
O 	O 	0.04510 0.77510 0.49570 -0.41100
O 	O 	0.51150 0.27870 0.52790 -0.39900
O 	O 	0.02320 0.08060 0.17210 -0.41700
O 	O 	0.14390 0.90770 0.25980 -0.18500
O 	O 	0.23920 0.77160 0.39770 -0.19300
O 	O 	0.91880 0.96250 0.30230 -0.17800
O 	O 	0.30120 0.30370 0.60690 -0.21000
Zn	Zn	0.59039 0.37266 0.05240 1.24900
Zn	Zn	0.84728 0.86830 0.96357 1.23600
P 	P 	0.81500 0.18710 0.99620 0.53200
P 	P 	0.62480 0.67710 0.01120 0.52500
P 	P 	0.95180 0.97800 0.76640 0.51400
O 	O 	0.63120 0.53190 0.98160 -0.43600
O 	O 	0.73920 0.26400 0.06710 -0.40000
O 	O 	0.91280 0.87120 0.83590 -0.40000
O 	O 	0.79480 0.03950 0.00910 -0.43100
O 	O 	0.69390 0.76580 0.94230 -0.40100
O 	O 	0.95490 0.22490 0.99570 -0.41500
O 	O 	0.48850 0.72130 0.02790 -0.39700
O 	O 	0.97680 0.91940 0.67210 -0.41700
O 	O 	0.85610 0.09230 0.75980 -0.18600
O 	O 	0.76080 0.22840 0.89770 -0.19300
O 	O 	0.08120 0.03750 0.80230 -0.17800
O 	O 	0.69880 0.69630 0.10690 -0.20800
Zn	Zn	0.90961 0.87266 0.55240 1.24500
Zn	Zn	0.65272 0.36830 0.46357 1.24200
P 	P 	0.68500 0.68710 0.49620 0.54300
P 	P 	0.87520 0.17710 0.51120 0.51200
P 	P 	0.54820 0.47800 0.26640 0.52500
O 	O 	0.86880 0.03190 0.48160 -0.42300
O 	O 	0.76080 0.76400 0.56710 -0.41000
O 	O 	0.58720 0.37120 0.33590 -0.39600
O 	O 	0.70520 0.53950 0.50910 -0.44400
O 	O 	0.80610 0.26580 0.44230 -0.39000
O 	O 	0.54510 0.72490 0.49570 -0.41400
O 	O 	0.01150 0.22130 0.52790 -0.40300
O 	O 	0.52320 0.41940 0.17210 -0.41300
O 	O 	0.64390 0.59230 0.25980 -0.19100
O 	O 	0.73920 0.72840 0.39770 -0.19400
O 	O 	0.41880 0.53750 0.30230 -0.17900
O 	O 	0.80120 0.19630 0.60690 -0.20900
Zn	Zn	0.09039 0.12734 0.05240 1.24600
Zn	Zn	0.34728 0.63170 0.96357 1.24000
P 	P 	0.31500 0.31290 0.99620 0.53900
P 	P 	0.12480 0.82290 0.01120 0.51800
P 	P 	0.45180 0.52200 0.76640 0.52500
O 	O 	0.13120 0.96810 0.98160 -0.42700
O 	O 	0.23920 0.23600 0.06710 -0.40700
O 	O 	0.41280 0.62880 0.83590 -0.39700
O 	O 	0.29480 0.46050 0.00910 -0.43800
O 	O 	0.19390 0.73420 0.94230 -0.39400
O 	O 	0.45490 0.27510 0.99570 -0.41600
O 	O 	0.98850 0.77870 0.02790 -0.39500
O 	O 	0.47680 0.58060 0.67210 -0.41400
O 	O 	0.35610 0.40770 0.75980 -0.19200
O 	O 	0.26080 0.27160 0.89770 -0.19300
O 	O 	0.58120 0.46250 0.80230 -0.18000
O 	O 	0.19880 0.80370 0.10690 -0.20800
