data_crystal

_cell_length_a 20.23130
_cell_length_b 20.23130
_cell_length_c 20.23130
_cell_angle_alpha 90.00000
_cell_angle_beta  90.00000
_cell_angle_gamma 90.00000

_symmetry_space_group_name_	'P 1'
_symmetry_space_group_name_H-M	'P 1'

loop_
_symmetry_equiv_pos_as_xyz
  x,y,z

loop_
_atom_site_label
_atom_site_type_symbol
_atom_site_fract_x
_atom_site_fract_y
_atom_site_fract_z
_atom_site_charge
N 	N 	0.27500 0.51800 0.32700 -0.15200
N 	N 	0.37200 0.41700 0.32600 -0.19500
N 	N 	0.45400 0.41000 0.21900 -0.15800
C 	C 	0.27200 0.46300 0.36800 0.04800
C 	C 	0.22500 0.56500 0.32800 0.06200
C 	C 	0.32800 0.41700 0.37100 0.10500
C 	C 	0.50100 0.41100 0.16800 0.05600
C 	C 	0.17100 0.55600 0.37000 -0.12300
H 	H 	0.22700 0.60150 0.30080 0.00800
H 	H 	0.49540 0.43950 0.13240 0.00300
H 	H 	0.13760 0.58730 0.37110 0.07300
N 	N 	0.77500 0.01800 0.82700 -0.16200
N 	N 	0.87200 0.91700 0.82600 -0.18800
N 	N 	0.95400 0.91000 0.71900 -0.13100
C 	C 	0.77200 0.96300 0.86800 0.07100
C 	C 	0.72500 0.06500 0.82800 0.03600
C 	C 	0.82800 0.91700 0.87100 0.10800
C 	C 	0.00100 0.91100 0.66800 -0.03700
C 	C 	0.67100 0.05600 0.87000 -0.07400
H 	H 	0.72700 0.10150 0.80080 0.01700
H 	H 	0.99540 0.93950 0.63240 0.06400
H 	H 	0.63760 0.08730 0.87110 0.05600
N 	N 	0.22500 0.48200 0.82700 -0.15300
N 	N 	0.12800 0.58300 0.82600 -0.19600
N 	N 	0.04600 0.59000 0.71900 -0.18100
C 	C 	0.22800 0.53700 0.86800 0.04900
C 	C 	0.27500 0.43500 0.82800 0.06300
C 	C 	0.17200 0.58300 0.87100 0.10500
C 	C 	0.99900 0.58900 0.66800 0.15200
C 	C 	0.32900 0.44400 0.87000 -0.12200
H 	H 	0.27300 0.39850 0.80080 0.00800
H 	H 	0.00460 0.56050 0.63240 -0.04800
H 	H 	0.36240 0.41270 0.87110 0.07600
N 	N 	0.72500 0.98200 0.32700 -0.14000
N 	N 	0.62800 0.08300 0.32600 -0.19900
N 	N 	0.54600 0.09000 0.21900 -0.16200
C 	C 	0.72800 0.03700 0.36800 0.02700
C 	C 	0.77500 0.93500 0.32800 0.09100
C 	C 	0.67200 0.08300 0.37100 0.10600
C 	C 	0.49900 0.08900 0.16800 0.05300
C 	C 	0.82900 0.94400 0.37000 -0.17100
H 	H 	0.77300 0.89850 0.30080 -0.00000
H 	H 	0.50460 0.06050 0.13240 -0.00400
H 	H 	0.86240 0.91270 0.37110 0.09700
N 	N 	0.72500 0.01800 0.17300 -0.16400
N 	N 	0.62800 0.91700 0.17400 -0.18900
N 	N 	0.54600 0.91000 0.28100 -0.15400
C 	C 	0.72800 0.96300 0.13200 0.06600
C 	C 	0.77500 0.06500 0.17200 0.03200
C 	C 	0.67200 0.91700 0.12900 0.10200
C 	C 	0.49900 0.91100 0.33200 0.05700
C 	C 	0.82900 0.05600 0.13000 -0.07700
H 	H 	0.77300 0.10150 0.19920 0.01600
H 	H 	0.50460 0.93950 0.36760 0.01200
H 	H 	0.86240 0.08730 0.12890 0.05300
N 	N 	0.22500 0.51800 0.67300 -0.15300
N 	N 	0.12800 0.41700 0.67400 -0.19600
N 	N 	0.04600 0.41000 0.78100 -0.18100
C 	C 	0.22800 0.46300 0.63200 0.04700
C 	C 	0.27500 0.56500 0.67200 0.06100
C 	C 	0.17200 0.41700 0.62900 0.10300
C 	C 	0.99900 0.41100 0.83200 0.15200
C 	C 	0.32900 0.55600 0.63000 -0.12400
H 	H 	0.27300 0.60150 0.69920 0.00700
H 	H 	0.00460 0.43950 0.86760 -0.04500
H 	H 	0.36240 0.58730 0.62890 0.07400
N 	N 	0.77500 0.98200 0.67300 -0.14000
N 	N 	0.87200 0.08300 0.67400 -0.19800
N 	N 	0.95400 0.09000 0.78100 -0.13900
C 	C 	0.77200 0.03700 0.63200 0.02700
C 	C 	0.72500 0.93500 0.67200 0.09100
C 	C 	0.82800 0.08300 0.62900 0.10700
C 	C 	0.00100 0.08900 0.83200 -0.04200
C 	C 	0.67100 0.94400 0.63000 -0.17200
H 	H 	0.72700 0.89850 0.69920 -0.00000
H 	H 	0.99540 0.06050 0.86760 0.05300
H 	H 	0.63760 0.91270 0.62890 0.09500
N 	N 	0.27500 0.48200 0.17300 -0.15400
N 	N 	0.37200 0.58300 0.17400 -0.19600
N 	N 	0.45400 0.59000 0.28100 -0.15900
C 	C 	0.27200 0.53700 0.13200 0.04500
C 	C 	0.22500 0.43500 0.17200 0.06000
C 	C 	0.32800 0.58300 0.12900 0.10300
C 	C 	0.50100 0.58900 0.33200 0.05500
C 	C 	0.17100 0.44400 0.13000 -0.12600
H 	H 	0.22700 0.39850 0.19920 0.00700
H 	H 	0.49540 0.56050 0.36760 0.00500
H 	H 	0.13760 0.41270 0.12890 0.07000
N 	N 	0.32700 0.27500 0.51800 -0.15300
N 	N 	0.32600 0.37200 0.41700 -0.19600
N 	N 	0.21900 0.45400 0.41000 -0.15900
C 	C 	0.36800 0.27200 0.46300 0.04700
C 	C 	0.32800 0.22500 0.56500 0.06100
C 	C 	0.37100 0.32800 0.41700 0.10400
C 	C 	0.16800 0.50100 0.41100 0.05500
C 	C 	0.37000 0.17100 0.55600 -0.12400
H 	H 	0.30080 0.22700 0.60150 0.00700
H 	H 	0.13240 0.49540 0.43950 0.00200
H 	H 	0.37110 0.13760 0.58730 0.07200
N 	N 	0.82700 0.77500 0.01800 -0.16300
N 	N 	0.82600 0.87200 0.91700 -0.18900
N 	N 	0.71900 0.95400 0.91000 -0.13200
C 	C 	0.86800 0.77200 0.96300 0.07000
C 	C 	0.82800 0.72500 0.06500 0.03500
C 	C 	0.87100 0.82800 0.91700 0.10700
C 	C 	0.66800 0.00100 0.91100 -0.03800
C 	C 	0.87000 0.67100 0.05600 -0.07500
H 	H 	0.80080 0.72700 0.10150 0.01600
H 	H 	0.63240 0.99540 0.93950 0.06300
H 	H 	0.87110 0.63760 0.08730 0.05600
N 	N 	0.82700 0.22500 0.48200 -0.15300
N 	N 	0.82600 0.12800 0.58300 -0.19600
N 	N 	0.71900 0.04600 0.59000 -0.18100
C 	C 	0.86800 0.22800 0.53700 0.04900
C 	C 	0.82800 0.27500 0.43500 0.06300
C 	C 	0.87100 0.17200 0.58300 0.10500
C 	C 	0.66800 0.99900 0.58900 0.15200
C 	C 	0.87000 0.32900 0.44400 -0.12200
H 	H 	0.80080 0.27300 0.39850 0.00800
H 	H 	0.63240 0.00460 0.56050 -0.04800
H 	H 	0.87110 0.36240 0.41270 0.07600
N 	N 	0.32700 0.72500 0.98200 -0.14000
N 	N 	0.32600 0.62800 0.08300 -0.19900
N 	N 	0.21900 0.54600 0.09000 -0.16200
C 	C 	0.36800 0.72800 0.03700 0.02700
C 	C 	0.32800 0.77500 0.93500 0.09100
C 	C 	0.37100 0.67200 0.08300 0.10600
C 	C 	0.16800 0.49900 0.08900 0.05300
C 	C 	0.37000 0.82900 0.94400 -0.17100
H 	H 	0.30080 0.77300 0.89850 -0.00000
H 	H 	0.13240 0.50460 0.06050 -0.00400
H 	H 	0.37110 0.86240 0.91270 0.09700
N 	N 	0.17300 0.72500 0.01800 -0.16400
N 	N 	0.17400 0.62800 0.91700 -0.18900
N 	N 	0.28100 0.54600 0.91000 -0.15400
C 	C 	0.13200 0.72800 0.96300 0.06600
C 	C 	0.17200 0.77500 0.06500 0.03200
C 	C 	0.12900 0.67200 0.91700 0.10200
C 	C 	0.33200 0.49900 0.91100 0.05700
C 	C 	0.13000 0.82900 0.05600 -0.07700
H 	H 	0.19920 0.77300 0.10150 0.01600
H 	H 	0.36760 0.50460 0.93950 0.01200
H 	H 	0.12890 0.86240 0.08730 0.05300
N 	N 	0.67300 0.22500 0.51800 -0.15300
N 	N 	0.67400 0.12800 0.41700 -0.19600
N 	N 	0.78100 0.04600 0.41000 -0.18100
C 	C 	0.63200 0.22800 0.46300 0.04700
C 	C 	0.67200 0.27500 0.56500 0.06100
C 	C 	0.62900 0.17200 0.41700 0.10300
C 	C 	0.83200 0.99900 0.41100 0.15200
C 	C 	0.63000 0.32900 0.55600 -0.12400
H 	H 	0.69920 0.27300 0.60150 0.00700
H 	H 	0.86760 0.00460 0.43950 -0.04500
H 	H 	0.62890 0.36240 0.58730 0.07400
N 	N 	0.67300 0.77500 0.98200 -0.14000
N 	N 	0.67400 0.87200 0.08300 -0.19800
N 	N 	0.78100 0.95400 0.09000 -0.13900
C 	C 	0.63200 0.77200 0.03700 0.02700
C 	C 	0.67200 0.72500 0.93500 0.09100
C 	C 	0.62900 0.82800 0.08300 0.10700
C 	C 	0.83200 0.00100 0.08900 -0.04200
C 	C 	0.63000 0.67100 0.94400 -0.17200
H 	H 	0.69920 0.72700 0.89850 -0.00000
H 	H 	0.86760 0.99540 0.06050 0.05300
H 	H 	0.62890 0.63760 0.91270 0.09500
N 	N 	0.17300 0.27500 0.48200 -0.15400
N 	N 	0.17400 0.37200 0.58300 -0.19600
N 	N 	0.28100 0.45400 0.59000 -0.15900
C 	C 	0.13200 0.27200 0.53700 0.04500
C 	C 	0.17200 0.22500 0.43500 0.06000
C 	C 	0.12900 0.32800 0.58300 0.10300
C 	C 	0.33200 0.50100 0.58900 0.05500
C 	C 	0.13000 0.17100 0.44400 -0.12600
H 	H 	0.19920 0.22700 0.39850 0.00700
H 	H 	0.36760 0.49540 0.56050 0.00500
H 	H 	0.12890 0.13760 0.41270 0.07000
N 	N 	0.51800 0.32700 0.27500 -0.15300
N 	N 	0.41700 0.32600 0.37200 -0.19600
N 	N 	0.41000 0.21900 0.45400 -0.15900
C 	C 	0.46300 0.36800 0.27200 0.04700
C 	C 	0.56500 0.32800 0.22500 0.06100
C 	C 	0.41700 0.37100 0.32800 0.10400
C 	C 	0.41100 0.16800 0.50100 0.05500
C 	C 	0.55600 0.37000 0.17100 -0.12400
H 	H 	0.60150 0.30080 0.22700 0.00700
H 	H 	0.43950 0.13240 0.49540 0.00200
H 	H 	0.58730 0.37110 0.13760 0.07200
N 	N 	0.01800 0.82700 0.77500 -0.16300
N 	N 	0.91700 0.82600 0.87200 -0.18900
N 	N 	0.91000 0.71900 0.95400 -0.13200
C 	C 	0.96300 0.86800 0.77200 0.07000
C 	C 	0.06500 0.82800 0.72500 0.03500
C 	C 	0.91700 0.87100 0.82800 0.10700
C 	C 	0.91100 0.66800 0.00100 -0.03800
C 	C 	0.05600 0.87000 0.67100 -0.07500
H 	H 	0.10150 0.80080 0.72700 0.01600
H 	H 	0.93950 0.63240 0.99540 0.06300
H 	H 	0.08730 0.87110 0.63760 0.05600
N 	N 	0.48200 0.82700 0.22500 -0.15300
N 	N 	0.58300 0.82600 0.12800 -0.19600
N 	N 	0.59000 0.71900 0.04600 -0.18100
C 	C 	0.53700 0.86800 0.22800 0.04900
C 	C 	0.43500 0.82800 0.27500 0.06300
C 	C 	0.58300 0.87100 0.17200 0.10500
C 	C 	0.58900 0.66800 0.99900 0.15200
C 	C 	0.44400 0.87000 0.32900 -0.12200
H 	H 	0.39850 0.80080 0.27300 0.00800
H 	H 	0.56050 0.63240 0.00460 -0.04800
H 	H 	0.41270 0.87110 0.36240 0.07600
N 	N 	0.98200 0.32700 0.72500 -0.14000
N 	N 	0.08300 0.32600 0.62800 -0.19900
N 	N 	0.09000 0.21900 0.54600 -0.16200
C 	C 	0.03700 0.36800 0.72800 0.02700
C 	C 	0.93500 0.32800 0.77500 0.09100
C 	C 	0.08300 0.37100 0.67200 0.10600
C 	C 	0.08900 0.16800 0.49900 0.05300
C 	C 	0.94400 0.37000 0.82900 -0.17100
H 	H 	0.89850 0.30080 0.77300 -0.00000
H 	H 	0.06050 0.13240 0.50460 -0.00400
H 	H 	0.91270 0.37110 0.86240 0.09700
N 	N 	0.01800 0.17300 0.72500 -0.16400
N 	N 	0.91700 0.17400 0.62800 -0.18900
N 	N 	0.91000 0.28100 0.54600 -0.15400
C 	C 	0.96300 0.13200 0.72800 0.06600
C 	C 	0.06500 0.17200 0.77500 0.03200
C 	C 	0.91700 0.12900 0.67200 0.10200
C 	C 	0.91100 0.33200 0.49900 0.05700
C 	C 	0.05600 0.13000 0.82900 -0.07700
H 	H 	0.10150 0.19920 0.77300 0.01600
H 	H 	0.93950 0.36760 0.50460 0.01200
H 	H 	0.08730 0.12890 0.86240 0.05300
N 	N 	0.51800 0.67300 0.22500 -0.15300
N 	N 	0.41700 0.67400 0.12800 -0.19600
N 	N 	0.41000 0.78100 0.04600 -0.18100
C 	C 	0.46300 0.63200 0.22800 0.04700
C 	C 	0.56500 0.67200 0.27500 0.06100
C 	C 	0.41700 0.62900 0.17200 0.10300
C 	C 	0.41100 0.83200 0.99900 0.15200
C 	C 	0.55600 0.63000 0.32900 -0.12400
H 	H 	0.60150 0.69920 0.27300 0.00700
H 	H 	0.43950 0.86760 0.00460 -0.04500
H 	H 	0.58730 0.62890 0.36240 0.07400
N 	N 	0.98200 0.67300 0.77500 -0.14000
N 	N 	0.08300 0.67400 0.87200 -0.19800
N 	N 	0.09000 0.78100 0.95400 -0.13900
C 	C 	0.03700 0.63200 0.77200 0.02700
C 	C 	0.93500 0.67200 0.72500 0.09100
C 	C 	0.08300 0.62900 0.82800 0.10700
C 	C 	0.08900 0.83200 0.00100 -0.04200
C 	C 	0.94400 0.63000 0.67100 -0.17200
H 	H 	0.89850 0.69920 0.72700 -0.00000
H 	H 	0.06050 0.86760 0.99540 0.05300
H 	H 	0.91270 0.62890 0.63760 0.09500
N 	N 	0.48200 0.17300 0.27500 -0.15400
N 	N 	0.58300 0.17400 0.37200 -0.19600
N 	N 	0.59000 0.28100 0.45400 -0.15900
C 	C 	0.53700 0.13200 0.27200 0.04500
C 	C 	0.43500 0.17200 0.22500 0.06000
C 	C 	0.58300 0.12900 0.32800 0.10300
C 	C 	0.58900 0.33200 0.50100 0.05500
C 	C 	0.44400 0.13000 0.17100 -0.12600
H 	H 	0.39850 0.19920 0.22700 0.00700
H 	H 	0.56050 0.36760 0.49540 0.00500
H 	H 	0.41270 0.12890 0.13760 0.07000
Ag	Ag	0.37530 0.50000 0.25000 0.55400
Ag	Ag	0.12470 0.50000 0.75000 0.55300
Ag	Ag	0.62470 0.00000 0.25000 0.54000
Ag	Ag	0.87530 0.00000 0.75000 0.54200
Ag	Ag	0.25000 0.37530 0.50000 0.55400
Ag	Ag	0.75000 0.12470 0.50000 0.55300
Ag	Ag	0.25000 0.62470 -0.00000 0.54000
Ag	Ag	0.75000 0.87530 -0.00000 0.54200
Ag	Ag	0.50000 0.25000 0.37530 0.55400
Ag	Ag	0.50000 0.75000 0.12470 0.55300
Ag	Ag	0.00000 0.25000 0.62470 0.54000
Ag	Ag	-0.00000 0.75000 0.87530 0.54200
N 	N 	0.76800 0.52500 0.57700 -0.15300
N 	N 	0.66700 0.62200 0.57600 -0.19600
N 	N 	0.66000 0.70400 0.46900 -0.15900
C 	C 	0.71300 0.52200 0.61800 0.04700
C 	C 	0.81500 0.47500 0.57800 0.06200
C 	C 	0.66700 0.57800 0.62100 0.10400
C 	C 	0.66100 0.75100 0.41800 0.05500
C 	C 	0.80600 0.42100 0.62000 -0.12300
H 	H 	0.85150 0.47700 0.55080 0.01000
H 	H 	0.68950 0.74540 0.38240 0.00500
H 	H 	0.83730 0.38760 0.62110 0.07600
N 	N 	0.26800 0.02500 0.07700 -0.17100
N 	N 	0.16700 0.12200 0.07600 -0.20100
N 	N 	0.16000 0.20400 0.96900 -0.14300
C 	C 	0.21300 0.02200 0.11800 0.02000
C 	C 	0.31500 0.97500 0.07800 0.09100
C 	C 	0.16700 0.07800 0.12100 0.10400
C 	C 	0.16100 0.25100 0.91800 0.06400
C 	C 	0.30600 0.92100 0.12000 -0.13600
H 	H 	0.35150 0.97700 0.05080 -0.00100
H 	H 	0.18950 0.24540 0.88240 0.00300
H 	H 	0.33730 0.88760 0.12110 0.07700
N 	N 	0.73200 0.47500 0.07700 -0.15600
N 	N 	0.83300 0.37800 0.07600 -0.19900
N 	N 	0.84000 0.29600 0.96900 -0.14200
C 	C 	0.78700 0.47800 0.11800 0.04500
C 	C 	0.68500 0.52500 0.07800 0.05900
C 	C 	0.83300 0.42200 0.12100 0.10400
C 	C 	0.83900 0.24900 0.91800 0.06600
C 	C 	0.69400 0.57900 0.12000 -0.12500
H 	H 	0.64850 0.52300 0.05080 0.00200
H 	H 	0.81050 0.25460 0.88240 0.00300
H 	H 	0.66270 0.61240 0.12110 0.07200
N 	N 	0.23200 0.97500 0.57700 -0.14000
N 	N 	0.33300 0.87800 0.57600 -0.19400
N 	N 	0.34000 0.79600 0.46900 -0.15800
C 	C 	0.28700 0.97800 0.61800 0.07100
C 	C 	0.18500 0.02500 0.57800 0.02900
C 	C 	0.33300 0.92200 0.62100 0.10300
C 	C 	0.33900 0.74900 0.41800 0.05500
C 	C 	0.19400 0.07900 0.62000 -0.11400
H 	H 	0.14850 0.02300 0.55080 0.00800
H 	H 	0.31050 0.75460 0.38240 0.00500
H 	H 	0.16270 0.11240 0.62110 0.06700
N 	N 	0.26800 0.97500 0.42300 -0.13900
N 	N 	0.16700 0.87800 0.42400 -0.19400
N 	N 	0.16000 0.79600 0.53100 -0.15800
C 	C 	0.21300 0.97800 0.38200 0.07100
C 	C 	0.31500 0.02500 0.42200 0.02900
C 	C 	0.16700 0.92200 0.37900 0.10100
C 	C 	0.16100 0.74900 0.58200 0.05400
C 	C 	0.30600 0.07900 0.38000 -0.11300
H 	H 	0.35150 0.02300 0.44920 0.01000
H 	H 	0.18950 0.75460 0.61760 0.00500
H 	H 	0.33730 0.11240 0.37890 0.06800
N 	N 	0.76800 0.47500 0.92300 -0.14700
N 	N 	0.66700 0.37800 0.92400 -0.18900
N 	N 	0.66000 0.29600 0.03100 -0.17300
C 	C 	0.71300 0.47800 0.88200 0.05100
C 	C 	0.81500 0.52500 0.92200 0.06500
C 	C 	0.66700 0.42200 0.87900 0.10600
C 	C 	0.66100 0.24900 0.08200 0.04500
C 	C 	0.80600 0.57900 0.88000 -0.12100
H 	H 	0.85150 0.52300 0.94920 0.01600
H 	H 	0.68950 0.25460 0.11760 0.00700
H 	H 	0.83730 0.61240 0.87890 0.07800
N 	N 	0.23200 0.02500 0.92300 -0.16200
N 	N 	0.33300 0.12200 0.92400 -0.19000
N 	N 	0.34000 0.20400 0.03100 -0.17400
C 	C 	0.28700 0.02200 0.88200 0.02700
C 	C 	0.18500 0.97500 0.92200 0.09700
C 	C 	0.33300 0.07800 0.87900 0.10800
C 	C 	0.33900 0.25100 0.08200 0.04500
C 	C 	0.19400 0.92100 0.88000 -0.13400
H 	H 	0.14850 0.97700 0.94920 0.00800
H 	H 	0.31050 0.24540 0.11760 0.00700
H 	H 	0.16270 0.88760 0.87890 0.08100
N 	N 	0.73200 0.52500 0.42300 -0.15300
N 	N 	0.83300 0.62200 0.42400 -0.19500
N 	N 	0.84000 0.70400 0.53100 -0.15900
C 	C 	0.78700 0.52200 0.38200 0.04700
C 	C 	0.68500 0.47500 0.42200 0.06200
C 	C 	0.83300 0.57800 0.37900 0.10600
C 	C 	0.83900 0.75100 0.58200 0.05600
C 	C 	0.69400 0.42100 0.38000 -0.12400
H 	H 	0.64850 0.47700 0.44920 0.00700
H 	H 	0.81050 0.74540 0.61760 0.00500
H 	H 	0.66270 0.38760 0.37890 0.07400
N 	N 	0.52500 0.57700 0.76800 -0.15300
N 	N 	0.62200 0.57600 0.66700 -0.19600
N 	N 	0.70400 0.46900 0.66000 -0.15900
C 	C 	0.52200 0.61800 0.71300 0.04700
C 	C 	0.47500 0.57800 0.81500 0.06200
C 	C 	0.57800 0.62100 0.66700 0.10400
C 	C 	0.75100 0.41800 0.66100 0.05500
C 	C 	0.42100 0.62000 0.80600 -0.12300
H 	H 	0.47700 0.55080 0.85150 0.01000
H 	H 	0.74540 0.38240 0.68950 0.00500
H 	H 	0.38760 0.62110 0.83730 0.07600
N 	N 	0.02500 0.07700 0.26800 -0.17100
N 	N 	0.12200 0.07600 0.16700 -0.20100
N 	N 	0.20400 0.96900 0.16000 -0.14300
C 	C 	0.02200 0.11800 0.21300 0.02000
C 	C 	0.97500 0.07800 0.31500 0.09100
C 	C 	0.07800 0.12100 0.16700 0.10400
C 	C 	0.25100 0.91800 0.16100 0.06400
C 	C 	0.92100 0.12000 0.30600 -0.13600
H 	H 	0.97700 0.05080 0.35150 -0.00100
H 	H 	0.24540 0.88240 0.18950 0.00300
H 	H 	0.88760 0.12110 0.33730 0.07700
N 	N 	0.47500 0.07700 0.73200 -0.15600
N 	N 	0.37800 0.07600 0.83300 -0.19900
N 	N 	0.29600 0.96900 0.84000 -0.14200
C 	C 	0.47800 0.11800 0.78700 0.04500
C 	C 	0.52500 0.07800 0.68500 0.05900
C 	C 	0.42200 0.12100 0.83300 0.10400
C 	C 	0.24900 0.91800 0.83900 0.06600
C 	C 	0.57900 0.12000 0.69400 -0.12500
H 	H 	0.52300 0.05080 0.64850 0.00200
H 	H 	0.25460 0.88240 0.81050 0.00300
H 	H 	0.61240 0.12110 0.66270 0.07200
N 	N 	0.97500 0.57700 0.23200 -0.14000
N 	N 	0.87800 0.57600 0.33300 -0.19400
N 	N 	0.79600 0.46900 0.34000 -0.15800
C 	C 	0.97800 0.61800 0.28700 0.07100
C 	C 	0.02500 0.57800 0.18500 0.02900
C 	C 	0.92200 0.62100 0.33300 0.10300
C 	C 	0.74900 0.41800 0.33900 0.05500
C 	C 	0.07900 0.62000 0.19400 -0.11400
H 	H 	0.02300 0.55080 0.14850 0.00800
H 	H 	0.75460 0.38240 0.31050 0.00500
H 	H 	0.11240 0.62110 0.16270 0.06700
N 	N 	0.97500 0.42300 0.26800 -0.13900
N 	N 	0.87800 0.42400 0.16700 -0.19400
N 	N 	0.79600 0.53100 0.16000 -0.15800
C 	C 	0.97800 0.38200 0.21300 0.07100
C 	C 	0.02500 0.42200 0.31500 0.02900
C 	C 	0.92200 0.37900 0.16700 0.10100
C 	C 	0.74900 0.58200 0.16100 0.05400
C 	C 	0.07900 0.38000 0.30600 -0.11300
H 	H 	0.02300 0.44920 0.35150 0.01000
H 	H 	0.75460 0.61760 0.18950 0.00500
H 	H 	0.11240 0.37890 0.33730 0.06800
N 	N 	0.47500 0.92300 0.76800 -0.14700
N 	N 	0.37800 0.92400 0.66700 -0.18900
N 	N 	0.29600 0.03100 0.66000 -0.17300
C 	C 	0.47800 0.88200 0.71300 0.05100
C 	C 	0.52500 0.92200 0.81500 0.06500
C 	C 	0.42200 0.87900 0.66700 0.10600
C 	C 	0.24900 0.08200 0.66100 0.04500
C 	C 	0.57900 0.88000 0.80600 -0.12100
H 	H 	0.52300 0.94920 0.85150 0.01600
H 	H 	0.25460 0.11760 0.68950 0.00700
H 	H 	0.61240 0.87890 0.83730 0.07800
N 	N 	0.02500 0.92300 0.23200 -0.16200
N 	N 	0.12200 0.92400 0.33300 -0.19000
N 	N 	0.20400 0.03100 0.34000 -0.17400
C 	C 	0.02200 0.88200 0.28700 0.02700
C 	C 	0.97500 0.92200 0.18500 0.09700
C 	C 	0.07800 0.87900 0.33300 0.10800
C 	C 	0.25100 0.08200 0.33900 0.04500
C 	C 	0.92100 0.88000 0.19400 -0.13400
H 	H 	0.97700 0.94920 0.14850 0.00800
H 	H 	0.24540 0.11760 0.31050 0.00700
H 	H 	0.88760 0.87890 0.16270 0.08100
N 	N 	0.52500 0.42300 0.73200 -0.15300
N 	N 	0.62200 0.42400 0.83300 -0.19500
N 	N 	0.70400 0.53100 0.84000 -0.15900
C 	C 	0.52200 0.38200 0.78700 0.04700
C 	C 	0.47500 0.42200 0.68500 0.06200
C 	C 	0.57800 0.37900 0.83300 0.10600
C 	C 	0.75100 0.58200 0.83900 0.05600
C 	C 	0.42100 0.38000 0.69400 -0.12400
H 	H 	0.47700 0.44920 0.64850 0.00700
H 	H 	0.74540 0.61760 0.81050 0.00500
H 	H 	0.38760 0.37890 0.66270 0.07400
N 	N 	0.57700 0.76800 0.52500 -0.15300
N 	N 	0.57600 0.66700 0.62200 -0.19600
N 	N 	0.46900 0.66000 0.70400 -0.15900
C 	C 	0.61800 0.71300 0.52200 0.04700
C 	C 	0.57800 0.81500 0.47500 0.06200
C 	C 	0.62100 0.66700 0.57800 0.10400
C 	C 	0.41800 0.66100 0.75100 0.05500
C 	C 	0.62000 0.80600 0.42100 -0.12300
H 	H 	0.55080 0.85150 0.47700 0.01000
H 	H 	0.38240 0.68950 0.74540 0.00500
H 	H 	0.62110 0.83730 0.38760 0.07600
N 	N 	0.07700 0.26800 0.02500 -0.17100
N 	N 	0.07600 0.16700 0.12200 -0.20100
N 	N 	0.96900 0.16000 0.20400 -0.14300
C 	C 	0.11800 0.21300 0.02200 0.02000
C 	C 	0.07800 0.31500 0.97500 0.09100
C 	C 	0.12100 0.16700 0.07800 0.10400
C 	C 	0.91800 0.16100 0.25100 0.06400
C 	C 	0.12000 0.30600 0.92100 -0.13600
H 	H 	0.05080 0.35150 0.97700 -0.00100
H 	H 	0.88240 0.18950 0.24540 0.00300
H 	H 	0.12110 0.33730 0.88760 0.07700
N 	N 	0.07700 0.73200 0.47500 -0.15600
N 	N 	0.07600 0.83300 0.37800 -0.19900
N 	N 	0.96900 0.84000 0.29600 -0.14200
C 	C 	0.11800 0.78700 0.47800 0.04500
C 	C 	0.07800 0.68500 0.52500 0.05900
C 	C 	0.12100 0.83300 0.42200 0.10400
C 	C 	0.91800 0.83900 0.24900 0.06600
C 	C 	0.12000 0.69400 0.57900 -0.12500
H 	H 	0.05080 0.64850 0.52300 0.00200
H 	H 	0.88240 0.81050 0.25460 0.00300
H 	H 	0.12110 0.66270 0.61240 0.07200
N 	N 	0.57700 0.23200 0.97500 -0.14000
N 	N 	0.57600 0.33300 0.87800 -0.19400
N 	N 	0.46900 0.34000 0.79600 -0.15800
C 	C 	0.61800 0.28700 0.97800 0.07100
C 	C 	0.57800 0.18500 0.02500 0.02900
C 	C 	0.62100 0.33300 0.92200 0.10300
C 	C 	0.41800 0.33900 0.74900 0.05500
C 	C 	0.62000 0.19400 0.07900 -0.11400
H 	H 	0.55080 0.14850 0.02300 0.00800
H 	H 	0.38240 0.31050 0.75460 0.00500
H 	H 	0.62110 0.16270 0.11240 0.06700
N 	N 	0.42300 0.26800 0.97500 -0.13900
N 	N 	0.42400 0.16700 0.87800 -0.19400
N 	N 	0.53100 0.16000 0.79600 -0.15800
C 	C 	0.38200 0.21300 0.97800 0.07100
C 	C 	0.42200 0.31500 0.02500 0.02900
C 	C 	0.37900 0.16700 0.92200 0.10100
C 	C 	0.58200 0.16100 0.74900 0.05400
C 	C 	0.38000 0.30600 0.07900 -0.11300
H 	H 	0.44920 0.35150 0.02300 0.01000
H 	H 	0.61760 0.18950 0.75460 0.00500
H 	H 	0.37890 0.33730 0.11240 0.06800
N 	N 	0.92300 0.76800 0.47500 -0.14700
N 	N 	0.92400 0.66700 0.37800 -0.18900
N 	N 	0.03100 0.66000 0.29600 -0.17300
C 	C 	0.88200 0.71300 0.47800 0.05100
C 	C 	0.92200 0.81500 0.52500 0.06500
C 	C 	0.87900 0.66700 0.42200 0.10600
C 	C 	0.08200 0.66100 0.24900 0.04500
C 	C 	0.88000 0.80600 0.57900 -0.12100
H 	H 	0.94920 0.85150 0.52300 0.01600
H 	H 	0.11760 0.68950 0.25460 0.00700
H 	H 	0.87890 0.83730 0.61240 0.07800
N 	N 	0.92300 0.23200 0.02500 -0.16200
N 	N 	0.92400 0.33300 0.12200 -0.19000
N 	N 	0.03100 0.34000 0.20400 -0.17400
C 	C 	0.88200 0.28700 0.02200 0.02700
C 	C 	0.92200 0.18500 0.97500 0.09700
C 	C 	0.87900 0.33300 0.07800 0.10800
C 	C 	0.08200 0.33900 0.25100 0.04500
C 	C 	0.88000 0.19400 0.92100 -0.13400
H 	H 	0.94920 0.14850 0.97700 0.00800
H 	H 	0.11760 0.31050 0.24540 0.00700
H 	H 	0.87890 0.16270 0.88760 0.08100
N 	N 	0.42300 0.73200 0.52500 -0.15300
N 	N 	0.42400 0.83300 0.62200 -0.19500
N 	N 	0.53100 0.84000 0.70400 -0.15900
C 	C 	0.38200 0.78700 0.52200 0.04700
C 	C 	0.42200 0.68500 0.47500 0.06200
C 	C 	0.37900 0.83300 0.57800 0.10600
C 	C 	0.58200 0.83900 0.75100 0.05600
C 	C 	0.38000 0.69400 0.42100 -0.12400
H 	H 	0.44920 0.64850 0.47700 0.00700
H 	H 	0.61760 0.81050 0.74540 0.00500
H 	H 	0.37890 0.66270 0.38760 0.07400
Ag	Ag	0.75000 0.62530 0.50000 0.55500
Ag	Ag	0.75000 0.37470 -0.00000 0.54000
Ag	Ag	0.25000 0.87470 0.50000 0.55600
Ag	Ag	0.25000 0.12530 -0.00000 0.53800
Ag	Ag	0.62530 0.50000 0.75000 0.55500
Ag	Ag	0.37470 0.00000 0.75000 0.54000
Ag	Ag	0.87470 0.50000 0.25000 0.55600
Ag	Ag	0.12530 0.00000 0.25000 0.53800
Ag	Ag	0.50000 0.75000 0.62530 0.55500
Ag	Ag	0.00000 0.75000 0.37470 0.54000
Ag	Ag	0.50000 0.25000 0.87470 0.55600
Ag	Ag	-0.00000 0.25000 0.12530 0.53800
