data_crystal

_cell_length_a 12.60650
_cell_length_b 10.13700
_cell_length_c 17.57010
_cell_angle_alpha 90.00000
_cell_angle_beta  90.00000
_cell_angle_gamma 90.00000

_symmetry_space_group_name_	'P 1'
_symmetry_space_group_name_H-M	'P 1'

loop_
_symmetry_equiv_pos_as_xyz
  x,y,z

loop_
_atom_site_label
_atom_site_type_symbol
_atom_site_fract_x
_atom_site_fract_y
_atom_site_fract_z
_atom_site_charge
O 	O 	0.85320 0.44840 0.91402 -0.37600
O 	O 	0.77700 0.26610 0.87470 -0.33700
N 	N 	0.03260 0.05310 0.16350 -0.13900
N 	N 	0.97940 0.95800 0.20250 -0.07400
N 	N 	0.13510 0.99790 0.25760 -0.19600
C 	C 	0.83790 0.32430 0.91900 0.35500
C 	C 	0.89290 0.25190 0.98050 -0.19200
C 	C 	0.97700 0.30460 0.01830 0.12000
H 	H 	0.00370 0.38580 0.00290 0.02100
C 	C 	0.02480 0.23960 0.08010 -0.21700
H 	H 	0.08140 0.27740 0.10620 0.12000
C 	C 	0.98550 0.11900 0.10090 0.22700
C 	C 	0.90110 0.06460 0.06380 -0.34500
H 	H 	0.87390 0.98370 0.07930 0.19800
C 	C 	0.85660 0.13080 0.00290 0.18900
H 	H 	0.80060 0.09220 0.97660 -0.03200
C 	C 	0.04400 0.92760 0.25740 0.12200
H 	H 	0.02890 0.86300 0.29340 0.00900
C 	C 	0.12450 0.07580 0.19700 0.05100
H 	H 	0.17450 0.13710 0.18070 0.02400
O 	O 	0.64680 0.55160 0.91402 -0.36900
O 	O 	0.72300 0.73390 0.87470 -0.31800
N 	N 	0.46740 0.94690 0.16350 -0.10200
N 	N 	0.52060 0.04200 0.20250 -0.11000
N 	N 	0.36490 0.00210 0.25760 -0.25700
C 	C 	0.66210 0.67570 0.91900 0.32200
C 	C 	0.60710 0.74810 0.98050 -0.10100
C 	C 	0.52300 0.69540 0.01830 0.05800
H 	H 	0.49630 0.61420 0.00290 0.03900
C 	C 	0.47520 0.76040 0.08010 -0.14600
H 	H 	0.41860 0.72260 0.10620 0.09700
C 	C 	0.51450 0.88100 0.10090 0.13600
C 	C 	0.59890 0.93540 0.06380 -0.05500
H 	H 	0.62610 0.01630 0.07930 0.04000
C 	C 	0.64340 0.86920 0.00290 0.02300
H 	H 	0.69940 0.90780 0.97660 0.05300
C 	C 	0.45600 0.07240 0.25740 0.10000
H 	H 	0.47110 0.13700 0.29340 0.00800
C 	C 	0.37550 0.92420 0.19700 0.14900
H 	H 	0.32550 0.86290 0.18070 0.00200
O 	O 	0.35320 0.05160 0.41402 -0.39300
O 	O 	0.27700 0.23390 0.37470 -0.33400
N 	N 	0.53260 0.44690 0.66350 -0.12600
N 	N 	0.47940 0.54200 0.70250 -0.08900
N 	N 	0.63510 0.50210 0.75760 -0.22900
C 	C 	0.33790 0.17570 0.41900 0.34900
C 	C 	0.39290 0.24810 0.48050 -0.17200
C 	C 	0.47700 0.19540 0.51830 0.12000
H 	H 	0.50370 0.11420 0.50290 0.00400
C 	C 	0.52480 0.26040 0.58010 -0.21500
H 	H 	0.58140 0.22260 0.60620 0.11300
C 	C 	0.48550 0.38100 0.60090 0.20200
C 	C 	0.40110 0.43540 0.56380 -0.22100
H 	H 	0.37390 0.51630 0.57930 0.12700
C 	C 	0.35660 0.36920 0.50290 0.12700
H 	H 	0.30060 0.40780 0.47660 0.00300
C 	C 	0.54400 0.57240 0.75740 0.10900
H 	H 	0.52890 0.63700 0.79340 0.00900
C 	C 	0.62450 0.42420 0.69700 0.10000
H 	H 	0.67450 0.36290 0.68070 0.01100
O 	O 	0.14680 0.94840 0.41402 -0.34900
O 	O 	0.22300 0.76610 0.37470 -0.32200
N 	N 	0.96740 0.55310 0.66350 -0.12900
N 	N 	0.02060 0.45800 0.70250 -0.08800
N 	N 	0.86490 0.49790 0.75760 -0.22900
C 	C 	0.16210 0.82430 0.41900 0.34500
C 	C 	0.10710 0.75190 0.48050 -0.16500
C 	C 	0.02300 0.80460 0.51830 0.13300
H 	H 	0.99630 0.88580 0.50290 0.02200
C 	C 	0.97520 0.73960 0.58010 -0.22100
H 	H 	0.91860 0.77740 0.60620 0.12900
C 	C 	0.01450 0.61900 0.60090 0.21200
C 	C 	0.09890 0.56460 0.56380 -0.22200
H 	H 	0.12610 0.48370 0.57930 0.12700
C 	C 	0.14340 0.63080 0.50290 0.13000
H 	H 	0.19940 0.59220 0.47660 0.00300
C 	C 	0.95600 0.42760 0.75740 0.10700
H 	H 	0.97110 0.36300 0.79340 0.00700
C 	C 	0.87550 0.57580 0.69700 0.10200
H 	H 	0.82550 0.63710 0.68070 0.01200
Cu	Cu	0.75000 0.50000 0.83472 0.91200
Cu	Cu	0.25000 0.00000 0.33472 0.89300
O 	O 	0.64680 0.94840 0.58598 -0.34800
O 	O 	0.72300 0.76610 0.62530 -0.32100
N 	N 	0.46740 0.55310 0.33650 -0.12400
N 	N 	0.52060 0.45800 0.29750 -0.09000
N 	N 	0.36490 0.49790 0.24240 -0.22900
C 	C 	0.66210 0.82430 0.58100 0.33900
C 	C 	0.60710 0.75190 0.51950 -0.15200
C 	C 	0.52300 0.80460 0.48170 0.10900
H 	H 	0.49630 0.88580 0.49710 0.03300
C 	C 	0.47520 0.73960 0.41990 -0.19800
H 	H 	0.41860 0.77740 0.39380 0.12100
C 	C 	0.51450 0.61900 0.39910 0.19600
C 	C 	0.59890 0.56460 0.43620 -0.20900
H 	H 	0.62610 0.48370 0.42070 0.12200
C 	C 	0.64340 0.63080 0.49710 0.11600
H 	H 	0.69940 0.59220 0.52340 0.00700
C 	C 	0.45600 0.42760 0.24260 0.11000
H 	H 	0.47110 0.36300 0.20660 0.00700
C 	C 	0.37550 0.57580 0.30300 0.10100
H 	H 	0.32550 0.63710 0.31930 0.01300
O 	O 	0.85320 0.05160 0.58598 -0.39200
O 	O 	0.77700 0.23390 0.62530 -0.33200
N 	N 	0.03260 0.44690 0.33650 -0.11900
N 	N 	0.97940 0.54200 0.29750 -0.09400
N 	N 	0.13510 0.50210 0.24240 -0.22900
C 	C 	0.83790 0.17570 0.58100 0.34100
C 	C 	0.89290 0.24810 0.51950 -0.15200
C 	C 	0.97700 0.19540 0.48170 0.08400
H 	H 	0.00370 0.11420 0.49710 0.02000
C 	C 	0.02480 0.26040 0.41990 -0.18000
H 	H 	0.08140 0.22260 0.39380 0.10200
C 	C 	0.98550 0.38100 0.39910 0.17700
C 	C 	0.90110 0.43540 0.43620 -0.20000
H 	H 	0.87390 0.51630 0.42070 0.12000
C 	C 	0.85660 0.36920 0.49710 0.10700
H 	H 	0.80060 0.40780 0.52340 0.01000
C 	C 	0.04400 0.57240 0.24260 0.11400
H 	H 	0.02890 0.63700 0.20660 0.00900
C 	C 	0.12450 0.42420 0.30300 0.09900
H 	H 	0.17450 0.36290 0.31930 0.01200
O 	O 	0.14680 0.55160 0.08598 -0.36700
O 	O 	0.22300 0.73390 0.12530 -0.31700
N 	N 	0.96740 0.94690 0.83650 -0.10300
N 	N 	0.02060 0.04200 0.79750 -0.10700
N 	N 	0.86490 0.00210 0.74240 -0.25700
C 	C 	0.16210 0.67570 0.08100 0.31800
C 	C 	0.10710 0.74810 0.01950 -0.09000
C 	C 	0.02300 0.69540 0.98170 0.05300
H 	H 	0.99630 0.61420 0.99710 0.03900
C 	C 	0.97520 0.76040 0.91990 -0.14500
H 	H 	0.91860 0.72260 0.89380 0.09600
C 	C 	0.01450 0.88100 0.89910 0.13500
C 	C 	0.09890 0.93540 0.93620 -0.05100
H 	H 	0.12610 0.01630 0.92070 0.03900
C 	C 	0.14340 0.86920 0.99710 0.01000
H 	H 	0.19940 0.90780 0.02340 0.05900
C 	C 	0.95600 0.07240 0.74260 0.09700
H 	H 	0.97110 0.13700 0.70660 0.00800
C 	C 	0.87550 0.92420 0.80300 0.15000
H 	H 	0.82550 0.86290 0.81930 0.00200
O 	O 	0.35320 0.44840 0.08598 -0.37800
O 	O 	0.27700 0.26610 0.12530 -0.33900
N 	N 	0.53260 0.05310 0.83650 -0.14800
N 	N 	0.47940 0.95800 0.79750 -0.07000
N 	N 	0.63510 0.99790 0.74240 -0.19500
C 	C 	0.33790 0.32430 0.08100 0.36400
C 	C 	0.39290 0.25190 0.01950 -0.21500
C 	C 	0.47700 0.30460 0.98170 0.16400
H 	H 	0.50370 0.38580 0.99710 0.00100
C 	C 	0.52480 0.23960 0.91990 -0.26100
H 	H 	0.58140 0.27740 0.89380 0.13400
C 	C 	0.48550 0.11900 0.89910 0.25700
C 	C 	0.40110 0.06460 0.93620 -0.36700
H 	H 	0.37390 0.98370 0.92070 0.20500
C 	C 	0.35660 0.13080 0.99710 0.20900
H 	H 	0.30060 0.09220 0.02340 -0.03800
C 	C 	0.54400 0.92760 0.74260 0.11900
H 	H 	0.52890 0.86300 0.70660 0.01000
C 	C 	0.62450 0.07580 0.80300 0.05100
H 	H 	0.67450 0.13710 0.81930 0.02300
Cu	Cu	0.75000 0.00000 0.66528 0.89200
Cu	Cu	0.25000 0.50000 0.16528 0.91200
