data_crystal

_cell_length_a 6.97100
_cell_length_b 12.54000
_cell_length_c 13.21200
_cell_angle_alpha 112.62000
_cell_angle_beta  96.10000
_cell_angle_gamma 93.44000

_symmetry_space_group_name_	'P 1'
_symmetry_space_group_name_H-M	'P 1'

loop_
_symmetry_equiv_pos_as_xyz
  x,y,z

loop_
_atom_site_label
_atom_site_type_symbol
_atom_site_fract_x
_atom_site_fract_y
_atom_site_fract_z
_atom_site_charge
Na	Na	0.24860 0.53990 0.47950 0.58900
O 	O 	0.28150 0.48590 0.28720 -0.29900
O 	O 	0.56820 0.47820 0.37290 -0.34300
N 	N 	0.75660 0.49070 0.18880 -0.11000
C 	C 	0.46110 0.48510 0.29450 0.31500
C 	C 	0.54060 0.49010 0.19240 -0.01900
C 	C 	0.86060 0.59680 0.28090 0.04400
C 	C 	0.82590 0.38220 0.19510 0.05100
C 	C 	0.78710 0.49410 0.07780 0.04400
C 	C 	0.99690 0.50340 0.05850 0.00300
O 	O 	0.02580 0.36950 0.44510 -0.35100
O 	O 	0.90800 0.18400 0.36820 -0.24900
N 	N 	0.23580 0.12760 0.24350 -0.10900
C 	C 	0.03420 0.26500 0.38750 0.32400
C 	C 	0.22360 0.24330 0.33650 -0.03600
C 	C 	0.43210 0.13610 0.20910 0.04800
C 	C 	0.21930 0.02980 0.28190 0.05300
C 	C 	0.07970 0.11030 0.14900 0.04900
C 	C 	0.08120 0.00140 0.04380 -0.00500
Na	Na	0.75140 0.46010 0.52050 0.59000
O 	O 	0.71850 0.51410 0.71280 -0.29800
O 	O 	0.43180 0.52180 0.62710 -0.34300
N 	N 	0.24340 0.50930 0.81120 -0.11000
C 	C 	0.53890 0.51490 0.70550 0.31500
C 	C 	0.45940 0.50990 0.80760 -0.01900
C 	C 	0.13940 0.40320 0.71910 0.04400
C 	C 	0.17410 0.61780 0.80490 0.05100
C 	C 	0.21290 0.50590 0.92220 0.04400
C 	C 	0.00310 0.49660 0.94150 0.00300
O 	O 	0.97420 0.63050 0.55490 -0.35100
O 	O 	0.09200 0.81600 0.63180 -0.24900
N 	N 	0.76420 0.87240 0.75650 -0.10900
C 	C 	0.96580 0.73500 0.61250 0.32400
C 	C 	0.77640 0.75670 0.66350 -0.03600
C 	C 	0.56790 0.86390 0.79090 0.04800
C 	C 	0.78070 0.97020 0.71810 0.05300
C 	C 	0.92030 0.88970 0.85100 0.04900
C 	C 	0.91880 0.99860 0.95620 -0.00500
