data_crystal

_cell_length_a 16.00600
_cell_length_b 9.87300
_cell_length_c 15.19800
_cell_angle_alpha 90.00000
_cell_angle_beta  90.00000
_cell_angle_gamma 90.00000

_symmetry_space_group_name_	'P 1'
_symmetry_space_group_name_H-M	'P 1'

loop_
_symmetry_equiv_pos_as_xyz
  x,y,z

loop_
_atom_site_label
_atom_site_type_symbol
_atom_site_fract_x
_atom_site_fract_y
_atom_site_fract_z
_atom_site_charge
P 	P 	0.12932 0.53362 0.39234 0.57200
O 	O 	0.08651 0.58080 0.30974 -0.45300
O 	O 	0.20872 0.60910 0.41074 -0.41800
O 	O 	0.07137 0.54220 0.47268 -0.34300
O 	O 	0.14850 0.37850 0.38318 -0.40200
H 	H 	0.15700 0.35400 0.32680 0.23900
P 	P 	0.12932 0.03362 0.89234 0.49600
O 	O 	0.08651 0.08080 0.80974 -0.49400
O 	O 	0.20872 0.10910 0.91074 -0.46300
O 	O 	0.07137 0.04220 0.97268 -0.38700
O 	O 	0.14850 0.87850 0.88318 -0.32800
H 	H 	0.15700 0.85400 0.82680 0.24000
P 	P 	0.62932 0.53362 0.89234 0.57900
O 	O 	0.58651 0.58080 0.80974 -0.42300
O 	O 	0.70872 0.60910 0.91074 -0.43100
O 	O 	0.57137 0.54220 0.97268 -0.36400
O 	O 	0.64850 0.37850 0.88318 -0.39900
H 	H 	0.65700 0.35400 0.82680 0.24500
P 	P 	0.62932 0.03362 0.39234 0.50200
O 	O 	0.58651 0.08080 0.30974 -0.44700
O 	O 	0.70872 0.10910 0.41074 -0.42400
O 	O 	0.57137 0.04220 0.47268 -0.33500
O 	O 	0.64850 0.87850 0.38318 -0.29100
H 	H 	0.65700 0.85400 0.32680 0.24300
P 	P 	0.87068 0.46638 0.39234 0.56900
O 	O 	0.91349 0.41920 0.30974 -0.37500
O 	O 	0.79128 0.39090 0.41074 -0.41300
O 	O 	0.92863 0.45780 0.47268 -0.24200
O 	O 	0.85150 0.62150 0.38318 -0.33700
H 	H 	0.84300 0.64600 0.32680 0.24900
P 	P 	0.87068 0.96638 0.89234 0.63300
O 	O 	0.91349 0.91920 0.80974 -0.33600
O 	O 	0.79128 0.89090 0.91074 -0.42000
O 	O 	0.92863 0.95780 0.97268 -0.21800
O 	O 	0.85150 0.12150 0.88318 -0.43700
H 	H 	0.84300 0.14600 0.82680 0.25100
P 	P 	0.37068 0.46638 0.89234 0.57700
O 	O 	0.41349 0.41920 0.80974 -0.44500
O 	O 	0.29128 0.39090 0.91074 -0.45400
O 	O 	0.42863 0.45780 0.97268 -0.36600
O 	O 	0.35150 0.62150 0.88318 -0.38300
H 	H 	0.34300 0.64600 0.82680 0.24600
P 	P 	0.37068 0.96638 0.39234 0.64400
O 	O 	0.41349 0.91920 0.30974 -0.38600
O 	O 	0.29128 0.89090 0.41074 -0.40600
O 	O 	0.42863 0.95780 0.47268 -0.26100
O 	O 	0.35150 0.12150 0.38318 -0.45000
H 	H 	0.34300 0.14600 0.32680 0.24700
P 	P 	0.37932 0.71638 0.64234 0.57800
O 	O 	0.33651 0.66920 0.55974 -0.43200
O 	O 	0.45872 0.64090 0.66074 -0.41200
O 	O 	0.32137 0.70780 0.72268 -0.32600
O 	O 	0.39850 0.87150 0.63318 -0.34900
H 	H 	0.40700 0.89600 0.57680 0.25300
P 	P 	0.37932 0.21638 0.14234 0.58000
O 	O 	0.33651 0.16920 0.05974 -0.41000
O 	O 	0.45872 0.14090 0.16074 -0.43300
O 	O 	0.32137 0.20780 0.22268 -0.34000
O 	O 	0.39850 0.37150 0.13318 -0.36900
H 	H 	0.40700 0.39600 0.07680 0.27800
P 	P 	0.87932 0.71638 0.14234 0.58000
O 	O 	0.83651 0.66920 0.05974 -0.37300
O 	O 	0.95872 0.64090 0.16074 -0.32700
O 	O 	0.82137 0.70780 0.22268 -0.30600
O 	O 	0.89850 0.87150 0.13318 -0.31600
H 	H 	0.90700 0.89600 0.07680 0.29700
P 	P 	0.87932 0.21638 0.64234 0.57500
O 	O 	0.83651 0.16920 0.55974 -0.43600
O 	O 	0.95872 0.14090 0.66074 -0.37800
O 	O 	0.82137 0.20780 0.72268 -0.33400
O 	O 	0.89850 0.37150 0.63318 -0.34700
H 	H 	0.90700 0.39600 0.57680 0.25400
P 	P 	0.12068 0.78362 0.64234 0.57800
O 	O 	0.16349 0.83080 0.55974 -0.42000
O 	O 	0.04128 0.85910 0.66074 -0.42600
O 	O 	0.17863 0.79220 0.72268 -0.32100
O 	O 	0.10150 0.62850 0.63318 -0.40100
H 	H 	0.09300 0.60400 0.57680 0.23700
P 	P 	0.12068 0.28362 0.14234 0.58100
O 	O 	0.16349 0.33080 0.05974 -0.39900
O 	O 	0.04128 0.35910 0.16074 -0.46100
O 	O 	0.17863 0.29220 0.22268 -0.33800
O 	O 	0.10150 0.12850 0.13318 -0.42000
H 	H 	0.09300 0.10400 0.07680 0.26400
P 	P 	0.62068 0.78362 0.14234 0.58200
O 	O 	0.66349 0.83080 0.05974 -0.36300
O 	O 	0.54128 0.85910 0.16074 -0.36000
O 	O 	0.67863 0.79220 0.22268 -0.30500
O 	O 	0.60150 0.62850 0.13318 -0.37000
H 	H 	0.59300 0.60400 0.07680 0.27900
P 	P 	0.62068 0.28362 0.64234 0.57800
O 	O 	0.66349 0.33080 0.55974 -0.42700
O 	O 	0.54128 0.35910 0.66074 -0.42700
O 	O 	0.67863 0.29220 0.72268 -0.33400
O 	O 	0.60150 0.12850 0.63318 -0.40100
H 	H 	0.59300 0.10400 0.57680 0.23800
Zn	Zn	0.00000 0.50000 0.23681 1.20800
H 	H 	-0.00000 0.50000 0.48900 0.12900
Zn	Zn	-0.00000 0.00000 0.73681 1.17200
H 	H 	-0.00000 0.00000 0.98900 0.05500
Zn	Zn	0.50000 0.50000 0.73681 1.24700
H 	H 	0.50000 0.50000 0.98900 0.19400
Zn	Zn	0.50000 0.00000 0.23681 1.21500
H 	H 	0.50000 -0.00000 0.48900 0.14300
Zn	Zn	0.25000 0.75000 0.48681 1.24800
H 	H 	0.25000 0.75000 0.73900 0.20900
Zn	Zn	0.25000 0.25000 0.98681 1.21600
H 	H 	0.25000 0.25000 0.23900 0.20500
Zn	Zn	0.75000 0.75000 0.98681 1.22200
H 	H 	0.75000 0.75000 0.23900 0.21500
Zn	Zn	0.75000 0.25000 0.48681 1.24600
H 	H 	0.75000 0.25000 0.73900 0.20400
