data_crystal

_cell_length_a 15.97200
_cell_length_b 9.86300
_cell_length_c 15.15600
_cell_angle_alpha 90.00000
_cell_angle_beta  90.00000
_cell_angle_gamma 90.00000

_symmetry_space_group_name_	'P 1'
_symmetry_space_group_name_H-M	'P 1'

loop_
_symmetry_equiv_pos_as_xyz
  x,y,z

loop_
_atom_site_label
_atom_site_type_symbol
_atom_site_fract_x
_atom_site_fract_y
_atom_site_fract_z
_atom_site_charge
P 	P 	0.87060 0.03340 0.84330 0.45000
O 	O 	0.91420 0.08160 0.92730 -0.41900
O 	O 	0.79130 0.10730 0.82530 -0.42800
O 	O 	0.92900 0.04140 0.76240 -0.17300
O 	O 	0.85080 0.87740 0.85240 -0.11100
P 	P 	0.87060 0.53340 0.34330 0.51900
O 	O 	0.91420 0.58160 0.42730 -0.33700
O 	O 	0.79130 0.60730 0.32530 -0.38400
O 	O 	0.92900 0.54140 0.26240 -0.12500
O 	O 	0.85080 0.37740 0.35240 -0.15100
P 	P 	0.37060 0.03340 0.34330 0.44900
O 	O 	0.41420 0.08160 0.42730 -0.42800
O 	O 	0.29130 0.10730 0.32530 -0.41600
O 	O 	0.42900 0.04140 0.26240 -0.21400
O 	O 	0.35080 0.87740 0.35240 -0.09400
P 	P 	0.37060 0.53340 0.84330 0.51900
O 	O 	0.41420 0.58160 0.92730 -0.44400
O 	O 	0.29130 0.60730 0.82530 -0.42100
O 	O 	0.42900 0.54140 0.76240 -0.18700
O 	O 	0.35080 0.37740 0.85240 -0.22500
P 	P 	0.12940 0.96660 0.84330 0.58800
O 	O 	0.08580 0.91840 0.92730 -0.44900
O 	O 	0.20870 0.89270 0.82530 -0.40600
O 	O 	0.07100 0.95860 0.76240 -0.19600
O 	O 	0.14920 0.12260 0.85240 -0.30200
P 	P 	0.12940 0.46660 0.34330 0.51700
O 	O 	0.08580 0.41840 0.42730 -0.44800
O 	O 	0.20870 0.39270 0.32530 -0.40200
O 	O 	0.07100 0.45860 0.26240 -0.22500
O 	O 	0.14920 0.62260 0.35240 -0.17100
P 	P 	0.62940 0.96660 0.34330 0.58500
O 	O 	0.58580 0.91840 0.42730 -0.35900
O 	O 	0.70870 0.89270 0.32530 -0.37000
O 	O 	0.57100 0.95860 0.26240 -0.13700
O 	O 	0.64920 0.12260 0.35240 -0.22900
P 	P 	0.62940 0.46660 0.84330 0.51700
O 	O 	0.58580 0.41840 0.92730 -0.45900
O 	O 	0.70870 0.39270 0.82530 -0.41300
O 	O 	0.57100 0.45860 0.76240 -0.18700
O 	O 	0.64920 0.62260 0.85240 -0.19100
P 	P 	0.12060 0.21660 0.09330 0.51500
O 	O 	0.16420 0.16840 0.17730 -0.42800
O 	O 	0.04130 0.14270 0.07530 -0.41900
O 	O 	0.17900 0.20860 0.01240 -0.14600
O 	O 	0.10080 0.37260 0.10240 -0.17100
P 	P 	0.12060 0.71660 0.59330 0.51800
O 	O 	0.16420 0.66840 0.67730 -0.42200
O 	O 	0.04130 0.64270 0.57530 -0.44200
O 	O 	0.17900 0.70860 0.51240 -0.18200
O 	O 	0.10080 0.87260 0.60240 -0.16700
P 	P 	0.62060 0.21660 0.59330 0.51700
O 	O 	0.66420 0.16840 0.67730 -0.42700
O 	O 	0.54130 0.14270 0.57530 -0.42800
O 	O 	0.67900 0.20860 0.51240 -0.19300
O 	O 	0.60080 0.37260 0.60240 -0.16700
P 	P 	0.62060 0.71660 0.09330 0.51500
O 	O 	0.66420 0.66840 0.17730 -0.39100
O 	O 	0.54130 0.64270 0.07530 -0.33500
O 	O 	0.67900 0.70860 0.01240 -0.11400
O 	O 	0.60080 0.87260 0.10240 -0.10900
P 	P 	0.37940 0.28340 0.09330 0.51800
O 	O 	0.33580 0.33160 0.17730 -0.39300
O 	O 	0.45870 0.35730 0.07530 -0.34900
O 	O 	0.32100 0.29140 0.01240 -0.13300
O 	O 	0.39920 0.12740 0.10240 -0.17300
P 	P 	0.37940 0.78340 0.59330 0.51900
O 	O 	0.33580 0.83160 0.67730 -0.38500
O 	O 	0.45870 0.85730 0.57530 -0.35600
O 	O 	0.32100 0.79140 0.51240 -0.16600
O 	O 	0.39920 0.62740 0.60240 -0.17000
P 	P 	0.87940 0.28340 0.59330 0.51700
O 	O 	0.83580 0.33160 0.67730 -0.39000
O 	O 	0.95870 0.35730 0.57530 -0.33800
O 	O 	0.82100 0.29140 0.51240 -0.17800
O 	O 	0.89920 0.12740 0.60240 -0.16800
P 	P 	0.87940 0.78340 0.09330 0.51400
O 	O 	0.83580 0.83160 0.17730 -0.35500
O 	O 	0.95870 0.85730 0.07530 -0.23900
O 	O 	0.82100 0.79140 0.01240 -0.09900
O 	O 	0.89920 0.62740 0.10240 -0.11100
Zn	Zn	0.00000 0.00000 0.99930 1.13400
Zn	Zn	-0.00000 0.50000 0.49930 1.21000
Zn	Zn	0.50000 0.00000 0.49930 1.21700
Zn	Zn	0.50000 0.50000 0.99930 1.20800
Zn	Zn	0.25000 0.25000 0.24930 1.24800
Zn	Zn	0.25000 0.75000 0.74930 1.24900
Zn	Zn	0.75000 0.25000 0.74930 1.24700
Zn	Zn	0.75000 0.75000 0.24930 1.25500
