data_crystal

_cell_length_a 10.24160
_cell_length_b 24.95600
_cell_length_c 11.44530
_cell_angle_alpha 90.00000
_cell_angle_beta  91.10600
_cell_angle_gamma 90.00000

_symmetry_space_group_name_	'P 1'
_symmetry_space_group_name_H-M	'P 1'

loop_
_symmetry_equiv_pos_as_xyz
  x,y,z

loop_
_atom_site_label
_atom_site_type_symbol
_atom_site_fract_x
_atom_site_fract_y
_atom_site_fract_z
_atom_site_charge
Co	Co	0.54913 0.86145 0.45244 1.16200
Co	Co	0.04984 0.94129 0.43574 1.16500
O 	O 	0.73640 0.89370 0.44750 -0.43300
O 	O 	0.23620 0.90880 0.44100 -0.43600
N 	N 	0.53790 0.85300 0.26250 -0.22600
N 	N 	0.54680 0.85740 0.64170 -0.22300
O 	O 	0.86050 0.96660 0.43130 -0.42500
N 	N 	0.05000 0.94480 0.62260 -0.22200
O 	O 	0.36070 0.83570 0.45160 -0.43400
C 	C 	0.25250 0.85950 0.44380 0.35600
C 	C 	0.94410 0.96090 0.68460 0.05600
H 	H 	0.86730 0.97110 0.64230 0.00600
C 	C 	0.43040 0.85510 0.20070 0.08200
H 	H 	0.34990 0.85770 0.24010 -0.00300
N 	N 	0.04890 0.94690 0.24600 -0.22900
C 	C 	0.15950 0.93490 0.69580 0.05500
H 	H 	0.23820 0.92520 0.65850 0.00600
C 	C 	0.65030 0.87090 0.71370 0.06300
H 	H 	0.72720 0.88320 0.67700 0.00200
O 	O 	0.01760 0.85480 0.42230 -0.43000
H 	H 	0.96000 0.83500 0.38200 0.20500
N 	N 	0.87380 0.52070 0.56050 -0.23900
O 	O 	0.51800 0.94790 0.45110 -0.42300
H 	H 	0.46700 0.95700 0.51000 0.18700
C 	C 	0.54690 0.84970 0.89120 0.04100
N 	N 	0.63100 0.78270 0.46560 -0.22900
C 	C 	0.05190 0.95110 0.00290 0.05000
C 	C 	0.16360 0.93760 0.81400 -0.12000
H 	H 	0.24240 0.93030 0.85620 0.06700
C 	C 	0.54430 0.84860 0.01750 0.04700
C 	C 	0.65340 0.86860 0.83010 -0.12200
H 	H 	0.72950 0.88000 0.87180 0.06600
C 	C 	0.75070 0.94270 0.43790 0.34300
C 	C 	0.42810 0.85380 0.08080 -0.13100
H 	H 	0.34690 0.85650 0.03970 0.07000
C 	C 	0.13300 0.82300 0.43800 -0.06300
H 	H 	0.14110 0.79900 0.36850 0.04900
C 	C 	0.94240 0.96340 0.80550 -0.11700
H 	H 	0.86460 0.97370 0.84340 0.06400
C 	C 	0.65210 0.84610 0.20600 0.06500
H 	H 	0.73070 0.84300 0.25080 -0.00500
C 	C 	0.74980 0.53080 0.54480 0.08900
H 	H 	0.69150 0.50120 0.54490 -0.00200
C 	C 	0.05290 0.95110 0.87130 0.04500
C 	C 	0.15860 0.95450 0.18790 0.08000
H 	H 	0.23780 0.95800 0.23190 -0.00400
C 	C 	0.95000 0.56330 0.56900 0.08100
H 	H 	0.03930 0.55830 0.59070 -0.00300
C 	C 	0.93970 0.94210 0.18420 0.07800
H 	H 	0.86060 0.93670 0.22450 0.00100
C 	C 	0.16420 0.95770 0.07120 -0.13400
H 	H 	0.24530 0.96440 0.03510 0.07100
C 	C 	0.65780 0.84350 0.08840 -0.12200
H 	H 	0.73980 0.83800 0.05280 0.06800
C 	C 	0.44560 0.83670 0.70160 0.05600
H 	H 	0.37340 0.82340 0.65700 0.01500
C 	C 	0.77620 0.62450 0.53020 0.06600
C 	C 	0.72500 0.67960 0.50830 0.04500
C 	C 	0.93450 0.94440 0.06530 -0.12800
H 	H 	0.85310 0.94150 0.02460 0.07000
C 	C 	0.43820 0.83320 0.82180 -0.11400
H 	H 	0.36150 0.82000 0.85720 0.06700
C 	C 	0.63120 0.97970 0.43090 -0.05600
H 	H 	0.63920 0.00810 0.49220 0.04800
C 	C 	0.90570 0.61440 0.54900 -0.13800
H 	H 	0.96620 0.64320 0.54840 0.07400
C 	C 	0.80540 0.72340 0.52180 -0.11700
H 	H 	0.89410 0.71900 0.54570 0.07100
C 	C 	0.69710 0.58040 0.52820 -0.14100
H 	H 	0.60570 0.58430 0.51540 0.07400
C 	C 	0.59910 0.68800 0.47090 -0.11800
H 	H 	0.54110 0.65860 0.46070 0.06500
C 	C 	0.55110 0.98400 0.21730 -0.12500
H 	H 	0.49430 0.95470 0.23110 0.08000
C 	C 	0.62490 0.00560 0.31010 0.08700
C 	C 	0.06460 0.80590 0.64730 -0.12300
H 	H 	0.01410 0.83790 0.64730 0.07800
C 	C 	0.19540 0.73860 0.54510 -0.11900
H 	H 	0.23350 0.72470 0.47640 0.06900
C 	C 	0.12830 0.78810 0.54630 0.07800
C 	C 	0.20200 0.71100 0.65400 0.02500
H 	H 	0.24840 0.67800 0.65710 0.01800
C 	C 	0.70510 0.04970 0.28730 -0.12500
H 	H 	0.75460 0.06580 0.34900 0.07300
C 	C 	0.71220 0.06950 0.17700 0.03800
H 	H 	0.76570 0.09990 0.16330 0.01400
C 	C 	0.64380 0.04670 0.08380 -0.10900
H 	H 	0.65440 0.05950 0.00640 0.06300
C 	C 	0.55960 0.00470 0.10680 0.03900
H 	H 	0.50720 0.99000 0.04530 0.01300
C 	C 	0.07900 0.77410 0.74820 0.03600
H 	H 	0.03840 0.78610 0.81720 0.01500
C 	C 	0.75390 0.77480 0.49960 0.06200
H 	H 	0.80950 0.80500 0.50940 0.00700
C 	C 	0.55630 0.74040 0.44770 0.06700
H 	H 	0.47010 0.74550 0.41780 0.00100
C 	C 	0.14500 0.72920 0.75400 -0.11100
H 	H 	0.15400 0.71000 0.82550 0.06300
Co	Co	0.45087 0.36145 0.54756 1.16100
Co	Co	0.95016 0.44129 0.56426 1.16500
O 	O 	0.26360 0.39370 0.55250 -0.43300
O 	O 	0.76380 0.40880 0.55900 -0.43600
N 	N 	0.46210 0.35300 0.73750 -0.22600
N 	N 	0.45320 0.35740 0.35830 -0.22300
O 	O 	0.13950 0.46660 0.56870 -0.42400
N 	N 	0.95000 0.44480 0.37740 -0.22200
O 	O 	0.63930 0.33570 0.54840 -0.43400
C 	C 	0.74750 0.35950 0.55620 0.35600
C 	C 	0.05590 0.46090 0.31540 0.05600
H 	H 	0.13270 0.47110 0.35770 0.00600
C 	C 	0.56960 0.35510 0.79930 0.08300
H 	H 	0.65010 0.35770 0.75990 -0.00300
N 	N 	0.95110 0.44690 0.75400 -0.22800
C 	C 	0.84050 0.43490 0.30420 0.05500
H 	H 	0.76180 0.42520 0.34150 0.00600
C 	C 	0.34970 0.37090 0.28630 0.06300
H 	H 	0.27280 0.38320 0.32300 0.00200
O 	O 	0.98240 0.35480 0.57770 -0.43000
H 	H 	0.04000 0.33500 0.61800 0.20500
N 	N 	0.12620 0.02070 0.43950 -0.23900
O 	O 	0.48200 0.44790 0.54890 -0.42400
H 	H 	0.53300 0.45700 0.49000 0.18800
C 	C 	0.45310 0.34970 0.10880 0.04100
N 	N 	0.36900 0.28270 0.53440 -0.22900
C 	C 	0.94810 0.45110 0.99710 0.05100
C 	C 	0.83640 0.43760 0.18600 -0.12100
H 	H 	0.75760 0.43030 0.14380 0.06700
C 	C 	0.45570 0.34860 0.98250 0.04700
C 	C 	0.34660 0.36860 0.16990 -0.12200
H 	H 	0.27050 0.38000 0.12820 0.06700
C 	C 	0.24930 0.44270 0.56210 0.34200
C 	C 	0.57190 0.35380 0.91920 -0.13100
H 	H 	0.65310 0.35650 0.96030 0.07000
C 	C 	0.86700 0.32300 0.56200 -0.06300
H 	H 	0.85890 0.29900 0.63150 0.04900
C 	C 	0.05760 0.46340 0.19450 -0.11800
H 	H 	0.13540 0.47370 0.15660 0.06400
C 	C 	0.34790 0.34610 0.79400 0.06500
H 	H 	0.26930 0.34300 0.74920 -0.00500
C 	C 	0.25020 0.03080 0.45520 0.08900
H 	H 	0.30850 0.00120 0.45510 -0.00200
C 	C 	0.94710 0.45110 0.12870 0.04600
C 	C 	0.84140 0.45450 0.81210 0.08000
H 	H 	0.76220 0.45800 0.76810 -0.00300
C 	C 	0.05000 0.06330 0.43100 0.08300
H 	H 	0.96070 0.05830 0.40930 -0.00400
C 	C 	0.06030 0.44210 0.81580 0.07800
H 	H 	0.13940 0.43670 0.77550 0.00100
C 	C 	0.83580 0.45770 0.92880 -0.13400
H 	H 	0.75470 0.46440 0.96490 0.07200
C 	C 	0.34220 0.34350 0.91160 -0.12200
H 	H 	0.26020 0.33800 0.94720 0.06800
C 	C 	0.55440 0.33670 0.29840 0.05600
H 	H 	0.62660 0.32340 0.34300 0.01500
C 	C 	0.22380 0.12450 0.46980 0.06600
C 	C 	0.27500 0.17960 0.49170 0.04400
C 	C 	0.06550 0.44440 0.93470 -0.12800
H 	H 	0.14690 0.44150 0.97540 0.07000
C 	C 	0.56180 0.33320 0.17820 -0.11400
H 	H 	0.63850 0.32000 0.14280 0.06700
C 	C 	0.36880 0.47970 0.56910 -0.05200
H 	H 	0.36080 0.50810 0.50780 0.04600
C 	C 	0.09430 0.11440 0.45100 -0.13900
H 	H 	0.03380 0.14320 0.45160 0.07400
C 	C 	0.19460 0.22340 0.47820 -0.11700
H 	H 	0.10590 0.21900 0.45430 0.07100
C 	C 	0.30290 0.08040 0.47180 -0.14100
H 	H 	0.39430 0.08430 0.48460 0.07400
C 	C 	0.40090 0.18800 0.52910 -0.11800
H 	H 	0.45890 0.15860 0.53930 0.06500
C 	C 	0.44890 0.48400 0.78270 -0.11700
H 	H 	0.50570 0.45470 0.76890 0.07800
C 	C 	0.37510 0.50560 0.68990 0.08100
C 	C 	0.93540 0.30590 0.35270 -0.12300
H 	H 	0.98590 0.33790 0.35270 0.07800
C 	C 	0.80460 0.23860 0.45490 -0.11900
H 	H 	0.76650 0.22470 0.52360 0.06900
C 	C 	0.87170 0.28810 0.45370 0.07800
C 	C 	0.79800 0.21100 0.34600 0.02500
H 	H 	0.75160 0.17800 0.34290 0.01800
C 	C 	0.29490 0.54970 0.71270 -0.12000
H 	H 	0.24540 0.56580 0.65100 0.07200
C 	C 	0.28780 0.56950 0.82300 0.03300
H 	H 	0.23430 0.59990 0.83670 0.01600
C 	C 	0.35620 0.54670 0.91620 -0.10300
H 	H 	0.34560 0.55950 0.99360 0.06100
C 	C 	0.44040 0.50470 0.89320 0.03000
H 	H 	0.49280 0.49000 0.95470 0.01600
C 	C 	0.92100 0.27410 0.25180 0.03600
H 	H 	0.96160 0.28610 0.18280 0.01500
C 	C 	0.24610 0.27480 0.50040 0.06200
H 	H 	0.19050 0.30500 0.49060 0.00700
C 	C 	0.44370 0.24040 0.55230 0.06700
H 	H 	0.52990 0.24550 0.58220 0.00100
C 	C 	0.85500 0.22920 0.24600 -0.11100
H 	H 	0.84600 0.21000 0.17450 0.06300
