data_crystal

_cell_length_a 11.43930
_cell_length_b 24.67490
_cell_length_c 20.32450
_cell_angle_alpha 90.00000
_cell_angle_beta  92.34710
_cell_angle_gamma 90.00000

_symmetry_space_group_name_	'P 1'
_symmetry_space_group_name_H-M	'P 1'

loop_
_symmetry_equiv_pos_as_xyz
  x,y,z

loop_
_atom_site_label
_atom_site_type_symbol
_atom_site_fract_x
_atom_site_fract_y
_atom_site_fract_z
_atom_site_charge
Co	Co	0.44476 0.50937 0.26380 1.16200
O 	O 	0.44760 0.54463 0.35628 -0.42700
O 	O 	0.44030 0.48149 0.16943 -0.43000
N 	N 	0.63420 0.50885 0.26294 -0.22600
O 	O 	0.43920 0.59571 0.24304 -0.45300
N 	N 	0.53870 0.92852 0.69835 -0.22600
N 	N 	0.25470 0.50366 0.26588 -0.22100
C 	C 	0.42730 0.59431 0.36099 0.32600
C 	C 	0.44170 0.50525 0.11468 0.34400
C 	C 	0.69310 0.51420 0.20790 0.06500
C 	C 	0.69740 0.50030 0.31920 0.06300
H 	H 	0.50000 0.60560 0.22300 0.21600
C 	C 	0.42030 0.62900 0.29834 -0.03600
O 	O 	0.41650 0.61951 0.41481 -0.42000
O 	O 	0.45430 0.55515 0.10625 -0.43100
C 	C 	0.42630 0.46817 0.05460 -0.06100
H 	H 	0.64990 0.52020 0.16760 0.00500
C 	C 	0.81370 0.51140 0.20670 -0.12300
H 	H 	0.65710 0.49610 0.35880 0.00200
C 	C 	0.81830 0.49741 0.32220 -0.12100
H 	H 	0.48440 0.65660 0.30160 0.04000
C 	C 	0.30400 0.65884 0.29190 0.07300
Co	Co	0.42515 0.59158 0.51020 1.15800
Co	Co	0.44296 0.58768 0.01172 1.15900
O 	O 	0.41610 0.50088 0.99655 -0.40800
H 	H 	0.35270 0.44670 0.05850 0.05000
C 	C 	0.52880 0.42941 0.05270 0.08600
H 	H 	0.85170 0.51500 0.16620 0.06800
C 	C 	0.87870 0.50351 0.26460 0.04800
H 	H 	0.85950 0.49130 0.36310 0.06700
C 	C 	0.21210 0.63930 0.25260 -0.11100
C 	C 	0.28810 0.70590 0.32850 -0.11200
N 	N 	0.23490 0.59855 0.51147 -0.22300
O 	O 	0.44060 0.55693 0.60427 -0.43000
N 	N 	0.43340 0.67116 0.55227 -0.22800
O 	O 	0.40420 0.50476 0.49331 -0.41500
N 	N 	0.61500 0.59677 0.50697 -0.22400
N 	N 	0.63250 0.58825 0.00906 -0.22200
O 	O 	0.43710 0.61401 0.91606 -0.42300
N 	N 	0.45700 0.66706 0.05336 -0.23000
N 	N 	0.25240 0.59586 0.01249 -0.22400
H 	H 	0.34700 0.49830 0.97370 0.17300
C 	C 	0.51780 0.37780 0.07830 -0.11800
C 	C 	0.63390 0.44480 0.02710 -0.11500
C 	C 	0.00910 0.50218 0.26540 0.04600
H 	H 	0.22290 0.60800 0.22630 0.07700
C 	C 	0.10300 0.66540 0.25120 0.02100
H 	H 	0.35120 0.72060 0.35460 0.06900
C 	C 	0.17850 0.73150 0.32670 0.01800
C 	C 	0.17610 0.58260 0.56350 0.06000
C 	C 	0.17160 0.62046 0.46060 0.05500
C 	C 	0.44270 0.50659 0.61085 0.34800
C 	C 	0.41730 0.67963 0.61590 0.06300
C 	C 	0.46580 0.71440 0.51680 0.06400
C 	C 	0.43200 0.47085 0.54890 -0.06900
H 	H 	0.33300 0.49700 0.47600 0.18200
C 	C 	0.69230 0.58180 0.95380 0.06200
C 	C 	0.69490 0.60119 0.06460 0.06100
C 	C 	0.44690 0.58978 0.86230 0.31600
C 	C 	0.41020 0.67877 0.11090 0.06700
C 	C 	0.51860 0.70620 0.02470 0.06700
H 	H 	0.44590 0.36670 0.09580 0.06900
C 	C 	0.61380 0.34160 0.07840 0.02000
H 	H 	0.64150 0.48020 0.00940 0.07500
C 	C 	0.72920 0.40930 0.02670 0.02500
C 	C 	0.07470 0.51567 0.32110 -0.12200
C 	C 	0.06880 0.48759 0.20930 -0.12000
H 	H 	0.04040 0.65160 0.22390 0.02000
C 	C 	0.08640 0.71030 0.28870 -0.09400
H 	H 	0.16750 0.76350 0.35170 0.02100
H 	H 	0.21900 0.56850 0.60060 0.00100
C 	C 	0.05530 0.58590 0.56580 -0.11900
C 	C 	0.05080 0.62409 0.45920 -0.11600
H 	H 	0.21190 0.63400 0.42420 0.01400
O 	O 	0.45190 0.48145 0.66462 -0.42800
H 	H 	0.39220 0.65000 0.64160 0.01000
C 	C 	0.43510 0.72932 0.64660 -0.12100
C 	C 	0.48450 0.76510 0.54400 -0.12000
H 	H 	0.47630 0.70980 0.47110 0.00200
C 	C 	0.54430 0.43972 0.54120 0.10600
H 	H 	0.36670 0.44440 0.55410 0.05000
H 	H 	0.64980 0.57390 0.91380 0.00700
C 	C 	0.81340 0.58610 0.95270 -0.12200
H 	H 	0.65410 0.60730 0.10370 -0.00100
C 	C 	0.81550 0.60602 0.06740 -0.12100
O 	O 	0.46040 0.53954 0.85534 -0.41500
C 	C 	0.44320 0.62591 0.80050 0.03600
H 	H 	0.36510 0.65180 0.13140 0.00700
C 	C 	0.42430 0.72813 0.14170 -0.12200
C 	C 	0.53720 0.75650 0.05270 -0.12200
H 	H 	0.55080 0.69880 0.98330 -0.00100
H 	H 	0.60740 0.30630 0.09640 0.01900
C 	C 	0.71730 0.35860 0.05180 -0.09400
H 	H 	0.80110 0.42040 0.00920 0.01900
C 	C 	0.19650 0.51590 0.31980 0.06500
H 	H 	0.03730 0.52480 0.36050 0.06700
C 	C 	0.18960 0.48842 0.21190 0.05800
H 	H 	0.02680 0.47730 0.16990 0.06500
H 	H 	0.01160 0.72710 0.28880 0.05800
C 	C 	0.99000 0.60515 0.51250 0.04300
H 	H 	0.01760 0.57480 0.60430 0.06500
H 	H 	0.00980 0.63940 0.42210 0.06700
Co	Co	0.45771 0.50598 0.76112 1.16700
H 	H 	0.42260 0.73310 0.69230 0.07100
C 	C 	0.47120 0.77326 0.61060 0.05000
H 	H 	0.50660 0.79450 0.51690 0.06900
C 	C 	0.56060 0.39170 0.57390 -0.14000
C 	C 	0.63010 0.45930 0.50330 -0.14100
H 	H 	0.85210 0.58130 0.91270 0.06700
C 	C 	0.87710 0.59738 0.01050 0.04700
H 	H 	0.85590 0.61510 0.10760 0.06700
O 	O 	0.46520 0.59294 0.74470 -0.64100
H 	H 	0.50700 0.65350 0.80550 0.01500
C 	C 	0.32690 0.65540 0.79269 0.04200
C 	C 	0.48960 0.76845 0.11250 0.04900
H 	H 	0.38960 0.73470 0.18260 0.07300
H 	H 	0.58250 0.78280 0.03110 0.06900
H 	H 	0.78150 0.33420 0.05110 0.05900
H 	H 	0.24020 0.52520 0.35890 -0.00100
H 	H 	0.22920 0.47770 0.17380 0.00400
C 	C 	0.86000 0.60489 0.51100 0.05000
N 	N 	0.64680 0.50138 0.75968 -0.22700
N 	N 	0.53500 0.92605 0.19923 -0.23000
N 	N 	0.26700 0.50109 0.75998 -0.22200
C 	C 	0.49450 0.82663 0.64150 0.04800
C 	C 	0.67030 0.36560 0.57010 0.04700
H 	H 	0.50000 0.37630 0.59850 0.07600
C 	C 	0.73690 0.43330 0.50090 0.05500
H 	H 	0.61650 0.49130 0.47820 0.08600
C 	C 	0.00710 0.59946 0.01150 0.04400
H 	H 	0.51400 0.60300 0.72600 0.37100
C 	C 	0.23790 0.63671 0.75110 -0.08700
C 	C 	0.30850 0.70170 0.83060 -0.09100
C 	C 	0.50670 0.82268 0.14350 0.05300
C 	C 	0.79600 0.59833 0.45170 -0.12600
C 	C 	0.79750 0.60950 0.56770 -0.12600
C 	C 	0.70460 0.50880 0.70450 0.06500
C 	C 	0.71130 0.49117 0.81440 0.06900
C 	C 	0.44760 0.84164 0.70090 -0.12000
C 	C 	0.56660 0.86440 0.61220 -0.11600
C 	C 	0.75640 0.38630 0.53350 -0.12300
H 	H 	0.68410 0.33280 0.59360 0.01000
H 	H 	0.79720 0.44870 0.47610 0.00800
C 	C 	0.07320 0.58320 0.06730 -0.12000
C 	C 	0.06730 0.61555 0.95730 -0.11800
H 	H 	0.25010 0.60570 0.72440 0.07200
C 	C 	0.12940 0.66300 0.74770 0.00300
H 	H 	0.36940 0.71500 0.85940 0.06200
C 	C 	0.20160 0.72840 0.82630 0.00100
C 	C 	0.50780 0.83050 0.21070 -0.12600
C 	C 	0.52100 0.86800 0.10520 -0.12300
C 	C 	0.67530 0.59493 0.45200 0.06800
H 	H 	0.83500 0.59620 0.41140 0.06900
C 	C 	0.67710 0.60510 0.56360 0.06800
H 	H 	0.83720 0.61560 0.60900 0.06700
C 	C 	0.82450 0.50700 0.70250 -0.12300
H 	H 	0.66060 0.51570 0.66470 0.00300
C 	C 	0.83190 0.48875 0.81730 -0.12400
H 	H 	0.67170 0.48520 0.85390 -0.00000
C 	C 	0.47170 0.89193 0.72730 0.07000
H 	H 	0.39880 0.81710 0.72320 0.07000
C 	C 	0.58540 0.91490 0.64190 0.07100
H 	H 	0.60270 0.85590 0.57220 0.06800
H 	H 	0.82910 0.36790 0.53090 0.06800
H 	H 	0.03550 0.57350 0.10640 0.06600
C 	C 	0.19370 0.58131 0.06536 0.06000
C 	C 	0.18910 0.61365 0.95980 0.05600
H 	H 	0.02590 0.62780 0.91870 0.06800
H 	H 	0.06810 0.64960 0.71930 0.02700
C 	C 	0.11130 0.70820 0.78550 -0.07700
H 	H 	0.19010 0.76030 0.85130 0.02600
C 	C 	0.52120 0.88250 0.23610 0.07300
H 	H 	0.49940 0.80050 0.23950 0.06900
C 	C 	0.53430 0.91800 0.13470 0.06700
H 	H 	0.52170 0.86480 0.05860 0.07600
H 	H 	0.63310 0.59110 0.41100 0.00400
H 	H 	0.63590 0.60810 0.60310 -0.00700
C 	C 	0.89170 0.49760 0.75980 0.04600
H 	H 	0.86140 0.51220 0.66200 0.06700
H 	H 	0.87350 0.48120 0.85770 0.06800
H 	H 	0.43930 0.90110 0.76820 0.00700
H 	H 	0.63350 0.94050 0.62100 0.00200
H 	H 	0.23710 0.56910 0.10340 0.00100
H 	H 	0.22920 0.62550 0.92240 0.01200
H 	H 	0.03720 0.72560 0.78360 0.05300
H 	H 	0.52050 0.88700 0.28250 -0.00000
H 	H 	0.54350 0.94860 0.10710 0.01700
C 	C 	0.02150 0.49792 0.76010 0.04900
C 	C 	0.08780 0.51133 0.81570 -0.12500
C 	C 	0.08220 0.48450 0.70380 -0.12500
C 	C 	0.20820 0.51242 0.81400 0.06800
H 	H 	0.05060 0.51980 0.85540 0.06800
C 	C 	0.20230 0.48630 0.70630 0.06700
H 	H 	0.04060 0.47420 0.66440 0.06700
H 	H 	0.25180 0.52170 0.85320 -0.00200
H 	H 	0.24190 0.47650 0.66780 0.00200
Co	Co	0.55524 0.00937 0.73620 1.15700
O 	O 	0.55240 0.04463 0.64372 -0.43000
O 	O 	0.55970 0.98149 0.83057 -0.40500
N 	N 	0.36580 0.00885 0.73706 -0.21300
O 	O 	0.56080 0.09571 0.75696 -0.45400
N 	N 	0.46130 0.42852 0.30165 -0.23000
N 	N 	0.74530 0.00366 0.73412 -0.23100
C 	C 	0.57270 0.09431 0.63901 0.32700
C 	C 	0.55830 0.00525 0.88532 0.30200
C 	C 	0.30690 0.01420 0.79210 0.04600
C 	C 	0.30260 0.00030 0.68080 -0.01100
H 	H 	0.50000 0.10560 0.77700 0.21600
C 	C 	0.57970 0.12900 0.70166 -0.03600
O 	O 	0.58350 0.11951 0.58519 -0.42100
O 	O 	0.54570 0.05515 0.89375 -0.42200
C 	C 	0.57370 0.96817 0.94540 -0.01700
H 	H 	0.35010 0.02020 0.83240 0.00800
C 	C 	0.18630 0.01140 0.79330 -0.09800
H 	H 	0.34290 0.99610 0.64120 0.03800
C 	C 	0.18170 0.99741 0.67780 -0.04200
H 	H 	0.51560 0.15660 0.69840 0.04000
C 	C 	0.69600 0.15884 0.70810 0.07300
Co	Co	0.57485 0.09158 0.48980 1.15800
Co	Co	0.55704 0.08768 0.98828 1.15800
O 	O 	0.58390 0.00088 0.00345 -0.43900
H 	H 	0.64730 0.94670 0.94150 0.04000
C 	C 	0.47120 0.92941 0.94730 0.07200
H 	H 	0.14830 0.01500 0.83380 0.05600
C 	C 	0.12130 0.00351 0.73540 0.00400
H 	H 	0.14050 0.99130 0.63690 0.04700
C 	C 	0.78790 0.13930 0.74740 -0.11000
C 	C 	0.71190 0.20590 0.67150 -0.11100
N 	N 	0.76510 0.09855 0.48853 -0.22400
O 	O 	0.55940 0.05693 0.39573 -0.42100
N 	N 	0.56660 0.17116 0.44773 -0.22800
O 	O 	0.59580 0.00476 0.50669 -0.44900
N 	N 	0.38500 0.09677 0.49303 -0.22500
N 	N 	0.36750 0.08825 0.99094 -0.22400
O 	O 	0.56290 0.11401 0.08394 -0.42300
N 	N 	0.54300 0.16706 0.94664 -0.23000
N 	N 	0.74760 0.09586 0.98751 -0.22500
H 	H 	0.65300 0.99830 0.02630 0.19300
C 	C 	0.48220 0.87780 0.92170 -0.10700
C 	C 	0.36610 0.94480 0.97290 -0.10200
C 	C 	0.99090 0.00218 0.73460 0.04500
H 	H 	0.77710 0.10800 0.77370 0.07600
C 	C 	0.89700 0.16540 0.74880 0.02100
H 	H 	0.64880 0.22060 0.64540 0.06900
C 	C 	0.82150 0.23150 0.67330 0.01800
C 	C 	0.82390 0.08260 0.43650 0.05900
C 	C 	0.82840 0.12046 0.53940 0.05400
C 	C 	0.55730 0.00659 0.38915 0.31000
C 	C 	0.58270 0.17963 0.38410 0.06200
C 	C 	0.53420 0.21440 0.48320 0.06400
C 	C 	0.56800 0.97085 0.45110 -0.02500
H 	H 	0.66700 0.99700 0.52400 0.20400
C 	C 	0.30770 0.08180 0.04620 0.06100
C 	C 	0.30510 0.10119 0.93540 0.06000
C 	C 	0.55310 0.08978 0.13770 0.31600
C 	C 	0.58980 0.17877 0.88910 0.06700
C 	C 	0.48140 0.20620 0.97530 0.06500
H 	H 	0.55410 0.86670 0.90420 0.06600
C 	C 	0.38620 0.84160 0.92160 0.01300
H 	H 	0.35850 0.98020 0.99060 0.07700
C 	C 	0.27080 0.90930 0.97330 0.01700
C 	C 	0.92530 0.01567 0.67890 -0.12700
C 	C 	0.93120 0.98759 0.79070 -0.11000
H 	H 	0.95960 0.15160 0.77610 0.02000
C 	C 	0.91360 0.21030 0.71130 -0.09300
H 	H 	0.83250 0.26350 0.64830 0.02100
H 	H 	0.78100 0.06850 0.39940 -0.00100
C 	C 	0.94470 0.08590 0.43420 -0.12100
C 	C 	0.94920 0.12409 0.54080 -0.11700
H 	H 	0.78810 0.13400 0.57580 0.01400
O 	O 	0.54810 0.98145 0.33538 -0.40500
H 	H 	0.60780 0.15000 0.35840 0.01000
C 	C 	0.56490 0.22932 0.35340 -0.12100
C 	C 	0.51550 0.26510 0.45600 -0.12000
H 	H 	0.52370 0.20980 0.52890 0.00200
C 	C 	0.45570 0.93972 0.45880 0.08900
H 	H 	0.63330 0.94440 0.44590 0.04000
H 	H 	0.35020 0.07390 0.08620 0.00500
C 	C 	0.18660 0.08610 0.04730 -0.12200
H 	H 	0.34590 0.10730 0.89630 -0.00100
C 	C 	0.18450 0.10602 0.93260 -0.12100
O 	O 	0.53960 0.03954 0.14466 -0.41900
C 	C 	0.55680 0.12591 0.19950 0.03600
H 	H 	0.63490 0.15180 0.86860 0.00700
C 	C 	0.57570 0.22813 0.85830 -0.12200
C 	C 	0.46280 0.25650 0.94730 -0.12100
H 	H 	0.44920 0.19880 0.01670 0.00100
H 	H 	0.39260 0.80630 0.90360 0.02100
C 	C 	0.28270 0.85860 0.94820 -0.08500
H 	H 	0.19890 0.92040 0.99080 0.02400
C 	C 	0.80350 0.01590 0.68020 0.06300
H 	H 	0.96270 0.02480 0.63950 0.06600
C 	C 	0.81040 0.98842 0.78810 0.07300
H 	H 	0.97320 0.97730 0.83010 0.06800
H 	H 	0.98840 0.22710 0.71120 0.05700
C 	C 	0.01000 0.10515 0.48750 0.04300
H 	H 	0.98240 0.07480 0.39570 0.06300
H 	H 	0.99020 0.13940 0.57790 0.06700
Co	Co	0.54229 0.00598 0.23888 1.16200
H 	H 	0.57740 0.23310 0.30770 0.07100
C 	C 	0.52880 0.27326 0.38940 0.05000
H 	H 	0.49340 0.29450 0.48310 0.06900
C 	C 	0.43940 0.89170 0.42610 -0.12500
C 	C 	0.36990 0.95930 0.49670 -0.12400
H 	H 	0.14790 0.08130 0.08730 0.06400
C 	C 	0.12290 0.09738 0.98950 0.04500
H 	H 	0.14410 0.11510 0.89240 0.06700
O 	O 	0.53480 0.09294 0.25530 -0.64200
H 	H 	0.49300 0.15350 0.19450 0.01500
C 	C 	0.67310 0.15540 0.20731 0.04200
C 	C 	0.51040 0.26845 0.88750 0.04800
H 	H 	0.61040 0.23470 0.81740 0.07300
H 	H 	0.41750 0.28280 0.96890 0.06800
H 	H 	0.21850 0.83420 0.94890 0.05700
H 	H 	0.75980 0.02520 0.64110 -0.00400
H 	H 	0.77080 0.97770 0.82620 0.00400
C 	C 	0.14000 0.10489 0.48900 0.04800
N 	N 	0.35320 0.00138 0.24032 -0.24000
N 	N 	0.46500 0.42605 0.80077 -0.23400
N 	N 	0.73300 0.00109 0.24002 -0.23400
C 	C 	0.50550 0.32663 0.35850 0.04800
C 	C 	0.32970 0.86560 0.42990 0.03600
H 	H 	0.50000 0.87630 0.40150 0.07200
C 	C 	0.26310 0.93330 0.49910 0.04300
H 	H 	0.38350 0.99130 0.52180 0.08600
C 	C 	0.99290 0.09946 0.98850 0.04100
H 	H 	0.48600 0.10300 0.27400 0.37100
C 	C 	0.76210 0.13671 0.24890 -0.08600
C 	C 	0.69150 0.20170 0.16940 -0.09100
C 	C 	0.49330 0.32268 0.85650 0.05400
C 	C 	0.20400 0.09833 0.54830 -0.12700
C 	C 	0.20250 0.10950 0.43230 -0.12600
C 	C 	0.29540 0.00880 0.29550 0.07300
C 	C 	0.28870 0.99117 0.18560 0.09200
C 	C 	0.55240 0.34164 0.29910 -0.12100
C 	C 	0.43340 0.36440 0.38780 -0.11700
C 	C 	0.24360 0.88630 0.46650 -0.11000
H 	H 	0.31590 0.83280 0.40640 0.01400
H 	H 	0.20280 0.94870 0.52390 0.01600
C 	C 	0.92680 0.08320 0.93270 -0.12000
C 	C 	0.93270 0.11555 0.04270 -0.11600
H 	H 	0.74990 0.10570 0.27560 0.07100
C 	C 	0.87060 0.16300 0.25230 0.00200
H 	H 	0.63060 0.21500 0.14060 0.06200
C 	C 	0.79840 0.22840 0.17370 0.00100
C 	C 	0.49220 0.33050 0.78930 -0.12600
C 	C 	0.47900 0.36800 0.89480 -0.12400
C 	C 	0.32470 0.09493 0.54800 0.06500
H 	H 	0.16500 0.09620 0.58860 0.06700
C 	C 	0.32290 0.10510 0.43640 0.06700
H 	H 	0.16280 0.11560 0.39100 0.06700
C 	C 	0.17550 0.00700 0.29750 -0.15000
H 	H 	0.33940 0.01570 0.33530 -0.00300
C 	C 	0.16810 0.98875 0.18270 -0.13700
H 	H 	0.32830 0.98520 0.14610 -0.00400
C 	C 	0.52830 0.39193 0.27270 0.07000
H 	H 	0.60120 0.31710 0.27680 0.06900
C 	C 	0.41460 0.41490 0.35810 0.07100
H 	H 	0.39730 0.35590 0.42780 0.06800
H 	H 	0.17090 0.86790 0.46910 0.06500
H 	H 	0.96450 0.07350 0.89360 0.06400
C 	C 	0.80630 0.08131 0.93464 0.05800
C 	C 	0.81090 0.11365 0.04020 0.05600
H 	H 	0.97410 0.12780 0.08130 0.06700
H 	H 	0.93190 0.14960 0.28070 0.02600
C 	C 	0.88870 0.20820 0.21450 -0.07700
H 	H 	0.80990 0.26030 0.14870 0.02600
C 	C 	0.47880 0.38250 0.76390 0.07300
H 	H 	0.50060 0.30050 0.76050 0.06900
C 	C 	0.46570 0.41800 0.86530 0.06700
H 	H 	0.47830 0.36480 0.94140 0.07600
H 	H 	0.36690 0.09110 0.58900 0.00300
H 	H 	0.36410 0.10810 0.39690 -0.00700
C 	C 	0.10830 0.99760 0.24020 0.06600
H 	H 	0.13860 0.01220 0.33800 0.07100
H 	H 	0.12650 0.98120 0.14230 0.07600
H 	H 	0.56070 0.40110 0.23180 0.00500
H 	H 	0.36650 0.44050 0.37900 -0.00200
H 	H 	0.76290 0.06910 0.89660 -0.00100
H 	H 	0.77080 0.12550 0.07760 0.01200
H 	H 	0.96280 0.22560 0.21640 0.05200
H 	H 	0.47950 0.38700 0.71750 -0.00100
H 	H 	0.45650 0.44860 0.89290 0.01300
C 	C 	0.97850 0.99792 0.23990 0.06700
C 	C 	0.91220 0.01133 0.18430 -0.15100
C 	C 	0.91780 0.98450 0.29620 -0.13700
C 	C 	0.79180 0.01242 0.18600 0.07700
H 	H 	0.94940 0.01980 0.14460 0.07200
C 	C 	0.79770 0.98630 0.29370 0.08900
H 	H 	0.95940 0.97420 0.33560 0.07500
H 	H 	0.74820 0.02170 0.14680 -0.00700
H 	H 	0.75810 0.97650 0.33220 -0.00100
