data_crystal

_cell_length_a 11.44630
_cell_length_b 24.65280
_cell_length_c 20.32560
_cell_angle_alpha 90.00000
_cell_angle_beta  92.69480
_cell_angle_gamma 90.00000

_symmetry_space_group_name_	'P 1'
_symmetry_space_group_name_H-M	'P 1'

loop_
_symmetry_equiv_pos_as_xyz
  x,y,z

loop_
_atom_site_label
_atom_site_type_symbol
_atom_site_fract_x
_atom_site_fract_y
_atom_site_fract_z
_atom_site_charge
Co	Co	0.43882 0.19040 0.26730 1.16200
Co	Co	0.44119 0.26607 0.01450 1.15800
Co	Co	0.46446 0.18621 0.76266 1.16200
Co	Co	0.42579 0.27185 0.51247 1.15700
N 	N 	0.62840 0.19100 0.26720 -0.22700
N 	N 	0.24960 0.18380 0.26990 -0.22200
O 	O 	0.43220 0.16233 0.17320 -0.43100
O 	O 	0.44240 0.22575 0.35900 -0.43300
O 	O 	0.45750 0.16149 0.66640 -0.43100
N 	N 	0.63100 0.26740 0.01390 -0.22300
O 	O 	0.45190 0.23528 0.10960 -0.43300
O 	O 	0.41460 0.30062 0.41770 -0.42700
N 	N 	0.23530 0.27750 0.51340 -0.22600
N 	N 	0.24970 0.27150 0.01500 -0.22300
O 	O 	0.44150 0.23685 0.60660 -0.43000
C 	C 	0.67480 0.27580 0.45400 0.06500
H 	H 	0.63200 0.27260 0.41300 0.00400
N 	N 	0.27330 0.17930 0.76110 -0.22100
O 	O 	0.43300 0.27632 0.24580 -0.43300
H 	H 	0.50300 0.28000 0.23300 0.19500
C 	C 	0.07090 0.26200 0.07150 -0.11500
H 	H 	0.03410 0.25320 0.11110 0.06400
N 	N 	0.61550 0.27700 0.50940 -0.22500
C 	C 	0.19200 0.25940 0.06900 0.05700
H 	H 	0.23610 0.24860 0.10760 0.00200
C 	C 	0.19080 0.19670 0.32420 0.06400
H 	H 	0.23510 0.20660 0.36310 -0.00100
C 	C 	0.07080 0.19630 0.32640 -0.12100
H 	H 	0.03450 0.20490 0.36610 0.06800
C 	C 	0.09490 0.19080 0.81520 -0.12300
H 	H 	0.05740 0.20050 0.85420 0.06800
O 	O 	0.40920 0.18460 0.49500 -0.45300
C 	C 	0.18210 0.16840 0.21680 0.06200
H 	H 	0.22050 0.15730 0.17860 0.00400
C 	C 	0.06490 0.29170 0.96030 -0.11300
H 	H 	0.02320 0.30370 0.92150 0.06600
C 	C 	0.18610 0.28850 0.96170 0.05300
H 	H 	0.22550 0.29870 0.92350 0.01100
C 	C 	0.00390 0.27730 0.01570 0.03900
C 	C 	0.20960 0.16090 0.70800 0.06000
H 	H 	0.24980 0.14890 0.67090 0.00500
C 	C 	0.42450 0.27570 0.36420 0.33600
C 	C 	0.81120 0.17710 0.32650 -0.12100
H 	H 	0.85240 0.16960 0.36720 0.06800
C 	C 	0.86090 0.28390 0.51280 0.04800
C 	C 	0.17630 0.25950 0.56440 0.06200
H 	H 	0.21940 0.24440 0.60110 -0.00000
C 	C 	0.05090 0.30490 0.46280 -0.11900
H 	H 	0.00950 0.32160 0.42660 0.06800
C 	C 	0.08820 0.15870 0.70520 -0.12000
H 	H 	0.04690 0.14620 0.66650 0.06600
C 	C 	0.21430 0.19250 0.81390 0.07000
H 	H 	0.25740 0.20370 0.85260 -0.00300
C 	C 	0.69160 0.18050 0.32360 0.06200
H 	H 	0.65130 0.17530 0.36290 0.00400
C 	C 	0.44710 0.18670 0.61320 0.34600
C 	C 	0.02800 0.17490 0.75940 0.04600
C 	C 	0.43590 0.15100 0.55050 -0.04000
H 	H 	0.37000 0.12490 0.55530 0.04500
C 	C 	0.00260 0.18300 0.27010 0.04400
C 	C 	0.41590 0.31030 0.30140 -0.05400
H 	H 	0.48010 0.33790 0.30410 0.04600
C 	C 	0.79640 0.27900 0.45400 -0.12400
H 	H 	0.83470 0.27790 0.41360 0.06800
C 	C 	0.87240 0.18490 0.26930 0.04800
C 	C 	0.06250 0.16750 0.21410 -0.12200
H 	H 	0.02030 0.15660 0.17500 0.06700
C 	C 	0.99110 0.28380 0.51460 0.04600
C 	C 	0.17270 0.30130 0.46420 0.05700
H 	H 	0.21290 0.31640 0.42870 0.01300
C 	C 	0.05630 0.26190 0.56640 -0.12300
H 	H 	0.01860 0.24820 0.60370 0.06600
C 	C 	0.67740 0.28350 0.56560 0.07000
H 	H 	0.63640 0.28600 0.60500 -0.00500
N 	N 	0.45550 0.10950 0.30340 -0.22900
N 	N 	0.55040 0.84600 0.94540 -0.22800
C 	C 	0.43650 0.18600 0.11860 0.34800
C 	C 	0.29980 0.34020 0.29500 0.08700
O 	O 	0.42590 0.17943 0.00010 -0.41900
H 	H 	0.35800 0.17800 0.97800 0.17900
O 	O 	0.46900 0.27277 0.74720 -0.45000
H 	H 	0.52300 0.29000 0.72700 0.21500
O 	O 	0.46630 0.21866 0.85760 -0.42100
C 	C 	0.50040 0.00710 0.35900 0.05300
C 	C 	0.54740 0.02260 0.29970 -0.10700
H 	H 	0.59570 0.99830 0.27700 0.06000
C 	C 	0.40940 0.09450 0.36010 0.07200
H 	H 	0.36090 0.11960 0.38140 0.00000
C 	C 	0.81010 0.25980 0.95900 -0.12900
H 	H 	0.84850 0.25090 0.92000 0.07000
C 	C 	0.89950 0.17540 0.75900 0.05000
C 	C 	0.83920 0.16690 0.81740 -0.12300
H 	H 	0.88100 0.15850 0.85750 0.06900
C 	C 	0.69140 0.25610 0.96040 0.07000
H 	H 	0.64890 0.24500 0.92140 0.00600
C 	C 	0.44380 0.30500 0.80310 -0.05400
H 	H 	0.50510 0.33370 0.80880 0.04400
C 	C 	0.69350 0.28470 0.06780 0.06600
H 	H 	0.65280 0.29450 0.10570 -0.00000
C 	C 	0.32510 0.33220 0.79360 0.08400
C 	C 	0.24160 0.31370 0.74750 -0.12400
H 	H 	0.26060 0.28490 0.71890 0.08100
C 	C 	0.50960 0.00260 0.85700 0.05900
C 	C 	0.51210 0.94400 0.45580 -0.12300
H 	H 	0.48850 0.97270 0.48350 0.06600
C 	C 	0.47780 0.93630 0.94740 -0.11800
H 	H 	0.43460 0.96300 0.96960 0.06600
C 	C 	0.13140 0.33640 0.74230 0.03500
H 	H 	0.07470 0.32240 0.71110 0.01600
C 	C 	0.53240 0.89350 0.48150 0.07200
H 	H 	0.52210 0.88820 0.52710 -0.00100
C 	C 	0.50080 0.01020 0.78960 -0.11200
H 	H 	0.50610 0.98010 0.76070 0.05900
N 	N 	0.47760 0.10580 0.80240 -0.22900
C 	C 	0.58150 0.86010 0.38330 0.06700
H 	H 	0.60720 0.83070 0.35740 0.00700
C 	C 	0.48410 0.06160 0.76470 0.06600
H 	H 	0.47690 0.06590 0.71820 0.00400
C 	C 	0.49390 0.88560 0.97490 0.06800
H 	H 	0.46320 0.87860 0.01660 -0.00200
C 	C 	0.58540 0.90730 0.85650 -0.11200
H 	H 	0.61890 0.91340 0.81530 0.07000
N 	N 	0.56570 0.85160 0.44620 -0.23200
C 	C 	0.56230 0.91000 0.35300 -0.12100
H 	H 	0.57430 0.91400 0.30730 0.06900
O 	O 	0.43590 0.29215 0.91860 -0.42900
C 	C 	0.59610 0.85720 0.88690 0.05900
H 	H 	0.63760 0.82940 0.86560 0.01500
C 	C 	0.20500 0.31950 0.25840 -0.12200
H 	H 	0.21390 0.28730 0.23360 0.08100
N 	N 	0.65390 0.18220 0.75990 -0.22700
C 	C 	0.54790 0.11900 0.54400 0.09100
C 	C 	0.87440 0.27640 0.01470 0.05200
C 	C 	0.09710 0.34530 0.25740 0.03400
H 	H 	0.03290 0.33030 0.23230 0.01500
C 	C 	0.44860 0.26910 0.86440 0.33500
C 	C 	0.71890 0.17100 0.81500 0.06600
H 	H 	0.67970 0.16550 0.85470 0.00100
C 	C 	0.10340 0.37910 0.78200 -0.10700
H 	H 	0.02790 0.39510 0.77820 0.06300
C 	C 	0.18640 0.39840 0.82740 0.03300
H 	H 	0.16750 0.42780 0.85520 0.01400
C 	C 	0.81300 0.28870 0.07050 -0.12600
H 	H 	0.85370 0.29970 0.11010 0.06900
C 	C 	0.52480 0.94850 0.88720 0.03600
C 	C 	0.80700 0.19450 0.21100 -0.12600
H 	H 	0.84440 0.19890 0.17060 0.06900
C 	C 	0.83070 0.18190 0.70220 -0.13200
H 	H 	0.86560 0.18330 0.66080 0.07100
C 	C 	0.49070 0.09820 0.86740 0.06400
H 	H 	0.48840 0.12910 0.89530 0.01600
C 	C 	0.68820 0.19750 0.21290 0.06900
H 	H 	0.64500 0.20470 0.17280 0.00300
C 	C 	0.52310 0.07330 0.27440 0.06500
H 	H 	0.55620 0.08320 0.23400 0.00900
C 	C 	0.29700 0.37550 0.83340 -0.12600
H 	H 	0.35350 0.38950 0.86470 0.07400
C 	C 	0.71280 0.18630 0.70540 0.07900
H 	H 	0.66890 0.19280 0.66540 0.00100
C 	C 	0.79820 0.28680 0.57030 -0.12500
H 	H 	0.83810 0.29110 0.61200 0.06800
C 	C 	0.52590 0.95360 0.38900 0.04300
C 	C 	0.63880 0.14020 0.51130 -0.12300
H 	H 	0.62970 0.17440 0.49020 0.08000
C 	C 	0.42880 0.04430 0.38890 -0.11900
H 	H 	0.39350 0.03530 0.42880 0.07200
C 	C 	0.50730 0.04810 0.89600 -0.12400
H 	H 	0.51700 0.04500 0.94260 0.08000
C 	C 	0.42110 0.14820 0.05870 -0.06100
H 	H 	0.34190 0.13110 0.05950 0.04600
C 	C 	0.51180 0.10360 0.06380 0.10000
C 	C 	0.17910 0.41510 0.32630 0.02800
H 	H 	0.17100 0.44890 0.34800 0.01700
C 	C 	0.62540 0.11480 0.05330 -0.12300
H 	H 	0.64800 0.15010 0.04000 0.07800
C 	C 	0.28580 0.38900 0.32830 -0.12300
H 	H 	0.35040 0.40440 0.35260 0.07200
C 	C 	0.08250 0.39150 0.29200 -0.10400
H 	H 	0.00750 0.40790 0.29300 0.06100
C 	C 	0.75960 0.06400 0.53820 -0.10600
H 	H 	0.83180 0.04510 0.53710 0.06500
C 	C 	0.55940 0.06950 0.57320 -0.12600
H 	H 	0.49610 0.05370 0.59490 0.07200
C 	C 	0.66650 0.04240 0.57060 0.03400
H 	H 	0.67560 0.00820 0.59170 0.01700
C 	C 	0.47980 0.05260 0.08420 -0.13700
H 	H 	0.40020 0.04610 0.09280 0.07700
C 	C 	0.67120 0.02190 0.08140 -0.09400
H 	H 	0.72670 0.99340 0.08650 0.05300
C 	C 	0.71020 0.07300 0.06270 0.02300
H 	H 	0.79070 0.07970 0.05640 0.02100
C 	C 	0.55830 0.01110 0.09240 0.04900
H 	H 	0.53430 0.97600 0.10550 0.00300
C 	C 	0.74510 0.11260 0.50840 0.03700
H 	H 	0.80730 0.12800 0.48530 0.01400
H 	H 	0.34230 0.18600 0.47720 0.20800
Co	Co	0.56118 0.69040 0.73270 1.16300
Co	Co	0.55881 0.76607 0.98550 1.15900
Co	Co	0.53554 0.68621 0.23734 1.16300
Co	Co	0.57421 0.77185 0.48753 1.15700
N 	N 	0.37160 0.69100 0.73280 -0.22700
N 	N 	0.75040 0.68380 0.73010 -0.22200
O 	O 	0.56780 0.66233 0.82680 -0.43100
O 	O 	0.55760 0.72575 0.64100 -0.43300
O 	O 	0.54250 0.66149 0.33360 -0.43100
N 	N 	0.36900 0.76740 0.98610 -0.22200
O 	O 	0.54810 0.73528 0.89040 -0.43300
O 	O 	0.58540 0.80062 0.58230 -0.42700
N 	N 	0.76470 0.77750 0.48660 -0.22600
N 	N 	0.75030 0.77150 0.98500 -0.22300
O 	O 	0.55850 0.73685 0.39340 -0.43000
C 	C 	0.32520 0.77580 0.54600 0.06500
H 	H 	0.36800 0.77260 0.58700 0.00400
N 	N 	0.72670 0.67930 0.23890 -0.22100
O 	O 	0.56700 0.77632 0.75420 -0.43300
H 	H 	0.49700 0.78000 0.76700 0.19500
C 	C 	0.92910 0.76200 0.92850 -0.11500
H 	H 	0.96590 0.75320 0.88890 0.06400
N 	N 	0.38450 0.77700 0.49060 -0.22500
C 	C 	0.80800 0.75940 0.93100 0.05700
H 	H 	0.76390 0.74860 0.89240 0.00200
C 	C 	0.80920 0.69670 0.67580 0.06300
H 	H 	0.76490 0.70660 0.63690 -0.00100
C 	C 	0.92920 0.69630 0.67360 -0.12100
H 	H 	0.96550 0.70490 0.63390 0.06800
C 	C 	0.90510 0.69080 0.18480 -0.12400
H 	H 	0.94260 0.70050 0.14580 0.06800
O 	O 	0.59080 0.68460 0.50500 -0.45300
C 	C 	0.81790 0.66840 0.78320 0.06200
H 	H 	0.77950 0.65730 0.82140 0.00400
C 	C 	0.93510 0.79170 0.03970 -0.11400
H 	H 	0.97680 0.80370 0.07850 0.06600
C 	C 	0.81390 0.78850 0.03830 0.05300
H 	H 	0.77450 0.79870 0.07650 0.01100
C 	C 	0.99610 0.77730 0.98430 0.03900
C 	C 	0.79040 0.66090 0.29200 0.06000
H 	H 	0.75020 0.64890 0.32910 0.00500
C 	C 	0.57550 0.77570 0.63580 0.33600
C 	C 	0.18880 0.67710 0.67350 -0.12100
H 	H 	0.14760 0.66960 0.63280 0.06700
C 	C 	0.13910 0.78390 0.48720 0.04800
C 	C 	0.82370 0.75950 0.43560 0.06100
H 	H 	0.78060 0.74440 0.39890 -0.00000
C 	C 	0.94910 0.80490 0.53720 -0.11800
H 	H 	0.99050 0.82160 0.57340 0.06800
C 	C 	0.91180 0.65870 0.29480 -0.12000
H 	H 	0.95310 0.64620 0.33350 0.06500
C 	C 	0.78570 0.69250 0.18610 0.07000
H 	H 	0.74260 0.70370 0.14740 -0.00300
C 	C 	0.30840 0.68050 0.67640 0.06200
H 	H 	0.34870 0.67530 0.63710 0.00400
C 	C 	0.55290 0.68670 0.38680 0.34600
C 	C 	0.97200 0.67490 0.24060 0.04600
C 	C 	0.56410 0.65100 0.44950 -0.04000
H 	H 	0.63000 0.62490 0.44470 0.04400
C 	C 	0.99740 0.68300 0.72990 0.04500
C 	C 	0.58410 0.81030 0.69860 -0.05400
H 	H 	0.51990 0.83790 0.69590 0.04500
C 	C 	0.20360 0.77900 0.54600 -0.12500
H 	H 	0.16530 0.77790 0.58640 0.06800
C 	C 	0.12760 0.68490 0.73070 0.04700
C 	C 	0.93750 0.66750 0.78590 -0.12200
H 	H 	0.97970 0.65660 0.82500 0.06700
C 	C 	0.00890 0.78380 0.48540 0.04500
C 	C 	0.82730 0.80130 0.53580 0.05600
H 	H 	0.78710 0.81640 0.57130 0.01300
C 	C 	0.94370 0.76190 0.43360 -0.12200
H 	H 	0.98140 0.74820 0.39630 0.06600
C 	C 	0.32260 0.78350 0.43440 0.07000
H 	H 	0.36360 0.78600 0.39500 -0.00500
N 	N 	0.54450 0.60950 0.69660 -0.23000
N 	N 	0.44960 0.34600 0.05460 -0.22900
C 	C 	0.56350 0.68600 0.88140 0.34800
C 	C 	0.70020 0.84020 0.70500 0.08700
O 	O 	0.57410 0.67943 0.99990 -0.41900
H 	H 	0.64200 0.67800 0.02200 0.17800
O 	O 	0.53100 0.77277 0.25280 -0.45000
H 	H 	0.47700 0.79000 0.27300 0.21500
O 	O 	0.53370 0.71866 0.14240 -0.42100
C 	C 	0.49960 0.50710 0.64100 0.04700
C 	C 	0.45260 0.52260 0.70030 -0.12100
H 	H 	0.40430 0.49830 0.72300 0.07000
C 	C 	0.59060 0.59450 0.63990 0.07100
H 	H 	0.63910 0.61960 0.61860 0.00000
C 	C 	0.18990 0.75980 0.04100 -0.12900
H 	H 	0.15150 0.75090 0.08000 0.07000
C 	C 	0.10050 0.67540 0.24100 0.04900
C 	C 	0.16080 0.66690 0.18260 -0.12300
H 	H 	0.11900 0.65850 0.14250 0.06800
C 	C 	0.30860 0.75610 0.03960 0.06900
H 	H 	0.35110 0.74500 0.07860 0.00600
C 	C 	0.55620 0.80500 0.19690 -0.05400
H 	H 	0.49490 0.83370 0.19120 0.04400
C 	C 	0.30650 0.78470 0.93220 0.06500
H 	H 	0.34720 0.79450 0.89430 -0.00000
C 	C 	0.67490 0.83220 0.20640 0.08400
C 	C 	0.75840 0.81370 0.25250 -0.12400
H 	H 	0.73940 0.78490 0.28110 0.08100
C 	C 	0.49040 0.50260 0.14300 0.05400
C 	C 	0.48790 0.44400 0.54420 -0.12800
H 	H 	0.51150 0.47270 0.51650 0.07100
C 	C 	0.52220 0.43630 0.05260 -0.12200
H 	H 	0.56540 0.46300 0.03040 0.07000
C 	C 	0.86860 0.83640 0.25770 0.03500
H 	H 	0.92530 0.82240 0.28890 0.01600
C 	C 	0.46760 0.39350 0.51850 0.07600
H 	H 	0.47790 0.38820 0.47290 -0.00200
C 	C 	0.49920 0.51020 0.21040 -0.12700
H 	H 	0.49390 0.48010 0.23930 0.06900
N 	N 	0.52240 0.60580 0.19760 -0.23000
C 	C 	0.41850 0.36010 0.61670 0.07000
H 	H 	0.39280 0.33070 0.64260 0.00600
C 	C 	0.51590 0.56160 0.23530 0.07200
H 	H 	0.52310 0.56590 0.28180 0.00100
C 	C 	0.50610 0.38560 0.02510 0.07000
H 	H 	0.53680 0.37860 0.98340 -0.00200
C 	C 	0.41460 0.40730 0.14350 -0.11600
H 	H 	0.38110 0.41340 0.18470 0.07300
N 	N 	0.43430 0.35160 0.55380 -0.23300
C 	C 	0.43770 0.41000 0.64700 -0.12500
H 	H 	0.42570 0.41400 0.69270 0.07100
O 	O 	0.56410 0.79215 0.08140 -0.42900
C 	C 	0.40390 0.35720 0.11310 0.06200
H 	H 	0.36240 0.32940 0.13440 0.01400
C 	C 	0.79500 0.81950 0.74160 -0.12200
H 	H 	0.78610 0.78730 0.76640 0.08100
N 	N 	0.34610 0.68220 0.24010 -0.22700
C 	C 	0.45210 0.61900 0.45600 0.09100
C 	C 	0.12560 0.77640 0.98530 0.05200
C 	C 	0.90290 0.84530 0.74260 0.03300
H 	H 	0.96710 0.83030 0.76770 0.01500
C 	C 	0.55140 0.76910 0.13560 0.33500
C 	C 	0.28110 0.67100 0.18500 0.06500
H 	H 	0.32030 0.66550 0.14530 0.00100
C 	C 	0.89660 0.87910 0.21800 -0.10800
H 	H 	0.97210 0.89510 0.22180 0.06200
C 	C 	0.81360 0.89840 0.17260 0.03200
H 	H 	0.83250 0.92780 0.14480 0.01300
C 	C 	0.18700 0.78870 0.92950 -0.12600
H 	H 	0.14630 0.79970 0.88990 0.06800
C 	C 	0.47520 0.44850 0.11280 0.04600
C 	C 	0.19300 0.69450 0.78900 -0.12600
H 	H 	0.15560 0.69890 0.82940 0.06900
C 	C 	0.16930 0.68190 0.29780 -0.13200
H 	H 	0.13440 0.68330 0.33920 0.07100
C 	C 	0.50930 0.59820 0.13260 0.06300
H 	H 	0.51160 0.62910 0.10470 0.01600
C 	C 	0.31180 0.69750 0.78710 0.06900
H 	H 	0.35500 0.70470 0.82720 0.00300
C 	C 	0.47690 0.57330 0.72560 0.07000
H 	H 	0.44380 0.58320 0.76600 0.00600
C 	C 	0.70300 0.87550 0.16660 -0.12600
H 	H 	0.64650 0.88950 0.13530 0.07400
C 	C 	0.28720 0.68630 0.29460 0.07800
H 	H 	0.33110 0.69280 0.33460 0.00100
C 	C 	0.20180 0.78680 0.42970 -0.12500
H 	H 	0.16190 0.79110 0.38800 0.06800
C 	C 	0.47410 0.45360 0.61100 0.05400
C 	C 	0.36120 0.64020 0.48870 -0.12300
H 	H 	0.37030 0.67440 0.50980 0.08000
C 	C 	0.57120 0.54430 0.61110 -0.11800
H 	H 	0.60650 0.53530 0.57120 0.06900
C 	C 	0.49270 0.54810 0.10400 -0.12300
H 	H 	0.48300 0.54500 0.05740 0.07800
C 	C 	0.57890 0.64820 0.94130 -0.06000
H 	H 	0.65810 0.63110 0.94050 0.04600
C 	C 	0.48820 0.60360 0.93620 0.09700
C 	C 	0.82090 0.91510 0.67370 0.02800
H 	H 	0.82900 0.94890 0.65200 0.01500
C 	C 	0.37460 0.61480 0.94670 -0.12300
H 	H 	0.35200 0.65010 0.96000 0.07800
C 	C 	0.71420 0.88900 0.67170 -0.12300
H 	H 	0.64960 0.90440 0.64740 0.07100
C 	C 	0.91750 0.89150 0.70800 -0.10500
H 	H 	0.99250 0.90790 0.70700 0.06000
C 	C 	0.24040 0.56400 0.46180 -0.10700
H 	H 	0.16820 0.54510 0.46290 0.06300
C 	C 	0.44060 0.56950 0.42680 -0.12700
H 	H 	0.50390 0.55370 0.40510 0.07100
C 	C 	0.33350 0.54240 0.42940 0.03400
H 	H 	0.32440 0.50820 0.40830 0.01500
C 	C 	0.52020 0.55260 0.91580 -0.13100
H 	H 	0.59980 0.54610 0.90720 0.07300
C 	C 	0.32880 0.52190 0.91860 -0.10300
H 	H 	0.27330 0.49340 0.91350 0.06100
C 	C 	0.28980 0.57300 0.93730 0.02600
H 	H 	0.20930 0.57970 0.94360 0.01800
C 	C 	0.44170 0.51110 0.90760 0.03700
H 	H 	0.46570 0.47600 0.89450 0.01100
C 	C 	0.25490 0.61260 0.49160 0.03700
H 	H 	0.19270 0.62800 0.51470 0.01400
H 	H 	0.65770 0.68600 0.52280 0.20800
