data_crystal

_cell_length_a 10.22920
_cell_length_b 24.70020
_cell_length_c 11.42430
_cell_angle_alpha 90.00000
_cell_angle_beta  90.08700
_cell_angle_gamma 90.00000

_symmetry_space_group_name_	'P 1'
_symmetry_space_group_name_H-M	'P 1'

loop_
_symmetry_equiv_pos_as_xyz
  x,y,z

loop_
_atom_site_label
_atom_site_type_symbol
_atom_site_fract_x
_atom_site_fract_y
_atom_site_fract_z
_atom_site_charge
Co	Co	0.95568 0.18183 0.07918 1.16200
Co	Co	0.45687 0.26113 0.05656 1.15800
O 	O 	0.76880 0.21420 0.07500 -0.42100
O 	O 	0.26870 0.22830 0.06420 -0.44600
O 	O 	0.64650 0.28800 0.05550 -0.42900
O 	O 	0.14510 0.15560 0.08140 -0.44200
N 	N 	0.95670 0.17610 0.26760 -0.22900
N 	N 	0.95710 0.17790 0.88720 -0.22500
N 	N 	0.46000 0.26400 0.86500 -0.22800
C 	C 	0.84910 0.18380 0.82890 0.07700
H 	H 	0.77060 0.19010 0.87100 -0.00400
N 	N 	0.46300 0.26860 0.24400 -0.22800
C 	C 	0.25170 0.17940 0.07370 0.37500
N 	N 	0.37580 0.34080 0.04160 -0.23700
C 	C 	0.35630 0.25250 0.80370 0.07400
H 	H 	0.28110 0.24000 0.84420 -0.00500
O 	O 	0.98690 0.26920 0.09090 -0.45000
H 	H 	0.03500 0.28300 0.14600 0.21400
C 	C 	0.95370 0.17100 0.51180 0.05900
N 	N 	0.12310 0.60180 0.92740 -0.24300
C 	C 	0.34870 0.25740 0.68350 -0.12600
H 	H 	0.26810 0.25090 0.64450 0.06700
O 	O 	0.48640 0.17360 0.05080 -0.40900
H 	H 	0.50600 0.17000 0.97600 0.17400
C 	C 	0.06510 0.18110 0.33280 0.07800
H 	H 	0.14530 0.18720 0.29320 0.00000
C 	C 	0.95560 0.17140 0.64120 0.04400
C 	C 	0.84350 0.18140 0.70830 -0.12400
H 	H 	0.76200 0.18660 0.66990 0.06800
C 	C 	0.57630 0.26790 0.43060 -0.13100
H 	H 	0.65710 0.26630 0.47160 0.07000
C 	C 	0.56310 0.28320 0.80780 0.05700
H 	H 	0.63760 0.29450 0.85120 0.01300
C 	C 	0.06270 0.16290 0.82700 0.07000
H 	H 	0.14020 0.15440 0.86910 -0.00000
C 	C 	0.06830 0.17800 0.45090 -0.13700
H 	H 	0.14910 0.18080 0.49160 0.07200
C 	C 	0.45900 0.27180 0.61960 0.04500
C 	C 	0.84210 0.16320 0.44920 -0.13400
H 	H 	0.76220 0.15550 0.48790 0.07200
C 	C 	0.46060 0.27290 0.48980 0.05400
C 	C 	0.75420 0.26540 0.06680 0.33400
C 	C 	0.56530 0.28730 0.68350 -0.11600
H 	H 	0.64090 0.30080 0.64510 0.06700
C 	C 	0.57270 0.26530 0.31090 0.06800
H 	H 	0.65360 0.26080 0.27140 0.00300
C 	C 	0.84640 0.16670 0.33040 0.07100
H 	H 	0.76680 0.16230 0.28860 -0.00000
C 	C 	0.06500 0.15910 0.70790 -0.12500
H 	H 	0.14290 0.14790 0.66990 0.06700
C 	C 	0.37300 0.14260 0.07550 -0.07800
H 	H 	0.36270 0.11480 0.01250 0.05300
C 	C 	0.27700 0.44320 0.99000 0.05400
C 	C 	0.87510 0.30150 0.07230 -0.04100
H 	H 	0.86560 0.32680 0.14010 0.04000
C 	C 	0.35240 0.27650 0.30380 0.07200
H 	H 	0.27320 0.28060 0.26120 -0.00700
C 	C 	0.24770 0.59250 0.93770 0.08100
H 	H 	0.30580 0.62230 0.93060 0.01100
C 	C 	0.25260 0.34940 0.02160 0.08300
H 	H 	0.19540 0.31910 0.02430 0.00400
C 	C 	0.45240 0.38250 0.03400 0.07700
H 	H 	0.54360 0.37760 0.04580 -0.00200
C 	C 	0.22350 0.49840 0.96360 0.07100
C 	C 	0.88200 0.33490 0.96030 0.07200
C 	C 	0.34770 0.27910 0.42370 -0.12900
H 	H 	0.26650 0.28520 0.46170 0.06900
C 	C 	0.40520 0.43460 0.00900 -0.12700
H 	H 	0.46450 0.46410 0.00580 0.06800
C 	C 	0.19880 0.39920 0.99680 -0.13400
H 	H 	0.10730 0.40260 0.98460 0.07600
C 	C 	0.05240 0.55900 0.92700 0.09900
H 	H 	0.96120 0.56350 0.91480 -0.00800
C 	C 	0.38170 0.11360 0.19180 0.10600
C 	C 	0.37100 0.06830 0.41800 -0.13300
H 	H 	0.37180 0.05210 0.49300 0.07300
C 	C 	0.45580 0.13530 0.28100 -0.13900
H 	H 	0.51180 0.16530 0.26760 0.08600
C 	C 	0.30130 0.54190 0.95840 -0.13900
H 	H 	0.39300 0.53800 0.96890 0.07500
C 	C 	0.09630 0.50750 0.94400 -0.15400
H 	H 	0.03670 0.47800 0.94110 0.07800
C 	C 	0.94920 0.31660 0.86490 -0.10500
H 	H 	0.99740 0.28370 0.86780 0.07400
C 	C 	0.30180 0.06970 0.21970 -0.14500
H 	H 	0.25030 0.05380 0.15950 0.08100
C 	C 	0.81130 0.41530 0.85700 0.01600
H 	H 	0.76590 0.44890 0.85620 0.01900
C 	C 	0.94500 0.34930 0.75780 0.00500
H 	H 	0.98890 0.33840 0.68870 0.02600
C 	C 	0.81680 0.38370 0.95700 -0.11000
H 	H 	0.77410 0.39610 0.02570 0.06500
C 	C 	0.87200 0.39670 0.76200 -0.08500
H 	H 	0.86590 0.41750 0.69230 0.05500
C 	C 	0.44600 0.11150 0.39290 0.05500
H 	H 	0.49510 0.12710 0.45490 0.00900
C 	C 	0.29500 0.04880 0.32880 0.06200
H 	H 	0.23550 0.02010 0.34420 0.00700
Co	Co	0.04432 0.68183 0.92082 1.16300
Co	Co	0.54313 0.76113 0.94344 1.15900
O 	O 	0.23120 0.71420 0.92500 -0.42000
O 	O 	0.73130 0.72830 0.93580 -0.44600
O 	O 	0.35350 0.78800 0.94450 -0.42800
O 	O 	0.85490 0.65560 0.91860 -0.44100
N 	N 	0.04330 0.67610 0.73240 -0.23000
N 	N 	0.04290 0.67790 0.11280 -0.22500
N 	N 	0.54000 0.76400 0.13500 -0.22800
C 	C 	0.15090 0.68380 0.17110 0.07700
H 	H 	0.22940 0.69010 0.12900 -0.00400
N 	N 	0.53700 0.76860 0.75600 -0.22800
C 	C 	0.74830 0.67940 0.92630 0.37500
N 	N 	0.62420 0.84080 0.95840 -0.24000
C 	C 	0.64370 0.75250 0.19630 0.07300
H 	H 	0.71890 0.74000 0.15580 -0.00500
O 	O 	0.01310 0.76920 0.90910 -0.45100
H 	H 	0.96500 0.78300 0.85400 0.21400
C 	C 	0.04630 0.67100 0.48820 0.05800
N 	N 	0.87690 0.10180 0.07260 -0.23600
C 	C 	0.65130 0.75740 0.31650 -0.12600
H 	H 	0.73190 0.75090 0.35550 0.06700
O 	O 	0.51360 0.67360 0.94920 -0.40900
H 	H 	0.49400 0.67000 0.02400 0.17300
C 	C 	0.93490 0.68110 0.66720 0.07800
H 	H 	0.85470 0.68720 0.70680 0.00000
C 	C 	0.04440 0.67140 0.35880 0.04300
C 	C 	0.15650 0.68140 0.29170 -0.12400
H 	H 	0.23800 0.68660 0.33010 0.06800
C 	C 	0.42370 0.76790 0.56940 -0.13100
H 	H 	0.34290 0.76630 0.52840 0.06900
C 	C 	0.43690 0.78320 0.19220 0.05700
H 	H 	0.36240 0.79450 0.14880 0.01300
C 	C 	0.93730 0.66290 0.17300 0.07000
H 	H 	0.85980 0.65440 0.13090 -0.00100
C 	C 	0.93170 0.67800 0.54910 -0.13600
H 	H 	0.85090 0.68080 0.50840 0.07200
C 	C 	0.54100 0.77180 0.38040 0.04500
C 	C 	0.15790 0.66320 0.55080 -0.13400
H 	H 	0.23780 0.65550 0.51210 0.07200
C 	C 	0.53940 0.77290 0.51020 0.05300
C 	C 	0.24580 0.76540 0.93320 0.33400
C 	C 	0.43470 0.78730 0.31650 -0.11600
H 	H 	0.35910 0.80080 0.35490 0.06700
C 	C 	0.42730 0.76530 0.68910 0.06800
H 	H 	0.34640 0.76080 0.72860 0.00300
C 	C 	0.15360 0.66670 0.66960 0.07000
H 	H 	0.23320 0.66230 0.71140 -0.00000
C 	C 	0.93500 0.65910 0.29210 -0.12500
H 	H 	0.85710 0.64790 0.33010 0.06700
C 	C 	0.62700 0.64260 0.92450 -0.07800
H 	H 	0.63730 0.61480 0.98750 0.05300
C 	C 	0.72300 0.94320 0.01000 0.07300
C 	C 	0.12490 0.80150 0.92770 -0.04000
H 	H 	0.13440 0.82680 0.85990 0.04000
C 	C 	0.64760 0.77650 0.69620 0.07200
H 	H 	0.72680 0.78060 0.73880 -0.00700
C 	C 	0.75230 0.09250 0.06230 0.06500
H 	H 	0.69420 0.12230 0.06940 0.01600
C 	C 	0.74740 0.84940 0.97840 0.08900
H 	H 	0.80460 0.81910 0.97570 0.00200
C 	C 	0.54760 0.88250 0.96600 0.08200
H 	H 	0.45640 0.87760 0.95420 -0.00400
C 	C 	0.77650 0.99840 0.03640 0.03000
C 	C 	0.11800 0.83490 0.03970 0.07200
C 	C 	0.65230 0.77910 0.57630 -0.12900
H 	H 	0.73350 0.78520 0.53830 0.06900
C 	C 	0.59480 0.93460 0.99100 -0.14000
H 	H 	0.53550 0.96410 0.99420 0.07000
C 	C 	0.80120 0.89920 0.00320 -0.14800
H 	H 	0.89270 0.90260 0.01540 0.08100
C 	C 	0.94760 0.05900 0.07300 0.07800
H 	H 	0.03880 0.06350 0.08520 -0.00100
C 	C 	0.61830 0.61360 0.80820 0.10500
C 	C 	0.62900 0.56830 0.58200 -0.13300
H 	H 	0.62820 0.55210 0.50700 0.07100
C 	C 	0.54420 0.63530 0.71900 -0.13900
H 	H 	0.48820 0.66530 0.73240 0.08600
C 	C 	0.69870 0.04190 0.04160 -0.10700
H 	H 	0.60700 0.03800 0.03110 0.06600
C 	C 	0.90370 0.00750 0.05600 -0.10800
H 	H 	0.96330 0.97800 0.05890 0.05900
C 	C 	0.05080 0.81660 0.13510 -0.10400
H 	H 	0.00260 0.78370 0.13220 0.07300
C 	C 	0.69820 0.56970 0.78030 -0.14500
H 	H 	0.74970 0.55380 0.84050 0.08000
C 	C 	0.18870 0.91530 0.14300 0.01600
H 	H 	0.23410 0.94890 0.14380 0.01700
C 	C 	0.05500 0.84930 0.24220 0.00500
H 	H 	0.01110 0.83840 0.31130 0.02500
C 	C 	0.18320 0.88370 0.04300 -0.11000
H 	H 	0.22590 0.89610 0.97430 0.06500
C 	C 	0.12800 0.89670 0.23800 -0.08600
H 	H 	0.13410 0.91750 0.30770 0.05400
C 	C 	0.55400 0.61150 0.60710 0.05500
H 	H 	0.50490 0.62710 0.54510 0.00900
C 	C 	0.70500 0.54880 0.67120 0.06100
H 	H 	0.76450 0.52010 0.65580 0.00600
