data_crystal

_cell_length_a 10.22080
_cell_length_b 23.96600
_cell_length_c 11.42860
_cell_angle_alpha 90.00000
_cell_angle_beta  91.71140
_cell_angle_gamma 90.00000

_symmetry_space_group_name_	'P 1'
_symmetry_space_group_name_H-M	'P 1'

loop_
_symmetry_equiv_pos_as_xyz
  x,y,z

loop_
_atom_site_label
_atom_site_type_symbol
_atom_site_fract_x
_atom_site_fract_y
_atom_site_fract_z
_atom_site_charge
Co	Co	0.99598 0.66051 0.58053 1.16300
Co	Co	0.49338 0.74161 0.56191 1.15900
O 	O 	0.30580 0.70760 0.56160 -0.43400
O 	O 	0.80800 0.69410 0.56940 -0.42400
O 	O 	0.18500 0.63150 0.58520 -0.43100
O 	O 	0.68250 0.77050 0.56350 -0.43000
N 	N 	0.99570 0.65370 0.77150 -0.22200
N 	N 	0.49270 0.74880 0.75140 -0.22200
N 	N 	0.49690 0.74280 0.37190 -0.23200
C 	C 	0.10660 0.66020 0.32750 0.08300
H 	H 	0.18650 0.66750 0.36920 -0.00200
N 	N 	0.00060 0.65500 0.38990 -0.22500
C 	C 	0.38410 0.73660 0.81060 0.05600
H 	H 	0.30700 0.72590 0.76790 0.00300
C 	C 	0.60410 0.73660 0.31170 0.07500
H 	H 	0.68360 0.72910 0.35390 0.00100
C 	C 	0.11200 0.65600 0.20870 -0.13700
H 	H 	0.19230 0.66000 0.16980 0.07200
C 	C 	0.60800 0.74050 0.19060 -0.13300
H 	H 	0.68770 0.73550 0.15130 0.07200
C 	C 	0.88330 0.66260 0.95090 -0.11600
H 	H 	0.80500 0.67210 0.98910 0.06400
O 	O 	0.52770 0.65230 0.55940 -0.40700
H 	H 	0.53700 0.65100 0.48310 0.16900
C 	C 	0.99650 0.64590 0.14750 0.05400
O 	O 	0.02500 0.75070 0.59300 -0.43900
H 	H 	0.07700 0.77100 0.63900 0.20900
C 	C 	0.29160 0.65620 0.57600 0.35000
N 	N 	0.08810 0.07900 0.42550 -0.22800
C 	C 	0.99140 0.64520 0.01670 0.03900
C 	C 	0.21470 0.07190 0.40290 0.06200
H 	H 	0.26190 0.10240 0.37170 0.01800
C 	C 	0.38100 0.73910 0.93220 -0.11200
H 	H 	0.30140 0.73160 0.97000 0.06400
C 	C 	0.88750 0.66650 0.83100 0.05800
H 	H 	0.81140 0.67850 0.78840 0.00300
C 	C 	0.38600 0.75420 0.31030 0.06800
H 	H 	0.30760 0.75960 0.35140 -0.00100
C 	C 	0.89020 0.64280 0.33060 0.07000
H 	H 	0.81280 0.63730 0.37320 -0.00100
C 	C 	0.49290 0.75170 0.12900 0.05900
C 	C 	0.79030 0.74590 0.56610 0.34400
N 	N 	0.41350 0.82350 0.54690 -0.23300
C 	C 	0.59940 0.76430 0.81520 0.05800
H 	H 	0.67580 0.77430 0.77460 0.00500
C 	C 	0.60480 0.76670 0.93630 -0.11400
H 	H 	0.68300 0.77790 0.97690 0.06400
C 	C 	0.09930 0.62860 0.95400 -0.11500
H 	H 	0.17450 0.61410 0.99420 0.06700
C 	C 	0.38140 0.75860 0.19040 -0.13200
H 	H 	0.30070 0.76630 0.15030 0.07100
C 	C 	0.09740 0.63330 0.83330 0.06200
H 	H 	0.17220 0.62140 0.79260 0.01100
C 	C 	0.41410 0.61870 0.58160 -0.07700
H 	H 	0.40510 0.58980 0.51880 0.05400
C 	C 	0.49200 0.75230 0.99880 0.03600
C 	C 	0.28290 0.92400 0.49460 0.05200
C 	C 	0.88280 0.63770 0.21070 -0.12900
H 	H 	0.80220 0.62870 0.17150 0.07000
C 	C 	0.91270 0.78380 0.57120 -0.04700
H 	H 	0.90430 0.81110 0.63680 0.04100
C 	C 	0.21390 0.97680 0.46700 0.04700
C 	C 	0.27950 0.02230 0.42290 -0.11500
H 	H 	0.36980 0.01930 0.40640 0.07200
C 	C 	0.23560 0.88630 0.57560 -0.12800
H 	H 	0.15650 0.89390 0.61440 0.06900
C 	C 	0.42720 0.58950 0.69810 0.09400
C 	C 	0.39960 0.90950 0.44070 -0.12300
H 	H 	0.43660 0.93390 0.38520 0.07000
C 	C 	0.02340 0.03370 0.46250 0.06800
H 	H 	0.93190 0.03700 0.47330 0.00300
C 	C 	0.51080 0.58600 0.89790 0.03300
H 	H 	0.56760 0.60070 0.95750 0.01600
C 	C 	0.35150 0.54280 0.72180 -0.12900
H 	H 	0.29720 0.52720 0.66130 0.07500
C 	C 	0.07980 0.98400 0.48530 -0.12200
H 	H 	0.02920 0.95390 0.51360 0.07000
C 	C 	0.50890 0.61050 0.78630 -0.12500
H 	H 	0.56380 0.64150 0.77130 0.08100
C 	C 	0.91860 0.81610 0.45530 0.07600
C 	C 	0.46010 0.85980 0.46880 0.06800
H 	H 	0.53880 0.85060 0.43110 0.00200
C 	C 	0.99950 0.79870 0.36710 -0.11200
H 	H 	0.06110 0.76980 0.38230 0.07700
C 	C 	0.43280 0.54140 0.92290 -0.10500
H 	H 	0.43170 0.52610 0.99960 0.06200
C 	C 	0.35390 0.51880 0.83100 0.03100
H 	H 	0.30210 0.48670 0.84490 0.01600
C 	C 	0.83810 0.86100 0.43730 -0.11800
H 	H 	0.78470 0.87370 0.49840 0.07200
C 	C 	0.83420 0.88790 0.33040 0.02400
H 	H 	0.77900 0.91930 0.31810 0.01700
C 	C 	0.30460 0.83790 0.59930 0.08000
H 	H 	0.27190 0.81330 0.65670 -0.01200
C 	C 	0.99150 0.82370 0.25440 0.01700
H 	H 	0.03990 0.80960 0.19100 0.02200
C 	C 	0.91110 0.86870 0.24160 -0.09100
H 	H 	0.90780 0.88780 0.16870 0.05700
Co	Co	0.00402 0.16051 0.41947 1.16100
Co	Co	0.50662 0.24161 0.43809 1.15800
O 	O 	0.69420 0.20760 0.43840 -0.43500
O 	O 	0.19200 0.19410 0.43060 -0.42500
O 	O 	0.81500 0.13150 0.41480 -0.43200
O 	O 	0.31750 0.27050 0.43650 -0.43000
N 	N 	0.00430 0.15370 0.22850 -0.22200
N 	N 	0.50730 0.24880 0.24860 -0.22200
N 	N 	0.50310 0.24280 0.62810 -0.23200
C 	C 	0.89340 0.16020 0.67250 0.08300
H 	H 	0.81350 0.16750 0.63080 -0.00200
N 	N 	0.99940 0.15500 0.61010 -0.22500
C 	C 	0.61590 0.23660 0.18940 0.05600
H 	H 	0.69300 0.22590 0.23210 0.00300
C 	C 	0.39590 0.23660 0.68830 0.07600
H 	H 	0.31640 0.22910 0.64610 0.00000
C 	C 	0.88800 0.15600 0.79130 -0.13700
H 	H 	0.80770 0.16000 0.83020 0.07200
C 	C 	0.39200 0.24050 0.80940 -0.13300
H 	H 	0.31230 0.23550 0.84870 0.07200
C 	C 	0.11670 0.16260 0.04910 -0.11500
H 	H 	0.19500 0.17210 0.01090 0.06400
O 	O 	0.47230 0.15230 0.44060 -0.40700
H 	H 	0.46300 0.15100 0.51690 0.16900
C 	C 	0.00350 0.14590 0.85250 0.05400
O 	O 	0.97500 0.25070 0.40700 -0.44000
H 	H 	0.92300 0.27100 0.36100 0.20900
C 	C 	0.70840 0.15620 0.42400 0.35000
N 	N 	0.91190 0.57900 0.57450 -0.22900
C 	C 	0.00860 0.14520 0.98330 0.03900
C 	C 	0.78530 0.57190 0.59710 0.06200
H 	H 	0.73810 0.60240 0.62830 0.01800
C 	C 	0.61900 0.23910 0.06780 -0.11200
H 	H 	0.69860 0.23160 0.03000 0.06400
C 	C 	0.11250 0.16650 0.16900 0.05800
H 	H 	0.18860 0.17850 0.21160 0.00300
C 	C 	0.61400 0.25420 0.68970 0.06800
H 	H 	0.69240 0.25960 0.64860 -0.00100
C 	C 	0.10980 0.14280 0.66940 0.06900
H 	H 	0.18720 0.13730 0.62680 -0.00100
C 	C 	0.50710 0.25170 0.87100 0.05900
C 	C 	0.20970 0.24590 0.43390 0.34400
N 	N 	0.58650 0.32350 0.45310 -0.23300
C 	C 	0.40060 0.26430 0.18480 0.05800
H 	H 	0.32420 0.27430 0.22540 0.00500
C 	C 	0.39520 0.26670 0.06370 -0.11400
H 	H 	0.31700 0.27790 0.02310 0.06400
C 	C 	0.90070 0.12860 0.04600 -0.11500
H 	H 	0.82550 0.11410 0.00580 0.06700
C 	C 	0.61860 0.25860 0.80960 -0.13200
H 	H 	0.69930 0.26630 0.84970 0.07100
C 	C 	0.90260 0.13330 0.16670 0.06200
H 	H 	0.82780 0.12140 0.20740 0.01100
C 	C 	0.58590 0.11870 0.41840 -0.07800
H 	H 	0.59490 0.08980 0.48120 0.05500
C 	C 	0.50800 0.25230 0.00120 0.03600
C 	C 	0.71710 0.42400 0.50540 0.05200
C 	C 	0.11720 0.13770 0.78930 -0.12800
H 	H 	0.19780 0.12870 0.82850 0.06900
C 	C 	0.08730 0.28380 0.42880 -0.04700
H 	H 	0.09570 0.31110 0.36320 0.04200
C 	C 	0.78610 0.47680 0.53300 0.04800
C 	C 	0.72050 0.52230 0.57710 -0.11600
H 	H 	0.63020 0.51930 0.59360 0.07200
C 	C 	0.76440 0.38630 0.42440 -0.12700
H 	H 	0.84350 0.39390 0.38560 0.06900
C 	C 	0.57280 0.08950 0.30190 0.09600
C 	C 	0.60040 0.40950 0.55930 -0.12300
H 	H 	0.56340 0.43390 0.61480 0.07000
C 	C 	0.97660 0.53370 0.53750 0.07000
H 	H 	0.06810 0.53700 0.52670 0.00100
C 	C 	0.48920 0.08600 0.10210 0.03500
H 	H 	0.43240 0.10070 0.04250 0.01600
C 	C 	0.64850 0.04280 0.27820 -0.13200
H 	H 	0.70280 0.02720 0.33870 0.07600
C 	C 	0.92020 0.48400 0.51470 -0.12400
H 	H 	0.97080 0.45390 0.48640 0.07100
C 	C 	0.49110 0.11050 0.21370 -0.12700
H 	H 	0.43620 0.14150 0.22870 0.08200
C 	C 	0.08140 0.31610 0.54470 0.07600
C 	C 	0.53990 0.35980 0.53120 0.06800
H 	H 	0.46120 0.35060 0.56890 0.00200
C 	C 	0.00050 0.29870 0.63290 -0.11100
H 	H 	0.93890 0.26980 0.61770 0.07700
C 	C 	0.56720 0.04140 0.07710 -0.10800
H 	H 	0.56830 0.02610 0.00040 0.06300
C 	C 	0.64610 0.01880 0.16900 0.03600
H 	H 	0.69790 0.98670 0.15510 0.01300
C 	C 	0.16190 0.36100 0.56270 -0.11900
H 	H 	0.21530 0.37370 0.50160 0.07200
C 	C 	0.16580 0.38790 0.66960 0.02500
H 	H 	0.22100 0.41930 0.68190 0.01700
C 	C 	0.69540 0.33790 0.40070 0.08000
H 	H 	0.72810 0.31330 0.34330 -0.01200
C 	C 	0.00850 0.32370 0.74560 0.01900
H 	H 	0.96010 0.30960 0.80900 0.02100
C 	C 	0.08890 0.36870 0.75840 -0.09200
H 	H 	0.09220 0.38780 0.83130 0.05800
