data_crystal

_cell_length_a 11.94740
_cell_length_b 11.94740
_cell_length_c 16.24600
_cell_angle_alpha 72.26530
_cell_angle_beta  72.26530
_cell_angle_gamma 77.79970

_symmetry_space_group_name_	'P 1'
_symmetry_space_group_name_H-M	'P 1'

loop_
_symmetry_equiv_pos_as_xyz
  x,y,z

loop_
_atom_site_label
_atom_site_type_symbol
_atom_site_fract_x
_atom_site_fract_y
_atom_site_fract_z
_atom_site_charge
Mn	Mn	0.83314 0.61304 0.04752 1.27100
Mn	Mn	0.38696 0.16686 0.45248 1.27200
Mn	Mn	0.16686 0.38696 0.95248 1.27100
Mn	Mn	0.61304 0.83314 0.54752 1.27200
H 	H 	0.19210 0.34790 0.22410 0.04700
H 	H 	0.82320 0.53020 0.47470 0.12700
H 	H 	0.71090 0.35310 0.48890 0.12800
H 	H 	0.85680 0.51000 0.25980 0.05900
H 	H 	0.01910 0.42590 0.45810 0.07000
H 	H 	0.54350 0.57690 0.32140 0.13000
H 	H 	0.73550 0.62110 0.33120 0.10300
H 	H 	0.66750 0.63230 0.42800 0.09200
H 	H 	0.59280 0.21840 0.50620 -0.05300
H 	H 	0.43400 0.43220 0.33950 -0.03500
H 	H 	0.65210 0.80790 0.27590 0.04600
H 	H 	0.46980 0.17680 0.02530 0.12700
H 	H 	0.64690 0.28910 0.01110 0.12800
H 	H 	0.49000 0.14320 0.24020 0.05900
H 	H 	0.57410 0.98090 0.04190 0.07000
H 	H 	0.42310 0.45650 0.17860 0.12900
H 	H 	0.37890 0.26450 0.16880 0.10300
H 	H 	0.36770 0.33250 0.07200 0.09200
H 	H 	0.78160 0.40720 0.99380 -0.05100
H 	H 	0.56780 0.56600 0.16050 -0.03500
H 	H 	0.80790 0.65210 0.77590 0.04600
H 	H 	0.17680 0.46980 0.52530 0.12600
H 	H 	0.28910 0.64690 0.51110 0.12800
H 	H 	0.14320 0.49000 0.74020 0.05900
H 	H 	0.98090 0.57410 0.54190 0.07000
H 	H 	0.45650 0.42310 0.67860 0.13000
H 	H 	0.26450 0.37890 0.66880 0.10300
H 	H 	0.33250 0.36770 0.57200 0.09200
H 	H 	0.40720 0.78160 0.49380 -0.05300
H 	H 	0.56600 0.56780 0.66050 -0.03500
H 	H 	0.34790 0.19210 0.72410 0.04600
H 	H 	0.53020 0.82320 0.97470 0.12700
H 	H 	0.35310 0.71090 0.98890 0.12800
H 	H 	0.51000 0.85680 0.75980 0.05900
H 	H 	0.42590 0.01910 0.95810 0.07000
H 	H 	0.57690 0.54350 0.82140 0.12900
H 	H 	0.62110 0.73550 0.83120 0.10300
H 	H 	0.63230 0.66750 0.92800 0.09200
H 	H 	0.21840 0.59280 0.00620 -0.05100
H 	H 	0.43220 0.43400 0.83950 -0.03500
C 	C 	0.12440 0.38000 0.26030 -0.00100
C 	C 	0.02550 0.43110 0.22730 -0.08900
C 	C 	0.92050 0.48030 0.36840 0.09700
C 	C 	0.65300 0.37400 0.45750 -0.27300
C 	C 	0.12230 0.37670 0.34730 -0.05100
C 	C 	0.92360 0.47880 0.28140 -0.07200
C 	C 	0.22390 0.31390 0.38540 0.27800
C 	C 	0.64090 0.48370 0.40350 0.23000
C 	C 	0.02020 0.42740 0.40030 -0.09200
C 	C 	0.02710 0.42870 0.13500 0.38300
C 	C 	0.55710 0.50310 0.36020 -0.27600
C 	C 	0.71450 0.57710 0.39350 -0.19900
C 	C 	0.58150 0.29250 0.46710 0.17200
C 	C 	0.48990 0.41490 0.37240 0.16800
C 	C 	0.62000 0.87560 0.23970 -0.00100
C 	C 	0.56890 0.97450 0.27270 -0.09000
C 	C 	0.51970 0.07950 0.13160 0.09800
C 	C 	0.62600 0.34700 0.04250 -0.27100
C 	C 	0.62330 0.87770 0.15270 -0.05100
C 	C 	0.52120 0.07640 0.21860 -0.07100
C 	C 	0.68610 0.77610 0.11460 0.27800
C 	C 	0.51630 0.35910 0.09650 0.22900
C 	C 	0.57260 0.97980 0.09970 -0.09300
C 	C 	0.57130 0.97290 0.36500 0.38200
C 	C 	0.49690 0.44290 0.13980 -0.27500
C 	C 	0.42290 0.28550 0.10650 -0.19900
C 	C 	0.70750 0.41850 0.03290 0.17000
C 	C 	0.58510 0.51010 0.12760 0.16700
C 	C 	0.87560 0.62000 0.73970 -0.00100
C 	C 	0.97450 0.56890 0.77270 -0.08900
C 	C 	0.07950 0.51970 0.63160 0.09700
C 	C 	0.34700 0.62600 0.54250 -0.27300
C 	C 	0.87770 0.62330 0.65270 -0.05100
C 	C 	0.07640 0.52120 0.71860 -0.07200
C 	C 	0.77610 0.68610 0.61460 0.27800
C 	C 	0.35910 0.51630 0.59650 0.23000
C 	C 	0.97980 0.57260 0.59970 -0.09200
C 	C 	0.97290 0.57130 0.86500 0.38300
C 	C 	0.44290 0.49690 0.63980 -0.27600
C 	C 	0.28550 0.42290 0.60650 -0.19900
C 	C 	0.41850 0.70750 0.53290 0.17200
C 	C 	0.51010 0.58510 0.62760 0.16800
C 	C 	0.38000 0.12440 0.76030 -0.00100
C 	C 	0.43110 0.02550 0.72730 -0.09000
C 	C 	0.48030 0.92050 0.86840 0.09800
C 	C 	0.37400 0.65300 0.95750 -0.27100
C 	C 	0.37670 0.12230 0.84730 -0.05100
C 	C 	0.47880 0.92360 0.78140 -0.07100
C 	C 	0.31390 0.22390 0.88540 0.27800
C 	C 	0.48370 0.64090 0.90350 0.22900
C 	C 	0.42740 0.02020 0.90030 -0.09300
C 	C 	0.42870 0.02710 0.63500 0.38200
C 	C 	0.50310 0.55710 0.86020 -0.27500
C 	C 	0.57710 0.71450 0.89350 -0.19900
C 	C 	0.29250 0.58150 0.96710 0.17000
C 	C 	0.41490 0.48990 0.87240 0.16700
N 	N 	0.82120 0.52880 0.42260 -0.17300
N 	N 	0.49970 0.31050 0.42610 -0.27500
N 	N 	0.47120 0.17880 0.07740 -0.17300
N 	N 	0.68950 0.50030 0.07390 -0.27500
N 	N 	0.17880 0.47120 0.57740 -0.17300
N 	N 	0.50030 0.68950 0.57390 -0.27500
N 	N 	0.52880 0.82120 0.92260 -0.17300
N 	N 	0.31050 0.49970 0.92610 -0.27500
O 	O 	0.21920 0.30560 0.46530 -0.38700
O 	O 	0.31270 0.26530 0.33630 -0.40700
O 	O 	0.12290 0.38930 0.08810 -0.47100
O 	O 	0.93260 0.46400 0.11090 -0.50000
O 	O 	0.69440 0.78080 0.03470 -0.38700
O 	O 	0.73470 0.68730 0.16370 -0.40700
O 	O 	0.61070 0.87710 0.41190 -0.47200
O 	O 	0.53600 0.06740 0.38910 -0.49900
O 	O 	0.78080 0.69440 0.53470 -0.38700
O 	O 	0.68730 0.73470 0.66370 -0.40700
O 	O 	0.87710 0.61070 0.91190 -0.47100
O 	O 	0.06740 0.53600 0.88910 -0.50000
O 	O 	0.30560 0.21920 0.96530 -0.38700
O 	O 	0.26530 0.31270 0.83630 -0.40700
O 	O 	0.38930 0.12290 0.58810 -0.47200
O 	O 	0.46400 0.93260 0.61090 -0.49900
