data_crystal

_cell_length_a 15.20900
_cell_length_b 16.36100
_cell_length_c 17.46300
_cell_angle_alpha 110.41000
_cell_angle_beta  90.00000
_cell_angle_gamma 90.00000

_symmetry_space_group_name_	'P 1'
_symmetry_space_group_name_H-M	'P 1'

loop_
_symmetry_equiv_pos_as_xyz
  x,y,z

loop_
_atom_site_label
_atom_site_type_symbol
_atom_site_fract_x
_atom_site_fract_y
_atom_site_fract_z
_atom_site_charge
Mn	Mn	0.56644 0.54187 0.76662 1.27200
Mn	Mn	0.85096 0.44977 0.71831 1.26900
Mn	Mn	0.06644 0.95813 0.73338 1.27000
Mn	Mn	0.35096 0.05023 0.78169 1.27000
Mn	Mn	0.43356 0.45813 0.23338 1.27300
Mn	Mn	0.14904 0.55023 0.28169 1.27000
Mn	Mn	0.93356 0.04187 0.26662 1.27100
Mn	Mn	0.64904 0.94977 0.21831 1.27100
H 	H 	0.81020 0.03360 0.68020 0.13500
H 	H 	0.59030 0.93700 0.76580 0.13400
H 	H 	0.88400 0.72090 0.72200 0.04400
H 	H 	0.53310 0.27130 0.75090 0.05400
H 	H 	0.65920 0.04570 0.71670 0.06800
H 	H 	0.78600 0.24380 0.68210 0.06400
H 	H 	0.51490 0.81790 0.81120 0.09300
H 	H 	0.48270 0.91480 0.83850 0.08400
H 	H 	0.62930 0.73870 0.77990 0.05800
H 	H 	0.75390 0.94380 0.75590 0.07100
H 	H 	0.81530 0.01130 0.39360 -0.03800
H 	H 	0.01730 0.15770 0.57520 0.10000
H 	H 	0.51330 0.78630 0.93490 0.11200
H 	H 	0.04570 0.12170 0.44040 -0.00900
H 	H 	0.79200 0.03740 0.53120 0.09000
H 	H 	0.63530 0.00190 0.94030 0.10500
H 	H 	0.56330 0.80950 0.06290 -0.01900
H 	H 	0.67190 0.02430 0.07180 -0.01700
H 	H 	0.31020 0.46640 0.81980 0.13600
H 	H 	0.09030 0.56300 0.73420 0.13200
H 	H 	0.38400 0.77910 0.77800 0.04300
H 	H 	0.03310 0.22870 0.74910 0.05500
H 	H 	0.15920 0.45430 0.78330 0.06800
H 	H 	0.28600 0.25620 0.81790 0.06400
H 	H 	0.01490 0.68210 0.68880 0.09400
H 	H 	0.98270 0.58520 0.66150 0.08600
H 	H 	0.12930 0.76130 0.72010 0.05700
H 	H 	0.25390 0.55620 0.74410 0.07000
H 	H 	0.31530 0.48870 0.10640 -0.03800
H 	H 	0.51730 0.34230 0.92480 0.09700
H 	H 	0.01330 0.71370 0.56510 0.11400
H 	H 	0.54570 0.37830 0.05960 -0.01300
H 	H 	0.29200 0.46260 0.96880 0.09000
H 	H 	0.13530 0.49810 0.55970 0.11200
H 	H 	0.06330 0.69050 0.43710 -0.02100
H 	H 	0.17190 0.47570 0.42820 -0.02000
H 	H 	0.18980 0.96640 0.31980 0.13500
H 	H 	0.40970 0.06300 0.23420 0.13400
H 	H 	0.11600 0.27910 0.27800 0.04400
H 	H 	0.46690 0.72870 0.24910 0.05400
H 	H 	0.34080 0.95430 0.28330 0.06800
H 	H 	0.21400 0.75620 0.31790 0.06400
H 	H 	0.48510 0.18210 0.18880 0.09300
H 	H 	0.51730 0.08520 0.16150 0.08400
H 	H 	0.37070 0.26130 0.22010 0.05800
H 	H 	0.24610 0.05620 0.24410 0.07100
H 	H 	0.18470 0.98870 0.60640 -0.03800
H 	H 	0.98270 0.84230 0.42480 0.10000
H 	H 	0.48670 0.21370 0.06510 0.11200
H 	H 	0.95430 0.87830 0.55960 -0.00900
H 	H 	0.20800 0.96260 0.46880 0.09000
H 	H 	0.36470 0.99810 0.05970 0.10500
H 	H 	0.43670 0.19050 0.93710 -0.01900
H 	H 	0.32810 0.97570 0.92820 -0.01700
H 	H 	0.68980 0.53360 0.18020 0.13600
H 	H 	0.90970 0.43700 0.26580 0.13200
H 	H 	0.61600 0.22090 0.22200 0.04300
H 	H 	0.96690 0.77130 0.25090 0.05500
H 	H 	0.84080 0.54570 0.21670 0.06800
H 	H 	0.71400 0.74380 0.18210 0.06400
H 	H 	0.98510 0.31790 0.31120 0.09400
H 	H 	0.01730 0.41480 0.33850 0.08600
H 	H 	0.87070 0.23870 0.27990 0.05700
H 	H 	0.74610 0.44380 0.25590 0.07000
H 	H 	0.68470 0.51130 0.89360 -0.03800
H 	H 	0.48270 0.65770 0.07520 0.09700
H 	H 	0.98670 0.28630 0.43490 0.11400
H 	H 	0.45430 0.62170 0.94040 -0.01300
H 	H 	0.70800 0.53740 0.03120 0.09000
H 	H 	0.86470 0.50190 0.44030 0.11200
H 	H 	0.93670 0.30950 0.56290 -0.02100
H 	H 	0.82810 0.52430 0.57180 -0.02000
C 	C 	0.58450 0.15240 0.73810 -0.04700
C 	C 	0.66010 0.27250 0.71640 -0.08800
C 	C 	0.89680 0.11750 0.66050 0.00700
C 	C 	0.83150 0.83790 0.73600 -0.05100
C 	C 	0.83210 0.75290 0.73400 0.00500
C 	C 	0.50240 0.11510 0.76010 0.28800
C 	C 	0.58400 0.23790 0.73740 -0.00500
C 	C 	0.75760 0.71530 0.74960 -0.09100
C 	C 	0.66010 0.10300 0.71780 -0.09500
C 	C 	0.73550 0.22090 0.69700 -0.07900
C 	C 	0.67760 0.84910 0.76770 0.10100
C 	C 	0.56470 0.89300 0.92130 0.17200
C 	C 	0.73830 0.13730 0.69890 0.10800
C 	C 	0.75830 0.62460 0.75150 0.38500
C 	C 	0.53350 0.87810 0.83600 -0.16300
C 	C 	0.90590 0.09990 0.57000 0.11400
C 	C 	0.91540 0.88080 0.72460 0.28400
C 	C 	0.67990 0.76360 0.76770 -0.07100
C 	C 	0.66120 0.36290 0.71560 0.38300
C 	C 	0.75390 0.88610 0.75360 -0.09400
C 	C 	0.85850 0.04070 0.43070 0.10100
C 	C 	0.97550 0.12460 0.53860 -0.18200
C 	C 	0.54610 0.83620 0.96130 -0.21900
C 	C 	0.99220 0.10610 0.45710 0.10100
C 	C 	0.84360 0.05640 0.51420 -0.17100
C 	C 	0.61610 0.96280 0.96460 -0.20100
C 	C 	0.57510 0.85170 0.03990 0.12700
C 	C 	0.63900 0.97490 0.04390 0.11000
C 	C 	0.08450 0.34760 0.76190 -0.04700
C 	C 	0.16010 0.22750 0.78360 -0.08800
C 	C 	0.39680 0.38250 0.83950 0.00800
C 	C 	0.33150 0.66210 0.76400 -0.05200
C 	C 	0.33210 0.74710 0.76600 0.00600
C 	C 	0.00240 0.38490 0.73990 0.28900
C 	C 	0.08400 0.26210 0.76260 -0.00500
C 	C 	0.25760 0.78470 0.75040 -0.09200
C 	C 	0.16010 0.39700 0.78220 -0.09600
C 	C 	0.23550 0.27910 0.80300 -0.07900
C 	C 	0.17760 0.65090 0.73230 0.10000
C 	C 	0.06470 0.60700 0.57870 0.17900
C 	C 	0.23830 0.36270 0.80110 0.10800
C 	C 	0.25830 0.87540 0.74850 0.38500
C 	C 	0.03350 0.62190 0.66400 -0.17000
C 	C 	0.40590 0.40010 0.93000 0.11400
C 	C 	0.41540 0.61920 0.77540 0.28500
C 	C 	0.17990 0.73640 0.73230 -0.07000
C 	C 	0.16120 0.13710 0.78440 0.38300
C 	C 	0.25390 0.61390 0.74640 -0.09300
C 	C 	0.35850 0.45930 0.06930 0.10200
C 	C 	0.47550 0.37540 0.96140 -0.18000
C 	C 	0.04610 0.66380 0.53870 -0.22700
C 	C 	0.49220 0.39390 0.04290 0.10600
C 	C 	0.34360 0.44360 0.98580 -0.17100
C 	C 	0.11610 0.53720 0.53540 -0.21500
C 	C 	0.07510 0.64830 0.46010 0.13300
C 	C 	0.13900 0.52510 0.45610 0.11800
C 	C 	0.41550 0.84760 0.26190 -0.04700
C 	C 	0.33990 0.72750 0.28360 -0.08800
C 	C 	0.10320 0.88250 0.33950 0.00700
C 	C 	0.16850 0.16210 0.26400 -0.05100
C 	C 	0.16790 0.24710 0.26600 0.00500
C 	C 	0.49760 0.88490 0.23990 0.28800
C 	C 	0.41600 0.76210 0.26260 -0.00500
C 	C 	0.24240 0.28470 0.25040 -0.09100
C 	C 	0.33990 0.89700 0.28220 -0.09500
C 	C 	0.26450 0.77910 0.30300 -0.07900
C 	C 	0.32240 0.15090 0.23230 0.10100
C 	C 	0.43530 0.10700 0.07870 0.17200
C 	C 	0.26170 0.86270 0.30110 0.10800
C 	C 	0.24170 0.37540 0.24850 0.38500
C 	C 	0.46650 0.12190 0.16400 -0.16300
C 	C 	0.09410 0.90010 0.43000 0.11400
C 	C 	0.08460 0.11920 0.27540 0.28400
C 	C 	0.32010 0.23640 0.23230 -0.07100
C 	C 	0.33880 0.63710 0.28440 0.38300
C 	C 	0.24610 0.11390 0.24640 -0.09400
C 	C 	0.14150 0.95930 0.56930 0.10100
C 	C 	0.02450 0.87540 0.46140 -0.18200
C 	C 	0.45390 0.16380 0.03870 -0.21900
C 	C 	0.00780 0.89390 0.54290 0.10100
C 	C 	0.15640 0.94360 0.48580 -0.17100
C 	C 	0.38390 0.03720 0.03540 -0.20100
C 	C 	0.42490 0.14830 0.96010 0.12700
C 	C 	0.36100 0.02510 0.95610 0.11000
C 	C 	0.91550 0.65240 0.23810 -0.04700
C 	C 	0.83990 0.77250 0.21640 -0.08800
C 	C 	0.60320 0.61750 0.16050 0.00800
C 	C 	0.66850 0.33790 0.23600 -0.05200
C 	C 	0.66790 0.25290 0.23400 0.00600
C 	C 	0.99760 0.61510 0.26010 0.28900
C 	C 	0.91600 0.73790 0.23740 -0.00500
C 	C 	0.74240 0.21530 0.24960 -0.09200
C 	C 	0.83990 0.60300 0.21780 -0.09600
C 	C 	0.76450 0.72090 0.19700 -0.07900
C 	C 	0.82240 0.34910 0.26770 0.10000
C 	C 	0.93530 0.39300 0.42130 0.17900
C 	C 	0.76170 0.63730 0.19890 0.10800
C 	C 	0.74170 0.12460 0.25150 0.38500
C 	C 	0.96650 0.37810 0.33600 -0.17000
C 	C 	0.59410 0.59990 0.07000 0.11400
C 	C 	0.58460 0.38080 0.22460 0.28500
C 	C 	0.82010 0.26360 0.26770 -0.07000
C 	C 	0.83880 0.86290 0.21560 0.38300
C 	C 	0.74610 0.38610 0.25360 -0.09300
C 	C 	0.64150 0.54070 0.93070 0.10200
C 	C 	0.52450 0.62460 0.03860 -0.18000
C 	C 	0.95390 0.33620 0.46130 -0.22700
C 	C 	0.50780 0.60610 0.95710 0.10600
C 	C 	0.65640 0.55640 0.01420 -0.17100
C 	C 	0.88390 0.46280 0.46460 -0.21500
C 	C 	0.92490 0.35170 0.53990 0.13300
C 	C 	0.86100 0.47490 0.54390 0.11800
N 	N 	0.93090 0.06540 0.40170 -0.24200
N 	N 	0.81320 0.08610 0.68020 -0.20400
N 	N 	0.59920 0.89640 0.78550 -0.18000
N 	N 	0.61810 0.92150 0.08470 -0.25000
N 	N 	0.43090 0.43460 0.09830 -0.24300
N 	N 	0.31320 0.41390 0.81980 -0.20400
N 	N 	0.09920 0.60360 0.71450 -0.17900
N 	N 	0.11810 0.57850 0.41530 -0.25300
N 	N 	0.06910 0.93460 0.59830 -0.24200
N 	N 	0.18680 0.91390 0.31980 -0.20400
N 	N 	0.40080 0.10360 0.21450 -0.18000
N 	N 	0.38190 0.07850 0.91530 -0.25000
N 	N 	0.56910 0.56540 0.90170 -0.24300
N 	N 	0.68680 0.58610 0.18020 -0.20400
N 	N 	0.90080 0.39640 0.28550 -0.17900
N 	N 	0.88190 0.42150 0.58470 -0.25300
O 	O 	0.43480 0.16100 0.77850 -0.40600
O 	O 	0.50240 0.03740 0.75870 -0.39000
O 	O 	0.69090 0.59830 0.77810 -0.49800
O 	O 	0.98490 0.83920 0.71350 -0.41400
O 	O 	0.91420 0.96160 0.73300 -0.38200
O 	O 	0.82740 0.58100 0.72810 -0.46700
O 	O 	0.72810 0.38930 0.69010 -0.49600
O 	O 	0.59200 0.40820 0.74020 -0.46500
O 	O 	0.93480 0.33900 0.72150 -0.40700
O 	O 	0.00240 0.46260 0.74130 -0.39000
O 	O 	0.19090 0.90170 0.72190 -0.49900
O 	O 	0.48490 0.66080 0.78650 -0.41600
O 	O 	0.41420 0.53840 0.76700 -0.38500
O 	O 	0.32740 0.91900 0.77190 -0.46800
O 	O 	0.22810 0.11070 0.80990 -0.49600
O 	O 	0.09200 0.09180 0.75980 -0.46400
O 	O 	0.56520 0.83900 0.22150 -0.40600
O 	O 	0.49760 0.96260 0.24130 -0.39000
O 	O 	0.30910 0.40170 0.22190 -0.49800
O 	O 	0.01510 0.16080 0.28650 -0.41400
O 	O 	0.08580 0.03840 0.26700 -0.38200
O 	O 	0.17260 0.41900 0.27190 -0.46700
O 	O 	0.27190 0.61070 0.30990 -0.49600
O 	O 	0.40800 0.59180 0.25980 -0.46500
O 	O 	0.06520 0.66100 0.27850 -0.40700
O 	O 	0.99760 0.53740 0.25870 -0.39000
O 	O 	0.80910 0.09830 0.27810 -0.49900
O 	O 	0.51510 0.33920 0.21350 -0.41600
O 	O 	0.58580 0.46160 0.23300 -0.38500
O 	O 	0.67260 0.08100 0.22810 -0.46800
O 	O 	0.77190 0.88930 0.19010 -0.49600
O 	O 	0.90800 0.90820 0.24020 -0.46400
