data_crystal

_cell_length_a 10.21800
_cell_length_b 22.10100
_cell_length_c 14.28300
_cell_angle_alpha 91.27600
_cell_angle_beta  90.00000
_cell_angle_gamma 90.00000

_symmetry_space_group_name_	'P 1'
_symmetry_space_group_name_H-M	'P 1'

loop_
_symmetry_equiv_pos_as_xyz
  x,y,z

loop_
_atom_site_label
_atom_site_type_symbol
_atom_site_fract_x
_atom_site_fract_y
_atom_site_fract_z
_atom_site_charge
La	La	0.44338 0.74180 0.73499 1.64300
La	La	0.24886 0.75007 0.97873 1.70000
La	La	0.94338 0.25820 0.76501 1.64300
La	La	0.74886 0.24993 0.52127 1.70000
La	La	0.55662 0.25820 0.26501 1.64200
La	La	0.75114 0.24993 0.02127 1.69900
La	La	0.05662 0.74180 0.23499 1.64200
La	La	0.25114 0.75007 0.47873 1.69900
H 	H 	0.63920 0.53360 0.87070 0.08000
H 	H 	0.70230 0.43930 0.81440 0.06800
H 	H 	0.33050 0.38610 0.81310 0.05300
H 	H 	0.26740 0.48060 0.86370 0.08100
H 	H 	0.45590 0.58580 0.96970 0.18400
H 	H 	0.31400 0.57310 0.93370 0.18700
H 	H 	0.62430 0.34340 0.72120 0.17700
H 	H 	0.48960 0.31710 0.75430 0.17200
H 	H 	0.83940 0.90330 0.78960 0.05700
H 	H 	0.77390 0.99130 0.86230 0.07500
H 	H 	0.14470 0.04400 0.88430 0.06900
H 	H 	0.21070 0.95490 0.81320 0.07300
H 	H 	0.00810 0.84140 0.71540 0.18300
H 	H 	0.14790 0.86960 0.70420 0.18800
H 	H 	0.95690 0.09200 0.98400 0.19800
H 	H 	0.81530 0.08240 0.94480 0.19800
H 	H 	0.58120 0.53110 0.35880 0.07000
H 	H 	0.50670 0.56470 0.62720 0.08600
H 	H 	0.69900 0.62080 0.52430 0.18100
H 	H 	0.64610 0.62580 0.42140 0.17700
H 	H 	0.46600 0.97840 0.84330 0.08000
H 	H 	0.59200 0.92870 0.09530 0.06200
H 	H 	0.65210 0.86890 0.95220 0.17700
H 	H 	0.58870 0.88530 0.85610 0.18500
H 	H 	0.13920 0.46640 0.62930 0.08100
H 	H 	0.20230 0.56070 0.68560 0.06800
H 	H 	0.83050 0.61390 0.68690 0.05200
H 	H 	0.76740 0.51940 0.63630 0.08100
H 	H 	0.95590 0.41420 0.53030 0.18400
H 	H 	0.81400 0.42690 0.56630 0.18700
H 	H 	0.12430 0.65660 0.77880 0.17700
H 	H 	0.98960 0.68290 0.74570 0.17300
H 	H 	0.33940 0.09670 0.71040 0.05700
H 	H 	0.27390 0.00870 0.63770 0.07500
H 	H 	0.64470 0.95600 0.61570 0.07000
H 	H 	0.71070 0.04510 0.68680 0.07200
H 	H 	0.50810 0.15860 0.78460 0.18300
H 	H 	0.64790 0.13040 0.79580 0.18800
H 	H 	0.45690 0.90800 0.51600 0.19700
H 	H 	0.31530 0.91760 0.55520 0.19800
H 	H 	0.08120 0.46890 0.14120 0.07000
H 	H 	0.00670 0.43530 0.87280 0.08700
H 	H 	0.19900 0.37920 0.97570 0.18100
H 	H 	0.14610 0.37420 0.07860 0.17700
H 	H 	0.96600 0.02160 0.65670 0.08000
H 	H 	0.09200 0.07130 0.40470 0.06200
H 	H 	0.15210 0.13110 0.54780 0.17700
H 	H 	0.08870 0.11470 0.64390 0.18500
H 	H 	0.36080 0.46640 0.12930 0.08000
H 	H 	0.29770 0.56070 0.18560 0.06800
H 	H 	0.66950 0.61390 0.18690 0.05300
H 	H 	0.73260 0.51940 0.13630 0.08100
H 	H 	0.54410 0.41420 0.03030 0.18400
H 	H 	0.68600 0.42690 0.06630 0.18700
H 	H 	0.37570 0.65660 0.27880 0.17700
H 	H 	0.51040 0.68290 0.24570 0.17200
H 	H 	0.16060 0.09670 0.21040 0.05700
H 	H 	0.22610 0.00870 0.13770 0.07500
H 	H 	0.85530 0.95600 0.11570 0.06900
H 	H 	0.78930 0.04510 0.18680 0.07300
H 	H 	0.99190 0.15860 0.28460 0.18300
H 	H 	0.85210 0.13040 0.29580 0.18800
H 	H 	0.04310 0.90800 0.01600 0.19800
H 	H 	0.18470 0.91760 0.05520 0.19800
H 	H 	0.41880 0.46890 0.64120 0.07000
H 	H 	0.49330 0.43530 0.37280 0.08600
H 	H 	0.30100 0.37920 0.47570 0.18100
H 	H 	0.35390 0.37420 0.57860 0.17700
H 	H 	0.53400 0.02160 0.15670 0.08000
H 	H 	0.40800 0.07130 0.90470 0.06200
H 	H 	0.34790 0.13110 0.04780 0.17700
H 	H 	0.41130 0.11470 0.14390 0.18500
H 	H 	0.86080 0.53360 0.37070 0.08100
H 	H 	0.79770 0.43930 0.31440 0.06800
H 	H 	0.16950 0.38610 0.31310 0.05200
H 	H 	0.23260 0.48060 0.36370 0.08100
H 	H 	0.04410 0.58580 0.46970 0.18400
H 	H 	0.18600 0.57310 0.43370 0.18700
H 	H 	0.87570 0.34340 0.22120 0.17700
H 	H 	0.01040 0.31710 0.25430 0.17300
H 	H 	0.66060 0.90330 0.28960 0.05700
H 	H 	0.72610 0.99130 0.36230 0.07500
H 	H 	0.35530 0.04400 0.38430 0.07000
H 	H 	0.28930 0.95490 0.31320 0.07200
H 	H 	0.49190 0.84140 0.21540 0.18300
H 	H 	0.35210 0.86960 0.20420 0.18800
H 	H 	0.54310 0.09200 0.48400 0.19700
H 	H 	0.68470 0.08240 0.44480 0.19800
H 	H 	0.91880 0.53110 0.85880 0.07000
H 	H 	0.99330 0.56470 0.12720 0.08700
H 	H 	0.80100 0.62080 0.02430 0.18100
H 	H 	0.85390 0.62580 0.92140 0.17700
H 	H 	0.03400 0.97840 0.34330 0.08000
H 	H 	0.90800 0.92870 0.59530 0.06200
H 	H 	0.84790 0.86890 0.45220 0.17700
H 	H 	0.91130 0.88530 0.35610 0.18500
C 	C 	0.44760 0.51660 0.87520 0.21000
C 	C 	0.57630 0.50400 0.85900 -0.13900
C 	C 	0.61410 0.44720 0.82510 -0.10100
C 	C 	0.52360 0.40270 0.80710 0.15400
C 	C 	0.39350 0.41580 0.82360 -0.09400
C 	C 	0.35590 0.47210 0.85540 -0.14800
C 	C 	0.40440 0.57680 0.91400 -0.53800
C 	C 	0.41410 0.62980 0.85090 0.49100
C 	C 	0.56560 0.34030 0.77420 -0.49300
C 	C 	0.63350 0.30870 0.85240 0.45800
C 	C 	0.03260 0.91870 0.79470 0.17900
C 	C 	0.90210 0.93130 0.80910 -0.10600
C 	C 	0.86270 0.98470 0.85190 -0.13700
C 	C 	0.94940 0.02810 0.87910 0.19300
C 	C 	0.08230 0.01570 0.86510 -0.11300
C 	C 	0.12190 0.96200 0.82280 -0.12100
C 	C 	0.08000 0.86040 0.74920 -0.53100
C 	C 	0.13250 0.81750 0.81810 0.49500
C 	C 	0.90640 0.08640 0.92700 -0.53900
C 	C 	0.92100 0.14240 0.86880 0.50100
C 	C 	0.55560 0.55690 0.49360 0.17300
C 	C 	0.54930 0.51870 0.41630 -0.11100
C 	C 	0.50510 0.53850 0.57530 -0.12900
C 	C 	0.62080 0.61910 0.48580 -0.50800
C 	C 	0.52350 0.66830 0.51880 0.53600
C 	C 	0.53670 0.94350 0.96160 0.18700
C 	C 	0.48030 0.98690 0.90650 -0.12800
C 	C 	0.55520 0.95740 0.05660 -0.10400
C 	C 	0.57190 0.88230 0.92270 -0.52200
C 	C 	0.46690 0.83560 0.93730 0.49100
C 	C 	0.94760 0.48340 0.62480 0.21000
C 	C 	0.07630 0.49600 0.64100 -0.13900
C 	C 	0.11410 0.55280 0.67490 -0.10100
C 	C 	0.02360 0.59730 0.69290 0.15400
C 	C 	0.89350 0.58420 0.67640 -0.09400
C 	C 	0.85590 0.52790 0.64460 -0.14900
C 	C 	0.90440 0.42320 0.58600 -0.53800
C 	C 	0.91410 0.37020 0.64910 0.49100
C 	C 	0.06560 0.65970 0.72580 -0.49400
C 	C 	0.13350 0.69130 0.64760 0.45800
C 	C 	0.53260 0.08130 0.70530 0.18000
C 	C 	0.40210 0.06870 0.69090 -0.10700
C 	C 	0.36270 0.01530 0.64810 -0.13700
C 	C 	0.44940 0.97190 0.62090 0.19300
C 	C 	0.58230 0.98430 0.63490 -0.11400
C 	C 	0.62190 0.03800 0.67720 -0.12000
C 	C 	0.58000 0.13960 0.75080 -0.53100
C 	C 	0.63250 0.18250 0.68190 0.49500
C 	C 	0.40640 0.91360 0.57300 -0.53900
C 	C 	0.42100 0.85760 0.63120 0.50100
C 	C 	0.05560 0.44310 0.00640 0.17400
C 	C 	0.04930 0.48130 0.08370 -0.11000
C 	C 	0.00510 0.46150 0.92470 -0.13000
C 	C 	0.12080 0.38090 0.01420 -0.50700
C 	C 	0.02350 0.33170 0.98120 0.53700
C 	C 	0.03670 0.05650 0.53840 0.18800
C 	C 	0.98030 0.01310 0.59350 -0.12800
C 	C 	0.05520 0.04260 0.44340 -0.10500
C 	C 	0.07190 0.11770 0.57730 -0.52200
C 	C 	0.96690 0.16440 0.56270 0.49000
C 	C 	0.55240 0.48340 0.12480 0.21000
C 	C 	0.42370 0.49600 0.14100 -0.13900
C 	C 	0.38590 0.55280 0.17490 -0.10100
C 	C 	0.47640 0.59730 0.19290 0.15400
C 	C 	0.60650 0.58420 0.17640 -0.09400
C 	C 	0.64410 0.52790 0.14460 -0.14800
C 	C 	0.59560 0.42320 0.08600 -0.53800
C 	C 	0.58590 0.37020 0.14910 0.49100
C 	C 	0.43440 0.65970 0.22580 -0.49300
C 	C 	0.36650 0.69130 0.14760 0.45800
C 	C 	0.96740 0.08130 0.20530 0.17900
C 	C 	0.09790 0.06870 0.19090 -0.10600
C 	C 	0.13730 0.01530 0.14810 -0.13700
C 	C 	0.05060 0.97190 0.12090 0.19300
C 	C 	0.91770 0.98430 0.13490 -0.11300
C 	C 	0.87810 0.03800 0.17720 -0.12100
C 	C 	0.92000 0.13960 0.25080 -0.53100
C 	C 	0.86750 0.18250 0.18190 0.49500
C 	C 	0.09360 0.91360 0.07300 -0.53900
C 	C 	0.07900 0.85760 0.13120 0.50100
C 	C 	0.44440 0.44310 0.50640 0.17300
C 	C 	0.45070 0.48130 0.58370 -0.11100
C 	C 	0.49490 0.46150 0.42470 -0.12900
C 	C 	0.37920 0.38090 0.51420 -0.50800
C 	C 	0.47650 0.33170 0.48120 0.53600
C 	C 	0.46330 0.05650 0.03840 0.18700
C 	C 	0.51970 0.01310 0.09350 -0.12800
C 	C 	0.44480 0.04260 0.94340 -0.10400
C 	C 	0.42810 0.11770 0.07730 -0.52200
C 	C 	0.53310 0.16440 0.06270 0.49100
C 	C 	0.05240 0.51660 0.37520 0.21000
C 	C 	0.92370 0.50400 0.35900 -0.13900
C 	C 	0.88590 0.44720 0.32510 -0.10100
C 	C 	0.97640 0.40270 0.30710 0.15400
C 	C 	0.10650 0.41580 0.32360 -0.09400
C 	C 	0.14410 0.47210 0.35540 -0.14900
C 	C 	0.09560 0.57680 0.41400 -0.53800
C 	C 	0.08590 0.62980 0.35090 0.49100
C 	C 	0.93440 0.34030 0.27420 -0.49400
C 	C 	0.86650 0.30870 0.35240 0.45800
C 	C 	0.46740 0.91870 0.29470 0.18000
C 	C 	0.59790 0.93130 0.30910 -0.10700
C 	C 	0.63730 0.98470 0.35190 -0.13700
C 	C 	0.55060 0.02810 0.37910 0.19300
C 	C 	0.41770 0.01570 0.36510 -0.11400
C 	C 	0.37810 0.96200 0.32280 -0.12000
C 	C 	0.42000 0.86040 0.24920 -0.53100
C 	C 	0.36750 0.81750 0.31810 0.49500
C 	C 	0.59360 0.08640 0.42700 -0.53900
C 	C 	0.57900 0.14240 0.36880 0.50100
C 	C 	0.94440 0.55690 0.99360 0.17400
C 	C 	0.95070 0.51870 0.91630 -0.11000
C 	C 	0.99490 0.53850 0.07530 -0.13000
C 	C 	0.87920 0.61910 0.98580 -0.50700
C 	C 	0.97650 0.66830 0.01880 0.53700
C 	C 	0.96330 0.94350 0.46160 0.18800
C 	C 	0.01970 0.98690 0.40650 -0.12800
C 	C 	0.94480 0.95740 0.55660 -0.10500
C 	C 	0.92810 0.88230 0.42270 -0.52200
C 	C 	0.03310 0.83560 0.43730 0.49000
O 	O 	0.48930 0.63040 0.78190 -0.43500
O 	O 	0.34240 0.67520 0.86850 -0.55300
O 	O 	0.75640 0.30680 0.85670 -0.51500
O 	O 	0.56540 0.28460 0.91520 -0.43300
O 	O 	0.23250 0.78600 0.79920 -0.52900
O 	O 	0.07550 0.81120 0.89410 -0.44200
O 	O 	0.98010 0.14330 0.79440 -0.45700
O 	O 	0.86580 0.19090 0.89930 -0.55400
O 	O 	0.43280 0.67890 0.46630 -0.49600
O 	O 	0.54570 0.69590 0.59430 -0.50300
O 	O 	0.47570 0.78490 0.89640 -0.54000
O 	O 	0.37250 0.84680 0.99070 -0.45200
O 	O 	0.98930 0.36960 0.71810 -0.43500
O 	O 	0.84240 0.32480 0.63150 -0.55300
O 	O 	0.25640 0.69320 0.64330 -0.51500
O 	O 	0.06540 0.71540 0.58480 -0.43400
O 	O 	0.73250 0.21400 0.70080 -0.52900
O 	O 	0.57550 0.18880 0.60590 -0.44100
O 	O 	0.48010 0.85670 0.70560 -0.45600
O 	O 	0.36580 0.80910 0.60070 -0.55500
O 	O 	0.93280 0.32110 0.03370 -0.49700
O 	O 	0.04570 0.30410 0.90570 -0.50300
O 	O 	0.97570 0.21510 0.60360 -0.54000
O 	O 	0.87250 0.15320 0.50930 -0.45200
O 	O 	0.51070 0.36960 0.21810 -0.43500
O 	O 	0.65760 0.32480 0.13150 -0.55300
O 	O 	0.24360 0.69320 0.14330 -0.51500
O 	O 	0.43460 0.71540 0.08480 -0.43300
O 	O 	0.76750 0.21400 0.20080 -0.52900
O 	O 	0.92450 0.18880 0.10590 -0.44200
O 	O 	0.01990 0.85670 0.20560 -0.45700
O 	O 	0.13420 0.80910 0.10070 -0.55400
O 	O 	0.56720 0.32110 0.53370 -0.49600
O 	O 	0.45430 0.30410 0.40570 -0.50300
O 	O 	0.52430 0.21510 0.10360 -0.54000
O 	O 	0.62750 0.15320 0.00930 -0.45200
O 	O 	0.01070 0.63040 0.28190 -0.43500
O 	O 	0.15760 0.67520 0.36850 -0.55300
O 	O 	0.74360 0.30680 0.35670 -0.51500
O 	O 	0.93460 0.28460 0.41520 -0.43400
O 	O 	0.26750 0.78600 0.29920 -0.52900
O 	O 	0.42450 0.81120 0.39410 -0.44100
O 	O 	0.51990 0.14330 0.29440 -0.45600
O 	O 	0.63420 0.19090 0.39930 -0.55500
O 	O 	0.06720 0.67890 0.96630 -0.49700
O 	O 	0.95430 0.69590 0.09430 -0.50300
O 	O 	0.02430 0.78490 0.39640 -0.54000
O 	O 	0.12750 0.84680 0.49070 -0.45200
