data_crystal

_cell_length_a 15.30700
_cell_length_b 15.30700
_cell_length_c 15.69500
_cell_angle_alpha 90.00000
_cell_angle_beta  90.00000
_cell_angle_gamma 120.00000

_symmetry_space_group_name_	'P 1'
_symmetry_space_group_name_H-M	'P 1'

loop_
_symmetry_equiv_pos_as_xyz
  x,y,z

loop_
_atom_site_label
_atom_site_type_symbol
_atom_site_fract_x
_atom_site_fract_y
_atom_site_fract_z
_atom_site_charge
Gd	Gd	0.33333 0.66666 0.75000 1.58500
Gd	Gd	0.66667 0.33334 0.75000 1.58500
Gd	Gd	0.66667 0.33334 0.25000 1.56800
Gd	Gd	0.33333 0.66666 0.25000 1.56800
Mn	Mn	0.50000 0.50000 -0.00000 1.22300
Mn	Mn	-0.00000 0.50000 -0.00000 1.18700
Mn	Mn	0.50000 0.00000 -0.00000 1.18700
Mn	Mn	0.00000 0.50000 0.50000 1.25200
Mn	Mn	0.50000 0.50000 0.50000 1.28800
Mn	Mn	0.50000 0.00000 0.50000 1.25200
H 	H 	0.23450 0.28940 0.84280 0.06400
H 	H 	0.05490 0.76550 0.84280 0.05500
H 	H 	0.71060 0.94510 0.84280 0.09800
H 	H 	0.76550 0.71060 0.84280 0.08200
H 	H 	0.94510 0.23450 0.84280 0.09000
H 	H 	0.28940 0.05490 0.84280 0.04700
H 	H 	0.94510 0.71060 0.65720 0.07700
H 	H 	0.28940 0.23450 0.65720 0.04100
H 	H 	0.76550 0.05490 0.65720 0.03300
H 	H 	0.05490 0.28940 0.65720 0.02400
H 	H 	0.71060 0.76550 0.65720 0.06000
H 	H 	0.23450 0.94510 0.65720 0.06800
H 	H 	0.76550 0.71060 0.15720 0.03600
H 	H 	0.94510 0.23450 0.15720 0.04500
H 	H 	0.28940 0.05490 0.15720 -0.00100
H 	H 	0.23450 0.28940 0.15720 0.01600
H 	H 	0.05490 0.76550 0.15720 0.00900
H 	H 	0.71060 0.94510 0.15720 0.05400
H 	H 	0.05490 0.28940 0.34280 0.02000
H 	H 	0.71060 0.76550 0.34280 0.05600
H 	H 	0.23450 0.94510 0.34280 0.06500
H 	H 	0.94510 0.71060 0.34280 0.07400
H 	H 	0.28940 0.23450 0.34280 0.03700
H 	H 	0.76550 0.05490 0.34280 0.02900
H 	H 	0.10050 0.20100 0.75000 0.01500
H 	H 	0.10050 0.89950 0.75000 0.04200
H 	H 	0.79900 0.89950 0.75000 0.07100
H 	H 	0.89950 0.79900 0.75000 0.07100
H 	H 	0.89950 0.10050 0.75000 0.04300
H 	H 	0.20100 0.10050 0.75000 0.01500
H 	H 	0.89950 0.79900 0.25000 0.06600
H 	H 	0.89950 0.10050 0.25000 0.03700
H 	H 	0.20100 0.10050 0.25000 0.00800
H 	H 	0.10050 0.20100 0.25000 0.00800
H 	H 	0.10050 0.89950 0.25000 0.03700
H 	H 	0.79900 0.89950 0.25000 0.06600
C 	C 	0.35250 0.49250 0.85960 0.35700
C 	C 	0.26520 0.42690 0.80340 -0.02100
C 	C 	0.21510 0.32350 0.80510 -0.03700
C 	C 	0.14000 0.64750 0.85960 0.35900
C 	C 	0.16170 0.73480 0.80340 -0.02200
C 	C 	0.10840 0.78490 0.80510 -0.03300
C 	C 	0.50750 0.86000 0.85960 0.35400
C 	C 	0.57310 0.83830 0.80340 0.00000
C 	C 	0.67650 0.89160 0.80510 -0.02700
C 	C 	0.64750 0.50750 0.85960 0.35900
C 	C 	0.73480 0.57310 0.80340 -0.00800
C 	C 	0.78490 0.67650 0.80510 -0.02700
C 	C 	0.86000 0.35250 0.85960 0.35300
C 	C 	0.83830 0.26520 0.80340 -0.00600
C 	C 	0.89160 0.21510 0.80510 -0.03200
C 	C 	0.49250 0.14000 0.85960 0.35800
C 	C 	0.42690 0.16170 0.80340 -0.02800
C 	C 	0.32350 0.10840 0.80510 -0.03800
C 	C 	0.86000 0.50750 0.64040 0.36100
C 	C 	0.83830 0.57310 0.69660 -0.01600
C 	C 	0.89160 0.67650 0.69490 -0.02500
C 	C 	0.49250 0.35250 0.64040 0.36400
C 	C 	0.42690 0.26520 0.69660 -0.03700
C 	C 	0.32350 0.21510 0.69490 -0.03500
C 	C 	0.64750 0.14000 0.64040 0.36700
C 	C 	0.73480 0.16170 0.69660 -0.03800
C 	C 	0.78490 0.10840 0.69490 -0.03000
C 	C 	0.14000 0.49250 0.64040 0.36600
C 	C 	0.16170 0.42690 0.69660 -0.04500
C 	C 	0.10840 0.32350 0.69490 -0.03600
C 	C 	0.50750 0.64750 0.64040 0.36600
C 	C 	0.57310 0.73480 0.69660 -0.02400
C 	C 	0.67650 0.78490 0.69490 -0.02400
C 	C 	0.35250 0.86000 0.64040 0.36000
C 	C 	0.26520 0.83830 0.69660 -0.02200
C 	C 	0.21510 0.89160 0.69490 -0.03100
C 	C 	0.64750 0.50750 0.14040 0.36900
C 	C 	0.73480 0.57310 0.19660 -0.04600
C 	C 	0.78490 0.67650 0.19490 -0.01300
C 	C 	0.86000 0.35250 0.14040 0.36300
C 	C 	0.83830 0.26520 0.19660 -0.04300
C 	C 	0.89160 0.21510 0.19490 -0.02000
C 	C 	0.49250 0.14000 0.14040 0.36900
C 	C 	0.42690 0.16170 0.19660 -0.06600
C 	C 	0.32350 0.10840 0.19490 -0.02500
C 	C 	0.35250 0.49250 0.14040 0.36700
C 	C 	0.26520 0.42690 0.19660 -0.05900
C 	C 	0.21510 0.32350 0.19490 -0.02400
C 	C 	0.14000 0.64750 0.14040 0.37000
C 	C 	0.16170 0.73480 0.19660 -0.05900
C 	C 	0.10840 0.78490 0.19490 -0.02000
C 	C 	0.50750 0.86000 0.14040 0.36400
C 	C 	0.57310 0.83830 0.19660 -0.03700
C 	C 	0.67650 0.89160 0.19490 -0.01400
C 	C 	0.14000 0.49250 0.35960 0.36800
C 	C 	0.16170 0.42690 0.30340 -0.05300
C 	C 	0.10840 0.32350 0.30510 -0.02600
C 	C 	0.50750 0.64750 0.35960 0.36800
C 	C 	0.57310 0.73480 0.30340 -0.03300
C 	C 	0.67650 0.78490 0.30510 -0.01500
C 	C 	0.35250 0.86000 0.35960 0.36200
C 	C 	0.26520 0.83830 0.30340 -0.03000
C 	C 	0.21510 0.89160 0.30510 -0.02100
C 	C 	0.86000 0.50750 0.35960 0.36300
C 	C 	0.83830 0.57310 0.30340 -0.02400
C 	C 	0.89160 0.67650 0.30510 -0.01500
C 	C 	0.49250 0.35250 0.35960 0.36600
C 	C 	0.42690 0.26520 0.30340 -0.04600
C 	C 	0.32350 0.21510 0.30510 -0.02600
C 	C 	0.64750 0.14000 0.35960 0.36900
C 	C 	0.73480 0.16170 0.30340 -0.04600
C 	C 	0.78490 0.10840 0.30510 -0.02100
C 	C 	0.13555 0.27110 0.75000 -0.04300
C 	C 	0.13555 0.86445 0.75000 -0.03100
C 	C 	0.72890 0.86445 0.75000 -0.02000
C 	C 	0.86445 0.72890 0.75000 -0.02000
C 	C 	0.86445 0.13555 0.75000 -0.03100
C 	C 	0.27110 0.13555 0.75000 -0.04300
C 	C 	0.86445 0.72890 0.25000 -0.04500
C 	C 	0.86445 0.13555 0.25000 -0.05600
C 	C 	0.27110 0.13555 0.25000 -0.06900
C 	C 	0.13555 0.27110 0.25000 -0.06900
C 	C 	0.13555 0.86445 0.25000 -0.05600
C 	C 	0.72890 0.86445 0.25000 -0.04400
N 	N 	0.23937 0.47874 0.75000 -0.16600
N 	N 	0.23937 0.76063 0.75000 -0.16600
N 	N 	0.52126 0.76063 0.75000 -0.16600
N 	N 	0.76063 0.52126 0.75000 -0.16600
N 	N 	0.76063 0.23937 0.75000 -0.16600
N 	N 	0.47874 0.23937 0.75000 -0.16600
N 	N 	0.76063 0.52126 0.25000 -0.16100
N 	N 	0.76063 0.23937 0.25000 -0.16200
N 	N 	0.47874 0.23937 0.25000 -0.16200
N 	N 	0.23937 0.47874 0.25000 -0.16100
N 	N 	0.23937 0.76063 0.25000 -0.16200
N 	N 	0.52126 0.76063 0.25000 -0.16100
O 	O 	0.38675 0.58593 0.85581 -0.38000
O 	O 	0.38410 0.44866 0.90657 -0.37600
O 	O 	0.19918 0.61325 0.85581 -0.38800
O 	O 	0.06456 0.61590 0.90657 -0.39900
O 	O 	0.41407 0.80082 0.85581 -0.36600
O 	O 	0.55134 0.93544 0.90657 -0.33100
O 	O 	0.61325 0.41407 0.85581 -0.37800
O 	O 	0.61590 0.55134 0.90657 -0.36900
O 	O 	0.80082 0.38675 0.85581 -0.36700
O 	O 	0.93544 0.38410 0.90657 -0.33400
O 	O 	0.58593 0.19918 0.85581 -0.39000
O 	O 	0.44866 0.06456 0.90657 -0.40200
O 	O 	0.80082 0.41407 0.64419 -0.39900
O 	O 	0.93544 0.55134 0.59343 -0.39800
O 	O 	0.58593 0.38675 0.64419 -0.41400
O 	O 	0.44866 0.38410 0.59343 -0.44600
O 	O 	0.61325 0.19918 0.64419 -0.42200
O 	O 	0.61590 0.06456 0.59343 -0.46900
O 	O 	0.19918 0.58593 0.64419 -0.42300
O 	O 	0.06456 0.44866 0.59343 -0.47200
O 	O 	0.41407 0.61325 0.64419 -0.41200
O 	O 	0.55134 0.61590 0.59343 -0.43800
O 	O 	0.38675 0.80082 0.64419 -0.40000
O 	O 	0.38410 0.93544 0.59343 -0.40100
O 	O 	0.61325 0.41407 0.14419 -0.43600
O 	O 	0.61590 0.55134 0.09343 -0.48200
O 	O 	0.80082 0.38675 0.14419 -0.42400
O 	O 	0.93544 0.38410 0.09343 -0.44400
O 	O 	0.58593 0.19918 0.14419 -0.44800
O 	O 	0.44866 0.06456 0.09343 -0.51600
O 	O 	0.38675 0.58593 0.14419 -0.43800
O 	O 	0.38410 0.44866 0.09343 -0.49000
O 	O 	0.19918 0.61325 0.14419 -0.44700
O 	O 	0.06456 0.61590 0.09343 -0.51200
O 	O 	0.41407 0.80082 0.14419 -0.42300
O 	O 	0.55134 0.93544 0.09343 -0.44000
O 	O 	0.19918 0.58593 0.35581 -0.42200
O 	O 	0.06456 0.44866 0.40657 -0.47300
O 	O 	0.41407 0.61325 0.35581 -0.41000
O 	O 	0.55134 0.61590 0.40657 -0.43800
O 	O 	0.38675 0.80082 0.35581 -0.39800
O 	O 	0.38410 0.93544 0.40657 -0.40100
O 	O 	0.80082 0.41407 0.35581 -0.39700
O 	O 	0.93544 0.55134 0.40657 -0.39800
O 	O 	0.58593 0.38675 0.35581 -0.41200
O 	O 	0.44866 0.38410 0.40657 -0.44600
O 	O 	0.61325 0.19918 0.35581 -0.42100
O 	O 	0.61590 0.06456 0.40657 -0.46900
