data_crystal

_cell_length_a 15.51200
_cell_length_b 15.51200
_cell_length_c 15.64500
_cell_angle_alpha 90.00000
_cell_angle_beta  90.00000
_cell_angle_gamma 120.00000

_symmetry_space_group_name_	'P 1'
_symmetry_space_group_name_H-M	'P 1'

loop_
_symmetry_equiv_pos_as_xyz
  x,y,z

loop_
_atom_site_label
_atom_site_type_symbol
_atom_site_fract_x
_atom_site_fract_y
_atom_site_fract_z
_atom_site_charge
Pr	Pr	0.33333 0.66666 0.75000 2.06900
Pr	Pr	0.66667 0.33334 0.75000 2.06900
Pr	Pr	0.66667 0.33334 0.25000 2.06700
Pr	Pr	0.33333 0.66666 0.25000 2.06700
Mn	Mn	0.50000 0.50000 -0.00000 1.21800
Mn	Mn	-0.00000 0.50000 -0.00000 1.18300
Mn	Mn	0.50000 0.00000 -0.00000 1.18300
Mn	Mn	0.00000 0.50000 0.50000 1.24600
Mn	Mn	0.50000 0.50000 0.50000 1.28200
Mn	Mn	0.50000 0.00000 0.50000 1.24600
H 	H 	0.23280 0.28630 0.84140 0.06000
H 	H 	0.05350 0.76720 0.84140 0.05100
H 	H 	0.71370 0.94650 0.84140 0.09400
H 	H 	0.76720 0.71370 0.84140 0.07700
H 	H 	0.94650 0.23280 0.84140 0.08500
H 	H 	0.28630 0.05350 0.84140 0.04300
H 	H 	0.94650 0.71370 0.65860 0.07300
H 	H 	0.28630 0.23280 0.65860 0.03800
H 	H 	0.76720 0.05350 0.65860 0.03000
H 	H 	0.05350 0.28630 0.65860 0.02100
H 	H 	0.71370 0.76720 0.65860 0.05600
H 	H 	0.23280 0.94650 0.65860 0.06400
H 	H 	0.76720 0.71370 0.15860 0.03300
H 	H 	0.94650 0.23280 0.15860 0.04200
H 	H 	0.28630 0.05350 0.15860 -0.00300
H 	H 	0.23280 0.28630 0.15860 0.01400
H 	H 	0.05350 0.76720 0.15860 0.00600
H 	H 	0.71370 0.94650 0.15860 0.05100
H 	H 	0.05350 0.28630 0.34140 0.01700
H 	H 	0.71370 0.76720 0.34140 0.05200
H 	H 	0.23280 0.94650 0.34140 0.06100
H 	H 	0.94650 0.71370 0.34140 0.07000
H 	H 	0.28630 0.23280 0.34140 0.03400
H 	H 	0.76720 0.05350 0.34140 0.02600
H 	H 	0.10035 0.20070 0.75000 0.01900
H 	H 	0.10035 0.89965 0.75000 0.04600
H 	H 	0.79930 0.89965 0.75000 0.07500
H 	H 	0.89965 0.79930 0.75000 0.07400
H 	H 	0.89965 0.10035 0.75000 0.04600
H 	H 	0.20070 0.10035 0.75000 0.01900
H 	H 	0.89965 0.79930 0.25000 0.06900
H 	H 	0.89965 0.10035 0.25000 0.04000
H 	H 	0.20070 0.10035 0.25000 0.01200
H 	H 	0.10035 0.20070 0.25000 0.01200
H 	H 	0.10035 0.89965 0.25000 0.04000
H 	H 	0.79930 0.89965 0.25000 0.06900
C 	C 	0.26330 0.42360 0.80340 -0.03500
C 	C 	0.35120 0.48750 0.86060 0.35000
C 	C 	0.21330 0.32040 0.80440 -0.02300
C 	C 	0.16030 0.73670 0.80340 -0.03600
C 	C 	0.13630 0.64880 0.86060 0.35300
C 	C 	0.10710 0.78670 0.80440 -0.01800
C 	C 	0.57640 0.83970 0.80340 -0.01400
C 	C 	0.51250 0.86370 0.86060 0.34800
C 	C 	0.67960 0.89290 0.80440 -0.01200
C 	C 	0.73670 0.57640 0.80340 -0.02200
C 	C 	0.64880 0.51250 0.86060 0.35200
C 	C 	0.78670 0.67960 0.80440 -0.01200
C 	C 	0.83970 0.26330 0.80340 -0.02000
C 	C 	0.86370 0.35120 0.86060 0.34700
C 	C 	0.89290 0.21330 0.80440 -0.01800
C 	C 	0.42360 0.16030 0.80340 -0.04200
C 	C 	0.48750 0.13630 0.86060 0.35200
C 	C 	0.32040 0.10710 0.80440 -0.02400
C 	C 	0.83970 0.57640 0.69660 -0.02900
C 	C 	0.86370 0.51250 0.63940 0.35300
C 	C 	0.89290 0.67960 0.69560 -0.01100
C 	C 	0.42360 0.26330 0.69660 -0.05100
C 	C 	0.48750 0.35120 0.63940 0.35700
C 	C 	0.32040 0.21330 0.69560 -0.02200
C 	C 	0.73670 0.16030 0.69660 -0.05100
C 	C 	0.64880 0.13630 0.63940 0.36000
C 	C 	0.78670 0.10710 0.69560 -0.01600
C 	C 	0.16030 0.42360 0.69660 -0.05800
C 	C 	0.13630 0.48750 0.63940 0.35800
C 	C 	0.10710 0.32040 0.69560 -0.02200
C 	C 	0.57640 0.73670 0.69660 -0.03800
C 	C 	0.51250 0.64880 0.63940 0.35900
C 	C 	0.67960 0.78670 0.69560 -0.01000
C 	C 	0.26330 0.83970 0.69660 -0.03600
C 	C 	0.35120 0.86370 0.63940 0.35200
C 	C 	0.21330 0.89290 0.69560 -0.01700
C 	C 	0.73670 0.57640 0.19660 -0.05900
C 	C 	0.64880 0.51250 0.13940 0.36100
C 	C 	0.78670 0.67960 0.19560 -0.00000
C 	C 	0.83970 0.26330 0.19660 -0.05600
C 	C 	0.86370 0.35120 0.13940 0.35500
C 	C 	0.89290 0.21330 0.19560 -0.00700
C 	C 	0.42360 0.16030 0.19660 -0.08000
C 	C 	0.48750 0.13630 0.13940 0.36100
C 	C 	0.32040 0.10710 0.19560 -0.01200
C 	C 	0.26330 0.42360 0.19660 -0.07200
C 	C 	0.35120 0.48750 0.13940 0.35900
C 	C 	0.21330 0.32040 0.19560 -0.01200
C 	C 	0.16030 0.73670 0.19660 -0.07300
C 	C 	0.13630 0.64880 0.13940 0.36200
C 	C 	0.10710 0.78670 0.19560 -0.00700
C 	C 	0.57640 0.83970 0.19660 -0.05000
C 	C 	0.51250 0.86370 0.13940 0.35600
C 	C 	0.67960 0.89290 0.19560 -0.00100
C 	C 	0.16030 0.42360 0.30340 -0.06700
C 	C 	0.13630 0.48750 0.36060 0.36000
C 	C 	0.10710 0.32040 0.30440 -0.01300
C 	C 	0.57640 0.73670 0.30340 -0.04600
C 	C 	0.51250 0.64880 0.36060 0.36000
C 	C 	0.67960 0.78670 0.30440 -0.00100
C 	C 	0.26330 0.83970 0.30340 -0.04400
C 	C 	0.35120 0.86370 0.36060 0.35400
C 	C 	0.21330 0.89290 0.30440 -0.00700
C 	C 	0.83970 0.57640 0.30340 -0.03800
C 	C 	0.86370 0.51250 0.36060 0.35500
C 	C 	0.89290 0.67960 0.30440 -0.00100
C 	C 	0.42360 0.26330 0.30340 -0.06000
C 	C 	0.48750 0.35120 0.36060 0.35800
C 	C 	0.32040 0.21330 0.30440 -0.01200
C 	C 	0.73670 0.16030 0.30340 -0.06000
C 	C 	0.64880 0.13630 0.36060 0.36100
C 	C 	0.78670 0.10710 0.30440 -0.00700
C 	C 	0.13495 0.26990 0.75000 -0.05300
C 	C 	0.13495 0.86505 0.75000 -0.04100
C 	C 	0.73010 0.86505 0.75000 -0.03100
C 	C 	0.86505 0.73010 0.75000 -0.03000
C 	C 	0.86505 0.13495 0.75000 -0.04100
C 	C 	0.26990 0.13495 0.75000 -0.05300
C 	C 	0.86505 0.73010 0.25000 -0.05500
C 	C 	0.86505 0.13495 0.25000 -0.06500
C 	C 	0.26990 0.13495 0.25000 -0.07800
C 	C 	0.13495 0.26990 0.25000 -0.07800
C 	C 	0.13495 0.86505 0.25000 -0.06500
C 	C 	0.73010 0.86505 0.25000 -0.05500
N 	N 	0.23720 0.47440 0.75000 -0.19800
N 	N 	0.23720 0.76280 0.75000 -0.19700
N 	N 	0.52560 0.76280 0.75000 -0.19700
N 	N 	0.76280 0.52560 0.75000 -0.19700
N 	N 	0.76280 0.23720 0.75000 -0.19700
N 	N 	0.47440 0.23720 0.75000 -0.19800
N 	N 	0.76280 0.52560 0.25000 -0.19400
N 	N 	0.76280 0.23720 0.25000 -0.19500
N 	N 	0.47440 0.23720 0.25000 -0.19500
N 	N 	0.23720 0.47440 0.25000 -0.19500
N 	N 	0.23720 0.76280 0.25000 -0.19500
N 	N 	0.52560 0.76280 0.25000 -0.19400
O 	O 	0.38320 0.44410 0.90490 -0.37200
O 	O 	0.38390 0.58070 0.85730 -0.43500
O 	O 	0.06090 0.61680 0.90490 -0.39600
O 	O 	0.19680 0.61610 0.85730 -0.44300
O 	O 	0.55590 0.93910 0.90490 -0.32700
O 	O 	0.41930 0.80320 0.85730 -0.42100
O 	O 	0.61680 0.55590 0.90490 -0.36500
O 	O 	0.61610 0.41930 0.85730 -0.43300
O 	O 	0.93910 0.38320 0.90490 -0.33100
O 	O 	0.80320 0.38390 0.85730 -0.42200
O 	O 	0.44410 0.06090 0.90490 -0.39900
O 	O 	0.58070 0.19680 0.85730 -0.44400
O 	O 	0.93910 0.55590 0.59510 -0.39200
O 	O 	0.80320 0.41930 0.64270 -0.45400
O 	O 	0.44410 0.38320 0.59510 -0.43900
O 	O 	0.58070 0.38390 0.64270 -0.46900
O 	O 	0.61680 0.06090 0.59510 -0.46300
O 	O 	0.61610 0.19680 0.64270 -0.47700
O 	O 	0.06090 0.44410 0.59510 -0.46600
O 	O 	0.19680 0.58070 0.64270 -0.47800
O 	O 	0.55590 0.61680 0.59510 -0.43200
O 	O 	0.41930 0.61610 0.64270 -0.46700
O 	O 	0.38320 0.93910 0.59510 -0.39600
O 	O 	0.38390 0.80320 0.64270 -0.45500
O 	O 	0.61680 0.55590 0.09510 -0.47500
O 	O 	0.61610 0.41930 0.14270 -0.49400
O 	O 	0.93910 0.38320 0.09510 -0.43700
O 	O 	0.80320 0.38390 0.14270 -0.48100
O 	O 	0.44410 0.06090 0.09510 -0.50900
O 	O 	0.58070 0.19680 0.14270 -0.50500
O 	O 	0.38320 0.44410 0.09510 -0.48200
O 	O 	0.38390 0.58070 0.14270 -0.49600
O 	O 	0.06090 0.61680 0.09510 -0.50500
O 	O 	0.19680 0.61610 0.14270 -0.50400
O 	O 	0.55590 0.93910 0.09510 -0.43300
O 	O 	0.41930 0.80320 0.14270 -0.48000
O 	O 	0.06090 0.44410 0.40490 -0.46700
O 	O 	0.19680 0.58070 0.35730 -0.47900
O 	O 	0.55590 0.61680 0.40490 -0.43300
O 	O 	0.41930 0.61610 0.35730 -0.46700
O 	O 	0.38320 0.93910 0.40490 -0.39600
O 	O 	0.38390 0.80320 0.35730 -0.45500
O 	O 	0.93910 0.55590 0.40490 -0.39200
O 	O 	0.80320 0.41930 0.35730 -0.45400
O 	O 	0.44410 0.38320 0.40490 -0.44000
O 	O 	0.58070 0.38390 0.35730 -0.46900
O 	O 	0.61680 0.06090 0.40490 -0.46300
O 	O 	0.61610 0.19680 0.35730 -0.47800
