data_crystal

_cell_length_a 24.81400
_cell_length_b 18.45800
_cell_length_c 10.25750
_cell_angle_alpha 90.00000
_cell_angle_beta  90.00000
_cell_angle_gamma 90.00000

_symmetry_space_group_name_	'P 1'
_symmetry_space_group_name_H-M	'P 1'

loop_
_symmetry_equiv_pos_as_xyz
  x,y,z

loop_
_atom_site_label
_atom_site_type_symbol
_atom_site_fract_x
_atom_site_fract_y
_atom_site_fract_z
_atom_site_charge
Ga	Ga	0.43770 0.91761 0.11401 2.05700
Ga	Ga	0.34273 0.15390 0.89800 1.54300
Ga	Ga	0.55938 0.92899 0.38085 2.05100
Ga	Ga	0.23680 0.08636 0.60162 2.08700
Ga	Ga	0.34554 0.82949 0.59191 2.08900
Ga	Ga	0.24100 0.89540 0.89800 2.08900
Ga	Ga	0.27488 0.70562 0.92034 2.09500
Ga	Ga	0.23092 0.77514 0.42295 2.10100
P 	P 	0.23320 0.06748 0.89530 0.66500
P 	P 	0.43742 0.90546 0.41625 0.63900
P 	P 	0.43598 0.08568 0.08163 0.67900
P 	P 	0.23474 0.91363 0.60555 0.64700
P 	P 	0.35993 0.83409 0.90788 0.65000
P 	P 	0.35558 0.14817 0.58176 0.64800
P 	P 	0.29866 0.68301 0.62347 0.62000
P 	P 	0.29261 0.29777 0.87534 0.62600
F 	F 	0.24538 0.79102 0.83370 -0.84400
F 	F 	0.23872 0.19063 0.66560 -0.83900
F 	F 	0.30635 0.81480 0.41980 -0.78500
O 	O 	0.29264 0.08750 0.86750 -0.90500
O 	O 	0.20459 0.06720 0.76150 -0.56200
O 	O 	0.23190 0.99250 0.95910 -0.54600
O 	O 	0.20348 0.12130 0.98260 -0.53500
O 	O 	0.49610 0.90600 0.46550 -0.66700
O 	O 	0.41230 0.98160 0.41990 -0.72700
O 	O 	0.43475 0.87400 0.27690 -0.67700
O 	O 	0.40774 0.85540 0.50740 -0.55200
O 	O 	0.40472 0.13360 0.98790 -0.80700
O 	O 	0.42887 0.11570 0.22080 -0.68800
O 	O 	0.41383 0.00790 0.07390 -0.75900
O 	O 	0.49497 0.09110 0.03750 -0.65600
O 	O 	0.20666 0.85840 0.51920 -0.50800
O 	O 	0.29493 0.89750 0.63180 -0.68600
O 	O 	0.22914 0.98830 0.54160 -0.52800
O 	O 	0.20673 0.91220 0.74140 -0.56500
O 	O 	0.34360 0.75530 0.93140 -0.52200
O 	O 	0.40612 0.85040 0.00260 -0.56700
O 	O 	0.37986 0.84540 0.76680 -0.51300
O 	O 	0.31410 0.88880 0.93780 -0.63400
O 	O 	0.30957 0.09360 0.55900 -0.62800
O 	O 	0.33869 0.22740 0.57180 -0.53000
O 	O 	0.37920 0.13530 0.72080 -0.51800
O 	O 	0.39840 0.13530 0.47700 -0.56200
O 	O 	0.34919 0.73060 0.61100 -0.57500
O 	O 	0.24858 0.72570 0.58400 -0.58900
O 	O 	0.30702 0.61570 0.53580 -0.53200
O 	O 	0.29240 0.65600 0.76370 -0.50900
O 	O 	0.28435 0.32580 0.73560 -0.49100
O 	O 	0.34378 0.25140 0.88350 -0.78100
O 	O 	0.30132 0.36420 0.96320 -0.54200
O 	O 	0.24364 0.25320 0.91810 -0.63400
O 	O 	0.30167 0.16840 0.09000 -0.87800
Ga	Ga	0.16309 0.65642 0.04600 1.55300
Ga	Ga	0.56230 0.08239 0.11401 2.05800
Ga	Ga	0.65727 0.84610 0.89800 1.54400
Ga	Ga	0.44062 0.07101 0.38085 2.05200
Ga	Ga	0.76320 0.91364 0.60162 2.08800
Ga	Ga	0.65446 0.17051 0.59191 2.08900
Ga	Ga	0.75900 0.10460 0.89800 2.08900
Ga	Ga	0.72512 0.29438 0.92034 2.09500
Ga	Ga	0.76908 0.22486 0.42295 2.10100
P 	P 	0.76680 0.93252 0.89530 0.66500
P 	P 	0.56258 0.09454 0.41625 0.63900
P 	P 	0.56402 0.91432 0.08163 0.67900
P 	P 	0.76526 0.08637 0.60555 0.64700
P 	P 	0.64007 0.16591 0.90788 0.65000
P 	P 	0.64442 0.85183 0.58176 0.64800
P 	P 	0.70134 0.31699 0.62347 0.62000
P 	P 	0.70739 0.70223 0.87534 0.62600
F 	F 	0.75462 0.20898 0.83370 -0.84400
F 	F 	0.76128 0.80937 0.66560 -0.83900
F 	F 	0.69365 0.18520 0.41980 -0.78500
O 	O 	0.70736 0.91250 0.86750 -0.90500
O 	O 	0.79541 0.93280 0.76150 -0.56200
O 	O 	0.76810 0.00750 0.95910 -0.54600
O 	O 	0.79652 0.87870 0.98260 -0.53500
O 	O 	0.50390 0.09400 0.46550 -0.66700
O 	O 	0.58770 0.01840 0.41990 -0.72700
O 	O 	0.56525 0.12600 0.27690 -0.67700
O 	O 	0.59226 0.14460 0.50740 -0.55200
O 	O 	0.59528 0.86640 0.98790 -0.80700
O 	O 	0.57113 0.88430 0.22080 -0.68800
O 	O 	0.58617 0.99210 0.07390 -0.75900
O 	O 	0.50503 0.90890 0.03750 -0.65600
O 	O 	0.79334 0.14160 0.51920 -0.50800
O 	O 	0.70507 0.10250 0.63180 -0.68600
O 	O 	0.77086 0.01170 0.54160 -0.52800
O 	O 	0.79327 0.08780 0.74140 -0.56500
O 	O 	0.65640 0.24470 0.93140 -0.52200
O 	O 	0.59388 0.14960 0.00260 -0.56700
O 	O 	0.62014 0.15460 0.76680 -0.51300
O 	O 	0.68590 0.11120 0.93780 -0.63400
O 	O 	0.69043 0.90640 0.55900 -0.62800
O 	O 	0.66131 0.77260 0.57180 -0.53000
O 	O 	0.62080 0.86470 0.72080 -0.51800
O 	O 	0.60160 0.86470 0.47700 -0.56200
O 	O 	0.65081 0.26940 0.61100 -0.57500
O 	O 	0.75142 0.27430 0.58400 -0.58900
O 	O 	0.69298 0.38430 0.53580 -0.53200
O 	O 	0.70760 0.34400 0.76370 -0.50900
O 	O 	0.71565 0.67420 0.73560 -0.49100
O 	O 	0.65622 0.74860 0.88350 -0.78100
O 	O 	0.69868 0.63580 0.96320 -0.54200
O 	O 	0.75636 0.74680 0.91810 -0.63400
O 	O 	0.69833 0.83160 0.09000 -0.87800
Ga	Ga	0.83691 0.34358 0.04600 1.55300
Ga	Ga	0.06230 0.41761 0.88599 2.05800
Ga	Ga	0.15727 0.65390 0.10200 1.54400
Ga	Ga	0.94062 0.42899 0.61915 2.05200
Ga	Ga	0.26320 0.58636 0.39838 2.08800
Ga	Ga	0.15446 0.32949 0.40809 2.08900
Ga	Ga	0.25900 0.39540 0.10200 2.08900
Ga	Ga	0.22512 0.20562 0.07966 2.09500
Ga	Ga	0.26908 0.27514 0.57705 2.10100
P 	P 	0.26680 0.56748 0.10470 0.66500
P 	P 	0.06258 0.40546 0.58375 0.63900
P 	P 	0.06402 0.58568 0.91837 0.68000
P 	P 	0.26526 0.41363 0.39445 0.64700
P 	P 	0.14007 0.33409 0.09212 0.65000
P 	P 	0.14442 0.64817 0.41824 0.64800
P 	P 	0.20134 0.18301 0.37653 0.62000
P 	P 	0.20739 0.79777 0.12466 0.62600
F 	F 	0.25462 0.29102 0.16630 -0.84400
F 	F 	0.26128 0.69063 0.33440 -0.83900
F 	F 	0.19365 0.31480 0.58020 -0.78500
O 	O 	0.20736 0.58750 0.13250 -0.90500
O 	O 	0.29541 0.56720 0.23850 -0.56200
O 	O 	0.26810 0.49250 0.04090 -0.54700
O 	O 	0.29652 0.62130 0.01740 -0.53500
O 	O 	0.00390 0.40600 0.53450 -0.66700
O 	O 	0.08770 0.48160 0.58010 -0.72700
O 	O 	0.06525 0.37400 0.72310 -0.67700
O 	O 	0.09226 0.35540 0.49260 -0.55200
O 	O 	0.09528 0.63360 0.01210 -0.80800
O 	O 	0.07113 0.61570 0.77920 -0.68800
O 	O 	0.08617 0.50790 0.92610 -0.75800
O 	O 	0.00503 0.59110 0.96250 -0.65600
O 	O 	0.29334 0.35840 0.48080 -0.50800
O 	O 	0.20507 0.39750 0.36820 -0.68600
O 	O 	0.27086 0.48830 0.45840 -0.52800
O 	O 	0.29327 0.41220 0.25860 -0.56500
O 	O 	0.15640 0.25530 0.06860 -0.52200
O 	O 	0.09388 0.35040 0.99740 -0.56700
O 	O 	0.12014 0.34540 0.23320 -0.51300
O 	O 	0.18590 0.38880 0.06220 -0.63400
O 	O 	0.19043 0.59360 0.44100 -0.62800
O 	O 	0.16131 0.72740 0.42820 -0.53100
O 	O 	0.12080 0.63530 0.27920 -0.51800
O 	O 	0.10160 0.63530 0.52300 -0.56200
O 	O 	0.15081 0.23060 0.38900 -0.57500
O 	O 	0.25142 0.22570 0.41600 -0.58900
O 	O 	0.19298 0.11570 0.46420 -0.53300
O 	O 	0.20760 0.15600 0.23630 -0.50900
O 	O 	0.21565 0.82580 0.26440 -0.49100
O 	O 	0.15622 0.75140 0.11650 -0.78100
O 	O 	0.19868 0.86420 0.03680 -0.54200
O 	O 	0.25636 0.75320 0.08190 -0.63400
O 	O 	0.19833 0.66840 0.91000 -0.87800
Ga	Ga	0.33691 0.15642 0.95400 1.55300
Ga	Ga	0.93770 0.58239 0.88599 2.05800
Ga	Ga	0.84273 0.34610 0.10200 1.54400
Ga	Ga	0.05938 0.57101 0.61915 2.05200
Ga	Ga	0.73680 0.41364 0.39838 2.08800
Ga	Ga	0.84554 0.67051 0.40809 2.08900
Ga	Ga	0.74100 0.60460 0.10200 2.08900
Ga	Ga	0.77488 0.79438 0.07966 2.09500
Ga	Ga	0.73092 0.72486 0.57705 2.10100
P 	P 	0.73320 0.43252 0.10470 0.66500
P 	P 	0.93742 0.59454 0.58375 0.63900
P 	P 	0.93598 0.41432 0.91837 0.68000
P 	P 	0.73474 0.58637 0.39445 0.64700
P 	P 	0.85993 0.66591 0.09212 0.65000
P 	P 	0.85558 0.35183 0.41824 0.64800
P 	P 	0.79866 0.81699 0.37653 0.62000
P 	P 	0.79261 0.20223 0.12466 0.62600
F 	F 	0.74538 0.70898 0.16630 -0.84400
F 	F 	0.73872 0.30937 0.33440 -0.83900
F 	F 	0.80635 0.68520 0.58020 -0.78500
O 	O 	0.79264 0.41250 0.13250 -0.90500
O 	O 	0.70459 0.43280 0.23850 -0.56200
O 	O 	0.73190 0.50750 0.04090 -0.54700
O 	O 	0.70348 0.37870 0.01740 -0.53500
O 	O 	0.99610 0.59400 0.53450 -0.66700
O 	O 	0.91230 0.51840 0.58010 -0.72700
O 	O 	0.93475 0.62600 0.72310 -0.67700
O 	O 	0.90774 0.64460 0.49260 -0.55200
O 	O 	0.90472 0.36640 0.01210 -0.80800
O 	O 	0.92887 0.38430 0.77920 -0.68800
O 	O 	0.91383 0.49210 0.92610 -0.75800
O 	O 	0.99497 0.40890 0.96250 -0.65600
O 	O 	0.70666 0.64160 0.48080 -0.50800
O 	O 	0.79493 0.60250 0.36820 -0.68600
O 	O 	0.72914 0.51170 0.45840 -0.52800
O 	O 	0.70673 0.58780 0.25860 -0.56500
O 	O 	0.84360 0.74470 0.06860 -0.52200
O 	O 	0.90612 0.64960 0.99740 -0.56700
O 	O 	0.87986 0.65460 0.23320 -0.51300
O 	O 	0.81410 0.61120 0.06220 -0.63400
O 	O 	0.80957 0.40640 0.44100 -0.62800
O 	O 	0.83869 0.27260 0.42820 -0.53100
O 	O 	0.87920 0.36470 0.27920 -0.51800
O 	O 	0.89840 0.36470 0.52300 -0.56200
O 	O 	0.84919 0.76940 0.38900 -0.57500
O 	O 	0.74858 0.77430 0.41600 -0.58900
O 	O 	0.80702 0.88430 0.46420 -0.53300
O 	O 	0.79240 0.84400 0.23630 -0.50900
O 	O 	0.78435 0.17420 0.26440 -0.49100
O 	O 	0.84378 0.24860 0.11650 -0.78100
O 	O 	0.80132 0.13580 0.03680 -0.54200
O 	O 	0.74364 0.24680 0.08190 -0.63400
O 	O 	0.80167 0.33160 0.91000 -0.87800
Ga	Ga	0.66309 0.84358 0.95400 1.55300
