data_crystal

_cell_length_a 9.94930
_cell_length_b 15.23470
_cell_length_c 10.88910
_cell_angle_alpha 90.00000
_cell_angle_beta  107.25300
_cell_angle_gamma 90.00000

_symmetry_space_group_name_	'P 1'
_symmetry_space_group_name_H-M	'P 1'

loop_
_symmetry_equiv_pos_as_xyz
  x,y,z

loop_
_atom_site_label
_atom_site_type_symbol
_atom_site_fract_x
_atom_site_fract_y
_atom_site_fract_z
_atom_site_charge
Zn	Zn	0.31091 0.19430 0.05955 1.18900
C 	C 	0.15210 0.34140 0.97830 0.32800
C 	C 	0.06760 0.42080 0.98930 -0.04700
C 	C 	0.09080 0.46220 0.10640 -0.00600
H 	H 	0.15200 0.43610 0.17870 0.04800
C 	C 	0.97280 0.45870 0.87850 -0.05300
C 	C 	0.93290 0.41760 0.74910 0.32100
C 	C 	0.07350 0.13750 0.83980 0.09100
H 	H 	0.02330 0.17910 0.87070 -0.01200
C 	C 	0.00990 0.09670 0.72400 -0.17600
H 	H 	0.91700 0.11000 0.67950 0.07800
C 	C 	0.08270 0.03630 0.67310 0.11200
C 	C 	0.21850 0.01700 0.74810 -0.17700
H 	H 	0.27080 0.97450 0.72130 0.11400
C 	C 	0.27440 0.05990 0.85970 0.10200
H 	H 	0.36740 0.04790 0.90550 -0.01000
C 	C 	0.02880 0.99390 0.54660 -0.04000
O 	O 	0.18430 0.29050 0.07490 -0.45700
O 	O 	0.19190 0.33150 0.88250 -0.33400
O 	O 	0.87860 0.34120 0.74050 -0.45000
O 	O 	0.94400 0.45940 0.65630 -0.33500
N 	N 	0.20510 0.11860 0.90870 -0.28400
Zn	Zn	0.18909 0.69430 0.44045 1.18800
C 	C 	0.34790 0.84140 0.52170 0.32500
C 	C 	0.43240 0.92080 0.51070 -0.05000
C 	C 	0.40920 0.96220 0.39360 -0.00400
H 	H 	0.34800 0.93610 0.32130 0.04800
C 	C 	0.52720 0.95870 0.62150 -0.05200
C 	C 	0.56710 0.91760 0.75090 0.32100
C 	C 	0.42650 0.63750 0.66020 0.09400
H 	H 	0.47670 0.67910 0.62930 -0.01300
C 	C 	0.49010 0.59670 0.77600 -0.18100
H 	H 	0.58300 0.61000 0.82050 0.08100
C 	C 	0.41730 0.53630 0.82690 0.11400
C 	C 	0.28150 0.51700 0.75190 -0.18300
H 	H 	0.22920 0.47450 0.77870 0.11800
C 	C 	0.22560 0.55990 0.64030 0.10500
H 	H 	0.13260 0.54790 0.59450 -0.01200
C 	C 	0.47120 0.49390 0.95340 -0.03800
O 	O 	0.31570 0.79050 0.42510 -0.45600
O 	O 	0.30810 0.83150 0.61750 -0.33400
O 	O 	0.62140 0.84120 0.75950 -0.45000
O 	O 	0.55600 0.95940 0.84370 -0.33600
N 	N 	0.29490 0.61860 0.59130 -0.28600
Zn	Zn	0.68909 0.80570 0.94045 1.18800
C 	C 	0.84790 0.65860 0.02170 0.32700
C 	C 	0.93240 0.57920 0.01070 -0.04700
C 	C 	0.90920 0.53780 0.89360 -0.00600
H 	H 	0.84800 0.56390 0.82130 0.04800
C 	C 	0.02720 0.54130 0.12150 -0.05300
C 	C 	0.06710 0.58240 0.25090 0.32100
C 	C 	0.92650 0.86250 0.16020 0.09100
H 	H 	0.97670 0.82090 0.12930 -0.01200
C 	C 	0.99010 0.90330 0.27600 -0.17600
H 	H 	0.08300 0.89000 0.32050 0.07800
C 	C 	0.91730 0.96370 0.32690 0.11200
C 	C 	0.78150 0.98300 0.25190 -0.17700
H 	H 	0.72920 0.02550 0.27870 0.11400
C 	C 	0.72560 0.94010 0.14030 0.10200
H 	H 	0.63260 0.95210 0.09450 -0.01000
C 	C 	0.97120 0.00610 0.45340 -0.04000
O 	O 	0.81570 0.70950 0.92510 -0.45700
O 	O 	0.80810 0.66850 0.11750 -0.33400
O 	O 	0.12140 0.65880 0.25950 -0.45000
O 	O 	0.05600 0.54060 0.34370 -0.33500
N 	N 	0.79490 0.88140 0.09130 -0.28400
Zn	Zn	0.81091 0.30570 0.55955 1.18800
C 	C 	0.65210 0.15860 0.47830 0.32500
C 	C 	0.56760 0.07920 0.48930 -0.05000
C 	C 	0.59080 0.03780 0.60640 -0.00400
H 	H 	0.65200 0.06390 0.67870 0.04800
C 	C 	0.47280 0.04130 0.37850 -0.05200
C 	C 	0.43290 0.08240 0.24910 0.32100
C 	C 	0.57350 0.36250 0.33980 0.09400
H 	H 	0.52330 0.32090 0.37070 -0.01300
C 	C 	0.50990 0.40330 0.22400 -0.18100
H 	H 	0.41700 0.39000 0.17950 0.08100
C 	C 	0.58270 0.46370 0.17310 0.11400
C 	C 	0.71850 0.48300 0.24810 -0.18300
H 	H 	0.77080 0.52550 0.22130 0.11800
C 	C 	0.77440 0.44010 0.35970 0.10500
H 	H 	0.86740 0.45210 0.40550 -0.01200
C 	C 	0.52880 0.50610 0.04660 -0.03800
O 	O 	0.68430 0.20950 0.57490 -0.45600
O 	O 	0.69190 0.16850 0.38250 -0.33400
O 	O 	0.37860 0.15880 0.24050 -0.45000
O 	O 	0.44400 0.04060 0.15630 -0.33600
N 	N 	0.70510 0.38140 0.40870 -0.28600
