data_crystal

_cell_length_a 21.99900
_cell_length_b 21.99900
_cell_length_c 16.70230
_cell_angle_alpha 90.00000
_cell_angle_beta  90.00000
_cell_angle_gamma 90.00000

_symmetry_space_group_name_	'P 1'
_symmetry_space_group_name_H-M	'P 1'

loop_
_symmetry_equiv_pos_as_xyz
  x,y,z

loop_
_atom_site_label
_atom_site_type_symbol
_atom_site_fract_x
_atom_site_fract_y
_atom_site_fract_z
_atom_site_charge
Ce	Ce	0.82438 0.85859 0.36543 2.03200
N 	N 	0.86430 0.91770 0.23800 -0.20400
O 	O 	0.72100 0.93130 0.14280 -0.53100
O 	O 	0.74910 0.88880 0.25930 -0.58700
O 	O 	0.01610 0.92260 0.29710 -0.61100
O 	O 	0.93470 0.88490 0.35700 -0.59700
C 	C 	0.76000 0.91790 0.19420 0.36700
C 	C 	0.82580 0.93540 0.18020 -0.10100
C 	C 	0.84380 0.96860 0.11430 0.00900
H 	H 	0.81600 0.97920 0.07480 0.00600
C 	C 	0.90410 0.98590 0.10830 -0.10900
H 	H 	0.91770 0.00960 0.06580 0.03400
C 	C 	0.94450 0.96620 0.16930 0.01100
H 	H 	0.98570 0.97510 0.16670 -0.00700
C 	C 	0.92120 0.93380 0.23170 -0.11400
C 	C 	0.96130 0.91320 0.30050 0.39800
Ce	Ce	0.32438 0.35859 0.86543 2.03200
N 	N 	0.36430 0.41770 0.73800 -0.20500
O 	O 	0.22100 0.43130 0.64280 -0.53000
O 	O 	0.24910 0.38880 0.75930 -0.58700
O 	O 	0.51610 0.42260 0.79710 -0.60900
O 	O 	0.43470 0.38490 0.85700 -0.59700
C 	C 	0.26000 0.41790 0.69420 0.36600
C 	C 	0.32580 0.43540 0.68020 -0.09900
C 	C 	0.34380 0.46860 0.61430 0.00700
H 	H 	0.31600 0.47920 0.57480 0.00800
C 	C 	0.40410 0.48590 0.60830 -0.10400
H 	H 	0.41770 0.50960 0.56580 0.03200
C 	C 	0.44450 0.46620 0.66930 0.00900
H 	H 	0.48570 0.47510 0.66670 -0.00600
C 	C 	0.42120 0.43380 0.73170 -0.11200
C 	C 	0.46130 0.41320 0.80050 0.39600
Ce	Ce	0.67562 0.14141 0.86543 2.03200
N 	N 	0.63570 0.08230 0.73800 -0.20500
O 	O 	0.77900 0.06870 0.64280 -0.53000
O 	O 	0.75090 0.11120 0.75930 -0.58700
O 	O 	0.48390 0.07740 0.79710 -0.60900
O 	O 	0.56530 0.11510 0.85700 -0.59700
C 	C 	0.74000 0.08210 0.69420 0.36700
C 	C 	0.67420 0.06460 0.68020 -0.10000
C 	C 	0.65620 0.03140 0.61430 0.00800
H 	H 	0.68400 0.02080 0.57480 0.00700
C 	C 	0.59590 0.01410 0.60830 -0.10600
H 	H 	0.58230 0.99040 0.56580 0.03300
C 	C 	0.55550 0.03380 0.66930 0.01000
H 	H 	0.51430 0.02490 0.66670 -0.00700
C 	C 	0.57880 0.06620 0.73170 -0.11300
C 	C 	0.53870 0.08680 0.80050 0.39600
Ce	Ce	0.17562 0.64141 0.36543 2.03200
N 	N 	0.13570 0.58230 0.23800 -0.20500
O 	O 	0.27900 0.56870 0.14280 -0.53000
O 	O 	0.25090 0.61120 0.25930 -0.58700
O 	O 	0.98390 0.57740 0.29710 -0.60900
O 	O 	0.06530 0.61510 0.35700 -0.59700
C 	C 	0.24000 0.58210 0.19420 0.36600
C 	C 	0.17420 0.56460 0.18020 -0.09900
C 	C 	0.15620 0.53140 0.11430 0.00700
H 	H 	0.18400 0.52080 0.07480 0.00700
C 	C 	0.09590 0.51410 0.10830 -0.10400
H 	H 	0.08230 0.49040 0.06580 0.03200
C 	C 	0.05550 0.53380 0.16930 0.00900
H 	H 	0.01430 0.52490 0.16670 -0.00600
C 	C 	0.07880 0.56620 0.23170 -0.11200
C 	C 	0.03870 0.58680 0.30050 0.39500
Ce	Ce	0.89141 0.07438 0.61543 2.03200
N 	N 	0.83230 0.11430 0.48800 -0.20500
O 	O 	0.81870 0.97100 0.39280 -0.52900
O 	O 	0.86120 0.99910 0.50930 -0.58500
O 	O 	0.82740 0.26610 0.54710 -0.60900
O 	O 	0.86510 0.18470 0.60700 -0.59700
C 	C 	0.83210 0.01000 0.44420 0.36500
C 	C 	0.81460 0.07580 0.43020 -0.09900
C 	C 	0.78140 0.09380 0.36430 0.00600
H 	H 	0.77080 0.06600 0.32480 0.00800
C 	C 	0.76410 0.15410 0.35830 -0.10400
H 	H 	0.74040 0.16770 0.31580 0.03200
C 	C 	0.78380 0.19450 0.41930 0.00900
H 	H 	0.77490 0.23570 0.41670 -0.00600
C 	C 	0.81620 0.17120 0.48170 -0.11200
C 	C 	0.83680 0.21130 0.55050 0.39600
Ce	Ce	0.39141 0.57438 0.11543 2.03200
N 	N 	0.33230 0.61430 0.98800 -0.20500
O 	O 	0.31870 0.47100 0.89280 -0.53000
O 	O 	0.36120 0.49910 0.00930 -0.58700
O 	O 	0.32740 0.76610 0.04710 -0.60900
O 	O 	0.36510 0.68470 0.10700 -0.59700
C 	C 	0.33210 0.51000 0.94420 0.36600
C 	C 	0.31460 0.57580 0.93020 -0.09900
C 	C 	0.28140 0.59380 0.86430 0.00700
H 	H 	0.27080 0.56600 0.82480 0.00800
C 	C 	0.26410 0.65410 0.85830 -0.10300
H 	H 	0.24040 0.66770 0.81580 0.03200
C 	C 	0.28380 0.69450 0.91930 0.00800
H 	H 	0.27490 0.73570 0.91670 -0.00600
C 	C 	0.31620 0.67120 0.98170 -0.11100
C 	C 	0.33680 0.71130 0.05050 0.39500
Ce	Ce	0.60859 0.92562 0.11543 2.03200
N 	N 	0.66770 0.88570 0.98800 -0.20500
O 	O 	0.68130 0.02900 0.89280 -0.53300
O 	O 	0.63880 0.00090 0.00930 -0.58700
O 	O 	0.67260 0.73390 0.04710 -0.60900
O 	O 	0.63490 0.81530 0.10700 -0.59700
C 	C 	0.66790 0.99000 0.94420 0.37000
C 	C 	0.68540 0.92420 0.93020 -0.10000
C 	C 	0.71860 0.90620 0.86430 0.00700
H 	H 	0.72920 0.93400 0.82480 0.00800
C 	C 	0.73590 0.84590 0.85830 -0.10300
H 	H 	0.75960 0.83230 0.81580 0.03200
C 	C 	0.71620 0.80550 0.91930 0.00800
H 	H 	0.72510 0.76430 0.91670 -0.00600
C 	C 	0.68380 0.82880 0.98170 -0.11000
C 	C 	0.66320 0.78870 0.05050 0.39400
Ce	Ce	0.10859 0.42562 0.61543 2.03200
N 	N 	0.16770 0.38570 0.48800 -0.20500
O 	O 	0.18130 0.52900 0.39280 -0.53000
O 	O 	0.13880 0.50090 0.50930 -0.58700
O 	O 	0.17260 0.23390 0.54710 -0.60900
O 	O 	0.13490 0.31530 0.60700 -0.59700
C 	C 	0.16790 0.49000 0.44420 0.36600
C 	C 	0.18540 0.42420 0.43020 -0.09900
C 	C 	0.21860 0.40620 0.36430 0.00700
H 	H 	0.22920 0.43400 0.32480 0.00800
C 	C 	0.23590 0.34590 0.35830 -0.10400
H 	H 	0.25960 0.33230 0.31580 0.03200
C 	C 	0.21620 0.30550 0.41930 0.00900
H 	H 	0.22510 0.26430 0.41670 -0.00600
C 	C 	0.18380 0.32880 0.48170 -0.11200
C 	C 	0.16320 0.28870 0.55050 0.39600
Ce	Ce	0.17562 0.14141 0.63457 2.03200
N 	N 	0.13570 0.08230 0.76200 -0.20400
O 	O 	0.27900 0.06870 0.85720 -0.53100
O 	O 	0.25090 0.11120 0.74070 -0.58700
O 	O 	0.98390 0.07740 0.70290 -0.61100
O 	O 	0.06530 0.11510 0.64300 -0.59700
C 	C 	0.24000 0.08210 0.80580 0.36700
C 	C 	0.17420 0.06460 0.81980 -0.10100
C 	C 	0.15620 0.03140 0.88570 0.00900
H 	H 	0.18400 0.02080 0.92520 0.00600
C 	C 	0.09590 0.01410 0.89170 -0.10900
H 	H 	0.08230 0.99040 0.93420 0.03400
C 	C 	0.05550 0.03380 0.83070 0.01100
H 	H 	0.01430 0.02490 0.83330 -0.00700
C 	C 	0.07880 0.06620 0.76830 -0.11400
C 	C 	0.03870 0.08680 0.69950 0.39800
Ce	Ce	0.67562 0.64141 0.13457 2.03200
N 	N 	0.63570 0.58230 0.26200 -0.20500
O 	O 	0.77900 0.56870 0.35720 -0.53000
O 	O 	0.75090 0.61120 0.24070 -0.58700
O 	O 	0.48390 0.57740 0.20290 -0.60900
O 	O 	0.56530 0.61510 0.14300 -0.59700
C 	C 	0.74000 0.58210 0.30580 0.36600
C 	C 	0.67420 0.56460 0.31980 -0.09900
C 	C 	0.65620 0.53140 0.38570 0.00700
H 	H 	0.68400 0.52080 0.42520 0.00800
C 	C 	0.59590 0.51410 0.39170 -0.10400
H 	H 	0.58230 0.49040 0.43420 0.03200
C 	C 	0.55550 0.53380 0.33070 0.00900
H 	H 	0.51430 0.52490 0.33330 -0.00600
C 	C 	0.57880 0.56620 0.26830 -0.11200
C 	C 	0.53870 0.58680 0.19950 0.39600
Ce	Ce	0.32438 0.85859 0.13457 2.03200
N 	N 	0.36430 0.91770 0.26200 -0.20500
O 	O 	0.22100 0.93130 0.35720 -0.53000
O 	O 	0.24910 0.88880 0.24070 -0.58700
O 	O 	0.51610 0.92260 0.20290 -0.60900
O 	O 	0.43470 0.88490 0.14300 -0.59700
C 	C 	0.26000 0.91790 0.30580 0.36700
C 	C 	0.32580 0.93540 0.31980 -0.10000
C 	C 	0.34380 0.96860 0.38570 0.00800
H 	H 	0.31600 0.97920 0.42520 0.00700
C 	C 	0.40410 0.98590 0.39170 -0.10600
H 	H 	0.41770 0.00960 0.43420 0.03300
C 	C 	0.44450 0.96620 0.33070 0.01000
H 	H 	0.48570 0.97510 0.33330 -0.00700
C 	C 	0.42120 0.93380 0.26830 -0.11300
C 	C 	0.46130 0.91320 0.19950 0.39600
Ce	Ce	0.82438 0.35859 0.63457 2.03200
N 	N 	0.86430 0.41770 0.76200 -0.20500
O 	O 	0.72100 0.43130 0.85720 -0.53000
O 	O 	0.74910 0.38880 0.74070 -0.58700
O 	O 	0.01610 0.42260 0.70290 -0.60900
O 	O 	0.93470 0.38490 0.64300 -0.59700
C 	C 	0.76000 0.41790 0.80580 0.36600
C 	C 	0.82580 0.43540 0.81980 -0.09900
C 	C 	0.84380 0.46860 0.88570 0.00700
H 	H 	0.81600 0.47920 0.92520 0.00700
C 	C 	0.90410 0.48590 0.89170 -0.10400
H 	H 	0.91770 0.50960 0.93420 0.03200
C 	C 	0.94450 0.46620 0.83070 0.00900
H 	H 	0.98570 0.47510 0.83330 -0.00600
C 	C 	0.92120 0.43380 0.76830 -0.11200
C 	C 	0.96130 0.41320 0.69950 0.39500
Ce	Ce	0.10859 0.92562 0.38457 2.03200
N 	N 	0.16770 0.88570 0.51200 -0.20500
O 	O 	0.18130 0.02900 0.60720 -0.52900
O 	O 	0.13880 0.00090 0.49070 -0.58500
O 	O 	0.17260 0.73390 0.45290 -0.60900
O 	O 	0.13490 0.81530 0.39300 -0.59700
C 	C 	0.16790 0.99000 0.55580 0.36500
C 	C 	0.18540 0.92420 0.56980 -0.09900
C 	C 	0.21860 0.90620 0.63570 0.00600
H 	H 	0.22920 0.93400 0.67520 0.00800
C 	C 	0.23590 0.84590 0.64170 -0.10400
H 	H 	0.25960 0.83230 0.68420 0.03200
C 	C 	0.21620 0.80550 0.58070 0.00900
H 	H 	0.22510 0.76430 0.58330 -0.00600
C 	C 	0.18380 0.82880 0.51830 -0.11200
C 	C 	0.16320 0.78870 0.44950 0.39600
Ce	Ce	0.60859 0.42562 0.88457 2.03200
N 	N 	0.66770 0.38570 0.01200 -0.20500
O 	O 	0.68130 0.52900 0.10720 -0.53000
O 	O 	0.63880 0.50090 0.99070 -0.58700
O 	O 	0.67260 0.23390 0.95290 -0.60900
O 	O 	0.63490 0.31530 0.89300 -0.59700
C 	C 	0.66790 0.49000 0.05580 0.36600
C 	C 	0.68540 0.42420 0.06980 -0.09900
C 	C 	0.71860 0.40620 0.13570 0.00700
H 	H 	0.72920 0.43400 0.17520 0.00800
C 	C 	0.73590 0.34590 0.14170 -0.10300
H 	H 	0.75960 0.33230 0.18420 0.03200
C 	C 	0.71620 0.30550 0.08070 0.00800
H 	H 	0.72510 0.26430 0.08330 -0.00600
C 	C 	0.68380 0.32880 0.01830 -0.11100
C 	C 	0.66320 0.28870 0.94950 0.39500
Ce	Ce	0.39141 0.07438 0.88457 2.03200
N 	N 	0.33230 0.11430 0.01200 -0.20500
O 	O 	0.31870 0.97100 0.10720 -0.53300
O 	O 	0.36120 0.99910 0.99070 -0.58700
O 	O 	0.32740 0.26610 0.95290 -0.60900
O 	O 	0.36510 0.18470 0.89300 -0.59700
C 	C 	0.33210 0.01000 0.05580 0.37000
C 	C 	0.31460 0.07580 0.06980 -0.10000
C 	C 	0.28140 0.09380 0.13570 0.00700
H 	H 	0.27080 0.06600 0.17520 0.00800
C 	C 	0.26410 0.15410 0.14170 -0.10300
H 	H 	0.24040 0.16770 0.18420 0.03200
C 	C 	0.28380 0.19450 0.08070 0.00800
H 	H 	0.27490 0.23570 0.08330 -0.00600
C 	C 	0.31620 0.17120 0.01830 -0.11000
C 	C 	0.33680 0.21130 0.94950 0.39400
Ce	Ce	0.89141 0.57438 0.38457 2.03200
N 	N 	0.83230 0.61430 0.51200 -0.20500
O 	O 	0.81870 0.47100 0.60720 -0.53000
O 	O 	0.86120 0.49910 0.49070 -0.58700
O 	O 	0.82740 0.76610 0.45290 -0.60900
O 	O 	0.86510 0.68470 0.39300 -0.59700
C 	C 	0.83210 0.51000 0.55580 0.36600
C 	C 	0.81460 0.57580 0.56980 -0.09900
C 	C 	0.78140 0.59380 0.63570 0.00700
H 	H 	0.77080 0.56600 0.67520 0.00800
C 	C 	0.76410 0.65410 0.64170 -0.10400
H 	H 	0.74040 0.66770 0.68420 0.03200
C 	C 	0.78380 0.69450 0.58070 0.00900
H 	H 	0.77490 0.73570 0.58330 -0.00600
C 	C 	0.81620 0.67120 0.51830 -0.11200
C 	C 	0.83680 0.71130 0.44950 0.39600
