data_crystal

_cell_length_a 11.75540
_cell_length_b 14.43590
_cell_length_c 14.69330
_cell_angle_alpha 111.14600
_cell_angle_beta  112.69800
_cell_angle_gamma 93.21500

_symmetry_space_group_name_	'P 1'
_symmetry_space_group_name_H-M	'P 1'

loop_
_symmetry_equiv_pos_as_xyz
  x,y,z

loop_
_atom_site_label
_atom_site_type_symbol
_atom_site_fract_x
_atom_site_fract_y
_atom_site_fract_z
_atom_site_charge
W 	W 	0.07366 0.90259 0.19997 1.05100
W 	W 	0.27859 0.90823 0.07574 1.10900
W 	W 	0.25847 0.13707 0.25979 1.14000
W 	W 	0.01890 0.76809 0.81706 1.30000
W 	W 	0.20309 0.00088 0.87264 0.94400
W 	W 	0.18801 0.23282 0.05962 1.26100
Ce	Ce	0.08560 0.47283 0.65190 2.05500
Ce	Ce	0.28600 0.52395 0.06460 2.00900
N 	N 	0.26800 0.63800 0.74000 -0.17900
N 	N 	0.62300 0.45900 0.73800 -0.20700
O 	O 	0.10900 0.99100 0.09700 -0.72700
O 	O 	0.10400 0.93900 0.96600 -0.60700
O 	O 	0.08700 0.12100 0.10100 -0.77200
O 	O 	0.95600 0.94800 0.05700 -0.77100
O 	O 	0.19400 0.86100 0.14500 -0.49300
O 	O 	0.18100 0.03800 0.28600 -0.55200
O 	O 	0.94500 0.96800 0.20800 -0.37800
O 	O 	0.95400 0.78600 0.08200 -0.47900
O 	O 	0.33400 0.03700 0.18700 -0.56000
O 	O 	0.30000 0.96600 0.99200 -0.31300
O 	O 	0.17600 0.78600 0.94600 -0.42300
O 	O 	0.12300 0.19800 0.26700 -0.56900
O 	O 	0.10900 0.86700 0.79200 -0.40100
O 	O 	0.91700 0.71100 0.86700 -0.42600
O 	O 	0.02300 0.66200 0.72500 -0.61200
O 	O 	0.25200 0.14000 0.97500 -0.40500
O 	O 	0.28800 0.21900 0.18800 -0.45600
O 	O 	0.26900 0.34600 0.07900 -0.62400
O 	O 	0.11500 0.56000 0.53100 -0.67800
O 	O 	0.16600 0.69800 0.52000 -0.42700
O 	O 	0.22500 0.53900 0.85400 -0.65200
O 	O 	0.39200 0.63600 0.00300 -0.62700
O 	O 	0.30100 0.42700 0.68200 -0.52000
O 	O 	0.47700 0.45700 0.83300 -0.49600
O 	O 	0.87000 0.48100 0.84900 -0.52400
O 	O 	0.91400 0.47000 0.71600 -0.50400
C 	C 	0.17800 0.64700 0.57200 0.40500
C 	C 	0.28200 0.69500 0.68500 -0.09300
C 	C 	0.37700 0.78200 0.73300 0.04700
H 	H 	0.38550 0.82070 0.69610 0.01000
C 	C 	0.46000 0.80700 0.84000 -0.11400
H 	H 	0.52840 0.86140 0.87310 0.11300
C 	C 	0.45000 0.75800 0.90400 0.06500
H 	H 	0.50420 0.78130 0.97730 0.03100
C 	C 	0.35200 0.67100 0.84900 -0.11200
C 	C 	0.31600 0.61300 0.90400 0.48800
C 	C 	0.42000 0.44100 0.73300 0.36300
C 	C 	0.49500 0.44000 0.67000 -0.09800
C 	C 	0.44300 0.40500 0.55800 0.01900
H 	H 	0.35540 0.38690 0.51620 -0.00800
C 	C 	0.52500 0.39700 0.51000 -0.11800
H 	H 	0.49520 0.36930 0.43540 0.05900
C 	C 	0.65400 0.43200 0.57800 0.04000
H 	H 	0.70960 0.44020 0.54820 0.02400
C 	C 	0.70300 0.45600 0.68800 -0.13100
C 	C 	0.84200 0.47300 0.75500 0.47000
W 	W 	0.92634 0.09741 0.80003 1.23100
W 	W 	0.72141 0.09177 0.92426 1.27800
W 	W 	0.74153 0.86293 0.74021 1.19800
W 	W 	0.98110 0.23191 0.18294 1.69200
W 	W 	0.79691 0.99912 0.12736 1.38100
W 	W 	0.81199 0.76718 0.94038 1.54400
Ce	Ce	0.91440 0.52717 0.34810 2.12800
Ce	Ce	0.71400 0.47605 0.93540 2.06600
N 	N 	0.73200 0.36200 0.26000 -0.18600
N 	N 	0.37700 0.54100 0.26200 -0.20500
O 	O 	0.89100 0.00900 0.90300 -0.74700
O 	O 	0.89600 0.06100 0.03400 -0.75900
O 	O 	0.91300 0.87900 0.89900 -0.58300
O 	O 	0.04400 0.05200 0.94300 -0.87000
O 	O 	0.80600 0.13900 0.85500 -0.51000
O 	O 	0.81900 0.96200 0.71400 -0.38500
O 	O 	0.05500 0.03200 0.79200 -0.54900
O 	O 	0.04600 0.21400 0.91800 -0.49300
O 	O 	0.66600 0.96300 0.81300 -0.41700
O 	O 	0.70000 0.03400 0.00800 -0.64600
O 	O 	0.82400 0.21400 0.05400 -0.52900
O 	O 	0.87700 0.80200 0.73300 -0.40500
O 	O 	0.89100 0.13300 0.20800 -0.54900
O 	O 	0.08300 0.28900 0.13300 -0.56600
O 	O 	0.97700 0.33800 0.27500 -0.58100
O 	O 	0.74800 0.86000 0.02500 -0.58200
O 	O 	0.71200 0.78100 0.81200 -0.47400
O 	O 	0.73100 0.65400 0.92100 -0.59900
O 	O 	0.88500 0.44000 0.46900 -0.59100
O 	O 	0.83400 0.30200 0.48000 -0.39800
O 	O 	0.77500 0.46100 0.14600 -0.59000
O 	O 	0.60800 0.36400 0.99700 -0.41600
O 	O 	0.69900 0.57300 0.31800 -0.49000
O 	O 	0.52300 0.54300 0.16700 -0.52100
O 	O 	0.13000 0.51900 0.15100 -0.64000
O 	O 	0.08600 0.53000 0.28400 -0.62300
C 	C 	0.82200 0.35300 0.42800 0.38400
C 	C 	0.71800 0.30500 0.31500 -0.08000
C 	C 	0.62300 0.21800 0.26700 0.00100
H 	H 	0.61450 0.17930 0.30390 -0.00800
C 	C 	0.54000 0.19300 0.16000 -0.09000
H 	H 	0.47160 0.13860 0.12690 0.02200
C 	C 	0.55000 0.24200 0.09600 -0.00400
H 	H 	0.49580 0.21870 0.02270 -0.03800
C 	C 	0.64800 0.32900 0.15100 -0.06300
C 	C 	0.68400 0.38700 0.09600 0.25100
C 	C 	0.58000 0.55900 0.26700 0.36900
C 	C 	0.50500 0.56000 0.33000 -0.09200
C 	C 	0.55700 0.59500 0.44200 0.02200
H 	H 	0.64460 0.61310 0.48380 0.01000
C 	C 	0.47500 0.60300 0.49000 -0.11900
H 	H 	0.50480 0.63070 0.56460 0.06400
C 	C 	0.34600 0.56800 0.42200 0.05500
H 	H 	0.29040 0.55980 0.45180 0.01000
C 	C 	0.29700 0.54400 0.31200 -0.15500
C 	C 	0.15800 0.52700 0.24500 0.51300
Si	Si	-0.00000 0.00000 -0.00000 3.38700
