data_crystal

_cell_length_a 21.91700
_cell_length_b 21.91700
_cell_length_c 16.58680
_cell_angle_alpha 90.00000
_cell_angle_beta  90.00000
_cell_angle_gamma 90.00000

_symmetry_space_group_name_	'P 1'
_symmetry_space_group_name_H-M	'P 1'

loop_
_symmetry_equiv_pos_as_xyz
  x,y,z

loop_
_atom_site_label
_atom_site_type_symbol
_atom_site_fract_x
_atom_site_fract_y
_atom_site_fract_z
_atom_site_charge
Nd	Nd	0.88894 0.42493 0.11504 1.67300
N 	N 	0.83150 0.38540 0.98830 -0.18100
O 	O 	0.86260 0.31690 0.11190 -0.50500
O 	O 	0.82450 0.23260 0.05150 -0.53100
O 	O 	0.85930 0.50090 0.01130 -0.51700
O 	O 	0.81710 0.52860 0.89380 -0.48800
C 	C 	0.83200 0.28820 0.05330 0.37100
C 	C 	0.81420 0.32670 0.98460 -0.08900
C 	C 	0.77950 0.30360 0.91730 -0.00500
H 	H 	0.76870 0.26260 0.91390 0.00700
C 	C 	0.76340 0.34390 0.85910 -0.08100
H 	H 	0.73970 0.33070 0.81600 0.03400
C 	C 	0.78200 0.40550 0.86310 -0.01600
H 	H 	0.77280 0.43290 0.82210 0.02100
C 	C 	0.81410 0.42300 0.93010 -0.06800
C 	C 	0.83120 0.49060 0.94490 0.38800
Nd	Nd	0.38894 0.92493 0.61504 1.67200
N 	N 	0.33150 0.88540 0.48830 -0.18200
O 	O 	0.36260 0.81690 0.61190 -0.50700
O 	O 	0.32450 0.73260 0.55150 -0.53200
O 	O 	0.35930 0.00090 0.51130 -0.51900
O 	O 	0.31710 0.02860 0.39380 -0.49000
C 	C 	0.33200 0.78820 0.55330 0.37100
C 	C 	0.31420 0.82670 0.48460 -0.09100
C 	C 	0.27950 0.80360 0.41730 -0.00600
H 	H 	0.26870 0.76260 0.41390 0.00600
C 	C 	0.26340 0.84390 0.35910 -0.08200
H 	H 	0.23970 0.83070 0.31600 0.03300
C 	C 	0.28200 0.90550 0.36310 -0.01600
H 	H 	0.27280 0.93290 0.32210 0.02100
C 	C 	0.31410 0.92300 0.43010 -0.06800
C 	C 	0.33120 0.99060 0.44490 0.38900
Nd	Nd	0.61106 0.57507 0.61504 1.67200
N 	N 	0.66850 0.61460 0.48830 -0.18200
O 	O 	0.63740 0.68310 0.61190 -0.50700
O 	O 	0.67550 0.76740 0.55150 -0.53200
O 	O 	0.64070 0.49910 0.51130 -0.51800
O 	O 	0.68290 0.47140 0.39380 -0.48900
C 	C 	0.66800 0.71180 0.55330 0.37100
C 	C 	0.68580 0.67330 0.48460 -0.09100
C 	C 	0.72050 0.69640 0.41730 -0.00600
H 	H 	0.73130 0.73740 0.41390 0.00600
C 	C 	0.73660 0.65610 0.35910 -0.08200
H 	H 	0.76030 0.66930 0.31600 0.03300
C 	C 	0.71800 0.59450 0.36310 -0.01600
H 	H 	0.72720 0.56710 0.32210 0.02100
C 	C 	0.68590 0.57700 0.43010 -0.06800
C 	C 	0.66880 0.50940 0.44490 0.38800
Nd	Nd	0.11106 0.07507 0.11504 1.66800
N 	N 	0.16850 0.11460 0.98830 -0.18200
O 	O 	0.13740 0.18310 0.11190 -0.50600
O 	O 	0.17550 0.26740 0.05150 -0.53200
O 	O 	0.14070 0.99910 0.01130 -0.51600
O 	O 	0.18290 0.97140 0.89380 -0.49000
C 	C 	0.16800 0.21180 0.05330 0.36900
C 	C 	0.18580 0.17330 0.98460 -0.09000
C 	C 	0.22050 0.19640 0.91730 -0.00700
H 	H 	0.23130 0.23740 0.91390 0.00600
C 	C 	0.23660 0.15610 0.85910 -0.08100
H 	H 	0.26030 0.16930 0.81600 0.03300
C 	C 	0.21800 0.09450 0.86310 -0.01600
H 	H 	0.22720 0.06710 0.82210 0.02100
C 	C 	0.18590 0.07700 0.93010 -0.06800
C 	C 	0.16880 0.00940 0.94490 0.38800
Nd	Nd	0.32507 0.13894 0.36504 1.67200
N 	N 	0.36460 0.08150 0.23830 -0.18100
O 	O 	0.43310 0.11260 0.36190 -0.50700
O 	O 	0.51740 0.07450 0.30150 -0.53200
O 	O 	0.24910 0.10930 0.26130 -0.51800
O 	O 	0.22140 0.06710 0.14380 -0.49000
C 	C 	0.46180 0.08200 0.30330 0.37100
C 	C 	0.42330 0.06420 0.23460 -0.09300
C 	C 	0.44640 0.02950 0.16730 -0.00200
H 	H 	0.48740 0.01870 0.16390 0.00400
C 	C 	0.40610 0.01340 0.10910 -0.08900
H 	H 	0.41930 0.98970 0.06600 0.03700
C 	C 	0.34450 0.03200 0.11310 -0.01200
H 	H 	0.31710 0.02280 0.07210 0.01900
C 	C 	0.32700 0.06410 0.18010 -0.07000
C 	C 	0.25940 0.08120 0.19490 0.38800
Nd	Nd	0.82507 0.63894 0.86504 1.67200
N 	N 	0.86460 0.58150 0.73830 -0.18200
O 	O 	0.93310 0.61260 0.86190 -0.50700
O 	O 	0.01740 0.57450 0.80150 -0.53100
O 	O 	0.74910 0.60930 0.76130 -0.51800
O 	O 	0.72140 0.56710 0.64380 -0.48900
C 	C 	0.96180 0.58200 0.80330 0.37100
C 	C 	0.92330 0.56420 0.73460 -0.09100
C 	C 	0.94640 0.52950 0.66730 -0.00600
H 	H 	0.98740 0.51870 0.66390 0.00600
C 	C 	0.90610 0.51340 0.60910 -0.08200
H 	H 	0.91930 0.48970 0.56600 0.03300
C 	C 	0.84450 0.53200 0.61310 -0.01600
H 	H 	0.81710 0.52280 0.57210 0.02100
C 	C 	0.82700 0.56410 0.68010 -0.06800
C 	C 	0.75940 0.58120 0.69490 0.38800
Nd	Nd	0.17493 0.86106 0.86504 1.67100
N 	N 	0.13540 0.91850 0.73830 -0.18200
O 	O 	0.06690 0.88740 0.86190 -0.50700
O 	O 	0.98260 0.92550 0.80150 -0.53300
O 	O 	0.25090 0.89070 0.76130 -0.51800
O 	O 	0.27860 0.93290 0.64380 -0.48900
C 	C 	0.03820 0.91800 0.80330 0.37200
C 	C 	0.07670 0.93580 0.73460 -0.09100
C 	C 	0.05360 0.97050 0.66730 -0.00700
H 	H 	0.01260 0.98130 0.66390 0.00700
C 	C 	0.09390 0.98660 0.60910 -0.08000
H 	H 	0.08070 0.01030 0.56600 0.03200
C 	C 	0.15550 0.96800 0.61310 -0.01700
H 	H 	0.18290 0.97720 0.57210 0.02200
C 	C 	0.17300 0.93590 0.68010 -0.06800
C 	C 	0.24060 0.91880 0.69490 0.38800
Nd	Nd	0.67493 0.36106 0.36504 1.67200
N 	N 	0.63540 0.41850 0.23830 -0.18200
O 	O 	0.56690 0.38740 0.36190 -0.50700
O 	O 	0.48260 0.42550 0.30150 -0.53200
O 	O 	0.75090 0.39070 0.26130 -0.51800
O 	O 	0.77860 0.43290 0.14380 -0.49000
C 	C 	0.53820 0.41800 0.30330 0.37100
C 	C 	0.57670 0.43580 0.23460 -0.09100
C 	C 	0.55360 0.47050 0.16730 -0.00600
H 	H 	0.51260 0.48130 0.16390 0.00600
C 	C 	0.59390 0.48660 0.10910 -0.08200
H 	H 	0.58070 0.51030 0.06600 0.03300
C 	C 	0.65550 0.46800 0.11310 -0.01600
H 	H 	0.68290 0.47720 0.07210 0.02100
C 	C 	0.67300 0.43590 0.18010 -0.06800
C 	C 	0.74060 0.41880 0.19490 0.38800
Nd	Nd	0.11106 0.57507 0.88496 1.67200
N 	N 	0.16850 0.61460 0.01170 -0.18200
O 	O 	0.13740 0.68310 0.88810 -0.50600
O 	O 	0.17550 0.76740 0.94850 -0.53200
O 	O 	0.14070 0.49910 0.98870 -0.51800
O 	O 	0.18290 0.47140 0.10620 -0.48900
C 	C 	0.16800 0.71180 0.94670 0.37000
C 	C 	0.18580 0.67330 0.01540 -0.09000
C 	C 	0.22050 0.69640 0.08270 -0.00600
H 	H 	0.23130 0.73740 0.08610 0.00600
C 	C 	0.23660 0.65610 0.14090 -0.08200
H 	H 	0.26030 0.66930 0.18400 0.03300
C 	C 	0.21800 0.59450 0.13690 -0.01600
H 	H 	0.22720 0.56710 0.17790 0.02100
C 	C 	0.18590 0.57700 0.06990 -0.06800
C 	C 	0.16880 0.50940 0.05510 0.38800
Nd	Nd	0.61106 0.07507 0.38496 1.67200
N 	N 	0.66850 0.11460 0.51170 -0.18200
O 	O 	0.63740 0.18310 0.38810 -0.50700
O 	O 	0.67550 0.26740 0.44850 -0.53200
O 	O 	0.64070 0.99910 0.48870 -0.51900
O 	O 	0.68290 0.97140 0.60620 -0.49000
C 	C 	0.66800 0.21180 0.44670 0.37100
C 	C 	0.68580 0.17330 0.51540 -0.09100
C 	C 	0.72050 0.19640 0.58270 -0.00600
H 	H 	0.73130 0.23740 0.58610 0.00600
C 	C 	0.73660 0.15610 0.64090 -0.08200
H 	H 	0.76030 0.16930 0.68400 0.03300
C 	C 	0.71800 0.09450 0.63690 -0.01600
H 	H 	0.72720 0.06710 0.67790 0.02100
C 	C 	0.68590 0.07700 0.56990 -0.06800
C 	C 	0.66880 0.00940 0.55510 0.38900
Nd	Nd	0.38894 0.42493 0.38496 1.67200
N 	N 	0.33150 0.38540 0.51170 -0.18200
O 	O 	0.36260 0.31690 0.38810 -0.50700
O 	O 	0.32450 0.23260 0.44850 -0.53200
O 	O 	0.35930 0.50090 0.48870 -0.51800
O 	O 	0.31710 0.52860 0.60620 -0.48900
C 	C 	0.33200 0.28820 0.44670 0.37100
C 	C 	0.31420 0.32670 0.51540 -0.09100
C 	C 	0.27950 0.30360 0.58270 -0.00600
H 	H 	0.26870 0.26260 0.58610 0.00600
C 	C 	0.26340 0.34390 0.64090 -0.08200
H 	H 	0.23970 0.33070 0.68400 0.03300
C 	C 	0.28200 0.40550 0.63690 -0.01600
H 	H 	0.27280 0.43290 0.67790 0.02100
C 	C 	0.31410 0.42300 0.56990 -0.06800
C 	C 	0.33120 0.49060 0.55510 0.38800
Nd	Nd	0.88894 0.92493 0.88496 1.66800
N 	N 	0.83150 0.88540 0.01170 -0.18200
O 	O 	0.86260 0.81690 0.88810 -0.50600
O 	O 	0.82450 0.73260 0.94850 -0.53200
O 	O 	0.85930 0.00090 0.98870 -0.51600
O 	O 	0.81710 0.02860 0.10620 -0.49000
C 	C 	0.83200 0.78820 0.94670 0.36900
C 	C 	0.81420 0.82670 0.01540 -0.09000
C 	C 	0.77950 0.80360 0.08270 -0.00700
H 	H 	0.76870 0.76260 0.08610 0.00600
C 	C 	0.76340 0.84390 0.14090 -0.08100
H 	H 	0.73970 0.83070 0.18400 0.03300
C 	C 	0.78200 0.90550 0.13690 -0.01600
H 	H 	0.77280 0.93290 0.17790 0.02100
C 	C 	0.81410 0.92300 0.06990 -0.06800
C 	C 	0.83120 0.99060 0.05510 0.38800
Nd	Nd	0.67493 0.86106 0.63496 1.67200
N 	N 	0.63540 0.91850 0.76170 -0.18100
O 	O 	0.56690 0.88740 0.63810 -0.50700
O 	O 	0.48260 0.92550 0.69850 -0.53200
O 	O 	0.75090 0.89070 0.73870 -0.51800
O 	O 	0.77860 0.93290 0.85620 -0.49000
C 	C 	0.53820 0.91800 0.69670 0.37100
C 	C 	0.57670 0.93580 0.76540 -0.09300
C 	C 	0.55360 0.97050 0.83270 -0.00200
H 	H 	0.51260 0.98130 0.83610 0.00400
C 	C 	0.59390 0.98660 0.89090 -0.08900
H 	H 	0.58070 0.01030 0.93400 0.03700
C 	C 	0.65550 0.96800 0.88690 -0.01200
H 	H 	0.68290 0.97720 0.92790 0.01900
C 	C 	0.67300 0.93590 0.81990 -0.07000
C 	C 	0.74060 0.91880 0.80510 0.38800
Nd	Nd	0.17493 0.36106 0.13496 1.67200
N 	N 	0.13540 0.41850 0.26170 -0.18200
O 	O 	0.06690 0.38740 0.13810 -0.50700
O 	O 	0.98260 0.42550 0.19850 -0.53100
O 	O 	0.25090 0.39070 0.23870 -0.51800
O 	O 	0.27860 0.43290 0.35620 -0.48900
C 	C 	0.03820 0.41800 0.19670 0.37100
C 	C 	0.07670 0.43580 0.26540 -0.09100
C 	C 	0.05360 0.47050 0.33270 -0.00600
H 	H 	0.01260 0.48130 0.33610 0.00600
C 	C 	0.09390 0.48660 0.39090 -0.08200
H 	H 	0.08070 0.51030 0.43400 0.03300
C 	C 	0.15550 0.46800 0.38690 -0.01600
H 	H 	0.18290 0.47720 0.42790 0.02100
C 	C 	0.17300 0.43590 0.31990 -0.06800
C 	C 	0.24060 0.41880 0.30510 0.38800
Nd	Nd	0.82507 0.13894 0.13496 1.67100
N 	N 	0.86460 0.08150 0.26170 -0.18200
O 	O 	0.93310 0.11260 0.13810 -0.50700
O 	O 	0.01740 0.07450 0.19850 -0.53300
O 	O 	0.74910 0.10930 0.23870 -0.51800
O 	O 	0.72140 0.06710 0.35620 -0.48900
C 	C 	0.96180 0.08200 0.19670 0.37200
C 	C 	0.92330 0.06420 0.26540 -0.09100
C 	C 	0.94640 0.02950 0.33270 -0.00700
H 	H 	0.98740 0.01870 0.33610 0.00700
C 	C 	0.90610 0.01340 0.39090 -0.08000
H 	H 	0.91930 0.98970 0.43400 0.03200
C 	C 	0.84450 0.03200 0.38690 -0.01700
H 	H 	0.81710 0.02280 0.42790 0.02200
C 	C 	0.82700 0.06410 0.31990 -0.06800
C 	C 	0.75940 0.08120 0.30510 0.38800
Nd	Nd	0.32507 0.63894 0.63496 1.67200
N 	N 	0.36460 0.58150 0.76170 -0.18200
O 	O 	0.43310 0.61260 0.63810 -0.50700
O 	O 	0.51740 0.57450 0.69850 -0.53200
O 	O 	0.24910 0.60930 0.73870 -0.51800
O 	O 	0.22140 0.56710 0.85620 -0.49000
C 	C 	0.46180 0.58200 0.69670 0.37100
C 	C 	0.42330 0.56420 0.76540 -0.09100
C 	C 	0.44640 0.52950 0.83270 -0.00600
H 	H 	0.48740 0.51870 0.83610 0.00600
C 	C 	0.40610 0.51340 0.89090 -0.08200
H 	H 	0.41930 0.48970 0.93400 0.03300
C 	C 	0.34450 0.53200 0.88690 -0.01600
H 	H 	0.31710 0.52280 0.92790 0.02100
C 	C 	0.32700 0.56410 0.81990 -0.06800
C 	C 	0.25940 0.58120 0.80510 0.38800
