data_crystal

_cell_length_a 10.44300
_cell_length_b 11.54200
_cell_length_c 13.19700
_cell_angle_alpha 87.51000
_cell_angle_beta  70.64800
_cell_angle_gamma 85.71100

_symmetry_space_group_name_	'P 1'
_symmetry_space_group_name_H-M	'P 1'

loop_
_symmetry_equiv_pos_as_xyz
  x,y,z

loop_
_atom_site_label
_atom_site_type_symbol
_atom_site_fract_x
_atom_site_fract_y
_atom_site_fract_z
_atom_site_charge
Cd	Cd	0.61267 0.88678 0.04891 1.22200
O 	O 	0.48850 0.07520 0.08500 -0.53200
O 	O 	0.57950 0.00920 0.20480 -0.41500
O 	O 	0.72050 0.71000 0.96410 -0.40700
O 	O 	0.74260 0.73980 0.12110 -0.39000
N 	N 	0.80700 0.97650 0.94860 -0.19400
N 	N 	0.04470 0.99380 0.59250 -0.08000
N 	N 	0.43150 0.78770 0.15880 -0.20800
N 	N 	0.42220 0.58060 0.45810 -0.08300
C 	C 	0.24590 0.66810 0.18850 -0.06000
H 	H 	0.18450 0.63610 0.16200 0.04700
C 	C 	0.84890 0.07070 0.98150 -0.00800
H 	H 	0.79830 0.10130 0.04790 0.03000
C 	C 	0.96460 0.12370 0.92030 -0.02600
H 	H 	0.99000 0.18990 0.94460 0.04000
C 	C 	0.04160 0.07790 0.82330 -0.09500
H 	H 	0.12090 0.11160 0.78200 0.07300
C 	C 	0.00040 0.98120 0.78740 0.05800
C 	C 	0.88200 0.93330 0.85470 -0.02000
H 	H 	0.85430 0.86720 0.83210 0.02400
C 	C 	0.07620 0.92830 0.68060 -0.13400
H 	H 	0.17320 0.92720 0.66820 0.07100
H 	H 	0.05210 0.84870 0.68130 0.06400
C 	C 	0.90070 0.99440 0.60320 -0.04400
H 	H 	0.84630 0.03160 0.66960 0.04300
H 	H 	0.87460 0.91510 0.60640 0.04300
C 	C 	0.12650 0.94160 0.49040 -0.07200
H 	H 	0.10550 0.86110 0.49080 0.05300
H 	H 	0.22210 0.94310 0.48210 0.04700
C 	C 	0.34300 0.73720 0.12400 0.03200
H 	H 	0.34750 0.74970 0.05280 0.00900
C 	C 	0.24100 0.64670 0.29440 -0.06400
H 	H 	0.17700 0.59900 0.33920 0.04700
C 	C 	0.33170 0.69680 0.33220 0.03500
C 	C 	0.42600 0.76710 0.26060 -0.01700
H 	H 	0.48790 0.80120 0.28500 0.03100
C 	C 	0.33290 0.67890 0.44620 -0.12200
H 	H 	0.36170 0.74860 0.46850 0.06200
H 	H 	0.24120 0.66700 0.49330 0.06000
C 	C 	0.54570 0.56270 0.40070 -0.02500
H 	H 	0.59560 0.62670 0.41020 0.04100
H 	H 	0.55070 0.56410 0.32590 0.04200
C 	C 	0.38280 0.54990 0.57710 -0.06800
H 	H 	0.40490 0.61240 0.61400 0.02600
H 	H 	0.28520 0.54310 0.60590 0.03700
C 	C 	0.75960 0.67700 0.04070 0.39400
C 	C 	0.82710 0.55660 0.04050 -0.42500
H 	H 	0.89430 0.55820 0.07640 0.15300
H 	H 	0.87440 0.53410 0.96680 0.15600
C 	C 	0.72710 0.46570 0.09570 0.13100
C 	C 	0.59320 0.47450 0.09740 -0.07900
H 	H 	0.56180 0.53980 0.06670 0.06600
C 	C 	0.76890 0.36780 0.14410 -0.08600
H 	H 	0.85780 0.35980 0.14520 0.05100
C 	C 	0.50560 0.38900 0.14340 -0.13800
H 	H 	0.41650 0.39710 0.14310 0.08600
C 	C 	0.68230 0.28290 0.19040 -0.13400
H 	H 	0.71310 0.21850 0.22270 0.07700
C 	C 	0.54960 0.29100 0.19010 0.17800
C 	C 	0.45480 0.19400 0.23750 -0.49300
H 	H 	0.44840 0.17920 0.31190 0.17700
H 	H 	0.36450 0.21690 0.23530 0.17600
C 	C 	0.50960 0.08480 0.17330 0.46300
C 	C 	0.42510 0.48070 0.42870 -0.01500
H 	H 	0.42860 0.48370 0.35430 0.03400
H 	H 	0.34070 0.44740 0.47070 0.03200
C 	C 	0.45490 0.60200 0.56200 -0.05900
H 	H 	0.47790 0.68190 0.56180 0.03400
H 	H 	0.37490 0.59020 0.62400 0.04800
Cd	Cd	0.38733 0.11322 0.95109 1.22200
O 	O 	0.51150 0.92480 0.91500 -0.53200
O 	O 	0.42050 0.99080 0.79520 -0.41500
O 	O 	0.27950 0.29000 0.03590 -0.40700
O 	O 	0.25740 0.26020 0.87890 -0.39000
N 	N 	0.19300 0.02350 0.05140 -0.19400
N 	N 	0.95530 0.00620 0.40750 -0.08000
N 	N 	0.56850 0.21230 0.84120 -0.20800
N 	N 	0.57780 0.41940 0.54190 -0.08300
C 	C 	0.75410 0.33190 0.81150 -0.06000
H 	H 	0.81550 0.36390 0.83800 0.04700
C 	C 	0.15110 0.92930 0.01850 -0.00800
H 	H 	0.20170 0.89870 0.95210 0.03000
C 	C 	0.03540 0.87630 0.07970 -0.02600
H 	H 	0.01000 0.81010 0.05540 0.04000
C 	C 	0.95840 0.92210 0.17670 -0.09500
H 	H 	0.87910 0.88840 0.21800 0.07300
C 	C 	0.99960 0.01880 0.21260 0.05800
C 	C 	0.11800 0.06670 0.14530 -0.02000
H 	H 	0.14570 0.13280 0.16790 0.02400
C 	C 	0.92380 0.07170 0.31940 -0.13400
H 	H 	0.82680 0.07280 0.33180 0.07100
H 	H 	0.94790 0.15130 0.31870 0.06400
C 	C 	0.09930 0.00560 0.39680 -0.04400
H 	H 	0.15370 0.96840 0.33040 0.04300
H 	H 	0.12540 0.08490 0.39360 0.04300
C 	C 	0.87350 0.05840 0.50960 -0.07200
H 	H 	0.89450 0.13890 0.50920 0.05300
H 	H 	0.77790 0.05690 0.51790 0.04700
C 	C 	0.65700 0.26280 0.87600 0.03200
H 	H 	0.65250 0.25030 0.94720 0.00900
C 	C 	0.75900 0.35330 0.70560 -0.06400
H 	H 	0.82300 0.40100 0.66080 0.04700
C 	C 	0.66830 0.30320 0.66780 0.03500
C 	C 	0.57400 0.23290 0.73940 -0.01700
H 	H 	0.51210 0.19880 0.71500 0.03100
C 	C 	0.66710 0.32110 0.55380 -0.12200
H 	H 	0.63830 0.25140 0.53150 0.06200
H 	H 	0.75880 0.33300 0.50670 0.06000
C 	C 	0.45430 0.43730 0.59930 -0.02500
H 	H 	0.40440 0.37330 0.58980 0.04100
H 	H 	0.44930 0.43590 0.67410 0.04200
C 	C 	0.61720 0.45010 0.42290 -0.06800
H 	H 	0.59510 0.38760 0.38600 0.02600
H 	H 	0.71480 0.45690 0.39410 0.03700
C 	C 	0.24040 0.32300 0.95930 0.39400
C 	C 	0.17290 0.44340 0.95950 -0.42500
H 	H 	0.10570 0.44180 0.92360 0.15300
H 	H 	0.12560 0.46590 0.03320 0.15600
C 	C 	0.27290 0.53430 0.90430 0.13100
C 	C 	0.40680 0.52550 0.90260 -0.07900
H 	H 	0.43820 0.46020 0.93330 0.06600
C 	C 	0.23110 0.63220 0.85590 -0.08600
H 	H 	0.14220 0.64020 0.85480 0.05100
C 	C 	0.49440 0.61100 0.85660 -0.13800
H 	H 	0.58350 0.60290 0.85690 0.08600
C 	C 	0.31770 0.71710 0.80960 -0.13400
H 	H 	0.28690 0.78150 0.77730 0.07700
C 	C 	0.45040 0.70900 0.80990 0.17800
C 	C 	0.54520 0.80600 0.76250 -0.49300
H 	H 	0.55160 0.82080 0.68810 0.17700
H 	H 	0.63550 0.78310 0.76470 0.17600
C 	C 	0.49040 0.91520 0.82670 0.46300
C 	C 	0.57490 0.51930 0.57130 -0.01500
H 	H 	0.57140 0.51630 0.64570 0.03400
H 	H 	0.65930 0.55260 0.52930 0.03200
C 	C 	0.54510 0.39800 0.43800 -0.05900
H 	H 	0.52210 0.31810 0.43820 0.03400
H 	H 	0.62510 0.40980 0.37600 0.04800
