data_crystal

_cell_length_a 21.89370
_cell_length_b 21.89370
_cell_length_c 16.76870
_cell_angle_alpha 90.00000
_cell_angle_beta  90.00000
_cell_angle_gamma 90.00000

_symmetry_space_group_name_	'P 1'
_symmetry_space_group_name_H-M	'P 1'

loop_
_symmetry_equiv_pos_as_xyz
  x,y,z

loop_
_atom_site_label
_atom_site_type_symbol
_atom_site_fract_x
_atom_site_fract_y
_atom_site_fract_z
_atom_site_charge
La	La	0.82020 0.35795 0.63752 1.53900
N 	N 	0.86290 0.41710 0.76500 -0.16300
O 	O 	0.72120 0.43070 0.86270 -0.41400
O 	O 	0.74740 0.38900 0.74590 -0.43800
O 	O 	0.93220 0.38350 0.64420 -0.46200
O 	O 	0.01470 0.42470 0.70020 -0.46400
O 	O 	0.72150 0.38340 0.55680 -0.67900
H 	H 	0.72540 0.42060 0.53960 0.25900
H 	H 	0.73230 0.36070 0.51780 0.23800
C 	C 	0.75930 0.41710 0.81060 0.33500
C 	C 	0.82470 0.43470 0.82350 -0.06300
C 	C 	0.84500 0.46750 0.88700 -0.00900
H 	H 	0.81790 0.47910 0.92700 0.02900
C 	C 	0.90570 0.48360 0.89210 -0.07300
H 	H 	0.92010 0.50590 0.93540 0.04400
C 	C 	0.94500 0.46580 0.83130 -0.00800
H 	H 	0.98620 0.47610 0.83290 0.02400
C 	C 	0.92160 0.43280 0.76860 -0.06900
C 	C 	0.95930 0.41210 0.69850 0.35900
La	La	0.32020 0.85795 0.13752 1.53900
N 	N 	0.36290 0.91710 0.26500 -0.16200
O 	O 	0.22120 0.93070 0.36270 -0.41300
O 	O 	0.24740 0.88900 0.24590 -0.43800
O 	O 	0.43220 0.88350 0.14420 -0.46100
O 	O 	0.51470 0.92470 0.20020 -0.46300
O 	O 	0.22150 0.88340 0.05680 -0.67800
H 	H 	0.22540 0.92060 0.03960 0.25900
H 	H 	0.23230 0.86070 0.01780 0.23800
C 	C 	0.25930 0.91710 0.31060 0.33600
C 	C 	0.32470 0.93470 0.32350 -0.06200
C 	C 	0.34500 0.96750 0.38700 -0.00700
H 	H 	0.31790 0.97910 0.42700 0.02900
C 	C 	0.40570 0.98360 0.39210 -0.07400
H 	H 	0.42010 0.00590 0.43540 0.04600
C 	C 	0.44500 0.96580 0.33130 -0.00600
H 	H 	0.48620 0.97610 0.33290 0.02300
C 	C 	0.42160 0.93280 0.26860 -0.07000
C 	C 	0.45930 0.91210 0.19850 0.36000
La	La	0.67980 0.64205 0.13752 1.54000
N 	N 	0.63710 0.58290 0.26500 -0.16200
O 	O 	0.77880 0.56930 0.36270 -0.41300
O 	O 	0.75260 0.61100 0.24590 -0.43700
O 	O 	0.56780 0.61650 0.14420 -0.46100
O 	O 	0.48530 0.57530 0.20020 -0.46300
O 	O 	0.77850 0.61660 0.05680 -0.67800
H 	H 	0.77460 0.57940 0.03960 0.26000
H 	H 	0.76770 0.63930 0.01780 0.23800
C 	C 	0.74070 0.58290 0.31060 0.33600
C 	C 	0.67530 0.56530 0.32350 -0.06200
C 	C 	0.65500 0.53250 0.38700 -0.00800
H 	H 	0.68210 0.52090 0.42700 0.03000
C 	C 	0.59430 0.51640 0.39210 -0.07200
H 	H 	0.57990 0.49410 0.43540 0.04500
C 	C 	0.55500 0.53420 0.33130 -0.00700
H 	H 	0.51380 0.52390 0.33290 0.02400
C 	C 	0.57840 0.56720 0.26860 -0.06900
C 	C 	0.54070 0.58790 0.19850 0.36000
La	La	0.17980 0.14205 0.63752 1.54000
N 	N 	0.13710 0.08290 0.76500 -0.16200
O 	O 	0.27880 0.06930 0.86270 -0.41400
O 	O 	0.25260 0.11100 0.74590 -0.43700
O 	O 	0.06780 0.11650 0.64420 -0.46100
O 	O 	0.98530 0.07530 0.70020 -0.46400
O 	O 	0.27850 0.11660 0.55680 -0.67800
H 	H 	0.27460 0.07940 0.53960 0.26000
H 	H 	0.26770 0.13930 0.51780 0.23900
C 	C 	0.24070 0.08290 0.81060 0.33700
C 	C 	0.17530 0.06530 0.82350 -0.06300
C 	C 	0.15500 0.03250 0.88700 -0.00500
H 	H 	0.18210 0.02090 0.92700 0.02900
C 	C 	0.09430 0.01640 0.89210 -0.07600
H 	H 	0.07990 0.99410 0.93540 0.04700
C 	C 	0.05500 0.03420 0.83130 -0.00400
H 	H 	0.01380 0.02390 0.83290 0.02300
C 	C 	0.07840 0.06720 0.76860 -0.07000
C 	C 	0.04070 0.08790 0.69850 0.36100
La	La	0.39205 0.07020 0.88752 1.53800
N 	N 	0.33290 0.11290 0.01500 -0.16200
O 	O 	0.31930 0.97120 0.11270 -0.41600
O 	O 	0.36100 0.99740 0.99590 -0.43700
O 	O 	0.36650 0.18220 0.89420 -0.46100
O 	O 	0.32530 0.26470 0.95020 -0.46300
O 	O 	0.36660 0.97150 0.80680 -0.67800
H 	H 	0.32940 0.97540 0.78960 0.26000
H 	H 	0.38930 0.98230 0.76780 0.23900
C 	C 	0.33290 0.00930 0.06060 0.34000
C 	C 	0.31530 0.07470 0.07350 -0.06200
C 	C 	0.28250 0.09500 0.13700 -0.00700
H 	H 	0.27090 0.06790 0.17700 0.03000
C 	C 	0.26640 0.15570 0.14210 -0.07200
H 	H 	0.24410 0.17010 0.18540 0.04500
C 	C 	0.28420 0.19500 0.08130 -0.00700
H 	H 	0.27390 0.23620 0.08290 0.02400
C 	C 	0.31720 0.17160 0.01860 -0.06800
C 	C 	0.33790 0.20930 0.94850 0.35800
La	La	0.89205 0.57020 0.38752 1.54000
N 	N 	0.83290 0.61290 0.51500 -0.16200
O 	O 	0.81930 0.47120 0.61270 -0.41300
O 	O 	0.86100 0.49740 0.49590 -0.43700
O 	O 	0.86650 0.68220 0.39420 -0.46100
O 	O 	0.82530 0.76470 0.45020 -0.46300
O 	O 	0.86660 0.47150 0.30680 -0.67800
H 	H 	0.82940 0.47540 0.28960 0.26000
H 	H 	0.88930 0.48230 0.26780 0.23900
C 	C 	0.83290 0.50930 0.56060 0.33600
C 	C 	0.81530 0.57470 0.57350 -0.06200
C 	C 	0.78250 0.59500 0.63700 -0.00800
H 	H 	0.77090 0.56790 0.67700 0.03000
C 	C 	0.76640 0.65570 0.64210 -0.07200
H 	H 	0.74410 0.67010 0.68540 0.04500
C 	C 	0.78420 0.69500 0.58130 -0.00700
H 	H 	0.77390 0.73620 0.58290 0.02400
C 	C 	0.81720 0.67160 0.51860 -0.06900
C 	C 	0.83790 0.70930 0.44850 0.36000
La	La	0.10795 0.92980 0.38752 1.53900
N 	N 	0.16710 0.88710 0.51500 -0.16200
O 	O 	0.18070 0.02880 0.61270 -0.41200
O 	O 	0.13900 0.00260 0.49590 -0.43600
O 	O 	0.13350 0.81780 0.39420 -0.46100
O 	O 	0.17470 0.73530 0.45020 -0.46300
O 	O 	0.13340 0.02850 0.30680 -0.67800
H 	H 	0.17060 0.02460 0.28960 0.26100
H 	H 	0.11070 0.01770 0.26780 0.23900
C 	C 	0.16710 0.99070 0.56060 0.33500
C 	C 	0.18470 0.92530 0.57350 -0.06100
C 	C 	0.21750 0.90500 0.63700 -0.00800
H 	H 	0.22910 0.93210 0.67700 0.03000
C 	C 	0.23360 0.84430 0.64210 -0.07200
H 	H 	0.25590 0.82990 0.68540 0.04500
C 	C 	0.21580 0.80500 0.58130 -0.00700
H 	H 	0.22610 0.76380 0.58290 0.02400
C 	C 	0.18280 0.82840 0.51860 -0.06900
C 	C 	0.16210 0.79070 0.44850 0.36000
La	La	0.60795 0.42980 0.88752 1.53900
N 	N 	0.66710 0.38710 0.01500 -0.16200
O 	O 	0.68070 0.52880 0.11270 -0.41300
O 	O 	0.63900 0.50260 0.99590 -0.43700
O 	O 	0.63350 0.31780 0.89420 -0.46100
O 	O 	0.67470 0.23530 0.95020 -0.46300
O 	O 	0.63340 0.52850 0.80680 -0.67800
H 	H 	0.67060 0.52460 0.78960 0.26000
H 	H 	0.61070 0.51770 0.76780 0.23900
C 	C 	0.66710 0.49070 0.06060 0.33600
C 	C 	0.68470 0.42530 0.07350 -0.06200
C 	C 	0.71750 0.40500 0.13700 -0.00800
H 	H 	0.72910 0.43210 0.17700 0.03000
C 	C 	0.73360 0.34430 0.14210 -0.07200
H 	H 	0.75590 0.32990 0.18540 0.04500
C 	C 	0.71580 0.30500 0.08130 -0.00700
H 	H 	0.72610 0.26380 0.08290 0.02400
C 	C 	0.68280 0.32840 0.01860 -0.06800
C 	C 	0.66210 0.29070 0.94850 0.35900
La	La	0.17980 0.64205 0.36248 1.54000
N 	N 	0.13710 0.58290 0.23500 -0.16200
O 	O 	0.27880 0.56930 0.13730 -0.41300
O 	O 	0.25260 0.61100 0.25410 -0.43700
O 	O 	0.06780 0.61650 0.35580 -0.46100
O 	O 	0.98530 0.57530 0.29980 -0.46300
O 	O 	0.27850 0.61660 0.44320 -0.67800
H 	H 	0.27460 0.57940 0.46040 0.26000
H 	H 	0.26770 0.63930 0.48220 0.23900
C 	C 	0.24070 0.58290 0.18940 0.33600
C 	C 	0.17530 0.56530 0.17650 -0.06200
C 	C 	0.15500 0.53250 0.11300 -0.00800
H 	H 	0.18210 0.52090 0.07300 0.03000
C 	C 	0.09430 0.51640 0.10790 -0.07200
H 	H 	0.07990 0.49410 0.06460 0.04500
C 	C 	0.05500 0.53420 0.16870 -0.00700
H 	H 	0.01380 0.52390 0.16710 0.02400
C 	C 	0.07840 0.56720 0.23140 -0.06900
C 	C 	0.04070 0.58790 0.30150 0.35900
La	La	0.67980 0.14205 0.86248 1.53900
N 	N 	0.63710 0.08290 0.73500 -0.16200
O 	O 	0.77880 0.06930 0.63730 -0.41300
O 	O 	0.75260 0.11100 0.75410 -0.43800
O 	O 	0.56780 0.11650 0.85580 -0.46100
O 	O 	0.48530 0.07530 0.79980 -0.46300
O 	O 	0.77850 0.11660 0.94320 -0.67800
H 	H 	0.77460 0.07940 0.96040 0.25900
H 	H 	0.76770 0.13930 0.98220 0.23800
C 	C 	0.74070 0.08290 0.68940 0.33600
C 	C 	0.67530 0.06530 0.67650 -0.06200
C 	C 	0.65500 0.03250 0.61300 -0.00700
H 	H 	0.68210 0.02090 0.57300 0.02900
C 	C 	0.59430 0.01640 0.60790 -0.07400
H 	H 	0.57990 0.99410 0.56460 0.04600
C 	C 	0.55500 0.03420 0.66870 -0.00600
H 	H 	0.51380 0.02390 0.66710 0.02300
C 	C 	0.57840 0.06720 0.73140 -0.07000
C 	C 	0.54070 0.08790 0.80150 0.36000
La	La	0.32020 0.35795 0.86248 1.54000
N 	N 	0.36290 0.41710 0.73500 -0.16200
O 	O 	0.22120 0.43070 0.63730 -0.41300
O 	O 	0.24740 0.38900 0.75410 -0.43700
O 	O 	0.43220 0.38350 0.85580 -0.46100
O 	O 	0.51470 0.42470 0.79980 -0.46300
O 	O 	0.22150 0.38340 0.94320 -0.67800
H 	H 	0.22540 0.42060 0.96040 0.26000
H 	H 	0.23230 0.36070 0.98220 0.23800
C 	C 	0.25930 0.41710 0.68940 0.33600
C 	C 	0.32470 0.43470 0.67650 -0.06200
C 	C 	0.34500 0.46750 0.61300 -0.00800
H 	H 	0.31790 0.47910 0.57300 0.03000
C 	C 	0.40570 0.48360 0.60790 -0.07200
H 	H 	0.42010 0.50590 0.56460 0.04500
C 	C 	0.44500 0.46580 0.66870 -0.00700
H 	H 	0.48620 0.47610 0.66710 0.02400
C 	C 	0.42160 0.43280 0.73140 -0.06900
C 	C 	0.45930 0.41210 0.80150 0.36000
La	La	0.82020 0.85795 0.36248 1.54000
N 	N 	0.86290 0.91710 0.23500 -0.16200
O 	O 	0.72120 0.93070 0.13730 -0.41400
O 	O 	0.74740 0.88900 0.25410 -0.43700
O 	O 	0.93220 0.88350 0.35580 -0.46100
O 	O 	0.01470 0.92470 0.29980 -0.46400
O 	O 	0.72150 0.88340 0.44320 -0.67800
H 	H 	0.72540 0.92060 0.46040 0.26000
H 	H 	0.73230 0.86070 0.48220 0.23900
C 	C 	0.75930 0.91710 0.18940 0.33700
C 	C 	0.82470 0.93470 0.17650 -0.06300
C 	C 	0.84500 0.96750 0.11300 -0.00500
H 	H 	0.81790 0.97910 0.07300 0.02900
C 	C 	0.90570 0.98360 0.10790 -0.07600
H 	H 	0.92010 0.00590 0.06460 0.04700
C 	C 	0.94500 0.96580 0.16870 -0.00400
H 	H 	0.98620 0.97610 0.16710 0.02300
C 	C 	0.92160 0.93280 0.23140 -0.07000
C 	C 	0.95930 0.91210 0.30150 0.36100
La	La	0.60795 0.92980 0.11248 1.53800
N 	N 	0.66710 0.88710 0.98500 -0.16200
O 	O 	0.68070 0.02880 0.88730 -0.41600
O 	O 	0.63900 0.00260 0.00410 -0.43700
O 	O 	0.63350 0.81780 0.10580 -0.46100
O 	O 	0.67470 0.73530 0.04980 -0.46300
O 	O 	0.63340 0.02850 0.19320 -0.67800
H 	H 	0.67060 0.02460 0.21040 0.26000
H 	H 	0.61070 0.01770 0.23220 0.23900
C 	C 	0.66710 0.99070 0.93940 0.34000
C 	C 	0.68470 0.92530 0.92650 -0.06200
C 	C 	0.71750 0.90500 0.86300 -0.00700
H 	H 	0.72910 0.93210 0.82300 0.03000
C 	C 	0.73360 0.84430 0.85790 -0.07200
H 	H 	0.75590 0.82990 0.81460 0.04500
C 	C 	0.71580 0.80500 0.91870 -0.00700
H 	H 	0.72610 0.76380 0.91710 0.02400
C 	C 	0.68280 0.82840 0.98140 -0.06800
C 	C 	0.66210 0.79070 0.05150 0.35800
La	La	0.10795 0.42980 0.61248 1.54000
N 	N 	0.16710 0.38710 0.48500 -0.16200
O 	O 	0.18070 0.52880 0.38730 -0.41300
O 	O 	0.13900 0.50260 0.50410 -0.43700
O 	O 	0.13350 0.31780 0.60580 -0.46100
O 	O 	0.17470 0.23530 0.54980 -0.46300
O 	O 	0.13340 0.52850 0.69320 -0.67800
H 	H 	0.17060 0.52460 0.71040 0.26000
H 	H 	0.11070 0.51770 0.73220 0.23900
C 	C 	0.16710 0.49070 0.43940 0.33600
C 	C 	0.18470 0.42530 0.42650 -0.06200
C 	C 	0.21750 0.40500 0.36300 -0.00800
H 	H 	0.22910 0.43210 0.32300 0.03000
C 	C 	0.23360 0.34430 0.35790 -0.07200
H 	H 	0.25590 0.32990 0.31460 0.04500
C 	C 	0.21580 0.30500 0.41870 -0.00700
H 	H 	0.22610 0.26380 0.41710 0.02400
C 	C 	0.18280 0.32840 0.48140 -0.06900
C 	C 	0.16210 0.29070 0.55150 0.36000
La	La	0.89205 0.07020 0.61248 1.53900
N 	N 	0.83290 0.11290 0.48500 -0.16200
O 	O 	0.81930 0.97120 0.38730 -0.41200
O 	O 	0.86100 0.99740 0.50410 -0.43600
O 	O 	0.86650 0.18220 0.60580 -0.46100
O 	O 	0.82530 0.26470 0.54980 -0.46300
O 	O 	0.86660 0.97150 0.69320 -0.67800
H 	H 	0.82940 0.97540 0.71040 0.26100
H 	H 	0.88930 0.98230 0.73220 0.23900
C 	C 	0.83290 0.00930 0.43940 0.33500
C 	C 	0.81530 0.07470 0.42650 -0.06100
C 	C 	0.78250 0.09500 0.36300 -0.00800
H 	H 	0.77090 0.06790 0.32300 0.03000
C 	C 	0.76640 0.15570 0.35790 -0.07200
H 	H 	0.74410 0.17010 0.31460 0.04500
C 	C 	0.78420 0.19500 0.41870 -0.00700
H 	H 	0.77390 0.23620 0.41710 0.02400
C 	C 	0.81720 0.17160 0.48140 -0.06900
C 	C 	0.83790 0.20930 0.55150 0.36000
La	La	0.39205 0.57020 0.11248 1.53900
N 	N 	0.33290 0.61290 0.98500 -0.16200
O 	O 	0.31930 0.47120 0.88730 -0.41300
O 	O 	0.36100 0.49740 0.00410 -0.43700
O 	O 	0.36650 0.68220 0.10580 -0.46100
O 	O 	0.32530 0.76470 0.04980 -0.46300
O 	O 	0.36660 0.47150 0.19320 -0.67800
H 	H 	0.32940 0.47540 0.21040 0.26000
H 	H 	0.38930 0.48230 0.23220 0.23900
C 	C 	0.33290 0.50930 0.93940 0.33600
C 	C 	0.31530 0.57470 0.92650 -0.06200
C 	C 	0.28250 0.59500 0.86300 -0.00800
H 	H 	0.27090 0.56790 0.82300 0.03000
C 	C 	0.26640 0.65570 0.85790 -0.07200
H 	H 	0.24410 0.67010 0.81460 0.04500
C 	C 	0.28420 0.69500 0.91870 -0.00700
H 	H 	0.27390 0.73620 0.91710 0.02400
C 	C 	0.31720 0.67160 0.98140 -0.06800
C 	C 	0.33790 0.70930 0.05150 0.35900
