data_crystal

_cell_length_a 9.99490
_cell_length_b 15.82290
_cell_length_c 18.19630
_cell_angle_alpha 90.00000
_cell_angle_beta  90.00000
_cell_angle_gamma 90.00000

_symmetry_space_group_name_	'P 1'
_symmetry_space_group_name_H-M	'P 1'

loop_
_symmetry_equiv_pos_as_xyz
  x,y,z

loop_
_atom_site_label
_atom_site_type_symbol
_atom_site_fract_x
_atom_site_fract_y
_atom_site_fract_z
_atom_site_charge
Al	Al	0.68470 0.03750 0.28230 2.40400
Al	Al	0.83100 0.85010 0.32340 2.40000
Al	Al	0.65770 0.00970 0.09400 2.39900
P 	P 	0.85930 0.00930 0.42271 0.71600
P 	P 	0.64580 0.18360 0.16993 0.72600
P 	P 	0.88410 0.94270 0.18548 0.69000
F 	F 	0.67870 0.92100 0.30720 -0.88500
F 	F 	0.60050 0.00390 0.19530 -0.94600
O 	O 	0.00460 0.04190 0.42740 -0.65600
O 	O 	0.79070 0.01910 0.49750 -0.59600
O 	O 	0.86370 0.91600 0.39980 -0.73000
O 	O 	0.78240 0.06360 0.36700 -0.56300
O 	O 	0.72920 0.26290 0.15490 -0.63200
O 	O 	0.68400 0.14850 0.24610 -0.60400
O 	O 	0.68310 0.12000 0.10780 -0.67000
O 	O 	0.49770 0.20740 0.16500 -0.58600
O 	O 	0.79780 0.94330 0.11520 -0.61100
O 	O 	0.85880 0.85720 0.22540 -0.63300
O 	O 	0.84660 0.01620 0.23510 -0.66200
O 	O 	0.03110 0.94820 0.16350 -0.56000
Al	Al	0.31530 0.46250 0.78230 2.40400
Al	Al	0.16900 0.64990 0.82340 2.39900
Al	Al	0.34230 0.49030 0.59400 2.39900
P 	P 	0.14070 0.49070 0.92271 0.72800
P 	P 	0.35420 0.31640 0.66993 0.72600
P 	P 	0.11590 0.55730 0.68548 0.67400
F 	F 	0.32130 0.57900 0.80720 -0.88900
F 	F 	0.39950 0.49610 0.69530 -0.94300
O 	O 	0.99540 0.45810 0.92740 -0.66600
O 	O 	0.20930 0.48090 0.99750 -0.59600
O 	O 	0.13630 0.58400 0.89980 -0.73900
O 	O 	0.21760 0.43640 0.86700 -0.56200
O 	O 	0.27080 0.23710 0.65490 -0.63000
O 	O 	0.31600 0.35150 0.74610 -0.60300
O 	O 	0.31690 0.38000 0.60780 -0.66600
O 	O 	0.50230 0.29260 0.66500 -0.58600
O 	O 	0.20220 0.55670 0.61520 -0.61500
O 	O 	0.14120 0.64280 0.72540 -0.63500
O 	O 	0.15340 0.48380 0.73510 -0.65300
O 	O 	0.96890 0.55180 0.66350 -0.55200
Al	Al	0.18470 0.96250 0.21770 2.40400
Al	Al	0.33100 0.14990 0.17660 2.39900
Al	Al	0.15770 0.99030 0.40600 2.39900
P 	P 	0.35930 0.99070 0.07729 0.73100
P 	P 	0.14580 0.81640 0.33007 0.72200
P 	P 	0.38410 0.05730 0.31452 0.67600
F 	F 	0.17870 0.07900 0.19280 -0.88600
F 	F 	0.10050 0.99610 0.30470 -0.94500
O 	O 	0.50460 0.95810 0.07260 -0.66200
O 	O 	0.29070 0.98090 0.00250 -0.59400
O 	O 	0.36370 0.08400 0.10020 -0.74000
O 	O 	0.28240 0.93640 0.13300 -0.56300
O 	O 	0.22920 0.73710 0.34510 -0.63100
O 	O 	0.18400 0.85150 0.25390 -0.60400
O 	O 	0.18310 0.88000 0.39220 -0.66800
O 	O 	0.99770 0.79260 0.33500 -0.58200
O 	O 	0.29780 0.05670 0.38480 -0.61200
O 	O 	0.35880 0.14280 0.27460 -0.63300
O 	O 	0.34660 0.98380 0.26490 -0.65100
O 	O 	0.53110 0.05180 0.33650 -0.55300
Al	Al	0.81530 0.53750 0.71770 2.40400
Al	Al	0.66900 0.35010 0.67660 2.39900
Al	Al	0.84230 0.50970 0.90600 2.39900
P 	P 	0.64070 0.50930 0.57729 0.72800
P 	P 	0.85420 0.68360 0.83007 0.73000
P 	P 	0.61590 0.44270 0.81452 0.67500
F 	F 	0.82130 0.42100 0.69280 -0.88900
F 	F 	0.89950 0.50390 0.80470 -0.94300
O 	O 	0.49540 0.54190 0.57260 -0.66500
O 	O 	0.70930 0.51910 0.50250 -0.59500
O 	O 	0.63630 0.41600 0.60020 -0.73700
O 	O 	0.71760 0.56360 0.63300 -0.56300
O 	O 	0.77080 0.76290 0.84510 -0.63000
O 	O 	0.81600 0.64850 0.75390 -0.60300
O 	O 	0.81690 0.62000 0.89220 -0.66700
O 	O 	0.00230 0.70740 0.83500 -0.59100
O 	O 	0.70220 0.44330 0.88480 -0.61400
O 	O 	0.64120 0.35720 0.77460 -0.63400
O 	O 	0.65340 0.51620 0.76490 -0.65300
O 	O 	0.46890 0.44820 0.83650 -0.55300
Al	Al	0.31530 0.96250 0.71770 2.40300
Al	Al	0.16900 0.14990 0.67660 2.39900
Al	Al	0.34230 0.99030 0.90600 2.39900
P 	P 	0.14070 0.99070 0.57729 0.71600
P 	P 	0.35420 0.81640 0.83007 0.72600
P 	P 	0.11590 0.05730 0.81452 0.69000
F 	F 	0.32130 0.07900 0.69280 -0.88500
F 	F 	0.39950 0.99610 0.80470 -0.94600
O 	O 	0.99540 0.95810 0.57260 -0.65600
O 	O 	0.20930 0.98090 0.50250 -0.59600
O 	O 	0.13630 0.08400 0.60020 -0.73000
O 	O 	0.21760 0.93640 0.63300 -0.56300
O 	O 	0.27080 0.73710 0.84510 -0.63200
O 	O 	0.31600 0.85150 0.75390 -0.60400
O 	O 	0.31690 0.88000 0.89220 -0.67000
O 	O 	0.50230 0.79260 0.83500 -0.58600
O 	O 	0.20220 0.05670 0.88480 -0.61100
O 	O 	0.14120 0.14280 0.77460 -0.63300
O 	O 	0.15340 0.98380 0.76490 -0.66200
O 	O 	0.96890 0.05180 0.83650 -0.56000
Al	Al	0.68470 0.53750 0.21770 2.40400
Al	Al	0.83100 0.35010 0.17660 2.39900
Al	Al	0.65770 0.50970 0.40600 2.39900
P 	P 	0.85930 0.50930 0.07729 0.72800
P 	P 	0.64580 0.68360 0.33007 0.72600
P 	P 	0.88410 0.44270 0.31452 0.67400
F 	F 	0.67870 0.42100 0.19280 -0.88900
F 	F 	0.60050 0.50390 0.30470 -0.94300
O 	O 	0.00460 0.54190 0.07260 -0.66600
O 	O 	0.79070 0.51910 0.00250 -0.59600
O 	O 	0.86370 0.41600 0.10020 -0.73900
O 	O 	0.78240 0.56360 0.13300 -0.56200
O 	O 	0.72920 0.76290 0.34510 -0.63000
O 	O 	0.68400 0.64850 0.25390 -0.60300
O 	O 	0.68310 0.62000 0.39220 -0.66600
O 	O 	0.49770 0.70740 0.33500 -0.58600
O 	O 	0.79780 0.44330 0.38480 -0.61500
O 	O 	0.85880 0.35720 0.27460 -0.63500
O 	O 	0.84660 0.51620 0.26490 -0.65300
O 	O 	0.03110 0.44820 0.33650 -0.55200
Al	Al	0.81530 0.03750 0.78230 2.40400
Al	Al	0.66900 0.85010 0.82340 2.39900
Al	Al	0.84230 0.00970 0.59400 2.39900
P 	P 	0.64070 0.00930 0.92271 0.73100
P 	P 	0.85420 0.18360 0.66993 0.72200
P 	P 	0.61590 0.94270 0.68548 0.67600
F 	F 	0.82130 0.92100 0.80720 -0.88600
F 	F 	0.89950 0.00390 0.69530 -0.94500
O 	O 	0.49540 0.04190 0.92740 -0.66200
O 	O 	0.70930 0.01910 0.99750 -0.59400
O 	O 	0.63630 0.91600 0.89980 -0.74000
O 	O 	0.71760 0.06360 0.86700 -0.56300
O 	O 	0.77080 0.26290 0.65490 -0.63100
O 	O 	0.81600 0.14850 0.74610 -0.60400
O 	O 	0.81690 0.12000 0.60780 -0.66800
O 	O 	0.00230 0.20740 0.66500 -0.58200
O 	O 	0.70220 0.94330 0.61520 -0.61200
O 	O 	0.64120 0.85720 0.72540 -0.63300
O 	O 	0.65340 0.01620 0.73510 -0.65100
O 	O 	0.46890 0.94820 0.66350 -0.55300
Al	Al	0.18470 0.46250 0.28230 2.40400
Al	Al	0.33100 0.64990 0.32340 2.39900
Al	Al	0.15770 0.49030 0.09400 2.39900
P 	P 	0.35930 0.49070 0.42271 0.72800
P 	P 	0.14580 0.31640 0.16993 0.73000
P 	P 	0.38410 0.55730 0.18548 0.67500
F 	F 	0.17870 0.57900 0.30720 -0.88900
F 	F 	0.10050 0.49610 0.19530 -0.94300
O 	O 	0.50460 0.45810 0.42740 -0.66500
O 	O 	0.29070 0.48090 0.49750 -0.59500
O 	O 	0.36370 0.58400 0.39980 -0.73700
O 	O 	0.28240 0.43640 0.36700 -0.56300
O 	O 	0.22920 0.23710 0.15490 -0.63000
O 	O 	0.18400 0.35150 0.24610 -0.60300
O 	O 	0.18310 0.38000 0.10780 -0.66700
O 	O 	0.99770 0.29260 0.16500 -0.59100
O 	O 	0.29780 0.55670 0.11520 -0.61400
O 	O 	0.35880 0.64280 0.22540 -0.63400
O 	O 	0.34660 0.48380 0.23510 -0.65300
O 	O 	0.53110 0.55180 0.16350 -0.55300
