data_crystal

_cell_length_a 9.80900
_cell_length_b 11.59500
_cell_length_c 12.06500
_cell_angle_alpha 90.00000
_cell_angle_beta  90.00000
_cell_angle_gamma 90.00000

_symmetry_space_group_name_	'P 1'
_symmetry_space_group_name_H-M	'P 1'

loop_
_symmetry_equiv_pos_as_xyz
  x,y,z

loop_
_atom_site_label
_atom_site_type_symbol
_atom_site_fract_x
_atom_site_fract_y
_atom_site_fract_z
_atom_site_charge
Cu	Cu	0.18999 0.25687 0.92741 0.89400
O 	O 	0.00450 0.26070 0.98400 -0.41400
O 	O 	0.87300 0.22330 0.13000 -0.40300
O 	O 	0.22630 0.19450 0.07860 -0.49000
H 	H 	0.31290 0.18320 0.06690 0.23900
O 	O 	0.32260 0.98550 0.12390 -0.45400
H 	H 	0.38970 0.97460 0.08720 0.25100
O 	O 	0.32140 0.92700 0.34970 -0.39500
H 	H 	0.39170 0.92360 0.30830 0.19800
O 	O 	0.23140 0.14720 0.43170 -0.40900
H 	H 	0.21080 0.08870 0.46770 0.24500
C 	C 	0.98570 0.22030 0.08020 0.23800
C 	C 	0.10200 0.15820 0.13700 0.22500
C 	C 	0.08050 0.02720 0.12330 -0.37800
H 	H 	0.99450 0.00530 0.15710 0.13000
H 	H 	0.07570 0.00840 0.04510 0.15500
C 	C 	0.19570 0.95900 0.17680 0.27700
H 	H 	0.17710 0.87630 0.16980 -0.04700
C 	C 	0.21120 0.99050 0.29990 -0.05900
H 	H 	0.12680 0.96860 0.33790 0.04600
C 	C 	0.23140 0.12000 0.31560 0.23200
H 	H 	0.31930 0.14250 0.28360 -0.01400
C 	C 	0.11780 0.18950 0.25970 -0.35400
H 	H 	0.03240 0.17500 0.29770 0.14200
H 	H 	0.13800 0.27110 0.26610 0.14400
Cu	Cu	0.68999 0.24313 0.07259 0.89500
O 	O 	0.50450 0.23930 0.01600 -0.41400
O 	O 	0.37300 0.27670 0.87000 -0.40300
O 	O 	0.72630 0.30550 0.92140 -0.49000
H 	H 	0.81290 0.31680 0.93310 0.23900
O 	O 	0.82260 0.51450 0.87610 -0.45400
H 	H 	0.88970 0.52540 0.91280 0.25100
O 	O 	0.82140 0.57300 0.65030 -0.39500
H 	H 	0.89170 0.57640 0.69170 0.19800
O 	O 	0.73140 0.35280 0.56830 -0.40900
H 	H 	0.71080 0.41130 0.53230 0.24500
C 	C 	0.48570 0.27970 0.91980 0.23800
C 	C 	0.60200 0.34180 0.86300 0.22500
C 	C 	0.58050 0.47280 0.87670 -0.38200
H 	H 	0.49450 0.49470 0.84290 0.13300
H 	H 	0.57570 0.49160 0.95490 0.15600
C 	C 	0.69570 0.54100 0.82320 0.27900
H 	H 	0.67710 0.62370 0.83020 -0.04800
C 	C 	0.71120 0.50950 0.70010 -0.05900
H 	H 	0.62680 0.53140 0.66210 0.04600
C 	C 	0.73140 0.38000 0.68440 0.23200
H 	H 	0.81930 0.35750 0.71640 -0.01400
C 	C 	0.61780 0.31050 0.74030 -0.35400
H 	H 	0.53240 0.32500 0.70230 0.14200
H 	H 	0.63800 0.22890 0.73390 0.14400
Cu	Cu	0.31001 0.74313 0.42741 0.89500
O 	O 	0.49550 0.73930 0.48400 -0.41400
O 	O 	0.62700 0.77670 0.63000 -0.40300
O 	O 	0.27370 0.80550 0.57860 -0.49000
H 	H 	0.18710 0.81680 0.56690 0.23800
O 	O 	0.17740 0.01450 0.62390 -0.45400
H 	H 	0.11030 0.02540 0.58720 0.25100
O 	O 	0.17860 0.07300 0.84970 -0.39500
H 	H 	0.10830 0.07640 0.80830 0.19800
O 	O 	0.26860 0.85280 0.93170 -0.41000
H 	H 	0.28920 0.91130 0.96770 0.24500
C 	C 	0.51430 0.77970 0.58020 0.23800
C 	C 	0.39800 0.84180 0.63700 0.22500
C 	C 	0.41950 0.97280 0.62330 -0.38300
H 	H 	0.50550 0.99470 0.65710 0.13300
H 	H 	0.42430 0.99160 0.54510 0.15600
C 	C 	0.30430 0.04100 0.67680 0.27900
H 	H 	0.32290 0.12370 0.66980 -0.04800
C 	C 	0.28880 0.00950 0.79990 -0.05800
H 	H 	0.37320 0.03140 0.83790 0.04600
C 	C 	0.26860 0.88000 0.81560 0.23100
H 	H 	0.18070 0.85750 0.78360 -0.01500
C 	C 	0.38220 0.81050 0.75970 -0.35400
H 	H 	0.46760 0.82500 0.79770 0.14200
H 	H 	0.36200 0.72890 0.76610 0.14400
Cu	Cu	0.81001 0.75687 0.57259 0.89500
O 	O 	0.99550 0.76070 0.51600 -0.41100
O 	O 	0.12700 0.72330 0.37000 -0.40200
O 	O 	0.77370 0.69450 0.42140 -0.49100
H 	H 	0.68710 0.68320 0.43310 0.23900
O 	O 	0.67740 0.48550 0.37610 -0.45400
H 	H 	0.61030 0.47460 0.41280 0.25100
O 	O 	0.67860 0.42700 0.15030 -0.39500
H 	H 	0.60830 0.42360 0.19170 0.19800
O 	O 	0.76860 0.64720 0.06830 -0.40900
H 	H 	0.78920 0.58870 0.03230 0.24500
C 	C 	0.01430 0.72030 0.41980 0.23500
C 	C 	0.89800 0.65820 0.36300 0.22700
C 	C 	0.91950 0.52720 0.37670 -0.38200
H 	H 	0.00550 0.50530 0.34290 0.13200
H 	H 	0.92430 0.50840 0.45490 0.15600
C 	C 	0.80430 0.45900 0.32320 0.27900
H 	H 	0.82290 0.37630 0.33020 -0.04800
C 	C 	0.78880 0.49050 0.20010 -0.05900
H 	H 	0.87320 0.46860 0.16210 0.04600
C 	C 	0.76860 0.62000 0.18440 0.23300
H 	H 	0.68070 0.64250 0.21640 -0.01400
C 	C 	0.88220 0.68950 0.24030 -0.35600
H 	H 	0.96760 0.67500 0.20230 0.14300
H 	H 	0.86200 0.77110 0.23390 0.14500
