data_crystal

_cell_length_a 10.19660
_cell_length_b 16.95040
_cell_length_c 26.46070
_cell_angle_alpha 90.00000
_cell_angle_beta  90.39200
_cell_angle_gamma 90.00000

_symmetry_space_group_name_	'P 1'
_symmetry_space_group_name_H-M	'P 1'

loop_
_symmetry_equiv_pos_as_xyz
  x,y,z

loop_
_atom_site_label
_atom_site_type_symbol
_atom_site_fract_x
_atom_site_fract_y
_atom_site_fract_z
_atom_site_charge
Ag	Ag	0.66263 0.73580 0.43926 0.46400
Ag	Ag	0.16150 0.74646 0.62903 0.49000
C 	C 	0.36050 0.80600 0.54920 0.01600
H 	H 	0.32150 0.85510 0.55780 -0.00700
C 	C 	0.97810 0.80230 0.33300 -0.01000
H 	H 	0.00830 0.85110 0.31970 0.02900
C 	C 	0.87880 0.80100 0.36730 0.01600
H 	H 	0.84240 0.84970 0.37790 -0.00700
C 	C 	0.98580 0.66730 0.33550 -0.05800
H 	H 	0.02210 0.61880 0.32430 0.04000
C 	C 	0.45970 0.80650 0.51540 -0.02800
H 	H 	0.48750 0.85470 0.50060 -0.00600
C 	C 	0.36750 0.67220 0.55740 0.13500
C 	C 	0.88200 0.66560 0.37070 0.13700
C 	C 	0.13160 0.74000 0.74920 0.13600
C 	C 	0.06080 0.74010 0.79430 -0.05400
C 	C 	0.47250 0.67230 0.52213 -0.06900
H 	H 	0.51000 0.62350 0.51220 0.00900
N 	N 	0.83650 0.59710 0.38800 -0.28900
H 	H 	0.77220 0.59650 0.41000 0.08300
H 	H 	0.87080 0.55240 0.37740 0.11000
N 	N 	0.31340 0.73980 0.57144 -0.20100
N 	N 	0.03370 0.73310 0.31780 -0.09900
N 	N 	0.06960 0.73970 0.70522 -0.19300
N 	N 	0.82910 0.73280 0.38701 -0.20400
N 	N 	0.24890 0.73430 0.74940 -0.14900
N 	N 	0.51900 0.73820 0.50302 -0.18200
N 	N 	0.32350 0.60430 0.57614 -0.29000
H 	H 	0.25860 0.60430 0.59780 0.09100
H 	H 	0.35950 0.55950 0.56680 0.10700
Ag	Ag	0.33737 0.73580 0.06074 0.46300
Ag	Ag	0.83850 0.74646 0.87097 0.48900
C 	C 	0.63950 0.80600 0.95080 0.01500
H 	H 	0.67850 0.85510 0.94220 -0.00800
C 	C 	0.02190 0.80230 0.16700 -0.01000
H 	H 	0.99170 0.85110 0.18030 0.02700
C 	C 	0.12120 0.80100 0.13270 0.01500
H 	H 	0.15760 0.84970 0.12210 -0.00800
C 	C 	0.01420 0.66730 0.16450 -0.05900
H 	H 	0.97790 0.61880 0.17570 0.03900
C 	C 	0.54030 0.80650 0.98460 -0.02900
H 	H 	0.51250 0.85470 0.99940 -0.00700
C 	C 	0.63250 0.67220 0.94260 0.13400
C 	C 	0.11800 0.66560 0.12930 0.13500
C 	C 	0.86840 0.74000 0.75080 0.13500
C 	C 	0.93920 0.74010 0.70570 -0.05500
C 	C 	0.52750 0.67230 0.97787 -0.07000
H 	H 	0.49000 0.62350 0.98780 0.00800
N 	N 	0.16350 0.59710 0.11200 -0.28900
H 	H 	0.22780 0.59650 0.09000 0.08300
H 	H 	0.12920 0.55240 0.12260 0.11000
N 	N 	0.68660 0.73980 0.92856 -0.20100
N 	N 	0.96630 0.73310 0.18220 -0.09900
N 	N 	0.93040 0.73970 0.79478 -0.19300
N 	N 	0.17090 0.73280 0.11299 -0.20400
N 	N 	0.75110 0.73430 0.75060 -0.14900
N 	N 	0.48100 0.73820 0.99698 -0.18200
N 	N 	0.67650 0.60430 0.92386 -0.29000
H 	H 	0.74140 0.60430 0.90220 0.09100
H 	H 	0.64050 0.55950 0.93320 0.10700
Ag	Ag	0.16263 0.23580 0.43926 0.46300
Ag	Ag	0.66150 0.24646 0.62903 0.48900
C 	C 	0.86050 0.30600 0.54920 0.01500
H 	H 	0.82150 0.35510 0.55780 -0.00800
C 	C 	0.47810 0.30230 0.33300 -0.01100
H 	H 	0.50830 0.35110 0.31970 0.02700
C 	C 	0.37880 0.30100 0.36730 0.01500
H 	H 	0.34240 0.34970 0.37790 -0.00800
C 	C 	0.48580 0.16730 0.33550 -0.05900
H 	H 	0.52210 0.11880 0.32430 0.03900
C 	C 	0.95970 0.30650 0.51540 -0.02900
H 	H 	0.98750 0.35470 0.50060 -0.00700
C 	C 	0.86750 0.17220 0.55740 0.13400
C 	C 	0.38200 0.16560 0.37070 0.13500
C 	C 	0.63160 0.24000 0.74920 0.13500
C 	C 	0.56080 0.24010 0.79430 -0.05500
C 	C 	0.97250 0.17230 0.52213 -0.07000
H 	H 	0.01000 0.12350 0.51220 0.00800
N 	N 	0.33650 0.09710 0.38800 -0.28900
H 	H 	0.27220 0.09650 0.41000 0.08300
H 	H 	0.37080 0.05240 0.37740 0.11000
N 	N 	0.81340 0.23980 0.57144 -0.20100
N 	N 	0.53370 0.23310 0.31780 -0.09900
N 	N 	0.56960 0.23970 0.70522 -0.19300
N 	N 	0.32910 0.23280 0.38701 -0.20400
N 	N 	0.74890 0.23430 0.74940 -0.14900
N 	N 	0.01900 0.23820 0.50302 -0.18200
N 	N 	0.82350 0.10430 0.57614 -0.29000
H 	H 	0.75860 0.10430 0.59780 0.09100
H 	H 	0.85950 0.05950 0.56680 0.10700
Ag	Ag	0.83737 0.23580 0.06074 0.46300
Ag	Ag	0.33850 0.24646 0.87097 0.48900
C 	C 	0.13950 0.30600 0.95080 0.01500
H 	H 	0.17850 0.35510 0.94220 -0.00800
C 	C 	0.52190 0.30230 0.16700 -0.01100
H 	H 	0.49170 0.35110 0.18030 0.02700
C 	C 	0.62120 0.30100 0.13270 0.01500
H 	H 	0.65760 0.34970 0.12210 -0.00800
C 	C 	0.51420 0.16730 0.16450 -0.05900
H 	H 	0.47790 0.11880 0.17570 0.03900
C 	C 	0.04030 0.30650 0.98460 -0.02900
H 	H 	0.01250 0.35470 0.99940 -0.00700
C 	C 	0.13250 0.17220 0.94260 0.13400
C 	C 	0.61800 0.16560 0.12930 0.13500
C 	C 	0.36840 0.24000 0.75080 0.13500
C 	C 	0.43920 0.24010 0.70570 -0.05500
C 	C 	0.02750 0.17230 0.97787 -0.07100
H 	H 	0.99000 0.12350 0.98780 0.00800
N 	N 	0.66350 0.09710 0.11200 -0.28900
H 	H 	0.72780 0.09650 0.09000 0.08300
H 	H 	0.62920 0.05240 0.12260 0.11000
N 	N 	0.18660 0.23980 0.92856 -0.20100
N 	N 	0.46630 0.23310 0.18220 -0.09900
N 	N 	0.43040 0.23970 0.79478 -0.19300
N 	N 	0.67090 0.23280 0.11299 -0.20400
N 	N 	0.25110 0.23430 0.75060 -0.14900
N 	N 	0.98100 0.23820 0.99698 -0.18100
N 	N 	0.17650 0.10430 0.92386 -0.29000
H 	H 	0.24140 0.10430 0.90220 0.09100
H 	H 	0.14050 0.05950 0.93320 0.10700
Ag	Ag	0.33737 0.26420 0.56074 0.46300
Ag	Ag	0.83850 0.25354 0.37097 0.48900
C 	C 	0.63950 0.19400 0.45080 0.01500
H 	H 	0.67850 0.14490 0.44220 -0.00800
C 	C 	0.02190 0.19770 0.66700 -0.01100
H 	H 	0.99170 0.14890 0.68030 0.02800
C 	C 	0.12120 0.19900 0.63270 0.01500
H 	H 	0.15760 0.15030 0.62210 -0.00800
C 	C 	0.01420 0.33270 0.66450 -0.05900
H 	H 	0.97790 0.38120 0.67570 0.03900
C 	C 	0.54030 0.19350 0.48460 -0.02900
H 	H 	0.51250 0.14530 0.49940 -0.00700
C 	C 	0.63250 0.32780 0.44260 0.13400
C 	C 	0.11800 0.33440 0.62930 0.13600
C 	C 	0.86840 0.26000 0.25080 0.13500
C 	C 	0.93920 0.25990 0.20570 -0.05500
C 	C 	0.52750 0.32770 0.47787 -0.07000
H 	H 	0.49000 0.37650 0.48780 0.00800
N 	N 	0.16350 0.40290 0.61200 -0.28900
H 	H 	0.22780 0.40350 0.59000 0.08300
H 	H 	0.12920 0.44760 0.62260 0.11000
N 	N 	0.68660 0.26020 0.42856 -0.20100
N 	N 	0.96630 0.26690 0.68220 -0.09900
N 	N 	0.93040 0.26030 0.29478 -0.19300
N 	N 	0.17090 0.26720 0.61299 -0.20400
N 	N 	0.75110 0.26570 0.25060 -0.14900
N 	N 	0.48100 0.26180 0.49698 -0.18200
N 	N 	0.67650 0.39570 0.42386 -0.29000
H 	H 	0.74140 0.39570 0.40220 0.09100
H 	H 	0.64050 0.44050 0.43320 0.10700
Ag	Ag	0.66263 0.26420 0.93926 0.46300
Ag	Ag	0.16150 0.25354 0.12903 0.48900
C 	C 	0.36050 0.19400 0.04920 0.01500
H 	H 	0.32150 0.14490 0.05780 -0.00800
C 	C 	0.97810 0.19770 0.83300 -0.01000
H 	H 	0.00830 0.14890 0.81970 0.02700
C 	C 	0.87880 0.19900 0.86730 0.01500
H 	H 	0.84240 0.15030 0.87790 -0.00800
C 	C 	0.98580 0.33270 0.83550 -0.05900
H 	H 	0.02210 0.38120 0.82430 0.03900
C 	C 	0.45970 0.19350 0.01540 -0.02900
H 	H 	0.48750 0.14530 0.00060 -0.00700
C 	C 	0.36750 0.32780 0.05740 0.13400
C 	C 	0.88200 0.33440 0.87070 0.13500
C 	C 	0.13160 0.26000 0.24920 0.13500
C 	C 	0.06080 0.25990 0.29430 -0.05500
C 	C 	0.47250 0.32770 0.02213 -0.07000
H 	H 	0.51000 0.37650 0.01220 0.00800
N 	N 	0.83650 0.40290 0.88800 -0.28900
H 	H 	0.77220 0.40350 0.91000 0.08300
H 	H 	0.87080 0.44760 0.87740 0.11000
N 	N 	0.31340 0.26020 0.07144 -0.20100
N 	N 	0.03370 0.26690 0.81780 -0.09900
N 	N 	0.06960 0.26030 0.20522 -0.19300
N 	N 	0.82910 0.26720 0.88701 -0.20400
N 	N 	0.24890 0.26570 0.24940 -0.14900
N 	N 	0.51900 0.26180 0.00302 -0.18200
N 	N 	0.32350 0.39570 0.07614 -0.29000
H 	H 	0.25860 0.39570 0.09780 0.09100
H 	H 	0.35950 0.44050 0.06680 0.10700
Ag	Ag	0.83737 0.76420 0.56074 0.46300
Ag	Ag	0.33850 0.75354 0.37097 0.48900
C 	C 	0.13950 0.69400 0.45080 0.01500
H 	H 	0.17850 0.64490 0.44220 -0.00800
C 	C 	0.52190 0.69770 0.66700 -0.01100
H 	H 	0.49170 0.64890 0.68030 0.02700
C 	C 	0.62120 0.69900 0.63270 0.01500
H 	H 	0.65760 0.65030 0.62210 -0.00800
C 	C 	0.51420 0.83270 0.66450 -0.05900
H 	H 	0.47790 0.88120 0.67570 0.03900
C 	C 	0.04030 0.69350 0.48460 -0.02900
H 	H 	0.01250 0.64530 0.49940 -0.00700
C 	C 	0.13250 0.82780 0.44260 0.13400
C 	C 	0.61800 0.83440 0.62930 0.13500
C 	C 	0.36840 0.76000 0.25080 0.13500
C 	C 	0.43920 0.75990 0.20570 -0.05500
C 	C 	0.02750 0.82770 0.47787 -0.07000
H 	H 	0.99000 0.87650 0.48780 0.00800
N 	N 	0.66350 0.90290 0.61200 -0.28900
H 	H 	0.72780 0.90350 0.59000 0.08300
H 	H 	0.62920 0.94760 0.62260 0.11000
N 	N 	0.18660 0.76020 0.42856 -0.20100
N 	N 	0.46630 0.76690 0.68220 -0.09900
N 	N 	0.43040 0.76030 0.29478 -0.19300
N 	N 	0.67090 0.76720 0.61299 -0.20400
N 	N 	0.25110 0.76570 0.25060 -0.14900
N 	N 	0.98100 0.76180 0.49698 -0.18200
N 	N 	0.17650 0.89570 0.42386 -0.29000
H 	H 	0.24140 0.89570 0.40220 0.09100
H 	H 	0.14050 0.94050 0.43320 0.10700
Ag	Ag	0.16263 0.76420 0.93926 0.46300
Ag	Ag	0.66150 0.75354 0.12903 0.48900
C 	C 	0.86050 0.69400 0.04920 0.01500
H 	H 	0.82150 0.64490 0.05780 -0.00800
C 	C 	0.47810 0.69770 0.83300 -0.01100
H 	H 	0.50830 0.64890 0.81970 0.02700
C 	C 	0.37880 0.69900 0.86730 0.01500
H 	H 	0.34240 0.65030 0.87790 -0.00800
C 	C 	0.48580 0.83270 0.83550 -0.05900
H 	H 	0.52210 0.88120 0.82430 0.03900
C 	C 	0.95970 0.69350 0.01540 -0.02900
H 	H 	0.98750 0.64530 0.00060 -0.00700
C 	C 	0.86750 0.82780 0.05740 0.13400
C 	C 	0.38200 0.83440 0.87070 0.13500
C 	C 	0.63160 0.76000 0.24920 0.13500
C 	C 	0.56080 0.75990 0.29430 -0.05500
C 	C 	0.97250 0.82770 0.02213 -0.07100
H 	H 	0.01000 0.87650 0.01220 0.00800
N 	N 	0.33650 0.90290 0.88800 -0.28900
H 	H 	0.27220 0.90350 0.91000 0.08300
H 	H 	0.37080 0.94760 0.87740 0.11000
N 	N 	0.81340 0.76020 0.07144 -0.20100
N 	N 	0.53370 0.76690 0.81780 -0.09900
N 	N 	0.56960 0.76030 0.20522 -0.19300
N 	N 	0.32910 0.76720 0.88701 -0.20400
N 	N 	0.74890 0.76570 0.24940 -0.14900
N 	N 	0.01900 0.76180 0.00302 -0.18100
N 	N 	0.82350 0.89570 0.07614 -0.29000
H 	H 	0.75860 0.89570 0.09780 0.09100
H 	H 	0.85950 0.94050 0.06680 0.10700
