data_crystal

_cell_length_a 9.11600
_cell_length_b 15.12800
_cell_length_c 18.51700
_cell_angle_alpha 102.48000
_cell_angle_beta  99.37100
_cell_angle_gamma 106.81900

_symmetry_space_group_name_	'P 1'
_symmetry_space_group_name_H-M	'P 1'

loop_
_symmetry_equiv_pos_as_xyz
  x,y,z

loop_
_atom_site_label
_atom_site_type_symbol
_atom_site_fract_x
_atom_site_fract_y
_atom_site_fract_z
_atom_site_charge
C 	C 	0.16240 0.65260 0.62850 0.43400
C 	C 	0.23700 0.72660 0.70480 -0.16700
C 	C 	0.39550 0.74750 0.74290 0.06500
H 	H 	0.45930 0.71640 0.71920 0.01700
C 	C 	0.45920 0.81310 0.81460 -0.14100
H 	H 	0.56710 0.82880 0.83920 0.07900
C 	C 	0.36370 0.85550 0.85000 0.07400
C 	C 	0.20600 0.83670 0.81290 -0.14300
H 	H 	0.14120 0.86670 0.83680 0.07400
C 	C 	0.14800 0.77320 0.74050 0.07300
H 	H 	0.04240 0.76130 0.71440 0.01500
C 	C 	0.57490 0.00100 0.94070 -0.09700
H 	H 	0.62830 0.00170 0.90080 0.05600
C 	C 	0.42930 0.92700 0.92780 -0.02200
C 	C 	0.35560 0.92670 0.99020 0.00500
C 	C 	0.21880 0.81030 0.07660 -0.34500
H 	H 	0.32720 0.80980 0.08900 0.12800
H 	H 	0.14490 0.74820 0.07570 0.12400
H 	H 	0.20680 0.86170 0.11510 0.11600
C 	C 	0.56250 0.54810 0.62130 0.48400
C 	C 	0.60440 0.56600 0.70660 -0.18300
C 	C 	0.51340 0.50440 0.73980 0.08400
H 	H 	0.42160 0.45370 0.70840 -0.00300
C 	C 	0.55170 0.51390 0.81920 -0.15200
H 	H 	0.48980 0.46980 0.84110 0.07800
C 	C 	0.68550 0.59150 0.86370 0.08000
C 	C 	0.77520 0.65350 0.83000 -0.13800
H 	H 	0.86510 0.70560 0.86120 0.05700
C 	C 	0.73820 0.64200 0.75160 0.07700
H 	H 	0.80230 0.68470 0.72950 0.01100
C 	C 	0.73770 0.59820 0.94790 -0.03500
C 	C 	0.75470 0.51870 0.96870 -0.05100
H 	H 	0.72250 0.45950 0.93010 0.04300
C 	C 	0.81710 0.52060 0.04410 -0.01000
C 	C 	0.86070 0.60890 0.10300 -0.01200
C 	C 	0.83140 0.68730 0.08360 -0.09200
H 	H 	0.85190 0.74440 0.12290 0.05200
C 	C 	0.77190 0.68470 0.00710 0.02300
C 	C 	0.73740 0.38550 0.12880 -0.41900
H 	H 	0.77460 0.44160 0.17360 0.15600
H 	H 	0.75620 0.33060 0.14360 0.15900
H 	H 	0.62410 0.36990 0.10800 0.15800
C 	C 	0.66520 0.83470 0.06660 -0.34000
H 	H 	0.57220 0.78500 0.07030 0.12700
H 	H 	0.63670 0.89070 0.06010 0.12000
H 	H 	0.74870 0.85390 0.11330 0.11700
C 	C 	0.93840 0.61540 0.18210 0.06900
C 	C 	0.07440 0.59270 0.19730 -0.13400
H 	H 	0.12530 0.57930 0.15740 0.07300
C 	C 	0.13900 0.58910 0.27010 0.06200
H 	H 	0.23470 0.57570 0.28010 0.02000
C 	C 	0.06040 0.60530 0.32780 -0.16800
C 	C 	0.92900 0.63390 0.31410 0.08000
H 	H 	0.87990 0.64920 0.35430 -0.02600
C 	C 	0.86860 0.64050 0.24190 -0.14900
H 	H 	0.78060 0.66180 0.23340 0.07300
C 	C 	0.11340 0.58320 0.40070 0.39600
O 	O 	0.25090 0.61310 0.59370 -0.47700
O 	O 	0.01660 0.63490 0.60170 -0.51300
O 	O 	0.43080 0.48880 0.58400 -0.54600
O 	O 	0.66510 0.59490 0.59160 -0.49200
O 	O 	0.24990 0.57440 0.41840 -0.44400
O 	O 	0.01730 0.56560 0.44340 -0.57100
S 	S 	0.17700 0.83120 0.98355 -0.15300
S 	S 	0.84450 0.41270 0.05616 0.04300
S 	S 	0.73600 0.78700 0.98473 -0.16400
Cu	Cu	0.97885 0.90229 0.99124 0.78900
I 	I 	0.93109 0.97145 0.87279 -0.48800
Eu	Eu	0.19898 0.46633 0.49847 1.98100
C 	C 	0.83760 0.34740 0.37150 0.43500
C 	C 	0.76300 0.27340 0.29520 -0.16600
C 	C 	0.60450 0.25250 0.25710 0.06600
H 	H 	0.54070 0.28360 0.28080 0.01800
C 	C 	0.54080 0.18690 0.18540 -0.14000
H 	H 	0.43290 0.17120 0.16080 0.08000
C 	C 	0.63630 0.14450 0.15000 0.07400
C 	C 	0.79400 0.16330 0.18710 -0.14300
H 	H 	0.85880 0.13330 0.16320 0.07400
C 	C 	0.85200 0.22680 0.25950 0.07300
H 	H 	0.95760 0.23870 0.28560 0.01500
C 	C 	0.42510 0.99900 0.05930 -0.09700
H 	H 	0.37170 0.99830 0.09920 0.05600
C 	C 	0.57070 0.07300 0.07220 -0.02200
C 	C 	0.64440 0.07330 0.00980 0.00500
C 	C 	0.78120 0.18970 0.92340 -0.34500
H 	H 	0.67280 0.19020 0.91100 0.12800
H 	H 	0.85510 0.25180 0.92430 0.12400
H 	H 	0.79320 0.13830 0.88490 0.11600
C 	C 	0.43750 0.45190 0.37870 0.48400
C 	C 	0.39560 0.43400 0.29340 -0.18300
C 	C 	0.48660 0.49560 0.26020 0.08400
H 	H 	0.57840 0.54630 0.29160 -0.00300
C 	C 	0.44830 0.48610 0.18080 -0.15200
H 	H 	0.51020 0.53020 0.15890 0.07800
C 	C 	0.31450 0.40850 0.13630 0.08000
C 	C 	0.22480 0.34650 0.17000 -0.13800
H 	H 	0.13490 0.29440 0.13880 0.05700
C 	C 	0.26180 0.35800 0.24840 0.07700
H 	H 	0.19770 0.31530 0.27050 0.01100
C 	C 	0.26230 0.40180 0.05210 -0.03500
C 	C 	0.24530 0.48130 0.03130 -0.05100
H 	H 	0.27750 0.54050 0.06990 0.04300
C 	C 	0.18290 0.47940 0.95590 -0.01000
C 	C 	0.13930 0.39110 0.89700 -0.01200
C 	C 	0.16860 0.31270 0.91640 -0.09200
H 	H 	0.14810 0.25560 0.87710 0.05200
C 	C 	0.22810 0.31530 0.99290 0.02300
C 	C 	0.26260 0.61450 0.87120 -0.41900
H 	H 	0.22540 0.55840 0.82640 0.15600
H 	H 	0.24380 0.66940 0.85640 0.15900
H 	H 	0.37590 0.63010 0.89200 0.15800
C 	C 	0.33480 0.16530 0.93340 -0.34000
H 	H 	0.42780 0.21500 0.92970 0.12700
H 	H 	0.36330 0.10930 0.93990 0.12000
H 	H 	0.25130 0.14610 0.88670 0.11700
C 	C 	0.06160 0.38460 0.81790 0.06900
C 	C 	0.92560 0.40730 0.80270 -0.13400
H 	H 	0.87470 0.42070 0.84260 0.07300
C 	C 	0.86100 0.41090 0.72990 0.06200
H 	H 	0.76530 0.42430 0.71990 0.02000
C 	C 	0.93960 0.39470 0.67220 -0.16800
C 	C 	0.07100 0.36610 0.68590 0.08000
H 	H 	0.12010 0.35080 0.64570 -0.02600
C 	C 	0.13140 0.35950 0.75810 -0.14900
H 	H 	0.21940 0.33820 0.76660 0.07300
C 	C 	0.88660 0.41680 0.59930 0.39600
O 	O 	0.74910 0.38690 0.40630 -0.47700
O 	O 	0.98340 0.36510 0.39830 -0.51300
O 	O 	0.56920 0.51120 0.41600 -0.54600
O 	O 	0.33490 0.40510 0.40840 -0.49200
O 	O 	0.75010 0.42560 0.58160 -0.44400
O 	O 	0.98270 0.43440 0.55660 -0.57100
S 	S 	0.82300 0.16880 0.01645 -0.15300
S 	S 	0.15550 0.58730 0.94384 0.04300
S 	S 	0.26400 0.21300 0.01527 -0.16400
Cu	Cu	0.02115 0.09771 0.00876 0.78900
I 	I 	0.06891 0.02855 0.12721 -0.48800
Eu	Eu	0.80102 0.53367 0.50153 1.98100
