data_crystal

_cell_length_a 7.73890
_cell_length_b 7.73890
_cell_length_c 27.15450
_cell_angle_alpha 90.00000
_cell_angle_beta  90.00000
_cell_angle_gamma 120.00000

_symmetry_space_group_name_	'P 1'
_symmetry_space_group_name_H-M	'P 1'

loop_
_symmetry_equiv_pos_as_xyz
  x,y,z

loop_
_atom_site_label
_atom_site_type_symbol
_atom_site_fract_x
_atom_site_fract_y
_atom_site_fract_z
_atom_site_charge
O 	O 	0.57310 0.37500 0.36702 -0.21400
O 	O 	0.68000 0.18630 0.33289 -0.23100
H 	H 	0.88600 0.31400 0.40900 0.29100
C 	C 	0.65840 0.27400 0.36937 0.48200
O 	O 	0.62500 0.19810 0.70035 -0.21300
O 	O 	0.81370 0.49370 0.66622 -0.23100
H 	H 	0.68600 0.57200 0.74233 0.29100
C 	C 	0.72600 0.38440 0.70270 0.48200
O 	O 	0.80190 0.42690 0.03369 -0.21300
O 	O 	0.50630 0.32000 0.99956 -0.23000
H 	H 	0.42800 0.11400 0.07567 0.29100
C 	C 	0.61560 0.34160 0.03604 0.48200
O 	O 	0.42690 0.62500 0.86702 -0.21400
O 	O 	0.32000 0.81370 0.83289 -0.23100
H 	H 	0.11400 0.68600 0.90900 0.29100
C 	C 	0.34160 0.72600 0.86937 0.48200
O 	O 	0.37500 0.80190 0.20035 -0.21300
O 	O 	0.18630 0.50630 0.16622 -0.23100
H 	H 	0.31400 0.42800 0.24233 0.29100
C 	C 	0.27400 0.61560 0.20270 0.48200
O 	O 	0.19810 0.57310 0.53369 -0.21300
O 	O 	0.49370 0.68000 0.49956 -0.23100
H 	H 	0.57200 0.88600 0.57567 0.29100
C 	C 	0.38440 0.65840 0.53604 0.48200
O 	O 	0.37500 0.57310 0.96631 -0.21400
O 	O 	0.18630 0.68000 0.00044 -0.23100
H 	H 	0.31400 0.88600 0.92433 0.29100
C 	C 	0.27400 0.65840 0.96396 0.48200
O 	O 	0.19810 0.62500 0.63298 -0.21300
O 	O 	0.49370 0.81370 0.66711 -0.23100
H 	H 	0.57200 0.68600 0.59100 0.29200
C 	C 	0.38440 0.72600 0.63063 0.48200
O 	O 	0.42690 0.80190 0.29965 -0.21300
O 	O 	0.32000 0.50630 0.33378 -0.23100
H 	H 	0.11400 0.42800 0.25767 0.29100
C 	C 	0.34160 0.61560 0.29730 0.48200
O 	O 	0.62500 0.42690 0.46631 -0.21400
O 	O 	0.81370 0.32000 0.50044 -0.23100
H 	H 	0.68600 0.11400 0.42433 0.29200
C 	C 	0.72600 0.34160 0.46396 0.48200
O 	O 	0.80190 0.37500 0.13298 -0.21300
O 	O 	0.50630 0.18630 0.16711 -0.23100
H 	H 	0.42800 0.31400 0.09100 0.29100
C 	C 	0.61560 0.27400 0.13063 0.48200
O 	O 	0.57310 0.19810 0.79965 -0.21300
O 	O 	0.68000 0.49370 0.83378 -0.23100
H 	H 	0.88600 0.57200 0.75767 0.29100
C 	C 	0.65840 0.38440 0.79730 0.48200
U 	U 	0.45237 0.54762 0.41667 0.02300
C 	C 	0.74760 0.25240 0.41667 -0.68000
U 	U 	0.45237 0.90475 0.75000 0.02100
C 	C 	0.74760 0.49520 0.75000 -0.67900
U 	U 	0.09525 0.54762 0.08333 0.02200
C 	C 	0.50480 0.25240 0.08333 -0.68000
U 	U 	0.54762 0.45237 0.91667 0.02300
C 	C 	0.25240 0.74760 0.91667 -0.68000
U 	U 	0.54762 0.09525 0.25000 0.02100
C 	C 	0.25240 0.50480 0.25000 -0.67900
U 	U 	0.90475 0.45237 0.58333 0.02100
C 	C 	0.49520 0.74760 0.58333 -0.68000
