data_crystal

_cell_length_a 23.06870
_cell_length_b 23.06870
_cell_length_c 20.75870
_cell_angle_alpha 90.00000
_cell_angle_beta  90.00000
_cell_angle_gamma 120.00000

_symmetry_space_group_name_	'P 1'
_symmetry_space_group_name_H-M	'P 1'

loop_
_symmetry_equiv_pos_as_xyz
  x,y,z

loop_
_atom_site_label
_atom_site_type_symbol
_atom_site_fract_x
_atom_site_fract_y
_atom_site_fract_z
_atom_site_charge
Zn	Zn	0.18444 0.40745 0.18072 1.19300
Zn	Zn	0.11137 0.25928 0.15279 1.19600
Zn	Zn	0.07413 0.53033 0.48560 1.19600
C 	C 	0.00140 0.30360 0.29690 -0.06200
C 	C 	0.01280 0.35510 0.33240 0.02200
H 	H 	0.05470 0.39550 0.33140 0.04200
C 	C 	0.96180 0.35070 0.37580 -0.09100
C 	C 	0.89920 0.28770 0.37640 -0.05500
H 	H 	0.86480 0.28190 0.40530 0.06500
C 	C 	0.88920 0.23900 0.33800 0.07500
C 	C 	0.93830 0.24000 0.29270 -0.05500
H 	H 	0.93040 0.20440 0.26440 0.06600
C 	C 	0.05620 0.30880 0.24460 0.38700
C 	C 	0.67570 0.95350 0.29190 -0.11100
C 	C 	0.73840 0.01750 0.28780 -0.03100
H 	H 	0.77330 0.02360 0.25940 0.05700
C 	C 	0.74470 0.06940 0.32790 0.06200
C 	C 	0.70000 0.06480 0.36470 -0.04700
H 	H 	0.70900 0.10180 0.39140 0.06300
C 	C 	0.63410 0.00430 0.36850 -0.09100
C 	C 	0.62330 0.95140 0.32810 0.04400
H 	H 	0.57970 0.91340 0.32510 0.03600
C 	C 	0.67170 0.89990 0.25140 0.42000
C 	C 	0.57960 0.00150 0.40490 0.33300
C 	C 	0.30140 0.36670 0.04490 -0.03400
C 	C 	0.36060 0.42380 0.04860 -0.07400
H 	H 	0.36570 0.45750 0.07800 0.07200
C 	C 	0.41580 0.43480 0.00950 0.09600
C 	C 	0.41150 0.38180 0.97230 -0.07600
H 	H 	0.45000 0.38540 0.95180 0.07800
C 	C 	0.35070 0.32500 0.96650 -0.02700
C 	C 	0.29400 0.31480 0.00530 -0.02900
H 	H 	0.25280 0.27370 0.00360 0.06100
C 	C 	0.33220 0.26230 0.91790 0.35800
C 	C 	0.23820 0.34940 0.08980 0.37300
C 	C 	0.96730 0.40320 0.41670 0.37300
O 	O 	0.10620 0.37130 0.24260 -0.47200
O 	O 	0.05260 0.25980 0.22480 -0.50300
O 	O 	0.02870 0.45090 0.42450 -0.46000
O 	O 	0.91940 0.39970 0.45010 -0.46000
O 	O 	0.58550 0.04780 0.44450 -0.46900
O 	O 	0.52520 0.94000 0.41570 -0.41900
O 	O 	0.61070 0.84800 0.24650 -0.46400
O 	O 	0.71900 0.90610 0.22340 -0.49100
O 	O 	0.19190 0.29410 0.09160 -0.48600
O 	O 	0.24710 0.40520 0.11600 -0.46800
O 	O 	0.39270 0.27700 0.89300 -0.44300
O 	O 	0.27920 0.21580 0.91310 -0.51100
N 	N 	0.81980 0.17640 0.34710 -0.08100
N 	N 	0.82020 0.13560 0.31740 -0.07600
N 	N 	0.47610 0.49460 0.02110 -0.09300
Zn	Zn	0.59255 0.77699 0.18072 1.19400
Zn	Zn	0.74072 0.85209 0.15279 1.19700
Zn	Zn	0.46967 0.54380 0.48560 1.19700
C 	C 	0.69640 0.69780 0.29690 -0.06100
C 	C 	0.64490 0.65770 0.33240 0.02300
H 	H 	0.60450 0.65920 0.33140 0.04300
C 	C 	0.64930 0.61110 0.37580 -0.09000
C 	C 	0.71230 0.61150 0.37640 -0.05400
H 	H 	0.71810 0.58290 0.40530 0.06600
C 	C 	0.76100 0.65020 0.33800 0.07600
C 	C 	0.76000 0.69830 0.29270 -0.05400
H 	H 	0.79560 0.72600 0.26440 0.06700
C 	C 	0.69120 0.74740 0.24460 0.38800
C 	C 	0.04650 0.72220 0.29190 -0.11000
C 	C 	0.98250 0.72090 0.28780 -0.03100
H 	H 	0.97640 0.74970 0.25940 0.05700
C 	C 	0.93060 0.67530 0.32790 0.06200
C 	C 	0.93520 0.63520 0.36470 -0.04700
H 	H 	0.89820 0.60720 0.39140 0.06300
C 	C 	0.99570 0.62980 0.36850 -0.09100
C 	C 	0.04860 0.67190 0.32810 0.04300
H 	H 	0.08660 0.66630 0.32510 0.03600
C 	C 	0.10010 0.77180 0.25140 0.42000
C 	C 	0.99850 0.57810 0.40490 0.33300
C 	C 	0.63330 0.93470 0.04490 -0.03400
C 	C 	0.57620 0.93680 0.04860 -0.07400
H 	H 	0.54250 0.90820 0.07800 0.07200
C 	C 	0.56520 0.98100 0.00950 0.09600
C 	C 	0.61820 0.02970 0.97230 -0.07600
H 	H 	0.61460 0.06460 0.95180 0.07800
C 	C 	0.67500 0.02570 0.96650 -0.02700
C 	C 	0.68520 0.97920 0.00530 -0.02900
H 	H 	0.72630 0.97910 0.00360 0.06100
C 	C 	0.73770 0.06990 0.91790 0.35800
C 	C 	0.65060 0.88880 0.08980 0.37300
C 	C 	0.59680 0.56410 0.41670 0.37300
O 	O 	0.62870 0.73490 0.24260 -0.47200
O 	O 	0.74020 0.79280 0.22480 -0.50300
O 	O 	0.54910 0.57780 0.42450 -0.46000
O 	O 	0.60030 0.51970 0.45010 -0.46000
O 	O 	0.95220 0.53770 0.44450 -0.46900
O 	O 	0.06000 0.58520 0.41570 -0.41900
O 	O 	0.15200 0.76270 0.24650 -0.46400
O 	O 	0.09390 0.81290 0.22340 -0.49100
O 	O 	0.70590 0.89780 0.09160 -0.48600
O 	O 	0.59480 0.84190 0.11600 -0.46800
O 	O 	0.72300 0.11570 0.89300 -0.44300
O 	O 	0.78420 0.06340 0.91310 -0.51100
N 	N 	0.82360 0.64340 0.34710 -0.08100
N 	N 	0.86440 0.68460 0.31740 -0.07600
N 	N 	0.50540 0.98150 0.02110 -0.09300
Zn	Zn	0.22301 0.81556 0.18072 1.19400
Zn	Zn	0.14791 0.88863 0.15279 1.19700
Zn	Zn	0.45620 0.92587 0.48560 1.19700
C 	C 	0.30220 0.99860 0.29690 -0.06100
C 	C 	0.34230 0.98720 0.33240 0.02300
H 	H 	0.34080 0.94530 0.33140 0.04300
C 	C 	0.38890 0.03820 0.37580 -0.09000
C 	C 	0.38850 0.10080 0.37640 -0.05400
H 	H 	0.41710 0.13520 0.40530 0.06600
C 	C 	0.34980 0.11080 0.33800 0.07600
C 	C 	0.30170 0.06170 0.29270 -0.05400
H 	H 	0.27400 0.06960 0.26440 0.06700
C 	C 	0.25260 0.94380 0.24460 0.38800
C 	C 	0.27780 0.32430 0.29190 -0.11000
C 	C 	0.27910 0.26160 0.28780 -0.03100
H 	H 	0.25030 0.22670 0.25940 0.05700
C 	C 	0.32470 0.25530 0.32790 0.06200
C 	C 	0.36480 0.30000 0.36470 -0.04700
H 	H 	0.39280 0.29100 0.39140 0.06300
C 	C 	0.37020 0.36590 0.36850 -0.09100
C 	C 	0.32810 0.37670 0.32810 0.04300
H 	H 	0.33370 0.42030 0.32510 0.03600
C 	C 	0.22820 0.32830 0.25140 0.42000
C 	C 	0.42190 0.42040 0.40490 0.33300
C 	C 	0.06530 0.69860 0.04490 -0.03400
C 	C 	0.06320 0.63940 0.04860 -0.07400
H 	H 	0.09180 0.63430 0.07800 0.07200
C 	C 	0.01900 0.58420 0.00950 0.09600
C 	C 	0.97030 0.58850 0.97230 -0.07600
H 	H 	0.93540 0.55000 0.95180 0.07800
C 	C 	0.97430 0.64930 0.96650 -0.02700
C 	C 	0.02080 0.70600 0.00530 -0.02900
H 	H 	0.02090 0.74720 0.00360 0.06100
C 	C 	0.93010 0.66780 0.91790 0.35800
C 	C 	0.11120 0.76180 0.08980 0.37300
C 	C 	0.43590 0.03270 0.41670 0.37300
O 	O 	0.26510 0.89380 0.24260 -0.47200
O 	O 	0.20720 0.94740 0.22480 -0.50300
O 	O 	0.42220 0.97130 0.42450 -0.46000
O 	O 	0.48030 0.08060 0.45010 -0.46000
O 	O 	0.46230 0.41450 0.44450 -0.46900
O 	O 	0.41480 0.47480 0.41570 -0.41900
O 	O 	0.23730 0.38930 0.24650 -0.46400
O 	O 	0.18710 0.28100 0.22340 -0.49100
O 	O 	0.10220 0.80810 0.09160 -0.48600
O 	O 	0.15810 0.75290 0.11600 -0.46800
O 	O 	0.88430 0.60730 0.89300 -0.44300
O 	O 	0.93660 0.72080 0.91310 -0.51100
N 	N 	0.35660 0.18020 0.34710 -0.08100
N 	N 	0.31540 0.17980 0.31740 -0.07600
N 	N 	0.01850 0.52390 0.02110 -0.09300
Zn	Zn	0.81556 0.59255 0.81928 1.19400
Zn	Zn	0.88863 0.74072 0.84721 1.19700
Zn	Zn	0.92587 0.46967 0.51440 1.19700
C 	C 	0.99860 0.69640 0.70310 -0.06100
C 	C 	0.98720 0.64490 0.66760 0.02300
H 	H 	0.94530 0.60450 0.66860 0.04300
C 	C 	0.03820 0.64930 0.62420 -0.09000
C 	C 	0.10080 0.71230 0.62360 -0.05400
H 	H 	0.13520 0.71810 0.59470 0.06600
C 	C 	0.11080 0.76100 0.66200 0.07600
C 	C 	0.06170 0.76000 0.70730 -0.05400
H 	H 	0.06960 0.79560 0.73560 0.06700
C 	C 	0.94380 0.69120 0.75540 0.38800
C 	C 	0.32430 0.04650 0.70810 -0.11000
C 	C 	0.26160 0.98250 0.71220 -0.03100
H 	H 	0.22670 0.97640 0.74060 0.05700
C 	C 	0.25530 0.93060 0.67210 0.06200
C 	C 	0.30000 0.93520 0.63530 -0.04700
H 	H 	0.29100 0.89820 0.60860 0.06300
C 	C 	0.36590 0.99570 0.63150 -0.09100
C 	C 	0.37670 0.04860 0.67190 0.04400
H 	H 	0.42030 0.08660 0.67490 0.03600
C 	C 	0.32830 0.10010 0.74860 0.42000
C 	C 	0.42040 0.99850 0.59510 0.33300
C 	C 	0.69860 0.63330 0.95510 -0.03400
C 	C 	0.63940 0.57620 0.95140 -0.07400
H 	H 	0.63430 0.54250 0.92200 0.07200
C 	C 	0.58420 0.56520 0.99050 0.09600
C 	C 	0.58850 0.61820 0.02770 -0.07600
H 	H 	0.55000 0.61460 0.04820 0.07800
C 	C 	0.64930 0.67500 0.03350 -0.02700
C 	C 	0.70600 0.68520 0.99470 -0.02900
H 	H 	0.74720 0.72630 0.99640 0.06100
C 	C 	0.66780 0.73770 0.08210 0.35800
C 	C 	0.76180 0.65060 0.91020 0.37300
C 	C 	0.03270 0.59680 0.58330 0.37300
O 	O 	0.89380 0.62870 0.75740 -0.47200
O 	O 	0.94740 0.74020 0.77520 -0.50300
O 	O 	0.97130 0.54910 0.57550 -0.46000
O 	O 	0.08060 0.60030 0.54990 -0.46000
O 	O 	0.41450 0.95220 0.55550 -0.46900
O 	O 	0.47480 0.06000 0.58430 -0.41900
O 	O 	0.38930 0.15200 0.75350 -0.46400
O 	O 	0.28100 0.09390 0.77660 -0.49100
O 	O 	0.80810 0.70590 0.90840 -0.48600
O 	O 	0.75290 0.59480 0.88400 -0.46800
O 	O 	0.60730 0.72300 0.10700 -0.44300
O 	O 	0.72080 0.78420 0.08690 -0.51100
N 	N 	0.18020 0.82360 0.65290 -0.08100
N 	N 	0.17980 0.86440 0.68260 -0.07600
N 	N 	0.52390 0.50540 0.97890 -0.09300
Zn	Zn	0.40745 0.22301 0.81928 1.19400
Zn	Zn	0.25928 0.14791 0.84721 1.19700
Zn	Zn	0.53033 0.45620 0.51440 1.19700
C 	C 	0.30360 0.30220 0.70310 -0.06100
C 	C 	0.35510 0.34230 0.66760 0.02300
H 	H 	0.39550 0.34080 0.66860 0.04300
C 	C 	0.35070 0.38890 0.62420 -0.09000
C 	C 	0.28770 0.38850 0.62360 -0.05400
H 	H 	0.28190 0.41710 0.59470 0.06600
C 	C 	0.23900 0.34980 0.66200 0.07600
C 	C 	0.24000 0.30170 0.70730 -0.05400
H 	H 	0.20440 0.27400 0.73560 0.06700
C 	C 	0.30880 0.25260 0.75540 0.38800
C 	C 	0.95350 0.27780 0.70810 -0.11000
C 	C 	0.01750 0.27910 0.71220 -0.03100
H 	H 	0.02360 0.25030 0.74060 0.05700
C 	C 	0.06940 0.32470 0.67210 0.06200
C 	C 	0.06480 0.36480 0.63530 -0.04700
H 	H 	0.10180 0.39280 0.60860 0.06300
C 	C 	0.00430 0.37020 0.63150 -0.09100
C 	C 	0.95140 0.32810 0.67190 0.04300
H 	H 	0.91340 0.33370 0.67490 0.03600
C 	C 	0.89990 0.22820 0.74860 0.42000
C 	C 	0.00150 0.42190 0.59510 0.33300
C 	C 	0.36670 0.06530 0.95510 -0.03400
C 	C 	0.42380 0.06320 0.95140 -0.07400
H 	H 	0.45750 0.09180 0.92200 0.07200
C 	C 	0.43480 0.01900 0.99050 0.09600
C 	C 	0.38180 0.97030 0.02770 -0.07600
H 	H 	0.38540 0.93540 0.04820 0.07800
C 	C 	0.32500 0.97430 0.03350 -0.02700
C 	C 	0.31480 0.02080 0.99470 -0.02900
H 	H 	0.27370 0.02090 0.99640 0.06100
C 	C 	0.26230 0.93010 0.08210 0.35800
C 	C 	0.34940 0.11120 0.91020 0.37300
C 	C 	0.40320 0.43590 0.58330 0.37300
O 	O 	0.37130 0.26510 0.75740 -0.47200
O 	O 	0.25980 0.20720 0.77520 -0.50300
O 	O 	0.45090 0.42220 0.57550 -0.46000
O 	O 	0.39970 0.48030 0.54990 -0.46000
O 	O 	0.04780 0.46230 0.55550 -0.46900
O 	O 	0.94000 0.41480 0.58430 -0.41900
O 	O 	0.84800 0.23730 0.75350 -0.46400
O 	O 	0.90610 0.18710 0.77660 -0.49100
O 	O 	0.29410 0.10220 0.90840 -0.48600
O 	O 	0.40520 0.15810 0.88400 -0.46800
O 	O 	0.27700 0.88430 0.10700 -0.44300
O 	O 	0.21580 0.93660 0.08690 -0.51100
N 	N 	0.17640 0.35660 0.65290 -0.08100
N 	N 	0.13560 0.31540 0.68260 -0.07600
N 	N 	0.49460 0.01850 0.97890 -0.09300
Zn	Zn	0.77699 0.18444 0.81928 1.19400
Zn	Zn	0.85209 0.11137 0.84721 1.19700
Zn	Zn	0.54380 0.07413 0.51440 1.19700
C 	C 	0.69780 0.00140 0.70310 -0.06100
C 	C 	0.65770 0.01280 0.66760 0.02300
H 	H 	0.65920 0.05470 0.66860 0.04300
C 	C 	0.61110 0.96180 0.62420 -0.09000
C 	C 	0.61150 0.89920 0.62360 -0.05400
H 	H 	0.58290 0.86480 0.59470 0.06600
C 	C 	0.65020 0.88920 0.66200 0.07600
C 	C 	0.69830 0.93830 0.70730 -0.05400
H 	H 	0.72600 0.93040 0.73560 0.06700
C 	C 	0.74740 0.05620 0.75540 0.38800
C 	C 	0.72220 0.67570 0.70810 -0.11000
C 	C 	0.72090 0.73840 0.71220 -0.03100
H 	H 	0.74970 0.77330 0.74060 0.05700
C 	C 	0.67530 0.74470 0.67210 0.06200
C 	C 	0.63520 0.70000 0.63530 -0.04700
H 	H 	0.60720 0.70900 0.60860 0.06300
C 	C 	0.62980 0.63410 0.63150 -0.09100
C 	C 	0.67190 0.62330 0.67190 0.04300
H 	H 	0.66630 0.57970 0.67490 0.03600
C 	C 	0.77180 0.67170 0.74860 0.42000
C 	C 	0.57810 0.57960 0.59510 0.33300
C 	C 	0.93470 0.30140 0.95510 -0.03400
C 	C 	0.93680 0.36060 0.95140 -0.07400
H 	H 	0.90820 0.36570 0.92200 0.07200
C 	C 	0.98100 0.41580 0.99050 0.09600
C 	C 	0.02970 0.41150 0.02770 -0.07600
H 	H 	0.06460 0.45000 0.04820 0.07800
C 	C 	0.02570 0.35070 0.03350 -0.02700
C 	C 	0.97920 0.29400 0.99470 -0.02900
H 	H 	0.97910 0.25280 0.99640 0.06100
C 	C 	0.06990 0.33220 0.08210 0.35800
C 	C 	0.88880 0.23820 0.91020 0.37300
C 	C 	0.56410 0.96730 0.58330 0.37300
O 	O 	0.73490 0.10620 0.75740 -0.47200
O 	O 	0.79280 0.05260 0.77520 -0.50300
O 	O 	0.57780 0.02870 0.57550 -0.46000
O 	O 	0.51970 0.91940 0.54990 -0.46000
O 	O 	0.53770 0.58550 0.55550 -0.46900
O 	O 	0.58520 0.52520 0.58430 -0.41900
O 	O 	0.76270 0.61070 0.75350 -0.46400
O 	O 	0.81290 0.71900 0.77660 -0.49100
O 	O 	0.89780 0.19190 0.90840 -0.48600
O 	O 	0.84190 0.24710 0.88400 -0.46800
O 	O 	0.11570 0.39270 0.10700 -0.44300
O 	O 	0.06340 0.27920 0.08690 -0.51100
N 	N 	0.64340 0.81980 0.65290 -0.08100
N 	N 	0.68460 0.82020 0.68260 -0.07600
N 	N 	0.98150 0.47610 0.97890 -0.09300
