data_crystal

_cell_length_a 9.59500
_cell_length_b 10.33000
_cell_length_c 13.67000
_cell_angle_alpha 75.70200
_cell_angle_beta  88.85400
_cell_angle_gamma 65.34500

_symmetry_space_group_name_	'P 1'
_symmetry_space_group_name_H-M	'P 1'

loop_
_symmetry_equiv_pos_as_xyz
  x,y,z

loop_
_atom_site_label
_atom_site_type_symbol
_atom_site_fract_x
_atom_site_fract_y
_atom_site_fract_z
_atom_site_charge
U 	U 	0.76581 0.55021 0.99948 0.01000
U 	U 	0.23419 0.44979 0.00052 0.00900
U 	U 	-0.00000 0.00000 -0.00000 0.01000
Cu	Cu	0.90208 0.03481 0.42043 0.91000
Cu	Cu	0.09792 0.96519 0.57957 0.91100
P 	P 	0.62560 0.31710 0.91340 0.38700
P 	P 	0.91020 0.68860 0.12475 0.37900
P 	P 	0.37440 0.68290 0.08660 0.38700
P 	P 	0.08980 0.31140 0.87525 0.37900
H 	H 	0.76830 0.14830 0.77260 0.07300
H 	H 	0.47980 0.34570 0.51480 0.05000
H 	H 	0.30350 0.51630 0.59660 0.05800
H 	H 	0.36860 0.50620 0.76180 0.06400
H 	H 	0.93940 0.41600 0.25560 0.06500
H 	H 	0.19970 0.35420 0.50560 0.05200
H 	H 	0.20160 0.58380 0.43780 0.05300
H 	H 	0.07450 0.73090 0.28080 0.06200
H 	H 	0.23170 0.85170 0.22740 0.07300
H 	H 	0.52020 0.65430 0.48520 0.05000
H 	H 	0.69650 0.48370 0.40340 0.05800
H 	H 	0.63140 0.49380 0.23820 0.06300
H 	H 	0.06060 0.58400 0.74440 0.06500
H 	H 	0.80030 0.64580 0.49440 0.05200
H 	H 	0.79840 0.41620 0.56220 0.05300
H 	H 	0.92550 0.26910 0.71920 0.06200
C 	C 	0.57260 0.32290 0.78600 -0.02600
C 	C 	0.67470 0.22420 0.73680 -0.00200
C 	C 	0.64110 0.23540 0.63450 -0.07000
C 	C 	0.50420 0.34090 0.58300 0.00000
C 	C 	0.39900 0.44280 0.63170 -0.05200
C 	C 	0.43680 0.43430 0.73050 -0.00700
C 	C 	0.76470 0.14370 0.58180 0.32600
C 	C 	0.99160 0.58710 0.25280 -0.03300
C 	C 	0.99030 0.45170 0.29380 0.00800
C 	C 	0.06110 0.36690 0.38920 -0.07500
C 	C 	0.14450 0.41440 0.44180 0.00400
C 	C 	0.14680 0.55050 0.40060 -0.04800
C 	C 	0.07220 0.63790 0.30780 -0.01200
C 	C 	0.04130 0.22820 0.43470 0.35300
C 	C 	0.42740 0.67710 0.21400 -0.02700
C 	C 	0.32530 0.77580 0.26320 -0.00100
C 	C 	0.35890 0.76460 0.36550 -0.07000
C 	C 	0.49580 0.65910 0.41700 0.00000
C 	C 	0.60100 0.55720 0.36830 -0.05200
C 	C 	0.56320 0.56570 0.26950 -0.00700
C 	C 	0.23530 0.85630 0.41820 0.32600
C 	C 	0.00840 0.41290 0.74720 -0.03400
C 	C 	0.00970 0.54830 0.70620 0.00700
C 	C 	0.93890 0.63310 0.61080 -0.07400
C 	C 	0.85550 0.58560 0.55820 0.00400
C 	C 	0.85320 0.44950 0.59940 -0.04800
C 	C 	0.92780 0.36210 0.69220 -0.01100
C 	C 	0.95870 0.77180 0.56530 0.35400
O 	O 	0.68720 0.43390 0.90340 -0.16700
O 	O 	0.74730 0.16070 0.95860 -0.16300
O 	O 	0.48840 0.34590 0.97490 -0.15700
O 	O 	0.74390 0.71130 0.11100 -0.17000
O 	O 	0.99390 0.58790 0.05420 -0.14300
O 	O 	0.92870 0.83260 0.10270 -0.16600
O 	O 	0.72970 0.13680 0.49380 -0.37400
O 	O 	0.90120 0.07900 0.62650 -0.39500
O 	O 	0.12250 0.14600 0.51730 -0.38700
O 	O 	0.94630 0.20650 0.38830 -0.41200
O 	O 	0.31280 0.56610 0.09660 -0.16800
O 	O 	0.25270 0.83930 0.04140 -0.16300
O 	O 	0.51160 0.65410 0.02510 -0.15700
O 	O 	0.25610 0.28870 0.88900 -0.17000
O 	O 	0.00610 0.41210 0.94580 -0.14300
O 	O 	0.07130 0.16740 0.89730 -0.16700
O 	O 	0.27030 0.86320 0.50620 -0.37300
O 	O 	0.09880 0.92100 0.37350 -0.39400
O 	O 	0.87750 0.85400 0.48270 -0.38600
O 	O 	0.05370 0.79350 0.61170 -0.41300
