data_crystal

_cell_length_a 9.47900
_cell_length_b 9.47900
_cell_length_c 16.38690
_cell_angle_alpha 88.64220
_cell_angle_beta  88.64220
_cell_angle_gamma 83.20920

_symmetry_space_group_name_	'P 1'
_symmetry_space_group_name_H-M	'P 1'

loop_
_symmetry_equiv_pos_as_xyz
  x,y,z

loop_
_atom_site_label
_atom_site_type_symbol
_atom_site_fract_x
_atom_site_fract_y
_atom_site_fract_z
_atom_site_charge
Zn	Zn	0.00000 0.00000 0.50000 0.95900
Zn	Zn	-0.00000 0.00000 -0.00000 0.94800
Cu	Cu	0.13631 0.49227 0.50206 0.72300
Cu	Cu	0.50773 0.86369 0.99794 0.80800
Cu	Cu	0.86369 0.50773 0.49794 0.79200
Cu	Cu	0.49227 0.13631 0.00206 0.70600
Cu	Cu	0.36396 0.63604 0.75000 0.73600
Cu	Cu	0.63604 0.36396 0.25000 0.73200
Cu	Cu	0.39785 0.60215 0.25000 0.73600
Cu	Cu	0.60215 0.39785 0.75000 0.74000
C 	C 	0.28250 0.57050 0.66030 -0.42200
C 	C 	0.04210 0.31730 0.51110 -0.49000
C 	C 	0.30600 0.53660 0.33990 -0.42500
C 	C 	0.42950 0.71750 0.83970 -0.38200
C 	C 	0.68270 0.95790 0.98890 -0.27800
C 	C 	0.46340 0.69400 0.16010 -0.38900
C 	C 	0.71750 0.42950 0.33970 -0.39200
C 	C 	0.95790 0.68270 0.48890 -0.29900
C 	C 	0.69400 0.46340 0.66010 -0.37800
C 	C 	0.57050 0.28250 0.16030 -0.43300
C 	C 	0.31730 0.04210 0.01110 -0.51200
C 	C 	0.53660 0.30600 0.83990 -0.41300
N 	N 	0.22940 0.54240 0.60220 -0.24600
N 	N 	0.02660 0.20220 0.51450 -0.37200
N 	N 	0.24400 0.51560 0.39880 -0.24700
N 	N 	0.45760 0.77060 0.89780 -0.20500
N 	N 	0.79780 0.97340 0.98550 -0.23900
N 	N 	0.48440 0.75600 0.10120 -0.22300
N 	N 	0.77060 0.45760 0.39780 -0.21200
N 	N 	0.97340 0.79780 0.48550 -0.24900
N 	N 	0.75600 0.48440 0.60120 -0.21100
N 	N 	0.54240 0.22940 0.10220 -0.25200
N 	N 	0.20220 0.02660 0.01450 -0.37800
N 	N 	0.51560 0.24400 0.89880 -0.23300
