data_crystal

_cell_length_a 16.74600
_cell_length_b 14.22300
_cell_length_c 12.32100
_cell_angle_alpha 90.00000
_cell_angle_beta  113.65300
_cell_angle_gamma 90.00000

_symmetry_space_group_name_	'P 1'
_symmetry_space_group_name_H-M	'P 1'

loop_
_symmetry_equiv_pos_as_xyz
  x,y,z

loop_
_atom_site_label
_atom_site_type_symbol
_atom_site_fract_x
_atom_site_fract_y
_atom_site_fract_z
_atom_site_charge
N 	N 	0.91880 0.32970 0.78240 -0.25200
C 	C 	0.89190 0.25690 0.70730 0.05700
C 	C 	0.89310 0.32970 0.87360 0.03400
C 	C 	0.84280 0.18480 0.72170 -0.10500
H 	H 	0.90730 0.25520 0.64270 -0.01700
C 	C 	0.84130 0.26240 0.89310 -0.04700
H 	H 	0.91190 0.37910 0.92730 -0.04600
C 	C 	0.81650 0.18660 0.81480 0.00700
H 	H 	0.82720 0.13460 0.66890 0.05000
C 	C 	0.80840 0.27750 0.98870 0.03900
H 	H 	0.78280 0.13810 0.82490 0.01300
C 	C 	0.79200 0.19310 0.05520 -0.17000
H 	H 	0.84500 0.32390 0.04570 0.01000
H 	H 	0.79910 0.13310 0.02110 0.07100
C 	C 	0.84150 0.19510 0.18780 0.24800
N 	N 	0.82550 0.12390 0.24630 -0.19600
O 	O 	0.89010 0.26050 0.23940 -0.26300
C 	C 	0.85260 0.12290 0.37470 -0.18900
H 	H 	0.79770 0.07590 0.20640 0.10100
C 	C 	0.92900 0.05930 0.43910 0.27500
H 	H 	0.80370 0.10310 0.39240 0.06300
H 	H 	0.86790 0.18640 0.40450 0.09700
C 	C 	0.93060 0.00480 0.53240 -0.28600
C 	C 	0.00010 0.05350 0.40770 -0.34700
H 	H 	0.88410 0.00760 0.55530 0.11700
H 	H 	0.00070 0.08960 0.34510 0.13500
N 	N 	0.41880 0.82970 0.78240 -0.26900
C 	C 	0.39190 0.75690 0.70730 0.05500
C 	C 	0.39310 0.82970 0.87360 0.03200
C 	C 	0.34280 0.68480 0.72170 -0.11500
H 	H 	0.40730 0.75520 0.64270 -0.03000
C 	C 	0.34130 0.76240 0.89310 -0.05700
H 	H 	0.41190 0.87910 0.92730 -0.06100
C 	C 	0.31650 0.68660 0.81480 0.00900
H 	H 	0.32720 0.63460 0.66890 0.05100
C 	C 	0.30840 0.77750 0.98870 0.04400
H 	H 	0.28280 0.63810 0.82490 0.01000
C 	C 	0.29200 0.69310 0.05520 -0.18000
H 	H 	0.34500 0.82390 0.04570 0.00300
H 	H 	0.29910 0.63310 0.02110 0.07400
C 	C 	0.34150 0.69510 0.18780 0.25500
N 	N 	0.32550 0.62390 0.24630 -0.22000
O 	O 	0.39010 0.76050 0.23940 -0.28500
C 	C 	0.35260 0.62290 0.37470 -0.06200
H 	H 	0.29770 0.57590 0.20640 0.10500
C 	C 	0.42900 0.55930 0.43910 0.03200
H 	H 	0.30370 0.60310 0.39240 0.02500
H 	H 	0.36790 0.68640 0.40450 0.05100
C 	C 	0.43060 0.50480 0.53240 -0.06100
C 	C 	0.50010 0.55350 0.40770 -0.06100
H 	H 	0.38410 0.50760 0.55530 0.03500
H 	H 	0.50070 0.58960 0.34510 0.05900
N 	N 	0.08120 0.32970 0.71760 -0.28100
C 	C 	0.10810 0.25690 0.79270 0.05100
C 	C 	0.10690 0.32970 0.62640 0.03100
C 	C 	0.15720 0.18480 0.77830 -0.12500
H 	H 	0.09270 0.25520 0.85730 -0.04200
C 	C 	0.15870 0.26240 0.60690 -0.06900
H 	H 	0.08810 0.37910 0.57270 -0.07000
C 	C 	0.18350 0.18660 0.68520 0.01400
H 	H 	0.17280 0.13460 0.83110 0.05200
C 	C 	0.19160 0.27750 0.51130 0.06900
H 	H 	0.21720 0.13810 0.67510 0.01000
C 	C 	0.20800 0.19310 0.44480 -0.19300
H 	H 	0.15500 0.32390 0.45430 -0.01700
H 	H 	0.20090 0.13310 0.47890 0.07600
C 	C 	0.15850 0.19510 0.31220 0.26200
N 	N 	0.17450 0.12390 0.25370 -0.24200
O 	O 	0.10990 0.26050 0.26060 -0.30500
C 	C 	0.14740 0.12290 0.12530 0.04700
H 	H 	0.20230 0.07590 0.29360 0.11200
C 	C 	0.07100 0.05930 0.06090 -0.17900
H 	H 	0.19630 0.10310 0.10760 -0.00300
H 	H 	0.13210 0.18640 0.09550 0.01300
C 	C 	0.06940 0.00480 0.96760 0.13500
C 	C 	0.99990 0.05350 0.09230 0.19600
H 	H 	0.11590 0.00760 0.94470 -0.03700
H 	H 	0.99930 0.08960 0.15490 -0.00500
N 	N 	0.58120 0.82970 0.71760 -0.27000
C 	C 	0.60810 0.75690 0.79270 0.05400
C 	C 	0.60690 0.82970 0.62640 0.03400
C 	C 	0.65720 0.68480 0.77830 -0.11600
H 	H 	0.59270 0.75520 0.85730 -0.03200
C 	C 	0.65870 0.76240 0.60690 -0.05900
H 	H 	0.58810 0.87910 0.57270 -0.05900
C 	C 	0.68350 0.68660 0.68520 0.01100
H 	H 	0.67280 0.63460 0.83110 0.05100
C 	C 	0.69160 0.77750 0.51130 0.06000
H 	H 	0.71720 0.63810 0.67510 0.01400
C 	C 	0.70800 0.69310 0.44480 -0.18300
H 	H 	0.65500 0.82390 0.45430 -0.00900
H 	H 	0.70090 0.63310 0.47890 0.07300
C 	C 	0.65850 0.69510 0.31220 0.25400
N 	N 	0.67450 0.62390 0.25370 -0.21700
O 	O 	0.60990 0.76050 0.26060 -0.28500
C 	C 	0.64740 0.62290 0.12530 -0.08600
H 	H 	0.70230 0.57590 0.29360 0.10700
C 	C 	0.57100 0.55930 0.06090 0.07300
H 	H 	0.69630 0.60310 0.10760 0.03700
H 	H 	0.63210 0.68640 0.09550 0.06000
C 	C 	0.56940 0.50480 0.96760 -0.10900
C 	C 	0.49990 0.55350 0.09230 -0.09800
H 	H 	0.61590 0.50760 0.94470 0.05000
H 	H 	0.49930 0.58960 0.15490 0.07300
N 	N 	0.08120 0.67030 0.21760 -0.28100
C 	C 	0.10810 0.74310 0.29270 0.05300
C 	C 	0.10690 0.67030 0.12640 0.03600
C 	C 	0.15720 0.81520 0.27830 -0.12700
H 	H 	0.09270 0.74480 0.35730 -0.04100
C 	C 	0.15870 0.73760 0.10690 -0.07400
H 	H 	0.08810 0.62090 0.07270 -0.06900
C 	C 	0.18350 0.81340 0.18520 0.01900
H 	H 	0.17280 0.86540 0.33110 0.05400
C 	C 	0.19160 0.72250 0.01130 0.09000
H 	H 	0.21720 0.86190 0.17510 0.00900
C 	C 	0.20800 0.80690 0.94480 -0.20000
H 	H 	0.15500 0.67610 0.95430 -0.03000
H 	H 	0.20090 0.86690 0.97890 0.07300
C 	C 	0.15850 0.80490 0.81220 0.26400
N 	N 	0.17450 0.87610 0.75370 -0.24400
O 	O 	0.10990 0.73950 0.76060 -0.30700
C 	C 	0.14740 0.87710 0.62530 0.06200
H 	H 	0.20230 0.92410 0.79360 0.11100
C 	C 	0.07100 0.94070 0.56090 -0.20700
H 	H 	0.19630 0.89690 0.60760 -0.01000
H 	H 	0.13210 0.81360 0.59550 0.00700
C 	C 	0.06940 0.99520 0.46760 0.15900
C 	C 	0.99990 0.94650 0.59230 0.22300
H 	H 	0.11590 0.99240 0.44470 -0.04500
H 	H 	0.99930 0.91040 0.65490 -0.01500
N 	N 	0.58120 0.17030 0.21760 -0.26900
C 	C 	0.60810 0.24310 0.29270 0.05600
C 	C 	0.60690 0.17030 0.12640 0.03700
C 	C 	0.65720 0.31520 0.27830 -0.11700
H 	H 	0.59270 0.24480 0.35730 -0.03000
C 	C 	0.65870 0.23760 0.10690 -0.06300
H 	H 	0.58810 0.12090 0.07270 -0.05700
C 	C 	0.68350 0.31340 0.18520 0.01500
H 	H 	0.67280 0.36540 0.33110 0.05400
C 	C 	0.69160 0.22250 0.01130 0.07700
H 	H 	0.71720 0.36190 0.17510 0.01400
C 	C 	0.70800 0.30690 0.94480 -0.18800
H 	H 	0.65500 0.17610 0.95430 -0.01900
H 	H 	0.70090 0.36690 0.97890 0.07100
C 	C 	0.65850 0.30490 0.81220 0.25600
N 	N 	0.67450 0.37610 0.75370 -0.22000
O 	O 	0.60990 0.23950 0.76060 -0.28600
C 	C 	0.64740 0.37710 0.62530 -0.06500
H 	H 	0.70230 0.42410 0.79360 0.10700
C 	C 	0.57100 0.44070 0.56090 0.03600
H 	H 	0.69630 0.39690 0.60760 0.02900
H 	H 	0.63210 0.31360 0.59550 0.05200
C 	C 	0.56940 0.49520 0.46760 -0.06500
C 	C 	0.49990 0.44650 0.59230 -0.06500
H 	H 	0.61590 0.49240 0.44470 0.03700
H 	H 	0.49930 0.41040 0.65490 0.06100
N 	N 	0.91880 0.67030 0.28240 -0.25100
C 	C 	0.89190 0.74310 0.20730 0.06100
C 	C 	0.89310 0.67030 0.37360 0.03800
C 	C 	0.84280 0.81520 0.22170 -0.10800
H 	H 	0.90730 0.74480 0.14270 -0.01500
C 	C 	0.84130 0.73760 0.39310 -0.05200
H 	H 	0.91190 0.62090 0.42730 -0.04400
C 	C 	0.81650 0.81340 0.31480 0.01200
H 	H 	0.82720 0.86540 0.16890 0.05300
C 	C 	0.80840 0.72250 0.48870 0.05900
H 	H 	0.78280 0.86190 0.32490 0.01300
C 	C 	0.79200 0.80690 0.55520 -0.17700
H 	H 	0.84500 0.67610 0.54570 -0.00100
H 	H 	0.79910 0.86690 0.52110 0.07000
C 	C 	0.84150 0.80490 0.68780 0.25000
N 	N 	0.82550 0.87610 0.74630 -0.19900
O 	O 	0.89010 0.73950 0.73940 -0.26500
C 	C 	0.85260 0.87710 0.87470 -0.17100
H 	H 	0.79770 0.92410 0.70640 0.10000
C 	C 	0.92900 0.94070 0.93910 0.24200
H 	H 	0.80370 0.89690 0.89240 0.05400
H 	H 	0.86790 0.81360 0.90450 0.08900
C 	C 	0.93060 0.99520 0.03240 -0.24900
C 	C 	0.00010 0.94650 0.90770 -0.32800
H 	H 	0.88410 0.99240 0.05530 0.10600
H 	H 	0.00070 0.91040 0.84510 0.12700
N 	N 	0.41880 0.17030 0.28240 -0.26900
C 	C 	0.39190 0.24310 0.20730 0.05700
C 	C 	0.39310 0.17030 0.37360 0.03600
C 	C 	0.34280 0.31520 0.22170 -0.11800
H 	H 	0.40730 0.24480 0.14270 -0.02800
C 	C 	0.34130 0.23760 0.39310 -0.06300
H 	H 	0.41190 0.12090 0.42730 -0.05900
C 	C 	0.31650 0.31340 0.31480 0.01500
H 	H 	0.32720 0.36540 0.16890 0.05300
C 	C 	0.30840 0.22250 0.48870 0.06800
H 	H 	0.28280 0.36190 0.32490 0.00900
C 	C 	0.29200 0.30690 0.55520 -0.18800
H 	H 	0.34500 0.17610 0.54570 -0.01100
H 	H 	0.29910 0.36690 0.52110 0.07300
C 	C 	0.34150 0.30490 0.68780 0.25800
N 	N 	0.32550 0.37610 0.74630 -0.22400
O 	O 	0.39010 0.23950 0.73940 -0.28600
C 	C 	0.35260 0.37710 0.87470 -0.04200
H 	H 	0.29770 0.42410 0.70640 0.10600
C 	C 	0.42900 0.44070 0.93910 -0.00400
H 	H 	0.30370 0.39690 0.89240 0.01700
H 	H 	0.36790 0.31360 0.90450 0.04300
C 	C 	0.43060 0.49520 0.03240 -0.01900
C 	C 	0.50010 0.44650 0.90770 -0.02800
H 	H 	0.38410 0.49240 0.05530 0.02200
H 	H 	0.50070 0.41040 0.84510 0.04700
Cd	Cd	-0.00000 0.45114 0.75000 1.08600
Cd	Cd	0.50000 0.95114 0.75000 1.10600
Cd	Cd	-0.00000 0.54886 0.25000 1.08700
Cd	Cd	0.50000 0.04886 0.25000 1.10800
