data_crystal

_cell_length_a 9.90900
_cell_length_b 10.33700
_cell_length_c 13.55800
_cell_angle_alpha 81.95000
_cell_angle_beta  86.55000
_cell_angle_gamma 65.69000

_symmetry_space_group_name_	'P 1'
_symmetry_space_group_name_H-M	'P 1'

loop_
_symmetry_equiv_pos_as_xyz
  x,y,z

loop_
_atom_site_label
_atom_site_type_symbol
_atom_site_fract_x
_atom_site_fract_y
_atom_site_fract_z
_atom_site_charge
Eu	Eu	0.33358 0.21705 0.18363 1.11900
Mo	Mo	0.74388 0.62387 0.24067 1.06700
O 	O 	0.35160 0.44760 0.18450 -0.45100
H 	H 	0.45420 0.42590 0.20130 0.13800
N 	N 	0.90490 0.33960 0.40530 -0.15000
N 	N 	0.75010 0.73690 0.45710 -0.15500
N 	N 	0.43350 0.60940 0.33190 -0.13800
N 	N 	0.48480 0.95430 0.20800 -0.22100
N 	N 	0.67820 0.37370 0.14900 -0.11400
N 	N 	0.29320 0.27990 0.00230 -0.20100
N 	N 	0.08030 0.41550 0.17040 -0.19600
N 	N 	0.94560 0.81580 0.20220 -0.11400
C 	C 	0.84320 0.43860 0.35010 -0.20300
C 	C 	0.74590 0.70010 0.38090 -0.20500
C 	C 	0.54290 0.61620 0.30330 -0.15800
C 	C 	0.57260 0.84080 0.21960 -0.12900
C 	C 	0.70380 0.46150 0.17790 -0.14300
C 	C 	0.28170 0.31300 0.91870 -0.11900
C 	C 	0.96220 0.49080 0.18960 -0.15200
C 	C 	0.87230 0.75290 0.21350 -0.18500
C 	C 	0.30710 0.56550 0.10310 0.02200
H 	H 	0.37330 0.53830 0.04770 0.01000
H 	H 	0.31080 0.64830 0.12520 0.00300
H 	H 	0.20800 0.58750 0.08300 0.01100
Cs	Cs	0.14858 0.55056 0.38407 0.66400
Eu	Eu	0.66642 0.78295 0.81637 1.11900
Mo	Mo	0.25612 0.37613 0.75933 1.06700
O 	O 	0.64840 0.55240 0.81550 -0.45100
H 	H 	0.54580 0.57410 0.79870 0.13800
N 	N 	0.09510 0.66040 0.59470 -0.15000
N 	N 	0.24990 0.26310 0.54290 -0.15500
N 	N 	0.56650 0.39060 0.66810 -0.13800
N 	N 	0.51520 0.04570 0.79200 -0.22100
N 	N 	0.32180 0.62630 0.85100 -0.11400
N 	N 	0.70680 0.72010 0.99770 -0.20100
N 	N 	0.91970 0.58450 0.82960 -0.19600
N 	N 	0.05440 0.18420 0.79780 -0.11400
C 	C 	0.15680 0.56140 0.64990 -0.20300
C 	C 	0.25410 0.29990 0.61910 -0.20500
C 	C 	0.45710 0.38380 0.69670 -0.15800
C 	C 	0.42740 0.15920 0.78040 -0.12900
C 	C 	0.29620 0.53850 0.82210 -0.14300
C 	C 	0.71830 0.68700 0.08130 -0.11900
C 	C 	0.03780 0.50920 0.81040 -0.15200
C 	C 	0.12770 0.24710 0.78650 -0.18500
C 	C 	0.69290 0.43450 0.89690 0.02200
H 	H 	0.62670 0.46170 0.95230 0.01000
H 	H 	0.68920 0.35170 0.87480 0.00300
H 	H 	0.79200 0.41250 0.91700 0.01100
Cs	Cs	0.85142 0.44944 0.61593 0.66400
