data_crystal

_cell_length_a 9.88900
_cell_length_b 10.29300
_cell_length_c 13.51800
_cell_angle_alpha 82.04000
_cell_angle_beta  86.67000
_cell_angle_gamma 65.58000

_symmetry_space_group_name_	'P 1'
_symmetry_space_group_name_H-M	'P 1'

loop_
_symmetry_equiv_pos_as_xyz
  x,y,z

loop_
_atom_site_label
_atom_site_type_symbol
_atom_site_fract_x
_atom_site_fract_y
_atom_site_fract_z
_atom_site_charge
Tb	Tb	0.33381 0.21745 0.18326 1.06600
Mo	Mo	0.74454 0.62429 0.24011 1.06600
O 	O 	0.35140 0.44620 0.18560 -0.45000
H 	H 	0.45430 0.42420 0.20260 0.14000
N 	N 	0.90460 0.33960 0.40690 -0.14800
N 	N 	0.74920 0.73660 0.45850 -0.15300
N 	N 	0.43390 0.61130 0.33270 -0.13700
N 	N 	0.48250 0.95600 0.21020 -0.21500
N 	N 	0.67800 0.37280 0.15020 -0.11100
N 	N 	0.29290 0.28100 0.00380 -0.19400
N 	N 	0.08180 0.41290 0.17280 -0.19200
N 	N 	0.94620 0.81640 0.20370 -0.11200
C 	C 	0.84320 0.43710 0.35090 -0.19600
C 	C 	0.74540 0.70120 0.38160 -0.20100
C 	C 	0.54210 0.61500 0.30430 -0.14800
C 	C 	0.57290 0.84150 0.22010 -0.13100
C 	C 	0.70330 0.46030 0.17960 -0.14200
C 	C 	0.28150 0.31240 0.91840 -0.12500
C 	C 	0.96330 0.49020 0.19080 -0.15300
C 	C 	0.87350 0.75300 0.21550 -0.18400
C 	C 	0.30680 0.56480 0.10590 0.03900
H 	H 	0.38620 0.54970 0.05840 0.00700
H 	H 	0.28410 0.65290 0.13310 -0.00200
H 	H 	0.22040 0.57040 0.07340 0.00800
Cs	Cs	0.14923 0.55003 0.38406 0.66700
Tb	Tb	0.66619 0.78255 0.81674 1.06700
Mo	Mo	0.25546 0.37571 0.75989 1.06700
O 	O 	0.64860 0.55380 0.81440 -0.45000
H 	H 	0.54570 0.57580 0.79740 0.14000
N 	N 	0.09540 0.66040 0.59310 -0.14800
N 	N 	0.25080 0.26340 0.54150 -0.15300
N 	N 	0.56610 0.38870 0.66730 -0.13700
N 	N 	0.51750 0.04400 0.78980 -0.21500
N 	N 	0.32200 0.62720 0.84980 -0.11100
N 	N 	0.70710 0.71900 0.99620 -0.19400
N 	N 	0.91820 0.58710 0.82720 -0.19200
N 	N 	0.05380 0.18360 0.79630 -0.11200
C 	C 	0.15680 0.56290 0.64910 -0.19600
C 	C 	0.25460 0.29880 0.61840 -0.20100
C 	C 	0.45790 0.38500 0.69570 -0.14800
C 	C 	0.42710 0.15850 0.77990 -0.13100
C 	C 	0.29670 0.53970 0.82040 -0.14200
C 	C 	0.71850 0.68760 0.08160 -0.12500
C 	C 	0.03670 0.50980 0.80920 -0.15300
C 	C 	0.12650 0.24700 0.78450 -0.18400
C 	C 	0.69320 0.43520 0.89410 0.03900
H 	H 	0.61380 0.45030 0.94160 0.00700
H 	H 	0.71590 0.34710 0.86690 -0.00200
H 	H 	0.77960 0.42960 0.92660 0.00800
Cs	Cs	0.85077 0.44997 0.61594 0.66700
