data_crystal

_cell_length_a 10.76220
_cell_length_b 11.30380
_cell_length_c 26.22400
_cell_angle_alpha 85.08600
_cell_angle_beta  88.09200
_cell_angle_gamma 62.22500

_symmetry_space_group_name_	'P 1'
_symmetry_space_group_name_H-M	'P 1'

loop_
_symmetry_equiv_pos_as_xyz
  x,y,z

loop_
_atom_site_label
_atom_site_type_symbol
_atom_site_fract_x
_atom_site_fract_y
_atom_site_fract_z
_atom_site_charge
Tb	Tb	0.41127 0.61743 0.39962 1.86100
Tb	Tb	0.34386 0.84636 0.24189 1.76400
Tb	Tb	0.37952 0.03628 0.06044 1.93800
Tb	Tb	0.58873 0.38257 0.60038 1.86100
Tb	Tb	0.65614 0.15364 0.75811 1.76300
Tb	Tb	0.62048 0.96372 0.93956 1.93700
H 	H 	0.54520 0.38790 0.92670 0.04600
H 	H 	0.44770 0.41100 0.07570 0.04000
H 	H 	0.43250 0.12130 0.27770 0.01500
H 	H 	0.46110 0.27700 0.31770 0.04200
H 	H 	0.33310 0.35810 0.14750 0.03200
H 	H 	0.36970 0.51520 0.18780 0.04500
H 	H 	0.03860 0.00350 0.04990 -0.00600
H 	H 	0.82870 0.01430 0.02730 0.02900
H 	H 	0.07180 0.75330 0.17130 0.02300
H 	H 	0.85460 0.77220 0.15340 0.05200
H 	H 	0.81610 0.66750 0.40310 0.05000
H 	H 	0.01730 0.69110 0.39490 0.03300
H 	H 	0.70750 0.82810 0.25990 0.03100
H 	H 	0.91440 0.84230 0.25160 0.03200
H 	H 	0.59390 0.77980 0.53410 0.06100
H 	H 	0.36190 0.06520 0.42700 0.04600
H 	H 	0.06050 0.64780 0.53250 0.04700
H 	H 	0.13270 0.37400 0.43640 0.04700
H 	H 	0.45480 0.61210 0.07330 0.04600
H 	H 	0.55230 0.58900 0.92430 0.04000
H 	H 	0.56750 0.87870 0.72230 0.01500
H 	H 	0.53890 0.72300 0.68230 0.04200
H 	H 	0.66690 0.64190 0.85250 0.03200
H 	H 	0.63030 0.48480 0.81220 0.04500
H 	H 	0.96140 0.99650 0.95010 -0.00600
H 	H 	0.17130 0.98570 0.97270 0.02900
H 	H 	0.92820 0.24670 0.82870 0.02300
H 	H 	0.14540 0.22780 0.84660 0.05200
H 	H 	0.18390 0.33250 0.59690 0.05000
H 	H 	0.98270 0.30890 0.60510 0.03300
H 	H 	0.29250 0.17190 0.74010 0.03100
H 	H 	0.08560 0.15770 0.74840 0.03200
H 	H 	0.40610 0.22020 0.46590 0.06100
H 	H 	0.63810 0.93480 0.57300 0.04600
H 	H 	0.93950 0.35220 0.46750 0.04700
H 	H 	0.86730 0.62600 0.56360 0.04700
C 	C 	0.48800 0.24700 0.00130 0.42700
C 	C 	0.49480 0.38050 0.00240 -0.09700
C 	C 	0.52700 0.43380 0.95610 -0.02300
C 	C 	0.46860 0.44660 0.04530 -0.01200
C 	C 	0.37090 0.11790 0.18180 0.48700
C 	C 	0.38800 0.22250 0.20810 -0.14900
C 	C 	0.42130 0.20000 0.25950 0.01000
C 	C 	0.43800 0.29320 0.28310 -0.01600
C 	C 	0.36300 0.34100 0.18150 0.00800
C 	C 	0.38240 0.43610 0.20610 -0.01500
C 	C 	0.42050 0.41420 0.25720 -0.12500
C 	C 	0.44250 0.51790 0.28140 0.49800
C 	C 	0.20980 0.87720 0.12800 0.53700
C 	C 	0.07670 0.87720 0.11250 -0.18500
C 	C 	0.00240 0.95540 0.07010 0.05100
C 	C 	0.87600 0.96400 0.05700 -0.05900
C 	C 	0.02110 0.80770 0.14290 0.03600
C 	C 	0.89150 0.81770 0.13200 -0.05800
C 	C 	0.81690 0.89550 0.08900 -0.07200
C 	C 	0.67000 0.91840 0.07730 0.36600
C 	C 	0.61030 0.72430 0.33640 0.47900
C 	C 	0.74290 0.74160 0.33210 -0.11300
C 	C 	0.83500 0.70200 0.37220 -0.01900
C 	C 	0.95700 0.71500 0.36700 0.01400
C 	C 	0.77150 0.79680 0.28690 -0.01600
C 	C 	0.89600 0.80540 0.28210 0.00600
C 	C 	0.99070 0.76040 0.32150 -0.13900
C 	C 	0.12590 0.76640 0.31660 0.46500
C 	C 	0.43780 0.81070 0.45330 0.30000
C 	C 	0.47130 0.90980 0.47740 -0.05200
C 	C 	0.55600 0.86840 0.52050 -0.03500
C 	C 	0.41700 0.03880 0.45650 -0.02300
C 	C 	0.23100 0.53520 0.45660 0.33600
C 	C 	0.11660 0.51430 0.48020 -0.07800
C 	C 	0.03700 0.58750 0.51870 -0.02000
C 	C 	0.08000 0.42660 0.46220 -0.02100
C 	C 	0.51200 0.75300 0.99870 0.42700
C 	C 	0.50520 0.61950 0.99760 -0.09700
C 	C 	0.47300 0.56620 0.04390 -0.02300
C 	C 	0.53140 0.55340 0.95470 -0.01200
C 	C 	0.62910 0.88210 0.81820 0.48700
C 	C 	0.61200 0.77750 0.79190 -0.14900
C 	C 	0.57870 0.80000 0.74050 0.01000
C 	C 	0.56200 0.70680 0.71690 -0.01600
C 	C 	0.63700 0.65900 0.81850 0.00800
C 	C 	0.61760 0.56390 0.79390 -0.01500
C 	C 	0.57950 0.58580 0.74280 -0.12500
C 	C 	0.55750 0.48210 0.71860 0.49800
C 	C 	0.79020 0.12280 0.87200 0.53700
C 	C 	0.92330 0.12280 0.88750 -0.18500
C 	C 	0.99760 0.04460 0.92990 0.05100
C 	C 	0.12400 0.03600 0.94300 -0.05900
C 	C 	0.97890 0.19230 0.85710 0.03600
C 	C 	0.10850 0.18230 0.86800 -0.05800
C 	C 	0.18310 0.10450 0.91100 -0.07200
C 	C 	0.33000 0.08160 0.92270 0.36600
C 	C 	0.38970 0.27570 0.66360 0.47900
C 	C 	0.25710 0.25840 0.66790 -0.11300
C 	C 	0.16500 0.29800 0.62780 -0.01900
C 	C 	0.04300 0.28500 0.63300 0.01400
C 	C 	0.22850 0.20320 0.71310 -0.01600
C 	C 	0.10400 0.19460 0.71790 0.00600
C 	C 	0.00930 0.23960 0.67850 -0.13900
C 	C 	0.87410 0.23360 0.68340 0.46500
C 	C 	0.56220 0.18930 0.54670 0.30000
C 	C 	0.52870 0.09020 0.52260 -0.05200
C 	C 	0.44400 0.13160 0.47950 -0.03500
C 	C 	0.58300 0.96120 0.54350 -0.02300
C 	C 	0.76900 0.46480 0.54340 0.33600
C 	C 	0.88340 0.48570 0.51980 -0.07800
C 	C 	0.96300 0.41250 0.48130 -0.02000
C 	C 	0.92000 0.57340 0.53780 -0.02100
O 	O 	0.42500 0.22010 0.03840 -0.49100
O 	O 	0.54780 0.17670 0.96430 -0.49200
O 	O 	0.33510 0.14370 0.13490 -0.52300
O 	O 	0.39610 0.00940 0.20580 -0.55500
O 	O 	0.43700 0.61350 0.25500 -0.51800
O 	O 	0.46650 0.49690 0.32920 -0.52400
O 	O 	0.24360 0.95210 0.10080 -0.56800
O 	O 	0.27320 0.80630 0.16570 -0.54000
O 	O 	0.62970 0.95080 0.03000 -0.58100
O 	O 	0.59440 0.90990 0.11210 -0.43300
O 	O 	0.51500 0.79100 0.30540 -0.54000
O 	O 	0.61040 0.64140 0.37080 -0.49700
O 	O 	0.15690 0.80330 0.27430 -0.50000
O 	O 	0.20530 0.73570 0.35560 -0.52500
O 	O 	0.35550 0.84770 0.41490 -0.40600
O 	O 	0.49300 0.69040 0.47290 -0.40200
O 	O 	0.25350 0.62730 0.47120 -0.41400
O 	O 	0.30110 0.46890 0.42170 -0.41100
O 	O 	0.57500 0.77990 0.96160 -0.49100
O 	O 	0.45220 0.82330 0.03570 -0.49200
O 	O 	0.66490 0.85630 0.86510 -0.52300
O 	O 	0.60390 0.99060 0.79420 -0.55500
O 	O 	0.56300 0.38650 0.74500 -0.51800
O 	O 	0.53350 0.50310 0.67080 -0.52400
O 	O 	0.75640 0.04790 0.89920 -0.56800
O 	O 	0.72680 0.19370 0.83430 -0.54000
O 	O 	0.37030 0.04920 0.97000 -0.58100
O 	O 	0.40560 0.09010 0.88790 -0.43300
O 	O 	0.48500 0.20900 0.69460 -0.54000
O 	O 	0.38960 0.35860 0.62920 -0.49700
O 	O 	0.84310 0.19670 0.72570 -0.50000
O 	O 	0.79470 0.26430 0.64440 -0.52500
O 	O 	0.64450 0.15230 0.58510 -0.40600
O 	O 	0.50700 0.30960 0.52710 -0.40200
O 	O 	0.74650 0.37270 0.52880 -0.41400
O 	O 	0.69890 0.53110 0.57830 -0.41100
