data_crystal

_cell_length_a 10.73830
_cell_length_b 11.28080
_cell_length_c 26.13800
_cell_angle_alpha 85.11100
_cell_angle_beta  88.14800
_cell_angle_gamma 62.41500

_symmetry_space_group_name_	'P 1'
_symmetry_space_group_name_H-M	'P 1'

loop_
_symmetry_equiv_pos_as_xyz
  x,y,z

loop_
_atom_site_label
_atom_site_type_symbol
_atom_site_fract_x
_atom_site_fract_y
_atom_site_fract_z
_atom_site_charge
Dy	Dy	0.61982 0.46422 0.93967 1.90100
Dy	Dy	0.58851 0.88282 0.60037 1.82100
Dy	Dy	0.65625 0.65355 0.75815 1.71900
Dy	Dy	0.38018 0.53578 0.06033 1.90000
Dy	Dy	0.41149 0.11718 0.39963 1.82000
Dy	Dy	0.34375 0.34645 0.24185 1.71900
H 	H 	0.54570 0.09260 0.92430 0.03900
H 	H 	0.45530 0.11250 0.07410 0.04500
H 	H 	0.96220 0.49440 0.95000 0.01000
H 	H 	0.17590 0.48470 0.97300 0.02000
H 	H 	0.14520 0.73390 0.84950 0.04000
H 	H 	0.92750 0.75030 0.82960 0.03400
H 	H 	0.66200 0.14160 0.85410 0.03300
H 	H 	0.63320 0.98230 0.81280 0.04400
H 	H 	0.54120 0.21900 0.68170 0.04900
H 	H 	0.56580 0.37770 0.72310 0.01400
H 	H 	0.07900 0.66900 0.75050 0.03900
H 	H 	0.29140 0.67130 0.74080 0.02600
H 	H 	0.18670 0.83260 0.59650 0.04800
H 	H 	0.98010 0.81650 0.60490 0.03500
H 	H 	0.86600 0.13200 0.56370 0.04900
H 	H 	0.94320 0.84740 0.46730 0.05100
H 	H 	0.64320 0.43030 0.57240 0.04600
H 	H 	0.40670 0.71950 0.46550 0.06000
H 	H 	0.45430 0.90740 0.07570 0.03900
H 	H 	0.54470 0.88750 0.92590 0.04500
H 	H 	0.03780 0.50560 0.05000 0.01000
H 	H 	0.82410 0.51530 0.02700 0.02000
H 	H 	0.85480 0.26610 0.15050 0.04000
H 	H 	0.07250 0.24970 0.17040 0.03400
H 	H 	0.33800 0.85840 0.14590 0.03300
H 	H 	0.36680 0.01770 0.18720 0.04400
H 	H 	0.45880 0.78100 0.31830 0.04900
H 	H 	0.43420 0.62230 0.27690 0.01400
H 	H 	0.92100 0.33100 0.24950 0.03900
H 	H 	0.70860 0.32870 0.25920 0.02600
H 	H 	0.81330 0.16740 0.40350 0.04800
H 	H 	0.01990 0.18350 0.39510 0.03500
H 	H 	0.13400 0.86800 0.43630 0.04900
H 	H 	0.05680 0.15260 0.53270 0.05100
H 	H 	0.35680 0.56970 0.42760 0.04600
H 	H 	0.59330 0.28050 0.53450 0.06000
C 	C 	0.51020 0.25370 0.99879 0.45800
C 	C 	0.50490 0.12100 0.99891 -0.10900
C 	C 	0.52820 0.05490 0.95498 -0.00800
C 	C 	0.47420 0.06730 0.04438 -0.01800
C 	C 	0.79180 0.62280 0.87289 0.49200
C 	C 	0.92480 0.62160 0.88845 -0.15500
C 	C 	0.99810 0.54360 0.93001 0.01800
C 	C 	0.12820 0.53540 0.94349 -0.02900
C 	C 	0.18340 0.60390 0.91219 -0.11000
C 	C 	0.10880 0.68570 0.86979 -0.02400
C 	C 	0.97850 0.69520 0.85783 0.00400
C 	C 	0.32340 0.58580 0.92430 0.38800
C 	C 	0.63110 0.38240 0.81945 0.50200
C 	C 	0.61650 0.27720 0.79247 -0.15500
C 	C 	0.63670 0.15750 0.81956 0.01200
C 	C 	0.61890 0.06240 0.79478 -0.01900
C 	C 	0.58010 0.08560 0.74354 -0.10500
C 	C 	0.56340 0.20390 0.71649 -0.03100
C 	C 	0.57980 0.29790 0.74130 0.02300
C 	C 	0.55930 0.98210 0.71745 0.46900
C 	C 	0.87090 0.73490 0.68392 0.47400
C 	C 	0.00710 0.74070 0.67794 -0.12900
C 	C 	0.10120 0.69990 0.71919 -0.01100
C 	C 	0.22680 0.70510 0.71376 0.00200
C 	C 	0.25870 0.75960 0.66897 -0.13200
C 	C 	0.16580 0.79940 0.62756 -0.00900
C 	C 	0.04150 0.78940 0.63278 0.00800
C 	C 	0.38950 0.77490 0.66453 0.48200
C 	C 	0.76790 0.96400 0.54370 0.29600
C 	C 	0.88580 0.98460 0.51936 -0.05800
C 	C 	0.92040 0.07860 0.53823 -0.02500
C 	C 	0.96650 0.90840 0.48066 -0.03000
C 	C 	0.56100 0.69070 0.54605 0.32200
C 	C 	0.52910 0.59200 0.52285 -0.06400
C 	C 	0.58570 0.45840 0.54343 -0.02000
C 	C 	0.44420 0.63110 0.47945 -0.02900
C 	C 	0.48980 0.74630 0.00121 0.45800
C 	C 	0.49510 0.87900 0.00109 -0.10900
C 	C 	0.47180 0.94510 0.04502 -0.00800
C 	C 	0.52580 0.93270 0.95562 -0.01800
C 	C 	0.20820 0.37720 0.12711 0.49200
C 	C 	0.07520 0.37840 0.11155 -0.15500
C 	C 	0.00190 0.45640 0.06999 0.01800
C 	C 	0.87180 0.46460 0.05651 -0.02900
C 	C 	0.81660 0.39610 0.08781 -0.11000
C 	C 	0.89120 0.31430 0.13021 -0.02400
C 	C 	0.02150 0.30480 0.14217 0.00400
C 	C 	0.67660 0.41420 0.07570 0.38800
C 	C 	0.36890 0.61760 0.18055 0.50200
C 	C 	0.38350 0.72280 0.20753 -0.15500
C 	C 	0.36330 0.84250 0.18044 0.01200
C 	C 	0.38110 0.93760 0.20522 -0.01900
C 	C 	0.41990 0.91440 0.25646 -0.10500
C 	C 	0.43660 0.79610 0.28351 -0.03100
C 	C 	0.42020 0.70210 0.25870 0.02300
C 	C 	0.44070 0.01790 0.28255 0.46900
C 	C 	0.12910 0.26510 0.31608 0.47400
C 	C 	0.99290 0.25930 0.32206 -0.12900
C 	C 	0.89880 0.30010 0.28081 -0.01100
C 	C 	0.77320 0.29490 0.28624 0.00200
C 	C 	0.74130 0.24040 0.33103 -0.13200
C 	C 	0.83420 0.20060 0.37244 -0.00900
C 	C 	0.95850 0.21060 0.36722 0.00800
C 	C 	0.61050 0.22510 0.33547 0.48200
C 	C 	0.23210 0.03600 0.45630 0.29600
C 	C 	0.11420 0.01540 0.48064 -0.05800
C 	C 	0.07960 0.92140 0.46177 -0.02500
C 	C 	0.03350 0.09160 0.51934 -0.03000
C 	C 	0.43900 0.30930 0.45395 0.32200
C 	C 	0.47090 0.40800 0.47715 -0.06400
C 	C 	0.41430 0.54160 0.45657 -0.02000
C 	C 	0.55580 0.36890 0.52055 -0.02900
O 	O 	0.57490 0.27870 0.96189 -0.48700
O 	O 	0.45470 0.32180 0.03521 -0.50200
O 	O 	0.75660 0.54460 0.89951 -0.54800
O 	O 	0.72650 0.69390 0.83464 -0.51300
O 	O 	0.36970 0.54980 0.97032 -0.58600
O 	O 	0.40420 0.59100 0.88909 -0.42900
O 	O 	0.66560 0.35560 0.86582 -0.52700
O 	O 	0.60600 0.48980 0.79435 -0.55100
O 	O 	0.56410 0.88410 0.74503 -0.49600
O 	O 	0.53580 0.00220 0.67020 -0.51600
O 	O 	0.84150 0.69720 0.72570 -0.50500
O 	O 	0.79330 0.76460 0.64441 -0.52200
O 	O 	0.48710 0.70710 0.69509 -0.53300
O 	O 	0.39480 0.85580 0.62966 -0.49400
O 	O 	0.64440 0.65250 0.58402 -0.40100
O 	O 	0.50550 0.81050 0.52792 -0.40700
O 	O 	0.69730 0.03190 0.57932 -0.39000
O 	O 	0.74430 0.87200 0.52791 -0.39500
O 	O 	0.42510 0.72130 0.03811 -0.48700
O 	O 	0.54530 0.67820 0.96479 -0.50200
O 	O 	0.24340 0.45540 0.10049 -0.54800
O 	O 	0.27350 0.30610 0.16536 -0.51300
O 	O 	0.63030 0.45020 0.02968 -0.58600
O 	O 	0.59580 0.40900 0.11091 -0.42900
O 	O 	0.33440 0.64440 0.13418 -0.52700
O 	O 	0.39400 0.51020 0.20565 -0.55100
O 	O 	0.43590 0.11590 0.25497 -0.49600
O 	O 	0.46420 0.99780 0.32980 -0.51600
O 	O 	0.15850 0.30280 0.27430 -0.50500
O 	O 	0.20670 0.23540 0.35559 -0.52200
O 	O 	0.51290 0.29290 0.30491 -0.53300
O 	O 	0.60520 0.14420 0.37034 -0.49400
O 	O 	0.35560 0.34750 0.41598 -0.40100
O 	O 	0.49450 0.18950 0.47208 -0.40700
O 	O 	0.30270 0.96810 0.42068 -0.39000
O 	O 	0.25570 0.12800 0.47209 -0.39500
