data_crystal

_cell_length_a 10.70980
_cell_length_b 11.24490
_cell_length_c 26.06600
_cell_angle_alpha 84.99800
_cell_angle_beta  88.13500
_cell_angle_gamma 62.66000

_symmetry_space_group_name_	'P 1'
_symmetry_space_group_name_H-M	'P 1'

loop_
_symmetry_equiv_pos_as_xyz
  x,y,z

loop_
_atom_site_label
_atom_site_type_symbol
_atom_site_fract_x
_atom_site_fract_y
_atom_site_fract_z
_atom_site_charge
Er	Er	0.41153 0.61717 0.89973 1.73800
Er	Er	0.34426 0.84590 0.74171 1.64600
Er	Er	0.38133 0.03485 0.56025 1.81900
Er	Er	0.58847 0.38283 0.10027 1.73800
Er	Er	0.65574 0.15410 0.25829 1.64600
Er	Er	0.61867 0.96515 0.43975 1.81900
H 	H 	0.54150 0.39010 0.42520 0.04400
H 	H 	0.45200 0.40770 0.57560 0.03900
H 	H 	0.43330 0.11970 0.77790 0.02100
H 	H 	0.46110 0.28150 0.81870 0.04700
H 	H 	0.33610 0.35800 0.64610 0.03600
H 	H 	0.36510 0.51920 0.68650 0.04900
H 	H 	0.03760 0.00760 0.54920 0.01000
H 	H 	0.82340 0.02020 0.52710 0.02700
H 	H 	0.07370 0.74680 0.67010 0.03500
H 	H 	0.85520 0.76610 0.65060 0.04300
H 	H 	0.81340 0.66630 0.90360 0.04800
H 	H 	0.01640 0.68930 0.89680 0.04200
H 	H 	0.71180 0.82340 0.75780 0.03000
H 	H 	0.92140 0.83340 0.74960 0.04000
H 	H 	0.59480 0.77900 0.03480 0.06200
H 	H 	0.35940 0.06600 0.92730 0.04700
H 	H 	0.05570 0.65540 0.03090 0.05200
H 	H 	0.13120 0.37240 0.93470 0.05200
H 	H 	0.45850 0.60990 0.57480 0.04500
H 	H 	0.54800 0.59230 0.42440 0.04000
H 	H 	0.56670 0.88030 0.22210 0.02100
H 	H 	0.53890 0.71850 0.18130 0.04700
H 	H 	0.66390 0.64200 0.35390 0.03600
H 	H 	0.63490 0.48080 0.31350 0.04900
H 	H 	0.96240 0.99240 0.45080 0.01000
H 	H 	0.17660 0.97980 0.47290 0.02700
H 	H 	0.92630 0.25320 0.32990 0.03500
H 	H 	0.14480 0.23390 0.34940 0.04300
H 	H 	0.18660 0.33370 0.09640 0.04800
H 	H 	0.98360 0.31070 0.10320 0.04200
H 	H 	0.28820 0.17660 0.24220 0.03000
H 	H 	0.07860 0.16660 0.25040 0.04000
H 	H 	0.40520 0.22100 0.96520 0.06200
H 	H 	0.64060 0.93400 0.07270 0.04700
H 	H 	0.94430 0.34460 0.96910 0.05200
H 	H 	0.86880 0.62760 0.06530 0.05200
C 	C 	0.48760 0.24730 0.50095 0.46400
C 	C 	0.49460 0.37860 0.50104 -0.11400
C 	C 	0.52460 0.43410 0.45522 -0.01300
C 	C 	0.47120 0.44510 0.54503 -0.00700
C 	C 	0.36920 0.11730 0.68027 0.47100
C 	C 	0.38400 0.22220 0.70752 -0.13800
C 	C 	0.42030 0.19940 0.75954 0.00800
C 	C 	0.43700 0.29650 0.78397 -0.02000
C 	C 	0.36240 0.34220 0.68071 0.00600
C 	C 	0.37940 0.43920 0.70485 -0.02000
C 	C 	0.41790 0.41610 0.75667 -0.11000
C 	C 	0.44000 0.51910 0.78278 0.47700
C 	C 	0.21040 0.87680 0.62725 0.49300
C 	C 	0.07710 0.87710 0.61139 -0.15200
C 	C 	0.00160 0.95810 0.56929 0.02200
C 	C 	0.87230 0.96720 0.55619 -0.03700
C 	C 	0.02260 0.80300 0.64194 0.00800
C 	C 	0.89240 0.81380 0.63001 -0.03000
C 	C 	0.81740 0.89580 0.58733 -0.10000
C 	C 	0.67370 0.91760 0.57485 0.39600
C 	C 	0.60900 0.72510 0.83506 0.47300
C 	C 	0.74230 0.74060 0.83142 -0.12000
C 	C 	0.83430 0.70090 0.87267 -0.00800
C 	C 	0.95760 0.71230 0.86822 -0.00100
C 	C 	0.77470 0.79300 0.78541 -0.00400
C 	C 	0.89980 0.80000 0.78067 -0.01100
C 	C 	0.99460 0.75730 0.82201 -0.11800
C 	C 	0.13090 0.76570 0.81717 0.45900
C 	C 	0.43910 0.80840 0.95338 0.31500
C 	C 	0.47060 0.90800 0.97731 -0.05800
C 	C 	0.55630 0.86770 0.02084 -0.03200
C 	C 	0.41580 0.03930 0.95668 -0.02000
C 	C 	0.23400 0.53550 0.95606 0.30400
C 	C 	0.11490 0.51500 0.98058 -0.05600
C 	C 	0.03400 0.59190 0.01858 -0.02600
C 	C 	0.07920 0.42330 0.96115 -0.03000
C 	C 	0.51240 0.75270 0.49905 0.46400
C 	C 	0.50540 0.62140 0.49896 -0.11400
C 	C 	0.47540 0.56590 0.54478 -0.01300
C 	C 	0.52880 0.55490 0.45497 -0.00700
C 	C 	0.63080 0.88270 0.31973 0.47100
C 	C 	0.61600 0.77780 0.29248 -0.13800
C 	C 	0.57970 0.80060 0.24046 0.00800
C 	C 	0.56300 0.70350 0.21603 -0.02000
C 	C 	0.63760 0.65780 0.31929 0.00600
C 	C 	0.62060 0.56080 0.29515 -0.02000
C 	C 	0.58210 0.58390 0.24333 -0.11000
C 	C 	0.56000 0.48090 0.21722 0.47700
C 	C 	0.78960 0.12320 0.37275 0.49300
C 	C 	0.92290 0.12290 0.38861 -0.15200
C 	C 	0.99840 0.04190 0.43071 0.02200
C 	C 	0.12770 0.03280 0.44381 -0.03700
C 	C 	0.97740 0.19700 0.35806 0.00800
C 	C 	0.10760 0.18620 0.36999 -0.03000
C 	C 	0.18260 0.10420 0.41267 -0.10000
C 	C 	0.32630 0.08240 0.42515 0.39600
C 	C 	0.39100 0.27490 0.16494 0.47300
C 	C 	0.25770 0.25940 0.16858 -0.12000
C 	C 	0.16570 0.29910 0.12733 -0.00800
C 	C 	0.04240 0.28770 0.13178 -0.00100
C 	C 	0.22530 0.20700 0.21459 -0.00400
C 	C 	0.10020 0.20000 0.21933 -0.01100
C 	C 	0.00540 0.24270 0.17799 -0.11800
C 	C 	0.86910 0.23430 0.18283 0.45900
C 	C 	0.56090 0.19160 0.04662 0.31500
C 	C 	0.52940 0.09200 0.02269 -0.05800
C 	C 	0.44370 0.13230 0.97916 -0.03200
C 	C 	0.58420 0.96070 0.04332 -0.02000
C 	C 	0.76600 0.46450 0.04394 0.30400
C 	C 	0.88510 0.48500 0.01942 -0.05600
C 	C 	0.96600 0.40810 0.98142 -0.02600
C 	C 	0.92080 0.57670 0.03885 -0.03000
O 	O 	0.42667 0.21794 0.53808 -0.48300
O 	O 	0.54282 0.17962 0.46457 -0.48800
O 	O 	0.33516 0.14382 0.63347 -0.50400
O 	O 	0.39494 0.00748 0.70575 -0.52700
O 	O 	0.43575 0.61675 0.75508 -0.48800
O 	O 	0.46279 0.49842 0.83005 -0.50800
O 	O 	0.24602 0.95356 0.60023 -0.54000
O 	O 	0.27425 0.80515 0.66574 -0.50200
O 	O 	0.62949 0.95225 0.52938 -0.57600
O 	O 	0.59463 0.91110 0.61053 -0.42400
O 	O 	0.51204 0.79485 0.80428 -0.51800
O 	O 	0.60394 0.64481 0.87015 -0.48300
O 	O 	0.16167 0.80152 0.77409 -0.48700
O 	O 	0.20696 0.73388 0.85669 -0.50800
O 	O 	0.35606 0.84485 0.91569 -0.39500
O 	O 	0.49752 0.68691 0.97174 -0.39200
O 	O 	0.25661 0.62912 0.97192 -0.38600
O 	O 	0.30239 0.46881 0.92098 -0.39000
O 	O 	0.57333 0.78206 0.46192 -0.48300
O 	O 	0.45718 0.82038 0.53543 -0.48800
O 	O 	0.66484 0.85618 0.36653 -0.50400
O 	O 	0.60506 0.99252 0.29425 -0.52700
O 	O 	0.56425 0.38325 0.24492 -0.48800
O 	O 	0.53721 0.50158 0.16995 -0.50800
O 	O 	0.75398 0.04644 0.39977 -0.54000
O 	O 	0.72575 0.19485 0.33426 -0.50200
O 	O 	0.37051 0.04775 0.47062 -0.57600
O 	O 	0.40537 0.08890 0.38947 -0.42400
O 	O 	0.48796 0.20515 0.19572 -0.51800
O 	O 	0.39606 0.35519 0.12985 -0.48300
O 	O 	0.83833 0.19848 0.22591 -0.48700
O 	O 	0.79304 0.26612 0.14331 -0.50800
O 	O 	0.64394 0.15515 0.08431 -0.39500
O 	O 	0.50248 0.31309 0.02826 -0.39200
O 	O 	0.74339 0.37088 0.02808 -0.38600
O 	O 	0.69761 0.53119 0.07902 -0.39000
