data_crystal

_cell_length_a 9.65500
_cell_length_b 14.74900
_cell_length_c 6.95770
_cell_angle_alpha 90.00000
_cell_angle_beta  90.00000
_cell_angle_gamma 90.00000

_symmetry_space_group_name_	'P 1'
_symmetry_space_group_name_H-M	'P 1'

loop_
_symmetry_equiv_pos_as_xyz
  x,y,z

loop_
_atom_site_label
_atom_site_type_symbol
_atom_site_fract_x
_atom_site_fract_y
_atom_site_fract_z
_atom_site_charge
Ag	Ag	0.73986 0.62788 0.15897 0.42400
C 	C 	0.53070 0.54030 0.79100 -0.07800
H 	H 	0.56780 0.58550 0.69940 -0.00400
H 	H 	0.49010 0.49010 0.71530 -0.00700
C 	C 	0.41740 0.58430 0.91070 -0.05800
H 	H 	0.45890 0.63230 0.99180 -0.03100
H 	H 	0.34950 0.61330 0.82380 -0.01300
S 	S 	0.67225 0.49626 0.93592 -0.22700
Ag	Ag	0.76014 0.37212 0.65897 0.42400
C 	C 	0.96930 0.45970 0.29100 -0.08000
H 	H 	0.93220 0.41450 0.19940 -0.00500
H 	H 	0.00990 0.50990 0.21530 -0.00700
C 	C 	0.08260 0.41570 0.41070 -0.05800
H 	H 	0.04110 0.36770 0.49180 -0.03300
H 	H 	0.15050 0.38670 0.32380 -0.01300
S 	S 	0.82775 0.50374 0.43592 -0.22800
Ag	Ag	0.26014 0.37212 0.84103 0.42300
C 	C 	0.46930 0.45970 0.20900 -0.07900
H 	H 	0.43220 0.41450 0.30060 -0.00500
H 	H 	0.50990 0.50990 0.28470 -0.00800
C 	C 	0.58260 0.41570 0.08930 -0.05900
H 	H 	0.54110 0.36770 0.00820 -0.03200
H 	H 	0.65050 0.38670 0.17620 -0.01300
S 	S 	0.32775 0.50374 0.06408 -0.22700
Ag	Ag	0.23986 0.62788 0.34103 0.42400
C 	C 	0.03070 0.54030 0.70900 -0.08000
H 	H 	0.06780 0.58550 0.80060 -0.00500
H 	H 	0.99010 0.49010 0.78470 -0.00700
C 	C 	0.91740 0.58430 0.58930 -0.05800
H 	H 	0.95890 0.63230 0.50820 -0.03300
H 	H 	0.84950 0.61330 0.67620 -0.01300
S 	S 	0.17225 0.49626 0.56408 -0.22800
Ag	Ag	0.26014 0.12788 0.84103 0.42300
C 	C 	0.46930 0.04030 0.20900 -0.07600
H 	H 	0.43220 0.08550 0.30060 -0.00600
H 	H 	0.50990 0.99010 0.28470 -0.00900
C 	C 	0.58260 0.08430 0.08930 -0.05800
H 	H 	0.54110 0.13230 0.00820 -0.03200
H 	H 	0.65050 0.11330 0.17620 -0.01300
S 	S 	0.32775 0.99626 0.06408 -0.23100
Ag	Ag	0.23986 0.87212 0.34103 0.42300
C 	C 	0.03070 0.95970 0.70900 -0.07900
H 	H 	0.06780 0.91450 0.80060 -0.00500
H 	H 	0.99010 0.00990 0.78470 -0.00800
C 	C 	0.91740 0.91570 0.58930 -0.05800
H 	H 	0.95890 0.86770 0.50820 -0.03300
H 	H 	0.84950 0.88670 0.67620 -0.01200
S 	S 	0.17225 0.00374 0.56408 -0.22900
Ag	Ag	0.73986 0.87212 0.15897 0.42300
C 	C 	0.53070 0.95970 0.79100 -0.07600
H 	H 	0.56780 0.91450 0.69940 -0.00600
H 	H 	0.49010 0.00990 0.71530 -0.00900
C 	C 	0.41740 0.91570 0.91070 -0.05800
H 	H 	0.45890 0.86770 0.99180 -0.03200
H 	H 	0.34950 0.88670 0.82380 -0.01300
S 	S 	0.67225 0.00374 0.93592 -0.23100
Ag	Ag	0.76014 0.12788 0.65897 0.42300
C 	C 	0.96930 0.04030 0.29100 -0.07900
H 	H 	0.93220 0.08550 0.19940 -0.00500
H 	H 	0.00990 0.99010 0.21530 -0.00800
C 	C 	0.08260 0.08430 0.41070 -0.05800
H 	H 	0.04110 0.13230 0.49180 -0.03300
H 	H 	0.15050 0.11330 0.32380 -0.01200
S 	S 	0.82775 0.99626 0.43592 -0.22900
