data_crystal

_cell_length_a 24.60590
_cell_length_b 24.60590
_cell_length_c 24.60590
_cell_angle_alpha 90.00000
_cell_angle_beta  90.00000
_cell_angle_gamma 90.00000

_symmetry_space_group_name_	'P 1'
_symmetry_space_group_name_H-M	'P 1'

loop_
_symmetry_equiv_pos_as_xyz
  x,y,z

loop_
_atom_site_label
_atom_site_type_symbol
_atom_site_fract_x
_atom_site_fract_y
_atom_site_fract_z
_atom_site_charge
Ag	Ag	0.57277 0.42723 0.57277 0.49000
Ag	Ag	0.70141 0.29859 0.70141 0.48200
C 	C 	0.62468 0.37532 0.62468 -0.10900
C 	C 	0.64974 0.35026 0.64974 -0.10200
Ag	Ag	0.57277 0.92723 0.07277 0.47100
Ag	Ag	0.70141 0.79859 0.20141 0.48200
C 	C 	0.62468 0.87532 0.12468 -0.11800
C 	C 	0.64974 0.85026 0.14974 -0.10100
Ag	Ag	0.07277 0.42723 0.07277 0.49600
Ag	Ag	0.20141 0.29859 0.20141 0.48500
C 	C 	0.12468 0.37532 0.12468 -0.09900
C 	C 	0.14974 0.35026 0.14974 -0.09400
Ag	Ag	0.07277 0.92723 0.57277 0.47200
Ag	Ag	0.20141 0.79859 0.70141 0.48200
C 	C 	0.12468 0.87532 0.62468 -0.11800
C 	C 	0.14974 0.85026 0.64974 -0.10100
Ag	Ag	0.42723 0.57277 0.57277 0.49100
Ag	Ag	0.29859 0.70141 0.70141 0.48300
C 	C 	0.37532 0.62468 0.62468 -0.10800
C 	C 	0.35026 0.64974 0.64974 -0.10100
Ag	Ag	0.42723 0.07277 0.07277 0.49600
Ag	Ag	0.29859 0.20141 0.20141 0.48500
C 	C 	0.37532 0.12468 0.12468 -0.09900
C 	C 	0.35026 0.14974 0.14974 -0.09400
Ag	Ag	0.92723 0.57277 0.07277 0.47200
Ag	Ag	0.79859 0.70141 0.20141 0.48200
C 	C 	0.87532 0.62468 0.12468 -0.11800
C 	C 	0.85026 0.64974 0.14974 -0.10100
Ag	Ag	0.92723 0.07277 0.57277 0.47200
Ag	Ag	0.79859 0.20141 0.70141 0.48200
C 	C 	0.87532 0.12468 0.62468 -0.11800
C 	C 	0.85026 0.14974 0.64974 -0.10100
Ag	Ag	0.42723 0.42723 0.42723 0.49200
Ag	Ag	0.29859 0.29859 0.29859 0.48300
C 	C 	0.37532 0.37532 0.37532 -0.10600
C 	C 	0.35026 0.35026 0.35026 -0.09900
Ag	Ag	0.42723 0.92723 0.92723 0.45000
Ag	Ag	0.29859 0.79859 0.79859 0.47900
C 	C 	0.37532 0.87532 0.87532 -0.13500
C 	C 	0.35026 0.85026 0.85026 -0.10600
Ag	Ag	0.92723 0.42723 0.92723 0.45000
Ag	Ag	0.79859 0.29859 0.79859 0.47900
C 	C 	0.87532 0.37532 0.87532 -0.13500
C 	C 	0.85026 0.35026 0.85026 -0.10600
Ag	Ag	0.92723 0.92723 0.42723 0.45000
Ag	Ag	0.79859 0.79859 0.29859 0.47900
C 	C 	0.87532 0.87532 0.37532 -0.13500
C 	C 	0.85026 0.85026 0.35026 -0.10600
Ag	Ag	0.57277 0.57277 0.42723 0.49100
Ag	Ag	0.70141 0.70141 0.29859 0.48300
C 	C 	0.62468 0.62468 0.37532 -0.10800
C 	C 	0.64974 0.64974 0.35026 -0.10100
Ag	Ag	0.57277 0.07277 0.92723 0.47200
Ag	Ag	0.70141 0.20141 0.79859 0.48200
C 	C 	0.62468 0.12468 0.87532 -0.11800
C 	C 	0.64974 0.14974 0.85026 -0.10100
Ag	Ag	0.07277 0.57277 0.92723 0.47200
Ag	Ag	0.20141 0.70141 0.79859 0.48200
C 	C 	0.12468 0.62468 0.87532 -0.11800
C 	C 	0.14974 0.64974 0.85026 -0.10100
Ag	Ag	0.07277 0.07277 0.42723 0.49600
Ag	Ag	0.20141 0.20141 0.29859 0.48500
C 	C 	0.12468 0.12468 0.37532 -0.09900
C 	C 	0.14974 0.14974 0.35026 -0.09400
Ag	Ag	0.42723 0.57277 0.42723 0.49200
Ag	Ag	0.29859 0.70141 0.29859 0.48300
C 	C 	0.37532 0.62468 0.37532 -0.10700
C 	C 	0.35026 0.64974 0.35026 -0.10000
Ag	Ag	0.42723 0.07277 0.92723 0.47300
Ag	Ag	0.29859 0.20141 0.79859 0.48200
C 	C 	0.37532 0.12468 0.87532 -0.11700
C 	C 	0.35026 0.14974 0.85026 -0.10000
Ag	Ag	0.92723 0.57277 0.92723 0.44900
Ag	Ag	0.79859 0.70141 0.79859 0.47900
C 	C 	0.87532 0.62468 0.87532 -0.13600
C 	C 	0.85026 0.64974 0.85026 -0.10700
Ag	Ag	0.92723 0.07277 0.42723 0.47300
Ag	Ag	0.79859 0.20141 0.29859 0.48200
C 	C 	0.87532 0.12468 0.37532 -0.11700
C 	C 	0.85026 0.14974 0.35026 -0.10000
Ag	Ag	0.57277 0.42723 0.42723 0.49200
Ag	Ag	0.70141 0.29859 0.29859 0.48300
C 	C 	0.62468 0.37532 0.37532 -0.10700
C 	C 	0.64974 0.35026 0.35026 -0.10000
Ag	Ag	0.57277 0.92723 0.92723 0.44900
Ag	Ag	0.70141 0.79859 0.79859 0.47900
C 	C 	0.62468 0.87532 0.87532 -0.13600
C 	C 	0.64974 0.85026 0.85026 -0.10700
Ag	Ag	0.07277 0.42723 0.92723 0.47300
Ag	Ag	0.20141 0.29859 0.79859 0.48200
C 	C 	0.12468 0.37532 0.87532 -0.11700
C 	C 	0.14974 0.35026 0.85026 -0.10000
Ag	Ag	0.07277 0.92723 0.42723 0.47300
Ag	Ag	0.20141 0.79859 0.29859 0.48200
C 	C 	0.12468 0.87532 0.37532 -0.11700
C 	C 	0.14974 0.85026 0.35026 -0.10000
Ag	Ag	0.42723 0.42723 0.57277 0.49200
Ag	Ag	0.29859 0.29859 0.70141 0.48300
C 	C 	0.37532 0.37532 0.62468 -0.10700
C 	C 	0.35026 0.35026 0.64974 -0.10000
Ag	Ag	0.42723 0.92723 0.07277 0.47300
Ag	Ag	0.29859 0.79859 0.20141 0.48200
C 	C 	0.37532 0.87532 0.12468 -0.11700
C 	C 	0.35026 0.85026 0.14974 -0.10000
Ag	Ag	0.92723 0.42723 0.07277 0.47300
Ag	Ag	0.79859 0.29859 0.20141 0.48200
C 	C 	0.87532 0.37532 0.12468 -0.11700
C 	C 	0.85026 0.35026 0.14974 -0.10000
Ag	Ag	0.92723 0.92723 0.57277 0.44900
Ag	Ag	0.79859 0.79859 0.70141 0.47900
C 	C 	0.87532 0.87532 0.62468 -0.13600
C 	C 	0.85026 0.85026 0.64974 -0.10700
Ag	Ag	0.57277 0.57277 0.57277 0.49100
Ag	Ag	0.70141 0.70141 0.70141 0.48300
C 	C 	0.62468 0.62468 0.62468 -0.10900
C 	C 	0.64974 0.64974 0.64974 -0.10300
Ag	Ag	0.57277 0.07277 0.07277 0.49600
Ag	Ag	0.70141 0.20141 0.20141 0.48500
C 	C 	0.62468 0.12468 0.12468 -0.10000
C 	C 	0.64974 0.14974 0.14974 -0.09500
Ag	Ag	0.07277 0.57277 0.07277 0.49600
Ag	Ag	0.20141 0.70141 0.20141 0.48500
C 	C 	0.12468 0.62468 0.12468 -0.10000
C 	C 	0.14974 0.64974 0.14974 -0.09500
Ag	Ag	0.07277 0.07277 0.57277 0.49600
Ag	Ag	0.20141 0.20141 0.70141 0.48500
C 	C 	0.12468 0.12468 0.62468 -0.10000
C 	C 	0.14974 0.14974 0.64974 -0.09500
I 	I 	0.50000 0.50000 0.63138 -0.49600
I 	I 	0.50000 0.00000 0.13138 -0.44700
I 	I 	-0.00000 0.50000 0.13138 -0.44700
I 	I 	0.00000 0.00000 0.63138 -0.40800
I 	I 	0.50000 0.50000 0.36862 -0.49000
I 	I 	0.50000 0.00000 0.86862 -0.46600
I 	I 	-0.00000 0.50000 0.86862 -0.46600
I 	I 	0.00000 0.00000 0.36862 -0.40200
I 	I 	0.63138 0.50000 0.50000 -0.49600
I 	I 	0.63138 0.00000 -0.00000 -0.40800
I 	I 	0.13138 0.50000 -0.00000 -0.44700
I 	I 	0.13138 0.00000 0.50000 -0.44700
I 	I 	0.36862 0.50000 0.50000 -0.49000
I 	I 	0.36862 0.00000 -0.00000 -0.40200
I 	I 	0.86862 0.50000 -0.00000 -0.46600
I 	I 	0.86862 0.00000 0.50000 -0.46600
I 	I 	0.50000 0.63138 0.50000 -0.49600
I 	I 	0.50000 0.13138 -0.00000 -0.44700
I 	I 	-0.00000 0.63138 -0.00000 -0.40800
I 	I 	-0.00000 0.13138 0.50000 -0.44700
I 	I 	0.50000 0.36862 0.50000 -0.49000
I 	I 	0.50000 0.86862 -0.00000 -0.46600
I 	I 	-0.00000 0.36862 -0.00000 -0.40200
I 	I 	-0.00000 0.86862 0.50000 -0.46600
I 	I 	0.68360 0.31640 0.81640 -0.41600
I 	I 	0.31640 0.68360 0.81640 -0.41600
I 	I 	0.31640 0.31640 0.18360 -0.38800
I 	I 	0.68360 0.68360 0.18360 -0.39200
I 	I 	0.81640 0.68360 0.31640 -0.41600
I 	I 	0.81640 0.18360 0.81640 -0.42100
I 	I 	0.81640 0.31640 0.68360 -0.41600
I 	I 	0.81640 0.81640 0.18360 -0.42100
I 	I 	0.18360 0.31640 0.31640 -0.38800
I 	I 	0.18360 0.81640 0.81640 -0.42100
I 	I 	0.18360 0.68360 0.68360 -0.39200
I 	I 	0.18360 0.18360 0.18360 -0.37000
I 	I 	0.31640 0.81640 0.68360 -0.41600
I 	I 	0.68360 0.81640 0.31640 -0.41600
I 	I 	0.31640 0.18360 0.31640 -0.38800
I 	I 	0.68360 0.18360 0.68360 -0.39200
I 	I 	0.31640 0.68360 0.18360 -0.39000
I 	I 	0.68360 0.31640 0.18360 -0.39000
I 	I 	0.31640 0.31640 0.81640 -0.41400
I 	I 	0.68360 0.68360 0.81640 -0.41800
I 	I 	0.68360 0.81640 0.68360 -0.41800
I 	I 	0.31640 0.81640 0.31640 -0.41400
I 	I 	0.31640 0.18360 0.68360 -0.39000
I 	I 	0.68360 0.18360 0.31640 -0.39000
I 	I 	0.81640 0.31640 0.31640 -0.41400
I 	I 	0.81640 0.81640 0.81640 -0.44600
I 	I 	0.81640 0.68360 0.68360 -0.41800
I 	I 	0.81640 0.18360 0.18360 -0.39600
I 	I 	0.18360 0.31640 0.68360 -0.39000
I 	I 	0.18360 0.81640 0.18360 -0.39600
I 	I 	0.18360 0.68360 0.31640 -0.39000
I 	I 	0.18360 0.18360 0.81640 -0.39600
