data_crystal

_cell_length_a 24.96900
_cell_length_b 24.96900
_cell_length_c 24.96900
_cell_angle_alpha 90.00000
_cell_angle_beta  90.00000
_cell_angle_gamma 90.00000

_symmetry_space_group_name_	'P 1'
_symmetry_space_group_name_H-M	'P 1'

loop_
_symmetry_equiv_pos_as_xyz
  x,y,z

loop_
_atom_site_label
_atom_site_type_symbol
_atom_site_fract_x
_atom_site_fract_y
_atom_site_fract_z
_atom_site_charge
N 	N 	0.47420 0.08020 0.24340 -0.40900
O 	O 	0.57700 0.06540 0.34600 -0.57700
O 	O 	0.51950 0.01040 0.30700 -0.60700
C 	C 	0.51460 0.09850 0.27730 -0.11200
C 	C 	0.53850 0.05470 0.31360 0.39400
N 	N 	0.97420 0.58020 0.74340 -0.34000
O 	O 	0.07700 0.56540 0.84600 -0.56800
O 	O 	0.01950 0.51040 0.80700 -0.59800
C 	C 	0.01460 0.59850 0.77730 -0.15400
C 	C 	0.03850 0.55470 0.81360 0.40400
N 	N 	0.02580 0.91980 0.74340 -0.42300
O 	O 	0.92300 0.93460 0.84600 -0.53500
O 	O 	0.98050 0.98960 0.80700 -0.47900
C 	C 	0.98540 0.90150 0.77730 -0.03100
C 	C 	0.96150 0.94530 0.81360 0.38100
N 	N 	0.52580 0.41980 0.24340 -0.39400
O 	O 	0.42300 0.43460 0.34600 -0.56200
O 	O 	0.48050 0.48960 0.30700 -0.56500
C 	C 	0.48540 0.40150 0.27730 -0.10000
C 	C 	0.46150 0.44530 0.31360 0.39200
N 	N 	0.52580 0.58020 0.25660 -0.39200
O 	O 	0.42300 0.56540 0.15400 -0.56700
O 	O 	0.48050 0.51040 0.19300 -0.57200
C 	C 	0.48540 0.59850 0.22270 -0.10100
C 	C 	0.46150 0.55470 0.18640 0.39200
N 	N 	0.02580 0.08020 0.75660 -0.45300
O 	O 	0.92300 0.06540 0.65400 -0.56600
O 	O 	0.98050 0.01040 0.69300 -0.56800
C 	C 	0.98540 0.09850 0.72270 -0.05400
C 	C 	0.96150 0.05470 0.68640 0.38400
N 	N 	0.97420 0.41980 0.75660 -0.33900
O 	O 	0.07700 0.43460 0.65400 -0.57200
O 	O 	0.01950 0.48960 0.69300 -0.60200
C 	C 	0.01460 0.40150 0.72270 -0.15500
C 	C 	0.03850 0.44530 0.68640 0.40400
N 	N 	0.47420 0.91980 0.25660 -0.37600
O 	O 	0.57700 0.93460 0.15400 -0.55400
O 	O 	0.51950 0.98960 0.19300 -0.52700
C 	C 	0.51460 0.90150 0.22270 -0.09000
C 	C 	0.53850 0.94530 0.18640 0.38900
N 	N 	0.24340 0.47420 0.08020 -0.40800
O 	O 	0.34600 0.57700 0.06540 -0.57600
O 	O 	0.30700 0.51950 0.01040 -0.60700
C 	C 	0.27730 0.51460 0.09850 -0.11200
C 	C 	0.31360 0.53850 0.05470 0.39400
N 	N 	0.74340 0.97420 0.58020 -0.34000
O 	O 	0.84600 0.07700 0.56540 -0.56800
O 	O 	0.80700 0.01950 0.51040 -0.59800
C 	C 	0.77730 0.01460 0.59850 -0.15400
C 	C 	0.81360 0.03850 0.55470 0.40400
N 	N 	0.74340 0.02580 0.91980 -0.42300
O 	O 	0.84600 0.92300 0.93460 -0.53500
O 	O 	0.80700 0.98050 0.98960 -0.47900
C 	C 	0.77730 0.98540 0.90150 -0.03100
C 	C 	0.81360 0.96150 0.94530 0.38100
N 	N 	0.24340 0.52580 0.41980 -0.39400
O 	O 	0.34600 0.42300 0.43460 -0.56200
O 	O 	0.30700 0.48050 0.48960 -0.56500
C 	C 	0.27730 0.48540 0.40150 -0.10000
C 	C 	0.31360 0.46150 0.44530 0.39200
N 	N 	0.25660 0.52580 0.58020 -0.39200
O 	O 	0.15400 0.42300 0.56540 -0.56700
O 	O 	0.19300 0.48050 0.51040 -0.57200
C 	C 	0.22270 0.48540 0.59850 -0.10100
C 	C 	0.18640 0.46150 0.55470 0.39200
N 	N 	0.75660 0.02580 0.08020 -0.45300
O 	O 	0.65400 0.92300 0.06540 -0.56600
O 	O 	0.69300 0.98050 0.01040 -0.56800
C 	C 	0.72270 0.98540 0.09850 -0.05400
C 	C 	0.68640 0.96150 0.05470 0.38400
N 	N 	0.75660 0.97420 0.41980 -0.33900
O 	O 	0.65400 0.07700 0.43460 -0.57200
O 	O 	0.69300 0.01950 0.48960 -0.60200
C 	C 	0.72270 0.01460 0.40150 -0.15500
C 	C 	0.68640 0.03850 0.44530 0.40400
N 	N 	0.25660 0.47420 0.91980 -0.37600
O 	O 	0.15400 0.57700 0.93460 -0.55400
O 	O 	0.19300 0.51950 0.98960 -0.52700
C 	C 	0.22270 0.51460 0.90150 -0.09000
C 	C 	0.18640 0.53850 0.94530 0.38900
N 	N 	0.08020 0.24340 0.47420 -0.40800
O 	O 	0.06540 0.34600 0.57700 -0.57600
O 	O 	0.01040 0.30700 0.51950 -0.60700
C 	C 	0.09850 0.27730 0.51460 -0.11200
C 	C 	0.05470 0.31360 0.53850 0.39400
N 	N 	0.58020 0.74340 0.97420 -0.34000
O 	O 	0.56540 0.84600 0.07700 -0.56800
O 	O 	0.51040 0.80700 0.01950 -0.59800
C 	C 	0.59850 0.77730 0.01460 -0.15400
C 	C 	0.55470 0.81360 0.03850 0.40400
N 	N 	0.91980 0.74340 0.02580 -0.42300
O 	O 	0.93460 0.84600 0.92300 -0.53500
O 	O 	0.98960 0.80700 0.98050 -0.47900
C 	C 	0.90150 0.77730 0.98540 -0.03100
C 	C 	0.94530 0.81360 0.96150 0.38100
N 	N 	0.41980 0.24340 0.52580 -0.39400
O 	O 	0.43460 0.34600 0.42300 -0.56200
O 	O 	0.48960 0.30700 0.48050 -0.56500
C 	C 	0.40150 0.27730 0.48540 -0.10000
C 	C 	0.44530 0.31360 0.46150 0.39200
N 	N 	0.58020 0.25660 0.52580 -0.39200
O 	O 	0.56540 0.15400 0.42300 -0.56700
O 	O 	0.51040 0.19300 0.48050 -0.57200
C 	C 	0.59850 0.22270 0.48540 -0.10100
C 	C 	0.55470 0.18640 0.46150 0.39200
N 	N 	0.08020 0.75660 0.02580 -0.45300
O 	O 	0.06540 0.65400 0.92300 -0.56600
O 	O 	0.01040 0.69300 0.98050 -0.56800
C 	C 	0.09850 0.72270 0.98540 -0.05400
C 	C 	0.05470 0.68640 0.96150 0.38400
N 	N 	0.41980 0.75660 0.97420 -0.33900
O 	O 	0.43460 0.65400 0.07700 -0.57200
O 	O 	0.48960 0.69300 0.01950 -0.60200
C 	C 	0.40150 0.72270 0.01460 -0.15500
C 	C 	0.44530 0.68640 0.03850 0.40400
N 	N 	0.91980 0.25660 0.47420 -0.37600
O 	O 	0.93460 0.15400 0.57700 -0.55400
O 	O 	0.98960 0.19300 0.51950 -0.52700
C 	C 	0.90150 0.22270 0.51460 -0.09000
C 	C 	0.94530 0.18640 0.53850 0.38900
N 	N 	0.83020 0.72420 0.00660 -0.43500
O 	O 	0.81540 0.82700 0.90400 -0.55100
O 	O 	0.76040 0.76950 0.94300 -0.52700
C 	C 	0.84850 0.76460 0.97270 -0.04300
C 	C 	0.80470 0.78850 0.93640 0.38900
N 	N 	0.33020 0.22420 0.50660 -0.39700
O 	O 	0.31540 0.32700 0.40400 -0.56800
O 	O 	0.26040 0.26950 0.44300 -0.57600
C 	C 	0.34850 0.26460 0.47270 -0.10300
C 	C 	0.30470 0.28850 0.43640 0.39200
N 	N 	0.66980 0.27580 0.50660 -0.39100
O 	O 	0.68460 0.17300 0.40400 -0.56300
O 	O 	0.73960 0.23050 0.44300 -0.56600
C 	C 	0.65150 0.23540 0.47270 -0.10000
C 	C 	0.69530 0.21150 0.43640 0.39200
N 	N 	0.16980 0.77580 0.00660 -0.43900
O 	O 	0.18460 0.67300 0.90400 -0.55300
O 	O 	0.23960 0.73050 0.94300 -0.52900
C 	C 	0.15150 0.73540 0.97270 -0.04500
C 	C 	0.19530 0.71150 0.93640 0.38400
N 	N 	0.33020 0.77580 0.99340 -0.33700
O 	O 	0.31540 0.67300 0.09600 -0.57200
O 	O 	0.26040 0.73050 0.05700 -0.59600
C 	C 	0.34850 0.73540 0.02730 -0.15200
C 	C 	0.30470 0.71150 0.06360 0.39900
N 	N 	0.83020 0.27580 0.49340 -0.38900
O 	O 	0.81540 0.17300 0.59600 -0.56100
O 	O 	0.76040 0.23050 0.55700 -0.56500
C 	C 	0.84850 0.23540 0.52730 -0.09800
C 	C 	0.80470 0.21150 0.56360 0.39500
N 	N 	0.16980 0.22420 0.49340 -0.40000
O 	O 	0.18460 0.32700 0.59600 -0.56400
O 	O 	0.23960 0.26950 0.55700 -0.57000
C 	C 	0.15150 0.26460 0.52730 -0.10400
C 	C 	0.19530 0.28850 0.56360 0.39000
N 	N 	0.66980 0.72420 0.99340 -0.33800
O 	O 	0.68460 0.82700 0.09600 -0.56700
O 	O 	0.73960 0.76950 0.05700 -0.58900
C 	C 	0.65150 0.76460 0.02730 -0.15200
C 	C 	0.69530 0.78850 0.06360 0.39900
N 	N 	0.22420 0.49340 0.16980 -0.40000
O 	O 	0.32700 0.59600 0.18460 -0.56400
O 	O 	0.26950 0.55700 0.23960 -0.57000
C 	C 	0.26460 0.52730 0.15150 -0.10400
C 	C 	0.28850 0.56360 0.19530 0.39000
N 	N 	0.72420 0.99340 0.66980 -0.33800
O 	O 	0.82700 0.09600 0.68460 -0.56700
O 	O 	0.76950 0.05700 0.73960 -0.58900
C 	C 	0.76460 0.02730 0.65150 -0.15200
C 	C 	0.78850 0.06360 0.69530 0.39900
N 	N 	0.77580 0.99340 0.33020 -0.33700
O 	O 	0.67300 0.09600 0.31540 -0.57200
O 	O 	0.73050 0.05700 0.26040 -0.59600
C 	C 	0.73540 0.02730 0.34850 -0.15200
C 	C 	0.71150 0.06360 0.30470 0.39900
N 	N 	0.27580 0.49340 0.83020 -0.38900
O 	O 	0.17300 0.59600 0.81540 -0.56100
O 	O 	0.23050 0.55700 0.76040 -0.56500
C 	C 	0.23540 0.52730 0.84850 -0.09800
C 	C 	0.21150 0.56360 0.80470 0.39500
N 	N 	0.27580 0.50660 0.66980 -0.39100
O 	O 	0.17300 0.40400 0.68460 -0.56300
O 	O 	0.23050 0.44300 0.73960 -0.56600
C 	C 	0.23540 0.47270 0.65150 -0.10000
C 	C 	0.21150 0.43640 0.69530 0.39200
N 	N 	0.77580 0.00660 0.16980 -0.43900
O 	O 	0.67300 0.90400 0.18460 -0.55300
O 	O 	0.73050 0.94300 0.23960 -0.52900
C 	C 	0.73540 0.97270 0.15150 -0.04500
C 	C 	0.71150 0.93640 0.19530 0.38400
N 	N 	0.72420 0.00660 0.83020 -0.43500
O 	O 	0.82700 0.90400 0.81540 -0.55100
O 	O 	0.76950 0.94300 0.76040 -0.52700
C 	C 	0.76460 0.97270 0.84850 -0.04300
C 	C 	0.78850 0.93640 0.80470 0.38900
N 	N 	0.22420 0.50660 0.33020 -0.39700
O 	O 	0.32700 0.40400 0.31540 -0.56800
O 	O 	0.26950 0.44300 0.26040 -0.57600
C 	C 	0.26460 0.47270 0.34850 -0.10300
C 	C 	0.28850 0.43640 0.30470 0.39200
N 	N 	0.99340 0.33020 0.77580 -0.33700
O 	O 	0.09600 0.31540 0.67300 -0.57200
O 	O 	0.05700 0.26040 0.73050 -0.59600
C 	C 	0.02730 0.34850 0.73540 -0.15200
C 	C 	0.06360 0.30470 0.71150 0.39900
N 	N 	0.49340 0.83020 0.27580 -0.38900
O 	O 	0.59600 0.81540 0.17300 -0.56100
O 	O 	0.55700 0.76040 0.23050 -0.56500
C 	C 	0.52730 0.84850 0.23540 -0.09800
C 	C 	0.56360 0.80470 0.21150 0.39500
N 	N 	0.49340 0.16980 0.22420 -0.40000
O 	O 	0.59600 0.18460 0.32700 -0.56400
O 	O 	0.55700 0.23960 0.26950 -0.57000
C 	C 	0.52730 0.15150 0.26460 -0.10400
C 	C 	0.56360 0.19530 0.28850 0.39000
N 	N 	0.99340 0.66980 0.72420 -0.33800
O 	O 	0.09600 0.68460 0.82700 -0.56700
O 	O 	0.05700 0.73960 0.76950 -0.58900
C 	C 	0.02730 0.65150 0.76460 -0.15200
C 	C 	0.06360 0.69530 0.78850 0.39900
N 	N 	0.00660 0.83020 0.72420 -0.43500
O 	O 	0.90400 0.81540 0.82700 -0.55100
O 	O 	0.94300 0.76040 0.76950 -0.52700
C 	C 	0.97270 0.84850 0.76460 -0.04300
C 	C 	0.93640 0.80470 0.78850 0.38900
N 	N 	0.50660 0.33020 0.22420 -0.39700
O 	O 	0.40400 0.31540 0.32700 -0.56800
O 	O 	0.44300 0.26040 0.26950 -0.57600
C 	C 	0.47270 0.34850 0.26460 -0.10300
C 	C 	0.43640 0.30470 0.28850 0.39200
N 	N 	0.50660 0.66980 0.27580 -0.39100
O 	O 	0.40400 0.68460 0.17300 -0.56300
O 	O 	0.44300 0.73960 0.23050 -0.56600
C 	C 	0.47270 0.65150 0.23540 -0.10000
C 	C 	0.43640 0.69530 0.21150 0.39200
N 	N 	0.00660 0.16980 0.77580 -0.43900
O 	O 	0.90400 0.18460 0.67300 -0.55300
O 	O 	0.94300 0.23960 0.73050 -0.52900
C 	C 	0.97270 0.15150 0.73540 -0.04500
C 	C 	0.93640 0.19530 0.71150 0.38400
In	In	0.44600 0.00000 0.25000 1.84200
In	In	0.05400 -0.00000 0.75000 1.83000
In	In	0.55400 0.50000 0.25000 1.86400
In	In	0.94600 0.50000 0.75000 1.88400
In	In	0.25000 0.44600 -0.00000 1.84200
In	In	0.75000 0.05400 -0.00000 1.83000
In	In	0.25000 0.55400 0.50000 1.86400
In	In	0.75000 0.94600 0.50000 1.88400
In	In	-0.00000 0.25000 0.44600 1.84200
In	In	-0.00000 0.75000 0.05400 1.83000
In	In	0.50000 0.25000 0.55400 1.86400
In	In	0.50000 0.75000 0.94600 1.88400
In	In	0.75000 0.69600 -0.00000 1.84700
In	In	0.75000 0.30400 0.50000 1.86700
In	In	0.25000 0.80400 -0.00000 1.84600
In	In	0.25000 0.19600 0.50000 1.85900
In	In	0.19600 0.50000 0.25000 1.85900
In	In	0.80400 0.00000 0.25000 1.84600
In	In	0.30400 0.50000 0.75000 1.86700
In	In	0.69600 -0.00000 0.75000 1.84700
In	In	0.00000 0.25000 0.80400 1.84600
In	In	0.50000 0.25000 0.19600 1.85900
In	In	-0.00000 0.75000 0.69600 1.84700
In	In	0.50000 0.75000 0.30400 1.86700
C 	C 	0.46500 0.12500 0.21500 0.09400
H 	H 	0.43860 0.12500 0.18860 -0.21000
C 	C 	0.96500 0.62500 0.71500 0.13000
H 	H 	0.93860 0.62500 0.68860 -0.17600
C 	C 	0.03500 0.87500 0.71500 0.08500
H 	H 	0.06140 0.87500 0.68860 -0.18000
C 	C 	0.53500 0.37500 0.21500 0.10100
H 	H 	0.56140 0.37500 0.18860 -0.19500
C 	C 	0.53500 0.62500 0.28500 0.10300
H 	H 	0.56140 0.62500 0.31140 -0.18400
C 	C 	0.03500 0.12500 0.78500 0.07300
H 	H 	0.06140 0.12500 0.81140 -0.19800
C 	C 	0.96500 0.37500 0.78500 0.13000
H 	H 	0.93860 0.37500 0.81140 -0.17300
C 	C 	0.46500 0.87500 0.28500 0.10800
H 	H 	0.43860 0.87500 0.31140 -0.17700
C 	C 	0.21500 0.46500 0.12500 0.09400
H 	H 	0.18860 0.43860 0.12500 -0.21000
C 	C 	0.71500 0.96500 0.62500 0.13000
H 	H 	0.68860 0.93860 0.62500 -0.17600
C 	C 	0.71500 0.03500 0.87500 0.08500
H 	H 	0.68860 0.06140 0.87500 -0.18000
C 	C 	0.21500 0.53500 0.37500 0.10100
H 	H 	0.18860 0.56140 0.37500 -0.19500
C 	C 	0.28500 0.53500 0.62500 0.10300
H 	H 	0.31140 0.56140 0.62500 -0.18400
C 	C 	0.78500 0.03500 0.12500 0.07300
H 	H 	0.81140 0.06140 0.12500 -0.19800
C 	C 	0.78500 0.96500 0.37500 0.13000
H 	H 	0.81140 0.93860 0.37500 -0.17300
C 	C 	0.28500 0.46500 0.87500 0.10800
H 	H 	0.31140 0.43860 0.87500 -0.17700
C 	C 	0.12500 0.21500 0.46500 0.09400
H 	H 	0.12500 0.18860 0.43860 -0.21000
C 	C 	0.62500 0.71500 0.96500 0.13000
H 	H 	0.62500 0.68860 0.93860 -0.17600
C 	C 	0.87500 0.71500 0.03500 0.08500
H 	H 	0.87500 0.68860 0.06140 -0.18000
C 	C 	0.37500 0.21500 0.53500 0.10100
H 	H 	0.37500 0.18860 0.56140 -0.19500
C 	C 	0.62500 0.28500 0.53500 0.10300
H 	H 	0.62500 0.31140 0.56140 -0.18400
C 	C 	0.12500 0.78500 0.03500 0.07300
H 	H 	0.12500 0.81140 0.06140 -0.19800
C 	C 	0.37500 0.78500 0.96500 0.13000
H 	H 	0.37500 0.81140 0.93860 -0.17300
C 	C 	0.87500 0.28500 0.46500 0.10800
H 	H 	0.87500 0.31140 0.43860 -0.17700
In	In	0.62500 0.12500 0.37500 2.03600
In	In	0.12500 0.62500 0.87500 2.03700
In	In	0.87500 0.87500 0.87500 2.03700
In	In	0.37500 0.37500 0.37500 2.03600
In	In	0.37500 0.62500 0.12500 2.03600
In	In	0.87500 0.12500 0.62500 2.03700
In	In	0.12500 0.37500 0.62500 2.03600
In	In	0.62500 0.87500 0.12500 2.03700
