data_crystal

_cell_length_a 41.09000
_cell_length_b 41.09000
_cell_length_c 17.74700
_cell_angle_alpha 90.00000
_cell_angle_beta  90.00000
_cell_angle_gamma 120.00000

_symmetry_space_group_name_	'P 1'
_symmetry_space_group_name_H-M	'P 1'

loop_
_symmetry_equiv_pos_as_xyz
  x,y,z

loop_
_atom_site_label
_atom_site_type_symbol
_atom_site_fract_x
_atom_site_fract_y
_atom_site_fract_z
_atom_site_charge
Zn	Zn	0.39958 0.37280 0.16187 1.22400
O 	O 	0.38500 0.33390 0.09340 -0.47700
O 	O 	0.40980 0.30050 0.15440 -0.52000
C 	C 	0.39630 0.30860 0.09750 0.32200
C 	C 	0.39030 0.28540 0.02120 -0.07800
C 	C 	0.36890 0.29090 0.96490 0.05200
C 	C 	0.36530 0.27050 0.89480 -0.09800
H 	H 	0.35350 0.27370 0.85230 0.06400
C 	C 	0.37990 0.24610 0.89240 0.02400
C 	C 	0.40420 0.24550 0.95240 -0.07800
H 	H 	0.41960 0.23500 0.94310 0.05700
C 	C 	0.40450 0.26090 0.02600 -0.00100
H 	H 	0.41300 0.25520 0.07060 0.04200
C 	C 	0.37690 0.22620 0.81310 0.05900
C 	C 	0.37770 0.19250 0.81800 -0.12200
H 	H 	0.37900 0.18240 0.86460 0.07000
C 	C 	0.37080 0.11950 0.80960 -0.09000
H 	H 	0.36060 0.12550 0.85100 0.06000
C 	C 	0.37910 0.08840 0.81720 -0.00300
H 	H 	0.38780 0.08200 0.86050 0.04100
O 	O 	0.37190 0.01720 0.81270 -0.50200
O 	O 	0.43340 0.41500 0.10230 -0.51600
O 	O 	0.48880 0.44430 0.16440 -0.49300
C 	C 	0.46700 0.43850 0.11230 0.38800
C 	C 	0.48180 0.46470 0.03950 0.05300
C 	C 	0.51940 0.49180 0.04820 -0.10300
C 	C 	0.46200 0.48220 0.00860 0.14000
C 	C 	0.48100 0.48320 0.07420 -0.14100
C 	C 	0.51860 0.51030 0.08300 0.14500
C 	C 	0.46280 0.46370 0.97390 -0.12500
Zn	Zn	0.62720 0.02678 0.16187 1.22500
O 	O 	0.66610 0.05110 0.09340 -0.47600
O 	O 	0.69950 0.10930 0.15440 -0.52000
C 	C 	0.69140 0.08770 0.09750 0.32300
C 	C 	0.71460 0.10490 0.02120 -0.07700
C 	C 	0.70910 0.07800 0.96490 0.05300
C 	C 	0.72950 0.09480 0.89480 -0.09700
H 	H 	0.72630 0.07980 0.85230 0.06500
C 	C 	0.75390 0.13380 0.89240 0.02500
C 	C 	0.75450 0.15870 0.95240 -0.07700
H 	H 	0.76500 0.18460 0.94310 0.05800
C 	C 	0.73910 0.14360 0.02600 0.00000
H 	H 	0.74480 0.15780 0.07060 0.04300
C 	C 	0.77380 0.15070 0.81310 0.06000
C 	C 	0.80750 0.18520 0.81800 -0.12100
H 	H 	0.81760 0.19660 0.86460 0.07100
C 	C 	0.88050 0.25130 0.80960 -0.08900
H 	H 	0.87450 0.23510 0.85100 0.06200
C 	C 	0.91160 0.29070 0.81720 -0.00200
H 	H 	0.91800 0.30580 0.86050 0.04200
O 	O 	0.98280 0.35470 0.81270 -0.50200
O 	O 	0.58500 0.01840 0.10230 -0.51600
O 	O 	0.55570 0.04450 0.16440 -0.49300
C 	C 	0.56150 0.02850 0.11230 0.38800
C 	C 	0.53530 0.01710 0.03950 0.05300
C 	C 	0.50820 0.02760 0.04820 -0.10300
C 	C 	0.51780 0.97980 0.00860 0.14000
C 	C 	0.51680 0.99780 0.07420 -0.14100
C 	C 	0.48970 0.00830 0.08300 0.14500
C 	C 	0.53630 0.99910 0.97390 -0.12600
Zn	Zn	0.97322 0.60042 0.16187 1.22500
O 	O 	0.94890 0.61500 0.09340 -0.47600
O 	O 	0.89070 0.59020 0.15440 -0.51900
C 	C 	0.91230 0.60370 0.09750 0.32300
C 	C 	0.89510 0.60970 0.02120 -0.07700
C 	C 	0.92200 0.63110 0.96490 0.05300
C 	C 	0.90520 0.63470 0.89480 -0.09700
H 	H 	0.92020 0.64650 0.85230 0.06500
C 	C 	0.86620 0.62010 0.89240 0.02500
C 	C 	0.84130 0.59580 0.95240 -0.07700
H 	H 	0.81540 0.58040 0.94310 0.05800
C 	C 	0.85640 0.59550 0.02600 0.00000
H 	H 	0.84220 0.58700 0.07060 0.04300
C 	C 	0.84930 0.62310 0.81310 0.06000
C 	C 	0.81480 0.62230 0.81800 -0.12100
H 	H 	0.80340 0.62100 0.86460 0.07100
C 	C 	0.74870 0.62920 0.80960 -0.08900
H 	H 	0.76490 0.63940 0.85100 0.06100
C 	C 	0.70930 0.62090 0.81720 -0.00200
H 	H 	0.69420 0.61220 0.86050 0.04200
O 	O 	0.64530 0.62810 0.81270 -0.50200
O 	O 	0.98160 0.56660 0.10230 -0.51600
O 	O 	0.95550 0.51120 0.16440 -0.49300
C 	C 	0.97150 0.53300 0.11230 0.38800
C 	C 	0.98290 0.51820 0.03950 0.05200
C 	C 	0.97240 0.48060 0.04820 -0.10300
C 	C 	0.02020 0.53800 0.00860 0.14000
C 	C 	0.00220 0.51900 0.07420 -0.14100
C 	C 	0.99170 0.48140 0.08300 0.14400
C 	C 	0.00090 0.53720 0.97390 -0.12500
Zn	Zn	0.60042 0.62720 0.66187 1.22500
O 	O 	0.61500 0.66610 0.59340 -0.47600
O 	O 	0.59020 0.69950 0.65440 -0.51900
C 	C 	0.60370 0.69140 0.59750 0.32300
C 	C 	0.60970 0.71460 0.52120 -0.07700
C 	C 	0.63110 0.70910 0.46490 0.05300
C 	C 	0.63470 0.72950 0.39480 -0.09700
H 	H 	0.64650 0.72630 0.35230 0.06500
C 	C 	0.62010 0.75390 0.39240 0.02500
C 	C 	0.59580 0.75450 0.45240 -0.07700
H 	H 	0.58040 0.76500 0.44310 0.05800
C 	C 	0.59550 0.73910 0.52600 0.00000
H 	H 	0.58700 0.74480 0.57060 0.04300
C 	C 	0.62310 0.77380 0.31310 0.06000
C 	C 	0.62230 0.80750 0.31800 -0.12100
H 	H 	0.62100 0.81760 0.36460 0.07100
C 	C 	0.62920 0.88050 0.30960 -0.08900
H 	H 	0.63940 0.87450 0.35100 0.06200
C 	C 	0.62090 0.91160 0.31720 -0.00200
H 	H 	0.61220 0.91800 0.36050 0.04200
O 	O 	0.62810 0.98280 0.31270 -0.50200
O 	O 	0.56660 0.58500 0.60230 -0.51600
O 	O 	0.51120 0.55570 0.66440 -0.49300
C 	C 	0.53300 0.56150 0.61230 0.38800
C 	C 	0.51820 0.53530 0.53950 0.05300
C 	C 	0.48060 0.50820 0.54820 -0.10300
C 	C 	0.53800 0.51780 0.50860 0.14000
C 	C 	0.51900 0.51680 0.57420 -0.14100
C 	C 	0.48140 0.48970 0.58300 0.14500
C 	C 	0.53720 0.53630 0.47390 -0.12500
Zn	Zn	0.37280 0.97322 0.66187 1.22500
O 	O 	0.33390 0.94890 0.59340 -0.47600
O 	O 	0.30050 0.89070 0.65440 -0.51900
C 	C 	0.30860 0.91230 0.59750 0.32300
C 	C 	0.28540 0.89510 0.52120 -0.07700
C 	C 	0.29090 0.92200 0.46490 0.05300
C 	C 	0.27050 0.90520 0.39480 -0.09700
H 	H 	0.27370 0.92020 0.35230 0.06500
C 	C 	0.24610 0.86620 0.39240 0.02500
C 	C 	0.24550 0.84130 0.45240 -0.07700
H 	H 	0.23500 0.81540 0.44310 0.05800
C 	C 	0.26090 0.85640 0.52600 0.00000
H 	H 	0.25520 0.84220 0.57060 0.04300
C 	C 	0.22620 0.84930 0.31310 0.06000
C 	C 	0.19250 0.81480 0.31800 -0.12100
H 	H 	0.18240 0.80340 0.36460 0.07100
C 	C 	0.11950 0.74870 0.30960 -0.08900
H 	H 	0.12550 0.76490 0.35100 0.06200
C 	C 	0.08840 0.70930 0.31720 -0.00200
H 	H 	0.08200 0.69420 0.36050 0.04200
O 	O 	0.01720 0.64530 0.31270 -0.50200
O 	O 	0.41500 0.98160 0.60230 -0.51600
O 	O 	0.44430 0.95550 0.66440 -0.49300
C 	C 	0.43850 0.97150 0.61230 0.38800
C 	C 	0.46470 0.98290 0.53950 0.05300
C 	C 	0.49180 0.97240 0.54820 -0.10300
C 	C 	0.48220 0.02020 0.50860 0.14000
C 	C 	0.48320 0.00220 0.57420 -0.14200
C 	C 	0.51030 0.99170 0.58300 0.14500
C 	C 	0.46370 0.00090 0.47390 -0.12500
Zn	Zn	0.02678 0.39958 0.66187 1.22500
O 	O 	0.05110 0.38500 0.59340 -0.47600
O 	O 	0.10930 0.40980 0.65440 -0.51900
C 	C 	0.08770 0.39630 0.59750 0.32300
C 	C 	0.10490 0.39030 0.52120 -0.07700
C 	C 	0.07800 0.36890 0.46490 0.05300
C 	C 	0.09480 0.36530 0.39480 -0.09700
H 	H 	0.07980 0.35350 0.35230 0.06500
C 	C 	0.13380 0.37990 0.39240 0.02500
C 	C 	0.15870 0.40420 0.45240 -0.07700
H 	H 	0.18460 0.41960 0.44310 0.05800
C 	C 	0.14360 0.40450 0.52600 0.00000
H 	H 	0.15780 0.41300 0.57060 0.04300
C 	C 	0.15070 0.37690 0.31310 0.06000
C 	C 	0.18520 0.37770 0.31800 -0.12100
H 	H 	0.19660 0.37900 0.36460 0.07100
C 	C 	0.25130 0.37080 0.30960 -0.08900
H 	H 	0.23510 0.36060 0.35100 0.06200
C 	C 	0.29070 0.37910 0.31720 -0.00200
H 	H 	0.30580 0.38780 0.36050 0.04200
O 	O 	0.35470 0.37190 0.31270 -0.50200
O 	O 	0.01840 0.43340 0.60230 -0.51600
O 	O 	0.04450 0.48880 0.66440 -0.49300
C 	C 	0.02850 0.46700 0.61230 0.38800
C 	C 	0.01710 0.48180 0.53950 0.05300
C 	C 	0.02760 0.51940 0.54820 -0.10300
C 	C 	0.97980 0.46200 0.50860 0.14000
C 	C 	0.99780 0.48100 0.57420 -0.14200
C 	C 	0.00830 0.51860 0.58300 0.14500
C 	C 	0.99910 0.46280 0.47390 -0.12500
Zn	Zn	0.60042 0.62720 0.83813 1.22500
O 	O 	0.61500 0.66610 0.90660 -0.47600
O 	O 	0.59020 0.69950 0.84560 -0.51900
C 	C 	0.60370 0.69140 0.90250 0.32300
C 	C 	0.60970 0.71460 0.97880 -0.07700
C 	C 	0.63110 0.70910 0.03510 0.05300
C 	C 	0.63470 0.72950 0.10520 -0.09700
H 	H 	0.64650 0.72630 0.14770 0.06500
C 	C 	0.62010 0.75390 0.10760 0.02500
C 	C 	0.59580 0.75450 0.04760 -0.07700
H 	H 	0.58040 0.76500 0.05690 0.05800
C 	C 	0.59550 0.73910 0.97400 0.00000
H 	H 	0.58700 0.74480 0.92940 0.04300
C 	C 	0.62310 0.77380 0.18690 0.06000
C 	C 	0.62230 0.80750 0.18200 -0.12100
H 	H 	0.62100 0.81760 0.13540 0.07100
C 	C 	0.62920 0.88050 0.19040 -0.08900
H 	H 	0.63940 0.87450 0.14900 0.06100
C 	C 	0.62090 0.91160 0.18280 -0.00200
H 	H 	0.61220 0.91800 0.13950 0.04200
O 	O 	0.62810 0.98280 0.18730 -0.50200
O 	O 	0.56660 0.58500 0.89770 -0.51600
O 	O 	0.51120 0.55570 0.83560 -0.49300
C 	C 	0.53300 0.56150 0.88770 0.38800
C 	C 	0.51820 0.53530 0.96050 0.05300
C 	C 	0.48060 0.50820 0.95180 -0.10300
C 	C 	0.53800 0.51780 0.99140 0.14000
C 	C 	0.51900 0.51680 0.92580 -0.14100
C 	C 	0.48140 0.48970 0.91700 0.14500
C 	C 	0.53720 0.53630 0.02610 -0.12500
Zn	Zn	0.37280 0.97322 0.83813 1.22500
O 	O 	0.33390 0.94890 0.90660 -0.47600
O 	O 	0.30050 0.89070 0.84560 -0.52000
C 	C 	0.30860 0.91230 0.90250 0.32300
C 	C 	0.28540 0.89510 0.97880 -0.07700
C 	C 	0.29090 0.92200 0.03510 0.05300
C 	C 	0.27050 0.90520 0.10520 -0.09700
H 	H 	0.27370 0.92020 0.14770 0.06500
C 	C 	0.24610 0.86620 0.10760 0.02500
C 	C 	0.24550 0.84130 0.04760 -0.07700
H 	H 	0.23500 0.81540 0.05690 0.05800
C 	C 	0.26090 0.85640 0.97400 0.00000
H 	H 	0.25520 0.84220 0.92940 0.04300
C 	C 	0.22620 0.84930 0.18690 0.06000
C 	C 	0.19250 0.81480 0.18200 -0.12100
H 	H 	0.18240 0.80340 0.13540 0.07100
C 	C 	0.11950 0.74870 0.19040 -0.08900
H 	H 	0.12550 0.76490 0.14900 0.06200
C 	C 	0.08840 0.70930 0.18280 -0.00200
H 	H 	0.08200 0.69420 0.13950 0.04200
O 	O 	0.01720 0.64530 0.18730 -0.50200
O 	O 	0.41500 0.98160 0.89770 -0.51600
O 	O 	0.44430 0.95550 0.83560 -0.49300
C 	C 	0.43850 0.97150 0.88770 0.38800
C 	C 	0.46470 0.98290 0.96050 0.05300
C 	C 	0.49180 0.97240 0.95180 -0.10300
C 	C 	0.48220 0.02020 0.99140 0.14000
C 	C 	0.48320 0.00220 0.92580 -0.14100
C 	C 	0.51030 0.99170 0.91700 0.14500
C 	C 	0.46370 0.00090 0.02610 -0.12600
Zn	Zn	0.02678 0.39958 0.83813 1.22500
O 	O 	0.05110 0.38500 0.90660 -0.47600
O 	O 	0.10930 0.40980 0.84560 -0.51900
C 	C 	0.08770 0.39630 0.90250 0.32300
C 	C 	0.10490 0.39030 0.97880 -0.07700
C 	C 	0.07800 0.36890 0.03510 0.05300
C 	C 	0.09480 0.36530 0.10520 -0.09700
H 	H 	0.07980 0.35350 0.14770 0.06500
C 	C 	0.13380 0.37990 0.10760 0.02500
C 	C 	0.15870 0.40420 0.04760 -0.07700
H 	H 	0.18460 0.41960 0.05690 0.05800
C 	C 	0.14360 0.40450 0.97400 0.00000
H 	H 	0.15780 0.41300 0.92940 0.04300
C 	C 	0.15070 0.37690 0.18690 0.06000
C 	C 	0.18520 0.37770 0.18200 -0.12100
H 	H 	0.19660 0.37900 0.13540 0.07100
C 	C 	0.25130 0.37080 0.19040 -0.08900
H 	H 	0.23510 0.36060 0.14900 0.06100
C 	C 	0.29070 0.37910 0.18280 -0.00200
H 	H 	0.30580 0.38780 0.13950 0.04200
O 	O 	0.35470 0.37190 0.18730 -0.50200
O 	O 	0.01840 0.43340 0.89770 -0.51600
O 	O 	0.04450 0.48880 0.83560 -0.49300
C 	C 	0.02850 0.46700 0.88770 0.38800
C 	C 	0.01710 0.48180 0.96050 0.05200
C 	C 	0.02760 0.51940 0.95180 -0.10300
C 	C 	0.97980 0.46200 0.99140 0.14000
C 	C 	0.99780 0.48100 0.92580 -0.14100
C 	C 	0.00830 0.51860 0.91700 0.14400
C 	C 	0.99910 0.46280 0.02610 -0.12500
Zn	Zn	0.39958 0.37280 0.33813 1.22500
O 	O 	0.38500 0.33390 0.40660 -0.47600
O 	O 	0.40980 0.30050 0.34560 -0.51900
C 	C 	0.39630 0.30860 0.40250 0.32300
C 	C 	0.39030 0.28540 0.47880 -0.07700
C 	C 	0.36890 0.29090 0.53510 0.05300
C 	C 	0.36530 0.27050 0.60520 -0.09700
H 	H 	0.35350 0.27370 0.64770 0.06500
C 	C 	0.37990 0.24610 0.60760 0.02500
C 	C 	0.40420 0.24550 0.54760 -0.07700
H 	H 	0.41960 0.23500 0.55690 0.05800
C 	C 	0.40450 0.26090 0.47400 0.00000
H 	H 	0.41300 0.25520 0.42940 0.04300
C 	C 	0.37690 0.22620 0.68690 0.06000
C 	C 	0.37770 0.19250 0.68200 -0.12100
H 	H 	0.37900 0.18240 0.63540 0.07100
C 	C 	0.37080 0.11950 0.69040 -0.08900
H 	H 	0.36060 0.12550 0.64900 0.06200
C 	C 	0.37910 0.08840 0.68280 -0.00200
H 	H 	0.38780 0.08200 0.63950 0.04200
O 	O 	0.37190 0.01720 0.68730 -0.50200
O 	O 	0.43340 0.41500 0.39770 -0.51600
O 	O 	0.48880 0.44430 0.33560 -0.49300
C 	C 	0.46700 0.43850 0.38770 0.38800
C 	C 	0.48180 0.46470 0.46050 0.05300
C 	C 	0.51940 0.49180 0.45180 -0.10300
C 	C 	0.46200 0.48220 0.49140 0.14000
C 	C 	0.48100 0.48320 0.42580 -0.14100
C 	C 	0.51860 0.51030 0.41700 0.14500
C 	C 	0.46280 0.46370 0.52610 -0.12500
Zn	Zn	0.62720 0.02678 0.33813 1.22500
O 	O 	0.66610 0.05110 0.40660 -0.47600
O 	O 	0.69950 0.10930 0.34560 -0.51900
C 	C 	0.69140 0.08770 0.40250 0.32300
C 	C 	0.71460 0.10490 0.47880 -0.07700
C 	C 	0.70910 0.07800 0.53510 0.05300
C 	C 	0.72950 0.09480 0.60520 -0.09700
H 	H 	0.72630 0.07980 0.64770 0.06500
C 	C 	0.75390 0.13380 0.60760 0.02500
C 	C 	0.75450 0.15870 0.54760 -0.07700
H 	H 	0.76500 0.18460 0.55690 0.05800
C 	C 	0.73910 0.14360 0.47400 0.00000
H 	H 	0.74480 0.15780 0.42940 0.04300
C 	C 	0.77380 0.15070 0.68690 0.06000
C 	C 	0.80750 0.18520 0.68200 -0.12100
H 	H 	0.81760 0.19660 0.63540 0.07100
C 	C 	0.88050 0.25130 0.69040 -0.08900
H 	H 	0.87450 0.23510 0.64900 0.06200
C 	C 	0.91160 0.29070 0.68280 -0.00200
H 	H 	0.91800 0.30580 0.63950 0.04200
O 	O 	0.98280 0.35470 0.68730 -0.50200
O 	O 	0.58500 0.01840 0.39770 -0.51600
O 	O 	0.55570 0.04450 0.33560 -0.49300
C 	C 	0.56150 0.02850 0.38770 0.38800
C 	C 	0.53530 0.01710 0.46050 0.05300
C 	C 	0.50820 0.02760 0.45180 -0.10300
C 	C 	0.51780 0.97980 0.49140 0.14000
C 	C 	0.51680 0.99780 0.42580 -0.14200
C 	C 	0.48970 0.00830 0.41700 0.14500
C 	C 	0.53630 0.99910 0.52610 -0.12500
Zn	Zn	0.97322 0.60042 0.33813 1.22500
O 	O 	0.94890 0.61500 0.40660 -0.47600
O 	O 	0.89070 0.59020 0.34560 -0.51900
C 	C 	0.91230 0.60370 0.40250 0.32300
C 	C 	0.89510 0.60970 0.47880 -0.07700
C 	C 	0.92200 0.63110 0.53510 0.05300
C 	C 	0.90520 0.63470 0.60520 -0.09700
H 	H 	0.92020 0.64650 0.64770 0.06500
C 	C 	0.86620 0.62010 0.60760 0.02500
C 	C 	0.84130 0.59580 0.54760 -0.07700
H 	H 	0.81540 0.58040 0.55690 0.05800
C 	C 	0.85640 0.59550 0.47400 0.00000
H 	H 	0.84220 0.58700 0.42940 0.04300
C 	C 	0.84930 0.62310 0.68690 0.06000
C 	C 	0.81480 0.62230 0.68200 -0.12100
H 	H 	0.80340 0.62100 0.63540 0.07100
C 	C 	0.74870 0.62920 0.69040 -0.08900
H 	H 	0.76490 0.63940 0.64900 0.06200
C 	C 	0.70930 0.62090 0.68280 -0.00200
H 	H 	0.69420 0.61220 0.63950 0.04200
O 	O 	0.64530 0.62810 0.68730 -0.50200
O 	O 	0.98160 0.56660 0.39770 -0.51600
O 	O 	0.95550 0.51120 0.33560 -0.49300
C 	C 	0.97150 0.53300 0.38770 0.38800
C 	C 	0.98290 0.51820 0.46050 0.05300
C 	C 	0.97240 0.48060 0.45180 -0.10300
C 	C 	0.02020 0.53800 0.49140 0.14000
C 	C 	0.00220 0.51900 0.42580 -0.14200
C 	C 	0.99170 0.48140 0.41700 0.14500
C 	C 	0.00090 0.53720 0.52610 -0.12500
Zn	Zn	0.42228 0.31999 0.25000 1.22400
Zn	Zn	0.47598 0.40932 0.25000 1.21100
O 	O 	0.42320 0.36870 0.25000 -0.95800
O 	O 	0.51220 0.39330 0.25000 -0.49500
O 	O 	0.47640 0.33600 0.25000 -0.54900
C 	C 	0.50820 0.35890 0.25000 0.48700
C 	C 	0.54250 0.35690 0.25000 -0.21800
C 	C 	0.57940 0.38650 0.25000 0.12100
H 	H 	0.58430 0.41150 0.25000 0.00300
C 	C 	0.60900 0.37930 0.25000 -0.17300
H 	H 	0.63390 0.39930 0.25000 0.09200
C 	C 	0.60170 0.34240 0.25000 0.10900
C 	C 	0.56490 0.31280 0.25000 -0.16700
H 	H 	0.56000 0.28790 0.25000 0.08900
C 	C 	0.53530 0.32010 0.25000 0.10700
H 	H 	0.51030 0.30000 0.25000 0.00200
C 	C 	0.63640 0.33580 0.25000 -0.04300
C 	C 	0.66990 0.36890 0.25000 0.00800
Zn	Zn	0.68001 0.10229 0.25000 1.22400
Zn	Zn	0.59068 0.06666 0.25000 1.21100
O 	O 	0.63130 0.05450 0.25000 -0.95800
O 	O 	0.60670 0.11890 0.25000 -0.49500
O 	O 	0.66400 0.14040 0.25000 -0.54900
C 	C 	0.64110 0.14930 0.25000 0.48700
C 	C 	0.64310 0.18560 0.25000 -0.21800
C 	C 	0.61350 0.19290 0.25000 0.12100
H 	H 	0.58850 0.17280 0.25000 0.00300
C 	C 	0.62070 0.22970 0.25000 -0.17300
H 	H 	0.60070 0.23460 0.25000 0.09200
C 	C 	0.65760 0.25930 0.25000 0.10900
C 	C 	0.68720 0.25210 0.25000 -0.16700
H 	H 	0.71210 0.27210 0.25000 0.08900
C 	C 	0.67990 0.21520 0.25000 0.10700
H 	H 	0.70000 0.21030 0.25000 0.00200
C 	C 	0.66420 0.30060 0.25000 -0.04300
C 	C 	0.63110 0.30100 0.25000 0.00800
Zn	Zn	0.89771 0.57772 0.25000 1.22400
Zn	Zn	0.93334 0.52402 0.25000 1.21100
O 	O 	0.94550 0.57680 0.25000 -0.95800
O 	O 	0.88110 0.48780 0.25000 -0.49500
O 	O 	0.85960 0.52360 0.25000 -0.54900
C 	C 	0.85070 0.49180 0.25000 0.48700
C 	C 	0.81440 0.45750 0.25000 -0.21800
C 	C 	0.80710 0.42060 0.25000 0.12100
H 	H 	0.82720 0.41570 0.25000 0.00300
C 	C 	0.77030 0.39100 0.25000 -0.17300
H 	H 	0.76540 0.36610 0.25000 0.09200
C 	C 	0.74070 0.39830 0.25000 0.10900
C 	C 	0.74790 0.43510 0.25000 -0.16700
H 	H 	0.72790 0.44000 0.25000 0.08900
C 	C 	0.78480 0.46470 0.25000 0.10700
H 	H 	0.78970 0.48970 0.25000 0.00200
C 	C 	0.69940 0.36360 0.25000 -0.04300
C 	C 	0.69900 0.33010 0.25000 0.00800
Zn	Zn	0.57772 0.68001 0.75000 1.22400
Zn	Zn	0.52402 0.59068 0.75000 1.21100
O 	O 	0.57680 0.63130 0.75000 -0.95800
O 	O 	0.48780 0.60670 0.75000 -0.49500
O 	O 	0.52360 0.66400 0.75000 -0.54900
C 	C 	0.49180 0.64110 0.75000 0.48700
C 	C 	0.45750 0.64310 0.75000 -0.21800
C 	C 	0.42060 0.61350 0.75000 0.12100
H 	H 	0.41570 0.58850 0.75000 0.00300
C 	C 	0.39100 0.62070 0.75000 -0.17300
H 	H 	0.36610 0.60070 0.75000 0.09200
C 	C 	0.39830 0.65760 0.75000 0.10900
C 	C 	0.43510 0.68720 0.75000 -0.16700
H 	H 	0.44000 0.71210 0.75000 0.08900
C 	C 	0.46470 0.67990 0.75000 0.10700
H 	H 	0.48970 0.70000 0.75000 0.00200
C 	C 	0.36360 0.66420 0.75000 -0.04300
C 	C 	0.33010 0.63110 0.75000 0.00800
Zn	Zn	0.31999 0.89771 0.75000 1.22400
Zn	Zn	0.40932 0.93334 0.75000 1.21100
O 	O 	0.36870 0.94550 0.75000 -0.95800
O 	O 	0.39330 0.88110 0.75000 -0.49500
O 	O 	0.33600 0.85960 0.75000 -0.54900
C 	C 	0.35890 0.85070 0.75000 0.48700
C 	C 	0.35690 0.81440 0.75000 -0.21800
C 	C 	0.38650 0.80710 0.75000 0.12100
H 	H 	0.41150 0.82720 0.75000 0.00300
C 	C 	0.37930 0.77030 0.75000 -0.17300
H 	H 	0.39930 0.76540 0.75000 0.09200
C 	C 	0.34240 0.74070 0.75000 0.10900
C 	C 	0.31280 0.74790 0.75000 -0.16700
H 	H 	0.28790 0.72790 0.75000 0.08900
C 	C 	0.32010 0.78480 0.75000 0.10700
H 	H 	0.30000 0.78970 0.75000 0.00200
C 	C 	0.33580 0.69940 0.75000 -0.04300
C 	C 	0.36890 0.69900 0.75000 0.00800
Zn	Zn	0.10229 0.42228 0.75000 1.22400
Zn	Zn	0.06666 0.47598 0.75000 1.21100
O 	O 	0.05450 0.42320 0.75000 -0.95800
O 	O 	0.11890 0.51220 0.75000 -0.49500
O 	O 	0.14040 0.47640 0.75000 -0.54900
C 	C 	0.14930 0.50820 0.75000 0.48700
C 	C 	0.18560 0.54250 0.75000 -0.21800
C 	C 	0.19290 0.57940 0.75000 0.12100
H 	H 	0.17280 0.58430 0.75000 0.00300
C 	C 	0.22970 0.60900 0.75000 -0.17300
H 	H 	0.23460 0.63390 0.75000 0.09200
C 	C 	0.25930 0.60170 0.75000 0.10900
C 	C 	0.25210 0.56490 0.75000 -0.16700
H 	H 	0.27210 0.56000 0.75000 0.08900
C 	C 	0.21520 0.53530 0.75000 0.10700
H 	H 	0.21030 0.51030 0.75000 0.00200
C 	C 	0.30060 0.63640 0.75000 -0.04300
C 	C 	0.30100 0.66990 0.75000 0.00800
C 	C 	0.37580 0.24530 0.75000 -0.12900
H 	H 	0.37460 0.26760 0.75000 0.07400
C 	C 	0.37640 0.17470 0.75000 0.04800
C 	C 	0.37700 0.13790 0.75000 0.04400
C 	C 	0.37150 0.07120 0.75000 -0.06200
C 	C 	0.37680 0.03420 0.75000 0.35100
C 	C 	0.75470 0.13050 0.75000 -0.12900
H 	H 	0.73240 0.10700 0.75000 0.07400
C 	C 	0.82530 0.20170 0.75000 0.04800
C 	C 	0.86210 0.23910 0.75000 0.04400
C 	C 	0.92880 0.30030 0.75000 -0.06200
C 	C 	0.96580 0.34260 0.75000 0.35100
C 	C 	0.86950 0.62420 0.75000 -0.12900
H 	H 	0.89300 0.62540 0.75000 0.07400
C 	C 	0.79830 0.62360 0.75000 0.04800
C 	C 	0.76090 0.62300 0.75000 0.04400
C 	C 	0.69970 0.62850 0.75000 -0.06200
C 	C 	0.65740 0.62320 0.75000 0.35100
C 	C 	0.62420 0.75470 0.25000 -0.12900
H 	H 	0.62540 0.73240 0.25000 0.07400
C 	C 	0.62360 0.82530 0.25000 0.04800
C 	C 	0.62300 0.86210 0.25000 0.04400
C 	C 	0.62850 0.92880 0.25000 -0.06200
C 	C 	0.62320 0.96580 0.25000 0.35100
C 	C 	0.24530 0.86950 0.25000 -0.12900
H 	H 	0.26760 0.89300 0.25000 0.07400
C 	C 	0.17470 0.79830 0.25000 0.04800
C 	C 	0.13790 0.76090 0.25000 0.04400
C 	C 	0.07120 0.69970 0.25000 -0.06200
C 	C 	0.03420 0.65740 0.25000 0.35100
C 	C 	0.13050 0.37580 0.25000 -0.12900
H 	H 	0.10700 0.37460 0.25000 0.07400
C 	C 	0.20170 0.37640 0.25000 0.04800
C 	C 	0.23910 0.37700 0.25000 0.04400
C 	C 	0.30030 0.37150 0.25000 -0.06200
C 	C 	0.34260 0.37680 0.25000 0.35100
