data_crystal

_cell_length_a 14.96580
_cell_length_b 18.57460
_cell_length_c 32.52370
_cell_angle_alpha 81.36860
_cell_angle_beta  89.52490
_cell_angle_gamma 68.96680

_symmetry_space_group_name_	'P 1'
_symmetry_space_group_name_H-M	'P 1'

loop_
_symmetry_equiv_pos_as_xyz
  x,y,z

loop_
_atom_site_label
_atom_site_type_symbol
_atom_site_fract_x
_atom_site_fract_y
_atom_site_fract_z
_atom_site_charge
C 	C 	0.99010 0.43740 0.04620 0.06400
H 	H 	0.98830 0.47900 0.06040 -0.00800
C 	C 	0.91020 0.44520 0.02180 -0.11400
H 	H 	0.85430 0.49120 0.01950 0.06700
C 	C 	0.91390 0.38470 0.00090 0.04900
C 	C 	0.99460 0.31850 0.00530 -0.11300
H 	H 	0.99780 0.27610 0.99150 0.07800
C 	C 	0.07110 0.31440 0.02990 0.06100
H 	H 	0.12710 0.26850 0.03280 -0.01000
C 	C 	0.83240 0.39100 0.97280 0.09000
C 	C 	0.55650 0.08570 0.78280 0.05300
C 	C 	0.77750 0.35220 0.91920 0.11200
C 	C 	0.81860 0.14630 0.26590 0.05200
C 	C 	0.68080 0.45500 0.94630 0.09300
C 	C 	0.08100 0.20130 0.20180 0.05800
C 	C 	0.58910 0.52270 0.94440 0.05100
C 	C 	0.56130 0.56280 0.97750 -0.12200
H 	H 	0.59980 0.54690 0.00270 0.07800
C 	C 	0.47590 0.62660 0.97350 0.07500
H 	H 	0.45620 0.65370 0.99650 -0.00700
C 	C 	0.44850 0.61320 0.90630 0.07000
H 	H 	0.40970 0.63120 0.88110 -0.01700
C 	C 	0.53130 0.54850 0.90830 -0.11900
H 	H 	0.54860 0.52170 0.88510 0.08400
C 	C 	0.25460 0.87110 0.85820 0.06600
H 	H 	0.19430 0.86490 0.85740 -0.00000
C 	C 	0.26920 0.92870 0.82970 -0.11800
H 	H 	0.22030 0.96120 0.80950 0.08800
C 	C 	0.35760 0.93740 0.83140 0.04800
C 	C 	0.42590 0.88890 0.86020 -0.12700
H 	H 	0.48680 0.89380 0.86190 0.08400
C 	C 	0.40610 0.83230 0.88700 0.07200
H 	H 	0.45510 0.79770 0.90660 -0.00100
C 	C 	0.37470 0.00050 0.80160 0.09000
C 	C 	0.32760 0.09320 0.74510 0.10200
C 	C 	0.25860 0.13640 0.70910 0.05600
C 	C 	0.27930 0.18890 0.67930 -0.11900
H 	H 	0.33780 0.19750 0.68120 0.08900
C 	C 	0.21410 0.22820 0.64680 0.07500
H 	H 	0.22920 0.26410 0.62660 -0.00500
C 	C 	0.11250 0.16640 0.67020 0.07000
H 	H 	0.05490 0.15700 0.66660 -0.01300
C 	C 	0.17260 0.12500 0.70410 -0.12100
H 	H 	0.15590 0.08920 0.72370 0.07600
C 	C 	0.46610 0.07020 0.78050 0.10700
C 	C 	0.63090 0.03900 0.81120 -0.11100
H 	H 	0.62350 0.99850 0.83090 0.07600
C 	C 	0.71660 0.05270 0.81040 0.06100
H 	H 	0.76820 0.02040 0.82950 -0.01100
C 	C 	0.65630 0.15520 0.75640 0.06600
H 	H 	0.66550 0.19570 0.73740 -0.01300
C 	C 	0.56900 0.14570 0.75490 -0.11500
H 	H 	0.51910 0.17900 0.73540 0.07900
C 	C 	0.74890 0.26310 0.82590 0.07200
H 	H 	0.70390 0.27370 0.80320 -0.01700
C 	C 	0.72890 0.31260 0.85520 -0.11400
H 	H 	0.66980 0.35560 0.85310 0.08200
C 	C 	0.79510 0.29970 0.88770 0.06000
C 	C 	0.87930 0.23570 0.88970 -0.11200
H 	H 	0.92700 0.22560 0.91110 0.08300
C 	C 	0.89330 0.18670 0.86060 0.06600
H 	H 	0.94990 0.14130 0.86310 -0.01100
C 	C 	0.08860 0.41060 0.54780 0.07200
H 	H 	0.04730 0.44450 0.56480 -0.01000
C 	C 	0.15970 0.28860 0.53140 0.06700
H 	H 	0.16940 0.23460 0.53670 -0.01100
C 	C 	0.20780 0.31490 0.49970 -0.11400
H 	H 	0.25020 0.27970 0.48370 0.08100
C 	C 	0.19280 0.39400 0.49190 0.05300
C 	C 	0.13430 0.44200 0.51660 -0.12100
H 	H 	0.12490 0.49600 0.51260 0.07400
C 	C 	0.24300 0.42360 0.45740 0.10400
C 	C 	0.29810 0.51490 0.42650 0.10300
C 	C 	0.31960 0.40680 0.39790 0.10700
C 	C 	0.35790 0.35800 0.36510 0.05400
C 	C 	0.39080 0.38620 0.32880 -0.11700
H 	H 	0.38890 0.43840 0.32390 0.08200
C 	C 	0.42630 0.33770 0.29990 0.06800
H 	H 	0.44820 0.35780 0.27480 -0.01300
C 	C 	0.40090 0.23550 0.34140 0.06500
H 	H 	0.40630 0.18230 0.34620 -0.00700
C 	C 	0.36320 0.28020 0.37080 -0.11700
H 	H 	0.34040 0.25910 0.39530 0.08000
C 	C 	0.68520 0.11030 0.28690 0.06600
H 	H 	0.66090 0.07510 0.30320 -0.00700
C 	C 	0.78180 0.09590 0.29030 -0.11400
H 	H 	0.82290 0.05220 0.30890 0.07900
C 	C 	0.75490 0.20980 0.24040 -0.11400
H 	H 	0.77770 0.24550 0.22370 0.08000
C 	C 	0.65880 0.22180 0.23870 0.05900
H 	H 	0.61630 0.26610 0.22100 -0.01200
C 	C 	0.92310 0.13100 0.26640 0.10500
C 	C 	0.04540 0.15580 0.23500 0.10400
C 	C 	0.07450 0.06010 0.29010 0.09200
C 	C 	0.01880 0.27020 0.18000 -0.11500
H 	H 	0.95330 0.28990 0.18650 0.09100
C 	C 	0.05310 0.31040 0.14830 0.07300
H 	H 	0.01010 0.35810 0.13330 -0.00700
C 	C 	0.20540 0.21780 0.15980 0.07000
H 	H 	0.27060 0.19950 0.15270 -0.00900
C 	C 	0.17690 0.17440 0.19210 -0.12300
H 	H 	0.22160 0.12770 0.20710 0.07900
C 	C 	0.14510 0.00070 0.32050 0.03800
C 	C 	0.24210 0.98480 0.31690 -0.11100
H 	H 	0.26400 0.01020 0.29360 0.08500
C 	C 	0.30730 0.93240 0.34670 0.06100
H 	H 	0.37380 0.92140 0.34350 0.00000
C 	C 	0.11690 0.96140 0.35460 -0.10500
H 	H 	0.05100 0.96910 0.35760 0.08100
C 	C 	0.18510 0.91080 0.38400 0.06200
H 	H 	0.16480 0.88520 0.40760 0.00000
C 	C 	0.30370 0.69770 0.45910 0.06700
H 	H 	0.28520 0.72490 0.48220 -0.00500
C 	C 	0.28550 0.62970 0.45910 -0.12500
H 	H 	0.25380 0.61150 0.48140 0.07800
C 	C 	0.31370 0.58910 0.42650 0.05300
C 	C 	0.35820 0.61830 0.39430 -0.12100
H 	H 	0.37790 0.59190 0.37110 0.08400
C 	C 	0.37330 0.68630 0.39650 0.07400
H 	H 	0.40470 0.70570 0.37440 -0.01800
I 	I 	0.33428 0.26725 0.05966 -0.37300
I 	I 	0.44371 0.07104 0.28353 -0.37200
I 	I 	0.16649 0.70610 0.90003 -0.37800
I 	I 	0.16132 0.47519 0.12244 -0.35200
I 	I 	0.26733 0.80418 0.99893 -0.36200
I 	I 	0.86324 0.20351 0.71203 -0.39800
I 	I 	0.40768 0.28288 0.19027 -0.41000
I 	I 	0.54289 0.81172 0.41267 -0.38500
I 	I 	0.29824 0.88314 0.49428 -0.35600
I 	I 	0.91937 0.39913 0.63397 -0.35500
N 	N 	0.69240 0.40890 0.91785 -0.13600
N 	N 	0.85010 0.34050 0.94604 -0.13500
N 	N 	0.74750 0.44900 0.97572 -0.14600
N 	N 	0.42080 0.65140 0.93868 -0.27500
N 	N 	0.06960 0.37300 0.05026 -0.26800
N 	N 	0.83000 0.20070 0.82850 -0.27300
N 	N 	0.11110 0.09720 0.25985 -0.14200
N 	N 	0.95110 0.17700 0.23742 -0.13500
N 	N 	0.98140 0.07280 0.29389 -0.13900
N 	N 	0.27890 0.89640 0.38051 -0.27100
N 	N 	0.62330 0.17220 0.26165 -0.27100
N 	N 	0.14480 0.28440 0.13804 -0.26700
N 	N 	0.40370 0.11340 0.74882 -0.13500
N 	N 	0.30960 0.03620 0.77012 -0.14100
N 	N 	0.45360 0.01510 0.80845 -0.14100
N 	N 	0.72790 0.11030 0.78335 -0.27000
N 	N 	0.32160 0.82390 0.88675 -0.27200
N 	N 	0.12990 0.21900 0.64190 -0.27700
N 	N 	0.25260 0.49170 0.45830 -0.14400
N 	N 	0.33240 0.47500 0.39536 -0.13400
N 	N 	0.27590 0.37810 0.42849 -0.13900
N 	N 	0.09990 0.33610 0.55490 -0.27500
N 	N 	0.43140 0.26300 0.30535 -0.27200
N 	N 	0.34610 0.72680 0.42810 -0.27600
Zn	Zn	0.18473 0.35343 0.09111 1.16500
Zn	Zn	0.29307 0.74498 0.93217 1.16400
Zn	Zn	0.85671 0.12913 0.78341 1.16200
Zn	Zn	0.37117 0.82829 0.42928 1.16400
Zn	Zn	0.47778 0.19579 0.25879 1.16400
Zn	Zn	0.02543 0.28900 0.59819 1.16200
I 	I 	0.97540 0.19590 0.55802 -0.28500
I 	I 	0.99790 0.00163 0.81154 -0.27900
I 	I 	0.95760 0.21270 0.56460 -0.05400
I 	I 	0.97140 0.00720 0.81170 -0.07200
C 	C 	0.00990 0.56260 0.95380 0.06500
H 	H 	0.01170 0.52100 0.93960 -0.00700
C 	C 	0.08980 0.55480 0.97820 -0.11300
H 	H 	0.14570 0.50880 0.98050 0.06800
C 	C 	0.08610 0.61530 0.99910 0.05000
C 	C 	0.00540 0.68150 0.99470 -0.11200
H 	H 	0.00220 0.72390 0.00850 0.07900
C 	C 	0.92890 0.68560 0.97010 0.06200
H 	H 	0.87290 0.73150 0.96720 -0.01000
C 	C 	0.16760 0.60900 0.02720 0.09000
C 	C 	0.44350 0.91430 0.21720 0.05300
C 	C 	0.22250 0.64780 0.08080 0.11200
C 	C 	0.18140 0.85370 0.73410 0.05200
C 	C 	0.31920 0.54500 0.05370 0.09300
C 	C 	0.91900 0.79870 0.79820 0.05800
C 	C 	0.41090 0.47730 0.05560 0.05100
C 	C 	0.43870 0.43720 0.02250 -0.12200
H 	H 	0.40020 0.45310 0.99730 0.07800
C 	C 	0.52410 0.37340 0.02650 0.07500
H 	H 	0.54380 0.34630 0.00350 -0.00700
C 	C 	0.55150 0.38680 0.09370 0.07000
H 	H 	0.59030 0.36880 0.11890 -0.01700
C 	C 	0.46870 0.45150 0.09170 -0.11900
H 	H 	0.45140 0.47830 0.11490 0.08400
C 	C 	0.74540 0.12890 0.14180 0.06600
H 	H 	0.80570 0.13510 0.14260 -0.00000
C 	C 	0.73080 0.07130 0.17030 -0.11800
H 	H 	0.77970 0.03880 0.19050 0.08800
C 	C 	0.64240 0.06260 0.16860 0.04800
C 	C 	0.57410 0.11110 0.13980 -0.12700
H 	H 	0.51320 0.10620 0.13810 0.08400
C 	C 	0.59390 0.16770 0.11300 0.07200
H 	H 	0.54490 0.20230 0.09340 -0.00100
C 	C 	0.62530 0.99950 0.19840 0.09000
C 	C 	0.67240 0.90680 0.25490 0.10200
C 	C 	0.74140 0.86360 0.29090 0.05600
C 	C 	0.72070 0.81110 0.32070 -0.11900
H 	H 	0.66220 0.80250 0.31880 0.08900
C 	C 	0.78590 0.77180 0.35320 0.07500
H 	H 	0.77080 0.73590 0.37340 -0.00500
C 	C 	0.88750 0.83360 0.32980 0.07000
H 	H 	0.94510 0.84300 0.33340 -0.01300
C 	C 	0.82740 0.87500 0.29590 -0.12100
H 	H 	0.84410 0.91080 0.27630 0.07600
C 	C 	0.53390 0.92980 0.21950 0.10700
C 	C 	0.36910 0.96100 0.18880 -0.11100
H 	H 	0.37650 0.00150 0.16910 0.07600
C 	C 	0.28340 0.94730 0.18960 0.06100
H 	H 	0.23180 0.97960 0.17050 -0.01100
C 	C 	0.34370 0.84480 0.24360 0.06600
H 	H 	0.33450 0.80430 0.26260 -0.01300
C 	C 	0.43100 0.85430 0.24510 -0.11500
H 	H 	0.48090 0.82100 0.26460 0.07900
C 	C 	0.25110 0.73690 0.17410 0.07200
H 	H 	0.29610 0.72630 0.19680 -0.01700
C 	C 	0.27110 0.68740 0.14480 -0.11400
H 	H 	0.33020 0.64440 0.14690 0.08200
C 	C 	0.20490 0.70030 0.11230 0.06000
C 	C 	0.12070 0.76430 0.11030 -0.11200
H 	H 	0.07300 0.77440 0.08890 0.08300
C 	C 	0.10670 0.81330 0.13940 0.06600
H 	H 	0.05010 0.85870 0.13690 -0.01100
C 	C 	0.91140 0.58940 0.45220 0.07200
H 	H 	0.95270 0.55550 0.43520 -0.01000
C 	C 	0.84030 0.71140 0.46860 0.06700
H 	H 	0.83060 0.76540 0.46330 -0.01100
C 	C 	0.79220 0.68510 0.50030 -0.11400
H 	H 	0.74980 0.72030 0.51630 0.08100
C 	C 	0.80720 0.60600 0.50810 0.05300
C 	C 	0.86570 0.55800 0.48340 -0.12100
H 	H 	0.87510 0.50400 0.48740 0.07400
C 	C 	0.75700 0.57640 0.54260 0.10400
C 	C 	0.70190 0.48510 0.57350 0.10300
C 	C 	0.68040 0.59320 0.60210 0.10700
C 	C 	0.64210 0.64200 0.63490 0.05400
C 	C 	0.60920 0.61380 0.67120 -0.11700
H 	H 	0.61110 0.56160 0.67610 0.08200
C 	C 	0.57370 0.66230 0.70010 0.06800
H 	H 	0.55180 0.64220 0.72520 -0.01300
C 	C 	0.59910 0.76450 0.65860 0.06500
H 	H 	0.59370 0.81770 0.65380 -0.00700
C 	C 	0.63680 0.71980 0.62920 -0.11700
H 	H 	0.65960 0.74090 0.60470 0.08000
C 	C 	0.31480 0.88970 0.71310 0.06600
H 	H 	0.33910 0.92490 0.69680 -0.00700
C 	C 	0.21820 0.90410 0.70970 -0.11400
H 	H 	0.17710 0.94780 0.69110 0.07900
C 	C 	0.24510 0.79020 0.75960 -0.11400
H 	H 	0.22230 0.75450 0.77630 0.08000
C 	C 	0.34120 0.77820 0.76130 0.05900
H 	H 	0.38370 0.73390 0.77900 -0.01200
C 	C 	0.07690 0.86900 0.73360 0.10500
C 	C 	0.95460 0.84420 0.76500 0.10400
C 	C 	0.92550 0.93990 0.70990 0.09200
C 	C 	0.98120 0.72980 0.82000 -0.11500
H 	H 	0.04670 0.71010 0.81350 0.09100
C 	C 	0.94690 0.68960 0.85170 0.07300
H 	H 	0.98990 0.64190 0.86670 -0.00700
C 	C 	0.79460 0.78220 0.84020 0.07000
H 	H 	0.72940 0.80050 0.84730 -0.00900
C 	C 	0.82310 0.82560 0.80790 -0.12300
H 	H 	0.77840 0.87230 0.79290 0.07900
C 	C 	0.85490 0.99930 0.67950 0.03800
C 	C 	0.75790 0.01520 0.68310 -0.11100
H 	H 	0.73600 0.98980 0.70640 0.08500
C 	C 	0.69270 0.06760 0.65330 0.06100
H 	H 	0.62620 0.07860 0.65650 0.00000
C 	C 	0.88310 0.03860 0.64540 -0.10500
H 	H 	0.94900 0.03090 0.64240 0.08100
C 	C 	0.81490 0.08920 0.61600 0.06200
H 	H 	0.83520 0.11480 0.59240 0.00000
C 	C 	0.69630 0.30230 0.54090 0.06700
H 	H 	0.71480 0.27510 0.51780 -0.00500
C 	C 	0.71450 0.37030 0.54090 -0.12500
H 	H 	0.74620 0.38850 0.51860 0.07800
C 	C 	0.68630 0.41090 0.57350 0.05300
C 	C 	0.64180 0.38170 0.60570 -0.12100
H 	H 	0.62210 0.40810 0.62890 0.08400
C 	C 	0.62670 0.31370 0.60350 0.07400
H 	H 	0.59530 0.29430 0.62560 -0.01800
I 	I 	0.66572 0.73275 0.94034 -0.37300
I 	I 	0.55629 0.92896 0.71647 -0.37200
I 	I 	0.83351 0.29390 0.09997 -0.37800
I 	I 	0.83868 0.52481 0.87756 -0.35200
I 	I 	0.73267 0.19582 0.00107 -0.36200
I 	I 	0.13676 0.79649 0.28797 -0.39800
I 	I 	0.59232 0.71712 0.80973 -0.41000
I 	I 	0.45711 0.18828 0.58733 -0.38500
I 	I 	0.70176 0.11686 0.50572 -0.35600
I 	I 	0.08063 0.60087 0.36603 -0.35500
N 	N 	0.30760 0.59110 0.08215 -0.13600
N 	N 	0.14990 0.65950 0.05396 -0.13500
N 	N 	0.25250 0.55100 0.02428 -0.14600
N 	N 	0.57920 0.34860 0.06132 -0.27500
N 	N 	0.93040 0.62700 0.94974 -0.26800
N 	N 	0.17000 0.79930 0.17150 -0.27300
N 	N 	0.88890 0.90280 0.74015 -0.14200
N 	N 	0.04890 0.82300 0.76258 -0.13500
N 	N 	0.01860 0.92720 0.70611 -0.13900
N 	N 	0.72110 0.10360 0.61949 -0.27100
N 	N 	0.37670 0.82780 0.73835 -0.27100
N 	N 	0.85520 0.71560 0.86196 -0.26700
N 	N 	0.59630 0.88660 0.25118 -0.13500
N 	N 	0.69040 0.96380 0.22988 -0.14100
N 	N 	0.54640 0.98490 0.19155 -0.14100
N 	N 	0.27210 0.88970 0.21665 -0.27000
N 	N 	0.67840 0.17610 0.11325 -0.27200
N 	N 	0.87010 0.78100 0.35810 -0.27700
N 	N 	0.74740 0.50830 0.54170 -0.14400
N 	N 	0.66760 0.52500 0.60464 -0.13400
N 	N 	0.72410 0.62190 0.57151 -0.13900
N 	N 	0.90010 0.66390 0.44510 -0.27500
N 	N 	0.56860 0.73700 0.69465 -0.27200
N 	N 	0.65390 0.27320 0.57190 -0.27600
Zn	Zn	0.81527 0.64657 0.90889 1.16500
Zn	Zn	0.70693 0.25502 0.06783 1.16400
Zn	Zn	0.14329 0.87087 0.21659 1.16200
Zn	Zn	0.62883 0.17171 0.57072 1.16400
Zn	Zn	0.52222 0.80421 0.74121 1.16400
Zn	Zn	0.97457 0.71100 0.40181 1.16200
I 	I 	0.02460 0.80410 0.44198 -0.28500
I 	I 	0.00210 0.99837 0.18846 -0.27900
I 	I 	0.04240 0.78730 0.43540 -0.05400
I 	I 	0.02860 0.99280 0.18830 -0.07200
