data_crystal

_cell_length_a 16.41660
_cell_length_b 16.41660
_cell_length_c 16.41660
_cell_angle_alpha 96.06430
_cell_angle_beta  116.56300
_cell_angle_gamma 116.56300

_symmetry_space_group_name_	'P 1'
_symmetry_space_group_name_H-M	'P 1'

loop_
_symmetry_equiv_pos_as_xyz
  x,y,z

loop_
_atom_site_label
_atom_site_type_symbol
_atom_site_fract_x
_atom_site_fract_y
_atom_site_fract_z
_atom_site_charge
H 	H 	0.50460 0.46150 0.19770 0.05400
H 	H 	0.44280 0.47420 0.30200 0.05100
H 	H 	0.53200 0.62690 0.42130 0.08400
H 	H 	0.68120 0.75910 0.44230 -0.00100
Pb	Pb	0.82508 0.84658 0.33106 1.23000
C 	C 	0.68430 0.51640 0.00590 0.27200
C 	C 	0.69750 0.57510 0.09100 -0.05200
C 	C 	0.76850 0.67520 0.14590 -0.03900
C 	C 	0.67010 0.60850 0.20100 0.06300
C 	C 	0.84710 0.75960 0.13930 0.28700
C 	C 	0.62920 0.60540 0.26360 0.03200
C 	C 	0.53950 0.52130 0.24740 -0.08200
C 	C 	0.50230 0.52920 0.30950 0.03200
C 	C 	0.55600 0.61980 0.38100 -0.11400
C 	C 	0.64480 0.69910 0.39230 0.08100
N 	N 	0.63530 0.53300 0.12510 -0.19100
N 	N 	0.75070 0.69470 0.21660 -0.21300
N 	N 	0.68200 0.69540 0.33640 -0.19600
O 	O 	0.61970 0.42790 0.96640 -0.36100
O 	O 	0.74530 0.56450 0.97500 -0.18900
O 	O 	0.86440 0.74520 0.07420 -0.28900
O 	O 	0.89110 0.84310 0.20080 -0.46400
H 	H 	0.99540 0.19310 0.95690 0.04400
H 	H 	0.05720 0.35920 0.03140 0.07300
H 	H 	0.96800 0.38930 0.09490 0.07100
H 	H 	0.81880 0.26110 0.07790 0.00500
Pb	Pb	0.67492 0.00598 0.02150 1.23000
C 	C 	0.81570 0.82160 0.83210 0.28100
C 	C 	0.80250 0.89350 0.87760 -0.05300
C 	C 	0.73150 0.87740 0.90670 -0.03600
C 	C 	0.82990 0.03090 0.93840 0.06800
C 	C 	0.65290 0.79220 0.91250 0.28700
C 	C 	0.87080 0.13440 0.97620 0.02500
C 	C 	0.96050 0.20790 0.98180 -0.04900
C 	C 	0.99770 0.30720 0.02690 -0.01700
C 	C 	0.94400 0.32500 0.06380 -0.08500
C 	C 	0.85520 0.24750 0.05430 0.06300
N 	N 	0.86470 0.98980 0.89770 -0.19100
N 	N 	0.74930 0.96590 0.94400 -0.21300
N 	N 	0.81800 0.15440 0.01340 -0.19400
O 	O 	0.88030 0.84670 0.80820 -0.36400
O 	O 	0.75470 0.72970 0.81920 -0.19400
O 	O 	0.63560 0.70980 0.88080 -0.28400
O 	O 	0.60890 0.80970 0.95200 -0.46000
H 	H 	0.73620 0.19770 0.19310 0.05300
H 	H 	0.82780 0.30200 0.35920 0.05000
H 	H 	0.79440 0.42130 0.38930 0.08400
H 	H 	0.68320 0.44230 0.26110 -0.00100
Pb	Pb	0.48448 0.33106 0.00598 1.23100
C 	C 	0.48950 0.00590 0.82160 0.28000
C 	C 	0.51590 0.09100 0.89350 -0.05400
C 	C 	0.47070 0.14590 0.87740 -0.03700
C 	C 	0.59250 0.20100 0.03090 0.06200
C 	C 	0.37970 0.13930 0.79220 0.28700
C 	C 	0.65820 0.26360 0.13440 0.03200
C 	C 	0.72610 0.24740 0.20790 -0.08200
C 	C 	0.78030 0.30950 0.30720 0.03200
C 	C 	0.76120 0.38100 0.32500 -0.11400
C 	C 	0.69320 0.39230 0.24750 0.08000
N 	N 	0.59210 0.12510 0.98980 -0.18900
N 	N 	0.52190 0.21660 0.96590 -0.21300
N 	N 	0.64100 0.33640 0.15440 -0.19600
O 	O 	0.53850 0.96640 0.84670 -0.36500
O 	O 	0.41050 0.97500 0.72970 -0.19400
O 	O 	0.32900 0.07420 0.70980 -0.28500
O 	O 	0.35770 0.20080 0.80970 -0.46200
H 	H 	0.76380 0.95690 0.46150 0.05300
H 	H 	0.67220 0.03140 0.47420 0.05000
H 	H 	0.70560 0.09490 0.62690 0.08400
H 	H 	0.81680 0.07790 0.75910 -0.00000
Pb	Pb	0.01552 0.02150 0.84658 1.22700
C 	C 	0.01050 0.83210 0.51640 0.28200
C 	C 	0.98410 0.87760 0.57510 -0.05300
C 	C 	0.02930 0.90670 0.67520 -0.03900
C 	C 	0.90750 0.93840 0.60850 0.06400
C 	C 	0.12030 0.91250 0.75960 0.28800
C 	C 	0.84180 0.97620 0.60540 0.03200
C 	C 	0.77390 0.98180 0.52130 -0.08300
C 	C 	0.71970 0.02690 0.52920 0.03400
C 	C 	0.73880 0.06380 0.61980 -0.11500
C 	C 	0.80680 0.05430 0.69910 0.08200
N 	N 	0.90790 0.89770 0.53300 -0.19100
N 	N 	0.97810 0.94400 0.69470 -0.21100
N 	N 	0.85900 0.01340 0.69540 -0.19400
O 	O 	0.96150 0.80820 0.42790 -0.36700
O 	O 	0.08950 0.81920 0.56450 -0.19500
O 	O 	0.17100 0.88080 0.74520 -0.28500
O 	O 	0.14230 0.95200 0.84310 -0.46300
H 	H 	0.49540 0.53850 0.80230 0.05300
H 	H 	0.55720 0.52580 0.69800 0.05000
H 	H 	0.46800 0.37310 0.57870 0.08400
H 	H 	0.31880 0.24090 0.55770 -0.00100
Pb	Pb	0.17492 0.15342 0.66894 1.23000
C 	C 	0.31570 0.48360 0.99410 0.27200
C 	C 	0.30250 0.42490 0.90900 -0.05200
C 	C 	0.23150 0.32480 0.85410 -0.03900
C 	C 	0.32990 0.39150 0.79900 0.06300
C 	C 	0.15290 0.24040 0.86070 0.28700
C 	C 	0.37080 0.39460 0.73640 0.03200
C 	C 	0.46050 0.47870 0.75260 -0.08200
C 	C 	0.49770 0.47080 0.69050 0.03200
C 	C 	0.44400 0.38020 0.61900 -0.11400
C 	C 	0.35520 0.30090 0.60770 0.08100
N 	N 	0.36470 0.46700 0.87490 -0.19100
N 	N 	0.24930 0.30530 0.78340 -0.21300
N 	N 	0.31800 0.30460 0.66360 -0.19600
O 	O 	0.38030 0.57210 0.03360 -0.36100
O 	O 	0.25470 0.43550 0.02500 -0.18900
O 	O 	0.13560 0.25480 0.92580 -0.28900
O 	O 	0.10890 0.15690 0.79920 -0.46400
H 	H 	0.00460 0.80690 0.04310 0.04400
H 	H 	0.94280 0.64080 0.96860 0.07300
H 	H 	0.03200 0.61070 0.90510 0.07100
H 	H 	0.18120 0.73890 0.92210 0.00500
Pb	Pb	0.32508 0.99402 0.97850 1.23000
C 	C 	0.18430 0.17840 0.16790 0.28100
C 	C 	0.19750 0.10650 0.12240 -0.05300
C 	C 	0.26850 0.12260 0.09330 -0.03600
C 	C 	0.17010 0.96910 0.06160 0.06800
C 	C 	0.34710 0.20780 0.08750 0.28700
C 	C 	0.12920 0.86560 0.02380 0.02500
C 	C 	0.03950 0.79210 0.01820 -0.04900
C 	C 	0.00230 0.69280 0.97310 -0.01700
C 	C 	0.05600 0.67500 0.93620 -0.08500
C 	C 	0.14480 0.75250 0.94570 0.06300
N 	N 	0.13530 0.01020 0.10230 -0.19100
N 	N 	0.25070 0.03410 0.05600 -0.21300
N 	N 	0.18200 0.84560 0.98660 -0.19400
O 	O 	0.11970 0.15330 0.19180 -0.36400
O 	O 	0.24530 0.27030 0.18080 -0.19400
O 	O 	0.36440 0.29020 0.11920 -0.28400
O 	O 	0.39110 0.19030 0.04800 -0.46000
H 	H 	0.26380 0.80230 0.80690 0.05300
H 	H 	0.17220 0.69800 0.64080 0.05000
H 	H 	0.20560 0.57870 0.61070 0.08400
H 	H 	0.31680 0.55770 0.73890 -0.00100
Pb	Pb	0.51552 0.66894 0.99402 1.23100
C 	C 	0.51050 0.99410 0.17840 0.28000
C 	C 	0.48410 0.90900 0.10650 -0.05400
C 	C 	0.52930 0.85410 0.12260 -0.03700
C 	C 	0.40750 0.79900 0.96910 0.06200
C 	C 	0.62030 0.86070 0.20780 0.28700
C 	C 	0.34180 0.73640 0.86560 0.03200
C 	C 	0.27390 0.75260 0.79210 -0.08200
C 	C 	0.21970 0.69050 0.69280 0.03200
C 	C 	0.23880 0.61900 0.67500 -0.11400
C 	C 	0.30680 0.60770 0.75250 0.08000
N 	N 	0.40790 0.87490 0.01020 -0.18900
N 	N 	0.47810 0.78340 0.03410 -0.21300
N 	N 	0.35900 0.66360 0.84560 -0.19600
O 	O 	0.46150 0.03360 0.15330 -0.36500
O 	O 	0.58950 0.02500 0.27030 -0.19400
O 	O 	0.67100 0.92580 0.29020 -0.28500
O 	O 	0.64230 0.79920 0.19030 -0.46200
H 	H 	0.23620 0.04310 0.53850 0.05300
H 	H 	0.32780 0.96860 0.52580 0.05000
H 	H 	0.29440 0.90510 0.37310 0.08400
H 	H 	0.18320 0.92210 0.24090 -0.00000
Pb	Pb	0.98448 0.97850 0.15342 1.22700
C 	C 	0.98950 0.16790 0.48360 0.28200
C 	C 	0.01590 0.12240 0.42490 -0.05300
C 	C 	0.97070 0.09330 0.32480 -0.03900
C 	C 	0.09250 0.06160 0.39150 0.06400
C 	C 	0.87970 0.08750 0.24040 0.28800
C 	C 	0.15820 0.02380 0.39460 0.03200
C 	C 	0.22610 0.01820 0.47870 -0.08300
C 	C 	0.28030 0.97310 0.47080 0.03400
C 	C 	0.26120 0.93620 0.38020 -0.11500
C 	C 	0.19320 0.94570 0.30090 0.08200
N 	N 	0.09210 0.10230 0.46700 -0.19100
N 	N 	0.02190 0.05600 0.30530 -0.21100
N 	N 	0.14100 0.98660 0.30460 -0.19400
O 	O 	0.03850 0.19180 0.57210 -0.36700
O 	O 	0.91050 0.18080 0.43550 -0.19500
O 	O 	0.82900 0.11920 0.25480 -0.28500
O 	O 	0.85770 0.04800 0.15690 -0.46300
