data_crystal

_cell_length_a 9.89050
_cell_length_b 16.88090
_cell_length_c 7.20310
_cell_angle_alpha 90.00000
_cell_angle_beta  70.71430
_cell_angle_gamma 90.00000

_symmetry_space_group_name_	'P 1'
_symmetry_space_group_name_H-M	'P 1'

loop_
_symmetry_equiv_pos_as_xyz
  x,y,z

loop_
_atom_site_label
_atom_site_type_symbol
_atom_site_fract_x
_atom_site_fract_y
_atom_site_fract_z
_atom_site_charge
C 	C 	0.83987 0.76513 0.81967 0.08700
C 	C 	0.73530 0.71677 0.95103 -0.13900
C 	C 	0.61125 0.75388 0.08209 0.10300
C 	C 	0.60072 0.83778 0.09181 -0.12400
C 	C 	0.71526 0.88287 0.97879 0.08600
C 	C 	0.82991 0.84854 0.83229 -0.10600
C 	C 	0.93762 0.89754 0.69235 0.24700
C 	C 	0.47403 0.87717 0.23077 0.28500
C 	C 	0.74533 0.62811 0.94078 0.33700
O 	O 	0.06650 0.87480 0.69070 -0.46200
O 	O 	0.89690 0.97800 0.69410 -0.51400
O 	O 	0.84780 0.58170 0.84450 -0.43900
O 	O 	0.65200 0.58400 0.06670 -0.42100
O 	O 	0.38700 0.84200 0.37970 -0.41400
O 	O 	0.45760 0.95360 0.21110 -0.40300
Bi	Bi	0.22158 0.95928 0.47356 1.88500
C 	C 	0.16013 0.26513 0.68033 0.08300
C 	C 	0.26470 0.21677 0.54897 -0.14000
C 	C 	0.38875 0.25388 0.41791 0.10100
C 	C 	0.39928 0.33778 0.40819 -0.12300
C 	C 	0.28474 0.38287 0.52121 0.08200
C 	C 	0.17009 0.34854 0.66771 -0.10400
C 	C 	0.06238 0.39754 0.80765 0.23800
C 	C 	0.52597 0.37717 0.26923 0.28400
C 	C 	0.25467 0.12811 0.55922 0.33400
O 	O 	0.93350 0.37480 0.80930 -0.45400
O 	O 	0.10310 0.47800 0.80590 -0.51600
O 	O 	0.15220 0.08170 0.65550 -0.44000
O 	O 	0.34800 0.08400 0.43330 -0.42000
O 	O 	0.61300 0.34200 0.12030 -0.41400
O 	O 	0.54240 0.45360 0.28890 -0.40300
Bi	Bi	0.77842 0.45928 0.02644 1.88600
C 	C 	0.16013 0.23487 0.18033 0.08600
C 	C 	0.26470 0.28323 0.04897 -0.14000
C 	C 	0.38875 0.24612 0.91791 0.10200
C 	C 	0.39928 0.16222 0.90819 -0.12500
C 	C 	0.28474 0.11713 0.02121 0.08600
C 	C 	0.17009 0.15146 0.16771 -0.10600
C 	C 	0.06238 0.10246 0.30765 0.24700
C 	C 	0.52597 0.12283 0.76923 0.28500
C 	C 	0.25467 0.37189 0.05922 0.33700
O 	O 	0.93350 0.12520 0.30930 -0.46200
O 	O 	0.10310 0.02200 0.30590 -0.51400
O 	O 	0.15220 0.41830 0.15550 -0.43900
O 	O 	0.34800 0.41600 0.93330 -0.42100
O 	O 	0.61300 0.15800 0.62030 -0.41400
O 	O 	0.54240 0.04640 0.78890 -0.40300
Bi	Bi	0.77842 0.04072 0.52644 1.88500
C 	C 	0.83987 0.73487 0.31967 0.08300
C 	C 	0.73530 0.78323 0.45103 -0.14000
C 	C 	0.61125 0.74612 0.58209 0.10100
C 	C 	0.60072 0.66222 0.59181 -0.12300
C 	C 	0.71526 0.61713 0.47879 0.08200
C 	C 	0.82991 0.65146 0.33229 -0.10400
C 	C 	0.93762 0.60246 0.19235 0.23800
C 	C 	0.47403 0.62283 0.73077 0.28400
C 	C 	0.74533 0.87189 0.44078 0.33400
O 	O 	0.06650 0.62520 0.19070 -0.45400
O 	O 	0.89690 0.52200 0.19410 -0.51600
O 	O 	0.84780 0.91830 0.34450 -0.44000
O 	O 	0.65200 0.91600 0.56670 -0.42000
O 	O 	0.38700 0.65800 0.87970 -0.41400
O 	O 	0.45760 0.54640 0.71110 -0.40300
Bi	Bi	0.22158 0.54072 0.97356 1.88600
