data_crystal

_cell_length_a 10.62800
_cell_length_b 12.12700
_cell_length_c 25.05500
_cell_angle_alpha 90.00000
_cell_angle_beta  90.00000
_cell_angle_gamma 90.23000

_symmetry_space_group_name_	'P 1'
_symmetry_space_group_name_H-M	'P 1'

loop_
_symmetry_equiv_pos_as_xyz
  x,y,z

loop_
_atom_site_label
_atom_site_type_symbol
_atom_site_fract_x
_atom_site_fract_y
_atom_site_fract_z
_atom_site_charge
Bi	Bi	0.86000 0.07803 0.00566 1.76800
Bi	Bi	0.14937 0.26576 0.98564 1.83200
Bi	Bi	0.86022 0.41591 0.01384 1.82700
Bi	Bi	0.01431 0.09681 0.87130 1.80500
Bi	Bi	0.97782 0.26776 0.12722 1.77200
Bi	Bi	0.02419 0.40790 0.86693 1.87600
Bi	Bi	0.64000 0.92197 0.50566 1.77000
Bi	Bi	0.35063 0.73424 0.48564 1.83100
Bi	Bi	0.63978 0.58409 0.51384 1.82700
Bi	Bi	0.48569 0.90319 0.37130 1.80600
Bi	Bi	0.52218 0.73224 0.62722 1.77400
Bi	Bi	0.47581 0.59210 0.36693 1.87700
Bi	Bi	0.14000 0.92197 0.99434 1.76900
Bi	Bi	0.85063 0.73424 0.01436 1.83300
Bi	Bi	0.13978 0.58409 0.98616 1.82800
Bi	Bi	0.98569 0.90319 0.12870 1.80600
Bi	Bi	0.02218 0.73224 0.87278 1.77300
Bi	Bi	0.97581 0.59210 0.13307 1.87700
Bi	Bi	0.36000 0.07803 0.49434 1.77100
Bi	Bi	0.64937 0.26576 0.51436 1.83200
Bi	Bi	0.36022 0.41591 0.48616 1.82800
Bi	Bi	0.51431 0.09681 0.62870 1.80700
Bi	Bi	0.47782 0.26776 0.37278 1.77500
Bi	Bi	0.52419 0.40790 0.63307 1.87800
H 	H 	0.28770 0.34930 0.19590 -0.01900
H 	H 	0.62720 0.48010 0.21740 0.02000
H 	H 	0.47890 0.48330 0.07020 -0.03400
H 	H 	0.52980 0.14390 0.93190 -0.10600
H 	H 	0.67130 0.31240 0.80510 -0.01100
H 	H 	0.33670 0.16370 0.79390 -0.05100
H 	H 	0.21230 0.65070 0.69590 -0.02100
H 	H 	0.87280 0.51990 0.71740 0.01800
H 	H 	0.02110 0.51670 0.57020 -0.03300
H 	H 	0.97020 0.85610 0.43190 -0.10800
H 	H 	0.82870 0.68760 0.30510 -0.01500
H 	H 	0.16330 0.83630 0.29390 -0.05500
H 	H 	0.71230 0.65070 0.80410 -0.01900
H 	H 	0.37280 0.51990 0.78260 0.02000
H 	H 	0.52110 0.51670 0.92980 -0.03400
H 	H 	0.47020 0.85610 0.06810 -0.10600
H 	H 	0.32870 0.68760 0.19490 -0.01100
H 	H 	0.66330 0.83630 0.20610 -0.05100
H 	H 	0.78770 0.34930 0.30410 -0.02100
H 	H 	0.12720 0.48010 0.28260 0.01800
H 	H 	0.97890 0.48330 0.42980 -0.03300
H 	H 	0.02980 0.14390 0.56810 -0.10800
H 	H 	0.17130 0.31240 0.69490 -0.01500
H 	H 	0.83670 0.16370 0.70610 -0.05500
C 	C 	0.26400 0.37930 0.08950 0.38800
C 	C 	0.36600 0.41500 0.12790 -0.21400
C 	C 	0.35800 0.38480 0.18230 0.08600
C 	C 	0.45940 0.40960 0.21410 -0.17100
C 	C 	0.56200 0.46190 0.19440 0.08800
C 	C 	0.47400 0.46600 0.10630 0.08300
C 	C 	0.57300 0.48930 0.14070 -0.19400
C 	C 	0.45400 0.37210 0.27140 0.30900
C 	C 	0.69000 0.53770 0.11830 0.34500
C 	C 	0.62500 0.22480 0.87140 -0.26600
C 	C 	0.52400 0.16690 0.89660 0.13700
C 	C 	0.74700 0.24450 0.90170 0.41300
C 	C 	0.61000 0.26680 0.81970 0.15700
C 	C 	0.50690 0.24180 0.79140 -0.24300
C 	C 	0.41500 0.14610 0.86570 -0.29100
C 	C 	0.40800 0.18060 0.81410 0.15600
C 	C 	0.49200 0.27820 0.73410 0.38600
C 	C 	0.30790 0.09050 0.89260 0.43800
C 	C 	0.23600 0.62070 0.58950 0.38900
C 	C 	0.13400 0.58500 0.62790 -0.21500
C 	C 	0.14200 0.61520 0.68230 0.08900
C 	C 	0.04060 0.59040 0.71410 -0.17800
C 	C 	0.93800 0.53810 0.69440 0.09600
C 	C 	0.02600 0.53400 0.60630 0.07900
C 	C 	0.92700 0.51070 0.64070 -0.19200
C 	C 	0.04600 0.62790 0.77140 0.30400
C 	C 	0.81000 0.46230 0.61830 0.34500
C 	C 	0.87500 0.77520 0.37140 -0.27200
C 	C 	0.97600 0.83310 0.39660 0.13900
C 	C 	0.75300 0.75550 0.40170 0.41500
C 	C 	0.89000 0.73320 0.31970 0.16700
C 	C 	0.99310 0.75820 0.29140 -0.26000
C 	C 	0.08500 0.85390 0.36570 -0.29500
C 	C 	0.09200 0.81940 0.31410 0.16900
C 	C 	0.00800 0.72180 0.23410 0.40100
C 	C 	0.19210 0.90950 0.39260 0.44000
C 	C 	0.73600 0.62070 0.91050 0.38800
C 	C 	0.63400 0.58500 0.87210 -0.21400
C 	C 	0.64200 0.61520 0.81770 0.08600
C 	C 	0.54060 0.59040 0.78590 -0.17100
C 	C 	0.43800 0.53810 0.80560 0.08800
C 	C 	0.52600 0.53400 0.89370 0.08300
C 	C 	0.42700 0.51070 0.85930 -0.19400
C 	C 	0.54600 0.62790 0.72860 0.30900
C 	C 	0.31000 0.46230 0.88170 0.34500
C 	C 	0.37500 0.77520 0.12860 -0.26600
C 	C 	0.47600 0.83310 0.10340 0.13700
C 	C 	0.25300 0.75550 0.09830 0.41300
C 	C 	0.39000 0.73320 0.18030 0.15700
C 	C 	0.49310 0.75820 0.20860 -0.24300
C 	C 	0.58500 0.85390 0.13430 -0.29100
C 	C 	0.59200 0.81940 0.18590 0.15600
C 	C 	0.50800 0.72180 0.26590 0.38600
C 	C 	0.69210 0.90950 0.10740 0.43800
C 	C 	0.76400 0.37930 0.41050 0.38900
C 	C 	0.86600 0.41500 0.37210 -0.21500
C 	C 	0.85800 0.38480 0.31770 0.08900
C 	C 	0.95940 0.40960 0.28590 -0.17800
C 	C 	0.06200 0.46190 0.30560 0.09600
C 	C 	0.97400 0.46600 0.39370 0.07900
C 	C 	0.07300 0.48930 0.35930 -0.19200
C 	C 	0.95400 0.37210 0.22860 0.30400
C 	C 	0.19000 0.53770 0.38170 0.34500
C 	C 	0.12500 0.22480 0.62860 -0.27200
C 	C 	0.02400 0.16690 0.60340 0.13900
C 	C 	0.24700 0.24450 0.59830 0.41500
C 	C 	0.11000 0.26680 0.68030 0.16700
C 	C 	0.00690 0.24180 0.70860 -0.26000
C 	C 	0.91500 0.14610 0.63430 -0.29500
C 	C 	0.90800 0.18060 0.68590 0.16900
C 	C 	0.99200 0.27820 0.76590 0.40100
C 	C 	0.80790 0.09050 0.60740 0.44000
O 	O 	0.05060 0.41790 0.97360 -0.97800
O 	O 	0.97400 0.22950 0.02550 -1.10700
O 	O 	0.08370 0.25140 0.90170 -0.93200
O 	O 	0.21790 0.05800 0.86130 -0.68900
O 	O 	0.02360 0.04960 0.95450 -1.10400
O 	O 	0.18840 0.30250 0.10470 -0.69100
O 	O 	0.26100 0.41690 0.04290 -0.61400
O 	O 	0.54240 0.40410 0.30390 -0.54100
O 	O 	0.36700 0.30860 0.28790 -0.54200
O 	O 	0.70400 0.55340 0.06820 -0.54700
O 	O 	0.77690 0.56040 0.15280 -0.50500
O 	O 	0.80450 0.15840 0.91650 -0.75700
O 	O 	0.78760 0.34080 0.90640 -0.59400
O 	O 	0.41900 0.23610 0.70300 -0.56700
O 	O 	0.57100 0.35230 0.71860 -0.48300
O 	O 	0.30400 0.07350 0.94080 -0.66400
O 	O 	0.93200 0.41540 0.09290 -0.97100
O 	O 	0.44940 0.58210 0.47360 -0.97800
O 	O 	0.52600 0.77050 0.52550 -1.10400
O 	O 	0.41630 0.74860 0.40170 -0.93100
O 	O 	0.28210 0.94200 0.36130 -0.68900
O 	O 	0.47640 0.95040 0.45450 -1.10600
O 	O 	0.31160 0.69750 0.60470 -0.69400
O 	O 	0.23900 0.58310 0.54290 -0.61700
O 	O 	0.95760 0.59590 0.80390 -0.53400
O 	O 	0.13300 0.69140 0.78790 -0.54200
O 	O 	0.79600 0.44660 0.56820 -0.54700
O 	O 	0.72310 0.43960 0.65280 -0.50500
O 	O 	0.69550 0.84160 0.41650 -0.76100
O 	O 	0.71240 0.65920 0.40640 -0.59700
O 	O 	0.08100 0.76390 0.20300 -0.56800
O 	O 	0.92900 0.64770 0.21860 -0.49000
O 	O 	0.19600 0.92650 0.44080 -0.66600
O 	O 	0.56800 0.58460 0.59290 -0.96900
O 	O 	0.94940 0.58210 0.02640 -0.97800
O 	O 	0.02600 0.77050 0.97450 -1.10700
O 	O 	0.91630 0.74860 0.09830 -0.93200
O 	O 	0.78210 0.94200 0.13870 -0.68900
O 	O 	0.97640 0.95040 0.04550 -1.10400
O 	O 	0.81160 0.69750 0.89530 -0.69100
O 	O 	0.73900 0.58310 0.95710 -0.61400
O 	O 	0.45760 0.59590 0.69610 -0.54100
O 	O 	0.63300 0.69140 0.71210 -0.54200
O 	O 	0.29600 0.44660 0.93180 -0.54700
O 	O 	0.22310 0.43960 0.84720 -0.50500
O 	O 	0.19550 0.84160 0.08350 -0.75700
O 	O 	0.21240 0.65920 0.09360 -0.59400
O 	O 	0.58100 0.76390 0.29700 -0.56700
O 	O 	0.42900 0.64770 0.28140 -0.48300
O 	O 	0.69600 0.92650 0.05920 -0.66400
O 	O 	0.06800 0.58460 0.90710 -0.97100
O 	O 	0.55060 0.41790 0.52640 -0.97800
O 	O 	0.47400 0.22950 0.47450 -1.10400
O 	O 	0.58370 0.25140 0.59830 -0.93100
O 	O 	0.71790 0.05800 0.63870 -0.68900
O 	O 	0.52360 0.04960 0.54550 -1.10600
O 	O 	0.68840 0.30250 0.39530 -0.69400
O 	O 	0.76100 0.41690 0.45710 -0.61700
O 	O 	0.04240 0.40410 0.19610 -0.53400
O 	O 	0.86700 0.30860 0.21210 -0.54200
O 	O 	0.20400 0.55340 0.43180 -0.54700
O 	O 	0.27690 0.56040 0.34720 -0.50500
O 	O 	0.30450 0.15840 0.58350 -0.76100
O 	O 	0.28760 0.34080 0.59360 -0.59700
O 	O 	0.91900 0.23610 0.79700 -0.56800
O 	O 	0.07100 0.35230 0.78140 -0.49000
O 	O 	0.80400 0.07350 0.55920 -0.66600
O 	O 	0.43200 0.41540 0.40710 -0.96900
