data_crystal

_cell_length_a 13.73900
_cell_length_b 15.17900
_cell_length_c 24.30100
_cell_angle_alpha 90.00000
_cell_angle_beta  90.00000
_cell_angle_gamma 90.00000

_symmetry_space_group_name_	'P 1'
_symmetry_space_group_name_H-M	'P 1'

loop_
_symmetry_equiv_pos_as_xyz
  x,y,z

loop_
_atom_site_label
_atom_site_type_symbol
_atom_site_fract_x
_atom_site_fract_y
_atom_site_fract_z
_atom_site_charge
Co	Co	0.61652 0.79209 0.75211 1.11100
Co	Co	0.77496 0.69905 0.84336 1.14300
Co	Co	0.19356 0.49538 0.59000 1.13500
Co	Co	0.64460 0.67680 0.45831 1.06800
Co	Co	0.88348 0.29209 0.74789 1.10800
Co	Co	0.72504 0.19905 0.65664 1.14200
Co	Co	0.30644 0.99538 0.91000 1.13500
Co	Co	0.85540 0.17680 0.04169 1.06600
Co	Co	0.38348 0.70791 0.75211 1.11000
Co	Co	0.22504 0.80095 0.84336 1.14200
Co	Co	0.80644 0.00462 0.59000 1.13400
Co	Co	0.35540 0.82320 0.45831 1.06800
Co	Co	0.11652 0.20791 0.74789 1.11100
Co	Co	0.27496 0.30095 0.65664 1.14300
Co	Co	0.69356 0.50462 0.91000 1.13500
Co	Co	0.14460 0.32320 0.04169 1.07000
Co	Co	0.38348 0.20791 0.24789 1.11000
Co	Co	0.22504 0.30095 0.15664 1.14200
Co	Co	0.80644 0.50462 0.41000 1.13500
Co	Co	0.35540 0.32320 0.54169 1.06800
Co	Co	0.11652 0.70791 0.25211 1.11100
Co	Co	0.27496 0.80095 0.34336 1.14300
Co	Co	0.69356 0.00462 0.09000 1.13400
Co	Co	0.14460 0.82320 0.95831 1.06900
Co	Co	0.61652 0.29209 0.24789 1.11000
Co	Co	0.77496 0.19905 0.15664 1.14200
Co	Co	0.19356 0.99538 0.41000 1.13500
Co	Co	0.64460 0.17680 0.54169 1.06800
Co	Co	0.88348 0.79209 0.25211 1.10900
Co	Co	0.72504 0.69905 0.34336 1.14200
Co	Co	0.30644 0.49538 0.09000 1.13500
Co	Co	0.85540 0.67680 0.95831 1.06700
H 	H 	0.90550 0.52590 0.72630 0.00400
H 	H 	0.74980 0.66270 0.61460 0.00400
H 	H 	0.93670 0.47380 0.56420 0.02500
H 	H 	0.90380 0.84800 0.74610 0.05000
H 	H 	0.59450 0.02590 0.77370 0.01000
H 	H 	0.75020 0.16270 0.88540 0.00500
H 	H 	0.56330 0.97380 0.93580 0.03100
H 	H 	0.59620 0.34800 0.75390 0.04800
H 	H 	0.09450 0.97410 0.72630 0.02000
H 	H 	0.25020 0.83730 0.61460 0.01100
H 	H 	0.06330 0.02620 0.56420 0.04800
H 	H 	0.09620 0.65200 0.74610 0.04900
H 	H 	0.40550 0.47410 0.77370 0.01100
H 	H 	0.24980 0.33730 0.88540 0.00700
H 	H 	0.43670 0.52620 0.93580 0.03300
H 	H 	0.40380 0.15200 0.75390 0.04800
H 	H 	0.09450 0.47410 0.27370 0.01600
H 	H 	0.25020 0.33730 0.38540 0.00800
H 	H 	0.06330 0.52620 0.43580 0.03900
H 	H 	0.09620 0.15200 0.25390 0.04900
H 	H 	0.40550 0.97410 0.22630 0.00900
H 	H 	0.24980 0.83730 0.11460 0.00600
H 	H 	0.43670 0.02620 0.06420 0.02900
H 	H 	0.40380 0.65200 0.24610 0.04800
H 	H 	0.90550 0.02590 0.27370 0.01000
H 	H 	0.74980 0.16270 0.38540 0.00800
H 	H 	0.93670 0.97380 0.43580 0.03700
H 	H 	0.90380 0.34800 0.25390 0.05000
H 	H 	0.59450 0.52590 0.22630 0.01100
H 	H 	0.75020 0.66270 0.11460 0.00600
H 	H 	0.56330 0.47380 0.06420 0.03200
H 	H 	0.59620 0.84800 0.24610 0.04800
H 	H 	-0.00000 0.75000 0.60200 0.05900
H 	H 	0.50000 0.25000 0.89800 0.06000
H 	H 	0.00000 0.25000 0.39800 0.05800
H 	H 	0.50000 0.75000 0.10200 0.06000
C 	C 	0.00480 0.42210 0.66120 0.17100
C 	C 	0.92970 0.49100 0.64740 -0.11200
C 	C 	0.88830 0.53740 0.68990 0.06100
C 	C 	0.81900 0.60270 0.67720 -0.14200
C 	C 	0.79470 0.61870 0.62260 0.09800
C 	C 	0.83500 0.57150 0.58020 -0.16600
C 	C 	0.90670 0.50560 0.59210 0.06100
C 	C 	0.77350 0.65620 0.72260 0.39800
C 	C 	0.80520 0.58390 0.52110 0.45400
C 	C 	0.94260 0.80830 0.72690 -0.02300
C 	C 	0.94220 0.80840 0.66890 -0.07800
C 	C 	0.88370 0.87580 0.63700 0.30600
C 	C 	0.49520 0.92210 0.83880 0.14900
C 	C 	0.57030 0.99100 0.85260 -0.09300
C 	C 	0.61170 0.03740 0.81010 0.05200
C 	C 	0.68100 0.10270 0.82280 -0.13700
C 	C 	0.70530 0.11870 0.87740 0.09400
C 	C 	0.66500 0.07150 0.91980 -0.16200
C 	C 	0.59330 0.00560 0.90790 0.05500
C 	C 	0.72650 0.15620 0.77740 0.39700
C 	C 	0.69480 0.08390 0.97890 0.45500
C 	C 	0.55740 0.30830 0.77310 -0.01400
C 	C 	0.55780 0.30840 0.83110 -0.06900
C 	C 	0.61630 0.37580 0.86300 0.30400
C 	C 	0.99520 0.07790 0.66120 0.11700
C 	C 	0.07030 0.00900 0.64740 -0.05300
C 	C 	0.11170 0.96260 0.68990 0.02600
C 	C 	0.18100 0.89730 0.67720 -0.12200
C 	C 	0.20530 0.88130 0.62260 0.07900
C 	C 	0.16500 0.92850 0.58020 -0.14500
C 	C 	0.09330 0.99440 0.59210 0.02300
C 	C 	0.22650 0.84380 0.72260 0.39200
C 	C 	0.19480 0.91610 0.52110 0.44700
C 	C 	0.05740 0.69170 0.72690 -0.01400
C 	C 	0.05780 0.69160 0.66890 -0.07100
C 	C 	0.11630 0.62420 0.63700 0.30600
C 	C 	0.50480 0.57790 0.83880 0.14800
C 	C 	0.42970 0.50900 0.85260 -0.09100
C 	C 	0.38830 0.46260 0.81010 0.05000
C 	C 	0.31900 0.39730 0.82280 -0.13500
C 	C 	0.29470 0.38130 0.87740 0.09200
C 	C 	0.33500 0.42850 0.91980 -0.15900
C 	C 	0.40670 0.49440 0.90790 0.05100
C 	C 	0.27350 0.34380 0.77740 0.39600
C 	C 	0.30520 0.41610 0.97890 0.45200
C 	C 	0.44260 0.19170 0.77310 -0.01400
C 	C 	0.44220 0.19160 0.83110 -0.06900
C 	C 	0.38370 0.12420 0.86300 0.30400
C 	C 	0.99520 0.57790 0.33880 0.12700
C 	C 	0.07030 0.50900 0.35260 -0.07200
C 	C 	0.11170 0.46260 0.31010 0.04100
C 	C 	0.18100 0.39730 0.32280 -0.12900
C 	C 	0.20530 0.38130 0.37740 0.08700
C 	C 	0.16500 0.42850 0.41980 -0.15300
C 	C 	0.09330 0.49440 0.40790 0.04200
C 	C 	0.22650 0.34380 0.27740 0.39400
C 	C 	0.19480 0.41610 0.47890 0.45000
C 	C 	0.05740 0.19170 0.27310 -0.01400
C 	C 	0.05780 0.19160 0.33110 -0.07100
C 	C 	0.11630 0.12420 0.36300 0.30600
C 	C 	0.50480 0.07790 0.16120 0.15000
C 	C 	0.42970 0.00900 0.14740 -0.09700
C 	C 	0.38830 0.96260 0.18990 0.05600
C 	C 	0.31900 0.89730 0.17720 -0.13800
C 	C 	0.29470 0.88130 0.12260 0.09600
C 	C 	0.33500 0.92850 0.08020 -0.16300
C 	C 	0.40670 0.99440 0.09210 0.06000
C 	C 	0.27350 0.84380 0.22260 0.39700
C 	C 	0.30520 0.91610 0.02110 0.45600
C 	C 	0.44260 0.69170 0.22690 -0.01400
C 	C 	0.44220 0.69160 0.16890 -0.06900
C 	C 	0.38370 0.62420 0.13700 0.30400
C 	C 	0.00480 0.92210 0.33880 0.15900
C 	C 	0.92970 0.99100 0.35260 -0.08700
C 	C 	0.88830 0.03740 0.31010 0.04200
C 	C 	0.81900 0.10270 0.32280 -0.13300
C 	C 	0.79470 0.11870 0.37740 0.08700
C 	C 	0.83500 0.07150 0.41980 -0.15500
C 	C 	0.90670 0.00560 0.40790 0.03600
C 	C 	0.77350 0.15620 0.27740 0.39500
C 	C 	0.80520 0.08390 0.47890 0.45000
C 	C 	0.94260 0.30830 0.27310 -0.02700
C 	C 	0.94220 0.30840 0.33110 -0.08200
C 	C 	0.88370 0.37580 0.36300 0.30700
C 	C 	0.49520 0.42210 0.16120 0.14800
C 	C 	0.57030 0.49100 0.14740 -0.09100
C 	C 	0.61170 0.53740 0.18990 0.05100
C 	C 	0.68100 0.60270 0.17720 -0.13600
C 	C 	0.70530 0.61870 0.12260 0.09300
C 	C 	0.66500 0.57150 0.08020 -0.16000
C 	C 	0.59330 0.50560 0.09210 0.05200
C 	C 	0.72650 0.65620 0.22260 0.39700
C 	C 	0.69480 0.58390 0.02110 0.45200
C 	C 	0.55740 0.80830 0.22690 -0.01400
C 	C 	0.55780 0.80840 0.16890 -0.06900
C 	C 	0.61630 0.87580 0.13700 0.30400
C 	C 	-0.00000 0.75000 0.81680 0.13200
C 	C 	-0.00000 0.75000 0.75490 -0.03300
C 	C 	-0.00000 0.75000 0.64030 0.02400
C 	C 	0.50000 0.25000 0.68320 0.12600
C 	C 	0.50000 0.25000 0.74510 -0.04200
C 	C 	0.50000 0.25000 0.85970 0.01100
C 	C 	-0.00000 0.25000 0.18320 0.13400
C 	C 	-0.00000 0.25000 0.24510 -0.03000
C 	C 	-0.00000 0.25000 0.35970 0.02900
C 	C 	0.50000 0.75000 0.31680 0.12600
C 	C 	0.50000 0.75000 0.25490 -0.04200
C 	C 	0.50000 0.75000 0.14030 0.01100
N 	N 	0.09020 0.41410 0.63480 -0.19600
N 	N 	0.13460 0.34440 0.66010 -0.18400
N 	N 	0.07740 0.31590 0.69900 -0.17500
N 	N 	0.99490 0.36250 0.69990 -0.22600
N 	N 	0.92070 0.73800 0.84890 -0.21600
N 	N 	0.95330 0.74240 0.90070 -0.20700
N 	N 	0.72840 0.81610 0.80970 -0.30400
N 	N 	0.77470 0.87910 0.81860 -0.05000
N 	N 	0.82390 0.94280 0.82580 -0.09300
N 	N 	0.40980 0.91410 0.86520 -0.19400
N 	N 	0.36540 0.84440 0.83990 -0.18400
N 	N 	0.42260 0.81590 0.80100 -0.18000
N 	N 	0.50510 0.86250 0.80010 -0.21300
N 	N 	0.57930 0.23800 0.65110 -0.21200
N 	N 	0.54670 0.24240 0.59930 -0.20300
N 	N 	0.77160 0.31610 0.69030 -0.30400
N 	N 	0.72530 0.37910 0.68140 -0.05000
N 	N 	0.67610 0.44280 0.67420 -0.09100
N 	N 	0.90980 0.08590 0.63480 -0.19100
N 	N 	0.86540 0.15560 0.66010 -0.18500
N 	N 	0.92260 0.18410 0.69900 -0.18600
N 	N 	0.00510 0.13750 0.69990 -0.19800
N 	N 	0.07930 0.76200 0.84890 -0.21200
N 	N 	0.04670 0.75760 0.90070 -0.19900
N 	N 	0.27160 0.68390 0.80970 -0.30400
N 	N 	0.22530 0.62090 0.81860 -0.05000
N 	N 	0.17610 0.55720 0.82580 -0.09000
N 	N 	0.59020 0.58590 0.86520 -0.19400
N 	N 	0.63460 0.65560 0.83990 -0.18400
N 	N 	0.57740 0.68410 0.80100 -0.18000
N 	N 	0.49490 0.63750 0.80010 -0.21300
N 	N 	0.42070 0.26200 0.65110 -0.21200
N 	N 	0.45330 0.25760 0.59930 -0.20300
N 	N 	0.22840 0.18390 0.69030 -0.30300
N 	N 	0.27470 0.12090 0.68140 -0.05000
N 	N 	0.32390 0.05720 0.67420 -0.09100
N 	N 	0.90980 0.58590 0.36520 -0.19200
N 	N 	0.86540 0.65560 0.33990 -0.18500
N 	N 	0.92260 0.68410 0.30100 -0.18400
N 	N 	0.00510 0.63750 0.30010 -0.20200
N 	N 	0.07930 0.26200 0.15110 -0.21200
N 	N 	0.04670 0.25760 0.09930 -0.19700
N 	N 	0.27160 0.18390 0.19030 -0.30400
N 	N 	0.22530 0.12090 0.18140 -0.05000
N 	N 	0.17610 0.05720 0.17420 -0.09000
N 	N 	0.59020 0.08590 0.13480 -0.19500
N 	N 	0.63460 0.15560 0.16010 -0.18400
N 	N 	0.57740 0.18410 0.19900 -0.18000
N 	N 	0.49490 0.13750 0.19990 -0.21300
N 	N 	0.42070 0.76200 0.34890 -0.21200
N 	N 	0.45330 0.75760 0.40070 -0.20300
N 	N 	0.22840 0.68390 0.30970 -0.30400
N 	N 	0.27470 0.62090 0.31860 -0.05000
N 	N 	0.32390 0.55720 0.32580 -0.09100
N 	N 	0.09020 0.91410 0.36520 -0.19500
N 	N 	0.13460 0.84440 0.33990 -0.18400
N 	N 	0.07740 0.81590 0.30100 -0.17700
N 	N 	0.99490 0.86250 0.30010 -0.22100
N 	N 	0.92070 0.23800 0.15110 -0.21800
N 	N 	0.95330 0.24240 0.09930 -0.20900
N 	N 	0.72840 0.31610 0.19030 -0.30400
N 	N 	0.77470 0.37910 0.18140 -0.05100
N 	N 	0.82390 0.44280 0.17420 -0.09300
N 	N 	0.40980 0.41410 0.13480 -0.19400
N 	N 	0.36540 0.34440 0.16010 -0.18400
N 	N 	0.42260 0.31590 0.19900 -0.18000
N 	N 	0.50510 0.36250 0.19990 -0.21300
N 	N 	0.57930 0.73800 0.34890 -0.21200
N 	N 	0.54670 0.74240 0.40070 -0.20300
N 	N 	0.77160 0.81610 0.30970 -0.30400
N 	N 	0.72530 0.87910 0.31860 -0.05000
N 	N 	0.67610 0.94280 0.32580 -0.09000
O 	O 	0.71040 0.71240 0.70810 -0.46000
O 	O 	0.80240 0.64060 0.77070 -0.45900
O 	O 	0.73800 0.63870 0.51310 -0.54200
O 	O 	0.84580 0.54190 0.48540 -0.50300
O 	O 	0.89700 0.88840 0.58830 -0.39200
O 	O 	0.82270 0.92430 0.66360 -0.39600
O 	O 	0.80850 0.58810 0.88820 -0.60500
O 	O 	0.75130 0.75940 0.92310 -0.45000
O 	O 	0.78960 0.21240 0.79190 -0.46200
O 	O 	0.69760 0.14060 0.72930 -0.45800
O 	O 	0.76200 0.13870 0.98690 -0.54300
O 	O 	0.65420 0.04190 0.01460 -0.50300
O 	O 	0.60300 0.38840 0.91170 -0.39000
O 	O 	0.67730 0.42430 0.83640 -0.39700
O 	O 	0.69150 0.08810 0.61180 -0.60300
O 	O 	0.74870 0.25940 0.57690 -0.45000
O 	O 	0.28960 0.78760 0.70810 -0.45800
O 	O 	0.19760 0.85940 0.77070 -0.45600
O 	O 	0.26200 0.86130 0.51310 -0.54000
O 	O 	0.15420 0.95810 0.48540 -0.49800
O 	O 	0.10300 0.61160 0.58830 -0.38800
O 	O 	0.17730 0.57570 0.66360 -0.39600
O 	O 	0.19150 0.91190 0.88820 -0.60300
O 	O 	0.24870 0.74060 0.92310 -0.44900
O 	O 	0.21040 0.28760 0.79190 -0.45800
O 	O 	0.30240 0.35940 0.72930 -0.45700
O 	O 	0.23800 0.36130 0.98690 -0.54000
O 	O 	0.34580 0.45810 0.01460 -0.50000
O 	O 	0.39700 0.11160 0.91170 -0.38800
O 	O 	0.32270 0.07570 0.83640 -0.39400
O 	O 	0.30850 0.41190 0.61180 -0.60300
O 	O 	0.25130 0.24060 0.57690 -0.44800
O 	O 	0.28960 0.28760 0.29190 -0.45900
O 	O 	0.19760 0.35940 0.22930 -0.45600
O 	O 	0.26200 0.36130 0.48690 -0.54100
O 	O 	0.15420 0.45810 0.51460 -0.49700
O 	O 	0.10300 0.11160 0.41170 -0.38700
O 	O 	0.17730 0.07570 0.33640 -0.39500
O 	O 	0.19150 0.41190 0.11180 -0.60200
O 	O 	0.24870 0.24060 0.07690 -0.44900
O 	O 	0.21040 0.78760 0.20810 -0.45900
O 	O 	0.30240 0.85940 0.27070 -0.45800
O 	O 	0.23800 0.86130 0.01310 -0.54100
O 	O 	0.34580 0.95810 0.98540 -0.50200
O 	O 	0.39700 0.61160 0.08830 -0.38900
O 	O 	0.32270 0.57570 0.16360 -0.39600
O 	O 	0.30850 0.91190 0.38820 -0.60300
O 	O 	0.25130 0.74060 0.42310 -0.44900
O 	O 	0.71040 0.21240 0.29190 -0.45900
O 	O 	0.80240 0.14060 0.22930 -0.45900
O 	O 	0.73800 0.13870 0.48690 -0.54200
O 	O 	0.84580 0.04190 0.51460 -0.50300
O 	O 	0.89700 0.38840 0.41170 -0.39400
O 	O 	0.82270 0.42430 0.33640 -0.39700
O 	O 	0.80850 0.08810 0.11180 -0.60600
O 	O 	0.75130 0.25940 0.07690 -0.45000
O 	O 	0.78960 0.71240 0.20810 -0.46100
O 	O 	0.69760 0.64060 0.27070 -0.45800
O 	O 	0.76200 0.63870 0.01310 -0.54200
O 	O 	0.65420 0.54190 0.98540 -0.50000
O 	O 	0.60300 0.88840 0.08830 -0.38800
O 	O 	0.67730 0.92430 0.16360 -0.39500
O 	O 	0.69150 0.58810 0.38820 -0.60300
O 	O 	0.74870 0.75940 0.42310 -0.45000
O 	O 	0.50000 0.75000 0.69900 -0.46100
O 	O 	-0.00000 0.25000 0.80100 -0.45400
O 	O 	0.50000 0.25000 0.30100 -0.46100
O 	O 	-0.00000 0.75000 0.19900 -0.45600
