data_crystal

_cell_length_a 21.86600
_cell_length_b 7.61010
_cell_length_c 19.64600
_cell_angle_alpha 90.00000
_cell_angle_beta  90.00000
_cell_angle_gamma 90.00000

_symmetry_space_group_name_	'P 1'
_symmetry_space_group_name_H-M	'P 1'

loop_
_symmetry_equiv_pos_as_xyz
  x,y,z

loop_
_atom_site_label
_atom_site_type_symbol
_atom_site_fract_x
_atom_site_fract_y
_atom_site_fract_z
_atom_site_charge
O 	O 	0.73898 0.19330 0.12004 -0.57700
O 	O 	0.63991 0.72420 0.07140 -0.52100
O 	O 	0.68206 0.99890 0.17106 -0.41200
C 	C 	0.62970 0.56310 0.06580 0.53800
C 	C 	0.70970 0.29680 0.43670 0.46100
C 	C 	0.56360 0.50670 0.06910 -0.43900
H 	H 	0.56130 0.38510 0.08370 0.15400
H 	H 	0.54210 0.57800 0.10230 0.16100
C 	C 	0.53333 0.52620 -0.00000 0.00900
H 	H 	0.55510 0.45430 0.96720 0.02000
H 	H 	0.53670 0.64760 0.98540 0.02400
C 	C 	0.69600 0.43480 0.38370 -0.38900
H 	H 	0.68310 0.54080 0.40700 0.13500
H 	H 	0.73370 0.46200 0.35990 0.14800
C 	C 	0.70310 0.15040 0.16890 0.38500
C 	C 	0.64830 0.38960 0.33150 0.01500
H 	H 	0.63040 0.49300 0.31060 0.02100
H 	H 	0.61640 0.31440 0.34960 0.03500
O 	O 	0.68082 0.15750 0.43896 -0.46000
C 	C 	0.69690 0.28000 0.27740 0.06900
C 	C 	0.70300 0.28400 0.23280 -0.04500
C 	C 	0.65380 0.23480 0.28100 -0.03400
C 	C 	0.67830 0.29200 0.21440 -0.08900
Tb	Tb	0.71955 0.92517 0.05315 1.88900
O 	O 	0.66934 0.44640 0.05362 -0.50800
O 	O 	0.75168 0.32850 0.48062 -0.59400
O 	O 	0.76102 0.30670 0.62004 -0.57900
O 	O 	0.86009 0.77580 0.57140 -0.52300
O 	O 	0.81794 0.50110 0.67106 -0.41300
C 	C 	0.87030 0.93690 0.56580 0.54000
C 	C 	0.79030 0.20320 0.93670 0.46100
C 	C 	0.93640 0.99330 0.56910 -0.44300
H 	H 	0.93870 0.11490 0.58370 0.15500
H 	H 	0.95790 0.92200 0.60230 0.16300
C 	C 	0.96667 0.97380 0.50000 0.01500
H 	H 	0.94490 0.04570 0.46720 0.01800
H 	H 	0.96330 0.85240 0.48540 0.02100
C 	C 	0.80400 0.06520 0.88370 -0.38800
H 	H 	0.81690 0.95920 0.90700 0.13400
H 	H 	0.76630 0.03800 0.85990 0.14800
C 	C 	0.79690 0.34960 0.66890 0.38500
C 	C 	0.85170 0.11040 0.83150 0.01500
H 	H 	0.86960 0.00700 0.81060 0.02200
H 	H 	0.88360 0.18560 0.84960 0.03600
O 	O 	0.81918 0.34250 0.93896 -0.45800
C 	C 	0.80310 0.22000 0.77740 0.06900
C 	C 	0.79700 0.21600 0.73280 -0.04500
C 	C 	0.84620 0.26520 0.78100 -0.03300
C 	C 	0.82170 0.20800 0.71440 -0.08800
Tb	Tb	0.78045 0.57483 0.55315 1.89500
O 	O 	0.83066 0.05360 0.55362 -0.50800
O 	O 	0.74832 0.17150 0.98062 -0.59100
O 	O 	0.26102 0.19330 0.37996 -0.57900
O 	O 	0.36009 0.72420 0.42860 -0.52300
O 	O 	0.31794 0.99890 0.32894 -0.41300
C 	C 	0.37030 0.56310 0.43420 0.54000
C 	C 	0.29030 0.29680 0.06330 0.46100
C 	C 	0.43640 0.50670 0.43090 -0.44300
H 	H 	0.43870 0.38510 0.41630 0.15500
H 	H 	0.45790 0.57800 0.39770 0.16200
C 	C 	0.46667 0.52620 0.50000 0.01700
H 	H 	0.44490 0.45430 0.53280 0.01700
H 	H 	0.46330 0.64760 0.51460 0.02100
C 	C 	0.30400 0.43480 0.11630 -0.38900
H 	H 	0.31690 0.54080 0.09300 0.13500
H 	H 	0.26630 0.46200 0.14010 0.14800
C 	C 	0.29690 0.15040 0.33110 0.38500
C 	C 	0.35170 0.38960 0.16850 0.01500
H 	H 	0.36960 0.49300 0.18940 0.02100
H 	H 	0.38360 0.31440 0.15040 0.03600
O 	O 	0.31918 0.15750 0.06104 -0.45900
C 	C 	0.30310 0.28000 0.22260 0.06900
C 	C 	0.29700 0.28400 0.26720 -0.04500
C 	C 	0.34620 0.23480 0.21900 -0.03400
C 	C 	0.32170 0.29200 0.28560 -0.08900
Tb	Tb	0.28045 0.92517 0.44685 1.89400
O 	O 	0.33066 0.44640 0.44638 -0.50800
O 	O 	0.24832 0.32850 0.01938 -0.59300
O 	O 	0.23898 0.30670 0.87996 -0.57900
O 	O 	0.13991 0.77580 0.92860 -0.52500
O 	O 	0.18206 0.50110 0.82894 -0.41300
C 	C 	0.12970 0.93690 0.93420 0.54400
C 	C 	0.20970 0.20320 0.56330 0.46100
C 	C 	0.06360 0.99330 0.93090 -0.45600
H 	H 	0.06130 0.11490 0.91630 0.15800
H 	H 	0.04210 0.92200 0.89770 0.16500
C 	C 	0.03333 0.97380 -0.00000 0.03800
H 	H 	0.05510 0.04570 0.03280 0.01200
H 	H 	0.03670 0.85240 0.01460 0.01500
C 	C 	0.19600 0.06520 0.61630 -0.38800
H 	H 	0.18310 0.95920 0.59300 0.13300
H 	H 	0.23370 0.03800 0.64010 0.14800
C 	C 	0.20310 0.34960 0.83110 0.38500
C 	C 	0.14830 0.11040 0.66850 0.01500
H 	H 	0.13040 0.00700 0.68940 0.02100
H 	H 	0.11640 0.18560 0.65040 0.03500
O 	O 	0.18082 0.34250 0.56104 -0.46000
C 	C 	0.19690 0.22000 0.72260 0.06900
C 	C 	0.20300 0.21600 0.76720 -0.04500
C 	C 	0.15380 0.26520 0.71900 -0.03400
C 	C 	0.17830 0.20800 0.78560 -0.08900
Tb	Tb	0.21955 0.57483 0.94685 1.89300
O 	O 	0.16934 0.05360 0.94638 -0.51000
O 	O 	0.25168 0.17150 0.51938 -0.59300
O 	O 	0.26102 0.80670 0.87996 -0.57900
O 	O 	0.36009 0.27580 0.92860 -0.52300
O 	O 	0.31794 0.00110 0.82894 -0.41300
C 	C 	0.37030 0.43690 0.93420 0.54100
C 	C 	0.29030 0.70320 0.56330 0.46100
C 	C 	0.43640 0.49330 0.93090 -0.44500
H 	H 	0.43870 0.61490 0.91630 0.15600
H 	H 	0.45790 0.42200 0.89770 0.16300
C 	C 	0.46667 0.47380 -0.00000 0.02100
H 	H 	0.44490 0.54570 0.03280 0.01600
H 	H 	0.46330 0.35240 0.01460 0.02000
C 	C 	0.30400 0.56520 0.61630 -0.39000
H 	H 	0.31690 0.45920 0.59300 0.13500
H 	H 	0.26630 0.53800 0.64010 0.14800
C 	C 	0.29690 0.84960 0.83110 0.38400
C 	C 	0.35170 0.61040 0.66850 0.01600
H 	H 	0.36960 0.50700 0.68940 0.02100
H 	H 	0.38360 0.68560 0.65040 0.03500
O 	O 	0.31918 0.84250 0.56104 -0.46000
C 	C 	0.30310 0.72000 0.72260 0.06900
C 	C 	0.29700 0.71600 0.76720 -0.04500
C 	C 	0.34620 0.76520 0.71900 -0.03400
C 	C 	0.32170 0.70800 0.78560 -0.08800
Tb	Tb	0.28045 0.07483 0.94685 1.89300
O 	O 	0.33066 0.55360 0.94638 -0.50900
O 	O 	0.24832 0.67150 0.51938 -0.59400
O 	O 	0.23898 0.69330 0.37996 -0.57900
O 	O 	0.13991 0.22420 0.42860 -0.52300
O 	O 	0.18206 0.49890 0.32894 -0.41300
C 	C 	0.12970 0.06310 0.43420 0.54100
C 	C 	0.20970 0.79680 0.06330 0.46200
C 	C 	0.06360 0.00670 0.43090 -0.44300
H 	H 	0.06130 0.88510 0.41630 0.15500
H 	H 	0.04210 0.07800 0.39770 0.16300
C 	C 	0.03333 0.02620 0.50000 0.01900
H 	H 	0.05510 0.95430 0.53280 0.01600
H 	H 	0.03670 0.14760 0.51460 0.02000
C 	C 	0.19600 0.93480 0.11630 -0.39100
H 	H 	0.18310 0.04080 0.09300 0.13600
H 	H 	0.23370 0.96200 0.14010 0.14900
C 	C 	0.20310 0.65040 0.33110 0.38500
C 	C 	0.14830 0.88960 0.16850 0.01600
H 	H 	0.13040 0.99300 0.18940 0.02100
H 	H 	0.11640 0.81440 0.15040 0.03600
O 	O 	0.18082 0.65750 0.06104 -0.45900
C 	C 	0.19690 0.78000 0.22260 0.06900
C 	C 	0.20300 0.78400 0.26720 -0.04500
C 	C 	0.15380 0.73480 0.21900 -0.03400
C 	C 	0.17830 0.79200 0.28560 -0.08800
Tb	Tb	0.21955 0.42517 0.44685 1.89500
O 	O 	0.16934 0.94640 0.44638 -0.50900
O 	O 	0.25168 0.82850 0.01938 -0.59300
O 	O 	0.73898 0.80670 0.62004 -0.57900
O 	O 	0.63991 0.27580 0.57140 -0.52300
O 	O 	0.68206 0.00110 0.67106 -0.41300
C 	C 	0.62970 0.43690 0.56580 0.54000
C 	C 	0.70970 0.70320 0.93670 0.46100
C 	C 	0.56360 0.49330 0.56910 -0.44300
H 	H 	0.56130 0.61490 0.58370 0.15500
H 	H 	0.54210 0.42200 0.60230 0.16200
C 	C 	0.53333 0.47380 0.50000 0.01700
H 	H 	0.55510 0.54570 0.46720 0.01700
H 	H 	0.53670 0.35240 0.48540 0.02100
C 	C 	0.69600 0.56520 0.88370 -0.38900
H 	H 	0.68310 0.45920 0.90700 0.13500
H 	H 	0.73370 0.53800 0.85990 0.14800
C 	C 	0.70310 0.84960 0.66890 0.38400
C 	C 	0.64830 0.61040 0.83150 0.01500
H 	H 	0.63040 0.50700 0.81060 0.02100
H 	H 	0.61640 0.68560 0.84960 0.03500
O 	O 	0.68082 0.84250 0.93896 -0.45800
C 	C 	0.69690 0.72000 0.77740 0.06900
C 	C 	0.70300 0.71600 0.73280 -0.04500
C 	C 	0.65380 0.76520 0.78100 -0.03400
C 	C 	0.67830 0.70800 0.71440 -0.08800
Tb	Tb	0.71955 0.07483 0.55315 1.89500
O 	O 	0.66934 0.55360 0.55362 -0.50800
O 	O 	0.75168 0.67150 0.98062 -0.59100
O 	O 	0.76102 0.69330 0.12004 -0.57900
O 	O 	0.86009 0.22420 0.07140 -0.52200
O 	O 	0.81794 0.49890 0.17106 -0.41300
C 	C 	0.87030 0.06310 0.06580 0.53400
C 	C 	0.79030 0.79680 0.43670 0.46100
C 	C 	0.93640 0.00670 0.06910 -0.42400
H 	H 	0.93870 0.88510 0.08370 0.14800
H 	H 	0.95790 0.07800 0.10230 0.15600
C 	C 	0.96667 0.02620 -0.00000 -0.01500
H 	H 	0.94490 0.95430 0.96720 0.02900
H 	H 	0.96330 0.14760 0.98540 0.03300
C 	C 	0.80400 0.93480 0.38370 -0.39000
H 	H 	0.81690 0.04080 0.40700 0.13500
H 	H 	0.76630 0.96200 0.35990 0.14800
C 	C 	0.79690 0.65040 0.16890 0.38400
C 	C 	0.85170 0.88960 0.33150 0.01600
H 	H 	0.86960 0.99300 0.31060 0.02100
H 	H 	0.88360 0.81440 0.34960 0.03500
O 	O 	0.81918 0.65750 0.43896 -0.46000
C 	C 	0.80310 0.78000 0.27740 0.06900
C 	C 	0.79700 0.78400 0.23280 -0.04500
C 	C 	0.84620 0.73480 0.28100 -0.03400
C 	C 	0.82170 0.79200 0.21440 -0.08900
Tb	Tb	0.78045 0.42517 0.05315 1.89000
O 	O 	0.83066 0.94640 0.05362 -0.50800
O 	O 	0.74832 0.82850 0.48062 -0.59400
