data_crystal

_cell_length_a 19.37400
_cell_length_b 14.88740
_cell_length_c 15.37210
_cell_angle_alpha 90.00000
_cell_angle_beta  111.75300
_cell_angle_gamma 90.00000

_symmetry_space_group_name_	'P 1'
_symmetry_space_group_name_H-M	'P 1'

loop_
_symmetry_equiv_pos_as_xyz
  x,y,z

loop_
_atom_site_label
_atom_site_type_symbol
_atom_site_fract_x
_atom_site_fract_y
_atom_site_fract_z
_atom_site_charge
Cd	Cd	0.81809 0.08663 0.17834 1.22000
Cd	Cd	0.81936 0.31636 0.54457 1.20500
Cd	Cd	0.18033 0.18117 0.74532 1.20200
Cd	Cd	0.81554 0.41939 0.11364 1.22800
C 	C 	0.82520 0.09950 0.55600 0.38200
C 	C 	0.81960 0.12350 0.46190 -0.07400
C 	C 	0.81380 0.07750 0.38140 -0.03200
C 	C 	0.81680 0.98100 0.35790 0.33200
C 	C 	0.80760 0.21870 0.34990 0.11100
H 	H 	0.80320 0.27370 0.31680 -0.01400
C 	C 	0.82880 0.39880 0.74750 0.36400
C 	C 	0.82320 0.37470 0.83720 -0.06000
C 	C 	0.82050 0.42350 0.91390 -0.03800
C 	C 	0.82240 0.51970 0.93670 0.33200
C 	C 	0.81390 0.28170 0.93940 0.09700
H 	H 	0.81120 0.22700 0.97000 -0.01400
C 	C 	0.90490 0.27230 0.19510 0.29600
C 	C 	0.95940 0.20540 0.22780 -0.03400
C 	C 	0.66060 0.36920 0.55960 0.08900
H 	H 	0.69470 0.38450 0.62040 -0.02400
C 	C 	0.58640 0.38500 0.54070 -0.15100
H 	H 	0.57050 0.41300 0.58560 0.08000
C 	C 	0.53690 0.35940 0.45620 0.07800
C 	C 	0.56050 0.31840 0.39500 -0.14500
H 	H 	0.52630 0.29640 0.33700 0.07000
C 	C 	0.63710 0.30880 0.41890 0.07100
H 	H 	0.65430 0.28210 0.37450 -0.01300
C 	C 	0.45530 0.37220 0.43460 0.03100
C 	C 	0.42820 0.36770 0.50910 -0.10800
H 	H 	0.46100 0.35660 0.57160 0.06300
C 	C 	0.35190 0.38030 0.48750 0.06000
H 	H 	0.33360 0.37570 0.53680 -0.01700
C 	C 	0.33110 0.40220 0.33210 0.05300
H 	H 	0.29670 0.41280 0.27030 0.00700
C 	C 	0.40470 0.39160 0.34550 -0.11300
H 	H 	0.42070 0.39760 0.29450 0.06200
C 	C 	0.36270 0.19570 0.79120 0.07500
H 	H 	0.34500 0.22650 0.73290 -0.01400
C 	C 	0.43980 0.18450 0.83520 -0.12700
H 	H 	0.47300 0.20510 0.80710 0.06400
C 	C 	0.46520 0.14240 0.92120 0.04400
C 	C 	0.41300 0.11210 0.95580 -0.11200
H 	H 	0.42930 0.08300 0.01500 0.06600
C 	C 	0.33900 0.12290 0.90700 0.05200
H 	H 	0.30450 0.09900 0.93160 -0.01000
C 	C 	0.54630 0.13140 0.97450 0.06300
C 	C 	0.59640 0.11320 0.93570 -0.13900
H 	H 	0.57980 0.10840 0.86940 0.07100
C 	C 	0.66960 0.10150 0.98670 0.07500
H 	H 	0.70250 0.08840 0.95540 0.00400
C 	C 	0.64730 0.12570 0.12000 0.07400
H 	H 	0.66520 0.13090 0.18630 -0.01800
C 	C 	0.57400 0.13660 0.07250 -0.13500
H 	H 	0.54150 0.14780 0.10490 0.07200
N 	N 	0.81470 0.21580 0.43790 -0.24100
N 	N 	0.80690 0.13940 0.30990 -0.22700
N 	N 	0.81850 0.28510 0.85620 -0.24000
N 	N 	0.81340 0.36390 0.97730 -0.22200
N 	N 	0.93640 0.12090 0.21650 -0.22500
N 	N 	0.68780 0.33540 0.50170 -0.23700
N 	N 	0.30460 0.39820 0.40290 -0.23900
N 	N 	0.31350 0.16720 0.82390 -0.22600
N 	N 	0.69680 0.10800 0.08050 -0.24100
O 	O 	0.82830 0.01920 0.57780 -0.44300
O 	O 	0.82810 0.16460 0.61100 -0.55800
O 	O 	0.81640 0.92040 0.40940 -0.35200
O 	O 	0.81980 0.96720 0.27760 -0.55200
O 	O 	0.82890 0.33390 0.69440 -0.55600
O 	O 	0.83480 0.48000 0.72880 -0.42800
O 	O 	0.82590 0.57990 0.88660 -0.33900
O 	O 	0.82250 0.53620 0.01870 -0.55500
O 	O 	0.83890 0.25140 0.15740 -0.45000
O 	O 	0.92280 0.35650 0.20190 -0.37400
Cd	Cd	0.18191 0.08663 0.32166 1.22000
Cd	Cd	0.18064 0.31636 0.95543 1.20400
Cd	Cd	0.81967 0.18117 0.75468 1.20200
Cd	Cd	0.18446 0.41939 0.38636 1.22700
C 	C 	0.17480 0.09950 0.94400 0.38100
C 	C 	0.18040 0.12350 0.03810 -0.07600
C 	C 	0.18620 0.07750 0.11860 -0.03400
C 	C 	0.18320 0.98100 0.14210 0.33200
C 	C 	0.19240 0.21870 0.15010 0.11000
H 	H 	0.19680 0.27370 0.18320 -0.01500
C 	C 	0.17120 0.39880 0.75250 0.36400
C 	C 	0.17680 0.37470 0.66280 -0.06100
C 	C 	0.17950 0.42350 0.58610 -0.03800
C 	C 	0.17760 0.51970 0.56330 0.33000
C 	C 	0.18610 0.28170 0.56060 0.09600
H 	H 	0.18880 0.22700 0.53000 -0.01400
C 	C 	0.09510 0.27230 0.30490 0.29700
C 	C 	0.04060 0.20540 0.27220 -0.03500
C 	C 	0.33940 0.36920 0.94040 0.08900
H 	H 	0.30530 0.38450 0.87960 -0.02400
C 	C 	0.41360 0.38500 0.95930 -0.15100
H 	H 	0.42950 0.41300 0.91440 0.08100
C 	C 	0.46310 0.35940 0.04380 0.07800
C 	C 	0.43950 0.31840 0.10500 -0.14600
H 	H 	0.47370 0.29640 0.16300 0.07000
C 	C 	0.36290 0.30880 0.08110 0.07100
H 	H 	0.34570 0.28210 0.12550 -0.01300
C 	C 	0.54470 0.37220 0.06540 0.02800
C 	C 	0.57180 0.36770 0.99090 -0.10200
H 	H 	0.53900 0.35660 0.92840 0.06200
C 	C 	0.64810 0.38030 0.01250 0.05400
H 	H 	0.66640 0.37570 0.96320 -0.01500
C 	C 	0.66890 0.40220 0.16790 0.05200
H 	H 	0.70330 0.41280 0.22970 0.00700
C 	C 	0.59530 0.39160 0.15450 -0.11200
H 	H 	0.57930 0.39760 0.20550 0.06200
C 	C 	0.63730 0.19570 0.70880 0.07600
H 	H 	0.65500 0.22650 0.76710 -0.01400
C 	C 	0.56020 0.18450 0.66480 -0.13000
H 	H 	0.52700 0.20510 0.69290 0.06500
C 	C 	0.53480 0.14240 0.57880 0.04800
C 	C 	0.58700 0.11210 0.54420 -0.11800
H 	H 	0.57070 0.08300 0.48500 0.06900
C 	C 	0.66100 0.12290 0.59300 0.05500
H 	H 	0.69550 0.09900 0.56840 -0.01100
C 	C 	0.45370 0.13140 0.52550 0.05600
C 	C 	0.40360 0.11320 0.56430 -0.13400
H 	H 	0.42020 0.10840 0.63060 0.06900
C 	C 	0.33040 0.10150 0.51330 0.06900
H 	H 	0.29750 0.08840 0.54460 0.00600
C 	C 	0.35270 0.12570 0.38000 0.07100
H 	H 	0.33480 0.13090 0.31370 -0.01700
C 	C 	0.42600 0.13660 0.42750 -0.12800
H 	H 	0.45850 0.14780 0.39510 0.07000
N 	N 	0.18530 0.21580 0.06210 -0.24100
N 	N 	0.19310 0.13940 0.19010 -0.22700
N 	N 	0.18150 0.28510 0.64380 -0.24000
N 	N 	0.18660 0.36390 0.52270 -0.22200
N 	N 	0.06360 0.12090 0.28350 -0.22500
N 	N 	0.31220 0.33540 0.99830 -0.23700
N 	N 	0.69540 0.39820 0.09710 -0.23800
N 	N 	0.68650 0.16720 0.67610 -0.22700
N 	N 	0.30320 0.10800 0.41950 -0.23800
O 	O 	0.17170 0.01920 0.92220 -0.44300
O 	O 	0.17190 0.16460 0.88900 -0.55800
O 	O 	0.18360 0.92040 0.09060 -0.35100
O 	O 	0.18020 0.96720 0.22240 -0.55300
O 	O 	0.17110 0.33390 0.80560 -0.55700
O 	O 	0.16520 0.48000 0.77120 -0.42900
O 	O 	0.17410 0.57990 0.61340 -0.33900
O 	O 	0.17750 0.53620 0.48130 -0.55300
O 	O 	0.16110 0.25140 0.34260 -0.45000
O 	O 	0.07720 0.35650 0.29810 -0.37500
Cd	Cd	0.18191 0.91337 0.82166 1.21900
Cd	Cd	0.18064 0.68364 0.45543 1.20400
Cd	Cd	0.81967 0.81883 0.25468 1.20100
Cd	Cd	0.18446 0.58061 0.88636 1.22700
C 	C 	0.17480 0.90050 0.44400 0.38100
C 	C 	0.18040 0.87650 0.53810 -0.07500
C 	C 	0.18620 0.92250 0.61860 -0.03300
C 	C 	0.18320 0.01900 0.64210 0.33100
C 	C 	0.19240 0.78130 0.65010 0.11000
H 	H 	0.19680 0.72630 0.68320 -0.01500
C 	C 	0.17120 0.60120 0.25250 0.36400
C 	C 	0.17680 0.62530 0.16280 -0.06000
C 	C 	0.17950 0.57650 0.08610 -0.03800
C 	C 	0.17760 0.48030 0.06330 0.33200
C 	C 	0.18610 0.71830 0.06060 0.09600
H 	H 	0.18880 0.77300 0.03000 -0.01400
C 	C 	0.09510 0.72770 0.80490 0.29800
C 	C 	0.04060 0.79460 0.77220 -0.03900
C 	C 	0.33940 0.63080 0.44040 0.08900
H 	H 	0.30530 0.61550 0.37960 -0.02400
C 	C 	0.41360 0.61500 0.45930 -0.15100
H 	H 	0.42950 0.58700 0.41440 0.08000
C 	C 	0.46310 0.64060 0.54380 0.07800
C 	C 	0.43950 0.68160 0.60500 -0.14500
H 	H 	0.47370 0.70360 0.66300 0.07000
C 	C 	0.36290 0.69120 0.58110 0.07100
H 	H 	0.34570 0.71790 0.62550 -0.01300
C 	C 	0.54470 0.62780 0.56540 0.03100
C 	C 	0.57180 0.63230 0.49090 -0.10800
H 	H 	0.53900 0.64340 0.42840 0.06300
C 	C 	0.64810 0.61970 0.51250 0.06000
H 	H 	0.66640 0.62430 0.46320 -0.01700
C 	C 	0.66890 0.59780 0.66790 0.05300
H 	H 	0.70330 0.58720 0.72970 0.00700
C 	C 	0.59530 0.60840 0.65450 -0.11300
H 	H 	0.57930 0.60240 0.70550 0.06200
C 	C 	0.63730 0.80430 0.20880 0.07500
H 	H 	0.65500 0.77350 0.26710 -0.01400
C 	C 	0.56020 0.81550 0.16480 -0.12700
H 	H 	0.52700 0.79490 0.19290 0.06400
C 	C 	0.53480 0.85760 0.07880 0.04300
C 	C 	0.58700 0.88790 0.04420 -0.11100
H 	H 	0.57070 0.91700 0.98500 0.06600
C 	C 	0.66100 0.87710 0.09300 0.05200
H 	H 	0.69550 0.90100 0.06840 -0.01000
C 	C 	0.45370 0.86860 0.02550 0.06300
C 	C 	0.40360 0.88680 0.06430 -0.13900
H 	H 	0.42020 0.89160 0.13060 0.07100
C 	C 	0.33040 0.89850 0.01330 0.07600
H 	H 	0.29750 0.91160 0.04460 0.00400
C 	C 	0.35270 0.87430 0.88000 0.07400
H 	H 	0.33480 0.86910 0.81370 -0.01800
C 	C 	0.42600 0.86340 0.92750 -0.13500
H 	H 	0.45850 0.85220 0.89510 0.07200
N 	N 	0.18530 0.78420 0.56210 -0.24100
N 	N 	0.19310 0.86060 0.69010 -0.22700
N 	N 	0.18150 0.71490 0.14380 -0.24000
N 	N 	0.18660 0.63610 0.02270 -0.22200
N 	N 	0.06360 0.87910 0.78350 -0.22500
N 	N 	0.31220 0.66460 0.49830 -0.23700
N 	N 	0.69540 0.60180 0.59710 -0.23900
N 	N 	0.68650 0.83280 0.17610 -0.22600
N 	N 	0.30320 0.89200 0.91950 -0.24100
O 	O 	0.17170 0.98080 0.42220 -0.44300
O 	O 	0.17190 0.83540 0.38900 -0.55800
O 	O 	0.18360 0.07960 0.59060 -0.35200
O 	O 	0.18020 0.03280 0.72240 -0.55300
O 	O 	0.17110 0.66610 0.30560 -0.55700
O 	O 	0.16520 0.52000 0.27120 -0.42900
O 	O 	0.17410 0.42010 0.11340 -0.33900
O 	O 	0.17750 0.46380 0.98130 -0.55500
O 	O 	0.16110 0.74860 0.84260 -0.45100
O 	O 	0.07720 0.64350 0.79810 -0.37600
Cd	Cd	0.81809 0.91337 0.67834 1.22000
Cd	Cd	0.81936 0.68364 0.04457 1.20400
Cd	Cd	0.18033 0.81883 0.24532 1.20100
Cd	Cd	0.81554 0.58061 0.61364 1.22700
C 	C 	0.82520 0.90050 0.05600 0.38100
C 	C 	0.81960 0.87650 0.96190 -0.07600
C 	C 	0.81380 0.92250 0.88140 -0.03300
C 	C 	0.81680 0.01900 0.85790 0.33200
C 	C 	0.80760 0.78130 0.84990 0.11000
H 	H 	0.80320 0.72630 0.81680 -0.01500
C 	C 	0.82880 0.60120 0.24750 0.36400
C 	C 	0.82320 0.62530 0.33720 -0.06000
C 	C 	0.82050 0.57650 0.41390 -0.03800
C 	C 	0.82240 0.48030 0.43670 0.33100
C 	C 	0.81390 0.71830 0.43940 0.09700
H 	H 	0.81120 0.77300 0.47000 -0.01400
C 	C 	0.90490 0.72770 0.69510 0.29500
C 	C 	0.95940 0.79460 0.72780 -0.03000
C 	C 	0.66060 0.63080 0.05960 0.08900
H 	H 	0.69470 0.61550 0.12040 -0.02400
C 	C 	0.58640 0.61500 0.04070 -0.15100
H 	H 	0.57050 0.58700 0.08560 0.08000
C 	C 	0.53690 0.64060 0.95620 0.07800
C 	C 	0.56050 0.68160 0.89500 -0.14500
H 	H 	0.52630 0.70360 0.83700 0.07000
C 	C 	0.63710 0.69120 0.91890 0.07100
H 	H 	0.65430 0.71790 0.87450 -0.01300
C 	C 	0.45530 0.62780 0.93460 0.02700
C 	C 	0.42820 0.63230 0.00910 -0.10200
H 	H 	0.46100 0.64340 0.07160 0.06200
C 	C 	0.35190 0.61970 0.98750 0.05400
H 	H 	0.33360 0.62430 0.03680 -0.01400
C 	C 	0.33110 0.59780 0.83210 0.05100
H 	H 	0.29670 0.58720 0.77030 0.00700
C 	C 	0.40470 0.60840 0.84550 -0.11100
H 	H 	0.42070 0.60240 0.79450 0.06200
C 	C 	0.36270 0.80430 0.29120 0.07600
H 	H 	0.34500 0.77350 0.23290 -0.01400
C 	C 	0.43980 0.81550 0.33520 -0.13000
H 	H 	0.47300 0.79490 0.30710 0.06500
C 	C 	0.46520 0.85760 0.42120 0.04800
C 	C 	0.41300 0.88790 0.45580 -0.11800
H 	H 	0.42930 0.91700 0.51500 0.06900
C 	C 	0.33900 0.87710 0.40700 0.05500
H 	H 	0.30450 0.90100 0.43160 -0.01100
C 	C 	0.54630 0.86860 0.47450 0.05600
C 	C 	0.59640 0.88680 0.43570 -0.13400
H 	H 	0.57980 0.89160 0.36940 0.06900
C 	C 	0.66960 0.89850 0.48670 0.06900
H 	H 	0.70250 0.91160 0.45540 0.00600
C 	C 	0.64730 0.87430 0.62000 0.07100
H 	H 	0.66520 0.86910 0.68630 -0.01700
C 	C 	0.57400 0.86340 0.57250 -0.12800
H 	H 	0.54150 0.85220 0.60490 0.07000
N 	N 	0.81470 0.78420 0.93790 -0.24100
N 	N 	0.80690 0.86060 0.80990 -0.22700
N 	N 	0.81850 0.71490 0.35620 -0.24000
N 	N 	0.81340 0.63610 0.47730 -0.22200
N 	N 	0.93640 0.87910 0.71650 -0.22400
N 	N 	0.68780 0.66460 0.00170 -0.23700
N 	N 	0.30460 0.60180 0.90290 -0.23700
N 	N 	0.31350 0.83280 0.32390 -0.22700
N 	N 	0.69680 0.89200 0.58050 -0.23800
O 	O 	0.82830 0.98080 0.07780 -0.44300
O 	O 	0.82810 0.83540 0.11100 -0.55800
O 	O 	0.81640 0.07960 0.90940 -0.35100
O 	O 	0.81980 0.03280 0.77760 -0.55300
O 	O 	0.82890 0.66610 0.19440 -0.55700
O 	O 	0.83480 0.52000 0.22880 -0.42900
O 	O 	0.82590 0.42010 0.38660 -0.33800
O 	O 	0.82250 0.46380 0.51870 -0.55300
O 	O 	0.83890 0.74860 0.65740 -0.44900
O 	O 	0.92280 0.64350 0.70190 -0.37300
C 	C 	-0.00000 0.06790 0.25000 0.07000
H 	H 	-0.00000 0.00410 0.25000 -0.04100
C 	C 	-0.00000 0.93210 0.75000 0.06700
H 	H 	-0.00000 0.99590 0.75000 -0.04100
