data_crystal

_cell_length_a 33.23700
_cell_length_b 9.71900
_cell_length_c 18.42300
_cell_angle_alpha 90.00000
_cell_angle_beta  90.53800
_cell_angle_gamma 90.00000

_symmetry_space_group_name_	'P 1'
_symmetry_space_group_name_H-M	'P 1'

loop_
_symmetry_equiv_pos_as_xyz
  x,y,z

loop_
_atom_site_label
_atom_site_type_symbol
_atom_site_fract_x
_atom_site_fract_y
_atom_site_fract_z
_atom_site_charge
Zn	Zn	0.36268 0.70620 0.27978 1.18300
Zn	Zn	0.55534 0.79376 0.29322 1.18600
Zn	Zn	0.45896 0.75060 0.28967 1.17300
O 	O 	0.55580 0.70410 0.19840 -0.45300
O 	O 	0.36480 0.81060 0.37660 -0.50000
O 	O 	0.54970 0.33630 0.87420 -0.47700
O 	O 	0.36930 0.17200 0.69720 -0.49400
O 	O 	0.48220 0.32550 0.88090 -0.53400
O 	O 	0.43640 0.18330 0.68910 -0.49800
O 	O 	0.42440 0.87950 0.34960 -0.55400
O 	O 	0.11270 0.33550 0.30270 -0.53300
O 	O 	0.49260 0.62120 0.22460 -0.49200
O 	O 	0.30750 0.65890 0.25670 -0.42600
C 	C 	0.39590 0.87040 0.39110 0.46300
C 	C 	0.52240 0.64240 0.18400 0.33400
C 	C 	0.51810 0.43280 0.97830 -0.11500
C 	C 	0.40150 0.07200 0.59910 -0.12300
C 	C 	0.25050 0.53320 0.29100 -0.08200
C 	C 	0.16940 0.47200 0.27600 -0.12200
C 	C 	0.39900 0.93320 0.46530 -0.15700
C 	C 	0.40190 0.14700 0.66610 0.40100
C 	C 	0.52220 0.56220 0.11300 -0.07600
C 	C 	0.29320 0.56220 0.30060 0.30500
C 	C 	0.51540 0.36010 0.90450 0.39000
C 	C 	0.12390 0.42700 0.27600 0.45900
O 	O 	0.31540 0.48550 0.33630 -0.31200
C 	C 	0.48580 0.49300 0.08860 0.00400
C 	C 	0.43220 0.99200 0.48290 0.03800
C 	C 	0.55150 0.49830 0.99680 0.04900
C 	C 	0.36530 0.01000 0.57270 0.02800
C 	C 	0.48470 0.44400 0.01910 0.02500
O 	O 	0.10280 0.48640 0.22600 -0.34400
C 	C 	0.36730 0.94700 0.50710 0.06000
C 	C 	0.43570 0.06710 0.55230 0.01900
C 	C 	0.55660 0.56900 0.06680 0.02100
C 	C 	0.23640 0.39900 0.31200 0.02900
C 	C 	0.18290 0.59300 0.25890 0.04700
C 	C 	0.19300 0.36600 0.31000 0.04400
C 	C 	0.22070 0.62400 0.27080 0.02800
Zn	Zn	0.86268 0.20620 0.27978 1.18300
Zn	Zn	0.05534 0.29376 0.29322 1.18400
Zn	Zn	0.95896 0.25060 0.28967 1.17300
O 	O 	0.05580 0.20410 0.19840 -0.45200
O 	O 	0.86480 0.31060 0.37660 -0.50000
O 	O 	0.04970 0.83630 0.87420 -0.47700
O 	O 	0.86930 0.67200 0.69720 -0.49400
O 	O 	0.98220 0.82550 0.88090 -0.52100
O 	O 	0.93640 0.68330 0.68910 -0.49600
O 	O 	0.92440 0.37950 0.34960 -0.55300
O 	O 	0.61270 0.83550 0.30270 -0.53100
O 	O 	0.99260 0.12120 0.22460 -0.47800
O 	O 	0.80750 0.15890 0.25670 -0.42600
C 	C 	0.89590 0.37040 0.39110 0.46300
C 	C 	0.02240 0.14240 0.18400 0.31800
C 	C 	0.01810 0.93280 0.97830 -0.12900
C 	C 	0.90150 0.57200 0.59910 -0.12300
C 	C 	0.75050 0.03320 0.29100 -0.08200
C 	C 	0.66940 0.97200 0.27600 -0.12100
C 	C 	0.89900 0.43320 0.46530 -0.15800
C 	C 	0.90190 0.64700 0.66610 0.40100
C 	C 	0.02220 0.06220 0.11300 -0.08700
C 	C 	0.79320 0.06220 0.30060 0.30500
C 	C 	0.01540 0.86010 0.90450 0.37400
C 	C 	0.62390 0.92700 0.27600 0.45900
O 	O 	0.81540 0.98550 0.33630 -0.31200
C 	C 	0.98580 0.99300 0.08860 0.01400
C 	C 	0.93220 0.49200 0.48290 0.04100
C 	C 	0.05150 0.99830 0.99680 0.04900
C 	C 	0.86530 0.51000 0.57270 0.02800
C 	C 	0.98470 0.94400 0.01910 0.03800
O 	O 	0.60280 0.98640 0.22600 -0.34100
C 	C 	0.86730 0.44700 0.50710 0.06000
C 	C 	0.93570 0.56710 0.55230 0.02200
C 	C 	0.05660 0.06900 0.06680 0.01900
C 	C 	0.73640 0.89900 0.31200 0.02900
C 	C 	0.68290 0.09300 0.25890 0.04700
C 	C 	0.69300 0.86600 0.31000 0.04500
C 	C 	0.72070 0.12400 0.27080 0.02800
Zn	Zn	0.36268 0.29380 0.77978 1.18300
Zn	Zn	0.55534 0.20624 0.79322 1.18600
Zn	Zn	0.45896 0.24940 0.78967 1.17300
O 	O 	0.55580 0.29590 0.69840 -0.45300
O 	O 	0.36480 0.18940 0.87660 -0.49800
O 	O 	0.54970 0.66370 0.37420 -0.47800
O 	O 	0.36930 0.82800 0.19720 -0.49500
O 	O 	0.48220 0.67450 0.38090 -0.53500
O 	O 	0.43640 0.81670 0.18910 -0.49900
O 	O 	0.42440 0.12050 0.84960 -0.55300
O 	O 	0.11270 0.66450 0.80270 -0.53200
O 	O 	0.49260 0.37880 0.72460 -0.49100
O 	O 	0.30750 0.34110 0.75670 -0.42500
C 	C 	0.39590 0.12960 0.89110 0.46100
C 	C 	0.52240 0.35760 0.68400 0.33400
C 	C 	0.51810 0.56720 0.47830 -0.12100
C 	C 	0.40150 0.92800 0.09910 -0.12300
C 	C 	0.25050 0.46680 0.79100 -0.08200
C 	C 	0.16940 0.52800 0.77600 -0.12200
C 	C 	0.39900 0.06680 0.96530 -0.15000
C 	C 	0.40190 0.85300 0.16610 0.40100
C 	C 	0.52220 0.43780 0.61300 -0.07600
C 	C 	0.29320 0.43780 0.80060 0.30600
C 	C 	0.51540 0.63990 0.40450 0.39100
C 	C 	0.12390 0.57300 0.77600 0.45900
O 	O 	0.31540 0.51450 0.83630 -0.31100
C 	C 	0.48580 0.50700 0.58860 0.00400
C 	C 	0.43220 0.00800 0.98290 0.04100
C 	C 	0.55150 0.50170 0.49680 0.04500
C 	C 	0.36530 0.99000 0.07270 0.03000
C 	C 	0.48470 0.55600 0.51910 0.03100
O 	O 	0.10280 0.51360 0.72600 -0.34300
C 	C 	0.36730 0.05300 0.00710 0.05100
C 	C 	0.43570 0.93290 0.05230 0.01500
C 	C 	0.55660 0.43100 0.56680 0.02500
C 	C 	0.23640 0.60100 0.81200 0.02900
C 	C 	0.18290 0.40700 0.75890 0.04800
C 	C 	0.19300 0.63400 0.81000 0.04500
C 	C 	0.22070 0.37600 0.77080 0.02800
Zn	Zn	0.86268 0.79380 0.77978 1.18300
Zn	Zn	0.05534 0.70624 0.79322 1.18400
Zn	Zn	0.95896 0.74940 0.78967 1.17300
O 	O 	0.05580 0.79590 0.69840 -0.45200
O 	O 	0.86480 0.68940 0.87660 -0.49800
O 	O 	0.04970 0.16370 0.37420 -0.47800
O 	O 	0.86930 0.32800 0.19720 -0.49400
O 	O 	0.98220 0.17450 0.38090 -0.52200
O 	O 	0.93640 0.31670 0.18910 -0.49600
O 	O 	0.92440 0.62050 0.84960 -0.55200
O 	O 	0.61270 0.16450 0.80270 -0.53100
O 	O 	0.99260 0.87880 0.72460 -0.47700
O 	O 	0.80750 0.84110 0.75670 -0.42500
C 	C 	0.89590 0.62960 0.89110 0.46200
C 	C 	0.02240 0.85760 0.68400 0.31800
C 	C 	0.01810 0.06720 0.47830 -0.13400
C 	C 	0.90150 0.42800 0.09910 -0.12300
C 	C 	0.75050 0.96680 0.79100 -0.08200
C 	C 	0.66940 0.02800 0.77600 -0.12100
C 	C 	0.89900 0.56680 0.96530 -0.15200
C 	C 	0.90190 0.35300 0.16610 0.40100
C 	C 	0.02220 0.93780 0.61300 -0.08700
C 	C 	0.79320 0.93780 0.80060 0.30500
C 	C 	0.01540 0.13990 0.40450 0.37500
C 	C 	0.62390 0.07300 0.77600 0.45900
O 	O 	0.81540 0.01450 0.83630 -0.31100
C 	C 	0.98580 0.00700 0.58860 0.01400
C 	C 	0.93220 0.50800 0.98290 0.04400
C 	C 	0.05150 0.00170 0.49680 0.04600
C 	C 	0.86530 0.49000 0.07270 0.02900
C 	C 	0.98470 0.05600 0.51910 0.04500
O 	O 	0.60280 0.01360 0.72600 -0.34100
C 	C 	0.86730 0.55300 0.00710 0.05300
C 	C 	0.93570 0.43290 0.05230 0.01800
C 	C 	0.05660 0.93100 0.56680 0.02400
C 	C 	0.73640 0.10100 0.81200 0.03000
C 	C 	0.68290 0.90700 0.75890 0.04800
C 	C 	0.69300 0.13400 0.81000 0.04500
C 	C 	0.72070 0.87600 0.77080 0.02800
