data_crystal

_cell_length_a 11.23370
_cell_length_b 11.23370
_cell_length_c 22.24500
_cell_angle_alpha 96.23370
_cell_angle_beta  96.23370
_cell_angle_gamma 100.98100

_symmetry_space_group_name_	'P 1'
_symmetry_space_group_name_H-M	'P 1'

loop_
_symmetry_equiv_pos_as_xyz
  x,y,z

loop_
_atom_site_label
_atom_site_type_symbol
_atom_site_fract_x
_atom_site_fract_y
_atom_site_fract_z
_atom_site_charge
Cd	Cd	0.70165 0.84630 0.36744 1.13000
Cd	Cd	0.84629 0.70165 0.86744 1.13000
H 	H 	0.78810 0.29670 0.50220 0.09200
H 	H 	0.84270 0.61950 0.61170 0.08100
H 	H 	0.12040 0.44020 0.59880 0.08400
H 	H 	0.07880 0.23140 0.55170 0.02400
H 	H 	0.05130 0.26610 0.48440 0.06600
H 	H 	0.91480 0.09340 0.41300 -0.03400
H 	H 	0.71910 0.91690 0.52510 -0.01000
H 	H 	0.86340 0.09120 0.58720 0.00700
H 	H 	0.63680 0.51860 0.56810 0.05700
H 	H 	0.61230 0.38530 0.52970 0.05300
H 	H 	0.70250 0.70530 0.50770 -0.02100
H 	H 	0.62060 0.53420 0.33940 -0.02400
H 	H 	0.60200 0.37540 0.40830 0.01900
H 	H 	0.06520 0.72960 0.64030 0.06900
H 	H 	0.16630 0.64750 0.64670 0.07200
H 	H 	0.93430 0.74550 0.72970 -0.04300
H 	H 	0.12130 0.59630 0.85030 -0.01000
H 	H 	0.19890 0.55730 0.75230 0.01300
H 	H 	0.29670 0.78810 0.00220 0.09000
H 	H 	0.61950 0.84270 0.11170 0.08000
H 	H 	0.44020 0.12040 0.09880 0.08200
H 	H 	0.23140 0.07880 0.05170 0.02200
H 	H 	0.26610 0.05130 0.98440 0.06300
H 	H 	0.09340 0.91480 0.91300 -0.03500
H 	H 	0.91690 0.71910 0.02510 -0.01100
H 	H 	0.09120 0.86340 0.08720 0.00700
H 	H 	0.51860 0.63680 0.06810 0.05700
H 	H 	0.38530 0.61230 0.02970 0.05300
H 	H 	0.70530 0.70250 0.00770 -0.02100
H 	H 	0.53420 0.62060 0.83940 -0.02400
H 	H 	0.37540 0.60200 0.90830 0.01900
H 	H 	0.72960 0.06520 0.14030 0.06800
H 	H 	0.64750 0.16630 0.14670 0.07200
H 	H 	0.74550 0.93430 0.22970 -0.04300
H 	H 	0.59630 0.12130 0.35030 -0.01000
H 	H 	0.55730 0.19890 0.25230 0.01300
C 	C 	0.96111 0.35131 0.54672 0.13500
C 	C 	0.84067 0.35953 0.53026 -0.19900
C 	C 	0.79602 0.45944 0.55466 0.13300
C 	C 	0.87338 0.55176 0.59495 -0.20700
C 	C 	0.99531 0.54671 0.61130 0.14100
C 	C 	0.03771 0.44543 0.58731 -0.20600
C 	C 	0.01356 0.24488 0.52103 -0.13200
C 	C 	0.88298 0.07068 0.44890 0.07900
C 	C 	0.77745 0.97515 0.50997 -0.01000
C 	C 	0.85571 0.07061 0.54423 -0.01700
C 	C 	0.66494 0.46812 0.53538 -0.14200
C 	C 	0.67941 0.64281 0.47374 0.07500
C 	C 	0.63520 0.54930 0.38265 -0.02200
C 	C 	0.62416 0.46138 0.42005 -0.01300
C 	C 	0.08100 0.65142 0.65273 -0.15700
C 	C 	0.99064 0.70236 0.74794 0.05700
C 	C 	0.09218 0.62162 0.81301 -0.00900
C 	C 	0.13543 0.59997 0.75958 -0.01900
C 	C 	0.35131 0.96111 0.04672 0.12800
C 	C 	0.35953 0.84067 0.03026 -0.19400
C 	C 	0.45944 0.79602 0.05466 0.13000
C 	C 	0.55176 0.87338 0.09495 -0.20300
C 	C 	0.54671 0.99531 0.11130 0.13500
C 	C 	0.44543 0.03771 0.08731 -0.19900
C 	C 	0.24488 0.01356 0.02103 -0.12400
C 	C 	0.07068 0.88298 0.94890 0.08300
C 	C 	0.97515 0.77745 0.00997 -0.00800
C 	C 	0.07061 0.85571 0.04423 -0.01900
C 	C 	0.46812 0.66494 0.03538 -0.14100
C 	C 	0.64281 0.67941 0.97374 0.07600
C 	C 	0.54930 0.63520 0.88265 -0.02200
C 	C 	0.46138 0.62416 0.92005 -0.01300
C 	C 	0.65142 0.08100 0.15273 -0.15400
C 	C 	0.70236 0.99064 0.24794 0.05700
C 	C 	0.62162 0.09218 0.31301 -0.00900
C 	C 	0.59997 0.13543 0.25958 -0.01900
N 	N 	0.92193 0.13193 0.50463 -0.11100
N 	N 	0.79522 0.97518 0.44970 -0.27300
N 	N 	0.65176 0.52228 0.47837 -0.10500
N 	N 	0.67056 0.66336 0.41614 -0.25700
N 	N 	0.06937 0.65163 0.71776 -0.10300
N 	N 	0.00050 0.68552 0.80583 -0.26200
N 	N 	0.13193 0.92193 0.00463 -0.11400
N 	N 	0.97518 0.79522 0.94970 -0.27400
N 	N 	0.52228 0.65176 0.97837 -0.10500
N 	N 	0.66336 0.67056 0.91614 -0.25700
N 	N 	0.65163 0.06937 0.21776 -0.10400
N 	N 	0.68552 0.00050 0.30583 -0.26200
Cd	Cd	0.15370 0.29835 0.13256 1.12900
Cd	Cd	0.29835 0.15371 0.63256 1.12900
H 	H 	0.70330 0.21190 0.99780 0.09000
H 	H 	0.38050 0.15730 0.88830 0.08000
H 	H 	0.55980 0.87960 0.90120 0.08200
H 	H 	0.76860 0.92120 0.94830 0.02200
H 	H 	0.73390 0.94870 0.01560 0.06300
H 	H 	0.90660 0.08520 0.08700 -0.03500
H 	H 	0.08310 0.28090 0.97490 -0.01100
H 	H 	0.90880 0.13660 0.91280 0.00700
H 	H 	0.48140 0.36320 0.93190 0.05700
H 	H 	0.61470 0.38770 0.97030 0.05300
H 	H 	0.29470 0.29750 0.99230 -0.02100
H 	H 	0.46580 0.37940 0.16060 -0.02400
H 	H 	0.62460 0.39800 0.09170 0.01900
H 	H 	0.27040 0.93480 0.85970 0.06800
H 	H 	0.35250 0.83370 0.85330 0.07200
H 	H 	0.25450 0.06570 0.77030 -0.04300
H 	H 	0.40370 0.87870 0.64970 -0.01000
H 	H 	0.44270 0.80110 0.74770 0.01300
H 	H 	0.21190 0.70330 0.49780 0.09200
H 	H 	0.15730 0.38050 0.38830 0.08100
H 	H 	0.87960 0.55980 0.40120 0.08400
H 	H 	0.92120 0.76860 0.44830 0.02400
H 	H 	0.94870 0.73390 0.51560 0.06600
H 	H 	0.08520 0.90660 0.58700 -0.03400
H 	H 	0.28090 0.08310 0.47490 -0.01000
H 	H 	0.13660 0.90880 0.41280 0.00700
H 	H 	0.36320 0.48140 0.43190 0.05700
H 	H 	0.38770 0.61470 0.47030 0.05300
H 	H 	0.29750 0.29470 0.49230 -0.02100
H 	H 	0.37940 0.46580 0.66060 -0.02400
H 	H 	0.39800 0.62460 0.59170 0.01900
H 	H 	0.93480 0.27040 0.35970 0.06900
H 	H 	0.83370 0.35250 0.35330 0.07200
H 	H 	0.06570 0.25450 0.27030 -0.04300
H 	H 	0.87870 0.40370 0.14970 -0.01000
H 	H 	0.80110 0.44270 0.24770 0.01300
C 	C 	0.64869 0.03889 0.95328 0.12800
C 	C 	0.64047 0.15933 0.96974 -0.19400
C 	C 	0.54056 0.20398 0.94534 0.13000
C 	C 	0.44824 0.12662 0.90505 -0.20300
C 	C 	0.45329 0.00469 0.88870 0.13500
C 	C 	0.55457 0.96229 0.91269 -0.19900
C 	C 	0.75512 0.98644 0.97897 -0.12400
C 	C 	0.92932 0.11702 0.05110 0.08300
C 	C 	0.02485 0.22255 0.99003 -0.00800
C 	C 	0.92939 0.14429 0.95577 -0.01900
C 	C 	0.53188 0.33506 0.96462 -0.14100
C 	C 	0.35719 0.32059 0.02626 0.07600
C 	C 	0.45070 0.36480 0.11735 -0.02200
C 	C 	0.53862 0.37584 0.07995 -0.01300
C 	C 	0.34858 0.91900 0.84727 -0.15400
C 	C 	0.29764 0.00936 0.75206 0.05700
C 	C 	0.37838 0.90782 0.68699 -0.00900
C 	C 	0.40003 0.86457 0.74042 -0.01900
C 	C 	0.03889 0.64869 0.45328 0.13500
C 	C 	0.15933 0.64047 0.46974 -0.19900
C 	C 	0.20398 0.54056 0.44534 0.13300
C 	C 	0.12662 0.44824 0.40505 -0.20700
C 	C 	0.00469 0.45329 0.38870 0.14100
C 	C 	0.96229 0.55457 0.41269 -0.20600
C 	C 	0.98644 0.75512 0.47897 -0.13200
C 	C 	0.11702 0.92932 0.55110 0.07900
C 	C 	0.22255 0.02485 0.49003 -0.01000
C 	C 	0.14429 0.92939 0.45577 -0.01700
C 	C 	0.33506 0.53188 0.46462 -0.14200
C 	C 	0.32059 0.35719 0.52626 0.07500
C 	C 	0.36480 0.45070 0.61735 -0.02200
C 	C 	0.37584 0.53862 0.57995 -0.01300
C 	C 	0.91900 0.34858 0.34727 -0.15700
C 	C 	0.00936 0.29764 0.25206 0.05700
C 	C 	0.90782 0.37838 0.18699 -0.00900
C 	C 	0.86457 0.40003 0.24042 -0.01900
N 	N 	0.86807 0.07807 0.99537 -0.11400
N 	N 	0.02482 0.20478 0.05030 -0.27400
N 	N 	0.47772 0.34824 0.02163 -0.10500
N 	N 	0.33664 0.32944 0.08386 -0.25700
N 	N 	0.34837 0.93063 0.78224 -0.10400
N 	N 	0.31448 0.99950 0.69417 -0.26200
N 	N 	0.07807 0.86807 0.49537 -0.11100
N 	N 	0.20478 0.02482 0.55030 -0.27300
N 	N 	0.34824 0.47772 0.52163 -0.10500
N 	N 	0.32944 0.33664 0.58386 -0.25700
N 	N 	0.93063 0.34837 0.28224 -0.10300
N 	N 	0.99950 0.31448 0.19417 -0.26200
