data_crystal

_cell_length_a 6.98160
_cell_length_b 15.96690
_cell_length_c 15.96690
_cell_angle_alpha 62.08670
_cell_angle_beta  81.61920
_cell_angle_gamma 98.38080

_symmetry_space_group_name_	'P 1'
_symmetry_space_group_name_H-M	'P 1'

loop_
_symmetry_equiv_pos_as_xyz
  x,y,z

loop_
_atom_site_label
_atom_site_type_symbol
_atom_site_fract_x
_atom_site_fract_y
_atom_site_fract_z
_atom_site_charge
Ho	Ho	0.28915 0.06431 0.84704 1.71800
Ho	Ho	0.13619 0.84704 0.08865 1.91500
Ho	Ho	0.22484 0.08865 0.06431 1.85600
Ho	Ho	0.71085 0.93569 0.15296 1.98100
Ho	Ho	0.86381 0.15296 0.91135 1.76800
Ho	Ho	0.77516 0.91135 0.93569 1.83100
Cu	Cu	0.50000 0.00000 0.50000 0.86100
Cu	Cu	-0.00000 0.50000 0.50000 0.88700
Cu	Cu	0.50000 0.50000 -0.00000 0.91000
H 	H 	0.84580 0.91000 0.57780 0.05400
H 	H 	0.95880 0.87550 0.71610 0.00500
H 	H 	0.42360 0.57780 0.51220 0.04500
H 	H 	0.67490 0.71610 0.40840 -0.00200
H 	H 	0.93580 0.51220 0.91000 0.03700
H 	H 	0.08330 0.40840 0.87550 -0.00600
H 	H 	0.15420 0.09000 0.42220 0.03600
H 	H 	0.04120 0.12450 0.28390 -0.01200
H 	H 	0.57640 0.42220 0.48780 0.04400
H 	H 	0.32510 0.28390 0.59160 -0.00200
H 	H 	0.06420 0.48780 0.09000 0.04500
H 	H 	0.91670 0.59160 0.12450 0.01200
C 	C 	0.61450 0.96990 0.75740 0.28000
C 	C 	0.54060 0.98700 0.67430 -0.12700
C 	C 	0.78360 0.92420 0.62350 -0.04100
C 	C 	0.85190 0.90450 0.70610 0.08700
C 	C 	0.36650 0.02900 0.65000 0.33200
C 	C 	0.37190 0.75740 0.27270 0.29900
C 	C 	0.21490 0.67430 0.33870 -0.20400
C 	C 	0.40710 0.62350 0.45230 -0.05200
C 	C 	0.55800 0.70610 0.38940 0.08600
C 	C 	0.01650 0.65000 0.32100 0.40100
C 	C 	0.64460 0.27270 0.96990 0.31000
C 	C 	0.55360 0.33870 0.98700 -0.25900
C 	C 	0.85940 0.45230 0.92420 -0.05800
C 	C 	0.94740 0.38940 0.90450 0.07600
C 	C 	0.33750 0.32100 0.02900 0.46400
C 	C 	0.38550 0.03010 0.24260 0.31700
C 	C 	0.45940 0.01300 0.32570 -0.28000
C 	C 	0.21640 0.07580 0.37650 -0.06300
C 	C 	0.14810 0.09550 0.29390 0.07800
C 	C 	0.63350 0.97100 0.35000 0.48600
C 	C 	0.62810 0.24260 0.72730 0.29600
C 	C 	0.78510 0.32570 0.66130 -0.20500
C 	C 	0.59290 0.37650 0.54770 -0.05100
C 	C 	0.44200 0.29390 0.61060 0.07900
C 	C 	0.98350 0.35000 0.67900 0.41100
C 	C 	0.35540 0.72730 0.03010 0.28600
C 	C 	0.44640 0.66130 0.01300 -0.15100
C 	C 	0.14060 0.54770 0.07580 -0.03700
C 	C 	0.05260 0.61060 0.09550 0.07000
C 	C 	0.66250 0.67900 0.97100 0.35700
N 	N 	0.76926 0.92606 0.77188 -0.25200
N 	N 	0.62760 0.96370 0.61020 -0.16000
N 	N 	0.54114 0.77188 0.30206 -0.26800
N 	N 	0.23780 0.61020 0.42610 -0.16600
N 	N 	0.84320 0.30206 0.92606 -0.26600
N 	N 	0.66390 0.42610 0.96370 -0.17000
N 	N 	0.23074 0.07394 0.22812 -0.27400
N 	N 	0.37240 0.03630 0.38980 -0.16400
N 	N 	0.45886 0.22812 0.69794 -0.25700
N 	N 	0.76220 0.38980 0.57390 -0.16600
N 	N 	0.15680 0.69794 0.07394 -0.25800
N 	N 	0.33610 0.57390 0.03630 -0.16800
O 	O 	0.54781 0.99116 0.82273 -0.50600
O 	O 	0.27046 0.05082 0.70554 -0.44900
O 	O 	0.32350 0.04090 0.57130 -0.43300
O 	O 	0.20406 0.17334 0.90186 -0.65000
O 	O 	0.37054 0.82273 0.18611 -0.55200
O 	O 	0.97600 0.70554 0.24364 -0.45500
O 	O 	0.89480 0.57130 0.38780 -0.42500
O 	O 	0.10592 0.90186 0.92480 -0.63800
O 	O 	0.55665 0.18611 0.99116 -0.57600
O 	O 	0.21964 0.24364 0.05082 -0.45300
O 	O 	0.28260 0.38780 0.04090 -0.42800
O 	O 	0.03072 0.92480 0.17334 -0.64000
O 	O 	0.45219 0.00884 0.17727 -0.59300
O 	O 	0.72954 0.94918 0.29446 -0.46000
O 	O 	0.67650 0.95910 0.42870 -0.41600
O 	O 	0.79594 0.82666 0.09814 -0.64300
O 	O 	0.62946 0.17727 0.81389 -0.54700
O 	O 	0.02400 0.29446 0.75636 -0.44800
O 	O 	0.10520 0.42870 0.61220 -0.43100
O 	O 	0.89408 0.09814 0.07520 -0.65000
O 	O 	0.44335 0.81389 0.00884 -0.52100
O 	O 	0.78036 0.75636 0.94918 -0.45900
O 	O 	0.71740 0.61220 0.95910 -0.44100
O 	O 	0.96928 0.07520 0.82666 -0.65800
O 	O 	0.32017 1.00000 -0.00000 -0.70100
O 	O 	0.67983 1.00000 -0.00000 -0.70900
O 	O 	-0.00000 0.00000 -0.00000 -0.71900
