data_crystal

_cell_length_a 27.29400
_cell_length_b 27.29400
_cell_length_c 6.95650
_cell_angle_alpha 90.00000
_cell_angle_beta  90.00000
_cell_angle_gamma 120.00000

_symmetry_space_group_name_	'P 1'
_symmetry_space_group_name_H-M	'P 1'

loop_
_symmetry_equiv_pos_as_xyz
  x,y,z

loop_
_atom_site_label
_atom_site_type_symbol
_atom_site_fract_x
_atom_site_fract_y
_atom_site_fract_z
_atom_site_charge
Er	Er	0.74726 0.34170 0.11645 1.89900
O 	O 	0.78788 0.39840 0.84140 -0.57000
O 	O 	0.84571 0.39787 0.17850 -0.49800
O 	O 	0.93860 0.44940 0.16730 -0.44900
O 	O 	0.75692 0.34114 0.44570 -0.93900
H 	H 	0.78830 0.34580 0.47930 0.35400
N 	N 	0.84315 0.45870 0.61470 -0.28300
N 	N 	0.93850 0.48740 0.82270 -0.16800
C 	C 	0.83780 0.43420 0.78970 0.28900
C 	C 	0.88800 0.45070 0.89690 -0.18900
C 	C 	0.94200 0.50950 0.65000 -0.06000
H 	H 	0.97710 0.53480 0.59830 0.03600
C 	C 	0.89340 0.49470 0.54700 0.08700
H 	H 	0.89630 0.51070 0.42660 -0.02100
C 	C 	0.88960 0.43050 0.09540 0.39200
Er	Er	0.41393 0.67504 0.44978 1.93900
O 	O 	0.45455 0.73173 0.17473 -0.59400
O 	O 	0.51238 0.73120 0.51183 -0.50400
O 	O 	0.60527 0.78273 0.50063 -0.44300
O 	O 	0.42359 0.67447 0.77903 -0.94800
H 	H 	0.45497 0.67913 0.81263 0.36000
N 	N 	0.50982 0.79203 0.94803 -0.27300
N 	N 	0.60517 0.82073 0.15603 -0.18000
C 	C 	0.50447 0.76753 0.12303 0.27900
C 	C 	0.55467 0.78403 0.23023 -0.22200
C 	C 	0.60867 0.84283 0.98333 -0.03300
H 	H 	0.64377 0.86813 0.93163 0.03800
C 	C 	0.56007 0.82803 0.88033 0.07900
H 	H 	0.56297 0.84403 0.75993 -0.01500
C 	C 	0.55627 0.76383 0.42873 0.42600
Er	Er	0.08060 0.00837 0.78312 1.99100
O 	O 	0.12121 0.06507 0.50807 -0.59300
O 	O 	0.17904 0.06454 0.84517 -0.49800
O 	O 	0.27193 0.11607 0.83397 -0.43200
O 	O 	0.09025 0.00781 0.11237 -0.94900
H 	H 	0.12163 0.01247 0.14597 0.35700
N 	N 	0.17648 0.12537 0.28137 -0.28700
N 	N 	0.27183 0.15407 0.48937 -0.16300
C 	C 	0.17113 0.10087 0.45637 0.30100
C 	C 	0.22133 0.11737 0.56357 -0.22400
C 	C 	0.27533 0.17617 0.31667 -0.06300
H 	H 	0.31043 0.20147 0.26497 0.04000
C 	C 	0.22673 0.16137 0.21367 0.08800
H 	H 	0.22963 0.17737 0.09327 -0.02500
C 	C 	0.22293 0.09717 0.76207 0.43000
Er	Er	0.65830 0.40556 0.11645 1.89700
O 	O 	0.60160 0.38948 0.84140 -0.57000
O 	O 	0.60213 0.44784 0.17850 -0.49700
O 	O 	0.55060 0.48920 0.16730 -0.44000
O 	O 	0.65886 0.41578 0.44570 -0.94000
H 	H 	0.65420 0.44250 0.47930 0.35500
N 	N 	0.54130 0.38445 0.61470 -0.28300
N 	N 	0.51260 0.45110 0.82270 -0.16300
C 	C 	0.56580 0.40360 0.78970 0.28900
C 	C 	0.54930 0.43730 0.89690 -0.18600
C 	C 	0.49050 0.43250 0.65000 -0.05800
H 	H 	0.46520 0.44230 0.59830 0.04300
C 	C 	0.50530 0.39870 0.54700 0.08800
H 	H 	0.48930 0.38560 0.42660 -0.01900
C 	C 	0.56950 0.45910 0.09540 0.39100
Er	Er	0.32496 0.73889 0.44978 1.93900
O 	O 	0.26827 0.72281 0.17473 -0.59400
O 	O 	0.26880 0.78117 0.51183 -0.50400
O 	O 	0.21727 0.82253 0.50063 -0.44300
O 	O 	0.32553 0.74911 0.77903 -0.94800
H 	H 	0.32087 0.77583 0.81263 0.36000
N 	N 	0.20797 0.71778 0.94803 -0.27300
N 	N 	0.17927 0.78443 0.15603 -0.17900
C 	C 	0.23247 0.73693 0.12303 0.28000
C 	C 	0.21597 0.77063 0.23023 -0.22200
C 	C 	0.15717 0.76583 0.98333 -0.03100
H 	H 	0.13187 0.77563 0.93163 0.04100
C 	C 	0.17197 0.73203 0.88033 0.08000
H 	H 	0.15597 0.71893 0.75993 -0.01200
C 	C 	0.23617 0.79243 0.42873 0.42600
Er	Er	0.99163 0.07223 0.78312 1.91500
O 	O 	0.93493 0.05615 0.50807 -0.58400
O 	O 	0.93546 0.11451 0.84517 -0.49600
O 	O 	0.88393 0.15587 0.83397 -0.43600
O 	O 	0.99219 0.08245 0.11237 -0.94900
H 	H 	0.98753 0.10917 0.14597 0.34800
N 	N 	0.87463 0.05112 0.28137 -0.27700
N 	N 	0.84593 0.11777 0.48937 -0.16400
C 	C 	0.89913 0.07027 0.45637 0.30000
C 	C 	0.88263 0.10397 0.56357 -0.22300
C 	C 	0.82383 0.09917 0.31667 -0.06000
H 	H 	0.79853 0.10897 0.26497 0.04100
C 	C 	0.83863 0.06537 0.21367 0.08600
H 	H 	0.82263 0.05227 0.09327 -0.01800
C 	C 	0.90283 0.12577 0.76207 0.42600
Er	Er	0.59444 0.25274 0.11645 1.89800
O 	O 	0.61052 0.21212 0.84140 -0.57000
O 	O 	0.55216 0.15429 0.17850 -0.49600
O 	O 	0.51080 0.06140 0.16730 -0.43300
O 	O 	0.58422 0.24308 0.44570 -0.94100
H 	H 	0.55750 0.21170 0.47930 0.35500
N 	N 	0.61555 0.15685 0.61470 -0.28300
N 	N 	0.54890 0.06150 0.82270 -0.16000
C 	C 	0.59640 0.16220 0.78970 0.28900
C 	C 	0.56270 0.11200 0.89690 -0.18400
C 	C 	0.56750 0.05800 0.65000 -0.05700
H 	H 	0.55770 0.02290 0.59830 0.05000
C 	C 	0.60130 0.10660 0.54700 0.09000
H 	H 	0.61440 0.10370 0.42660 -0.01800
C 	C 	0.54090 0.11040 0.09540 0.39000
Er	Er	0.26111 0.58607 0.44978 1.94000
O 	O 	0.27719 0.54545 0.17473 -0.59400
O 	O 	0.21883 0.48762 0.51183 -0.50300
O 	O 	0.17747 0.39473 0.50063 -0.44100
O 	O 	0.25089 0.57641 0.77903 -0.94800
H 	H 	0.22417 0.54503 0.81263 0.36100
N 	N 	0.28222 0.49018 0.94803 -0.27300
N 	N 	0.21557 0.39483 0.15603 -0.17900
C 	C 	0.26307 0.49553 0.12303 0.28000
C 	C 	0.22937 0.44533 0.23023 -0.22200
C 	C 	0.23417 0.39133 0.98333 -0.03200
H 	H 	0.22437 0.35623 0.93163 0.03900
C 	C 	0.26797 0.43993 0.88033 0.08000
H 	H 	0.28107 0.43703 0.75993 -0.01400
C 	C 	0.20757 0.44373 0.42873 0.42600
Er	Er	0.92777 0.91940 0.78312 1.90900
O 	O 	0.94385 0.87879 0.50807 -0.59800
O 	O 	0.88549 0.82096 0.84517 -0.49600
O 	O 	0.84413 0.72807 0.83397 -0.43400
O 	O 	0.91755 0.90975 0.11237 -0.95200
H 	H 	0.89083 0.87837 0.14597 0.35300
N 	N 	0.94888 0.82352 0.28137 -0.29100
N 	N 	0.88223 0.72817 0.48937 -0.16400
C 	C 	0.92973 0.82887 0.45637 0.29700
C 	C 	0.89603 0.77867 0.56357 -0.22500
C 	C 	0.90083 0.72467 0.31667 -0.06500
H 	H 	0.89103 0.68957 0.26497 0.03900
C 	C 	0.93463 0.77327 0.21367 0.08600
H 	H 	0.94773 0.77037 0.09327 -0.02800
C 	C 	0.87423 0.77707 0.76207 0.42600
Er	Er	0.25274 0.65830 0.88355 1.96300
O 	O 	0.21212 0.60160 0.15860 -0.60300
O 	O 	0.15429 0.60213 0.82150 -0.50800
O 	O 	0.06140 0.55060 0.83270 -0.43300
O 	O 	0.24308 0.65886 0.55430 -0.94700
H 	H 	0.21170 0.65420 0.52070 0.35600
N 	N 	0.15685 0.54130 0.38530 -0.28700
N 	N 	0.06150 0.51260 0.17730 -0.16100
C 	C 	0.16220 0.56580 0.21030 0.30600
C 	C 	0.11200 0.54930 0.10310 -0.24900
C 	C 	0.05800 0.49050 0.35000 -0.06300
H 	H 	0.02290 0.46520 0.40170 0.05100
C 	C 	0.10660 0.50530 0.45300 0.09100
H 	H 	0.10370 0.48930 0.57340 -0.01400
C 	C 	0.11040 0.56950 0.90460 0.45300
Er	Er	0.91940 0.99163 0.21688 1.85900
O 	O 	0.87879 0.93493 0.49193 -0.58900
O 	O 	0.82096 0.93546 0.15483 -0.50800
O 	O 	0.72807 0.88393 0.16603 -0.45300
O 	O 	0.90975 0.99219 0.88763 -0.93500
H 	H 	0.87837 0.98753 0.85403 0.35400
N 	N 	0.82352 0.87463 0.71863 -0.28100
N 	N 	0.72817 0.84593 0.51063 -0.16500
C 	C 	0.82887 0.89913 0.54363 0.29800
C 	C 	0.77867 0.88263 0.43643 -0.22500
C 	C 	0.72467 0.82383 0.68333 -0.06000
H 	H 	0.68957 0.79853 0.73503 0.04600
C 	C 	0.77327 0.83863 0.78633 0.08900
H 	H 	0.77037 0.82263 0.90673 -0.01000
C 	C 	0.77707 0.90283 0.23793 0.42600
Er	Er	0.58607 0.32496 0.55022 1.94000
O 	O 	0.54545 0.26827 0.82527 -0.58600
O 	O 	0.48762 0.26880 0.48817 -0.50700
O 	O 	0.39473 0.21727 0.49937 -0.44500
O 	O 	0.57641 0.32553 0.22097 -0.93800
H 	H 	0.54503 0.32087 0.18737 0.34700
N 	N 	0.49018 0.20797 0.05197 -0.30600
N 	N 	0.39483 0.17927 0.84397 -0.14100
C 	C 	0.49553 0.23247 0.87697 0.33300
C 	C 	0.44533 0.21597 0.76977 -0.23000
C 	C 	0.39133 0.15717 0.01667 -0.10600
H 	H 	0.35623 0.13187 0.06837 0.05300
C 	C 	0.43993 0.17197 0.11967 0.10300
H 	H 	0.43703 0.15597 0.24007 -0.02100
C 	C 	0.44373 0.23617 0.57127 0.43300
Er	Er	0.34170 0.59444 0.88355 1.96200
O 	O 	0.39840 0.61052 0.15860 -0.60300
O 	O 	0.39787 0.55216 0.82150 -0.50900
O 	O 	0.44940 0.51080 0.83270 -0.44000
O 	O 	0.34114 0.58422 0.55430 -0.94700
H 	H 	0.34580 0.55750 0.52070 0.35500
N 	N 	0.45870 0.61555 0.38530 -0.28700
N 	N 	0.48740 0.54890 0.17730 -0.16300
C 	C 	0.43420 0.59640 0.21030 0.30500
C 	C 	0.45070 0.56270 0.10310 -0.25000
C 	C 	0.50950 0.56750 0.35000 -0.06400
H 	H 	0.53480 0.55770 0.40170 0.04400
C 	C 	0.49470 0.60130 0.45300 0.08900
H 	H 	0.51070 0.61440 0.57340 -0.01600
C 	C 	0.43050 0.54090 0.90460 0.45400
Er	Er	0.00837 0.92777 0.21688 1.92000
O 	O 	0.06507 0.94385 0.49193 -0.59900
O 	O 	0.06454 0.88549 0.15483 -0.50900
O 	O 	0.11607 0.84413 0.16603 -0.45000
O 	O 	0.00781 0.91755 0.88763 -0.93700
H 	H 	0.01247 0.89083 0.85403 0.36300
N 	N 	0.12537 0.94888 0.71863 -0.29100
N 	N 	0.15407 0.88223 0.51063 -0.16400
C 	C 	0.10087 0.92973 0.54363 0.29800
C 	C 	0.11737 0.89603 0.43643 -0.22600
C 	C 	0.17617 0.90083 0.68333 -0.06200
H 	H 	0.20147 0.89103 0.73503 0.04500
C 	C 	0.16137 0.93463 0.78633 0.09000
H 	H 	0.17737 0.94773 0.90673 -0.01700
C 	C 	0.09717 0.87423 0.23793 0.42900
Er	Er	0.67504 0.26111 0.55022 1.94100
O 	O 	0.73173 0.27719 0.82527 -0.58600
O 	O 	0.73120 0.21883 0.48817 -0.50600
O 	O 	0.78273 0.17747 0.49937 -0.44400
O 	O 	0.67447 0.25089 0.22097 -0.93800
H 	H 	0.67913 0.22417 0.18737 0.34700
N 	N 	0.79203 0.28222 0.05197 -0.30600
N 	N 	0.82073 0.21557 0.84397 -0.14300
C 	C 	0.76753 0.26307 0.87697 0.33200
C 	C 	0.78403 0.22937 0.76977 -0.23100
C 	C 	0.84283 0.23417 0.01667 -0.10600
H 	H 	0.86813 0.22437 0.06837 0.04900
C 	C 	0.82803 0.26797 0.11967 0.10200
H 	H 	0.84403 0.28107 0.24007 -0.02500
C 	C 	0.76383 0.20757 0.57127 0.43300
Er	Er	0.40556 0.74726 0.88355 1.96200
O 	O 	0.38948 0.78788 0.15860 -0.60300
O 	O 	0.44784 0.84571 0.82150 -0.51100
O 	O 	0.48920 0.93860 0.83270 -0.45000
O 	O 	0.41578 0.75692 0.55430 -0.94600
H 	H 	0.44250 0.78830 0.52070 0.35500
N 	N 	0.38445 0.84315 0.38530 -0.28700
N 	N 	0.45110 0.93850 0.17730 -0.16900
C 	C 	0.40360 0.83780 0.21030 0.30500
C 	C 	0.43730 0.88800 0.10310 -0.25300
C 	C 	0.43250 0.94200 0.35000 -0.06500
H 	H 	0.44230 0.97710 0.40170 0.03700
C 	C 	0.39870 0.89340 0.45300 0.08700
H 	H 	0.38560 0.89630 0.57340 -0.01700
C 	C 	0.45910 0.88960 0.90460 0.45500
Er	Er	0.07223 0.08060 0.21688 1.93700
O 	O 	0.05615 0.12121 0.49193 -0.58400
O 	O 	0.11451 0.17904 0.15483 -0.51000
O 	O 	0.15587 0.27193 0.16603 -0.45100
O 	O 	0.08245 0.09025 0.88763 -0.93300
H 	H 	0.10917 0.12163 0.85403 0.35700
N 	N 	0.05112 0.17648 0.71863 -0.27600
N 	N 	0.11777 0.27183 0.51063 -0.16400
C 	C 	0.07027 0.17113 0.54363 0.30100
C 	C 	0.10397 0.22133 0.43643 -0.22400
C 	C 	0.09917 0.27533 0.68333 -0.05700
H 	H 	0.10897 0.31043 0.73503 0.04700
C 	C 	0.06537 0.22673 0.78633 0.09100
H 	H 	0.05227 0.22963 0.90673 -0.00600
C 	C 	0.12577 0.22293 0.23793 0.43000
Er	Er	0.73889 0.41393 0.55022 1.94000
O 	O 	0.72281 0.45455 0.82527 -0.58600
O 	O 	0.78117 0.51238 0.48817 -0.50700
O 	O 	0.82253 0.60527 0.49937 -0.44600
O 	O 	0.74911 0.42359 0.22097 -0.93800
H 	H 	0.77583 0.45497 0.18737 0.34600
N 	N 	0.71778 0.50982 0.05197 -0.30600
N 	N 	0.78443 0.60517 0.84397 -0.14200
C 	C 	0.73693 0.50447 0.87697 0.33300
C 	C 	0.77063 0.55467 0.76977 -0.23100
C 	C 	0.76583 0.60867 0.01667 -0.10700
H 	H 	0.77563 0.64377 0.06837 0.05200
C 	C 	0.73203 0.56007 0.11967 0.10300
H 	H 	0.71893 0.56297 0.24007 -0.02300
C 	C 	0.79243 0.55627 0.57127 0.43300
Cu	Cu	-0.00000 0.50000 -0.00000 0.88500
Cu	Cu	0.66667 0.83333 0.33333 0.88500
Cu	Cu	0.33333 0.16667 0.66667 0.89000
Cu	Cu	0.50000 0.50000 -0.00000 0.87500
Cu	Cu	0.16667 0.83333 0.33333 0.88600
Cu	Cu	0.83333 0.16667 0.66667 0.88900
Cu	Cu	0.50000 0.00000 -0.00000 0.88500
Cu	Cu	0.16667 0.33333 0.33333 0.88600
Cu	Cu	0.83333 0.66667 0.66667 0.88800
O 	O 	0.66667 0.33333 0.33333 -0.60800
O 	O 	0.33333 0.66667 0.66667 -0.61800
O 	O 	-0.00000 0.00000 -0.00000 -0.60200
O 	O 	0.66667 0.33333 0.01590 -1.02700
H 	H 	0.66667 0.33333 0.89370 0.26000
O 	O 	0.33333 0.66667 0.34923 -0.99100
H 	H 	0.33333 0.66667 0.22703 0.21800
O 	O 	0.00000 0.00000 0.68257 -0.96100
H 	H 	0.00000 -0.00000 0.56037 0.21300
O 	O 	0.33333 0.66667 0.98410 -0.96700
H 	H 	0.33333 0.66667 0.10630 0.18700
O 	O 	0.00000 0.00000 0.31743 -0.95300
H 	H 	0.00000 0.00000 0.43963 0.20900
O 	O 	0.66667 0.33333 0.65077 -0.97200
H 	H 	0.66667 0.33333 0.77297 0.19000
