data_crystal

_cell_length_a 7.73000
_cell_length_b 13.62700
_cell_length_c 14.06400
_cell_angle_alpha 90.00000
_cell_angle_beta  90.00000
_cell_angle_gamma 90.00000

_symmetry_space_group_name_	'P 1'
_symmetry_space_group_name_H-M	'P 1'

loop_
_symmetry_equiv_pos_as_xyz
  x,y,z

loop_
_atom_site_label
_atom_site_type_symbol
_atom_site_fract_x
_atom_site_fract_y
_atom_site_fract_z
_atom_site_charge
C 	C 	0.44160 0.18650 0.26720 -0.25500
N 	N 	0.54740 0.23250 0.30170 -0.20400
C 	C 	0.43850 0.00260 0.15870 -0.26200
N 	N 	0.54700 0.44970 0.36170 -0.20400
C 	C 	0.55840 0.31350 0.76720 -0.25500
N 	N 	0.45260 0.26750 0.80170 -0.20400
C 	C 	0.56150 0.49740 0.65870 -0.26400
N 	N 	0.45300 0.05030 0.86170 -0.20500
C 	C 	0.94160 0.81350 0.73280 -0.25400
N 	N 	0.04740 0.76750 0.69830 -0.20500
C 	C 	0.93850 0.99740 0.84130 -0.26100
N 	N 	0.04700 0.55030 0.63830 -0.20400
C 	C 	0.05840 0.68650 0.23280 -0.25400
N 	N 	0.95260 0.73250 0.19830 -0.20500
C 	C 	0.06150 0.50260 0.34130 -0.26300
N 	N 	0.95300 0.94970 0.13830 -0.20700
C 	C 	0.55840 0.81350 0.73280 -0.25500
N 	N 	0.45260 0.76750 0.69830 -0.20400
C 	C 	0.56150 0.99740 0.84130 -0.26200
N 	N 	0.45300 0.55030 0.63830 -0.20400
C 	C 	0.44160 0.68650 0.23280 -0.25500
N 	N 	0.54740 0.73250 0.19830 -0.20400
C 	C 	0.43850 0.50260 0.34130 -0.26400
N 	N 	0.54700 0.94970 0.13830 -0.20500
C 	C 	0.05840 0.18650 0.26720 -0.25400
N 	N 	0.95260 0.23250 0.30170 -0.20500
C 	C 	0.06150 0.00260 0.15870 -0.26100
N 	N 	0.95300 0.44970 0.36170 -0.20400
C 	C 	0.94160 0.31350 0.76720 -0.25400
N 	N 	0.04740 0.26750 0.80170 -0.20500
C 	C 	0.93850 0.49740 0.65870 -0.26300
N 	N 	0.04700 0.05030 0.86170 -0.20700
Cr	Cr	0.25000 0.09631 0.20928 1.46800
C 	C 	0.25000 0.16700 0.07780 -0.26900
C 	C 	0.25000 0.01750 0.32940 -0.30600
N 	N 	0.25000 0.97040 0.39860 -0.06200
Cr	Cr	0.75000 0.40369 0.70928 1.46800
C 	C 	0.75000 0.33300 0.57780 -0.26900
C 	C 	0.75000 0.48250 0.82940 -0.30600
N 	N 	0.75000 0.52960 0.89860 -0.06100
Cr	Cr	0.75000 0.90369 0.79072 1.46800
C 	C 	0.75000 0.83300 0.92220 -0.26900
C 	C 	0.75000 0.98250 0.67060 -0.30600
N 	N 	0.75000 0.02960 0.60140 -0.06200
Cr	Cr	0.25000 0.59631 0.29072 1.46800
C 	C 	0.25000 0.66700 0.42220 -0.26900
C 	C 	0.25000 0.51750 0.17060 -0.30600
N 	N 	0.25000 0.47040 0.10140 -0.06100
Mn	Mn	0.75000 0.33876 0.34484 1.20900
N 	N 	0.75000 0.30390 0.50180 -0.18800
Mn	Mn	0.25000 0.16124 0.84484 1.20900
N 	N 	0.25000 0.19610 0.00180 -0.18700
Mn	Mn	0.25000 0.66124 0.65516 1.20900
N 	N 	0.25000 0.69610 0.49820 -0.18800
Mn	Mn	0.75000 0.83876 0.15516 1.20900
N 	N 	0.75000 0.80390 0.99820 -0.18700
