data_crystal

_cell_length_a 7.72450
_cell_length_b 13.60900
_cell_length_c 14.06100
_cell_angle_alpha 90.00000
_cell_angle_beta  90.00000
_cell_angle_gamma 90.00000

_symmetry_space_group_name_	'P 1'
_symmetry_space_group_name_H-M	'P 1'

loop_
_symmetry_equiv_pos_as_xyz
  x,y,z

loop_
_atom_site_label
_atom_site_type_symbol
_atom_site_fract_x
_atom_site_fract_y
_atom_site_fract_z
_atom_site_charge
C 	C 	0.05760 0.18700 0.26750 -0.25200
N 	N 	0.95180 0.23260 0.30170 -0.20500
C 	C 	0.06060 0.00300 0.15830 -0.26200
N 	N 	0.95320 0.94950 0.13820 -0.20700
C 	C 	0.94240 0.31300 0.76750 -0.25200
N 	N 	0.04820 0.26740 0.80170 -0.20600
C 	C 	0.93940 0.49700 0.65830 -0.26500
N 	N 	0.04680 0.55050 0.63820 -0.20400
C 	C 	0.55760 0.81300 0.73250 -0.25400
N 	N 	0.45180 0.76740 0.69830 -0.20500
C 	C 	0.56060 0.99700 0.84170 -0.26400
N 	N 	0.45320 0.05050 0.86180 -0.20600
C 	C 	0.44240 0.68700 0.23250 -0.25400
N 	N 	0.54820 0.73260 0.19830 -0.20500
C 	C 	0.43940 0.50300 0.34170 -0.26500
N 	N 	0.54680 0.44950 0.36180 -0.20400
C 	C 	0.94240 0.81300 0.73250 -0.25300
N 	N 	0.04820 0.76740 0.69830 -0.20600
C 	C 	0.93940 0.99700 0.84170 -0.26200
N 	N 	0.04680 0.05050 0.86180 -0.20700
C 	C 	0.05760 0.68700 0.23250 -0.25200
N 	N 	0.95180 0.73260 0.19830 -0.20600
C 	C 	0.06060 0.50300 0.34170 -0.26500
N 	N 	0.95320 0.44950 0.36180 -0.20400
C 	C 	0.44240 0.18700 0.26750 -0.25400
N 	N 	0.54820 0.23260 0.30170 -0.20500
C 	C 	0.43940 0.00300 0.15830 -0.26400
N 	N 	0.54680 0.94950 0.13820 -0.20600
C 	C 	0.55760 0.31300 0.76750 -0.25400
N 	N 	0.45180 0.26740 0.80170 -0.20500
C 	C 	0.56060 0.49700 0.65830 -0.26500
N 	N 	0.45320 0.55050 0.63820 -0.20400
Cr	Cr	0.25000 0.09647 0.20897 1.46400
C 	C 	0.25000 0.16810 0.07690 -0.26500
N 	N 	0.25000 0.19590 0.00060 -0.19000
C 	C 	0.25000 0.01680 0.33030 -0.30100
N 	N 	0.25000 0.97070 0.39940 -0.06300
Cr	Cr	0.75000 0.40353 0.70897 1.46500
C 	C 	0.75000 0.33190 0.57690 -0.26600
N 	N 	0.75000 0.30410 0.50060 -0.19000
C 	C 	0.75000 0.48320 0.83030 -0.30100
N 	N 	0.75000 0.52930 0.89940 -0.06200
Cr	Cr	0.75000 0.90353 0.79103 1.46400
C 	C 	0.75000 0.83190 0.92310 -0.26500
N 	N 	0.75000 0.80410 0.99940 -0.19000
C 	C 	0.75000 0.98320 0.66970 -0.30100
N 	N 	0.75000 0.02930 0.60060 -0.06300
Cr	Cr	0.25000 0.59647 0.29103 1.46500
C 	C 	0.25000 0.66810 0.42310 -0.26600
N 	N 	0.25000 0.69590 0.49940 -0.19000
C 	C 	0.25000 0.51680 0.16970 -0.30100
N 	N 	0.25000 0.47070 0.10060 -0.06200
Mn	Mn	0.75000 0.33892 0.34467 1.21000
Mn	Mn	0.25000 0.16108 0.84467 1.21000
Mn	Mn	0.25000 0.66108 0.65533 1.21000
Mn	Mn	0.75000 0.83892 0.15533 1.21000
