data_crystal

_cell_length_a 14.98600
_cell_length_b 23.55200
_cell_length_c 9.05100
_cell_angle_alpha 90.00000
_cell_angle_beta  90.00000
_cell_angle_gamma 90.00000

_symmetry_space_group_name_	'P 1'
_symmetry_space_group_name_H-M	'P 1'

loop_
_symmetry_equiv_pos_as_xyz
  x,y,z

loop_
_atom_site_label
_atom_site_type_symbol
_atom_site_fract_x
_atom_site_fract_y
_atom_site_fract_z
_atom_site_charge
Fe	Fe	0.07179 0.05425 0.69772 1.26100
Cl	Cl	0.18147 0.99569 0.59890 -0.39300
O 	O 	0.15920 0.12505 0.64010 -0.27000
O 	O 	0.23090 0.13005 0.00390 -0.13900
O 	O 	0.26450 0.17903 0.74470 -0.32100
O 	O 	0.13150 0.07291 0.89610 -0.26800
C 	C 	0.18820 0.11221 0.89470 0.09700
C 	C 	0.20470 0.14158 0.74530 0.27900
Fe	Fe	0.07179 0.55425 0.19772 1.27800
Cl	Cl	0.18147 0.49569 0.09890 -0.28900
O 	O 	0.15920 0.62505 0.14010 -0.22800
O 	O 	0.23090 0.63005 0.50390 -0.27900
O 	O 	0.26450 0.67903 0.24470 -0.28100
O 	O 	0.13150 0.57291 0.39610 -0.27800
C 	C 	0.18820 0.61221 0.39470 0.24200
C 	C 	0.20470 0.64158 0.24530 0.23900
Fe	Fe	0.57179 0.05425 0.19772 1.27900
Cl	Cl	0.68147 0.99569 0.09890 -0.32100
O 	O 	0.65920 0.12505 0.14010 -0.23000
O 	O 	0.73090 0.13005 0.50390 -0.28000
O 	O 	0.76450 0.17903 0.24470 -0.28300
O 	O 	0.63150 0.07291 0.39610 -0.27800
C 	C 	0.68820 0.11221 0.39470 0.24100
C 	C 	0.70470 0.14158 0.24530 0.23900
Fe	Fe	0.57179 0.55425 0.69772 1.25100
Cl	Cl	0.68147 0.49569 0.59890 -0.37000
O 	O 	0.65920 0.62505 0.64010 -0.27800
O 	O 	0.73090 0.63005 0.00390 -0.14100
O 	O 	0.76450 0.67903 0.74470 -0.32400
O 	O 	0.63150 0.57291 0.89610 -0.27900
C 	C 	0.68820 0.61221 0.89470 0.09400
C 	C 	0.70470 0.64158 0.74530 0.27700
Fe	Fe	0.92821 0.94575 0.69772 1.22700
Cl	Cl	0.81853 0.00431 0.59890 -0.34900
O 	O 	0.84080 0.87495 0.64010 -0.28600
O 	O 	0.76910 0.86995 0.00390 -0.14600
O 	O 	0.73550 0.82097 0.74470 -0.32400
O 	O 	0.86850 0.92709 0.89610 -0.29600
C 	C 	0.81180 0.88779 0.89470 0.09600
C 	C 	0.79530 0.85842 0.74530 0.27500
Fe	Fe	0.92821 0.44575 0.19772 1.26100
Cl	Cl	0.81853 0.50431 0.09890 -0.29700
O 	O 	0.84080 0.37495 0.14010 -0.23800
O 	O 	0.76910 0.36995 0.50390 -0.28400
O 	O 	0.73550 0.32097 0.24470 -0.28200
O 	O 	0.86850 0.42709 0.39610 -0.29200
C 	C 	0.81180 0.38779 0.39470 0.24200
C 	C 	0.79530 0.35842 0.24530 0.23700
Fe	Fe	0.42821 0.94575 0.19772 1.26100
Cl	Cl	0.31853 0.00431 0.09890 -0.26700
O 	O 	0.34080 0.87495 0.14010 -0.23600
O 	O 	0.26910 0.86995 0.50390 -0.28300
O 	O 	0.23550 0.82097 0.24470 -0.28000
O 	O 	0.36850 0.92709 0.39610 -0.29200
C 	C 	0.31180 0.88779 0.39470 0.24200
C 	C 	0.29530 0.85842 0.24530 0.23700
Fe	Fe	0.42821 0.44575 0.69772 1.25100
Cl	Cl	0.31853 0.50431 0.59890 -0.36600
O 	O 	0.34080 0.37495 0.64010 -0.27700
O 	O 	0.26910 0.36995 0.00390 -0.14000
O 	O 	0.23550 0.32097 0.74470 -0.32000
O 	O 	0.36850 0.42709 0.89610 -0.27900
C 	C 	0.31180 0.38779 0.89470 0.09500
C 	C 	0.29530 0.35842 0.74530 0.27800
Fe	Fe	0.32179 0.19575 0.94772 1.19300
Cl	Cl	0.43147 0.25431 0.84890 -0.40400
O 	O 	0.40920 0.12495 0.89010 -0.26700
O 	O 	0.48090 0.11995 0.25390 -0.28600
O 	O 	0.51450 0.07097 0.99470 -0.33300
O 	O 	0.38150 0.17709 0.14610 -0.26600
C 	C 	0.43820 0.13779 0.14470 0.33500
C 	C 	0.45470 0.10842 0.99530 0.13500
Fe	Fe	0.32179 0.69575 0.44772 1.25300
Cl	Cl	0.43147 0.75431 0.34890 -0.34300
O 	O 	0.40920 0.62495 0.39010 -0.25800
O 	O 	0.48090 0.61995 0.75390 -0.29000
O 	O 	0.51450 0.57097 0.49470 -0.29300
O 	O 	0.38150 0.67709 0.64610 -0.29300
C 	C 	0.43820 0.63779 0.64470 0.23900
C 	C 	0.45470 0.60842 0.49530 0.24200
Fe	Fe	0.82179 0.19575 0.44772 1.25300
Cl	Cl	0.93147 0.25431 0.34890 -0.35900
O 	O 	0.90920 0.12495 0.39010 -0.25000
O 	O 	0.98090 0.11995 0.75390 -0.31000
O 	O 	0.01450 0.07097 0.49470 -0.25300
O 	O 	0.88150 0.17709 0.64610 -0.29900
C 	C 	0.93820 0.13779 0.64470 0.24900
C 	C 	0.95470 0.10842 0.49530 0.20200
Fe	Fe	0.82179 0.69575 0.94772 1.19300
Cl	Cl	0.93147 0.75431 0.84890 -0.42100
O 	O 	0.90920 0.62495 0.89010 -0.26600
O 	O 	0.98090 0.61995 0.25390 -0.30900
O 	O 	0.01450 0.57097 0.99470 -0.30800
O 	O 	0.88150 0.67709 0.14610 -0.27500
C 	C 	0.93820 0.63779 0.14470 0.34200
C 	C 	0.95470 0.60842 0.99530 0.09800
Fe	Fe	0.17821 0.30425 0.94772 1.19300
Cl	Cl	0.06853 0.24569 0.84890 -0.38700
O 	O 	0.09080 0.37505 0.89010 -0.27500
O 	O 	0.01910 0.38005 0.25390 -0.26900
O 	O 	0.98550 0.42903 0.99470 -0.37500
O 	O 	0.11850 0.32291 0.14610 -0.26000
C 	C 	0.06180 0.36221 0.14470 0.32400
C 	C 	0.04530 0.39158 0.99530 0.17500
Fe	Fe	0.17821 0.80425 0.44772 1.25300
Cl	Cl	0.06853 0.74569 0.34890 -0.32600
O 	O 	0.09080 0.87505 0.39010 -0.26600
O 	O 	0.01910 0.88005 0.75390 -0.27500
O 	O 	0.98550 0.92903 0.49470 -0.33800
O 	O 	0.11850 0.82291 0.64610 -0.28700
C 	C 	0.06180 0.86221 0.64470 0.22900
C 	C 	0.04530 0.89158 0.49530 0.28300
Fe	Fe	0.67821 0.30425 0.44772 1.25300
Cl	Cl	0.56853 0.24569 0.34890 -0.34200
O 	O 	0.59080 0.37505 0.39010 -0.25700
O 	O 	0.51910 0.38005 0.75390 -0.29100
O 	O 	0.48550 0.42903 0.49470 -0.29300
O 	O 	0.61850 0.32291 0.64610 -0.29300
C 	C 	0.56180 0.36221 0.64470 0.23900
C 	C 	0.54530 0.39158 0.49530 0.24200
Fe	Fe	0.67821 0.80425 0.94772 1.19300
Cl	Cl	0.56853 0.74569 0.84890 -0.40500
O 	O 	0.59080 0.87505 0.89010 -0.27400
O 	O 	0.51910 0.88005 0.25390 -0.29100
O 	O 	0.48550 0.92903 0.99470 -0.35000
O 	O 	0.61850 0.82291 0.14610 -0.26800
C 	C 	0.56180 0.86221 0.14470 0.33300
C 	C 	0.54530 0.89158 0.99530 0.13800
O 	O 	0.00000 0.00000 0.77200 -0.48400
O 	O 	0.00000 0.50000 0.27200 -0.47200
O 	O 	0.50000 0.00000 0.27200 -0.47200
O 	O 	0.50000 0.50000 0.77200 -0.52000
O 	O 	0.25000 0.25000 0.02200 -0.41600
O 	O 	0.25000 0.75000 0.52200 -0.50700
O 	O 	0.75000 0.25000 0.52200 -0.50900
O 	O 	0.75000 0.75000 0.02200 -0.41900
