data_crystal

_cell_length_a 9.64450
_cell_length_b 14.74700
_cell_length_c 12.31000
_cell_angle_alpha 90.00000
_cell_angle_beta  108.45700
_cell_angle_gamma 90.00000

_symmetry_space_group_name_	'P 1'
_symmetry_space_group_name_H-M	'P 1'

loop_
_symmetry_equiv_pos_as_xyz
  x,y,z

loop_
_atom_site_label
_atom_site_type_symbol
_atom_site_fract_x
_atom_site_fract_y
_atom_site_fract_z
_atom_site_charge
Fe	Fe	0.94516 0.05297 0.33709 1.22500
Fe	Fe	0.84090 0.21031 0.10724 1.21400
Cl	Cl	0.96560 0.94904 0.20840 -0.45400
Cl	Cl	0.99470 0.31512 0.21630 -0.45500
O 	O 	0.82150 0.14030 0.23370 -0.62400
H 	H 	0.73380 0.15070 0.24810 0.25300
O 	O 	0.96720 0.14690 0.47200 -0.35400
O 	O 	0.14390 0.11150 0.34950 -0.26700
O 	O 	0.14000 0.23420 0.58920 -0.30800
O 	O 	0.30980 0.20790 0.45890 -0.27400
O 	O 	0.72910 0.88780 0.48850 -0.30800
O 	O 	0.01070 0.85450 0.57700 -0.18300
O 	O 	0.05900 0.96590 0.46970 -0.17100
O 	O 	0.77290 0.99800 0.37870 -0.31800
C 	C 	0.09070 0.18420 0.50440 0.33700
C 	C 	0.19100 0.16670 0.43120 0.21500
C 	C 	0.81130 0.93700 0.45270 0.29300
C 	C 	0.97330 0.91800 0.50410 0.04700
Fe	Fe	0.44516 0.55297 0.33709 1.25000
Fe	Fe	0.34090 0.71031 0.10724 1.22900
Cl	Cl	0.46560 0.44904 0.20840 -0.41100
Cl	Cl	0.49470 0.81512 0.21630 -0.39300
O 	O 	0.32150 0.64030 0.23370 -0.61200
H 	H 	0.23380 0.65070 0.24810 0.26200
O 	O 	0.46720 0.64690 0.47200 -0.27700
O 	O 	0.64390 0.61150 0.34950 -0.30800
O 	O 	0.64000 0.73420 0.58920 -0.30300
O 	O 	0.80980 0.70790 0.45890 -0.30000
O 	O 	0.22910 0.38780 0.48850 -0.27600
O 	O 	0.51070 0.35450 0.57700 -0.30300
O 	O 	0.55900 0.46590 0.46970 -0.28600
O 	O 	0.27290 0.49800 0.37870 -0.28900
C 	C 	0.59070 0.68420 0.50440 0.24300
C 	C 	0.69100 0.66670 0.43120 0.23800
C 	C 	0.31130 0.43700 0.45270 0.24300
C 	C 	0.47330 0.41800 0.50410 0.22500
Fe	Fe	0.94516 0.94703 0.83709 1.22800
Fe	Fe	0.84090 0.78969 0.60724 1.23900
Cl	Cl	0.96560 0.05096 0.70840 -0.42300
Cl	Cl	0.99470 0.68488 0.71630 -0.42200
O 	O 	0.82150 0.85970 0.73370 -0.61400
H 	H 	0.73380 0.84930 0.74810 0.26400
O 	O 	0.96720 0.85310 0.97200 -0.25900
O 	O 	0.14390 0.88850 0.84950 -0.27700
O 	O 	0.14000 0.76580 0.08920 -0.29200
O 	O 	0.30980 0.79210 0.95890 -0.25700
O 	O 	0.72910 0.11220 0.98850 -0.28900
O 	O 	0.01070 0.14550 0.07700 -0.17000
O 	O 	0.05900 0.03410 0.96970 -0.07500
O 	O 	0.77290 0.00200 0.87870 -0.33200
C 	C 	0.09070 0.81580 0.00440 0.17100
C 	C 	0.19100 0.83330 0.93120 0.30400
C 	C 	0.81130 0.06300 0.95270 0.39300
C 	C 	0.97330 0.08200 0.00410 -0.12400
Fe	Fe	0.44516 0.44703 0.83709 1.25200
Fe	Fe	0.34090 0.28969 0.60724 1.25300
Cl	Cl	0.46560 0.55096 0.70840 -0.37300
Cl	Cl	0.49470 0.18488 0.71630 -0.36200
O 	O 	0.32150 0.35970 0.73370 -0.60300
H 	H 	0.23380 0.34930 0.74810 0.27200
O 	O 	0.46720 0.35310 0.97200 -0.17700
O 	O 	0.64390 0.38850 0.84950 -0.32200
O 	O 	0.64000 0.26580 0.08920 -0.28500
O 	O 	0.80980 0.29210 0.95890 -0.28300
O 	O 	0.22910 0.61220 0.98850 -0.25700
O 	O 	0.51070 0.64550 0.07700 -0.28700
O 	O 	0.55900 0.53410 0.96970 -0.18800
O 	O 	0.27290 0.50200 0.87870 -0.30100
C 	C 	0.59070 0.31580 0.00440 0.06700
C 	C 	0.69100 0.33330 0.93120 0.33300
C 	C 	0.31130 0.56300 0.95270 0.34200
C 	C 	0.47330 0.58200 0.00410 0.05400
