data_crystal

_cell_length_a 7.37850
_cell_length_b 11.76250
_cell_length_c 14.42880
_cell_angle_alpha 90.00000
_cell_angle_beta  90.00000
_cell_angle_gamma 98.99900

_symmetry_space_group_name_	'P 1'
_symmetry_space_group_name_H-M	'P 1'

loop_
_symmetry_equiv_pos_as_xyz
  x,y,z

loop_
_atom_site_label
_atom_site_type_symbol
_atom_site_fract_x
_atom_site_fract_y
_atom_site_fract_z
_atom_site_charge
Mn	Mn	0.50053 0.52418 0.50002 1.18700
Mn	Mn	0.97104 0.97307 0.02671 1.15700
Mn	Mn	0.49947 0.47582 0.00002 1.14200
Mn	Mn	0.02896 0.02693 0.52671 1.18900
Nb	Nb	0.94357 0.33979 0.25848 1.26100
Nb	Nb	0.05643 0.66021 0.75848 1.26300
H 	H 	0.67100 0.14150 0.04670 -0.02000
H 	H 	0.35820 0.14390 0.04190 -0.03700
H 	H 	0.27360 0.80700 0.00490 -0.04300
H 	H 	0.58600 0.80620 0.00740 -0.06600
H 	H 	0.32900 0.85850 0.54670 -0.00800
H 	H 	0.64180 0.85610 0.54190 -0.02400
H 	H 	0.72640 0.19300 0.50490 -0.00500
H 	H 	0.41400 0.19380 0.50740 -0.03000
C 	C 	0.69320 0.20130 0.27250 -0.16700
C 	C 	0.94830 0.53090 0.23220 -0.20000
C 	C 	0.77060 0.39240 0.37330 -0.17200
C 	C 	0.16620 0.43200 0.34920 -0.16400
C 	C 	0.17290 0.39310 0.15780 -0.17000
C 	C 	0.76690 0.35810 0.13560 -0.18600
C 	C 	0.99310 0.18880 0.17300 -0.16600
C 	C 	0.02040 0.21820 0.36540 -0.16000
C 	C 	0.59030 0.07110 0.03760 -0.02100
C 	C 	0.40270 0.07270 0.03540 -0.01900
C 	C 	0.35420 0.87750 0.01350 -0.03500
C 	C 	0.54100 0.87700 0.01520 -0.02000
C 	C 	0.30680 0.79870 0.77250 -0.14700
C 	C 	0.05170 0.46910 0.73220 -0.17900
C 	C 	0.22940 0.60760 0.87330 -0.14100
C 	C 	0.83380 0.56800 0.84920 -0.13900
C 	C 	0.82710 0.60690 0.65780 -0.15600
C 	C 	0.23310 0.64190 0.63560 -0.17300
C 	C 	0.00690 0.81120 0.67300 -0.15200
C 	C 	0.97960 0.78180 0.86540 -0.12900
C 	C 	0.40970 0.92890 0.53760 -0.01100
C 	C 	0.59730 0.92730 0.53540 -0.00800
C 	C 	0.64580 0.12250 0.51350 -0.01500
C 	C 	0.45900 0.12300 0.51520 0.00200
N 	N 	0.56940 0.12900 0.27770 -0.09500
N 	N 	0.95560 0.62610 0.21380 -0.13500
N 	N 	0.67880 0.41850 0.43080 -0.24100
N 	N 	0.27620 0.47640 0.39940 -0.24400
N 	N 	0.28280 0.41940 0.10160 -0.26200
N 	N 	0.67690 0.37120 0.07305 -0.25800
N 	N 	0.01050 0.11300 0.12539 -0.25100
N 	N 	0.05450 0.15880 0.42360 -0.25100
N 	N 	0.66200 0.97430 0.02763 -0.26500
N 	N 	0.28260 0.97530 0.02418 -0.25800
N 	N 	0.43060 0.87100 0.77770 -0.07300
N 	N 	0.04440 0.37390 0.71380 -0.11200
N 	N 	0.32120 0.58150 0.93080 -0.19100
N 	N 	0.72380 0.52360 0.89940 -0.20000
N 	N 	0.71720 0.58060 0.60160 -0.24300
N 	N 	0.32310 0.62880 0.57305 -0.23600
N 	N 	0.98950 0.88700 0.62539 -0.24500
N 	N 	0.94550 0.84120 0.92360 -0.19500
N 	N 	0.33800 0.02570 0.52763 -0.24500
N 	N 	0.71740 0.02470 0.52418 -0.23800
