data_crystal

_cell_length_a 5.16460
_cell_length_b 24.46600
_cell_length_c 11.58500
_cell_angle_alpha 90.00000
_cell_angle_beta  101.55900
_cell_angle_gamma 90.00000

_symmetry_space_group_name_	'P 1'
_symmetry_space_group_name_H-M	'P 1'

loop_
_symmetry_equiv_pos_as_xyz
  x,y,z

loop_
_atom_site_label
_atom_site_type_symbol
_atom_site_fract_x
_atom_site_fract_y
_atom_site_fract_z
_atom_site_charge
Cu	Cu	0.05799 0.11343 0.78326 0.90600
O 	O 	0.86650 0.17304 0.68610 -0.36000
O 	O 	0.18920 0.16186 0.58710 -0.30800
O 	O 	0.29410 0.05855 0.87150 -0.40000
O 	O 	0.68830 0.09770 0.87390 -0.35100
N 	N 	0.70920 0.32642 0.39530 -0.21200
N 	N 	0.89350 0.94341 0.16460 -0.15300
C 	C 	0.60000 0.31156 0.48500 0.07600
H 	H 	0.45910 0.33250 0.50140 0.00900
C 	C 	0.68400 0.26663 0.55550 -0.10600
H 	H 	0.60320 0.25790 0.61890 0.08700
C 	C 	0.88700 0.23504 0.53150 0.04100
C 	C 	0.00170 0.25013 0.43700 -0.16300
H 	H 	0.14160 0.22950 0.41860 0.10000
C 	C 	0.90870 0.29555 0.37050 0.11000
H 	H 	0.98580 0.30520 0.30640 0.01300
C 	C 	0.98940 0.18540 0.60610 0.30800
C 	C 	0.65260 0.93595 0.09940 0.00700
H 	H 	0.55980 0.90400 0.11090 0.04400
C 	C 	0.53350 0.97303 0.01600 0.00100
H 	H 	0.36130 0.96660 0.97330 0.04400
C 	C 	0.66900 0.02008 0.99490 -0.11300
C 	C 	0.91880 0.02705 0.06000 0.10500
H 	H 	0.01830 0.05790 0.04760 -0.01100
C 	C 	0.02510 0.98855 0.14420 -0.08900
H 	H 	0.19600 0.99430 0.18880 0.06500
C 	C 	0.54460 0.06266 0.90580 0.35900
Cu	Cu	0.55799 0.61343 0.78326 0.91900
O 	O 	0.36650 0.67304 0.68610 -0.36900
O 	O 	0.68920 0.66186 0.58710 -0.28100
O 	O 	0.79410 0.55855 0.87150 -0.37100
O 	O 	0.18830 0.59770 0.87390 -0.34900
N 	N 	0.20920 0.82642 0.39530 -0.19200
N 	N 	0.39350 0.44341 0.16460 -0.20200
C 	C 	0.10000 0.81156 0.48500 -0.00600
H 	H 	0.95910 0.83250 0.50140 0.05800
C 	C 	0.18400 0.76663 0.55550 -0.04500
H 	H 	0.10320 0.75790 0.61890 0.06000
C 	C 	0.38700 0.73504 0.53150 -0.02400
C 	C 	0.50170 0.75013 0.43700 -0.06500
H 	H 	0.64160 0.72950 0.41860 0.07600
C 	C 	0.40870 0.79555 0.37050 0.04000
H 	H 	0.48580 0.80520 0.30640 0.02700
C 	C 	0.48940 0.68540 0.60610 0.29500
C 	C 	0.15260 0.43595 0.09940 0.06200
H 	H 	0.05980 0.40400 0.11090 0.01800
C 	C 	0.03350 0.47303 0.01600 -0.10400
H 	H 	0.86130 0.46660 0.97330 0.09500
C 	C 	0.16900 0.52008 0.99490 -0.02400
C 	C 	0.41880 0.52705 0.06000 -0.06700
H 	H 	0.51830 0.55790 0.04760 0.06700
C 	C 	0.52510 0.48855 0.14420 0.04600
H 	H 	0.69600 0.49430 0.18880 0.02500
C 	C 	0.04460 0.56266 0.90580 0.30000
Cu	Cu	0.05799 0.88657 0.28326 0.90800
O 	O 	0.86650 0.82696 0.18610 -0.36000
O 	O 	0.18920 0.83814 0.08710 -0.30600
O 	O 	0.29410 0.94145 0.37150 -0.40000
O 	O 	0.68830 0.90230 0.37390 -0.35000
N 	N 	0.70920 0.67358 0.89530 -0.21100
N 	N 	0.89350 0.05659 0.66460 -0.15300
C 	C 	0.60000 0.68844 0.98500 0.06800
H 	H 	0.45910 0.66750 0.00140 0.01300
C 	C 	0.68400 0.73337 0.05550 -0.10100
H 	H 	0.60320 0.74210 0.11890 0.08600
C 	C 	0.88700 0.76496 0.03150 0.04200
C 	C 	0.00170 0.74987 0.93700 -0.16600
H 	H 	0.14160 0.77050 0.91860 0.10000
C 	C 	0.90870 0.70445 0.87050 0.11100
H 	H 	0.98580 0.69480 0.80640 0.01300
C 	C 	0.98940 0.81460 0.10610 0.30700
C 	C 	0.65260 0.06405 0.59940 0.01100
H 	H 	0.55980 0.09600 0.61090 0.04200
C 	C 	0.53350 0.02697 0.51600 -0.00700
H 	H 	0.36130 0.03340 0.47330 0.04900
C 	C 	0.66900 0.97992 0.49490 -0.10900
C 	C 	0.91880 0.97295 0.56000 0.10400
H 	H 	0.01830 0.94210 0.54760 -0.01100
C 	C 	0.02510 0.01145 0.64420 -0.09000
H 	H 	0.19600 0.00570 0.68880 0.06500
C 	C 	0.54460 0.93734 0.40580 0.35700
Cu	Cu	0.55799 0.38657 0.28326 0.91900
O 	O 	0.36650 0.32696 0.18610 -0.36900
O 	O 	0.68920 0.33814 0.08710 -0.28100
O 	O 	0.79410 0.44145 0.37150 -0.37000
O 	O 	0.18830 0.40230 0.37390 -0.34800
N 	N 	0.20920 0.17358 0.89530 -0.19100
N 	N 	0.39350 0.55659 0.66460 -0.20400
C 	C 	0.10000 0.18844 0.98500 -0.01300
H 	H 	0.95910 0.16750 0.00140 0.06100
C 	C 	0.18400 0.23337 0.05550 -0.04000
H 	H 	0.10320 0.24210 0.11890 0.05900
C 	C 	0.38700 0.26496 0.03150 -0.02300
C 	C 	0.50170 0.24987 0.93700 -0.06700
H 	H 	0.64160 0.27050 0.91860 0.07600
C 	C 	0.40870 0.20445 0.87050 0.04000
H 	H 	0.48580 0.19480 0.80640 0.02700
C 	C 	0.48940 0.31460 0.10610 0.29600
C 	C 	0.15260 0.56405 0.59940 0.06800
H 	H 	0.05980 0.59600 0.61090 0.01500
C 	C 	0.03350 0.52697 0.51600 -0.11800
H 	H 	0.86130 0.53340 0.47330 0.10100
C 	C 	0.16900 0.47992 0.49490 -0.01300
C 	C 	0.41880 0.47295 0.56000 -0.07600
H 	H 	0.51830 0.44210 0.54760 0.06900
C 	C 	0.52510 0.51145 0.64420 0.05100
H 	H 	0.69600 0.50570 0.68880 0.02400
C 	C 	0.04460 0.43734 0.40580 0.29700
