data_crystal

_cell_length_a 4.92130
_cell_length_b 10.80110
_cell_length_c 12.80970
_cell_angle_alpha 91.32620
_cell_angle_beta  101.07500
_cell_angle_gamma 83.07990

_symmetry_space_group_name_	'P 1'
_symmetry_space_group_name_H-M	'P 1'

loop_
_symmetry_equiv_pos_as_xyz
  x,y,z

loop_
_atom_site_label
_atom_site_type_symbol
_atom_site_fract_x
_atom_site_fract_y
_atom_site_fract_z
_atom_site_charge
Cu	Cu	0.05619 0.78433 0.22658 0.91000
Cu	Cu	0.82961 0.28433 0.77342 0.92200
H 	H 	0.84750 0.52660 0.66060 0.02300
H 	H 	0.62740 0.62930 0.50660 0.07500
H 	H 	0.09880 0.36640 0.45440 0.07100
H 	H 	0.33330 0.27170 0.61040 0.01500
H 	H 	0.32270 0.09480 0.80640 0.03100
H 	H 	0.58620 0.96270 0.93560 0.05900
H 	H 	0.07870 0.09180 0.13560 0.07300
H 	H 	0.83910 0.22710 0.00380 0.01300
H 	H 	0.18690 0.02660 0.33940 0.04600
H 	H 	0.12080 0.12930 0.49340 0.06500
H 	H 	0.64440 0.86640 0.54560 0.07500
H 	H 	0.72290 0.77170 0.38960 0.01800
H 	H 	0.51630 0.59480 0.19360 0.02600
H 	H 	0.65060 0.46270 0.06440 0.08100
H 	H 	0.94310 0.59180 0.86440 0.09900
H 	H 	0.83530 0.72710 0.99620 0.00200
C 	C 	0.69595 0.49360 0.61770 0.05700
C 	C 	0.56513 0.55570 0.52586 -0.07700
C 	C 	0.33979 0.50860 0.46178 -0.00500
C 	C 	0.25239 0.40030 0.49498 -0.08200
C 	C 	0.39444 0.34410 0.58808 0.05600
C 	C 	0.18296 0.57600 0.36032 0.27500
C 	C 	0.27307 0.09430 0.87374 0.03000
C 	C 	0.43059 0.01440 0.95058 -0.04200
C 	C 	0.35982 0.01010 0.05024 -0.02900
C 	C 	0.13316 0.09110 0.06912 -0.09600
C 	C 	0.98827 0.17080 0.98914 0.09000
C 	C 	0.52255 0.92130 0.13570 0.32200
C 	C 	0.07825 0.99360 0.38230 -0.00500
C 	C 	0.03927 0.05570 0.47414 -0.06000
C 	C 	0.87801 0.00860 0.53822 0.00700
C 	C 	0.75741 0.90030 0.50502 -0.08700
C 	C 	0.80636 0.84410 0.41192 0.06000
C 	C 	0.82264 0.07600 0.63968 0.29900
C 	C 	0.39933 0.59430 0.12626 0.04900
C 	C 	0.48001 0.51440 0.04942 -0.08300
C 	C 	0.30958 0.51010 0.94976 -0.00700
C 	C 	0.06404 0.59110 0.93088 -0.14200
C 	C 	0.99913 0.67080 0.01086 0.11700
C 	C 	0.38685 0.42130 0.86430 0.32000
N 	N 	0.61650 0.38790 0.64860 -0.19800
N 	N 	0.04971 0.17190 0.89142 -0.21300
N 	N 	0.96790 0.88790 0.35140 -0.17800
N 	N 	0.15829 0.67190 0.10858 -0.22200
O 	O 	0.28557 0.67180 0.33794 -0.37000
O 	O 	0.97327 0.53550 0.31014 -0.25600
O 	O 	0.76875 0.88220 0.12350 -0.38100
O 	O 	0.41212 0.89390 0.20964 -0.36300
O 	O 	0.94763 0.17180 0.66206 -0.36500
O 	O 	0.66313 0.03550 0.68986 -0.27500
O 	O 	0.64525 0.38220 0.87650 -0.38500
O 	O 	0.20248 0.39390 0.79036 -0.36500
