data_crystal

_cell_length_a 18.21900
_cell_length_b 22.10550
_cell_length_c 22.10550
_cell_angle_alpha 80.22270
_cell_angle_beta  65.66370
_cell_angle_gamma 65.66370

_symmetry_space_group_name_	'P 1'
_symmetry_space_group_name_H-M	'P 1'

loop_
_symmetry_equiv_pos_as_xyz
  x,y,z

loop_
_atom_site_label
_atom_site_type_symbol
_atom_site_fract_x
_atom_site_fract_y
_atom_site_fract_z
_atom_site_charge
Cu	Cu	0.75000 0.50757 0.49243 0.85200
Cu	Cu	0.25000 0.99243 0.00757 0.85200
Cu	Cu	0.25757 0.49243 0.99243 0.85200
Cu	Cu	0.24243 0.00757 0.50757 0.85200
H 	H 	0.42960 0.93580 0.42380 -0.02700
H 	H 	0.56660 0.56930 0.50390 -0.02200
H 	H 	0.26640 0.87710 0.57310 -0.02800
H 	H 	0.73970 0.64650 0.46190 -0.02100
H 	H 	0.37090 0.77330 0.56810 0.07700
H 	H 	0.46020 0.67150 0.50830 0.07200
H 	H 	0.63750 0.75190 0.46410 0.07200
H 	H 	0.53910 0.83440 0.41560 0.07800
H 	H 	0.28920 0.56420 0.07620 -0.02700
H 	H 	0.13980 0.93070 0.99610 -0.02300
H 	H 	0.21660 0.62290 0.92690 -0.02800
H 	H 	0.34810 0.85350 0.03810 -0.02100
H 	H 	0.21230 0.72670 0.93190 0.07700
H 	H 	0.14000 0.82850 0.99170 0.07100
H 	H 	0.35350 0.74810 0.03590 0.07200
H 	H 	0.28910 0.66560 0.08440 0.07800
H 	H 	0.21080 0.92380 0.43580 -0.02700
H 	H 	0.36020 0.00390 0.06930 -0.02200
H 	H 	0.28340 0.07310 0.37710 -0.02800
H 	H 	0.15190 0.96190 0.14650 -0.02100
H 	H 	0.28770 0.06810 0.27330 0.07700
H 	H 	0.36000 0.00830 0.17150 0.07200
H 	H 	0.14650 0.96410 0.25190 0.07200
H 	H 	0.21090 0.91560 0.33440 0.07800
H 	H 	0.07040 0.57620 0.06420 -0.02700
H 	H 	0.93340 0.49610 0.43070 -0.02200
H 	H 	0.23360 0.42690 0.12290 -0.02800
H 	H 	0.76030 0.53810 0.35350 -0.02100
H 	H 	0.12910 0.43190 0.22670 0.07700
H 	H 	0.03980 0.49170 0.32850 0.07200
H 	H 	0.86250 0.53590 0.24810 0.07200
H 	H 	0.96090 0.58440 0.16560 0.07800
H 	H 	0.64660 0.42380 0.56420 -0.02700
H 	H 	0.42950 0.50390 0.93070 -0.02200
H 	H 	0.66050 0.57310 0.62290 -0.02800
H 	H 	0.29840 0.46190 0.85350 -0.02100
H 	H 	0.56100 0.56810 0.72670 0.07700
H 	H 	0.53150 0.50830 0.82850 0.07200
H 	H 	0.39840 0.46410 0.74810 0.07200
H 	H 	0.54530 0.41560 0.66560 0.07800
H 	H 	0.13460 0.07620 0.93580 -0.02700
H 	H 	0.36410 0.99610 0.56930 -0.02200
H 	H 	0.35650 0.92690 0.87710 -0.02800
H 	H 	0.11380 0.03810 0.64650 -0.02100
H 	H 	0.35580 0.93190 0.77330 0.07700
H 	H 	0.36830 0.99170 0.67150 0.07100
H 	H 	0.11060 0.03590 0.75190 0.07200
H 	H 	0.12650 0.08440 0.83440 0.07800
H 	H 	0.36540 0.06420 0.92380 -0.02700
H 	H 	0.13590 0.43070 0.00390 -0.02200
H 	H 	0.14350 0.12290 0.07310 -0.02800
H 	H 	0.38620 0.35350 0.96190 -0.02100
H 	H 	0.14420 0.22670 0.06810 0.07700
H 	H 	0.13170 0.32850 0.00830 0.07200
H 	H 	0.38940 0.24810 0.96410 0.07200
H 	H 	0.37350 0.16560 0.91560 0.07800
H 	H 	0.85340 0.43580 0.57620 -0.02700
H 	H 	0.07050 0.06930 0.49610 -0.02200
H 	H 	0.83950 0.37710 0.42690 -0.02800
H 	H 	0.20160 0.14650 0.53810 -0.02100
H 	H 	0.93900 0.27330 0.43190 0.07700
H 	H 	0.96850 0.17150 0.49170 0.07100
H 	H 	0.10160 0.25190 0.53590 0.07200
H 	H 	0.95470 0.33440 0.58440 0.07800
C 	C 	0.41770 0.90260 0.45320 0.08800
C 	C 	0.53620 0.72403 0.48677 0.05100
C 	C 	0.46780 0.79110 0.49010 0.06400
C 	C 	0.58060 0.60660 0.49660 0.07600
C 	C 	0.32210 0.86800 0.54060 0.09000
C 	C 	0.68250 0.65200 0.47180 0.07800
C 	C 	0.38440 0.80570 0.53790 -0.15300
C 	C 	0.51660 0.66770 0.49890 -0.14000
C 	C 	0.62160 0.71550 0.47270 -0.14000
C 	C 	0.48370 0.84160 0.44780 -0.15300
C 	C 	0.27350 0.59740 0.04680 0.08900
C 	C 	0.24700 0.77597 0.01323 0.05000
C 	C 	0.24900 0.70890 0.00990 0.06500
C 	C 	0.18380 0.89340 0.00340 0.07600
C 	C 	0.23070 0.63200 0.95940 0.09000
C 	C 	0.30630 0.84800 0.02820 0.07800
C 	C 	0.22800 0.69430 0.96210 -0.15400
C 	C 	0.18320 0.83230 0.00110 -0.13900
C 	C 	0.30980 0.78450 0.02730 -0.14000
C 	C 	0.27310 0.65840 0.05220 -0.15400
C 	C 	0.22650 0.95320 0.40260 0.08800
C 	C 	0.25300 0.98677 0.22403 0.05100
C 	C 	0.25100 0.99010 0.29110 0.06500
C 	C 	0.31620 0.99660 0.10660 0.07600
C 	C 	0.26930 0.04060 0.36800 0.09000
C 	C 	0.19370 0.97180 0.15200 0.07800
C 	C 	0.27200 0.03790 0.30570 -0.15300
C 	C 	0.31680 0.99890 0.16770 -0.14000
C 	C 	0.19020 0.97270 0.21550 -0.14000
C 	C 	0.22690 0.94780 0.34160 -0.15400
C 	C 	0.08230 0.54680 0.09740 0.08800
C 	C 	0.96380 0.51323 0.27597 0.05100
C 	C 	0.03220 0.50990 0.20890 0.06400
C 	C 	0.91940 0.50340 0.39340 0.07600
C 	C 	0.17790 0.45940 0.13200 0.09000
C 	C 	0.81750 0.52820 0.34800 0.07800
C 	C 	0.11560 0.46210 0.19430 -0.15300
C 	C 	0.98340 0.50110 0.33230 -0.14000
C 	C 	0.87840 0.52730 0.28450 -0.14000
C 	C 	0.01630 0.55220 0.15840 -0.15300
C 	C 	0.62910 0.45320 0.59740 0.08800
C 	C 	0.47703 0.48677 0.77597 0.05100
C 	C 	0.54210 0.49010 0.70890 0.06400
C 	C 	0.42280 0.49660 0.89340 0.07600
C 	C 	0.63730 0.54060 0.63200 0.09000
C 	C 	0.34570 0.47180 0.84800 0.07800
C 	C 	0.57770 0.53790 0.69430 -0.15300
C 	C 	0.48450 0.49890 0.83230 -0.14000
C 	C 	0.40570 0.47270 0.78450 -0.14000
C 	C 	0.56850 0.44780 0.65840 -0.15300
C 	C 	0.17970 0.04680 0.90260 0.08900
C 	C 	0.23977 0.01323 0.72403 0.05000
C 	C 	0.24110 0.00990 0.79110 0.06500
C 	C 	0.31280 0.00340 0.60660 0.07600
C 	C 	0.30990 0.95940 0.86800 0.09000
C 	C 	0.16550 0.02820 0.65200 0.07800
C 	C 	0.30990 0.96210 0.80570 -0.15400
C 	C 	0.31570 0.00110 0.66770 -0.13900
C 	C 	0.16290 0.02730 0.71550 -0.14000
C 	C 	0.17470 0.05220 0.84160 -0.15400
C 	C 	0.32030 0.09740 0.95320 0.08800
C 	C 	0.26023 0.27597 0.98677 0.05100
C 	C 	0.25890 0.20890 0.99010 0.06400
C 	C 	0.18720 0.39340 0.99660 0.07600
C 	C 	0.19010 0.13200 0.04060 0.09000
C 	C 	0.33450 0.34800 0.97180 0.07800
C 	C 	0.19010 0.19430 0.03790 -0.15300
C 	C 	0.18430 0.33230 0.99890 -0.14000
C 	C 	0.33710 0.28450 0.97270 -0.14000
C 	C 	0.32530 0.15840 0.94780 -0.15300
C 	C 	0.87090 0.40260 0.54680 0.08800
C 	C 	0.02297 0.22403 0.51323 0.05000
C 	C 	0.95790 0.29110 0.50990 0.06400
C 	C 	0.07720 0.10660 0.50340 0.07600
C 	C 	0.86270 0.36800 0.45940 0.09000
C 	C 	0.15430 0.15200 0.52820 0.07800
C 	C 	0.92230 0.30570 0.46210 -0.15300
C 	C 	0.01550 0.16770 0.50110 -0.13900
C 	C 	0.09430 0.21550 0.52730 -0.14000
C 	C 	0.93150 0.34160 0.55220 -0.15300
N 	N 	0.66305 0.59817 0.48453 -0.24200
N 	N 	0.33738 0.91616 0.49888 -0.24600
N 	N 	0.24575 0.90183 0.01547 -0.24200
N 	N 	0.25242 0.58384 0.00112 -0.24500
N 	N 	0.25425 0.98453 0.09817 -0.24200
N 	N 	0.24758 0.99888 0.41616 -0.24600
N 	N 	0.83695 0.51547 0.40183 -0.24200
N 	N 	0.16262 0.50112 0.08384 -0.24500
N 	N 	0.35242 0.48453 0.90183 -0.24200
N 	N 	0.66374 0.49888 0.58384 -0.24600
N 	N 	0.23878 0.01547 0.59817 -0.24200
N 	N 	0.24646 0.00112 0.91616 -0.24500
N 	N 	0.26122 0.40183 0.98453 -0.24200
N 	N 	0.25354 0.08384 0.99888 -0.24500
N 	N 	0.14758 0.09817 0.51547 -0.24200
N 	N 	0.83626 0.41616 0.50112 -0.24600
Cu	Cu	0.74243 0.50757 0.00757 0.85200
Cu	Cu	0.75757 0.99243 0.49243 0.85200
Cu	Cu	0.25000 0.49243 0.50757 0.85200
Cu	Cu	0.75000 0.00757 0.99243 0.85200
H 	H 	0.35340 0.57620 0.43580 -0.02700
H 	H 	0.57050 0.49610 0.06930 -0.02200
H 	H 	0.33950 0.42690 0.37710 -0.02800
H 	H 	0.70160 0.53810 0.14650 -0.02100
H 	H 	0.43900 0.43190 0.27330 0.07700
H 	H 	0.46850 0.49170 0.17150 0.07200
H 	H 	0.60160 0.53590 0.25190 0.07200
H 	H 	0.45470 0.58440 0.33440 0.07800
H 	H 	0.86540 0.92380 0.06420 -0.02700
H 	H 	0.63590 0.00390 0.43070 -0.02200
H 	H 	0.64350 0.07310 0.12290 -0.02800
H 	H 	0.88620 0.96190 0.35350 -0.02100
H 	H 	0.64420 0.06810 0.22670 0.07700
H 	H 	0.63170 0.00830 0.32850 0.07100
H 	H 	0.88940 0.96410 0.24810 0.07200
H 	H 	0.87350 0.91560 0.16560 0.07800
H 	H 	0.63460 0.93580 0.07620 -0.02700
H 	H 	0.86410 0.56930 0.99610 -0.02200
H 	H 	0.85650 0.87710 0.92690 -0.02800
H 	H 	0.61380 0.64650 0.03810 -0.02100
H 	H 	0.85580 0.77330 0.93190 0.07700
H 	H 	0.86830 0.67150 0.99170 0.07200
H 	H 	0.61060 0.75190 0.03590 0.07200
H 	H 	0.62650 0.83440 0.08440 0.07800
H 	H 	0.14660 0.56420 0.42380 -0.02700
H 	H 	0.92950 0.93070 0.50390 -0.02200
H 	H 	0.16050 0.62290 0.57310 -0.02800
H 	H 	0.79840 0.85350 0.46190 -0.02100
H 	H 	0.06100 0.72670 0.56810 0.07700
H 	H 	0.03150 0.82850 0.50830 0.07100
H 	H 	0.89840 0.74810 0.46410 0.07200
H 	H 	0.04530 0.66560 0.41560 0.07800
H 	H 	0.57040 0.06420 0.57620 -0.02700
H 	H 	0.43340 0.43070 0.49610 -0.02200
H 	H 	0.73360 0.12290 0.42690 -0.02800
H 	H 	0.26030 0.35350 0.53810 -0.02100
H 	H 	0.62910 0.22670 0.43190 0.07700
H 	H 	0.53980 0.32850 0.49170 0.07200
H 	H 	0.36250 0.24810 0.53590 0.07200
H 	H 	0.46090 0.16560 0.58440 0.07800
H 	H 	0.71080 0.43580 0.92380 -0.02700
H 	H 	0.86020 0.06930 0.00390 -0.02300
H 	H 	0.78340 0.37710 0.07310 -0.02800
H 	H 	0.65190 0.14650 0.96190 -0.02100
H 	H 	0.78770 0.27330 0.06810 0.07700
H 	H 	0.86000 0.17150 0.00830 0.07100
H 	H 	0.64650 0.25190 0.96410 0.07200
H 	H 	0.71090 0.33440 0.91560 0.07800
H 	H 	0.78920 0.07620 0.56420 -0.02700
H 	H 	0.63980 0.99610 0.93070 -0.02200
H 	H 	0.71660 0.92690 0.62290 -0.02800
H 	H 	0.84810 0.03810 0.85350 -0.02100
H 	H 	0.71230 0.93190 0.72670 0.07700
H 	H 	0.64000 0.99170 0.82850 0.07200
H 	H 	0.85350 0.03590 0.74810 0.07200
H 	H 	0.78910 0.08440 0.66560 0.07800
H 	H 	0.92960 0.42380 0.93580 -0.02700
H 	H 	0.06660 0.50390 0.56930 -0.02200
H 	H 	0.76640 0.57310 0.87710 -0.02800
H 	H 	0.23970 0.46190 0.64650 -0.02100
H 	H 	0.87090 0.56810 0.77330 0.07700
H 	H 	0.96020 0.50830 0.67150 0.07200
H 	H 	0.13750 0.46410 0.75190 0.07200
H 	H 	0.03910 0.41560 0.83440 0.07800
C 	C 	0.37090 0.54680 0.40260 0.08800
C 	C 	0.52297 0.51323 0.22403 0.05100
C 	C 	0.45790 0.50990 0.29110 0.06400
C 	C 	0.57720 0.50340 0.10660 0.07600
C 	C 	0.36270 0.45940 0.36800 0.09000
C 	C 	0.65430 0.52820 0.15200 0.07800
C 	C 	0.42230 0.46210 0.30570 -0.15300
C 	C 	0.51550 0.50110 0.16770 -0.14000
C 	C 	0.59430 0.52730 0.21550 -0.14000
C 	C 	0.43150 0.55220 0.34160 -0.15300
C 	C 	0.82030 0.95320 0.09740 0.08900
C 	C 	0.76023 0.98677 0.27597 0.05000
C 	C 	0.75890 0.99010 0.20890 0.06500
C 	C 	0.68720 0.99660 0.39340 0.07600
C 	C 	0.69010 0.04060 0.13200 0.09000
C 	C 	0.83450 0.97180 0.34800 0.07800
C 	C 	0.69010 0.03790 0.19430 -0.15400
C 	C 	0.68430 0.99890 0.33230 -0.13900
C 	C 	0.83710 0.97270 0.28450 -0.14000
C 	C 	0.82530 0.94780 0.15840 -0.15400
C 	C 	0.67970 0.90260 0.04680 0.08800
C 	C 	0.73977 0.72403 0.01323 0.05100
C 	C 	0.74110 0.79110 0.00990 0.06400
C 	C 	0.81280 0.60660 0.00340 0.07600
C 	C 	0.80990 0.86800 0.95940 0.09000
C 	C 	0.66550 0.65200 0.02820 0.07800
C 	C 	0.80990 0.80570 0.96210 -0.15300
C 	C 	0.81570 0.66770 0.00110 -0.14000
C 	C 	0.66290 0.71550 0.02730 -0.14000
C 	C 	0.67470 0.84160 0.05220 -0.15300
C 	C 	0.12910 0.59740 0.45320 0.08800
C 	C 	0.97703 0.77597 0.48677 0.05000
C 	C 	0.04210 0.70890 0.49010 0.06400
C 	C 	0.92280 0.89340 0.49660 0.07600
C 	C 	0.13730 0.63200 0.54060 0.09000
C 	C 	0.84570 0.84800 0.47180 0.07800
C 	C 	0.07770 0.69430 0.53790 -0.15300
C 	C 	0.98450 0.83230 0.49890 -0.13900
C 	C 	0.90570 0.78450 0.47270 -0.14000
C 	C 	0.06850 0.65840 0.44780 -0.15300
C 	C 	0.58230 0.09740 0.54680 0.08800
C 	C 	0.46380 0.27597 0.51323 0.05100
C 	C 	0.53220 0.20890 0.50990 0.06400
C 	C 	0.41940 0.39340 0.50340 0.07600
C 	C 	0.67790 0.13200 0.45940 0.09000
C 	C 	0.31750 0.34800 0.52820 0.07800
C 	C 	0.61560 0.19430 0.46210 -0.15300
C 	C 	0.48340 0.33230 0.50110 -0.14000
C 	C 	0.37840 0.28450 0.52730 -0.14000
C 	C 	0.51630 0.15840 0.55220 -0.15300
C 	C 	0.72650 0.40260 0.95320 0.08900
C 	C 	0.75300 0.22403 0.98677 0.05000
C 	C 	0.75100 0.29110 0.99010 0.06500
C 	C 	0.81620 0.10660 0.99660 0.07600
C 	C 	0.76930 0.36800 0.04060 0.09000
C 	C 	0.69370 0.15200 0.97180 0.07800
C 	C 	0.77200 0.30570 0.03790 -0.15400
C 	C 	0.81680 0.16770 0.99890 -0.13900
C 	C 	0.69020 0.21550 0.97270 -0.14000
C 	C 	0.72690 0.34160 0.94780 -0.15400
C 	C 	0.77350 0.04680 0.59740 0.08800
C 	C 	0.74700 0.01323 0.77597 0.05100
C 	C 	0.74900 0.00990 0.70890 0.06500
C 	C 	0.68380 0.00340 0.89340 0.07600
C 	C 	0.73070 0.95940 0.63200 0.09000
C 	C 	0.80630 0.02820 0.84800 0.07800
C 	C 	0.72800 0.96210 0.69430 -0.15300
C 	C 	0.68320 0.00110 0.83230 -0.14000
C 	C 	0.80980 0.02730 0.78450 -0.14000
C 	C 	0.77310 0.05220 0.65840 -0.15400
C 	C 	0.91770 0.45320 0.90260 0.08800
C 	C 	0.03620 0.48677 0.72403 0.05100
C 	C 	0.96780 0.49010 0.79110 0.06400
C 	C 	0.08060 0.49660 0.60660 0.07600
C 	C 	0.82210 0.54060 0.86800 0.09000
C 	C 	0.18250 0.47180 0.65200 0.07800
C 	C 	0.88440 0.53790 0.80570 -0.15300
C 	C 	0.01660 0.49890 0.66770 -0.14000
C 	C 	0.12160 0.47270 0.71550 -0.14000
C 	C 	0.98370 0.44780 0.84160 -0.15300
N 	N 	0.64758 0.51547 0.09817 -0.24200
N 	N 	0.33626 0.50112 0.41616 -0.24600
N 	N 	0.76122 0.98453 0.40183 -0.24200
N 	N 	0.75354 0.99888 0.08384 -0.24500
N 	N 	0.73878 0.59817 0.01547 -0.24200
N 	N 	0.74646 0.91616 0.00112 -0.24500
N 	N 	0.85242 0.90183 0.48453 -0.24200
N 	N 	0.16374 0.58384 0.49888 -0.24600
N 	N 	0.33695 0.40183 0.51547 -0.24200
N 	N 	0.66262 0.08384 0.50112 -0.24600
N 	N 	0.75425 0.09817 0.98453 -0.24200
N 	N 	0.74758 0.41616 0.99888 -0.24500
N 	N 	0.74575 0.01547 0.90183 -0.24200
N 	N 	0.75242 0.00112 0.58384 -0.24600
N 	N 	0.16305 0.48453 0.59817 -0.24200
N 	N 	0.83738 0.49888 0.91616 -0.24500
