data_crystal

_cell_length_a 9.75280
_cell_length_b 16.19430
_cell_length_c 17.27510
_cell_angle_alpha 90.00000
_cell_angle_beta  104.76300
_cell_angle_gamma 90.00000

_symmetry_space_group_name_	'P 1'
_symmetry_space_group_name_H-M	'P 1'

loop_
_symmetry_equiv_pos_as_xyz
  x,y,z

loop_
_atom_site_label
_atom_site_type_symbol
_atom_site_fract_x
_atom_site_fract_y
_atom_site_fract_z
_atom_site_charge
Na	Na	0.70027 0.13524 0.23277 0.57200
N 	N 	0.90379 0.18470 0.33038 -0.18300
C 	C 	0.02149 0.22123 0.31816 0.05900
H 	H 	0.02200 0.23330 0.26440 -0.00200
C 	C 	0.13942 0.24223 0.37657 -0.11600
H 	H 	0.21770 0.26700 0.36220 0.06000
C 	C 	0.14639 0.22743 0.45888 0.03200
C 	C 	0.02260 0.18892 0.47132 -0.11200
H 	H 	0.01790 0.17630 0.52430 0.06000
C 	C 	0.91022 0.16969 0.40841 0.05100
H 	H 	0.83060 0.14380 0.42030 0.00300
N 	N 	0.81024 0.06907 0.14139 -0.18600
C 	C 	0.81250 0.98936 0.11839 0.06300
H 	H 	0.75990 0.95080 0.14070 -0.00400
C 	C 	0.88428 0.95949 0.06564 -0.12000
H 	H 	0.88060 0.90220 0.05340 0.07000
C 	C 	0.96439 0.01352 0.02891 0.04100
C 	C 	0.96529 0.09714 0.05499 -0.11400
H 	H 	0.01900 0.13730 0.03530 0.06600
C 	C 	0.88938 0.12008 0.10823 0.05700
H 	H 	0.89260 0.17670 0.12310 -0.00800
N 	N 	0.58825 0.06555 0.31983 -0.18700
C 	C 	0.63731 0.99470 0.35851 0.06100
H 	H 	0.69670 0.96110 0.33570 -0.00400
C 	C 	0.60873 0.96730 0.42747 -0.11900
H 	H 	0.64900 0.91690 0.45080 0.07100
C 	C 	0.51915 0.01360 0.46489 0.04200
C 	C 	0.46937 0.08880 0.42495 -0.11800
H 	H 	0.41040 0.12430 0.44620 0.06900
C 	C 	0.50550 0.11041 0.35645 0.05800
H 	H 	0.46960 0.16130 0.33230 -0.00500
N 	N 	0.51569 0.28363 0.64962 -0.18300
C 	C 	0.50655 0.30006 0.57165 0.04700
H 	H 	0.58720 0.32390 0.55910 -0.00200
C 	C 	0.39076 0.28509 0.50945 -0.11100
H 	H 	0.39390 0.29910 0.45650 0.05900
C 	C 	0.26582 0.24886 0.52258 0.03100
C 	C 	0.27377 0.23448 0.60493 -0.11600
H 	H 	0.19370 0.21280 0.61990 0.06000
C 	C 	0.39495 0.25147 0.66275 0.05800
H 	H 	0.39470 0.23980 0.71660 -0.00100
Na	Na	0.29973 0.63524 0.26723 0.57200
N 	N 	0.09621 0.68470 0.16962 -0.18300
C 	C 	0.97851 0.72123 0.18184 0.05900
H 	H 	0.97800 0.73330 0.23560 -0.00200
C 	C 	0.86058 0.74223 0.12343 -0.11600
H 	H 	0.78230 0.76700 0.13780 0.06000
C 	C 	0.85361 0.72743 0.04112 0.03200
C 	C 	0.97740 0.68892 0.02868 -0.10900
H 	H 	0.98210 0.67630 0.97570 0.05900
C 	C 	0.08978 0.66969 0.09159 0.04900
H 	H 	0.16940 0.64380 0.07970 0.00300
N 	N 	0.18976 0.56907 0.35861 -0.18700
C 	C 	0.18750 0.48936 0.38161 0.06300
H 	H 	0.24010 0.45080 0.35930 -0.00400
C 	C 	0.11572 0.45949 0.43436 -0.11900
H 	H 	0.11940 0.40220 0.44660 0.07000
C 	C 	0.03561 0.51352 0.47109 0.04100
C 	C 	0.03471 0.59714 0.44501 -0.11600
H 	H 	0.98100 0.63730 0.46470 0.06800
C 	C 	0.11062 0.62008 0.39177 0.05800
H 	H 	0.10740 0.67670 0.37690 -0.00800
N 	N 	0.41175 0.56555 0.18017 -0.18700
C 	C 	0.36269 0.49470 0.14149 0.06200
H 	H 	0.30330 0.46110 0.16430 -0.00400
C 	C 	0.39127 0.46730 0.07253 -0.11900
H 	H 	0.35100 0.41690 0.04920 0.07100
C 	C 	0.48085 0.51360 0.03511 0.04200
C 	C 	0.53063 0.58880 0.07505 -0.11800
H 	H 	0.58960 0.62430 0.05380 0.06900
C 	C 	0.49450 0.61041 0.14355 0.05800
H 	H 	0.53040 0.66130 0.16770 -0.00500
N 	N 	0.48431 0.78363 0.85038 -0.18300
C 	C 	0.49345 0.80006 0.92835 0.04700
H 	H 	0.41280 0.82390 0.94090 -0.00200
C 	C 	0.60924 0.78509 0.99055 -0.11100
H 	H 	0.60610 0.79910 0.04350 0.05900
C 	C 	0.73418 0.74886 0.97742 0.03100
C 	C 	0.72623 0.73448 0.89507 -0.11600
H 	H 	0.80630 0.71280 0.88010 0.06000
C 	C 	0.60505 0.75147 0.83725 0.05800
H 	H 	0.60530 0.73980 0.78340 -0.00100
Na	Na	0.29973 0.86476 0.76723 0.57200
N 	N 	0.09621 0.81530 0.66962 -0.18300
C 	C 	0.97851 0.77877 0.68184 0.05900
H 	H 	0.97800 0.76670 0.73560 -0.00200
C 	C 	0.86058 0.75777 0.62343 -0.11600
H 	H 	0.78230 0.73300 0.63780 0.06000
C 	C 	0.85361 0.77257 0.54112 0.03200
C 	C 	0.97740 0.81108 0.52868 -0.11200
H 	H 	0.98210 0.82370 0.47570 0.06000
C 	C 	0.08978 0.83031 0.59159 0.05100
H 	H 	0.16940 0.85620 0.57970 0.00300
N 	N 	0.18976 0.93093 0.85861 -0.18600
C 	C 	0.18750 0.01064 0.88161 0.06300
H 	H 	0.24010 0.04920 0.85930 -0.00400
C 	C 	0.11572 0.04051 0.93436 -0.12000
H 	H 	0.11940 0.09780 0.94660 0.07000
C 	C 	0.03561 0.98648 0.97109 0.04100
C 	C 	0.03471 0.90286 0.94501 -0.11400
H 	H 	0.98100 0.86270 0.96470 0.06600
C 	C 	0.11062 0.87992 0.89177 0.05700
H 	H 	0.10740 0.82330 0.87690 -0.00800
N 	N 	0.41175 0.93445 0.68017 -0.18700
C 	C 	0.36269 0.00530 0.64149 0.06100
H 	H 	0.30330 0.03890 0.66430 -0.00400
C 	C 	0.39127 0.03270 0.57253 -0.11900
H 	H 	0.35100 0.08310 0.54920 0.07100
C 	C 	0.48085 0.98640 0.53511 0.04200
C 	C 	0.53063 0.91120 0.57505 -0.11800
H 	H 	0.58960 0.87570 0.55380 0.06900
C 	C 	0.49450 0.88959 0.64355 0.05800
H 	H 	0.53040 0.83870 0.66770 -0.00500
N 	N 	0.48431 0.71637 0.35038 -0.18300
C 	C 	0.49345 0.69994 0.42835 0.04700
H 	H 	0.41280 0.67610 0.44090 -0.00200
C 	C 	0.60924 0.71491 0.49055 -0.11100
H 	H 	0.60610 0.70090 0.54350 0.05900
C 	C 	0.73418 0.75114 0.47742 0.03100
C 	C 	0.72623 0.76552 0.39507 -0.11600
H 	H 	0.80630 0.78720 0.38010 0.06000
C 	C 	0.60505 0.74853 0.33725 0.05800
H 	H 	0.60530 0.76020 0.28340 -0.00100
Na	Na	0.70027 0.36476 0.73277 0.57200
N 	N 	0.90379 0.31530 0.83038 -0.18300
C 	C 	0.02149 0.27877 0.81816 0.05900
H 	H 	0.02200 0.26670 0.76440 -0.00200
C 	C 	0.13942 0.25777 0.87657 -0.11600
H 	H 	0.21770 0.23300 0.86220 0.06000
C 	C 	0.14639 0.27257 0.95888 0.03200
C 	C 	0.02260 0.31108 0.97132 -0.10900
H 	H 	0.01790 0.32370 0.02430 0.05900
C 	C 	0.91022 0.33031 0.90841 0.04900
H 	H 	0.83060 0.35620 0.92030 0.00300
N 	N 	0.81024 0.43093 0.64139 -0.18700
C 	C 	0.81250 0.51064 0.61839 0.06300
H 	H 	0.75990 0.54920 0.64070 -0.00400
C 	C 	0.88428 0.54051 0.56564 -0.11900
H 	H 	0.88060 0.59780 0.55340 0.07000
C 	C 	0.96439 0.48648 0.52891 0.04100
C 	C 	0.96529 0.40286 0.55499 -0.11600
H 	H 	0.01900 0.36270 0.53530 0.06800
C 	C 	0.88938 0.37992 0.60823 0.05800
H 	H 	0.89260 0.32330 0.62310 -0.00800
N 	N 	0.58825 0.43445 0.81983 -0.18700
C 	C 	0.63731 0.50530 0.85851 0.06200
H 	H 	0.69670 0.53890 0.83570 -0.00400
C 	C 	0.60873 0.53270 0.92747 -0.11900
H 	H 	0.64900 0.58310 0.95080 0.07100
C 	C 	0.51915 0.48640 0.96489 0.04200
C 	C 	0.46937 0.41120 0.92495 -0.11800
H 	H 	0.41040 0.37570 0.94620 0.06900
C 	C 	0.50550 0.38959 0.85645 0.05800
H 	H 	0.46960 0.33870 0.83230 -0.00500
N 	N 	0.51569 0.21637 0.14962 -0.18300
C 	C 	0.50655 0.19994 0.07165 0.04700
H 	H 	0.58720 0.17610 0.05910 -0.00200
C 	C 	0.39076 0.21491 0.00945 -0.11100
H 	H 	0.39390 0.20090 0.95650 0.05900
C 	C 	0.26582 0.25114 0.02258 0.03100
C 	C 	0.27377 0.26552 0.10493 -0.11600
H 	H 	0.19370 0.28720 0.11990 0.06000
C 	C 	0.39495 0.24853 0.16275 0.05800
H 	H 	0.39470 0.26020 0.21660 -0.00100
