data_crystal

_cell_length_a 13.18660
_cell_length_b 13.18660
_cell_length_c 29.45770
_cell_angle_alpha 90.00000
_cell_angle_beta  90.00000
_cell_angle_gamma 90.00000

_symmetry_space_group_name_	'P 1'
_symmetry_space_group_name_H-M	'P 1'

loop_
_symmetry_equiv_pos_as_xyz
  x,y,z

loop_
_atom_site_label
_atom_site_type_symbol
_atom_site_fract_x
_atom_site_fract_y
_atom_site_fract_z
_atom_site_charge
Ni	Ni	0.73851 0.71969 0.36708 1.09300
Ni	Ni	0.26149 0.28031 0.86708 1.09300
Ni	Ni	0.78031 0.23851 0.11708 1.09300
Ni	Ni	0.21969 0.76149 0.61708 1.09300
Ni	Ni	0.76149 0.21969 0.38292 1.09300
Ni	Ni	0.23851 0.78031 0.88292 1.09300
Ni	Ni	0.71969 0.73851 0.63292 1.09300
Ni	Ni	0.28031 0.26149 0.13292 1.09300
Mo	Mo	0.61903 0.46371 0.38003 1.06600
Mo	Mo	0.38097 0.53629 0.88003 1.06600
Mo	Mo	0.03629 0.11903 0.13003 1.06300
Mo	Mo	0.96371 0.88097 0.63003 1.06300
Mo	Mo	0.88097 0.96371 0.36997 1.06300
Mo	Mo	0.11903 0.03629 0.86997 1.06300
Mo	Mo	0.46371 0.61903 0.61997 1.06500
Mo	Mo	0.53629 0.38097 0.11997 1.06500
H 	H 	0.85770 0.53610 0.39380 -0.01300
H 	H 	0.99150 0.48840 0.43950 0.08300
H 	H 	0.94710 0.74990 0.50890 0.06800
H 	H 	0.82520 0.79030 0.45750 -0.02400
H 	H 	0.15110 0.93910 0.56210 -0.03400
H 	H 	0.17550 0.01820 0.49200 0.04300
H 	H 	0.30060 0.95780 0.44290 0.01100
H 	H 	0.37530 0.75540 0.53950 -0.02900
H 	H 	0.62710 0.65780 0.45590 -0.04500
H 	H 	0.49170 0.70000 0.49790 0.05800
H 	H 	0.43870 0.92710 0.41140 0.08700
H 	H 	0.57520 0.87840 0.37170 -0.01600
H 	H 	0.25770 0.53080 0.60030 -0.05700
H 	H 	0.20460 0.40260 0.55220 0.05300
H 	H 	0.08510 0.43440 0.49800 0.01700
H 	H 	0.09260 0.72590 0.53760 -0.00400
H 	H 	0.14230 0.46390 0.89380 -0.01300
H 	H 	0.00850 0.51160 0.93950 0.08300
H 	H 	0.05290 0.25010 0.00890 0.06800
H 	H 	0.17480 0.20970 0.95750 -0.02400
H 	H 	0.84890 0.06090 0.06210 -0.03400
H 	H 	0.82450 0.98180 0.99200 0.04100
H 	H 	0.69940 0.04220 0.94290 0.01100
H 	H 	0.62470 0.24460 0.03950 -0.02900
H 	H 	0.37290 0.34220 0.95590 -0.04500
H 	H 	0.50830 0.30000 0.99790 0.05800
H 	H 	0.56130 0.07290 0.91140 0.08700
H 	H 	0.42480 0.12160 0.87170 -0.01600
H 	H 	0.74230 0.46920 0.10030 -0.05700
H 	H 	0.79540 0.59740 0.05220 0.05300
H 	H 	0.91490 0.56560 0.99800 0.01600
H 	H 	0.90740 0.27410 0.03760 -0.00400
H 	H 	0.96390 0.35770 0.14380 -0.01200
H 	H 	0.01160 0.49150 0.18950 0.08100
H 	H 	0.75010 0.44710 0.25890 0.07000
H 	H 	0.70970 0.32520 0.20750 -0.02400
H 	H 	0.56090 0.65110 0.31210 -0.03700
H 	H 	0.48180 0.67550 0.24200 0.04800
H 	H 	0.54220 0.80060 0.19290 0.00900
H 	H 	0.74460 0.87530 0.28950 -0.02900
H 	H 	0.84220 0.12710 0.20590 -0.04100
H 	H 	0.80000 0.99170 0.24790 0.04800
H 	H 	0.57290 0.93870 0.16140 0.08600
H 	H 	0.62160 0.07520 0.12170 -0.01500
H 	H 	0.96920 0.75770 0.35030 -0.05700
H 	H 	0.09740 0.70460 0.30220 0.05200
H 	H 	0.06560 0.58510 0.24800 0.01800
H 	H 	0.77410 0.59260 0.28760 -0.00500
H 	H 	0.03610 0.64230 0.64380 -0.01200
H 	H 	0.98840 0.50850 0.68950 0.08100
H 	H 	0.24990 0.55290 0.75890 0.07000
H 	H 	0.29030 0.67480 0.70750 -0.02400
H 	H 	0.43910 0.34890 0.81210 -0.03700
H 	H 	0.51820 0.32450 0.74200 0.04800
H 	H 	0.45780 0.19940 0.69290 0.00900
H 	H 	0.25540 0.12470 0.78950 -0.02900
H 	H 	0.15780 0.87290 0.70590 -0.04100
H 	H 	0.20000 0.00830 0.74790 0.04800
H 	H 	0.42710 0.06130 0.66140 0.08600
H 	H 	0.37840 0.92480 0.62170 -0.01500
H 	H 	0.03080 0.24230 0.85030 -0.05700
H 	H 	0.90260 0.29540 0.80220 0.05200
H 	H 	0.93440 0.41490 0.74800 0.01800
H 	H 	0.22590 0.40740 0.78760 -0.00500
H 	H 	0.64230 0.03610 0.35620 -0.01200
H 	H 	0.50850 0.98840 0.31050 0.08100
H 	H 	0.55290 0.24990 0.24110 0.07000
H 	H 	0.67480 0.29030 0.29250 -0.02400
H 	H 	0.34890 0.43910 0.18790 -0.03700
H 	H 	0.32450 0.51820 0.25800 0.04800
H 	H 	0.19940 0.45780 0.30710 0.00900
H 	H 	0.12470 0.25540 0.21050 -0.02900
H 	H 	0.87290 0.15780 0.29410 -0.04100
H 	H 	0.00830 0.20000 0.25210 0.04800
H 	H 	0.06130 0.42710 0.33860 0.08600
H 	H 	0.92480 0.37840 0.37830 -0.01500
H 	H 	0.24230 0.03080 0.14970 -0.05700
H 	H 	0.29540 0.90260 0.19780 0.05200
H 	H 	0.41490 0.93440 0.25200 0.01800
H 	H 	0.40740 0.22590 0.21240 -0.00500
H 	H 	0.35770 0.96390 0.85620 -0.01200
H 	H 	0.49150 0.01160 0.81050 0.08100
H 	H 	0.44710 0.75010 0.74110 0.07000
H 	H 	0.32520 0.70970 0.79250 -0.02400
H 	H 	0.65110 0.56090 0.68790 -0.03700
H 	H 	0.67550 0.48180 0.75800 0.04800
H 	H 	0.80060 0.54220 0.80710 0.00900
H 	H 	0.87530 0.74460 0.71050 -0.02900
H 	H 	0.12710 0.84220 0.79410 -0.04100
H 	H 	0.99170 0.80000 0.75210 0.04800
H 	H 	0.93870 0.57290 0.83860 0.08600
H 	H 	0.07520 0.62160 0.87830 -0.01500
H 	H 	0.75770 0.96920 0.64970 -0.05700
H 	H 	0.70460 0.09740 0.69780 0.05200
H 	H 	0.58510 0.06560 0.75200 0.01800
H 	H 	0.59260 0.77410 0.71240 -0.00500
H 	H 	0.53610 0.85770 0.60620 -0.01300
H 	H 	0.48840 0.99150 0.56050 0.08300
H 	H 	0.74990 0.94710 0.49110 0.06800
H 	H 	0.79030 0.82520 0.54250 -0.02400
H 	H 	0.93910 0.15110 0.43790 -0.03400
H 	H 	0.01820 0.17550 0.50800 0.04300
H 	H 	0.95780 0.30060 0.55710 0.01100
H 	H 	0.75540 0.37530 0.46050 -0.02900
H 	H 	0.65780 0.62710 0.54410 -0.04500
H 	H 	0.70000 0.49170 0.50210 0.05800
H 	H 	0.92710 0.43870 0.58860 0.08700
H 	H 	0.87840 0.57520 0.62830 -0.01600
H 	H 	0.53080 0.25770 0.39970 -0.05700
H 	H 	0.40260 0.20460 0.44780 0.05300
H 	H 	0.43440 0.08510 0.50200 0.01700
H 	H 	0.72590 0.09260 0.46240 -0.00400
H 	H 	0.46390 0.14230 0.10620 -0.01300
H 	H 	0.51160 0.00850 0.06050 0.08300
H 	H 	0.25010 0.05290 0.99110 0.06800
H 	H 	0.20970 0.17480 0.04250 -0.02400
H 	H 	0.06090 0.84890 0.93790 -0.03400
H 	H 	0.98180 0.82450 0.00800 0.04100
H 	H 	0.04220 0.69940 0.05710 0.01100
H 	H 	0.24460 0.62470 0.96050 -0.02900
H 	H 	0.34220 0.37290 0.04410 -0.04500
H 	H 	0.30000 0.50830 0.00210 0.05800
H 	H 	0.07290 0.56130 0.08860 0.08700
H 	H 	0.12160 0.42480 0.12830 -0.01600
H 	H 	0.46920 0.74230 0.89970 -0.05700
H 	H 	0.59740 0.79540 0.94780 0.05300
H 	H 	0.56560 0.91490 0.00200 0.01600
H 	H 	0.27410 0.90740 0.96240 -0.00400
C 	C 	0.87840 0.58050 0.41660 0.08000
C 	C 	0.95840 0.54960 0.44470 -0.16300
C 	C 	0.98750 0.61220 0.48060 0.09800
C 	C 	0.93250 0.70560 0.48520 -0.16100
C 	C 	0.85840 0.72850 0.45440 0.07300
C 	C 	0.20280 0.91640 0.54320 0.06200
C 	C 	0.21680 0.96430 0.50060 -0.11800
C 	C 	0.29270 0.92990 0.47170 0.00700
C 	C 	0.35720 0.85220 0.48670 -0.07900
C 	C 	0.33530 0.80910 0.52960 0.05300
C 	C 	0.58810 0.71260 0.44640 0.08800
C 	C 	0.50680 0.73760 0.47210 -0.18000
C 	C 	0.44570 0.81930 0.45990 0.11200
C 	C 	0.47570 0.87110 0.42110 -0.17900
C 	C 	0.55770 0.84140 0.39740 0.09100
C 	C 	0.21130 0.54590 0.57750 0.06400
C 	C 	0.17800 0.46750 0.54900 -0.13400
C 	C 	0.10750 0.48610 0.51700 0.01400
C 	C 	0.06790 0.58590 0.51270 -0.07200
C 	C 	0.11270 0.65890 0.54160 0.05300
C 	C 	0.12160 0.41950 0.91660 0.08000
C 	C 	0.04160 0.45040 0.94470 -0.16300
C 	C 	0.01250 0.38780 0.98060 0.09900
C 	C 	0.06750 0.29440 0.98520 -0.16000
C 	C 	0.14160 0.27150 0.95440 0.07200
C 	C 	0.79720 0.08360 0.04320 0.06000
C 	C 	0.78320 0.03570 0.00060 -0.11500
C 	C 	0.70730 0.07010 0.97170 0.00500
C 	C 	0.64280 0.14780 0.98670 -0.07900
C 	C 	0.66470 0.19090 0.02960 0.05400
C 	C 	0.41190 0.28740 0.94640 0.08800
C 	C 	0.49320 0.26240 0.97210 -0.18000
C 	C 	0.55430 0.18070 0.95990 0.11100
C 	C 	0.52430 0.12890 0.92110 -0.17900
C 	C 	0.44230 0.15860 0.89740 0.09100
C 	C 	0.78870 0.45410 0.07750 0.06400
C 	C 	0.82200 0.53250 0.04900 -0.13500
C 	C 	0.89250 0.51390 0.01700 0.01600
C 	C 	0.93210 0.41410 0.01270 -0.07300
C 	C 	0.88730 0.34110 0.04160 0.05300
C 	C 	0.91950 0.37840 0.16660 0.08000
C 	C 	0.95040 0.45840 0.19470 -0.16000
C 	C 	0.88780 0.48750 0.23060 0.10000
C 	C 	0.79440 0.43250 0.23520 -0.16100
C 	C 	0.77150 0.35840 0.20440 0.07300
C 	C 	0.58360 0.70280 0.29320 0.06500
C 	C 	0.53570 0.71680 0.25060 -0.12700
C 	C 	0.57010 0.79270 0.22170 0.01000
C 	C 	0.64780 0.85720 0.23670 -0.07800
C 	C 	0.69090 0.83530 0.27960 0.05200
C 	C 	0.78740 0.08810 0.19640 0.07900
C 	C 	0.76240 0.00680 0.22210 -0.16000
C 	C 	0.68070 0.94570 0.20990 0.10200
C 	C 	0.62890 0.97570 0.17110 -0.17800
C 	C 	0.65860 0.05770 0.14740 0.09200
C 	C 	0.95410 0.71130 0.32750 0.06100
C 	C 	0.03250 0.67800 0.29900 -0.13000
C 	C 	0.01390 0.60750 0.26700 0.01400
C 	C 	0.91410 0.56790 0.26270 -0.07400
C 	C 	0.84110 0.61270 0.29160 0.05300
C 	C 	0.08050 0.62160 0.66660 0.08000
C 	C 	0.04960 0.54160 0.69470 -0.16000
C 	C 	0.11220 0.51250 0.73060 0.10000
C 	C 	0.20560 0.56750 0.73520 -0.16100
C 	C 	0.22850 0.64160 0.70440 0.07300
C 	C 	0.41640 0.29720 0.79320 0.06500
C 	C 	0.46430 0.28320 0.75060 -0.12700
C 	C 	0.42990 0.20730 0.72170 0.01000
C 	C 	0.35220 0.14280 0.73670 -0.07800
C 	C 	0.30910 0.16470 0.77960 0.05200
C 	C 	0.21260 0.91190 0.69640 0.07900
C 	C 	0.23760 0.99320 0.72210 -0.16000
C 	C 	0.31930 0.05430 0.70990 0.10200
C 	C 	0.37110 0.02430 0.67110 -0.17700
C 	C 	0.34140 0.94230 0.64740 0.09200
C 	C 	0.04590 0.28870 0.82750 0.06100
C 	C 	0.96750 0.32200 0.79900 -0.13100
C 	C 	0.98610 0.39250 0.76700 0.01400
C 	C 	0.08590 0.43210 0.76270 -0.07400
C 	C 	0.15890 0.38730 0.79160 0.05300
C 	C 	0.62160 0.08050 0.33340 0.08000
C 	C 	0.54160 0.04960 0.30530 -0.16000
C 	C 	0.51250 0.11220 0.26940 0.10000
C 	C 	0.56750 0.20560 0.26480 -0.16100
C 	C 	0.64160 0.22850 0.29560 0.07300
C 	C 	0.29720 0.41640 0.20680 0.06500
C 	C 	0.28320 0.46430 0.24940 -0.12700
C 	C 	0.20730 0.42990 0.27830 0.01000
C 	C 	0.14280 0.35220 0.26330 -0.07800
C 	C 	0.16470 0.30910 0.22040 0.05200
C 	C 	0.91190 0.21260 0.30360 0.07900
C 	C 	0.99320 0.23760 0.27790 -0.16000
C 	C 	0.05430 0.31930 0.29010 0.10200
C 	C 	0.02430 0.37110 0.32890 -0.17700
C 	C 	0.94230 0.34140 0.35260 0.09200
C 	C 	0.28870 0.04590 0.17250 0.06100
C 	C 	0.32200 0.96750 0.20100 -0.13100
C 	C 	0.39250 0.98610 0.23300 0.01400
C 	C 	0.43210 0.08590 0.23730 -0.07400
C 	C 	0.38730 0.15890 0.20840 0.05300
C 	C 	0.37840 0.91950 0.83340 0.08000
C 	C 	0.45840 0.95040 0.80530 -0.16000
C 	C 	0.48750 0.88780 0.76940 0.10000
C 	C 	0.43250 0.79440 0.76480 -0.16100
C 	C 	0.35840 0.77150 0.79560 0.07300
C 	C 	0.70280 0.58360 0.70680 0.06500
C 	C 	0.71680 0.53570 0.74940 -0.12700
C 	C 	0.79270 0.57010 0.77830 0.01000
C 	C 	0.85720 0.64780 0.76330 -0.07800
C 	C 	0.83530 0.69090 0.72040 0.05200
C 	C 	0.08810 0.78740 0.80360 0.07900
C 	C 	0.00680 0.76240 0.77790 -0.16000
C 	C 	0.94570 0.68070 0.79010 0.10200
C 	C 	0.97570 0.62890 0.82890 -0.17800
C 	C 	0.05770 0.65860 0.85260 0.09200
C 	C 	0.71130 0.95410 0.67250 0.06100
C 	C 	0.67800 0.03250 0.70100 -0.13000
C 	C 	0.60750 0.01390 0.73300 0.01400
C 	C 	0.56790 0.91410 0.73730 -0.07400
C 	C 	0.61270 0.84110 0.70840 0.05300
C 	C 	0.58050 0.87840 0.58340 0.08000
C 	C 	0.54960 0.95840 0.55530 -0.16300
C 	C 	0.61220 0.98750 0.51940 0.09800
C 	C 	0.70560 0.93250 0.51480 -0.16100
C 	C 	0.72850 0.85840 0.54560 0.07300
C 	C 	0.91640 0.20280 0.45680 0.06200
C 	C 	0.96430 0.21680 0.49940 -0.11800
C 	C 	0.92990 0.29270 0.52830 0.00700
C 	C 	0.85220 0.35720 0.51330 -0.07900
C 	C 	0.80910 0.33530 0.47040 0.05300
C 	C 	0.71260 0.58810 0.55360 0.08800
C 	C 	0.73760 0.50680 0.52790 -0.18000
C 	C 	0.81930 0.44570 0.54010 0.11200
C 	C 	0.87110 0.47570 0.57890 -0.17900
C 	C 	0.84140 0.55770 0.60260 0.09100
C 	C 	0.54590 0.21130 0.42250 0.06400
C 	C 	0.46750 0.17800 0.45100 -0.13400
C 	C 	0.48610 0.10750 0.48300 0.01400
C 	C 	0.58590 0.06790 0.48730 -0.07200
C 	C 	0.65890 0.11270 0.45840 0.05300
C 	C 	0.41950 0.12160 0.08340 0.08000
C 	C 	0.45040 0.04160 0.05530 -0.16300
C 	C 	0.38780 0.01250 0.01940 0.09900
C 	C 	0.29440 0.06750 0.01480 -0.16000
C 	C 	0.27150 0.14160 0.04560 0.07200
C 	C 	0.08360 0.79720 0.95680 0.06000
C 	C 	0.03570 0.78320 0.99940 -0.11500
C 	C 	0.07010 0.70730 0.02830 0.00500
C 	C 	0.14780 0.64280 0.01330 -0.07900
C 	C 	0.19090 0.66470 0.97040 0.05400
C 	C 	0.28740 0.41190 0.05360 0.08800
C 	C 	0.26240 0.49320 0.02790 -0.18000
C 	C 	0.18070 0.55430 0.04010 0.11100
C 	C 	0.12890 0.52430 0.07890 -0.17900
C 	C 	0.15860 0.44230 0.10260 0.09100
C 	C 	0.45410 0.78870 0.92250 0.06400
C 	C 	0.53250 0.82200 0.95100 -0.13500
C 	C 	0.51390 0.89250 0.98300 0.01600
C 	C 	0.41410 0.93210 0.98730 -0.07300
C 	C 	0.34110 0.88730 0.95840 0.05300
N 	N 	0.83020 0.66790 0.41990 -0.24300
N 	N 	0.61680 0.76040 0.40870 -0.24600
N 	N 	0.26050 0.84080 0.55700 -0.22700
N 	N 	0.17890 0.64160 0.57310 -0.23300
N 	N 	0.16980 0.33210 0.91990 -0.24300
N 	N 	0.38320 0.23960 0.90870 -0.24600
N 	N 	0.73950 0.15920 0.05700 -0.22700
N 	N 	0.82110 0.35840 0.07310 -0.23300
N 	N 	0.83210 0.33020 0.16990 -0.24200
N 	N 	0.73960 0.11680 0.15870 -0.24400
N 	N 	0.65920 0.76050 0.30700 -0.22800
N 	N 	0.85840 0.67890 0.32310 -0.23300
N 	N 	0.16790 0.66980 0.66990 -0.24200
N 	N 	0.26040 0.88320 0.65870 -0.24400
N 	N 	0.34080 0.23950 0.80700 -0.22800
N 	N 	0.14160 0.32110 0.82310 -0.23300
N 	N 	0.66980 0.16790 0.33010 -0.24200
N 	N 	0.88320 0.26040 0.34130 -0.24400
N 	N 	0.23950 0.34080 0.19300 -0.22800
N 	N 	0.32110 0.14160 0.17690 -0.23300
N 	N 	0.33020 0.83210 0.83010 -0.24200
N 	N 	0.11680 0.73960 0.84130 -0.24400
N 	N 	0.76050 0.65920 0.69300 -0.22800
N 	N 	0.67890 0.85840 0.67690 -0.23300
N 	N 	0.66790 0.83020 0.58010 -0.24300
N 	N 	0.76040 0.61680 0.59130 -0.24600
N 	N 	0.84080 0.26050 0.44300 -0.22700
N 	N 	0.64160 0.17890 0.42690 -0.23300
N 	N 	0.33210 0.16980 0.08010 -0.24300
N 	N 	0.23960 0.38320 0.09130 -0.24600
N 	N 	0.15920 0.73950 0.94300 -0.22700
N 	N 	0.35840 0.82110 0.92690 -0.23300
O 	O 	0.68140 0.57770 0.36310 -0.55600
O 	O 	0.70600 0.36250 0.37530 -0.55900
O 	O 	0.31860 0.42230 0.86310 -0.55600
O 	O 	0.29400 0.63750 0.87530 -0.55900
O 	O 	0.92230 0.18140 0.11310 -0.55400
O 	O 	0.13750 0.20600 0.12530 -0.56000
O 	O 	0.07770 0.81860 0.61310 -0.55400
O 	O 	0.86250 0.79400 0.62530 -0.56000
O 	O 	0.81860 0.07770 0.38690 -0.55400
O 	O 	0.79400 0.86250 0.37470 -0.56000
O 	O 	0.18140 0.92230 0.88690 -0.55400
O 	O 	0.20600 0.13750 0.87470 -0.56000
O 	O 	0.57770 0.68140 0.63690 -0.55600
O 	O 	0.36250 0.70600 0.62470 -0.55900
O 	O 	0.42230 0.31860 0.13690 -0.55600
O 	O 	0.63750 0.29400 0.12470 -0.55900
