data_crystal

_cell_length_a 27.31600
_cell_length_b 17.47200
_cell_length_c 10.19700
_cell_angle_alpha 90.00000
_cell_angle_beta  90.00000
_cell_angle_gamma 90.00000

_symmetry_space_group_name_	'P 1'
_symmetry_space_group_name_H-M	'P 1'

loop_
_symmetry_equiv_pos_as_xyz
  x,y,z

loop_
_atom_site_label
_atom_site_type_symbol
_atom_site_fract_x
_atom_site_fract_y
_atom_site_fract_z
_atom_site_charge
Ga	Ga	0.22030 0.23920 0.08840 2.10000
Ga	Ga	0.34410 0.17930 0.11050 2.09000
Ga	Ga	0.05400 0.42350 0.90250 2.08100
Ga	Ga	0.24150 0.41270 0.92600 2.08700
P 	P 	0.14160 0.31980 0.90400 0.64400
P 	P 	0.25520 0.06570 0.11050 0.66300
P 	P 	0.44040 0.07420 0.09480 0.72200
P 	P 	0.30400 0.27340 0.88600 0.62700
F 	F 	0.28390 0.23020 0.17930 -0.83900
F 	F 	0.23250 0.35240 0.09370 -0.78600
O 	O 	0.21730 0.12810 0.08710 -0.52900
O 	O 	0.25680 0.23390 0.92610 -0.58500
O 	O 	0.40410 0.13210 0.04790 -0.55500
O 	O 	0.17650 0.38790 0.88790 -0.67200
O 	O 	0.43870 0.00420 0.00830 -0.69000
O 	O 	0.09370 0.35030 0.96960 -0.60000
O 	O 	0.29920 0.36060 0.89840 -0.58200
O 	O 	0.24290 0.00080 0.01600 -0.54900
O 	O 	0.31720 0.25100 0.74550 -0.49400
O 	O 	0.25350 0.03480 0.25220 -0.50900
O 	O 	0.16070 0.25500 0.98730 -0.50500
O 	O 	0.34730 0.24790 0.97280 -0.54700
O 	O 	0.30820 0.09150 0.07850 -0.62200
O 	O 	0.12690 0.29170 0.76690 -0.59200
O 	O 	0.43030 0.04700 0.23600 -0.68600
O 	O 	0.49150 0.11160 0.08880 -0.67200
Ga	Ga	0.27970 0.26080 0.58840 2.10000
Ga	Ga	0.15590 0.32070 0.61050 2.09000
Ga	Ga	0.44600 0.07650 0.40250 2.08100
Ga	Ga	0.25850 0.08730 0.42600 2.08700
P 	P 	0.35840 0.18020 0.40400 0.64400
P 	P 	0.24480 0.43430 0.61050 0.66300
P 	P 	0.05960 0.42580 0.59480 0.72200
P 	P 	0.19600 0.22660 0.38600 0.62700
F 	F 	0.21610 0.26980 0.67930 -0.83900
F 	F 	0.26750 0.14760 0.59370 -0.78600
O 	O 	0.28270 0.37190 0.58710 -0.52900
O 	O 	0.24320 0.26610 0.42610 -0.58600
O 	O 	0.09590 0.36790 0.54790 -0.55500
O 	O 	0.32350 0.11210 0.38790 -0.67200
O 	O 	0.06130 0.49580 0.50830 -0.69000
O 	O 	0.40630 0.14970 0.46960 -0.60000
O 	O 	0.20080 0.13940 0.39840 -0.58200
O 	O 	0.25710 0.49920 0.51600 -0.54800
O 	O 	0.18280 0.24900 0.24550 -0.49500
O 	O 	0.24650 0.46520 0.75220 -0.50900
O 	O 	0.33930 0.24500 0.48730 -0.50500
O 	O 	0.15270 0.25210 0.47280 -0.54700
O 	O 	0.19180 0.40850 0.57850 -0.62200
O 	O 	0.37310 0.20830 0.26690 -0.59200
O 	O 	0.06970 0.45300 0.73600 -0.68600
O 	O 	0.00850 0.38840 0.58880 -0.67200
Ga	Ga	0.77970 0.23920 0.41160 2.10000
Ga	Ga	0.65590 0.17930 0.38950 2.09000
Ga	Ga	0.94600 0.42350 0.59750 2.08100
Ga	Ga	0.75850 0.41270 0.57400 2.08700
P 	P 	0.85840 0.31980 0.59600 0.64400
P 	P 	0.74480 0.06570 0.38950 0.66300
P 	P 	0.55960 0.07420 0.40520 0.72200
P 	P 	0.69600 0.27340 0.61400 0.62700
F 	F 	0.71610 0.23020 0.32070 -0.83900
F 	F 	0.76750 0.35240 0.40630 -0.78600
O 	O 	0.78270 0.12810 0.41290 -0.52900
O 	O 	0.74320 0.23390 0.57390 -0.58600
O 	O 	0.59590 0.13210 0.45210 -0.55500
O 	O 	0.82350 0.38790 0.61210 -0.67200
O 	O 	0.56130 0.00420 0.49170 -0.69000
O 	O 	0.90630 0.35030 0.53040 -0.60000
O 	O 	0.70080 0.36060 0.60160 -0.58200
O 	O 	0.75710 0.00080 0.48400 -0.54800
O 	O 	0.68280 0.25100 0.75450 -0.49400
O 	O 	0.74650 0.03480 0.24780 -0.50900
O 	O 	0.83930 0.25500 0.51270 -0.50500
O 	O 	0.65270 0.24790 0.52720 -0.54700
O 	O 	0.69180 0.09150 0.42150 -0.62200
O 	O 	0.87310 0.29170 0.73310 -0.59200
O 	O 	0.56970 0.04700 0.26400 -0.68600
O 	O 	0.50850 0.11160 0.41120 -0.67200
Ga	Ga	0.72030 0.26080 0.91160 2.10000
Ga	Ga	0.84410 0.32070 0.88950 2.09000
Ga	Ga	0.55400 0.07650 0.09750 2.08100
Ga	Ga	0.74150 0.08730 0.07400 2.08700
P 	P 	0.64160 0.18020 0.09600 0.64400
P 	P 	0.75520 0.43430 0.88950 0.66300
P 	P 	0.94040 0.42580 0.90520 0.72200
P 	P 	0.80400 0.22660 0.11400 0.62700
F 	F 	0.78390 0.26980 0.82070 -0.83900
F 	F 	0.73250 0.14760 0.90630 -0.78500
O 	O 	0.71730 0.37190 0.91290 -0.52800
O 	O 	0.75680 0.26610 0.07390 -0.58600
O 	O 	0.90410 0.36790 0.95210 -0.55400
O 	O 	0.67650 0.11210 0.11210 -0.67200
O 	O 	0.93870 0.49580 0.99170 -0.68900
O 	O 	0.59370 0.14970 0.03040 -0.60000
O 	O 	0.79920 0.13940 0.10160 -0.58300
O 	O 	0.74290 0.49920 0.98400 -0.54800
O 	O 	0.81720 0.24900 0.25450 -0.49500
O 	O 	0.75350 0.46520 0.74780 -0.50900
O 	O 	0.66070 0.24500 0.01270 -0.50500
O 	O 	0.84730 0.25210 0.02720 -0.54800
O 	O 	0.80820 0.40850 0.92150 -0.62200
O 	O 	0.62690 0.20830 0.23310 -0.59200
O 	O 	0.93030 0.45300 0.76400 -0.68600
O 	O 	0.99150 0.38840 0.91120 -0.67200
Ga	Ga	0.77970 0.76080 0.91160 2.10000
Ga	Ga	0.65590 0.82070 0.88950 2.09000
Ga	Ga	0.94600 0.57650 0.09750 2.08100
Ga	Ga	0.75850 0.58730 0.07400 2.08700
P 	P 	0.85840 0.68020 0.09600 0.64400
P 	P 	0.74480 0.93430 0.88950 0.66300
P 	P 	0.55960 0.92580 0.90520 0.72200
P 	P 	0.69600 0.72660 0.11400 0.62700
F 	F 	0.71610 0.76980 0.82070 -0.83900
F 	F 	0.76750 0.64760 0.90630 -0.78600
O 	O 	0.78270 0.87190 0.91290 -0.52900
O 	O 	0.74320 0.76610 0.07390 -0.58500
O 	O 	0.59590 0.86790 0.95210 -0.55500
O 	O 	0.82350 0.61210 0.11210 -0.67200
O 	O 	0.56130 0.99580 0.99170 -0.69000
O 	O 	0.90630 0.64970 0.03040 -0.60000
O 	O 	0.70080 0.63940 0.10160 -0.58200
O 	O 	0.75710 0.99920 0.98400 -0.54900
O 	O 	0.68280 0.74900 0.25450 -0.49400
O 	O 	0.74650 0.96520 0.74780 -0.50900
O 	O 	0.83930 0.74500 0.01270 -0.50500
O 	O 	0.65270 0.75210 0.02720 -0.54700
O 	O 	0.69180 0.90850 0.92150 -0.62200
O 	O 	0.87310 0.70830 0.23310 -0.59200
O 	O 	0.56970 0.95300 0.76400 -0.68600
O 	O 	0.50850 0.88840 0.91120 -0.67200
Ga	Ga	0.72030 0.73920 0.41160 2.10000
Ga	Ga	0.84410 0.67930 0.38950 2.09000
Ga	Ga	0.55400 0.92350 0.59750 2.08100
Ga	Ga	0.74150 0.91270 0.57400 2.08700
P 	P 	0.64160 0.81980 0.59600 0.64400
P 	P 	0.75520 0.56570 0.38950 0.66300
P 	P 	0.94040 0.57420 0.40520 0.72200
P 	P 	0.80400 0.77340 0.61400 0.62700
F 	F 	0.78390 0.73020 0.32070 -0.83900
F 	F 	0.73250 0.85240 0.40630 -0.78600
O 	O 	0.71730 0.62810 0.41290 -0.52900
O 	O 	0.75680 0.73390 0.57390 -0.58600
O 	O 	0.90410 0.63210 0.45210 -0.55500
O 	O 	0.67650 0.88790 0.61210 -0.67200
O 	O 	0.93870 0.50420 0.49170 -0.69000
O 	O 	0.59370 0.85030 0.53040 -0.60000
O 	O 	0.79920 0.86060 0.60160 -0.58200
O 	O 	0.74290 0.50080 0.48400 -0.54800
O 	O 	0.81720 0.75100 0.75450 -0.49500
O 	O 	0.75350 0.53480 0.24780 -0.50900
O 	O 	0.66070 0.75500 0.51270 -0.50500
O 	O 	0.84730 0.74790 0.52720 -0.54700
O 	O 	0.80820 0.59150 0.42150 -0.62200
O 	O 	0.62690 0.79170 0.73310 -0.59200
O 	O 	0.93030 0.54700 0.26400 -0.68600
O 	O 	0.99150 0.61160 0.41120 -0.67200
Ga	Ga	0.22030 0.76080 0.58840 2.10000
Ga	Ga	0.34410 0.82070 0.61050 2.09000
Ga	Ga	0.05400 0.57650 0.40250 2.08100
Ga	Ga	0.24150 0.58730 0.42600 2.08700
P 	P 	0.14160 0.68020 0.40400 0.64400
P 	P 	0.25520 0.93430 0.61050 0.66300
P 	P 	0.44040 0.92580 0.59480 0.72200
P 	P 	0.30400 0.72660 0.38600 0.62700
F 	F 	0.28390 0.76980 0.67930 -0.83900
F 	F 	0.23250 0.64760 0.59370 -0.78600
O 	O 	0.21730 0.87190 0.58710 -0.52900
O 	O 	0.25680 0.76610 0.42610 -0.58600
O 	O 	0.40410 0.86790 0.54790 -0.55500
O 	O 	0.17650 0.61210 0.38790 -0.67200
O 	O 	0.43870 0.99580 0.50830 -0.69000
O 	O 	0.09370 0.64970 0.46960 -0.60000
O 	O 	0.29920 0.63940 0.39840 -0.58200
O 	O 	0.24290 0.99920 0.51600 -0.54800
O 	O 	0.31720 0.74900 0.24550 -0.49400
O 	O 	0.25350 0.96520 0.75220 -0.50900
O 	O 	0.16070 0.74500 0.48730 -0.50500
O 	O 	0.34730 0.75210 0.47280 -0.54700
O 	O 	0.30820 0.90850 0.57850 -0.62200
O 	O 	0.12690 0.70830 0.26690 -0.59200
O 	O 	0.43030 0.95300 0.73600 -0.68600
O 	O 	0.49150 0.88840 0.58880 -0.67200
Ga	Ga	0.27970 0.73920 0.08840 2.10000
Ga	Ga	0.15590 0.67930 0.11050 2.09000
Ga	Ga	0.44600 0.92350 0.90250 2.08100
Ga	Ga	0.25850 0.91270 0.92600 2.08700
P 	P 	0.35840 0.81980 0.90400 0.64400
P 	P 	0.24480 0.56570 0.11050 0.66300
P 	P 	0.05960 0.57420 0.09480 0.72200
P 	P 	0.19600 0.77340 0.88600 0.62700
F 	F 	0.21610 0.73020 0.17930 -0.83900
F 	F 	0.26750 0.85240 0.09370 -0.78500
O 	O 	0.28270 0.62810 0.08710 -0.52800
O 	O 	0.24320 0.73390 0.92610 -0.58600
O 	O 	0.09590 0.63210 0.04790 -0.55400
O 	O 	0.32350 0.88790 0.88790 -0.67200
O 	O 	0.06130 0.50420 0.00830 -0.68900
O 	O 	0.40630 0.85030 0.96960 -0.60000
O 	O 	0.20080 0.86060 0.89840 -0.58300
O 	O 	0.25710 0.50080 0.01600 -0.54800
O 	O 	0.18280 0.75100 0.74550 -0.49500
O 	O 	0.24650 0.53480 0.25220 -0.50900
O 	O 	0.33930 0.75500 0.98730 -0.50500
O 	O 	0.15270 0.74790 0.97280 -0.54800
O 	O 	0.19180 0.59150 0.07850 -0.62200
O 	O 	0.37310 0.79170 0.76690 -0.59200
O 	O 	0.06970 0.54700 0.23600 -0.68600
O 	O 	0.00850 0.61160 0.08880 -0.67200
