data_crystal

_cell_length_a 3.53400
_cell_length_b 13.00520
_cell_length_c 15.76800
_cell_angle_alpha 90.00000
_cell_angle_beta  90.00000
_cell_angle_gamma 96.88500

_symmetry_space_group_name_	'P 1'
_symmetry_space_group_name_H-M	'P 1'

loop_
_symmetry_equiv_pos_as_xyz
  x,y,z

loop_
_atom_site_label
_atom_site_type_symbol
_atom_site_fract_x
_atom_site_fract_y
_atom_site_fract_z
_atom_site_charge
Cu	Cu	0.73758 0.50508 0.92198 0.91900
Cu	Cu	0.76242 0.99492 0.42198 0.91900
Cu	Cu	0.26242 0.49492 0.07802 0.91800
Cu	Cu	0.23758 0.00508 0.57802 0.91800
H 	H 	0.64980 0.36392 0.02395 0.29500
H 	H 	0.80720 0.72470 0.88850 0.00600
H 	H 	0.66300 0.83700 0.78360 0.06600
H 	H 	0.52000 0.59630 0.62240 0.07300
H 	H 	0.67100 0.49020 0.73140 0.01400
H 	H 	0.85020 0.13608 0.52395 0.29500
H 	H 	0.69280 0.77530 0.38850 0.00700
H 	H 	0.83700 0.66300 0.28360 0.06400
H 	H 	0.98000 0.90370 0.12240 0.07100
H 	H 	0.82900 0.00980 0.23140 0.01700
H 	H 	0.35020 0.63608 0.97605 0.29500
H 	H 	0.19280 0.27530 0.11150 0.00600
H 	H 	0.33700 0.16300 0.21640 0.06600
H 	H 	0.48000 0.40370 0.37760 0.07300
H 	H 	0.32900 0.50980 0.26860 0.01400
H 	H 	0.14980 0.86392 0.47605 0.29500
H 	H 	0.30720 0.22470 0.61150 0.00700
H 	H 	0.16300 0.33700 0.71640 0.06400
H 	H 	0.02000 0.09630 0.87760 0.07100
H 	H 	0.17100 0.99020 0.76860 0.01700
C 	C 	0.74520 0.69890 0.83460 0.03700
C 	C 	0.65860 0.76680 0.77190 -0.06800
C 	C 	0.56500 0.72880 0.69140 -0.01800
C 	C 	0.57400 0.62370 0.67620 -0.07100
C 	C 	0.66450 0.56030 0.74200 0.04900
C 	C 	0.43980 0.79900 0.62260 0.30700
C 	C 	0.75480 0.80110 0.33460 0.03500
C 	C 	0.84140 0.73320 0.27190 -0.06500
C 	C 	0.93500 0.77120 0.19140 -0.02400
C 	C 	0.92600 0.87630 0.17620 -0.06700
C 	C 	0.83550 0.93970 0.24200 0.04500
C 	C 	0.06020 0.70100 0.12260 0.31200
C 	C 	0.25480 0.30110 0.16540 0.03700
C 	C 	0.34140 0.23320 0.22810 -0.06800
C 	C 	0.43500 0.27120 0.30860 -0.01800
C 	C 	0.42600 0.37630 0.32380 -0.07100
C 	C 	0.33550 0.43970 0.25800 0.04900
C 	C 	0.56020 0.20100 0.37740 0.30700
C 	C 	0.24520 0.19890 0.66540 0.03500
C 	C 	0.15860 0.26680 0.72810 -0.06500
C 	C 	0.06500 0.22880 0.80860 -0.02400
C 	C 	0.07400 0.12370 0.82380 -0.06700
C 	C 	0.16450 0.06030 0.75800 0.04500
C 	C 	0.93980 0.29900 0.87740 0.31200
N 	N 	0.74290 0.59650 0.82039 -0.21000
N 	N 	0.75710 0.90350 0.32039 -0.20900
N 	N 	0.25710 0.40350 0.17961 -0.21000
N 	N 	0.24290 0.09650 0.67961 -0.20900
O 	O 	0.68690 0.42949 0.02838 -0.70200
O 	O 	0.46300 0.89405 0.64214 -0.40300
O 	O 	0.31890 0.75840 0.55496 -0.29400
O 	O 	0.81310 0.07051 0.52838 -0.70000
O 	O 	0.03700 0.60595 0.14214 -0.40400
O 	O 	0.18110 0.74160 0.05496 -0.29500
O 	O 	0.31310 0.57051 0.97162 -0.70200
O 	O 	0.53700 0.10595 0.35786 -0.40300
O 	O 	0.68110 0.24160 0.44504 -0.29400
O 	O 	0.18690 0.92949 0.47162 -0.70000
O 	O 	0.96300 0.39405 0.85786 -0.40400
O 	O 	0.81890 0.25840 0.94504 -0.29500
