data_crystal

_cell_length_a 9.40880
_cell_length_b 9.09240
_cell_length_c 9.68840
_cell_angle_alpha 90.00000
_cell_angle_beta  117.25200
_cell_angle_gamma 90.00000

_symmetry_space_group_name_	'P 1'
_symmetry_space_group_name_H-M	'P 1'

loop_
_symmetry_equiv_pos_as_xyz
  x,y,z

loop_
_atom_site_label
_atom_site_type_symbol
_atom_site_fract_x
_atom_site_fract_y
_atom_site_fract_z
_atom_site_charge
P 	P 	0.33220 0.60210 0.06440 0.66500
P 	P 	0.14320 0.15730 0.97210 0.78900
O 	O 	0.24850 0.55960 0.89300 -0.52500
O 	O 	0.23510 0.72310 0.09160 -0.58100
O 	O 	0.24930 0.05120 0.09630 -0.52600
O 	O 	0.24310 0.23370 0.90790 -0.55600
O 	O 	0.50390 0.64490 0.11750 -0.56100
O 	O 	0.99490 0.08710 0.84740 -0.61500
O 	O 	0.34120 0.46400 0.16570 -0.50700
O 	O 	0.08750 0.27830 0.05570 -1.08800
H 	H 	0.24940 0.43330 0.13310 0.36500
H 	H 	0.01430 0.28840 0.03110 0.79500
P 	P 	0.16780 0.60210 0.43560 0.66600
P 	P 	0.35680 0.15730 0.52790 0.81300
O 	O 	0.25150 0.55960 0.60700 -0.52300
O 	O 	0.26490 0.72310 0.40840 -0.58000
O 	O 	0.25070 0.05120 0.40370 -0.53800
O 	O 	0.25690 0.23370 0.59210 -0.55600
O 	O 	0.99610 0.64490 0.38250 -0.56200
O 	O 	0.50510 0.08710 0.65260 -0.61900
O 	O 	0.15880 0.46400 0.33430 -0.50700
O 	O 	0.41250 0.27830 0.44430 -1.10300
H 	H 	0.25060 0.43330 0.36690 0.36400
H 	H 	0.48570 0.28840 0.46890 0.80000
P 	P 	0.66780 0.39790 0.93560 0.66600
P 	P 	0.85680 0.84270 0.02790 0.79000
O 	O 	0.75150 0.44040 0.10700 -0.52500
O 	O 	0.76490 0.27690 0.90840 -0.58100
O 	O 	0.75070 0.94880 0.90370 -0.52600
O 	O 	0.75690 0.76630 0.09210 -0.55600
O 	O 	0.49610 0.35510 0.88250 -0.56100
O 	O 	0.00510 0.91290 0.15260 -0.61500
O 	O 	0.65880 0.53600 0.83430 -0.50700
O 	O 	0.91250 0.72170 0.94430 -1.08800
H 	H 	0.75060 0.56670 0.86690 0.36500
H 	H 	0.98570 0.71160 0.96890 0.79500
P 	P 	0.83220 0.39790 0.56440 0.66600
P 	P 	0.64320 0.84270 0.47210 0.81300
O 	O 	0.74850 0.44040 0.39300 -0.52300
O 	O 	0.73510 0.27690 0.59160 -0.58000
O 	O 	0.74930 0.94880 0.59630 -0.53800
O 	O 	0.74310 0.76630 0.40790 -0.55600
O 	O 	0.00390 0.35510 0.61750 -0.56200
O 	O 	0.49490 0.91290 0.34740 -0.61900
O 	O 	0.84120 0.53600 0.66570 -0.50700
O 	O 	0.58750 0.72170 0.55570 -1.10300
H 	H 	0.74940 0.56670 0.63310 0.36400
H 	H 	0.51430 0.71160 0.53110 0.80000
Sc	Sc	0.25000 0.89430 0.25000 2.34400
Sc	Sc	0.75000 0.10570 0.75000 2.34400
Sc	Sc	0.25000 0.38270 0.75000 2.34500
Sc	Sc	0.75000 0.61730 0.25000 2.34500
