data_crystal

_cell_length_a 9.41110
_cell_length_b 9.10660
_cell_length_c 9.69500
_cell_angle_alpha 90.00000
_cell_angle_beta  117.27200
_cell_angle_gamma 90.00000

_symmetry_space_group_name_	'P 1'
_symmetry_space_group_name_H-M	'P 1'

loop_
_symmetry_equiv_pos_as_xyz
  x,y,z

loop_
_atom_site_label
_atom_site_type_symbol
_atom_site_fract_x
_atom_site_fract_y
_atom_site_fract_z
_atom_site_charge
P 	P 	0.83172 0.10162 0.06395 0.63200
P 	P 	0.35592 0.34309 0.02725 0.65800
O 	O 	0.73368 0.22278 0.09113 -0.55300
O 	O 	0.74714 0.05986 0.89182 -0.50600
O 	O 	0.84059 0.96350 0.16485 -0.46600
H 	H 	0.74910 0.92630 0.13200 0.31200
O 	O 	0.00394 0.14504 0.11785 -0.56100
O 	O 	0.25602 0.26612 0.09126 -0.54500
O 	O 	0.41231 0.22249 0.94313 -0.46100
H 	H 	0.51110 0.20860 0.99510 0.26500
O 	O 	0.50552 0.41304 0.15275 -0.58600
O 	O 	0.24952 0.44982 0.90361 -0.52700
P 	P 	0.66828 0.10162 0.43605 0.64800
P 	P 	0.14408 0.34309 0.47275 0.66300
O 	O 	0.76632 0.22278 0.40887 -0.55100
O 	O 	0.75286 0.05986 0.60818 -0.51700
O 	O 	0.65941 0.96350 0.33515 -0.47500
H 	H 	0.75090 0.92630 0.36800 0.31200
O 	O 	0.49606 0.14504 0.38215 -0.56300
O 	O 	0.24398 0.26612 0.40874 -0.54300
O 	O 	0.08769 0.22249 0.55687 -0.46100
H 	H 	0.98890 0.20860 0.50490 0.25800
O 	O 	0.99448 0.41304 0.34725 -0.58800
O 	O 	0.25048 0.44982 0.59639 -0.53000
P 	P 	0.16828 0.89838 0.93605 0.63100
P 	P 	0.64408 0.65691 0.97275 0.65700
O 	O 	0.26632 0.77722 0.90887 -0.55300
O 	O 	0.25286 0.94014 0.10818 -0.50600
O 	O 	0.15941 0.03650 0.83515 -0.46600
H 	H 	0.25090 0.07370 0.86800 0.31200
O 	O 	0.99606 0.85496 0.88215 -0.56100
O 	O 	0.74398 0.73388 0.90874 -0.54500
O 	O 	0.58769 0.77751 0.05687 -0.46100
H 	H 	0.48890 0.79140 0.00490 0.26500
O 	O 	0.49448 0.58696 0.84725 -0.58600
O 	O 	0.75048 0.55018 0.09639 -0.52700
P 	P 	0.33172 0.89838 0.56395 0.64800
P 	P 	0.85592 0.65691 0.52725 0.66300
O 	O 	0.23368 0.77722 0.59113 -0.55100
O 	O 	0.24714 0.94014 0.39182 -0.51700
O 	O 	0.34059 0.03650 0.66485 -0.47500
H 	H 	0.24910 0.07370 0.63200 0.31200
O 	O 	0.50394 0.85496 0.61785 -0.56300
O 	O 	0.75602 0.73388 0.59126 -0.54300
O 	O 	0.91231 0.77751 0.44313 -0.46100
H 	H 	0.01110 0.79140 0.49510 0.25800
O 	O 	0.00552 0.58696 0.65275 -0.58800
O 	O 	0.74952 0.55018 0.40361 -0.53000
Sc	Sc	0.75000 0.39364 0.25000 2.34300
Sc	Sc	0.25000 0.60636 0.75000 2.34300
Sc	Sc	0.75000 0.88254 0.75000 2.34300
Sc	Sc	0.25000 0.11746 0.25000 2.34300
