data_crystal

_cell_length_a 10.54000
_cell_length_b 13.50900
_cell_length_c 30.52600
_cell_angle_alpha 90.00000
_cell_angle_beta  90.14000
_cell_angle_gamma 90.00000

_symmetry_space_group_name_	'P 1'
_symmetry_space_group_name_H-M	'P 1'

loop_
_symmetry_equiv_pos_as_xyz
  x,y,z

loop_
_atom_site_label
_atom_site_type_symbol
_atom_site_fract_x
_atom_site_fract_y
_atom_site_fract_z
_atom_site_charge
Co	Co	0.72115 0.16713 0.04831 1.15300
Co	Co	0.17814 0.66651 0.21387 1.15000
C 	C 	0.85810 0.81300 0.18085 -0.04500
O 	O 	0.67774 0.07562 0.09652 -0.42000
O 	O 	0.37700 0.52671 0.19049 -0.30000
O 	O 	0.17805 0.55957 0.17012 -0.43200
N 	N 	0.88790 0.24229 0.04363 -0.26800
N 	N 	0.22180 0.41081 0.49031 -0.24800
O 	O 	0.54649 0.22733 0.03920 -0.40300
N 	N 	0.51660 0.82441 0.20686 -0.19900
N 	N 	0.07180 0.31469 0.05166 -0.19500
O 	O 	0.63321 0.29418 0.09802 -0.33800
C 	C 	0.10600 0.64210 0.30758 0.06700
H 	H 	0.04430 0.68820 0.30000 -0.00400
N 	N 	0.18660 0.61015 0.27648 -0.25500
O 	O 	0.86950 0.02321 0.07840 -0.32800
C 	C 	0.41380 0.32920 0.08385 -0.02400
C 	C 	0.28430 0.51360 0.16618 0.29000
N 	N 	0.33240 0.75424 0.21496 -0.21600
N 	N 	0.92120 0.28271 0.00343 -0.11400
C 	C 	0.53970 0.28150 0.07336 0.27700
C 	C 	0.03080 0.32660 0.00883 0.10100
N 	N 	0.36160 0.80470 0.25300 -0.24300
H 	H 	0.31510 0.80800 0.27610 0.11100
C 	C 	0.10100 0.47650 0.43062 -0.13900
H 	H 	0.02180 0.49130 0.41880 0.08900
C 	C 	0.18890 0.34540 0.07242 0.11200
C 	C 	0.64640 0.92390 0.15748 -0.10200
H 	H 	0.57590 0.96250 0.15080 0.08400
C 	C 	0.97860 0.26160 0.07214 0.33300
C 	C 	0.77260 0.01670 0.10123 0.28100
C 	C 	0.29130 0.44060 0.12898 -0.03000
C 	C 	0.09220 0.38400 0.97363 0.01600
C 	C 	0.18180 0.41560 0.10558 -0.11300
H 	H 	0.10480 0.44570 0.11220 0.07600
C 	C 	0.40640 0.39720 0.11769 -0.04200
H 	H 	0.47940 0.41410 0.13310 0.06700
C 	C 	0.21130 0.50060 0.40794 0.06400
C 	C 	0.11150 0.60890 0.35044 -0.13700
H 	H 	0.05340 0.63200 0.37090 0.08800
C 	C 	0.32680 0.48150 0.42837 -0.14500
H 	H 	0.40250 0.49770 0.41450 0.09400
C 	C 	0.20390 0.54100 0.36282 0.05100
C 	C 	0.11030 0.43050 0.47090 0.07800
H 	H 	0.03610 0.41230 0.48520 -0.00200
C 	C 	0.32250 0.73480 0.11584 -0.07200
H 	H 	0.24930 0.76350 0.12710 0.05800
C 	C 	0.30300 0.30190 0.06077 -0.11100
H 	H 	0.30650 0.25570 0.03820 0.08800
C 	C 	0.76130 0.94000 0.13611 -0.03600
C 	C 	0.74320 0.79530 0.20142 -0.10000
H 	H 	0.73660 0.74780 0.22330 0.07500
C 	C 	0.28690 0.50750 0.33011 -0.14200
H 	H 	0.34940 0.46120 0.33670 0.08900
C 	C 	0.86590 0.88310 0.14791 -0.02600
H 	H 	0.94250 0.89240 0.13340 0.05800
C 	C 	0.18610 0.50090 0.90551 -0.07800
H 	H 	0.21740 0.53970 0.88280 0.05700
C 	C 	0.32850 0.43840 0.46930 0.08700
H 	H 	0.40630 0.42800 0.48300 0.00100
C 	C 	0.06620 0.35950 0.93020 -0.07300
H 	H 	0.01750 0.30380 0.92380 0.06700
C 	C 	0.16510 0.46790 0.98279 -0.07800
H 	H 	0.18210 0.48550 0.01170 0.06600
C 	C 	0.42640 0.76740 0.18663 0.10900
C 	C 	0.27450 0.54390 0.28814 0.07200
H 	H 	0.33030 0.52110 0.26680 -0.00000
C 	C 	0.43130 0.72960 0.14148 -0.00600
O 	O 	0.07540 0.77560 0.17648 -0.40700
C 	C 	0.63820 0.85040 0.18855 0.11000
O 	O 	0.96670 0.68360 0.21898 -0.39000
C 	C 	0.54010 0.68680 0.12414 -0.05100
H 	H 	0.61280 0.68160 0.14130 0.05900
C 	C 	0.97400 0.75380 0.19309 0.32600
C 	C 	0.53950 0.91020 0.27974 -0.91700
H 	H 	0.61300 0.87600 0.29060 0.29300
H 	H 	0.48420 0.92570 0.30370 0.29700
H 	H 	0.56540 0.97030 0.26560 0.30700
C 	C 	0.47160 0.84630 0.24784 0.35600
C 	C 	0.32230 0.69740 0.07363 -0.00800
H 	H 	0.24870 0.69990 0.05680 0.03200
C 	C 	0.43120 0.65630 0.05649 -0.05900
H 	H 	0.43110 0.63150 0.02810 0.05500
C 	C 	0.98070 0.23180 0.11887 -0.87200
H 	H 	0.96540 0.28860 0.13690 0.27900
H 	H 	0.06220 0.20420 0.12590 0.28800
H 	H 	0.91610 0.18310 0.12400 0.27800
C 	C 	0.11270 0.41800 0.89622 -0.00700
H 	H 	0.09450 0.40160 0.86730 0.03600
C 	C 	0.54070 0.65190 0.08158 -0.01600
H 	H 	0.61460 0.62550 0.06980 0.04500
C 	C 	0.21230 0.52520 0.94845 0.00400
H 	H 	0.26200 0.58040 0.95460 0.02700
Co	Co	0.22115 0.33287 0.54831 1.15200
Co	Co	0.67814 0.83349 0.71387 1.15000
C 	C 	0.35810 0.68700 0.68085 -0.04500
O 	O 	0.17774 0.42438 0.59652 -0.42000
O 	O 	0.87700 0.97329 0.69049 -0.30200
O 	O 	0.67805 0.94043 0.67012 -0.43300
N 	N 	0.38790 0.25771 0.54363 -0.27000
N 	N 	0.72180 0.08919 0.99031 -0.24800
O 	O 	0.04649 0.27267 0.53920 -0.40300
N 	N 	0.01660 0.67559 0.70686 -0.19300
N 	N 	0.57180 0.18531 0.55166 -0.19500
O 	O 	0.13321 0.20582 0.59802 -0.33800
C 	C 	0.60600 0.85790 0.80758 0.06800
H 	H 	0.54430 0.81180 0.80000 -0.00400
N 	N 	0.68660 0.88985 0.77648 -0.25500
O 	O 	0.36950 0.47679 0.57840 -0.32800
C 	C 	0.91380 0.17080 0.58385 -0.02500
C 	C 	0.78430 0.98640 0.66618 0.29000
N 	N 	0.83240 0.74576 0.71496 -0.21600
N 	N 	0.42120 0.21729 0.50343 -0.11500
C 	C 	0.03970 0.21850 0.57336 0.27800
C 	C 	0.53080 0.17340 0.50883 0.10300
N 	N 	0.86160 0.69530 0.75300 -0.24000
H 	H 	0.81510 0.69200 0.77610 0.11000
C 	C 	0.60100 0.02350 0.93062 -0.13700
H 	H 	0.52180 0.00870 0.91880 0.08900
C 	C 	0.68890 0.15460 0.57242 0.11300
C 	C 	0.14640 0.57610 0.65748 -0.10300
H 	H 	0.07590 0.53750 0.65080 0.08500
C 	C 	0.47860 0.23840 0.57214 0.33400
C 	C 	0.27260 0.48330 0.60123 0.28000
C 	C 	0.79130 0.05940 0.62898 -0.02900
C 	C 	0.59220 0.11600 0.47363 0.01500
C 	C 	0.68180 0.08440 0.60558 -0.11400
H 	H 	0.60480 0.05430 0.61220 0.07700
C 	C 	0.90640 0.10280 0.61769 -0.04100
H 	H 	0.97940 0.08590 0.63310 0.06600
C 	C 	0.71130 0.99940 0.90794 0.06100
C 	C 	0.61150 0.89110 0.85044 -0.13800
H 	H 	0.55340 0.86800 0.87090 0.08900
C 	C 	0.82680 0.01850 0.92837 -0.14300
H 	H 	0.90250 0.00230 0.91450 0.09300
C 	C 	0.70390 0.95900 0.86282 0.05300
C 	C 	0.61030 0.06950 0.97090 0.07700
H 	H 	0.53610 0.08770 0.98520 -0.00200
C 	C 	0.82250 0.76520 0.61584 -0.07200
H 	H 	0.74930 0.73650 0.62710 0.05800
C 	C 	0.80300 0.19810 0.56077 -0.11000
H 	H 	0.80650 0.24430 0.53820 0.08800
C 	C 	0.26130 0.56000 0.63611 -0.03400
C 	C 	0.24320 0.70470 0.70142 -0.10000
H 	H 	0.23660 0.75220 0.72330 0.07600
C 	C 	0.78690 0.99250 0.83011 -0.14500
H 	H 	0.84940 0.03880 0.83670 0.09000
C 	C 	0.36590 0.61690 0.64791 -0.02800
H 	H 	0.44250 0.60760 0.63340 0.05800
C 	C 	0.68610 0.99910 0.40551 -0.07900
H 	H 	0.71740 0.96030 0.38280 0.05700
C 	C 	0.82850 0.06160 0.96930 0.08600
H 	H 	0.90630 0.07200 0.98300 0.00100
C 	C 	0.56620 0.14050 0.43020 -0.07300
H 	H 	0.51750 0.19620 0.42380 0.06600
C 	C 	0.66510 0.03210 0.48279 -0.07800
H 	H 	0.68210 0.01450 0.51170 0.06600
C 	C 	0.92640 0.73260 0.68663 0.10700
C 	C 	0.77450 0.95610 0.78814 0.07300
H 	H 	0.83030 0.97890 0.76680 -0.00200
C 	C 	0.93130 0.77040 0.64148 -0.00900
O 	O 	0.57540 0.72440 0.67648 -0.40400
C 	C 	0.13820 0.64960 0.68855 0.11000
O 	O 	0.46670 0.81640 0.71898 -0.39100
C 	C 	0.04010 0.81320 0.62414 -0.04800
H 	H 	0.11280 0.81840 0.64130 0.05800
C 	C 	0.47400 0.74620 0.69309 0.32300
C 	C 	0.03950 0.58980 0.77974 -0.88000
H 	H 	0.11300 0.62400 0.79060 0.28300
H 	H 	0.98420 0.57430 0.80370 0.28300
H 	H 	0.06540 0.52970 0.76560 0.29700
C 	C 	0.97160 0.65370 0.74784 0.34100
C 	C 	0.82230 0.80260 0.57363 -0.00700
H 	H 	0.74870 0.80010 0.55680 0.03200
C 	C 	0.93120 0.84370 0.55649 -0.06300
H 	H 	0.93110 0.86850 0.52810 0.05600
C 	C 	0.48070 0.26820 0.61887 -0.88600
H 	H 	0.46540 0.21140 0.63690 0.28200
H 	H 	0.56220 0.29580 0.62590 0.29500
H 	H 	0.41610 0.31690 0.62400 0.28200
C 	C 	0.61270 0.08200 0.39622 -0.00700
H 	H 	0.59450 0.09840 0.36730 0.03500
C 	C 	0.04070 0.84810 0.58158 -0.01300
H 	H 	0.11460 0.87450 0.56980 0.04400
C 	C 	0.71230 0.97480 0.44845 0.00300
H 	H 	0.76200 0.91960 0.45460 0.02700
Co	Co	0.77885 0.66713 0.45169 1.15200
Co	Co	0.32186 0.16651 0.28613 1.15000
C 	C 	0.64190 0.31300 0.31915 -0.04500
O 	O 	0.82226 0.57562 0.40348 -0.42000
O 	O 	0.12300 0.02671 0.30951 -0.30200
O 	O 	0.32195 0.05957 0.32988 -0.43300
N 	N 	0.61210 0.74229 0.45637 -0.27000
N 	N 	0.27820 0.91081 0.00969 -0.24800
O 	O 	0.95351 0.72733 0.46080 -0.40300
N 	N 	0.98340 0.32441 0.29314 -0.19300
N 	N 	0.42820 0.81469 0.44834 -0.19500
O 	O 	0.86679 0.79418 0.40198 -0.33800
C 	C 	0.39400 0.14210 0.19242 0.06800
H 	H 	0.45570 0.18820 0.20000 -0.00400
N 	N 	0.31340 0.11015 0.22352 -0.25500
O 	O 	0.63050 0.52321 0.42160 -0.32800
C 	C 	0.08620 0.82920 0.41615 -0.02500
C 	C 	0.21570 0.01360 0.33382 0.29000
N 	N 	0.16760 0.25424 0.28504 -0.21600
N 	N 	0.57880 0.78271 0.49657 -0.11500
C 	C 	0.96030 0.78150 0.42664 0.27800
C 	C 	0.46920 0.82660 0.49117 0.10300
N 	N 	0.13840 0.30470 0.24700 -0.24000
H 	H 	0.18490 0.30800 0.22390 0.11000
C 	C 	0.39900 0.97650 0.06938 -0.13700
H 	H 	0.47820 0.99130 0.08120 0.08900
C 	C 	0.31110 0.84540 0.42758 0.11300
C 	C 	0.85360 0.42390 0.34252 -0.10300
H 	H 	0.92410 0.46250 0.34920 0.08500
C 	C 	0.52140 0.76160 0.42786 0.33400
C 	C 	0.72740 0.51670 0.39877 0.28000
C 	C 	0.20870 0.94060 0.37102 -0.02900
C 	C 	0.40780 0.88400 0.52637 0.01500
C 	C 	0.31820 0.91560 0.39442 -0.11400
H 	H 	0.39520 0.94570 0.38780 0.07700
C 	C 	0.09360 0.89720 0.38231 -0.04100
H 	H 	0.02060 0.91410 0.36690 0.06600
C 	C 	0.28870 0.00060 0.09206 0.06100
C 	C 	0.38850 0.10890 0.14956 -0.13800
H 	H 	0.44660 0.13200 0.12910 0.08900
C 	C 	0.17320 0.98150 0.07163 -0.14300
H 	H 	0.09750 0.99770 0.08550 0.09300
C 	C 	0.29610 0.04100 0.13718 0.05300
C 	C 	0.38970 0.93050 0.02910 0.07700
H 	H 	0.46390 0.91230 0.01480 -0.00200
C 	C 	0.17750 0.23480 0.38416 -0.07200
H 	H 	0.25070 0.26350 0.37290 0.05800
C 	C 	0.19700 0.80190 0.43923 -0.11000
H 	H 	0.19350 0.75570 0.46180 0.08800
C 	C 	0.73870 0.44000 0.36389 -0.03400
C 	C 	0.75680 0.29530 0.29858 -0.10000
H 	H 	0.76340 0.24780 0.27670 0.07600
C 	C 	0.21310 0.00750 0.16989 -0.14500
H 	H 	0.15060 0.96120 0.16330 0.09000
C 	C 	0.63410 0.38310 0.35209 -0.02800
H 	H 	0.55750 0.39240 0.36660 0.05800
C 	C 	0.31390 0.00090 0.59449 -0.07900
H 	H 	0.28260 0.03970 0.61720 0.05700
C 	C 	0.17150 0.93840 0.03070 0.08600
H 	H 	0.09370 0.92800 0.01700 0.00100
C 	C 	0.43380 0.85950 0.56980 -0.07300
H 	H 	0.48250 0.80380 0.57620 0.06600
C 	C 	0.33490 0.96790 0.51721 -0.07800
H 	H 	0.31790 0.98550 0.48830 0.06600
C 	C 	0.07360 0.26740 0.31337 0.10700
C 	C 	0.22550 0.04390 0.21186 0.07300
H 	H 	0.16970 0.02110 0.23320 -0.00200
C 	C 	0.06870 0.22960 0.35852 -0.00900
O 	O 	0.42460 0.27560 0.32352 -0.40400
C 	C 	0.86180 0.35040 0.31145 0.11000
O 	O 	0.53330 0.18360 0.28102 -0.39100
C 	C 	0.95990 0.18680 0.37586 -0.04800
H 	H 	0.88720 0.18160 0.35870 0.05800
C 	C 	0.52600 0.25380 0.30691 0.32300
C 	C 	0.96050 0.41020 0.22026 -0.88000
H 	H 	0.88700 0.37600 0.20940 0.28300
H 	H 	0.01580 0.42570 0.19630 0.28300
H 	H 	0.93460 0.47030 0.23440 0.29700
C 	C 	0.02840 0.34630 0.25216 0.34100
C 	C 	0.17770 0.19740 0.42637 -0.00700
H 	H 	0.25130 0.19990 0.44320 0.03200
C 	C 	0.06880 0.15630 0.44351 -0.06300
H 	H 	0.06890 0.13150 0.47190 0.05600
C 	C 	0.51930 0.73180 0.38113 -0.88600
H 	H 	0.53460 0.78860 0.36310 0.28200
H 	H 	0.43780 0.70420 0.37410 0.29500
H 	H 	0.58390 0.68310 0.37600 0.28200
C 	C 	0.38730 0.91800 0.60378 -0.00700
H 	H 	0.40550 0.90160 0.63270 0.03500
C 	C 	0.95930 0.15190 0.41842 -0.01300
H 	H 	0.88540 0.12550 0.43020 0.04400
C 	C 	0.28770 0.02520 0.55155 0.00300
H 	H 	0.23800 0.08040 0.54540 0.02700
Co	Co	0.27885 0.83287 0.95169 1.15200
Co	Co	0.82186 0.33349 0.78613 1.14900
C 	C 	0.14190 0.18700 0.81915 -0.04600
O 	O 	0.32226 0.92438 0.90348 -0.42100
O 	O 	0.62300 0.47329 0.80951 -0.30100
O 	O 	0.82195 0.44043 0.82988 -0.43300
N 	N 	0.11210 0.75771 0.95637 -0.26900
N 	N 	0.77820 0.58919 0.50969 -0.24900
O 	O 	0.45351 0.77267 0.96080 -0.40300
N 	N 	0.48340 0.17559 0.79314 -0.19900
N 	N 	0.92820 0.68531 0.94834 -0.19500
O 	O 	0.36679 0.70582 0.90198 -0.33800
C 	C 	0.89400 0.35790 0.69242 0.06700
H 	H 	0.95570 0.31180 0.70000 -0.00400
N 	N 	0.81340 0.38985 0.72352 -0.25500
O 	O 	0.13050 0.97679 0.92160 -0.32800
C 	C 	0.58620 0.67080 0.91615 -0.02400
C 	C 	0.71570 0.48640 0.83382 0.29000
N 	N 	0.66760 0.24576 0.78504 -0.21600
N 	N 	0.07880 0.71729 0.99657 -0.11400
C 	C 	0.46030 0.71850 0.92664 0.27700
C 	C 	0.96920 0.67340 0.99117 0.10100
N 	N 	0.63840 0.19530 0.74700 -0.24300
H 	H 	0.68490 0.19200 0.72390 0.11100
C 	C 	0.89900 0.52350 0.56938 -0.13900
H 	H 	0.97820 0.50870 0.58120 0.08900
C 	C 	0.81110 0.65460 0.92758 0.11200
C 	C 	0.35360 0.07610 0.84252 -0.10200
H 	H 	0.42410 0.03750 0.84920 0.08400
C 	C 	0.02140 0.73840 0.92786 0.33300
C 	C 	0.22740 0.98330 0.89877 0.28100
C 	C 	0.70870 0.55940 0.87102 -0.03000
C 	C 	0.90780 0.61600 0.02637 0.01600
C 	C 	0.81820 0.58440 0.89442 -0.11300
H 	H 	0.89520 0.55430 0.88780 0.07600
C 	C 	0.59360 0.60280 0.88231 -0.04200
H 	H 	0.52060 0.58590 0.86690 0.06700
C 	C 	0.78870 0.49940 0.59206 0.06400
C 	C 	0.88850 0.39110 0.64956 -0.13700
H 	H 	0.94660 0.36800 0.62910 0.08800
C 	C 	0.67320 0.51850 0.57163 -0.14500
H 	H 	0.59750 0.50230 0.58550 0.09400
C 	C 	0.79610 0.45900 0.63718 0.05100
C 	C 	0.88970 0.56950 0.52910 0.07800
H 	H 	0.96390 0.58770 0.51480 -0.00200
C 	C 	0.67750 0.26520 0.88416 -0.07200
H 	H 	0.75070 0.23650 0.87290 0.05800
C 	C 	0.69700 0.69810 0.93923 -0.11100
H 	H 	0.69350 0.74430 0.96180 0.08800
C 	C 	0.23870 0.06000 0.86389 -0.03600
C 	C 	0.25680 0.20470 0.79858 -0.10000
H 	H 	0.26340 0.25220 0.77670 0.07500
C 	C 	0.71310 0.49250 0.66989 -0.14200
H 	H 	0.65060 0.53880 0.66330 0.08900
C 	C 	0.13410 0.11690 0.85209 -0.02600
H 	H 	0.05750 0.10760 0.86660 0.05800
C 	C 	0.81390 0.49910 0.09449 -0.07800
H 	H 	0.78260 0.46030 0.11720 0.05700
C 	C 	0.67150 0.56160 0.53070 0.08700
H 	H 	0.59370 0.57200 0.51700 0.00100
C 	C 	0.93380 0.64050 0.06980 -0.07300
H 	H 	0.98250 0.69620 0.07620 0.06700
C 	C 	0.83490 0.53210 0.01721 -0.07800
H 	H 	0.81790 0.51450 0.98830 0.06600
C 	C 	0.57360 0.23260 0.81337 0.10900
C 	C 	0.72550 0.45610 0.71186 0.07200
H 	H 	0.66970 0.47890 0.73320 -0.00000
C 	C 	0.56870 0.27040 0.85852 -0.00600
O 	O 	0.92460 0.22440 0.82352 -0.40700
C 	C 	0.36180 0.14960 0.81145 0.11000
O 	O 	0.03330 0.31640 0.78102 -0.39000
C 	C 	0.45990 0.31320 0.87586 -0.05100
H 	H 	0.38720 0.31840 0.85870 0.05900
C 	C 	0.02600 0.24620 0.80691 0.32600
C 	C 	0.46050 0.08980 0.72026 -0.91700
H 	H 	0.38700 0.12400 0.70940 0.29300
H 	H 	0.51580 0.07430 0.69630 0.29700
H 	H 	0.43460 0.02970 0.73440 0.30700
C 	C 	0.52840 0.15370 0.75216 0.35600
C 	C 	0.67770 0.30260 0.92637 -0.00800
H 	H 	0.75130 0.30010 0.94320 0.03200
C 	C 	0.56880 0.34370 0.94351 -0.05900
H 	H 	0.56890 0.36850 0.97190 0.05500
C 	C 	0.01930 0.76820 0.88113 -0.87200
H 	H 	0.03460 0.71140 0.86310 0.27900
H 	H 	0.93780 0.79580 0.87410 0.28800
H 	H 	0.08390 0.81690 0.87600 0.27800
C 	C 	0.88730 0.58200 0.10378 -0.00700
H 	H 	0.90550 0.59840 0.13270 0.03600
C 	C 	0.45930 0.34810 0.91842 -0.01600
H 	H 	0.38540 0.37450 0.93020 0.04500
C 	C 	0.78770 0.47480 0.05155 0.00400
H 	H 	0.73800 0.41960 0.04540 0.02700
