data_crystal

_cell_length_a 7.41940
_cell_length_b 17.96300
_cell_length_c 24.57400
_cell_angle_alpha 90.00000
_cell_angle_beta  90.00000
_cell_angle_gamma 90.00000

_symmetry_space_group_name_	'P 1'
_symmetry_space_group_name_H-M	'P 1'

loop_
_symmetry_equiv_pos_as_xyz
  x,y,z

loop_
_atom_site_label
_atom_site_type_symbol
_atom_site_fract_x
_atom_site_fract_y
_atom_site_fract_z
_atom_site_charge
O 	O 	0.91530 0.61553 0.05365 -0.35900
O 	O 	0.96260 0.51932 0.16999 -0.32500
C 	C 	0.88370 0.68465 0.05030 0.33300
C 	C 	0.74570 0.70927 0.00813 -0.22300
H 	H 	0.63400 0.70020 0.02560 0.12900
H 	H 	0.76720 0.67770 0.97560 0.12600
O 	O 	0.91530 0.11553 0.55365 -0.35900
O 	O 	0.96260 0.01932 0.66999 -0.32500
C 	C 	0.88370 0.18465 0.55030 0.33300
C 	C 	0.74570 0.20927 0.50813 -0.22300
H 	H 	0.63400 0.20020 0.52560 0.13000
H 	H 	0.76720 0.17770 0.47560 0.12800
O 	O 	0.41530 0.61553 0.55365 -0.35800
O 	O 	0.46260 0.51932 0.66999 -0.32400
C 	C 	0.38370 0.68465 0.55030 0.33400
C 	C 	0.24570 0.70927 0.50813 -0.22200
H 	H 	0.13400 0.70020 0.52560 0.13100
H 	H 	0.26720 0.67770 0.47560 0.12800
O 	O 	0.41530 0.11553 0.05365 -0.35800
O 	O 	0.46260 0.01932 0.16999 -0.32400
C 	C 	0.38370 0.18465 0.05030 0.33400
C 	C 	0.24570 0.20927 0.00813 -0.22200
H 	H 	0.13400 0.20020 0.02560 0.13000
H 	H 	0.26720 0.17770 0.97560 0.12800
O 	O 	0.83470 0.13447 0.05365 -0.35800
O 	O 	0.78740 0.23068 0.16999 -0.32400
C 	C 	0.86630 0.06535 0.05030 0.33500
C 	C 	0.00430 0.04073 0.00813 -0.22300
H 	H 	0.11600 0.04980 0.02560 0.13100
H 	H 	0.98280 0.07230 0.97560 0.12800
O 	O 	0.83470 0.63447 0.55365 -0.35800
O 	O 	0.78740 0.73068 0.66999 -0.32400
C 	C 	0.86630 0.56535 0.55030 0.33400
C 	C 	0.00430 0.54073 0.50813 -0.22200
H 	H 	0.11600 0.54980 0.52560 0.13000
H 	H 	0.98280 0.57230 0.47560 0.12700
O 	O 	0.33470 0.13447 0.55365 -0.35800
O 	O 	0.28740 0.23068 0.66999 -0.32400
C 	C 	0.36630 0.06535 0.55030 0.33400
C 	C 	0.50430 0.04073 0.50813 -0.22200
H 	H 	0.61600 0.04980 0.52560 0.13000
H 	H 	0.48280 0.07230 0.47560 0.12800
O 	O 	0.33470 0.63447 0.05365 -0.35800
O 	O 	0.28740 0.73068 0.16999 -0.32400
C 	C 	0.36630 0.56535 0.05030 0.33400
C 	C 	0.50430 0.54073 0.00813 -0.22200
H 	H 	0.61600 0.54980 0.02560 0.13100
H 	H 	0.48280 0.57230 0.97560 0.12800
O 	O 	0.83470 0.61553 0.69635 -0.35800
O 	O 	0.78740 0.51932 0.58001 -0.32400
C 	C 	0.86630 0.68465 0.69970 0.33200
C 	C 	0.00430 0.70927 0.74187 -0.21600
H 	H 	0.11600 0.70020 0.72440 0.12900
H 	H 	0.98280 0.67770 0.77440 0.12500
O 	O 	0.83470 0.11553 0.19635 -0.35800
O 	O 	0.78740 0.01932 0.08001 -0.32400
C 	C 	0.86630 0.18465 0.19970 0.33600
C 	C 	0.00430 0.20927 0.24187 -0.22800
H 	H 	0.11600 0.20020 0.22440 0.13200
H 	H 	0.98280 0.17770 0.27440 0.13000
O 	O 	0.33470 0.61553 0.19635 -0.35800
O 	O 	0.28740 0.51932 0.08001 -0.32400
C 	C 	0.36630 0.68465 0.19970 0.33400
C 	C 	0.50430 0.70927 0.24187 -0.22200
H 	H 	0.61600 0.70020 0.22440 0.13000
H 	H 	0.48280 0.67770 0.27440 0.12800
O 	O 	0.33470 0.11553 0.69635 -0.35800
O 	O 	0.28740 0.01932 0.58001 -0.32500
C 	C 	0.36630 0.18465 0.69970 0.33400
C 	C 	0.50430 0.20927 0.74187 -0.22200
H 	H 	0.61600 0.20020 0.72440 0.13000
H 	H 	0.48280 0.17770 0.77440 0.12800
O 	O 	0.91530 0.13447 0.69635 -0.35800
O 	O 	0.96260 0.23068 0.58001 -0.32400
C 	C 	0.88370 0.06535 0.69970 0.33400
C 	C 	0.74570 0.04073 0.74187 -0.22200
H 	H 	0.63400 0.04980 0.72440 0.13000
H 	H 	0.76720 0.07230 0.77440 0.12800
O 	O 	0.91530 0.63447 0.19635 -0.35800
O 	O 	0.96260 0.73068 0.08001 -0.32400
C 	C 	0.88370 0.56535 0.19970 0.33400
C 	C 	0.74570 0.54073 0.24187 -0.22200
H 	H 	0.63400 0.54980 0.22440 0.13000
H 	H 	0.76720 0.57230 0.27440 0.12800
O 	O 	0.41530 0.13447 0.19635 -0.35800
O 	O 	0.46260 0.23068 0.08001 -0.32400
C 	C 	0.38370 0.06535 0.19970 0.33400
C 	C 	0.24570 0.04073 0.24187 -0.22200
H 	H 	0.13400 0.04980 0.22440 0.13000
H 	H 	0.26720 0.07230 0.27440 0.12800
O 	O 	0.41530 0.63447 0.69635 -0.35800
O 	O 	0.46260 0.73068 0.58001 -0.32400
C 	C 	0.38370 0.56535 0.69970 0.33400
C 	C 	0.24570 0.54073 0.74187 -0.22200
H 	H 	0.13400 0.54980 0.72440 0.13100
H 	H 	0.26720 0.57230 0.77440 0.12800
O 	O 	0.08470 0.38447 0.94635 -0.35800
O 	O 	0.03740 0.48068 0.83001 -0.32400
C 	C 	0.11630 0.31535 0.94970 0.33400
C 	C 	0.25430 0.29073 0.99187 -0.22200
H 	H 	0.36600 0.29980 0.97440 0.13000
H 	H 	0.23280 0.32230 0.02440 0.12700
O 	O 	0.08470 0.88447 0.44635 -0.35800
O 	O 	0.03740 0.98068 0.33001 -0.32400
C 	C 	0.11630 0.81535 0.44970 0.33400
C 	C 	0.25430 0.79073 0.49187 -0.22200
H 	H 	0.36600 0.79980 0.47440 0.13000
H 	H 	0.23280 0.82230 0.52440 0.12800
O 	O 	0.58470 0.38447 0.44635 -0.35800
O 	O 	0.53740 0.48068 0.33001 -0.32400
C 	C 	0.61630 0.31535 0.44970 0.33400
C 	C 	0.75430 0.29073 0.49187 -0.22200
H 	H 	0.86600 0.29980 0.47440 0.13100
H 	H 	0.73280 0.32230 0.52440 0.12800
O 	O 	0.58470 0.88447 0.94635 -0.35800
O 	O 	0.53740 0.98068 0.83001 -0.32400
C 	C 	0.61630 0.81535 0.94970 0.33400
C 	C 	0.75430 0.79073 0.99187 -0.22200
H 	H 	0.86600 0.79980 0.97440 0.13000
H 	H 	0.73280 0.82230 0.02440 0.12800
O 	O 	0.16530 0.86553 0.94635 -0.35800
O 	O 	0.21260 0.76932 0.83001 -0.32400
C 	C 	0.13370 0.93465 0.94970 0.33500
C 	C 	0.99570 0.95927 0.99187 -0.22300
H 	H 	0.88400 0.95020 0.97440 0.13100
H 	H 	0.01720 0.92770 0.02440 0.12800
O 	O 	0.16530 0.36553 0.44635 -0.35800
O 	O 	0.21260 0.26932 0.33001 -0.32400
C 	C 	0.13370 0.43465 0.44970 0.33400
C 	C 	0.99570 0.45927 0.49187 -0.22200
H 	H 	0.88400 0.45020 0.47440 0.13000
H 	H 	0.01720 0.42770 0.52440 0.12700
O 	O 	0.66530 0.86553 0.44635 -0.35800
O 	O 	0.71260 0.76932 0.33001 -0.32400
C 	C 	0.63370 0.93465 0.44970 0.33400
C 	C 	0.49570 0.95927 0.49187 -0.22200
H 	H 	0.38400 0.95020 0.47440 0.13000
H 	H 	0.51720 0.92770 0.52440 0.12800
O 	O 	0.66530 0.36553 0.94635 -0.35800
O 	O 	0.71260 0.26932 0.83001 -0.32400
C 	C 	0.63370 0.43465 0.94970 0.33400
C 	C 	0.49570 0.45927 0.99187 -0.22200
H 	H 	0.38400 0.45020 0.97440 0.13100
H 	H 	0.51720 0.42770 0.02440 0.12800
O 	O 	0.16530 0.38447 0.30365 -0.35800
O 	O 	0.21260 0.48068 0.41999 -0.32400
C 	C 	0.13370 0.31535 0.30030 0.33200
C 	C 	0.99570 0.29073 0.25813 -0.21600
H 	H 	0.88400 0.29980 0.27560 0.12900
H 	H 	0.01720 0.32230 0.22560 0.12500
O 	O 	0.16530 0.88447 0.80365 -0.35800
O 	O 	0.21260 0.98068 0.91999 -0.32400
C 	C 	0.13370 0.81535 0.80030 0.33600
C 	C 	0.99570 0.79073 0.75813 -0.22800
H 	H 	0.88400 0.79980 0.77560 0.13200
H 	H 	0.01720 0.82230 0.72560 0.13000
O 	O 	0.66530 0.38447 0.80365 -0.35800
O 	O 	0.71260 0.48068 0.91999 -0.32400
C 	C 	0.63370 0.31535 0.80030 0.33400
C 	C 	0.49570 0.29073 0.75813 -0.22200
H 	H 	0.38400 0.29980 0.77560 0.13000
H 	H 	0.51720 0.32230 0.72560 0.12800
O 	O 	0.66530 0.88447 0.30365 -0.35800
O 	O 	0.71260 0.98068 0.41999 -0.32500
C 	C 	0.63370 0.81535 0.30030 0.33400
C 	C 	0.49570 0.79073 0.25813 -0.22200
H 	H 	0.38400 0.79980 0.27560 0.13000
H 	H 	0.51720 0.82230 0.22560 0.12800
O 	O 	0.08470 0.86553 0.30365 -0.35800
O 	O 	0.03740 0.76932 0.41999 -0.32400
C 	C 	0.11630 0.93465 0.30030 0.33400
C 	C 	0.25430 0.95927 0.25813 -0.22200
H 	H 	0.36600 0.95020 0.27560 0.13000
H 	H 	0.23280 0.92770 0.22560 0.12800
O 	O 	0.08470 0.36553 0.80365 -0.35800
O 	O 	0.03740 0.26932 0.91999 -0.32400
C 	C 	0.11630 0.43465 0.80030 0.33400
C 	C 	0.25430 0.45927 0.75813 -0.22200
H 	H 	0.36600 0.45020 0.77560 0.13000
H 	H 	0.23280 0.42770 0.72560 0.12800
O 	O 	0.58470 0.86553 0.80365 -0.35800
O 	O 	0.53740 0.76932 0.91999 -0.32400
C 	C 	0.61630 0.93465 0.80030 0.33400
C 	C 	0.75430 0.95927 0.75813 -0.22200
H 	H 	0.86600 0.95020 0.77560 0.13000
H 	H 	0.73280 0.92770 0.72560 0.12800
O 	O 	0.58470 0.36553 0.30365 -0.35800
O 	O 	0.53740 0.26932 0.41999 -0.32400
C 	C 	0.61630 0.43465 0.30030 0.33400
C 	C 	0.75430 0.45927 0.25813 -0.22200
H 	H 	0.86600 0.45020 0.27560 0.13100
H 	H 	0.73280 0.42770 0.22560 0.12800
Cd	Cd	0.12500 0.62500 0.12500 1.24900
Cd	Cd	0.62500 0.62500 0.62500 1.24900
Cd	Cd	0.62500 0.12500 0.12500 1.24900
Cd	Cd	0.12500 0.12500 0.62500 1.24900
Cd	Cd	0.87500 0.37500 0.87500 1.24900
Cd	Cd	0.37500 0.37500 0.37500 1.24900
Cd	Cd	0.37500 0.87500 0.87500 1.24900
Cd	Cd	0.87500 0.87500 0.37500 1.24900
