data_crystal

_cell_length_a 9.67500
_cell_length_b 17.48900
_cell_length_c 14.35400
_cell_angle_alpha 75.41600
_cell_angle_beta  90.00000
_cell_angle_gamma 90.00000

_symmetry_space_group_name_	'P 1'
_symmetry_space_group_name_H-M	'P 1'

loop_
_symmetry_equiv_pos_as_xyz
  x,y,z

loop_
_atom_site_label
_atom_site_type_symbol
_atom_site_fract_x
_atom_site_fract_y
_atom_site_fract_z
_atom_site_charge
Cd	Cd	0.45497 0.67853 0.45142 1.18700
Cd	Cd	0.96228 0.83239 0.54799 1.17200
Cd	Cd	0.95497 0.32147 0.04858 1.18600
Cd	Cd	0.46228 0.16761 0.95201 1.17100
Cd	Cd	0.54503 0.32147 0.54858 1.18800
Cd	Cd	0.03772 0.16761 0.45201 1.17300
Cd	Cd	0.04503 0.67853 0.95142 1.18700
Cd	Cd	0.53772 0.83239 0.04799 1.17200
C 	C 	0.24410 0.72160 0.62690 0.09800
C 	C 	0.14740 0.75680 0.39810 0.08100
C 	C 	0.34580 0.48250 0.44890 0.10500
C 	C 	0.63030 0.70030 0.24210 0.09800
C 	C 	0.65380 0.84260 0.44620 0.09500
C 	C 	0.92430 0.00360 0.60380 0.07500
C 	C 	0.74410 0.27840 0.87310 0.09800
C 	C 	0.64740 0.24320 0.10190 0.08000
C 	C 	0.84580 0.51750 0.05110 0.10500
C 	C 	0.13030 0.29970 0.25790 0.09800
C 	C 	0.15380 0.15740 0.05380 0.09600
C 	C 	0.42430 0.99640 0.89620 0.07900
C 	C 	0.75590 0.27840 0.37310 0.09800
C 	C 	0.85260 0.24320 0.60190 0.08100
C 	C 	0.65420 0.51750 0.55110 0.10500
C 	C 	0.36970 0.29970 0.75790 0.09800
C 	C 	0.34620 0.15740 0.55380 0.09500
C 	C 	0.07570 0.99640 0.39620 0.07500
C 	C 	0.25590 0.72160 0.12690 0.09800
C 	C 	0.35260 0.75680 0.89810 0.08000
C 	C 	0.15420 0.48250 0.94890 0.10500
C 	C 	0.86970 0.70030 0.74210 0.09800
C 	C 	0.84620 0.84260 0.94620 0.09600
C 	C 	0.57570 0.00360 0.10380 0.07900
S 	S 	0.37941 0.66377 0.63875 -0.21900
S 	S 	0.97787 0.75808 0.40345 -0.22800
S 	S 	0.26830 0.56822 0.40984 -0.20700
S 	S 	0.72118 0.72478 0.14196 -0.25500
S 	S 	0.75115 0.91953 0.44469 -0.22300
S 	S 	0.95725 0.91902 0.68031 -0.22800
S 	S 	0.87941 0.33623 0.86125 -0.21600
S 	S 	0.47787 0.24192 0.09655 -0.22600
S 	S 	0.76830 0.43178 0.09016 -0.20800
S 	S 	0.22118 0.27522 0.35804 -0.25200
S 	S 	0.25115 0.08047 0.05531 -0.21900
S 	S 	0.45725 0.08098 0.81969 -0.23300
S 	S 	0.62059 0.33623 0.36125 -0.21900
S 	S 	0.02213 0.24192 0.59655 -0.22800
S 	S 	0.73170 0.43178 0.59016 -0.20700
S 	S 	0.27882 0.27522 0.85804 -0.25500
S 	S 	0.24885 0.08047 0.55531 -0.22300
S 	S 	0.04275 0.08098 0.31969 -0.22800
S 	S 	0.12059 0.66377 0.13875 -0.21600
S 	S 	0.52213 0.75808 0.90345 -0.22600
S 	S 	0.23170 0.56822 0.90984 -0.20800
S 	S 	0.77882 0.72478 0.64196 -0.25200
S 	S 	0.74885 0.91953 0.94469 -0.21900
S 	S 	0.54275 0.91902 0.18031 -0.23300
N 	N 	0.15000 0.76230 0.61820 -0.27500
N 	N 	0.26790 0.75630 0.39320 -0.25700
N 	N 	0.39650 0.42190 0.47640 -0.26100
N 	N 	0.56870 0.68110 0.31220 -0.26500
N 	N 	0.58370 0.78880 0.45040 -0.25900
N 	N 	0.89960 0.06310 0.54990 -0.24100
N 	N 	0.65000 0.23770 0.88180 -0.27400
N 	N 	0.76790 0.24370 0.10680 -0.25700
N 	N 	0.89650 0.57810 0.02360 -0.26200
N 	N 	0.06870 0.31890 0.18780 -0.26300
N 	N 	0.08370 0.21120 0.04960 -0.25700
N 	N 	0.39960 0.93690 0.95010 -0.24100
N 	N 	0.85000 0.23770 0.38180 -0.27500
N 	N 	0.73210 0.24370 0.60680 -0.25700
N 	N 	0.60350 0.57810 0.52360 -0.26100
N 	N 	0.43130 0.31890 0.68780 -0.26500
N 	N 	0.41630 0.21120 0.54960 -0.25900
N 	N 	0.10040 0.93690 0.45010 -0.24100
N 	N 	0.35000 0.76230 0.11820 -0.27400
N 	N 	0.23210 0.75630 0.89320 -0.25700
N 	N 	0.10350 0.42190 0.97640 -0.26200
N 	N 	0.93130 0.68110 0.81220 -0.26300
N 	N 	0.91630 0.78880 0.95040 -0.25700
N 	N 	0.60040 0.06310 0.04990 -0.24100
