data_crystal

_cell_length_a 7.68000
_cell_length_b 10.02900
_cell_length_c 25.78600
_cell_angle_alpha 90.00000
_cell_angle_beta  93.77900
_cell_angle_gamma 90.00000

_symmetry_space_group_name_	'P 1'
_symmetry_space_group_name_H-M	'P 1'

loop_
_symmetry_equiv_pos_as_xyz
  x,y,z

loop_
_atom_site_label
_atom_site_type_symbol
_atom_site_fract_x
_atom_site_fract_y
_atom_site_fract_z
_atom_site_charge
Cd	Cd	0.73472 0.25815 0.76152 1.18300
Cd	Cd	0.26528 0.75815 0.73848 1.18300
Cd	Cd	0.26528 0.74185 0.23848 1.18400
Cd	Cd	0.73472 0.24185 0.26152 1.18400
H 	H 	0.66360 0.51510 0.68890 -0.01700
H 	H 	0.52810 0.59170 0.61330 0.08700
H 	H 	0.31600 0.23030 0.59050 0.08900
H 	H 	0.45710 0.16330 0.66720 -0.01200
H 	H 	0.05470 0.58650 0.38670 0.08600
H 	H 	0.89510 0.50260 0.31610 -0.01200
H 	H 	0.89370 0.14820 0.37660 -0.01000
H 	H 	0.05470 0.22090 0.44990 0.09100
H 	H 	0.33640 0.01510 0.81110 -0.01500
H 	H 	0.47190 0.09170 0.88670 0.08600
H 	H 	0.68400 0.73030 0.90950 0.08900
H 	H 	0.54290 0.66330 0.83280 -0.01100
H 	H 	0.94530 0.08650 0.11330 0.08200
H 	H 	0.10490 0.00260 0.18390 -0.00900
H 	H 	0.10630 0.64820 0.12340 -0.00900
H 	H 	0.94530 0.72090 0.05010 0.09000
H 	H 	0.33640 0.48490 0.31110 -0.01700
H 	H 	0.47190 0.40830 0.38670 0.08700
H 	H 	0.68400 0.76970 0.40950 0.08900
H 	H 	0.54290 0.83670 0.33280 -0.01200
H 	H 	0.94530 0.41350 0.61330 0.08600
H 	H 	0.10490 0.49740 0.68390 -0.01200
H 	H 	0.10630 0.85180 0.62340 -0.01000
H 	H 	0.94530 0.77910 0.55010 0.09100
H 	H 	0.66360 0.98490 0.18890 -0.01500
H 	H 	0.52810 0.90830 0.11330 0.08600
H 	H 	0.31600 0.26970 0.09050 0.08900
H 	H 	0.45710 0.33670 0.16720 -0.01100
H 	H 	0.05470 0.91350 0.88670 0.08200
H 	H 	0.89510 0.99740 0.81610 -0.00900
H 	H 	0.89370 0.35180 0.87660 -0.00900
H 	H 	0.05470 0.27910 0.94990 0.09000
C 	C 	0.59400 0.45670 0.66862 0.07200
C 	C 	0.51330 0.50350 0.62323 -0.13100
C 	C 	0.40960 0.41830 0.59221 0.04800
C 	C 	0.38750 0.28960 0.60970 -0.11800
C 	C 	0.47270 0.25010 0.65580 0.07000
C 	C 	0.32900 0.46710 0.54380 0.15600
C 	C 	0.17980 0.46430 0.47082 0.15500
C 	C 	0.07490 0.41100 0.42609 0.04800
C 	C 	0.02440 0.49670 0.38534 -0.12400
C 	C 	0.92900 0.44530 0.34327 0.07100
C 	C 	0.92790 0.23710 0.37870 0.07500
C 	C 	0.02470 0.27980 0.42300 -0.11600
C 	C 	0.09620 0.07220 0.71455 0.11500
C 	C 	0.38220 0.44770 0.78190 0.09100
C 	C 	0.40600 0.95670 0.83138 0.06900
C 	C 	0.48670 0.00350 0.87677 -0.12900
C 	C 	0.59040 0.91830 0.90779 0.04600
C 	C 	0.61250 0.78960 0.89030 -0.11700
C 	C 	0.52730 0.75010 0.84420 0.07000
C 	C 	0.67100 0.96710 0.95620 0.15700
C 	C 	0.82020 0.96430 0.02918 0.15700
C 	C 	0.92510 0.91100 0.07391 0.04500
C 	C 	0.97560 0.99670 0.11466 -0.11500
C 	C 	0.07100 0.94530 0.15673 0.06400
C 	C 	0.07210 0.73710 0.12130 0.07300
C 	C 	0.97530 0.77980 0.07700 -0.11400
C 	C 	0.90380 0.57220 0.78545 0.11300
C 	C 	0.61780 0.94770 0.71810 0.09100
C 	C 	0.40600 0.54330 0.33138 0.07200
C 	C 	0.48670 0.49650 0.37677 -0.13100
C 	C 	0.59040 0.58170 0.40779 0.04800
C 	C 	0.61250 0.71040 0.39030 -0.11800
C 	C 	0.52730 0.74990 0.34420 0.07000
C 	C 	0.67100 0.53290 0.45620 0.15600
C 	C 	0.82020 0.53570 0.52918 0.15500
C 	C 	0.92510 0.58900 0.57391 0.04800
C 	C 	0.97560 0.50330 0.61466 -0.12400
C 	C 	0.07100 0.55470 0.65673 0.07100
C 	C 	0.07210 0.76290 0.62130 0.07500
C 	C 	0.97530 0.72020 0.57700 -0.11600
C 	C 	0.90380 0.92780 0.28545 0.11500
C 	C 	0.61780 0.55230 0.21810 0.09100
C 	C 	0.59400 0.04330 0.16862 0.06900
C 	C 	0.51330 0.99650 0.12323 -0.12900
C 	C 	0.40960 0.08170 0.09221 0.04600
C 	C 	0.38750 0.21040 0.10970 -0.11700
C 	C 	0.47270 0.24990 0.15580 0.07000
C 	C 	0.32900 0.03290 0.04380 0.15700
C 	C 	0.17980 0.03570 0.97082 0.15700
C 	C 	0.07490 0.08900 0.92609 0.04500
C 	C 	0.02440 0.00330 0.88534 -0.11500
C 	C 	0.92900 0.05470 0.84327 0.06400
C 	C 	0.92790 0.26290 0.87870 0.07300
C 	C 	0.02470 0.22020 0.92300 -0.11400
C 	C 	0.09620 0.42780 0.21455 0.11300
C 	C 	0.38220 0.05230 0.28190 0.09100
S 	S 	0.01920 0.22135 0.70196 -0.22900
S 	S 	0.44770 0.31494 0.81555 -0.22800
S 	S 	0.98080 0.72135 0.79804 -0.22800
S 	S 	0.55230 0.81494 0.68445 -0.22800
S 	S 	0.98080 0.77865 0.29804 -0.22900
S 	S 	0.55230 0.68506 0.18445 -0.22800
S 	S 	0.01920 0.27865 0.20196 -0.22800
S 	S 	0.44770 0.18506 0.31555 -0.22800
N 	N 	0.57780 0.33210 0.68513 -0.24100
N 	N 	0.33500 0.58680 0.52518 -0.09600
N 	N 	0.23830 0.58410 0.47707 -0.09700
N 	N 	0.88200 0.31770 0.33909 -0.24100
N 	N 	0.15280 0.96910 0.72373 -0.27100
N 	N 	0.34120 0.54200 0.75839 -0.26500
N 	N 	0.42220 0.83210 0.81487 -0.24000
N 	N 	0.66500 0.08680 0.97482 -0.09600
N 	N 	0.76170 0.08410 0.02293 -0.09800
N 	N 	0.11800 0.81770 0.16091 -0.24000
N 	N 	0.84720 0.46910 0.77627 -0.27000
N 	N 	0.65880 0.04200 0.74161 -0.26500
N 	N 	0.42220 0.66790 0.31487 -0.24100
N 	N 	0.66500 0.41320 0.47482 -0.09600
N 	N 	0.76170 0.41590 0.52293 -0.09700
N 	N 	0.11800 0.68230 0.66091 -0.24100
N 	N 	0.84720 0.03090 0.27627 -0.27100
N 	N 	0.65880 0.45800 0.24161 -0.26500
N 	N 	0.57780 0.16790 0.18513 -0.24000
N 	N 	0.33500 0.91320 0.02518 -0.09600
N 	N 	0.23830 0.91590 0.97707 -0.09800
N 	N 	0.88200 0.18230 0.83909 -0.24000
N 	N 	0.15280 0.53090 0.22373 -0.27000
N 	N 	0.34120 0.95800 0.25839 -0.26500
O 	O 	0.23170 0.38320 0.51169 -0.23000
O 	O 	0.76830 0.88320 0.98831 -0.23100
O 	O 	0.76830 0.61680 0.48831 -0.23000
O 	O 	0.23170 0.11680 0.01169 -0.23100
