data_crystal

_cell_length_a 6.90070
_cell_length_b 7.47220
_cell_length_c 8.25210
_cell_angle_alpha 90.22700
_cell_angle_beta  108.67000
_cell_angle_gamma 93.33200

_symmetry_space_group_name_	'P 1'
_symmetry_space_group_name_H-M	'P 1'

loop_
_symmetry_equiv_pos_as_xyz
  x,y,z

loop_
_atom_site_label
_atom_site_type_symbol
_atom_site_fract_x
_atom_site_fract_y
_atom_site_fract_z
_atom_site_charge
Mg	Mg	0.50000 0.50000 -0.00000 1.43000
Mg	Mg	-0.00000 0.00000 -0.00000 1.40900
H 	H 	0.57620 0.70930 0.45910 0.11000
H 	H 	0.42380 0.29070 0.54090 -0.05600
C 	C 	0.42190 0.84363 0.16004 0.35800
C 	C 	0.46340 0.93171 0.33339 0.16100
C 	C 	0.54559 0.82615 0.47559 -0.19300
C 	C 	0.41748 0.10773 0.35876 -0.44100
C 	C 	0.34670 0.23849 0.21637 0.49900
C 	C 	0.57810 0.15637 0.83996 0.47700
C 	C 	0.53660 0.06829 0.66661 -0.38600
C 	C 	0.45441 0.17385 0.52441 0.25300
C 	C 	0.58252 0.89227 0.64124 0.21900
C 	C 	0.65330 0.76151 0.78363 0.30300
O 	O 	0.54933 0.73552 0.14641 -0.59500
O 	O 	0.47861 0.35781 0.20938 -0.62400
O 	O 	0.16376 0.22634 0.11849 -0.79300
O 	O 	0.26324 0.87625 0.04164 -0.68500
O 	O 	0.45067 0.26448 0.85359 -0.41400
O 	O 	0.52139 0.64219 0.79062 -0.36500
O 	O 	0.83624 0.77366 0.88151 -0.28000
O 	O 	0.73676 0.12375 0.95836 -0.38700
