data_crystal

_cell_length_a 8.39360
_cell_length_b 10.53470
_cell_length_c 17.40930
_cell_angle_alpha 99.17400
_cell_angle_beta  97.13000
_cell_angle_gamma 100.34800

_symmetry_space_group_name_	'P 1'
_symmetry_space_group_name_H-M	'P 1'

loop_
_symmetry_equiv_pos_as_xyz
  x,y,z

loop_
_atom_site_label
_atom_site_type_symbol
_atom_site_fract_x
_atom_site_fract_y
_atom_site_fract_z
_atom_site_charge
C 	C 	0.97490 0.55750 0.30462 0.33000
C 	C 	0.97230 0.42730 0.32890 -0.11800
C 	C 	0.06370 0.42000 0.39990 0.06100
H 	H 	0.12870 0.49570 0.43140 0.02300
C 	C 	0.05810 0.30000 0.42380 -0.14600
H 	H 	0.11760 0.29560 0.47170 0.09300
C 	C 	0.96380 0.18640 0.37620 0.08400
H 	H 	0.96250 0.10590 0.39180 0.00700
C 	C 	0.87160 0.19240 0.30550 -0.15800
C 	C 	0.87680 0.31370 0.28250 0.07000
H 	H 	0.81510 0.31840 0.23520 0.03700
C 	C 	0.75650 0.07450 0.25720 0.40600
C 	C 	0.83820 0.00360 0.85932 0.53200
C 	C 	0.87230 0.90660 0.91074 -0.23500
C 	C 	0.99700 0.83780 0.89980 0.14400
H 	H 	0.05980 0.85090 0.86030 -0.00600
C 	C 	0.02690 0.74960 0.94830 -0.20000
H 	H 	0.10770 0.70130 0.94000 0.11400
C 	C 	0.93740 0.73290 0.00880 0.14700
H 	H 	0.96010 0.67500 0.04180 -0.02200
C 	C 	0.81490 0.80160 0.02047 -0.22700
C 	C 	0.78060 0.88730 0.97033 0.16700
H 	H 	0.69570 0.93180 0.97690 0.00100
C 	C 	0.72240 0.79000 0.08796 0.47700
C 	C 	0.68900 0.00080 0.63713 0.54900
C 	C 	0.59910 0.90540 0.56475 -0.25700
C 	C 	0.43650 0.84620 0.56320 0.17200
H 	H 	0.38730 0.86230 0.60780 -0.02500
C 	C 	0.34730 0.76370 0.49610 -0.23100
H 	H 	0.23830 0.72500 0.49540 0.12600
C 	C 	0.42040 0.73910 0.43050 0.16500
H 	H 	0.35970 0.68450 0.38510 -0.01200
C 	C 	0.58300 0.79440 0.43108 -0.24100
C 	C 	0.65950 0.76910 0.35878 0.47300
C 	C 	0.67270 0.87870 0.49879 0.17300
H 	H 	0.78190 0.91690 0.49950 -0.01400
C 	C 	0.21450 0.62770 0.16140 0.54600
H 	H 	0.13320 0.55170 0.14750 -0.14300
Eu	Eu	0.47769 0.86133 0.20330 2.15700
Eu	Eu	0.96636 0.80744 0.26231 2.16800
O 	O 	0.07070 0.65700 0.34339 -0.41000
O 	O 	0.87690 0.56410 0.24341 -0.39600
O 	O 	0.63850 0.08860 0.21063 -0.43000
O 	O 	0.77420 0.95990 0.26770 -0.59800
O 	O 	0.93820 0.03330 0.81391 -0.52700
O 	O 	0.71050 0.04890 0.86598 -0.54600
O 	O 	0.59350 0.83350 0.08689 -0.50900
O 	O 	0.77680 0.73530 0.14286 -0.53300
O 	O 	0.83850 0.04720 0.64084 -0.53900
O 	O 	0.60540 0.03060 0.69045 -0.58400
O 	O 	0.56520 0.73100 0.29226 -0.52500
O 	O 	0.81200 0.78590 0.36658 -0.50200
O 	O 	0.34850 0.62670 0.13763 -0.45700
O 	O 	0.18440 0.72500 0.20253 -0.63200
C 	C 	0.02510 0.44250 0.69538 0.33100
C 	C 	0.02770 0.57270 0.67110 -0.11700
C 	C 	0.93630 0.58000 0.60010 0.06100
H 	H 	0.87130 0.50430 0.56860 0.02300
C 	C 	0.94190 0.70000 0.57620 -0.14600
H 	H 	0.88240 0.70440 0.52830 0.09300
C 	C 	0.03620 0.81360 0.62380 0.08400
H 	H 	0.03750 0.89410 0.60820 0.00700
C 	C 	0.12840 0.80760 0.69450 -0.15800
C 	C 	0.12320 0.68630 0.71750 0.07000
H 	H 	0.18490 0.68160 0.76480 0.03700
C 	C 	0.24350 0.92550 0.74280 0.40600
C 	C 	0.16180 0.99640 0.14068 0.53200
C 	C 	0.12770 0.09340 0.08926 -0.23500
C 	C 	0.00300 0.16220 0.10020 0.14400
H 	H 	0.94020 0.14910 0.13970 -0.00600
C 	C 	0.97310 0.25040 0.05170 -0.20000
H 	H 	0.89230 0.29870 0.06000 0.11400
C 	C 	0.06260 0.26710 0.99120 0.14700
H 	H 	0.03990 0.32500 0.95820 -0.02200
C 	C 	0.18510 0.19840 0.97953 -0.22700
C 	C 	0.21940 0.11270 0.02967 0.16700
H 	H 	0.30430 0.06820 0.02310 0.00100
C 	C 	0.27760 0.21000 0.91204 0.47700
C 	C 	0.31100 0.99920 0.36287 0.54900
C 	C 	0.40090 0.09460 0.43525 -0.25700
C 	C 	0.56350 0.15380 0.43680 0.17200
H 	H 	0.61270 0.13770 0.39220 -0.02500
C 	C 	0.65270 0.23630 0.50390 -0.23100
H 	H 	0.76170 0.27500 0.50460 0.12600
C 	C 	0.57960 0.26090 0.56950 0.16500
H 	H 	0.64030 0.31550 0.61490 -0.01200
C 	C 	0.41700 0.20560 0.56892 -0.24100
C 	C 	0.34050 0.23090 0.64122 0.47300
C 	C 	0.32730 0.12130 0.50121 0.17300
H 	H 	0.21810 0.08310 0.50050 -0.01400
C 	C 	0.78550 0.37230 0.83860 0.54600
H 	H 	0.86680 0.44830 0.85250 -0.14300
Eu	Eu	0.52231 0.13867 0.79671 2.15700
Eu	Eu	0.03364 0.19256 0.73769 2.16800
O 	O 	0.92930 0.34300 0.65661 -0.41000
O 	O 	0.12310 0.43590 0.75659 -0.39600
O 	O 	0.36150 0.91140 0.78937 -0.43000
O 	O 	0.22580 0.04010 0.73230 -0.59800
O 	O 	0.06180 0.96670 0.18609 -0.52700
O 	O 	0.28950 0.95110 0.13402 -0.54600
O 	O 	0.40650 0.16650 0.91311 -0.50900
O 	O 	0.22320 0.26470 0.85714 -0.53300
O 	O 	0.16150 0.95280 0.35916 -0.53900
O 	O 	0.39460 0.96940 0.30955 -0.58400
O 	O 	0.43480 0.26900 0.70774 -0.52500
O 	O 	0.18800 0.21410 0.63342 -0.50200
O 	O 	0.65150 0.37330 0.86237 -0.45700
O 	O 	0.81560 0.27500 0.79747 -0.63200
