data_crystal

_cell_length_a 22.11000
_cell_length_b 13.65950
_cell_length_c 15.04360
_cell_angle_alpha 90.00000
_cell_angle_beta  116.01900
_cell_angle_gamma 90.00000

_symmetry_space_group_name_	'P 1'
_symmetry_space_group_name_H-M	'P 1'

loop_
_symmetry_equiv_pos_as_xyz
  x,y,z

loop_
_atom_site_label
_atom_site_type_symbol
_atom_site_fract_x
_atom_site_fract_y
_atom_site_fract_z
_atom_site_charge
Se	Se	0.24531 0.10289 0.93130 0.03400
C 	C 	0.22730 0.97520 0.93990 0.04300
N 	N 	0.17540 0.68530 0.85900 -0.24100
N 	N 	0.32260 0.75270 0.93450 -0.25100
N 	N 	0.21860 0.89180 0.94340 -0.24000
C 	C 	0.19540 0.60810 0.82410 -0.08400
H 	H 	0.23990 0.58410 0.86100 0.04400
C 	C 	0.15460 0.56190 0.73700 0.01200
H 	H 	0.17070 0.50750 0.71430 0.02100
C 	C 	0.07020 0.67810 0.71440 0.07100
H 	H 	0.02720 0.70670 0.67690 -0.00300
C 	C 	0.11480 0.72110 0.80390 -0.13700
H 	H 	0.10080 0.77830 0.82580 0.05800
C 	C 	0.08770 0.59720 0.68130 0.12900
C 	C 	0.04260 0.54770 0.58790 -0.04100
C 	C 	0.06730 0.51560 0.52140 -0.04600
H 	H 	0.11290 0.52780 0.53550 0.04000
C 	C 	0.97400 0.53370 0.56490 -0.04900
H 	H 	0.95620 0.55780 0.60790 0.04400
C 	C 	0.43130 0.76040 0.69370 -0.03600
H 	H 	0.38410 0.76100 0.65360 0.03400
C 	C 	0.52490 0.76160 0.85040 -0.03100
H 	H 	0.54310 0.76450 0.92050 0.04200
C 	C 	0.45650 0.75860 0.79590 -0.05200
C 	C 	0.30400 0.79710 0.84420 0.00900
H 	H 	0.26110 0.82750 0.81290 0.01600
C 	C 	0.34580 0.79890 0.79730 -0.09700
H 	H 	0.33080 0.82850 0.73400 0.05700
C 	C 	0.42710 0.71610 0.93440 -0.00700
H 	H 	0.47040 0.68800 0.96950 0.03500
C 	C 	0.38270 0.71500 0.97590 -0.00700
H 	H 	0.39680 0.68490 0.03870 -0.01000
C 	C 	0.40990 0.75710 0.84330 0.17300
C 	C 	0.14540 0.59440 0.85770 0.14300
H 	H 	0.15550 0.56230 0.91860 -0.02500
C 	C 	0.10220 0.55090 0.77150 -0.20300
H 	H 	0.08200 0.48980 0.77270 0.09800
C 	C 	0.11860 0.68200 0.68820 -0.29800
H 	H 	0.11010 0.71640 0.62890 0.12200
C 	C 	0.16090 0.72200 0.77390 0.26600
H 	H 	0.18190 0.78200 0.77160 -0.07900
C 	C 	0.37420 0.81100 0.95800 0.22500
H 	H 	0.38320 0.85530 0.01070 -0.08500
C 	C 	0.41620 0.81400 0.91400 -0.26000
H 	H 	0.45160 0.86120 0.93610 0.13200
C 	C 	0.37400 0.66700 0.83600 -0.15200
H 	H 	0.38050 0.60980 0.80510 0.07800
C 	C 	0.32680 0.66900 0.88100 0.06400
H 	H 	0.29870 0.61390 0.87370 -0.00800
C 	C 	0.21580 0.96350 0.90330 0.01400
Se	Se	0.21290 0.07820 0.84820 -0.01400
Se	Se	0.74531 0.60289 0.93130 0.03600
C 	C 	0.72730 0.47520 0.93990 0.04200
N 	N 	0.67540 0.18530 0.85900 -0.24100
N 	N 	0.82260 0.25270 0.93450 -0.25000
N 	N 	0.71860 0.39180 0.94340 -0.23800
C 	C 	0.69540 0.10810 0.82410 -0.10800
H 	H 	0.73990 0.08410 0.86100 0.05400
C 	C 	0.65460 0.06190 0.73700 0.03600
H 	H 	0.67070 0.00750 0.71430 0.01300
C 	C 	0.57020 0.17810 0.71440 0.10200
H 	H 	0.52720 0.20670 0.67690 -0.01300
C 	C 	0.61480 0.22110 0.80390 -0.16800
H 	H 	0.60080 0.27830 0.82580 0.06900
C 	C 	0.58770 0.09720 0.68130 0.13000
C 	C 	0.54260 0.04770 0.58790 -0.03700
C 	C 	0.56730 0.01560 0.52140 -0.05500
H 	H 	0.61290 0.02780 0.53550 0.04200
C 	C 	0.47400 0.03370 0.56490 -0.05900
H 	H 	0.45620 0.05780 0.60790 0.04600
C 	C 	0.93130 0.26040 0.69370 -0.03800
H 	H 	0.88410 0.26100 0.65360 0.03500
C 	C 	0.02490 0.26160 0.85040 -0.03300
H 	H 	0.04310 0.26450 0.92050 0.04200
C 	C 	0.95650 0.25860 0.79590 -0.05100
C 	C 	0.80400 0.29710 0.84420 0.00600
H 	H 	0.76110 0.32750 0.81290 0.01700
C 	C 	0.84580 0.29890 0.79730 -0.09500
H 	H 	0.83080 0.32850 0.73400 0.05600
C 	C 	0.92710 0.21610 0.93440 -0.00200
H 	H 	0.97040 0.18800 0.96950 0.03400
C 	C 	0.88270 0.21500 0.97590 -0.01200
H 	H 	0.89680 0.18490 0.03870 -0.00900
C 	C 	0.90990 0.25710 0.84330 0.17400
C 	C 	0.64540 0.09440 0.85770 0.16700
H 	H 	0.65550 0.06230 0.91860 -0.03400
C 	C 	0.60220 0.05090 0.77150 -0.23000
H 	H 	0.58200 0.98980 0.77270 0.10900
C 	C 	0.61860 0.18200 0.68820 -0.33300
H 	H 	0.61010 0.21640 0.62890 0.13300
C 	C 	0.66090 0.22200 0.77390 0.30300
H 	H 	0.68190 0.28200 0.77160 -0.09100
C 	C 	0.87420 0.31100 0.95800 0.23200
H 	H 	0.88320 0.35530 0.01070 -0.08800
C 	C 	0.91620 0.31400 0.91400 -0.26600
H 	H 	0.95160 0.36120 0.93610 0.13400
C 	C 	0.87400 0.16700 0.83600 -0.15500
H 	H 	0.88050 0.10980 0.80510 0.07900
C 	C 	0.82680 0.16900 0.88100 0.06800
H 	H 	0.79870 0.11390 0.87370 -0.01100
C 	C 	0.71580 0.46350 0.90330 0.01400
Se	Se	0.71290 0.57820 0.84820 -0.01300
Se	Se	0.75469 0.10289 0.56870 -0.01900
C 	C 	0.77270 0.97520 0.56010 0.04700
N 	N 	0.82460 0.68530 0.64100 -0.25500
N 	N 	0.67740 0.75270 0.56550 -0.24300
N 	N 	0.78140 0.89180 0.55660 -0.25100
C 	C 	0.80460 0.60810 0.67590 -0.14300
H 	H 	0.76010 0.58410 0.63900 0.06200
C 	C 	0.84540 0.56190 0.76300 0.05600
H 	H 	0.82930 0.50750 0.78570 0.00800
C 	C 	0.92980 0.67810 0.78560 0.13900
H 	H 	0.97280 0.70670 0.82310 -0.02100
C 	C 	0.88520 0.72110 0.69610 -0.21800
H 	H 	0.89920 0.77830 0.67420 0.08500
C 	C 	0.91230 0.59720 0.81870 0.18800
C 	C 	0.95740 0.54770 0.91210 -0.12800
C 	C 	0.93270 0.51560 0.97860 0.08800
H 	H 	0.88710 0.52780 0.96450 0.00600
C 	C 	0.02600 0.53370 0.93510 0.08100
H 	H 	0.04380 0.55780 0.89210 0.00300
C 	C 	0.56870 0.76040 0.80630 -0.04300
H 	H 	0.61590 0.76100 0.84640 0.04300
C 	C 	0.47510 0.76160 0.64960 -0.03900
H 	H 	0.45690 0.76450 0.57950 0.03500
C 	C 	0.54350 0.75860 0.70410 -0.04200
C 	C 	0.69600 0.79710 0.65580 -0.00700
H 	H 	0.73890 0.82750 0.68710 0.02200
C 	C 	0.65420 0.79890 0.70270 -0.07700
H 	H 	0.66920 0.82850 0.76600 0.05300
C 	C 	0.57290 0.71610 0.56560 0.05100
H 	H 	0.52960 0.68800 0.53050 0.00400
C 	C 	0.61730 0.71500 0.52410 -0.10400
H 	H 	0.60320 0.68490 0.46130 0.04500
C 	C 	0.59010 0.75710 0.65670 0.15300
C 	C 	0.85460 0.59440 0.64230 0.21200
H 	H 	0.84450 0.56230 0.58140 -0.06000
C 	C 	0.89780 0.55090 0.72850 -0.28200
H 	H 	0.91800 0.48980 0.72730 0.12300
C 	C 	0.88140 0.68200 0.81180 -0.41800
H 	H 	0.88990 0.71640 0.87110 0.17000
C 	C 	0.83910 0.72200 0.72610 0.38200
H 	H 	0.81810 0.78200 0.72840 -0.11700
C 	C 	0.62580 0.81100 0.54200 0.20400
H 	H 	0.61680 0.85530 0.48930 -0.05500
C 	C 	0.58380 0.81400 0.58600 -0.26500
H 	H 	0.54840 0.86120 0.56390 0.12500
C 	C 	0.62600 0.66700 0.66400 -0.17100
H 	H 	0.61950 0.60980 0.69490 0.08500
C 	C 	0.67320 0.66900 0.61900 0.09400
H 	H 	0.70130 0.61390 0.62630 -0.02700
C 	C 	0.78420 0.96350 0.59670 0.00500
Se	Se	0.78710 0.07820 0.65180 0.01700
Se	Se	0.25469 0.60289 0.56870 -0.01700
C 	C 	0.27270 0.47520 0.56010 0.04600
N 	N 	0.32460 0.18530 0.64100 -0.25500
N 	N 	0.17740 0.25270 0.56550 -0.24300
N 	N 	0.28140 0.39180 0.55660 -0.25000
C 	C 	0.30460 0.10810 0.67590 -0.17000
H 	H 	0.26010 0.08410 0.63900 0.07100
C 	C 	0.34540 0.06190 0.76300 0.08000
H 	H 	0.32930 0.00750 0.78570 -0.00200
C 	C 	0.42980 0.17810 0.78560 0.17000
H 	H 	0.47280 0.20670 0.82310 -0.03200
C 	C 	0.38520 0.22110 0.69610 -0.25100
H 	H 	0.39920 0.27830 0.67420 0.09600
C 	C 	0.41230 0.09720 0.81870 0.19100
C 	C 	0.45740 0.04770 0.91210 -0.12700
C 	C 	0.43270 0.01560 0.97860 0.08200
H 	H 	0.38710 0.02780 0.96450 0.00700
C 	C 	0.52600 0.03370 0.93510 0.07600
H 	H 	0.54380 0.05780 0.89210 0.00400
C 	C 	0.06870 0.26040 0.80630 -0.04100
H 	H 	0.11590 0.26100 0.84640 0.04200
C 	C 	0.97510 0.26160 0.64960 -0.03700
H 	H 	0.95690 0.26450 0.57950 0.03400
C 	C 	0.04350 0.25860 0.70410 -0.04400
C 	C 	0.19600 0.29710 0.65580 -0.00800
H 	H 	0.23890 0.32750 0.68710 0.02300
C 	C 	0.15420 0.29890 0.70270 -0.07700
H 	H 	0.16920 0.32850 0.76600 0.05300
C 	C 	0.07290 0.21610 0.56560 0.05400
H 	H 	0.02960 0.18800 0.53050 0.00200
C 	C 	0.11730 0.21500 0.52410 -0.10700
H 	H 	0.10320 0.18490 0.46130 0.04500
C 	C 	0.09010 0.25710 0.65670 0.15400
C 	C 	0.35460 0.09440 0.64230 0.23800
H 	H 	0.34450 0.06230 0.58140 -0.06900
C 	C 	0.39780 0.05090 0.72850 -0.31100
H 	H 	0.41800 0.98980 0.72730 0.13400
C 	C 	0.38140 0.18200 0.81180 -0.45500
H 	H 	0.38990 0.21640 0.87110 0.18200
C 	C 	0.33910 0.22200 0.72610 0.42100
H 	H 	0.31810 0.28200 0.72840 -0.13100
C 	C 	0.12580 0.31100 0.54200 0.20700
H 	H 	0.11680 0.35530 0.48930 -0.05600
C 	C 	0.08380 0.31400 0.58600 -0.26800
H 	H 	0.04840 0.36120 0.56390 0.12500
C 	C 	0.12600 0.16700 0.66400 -0.17300
H 	H 	0.11950 0.10980 0.69490 0.08500
C 	C 	0.17320 0.16900 0.61900 0.09700
H 	H 	0.20130 0.11390 0.62630 -0.02900
C 	C 	0.28420 0.46350 0.59670 0.00300
Se	Se	0.28710 0.57820 0.65180 0.01900
Se	Se	0.75469 0.89711 0.06870 -0.06000
C 	C 	0.77270 0.02480 0.06010 0.04300
N 	N 	0.82460 0.31470 0.14100 -0.25100
N 	N 	0.67740 0.24730 0.06550 -0.23100
N 	N 	0.78140 0.10820 0.05660 -0.25700
C 	C 	0.80460 0.39190 0.17590 -0.13200
H 	H 	0.76010 0.41590 0.13900 0.05300
C 	C 	0.84540 0.43810 0.26300 0.05300
H 	H 	0.82930 0.49250 0.28570 0.00600
C 	C 	0.92980 0.32190 0.28560 0.12800
H 	H 	0.97280 0.29330 0.32310 -0.02200
C 	C 	0.88520 0.27890 0.19610 -0.20000
H 	H 	0.89920 0.22170 0.17420 0.07500
C 	C 	0.91230 0.40280 0.31870 0.13800
C 	C 	0.95740 0.45230 0.41210 -0.04500
C 	C 	0.93270 0.48440 0.47860 -0.04300
H 	H 	0.88710 0.47220 0.46450 0.04000
C 	C 	0.02600 0.46630 0.43510 -0.04800
H 	H 	0.04380 0.44220 0.39210 0.04300
C 	C 	0.56870 0.23960 0.30630 -0.04800
H 	H 	0.61590 0.23900 0.34640 0.03900
C 	C 	0.47510 0.23840 0.14960 -0.04300
H 	H 	0.45690 0.23550 0.07950 0.02600
C 	C 	0.54350 0.24140 0.20410 -0.03400
C 	C 	0.69600 0.20290 0.15580 -0.01200
H 	H 	0.73890 0.17250 0.18710 0.01900
C 	C 	0.65420 0.20110 0.20270 -0.06500
H 	H 	0.66920 0.17150 0.26600 0.04500
C 	C 	0.57290 0.28390 0.06560 0.08800
H 	H 	0.52960 0.31200 0.03050 -0.02000
C 	C 	0.61730 0.28500 0.02410 -0.17600
H 	H 	0.60320 0.31510 0.96130 0.09100
C 	C 	0.59010 0.24290 0.15670 0.12900
C 	C 	0.85460 0.40560 0.14230 0.18800
H 	H 	0.84450 0.43770 0.08140 -0.06200
C 	C 	0.89780 0.44910 0.22850 -0.25100
H 	H 	0.91800 0.51020 0.22730 0.11000
C 	C 	0.88140 0.31800 0.31180 -0.37000
H 	H 	0.88990 0.28360 0.37110 0.14500
C 	C 	0.83910 0.27800 0.22610 0.34300
H 	H 	0.81810 0.21800 0.22840 -0.10700
C 	C 	0.62580 0.18900 0.04200 0.15600
H 	H 	0.61680 0.14470 0.98930 -0.01300
C 	C 	0.58380 0.18600 0.08600 -0.24500
H 	H 	0.54840 0.13880 0.06390 0.10700
C 	C 	0.62600 0.33300 0.16400 -0.17700
H 	H 	0.61950 0.39020 0.19490 0.08200
C 	C 	0.67320 0.33100 0.11900 0.10800
H 	H 	0.70130 0.38610 0.12630 -0.03700
C 	C 	0.78420 0.03650 0.09670 -0.00700
Se	Se	0.78710 0.92180 0.15180 0.04300
Se	Se	0.25469 0.39711 0.06870 -0.06200
C 	C 	0.27270 0.52480 0.06010 0.04500
N 	N 	0.32460 0.81470 0.14100 -0.25000
N 	N 	0.17740 0.74730 0.06550 -0.23100
N 	N 	0.28140 0.60820 0.05660 -0.25700
C 	C 	0.30460 0.89190 0.17590 -0.09600
H 	H 	0.26010 0.91590 0.13900 0.04000
C 	C 	0.34540 0.93810 0.26300 0.02000
H 	H 	0.32930 0.99250 0.28570 0.01800
C 	C 	0.42980 0.82190 0.28560 0.08500
H 	H 	0.47280 0.79330 0.32310 -0.00700
C 	C 	0.38520 0.77890 0.19610 -0.15500
H 	H 	0.39920 0.72170 0.17420 0.06100
C 	C 	0.41230 0.90280 0.31870 0.13500
C 	C 	0.45740 0.95230 0.41210 -0.04800
C 	C 	0.43270 0.98440 0.47860 -0.03500
H 	H 	0.38710 0.97220 0.46450 0.03800
C 	C 	0.52600 0.96630 0.43510 -0.03900
H 	H 	0.54380 0.94220 0.39210 0.04100
C 	C 	0.06870 0.73960 0.30630 -0.04600
H 	H 	0.11590 0.73900 0.34640 0.03800
C 	C 	0.97510 0.73840 0.14960 -0.04000
H 	H 	0.95690 0.73550 0.07950 0.02600
C 	C 	0.04350 0.74140 0.20410 -0.03600
C 	C 	0.19600 0.70290 0.15580 -0.00800
H 	H 	0.23890 0.67250 0.18710 0.01800
C 	C 	0.15420 0.70110 0.20270 -0.06800
H 	H 	0.16920 0.67150 0.26600 0.04700
C 	C 	0.07290 0.78390 0.06560 0.07900
H 	H 	0.02960 0.81200 0.03050 -0.01700
C 	C 	0.11730 0.78500 0.02410 -0.16400
H 	H 	0.10320 0.81510 0.96130 0.08700
C 	C 	0.09010 0.74290 0.15670 0.12900
C 	C 	0.35460 0.90560 0.14230 0.15300
H 	H 	0.34450 0.93770 0.08140 -0.04900
C 	C 	0.39780 0.94910 0.22850 -0.21300
H 	H 	0.41800 0.01020 0.22730 0.09400
C 	C 	0.38140 0.81800 0.31180 -0.32000
H 	H 	0.38990 0.78360 0.37110 0.12900
C 	C 	0.33910 0.77800 0.22610 0.29000
H 	H 	0.31810 0.71800 0.22840 -0.08900
C 	C 	0.12580 0.68900 0.04200 0.14900
H 	H 	0.11680 0.64470 0.98930 -0.01100
C 	C 	0.08380 0.68600 0.08600 -0.23800
H 	H 	0.04840 0.63880 0.06390 0.10600
C 	C 	0.12600 0.83300 0.16400 -0.17300
H 	H 	0.11950 0.89020 0.19490 0.08100
C 	C 	0.17320 0.83100 0.11900 0.10100
H 	H 	0.20130 0.88610 0.12630 -0.03300
C 	C 	0.28420 0.53650 0.09670 -0.00500
Se	Se	0.28710 0.42180 0.15180 0.04100
Se	Se	0.24531 0.89711 0.43130 -0.00800
C 	C 	0.22730 0.02480 0.43990 0.04100
N 	N 	0.17540 0.31470 0.35900 -0.24100
N 	N 	0.32260 0.24730 0.43450 -0.24200
N 	N 	0.21860 0.10820 0.44340 -0.25000
C 	C 	0.19540 0.39190 0.32410 -0.07400
H 	H 	0.23990 0.41590 0.36100 0.03600
C 	C 	0.15460 0.43810 0.23700 0.01200
H 	H 	0.17070 0.49250 0.21430 0.02000
C 	C 	0.07020 0.32190 0.21440 0.06400
H 	H 	0.02720 0.29330 0.17690 -0.00500
C 	C 	0.11480 0.27890 0.30390 -0.12000
H 	H 	0.10080 0.22170 0.32580 0.04900
C 	C 	0.08770 0.40280 0.18130 0.08000
C 	C 	0.04260 0.45230 0.08790 0.04200
C 	C 	0.06730 0.48440 0.02140 -0.17700
H 	H 	0.11290 0.47220 0.03550 0.07400
C 	C 	0.97400 0.46630 0.06490 -0.17900
H 	H 	0.95620 0.44220 0.10790 0.08300
C 	C 	0.43130 0.23960 0.19370 -0.04000
H 	H 	0.38410 0.23900 0.15360 0.03000
C 	C 	0.52490 0.23840 0.35040 -0.03300
H 	H 	0.54310 0.23550 0.42050 0.03300
C 	C 	0.45650 0.24140 0.29590 -0.04700
C 	C 	0.30400 0.20290 0.34420 0.00000
H 	H 	0.26110 0.17250 0.31290 0.01300
C 	C 	0.34580 0.20110 0.29730 -0.08300
H 	H 	0.33080 0.17150 0.23400 0.04800
C 	C 	0.42710 0.28390 0.43440 0.03600
H 	H 	0.47040 0.31200 0.46950 0.00900
C 	C 	0.38270 0.28500 0.47590 -0.08500
H 	H 	0.39680 0.31510 0.53870 0.03700
C 	C 	0.40990 0.24290 0.34330 0.15200
C 	C 	0.14540 0.40560 0.35770 0.12100
H 	H 	0.15550 0.43770 0.41860 -0.02900
C 	C 	0.10220 0.44910 0.27150 -0.17400
H 	H 	0.08200 0.51020 0.27270 0.08600
C 	C 	0.11860 0.31800 0.18820 -0.25400
H 	H 	0.11010 0.28360 0.12890 0.09900
C 	C 	0.16090 0.27800 0.27390 0.23100
H 	H 	0.18190 0.21800 0.27160 -0.07100
C 	C 	0.37420 0.18900 0.45800 0.18700
H 	H 	0.38320 0.14470 0.51070 -0.04800
C 	C 	0.41620 0.18600 0.41400 -0.25000
H 	H 	0.45160 0.13880 0.43610 0.11900
C 	C 	0.37400 0.33300 0.33600 -0.16300
H 	H 	0.38050 0.39020 0.30510 0.07800
C 	C 	0.32680 0.33100 0.38100 0.08100
H 	H 	0.29870 0.38610 0.37370 -0.02100
C 	C 	0.21580 0.03650 0.40330 0.00400
Se	Se	0.21290 0.92180 0.34820 0.01200
Se	Se	0.74531 0.39711 0.43130 -0.01000
C 	C 	0.72730 0.52480 0.43990 0.04200
N 	N 	0.67540 0.81470 0.35900 -0.24000
N 	N 	0.82260 0.74730 0.43450 -0.24200
N 	N 	0.71860 0.60820 0.44340 -0.25100
C 	C 	0.69540 0.89190 0.32410 -0.03900
H 	H 	0.73990 0.91590 0.36100 0.02400
C 	C 	0.65460 0.93810 0.23700 -0.02000
H 	H 	0.67070 0.99250 0.21430 0.03200
C 	C 	0.57020 0.82190 0.21440 0.02200
H 	H 	0.52720 0.79330 0.17690 0.01000
C 	C 	0.61480 0.77890 0.30390 -0.07700
H 	H 	0.60080 0.72170 0.32580 0.03400
C 	C 	0.58770 0.90280 0.18130 0.07500
C 	C 	0.54260 0.95230 0.08790 0.04200
C 	C 	0.56730 0.98440 0.02140 -0.17000
H 	H 	0.61290 0.97220 0.03550 0.07300
C 	C 	0.47400 0.96630 0.06490 -0.17300
H 	H 	0.45620 0.94220 0.10790 0.08200
C 	C 	0.93130 0.73960 0.19370 -0.04200
H 	H 	0.88410 0.73900 0.15360 0.03100
C 	C 	0.02490 0.73840 0.35040 -0.03600
H 	H 	0.04310 0.73550 0.42050 0.03400
C 	C 	0.95650 0.74140 0.29590 -0.04400
C 	C 	0.80400 0.70290 0.34420 0.00300
H 	H 	0.76110 0.67250 0.31290 0.01200
C 	C 	0.84580 0.70110 0.29730 -0.08400
H 	H 	0.83080 0.67150 0.23400 0.04900
C 	C 	0.92710 0.78390 0.43440 0.03200
H 	H 	0.97040 0.81200 0.46950 0.01100
C 	C 	0.88270 0.78500 0.47590 -0.08000
H 	H 	0.89680 0.81510 0.53870 0.03600
C 	C 	0.90990 0.74290 0.34330 0.15000
C 	C 	0.64540 0.90560 0.35770 0.08700
H 	H 	0.65550 0.93770 0.41860 -0.01700
C 	C 	0.60220 0.94910 0.27150 -0.13700
H 	H 	0.58200 0.01020 0.27270 0.07100
C 	C 	0.61860 0.81800 0.18820 -0.20500
H 	H 	0.61010 0.78360 0.12890 0.08300
C 	C 	0.66090 0.77800 0.27390 0.18000
H 	H 	0.68190 0.71800 0.27160 -0.05300
C 	C 	0.87420 0.68900 0.45800 0.18200
H 	H 	0.88320 0.64470 0.51070 -0.04700
C 	C 	0.91620 0.68600 0.41400 -0.24500
H 	H 	0.95160 0.63880 0.43610 0.11700
C 	C 	0.87400 0.83300 0.33600 -0.15900
H 	H 	0.88050 0.89020 0.30510 0.07700
C 	C 	0.82680 0.83100 0.38100 0.07700
H 	H 	0.79870 0.88610 0.37370 -0.01700
C 	C 	0.71580 0.53650 0.40330 0.00600
Se	Se	0.71290 0.42180 0.34820 0.01000
Fe	Fe	0.25000 0.75000 -0.00000 1.10000
Fe	Fe	0.75000 0.75000 0.50000 1.11900
Fe	Fe	0.75000 0.25000 -0.00000 1.10000
Fe	Fe	0.25000 0.25000 0.50000 1.11900
