data_crystal

_cell_length_a 10.45400
_cell_length_b 10.45400
_cell_length_c 33.38300
_cell_angle_alpha 90.00000
_cell_angle_beta  90.00000
_cell_angle_gamma 120.00000

_symmetry_space_group_name_	'P 1'
_symmetry_space_group_name_H-M	'P 1'

loop_
_symmetry_equiv_pos_as_xyz
  x,y,z

loop_
_atom_site_label
_atom_site_type_symbol
_atom_site_fract_x
_atom_site_fract_y
_atom_site_fract_z
_atom_site_charge
S 	S 	0.47495 0.22891 0.87658 -0.42800
O 	O 	0.15032 0.17486 0.94153 -0.36200
O 	O 	0.31024 0.15470 0.98036 -0.33700
N 	N 	0.55080 0.40050 0.95109 -0.33200
H 	H 	0.53860 0.36140 0.97640 0.11300
H 	H 	0.60520 0.50160 0.95340 0.12300
C 	C 	0.40340 0.35110 0.88923 -0.05900
H 	H 	0.46710 0.45040 0.87760 0.04400
H 	H 	0.30210 0.31110 0.87860 0.06000
C 	C 	0.40280 0.35990 0.93481 -0.09000
H 	H 	0.38270 0.44110 0.94200 0.06600
C 	C 	0.28070 0.21780 0.95342 0.31000
S 	S 	0.14162 0.56224 0.20991 -0.42200
O 	O 	0.81699 0.50819 0.27486 -0.33500
O 	O 	0.97691 0.48803 0.31369 -0.30600
N 	N 	0.21747 0.73383 0.28442 -0.33300
H 	H 	0.20527 0.69473 0.30973 0.09900
H 	H 	0.27187 0.83493 0.28673 0.13500
C 	C 	0.07007 0.68443 0.22256 -0.18900
H 	H 	0.13377 0.78373 0.21093 0.07900
H 	H 	0.96877 0.64443 0.21193 0.16100
C 	C 	0.06947 0.69323 0.26814 -0.11000
H 	H 	0.04937 0.77443 0.27533 0.05800
C 	C 	0.94737 0.55113 0.28675 0.35900
S 	S 	0.80828 0.89558 0.54324 -0.24300
O 	O 	0.48365 0.84153 0.60820 -0.33000
O 	O 	0.64357 0.82137 0.64703 -0.32200
N 	N 	0.88413 0.06717 0.61776 -0.33100
H 	H 	0.87193 0.02807 0.64307 0.09900
H 	H 	0.93853 0.16827 0.62007 0.14900
C 	C 	0.73673 0.01777 0.55590 -0.29500
H 	H 	0.80043 0.11707 0.54427 0.11600
H 	H 	0.63543 0.97777 0.54527 0.19100
C 	C 	0.73613 0.02657 0.60148 -0.08300
H 	H 	0.71603 0.10777 0.60867 0.05100
C 	C 	0.61403 0.88447 0.62009 0.34500
S 	S 	0.77109 0.24604 0.87658 -0.38100
O 	O 	0.82514 0.97546 0.94153 -0.22100
O 	O 	0.84530 0.15554 0.98036 -0.27900
N 	N 	0.59950 0.15030 0.95109 -0.32500
H 	H 	0.63860 0.17720 0.97640 0.10500
H 	H 	0.49840 0.10360 0.95340 0.10200
C 	C 	0.64890 0.05230 0.88923 -0.17800
H 	H 	0.54960 0.01670 0.87760 0.05200
H 	H 	0.68890 0.99100 0.87860 0.16000
C 	C 	0.64010 0.04290 0.93481 -0.12100
H 	H 	0.55890 0.94160 0.94200 0.12100
C 	C 	0.78220 0.06290 0.95342 0.21900
S 	S 	0.43776 0.57937 0.20991 -0.40300
O 	O 	0.49181 0.30879 0.27486 -0.34100
O 	O 	0.51197 0.48887 0.31369 -0.32800
N 	N 	0.26617 0.48363 0.28442 -0.32900
H 	H 	0.30527 0.51053 0.30973 0.10300
H 	H 	0.16507 0.43693 0.28673 0.09700
C 	C 	0.31557 0.38563 0.22256 -0.06400
H 	H 	0.21627 0.35003 0.21093 0.02700
H 	H 	0.35557 0.32433 0.21193 0.06400
C 	C 	0.30677 0.37623 0.26814 -0.08500
H 	H 	0.22557 0.27493 0.27533 0.04300
C 	C 	0.44887 0.39623 0.28675 0.30000
S 	S 	0.10442 0.91271 0.54324 -0.40600
O 	O 	0.15847 0.64213 0.60820 -0.33300
O 	O 	0.17863 0.82221 0.64703 -0.31000
N 	N 	0.93283 0.81697 0.61776 -0.31800
H 	H 	0.97193 0.84387 0.64307 0.15000
H 	H 	0.83173 0.77027 0.62007 0.12500
C 	C 	0.98223 0.71897 0.55590 0.11100
H 	H 	0.88293 0.68337 0.54427 -0.00000
H 	H 	0.02223 0.65767 0.54527 -0.02600
C 	C 	0.97343 0.70957 0.60148 -0.05300
H 	H 	0.89223 0.60827 0.60867 0.06800
C 	C 	0.11553 0.72957 0.62009 0.24700
S 	S 	0.75396 0.52505 0.87658 -0.40500
O 	O 	0.02454 0.84968 0.94153 -0.35200
O 	O 	0.84446 0.68976 0.98036 -0.30900
N 	N 	0.84970 0.44920 0.95109 -0.34700
H 	H 	0.82280 0.46140 0.97640 0.12100
H 	H 	0.89640 0.39480 0.95340 0.14000
C 	C 	0.94770 0.59660 0.88923 0.01900
H 	H 	0.98330 0.53290 0.87760 0.04300
H 	H 	0.00900 0.69790 0.87860 0.01300
C 	C 	0.95710 0.59720 0.93481 -0.02700
H 	H 	0.05840 0.61730 0.94200 0.00800
C 	C 	0.93710 0.71930 0.95342 0.36400
S 	S 	0.42063 0.85838 0.20991 -0.39200
O 	O 	0.69121 0.18301 0.27486 -0.32300
O 	O 	0.51113 0.02309 0.31369 -0.35400
N 	N 	0.51637 0.78253 0.28442 -0.33900
H 	H 	0.48947 0.79473 0.30973 0.12300
H 	H 	0.56307 0.72813 0.28673 0.12300
C 	C 	0.61437 0.92993 0.22256 0.03900
H 	H 	0.64997 0.86623 0.21093 0.03100
H 	H 	0.67567 0.03123 0.21193 0.00600
C 	C 	0.62377 0.93053 0.26814 -0.05000
H 	H 	0.72507 0.95063 0.27533 0.08500
C 	C 	0.60377 0.05263 0.28675 0.24000
S 	S 	0.08729 0.19172 0.54324 -0.48300
O 	O 	0.35787 0.51635 0.60820 -0.33800
O 	O 	0.17779 0.35643 0.64703 -0.35400
N 	N 	0.18303 0.11587 0.61776 -0.32900
H 	H 	0.15613 0.12807 0.64307 0.07800
H 	H 	0.22973 0.06147 0.62007 0.08400
C 	C 	0.28103 0.26327 0.55590 -0.04200
H 	H 	0.31663 0.19957 0.54427 0.02700
H 	H 	0.34233 0.36457 0.54527 0.06800
C 	C 	0.29043 0.26387 0.60148 -0.10100
H 	H 	0.39173 0.28397 0.60867 0.06400
C 	C 	0.27043 0.38597 0.62009 0.30700
S 	S 	0.22891 0.47495 0.12343 -0.43000
O 	O 	0.17486 0.15032 0.05847 -0.37000
O 	O 	0.15470 0.31024 0.01964 -0.35400
N 	N 	0.40050 0.55080 0.04891 -0.33100
H 	H 	0.36140 0.53860 0.02360 0.10400
H 	H 	0.50160 0.60520 0.04660 0.11700
C 	C 	0.35110 0.40340 0.11077 -0.05900
H 	H 	0.45040 0.46710 0.12240 0.04300
H 	H 	0.31110 0.30210 0.12140 0.05900
C 	C 	0.35990 0.40280 0.06519 -0.09200
H 	H 	0.44110 0.38270 0.05800 0.06100
C 	C 	0.21780 0.28070 0.04658 0.30900
S 	S 	0.89558 0.80828 0.45676 -0.24300
O 	O 	0.84153 0.48365 0.39180 -0.33000
O 	O 	0.82137 0.64357 0.35297 -0.32200
N 	N 	0.06717 0.88413 0.38224 -0.33100
H 	H 	0.02807 0.87193 0.35693 0.09900
H 	H 	0.16827 0.93853 0.37993 0.14900
C 	C 	0.01777 0.73673 0.44410 -0.29400
H 	H 	0.11707 0.80043 0.45573 0.11600
H 	H 	0.97777 0.63543 0.45473 0.19000
C 	C 	0.02657 0.73613 0.39852 -0.08300
H 	H 	0.10777 0.71603 0.39133 0.05100
C 	C 	0.88447 0.61403 0.37991 0.34500
S 	S 	0.56224 0.14162 0.79009 -0.42200
O 	O 	0.50819 0.81699 0.72514 -0.33500
O 	O 	0.48803 0.97691 0.68631 -0.30600
N 	N 	0.73383 0.21747 0.71558 -0.33300
H 	H 	0.69473 0.20527 0.69027 0.09900
H 	H 	0.83493 0.27187 0.71327 0.13500
C 	C 	0.68443 0.07007 0.77744 -0.18900
H 	H 	0.78373 0.13377 0.78907 0.07900
H 	H 	0.64443 0.96877 0.78807 0.16100
C 	C 	0.69323 0.06947 0.73186 -0.11000
H 	H 	0.77443 0.04937 0.72467 0.05800
C 	C 	0.55113 0.94737 0.71325 0.35900
S 	S 	0.24604 0.77109 0.12343 -0.38100
O 	O 	0.97546 0.82514 0.05847 -0.22700
O 	O 	0.15554 0.84530 0.01964 -0.29400
N 	N 	0.15030 0.59950 0.04891 -0.32200
H 	H 	0.17720 0.63860 0.02360 0.09700
H 	H 	0.10360 0.49840 0.04660 0.09800
C 	C 	0.05230 0.64890 0.11077 -0.17700
H 	H 	0.01670 0.54960 0.12240 0.05100
H 	H 	0.99100 0.68890 0.12140 0.16000
C 	C 	0.04290 0.64010 0.06519 -0.12300
H 	H 	0.94160 0.55890 0.05800 0.11600
C 	C 	0.06290 0.78220 0.04658 0.21900
S 	S 	0.91271 0.10442 0.45676 -0.40700
O 	O 	0.64213 0.15847 0.39180 -0.33300
O 	O 	0.82221 0.17863 0.35297 -0.31000
N 	N 	0.81697 0.93283 0.38224 -0.31800
H 	H 	0.84387 0.97193 0.35693 0.15000
H 	H 	0.77027 0.83173 0.37993 0.12500
C 	C 	0.71897 0.98223 0.44410 0.11200
H 	H 	0.68337 0.88293 0.45573 -0.00100
H 	H 	0.65767 0.02223 0.45473 -0.02700
C 	C 	0.70957 0.97343 0.39852 -0.05300
H 	H 	0.60827 0.89223 0.39133 0.06800
C 	C 	0.72957 0.11553 0.37991 0.24600
S 	S 	0.57937 0.43776 0.79009 -0.40300
O 	O 	0.30879 0.49181 0.72514 -0.34100
O 	O 	0.48887 0.51197 0.68631 -0.32800
N 	N 	0.48363 0.26617 0.71558 -0.32900
H 	H 	0.51053 0.30527 0.69027 0.10300
H 	H 	0.43693 0.16507 0.71327 0.09700
C 	C 	0.38563 0.31557 0.77744 -0.06400
H 	H 	0.35003 0.21627 0.78907 0.02700
H 	H 	0.32433 0.35557 0.78807 0.06400
C 	C 	0.37623 0.30677 0.73186 -0.08500
H 	H 	0.27493 0.22557 0.72467 0.04300
C 	C 	0.39623 0.44887 0.71325 0.30000
S 	S 	0.52505 0.75396 0.12343 -0.40500
O 	O 	0.84968 0.02454 0.05847 -0.36000
O 	O 	0.68976 0.84446 0.01964 -0.32400
N 	N 	0.44920 0.84970 0.04891 -0.34500
H 	H 	0.46140 0.82280 0.02360 0.11300
H 	H 	0.39480 0.89640 0.04660 0.13500
C 	C 	0.59660 0.94770 0.11077 0.02200
H 	H 	0.53290 0.98330 0.12240 0.04300
H 	H 	0.69790 0.00900 0.12140 0.01100
C 	C 	0.59720 0.95710 0.06519 -0.02800
H 	H 	0.61730 0.05840 0.05800 0.00200
C 	C 	0.71930 0.93710 0.04658 0.36400
S 	S 	0.19172 0.08729 0.45676 -0.48300
O 	O 	0.51635 0.35787 0.39180 -0.33800
O 	O 	0.35643 0.17779 0.35297 -0.35400
N 	N 	0.11587 0.18303 0.38224 -0.32900
H 	H 	0.12807 0.15613 0.35693 0.07800
H 	H 	0.06147 0.22973 0.37993 0.08400
C 	C 	0.26327 0.28103 0.44410 -0.04200
H 	H 	0.19957 0.31663 0.45573 0.02700
H 	H 	0.36457 0.34233 0.45473 0.06800
C 	C 	0.26387 0.29043 0.39852 -0.10100
H 	H 	0.28397 0.39173 0.39133 0.06400
C 	C 	0.38597 0.27043 0.37991 0.30700
S 	S 	0.85838 0.42063 0.79009 -0.39300
O 	O 	0.18301 0.69121 0.72514 -0.32300
O 	O 	0.02309 0.51113 0.68631 -0.35400
N 	N 	0.78253 0.51637 0.71558 -0.33900
H 	H 	0.79473 0.48947 0.69027 0.12200
H 	H 	0.72813 0.56307 0.71327 0.12300
C 	C 	0.92993 0.61437 0.77744 0.03800
H 	H 	0.86623 0.64997 0.78907 0.03100
H 	H 	0.03123 0.67567 0.78807 0.00700
C 	C 	0.93053 0.62377 0.73186 -0.05000
H 	H 	0.95063 0.72507 0.72467 0.08500
C 	C 	0.05263 0.60377 0.71325 0.24100
La	La	-0.00000 0.00000 -0.00000 1.51500
La	La	0.66667 0.33333 0.33333 1.69800
La	La	0.33333 0.66667 0.66667 1.69800
Co	Co	0.66667 0.33333 0.91878 1.13100
Co	Co	0.33333 0.66667 0.25211 1.13100
Co	Co	-0.00000 0.00000 0.58544 1.05900
Co	Co	0.33333 0.66667 0.08122 1.13100
Co	Co	-0.00000 0.00000 0.41456 1.05900
Co	Co	0.66667 0.33333 0.74789 1.13100
Co	Co	0.66667 0.33333 0.83333 1.09600
Co	Co	0.00000 0.00000 0.50000 1.02300
Co	Co	0.33333 0.66667 0.16667 1.09600
