data_crystal

_cell_length_a 13.54510
_cell_length_b 13.54510
_cell_length_c 23.03940
_cell_angle_alpha 90.00000
_cell_angle_beta  90.00000
_cell_angle_gamma 120.00000

_symmetry_space_group_name_	'P 1'
_symmetry_space_group_name_H-M	'P 1'

loop_
_symmetry_equiv_pos_as_xyz
  x,y,z

loop_
_atom_site_label
_atom_site_type_symbol
_atom_site_fract_x
_atom_site_fract_y
_atom_site_fract_z
_atom_site_charge
Yb	Yb	0.60258 0.00000 -0.00000 1.42700
Yb	Yb	0.39742 0.39742 0.66667 1.47300
Yb	Yb	-0.00000 0.60258 0.33333 1.44600
Co	Co	0.23185 0.90074 0.79304 1.13700
Co	Co	0.66889 0.76815 0.45971 1.12500
Co	Co	0.09926 0.33111 0.12637 1.12000
Co	Co	0.33111 0.09926 0.20696 1.12100
Co	Co	0.90074 0.23185 0.54029 1.13800
Co	Co	0.76815 0.66889 0.87363 1.12400
Co	Co	-0.00000 0.79653 0.83333 1.07200
Co	Co	0.79653 -0.00000 0.50000 1.07400
Co	Co	0.20347 0.20347 0.16667 1.10400
H 	H 	0.38260 0.93990 0.86310 0.12100
H 	H 	0.42830 0.03560 0.82110 0.06200
H 	H 	0.31680 0.08860 0.74930 0.10800
H 	H 	0.36170 0.02330 0.71840 0.08400
H 	H 	0.26150 0.78220 0.72020 0.12200
H 	H 	0.37040 0.84890 0.75260 0.10800
H 	H 	0.21890 0.06200 0.93330 0.09500
H 	H 	0.20580 0.93740 0.92920 0.11200
H 	H 	0.37620 0.13820 0.86970 0.05800
H 	H 	0.04430 0.92660 0.67090 0.03500
H 	H 	0.08670 0.99700 0.73060 0.03400
H 	H 	0.22600 0.95000 0.65440 0.12700
H 	H 	0.12260 0.58220 0.83780 0.05500
H 	H 	0.08910 0.62820 0.78100 0.03500
H 	H 	0.31620 0.72920 0.82690 0.05900
H 	H 	0.55730 0.61740 0.52977 0.11200
H 	H 	0.60730 0.57170 0.48777 0.09700
H 	H 	0.77180 0.68320 0.41597 0.11800
H 	H 	0.66160 0.63830 0.38507 0.09800
H 	H 	0.52070 0.73850 0.38687 0.12000
H 	H 	0.47850 0.62960 0.41927 0.09600
H 	H 	0.84310 0.78110 0.59997 0.09100
H 	H 	0.73160 0.79420 0.59587 0.06900
H 	H 	0.76200 0.62380 0.53637 0.06400
H 	H 	0.88230 0.95570 0.33757 0.10100
H 	H 	0.91030 0.91330 0.39727 0.08100
H 	H 	0.72400 0.77400 0.32107 0.06700
H 	H 	0.45960 0.87740 0.50447 0.08100
H 	H 	0.53910 0.91090 0.44767 0.06400
H 	H 	0.41300 0.68380 0.49357 0.05100
H 	H 	0.06010 0.44270 0.19643 0.10600
H 	H 	0.96440 0.39270 0.15443 0.13400
H 	H 	0.91140 0.22820 0.08263 0.11400
H 	H 	0.97670 0.33840 0.05173 0.10000
H 	H 	0.21780 0.47930 0.05353 0.10800
H 	H 	0.15110 0.52150 0.08593 0.08200
H 	H 	0.93800 0.15690 0.26663 0.03600
H 	H 	0.06260 0.26840 0.26253 -0.00600
H 	H 	0.86180 0.23800 0.20303 0.05800
H 	H 	0.07340 0.11770 0.00423 0.03600
H 	H 	0.00300 0.08970 0.06393 0.02900
H 	H 	0.05000 0.27600 0.98773 0.05800
H 	H 	0.41780 0.54040 0.17113 0.06800
H 	H 	0.37180 0.46090 0.11433 0.04700
H 	H 	0.27080 0.58700 0.16023 0.05200
H 	H 	0.44270 0.06010 0.13690 0.10500
H 	H 	0.39270 0.96440 0.17890 0.13500
H 	H 	0.22820 0.91140 0.25070 0.11800
H 	H 	0.33840 0.97670 0.28160 0.11100
H 	H 	0.47930 0.21780 0.27980 0.11400
H 	H 	0.52150 0.15110 0.24740 0.08600
H 	H 	0.15690 0.93800 0.06670 0.02700
H 	H 	0.26840 0.06260 0.07080 -0.01300
H 	H 	0.23800 0.86180 0.13030 0.05900
H 	H 	0.11770 0.07340 0.32910 0.06400
H 	H 	0.08970 0.00300 0.26940 0.04600
H 	H 	0.27600 0.05000 0.34560 0.00700
H 	H 	0.54040 0.41780 0.16220 0.06700
H 	H 	0.46090 0.37180 0.21900 0.04900
H 	H 	0.58700 0.27080 0.17310 0.04900
H 	H 	0.93990 0.38260 0.47023 0.11900
H 	H 	0.03560 0.42830 0.51223 0.05800
H 	H 	0.08860 0.31680 0.58403 0.10700
H 	H 	0.02330 0.36170 0.61493 0.08200
H 	H 	0.78220 0.26150 0.61313 0.12200
H 	H 	0.84890 0.37040 0.58073 0.10800
H 	H 	0.06200 0.21890 0.40003 0.08900
H 	H 	0.93740 0.20580 0.40413 0.11100
H 	H 	0.13820 0.37620 0.46363 0.05900
H 	H 	0.92660 0.04430 0.66243 0.03500
H 	H 	0.99700 0.08670 0.60273 0.03400
H 	H 	0.95000 0.22600 0.67893 0.13200
H 	H 	0.58220 0.12260 0.49553 0.05300
H 	H 	0.62820 0.08910 0.55233 0.03500
H 	H 	0.72920 0.31620 0.50643 0.05800
H 	H 	0.61740 0.55730 0.80357 0.11200
H 	H 	0.57170 0.60730 0.84557 0.09900
H 	H 	0.68320 0.77180 0.91737 0.12200
H 	H 	0.63830 0.66160 0.94827 0.10800
H 	H 	0.73850 0.52070 0.94647 0.12700
H 	H 	0.62960 0.47850 0.91407 0.10100
H 	H 	0.78110 0.84310 0.73337 0.09100
H 	H 	0.79420 0.73160 0.73747 0.06900
H 	H 	0.62380 0.76200 0.79697 0.06500
H 	H 	0.95570 0.88230 0.99577 0.12700
H 	H 	0.91330 0.91030 0.93607 0.09800
H 	H 	0.77400 0.72400 0.01227 0.01700
H 	H 	0.87740 0.45960 0.82887 0.08300
H 	H 	0.91090 0.53910 0.88567 0.06700
H 	H 	0.68380 0.41300 0.83977 0.05000
C 	C 	0.22910 0.00900 0.90770 -0.18700
C 	C 	0.35360 0.06290 0.88800 -0.08800
C 	C 	0.43230 0.08370 0.94080 0.35000
C 	C 	0.09720 0.94550 0.70400 0.02400
C 	C 	0.21950 0.00230 0.68280 -0.21400
C 	C 	0.25330 0.11420 0.65200 0.37500
C 	C 	0.14300 0.65050 0.81390 -0.05600
C 	C 	0.26470 0.70350 0.79240 -0.07900
C 	C 	0.27980 0.61180 0.76040 0.29300
C 	C 	0.77990 0.77090 0.57437 -0.09000
C 	C 	0.70930 0.64640 0.55467 -0.08200
C 	C 	0.65140 0.56770 0.60747 0.35600
C 	C 	0.84830 0.90280 0.37067 -0.09400
C 	C 	0.78280 0.78050 0.34947 -0.07800
C 	C 	0.86090 0.74670 0.31867 0.33900
C 	C 	0.50750 0.85700 0.48057 -0.08200
C 	C 	0.43880 0.73530 0.45907 -0.06800
C 	C 	0.33200 0.72020 0.42707 0.29100
C 	C 	0.99100 0.22010 0.24103 0.05600
C 	C 	0.93710 0.29070 0.22133 -0.08400
C 	C 	0.91630 0.34860 0.27413 0.36200
C 	C 	0.05450 0.15170 0.03733 -0.08500
C 	C 	0.99770 0.21720 0.01613 -0.08600
C 	C 	0.88580 0.13910 0.98533 0.41200
C 	C 	0.34950 0.49250 0.14723 -0.06700
C 	C 	0.29650 0.56120 0.12573 -0.07600
C 	C 	0.38820 0.66800 0.09373 0.29200
C 	C 	0.22010 0.99100 0.09230 0.06100
C 	C 	0.29070 0.93710 0.11200 -0.08900
C 	C 	0.34860 0.91630 0.05920 0.36300
C 	C 	0.15170 0.05450 0.29600 -0.13200
C 	C 	0.21720 0.99770 0.31720 0.01500
C 	C 	0.13910 0.88580 0.34800 0.31900
C 	C 	0.49250 0.34950 0.18610 -0.06800
C 	C 	0.56120 0.29650 0.20760 -0.07400
C 	C 	0.66800 0.38820 0.23960 0.29000
C 	C 	0.00900 0.22910 0.42563 -0.19300
C 	C 	0.06290 0.35360 0.44533 -0.09400
C 	C 	0.08370 0.43230 0.39253 0.35200
C 	C 	0.94550 0.09720 0.62933 0.02900
C 	C 	0.00230 0.21950 0.65053 -0.22300
C 	C 	0.11420 0.25330 0.68133 0.37700
C 	C 	0.65050 0.14300 0.51943 -0.05600
C 	C 	0.70350 0.26470 0.54093 -0.07900
C 	C 	0.61180 0.27980 0.57293 0.29400
C 	C 	0.77090 0.77990 0.75897 -0.09000
C 	C 	0.64640 0.70930 0.77867 -0.08200
C 	C 	0.56770 0.65140 0.72587 0.35600
C 	C 	0.90280 0.84830 0.96267 -0.14000
C 	C 	0.78050 0.78280 0.98387 0.02100
C 	C 	0.74670 0.86090 0.01467 0.25100
C 	C 	0.85700 0.50750 0.85277 -0.08600
C 	C 	0.73530 0.43880 0.87427 -0.06400
C 	C 	0.72020 0.33200 0.90627 0.28900
S 	S 	0.14424 0.98019 0.84142 -0.35500
S 	S 	0.06954 0.81599 0.74207 -0.44900
S 	S 	0.13988 0.76040 0.85688 -0.43300
S 	S 	0.83595 0.85576 0.50809 -0.35400
S 	S 	0.74645 0.93046 0.40874 -0.36800
S 	S 	0.62052 0.86012 0.52355 -0.38400
S 	S 	0.01981 0.16405 0.17475 -0.47500
S 	S 	0.18401 0.25355 0.07540 -0.42400
S 	S 	0.23960 0.37948 0.19021 -0.41500
S 	S 	0.16405 0.01981 0.15858 -0.47800
S 	S 	0.25355 0.18401 0.25793 -0.40600
S 	S 	0.37948 0.23960 0.14312 -0.42000
S 	S 	0.98019 0.14424 0.49191 -0.35100
S 	S 	0.81599 0.06954 0.59126 -0.44700
S 	S 	0.76040 0.13988 0.47645 -0.43700
S 	S 	0.85576 0.83595 0.82525 -0.35400
S 	S 	0.93046 0.74645 0.92460 -0.34900
S 	S 	0.86012 0.62052 0.80979 -0.38200
N 	N 	0.36660 0.99000 0.84410 -0.28700
N 	N 	0.29630 0.01940 0.73250 -0.32600
N 	N 	0.29250 0.80520 0.75660 -0.33000
N 	N 	0.62340 0.63340 0.51077 -0.33000
N 	N 	0.72310 0.70370 0.39917 -0.33600
N 	N 	0.51270 0.70750 0.42327 -0.33200
N 	N 	0.01000 0.37660 0.17743 -0.37500
N 	N 	0.98060 0.27690 0.06583 -0.32000
N 	N 	0.19480 0.48730 0.08993 -0.32700
N 	N 	0.37660 0.01000 0.15590 -0.37400
N 	N 	0.27690 0.98060 0.26750 -0.33500
N 	N 	0.48730 0.19480 0.24340 -0.33000
N 	N 	0.99000 0.36660 0.48923 -0.28200
N 	N 	0.01940 0.29630 0.60083 -0.32600
N 	N 	0.80520 0.29250 0.57673 -0.33000
N 	N 	0.63340 0.62340 0.82257 -0.33100
N 	N 	0.70370 0.72310 0.93417 -0.35100
N 	N 	0.70750 0.51270 0.91007 -0.33500
O 	O 	0.48350 0.02890 0.94098 -0.44000
O 	O 	0.43590 0.15070 0.97915 -0.26000
O 	O 	0.32260 0.20330 0.67883 -0.43800
O 	O 	0.21170 0.11050 0.60308 -0.30100
O 	O 	0.32310 0.56340 0.78830 -0.25800
O 	O 	0.24180 0.58900 0.70960 -0.25800
O 	O 	0.54540 0.51650 0.60765 -0.43500
O 	O 	0.71480 0.56410 0.64582 -0.26500
O 	O 	0.88070 0.67740 0.34550 -0.40300
O 	O 	0.89880 0.78830 0.26975 -0.23600
O 	O 	0.24030 0.67690 0.45497 -0.25900
O 	O 	0.34720 0.75820 0.37627 -0.25000
O 	O 	0.97110 0.45460 0.27431 -0.40600
O 	O 	0.84930 0.28520 0.31248 -0.27100
O 	O 	0.79670 0.11930 0.01216 -0.47700
O 	O 	0.88950 0.10120 0.93641 -0.28400
O 	O 	0.43660 0.75970 0.12163 -0.25300
O 	O 	0.41100 0.65280 0.04293 -0.26300
O 	O 	0.45460 0.97110 0.05902 -0.41300
O 	O 	0.28520 0.84930 0.02085 -0.28500
O 	O 	0.11930 0.79670 0.32117 -0.43100
O 	O 	0.10120 0.88950 0.39692 -0.26900
O 	O 	0.75970 0.43660 0.21170 -0.25300
O 	O 	0.65280 0.41100 0.29040 -0.25100
O 	O 	0.02890 0.48350 0.39235 -0.45600
O 	O 	0.15070 0.43590 0.35418 -0.27700
O 	O 	0.20330 0.32260 0.65450 -0.43800
O 	O 	0.11050 0.21170 0.73025 -0.30000
O 	O 	0.56340 0.32310 0.54503 -0.26000
O 	O 	0.58900 0.24180 0.62373 -0.25700
O 	O 	0.51650 0.54540 0.72569 -0.43500
O 	O 	0.56410 0.71480 0.68752 -0.26600
O 	O 	0.67740 0.88070 0.98784 -0.35500
O 	O 	0.78830 0.89880 0.06359 -0.21800
O 	O 	0.67690 0.24030 0.87837 -0.25500
O 	O 	0.75820 0.34720 0.95707 -0.23700
