data_crystal

_cell_length_a 8.25680
_cell_length_b 12.35240
_cell_length_c 17.50100
_cell_angle_alpha 97.38280
_cell_angle_beta  90.00000
_cell_angle_gamma 109.52500

_symmetry_space_group_name_	'P 1'
_symmetry_space_group_name_H-M	'P 1'

loop_
_symmetry_equiv_pos_as_xyz
  x,y,z

loop_
_atom_site_label
_atom_site_type_symbol
_atom_site_fract_x
_atom_site_fract_y
_atom_site_fract_z
_atom_site_charge
Yb	Yb	0.31469 0.00000 0.75000 1.36600
Yb	Yb	0.68531 0.00000 0.25000 1.36300
Yb	Yb	0.50000 0.00000 -0.00000 1.34500
Yb	Yb	0.50000 0.00000 0.50000 1.38100
H 	H 	0.83000 0.50540 0.73500 0.06100
H 	H 	0.00330 0.69720 0.76210 0.04900
H 	H 	0.24400 0.62240 0.94030 0.07500
H 	H 	0.14360 0.42120 0.97490 0.09100
H 	H 	0.94940 0.23420 0.95640 0.02300
H 	H 	0.72650 0.30500 0.77120 0.04000
H 	H 	0.38320 0.43100 0.13260 0.01200
H 	H 	0.30190 0.24240 0.07220 0.05500
H 	H 	0.47670 0.35720 0.87020 0.09100
H 	H 	0.32460 0.49460 0.76500 0.07200
H 	H 	0.30610 0.30280 0.73790 0.01300
H 	H 	0.62160 0.37760 0.55970 0.04900
H 	H 	0.72240 0.57880 0.52510 0.06100
H 	H 	0.71520 0.76580 0.54360 0.07300
H 	H 	0.42150 0.69500 0.72880 0.07100
H 	H 	0.95220 0.56900 0.36740 0.06100
H 	H 	0.05950 0.75760 0.42780 0.07700
H 	H 	0.11950 0.64280 0.62980 0.06000
H 	H 	0.17000 0.49460 0.26500 0.07000
H 	H 	0.99670 0.30280 0.23790 0.01500
H 	H 	0.75600 0.37760 0.05970 0.03500
H 	H 	0.85640 0.57880 0.02510 0.04800
H 	H 	0.05060 0.76580 0.04360 0.05700
H 	H 	0.27350 0.69500 0.22880 0.07100
H 	H 	0.61680 0.56900 0.86740 0.11400
H 	H 	0.69810 0.75760 0.92780 0.02500
H 	H 	0.52330 0.64280 0.12980 0.01300
H 	H 	0.67540 0.50540 0.23500 0.06000
H 	H 	0.69390 0.69720 0.26210 0.05200
H 	H 	0.37840 0.62240 0.44030 0.06400
H 	H 	0.27760 0.42120 0.47490 0.07800
H 	H 	0.28480 0.23420 0.45640 0.00500
H 	H 	0.57850 0.30500 0.27120 0.04000
H 	H 	0.04780 0.43100 0.63260 0.06700
H 	H 	0.94050 0.24240 0.57220 0.00200
H 	H 	0.88050 0.35720 0.37020 0.04300
C 	C 	0.25370 0.80140 0.87110 0.37400
C 	C 	0.68180 0.13520 0.85330 0.40200
C 	C 	0.92300 0.44580 0.82460 -0.00200
C 	C 	0.91120 0.52880 0.77750 -0.08900
C 	C 	0.01520 0.64180 0.79280 0.01500
C 	C 	0.14180 0.67720 0.85460 -0.07200
C 	C 	0.15815 0.59810 0.89960 -0.04500
C 	C 	0.04880 0.48040 0.88630 0.05200
C 	C 	0.05760 0.39880 0.93430 -0.09800
C 	C 	0.94330 0.28760 0.92300 0.04100
C 	C 	0.81700 0.25220 0.86240 -0.13300
C 	C 	0.80920 0.32980 0.81310 -0.01200
C 	C 	0.33250 0.16040 0.92420 0.33300
C 	C 	0.48470 0.51020 0.03990 -0.16200
C 	C 	0.40390 0.41640 0.07950 0.05000
C 	C 	0.35410 0.30480 0.04380 -0.16200
C 	C 	0.38070 0.28180 0.96330 0.04000
C 	C 	0.45920 0.37260 0.92360 -0.14800
C 	C 	0.45230 0.19860 0.62890 0.41500
C 	C 	0.54660 0.86480 0.64670 0.34300
C 	C 	0.47720 0.55420 0.67540 0.04700
C 	C 	0.38240 0.47120 0.72250 -0.11800
C 	C 	0.37340 0.35820 0.70720 0.04100
C 	C 	0.46460 0.32280 0.64540 -0.13500
C 	C 	0.56005 0.40190 0.60040 -0.00700
C 	C 	0.56840 0.51960 0.61370 -0.00100
C 	C 	0.65880 0.60120 0.56570 -0.05900
C 	C 	0.65570 0.71240 0.57700 -0.01000
C 	C 	0.56480 0.74780 0.63760 -0.04500
C 	C 	0.47940 0.67020 0.68690 -0.05700
C 	C 	0.17210 0.83960 0.57580 0.32200
C 	C 	0.97450 0.48980 0.46010 -0.00800
C 	C 	0.98750 0.58360 0.42050 -0.07400
C 	C 	0.04930 0.69520 0.45620 -0.00000
C 	C 	0.09890 0.71820 0.53670 -0.05700
C 	C 	0.08660 0.62740 0.57640 -0.05400
C 	C 	0.74630 0.19860 0.12890 0.41500
C 	C 	0.31820 0.86480 0.14670 0.34700
C 	C 	0.07700 0.55420 0.17540 0.05000
C 	C 	0.08880 0.47120 0.22250 -0.10400
C 	C 	0.98480 0.35820 0.20720 0.02700
C 	C 	0.85820 0.32280 0.14540 -0.13900
C 	C 	0.84185 0.40190 0.10040 -0.01000
C 	C 	0.95120 0.51960 0.11370 -0.01300
C 	C 	0.94240 0.60120 0.06570 -0.07900
C 	C 	0.05670 0.71240 0.07700 0.00300
C 	C 	0.18300 0.74780 0.13760 -0.05400
C 	C 	0.19080 0.67020 0.18690 -0.05300
C 	C 	0.66750 0.83960 0.07580 0.37200
C 	C 	0.51530 0.48980 0.96010 0.20100
C 	C 	0.59610 0.58360 0.92050 -0.22200
C 	C 	0.64590 0.69520 0.95620 0.18300
C 	C 	0.61930 0.71820 0.03670 -0.21800
C 	C 	0.54080 0.62740 0.07640 0.08500
C 	C 	0.54770 0.80140 0.37110 0.37600
C 	C 	0.45340 0.13520 0.35330 0.41000
C 	C 	0.52280 0.44580 0.32460 0.00000
C 	C 	0.61760 0.52880 0.27750 -0.07400
C 	C 	0.62660 0.64180 0.29280 0.00300
C 	C 	0.53540 0.67720 0.35460 -0.07700
C 	C 	0.43995 0.59810 0.39960 -0.04700
C 	C 	0.43160 0.48040 0.38630 0.04200
C 	C 	0.34120 0.39880 0.43430 -0.11500
C 	C 	0.34430 0.28760 0.42300 0.05200
C 	C 	0.43520 0.25220 0.36240 -0.14500
C 	C 	0.52060 0.32980 0.31310 -0.00700
C 	C 	0.82790 0.16040 0.42420 0.38700
C 	C 	0.02550 0.51020 0.53990 0.04700
C 	C 	0.01250 0.41640 0.57950 -0.10300
C 	C 	0.95070 0.30480 0.54380 0.03000
C 	C 	0.90110 0.28180 0.46330 -0.12900
C 	C 	0.91340 0.37260 0.42360 -0.00700
O 	O 	0.23768 0.86956 0.82730 -0.32200
O 	O 	0.35857 0.83254 0.92900 -0.30800
O 	O 	0.59018 0.10296 0.79250 -0.49900
O 	O 	0.66444 0.07428 0.90790 -0.52000
O 	O 	0.31181 0.14082 0.85245 -0.45500
O 	O 	0.31415 0.08030 0.96684 -0.48900
O 	O 	0.36812 0.13044 0.67270 -0.55600
O 	O 	0.52603 0.16746 0.57100 -0.49100
O 	O 	0.48722 0.89704 0.70750 -0.26600
O 	O 	0.59016 0.92572 0.59210 -0.27600
O 	O 	0.17099 0.85918 0.64755 -0.30800
O 	O 	0.23385 0.91970 0.53316 -0.25600
O 	O 	0.76232 0.13044 0.17270 -0.56000
O 	O 	0.64143 0.16746 0.07100 -0.51000
O 	O 	0.40982 0.89704 0.20750 -0.26400
O 	O 	0.33556 0.92572 0.09210 -0.28600
O 	O 	0.68819 0.85918 0.14755 -0.32500
O 	O 	0.68585 0.91970 0.03316 -0.29400
O 	O 	0.63188 0.86956 0.32730 -0.32500
O 	O 	0.47397 0.83254 0.42900 -0.33300
O 	O 	0.51278 0.10296 0.29250 -0.50300
O 	O 	0.40984 0.07428 0.40790 -0.54600
O 	O 	0.82901 0.14082 0.35245 -0.47500
O 	O 	0.76615 0.08030 0.46684 -0.54200
