data_crystal

_cell_length_a 12.54510
_cell_length_b 15.85350
_cell_length_c 10.88850
_cell_angle_alpha 90.00000
_cell_angle_beta  90.00000
_cell_angle_gamma 90.00000

_symmetry_space_group_name_	'P 1'
_symmetry_space_group_name_H-M	'P 1'

loop_
_symmetry_equiv_pos_as_xyz
  x,y,z

loop_
_atom_site_label
_atom_site_type_symbol
_atom_site_fract_x
_atom_site_fract_y
_atom_site_fract_z
_atom_site_charge
C 	C 	0.34780 0.10820 0.26820 0.38800
C 	C 	0.30380 0.14000 0.38910 -0.13400
C 	C 	0.22990 0.20440 0.38900 0.04500
H 	H 	0.20600 0.22660 0.31500 0.03700
O 	O 	0.10730 0.36550 0.38830 -0.31600
O 	O 	0.41300 0.04740 0.27050 -0.42400
C 	C 	0.65220 0.89180 0.26820 0.38200
C 	C 	0.69620 0.86000 0.38910 -0.09600
C 	C 	0.77010 0.79560 0.38900 0.06700
H 	H 	0.79400 0.77340 0.31500 0.04900
O 	O 	0.89270 0.63450 0.38830 -0.31300
O 	O 	0.58700 0.95260 0.27050 -0.33000
C 	C 	0.84300 0.74700 0.06500 0.05900
C 	C 	0.91500 0.68000 0.04900 -0.05900
C 	C 	0.89400 0.62040 0.95800 0.01600
C 	C 	0.79500 0.61980 0.90100 0.00100
C 	C 	0.72600 0.68860 0.91200 0.06500
O 	O 	0.68260 0.85280 0.82420 -0.39100
C 	C 	0.15700 0.25300 0.06500 0.02600
C 	C 	0.08500 0.32000 0.04900 -0.09700
C 	C 	0.10600 0.37960 0.95800 0.00100
C 	C 	0.20500 0.38020 0.90100 -0.00300
C 	C 	0.27400 0.31140 0.91200 0.06700
O 	O 	0.31740 0.14720 0.82420 -0.42000
C 	C 	0.65220 0.89180 0.73180 0.38100
C 	C 	0.69620 0.86000 0.61090 -0.09500
C 	C 	0.77010 0.79560 0.61100 0.06700
H 	H 	0.79400 0.77340 0.68500 0.04800
O 	O 	0.89270 0.63450 0.61170 -0.31300
O 	O 	0.58700 0.95260 0.72950 -0.32600
C 	C 	0.34780 0.10820 0.73180 0.38600
C 	C 	0.30380 0.14000 0.61090 -0.13400
C 	C 	0.22990 0.20440 0.61100 0.04500
H 	H 	0.20600 0.22660 0.68500 0.03500
O 	O 	0.10730 0.36550 0.61170 -0.31700
O 	O 	0.41300 0.04740 0.72950 -0.42000
C 	C 	0.15700 0.25300 0.93500 0.02600
C 	C 	0.08500 0.32000 0.95100 0.02400
C 	C 	0.10600 0.37960 0.04200 0.03000
C 	C 	0.20500 0.38020 0.09900 -0.01300
C 	C 	0.27400 0.31140 0.08800 0.04300
O 	O 	0.31740 0.14720 0.17580 -0.43100
C 	C 	0.84300 0.74700 0.93500 0.05900
C 	C 	0.91500 0.68000 0.95100 0.06300
C 	C 	0.89400 0.62040 0.04200 0.04600
C 	C 	0.79500 0.61980 0.09900 -0.00900
C 	C 	0.72600 0.68860 0.08800 0.04100
O 	O 	0.68260 0.85280 0.17580 -0.40200
S 	S 	0.09330 0.31740 0.50000 0.38500
C 	C 	0.19100 0.23650 0.50000 -0.09200
C 	C 	0.34060 0.10660 0.50000 0.06000
H 	H 	0.38940 0.06250 0.50000 0.02000
O 	O 	0.99170 0.27380 0.50000 -0.25200
S 	S 	0.90670 0.68260 0.50000 0.61900
C 	C 	0.80900 0.76350 0.50000 -0.10500
C 	C 	0.65940 0.89340 0.50000 0.05300
H 	H 	0.61060 0.93750 0.50000 0.07300
O 	O 	0.00830 0.72620 0.50000 -0.41800
N 	N 	0.75150 0.75040 -0.00000 -0.22500
Cu	Cu	0.66112 0.85388 -0.00000 0.93300
O 	O 	0.59190 0.96410 -0.00000 -0.44600
N 	N 	0.24850 0.24960 -0.00000 -0.22000
Cu	Cu	0.33888 0.14612 -0.00000 0.92300
O 	O 	0.40810 0.03590 -0.00000 -0.54800
Cu	Cu	0.50000 0.00000 0.13916 0.89400
Cu	Cu	0.50000 0.00000 0.86084 0.90200
C 	C 	0.65700 0.24700 0.43500 0.03400
C 	C 	0.58500 0.18000 0.45100 -0.00700
C 	C 	0.60600 0.12040 0.54200 0.00600
C 	C 	0.70500 0.11980 0.59900 -0.02500
C 	C 	0.77400 0.18860 0.58800 0.05400
O 	O 	0.81740 0.35280 0.67580 -0.40600
C 	C 	0.34300 0.75300 0.43500 0.03800
C 	C 	0.41500 0.82000 0.45100 -0.02100
C 	C 	0.39400 0.87960 0.54200 0.03600
C 	C 	0.29500 0.88020 0.59900 0.02000
C 	C 	0.22600 0.81140 0.58800 0.04100
O 	O 	0.18260 0.64720 0.67580 -0.42100
C 	C 	0.15220 0.60820 0.23180 0.38500
C 	C 	0.19620 0.64000 0.11090 -0.12400
C 	C 	0.27010 0.70440 0.11100 0.05900
H 	H 	0.29400 0.72660 0.18500 0.04000
O 	O 	0.39270 0.86550 0.11170 -0.29000
O 	O 	0.08700 0.54740 0.22950 -0.41200
C 	C 	0.84780 0.39180 0.23180 0.37900
C 	C 	0.80380 0.36000 0.11090 -0.09500
C 	C 	0.72990 0.29560 0.11100 0.05100
H 	H 	0.70600 0.27340 0.18500 0.04400
O 	O 	0.60730 0.13450 0.11170 -0.33200
O 	O 	0.91300 0.45260 0.22950 -0.34300
C 	C 	0.34300 0.75300 0.56500 0.04000
C 	C 	0.41500 0.82000 0.54900 -0.02200
C 	C 	0.39400 0.87960 0.45800 0.03400
C 	C 	0.29500 0.88020 0.40100 0.01800
C 	C 	0.22600 0.81140 0.41200 0.04000
O 	O 	0.18260 0.64720 0.32420 -0.42200
C 	C 	0.65700 0.24700 0.56500 0.03600
C 	C 	0.58500 0.18000 0.54900 -0.00800
C 	C 	0.60600 0.12040 0.45800 0.00500
C 	C 	0.70500 0.11980 0.40100 -0.02600
C 	C 	0.77400 0.18860 0.41200 0.05200
O 	O 	0.81740 0.35280 0.32420 -0.40700
C 	C 	0.84780 0.39180 0.76820 0.37700
C 	C 	0.80380 0.36000 0.88910 -0.07800
C 	C 	0.72990 0.29560 0.88900 0.07500
H 	H 	0.70600 0.27340 0.81500 0.03900
O 	O 	0.60730 0.13450 0.88830 -0.31300
O 	O 	0.91300 0.45260 0.77050 -0.33800
C 	C 	0.15220 0.60820 0.76820 0.38200
C 	C 	0.19620 0.64000 0.88910 -0.10700
C 	C 	0.27010 0.70440 0.88900 0.08300
H 	H 	0.29400 0.72660 0.81500 0.03600
O 	O 	0.39270 0.86550 0.88830 -0.27100
O 	O 	0.08700 0.54740 0.77050 -0.40700
N 	N 	0.74850 0.25040 0.50000 -0.20700
Cu	Cu	0.83888 0.35388 0.50000 0.93700
O 	O 	0.90810 0.46410 0.50000 -0.45600
N 	N 	0.25150 0.74960 0.50000 -0.20600
Cu	Cu	0.16112 0.64612 0.50000 0.93100
O 	O 	0.09190 0.53590 0.50000 -0.51800
S 	S 	0.40670 0.81740 -0.00000 0.47300
C 	C 	0.30900 0.73650 -0.00000 -0.12200
C 	C 	0.15940 0.60660 -0.00000 0.02700
H 	H 	0.11060 0.56250 -0.00000 0.03100
O 	O 	0.50830 0.77380 -0.00000 -0.33800
S 	S 	0.59330 0.18260 -0.00000 0.48100
C 	C 	0.69100 0.26350 -0.00000 -0.11700
C 	C 	0.84060 0.39340 -0.00000 0.01800
H 	H 	0.88940 0.43750 -0.00000 0.06900
O 	O 	0.49170 0.22620 -0.00000 -0.34000
Cu	Cu	-0.00000 0.50000 0.36084 0.89900
Cu	Cu	-0.00000 0.50000 0.63916 0.89900
