data_crystal

_cell_length_a 44.48200
_cell_length_b 44.48200
_cell_length_c 21.28300
_cell_angle_alpha 90.00000
_cell_angle_beta  90.00000
_cell_angle_gamma 120.00000

_symmetry_space_group_name_	'P 1'
_symmetry_space_group_name_H-M	'P 1'

loop_
_symmetry_equiv_pos_as_xyz
  x,y,z

loop_
_atom_site_label
_atom_site_type_symbol
_atom_site_fract_x
_atom_site_fract_y
_atom_site_fract_z
_atom_site_charge
Cu	Cu	0.74058 0.27966 0.41705 0.78200
Cu	Cu	0.82707 0.24940 0.49119 0.79100
Cu	Cu	0.80143 0.16325 0.64875 0.82600
Cu	Cu	0.70941 0.04962 0.58363 0.80000
Cu	Cu	0.64322 0.02618 0.38581 0.79600
Cu	Cu	0.58364 0.08908 0.32132 0.80000
Cu	Cu	0.61310 0.20552 0.39355 0.80100
Cu	Cu	0.95062 0.31021 0.42489 0.80200
Cu	Cu	0.05021 0.34184 0.55979 0.77100
Cu	Cu	0.49493 0.02340 0.15830 0.79800
C 	C 	0.77430 0.26280 0.42710 -0.28000
N 	N 	0.79230 0.25870 0.46710 -0.26500
C 	C 	0.81400 0.22420 0.57610 -0.25100
N 	N 	0.81460 0.20070 0.59440 -0.26400
N 	N 	0.76310 0.12040 0.62590 -0.25000
C 	C 	0.75070 0.09070 0.60480 -0.29900
C 	C 	0.69120 0.04470 0.50490 -0.31800
N 	N 	0.67580 0.04050 0.45660 -0.23400
N 	N 	0.62190 0.04660 0.36660 -0.29700
C 	C 	0.60480 0.05940 0.35180 -0.24400
C 	C 	0.59170 0.13160 0.36720 -0.27600
N 	N 	0.59990 0.16110 0.36040 -0.24800
N 	N 	0.66110 0.23550 0.38530 -0.24300
C 	C 	0.69090 0.25110 0.40110 -0.28900
N 	N 	0.87300 0.27260 0.46620 -0.25600
C 	C 	0.89970 0.28650 0.45150 -0.24500
C 	C 	0.98610 0.31570 0.47200 -0.34200
N 	N 	0.00260 0.31320 0.49710 -0.16700
C 	C 	0.96750 0.34530 0.30160 -0.25800
N 	N 	0.96100 0.33080 0.34700 -0.25500
N 	N 	0.76290 0.32970 0.38740 -0.22300
C 	C 	0.77550 0.35980 0.38240 -0.29700
N 	N 	0.55340 0.06760 0.26580 -0.29300
C 	C 	0.53780 0.05910 0.22230 -0.19300
C 	C 	0.83750 0.15760 0.74460 -0.26300
N 	N 	0.82350 0.16050 0.70170 -0.31300
C 	C 	0.09880 0.35800 0.53310 -0.32500
N 	N 	0.12190 0.34120 0.52350 -0.31200
C 	C 	0.68250 0.98610 0.66570 -0.22600
N 	N 	0.69120 0.00720 0.63860 -0.23900
Cu	Cu	0.40725 0.61299 0.75038 0.78200
Cu	Cu	0.49374 0.58273 0.82452 0.79100
Cu	Cu	0.46810 0.49658 0.98208 0.81900
Cu	Cu	0.37608 0.38295 0.91696 0.79900
Cu	Cu	0.30989 0.35951 0.71914 0.79500
Cu	Cu	0.25031 0.42241 0.65465 0.79900
Cu	Cu	0.27977 0.53885 0.72688 0.80000
Cu	Cu	0.61729 0.64354 0.75822 0.80100
Cu	Cu	0.71688 0.67517 0.89312 0.77000
Cu	Cu	0.16160 0.35673 0.49163 0.79600
C 	C 	0.44097 0.59613 0.76043 -0.28300
N 	N 	0.45897 0.59203 0.80043 -0.26600
C 	C 	0.48067 0.55753 0.90943 -0.25600
N 	N 	0.48127 0.53403 0.92773 -0.26600
N 	N 	0.42977 0.45373 0.95923 -0.25300
C 	C 	0.41737 0.42403 0.93813 -0.30500
C 	C 	0.35787 0.37803 0.83823 -0.32200
N 	N 	0.34247 0.37383 0.78993 -0.23500
N 	N 	0.28857 0.37993 0.69993 -0.29900
C 	C 	0.27147 0.39273 0.68513 -0.24800
C 	C 	0.25837 0.46493 0.70053 -0.27900
N 	N 	0.26657 0.49443 0.69373 -0.24900
N 	N 	0.32777 0.56883 0.71863 -0.24400
C 	C 	0.35757 0.58443 0.73443 -0.29200
N 	N 	0.53967 0.60593 0.79953 -0.25700
C 	C 	0.56637 0.61983 0.78483 -0.24800
C 	C 	0.65277 0.64903 0.80533 -0.34500
N 	N 	0.66927 0.64653 0.83043 -0.16800
C 	C 	0.63417 0.67863 0.63493 -0.26100
N 	N 	0.62767 0.66413 0.68033 -0.25500
N 	N 	0.42957 0.66303 0.72073 -0.22400
C 	C 	0.44217 0.69313 0.71573 -0.29900
N 	N 	0.22007 0.40093 0.59913 -0.29400
C 	C 	0.20447 0.39243 0.55563 -0.19700
C 	C 	0.50417 0.49093 0.07793 -0.25200
N 	N 	0.49017 0.49383 0.03503 -0.30200
C 	C 	0.76547 0.69133 0.86643 -0.33000
N 	N 	0.78857 0.67453 0.85683 -0.31400
C 	C 	0.34917 0.31943 0.99903 -0.24500
N 	N 	0.35787 0.34053 0.97193 -0.23700
Cu	Cu	0.07391 0.94633 0.08372 0.78400
Cu	Cu	0.16040 0.91607 0.15786 0.79400
Cu	Cu	0.13476 0.82992 0.31542 0.82900
Cu	Cu	0.04274 0.71629 0.25030 0.80300
Cu	Cu	0.97655 0.69285 0.05248 0.80400
Cu	Cu	0.91697 0.75575 0.98799 0.78500
Cu	Cu	0.94643 0.87219 0.06022 0.80200
Cu	Cu	0.28395 0.97688 0.09156 0.80400
Cu	Cu	0.38354 0.00851 0.22646 0.77200
Cu	Cu	0.82826 0.69007 0.82497 0.79400
C 	C 	0.10763 0.92947 0.09377 -0.27600
N 	N 	0.12563 0.92537 0.13377 -0.26400
C 	C 	0.14733 0.89087 0.24277 -0.24800
N 	N 	0.14793 0.86737 0.26107 -0.26300
N 	N 	0.09643 0.78707 0.29257 -0.24900
C 	C 	0.08403 0.75737 0.27147 -0.29500
C 	C 	0.02453 0.71137 0.17157 -0.31300
N 	N 	0.00913 0.70717 0.12327 -0.23100
N 	N 	0.95523 0.71327 0.03327 -0.29600
C 	C 	0.93813 0.72607 0.01847 -0.22900
C 	C 	0.92503 0.79827 0.03387 -0.26400
N 	N 	0.93323 0.82777 0.02707 -0.24800
N 	N 	0.99443 0.90217 0.05197 -0.24300
C 	C 	0.02423 0.91777 0.06777 -0.28600
N 	N 	0.20633 0.93927 0.13287 -0.25500
C 	C 	0.23303 0.95317 0.11817 -0.23900
C 	C 	0.31943 0.98237 0.13867 -0.33500
N 	N 	0.33593 0.97987 0.16377 -0.16600
C 	C 	0.30083 0.01197 0.96827 -0.29400
N 	N 	0.29433 0.99747 0.01367 -0.23000
N 	N 	0.09623 0.99637 0.05407 -0.22200
C 	C 	0.10883 0.02647 0.04907 -0.29400
N 	N 	0.88673 0.73427 0.93247 -0.29900
C 	C 	0.87113 0.72577 0.88897 -0.20500
C 	C 	0.17083 0.82427 0.41127 -0.25900
N 	N 	0.15683 0.82717 0.36837 -0.31300
C 	C 	0.43213 0.02467 0.19977 -0.32000
N 	N 	0.45523 0.00787 0.19017 -0.30900
C 	C 	0.01583 0.65277 0.33237 -0.22200
N 	N 	0.02453 0.67387 0.30527 -0.23700
Cu	Cu	0.72034 0.46092 0.41705 0.78300
Cu	Cu	0.75060 0.57767 0.49119 0.79200
Cu	Cu	0.83675 0.63818 0.64875 0.82700
Cu	Cu	0.95038 0.65979 0.58363 0.80100
Cu	Cu	0.97382 0.61704 0.38581 0.79600
Cu	Cu	0.91092 0.49456 0.32132 0.80000
Cu	Cu	0.79448 0.40758 0.39355 0.80100
Cu	Cu	0.68979 0.64041 0.42489 0.80200
Cu	Cu	0.65816 0.70837 0.55979 0.77100
Cu	Cu	0.97660 0.47153 0.15830 0.79800
C 	C 	0.73720 0.51150 0.42710 -0.28000
N 	N 	0.74130 0.53360 0.46710 -0.26500
C 	C 	0.77580 0.58980 0.57610 -0.25100
N 	N 	0.79930 0.61390 0.59440 -0.26400
N 	N 	0.87960 0.64270 0.62590 -0.25000
C 	C 	0.90930 0.66000 0.60480 -0.29900
C 	C 	0.95530 0.64650 0.50490 -0.31800
N 	N 	0.95950 0.63530 0.45660 -0.23400
N 	N 	0.95340 0.57530 0.36660 -0.29700
C 	C 	0.94060 0.54540 0.35180 -0.24400
C 	C 	0.86840 0.46010 0.36720 -0.27600
N 	N 	0.83890 0.43880 0.36040 -0.24800
N 	N 	0.76450 0.42560 0.38530 -0.24300
C 	C 	0.74890 0.43980 0.40110 -0.28900
N 	N 	0.72740 0.60040 0.46620 -0.25600
C 	C 	0.71350 0.61320 0.45150 -0.24500
C 	C 	0.68430 0.67040 0.47200 -0.34100
N 	N 	0.68680 0.68940 0.49710 -0.16700
C 	C 	0.65470 0.62220 0.30160 -0.25800
N 	N 	0.66920 0.63020 0.34700 -0.25500
N 	N 	0.67030 0.43320 0.38740 -0.22300
C 	C 	0.64020 0.41570 0.38240 -0.29700
N 	N 	0.93240 0.48580 0.26580 -0.29300
C 	C 	0.94090 0.47870 0.22230 -0.19300
C 	C 	0.84240 0.67990 0.74460 -0.26300
N 	N 	0.83950 0.66300 0.70170 -0.31300
C 	C 	0.64200 0.74080 0.53310 -0.32500
N 	N 	0.65880 0.78070 0.52350 -0.31200
C 	C 	0.01390 0.69640 0.66570 -0.22600
N 	N 	0.99280 0.68400 0.63860 -0.23900
Cu	Cu	0.38701 0.79425 0.75038 0.78200
Cu	Cu	0.41727 0.91100 0.82452 0.79100
Cu	Cu	0.50342 0.97151 0.98208 0.81900
Cu	Cu	0.61705 0.99312 0.91696 0.79900
Cu	Cu	0.64049 0.95037 0.71914 0.79500
Cu	Cu	0.57759 0.82789 0.65465 0.79900
Cu	Cu	0.46115 0.74091 0.72688 0.80000
Cu	Cu	0.35646 0.97374 0.75822 0.80100
Cu	Cu	0.32483 0.04170 0.89312 0.77000
Cu	Cu	0.64327 0.80486 0.49163 0.79600
C 	C 	0.40387 0.84483 0.76043 -0.28300
N 	N 	0.40797 0.86693 0.80043 -0.26600
C 	C 	0.44247 0.92313 0.90943 -0.25600
N 	N 	0.46597 0.94723 0.92773 -0.26600
N 	N 	0.54627 0.97603 0.95923 -0.25300
C 	C 	0.57597 0.99333 0.93813 -0.30500
C 	C 	0.62197 0.97983 0.83823 -0.32200
N 	N 	0.62617 0.96863 0.78993 -0.23500
N 	N 	0.62007 0.90863 0.69993 -0.29900
C 	C 	0.60727 0.87873 0.68513 -0.24800
C 	C 	0.53507 0.79343 0.70053 -0.27900
N 	N 	0.50557 0.77213 0.69373 -0.24900
N 	N 	0.43117 0.75893 0.71863 -0.24400
C 	C 	0.41557 0.77313 0.73443 -0.29200
N 	N 	0.39407 0.93373 0.79953 -0.25700
C 	C 	0.38017 0.94653 0.78483 -0.24800
C 	C 	0.35097 0.00373 0.80533 -0.34500
N 	N 	0.35347 0.02273 0.83043 -0.16800
C 	C 	0.32137 0.95553 0.63493 -0.26100
N 	N 	0.33587 0.96353 0.68033 -0.25500
N 	N 	0.33697 0.76653 0.72073 -0.22400
C 	C 	0.30687 0.74903 0.71573 -0.29900
N 	N 	0.59907 0.81913 0.59913 -0.29400
C 	C 	0.60757 0.81203 0.55563 -0.19700
C 	C 	0.50907 0.01323 0.07793 -0.25200
N 	N 	0.50617 0.99633 0.03503 -0.30200
C 	C 	0.30867 0.07413 0.86643 -0.33000
N 	N 	0.32547 0.11403 0.85683 -0.31400
C 	C 	0.68057 0.02973 0.99903 -0.24500
N 	N 	0.65947 0.01733 0.97193 -0.23700
Cu	Cu	0.05367 0.12759 0.08372 0.78400
Cu	Cu	0.08393 0.24434 0.15786 0.79400
Cu	Cu	0.17008 0.30485 0.31542 0.82900
Cu	Cu	0.28371 0.32646 0.25030 0.80300
Cu	Cu	0.30715 0.28371 0.05248 0.80400
Cu	Cu	0.24425 0.16123 0.98799 0.78500
Cu	Cu	0.12781 0.07425 0.06022 0.80200
Cu	Cu	0.02312 0.30708 0.09156 0.80400
Cu	Cu	0.99149 0.37504 0.22646 0.77200
Cu	Cu	0.30993 0.13820 0.82497 0.79400
C 	C 	0.07053 0.17817 0.09377 -0.27600
N 	N 	0.07463 0.20027 0.13377 -0.26400
C 	C 	0.10913 0.25647 0.24277 -0.24800
N 	N 	0.13263 0.28057 0.26107 -0.26300
N 	N 	0.21293 0.30937 0.29257 -0.24900
C 	C 	0.24263 0.32667 0.27147 -0.29500
C 	C 	0.28863 0.31317 0.17157 -0.31300
N 	N 	0.29283 0.30197 0.12327 -0.23100
N 	N 	0.28673 0.24197 0.03327 -0.29600
C 	C 	0.27393 0.21207 0.01847 -0.22900
C 	C 	0.20173 0.12677 0.03387 -0.26400
N 	N 	0.17223 0.10547 0.02707 -0.24700
N 	N 	0.09783 0.09227 0.05197 -0.24200
C 	C 	0.08223 0.10647 0.06777 -0.28700
N 	N 	0.06073 0.26707 0.13287 -0.25500
C 	C 	0.04683 0.27987 0.11817 -0.23900
C 	C 	0.01763 0.33707 0.13867 -0.33500
N 	N 	0.02013 0.35607 0.16377 -0.16600
C 	C 	0.98803 0.28887 0.96827 -0.29300
N 	N 	0.00253 0.29687 0.01367 -0.23000
N 	N 	0.00363 0.09987 0.05407 -0.22200
C 	C 	0.97353 0.08237 0.04907 -0.29400
N 	N 	0.26573 0.15247 0.93247 -0.29900
C 	C 	0.27423 0.14537 0.88897 -0.20500
C 	C 	0.17573 0.34657 0.41127 -0.25900
N 	N 	0.17283 0.32967 0.36837 -0.31300
C 	C 	0.97533 0.40747 0.19977 -0.32000
N 	N 	0.99213 0.44737 0.19017 -0.30900
C 	C 	0.34723 0.36307 0.33237 -0.22200
N 	N 	0.32613 0.35067 0.30527 -0.23700
Cu	Cu	0.53908 0.25942 0.41705 0.78300
Cu	Cu	0.42233 0.17293 0.49119 0.79200
Cu	Cu	0.36182 0.19857 0.64875 0.82700
Cu	Cu	0.34021 0.29059 0.58363 0.80100
Cu	Cu	0.38296 0.35678 0.38581 0.79600
Cu	Cu	0.50544 0.41636 0.32132 0.80000
Cu	Cu	0.59242 0.38690 0.39355 0.80100
Cu	Cu	0.35959 0.04938 0.42489 0.80200
Cu	Cu	0.29163 0.94979 0.55979 0.77100
Cu	Cu	0.52847 0.50507 0.15830 0.79800
C 	C 	0.48850 0.22570 0.42710 -0.28000
N 	N 	0.46640 0.20770 0.46710 -0.26500
C 	C 	0.41020 0.18600 0.57610 -0.25100
N 	N 	0.38610 0.18540 0.59440 -0.26400
N 	N 	0.35730 0.23690 0.62590 -0.25000
C 	C 	0.34000 0.24930 0.60480 -0.29900
C 	C 	0.35350 0.30880 0.50490 -0.31800
N 	N 	0.36470 0.32420 0.45660 -0.23400
N 	N 	0.42470 0.37810 0.36660 -0.29700
C 	C 	0.45460 0.39520 0.35180 -0.24400
C 	C 	0.53990 0.40830 0.36720 -0.27600
N 	N 	0.56120 0.40010 0.36040 -0.24800
N 	N 	0.57440 0.33890 0.38530 -0.24300
C 	C 	0.56020 0.30910 0.40110 -0.28900
N 	N 	0.39960 0.12700 0.46620 -0.25600
C 	C 	0.38680 0.10030 0.45150 -0.24500
C 	C 	0.32960 0.01390 0.47200 -0.34200
N 	N 	0.31060 0.99740 0.49710 -0.16700
C 	C 	0.37780 0.03250 0.30160 -0.25800
N 	N 	0.36980 0.03900 0.34700 -0.25500
N 	N 	0.56680 0.23710 0.38740 -0.22300
C 	C 	0.58430 0.22450 0.38240 -0.29700
N 	N 	0.51420 0.44660 0.26580 -0.29300
C 	C 	0.52130 0.46220 0.22230 -0.19300
C 	C 	0.32010 0.16250 0.74460 -0.26300
N 	N 	0.33700 0.17650 0.70170 -0.31300
C 	C 	0.25920 0.90120 0.53310 -0.32500
N 	N 	0.21930 0.87810 0.52350 -0.31200
C 	C 	0.30360 0.31750 0.66570 -0.22700
N 	N 	0.31600 0.30880 0.63860 -0.23800
Cu	Cu	0.20575 0.59275 0.75038 0.78200
Cu	Cu	0.08900 0.50626 0.82452 0.79100
Cu	Cu	0.02849 0.53190 0.98208 0.81900
Cu	Cu	0.00688 0.62392 0.91696 0.79900
Cu	Cu	0.04963 0.69011 0.71914 0.79500
Cu	Cu	0.17211 0.74969 0.65465 0.79900
Cu	Cu	0.25909 0.72023 0.72688 0.80000
Cu	Cu	0.02626 0.38271 0.75822 0.80100
Cu	Cu	0.95830 0.28312 0.89312 0.77000
Cu	Cu	0.19514 0.83840 0.49163 0.79600
C 	C 	0.15517 0.55903 0.76043 -0.28300
N 	N 	0.13307 0.54103 0.80043 -0.26600
C 	C 	0.07687 0.51933 0.90943 -0.25600
N 	N 	0.05277 0.51873 0.92773 -0.26600
N 	N 	0.02397 0.57023 0.95923 -0.25300
C 	C 	0.00667 0.58263 0.93813 -0.30500
C 	C 	0.02017 0.64213 0.83823 -0.32200
N 	N 	0.03137 0.65753 0.78993 -0.23500
N 	N 	0.09137 0.71143 0.69993 -0.29900
C 	C 	0.12127 0.72853 0.68513 -0.24800
C 	C 	0.20657 0.74163 0.70053 -0.27900
N 	N 	0.22787 0.73343 0.69373 -0.24900
N 	N 	0.24107 0.67223 0.71863 -0.24400
C 	C 	0.22687 0.64243 0.73443 -0.29200
N 	N 	0.06627 0.46033 0.79953 -0.25700
C 	C 	0.05347 0.43363 0.78483 -0.24800
C 	C 	0.99627 0.34723 0.80533 -0.34500
N 	N 	0.97727 0.33073 0.83043 -0.16800
C 	C 	0.04447 0.36583 0.63493 -0.26100
N 	N 	0.03647 0.37233 0.68033 -0.25500
N 	N 	0.23347 0.57043 0.72073 -0.22400
C 	C 	0.25097 0.55783 0.71573 -0.29900
N 	N 	0.18087 0.77993 0.59913 -0.29400
C 	C 	0.18797 0.79553 0.55563 -0.19700
C 	C 	0.98677 0.49583 0.07793 -0.25200
N 	N 	0.00367 0.50983 0.03503 -0.30200
C 	C 	0.92587 0.23453 0.86643 -0.33000
N 	N 	0.88597 0.21143 0.85683 -0.31400
C 	C 	0.97027 0.65083 0.99903 -0.24500
N 	N 	0.98267 0.64213 0.97193 -0.23700
Cu	Cu	0.87241 0.92609 0.08372 0.78400
Cu	Cu	0.75566 0.83960 0.15786 0.79300
Cu	Cu	0.69515 0.86524 0.31542 0.82900
Cu	Cu	0.67354 0.95726 0.25030 0.80300
Cu	Cu	0.71629 0.02345 0.05248 0.80400
Cu	Cu	0.83877 0.08303 0.98799 0.78500
Cu	Cu	0.92575 0.05357 0.06022 0.80200
Cu	Cu	0.69292 0.71605 0.09156 0.80400
Cu	Cu	0.62496 0.61646 0.22646 0.77300
Cu	Cu	0.86180 0.17174 0.82497 0.79400
C 	C 	0.82183 0.89237 0.09377 -0.27600
N 	N 	0.79973 0.87437 0.13377 -0.26400
C 	C 	0.74353 0.85267 0.24277 -0.24800
N 	N 	0.71943 0.85207 0.26107 -0.26300
N 	N 	0.69063 0.90357 0.29257 -0.24900
C 	C 	0.67333 0.91597 0.27147 -0.29500
C 	C 	0.68683 0.97547 0.17157 -0.31300
N 	N 	0.69803 0.99087 0.12327 -0.23100
N 	N 	0.75803 0.04477 0.03327 -0.29600
C 	C 	0.78793 0.06187 0.01847 -0.23000
C 	C 	0.87323 0.07497 0.03387 -0.26400
N 	N 	0.89453 0.06677 0.02707 -0.24800
N 	N 	0.90773 0.00557 0.05197 -0.24300
C 	C 	0.89353 0.97577 0.06777 -0.28600
N 	N 	0.73293 0.79367 0.13287 -0.25500
C 	C 	0.72013 0.76697 0.11817 -0.23900
C 	C 	0.66293 0.68057 0.13867 -0.33500
N 	N 	0.64393 0.66407 0.16377 -0.16600
C 	C 	0.71113 0.69917 0.96827 -0.29300
N 	N 	0.70313 0.70567 0.01367 -0.23000
N 	N 	0.90013 0.90377 0.05407 -0.22200
C 	C 	0.91763 0.89117 0.04907 -0.29300
N 	N 	0.84753 0.11327 0.93247 -0.29900
C 	C 	0.85463 0.12887 0.88897 -0.20500
C 	C 	0.65343 0.82917 0.41127 -0.25900
N 	N 	0.67033 0.84317 0.36837 -0.31300
C 	C 	0.59253 0.56787 0.19977 -0.32000
N 	N 	0.55263 0.54477 0.19017 -0.30900
C 	C 	0.63693 0.98417 0.33237 -0.22200
N 	N 	0.64933 0.97547 0.30527 -0.23700
