data_crystal

_cell_length_a 16.73800
_cell_length_b 17.16200
_cell_length_c 17.20900
_cell_angle_alpha 90.00000
_cell_angle_beta  90.00000
_cell_angle_gamma 90.00000

_symmetry_space_group_name_	'P 1'
_symmetry_space_group_name_H-M	'P 1'

loop_
_symmetry_equiv_pos_as_xyz
  x,y,z

loop_
_atom_site_label
_atom_site_type_symbol
_atom_site_fract_x
_atom_site_fract_y
_atom_site_fract_z
_atom_site_charge
Ho	Ho	0.08420 0.03992 0.34906 1.86000
O 	O 	0.95830 0.03990 0.29430 -0.66400
O 	O 	0.99790 0.11110 0.43410 -0.52100
O 	O 	0.09150 0.02330 0.21100 -0.59000
O 	O 	0.05100 0.91060 0.30970 -0.63100
O 	O 	0.21030 0.98250 0.34680 -0.55500
O 	O 	0.06950 0.95980 0.46360 -0.51400
O 	O 	0.10900 0.16650 0.30130 -0.52900
Ho	Ho	0.90917 0.91467 0.31011 1.75200
Ho	Ho	0.96639 0.06049 0.15506 1.87500
S 	S 	0.97549 0.11235 0.51682 0.89200
Ho	Ho	0.09590 0.88619 0.18475 1.56300
S 	S 	0.26611 0.96547 0.28292 0.99900
O 	O 	0.96220 0.92800 0.18150 -0.62500
O 	O 	0.91830 0.79090 0.25670 -0.55000
O 	O 	0.95140 0.88380 0.43590 -0.55400
O 	O 	0.79570 0.96070 0.24900 -0.57800
O 	O 	0.88940 0.99700 0.05890 -0.51600
O 	O 	0.00710 0.17960 0.20380 -0.56900
O 	O 	0.05620 0.06740 0.05200 -0.54600
O 	O 	0.83270 0.08120 0.18810 -0.56700
O 	O 	0.92480 0.17940 0.53310 -0.36900
O 	O 	0.22410 0.92060 0.22290 -0.57300
O 	O 	0.10790 0.93750 0.06300 -0.57000
S 	S 	0.91302 0.70659 0.27144 0.89700
S 	S 	0.88145 0.98593 0.97529 0.93200
O 	O 	0.85460 0.69020 0.33180 -0.36800
O 	O 	0.80310 0.95360 0.95760 -0.36300
Ho	Ho	0.41580 0.46008 0.34906 1.85300
O 	O 	0.54170 0.46010 0.29430 -0.66300
O 	O 	0.50210 0.38890 0.43410 -0.52000
O 	O 	0.40850 0.47670 0.21100 -0.59300
O 	O 	0.44900 0.58940 0.30970 -0.63100
O 	O 	0.28970 0.51750 0.34680 -0.55500
O 	O 	0.43050 0.54020 0.46360 -0.51400
O 	O 	0.39100 0.33350 0.30130 -0.53000
Ho	Ho	0.59083 0.58533 0.31011 1.74800
Ho	Ho	0.53361 0.43951 0.15506 1.88900
S 	S 	0.52451 0.38765 0.51682 0.89100
Ho	Ho	0.40410 0.61381 0.18475 1.56200
S 	S 	0.23389 0.53453 0.28292 0.99800
O 	O 	0.53780 0.57200 0.18150 -0.62700
O 	O 	0.58170 0.70910 0.25670 -0.55000
O 	O 	0.54860 0.61620 0.43590 -0.55500
O 	O 	0.70430 0.53930 0.24900 -0.58100
O 	O 	0.61060 0.50300 0.05890 -0.52000
O 	O 	0.49290 0.32040 0.20380 -0.57300
O 	O 	0.44380 0.43260 0.05200 -0.55000
O 	O 	0.66730 0.41880 0.18810 -0.56800
O 	O 	0.57520 0.32060 0.53310 -0.36900
O 	O 	0.27590 0.57940 0.22290 -0.57300
O 	O 	0.39210 0.56250 0.06300 -0.57200
S 	S 	0.58698 0.79341 0.27144 0.89700
S 	S 	0.61855 0.51407 0.97529 0.93400
O 	O 	0.64540 0.80980 0.33180 -0.36800
O 	O 	0.69690 0.54640 0.95760 -0.36300
Ho	Ho	0.91580 0.53992 0.15095 1.84800
O 	O 	0.04170 0.53990 0.20570 -0.66200
O 	O 	0.00210 0.61110 0.06590 -0.51400
O 	O 	0.90850 0.52330 0.28900 -0.59400
O 	O 	0.94900 0.41060 0.19030 -0.63200
O 	O 	0.78970 0.48250 0.15320 -0.55400
O 	O 	0.93050 0.45980 0.03640 -0.51300
O 	O 	0.89100 0.66650 0.19870 -0.53000
Ho	Ho	0.09083 0.41467 0.18989 1.74900
Ho	Ho	0.03361 0.56049 0.34494 1.89200
S 	S 	0.02451 0.61235 0.98318 0.87900
Ho	Ho	0.90410 0.38619 0.31525 1.55900
S 	S 	0.73389 0.46547 0.21708 0.99800
O 	O 	0.03780 0.42800 0.31850 -0.62600
O 	O 	0.08170 0.29090 0.24330 -0.54900
O 	O 	0.04860 0.38380 0.06410 -0.55000
O 	O 	0.20430 0.46070 0.25100 -0.58100
O 	O 	0.11060 0.49700 0.44110 -0.51900
O 	O 	0.99290 0.67960 0.29620 -0.57400
O 	O 	0.94380 0.56740 0.44800 -0.55000
O 	O 	0.16730 0.58120 0.31190 -0.56800
O 	O 	0.07520 0.67940 0.96690 -0.36900
O 	O 	0.77590 0.42060 0.27710 -0.57300
O 	O 	0.89210 0.43750 0.43700 -0.57200
S 	S 	0.08698 0.20659 0.22856 0.89700
S 	S 	0.11855 0.48593 0.52471 0.93400
O 	O 	0.14540 0.19020 0.16820 -0.36800
O 	O 	0.19690 0.45360 0.54240 -0.36300
Ho	Ho	0.58420 0.96008 0.15095 1.85800
O 	O 	0.45830 0.96010 0.20570 -0.66300
O 	O 	0.49790 0.88890 0.06590 -0.51800
O 	O 	0.59150 0.97670 0.28900 -0.59300
O 	O 	0.55100 0.08940 0.19030 -0.63200
O 	O 	0.71030 0.01750 0.15320 -0.55600
O 	O 	0.56950 0.04020 0.03640 -0.51500
O 	O 	0.60900 0.83350 0.19870 -0.53000
Ho	Ho	0.40917 0.08533 0.18989 1.74700
Ho	Ho	0.46639 0.93951 0.34494 1.89100
S 	S 	0.47549 0.88765 0.98318 0.88800
Ho	Ho	0.59590 0.11381 0.31525 1.56000
S 	S 	0.76611 0.03453 0.21708 0.99500
O 	O 	0.46220 0.07200 0.31850 -0.62700
O 	O 	0.41830 0.20910 0.24330 -0.55000
O 	O 	0.45140 0.11620 0.06410 -0.55500
O 	O 	0.29570 0.03930 0.25100 -0.58100
O 	O 	0.38940 0.00300 0.44110 -0.51900
O 	O 	0.50710 0.82040 0.29620 -0.57300
O 	O 	0.55620 0.93260 0.44800 -0.55000
O 	O 	0.33270 0.91880 0.31190 -0.56800
O 	O 	0.42480 0.82060 0.96690 -0.36900
O 	O 	0.72410 0.07940 0.27710 -0.57300
O 	O 	0.60790 0.06250 0.43700 -0.57300
S 	S 	0.41302 0.29341 0.22856 0.89700
S 	S 	0.38145 0.01407 0.52471 0.93600
O 	O 	0.35460 0.30980 0.16820 -0.36800
O 	O 	0.30310 0.04640 0.54240 -0.36300
Ho	Ho	0.91580 0.96008 0.65095 1.85900
O 	O 	0.04170 0.96010 0.70570 -0.66500
O 	O 	0.00210 0.88890 0.56590 -0.52200
O 	O 	0.90850 0.97670 0.78900 -0.59100
O 	O 	0.94900 0.08940 0.69030 -0.63200
O 	O 	0.78970 0.01750 0.65320 -0.55600
O 	O 	0.93050 0.04020 0.53640 -0.51500
O 	O 	0.89100 0.83350 0.69870 -0.53000
Ho	Ho	0.09083 0.08533 0.68989 1.75100
Ho	Ho	0.03361 0.93951 0.84494 1.87400
S 	S 	0.02451 0.88765 0.48318 0.89100
Ho	Ho	0.90410 0.11381 0.81525 1.56300
S 	S 	0.73389 0.03453 0.71708 0.99900
O 	O 	0.03780 0.07200 0.81850 -0.62500
O 	O 	0.08170 0.20910 0.74330 -0.55000
O 	O 	0.04860 0.11620 0.56410 -0.55400
O 	O 	0.20430 0.03930 0.75100 -0.57800
O 	O 	0.11060 0.00300 0.94110 -0.51600
O 	O 	0.99290 0.82040 0.79620 -0.56900
O 	O 	0.94380 0.93260 0.94800 -0.54600
O 	O 	0.16730 0.91880 0.81190 -0.56700
O 	O 	0.07520 0.82060 0.46690 -0.36900
O 	O 	0.77590 0.07940 0.77710 -0.57300
O 	O 	0.89210 0.06250 0.93700 -0.57000
S 	S 	0.08698 0.29341 0.72856 0.89700
S 	S 	0.11855 0.01407 0.02471 0.93200
O 	O 	0.14540 0.30980 0.66820 -0.36800
O 	O 	0.19690 0.04640 0.04240 -0.36300
Ho	Ho	0.58420 0.53992 0.65095 1.85300
O 	O 	0.45830 0.53990 0.70570 -0.66300
O 	O 	0.49790 0.61110 0.56590 -0.52000
O 	O 	0.59150 0.52330 0.78900 -0.59400
O 	O 	0.55100 0.41060 0.69030 -0.63100
O 	O 	0.71030 0.48250 0.65320 -0.55500
O 	O 	0.56950 0.45980 0.53640 -0.51400
O 	O 	0.60900 0.66650 0.69870 -0.53000
Ho	Ho	0.40917 0.41467 0.68989 1.74800
Ho	Ho	0.46639 0.56049 0.84494 1.88900
S 	S 	0.47549 0.61235 0.48318 0.89100
Ho	Ho	0.59590 0.38619 0.81525 1.56200
S 	S 	0.76611 0.46547 0.71708 0.99800
O 	O 	0.46220 0.42800 0.81850 -0.62700
O 	O 	0.41830 0.29090 0.74330 -0.55000
O 	O 	0.45140 0.38380 0.56410 -0.55500
O 	O 	0.29570 0.46070 0.75100 -0.58100
O 	O 	0.38940 0.49700 0.94110 -0.52000
O 	O 	0.50710 0.67960 0.79620 -0.57300
O 	O 	0.55620 0.56740 0.94800 -0.55000
O 	O 	0.33270 0.58120 0.81190 -0.56800
O 	O 	0.42480 0.67940 0.46690 -0.36900
O 	O 	0.72410 0.42060 0.77710 -0.57300
O 	O 	0.60790 0.43750 0.93700 -0.57200
S 	S 	0.41302 0.20659 0.72856 0.89700
S 	S 	0.38145 0.48593 0.02471 0.93400
O 	O 	0.35460 0.19020 0.66820 -0.36800
O 	O 	0.30310 0.45360 0.04240 -0.36300
Ho	Ho	0.08420 0.46008 0.84906 1.84800
O 	O 	0.95830 0.46010 0.79430 -0.66200
O 	O 	0.99790 0.38890 0.93410 -0.51400
O 	O 	0.09150 0.47670 0.71100 -0.59400
O 	O 	0.05100 0.58940 0.80970 -0.63200
O 	O 	0.21030 0.51750 0.84680 -0.55400
O 	O 	0.06950 0.54020 0.96360 -0.51300
O 	O 	0.10900 0.33350 0.80130 -0.53000
Ho	Ho	0.90917 0.58533 0.81011 1.74900
Ho	Ho	0.96639 0.43951 0.65506 1.89200
S 	S 	0.97549 0.38765 0.01682 0.87900
Ho	Ho	0.09590 0.61381 0.68475 1.55900
S 	S 	0.26611 0.53453 0.78292 0.99800
O 	O 	0.96220 0.57200 0.68150 -0.62600
O 	O 	0.91830 0.70910 0.75670 -0.54900
O 	O 	0.95140 0.61620 0.93590 -0.55000
O 	O 	0.79570 0.53930 0.74900 -0.58100
O 	O 	0.88940 0.50300 0.55890 -0.51900
O 	O 	0.00710 0.32040 0.70380 -0.57400
O 	O 	0.05620 0.43260 0.55200 -0.55000
O 	O 	0.83270 0.41880 0.68810 -0.56800
O 	O 	0.92480 0.32060 0.03310 -0.36900
O 	O 	0.22410 0.57940 0.72290 -0.57300
O 	O 	0.10790 0.56250 0.56300 -0.57200
S 	S 	0.91302 0.79341 0.77144 0.89700
S 	S 	0.88145 0.51407 0.47529 0.93400
O 	O 	0.85460 0.80980 0.83180 -0.36800
O 	O 	0.80310 0.54640 0.45760 -0.36300
Ho	Ho	0.41580 0.03992 0.84906 1.85800
O 	O 	0.54170 0.03990 0.79430 -0.66300
O 	O 	0.50210 0.11110 0.93410 -0.51800
O 	O 	0.40850 0.02330 0.71100 -0.59300
O 	O 	0.44900 0.91060 0.80970 -0.63200
O 	O 	0.28970 0.98250 0.84680 -0.55600
O 	O 	0.43050 0.95980 0.96360 -0.51500
O 	O 	0.39100 0.16650 0.80130 -0.53000
Ho	Ho	0.59083 0.91467 0.81011 1.74700
Ho	Ho	0.53361 0.06049 0.65506 1.89100
S 	S 	0.52451 0.11235 0.01682 0.88800
Ho	Ho	0.40410 0.88619 0.68475 1.56000
S 	S 	0.23389 0.96547 0.78292 0.99500
O 	O 	0.53780 0.92800 0.68150 -0.62700
O 	O 	0.58170 0.79090 0.75670 -0.55000
O 	O 	0.54860 0.88380 0.93590 -0.55500
O 	O 	0.70430 0.96070 0.74900 -0.58100
O 	O 	0.61060 0.99700 0.55890 -0.51900
O 	O 	0.49290 0.17960 0.70380 -0.57300
O 	O 	0.44380 0.06740 0.55200 -0.55000
O 	O 	0.66730 0.08120 0.68810 -0.56800
O 	O 	0.57520 0.17940 0.03310 -0.36900
O 	O 	0.27590 0.92060 0.72290 -0.57300
O 	O 	0.39210 0.93750 0.56300 -0.57300
S 	S 	0.58698 0.70659 0.77144 0.89700
S 	S 	0.61855 0.98593 0.47529 0.93600
O 	O 	0.64540 0.69020 0.83180 -0.36800
O 	O 	0.69690 0.95360 0.45760 -0.36300
