data_crystal

_cell_length_a 16.71800
_cell_length_b 17.13000
_cell_length_c 17.17000
_cell_angle_alpha 90.00000
_cell_angle_beta  90.00000
_cell_angle_gamma 90.00000

_symmetry_space_group_name_	'P 1'
_symmetry_space_group_name_H-M	'P 1'

loop_
_symmetry_equiv_pos_as_xyz
  x,y,z

loop_
_atom_site_label
_atom_site_type_symbol
_atom_site_fract_x
_atom_site_fract_y
_atom_site_fract_z
_atom_site_charge
Er	Er	0.59044 0.91458 0.31016 1.70900
Er	Er	0.41586 0.03985 0.34893 1.80600
Er	Er	0.40406 0.88649 0.18476 1.52900
Er	Er	0.53374 0.06027 0.15525 1.84000
S 	S 	0.52460 0.11245 0.51682 0.87800
S 	S 	0.41316 0.20649 0.22857 0.87900
S 	S 	0.61831 0.98581 0.97522 0.91100
S 	S 	0.73371 0.03406 0.21734 0.97500
O 	O 	0.50210 0.11090 0.43380 -0.50900
O 	O 	0.44887 0.91040 0.30949 -0.61800
O 	O 	0.56980 0.04040 0.53670 -0.50400
O 	O 	0.40872 0.02330 0.21099 -0.58100
O 	O 	0.57570 0.17970 0.53260 -0.36000
O 	O 	0.53766 0.92810 0.18136 -0.61200
O 	O 	0.45140 0.11670 0.56470 -0.54500
O 	O 	0.54186 0.03975 0.29451 -0.64800
O 	O 	0.39130 0.16600 0.30170 -0.51900
O 	O 	0.49340 0.17960 0.20360 -0.55800
O 	O 	0.35450 0.19010 0.16790 -0.35800
O 	O 	0.41870 0.29110 0.24300 -0.53800
O 	O 	0.61030 0.99710 0.05910 -0.50500
O 	O 	0.69700 0.95330 0.95740 -0.35300
O 	O 	0.55580 0.93230 0.94740 -0.53700
O 	O 	0.60730 0.06260 0.93670 -0.55800
O 	O 	0.70410 0.95990 0.24930 -0.56500
O 	O 	0.66710 0.08130 0.18820 -0.55500
O 	O 	0.78960 0.01670 0.15320 -0.54400
O 	O 	0.77590 0.07890 0.27760 -0.56000
Er	Er	0.90956 0.58542 0.31016 1.70700
Er	Er	0.08414 0.46015 0.34893 1.80700
Er	Er	0.09594 0.61351 0.18476 1.53000
Er	Er	0.96626 0.43973 0.15525 1.83700
S 	S 	0.97540 0.38755 0.51682 0.87800
S 	S 	0.08684 0.29351 0.22857 0.87800
S 	S 	0.88169 0.51419 0.97522 0.91900
S 	S 	0.76629 0.46594 0.21734 0.97800
O 	O 	0.99790 0.38910 0.43380 -0.51000
O 	O 	0.05113 0.58960 0.30949 -0.61800
O 	O 	0.93020 0.45960 0.53670 -0.50400
O 	O 	0.09128 0.47670 0.21099 -0.58000
O 	O 	0.92430 0.32030 0.53260 -0.36000
O 	O 	0.96234 0.57190 0.18136 -0.61300
O 	O 	0.04860 0.38330 0.56470 -0.54500
O 	O 	0.95814 0.46025 0.29451 -0.64800
O 	O 	0.10870 0.33400 0.30170 -0.51800
O 	O 	0.00660 0.32040 0.20360 -0.55500
O 	O 	0.14550 0.30990 0.16790 -0.35800
O 	O 	0.08130 0.20890 0.24300 -0.53800
O 	O 	0.88970 0.50290 0.05910 -0.51100
O 	O 	0.80300 0.54670 0.95740 -0.35400
O 	O 	0.94420 0.56770 0.94740 -0.53500
O 	O 	0.89270 0.43740 0.93670 -0.56000
O 	O 	0.79590 0.54010 0.24930 -0.56700
O 	O 	0.83290 0.41870 0.18820 -0.55400
O 	O 	0.71040 0.48330 0.15320 -0.54200
O 	O 	0.72410 0.42110 0.27760 -0.56100
Er	Er	0.40956 0.41458 0.18984 1.70700
Er	Er	0.58414 0.53985 0.15107 1.80500
Er	Er	0.59594 0.38649 0.31524 1.52800
Er	Er	0.46626 0.56027 0.34475 1.84400
S 	S 	0.47540 0.61245 0.98318 0.87600
S 	S 	0.58684 0.70649 0.27143 0.87900
S 	S 	0.38169 0.48581 0.52478 0.91600
S 	S 	0.26629 0.53406 0.28266 0.97800
O 	O 	0.49790 0.61090 0.06620 -0.50800
O 	O 	0.55113 0.41040 0.19051 -0.61800
O 	O 	0.43020 0.54040 0.96330 -0.50500
O 	O 	0.59128 0.52330 0.28901 -0.58100
O 	O 	0.42430 0.67970 0.96740 -0.36100
O 	O 	0.46234 0.42810 0.31864 -0.61300
O 	O 	0.54860 0.61670 0.93530 -0.54500
O 	O 	0.45814 0.53975 0.20549 -0.64800
O 	O 	0.60870 0.66600 0.19830 -0.51900
O 	O 	0.50660 0.67960 0.29640 -0.55800
O 	O 	0.64550 0.69010 0.33210 -0.35800
O 	O 	0.58130 0.79110 0.25700 -0.53800
O 	O 	0.38970 0.49710 0.44090 -0.50800
O 	O 	0.30300 0.45330 0.54260 -0.35300
O 	O 	0.44420 0.43230 0.55260 -0.53700
O 	O 	0.39270 0.56260 0.56330 -0.56100
O 	O 	0.29590 0.45990 0.25070 -0.56800
O 	O 	0.33290 0.58130 0.31180 -0.55500
O 	O 	0.21040 0.51670 0.34680 -0.54200
O 	O 	0.22410 0.57890 0.22240 -0.56100
Er	Er	0.09044 0.08542 0.18984 1.71100
Er	Er	0.91586 0.96015 0.15107 1.81000
Er	Er	0.90406 0.11351 0.31524 1.52300
Er	Er	0.03374 0.93973 0.34475 1.84200
S 	S 	0.02460 0.88755 0.98318 0.86300
S 	S 	0.91316 0.79351 0.27143 0.87900
S 	S 	0.11831 0.01419 0.52478 0.91900
S 	S 	0.23371 0.96594 0.28266 0.97800
O 	O 	0.00210 0.88910 0.06620 -0.50300
O 	O 	0.94887 0.08960 0.19051 -0.62100
O 	O 	0.06980 0.95960 0.96330 -0.50600
O 	O 	0.90872 0.97670 0.28901 -0.57900
O 	O 	0.07570 0.82030 0.96740 -0.36000
O 	O 	0.03766 0.07190 0.31864 -0.61100
O 	O 	0.95140 0.88330 0.93530 -0.53900
O 	O 	0.04186 0.96025 0.20549 -0.64700
O 	O 	0.89130 0.83400 0.19830 -0.51900
O 	O 	0.99340 0.82040 0.29640 -0.55800
O 	O 	0.85450 0.80990 0.33210 -0.35800
O 	O 	0.91870 0.70890 0.25700 -0.53800
O 	O 	0.11030 0.00290 0.44090 -0.50800
O 	O 	0.19700 0.04670 0.54260 -0.35300
O 	O 	0.05580 0.06770 0.55260 -0.53600
O 	O 	0.10730 0.93740 0.56330 -0.56300
O 	O 	0.20410 0.04010 0.25070 -0.56800
O 	O 	0.16710 0.91870 0.31180 -0.55500
O 	O 	0.28960 0.98330 0.34680 -0.54200
O 	O 	0.27590 0.92110 0.22240 -0.56000
Er	Er	0.40956 0.08542 0.68984 1.70900
Er	Er	0.58414 0.96015 0.65107 1.80600
Er	Er	0.59594 0.11351 0.81524 1.52900
Er	Er	0.46626 0.93973 0.84475 1.84000
S 	S 	0.47540 0.88755 0.48318 0.87800
S 	S 	0.58684 0.79351 0.77143 0.87900
S 	S 	0.38169 0.01419 0.02478 0.91100
S 	S 	0.26629 0.96594 0.78266 0.97500
O 	O 	0.49790 0.88910 0.56620 -0.50900
O 	O 	0.55113 0.08960 0.69051 -0.61800
O 	O 	0.43020 0.95960 0.46330 -0.50400
O 	O 	0.59128 0.97670 0.78901 -0.58100
O 	O 	0.42430 0.82030 0.46740 -0.36000
O 	O 	0.46234 0.07190 0.81864 -0.61200
O 	O 	0.54860 0.88330 0.43530 -0.54500
O 	O 	0.45814 0.96025 0.70549 -0.64800
O 	O 	0.60870 0.83400 0.69830 -0.51900
O 	O 	0.50660 0.82040 0.79640 -0.55800
O 	O 	0.64550 0.80990 0.83210 -0.35800
O 	O 	0.58130 0.70890 0.75700 -0.53800
O 	O 	0.38970 0.00290 0.94090 -0.50500
O 	O 	0.30300 0.04670 0.04260 -0.35300
O 	O 	0.44420 0.06770 0.05260 -0.53700
O 	O 	0.39270 0.93740 0.06330 -0.55800
O 	O 	0.29590 0.04010 0.75070 -0.56500
O 	O 	0.33290 0.91870 0.81180 -0.55500
O 	O 	0.21040 0.98330 0.84680 -0.54400
O 	O 	0.22410 0.92110 0.72240 -0.56000
Er	Er	0.09044 0.41458 0.68984 1.70700
Er	Er	0.91586 0.53985 0.65107 1.80700
Er	Er	0.90406 0.38649 0.81524 1.53000
Er	Er	0.03374 0.56027 0.84475 1.83700
S 	S 	0.02460 0.61245 0.48318 0.87800
S 	S 	0.91316 0.70649 0.77143 0.87800
S 	S 	0.11831 0.48581 0.02478 0.91900
S 	S 	0.23371 0.53406 0.78266 0.97800
O 	O 	0.00210 0.61090 0.56620 -0.51000
O 	O 	0.94887 0.41040 0.69051 -0.61800
O 	O 	0.06980 0.54040 0.46330 -0.50400
O 	O 	0.90872 0.52330 0.78901 -0.58000
O 	O 	0.07570 0.67970 0.46740 -0.36000
O 	O 	0.03766 0.42810 0.81864 -0.61300
O 	O 	0.95140 0.61670 0.43530 -0.54500
O 	O 	0.04186 0.53975 0.70549 -0.64800
O 	O 	0.89130 0.66600 0.69830 -0.51800
O 	O 	0.99340 0.67960 0.79640 -0.55500
O 	O 	0.85450 0.69010 0.83210 -0.35800
O 	O 	0.91870 0.79110 0.75700 -0.53800
O 	O 	0.11030 0.49710 0.94090 -0.51100
O 	O 	0.19700 0.45330 0.04260 -0.35400
O 	O 	0.05580 0.43230 0.05260 -0.53500
O 	O 	0.10730 0.56260 0.06330 -0.56000
O 	O 	0.20410 0.45990 0.75070 -0.56700
O 	O 	0.16710 0.58130 0.81180 -0.55400
O 	O 	0.28960 0.51670 0.84680 -0.54200
O 	O 	0.27590 0.57890 0.72240 -0.56100
Er	Er	0.59044 0.58542 0.81016 1.70700
Er	Er	0.41586 0.46015 0.84893 1.80500
Er	Er	0.40406 0.61351 0.68476 1.52800
Er	Er	0.53374 0.43973 0.65525 1.84400
S 	S 	0.52460 0.38755 0.01682 0.87600
S 	S 	0.41316 0.29351 0.72857 0.87900
S 	S 	0.61831 0.51419 0.47522 0.91600
S 	S 	0.73371 0.46594 0.71734 0.97800
O 	O 	0.50210 0.38910 0.93380 -0.50800
O 	O 	0.44887 0.58960 0.80949 -0.61800
O 	O 	0.56980 0.45960 0.03670 -0.50500
O 	O 	0.40872 0.47670 0.71099 -0.58100
O 	O 	0.57570 0.32030 0.03260 -0.36100
O 	O 	0.53766 0.57190 0.68136 -0.61300
O 	O 	0.45140 0.38330 0.06470 -0.54500
O 	O 	0.54186 0.46025 0.79451 -0.64800
O 	O 	0.39130 0.33400 0.80170 -0.51900
O 	O 	0.49340 0.32040 0.70360 -0.55800
O 	O 	0.35450 0.30990 0.66790 -0.35800
O 	O 	0.41870 0.20890 0.74300 -0.53800
O 	O 	0.61030 0.50290 0.55910 -0.50800
O 	O 	0.69700 0.54670 0.45740 -0.35300
O 	O 	0.55580 0.56770 0.44740 -0.53700
O 	O 	0.60730 0.43740 0.43670 -0.56100
O 	O 	0.70410 0.54010 0.74930 -0.56800
O 	O 	0.66710 0.41870 0.68820 -0.55500
O 	O 	0.78960 0.48330 0.65320 -0.54200
O 	O 	0.77590 0.42110 0.77760 -0.56100
Er	Er	0.90956 0.91458 0.81016 1.71100
Er	Er	0.08414 0.03985 0.84893 1.81000
Er	Er	0.09594 0.88649 0.68476 1.52300
Er	Er	0.96626 0.06027 0.65525 1.84200
S 	S 	0.97540 0.11245 0.01682 0.86300
S 	S 	0.08684 0.20649 0.72857 0.87900
S 	S 	0.88169 0.98581 0.47522 0.91900
S 	S 	0.76629 0.03406 0.71734 0.97800
O 	O 	0.99790 0.11090 0.93380 -0.50300
O 	O 	0.05113 0.91040 0.80949 -0.62100
O 	O 	0.93020 0.04040 0.03670 -0.50600
O 	O 	0.09128 0.02330 0.71099 -0.57900
O 	O 	0.92430 0.17970 0.03260 -0.36000
O 	O 	0.96234 0.92810 0.68136 -0.61100
O 	O 	0.04860 0.11670 0.06470 -0.53900
O 	O 	0.95814 0.03975 0.79451 -0.64700
O 	O 	0.10870 0.16600 0.80170 -0.51900
O 	O 	0.00660 0.17960 0.70360 -0.55800
O 	O 	0.14550 0.19010 0.66790 -0.35800
O 	O 	0.08130 0.29110 0.74300 -0.53800
O 	O 	0.88970 0.99710 0.55910 -0.50800
O 	O 	0.80300 0.95330 0.45740 -0.35300
O 	O 	0.94420 0.93230 0.44740 -0.53600
O 	O 	0.89270 0.06260 0.43670 -0.56300
O 	O 	0.79590 0.95990 0.74930 -0.56800
O 	O 	0.83290 0.08130 0.68820 -0.55500
O 	O 	0.71040 0.01670 0.65320 -0.54200
O 	O 	0.72410 0.07890 0.77760 -0.56000
