data_crystal

_cell_length_a 8.72530
_cell_length_b 12.78090
_cell_length_c 19.47460
_cell_angle_alpha 90.00000
_cell_angle_beta  90.00000
_cell_angle_gamma 109.95900

_symmetry_space_group_name_	'P 1'
_symmetry_space_group_name_H-M	'P 1'

loop_
_symmetry_equiv_pos_as_xyz
  x,y,z

loop_
_atom_site_label
_atom_site_type_symbol
_atom_site_fract_x
_atom_site_fract_y
_atom_site_fract_z
_atom_site_charge
Nd	Nd	0.25807 0.51614 0.50000 2.08200
Nd	Nd	0.74193 0.48386 -0.00000 1.69100
Nd	Nd	0.74193 0.48386 0.50000 2.08600
Nd	Nd	0.25807 0.51614 -0.00000 1.67600
H 	H 	0.23900 0.90320 0.54160 0.03500
H 	H 	0.66280 0.66600 0.68680 0.16400
H 	H 	0.66020 0.54040 0.68400 0.17300
H 	H 	0.76100 0.09680 0.04160 0.01900
H 	H 	0.33720 0.33400 0.18680 0.15300
H 	H 	0.33980 0.45960 0.18400 0.17100
H 	H 	0.33580 0.09680 0.95840 0.02900
H 	H 	0.99680 0.33400 0.81320 0.16800
H 	H 	0.11980 0.45960 0.81600 0.17500
H 	H 	0.66420 0.90320 0.45840 0.03400
H 	H 	0.00320 0.66600 0.31320 0.13800
H 	H 	0.88020 0.54040 0.31600 0.15600
H 	H 	0.76100 0.09680 0.45840 0.03400
H 	H 	0.33720 0.33400 0.31320 0.15700
H 	H 	0.33980 0.45960 0.31600 0.17000
H 	H 	0.23900 0.90320 0.95840 0.02700
H 	H 	0.66280 0.66600 0.81320 0.17400
H 	H 	0.66020 0.54040 0.81600 0.17800
H 	H 	0.66420 0.90320 0.04160 0.01800
H 	H 	0.00320 0.66600 0.18680 0.13100
H 	H 	0.88020 0.54040 0.18400 0.15600
H 	H 	0.33580 0.09680 0.54160 0.03500
H 	H 	0.99680 0.33400 0.68680 0.16100
H 	H 	0.11980 0.45960 0.68400 0.17100
H 	H 	0.41280 0.60420 0.75000 -0.04100
H 	H 	0.42030 0.48100 0.75000 -0.06600
H 	H 	0.58720 0.39580 0.25000 -0.04600
H 	H 	0.57970 0.51900 0.25000 -0.07000
H 	H 	0.80860 0.39580 0.75000 -0.03700
H 	H 	0.93930 0.51900 0.75000 -0.06300
H 	H 	0.19140 0.60420 0.25000 -0.03100
H 	H 	0.06070 0.48100 0.25000 -0.05600
C 	C 	0.34531 0.94242 0.52466 -0.02500
C 	C 	0.49228 0.56876 0.61974 0.52300
C 	C 	0.59026 0.58732 0.68508 -0.52600
C 	C 	0.65469 0.05758 0.02466 -0.02100
C 	C 	0.50772 0.43124 0.11974 0.50000
C 	C 	0.40974 0.41268 0.18508 -0.51700
C 	C 	0.40289 0.05758 0.97534 0.12000
C 	C 	0.92352 0.43124 0.88026 0.48800
C 	C 	0.00294 0.41268 0.81492 -0.49500
C 	C 	0.59711 0.94242 0.47534 -0.02400
C 	C 	0.07648 0.56876 0.38026 0.49500
C 	C 	0.99706 0.58732 0.31492 -0.46600
C 	C 	0.65469 0.05758 0.47534 -0.02400
C 	C 	0.50772 0.43124 0.38026 0.52100
C 	C 	0.40974 0.41268 0.31492 -0.52400
C 	C 	0.34531 0.94242 0.97534 0.12800
C 	C 	0.49228 0.56876 0.88026 0.49700
C 	C 	0.59026 0.58732 0.81492 -0.51000
C 	C 	0.59711 0.94242 0.02466 -0.02200
C 	C 	0.07648 0.56876 0.11974 0.46800
C 	C 	0.99706 0.58732 0.18508 -0.45300
C 	C 	0.40289 0.05758 0.52466 -0.02300
C 	C 	0.92352 0.43124 0.61974 0.52000
C 	C 	0.00294 0.41268 0.68508 -0.51600
C 	C 	0.37958 0.75916 0.50000 0.32300
C 	C 	0.44175 0.88350 0.50000 -0.07300
C 	C 	0.62042 0.24084 -0.00000 0.15800
C 	C 	0.55825 0.11650 -0.00000 -0.19800
C 	C 	0.62042 0.24084 0.50000 0.32300
C 	C 	0.55825 0.11650 0.50000 -0.07400
C 	C 	0.37958 0.75916 -0.00000 0.15600
C 	C 	0.44175 0.88350 -0.00000 -0.20200
C 	C 	0.48764 0.56088 0.75000 0.29900
C 	C 	0.51236 0.43912 0.25000 0.30000
C 	C 	0.92676 0.43912 0.75000 0.28500
C 	C 	0.07324 0.56088 0.25000 0.24000
O 	O 	0.23509 0.70698 0.51954 -0.42900
O 	O 	0.35586 0.58272 0.61886 -0.49900
O 	O 	0.54654 0.53908 0.56543 -0.66200
O 	O 	0.76491 0.29302 0.01954 -0.39600
O 	O 	0.64414 0.41728 0.11886 -0.47200
O 	O 	0.45346 0.46092 0.06543 -0.63400
O 	O 	0.52811 0.29302 0.98046 -0.21600
O 	O 	0.77314 0.41728 0.88114 -0.41700
O 	O 	0.00746 0.46092 0.93457 -0.50500
O 	O 	0.47189 0.70698 0.48046 -0.42900
O 	O 	0.22686 0.58272 0.38114 -0.49500
O 	O 	0.99254 0.53908 0.43457 -0.65100
O 	O 	0.76491 0.29302 0.48046 -0.42900
O 	O 	0.64414 0.41728 0.38114 -0.50000
O 	O 	0.45346 0.46092 0.43457 -0.66200
O 	O 	0.23509 0.70698 0.98046 -0.21300
O 	O 	0.35586 0.58272 0.88114 -0.41600
O 	O 	0.54654 0.53908 0.93457 -0.50800
O 	O 	0.47189 0.70698 0.01954 -0.39700
O 	O 	0.22686 0.58272 0.11886 -0.46500
O 	O 	0.99254 0.53908 0.06543 -0.61900
O 	O 	0.52811 0.29302 0.51954 -0.42900
O 	O 	0.77314 0.41728 0.61886 -0.49800
O 	O 	0.00746 0.46092 0.56543 -0.66200
