data_crystal

_cell_length_a 13.51140
_cell_length_b 13.51140
_cell_length_c 8.05890
_cell_angle_alpha 90.00000
_cell_angle_beta  90.00000
_cell_angle_gamma 120.00000

_symmetry_space_group_name_	'P 1'
_symmetry_space_group_name_H-M	'P 1'

loop_
_symmetry_equiv_pos_as_xyz
  x,y,z

loop_
_atom_site_label
_atom_site_type_symbol
_atom_site_fract_x
_atom_site_fract_y
_atom_site_fract_z
_atom_site_charge
Mn	Mn	0.30247 0.33808 0.54568 1.26200
O 	O 	0.22890 0.18047 0.40650 -0.42300
C 	C 	0.53511 0.32253 0.54880 -0.24400
C 	C 	0.35407 0.55993 0.77650 -0.20000
O 	O 	0.24345 0.05717 0.24514 -0.44600
C 	C 	0.26635 0.15693 0.27990 0.37700
N 	N 	0.34674 0.20787 0.99970 -0.25000
H 	H 	0.41120 0.25590 0.94480 0.10700
H 	H 	0.28640 0.19770 0.93910 0.14700
C 	C 	0.34533 0.25423 0.16350 -0.25300
H 	H 	0.42270 0.28650 0.20860 0.06200
N 	N 	0.36706 0.42788 0.30220 -0.34600
H 	H 	0.34990 0.48410 0.29470 0.08700
H 	H 	0.44370 0.46060 0.30040 0.08700
C 	C 	0.31960 0.35242 0.15510 0.03400
H 	H 	0.35280 0.39660 0.05500 -0.03100
H 	H 	0.23760 0.32150 0.15060 -0.00800
N 	N 	0.45571 0.32051 0.60580 -0.18500
N 	N 	0.36818 0.49968 0.69040 -0.19800
Mn	Mn	0.66192 0.96439 0.54568 1.25900
O 	O 	0.81953 0.04843 0.40650 -0.42100
C 	C 	0.67747 0.21258 0.54880 -0.24400
C 	C 	0.44007 0.79414 0.77650 -0.20100
O 	O 	0.94283 0.18628 0.24514 -0.44700
C 	C 	0.84307 0.10942 0.27990 0.37700
N 	N 	0.79213 0.13887 0.99970 -0.24800
H 	H 	0.74410 0.15530 0.94480 0.10800
H 	H 	0.80230 0.08870 0.93910 0.14900
C 	C 	0.74577 0.09110 0.16350 -0.25500
H 	H 	0.71350 0.13620 0.20860 0.06200
N 	N 	0.57212 0.93918 0.30220 -0.34600
H 	H 	0.51590 0.86580 0.29470 0.08700
H 	H 	0.53940 0.98310 0.30040 0.08700
C 	C 	0.64758 0.96718 0.15510 0.03400
H 	H 	0.60340 0.95620 0.05500 -0.03000
H 	H 	0.67850 0.91610 0.15060 -0.00800
N 	N 	0.67949 0.13520 0.60580 -0.18400
N 	N 	0.50032 0.86850 0.69040 -0.19900
Mn	Mn	0.03561 0.69753 0.54568 1.25900
O 	O 	0.95157 0.77110 0.40650 -0.42200
C 	C 	0.78742 0.46489 0.54880 -0.24400
C 	C 	0.20586 0.64593 0.77650 -0.20200
O 	O 	0.81372 0.75655 0.24514 -0.44700
C 	C 	0.89058 0.73365 0.27990 0.37600
N 	N 	0.86113 0.65326 0.99970 -0.25000
H 	H 	0.84470 0.58880 0.94480 0.10800
H 	H 	0.91130 0.71360 0.93910 0.14800
C 	C 	0.90890 0.65467 0.16350 -0.25200
H 	H 	0.86380 0.57730 0.20860 0.06100
N 	N 	0.06082 0.63294 0.30220 -0.34600
H 	H 	0.13420 0.65010 0.29470 0.08700
H 	H 	0.01690 0.55630 0.30040 0.08600
C 	C 	0.03282 0.68040 0.15510 0.03200
H 	H 	0.04380 0.64720 0.05500 -0.02900
H 	H 	0.08390 0.76240 0.15060 -0.00700
N 	N 	0.86480 0.54429 0.60580 -0.18400
N 	N 	0.13150 0.63182 0.69040 -0.19900
Mn	Mn	0.69753 0.66192 0.04568 1.21900
O 	O 	0.77110 0.81953 0.90650 -0.36400
C 	C 	0.46489 0.67747 0.04880 -0.31400
C 	C 	0.64593 0.44007 0.27650 -0.25600
O 	O 	0.75655 0.94283 0.74514 -0.40600
C 	C 	0.73365 0.84307 0.77990 0.35700
N 	N 	0.65326 0.79213 0.49970 -0.31000
H 	H 	0.58880 0.74410 0.44480 0.08600
H 	H 	0.71360 0.80230 0.43910 0.12900
C 	C 	0.65467 0.74577 0.66350 -0.14900
H 	H 	0.57730 0.71350 0.70860 0.05400
N 	N 	0.63294 0.57212 0.80220 -0.33000
H 	H 	0.65010 0.51590 0.79470 0.10200
H 	H 	0.55630 0.53940 0.80040 0.10800
C 	C 	0.68040 0.64758 0.65510 -0.01700
H 	H 	0.64720 0.60340 0.55500 0.01900
H 	H 	0.76240 0.67850 0.65060 0.03000
N 	N 	0.54429 0.67949 0.10580 -0.19300
N 	N 	0.63182 0.50032 0.19040 -0.21300
Mn	Mn	0.33808 0.03561 0.04568 1.22000
O 	O 	0.18047 0.95157 0.90650 -0.37100
C 	C 	0.32253 0.78742 0.04880 -0.31300
C 	C 	0.55993 0.20586 0.27650 -0.25600
O 	O 	0.05717 0.81372 0.74514 -0.40800
C 	C 	0.15693 0.89058 0.77990 0.35900
N 	N 	0.20787 0.86113 0.49970 -0.30800
H 	H 	0.25590 0.84470 0.44480 0.08500
H 	H 	0.19770 0.91130 0.43910 0.12800
C 	C 	0.25423 0.90890 0.66350 -0.15700
H 	H 	0.28650 0.86380 0.70860 0.05500
N 	N 	0.42788 0.06082 0.80220 -0.33100
H 	H 	0.48410 0.13420 0.79470 0.10200
H 	H 	0.46060 0.01690 0.80040 0.11100
C 	C 	0.35242 0.03282 0.65510 -0.00900
H 	H 	0.39660 0.04380 0.55500 0.01800
H 	H 	0.32150 0.08390 0.65060 0.02800
N 	N 	0.32051 0.86480 0.10580 -0.19200
N 	N 	0.49968 0.13150 0.19040 -0.21300
Mn	Mn	0.96439 0.30247 0.04568 1.21900
O 	O 	0.04843 0.22890 0.90650 -0.36700
C 	C 	0.21258 0.53511 0.04880 -0.31400
C 	C 	0.79414 0.35407 0.27650 -0.25600
O 	O 	0.18628 0.24345 0.74514 -0.40300
C 	C 	0.10942 0.26635 0.77990 0.35900
N 	N 	0.13887 0.34674 0.49970 -0.30800
H 	H 	0.15530 0.41120 0.44480 0.08500
H 	H 	0.08870 0.28640 0.43910 0.12800
C 	C 	0.09110 0.34533 0.66350 -0.15500
H 	H 	0.13620 0.42270 0.70860 0.05500
N 	N 	0.93918 0.36706 0.80220 -0.33100
H 	H 	0.86580 0.34990 0.79470 0.10200
H 	H 	0.98310 0.44370 0.80040 0.11100
C 	C 	0.96718 0.31960 0.65510 -0.01000
H 	H 	0.95620 0.35280 0.55500 0.01800
H 	H 	0.91610 0.23760 0.65060 0.02900
N 	N 	0.13520 0.45571 0.10580 -0.19300
N 	N 	0.86850 0.36818 0.19040 -0.21300
Mn	Mn	0.33333 0.66667 0.92125 1.32700
Mn	Mn	0.66667 0.33333 0.42125 1.28300
