data_crystal

_cell_length_a 13.51600
_cell_length_b 13.51600
_cell_length_c 8.05330
_cell_angle_alpha 90.00000
_cell_angle_beta  90.00000
_cell_angle_gamma 120.00000

_symmetry_space_group_name_	'P 1'
_symmetry_space_group_name_H-M	'P 1'

loop_
_symmetry_equiv_pos_as_xyz
  x,y,z

loop_
_atom_site_label
_atom_site_type_symbol
_atom_site_fract_x
_atom_site_fract_y
_atom_site_fract_z
_atom_site_charge
Mn	Mn	0.30163 0.33841 0.54518 1.26000
O 	O 	0.22904 0.18140 0.40550 -0.42500
C 	C 	0.53450 0.32271 0.54860 -0.24400
C 	C 	0.35370 0.56000 0.77710 -0.19900
O 	O 	0.24483 0.05813 0.24590 -0.44800
C 	C 	0.26710 0.15800 0.27930 0.37600
N 	N 	0.34730 0.20900 0.99960 -0.25000
H 	H 	0.41180 0.25700 0.94480 0.10600
H 	H 	0.28700 0.19900 0.93900 0.14600
C 	C 	0.34580 0.25500 0.16330 -0.25600
H 	H 	0.42320 0.28720 0.20850 0.06200
N 	N 	0.36630 0.42809 0.30260 -0.34700
H 	H 	0.34860 0.48390 0.29480 0.08700
H 	H 	0.44290 0.46130 0.30140 0.08800
C 	C 	0.32010 0.35330 0.15560 0.03700
H 	H 	0.35370 0.39780 0.05590 -0.03100
H 	H 	0.23810 0.32230 0.15020 -0.00900
N 	N 	0.45540 0.32130 0.60370 -0.18400
N 	N 	0.36780 0.50000 0.69130 -0.19700
Mn	Mn	0.66159 0.96322 0.54518 1.26000
O 	O 	0.81860 0.04764 0.40550 -0.42200
C 	C 	0.67729 0.21179 0.54860 -0.24300
C 	C 	0.44000 0.79370 0.77710 -0.20000
O 	O 	0.94187 0.18670 0.24590 -0.44700
C 	C 	0.84200 0.10910 0.27930 0.37700
N 	N 	0.79100 0.13830 0.99960 -0.24800
H 	H 	0.74300 0.15480 0.94480 0.10700
H 	H 	0.80100 0.08800 0.93900 0.14900
C 	C 	0.74500 0.09080 0.16330 -0.25800
H 	H 	0.71280 0.13600 0.20850 0.06300
N 	N 	0.57191 0.93821 0.30260 -0.34700
H 	H 	0.51610 0.86470 0.29480 0.08700
H 	H 	0.53870 0.98160 0.30140 0.08700
C 	C 	0.64670 0.96680 0.15560 0.03700
H 	H 	0.60220 0.95590 0.05590 -0.03100
H 	H 	0.67770 0.91580 0.15020 -0.00900
N 	N 	0.67870 0.13410 0.60370 -0.18300
N 	N 	0.50000 0.86780 0.69130 -0.19800
Mn	Mn	0.03678 0.69837 0.54518 1.26000
O 	O 	0.95236 0.77096 0.40550 -0.42300
C 	C 	0.78821 0.46550 0.54860 -0.24300
C 	C 	0.20630 0.64630 0.77710 -0.20000
O 	O 	0.81330 0.75517 0.24590 -0.44800
C 	C 	0.89090 0.73290 0.27930 0.37700
N 	N 	0.86170 0.65270 0.99960 -0.25000
H 	H 	0.84520 0.58820 0.94480 0.10700
H 	H 	0.91200 0.71300 0.93900 0.14800
C 	C 	0.90920 0.65420 0.16330 -0.25500
H 	H 	0.86400 0.57680 0.20850 0.06200
N 	N 	0.06179 0.63370 0.30260 -0.34700
H 	H 	0.13530 0.65140 0.29480 0.08700
H 	H 	0.01840 0.55710 0.30140 0.08700
C 	C 	0.03320 0.67990 0.15560 0.03500
H 	H 	0.04410 0.64630 0.05590 -0.03000
H 	H 	0.08420 0.76190 0.15020 -0.00800
N 	N 	0.86590 0.54460 0.60370 -0.18300
N 	N 	0.13220 0.63220 0.69130 -0.19800
Mn	Mn	0.69837 0.66159 0.04518 1.21900
O 	O 	0.77096 0.81860 0.90550 -0.36400
C 	C 	0.46550 0.67729 0.04860 -0.31300
C 	C 	0.64630 0.44000 0.27710 -0.25500
O 	O 	0.75517 0.94187 0.74590 -0.40600
C 	C 	0.73290 0.84200 0.77930 0.35700
N 	N 	0.65270 0.79100 0.49960 -0.30900
H 	H 	0.58820 0.74300 0.44480 0.08500
H 	H 	0.71300 0.80100 0.43900 0.12800
C 	C 	0.65420 0.74500 0.66330 -0.15100
H 	H 	0.57680 0.71280 0.70850 0.05500
N 	N 	0.63370 0.57191 0.80260 -0.33200
H 	H 	0.65140 0.51610 0.79480 0.10100
H 	H 	0.55710 0.53870 0.80140 0.10900
C 	C 	0.67990 0.64670 0.65560 -0.01500
H 	H 	0.64630 0.60220 0.55590 0.01900
H 	H 	0.76190 0.67770 0.65020 0.02900
N 	N 	0.54460 0.67870 0.10370 -0.19200
N 	N 	0.63220 0.50000 0.19130 -0.21200
Mn	Mn	0.33841 0.03678 0.04518 1.22000
O 	O 	0.18140 0.95236 0.90550 -0.37200
C 	C 	0.32271 0.78821 0.04860 -0.31200
C 	C 	0.56000 0.20630 0.27710 -0.25500
O 	O 	0.05813 0.81330 0.74590 -0.40900
C 	C 	0.15800 0.89090 0.77930 0.36000
N 	N 	0.20900 0.86170 0.49960 -0.30800
H 	H 	0.25700 0.84520 0.44480 0.08500
H 	H 	0.19900 0.91200 0.43900 0.12700
C 	C 	0.25500 0.90920 0.66330 -0.15800
H 	H 	0.28720 0.86400 0.70850 0.05600
N 	N 	0.42809 0.06179 0.80260 -0.33200
H 	H 	0.48390 0.13530 0.79480 0.10200
H 	H 	0.46130 0.01840 0.80140 0.11100
C 	C 	0.35330 0.03320 0.65560 -0.00600
H 	H 	0.39780 0.04410 0.55590 0.01700
H 	H 	0.32230 0.08420 0.65020 0.02700
N 	N 	0.32130 0.86590 0.10370 -0.19200
N 	N 	0.50000 0.13220 0.19130 -0.21200
Mn	Mn	0.96322 0.30163 0.04518 1.21900
O 	O 	0.04764 0.22904 0.90550 -0.36700
C 	C 	0.21179 0.53450 0.04860 -0.31300
C 	C 	0.79370 0.35370 0.27710 -0.25500
O 	O 	0.18670 0.24483 0.74590 -0.40400
C 	C 	0.10910 0.26710 0.77930 0.35900
N 	N 	0.13830 0.34730 0.49960 -0.30800
H 	H 	0.15480 0.41180 0.44480 0.08500
H 	H 	0.08800 0.28700 0.43900 0.12800
C 	C 	0.09080 0.34580 0.66330 -0.15700
H 	H 	0.13600 0.42320 0.70850 0.05600
N 	N 	0.93821 0.36630 0.80260 -0.33200
H 	H 	0.86470 0.34860 0.79480 0.10200
H 	H 	0.98160 0.44290 0.80140 0.11100
C 	C 	0.96680 0.32010 0.65560 -0.00700
H 	H 	0.95590 0.35370 0.55590 0.01700
H 	H 	0.91580 0.23810 0.65020 0.02800
N 	N 	0.13410 0.45540 0.10370 -0.19200
N 	N 	0.86780 0.36780 0.19130 -0.21200
Mn	Mn	0.33333 0.66667 0.92263 1.32700
Mn	Mn	0.66667 0.33333 0.42263 1.28200
