data_crystal

_cell_length_a 13.52140
_cell_length_b 13.52140
_cell_length_c 8.06860
_cell_angle_alpha 90.00000
_cell_angle_beta  90.00000
_cell_angle_gamma 120.00000

_symmetry_space_group_name_	'P 1'
_symmetry_space_group_name_H-M	'P 1'

loop_
_symmetry_equiv_pos_as_xyz
  x,y,z

loop_
_atom_site_label
_atom_site_type_symbol
_atom_site_fract_x
_atom_site_fract_y
_atom_site_fract_z
_atom_site_charge
Mn	Mn	0.30139 0.33802 0.54531 1.25900
O 	O 	0.23003 0.18142 0.40680 -0.41700
C 	C 	0.53482 0.32273 0.54860 -0.24600
C 	C 	0.35370 0.55990 0.77660 -0.23500
O 	O 	0.24578 0.05806 0.24680 -0.42300
C 	C 	0.26770 0.15790 0.28030 0.35500
N 	N 	0.34680 0.20870 0.00070 -0.33700
H 	H 	0.41120 0.25670 0.94590 0.10400
H 	H 	0.28650 0.19870 0.94040 0.14800
C 	C 	0.34560 0.25470 0.16390 -0.15100
H 	H 	0.42310 0.28720 0.20840 0.04400
N 	N 	0.36580 0.42760 0.30330 -0.33900
H 	H 	0.34820 0.48340 0.29560 0.08700
H 	H 	0.44250 0.46080 0.30200 0.08800
C 	C 	0.31950 0.35250 0.15670 -0.02100
H 	H 	0.35270 0.39700 0.05700 0.01600
H 	H 	0.23750 0.32130 0.15170 0.02500
N 	N 	0.45600 0.32140 0.60370 -0.18700
N 	N 	0.36800 0.50000 0.69100 -0.19500
Mn	Mn	0.66198 0.96337 0.54531 1.25900
O 	O 	0.81858 0.04861 0.40680 -0.41700
C 	C 	0.67727 0.21209 0.54860 -0.24600
C 	C 	0.44010 0.79380 0.77660 -0.23500
O 	O 	0.94194 0.18772 0.24680 -0.42400
C 	C 	0.84210 0.10980 0.28030 0.35500
N 	N 	0.79130 0.13810 0.00070 -0.34000
H 	H 	0.74330 0.15450 0.94590 0.10600
H 	H 	0.80130 0.08780 0.94040 0.15000
C 	C 	0.74530 0.09090 0.16390 -0.15200
H 	H 	0.71280 0.13590 0.20840 0.04400
N 	N 	0.57240 0.93820 0.30330 -0.33900
H 	H 	0.51660 0.86480 0.29560 0.08700
H 	H 	0.53920 0.98170 0.30200 0.08800
C 	C 	0.64750 0.96700 0.15670 -0.02000
H 	H 	0.60300 0.95570 0.05700 0.01600
H 	H 	0.67870 0.91620 0.15170 0.02400
N 	N 	0.67860 0.13460 0.60370 -0.18700
N 	N 	0.50000 0.86800 0.69100 -0.19600
Mn	Mn	0.03663 0.69861 0.54531 1.25900
O 	O 	0.95139 0.76997 0.40680 -0.41700
C 	C 	0.78791 0.46518 0.54860 -0.24600
C 	C 	0.20620 0.64630 0.77660 -0.23600
O 	O 	0.81228 0.75422 0.24680 -0.42300
C 	C 	0.89020 0.73230 0.28030 0.35500
N 	N 	0.86190 0.65320 0.00070 -0.33700
H 	H 	0.84550 0.58880 0.94590 0.10500
H 	H 	0.91220 0.71350 0.94040 0.14800
C 	C 	0.90910 0.65440 0.16390 -0.15200
H 	H 	0.86410 0.57690 0.20840 0.04400
N 	N 	0.06180 0.63420 0.30330 -0.33900
H 	H 	0.13520 0.65180 0.29560 0.08700
H 	H 	0.01830 0.55750 0.30200 0.08800
C 	C 	0.03300 0.68050 0.15670 -0.02000
H 	H 	0.04430 0.64730 0.05700 0.01700
H 	H 	0.08380 0.76250 0.15170 0.02500
N 	N 	0.86540 0.54400 0.60370 -0.18700
N 	N 	0.13200 0.63200 0.69100 -0.19600
Mn	Mn	0.69861 0.66198 0.04531 1.25400
O 	O 	0.76997 0.81858 0.90680 -0.40900
C 	C 	0.46518 0.67727 0.04860 -0.25600
C 	C 	0.64630 0.44010 0.27660 -0.24300
O 	O 	0.75422 0.94194 0.74680 -0.42000
C 	C 	0.73230 0.84210 0.78030 0.35600
N 	N 	0.65320 0.79130 0.50070 -0.31000
H 	H 	0.58880 0.74330 0.44590 0.08600
H 	H 	0.71350 0.80130 0.44040 0.13000
C 	C 	0.65440 0.74530 0.66390 -0.15200
H 	H 	0.57690 0.71280 0.70840 0.04700
N 	N 	0.63420 0.57240 0.80330 -0.33800
H 	H 	0.65180 0.51660 0.79560 0.08900
H 	H 	0.55750 0.53920 0.80200 0.09100
C 	C 	0.68050 0.64750 0.65670 -0.02100
H 	H 	0.64730 0.60300 0.55700 0.02100
H 	H 	0.76250 0.67870 0.65170 0.02800
N 	N 	0.54400 0.67860 0.10370 -0.18800
N 	N 	0.63200 0.50000 0.19100 -0.19700
Mn	Mn	0.33802 0.03663 0.04531 1.25400
O 	O 	0.18142 0.95139 0.90680 -0.41200
C 	C 	0.32273 0.78791 0.04860 -0.25600
C 	C 	0.55990 0.20620 0.27660 -0.24300
O 	O 	0.05806 0.81228 0.74680 -0.42100
C 	C 	0.15790 0.89020 0.78030 0.35700
N 	N 	0.20870 0.86190 0.50070 -0.31000
H 	H 	0.25670 0.84550 0.44590 0.08600
H 	H 	0.19870 0.91220 0.44040 0.13000
C 	C 	0.25470 0.90910 0.66390 -0.15400
H 	H 	0.28720 0.86410 0.70840 0.04700
N 	N 	0.42760 0.06180 0.80330 -0.33800
H 	H 	0.48340 0.13520 0.79560 0.08900
H 	H 	0.46080 0.01830 0.80200 0.09200
C 	C 	0.35250 0.03300 0.65670 -0.01800
H 	H 	0.39700 0.04430 0.55700 0.02100
H 	H 	0.32130 0.08380 0.65170 0.02800
N 	N 	0.32140 0.86540 0.10370 -0.18700
N 	N 	0.50000 0.13200 0.19100 -0.19700
Mn	Mn	0.96337 0.30139 0.04531 1.25400
O 	O 	0.04861 0.23003 0.90680 -0.41000
C 	C 	0.21209 0.53482 0.04860 -0.25600
C 	C 	0.79380 0.35370 0.27660 -0.24300
O 	O 	0.18772 0.24578 0.74680 -0.42000
C 	C 	0.10980 0.26770 0.78030 0.35700
N 	N 	0.13810 0.34680 0.50070 -0.31000
H 	H 	0.15450 0.41120 0.44590 0.08600
H 	H 	0.08780 0.28650 0.44040 0.13000
C 	C 	0.09090 0.34560 0.66390 -0.15300
H 	H 	0.13590 0.42310 0.70840 0.04700
N 	N 	0.93820 0.36580 0.80330 -0.33800
H 	H 	0.86480 0.34820 0.79560 0.08900
H 	H 	0.98170 0.44250 0.80200 0.09200
C 	C 	0.96700 0.31950 0.65670 -0.01800
H 	H 	0.95570 0.35270 0.55700 0.02100
H 	H 	0.91620 0.23750 0.65170 0.02800
N 	N 	0.13460 0.45600 0.10370 -0.18800
N 	N 	0.86800 0.36800 0.19100 -0.19700
Mn	Mn	0.33333 0.66667 0.92189 1.28800
Mn	Mn	0.66667 0.33333 0.42189 1.28200
