data_crystal

_cell_length_a 13.53240
_cell_length_b 13.53240
_cell_length_c 8.06680
_cell_angle_alpha 90.00000
_cell_angle_beta  90.00000
_cell_angle_gamma 120.00000

_symmetry_space_group_name_	'P 1'
_symmetry_space_group_name_H-M	'P 1'

loop_
_symmetry_equiv_pos_as_xyz
  x,y,z

loop_
_atom_site_label
_atom_site_type_symbol
_atom_site_fract_x
_atom_site_fract_y
_atom_site_fract_z
_atom_site_charge
Mn	Mn	0.30192 0.33787 0.54561 1.25900
O 	O 	0.23044 0.18111 0.40710 -0.41800
C 	C 	0.53512 0.32276 0.54840 -0.24700
C 	C 	0.35411 0.56029 0.77610 -0.23600
O 	O 	0.24610 0.05757 0.24740 -0.42200
C 	C 	0.26810 0.15782 0.28130 0.35400
N 	N 	0.34619 0.20801 0.00060 -0.33600
H 	H 	0.41020 0.25590 0.94500 0.10400
H 	H 	0.28560 0.19780 0.94090 0.14800
C 	C 	0.34579 0.25444 0.16390 -0.15100
H 	H 	0.42340 0.28700 0.20770 0.04400
N 	N 	0.36601 0.42703 0.30250 -0.33900
H 	H 	0.34840 0.48280 0.29470 0.08700
H 	H 	0.44260 0.46020 0.30090 0.08800
C 	C 	0.31950 0.35210 0.15620 -0.02000
H 	H 	0.35260 0.39640 0.05630 0.01600
H 	H 	0.23760 0.32080 0.15150 0.02500
N 	N 	0.45641 0.32135 0.60520 -0.18700
N 	N 	0.36851 0.50053 0.68970 -0.19500
Mn	Mn	0.66213 0.96405 0.54561 1.25900
O 	O 	0.81889 0.04933 0.40710 -0.41800
C 	C 	0.67724 0.21236 0.54840 -0.24700
C 	C 	0.43971 0.79382 0.77610 -0.23700
O 	O 	0.94243 0.18853 0.24740 -0.42200
C 	C 	0.84218 0.11028 0.28130 0.35400
N 	N 	0.79199 0.13818 0.00060 -0.34000
H 	H 	0.74410 0.15430 0.94500 0.10700
H 	H 	0.80220 0.08780 0.94090 0.15100
C 	C 	0.74556 0.09135 0.16390 -0.15200
H 	H 	0.71300 0.13640 0.20770 0.04400
N 	N 	0.57297 0.93898 0.30250 -0.33900
H 	H 	0.51720 0.86560 0.29470 0.08700
H 	H 	0.53980 0.98240 0.30090 0.08800
C 	C 	0.64790 0.96740 0.15620 -0.01900
H 	H 	0.60360 0.95620 0.05630 0.01600
H 	H 	0.67920 0.91680 0.15150 0.02400
N 	N 	0.67865 0.13506 0.60520 -0.18700
N 	N 	0.49947 0.86798 0.68970 -0.19600
Mn	Mn	0.03595 0.69808 0.54561 1.25900
O 	O 	0.95067 0.76956 0.40710 -0.41800
C 	C 	0.78764 0.46488 0.54840 -0.24700
C 	C 	0.20618 0.64589 0.77610 -0.23700
O 	O 	0.81147 0.75390 0.24740 -0.42200
C 	C 	0.88972 0.73190 0.28130 0.35400
N 	N 	0.86182 0.65381 0.00060 -0.33700
H 	H 	0.84570 0.58980 0.94500 0.10500
H 	H 	0.91220 0.71440 0.94090 0.14800
C 	C 	0.90865 0.65421 0.16390 -0.15100
H 	H 	0.86360 0.57660 0.20770 0.04400
N 	N 	0.06102 0.63399 0.30250 -0.33900
H 	H 	0.13440 0.65160 0.29470 0.08700
H 	H 	0.01760 0.55740 0.30090 0.08800
C 	C 	0.03260 0.68050 0.15620 -0.02000
H 	H 	0.04380 0.64740 0.05630 0.01600
H 	H 	0.08320 0.76240 0.15150 0.02500
N 	N 	0.86494 0.54359 0.60520 -0.18700
N 	N 	0.13202 0.63149 0.68970 -0.19600
Mn	Mn	0.69808 0.66213 0.04561 1.25400
O 	O 	0.76956 0.81889 0.90710 -0.41000
C 	C 	0.46488 0.67724 0.04840 -0.25600
C 	C 	0.64589 0.43971 0.27610 -0.24400
O 	O 	0.75390 0.94243 0.74740 -0.41900
C 	C 	0.73190 0.84218 0.78130 0.35500
N 	N 	0.65381 0.79199 0.50060 -0.31000
H 	H 	0.58980 0.74410 0.44500 0.08700
H 	H 	0.71440 0.80220 0.44090 0.13100
C 	C 	0.65421 0.74556 0.66390 -0.15100
H 	H 	0.57660 0.71300 0.70770 0.04700
N 	N 	0.63399 0.57297 0.80250 -0.33700
H 	H 	0.65160 0.51720 0.79470 0.08900
H 	H 	0.55740 0.53980 0.80090 0.09200
C 	C 	0.68050 0.64790 0.65620 -0.02000
H 	H 	0.64740 0.60360 0.55630 0.02100
H 	H 	0.76240 0.67920 0.65150 0.02800
N 	N 	0.54359 0.67865 0.10520 -0.18800
N 	N 	0.63149 0.49947 0.18970 -0.19700
Mn	Mn	0.33787 0.03595 0.04561 1.25400
O 	O 	0.18111 0.95067 0.90710 -0.41300
C 	C 	0.32276 0.78764 0.04840 -0.25600
C 	C 	0.56029 0.20618 0.27610 -0.24400
O 	O 	0.05757 0.81147 0.74740 -0.42000
C 	C 	0.15782 0.88972 0.78130 0.35600
N 	N 	0.20801 0.86182 0.50060 -0.30900
H 	H 	0.25590 0.84570 0.44500 0.08700
H 	H 	0.19780 0.91220 0.44090 0.13000
C 	C 	0.25444 0.90865 0.66390 -0.15300
H 	H 	0.28700 0.86360 0.70770 0.04700
N 	N 	0.42703 0.06102 0.80250 -0.33700
H 	H 	0.48280 0.13440 0.79470 0.08900
H 	H 	0.46020 0.01760 0.80090 0.09200
C 	C 	0.35210 0.03260 0.65620 -0.01700
H 	H 	0.39640 0.04380 0.55630 0.02000
H 	H 	0.32080 0.08320 0.65150 0.02700
N 	N 	0.32135 0.86494 0.10520 -0.18800
N 	N 	0.50053 0.13202 0.18970 -0.19700
Mn	Mn	0.96405 0.30192 0.04561 1.25300
O 	O 	0.04933 0.23044 0.90710 -0.41100
C 	C 	0.21236 0.53512 0.04840 -0.25600
C 	C 	0.79382 0.35411 0.27610 -0.24400
O 	O 	0.18853 0.24610 0.74740 -0.41800
C 	C 	0.11028 0.26810 0.78130 0.35500
N 	N 	0.13818 0.34619 0.50060 -0.30900
H 	H 	0.15430 0.41020 0.44500 0.08700
H 	H 	0.08780 0.28560 0.44090 0.13000
C 	C 	0.09135 0.34579 0.66390 -0.15300
H 	H 	0.13640 0.42340 0.70770 0.04700
N 	N 	0.93898 0.36601 0.80250 -0.33700
H 	H 	0.86560 0.34840 0.79470 0.08900
H 	H 	0.98240 0.44260 0.80090 0.09200
C 	C 	0.96740 0.31950 0.65620 -0.01800
H 	H 	0.95620 0.35260 0.55630 0.02000
H 	H 	0.91680 0.23760 0.65150 0.02800
N 	N 	0.13506 0.45641 0.10520 -0.18800
N 	N 	0.86798 0.36851 0.18970 -0.19700
Mn	Mn	0.33333 0.66667 0.92101 1.28900
Mn	Mn	0.66667 0.33333 0.42101 1.28200
