data_crystal

_cell_length_a 13.52930
_cell_length_b 13.52930
_cell_length_c 8.07070
_cell_angle_alpha 90.00000
_cell_angle_beta  90.00000
_cell_angle_gamma 120.00000

_symmetry_space_group_name_	'P 1'
_symmetry_space_group_name_H-M	'P 1'

loop_
_symmetry_equiv_pos_as_xyz
  x,y,z

loop_
_atom_site_label
_atom_site_type_symbol
_atom_site_fract_x
_atom_site_fract_y
_atom_site_fract_z
_atom_site_charge
Mn	Mn	0.30199 0.33804 0.54555 1.25800
O 	O 	0.23050 0.18151 0.40740 -0.41900
C 	C 	0.53510 0.32270 0.54880 -0.24700
C 	C 	0.35390 0.56000 0.77600 -0.23500
O 	O 	0.24620 0.05810 0.24740 -0.42500
C 	C 	0.26780 0.15740 0.28110 0.35900
N 	N 	0.34620 0.20800 0.00060 -0.33600
H 	H 	0.41020 0.25600 0.94520 0.10400
H 	H 	0.28550 0.19780 0.94110 0.14800
C 	C 	0.34570 0.25410 0.16410 -0.15300
H 	H 	0.42330 0.28650 0.20800 0.04400
N 	N 	0.36620 0.42740 0.30230 -0.33900
H 	H 	0.34880 0.48330 0.29440 0.08700
H 	H 	0.44280 0.46040 0.30050 0.08800
C 	C 	0.31930 0.35210 0.15720 -0.01900
H 	H 	0.35180 0.39620 0.05700 0.01500
H 	H 	0.23740 0.32080 0.15330 0.02400
N 	N 	0.45630 0.32130 0.60470 -0.18700
N 	N 	0.36820 0.50060 0.69010 -0.19500
Mn	Mn	0.66196 0.96395 0.54555 1.25900
O 	O 	0.81849 0.04899 0.40740 -0.41900
C 	C 	0.67730 0.21240 0.54880 -0.24700
C 	C 	0.44000 0.79390 0.77600 -0.23500
O 	O 	0.94190 0.18810 0.24740 -0.42600
C 	C 	0.84260 0.11040 0.28110 0.35900
N 	N 	0.79200 0.13820 0.00060 -0.34000
H 	H 	0.74400 0.15420 0.94520 0.10700
H 	H 	0.80220 0.08770 0.94110 0.15100
C 	C 	0.74590 0.09160 0.16410 -0.15400
H 	H 	0.71350 0.13680 0.20800 0.04400
N 	N 	0.57260 0.93880 0.30230 -0.33900
H 	H 	0.51670 0.86550 0.29440 0.08700
H 	H 	0.53960 0.98240 0.30050 0.08800
C 	C 	0.64790 0.96720 0.15720 -0.01800
H 	H 	0.60380 0.95560 0.05700 0.01500
H 	H 	0.67920 0.91660 0.15330 0.02400
N 	N 	0.67870 0.13500 0.60470 -0.18700
N 	N 	0.49940 0.86760 0.69010 -0.19500
Mn	Mn	0.03605 0.69801 0.54555 1.25900
O 	O 	0.95101 0.76950 0.40740 -0.41900
C 	C 	0.78760 0.46490 0.54880 -0.24700
C 	C 	0.20610 0.64610 0.77600 -0.23600
O 	O 	0.81190 0.75380 0.24740 -0.42500
C 	C 	0.88960 0.73220 0.28110 0.35900
N 	N 	0.86180 0.65380 0.00060 -0.33700
H 	H 	0.84580 0.58980 0.94520 0.10500
H 	H 	0.91230 0.71450 0.94110 0.14800
C 	C 	0.90840 0.65430 0.16410 -0.15300
H 	H 	0.86320 0.57670 0.20800 0.04400
N 	N 	0.06120 0.63380 0.30230 -0.33900
H 	H 	0.13450 0.65120 0.29440 0.08700
H 	H 	0.01760 0.55720 0.30050 0.08800
C 	C 	0.03280 0.68070 0.15720 -0.01800
H 	H 	0.04440 0.64820 0.05700 0.01600
H 	H 	0.08340 0.76260 0.15330 0.02400
N 	N 	0.86500 0.54370 0.60470 -0.18700
N 	N 	0.13240 0.63180 0.69010 -0.19500
Mn	Mn	0.69801 0.66196 0.04555 1.25400
O 	O 	0.76950 0.81849 0.90740 -0.41100
C 	C 	0.46490 0.67730 0.04880 -0.25600
C 	C 	0.64610 0.44000 0.27600 -0.24300
O 	O 	0.75380 0.94190 0.74740 -0.42200
C 	C 	0.73220 0.84260 0.78110 0.36000
N 	N 	0.65380 0.79200 0.50060 -0.30900
H 	H 	0.58980 0.74400 0.44520 0.08700
H 	H 	0.71450 0.80220 0.44110 0.13100
C 	C 	0.65430 0.74590 0.66410 -0.15300
H 	H 	0.57670 0.71350 0.70800 0.04700
N 	N 	0.63380 0.57260 0.80230 -0.33700
H 	H 	0.65120 0.51670 0.79440 0.08900
H 	H 	0.55720 0.53960 0.80050 0.09100
C 	C 	0.68070 0.64790 0.65720 -0.01900
H 	H 	0.64820 0.60380 0.55700 0.02100
H 	H 	0.76260 0.67920 0.65330 0.02700
N 	N 	0.54370 0.67870 0.10470 -0.18800
N 	N 	0.63180 0.49940 0.19010 -0.19700
Mn	Mn	0.33804 0.03605 0.04555 1.25400
O 	O 	0.18151 0.95101 0.90740 -0.41400
C 	C 	0.32270 0.78760 0.04880 -0.25600
C 	C 	0.56000 0.20610 0.27600 -0.24300
O 	O 	0.05810 0.81190 0.74740 -0.42300
C 	C 	0.15740 0.88960 0.78110 0.36100
N 	N 	0.20800 0.86180 0.50060 -0.30900
H 	H 	0.25600 0.84580 0.44520 0.08700
H 	H 	0.19780 0.91230 0.44110 0.13000
C 	C 	0.25410 0.90840 0.66410 -0.15500
H 	H 	0.28650 0.86320 0.70800 0.04700
N 	N 	0.42740 0.06120 0.80230 -0.33700
H 	H 	0.48330 0.13450 0.79440 0.08900
H 	H 	0.46040 0.01760 0.80050 0.09200
C 	C 	0.35210 0.03280 0.65720 -0.01600
H 	H 	0.39620 0.04440 0.55700 0.02000
H 	H 	0.32080 0.08340 0.65330 0.02700
N 	N 	0.32130 0.86500 0.10470 -0.18800
N 	N 	0.50060 0.13240 0.19010 -0.19700
Mn	Mn	0.96395 0.30199 0.04555 1.25300
O 	O 	0.04899 0.23050 0.90740 -0.41200
C 	C 	0.21240 0.53510 0.04880 -0.25600
C 	C 	0.79390 0.35390 0.27600 -0.24300
O 	O 	0.18810 0.24620 0.74740 -0.42200
C 	C 	0.11040 0.26780 0.78110 0.36000
N 	N 	0.13820 0.34620 0.50060 -0.30900
H 	H 	0.15420 0.41020 0.44520 0.08700
H 	H 	0.08770 0.28550 0.44110 0.13000
C 	C 	0.09160 0.34570 0.66410 -0.15500
H 	H 	0.13680 0.42330 0.70800 0.04700
N 	N 	0.93880 0.36620 0.80230 -0.33700
H 	H 	0.86550 0.34880 0.79440 0.08900
H 	H 	0.98240 0.44280 0.80050 0.09200
C 	C 	0.96720 0.31930 0.65720 -0.01700
H 	H 	0.95560 0.35180 0.55700 0.02000
H 	H 	0.91660 0.23740 0.65330 0.02700
N 	N 	0.13500 0.45630 0.10470 -0.18800
N 	N 	0.86760 0.36820 0.19010 -0.19700
Mn	Mn	0.33333 0.66667 0.92128 1.28800
Mn	Mn	0.66667 0.33333 0.42128 1.28200
