data_crystal

_cell_length_a 13.55540
_cell_length_b 13.55540
_cell_length_c 8.13510
_cell_angle_alpha 90.00000
_cell_angle_beta  90.00000
_cell_angle_gamma 120.00000

_symmetry_space_group_name_	'P 1'
_symmetry_space_group_name_H-M	'P 1'

loop_
_symmetry_equiv_pos_as_xyz
  x,y,z

loop_
_atom_site_label
_atom_site_type_symbol
_atom_site_fract_x
_atom_site_fract_y
_atom_site_fract_z
_atom_site_charge
Mn	Mn	0.29470 0.33115 0.54450 1.25800
O 	O 	0.22680 0.17680 0.40730 -0.43400
C 	C 	0.53130 0.32100 0.55950 -0.27900
C 	C 	0.35200 0.55350 0.77280 -0.26700
O 	O 	0.23750 0.05460 0.24490 -0.42500
C 	C 	0.26120 0.15460 0.28130 0.36900
N 	N 	0.33880 0.20670 0.00060 -0.33100
H 	H 	0.40250 0.25470 0.94520 0.09900
H 	H 	0.27800 0.19650 0.94220 0.14500
C 	C 	0.33900 0.25270 0.16550 -0.16100
H 	H 	0.41660 0.28470 0.20840 0.04100
N 	N 	0.36170 0.42290 0.30500 -0.34100
H 	H 	0.34590 0.47980 0.29810 0.08600
H 	H 	0.43790 0.45420 0.30340 0.08900
C 	C 	0.31360 0.34870 0.16150 -0.00800
H 	H 	0.34530 0.39300 0.06210 0.01300
H 	H 	0.23180 0.31770 0.15930 0.01900
N 	N 	0.45210 0.31930 0.61110 -0.17800
N 	N 	0.36160 0.49240 0.69090 -0.18700
Mn	Mn	0.66885 0.96355 0.54450 1.25900
O 	O 	0.82320 0.05000 0.40730 -0.43300
C 	C 	0.67900 0.21030 0.55950 -0.27800
C 	C 	0.44650 0.79850 0.77280 -0.26600
O 	O 	0.94540 0.18290 0.24490 -0.42600
C 	C 	0.84540 0.10660 0.28130 0.36900
N 	N 	0.79330 0.13210 0.00060 -0.33500
H 	H 	0.74530 0.14780 0.94520 0.10200
H 	H 	0.80350 0.08150 0.94220 0.14800
C 	C 	0.74730 0.08630 0.16550 -0.16300
H 	H 	0.71530 0.13190 0.20840 0.04100
N 	N 	0.57710 0.93880 0.30500 -0.34100
H 	H 	0.52020 0.86610 0.29810 0.08700
H 	H 	0.54580 0.98370 0.30340 0.08900
C 	C 	0.65130 0.96490 0.16150 -0.00700
H 	H 	0.60700 0.95230 0.06210 0.01300
H 	H 	0.68230 0.91410 0.15930 0.01900
N 	N 	0.68070 0.13280 0.61110 -0.17800
N 	N 	0.50760 0.86920 0.69090 -0.18700
Mn	Mn	0.03645 0.70530 0.54450 1.25900
O 	O 	0.95000 0.77320 0.40730 -0.43200
C 	C 	0.78970 0.46870 0.55950 -0.27800
C 	C 	0.20150 0.64800 0.77280 -0.26600
O 	O 	0.81710 0.76250 0.24490 -0.42500
C 	C 	0.89340 0.73880 0.28130 0.36900
N 	N 	0.86790 0.66120 0.00060 -0.33200
H 	H 	0.85220 0.59750 0.94520 0.10000
H 	H 	0.91850 0.72200 0.94220 0.14600
C 	C 	0.91370 0.66100 0.16550 -0.16200
H 	H 	0.86810 0.58340 0.20840 0.04100
N 	N 	0.06120 0.63830 0.30500 -0.34100
H 	H 	0.13390 0.65410 0.29810 0.08700
H 	H 	0.01630 0.56210 0.30340 0.08900
C 	C 	0.03510 0.68640 0.16150 -0.00700
H 	H 	0.04770 0.65470 0.06210 0.01400
H 	H 	0.08590 0.76820 0.15930 0.01900
N 	N 	0.86720 0.54790 0.61110 -0.17800
N 	N 	0.13080 0.63840 0.69090 -0.18700
Mn	Mn	0.70530 0.66885 0.04450 1.25600
O 	O 	0.77320 0.82320 0.90730 -0.42700
C 	C 	0.46870 0.67900 0.05950 -0.28400
C 	C 	0.64800 0.44650 0.27280 -0.27100
O 	O 	0.76250 0.94540 0.74490 -0.42400
C 	C 	0.73880 0.84540 0.78130 0.37000
N 	N 	0.66120 0.79330 0.50060 -0.31200
H 	H 	0.59750 0.74530 0.44520 0.08700
H 	H 	0.72200 0.80350 0.44220 0.13300
C 	C 	0.66100 0.74730 0.66550 -0.16100
H 	H 	0.58340 0.71530 0.70840 0.04300
N 	N 	0.63830 0.57710 0.80500 -0.34000
H 	H 	0.65410 0.52020 0.79810 0.08800
H 	H 	0.56210 0.54580 0.80340 0.09100
C 	C 	0.68640 0.65130 0.66150 -0.00800
H 	H 	0.65470 0.60700 0.56210 0.01600
H 	H 	0.76820 0.68230 0.65930 0.02100
N 	N 	0.54790 0.68070 0.11110 -0.17900
N 	N 	0.63840 0.50760 0.19090 -0.18800
Mn	Mn	0.33115 0.03645 0.04450 1.25500
O 	O 	0.17680 0.95000 0.90730 -0.43000
C 	C 	0.32100 0.78970 0.05950 -0.28300
C 	C 	0.55350 0.20150 0.27280 -0.27100
O 	O 	0.05460 0.81710 0.74490 -0.42500
C 	C 	0.15460 0.89340 0.78130 0.37000
N 	N 	0.20670 0.86790 0.50060 -0.31200
H 	H 	0.25470 0.85220 0.44520 0.08700
H 	H 	0.19650 0.91850 0.44220 0.13300
C 	C 	0.25270 0.91370 0.66550 -0.16400
H 	H 	0.28470 0.86810 0.70840 0.04400
N 	N 	0.42290 0.06120 0.80500 -0.34000
H 	H 	0.47980 0.13390 0.79810 0.08800
H 	H 	0.45420 0.01630 0.80340 0.09200
C 	C 	0.34870 0.03510 0.66150 -0.00500
H 	H 	0.39300 0.04770 0.56210 0.01600
H 	H 	0.31770 0.08590 0.65930 0.02100
N 	N 	0.31930 0.86720 0.11110 -0.17800
N 	N 	0.49240 0.13080 0.19090 -0.18900
Mn	Mn	0.96355 0.29470 0.04450 1.25500
O 	O 	0.05000 0.22680 0.90730 -0.42800
C 	C 	0.21030 0.53130 0.05950 -0.28400
C 	C 	0.79850 0.35200 0.27280 -0.27100
O 	O 	0.18290 0.23750 0.74490 -0.42300
C 	C 	0.10660 0.26120 0.78130 0.37000
N 	N 	0.13210 0.33880 0.50060 -0.31200
H 	H 	0.14780 0.40250 0.44520 0.08700
H 	H 	0.08150 0.27800 0.44220 0.13300
C 	C 	0.08630 0.33900 0.66550 -0.16300
H 	H 	0.13190 0.41660 0.70840 0.04400
N 	N 	0.93880 0.36170 0.80500 -0.34000
H 	H 	0.86610 0.34590 0.79810 0.08800
H 	H 	0.98370 0.43790 0.80340 0.09200
C 	C 	0.96490 0.31360 0.66150 -0.00500
H 	H 	0.95230 0.34530 0.56210 0.01600
H 	H 	0.91410 0.23180 0.65930 0.02100
N 	N 	0.13280 0.45210 0.11110 -0.17800
N 	N 	0.86920 0.36160 0.19090 -0.18900
Cr	Cr	0.33333 0.66667 0.92300 1.46700
Cr	Cr	0.66667 0.33333 0.42300 1.46300
