data_crystal

_cell_length_a 13.54160
_cell_length_b 13.54160
_cell_length_c 8.11400
_cell_angle_alpha 90.00000
_cell_angle_beta  90.00000
_cell_angle_gamma 120.00000

_symmetry_space_group_name_	'P 1'
_symmetry_space_group_name_H-M	'P 1'

loop_
_symmetry_equiv_pos_as_xyz
  x,y,z

loop_
_atom_site_label
_atom_site_type_symbol
_atom_site_fract_x
_atom_site_fract_y
_atom_site_fract_z
_atom_site_charge
Mn	Mn	0.29530 0.33142 0.54425 1.25900
O 	O 	0.22640 0.17630 0.40750 -0.43000
C 	C 	0.53090 0.32040 0.56070 -0.27800
C 	C 	0.35280 0.55380 0.77320 -0.26700
O 	O 	0.23790 0.05410 0.24430 -0.42500
C 	C 	0.26110 0.15400 0.28080 0.36500
N 	N 	0.33970 0.20620 0.00050 -0.33200
H 	H 	0.40370 0.25410 0.94550 0.10000
H 	H 	0.27920 0.19610 0.94110 0.14500
C 	C 	0.33900 0.25230 0.16460 -0.15700
H 	H 	0.41650 0.28410 0.20810 0.04000
N 	N 	0.36240 0.42340 0.30470 -0.34100
H 	H 	0.34620 0.48020 0.29790 0.08600
H 	H 	0.43870 0.45500 0.30340 0.08900
C 	C 	0.31460 0.34920 0.16050 -0.01200
H 	H 	0.34690 0.39360 0.06110 0.01400
H 	H 	0.23280 0.31860 0.15750 0.02100
N 	N 	0.45120 0.31850 0.61160 -0.18000
N 	N 	0.36260 0.49320 0.69020 -0.18700
Mn	Mn	0.66858 0.96388 0.54425 1.25900
O 	O 	0.82370 0.05010 0.40750 -0.42900
C 	C 	0.67960 0.21050 0.56070 -0.27700
C 	C 	0.44620 0.79900 0.77320 -0.26700
O 	O 	0.94590 0.18380 0.24430 -0.42600
C 	C 	0.84600 0.10710 0.28080 0.36400
N 	N 	0.79380 0.13350 0.00050 -0.33600
H 	H 	0.74590 0.14960 0.94550 0.10200
H 	H 	0.80390 0.08310 0.94110 0.14800
C 	C 	0.74770 0.08670 0.16460 -0.15800
H 	H 	0.71590 0.13240 0.20810 0.04000
N 	N 	0.57660 0.93900 0.30470 -0.34100
H 	H 	0.51980 0.86600 0.29790 0.08600
H 	H 	0.54500 0.98370 0.30340 0.08900
C 	C 	0.65080 0.96540 0.16050 -0.01000
H 	H 	0.60640 0.95330 0.06110 0.01400
H 	H 	0.68140 0.91420 0.15750 0.02000
N 	N 	0.68150 0.13270 0.61160 -0.17900
N 	N 	0.50680 0.86940 0.69020 -0.18700
Mn	Mn	0.03612 0.70470 0.54425 1.25900
O 	O 	0.94990 0.77360 0.40750 -0.42900
C 	C 	0.78950 0.46910 0.56070 -0.27700
C 	C 	0.20100 0.64720 0.77320 -0.26700
O 	O 	0.81620 0.76210 0.24430 -0.42500
C 	C 	0.89290 0.73890 0.28080 0.36500
N 	N 	0.86650 0.66030 0.00050 -0.33300
H 	H 	0.85040 0.59630 0.94550 0.10000
H 	H 	0.91690 0.72080 0.94110 0.14600
C 	C 	0.91330 0.66100 0.16460 -0.15700
H 	H 	0.86760 0.58350 0.20810 0.04000
N 	N 	0.06100 0.63760 0.30470 -0.34100
H 	H 	0.13400 0.65380 0.29790 0.08600
H 	H 	0.01630 0.56130 0.30340 0.08900
C 	C 	0.03460 0.68540 0.16050 -0.01100
H 	H 	0.04670 0.65310 0.06110 0.01500
H 	H 	0.08580 0.76720 0.15750 0.02100
N 	N 	0.86730 0.54880 0.61160 -0.17900
N 	N 	0.13060 0.63740 0.69020 -0.18700
Mn	Mn	0.70470 0.66858 0.04425 1.25600
O 	O 	0.77360 0.82370 0.90750 -0.42300
C 	C 	0.46910 0.67960 0.06070 -0.28300
C 	C 	0.64720 0.44620 0.27320 -0.27100
O 	O 	0.76210 0.94590 0.74430 -0.42400
C 	C 	0.73890 0.84600 0.78080 0.36500
N 	N 	0.66030 0.79380 0.50050 -0.31400
H 	H 	0.59630 0.74590 0.44550 0.08700
H 	H 	0.72080 0.80390 0.44110 0.13300
C 	C 	0.66100 0.74770 0.66460 -0.15700
H 	H 	0.58350 0.71590 0.70810 0.04200
N 	N 	0.63760 0.57660 0.80470 -0.33900
H 	H 	0.65380 0.51980 0.79790 0.08800
H 	H 	0.56130 0.54500 0.80340 0.09100
C 	C 	0.68540 0.65080 0.66050 -0.01200
H 	H 	0.65310 0.60640 0.56110 0.01700
H 	H 	0.76720 0.68140 0.65750 0.02300
N 	N 	0.54880 0.68150 0.11160 -0.18000
N 	N 	0.63740 0.50680 0.19020 -0.18800
Mn	Mn	0.33142 0.03612 0.04425 1.25600
O 	O 	0.17630 0.94990 0.90750 -0.42600
C 	C 	0.32040 0.78950 0.06070 -0.28300
C 	C 	0.55380 0.20100 0.27320 -0.27100
O 	O 	0.05410 0.81620 0.74430 -0.42500
C 	C 	0.15400 0.89290 0.78080 0.36600
N 	N 	0.20620 0.86650 0.50050 -0.31300
H 	H 	0.25410 0.85040 0.44550 0.08700
H 	H 	0.19610 0.91690 0.44110 0.13300
C 	C 	0.25230 0.91330 0.66460 -0.15900
H 	H 	0.28410 0.86760 0.70810 0.04200
N 	N 	0.42340 0.06100 0.80470 -0.34000
H 	H 	0.48020 0.13400 0.79790 0.08800
H 	H 	0.45500 0.01630 0.80340 0.09200
C 	C 	0.34920 0.03460 0.66050 -0.00900
H 	H 	0.39360 0.04670 0.56110 0.01700
H 	H 	0.31860 0.08580 0.65750 0.02200
N 	N 	0.31850 0.86730 0.11160 -0.18000
N 	N 	0.49320 0.13060 0.19020 -0.18800
Mn	Mn	0.96388 0.29530 0.04425 1.25500
O 	O 	0.05010 0.22640 0.90750 -0.42400
C 	C 	0.21050 0.53090 0.06070 -0.28300
C 	C 	0.79900 0.35280 0.27320 -0.27100
O 	O 	0.18380 0.23790 0.74430 -0.42300
C 	C 	0.10710 0.26110 0.78080 0.36600
N 	N 	0.13350 0.33970 0.50050 -0.31300
H 	H 	0.14960 0.40370 0.44550 0.08700
H 	H 	0.08310 0.27920 0.44110 0.13300
C 	C 	0.08670 0.33900 0.66460 -0.15900
H 	H 	0.13240 0.41650 0.70810 0.04200
N 	N 	0.93900 0.36240 0.80470 -0.33900
H 	H 	0.86600 0.34620 0.79790 0.08800
H 	H 	0.98370 0.43870 0.80340 0.09200
C 	C 	0.96540 0.31460 0.66050 -0.00900
H 	H 	0.95330 0.34690 0.56110 0.01700
H 	H 	0.91420 0.23280 0.65750 0.02200
N 	N 	0.13270 0.45120 0.11160 -0.18000
N 	N 	0.86940 0.36260 0.19020 -0.18800
Cr	Cr	0.33333 0.66667 0.92350 1.46700
Cr	Cr	0.66667 0.33333 0.42350 1.46300
