data_crystal

_cell_length_a 12.54770
_cell_length_b 15.38930
_cell_length_c 15.38930
_cell_angle_alpha 80.43300
_cell_angle_beta  65.94100
_cell_angle_gamma 65.94100

_symmetry_space_group_name_	'P 1'
_symmetry_space_group_name_H-M	'P 1'

loop_
_symmetry_equiv_pos_as_xyz
  x,y,z

loop_
_atom_site_label
_atom_site_type_symbol
_atom_site_fract_x
_atom_site_fract_y
_atom_site_fract_z
_atom_site_charge
Cu	Cu	0.50000 0.00000 -0.00000 0.79000
Cu	Cu	0.00000 0.50000 0.50000 0.83400
Cu	Cu	0.50000 0.00000 0.50000 0.82200
Cu	Cu	0.50000 0.50000 -0.00000 0.82100
H 	H 	0.56650 0.04640 0.78680 -0.03100
H 	H 	0.32140 0.20760 0.01240 -0.11100
H 	H 	0.27380 0.33850 0.91610 0.12200
H 	H 	0.37120 0.32230 0.75230 -0.01300
H 	H 	0.52070 0.17220 0.68700 0.07500
H 	H 	0.89970 0.45360 0.71320 -0.00600
H 	H 	0.04140 0.29240 0.48760 -0.00300
H 	H 	0.02840 0.16150 0.58390 0.07700
H 	H 	0.94580 0.17770 0.74770 -0.01100
H 	H 	0.87990 0.32780 0.81300 0.09100
H 	H 	0.35330 0.21320 0.54640 0.00400
H 	H 	0.33380 0.98760 0.70760 0.11300
H 	H 	0.18990 0.08390 0.83850 0.01500
H 	H 	0.12350 0.24770 0.82230 0.03600
H 	H 	0.20770 0.31300 0.67220 0.03800
H 	H 	0.61290 0.28680 0.95360 0.02100
H 	H 	0.52900 0.51240 0.79240 0.01000
H 	H 	0.61230 0.41610 0.66150 0.06900
H 	H 	0.69350 0.25230 0.67770 0.01500
H 	H 	0.69290 0.18700 0.82780 0.06300
H 	H 	0.43350 0.95360 0.21320 0.02800
H 	H 	0.67860 0.79240 0.98760 0.12100
H 	H 	0.72620 0.66150 0.08390 0.01500
H 	H 	0.62880 0.67770 0.24770 0.04000
H 	H 	0.47930 0.82780 0.31300 0.04800
H 	H 	0.10030 0.54640 0.28680 -0.00000
H 	H 	0.95860 0.70760 0.51240 0.01200
H 	H 	0.97160 0.83850 0.41610 0.05900
H 	H 	0.05420 0.82230 0.25230 0.03900
H 	H 	0.12010 0.67220 0.18700 0.03100
H 	H 	0.64670 0.78680 0.45360 -0.01000
H 	H 	0.66620 0.01240 0.29240 -0.10400
H 	H 	0.81010 0.91610 0.16150 0.12300
H 	H 	0.87650 0.75230 0.17770 -0.00900
H 	H 	0.79230 0.68700 0.32780 0.08400
H 	H 	0.38710 0.71320 0.04640 -0.02600
H 	H 	0.47100 0.48760 0.20760 0.00100
H 	H 	0.38770 0.58390 0.33850 0.06700
H 	H 	0.30650 0.74770 0.32230 0.01200
H 	H 	0.30710 0.81300 0.17220 0.06100
W 	W 	0.62500 0.75000 0.75000 0.52500
W 	W 	0.37500 0.25000 0.25000 0.51900
C 	C 	0.56760 0.85550 0.85010 -0.00900
C 	C 	0.50570 0.10640 0.81400 0.09000
C 	C 	0.76200 0.69000 0.81800 -0.03200
C 	C 	0.36350 0.20030 0.94530 0.23500
C 	C 	0.33390 0.27860 0.88820 -0.23100
C 	C 	0.39100 0.26930 0.79250 0.12000
C 	C 	0.47930 0.18070 0.75410 -0.17000
C 	C 	0.77320 0.64450 0.64990 -0.02600
C 	C 	0.92610 0.39360 0.68600 0.09700
C 	C 	0.77000 0.81000 0.68200 -0.02900
C 	C 	0.00910 0.29970 0.55470 0.04400
C 	C 	0.00070 0.22140 0.61180 -0.20700
C 	C 	0.95280 0.23070 0.70750 0.14500
C 	C 	0.91410 0.31930 0.74590 -0.16200
C 	C 	0.41770 0.14990 0.35550 -0.03700
C 	C 	0.31970 0.18600 0.60640 0.02500
C 	C 	0.58000 0.18200 0.19000 -0.05600
C 	C 	0.30880 0.05470 0.70030 -0.12400
C 	C 	0.22210 0.11180 0.77860 -0.00600
C 	C 	0.18350 0.20750 0.76930 -0.04300
C 	C 	0.23340 0.24590 0.68070 -0.06400
C 	C 	0.42310 0.35010 0.14450 -0.04200
C 	C 	0.61210 0.31400 0.89360 0.05900
C 	C 	0.45200 0.31800 0.31000 -0.04500
C 	C 	0.56380 0.44530 0.79970 0.05600
C 	C 	0.61250 0.38820 0.72140 -0.11100
C 	C 	0.66030 0.29250 0.73070 0.03700
C 	C 	0.66000 0.25410 0.81930 -0.10800
C 	C 	0.43240 0.14450 0.14990 -0.05000
C 	C 	0.49430 0.89360 0.18600 0.02900
C 	C 	0.23800 0.31000 0.18200 -0.05400
C 	C 	0.63650 0.79970 0.05470 -0.12100
C 	C 	0.66610 0.72140 0.11180 -0.00000
C 	C 	0.60900 0.73070 0.20750 -0.04000
C 	C 	0.52070 0.81930 0.24590 -0.05800
C 	C 	0.22680 0.35550 0.35010 -0.03200
C 	C 	0.07390 0.60640 0.31400 0.02100
C 	C 	0.23000 0.19000 0.31800 -0.05600
C 	C 	0.99090 0.70030 0.44530 0.06500
C 	C 	0.99930 0.77860 0.38820 -0.02200
C 	C 	0.04720 0.76930 0.29250 -0.06700
C 	C 	0.08590 0.68070 0.25410 -0.06700
C 	C 	0.58230 0.85010 0.64450 -0.02100
C 	C 	0.68030 0.81400 0.39360 0.09300
C 	C 	0.42000 0.81800 0.81000 -0.02900
C 	C 	0.69120 0.94530 0.29970 0.23700
C 	C 	0.77790 0.88820 0.22140 -0.22400
C 	C 	0.81650 0.79250 0.23070 0.12300
C 	C 	0.76660 0.75410 0.31930 -0.16500
C 	C 	0.57690 0.64990 0.85550 -0.01600
C 	C 	0.38790 0.68600 0.10640 0.05900
C 	C 	0.54800 0.68200 0.69000 -0.04000
C 	C 	0.43620 0.55470 0.20030 0.05400
C 	C 	0.38750 0.61180 0.27860 -0.11800
C 	C 	0.33970 0.70750 0.26930 0.04100
C 	C 	0.34000 0.74590 0.18070 -0.12000
N 	N 	0.44990 0.11350 0.90970 -0.24800
N 	N 	0.53790 0.91110 0.90550 -0.17800
N 	N 	0.83410 0.66050 0.85530 -0.08000
N 	N 	0.97310 0.38650 0.59030 -0.20200
N 	N 	0.85450 0.58890 0.59450 -0.21300
N 	N 	0.84990 0.83950 0.64470 -0.08100
N 	N 	0.35960 0.09030 0.61350 -0.20000
N 	N 	0.44340 0.09450 0.41110 -0.23600
N 	N 	0.68940 0.14470 0.16050 -0.11900
N 	N 	0.56340 0.40970 0.88650 -0.20500
N 	N 	0.44900 0.40550 0.08890 -0.24000
N 	N 	0.49460 0.35530 0.33950 -0.10400
N 	N 	0.55010 0.88650 0.09030 -0.18100
N 	N 	0.46210 0.08890 0.09450 -0.25000
N 	N 	0.16590 0.33950 0.14470 -0.12300
N 	N 	0.02690 0.61350 0.40970 -0.23900
N 	N 	0.14550 0.41110 0.40550 -0.23000
N 	N 	0.15010 0.16050 0.35530 -0.12100
N 	N 	0.64040 0.90970 0.38650 -0.23900
N 	N 	0.55660 0.90550 0.58890 -0.20200
N 	N 	0.31060 0.85530 0.83950 -0.08300
N 	N 	0.43660 0.59030 0.11350 -0.23300
N 	N 	0.55100 0.59450 0.91110 -0.19900
N 	N 	0.50540 0.64470 0.66050 -0.09900
