data_crystal

_cell_length_a 27.80500
_cell_length_b 9.38100
_cell_length_c 24.92300
_cell_angle_alpha 90.00000
_cell_angle_beta  114.71500
_cell_angle_gamma 90.00000

_symmetry_space_group_name_	'P 1'
_symmetry_space_group_name_H-M	'P 1'

loop_
_symmetry_equiv_pos_as_xyz
  x,y,z

loop_
_atom_site_label
_atom_site_type_symbol
_atom_site_fract_x
_atom_site_fract_y
_atom_site_fract_z
_atom_site_charge
Co	Co	0.73297 0.64693 0.53005 1.15500
N 	N 	0.63260 0.33200 0.53580 -0.05600
N 	N 	0.69688 0.47440 0.54612 -0.23300
O 	O 	0.66563 0.76410 0.48580 -0.45200
O 	O 	0.69190 0.92860 0.43853 -0.44000
O 	O 	0.27852 0.56900 0.05180 -0.45800
O 	O 	0.25209 0.72630 0.10108 -0.44100
C 	C 	0.65781 0.86970 0.45270 0.37400
C 	C 	0.60306 0.93420 0.42810 -0.12400
C 	C 	0.56357 0.86810 0.43840 0.04200
H 	H 	0.57060 0.78220 0.45880 0.02900
C 	C 	0.51369 0.92710 0.41870 -0.11700
H 	H 	0.48740 0.87970 0.42560 0.06700
C 	C 	0.50216 0.05710 0.38876 0.04700
C 	C 	0.54179 0.12050 0.37650 -0.11900
H 	H 	0.53490 0.20500 0.35510 0.06900
C 	C 	0.59147 0.05810 0.39610 0.04900
H 	H 	0.61740 0.10130 0.38740 0.02500
C 	C 	0.27445 0.61200 0.09740 0.37700
C 	C 	0.30008 0.52220 0.15180 -0.13200
C 	C 	0.33180 0.40890 0.15310 0.05600
H 	H 	0.33610 0.38500 0.11920 0.02400
C 	C 	0.35720 0.33030 0.20350 -0.12600
H 	H 	0.37920 0.25560 0.20340 0.07300
C 	C 	0.35082 0.36020 0.25490 0.05700
C 	C 	0.31940 0.47540 0.25310 -0.12600
H 	H 	0.31540 0.50060 0.28710 0.07500
C 	C 	0.29370 0.55420 0.20250 0.05700
H 	H 	0.27190 0.62940 0.20240 0.02400
C 	C 	0.45020 0.12560 0.37330 0.02900
C 	C 	0.42576 0.20810 0.32320 -0.09800
H 	H 	0.44240 0.22000 0.29800 0.06300
C 	C 	0.37722 0.27390 0.30930 0.02700
C 	C 	0.35308 0.25630 0.34800 -0.09000
H 	H 	0.32070 0.29990 0.33980 0.06600
C 	C 	0.37682 0.17450 0.39820 0.00900
H 	H 	0.36030 0.16240 0.42360 0.03600
C 	C 	0.42519 0.11050 0.41090 -0.09100
H 	H 	0.44120 0.05650 0.44510 0.05900
C 	C 	0.64710 0.46520 0.53600 0.09100
H 	H 	0.62470 0.54300 0.52970 0.00400
C 	C 	0.71290 0.33340 0.54790 0.01900
H 	H 	0.74580 0.30440 0.55040 0.02300
C 	C 	0.67380 0.24480 0.54560 -0.04200
H 	H 	0.67510 0.14620 0.54980 0.04600
C 	C 	0.58080 0.27880 0.53220 -0.12700
H 	H 	0.58590 0.23940 0.57020 0.07000
H 	H 	0.56840 0.20260 0.50330 0.07300
C 	C 	0.53880 0.39380 0.51530 0.06100
C 	C 	0.51100 0.43320 0.45750 -0.06900
H 	H 	0.51780 0.38860 0.42810 0.05900
C 	C 	0.52720 0.46140 0.55750 -0.07100
H 	H 	0.54530 0.43550 0.59700 0.05700
N 	N 	0.63200 0.33600 0.55360 -0.04700
C 	C 	0.71780 0.36700 0.58190 -0.00700
H 	H 	0.75390 0.35540 0.60430 0.02600
C 	C 	0.68180 0.27900 0.58250 0.01100
H 	H 	0.68890 0.18940 0.60020 0.02600
Co	Co	0.23297 0.14693 0.53005 1.15600
N 	N 	0.13260 0.83200 0.53580 -0.05500
N 	N 	0.19688 0.97440 0.54612 -0.23200
O 	O 	0.16563 0.26410 0.48580 -0.45100
O 	O 	0.19190 0.42860 0.43853 -0.43800
O 	O 	0.77852 0.06900 0.05180 -0.45600
O 	O 	0.75209 0.22630 0.10108 -0.44000
C 	C 	0.15781 0.36970 0.45270 0.37500
C 	C 	0.10306 0.43420 0.42810 -0.12300
C 	C 	0.06357 0.36810 0.43840 0.04300
H 	H 	0.07060 0.28220 0.45880 0.02900
C 	C 	0.01369 0.42710 0.41870 -0.11700
H 	H 	0.98740 0.37970 0.42560 0.06700
C 	C 	0.00216 0.55710 0.38876 0.04600
C 	C 	0.04179 0.62050 0.37650 -0.11900
H 	H 	0.03490 0.70500 0.35510 0.06900
C 	C 	0.09147 0.55810 0.39610 0.04900
H 	H 	0.11740 0.60130 0.38740 0.02500
C 	C 	0.77445 0.11200 0.09740 0.37700
C 	C 	0.80008 0.02220 0.15180 -0.13200
C 	C 	0.83180 0.90890 0.15310 0.05600
H 	H 	0.83610 0.88500 0.11920 0.02400
C 	C 	0.85720 0.83030 0.20350 -0.12600
H 	H 	0.87920 0.75560 0.20340 0.07300
C 	C 	0.85082 0.86020 0.25490 0.05700
C 	C 	0.81940 0.97540 0.25310 -0.12700
H 	H 	0.81540 0.00060 0.28710 0.07500
C 	C 	0.79370 0.05420 0.20250 0.05700
H 	H 	0.77190 0.12940 0.20240 0.02400
C 	C 	0.95020 0.62560 0.37330 0.02900
C 	C 	0.92576 0.70810 0.32320 -0.09800
H 	H 	0.94240 0.72000 0.29800 0.06300
C 	C 	0.87722 0.77390 0.30930 0.02700
C 	C 	0.85308 0.75630 0.34800 -0.09000
H 	H 	0.82070 0.79990 0.33980 0.06600
C 	C 	0.87682 0.67450 0.39820 0.00900
H 	H 	0.86030 0.66240 0.42360 0.03600
C 	C 	0.92519 0.61050 0.41090 -0.09100
H 	H 	0.94120 0.55650 0.44510 0.05900
C 	C 	0.14710 0.96520 0.53600 0.09100
H 	H 	0.12470 0.04300 0.52970 0.00400
C 	C 	0.21290 0.83340 0.54790 0.01800
H 	H 	0.24580 0.80440 0.55040 0.02300
C 	C 	0.17380 0.74480 0.54560 -0.04200
H 	H 	0.17510 0.64620 0.54980 0.04600
C 	C 	0.08080 0.77880 0.53220 -0.12700
H 	H 	0.08590 0.73940 0.57020 0.07000
H 	H 	0.06840 0.70260 0.50330 0.07300
C 	C 	0.03880 0.89380 0.51530 0.06100
C 	C 	0.01100 0.93320 0.45750 -0.06900
H 	H 	0.01780 0.88860 0.42810 0.05900
C 	C 	0.02720 0.96140 0.55750 -0.07100
H 	H 	0.04530 0.93550 0.59700 0.05700
N 	N 	0.13200 0.83600 0.55360 -0.04700
C 	C 	0.21780 0.86700 0.58190 -0.00700
H 	H 	0.25390 0.85540 0.60430 0.02600
C 	C 	0.18180 0.77900 0.58250 0.01100
H 	H 	0.18890 0.68940 0.60020 0.02600
Co	Co	0.26703 0.64693 0.96995 1.15600
N 	N 	0.36740 0.33200 0.96420 -0.05500
N 	N 	0.30312 0.47440 0.95388 -0.23200
O 	O 	0.33437 0.76410 0.01420 -0.45100
O 	O 	0.30810 0.92860 0.06147 -0.43900
O 	O 	0.72148 0.56900 0.44820 -0.45600
O 	O 	0.74791 0.72630 0.39892 -0.44000
C 	C 	0.34219 0.86970 0.04730 0.37600
C 	C 	0.39694 0.93420 0.07190 -0.12400
C 	C 	0.43643 0.86810 0.06160 0.04400
H 	H 	0.42940 0.78220 0.04120 0.02900
C 	C 	0.48631 0.92710 0.08130 -0.11800
H 	H 	0.51260 0.87970 0.07440 0.06700
C 	C 	0.49784 0.05710 0.11124 0.04800
C 	C 	0.45821 0.12050 0.12350 -0.12000
H 	H 	0.46510 0.20500 0.14490 0.06900
C 	C 	0.40853 0.05810 0.10390 0.05000
H 	H 	0.38260 0.10130 0.11260 0.02500
C 	C 	0.72555 0.61200 0.40260 0.37700
C 	C 	0.69992 0.52220 0.34820 -0.13200
C 	C 	0.66820 0.40890 0.34690 0.05600
H 	H 	0.66390 0.38500 0.38080 0.02400
C 	C 	0.64280 0.33030 0.29650 -0.12600
H 	H 	0.62080 0.25560 0.29660 0.07300
C 	C 	0.64918 0.36020 0.24510 0.05800
C 	C 	0.68060 0.47540 0.24690 -0.12600
H 	H 	0.68460 0.50060 0.21290 0.07500
C 	C 	0.70630 0.55420 0.29750 0.05700
H 	H 	0.72810 0.62940 0.29760 0.02400
C 	C 	0.54980 0.12560 0.12670 0.02900
C 	C 	0.57424 0.20810 0.17680 -0.09700
H 	H 	0.55760 0.22000 0.20200 0.06200
C 	C 	0.62278 0.27390 0.19070 0.02700
C 	C 	0.64692 0.25630 0.15200 -0.08900
H 	H 	0.67930 0.29990 0.16020 0.06600
C 	C 	0.62318 0.17450 0.10180 0.00900
H 	H 	0.63970 0.16240 0.07640 0.03600
C 	C 	0.57481 0.11050 0.08910 -0.09100
H 	H 	0.55880 0.05650 0.05490 0.05900
C 	C 	0.35290 0.46520 0.96400 0.09100
H 	H 	0.37530 0.54300 0.97030 0.00400
C 	C 	0.28710 0.33340 0.95210 0.01900
H 	H 	0.25420 0.30440 0.94960 0.02300
C 	C 	0.32620 0.24480 0.95440 -0.04200
H 	H 	0.32490 0.14620 0.95020 0.04600
C 	C 	0.41920 0.27880 0.96780 -0.12700
H 	H 	0.41410 0.23940 0.92980 0.07000
H 	H 	0.43160 0.20260 0.99670 0.07300
C 	C 	0.46120 0.39380 0.98470 0.06100
C 	C 	0.48900 0.43320 0.04250 -0.06900
H 	H 	0.48220 0.38860 0.07190 0.05900
C 	C 	0.47280 0.46140 0.94250 -0.07100
H 	H 	0.45470 0.43550 0.90300 0.05700
N 	N 	0.36800 0.33600 0.94640 -0.04700
C 	C 	0.28220 0.36700 0.91810 -0.00700
H 	H 	0.24610 0.35540 0.89570 0.02600
C 	C 	0.31820 0.27900 0.91750 0.01100
H 	H 	0.31110 0.18940 0.89980 0.02600
Co	Co	0.76703 0.14693 0.96995 1.15500
N 	N 	0.86740 0.83200 0.96420 -0.05400
N 	N 	0.80312 0.97440 0.95388 -0.23200
O 	O 	0.83437 0.26410 0.01420 -0.45000
O 	O 	0.80810 0.42860 0.06147 -0.43800
O 	O 	0.22148 0.06900 0.44820 -0.45700
O 	O 	0.24791 0.22630 0.39892 -0.44000
C 	C 	0.84219 0.36970 0.04730 0.37500
C 	C 	0.89694 0.43420 0.07190 -0.12200
C 	C 	0.93643 0.36810 0.06160 0.04200
H 	H 	0.92940 0.28220 0.04120 0.03000
C 	C 	0.98631 0.42710 0.08130 -0.11500
H 	H 	0.01260 0.37970 0.07440 0.06600
C 	C 	0.99784 0.55710 0.11124 0.04700
C 	C 	0.95821 0.62050 0.12350 -0.11900
H 	H 	0.96510 0.70500 0.14490 0.06900
C 	C 	0.90853 0.55810 0.10390 0.04800
H 	H 	0.88260 0.60130 0.11260 0.02500
C 	C 	0.22555 0.11200 0.40260 0.37700
C 	C 	0.19992 0.02220 0.34820 -0.13200
C 	C 	0.16820 0.90890 0.34690 0.05700
H 	H 	0.16390 0.88500 0.38080 0.02400
C 	C 	0.14280 0.83030 0.29650 -0.12600
H 	H 	0.12080 0.75560 0.29660 0.07300
C 	C 	0.14918 0.86020 0.24510 0.05800
C 	C 	0.18060 0.97540 0.24690 -0.12700
H 	H 	0.18460 0.00060 0.21290 0.07500
C 	C 	0.20630 0.05420 0.29750 0.05700
H 	H 	0.22810 0.12940 0.29760 0.02400
C 	C 	0.04980 0.62560 0.12670 0.02900
C 	C 	0.07424 0.70810 0.17680 -0.09700
H 	H 	0.05760 0.72000 0.20200 0.06200
C 	C 	0.12278 0.77390 0.19070 0.02700
C 	C 	0.14692 0.75630 0.15200 -0.08900
H 	H 	0.17930 0.79990 0.16020 0.06600
C 	C 	0.12318 0.67450 0.10180 0.00900
H 	H 	0.13970 0.66240 0.07640 0.03600
C 	C 	0.07481 0.61050 0.08910 -0.09100
H 	H 	0.05880 0.55650 0.05490 0.05900
C 	C 	0.85290 0.96520 0.96400 0.09200
H 	H 	0.87530 0.04300 0.97030 0.00400
C 	C 	0.78710 0.83340 0.95210 0.01800
H 	H 	0.75420 0.80440 0.94960 0.02300
C 	C 	0.82620 0.74480 0.95440 -0.04200
H 	H 	0.82490 0.64620 0.95020 0.04600
C 	C 	0.91920 0.77880 0.96780 -0.12600
H 	H 	0.91410 0.73940 0.92980 0.07000
H 	H 	0.93160 0.70260 0.99670 0.07300
C 	C 	0.96120 0.89380 0.98470 0.06100
C 	C 	0.98900 0.93320 0.04250 -0.06900
H 	H 	0.98220 0.88860 0.07190 0.05900
C 	C 	0.97280 0.96140 0.94250 -0.07100
H 	H 	0.95470 0.93550 0.90300 0.05700
N 	N 	0.86800 0.83600 0.94640 -0.04800
C 	C 	0.78220 0.86700 0.91810 -0.00600
H 	H 	0.74610 0.85540 0.89570 0.02600
C 	C 	0.81820 0.77900 0.91750 0.01100
H 	H 	0.81110 0.68940 0.89980 0.02600
Co	Co	0.26703 0.35307 0.46995 1.15600
N 	N 	0.36740 0.66800 0.46420 -0.05500
N 	N 	0.30312 0.52560 0.45388 -0.23200
O 	O 	0.33437 0.23590 0.51420 -0.45100
O 	O 	0.30810 0.07140 0.56147 -0.43900
O 	O 	0.72148 0.43100 0.94820 -0.45700
O 	O 	0.74791 0.27370 0.89892 -0.44000
C 	C 	0.34219 0.13030 0.54730 0.37500
C 	C 	0.39694 0.06580 0.57190 -0.12300
C 	C 	0.43643 0.13190 0.56160 0.04300
H 	H 	0.42940 0.21780 0.54120 0.02900
C 	C 	0.48631 0.07290 0.58130 -0.11700
H 	H 	0.51260 0.12030 0.57440 0.06700
C 	C 	0.49784 0.94290 0.61124 0.04700
C 	C 	0.45821 0.87950 0.62350 -0.11900
H 	H 	0.46510 0.79500 0.64490 0.06900
C 	C 	0.40853 0.94190 0.60390 0.04900
H 	H 	0.38260 0.89870 0.61260 0.02500
C 	C 	0.72555 0.38800 0.90260 0.37700
C 	C 	0.69992 0.47780 0.84820 -0.13200
C 	C 	0.66820 0.59110 0.84690 0.05600
H 	H 	0.66390 0.61500 0.88080 0.02400
C 	C 	0.64280 0.66970 0.79650 -0.12600
H 	H 	0.62080 0.74440 0.79660 0.07300
C 	C 	0.64918 0.63980 0.74510 0.05700
C 	C 	0.68060 0.52460 0.74690 -0.12600
H 	H 	0.68460 0.49940 0.71290 0.07500
C 	C 	0.70630 0.44580 0.79750 0.05700
H 	H 	0.72810 0.37060 0.79760 0.02400
C 	C 	0.54980 0.87440 0.62670 0.02900
C 	C 	0.57424 0.79190 0.67680 -0.09800
H 	H 	0.55760 0.78000 0.70200 0.06300
C 	C 	0.62278 0.72610 0.69070 0.02700
C 	C 	0.64692 0.74370 0.65200 -0.09000
H 	H 	0.67930 0.70010 0.66020 0.06600
C 	C 	0.62318 0.82550 0.60180 0.00900
H 	H 	0.63970 0.83760 0.57640 0.03600
C 	C 	0.57481 0.88950 0.58910 -0.09100
H 	H 	0.55880 0.94350 0.55490 0.05900
C 	C 	0.35290 0.53480 0.46400 0.09100
H 	H 	0.37530 0.45700 0.47030 0.00400
C 	C 	0.28710 0.66660 0.45210 0.01900
H 	H 	0.25420 0.69560 0.44960 0.02300
C 	C 	0.32620 0.75520 0.45440 -0.04200
H 	H 	0.32490 0.85380 0.45020 0.04600
C 	C 	0.41920 0.72120 0.46780 -0.12700
H 	H 	0.41410 0.76060 0.42980 0.07000
H 	H 	0.43160 0.79740 0.49670 0.07300
C 	C 	0.46120 0.60620 0.48470 0.06100
C 	C 	0.48900 0.56680 0.54250 -0.06900
H 	H 	0.48220 0.61140 0.57190 0.05900
C 	C 	0.47280 0.53860 0.44250 -0.07100
H 	H 	0.45470 0.56450 0.40300 0.05700
N 	N 	0.36800 0.66400 0.44640 -0.04700
C 	C 	0.28220 0.63300 0.41810 -0.00700
H 	H 	0.24610 0.64460 0.39570 0.02600
C 	C 	0.31820 0.72100 0.41750 0.01100
H 	H 	0.31110 0.81060 0.39980 0.02600
Co	Co	0.76703 0.85307 0.46995 1.15600
N 	N 	0.86740 0.16800 0.46420 -0.05500
N 	N 	0.80312 0.02560 0.45388 -0.23200
O 	O 	0.83437 0.73590 0.51420 -0.45100
O 	O 	0.80810 0.57140 0.56147 -0.43800
O 	O 	0.22148 0.93100 0.94820 -0.45600
O 	O 	0.24791 0.77370 0.89892 -0.44000
C 	C 	0.84219 0.63030 0.54730 0.37500
C 	C 	0.89694 0.56580 0.57190 -0.12300
C 	C 	0.93643 0.63190 0.56160 0.04300
H 	H 	0.92940 0.71780 0.54120 0.02900
C 	C 	0.98631 0.57290 0.58130 -0.11700
H 	H 	0.01260 0.62030 0.57440 0.06700
C 	C 	0.99784 0.44290 0.61124 0.04600
C 	C 	0.95821 0.37950 0.62350 -0.11900
H 	H 	0.96510 0.29500 0.64490 0.06900
C 	C 	0.90853 0.44190 0.60390 0.04900
H 	H 	0.88260 0.39870 0.61260 0.02500
C 	C 	0.22555 0.88800 0.90260 0.37700
C 	C 	0.19992 0.97780 0.84820 -0.13200
C 	C 	0.16820 0.09110 0.84690 0.05600
H 	H 	0.16390 0.11500 0.88080 0.02400
C 	C 	0.14280 0.16970 0.79650 -0.12600
H 	H 	0.12080 0.24440 0.79660 0.07300
C 	C 	0.14918 0.13980 0.74510 0.05700
C 	C 	0.18060 0.02460 0.74690 -0.12700
H 	H 	0.18460 0.99940 0.71290 0.07500
C 	C 	0.20630 0.94580 0.79750 0.05700
H 	H 	0.22810 0.87060 0.79760 0.02400
C 	C 	0.04980 0.37440 0.62670 0.02900
C 	C 	0.07424 0.29190 0.67680 -0.09800
H 	H 	0.05760 0.28000 0.70200 0.06300
C 	C 	0.12278 0.22610 0.69070 0.02700
C 	C 	0.14692 0.24370 0.65200 -0.09000
H 	H 	0.17930 0.20010 0.66020 0.06600
C 	C 	0.12318 0.32550 0.60180 0.00900
H 	H 	0.13970 0.33760 0.57640 0.03600
C 	C 	0.07481 0.38950 0.58910 -0.09100
H 	H 	0.05880 0.44350 0.55490 0.05900
C 	C 	0.85290 0.03480 0.46400 0.09100
H 	H 	0.87530 0.95700 0.47030 0.00400
C 	C 	0.78710 0.16660 0.45210 0.01800
H 	H 	0.75420 0.19560 0.44960 0.02300
C 	C 	0.82620 0.25520 0.45440 -0.04200
H 	H 	0.82490 0.35380 0.45020 0.04600
C 	C 	0.91920 0.22120 0.46780 -0.12700
H 	H 	0.91410 0.26060 0.42980 0.07000
H 	H 	0.93160 0.29740 0.49670 0.07300
C 	C 	0.96120 0.10620 0.48470 0.06100
C 	C 	0.98900 0.06680 0.54250 -0.06900
H 	H 	0.98220 0.11140 0.57190 0.05900
C 	C 	0.97280 0.03860 0.44250 -0.07100
H 	H 	0.95470 0.06450 0.40300 0.05700
N 	N 	0.86800 0.16400 0.44640 -0.04700
C 	C 	0.78220 0.13300 0.41810 -0.00700
H 	H 	0.74610 0.14460 0.39570 0.02600
C 	C 	0.81820 0.22100 0.41750 0.01100
H 	H 	0.81110 0.31060 0.39980 0.02600
Co	Co	0.73297 0.35307 0.03005 1.15600
N 	N 	0.63260 0.66800 0.03580 -0.05500
N 	N 	0.69688 0.52560 0.04612 -0.23200
O 	O 	0.66563 0.23590 0.98580 -0.45100
O 	O 	0.69190 0.07140 0.93853 -0.43900
O 	O 	0.27852 0.43100 0.55180 -0.45600
O 	O 	0.25209 0.27370 0.60108 -0.44000
C 	C 	0.65781 0.13030 0.95270 0.37600
C 	C 	0.60306 0.06580 0.92810 -0.12400
C 	C 	0.56357 0.13190 0.93840 0.04400
H 	H 	0.57060 0.21780 0.95880 0.02900
C 	C 	0.51369 0.07290 0.91870 -0.11800
H 	H 	0.48740 0.12030 0.92560 0.06700
C 	C 	0.50216 0.94290 0.88876 0.04800
C 	C 	0.54179 0.87950 0.87650 -0.12000
H 	H 	0.53490 0.79500 0.85510 0.06900
C 	C 	0.59147 0.94190 0.89610 0.05000
H 	H 	0.61740 0.89870 0.88740 0.02500
C 	C 	0.27445 0.38800 0.59740 0.37700
C 	C 	0.30008 0.47780 0.65180 -0.13200
C 	C 	0.33180 0.59110 0.65310 0.05600
H 	H 	0.33610 0.61500 0.61920 0.02400
C 	C 	0.35720 0.66970 0.70350 -0.12600
H 	H 	0.37920 0.74440 0.70340 0.07300
C 	C 	0.35082 0.63980 0.75490 0.05800
C 	C 	0.31940 0.52460 0.75310 -0.12600
H 	H 	0.31540 0.49940 0.78710 0.07500
C 	C 	0.29370 0.44580 0.70250 0.05700
H 	H 	0.27190 0.37060 0.70240 0.02400
C 	C 	0.45020 0.87440 0.87330 0.02900
C 	C 	0.42576 0.79190 0.82320 -0.09700
H 	H 	0.44240 0.78000 0.79800 0.06200
C 	C 	0.37722 0.72610 0.80930 0.02700
C 	C 	0.35308 0.74370 0.84800 -0.08900
H 	H 	0.32070 0.70010 0.83980 0.06600
C 	C 	0.37682 0.82550 0.89820 0.00900
H 	H 	0.36030 0.83760 0.92360 0.03600
C 	C 	0.42519 0.88950 0.91090 -0.09100
H 	H 	0.44120 0.94350 0.94510 0.05900
C 	C 	0.64710 0.53480 0.03600 0.09100
H 	H 	0.62470 0.45700 0.02970 0.00400
C 	C 	0.71290 0.66660 0.04790 0.01900
H 	H 	0.74580 0.69560 0.05040 0.02300
C 	C 	0.67380 0.75520 0.04560 -0.04200
H 	H 	0.67510 0.85380 0.04980 0.04600
C 	C 	0.58080 0.72120 0.03220 -0.12700
H 	H 	0.58590 0.76060 0.07020 0.07000
H 	H 	0.56840 0.79740 0.00330 0.07300
C 	C 	0.53880 0.60620 0.01530 0.06100
C 	C 	0.51100 0.56680 0.95750 -0.06900
H 	H 	0.51780 0.61140 0.92810 0.05900
C 	C 	0.52720 0.53860 0.05750 -0.07100
H 	H 	0.54530 0.56450 0.09700 0.05700
N 	N 	0.63200 0.66400 0.05360 -0.04700
C 	C 	0.71780 0.63300 0.08190 -0.00700
H 	H 	0.75390 0.64460 0.10430 0.02600
C 	C 	0.68180 0.72100 0.08250 0.01100
H 	H 	0.68890 0.81060 0.10020 0.02600
Co	Co	0.23297 0.85307 0.03005 1.15500
N 	N 	0.13260 0.16800 0.03580 -0.05400
N 	N 	0.19688 0.02560 0.04612 -0.23200
O 	O 	0.16563 0.73590 0.98580 -0.45000
O 	O 	0.19190 0.57140 0.93853 -0.43800
O 	O 	0.77852 0.93100 0.55180 -0.45700
O 	O 	0.75209 0.77370 0.60108 -0.44000
C 	C 	0.15781 0.63030 0.95270 0.37500
C 	C 	0.10306 0.56580 0.92810 -0.12200
C 	C 	0.06357 0.63190 0.93840 0.04200
H 	H 	0.07060 0.71780 0.95880 0.03000
C 	C 	0.01369 0.57290 0.91870 -0.11500
H 	H 	0.98740 0.62030 0.92560 0.06600
C 	C 	0.00216 0.44290 0.88876 0.04700
C 	C 	0.04179 0.37950 0.87650 -0.11900
H 	H 	0.03490 0.29500 0.85510 0.06900
C 	C 	0.09147 0.44190 0.89610 0.04800
H 	H 	0.11740 0.39870 0.88740 0.02500
C 	C 	0.77445 0.88800 0.59740 0.37700
C 	C 	0.80008 0.97780 0.65180 -0.13200
C 	C 	0.83180 0.09110 0.65310 0.05700
H 	H 	0.83610 0.11500 0.61920 0.02400
C 	C 	0.85720 0.16970 0.70350 -0.12600
H 	H 	0.87920 0.24440 0.70340 0.07300
C 	C 	0.85082 0.13980 0.75490 0.05800
C 	C 	0.81940 0.02460 0.75310 -0.12700
H 	H 	0.81540 0.99940 0.78710 0.07500
C 	C 	0.79370 0.94580 0.70250 0.05700
H 	H 	0.77190 0.87060 0.70240 0.02400
C 	C 	0.95020 0.37440 0.87330 0.02900
C 	C 	0.92576 0.29190 0.82320 -0.09700
H 	H 	0.94240 0.28000 0.79800 0.06200
C 	C 	0.87722 0.22610 0.80930 0.02700
C 	C 	0.85308 0.24370 0.84800 -0.08900
H 	H 	0.82070 0.20010 0.83980 0.06600
C 	C 	0.87682 0.32550 0.89820 0.00900
H 	H 	0.86030 0.33760 0.92360 0.03600
C 	C 	0.92519 0.38950 0.91090 -0.09100
H 	H 	0.94120 0.44350 0.94510 0.05900
C 	C 	0.14710 0.03480 0.03600 0.09200
H 	H 	0.12470 0.95700 0.02970 0.00400
C 	C 	0.21290 0.16660 0.04790 0.01800
H 	H 	0.24580 0.19560 0.05040 0.02300
C 	C 	0.17380 0.25520 0.04560 -0.04200
H 	H 	0.17510 0.35380 0.04980 0.04600
C 	C 	0.08080 0.22120 0.03220 -0.12600
H 	H 	0.08590 0.26060 0.07020 0.07000
H 	H 	0.06840 0.29740 0.00330 0.07300
C 	C 	0.03880 0.10620 0.01530 0.06100
C 	C 	0.01100 0.06680 0.95750 -0.06900
H 	H 	0.01780 0.11140 0.92810 0.05900
C 	C 	0.02720 0.03860 0.05750 -0.07100
H 	H 	0.04530 0.06450 0.09700 0.05700
N 	N 	0.13200 0.16400 0.05360 -0.04800
C 	C 	0.21780 0.13300 0.08190 -0.00600
H 	H 	0.25390 0.14460 0.10430 0.02600
C 	C 	0.18180 0.22100 0.08250 0.01100
H 	H 	0.18890 0.31060 0.10020 0.02600
