data_crystal

_cell_length_a 13.71700
_cell_length_b 8.94010
_cell_length_c 16.63500
_cell_angle_alpha 90.00000
_cell_angle_beta  93.60000
_cell_angle_gamma 90.00000

_symmetry_space_group_name_	'P 1'
_symmetry_space_group_name_H-M	'P 1'

loop_
_symmetry_equiv_pos_as_xyz
  x,y,z

loop_
_atom_site_label
_atom_site_type_symbol
_atom_site_fract_x
_atom_site_fract_y
_atom_site_fract_z
_atom_site_charge
Ag	Ag	0.63912 0.32627 0.56640 0.51200
Ag	Ag	0.90361 0.61652 0.30017 0.49700
N 	N 	0.68520 0.37970 0.44340 -0.31200
H 	H 	0.74530 0.34170 0.43860 0.08700
H 	H 	0.64440 0.33260 0.40720 0.08600
N 	N 	0.49410 0.84130 0.44280 -0.30400
H 	H 	0.47910 0.92090 0.41140 0.08600
H 	H 	0.50200 0.87430 0.49400 0.08500
N 	N 	0.80170 0.80450 0.36060 -0.30200
H 	H 	0.83270 0.89290 0.35760 0.08600
H 	H 	0.74610 0.81180 0.32920 0.10000
N 	N 	0.82000 0.94210 0.68590 -0.31900
H 	H 	0.85270 0.90620 0.64480 0.08400
H 	H 	0.76220 0.89440 0.68490 0.08600
N 	N 	0.96800 0.41910 0.61540 -0.31600
H 	H 	0.95740 0.51820 0.61090 0.07800
H 	H 	0.98250 0.38530 0.56660 0.08400
N 	N 	0.65970 0.38560 0.69720 -0.30800
H 	H 	0.65370 0.48560 0.70100 0.08200
H 	H 	0.60960 0.34520 0.72200 0.08700
C 	C 	0.68720 0.54100 0.42210 0.17300
H 	H 	0.69530 0.55050 0.36420 -0.05200
C 	C 	0.59210 0.61320 0.44120 -0.30700
H 	H 	0.58300 0.60210 0.49820 0.07400
H 	H 	0.53860 0.56200 0.41170 0.07000
C 	C 	0.58880 0.77920 0.41940 0.16600
H 	H 	0.59200 0.78910 0.36090 -0.04600
C 	C 	0.67680 0.86060 0.46110 -0.32200
H 	H 	0.67780 0.96310 0.44200 0.09700
H 	H 	0.66920 0.86310 0.51870 0.09900
C 	C 	0.77370 0.78620 0.44560 0.18100
H 	H 	0.82450 0.83390 0.48090 -0.05700
C 	C 	0.77110 0.61980 0.46770 -0.32400
H 	H 	0.83220 0.57310 0.45530 0.08300
H 	H 	0.76420 0.60960 0.52520 0.09500
C 	C 	0.80110 0.10280 0.67120 0.19900
H 	H 	0.75190 0.11340 0.62620 -0.07500
C 	C 	0.89350 0.18100 0.65000 -0.35200
H 	H 	0.91680 0.13720 0.60140 0.10200
H 	H 	0.94350 0.16680 0.69320 0.08200
C 	C 	0.87590 0.34710 0.63690 0.19200
H 	H 	0.82670 0.36020 0.59220 -0.07200
C 	C 	0.83910 0.41970 0.71150 -0.34300
H 	H 	0.82250 0.52300 0.69910 0.09200
H 	H 	0.89150 0.42010 0.75340 0.08700
C 	C 	0.75020 0.34310 0.74400 0.19000
H 	H 	0.74460 0.37760 0.79940 -0.05800
C 	C 	0.76180 0.17200 0.74640 -0.34500
H 	H 	0.80550 0.14590 0.79240 0.08900
H 	H 	0.69870 0.12770 0.75480 0.10500
Ag	Ag	0.36088 0.82627 0.93360 0.51100
Ag	Ag	0.09639 0.11652 0.19983 0.49500
N 	N 	0.31480 0.87970 0.05660 -0.31200
H 	H 	0.25470 0.84170 0.06140 0.08700
H 	H 	0.35560 0.83260 0.09280 0.08600
N 	N 	0.50590 0.34130 0.05720 -0.30400
H 	H 	0.52090 0.42090 0.08860 0.08600
H 	H 	0.49800 0.37430 0.00600 0.08500
N 	N 	0.19830 0.30450 0.13940 -0.30200
H 	H 	0.16730 0.39290 0.14240 0.08700
H 	H 	0.25390 0.31180 0.17080 0.10000
N 	N 	0.18000 0.44210 0.81410 -0.31800
H 	H 	0.14730 0.40620 0.85520 0.08400
H 	H 	0.23780 0.39440 0.81510 0.08600
N 	N 	0.03200 0.91910 0.88460 -0.31300
H 	H 	0.04260 0.01820 0.88910 0.07400
H 	H 	0.01750 0.88530 0.93340 0.08400
N 	N 	0.34030 0.88560 0.80280 -0.30800
H 	H 	0.34630 0.98560 0.79900 0.08300
H 	H 	0.39040 0.84520 0.77800 0.08700
C 	C 	0.31280 0.04100 0.07790 0.17100
H 	H 	0.30470 0.05050 0.13580 -0.05100
C 	C 	0.40790 0.11320 0.05880 -0.30600
H 	H 	0.41700 0.10210 0.00180 0.07300
H 	H 	0.46140 0.06200 0.08830 0.07000
C 	C 	0.41120 0.27920 0.08060 0.16500
H 	H 	0.40800 0.28910 0.13910 -0.04500
C 	C 	0.32320 0.36060 0.03890 -0.32000
H 	H 	0.32220 0.46310 0.05800 0.09700
H 	H 	0.33080 0.36310 0.98130 0.09800
C 	C 	0.22630 0.28620 0.05440 0.17900
H 	H 	0.17550 0.33390 0.01910 -0.05600
C 	C 	0.22890 0.11980 0.03230 -0.32000
H 	H 	0.16780 0.07310 0.04470 0.08200
H 	H 	0.23580 0.10960 0.97480 0.09300
C 	C 	0.19890 0.60280 0.82880 0.19600
H 	H 	0.24810 0.61340 0.87380 -0.07400
C 	C 	0.10650 0.68100 0.85000 -0.34800
H 	H 	0.08320 0.63720 0.89860 0.10100
H 	H 	0.05650 0.66680 0.80680 0.08000
C 	C 	0.12410 0.84710 0.86310 0.18800
H 	H 	0.17330 0.86020 0.90780 -0.07000
C 	C 	0.16090 0.91970 0.78850 -0.33400
H 	H 	0.17750 0.02300 0.80090 0.08800
H 	H 	0.10850 0.92010 0.74660 0.08500
C 	C 	0.24980 0.84310 0.75600 0.18700
H 	H 	0.25540 0.87760 0.70060 -0.05700
C 	C 	0.23820 0.67200 0.75360 -0.34200
H 	H 	0.19450 0.64590 0.70760 0.08700
H 	H 	0.30130 0.62770 0.74520 0.10400
Ag	Ag	0.36088 0.67373 0.43360 0.51100
Ag	Ag	0.09639 0.38348 0.69983 0.49600
N 	N 	0.31480 0.62030 0.55660 -0.31200
H 	H 	0.25470 0.65830 0.56140 0.08700
H 	H 	0.35560 0.66740 0.59280 0.08600
N 	N 	0.50590 0.15870 0.55720 -0.30400
H 	H 	0.52090 0.07910 0.58860 0.08600
H 	H 	0.49800 0.12570 0.50600 0.08500
N 	N 	0.19830 0.19550 0.63940 -0.30200
H 	H 	0.16730 0.10710 0.64240 0.08600
H 	H 	0.25390 0.18820 0.67080 0.10000
N 	N 	0.18000 0.05790 0.31410 -0.31900
H 	H 	0.14730 0.09380 0.35520 0.08400
H 	H 	0.23780 0.10560 0.31510 0.08600
N 	N 	0.03200 0.58090 0.38460 -0.31600
H 	H 	0.04260 0.48180 0.38910 0.07800
H 	H 	0.01750 0.61470 0.43340 0.08400
N 	N 	0.34030 0.61440 0.30280 -0.30800
H 	H 	0.34630 0.51440 0.29900 0.08200
H 	H 	0.39040 0.65480 0.27800 0.08700
C 	C 	0.31280 0.45900 0.57790 0.17300
H 	H 	0.30470 0.44950 0.63580 -0.05200
C 	C 	0.40790 0.38680 0.55880 -0.30700
H 	H 	0.41700 0.39790 0.50180 0.07400
H 	H 	0.46140 0.43800 0.58830 0.07000
C 	C 	0.41120 0.22080 0.58060 0.16600
H 	H 	0.40800 0.21090 0.63910 -0.04600
C 	C 	0.32320 0.13940 0.53890 -0.32200
H 	H 	0.32220 0.03690 0.55800 0.09700
H 	H 	0.33080 0.13690 0.48130 0.09900
C 	C 	0.22630 0.21380 0.55440 0.18100
H 	H 	0.17550 0.16610 0.51910 -0.05700
C 	C 	0.22890 0.38020 0.53230 -0.32400
H 	H 	0.16780 0.42690 0.54470 0.08300
H 	H 	0.23580 0.39040 0.47480 0.09500
C 	C 	0.19890 0.89720 0.32880 0.19900
H 	H 	0.24810 0.88660 0.37380 -0.07500
C 	C 	0.10650 0.81900 0.35000 -0.35200
H 	H 	0.08320 0.86280 0.39860 0.10200
H 	H 	0.05650 0.83320 0.30680 0.08200
C 	C 	0.12410 0.65290 0.36310 0.19200
H 	H 	0.17330 0.63980 0.40780 -0.07200
C 	C 	0.16090 0.58030 0.28850 -0.34300
H 	H 	0.17750 0.47700 0.30090 0.09200
H 	H 	0.10850 0.57990 0.24660 0.08700
C 	C 	0.24980 0.65690 0.25600 0.19000
H 	H 	0.25540 0.62240 0.20060 -0.05800
C 	C 	0.23820 0.82800 0.25360 -0.34500
H 	H 	0.19450 0.85410 0.20760 0.08900
H 	H 	0.30130 0.87230 0.24520 0.10500
Ag	Ag	0.63912 0.17373 0.06640 0.51100
Ag	Ag	0.90361 0.88348 0.80017 0.49500
N 	N 	0.68520 0.12030 0.94340 -0.31200
H 	H 	0.74530 0.15830 0.93860 0.08700
H 	H 	0.64440 0.16740 0.90720 0.08600
N 	N 	0.49410 0.65870 0.94280 -0.30400
H 	H 	0.47910 0.57910 0.91140 0.08600
H 	H 	0.50200 0.62570 0.99400 0.08500
N 	N 	0.80170 0.69550 0.86060 -0.30200
H 	H 	0.83270 0.60710 0.85760 0.08700
H 	H 	0.74610 0.68820 0.82920 0.10000
N 	N 	0.82000 0.55790 0.18590 -0.31800
H 	H 	0.85270 0.59380 0.14480 0.08400
H 	H 	0.76220 0.60560 0.18490 0.08600
N 	N 	0.96800 0.08090 0.11540 -0.31300
H 	H 	0.95740 0.98180 0.11090 0.07400
H 	H 	0.98250 0.11470 0.06660 0.08400
N 	N 	0.65970 0.11440 0.19720 -0.30800
H 	H 	0.65370 0.01440 0.20100 0.08300
H 	H 	0.60960 0.15480 0.22200 0.08700
C 	C 	0.68720 0.95900 0.92210 0.17100
H 	H 	0.69530 0.94950 0.86420 -0.05100
C 	C 	0.59210 0.88680 0.94120 -0.30600
H 	H 	0.58300 0.89790 0.99820 0.07300
H 	H 	0.53860 0.93800 0.91170 0.07000
C 	C 	0.58880 0.72080 0.91940 0.16500
H 	H 	0.59200 0.71090 0.86090 -0.04500
C 	C 	0.67680 0.63940 0.96110 -0.32000
H 	H 	0.67780 0.53690 0.94200 0.09700
H 	H 	0.66920 0.63690 0.01870 0.09800
C 	C 	0.77370 0.71380 0.94560 0.17900
H 	H 	0.82450 0.66610 0.98090 -0.05600
C 	C 	0.77110 0.88020 0.96770 -0.32000
H 	H 	0.83220 0.92690 0.95530 0.08200
H 	H 	0.76420 0.89040 0.02520 0.09300
C 	C 	0.80110 0.39720 0.17120 0.19600
H 	H 	0.75190 0.38660 0.12620 -0.07400
C 	C 	0.89350 0.31900 0.15000 -0.34800
H 	H 	0.91680 0.36280 0.10140 0.10100
H 	H 	0.94350 0.33320 0.19320 0.08000
C 	C 	0.87590 0.15290 0.13690 0.18800
H 	H 	0.82670 0.13980 0.09220 -0.07000
C 	C 	0.83910 0.08030 0.21150 -0.33400
H 	H 	0.82250 0.97700 0.19910 0.08800
H 	H 	0.89150 0.07990 0.25340 0.08500
C 	C 	0.75020 0.15690 0.24400 0.18700
H 	H 	0.74460 0.12240 0.29940 -0.05700
C 	C 	0.76180 0.32800 0.24640 -0.34200
H 	H 	0.80550 0.35410 0.29240 0.08700
H 	H 	0.69870 0.37230 0.25480 0.10400
