data_crystal

_cell_length_a 10.72980
_cell_length_b 11.90790
_cell_length_c 14.76780
_cell_angle_alpha 73.05700
_cell_angle_beta  71.52800
_cell_angle_gamma 66.45600

_symmetry_space_group_name_	'P 1'
_symmetry_space_group_name_H-M	'P 1'

loop_
_symmetry_equiv_pos_as_xyz
  x,y,z

loop_
_atom_site_label
_atom_site_type_symbol
_atom_site_fract_x
_atom_site_fract_y
_atom_site_fract_z
_atom_site_charge
Nd	Nd	0.01495 0.45055 0.37171 2.23500
Nd	Nd	0.98505 0.54945 0.62829 2.23500
P 	P 	0.85928 0.28190 0.27352 0.24600
P 	P 	0.14072 0.71810 0.72648 0.24600
H 	H 	0.49770 0.36260 0.55780 0.03100
H 	H 	0.04980 0.10280 0.38140 0.04100
H 	H 	0.72630 0.31960 0.46320 0.06300
H 	H 	0.02780 0.17530 0.10750 0.03100
H 	H 	0.35910 0.38530 0.32460 -0.02900
H 	H 	0.58940 0.33490 0.23110 0.06200
H 	H 	0.81520 0.08410 0.22180 0.05300
H 	H 	0.75030 0.57750 0.98340 0.03900
H 	H 	0.06060 0.25090 0.93920 0.05700
H 	H 	0.11540 0.88700 0.43530 0.02000
H 	H 	0.89540 0.86440 0.26720 0.02800
H 	H 	0.72560 0.50820 0.15230 0.05100
H 	H 	0.50230 0.63740 0.44220 0.03200
H 	H 	0.95020 0.89720 0.61860 0.04200
H 	H 	0.27370 0.68040 0.53680 0.06300
H 	H 	0.97220 0.82470 0.89250 0.03100
H 	H 	0.64090 0.61470 0.67540 -0.02900
H 	H 	0.41060 0.66510 0.76890 0.06200
H 	H 	0.18480 0.91590 0.77820 0.05300
H 	H 	0.24970 0.42250 0.01660 0.03900
H 	H 	0.93940 0.74910 0.06080 0.05700
H 	H 	0.88460 0.11300 0.56470 0.02000
H 	H 	0.10460 0.13560 0.73280 0.02800
H 	H 	0.27440 0.49180 0.84770 0.05100
C 	C 	0.87160 0.33430 0.14560 -0.04300
C 	C 	0.51610 0.35850 0.49140 0.03900
C 	C 	0.92400 0.11350 0.29870 -0.01200
C 	C 	0.67900 0.32500 0.33790 -0.00600
C 	C 	0.01510 0.05510 0.36040 -0.08500
C 	C 	0.65190 0.33240 0.43530 -0.07700
C 	C 	0.40600 0.37900 0.45000 -0.16000
C 	C 	0.97240 0.25700 0.08270 -0.02300
C 	C 	0.43360 0.37110 0.35280 0.06700
C 	C 	0.57030 0.34250 0.29680 -0.10700
C 	C 	0.87740 0.04370 0.26420 -0.08100
C 	C 	0.90730 0.42020 0.94570 -0.05700
C 	C 	0.92980 0.46280 0.83740 0.29900
C 	C 	0.80740 0.49680 0.00850 -0.00500
C 	C 	0.99050 0.30190 0.98260 -0.03400
C 	C 	0.00860 0.85630 0.35850 -0.14700
C 	C 	0.05540 0.92690 0.39140 0.03600
C 	C 	0.92290 0.91330 0.29270 0.02900
C 	C 	0.04490 0.71760 0.39780 0.46000
C 	C 	0.26060 0.41270 0.51100 0.42500
C 	C 	0.79120 0.45480 0.10900 -0.04200
C 	C 	0.12840 0.66570 0.85440 -0.04300
C 	C 	0.48390 0.64150 0.50860 0.03900
C 	C 	0.07600 0.88650 0.70130 -0.01200
C 	C 	0.32100 0.67500 0.66210 -0.00600
C 	C 	0.98490 0.94490 0.63960 -0.08500
C 	C 	0.34810 0.66760 0.56470 -0.07700
C 	C 	0.59400 0.62100 0.55000 -0.16000
C 	C 	0.02760 0.74300 0.91730 -0.02300
C 	C 	0.56640 0.62890 0.64720 0.06700
C 	C 	0.42970 0.65750 0.70320 -0.10700
C 	C 	0.12260 0.95630 0.73580 -0.08100
C 	C 	0.09270 0.57980 0.05430 -0.05700
C 	C 	0.07020 0.53720 0.16260 0.29900
C 	C 	0.19260 0.50320 0.99150 -0.00500
C 	C 	0.00950 0.69810 0.01740 -0.03400
C 	C 	0.99140 0.14370 0.64150 -0.14700
C 	C 	0.94460 0.07310 0.60860 0.03600
C 	C 	0.07710 0.08670 0.70730 0.02900
C 	C 	0.95510 0.28240 0.60220 0.46000
C 	C 	0.73940 0.58730 0.48900 0.42500
C 	C 	0.20880 0.54520 0.89100 -0.04200
O 	O 	0.04890 0.41870 0.78540 -0.40100
O 	O 	0.23870 0.43390 0.59470 -0.46200
O 	O 	0.07240 0.67990 0.48070 -0.52900
O 	O 	0.82660 0.54040 0.80030 -0.42400
O 	O 	0.04250 0.65150 0.34620 -0.51200
O 	O 	0.15940 0.42290 0.47750 -0.62300
O 	O 	0.93910 0.32970 0.31110 -0.45400
O 	O 	0.95110 0.58130 0.21460 -0.40100
O 	O 	0.76130 0.56610 0.40530 -0.46200
O 	O 	0.92760 0.32010 0.51930 -0.52900
O 	O 	0.17340 0.45960 0.19970 -0.42400
O 	O 	0.95750 0.34850 0.65380 -0.51200
O 	O 	0.84060 0.57710 0.52250 -0.62300
O 	O 	0.06090 0.67030 0.68890 -0.45400
