data_crystal

_cell_length_a 10.79610
_cell_length_b 11.83330
_cell_length_c 14.57790
_cell_angle_alpha 73.78800
_cell_angle_beta  72.08300
_cell_angle_gamma 67.04900

_symmetry_space_group_name_	'P 1'
_symmetry_space_group_name_H-M	'P 1'

loop_
_symmetry_equiv_pos_as_xyz
  x,y,z

loop_
_atom_site_label
_atom_site_type_symbol
_atom_site_fract_x
_atom_site_fract_y
_atom_site_fract_z
_atom_site_charge
Gd	Gd	0.01074 0.44771 0.37185 1.60700
Gd	Gd	0.98926 0.55229 0.62815 1.60700
P 	P 	0.85437 0.28033 0.27438 0.23200
P 	P 	0.14563 0.71967 0.72562 0.23200
H 	H 	0.48820 0.36890 0.55520 0.03900
H 	H 	0.04350 0.10230 0.38220 0.05200
H 	H 	0.71650 0.32480 0.46370 0.06900
H 	H 	0.03310 0.18140 0.10640 0.03700
H 	H 	0.36220 0.37640 0.31860 0.00700
H 	H 	0.59110 0.32520 0.22840 0.05900
H 	H 	0.81160 0.07990 0.21940 0.05300
H 	H 	0.74890 0.57340 0.98190 0.04200
H 	H 	0.07190 0.25760 0.93750 0.05600
H 	H 	0.10740 0.88540 0.43580 0.02900
H 	H 	0.88760 0.86300 0.26530 0.03800
H 	H 	0.71880 0.50190 0.15160 0.05500
H 	H 	0.51180 0.63110 0.44480 0.03900
H 	H 	0.95650 0.89770 0.61780 0.05200
H 	H 	0.28350 0.67520 0.53630 0.06900
H 	H 	0.96690 0.81860 0.89360 0.03700
H 	H 	0.63780 0.62360 0.68140 0.00700
H 	H 	0.40890 0.67480 0.77160 0.05900
H 	H 	0.18840 0.92010 0.78060 0.05300
H 	H 	0.25110 0.42660 0.01810 0.04200
H 	H 	0.92810 0.74240 0.06250 0.05600
H 	H 	0.89260 0.11460 0.56420 0.02900
H 	H 	0.11240 0.13700 0.73470 0.03800
H 	H 	0.28120 0.49810 0.84840 0.05500
C 	C 	0.86830 0.33300 0.14480 -0.03400
C 	C 	0.50890 0.36160 0.48850 0.02900
C 	C 	0.91890 0.11190 0.29770 -0.01000
C 	C 	0.67490 0.32150 0.33700 -0.00400
C 	C 	0.00890 0.05420 0.36050 -0.07900
C 	C 	0.64480 0.33440 0.43440 -0.07300
C 	C 	0.40360 0.37800 0.44540 -0.13100
C 	C 	0.97530 0.26110 0.08120 -0.03000
C 	C 	0.43420 0.36510 0.34820 0.04300
C 	C 	0.57020 0.33560 0.29440 -0.09000
C 	C 	0.87260 0.04040 0.26270 -0.07300
C 	C 	0.91190 0.42090 0.94320 -0.05800
C 	C 	0.93590 0.46560 0.83420 0.29600
C 	C 	0.80720 0.49390 0.00700 -0.00400
C 	C 	0.99750 0.30610 0.98070 -0.02600
C 	C 	0.00080 0.85420 0.35790 -0.12000
C 	C 	0.04790 0.92500 0.39140 0.02600
C 	C 	0.91590 0.91190 0.29120 0.01900
C 	C 	0.03470 0.71610 0.39830 0.40800
C 	C 	0.25700 0.41470 0.50440 0.39600
C 	C 	0.78790 0.45030 0.10800 -0.04500
C 	C 	0.13170 0.66700 0.85520 -0.03400
C 	C 	0.49110 0.63840 0.51150 0.02900
C 	C 	0.08110 0.88810 0.70230 -0.01000
C 	C 	0.32510 0.67850 0.66300 -0.00400
C 	C 	0.99110 0.94580 0.63950 -0.07900
C 	C 	0.35520 0.66560 0.56560 -0.07300
C 	C 	0.59640 0.62200 0.55460 -0.13100
C 	C 	0.02470 0.73890 0.91880 -0.03000
C 	C 	0.56580 0.63490 0.65180 0.04300
C 	C 	0.42980 0.66440 0.70560 -0.09000
C 	C 	0.12740 0.95960 0.73730 -0.07300
C 	C 	0.08810 0.57910 0.05680 -0.05800
C 	C 	0.06410 0.53440 0.16580 0.29600
C 	C 	0.19280 0.50610 0.99300 -0.00400
C 	C 	0.00250 0.69390 0.01930 -0.02600
C 	C 	0.99920 0.14580 0.64210 -0.12000
C 	C 	0.95210 0.07500 0.60860 0.02600
C 	C 	0.08410 0.08810 0.70880 0.01900
C 	C 	0.96530 0.28390 0.60170 0.40800
C 	C 	0.74300 0.58530 0.49560 0.39600
C 	C 	0.21210 0.54970 0.89200 -0.04500
O 	O 	0.05670 0.42570 0.78364 -0.33600
O 	O 	0.23320 0.44080 0.58755 -0.39300
O 	O 	0.06560 0.68010 0.48120 -0.43600
O 	O 	0.83610 0.54120 0.79568 -0.36900
O 	O 	0.02720 0.64950 0.34803 -0.41900
O 	O 	0.16120 0.42470 0.46648 -0.49000
O 	O 	0.93080 0.32870 0.31507 -0.37200
O 	O 	0.94330 0.57430 0.21636 -0.33600
O 	O 	0.76680 0.55920 0.41245 -0.39300
O 	O 	0.93440 0.31990 0.51880 -0.43600
O 	O 	0.16390 0.45880 0.20432 -0.36900
O 	O 	0.97280 0.35050 0.65197 -0.41900
O 	O 	0.83880 0.57530 0.53352 -0.49000
O 	O 	0.06920 0.67130 0.68493 -0.37200
