data_crystal

_cell_length_a 10.74590
_cell_length_b 11.86550
_cell_length_c 14.67520
_cell_angle_alpha 73.26700
_cell_angle_beta  71.82400
_cell_angle_gamma 66.79900

_symmetry_space_group_name_	'P 1'
_symmetry_space_group_name_H-M	'P 1'

loop_
_symmetry_equiv_pos_as_xyz
  x,y,z

loop_
_atom_site_label
_atom_site_type_symbol
_atom_site_fract_x
_atom_site_fract_y
_atom_site_fract_z
_atom_site_charge
Sm	Sm	0.01298 0.44969 0.37209 2.07000
Sm	Sm	0.98702 0.55031 0.62791 2.07000
P 	P 	0.85663 0.28196 0.27429 0.24600
P 	P 	0.14337 0.71804 0.72571 0.24600
H 	H 	0.49380 0.36570 0.55690 0.03300
H 	H 	0.04610 0.10270 0.38310 0.04600
H 	H 	0.72120 0.32220 0.46430 0.06700
H 	H 	0.02780 0.17990 0.10680 0.03200
H 	H 	0.35840 0.38310 0.32300 -0.01800
H 	H 	0.58920 0.33320 0.23000 0.06200
H 	H 	0.81250 0.08270 0.22150 0.05300
H 	H 	0.74990 0.57730 0.98330 0.04000
H 	H 	0.06460 0.25460 0.93860 0.05700
H 	H 	0.11380 0.88660 0.43460 0.02200
H 	H 	0.88960 0.86520 0.26750 0.03000
H 	H 	0.72320 0.50550 0.15160 0.05100
H 	H 	0.50620 0.63430 0.44310 0.03200
H 	H 	0.95390 0.89730 0.61690 0.04500
H 	H 	0.27880 0.67780 0.53570 0.06600
H 	H 	0.97220 0.82010 0.89320 0.03100
H 	H 	0.64160 0.61690 0.67700 -0.01800
H 	H 	0.41080 0.66680 0.77000 0.06200
H 	H 	0.18750 0.91730 0.77850 0.05300
H 	H 	0.25010 0.42270 0.01670 0.04000
H 	H 	0.93540 0.74540 0.06140 0.05700
H 	H 	0.88620 0.11340 0.56540 0.02200
H 	H 	0.11040 0.13480 0.73250 0.03000
H 	H 	0.27680 0.49450 0.84840 0.05100
C 	C 	0.86950 0.33410 0.14550 -0.04300
C 	C 	0.51300 0.36010 0.49030 0.04200
C 	C 	0.92180 0.11370 0.29860 -0.01200
C 	C 	0.67620 0.32390 0.33800 -0.00300
C 	C 	0.01210 0.05490 0.36100 -0.08500
C 	C 	0.64790 0.33370 0.43570 -0.08000
C 	C 	0.40480 0.37860 0.44870 -0.15800
C 	C 	0.97150 0.26100 0.08180 -0.02100
C 	C 	0.43220 0.36970 0.35170 0.06300
C 	C 	0.56950 0.34090 0.29610 -0.10300
C 	C 	0.87450 0.04260 0.26420 -0.08000
C 	C 	0.90830 0.42060 0.94500 -0.05600
C 	C 	0.93020 0.46490 0.83590 0.30000
C 	C 	0.80690 0.49660 0.00830 -0.00700
C 	C 	0.99240 0.30460 0.98180 -0.03400
C 	C 	0.00510 0.85540 0.35840 -0.14300
C 	C 	0.05280 0.92640 0.39110 0.03600
C 	C 	0.91850 0.91380 0.29270 0.02900
C 	C 	0.04080 0.71730 0.39780 0.44800
C 	C 	0.25830 0.41350 0.50880 0.43100
C 	C 	0.79020 0.45300 0.10810 -0.04100
C 	C 	0.13050 0.66590 0.85450 -0.04300
C 	C 	0.48700 0.63990 0.50970 0.04200
C 	C 	0.07820 0.88630 0.70140 -0.01200
C 	C 	0.32380 0.67610 0.66200 -0.00300
C 	C 	0.98790 0.94510 0.63900 -0.08500
C 	C 	0.35210 0.66630 0.56430 -0.08000
C 	C 	0.59520 0.62140 0.55130 -0.15800
C 	C 	0.02850 0.73900 0.91820 -0.02100
C 	C 	0.56780 0.63030 0.64830 0.06300
C 	C 	0.43050 0.65910 0.70390 -0.10300
C 	C 	0.12550 0.95740 0.73580 -0.08000
C 	C 	0.09170 0.57940 0.05500 -0.05600
C 	C 	0.06980 0.53510 0.16410 0.30000
C 	C 	0.19310 0.50340 0.99170 -0.00700
C 	C 	0.00760 0.69540 0.01820 -0.03400
C 	C 	0.99490 0.14460 0.64160 -0.14300
C 	C 	0.94720 0.07360 0.60890 0.03600
C 	C 	0.08150 0.08620 0.70730 0.02900
C 	C 	0.95920 0.28270 0.60220 0.44800
C 	C 	0.74170 0.58650 0.49120 0.43100
C 	C 	0.20980 0.54700 0.89190 -0.04100
O 	O 	0.05060 0.42290 0.78420 -0.38600
O 	O 	0.23620 0.43630 0.59211 -0.45100
O 	O 	0.06940 0.68020 0.48127 -0.50700
O 	O 	0.82940 0.54150 0.79797 -0.41200
O 	O 	0.03670 0.65040 0.34696 -0.49000
O 	O 	0.15990 0.42430 0.47326 -0.59300
O 	O 	0.93510 0.33010 0.31276 -0.43300
O 	O 	0.94940 0.57710 0.21580 -0.38600
O 	O 	0.76380 0.56370 0.40789 -0.45100
O 	O 	0.93060 0.31980 0.51873 -0.50700
O 	O 	0.17060 0.45850 0.20203 -0.41200
O 	O 	0.96330 0.34960 0.65304 -0.49000
O 	O 	0.84010 0.57570 0.52674 -0.59300
O 	O 	0.06490 0.66990 0.68724 -0.43300
