data_crystal

_cell_length_a 10.72400
_cell_length_b 11.83100
_cell_length_c 14.59300
_cell_angle_alpha 73.66000
_cell_angle_beta  71.98000
_cell_angle_gamma 66.90000

_symmetry_space_group_name_	'P 1'
_symmetry_space_group_name_H-M	'P 1'

loop_
_symmetry_equiv_pos_as_xyz
  x,y,z

loop_
_atom_site_label
_atom_site_type_symbol
_atom_site_fract_x
_atom_site_fract_y
_atom_site_fract_z
_atom_site_charge
Eu	Eu	0.01243 0.44879 0.37223 1.99700
Eu	Eu	0.98757 0.55121 0.62777 1.99700
P 	P 	0.85726 0.28055 0.27380 0.24400
P 	P 	0.14274 0.71945 0.72620 0.24400
H 	H 	0.49230 0.36770 0.55740 0.03300
H 	H 	0.04580 0.10240 0.38380 0.04600
H 	H 	0.72010 0.32140 0.46500 0.06700
H 	H 	0.03140 0.17830 0.10410 0.03300
H 	H 	0.35850 0.38320 0.32180 -0.01300
H 	H 	0.58910 0.32820 0.22860 0.06100
H 	H 	0.81260 0.08090 0.22010 0.05300
H 	H 	0.74930 0.57650 0.98310 0.03900
H 	H 	0.06420 0.25320 0.93680 0.05500
H 	H 	0.11410 0.88510 0.43460 0.02400
H 	H 	0.88870 0.86370 0.26630 0.03200
H 	H 	0.72410 0.50440 0.15180 0.05400
H 	H 	0.50770 0.63230 0.44260 0.03300
H 	H 	0.95420 0.89760 0.61620 0.04600
H 	H 	0.27990 0.67860 0.53500 0.06700
H 	H 	0.96860 0.82170 0.89590 0.03300
H 	H 	0.64150 0.61680 0.67820 -0.01300
H 	H 	0.41090 0.67180 0.77140 0.06100
H 	H 	0.18740 0.91910 0.77990 0.05300
H 	H 	0.25070 0.42350 0.01690 0.03900
H 	H 	0.93580 0.74680 0.06320 0.05500
H 	H 	0.88590 0.11490 0.56540 0.02400
H 	H 	0.11130 0.13630 0.73370 0.03200
H 	H 	0.27590 0.49560 0.84820 0.05400
C 	C 	0.87130 0.33250 0.14430 -0.03900
C 	C 	0.51180 0.36070 0.49080 0.04300
C 	C 	0.92180 0.11310 0.29730 -0.01400
C 	C 	0.67750 0.32240 0.33730 -0.00500
C 	C 	0.01220 0.05430 0.36110 -0.08100
C 	C 	0.64710 0.33320 0.43580 -0.07900
C 	C 	0.40480 0.37820 0.44860 -0.15800
C 	C 	0.97410 0.25920 0.07970 -0.02500
C 	C 	0.43280 0.36870 0.35070 0.06000
C 	C 	0.56960 0.33820 0.29450 -0.10000
C 	C 	0.87450 0.04120 0.26310 -0.07700
C 	C 	0.90920 0.42050 0.94380 -0.06100
C 	C 	0.93280 0.46470 0.83460 0.30800
C 	C 	0.80710 0.49600 0.00770 -0.00200
C 	C 	0.99290 0.30350 0.98070 -0.02900
C 	C 	0.00430 0.85400 0.35790 -0.13800
C 	C 	0.05280 0.92510 0.39110 0.03200
C 	C 	0.91790 0.91240 0.29180 0.02700
C 	C 	0.03870 0.71710 0.39770 0.43500
C 	C 	0.25840 0.41500 0.50720 0.43000
C 	C 	0.79090 0.45220 0.10760 -0.04400
C 	C 	0.12870 0.66750 0.85570 -0.03900
C 	C 	0.48820 0.63930 0.50920 0.04300
C 	C 	0.07820 0.88690 0.70270 -0.01400
C 	C 	0.32250 0.67760 0.66270 -0.00500
C 	C 	0.98780 0.94570 0.63890 -0.08100
C 	C 	0.35290 0.66680 0.56420 -0.07900
C 	C 	0.59520 0.62180 0.55140 -0.15800
C 	C 	0.02590 0.74080 0.92030 -0.02500
C 	C 	0.56720 0.63130 0.64930 0.06000
C 	C 	0.43040 0.66180 0.70550 -0.10000
C 	C 	0.12550 0.95880 0.73690 -0.07700
C 	C 	0.09080 0.57950 0.05620 -0.06100
C 	C 	0.06720 0.53530 0.16540 0.30800
C 	C 	0.19290 0.50400 0.99230 -0.00200
C 	C 	0.00710 0.69650 0.01930 -0.02900
C 	C 	0.99570 0.14600 0.64210 -0.13800
C 	C 	0.94720 0.07490 0.60890 0.03200
C 	C 	0.08210 0.08760 0.70820 0.02700
C 	C 	0.96130 0.28290 0.60230 0.43500
C 	C 	0.74160 0.58500 0.49280 0.43000
C 	C 	0.20910 0.54780 0.89240 -0.04400
O 	O 	0.05320 0.42480 0.78360 -0.38000
O 	O 	0.23570 0.43930 0.59050 -0.44400
O 	O 	0.06730 0.68060 0.48230 -0.49300
O 	O 	0.83220 0.54100 0.79630 -0.41000
O 	O 	0.03350 0.64880 0.34730 -0.47800
O 	O 	0.15970 0.42500 0.47150 -0.57800
O 	O 	0.93590 0.32900 0.31300 -0.42500
O 	O 	0.94680 0.57520 0.21640 -0.38000
O 	O 	0.76430 0.56070 0.40950 -0.44400
O 	O 	0.93270 0.31940 0.51770 -0.49300
O 	O 	0.16780 0.45900 0.20370 -0.41000
O 	O 	0.96650 0.35120 0.65270 -0.47800
O 	O 	0.84030 0.57500 0.52850 -0.57800
O 	O 	0.06410 0.67100 0.68700 -0.42500
