data_crystal

_cell_length_a 20.94900
_cell_length_b 17.47000
_cell_length_c 20.34500
_cell_angle_alpha 90.00000
_cell_angle_beta  90.00000
_cell_angle_gamma 90.00000

_symmetry_space_group_name_	'P 1'
_symmetry_space_group_name_H-M	'P 1'

loop_
_symmetry_equiv_pos_as_xyz
  x,y,z

loop_
_atom_site_label
_atom_site_type_symbol
_atom_site_fract_x
_atom_site_fract_y
_atom_site_fract_z
_atom_site_charge
Sn	Sn	0.58346 0.34504 0.16440 1.29800
O 	O 	0.61120 0.25200 0.24190 -0.39000
O 	O 	0.66210 0.16710 0.30180 -0.21300
O 	O 	0.55660 0.42350 0.08450 -0.40500
O 	O 	0.49690 0.50120 0.14320 -0.26300
C 	C 	0.65970 0.22890 0.26890 0.33200
C 	C 	0.72120 0.27510 0.26760 -0.06400
C 	C 	0.52020 0.48110 0.09040 0.32700
C 	C 	0.50800 0.52520 0.02590 -0.02900
C 	C 	0.62150 0.43380 0.22830 -0.20500
C 	C 	0.67570 0.47920 0.18310 -0.02200
C 	C 	0.69780 0.53300 0.22420 0.02500
C 	C 	0.74620 0.58100 0.18800 0.00600
C 	C 	0.48800 0.30810 0.18690 -0.21200
C 	C 	0.45090 0.28280 0.12540 -0.00000
C 	C 	0.38560 0.25700 0.15200 0.01600
C 	C 	0.35200 0.23500 0.10500 0.00200
C 	C 	0.64540 0.28960 0.09540 -0.23000
C 	C 	0.61240 0.24060 0.04950 0.01100
C 	C 	0.66520 0.19700 0.00990 0.01000
C 	C 	0.63550 0.17100 0.95980 0.01000
Sn	Sn	0.91654 0.15496 0.16440 1.29700
O 	O 	0.88880 0.24800 0.24190 -0.39200
O 	O 	0.83790 0.33290 0.30180 -0.21400
O 	O 	0.94340 0.07650 0.08450 -0.40600
O 	O 	0.00310 0.99880 0.14320 -0.26200
C 	C 	0.84030 0.27110 0.26890 0.33200
C 	C 	0.77880 0.22490 0.26760 -0.06400
C 	C 	0.97980 0.01890 0.09040 0.32300
C 	C 	0.99200 0.97480 0.02590 -0.02800
C 	C 	0.87850 0.06620 0.22830 -0.20600
C 	C 	0.82430 0.02080 0.18310 -0.02300
C 	C 	0.80220 0.96700 0.22420 0.02700
C 	C 	0.75380 0.91900 0.18800 0.00600
C 	C 	0.01200 0.19190 0.18690 -0.21100
C 	C 	0.04910 0.21720 0.12540 0.00000
C 	C 	0.11440 0.24300 0.15200 0.01600
C 	C 	0.14800 0.26500 0.10500 0.00200
C 	C 	0.85460 0.21040 0.09540 -0.23000
C 	C 	0.88760 0.25940 0.04950 0.01100
C 	C 	0.83480 0.30300 0.00990 0.01000
C 	C 	0.86450 0.32900 0.95980 0.01000
Sn	Sn	0.41654 0.65496 0.83560 1.29700
O 	O 	0.38880 0.74800 0.75810 -0.39100
O 	O 	0.33790 0.83290 0.69820 -0.21400
O 	O 	0.44340 0.57650 0.91550 -0.40600
O 	O 	0.50310 0.49880 0.85680 -0.26300
C 	C 	0.34030 0.77110 0.73110 0.33200
C 	C 	0.27880 0.72490 0.73240 -0.06400
C 	C 	0.47980 0.51890 0.90960 0.32700
C 	C 	0.49200 0.47480 0.97410 -0.02900
C 	C 	0.37850 0.56620 0.77170 -0.20500
C 	C 	0.32430 0.52080 0.81690 -0.02200
C 	C 	0.30220 0.46700 0.77580 0.02500
C 	C 	0.25380 0.41900 0.81200 0.00600
C 	C 	0.51200 0.69190 0.81310 -0.21200
C 	C 	0.54910 0.71720 0.87460 -0.00000
C 	C 	0.61440 0.74300 0.84800 0.01600
C 	C 	0.64800 0.76500 0.89500 0.00200
C 	C 	0.35460 0.71040 0.90460 -0.23000
C 	C 	0.38760 0.75940 0.95050 0.01100
C 	C 	0.33480 0.80300 0.99010 0.01000
C 	C 	0.36450 0.82900 0.04020 0.01000
Sn	Sn	0.08346 0.84504 0.83560 1.29700
O 	O 	0.11120 0.75200 0.75810 -0.39200
O 	O 	0.16210 0.66710 0.69820 -0.21400
O 	O 	0.05660 0.92350 0.91550 -0.40600
O 	O 	0.99690 0.00120 0.85680 -0.26200
C 	C 	0.15970 0.72890 0.73110 0.33200
C 	C 	0.22120 0.77510 0.73240 -0.06400
C 	C 	0.02020 0.98110 0.90960 0.32300
C 	C 	0.00800 0.02520 0.97410 -0.02800
C 	C 	0.12150 0.93380 0.77170 -0.20600
C 	C 	0.17570 0.97920 0.81690 -0.02300
C 	C 	0.19780 0.03300 0.77580 0.02700
C 	C 	0.24620 0.08100 0.81200 0.00600
C 	C 	0.98800 0.80810 0.81310 -0.21100
C 	C 	0.95090 0.78280 0.87460 0.00000
C 	C 	0.88560 0.75700 0.84800 0.01600
C 	C 	0.85200 0.73500 0.89500 0.00200
C 	C 	0.14540 0.78960 0.90460 -0.23000
C 	C 	0.11240 0.74060 0.95050 0.01100
C 	C 	0.16520 0.69700 0.99010 0.01000
C 	C 	0.13550 0.67100 0.04020 0.01000
Sn	Sn	0.41654 0.84504 0.33560 1.29700
O 	O 	0.38880 0.75200 0.25810 -0.39100
O 	O 	0.33790 0.66710 0.19820 -0.21400
O 	O 	0.44340 0.92350 0.41550 -0.40600
O 	O 	0.50310 0.00120 0.35680 -0.26300
C 	C 	0.34030 0.72890 0.23110 0.33200
C 	C 	0.27880 0.77510 0.23240 -0.06400
C 	C 	0.47980 0.98110 0.40960 0.32700
C 	C 	0.49200 0.02520 0.47410 -0.03000
C 	C 	0.37850 0.93380 0.27170 -0.20500
C 	C 	0.32430 0.97920 0.31690 -0.02200
C 	C 	0.30220 0.03300 0.27580 0.02500
C 	C 	0.25380 0.08100 0.31200 0.00600
C 	C 	0.51200 0.80810 0.31310 -0.21100
C 	C 	0.54910 0.78280 0.37460 -0.00000
C 	C 	0.61440 0.75700 0.34800 0.01600
C 	C 	0.64800 0.73500 0.39500 0.00200
C 	C 	0.35460 0.78960 0.40460 -0.23000
C 	C 	0.38760 0.74060 0.45050 0.01100
C 	C 	0.33480 0.69700 0.49010 0.01100
C 	C 	0.36450 0.67100 0.54020 0.00900
Sn	Sn	0.08346 0.65496 0.33560 1.29700
O 	O 	0.11120 0.74800 0.25810 -0.39100
O 	O 	0.16210 0.83290 0.19820 -0.21400
O 	O 	0.05660 0.57650 0.41550 -0.40600
O 	O 	0.99690 0.49880 0.35680 -0.26300
C 	C 	0.15970 0.77110 0.23110 0.33200
C 	C 	0.22120 0.72490 0.23240 -0.06400
C 	C 	0.02020 0.51890 0.40960 0.32700
C 	C 	0.00800 0.47480 0.47410 -0.02900
C 	C 	0.12150 0.56620 0.27170 -0.20500
C 	C 	0.17570 0.52080 0.31690 -0.02200
C 	C 	0.19780 0.46700 0.27580 0.02500
C 	C 	0.24620 0.41900 0.31200 0.00600
C 	C 	0.98800 0.69190 0.31310 -0.21200
C 	C 	0.95090 0.71720 0.37460 -0.00000
C 	C 	0.88560 0.74300 0.34800 0.01600
C 	C 	0.85200 0.76500 0.39500 0.00200
C 	C 	0.14540 0.71040 0.40460 -0.23000
C 	C 	0.11240 0.75940 0.45050 0.01100
C 	C 	0.16520 0.80300 0.49010 0.01100
C 	C 	0.13550 0.82900 0.54020 0.00900
Sn	Sn	0.58346 0.15496 0.66440 1.29700
O 	O 	0.61120 0.24800 0.74190 -0.39100
O 	O 	0.66210 0.33290 0.80180 -0.21400
O 	O 	0.55660 0.07650 0.58450 -0.40600
O 	O 	0.49690 0.99880 0.64320 -0.26300
C 	C 	0.65970 0.27110 0.76890 0.33200
C 	C 	0.72120 0.22490 0.76760 -0.06400
C 	C 	0.52020 0.01890 0.59040 0.32700
C 	C 	0.50800 0.97480 0.52590 -0.03000
C 	C 	0.62150 0.06620 0.72830 -0.20500
C 	C 	0.67570 0.02080 0.68310 -0.02200
C 	C 	0.69780 0.96700 0.72420 0.02500
C 	C 	0.74620 0.91900 0.68800 0.00600
C 	C 	0.48800 0.19190 0.68690 -0.21100
C 	C 	0.45090 0.21720 0.62540 -0.00000
C 	C 	0.38560 0.24300 0.65200 0.01600
C 	C 	0.35200 0.26500 0.60500 0.00200
C 	C 	0.64540 0.21040 0.59540 -0.23000
C 	C 	0.61240 0.25940 0.54950 0.01100
C 	C 	0.66520 0.30300 0.50990 0.01100
C 	C 	0.63550 0.32900 0.45980 0.00900
Sn	Sn	0.91654 0.34504 0.66440 1.29700
O 	O 	0.88880 0.25200 0.74190 -0.39100
O 	O 	0.83790 0.16710 0.80180 -0.21400
O 	O 	0.94340 0.42350 0.58450 -0.40600
O 	O 	0.00310 0.50120 0.64320 -0.26300
C 	C 	0.84030 0.22890 0.76890 0.33200
C 	C 	0.77880 0.27510 0.76760 -0.06400
C 	C 	0.97980 0.48110 0.59040 0.32700
C 	C 	0.99200 0.52520 0.52590 -0.02900
C 	C 	0.87850 0.43380 0.72830 -0.20500
C 	C 	0.82430 0.47920 0.68310 -0.02200
C 	C 	0.80220 0.53300 0.72420 0.02500
C 	C 	0.75380 0.58100 0.68800 0.00600
C 	C 	0.01200 0.30810 0.68690 -0.21200
C 	C 	0.04910 0.28280 0.62540 -0.00000
C 	C 	0.11440 0.25700 0.65200 0.01600
C 	C 	0.14800 0.23500 0.60500 0.00200
C 	C 	0.85460 0.28960 0.59540 -0.23000
C 	C 	0.88760 0.24060 0.54950 0.01100
C 	C 	0.83480 0.19700 0.50990 0.01100
C 	C 	0.86450 0.17100 0.45980 0.00900
