data_crystal

_cell_length_a 18.34600
_cell_length_b 18.34600
_cell_length_c 18.34600
_cell_angle_alpha 90.00000
_cell_angle_beta  90.00000
_cell_angle_gamma 90.00000

_symmetry_space_group_name_	'P 1'
_symmetry_space_group_name_H-M	'P 1'

loop_
_symmetry_equiv_pos_as_xyz
  x,y,z

loop_
_atom_site_label
_atom_site_type_symbol
_atom_site_fract_x
_atom_site_fract_y
_atom_site_fract_z
_atom_site_charge
Cu	Cu	0.37850 0.19880 0.94680 0.17200
O 	O 	0.33200 0.20800 0.03800 1.89900
O 	O 	0.22350 0.19540 0.09700 -0.39500
O 	O 	0.29040 0.14710 0.92210 -0.53700
O 	O 	0.17540 0.19140 0.94690 -0.32300
H 	H 	0.15930 0.17150 0.90960 0.24000
O 	O 	0.22690 0.02450 0.94750 -0.40100
O 	O 	0.16510 0.06200 0.04170 -0.36400
C 	C 	0.26260 0.19060 0.04180 0.45200
C 	C 	0.23530 0.15100 0.97370 -0.03100
C 	C 	0.20690 0.07350 0.99030 0.29000
Cu	Cu	0.36200 0.22080 0.94040 0.72500
O 	O 	0.31600 0.23230 0.03600 -2.34000
Cu	Cu	0.12150 0.80120 0.44680 0.17200
O 	O 	0.16800 0.79200 0.53800 1.91300
O 	O 	0.27650 0.80460 0.59700 -0.39500
O 	O 	0.20960 0.85290 0.42210 -0.53700
O 	O 	0.32460 0.80860 0.44690 -0.32200
H 	H 	0.34070 0.82850 0.40960 0.23900
O 	O 	0.27310 0.97550 0.44750 -0.40100
O 	O 	0.33490 0.93800 0.54170 -0.36800
C 	C 	0.23740 0.80940 0.54180 0.45100
C 	C 	0.26470 0.84900 0.47370 -0.03100
C 	C 	0.29310 0.92650 0.49030 0.29500
Cu	Cu	0.13800 0.77920 0.44040 0.72600
O 	O 	0.18400 0.76770 0.53600 -2.35500
Cu	Cu	0.62150 0.69880 0.55320 0.17200
O 	O 	0.66800 0.70800 0.46200 1.91400
O 	O 	0.77650 0.69540 0.40300 -0.39500
O 	O 	0.70960 0.64710 0.57790 -0.53700
O 	O 	0.82460 0.69140 0.55310 -0.32200
H 	H 	0.84070 0.67150 0.59040 0.24000
O 	O 	0.77310 0.52450 0.55250 -0.40100
O 	O 	0.83490 0.56200 0.45830 -0.36800
C 	C 	0.73740 0.69060 0.45820 0.45100
C 	C 	0.76470 0.65100 0.52630 -0.03100
C 	C 	0.79310 0.57350 0.50970 0.29500
Cu	Cu	0.63800 0.72080 0.55960 0.72600
O 	O 	0.68400 0.73230 0.46400 -2.35500
Cu	Cu	0.87850 0.30120 0.05320 0.17300
O 	O 	0.83200 0.29200 0.96200 1.89900
O 	O 	0.72350 0.30460 0.90300 -0.39500
O 	O 	0.79040 0.35290 0.07790 -0.53700
O 	O 	0.67540 0.30860 0.05310 -0.32200
H 	H 	0.65930 0.32850 0.09040 0.24000
O 	O 	0.72690 0.47550 0.05250 -0.40100
O 	O 	0.66510 0.43800 0.95830 -0.36700
C 	C 	0.76260 0.30940 0.95820 0.45000
C 	C 	0.73530 0.34900 0.02630 -0.03000
C 	C 	0.70690 0.42650 0.00970 0.29500
Cu	Cu	0.86200 0.27920 0.05960 0.72500
O 	O 	0.81600 0.26770 0.96400 -2.34000
Cu	Cu	0.94680 0.37850 0.19880 0.17300
O 	O 	0.03800 0.33200 0.20800 1.90000
O 	O 	0.09700 0.22350 0.19540 -0.39500
O 	O 	0.92210 0.29040 0.14710 -0.53700
O 	O 	0.94690 0.17540 0.19140 -0.32300
H 	H 	0.90960 0.15930 0.17150 0.24000
O 	O 	0.94750 0.22690 0.02450 -0.40100
O 	O 	0.04170 0.16510 0.06200 -0.36400
C 	C 	0.04180 0.26260 0.19060 0.45200
C 	C 	0.97370 0.23530 0.15100 -0.03100
C 	C 	0.99030 0.20690 0.07350 0.29000
Cu	Cu	0.94040 0.36200 0.22080 0.72500
O 	O 	0.03600 0.31600 0.23230 -2.34000
Cu	Cu	0.44680 0.12150 0.80120 0.17200
O 	O 	0.53800 0.16800 0.79200 1.91300
O 	O 	0.59700 0.27650 0.80460 -0.39500
O 	O 	0.42210 0.20960 0.85290 -0.53700
O 	O 	0.44690 0.32460 0.80860 -0.32200
H 	H 	0.40960 0.34070 0.82850 0.23900
O 	O 	0.44750 0.27310 0.97550 -0.40100
O 	O 	0.54170 0.33490 0.93800 -0.36800
C 	C 	0.54180 0.23740 0.80940 0.45100
C 	C 	0.47370 0.26470 0.84900 -0.03100
C 	C 	0.49030 0.29310 0.92650 0.29500
Cu	Cu	0.44040 0.13800 0.77920 0.72600
O 	O 	0.53600 0.18400 0.76770 -2.35500
Cu	Cu	0.55320 0.62150 0.69880 0.17200
O 	O 	0.46200 0.66800 0.70800 1.91400
O 	O 	0.40300 0.77650 0.69540 -0.39500
O 	O 	0.57790 0.70960 0.64710 -0.53700
O 	O 	0.55310 0.82460 0.69140 -0.32200
H 	H 	0.59040 0.84070 0.67150 0.24000
O 	O 	0.55250 0.77310 0.52450 -0.40100
O 	O 	0.45830 0.83490 0.56200 -0.36800
C 	C 	0.45820 0.73740 0.69060 0.45100
C 	C 	0.52630 0.76470 0.65100 -0.03100
C 	C 	0.50970 0.79310 0.57350 0.29500
Cu	Cu	0.55960 0.63800 0.72080 0.72600
O 	O 	0.46400 0.68400 0.73230 -2.35500
Cu	Cu	0.05320 0.87850 0.30120 0.17300
O 	O 	0.96200 0.83200 0.29200 1.89900
O 	O 	0.90300 0.72350 0.30460 -0.39500
O 	O 	0.07790 0.79040 0.35290 -0.53700
O 	O 	0.05310 0.67540 0.30860 -0.32200
H 	H 	0.09040 0.65930 0.32850 0.24000
O 	O 	0.05250 0.72690 0.47550 -0.40100
O 	O 	0.95830 0.66510 0.43800 -0.36700
C 	C 	0.95820 0.76260 0.30940 0.45000
C 	C 	0.02630 0.73530 0.34900 -0.03000
C 	C 	0.00970 0.70690 0.42650 0.29500
Cu	Cu	0.05960 0.86200 0.27920 0.72500
O 	O 	0.96400 0.81600 0.26770 -2.34000
Cu	Cu	0.19880 0.94680 0.37850 0.17300
O 	O 	0.20800 0.03800 0.33200 1.90000
O 	O 	0.19540 0.09700 0.22350 -0.39500
O 	O 	0.14710 0.92210 0.29040 -0.53700
O 	O 	0.19140 0.94690 0.17540 -0.32300
H 	H 	0.17150 0.90960 0.15930 0.24000
O 	O 	0.02450 0.94750 0.22690 -0.40100
O 	O 	0.06200 0.04170 0.16510 -0.36400
C 	C 	0.19060 0.04180 0.26260 0.45200
C 	C 	0.15100 0.97370 0.23530 -0.03100
C 	C 	0.07350 0.99030 0.20690 0.29000
Cu	Cu	0.22080 0.94040 0.36200 0.72500
O 	O 	0.23230 0.03600 0.31600 -2.34000
Cu	Cu	0.80120 0.44680 0.12150 0.17200
O 	O 	0.79200 0.53800 0.16800 1.91300
O 	O 	0.80460 0.59700 0.27650 -0.39500
O 	O 	0.85290 0.42210 0.20960 -0.53700
O 	O 	0.80860 0.44690 0.32460 -0.32200
H 	H 	0.82850 0.40960 0.34070 0.23900
O 	O 	0.97550 0.44750 0.27310 -0.40100
O 	O 	0.93800 0.54170 0.33490 -0.36800
C 	C 	0.80940 0.54180 0.23740 0.45100
C 	C 	0.84900 0.47370 0.26470 -0.03100
C 	C 	0.92650 0.49030 0.29310 0.29500
Cu	Cu	0.77920 0.44040 0.13800 0.72600
O 	O 	0.76770 0.53600 0.18400 -2.35500
Cu	Cu	0.69880 0.55320 0.62150 0.17200
O 	O 	0.70800 0.46200 0.66800 1.91400
O 	O 	0.69540 0.40300 0.77650 -0.39500
O 	O 	0.64710 0.57790 0.70960 -0.53700
O 	O 	0.69140 0.55310 0.82460 -0.32200
H 	H 	0.67150 0.59040 0.84070 0.24000
O 	O 	0.52450 0.55250 0.77310 -0.40100
O 	O 	0.56200 0.45830 0.83490 -0.36800
C 	C 	0.69060 0.45820 0.73740 0.45100
C 	C 	0.65100 0.52630 0.76470 -0.03100
C 	C 	0.57350 0.50970 0.79310 0.29500
Cu	Cu	0.72080 0.55960 0.63800 0.72600
O 	O 	0.73230 0.46400 0.68400 -2.35500
Cu	Cu	0.30120 0.05320 0.87850 0.17300
O 	O 	0.29200 0.96200 0.83200 1.89900
O 	O 	0.30460 0.90300 0.72350 -0.39500
O 	O 	0.35290 0.07790 0.79040 -0.53700
O 	O 	0.30860 0.05310 0.67540 -0.32200
H 	H 	0.32850 0.09040 0.65930 0.24000
O 	O 	0.47550 0.05250 0.72690 -0.40100
O 	O 	0.43800 0.95830 0.66510 -0.36700
C 	C 	0.30940 0.95820 0.76260 0.45000
C 	C 	0.34900 0.02630 0.73530 -0.03000
C 	C 	0.42650 0.00970 0.70690 0.29500
Cu	Cu	0.27920 0.05960 0.86200 0.72500
O 	O 	0.26770 0.96400 0.81600 -2.34000
Cu	Cu	0.62150 0.80120 0.05320 0.17300
O 	O 	0.66800 0.79200 0.96200 1.90000
O 	O 	0.77650 0.80460 0.90300 -0.39500
O 	O 	0.70960 0.85290 0.07790 -0.53700
O 	O 	0.82460 0.80860 0.05310 -0.32300
H 	H 	0.84070 0.82850 0.09040 0.24000
O 	O 	0.77310 0.97550 0.05250 -0.40100
O 	O 	0.83490 0.93800 0.95830 -0.36400
C 	C 	0.73740 0.80940 0.95820 0.45200
C 	C 	0.76470 0.84900 0.02630 -0.03100
C 	C 	0.79310 0.92650 0.00970 0.29000
Cu	Cu	0.63800 0.77920 0.05960 0.72500
O 	O 	0.68400 0.76770 0.96400 -2.34000
Cu	Cu	0.87850 0.19880 0.55320 0.17200
O 	O 	0.83200 0.20800 0.46200 1.91300
O 	O 	0.72350 0.19540 0.40300 -0.39500
O 	O 	0.79040 0.14710 0.57790 -0.53700
O 	O 	0.67540 0.19140 0.55310 -0.32200
H 	H 	0.65930 0.17150 0.59040 0.23900
O 	O 	0.72690 0.02450 0.55250 -0.40100
O 	O 	0.66510 0.06200 0.45830 -0.36800
C 	C 	0.76260 0.19060 0.45820 0.45100
C 	C 	0.73530 0.15100 0.52630 -0.03100
C 	C 	0.70690 0.07350 0.50970 0.29500
Cu	Cu	0.86200 0.22080 0.55960 0.72600
O 	O 	0.81600 0.23230 0.46400 -2.35500
Cu	Cu	0.37850 0.30120 0.44680 0.17200
O 	O 	0.33200 0.29200 0.53800 1.91400
O 	O 	0.22350 0.30460 0.59700 -0.39500
O 	O 	0.29040 0.35290 0.42210 -0.53700
O 	O 	0.17540 0.30860 0.44690 -0.32200
H 	H 	0.15930 0.32850 0.40960 0.24000
O 	O 	0.22690 0.47550 0.44750 -0.40100
O 	O 	0.16510 0.43800 0.54170 -0.36800
C 	C 	0.26260 0.30940 0.54180 0.45100
C 	C 	0.23530 0.34900 0.47370 -0.03100
C 	C 	0.20690 0.42650 0.49030 0.29500
Cu	Cu	0.36200 0.27920 0.44040 0.72600
O 	O 	0.31600 0.26770 0.53600 -2.35500
Cu	Cu	0.12150 0.69880 0.94680 0.17300
O 	O 	0.16800 0.70800 0.03800 1.89900
O 	O 	0.27650 0.69540 0.09700 -0.39500
O 	O 	0.20960 0.64710 0.92210 -0.53700
O 	O 	0.32460 0.69140 0.94690 -0.32200
H 	H 	0.34070 0.67150 0.90960 0.24000
O 	O 	0.27310 0.52450 0.94750 -0.40100
O 	O 	0.33490 0.56200 0.04170 -0.36700
C 	C 	0.23740 0.69060 0.04180 0.45000
C 	C 	0.26470 0.65100 0.97370 -0.03000
C 	C 	0.29310 0.57350 0.99030 0.29500
Cu	Cu	0.13800 0.72080 0.94040 0.72500
O 	O 	0.18400 0.73230 0.03600 -2.34000
Cu	Cu	0.05320 0.62150 0.80120 0.17300
O 	O 	0.96200 0.66800 0.79200 1.90000
O 	O 	0.90300 0.77650 0.80460 -0.39500
O 	O 	0.07790 0.70960 0.85290 -0.53700
O 	O 	0.05310 0.82460 0.80860 -0.32300
H 	H 	0.09040 0.84070 0.82850 0.24000
O 	O 	0.05250 0.77310 0.97550 -0.40100
O 	O 	0.95830 0.83490 0.93800 -0.36400
C 	C 	0.95820 0.73740 0.80940 0.45200
C 	C 	0.02630 0.76470 0.84900 -0.03100
C 	C 	0.00970 0.79310 0.92650 0.29000
Cu	Cu	0.05960 0.63800 0.77920 0.72500
O 	O 	0.96400 0.68400 0.76770 -2.34000
Cu	Cu	0.55320 0.87850 0.19880 0.17200
O 	O 	0.46200 0.83200 0.20800 1.91300
O 	O 	0.40300 0.72350 0.19540 -0.39500
O 	O 	0.57790 0.79040 0.14710 -0.53700
O 	O 	0.55310 0.67540 0.19140 -0.32200
H 	H 	0.59040 0.65930 0.17150 0.23900
O 	O 	0.55250 0.72690 0.02450 -0.40100
O 	O 	0.45830 0.66510 0.06200 -0.36800
C 	C 	0.45820 0.76260 0.19060 0.45100
C 	C 	0.52630 0.73530 0.15100 -0.03100
C 	C 	0.50970 0.70690 0.07350 0.29500
Cu	Cu	0.55960 0.86200 0.22080 0.72600
O 	O 	0.46400 0.81600 0.23230 -2.35500
Cu	Cu	0.44680 0.37850 0.30120 0.17200
O 	O 	0.53800 0.33200 0.29200 1.91400
O 	O 	0.59700 0.22350 0.30460 -0.39500
O 	O 	0.42210 0.29040 0.35290 -0.53700
O 	O 	0.44690 0.17540 0.30860 -0.32200
H 	H 	0.40960 0.15930 0.32850 0.24000
O 	O 	0.44750 0.22690 0.47550 -0.40100
O 	O 	0.54170 0.16510 0.43800 -0.36800
C 	C 	0.54180 0.26260 0.30940 0.45100
C 	C 	0.47370 0.23530 0.34900 -0.03100
C 	C 	0.49030 0.20690 0.42650 0.29500
Cu	Cu	0.44040 0.36200 0.27920 0.72600
O 	O 	0.53600 0.31600 0.26770 -2.35500
Cu	Cu	0.94680 0.12150 0.69880 0.17300
O 	O 	0.03800 0.16800 0.70800 1.89900
O 	O 	0.09700 0.27650 0.69540 -0.39500
O 	O 	0.92210 0.20960 0.64710 -0.53700
O 	O 	0.94690 0.32460 0.69140 -0.32200
H 	H 	0.90960 0.34070 0.67150 0.24000
O 	O 	0.94750 0.27310 0.52450 -0.40100
O 	O 	0.04170 0.33490 0.56200 -0.36700
C 	C 	0.04180 0.23740 0.69060 0.45000
C 	C 	0.97370 0.26470 0.65100 -0.03000
C 	C 	0.99030 0.29310 0.57350 0.29500
Cu	Cu	0.94040 0.13800 0.72080 0.72500
O 	O 	0.03600 0.18400 0.73230 -2.34000
Cu	Cu	0.80120 0.05320 0.62150 0.17300
O 	O 	0.79200 0.96200 0.66800 1.90000
O 	O 	0.80460 0.90300 0.77650 -0.39500
O 	O 	0.85290 0.07790 0.70960 -0.53700
O 	O 	0.80860 0.05310 0.82460 -0.32300
H 	H 	0.82850 0.09040 0.84070 0.24000
O 	O 	0.97550 0.05250 0.77310 -0.40100
O 	O 	0.93800 0.95830 0.83490 -0.36400
C 	C 	0.80940 0.95820 0.73740 0.45200
C 	C 	0.84900 0.02630 0.76470 -0.03100
C 	C 	0.92650 0.00970 0.79310 0.29000
Cu	Cu	0.77920 0.05960 0.63800 0.72500
O 	O 	0.76770 0.96400 0.68400 -2.34000
Cu	Cu	0.19880 0.55320 0.87850 0.17200
O 	O 	0.20800 0.46200 0.83200 1.91300
O 	O 	0.19540 0.40300 0.72350 -0.39500
O 	O 	0.14710 0.57790 0.79040 -0.53700
O 	O 	0.19140 0.55310 0.67540 -0.32200
H 	H 	0.17150 0.59040 0.65930 0.23900
O 	O 	0.02450 0.55250 0.72690 -0.40100
O 	O 	0.06200 0.45830 0.66510 -0.36800
C 	C 	0.19060 0.45820 0.76260 0.45100
C 	C 	0.15100 0.52630 0.73530 -0.03100
C 	C 	0.07350 0.50970 0.70690 0.29500
Cu	Cu	0.22080 0.55960 0.86200 0.72600
O 	O 	0.23230 0.46400 0.81600 -2.35500
Cu	Cu	0.30120 0.44680 0.37850 0.17200
O 	O 	0.29200 0.53800 0.33200 1.91400
O 	O 	0.30460 0.59700 0.22350 -0.39500
O 	O 	0.35290 0.42210 0.29040 -0.53700
O 	O 	0.30860 0.44690 0.17540 -0.32200
H 	H 	0.32850 0.40960 0.15930 0.24000
O 	O 	0.47550 0.44750 0.22690 -0.40100
O 	O 	0.43800 0.54170 0.16510 -0.36800
C 	C 	0.30940 0.54180 0.26260 0.45100
C 	C 	0.34900 0.47370 0.23530 -0.03100
C 	C 	0.42650 0.49030 0.20690 0.29500
Cu	Cu	0.27920 0.44040 0.36200 0.72600
O 	O 	0.26770 0.53600 0.31600 -2.35500
Cu	Cu	0.69880 0.94680 0.12150 0.17300
O 	O 	0.70800 0.03800 0.16800 1.89900
O 	O 	0.69540 0.09700 0.27650 -0.39500
O 	O 	0.64710 0.92210 0.20960 -0.53700
O 	O 	0.69140 0.94690 0.32460 -0.32200
H 	H 	0.67150 0.90960 0.34070 0.24000
O 	O 	0.52450 0.94750 0.27310 -0.40100
O 	O 	0.56200 0.04170 0.33490 -0.36700
C 	C 	0.69060 0.04180 0.23740 0.45000
C 	C 	0.65100 0.97370 0.26470 -0.03000
C 	C 	0.57350 0.99030 0.29310 0.29500
Cu	Cu	0.72080 0.94040 0.13800 0.72500
O 	O 	0.73230 0.03600 0.18400 -2.34000
Mn	Mn	0.13092 0.13092 0.13092 1.32200
Mn	Mn	0.36908 0.86908 0.63092 1.32200
Mn	Mn	0.86908 0.63092 0.36908 1.32200
Mn	Mn	0.63092 0.36908 0.86908 1.32200
Mn	Mn	0.86908 0.86908 0.86908 1.32200
Mn	Mn	0.63092 0.13092 0.36908 1.32200
Mn	Mn	0.13092 0.36908 0.63092 1.32200
Mn	Mn	0.36908 0.63092 0.13092 1.32200
K 	K 	0.43660 0.06340 0.93660 0.51200
K 	K 	0.06340 0.93660 0.43660 0.51200
K 	K 	0.56340 0.56340 0.56340 0.51200
K 	K 	0.93660 0.43660 0.06340 0.51200
K 	K 	0.56340 0.93660 0.06340 0.51200
K 	K 	0.93660 0.06340 0.56340 0.51200
K 	K 	0.43660 0.43660 0.43660 0.51200
K 	K 	0.06340 0.56340 0.93660 0.51200
