data_crystal

_cell_length_a 16.96300
_cell_length_b 18.28300
_cell_length_c 18.37300
_cell_angle_alpha 90.00000
_cell_angle_beta  90.00000
_cell_angle_gamma 90.00000

_symmetry_space_group_name_	'P 1'
_symmetry_space_group_name_H-M	'P 1'

loop_
_symmetry_equiv_pos_as_xyz
  x,y,z

loop_
_atom_site_label
_atom_site_type_symbol
_atom_site_fract_x
_atom_site_fract_y
_atom_site_fract_z
_atom_site_charge
Cu	Cu	0.63589 0.70162 0.94345 0.94500
Cu	Cu	0.70096 0.55640 0.86594 0.94400
Cu	Cu	0.55242 0.64719 0.79333 0.94200
Mn	Mn	0.89610 0.59293 0.11003 1.33800
Cl	Cl	0.70540 0.69780 0.82040 -0.48700
C 	C 	0.75530 0.67280 0.03510 0.34600
C 	C 	0.72540 0.59330 0.00920 0.00400
C 	C 	0.79650 0.54670 0.97700 0.34300
O 	O 	0.80890 0.67460 0.07930 -0.35400
O 	O 	0.72040 0.72570 0.00750 -0.33500
O 	O 	0.69260 0.55620 0.07290 -0.10500
O 	O 	0.66900 0.59910 0.95690 -0.39700
O 	O 	0.84940 0.53000 0.02360 -0.35600
O 	O 	0.79400 0.52880 0.91470 -0.35700
C 	C 	0.68140 0.48330 0.73840 0.32200
C 	C 	0.59480 0.50370 0.76430 0.01200
C 	C 	0.54810 0.53250 0.69890 0.32700
O 	O 	0.69130 0.44940 0.68250 -0.35800
O 	O 	0.73640 0.50130 0.78290 -0.31400
O 	O 	0.55930 0.44190 0.79160 -0.12100
O 	O 	0.59990 0.55490 0.81770 -0.40900
O 	O 	0.53050 0.49290 0.64940 -0.36600
O 	O 	0.52980 0.60090 0.70260 -0.32700
C 	C 	0.47330 0.77250 0.81780 0.35300
C 	C 	0.48590 0.74320 0.89370 -0.03600
C 	C 	0.51980 0.80360 0.94350 0.36100
O 	O 	0.43670 0.83070 0.80950 -0.35800
O 	O 	0.49870 0.73610 0.76630 -0.33700
O 	O 	0.41370 0.71590 0.91940 -0.10200
O 	O 	0.53980 0.68370 0.89030 -0.39500
O 	O 	0.47980 0.85800 0.95660 -0.38200
O 	O 	0.58610 0.79170 0.96950 -0.34000
Cu	Cu	0.86411 0.29838 0.44345 0.94400
Cu	Cu	0.79904 0.44360 0.36594 0.94300
Cu	Cu	0.94758 0.35281 0.29333 0.94200
Mn	Mn	0.60390 0.40707 0.61003 1.33800
Cl	Cl	0.79460 0.30220 0.32040 -0.48800
C 	C 	0.74470 0.32720 0.53510 0.34600
C 	C 	0.77460 0.40670 0.50920 0.00200
C 	C 	0.70350 0.45330 0.47700 0.34600
O 	O 	0.69110 0.32540 0.57930 -0.35400
O 	O 	0.77960 0.27430 0.50750 -0.33600
O 	O 	0.80740 0.44380 0.57290 -0.10500
O 	O 	0.83100 0.40090 0.45690 -0.39600
O 	O 	0.65060 0.47000 0.52360 -0.35700
O 	O 	0.70600 0.47120 0.41470 -0.35700
C 	C 	0.81860 0.51670 0.23840 0.32200
C 	C 	0.90520 0.49630 0.26430 0.01200
C 	C 	0.95190 0.46750 0.19890 0.32700
O 	O 	0.80870 0.55060 0.18250 -0.35800
O 	O 	0.76360 0.49870 0.28290 -0.31300
O 	O 	0.94070 0.55810 0.29160 -0.12100
O 	O 	0.90010 0.44510 0.31770 -0.40900
O 	O 	0.96950 0.50710 0.14940 -0.36600
O 	O 	0.97020 0.39910 0.20260 -0.32700
C 	C 	0.02670 0.22750 0.31780 0.35300
C 	C 	0.01410 0.25680 0.39370 -0.03400
C 	C 	0.98020 0.19640 0.44350 0.35700
O 	O 	0.06330 0.16930 0.30950 -0.35800
O 	O 	0.00130 0.26390 0.26630 -0.33600
O 	O 	0.08630 0.28410 0.41940 -0.10200
O 	O 	0.96020 0.31630 0.39030 -0.39600
O 	O 	0.02020 0.14200 0.45660 -0.38000
O 	O 	0.91390 0.20830 0.46950 -0.34000
Cu	Cu	0.36411 0.20162 0.55655 0.94400
Cu	Cu	0.29904 0.05640 0.63406 0.94300
Cu	Cu	0.44758 0.14719 0.70667 0.94200
Mn	Mn	0.10390 0.09293 0.38997 1.33800
Cl	Cl	0.29460 0.19780 0.67960 -0.48700
C 	C 	0.24470 0.17280 0.46490 0.34600
C 	C 	0.27460 0.09330 0.49080 0.00200
C 	C 	0.20350 0.04670 0.52300 0.34600
O 	O 	0.19110 0.17460 0.42070 -0.35400
O 	O 	0.27960 0.22570 0.49250 -0.33500
O 	O 	0.30740 0.05620 0.42710 -0.10500
O 	O 	0.33100 0.09910 0.54310 -0.39600
O 	O 	0.15060 0.03000 0.47640 -0.35700
O 	O 	0.20600 0.02880 0.58530 -0.35700
C 	C 	0.31860 0.98330 0.76160 0.32200
C 	C 	0.40520 0.00370 0.73570 0.01100
C 	C 	0.45190 0.03250 0.80110 0.32600
O 	O 	0.30870 0.94940 0.81750 -0.35800
O 	O 	0.26360 0.00130 0.71710 -0.31300
O 	O 	0.44070 0.94190 0.70840 -0.12000
O 	O 	0.40010 0.05490 0.68230 -0.40900
O 	O 	0.46950 0.99290 0.85060 -0.36600
O 	O 	0.47020 0.10090 0.79740 -0.32700
C 	C 	0.52670 0.27250 0.68220 0.35300
C 	C 	0.51410 0.24320 0.60630 -0.03600
C 	C 	0.48020 0.30360 0.55650 0.36100
O 	O 	0.56330 0.33070 0.69050 -0.35800
O 	O 	0.50130 0.23610 0.73370 -0.33700
O 	O 	0.58630 0.21590 0.58060 -0.10200
O 	O 	0.46020 0.18370 0.60970 -0.39500
O 	O 	0.52020 0.35800 0.54340 -0.38200
O 	O 	0.41390 0.29170 0.53050 -0.34000
Cu	Cu	0.13589 0.79838 0.05655 0.94400
Cu	Cu	0.20096 0.94360 0.13406 0.94300
Cu	Cu	0.05242 0.85281 0.20667 0.94200
Mn	Mn	0.39610 0.90707 0.88997 1.33800
Cl	Cl	0.20540 0.80220 0.17960 -0.48800
C 	C 	0.25530 0.82720 0.96490 0.34600
C 	C 	0.22540 0.90670 0.99080 0.00400
C 	C 	0.29650 0.95330 0.02300 0.34400
O 	O 	0.30890 0.82540 0.92070 -0.35400
O 	O 	0.22040 0.77430 0.99250 -0.33500
O 	O 	0.19260 0.94380 0.92710 -0.10500
O 	O 	0.16900 0.90090 0.04310 -0.39700
O 	O 	0.34940 0.97000 0.97640 -0.35600
O 	O 	0.29400 0.97120 0.08530 -0.35700
C 	C 	0.18140 0.01670 0.26160 0.32400
C 	C 	0.09480 0.99630 0.23570 0.01000
C 	C 	0.04810 0.96750 0.30110 0.32600
O 	O 	0.19130 0.05060 0.31750 -0.35800
O 	O 	0.23640 0.99870 0.21710 -0.31500
O 	O 	0.05930 0.05810 0.20840 -0.11900
O 	O 	0.09990 0.94510 0.18230 -0.40900
O 	O 	0.03050 0.00710 0.35060 -0.36500
O 	O 	0.02980 0.89910 0.29740 -0.32800
C 	C 	0.97330 0.72750 0.18220 0.35200
C 	C 	0.98590 0.75680 0.10630 -0.03200
C 	C 	0.01980 0.69640 0.05650 0.35700
O 	O 	0.93670 0.66930 0.19050 -0.35800
O 	O 	0.99870 0.76390 0.23370 -0.33500
O 	O 	0.91370 0.78410 0.08060 -0.10200
O 	O 	0.03980 0.81630 0.10970 -0.39700
O 	O 	0.97980 0.64200 0.04340 -0.38000
O 	O 	0.08610 0.70830 0.03050 -0.34000
