data_crystal

_cell_length_a 13.07190
_cell_length_b 22.53400
_cell_length_c 16.89380
_cell_angle_alpha 90.00000
_cell_angle_beta  99.90800
_cell_angle_gamma 90.00000

_symmetry_space_group_name_	'P 1'
_symmetry_space_group_name_H-M	'P 1'

loop_
_symmetry_equiv_pos_as_xyz
  x,y,z

loop_
_atom_site_label
_atom_site_type_symbol
_atom_site_fract_x
_atom_site_fract_y
_atom_site_fract_z
_atom_site_charge
C 	C 	0.71830 0.10971 0.08040 0.39400
C 	C 	0.78710 0.05569 0.08990 -0.08800
C 	C 	0.79940 0.02291 0.02070 0.00600
H 	H 	0.76650 0.03580 0.97050 0.05800
C 	C 	0.85910 0.97260 0.02650 -0.03800
C 	C 	0.91770 0.95660 0.10080 -0.06100
H 	H 	0.96380 0.92490 0.10490 0.10100
C 	C 	0.90530 0.98930 0.16810 0.08800
C 	C 	0.83930 0.03723 0.16550 0.03700
C 	C 	0.82140 0.07259 0.23720 0.02100
C 	C 	0.73870 0.06321 0.27760 0.08400
C 	C 	0.71990 0.09855 0.34080 -0.07400
H 	H 	0.66490 0.09000 0.36730 0.10300
C 	C 	0.78370 0.14647 0.36380 -0.02300
C 	C 	0.86260 0.15989 0.32240 -0.01300
H 	H 	0.90170 0.19410 0.33520 0.07000
C 	C 	0.88480 0.12266 0.26140 -0.05100
C 	C 	0.97820 0.13360 0.22270 0.30000
C 	C 	0.86170 0.93300 0.95550 0.30300
C 	C 	0.76240 0.18590 0.43100 0.29700
C 	C 	0.57020 0.28780 0.15670 0.36700
C 	C 	0.48940 0.30034 0.20810 -0.12400
C 	C 	0.51440 0.29160 0.29000 0.05200
H 	H 	0.57830 0.27510 0.31160 0.03100
C 	C 	0.44570 0.30708 0.34090 -0.09900
C 	C 	0.34870 0.32896 0.30770 -0.01400
H 	H 	0.30150 0.33950 0.34070 0.07900
C 	C 	0.32270 0.33498 0.22530 0.06200
C 	C 	0.39260 0.32218 0.17280 0.04700
C 	C 	0.36480 0.32483 0.08350 0.01700
C 	C 	0.40120 0.36850 0.03470 0.08700
C 	C 	0.37260 0.36970 0.95310 -0.06500
H 	H 	0.39840 0.39910 0.92330 0.10400
C 	C 	0.30480 0.32721 0.91470 -0.03100
C 	C 	0.26940 0.28288 0.96030 0.01400
H 	H 	0.22390 0.25420 0.93520 0.06000
C 	C 	0.30080 0.28096 0.04270 -0.09300
C 	C 	0.26050 0.23145 0.08930 0.35600
C 	C 	0.48070 0.30200 0.42990 0.40300
C 	C 	0.26350 0.33120 0.82610 0.28800
Cd	Cd	0.48088 0.15403 0.10454 1.21600
Cd	Cd	0.16613 0.14649 0.17128 1.24700
Cd	Cd	0.69401 0.24815 0.04720 1.23600
N 	N 	0.96730 0.97030 0.24450 -0.00500
N 	N 	0.66480 0.01545 0.25140 -0.00600
N 	N 	0.47010 0.41640 0.07140 -0.00600
N 	N 	0.21750 0.35890 0.19490 -0.00100
O 	O 	0.75110 0.15436 0.04970 -0.42100
O 	O 	0.63460 0.10485 0.10570 -0.43700
O 	O 	0.93900 0.98337 0.30750 -0.06500
O 	O 	0.04730 0.94090 0.24160 -0.08300
O 	O 	0.92800 0.89447 0.95950 -0.32000
O 	O 	0.79060 0.93921 0.89522 -0.36400
O 	O 	0.98160 0.18019 0.18150 -0.30600
O 	O 	0.04900 0.09645 0.23470 -0.33400
O 	O 	0.69640 0.97058 0.22190 -0.08700
O 	O 	0.57370 0.02362 0.25830 -0.11600
O 	O 	0.71560 0.16355 0.48210 -0.33900
O 	O 	0.79140 0.23798 0.43400 -0.32400
O 	O 	0.58350 0.23406 0.13760 -0.54100
O 	O 	0.61920 0.32780 0.13350 -0.31900
O 	O 	0.20140 0.38210 0.12920 -0.07100
O 	O 	0.15240 0.35388 0.23690 -0.08200
O 	O 	0.43470 0.33265 0.47345 -0.44500
O 	O 	0.55360 0.26700 0.45300 -0.43700
O 	O 	0.32100 0.19253 0.12226 -0.49400
O 	O 	0.16580 0.23099 0.09250 -0.34900
O 	O 	0.46320 0.43280 0.13850 -0.06900
O 	O 	0.52860 0.43810 0.03170 -0.07500
O 	O 	0.19760 0.29502 0.79463 -0.32300
O 	O 	0.29540 0.37336 0.78603 -0.34100
C 	C 	0.28170 0.60971 0.41960 0.39800
C 	C 	0.21290 0.55569 0.41010 -0.09400
C 	C 	0.20060 0.52291 0.47930 0.02300
H 	H 	0.23350 0.53580 0.52950 0.05200
C 	C 	0.14090 0.47260 0.47350 -0.04900
C 	C 	0.08230 0.45660 0.39920 -0.05300
H 	H 	0.03620 0.42490 0.39510 0.09800
C 	C 	0.09470 0.48930 0.33190 0.08200
C 	C 	0.16070 0.53723 0.33450 0.04300
C 	C 	0.17860 0.57259 0.26280 0.01900
C 	C 	0.26130 0.56321 0.22240 0.08500
C 	C 	0.28010 0.59855 0.15920 -0.07400
H 	H 	0.33510 0.59000 0.13270 0.10300
C 	C 	0.21630 0.64647 0.13620 -0.02200
C 	C 	0.13740 0.65989 0.17760 -0.01300
H 	H 	0.09830 0.69410 0.16480 0.07100
C 	C 	0.11520 0.62266 0.23860 -0.05000
C 	C 	0.02180 0.63360 0.27730 0.30100
C 	C 	0.13830 0.43300 0.54450 0.30800
C 	C 	0.23760 0.68590 0.06900 0.29700
C 	C 	0.42980 0.78780 0.34330 0.36700
C 	C 	0.51060 0.80034 0.29190 -0.12400
C 	C 	0.48560 0.79160 0.21000 0.05100
H 	H 	0.42170 0.77510 0.18840 0.03100
C 	C 	0.55430 0.80708 0.15910 -0.09900
C 	C 	0.65130 0.82896 0.19230 -0.01400
H 	H 	0.69850 0.83950 0.15930 0.07900
C 	C 	0.67730 0.83498 0.27470 0.06200
C 	C 	0.60740 0.82218 0.32720 0.04700
C 	C 	0.63520 0.82483 0.41650 0.01600
C 	C 	0.59880 0.86850 0.46530 0.08800
C 	C 	0.62740 0.86970 0.54690 -0.06600
H 	H 	0.60160 0.89910 0.57670 0.10400
C 	C 	0.69520 0.82721 0.58530 -0.03000
C 	C 	0.73060 0.78288 0.53970 0.01200
H 	H 	0.77610 0.75420 0.56480 0.06000
C 	C 	0.69920 0.78096 0.45730 -0.09100
C 	C 	0.73950 0.73145 0.41070 0.35500
C 	C 	0.51930 0.80200 0.07010 0.40300
C 	C 	0.73650 0.83120 0.67390 0.28800
Cd	Cd	0.51912 0.65403 0.39546 1.21600
Cd	Cd	0.83387 0.64649 0.32872 1.24700
Cd	Cd	0.30599 0.74815 0.45280 1.23700
N 	N 	0.03270 0.47030 0.25550 -0.00400
N 	N 	0.33520 0.51545 0.24860 -0.00600
N 	N 	0.52990 0.91640 0.42860 -0.00600
N 	N 	0.78250 0.85890 0.30510 -0.00100
O 	O 	0.24890 0.65436 0.45030 -0.42100
O 	O 	0.36540 0.60485 0.39430 -0.43800
O 	O 	0.06100 0.48337 0.19250 -0.06500
O 	O 	0.95270 0.44090 0.25840 -0.08300
O 	O 	0.07200 0.39447 0.54050 -0.32200
O 	O 	0.20940 0.43921 0.60478 -0.36500
O 	O 	0.01840 0.68019 0.31850 -0.30600
O 	O 	0.95100 0.59645 0.26530 -0.33500
O 	O 	0.30360 0.47058 0.27810 -0.08800
O 	O 	0.42630 0.52362 0.24170 -0.11600
O 	O 	0.28440 0.66355 0.01790 -0.33800
O 	O 	0.20860 0.73798 0.06600 -0.32300
O 	O 	0.41650 0.73406 0.36240 -0.54100
O 	O 	0.38080 0.82780 0.36650 -0.31800
O 	O 	0.79860 0.88210 0.37080 -0.07100
O 	O 	0.84760 0.85388 0.26310 -0.08300
O 	O 	0.56530 0.83265 0.02655 -0.44400
O 	O 	0.44640 0.76700 0.04700 -0.43600
O 	O 	0.67900 0.69253 0.37774 -0.49400
O 	O 	0.83420 0.73099 0.40750 -0.34900
O 	O 	0.53680 0.93280 0.36150 -0.06900
O 	O 	0.47140 0.93810 0.46830 -0.07500
O 	O 	0.80240 0.79502 0.70537 -0.32300
O 	O 	0.70460 0.87336 0.71397 -0.34100
C 	C 	0.28170 0.89029 0.91960 0.39500
C 	C 	0.21290 0.94431 0.91010 -0.08700
C 	C 	0.20060 0.97709 0.97930 0.00700
H 	H 	0.23350 0.96420 0.02950 0.05900
C 	C 	0.14090 0.02740 0.97350 -0.03700
C 	C 	0.08230 0.04340 0.89920 -0.06000
H 	H 	0.03620 0.07510 0.89510 0.10100
C 	C 	0.09470 0.01070 0.83190 0.08800
C 	C 	0.16070 0.96277 0.83450 0.03700
C 	C 	0.17860 0.92741 0.76280 0.02100
C 	C 	0.26130 0.93679 0.72240 0.08400
C 	C 	0.28010 0.90145 0.65920 -0.07400
H 	H 	0.33510 0.91000 0.63270 0.10300
C 	C 	0.21630 0.85353 0.63620 -0.02300
C 	C 	0.13740 0.84011 0.67760 -0.01300
H 	H 	0.09830 0.80590 0.66480 0.07000
C 	C 	0.11520 0.87734 0.73860 -0.05100
C 	C 	0.02180 0.86640 0.77730 0.30000
C 	C 	0.13830 0.06700 0.04450 0.30300
C 	C 	0.23760 0.81410 0.56900 0.29700
C 	C 	0.42980 0.71220 0.84330 0.36700
C 	C 	0.51060 0.69966 0.79190 -0.12400
C 	C 	0.48560 0.70840 0.71000 0.05200
H 	H 	0.42170 0.72490 0.68840 0.03100
C 	C 	0.55430 0.69292 0.65910 -0.09900
C 	C 	0.65130 0.67104 0.69230 -0.01400
H 	H 	0.69850 0.66050 0.65930 0.07900
C 	C 	0.67730 0.66502 0.77470 0.06200
C 	C 	0.60740 0.67782 0.82720 0.04700
C 	C 	0.63520 0.67517 0.91650 0.01700
C 	C 	0.59880 0.63150 0.96530 0.08700
C 	C 	0.62740 0.63030 0.04690 -0.06500
H 	H 	0.60160 0.60090 0.07670 0.10400
C 	C 	0.69520 0.67279 0.08530 -0.03100
C 	C 	0.73060 0.71712 0.03970 0.01400
H 	H 	0.77610 0.74580 0.06480 0.06000
C 	C 	0.69920 0.71904 0.95730 -0.09300
C 	C 	0.73950 0.76855 0.91070 0.35600
C 	C 	0.51930 0.69800 0.57010 0.40300
C 	C 	0.73650 0.66880 0.17390 0.28800
Cd	Cd	0.51912 0.84597 0.89546 1.21600
Cd	Cd	0.83387 0.85351 0.82872 1.24700
Cd	Cd	0.30599 0.75185 0.95280 1.23600
N 	N 	0.03270 0.02970 0.75550 -0.00500
N 	N 	0.33520 0.98455 0.74860 -0.00600
N 	N 	0.52990 0.58360 0.92860 -0.00600
N 	N 	0.78250 0.64110 0.80510 -0.00100
O 	O 	0.24890 0.84564 0.95030 -0.42100
O 	O 	0.36540 0.89515 0.89430 -0.43700
O 	O 	0.06100 0.01663 0.69250 -0.06500
O 	O 	0.95270 0.05910 0.75840 -0.08300
O 	O 	0.07200 0.10553 0.04050 -0.32000
O 	O 	0.20940 0.06079 0.10478 -0.36400
O 	O 	0.01840 0.81981 0.81850 -0.30600
O 	O 	0.95100 0.90355 0.76530 -0.33400
O 	O 	0.30360 0.02942 0.77810 -0.08700
O 	O 	0.42630 0.97638 0.74170 -0.11600
O 	O 	0.28440 0.83645 0.51790 -0.33900
O 	O 	0.20860 0.76202 0.56600 -0.32400
O 	O 	0.41650 0.76594 0.86240 -0.54100
O 	O 	0.38080 0.67220 0.86650 -0.31900
O 	O 	0.79860 0.61790 0.87080 -0.07100
O 	O 	0.84760 0.64612 0.76310 -0.08200
O 	O 	0.56530 0.66735 0.52655 -0.44500
O 	O 	0.44640 0.73300 0.54700 -0.43700
O 	O 	0.67900 0.80747 0.87774 -0.49400
O 	O 	0.83420 0.76901 0.90750 -0.34900
O 	O 	0.53680 0.56720 0.86150 -0.06900
O 	O 	0.47140 0.56190 0.96830 -0.07500
O 	O 	0.80240 0.70498 0.20537 -0.32300
O 	O 	0.70460 0.62664 0.21397 -0.34100
C 	C 	0.71830 0.39029 0.58040 0.39800
C 	C 	0.78710 0.44431 0.58990 -0.09400
C 	C 	0.79940 0.47709 0.52070 0.02300
H 	H 	0.76650 0.46420 0.47050 0.05200
C 	C 	0.85910 0.52740 0.52650 -0.04900
C 	C 	0.91770 0.54340 0.60080 -0.05300
H 	H 	0.96380 0.57510 0.60490 0.09800
C 	C 	0.90530 0.51070 0.66810 0.08200
C 	C 	0.83930 0.46277 0.66550 0.04300
C 	C 	0.82140 0.42741 0.73720 0.01900
C 	C 	0.73870 0.43679 0.77760 0.08500
C 	C 	0.71990 0.40145 0.84080 -0.07400
H 	H 	0.66490 0.41000 0.86730 0.10300
C 	C 	0.78370 0.35353 0.86380 -0.02200
C 	C 	0.86260 0.34011 0.82240 -0.01300
H 	H 	0.90170 0.30590 0.83520 0.07100
C 	C 	0.88480 0.37734 0.76140 -0.05000
C 	C 	0.97820 0.36640 0.72270 0.30100
C 	C 	0.86170 0.56700 0.45550 0.30800
C 	C 	0.76240 0.31410 0.93100 0.29700
C 	C 	0.57020 0.21220 0.65670 0.36700
C 	C 	0.48940 0.19966 0.70810 -0.12400
C 	C 	0.51440 0.20840 0.79000 0.05100
H 	H 	0.57830 0.22490 0.81160 0.03100
C 	C 	0.44570 0.19292 0.84090 -0.09900
C 	C 	0.34870 0.17104 0.80770 -0.01400
H 	H 	0.30150 0.16050 0.84070 0.07900
C 	C 	0.32270 0.16502 0.72530 0.06200
C 	C 	0.39260 0.17782 0.67280 0.04700
C 	C 	0.36480 0.17517 0.58350 0.01600
C 	C 	0.40120 0.13150 0.53470 0.08800
C 	C 	0.37260 0.13030 0.45310 -0.06600
H 	H 	0.39840 0.10090 0.42330 0.10400
C 	C 	0.30480 0.17279 0.41470 -0.03000
C 	C 	0.26940 0.21712 0.46030 0.01200
H 	H 	0.22390 0.24580 0.43520 0.06000
C 	C 	0.30080 0.21904 0.54270 -0.09100
C 	C 	0.26050 0.26855 0.58930 0.35500
C 	C 	0.48070 0.19800 0.92990 0.40300
C 	C 	0.26350 0.16880 0.32610 0.28800
Cd	Cd	0.48088 0.34597 0.60454 1.21600
Cd	Cd	0.16613 0.35351 0.67128 1.24700
Cd	Cd	0.69401 0.25185 0.54720 1.23700
N 	N 	0.96730 0.52970 0.74450 -0.00400
N 	N 	0.66480 0.48455 0.75140 -0.00600
N 	N 	0.47010 0.08360 0.57140 -0.00600
N 	N 	0.21750 0.14110 0.69490 -0.00100
O 	O 	0.75110 0.34564 0.54970 -0.42100
O 	O 	0.63460 0.39515 0.60570 -0.43800
O 	O 	0.93900 0.51663 0.80750 -0.06500
O 	O 	0.04730 0.55910 0.74160 -0.08300
O 	O 	0.92800 0.60553 0.45950 -0.32200
O 	O 	0.79060 0.56079 0.39522 -0.36500
O 	O 	0.98160 0.31981 0.68150 -0.30600
O 	O 	0.04900 0.40355 0.73470 -0.33500
O 	O 	0.69640 0.52942 0.72190 -0.08800
O 	O 	0.57370 0.47638 0.75830 -0.11600
O 	O 	0.71560 0.33645 0.98210 -0.33800
O 	O 	0.79140 0.26202 0.93400 -0.32300
O 	O 	0.58350 0.26594 0.63760 -0.54100
O 	O 	0.61920 0.17220 0.63350 -0.31800
O 	O 	0.20140 0.11790 0.62920 -0.07100
O 	O 	0.15240 0.14612 0.73690 -0.08300
O 	O 	0.43470 0.16735 0.97345 -0.44400
O 	O 	0.55360 0.23300 0.95300 -0.43600
O 	O 	0.32100 0.30747 0.62226 -0.49400
O 	O 	0.16580 0.26901 0.59250 -0.34900
O 	O 	0.46320 0.06720 0.63850 -0.06900
O 	O 	0.52860 0.06190 0.53170 -0.07500
O 	O 	0.19760 0.20498 0.29463 -0.32300
O 	O 	0.29540 0.12664 0.28603 -0.34100
