data_crystal

_cell_length_a 18.45200
_cell_length_b 18.45200
_cell_length_c 40.92500
_cell_angle_alpha 90.00000
_cell_angle_beta  90.00000
_cell_angle_gamma 120.00000

_symmetry_space_group_name_	'P 1'
_symmetry_space_group_name_H-M	'P 1'

loop_
_symmetry_equiv_pos_as_xyz
  x,y,z

loop_
_atom_site_label
_atom_site_type_symbol
_atom_site_fract_x
_atom_site_fract_y
_atom_site_fract_z
_atom_site_charge
O 	O 	0.87091 0.00919 0.71615 -0.45700
O 	O 	0.62822 0.10954 0.49825 -0.40500
O 	O 	0.58807 0.02714 0.54276 -0.39600
C 	C 	0.64070 0.09020 0.52631 0.35600
C 	C 	0.72236 0.14669 0.54192 -0.09400
C 	C 	0.74610 0.12632 0.57141 0.00600
H 	H 	0.70930 0.07610 0.58160 0.04200
C 	C 	0.81320 0.07410 0.62610 -0.02600
H 	H 	0.77350 0.03340 0.61240 0.04400
C 	C 	0.83370 0.04610 0.65450 0.03300
H 	H 	0.80700 0.98940 0.65970 0.01000
C 	C 	0.78380 0.09430 0.63770 -0.10600
C 	C 	0.81160 0.07400 0.66690 0.01700
H 	H 	0.72710 0.06890 0.63260 0.06700
H 	H 	0.77140 0.03770 0.68160 0.03500
O 	O 	0.99081 0.86172 0.71615 -0.47400
O 	O 	0.89046 0.51868 0.49825 -0.41200
O 	O 	0.97286 0.56093 0.54276 -0.40900
C 	C 	0.90980 0.55050 0.52631 0.35700
C 	C 	0.85331 0.57567 0.54192 -0.09800
C 	C 	0.87368 0.61978 0.57141 0.00700
H 	H 	0.92390 0.63320 0.58160 0.03800
C 	C 	0.92590 0.73910 0.62610 -0.10800
H 	H 	0.96660 0.74010 0.61240 0.06200
C 	C 	0.95390 0.78760 0.65450 0.02800
H 	H 	0.01060 0.81760 0.65970 0.03400
C 	C 	0.90570 0.68950 0.63770 -0.01600
C 	C 	0.92600 0.73760 0.66690 -0.01100
H 	H 	0.93110 0.65820 0.63260 0.03100
H 	H 	0.96230 0.73370 0.68160 0.03400
O 	O 	0.13828 0.12909 0.71615 -0.46200
O 	O 	0.48132 0.37178 0.49825 -0.40800
O 	O 	0.43907 0.41193 0.54276 -0.40300
C 	C 	0.44950 0.35930 0.52631 0.35500
C 	C 	0.42433 0.27764 0.54192 -0.09500
C 	C 	0.38022 0.25390 0.57141 0.00500
H 	H 	0.36680 0.29070 0.58160 0.04000
C 	C 	0.26090 0.18680 0.62610 -0.06700
H 	H 	0.25990 0.22650 0.61240 0.05400
C 	C 	0.21240 0.16630 0.65450 0.01600
H 	H 	0.18240 0.19300 0.65970 0.03100
C 	C 	0.31050 0.21620 0.63770 -0.06400
C 	C 	0.26240 0.18840 0.66690 0.01600
H 	H 	0.34180 0.27290 0.63260 0.04900
H 	H 	0.26630 0.22860 0.68160 0.03000
O 	O 	0.12909 0.99081 0.21615 -0.47100
O 	O 	0.37178 0.89046 0.99825 -0.41300
O 	O 	0.41193 0.97286 0.04276 -0.41000
C 	C 	0.35930 0.90980 0.02631 0.35600
C 	C 	0.27764 0.85331 0.04192 -0.09800
C 	C 	0.25390 0.87368 0.07141 0.00600
H 	H 	0.29070 0.92390 0.08160 0.03800
C 	C 	0.18680 0.92590 0.12610 -0.10700
H 	H 	0.22650 0.96660 0.11240 0.06200
C 	C 	0.16630 0.95390 0.15450 0.01800
H 	H 	0.19300 0.01060 0.15970 0.04000
C 	C 	0.21620 0.90570 0.13770 -0.02000
C 	C 	0.18840 0.92600 0.16690 -0.00100
H 	H 	0.27290 0.93110 0.13260 0.03300
H 	H 	0.22860 0.96230 0.18160 0.03100
O 	O 	0.00919 0.13828 0.21615 -0.45400
O 	O 	0.10954 0.48132 0.99825 -0.40500
O 	O 	0.02714 0.43907 0.04276 -0.39600
C 	C 	0.09020 0.44950 0.02631 0.35500
C 	C 	0.14669 0.42433 0.04192 -0.09300
C 	C 	0.12632 0.38022 0.07141 0.00500
H 	H 	0.07610 0.36680 0.08160 0.04200
C 	C 	0.07410 0.26090 0.12610 -0.01800
H 	H 	0.03340 0.25990 0.11240 0.04200
C 	C 	0.04610 0.21240 0.15450 0.02500
H 	H 	0.98940 0.18240 0.15970 0.01200
C 	C 	0.09430 0.31050 0.13770 -0.11800
C 	C 	0.07400 0.26240 0.16690 0.02700
H 	H 	0.06890 0.34180 0.13260 0.07000
H 	H 	0.03770 0.26630 0.18160 0.03200
O 	O 	0.86172 0.87091 0.21615 -0.47000
O 	O 	0.51868 0.62822 0.99825 -0.41000
O 	O 	0.56093 0.58807 0.04276 -0.40400
C 	C 	0.55050 0.64070 0.02631 0.35600
C 	C 	0.57567 0.72236 0.04192 -0.09800
C 	C 	0.61978 0.74610 0.07141 0.00600
H 	H 	0.63320 0.70930 0.08160 0.03900
C 	C 	0.73910 0.81320 0.12610 -0.07900
H 	H 	0.74010 0.77350 0.11240 0.05400
C 	C 	0.78760 0.83370 0.15450 0.03200
H 	H 	0.81760 0.80700 0.15970 0.02100
C 	C 	0.68950 0.78380 0.13770 -0.05100
C 	C 	0.73760 0.81160 0.16690 -0.00400
H 	H 	0.65820 0.72710 0.13260 0.04400
H 	H 	0.73370 0.77140 0.18160 0.03500
O 	O 	0.00919 0.87091 0.28385 -0.45800
O 	O 	0.10954 0.62822 0.50175 -0.40600
O 	O 	0.02714 0.58807 0.45724 -0.39700
C 	C 	0.09020 0.64070 0.47369 0.35500
C 	C 	0.14669 0.72236 0.45808 -0.09500
C 	C 	0.12632 0.74610 0.42859 0.00500
H 	H 	0.07610 0.70930 0.41840 0.04100
C 	C 	0.07410 0.81320 0.37390 -0.02700
H 	H 	0.03340 0.77350 0.38760 0.04300
C 	C 	0.04610 0.83370 0.34550 0.03200
H 	H 	0.98940 0.80700 0.34030 0.00900
C 	C 	0.09430 0.78380 0.36230 -0.10700
C 	C 	0.07400 0.81160 0.33310 0.01600
H 	H 	0.06890 0.72710 0.36740 0.06600
H 	H 	0.03770 0.77140 0.31840 0.03400
O 	O 	0.86172 0.99081 0.28385 -0.47500
O 	O 	0.51868 0.89046 0.50175 -0.41300
O 	O 	0.56093 0.97286 0.45724 -0.41000
C 	C 	0.55050 0.90980 0.47369 0.35600
C 	C 	0.57567 0.85331 0.45808 -0.09900
C 	C 	0.61978 0.87368 0.42859 0.00600
H 	H 	0.63320 0.92390 0.41840 0.03700
C 	C 	0.73910 0.92590 0.37390 -0.10900
H 	H 	0.74010 0.96660 0.38760 0.06100
C 	C 	0.78760 0.95390 0.34550 0.02700
H 	H 	0.81760 0.01060 0.34030 0.03300
C 	C 	0.68950 0.90570 0.36230 -0.01700
C 	C 	0.73760 0.92600 0.33310 -0.01100
H 	H 	0.65820 0.93110 0.36740 0.03100
H 	H 	0.73370 0.96230 0.31840 0.03400
O 	O 	0.12909 0.13828 0.28385 -0.46200
O 	O 	0.37178 0.48132 0.50175 -0.40800
O 	O 	0.41193 0.43907 0.45724 -0.40300
C 	C 	0.35930 0.44950 0.47369 0.35500
C 	C 	0.27764 0.42433 0.45808 -0.09500
C 	C 	0.25390 0.38022 0.42859 0.00500
H 	H 	0.29070 0.36680 0.41840 0.04000
C 	C 	0.18680 0.26090 0.37390 -0.06700
H 	H 	0.22650 0.25990 0.38760 0.05400
C 	C 	0.16630 0.21240 0.34550 0.01600
H 	H 	0.19300 0.18240 0.34030 0.03100
C 	C 	0.21620 0.31050 0.36230 -0.06400
C 	C 	0.18840 0.26240 0.33310 0.01600
H 	H 	0.27290 0.34180 0.36740 0.04900
H 	H 	0.22860 0.26630 0.31840 0.03000
O 	O 	0.99081 0.12909 0.78385 -0.47100
O 	O 	0.89046 0.37178 0.00175 -0.41200
O 	O 	0.97286 0.41193 0.95724 -0.41000
C 	C 	0.90980 0.35930 0.97369 0.35600
C 	C 	0.85331 0.27764 0.95808 -0.09800
C 	C 	0.87368 0.25390 0.92859 0.00600
H 	H 	0.92390 0.29070 0.91840 0.03800
C 	C 	0.92590 0.18680 0.87390 -0.10700
H 	H 	0.96660 0.22650 0.88760 0.06200
C 	C 	0.95390 0.16630 0.84550 0.01800
H 	H 	0.01060 0.19300 0.84030 0.04000
C 	C 	0.90570 0.21620 0.86230 -0.02000
C 	C 	0.92600 0.18840 0.83310 -0.00100
H 	H 	0.93110 0.27290 0.86740 0.03300
H 	H 	0.96230 0.22860 0.81840 0.03100
O 	O 	0.13828 0.00919 0.78385 -0.45400
O 	O 	0.48132 0.10954 0.00175 -0.40500
O 	O 	0.43907 0.02714 0.95724 -0.39600
C 	C 	0.44950 0.09020 0.97369 0.35500
C 	C 	0.42433 0.14669 0.95808 -0.09300
C 	C 	0.38022 0.12632 0.92859 0.00500
H 	H 	0.36680 0.07610 0.91840 0.04200
C 	C 	0.26090 0.07410 0.87390 -0.01800
H 	H 	0.25990 0.03340 0.88760 0.04200
C 	C 	0.21240 0.04610 0.84550 0.02500
H 	H 	0.18240 0.98940 0.84030 0.01200
C 	C 	0.31050 0.09430 0.86230 -0.11800
C 	C 	0.26240 0.07400 0.83310 0.02700
H 	H 	0.34180 0.06890 0.86740 0.07000
H 	H 	0.26630 0.03770 0.81840 0.03200
O 	O 	0.87091 0.86172 0.78385 -0.47000
O 	O 	0.62822 0.51868 0.00175 -0.41000
O 	O 	0.58807 0.56093 0.95724 -0.40400
C 	C 	0.64070 0.55050 0.97369 0.35600
C 	C 	0.72236 0.57567 0.95808 -0.09800
C 	C 	0.74610 0.61978 0.92859 0.00600
H 	H 	0.70930 0.63320 0.91840 0.03900
C 	C 	0.81320 0.73910 0.87390 -0.07900
H 	H 	0.77350 0.74010 0.88760 0.05400
C 	C 	0.83370 0.78760 0.84550 0.03200
H 	H 	0.80700 0.81760 0.84030 0.02100
C 	C 	0.78380 0.68950 0.86230 -0.05100
C 	C 	0.81160 0.73760 0.83310 -0.00400
H 	H 	0.72710 0.65820 0.86740 0.04400
H 	H 	0.77140 0.73370 0.81840 0.03500
O 	O 	0.12909 0.99081 0.28385 -0.47100
O 	O 	0.37178 0.89046 0.50175 -0.41200
O 	O 	0.41193 0.97286 0.45724 -0.41000
C 	C 	0.35930 0.90980 0.47369 0.35600
C 	C 	0.27764 0.85331 0.45808 -0.09800
C 	C 	0.25390 0.87368 0.42859 0.00600
H 	H 	0.29070 0.92390 0.41840 0.03800
C 	C 	0.18680 0.92590 0.37390 -0.10700
H 	H 	0.22650 0.96660 0.38760 0.06200
C 	C 	0.16630 0.95390 0.34550 0.01800
H 	H 	0.19300 0.01060 0.34030 0.04000
C 	C 	0.21620 0.90570 0.36230 -0.02000
C 	C 	0.18840 0.92600 0.33310 -0.00100
H 	H 	0.27290 0.93110 0.36740 0.03300
H 	H 	0.22860 0.96230 0.31840 0.03100
O 	O 	0.00919 0.13828 0.28385 -0.45400
O 	O 	0.10954 0.48132 0.50175 -0.40500
O 	O 	0.02714 0.43907 0.45724 -0.39600
C 	C 	0.09020 0.44950 0.47369 0.35500
C 	C 	0.14669 0.42433 0.45808 -0.09300
C 	C 	0.12632 0.38022 0.42859 0.00500
H 	H 	0.07610 0.36680 0.41840 0.04200
C 	C 	0.07410 0.26090 0.37390 -0.01800
H 	H 	0.03340 0.25990 0.38760 0.04200
C 	C 	0.04610 0.21240 0.34550 0.02500
H 	H 	0.98940 0.18240 0.34030 0.01300
C 	C 	0.09430 0.31050 0.36230 -0.11700
C 	C 	0.07400 0.26240 0.33310 0.02600
H 	H 	0.06890 0.34180 0.36740 0.07000
H 	H 	0.03770 0.26630 0.31840 0.03200
O 	O 	0.86172 0.87091 0.28385 -0.47000
O 	O 	0.51868 0.62822 0.50175 -0.40900
O 	O 	0.56093 0.58807 0.45724 -0.40400
C 	C 	0.55050 0.64070 0.47369 0.35600
C 	C 	0.57567 0.72236 0.45808 -0.09800
C 	C 	0.61978 0.74610 0.42859 0.00600
H 	H 	0.63320 0.70930 0.41840 0.03900
C 	C 	0.73910 0.81320 0.37390 -0.07900
H 	H 	0.74010 0.77350 0.38760 0.05400
C 	C 	0.78760 0.83370 0.34550 0.03200
H 	H 	0.81760 0.80700 0.34030 0.02100
C 	C 	0.68950 0.78380 0.36230 -0.05100
C 	C 	0.73760 0.81160 0.33310 -0.00400
H 	H 	0.65820 0.72710 0.36740 0.04400
H 	H 	0.73370 0.77140 0.31840 0.03500
O 	O 	0.87091 0.00919 0.78385 -0.45800
O 	O 	0.62822 0.10954 0.00175 -0.40600
O 	O 	0.58807 0.02714 0.95724 -0.39700
C 	C 	0.64070 0.09020 0.97369 0.35500
C 	C 	0.72236 0.14669 0.95808 -0.09500
C 	C 	0.74610 0.12632 0.92859 0.00500
H 	H 	0.70930 0.07610 0.91840 0.04100
C 	C 	0.81320 0.07410 0.87390 -0.02700
H 	H 	0.77350 0.03340 0.88760 0.04300
C 	C 	0.83370 0.04610 0.84550 0.03200
H 	H 	0.80700 0.98940 0.84030 0.00900
C 	C 	0.78380 0.09430 0.86230 -0.10800
C 	C 	0.81160 0.07400 0.83310 0.01600
H 	H 	0.72710 0.06890 0.86740 0.06600
H 	H 	0.77140 0.03770 0.81840 0.03400
O 	O 	0.99081 0.86172 0.78385 -0.47500
O 	O 	0.89046 0.51868 0.00175 -0.41300
O 	O 	0.97286 0.56093 0.95724 -0.41000
C 	C 	0.90980 0.55050 0.97369 0.35600
C 	C 	0.85331 0.57567 0.95808 -0.09900
C 	C 	0.87368 0.61978 0.92859 0.00600
H 	H 	0.92390 0.63320 0.91840 0.03700
C 	C 	0.92590 0.73910 0.87390 -0.10900
H 	H 	0.96660 0.74010 0.88760 0.06100
C 	C 	0.95390 0.78760 0.84550 0.02700
H 	H 	0.01060 0.81760 0.84030 0.03300
C 	C 	0.90570 0.68950 0.86230 -0.01800
C 	C 	0.92600 0.73760 0.83310 -0.01100
H 	H 	0.93110 0.65820 0.86740 0.03100
H 	H 	0.96230 0.73370 0.81840 0.03400
O 	O 	0.13828 0.12909 0.78385 -0.46200
O 	O 	0.48132 0.37178 0.00175 -0.40800
O 	O 	0.43907 0.41193 0.95724 -0.40300
C 	C 	0.44950 0.35930 0.97369 0.35500
C 	C 	0.42433 0.27764 0.95808 -0.09500
C 	C 	0.38022 0.25390 0.92859 0.00500
H 	H 	0.36680 0.29070 0.91840 0.04000
C 	C 	0.26090 0.18680 0.87390 -0.06700
H 	H 	0.25990 0.22650 0.88760 0.05400
C 	C 	0.21240 0.16630 0.84550 0.01600
H 	H 	0.18240 0.19300 0.84030 0.03100
C 	C 	0.31050 0.21620 0.86230 -0.06400
C 	C 	0.26240 0.18840 0.83310 0.01600
H 	H 	0.34180 0.27290 0.86740 0.04900
H 	H 	0.26630 0.22860 0.81840 0.03000
O 	O 	0.99081 0.12909 0.71615 -0.47100
O 	O 	0.89046 0.37178 0.49825 -0.41200
O 	O 	0.97286 0.41193 0.54276 -0.41000
C 	C 	0.90980 0.35930 0.52631 0.35600
C 	C 	0.85331 0.27764 0.54192 -0.09800
C 	C 	0.87368 0.25390 0.57141 0.00600
H 	H 	0.92390 0.29070 0.58160 0.03800
C 	C 	0.92590 0.18680 0.62610 -0.10700
H 	H 	0.96660 0.22650 0.61240 0.06200
C 	C 	0.95390 0.16630 0.65450 0.01800
H 	H 	0.01060 0.19300 0.65970 0.04000
C 	C 	0.90570 0.21620 0.63770 -0.02000
C 	C 	0.92600 0.18840 0.66690 -0.00100
H 	H 	0.93110 0.27290 0.63260 0.03300
H 	H 	0.96230 0.22860 0.68160 0.03100
O 	O 	0.13828 0.00919 0.71615 -0.45400
O 	O 	0.48132 0.10954 0.49825 -0.40500
O 	O 	0.43907 0.02714 0.54276 -0.39600
C 	C 	0.44950 0.09020 0.52631 0.35500
C 	C 	0.42433 0.14669 0.54192 -0.09300
C 	C 	0.38022 0.12632 0.57141 0.00500
H 	H 	0.36680 0.07610 0.58160 0.04200
C 	C 	0.26090 0.07410 0.62610 -0.01800
H 	H 	0.25990 0.03340 0.61240 0.04200
C 	C 	0.21240 0.04610 0.65450 0.02500
H 	H 	0.18240 0.98940 0.65970 0.01300
C 	C 	0.31050 0.09430 0.63770 -0.11700
C 	C 	0.26240 0.07400 0.66690 0.02600
H 	H 	0.34180 0.06890 0.63260 0.07000
H 	H 	0.26630 0.03770 0.68160 0.03200
O 	O 	0.87091 0.86172 0.71615 -0.47000
O 	O 	0.62822 0.51868 0.49825 -0.40900
O 	O 	0.58807 0.56093 0.54276 -0.40400
C 	C 	0.64070 0.55050 0.52631 0.35600
C 	C 	0.72236 0.57567 0.54192 -0.09800
C 	C 	0.74610 0.61978 0.57141 0.00600
H 	H 	0.70930 0.63320 0.58160 0.03900
C 	C 	0.81320 0.73910 0.62610 -0.07900
H 	H 	0.77350 0.74010 0.61240 0.05400
C 	C 	0.83370 0.78760 0.65450 0.03200
H 	H 	0.80700 0.81760 0.65970 0.02100
C 	C 	0.78380 0.68950 0.63770 -0.05100
C 	C 	0.81160 0.73760 0.66690 -0.00400
H 	H 	0.72710 0.65820 0.63260 0.04400
H 	H 	0.77140 0.73370 0.68160 0.03500
O 	O 	0.00919 0.87091 0.21615 -0.45800
O 	O 	0.10954 0.62822 0.99825 -0.40600
O 	O 	0.02714 0.58807 0.04276 -0.39700
C 	C 	0.09020 0.64070 0.02631 0.35500
C 	C 	0.14669 0.72236 0.04192 -0.09500
C 	C 	0.12632 0.74610 0.07141 0.00500
H 	H 	0.07610 0.70930 0.08160 0.04100
C 	C 	0.07410 0.81320 0.12610 -0.02700
H 	H 	0.03340 0.77350 0.11240 0.04300
C 	C 	0.04610 0.83370 0.15450 0.03200
H 	H 	0.98940 0.80700 0.15970 0.00900
C 	C 	0.09430 0.78380 0.13770 -0.10800
C 	C 	0.07400 0.81160 0.16690 0.01600
H 	H 	0.06890 0.72710 0.13260 0.06600
H 	H 	0.03770 0.77140 0.18160 0.03400
O 	O 	0.86172 0.99081 0.21615 -0.47500
O 	O 	0.51868 0.89046 0.99825 -0.41300
O 	O 	0.56093 0.97286 0.04276 -0.41000
C 	C 	0.55050 0.90980 0.02631 0.35600
C 	C 	0.57567 0.85331 0.04192 -0.09900
C 	C 	0.61978 0.87368 0.07141 0.00600
H 	H 	0.63320 0.92390 0.08160 0.03700
C 	C 	0.73910 0.92590 0.12610 -0.10900
H 	H 	0.74010 0.96660 0.11240 0.06100
C 	C 	0.78760 0.95390 0.15450 0.02700
H 	H 	0.81760 0.01060 0.15970 0.03300
C 	C 	0.68950 0.90570 0.13770 -0.01800
C 	C 	0.73760 0.92600 0.16690 -0.01100
H 	H 	0.65820 0.93110 0.13260 0.03100
H 	H 	0.73370 0.96230 0.18160 0.03400
O 	O 	0.12909 0.13828 0.21615 -0.46200
O 	O 	0.37178 0.48132 0.99825 -0.40800
O 	O 	0.41193 0.43907 0.04276 -0.40300
C 	C 	0.35930 0.44950 0.02631 0.35500
C 	C 	0.27764 0.42433 0.04192 -0.09500
C 	C 	0.25390 0.38022 0.07141 0.00500
H 	H 	0.29070 0.36680 0.08160 0.04000
C 	C 	0.18680 0.26090 0.12610 -0.06700
H 	H 	0.22650 0.25990 0.11240 0.05400
C 	C 	0.16630 0.21240 0.15450 0.01600
H 	H 	0.19300 0.18240 0.15970 0.03100
C 	C 	0.21620 0.31050 0.13770 -0.06400
C 	C 	0.18840 0.26240 0.16690 0.01600
H 	H 	0.27290 0.34180 0.13260 0.04900
H 	H 	0.22860 0.26630 0.18160 0.03000
Cu	Cu	0.52395 0.04791 0.47406 0.91100
Cu	Cu	0.95209 0.47604 0.47406 0.89800
Cu	Cu	0.52396 0.47604 0.47406 0.90500
Cu	Cu	0.47604 0.95209 0.97406 0.89800
Cu	Cu	0.04791 0.52396 0.97406 0.91100
Cu	Cu	0.47604 0.52396 0.97406 0.90500
Cu	Cu	0.04791 0.52396 0.52594 0.91100
Cu	Cu	0.47604 0.95209 0.52594 0.89800
Cu	Cu	0.47604 0.52396 0.52594 0.90500
Cu	Cu	0.95209 0.47605 0.02594 0.89800
Cu	Cu	0.52396 0.04791 0.02594 0.91100
Cu	Cu	0.52395 0.47604 0.02594 0.90500
Fe	Fe	0.88308 0.94154 0.75000 1.23800
Fe	Fe	0.05846 0.94154 0.75000 1.24400
Fe	Fe	0.05846 0.11692 0.75000 1.25700
Fe	Fe	0.11692 0.05846 0.25000 1.25700
Fe	Fe	0.94154 0.05846 0.25000 1.24400
Fe	Fe	0.94154 0.88308 0.25000 1.23800
O 	O 	-0.00000 0.00000 0.75000 -0.65800
O 	O 	-0.00000 0.00000 0.25000 -0.65800
C 	C 	0.77679 0.22321 0.52746 0.03700
H 	H 	0.76190 0.23810 0.50790 0.04900
C 	C 	0.82204 0.17796 0.58578 -0.04100
C 	C 	0.84541 0.15459 0.61661 0.07300
C 	C 	0.89492 0.10508 0.67466 -0.13800
C 	C 	0.92131 0.07869 0.70452 0.42600
C 	C 	0.77679 0.55358 0.52746 0.03800
H 	H 	0.76190 0.52380 0.50790 0.04700
C 	C 	0.82204 0.64408 0.58578 -0.04300
C 	C 	0.84541 0.69082 0.61661 0.07300
C 	C 	0.89492 0.78984 0.67466 -0.13500
C 	C 	0.92131 0.84262 0.70452 0.42400
C 	C 	0.44642 0.22321 0.52746 0.03600
H 	H 	0.47620 0.23810 0.50790 0.05000
C 	C 	0.35592 0.17796 0.58578 -0.03800
C 	C 	0.30918 0.15459 0.61661 0.07300
C 	C 	0.21016 0.10508 0.67466 -0.14100
C 	C 	0.15738 0.07869 0.70452 0.42800
C 	C 	0.22321 0.77679 0.02746 0.03700
H 	H 	0.23810 0.76190 0.00790 0.04900
C 	C 	0.17796 0.82204 0.08578 -0.04100
C 	C 	0.15459 0.84541 0.11661 0.07300
C 	C 	0.10508 0.89492 0.17466 -0.13800
C 	C 	0.07869 0.92131 0.20452 0.42600
C 	C 	0.22321 0.44642 0.02746 0.03700
H 	H 	0.23810 0.47620 0.00790 0.05000
C 	C 	0.17796 0.35592 0.08578 -0.03900
C 	C 	0.15459 0.30918 0.11661 0.07300
C 	C 	0.10508 0.21016 0.17466 -0.14100
C 	C 	0.07869 0.15738 0.20452 0.42800
C 	C 	0.55358 0.77679 0.02746 0.03800
H 	H 	0.52380 0.76190 0.00790 0.04700
C 	C 	0.64408 0.82204 0.08578 -0.04300
C 	C 	0.69082 0.84541 0.11661 0.07300
C 	C 	0.78984 0.89492 0.17466 -0.13500
C 	C 	0.84262 0.92131 0.20452 0.42400
C 	C 	0.22321 0.77679 0.47254 0.03700
H 	H 	0.23810 0.76190 0.49210 0.04900
C 	C 	0.17796 0.82204 0.41422 -0.04100
C 	C 	0.15459 0.84541 0.38339 0.07300
C 	C 	0.10508 0.89492 0.32534 -0.13800
C 	C 	0.07869 0.92131 0.29548 0.42600
C 	C 	0.55358 0.77679 0.47254 0.03800
H 	H 	0.52380 0.76190 0.49210 0.04700
C 	C 	0.64408 0.82204 0.41422 -0.04300
C 	C 	0.69082 0.84541 0.38339 0.07300
C 	C 	0.78984 0.89492 0.32534 -0.13500
C 	C 	0.84262 0.92131 0.29548 0.42400
C 	C 	0.22321 0.44642 0.47254 0.03600
H 	H 	0.23810 0.47620 0.49210 0.05000
C 	C 	0.17796 0.35592 0.41422 -0.03800
C 	C 	0.15459 0.30918 0.38339 0.07300
C 	C 	0.10508 0.21016 0.32534 -0.14100
C 	C 	0.07869 0.15738 0.29548 0.42800
C 	C 	0.77679 0.22321 0.97254 0.03700
H 	H 	0.76190 0.23810 0.99210 0.04900
C 	C 	0.82204 0.17796 0.91422 -0.04100
C 	C 	0.84541 0.15459 0.88339 0.07300
C 	C 	0.89492 0.10508 0.82534 -0.13800
C 	C 	0.92131 0.07869 0.79548 0.42600
C 	C 	0.44642 0.22321 0.97254 0.03700
H 	H 	0.47620 0.23810 0.99210 0.05000
C 	C 	0.35592 0.17796 0.91422 -0.03900
C 	C 	0.30918 0.15459 0.88339 0.07300
C 	C 	0.21016 0.10508 0.82534 -0.14100
C 	C 	0.15738 0.07869 0.79548 0.42800
C 	C 	0.77679 0.55358 0.97254 0.03800
H 	H 	0.76190 0.52380 0.99210 0.04700
C 	C 	0.82204 0.64408 0.91422 -0.04300
C 	C 	0.84541 0.69082 0.88339 0.07300
C 	C 	0.89492 0.78984 0.82534 -0.13500
C 	C 	0.92131 0.84262 0.79548 0.42400
