data_crystal

_cell_length_a 18.43100
_cell_length_b 18.43100
_cell_length_c 40.52000
_cell_angle_alpha 90.00000
_cell_angle_beta  90.00000
_cell_angle_gamma 120.00000

_symmetry_space_group_name_	'P 1'
_symmetry_space_group_name_H-M	'P 1'

loop_
_symmetry_equiv_pos_as_xyz
  x,y,z

loop_
_atom_site_label
_atom_site_type_symbol
_atom_site_fract_x
_atom_site_fract_y
_atom_site_fract_z
_atom_site_charge
Co	Co	0.11626 0.05813 0.75000 1.20000
Co	Co	0.94187 0.88374 0.75000 1.20000
Co	Co	0.94187 0.05813 0.75000 1.19800
Co	Co	0.88374 0.94187 0.25000 1.20000
Co	Co	0.05813 0.11626 0.25000 1.20000
Co	Co	0.05813 0.94187 0.25000 1.19800
Cu	Cu	0.47607 0.52393 0.47399 0.90600
Cu	Cu	0.04786 0.52393 0.47399 0.90600
Cu	Cu	0.47607 0.95214 0.47399 0.90600
Cu	Cu	0.52393 0.47607 0.97399 0.90600
Cu	Cu	0.95214 0.47607 0.97399 0.90600
Cu	Cu	0.52393 0.04786 0.97399 0.90600
Cu	Cu	0.95214 0.47607 0.52601 0.90600
Cu	Cu	0.52393 0.47607 0.52601 0.90600
Cu	Cu	0.52393 0.04786 0.52601 0.90600
Cu	Cu	0.04786 0.52393 0.02601 0.90600
Cu	Cu	0.47607 0.52393 0.02601 0.90600
Cu	Cu	0.47607 0.95214 0.02601 0.90600
H 	H 	0.29260 0.36720 0.58260 -0.07200
H 	H 	0.04360 0.28920 0.61990 0.39100
H 	H 	0.01140 0.22340 0.67320 -0.27900
H 	H 	0.07460 0.70740 0.58260 -0.07100
H 	H 	0.24560 0.95640 0.61990 0.39000
H 	H 	0.21200 0.98860 0.67320 -0.27800
H 	H 	0.63280 0.92540 0.58260 -0.07200
H 	H 	0.71080 0.75440 0.61990 0.39100
H 	H 	0.77660 0.78800 0.67320 -0.28000
H 	H 	0.70740 0.63280 0.08260 -0.07200
H 	H 	0.95640 0.71080 0.11990 0.39100
H 	H 	0.98860 0.77660 0.17320 -0.27900
H 	H 	0.92540 0.29260 0.08260 -0.07000
H 	H 	0.75440 0.04360 0.11990 0.39100
H 	H 	0.78800 0.01140 0.17320 -0.27700
H 	H 	0.36720 0.07460 0.08260 -0.07100
H 	H 	0.28920 0.24560 0.11990 0.39200
H 	H 	0.22340 0.21200 0.17320 -0.27900
H 	H 	0.92540 0.63280 0.41740 -0.07100
H 	H 	0.75440 0.71080 0.38010 0.39200
H 	H 	0.78800 0.77660 0.32680 -0.27900
H 	H 	0.36720 0.29260 0.41740 -0.07100
H 	H 	0.28920 0.04360 0.38010 0.39200
H 	H 	0.22340 0.01140 0.32680 -0.27800
H 	H 	0.70740 0.07460 0.41740 -0.07000
H 	H 	0.95640 0.24560 0.38010 0.39100
H 	H 	0.98860 0.21200 0.32680 -0.27700
H 	H 	0.07460 0.36720 0.91740 -0.07100
H 	H 	0.24560 0.28920 0.88010 0.39200
H 	H 	0.21200 0.22340 0.82680 -0.27900
H 	H 	0.63280 0.70740 0.91740 -0.07100
H 	H 	0.71080 0.95640 0.88010 0.39200
H 	H 	0.77660 0.98860 0.82680 -0.27800
H 	H 	0.29260 0.92540 0.91740 -0.07000
H 	H 	0.04360 0.75440 0.88010 0.39100
H 	H 	0.01140 0.78800 0.82680 -0.27700
H 	H 	0.70740 0.63280 0.41740 -0.07100
H 	H 	0.95640 0.71080 0.38010 0.39200
H 	H 	0.98860 0.77660 0.32680 -0.27800
H 	H 	0.92540 0.29260 0.41740 -0.07000
H 	H 	0.75440 0.04360 0.38010 0.39100
H 	H 	0.78800 0.01140 0.32680 -0.27700
H 	H 	0.36720 0.07460 0.41740 -0.07100
H 	H 	0.28920 0.24560 0.38010 0.39200
H 	H 	0.22340 0.21200 0.32680 -0.27900
H 	H 	0.29260 0.36720 0.91740 -0.07100
H 	H 	0.04360 0.28920 0.88010 0.39200
H 	H 	0.01140 0.22340 0.82680 -0.27800
H 	H 	0.07460 0.70740 0.91740 -0.07000
H 	H 	0.24560 0.95640 0.88010 0.39100
H 	H 	0.21200 0.98860 0.82680 -0.27700
H 	H 	0.63280 0.92540 0.91740 -0.07100
H 	H 	0.71080 0.75440 0.88010 0.39200
H 	H 	0.77660 0.78800 0.82680 -0.27900
H 	H 	0.07460 0.36720 0.58260 -0.07100
H 	H 	0.24560 0.28920 0.61990 0.39200
H 	H 	0.21200 0.22340 0.67320 -0.27900
H 	H 	0.63280 0.70740 0.58260 -0.07100
H 	H 	0.71080 0.95640 0.61990 0.39200
H 	H 	0.77660 0.98860 0.67320 -0.27800
H 	H 	0.29260 0.92540 0.58260 -0.07000
H 	H 	0.04360 0.75440 0.61990 0.39100
H 	H 	0.01140 0.78800 0.67320 -0.27700
H 	H 	0.92540 0.63280 0.08260 -0.07100
H 	H 	0.75440 0.71080 0.11990 0.39200
H 	H 	0.78800 0.77660 0.17320 -0.27900
H 	H 	0.36720 0.29260 0.08260 -0.07100
H 	H 	0.28920 0.04360 0.11990 0.39200
H 	H 	0.22340 0.01140 0.17320 -0.27800
H 	H 	0.70740 0.07460 0.08260 -0.07000
H 	H 	0.95640 0.24560 0.11990 0.39100
H 	H 	0.98860 0.21200 0.17320 -0.27700
H 	H 	0.23650 0.47300 0.50860 0.00400
H 	H 	0.23650 0.76350 0.50860 0.00400
H 	H 	0.52700 0.76350 0.50860 0.00400
H 	H 	0.76350 0.52700 0.00860 0.00400
H 	H 	0.76350 0.23650 0.00860 0.00400
H 	H 	0.47300 0.23650 0.00860 0.00400
H 	H 	0.76350 0.52700 0.49140 0.00400
H 	H 	0.47300 0.23650 0.49140 0.00400
H 	H 	0.76350 0.23650 0.49140 0.00400
H 	H 	0.23650 0.47300 0.99140 0.00400
H 	H 	0.52700 0.76350 0.99140 0.00400
H 	H 	0.23650 0.76350 0.99140 0.00400
C 	C 	0.35810 0.44920 0.52660 0.38800
C 	C 	0.27780 0.42350 0.54290 -0.24700
C 	C 	0.25540 0.38040 0.57245 0.29300
C 	C 	0.08320 0.28050 0.63060 -1.02500
C 	C 	0.06050 0.23360 0.66280 0.99500
C 	C 	0.09110 0.64190 0.52660 0.38700
C 	C 	0.14570 0.72220 0.54290 -0.24600
C 	C 	0.12500 0.74460 0.57245 0.29100
C 	C 	0.19730 0.91680 0.63060 -1.02000
C 	C 	0.17310 0.93950 0.66280 0.99100
C 	C 	0.55080 0.90890 0.52660 0.38800
C 	C 	0.57650 0.85430 0.54290 -0.24700
C 	C 	0.61960 0.87500 0.57245 0.29300
C 	C 	0.71950 0.80270 0.63060 -1.02500
C 	C 	0.76640 0.82690 0.66280 0.99500
C 	C 	0.64190 0.55080 0.02660 0.38800
C 	C 	0.72220 0.57650 0.04290 -0.24700
C 	C 	0.74460 0.61960 0.07245 0.29300
C 	C 	0.91680 0.71950 0.13060 -1.02500
C 	C 	0.93950 0.76640 0.16280 0.99500
C 	C 	0.90890 0.35810 0.02660 0.38800
C 	C 	0.85430 0.27780 0.04290 -0.24600
C 	C 	0.87500 0.25540 0.07245 0.29100
C 	C 	0.80270 0.08320 0.13060 -1.02100
C 	C 	0.82690 0.06050 0.16280 0.99100
C 	C 	0.44920 0.09110 0.02660 0.38800
C 	C 	0.42350 0.14570 0.04290 -0.24700
C 	C 	0.38040 0.12500 0.07245 0.29300
C 	C 	0.28050 0.19730 0.13060 -1.02500
C 	C 	0.23360 0.17310 0.16280 0.99500
C 	C 	0.90890 0.55080 0.47340 0.38800
C 	C 	0.85430 0.57650 0.45710 -0.24700
C 	C 	0.87500 0.61960 0.42755 0.29300
C 	C 	0.80270 0.71950 0.36940 -1.02500
C 	C 	0.82690 0.76640 0.33720 0.99500
C 	C 	0.44920 0.35810 0.47340 0.38800
C 	C 	0.42350 0.27780 0.45710 -0.24700
C 	C 	0.38040 0.25540 0.42755 0.29300
C 	C 	0.28050 0.08320 0.36940 -1.02500
C 	C 	0.23360 0.06050 0.33720 0.99500
C 	C 	0.64190 0.09110 0.47340 0.38700
C 	C 	0.72220 0.14570 0.45710 -0.24600
C 	C 	0.74460 0.12500 0.42755 0.29100
C 	C 	0.91680 0.19730 0.36940 -1.02000
C 	C 	0.93950 0.17310 0.33720 0.99100
C 	C 	0.09110 0.44920 0.97340 0.38800
C 	C 	0.14570 0.42350 0.95710 -0.24700
C 	C 	0.12500 0.38040 0.92755 0.29300
C 	C 	0.19730 0.28050 0.86940 -1.02500
C 	C 	0.17310 0.23360 0.83720 0.99500
C 	C 	0.55080 0.64190 0.97340 0.38800
C 	C 	0.57650 0.72220 0.95710 -0.24700
C 	C 	0.61960 0.74460 0.92755 0.29300
C 	C 	0.71950 0.91680 0.86940 -1.02500
C 	C 	0.76640 0.93950 0.83720 0.99500
C 	C 	0.35810 0.90890 0.97340 0.38800
C 	C 	0.27780 0.85430 0.95710 -0.24600
C 	C 	0.25540 0.87500 0.92755 0.29100
C 	C 	0.08320 0.80270 0.86940 -1.02100
C 	C 	0.06050 0.82690 0.83720 0.99100
C 	C 	0.64190 0.55080 0.47340 0.38800
C 	C 	0.72220 0.57650 0.45710 -0.24700
C 	C 	0.74460 0.61960 0.42755 0.29300
C 	C 	0.91680 0.71950 0.36940 -1.02500
C 	C 	0.93950 0.76640 0.33720 0.99500
C 	C 	0.90890 0.35810 0.47340 0.38700
C 	C 	0.85430 0.27780 0.45710 -0.24600
C 	C 	0.87500 0.25540 0.42755 0.29100
C 	C 	0.80270 0.08320 0.36940 -1.02000
C 	C 	0.82690 0.06050 0.33720 0.99100
C 	C 	0.44920 0.09110 0.47340 0.38800
C 	C 	0.42350 0.14570 0.45710 -0.24700
C 	C 	0.38040 0.12500 0.42755 0.29300
C 	C 	0.28050 0.19730 0.36940 -1.02500
C 	C 	0.23360 0.17310 0.33720 0.99500
C 	C 	0.35810 0.44920 0.97340 0.38800
C 	C 	0.27780 0.42350 0.95710 -0.24700
C 	C 	0.25540 0.38040 0.92755 0.29300
C 	C 	0.08320 0.28050 0.86940 -1.02500
C 	C 	0.06050 0.23360 0.83720 0.99500
C 	C 	0.09110 0.64190 0.97340 0.38800
C 	C 	0.14570 0.72220 0.95710 -0.24600
C 	C 	0.12500 0.74460 0.92755 0.29100
C 	C 	0.19730 0.91680 0.86940 -1.02100
C 	C 	0.17310 0.93950 0.83720 0.99100
C 	C 	0.55080 0.90890 0.97340 0.38800
C 	C 	0.57650 0.85430 0.95710 -0.24700
C 	C 	0.61960 0.87500 0.92755 0.29300
C 	C 	0.71950 0.80270 0.86940 -1.02500
C 	C 	0.76640 0.82690 0.83720 0.99500
C 	C 	0.09110 0.44920 0.52660 0.38800
C 	C 	0.14570 0.42350 0.54290 -0.24700
C 	C 	0.12500 0.38040 0.57245 0.29300
C 	C 	0.19730 0.28050 0.63060 -1.02500
C 	C 	0.17310 0.23360 0.66280 0.99500
C 	C 	0.55080 0.64190 0.52660 0.38800
C 	C 	0.57650 0.72220 0.54290 -0.24700
C 	C 	0.61960 0.74460 0.57245 0.29300
C 	C 	0.71950 0.91680 0.63060 -1.02500
C 	C 	0.76640 0.93950 0.66280 0.99500
C 	C 	0.35810 0.90890 0.52660 0.38700
C 	C 	0.27780 0.85430 0.54290 -0.24600
C 	C 	0.25540 0.87500 0.57245 0.29100
C 	C 	0.08320 0.80270 0.63060 -1.02000
C 	C 	0.06050 0.82690 0.66280 0.99100
C 	C 	0.90890 0.55080 0.02660 0.38800
C 	C 	0.85430 0.57650 0.04290 -0.24700
C 	C 	0.87500 0.61960 0.07245 0.29300
C 	C 	0.80270 0.71950 0.13060 -1.02500
C 	C 	0.82690 0.76640 0.16280 0.99500
C 	C 	0.44920 0.35810 0.02660 0.38800
C 	C 	0.42350 0.27780 0.04290 -0.24700
C 	C 	0.38040 0.25540 0.07245 0.29300
C 	C 	0.28050 0.08320 0.13060 -1.02500
C 	C 	0.23360 0.06050 0.16280 0.99500
C 	C 	0.64190 0.09110 0.02660 0.38800
C 	C 	0.72220 0.14570 0.04290 -0.24600
C 	C 	0.74460 0.12500 0.07245 0.29100
C 	C 	0.91680 0.19730 0.13060 -1.02100
C 	C 	0.93950 0.17310 0.16280 0.99100
C 	C 	0.22210 0.44420 0.52860 0.17900
C 	C 	0.17800 0.35600 0.58760 -0.50200
C 	C 	0.15400 0.30800 0.61800 1.00100
C 	C 	0.10390 0.20780 0.67600 -1.14100
C 	C 	0.07680 0.15360 0.70430 1.00100
C 	C 	0.22210 0.77790 0.52860 0.17800
C 	C 	0.17800 0.82200 0.58760 -0.49900
C 	C 	0.15400 0.84600 0.61800 0.99700
C 	C 	0.10390 0.89610 0.67600 -1.13600
C 	C 	0.07680 0.92320 0.70430 0.99800
C 	C 	0.55580 0.77790 0.52860 0.17900
C 	C 	0.64400 0.82200 0.58760 -0.50200
C 	C 	0.69200 0.84600 0.61800 1.00100
C 	C 	0.79220 0.89610 0.67600 -1.14100
C 	C 	0.84640 0.92320 0.70430 1.00100
C 	C 	0.77790 0.55580 0.02860 0.17900
C 	C 	0.82200 0.64400 0.08760 -0.50200
C 	C 	0.84600 0.69200 0.11800 1.00100
C 	C 	0.89610 0.79220 0.17600 -1.14100
C 	C 	0.92320 0.84640 0.20430 1.00100
C 	C 	0.77790 0.22210 0.02860 0.17800
C 	C 	0.82200 0.17800 0.08760 -0.49900
C 	C 	0.84600 0.15400 0.11800 0.99700
C 	C 	0.89610 0.10390 0.17600 -1.13600
C 	C 	0.92320 0.07680 0.20430 0.99800
C 	C 	0.44420 0.22210 0.02860 0.17900
C 	C 	0.35600 0.17800 0.08760 -0.50200
C 	C 	0.30800 0.15400 0.11800 1.00100
C 	C 	0.20780 0.10390 0.17600 -1.14100
C 	C 	0.15360 0.07680 0.20430 1.00100
C 	C 	0.77790 0.55580 0.47140 0.17900
C 	C 	0.82200 0.64400 0.41240 -0.50200
C 	C 	0.84600 0.69200 0.38200 1.00100
C 	C 	0.89610 0.79220 0.32400 -1.14100
C 	C 	0.92320 0.84640 0.29570 1.00100
C 	C 	0.44420 0.22210 0.47140 0.17900
C 	C 	0.35600 0.17800 0.41240 -0.50200
C 	C 	0.30800 0.15400 0.38200 1.00100
C 	C 	0.20780 0.10390 0.32400 -1.14100
C 	C 	0.15360 0.07680 0.29570 1.00100
C 	C 	0.77790 0.22210 0.47140 0.17800
C 	C 	0.82200 0.17800 0.41240 -0.49900
C 	C 	0.84600 0.15400 0.38200 0.99700
C 	C 	0.89610 0.10390 0.32400 -1.13600
C 	C 	0.92320 0.07680 0.29570 0.99800
C 	C 	0.22210 0.44420 0.97140 0.17900
C 	C 	0.17800 0.35600 0.91240 -0.50200
C 	C 	0.15400 0.30800 0.88200 1.00100
C 	C 	0.10390 0.20780 0.82400 -1.14100
C 	C 	0.07680 0.15360 0.79570 1.00100
C 	C 	0.55580 0.77790 0.97140 0.17900
C 	C 	0.64400 0.82200 0.91240 -0.50200
C 	C 	0.69200 0.84600 0.88200 1.00100
C 	C 	0.79220 0.89610 0.82400 -1.14100
C 	C 	0.84640 0.92320 0.79570 1.00100
C 	C 	0.22210 0.77790 0.97140 0.17800
C 	C 	0.17800 0.82200 0.91240 -0.49900
C 	C 	0.15400 0.84600 0.88200 0.99700
C 	C 	0.10390 0.89610 0.82400 -1.13600
C 	C 	0.07680 0.92320 0.79570 0.99800
O 	O 	0.37180 0.48150 0.49767 -0.41000
O 	O 	0.12220 0.13170 0.71525 -0.65900
O 	O 	0.41150 0.43790 0.54332 -0.40200
O 	O 	0.10970 0.62820 0.49767 -0.41000
O 	O 	0.00950 0.87780 0.71525 -0.65600
O 	O 	0.02640 0.58850 0.54332 -0.40200
O 	O 	0.51850 0.89030 0.49767 -0.41000
O 	O 	0.86830 0.99050 0.71525 -0.65800
O 	O 	0.56210 0.97360 0.54332 -0.40200
O 	O 	0.62820 0.51850 0.99767 -0.41000
O 	O 	0.87780 0.86830 0.21525 -0.65900
O 	O 	0.58850 0.56210 0.04332 -0.40200
O 	O 	0.89030 0.37180 0.99767 -0.41100
O 	O 	0.99050 0.12220 0.21525 -0.65600
O 	O 	0.97360 0.41150 0.04332 -0.40200
O 	O 	0.48150 0.10970 0.99767 -0.41100
O 	O 	0.13170 0.00950 0.21525 -0.65800
O 	O 	0.43790 0.02640 0.04332 -0.40200
O 	O 	0.89030 0.51850 0.50233 -0.41000
O 	O 	0.99050 0.86830 0.28475 -0.65800
O 	O 	0.97360 0.56210 0.45668 -0.40200
O 	O 	0.48150 0.37180 0.50233 -0.41000
O 	O 	0.13170 0.12220 0.28475 -0.65900
O 	O 	0.43790 0.41150 0.45668 -0.40200
O 	O 	0.62820 0.10970 0.50233 -0.41000
O 	O 	0.87780 0.00950 0.28475 -0.65600
O 	O 	0.58850 0.02640 0.45668 -0.40200
O 	O 	0.10970 0.48150 0.00233 -0.41100
O 	O 	0.00950 0.13170 0.78475 -0.65800
O 	O 	0.02640 0.43790 0.95668 -0.40200
O 	O 	0.51850 0.62820 0.00233 -0.41000
O 	O 	0.86830 0.87780 0.78475 -0.65900
O 	O 	0.56210 0.58850 0.95668 -0.40200
O 	O 	0.37180 0.89030 0.00233 -0.41100
O 	O 	0.12220 0.99050 0.78475 -0.65600
O 	O 	0.41150 0.97360 0.95668 -0.40200
O 	O 	0.62820 0.51850 0.50233 -0.41000
O 	O 	0.87780 0.86830 0.28475 -0.65900
O 	O 	0.58850 0.56210 0.45668 -0.40200
O 	O 	0.89030 0.37180 0.50233 -0.41000
O 	O 	0.99050 0.12220 0.28475 -0.65600
O 	O 	0.97360 0.41150 0.45668 -0.40200
O 	O 	0.48150 0.10970 0.50233 -0.41000
O 	O 	0.13170 0.00950 0.28475 -0.65800
O 	O 	0.43790 0.02640 0.45668 -0.40200
O 	O 	0.37180 0.48150 0.00233 -0.41000
O 	O 	0.12220 0.13170 0.78475 -0.65900
O 	O 	0.41150 0.43790 0.95668 -0.40200
O 	O 	0.10970 0.62820 0.00233 -0.41100
O 	O 	0.00950 0.87780 0.78475 -0.65600
O 	O 	0.02640 0.58850 0.95668 -0.40200
O 	O 	0.51850 0.89030 0.00233 -0.41100
O 	O 	0.86830 0.99050 0.78475 -0.65800
O 	O 	0.56210 0.97360 0.95668 -0.40200
O 	O 	0.10970 0.48150 0.49767 -0.41000
O 	O 	0.00950 0.13170 0.71525 -0.65800
O 	O 	0.02640 0.43790 0.54332 -0.40200
O 	O 	0.51850 0.62820 0.49767 -0.41000
O 	O 	0.86830 0.87780 0.71525 -0.65900
O 	O 	0.56210 0.58850 0.54332 -0.40200
O 	O 	0.37180 0.89030 0.49767 -0.41000
O 	O 	0.12220 0.99050 0.71525 -0.65600
O 	O 	0.41150 0.97360 0.54332 -0.40200
O 	O 	0.89030 0.51850 0.99767 -0.41100
O 	O 	0.99050 0.86830 0.21525 -0.65800
O 	O 	0.97360 0.56210 0.04332 -0.40200
O 	O 	0.48150 0.37180 0.99767 -0.41000
O 	O 	0.13170 0.12220 0.21525 -0.65900
O 	O 	0.43790 0.41150 0.04332 -0.40200
O 	O 	0.62820 0.10970 0.99767 -0.41100
O 	O 	0.87780 0.00950 0.21525 -0.65600
O 	O 	0.58850 0.02640 0.04332 -0.40200
