data_crystal

_cell_length_a 28.79500
_cell_length_b 9.50780
_cell_length_c 27.73630
_cell_angle_alpha 90.00000
_cell_angle_beta  92.59400
_cell_angle_gamma 90.00000

_symmetry_space_group_name_	'P 1'
_symmetry_space_group_name_H-M	'P 1'

loop_
_symmetry_equiv_pos_as_xyz
  x,y,z

loop_
_atom_site_label
_atom_site_type_symbol
_atom_site_fract_x
_atom_site_fract_y
_atom_site_fract_z
_atom_site_charge
Bi	Bi	0.89990 0.41667 0.97784 1.90300
O 	O 	0.92840 0.49670 0.05170 -0.43400
O 	O 	0.93510 0.70030 0.09260 -0.33000
O 	O 	0.92920 0.62050 0.96680 -0.49100
O 	O 	0.83950 0.58110 0.00780 -0.62800
O 	O 	0.80970 0.76860 0.03950 -0.54600
O 	O 	0.04850 0.79200 0.98010 -0.43800
O 	O 	0.02540 0.65100 0.03640 -0.58800
C 	C 	0.93240 0.63180 0.05390 0.16400
C 	C 	0.92920 0.71380 0.00580 0.36400
C 	C 	0.96990 0.81630 0.00390 -0.58100
H 	H 	0.96650 0.87010 0.97430 0.21400
H 	H 	0.96820 0.88180 0.03060 0.20500
C 	C 	0.88410 0.79610 0.00530 -0.63600
H 	H 	0.87840 0.83540 0.97330 0.23500
H 	H 	0.88790 0.87400 0.02770 0.24300
C 	C 	0.84130 0.71080 0.01850 0.54900
C 	C 	0.01700 0.74990 0.00630 0.48300
Bi	Bi	0.10010 0.58333 0.02216 1.90200
O 	O 	0.07160 0.50330 0.94830 -0.43500
O 	O 	0.06490 0.29970 0.90740 -0.33000
O 	O 	0.07080 0.37950 0.03320 -0.49100
O 	O 	0.16050 0.41890 0.99220 -0.62800
O 	O 	0.19030 0.23140 0.96050 -0.54600
O 	O 	0.95150 0.20800 0.01990 -0.43800
O 	O 	0.97460 0.34900 0.96360 -0.58800
C 	C 	0.06760 0.36820 0.94610 0.16400
C 	C 	0.07080 0.28620 0.99420 0.36400
C 	C 	0.03010 0.18370 0.99610 -0.58100
H 	H 	0.03350 0.12990 0.02570 0.21400
H 	H 	0.03180 0.11820 0.96940 0.20500
C 	C 	0.11590 0.20390 0.99470 -0.63600
H 	H 	0.12160 0.16460 0.02670 0.23500
H 	H 	0.11210 0.12600 0.97230 0.24300
C 	C 	0.15870 0.28920 0.98150 0.54900
C 	C 	0.98300 0.25010 0.99370 0.48300
Bi	Bi	0.75365 0.55053 0.99785 1.89900
O 	O 	0.68720 0.43420 0.00960 -0.43800
O 	O 	0.64600 0.34700 0.06830 -0.31900
O 	O 	0.76630 0.44170 0.06510 -0.45500
O 	O 	0.71080 0.69350 0.06510 -0.52200
O 	O 	0.69860 0.75440 0.14010 -0.28300
O 	O 	0.76860 0.04370 0.09160 -0.39100
O 	O 	0.72170 0.14860 0.03760 -0.52900
C 	C 	0.68240 0.39670 0.05340 0.21400
C 	C 	0.72550 0.40560 0.08850 0.29400
C 	C 	0.73280 0.26280 0.11370 -0.50000
H 	H 	0.75890 0.27030 0.13700 0.20100
H 	H 	0.70540 0.24040 0.13120 0.19100
C 	C 	0.71570 0.51630 0.12690 -0.57700
H 	H 	0.68780 0.48930 0.14300 0.22000
H 	H 	0.74130 0.51660 0.15090 0.21700
C 	C 	0.70930 0.66390 0.10720 0.51000
C 	C 	0.74220 0.14330 0.07880 0.44800
Bi	Bi	0.74635 0.94947 0.00215 1.90000
O 	O 	0.81280 0.06580 0.99040 -0.43700
O 	O 	0.85400 0.15300 0.93170 -0.31800
O 	O 	0.73370 0.05830 0.93490 -0.45500
O 	O 	0.78920 0.80650 0.93490 -0.52600
O 	O 	0.80140 0.74560 0.85990 -0.28700
O 	O 	0.73140 0.45630 0.90840 -0.39000
O 	O 	0.77830 0.35140 0.96240 -0.53000
C 	C 	0.81760 0.10330 0.94660 0.21200
C 	C 	0.77450 0.09440 0.91150 0.30400
C 	C 	0.76720 0.23720 0.88630 -0.50500
H 	H 	0.74110 0.22970 0.86300 0.20400
H 	H 	0.79460 0.25960 0.86880 0.19400
C 	C 	0.78430 0.98370 0.87310 -0.59900
H 	H 	0.81220 0.01070 0.85700 0.22900
H 	H 	0.75870 0.98340 0.84910 0.22100
C 	C 	0.79070 0.83610 0.89280 0.51600
C 	C 	0.75780 0.35670 0.92120 0.45000
Bi	Bi	0.01101 0.58766 0.14321 1.89200
Bi	Bi	0.98899 0.58766 0.35679 1.89300
O 	O 	0.05340 0.76150 0.18580 -0.38300
O 	O 	0.12250 0.78520 0.22240 -0.21200
O 	O 	0.05090 0.48810 0.19790 -0.47300
O 	O 	0.15810 0.47830 0.10320 -0.41100
O 	O 	0.09110 0.58010 0.11080 -0.63300
O 	O 	0.04670 0.44600 0.32230 -0.45200
O 	O 	0.04400 0.66380 0.29600 -0.44300
C 	C 	0.09060 0.71300 0.20800 0.20400
C 	C 	0.09230 0.55620 0.21290 0.29900
C 	C 	0.10310 0.51600 0.26400 -0.47900
H 	H 	0.10980 0.41590 0.26590 0.20000
H 	H 	0.13030 0.56660 0.27630 0.19100
C 	C 	0.13300 0.49640 0.18220 -0.58100
H 	H 	0.13580 0.39620 0.18810 0.23000
H 	H 	0.16200 0.53980 0.19370 0.21700
C 	C 	0.12720 0.51970 0.12870 0.52400
C 	C 	0.06040 0.55100 0.29600 0.44400
O 	O 	0.94660 0.76150 0.31420 -0.38200
O 	O 	0.87750 0.78520 0.27760 -0.21200
O 	O 	0.94910 0.48810 0.30210 -0.47300
O 	O 	0.84190 0.47830 0.39680 -0.41100
O 	O 	0.90890 0.58010 0.38920 -0.63300
O 	O 	0.95330 0.44600 0.17770 -0.45100
O 	O 	0.95600 0.66380 0.20400 -0.44300
C 	C 	0.90940 0.71300 0.29200 0.20400
C 	C 	0.90770 0.55620 0.28710 0.29900
C 	C 	0.89690 0.51600 0.23600 -0.47800
H 	H 	0.89020 0.41590 0.23410 0.20000
H 	H 	0.86970 0.56660 0.22370 0.19100
C 	C 	0.86700 0.49640 0.31780 -0.58100
H 	H 	0.86420 0.39620 0.31190 0.23000
H 	H 	0.83800 0.53980 0.30630 0.21700
C 	C 	0.87280 0.51970 0.37130 0.52400
C 	C 	0.93960 0.55100 0.20400 0.44400
O 	O 	0.94660 0.23850 0.81420 -0.38300
O 	O 	0.87750 0.21480 0.77760 -0.21200
O 	O 	0.94910 0.51190 0.80210 -0.47300
O 	O 	0.84190 0.52170 0.89680 -0.41100
O 	O 	0.90890 0.41990 0.88920 -0.63300
O 	O 	0.95330 0.55400 0.67770 -0.45200
O 	O 	0.95600 0.33620 0.70400 -0.44300
C 	C 	0.90940 0.28700 0.79200 0.20400
C 	C 	0.90770 0.44380 0.78710 0.29900
C 	C 	0.89690 0.48400 0.73600 -0.47900
H 	H 	0.89020 0.58410 0.73410 0.20000
H 	H 	0.86970 0.43340 0.72370 0.19100
C 	C 	0.86700 0.50360 0.81780 -0.58100
H 	H 	0.86420 0.60380 0.81190 0.23000
H 	H 	0.83800 0.46020 0.80630 0.21700
C 	C 	0.87280 0.48030 0.87130 0.52400
C 	C 	0.93960 0.44900 0.70400 0.44400
O 	O 	0.05340 0.23850 0.68580 -0.38200
O 	O 	0.12250 0.21480 0.72240 -0.21200
O 	O 	0.05090 0.51190 0.69790 -0.47300
O 	O 	0.15810 0.52170 0.60320 -0.41100
O 	O 	0.09110 0.41990 0.61080 -0.63300
O 	O 	0.04670 0.55400 0.82230 -0.45100
O 	O 	0.04400 0.33620 0.79600 -0.44300
C 	C 	0.09060 0.28700 0.70800 0.20400
C 	C 	0.09230 0.44380 0.71290 0.29900
C 	C 	0.10310 0.48400 0.76400 -0.47800
H 	H 	0.10980 0.58410 0.76590 0.20000
H 	H 	0.13030 0.43340 0.77630 0.19100
C 	C 	0.13300 0.50360 0.68220 -0.58100
H 	H 	0.13580 0.60380 0.68810 0.23000
H 	H 	0.16200 0.46020 0.69370 0.21700
C 	C 	0.12720 0.48030 0.62870 0.52400
C 	C 	0.06040 0.44900 0.79600 0.44400
Bi	Bi	0.98899 0.41234 0.85679 1.89200
Bi	Bi	0.01101 0.41234 0.64321 1.89300
Bi	Bi	0.39990 0.91667 0.97784 1.90100
O 	O 	0.42840 0.99670 0.05170 -0.43100
O 	O 	0.43510 0.20030 0.09260 -0.33000
O 	O 	0.42920 0.12050 0.96680 -0.48800
O 	O 	0.33950 0.08110 0.00780 -0.63100
O 	O 	0.30970 0.26860 0.03950 -0.54900
O 	O 	0.54850 0.29200 0.98010 -0.43900
O 	O 	0.52540 0.15100 0.03640 -0.58900
C 	C 	0.43240 0.13180 0.05390 0.15800
C 	C 	0.42920 0.21380 0.00580 0.36800
C 	C 	0.46990 0.31630 0.00390 -0.59500
H 	H 	0.46650 0.37010 0.97430 0.22100
H 	H 	0.46820 0.38180 0.03060 0.20700
C 	C 	0.38410 0.29610 0.00530 -0.64700
H 	H 	0.37840 0.33540 0.97330 0.24100
H 	H 	0.38790 0.37400 0.02770 0.24500
C 	C 	0.34130 0.21080 0.01850 0.55200
C 	C 	0.51700 0.24990 0.00630 0.48800
Bi	Bi	0.60010 0.08333 0.02216 1.90100
O 	O 	0.57160 0.00330 0.94830 -0.43100
O 	O 	0.56490 0.79970 0.90740 -0.33000
O 	O 	0.57080 0.87950 0.03320 -0.48800
O 	O 	0.66050 0.91890 0.99220 -0.63100
O 	O 	0.69030 0.73140 0.96050 -0.54900
O 	O 	0.45150 0.70800 0.01990 -0.43900
O 	O 	0.47460 0.84900 0.96360 -0.58900
C 	C 	0.56760 0.86820 0.94610 0.15800
C 	C 	0.57080 0.78620 0.99420 0.36800
C 	C 	0.53010 0.68370 0.99610 -0.59500
H 	H 	0.53350 0.62990 0.02570 0.22100
H 	H 	0.53180 0.61820 0.96940 0.20700
C 	C 	0.61590 0.70390 0.99470 -0.64700
H 	H 	0.62160 0.66460 0.02670 0.24100
H 	H 	0.61210 0.62600 0.97230 0.24500
C 	C 	0.65870 0.78920 0.98150 0.55200
C 	C 	0.48300 0.75010 0.99370 0.48800
Bi	Bi	0.25365 0.05053 0.99785 1.90000
O 	O 	0.18720 0.93420 0.00960 -0.43700
O 	O 	0.14600 0.84700 0.06830 -0.31800
O 	O 	0.26630 0.94170 0.06510 -0.45500
O 	O 	0.21080 0.19350 0.06510 -0.52600
O 	O 	0.19860 0.25440 0.14010 -0.28700
O 	O 	0.26860 0.54370 0.09160 -0.39000
O 	O 	0.22170 0.64860 0.03760 -0.53000
C 	C 	0.18240 0.89670 0.05340 0.21200
C 	C 	0.22550 0.90560 0.08850 0.30400
C 	C 	0.23280 0.76280 0.11370 -0.50500
H 	H 	0.25890 0.77030 0.13700 0.20400
H 	H 	0.20540 0.74040 0.13120 0.19400
C 	C 	0.21570 0.01630 0.12690 -0.59900
H 	H 	0.18780 0.98930 0.14300 0.22900
H 	H 	0.24130 0.01660 0.15090 0.22100
C 	C 	0.20930 0.16390 0.10720 0.51600
C 	C 	0.24220 0.64330 0.07880 0.45000
Bi	Bi	0.24635 0.44947 0.00215 1.89900
O 	O 	0.31280 0.56580 0.99040 -0.43800
O 	O 	0.35400 0.65300 0.93170 -0.31900
O 	O 	0.23370 0.55830 0.93490 -0.45500
O 	O 	0.28920 0.30650 0.93490 -0.52200
O 	O 	0.30140 0.24560 0.85990 -0.28300
O 	O 	0.23140 0.95630 0.90840 -0.39100
O 	O 	0.27830 0.85140 0.96240 -0.52900
C 	C 	0.31760 0.60330 0.94660 0.21400
C 	C 	0.27450 0.59440 0.91150 0.29400
C 	C 	0.26720 0.73720 0.88630 -0.50000
H 	H 	0.24110 0.72970 0.86300 0.20100
H 	H 	0.29460 0.75960 0.86880 0.19100
C 	C 	0.28430 0.48370 0.87310 -0.57700
H 	H 	0.31220 0.51070 0.85700 0.22000
H 	H 	0.25870 0.48340 0.84910 0.21700
C 	C 	0.29070 0.33610 0.89280 0.51000
C 	C 	0.25780 0.85670 0.92120 0.44800
Bi	Bi	0.51101 0.08766 0.14321 1.89000
Bi	Bi	0.48899 0.08766 0.35679 1.89100
O 	O 	0.55340 0.26150 0.18580 -0.38500
O 	O 	0.62250 0.28520 0.22240 -0.21500
O 	O 	0.55090 0.98810 0.19790 -0.46200
O 	O 	0.65810 0.97830 0.10320 -0.39900
O 	O 	0.59110 0.08010 0.11080 -0.62800
O 	O 	0.54670 0.94600 0.32230 -0.44400
O 	O 	0.54400 0.16380 0.29600 -0.44200
C 	C 	0.59060 0.21300 0.20800 0.21100
C 	C 	0.59230 0.05620 0.21290 0.27900
C 	C 	0.60310 0.01600 0.26400 -0.48200
H 	H 	0.60980 0.91590 0.26590 0.20600
H 	H 	0.63030 0.06660 0.27630 0.19100
C 	C 	0.63300 0.99640 0.18220 -0.53700
H 	H 	0.63580 0.89620 0.18810 0.21900
H 	H 	0.66200 0.03980 0.19370 0.20000
C 	C 	0.62720 0.01970 0.12870 0.49900
C 	C 	0.56040 0.05100 0.29600 0.43500
O 	O 	0.44660 0.26150 0.31420 -0.38500
O 	O 	0.37750 0.28520 0.27760 -0.21500
O 	O 	0.44910 0.98810 0.30210 -0.46300
O 	O 	0.34190 0.97830 0.39680 -0.40100
O 	O 	0.40890 0.08010 0.38920 -0.62900
O 	O 	0.45330 0.94600 0.17770 -0.44400
O 	O 	0.45600 0.16380 0.20400 -0.44200
C 	C 	0.40940 0.21300 0.29200 0.21000
C 	C 	0.40770 0.05620 0.28710 0.28000
C 	C 	0.39690 0.01600 0.23600 -0.48200
H 	H 	0.39020 0.91590 0.23410 0.20600
H 	H 	0.36970 0.06660 0.22370 0.19100
C 	C 	0.36700 0.99640 0.31780 -0.54100
H 	H 	0.36420 0.89620 0.31190 0.22000
H 	H 	0.33800 0.03980 0.30630 0.20100
C 	C 	0.37280 0.01970 0.37130 0.50100
C 	C 	0.43960 0.05100 0.20400 0.43500
O 	O 	0.44660 0.73850 0.81420 -0.38500
O 	O 	0.37750 0.71480 0.77760 -0.21500
O 	O 	0.44910 0.01190 0.80210 -0.46200
O 	O 	0.34190 0.02170 0.89680 -0.39900
O 	O 	0.40890 0.91990 0.88920 -0.62800
O 	O 	0.45330 0.05400 0.67770 -0.44400
O 	O 	0.45600 0.83620 0.70400 -0.44200
C 	C 	0.40940 0.78700 0.79200 0.21100
C 	C 	0.40770 0.94380 0.78710 0.27900
C 	C 	0.39690 0.98400 0.73600 -0.48200
H 	H 	0.39020 0.08410 0.73410 0.20600
H 	H 	0.36970 0.93340 0.72370 0.19100
C 	C 	0.36700 0.00360 0.81780 -0.53700
H 	H 	0.36420 0.10380 0.81190 0.21900
H 	H 	0.33800 0.96020 0.80630 0.20000
C 	C 	0.37280 0.98030 0.87130 0.49900
C 	C 	0.43960 0.94900 0.70400 0.43500
O 	O 	0.55340 0.73850 0.68580 -0.38500
O 	O 	0.62250 0.71480 0.72240 -0.21500
O 	O 	0.55090 0.01190 0.69790 -0.46300
O 	O 	0.65810 0.02170 0.60320 -0.40100
O 	O 	0.59110 0.91990 0.61080 -0.62900
O 	O 	0.54670 0.05400 0.82230 -0.44400
O 	O 	0.54400 0.83620 0.79600 -0.44200
C 	C 	0.59060 0.78700 0.70800 0.21000
C 	C 	0.59230 0.94380 0.71290 0.28000
C 	C 	0.60310 0.98400 0.76400 -0.48200
H 	H 	0.60980 0.08410 0.76590 0.20600
H 	H 	0.63030 0.93340 0.77630 0.19100
C 	C 	0.63300 0.00360 0.68220 -0.54100
H 	H 	0.63580 0.10380 0.68810 0.22000
H 	H 	0.66200 0.96020 0.69370 0.20100
C 	C 	0.62720 0.98030 0.62870 0.50100
C 	C 	0.56040 0.94900 0.79600 0.43500
Bi	Bi	0.48899 0.91234 0.85679 1.89000
Bi	Bi	0.51101 0.91234 0.64321 1.89100
Bi	Bi	0.10010 0.41667 0.52216 1.90200
O 	O 	0.07160 0.49670 0.44830 -0.43500
O 	O 	0.06490 0.70030 0.40740 -0.33000
O 	O 	0.07080 0.62050 0.53320 -0.49000
O 	O 	0.16050 0.58110 0.49220 -0.63000
O 	O 	0.19030 0.76860 0.46050 -0.54800
O 	O 	0.95150 0.79200 0.51990 -0.44000
O 	O 	0.97460 0.65100 0.46360 -0.58800
C 	C 	0.06760 0.63180 0.44610 0.16300
C 	C 	0.07080 0.71380 0.49420 0.36700
C 	C 	0.03010 0.81630 0.49610 -0.59400
H 	H 	0.03350 0.87010 0.52570 0.22000
H 	H 	0.03180 0.88180 0.46940 0.20700
C 	C 	0.11590 0.79610 0.49470 -0.64400
H 	H 	0.12160 0.83540 0.52670 0.23900
H 	H 	0.11210 0.87400 0.47230 0.24400
C 	C 	0.15870 0.71080 0.48150 0.55100
C 	C 	0.98300 0.74990 0.49370 0.48800
Bi	Bi	0.89990 0.58333 0.47784 1.90200
O 	O 	0.92840 0.50330 0.55170 -0.43500
O 	O 	0.93510 0.29970 0.59260 -0.33000
O 	O 	0.92920 0.37950 0.46680 -0.49000
O 	O 	0.83950 0.41890 0.50780 -0.63000
O 	O 	0.80970 0.23140 0.53950 -0.54800
O 	O 	0.04850 0.20800 0.48010 -0.44000
O 	O 	0.02540 0.34900 0.53640 -0.58800
C 	C 	0.93240 0.36820 0.55390 0.16300
C 	C 	0.92920 0.28620 0.50580 0.36700
C 	C 	0.96990 0.18370 0.50390 -0.59400
H 	H 	0.96650 0.12990 0.47430 0.22000
H 	H 	0.96820 0.11820 0.53060 0.20700
C 	C 	0.88410 0.20390 0.50530 -0.64400
H 	H 	0.87840 0.16460 0.47330 0.23900
H 	H 	0.88790 0.12600 0.52770 0.24400
C 	C 	0.84130 0.28920 0.51850 0.55100
C 	C 	0.01700 0.25010 0.50630 0.48800
Bi	Bi	0.24635 0.55053 0.50215 1.90000
O 	O 	0.31280 0.43420 0.49040 -0.43800
O 	O 	0.35400 0.34700 0.43170 -0.31900
O 	O 	0.23370 0.44170 0.43490 -0.45500
O 	O 	0.28920 0.69350 0.43490 -0.52300
O 	O 	0.30140 0.75440 0.35990 -0.28400
O 	O 	0.23140 0.04370 0.40840 -0.39100
O 	O 	0.27830 0.14860 0.46240 -0.52900
C 	C 	0.31760 0.39670 0.44660 0.21400
C 	C 	0.27450 0.40560 0.41150 0.29400
C 	C 	0.26720 0.26280 0.38630 -0.50000
H 	H 	0.24110 0.27030 0.36300 0.20100
H 	H 	0.29460 0.24040 0.36880 0.19200
C 	C 	0.28430 0.51630 0.37310 -0.57700
H 	H 	0.31220 0.48930 0.35700 0.22000
H 	H 	0.25870 0.51660 0.34910 0.21700
C 	C 	0.29070 0.66390 0.39280 0.51100
C 	C 	0.25780 0.14330 0.42120 0.44800
Bi	Bi	0.25365 0.94947 0.49785 1.89900
O 	O 	0.18720 0.06580 0.50960 -0.43800
O 	O 	0.14600 0.15300 0.56830 -0.31800
O 	O 	0.26630 0.05830 0.56510 -0.45500
O 	O 	0.21080 0.80650 0.56510 -0.52500
O 	O 	0.19860 0.74560 0.64010 -0.28700
O 	O 	0.26860 0.45630 0.59160 -0.39000
O 	O 	0.22170 0.35140 0.53760 -0.52900
C 	C 	0.18240 0.10330 0.55340 0.21200
C 	C 	0.22550 0.09440 0.58850 0.30200
C 	C 	0.23280 0.23720 0.61370 -0.50400
H 	H 	0.25890 0.22970 0.63700 0.20300
H 	H 	0.20540 0.25960 0.63120 0.19300
C 	C 	0.21570 0.98370 0.62690 -0.59500
H 	H 	0.18780 0.01070 0.64300 0.22800
H 	H 	0.24130 0.98340 0.65090 0.22000
C 	C 	0.20930 0.83610 0.60720 0.51500
C 	C 	0.24220 0.35670 0.57880 0.45000
Bi	Bi	0.60010 0.91667 0.52216 1.90200
O 	O 	0.57160 0.99670 0.44830 -0.43200
O 	O 	0.56490 0.20030 0.40740 -0.33000
O 	O 	0.57080 0.12050 0.53320 -0.48900
O 	O 	0.66050 0.08110 0.49220 -0.63000
O 	O 	0.69030 0.26860 0.46050 -0.54800
O 	O 	0.45150 0.29200 0.51990 -0.44000
O 	O 	0.47460 0.15100 0.46360 -0.58900
C 	C 	0.56760 0.13180 0.44610 0.15900
C 	C 	0.57080 0.21380 0.49420 0.36800
C 	C 	0.53010 0.31630 0.49610 -0.59400
H 	H 	0.53350 0.37010 0.52570 0.22000
H 	H 	0.53180 0.38180 0.46940 0.20700
C 	C 	0.61590 0.29610 0.49470 -0.64500
H 	H 	0.62160 0.33540 0.52670 0.24000
H 	H 	0.61210 0.37400 0.47230 0.24500
C 	C 	0.65870 0.21080 0.48150 0.55100
C 	C 	0.48300 0.24990 0.49370 0.48800
Bi	Bi	0.39990 0.08333 0.47784 1.90200
O 	O 	0.42840 0.00330 0.55170 -0.43200
O 	O 	0.43510 0.79970 0.59260 -0.33000
O 	O 	0.42920 0.87950 0.46680 -0.48900
O 	O 	0.33950 0.91890 0.50780 -0.63000
O 	O 	0.30970 0.73140 0.53950 -0.54800
O 	O 	0.54850 0.70800 0.48010 -0.44000
O 	O 	0.52540 0.84900 0.53640 -0.58900
C 	C 	0.43240 0.86820 0.55390 0.15900
C 	C 	0.42920 0.78620 0.50580 0.36800
C 	C 	0.46990 0.68370 0.50390 -0.59400
H 	H 	0.46650 0.62990 0.47430 0.22000
H 	H 	0.46820 0.61820 0.53060 0.20700
C 	C 	0.38410 0.70390 0.50530 -0.64500
H 	H 	0.37840 0.66460 0.47330 0.24000
H 	H 	0.38790 0.62600 0.52770 0.24500
C 	C 	0.34130 0.78920 0.51850 0.55100
C 	C 	0.51700 0.75010 0.50630 0.48800
Bi	Bi	0.74635 0.05053 0.50215 1.89900
O 	O 	0.81280 0.93420 0.49040 -0.43800
O 	O 	0.85400 0.84700 0.43170 -0.31800
O 	O 	0.73370 0.94170 0.43490 -0.45500
O 	O 	0.78920 0.19350 0.43490 -0.52500
O 	O 	0.80140 0.25440 0.35990 -0.28700
O 	O 	0.73140 0.54370 0.40840 -0.39000
O 	O 	0.77830 0.64860 0.46240 -0.52900
C 	C 	0.81760 0.89670 0.44660 0.21200
C 	C 	0.77450 0.90560 0.41150 0.30200
C 	C 	0.76720 0.76280 0.38630 -0.50400
H 	H 	0.74110 0.77030 0.36300 0.20300
H 	H 	0.79460 0.74040 0.36880 0.19300
C 	C 	0.78430 0.01630 0.37310 -0.59500
H 	H 	0.81220 0.98930 0.35700 0.22800
H 	H 	0.75870 0.01660 0.34910 0.22000
C 	C 	0.79070 0.16390 0.39280 0.51500
C 	C 	0.75780 0.64330 0.42120 0.45000
Bi	Bi	0.75365 0.44947 0.49785 1.90000
O 	O 	0.68720 0.56580 0.50960 -0.43800
O 	O 	0.64600 0.65300 0.56830 -0.31900
O 	O 	0.76630 0.55830 0.56510 -0.45500
O 	O 	0.71080 0.30650 0.56510 -0.52300
O 	O 	0.69860 0.24560 0.64010 -0.28400
O 	O 	0.76860 0.95630 0.59160 -0.39100
O 	O 	0.72170 0.85140 0.53760 -0.52900
C 	C 	0.68240 0.60330 0.55340 0.21400
C 	C 	0.72550 0.59440 0.58850 0.29400
C 	C 	0.73280 0.73720 0.61370 -0.50000
H 	H 	0.75890 0.72970 0.63700 0.20100
H 	H 	0.70540 0.75960 0.63120 0.19200
C 	C 	0.71570 0.48370 0.62690 -0.57700
H 	H 	0.68780 0.51070 0.64300 0.22000
H 	H 	0.74130 0.48340 0.65090 0.21700
C 	C 	0.70930 0.33610 0.60720 0.51100
C 	C 	0.74220 0.85670 0.57880 0.44800
