data_crystal

_cell_length_a 16.11220
_cell_length_b 19.13010
_cell_length_c 19.94910
_cell_angle_alpha 113.35900
_cell_angle_beta  103.86200
_cell_angle_gamma 91.93400

_symmetry_space_group_name_	'P 1'
_symmetry_space_group_name_H-M	'P 1'

loop_
_symmetry_equiv_pos_as_xyz
  x,y,z

loop_
_atom_site_label
_atom_site_type_symbol
_atom_site_fract_x
_atom_site_fract_y
_atom_site_fract_z
_atom_site_charge
Ca	Ca	0.20997 0.60033 0.39147 1.50400
Ca	Ca	0.37747 0.74498 0.40971 1.51700
Ca	Ca	0.59378 0.68468 0.34271 1.47500
O 	O 	0.32289 0.98642 0.81066 -0.32100
O 	O 	0.40207 0.98117 0.13173 -0.32800
O 	O 	0.39671 0.27132 0.14589 -0.34500
O 	O 	0.16610 0.69625 0.49583 -0.43500
O 	O 	0.29496 0.72559 0.48648 -0.57500
O 	O 	0.53120 0.76540 0.29390 -0.56500
O 	O 	0.41750 0.79970 0.33660 -0.50600
O 	O 	0.34976 0.59989 0.37150 -0.59500
O 	O 	0.45464 0.63512 0.33403 -0.63600
O 	O 	0.79568 0.87832 0.81849 -0.32100
O 	O 	0.01411 0.82890 0.10509 -0.32300
O 	O 	0.93319 0.15114 0.15425 -0.32300
O 	O 	0.49970 0.77676 0.50946 -0.54100
O 	O 	0.61640 0.76030 0.46798 -0.57300
O 	O 	0.11610 0.64320 0.30950 -0.47100
O 	O 	0.24230 0.69770 0.32150 -0.53300
O 	O 	0.16960 0.47382 0.29930 -0.45400
O 	O 	0.07880 0.50640 0.36570 -0.42000
C 	C 	0.32830 0.04790 0.93914 -0.36800
C 	C 	0.35780 0.00240 0.97720 0.46500
C 	C 	0.42100 0.03680 0.04820 -0.37300
C 	C 	0.44780 0.11560 0.08301 0.45000
C 	C 	0.41440 0.16130 0.04475 -0.37100
C 	C 	0.35710 0.12760 0.97181 0.42900
C 	C 	0.32490 0.91850 0.94390 -1.00400
H 	H 	0.27280 0.91120 0.95700 0.32800
H 	H 	0.36760 0.89260 0.96350 0.32700
H 	H 	0.31310 0.89780 0.88960 0.32600
C 	C 	0.51170 0.15470 0.16070 -0.97500
H 	H 	0.52970 0.11680 0.17920 0.32700
H 	H 	0.48490 0.19090 0.19500 0.32700
H 	H 	0.56110 0.18120 0.15720 0.30700
C 	C 	0.32670 0.17510 0.92840 -0.92700
H 	H 	0.28410 0.20420 0.94830 0.28700
H 	H 	0.30180 0.14170 0.87570 0.30400
H 	H 	0.37480 0.20960 0.93350 0.29200
C 	C 	0.26810 0.00910 0.86130 0.23300
H 	H 	0.23260 0.96440 0.85630 -0.04500
H 	H 	0.23070 0.04400 0.85020 -0.04800
C 	C 	0.29490 0.92530 0.74110 0.33400
C 	C 	0.35560 0.91130 0.69940 -0.36200
H 	H 	0.40850 0.94300 0.71870 0.14900
C 	C 	0.33560 0.84980 0.62930 0.22800
H 	H 	0.37640 0.83950 0.60190 -0.07600
C 	C 	0.25860 0.80410 0.59930 -0.28400
C 	C 	0.19890 0.81940 0.64060 0.22200
H 	H 	0.14540 0.78840 0.62010 -0.04000
C 	C 	0.21670 0.87960 0.71200 -0.36300
H 	H 	0.17600 0.88870 0.73950 0.15200
C 	C 	0.23870 0.73820 0.52250 0.40900
C 	C 	0.45750 0.98730 0.08730 0.24600
H 	H 	0.46030 0.93670 0.05000 -0.05900
H 	H 	0.51540 0.01030 0.11970 -0.04400
C 	C 	0.42290 0.93630 0.17090 0.36700
C 	C 	0.36840 0.93450 0.21500 -0.39200
H 	H 	0.32300 0.96330 0.21800 0.18000
C 	C 	0.38370 0.88870 0.25400 0.27900
H 	H 	0.34680 0.88620 0.28270 -0.06200
C 	C 	0.44950 0.84750 0.25250 -0.34400
C 	C 	0.50440 0.85130 0.20930 0.26500
H 	H 	0.55090 0.82380 0.20800 -0.07900
C 	C 	0.49070 0.89530 0.16870 -0.41000
H 	H 	0.52740 0.89720 0.13970 0.17200
C 	C 	0.46740 0.80120 0.29870 0.50900
C 	C 	0.43940 0.24660 0.08610 0.26000
H 	H 	0.50160 0.25970 0.10730 -0.06600
H 	H 	0.42090 0.27120 0.05190 -0.06700
C 	C 	0.40500 0.34790 0.19120 0.39700
C 	C 	0.36020 0.36700 0.24550 -0.42400
H 	H 	0.32950 0.32840 0.25100 0.17900
C 	C 	0.36110 0.44300 0.29150 0.32000
H 	H 	0.32990 0.45520 0.32730 -0.09400
C 	C 	0.40690 0.50140 0.28570 -0.40400
C 	C 	0.45280 0.48040 0.23210 0.32900
H 	H 	0.48540 0.51880 0.22780 -0.15300
C 	C 	0.45180 0.40530 0.18500 -0.45300
H 	H 	0.48260 0.39310 0.14900 0.16700
C 	C 	0.40400 0.58360 0.33250 0.51700
C 	C 	0.82720 0.91780 0.95331 -0.38000
C 	C 	0.85020 0.86570 0.98440 0.47900
C 	C 	0.90550 0.89240 0.05850 -0.40900
C 	C 	0.94130 0.96910 0.09790 0.47600
C 	C 	0.92430 0.01960 0.06250 -0.38300
C 	C 	0.86630 0.99510 0.99180 0.45800
C 	C 	0.81690 0.78160 0.93970 -1.02600
H 	H 	0.86240 0.75220 0.94780 0.33600
H 	H 	0.79740 0.77040 0.88670 0.34700
H 	H 	0.76970 0.76820 0.95610 0.33200
C 	C 	0.99680 0.99940 0.17910 -1.02700
H 	H 	0.97890 0.96950 0.20340 0.34700
H 	H 	0.99050 0.05220 0.20580 0.34700
H 	H 	0.05620 0.99570 0.17960 0.34400
C 	C 	0.84540 0.05070 0.95500 -0.98400
H 	H 	0.84230 0.10010 0.99300 0.31700
H 	H 	0.79080 0.03150 0.91700 0.33100
H 	H 	0.88980 0.05580 0.93190 0.32800
C 	C 	0.75700 0.89310 0.87957 0.22800
H 	H 	0.72080 0.84690 0.87050 -0.03500
H 	H 	0.72100 0.93330 0.88250 -0.03400
C 	C 	0.73930 0.85560 0.74762 0.37000
C 	C 	0.77610 0.84180 0.68890 -0.37300
H 	H 	0.83590 0.84860 0.69870 0.16800
C 	C 	0.72460 0.81790 0.61590 0.27300
H 	H 	0.75030 0.80860 0.57660 -0.06400
C 	C 	0.63570 0.80740 0.59950 -0.32900
C 	C 	0.60060 0.82390 0.65880 0.26600
H 	H 	0.54080 0.81950 0.64950 -0.06400
C 	C 	0.65170 0.84730 0.73270 -0.39000
H 	H 	0.62610 0.85720 0.77210 0.16600
C 	C 	0.57840 0.77980 0.51950 0.50700
C 	C 	0.92500 0.83810 0.09550 0.27800
H 	H 	0.91280 0.85850 0.14450 -0.06700
H 	H 	0.88900 0.78870 0.06410 -0.07100
C 	C 	0.04740 0.79270 0.15070 0.33100
C 	C 	0.13540 0.80080 0.17630 -0.32300
H 	H 	0.17050 0.82980 0.16300 0.15300
C 	C 	0.17150 0.76480 0.22270 0.21000
H 	H 	0.23140 0.77020 0.23980 -0.03800
C 	C 	0.12260 0.72180 0.24410 -0.28500
C 	C 	0.03650 0.71490 0.21720 0.23400
H 	H 	0.00190 0.68610 0.23110 -0.04600
C 	C 	0.99640 0.74770 0.17060 -0.34000
H 	H 	0.93650 0.74010 0.15250 0.13900
C 	C 	0.16210 0.68370 0.29550 0.47100
C 	C 	0.97480 0.09990 0.10130 0.21900
H 	H 	0.03310 0.09850 0.12810 -0.02700
H 	H 	0.97850 0.11890 0.06350 -0.03500
C 	C 	0.97650 0.22490 0.19360 0.35200
C 	C 	0.05060 0.24910 0.18230 -0.36500
H 	H 	0.07460 0.21470 0.14680 0.15900
C 	C 	0.09030 0.32480 0.22350 0.23000
H 	H 	0.14120 0.34010 0.21550 -0.04500
C 	C 	0.05740 0.37590 0.27400 -0.26200
C 	C 	0.98660 0.35060 0.28920 0.21900
H 	H 	0.96510 0.38480 0.32700 -0.04200
C 	C 	0.94610 0.27520 0.24950 -0.35500
H 	H 	0.89840 0.25900 0.26100 0.15200
C 	C 	0.10530 0.45850 0.31730 0.39900
C 	C 	0.44720 0.97330 0.56590 0.07100
H 	H 	0.47040 0.93280 0.57790 0.12700
H 	H 	0.43270 0.01010 0.60920 -0.33100
H 	H 	0.48950 0.99830 0.55280 0.36900
C 	C 	0.36760 0.94020 0.50000 2.84800
O 	O 	0.34420 0.87010 0.47200 0.15800
N 	N 	0.32020 0.98380 0.47000 0.58200
C 	C 	0.24570 0.95150 0.40480 -0.14200
H 	H 	0.23680 0.89660 0.38690 -0.36300
H 	H 	0.25490 0.96480 0.36520 -1.69300
H 	H 	0.19560 0.97180 0.41880 -0.60300
C 	C 	0.33820 0.06630 0.49910 0.17400
H 	H 	0.38770 0.08510 0.54270 0.04500
H 	H 	0.28920 0.08860 0.51340 0.03700
H 	H 	0.34980 0.08020 0.46060 0.02500
C 	C 	0.25840 0.93210 0.40720 -0.79400
H 	H 	0.23300 0.88030 0.37240 0.76100
H 	H 	0.27690 0.95850 0.38000 2.06300
H 	H 	0.21640 0.95840 0.43090 0.99100
C 	C 	0.32840 0.93080 0.46200 -2.23500
O 	O 	0.34400 0.86850 0.45730 -0.61800
N 	N 	0.37770 0.99380 0.51760 -1.08000
C 	C 	0.45110 0.99610 0.57760 -0.70100
H 	H 	0.45720 0.94480 0.57280 -0.13400
H 	H 	0.44190 0.02620 0.62610 0.60300
H 	H 	0.50260 0.01900 0.57360 -0.14100
C 	C 	0.36950 0.07320 0.53090 0.02100
H 	H 	0.32380 0.07470 0.49070 -0.19100
H 	H 	0.42280 0.09840 0.53220 -0.03000
H 	H 	0.35660 0.09920 0.57860 -0.01900
Ca	Ca	0.79003 0.39967 0.60853 1.50500
Ca	Ca	0.62253 0.25502 0.59029 1.51800
Ca	Ca	0.40622 0.31532 0.65729 1.47600
O 	O 	0.67711 0.01358 0.18934 -0.32000
O 	O 	0.59793 0.01883 0.86827 -0.32700
O 	O 	0.60329 0.72868 0.85411 -0.34400
O 	O 	0.83390 0.30375 0.50417 -0.43400
O 	O 	0.70504 0.27441 0.51352 -0.57400
O 	O 	0.46880 0.23460 0.70610 -0.56400
O 	O 	0.58250 0.20030 0.66340 -0.50500
O 	O 	0.65024 0.40011 0.62850 -0.59400
O 	O 	0.54536 0.36488 0.66597 -0.63500
O 	O 	0.20432 0.12168 0.18151 -0.32100
O 	O 	0.98589 0.17110 0.89491 -0.32300
O 	O 	0.06681 0.84886 0.84575 -0.32300
O 	O 	0.50030 0.22324 0.49054 -0.54100
O 	O 	0.38360 0.23970 0.53202 -0.57300
O 	O 	0.88390 0.35680 0.69050 -0.47100
O 	O 	0.75770 0.30230 0.67850 -0.53300
O 	O 	0.83040 0.52618 0.70070 -0.45400
O 	O 	0.92120 0.49360 0.63430 -0.42000
C 	C 	0.67170 0.95210 0.06086 -0.36800
C 	C 	0.64220 0.99760 0.02280 0.46500
C 	C 	0.57900 0.96320 0.95180 -0.37300
C 	C 	0.55220 0.88440 0.91699 0.45000
C 	C 	0.58560 0.83870 0.95525 -0.37100
C 	C 	0.64290 0.87240 0.02819 0.42900
C 	C 	0.67510 0.08150 0.05610 -1.00400
H 	H 	0.72720 0.08880 0.04300 0.32800
H 	H 	0.63240 0.10740 0.03650 0.32700
H 	H 	0.68690 0.10220 0.11040 0.32600
C 	C 	0.48830 0.84530 0.83930 -0.97500
H 	H 	0.47030 0.88320 0.82080 0.32700
H 	H 	0.51510 0.80910 0.80500 0.32700
H 	H 	0.43890 0.81880 0.84280 0.30700
C 	C 	0.67330 0.82490 0.07160 -0.92700
H 	H 	0.71590 0.79580 0.05170 0.28700
H 	H 	0.69820 0.85830 0.12430 0.30400
H 	H 	0.62520 0.79040 0.06650 0.29200
C 	C 	0.73190 0.99090 0.13870 0.23300
H 	H 	0.76740 0.03560 0.14370 -0.04500
H 	H 	0.76930 0.95600 0.14980 -0.04800
C 	C 	0.70510 0.07470 0.25890 0.33400
C 	C 	0.64440 0.08870 0.30060 -0.36200
H 	H 	0.59150 0.05700 0.28130 0.14900
C 	C 	0.66440 0.15020 0.37070 0.22800
H 	H 	0.62360 0.16050 0.39810 -0.07600
C 	C 	0.74140 0.19590 0.40070 -0.28400
C 	C 	0.80110 0.18060 0.35940 0.22200
H 	H 	0.85460 0.21160 0.37990 -0.04000
C 	C 	0.78330 0.12040 0.28800 -0.36300
H 	H 	0.82400 0.11130 0.26050 0.15200
C 	C 	0.76130 0.26180 0.47750 0.40900
C 	C 	0.54250 0.01270 0.91270 0.24600
H 	H 	0.53970 0.06330 0.95000 -0.05900
H 	H 	0.48460 0.98970 0.88030 -0.04400
C 	C 	0.57710 0.06370 0.82910 0.36700
C 	C 	0.63160 0.06550 0.78500 -0.39200
H 	H 	0.67700 0.03670 0.78200 0.18000
C 	C 	0.61630 0.11130 0.74600 0.27900
H 	H 	0.65320 0.11380 0.71730 -0.06200
C 	C 	0.55050 0.15250 0.74750 -0.34400
C 	C 	0.49560 0.14870 0.79070 0.26500
H 	H 	0.44910 0.17620 0.79200 -0.07900
C 	C 	0.50930 0.10470 0.83130 -0.41000
H 	H 	0.47260 0.10280 0.86030 0.17200
C 	C 	0.53260 0.19880 0.70130 0.50900
C 	C 	0.56060 0.75340 0.91390 0.26000
H 	H 	0.49840 0.74030 0.89270 -0.06600
H 	H 	0.57910 0.72880 0.94810 -0.06700
C 	C 	0.59500 0.65210 0.80880 0.39700
C 	C 	0.63980 0.63300 0.75450 -0.42400
H 	H 	0.67050 0.67160 0.74900 0.17900
C 	C 	0.63890 0.55700 0.70850 0.32000
H 	H 	0.67010 0.54480 0.67270 -0.09400
C 	C 	0.59310 0.49860 0.71430 -0.40400
C 	C 	0.54720 0.51960 0.76790 0.32900
H 	H 	0.51460 0.48120 0.77220 -0.15300
C 	C 	0.54820 0.59470 0.81500 -0.45300
H 	H 	0.51740 0.60690 0.85100 0.16700
C 	C 	0.59600 0.41640 0.66750 0.51700
C 	C 	0.17280 0.08220 0.04669 -0.38000
C 	C 	0.14980 0.13430 0.01560 0.47900
C 	C 	0.09450 0.10760 0.94150 -0.40900
C 	C 	0.05870 0.03090 0.90210 0.47600
C 	C 	0.07570 0.98040 0.93750 -0.38300
C 	C 	0.13370 0.00490 0.00820 0.45800
C 	C 	0.18310 0.21840 0.06030 -1.02600
H 	H 	0.13760 0.24780 0.05220 0.33600
H 	H 	0.20260 0.22960 0.11330 0.34700
H 	H 	0.23030 0.23180 0.04390 0.33200
C 	C 	0.00320 0.00060 0.82090 -1.02700
H 	H 	0.02110 0.03050 0.79660 0.34700
H 	H 	0.00950 0.94780 0.79420 0.34700
H 	H 	0.94380 0.00430 0.82040 0.34400
C 	C 	0.15460 0.94930 0.04500 -0.98400
H 	H 	0.15770 0.89990 0.00700 0.31700
H 	H 	0.20920 0.96850 0.08300 0.33100
H 	H 	0.11020 0.94420 0.06810 0.32800
C 	C 	0.24300 0.10690 0.12043 0.22800
H 	H 	0.27920 0.15310 0.12950 -0.03500
H 	H 	0.27900 0.06670 0.11750 -0.03400
C 	C 	0.26070 0.14440 0.25238 0.37000
C 	C 	0.22390 0.15820 0.31110 -0.37300
H 	H 	0.16410 0.15140 0.30130 0.16800
C 	C 	0.27540 0.18210 0.38410 0.27300
H 	H 	0.24970 0.19140 0.42340 -0.06400
C 	C 	0.36430 0.19260 0.40050 -0.32900
C 	C 	0.39940 0.17610 0.34120 0.26600
H 	H 	0.45920 0.18050 0.35050 -0.06400
C 	C 	0.34830 0.15270 0.26730 -0.39000
H 	H 	0.37390 0.14280 0.22790 0.16600
C 	C 	0.42160 0.22020 0.48050 0.50700
C 	C 	0.07500 0.16190 0.90450 0.27800
H 	H 	0.08720 0.14150 0.85550 -0.06700
H 	H 	0.11100 0.21130 0.93590 -0.07100
C 	C 	0.95260 0.20730 0.84930 0.33100
C 	C 	0.86460 0.19920 0.82370 -0.32300
H 	H 	0.82950 0.17020 0.83700 0.15300
C 	C 	0.82850 0.23520 0.77730 0.21000
H 	H 	0.76860 0.22980 0.76020 -0.03800
C 	C 	0.87740 0.27820 0.75590 -0.28500
C 	C 	0.96350 0.28510 0.78280 0.23400
H 	H 	0.99810 0.31390 0.76890 -0.04600
C 	C 	0.00360 0.25230 0.82940 -0.34000
H 	H 	0.06350 0.25990 0.84750 0.13900
C 	C 	0.83790 0.31630 0.70450 0.47100
C 	C 	0.02520 0.90010 0.89870 0.21900
H 	H 	0.96690 0.90150 0.87190 -0.02700
H 	H 	0.02150 0.88110 0.93650 -0.03500
C 	C 	0.02350 0.77510 0.80640 0.35200
C 	C 	0.94940 0.75090 0.81770 -0.36500
H 	H 	0.92540 0.78530 0.85320 0.15900
C 	C 	0.90970 0.67520 0.77650 0.23000
H 	H 	0.85880 0.65990 0.78450 -0.04500
C 	C 	0.94260 0.62410 0.72600 -0.26200
C 	C 	0.01340 0.64940 0.71080 0.21900
H 	H 	0.03490 0.61520 0.67300 -0.04200
C 	C 	0.05390 0.72480 0.75050 -0.35500
H 	H 	0.10160 0.74100 0.73900 0.15200
C 	C 	0.89470 0.54150 0.68270 0.39900
C 	C 	0.55280 0.02670 0.43410 0.07100
H 	H 	0.52960 0.06720 0.42210 0.12700
H 	H 	0.56730 0.98990 0.39080 -0.33100
H 	H 	0.51050 0.00170 0.44720 0.36900
C 	C 	0.63240 0.05980 0.50000 2.84800
O 	O 	0.65580 0.12990 0.52800 0.15800
N 	N 	0.67980 0.01620 0.53000 0.58200
C 	C 	0.75430 0.04850 0.59520 -0.14200
H 	H 	0.76320 0.10340 0.61310 -0.36300
H 	H 	0.74510 0.03520 0.63480 -1.69300
H 	H 	0.80440 0.02820 0.58120 -0.60300
C 	C 	0.66180 0.93370 0.50090 0.17400
H 	H 	0.61230 0.91490 0.45730 0.04500
H 	H 	0.71080 0.91140 0.48660 0.03700
H 	H 	0.65020 0.91980 0.53940 0.02500
C 	C 	0.74160 0.06790 0.59280 -0.79400
H 	H 	0.76700 0.11970 0.62760 0.76100
H 	H 	0.72310 0.04150 0.62000 2.06300
H 	H 	0.78360 0.04160 0.56910 0.99100
C 	C 	0.67160 0.06920 0.53800 -2.23500
O 	O 	0.65600 0.13150 0.54270 -0.61800
N 	N 	0.62230 0.00620 0.48240 -1.08000
C 	C 	0.54890 0.00390 0.42240 -0.70100
H 	H 	0.54280 0.05520 0.42720 -0.13400
H 	H 	0.55810 0.97380 0.37390 0.60300
H 	H 	0.49740 0.98100 0.42640 -0.14100
C 	C 	0.63050 0.92680 0.46910 0.02100
H 	H 	0.67620 0.92530 0.50930 -0.19100
H 	H 	0.57720 0.90160 0.46780 -0.03000
H 	H 	0.64340 0.90080 0.42140 -0.01900
