data_crystal

_cell_length_a 12.17500
_cell_length_b 12.17500
_cell_length_c 24.92400
_cell_angle_alpha 90.00000
_cell_angle_beta  90.00000
_cell_angle_gamma 90.00000

_symmetry_space_group_name_	'P 1'
_symmetry_space_group_name_H-M	'P 1'

loop_
_symmetry_equiv_pos_as_xyz
  x,y,z

loop_
_atom_site_label
_atom_site_type_symbol
_atom_site_fract_x
_atom_site_fract_y
_atom_site_fract_z
_atom_site_charge
Mn	Mn	0.75000 0.75000 0.92384 1.23300
Mn	Mn	0.25000 0.25000 0.42384 1.23300
H 	H 	0.92290 0.91910 0.87230 -0.05300
H 	H 	0.05750 0.93870 0.80900 0.14800
H 	H 	0.99380 0.63140 0.76140 0.14200
H 	H 	0.86130 0.62490 0.82640 -0.05100
H 	H 	0.17430 0.64750 0.72920 0.04300
H 	H 	0.09200 0.69290 0.68580 0.03100
H 	H 	0.32580 0.59960 0.66140 0.04300
H 	H 	0.34430 0.68190 0.61360 0.04400
H 	H 	0.05550 0.50060 0.56430 0.15500
H 	H 	0.37880 0.53540 0.56880 0.15100
H 	H 	0.07700 0.38110 0.49490 -0.04600
H 	H 	0.38890 0.39930 0.50370 -0.03400
H 	H 	0.75920 0.51800 0.88840 0.14900
H 	H 	0.57710 0.58090 0.87230 -0.05200
H 	H 	0.44250 0.56130 0.80900 0.14900
H 	H 	0.50620 0.86860 0.76140 0.14400
H 	H 	0.63870 0.87510 0.82640 -0.05000
H 	H 	0.32570 0.85250 0.72920 0.04400
H 	H 	0.40800 0.80710 0.68580 0.03200
H 	H 	0.17420 0.90040 0.66140 0.04300
H 	H 	0.15570 0.81810 0.61360 0.04400
H 	H 	0.44450 0.99940 0.56430 0.15500
H 	H 	0.12120 0.96460 0.56880 0.15100
H 	H 	0.42300 0.11890 0.49490 -0.04600
H 	H 	0.11110 0.10070 0.50370 -0.03500
H 	H 	0.74080 0.98200 0.88840 0.14900
H 	H 	0.08090 0.42290 0.37230 -0.05200
H 	H 	0.06130 0.55750 0.30900 0.14900
H 	H 	0.36860 0.49380 0.26140 0.14400
H 	H 	0.37510 0.36130 0.32640 -0.05000
H 	H 	0.35250 0.67430 0.22920 0.04400
H 	H 	0.30710 0.59200 0.18580 0.03200
H 	H 	0.40040 0.82580 0.16140 0.04300
H 	H 	0.31810 0.84430 0.11360 0.04400
H 	H 	0.49940 0.55550 0.06430 0.15500
H 	H 	0.46460 0.87880 0.06880 0.15000
H 	H 	0.61890 0.57700 0.99490 -0.04500
H 	H 	0.60070 0.88890 0.00370 -0.03400
H 	H 	0.48200 0.25920 0.38840 0.14900
H 	H 	0.41910 0.07710 0.37230 -0.05200
H 	H 	0.43870 0.94250 0.30900 0.14900
H 	H 	0.13140 0.00620 0.26140 0.14400
H 	H 	0.12490 0.13870 0.32640 -0.05000
H 	H 	0.14750 0.82570 0.22920 0.04300
H 	H 	0.19290 0.90800 0.18580 0.03100
H 	H 	0.09960 0.67420 0.16140 0.04300
H 	H 	0.18190 0.65570 0.11360 0.04400
H 	H 	0.00060 0.94450 0.06430 0.15200
H 	H 	0.03540 0.62120 0.06880 0.15000
H 	H 	0.88110 0.92300 0.99490 -0.04300
H 	H 	0.89930 0.61110 0.00370 -0.03400
H 	H 	0.01800 0.24080 0.38840 0.14900
C 	C 	0.93770 0.86000 0.84980 0.17600
C 	C 	0.01920 0.87290 0.81196 -0.31300
C 	C 	0.04240 0.78620 0.77890 0.31600
C 	C 	0.98170 0.69140 0.78378 -0.31000
C 	C 	0.90240 0.68900 0.82306 0.17300
C 	C 	0.15390 0.71180 0.70846 0.02500
C 	C 	0.29090 0.65520 0.63938 0.01600
C 	C 	0.21460 0.53660 0.57251 0.33900
C 	C 	0.12540 0.48570 0.55118 -0.32500
C 	C 	0.31510 0.50480 0.55467 -0.31300
C 	C 	0.13980 0.41190 0.50991 0.19000
C 	C 	0.32000 0.42430 0.51426 0.16500
C 	C 	0.56230 0.64000 0.84980 0.17500
C 	C 	0.48080 0.62710 0.81196 -0.31100
C 	C 	0.45760 0.71380 0.77890 0.31700
C 	C 	0.51830 0.80860 0.78378 -0.31000
C 	C 	0.59760 0.81100 0.82306 0.17400
C 	C 	0.34610 0.78820 0.70846 0.02500
C 	C 	0.20910 0.84480 0.63938 0.01600
C 	C 	0.28540 0.96340 0.57251 0.33900
C 	C 	0.37460 0.01430 0.55118 -0.32400
C 	C 	0.18490 0.99520 0.55467 -0.31400
C 	C 	0.36020 0.08810 0.50991 0.19000
C 	C 	0.18000 0.07570 0.51426 0.16600
C 	C 	0.14000 0.43770 0.34980 0.17500
C 	C 	0.12710 0.51920 0.31196 -0.31100
C 	C 	0.21380 0.54240 0.27890 0.31700
C 	C 	0.30860 0.48170 0.28378 -0.31000
C 	C 	0.31100 0.40240 0.32306 0.17400
C 	C 	0.28820 0.65390 0.20846 0.02500
C 	C 	0.34480 0.79090 0.13938 0.01600
C 	C 	0.46340 0.71460 0.07251 0.33900
C 	C 	0.51430 0.62540 0.05118 -0.32500
C 	C 	0.49520 0.81510 0.05467 -0.31200
C 	C 	0.58810 0.63980 0.00991 0.19000
C 	C 	0.57570 0.82000 0.01426 0.16400
C 	C 	0.36000 0.06230 0.34980 0.17500
C 	C 	0.37290 0.98080 0.31196 -0.31100
C 	C 	0.28620 0.95760 0.27890 0.31600
C 	C 	0.19140 0.01830 0.28378 -0.30900
C 	C 	0.18900 0.09760 0.32306 0.17300
C 	C 	0.21180 0.84610 0.20846 0.02500
C 	C 	0.15520 0.70910 0.13938 0.01500
C 	C 	0.03660 0.78540 0.07251 0.33500
C 	C 	0.98570 0.87460 0.05118 -0.31900
C 	C 	0.00480 0.68490 0.05467 -0.31100
C 	C 	0.91190 0.86020 0.00991 0.18600
C 	C 	0.92430 0.68000 0.01426 0.16400
C 	C 	0.25000 0.75000 0.67449 0.00900
C 	C 	0.25000 0.75000 0.17449 0.00900
S 	S 	0.77679 0.54627 0.92334 -0.38900
S 	S 	0.72321 0.95373 0.92334 -0.38800
S 	S 	0.45373 0.27679 0.42334 -0.38900
S 	S 	0.04627 0.22321 0.42334 -0.38800
N 	N 	0.87970 0.77050 0.85643 -0.28700
N 	N 	0.23290 0.38190 0.49036 -0.28600
N 	N 	0.62030 0.72950 0.85643 -0.28600
N 	N 	0.26710 0.11810 0.49036 -0.28600
N 	N 	0.22950 0.37970 0.35643 -0.28700
N 	N 	0.61810 0.73290 0.99036 -0.28500
N 	N 	0.27050 0.12030 0.35643 -0.28600
N 	N 	0.88190 0.76710 0.99036 -0.28400
O 	O 	0.12540 0.80070 0.74354 -0.26100
O 	O 	0.19774 0.60933 0.61200 -0.26800
O 	O 	0.37460 0.69930 0.74354 -0.26100
O 	O 	0.30226 0.89067 0.61200 -0.26800
O 	O 	0.19930 0.62540 0.24354 -0.26100
O 	O 	0.39067 0.69774 0.11200 -0.26800
O 	O 	0.30070 0.87460 0.24354 -0.26100
O 	O 	0.10933 0.80226 0.11200 -0.26700
Mn	Mn	0.25000 0.25000 0.07616 1.23400
Mn	Mn	0.75000 0.75000 0.57616 1.23400
H 	H 	0.07710 0.08090 0.12770 -0.05200
H 	H 	0.94250 0.06130 0.19100 0.14900
H 	H 	0.00620 0.36860 0.23860 0.14300
H 	H 	0.13870 0.37510 0.17360 -0.05000
H 	H 	0.82570 0.35250 0.27080 0.04400
H 	H 	0.90800 0.30710 0.31420 0.03200
H 	H 	0.67420 0.40040 0.33860 0.04300
H 	H 	0.65570 0.31810 0.38640 0.04400
H 	H 	0.94450 0.49940 0.43570 0.15500
H 	H 	0.62120 0.46460 0.43120 0.15100
H 	H 	0.92300 0.61890 0.50510 -0.04600
H 	H 	0.61110 0.60070 0.49630 -0.03400
H 	H 	0.24080 0.48200 0.11160 0.14900
H 	H 	0.42290 0.41910 0.12770 -0.05200
H 	H 	0.55750 0.43870 0.19100 0.14900
H 	H 	0.49380 0.13140 0.23860 0.14400
H 	H 	0.36130 0.12490 0.17360 -0.05000
H 	H 	0.67430 0.14750 0.27080 0.04400
H 	H 	0.59200 0.19290 0.31420 0.03200
H 	H 	0.82580 0.09960 0.33860 0.04300
H 	H 	0.84430 0.18190 0.38640 0.04400
H 	H 	0.55550 0.00060 0.43570 0.15500
H 	H 	0.87880 0.03540 0.43120 0.15100
H 	H 	0.57700 0.88110 0.50510 -0.04600
H 	H 	0.88890 0.89930 0.49630 -0.03500
H 	H 	0.25920 0.01800 0.11160 0.14900
H 	H 	0.91910 0.57710 0.62770 -0.05200
H 	H 	0.93870 0.44250 0.69100 0.14900
H 	H 	0.63140 0.50620 0.73860 0.14400
H 	H 	0.62490 0.63870 0.67360 -0.05000
H 	H 	0.64750 0.32570 0.77080 0.04400
H 	H 	0.69290 0.40800 0.81420 0.03200
H 	H 	0.59960 0.17420 0.83860 0.04300
H 	H 	0.68190 0.15570 0.88640 0.04400
H 	H 	0.50060 0.44450 0.93570 0.15500
H 	H 	0.53540 0.12120 0.93120 0.15000
H 	H 	0.38110 0.42300 0.00510 -0.04500
H 	H 	0.39930 0.11110 0.99630 -0.03400
H 	H 	0.51800 0.74080 0.61160 0.14900
H 	H 	0.58090 0.92290 0.62770 -0.05200
H 	H 	0.56130 0.05750 0.69100 0.14900
H 	H 	0.86860 0.99380 0.73860 0.14400
H 	H 	0.87510 0.86130 0.67360 -0.05000
H 	H 	0.85250 0.17430 0.77080 0.04300
H 	H 	0.80710 0.09200 0.81420 0.03100
H 	H 	0.90040 0.32580 0.83860 0.04300
H 	H 	0.81810 0.34430 0.88640 0.04400
H 	H 	0.99940 0.05550 0.93570 0.15200
H 	H 	0.96460 0.37880 0.93120 0.15000
H 	H 	0.11890 0.07700 0.00510 -0.04300
H 	H 	0.10070 0.38890 0.99630 -0.03400
H 	H 	0.98200 0.75920 0.61160 0.14900
C 	C 	0.06230 0.14000 0.15020 0.17600
C 	C 	0.98080 0.12710 0.18804 -0.31300
C 	C 	0.95760 0.21380 0.22110 0.31600
C 	C 	0.01830 0.30860 0.21622 -0.31000
C 	C 	0.09760 0.31100 0.17694 0.17300
C 	C 	0.84610 0.28820 0.29154 0.02500
C 	C 	0.70910 0.34480 0.36062 0.01600
C 	C 	0.78540 0.46340 0.42749 0.33900
C 	C 	0.87460 0.51430 0.44882 -0.32500
C 	C 	0.68490 0.49520 0.44533 -0.31300
C 	C 	0.86020 0.58810 0.49009 0.19000
C 	C 	0.68000 0.57570 0.48574 0.16500
C 	C 	0.43770 0.36000 0.15020 0.17500
C 	C 	0.51920 0.37290 0.18804 -0.31100
C 	C 	0.54240 0.28620 0.22110 0.31700
C 	C 	0.48170 0.19140 0.21622 -0.31000
C 	C 	0.40240 0.18900 0.17694 0.17400
C 	C 	0.65390 0.21180 0.29154 0.02500
C 	C 	0.79090 0.15520 0.36062 0.01600
C 	C 	0.71460 0.03660 0.42749 0.33900
C 	C 	0.62540 0.98570 0.44882 -0.32400
C 	C 	0.81510 0.00480 0.44533 -0.31400
C 	C 	0.63980 0.91190 0.49009 0.19000
C 	C 	0.82000 0.92430 0.48574 0.16600
C 	C 	0.86000 0.56230 0.65020 0.17500
C 	C 	0.87290 0.48080 0.68804 -0.31100
C 	C 	0.78620 0.45760 0.72110 0.31700
C 	C 	0.69140 0.51830 0.71622 -0.31000
C 	C 	0.68900 0.59760 0.67694 0.17400
C 	C 	0.71180 0.34610 0.79154 0.02500
C 	C 	0.65520 0.20910 0.86062 0.01600
C 	C 	0.53660 0.28540 0.92749 0.33900
C 	C 	0.48570 0.37460 0.94882 -0.32500
C 	C 	0.50480 0.18490 0.94533 -0.31200
C 	C 	0.41190 0.36020 0.99009 0.19000
C 	C 	0.42430 0.18000 0.98574 0.16400
C 	C 	0.64000 0.93770 0.65020 0.17500
C 	C 	0.62710 0.01920 0.68804 -0.31100
C 	C 	0.71380 0.04240 0.72110 0.31600
C 	C 	0.80860 0.98170 0.71622 -0.30900
C 	C 	0.81100 0.90240 0.67694 0.17300
C 	C 	0.78820 0.15390 0.79154 0.02500
C 	C 	0.84480 0.29090 0.86062 0.01500
C 	C 	0.96340 0.21460 0.92749 0.33500
C 	C 	0.01430 0.12540 0.94882 -0.31900
C 	C 	0.99520 0.31510 0.94533 -0.31100
C 	C 	0.08810 0.13980 0.99009 0.18600
C 	C 	0.07570 0.32000 0.98574 0.16400
C 	C 	0.75000 0.25000 0.32551 0.00900
C 	C 	0.75000 0.25000 0.82551 0.00900
S 	S 	0.22321 0.45373 0.07666 -0.38900
S 	S 	0.27679 0.04627 0.07666 -0.38800
S 	S 	0.54627 0.72321 0.57666 -0.38900
S 	S 	0.95373 0.77679 0.57666 -0.38800
N 	N 	0.12030 0.22950 0.14357 -0.28700
N 	N 	0.76710 0.61810 0.50964 -0.28600
N 	N 	0.37970 0.27050 0.14357 -0.28600
N 	N 	0.73290 0.88190 0.50964 -0.28600
N 	N 	0.77050 0.62030 0.64357 -0.28700
N 	N 	0.38190 0.26710 0.00964 -0.28500
N 	N 	0.72950 0.87970 0.64357 -0.28600
N 	N 	0.11810 0.23290 0.00964 -0.28400
O 	O 	0.87460 0.19930 0.25646 -0.26100
O 	O 	0.80226 0.39067 0.38800 -0.26800
O 	O 	0.62540 0.30070 0.25646 -0.26100
O 	O 	0.69774 0.10933 0.38800 -0.26800
O 	O 	0.80070 0.37460 0.75646 -0.26100
O 	O 	0.60933 0.30226 0.88800 -0.26800
O 	O 	0.69930 0.12540 0.75646 -0.26100
O 	O 	0.89067 0.19774 0.88800 -0.26700
