data_crystal

_cell_length_a 20.80020
_cell_length_b 20.80020
_cell_length_c 20.80020
_cell_angle_alpha 90.00000
_cell_angle_beta  90.00000
_cell_angle_gamma 90.00000

_symmetry_space_group_name_	'P 1'
_symmetry_space_group_name_H-M	'P 1'

loop_
_symmetry_equiv_pos_as_xyz
  x,y,z

loop_
_atom_site_label
_atom_site_type_symbol
_atom_site_fract_x
_atom_site_fract_y
_atom_site_fract_z
_atom_site_charge
C 	C 	0.21620 0.94060 0.23420 0.29500
C 	C 	0.21620 0.44060 0.73420 0.04600
C 	C 	0.71620 0.94060 0.73420 0.32000
C 	C 	0.71620 0.44060 0.23420 0.03400
C 	C 	0.78380 0.05940 0.23420 0.06700
C 	C 	0.78380 0.55940 0.73420 0.09700
C 	C 	0.28380 0.05940 0.73420 0.05100
C 	C 	0.28380 0.55940 0.23420 0.03700
C 	C 	0.78380 0.94060 0.76580 0.34000
C 	C 	0.78380 0.44060 0.26580 0.06300
C 	C 	0.28380 0.94060 0.26580 0.29600
C 	C 	0.28380 0.44060 0.76580 0.04300
C 	C 	0.21620 0.05940 0.76580 0.02400
C 	C 	0.21620 0.55940 0.26580 0.01400
C 	C 	0.71620 0.05940 0.26580 0.01600
C 	C 	0.71620 0.55940 0.76580 0.04400
C 	C 	0.23420 0.21620 0.94060 0.29400
C 	C 	0.23420 0.71620 0.44060 0.03300
C 	C 	0.73420 0.21620 0.44060 0.04500
C 	C 	0.73420 0.71620 0.94060 0.31900
C 	C 	0.23420 0.78380 0.05940 0.06600
C 	C 	0.23420 0.28380 0.55940 0.03600
C 	C 	0.73420 0.78380 0.55940 0.09600
C 	C 	0.73420 0.28380 0.05940 0.05000
C 	C 	0.76580 0.78380 0.94060 0.33900
C 	C 	0.76580 0.28380 0.44060 0.04200
C 	C 	0.26580 0.78380 0.44060 0.06200
C 	C 	0.26580 0.28380 0.94060 0.29500
C 	C 	0.76580 0.21620 0.05940 0.02400
C 	C 	0.76580 0.71620 0.55940 0.04400
C 	C 	0.26580 0.21620 0.55940 0.01400
C 	C 	0.26580 0.71620 0.05940 0.01600
C 	C 	0.94060 0.23420 0.21620 0.29400
C 	C 	0.94060 0.73420 0.71620 0.31900
C 	C 	0.44060 0.23420 0.71620 0.03300
C 	C 	0.44060 0.73420 0.21620 0.04500
C 	C 	0.05940 0.23420 0.78380 0.06600
C 	C 	0.05940 0.73420 0.28380 0.05000
C 	C 	0.55940 0.23420 0.28380 0.03600
C 	C 	0.55940 0.73420 0.78380 0.09600
C 	C 	0.94060 0.76580 0.78380 0.33900
C 	C 	0.94060 0.26580 0.28380 0.29500
C 	C 	0.44060 0.76580 0.28380 0.04200
C 	C 	0.44060 0.26580 0.78380 0.06200
C 	C 	0.05940 0.76580 0.21620 0.02400
C 	C 	0.05940 0.26580 0.71620 0.01600
C 	C 	0.55940 0.76580 0.71620 0.04400
C 	C 	0.55940 0.26580 0.21620 0.01400
C 	C 	0.78380 0.05940 0.76580 0.07400
C 	C 	0.78380 0.55940 0.26580 0.06400
C 	C 	0.28380 0.05940 0.26580 0.01700
C 	C 	0.28380 0.55940 0.76580 0.04500
C 	C 	0.21620 0.94060 0.76580 0.29700
C 	C 	0.21620 0.44060 0.26580 0.01100
C 	C 	0.71620 0.94060 0.26580 0.29100
C 	C 	0.71620 0.44060 0.76580 0.04100
C 	C 	0.21620 0.05940 0.23420 0.01600
C 	C 	0.21620 0.55940 0.73420 0.04700
C 	C 	0.71620 0.05940 0.73420 0.04900
C 	C 	0.71620 0.55940 0.23420 0.03500
C 	C 	0.78380 0.94060 0.23420 0.33700
C 	C 	0.78380 0.44060 0.73420 0.09400
C 	C 	0.28380 0.94060 0.73420 0.32400
C 	C 	0.28380 0.44060 0.23420 0.03300
C 	C 	0.76580 0.78380 0.05940 0.07400
C 	C 	0.76580 0.28380 0.55940 0.04500
C 	C 	0.26580 0.78380 0.55940 0.06400
C 	C 	0.26580 0.28380 0.05940 0.01700
C 	C 	0.76580 0.21620 0.94060 0.29700
C 	C 	0.76580 0.71620 0.44060 0.04100
C 	C 	0.26580 0.21620 0.44060 0.01100
C 	C 	0.26580 0.71620 0.94060 0.29100
C 	C 	0.23420 0.21620 0.05940 0.01600
C 	C 	0.23420 0.71620 0.55940 0.03500
C 	C 	0.73420 0.21620 0.55940 0.04700
C 	C 	0.73420 0.71620 0.05940 0.04900
C 	C 	0.23420 0.78380 0.94060 0.33700
C 	C 	0.23420 0.28380 0.44060 0.03300
C 	C 	0.73420 0.78380 0.44060 0.09400
C 	C 	0.73420 0.28380 0.94060 0.32400
C 	C 	0.05940 0.76580 0.78380 0.07400
C 	C 	0.05940 0.26580 0.28380 0.01700
C 	C 	0.55940 0.76580 0.28380 0.04500
C 	C 	0.55940 0.26580 0.78380 0.06400
C 	C 	0.94060 0.76580 0.21620 0.29700
C 	C 	0.94060 0.26580 0.71620 0.29100
C 	C 	0.44060 0.76580 0.71620 0.04100
C 	C 	0.44060 0.26580 0.21620 0.01100
C 	C 	0.05940 0.23420 0.21620 0.01600
C 	C 	0.05940 0.73420 0.71620 0.04900
C 	C 	0.55940 0.23420 0.71620 0.03500
C 	C 	0.55940 0.73420 0.21620 0.04700
C 	C 	0.94060 0.23420 0.78380 0.33700
C 	C 	0.94060 0.73420 0.28380 0.32400
C 	C 	0.44060 0.23420 0.28380 0.03300
C 	C 	0.44060 0.73420 0.78380 0.09400
Zr	Zr	0.00000 0.00000 0.11680 3.16200
Zr	Zr	0.00000 0.50000 0.61680 3.19100
Zr	Zr	0.50000 0.00000 0.61680 3.19100
Zr	Zr	0.50000 0.50000 0.11680 3.22100
Zr	Zr	0.00000 0.00000 0.88320 3.16100
Zr	Zr	0.00000 0.50000 0.38320 3.19100
Zr	Zr	0.50000 0.00000 0.38320 3.19100
Zr	Zr	0.50000 0.50000 0.88320 3.21900
Zr	Zr	0.11680 0.00000 -0.00000 3.16200
Zr	Zr	0.11680 0.50000 0.50000 3.22100
Zr	Zr	0.61680 0.00000 0.50000 3.19100
Zr	Zr	0.61680 0.50000 -0.00000 3.19100
Zr	Zr	0.88320 0.00000 -0.00000 3.16100
Zr	Zr	0.88320 0.50000 0.50000 3.21900
Zr	Zr	0.38320 0.00000 0.50000 3.19100
Zr	Zr	0.38320 0.50000 -0.00000 3.19100
Zr	Zr	-0.00000 0.11680 -0.00000 3.16200
Zr	Zr	0.00000 0.61680 0.50000 3.19100
Zr	Zr	0.50000 0.11680 0.50000 3.22100
Zr	Zr	0.50000 0.61680 -0.00000 3.19100
Zr	Zr	-0.00000 0.88320 -0.00000 3.16100
Zr	Zr	-0.00000 0.38320 0.50000 3.19100
Zr	Zr	0.50000 0.88320 0.50000 3.21900
Zr	Zr	0.50000 0.38320 -0.00000 3.19100
O 	O 	0.05880 0.05880 0.05880 -1.45900
O 	O 	0.05880 0.55880 0.55880 -1.34000
O 	O 	0.55880 0.05880 0.55880 -1.34000
O 	O 	0.55880 0.55880 0.05880 -1.34000
O 	O 	0.94120 0.94120 0.05880 -1.05300
O 	O 	0.94120 0.44120 0.55880 -1.13500
O 	O 	0.44120 0.94120 0.55880 -1.13500
O 	O 	0.44120 0.44120 0.05880 -1.34100
O 	O 	0.94120 0.05880 0.94120 -1.05300
O 	O 	0.94120 0.55880 0.44120 -1.13500
O 	O 	0.44120 0.05880 0.44120 -1.34100
O 	O 	0.44120 0.55880 0.94120 -1.13500
O 	O 	0.05880 0.94120 0.94120 -1.05300
O 	O 	0.05880 0.44120 0.44120 -1.34100
O 	O 	0.55880 0.94120 0.44120 -1.13500
O 	O 	0.55880 0.44120 0.94120 -1.13500
O 	O 	0.94120 0.94120 0.94120 -0.86600
O 	O 	0.94120 0.44120 0.44120 -1.13500
O 	O 	0.44120 0.94120 0.44120 -1.13500
O 	O 	0.44120 0.44120 0.94120 -1.13500
O 	O 	0.05880 0.05880 0.94120 -1.25000
O 	O 	0.05880 0.55880 0.44120 -1.34100
O 	O 	0.55880 0.05880 0.44120 -1.34100
O 	O 	0.55880 0.55880 0.94120 -1.13600
O 	O 	0.05880 0.94120 0.05880 -1.25000
O 	O 	0.05880 0.44120 0.55880 -1.34100
O 	O 	0.55880 0.94120 0.55880 -1.13600
O 	O 	0.55880 0.44120 0.05880 -1.34100
O 	O 	0.94120 0.05880 0.05880 -1.25000
O 	O 	0.94120 0.55880 0.55880 -1.13600
O 	O 	0.44120 0.05880 0.55880 -1.34100
O 	O 	0.44120 0.55880 0.05880 -1.34100
O 	O 	0.08800 0.00000 0.17200 -0.70400
O 	O 	0.17500 0.00000 0.08500 -0.70300
C 	C 	0.15000 0.00000 0.14700 0.33300
C 	C 	0.21000 0.00000 0.19000 -0.31600
O 	O 	0.08800 0.50000 0.67200 -0.56300
O 	O 	0.17500 0.50000 0.58500 -0.55600
C 	C 	0.15000 0.50000 0.64700 0.32500
C 	C 	0.21000 0.50000 0.69000 -0.04100
O 	O 	0.58800 0.00000 0.67200 -0.66800
O 	O 	0.67500 0.00000 0.58500 -0.66100
C 	C 	0.65000 0.00000 0.64700 0.32300
C 	C 	0.71000 0.00000 0.69000 -0.28600
O 	O 	0.58800 0.50000 0.17200 -0.54900
O 	O 	0.67500 0.50000 0.08500 -0.57500
C 	C 	0.65000 0.50000 0.14700 0.32300
C 	C 	0.71000 0.50000 0.19000 -0.03200
O 	O 	0.91200 0.00000 0.17200 -0.53800
O 	O 	0.82500 0.00000 0.08500 -0.69700
C 	C 	0.85000 0.00000 0.14700 0.33200
C 	C 	0.79000 0.00000 0.19000 -0.31300
O 	O 	0.91200 0.50000 0.67200 -0.40100
O 	O 	0.82500 0.50000 0.58500 -0.55300
C 	C 	0.85000 0.50000 0.64700 0.32400
C 	C 	0.79000 0.50000 0.69000 -0.04100
O 	O 	0.41200 0.00000 0.67200 -0.67000
O 	O 	0.32500 0.00000 0.58500 -0.68100
C 	C 	0.35000 0.00000 0.64700 0.32700
C 	C 	0.29000 0.00000 0.69000 -0.31500
O 	O 	0.41200 0.50000 0.17200 -0.55000
O 	O 	0.32500 0.50000 0.08500 -0.59400
C 	C 	0.35000 0.50000 0.14700 0.32700
C 	C 	0.29000 0.50000 0.19000 -0.05800
O 	O 	0.91200 0.00000 0.82800 -0.53200
O 	O 	0.82500 0.00000 0.91500 -0.52500
C 	C 	0.85000 -0.00000 0.85300 0.31800
C 	C 	0.79000 -0.00000 0.81000 -0.26200
O 	O 	0.91200 0.50000 0.32800 -0.41400
O 	O 	0.82500 0.50000 0.41500 -0.55200
C 	C 	0.85000 0.50000 0.35300 0.31800
C 	C 	0.79000 0.50000 0.31000 -0.03300
O 	O 	0.41200 0.00000 0.32800 -0.68800
O 	O 	0.32500 0.00000 0.41500 -0.68100
C 	C 	0.35000 0.00000 0.35300 0.32100
C 	C 	0.29000 0.00000 0.31000 -0.30900
O 	O 	0.41200 0.50000 0.82800 -0.54300
O 	O 	0.32500 0.50000 0.91500 -0.42000
C 	C 	0.35000 0.50000 0.85300 0.31200
C 	C 	0.29000 0.50000 0.81000 -0.01000
O 	O 	0.08800 0.00000 0.82800 -0.69400
O 	O 	0.17500 0.00000 0.91500 -0.52700
C 	C 	0.15000 -0.00000 0.85300 0.31800
C 	C 	0.21000 -0.00000 0.81000 -0.26500
O 	O 	0.08800 0.50000 0.32800 -0.57900
O 	O 	0.17500 0.50000 0.41500 -0.55600
C 	C 	0.15000 0.50000 0.35300 0.31900
C 	C 	0.21000 0.50000 0.31000 -0.03200
O 	O 	0.58800 0.00000 0.32800 -0.68600
O 	O 	0.67500 0.00000 0.41500 -0.66100
C 	C 	0.65000 0.00000 0.35300 0.31700
C 	C 	0.71000 0.00000 0.31000 -0.28100
O 	O 	0.58800 0.50000 0.82800 -0.54100
O 	O 	0.67500 0.50000 0.91500 -0.40300
C 	C 	0.65000 0.50000 0.85300 0.30900
C 	C 	0.71000 0.50000 0.81000 0.01400
O 	O 	0.17200 0.08800 -0.00000 -0.70400
O 	O 	0.08500 0.17500 -0.00000 -0.70300
C 	C 	0.14700 0.15000 -0.00000 0.33300
C 	C 	0.19000 0.21000 -0.00000 -0.31600
O 	O 	0.17200 0.58800 0.50000 -0.54900
O 	O 	0.08500 0.67500 0.50000 -0.57500
C 	C 	0.14700 0.65000 0.50000 0.32300
C 	C 	0.19000 0.71000 0.50000 -0.03200
O 	O 	0.67200 0.08800 0.50000 -0.56300
O 	O 	0.58500 0.17500 0.50000 -0.55600
C 	C 	0.64700 0.15000 0.50000 0.32500
C 	C 	0.69000 0.21000 0.50000 -0.04100
O 	O 	0.67200 0.58800 -0.00000 -0.66800
O 	O 	0.58500 0.67500 -0.00000 -0.66100
C 	C 	0.64700 0.65000 -0.00000 0.32300
C 	C 	0.69000 0.71000 -0.00000 -0.28600
O 	O 	0.17200 0.91200 -0.00000 -0.53800
O 	O 	0.08500 0.82500 -0.00000 -0.69700
C 	C 	0.14700 0.85000 -0.00000 0.33200
C 	C 	0.19000 0.79000 -0.00000 -0.31300
O 	O 	0.17200 0.41200 0.50000 -0.55000
O 	O 	0.08500 0.32500 0.50000 -0.59400
C 	C 	0.14700 0.35000 0.50000 0.32700
C 	C 	0.19000 0.29000 0.50000 -0.05800
O 	O 	0.67200 0.91200 0.50000 -0.40100
O 	O 	0.58500 0.82500 0.50000 -0.55300
C 	C 	0.64700 0.85000 0.50000 0.32400
C 	C 	0.69000 0.79000 0.50000 -0.04100
O 	O 	0.67200 0.41200 -0.00000 -0.67000
O 	O 	0.58500 0.32500 -0.00000 -0.68100
C 	C 	0.64700 0.35000 -0.00000 0.32700
C 	C 	0.69000 0.29000 -0.00000 -0.31500
O 	O 	0.82800 0.91200 -0.00000 -0.53200
O 	O 	0.91500 0.82500 -0.00000 -0.52500
C 	C 	0.85300 0.85000 -0.00000 0.31800
C 	C 	0.81000 0.79000 -0.00000 -0.26200
O 	O 	0.82800 0.41200 0.50000 -0.54300
O 	O 	0.91500 0.32500 0.50000 -0.42000
C 	C 	0.85300 0.35000 0.50000 0.31200
C 	C 	0.81000 0.29000 0.50000 -0.01000
O 	O 	0.32800 0.91200 0.50000 -0.41400
O 	O 	0.41500 0.82500 0.50000 -0.55200
C 	C 	0.35300 0.85000 0.50000 0.31800
C 	C 	0.31000 0.79000 0.50000 -0.03300
O 	O 	0.32800 0.41200 -0.00000 -0.68800
O 	O 	0.41500 0.32500 -0.00000 -0.68100
C 	C 	0.35300 0.35000 -0.00000 0.32100
C 	C 	0.31000 0.29000 -0.00000 -0.30900
O 	O 	0.82800 0.08800 -0.00000 -0.69400
O 	O 	0.91500 0.17500 -0.00000 -0.52700
C 	C 	0.85300 0.15000 -0.00000 0.31800
C 	C 	0.81000 0.21000 -0.00000 -0.26500
O 	O 	0.82800 0.58800 0.50000 -0.54100
O 	O 	0.91500 0.67500 0.50000 -0.40300
C 	C 	0.85300 0.65000 0.50000 0.30900
C 	C 	0.81000 0.71000 0.50000 0.01400
O 	O 	0.32800 0.08800 0.50000 -0.57900
O 	O 	0.41500 0.17500 0.50000 -0.55600
C 	C 	0.35300 0.15000 0.50000 0.31900
C 	C 	0.31000 0.21000 0.50000 -0.03200
O 	O 	0.32800 0.58800 -0.00000 -0.68600
O 	O 	0.41500 0.67500 -0.00000 -0.66100
C 	C 	0.35300 0.65000 -0.00000 0.31700
C 	C 	0.31000 0.71000 -0.00000 -0.28100
O 	O 	0.00000 0.17200 0.08800 -0.70400
O 	O 	0.00000 0.08500 0.17500 -0.70300
C 	C 	-0.00000 0.14700 0.15000 0.33300
C 	C 	0.00000 0.19000 0.21000 -0.31600
O 	O 	-0.00000 0.67200 0.58800 -0.66800
O 	O 	-0.00000 0.58500 0.67500 -0.66100
C 	C 	0.00000 0.64700 0.65000 0.32300
C 	C 	-0.00000 0.69000 0.71000 -0.28600
O 	O 	0.50000 0.17200 0.58800 -0.54900
O 	O 	0.50000 0.08500 0.67500 -0.57500
C 	C 	0.50000 0.14700 0.65000 0.32300
C 	C 	0.50000 0.19000 0.71000 -0.03200
O 	O 	0.50000 0.67200 0.08800 -0.56300
O 	O 	0.50000 0.58500 0.17500 -0.55600
C 	C 	0.50000 0.64700 0.15000 0.32500
C 	C 	0.50000 0.69000 0.21000 -0.04100
O 	O 	0.00000 0.17200 0.91200 -0.53800
O 	O 	-0.00000 0.08500 0.82500 -0.69700
C 	C 	0.00000 0.14700 0.85000 0.33200
C 	C 	-0.00000 0.19000 0.79000 -0.31300
O 	O 	-0.00000 0.67200 0.41200 -0.67000
O 	O 	-0.00000 0.58500 0.32500 -0.68100
C 	C 	0.00000 0.64700 0.35000 0.32700
C 	C 	0.00000 0.69000 0.29000 -0.31500
O 	O 	0.50000 0.17200 0.41200 -0.55000
O 	O 	0.50000 0.08500 0.32500 -0.59400
C 	C 	0.50000 0.14700 0.35000 0.32700
C 	C 	0.50000 0.19000 0.29000 -0.05800
O 	O 	0.50000 0.67200 0.91200 -0.40100
O 	O 	0.50000 0.58500 0.82500 -0.55300
C 	C 	0.50000 0.64700 0.85000 0.32400
C 	C 	0.50000 0.69000 0.79000 -0.04100
O 	O 	0.00000 0.82800 0.91200 -0.53200
O 	O 	0.00000 0.91500 0.82500 -0.52500
C 	C 	-0.00000 0.85300 0.85000 0.31800
C 	C 	-0.00000 0.81000 0.79000 -0.26200
O 	O 	-0.00000 0.32800 0.41200 -0.68800
O 	O 	0.00000 0.41500 0.32500 -0.68100
C 	C 	-0.00000 0.35300 0.35000 0.32100
C 	C 	0.00000 0.31000 0.29000 -0.30900
O 	O 	0.50000 0.82800 0.41200 -0.54300
O 	O 	0.50000 0.91500 0.32500 -0.42000
C 	C 	0.50000 0.85300 0.35000 0.31200
C 	C 	0.50000 0.81000 0.29000 -0.01000
O 	O 	0.50000 0.32800 0.91200 -0.41400
O 	O 	0.50000 0.41500 0.82500 -0.55200
C 	C 	0.50000 0.35300 0.85000 0.31800
C 	C 	0.50000 0.31000 0.79000 -0.03300
O 	O 	0.00000 0.82800 0.08800 -0.69400
O 	O 	0.00000 0.91500 0.17500 -0.52700
C 	C 	0.00000 0.85300 0.15000 0.31800
C 	C 	-0.00000 0.81000 0.21000 -0.26500
O 	O 	0.00000 0.32800 0.58800 -0.68600
O 	O 	-0.00000 0.41500 0.67500 -0.66100
C 	C 	0.00000 0.35300 0.65000 0.31700
C 	C 	-0.00000 0.31000 0.71000 -0.28100
O 	O 	0.50000 0.82800 0.58800 -0.54100
O 	O 	0.50000 0.91500 0.67500 -0.40300
C 	C 	0.50000 0.85300 0.65000 0.30900
C 	C 	0.50000 0.81000 0.71000 0.01400
O 	O 	0.50000 0.32800 0.08800 -0.57900
O 	O 	0.50000 0.41500 0.17500 -0.55600
C 	C 	0.50000 0.35300 0.15000 0.31900
C 	C 	0.50000 0.31000 0.21000 -0.03200
