data_crystal

_cell_length_a 7.38520
_cell_length_b 13.29620
_cell_length_c 14.70350
_cell_angle_alpha 90.00000
_cell_angle_beta  91.44100
_cell_angle_gamma 90.00000

_symmetry_space_group_name_	'P 1'
_symmetry_space_group_name_H-M	'P 1'

loop_
_symmetry_equiv_pos_as_xyz
  x,y,z

loop_
_atom_site_label
_atom_site_type_symbol
_atom_site_fract_x
_atom_site_fract_y
_atom_site_fract_z
_atom_site_charge
Fe	Fe	0.50000 0.50000 -0.00000 1.03500
Fe	Fe	-0.00000 0.00000 -0.00000 0.93400
Fe	Fe	0.00000 0.00000 0.50000 0.94400
Fe	Fe	0.50000 0.50000 0.50000 1.04000
Ag	Ag	0.73004 0.24500 0.74968 0.43400
Ag	Ag	0.97177 0.44327 0.77109 0.49200
Ag	Ag	0.76996 0.74500 0.25032 0.43600
Ag	Ag	0.52823 0.94327 0.22890 0.47700
Ag	Ag	0.26996 0.75500 0.25032 0.41300
Ag	Ag	0.02823 0.55673 0.22890 0.40800
Ag	Ag	0.23004 0.25500 0.74968 0.41200
Ag	Ag	0.47177 0.05673 0.77109 0.43000
H 	H 	0.43500 0.26900 0.01900 -0.09100
H 	H 	0.44700 0.14300 0.12200 0.03600
H 	H 	0.52300 0.18500 0.27400 -0.05900
H 	H 	0.53900 0.46300 0.20670 -0.05100
H 	H 	0.06500 0.76900 0.98100 -0.02700
H 	H 	0.05300 0.64300 0.87800 0.14500
H 	H 	0.97700 0.68500 0.72600 -0.08500
H 	H 	0.96100 0.96300 0.79330 -0.00400
H 	H 	0.56500 0.73100 0.98100 0.01700
H 	H 	0.55300 0.85700 0.87800 0.11800
H 	H 	0.47700 0.81500 0.72600 -0.02000
H 	H 	0.46100 0.53700 0.79330 -0.04900
H 	H 	0.93500 0.23100 0.01900 -0.03400
H 	H 	0.94700 0.35700 0.12200 -0.00200
H 	H 	0.02300 0.31500 0.27400 0.01400
H 	H 	0.03900 0.03700 0.20670 -0.08600
C 	C 	0.66120 0.33906 0.85483 -0.14300
C 	C 	0.14020 0.44264 0.88503 -0.16000
C 	C 	0.45940 0.28378 0.07943 0.09500
C 	C 	0.47070 0.20660 0.14148 -0.20700
C 	C 	0.50760 0.23130 0.23067 0.10800
C 	C 	0.51900 0.39616 0.19279 0.09600
C 	C 	0.80550 0.15214 0.64501 -0.18400
C 	C 	0.81360 0.47908 0.65826 -0.12100
C 	C 	0.83880 0.83906 0.14517 -0.16500
C 	C 	0.35980 0.94264 0.11497 -0.12200
C 	C 	0.04060 0.78378 0.92057 0.19100
C 	C 	0.02930 0.70660 0.85852 -0.39400
C 	C 	0.99240 0.73130 0.76933 0.29400
C 	C 	0.98100 0.89616 0.80721 0.19500
C 	C 	0.69450 0.65214 0.35499 -0.16400
C 	C 	0.68640 0.97908 0.34174 -0.08100
C 	C 	0.33880 0.66094 0.14517 -0.21200
C 	C 	0.85980 0.55736 0.11497 -0.11500
C 	C 	0.54060 0.71622 0.92057 0.11800
C 	C 	0.52930 0.79340 0.85852 -0.19100
C 	C 	0.49240 0.76870 0.76933 0.11100
C 	C 	0.48100 0.60384 0.80721 0.09900
C 	C 	0.19450 0.84786 0.35499 -0.19100
C 	C 	0.18640 0.52092 0.34174 -0.17200
C 	C 	0.16120 0.16094 0.85483 -0.19100
C 	C 	0.64020 0.05736 0.88503 -0.15300
C 	C 	0.95940 0.21622 0.07943 0.00900
C 	C 	0.97070 0.29340 0.14148 0.02900
C 	C 	0.00760 0.26870 0.23067 -0.10600
C 	C 	0.01900 0.10384 0.19279 -0.01900
C 	C 	0.30550 0.34786 0.64501 -0.21000
C 	C 	0.31360 0.02092 0.65826 -0.20800
N 	N 	0.62080 0.39426 0.91026 -0.16900
N 	N 	0.24600 0.45332 0.94215 -0.16600
N 	N 	0.48550 0.37946 0.10440 -0.27100
N 	N 	0.53200 0.32643 0.25752 -0.17500
N 	N 	0.85280 0.09912 0.58998 -0.23300
N 	N 	0.71570 0.49830 0.59979 -0.24100
N 	N 	0.87920 0.89426 0.08974 -0.18400
N 	N 	0.25400 0.95332 0.05785 -0.21900
N 	N 	0.01450 0.87946 0.89560 -0.26100
N 	N 	0.96800 0.82643 0.74248 -0.18700
N 	N 	0.64720 0.59912 0.41002 -0.23200
N 	N 	0.78430 0.99830 0.40021 -0.18100
N 	N 	0.37920 0.60574 0.08974 -0.24500
N 	N 	0.75400 0.54668 0.05785 -0.25100
N 	N 	0.51450 0.62054 0.89560 -0.22400
N 	N 	0.46800 0.67357 0.74248 -0.17600
N 	N 	0.14720 0.90088 0.41002 -0.20800
N 	N 	0.28430 0.50170 0.40021 -0.24600
N 	N 	0.12080 0.10574 0.91026 -0.20200
N 	N 	0.74600 0.04668 0.94215 -0.17100
N 	N 	0.98550 0.12054 0.10440 -0.19800
N 	N 	0.03200 0.17357 0.25752 -0.15400
N 	N 	0.35280 0.40088 0.58998 -0.24000
N 	N 	0.21570 0.00170 0.59979 -0.27900
