data_crystal

_cell_length_a 7.49300
_cell_length_b 13.05280
_cell_length_c 14.25840
_cell_angle_alpha 90.00000
_cell_angle_beta  92.05500
_cell_angle_gamma 90.00000

_symmetry_space_group_name_	'P 1'
_symmetry_space_group_name_H-M	'P 1'

loop_
_symmetry_equiv_pos_as_xyz
  x,y,z

loop_
_atom_site_label
_atom_site_type_symbol
_atom_site_fract_x
_atom_site_fract_y
_atom_site_fract_z
_atom_site_charge
Fe	Fe	0.50000 0.50000 -0.00000 1.09200
Fe	Fe	-0.00000 0.00000 -0.00000 1.01800
Fe	Fe	1.00000 -0.00000 0.50000 0.97700
Fe	Fe	0.50000 0.50000 0.50000 1.04100
Ag	Ag	0.72949 0.24462 0.75932 0.42800
Ag	Ag	0.96395 0.44483 0.78324 0.45900
Ag	Ag	0.77051 0.74462 0.24068 0.42400
Ag	Ag	0.53605 0.94483 0.21676 0.47800
Ag	Ag	0.27051 0.75538 0.24068 0.42300
Ag	Ag	0.03605 0.55517 0.21676 0.44300
Ag	Ag	0.22949 0.25538 0.75932 0.42800
Ag	Ag	0.46395 0.05517 0.78324 0.43100
H 	H 	0.38700 0.28800 0.00500 -0.10400
H 	H 	0.38200 0.15300 0.11300 0.06100
H 	H 	0.47800 0.19600 0.26500 -0.10200
H 	H 	0.54100 0.47900 0.20900 -0.04100
H 	H 	0.11300 0.78800 0.99500 0.01400
H 	H 	0.11800 0.65300 0.88700 0.10900
H 	H 	0.02200 0.69600 0.73500 -0.06500
H 	H 	0.95900 0.97900 0.79100 0.02300
H 	H 	0.61300 0.71200 0.99500 0.01000
H 	H 	0.61800 0.84700 0.88700 0.13700
H 	H 	0.52200 0.80400 0.73500 -0.04400
H 	H 	0.45900 0.52100 0.79100 -0.03600
H 	H 	0.88700 0.21200 0.00500 -0.10300
H 	H 	0.88200 0.34700 0.11300 0.09000
H 	H 	0.97800 0.30400 0.26500 -0.08300
H 	H 	0.04100 0.02100 0.20900 -0.09600
C 	C 	0.65830 0.34270 0.86510 -0.13900
C 	C 	0.14860 0.44670 0.89380 -0.09600
C 	C 	0.42390 0.29420 0.06950 0.11700
C 	C 	0.42150 0.21480 0.13320 -0.26200
C 	C 	0.47080 0.23690 0.22530 0.17300
C 	C 	0.51460 0.40410 0.18737 0.07900
C 	C 	0.80490 0.15080 0.65150 -0.20400
C 	C 	0.80810 0.48020 0.66540 -0.14100
C 	C 	0.84170 0.84270 0.13490 -0.18800
C 	C 	0.35140 0.94670 0.10620 -0.11500
C 	C 	0.07610 0.79420 0.93050 0.12800
C 	C 	0.07850 0.71480 0.86680 -0.22400
C 	C 	0.02920 0.73690 0.77470 0.16300
C 	C 	0.98540 0.90410 0.81263 0.10100
C 	C 	0.69510 0.65080 0.34850 -0.17800
C 	C 	0.69190 0.98020 0.33460 -0.08500
C 	C 	0.34170 0.65730 0.13490 -0.20300
C 	C 	0.85140 0.55330 0.10620 -0.16500
C 	C 	0.57610 0.70580 0.93050 0.13100
C 	C 	0.57850 0.78520 0.86680 -0.22600
C 	C 	0.52920 0.76310 0.77470 0.16100
C 	C 	0.48540 0.59590 0.81263 0.08500
C 	C 	0.19510 0.84920 0.34850 -0.16500
C 	C 	0.19190 0.51980 0.33460 -0.14700
C 	C 	0.15830 0.15730 0.86510 -0.15200
C 	C 	0.64860 0.05330 0.89380 -0.14800
C 	C 	0.92390 0.20580 0.06950 0.12100
C 	C 	0.92150 0.28520 0.13320 -0.26600
C 	C 	0.97080 0.26310 0.22530 0.18000
C 	C 	0.01460 0.09590 0.18737 0.05600
C 	C 	0.30490 0.34920 0.65150 -0.18800
C 	C 	0.30810 0.01980 0.66540 -0.19900
N 	N 	0.60900 0.40186 0.91839 -0.18800
N 	N 	0.27220 0.46404 0.94169 -0.19000
N 	N 	0.47320 0.38976 0.09519 -0.28900
N 	N 	0.51620 0.33140 0.25283 -0.18900
N 	N 	0.85360 0.09780 0.59396 -0.25700
N 	N 	0.71280 0.49944 0.60380 -0.24200
N 	N 	0.89100 0.90186 0.08161 -0.21700
N 	N 	0.22780 0.96404 0.05831 -0.22200
N 	N 	0.02680 0.88976 0.90481 -0.20900
N 	N 	0.98380 0.83140 0.74717 -0.16200
N 	N 	0.64640 0.59780 0.40604 -0.23500
N 	N 	0.78720 0.99944 0.39620 -0.19600
N 	N 	0.39100 0.59814 0.08161 -0.26300
N 	N 	0.72780 0.53596 0.05831 -0.26800
N 	N 	0.52680 0.61024 0.90481 -0.24000
N 	N 	0.48380 0.66860 0.74717 -0.17600
N 	N 	0.14640 0.90220 0.40604 -0.19600
N 	N 	0.28720 0.50056 0.39620 -0.24300
N 	N 	0.10900 0.09814 0.91839 -0.20800
N 	N 	0.77220 0.03596 0.94169 -0.21600
N 	N 	0.97320 0.11024 0.09519 -0.30000
N 	N 	0.01620 0.16860 0.25283 -0.20300
N 	N 	0.35360 0.40220 0.59396 -0.23700
N 	N 	0.21280 0.00056 0.60380 -0.27000
