data_crystal

_cell_length_a 7.22720
_cell_length_b 13.30750
_cell_length_c 14.61570
_cell_angle_alpha 90.00000
_cell_angle_beta  90.94400
_cell_angle_gamma 90.00000

_symmetry_space_group_name_	'P 1'
_symmetry_space_group_name_H-M	'P 1'

loop_
_symmetry_equiv_pos_as_xyz
  x,y,z

loop_
_atom_site_label
_atom_site_type_symbol
_atom_site_fract_x
_atom_site_fract_y
_atom_site_fract_z
_atom_site_charge
Fe	Fe	0.50000 0.50000 -0.00000 1.04300
Fe	Fe	-0.00000 0.00000 -0.00000 0.93700
Fe	Fe	0.00000 -0.00000 0.50000 0.94900
Fe	Fe	0.50000 0.50000 0.50000 1.05000
H 	H 	0.39700 0.28900 0.01900 -0.08500
H 	H 	0.40500 0.14800 0.12800 0.03800
H 	H 	0.49800 0.18400 0.27500 -0.05000
H 	H 	0.52400 0.46500 0.20200 -0.04900
H 	H 	0.10300 0.78900 0.98100 0.02800
H 	H 	0.09500 0.64800 0.87200 0.06200
H 	H 	0.00200 0.68400 0.72500 -0.01800
H 	H 	0.97600 0.96500 0.79800 0.00400
H 	H 	0.60300 0.71100 0.98100 0.02700
H 	H 	0.59500 0.85200 0.87200 0.12200
H 	H 	0.50200 0.81600 0.72500 -0.00400
H 	H 	0.47600 0.53500 0.79800 -0.04700
H 	H 	0.89700 0.21100 0.01900 -0.07700
H 	H 	0.90500 0.35200 0.12800 0.09800
H 	H 	0.99800 0.31600 0.27500 -0.03900
H 	H 	0.02400 0.03500 0.20200 -0.09000
Au	Au	0.73177 0.24511 0.75096 0.25900
Au	Au	0.97768 0.45569 0.76825 0.32900
Au	Au	0.76823 0.74511 0.24904 0.26100
Au	Au	0.52232 0.95569 0.23175 0.30100
Au	Au	0.26823 0.75489 0.24904 0.22600
Au	Au	0.02232 0.54431 0.23175 0.19500
Au	Au	0.23177 0.25489 0.75096 0.22400
Au	Au	0.47768 0.04431 0.76825 0.23300
C 	C 	0.65840 0.33310 0.85420 -0.04300
C 	C 	0.13570 0.45170 0.88110 -0.09200
C 	C 	0.42990 0.28980 0.08150 0.08400
C 	C 	0.43600 0.21230 0.14430 -0.19600
C 	C 	0.48150 0.23600 0.23300 0.09400
C 	C 	0.50540 0.40030 0.19450 0.10600
C 	C 	0.80730 0.15730 0.64750 -0.08400
C 	C 	0.82150 0.48020 0.65920 -0.04800
C 	C 	0.84160 0.83310 0.14580 -0.06400
C 	C 	0.36430 0.95170 0.11890 -0.04100
C 	C 	0.07010 0.78980 0.91850 0.06300
C 	C 	0.06400 0.71230 0.85570 -0.13200
C 	C 	0.01850 0.73600 0.76700 0.00200
C 	C 	0.99460 0.90030 0.80550 0.20200
C 	C 	0.69270 0.65730 0.35250 -0.06500
C 	C 	0.67850 0.98020 0.34080 -0.01100
C 	C 	0.34160 0.66690 0.14580 -0.11200
C 	C 	0.86430 0.54830 0.11890 -0.02900
C 	C 	0.57010 0.71020 0.91850 0.11400
C 	C 	0.56400 0.78770 0.85570 -0.17100
C 	C 	0.51850 0.76400 0.76700 0.10800
C 	C 	0.49460 0.59970 0.80550 0.11800
C 	C 	0.19270 0.84270 0.35250 -0.09700
C 	C 	0.17850 0.51980 0.34080 -0.10000
C 	C 	0.15840 0.16690 0.85420 -0.09200
C 	C 	0.63570 0.04830 0.88110 -0.07700
C 	C 	0.92990 0.21020 0.08150 0.13500
C 	C 	0.93600 0.28770 0.14430 -0.23500
C 	C 	0.98150 0.26400 0.23300 0.21100
C 	C 	0.00540 0.09970 0.19450 0.00500
C 	C 	0.30730 0.34270 0.64750 -0.11600
C 	C 	0.32150 0.01980 0.65920 -0.13300
N 	N 	0.61570 0.38610 0.91210 -0.17500
N 	N 	0.23630 0.45860 0.94120 -0.17000
N 	N 	0.46690 0.38500 0.10660 -0.27000
N 	N 	0.51500 0.33040 0.25930 -0.17700
N 	N 	0.85410 0.10510 0.59110 -0.23800
N 	N 	0.72290 0.49740 0.59780 -0.24600
N 	N 	0.88430 0.88610 0.08790 -0.19300
N 	N 	0.26370 0.95860 0.05880 -0.22700
N 	N 	0.03310 0.88500 0.89340 -0.23800
N 	N 	0.98500 0.83040 0.74070 -0.10600
N 	N 	0.64590 0.60510 0.40890 -0.23800
N 	N 	0.77710 0.99740 0.40220 -0.18500
N 	N 	0.38430 0.61390 0.08790 -0.25500
N 	N 	0.76370 0.54140 0.05880 -0.26200
N 	N 	0.53310 0.61500 0.89340 -0.22300
N 	N 	0.48500 0.66960 0.74070 -0.17000
N 	N 	0.14590 0.89490 0.40890 -0.21700
N 	N 	0.27710 0.50260 0.40220 -0.25600
N 	N 	0.11570 0.11390 0.91210 -0.20900
N 	N 	0.73630 0.04140 0.94120 -0.17600
N 	N 	0.96690 0.11500 0.10660 -0.22400
N 	N 	0.01500 0.16960 0.25930 -0.24000
N 	N 	0.35410 0.39490 0.59110 -0.24800
N 	N 	0.22290 0.00260 0.59780 -0.28800
