data_crystal

_cell_length_a 7.43060
_cell_length_b 13.17700
_cell_length_c 14.01940
_cell_angle_alpha 90.00000
_cell_angle_beta  91.37800
_cell_angle_gamma 90.00000

_symmetry_space_group_name_	'P 1'
_symmetry_space_group_name_H-M	'P 1'

loop_
_symmetry_equiv_pos_as_xyz
  x,y,z

loop_
_atom_site_label
_atom_site_type_symbol
_atom_site_fract_x
_atom_site_fract_y
_atom_site_fract_z
_atom_site_charge
Fe	Fe	0.50000 0.50000 -0.00000 1.09500
Fe	Fe	-0.00000 0.00000 -0.00000 0.99100
Fe	Fe	-0.00000 0.00000 0.50000 0.95500
Fe	Fe	0.50000 0.50000 0.50000 1.05100
H 	H 	0.37500 0.28400 0.01100 -0.10100
H 	H 	0.37200 0.15400 0.11500 0.04700
H 	H 	0.45700 0.19000 0.26300 -0.07100
H 	H 	0.52600 0.45900 0.20400 -0.06500
H 	H 	0.12500 0.78400 0.98900 0.02100
H 	H 	0.12800 0.65400 0.88500 0.08200
H 	H 	0.04300 0.69000 0.73700 -0.04900
H 	H 	0.97400 0.95900 0.79600 0.17100
H 	H 	0.62500 0.71600 0.98900 0.02100
H 	H 	0.62800 0.84600 0.88500 0.13600
H 	H 	0.54300 0.81000 0.73700 -0.01500
H 	H 	0.47400 0.54100 0.79600 -0.06700
H 	H 	0.87500 0.21600 0.01100 -0.09400
H 	H 	0.87200 0.34600 0.11500 0.10300
H 	H 	0.95700 0.31000 0.26300 -0.03800
H 	H 	0.02600 0.04100 0.20400 -0.33600
Au	Au	0.73154 0.24735 0.75933 0.26300
Au	Au	0.97712 0.46033 0.77643 0.32800
Au	Au	0.76846 0.74735 0.24067 0.25900
Au	Au	0.52288 0.96033 0.22357 0.28200
Au	Au	0.26846 0.75265 0.24067 0.22800
Au	Au	0.02288 0.53967 0.22357 0.19900
Au	Au	0.23154 0.25265 0.75933 0.23100
Au	Au	0.47712 0.03967 0.77643 0.25400
C 	C 	0.65320 0.34030 0.86140 -0.03000
C 	C 	0.15050 0.45920 0.88550 -0.07600
C 	C 	0.40040 0.29960 0.06890 0.11100
C 	C 	0.39320 0.21980 0.13320 -0.23300
C 	C 	0.44430 0.23940 0.22540 0.11900
C 	C 	0.49900 0.40450 0.18780 0.14400
C 	C 	0.81080 0.15550 0.65480 -0.08400
C 	C 	0.81690 0.48310 0.66390 -0.04500
C 	C 	0.84680 0.84030 0.13860 -0.06700
C 	C 	0.34950 0.95920 0.11450 -0.04700
C 	C 	0.09960 0.79960 0.93110 0.09100
C 	C 	0.10680 0.71980 0.86680 -0.16600
C 	C 	0.05570 0.73940 0.77460 0.10000
C 	C 	0.00100 0.90450 0.81220 -0.12000
C 	C 	0.68920 0.65550 0.34520 -0.06600
C 	C 	0.68310 0.98310 0.33610 0.08200
C 	C 	0.34680 0.65970 0.13860 -0.11100
C 	C 	0.84950 0.54080 0.11450 -0.03400
C 	C 	0.59960 0.70040 0.93110 0.13200
C 	C 	0.60680 0.78020 0.86680 -0.18600
C 	C 	0.55570 0.76060 0.77460 0.13300
C 	C 	0.50100 0.59550 0.81220 0.15800
C 	C 	0.18920 0.84450 0.34520 -0.09200
C 	C 	0.18310 0.51690 0.33610 -0.09300
C 	C 	0.15320 0.15970 0.86140 -0.07700
C 	C 	0.65050 0.04080 0.88550 -0.06400
C 	C 	0.90040 0.20040 0.06890 0.15600
C 	C 	0.89320 0.28020 0.13320 -0.25500
C 	C 	0.94430 0.26060 0.22540 0.15800
C 	C 	0.99900 0.09550 0.18780 0.47900
C 	C 	0.31080 0.34450 0.65480 -0.11200
C 	C 	0.31690 0.01690 0.66390 -0.22400
N 	N 	0.60510 0.39850 0.91700 -0.19300
N 	N 	0.27060 0.47130 0.93830 -0.19100
N 	N 	0.45820 0.39260 0.09640 -0.30300
N 	N 	0.49750 0.33250 0.25430 -0.18900
N 	N 	0.85710 0.10080 0.59740 -0.23900
N 	N 	0.71780 0.50020 0.60200 -0.24800
N 	N 	0.89490 0.89850 0.08300 -0.21200
N 	N 	0.22940 0.97130 0.06170 -0.24600
N 	N 	0.04180 0.89260 0.90360 -0.17400
N 	N 	0.00250 0.83250 0.74570 -0.13200
N 	N 	0.64290 0.60080 0.40260 -0.23900
N 	N 	0.78220 0.00020 0.39800 -0.33600
N 	N 	0.39490 0.60150 0.08300 -0.27500
N 	N 	0.72940 0.52870 0.06170 -0.28400
N 	N 	0.54180 0.60740 0.90360 -0.24600
N 	N 	0.50250 0.66750 0.74570 -0.17900
N 	N 	0.14290 0.89920 0.40260 -0.21900
N 	N 	0.28220 0.49980 0.39800 -0.25600
N 	N 	0.10510 0.10150 0.91700 -0.22500
N 	N 	0.77060 0.02870 0.93830 -0.19700
N 	N 	0.95820 0.10740 0.09640 -0.35700
N 	N 	0.99750 0.16750 0.25430 -0.24000
N 	N 	0.35710 0.39920 0.59740 -0.24900
N 	N 	0.21780 0.99980 0.60200 -0.13300
