data_crystal

_cell_length_a 16.16900
_cell_length_b 16.16900
_cell_length_c 18.19900
_cell_angle_alpha 90.00000
_cell_angle_beta  90.00000
_cell_angle_gamma 90.00000

_symmetry_space_group_name_	'P 1'
_symmetry_space_group_name_H-M	'P 1'

loop_
_symmetry_equiv_pos_as_xyz
  x,y,z

loop_
_atom_site_label
_atom_site_type_symbol
_atom_site_fract_x
_atom_site_fract_y
_atom_site_fract_z
_atom_site_charge
V 	V 	0.00420 0.82246 0.86407 1.63700
V 	V 	0.17532 0.83103 0.00010 1.66600
V 	V 	0.24685 0.00457 0.99245 1.61300
V 	V 	0.21390 0.25140 0.72758 1.65400
V 	V 	0.99580 0.17754 0.86407 1.68800
V 	V 	0.82468 0.16897 0.00010 1.66400
V 	V 	0.75315 0.99543 0.99245 1.66500
V 	V 	0.78610 0.74860 0.72758 1.66500
V 	V 	0.82246 0.99580 0.13593 1.68700
V 	V 	0.83103 0.82468 0.99990 1.66700
V 	V 	0.00457 0.75315 0.00755 1.61500
V 	V 	0.25140 0.78610 0.27242 1.66300
V 	V 	0.17754 0.00420 0.13593 1.63100
V 	V 	0.16897 0.17532 0.99990 1.66200
V 	V 	0.99543 0.24685 0.00755 1.66600
V 	V 	0.74860 0.21390 0.27242 1.65600
V 	V 	0.49580 0.32246 0.63593 1.65800
V 	V 	0.32468 0.33103 0.49990 1.66000
V 	V 	0.25315 0.50457 0.50755 1.63300
V 	V 	0.28610 0.75140 0.77242 1.66000
V 	V 	0.50420 0.67754 0.63593 1.66200
V 	V 	0.67532 0.66897 0.49990 1.66800
V 	V 	0.74685 0.49543 0.50755 1.64500
V 	V 	0.71390 0.24860 0.77242 1.65800
V 	V 	0.67754 0.49580 0.36407 1.66200
V 	V 	0.66897 0.32468 0.50010 1.66300
V 	V 	0.49543 0.25315 0.49245 1.63300
V 	V 	0.24860 0.28610 0.22758 1.65700
V 	V 	0.32246 0.50420 0.36407 1.65800
V 	V 	0.33103 0.67532 0.50010 1.66500
V 	V 	0.50457 0.74685 0.49245 1.64500
V 	V 	0.75140 0.71390 0.22758 1.66100
V 	V 	0.00000 0.00000 0.79698 1.61000
V 	V 	0.00000 0.00000 0.20302 1.60900
V 	V 	0.50000 0.50000 0.70302 1.66600
V 	V 	0.50000 0.50000 0.29698 1.66600
Si	Si	0.17700 0.09300 0.83770 2.05300
Si	Si	0.17990 0.91460 0.83780 2.14000
Si	Si	0.82300 0.90700 0.83770 2.04200
Si	Si	0.82010 0.08540 0.83780 1.89200
Si	Si	0.09300 0.82300 0.16230 2.05500
Si	Si	0.91460 0.82010 0.16220 2.13000
Si	Si	0.90700 0.17700 0.16230 2.03900
Si	Si	0.08540 0.17990 0.16220 1.87800
Si	Si	0.32300 0.59300 0.66230 2.04700
Si	Si	0.32010 0.41460 0.66220 2.00600
Si	Si	0.67700 0.40700 0.66230 2.05000
Si	Si	0.67990 0.58540 0.66220 2.01500
Si	Si	0.40700 0.32300 0.33770 2.04500
Si	Si	0.58540 0.32010 0.33780 2.00800
Si	Si	0.59300 0.67700 0.33770 2.05200
Si	Si	0.41460 0.67990 0.33780 2.01300
H 	H 	0.28880 0.07300 0.70690 -0.08600
H 	H 	0.24350 0.07820 0.63120 -0.16100
H 	H 	0.41530 0.06260 0.64620 0.09000
H 	H 	0.36970 0.06720 0.57080 0.05700
H 	H 	0.41790 0.93570 0.60810 -0.20500
H 	H 	0.32900 0.93990 0.57520 -0.20900
H 	H 	0.36920 0.92810 0.71330 0.10100
H 	H 	0.28020 0.93520 0.68220 0.14300
H 	H 	0.71120 0.92700 0.70690 0.12500
H 	H 	0.75650 0.92180 0.63120 0.05500
H 	H 	0.58470 0.93740 0.64620 -0.19500
H 	H 	0.63030 0.93280 0.57080 -0.23600
H 	H 	0.58210 0.06430 0.60810 0.18900
H 	H 	0.67100 0.06010 0.57520 0.18300
H 	H 	0.63080 0.07190 0.71330 -0.26900
H 	H 	0.71980 0.06480 0.68220 -0.22700
H 	H 	0.07300 0.71120 0.29310 -0.07400
H 	H 	0.07820 0.75650 0.36880 -0.13600
H 	H 	0.06260 0.58470 0.35380 0.07500
H 	H 	0.06720 0.63030 0.42920 0.04600
H 	H 	0.93570 0.58210 0.39190 -0.18600
H 	H 	0.93990 0.67100 0.42480 -0.18600
H 	H 	0.92810 0.63080 0.28670 0.08600
H 	H 	0.93520 0.71980 0.31780 0.13300
H 	H 	0.92700 0.28880 0.29310 0.12400
H 	H 	0.92180 0.24350 0.36880 0.04400
H 	H 	0.93740 0.41530 0.35380 -0.19900
H 	H 	0.93280 0.36970 0.42920 -0.24200
H 	H 	0.06430 0.41790 0.39190 0.19400
H 	H 	0.06010 0.32900 0.42480 0.18100
H 	H 	0.07190 0.36920 0.28670 -0.27400
H 	H 	0.06480 0.28020 0.31780 -0.24000
H 	H 	0.21120 0.57300 0.79310 0.02200
H 	H 	0.25650 0.57820 0.86880 -0.04700
H 	H 	0.08470 0.56260 0.85380 -0.07800
H 	H 	0.13030 0.56720 0.92920 -0.10700
H 	H 	0.08210 0.43570 0.89190 -0.01800
H 	H 	0.17100 0.43990 0.92480 -0.01000
H 	H 	0.13080 0.42810 0.78670 -0.10300
H 	H 	0.21980 0.43520 0.81780 -0.05100
H 	H 	0.78880 0.42700 0.79310 0.02100
H 	H 	0.74350 0.42180 0.86880 -0.05300
H 	H 	0.91530 0.43740 0.85380 -0.03500
H 	H 	0.86970 0.43280 0.92920 -0.07900
H 	H 	0.91790 0.56430 0.89190 0.01300
H 	H 	0.82900 0.56010 0.92480 -0.00600
H 	H 	0.86920 0.57190 0.78670 -0.07500
H 	H 	0.78020 0.56480 0.81780 -0.04500
H 	H 	0.42700 0.21120 0.20690 0.02200
H 	H 	0.42180 0.25650 0.13120 -0.04700
H 	H 	0.43740 0.08470 0.14620 -0.07900
H 	H 	0.43280 0.13030 0.07080 -0.10800
H 	H 	0.56430 0.08210 0.10810 -0.01700
H 	H 	0.56010 0.17100 0.07520 -0.00900
H 	H 	0.57190 0.13080 0.21330 -0.10300
H 	H 	0.56480 0.21980 0.18220 -0.05200
H 	H 	0.57300 0.78880 0.20690 0.02300
H 	H 	0.57820 0.74350 0.13120 -0.05200
H 	H 	0.56260 0.91530 0.14620 -0.03600
H 	H 	0.56720 0.86970 0.07080 -0.08000
H 	H 	0.43570 0.91790 0.10810 0.01500
H 	H 	0.43990 0.82900 0.07520 -0.00400
H 	H 	0.42810 0.86920 0.21330 -0.07600
H 	H 	0.43520 0.78020 0.18220 -0.04600
C 	C 	0.29400 0.09290 0.65680 0.16500
C 	C 	0.36490 0.04710 0.62100 -0.55200
C 	C 	0.36200 0.95470 0.61770 0.53700
C 	C 	0.33500 0.91290 0.67200 -0.47600
C 	C 	0.70600 0.90710 0.65680 -0.38800
C 	C 	0.63510 0.95290 0.62100 0.57100
C 	C 	0.63800 0.04530 0.61770 -0.95300
C 	C 	0.66500 0.08710 0.67200 0.65900
C 	C 	0.09290 0.70600 0.34320 0.13500
C 	C 	0.04710 0.63510 0.37900 -0.50000
C 	C 	0.95470 0.63800 0.38230 0.47100
C 	C 	0.91290 0.66500 0.32800 -0.42700
C 	C 	0.90710 0.29400 0.34320 -0.39000
C 	C 	0.95290 0.36490 0.37900 0.58400
C 	C 	0.04530 0.36200 0.38230 -0.97200
C 	C 	0.08710 0.33500 0.32800 0.67500
C 	C 	0.20600 0.59290 0.84320 -0.12900
C 	C 	0.13510 0.54710 0.87900 0.04100
C 	C 	0.13800 0.45470 0.88230 -0.23700
C 	C 	0.16500 0.41290 0.82800 0.11500
C 	C 	0.79400 0.40710 0.84320 -0.10700
C 	C 	0.86490 0.45290 0.87900 0.00800
C 	C 	0.86200 0.54530 0.88230 -0.22000
C 	C 	0.83500 0.58710 0.82800 0.10000
C 	C 	0.40710 0.20600 0.15680 -0.13100
C 	C 	0.45290 0.13510 0.12100 0.04400
C 	C 	0.54530 0.13800 0.11770 -0.24100
C 	C 	0.58710 0.16500 0.17200 0.11800
C 	C 	0.59290 0.79400 0.15680 -0.10900
C 	C 	0.54710 0.86490 0.12100 0.01100
C 	C 	0.45470 0.86200 0.11770 -0.22500
C 	C 	0.41290 0.83500 0.17200 0.10400
N 	N 	0.30000 0.18470 0.65890 -0.41100
N 	N 	0.32570 0.82610 0.67640 -0.29500
N 	N 	0.70000 0.81530 0.65890 -0.32900
N 	N 	0.67430 0.17390 0.67640 -0.47100
N 	N 	0.18470 0.70000 0.34110 -0.40100
N 	N 	0.82610 0.67430 0.32360 -0.29900
N 	N 	0.81530 0.30000 0.34110 -0.33400
N 	N 	0.17390 0.32570 0.32360 -0.47800
N 	N 	0.20000 0.68470 0.84110 -0.37100
N 	N 	0.17430 0.32610 0.82360 -0.39500
N 	N 	0.80000 0.31530 0.84110 -0.36600
N 	N 	0.82570 0.67390 0.82360 -0.37800
N 	N 	0.31530 0.20000 0.15890 -0.37200
N 	N 	0.67390 0.17430 0.17640 -0.39300
N 	N 	0.68470 0.80000 0.15890 -0.36600
N 	N 	0.32610 0.82570 0.17640 -0.37900
O 	O 	0.08480 0.79740 0.93600 -1.07900
O 	O 	0.20880 0.00250 0.80560 -1.22200
O 	O 	0.21840 0.16670 0.79720 -1.10900
O 	O 	0.20680 0.91420 0.92550 -1.18200
O 	O 	0.20020 0.09150 0.92400 -1.21900
O 	O 	0.07800 0.91380 0.83610 -1.18300
O 	O 	0.07420 0.08870 0.82740 -1.24000
O 	O 	0.92540 0.79280 0.93950 -1.05000
O 	O 	0.21820 0.83740 0.79360 -1.09900
O 	O 	0.91520 0.20260 0.93600 -1.04900
O 	O 	0.79120 0.99750 0.80560 -1.06300
O 	O 	0.78160 0.83330 0.79720 -1.09300
O 	O 	0.79320 0.08580 0.92550 -1.18300
O 	O 	0.79980 0.90850 0.92400 -1.18200
O 	O 	0.92200 0.08620 0.83610 -1.13500
O 	O 	0.92580 0.91130 0.82740 -1.13100
O 	O 	0.07460 0.20720 0.93950 -1.13100
O 	O 	0.78180 0.16260 0.79360 -1.05000
O 	O 	0.79740 0.91520 0.06400 -1.05000
O 	O 	0.00250 0.79120 0.19440 -1.21000
O 	O 	0.16670 0.78160 0.20280 -1.10100
O 	O 	0.91420 0.79320 0.07450 -1.17800
O 	O 	0.09150 0.79980 0.07600 -1.21300
O 	O 	0.91380 0.92200 0.16390 -1.14000
O 	O 	0.08870 0.92580 0.17260 -1.16900
O 	O 	0.79280 0.07460 0.06050 -1.12200
O 	O 	0.83740 0.78180 0.20640 -1.08900
O 	O 	0.20260 0.08480 0.06400 -1.08100
O 	O 	0.99750 0.20880 0.19440 -1.06000
O 	O 	0.83330 0.21840 0.20280 -1.10000
O 	O 	0.08580 0.20680 0.07450 -1.18700
O 	O 	0.90850 0.20020 0.07600 -1.18500
O 	O 	0.08620 0.07800 0.16390 -1.18200
O 	O 	0.91130 0.07420 0.17260 -1.19100
O 	O 	0.20720 0.92540 0.06050 -1.05200
O 	O 	0.16260 0.21820 0.20640 -1.05700
O 	O 	0.41520 0.29740 0.56400 -1.07200
O 	O 	0.29120 0.50250 0.69440 -1.14300
O 	O 	0.28160 0.66670 0.70280 -1.10500
O 	O 	0.29320 0.41420 0.57450 -1.18900
O 	O 	0.29980 0.59150 0.57600 -1.20400
O 	O 	0.42200 0.41380 0.66390 -1.17000
O 	O 	0.42580 0.58870 0.67260 -1.19300
O 	O 	0.57460 0.29280 0.56050 -1.09600
O 	O 	0.28180 0.33740 0.70640 -1.07800
O 	O 	0.58480 0.70260 0.56400 -1.05900
O 	O 	0.70880 0.49750 0.69440 -1.13900
O 	O 	0.71840 0.33330 0.70280 -1.09800
O 	O 	0.70680 0.58580 0.57450 -1.17800
O 	O 	0.70020 0.40850 0.57600 -1.19700
O 	O 	0.57800 0.58620 0.66390 -1.17100
O 	O 	0.57420 0.41130 0.67260 -1.19500
O 	O 	0.42540 0.70720 0.56050 -1.08300
O 	O 	0.71820 0.66260 0.70640 -1.07000
O 	O 	0.70260 0.41520 0.43600 -1.06100
O 	O 	0.49750 0.29120 0.30560 -1.14300
O 	O 	0.33330 0.28160 0.29720 -1.10600
O 	O 	0.58580 0.29320 0.42550 -1.18800
O 	O 	0.40850 0.29980 0.42400 -1.20600
O 	O 	0.58620 0.42200 0.33610 -1.16900
O 	O 	0.41130 0.42580 0.32740 -1.19400
O 	O 	0.70720 0.57460 0.43950 -1.08200
O 	O 	0.66260 0.28180 0.29360 -1.07600
O 	O 	0.29740 0.58480 0.43600 -1.07000
O 	O 	0.50250 0.70880 0.30560 -1.13900
O 	O 	0.66670 0.71840 0.29720 -1.09700
O 	O 	0.41420 0.70680 0.42550 -1.17800
O 	O 	0.59150 0.70020 0.42400 -1.19600
O 	O 	0.41380 0.57800 0.33610 -1.17200
O 	O 	0.58870 0.57420 0.32740 -1.19400
O 	O 	0.29280 0.42540 0.43950 -1.09700
O 	O 	0.33740 0.71820 0.29360 -1.07200
