data_crystal

_cell_length_a 14.61500
_cell_length_b 16.58500
_cell_length_c 20.55900
_cell_angle_alpha 99.33000
_cell_angle_beta  107.46000
_cell_angle_gamma 100.74000

_symmetry_space_group_name_	'P 1'
_symmetry_space_group_name_H-M	'P 1'

loop_
_symmetry_equiv_pos_as_xyz
  x,y,z

loop_
_atom_site_label
_atom_site_type_symbol
_atom_site_fract_x
_atom_site_fract_y
_atom_site_fract_z
_atom_site_charge
Mn	Mn	0.06038 0.22073 0.23775 1.29900
Mn	Mn	0.14861 0.06266 0.18266 1.26200
Mn	Mn	0.00992 0.39337 0.34370 1.23100
O 	O 	0.98410 0.24640 0.31060 -0.51200
O 	O 	0.94850 0.10370 0.17870 -0.46100
O 	O 	0.23990 0.03880 0.12600 -0.48300
O 	O 	0.14560 0.13700 0.28454 -0.54100
O 	O 	0.92210 0.86680 0.96110 -0.45100
O 	O 	0.98410 0.29210 0.17700 -0.45600
O 	O 	0.12990 0.95540 0.02620 -0.46100
O 	O 	0.86940 0.81870 0.84680 -0.54600
O 	O 	0.83650 0.59480 0.62560 -0.47100
O 	O 	0.99390 0.01150 0.11237 -0.54200
O 	O 	0.80760 0.67920 0.70850 -0.44600
O 	O 	0.99510 0.30870 0.41630 -0.40900
O 	O 	0.29080 0.12980 0.27890 -0.38100
O 	O 	0.59510 0.07620 0.15200 -0.19000
C 	C 	0.62670 0.89310 0.04490 -0.01600
O 	O 	0.50220 0.77560 0.97210 -0.17000
C 	C 	0.38110 0.25620 0.40800 0.02400
H 	H 	0.42210 0.24780 0.38070 0.05600
C 	C 	0.29780 0.95140 0.05310 -0.07700
C 	C 	0.82470 0.98580 0.10390 -0.06900
C 	C 	0.65140 0.97230 0.09290 0.01900
C 	C 	0.41940 0.31440 0.47270 -0.04600
C 	C 	0.98370 0.24250 0.37270 0.31700
O 	O 	0.00730 0.42150 0.24430 -0.50200
C 	C 	0.68170 0.55730 0.63900 -0.12800
C 	C 	0.39430 0.99350 0.08830 0.01800
H 	H 	0.41020 0.04520 0.12190 0.04800
C 	C 	0.97290 0.15880 0.39090 -0.01400
C 	C 	0.88820 0.80860 0.90850 0.45000
C 	C 	0.80140 0.90880 0.06080 -0.00700
H 	H 	0.85160 0.88620 0.05000 0.04100
C 	C 	0.92980 0.04010 0.13540 0.38900
C 	C 	0.47100 0.96010 0.07460 -0.00200
C 	C 	0.74920 0.01800 0.12110 -0.05000
H 	H 	0.76620 0.07150 0.15250 0.07200
C 	C 	0.55500 0.43630 0.55980 -0.06100
C 	C 	0.21720 0.98500 0.06910 0.39100
C 	C 	0.57430 0.00880 0.10930 0.09600
C 	C 	0.44400 0.88250 0.02780 -0.03800
C 	C 	0.34760 0.83870 0.99310 0.02400
H 	H 	0.33120 0.78550 0.96130 0.05000
C 	C 	0.70150 0.86230 0.03200 -0.04200
H 	H 	0.68570 0.80760 0.00250 0.06400
C 	C 	0.52490 0.84530 0.01430 0.11700
O 	O 	0.57550 0.35370 0.46320 -0.20800
C 	C 	0.28220 0.21020 0.38370 -0.11600
C 	C 	0.65010 0.48910 0.57960 0.03400
H 	H 	0.69260 0.47950 0.55360 0.04300
C 	C 	0.78230 0.61420 0.65990 0.40500
C 	C 	0.90020 0.70070 0.98050 0.07400
H 	H 	0.93660 0.74380 0.02160 0.02300
C 	C 	0.90860 0.50300 0.05500 -0.05300
C 	C 	0.27350 0.87560 0.00640 -0.07300
H 	H 	0.20580 0.84730 0.98240 0.08200
C 	C 	0.22690 0.22070 0.42310 0.03400
H 	H 	0.15970 0.18910 0.40520 0.02100
C 	C 	0.36030 0.32600 0.51330 0.01800
C 	C 	0.24070 0.15620 0.31280 0.34100
C 	C 	0.52320 0.36820 0.49810 0.16000
C 	C 	0.94300 0.39770 0.12080 -0.10200
C 	C 	0.81210 0.65670 0.85860 0.05900
H 	H 	0.78680 0.67090 0.81490 0.02500
C 	C 	0.86550 0.72060 0.91660 -0.15800
C 	C 	0.94450 0.08580 0.33850 -0.04400
H 	H 	0.92740 0.08820 0.29060 0.05400
C 	C 	0.82910 0.55100 0.92550 0.03500
C 	C 	0.98380 0.36870 0.18690 0.41200
C 	C 	0.49750 0.44500 0.60130 0.03000
C 	C 	0.88030 0.61370 0.98380 -0.05400
C 	C 	0.89550 0.33490 0.05770 0.00800
H 	H 	0.89380 0.27730 0.05740 0.04600
C 	C 	0.85830 0.43980 0.99460 0.03000
C 	C 	0.79320 0.57250 0.86060 -0.09400
H 	H 	0.75670 0.53000 0.81910 0.08400
C 	C 	0.00070 0.15590 0.46170 -0.13400
H 	H 	0.02170 0.20670 0.49700 0.09200
C 	C 	0.39700 0.39030 0.57990 0.10500
C 	C 	0.95120 0.48080 0.11960 0.02400
H 	H 	0.98490 0.52340 0.16150 0.05700
O 	O 	0.34700 0.39690 0.61900 -0.19200
C 	C 	0.62160 0.56610 0.67750 0.05000
H 	H 	0.64370 0.61120 0.71800 0.03100
C 	C 	0.96820 0.00490 0.42710 -0.06800
C 	C 	0.52970 0.51200 0.65990 -0.08800
H 	H 	0.48890 0.52030 0.68740 0.08400
C 	C 	0.91640 0.59380 0.05240 0.14700
C 	C 	0.99750 0.07980 0.48010 0.09300
O 	O 	0.95590 0.64860 0.10760 -0.19700
C 	C 	0.94180 0.00850 0.35780 -0.01700
H 	H 	0.92130 0.95780 0.32250 0.06500
C 	C 	0.26090 0.27630 0.49060 -0.07900
H 	H 	0.22010 0.28000 0.51870 0.07500
O 	O 	0.94160 0.85690 0.39900 -0.20400
C 	C 	0.85250 0.35760 0.99800 -0.05500
H 	H 	0.81680 0.31470 0.95660 0.07500
C 	C 	0.96690 0.92280 0.44630 0.19100
O 	O 	0.76420 0.40590 0.87370 -0.18200
C 	C 	0.81690 0.46110 0.92710 0.10600
Mn	Mn	0.93962 0.77927 0.76225 1.31500
Mn	Mn	0.85139 0.93734 0.81734 1.27400
Mn	Mn	0.99008 0.60663 0.65630 1.24600
O 	O 	0.01590 0.75360 0.68940 -0.53900
O 	O 	0.05150 0.89630 0.82130 -0.49300
O 	O 	0.76010 0.96120 0.87400 -0.44700
O 	O 	0.85440 0.86300 0.71546 -0.52300
O 	O 	0.07790 0.13320 0.03890 -0.48300
O 	O 	0.01590 0.70790 0.82300 -0.46100
O 	O 	0.87010 0.04460 0.97380 -0.43900
O 	O 	0.13060 0.18130 0.15320 -0.55400
O 	O 	0.16350 0.40520 0.37440 -0.48000
O 	O 	0.00610 0.98850 0.88763 -0.56000
O 	O 	0.19240 0.32080 0.29150 -0.45200
O 	O 	0.00490 0.69130 0.58370 -0.44200
O 	O 	0.70920 0.87020 0.72110 -0.37200
O 	O 	0.40490 0.92380 0.84800 -0.21500
C 	C 	0.37330 0.10690 0.95510 0.08100
O 	O 	0.49780 0.22440 0.02790 -0.19200
C 	C 	0.61890 0.74380 0.59200 0.02000
H 	H 	0.57790 0.75220 0.61930 0.05900
C 	C 	0.70220 0.04860 0.94690 -0.14400
C 	C 	0.17530 0.01420 0.89610 -0.23300
C 	C 	0.34860 0.02770 0.90710 -0.15500
C 	C 	0.58060 0.68560 0.52730 -0.04200
C 	C 	0.01630 0.75750 0.62730 0.35800
O 	O 	0.99270 0.57850 0.75570 -0.45400
C 	C 	0.31830 0.44270 0.36100 -0.13000
C 	C 	0.60570 0.00650 0.91170 0.04000
H 	H 	0.58980 0.95480 0.87810 0.06500
C 	C 	0.02710 0.84120 0.60910 -0.14500
C 	C 	0.11180 0.19140 0.09150 0.44000
C 	C 	0.19860 0.09120 0.93920 0.11000
H 	H 	0.14840 0.11380 0.95000 0.00200
C 	C 	0.07020 0.95990 0.86460 0.47100
C 	C 	0.52900 0.03990 0.92540 -0.11100
C 	C 	0.25080 0.98200 0.87890 0.15500
H 	H 	0.23380 0.92850 0.84750 0.01200
C 	C 	0.44500 0.56370 0.44020 -0.06200
C 	C 	0.78280 0.01500 0.93090 0.37200
C 	C 	0.42570 0.99120 0.89070 0.23400
C 	C 	0.55600 0.11750 0.97220 0.09700
C 	C 	0.65240 0.16130 0.00690 -0.17900
H 	H 	0.66880 0.21450 0.03870 0.10900
C 	C 	0.29850 0.13770 0.96800 -0.14000
H 	H 	0.31430 0.19240 0.99750 0.10800
C 	C 	0.47510 0.15470 0.98570 0.08200
O 	O 	0.42450 0.64630 0.53680 -0.20800
C 	C 	0.71780 0.78980 0.61630 -0.10600
C 	C 	0.34990 0.51090 0.42040 0.03500
H 	H 	0.30740 0.52050 0.44640 0.04000
C 	C 	0.21770 0.38580 0.34010 0.40600
C 	C 	0.09980 0.29930 0.01950 0.00800
H 	H 	0.06340 0.25620 0.97840 0.06000
C 	C 	0.09140 0.49700 0.94500 -0.03500
C 	C 	0.72650 0.12440 0.99360 0.12300
H 	H 	0.79420 0.15270 0.01760 -0.00400
C 	C 	0.77310 0.77930 0.57690 0.03000
H 	H 	0.84030 0.81090 0.59480 0.03400
C 	C 	0.63970 0.67400 0.48670 0.01700
C 	C 	0.75930 0.84380 0.68720 0.33700
C 	C 	0.47680 0.63180 0.50190 0.15900
C 	C 	0.05700 0.60230 0.87920 -0.11400
C 	C 	0.18790 0.34330 0.14140 0.04200
H 	H 	0.21320 0.32910 0.18510 0.02700
C 	C 	0.13450 0.27940 0.08340 -0.14400
C 	C 	0.05550 0.91420 0.66150 0.03000
H 	H 	0.07260 0.91180 0.70940 0.03300
C 	C 	0.17090 0.44900 0.07450 0.02700
C 	C 	0.01620 0.63130 0.81310 0.36500
C 	C 	0.50250 0.55500 0.39870 0.03100
C 	C 	0.11970 0.38630 0.01620 -0.07300
C 	C 	0.10450 0.66510 0.94230 0.06400
H 	H 	0.10620 0.72270 0.94260 0.02600
C 	C 	0.14170 0.56020 0.00540 0.01100
C 	C 	0.20680 0.42750 0.13940 -0.09100
H 	H 	0.24330 0.47000 0.18090 0.08000
C 	C 	0.99930 0.84410 0.53830 0.08300
H 	H 	0.97830 0.79330 0.50300 0.03500
C 	C 	0.60300 0.60970 0.42010 0.10600
C 	C 	0.04880 0.51920 0.88040 0.02100
H 	H 	0.01510 0.47660 0.83850 0.04600
O 	O 	0.65300 0.60310 0.38100 -0.18800
C 	C 	0.37840 0.43390 0.32250 0.05100
H 	H 	0.35630 0.38880 0.28200 0.03000
C 	C 	0.03180 0.99510 0.57290 0.06700
C 	C 	0.47030 0.48800 0.34010 -0.08900
H 	H 	0.51110 0.47970 0.31260 0.08400
C 	C 	0.08360 0.40620 0.94760 0.16900
C 	C 	0.00250 0.92020 0.51990 -0.11000
O 	O 	0.04410 0.35140 0.89240 -0.21200
C 	C 	0.05820 0.99150 0.64220 -0.06200
H 	H 	0.07870 0.04220 0.67750 0.05100
C 	C 	0.73910 0.72370 0.50940 -0.07200
H 	H 	0.77990 0.72000 0.48130 0.07900
O 	O 	0.05840 0.14310 0.60100 -0.18000
C 	C 	0.14750 0.64240 0.00200 -0.11900
H 	H 	0.18320 0.68530 0.04340 0.08500
C 	C 	0.03310 0.07720 0.55370 0.02800
O 	O 	0.23580 0.59410 0.12630 -0.18700
C 	C 	0.18310 0.53890 0.07290 0.09900
Mn	Mn	-0.00000 0.00000 -0.00000 1.28100
