data_crystal

_cell_length_a 11.83800
_cell_length_b 24.77200
_cell_length_c 15.77300
_cell_angle_alpha 90.00000
_cell_angle_beta  96.83400
_cell_angle_gamma 90.00000

_symmetry_space_group_name_	'P 1'
_symmetry_space_group_name_H-M	'P 1'

loop_
_symmetry_equiv_pos_as_xyz
  x,y,z

loop_
_atom_site_label
_atom_site_type_symbol
_atom_site_fract_x
_atom_site_fract_y
_atom_site_fract_z
_atom_site_charge
Co	Co	0.91188 0.33503 0.00753 1.19900
C 	C 	0.01850 0.37432 0.17410 0.40300
C 	C 	0.97970 0.37230 0.25930 -0.22600
H 	H 	0.92830 0.40240 0.26370 0.10800
H 	H 	0.93570 0.33950 0.26270 0.11900
C 	C 	0.12420 0.60863 0.15160 0.36800
C 	C 	0.10540 0.55709 0.20090 -0.17800
H 	H 	0.02450 0.55020 0.19890 0.09700
H 	H 	0.13940 0.52680 0.17430 0.09300
C 	C 	0.10320 0.46775 0.30500 -0.24200
H 	H 	0.06990 0.46530 0.24870 0.12600
C 	C 	0.15000 0.51561 0.33570 0.17400
C 	C 	0.19940 0.52077 0.41970 -0.06900
C 	C 	0.20200 0.47474 0.47060 -0.01700
H 	H 	0.23600 0.47700 0.52670 0.04600
C 	C 	0.15620 0.42554 0.44140 -0.06900
C 	C 	0.10580 0.42310 0.35820 0.18100
C 	C 	0.15910 0.37479 0.49780 0.02800
H 	H 	0.18420 0.34510 0.46340 0.05500
C 	C 	0.24770 0.37969 0.57570 -0.13900
C 	C 	0.22870 0.40740 0.64750 0.18200
H 	H 	0.15610 0.42040 0.65250 -0.02400
C 	C 	0.31540 0.41650 0.71290 -0.39200
H 	H 	0.30040 0.43580 0.76100 0.16500
C 	C 	0.42360 0.39730 0.70780 0.46400
C 	C 	0.52060 0.41060 0.77920 -0.98400
H 	H 	0.58980 0.39400 0.76620 0.33700
H 	H 	0.50150 0.39690 0.83260 0.32400
H 	H 	0.53080 0.44900 0.78300 0.31100
C 	C 	0.44140 0.36820 0.63740 -0.41500
H 	H 	0.51330 0.35410 0.63310 0.19500
C 	C 	0.35570 0.35930 0.57290 0.20200
H 	H 	0.37050 0.33890 0.52590 -0.02500
C 	C 	0.18200 0.18090 0.52670 0.40500
C 	C 	0.07790 0.21357 0.53440 -0.21100
H 	H 	0.01720 0.20230 0.49120 0.10100
H 	H 	0.05290 0.20770 0.59000 0.10200
C 	C 	0.57220 0.24638 0.53430 0.36800
C 	C 	0.65250 0.28639 0.50340 -0.20300
H 	H 	0.70310 0.26800 0.46880 0.10700
H 	H 	0.60970 0.31300 0.46770 0.11100
C 	C 	0.90740 0.28979 0.54790 -0.22300
H 	H 	0.89020 0.25350 0.55470 0.12000
C 	C 	0.82590 0.32890 0.55490 0.17600
C 	C 	0.84830 0.38333 0.54560 -0.05200
C 	C 	0.95710 0.39709 0.52790 -0.01400
H 	H 	0.97390 0.43340 0.52140 0.04900
C 	C 	0.04180 0.35945 0.51940 -0.04800
C 	C 	0.01500 0.30492 0.53080 0.17400
C 	C 	0.75440 0.42462 0.54880 0.02900
H 	H 	0.70750 0.41160 0.59170 0.04200
C 	C 	0.67620 0.42654 0.46420 -0.13600
C 	C 	0.71410 0.41440 0.38800 0.16800
H 	H 	0.79050 0.40640 0.38630 -0.02200
C 	C 	0.63860 0.41410 0.31180 -0.39200
H 	H 	0.66590 0.40570 0.26050 0.16600
C 	C 	0.52600 0.42590 0.31220 0.46400
C 	C 	0.44470 0.42430 0.22870 -0.99900
H 	H 	0.48640 0.41460 0.18230 0.32400
H 	H 	0.41090 0.45920 0.21800 0.31500
H 	H 	0.38610 0.39810 0.23350 0.33900
C 	C 	0.48940 0.43860 0.38810 -0.40400
H 	H 	0.41320 0.44740 0.38940 0.17500
C 	C 	0.56250 0.43880 0.46400 0.17700
H 	H 	0.53450 0.44730 0.51500 -0.02700
O 	O 	0.93580 0.37417 0.11490 -0.44700
O 	O 	0.11990 0.37619 0.16580 -0.28900
O 	O 	0.08930 0.60358 0.07156 -0.42500
O 	O 	0.16480 0.64871 0.18490 -0.28700
O 	O 	0.26990 0.20397 0.51130 -0.43300
O 	O 	0.17050 0.13173 0.53420 -0.32500
O 	O 	0.51640 0.21949 0.47367 -0.43000
O 	O 	0.56060 0.24159 0.61000 -0.28700
O 	O 	0.06240 0.37378 0.33085 -0.16200
O 	O 	0.15340 0.56147 0.28561 -0.17700
O 	O 	0.71780 0.31279 0.57245 -0.16300
O 	O 	0.10130 0.26900 0.52395 -0.15900
Co	Co	0.58812 0.83503 0.49247 1.20100
C 	C 	0.48150 0.87432 0.32590 0.39900
C 	C 	0.52030 0.87230 0.24070 -0.21900
H 	H 	0.57170 0.90240 0.23630 0.10800
H 	H 	0.56430 0.83950 0.23730 0.11900
C 	C 	0.37580 0.10863 0.34840 0.36900
C 	C 	0.39460 0.05709 0.29910 -0.17700
H 	H 	0.47550 0.05020 0.30110 0.09800
H 	H 	0.36060 0.02680 0.32570 0.09300
C 	C 	0.39680 0.96775 0.19500 -0.24100
H 	H 	0.43010 0.96530 0.25130 0.12600
C 	C 	0.35000 0.01561 0.16430 0.17400
C 	C 	0.30060 0.02077 0.08030 -0.07000
C 	C 	0.29800 0.97474 0.02940 -0.01200
H 	H 	0.26400 0.97700 0.97330 0.04300
C 	C 	0.34380 0.92554 0.05860 -0.07200
C 	C 	0.39420 0.92310 0.14180 0.18200
C 	C 	0.34090 0.87479 0.00220 0.03400
H 	H 	0.31580 0.84510 0.03660 0.05400
C 	C 	0.25230 0.87969 0.92430 -0.14500
C 	C 	0.27130 0.90740 0.85250 0.18700
H 	H 	0.34390 0.92040 0.84750 -0.02600
C 	C 	0.18460 0.91650 0.78710 -0.39600
H 	H 	0.19960 0.93580 0.73900 0.16700
C 	C 	0.07640 0.89730 0.79220 0.46800
C 	C 	0.97940 0.91060 0.72080 -0.98800
H 	H 	0.91020 0.89400 0.73380 0.33800
H 	H 	0.99850 0.89690 0.66740 0.32500
H 	H 	0.96920 0.94900 0.71700 0.31200
C 	C 	0.05860 0.86820 0.86260 -0.42300
H 	H 	0.98670 0.85410 0.86690 0.19900
C 	C 	0.14430 0.85930 0.92710 0.20900
H 	H 	0.12950 0.83890 0.97410 -0.02800
C 	C 	0.31800 0.68090 0.97330 0.40500
C 	C 	0.42210 0.71357 0.96560 -0.21200
H 	H 	0.48280 0.70230 0.00880 0.10200
H 	H 	0.44710 0.70770 0.91000 0.10300
C 	C 	0.92780 0.74638 0.96570 0.36900
C 	C 	0.84750 0.78639 0.99660 -0.19600
H 	H 	0.79690 0.76800 0.03120 0.10400
H 	H 	0.89030 0.81300 0.03230 0.10700
C 	C 	0.59260 0.78979 0.95210 -0.22400
H 	H 	0.60980 0.75350 0.94530 0.12100
C 	C 	0.67410 0.82890 0.94510 0.17700
C 	C 	0.65170 0.88333 0.95440 -0.05200
C 	C 	0.54290 0.89709 0.97210 -0.01300
H 	H 	0.52610 0.93340 0.97860 0.04800
C 	C 	0.45820 0.85945 0.98060 -0.05000
C 	C 	0.48500 0.80492 0.96920 0.17500
C 	C 	0.74560 0.92462 0.95120 0.02500
H 	H 	0.79250 0.91160 0.90830 0.04300
C 	C 	0.82380 0.92654 0.03580 -0.12300
C 	C 	0.78590 0.91440 0.11200 0.15200
H 	H 	0.70950 0.90640 0.11370 -0.01600
C 	C 	0.86140 0.91410 0.18820 -0.37200
H 	H 	0.83410 0.90570 0.23950 0.15900
C 	C 	0.97400 0.92590 0.18780 0.43900
C 	C 	0.05530 0.92430 0.27130 -0.97000
H 	H 	0.01360 0.91460 0.31770 0.31600
H 	H 	0.08910 0.95920 0.28200 0.30700
H 	H 	0.11390 0.89810 0.26650 0.33100
C 	C 	0.01060 0.93860 0.11190 -0.37400
H 	H 	0.08680 0.94740 0.11060 0.16500
C 	C 	0.93750 0.93880 0.03600 0.15100
H 	H 	0.96550 0.94730 0.98500 -0.01700
O 	O 	0.56420 0.87417 0.38510 -0.44400
O 	O 	0.38010 0.87619 0.33420 -0.28700
O 	O 	0.41070 0.10358 0.42844 -0.42700
O 	O 	0.33520 0.14871 0.31510 -0.28800
O 	O 	0.23010 0.70397 0.98870 -0.43300
O 	O 	0.32950 0.63173 0.96580 -0.32600
O 	O 	0.98360 0.71949 0.02633 -0.43200
O 	O 	0.93940 0.74159 0.89000 -0.28700
O 	O 	0.43760 0.87378 0.16915 -0.16300
O 	O 	0.34660 0.06147 0.21439 -0.17700
O 	O 	0.78220 0.81279 0.92755 -0.16400
O 	O 	0.39870 0.76900 0.97605 -0.15900
Co	Co	0.08812 0.66497 0.99247 1.20000
C 	C 	0.98150 0.62568 0.82590 0.40400
C 	C 	0.02030 0.62770 0.74070 -0.22500
H 	H 	0.07170 0.59760 0.73630 0.10900
H 	H 	0.06430 0.66050 0.73730 0.12000
C 	C 	0.87580 0.39137 0.84840 0.36900
C 	C 	0.89460 0.44291 0.79910 -0.17700
H 	H 	0.97550 0.44980 0.80110 0.09800
H 	H 	0.86060 0.47320 0.82570 0.09400
C 	C 	0.89680 0.53225 0.69500 -0.24100
H 	H 	0.93010 0.53470 0.75130 0.12600
C 	C 	0.85000 0.48439 0.66430 0.17400
C 	C 	0.80060 0.47923 0.58030 -0.06900
C 	C 	0.79800 0.52526 0.52940 -0.01700
H 	H 	0.76400 0.52300 0.47330 0.04600
C 	C 	0.84380 0.57446 0.55860 -0.06900
C 	C 	0.89420 0.57690 0.64180 0.18100
C 	C 	0.84090 0.62521 0.50220 0.02800
H 	H 	0.81580 0.65490 0.53660 0.05500
C 	C 	0.75230 0.62031 0.42430 -0.13900
C 	C 	0.77130 0.59260 0.35250 0.18200
H 	H 	0.84390 0.57960 0.34750 -0.02400
C 	C 	0.68460 0.58350 0.28710 -0.39200
H 	H 	0.69960 0.56420 0.23900 0.16500
C 	C 	0.57640 0.60270 0.29220 0.46400
C 	C 	0.47940 0.58940 0.22080 -0.98400
H 	H 	0.41020 0.60600 0.23380 0.33700
H 	H 	0.49850 0.60310 0.16740 0.32400
H 	H 	0.46920 0.55100 0.21700 0.31100
C 	C 	0.55860 0.63180 0.36260 -0.41500
H 	H 	0.48670 0.64590 0.36690 0.19500
C 	C 	0.64430 0.64070 0.42710 0.20200
H 	H 	0.62950 0.66110 0.47410 -0.02500
C 	C 	0.81800 0.81910 0.47330 0.40500
C 	C 	0.92210 0.78643 0.46560 -0.21100
H 	H 	0.98280 0.79770 0.50880 0.10100
H 	H 	0.94710 0.79230 0.41000 0.10200
C 	C 	0.42780 0.75362 0.46570 0.36800
C 	C 	0.34750 0.71361 0.49660 -0.20300
H 	H 	0.29690 0.73200 0.53120 0.10700
H 	H 	0.39030 0.68700 0.53230 0.11100
C 	C 	0.09260 0.71021 0.45210 -0.22300
H 	H 	0.10980 0.74650 0.44530 0.12000
C 	C 	0.17410 0.67110 0.44510 0.17600
C 	C 	0.15170 0.61667 0.45440 -0.05200
C 	C 	0.04290 0.60291 0.47210 -0.01400
H 	H 	0.02610 0.56660 0.47860 0.04900
C 	C 	0.95820 0.64055 0.48060 -0.04800
C 	C 	0.98500 0.69508 0.46920 0.17400
C 	C 	0.24560 0.57538 0.45120 0.02900
H 	H 	0.29250 0.58840 0.40830 0.04200
C 	C 	0.32380 0.57346 0.53580 -0.13600
C 	C 	0.28590 0.58560 0.61200 0.16800
H 	H 	0.20950 0.59360 0.61370 -0.02200
C 	C 	0.36140 0.58590 0.68820 -0.39200
H 	H 	0.33410 0.59430 0.73950 0.16600
C 	C 	0.47400 0.57410 0.68780 0.46400
C 	C 	0.55530 0.57570 0.77130 -0.99900
H 	H 	0.51360 0.58540 0.81770 0.32400
H 	H 	0.58910 0.54080 0.78200 0.31500
H 	H 	0.61390 0.60190 0.76650 0.33900
C 	C 	0.51060 0.56140 0.61190 -0.40400
H 	H 	0.58680 0.55260 0.61060 0.17500
C 	C 	0.43750 0.56120 0.53600 0.17700
H 	H 	0.46550 0.55270 0.48500 -0.02700
O 	O 	0.06420 0.62583 0.88510 -0.44700
O 	O 	0.88010 0.62381 0.83420 -0.28900
O 	O 	0.91070 0.39642 0.92844 -0.42500
O 	O 	0.83520 0.35129 0.81510 -0.28700
O 	O 	0.73010 0.79603 0.48870 -0.43300
O 	O 	0.82950 0.86827 0.46580 -0.32500
O 	O 	0.48360 0.78051 0.52633 -0.43000
O 	O 	0.43940 0.75841 0.39000 -0.28700
O 	O 	0.93760 0.62622 0.66915 -0.16200
O 	O 	0.84660 0.43853 0.71439 -0.17700
O 	O 	0.28220 0.68721 0.42755 -0.16300
O 	O 	0.89870 0.73100 0.47605 -0.15900
Co	Co	0.41188 0.16497 0.50753 1.20100
C 	C 	0.51850 0.12568 0.67410 0.39900
C 	C 	0.47970 0.12770 0.75930 -0.21900
H 	H 	0.42830 0.09760 0.76370 0.10800
H 	H 	0.43570 0.16050 0.76270 0.11900
C 	C 	0.62420 0.89137 0.65160 0.36900
C 	C 	0.60540 0.94291 0.70090 -0.17700
H 	H 	0.52450 0.94980 0.69890 0.09800
H 	H 	0.63940 0.97320 0.67430 0.09300
C 	C 	0.60320 0.03225 0.80500 -0.24100
H 	H 	0.56990 0.03470 0.74870 0.12600
C 	C 	0.65000 0.98439 0.83570 0.17400
C 	C 	0.69940 0.97923 0.91970 -0.07000
C 	C 	0.70200 0.02526 0.97060 -0.01200
H 	H 	0.73600 0.02300 0.02670 0.04300
C 	C 	0.65620 0.07446 0.94140 -0.07200
C 	C 	0.60580 0.07690 0.85820 0.18200
C 	C 	0.65910 0.12521 0.99780 0.03400
H 	H 	0.68420 0.15490 0.96340 0.05400
C 	C 	0.74770 0.12031 0.07570 -0.14500
C 	C 	0.72870 0.09260 0.14750 0.18700
H 	H 	0.65610 0.07960 0.15250 -0.02600
C 	C 	0.81540 0.08350 0.21290 -0.39600
H 	H 	0.80040 0.06420 0.26100 0.16700
C 	C 	0.92360 0.10270 0.20780 0.46800
C 	C 	0.02060 0.08940 0.27920 -0.98800
H 	H 	0.08980 0.10600 0.26620 0.33800
H 	H 	0.00150 0.10310 0.33260 0.32500
H 	H 	0.03080 0.05100 0.28300 0.31200
C 	C 	0.94140 0.13180 0.13740 -0.42300
H 	H 	0.01330 0.14590 0.13310 0.19900
C 	C 	0.85570 0.14070 0.07290 0.20900
H 	H 	0.87050 0.16110 0.02590 -0.02800
C 	C 	0.68200 0.31910 0.02670 0.40500
C 	C 	0.57790 0.28643 0.03440 -0.21200
H 	H 	0.51720 0.29770 0.99120 0.10200
H 	H 	0.55290 0.29230 0.09000 0.10300
C 	C 	0.07220 0.25362 0.03430 0.36900
C 	C 	0.15250 0.21361 0.00340 -0.19600
H 	H 	0.20310 0.23200 0.96880 0.10400
H 	H 	0.10970 0.18700 0.96770 0.10700
C 	C 	0.40740 0.21021 0.04790 -0.22400
H 	H 	0.39020 0.24650 0.05470 0.12100
C 	C 	0.32590 0.17110 0.05490 0.17700
C 	C 	0.34830 0.11667 0.04560 -0.05200
C 	C 	0.45710 0.10291 0.02790 -0.01300
H 	H 	0.47390 0.06660 0.02140 0.04800
C 	C 	0.54180 0.14055 0.01940 -0.05000
C 	C 	0.51500 0.19508 0.03080 0.17500
C 	C 	0.25440 0.07538 0.04880 0.02500
H 	H 	0.20750 0.08840 0.09170 0.04300
C 	C 	0.17620 0.07346 0.96420 -0.12300
C 	C 	0.21410 0.08560 0.88800 0.15200
H 	H 	0.29050 0.09360 0.88630 -0.01600
C 	C 	0.13860 0.08590 0.81180 -0.37200
H 	H 	0.16590 0.09430 0.76050 0.15900
C 	C 	0.02600 0.07410 0.81220 0.43900
C 	C 	0.94470 0.07570 0.72870 -0.97000
H 	H 	0.98640 0.08540 0.68230 0.31600
H 	H 	0.91090 0.04080 0.71800 0.30700
H 	H 	0.88610 0.10190 0.73350 0.33100
C 	C 	0.98940 0.06140 0.88810 -0.37400
H 	H 	0.91320 0.05260 0.88940 0.16500
C 	C 	0.06250 0.06120 0.96400 0.15100
H 	H 	0.03450 0.05270 0.01500 -0.01700
O 	O 	0.43580 0.12583 0.61490 -0.44400
O 	O 	0.61990 0.12381 0.66580 -0.28700
O 	O 	0.58930 0.89642 0.57156 -0.42700
O 	O 	0.66480 0.85129 0.68490 -0.28800
O 	O 	0.76990 0.29603 0.01130 -0.43300
O 	O 	0.67050 0.36827 0.03420 -0.32600
O 	O 	0.01640 0.28051 0.97367 -0.43200
O 	O 	0.06060 0.25841 0.11000 -0.28700
O 	O 	0.56240 0.12622 0.83085 -0.16300
O 	O 	0.65340 0.93853 0.78561 -0.17700
O 	O 	0.21780 0.18721 0.07245 -0.16400
O 	O 	0.60130 0.23100 0.02395 -0.15900
