data_crystal

_cell_length_a 10.76130
_cell_length_b 7.19440
_cell_length_c 17.21620
_cell_angle_alpha 90.00000
_cell_angle_beta  97.10700
_cell_angle_gamma 90.00000

_symmetry_space_group_name_	'P 1'
_symmetry_space_group_name_H-M	'P 1'

loop_
_symmetry_equiv_pos_as_xyz
  x,y,z

loop_
_atom_site_label
_atom_site_type_symbol
_atom_site_fract_x
_atom_site_fract_y
_atom_site_fract_z
_atom_site_charge
Sm	Sm	0.32635 0.51998 0.75283 2.06600
O 	O 	0.00562 0.25010 0.68506 -0.40600
O 	O 	0.20181 0.30830 0.66928 -0.60200
O 	O 	0.14320 0.68970 0.69178 -0.58000
O 	O 	0.08300 0.92150 0.61298 -0.43300
O 	O 	0.15500 0.46800 0.82406 -0.52100
O 	O 	0.11223 0.17890 0.85868 -0.49800
O 	O 	0.84830 0.18500 0.84893 -0.26000
O 	O 	0.85100 0.04790 0.96527 -0.35900
C 	C 	0.08380 0.32860 0.64884 0.36600
C 	C 	0.04150 0.42640 0.57357 -0.06000
C 	C 	0.04810 0.61820 0.56147 -0.07200
C 	C 	0.00650 0.68970 0.48790 0.01500
C 	C 	0.09450 0.75210 0.62487 0.37800
C 	C 	0.10840 0.35340 0.86640 0.46400
C 	C 	0.04680 0.42980 0.93380 -0.10100
C 	C 	0.09880 0.58900 0.97102 0.02100
C 	C 	0.94680 0.34170 0.96250 -0.03200
C 	C 	0.87810 0.18180 0.92017 0.33000
H 	H 	0.00700 0.82600 0.47800 0.05500
H 	H 	0.17800 0.64800 0.95200 0.04200
H 	H 	0.81400 0.94600 0.93600 0.19500
Sm	Sm	0.17365 0.01998 0.74717 2.04500
O 	O 	0.49438 0.75010 0.81494 -0.40200
O 	O 	0.29819 0.80830 0.83072 -0.59600
O 	O 	0.35680 0.18970 0.80822 -0.58200
O 	O 	0.41700 0.42150 0.88702 -0.44000
O 	O 	0.34500 0.96800 0.67594 -0.51500
O 	O 	0.38777 0.67890 0.64132 -0.49600
O 	O 	0.65170 0.68500 0.65107 -0.26200
O 	O 	0.64900 0.54790 0.53473 -0.36400
C 	C 	0.41620 0.82860 0.85116 0.36400
C 	C 	0.45850 0.92640 0.92643 -0.05200
C 	C 	0.45190 0.11820 0.93853 -0.07800
C 	C 	0.49350 0.18970 0.01210 0.01500
C 	C 	0.40550 0.25210 0.87513 0.38000
C 	C 	0.39160 0.85340 0.63360 0.46100
C 	C 	0.45320 0.92980 0.56620 -0.09400
C 	C 	0.40120 0.08900 0.52898 0.01900
C 	C 	0.55320 0.84170 0.53750 -0.03600
C 	C 	0.62190 0.68180 0.57983 0.33100
H 	H 	0.49300 0.32600 0.02200 0.05400
H 	H 	0.32200 0.14800 0.54800 0.04000
H 	H 	0.68600 0.44600 0.56400 0.19800
Sm	Sm	0.67365 0.48002 0.24717 2.06700
O 	O 	0.99438 0.74990 0.31494 -0.40500
O 	O 	0.79819 0.69170 0.33072 -0.60100
O 	O 	0.85680 0.31030 0.30822 -0.57900
O 	O 	0.91700 0.07850 0.38702 -0.43300
O 	O 	0.84500 0.53200 0.17594 -0.52100
O 	O 	0.88777 0.82110 0.14132 -0.49800
O 	O 	0.15170 0.81500 0.15107 -0.26000
O 	O 	0.14900 0.95210 0.03473 -0.35900
C 	C 	0.91620 0.67140 0.35116 0.36600
C 	C 	0.95850 0.57360 0.42643 -0.06000
C 	C 	0.95190 0.38180 0.43853 -0.07200
C 	C 	0.99350 0.31030 0.51210 0.01500
C 	C 	0.90550 0.24790 0.37513 0.37800
C 	C 	0.89160 0.64660 0.13360 0.46400
C 	C 	0.95320 0.57020 0.06620 -0.10100
C 	C 	0.90120 0.41100 0.02898 0.02100
C 	C 	0.05320 0.65830 0.03750 -0.03200
C 	C 	0.12190 0.81820 0.07983 0.33000
H 	H 	0.99300 0.17400 0.52200 0.05500
H 	H 	0.82200 0.35200 0.04800 0.04200
H 	H 	0.18600 0.05400 0.06400 0.19500
Sm	Sm	0.82635 0.98002 0.25283 2.04500
O 	O 	0.50562 0.24990 0.18506 -0.40200
O 	O 	0.70181 0.19170 0.16928 -0.59600
O 	O 	0.64320 0.81030 0.19178 -0.58200
O 	O 	0.58300 0.57850 0.11298 -0.44000
O 	O 	0.65500 0.03200 0.32406 -0.51500
O 	O 	0.61223 0.32110 0.35868 -0.49600
O 	O 	0.34830 0.31500 0.34893 -0.26200
O 	O 	0.35100 0.45210 0.46527 -0.36400
C 	C 	0.58380 0.17140 0.14884 0.36400
C 	C 	0.54150 0.07360 0.07357 -0.05200
C 	C 	0.54810 0.88180 0.06147 -0.07800
C 	C 	0.50650 0.81030 0.98790 0.01500
C 	C 	0.59450 0.74790 0.12487 0.38000
C 	C 	0.60840 0.14660 0.36640 0.46100
C 	C 	0.54680 0.07020 0.43380 -0.09400
C 	C 	0.59880 0.91100 0.47102 0.01900
C 	C 	0.44680 0.15830 0.46250 -0.03600
C 	C 	0.37810 0.31820 0.42017 0.33100
H 	H 	0.50700 0.67400 0.97800 0.05400
H 	H 	0.67800 0.85200 0.45200 0.04000
H 	H 	0.31400 0.55400 0.43600 0.19800
