data_crystal

_cell_length_a 11.19670
_cell_length_b 11.19670
_cell_length_c 44.08280
_cell_angle_alpha 90.00000
_cell_angle_beta  90.00000
_cell_angle_gamma 120.00000

_symmetry_space_group_name_	'P 1'
_symmetry_space_group_name_H-M	'P 1'

loop_
_symmetry_equiv_pos_as_xyz
  x,y,z

loop_
_atom_site_label
_atom_site_type_symbol
_atom_site_fract_x
_atom_site_fract_y
_atom_site_fract_z
_atom_site_charge
H 	H 	0.65300 0.79500 0.76660 0.24900
O 	O 	0.67544 0.53890 0.60344 -0.39200
O 	O 	0.48831 0.47933 0.63013 -0.40700
O 	O 	0.70670 0.75980 0.76609 -0.37400
N 	N 	0.56380 0.72960 0.58612 -0.26400
C 	C 	0.76090 0.55430 0.70926 0.04200
C 	C 	0.69950 0.69550 0.73957 0.22100
C 	C 	0.82790 0.47560 0.70584 -0.06800
H 	H 	0.87460 0.46590 0.72220 0.06700
C 	C 	0.68600 0.49940 0.65624 -0.07000
C 	C 	0.68540 0.56410 0.68415 0.01000
C 	C 	0.76820 0.62290 0.73702 -0.04700
C 	C 	0.61820 0.64150 0.68776 0.00700
H 	H 	0.56890 0.64910 0.67160 0.04000
C 	C 	0.62420 0.70550 0.71463 -0.17800
H 	H 	0.57900 0.75570 0.71660 0.10000
C 	C 	0.54570 0.78670 0.61122 0.09800
H 	H 	0.49080 0.72900 0.62670 -0.01500
C 	C 	0.61220 0.50720 0.62855 0.29800
C 	C 	0.68340 0.01580 0.59182 0.10900
C 	C 	0.70390 0.95720 0.56614 -0.14500
H 	H 	0.75780 0.01270 0.55030 0.07800
C 	C 	0.64340 0.81450 0.56428 0.08500
H 	H 	0.65910 0.77660 0.54700 -0.00500
C 	C 	0.75650 0.42940 0.65362 -0.01700
H 	H 	0.75940 0.39160 0.63500 0.04100
C 	C 	0.60480 0.92690 0.61498 -0.16700
H 	H 	0.59230 0.96230 0.63300 0.10200
C 	C 	0.82490 0.41420 0.67898 -0.02800
H 	H 	0.86820 0.36200 0.67730 0.03700
C 	C 	0.73300 0.16820 0.59520 -0.16000
H 	H 	0.77750 0.19730 0.61480 0.07400
H 	H 	0.65250 0.17920 0.59560 0.07800
H 	H 	0.20500 0.85800 0.43327 0.25200
O 	O 	0.46110 0.13654 0.27011 -0.38800
O 	O 	0.52067 0.00898 0.29680 -0.39700
O 	O 	0.24020 0.94690 0.43276 -0.38600
N 	N 	0.27040 0.83420 0.25279 -0.26800
C 	C 	0.44570 0.20660 0.37593 0.04000
C 	C 	0.30450 0.00400 0.40624 0.23800
C 	C 	0.52440 0.35230 0.37251 -0.06600
H 	H 	0.53410 0.40870 0.38887 0.06600
C 	C 	0.50060 0.18660 0.32291 -0.07200
C 	C 	0.43590 0.12130 0.35082 0.02300
C 	C 	0.37710 0.14530 0.40369 -0.05200
C 	C 	0.35850 0.97670 0.35443 -0.00800
H 	H 	0.35090 0.91980 0.33827 0.04100
C 	C 	0.29450 0.91870 0.38130 -0.18800
H 	H 	0.24430 0.82330 0.38327 0.10300
C 	C 	0.21330 0.75900 0.27789 0.09900
H 	H 	0.27100 0.76180 0.29337 -0.01800
C 	C 	0.49280 0.10500 0.29522 0.29900
C 	C 	0.98420 0.66760 0.25849 0.11300
C 	C 	0.04280 0.74670 0.23281 -0.15700
H 	H 	0.98730 0.74510 0.21697 0.08300
C 	C 	0.18550 0.82890 0.23095 0.09000
H 	H 	0.22340 0.88250 0.21367 -0.01100
C 	C 	0.57060 0.32710 0.32029 -0.01400
H 	H 	0.60840 0.36780 0.30167 0.04100
C 	C 	0.07310 0.67790 0.28165 -0.17300
H 	H 	0.03770 0.63000 0.29967 0.10300
C 	C 	0.58580 0.41070 0.34565 -0.02900
H 	H 	0.63800 0.50620 0.34397 0.03800
C 	C 	0.83180 0.56480 0.26187 -0.14600
H 	H 	0.80270 0.58020 0.28147 0.06900
H 	H 	0.82080 0.47330 0.26227 0.07400
H 	H 	0.14200 0.34700 0.09993 0.25200
O 	O 	0.86346 0.32456 0.93677 -0.38800
O 	O 	0.99102 0.51169 0.96346 -0.39700
O 	O 	0.05310 0.29330 0.09942 -0.39000
N 	N 	0.16580 0.43620 0.91945 -0.27600
C 	C 	0.79340 0.23910 0.04259 0.04000
C 	C 	0.99600 0.30050 0.07290 0.24300
C 	C 	0.64770 0.17210 0.03917 -0.06500
H 	H 	0.59130 0.12540 0.05553 0.06700
C 	C 	0.81340 0.31400 0.98957 -0.07300
C 	C 	0.87870 0.31460 0.01748 0.02500
C 	C 	0.85470 0.23180 0.07035 -0.05100
C 	C 	0.02330 0.38180 0.02109 -0.00900
H 	H 	0.08020 0.43110 0.00493 0.04100
C 	C 	0.08130 0.37580 0.04796 -0.19200
H 	H 	0.17670 0.42100 0.04993 0.10300
C 	C 	0.24100 0.45430 0.94455 0.11800
H 	H 	0.23820 0.50920 0.96003 -0.02400
C 	C 	0.89500 0.38780 0.96188 0.29900
C 	C 	0.33240 0.31660 0.92515 0.16100
C 	C 	0.25330 0.29610 0.89947 -0.20300
H 	H 	0.25490 0.24220 0.88363 0.10100
C 	C 	0.17110 0.35660 0.89761 0.11100
H 	H 	0.11750 0.34090 0.88033 -0.01900
C 	C 	0.67290 0.24350 0.98695 -0.01300
H 	H 	0.63220 0.24060 0.96833 0.04000
C 	C 	0.32210 0.39520 0.94831 -0.21100
H 	H 	0.37000 0.40770 0.96633 0.11200
C 	C 	0.58930 0.17510 0.01231 -0.03000
H 	H 	0.49380 0.13180 0.01063 0.03900
C 	C 	0.43520 0.26700 0.92853 -0.19200
H 	H 	0.41980 0.22250 0.94813 0.08400
H 	H 	0.52670 0.34750 0.92893 0.08900
H 	H 	0.20500 0.34700 0.40007 0.25000
O 	O 	0.46110 0.32456 0.56323 -0.39200
O 	O 	0.52067 0.51169 0.53654 -0.40700
O 	O 	0.24020 0.29330 0.40058 -0.37400
N 	N 	0.27040 0.43620 0.58055 -0.26400
C 	C 	0.44570 0.23910 0.45741 0.04200
C 	C 	0.30450 0.30050 0.42710 0.22100
C 	C 	0.52440 0.17210 0.46083 -0.06800
H 	H 	0.53410 0.12540 0.44447 0.06700
C 	C 	0.50060 0.31400 0.51043 -0.07000
C 	C 	0.43590 0.31460 0.48252 0.01000
C 	C 	0.37710 0.23180 0.42965 -0.04700
C 	C 	0.35850 0.38180 0.47891 0.00700
H 	H 	0.35090 0.43110 0.49507 0.04000
C 	C 	0.29450 0.37580 0.45204 -0.17800
H 	H 	0.24430 0.42100 0.45007 0.10000
C 	C 	0.21330 0.45430 0.55545 0.09800
H 	H 	0.27100 0.50920 0.53997 -0.01500
C 	C 	0.49280 0.38780 0.53812 0.29800
C 	C 	0.98420 0.31660 0.57485 0.10900
C 	C 	0.04280 0.29610 0.60053 -0.14500
H 	H 	0.98730 0.24220 0.61637 0.07800
C 	C 	0.18550 0.35660 0.60239 0.08500
H 	H 	0.22340 0.34090 0.61967 -0.00500
C 	C 	0.57060 0.24350 0.51305 -0.01700
H 	H 	0.60840 0.24060 0.53167 0.04100
C 	C 	0.07310 0.39520 0.55169 -0.16700
H 	H 	0.03770 0.40770 0.53367 0.10200
C 	C 	0.58580 0.17510 0.48769 -0.02800
H 	H 	0.63800 0.13180 0.48937 0.03700
C 	C 	0.83180 0.26700 0.57147 -0.16000
H 	H 	0.80270 0.22250 0.55187 0.07400
H 	H 	0.82080 0.34750 0.57107 0.07800
H 	H 	0.14200 0.79500 0.73340 0.25200
O 	O 	0.86346 0.53890 0.89656 -0.38800
O 	O 	0.99102 0.47933 0.86987 -0.39700
O 	O 	0.05310 0.75980 0.73391 -0.38600
N 	N 	0.16580 0.72960 0.91388 -0.26800
C 	C 	0.79340 0.55430 0.79074 0.04000
C 	C 	0.99600 0.69550 0.76043 0.23800
C 	C 	0.64770 0.47560 0.79416 -0.06600
H 	H 	0.59130 0.46590 0.77780 0.06600
C 	C 	0.81340 0.49940 0.84376 -0.07200
C 	C 	0.87870 0.56410 0.81585 0.02300
C 	C 	0.85470 0.62290 0.76298 -0.05200
C 	C 	0.02330 0.64150 0.81224 -0.00800
H 	H 	0.08020 0.64910 0.82840 0.04100
C 	C 	0.08130 0.70550 0.78537 -0.18800
H 	H 	0.17670 0.75570 0.78340 0.10300
C 	C 	0.24100 0.78670 0.88878 0.09900
H 	H 	0.23820 0.72900 0.87330 -0.01800
C 	C 	0.89500 0.50720 0.87145 0.29900
C 	C 	0.33240 0.01580 0.90818 0.11300
C 	C 	0.25330 0.95720 0.93386 -0.15700
H 	H 	0.25490 0.01270 0.94970 0.08300
C 	C 	0.17110 0.81450 0.93572 0.09000
H 	H 	0.11750 0.77660 0.95300 -0.01100
C 	C 	0.67290 0.42940 0.84638 -0.01400
H 	H 	0.63220 0.39160 0.86500 0.04100
C 	C 	0.32210 0.92690 0.88502 -0.17300
H 	H 	0.37000 0.96230 0.86700 0.10300
C 	C 	0.58930 0.41420 0.82102 -0.02900
H 	H 	0.49380 0.36200 0.82270 0.03800
C 	C 	0.43520 0.16820 0.90480 -0.14600
H 	H 	0.41980 0.19730 0.88520 0.06900
H 	H 	0.52670 0.17920 0.90440 0.07400
H 	H 	0.65300 0.85800 0.06673 0.25200
O 	O 	0.67544 0.13654 0.22989 -0.38800
O 	O 	0.48831 0.00898 0.20320 -0.39700
O 	O 	0.70670 0.94690 0.06724 -0.39000
N 	N 	0.56380 0.83420 0.24721 -0.27600
C 	C 	0.76090 0.20660 0.12407 0.04000
C 	C 	0.69950 0.00400 0.09376 0.24300
C 	C 	0.82790 0.35230 0.12749 -0.06500
H 	H 	0.87460 0.40870 0.11113 0.06700
C 	C 	0.68600 0.18660 0.17709 -0.07300
C 	C 	0.68540 0.12130 0.14918 0.02500
C 	C 	0.76820 0.14530 0.09631 -0.05100
C 	C 	0.61820 0.97670 0.14557 -0.00900
H 	H 	0.56890 0.91980 0.16173 0.04100
C 	C 	0.62420 0.91870 0.11870 -0.19200
H 	H 	0.57900 0.82330 0.11673 0.10300
C 	C 	0.54570 0.75900 0.22211 0.11800
H 	H 	0.49080 0.76180 0.20663 -0.02400
C 	C 	0.61220 0.10500 0.20478 0.29900
C 	C 	0.68340 0.66760 0.24151 0.16100
C 	C 	0.70390 0.74670 0.26719 -0.20300
H 	H 	0.75780 0.74510 0.28303 0.10100
C 	C 	0.64340 0.82890 0.26905 0.11100
H 	H 	0.65910 0.88250 0.28633 -0.01900
C 	C 	0.75650 0.32710 0.17971 -0.01300
H 	H 	0.75940 0.36780 0.19833 0.04000
C 	C 	0.60480 0.67790 0.21835 -0.21100
H 	H 	0.59230 0.63000 0.20033 0.11200
C 	C 	0.82490 0.41070 0.15435 -0.03000
H 	H 	0.86820 0.50620 0.15603 0.03900
C 	C 	0.73300 0.56480 0.23813 -0.19200
H 	H 	0.77750 0.58020 0.21853 0.08400
H 	H 	0.65250 0.47330 0.23773 0.08900
Zn	Zn	0.48155 0.51845 0.58333 1.21000
Zn	Zn	0.48155 0.96310 0.25000 1.20400
Zn	Zn	0.03690 0.51845 0.91667 1.20400
H 	H 	0.34700 0.20500 0.26660 0.25000
O 	O 	0.32456 0.46110 0.10344 -0.39200
O 	O 	0.51169 0.52067 0.13013 -0.40700
O 	O 	0.29330 0.24020 0.26609 -0.37400
N 	N 	0.43620 0.27040 0.08612 -0.26400
C 	C 	0.23910 0.44570 0.20926 0.04200
C 	C 	0.30050 0.30450 0.23957 0.22100
C 	C 	0.17210 0.52440 0.20584 -0.06800
H 	H 	0.12540 0.53410 0.22220 0.06700
C 	C 	0.31400 0.50060 0.15624 -0.07000
C 	C 	0.31460 0.43590 0.18415 0.01000
C 	C 	0.23180 0.37710 0.23702 -0.04700
C 	C 	0.38180 0.35850 0.18776 0.00700
H 	H 	0.43110 0.35090 0.17160 0.04000
C 	C 	0.37580 0.29450 0.21463 -0.17800
H 	H 	0.42100 0.24430 0.21660 0.10000
C 	C 	0.45430 0.21330 0.11122 0.09800
H 	H 	0.50920 0.27100 0.12670 -0.01500
C 	C 	0.38780 0.49280 0.12855 0.29800
C 	C 	0.31660 0.98420 0.09182 0.10900
C 	C 	0.29610 0.04280 0.06614 -0.14500
H 	H 	0.24220 0.98730 0.05030 0.07800
C 	C 	0.35660 0.18550 0.06428 0.08500
H 	H 	0.34090 0.22340 0.04700 -0.00500
C 	C 	0.24350 0.57060 0.15362 -0.01700
H 	H 	0.24060 0.60840 0.13500 0.04100
C 	C 	0.39520 0.07310 0.11498 -0.16700
H 	H 	0.40770 0.03770 0.13300 0.10200
C 	C 	0.17510 0.58580 0.17898 -0.02800
H 	H 	0.13180 0.63800 0.17730 0.03700
C 	C 	0.26700 0.83180 0.09520 -0.16000
H 	H 	0.22250 0.80270 0.11480 0.07400
H 	H 	0.34750 0.82080 0.09560 0.07800
H 	H 	0.79500 0.14200 0.93327 0.25200
O 	O 	0.53890 0.86346 0.77011 -0.38800
O 	O 	0.47933 0.99102 0.79680 -0.39700
O 	O 	0.75980 0.05310 0.93276 -0.38600
N 	N 	0.72960 0.16580 0.75279 -0.26800
C 	C 	0.55430 0.79340 0.87593 0.04100
C 	C 	0.69550 0.99600 0.90624 0.23800
C 	C 	0.47560 0.64770 0.87251 -0.06600
H 	H 	0.46590 0.59130 0.88887 0.06600
C 	C 	0.49940 0.81340 0.82291 -0.07200
C 	C 	0.56410 0.87870 0.85082 0.02300
C 	C 	0.62290 0.85470 0.90369 -0.05200
C 	C 	0.64150 0.02330 0.85443 -0.00800
H 	H 	0.64910 0.08020 0.83827 0.04100
C 	C 	0.70550 0.08130 0.88130 -0.18800
H 	H 	0.75570 0.17670 0.88327 0.10300
C 	C 	0.78670 0.24100 0.77789 0.09900
H 	H 	0.72900 0.23820 0.79337 -0.01800
C 	C 	0.50720 0.89500 0.79522 0.29900
C 	C 	0.01580 0.33240 0.75849 0.11300
C 	C 	0.95720 0.25330 0.73281 -0.15700
H 	H 	0.01270 0.25490 0.71697 0.08300
C 	C 	0.81450 0.17110 0.73095 0.09000
H 	H 	0.77660 0.11750 0.71367 -0.01100
C 	C 	0.42940 0.67290 0.82029 -0.01400
H 	H 	0.39160 0.63220 0.80167 0.04100
C 	C 	0.92690 0.32210 0.78165 -0.17300
H 	H 	0.96230 0.37000 0.79967 0.10300
C 	C 	0.41420 0.58930 0.84565 -0.02900
H 	H 	0.36200 0.49380 0.84397 0.03800
C 	C 	0.16820 0.43520 0.76187 -0.14600
H 	H 	0.19730 0.41980 0.78147 0.06900
H 	H 	0.17920 0.52670 0.76227 0.07400
H 	H 	0.85800 0.65300 0.59993 0.25200
O 	O 	0.13654 0.67544 0.43677 -0.38900
O 	O 	0.00898 0.48831 0.46346 -0.39700
O 	O 	0.94690 0.70670 0.59942 -0.39000
N 	N 	0.83420 0.56380 0.41945 -0.27600
C 	C 	0.20660 0.76090 0.54259 0.04000
C 	C 	0.00400 0.69950 0.57290 0.24300
C 	C 	0.35230 0.82790 0.53917 -0.06500
H 	H 	0.40870 0.87460 0.55553 0.06700
C 	C 	0.18660 0.68600 0.48957 -0.07300
C 	C 	0.12130 0.68540 0.51748 0.02500
C 	C 	0.14530 0.76820 0.57035 -0.05100
C 	C 	0.97670 0.61820 0.52109 -0.00900
H 	H 	0.91980 0.56890 0.50493 0.04100
C 	C 	0.91870 0.62420 0.54796 -0.19200
H 	H 	0.82330 0.57900 0.54993 0.10300
C 	C 	0.75900 0.54570 0.44455 0.11800
H 	H 	0.76180 0.49080 0.46003 -0.02400
C 	C 	0.10500 0.61220 0.46188 0.29900
C 	C 	0.66760 0.68340 0.42515 0.16100
C 	C 	0.74670 0.70390 0.39947 -0.20300
H 	H 	0.74510 0.75780 0.38363 0.10100
C 	C 	0.82890 0.64340 0.39761 0.11100
H 	H 	0.88250 0.65910 0.38033 -0.01900
C 	C 	0.32710 0.75650 0.48695 -0.01300
H 	H 	0.36780 0.75940 0.46833 0.04000
C 	C 	0.67790 0.60480 0.44831 -0.21100
H 	H 	0.63000 0.59230 0.46633 0.11200
C 	C 	0.41070 0.82490 0.51231 -0.03000
H 	H 	0.50620 0.86820 0.51063 0.03900
C 	C 	0.56480 0.73300 0.42853 -0.19200
H 	H 	0.58020 0.77750 0.44813 0.08400
H 	H 	0.47330 0.65250 0.42893 0.08900
H 	H 	0.79500 0.65300 0.90007 0.25000
O 	O 	0.53890 0.67544 0.06323 -0.39200
O 	O 	0.47933 0.48831 0.03654 -0.40700
O 	O 	0.75980 0.70670 0.90058 -0.37400
N 	N 	0.72960 0.56380 0.08055 -0.26400
C 	C 	0.55430 0.76090 0.95741 0.04200
C 	C 	0.69550 0.69950 0.92710 0.22100
C 	C 	0.47560 0.82790 0.96083 -0.06800
H 	H 	0.46590 0.87460 0.94447 0.06700
C 	C 	0.49940 0.68600 0.01043 -0.07000
C 	C 	0.56410 0.68540 0.98252 0.01000
C 	C 	0.62290 0.76820 0.92965 -0.04700
C 	C 	0.64150 0.61820 0.97891 0.00700
H 	H 	0.64910 0.56890 0.99507 0.04000
C 	C 	0.70550 0.62420 0.95204 -0.17800
H 	H 	0.75570 0.57900 0.95007 0.10000
C 	C 	0.78670 0.54570 0.05545 0.09800
H 	H 	0.72900 0.49080 0.03997 -0.01500
C 	C 	0.50720 0.61220 0.03812 0.29800
C 	C 	0.01580 0.68340 0.07485 0.10900
C 	C 	0.95720 0.70390 0.10053 -0.14500
H 	H 	0.01270 0.75780 0.11637 0.07800
C 	C 	0.81450 0.64340 0.10239 0.08600
H 	H 	0.77660 0.65910 0.11967 -0.00500
C 	C 	0.42940 0.75650 0.01305 -0.01700
H 	H 	0.39160 0.75940 0.03167 0.04100
C 	C 	0.92690 0.60480 0.05169 -0.16800
H 	H 	0.96230 0.59230 0.03367 0.10200
C 	C 	0.41420 0.82490 0.98769 -0.02800
H 	H 	0.36200 0.86820 0.98937 0.03700
C 	C 	0.16820 0.73300 0.07147 -0.16000
H 	H 	0.19730 0.77750 0.05187 0.07400
H 	H 	0.17920 0.65250 0.07107 0.07800
H 	H 	0.85800 0.20500 0.23340 0.25200
O 	O 	0.13654 0.46110 0.39656 -0.38800
O 	O 	0.00898 0.52067 0.36987 -0.39700
O 	O 	0.94690 0.24020 0.23391 -0.38600
N 	N 	0.83420 0.27040 0.41388 -0.26800
C 	C 	0.20660 0.44570 0.29074 0.04100
C 	C 	0.00400 0.30450 0.26043 0.23800
C 	C 	0.35230 0.52440 0.29416 -0.06600
H 	H 	0.40870 0.53410 0.27780 0.06600
C 	C 	0.18660 0.50060 0.34376 -0.07200
C 	C 	0.12130 0.43590 0.31585 0.02300
C 	C 	0.14530 0.37710 0.26298 -0.05200
C 	C 	0.97670 0.35850 0.31224 -0.00800
H 	H 	0.91980 0.35090 0.32840 0.04100
C 	C 	0.91870 0.29450 0.28537 -0.18800
H 	H 	0.82330 0.24430 0.28340 0.10300
C 	C 	0.75900 0.21330 0.38878 0.09900
H 	H 	0.76180 0.27100 0.37330 -0.01800
C 	C 	0.10500 0.49280 0.37145 0.29900
C 	C 	0.66760 0.98420 0.40818 0.11300
C 	C 	0.74670 0.04280 0.43386 -0.15700
H 	H 	0.74510 0.98730 0.44970 0.08300
C 	C 	0.82890 0.18550 0.43572 0.09000
H 	H 	0.88250 0.22340 0.45300 -0.01100
C 	C 	0.32710 0.57060 0.34638 -0.01400
H 	H 	0.36780 0.60840 0.36500 0.04100
C 	C 	0.67790 0.07310 0.38502 -0.17300
H 	H 	0.63000 0.03770 0.36700 0.10300
C 	C 	0.41070 0.58580 0.32102 -0.02900
H 	H 	0.50620 0.63800 0.32270 0.03800
C 	C 	0.56480 0.83180 0.40480 -0.14600
H 	H 	0.58020 0.80270 0.38520 0.06900
H 	H 	0.47330 0.82080 0.40440 0.07400
H 	H 	0.34700 0.14200 0.56673 0.25200
O 	O 	0.32456 0.86346 0.72989 -0.38800
O 	O 	0.51169 0.99102 0.70320 -0.39700
O 	O 	0.29330 0.05310 0.56724 -0.39000
N 	N 	0.43620 0.16580 0.74721 -0.27600
C 	C 	0.23910 0.79340 0.62407 0.04000
C 	C 	0.30050 0.99600 0.59376 0.24300
C 	C 	0.17210 0.64770 0.62749 -0.06500
H 	H 	0.12540 0.59130 0.61113 0.06700
C 	C 	0.31400 0.81340 0.67709 -0.07300
C 	C 	0.31460 0.87870 0.64918 0.02500
C 	C 	0.23180 0.85470 0.59631 -0.05100
C 	C 	0.38180 0.02330 0.64557 -0.00900
H 	H 	0.43110 0.08020 0.66173 0.04100
C 	C 	0.37580 0.08130 0.61870 -0.19200
H 	H 	0.42100 0.17670 0.61673 0.10300
C 	C 	0.45430 0.24100 0.72211 0.11800
H 	H 	0.50920 0.23820 0.70663 -0.02400
C 	C 	0.38780 0.89500 0.70478 0.29900
C 	C 	0.31660 0.33240 0.74151 0.16100
C 	C 	0.29610 0.25330 0.76719 -0.20300
H 	H 	0.24220 0.25490 0.78303 0.10100
C 	C 	0.35660 0.17110 0.76905 0.11100
H 	H 	0.34090 0.11750 0.78633 -0.01900
C 	C 	0.24350 0.67290 0.67971 -0.01300
H 	H 	0.24060 0.63220 0.69833 0.04000
C 	C 	0.39520 0.32210 0.71835 -0.21100
H 	H 	0.40770 0.37000 0.70033 0.11200
C 	C 	0.17510 0.58930 0.65435 -0.03000
H 	H 	0.13180 0.49380 0.65603 0.03900
C 	C 	0.26700 0.43520 0.73813 -0.19200
H 	H 	0.22250 0.41980 0.71853 0.08400
H 	H 	0.34750 0.52670 0.73773 0.08900
Zn	Zn	0.51845 0.48155 0.08333 1.21000
Zn	Zn	0.51845 0.03690 0.75000 1.20400
Zn	Zn	0.96310 0.48155 0.41667 1.20400
