data_crystal

_cell_length_a 31.28100
_cell_length_b 10.56760
_cell_length_c 19.87500
_cell_angle_alpha 90.00000
_cell_angle_beta  94.44400
_cell_angle_gamma 90.00000

_symmetry_space_group_name_	'P 1'
_symmetry_space_group_name_H-M	'P 1'

loop_
_symmetry_equiv_pos_as_xyz
  x,y,z

loop_
_atom_site_label
_atom_site_type_symbol
_atom_site_fract_x
_atom_site_fract_y
_atom_site_fract_z
_atom_site_charge
Co	Co	0.32813 0.84107 0.25700 1.19000
O 	O 	0.26669 0.85700 0.20796 -0.41000
O 	O 	0.39024 0.79600 0.30321 -0.47600
H 	H 	0.40130 0.86000 0.32020 0.29000
O 	O 	0.05165 0.96110 0.07344 -0.39400
O 	O 	0.09579 0.12570 0.09058 -0.26800
O 	O 	0.25040 0.04620 0.16497 -0.32100
C 	C 	0.12206 0.92250 0.12262 -0.10900
C 	C 	0.16317 0.96790 0.13757 0.09800
H 	H 	0.16930 0.05230 0.12910 0.00900
N 	N 	0.32832 0.65660 0.21517 -0.16700
O 	O 	0.29424 0.77200 0.34025 -0.45400
H 	H 	0.28280 0.70430 0.32980 0.27300
N 	N 	0.98896 0.18780 0.03346 -0.16200
N 	N 	0.02060 0.25860 0.06297 -0.16200
H 	H 	0.04620 0.23150 0.07310 0.13000
C 	C 	0.19543 0.88900 0.16515 -0.14600
C 	C 	0.24083 0.93560 0.18016 0.39600
C 	C 	0.14496 0.71370 0.16040 -0.13200
C 	C 	0.08715 0.01030 0.09315 0.30200
C 	C 	0.95540 0.26520 0.02687 -0.03300
H 	H 	0.92850 0.24160 0.00780 0.03300
C 	C 	0.96510 0.38500 0.05161 0.09700
C 	C 	0.11292 0.79480 0.13277 0.05000
H 	H 	0.08550 0.76380 0.12120 0.02600
C 	C 	0.18546 0.76380 0.17768 0.07100
H 	H 	0.20650 0.71160 0.19830 0.02900
C 	C 	0.00749 0.37720 0.07483 -0.06800
H 	H 	0.02410 0.44190 0.09500 0.05500
C 	C 	0.33992 0.46130 0.17501 0.06600
C 	C 	0.35774 0.57140 0.20400 -0.01100
H 	H 	0.38700 0.58330 0.21430 0.05100
N 	N 	0.29123 0.60090 0.19306 -0.15000
H 	H 	0.26660 0.63650 0.19390 0.12100
C 	C 	0.93663 0.49970 0.05220 -0.25800
H 	H 	0.95360 0.57100 0.06960 0.11300
H 	H 	0.92630 0.51940 0.00620 0.10300
C 	C 	0.36199 0.34130 0.15800 -0.23800
H 	H 	0.34420 0.29670 0.12360 0.10500
H 	H 	0.36480 0.28800 0.19780 0.10900
C 	C 	0.29692 0.48440 0.16960 -0.01400
H 	H 	0.27550 0.42920 0.15270 0.05600
C 	C 	0.40563 0.36090 0.13310 0.05800
C 	C 	0.41708 0.42940 0.07840 -0.01400
H 	H 	0.39760 0.47420 0.04990 0.02900
C 	C 	0.44290 0.30880 0.15670 -0.01100
H 	H 	0.44650 0.25430 0.19350 0.03900
N 	N 	0.45881 0.42510 0.07059 -0.17900
N 	N 	0.47363 0.34720 0.11960 -0.15000
H 	H 	0.50000 0.32460 0.12620 0.11000
N 	N 	0.85746 0.42430 0.17675 -0.17200
C 	C 	0.89888 0.48430 0.09360 0.06500
N 	N 	0.83619 0.50690 0.13462 -0.15700
H 	H 	0.81050 0.53270 0.13890 0.13100
C 	C 	0.85993 0.54350 0.08590 -0.01200
H 	H 	0.85150 0.60040 0.05170 0.03700
C 	C 	0.89545 0.41090 0.15140 -0.02000
H 	H 	0.91720 0.35880 0.17010 0.04800
O 	O 	0.16939 0.51173 0.19252 -0.39600
O 	O 	0.09985 0.53350 0.16018 -0.30200
C 	C 	0.13745 0.57750 0.17260 0.34400
Co	Co	0.82813 0.34107 0.25700 1.18400
O 	O 	0.76669 0.35700 0.20796 -0.40800
O 	O 	0.89024 0.29600 0.30321 -0.47700
H 	H 	0.90130 0.36000 0.32020 0.28500
O 	O 	0.55165 0.46110 0.07344 -0.41900
O 	O 	0.59579 0.62570 0.09058 -0.27500
O 	O 	0.75040 0.54620 0.16497 -0.30200
C 	C 	0.62206 0.42250 0.12262 -0.12300
C 	C 	0.66317 0.46790 0.13757 0.05600
H 	H 	0.66930 0.55230 0.12910 0.03400
N 	N 	0.82832 0.15660 0.21517 -0.16300
O 	O 	0.79424 0.27200 0.34025 -0.45900
H 	H 	0.78280 0.20430 0.32980 0.27400
N 	N 	0.48896 0.68780 0.03346 -0.18100
N 	N 	0.52060 0.75860 0.06297 -0.16100
H 	H 	0.54620 0.73150 0.07310 0.13500
C 	C 	0.69543 0.38900 0.16515 -0.12800
C 	C 	0.74083 0.43560 0.18016 0.36400
C 	C 	0.64496 0.21370 0.16040 -0.13200
C 	C 	0.58715 0.51030 0.09315 0.34300
C 	C 	0.45540 0.76520 0.02687 -0.00400
H 	H 	0.42850 0.74160 0.00780 0.02400
C 	C 	0.46510 0.88500 0.05161 0.02600
C 	C 	0.61292 0.29480 0.13277 0.05200
H 	H 	0.58550 0.26380 0.12120 0.02400
C 	C 	0.68546 0.26380 0.17768 0.06000
H 	H 	0.70650 0.21160 0.19830 0.03100
C 	C 	0.50749 0.87720 0.07483 -0.00200
H 	H 	0.52410 0.94190 0.09500 0.04300
C 	C 	0.83992 0.96130 0.17501 0.09100
C 	C 	0.85774 0.07140 0.20400 -0.04400
H 	H 	0.88700 0.08330 0.21430 0.05800
N 	N 	0.79123 0.10090 0.19306 -0.16000
H 	H 	0.76660 0.13650 0.19390 0.12000
C 	C 	0.43663 0.99970 0.05220 -0.14600
H 	H 	0.45360 0.07100 0.06960 0.06400
H 	H 	0.42630 0.01940 0.00620 0.05800
C 	C 	0.86199 0.84130 0.15800 -0.25500
H 	H 	0.84420 0.79670 0.12360 0.11100
H 	H 	0.86480 0.78800 0.19780 0.11600
C 	C 	0.79692 0.98440 0.16960 -0.00400
H 	H 	0.77550 0.92920 0.15270 0.05600
C 	C 	0.90563 0.86090 0.13310 0.07200
C 	C 	0.91708 0.92940 0.07840 -0.01700
H 	H 	0.89760 0.97420 0.04990 0.03700
C 	C 	0.94290 0.80880 0.15670 -0.02000
H 	H 	0.94650 0.75430 0.19350 0.05100
N 	N 	0.95881 0.92510 0.07059 -0.16800
N 	N 	0.97363 0.84720 0.11960 -0.12400
H 	H 	-0.00000 0.82460 0.12620 0.08700
N 	N 	0.35746 0.92430 0.17675 -0.16600
C 	C 	0.39888 0.98430 0.09360 0.05100
N 	N 	0.33619 0.00690 0.13462 -0.16400
H 	H 	0.31050 0.03270 0.13890 0.13000
C 	C 	0.35993 0.04350 0.08590 -0.01800
H 	H 	0.35150 0.10040 0.05170 0.03600
C 	C 	0.39545 0.91090 0.15140 -0.00400
H 	H 	0.41720 0.85880 0.17010 0.04200
O 	O 	0.66939 0.01173 0.19252 -0.40600
O 	O 	0.59985 0.03350 0.16018 -0.31000
C 	C 	0.63745 0.07750 0.17260 0.34400
Co	Co	0.67187 0.84107 0.24300 1.18800
O 	O 	0.73331 0.85700 0.29204 -0.40900
O 	O 	0.60976 0.79600 0.19679 -0.47700
H 	H 	0.59870 0.86000 0.17980 0.28700
O 	O 	0.94835 0.96110 0.42656 -0.36800
O 	O 	0.90421 0.12570 0.40942 -0.25500
O 	O 	0.74960 0.04620 0.33503 -0.31700
C 	C 	0.87794 0.92250 0.37738 -0.09700
C 	C 	0.83683 0.96790 0.36243 0.09200
H 	H 	0.83070 0.05230 0.37090 0.01600
N 	N 	0.67168 0.65660 0.28483 -0.16600
O 	O 	0.70576 0.77200 0.15975 -0.46100
H 	H 	0.71720 0.70430 0.17020 0.27400
N 	N 	0.01104 0.18780 0.46654 -0.18800
N 	N 	0.97940 0.25860 0.43703 -0.15300
H 	H 	0.95380 0.23150 0.42690 0.14000
C 	C 	0.80457 0.88900 0.33485 -0.13800
C 	C 	0.75917 0.93560 0.31984 0.39400
C 	C 	0.85504 0.71370 0.33960 -0.12200
C 	C 	0.91285 0.01030 0.40685 0.30200
C 	C 	0.04460 0.26520 0.47313 -0.00200
H 	H 	0.07150 0.24160 0.49220 0.03500
C 	C 	0.03490 0.38500 0.44839 0.01700
C 	C 	0.88708 0.79480 0.36723 0.04600
H 	H 	0.91450 0.76380 0.37880 0.03800
C 	C 	0.81454 0.76380 0.32232 0.06700
H 	H 	0.79350 0.71160 0.30170 0.03200
C 	C 	0.99251 0.37720 0.42517 0.03700
H 	H 	0.97590 0.44190 0.40500 0.03800
C 	C 	0.66008 0.46130 0.32499 0.07000
C 	C 	0.64226 0.57140 0.29600 -0.01200
H 	H 	0.61300 0.58330 0.28570 0.05100
N 	N 	0.70877 0.60090 0.30694 -0.14900
H 	H 	0.73340 0.63650 0.30610 0.12300
C 	C 	0.06337 0.49970 0.44780 -0.21300
H 	H 	0.04640 0.57100 0.43040 0.09600
H 	H 	0.07370 0.51940 0.49380 0.10500
C 	C 	0.63801 0.34130 0.34200 -0.24200
H 	H 	0.65580 0.29670 0.37640 0.11100
H 	H 	0.63520 0.28800 0.30220 0.11100
C 	C 	0.70308 0.48440 0.33040 -0.01300
H 	H 	0.72450 0.42920 0.34730 0.06000
C 	C 	0.59437 0.36090 0.36690 0.06200
C 	C 	0.58292 0.42940 0.42160 -0.01300
H 	H 	0.60240 0.47420 0.45010 0.04100
C 	C 	0.55710 0.30880 0.34330 -0.01100
H 	H 	0.55350 0.25430 0.30650 0.03900
N 	N 	0.54119 0.42510 0.42941 -0.17200
N 	N 	0.52637 0.34720 0.38040 -0.15000
H 	H 	0.50000 0.32460 0.37380 0.11400
N 	N 	0.14254 0.42430 0.32325 -0.17300
C 	C 	0.10112 0.48430 0.40640 0.05100
N 	N 	0.16381 0.50690 0.36538 -0.15800
H 	H 	0.18950 0.53270 0.36110 0.13500
C 	C 	0.14007 0.54350 0.41410 -0.00100
H 	H 	0.14850 0.60040 0.44830 0.04300
C 	C 	0.10455 0.41090 0.34860 -0.01100
H 	H 	0.08280 0.35880 0.32990 0.03900
O 	O 	0.83061 0.51173 0.30748 -0.39300
O 	O 	0.90015 0.53350 0.33982 -0.29100
C 	C 	0.86255 0.57750 0.32740 0.34300
Co	Co	0.17187 0.34107 0.24300 1.18400
O 	O 	0.23331 0.35700 0.29204 -0.40600
O 	O 	0.10976 0.29600 0.19679 -0.48100
H 	H 	0.09870 0.36000 0.17980 0.28200
O 	O 	0.44835 0.46110 0.42656 -0.40700
O 	O 	0.40421 0.62570 0.40942 -0.26400
O 	O 	0.24960 0.54620 0.33503 -0.29800
C 	C 	0.37794 0.42250 0.37738 -0.11400
C 	C 	0.33683 0.46790 0.36243 0.05500
H 	H 	0.33070 0.55230 0.37090 0.03900
N 	N 	0.17168 0.15660 0.28483 -0.16300
O 	O 	0.20576 0.27200 0.15975 -0.46600
H 	H 	0.21720 0.20430 0.17020 0.27500
N 	N 	0.51104 0.68780 0.46654 -0.17200
N 	N 	0.47940 0.75860 0.43703 -0.15900
H 	H 	0.45380 0.73150 0.42690 0.14000
C 	C 	0.30457 0.38900 0.33485 -0.12200
C 	C 	0.25917 0.43560 0.31984 0.36400
C 	C 	0.35504 0.21370 0.33960 -0.12500
C 	C 	0.41285 0.51030 0.40685 0.34400
C 	C 	0.54460 0.76520 0.47313 -0.00400
H 	H 	0.57150 0.74160 0.49220 0.03900
C 	C 	0.53490 0.88500 0.44839 0.04300
C 	C 	0.38708 0.29480 0.36723 0.05200
H 	H 	0.41450 0.26380 0.37880 0.03100
C 	C 	0.31454 0.26380 0.32232 0.06000
H 	H 	0.29350 0.21160 0.30170 0.03300
C 	C 	0.49251 0.87720 0.42517 0.00000
H 	H 	0.47590 0.94190 0.40500 0.04900
C 	C 	0.16008 0.96130 0.32499 0.09300
C 	C 	0.14226 0.07140 0.29600 -0.04300
H 	H 	0.11300 0.08330 0.28570 0.05400
N 	N 	0.20877 0.10090 0.30694 -0.16000
H 	H 	0.23340 0.13650 0.30610 0.12200
C 	C 	0.56337 0.99970 0.44780 -0.16800
H 	H 	0.54640 0.07100 0.43040 0.07800
H 	H 	0.57370 0.01940 0.49380 0.08100
C 	C 	0.13801 0.84130 0.34200 -0.25600
H 	H 	0.15580 0.79670 0.37640 0.11600
H 	H 	0.13520 0.78800 0.30220 0.11600
C 	C 	0.20308 0.98440 0.33040 -0.00100
H 	H 	0.22450 0.92920 0.34730 0.06000
C 	C 	0.09437 0.86090 0.36690 0.07200
C 	C 	0.08292 0.92940 0.42160 -0.01500
H 	H 	0.10240 0.97420 0.45010 0.04700
C 	C 	0.05710 0.80880 0.34330 -0.01700
H 	H 	0.05350 0.75430 0.30650 0.04000
N 	N 	0.04119 0.92510 0.42941 -0.17000
N 	N 	0.02637 0.84720 0.38040 -0.14800
H 	H 	0.00000 0.82460 0.37380 0.10500
N 	N 	0.64254 0.92430 0.32325 -0.16500
C 	C 	0.60112 0.98430 0.40640 0.06300
N 	N 	0.66381 0.00690 0.36538 -0.16200
H 	H 	0.68950 0.03270 0.36110 0.13200
C 	C 	0.64007 0.04350 0.41410 -0.02000
H 	H 	0.64850 0.10040 0.44830 0.04700
C 	C 	0.60455 0.91090 0.34860 -0.00900
H 	H 	0.58280 0.85880 0.32990 0.04400
O 	O 	0.33061 0.01173 0.30748 -0.40300
O 	O 	0.40015 0.03350 0.33982 -0.30400
C 	C 	0.36255 0.07750 0.32740 0.34500
Co	Co	0.67187 0.15893 0.74300 1.18100
O 	O 	0.73331 0.14300 0.79204 -0.40000
O 	O 	0.60976 0.20400 0.69679 -0.47700
H 	H 	0.59870 0.14000 0.67980 0.27900
O 	O 	0.94835 0.03890 0.92656 -0.39900
O 	O 	0.90421 0.87430 0.90942 -0.25700
O 	O 	0.74960 0.95380 0.83503 -0.27600
C 	C 	0.87794 0.07750 0.87738 -0.11000
C 	C 	0.83683 0.03210 0.86243 0.01200
H 	H 	0.83070 0.94770 0.87090 0.06900
N 	N 	0.67168 0.34340 0.78483 -0.16600
O 	O 	0.70576 0.22800 0.65975 -0.46300
H 	H 	0.71720 0.29570 0.67020 0.27500
N 	N 	0.01104 0.81220 0.96654 -0.16600
N 	N 	0.97940 0.74140 0.93703 -0.15100
H 	H 	0.95380 0.76850 0.92690 0.15100
C 	C 	0.80457 0.11100 0.83485 -0.09700
C 	C 	0.75917 0.06440 0.81984 0.33500
C 	C 	0.85504 0.28630 0.83960 -0.10900
C 	C 	0.91285 0.98970 0.90685 0.37800
C 	C 	0.04460 0.73480 0.97313 -0.00300
H 	H 	0.07150 0.75840 0.99220 0.05500
C 	C 	0.03490 0.61500 0.94839 0.03700
C 	C 	0.88708 0.20520 0.86723 0.04800
H 	H 	0.91450 0.23620 0.87880 0.04200
C 	C 	0.81454 0.23620 0.82232 0.04500
H 	H 	0.79350 0.28840 0.80170 0.04000
C 	C 	0.99251 0.62280 0.92517 0.03800
H 	H 	0.97590 0.55810 0.90500 0.04500
C 	C 	0.66008 0.53870 0.82499 0.07400
C 	C 	0.64226 0.42860 0.79600 -0.01300
H 	H 	0.61300 0.41670 0.78570 0.05100
N 	N 	0.70877 0.39910 0.80694 -0.14900
H 	H 	0.73340 0.36350 0.80610 0.12400
C 	C 	0.06337 0.50030 0.94780 -0.23500
H 	H 	0.04640 0.42900 0.93040 0.11000
H 	H 	0.07370 0.48060 0.99380 0.12700
C 	C 	0.63801 0.65870 0.84200 -0.24800
H 	H 	0.65580 0.70330 0.87640 0.11800
H 	H 	0.63520 0.71200 0.80220 0.11300
C 	C 	0.70308 0.51560 0.83040 -0.01300
H 	H 	0.72450 0.57080 0.84730 0.06400
C 	C 	0.59437 0.63910 0.86690 0.06900
C 	C 	0.58292 0.57060 0.92160 -0.01300
H 	H 	0.60240 0.52580 0.95010 0.05300
C 	C 	0.55710 0.69120 0.84330 -0.01300
H 	H 	0.55350 0.74570 0.80650 0.04300
N 	N 	0.54119 0.57490 0.92941 -0.15900
N 	N 	0.52637 0.65280 0.88040 -0.14900
H 	H 	0.50000 0.67540 0.87380 0.11900
N 	N 	0.14254 0.57570 0.82325 -0.17100
C 	C 	0.10112 0.51570 0.90640 0.06600
N 	N 	0.16381 0.49310 0.86538 -0.15600
H 	H 	0.18950 0.46730 0.86110 0.13800
C 	C 	0.14007 0.45650 0.91410 -0.00400
H 	H 	0.14850 0.39960 0.94830 0.05500
C 	C 	0.10455 0.58910 0.84860 -0.01500
H 	H 	0.08280 0.64120 0.82990 0.04400
O 	O 	0.83061 0.48827 0.80748 -0.38900
O 	O 	0.90015 0.46650 0.83982 -0.28400
C 	C 	0.86255 0.42250 0.82740 0.34100
Co	Co	0.17187 0.65893 0.74300 1.18500
O 	O 	0.23331 0.64300 0.79204 -0.40300
O 	O 	0.10976 0.70400 0.69679 -0.47600
H 	H 	0.09870 0.64000 0.67980 0.28300
O 	O 	0.44835 0.53890 0.92656 -0.38700
O 	O 	0.40421 0.37430 0.90942 -0.25300
O 	O 	0.24960 0.45380 0.83503 -0.29400
C 	C 	0.37794 0.57750 0.87738 -0.10200
C 	C 	0.33683 0.53210 0.86243 0.05200
H 	H 	0.33070 0.44770 0.87090 0.04500
N 	N 	0.17168 0.84340 0.78483 -0.16900
O 	O 	0.20576 0.72800 0.65975 -0.45800
H 	H 	0.21720 0.79570 0.67020 0.27400
N 	N 	0.51104 0.31220 0.96654 -0.15300
N 	N 	0.47940 0.24140 0.93703 -0.15100
H 	H 	0.45380 0.26850 0.92690 0.14500
C 	C 	0.30457 0.61100 0.83485 -0.11400
C 	C 	0.25917 0.56440 0.81984 0.36400
C 	C 	0.35504 0.78630 0.83960 -0.11100
C 	C 	0.41285 0.48970 0.90685 0.34300
C 	C 	0.54460 0.23480 0.97313 -0.03000
H 	H 	0.57150 0.25840 0.99220 0.06200
C 	C 	0.53490 0.11500 0.94839 0.10300
C 	C 	0.38708 0.70520 0.86723 0.04800
H 	H 	0.41450 0.73620 0.87880 0.04100
C 	C 	0.31454 0.73620 0.82232 0.05600
H 	H 	0.29350 0.78840 0.80170 0.03800
C 	C 	0.49251 0.12280 0.92517 -0.02400
H 	H 	0.47590 0.05810 0.90500 0.05600
C 	C 	0.16008 0.03870 0.82499 0.05100
C 	C 	0.14226 0.92860 0.79600 0.01900
H 	H 	0.11300 0.91670 0.78570 0.04600
N 	N 	0.20877 0.89910 0.80694 -0.13900
H 	H 	0.23340 0.86350 0.80610 0.12500
C 	C 	0.56337 0.00030 0.94780 -0.33600
H 	H 	0.54640 0.92900 0.93040 0.15300
H 	H 	0.57370 0.98060 0.99380 0.16700
C 	C 	0.13801 0.15870 0.84200 -0.23500
H 	H 	0.15580 0.20330 0.87640 0.11300
H 	H 	0.13520 0.21200 0.80220 0.10800
C 	C 	0.20308 0.01560 0.83040 -0.02400
H 	H 	0.22450 0.07080 0.84730 0.06500
C 	C 	0.09437 0.13910 0.86690 0.06000
C 	C 	0.08292 0.07060 0.92160 -0.01200
H 	H 	0.10240 0.02580 0.95010 0.04800
C 	C 	0.05710 0.19120 0.84330 -0.01400
H 	H 	0.05350 0.24570 0.80650 0.03700
N 	N 	0.04119 0.07490 0.92941 -0.16600
N 	N 	0.02637 0.15280 0.88040 -0.14900
H 	H 	0.00000 0.17540 0.87380 0.10700
N 	N 	0.64254 0.07570 0.82325 -0.17700
C 	C 	0.60112 0.01570 0.90640 0.07800
N 	N 	0.66381 0.99310 0.86538 -0.15000
H 	H 	0.68950 0.96730 0.86110 0.13900
C 	C 	0.64007 0.95650 0.91410 0.00100
H 	H 	0.64850 0.89960 0.94830 0.05500
C 	C 	0.60455 0.08910 0.84860 -0.02900
H 	H 	0.58280 0.14120 0.82990 0.04900
O 	O 	0.33061 0.98827 0.80748 -0.38000
O 	O 	0.40015 0.96650 0.83982 -0.27800
C 	C 	0.36255 0.92250 0.82740 0.34200
Co	Co	0.32813 0.15893 0.75700 1.18100
O 	O 	0.26669 0.14300 0.70796 -0.40200
O 	O 	0.39024 0.20400 0.80321 -0.47600
H 	H 	0.40130 0.14000 0.82020 0.28100
O 	O 	0.05165 0.03890 0.57344 -0.43600
O 	O 	0.09579 0.87430 0.59058 -0.27300
O 	O 	0.25040 0.95380 0.66497 -0.27900
C 	C 	0.12206 0.07750 0.62262 -0.12700
C 	C 	0.16317 0.03210 0.63757 0.01500
H 	H 	0.16930 0.94770 0.62910 0.06400
N 	N 	0.32832 0.34340 0.71517 -0.16700
O 	O 	0.29424 0.22800 0.84025 -0.45500
H 	H 	0.28280 0.29570 0.82980 0.27500
N 	N 	0.98896 0.81220 0.53346 -0.14600
N 	N 	0.02060 0.74140 0.56297 -0.15800
H 	H 	0.04620 0.76850 0.57310 0.14000
C 	C 	0.19543 0.11100 0.66515 -0.10400
C 	C 	0.24083 0.06440 0.68016 0.33400
C 	C 	0.14496 0.28630 0.66040 -0.12000
C 	C 	0.08715 0.98970 0.59315 0.38500
C 	C 	0.95540 0.73480 0.52687 -0.03200
H 	H 	0.92850 0.75840 0.50780 0.05200
C 	C 	0.96510 0.61500 0.55161 0.11300
C 	C 	0.11292 0.20520 0.63277 0.05400
H 	H 	0.08550 0.23620 0.62120 0.02900
C 	C 	0.18546 0.23620 0.67768 0.04900
H 	H 	0.20650 0.28840 0.69830 0.03800
C 	C 	0.00749 0.62280 0.57483 -0.06300
H 	H 	0.02410 0.55810 0.59500 0.06100
C 	C 	0.33992 0.53870 0.67501 0.07000
C 	C 	0.35774 0.42860 0.70400 -0.01200
H 	H 	0.38700 0.41670 0.71430 0.05100
N 	N 	0.29123 0.39910 0.69306 -0.15000
H 	H 	0.26660 0.36350 0.69390 0.12200
C 	C 	0.93663 0.50030 0.55220 -0.27600
H 	H 	0.95360 0.42900 0.56960 0.12500
H 	H 	0.92630 0.48060 0.50620 0.12400
C 	C 	0.36199 0.65870 0.65800 -0.24400
H 	H 	0.34420 0.70330 0.62360 0.11200
H 	H 	0.36480 0.71200 0.69780 0.11200
C 	C 	0.29692 0.51560 0.66960 -0.01400
H 	H 	0.27550 0.57080 0.65270 0.06000
C 	C 	0.40563 0.63910 0.63310 0.06400
C 	C 	0.41708 0.57060 0.57840 -0.01300
H 	H 	0.39760 0.52580 0.54990 0.04100
C 	C 	0.44290 0.69120 0.65670 -0.01200
H 	H 	0.44650 0.74570 0.69350 0.04300
N 	N 	0.45881 0.57490 0.57059 -0.17200
N 	N 	0.47363 0.65280 0.61960 -0.15000
H 	H 	0.50000 0.67540 0.62620 0.11500
N 	N 	0.85746 0.57570 0.67675 -0.17000
C 	C 	0.89888 0.51570 0.59360 0.07800
N 	N 	0.83619 0.49310 0.63462 -0.15500
H 	H 	0.81050 0.46730 0.63890 0.13400
C 	C 	0.85993 0.45650 0.58590 -0.01500
H 	H 	0.85150 0.39960 0.55170 0.04800
C 	C 	0.89545 0.58910 0.65140 -0.02300
H 	H 	0.91720 0.64120 0.67010 0.05200
O 	O 	0.16939 0.48827 0.69252 -0.39300
O 	O 	0.09985 0.46650 0.66018 -0.29600
C 	C 	0.13745 0.42250 0.67260 0.34300
Co	Co	0.82813 0.65893 0.75700 1.18500
O 	O 	0.76669 0.64300 0.70796 -0.40500
O 	O 	0.89024 0.70400 0.80321 -0.47300
H 	H 	0.90130 0.64000 0.82020 0.28600
O 	O 	0.55165 0.53890 0.57344 -0.40700
O 	O 	0.59579 0.37430 0.59058 -0.26500
O 	O 	0.75040 0.45380 0.66497 -0.29900
C 	C 	0.62206 0.57750 0.62262 -0.11200
C 	C 	0.66317 0.53210 0.63757 0.05400
H 	H 	0.66930 0.44770 0.62910 0.03900
N 	N 	0.82832 0.84340 0.71517 -0.16900
O 	O 	0.79424 0.72800 0.84025 -0.45100
H 	H 	0.78280 0.79570 0.82980 0.27400
N 	N 	0.48896 0.31220 0.53346 -0.16800
N 	N 	0.52060 0.24140 0.56297 -0.15400
H 	H 	0.54620 0.26850 0.57310 0.13800
C 	C 	0.69543 0.61100 0.66515 -0.12000
C 	C 	0.74083 0.56440 0.68016 0.36400
C 	C 	0.64496 0.78630 0.66040 -0.11800
C 	C 	0.58715 0.48970 0.59315 0.34400
C 	C 	0.45540 0.23480 0.52687 -0.03100
H 	H 	0.42850 0.25840 0.50780 0.04700
C 	C 	0.46510 0.11500 0.55161 0.08700
C 	C 	0.61292 0.70520 0.63277 0.04900
H 	H 	0.58550 0.73620 0.62120 0.03400
C 	C 	0.68546 0.73620 0.67768 0.05700
H 	H 	0.70650 0.78840 0.69830 0.03600
C 	C 	0.50749 0.12280 0.57483 -0.02700
H 	H 	0.52410 0.05810 0.59500 0.04900
C 	C 	0.83992 0.03870 0.67501 0.05000
C 	C 	0.85774 0.92860 0.70400 0.01600
H 	H 	0.88700 0.91670 0.71430 0.04900
N 	N 	0.79123 0.89910 0.69306 -0.13900
H 	H 	0.76660 0.86350 0.69390 0.12300
C 	C 	0.43663 0.00030 0.55220 -0.32100
H 	H 	0.45360 0.92900 0.56960 0.14300
H 	H 	0.42630 0.98060 0.50620 0.14800
C 	C 	0.86199 0.15870 0.65800 -0.23500
H 	H 	0.84420 0.20330 0.62360 0.10900
H 	H 	0.86480 0.21200 0.69780 0.10900
C 	C 	0.79692 0.01560 0.66960 -0.02600
H 	H 	0.77550 0.07080 0.65270 0.06100
C 	C 	0.90563 0.13910 0.63310 0.06100
C 	C 	0.91708 0.07060 0.57840 -0.01400
H 	H 	0.89760 0.02580 0.54990 0.03700
C 	C 	0.94290 0.19120 0.65670 -0.01700
H 	H 	0.94650 0.24570 0.69350 0.04800
N 	N 	0.95881 0.07490 0.57059 -0.16900
N 	N 	0.97363 0.15280 0.61960 -0.12500
H 	H 	-0.00000 0.17540 0.62620 0.08800
N 	N 	0.35746 0.07570 0.67675 -0.17900
C 	C 	0.39888 0.01570 0.59360 0.06600
N 	N 	0.33619 0.99310 0.63462 -0.15200
H 	H 	0.31050 0.96730 0.63890 0.13600
C 	C 	0.35993 0.95650 0.58590 0.00500
H 	H 	0.35150 0.89960 0.55170 0.04400
C 	C 	0.39545 0.08910 0.65140 -0.02500
H 	H 	0.41720 0.14120 0.67010 0.04700
O 	O 	0.66939 0.98827 0.69252 -0.38300
O 	O 	0.59985 0.96650 0.66018 -0.28400
C 	C 	0.63745 0.92250 0.67260 0.34100
Co	Co	-0.00000 0.00000 -0.00000 1.11000
Co	Co	0.50000 0.50000 -0.00000 1.13000
Co	Co	0.00000 0.00000 0.50000 1.13100
Co	Co	0.50000 0.50000 0.50000 1.15100
