data_crystal

_cell_length_a 7.68190
_cell_length_b 8.87150
_cell_length_c 10.32050
_cell_angle_alpha 105.85200
_cell_angle_beta  93.05500
_cell_angle_gamma 105.70500

_symmetry_space_group_name_	'P 1'
_symmetry_space_group_name_H-M	'P 1'

loop_
_symmetry_equiv_pos_as_xyz
  x,y,z

loop_
_atom_site_label
_atom_site_type_symbol
_atom_site_fract_x
_atom_site_fract_y
_atom_site_fract_z
_atom_site_charge
Cd	Cd	0.84092 0.61598 0.66792 1.21900
Cd	Cd	0.15908 0.38402 0.33208 1.21700
Cd	Cd	0.50000 0.00000 0.50000 1.11400
H 	H 	0.12520 0.42470 0.86450 0.02900
H 	H 	0.53050 0.77690 0.13880 0.04000
H 	H 	0.63490 0.89010 0.96720 0.07300
H 	H 	0.87480 0.57530 0.13550 0.04000
H 	H 	0.46950 0.22310 0.86120 0.00100
H 	H 	0.36510 0.10990 0.03280 -0.00700
C 	C 	0.44420 0.72230 0.81240 -0.04700
C 	C 	0.29060 0.58560 0.78270 -0.08700
C 	C 	0.22990 0.51790 0.88500 0.01000
C 	C 	0.32170 0.58600 0.01700 -0.07100
C 	C 	0.47090 0.72700 0.04790 0.03200
C 	C 	0.53260 0.79460 0.94600 -0.05500
C 	C 	0.51540 0.80000 0.70490 0.36100
C 	C 	0.19410 0.50210 0.64020 0.31700
C 	C 	0.26220 0.50530 0.12370 0.31600
C 	C 	0.55580 0.27770 0.18760 -0.09800
C 	C 	0.70940 0.41440 0.21730 -0.08500
C 	C 	0.77010 0.48210 0.11500 0.02600
C 	C 	0.67830 0.41400 0.98300 -0.10300
C 	C 	0.52910 0.27300 0.95210 -0.03800
C 	C 	0.46740 0.20540 0.05400 -0.01800
C 	C 	0.48460 0.20000 0.29510 0.37500
C 	C 	0.80590 0.49790 0.35980 0.31500
C 	C 	0.73780 0.49470 0.87630 0.30600
O 	O 	0.66720 0.79410 0.67056 -0.43700
O 	O 	0.41680 0.87260 0.65947 -0.40700
O 	O 	0.29260 0.49620 0.54644 -0.42200
O 	O 	0.02310 0.44000 0.62302 -0.44900
O 	O 	0.13070 0.37620 0.09533 -0.38200
O 	O 	0.34620 0.56950 0.24416 -0.39200
O 	O 	0.33280 0.20590 0.32944 -0.49700
O 	O 	0.58320 0.12740 0.34053 -0.52500
O 	O 	0.70740 0.50380 0.45356 -0.42100
O 	O 	0.97690 0.56000 0.37698 -0.45200
O 	O 	0.86930 0.62380 0.90467 -0.37400
O 	O 	0.65380 0.43050 0.75584 -0.42400
