data_crystal

_cell_length_a 10.24090
_cell_length_b 19.61020
_cell_length_c 37.78700
_cell_angle_alpha 89.02500
_cell_angle_beta  89.26300
_cell_angle_gamma 76.47100

_symmetry_space_group_name_	'P 1'
_symmetry_space_group_name_H-M	'P 1'

loop_
_symmetry_equiv_pos_as_xyz
  x,y,z

loop_
_atom_site_label
_atom_site_type_symbol
_atom_site_fract_x
_atom_site_fract_y
_atom_site_fract_z
_atom_site_charge
Cd	Cd	0.85826 0.68939 0.60924 1.20900
Cd	Cd	0.18560 0.69537 0.61133 1.19700
Cd	Cd	0.35713 0.16910 0.89654 1.20300
Cd	Cd	0.68971 0.17787 0.89286 1.20000
Cd	Cd	0.20180 0.76985 0.84117 1.21400
Cd	Cd	0.51058 0.63324 0.81921 1.21800
Cd	Cd	0.78302 0.59030 0.88956 1.21500
Cd	Cd	0.00094 0.71024 0.91118 1.21400
Cd	Cd	0.55603 0.16154 0.58978 1.21400
Cd	Cd	0.72134 0.29192 0.62796 1.21600
Cd	Cd	0.01294 0.23097 0.68483 1.21600
Cd	Cd	0.32963 0.10111 0.65567 1.21900
O 	O 	0.86090 0.66870 0.66730 -0.44100
O 	O 	0.07740 0.67060 0.66150 -0.48400
O 	O 	0.37490 0.63470 0.76640 -0.38800
O 	O 	0.27820 0.66060 0.81880 -0.52900
O 	O 	0.81020 0.62050 0.83280 -0.47400
O 	O 	0.68250 0.63680 0.78510 -0.45200
C 	C 	0.99520 0.65770 0.71920 -0.14800
C 	C 	0.12020 0.65460 0.73400 0.06500
H 	H 	0.19440 0.65710 0.71910 0.01600
C 	C 	0.13700 0.64800 0.77030 -0.14500
C 	C 	0.02950 0.64250 0.79250 0.05200
H 	H 	0.04070 0.63930 0.81740 0.02900
C 	C 	0.90630 0.64190 0.77780 -0.14500
C 	C 	0.88960 0.65050 0.74150 0.07600
H 	H 	0.80430 0.65160 0.73170 0.02700
C 	C 	0.97830 0.66660 0.68000 0.39000
C 	C 	0.27320 0.64680 0.78550 0.30800
C 	C 	0.79150 0.63250 0.80070 0.40700
O 	O 	0.88050 0.79750 0.61950 -0.47700
O 	O 	0.09290 0.80870 0.62030 -0.46800
O 	O 	0.19330 0.03140 0.64820 -0.44400
O 	O 	0.03240 0.12190 0.66440 -0.48800
O 	O 	0.55160 0.10500 0.64270 -0.53000
O 	O 	0.51530 0.99960 0.64990 -0.39100
C 	C 	0.92130 0.90690 0.63200 -0.15800
C 	C 	0.01010 0.95010 0.63710 0.07600
H 	H 	0.10350 0.93030 0.63420 0.02800
C 	C 	0.97060 0.01900 0.64570 -0.14000
C 	C 	0.83200 0.04950 0.64810 0.06400
H 	H 	0.80080 0.09790 0.65300 0.02700
C 	C 	0.74330 0.00870 0.64310 -0.15800
C 	C 	0.78530 0.93850 0.63570 0.08000
H 	H 	0.72070 0.91130 0.63300 0.01900
C 	C 	0.96810 0.83050 0.62390 0.42200
C 	C 	0.07180 0.06280 0.65350 0.40500
C 	C 	0.59330 0.03880 0.64530 0.32300
O 	O 	0.43070 0.17920 0.83980 -0.45700
O 	O 	0.65280 0.17930 0.83620 -0.45800
O 	O 	0.85050 0.22390 0.72400 -0.42100
O 	O 	0.74140 0.22080 0.67320 -0.49500
O 	O 	0.25290 0.20660 0.68050 -0.52000
O 	O 	0.15420 0.22600 0.73300 -0.39700
C 	C 	0.52410 0.19480 0.78440 -0.15000
C 	C 	0.63560 0.20070 0.76360 0.07400
H 	H 	0.71970 0.19720 0.77470 0.02800
C 	C 	0.62610 0.21160 0.72750 -0.14300
C 	C 	0.50410 0.21440 0.71070 0.05200
H 	H 	0.49730 0.21930 0.68570 0.01600
C 	C 	0.39220 0.20980 0.73140 -0.15100
C 	C 	0.40430 0.19960 0.76720 0.07700
H 	H 	0.32740 0.19580 0.78070 0.02100
C 	C 	0.53460 0.18270 0.82360 0.39300
C 	C 	0.74500 0.22060 0.70640 0.34800
C 	C 	0.26000 0.21370 0.71380 0.30400
O 	O 	0.43440 0.05590 0.89010 -0.46200
O 	O 	0.64460 0.06690 0.89330 -0.46200
O 	O 	0.01880 0.87250 0.85290 -0.37700
O 	O 	0.98350 0.76520 0.85640 -0.50100
O 	O 	0.51010 0.74480 0.83490 -0.47500
O 	O 	0.34380 0.83700 0.84790 -0.44300
C 	C 	0.60510 0.95830 0.87470 -0.14500
C 	C 	0.74460 0.93060 0.87070 0.07300
H 	H 	0.80600 0.95880 0.87550 0.02400
C 	C 	0.79060 0.86360 0.85990 -0.12600
C 	C 	0.70080 0.82080 0.85080 0.05900
H 	H 	0.73380 0.77410 0.84310 0.03000
C 	C 	0.56510 0.84960 0.85370 -0.13600
C 	C 	0.51870 0.91770 0.86610 0.08100
H 	H 	0.42470 0.93630 0.86860 0.03000
C 	C 	0.55890 0.03360 0.88690 0.41000
C 	C 	0.94040 0.83240 0.85560 0.30500
C 	C 	0.46650 0.80540 0.84450 0.39400
O 	O 	0.76940 0.70190 0.90580 -0.53800
O 	O 	0.82060 0.77380 0.94430 -0.40200
O 	O 	0.53650 0.83060 0.04980 -0.44800
O 	O 	0.31800 0.82290 0.04900 -0.44900
O 	O 	0.12990 0.77260 0.93740 -0.43400
O 	O 	0.26360 0.71870 0.89510 -0.47400
C 	C 	0.59860 0.75980 0.94640 -0.15600
C 	C 	0.57880 0.78590 0.98140 0.07500
H 	H 	0.65300 0.79390 0.99410 0.01900
C 	C 	0.45190 0.79980 0.99730 -0.14700
C 	C 	0.34430 0.78900 0.97750 0.06900
H 	H 	0.25680 0.79870 0.98780 0.02800
C 	C 	0.36330 0.76380 0.94260 -0.14100
C 	C 	0.49060 0.74740 0.92790 0.07400
H 	H 	0.50440 0.72760 0.90500 0.00800
C 	C 	0.73800 0.74360 0.93090 0.35700
C 	C 	0.43440 0.81880 0.03490 0.37800
C 	C 	0.24280 0.75020 0.92400 0.35200
O 	O 	0.98440 0.51710 0.89430 -0.44800
O 	O 	0.05880 0.61270 0.88250 -0.50200
O 	O 	0.55420 0.59320 0.87560 -0.52500
O 	O 	0.68650 0.49090 0.89250 -0.39600
O 	O 	0.51860 0.27780 0.89500 -0.46200
O 	O 	0.29600 0.28490 0.89730 -0.45000
C 	C 	0.21810 0.50440 0.88840 -0.13700
C 	C 	0.32650 0.53630 0.88660 0.04500
H 	H 	0.31180 0.58600 0.88550 0.01700
C 	C 	0.45580 0.49430 0.88630 -0.13900
C 	C 	0.47960 0.42250 0.89010 0.05800
H 	H 	0.56870 0.39460 0.89180 0.02100
C 	C 	0.36760 0.39080 0.89140 -0.13700
C 	C 	0.23820 0.42990 0.89170 0.06100
H 	H 	0.16440 0.40840 0.89400 0.02800
C 	C 	0.07470 0.54920 0.88850 0.37500
C 	C 	0.57310 0.52940 0.88470 0.30500
C 	C 	0.39610 0.31190 0.89500 0.37400
O 	O 	0.23430 0.80850 0.40620 -0.50600
O 	O 	0.31770 0.80660 0.45980 -0.38600
O 	O 	0.07470 0.71430 0.55720 -0.46300
O 	O 	0.85540 0.71800 0.55200 -0.43900
O 	O 	0.62470 0.81320 0.44360 -0.44000
O 	O 	0.73110 0.85350 0.39930 -0.47000
C 	C 	0.09610 0.79110 0.45450 -0.14100
C 	C 	0.09240 0.76410 0.48830 0.07800
H 	H 	0.17250 0.75190 0.50170 0.02100
C 	C 	0.97110 0.75440 0.50320 -0.14700
C 	C 	0.85470 0.77310 0.48260 0.08400
H 	H 	0.77280 0.76520 0.49190 0.02900
C 	C 	0.85550 0.80230 0.44970 -0.14800
C 	C 	0.97770 0.81110 0.43480 0.06800
H 	H 	0.97970 0.83050 0.41160 0.02500
C 	C 	0.22470 0.80260 0.43940 0.32800
C 	C 	0.96880 0.72650 0.54040 0.39500
C 	C 	0.72860 0.82570 0.42910 0.39400
O 	O 	0.96470 0.27720 0.63070 -0.52200
O 	O 	0.83730 0.37130 0.60640 -0.40900
O 	O 	0.00200 0.58590 0.59910 -0.48000
O 	O 	0.22170 0.58040 0.60080 -0.46400
O 	O 	0.53970 0.34930 0.59950 -0.43800
O 	O 	0.46820 0.26060 0.62180 -0.47500
C 	C 	0.06680 0.37100 0.61160 -0.17300
C 	C 	0.04230 0.44280 0.60680 0.09300
H 	H 	0.95240 0.46990 0.60640 0.01600
C 	C 	0.14770 0.47580 0.60270 -0.16600
C 	C 	0.27950 0.43360 0.60270 0.09400
H 	H 	0.35270 0.45510 0.59900 0.01900
C 	C 	0.30500 0.36310 0.60780 -0.16100
C 	C 	0.19920 0.33070 0.61290 0.08800
H 	H 	0.21650 0.28150 0.61730 0.00800
C 	C 	0.95160 0.33820 0.61620 0.34800
C 	C 	0.12140 0.55440 0.60000 0.42700
C 	C 	0.44700 0.32100 0.60970 0.36600
Cd	Cd	0.14174 0.31061 0.39076 1.20800
Cd	Cd	0.81440 0.30463 0.38867 1.19600
Cd	Cd	0.64287 0.83090 0.10346 1.20300
Cd	Cd	0.31029 0.82213 0.10714 1.20000
Cd	Cd	0.79820 0.23015 0.15883 1.21400
Cd	Cd	0.48942 0.36676 0.18079 1.21800
Cd	Cd	0.21698 0.40970 0.11044 1.21500
Cd	Cd	0.99906 0.28976 0.08882 1.21400
Cd	Cd	0.44397 0.83846 0.41022 1.21400
Cd	Cd	0.27866 0.70808 0.37204 1.21600
Cd	Cd	0.98706 0.76903 0.31517 1.21600
Cd	Cd	0.67037 0.89889 0.34433 1.21900
O 	O 	0.13910 0.33130 0.33270 -0.44100
O 	O 	0.92260 0.32940 0.33850 -0.48400
O 	O 	0.62510 0.36530 0.23360 -0.38800
O 	O 	0.72180 0.33940 0.18120 -0.52900
O 	O 	0.18980 0.37950 0.16720 -0.47400
O 	O 	0.31750 0.36320 0.21490 -0.45200
C 	C 	0.00480 0.34230 0.28080 -0.14800
C 	C 	0.87980 0.34540 0.26600 0.06500
H 	H 	0.80560 0.34290 0.28090 0.01600
C 	C 	0.86300 0.35200 0.22970 -0.14500
C 	C 	0.97050 0.35750 0.20750 0.05200
H 	H 	0.95930 0.36070 0.18260 0.02900
C 	C 	0.09370 0.35810 0.22220 -0.14500
C 	C 	0.11040 0.34950 0.25850 0.07600
H 	H 	0.19570 0.34840 0.26830 0.02700
C 	C 	0.02170 0.33340 0.32000 0.39000
C 	C 	0.72680 0.35320 0.21450 0.30800
C 	C 	0.20850 0.36750 0.19930 0.40700
O 	O 	0.11950 0.20250 0.38050 -0.47700
O 	O 	0.90710 0.19130 0.37970 -0.46800
O 	O 	0.80670 0.96860 0.35180 -0.44400
O 	O 	0.96760 0.87810 0.33560 -0.48800
O 	O 	0.44840 0.89500 0.35730 -0.53000
O 	O 	0.48470 0.00040 0.35010 -0.39100
C 	C 	0.07870 0.09310 0.36800 -0.15800
C 	C 	0.98990 0.04990 0.36290 0.07600
H 	H 	0.89650 0.06970 0.36580 0.02800
C 	C 	0.02940 0.98100 0.35430 -0.14000
C 	C 	0.16800 0.95050 0.35190 0.06400
H 	H 	0.19920 0.90210 0.34700 0.02700
C 	C 	0.25670 0.99130 0.35690 -0.15800
C 	C 	0.21470 0.06150 0.36430 0.08000
H 	H 	0.27930 0.08870 0.36700 0.01900
C 	C 	0.03190 0.16950 0.37610 0.42200
C 	C 	0.92820 0.93720 0.34650 0.40500
C 	C 	0.40670 0.96120 0.35470 0.32300
O 	O 	0.56930 0.82080 0.16020 -0.45700
O 	O 	0.34720 0.82070 0.16380 -0.45800
O 	O 	0.14950 0.77610 0.27600 -0.42100
O 	O 	0.25860 0.77920 0.32680 -0.49500
O 	O 	0.74710 0.79340 0.31950 -0.52000
O 	O 	0.84580 0.77400 0.26700 -0.39700
C 	C 	0.47590 0.80520 0.21560 -0.15000
C 	C 	0.36440 0.79930 0.23640 0.07400
H 	H 	0.28030 0.80280 0.22530 0.02800
C 	C 	0.37390 0.78840 0.27250 -0.14300
C 	C 	0.49590 0.78560 0.28930 0.05200
H 	H 	0.50270 0.78070 0.31430 0.01600
C 	C 	0.60780 0.79020 0.26860 -0.15100
C 	C 	0.59570 0.80040 0.23280 0.07700
H 	H 	0.67260 0.80420 0.21930 0.02100
C 	C 	0.46540 0.81730 0.17640 0.39300
C 	C 	0.25500 0.77940 0.29360 0.34800
C 	C 	0.74000 0.78630 0.28620 0.30400
O 	O 	0.56560 0.94410 0.10990 -0.46200
O 	O 	0.35540 0.93310 0.10670 -0.46200
O 	O 	0.98120 0.12750 0.14710 -0.37700
O 	O 	0.01650 0.23480 0.14360 -0.50100
O 	O 	0.48990 0.25520 0.16510 -0.47500
O 	O 	0.65620 0.16300 0.15210 -0.44300
C 	C 	0.39490 0.04170 0.12530 -0.14500
C 	C 	0.25540 0.06940 0.12930 0.07300
H 	H 	0.19400 0.04120 0.12450 0.02400
C 	C 	0.20940 0.13640 0.14010 -0.12600
C 	C 	0.29920 0.17920 0.14920 0.05900
H 	H 	0.26620 0.22590 0.15690 0.03000
C 	C 	0.43490 0.15040 0.14630 -0.13600
C 	C 	0.48130 0.08230 0.13390 0.08100
H 	H 	0.57530 0.06370 0.13140 0.03000
C 	C 	0.44110 0.96640 0.11310 0.41000
C 	C 	0.05960 0.16760 0.14440 0.30500
C 	C 	0.53350 0.19460 0.15550 0.39400
O 	O 	0.23060 0.29810 0.09420 -0.53800
O 	O 	0.17940 0.22620 0.05570 -0.40200
O 	O 	0.46350 0.16940 0.95020 -0.44800
O 	O 	0.68200 0.17710 0.95100 -0.44900
O 	O 	0.87010 0.22740 0.06260 -0.43400
O 	O 	0.73640 0.28130 0.10490 -0.47400
C 	C 	0.40140 0.24020 0.05360 -0.15600
C 	C 	0.42120 0.21410 0.01860 0.07500
H 	H 	0.34700 0.20610 0.00590 0.01900
C 	C 	0.54810 0.20020 0.00270 -0.14700
C 	C 	0.65570 0.21100 0.02250 0.06900
H 	H 	0.74320 0.20130 0.01220 0.02800
C 	C 	0.63670 0.23620 0.05740 -0.14100
C 	C 	0.50940 0.25260 0.07210 0.07400
H 	H 	0.49560 0.27240 0.09500 0.00800
C 	C 	0.26200 0.25640 0.06910 0.35700
C 	C 	0.56560 0.18120 0.96510 0.37800
C 	C 	0.75720 0.24980 0.07600 0.35200
O 	O 	0.01560 0.48290 0.10570 -0.44800
O 	O 	0.94120 0.38730 0.11750 -0.50200
O 	O 	0.44580 0.40680 0.12440 -0.52500
O 	O 	0.31350 0.50910 0.10750 -0.39600
O 	O 	0.48140 0.72220 0.10500 -0.46200
O 	O 	0.70400 0.71510 0.10270 -0.45000
C 	C 	0.78190 0.49560 0.11160 -0.13700
C 	C 	0.67350 0.46370 0.11340 0.04500
H 	H 	0.68820 0.41400 0.11450 0.01700
C 	C 	0.54420 0.50570 0.11370 -0.13900
C 	C 	0.52040 0.57750 0.10990 0.05800
H 	H 	0.43130 0.60540 0.10820 0.02100
C 	C 	0.63240 0.60920 0.10860 -0.13700
C 	C 	0.76180 0.57010 0.10830 0.06100
H 	H 	0.83560 0.59160 0.10600 0.02800
C 	C 	0.92530 0.45080 0.11150 0.37500
C 	C 	0.42690 0.47060 0.11530 0.30500
C 	C 	0.60390 0.68810 0.10500 0.37400
O 	O 	0.76570 0.19150 0.59380 -0.50600
O 	O 	0.68230 0.19340 0.54020 -0.38600
O 	O 	0.92530 0.28570 0.44280 -0.46300
O 	O 	0.14460 0.28200 0.44800 -0.43900
O 	O 	0.37530 0.18680 0.55640 -0.44000
O 	O 	0.26890 0.14650 0.60070 -0.47000
C 	C 	0.90390 0.20890 0.54550 -0.14100
C 	C 	0.90760 0.23590 0.51170 0.07800
H 	H 	0.82750 0.24810 0.49830 0.02100
C 	C 	0.02890 0.24560 0.49680 -0.14700
C 	C 	0.14530 0.22690 0.51740 0.08400
H 	H 	0.22720 0.23480 0.50810 0.02900
C 	C 	0.14450 0.19770 0.55030 -0.14800
C 	C 	0.02230 0.18890 0.56520 0.06800
H 	H 	0.02030 0.16950 0.58840 0.02500
C 	C 	0.77530 0.19740 0.56060 0.32800
C 	C 	0.03120 0.27350 0.45960 0.39500
C 	C 	0.27140 0.17430 0.57090 0.39400
O 	O 	0.03530 0.72280 0.36930 -0.52200
O 	O 	0.16270 0.62870 0.39360 -0.40900
O 	O 	0.99800 0.41410 0.40090 -0.48000
O 	O 	0.77830 0.41960 0.39920 -0.46400
O 	O 	0.46030 0.65070 0.40050 -0.43800
O 	O 	0.53180 0.73940 0.37820 -0.47500
C 	C 	0.93320 0.62900 0.38840 -0.17300
C 	C 	0.95770 0.55720 0.39320 0.09300
H 	H 	0.04760 0.53010 0.39360 0.01600
C 	C 	0.85230 0.52420 0.39730 -0.16600
C 	C 	0.72050 0.56640 0.39730 0.09400
H 	H 	0.64730 0.54490 0.40100 0.01900
C 	C 	0.69500 0.63690 0.39220 -0.16100
C 	C 	0.80080 0.66930 0.38710 0.08800
H 	H 	0.78350 0.71850 0.38270 0.00800
C 	C 	0.04840 0.66180 0.38380 0.34800
C 	C 	0.87860 0.44560 0.40000 0.42700
C 	C 	0.55300 0.67900 0.39030 0.36600
