data_crystal

_cell_length_a 6.82200
_cell_length_b 9.97000
_cell_length_c 10.91020
_cell_angle_alpha 90.00000
_cell_angle_beta  90.00000
_cell_angle_gamma 90.00000

_symmetry_space_group_name_	'P 1'
_symmetry_space_group_name_H-M	'P 1'

loop_
_symmetry_equiv_pos_as_xyz
  x,y,z

loop_
_atom_site_label
_atom_site_type_symbol
_atom_site_fract_x
_atom_site_fract_y
_atom_site_fract_z
_atom_site_charge
Co	Co	0.14164 0.70302 0.29004 1.16700
Co	Co	0.35836 0.29698 0.79004 1.16800
Co	Co	0.85836 0.20302 0.20996 1.16800
Co	Co	0.64164 0.79698 0.70996 1.16900
H 	H 	0.62600 0.62500 0.42060 0.20000
H 	H 	0.47000 0.58600 0.50900 0.16400
H 	H 	0.45100 0.39700 0.31020 0.13300
H 	H 	0.33600 0.41800 0.42860 0.12100
H 	H 	0.87400 0.37500 0.92060 0.19200
H 	H 	0.03000 0.41400 0.00900 0.15700
H 	H 	0.04900 0.60300 0.81020 0.13400
H 	H 	0.16400 0.58200 0.92860 0.12200
H 	H 	0.37400 0.12500 0.07940 0.19800
H 	H 	0.53000 0.08600 0.99100 0.15900
H 	H 	0.54900 0.89700 0.18980 0.13300
H 	H 	0.66400 0.91800 0.07140 0.12100
H 	H 	0.12600 0.87500 0.57940 0.20000
H 	H 	0.97000 0.91400 0.49100 0.16400
H 	H 	0.95100 0.10300 0.68980 0.13300
H 	H 	0.83600 0.08200 0.57140 0.12100
C 	C 	0.45440 0.78330 0.44811 0.43300
C 	C 	0.49950 0.63475 0.43512 -0.41700
C 	C 	0.34130 0.44302 0.34464 -0.29400
C 	C 	0.15020 0.41557 0.27613 0.40500
C 	C 	0.04560 0.21670 0.94811 0.42700
C 	C 	0.00050 0.36525 0.93512 -0.39900
C 	C 	0.15870 0.55698 0.84464 -0.29200
C 	C 	0.34980 0.58443 0.77613 0.40400
C 	C 	0.54560 0.28330 0.05189 0.43100
C 	C 	0.50050 0.13475 0.06488 -0.40900
C 	C 	0.65870 0.94302 0.15536 -0.29400
C 	C 	0.84980 0.91557 0.22387 0.40400
C 	C 	0.95440 0.71670 0.55189 0.43300
C 	C 	0.99950 0.86525 0.56488 -0.41700
C 	C 	0.84130 0.05698 0.65536 -0.29500
C 	C 	0.65020 0.08443 0.72387 0.40200
O 	O 	0.33669 0.83676 0.37259 -0.43000
O 	O 	0.53659 0.84711 0.53243 -0.41900
O 	O 	0.04806 0.51017 0.23843 -0.44100
O 	O 	0.11078 0.29178 0.26394 -0.44700
O 	O 	0.38461 0.58238 0.33661 -0.17700
O 	O 	0.16331 0.16324 0.87259 -0.42900
O 	O 	0.96341 0.15289 0.03243 -0.41500
O 	O 	0.45194 0.48983 0.73843 -0.44100
O 	O 	0.38922 0.70822 0.76394 -0.44600
O 	O 	0.11539 0.41762 0.83661 -0.18000
O 	O 	0.66331 0.33676 0.12741 -0.42900
O 	O 	0.46341 0.34711 0.96757 -0.41900
O 	O 	0.95194 0.01017 0.26157 -0.44000
O 	O 	0.88922 0.79178 0.23606 -0.44600
O 	O 	0.61539 0.08238 0.16339 -0.17800
O 	O 	0.83669 0.66324 0.62741 -0.43000
O 	O 	0.03659 0.65289 0.46757 -0.41900
O 	O 	0.54806 0.98983 0.76157 -0.43800
O 	O 	0.61078 0.20822 0.73606 -0.44600
O 	O 	0.88461 0.91762 0.66339 -0.17600
