data_crystal

_cell_length_a 5.99530
_cell_length_b 11.93550
_cell_length_c 23.36800
_cell_angle_alpha 90.00000
_cell_angle_beta  97.07600
_cell_angle_gamma 90.00000

_symmetry_space_group_name_	'P 1'
_symmetry_space_group_name_H-M	'P 1'

loop_
_symmetry_equiv_pos_as_xyz
  x,y,z

loop_
_atom_site_label
_atom_site_type_symbol
_atom_site_fract_x
_atom_site_fract_y
_atom_site_fract_z
_atom_site_charge
Gd	Gd	0.61423 0.14572 0.04399 1.45600
O 	O 	0.50800 0.83490 0.15480 -0.28700
O 	O 	0.62100 0.93270 0.03550 -0.50500
O 	O 	0.84500 0.00700 0.10680 -0.37800
O 	O 	0.29500 0.72020 0.02930 -0.35700
O 	O 	0.12300 0.88310 0.02800 -0.34700
O 	O 	0.53900 0.74430 0.41190 -0.34500
O 	O 	0.82700 0.73280 0.36140 -0.36200
C 	C 	0.68400 0.76440 0.14390 0.25500
C 	C 	0.82400 0.80970 0.10520 -0.19700
C 	C 	0.99900 0.74160 0.09080 0.05000
C 	C 	0.04400 0.63900 0.11520 -0.14200
H 	H 	0.17260 0.59790 0.10800 0.09000
C 	C 	0.89600 0.59690 0.15090 0.10800
H 	H 	0.92060 0.52400 0.16680 -0.00000
C 	C 	0.71600 0.65800 0.16390 -0.24000
H 	H 	0.61220 0.62550 0.18690 0.11700
C 	C 	0.76200 0.92160 0.08050 0.42000
C 	C 	0.15200 0.78450 0.04820 0.26400
C 	C 	0.44200 0.83720 0.20950 0.23800
C 	C 	0.57400 0.79630 0.25980 -0.18000
H 	H 	0.71880 0.76470 0.25830 0.10900
C 	C 	0.48100 0.80480 0.31150 0.02500
C 	C 	0.27200 0.85000 0.31420 -0.11700
H 	H 	0.20850 0.85150 0.34940 0.07300
C 	C 	0.15500 0.89360 0.26310 0.09200
H 	H 	0.01390 0.92890 0.26500 0.00400
C 	C 	0.23500 0.88760 0.21200 -0.21900
H 	H 	0.15100 0.91710 0.17820 0.13400
C 	C 	0.61500 0.75910 0.36240 0.24400
Gd	Gd	0.88577 0.64572 0.45601 1.46000
O 	O 	0.99200 0.33490 0.34520 -0.28100
O 	O 	0.87900 0.43270 0.46450 -0.50600
O 	O 	0.65500 0.50700 0.39320 -0.37800
O 	O 	0.20500 0.22020 0.47070 -0.36000
O 	O 	0.37700 0.38310 0.47200 -0.35000
O 	O 	0.96100 0.24430 0.08810 -0.34600
O 	O 	0.67300 0.23280 0.13860 -0.36400
C 	C 	0.81600 0.26440 0.35610 0.25100
C 	C 	0.67600 0.30970 0.39480 -0.19400
C 	C 	0.50100 0.24160 0.40920 0.04600
C 	C 	0.45600 0.13900 0.38480 -0.13600
H 	H 	0.32740 0.09790 0.39200 0.08800
C 	C 	0.60400 0.09690 0.34910 0.10200
H 	H 	0.57940 0.02400 0.33320 0.00100
C 	C 	0.78400 0.15800 0.33610 -0.23500
H 	H 	0.88780 0.12550 0.31310 0.11600
C 	C 	0.73800 0.42160 0.41950 0.41900
C 	C 	0.34800 0.28450 0.45180 0.26600
C 	C 	0.05800 0.33720 0.29050 0.22000
C 	C 	0.92600 0.29630 0.24020 -0.15800
H 	H 	0.78120 0.26470 0.24170 0.10200
C 	C 	0.01900 0.30480 0.18850 0.00700
C 	C 	0.22800 0.35000 0.18580 -0.10300
H 	H 	0.29150 0.35150 0.15060 0.06800
C 	C 	0.34500 0.39360 0.23690 0.07900
H 	H 	0.48610 0.42890 0.23500 0.00900
C 	C 	0.26500 0.38760 0.28800 -0.20500
H 	H 	0.34900 0.41710 0.32180 0.12900
C 	C 	0.88500 0.25910 0.13760 0.25300
Gd	Gd	0.38577 0.85428 0.95601 1.45500
O 	O 	0.49200 0.16510 0.84520 -0.28800
O 	O 	0.37900 0.06730 0.96450 -0.50600
O 	O 	0.15500 0.99300 0.89320 -0.37900
O 	O 	0.70500 0.27980 0.97070 -0.35800
O 	O 	0.87700 0.11690 0.97200 -0.34800
O 	O 	0.46100 0.25570 0.58810 -0.34500
O 	O 	0.17300 0.26720 0.63860 -0.36200
C 	C 	0.31600 0.23560 0.85610 0.25500
C 	C 	0.17600 0.19030 0.89480 -0.19700
C 	C 	0.00100 0.25840 0.90920 0.05000
C 	C 	0.95600 0.36100 0.88480 -0.14200
H 	H 	0.82740 0.40210 0.89200 0.09000
C 	C 	0.10400 0.40310 0.84910 0.10800
H 	H 	0.07940 0.47600 0.83320 -0.00000
C 	C 	0.28400 0.34200 0.83610 -0.24000
H 	H 	0.38780 0.37450 0.81310 0.11700
C 	C 	0.23800 0.07840 0.91950 0.42000
C 	C 	0.84800 0.21550 0.95180 0.26400
C 	C 	0.55800 0.16280 0.79050 0.23800
C 	C 	0.42600 0.20370 0.74020 -0.18000
H 	H 	0.28120 0.23530 0.74170 0.10900
C 	C 	0.51900 0.19520 0.68850 0.02500
C 	C 	0.72800 0.15000 0.68580 -0.11700
H 	H 	0.79150 0.14850 0.65060 0.07300
C 	C 	0.84500 0.10640 0.73690 0.09200
H 	H 	0.98610 0.07110 0.73500 0.00400
C 	C 	0.76500 0.11240 0.78800 -0.21900
H 	H 	0.84900 0.08290 0.82180 0.13400
C 	C 	0.38500 0.24090 0.63760 0.24400
Gd	Gd	0.11423 0.35428 0.54399 1.46000
O 	O 	0.00800 0.66510 0.65480 -0.28100
O 	O 	0.12100 0.56730 0.53550 -0.50600
O 	O 	0.34500 0.49300 0.60680 -0.37800
O 	O 	0.79500 0.77980 0.52930 -0.36000
O 	O 	0.62300 0.61690 0.52800 -0.35000
O 	O 	0.03900 0.75570 0.91190 -0.34600
O 	O 	0.32700 0.76720 0.86140 -0.36400
C 	C 	0.18400 0.73560 0.64390 0.25100
C 	C 	0.32400 0.69030 0.60520 -0.19400
C 	C 	0.49900 0.75840 0.59080 0.04600
C 	C 	0.54400 0.86100 0.61520 -0.13600
H 	H 	0.67260 0.90210 0.60800 0.08800
C 	C 	0.39600 0.90310 0.65090 0.10200
H 	H 	0.42060 0.97600 0.66680 0.00100
C 	C 	0.21600 0.84200 0.66390 -0.23500
H 	H 	0.11220 0.87450 0.68690 0.11600
C 	C 	0.26200 0.57840 0.58050 0.41900
C 	C 	0.65200 0.71550 0.54820 0.26600
C 	C 	0.94200 0.66280 0.70950 0.22000
C 	C 	0.07400 0.70370 0.75980 -0.15800
H 	H 	0.21880 0.73530 0.75830 0.10200
C 	C 	0.98100 0.69520 0.81150 0.00700
C 	C 	0.77200 0.65000 0.81420 -0.10300
H 	H 	0.70850 0.64850 0.84940 0.06800
C 	C 	0.65500 0.60640 0.76310 0.07900
H 	H 	0.51390 0.57110 0.76500 0.00900
C 	C 	0.73500 0.61240 0.71200 -0.20500
H 	H 	0.65100 0.58290 0.67820 0.12900
C 	C 	0.11500 0.74090 0.86240 0.25300
