data_crystal

_cell_length_a 17.38800
_cell_length_b 12.41800
_cell_length_c 19.70910
_cell_angle_alpha 90.00000
_cell_angle_beta  90.85400
_cell_angle_gamma 90.00000

_symmetry_space_group_name_	'P 1'
_symmetry_space_group_name_H-M	'P 1'

loop_
_symmetry_equiv_pos_as_xyz
  x,y,z

loop_
_atom_site_label
_atom_site_type_symbol
_atom_site_fract_x
_atom_site_fract_y
_atom_site_fract_z
_atom_site_charge
Mn	Mn	0.66884 0.00370 0.83619 1.21800
Mn	Mn	0.65730 0.26640 0.74232 1.24200
Mn	Mn	0.66135 0.00130 0.65645 1.21600
O 	O 	0.63140 0.09400 0.74710 -0.70000
O 	O 	0.69860 0.13580 0.90240 -0.50700
O 	O 	0.67020 0.29130 0.85060 -0.48500
C 	C 	0.69810 0.23470 0.89860 0.37300
C 	C 	0.73360 0.29660 0.95770 -0.07900
C 	C 	0.79760 0.26070 0.99080 -0.04800
H 	H 	0.82170 0.19570 0.97730 0.03200
C 	C 	0.82800 0.32090 0.04540 0.02300
H 	H 	0.87430 0.29750 0.06700 -0.00300
N 	N 	0.79370 0.40940 0.06770 -0.20800
C 	C 	0.72950 0.44190 0.03580 0.02700
H 	H 	0.70370 0.50340 0.05290 0.02000
C 	C 	0.69890 0.39130 0.97980 -0.04800
H 	H 	0.65520 0.42000 0.95660 0.04800
O 	O 	0.64980 0.84370 0.79840 -0.44500
O 	O 	0.61250 0.84760 0.68980 -0.42900
C 	C 	0.63700 0.80100 0.74240 0.36800
C 	C 	0.64840 0.68070 0.73850 -0.06200
C 	C 	0.62970 0.62110 0.68170 -0.04500
H 	H 	0.61120 0.65560 0.64160 0.05200
C 	C 	0.63830 0.51010 0.68380 0.02700
H 	H 	0.62320 0.47000 0.64480 0.01700
N 	N 	0.66620 0.45660 0.73700 -0.21100
C 	C 	0.68670 0.51490 0.79210 0.01700
H 	H 	0.70790 0.47850 0.83040 0.01500
C 	C 	0.67780 0.62800 0.79520 -0.04400
H 	H 	0.69150 0.66680 0.83510 0.05500
O 	O 	0.78710 0.99820 0.80730 -0.39700
O 	O 	0.76970 0.95270 0.69790 -0.42100
C 	C 	0.80760 0.95690 0.75270 0.35200
C 	C 	0.88530 0.90450 0.75200 -0.03800
C 	C 	0.93180 0.89920 0.81050 -0.05200
H 	H 	0.91450 0.92910 0.85190 0.07400
C 	C 	0.00280 0.85030 0.80790 0.03900
H 	H 	0.03320 0.84600 0.84830 0.01700
N 	N 	0.03090 0.80840 0.75040 -0.22100
C 	C 	0.98590 0.81130 0.69520 0.03900
H 	H 	0.00430 0.78010 0.65450 -0.00100
C 	C 	0.91390 0.85760 0.69420 -0.05500
H 	H 	0.88380 0.85710 0.65360 0.06200
O 	O 	0.64850 0.27690 0.63430 -0.49100
O 	O 	0.71160 0.13030 0.60300 -0.53100
C 	C 	0.69350 0.22620 0.59660 0.36100
C 	C 	0.72980 0.28830 0.53970 -0.08900
C 	C 	0.80090 0.26120 0.51540 -0.04400
H 	H 	0.82810 0.20110 0.53350 0.02400
C 	C 	0.83240 0.32300 0.46410 0.02000
H 	H 	0.88190 0.30410 0.44810 -0.00100
N 	N 	0.79690 0.40700 0.43640 -0.20900
C 	C 	0.72680 0.43290 0.45890 0.02000
H 	H 	0.70030 0.49150 0.43830 0.02400
C 	C 	0.69130 0.37720 0.51140 -0.04100
H 	H 	0.64240 0.39890 0.52750 0.04500
Mn	Mn	0.16884 0.50370 0.83619 1.26400
Mn	Mn	0.15730 0.76640 0.74232 1.25000
Mn	Mn	0.16135 0.50130 0.65645 1.26300
O 	O 	0.13140 0.59400 0.74710 -0.66200
O 	O 	0.19860 0.63580 0.90240 -0.46800
O 	O 	0.17020 0.79130 0.85060 -0.46500
C 	C 	0.19810 0.73470 0.89860 0.35000
C 	C 	0.23360 0.79660 0.95770 -0.00000
C 	C 	0.29760 0.76070 0.99080 -0.09300
H 	H 	0.32170 0.69570 0.97730 0.06400
C 	C 	0.32800 0.82090 0.04540 0.06200
H 	H 	0.37430 0.79750 0.06700 0.00200
N 	N 	0.29370 0.90940 0.06770 -0.23300
C 	C 	0.22950 0.94190 0.03580 0.28000
H 	H 	0.20370 0.00340 0.05290 -0.14300
C 	C 	0.19890 0.89130 0.97980 -0.18400
H 	H 	0.15520 0.92000 0.95660 0.11700
O 	O 	0.14980 0.34370 0.79840 -0.49700
O 	O 	0.11250 0.34760 0.68980 -0.48500
C 	C 	0.13700 0.30100 0.74240 0.44000
C 	C 	0.14840 0.18070 0.73850 -0.25700
C 	C 	0.12970 0.12110 0.68170 0.21600
H 	H 	0.11120 0.15560 0.64160 -0.05600
C 	C 	0.13830 0.01010 0.68380 -0.39600
H 	H 	0.12320 0.97000 0.64480 0.22100
N 	N 	0.16620 0.95660 0.73700 0.00500
C 	C 	0.18670 0.01490 0.79210 -0.38300
H 	H 	0.20790 0.97850 0.83040 0.21500
C 	C 	0.17780 0.12800 0.79520 0.19600
H 	H 	0.19150 0.16680 0.83510 -0.04200
O 	O 	0.28710 0.49820 0.80730 -0.45600
O 	O 	0.26970 0.45270 0.69790 -0.46400
C 	C 	0.30760 0.45690 0.75270 0.36200
C 	C 	0.38530 0.40450 0.75200 -0.06200
C 	C 	0.43180 0.39920 0.81050 -0.04900
H 	H 	0.41450 0.42910 0.85190 0.05300
C 	C 	0.50280 0.35030 0.80790 0.01800
H 	H 	0.53320 0.34600 0.84830 0.01000
N 	N 	0.53090 0.30840 0.75040 -0.22500
C 	C 	0.48590 0.31130 0.69520 0.02400
H 	H 	0.50430 0.28010 0.65450 -0.00600
C 	C 	0.41390 0.35760 0.69420 -0.05400
H 	H 	0.38380 0.35710 0.65360 0.05300
O 	O 	0.14850 0.77690 0.63430 -0.48000
O 	O 	0.21160 0.63030 0.60300 -0.48800
C 	C 	0.19350 0.72620 0.59660 0.35800
C 	C 	0.22980 0.78830 0.53970 -0.06900
C 	C 	0.30090 0.76120 0.51540 -0.04500
H 	H 	0.32810 0.70110 0.53350 0.05000
C 	C 	0.33240 0.82300 0.46410 0.03500
H 	H 	0.38190 0.80410 0.44810 0.01000
N 	N 	0.29690 0.90700 0.43640 -0.18900
C 	C 	0.22680 0.93290 0.45890 0.03300
H 	H 	0.20030 0.99150 0.43830 0.05400
C 	C 	0.19130 0.87720 0.51140 -0.03600
H 	H 	0.14240 0.89890 0.52750 0.05600
Mn	Mn	0.33116 0.00370 0.16381 1.21900
Mn	Mn	0.34270 0.26640 0.25768 1.24300
Mn	Mn	0.33865 0.00130 0.34355 1.21700
O 	O 	0.36860 0.09400 0.25290 -0.69900
O 	O 	0.30140 0.13580 0.09760 -0.50600
O 	O 	0.32980 0.29130 0.14940 -0.48400
C 	C 	0.30190 0.23470 0.10140 0.37400
C 	C 	0.26640 0.29660 0.04230 -0.07800
C 	C 	0.20240 0.26070 0.00920 -0.04800
H 	H 	0.17830 0.19570 0.02270 0.03200
C 	C 	0.17200 0.32090 0.95460 0.02300
H 	H 	0.12570 0.29750 0.93300 -0.00300
N 	N 	0.20630 0.40940 0.93230 -0.20800
C 	C 	0.27050 0.44190 0.96420 0.02700
H 	H 	0.29630 0.50340 0.94710 0.02000
C 	C 	0.30110 0.39130 0.02020 -0.04800
H 	H 	0.34480 0.42000 0.04340 0.04800
O 	O 	0.35020 0.84370 0.20160 -0.44500
O 	O 	0.38750 0.84760 0.31020 -0.42900
C 	C 	0.36300 0.80100 0.25760 0.36800
C 	C 	0.35160 0.68070 0.26150 -0.06200
C 	C 	0.37030 0.62110 0.31830 -0.04500
H 	H 	0.38880 0.65560 0.35840 0.05200
C 	C 	0.36170 0.51010 0.31620 0.02700
H 	H 	0.37680 0.47000 0.35520 0.01700
N 	N 	0.33380 0.45660 0.26300 -0.21100
C 	C 	0.31330 0.51490 0.20790 0.01700
H 	H 	0.29210 0.47850 0.16960 0.01500
C 	C 	0.32220 0.62800 0.20480 -0.04400
H 	H 	0.30850 0.66680 0.16490 0.05500
O 	O 	0.21290 0.99820 0.19270 -0.39700
O 	O 	0.23030 0.95270 0.30210 -0.42100
C 	C 	0.19240 0.95690 0.24730 0.35200
C 	C 	0.11470 0.90450 0.24800 -0.03800
C 	C 	0.06820 0.89920 0.18950 -0.05200
H 	H 	0.08550 0.92910 0.14810 0.07400
C 	C 	0.99720 0.85030 0.19210 0.03900
H 	H 	0.96680 0.84600 0.15170 0.01700
N 	N 	0.96910 0.80840 0.24960 -0.22100
C 	C 	0.01410 0.81130 0.30480 0.03900
H 	H 	0.99570 0.78010 0.34550 -0.00100
C 	C 	0.08610 0.85760 0.30580 -0.05500
H 	H 	0.11620 0.85710 0.34640 0.06200
O 	O 	0.35150 0.27690 0.36570 -0.49100
O 	O 	0.28840 0.13030 0.39700 -0.53100
C 	C 	0.30650 0.22620 0.40340 0.36100
C 	C 	0.27020 0.28830 0.46030 -0.08900
C 	C 	0.19910 0.26120 0.48460 -0.04400
H 	H 	0.17190 0.20110 0.46650 0.02400
C 	C 	0.16760 0.32300 0.53590 0.02000
H 	H 	0.11810 0.30410 0.55190 -0.00100
N 	N 	0.20310 0.40700 0.56360 -0.20900
C 	C 	0.27320 0.43290 0.54110 0.02000
H 	H 	0.29970 0.49150 0.56170 0.02400
C 	C 	0.30870 0.37720 0.48860 -0.04100
H 	H 	0.35760 0.39890 0.47250 0.04500
Mn	Mn	0.83116 0.50370 0.16381 1.26400
Mn	Mn	0.84270 0.76640 0.25768 1.25000
Mn	Mn	0.83865 0.50130 0.34355 1.26300
O 	O 	0.86860 0.59400 0.25290 -0.66200
O 	O 	0.80140 0.63580 0.09760 -0.46800
O 	O 	0.82980 0.79130 0.14940 -0.46500
C 	C 	0.80190 0.73470 0.10140 0.35000
C 	C 	0.76640 0.79660 0.04230 -0.00000
C 	C 	0.70240 0.76070 0.00920 -0.09300
H 	H 	0.67830 0.69570 0.02270 0.06400
C 	C 	0.67200 0.82090 0.95460 0.06200
H 	H 	0.62570 0.79750 0.93300 0.00200
N 	N 	0.70630 0.90940 0.93230 -0.23300
C 	C 	0.77050 0.94190 0.96420 0.28000
H 	H 	0.79630 0.00340 0.94710 -0.14300
C 	C 	0.80110 0.89130 0.02020 -0.18400
H 	H 	0.84480 0.92000 0.04340 0.11700
O 	O 	0.85020 0.34370 0.20160 -0.49700
O 	O 	0.88750 0.34760 0.31020 -0.48500
C 	C 	0.86300 0.30100 0.25760 0.44000
C 	C 	0.85160 0.18070 0.26150 -0.25700
C 	C 	0.87030 0.12110 0.31830 0.21600
H 	H 	0.88880 0.15560 0.35840 -0.05600
C 	C 	0.86170 0.01010 0.31620 -0.39600
H 	H 	0.87680 0.97000 0.35520 0.22100
N 	N 	0.83380 0.95660 0.26300 0.00500
C 	C 	0.81330 0.01490 0.20790 -0.38300
H 	H 	0.79210 0.97850 0.16960 0.21500
C 	C 	0.82220 0.12800 0.20480 0.19600
H 	H 	0.80850 0.16680 0.16490 -0.04200
O 	O 	0.71290 0.49820 0.19270 -0.45600
O 	O 	0.73030 0.45270 0.30210 -0.46400
C 	C 	0.69240 0.45690 0.24730 0.36200
C 	C 	0.61470 0.40450 0.24800 -0.06200
C 	C 	0.56820 0.39920 0.18950 -0.04900
H 	H 	0.58550 0.42910 0.14810 0.05300
C 	C 	0.49720 0.35030 0.19210 0.01800
H 	H 	0.46680 0.34600 0.15170 0.01000
N 	N 	0.46910 0.30840 0.24960 -0.22500
C 	C 	0.51410 0.31130 0.30480 0.02400
H 	H 	0.49570 0.28010 0.34550 -0.00600
C 	C 	0.58610 0.35760 0.30580 -0.05400
H 	H 	0.61620 0.35710 0.34640 0.05300
O 	O 	0.85150 0.77690 0.36570 -0.48000
O 	O 	0.78840 0.63030 0.39700 -0.48800
C 	C 	0.80650 0.72620 0.40340 0.35800
C 	C 	0.77020 0.78830 0.46030 -0.06900
C 	C 	0.69910 0.76120 0.48460 -0.04500
H 	H 	0.67190 0.70110 0.46650 0.05000
C 	C 	0.66760 0.82300 0.53590 0.03500
H 	H 	0.61810 0.80410 0.55190 0.01000
N 	N 	0.70310 0.90700 0.56360 -0.18900
C 	C 	0.77320 0.93290 0.54110 0.03300
H 	H 	0.79970 0.99150 0.56170 0.05400
C 	C 	0.80870 0.87720 0.48860 -0.03600
H 	H 	0.85760 0.89890 0.47250 0.05600
