data_crystal

_cell_length_a 19.70700
_cell_length_b 18.17540
_cell_length_c 12.60850
_cell_angle_alpha 90.00000
_cell_angle_beta  90.00000
_cell_angle_gamma 90.00000

_symmetry_space_group_name_	'P 1'
_symmetry_space_group_name_H-M	'P 1'

loop_
_symmetry_equiv_pos_as_xyz
  x,y,z

loop_
_atom_site_label
_atom_site_type_symbol
_atom_site_fract_x
_atom_site_fract_y
_atom_site_fract_z
_atom_site_charge
Cd	Cd	0.15888 0.16339 0.21163 1.21100
O 	O 	0.13360 0.14660 0.93150 -0.44400
O 	O 	0.10580 0.21430 0.07180 -0.41300
C 	C 	0.09770 0.19290 0.97860 0.27700
C 	C 	0.03950 0.22460 0.91560 -0.01500
C 	C 	0.01470 0.19230 0.82640 -0.08400
H 	H 	0.03320 0.14720 0.80200 0.06100
C 	C 	0.96280 0.22550 0.77210 0.04200
H 	H 	0.94550 0.20180 0.71050 0.01800
N 	N 	0.93480 0.29080 0.80220 -0.22100
C 	C 	0.96030 0.32400 0.88950 0.06300
H 	H 	0.94240 0.37020 0.91080 -0.02200
C 	C 	0.01190 0.29200 0.94880 -0.15700
H 	H 	0.02830 0.31550 0.01110 0.11000
C 	C 	0.19350 0.14320 0.70230 0.02700
H 	H 	0.15190 0.14770 0.73980 0.01100
C 	C 	0.19100 0.13070 0.59290 -0.04500
H 	H 	0.14840 0.12340 0.55900 0.05000
O 	O 	0.19360 0.11620 0.37150 -0.45200
C 	C 	0.30560 0.98560 0.88360 0.02800
H 	H 	0.34730 0.00960 0.89850 -0.00300
C 	C 	0.30840 0.91550 0.84120 -0.04600
H 	H 	0.35070 0.89210 0.82880 0.05100
O 	O 	0.30440 0.77840 0.74900 -0.47400
Cd	Cd	0.15888 0.66339 0.71163 1.20700
O 	O 	0.13360 0.64660 0.43150 -0.45200
O 	O 	0.10580 0.71430 0.57180 -0.45600
C 	C 	0.09770 0.69290 0.47860 0.34100
C 	C 	0.03950 0.72460 0.41560 -0.06400
C 	C 	0.01470 0.69230 0.32640 -0.04800
H 	H 	0.03320 0.64720 0.30200 0.05100
C 	C 	0.96280 0.72550 0.27210 0.02600
H 	H 	0.94550 0.70180 0.21050 0.02500
N 	N 	0.93480 0.79080 0.30220 -0.20700
C 	C 	0.96030 0.82400 0.38950 0.02100
H 	H 	0.94240 0.87020 0.41080 0.00400
C 	C 	0.01190 0.79200 0.44880 -0.05200
H 	H 	0.02830 0.81550 0.51110 0.05100
C 	C 	0.19350 0.64320 0.20230 0.04600
H 	H 	0.15190 0.64770 0.23980 0.00900
C 	C 	0.19100 0.63070 0.09290 -0.07200
H 	H 	0.14840 0.62340 0.05900 0.07100
O 	O 	0.19360 0.61620 0.87150 -0.45300
C 	C 	0.30560 0.48560 0.38360 0.03100
H 	H 	0.34730 0.50960 0.39850 0.00200
C 	C 	0.30840 0.41550 0.34120 -0.04400
H 	H 	0.35070 0.39210 0.32880 0.05400
O 	O 	0.30440 0.27840 0.24900 -0.47100
Cd	Cd	0.84112 0.83661 0.21163 1.21000
O 	O 	0.86640 0.85340 0.93150 -0.44500
O 	O 	0.89420 0.78570 0.07180 -0.41400
C 	C 	0.90230 0.80710 0.97860 0.27600
C 	C 	0.96050 0.77540 0.91560 -0.01500
C 	C 	0.98530 0.80770 0.82640 -0.08400
H 	H 	0.96680 0.85280 0.80200 0.06100
C 	C 	0.03720 0.77450 0.77210 0.04200
H 	H 	0.05450 0.79820 0.71050 0.01800
N 	N 	0.06520 0.70920 0.80220 -0.22100
C 	C 	0.03970 0.67600 0.88950 0.06300
H 	H 	0.05760 0.62980 0.91080 -0.02200
C 	C 	0.98810 0.70800 0.94880 -0.15700
H 	H 	0.97170 0.68450 0.01110 0.11000
C 	C 	0.80650 0.85680 0.70230 0.02700
H 	H 	0.84810 0.85230 0.73980 0.01100
C 	C 	0.80900 0.86930 0.59290 -0.04500
H 	H 	0.85160 0.87660 0.55900 0.05000
O 	O 	0.80640 0.88380 0.37150 -0.45200
C 	C 	0.69440 0.01440 0.88360 0.02800
H 	H 	0.65270 0.99040 0.89850 -0.00300
C 	C 	0.69160 0.08450 0.84120 -0.04600
H 	H 	0.64930 0.10790 0.82880 0.05100
O 	O 	0.69560 0.22160 0.74900 -0.47400
Cd	Cd	0.84112 0.33661 0.71163 1.20700
O 	O 	0.86640 0.35340 0.43150 -0.45200
O 	O 	0.89420 0.28570 0.57180 -0.45600
C 	C 	0.90230 0.30710 0.47860 0.34100
C 	C 	0.96050 0.27540 0.41560 -0.06400
C 	C 	0.98530 0.30770 0.32640 -0.04800
H 	H 	0.96680 0.35280 0.30200 0.05100
C 	C 	0.03720 0.27450 0.27210 0.02600
H 	H 	0.05450 0.29820 0.21050 0.02500
N 	N 	0.06520 0.20920 0.30220 -0.20700
C 	C 	0.03970 0.17600 0.38950 0.02100
H 	H 	0.05760 0.12980 0.41080 0.00400
C 	C 	0.98810 0.20800 0.44880 -0.05200
H 	H 	0.97170 0.18450 0.51110 0.05100
C 	C 	0.80650 0.35680 0.20230 0.04600
H 	H 	0.84810 0.35230 0.23980 0.00900
C 	C 	0.80900 0.36930 0.09290 -0.07200
H 	H 	0.85160 0.37660 0.05900 0.07100
O 	O 	0.80640 0.38380 0.87150 -0.45300
C 	C 	0.69440 0.51440 0.38360 0.03100
H 	H 	0.65270 0.49040 0.39850 0.00200
C 	C 	0.69160 0.58450 0.34120 -0.04400
H 	H 	0.64930 0.60790 0.32880 0.05400
O 	O 	0.69560 0.72160 0.24900 -0.47100
Cd	Cd	0.65888 0.83661 0.21163 1.21000
O 	O 	0.63360 0.85340 0.93150 -0.44500
O 	O 	0.60580 0.78570 0.07180 -0.41400
C 	C 	0.59770 0.80710 0.97860 0.27600
C 	C 	0.53950 0.77540 0.91560 -0.01400
C 	C 	0.51470 0.80770 0.82640 -0.08400
H 	H 	0.53320 0.85280 0.80200 0.06100
C 	C 	0.46280 0.77450 0.77210 0.04200
H 	H 	0.44550 0.79820 0.71050 0.01800
N 	N 	0.43480 0.70920 0.80220 -0.22100
C 	C 	0.46030 0.67600 0.88950 0.06400
H 	H 	0.44240 0.62980 0.91080 -0.02300
C 	C 	0.51190 0.70800 0.94880 -0.15800
H 	H 	0.52830 0.68450 0.01110 0.11100
C 	C 	0.69350 0.85680 0.70230 0.02700
H 	H 	0.65190 0.85230 0.73980 0.01100
C 	C 	0.69100 0.86930 0.59290 -0.04500
H 	H 	0.64840 0.87660 0.55900 0.05000
O 	O 	0.69360 0.88380 0.37150 -0.45200
C 	C 	0.80560 0.01440 0.88360 0.02800
H 	H 	0.84730 0.99040 0.89850 -0.00300
C 	C 	0.80840 0.08450 0.84120 -0.04600
H 	H 	0.85070 0.10790 0.82880 0.05100
O 	O 	0.80440 0.22160 0.74900 -0.47400
Cd	Cd	0.65888 0.33661 0.71163 1.20700
O 	O 	0.63360 0.35340 0.43150 -0.45200
O 	O 	0.60580 0.28570 0.57180 -0.45600
C 	C 	0.59770 0.30710 0.47860 0.34100
C 	C 	0.53950 0.27540 0.41560 -0.06400
C 	C 	0.51470 0.30770 0.32640 -0.04800
H 	H 	0.53320 0.35280 0.30200 0.05200
C 	C 	0.46280 0.27450 0.27210 0.02600
H 	H 	0.44550 0.29820 0.21050 0.02500
N 	N 	0.43480 0.20920 0.30220 -0.20700
C 	C 	0.46030 0.17600 0.38950 0.02100
H 	H 	0.44240 0.12980 0.41080 0.00400
C 	C 	0.51190 0.20800 0.44880 -0.05200
H 	H 	0.52830 0.18450 0.51110 0.05100
C 	C 	0.69350 0.35680 0.20230 0.04600
H 	H 	0.65190 0.35230 0.23980 0.00900
C 	C 	0.69100 0.36930 0.09290 -0.07200
H 	H 	0.64840 0.37660 0.05900 0.07100
O 	O 	0.69360 0.38380 0.87150 -0.45300
C 	C 	0.80560 0.51440 0.38360 0.03100
H 	H 	0.84730 0.49040 0.39850 0.00100
C 	C 	0.80840 0.58450 0.34120 -0.04400
H 	H 	0.85070 0.60790 0.32880 0.05400
O 	O 	0.80440 0.72160 0.24900 -0.47100
Cd	Cd	0.34112 0.16339 0.21163 1.21000
O 	O 	0.36640 0.14660 0.93150 -0.44500
O 	O 	0.39420 0.21430 0.07180 -0.41400
C 	C 	0.40230 0.19290 0.97860 0.27600
C 	C 	0.46050 0.22460 0.91560 -0.01400
C 	C 	0.48530 0.19230 0.82640 -0.08400
H 	H 	0.46680 0.14720 0.80200 0.06100
C 	C 	0.53720 0.22550 0.77210 0.04200
H 	H 	0.55450 0.20180 0.71050 0.01800
N 	N 	0.56520 0.29080 0.80220 -0.22100
C 	C 	0.53970 0.32400 0.88950 0.06400
H 	H 	0.55760 0.37020 0.91080 -0.02300
C 	C 	0.48810 0.29200 0.94880 -0.15800
H 	H 	0.47170 0.31550 0.01110 0.11100
C 	C 	0.30650 0.14320 0.70230 0.02700
H 	H 	0.34810 0.14770 0.73980 0.01100
C 	C 	0.30900 0.13070 0.59290 -0.04500
H 	H 	0.35160 0.12340 0.55900 0.05000
O 	O 	0.30640 0.11620 0.37150 -0.45200
C 	C 	0.19440 0.98560 0.88360 0.02800
H 	H 	0.15270 0.00960 0.89850 -0.00300
C 	C 	0.19160 0.91550 0.84120 -0.04600
H 	H 	0.14930 0.89210 0.82880 0.05100
O 	O 	0.19560 0.77840 0.74900 -0.47400
Cd	Cd	0.34112 0.66339 0.71163 1.20700
O 	O 	0.36640 0.64660 0.43150 -0.45200
O 	O 	0.39420 0.71430 0.57180 -0.45600
C 	C 	0.40230 0.69290 0.47860 0.34100
C 	C 	0.46050 0.72460 0.41560 -0.06400
C 	C 	0.48530 0.69230 0.32640 -0.04800
H 	H 	0.46680 0.64720 0.30200 0.05200
C 	C 	0.53720 0.72550 0.27210 0.02600
H 	H 	0.55450 0.70180 0.21050 0.02500
N 	N 	0.56520 0.79080 0.30220 -0.20700
C 	C 	0.53970 0.82400 0.38950 0.02100
H 	H 	0.55760 0.87020 0.41080 0.00400
C 	C 	0.48810 0.79200 0.44880 -0.05200
H 	H 	0.47170 0.81550 0.51110 0.05100
C 	C 	0.30650 0.64320 0.20230 0.04600
H 	H 	0.34810 0.64770 0.23980 0.00900
C 	C 	0.30900 0.63070 0.09290 -0.07200
H 	H 	0.35160 0.62340 0.05900 0.07100
O 	O 	0.30640 0.61620 0.87150 -0.45300
C 	C 	0.19440 0.48560 0.38360 0.03100
H 	H 	0.15270 0.50960 0.39850 0.00100
C 	C 	0.19160 0.41550 0.34120 -0.04400
H 	H 	0.14930 0.39210 0.32880 0.05400
O 	O 	0.19560 0.27840 0.24900 -0.47100
Cd	Cd	0.25000 0.14500 0.94683 1.18700
N 	N 	0.25000 0.14900 0.75550 -0.21500
C 	C 	0.25000 0.12890 0.53390 -0.07000
C 	C 	0.25000 0.12150 0.41520 0.37100
N 	N 	0.25000 0.02050 0.90430 -0.23200
C 	C 	0.25000 0.88110 0.81790 -0.08500
C 	C 	0.25000 0.80590 0.76660 0.43500
O 	O 	0.25000 0.12340 0.12250 -0.70500
H 	H 	0.25000 0.06870 0.13040 0.12000
Cd	Cd	0.25000 0.64500 0.44683 1.19500
N 	N 	0.25000 0.64900 0.25550 -0.21900
C 	C 	0.25000 0.62890 0.03390 -0.01200
C 	C 	0.25000 0.62150 0.91520 0.32700
N 	N 	0.25000 0.52050 0.40430 -0.22800
C 	C 	0.25000 0.38110 0.31790 -0.08200
C 	C 	0.25000 0.30590 0.26660 0.43700
O 	O 	0.25000 0.62340 0.62250 -0.71600
H 	H 	0.25000 0.56870 0.63040 0.11100
Cd	Cd	0.75000 0.85500 0.94683 1.18700
N 	N 	0.75000 0.85100 0.75550 -0.21500
C 	C 	0.75000 0.87110 0.53390 -0.07000
C 	C 	0.75000 0.87850 0.41520 0.37100
N 	N 	0.75000 0.97950 0.90430 -0.23200
C 	C 	0.75000 0.11890 0.81790 -0.08500
C 	C 	0.75000 0.19410 0.76660 0.43500
O 	O 	0.75000 0.87660 0.12250 -0.70500
H 	H 	0.75000 0.93130 0.13040 0.12000
Cd	Cd	0.75000 0.35500 0.44683 1.19500
N 	N 	0.75000 0.35100 0.25550 -0.21900
C 	C 	0.75000 0.37110 0.03390 -0.01200
C 	C 	0.75000 0.37850 0.91520 0.32700
N 	N 	0.75000 0.47950 0.40430 -0.22800
C 	C 	0.75000 0.61890 0.31790 -0.08200
C 	C 	0.75000 0.69410 0.26660 0.43700
O 	O 	0.75000 0.37660 0.62250 -0.71600
H 	H 	0.75000 0.43130 0.63040 0.11100
