data_crystal

_cell_length_a 36.46160
_cell_length_b 19.28410
_cell_length_c 16.06750
_cell_angle_alpha 90.00000
_cell_angle_beta  95.67900
_cell_angle_gamma 90.00000

_symmetry_space_group_name_	'P 1'
_symmetry_space_group_name_H-M	'P 1'

loop_
_symmetry_equiv_pos_as_xyz
  x,y,z

loop_
_atom_site_label
_atom_site_type_symbol
_atom_site_fract_x
_atom_site_fract_y
_atom_site_fract_z
_atom_site_charge
N 	N 	0.28881 0.13820 0.07110 -0.09400
N 	N 	0.29700 0.81510 0.39990 -0.08700
C 	C 	0.44740 0.93700 0.91900 -0.05700
H 	H 	0.43840 0.89550 0.93830 0.03500
C 	C 	0.47330 0.93750 0.86260 -0.04500
H 	H 	0.48230 0.89600 0.84310 0.02700
C 	C 	0.30560 0.09140 0.09600 -0.25900
C 	C 	0.31500 0.84540 0.35990 -0.28000
B 	B 	0.43660 0.84160 0.11220 -0.15900
H 	H 	0.44750 0.89110 0.09120 -0.03700
C 	C 	0.23170 0.20040 0.04300 -0.07300
H 	H 	0.21990 0.16670 0.07210 0.03600
C 	C 	0.26920 0.19590 0.03550 0.04300
B 	B 	0.38900 0.81100 0.07620 -0.11700
H 	H 	0.36970 0.84050 0.03250 -0.05400
C 	C 	0.28780 0.24460 0.99320 -0.07500
H 	H 	0.31300 0.24040 0.98930 0.03800
C 	C 	0.27330 0.78190 0.45150 0.04000
C 	C 	0.28590 0.76410 0.53130 -0.07400
H 	H 	0.31010 0.77370 0.55170 0.03600
B 	B 	0.37340 0.75420 0.16020 -0.13800
H 	H 	0.34420 0.74760 0.17010 -0.06200
B 	B 	0.41160 0.74900 0.24640 -0.16500
H 	H 	0.40670 0.73860 0.31170 -0.07400
C 	C 	0.23750 0.76830 0.41830 -0.07400
H 	H 	0.22940 0.78060 0.36360 0.03700
B 	B 	0.42870 0.77140 0.04210 0.30000
H 	H 	0.43440 0.77690 0.97650 -0.14600
B 	B 	0.45090 0.80390 0.21770 -0.11500
H 	H 	0.47080 0.82850 0.26450 -0.07900
B 	B 	0.39140 0.72060 0.07100 0.25600
H 	H 	0.37290 0.69310 0.02390 -0.13400
B 	B 	0.46500 0.76790 0.12470 0.27900
H 	H 	0.49410 0.77170 0.11300 -0.14200
B 	B 	0.40420 0.68390 0.17120 0.30800
H 	H 	0.39410 0.63300 0.18980 -0.15300
B 	B 	0.43770 0.69300 0.09680 -0.27500
H 	H 	0.44920 0.64760 0.06690 0.01100
B 	B 	0.23040 0.95190 0.35040 -0.06700
H 	H 	0.24340 0.92150 0.40320 -0.07500
B 	B 	0.22760 0.92020 0.23930 -0.16400
H 	H 	0.23870 0.86980 0.22170 -0.04600
B 	B 	0.45030 0.71290 0.20220 0.26700
H 	H 	0.47020 0.68030 0.24030 -0.14700
B 	B 	0.34720 0.95150 0.55120 -0.07700
H 	H 	0.32320 0.92110 0.52560 -0.08800
B 	B 	0.18820 0.92580 0.29460 0.28800
H 	H 	0.17510 0.87730 0.31190 -0.14100
B 	B 	0.39610 0.92150 0.55010 -0.20300
H 	H 	0.40310 0.87130 0.52320 -0.07300
B 	B 	0.42140 0.95390 0.64180 0.43000
H 	H 	0.44490 0.92420 0.67200 -0.18100
B 	B 	0.18490 0.95470 0.18850 0.41700
H 	H 	0.16970 0.92560 0.13730 -0.17600
B 	B 	0.37520 0.92440 0.64350 0.30300
H 	H 	0.36890 0.87560 0.67460 -0.14500
Sn	Sn	0.39452 0.86230 0.20930 1.05800
Ag	Ag	0.34202 0.92640 0.29706 0.11000
N 	N 	0.78881 0.63820 0.07110 -0.09400
N 	N 	0.79700 0.31510 0.39990 -0.08700
C 	C 	0.94740 0.43700 0.91900 -0.07900
H 	H 	0.93840 0.39550 0.93830 0.03900
C 	C 	0.97330 0.43750 0.86260 -0.06900
H 	H 	0.98230 0.39600 0.84310 0.03200
C 	C 	0.80560 0.59140 0.09600 -0.25600
C 	C 	0.81500 0.34540 0.35990 -0.28400
B 	B 	0.93660 0.34160 0.11220 -0.16100
H 	H 	0.94750 0.39110 0.09120 -0.04200
C 	C 	0.73170 0.70040 0.04300 -0.07000
H 	H 	0.71990 0.66670 0.07210 0.03600
C 	C 	0.76920 0.69590 0.03550 0.04300
B 	B 	0.88900 0.31100 0.07620 -0.12000
H 	H 	0.86970 0.34050 0.03250 -0.05700
C 	C 	0.78780 0.74460 0.99320 -0.07200
H 	H 	0.81300 0.74040 0.98930 0.03800
C 	C 	0.77330 0.28190 0.45150 0.03900
C 	C 	0.78590 0.26410 0.53130 -0.07600
H 	H 	0.81010 0.27370 0.55170 0.03600
B 	B 	0.87340 0.25420 0.16020 -0.13800
H 	H 	0.84420 0.24760 0.17010 -0.06200
B 	B 	0.91160 0.24900 0.24640 -0.16600
H 	H 	0.90670 0.23860 0.31170 -0.07600
C 	C 	0.73750 0.26830 0.41830 -0.07500
H 	H 	0.72940 0.28060 0.36360 0.03700
B 	B 	0.92870 0.27140 0.04210 0.30000
H 	H 	0.93440 0.27690 0.97650 -0.14700
B 	B 	0.95090 0.30390 0.21770 -0.11800
H 	H 	0.97080 0.32850 0.26450 -0.08200
B 	B 	0.89140 0.22060 0.07100 0.25800
H 	H 	0.87290 0.19310 0.02390 -0.13500
B 	B 	0.96500 0.26790 0.12470 0.28100
H 	H 	0.99410 0.27170 0.11300 -0.14400
B 	B 	0.90420 0.18390 0.17120 0.30700
H 	H 	0.89410 0.13300 0.18980 -0.15600
B 	B 	0.93770 0.19300 0.09680 -0.27800
H 	H 	0.94920 0.14760 0.06690 0.00900
B 	B 	0.73040 0.45190 0.35040 -0.15700
H 	H 	0.74340 0.42150 0.40320 -0.05400
B 	B 	0.72760 0.42020 0.23930 -0.12100
H 	H 	0.73870 0.36980 0.22170 -0.06000
B 	B 	0.95030 0.21290 0.20220 0.26700
H 	H 	0.97020 0.18030 0.24030 -0.14900
B 	B 	0.84720 0.45150 0.55120 -0.16200
H 	H 	0.82320 0.42110 0.52560 -0.06900
B 	B 	0.68820 0.42580 0.29460 0.28900
H 	H 	0.67510 0.37730 0.31190 -0.14400
B 	B 	0.89610 0.42150 0.55010 -0.16600
H 	H 	0.90310 0.37130 0.52320 -0.08700
B 	B 	0.92140 0.45390 0.64180 0.30600
H 	H 	0.94490 0.42420 0.67200 -0.15100
B 	B 	0.68490 0.45470 0.18850 0.28900
H 	H 	0.66970 0.42560 0.13730 -0.14400
B 	B 	0.87520 0.42440 0.64350 0.30800
H 	H 	0.86890 0.37560 0.67460 -0.15000
Sn	Sn	0.89452 0.36230 0.20930 1.05400
Ag	Ag	0.84202 0.42640 0.29706 0.10100
N 	N 	0.71119 0.13820 0.92890 -0.09400
N 	N 	0.70300 0.81510 0.60010 -0.08700
C 	C 	0.55260 0.93700 0.08100 -0.05700
H 	H 	0.56160 0.89550 0.06170 0.03500
C 	C 	0.52670 0.93750 0.13740 -0.04500
H 	H 	0.51770 0.89600 0.15690 0.02700
C 	C 	0.69440 0.09140 0.90400 -0.25900
C 	C 	0.68500 0.84540 0.64010 -0.28000
B 	B 	0.56340 0.84160 0.88780 -0.15900
H 	H 	0.55250 0.89110 0.90880 -0.03700
C 	C 	0.76830 0.20040 0.95700 -0.07300
H 	H 	0.78010 0.16670 0.92790 0.03600
C 	C 	0.73080 0.19590 0.96450 0.04300
B 	B 	0.61100 0.81100 0.92380 -0.11700
H 	H 	0.63030 0.84050 0.96750 -0.05400
C 	C 	0.71220 0.24460 0.00680 -0.07500
H 	H 	0.68700 0.24040 0.01070 0.03800
C 	C 	0.72670 0.78190 0.54850 0.04000
C 	C 	0.71410 0.76410 0.46870 -0.07400
H 	H 	0.68990 0.77370 0.44830 0.03600
B 	B 	0.62660 0.75420 0.83980 -0.13800
H 	H 	0.65580 0.74760 0.82990 -0.06200
B 	B 	0.58840 0.74900 0.75360 -0.16500
H 	H 	0.59330 0.73860 0.68830 -0.07400
C 	C 	0.76250 0.76830 0.58170 -0.07400
H 	H 	0.77060 0.78060 0.63640 0.03700
B 	B 	0.57130 0.77140 0.95790 0.30000
H 	H 	0.56560 0.77690 0.02350 -0.14600
B 	B 	0.54910 0.80390 0.78230 -0.11500
H 	H 	0.52920 0.82850 0.73550 -0.07900
B 	B 	0.60860 0.72060 0.92900 0.25600
H 	H 	0.62710 0.69310 0.97610 -0.13400
B 	B 	0.53500 0.76790 0.87530 0.27900
H 	H 	0.50590 0.77170 0.88700 -0.14200
B 	B 	0.59580 0.68390 0.82880 0.30800
H 	H 	0.60590 0.63300 0.81020 -0.15300
B 	B 	0.56230 0.69300 0.90320 -0.27500
H 	H 	0.55080 0.64760 0.93310 0.01100
B 	B 	0.76960 0.95190 0.64960 -0.06700
H 	H 	0.75660 0.92150 0.59680 -0.07500
B 	B 	0.77240 0.92020 0.76070 -0.16400
H 	H 	0.76130 0.86980 0.77830 -0.04600
B 	B 	0.54970 0.71290 0.79780 0.26700
H 	H 	0.52980 0.68030 0.75970 -0.14700
B 	B 	0.65280 0.95150 0.44880 -0.07700
H 	H 	0.67680 0.92110 0.47440 -0.08800
B 	B 	0.81180 0.92580 0.70540 0.28800
H 	H 	0.82490 0.87730 0.68810 -0.14100
B 	B 	0.60390 0.92150 0.44990 -0.20300
H 	H 	0.59690 0.87130 0.47680 -0.07300
B 	B 	0.57860 0.95390 0.35820 0.43000
H 	H 	0.55510 0.92420 0.32800 -0.18100
B 	B 	0.81510 0.95470 0.81150 0.41700
H 	H 	0.83030 0.92560 0.86270 -0.17600
B 	B 	0.62480 0.92440 0.35650 0.30300
H 	H 	0.63110 0.87560 0.32540 -0.14500
Sn	Sn	0.60548 0.86230 0.79070 1.05800
Ag	Ag	0.65798 0.92640 0.70294 0.11000
N 	N 	0.21119 0.63820 0.92890 -0.09400
N 	N 	0.20300 0.31510 0.60010 -0.08700
C 	C 	0.05260 0.43700 0.08100 -0.07900
H 	H 	0.06160 0.39550 0.06170 0.03900
C 	C 	0.02670 0.43750 0.13740 -0.06900
H 	H 	0.01770 0.39600 0.15690 0.03200
C 	C 	0.19440 0.59140 0.90400 -0.25600
C 	C 	0.18500 0.34540 0.64010 -0.28400
B 	B 	0.06340 0.34160 0.88780 -0.16100
H 	H 	0.05250 0.39110 0.90880 -0.04200
C 	C 	0.26830 0.70040 0.95700 -0.07000
H 	H 	0.28010 0.66670 0.92790 0.03600
C 	C 	0.23080 0.69590 0.96450 0.04300
B 	B 	0.11100 0.31100 0.92380 -0.12000
H 	H 	0.13030 0.34050 0.96750 -0.05700
C 	C 	0.21220 0.74460 0.00680 -0.07200
H 	H 	0.18700 0.74040 0.01070 0.03800
C 	C 	0.22670 0.28190 0.54850 0.03900
C 	C 	0.21410 0.26410 0.46870 -0.07600
H 	H 	0.18990 0.27370 0.44830 0.03600
B 	B 	0.12660 0.25420 0.83980 -0.13800
H 	H 	0.15580 0.24760 0.82990 -0.06200
B 	B 	0.08840 0.24900 0.75360 -0.16600
H 	H 	0.09330 0.23860 0.68830 -0.07600
C 	C 	0.26250 0.26830 0.58170 -0.07500
H 	H 	0.27060 0.28060 0.63640 0.03700
B 	B 	0.07130 0.27140 0.95790 0.30000
H 	H 	0.06560 0.27690 0.02350 -0.14700
B 	B 	0.04910 0.30390 0.78230 -0.11800
H 	H 	0.02920 0.32850 0.73550 -0.08200
B 	B 	0.10860 0.22060 0.92900 0.25800
H 	H 	0.12710 0.19310 0.97610 -0.13500
B 	B 	0.03500 0.26790 0.87530 0.28100
H 	H 	0.00590 0.27170 0.88700 -0.14400
B 	B 	0.09580 0.18390 0.82880 0.30700
H 	H 	0.10590 0.13300 0.81020 -0.15600
B 	B 	0.06230 0.19300 0.90320 -0.27800
H 	H 	0.05080 0.14760 0.93310 0.00900
B 	B 	0.26960 0.45190 0.64960 -0.15700
H 	H 	0.25660 0.42150 0.59680 -0.05400
B 	B 	0.27240 0.42020 0.76070 -0.12100
H 	H 	0.26130 0.36980 0.77830 -0.06000
B 	B 	0.04970 0.21290 0.79780 0.26700
H 	H 	0.02980 0.18030 0.75970 -0.14900
B 	B 	0.15280 0.45150 0.44880 -0.16200
H 	H 	0.17680 0.42110 0.47440 -0.06900
B 	B 	0.31180 0.42580 0.70540 0.28900
H 	H 	0.32490 0.37730 0.68810 -0.14400
B 	B 	0.10390 0.42150 0.44990 -0.16600
H 	H 	0.09690 0.37130 0.47680 -0.08700
B 	B 	0.07860 0.45390 0.35820 0.30600
H 	H 	0.05510 0.42420 0.32800 -0.15100
B 	B 	0.31510 0.45470 0.81150 0.28900
H 	H 	0.33030 0.42560 0.86270 -0.14400
B 	B 	0.12480 0.42440 0.35650 0.30800
H 	H 	0.13110 0.37560 0.32540 -0.15000
Sn	Sn	0.10548 0.36230 0.79070 1.05400
Ag	Ag	0.15798 0.42640 0.70294 0.10100
N 	N 	0.71119 0.86180 0.92890 -0.09600
N 	N 	0.70300 0.18490 0.60010 -0.08700
C 	C 	0.55260 0.06300 0.08100 -0.07500
H 	H 	0.56160 0.10450 0.06170 0.03800
C 	C 	0.52670 0.06250 0.13740 -0.06400
H 	H 	0.51770 0.10400 0.15690 0.03000
C 	C 	0.69440 0.90860 0.90400 -0.24100
C 	C 	0.68500 0.15460 0.64010 -0.28500
B 	B 	0.56340 0.15840 0.88780 -0.16200
H 	H 	0.55250 0.10890 0.90880 -0.04200
C 	C 	0.76830 0.79960 0.95700 -0.07400
H 	H 	0.78010 0.83330 0.92790 0.03900
C 	C 	0.73080 0.80410 0.96450 0.04800
B 	B 	0.61100 0.18900 0.92380 -0.12000
H 	H 	0.63030 0.15950 0.96750 -0.05700
C 	C 	0.71220 0.75540 0.00680 -0.07700
H 	H 	0.68700 0.75960 0.01070 0.04000
C 	C 	0.72670 0.21810 0.54850 0.03800
C 	C 	0.71410 0.23590 0.46870 -0.07600
H 	H 	0.68990 0.22630 0.44830 0.03600
B 	B 	0.62660 0.24580 0.83980 -0.13800
H 	H 	0.65580 0.25240 0.82990 -0.06100
B 	B 	0.58840 0.25100 0.75360 -0.16600
H 	H 	0.59330 0.26140 0.68830 -0.07500
C 	C 	0.76250 0.23170 0.58170 -0.07500
H 	H 	0.77060 0.21940 0.63640 0.03700
B 	B 	0.57130 0.22860 0.95790 0.30100
H 	H 	0.56560 0.22310 0.02350 -0.14700
B 	B 	0.54910 0.19610 0.78230 -0.11800
H 	H 	0.52920 0.17150 0.73550 -0.08200
B 	B 	0.60860 0.27940 0.92900 0.25800
H 	H 	0.62710 0.30690 0.97610 -0.13400
B 	B 	0.53500 0.23210 0.87530 0.28100
H 	H 	0.50590 0.22830 0.88700 -0.14300
B 	B 	0.59580 0.31610 0.82880 0.30800
H 	H 	0.60590 0.36700 0.81020 -0.15300
B 	B 	0.56230 0.30700 0.90320 -0.27700
H 	H 	0.55080 0.35240 0.93310 0.01100
B 	B 	0.76960 0.04810 0.64960 -0.23200
H 	H 	0.75660 0.07850 0.59680 -0.03500
B 	B 	0.77240 0.07980 0.76070 -0.09500
H 	H 	0.76130 0.13020 0.77830 -0.06700
B 	B 	0.54970 0.28710 0.79780 0.26800
H 	H 	0.52980 0.31970 0.75970 -0.14800
B 	B 	0.65280 0.04850 0.44880 -0.23200
H 	H 	0.67680 0.07890 0.47440 -0.05000
B 	B 	0.81180 0.07420 0.70540 0.37600
H 	H 	0.82490 0.12270 0.68810 -0.17000
B 	B 	0.60390 0.07850 0.44990 -0.13500
H 	H 	0.59690 0.12870 0.47680 -0.09500
B 	B 	0.57860 0.04610 0.35820 0.24800
H 	H 	0.55510 0.07580 0.32800 -0.13500
B 	B 	0.81510 0.04530 0.81150 0.22300
H 	H 	0.83030 0.07440 0.86270 -0.12800
B 	B 	0.62480 0.07560 0.35650 0.38100
H 	H 	0.63110 0.12440 0.32540 -0.17100
Sn	Sn	0.60548 0.13770 0.79070 1.05400
Ag	Ag	0.65798 0.07360 0.70294 0.09900
N 	N 	0.21119 0.36180 0.92890 -0.09400
N 	N 	0.20300 0.68490 0.60010 -0.08700
C 	C 	0.05260 0.56300 0.08100 -0.07900
H 	H 	0.06160 0.60450 0.06170 0.03900
C 	C 	0.02670 0.56250 0.13740 -0.06800
H 	H 	0.01770 0.60400 0.15690 0.03200
C 	C 	0.19440 0.40860 0.90400 -0.25600
C 	C 	0.18500 0.65460 0.64010 -0.28300
B 	B 	0.06340 0.65840 0.88780 -0.16200
H 	H 	0.05250 0.60890 0.90880 -0.04200
C 	C 	0.26830 0.29960 0.95700 -0.07300
H 	H 	0.28010 0.33330 0.92790 0.03600
C 	C 	0.23080 0.30410 0.96450 0.04400
B 	B 	0.11100 0.68900 0.92380 -0.12000
H 	H 	0.13030 0.65950 0.96750 -0.05600
C 	C 	0.21220 0.25540 0.00680 -0.07500
H 	H 	0.18700 0.25960 0.01070 0.03800
C 	C 	0.22670 0.71810 0.54850 0.04000
C 	C 	0.21410 0.73590 0.46870 -0.07600
H 	H 	0.18990 0.72630 0.44830 0.03700
B 	B 	0.12660 0.74580 0.83980 -0.13800
H 	H 	0.15580 0.75240 0.82990 -0.06000
B 	B 	0.08840 0.75100 0.75360 -0.16500
H 	H 	0.09330 0.76140 0.68830 -0.07300
C 	C 	0.26250 0.73170 0.58170 -0.07500
H 	H 	0.27060 0.71940 0.63640 0.03800
B 	B 	0.07130 0.72860 0.95790 0.30000
H 	H 	0.06560 0.72310 0.02350 -0.14600
B 	B 	0.04910 0.69610 0.78230 -0.11800
H 	H 	0.02920 0.67150 0.73550 -0.08200
B 	B 	0.10860 0.77940 0.92900 0.25900
H 	H 	0.12710 0.80690 0.97610 -0.13200
B 	B 	0.03500 0.73210 0.87530 0.28100
H 	H 	0.00590 0.72830 0.88700 -0.14300
B 	B 	0.09580 0.81610 0.82880 0.30900
H 	H 	0.10590 0.86700 0.81020 -0.15000
B 	B 	0.06230 0.80700 0.90320 -0.27600
H 	H 	0.05080 0.85240 0.93310 0.01400
B 	B 	0.26960 0.54810 0.64960 -0.15700
H 	H 	0.25660 0.57850 0.59680 -0.05400
B 	B 	0.27240 0.57980 0.76070 -0.12100
H 	H 	0.26130 0.63020 0.77830 -0.05900
B 	B 	0.04970 0.78710 0.79780 0.26800
H 	H 	0.02980 0.81970 0.75970 -0.14500
B 	B 	0.15280 0.54850 0.44880 -0.16100
H 	H 	0.17680 0.57890 0.47440 -0.06900
B 	B 	0.31180 0.57420 0.70540 0.28900
H 	H 	0.32490 0.62270 0.68810 -0.14400
B 	B 	0.10390 0.57850 0.44990 -0.16600
H 	H 	0.09690 0.62870 0.47680 -0.08600
B 	B 	0.07860 0.54610 0.35820 0.30700
H 	H 	0.05510 0.57580 0.32800 -0.15100
B 	B 	0.31510 0.54530 0.81150 0.28900
H 	H 	0.33030 0.57440 0.86270 -0.14400
B 	B 	0.12480 0.57560 0.35650 0.30800
H 	H 	0.13110 0.62440 0.32540 -0.14900
Sn	Sn	0.10548 0.63770 0.79070 1.05400
Ag	Ag	0.15798 0.57360 0.70294 0.10100
N 	N 	0.28881 0.86180 0.07110 -0.09600
N 	N 	0.29700 0.18490 0.39990 -0.08700
C 	C 	0.44740 0.06300 0.91900 -0.07500
H 	H 	0.43840 0.10450 0.93830 0.03800
C 	C 	0.47330 0.06250 0.86260 -0.06400
H 	H 	0.48230 0.10400 0.84310 0.03000
C 	C 	0.30560 0.90860 0.09600 -0.24100
C 	C 	0.31500 0.15460 0.35990 -0.28500
B 	B 	0.43660 0.15840 0.11220 -0.16200
H 	H 	0.44750 0.10890 0.09120 -0.04200
C 	C 	0.23170 0.79960 0.04300 -0.07400
H 	H 	0.21990 0.83330 0.07210 0.03900
C 	C 	0.26920 0.80410 0.03550 0.04800
B 	B 	0.38900 0.18900 0.07620 -0.12000
H 	H 	0.36970 0.15950 0.03250 -0.05700
C 	C 	0.28780 0.75540 0.99320 -0.07700
H 	H 	0.31300 0.75960 0.98930 0.04000
C 	C 	0.27330 0.21810 0.45150 0.03800
C 	C 	0.28590 0.23590 0.53130 -0.07600
H 	H 	0.31010 0.22630 0.55170 0.03600
B 	B 	0.37340 0.24580 0.16020 -0.13800
H 	H 	0.34420 0.25240 0.17010 -0.06100
B 	B 	0.41160 0.25100 0.24640 -0.16600
H 	H 	0.40670 0.26140 0.31170 -0.07500
C 	C 	0.23750 0.23170 0.41830 -0.07500
H 	H 	0.22940 0.21940 0.36360 0.03700
B 	B 	0.42870 0.22860 0.04210 0.30100
H 	H 	0.43440 0.22310 0.97650 -0.14700
B 	B 	0.45090 0.19610 0.21770 -0.11800
H 	H 	0.47080 0.17150 0.26450 -0.08200
B 	B 	0.39140 0.27940 0.07100 0.25800
H 	H 	0.37290 0.30690 0.02390 -0.13400
B 	B 	0.46500 0.23210 0.12470 0.28100
H 	H 	0.49410 0.22830 0.11300 -0.14300
B 	B 	0.40420 0.31610 0.17120 0.30800
H 	H 	0.39410 0.36700 0.18980 -0.15300
B 	B 	0.43770 0.30700 0.09680 -0.27700
H 	H 	0.44920 0.35240 0.06690 0.01100
B 	B 	0.23040 0.04810 0.35040 -0.23200
H 	H 	0.24340 0.07850 0.40320 -0.03500
B 	B 	0.22760 0.07980 0.23930 -0.09500
H 	H 	0.23870 0.13020 0.22170 -0.06700
B 	B 	0.45030 0.28710 0.20220 0.26800
H 	H 	0.47020 0.31970 0.24030 -0.14800
B 	B 	0.34720 0.04850 0.55120 -0.23200
H 	H 	0.32320 0.07890 0.52560 -0.05000
B 	B 	0.18820 0.07420 0.29460 0.37600
H 	H 	0.17510 0.12270 0.31190 -0.17000
B 	B 	0.39610 0.07850 0.55010 -0.13500
H 	H 	0.40310 0.12870 0.52320 -0.09500
B 	B 	0.42140 0.04610 0.64180 0.24800
H 	H 	0.44490 0.07580 0.67200 -0.13500
B 	B 	0.18490 0.04530 0.18850 0.22300
H 	H 	0.16970 0.07440 0.13730 -0.12800
B 	B 	0.37520 0.07560 0.64350 0.38100
H 	H 	0.36890 0.12440 0.67460 -0.17100
Sn	Sn	0.39452 0.13770 0.20930 1.05400
Ag	Ag	0.34202 0.07360 0.29706 0.09900
N 	N 	0.78881 0.36180 0.07110 -0.09400
N 	N 	0.79700 0.68490 0.39990 -0.08700
C 	C 	0.94740 0.56300 0.91900 -0.07900
H 	H 	0.93840 0.60450 0.93830 0.03900
C 	C 	0.97330 0.56250 0.86260 -0.06800
H 	H 	0.98230 0.60400 0.84310 0.03200
C 	C 	0.80560 0.40860 0.09600 -0.25600
C 	C 	0.81500 0.65460 0.35990 -0.28300
B 	B 	0.93660 0.65840 0.11220 -0.16200
H 	H 	0.94750 0.60890 0.09120 -0.04200
C 	C 	0.73170 0.29960 0.04300 -0.07300
H 	H 	0.71990 0.33330 0.07210 0.03600
C 	C 	0.76920 0.30410 0.03550 0.04400
B 	B 	0.88900 0.68900 0.07620 -0.12000
H 	H 	0.86970 0.65950 0.03250 -0.05600
C 	C 	0.78780 0.25540 0.99320 -0.07500
H 	H 	0.81300 0.25960 0.98930 0.03800
C 	C 	0.77330 0.71810 0.45150 0.04000
C 	C 	0.78590 0.73590 0.53130 -0.07600
H 	H 	0.81010 0.72630 0.55170 0.03700
B 	B 	0.87340 0.74580 0.16020 -0.13800
H 	H 	0.84420 0.75240 0.17010 -0.06000
B 	B 	0.91160 0.75100 0.24640 -0.16500
H 	H 	0.90670 0.76140 0.31170 -0.07300
C 	C 	0.73750 0.73170 0.41830 -0.07500
H 	H 	0.72940 0.71940 0.36360 0.03800
B 	B 	0.92870 0.72860 0.04210 0.30000
H 	H 	0.93440 0.72310 0.97650 -0.14600
B 	B 	0.95090 0.69610 0.21770 -0.11800
H 	H 	0.97080 0.67150 0.26450 -0.08200
B 	B 	0.89140 0.77940 0.07100 0.25900
H 	H 	0.87290 0.80690 0.02390 -0.13200
B 	B 	0.96500 0.73210 0.12470 0.28100
H 	H 	0.99410 0.72830 0.11300 -0.14300
B 	B 	0.90420 0.81610 0.17120 0.30900
H 	H 	0.89410 0.86700 0.18980 -0.15000
B 	B 	0.93770 0.80700 0.09680 -0.27600
H 	H 	0.94920 0.85240 0.06690 0.01400
B 	B 	0.73040 0.54810 0.35040 -0.15700
H 	H 	0.74340 0.57850 0.40320 -0.05400
B 	B 	0.72760 0.57980 0.23930 -0.12100
H 	H 	0.73870 0.63020 0.22170 -0.05900
B 	B 	0.95030 0.78710 0.20220 0.26800
H 	H 	0.97020 0.81970 0.24030 -0.14500
B 	B 	0.84720 0.54850 0.55120 -0.16100
H 	H 	0.82320 0.57890 0.52560 -0.06900
B 	B 	0.68820 0.57420 0.29460 0.28900
H 	H 	0.67510 0.62270 0.31190 -0.14400
B 	B 	0.89610 0.57850 0.55010 -0.16600
H 	H 	0.90310 0.62870 0.52320 -0.08600
B 	B 	0.92140 0.54610 0.64180 0.30700
H 	H 	0.94490 0.57580 0.67200 -0.15100
B 	B 	0.68490 0.54530 0.18850 0.28900
H 	H 	0.66970 0.57440 0.13730 -0.14400
B 	B 	0.87520 0.57560 0.64350 0.30800
H 	H 	0.86890 0.62440 0.67460 -0.14900
Sn	Sn	0.89452 0.63770 0.20930 1.05400
Ag	Ag	0.84202 0.57360 0.29706 0.10100
N 	N 	0.51360 0.00000 0.78040 -0.08700
N 	N 	0.40750 0.00000 0.00360 -0.09000
C 	C 	0.48600 0.00000 0.83520 0.00800
C 	C 	0.53790 0.00000 0.74190 -0.29500
C 	C 	0.43490 0.00000 0.94600 0.02400
C 	C 	0.38630 0.00000 0.05080 -0.25500
B 	B 	0.22520 0.00000 0.16870 -0.19500
H 	H 	0.23500 0.00000 0.10610 -0.04000
B 	B 	0.42630 0.00000 0.54940 -0.22200
H 	H 	0.45270 0.00000 0.52190 -0.08000
B 	B 	0.18970 0.00000 0.36010 0.27800
H 	H 	0.17740 0.00000 0.41990 -0.14900
B 	B 	0.34660 0.00000 0.64470 0.28200
H 	H 	0.32150 0.00000 0.67760 -0.14600
B 	B 	0.16230 0.00000 0.26400 -0.39000
H 	H 	0.13210 0.00000 0.26230 0.03900
B 	B 	0.39040 0.00000 0.70020 -0.39200
H 	H 	0.39350 0.00000 0.76900 0.05900
Sn	Sn	0.27478 0.00000 0.27372 1.05400
Ag	Ag	0.34002 0.00000 0.12831 0.30400
Ag	Ag	0.40530 0.00000 0.28158 0.10000
Sn	Sn	0.37771 0.00000 0.44427 1.02100
N 	N 	0.01360 0.50000 0.78040 -0.09000
N 	N 	0.90750 0.50000 0.00360 -0.09200
C 	C 	0.98600 0.50000 0.83520 0.03300
C 	C 	0.03790 0.50000 0.74190 -0.28600
C 	C 	0.93490 0.50000 0.94600 0.04800
C 	C 	0.88630 0.50000 0.05080 -0.24600
B 	B 	0.72520 0.50000 0.16870 -0.15200
H 	H 	0.73500 0.50000 0.10610 -0.04600
B 	B 	0.92630 0.50000 0.54940 -0.17500
H 	H 	0.95270 0.50000 0.52190 -0.08900
B 	B 	0.68970 0.50000 0.36010 0.31200
H 	H 	0.67740 0.50000 0.41990 -0.15300
B 	B 	0.84660 0.50000 0.64470 0.30900
H 	H 	0.82150 0.50000 0.67760 -0.14900
B 	B 	0.66230 0.50000 0.26400 -0.31900
H 	H 	0.63210 0.50000 0.26230 0.02400
B 	B 	0.89040 0.50000 0.70020 -0.32700
H 	H 	0.89350 0.50000 0.76900 0.04500
Sn	Sn	0.77478 0.50000 0.27372 1.06000
Ag	Ag	0.84002 0.50000 0.12831 0.31100
Ag	Ag	0.90530 0.50000 0.28158 0.10500
Sn	Sn	0.87771 0.50000 0.44427 1.02600
N 	N 	0.48640 0.00000 0.21960 -0.08700
N 	N 	0.59250 0.00000 0.99640 -0.09000
C 	C 	0.51400 0.00000 0.16480 0.00800
C 	C 	0.46210 0.00000 0.25810 -0.29500
C 	C 	0.56510 0.00000 0.05400 0.02400
C 	C 	0.61370 0.00000 0.94920 -0.25500
B 	B 	0.77480 0.00000 0.83130 -0.19500
H 	H 	0.76500 0.00000 0.89390 -0.04000
B 	B 	0.57370 0.00000 0.45060 -0.22200
H 	H 	0.54730 0.00000 0.47810 -0.08000
B 	B 	0.81030 0.00000 0.63990 0.27800
H 	H 	0.82260 0.00000 0.58010 -0.14900
B 	B 	0.65340 0.00000 0.35530 0.28200
H 	H 	0.67850 0.00000 0.32240 -0.14600
B 	B 	0.83770 0.00000 0.73600 -0.39000
H 	H 	0.86790 0.00000 0.73770 0.03900
B 	B 	0.60960 0.00000 0.29980 -0.39200
H 	H 	0.60650 0.00000 0.23100 0.05900
Sn	Sn	0.72522 0.00000 0.72628 1.05400
Ag	Ag	0.65998 0.00000 0.87169 0.30400
Ag	Ag	0.59470 0.00000 0.71842 0.10000
Sn	Sn	0.62229 0.00000 0.55573 1.02100
N 	N 	0.98640 0.50000 0.21960 -0.09000
N 	N 	0.09250 0.50000 0.99640 -0.09200
C 	C 	0.01400 0.50000 0.16480 0.03300
C 	C 	0.96210 0.50000 0.25810 -0.28600
C 	C 	0.06510 0.50000 0.05400 0.04800
C 	C 	0.11370 0.50000 0.94920 -0.24600
B 	B 	0.27480 0.50000 0.83130 -0.15200
H 	H 	0.26500 0.50000 0.89390 -0.04600
B 	B 	0.07370 0.50000 0.45060 -0.17500
H 	H 	0.04730 0.50000 0.47810 -0.08900
B 	B 	0.31030 0.50000 0.63990 0.31200
H 	H 	0.32260 0.50000 0.58010 -0.15300
B 	B 	0.15340 0.50000 0.35530 0.30900
H 	H 	0.17850 0.50000 0.32240 -0.14900
B 	B 	0.33770 0.50000 0.73600 -0.31900
H 	H 	0.36790 0.50000 0.73770 0.02400
B 	B 	0.10960 0.50000 0.29980 -0.32700
H 	H 	0.10650 0.50000 0.23100 0.04500
Sn	Sn	0.22522 0.50000 0.72628 1.06000
Ag	Ag	0.15998 0.50000 0.87169 0.31100
Ag	Ag	0.09470 0.50000 0.71842 0.10500
Sn	Sn	0.12229 0.50000 0.55573 1.02600
