data_crystal

_cell_length_a 9.17800
_cell_length_b 11.14800
_cell_length_c 14.33700
_cell_angle_alpha 88.19100
_cell_angle_beta  78.88200
_cell_angle_gamma 77.96800

_symmetry_space_group_name_	'P 1'
_symmetry_space_group_name_H-M	'P 1'

loop_
_symmetry_equiv_pos_as_xyz
  x,y,z

loop_
_atom_site_label
_atom_site_type_symbol
_atom_site_fract_x
_atom_site_fract_y
_atom_site_fract_z
_atom_site_charge
Ag	Ag	0.04670 0.98810 0.38924 0.50700
Ag	Ag	0.10812 0.16679 0.25114 0.53300
Ag	Ag	0.10886 0.97357 0.06015 0.53200
Ag	Ag	0.30238 0.00273 0.49535 0.49100
C 	C 	0.31850 0.90640 0.23150 0.34800
C 	C 	0.46220 0.82450 0.18160 -0.14800
C 	C 	0.54390 0.73510 0.23250 0.06100
H 	H 	0.50920 0.72610 0.29720 0.01200
C 	C 	0.67630 0.65990 0.18730 -0.14700
H 	H 	0.73050 0.60120 0.22210 0.08400
C 	C 	0.51350 0.83510 0.08610 0.06700
H 	H 	0.45900 0.89390 0.05160 -0.00300
C 	C 	0.64630 0.75880 0.04020 -0.14800
H 	H 	0.67950 0.76680 0.97530 0.08200
C 	C 	0.72980 0.67060 0.09080 0.07700
C 	C 	0.87020 0.58600 0.04310 -0.00000
C 	C 	0.87750 0.46010 0.05070 -0.02800
H 	H 	0.79430 0.43270 0.08550 0.04500
C 	C 	0.99710 0.62580 0.99100 -0.08000
C 	C 	0.00640 0.75970 0.98620 0.35400
C 	C 	0.79410 0.23090 0.37780 0.36100
C 	C 	0.63340 0.29960 0.41070 -0.16200
C 	C 	0.54730 0.27170 0.49530 0.06300
H 	H 	0.59260 0.21790 0.53730 -0.02600
C 	C 	0.39420 0.32300 0.51800 -0.15800
H 	H 	0.33730 0.30250 0.57500 0.07600
C 	C 	0.56710 0.38680 0.35250 0.07400
H 	H 	0.62530 0.40980 0.29700 0.01200
C 	C 	0.41380 0.44010 0.37670 -0.15200
H 	H 	0.37080 0.50070 0.33820 0.08500
C 	C 	0.32440 0.40430 0.45730 0.08800
C 	C 	0.15770 0.45250 0.47790 0.00000
C 	C 	0.05580 0.37380 0.50170 -0.07600
C 	C 	0.90070 0.42230 0.52350 -0.02800
H 	H 	0.83410 0.36920 0.53960 0.05000
C 	C 	0.10800 0.23640 0.50140 0.32500
O 	O 	0.27330 0.88640 0.31710 -0.38800
O 	O 	0.25540 0.99050 0.18290 -0.41200
O 	O 	0.09630 0.78880 0.03070 -0.37600
O 	O 	0.92930 0.82840 0.93820 -0.40800
O 	O 	0.83940 0.13740 0.42510 -0.44200
O 	O 	0.87000 0.26680 0.30580 -0.36400
O 	O 	0.07060 0.18330 0.57760 -0.37200
O 	O 	0.18620 0.18490 0.42730 -0.40200
Ag	Ag	0.95330 0.01190 0.61076 0.50600
Ag	Ag	0.89188 0.83321 0.74886 0.53200
Ag	Ag	0.89114 0.02643 0.93985 0.53100
Ag	Ag	0.69762 0.99727 0.50465 0.49000
C 	C 	0.68150 0.09360 0.76850 0.34700
C 	C 	0.53780 0.17550 0.81840 -0.14900
C 	C 	0.45610 0.26490 0.76750 0.06000
H 	H 	0.49080 0.27390 0.70280 0.01100
C 	C 	0.32370 0.34010 0.81270 -0.14800
H 	H 	0.26950 0.39880 0.77790 0.08300
C 	C 	0.48650 0.16490 0.91390 0.06600
H 	H 	0.54100 0.10610 0.94840 -0.00400
C 	C 	0.35370 0.24120 0.95980 -0.14900
H 	H 	0.32050 0.23320 0.02470 0.08100
C 	C 	0.27020 0.32940 0.90920 0.07700
C 	C 	0.12980 0.41400 0.95690 -0.00000
C 	C 	0.12250 0.53990 0.94930 -0.02800
H 	H 	0.20570 0.56730 0.91450 0.04500
C 	C 	0.00290 0.37420 0.00900 -0.08000
C 	C 	0.99360 0.24030 0.01380 0.35400
C 	C 	0.20590 0.76910 0.62220 0.36100
C 	C 	0.36660 0.70040 0.58930 -0.16200
C 	C 	0.45270 0.72830 0.50470 0.06300
H 	H 	0.40740 0.78210 0.46270 -0.02600
C 	C 	0.60580 0.67700 0.48200 -0.15800
H 	H 	0.66270 0.69750 0.42500 0.07600
C 	C 	0.43290 0.61320 0.64750 0.07400
H 	H 	0.37470 0.59020 0.70300 0.01200
C 	C 	0.58620 0.55990 0.62330 -0.15200
H 	H 	0.62920 0.49930 0.66180 0.08500
C 	C 	0.67560 0.59570 0.54270 0.08800
C 	C 	0.84230 0.54750 0.52210 0.00000
C 	C 	0.94420 0.62620 0.49830 -0.07600
C 	C 	0.09930 0.57770 0.47650 -0.02800
H 	H 	0.16590 0.63080 0.46040 0.05000
C 	C 	0.89200 0.76360 0.49860 0.32500
O 	O 	0.72670 0.11360 0.68290 -0.38800
O 	O 	0.74460 0.00950 0.81710 -0.41200
O 	O 	0.90370 0.21120 0.96930 -0.37600
O 	O 	0.07070 0.17160 0.06180 -0.40800
O 	O 	0.16060 0.86260 0.57490 -0.44200
O 	O 	0.13000 0.73320 0.69420 -0.36400
O 	O 	0.92940 0.81670 0.42240 -0.37200
O 	O 	0.81380 0.81510 0.57270 -0.40200
