data_crystal

_cell_length_a 27.25000
_cell_length_b 16.00200
_cell_length_c 10.29200
_cell_angle_alpha 90.00000
_cell_angle_beta  90.00000
_cell_angle_gamma 90.00000

_symmetry_space_group_name_	'P 1'
_symmetry_space_group_name_H-M	'P 1'

loop_
_symmetry_equiv_pos_as_xyz
  x,y,z

loop_
_atom_site_label
_atom_site_type_symbol
_atom_site_fract_x
_atom_site_fract_y
_atom_site_fract_z
_atom_site_charge
Zn	Zn	0.19922 0.05828 0.55555 1.19800
O 	O 	0.13113 0.02240 0.56140 -0.48100
N 	N 	0.20926 0.18077 0.56070 -0.26600
N 	N 	0.23929 0.01082 0.41170 -0.26800
N 	N 	0.22326 0.01954 0.72920 -0.25700
C 	C 	0.10205 0.04460 0.46880 0.39900
N 	N 	0.24845 0.20970 0.62960 -0.06800
C 	C 	0.23679 0.01416 0.28200 0.21300
N 	N 	0.28282 0.97110 0.43680 -0.07600
C 	C 	0.04951 0.02070 0.48440 -0.25800
O 	O 	0.11631 0.08448 0.37190 -0.34700
N 	N 	0.20121 0.05170 0.21640 -0.31700
N 	N 	0.30435 0.95380 0.32960 -0.06700
C 	C 	0.01553 0.03970 0.38730 0.21600
C 	C 	0.03285 0.98230 0.59650 0.25300
H 	H 	0.13460 0.20130 0.41350 0.14800
H 	H 	0.17780 0.08040 0.25910 0.14100
H 	H 	0.20130 0.05070 0.12900 0.13700
H 	H 	0.02620 0.06680 0.30500 -0.54600
N 	N 	0.05820 0.97150 0.68900 0.38500
H 	H 	0.04590 0.95120 0.75890 -0.04700
H 	H 	0.08890 0.98390 0.68530 0.03600
H 	H 	0.05430 0.97630 0.65830 -0.48400
N 	N 	0.02640 0.07980 0.27510 0.51800
H 	H 	0.00360 0.09000 0.21940 -0.08400
H 	H 	0.05610 0.09520 0.25950 -0.02000
Zn	Zn	0.30078 0.94172 0.05555 1.19700
O 	O 	0.36887 0.97760 0.06140 -0.48400
N 	N 	0.29074 0.81923 0.06070 -0.26800
N 	N 	0.26071 0.98918 0.91170 -0.26900
N 	N 	0.27674 0.98046 0.22920 -0.25900
C 	C 	0.39795 0.95540 0.96880 0.40100
N 	N 	0.25155 0.79030 0.12960 -0.06800
C 	C 	0.26321 0.98584 0.78200 0.21300
N 	N 	0.21718 0.02890 0.93680 -0.07500
C 	C 	0.45049 0.97930 0.98440 -0.25800
O 	O 	0.38369 0.91552 0.87190 -0.34700
N 	N 	0.29879 0.94830 0.71640 -0.31700
N 	N 	0.19565 0.04620 0.82960 -0.06600
C 	C 	0.48447 0.96030 0.88730 0.21600
C 	C 	0.46715 0.01770 0.09650 0.25300
H 	H 	0.36540 0.79870 0.91350 0.14800
H 	H 	0.32220 0.91960 0.75910 0.14200
H 	H 	0.29870 0.94930 0.62900 0.13800
H 	H 	0.47380 0.93320 0.80500 -0.54600
N 	N 	0.44180 0.02850 0.18900 0.38500
H 	H 	0.45410 0.04880 0.25890 -0.04700
H 	H 	0.41110 0.01610 0.18530 0.03600
H 	H 	0.44570 0.02370 0.15830 -0.48400
N 	N 	0.47360 0.92020 0.77510 0.51800
H 	H 	0.49640 0.91000 0.71940 -0.08400
H 	H 	0.44390 0.90480 0.75950 -0.02000
Zn	Zn	0.80078 0.55828 0.44445 1.19700
O 	O 	0.86887 0.52240 0.43860 -0.48200
N 	N 	0.79074 0.68077 0.43930 -0.26700
N 	N 	0.76071 0.51082 0.58830 -0.26900
N 	N 	0.77674 0.51954 0.27080 -0.25800
C 	C 	0.89795 0.54460 0.53120 0.39800
N 	N 	0.75155 0.70970 0.37040 -0.06800
C 	C 	0.76321 0.51416 0.71800 0.21300
N 	N 	0.71718 0.47110 0.56320 -0.07600
C 	C 	0.95049 0.52070 0.51560 -0.25800
O 	O 	0.88369 0.58448 0.62810 -0.34700
N 	N 	0.79879 0.55170 0.78360 -0.31700
N 	N 	0.69565 0.45380 0.67040 -0.06600
C 	C 	0.98447 0.53970 0.61270 0.21600
C 	C 	0.96715 0.48230 0.40350 0.25400
H 	H 	0.86540 0.70130 0.58650 0.14800
H 	H 	0.82220 0.58040 0.74090 0.14100
H 	H 	0.79870 0.55070 0.87100 0.13700
H 	H 	0.97380 0.56680 0.69500 -0.54600
N 	N 	0.94180 0.47150 0.31100 0.38500
H 	H 	0.95410 0.45120 0.24110 -0.04700
H 	H 	0.91110 0.48390 0.31470 0.03700
H 	H 	0.94570 0.47630 0.34170 -0.48400
N 	N 	0.97360 0.57980 0.72490 0.51800
H 	H 	0.99640 0.59000 0.78060 -0.08400
H 	H 	0.94390 0.59520 0.74050 -0.02000
Zn	Zn	0.69922 0.44172 0.94445 1.19700
O 	O 	0.63113 0.47760 0.93860 -0.48400
N 	N 	0.70926 0.31923 0.93930 -0.26800
N 	N 	0.73929 0.48918 0.08830 -0.26900
N 	N 	0.72326 0.48046 0.77080 -0.25800
C 	C 	0.60205 0.45540 0.03120 0.40000
N 	N 	0.74845 0.29030 0.87040 -0.06800
C 	C 	0.73679 0.48584 0.21800 0.21300
N 	N 	0.78282 0.52890 0.06320 -0.07500
C 	C 	0.54951 0.47930 0.01560 -0.25800
O 	O 	0.61631 0.41552 0.12810 -0.34700
N 	N 	0.70121 0.44830 0.28360 -0.31700
N 	N 	0.80435 0.54620 0.17040 -0.06600
C 	C 	0.51553 0.46030 0.11270 0.21600
C 	C 	0.53285 0.51770 0.90350 0.25300
H 	H 	0.63460 0.29870 0.08650 0.14800
H 	H 	0.67780 0.41960 0.24090 0.14200
H 	H 	0.70130 0.44930 0.37100 0.13800
H 	H 	0.52620 0.43320 0.19500 -0.54600
N 	N 	0.55820 0.52850 0.81100 0.38500
H 	H 	0.54590 0.54880 0.74110 -0.04700
H 	H 	0.58890 0.51610 0.81470 0.03600
H 	H 	0.55430 0.52370 0.84170 -0.48400
N 	N 	0.52640 0.42020 0.22490 0.51800
H 	H 	0.50360 0.41000 0.28060 -0.08400
H 	H 	0.55610 0.40480 0.24050 -0.02000
Zn	Zn	0.80078 0.94172 0.44445 1.19700
O 	O 	0.86887 0.97760 0.43860 -0.48200
N 	N 	0.79074 0.81923 0.43930 -0.26700
N 	N 	0.76071 0.98918 0.58830 -0.26900
N 	N 	0.77674 0.98046 0.27080 -0.25800
C 	C 	0.89795 0.95540 0.53120 0.39800
N 	N 	0.75155 0.79030 0.37040 -0.06800
C 	C 	0.76321 0.98584 0.71800 0.21300
N 	N 	0.71718 0.02890 0.56320 -0.07600
C 	C 	0.95049 0.97930 0.51560 -0.25800
O 	O 	0.88369 0.91552 0.62810 -0.34700
N 	N 	0.79879 0.94830 0.78360 -0.31700
N 	N 	0.69565 0.04620 0.67040 -0.06700
C 	C 	0.98447 0.96030 0.61270 0.21600
C 	C 	0.96715 0.01770 0.40350 0.25300
H 	H 	0.86540 0.79870 0.58650 0.14800
H 	H 	0.82220 0.91960 0.74090 0.14100
H 	H 	0.79870 0.94930 0.87100 0.13700
H 	H 	0.97380 0.93320 0.69500 -0.54600
N 	N 	0.94180 0.02850 0.31100 0.38500
H 	H 	0.95410 0.04880 0.24110 -0.04700
H 	H 	0.91110 0.01610 0.31470 0.03600
H 	H 	0.94570 0.02370 0.34170 -0.48400
N 	N 	0.97360 0.92020 0.72490 0.51800
H 	H 	0.99640 0.91000 0.78060 -0.08400
H 	H 	0.94390 0.90480 0.74050 -0.02000
Zn	Zn	0.69922 0.05828 0.94445 1.19700
O 	O 	0.63113 0.02240 0.93860 -0.48400
N 	N 	0.70926 0.18077 0.93930 -0.26800
N 	N 	0.73929 0.01082 0.08830 -0.26900
N 	N 	0.72326 0.01954 0.77080 -0.25900
C 	C 	0.60205 0.04460 0.03120 0.40100
N 	N 	0.74845 0.20970 0.87040 -0.06800
C 	C 	0.73679 0.01416 0.21800 0.21300
N 	N 	0.78282 0.97110 0.06320 -0.07500
C 	C 	0.54951 0.02070 0.01560 -0.25800
O 	O 	0.61631 0.08448 0.12810 -0.34700
N 	N 	0.70121 0.05170 0.28360 -0.31700
N 	N 	0.80435 0.95380 0.17040 -0.06600
C 	C 	0.51553 0.03970 0.11270 0.21600
C 	C 	0.53285 0.98230 0.90350 0.25300
H 	H 	0.63460 0.20130 0.08650 0.14800
H 	H 	0.67780 0.08040 0.24090 0.14200
H 	H 	0.70130 0.05070 0.37100 0.13800
H 	H 	0.52620 0.06680 0.19500 -0.54600
N 	N 	0.55820 0.97150 0.81100 0.38500
H 	H 	0.54590 0.95120 0.74110 -0.04700
H 	H 	0.58890 0.98390 0.81470 0.03600
H 	H 	0.55430 0.97630 0.84170 -0.48400
N 	N 	0.52640 0.07980 0.22490 0.51800
H 	H 	0.50360 0.09000 0.28060 -0.08400
H 	H 	0.55610 0.09520 0.24050 -0.02000
Zn	Zn	0.19922 0.44172 0.55555 1.19700
O 	O 	0.13113 0.47760 0.56140 -0.48200
N 	N 	0.20926 0.31923 0.56070 -0.26700
N 	N 	0.23929 0.48918 0.41170 -0.26900
N 	N 	0.22326 0.48046 0.72920 -0.25800
C 	C 	0.10205 0.45540 0.46880 0.39800
N 	N 	0.24845 0.29030 0.62960 -0.06800
C 	C 	0.23679 0.48584 0.28200 0.21300
N 	N 	0.28282 0.52890 0.43680 -0.07600
C 	C 	0.04951 0.47930 0.48440 -0.25800
O 	O 	0.11631 0.41552 0.37190 -0.34700
N 	N 	0.20121 0.44830 0.21640 -0.31700
N 	N 	0.30435 0.54620 0.32960 -0.06600
C 	C 	0.01553 0.46030 0.38730 0.21600
C 	C 	0.03285 0.51770 0.59650 0.25400
H 	H 	0.13460 0.29870 0.41350 0.14800
H 	H 	0.17780 0.41960 0.25910 0.14100
H 	H 	0.20130 0.44930 0.12900 0.13700
H 	H 	0.02620 0.43320 0.30500 -0.54600
N 	N 	0.05820 0.52850 0.68900 0.38500
H 	H 	0.04590 0.54880 0.75890 -0.04700
H 	H 	0.08890 0.51610 0.68530 0.03700
H 	H 	0.05430 0.52370 0.65830 -0.48400
N 	N 	0.02640 0.42020 0.27510 0.51800
H 	H 	0.00360 0.41000 0.21940 -0.08400
H 	H 	0.05610 0.40480 0.25950 -0.02000
Zn	Zn	0.30078 0.55828 0.05555 1.19700
O 	O 	0.36887 0.52240 0.06140 -0.48400
N 	N 	0.29074 0.68077 0.06070 -0.26800
N 	N 	0.26071 0.51082 0.91170 -0.26900
N 	N 	0.27674 0.51954 0.22920 -0.25800
C 	C 	0.39795 0.54460 0.96880 0.40000
N 	N 	0.25155 0.70970 0.12960 -0.06800
C 	C 	0.26321 0.51416 0.78200 0.21300
N 	N 	0.21718 0.47110 0.93680 -0.07500
C 	C 	0.45049 0.52070 0.98440 -0.25800
O 	O 	0.38369 0.58448 0.87190 -0.34700
N 	N 	0.29879 0.55170 0.71640 -0.31700
N 	N 	0.19565 0.45380 0.82960 -0.06600
C 	C 	0.48447 0.53970 0.88730 0.21600
C 	C 	0.46715 0.48230 0.09650 0.25300
H 	H 	0.36540 0.70130 0.91350 0.14800
H 	H 	0.32220 0.58040 0.75910 0.14200
H 	H 	0.29870 0.55070 0.62900 0.13800
H 	H 	0.47380 0.56680 0.80500 -0.54600
N 	N 	0.44180 0.47150 0.18900 0.38500
H 	H 	0.45410 0.45120 0.25890 -0.04700
H 	H 	0.41110 0.48390 0.18530 0.03600
H 	H 	0.44570 0.47630 0.15830 -0.48400
N 	N 	0.47360 0.57980 0.77510 0.51800
H 	H 	0.49640 0.59000 0.71940 -0.08400
H 	H 	0.44390 0.59520 0.75950 -0.02000
C 	C 	0.18699 0.25000 0.51670 0.21300
N 	N 	0.14840 0.25000 0.43770 -0.32300
C 	C 	0.31301 0.75000 0.01670 0.21100
N 	N 	0.35160 0.75000 0.93770 -0.32100
C 	C 	0.81301 0.75000 0.48330 0.21300
N 	N 	0.85160 0.75000 0.56230 -0.32300
C 	C 	0.68699 0.25000 0.98330 0.21100
N 	N 	0.64840 0.25000 0.06230 -0.32100
