data_crystal

_cell_length_a 31.92800
_cell_length_b 16.00300
_cell_length_c 10.32900
_cell_angle_alpha 90.00000
_cell_angle_beta  90.00000
_cell_angle_gamma 90.00000

_symmetry_space_group_name_	'P 1'
_symmetry_space_group_name_H-M	'P 1'

loop_
_symmetry_equiv_pos_as_xyz
  x,y,z

loop_
_atom_site_label
_atom_site_type_symbol
_atom_site_fract_x
_atom_site_fract_y
_atom_site_fract_z
_atom_site_charge
Zn	Zn	0.29347 0.05792 0.39859 1.19700
N 	N 	0.28311 0.18030 0.40800 -0.26100
C 	C 	0.37637 0.04430 0.48150 0.30200
O 	O 	0.36358 0.08090 0.58350 -0.31700
C 	C 	0.42213 0.02210 0.46760 -0.05700
N 	N 	0.24710 0.20900 0.34610 -0.06800
H 	H 	0.35410 0.20130 0.52640 0.14600
C 	C 	0.43779 0.99480 0.34960 -0.00100
H 	H 	0.41970 0.98770 0.27980 0.04700
N 	N 	0.26039 0.00380 0.54040 -0.26100
C 	C 	0.44874 0.03300 0.57050 -0.05300
H 	H 	0.43810 0.05210 0.64890 0.06300
N 	N 	0.22678 0.95480 0.51440 -0.07300
C 	C 	0.49234 0.01490 0.55960 0.02900
N 	N 	0.20756 0.93640 0.62160 -0.06600
C 	C 	0.51988 0.02240 0.66430 -0.08400
H 	H 	0.50970 0.03880 0.74470 0.06300
N 	N 	0.22830 0.97340 0.72330 -0.25400
N 	N 	0.28857 0.06380 0.73610 -0.30700
H 	H 	0.28560 0.07060 0.82210 0.13500
H 	H 	0.30970 0.08910 0.69410 0.13900
C 	C 	0.26099 0.01440 0.66990 0.19300
O 	O 	0.35261 0.02660 0.38570 -0.45500
Zn	Zn	0.20653 0.94208 0.89859 1.19400
N 	N 	0.21689 0.81970 0.90800 -0.26300
C 	C 	0.12363 0.95570 0.98150 0.29600
O 	O 	0.13642 0.91910 0.08350 -0.31300
C 	C 	0.07787 0.97790 0.96760 -0.06300
N 	N 	0.25290 0.79100 0.84610 -0.06900
H 	H 	0.14590 0.79870 0.02640 0.14700
C 	C 	0.06221 0.00520 0.84960 0.00300
H 	H 	0.08030 0.01230 0.77980 0.04500
N 	N 	0.23961 0.99620 0.04040 -0.25800
C 	C 	0.05126 0.96700 0.07050 -0.04600
H 	H 	0.06190 0.94790 0.14890 0.06200
N 	N 	0.27322 0.04520 0.01440 -0.07200
C 	C 	0.00766 0.98510 0.05960 0.02900
N 	N 	0.29244 0.06360 0.12160 -0.06600
C 	C 	0.98012 0.97760 0.16430 -0.08700
H 	H 	0.99030 0.96120 0.24470 0.06300
N 	N 	0.27170 0.02660 0.22330 -0.25300
N 	N 	0.21143 0.93620 0.23610 -0.30800
H 	H 	0.21440 0.92940 0.32210 0.13700
H 	H 	0.19030 0.91090 0.19410 0.14000
C 	C 	0.23901 0.98560 0.16990 0.19400
O 	O 	0.14739 0.97340 0.88570 -0.45500
Zn	Zn	0.70653 0.55792 0.60141 1.19600
N 	N 	0.71689 0.68030 0.59200 -0.26200
C 	C 	0.62363 0.54430 0.51850 0.30100
O 	O 	0.63642 0.58090 0.41650 -0.31800
C 	C 	0.57787 0.52210 0.53240 -0.05600
N 	N 	0.75290 0.70900 0.65390 -0.06800
H 	H 	0.64590 0.70130 0.47360 0.14600
C 	C 	0.56221 0.49480 0.65040 -0.00200
H 	H 	0.58030 0.48770 0.72020 0.04700
N 	N 	0.73961 0.50380 0.45960 -0.26000
C 	C 	0.55126 0.53300 0.42950 -0.05300
H 	H 	0.56190 0.55210 0.35110 0.06300
N 	N 	0.77322 0.45480 0.48560 -0.07300
C 	C 	0.50766 0.51490 0.44040 0.02900
N 	N 	0.79244 0.43640 0.37840 -0.06600
C 	C 	0.48012 0.52240 0.33570 -0.08400
H 	H 	0.49030 0.53880 0.25530 0.06200
N 	N 	0.77170 0.47340 0.27670 -0.25300
N 	N 	0.71143 0.56380 0.26390 -0.30700
H 	H 	0.71440 0.57060 0.17790 0.13500
H 	H 	0.69030 0.58910 0.30590 0.13900
C 	C 	0.73901 0.51440 0.33010 0.19200
O 	O 	0.64739 0.52660 0.61430 -0.45500
Zn	Zn	0.79347 0.44208 0.10141 1.19400
N 	N 	0.78311 0.31970 0.09200 -0.26300
C 	C 	0.87637 0.45570 0.01850 0.29600
O 	O 	0.86358 0.41910 0.91650 -0.31300
C 	C 	0.92213 0.47790 0.03240 -0.05900
N 	N 	0.74710 0.29100 0.15390 -0.06900
H 	H 	0.85410 0.29870 0.97360 0.14700
C 	C 	0.93779 0.50520 0.15040 -0.00000
H 	H 	0.91970 0.51230 0.22020 0.04600
N 	N 	0.76039 0.49620 0.95960 -0.25900
C 	C 	0.94874 0.46700 0.92950 -0.04900
H 	H 	0.93810 0.44790 0.85110 0.06300
N 	N 	0.72678 0.54520 0.98560 -0.07100
C 	C 	0.99234 0.48510 0.94040 0.02900
N 	N 	0.70756 0.56360 0.87840 -0.06500
C 	C 	0.01988 0.47760 0.83570 -0.08500
H 	H 	0.00970 0.46120 0.75530 0.06300
N 	N 	0.72830 0.52660 0.77670 -0.25300
N 	N 	0.78857 0.43620 0.76390 -0.30800
H 	H 	0.78560 0.42940 0.67790 0.13600
H 	H 	0.80970 0.41090 0.80590 0.14000
C 	C 	0.76099 0.48560 0.83010 0.19400
O 	O 	0.85261 0.47340 0.11430 -0.45500
Zn	Zn	0.70653 0.94208 0.60141 1.19600
N 	N 	0.71689 0.81970 0.59200 -0.26200
C 	C 	0.62363 0.95570 0.51850 0.30100
O 	O 	0.63642 0.91910 0.41650 -0.31800
C 	C 	0.57787 0.97790 0.53240 -0.05700
N 	N 	0.75290 0.79100 0.65390 -0.06800
H 	H 	0.64590 0.79870 0.47360 0.14600
C 	C 	0.56221 0.00520 0.65040 -0.00100
H 	H 	0.58030 0.01230 0.72020 0.04700
N 	N 	0.73961 0.99620 0.45960 -0.26100
C 	C 	0.55126 0.96700 0.42950 -0.05300
H 	H 	0.56190 0.94790 0.35110 0.06300
N 	N 	0.77322 0.04520 0.48560 -0.07300
C 	C 	0.50766 0.98510 0.44040 0.02900
N 	N 	0.79244 0.06360 0.37840 -0.06600
C 	C 	0.48012 0.97760 0.33570 -0.08400
H 	H 	0.49030 0.96120 0.25530 0.06300
N 	N 	0.77170 0.02660 0.27670 -0.25400
N 	N 	0.71143 0.93620 0.26390 -0.30700
H 	H 	0.71440 0.92940 0.17790 0.13500
H 	H 	0.69030 0.91090 0.30590 0.13900
C 	C 	0.73901 0.98560 0.33010 0.19300
O 	O 	0.64739 0.97340 0.61430 -0.45500
Zn	Zn	0.79347 0.05792 0.10141 1.19400
N 	N 	0.78311 0.18030 0.09200 -0.26300
C 	C 	0.87637 0.04430 0.01850 0.29600
O 	O 	0.86358 0.08090 0.91650 -0.31300
C 	C 	0.92213 0.02210 0.03240 -0.06300
N 	N 	0.74710 0.20900 0.15390 -0.06900
H 	H 	0.85410 0.20130 0.97360 0.14700
C 	C 	0.93779 0.99480 0.15040 0.00300
H 	H 	0.91970 0.98770 0.22020 0.04500
N 	N 	0.76039 0.00380 0.95960 -0.25800
C 	C 	0.94874 0.03300 0.92950 -0.04600
H 	H 	0.93810 0.05210 0.85110 0.06200
N 	N 	0.72678 0.95480 0.98560 -0.07200
C 	C 	0.99234 0.01490 0.94040 0.02900
N 	N 	0.70756 0.93640 0.87840 -0.06600
C 	C 	0.01988 0.02240 0.83570 -0.08700
H 	H 	0.00970 0.03880 0.75530 0.06300
N 	N 	0.72830 0.97340 0.77670 -0.25300
N 	N 	0.78857 0.06380 0.76390 -0.30800
H 	H 	0.78560 0.07060 0.67790 0.13700
H 	H 	0.80970 0.08910 0.80590 0.14000
C 	C 	0.76099 0.01440 0.83010 0.19400
O 	O 	0.85261 0.02660 0.11430 -0.45500
Zn	Zn	0.29347 0.44208 0.39859 1.19600
N 	N 	0.28311 0.31970 0.40800 -0.26200
C 	C 	0.37637 0.45570 0.48150 0.30100
O 	O 	0.36358 0.41910 0.58350 -0.31800
C 	C 	0.42213 0.47790 0.46760 -0.05600
N 	N 	0.24710 0.29100 0.34610 -0.06800
H 	H 	0.35410 0.29870 0.52640 0.14600
C 	C 	0.43779 0.50520 0.34960 -0.00200
H 	H 	0.41970 0.51230 0.27980 0.04700
N 	N 	0.26039 0.49620 0.54040 -0.26000
C 	C 	0.44874 0.46700 0.57050 -0.05300
H 	H 	0.43810 0.44790 0.64890 0.06300
N 	N 	0.22678 0.54520 0.51440 -0.07300
C 	C 	0.49234 0.48510 0.55960 0.02900
N 	N 	0.20756 0.56360 0.62160 -0.06600
C 	C 	0.51988 0.47760 0.66430 -0.08400
H 	H 	0.50970 0.46120 0.74470 0.06200
N 	N 	0.22830 0.52660 0.72330 -0.25300
N 	N 	0.28857 0.43620 0.73610 -0.30700
H 	H 	0.28560 0.42940 0.82210 0.13500
H 	H 	0.30970 0.41090 0.69410 0.13900
C 	C 	0.26099 0.48560 0.66990 0.19200
O 	O 	0.35261 0.47340 0.38570 -0.45500
Zn	Zn	0.20653 0.55792 0.89859 1.19400
N 	N 	0.21689 0.68030 0.90800 -0.26300
C 	C 	0.12363 0.54430 0.98150 0.29600
O 	O 	0.13642 0.58090 0.08350 -0.31300
C 	C 	0.07787 0.52210 0.96760 -0.05900
N 	N 	0.25290 0.70900 0.84610 -0.06900
H 	H 	0.14590 0.70130 0.02640 0.14700
C 	C 	0.06221 0.49480 0.84960 -0.00000
H 	H 	0.08030 0.48770 0.77980 0.04600
N 	N 	0.23961 0.50380 0.04040 -0.25900
C 	C 	0.05126 0.53300 0.07050 -0.04900
H 	H 	0.06190 0.55210 0.14890 0.06300
N 	N 	0.27322 0.45480 0.01440 -0.07100
C 	C 	0.00766 0.51490 0.05960 0.02900
N 	N 	0.29244 0.43640 0.12160 -0.06500
C 	C 	0.98012 0.52240 0.16430 -0.08500
H 	H 	0.99030 0.53880 0.24470 0.06300
N 	N 	0.27170 0.47340 0.22330 -0.25300
N 	N 	0.21143 0.56380 0.23610 -0.30800
H 	H 	0.21440 0.57060 0.32210 0.13600
H 	H 	0.19030 0.58910 0.19410 0.14000
C 	C 	0.23901 0.51440 0.16990 0.19400
O 	O 	0.14739 0.52660 0.88570 -0.45500
N 	N 	0.34162 0.25000 0.50630 -0.31200
C 	C 	0.30371 0.25000 0.44360 0.20100
N 	N 	0.15838 0.75000 0.00630 -0.30900
C 	C 	0.19629 0.75000 0.94360 0.19600
N 	N 	0.65838 0.75000 0.49370 -0.31200
C 	C 	0.69629 0.75000 0.55640 0.20100
N 	N 	0.84162 0.25000 0.99370 -0.30900
C 	C 	0.80371 0.25000 0.05640 0.19600
