data_crystal

_cell_length_a 11.25470
_cell_length_b 17.56640
_cell_length_c 16.84960
_cell_angle_alpha 90.00000
_cell_angle_beta  93.47300
_cell_angle_gamma 90.00000

_symmetry_space_group_name_	'P 1'
_symmetry_space_group_name_H-M	'P 1'

loop_
_symmetry_equiv_pos_as_xyz
  x,y,z

loop_
_atom_site_label
_atom_site_type_symbol
_atom_site_fract_x
_atom_site_fract_y
_atom_site_fract_z
_atom_site_charge
C 	C 	0.62960 0.86200 0.35910 0.47700
C 	C 	0.57370 0.93340 0.33020 -0.14000
C 	C 	0.58190 0.96720 0.25790 -0.01000
H 	H 	0.61900 0.94520 0.21580 0.04800
C 	C 	0.52690 0.04010 0.25460 0.02700
H 	H 	0.52530 0.07120 0.20990 0.00900
C 	C 	0.47730 0.05950 0.32260 -0.16100
C 	C 	0.42040 0.13300 0.34300 0.48400
C 	C 	0.88690 0.86940 0.47550 0.48000
C 	C 	0.94930 0.94220 0.46960 -0.15200
C 	C 	0.00530 0.96980 0.40770 0.00800
H 	H 	0.00920 0.94390 0.35970 0.03800
C 	C 	0.05800 0.04210 0.42240 0.00600
H 	H 	0.10170 0.06830 0.38610 0.03400
C 	C 	0.03670 0.06820 0.49600 -0.14900
C 	C 	0.07720 0.14180 0.53090 0.47400
C 	C 	0.57570 0.87580 0.67700 0.53500
C 	C 	0.53010 0.95260 0.65180 -0.17100
C 	C 	0.55460 0.99050 0.58560 0.02200
H 	H 	0.60860 0.97330 0.54990 0.02600
C 	C 	0.48970 0.05910 0.57560 -0.00700
H 	H 	0.49380 0.09100 0.53180 0.01700
C 	C 	0.42090 0.07290 0.63730 -0.13200
C 	C 	0.33890 0.13800 0.64880 0.42100
C 	C 	0.81900 0.63370 0.85330 0.43900
C 	C 	0.89880 0.56700 0.86210 -0.14600
C 	C 	0.97690 0.54980 0.92510 0.00800
H 	H 	0.99020 0.58090 0.96950 0.01100
C 	C 	0.03350 0.48100 0.91510 0.00400
H 	H 	0.08930 0.46140 0.95270 0.03200
C 	C 	0.00130 0.44440 0.84620 -0.15600
C 	C 	0.04630 0.36710 0.82310 0.52600
C 	C 	0.58470 0.63390 0.98150 0.47000
C 	C 	0.54110 0.56000 0.01090 -0.13900
C 	C 	0.56740 0.52700 0.08200 -0.00100
H 	H 	0.61680 0.54920 0.12180 0.04700
C 	C 	0.51240 0.45480 0.09010 0.01000
H 	H 	0.52350 0.42350 0.13450 0.01700
C 	C 	0.44150 0.43760 0.02480 -0.14400
C 	C 	0.36890 0.36720 0.01140 0.45200
C 	C 	0.94210 0.62750 0.16960 0.48300
C 	C 	0.00140 0.55370 0.18350 -0.15400
C 	C 	0.06960 0.53350 0.25090 0.01200
H 	H 	0.07900 0.56410 0.29590 0.03300
C 	C 	0.12300 0.46220 0.24430 -0.00400
H 	H 	0.17160 0.43970 0.28430 0.04000
C 	C 	0.09500 0.42940 0.17140 -0.13500
C 	C 	0.14000 0.35670 0.13970 0.44500
O 	O 	0.68070 0.82510 0.30720 -0.52100
O 	O 	0.62550 0.84620 0.43100 -0.50400
O 	O 	0.44400 0.18770 0.29650 -0.57200
O 	O 	0.36280 0.13810 0.40210 -0.52000
O 	O 	0.89260 0.82410 0.41660 -0.57200
O 	O 	0.83560 0.85580 0.53730 -0.49600
O 	O 	0.13420 0.18410 0.48480 -0.52600
O 	O 	0.05570 0.15740 0.60090 -0.51600
O 	O 	0.62650 0.83940 0.62660 -0.56900
O 	O 	0.56150 0.85550 0.74590 -0.54300
O 	O 	0.32040 0.18510 0.59350 -0.55800
O 	O 	0.29000 0.14210 0.71330 -0.46100
O 	O 	0.76120 0.64420 0.78830 -0.46600
O 	O 	0.81170 0.67790 0.91190 -0.58600
O 	O 	0.05210 0.35100 0.75080 -0.51800
O 	O 	0.07450 0.32590 0.87930 -0.57700
O 	O 	0.64390 0.67450 0.03110 -0.48500
O 	O 	0.56080 0.65020 0.90990 -0.52900
O 	O 	0.37110 0.31780 0.06540 -0.59600
O 	O 	0.30900 0.36010 0.94720 -0.44400
O 	O 	0.88430 0.63790 0.10320 -0.50700
O 	O 	0.95300 0.67620 0.22360 -0.55400
O 	O 	0.11970 0.34260 0.06770 -0.49600
O 	O 	0.20130 0.31500 0.18970 -0.49900
O 	O 	0.27660 0.24920 0.83000 -0.33800
S 	S 	0.49430 0.98911 0.39200 0.07200
S 	S 	0.95720 0.00510 0.54777 0.08100
S 	S 	0.43310 0.00234 0.70720 0.07900
S 	S 	0.89890 0.49765 0.78948 0.07700
S 	S 	0.44320 0.50615 0.95282 0.07400
S 	S 	0.00410 0.48578 0.11203 0.07400
Eu	Eu	0.30455 0.25448 0.46661 1.95000
Eu	Eu	0.15232 0.24679 0.68949 2.15700
Eu	Eu	0.17831 0.24910 0.96952 2.03900
Eu	Eu	0.37964 0.24515 0.17997 2.01400
C 	C 	0.37040 0.36200 0.64090 0.47800
C 	C 	0.42630 0.43340 0.66980 -0.13900
C 	C 	0.41810 0.46720 0.74210 -0.01100
H 	H 	0.38100 0.44520 0.78420 0.04900
C 	C 	0.47310 0.54010 0.74540 0.02800
H 	H 	0.47470 0.57120 0.79010 0.00900
C 	C 	0.52270 0.55950 0.67740 -0.16100
C 	C 	0.57960 0.63300 0.65700 0.48400
C 	C 	0.11310 0.36940 0.52450 0.48100
C 	C 	0.05070 0.44220 0.53040 -0.15300
C 	C 	0.99470 0.46980 0.59230 0.00900
H 	H 	0.99080 0.44390 0.64030 0.03700
C 	C 	0.94200 0.54210 0.57760 0.00600
H 	H 	0.89830 0.56830 0.61390 0.03400
C 	C 	0.96330 0.56820 0.50400 -0.15000
C 	C 	0.92280 0.64180 0.46910 0.47400
C 	C 	0.42430 0.37580 0.32300 0.53500
C 	C 	0.46990 0.45260 0.34820 -0.17100
C 	C 	0.44540 0.49050 0.41440 0.02100
H 	H 	0.39140 0.47330 0.45010 0.02600
C 	C 	0.51030 0.55910 0.42440 -0.00500
H 	H 	0.50620 0.59100 0.46820 0.01600
C 	C 	0.57910 0.57290 0.36270 -0.13200
C 	C 	0.66110 0.63800 0.35120 0.42100
C 	C 	0.18100 0.13370 0.14670 0.43900
C 	C 	0.10120 0.06700 0.13790 -0.14600
C 	C 	0.02310 0.04980 0.07490 0.00900
H 	H 	0.00980 0.08090 0.03050 0.01100
C 	C 	0.96650 0.98100 0.08490 0.00300
H 	H 	0.91070 0.96140 0.04730 0.03200
C 	C 	0.99870 0.94440 0.15380 -0.15600
C 	C 	0.95370 0.86710 0.17690 0.52600
C 	C 	0.41530 0.13390 0.01850 0.47100
C 	C 	0.45890 0.06000 0.98910 -0.14000
C 	C 	0.43260 0.02700 0.91800 -0.00300
H 	H 	0.38320 0.04920 0.87820 0.04700
C 	C 	0.48760 0.95480 0.90990 0.01200
H 	H 	0.47650 0.92350 0.86550 0.01700
C 	C 	0.55850 0.93760 0.97520 -0.14400
C 	C 	0.63110 0.86720 0.98860 0.45200
C 	C 	0.05790 0.12750 0.83040 0.48300
C 	C 	0.99860 0.05370 0.81650 -0.15500
C 	C 	0.93040 0.03350 0.74910 0.01000
H 	H 	0.92100 0.06410 0.70410 0.03400
C 	C 	0.87700 0.96220 0.75570 -0.00200
H 	H 	0.82840 0.93970 0.71570 0.03900
C 	C 	0.90500 0.92940 0.82860 -0.13600
C 	C 	0.86000 0.85670 0.86030 0.44600
O 	O 	0.31930 0.32510 0.69280 -0.52100
O 	O 	0.37450 0.34620 0.56900 -0.50400
O 	O 	0.55600 0.68770 0.70350 -0.57200
O 	O 	0.63720 0.63810 0.59790 -0.52000
O 	O 	0.10740 0.32410 0.58340 -0.57200
O 	O 	0.16440 0.35580 0.46270 -0.49600
O 	O 	0.86580 0.68410 0.51520 -0.52600
O 	O 	0.94430 0.65740 0.39910 -0.51600
O 	O 	0.37350 0.33940 0.37340 -0.56900
O 	O 	0.43850 0.35550 0.25410 -0.54300
O 	O 	0.67960 0.68510 0.40650 -0.55800
O 	O 	0.71000 0.64210 0.28670 -0.46100
O 	O 	0.23880 0.14420 0.21170 -0.46600
O 	O 	0.18830 0.17790 0.08810 -0.58600
O 	O 	0.94790 0.85100 0.24920 -0.51800
O 	O 	0.92550 0.82590 0.12070 -0.57700
O 	O 	0.35610 0.17450 0.96890 -0.48500
O 	O 	0.43920 0.15020 0.09010 -0.52900
O 	O 	0.62890 0.81780 0.93460 -0.59700
O 	O 	0.69100 0.86010 0.05280 -0.44400
O 	O 	0.11570 0.13790 0.89680 -0.50800
O 	O 	0.04700 0.17620 0.77640 -0.55400
O 	O 	0.88030 0.84260 0.93230 -0.49700
O 	O 	0.79870 0.81500 0.81030 -0.49900
O 	O 	0.72340 0.74920 0.17000 -0.33800
S 	S 	0.50570 0.48911 0.60800 0.07200
S 	S 	0.04280 0.50510 0.45223 0.08400
S 	S 	0.56690 0.50234 0.29280 0.08100
S 	S 	0.10110 0.99765 0.21052 0.07600
S 	S 	0.55680 0.00615 0.04718 0.07400
S 	S 	0.99590 0.98578 0.88797 0.07600
Eu	Eu	0.69545 0.75448 0.53339 1.95000
Eu	Eu	0.84768 0.74679 0.31051 2.15700
Eu	Eu	0.82169 0.74910 0.03048 2.03900
Eu	Eu	0.62036 0.74515 0.82003 2.01400
