data_crystal

_cell_length_a 50.82400
_cell_length_b 11.36900
_cell_length_c 17.60400
_cell_angle_alpha 90.00000
_cell_angle_beta  90.00000
_cell_angle_gamma 90.00000

_symmetry_space_group_name_	'P 1'
_symmetry_space_group_name_H-M	'P 1'

loop_
_symmetry_equiv_pos_as_xyz
  x,y,z

loop_
_atom_site_label
_atom_site_type_symbol
_atom_site_fract_x
_atom_site_fract_y
_atom_site_fract_z
_atom_site_charge
C 	C 	0.50940 0.57080 0.42280 0.51500
C 	C 	0.49820 0.53090 0.34960 -0.17100
C 	C 	0.47400 0.55470 0.32260 0.02100
H 	H 	0.46180 0.59980 0.34890 0.02100
C 	C 	0.46900 0.50460 0.25060 -0.01200
H 	H 	0.45320 0.51110 0.22470 0.03600
C 	C 	0.49020 0.44660 0.22460 -0.15400
C 	C 	0.49220 0.38450 0.15130 0.46300
C 	C 	0.54940 0.82050 0.41450 0.44700
C 	C 	0.54540 0.90320 0.34980 -0.15300
C 	C 	0.52520 0.97680 0.33640 0.01300
H 	H 	0.51090 0.98540 0.36890 0.00100
C 	C 	0.52810 0.03960 0.26800 -0.00500
H 	H 	0.51610 0.09530 0.25070 0.03500
C 	C 	0.55030 0.00950 0.23030 -0.15600
C 	C 	0.55870 0.05650 0.15540 0.47800
C 	C 	0.54710 0.86010 0.64040 0.51000
C 	C 	0.55600 0.91310 0.71170 -0.17600
C 	C 	0.57940 0.89950 0.74590 0.04300
H 	H 	0.59350 0.85930 0.72420 0.01800
C 	C 	0.58050 0.95210 0.81740 -0.03200
H 	H 	0.59500 0.94710 0.84940 0.05000
C 	C 	0.55820 0.01110 0.83560 -0.09400
C 	C 	0.55170 0.06740 0.90970 0.40600
C 	C 	0.60990 0.53090 0.40570 0.52600
C 	C 	0.60450 0.47020 0.33170 -0.16700
C 	C 	0.58280 0.41080 0.31190 0.02500
H 	H 	0.56790 0.40750 0.34220 0.02200
C 	C 	0.58470 0.35360 0.24110 -0.02200
H 	H 	0.57140 0.30790 0.21970 0.04100
C 	C 	0.60819 0.37400 0.20850 -0.12900
C 	C 	0.61930 0.32390 0.13660 0.41200
C 	C 	0.60670 0.51980 0.65020 0.54100
C 	C 	0.61440 0.47110 0.72480 -0.18500
C 	C 	0.63740 0.49350 0.75990 0.04700
H 	H 	0.65000 0.54410 0.74010 0.01700
C 	C 	0.64060 0.43370 0.82890 -0.02400
H 	H 	0.65550 0.44060 0.85950 0.05300
C 	C 	0.61977 0.36490 0.84590 -0.10100
C 	C 	0.61680 0.28840 0.91140 0.38400
C 	C 	0.67220 0.86980 0.41170 0.49300
C 	C 	0.66220 0.92160 0.33940 -0.15300
C 	C 	0.63830 0.90000 0.30710 -0.00300
H 	H 	0.62530 0.85330 0.32880 0.03100
C 	C 	0.63580 0.95800 0.23580 0.00200
H 	H 	0.62070 0.95460 0.20580 0.01500
C 	C 	0.65750 0.01840 0.21660 -0.15100
C 	C 	0.66250 0.08750 0.14730 0.42400
C 	C 	0.71280 0.58180 0.63330 0.49700
C 	C 	0.72290 0.53470 0.70610 -0.15900
C 	C 	0.74760 0.54620 0.73530 0.02100
H 	H 	0.76120 0.58570 0.71120 0.02900
C 	C 	0.74980 0.49100 0.80670 -0.00400
H 	H 	0.76530 0.48790 0.83450 0.04900
C 	C 	0.72710 0.44330 0.83030 -0.11500
C 	C 	0.72150 0.38800 0.90590 0.44400
C 	C 	0.71480 0.62530 0.40920 0.46500
C 	C 	0.71142 0.54540 0.34440 -0.16800
C 	C 	0.69030 0.47850 0.32810 0.02600
H 	H 	0.67540 0.47390 0.35860 -0.00600
C 	C 	0.69330 0.41680 0.25960 -0.01600
H 	H 	0.68050 0.36750 0.23950 0.04100
C 	C 	0.71680 0.43600 0.22610 -0.14700
C 	C 	0.72540 0.38950 0.15070 0.47600
C 	C 	0.65910 0.04280 0.90850 0.42400
C 	C 	0.66910 0.99580 0.83370 -0.11000
C 	C 	0.69310 0.01560 0.80220 -0.01300
H 	H 	0.70600 0.06260 0.82380 0.05700
C 	C 	0.69570 0.95650 0.73310 0.02800
H 	H 	0.71100 0.95880 0.70390 0.00500
C 	C 	0.67370 0.89470 0.71270 -0.17200
C 	C 	0.66940 0.82440 0.64370 0.48300
O 	O 	0.53284 0.54140 0.43810 -0.56700
O 	O 	0.49457 0.63020 0.46310 -0.58700
O 	O 	0.51274 0.32860 0.13880 -0.48800
O 	O 	0.47329 0.39150 0.10550 -0.59600
O 	O 	0.53138 0.80680 0.46160 -0.62700
O 	O 	0.57068 0.76590 0.41790 -0.53100
O 	O 	0.54218 0.11150 0.11830 -0.55200
O 	O 	0.58155 0.03420 0.13400 -0.51800
O 	O 	0.52354 0.87270 0.62230 -0.54600
O 	O 	0.56435 0.80430 0.60320 -0.59200
O 	O 	0.53170 0.13220 0.91240 -0.38200
O 	O 	0.56638 0.04260 0.96470 -0.37400
O 	O 	0.59222 0.52190 0.45440 -0.61100
O 	O 	0.63132 0.58180 0.41280 -0.56000
O 	O 	0.60246 0.26750 0.09580 -0.50700
O 	O 	0.64288 0.33660 0.12240 -0.48400
O 	O 	0.58269 0.52680 0.63250 -0.55600
O 	O 	0.62501 0.54940 0.60790 -0.61700
O 	O 	0.60934 0.74810 0.52590 -1.00200
O 	O 	0.63580 0.27120 0.95590 -0.38400
O 	O 	0.65620 0.81560 0.45170 -0.56200
O 	O 	0.69600 0.88980 0.42710 -0.55000
O 	O 	0.64502 0.08820 0.09570 -0.58800
O 	O 	0.68350 0.14230 0.14010 -0.46300
O 	O 	0.68878 0.56490 0.61850 -0.54800
O 	O 	0.72883 0.63680 0.59290 -0.56700
O 	O 	0.70066 0.33540 0.91560 -0.40000
O 	O 	0.73933 0.40320 0.95470 -0.38500
O 	O 	0.69594 0.63810 0.45550 -0.64300
O 	O 	0.73614 0.67830 0.41780 -0.50800
O 	O 	0.74865 0.37880 0.13560 -0.52700
O 	O 	0.70641 0.36860 0.10610 -0.56300
O 	O 	0.63584 0.02030 0.92570 -0.39000
O 	O 	0.67583 0.09830 0.94750 -0.35100
O 	O 	0.64751 0.77520 0.63610 -0.51700
O 	O 	0.68751 0.81370 0.59670 -0.66200
O 	O 	0.59496 0.23730 0.92150 -0.33300
S 	S 	0.51559 0.44780 0.28661 0.07400
S 	S 	0.56831 0.90910 0.27872 0.05600
S 	S 	0.53591 0.99920 0.76496 0.06700
S 	S 	0.62824 0.46060 0.26310 0.04700
S 	S 	0.59562 0.37630 0.77784 0.08600
S 	S 	0.68146 0.00970 0.28439 0.06300
S 	S 	0.70256 0.45830 0.76526 0.07700
S 	S 	0.73567 0.53050 0.27784 0.05400
S 	S 	0.64969 0.90850 0.77923 0.08900
Nd	Nd	0.48880 0.80697 0.53209 2.19900
Nd	Nd	0.56276 0.63470 0.52607 2.50300
Nd	Nd	0.65574 0.63834 0.52713 2.35600
Nd	Nd	0.72690 0.81775 0.52384 2.27000
Nd	Nd	0.60610 0.09001 0.02216 1.55000
Nd	Nd	0.67660 0.26959 0.02743 1.53800
H 	H 	0.61350 0.77800 0.56800 0.38200
H 	H 	0.60630 0.80200 0.49400 0.39600
C 	C 	0.49060 0.42920 0.92280 0.43200
C 	C 	0.50180 0.46910 0.84960 -0.11000
C 	C 	0.52600 0.44530 0.82260 -0.01500
H 	H 	0.53820 0.40020 0.84890 0.06100
C 	C 	0.53100 0.49540 0.75060 0.03600
H 	H 	0.54680 0.48890 0.72470 0.02500
C 	C 	0.50980 0.55340 0.72460 -0.17700
C 	C 	0.50780 0.61550 0.65130 0.52500
C 	C 	0.45060 0.17950 0.91450 0.38700
C 	C 	0.45460 0.09680 0.84980 -0.10000
C 	C 	0.47480 0.02320 0.83640 -0.01200
H 	H 	0.48910 0.01460 0.86890 0.05100
C 	C 	0.47190 0.96040 0.76800 0.03400
H 	H 	0.48390 0.90470 0.75070 0.02300
C 	C 	0.44970 0.99050 0.73030 -0.19000
C 	C 	0.44130 0.94350 0.65540 0.55300
C 	C 	0.45290 0.13990 0.14040 0.44600
C 	C 	0.44400 0.08690 0.21170 -0.15500
C 	C 	0.42060 0.10050 0.24590 -0.01300
H 	H 	0.40650 0.14070 0.22420 0.02700
C 	C 	0.41950 0.04790 0.31740 0.02800
H 	H 	0.40500 0.05290 0.34940 -0.00200
C 	C 	0.44180 0.98890 0.33560 -0.17400
C 	C 	0.44830 0.93260 0.40970 0.49200
C 	C 	0.39010 0.46910 0.90570 0.44800
C 	C 	0.39550 0.52980 0.83170 -0.11300
C 	C 	0.41720 0.58920 0.81190 -0.00700
H 	H 	0.43210 0.59250 0.84220 0.05600
C 	C 	0.41530 0.64640 0.74110 0.01800
H 	H 	0.42860 0.69210 0.71970 0.03100
C 	C 	0.39181 0.62600 0.70850 -0.14600
C 	C 	0.38070 0.67610 0.63660 0.46600
C 	C 	0.39330 0.48020 0.15020 0.47300
C 	C 	0.38560 0.52890 0.22480 -0.15800
C 	C 	0.36260 0.50650 0.25990 -0.00600
H 	H 	0.35000 0.45590 0.24010 0.03400
C 	C 	0.35940 0.56630 0.32890 0.01500
H 	H 	0.34450 0.55940 0.35950 0.00100
C 	C 	0.38023 0.63510 0.34590 -0.16300
C 	C 	0.38320 0.71160 0.41140 0.44700
C 	C 	0.32780 0.13020 0.91170 0.41600
C 	C 	0.33780 0.07840 0.83940 -0.09500
C 	C 	0.36170 0.10000 0.80710 -0.03700
H 	H 	0.37470 0.14670 0.82880 0.05600
C 	C 	0.36420 0.04200 0.73580 0.05400
H 	H 	0.37930 0.04540 0.70580 0.00000
C 	C 	0.34250 0.98160 0.71660 -0.18200
C 	C 	0.33750 0.91250 0.64730 0.47700
C 	C 	0.28720 0.41820 0.13330 0.44100
C 	C 	0.27710 0.46530 0.20610 -0.14100
C 	C 	0.25240 0.45380 0.23530 -0.02200
H 	H 	0.23880 0.41430 0.21120 0.03600
C 	C 	0.25020 0.50900 0.30670 0.03000
H 	H 	0.23470 0.51210 0.33450 0.01200
C 	C 	0.27290 0.55670 0.33030 -0.17400
C 	C 	0.27850 0.61200 0.40590 0.53000
C 	C 	0.28520 0.37470 0.90920 0.39900
C 	C 	0.28858 0.45460 0.84440 -0.10500
C 	C 	0.30970 0.52150 0.82810 -0.01500
H 	H 	0.32460 0.52610 0.85860 0.04600
C 	C 	0.30670 0.58320 0.75960 0.04000
H 	H 	0.31950 0.63250 0.73950 0.02300
C 	C 	0.28320 0.56400 0.72610 -0.17700
C 	C 	0.27460 0.61050 0.65070 0.55000
C 	C 	0.34090 0.95720 0.40850 0.48500
C 	C 	0.33090 0.00420 0.33370 -0.13400
C 	C 	0.30690 0.98440 0.30220 -0.02300
H 	H 	0.29400 0.93740 0.32380 0.03800
C 	C 	0.30430 0.04350 0.23310 0.01400
H 	H 	0.28900 0.04120 0.20390 0.00900
C 	C 	0.32630 0.10530 0.21270 -0.16200
C 	C 	0.33060 0.17560 0.14370 0.43500
O 	O 	0.46716 0.45860 0.93810 -0.38500
O 	O 	0.50543 0.36980 0.96310 -0.36200
O 	O 	0.48726 0.67140 0.63880 -0.53400
O 	O 	0.52671 0.60850 0.60550 -0.64500
O 	O 	0.46862 0.19320 0.96160 -0.39000
O 	O 	0.42932 0.23410 0.91790 -0.38900
O 	O 	0.45782 0.88850 0.61830 -0.61000
O 	O 	0.41845 0.96580 0.63400 -0.57900
O 	O 	0.47646 0.12730 0.12230 -0.50500
O 	O 	0.43565 0.19570 0.10320 -0.55500
O 	O 	0.46830 0.86780 0.41240 -0.54700
O 	O 	0.43362 0.95740 0.46470 -0.63100
O 	O 	0.40778 0.47810 0.95440 -0.37400
O 	O 	0.36868 0.41820 0.91280 -0.39000
O 	O 	0.39754 0.73250 0.59580 -0.53800
O 	O 	0.35712 0.66340 0.62240 -0.52400
O 	O 	0.41731 0.47320 0.13250 -0.50600
O 	O 	0.37499 0.45060 0.10790 -0.55700
O 	O 	0.39066 0.25190 0.02590 -1.41000
O 	O 	0.36420 0.72880 0.45590 -0.62700
O 	O 	0.34380 0.18440 0.95170 -0.36400
O 	O 	0.30400 0.11020 0.92710 -0.37100
O 	O 	0.35498 0.91180 0.59570 -0.64900
O 	O 	0.31650 0.85770 0.64010 -0.50900
O 	O 	0.31122 0.43510 0.11850 -0.51200
O 	O 	0.27117 0.36320 0.09290 -0.53700
O 	O 	0.29934 0.66460 0.41560 -0.57700
O 	O 	0.26067 0.59680 0.45470 -0.62700
O 	O 	0.30406 0.36190 0.95550 -0.40400
O 	O 	0.26386 0.32170 0.91780 -0.34600
O 	O 	0.25135 0.62120 0.63560 -0.58800
O 	O 	0.29359 0.63140 0.60610 -0.61300
O 	O 	0.36416 0.97970 0.42570 -0.57800
O 	O 	0.32417 0.90170 0.44750 -0.55700
O 	O 	0.35249 0.22480 0.13610 -0.48500
O 	O 	0.31249 0.18630 0.09670 -0.60600
O 	O 	0.40504 0.76270 0.42150 -0.49400
S 	S 	0.48441 0.55220 0.78661 0.09900
S 	S 	0.43169 0.09090 0.77872 0.08600
S 	S 	0.46409 0.00080 0.26496 0.06200
S 	S 	0.37176 0.53940 0.76310 0.06800
S 	S 	0.40438 0.62370 0.27784 0.05400
S 	S 	0.31854 0.99030 0.78439 0.08200
S 	S 	0.29744 0.54170 0.26526 0.05500
S 	S 	0.26433 0.46950 0.77784 0.08500
S 	S 	0.35031 0.09150 0.27923 0.05700
Nd	Nd	0.51120 0.19303 0.03209 1.51900
Nd	Nd	0.43724 0.36530 0.02607 1.80800
Nd	Nd	0.34426 0.36166 0.02713 1.72900
Nd	Nd	0.27310 0.18225 0.02384 1.56500
Nd	Nd	0.39390 0.90999 0.52216 2.27400
Nd	Nd	0.32340 0.73041 0.52743 2.20200
H 	H 	0.38650 0.22200 0.06800 0.50200
H 	H 	0.39370 0.19800 0.99400 0.73200
C 	C 	0.00940 0.92920 0.42280 0.51700
C 	C 	0.99820 0.96910 0.34960 -0.17300
C 	C 	0.97400 0.94530 0.32260 0.02300
H 	H 	0.96180 0.90020 0.34890 0.02100
C 	C 	0.96900 0.99540 0.25060 -0.01400
H 	H 	0.95320 0.98890 0.22470 0.03700
C 	C 	0.99020 0.05340 0.22460 -0.15300
C 	C 	0.99220 0.11550 0.15130 0.46300
C 	C 	0.04940 0.67950 0.41450 0.44800
C 	C 	0.04540 0.59680 0.34980 -0.15400
C 	C 	0.02520 0.52320 0.33640 0.01600
H 	H 	0.01090 0.51460 0.36890 0.00000
C 	C 	0.02810 0.46040 0.26800 -0.00900
H 	H 	0.01610 0.40470 0.25070 0.03600
C 	C 	0.05030 0.49050 0.23030 -0.15600
C 	C 	0.05870 0.44350 0.15540 0.47700
C 	C 	0.04710 0.63990 0.64040 0.51000
C 	C 	0.05600 0.58690 0.71170 -0.17500
C 	C 	0.07940 0.60050 0.74590 0.03700
H 	H 	0.09350 0.64070 0.72420 0.02000
C 	C 	0.08050 0.54790 0.81740 -0.01800
H 	H 	0.09500 0.55290 0.84940 0.04700
C 	C 	0.05820 0.48890 0.83560 -0.10800
C 	C 	0.05170 0.43260 0.90970 0.41000
C 	C 	0.10990 0.96910 0.40570 0.52200
C 	C 	0.10450 0.02980 0.33170 -0.16200
C 	C 	0.08280 0.08920 0.31190 0.02300
H 	H 	0.06790 0.09250 0.34220 0.02400
C 	C 	0.08470 0.14640 0.24110 -0.02100
H 	H 	0.07140 0.19210 0.21970 0.04000
C 	C 	0.10819 0.12600 0.20850 -0.12900
C 	C 	0.11930 0.17610 0.13660 0.41200
C 	C 	0.10670 0.98020 0.65020 0.53600
C 	C 	0.11440 0.02890 0.72480 -0.18500
C 	C 	0.13740 0.00650 0.75990 0.06200
H 	H 	0.15000 0.95590 0.74010 0.00700
C 	C 	0.14060 0.06630 0.82890 -0.03100
H 	H 	0.15550 0.05940 0.85950 0.05600
C 	C 	0.11977 0.13510 0.84590 -0.09900
C 	C 	0.11680 0.21160 0.91140 0.38300
C 	C 	0.17220 0.63020 0.41170 0.49300
C 	C 	0.16220 0.57840 0.33940 -0.15300
C 	C 	0.13830 0.60000 0.30710 -0.00300
H 	H 	0.12530 0.64670 0.32880 0.03100
C 	C 	0.13580 0.54200 0.23580 0.00200
H 	H 	0.12070 0.54540 0.20580 0.01400
C 	C 	0.15750 0.48160 0.21660 -0.15200
C 	C 	0.16250 0.41250 0.14730 0.42400
C 	C 	0.21280 0.91820 0.63330 0.49600
C 	C 	0.22290 0.96530 0.70610 -0.16300
C 	C 	0.24760 0.95380 0.73530 0.00800
H 	H 	0.26120 0.91430 0.71120 0.03200
C 	C 	0.24980 0.00900 0.80670 0.01000
H 	H 	0.26530 0.01210 0.83450 0.04600
C 	C 	0.22710 0.05670 0.83030 -0.12000
C 	C 	0.22150 0.11200 0.90590 0.44600
C 	C 	0.21480 0.87470 0.40920 0.46700
C 	C 	0.21142 0.95460 0.34440 -0.17400
C 	C 	0.19030 0.02150 0.32810 0.03500
H 	H 	0.17540 0.02610 0.35860 -0.00800
C 	C 	0.19330 0.08320 0.25960 -0.02100
H 	H 	0.18050 0.13250 0.23950 0.04300
C 	C 	0.21680 0.06400 0.22610 -0.14200
C 	C 	0.22540 0.11050 0.15070 0.47500
C 	C 	0.15910 0.45720 0.90850 0.41500
C 	C 	0.16910 0.50420 0.83370 -0.09400
C 	C 	0.19310 0.48440 0.80220 -0.03400
H 	H 	0.20600 0.43740 0.82380 0.06400
C 	C 	0.19570 0.54350 0.73310 0.04300
H 	H 	0.21100 0.54120 0.70390 0.00100
C 	C 	0.17370 0.60530 0.71270 -0.17700
C 	C 	0.16940 0.67560 0.64370 0.48600
O 	O 	0.03284 0.95860 0.43810 -0.56900
O 	O 	0.99457 0.86980 0.46310 -0.58700
O 	O 	0.01274 0.17140 0.13880 -0.48700
O 	O 	0.97329 0.10850 0.10550 -0.59600
O 	O 	0.03138 0.69320 0.46160 -0.62700
O 	O 	0.07068 0.73410 0.41790 -0.53100
O 	O 	0.04218 0.38850 0.11830 -0.55200
O 	O 	0.08155 0.46580 0.13400 -0.51800
O 	O 	0.02354 0.62730 0.62230 -0.54500
O 	O 	0.06435 0.69570 0.60320 -0.59100
O 	O 	0.03170 0.36780 0.91240 -0.38400
O 	O 	0.06638 0.45740 0.96470 -0.37600
O 	O 	0.09222 0.97810 0.45440 -0.61100
O 	O 	0.13132 0.91820 0.41280 -0.56000
O 	O 	0.10246 0.23250 0.09580 -0.50700
O 	O 	0.14288 0.16340 0.12240 -0.48300
O 	O 	0.08269 0.97320 0.63250 -0.55800
O 	O 	0.12501 0.95060 0.60790 -0.61700
O 	O 	0.10934 0.75190 0.52590 -1.00200
O 	O 	0.13580 0.22880 0.95590 -0.38400
O 	O 	0.15620 0.68440 0.45170 -0.56100
O 	O 	0.19600 0.61020 0.42710 -0.55000
O 	O 	0.14502 0.41180 0.09570 -0.58800
O 	O 	0.18350 0.35770 0.14010 -0.46400
O 	O 	0.18878 0.93510 0.61850 -0.55000
O 	O 	0.22883 0.86320 0.59290 -0.56800
O 	O 	0.20066 0.16460 0.91560 -0.40100
O 	O 	0.23933 0.09680 0.95470 -0.38600
O 	O 	0.19594 0.86190 0.45550 -0.64400
O 	O 	0.23614 0.82170 0.41780 -0.50900
O 	O 	0.24865 0.12120 0.13560 -0.52600
O 	O 	0.20641 0.13140 0.10610 -0.56200
O 	O 	0.13584 0.47970 0.92570 -0.38900
O 	O 	0.17583 0.40170 0.94750 -0.34900
O 	O 	0.14751 0.72480 0.63610 -0.51700
O 	O 	0.18751 0.68630 0.59670 -0.66200
O 	O 	0.09496 0.26270 0.92150 -0.33300
S 	S 	0.01559 0.05220 0.28661 0.07600
S 	S 	0.06831 0.59090 0.27872 0.05600
S 	S 	0.03591 0.50080 0.76496 0.07800
S 	S 	0.12824 0.03940 0.26310 0.04800
S 	S 	0.09562 0.12370 0.77784 0.08600
S 	S 	0.18146 0.49030 0.28439 0.06200
S 	S 	0.20256 0.04170 0.76526 0.08500
S 	S 	0.23567 0.96950 0.27784 0.05100
S 	S 	0.14969 0.59150 0.77923 0.08900
Nd	Nd	0.98880 0.69303 0.53209 2.20000
Nd	Nd	0.06276 0.86530 0.52607 2.50100
Nd	Nd	0.15574 0.86166 0.52713 2.35300
Nd	Nd	0.22690 0.68225 0.52384 2.27200
Nd	Nd	0.10610 0.40999 0.02216 1.54800
Nd	Nd	0.17660 0.23041 0.02743 1.53800
H 	H 	0.11350 0.72200 0.56800 0.38200
H 	H 	0.10630 0.69800 0.49400 0.39700
C 	C 	0.99060 0.07080 0.92280 0.43000
C 	C 	0.00180 0.03090 0.84960 -0.10200
C 	C 	0.02600 0.05470 0.82260 -0.02200
H 	H 	0.03820 0.09980 0.84890 0.06400
C 	C 	0.03100 0.00460 0.75060 0.04700
H 	H 	0.04680 0.01110 0.72470 0.02300
C 	C 	0.00980 0.94660 0.72460 -0.18500
C 	C 	0.00780 0.88450 0.65130 0.52700
C 	C 	0.95060 0.32050 0.91450 0.38500
C 	C 	0.95460 0.40320 0.84980 -0.09600
C 	C 	0.97480 0.47680 0.83640 -0.02400
H 	H 	0.98910 0.48540 0.86890 0.05400
C 	C 	0.97190 0.53960 0.76800 0.04500
H 	H 	0.98390 0.59530 0.75070 0.02000
C 	C 	0.94970 0.50950 0.73030 -0.18700
C 	C 	0.94130 0.55650 0.65540 0.55300
C 	C 	0.95290 0.36010 0.14040 0.44700
C 	C 	0.94400 0.41310 0.21170 -0.15600
C 	C 	0.92060 0.39950 0.24590 -0.01000
H 	H 	0.90650 0.35930 0.22420 0.02600
C 	C 	0.91950 0.45210 0.31740 0.02100
H 	H 	0.90500 0.44710 0.34940 -0.00100
C 	C 	0.94180 0.51110 0.33560 -0.16700
C 	C 	0.94830 0.56740 0.40970 0.49000
C 	C 	0.89010 0.03090 0.90570 0.45300
C 	C 	0.89550 0.97020 0.83170 -0.12100
C 	C 	0.91720 0.91080 0.81190 -0.00300
H 	H 	0.93210 0.90750 0.84220 0.05300
C 	C 	0.91530 0.85360 0.74110 0.01600
H 	H 	0.92860 0.80790 0.71970 0.03200
C 	C 	0.89181 0.87400 0.70850 -0.14500
C 	C 	0.88070 0.82390 0.63660 0.46600
C 	C 	0.89330 0.01980 0.15020 0.47400
C 	C 	0.88560 0.97110 0.22480 -0.15800
C 	C 	0.86260 0.99350 0.25990 -0.00600
H 	H 	0.85000 0.04410 0.24010 0.03400
C 	C 	0.85940 0.93370 0.32890 0.01500
H 	H 	0.84450 0.94060 0.35950 0.00000
C 	C 	0.88023 0.86490 0.34590 -0.16300
C 	C 	0.88320 0.78840 0.41140 0.44700
C 	C 	0.82780 0.36980 0.91170 0.41900
C 	C 	0.83780 0.42160 0.83940 -0.10400
C 	C 	0.86170 0.40000 0.80710 -0.02800
H 	H 	0.87470 0.35330 0.82880 0.05300
C 	C 	0.86420 0.45800 0.73580 0.04000
H 	H 	0.87930 0.45460 0.70580 0.00300
C 	C 	0.84250 0.51840 0.71660 -0.17300
C 	C 	0.83750 0.58750 0.64730 0.47500
C 	C 	0.78720 0.08180 0.13330 0.44100
C 	C 	0.77710 0.03470 0.20610 -0.14100
C 	C 	0.75240 0.04620 0.23530 -0.02200
H 	H 	0.73880 0.08570 0.21120 0.03600
C 	C 	0.75020 0.99100 0.30670 0.03100
H 	H 	0.73470 0.98790 0.33450 0.01200
C 	C 	0.77290 0.94330 0.33030 -0.17400
C 	C 	0.77850 0.88800 0.40590 0.53000
C 	C 	0.78520 0.12530 0.90920 0.39700
C 	C 	0.78858 0.04540 0.84440 -0.09900
C 	C 	0.80970 0.97850 0.82810 -0.02700
H 	H 	0.82460 0.97390 0.85860 0.04800
C 	C 	0.80670 0.91680 0.75960 0.04600
H 	H 	0.81950 0.86750 0.73950 0.02100
C 	C 	0.78320 0.93600 0.72610 -0.18300
C 	C 	0.77460 0.88950 0.65070 0.55100
C 	C 	0.84090 0.54280 0.40850 0.49200
C 	C 	0.83090 0.49580 0.33370 -0.14600
C 	C 	0.80690 0.51560 0.30220 -0.00600
H 	H 	0.79400 0.56260 0.32380 0.03300
C 	C 	0.80430 0.45650 0.23310 0.00200
H 	H 	0.78900 0.45880 0.20390 0.01200
C 	C 	0.82630 0.39470 0.21270 -0.15800
C 	C 	0.83060 0.32440 0.14370 0.43300
O 	O 	0.96716 0.04140 0.93810 -0.38300
O 	O 	0.00543 0.13020 0.96310 -0.36100
O 	O 	0.98726 0.82860 0.63880 -0.53500
O 	O 	0.02671 0.89150 0.60550 -0.64600
O 	O 	0.96862 0.30680 0.96160 -0.39000
O 	O 	0.92932 0.26590 0.91790 -0.38800
O 	O 	0.95782 0.61150 0.61830 -0.61000
O 	O 	0.91845 0.53420 0.63400 -0.57700
O 	O 	0.97646 0.37270 0.12230 -0.50500
O 	O 	0.93565 0.30430 0.10320 -0.55600
O 	O 	0.96830 0.63220 0.41240 -0.54600
O 	O 	0.93362 0.54260 0.46470 -0.63000
O 	O 	0.90778 0.02190 0.95440 -0.37500
O 	O 	0.86868 0.08180 0.91280 -0.39000
O 	O 	0.89754 0.76750 0.59580 -0.53800
O 	O 	0.85712 0.83660 0.62240 -0.52400
O 	O 	0.91731 0.02680 0.13250 -0.50600
O 	O 	0.87499 0.04940 0.10790 -0.55700
O 	O 	0.89066 0.24810 0.02590 -1.41000
O 	O 	0.86420 0.77120 0.45590 -0.62800
O 	O 	0.84380 0.31560 0.95170 -0.36500
O 	O 	0.80400 0.38980 0.92710 -0.37300
O 	O 	0.85498 0.58820 0.59570 -0.64800
O 	O 	0.81650 0.64230 0.64010 -0.50800
O 	O 	0.81122 0.06490 0.11850 -0.51200
O 	O 	0.77117 0.13680 0.09290 -0.53700
O 	O 	0.79934 0.83540 0.41560 -0.57700
O 	O 	0.76067 0.90320 0.45470 -0.62700
O 	O 	0.80406 0.13810 0.95550 -0.40300
O 	O 	0.76386 0.17830 0.91780 -0.34500
O 	O 	0.75135 0.87880 0.63560 -0.59000
O 	O 	0.79359 0.86860 0.60610 -0.61400
O 	O 	0.86416 0.52030 0.42570 -0.57800
O 	O 	0.82417 0.59830 0.44750 -0.55800
O 	O 	0.85249 0.27520 0.13610 -0.48500
O 	O 	0.81249 0.31370 0.09670 -0.60600
O 	O 	0.90504 0.73730 0.42150 -0.49400
S 	S 	0.98441 0.94780 0.78661 0.09200
S 	S 	0.93169 0.40910 0.77872 0.08000
S 	S 	0.96409 0.49920 0.26496 0.05700
S 	S 	0.87176 0.96060 0.76310 0.06600
S 	S 	0.90438 0.87630 0.27784 0.05400
S 	S 	0.81854 0.50970 0.78439 0.09300
S 	S 	0.79744 0.95830 0.26526 0.05700
S 	S 	0.76433 0.03050 0.77784 0.08700
S 	S 	0.85031 0.40850 0.27923 0.05700
Nd	Nd	0.01120 0.30697 0.03209 1.51800
Nd	Nd	0.93724 0.13470 0.02607 1.80900
Nd	Nd	0.84426 0.13834 0.02713 1.73000
Nd	Nd	0.77310 0.31775 0.02384 1.56300
Nd	Nd	0.89390 0.59001 0.52216 2.27700
Nd	Nd	0.82340 0.76959 0.52743 2.20200
H 	H 	0.88650 0.27800 0.06800 0.50100
H 	H 	0.89370 0.30200 0.99400 0.73200
