data_crystal

_cell_length_a 17.37780
_cell_length_b 11.64040
_cell_length_c 18.34750
_cell_angle_alpha 90.00000
_cell_angle_beta  110.41300
_cell_angle_gamma 90.00000

_symmetry_space_group_name_	'P 1'
_symmetry_space_group_name_H-M	'P 1'

loop_
_symmetry_equiv_pos_as_xyz
  x,y,z

loop_
_atom_site_label
_atom_site_type_symbol
_atom_site_fract_x
_atom_site_fract_y
_atom_site_fract_z
_atom_site_charge
Tb	Tb	0.00103 0.91691 0.40541 1.93600
Tb	Tb	0.49766 0.56926 0.60114 1.97000
S 	S 	0.25036 0.79523 0.41038 0.06800
S 	S 	0.24412 0.70701 0.61034 0.07700
S 	S 	0.26399 0.27363 0.55926 0.08000
O 	O 	0.10109 0.93390 0.35161 -0.52100
O 	O 	0.40481 0.58300 0.66402 -0.53900
O 	O 	0.40761 0.41400 0.55876 -0.50400
O 	O 	0.40391 0.53700 0.78163 -0.55100
O 	O 	0.07810 0.90960 0.22526 -0.51800
O 	O 	0.08026 0.05270 0.49489 -0.56100
O 	O 	0.07064 0.90840 0.62462 -0.48400
O 	O 	0.42418 0.56860 0.43392 -0.54800
O 	O 	0.42104 0.32850 0.45394 -0.52900
O 	O 	0.08231 0.82060 0.51974 -0.50700
C 	C 	0.11630 0.88820 0.29440 0.48100
O 	O 	0.39592 0.68690 0.51591 -0.48500
C 	C 	0.37490 0.58740 0.71650 0.49600
C 	C 	0.18650 0.80730 0.31500 -0.17200
O 	O 	0.11692 0.18320 0.58770 -0.47200
C 	C 	0.38940 0.34010 0.50580 0.48200
C 	C 	0.29840 0.65360 0.70170 -0.17500
C 	C 	0.20140 0.16100 0.51240 -0.12800
C 	C 	0.19300 0.75390 0.72260 -0.01400
H 	H 	0.16280 0.78420 0.75110 0.04400
C 	C 	0.26350 0.68460 0.75510 0.02000
H 	H 	0.28390 0.66250 0.80710 0.01400
C 	C 	0.10360 0.83890 0.59210 0.45600
C 	C 	0.32280 0.25810 0.50140 -0.15100
C 	C 	0.17420 0.77140 0.64480 -0.13200
C 	C 	0.12910 0.13100 0.53250 0.41600
C 	C 	0.22630 0.11350 0.45550 -0.01800
H 	H 	0.20010 0.05180 0.42460 0.04900
C 	C 	0.38090 0.64700 0.44850 0.43100
C 	C 	0.28020 0.67090 0.30790 -0.01500
H 	H 	0.30450 0.61850 0.28440 0.04700
C 	C 	0.29550 0.16880 0.44970 0.01600
H 	H 	0.32050 0.14730 0.41440 0.02500
C 	C 	0.30890 0.69380 0.38580 -0.12900
C 	C 	0.20910 0.73590 0.26690 0.01600
H 	H 	0.18120 0.73050 0.21360 0.02900
Tb	Tb	0.99897 0.91691 0.09459 1.90500
Tb	Tb	0.50234 0.56926 0.89886 1.97100
S 	S 	0.74964 0.79523 0.08962 0.06400
S 	S 	0.75588 0.70701 0.88966 0.08000
S 	S 	0.73601 0.27363 0.94074 0.08200
O 	O 	0.89891 0.93390 0.14839 -0.52100
O 	O 	0.59519 0.58300 0.83598 -0.53800
O 	O 	0.59239 0.41400 0.94124 -0.50300
O 	O 	0.59609 0.53700 0.71837 -0.55000
O 	O 	0.92190 0.90960 0.27474 -0.52300
O 	O 	0.91974 0.05270 0.00511 -0.55300
O 	O 	0.92936 0.90840 0.87538 -0.47700
O 	O 	0.57582 0.56860 0.06608 -0.54700
O 	O 	0.57896 0.32850 0.04606 -0.52700
O 	O 	0.91769 0.82060 0.98026 -0.49900
C 	C 	0.88370 0.88820 0.20560 0.48200
O 	O 	0.60408 0.68690 0.98409 -0.48100
C 	C 	0.62510 0.58740 0.78350 0.49700
C 	C 	0.81350 0.80730 0.18500 -0.17200
O 	O 	0.88308 0.18320 0.91230 -0.46700
C 	C 	0.61060 0.34010 0.99420 0.48000
C 	C 	0.70160 0.65360 0.79830 -0.17500
C 	C 	0.79860 0.16100 0.98760 -0.13000
C 	C 	0.80700 0.75390 0.77740 -0.01500
H 	H 	0.83720 0.78420 0.74890 0.04500
C 	C 	0.73650 0.68460 0.74490 0.02100
H 	H 	0.71610 0.66250 0.69290 0.01400
C 	C 	0.89640 0.83890 0.90790 0.45300
C 	C 	0.67720 0.25810 0.99860 -0.15500
C 	C 	0.82580 0.77140 0.85520 -0.13000
C 	C 	0.87090 0.13100 0.96750 0.41200
C 	C 	0.77370 0.11350 0.04450 -0.01700
H 	H 	0.79990 0.05180 0.07540 0.05100
C 	C 	0.61910 0.64700 0.05150 0.42500
C 	C 	0.71980 0.67090 0.19210 -0.01700
H 	H 	0.69550 0.61850 0.21560 0.04800
C 	C 	0.70450 0.16880 0.05030 0.02000
H 	H 	0.67950 0.14730 0.08560 0.02500
C 	C 	0.69110 0.69380 0.11420 -0.12700
C 	C 	0.79090 0.73590 0.23310 0.01600
H 	H 	0.81880 0.73050 0.28640 0.02800
Tb	Tb	0.99897 0.08309 0.59459 1.93700
Tb	Tb	0.50234 0.43074 0.39886 1.97100
S 	S 	0.74964 0.20477 0.58962 0.06900
S 	S 	0.75588 0.29299 0.38966 0.07800
S 	S 	0.73601 0.72637 0.44074 0.08100
O 	O 	0.89891 0.06610 0.64839 -0.52000
O 	O 	0.59519 0.41700 0.33598 -0.53800
O 	O 	0.59239 0.58600 0.44124 -0.50300
O 	O 	0.59609 0.46300 0.21837 -0.55000
O 	O 	0.92190 0.09040 0.77474 -0.51700
O 	O 	0.91974 0.94730 0.50511 -0.56100
O 	O 	0.92936 0.09160 0.37538 -0.48400
O 	O 	0.57582 0.43140 0.56608 -0.54800
O 	O 	0.57896 0.67150 0.54606 -0.52900
O 	O 	0.91769 0.17940 0.48026 -0.50700
C 	C 	0.88370 0.11180 0.70560 0.48100
O 	O 	0.60408 0.31310 0.48409 -0.48500
C 	C 	0.62510 0.41260 0.28350 0.49600
C 	C 	0.81350 0.19270 0.68500 -0.17200
O 	O 	0.88308 0.81680 0.41230 -0.47200
C 	C 	0.61060 0.65990 0.49420 0.48200
C 	C 	0.70160 0.34640 0.29830 -0.17500
C 	C 	0.79860 0.83900 0.48760 -0.12800
C 	C 	0.80700 0.24610 0.27740 -0.01400
H 	H 	0.83720 0.21580 0.24890 0.04400
C 	C 	0.73650 0.31540 0.24490 0.02000
H 	H 	0.71610 0.33750 0.19290 0.01400
C 	C 	0.89640 0.16110 0.40790 0.45600
C 	C 	0.67720 0.74190 0.49860 -0.15100
C 	C 	0.82580 0.22860 0.35520 -0.13200
C 	C 	0.87090 0.86900 0.46750 0.41600
C 	C 	0.77370 0.88650 0.54450 -0.01800
H 	H 	0.79990 0.94820 0.57540 0.04900
C 	C 	0.61910 0.35300 0.55150 0.43100
C 	C 	0.71980 0.32910 0.69210 -0.01500
H 	H 	0.69550 0.38150 0.71560 0.04700
C 	C 	0.70450 0.83120 0.55030 0.01600
H 	H 	0.67950 0.85270 0.58560 0.02500
C 	C 	0.69110 0.30620 0.61420 -0.12900
C 	C 	0.79090 0.26410 0.73310 0.01600
H 	H 	0.81880 0.26950 0.78640 0.02900
Tb	Tb	0.00103 0.08309 0.90541 1.90500
Tb	Tb	0.49766 0.43074 0.10114 1.97100
S 	S 	0.25036 0.20477 0.91038 0.06400
S 	S 	0.24412 0.29299 0.11034 0.08000
S 	S 	0.26399 0.72637 0.05926 0.08200
O 	O 	0.10109 0.06610 0.85161 -0.52100
O 	O 	0.40481 0.41700 0.16402 -0.53800
O 	O 	0.40761 0.58600 0.05876 -0.50300
O 	O 	0.40391 0.46300 0.28163 -0.55000
O 	O 	0.07810 0.09040 0.72526 -0.52300
O 	O 	0.08026 0.94730 0.99489 -0.55300
O 	O 	0.07064 0.09160 0.12462 -0.47700
O 	O 	0.42418 0.43140 0.93392 -0.54700
O 	O 	0.42104 0.67150 0.95394 -0.52700
O 	O 	0.08231 0.17940 0.01974 -0.49900
C 	C 	0.11630 0.11180 0.79440 0.48200
O 	O 	0.39592 0.31310 0.01591 -0.48100
C 	C 	0.37490 0.41260 0.21650 0.49700
C 	C 	0.18650 0.19270 0.81500 -0.17200
O 	O 	0.11692 0.81680 0.08770 -0.46700
C 	C 	0.38940 0.65990 0.00580 0.48000
C 	C 	0.29840 0.34640 0.20170 -0.17500
C 	C 	0.20140 0.83900 0.01240 -0.13000
C 	C 	0.19300 0.24610 0.22260 -0.01500
H 	H 	0.16280 0.21580 0.25110 0.04500
C 	C 	0.26350 0.31540 0.25510 0.02100
H 	H 	0.28390 0.33750 0.30710 0.01400
C 	C 	0.10360 0.16110 0.09210 0.45300
C 	C 	0.32280 0.74190 0.00140 -0.15500
C 	C 	0.17420 0.22860 0.14480 -0.13000
C 	C 	0.12910 0.86900 0.03250 0.41200
C 	C 	0.22630 0.88650 0.95550 -0.01700
H 	H 	0.20010 0.94820 0.92460 0.05100
C 	C 	0.38090 0.35300 0.94850 0.42500
C 	C 	0.28020 0.32910 0.80790 -0.01700
H 	H 	0.30450 0.38150 0.78440 0.04800
C 	C 	0.29550 0.83120 0.94970 0.02000
H 	H 	0.32050 0.85270 0.91440 0.02500
C 	C 	0.30890 0.30620 0.88580 -0.12700
C 	C 	0.20910 0.26410 0.76690 0.01600
H 	H 	0.18120 0.26950 0.71360 0.02800
