data_crystal

_cell_length_a 17.39740
_cell_length_b 11.64530
_cell_length_c 18.37500
_cell_angle_alpha 90.00000
_cell_angle_beta  110.31900
_cell_angle_gamma 90.00000

_symmetry_space_group_name_	'P 1'
_symmetry_space_group_name_H-M	'P 1'

loop_
_symmetry_equiv_pos_as_xyz
  x,y,z

loop_
_atom_site_label
_atom_site_type_symbol
_atom_site_fract_x
_atom_site_fract_y
_atom_site_fract_z
_atom_site_charge
Gd	Gd	0.99877 0.58356 0.59425 1.63200
Gd	Gd	0.50253 0.93123 0.39947 1.65600
S 	S 	0.75579 0.79396 0.38899 0.07900
S 	S 	0.74986 0.70412 0.58934 0.07100
S 	S 	0.73507 0.22755 0.44019 0.08200
O 	O 	0.59578 0.91940 0.33596 -0.46900
O 	O 	0.88271 0.31480 0.41234 -0.42200
C 	C 	0.88330 0.61170 0.70570 0.44400
O 	O 	0.60550 0.81180 0.48312 -0.43000
O 	O 	0.91653 0.68010 0.47910 -0.45600
C 	C 	0.79810 0.33900 0.48740 -0.11800
C 	C 	0.81300 0.69280 0.68450 -0.15000
C 	C 	0.60880 0.16330 0.49320 0.45000
C 	C 	0.80610 0.74500 0.27660 -0.01200
H 	H 	0.83630 0.71460 0.24820 0.04700
C 	C 	0.78990 0.76490 0.73250 0.00800
H 	H 	0.81730 0.77000 0.78570 0.03800
O 	O 	0.59683 0.96370 0.21825 -0.48300
O 	O 	0.57689 0.93250 0.56289 -0.48400
C 	C 	0.62020 0.85300 0.55000 0.40100
O 	O 	0.59030 0.09090 0.43950 -0.44600
O 	O 	0.91952 0.44630 0.50394 -0.49300
C 	C 	0.69100 0.80610 0.61340 -0.11700
C 	C 	0.67590 0.24450 0.49780 -0.13700
C 	C 	0.77370 0.38790 0.54260 -0.01600
H 	H 	0.79970 0.45020 0.57270 0.05200
C 	C 	0.89620 0.66160 0.40790 0.43100
O 	O 	0.57757 0.17440 0.54478 -0.47200
C 	C 	0.82540 0.72760 0.35500 -0.12100
C 	C 	0.70200 0.84610 0.29750 -0.15100
C 	C 	0.73610 0.81370 0.24380 0.01000
H 	H 	0.71530 0.83470 0.19180 0.02300
C 	C 	0.70380 0.33260 0.54900 0.01200
H 	H 	0.67940 0.35440 0.58460 0.03100
C 	C 	0.71980 0.83050 0.69140 -0.01500
H 	H 	0.69590 0.88400 0.71460 0.05100
O 	O 	0.89851 0.56530 0.64898 -0.46100
O 	O 	0.92125 0.59200 0.77493 -0.46000
O 	O 	0.92930 0.59250 0.37504 -0.43200
C 	C 	0.62580 0.91370 0.28320 0.44800
C 	C 	0.87010 0.36840 0.46660 0.38900
Gd	Gd	0.00123 0.58356 0.90575 1.62000
Gd	Gd	0.49747 0.93123 0.10053 1.65400
S 	S 	0.24421 0.79396 0.11101 0.07900
S 	S 	0.25014 0.70412 0.91066 0.06800
S 	S 	0.26493 0.22755 0.05981 0.08200
O 	O 	0.40422 0.91940 0.16404 -0.46900
O 	O 	0.11729 0.31480 0.08766 -0.42000
C 	C 	0.11670 0.61170 0.79430 0.44500
O 	O 	0.39450 0.81180 0.01688 -0.42900
O 	O 	0.08347 0.68010 0.02090 -0.45300
C 	C 	0.20190 0.33900 0.01260 -0.11500
C 	C 	0.18700 0.69280 0.81550 -0.15000
C 	C 	0.39120 0.16330 0.00680 0.45100
C 	C 	0.19390 0.74500 0.22340 -0.01300
H 	H 	0.16370 0.71460 0.25180 0.04700
C 	C 	0.21010 0.76490 0.76750 0.00800
H 	H 	0.18270 0.77000 0.71430 0.03700
O 	O 	0.40317 0.96370 0.28175 -0.48300
O 	O 	0.42311 0.93250 0.93711 -0.48400
C 	C 	0.37980 0.85300 0.95000 0.40000
O 	O 	0.40970 0.09090 0.06050 -0.44600
O 	O 	0.08048 0.44630 0.99606 -0.49600
C 	C 	0.30900 0.80610 0.88660 -0.11700
C 	C 	0.32410 0.24450 0.00220 -0.13500
C 	C 	0.22630 0.38790 0.95740 -0.02000
H 	H 	0.20030 0.45020 0.92730 0.05200
C 	C 	0.10380 0.66160 0.09210 0.43000
O 	O 	0.42243 0.17440 0.95522 -0.47400
C 	C 	0.17460 0.72760 0.14500 -0.12100
C 	C 	0.29800 0.84610 0.20250 -0.15100
C 	C 	0.26390 0.81370 0.25620 0.01000
H 	H 	0.28470 0.83470 0.30820 0.02300
C 	C 	0.29620 0.33260 0.95100 0.01000
H 	H 	0.32060 0.35440 0.91540 0.03100
C 	C 	0.28020 0.83050 0.80860 -0.01600
H 	H 	0.30410 0.88400 0.78540 0.05100
O 	O 	0.10149 0.56530 0.85102 -0.46200
O 	O 	0.07875 0.59200 0.72507 -0.46300
O 	O 	0.07070 0.59250 0.12496 -0.42900
C 	C 	0.37420 0.91370 0.21680 0.44800
C 	C 	0.12990 0.36840 0.03340 0.39200
Gd	Gd	0.00123 0.41644 0.40574 1.63100
Gd	Gd	0.49747 0.06877 0.60053 1.65500
S 	S 	0.24421 0.20604 0.61101 0.07800
S 	S 	0.25014 0.29588 0.41066 0.07000
S 	S 	0.26493 0.77245 0.55981 0.08200
O 	O 	0.40422 0.08060 0.66404 -0.46900
O 	O 	0.11729 0.68520 0.58766 -0.42200
C 	C 	0.11670 0.38830 0.29430 0.44400
O 	O 	0.39450 0.18820 0.51688 -0.43000
O 	O 	0.08347 0.31990 0.52090 -0.45600
C 	C 	0.20190 0.66100 0.51260 -0.11800
C 	C 	0.18700 0.30720 0.31550 -0.15000
C 	C 	0.39120 0.83670 0.50680 0.45000
C 	C 	0.19390 0.25500 0.72340 -0.01200
H 	H 	0.16370 0.28540 0.75180 0.04700
C 	C 	0.21010 0.23510 0.26750 0.00800
H 	H 	0.18270 0.23000 0.21430 0.03800
O 	O 	0.40317 0.03630 0.78175 -0.48300
O 	O 	0.42311 0.06750 0.43711 -0.48400
C 	C 	0.37980 0.14700 0.45000 0.40100
O 	O 	0.40970 0.90910 0.56050 -0.44600
O 	O 	0.08048 0.55370 0.49606 -0.49300
C 	C 	0.30900 0.19390 0.38660 -0.11700
C 	C 	0.32410 0.75550 0.50220 -0.13700
C 	C 	0.22630 0.61210 0.45740 -0.01600
H 	H 	0.20030 0.54980 0.42730 0.05200
C 	C 	0.10380 0.33840 0.59210 0.43100
O 	O 	0.42243 0.82560 0.45522 -0.47200
C 	C 	0.17460 0.27240 0.64500 -0.12100
C 	C 	0.29800 0.15390 0.70250 -0.15100
C 	C 	0.26390 0.18630 0.75620 0.01000
H 	H 	0.28470 0.16530 0.80820 0.02300
C 	C 	0.29620 0.66740 0.45100 0.01200
H 	H 	0.32060 0.64560 0.41540 0.03100
C 	C 	0.28020 0.16950 0.30860 -0.01500
H 	H 	0.30410 0.11600 0.28540 0.05100
O 	O 	0.10149 0.43470 0.35102 -0.46100
O 	O 	0.07875 0.40800 0.22507 -0.46000
O 	O 	0.07070 0.40750 0.62496 -0.43200
C 	C 	0.37420 0.08630 0.71680 0.44800
C 	C 	0.12990 0.63160 0.53340 0.38900
Gd	Gd	0.99877 0.41644 0.09425 1.62000
Gd	Gd	0.50253 0.06877 0.89947 1.65400
S 	S 	0.75579 0.20604 0.88899 0.07900
S 	S 	0.74986 0.29588 0.08934 0.06800
S 	S 	0.73507 0.77245 0.94019 0.08200
O 	O 	0.59578 0.08060 0.83596 -0.46900
O 	O 	0.88271 0.68520 0.91234 -0.42000
C 	C 	0.88330 0.38830 0.20570 0.44500
O 	O 	0.60550 0.18820 0.98312 -0.42900
O 	O 	0.91653 0.31990 0.97910 -0.45300
C 	C 	0.79810 0.66100 0.98740 -0.11500
C 	C 	0.81300 0.30720 0.18450 -0.15000
C 	C 	0.60880 0.83670 0.99320 0.45100
C 	C 	0.80610 0.25500 0.77660 -0.01300
H 	H 	0.83630 0.28540 0.74820 0.04700
C 	C 	0.78990 0.23510 0.23250 0.00800
H 	H 	0.81730 0.23000 0.28570 0.03700
O 	O 	0.59683 0.03630 0.71825 -0.48300
O 	O 	0.57689 0.06750 0.06289 -0.48400
C 	C 	0.62020 0.14700 0.05000 0.40000
O 	O 	0.59030 0.90910 0.93950 -0.44600
O 	O 	0.91952 0.55370 0.00394 -0.49600
C 	C 	0.69100 0.19390 0.11340 -0.11700
C 	C 	0.67590 0.75550 0.99780 -0.13500
C 	C 	0.77370 0.61210 0.04260 -0.02000
H 	H 	0.79970 0.54980 0.07270 0.05200
C 	C 	0.89620 0.33840 0.90790 0.43000
O 	O 	0.57757 0.82560 0.04478 -0.47400
C 	C 	0.82540 0.27240 0.85500 -0.12100
C 	C 	0.70200 0.15390 0.79750 -0.15100
C 	C 	0.73610 0.18630 0.74380 0.01000
H 	H 	0.71530 0.16530 0.69180 0.02300
C 	C 	0.70380 0.66740 0.04900 0.01000
H 	H 	0.67940 0.64560 0.08460 0.03100
C 	C 	0.71980 0.16950 0.19140 -0.01600
H 	H 	0.69590 0.11600 0.21460 0.05100
O 	O 	0.89851 0.43470 0.14898 -0.46200
O 	O 	0.92125 0.40800 0.27493 -0.46300
O 	O 	0.92930 0.40750 0.87504 -0.42900
C 	C 	0.62580 0.08630 0.78320 0.44800
C 	C 	0.87010 0.63160 0.96660 0.39200
