data_crystal

_cell_length_a 15.48600
_cell_length_b 9.81500
_cell_length_c 9.83650
_cell_angle_alpha 90.00000
_cell_angle_beta  105.99000
_cell_angle_gamma 90.00000

_symmetry_space_group_name_	'P 1'
_symmetry_space_group_name_H-M	'P 1'

loop_
_symmetry_equiv_pos_as_xyz
  x,y,z

loop_
_atom_site_label
_atom_site_type_symbol
_atom_site_fract_x
_atom_site_fract_y
_atom_site_fract_z
_atom_site_charge
Zn	Zn	0.55238 0.17945 0.44840 1.23900
Zn	Zn	0.94569 0.08485 0.67825 1.24600
P 	P 	0.73378 0.01800 0.59808 0.59000
H 	H 	0.33800 0.41200 0.13000 0.22000
H 	H 	0.63800 0.94500 0.68200 0.36500
P 	P 	0.48399 0.39513 0.20839 0.53300
P 	P 	0.98531 0.79078 0.56132 0.63400
H 	H 	0.85600 0.82500 0.46500 0.50000
O 	O 	0.67627 0.13880 0.53710 -0.46100
O 	O 	0.54566 0.35340 0.35270 -0.40200
O 	O 	0.82369 0.05610 0.69640 -0.40200
O 	O 	0.99415 0.90700 0.66430 -0.46400
O 	O 	0.74734 0.92500 0.47960 -0.30700
O 	O 	0.68613 0.92950 0.68850 -0.52400
O 	O 	0.48733 0.29380 0.09210 -0.43000
O 	O 	0.51586 0.53680 0.17400 -0.46900
O 	O 	0.38724 0.40210 0.22100 -0.34500
O 	O 	0.05563 0.79500 0.47850 -0.42800
O 	O 	0.99089 0.65310 0.63500 -0.39500
O 	O 	0.89213 0.79620 0.44520 -0.69600
Zn	Zn	0.44762 0.67945 0.05160 1.23700
Zn	Zn	0.05431 0.58485 0.82175 1.24700
P 	P 	0.26622 0.51800 0.90192 0.59500
H 	H 	0.66200 0.91200 0.37000 0.22000
H 	H 	0.36200 0.44500 0.81800 0.36600
P 	P 	0.51601 0.89513 0.29161 0.53100
P 	P 	0.01469 0.29078 0.93868 0.62800
H 	H 	0.14400 0.32500 0.03500 0.49900
O 	O 	0.32373 0.63880 0.96290 -0.46100
O 	O 	0.45434 0.85340 0.14730 -0.40400
O 	O 	0.17631 0.55610 0.80360 -0.40000
O 	O 	0.00585 0.40700 0.83570 -0.46800
O 	O 	0.25266 0.42500 0.02040 -0.30900
O 	O 	0.31387 0.42950 0.81150 -0.52900
O 	O 	0.51267 0.79380 0.40790 -0.43100
O 	O 	0.48414 0.03680 0.32600 -0.46700
O 	O 	0.61276 0.90210 0.27900 -0.34600
O 	O 	0.94437 0.29500 0.02150 -0.42600
O 	O 	0.00911 0.15310 0.86500 -0.39400
O 	O 	0.10787 0.29620 0.05480 -0.69100
Zn	Zn	0.44762 0.82055 0.55160 1.23800
Zn	Zn	0.05431 0.91515 0.32175 1.24500
P 	P 	0.26622 0.98200 0.40192 0.59000
H 	H 	0.66200 0.58800 0.87000 0.22000
H 	H 	0.36200 0.05500 0.31800 0.36500
P 	P 	0.51601 0.60487 0.79161 0.53300
P 	P 	0.01469 0.20922 0.43868 0.63400
H 	H 	0.14400 0.17500 0.53500 0.50000
O 	O 	0.32373 0.86120 0.46290 -0.46100
O 	O 	0.45434 0.64660 0.64730 -0.40200
O 	O 	0.17631 0.94390 0.30360 -0.40200
O 	O 	0.00585 0.09300 0.33570 -0.46400
O 	O 	0.25266 0.07500 0.52040 -0.30700
O 	O 	0.31387 0.07050 0.31150 -0.52400
O 	O 	0.51267 0.70620 0.90790 -0.43000
O 	O 	0.48414 0.46320 0.82600 -0.46900
O 	O 	0.61276 0.59790 0.77900 -0.34500
O 	O 	0.94437 0.20500 0.52150 -0.42800
O 	O 	0.00911 0.34690 0.36500 -0.39500
O 	O 	0.10787 0.20380 0.55480 -0.69600
Zn	Zn	0.55238 0.32055 0.94840 1.23700
Zn	Zn	0.94569 0.41515 0.17825 1.24700
P 	P 	0.73378 0.48200 0.09808 0.59500
H 	H 	0.33800 0.08800 0.63000 0.22000
H 	H 	0.63800 0.55500 0.18200 0.36600
P 	P 	0.48399 0.10487 0.70839 0.53100
P 	P 	0.98531 0.70922 0.06132 0.62800
H 	H 	0.85600 0.67500 0.96500 0.49900
O 	O 	0.67627 0.36120 0.03710 -0.46100
O 	O 	0.54566 0.14660 0.85270 -0.40400
O 	O 	0.82369 0.44390 0.19640 -0.40000
O 	O 	0.99415 0.59300 0.16430 -0.46800
O 	O 	0.74734 0.57500 0.97960 -0.30900
O 	O 	0.68613 0.57050 0.18850 -0.52900
O 	O 	0.48733 0.20620 0.59210 -0.43100
O 	O 	0.51586 0.96320 0.67400 -0.46700
O 	O 	0.38724 0.09790 0.72100 -0.34600
O 	O 	0.05563 0.70500 0.97850 -0.42600
O 	O 	0.99089 0.84690 0.13500 -0.39400
O 	O 	0.89213 0.70380 0.94520 -0.69100
