data_crystal

_cell_length_a 7.41960
_cell_length_b 16.72760
_cell_length_c 15.49050
_cell_angle_alpha 90.00000
_cell_angle_beta  113.20700
_cell_angle_gamma 90.00000

_symmetry_space_group_name_	'P 1'
_symmetry_space_group_name_H-M	'P 1'

loop_
_symmetry_equiv_pos_as_xyz
  x,y,z

loop_
_atom_site_label
_atom_site_type_symbol
_atom_site_fract_x
_atom_site_fract_y
_atom_site_fract_z
_atom_site_charge
Zn	Zn	0.46318 0.98302 0.18370 1.22000
Zn	Zn	0.28995 0.87559 0.97764 1.23600
C 	C 	0.06630 0.84010 0.09480 0.32300
C 	C 	0.00820 0.77760 0.14800 -0.15800
C 	C 	0.13260 0.71310 0.18420 0.07100
H 	H 	0.24280 0.70790 0.17020 0.01800
C 	C 	0.83770 0.78350 0.16520 0.02400
C 	C 	0.09760 0.65610 0.24110 -0.18700
C 	C 	0.92660 0.66140 0.25830 -0.00300
C 	C 	0.79760 0.72420 0.21820 -0.04600
H 	H 	0.68090 0.72670 0.22710 0.05400
C 	C 	0.68730 0.84830 0.12820 0.36700
C 	C 	0.86970 0.60140 0.31490 0.39500
C 	C 	0.25090 0.59280 0.28010 0.38500
O 	O 	0.19380 0.81900 0.06450 -0.51100
O 	O 	0.98510 0.90630 0.08410 -0.39900
O 	O 	0.57900 0.84670 0.04210 -0.47900
O 	O 	0.67440 0.89610 0.18710 -0.42600
O 	O 	0.99260 0.58460 0.39500 -0.52700
O 	O 	0.70050 0.57390 0.27900 -0.44200
O 	O 	0.34390 0.58500 0.36680 -0.53200
O 	O 	0.29340 0.55080 0.22390 -0.42000
O 	O 	0.29910 0.98440 0.04390 -0.72400
H 	H 	0.34010 0.03020 0.02270 0.14400
Zn	Zn	0.53682 0.48302 0.31630 1.20400
Zn	Zn	0.71005 0.37559 0.52236 1.23200
C 	C 	0.93370 0.34010 0.40520 0.41000
C 	C 	0.99180 0.27760 0.35200 0.01900
C 	C 	0.86740 0.21310 0.31580 -0.06600
H 	H 	0.75720 0.20790 0.32980 0.06800
C 	C 	0.16230 0.28350 0.33480 -0.17200
C 	C 	0.90240 0.15610 0.25890 0.01700
C 	C 	0.07340 0.16140 0.24170 -0.22500
C 	C 	0.20240 0.22420 0.28180 0.10200
H 	H 	0.31910 0.22670 0.27290 -0.00400
C 	C 	0.31270 0.34830 0.37180 0.42300
C 	C 	0.13030 0.10140 0.18510 0.46000
C 	C 	0.74910 0.09280 0.21990 0.33200
O 	O 	0.80620 0.31900 0.43550 -0.49500
O 	O 	0.01490 0.40630 0.41590 -0.51800
O 	O 	0.42100 0.34670 0.45790 -0.47900
O 	O 	0.32560 0.39610 0.31290 -0.47400
O 	O 	0.00740 0.08460 0.10500 -0.63800
O 	O 	0.29950 0.07390 0.22100 -0.48900
O 	O 	0.65610 0.08500 0.13320 -0.53200
O 	O 	0.70660 0.05080 0.27610 -0.40900
O 	O 	0.70090 0.48440 0.45610 -0.76500
H 	H 	0.65990 0.53020 0.47730 0.22300
Zn	Zn	0.53682 0.01698 0.81630 1.19200
Zn	Zn	0.71005 0.12441 0.02236 1.21000
C 	C 	0.93370 0.15990 0.90520 0.40500
C 	C 	0.99180 0.22240 0.85200 0.02600
C 	C 	0.86740 0.28690 0.81580 -0.06700
H 	H 	0.75720 0.29210 0.82980 0.07600
C 	C 	0.16230 0.21650 0.83480 -0.16500
C 	C 	0.90240 0.34390 0.75890 0.02900
C 	C 	0.07340 0.33860 0.74170 -0.21700
C 	C 	0.20240 0.27580 0.78180 0.10400
H 	H 	0.31910 0.27330 0.77290 0.00000
C 	C 	0.31270 0.15170 0.87180 0.41900
C 	C 	0.13030 0.39860 0.68510 0.45900
C 	C 	0.74910 0.40720 0.71990 0.32700
O 	O 	0.80620 0.18100 0.93550 -0.46900
O 	O 	0.01490 0.09370 0.91590 -0.50000
O 	O 	0.42100 0.15330 0.95790 -0.44500
O 	O 	0.32560 0.10390 0.81290 -0.47800
O 	O 	0.00740 0.41540 0.60500 -0.60900
O 	O 	0.29950 0.42610 0.72100 -0.46100
O 	O 	0.65610 0.41500 0.63320 -0.50300
O 	O 	0.70660 0.44920 0.77610 -0.37300
O 	O 	0.70090 0.01560 0.95610 -0.79500
H 	H 	0.65990 0.96980 0.97730 0.28400
Zn	Zn	0.46318 0.51698 0.68370 1.20500
Zn	Zn	0.28995 0.62441 0.47764 1.22000
C 	C 	0.06630 0.65990 0.59480 0.32900
C 	C 	0.00820 0.72240 0.64800 -0.15400
C 	C 	0.13260 0.78690 0.68420 0.07200
H 	H 	0.24280 0.79210 0.67020 0.02500
C 	C 	0.83770 0.71650 0.66520 0.02900
C 	C 	0.09760 0.84390 0.74110 -0.17800
C 	C 	0.92660 0.83860 0.75830 0.00600
C 	C 	0.79760 0.77580 0.71820 -0.04400
H 	H 	0.68090 0.77330 0.72710 0.05900
C 	C 	0.68730 0.65170 0.62820 0.36400
C 	C 	0.86970 0.89860 0.81490 0.39100
C 	C 	0.25090 0.90720 0.78010 0.38000
O 	O 	0.19380 0.68100 0.56450 -0.49200
O 	O 	0.98510 0.59370 0.58410 -0.40600
O 	O 	0.57900 0.65330 0.54210 -0.45400
O 	O 	0.67440 0.60390 0.68710 -0.43500
O 	O 	0.99260 0.91540 0.89500 -0.49300
O 	O 	0.70050 0.92610 0.77900 -0.41500
O 	O 	0.34390 0.91500 0.86680 -0.50800
O 	O 	0.29340 0.94920 0.72390 -0.38800
O 	O 	0.29910 0.51560 0.54390 -0.78700
H 	H 	0.34010 0.46980 0.52270 0.22400
Zn	Zn	-0.00000 0.00000 -0.00000 1.17800
Zn	Zn	0.00000 0.50000 0.50000 1.21600
