data_crystal

_cell_length_a 12.11500
_cell_length_b 25.75100
_cell_length_c 35.58800
_cell_angle_alpha 90.00000
_cell_angle_beta  90.63900
_cell_angle_gamma 90.00000

_symmetry_space_group_name_	'P 1'
_symmetry_space_group_name_H-M	'P 1'

loop_
_symmetry_equiv_pos_as_xyz
  x,y,z

loop_
_atom_site_label
_atom_site_type_symbol
_atom_site_fract_x
_atom_site_fract_y
_atom_site_fract_z
_atom_site_charge
Zn	Zn	0.78299 0.79148 0.33474 1.20900
Zn	Zn	0.77465 0.82646 0.19303 1.21200
Zn	Zn	0.10025 0.71289 0.48166 1.11000
N 	N 	0.78820 0.78607 0.39055 -0.26900
N 	N 	0.74800 0.76501 0.44843 -0.16400
N 	N 	0.79310 0.69391 0.63895 -0.26300
N 	N 	0.75950 0.71153 0.57915 -0.16200
N 	N 	0.25120 0.68589 0.49521 -0.30800
N 	N 	0.42880 0.68246 0.50441 -0.16000
N 	N 	0.62960 0.80543 0.31485 -0.26200
N 	N 	0.45300 0.80686 0.30239 -0.16000
N 	N 	0.09880 0.71553 0.42481 -0.30300
N 	N 	0.13750 0.73364 0.36641 -0.15800
N 	N 	0.93570 0.82633 0.21128 -0.25600
N 	N 	0.08670 0.81296 0.24420 -0.15700
N 	N 	0.75480 0.50250 0.29816 0.00100
N 	N 	0.74530 0.48570 0.20811 0.00200
N 	N 	0.25930 0.66440 0.22524 0.00200
N 	N 	0.26750 0.62034 0.31099 0.00700
O 	O 	0.66090 0.50689 0.30947 -0.11400
O 	O 	0.80260 0.46210 0.29668 -0.11900
O 	O 	0.71200 0.52850 0.21409 -0.11600
O 	O 	0.68340 0.45140 0.19780 -0.12100
O 	O 	0.70730 0.76614 0.21721 -0.45000
O 	O 	0.55780 0.79228 0.18652 -0.31000
O 	O 	0.29220 0.39005 0.28922 -0.45700
O 	O 	0.19360 0.43126 0.33133 -0.31700
O 	O 	0.20910 0.70330 0.21586 -0.12200
O 	O 	0.21450 0.62360 0.22630 -0.11700
O 	O 	0.32960 0.65750 0.31417 -0.11300
O 	O 	0.18490 0.61910 0.32480 -0.12200
O 	O 	0.85190 0.73250 0.30687 -0.44100
O 	O 	0.71900 0.69130 0.33605 -0.32200
O 	O 	0.14580 0.35205 0.18708 -0.46700
O 	O 	0.99850 0.35338 0.14924 -0.30500
C 	C 	0.30680 0.48134 0.29163 -0.06000
C 	C 	0.58880 0.72191 0.47564 -0.27400
H 	H 	0.55080 0.72460 0.45290 0.12900
C 	C 	0.69550 0.74046 0.47975 0.20100
C 	C 	0.75300 0.73694 0.51336 -0.26900
H 	H 	0.82460 0.74970 0.51550 0.08600
C 	C 	0.70250 0.71425 0.54365 0.20600
C 	C 	0.59560 0.69471 0.54080 -0.27400
H 	H 	0.56200 0.67900 0.56120 0.13300
C 	C 	0.54100 0.69932 0.50665 0.21700
C 	C 	0.72560 0.75668 0.41200 0.09500
H 	H 	0.67300 0.73330 0.40300 -0.01200
C 	C 	0.85300 0.81340 0.41439 -0.01500
H 	H 	0.90600 0.83750 0.40740 0.02800
C 	C 	0.82900 0.80010 0.45002 -0.00200
H 	H 	0.86260 0.81310 0.47170 -0.00300
C 	C 	0.72000 0.69100 0.61130 0.11000
H 	H 	0.65000 0.67660 0.61360 -0.01500
C 	C 	0.88190 0.71680 0.62392 -0.00200
H 	H 	0.94730 0.72350 0.63690 0.01400
C 	C 	0.86370 0.72880 0.58720 0.00900
H 	H 	0.91200 0.74530 0.57100 -0.01100
C 	C 	0.34430 0.70996 0.49018 0.10700
H 	H 	0.35120 0.74190 0.47830 -0.04500
C 	C 	0.27600 0.64050 0.51355 -0.00600
H 	H 	0.22490 0.61560 0.52070 -0.00900
C 	C 	0.38520 0.63761 0.51966 0.00200
H 	H 	0.42370 0.61100 0.53170 0.03000
C 	C 	0.27100 0.80789 0.27264 -0.27500
H 	H 	0.30050 0.82410 0.25160 0.14600
C 	C 	0.33710 0.79493 0.30337 0.24300
C 	C 	0.29530 0.77038 0.33459 -0.28300
H 	H 	0.34030 0.76250 0.35510 0.14100
C 	C 	0.18430 0.75797 0.33434 0.25600
C 	C 	0.11500 0.77081 0.30450 -0.28700
H 	H 	0.04030 0.76250 0.30500 0.14900
C 	C 	0.15880 0.79584 0.27434 0.24900
C 	C 	0.53400 0.78375 0.32170 0.12300
H 	H 	0.52400 0.75590 0.33790 -0.01300
C 	C 	0.60810 0.84370 0.28913 -0.00400
H 	H 	0.66100 0.86550 0.27890 0.03200
C 	C 	0.50150 0.84521 0.28090 0.01900
H 	H 	0.46620 0.86750 0.26410 0.04400
C 	C 	0.16380 0.74190 0.40232 0.11700
H 	H 	0.22070 0.76350 0.41050 -0.04100
C 	C 	0.02660 0.68960 0.40203 -0.00400
H 	H 	0.97030 0.66790 0.41020 -0.00500
C 	C 	0.04930 0.70000 0.36620 0.01000
H 	H 	0.01250 0.68710 0.34510 0.04500
C 	C 	0.98080 0.80036 0.23943 0.11900
H 	H 	0.94350 0.77630 0.25410 -0.01000
C 	C 	0.01740 0.85711 0.19737 0.00500
H 	H 	0.00960 0.88000 0.17730 0.03100
C 	C 	0.11150 0.84910 0.21734 0.01900
H 	H 	0.17950 0.86500 0.21360 0.04700
C 	C 	0.79850 0.69130 0.31443 0.30800
C 	C 	0.83490 0.64177 0.29636 -0.05400
C 	C 	0.78440 0.59533 0.30506 -0.06200
H 	H 	0.73030 0.59450 0.32340 0.08400
C 	C 	0.81300 0.55067 0.28698 0.07200
C 	C 	0.89390 0.54889 0.25912 0.02000
C 	C 	0.94570 0.59535 0.25140 -0.06900
H 	H 	0.00100 0.59590 0.23350 0.08000
C 	C 	0.91840 0.64072 0.26930 0.00300
H 	H 	0.95580 0.67120 0.26340 0.05600
C 	C 	0.92830 0.50140 0.23801 0.02200
C 	C 	0.03660 0.48480 0.24265 -0.07500
H 	H 	0.08330 0.50260 0.25910 0.07500
C 	C 	0.07620 0.44240 0.22325 0.00700
H 	H 	0.14880 0.43190 0.22730 0.04400
C 	C 	0.01120 0.41548 0.19821 -0.06300
C 	C 	0.90240 0.43087 0.19396 -0.05100
H 	H 	0.85570 0.41290 0.17760 0.08100
C 	C 	0.86360 0.47241 0.21370 0.06600
C 	C 	0.05330 0.36994 0.17584 0.34000
C 	C 	0.60600 0.76198 0.20743 0.32000
C 	C 	0.54590 0.71489 0.22267 -0.05000
C 	C 	0.60240 0.67546 0.24088 0.00200
H 	H 	0.67830 0.67830 0.24460 0.05300
C 	C 	0.54800 0.63200 0.25352 -0.06800
H 	H 	0.58840 0.60560 0.26510 0.08000
C 	C 	0.43450 0.62657 0.24948 0.02100
C 	C 	0.37950 0.66639 0.23107 0.07000
C 	C 	0.43330 0.71058 0.21856 -0.05500
H 	H 	0.39310 0.73730 0.20740 0.08200
C 	C 	0.38610 0.57729 0.26429 0.02500
C 	C 	0.42400 0.53020 0.25011 -0.07400
H 	H 	0.47730 0.53030 0.23150 0.08300
C 	C 	0.38400 0.48322 0.26304 0.01200
H 	H 	0.40920 0.45250 0.25250 0.05000
C 	C 	0.27190 0.52679 0.30679 -0.05200
H 	H 	0.22180 0.52630 0.32640 0.08200
C 	C 	0.31030 0.57380 0.29337 0.06900
C 	C 	0.26080 0.43082 0.30596 0.33200
Zn	Zn	0.21701 0.29148 0.16526 1.20800
Zn	Zn	0.22535 0.32646 0.30697 1.21100
Zn	Zn	0.89975 0.21289 0.01834 1.10900
N 	N 	0.21180 0.28607 0.10945 -0.27000
N 	N 	0.25200 0.26501 0.05157 -0.16500
N 	N 	0.20690 0.19391 0.86105 -0.26400
N 	N 	0.24050 0.21153 0.92085 -0.16300
N 	N 	0.74880 0.18589 0.00479 -0.30900
N 	N 	0.57120 0.18246 0.99559 -0.16100
N 	N 	0.37040 0.30543 0.18515 -0.26300
N 	N 	0.54700 0.30686 0.19761 -0.16100
N 	N 	0.90120 0.21553 0.07519 -0.30400
N 	N 	0.86250 0.23364 0.13359 -0.15900
N 	N 	0.06430 0.32633 0.28872 -0.25700
N 	N 	0.91330 0.31296 0.25580 -0.15800
N 	N 	0.24520 0.00250 0.20184 0.00000
N 	N 	0.25470 0.98570 0.29189 0.00000
N 	N 	0.74070 0.16440 0.27476 0.00100
N 	N 	0.73250 0.12034 0.18901 0.00600
O 	O 	0.33910 0.00689 0.19053 -0.11600
O 	O 	0.19740 0.96210 0.20332 -0.11900
O 	O 	0.28800 0.02850 0.28591 -0.11600
O 	O 	0.31660 0.95140 0.30220 -0.12100
O 	O 	0.29270 0.26614 0.28279 -0.45000
O 	O 	0.44220 0.29228 0.31348 -0.31000
O 	O 	0.70780 0.89005 0.21078 -0.45700
O 	O 	0.80640 0.93126 0.16867 -0.31700
O 	O 	0.79090 0.20330 0.28414 -0.12200
O 	O 	0.78550 0.12360 0.27370 -0.11700
O 	O 	0.67040 0.15750 0.18583 -0.11300
O 	O 	0.81510 0.11910 0.17520 -0.12200
O 	O 	0.14810 0.23250 0.19313 -0.44100
O 	O 	0.28100 0.19130 0.16395 -0.32200
O 	O 	0.85420 0.85205 0.31292 -0.46700
O 	O 	0.00150 0.85338 0.35076 -0.30500
C 	C 	0.69320 0.98134 0.20837 -0.06000
C 	C 	0.41120 0.22191 0.02436 -0.27400
H 	H 	0.44920 0.22460 0.04710 0.12900
C 	C 	0.30450 0.24046 0.02025 0.20100
C 	C 	0.24700 0.23694 0.98664 -0.26900
H 	H 	0.17540 0.24970 0.98450 0.08600
C 	C 	0.29750 0.21425 0.95635 0.20600
C 	C 	0.40440 0.19471 0.95920 -0.27400
H 	H 	0.43800 0.17900 0.93880 0.13300
C 	C 	0.45900 0.19932 0.99335 0.21700
C 	C 	0.27440 0.25668 0.08800 0.09500
H 	H 	0.32700 0.23330 0.09700 -0.01200
C 	C 	0.14700 0.31340 0.08561 -0.01500
H 	H 	0.09400 0.33750 0.09260 0.02800
C 	C 	0.17100 0.30010 0.04998 -0.00200
H 	H 	0.13740 0.31310 0.02830 -0.00300
C 	C 	0.28000 0.19100 0.88870 0.11000
H 	H 	0.35000 0.17660 0.88640 -0.01500
C 	C 	0.11810 0.21680 0.87608 -0.00200
H 	H 	0.05270 0.22350 0.86310 0.01400
C 	C 	0.13630 0.22880 0.91280 0.00900
H 	H 	0.08800 0.24530 0.92900 -0.01100
C 	C 	0.65570 0.20996 0.00982 0.10700
H 	H 	0.64880 0.24190 0.02170 -0.04500
C 	C 	0.72400 0.14050 0.98645 -0.00600
H 	H 	0.77510 0.11560 0.97930 -0.00900
C 	C 	0.61480 0.13761 0.98034 0.00200
H 	H 	0.57630 0.11100 0.96830 0.03000
C 	C 	0.72900 0.30789 0.22736 -0.27500
H 	H 	0.69950 0.32410 0.24840 0.14600
C 	C 	0.66290 0.29493 0.19663 0.24300
C 	C 	0.70470 0.27038 0.16541 -0.28300
H 	H 	0.65970 0.26250 0.14490 0.14100
C 	C 	0.81570 0.25797 0.16566 0.25600
C 	C 	0.88500 0.27081 0.19550 -0.28700
H 	H 	0.95970 0.26250 0.19500 0.14900
C 	C 	0.84120 0.29584 0.22566 0.24900
C 	C 	0.46600 0.28375 0.17830 0.12300
H 	H 	0.47600 0.25590 0.16210 -0.01300
C 	C 	0.39190 0.34370 0.21087 -0.00400
H 	H 	0.33900 0.36550 0.22110 0.03200
C 	C 	0.49850 0.34521 0.21910 0.01900
H 	H 	0.53380 0.36750 0.23590 0.04400
C 	C 	0.83620 0.24190 0.09768 0.11700
H 	H 	0.77930 0.26350 0.08950 -0.04100
C 	C 	0.97340 0.18960 0.09797 -0.00400
H 	H 	0.02970 0.16790 0.08980 -0.00500
C 	C 	0.95070 0.20000 0.13380 0.01000
H 	H 	0.98750 0.18710 0.15490 0.04500
C 	C 	0.01920 0.30036 0.26057 0.11900
H 	H 	0.05650 0.27630 0.24590 -0.01000
C 	C 	0.98260 0.35711 0.30263 0.00500
H 	H 	0.99040 0.38000 0.32270 0.03100
C 	C 	0.88850 0.34910 0.28266 0.01900
H 	H 	0.82050 0.36500 0.28640 0.04700
C 	C 	0.20150 0.19130 0.18557 0.30800
C 	C 	0.16510 0.14177 0.20364 -0.05400
C 	C 	0.21560 0.09533 0.19494 -0.06200
H 	H 	0.26970 0.09450 0.17660 0.08400
C 	C 	0.18700 0.05067 0.21302 0.07200
C 	C 	0.10610 0.04889 0.24088 0.02000
C 	C 	0.05430 0.09535 0.24860 -0.06900
H 	H 	0.99900 0.09590 0.26650 0.08000
C 	C 	0.08160 0.14072 0.23070 0.00300
H 	H 	0.04420 0.17120 0.23660 0.05600
C 	C 	0.07170 0.00140 0.26199 0.02200
C 	C 	0.96340 0.98480 0.25735 -0.07400
H 	H 	0.91670 0.00260 0.24090 0.07400
C 	C 	0.92380 0.94240 0.27675 0.00600
H 	H 	0.85120 0.93190 0.27270 0.04400
C 	C 	0.98880 0.91548 0.30179 -0.06200
C 	C 	0.09760 0.93087 0.30604 -0.05200
H 	H 	0.14430 0.91290 0.32240 0.08100
C 	C 	0.13640 0.97241 0.28630 0.06600
C 	C 	0.94670 0.86994 0.32416 0.34000
C 	C 	0.39400 0.26198 0.29257 0.32000
C 	C 	0.45410 0.21489 0.27733 -0.05000
C 	C 	0.39760 0.17546 0.25912 0.00200
H 	H 	0.32170 0.17830 0.25540 0.05300
C 	C 	0.45200 0.13200 0.24648 -0.06800
H 	H 	0.41160 0.10560 0.23490 0.08000
C 	C 	0.56550 0.12657 0.25052 0.02100
C 	C 	0.62050 0.16639 0.26893 0.07000
C 	C 	0.56670 0.21058 0.28144 -0.05500
H 	H 	0.60690 0.23730 0.29260 0.08200
C 	C 	0.61390 0.07729 0.23571 0.02500
C 	C 	0.57600 0.03020 0.24989 -0.07400
H 	H 	0.52270 0.03030 0.26850 0.08300
C 	C 	0.61600 0.98322 0.23696 0.01200
H 	H 	0.59080 0.95250 0.24750 0.05000
C 	C 	0.72810 0.02679 0.19321 -0.05300
H 	H 	0.77820 0.02630 0.17360 0.08200
C 	C 	0.68970 0.07380 0.20663 0.06900
C 	C 	0.73920 0.93082 0.19404 0.33200
Zn	Zn	0.21701 0.20852 0.66526 1.20800
Zn	Zn	0.22535 0.17354 0.80697 1.21100
Zn	Zn	0.89975 0.28711 0.51834 1.10900
N 	N 	0.21180 0.21393 0.60945 -0.27000
N 	N 	0.25200 0.23499 0.55157 -0.16500
N 	N 	0.20690 0.30609 0.36105 -0.26400
N 	N 	0.24050 0.28847 0.42085 -0.16300
N 	N 	0.74880 0.31411 0.50479 -0.30900
N 	N 	0.57120 0.31754 0.49559 -0.16100
N 	N 	0.37040 0.19457 0.68515 -0.26300
N 	N 	0.54700 0.19314 0.69761 -0.16100
N 	N 	0.90120 0.28447 0.57519 -0.30400
N 	N 	0.86250 0.26636 0.63359 -0.15900
N 	N 	0.06430 0.17367 0.78872 -0.25700
N 	N 	0.91330 0.18704 0.75580 -0.15800
N 	N 	0.24520 0.49750 0.70184 0.00000
N 	N 	0.25470 0.51430 0.79189 0.00100
N 	N 	0.74070 0.33560 0.77476 0.00100
N 	N 	0.73250 0.37966 0.68901 0.00600
O 	O 	0.33910 0.49311 0.69053 -0.11500
O 	O 	0.19740 0.53790 0.70332 -0.11900
O 	O 	0.28800 0.47150 0.78591 -0.11600
O 	O 	0.31660 0.54860 0.80220 -0.12100
O 	O 	0.29270 0.23386 0.78279 -0.45000
O 	O 	0.44220 0.20772 0.81348 -0.31000
O 	O 	0.70780 0.60995 0.71078 -0.45700
O 	O 	0.80640 0.56874 0.66867 -0.31700
O 	O 	0.79090 0.29670 0.78414 -0.12200
O 	O 	0.78550 0.37640 0.77370 -0.11700
O 	O 	0.67040 0.34250 0.68583 -0.11300
O 	O 	0.81510 0.38090 0.67520 -0.12200
O 	O 	0.14810 0.26750 0.69313 -0.44100
O 	O 	0.28100 0.30870 0.66395 -0.32200
O 	O 	0.85420 0.64795 0.81292 -0.46700
O 	O 	0.00150 0.64662 0.85076 -0.30500
C 	C 	0.69320 0.51866 0.70837 -0.06000
C 	C 	0.41120 0.27809 0.52436 -0.27400
H 	H 	0.44920 0.27540 0.54710 0.12900
C 	C 	0.30450 0.25954 0.52025 0.20100
C 	C 	0.24700 0.26306 0.48664 -0.26900
H 	H 	0.17540 0.25030 0.48450 0.08600
C 	C 	0.29750 0.28575 0.45635 0.20600
C 	C 	0.40440 0.30529 0.45920 -0.27400
H 	H 	0.43800 0.32100 0.43880 0.13300
C 	C 	0.45900 0.30068 0.49335 0.21700
C 	C 	0.27440 0.24332 0.58800 0.09500
H 	H 	0.32700 0.26670 0.59700 -0.01200
C 	C 	0.14700 0.18660 0.58561 -0.01500
H 	H 	0.09400 0.16250 0.59260 0.02800
C 	C 	0.17100 0.19990 0.54998 -0.00200
H 	H 	0.13740 0.18690 0.52830 -0.00300
C 	C 	0.28000 0.30900 0.38870 0.11000
H 	H 	0.35000 0.32340 0.38640 -0.01500
C 	C 	0.11810 0.28320 0.37608 -0.00200
H 	H 	0.05270 0.27650 0.36310 0.01400
C 	C 	0.13630 0.27120 0.41280 0.00900
H 	H 	0.08800 0.25470 0.42900 -0.01100
C 	C 	0.65570 0.29004 0.50982 0.10700
H 	H 	0.64880 0.25810 0.52170 -0.04500
C 	C 	0.72400 0.35950 0.48645 -0.00600
H 	H 	0.77510 0.38440 0.47930 -0.00900
C 	C 	0.61480 0.36239 0.48034 0.00200
H 	H 	0.57630 0.38900 0.46830 0.03000
C 	C 	0.72900 0.19211 0.72736 -0.27500
H 	H 	0.69950 0.17590 0.74840 0.14600
C 	C 	0.66290 0.20507 0.69663 0.24300
C 	C 	0.70470 0.22962 0.66541 -0.28300
H 	H 	0.65970 0.23750 0.64490 0.14100
C 	C 	0.81570 0.24203 0.66566 0.25600
C 	C 	0.88500 0.22919 0.69550 -0.28700
H 	H 	0.95970 0.23750 0.69500 0.14900
C 	C 	0.84120 0.20416 0.72566 0.24900
C 	C 	0.46600 0.21625 0.67830 0.12300
H 	H 	0.47600 0.24410 0.66210 -0.01300
C 	C 	0.39190 0.15630 0.71087 -0.00400
H 	H 	0.33900 0.13450 0.72110 0.03200
C 	C 	0.49850 0.15479 0.71910 0.01900
H 	H 	0.53380 0.13250 0.73590 0.04400
C 	C 	0.83620 0.25810 0.59768 0.11700
H 	H 	0.77930 0.23650 0.58950 -0.04100
C 	C 	0.97340 0.31040 0.59797 -0.00400
H 	H 	0.02970 0.33210 0.58980 -0.00500
C 	C 	0.95070 0.30000 0.63380 0.01000
H 	H 	0.98750 0.31290 0.65490 0.04500
C 	C 	0.01920 0.19964 0.76057 0.11900
H 	H 	0.05650 0.22370 0.74590 -0.01000
C 	C 	0.98260 0.14289 0.80263 0.00500
H 	H 	0.99040 0.12000 0.82270 0.03100
C 	C 	0.88850 0.15090 0.78266 0.01900
H 	H 	0.82050 0.13500 0.78640 0.04700
C 	C 	0.20150 0.30870 0.68557 0.30800
C 	C 	0.16510 0.35823 0.70364 -0.05400
C 	C 	0.21560 0.40467 0.69494 -0.06200
H 	H 	0.26970 0.40550 0.67660 0.08400
C 	C 	0.18700 0.44933 0.71302 0.07200
C 	C 	0.10610 0.45111 0.74088 0.02000
C 	C 	0.05430 0.40465 0.74860 -0.06900
H 	H 	0.99900 0.40410 0.76650 0.08000
C 	C 	0.08160 0.35928 0.73070 0.00300
H 	H 	0.04420 0.32880 0.73660 0.05600
C 	C 	0.07170 0.49860 0.76199 0.02200
C 	C 	0.96340 0.51520 0.75735 -0.07500
H 	H 	0.91670 0.49740 0.74090 0.07500
C 	C 	0.92380 0.55760 0.77675 0.00700
H 	H 	0.85120 0.56810 0.77270 0.04400
C 	C 	0.98880 0.58452 0.80179 -0.06300
C 	C 	0.09760 0.56913 0.80604 -0.05100
H 	H 	0.14430 0.58710 0.82240 0.08100
C 	C 	0.13640 0.52759 0.78630 0.06600
C 	C 	0.94670 0.63006 0.82416 0.34000
C 	C 	0.39400 0.23802 0.79257 0.32000
C 	C 	0.45410 0.28511 0.77733 -0.05000
C 	C 	0.39760 0.32454 0.75912 0.00200
H 	H 	0.32170 0.32170 0.75540 0.05300
C 	C 	0.45200 0.36800 0.74648 -0.06800
H 	H 	0.41160 0.39440 0.73490 0.08000
C 	C 	0.56550 0.37343 0.75052 0.02100
C 	C 	0.62050 0.33361 0.76893 0.07000
C 	C 	0.56670 0.28942 0.78144 -0.05500
H 	H 	0.60690 0.26270 0.79260 0.08200
C 	C 	0.61390 0.42271 0.73571 0.02500
C 	C 	0.57600 0.46980 0.74989 -0.07400
H 	H 	0.52270 0.46970 0.76850 0.08300
C 	C 	0.61600 0.51678 0.73696 0.01200
H 	H 	0.59080 0.54750 0.74750 0.05000
C 	C 	0.72810 0.47321 0.69321 -0.05200
H 	H 	0.77820 0.47370 0.67360 0.08200
C 	C 	0.68970 0.42620 0.70663 0.06900
C 	C 	0.73920 0.56918 0.69404 0.33200
Zn	Zn	0.78299 0.70852 0.83474 1.20800
Zn	Zn	0.77465 0.67354 0.69303 1.21100
Zn	Zn	0.10025 0.78711 0.98166 1.10900
N 	N 	0.78820 0.71393 0.89055 -0.27000
N 	N 	0.74800 0.73499 0.94843 -0.16500
N 	N 	0.79310 0.80609 0.13895 -0.26400
N 	N 	0.75950 0.78847 0.07915 -0.16300
N 	N 	0.25120 0.81411 0.99521 -0.30900
N 	N 	0.42880 0.81754 0.00441 -0.16100
N 	N 	0.62960 0.69457 0.81485 -0.26300
N 	N 	0.45300 0.69314 0.80239 -0.16100
N 	N 	0.09880 0.78447 0.92481 -0.30400
N 	N 	0.13750 0.76636 0.86641 -0.15900
N 	N 	0.93570 0.67367 0.71128 -0.25700
N 	N 	0.08670 0.68704 0.74420 -0.15800
N 	N 	0.75480 0.99750 0.79816 0.00000
N 	N 	0.74530 0.01430 0.70811 0.00000
N 	N 	0.25930 0.83560 0.72524 0.00100
N 	N 	0.26750 0.87966 0.81099 0.00600
O 	O 	0.66090 0.99311 0.80947 -0.11600
O 	O 	0.80260 0.03790 0.79668 -0.11900
O 	O 	0.71200 0.97150 0.71409 -0.11600
O 	O 	0.68340 0.04860 0.69780 -0.12100
O 	O 	0.70730 0.73386 0.71721 -0.45000
O 	O 	0.55780 0.70772 0.68652 -0.31000
O 	O 	0.29220 0.10995 0.78922 -0.45700
O 	O 	0.19360 0.06874 0.83133 -0.31700
O 	O 	0.20910 0.79670 0.71586 -0.12200
O 	O 	0.21450 0.87640 0.72630 -0.11700
O 	O 	0.32960 0.84250 0.81417 -0.11300
O 	O 	0.18490 0.88090 0.82480 -0.12200
O 	O 	0.85190 0.76750 0.80687 -0.44100
O 	O 	0.71900 0.80870 0.83605 -0.32200
O 	O 	0.14580 0.14795 0.68708 -0.46700
O 	O 	0.99850 0.14662 0.64924 -0.30500
C 	C 	0.30680 0.01866 0.79163 -0.06000
C 	C 	0.58880 0.77809 0.97564 -0.27400
H 	H 	0.55080 0.77540 0.95290 0.12900
C 	C 	0.69550 0.75954 0.97975 0.20100
C 	C 	0.75300 0.76306 0.01336 -0.26900
H 	H 	0.82460 0.75030 0.01550 0.08600
C 	C 	0.70250 0.78575 0.04365 0.20600
C 	C 	0.59560 0.80529 0.04080 -0.27400
H 	H 	0.56200 0.82100 0.06120 0.13300
C 	C 	0.54100 0.80068 0.00665 0.21700
C 	C 	0.72560 0.74332 0.91200 0.09500
H 	H 	0.67300 0.76670 0.90300 -0.01200
C 	C 	0.85300 0.68660 0.91439 -0.01500
H 	H 	0.90600 0.66250 0.90740 0.02800
C 	C 	0.82900 0.69990 0.95002 -0.00200
H 	H 	0.86260 0.68690 0.97170 -0.00300
C 	C 	0.72000 0.80900 0.11130 0.11000
H 	H 	0.65000 0.82340 0.11360 -0.01500
C 	C 	0.88190 0.78320 0.12392 -0.00200
H 	H 	0.94730 0.77650 0.13690 0.01400
C 	C 	0.86370 0.77120 0.08720 0.00900
H 	H 	0.91200 0.75470 0.07100 -0.01100
C 	C 	0.34430 0.79004 0.99018 0.10700
H 	H 	0.35120 0.75810 0.97830 -0.04500
C 	C 	0.27600 0.85950 0.01355 -0.00600
H 	H 	0.22490 0.88440 0.02070 -0.00900
C 	C 	0.38520 0.86239 0.01966 0.00200
H 	H 	0.42370 0.88900 0.03170 0.03000
C 	C 	0.27100 0.69211 0.77264 -0.27500
H 	H 	0.30050 0.67590 0.75160 0.14600
C 	C 	0.33710 0.70507 0.80337 0.24300
C 	C 	0.29530 0.72962 0.83459 -0.28300
H 	H 	0.34030 0.73750 0.85510 0.14100
C 	C 	0.18430 0.74203 0.83434 0.25600
C 	C 	0.11500 0.72919 0.80450 -0.28700
H 	H 	0.04030 0.73750 0.80500 0.14900
C 	C 	0.15880 0.70416 0.77434 0.24900
C 	C 	0.53400 0.71625 0.82170 0.12300
H 	H 	0.52400 0.74410 0.83790 -0.01300
C 	C 	0.60810 0.65630 0.78913 -0.00400
H 	H 	0.66100 0.63450 0.77890 0.03200
C 	C 	0.50150 0.65479 0.78090 0.01900
H 	H 	0.46620 0.63250 0.76410 0.04400
C 	C 	0.16380 0.75810 0.90232 0.11700
H 	H 	0.22070 0.73650 0.91050 -0.04100
C 	C 	0.02660 0.81040 0.90203 -0.00400
H 	H 	0.97030 0.83210 0.91020 -0.00500
C 	C 	0.04930 0.80000 0.86620 0.01000
H 	H 	0.01250 0.81290 0.84510 0.04500
C 	C 	0.98080 0.69964 0.73943 0.11900
H 	H 	0.94350 0.72370 0.75410 -0.01000
C 	C 	0.01740 0.64289 0.69737 0.00500
H 	H 	0.00960 0.62000 0.67730 0.03100
C 	C 	0.11150 0.65090 0.71734 0.01900
H 	H 	0.17950 0.63500 0.71360 0.04700
C 	C 	0.79850 0.80870 0.81443 0.30800
C 	C 	0.83490 0.85823 0.79636 -0.05400
C 	C 	0.78440 0.90467 0.80506 -0.06200
H 	H 	0.73030 0.90550 0.82340 0.08400
C 	C 	0.81300 0.94933 0.78698 0.07200
C 	C 	0.89390 0.95111 0.75912 0.02000
C 	C 	0.94570 0.90465 0.75140 -0.06900
H 	H 	0.00100 0.90410 0.73350 0.08000
C 	C 	0.91840 0.85928 0.76930 0.00300
H 	H 	0.95580 0.82880 0.76340 0.05600
C 	C 	0.92830 0.99860 0.73801 0.02200
C 	C 	0.03660 0.01520 0.74265 -0.07400
H 	H 	0.08330 0.99740 0.75910 0.07400
C 	C 	0.07620 0.05760 0.72325 0.00600
H 	H 	0.14880 0.06810 0.72730 0.04400
C 	C 	0.01120 0.08452 0.69821 -0.06200
C 	C 	0.90240 0.06913 0.69396 -0.05200
H 	H 	0.85570 0.08710 0.67760 0.08100
C 	C 	0.86360 0.02759 0.71370 0.06600
C 	C 	0.05330 0.13006 0.67584 0.34000
C 	C 	0.60600 0.73802 0.70743 0.32000
C 	C 	0.54590 0.78511 0.72267 -0.05000
C 	C 	0.60240 0.82454 0.74088 0.00200
H 	H 	0.67830 0.82170 0.74460 0.05300
C 	C 	0.54800 0.86800 0.75352 -0.06800
H 	H 	0.58840 0.89440 0.76510 0.08000
C 	C 	0.43450 0.87343 0.74948 0.02100
C 	C 	0.37950 0.83361 0.73107 0.07000
C 	C 	0.43330 0.78942 0.71856 -0.05500
H 	H 	0.39310 0.76270 0.70740 0.08200
C 	C 	0.38610 0.92271 0.76429 0.02500
C 	C 	0.42400 0.96980 0.75011 -0.07400
H 	H 	0.47730 0.96970 0.73150 0.08300
C 	C 	0.38400 0.01678 0.76304 0.01200
H 	H 	0.40920 0.04750 0.75250 0.05000
C 	C 	0.27190 0.97321 0.80679 -0.05300
H 	H 	0.22180 0.97370 0.82640 0.08200
C 	C 	0.31030 0.92620 0.79337 0.06900
C 	C 	0.26080 0.06918 0.80596 0.33200
