data_crystal

_cell_length_a 8.82160
_cell_length_b 8.82160
_cell_length_c 10.07550
_cell_angle_alpha 102.67000
_cell_angle_beta  102.67000
_cell_angle_gamma 119.93200

_symmetry_space_group_name_	'P 1'
_symmetry_space_group_name_H-M	'P 1'

loop_
_symmetry_equiv_pos_as_xyz
  x,y,z

loop_
_atom_site_label
_atom_site_type_symbol
_atom_site_fract_x
_atom_site_fract_y
_atom_site_fract_z
_atom_site_charge
Cd	Cd	0.47211 0.97211 0.94422 1.10100
Cd	Cd	0.72211 0.72211 0.44422 1.19900
Cd	Cd	0.24081 0.24081 0.48162 1.19000
Cd	Cd	0.99081 0.49081 0.98162 1.07500
C 	C 	0.62800 0.88760 0.70620 -0.10700
C 	C 	0.49840 0.68720 0.68960 0.32100
C 	C 	0.07820 0.81860 0.70620 -0.07200
C 	C 	0.19120 0.00240 0.68960 0.37600
C 	C 	0.63760 0.87800 0.20620 0.01100
C 	C 	0.43720 0.74840 0.18960 0.29100
C 	C 	0.56860 0.32820 0.20620 0.02700
C 	C 	0.75240 0.44120 0.18960 0.30200
N 	N 	0.65420 0.03340 0.80500 -0.17200
N 	N 	0.77490 0.18550 0.78260 -0.19500
N 	N 	0.81710 0.12970 0.67280 -0.06700
N 	N 	0.72520 0.94060 0.62160 -0.21000
N 	N 	0.15080 0.77160 0.80500 -0.22900
N 	N 	0.00770 0.59710 0.78260 -0.17500
N 	N 	0.85570 0.54310 0.67280 -0.10700
N 	N 	0.89640 0.68100 0.62160 -0.19700
N 	N 	0.78340 0.90420 0.30500 -0.22300
N 	N 	0.93550 0.02490 0.28260 -0.12600
N 	N 	0.87970 0.06710 0.17280 -0.01800
N 	N 	0.69060 0.97520 0.12160 -0.16100
N 	N 	0.52160 0.40080 0.30500 -0.18500
N 	N 	0.34710 0.25770 0.28260 -0.14200
N 	N 	0.29310 0.10570 0.17280 -0.02300
N 	N 	0.43100 0.14640 0.12160 -0.10600
O 	O 	0.42430 0.66310 0.78060 -0.47200
O 	O 	0.47840 0.56260 0.58280 -0.50200
O 	O 	0.35630 0.11750 0.78060 -0.45800
O 	O 	0.10440 0.02020 0.58280 -0.46800
O 	O 	0.41310 0.67430 0.28060 -0.36400
O 	O 	0.31260 0.72840 0.08280 -0.36500
O 	O 	0.86750 0.60630 0.28060 -0.38900
O 	O 	0.77020 0.35440 0.08280 -0.36000
