data_crystal

_cell_length_a 8.40150
_cell_length_b 9.49040
_cell_length_c 28.28000
_cell_angle_alpha 90.00000
_cell_angle_beta  97.51400
_cell_angle_gamma 90.00000

_symmetry_space_group_name_	'P 1'
_symmetry_space_group_name_H-M	'P 1'

loop_
_symmetry_equiv_pos_as_xyz
  x,y,z

loop_
_atom_site_label
_atom_site_type_symbol
_atom_site_fract_x
_atom_site_fract_y
_atom_site_fract_z
_atom_site_charge
Eu	Eu	0.85489 0.17847 0.80449 1.86200
Eu	Eu	0.54372 0.26111 0.92591 1.82600
Eu	Eu	0.14511 0.67847 0.69551 1.87500
Eu	Eu	0.45628 0.76111 0.57409 1.83000
Eu	Eu	0.14511 0.82153 0.19551 1.86300
Eu	Eu	0.45628 0.73889 0.07409 1.82700
Eu	Eu	0.85489 0.32153 0.30449 1.87500
Eu	Eu	0.54372 0.23889 0.42591 1.83000
H 	H 	0.61030 0.72350 0.88940 0.02800
H 	H 	0.95450 0.61350 0.80930 0.01700
H 	H 	0.38970 0.22350 0.61060 0.02700
H 	H 	0.04550 0.11350 0.69070 0.01700
H 	H 	0.38970 0.27650 0.11060 0.02800
H 	H 	0.04550 0.38650 0.19070 0.01700
H 	H 	0.61030 0.77650 0.38940 0.02700
H 	H 	0.95450 0.88650 0.30930 0.01700
C 	C 	0.71590 0.88530 0.85860 -0.06300
C 	C 	0.68720 0.74620 0.86980 0.03900
C 	C 	0.77650 0.64070 0.85090 -0.15700
C 	C 	0.89250 0.68100 0.82230 0.06500
C 	C 	0.91340 0.82210 0.81370 -0.09100
C 	C 	0.63460 0.01100 0.87740 0.33500
C 	C 	0.75100 0.48550 0.86070 0.48100
C 	C 	0.03990 0.87900 0.78525 0.43400
C 	C 	0.22810 0.26700 0.84440 0.27000
C 	C 	0.16680 0.18360 0.88610 0.28000
C 	C 	0.41150 0.50870 0.98930 0.25200
C 	C 	0.28410 0.38530 0.64140 -0.07000
C 	C 	0.31280 0.24620 0.63020 0.04200
C 	C 	0.22350 0.14070 0.64910 -0.15700
C 	C 	0.10750 0.18100 0.67770 0.06800
C 	C 	0.08660 0.32210 0.68630 -0.09800
C 	C 	0.36540 0.51100 0.62260 0.34600
C 	C 	0.24900 0.98550 0.63930 0.47900
C 	C 	0.96010 0.37900 0.71475 0.44600
C 	C 	0.77190 0.76700 0.65560 0.27000
C 	C 	0.83320 0.68360 0.61390 0.28100
C 	C 	0.58850 0.00870 0.51070 0.25000
C 	C 	0.28410 0.11470 0.14140 -0.06300
C 	C 	0.31280 0.25380 0.13020 0.03900
C 	C 	0.22350 0.35930 0.14910 -0.15700
C 	C 	0.10750 0.31900 0.17770 0.06500
C 	C 	0.08660 0.17790 0.18630 -0.09100
C 	C 	0.36540 0.98900 0.12260 0.33500
C 	C 	0.24900 0.51450 0.13930 0.48100
C 	C 	0.96010 0.12100 0.21475 0.43400
C 	C 	0.77190 0.73300 0.15560 0.27000
C 	C 	0.83320 0.81640 0.11390 0.28000
C 	C 	0.58850 0.49130 0.01070 0.25200
C 	C 	0.71590 0.61470 0.35860 -0.07000
C 	C 	0.68720 0.75380 0.36980 0.04200
C 	C 	0.77650 0.85930 0.35090 -0.15700
C 	C 	0.89250 0.81900 0.32230 0.06800
C 	C 	0.91340 0.67790 0.31370 -0.09800
C 	C 	0.63460 0.48900 0.37740 0.34600
C 	C 	0.75100 0.01450 0.36070 0.47900
C 	C 	0.03990 0.62100 0.28525 0.44600
C 	C 	0.22810 0.23300 0.34440 0.27000
C 	C 	0.16680 0.31640 0.38610 0.28100
C 	C 	0.41150 0.99130 0.48930 0.25000
N 	N 	0.82480 0.92260 0.83047 -0.17800
N 	N 	0.17520 0.42260 0.66953 -0.17900
N 	N 	0.17520 0.07740 0.16953 -0.17800
N 	N 	0.82480 0.57740 0.33047 -0.17900
O 	O 	0.66770 0.13060 0.86136 -0.58400
O 	O 	0.54640 0.99750 0.90936 -0.42600
O 	O 	0.64950 0.45680 0.88772 -0.49300
O 	O 	0.83560 0.40090 0.84211 -0.51300
O 	O 	0.12440 0.79060 0.76751 -0.51800
O 	O 	0.05240 0.00900 0.78279 -0.46300
O 	O 	0.37300 0.30230 0.85104 -0.40800
O 	O 	0.12960 0.28990 0.80890 -0.37900
O 	O 	0.26850 0.16090 0.92188 -0.39800
O 	O 	0.02420 0.14580 0.88083 -0.40600
O 	O 	0.36810 0.43750 0.95192 -0.39900
O 	O 	0.32570 0.58800 0.00971 -0.41600
O 	O 	0.33230 0.63060 0.63864 -0.58600
O 	O 	0.45360 0.49750 0.59064 -0.43200
O 	O 	0.35050 0.95680 0.61228 -0.49300
O 	O 	0.16440 0.90090 0.65789 -0.51500
O 	O 	0.87560 0.29060 0.73249 -0.52100
O 	O 	0.94760 0.50900 0.71721 -0.47200
O 	O 	0.62700 0.80230 0.64896 -0.40800
O 	O 	0.87040 0.78990 0.69110 -0.37800
O 	O 	0.73150 0.66090 0.57812 -0.39800
O 	O 	0.97580 0.64580 0.61917 -0.40900
O 	O 	0.63190 0.93750 0.54808 -0.39600
O 	O 	0.67430 0.08800 0.49029 -0.41700
O 	O 	0.33230 0.86940 0.13864 -0.58400
O 	O 	0.45360 0.00250 0.09064 -0.42600
O 	O 	0.35050 0.54320 0.11228 -0.49300
O 	O 	0.16440 0.59910 0.15789 -0.51300
O 	O 	0.87560 0.20940 0.23249 -0.51800
O 	O 	0.94760 0.99100 0.21721 -0.46300
O 	O 	0.62700 0.69770 0.14896 -0.40800
O 	O 	0.87040 0.71010 0.19110 -0.37900
O 	O 	0.73150 0.83910 0.07812 -0.39800
O 	O 	0.97580 0.85420 0.11917 -0.40600
O 	O 	0.63190 0.56250 0.04808 -0.39900
O 	O 	0.67430 0.41200 0.99029 -0.41600
O 	O 	0.66770 0.36940 0.36136 -0.58600
O 	O 	0.54640 0.50250 0.40936 -0.43200
O 	O 	0.64950 0.04320 0.38772 -0.49300
O 	O 	0.83560 0.09910 0.34211 -0.51500
O 	O 	0.12440 0.70940 0.26751 -0.52100
O 	O 	0.05240 0.49100 0.28279 -0.47200
O 	O 	0.37300 0.19770 0.35104 -0.40800
O 	O 	0.12960 0.21010 0.30890 -0.37800
O 	O 	0.26850 0.33910 0.42188 -0.39800
O 	O 	0.02420 0.35420 0.38083 -0.40900
O 	O 	0.36810 0.06250 0.45192 -0.39600
O 	O 	0.32570 0.91200 0.50971 -0.41700
