data_crystal

_cell_length_a 9.36690
_cell_length_b 14.15430
_cell_length_c 21.78970
_cell_angle_alpha 95.07500
_cell_angle_beta  94.31500
_cell_angle_gamma 104.72300

_symmetry_space_group_name_	'P 1'
_symmetry_space_group_name_H-M	'P 1'

loop_
_symmetry_equiv_pos_as_xyz
  x,y,z

loop_
_atom_site_label
_atom_site_type_symbol
_atom_site_fract_x
_atom_site_fract_y
_atom_site_fract_z
_atom_site_charge
Eu	Eu	0.43186 0.71214 0.90318 1.98000
Eu	Eu	0.84927 0.06885 0.77928 1.90800
Eu	Eu	0.23857 0.82914 0.61812 2.01800
Eu	Eu	0.78852 0.38725 0.56013 1.92300
Eu	Eu	0.07689 0.30851 0.93708 1.86400
Eu	Eu	0.56814 0.28786 0.09682 1.98100
Eu	Eu	0.15073 0.93115 0.22072 1.90900
Eu	Eu	0.76143 0.17086 0.38188 2.01900
Eu	Eu	0.21148 0.61275 0.43987 1.92400
Eu	Eu	0.92311 0.69149 0.06292 1.86400
H 	H 	0.53240 0.10990 0.92210 0.00900
H 	H 	0.14760 0.98110 0.98470 0.00900
H 	H 	0.45090 0.66030 0.65480 0.01400
H 	H 	0.67850 0.49930 0.74480 0.04400
H 	H 	0.50490 0.29970 0.86730 0.02200
H 	H 	0.28650 0.09220 0.72990 0.02900
H 	H 	0.68780 0.88010 0.62430 0.02500
H 	H 	0.70570 0.68470 0.48060 0.03100
H 	H 	0.99160 0.32790 0.78650 -0.01200
H 	H 	0.13870 0.61050 0.75400 0.00900
H 	H 	0.46760 0.89010 0.07790 0.00900
H 	H 	0.85240 0.01890 0.01530 0.00900
H 	H 	0.54910 0.33970 0.34520 0.01400
H 	H 	0.32150 0.50070 0.25520 0.04400
H 	H 	0.49510 0.70030 0.13270 0.02200
H 	H 	0.71350 0.90780 0.27010 0.02900
H 	H 	0.31220 0.11990 0.37570 0.02500
H 	H 	0.29430 0.31530 0.51940 0.03100
H 	H 	0.00840 0.67210 0.21350 -0.01200
H 	H 	0.86130 0.38950 0.24600 0.00900
C 	C 	0.48160 0.96070 0.91480 -0.07600
C 	C 	0.46140 0.05410 0.92950 0.06900
C 	C 	0.33500 0.06240 0.95510 -0.18500
C 	C 	0.23450 0.97790 0.96750 0.07200
C 	C 	0.26580 0.88890 0.95390 -0.09200
C 	C 	0.61280 0.94260 0.88230 0.42300
C 	C 	0.31180 0.16300 0.97200 0.48500
C 	C 	0.16530 0.79280 0.96680 0.42300
C 	C 	0.46760 0.68270 0.74880 -0.08300
C 	C 	0.48760 0.64070 0.69100 0.04200
C 	C 	0.56480 0.56800 0.68910 -0.11500
C 	C 	0.62360 0.54560 0.74460 0.02200
C 	C 	0.60000 0.59250 0.79960 -0.04800
C 	C 	0.37610 0.75720 0.75670 0.45100
C 	C 	0.58310 0.51730 0.62710 0.39000
C 	C 	0.65790 0.57250 0.86320 0.34100
C 	C 	0.62900 0.21570 0.82820 -0.05000
C 	C 	0.50140 0.24780 0.83740 0.04400
C 	C 	0.36920 0.20060 0.80100 -0.15300
C 	C 	0.37190 0.12490 0.75550 0.05300
C 	C 	0.50450 0.09920 0.74910 -0.07900
C 	C 	0.77520 0.25210 0.86910 0.35300
C 	C 	0.22200 0.21990 0.81300 0.47000
C 	C 	0.51740 0.01370 0.70450 0.44300
C 	C 	0.89160 0.86100 0.61280 -0.09600
C 	C 	0.74060 0.84640 0.60010 0.05700
C 	C 	0.67040 0.77960 0.54970 -0.15800
C 	C 	0.75150 0.72970 0.51450 0.04600
C 	C 	0.90190 0.74900 0.53120 -0.06000
C 	C 	0.98220 0.92920 0.66700 0.41600
C 	C 	0.50390 0.75730 0.53480 0.49300
C 	C 	0.00400 0.70130 0.49820 0.34200
C 	C 	0.93070 0.35650 0.70070 -0.10100
C 	C 	0.99760 0.37730 0.76060 0.10700
C 	C 	0.07450 0.47430 0.78150 -0.19300
C 	C 	0.08580 0.54570 0.74150 0.09100
C 	C 	0.01550 0.51730 0.68190 -0.09400
C 	C 	0.84270 0.25490 0.67300 0.43000
C 	C 	0.14600 0.49900 0.84770 0.54100
C 	C 	0.02060 0.58810 0.63250 0.43500
C 	C 	0.51840 0.03930 0.08520 -0.07600
C 	C 	0.53860 0.94590 0.07050 0.06900
C 	C 	0.66500 0.93760 0.04490 -0.18500
C 	C 	0.76550 0.02210 0.03250 0.07200
C 	C 	0.73420 0.11110 0.04610 -0.09200
C 	C 	0.38720 0.05740 0.11770 0.42300
C 	C 	0.68820 0.83700 0.02800 0.48500
C 	C 	0.83470 0.20720 0.03320 0.42300
C 	C 	0.53240 0.31730 0.25120 -0.08300
C 	C 	0.51240 0.35930 0.30900 0.04200
C 	C 	0.43520 0.43200 0.31090 -0.11500
C 	C 	0.37640 0.45440 0.25540 0.02200
C 	C 	0.40000 0.40750 0.20040 -0.04800
C 	C 	0.62390 0.24280 0.24330 0.45100
C 	C 	0.41690 0.48270 0.37290 0.39000
C 	C 	0.34210 0.42750 0.13680 0.34100
C 	C 	0.37100 0.78430 0.17180 -0.05000
C 	C 	0.49860 0.75220 0.16260 0.04400
C 	C 	0.63080 0.79940 0.19900 -0.15300
C 	C 	0.62810 0.87510 0.24450 0.05300
C 	C 	0.49550 0.90080 0.25090 -0.07900
C 	C 	0.22480 0.74790 0.13090 0.35300
C 	C 	0.77800 0.78010 0.18700 0.47000
C 	C 	0.48260 0.98630 0.29550 0.44300
C 	C 	0.10840 0.13900 0.38720 -0.09600
C 	C 	0.25940 0.15360 0.39990 0.05700
C 	C 	0.32960 0.22040 0.45030 -0.15800
C 	C 	0.24850 0.27030 0.48550 0.04600
C 	C 	0.09810 0.25100 0.46880 -0.06000
C 	C 	0.01780 0.07080 0.33300 0.41600
C 	C 	0.49610 0.24270 0.46520 0.49300
C 	C 	0.99600 0.29870 0.50180 0.34200
C 	C 	0.06930 0.64350 0.29930 -0.10100
C 	C 	0.00240 0.62270 0.23940 0.10700
C 	C 	0.92550 0.52570 0.21850 -0.19300
C 	C 	0.91420 0.45430 0.25850 0.09100
C 	C 	0.98450 0.48270 0.31810 -0.09400
C 	C 	0.15730 0.74510 0.32700 0.43000
C 	C 	0.85400 0.50100 0.15230 0.54100
C 	C 	0.97940 0.41190 0.36750 0.43500
N 	N 	0.38580 0.87980 0.92780 -0.16900
N 	N 	0.51960 0.65880 0.80200 -0.17600
N 	N 	0.62820 0.14220 0.78570 -0.16300
N 	N 	0.97100 0.81320 0.58030 -0.19200
N 	N 	0.93880 0.42550 0.66190 -0.16900
N 	N 	0.61420 0.12020 0.07220 -0.16900
N 	N 	0.48040 0.34120 0.19800 -0.17600
N 	N 	0.37180 0.85780 0.21430 -0.16300
N 	N 	0.02900 0.18680 0.41970 -0.19200
N 	N 	0.06120 0.57450 0.33810 -0.16900
O 	O 	0.62520 0.85590 0.87860 -0.46900
O 	O 	0.69410 0.01420 0.86190 -0.48700
O 	O 	0.41920 0.22620 0.00070 -0.53500
O 	O 	0.18720 0.17490 0.95650 -0.50200
O 	O 	0.06430 0.79600 0.99990 -0.50500
O 	O 	0.19500 0.71620 0.94310 -0.48500
O 	O 	0.33510 0.76970 0.81000 -0.45400
O 	O 	0.34640 0.79800 0.71200 -0.49300
O 	O 	0.53180 0.54190 0.57970 -0.32300
O 	O 	0.65010 0.44980 0.62980 -0.47300
O 	O 	0.74760 0.52350 0.86770 -0.29000
O 	O 	0.60760 0.61390 0.90820 -0.48500
O 	O 	0.87940 0.21360 0.85530 -0.57000
O 	O 	0.79100 0.31470 0.91530 -0.38300
O 	O 	0.22270 0.28510 0.85530 -0.50800
O 	O 	0.10970 0.16900 0.78020 -0.47600
O 	O 	0.41300 0.97950 0.66230 -0.48200
O 	O 	0.63060 0.98440 0.71360 -0.47700
O 	O 	0.10790 0.91720 0.68240 -0.48800
O 	O 	0.93090 0.99430 0.69280 -0.48100
O 	O 	0.43460 0.78700 0.57620 -0.55900
O 	O 	0.44800 0.71120 0.48330 -0.51300
O 	O 	0.95600 0.63480 0.45430 -0.42500
O 	O 	0.14260 0.73120 0.51700 -0.59100
O 	O 	0.77280 0.25000 0.62030 -0.45600
O 	O 	0.84520 0.18410 0.70240 -0.44400
O 	O 	0.08970 0.44550 0.88700 -0.56600
O 	O 	0.25780 0.57040 0.85680 -0.54500
O 	O 	0.09990 0.67340 0.64540 -0.49100
O 	O 	0.94320 0.55280 0.58180 -0.50600
O 	O 	0.37480 0.14410 0.12140 -0.46900
O 	O 	0.30590 0.98580 0.13810 -0.48700
O 	O 	0.58080 0.77380 0.99930 -0.53500
O 	O 	0.81280 0.82510 0.04350 -0.50200
O 	O 	0.93570 0.20400 0.00010 -0.50500
O 	O 	0.80500 0.28380 0.05690 -0.48500
O 	O 	0.66490 0.23030 0.19000 -0.45400
O 	O 	0.65360 0.20200 0.28800 -0.49300
O 	O 	0.46820 0.45810 0.42030 -0.32300
O 	O 	0.34990 0.55020 0.37020 -0.47300
O 	O 	0.25240 0.47650 0.13230 -0.29000
O 	O 	0.39240 0.38610 0.09180 -0.48500
O 	O 	0.12060 0.78640 0.14470 -0.57000
O 	O 	0.20900 0.68530 0.08470 -0.38300
O 	O 	0.77730 0.71490 0.14470 -0.50800
O 	O 	0.89030 0.83100 0.21980 -0.47600
O 	O 	0.58700 0.02050 0.33770 -0.48200
O 	O 	0.36940 0.01560 0.28640 -0.47700
O 	O 	0.89210 0.08280 0.31760 -0.48800
O 	O 	0.06910 0.00570 0.30720 -0.48100
O 	O 	0.56540 0.21300 0.42380 -0.55900
O 	O 	0.55200 0.28880 0.51670 -0.51300
O 	O 	0.04400 0.36520 0.54570 -0.42500
O 	O 	0.85740 0.26880 0.48300 -0.59100
O 	O 	0.22720 0.75000 0.37970 -0.45600
O 	O 	0.15480 0.81590 0.29760 -0.44400
O 	O 	0.91030 0.55450 0.11300 -0.56600
O 	O 	0.74220 0.42960 0.14320 -0.54500
O 	O 	0.90010 0.32660 0.35460 -0.49100
O 	O 	0.05680 0.44720 0.41820 -0.50600
