data_crystal

_cell_length_a 15.22290
_cell_length_b 15.22290
_cell_length_c 6.88620
_cell_angle_alpha 90.00000
_cell_angle_beta  90.00000
_cell_angle_gamma 120.00000

_symmetry_space_group_name_	'P 1'
_symmetry_space_group_name_H-M	'P 1'

loop_
_symmetry_equiv_pos_as_xyz
  x,y,z

loop_
_atom_site_label
_atom_site_type_symbol
_atom_site_fract_x
_atom_site_fract_y
_atom_site_fract_z
_atom_site_charge
C 	C 	0.08560 0.46060 0.96500 -0.01500
C 	C 	0.02000 0.42800 0.14500 0.02100
C 	C 	0.53940 0.62500 0.96500 -0.01700
C 	C 	0.57200 0.59200 0.14500 0.02200
C 	C 	0.37500 0.91440 0.96500 -0.01500
C 	C 	0.40800 0.98000 0.14500 0.02100
C 	C 	0.46060 0.08560 0.03500 -0.01600
C 	C 	0.42800 0.02000 0.85500 0.02000
C 	C 	0.62500 0.53940 0.03500 -0.01800
C 	C 	0.59200 0.57200 0.85500 0.02100
C 	C 	0.91440 0.37500 0.03500 -0.01600
C 	C 	0.98000 0.40800 0.85500 0.02000
C 	C 	0.91440 0.53940 0.03500 -0.01600
C 	C 	0.98000 0.57200 0.85500 0.02000
C 	C 	0.46060 0.37500 0.03500 -0.01800
C 	C 	0.42800 0.40800 0.85500 0.02100
C 	C 	0.62500 0.08560 0.03500 -0.01600
C 	C 	0.59200 0.02000 0.85500 0.02000
C 	C 	0.53940 0.91440 0.96500 -0.01600
C 	C 	0.57200 0.98000 0.14500 0.02000
C 	C 	0.37500 0.46060 0.96500 -0.01800
C 	C 	0.40800 0.42800 0.14500 0.02100
C 	C 	0.08560 0.62500 0.96500 -0.01600
C 	C 	0.02000 0.59200 0.14500 0.02000
C 	C 	0.10800 0.55400 0.88700 -0.01900
C 	C 	0.99500 0.49750 0.76500 -0.02000
N 	N 	0.08570 0.54285 0.09570 -0.19400
Cu	Cu	0.22046 0.61023 0.24720 0.71700
C 	C 	0.44600 0.55400 0.88700 -0.01800
C 	C 	0.50250 0.49750 0.76500 -0.02000
N 	N 	0.45715 0.54285 0.09570 -0.19400
Cu	Cu	0.38977 0.61023 0.24720 0.71800
C 	C 	0.44600 0.89200 0.88700 -0.01900
C 	C 	0.50250 0.00500 0.76500 -0.02000
N 	N 	0.45715 0.91430 0.09570 -0.19400
Cu	Cu	0.38977 0.77954 0.24720 0.71700
C 	C 	0.55400 0.10800 0.11300 -0.01900
C 	C 	0.49750 0.99500 0.23500 -0.02000
N 	N 	0.54285 0.08570 0.90430 -0.19400
Cu	Cu	0.61023 0.22046 0.75280 0.71700
C 	C 	0.55400 0.44600 0.11300 -0.01800
C 	C 	0.49750 0.50250 0.23500 -0.02000
N 	N 	0.54285 0.45715 0.90430 -0.19400
Cu	Cu	0.61023 0.38977 0.75280 0.71800
C 	C 	0.89200 0.44600 0.11300 -0.01900
C 	C 	0.00500 0.50250 0.23500 -0.02000
N 	N 	0.91430 0.45715 0.90430 -0.19400
Cu	Cu	0.77954 0.38977 0.75280 0.71700
C 	C 	0.33333 0.66667 0.86000 -0.17400
N 	N 	0.33333 0.66667 0.01800 -0.34500
Cu	Cu	0.33333 0.66667 0.58060 0.72300
C 	C 	0.66667 0.33333 0.14000 -0.17400
N 	N 	0.66667 0.33333 0.98200 -0.34500
Cu	Cu	0.66667 0.33333 0.41940 0.72300
I 	I 	0.23508 0.47017 0.46309 -0.56100
I 	I 	0.52983 0.76491 0.46309 -0.56100
I 	I 	0.23509 0.76492 0.46309 -0.56100
I 	I 	0.47017 0.23508 0.53691 -0.56100
I 	I 	0.76491 0.52983 0.53691 -0.56100
I 	I 	0.76492 0.23509 0.53691 -0.56100
