data_crystal

_cell_length_a 13.57150
_cell_length_b 13.57150
_cell_length_c 8.71250
_cell_angle_alpha 90.00000
_cell_angle_beta  90.00000
_cell_angle_gamma 120.00000

_symmetry_space_group_name_	'P 1'
_symmetry_space_group_name_H-M	'P 1'

loop_
_symmetry_equiv_pos_as_xyz
  x,y,z

loop_
_atom_site_label
_atom_site_type_symbol
_atom_site_fract_x
_atom_site_fract_y
_atom_site_fract_z
_atom_site_charge
Mo	Mo	0.66667 0.33333 0.34380 0.93500
Mo	Mo	0.33333 0.66667 0.84380 0.92900
Cu	Cu	0.56130 0.43871 0.47814 0.80500
N 	N 	0.51240 0.48760 0.27140 -0.19900
C 	C 	0.48600 0.51400 0.15980 -0.16800
Cu	Cu	0.56130 0.12259 0.47814 0.80400
N 	N 	0.51240 0.02480 0.27140 -0.19700
C 	C 	0.48600 0.97200 0.15980 -0.17200
Cu	Cu	0.87741 0.43871 0.47814 0.80400
N 	N 	0.97520 0.48760 0.27140 -0.19700
C 	C 	0.02800 0.51400 0.15980 -0.17200
Cu	Cu	0.43870 0.56130 0.97814 0.78600
N 	N 	0.48760 0.51240 0.77140 -0.19800
C 	C 	0.51400 0.48600 0.65980 -0.21400
Cu	Cu	0.43870 0.87741 0.97814 0.78500
N 	N 	0.48760 0.97520 0.77140 -0.20300
C 	C 	0.51400 0.02800 0.65980 -0.20700
Cu	Cu	0.12259 0.56130 0.97814 0.78500
N 	N 	0.02480 0.51240 0.77140 -0.20300
C 	C 	0.97200 0.48600 0.65980 -0.20700
S 	S 	0.75628 0.51256 0.43682 -0.64900
S 	S 	0.48744 0.24372 0.43682 -0.64900
S 	S 	0.75628 0.24372 0.43682 -0.64900
S 	S 	0.24372 0.48744 0.93682 -0.68800
S 	S 	0.51256 0.75628 0.93682 -0.68800
S 	S 	0.24372 0.75628 0.93682 -0.68900
H 	H 	0.13400 0.38390 0.63260 0.10000
H 	H 	0.31300 0.50890 0.42110 0.08900
C 	C 	0.23470 0.28940 0.38300 -0.34400
H 	H 	0.19160 0.21070 0.41600 0.11900
H 	H 	0.24270 0.29200 0.27190 0.12700
H 	H 	0.30940 0.32580 0.42990 0.10600
H 	H 	0.24990 0.38390 0.63260 0.10100
H 	H 	0.19590 0.50890 0.42110 0.08800
C 	C 	0.05470 0.28940 0.38300 -0.34100
H 	H 	0.01910 0.21070 0.41600 0.11700
H 	H 	0.04930 0.29200 0.27190 0.12500
H 	H 	0.01640 0.32580 0.42990 0.10300
N 	N 	0.17455 0.34910 0.42820 0.03700
C 	C 	0.17250 0.34500 0.59370 -0.32300
H 	H 	0.13315 0.26630 0.62730 0.11000
C 	C 	0.23600 0.47200 0.38130 -0.32200
H 	H 	0.23865 0.47730 0.27020 0.10200
H 	H 	0.61610 0.75010 0.63260 0.10100
H 	H 	0.49110 0.80410 0.42110 0.08800
C 	C 	0.71060 0.94530 0.38300 -0.34100
H 	H 	0.78930 0.98090 0.41600 0.11700
H 	H 	0.70800 0.95070 0.27190 0.12500
H 	H 	0.67420 0.98360 0.42990 0.10300
H 	H 	0.61610 0.86600 0.63260 0.10000
H 	H 	0.49110 0.68700 0.42110 0.08900
C 	C 	0.71060 0.76530 0.38300 -0.34400
H 	H 	0.78930 0.80840 0.41600 0.11900
H 	H 	0.70800 0.75730 0.27190 0.12700
H 	H 	0.67420 0.69060 0.42990 0.10600
N 	N 	0.65090 0.82545 0.42820 0.03700
C 	C 	0.65500 0.82750 0.59370 -0.32300
H 	H 	0.73370 0.86685 0.62730 0.11000
C 	C 	0.52800 0.76400 0.38130 -0.32200
H 	H 	0.52270 0.76135 0.27020 0.10200
H 	H 	0.24990 0.86600 0.63260 0.09900
H 	H 	0.19590 0.68700 0.42110 0.08800
C 	C 	0.05470 0.76530 0.38300 -0.33900
H 	H 	0.01910 0.80840 0.41600 0.11600
H 	H 	0.04930 0.75730 0.27190 0.12400
H 	H 	0.01640 0.69060 0.42990 0.10300
H 	H 	0.13400 0.75010 0.63260 0.09900
H 	H 	0.31300 0.80410 0.42110 0.08800
C 	C 	0.23470 0.94530 0.38300 -0.33900
H 	H 	0.19160 0.98090 0.41600 0.11600
H 	H 	0.24270 0.95070 0.27190 0.12400
H 	H 	0.30940 0.98360 0.42990 0.10300
N 	N 	0.17455 0.82545 0.42820 0.03600
C 	C 	0.17250 0.82750 0.59370 -0.32000
H 	H 	0.13315 0.86685 0.62730 0.10800
C 	C 	0.23600 0.76400 0.38130 -0.32100
H 	H 	0.23865 0.76135 0.27020 0.10200
H 	H 	0.86600 0.61610 0.13260 0.09000
H 	H 	0.68700 0.49110 0.92110 0.06300
C 	C 	0.76530 0.71060 0.88300 -0.30700
H 	H 	0.80840 0.78930 0.91600 0.09300
H 	H 	0.75730 0.70800 0.77190 0.10600
H 	H 	0.69060 0.67420 0.92990 0.07900
H 	H 	0.75010 0.61610 0.13260 0.09000
H 	H 	0.80410 0.49110 0.92110 0.06300
C 	C 	0.94530 0.71060 0.88300 -0.31100
H 	H 	0.98090 0.78930 0.91600 0.09500
H 	H 	0.95070 0.70800 0.77190 0.10800
H 	H 	0.98360 0.67420 0.92990 0.08300
N 	N 	0.82545 0.65090 0.92820 -0.00600
C 	C 	0.82750 0.65500 0.09370 -0.23400
H 	H 	0.86685 0.73370 0.12730 0.10300
C 	C 	0.76400 0.52800 0.88130 -0.28300
H 	H 	0.76135 0.52270 0.77020 0.07800
H 	H 	0.38390 0.24990 0.13260 0.09000
H 	H 	0.50890 0.19590 0.92110 0.06300
C 	C 	0.28940 0.05470 0.88300 -0.31100
H 	H 	0.21070 0.01910 0.91600 0.09500
H 	H 	0.29200 0.04930 0.77190 0.10800
H 	H 	0.32580 0.01640 0.92990 0.08300
H 	H 	0.38390 0.13400 0.13260 0.09000
H 	H 	0.50890 0.31300 0.92110 0.06300
C 	C 	0.28940 0.23470 0.88300 -0.30700
H 	H 	0.21070 0.19160 0.91600 0.09300
H 	H 	0.29200 0.24270 0.77190 0.10600
H 	H 	0.32580 0.30940 0.92990 0.07900
N 	N 	0.34910 0.17455 0.92820 -0.00600
C 	C 	0.34500 0.17250 0.09370 -0.23400
H 	H 	0.26630 0.13315 0.12730 0.10300
C 	C 	0.47200 0.23600 0.88130 -0.28300
H 	H 	0.47730 0.23865 0.77020 0.07800
H 	H 	0.75010 0.13400 0.13260 0.09200
H 	H 	0.80410 0.31300 0.92110 0.06400
C 	C 	0.94530 0.23470 0.88300 -0.31400
H 	H 	0.98090 0.19160 0.91600 0.09800
H 	H 	0.95070 0.24270 0.77190 0.10900
H 	H 	0.98360 0.30940 0.92990 0.08400
H 	H 	0.86600 0.24990 0.13260 0.09200
H 	H 	0.68700 0.19590 0.92110 0.06400
C 	C 	0.76530 0.05470 0.88300 -0.31400
H 	H 	0.80840 0.01910 0.91600 0.09800
H 	H 	0.75730 0.04930 0.77190 0.10900
H 	H 	0.69060 0.01640 0.92990 0.08400
N 	N 	0.82545 0.17455 0.92820 -0.00300
C 	C 	0.82750 0.17250 0.09370 -0.24000
H 	H 	0.86685 0.13315 0.12730 0.10400
C 	C 	0.76400 0.23600 0.88130 -0.28500
H 	H 	0.76135 0.23865 0.77020 0.07900
