data_crystal

_cell_length_a 27.55000
_cell_length_b 13.28100
_cell_length_c 20.35600
_cell_angle_alpha 90.00000
_cell_angle_beta  97.03000
_cell_angle_gamma 90.00000

_symmetry_space_group_name_	'P 1'
_symmetry_space_group_name_H-M	'P 1'

loop_
_symmetry_equiv_pos_as_xyz
  x,y,z

loop_
_atom_site_label
_atom_site_type_symbol
_atom_site_fract_x
_atom_site_fract_y
_atom_site_fract_z
_atom_site_charge
Mo	Mo	0.85686 0.47143 0.86109 0.92200
Cu	Cu	0.78812 0.42052 0.76046 0.80500
Cu	Cu	0.80964 0.64943 0.86923 0.80600
Cu	Cu	0.91189 0.54552 0.77150 0.81000
S 	S 	0.87063 0.39560 0.76608 -0.64200
S 	S 	0.89240 0.62512 0.86395 -0.64000
S 	S 	0.77500 0.49139 0.85948 -0.62900
N 	N 	0.76740 0.52880 0.68310 -0.22400
N 	N 	0.81890 0.70770 0.96870 -0.21100
N 	N 	0.61480 0.86480 0.30810 -0.22800
N 	N 	0.74830 0.31220 0.71560 -0.19300
C 	C 	0.72610 0.25330 0.68280 -0.18200
C 	C 	0.67100 0.73910 0.35770 -0.04100
C 	C 	0.73410 0.59950 0.68820 -0.00900
H 	H 	0.75940 0.65310 0.69840 0.01800
C 	C 	0.64920 0.79480 0.30450 0.02300
H 	H 	0.65950 0.78230 0.26240 -0.02700
C 	C 	0.84630 0.65800 0.01740 0.02200
H 	H 	0.85680 0.59170 0.00880 -0.02300
C 	C 	0.85990 0.69920 0.08000 -0.03900
C 	C 	0.77870 0.50700 0.62310 0.05300
H 	H 	0.80320 0.45740 0.61980 -0.00900
C 	C 	0.59990 0.88030 0.36750 0.02400
H 	H 	0.57560 0.92980 0.37140 -0.00600
C 	C 	0.80420 0.79950 0.98120 0.02200
H 	H 	0.78440 0.83440 0.94710 0.00500
C 	C 	0.75730 0.55200 0.56470 -0.12600
H 	H 	0.73600 0.49570 0.54530 0.06400
C 	C 	0.97950 0.52410 0.75580 -0.24100
N 	N 	0.01910 0.54020 0.74250 0.03600
C 	C 	0.83830 0.75610 0.58740 0.02000
C 	C 	0.68620 0.69470 0.52960 -0.06200
C 	C 	0.79140 0.84390 0.50400 -0.00300
C 	C 	0.70700 0.65750 0.64340 -0.00200
C 	C 	0.61880 0.82680 0.42390 -0.05900
C 	C 	0.77050 0.88220 0.43990 0.05500
C 	C 	0.66960 0.71870 0.48890 0.00300
C 	C 	0.81610 0.84820 0.04200 -0.03900
C 	C 	0.64640 0.77070 0.42550 -0.00300
C 	C 	0.80840 0.81830 0.53350 -0.00500
C 	C 	0.78360 0.85550 0.38150 -0.07200
C 	C 	0.71320 0.63780 0.58310 0.02500
Mo	Mo	0.35686 0.97143 0.86109 0.92300
Cu	Cu	0.28812 0.92052 0.76046 0.80600
Cu	Cu	0.30964 0.14943 0.86923 0.80600
Cu	Cu	0.41189 0.04552 0.77150 0.81000
S 	S 	0.37063 0.89560 0.76608 -0.64200
S 	S 	0.39240 0.12512 0.86395 -0.63900
S 	S 	0.27500 0.99139 0.85948 -0.62900
N 	N 	0.26740 0.02880 0.68310 -0.22400
N 	N 	0.31890 0.20770 0.96870 -0.21000
N 	N 	0.11480 0.36480 0.30810 -0.22800
N 	N 	0.24830 0.81220 0.71560 -0.19300
C 	C 	0.22610 0.75330 0.68280 -0.18200
C 	C 	0.17100 0.23910 0.35770 -0.04100
C 	C 	0.23410 0.09950 0.68820 -0.00900
H 	H 	0.25940 0.15310 0.69840 0.01800
C 	C 	0.14920 0.29480 0.30450 0.02300
H 	H 	0.15950 0.28230 0.26240 -0.02700
C 	C 	0.34630 0.15800 0.01740 0.02100
H 	H 	0.35680 0.09170 0.00880 -0.02300
C 	C 	0.35990 0.19920 0.08000 -0.03900
C 	C 	0.27870 0.00700 0.62310 0.05400
H 	H 	0.30320 0.95740 0.61980 -0.00900
C 	C 	0.09990 0.38030 0.36750 0.02400
H 	H 	0.07560 0.42980 0.37140 -0.00700
C 	C 	0.30420 0.29950 0.98120 0.02300
H 	H 	0.28440 0.33440 0.94710 0.00400
C 	C 	0.25730 0.05200 0.56470 -0.12500
H 	H 	0.23600 0.99570 0.54530 0.06400
C 	C 	0.47950 0.02410 0.75580 -0.24100
N 	N 	0.51910 0.04020 0.74250 0.03600
C 	C 	0.33830 0.25610 0.58740 0.02000
C 	C 	0.18620 0.19470 0.52960 -0.06200
C 	C 	0.29140 0.34390 0.50400 -0.00300
C 	C 	0.20700 0.15750 0.64340 -0.00300
C 	C 	0.11880 0.32680 0.42390 -0.05900
C 	C 	0.27050 0.38220 0.43990 0.05600
C 	C 	0.16960 0.21870 0.48890 0.00300
C 	C 	0.31610 0.34820 0.04200 -0.04000
C 	C 	0.14640 0.27070 0.42550 -0.00400
C 	C 	0.30840 0.31830 0.53350 -0.00500
C 	C 	0.28360 0.35550 0.38150 -0.07200
C 	C 	0.21320 0.13780 0.58310 0.02600
Mo	Mo	0.14314 0.47143 0.63891 0.92400
Cu	Cu	0.21188 0.42052 0.73954 0.80600
Cu	Cu	0.19036 0.64943 0.63077 0.80600
Cu	Cu	0.08811 0.54552 0.72850 0.81000
S 	S 	0.12937 0.39560 0.73392 -0.64200
S 	S 	0.10760 0.62512 0.63605 -0.64000
S 	S 	0.22500 0.49139 0.64052 -0.62900
N 	N 	0.23260 0.52880 0.81690 -0.22400
N 	N 	0.18110 0.70770 0.53130 -0.21100
N 	N 	0.38520 0.86480 0.19190 -0.22800
N 	N 	0.25170 0.31220 0.78440 -0.19300
C 	C 	0.27390 0.25330 0.81720 -0.18200
C 	C 	0.32900 0.73910 0.14230 -0.04100
C 	C 	0.26590 0.59950 0.81180 -0.00900
H 	H 	0.24060 0.65310 0.80160 0.01800
C 	C 	0.35080 0.79480 0.19550 0.02300
H 	H 	0.34050 0.78230 0.23760 -0.02700
C 	C 	0.15370 0.65800 0.48260 0.02200
H 	H 	0.14320 0.59170 0.49120 -0.02300
C 	C 	0.14010 0.69920 0.42000 -0.03900
C 	C 	0.22130 0.50700 0.87690 0.05300
H 	H 	0.19680 0.45740 0.88020 -0.00900
C 	C 	0.40010 0.88030 0.13250 0.02400
H 	H 	0.42440 0.92980 0.12860 -0.00600
C 	C 	0.19580 0.79950 0.51880 0.02300
H 	H 	0.21560 0.83440 0.55290 0.00400
C 	C 	0.24270 0.55200 0.93530 -0.12500
H 	H 	0.26400 0.49570 0.95470 0.06400
C 	C 	0.02050 0.52410 0.74420 -0.24100
N 	N 	0.98090 0.54020 0.75750 0.03600
C 	C 	0.16170 0.75610 0.91260 0.01800
C 	C 	0.31380 0.69470 0.97040 -0.06200
C 	C 	0.20860 0.84390 0.99600 0.00100
C 	C 	0.29300 0.65750 0.85660 -0.00300
C 	C 	0.38120 0.82680 0.07610 -0.05900
C 	C 	0.22950 0.88220 0.06010 0.06200
C 	C 	0.33040 0.71870 0.01110 0.00200
C 	C 	0.18390 0.84820 0.45800 -0.04000
C 	C 	0.35360 0.77070 0.07450 -0.00400
C 	C 	0.19160 0.81830 0.96650 -0.01200
C 	C 	0.21640 0.85550 0.11850 -0.07500
C 	C 	0.28680 0.63780 0.91690 0.02600
Mo	Mo	0.64314 0.97143 0.63891 0.92400
Cu	Cu	0.71188 0.92052 0.73954 0.80600
Cu	Cu	0.69036 0.14943 0.63077 0.80600
Cu	Cu	0.58811 0.04552 0.72850 0.81000
S 	S 	0.62937 0.89560 0.73392 -0.64200
S 	S 	0.60760 0.12512 0.63605 -0.64000
S 	S 	0.72500 0.99139 0.64052 -0.62800
N 	N 	0.73260 0.02880 0.81690 -0.22400
N 	N 	0.68110 0.20770 0.53130 -0.21100
N 	N 	0.88520 0.36480 0.19190 -0.22800
N 	N 	0.75170 0.81220 0.78440 -0.19300
C 	C 	0.77390 0.75330 0.81720 -0.18200
C 	C 	0.82900 0.23910 0.14230 -0.04000
C 	C 	0.76590 0.09950 0.81180 -0.01000
H 	H 	0.74060 0.15310 0.80160 0.01800
C 	C 	0.85080 0.29480 0.19550 0.02200
H 	H 	0.84050 0.28230 0.23760 -0.02700
C 	C 	0.65370 0.15800 0.48260 0.02200
H 	H 	0.64320 0.09170 0.49120 -0.02200
C 	C 	0.64010 0.19920 0.42000 -0.03900
C 	C 	0.72130 0.00700 0.87690 0.05600
H 	H 	0.69680 0.95740 0.88020 -0.01000
C 	C 	0.90010 0.38030 0.13250 0.02500
H 	H 	0.92440 0.42980 0.12860 -0.00700
C 	C 	0.69580 0.29950 0.51880 0.02300
H 	H 	0.71560 0.33440 0.55290 0.00400
C 	C 	0.74270 0.05200 0.93530 -0.12900
H 	H 	0.76400 0.99570 0.95470 0.06400
C 	C 	0.52050 0.02410 0.74420 -0.24100
N 	N 	0.48090 0.04020 0.75750 0.03600
C 	C 	0.66170 0.25610 0.91260 0.02100
C 	C 	0.81380 0.19470 0.97040 -0.06500
C 	C 	0.70860 0.34390 0.99600 -0.00400
C 	C 	0.79300 0.15750 0.85660 0.00200
C 	C 	0.88120 0.32680 0.07610 -0.06100
C 	C 	0.72950 0.38220 0.06010 0.05500
C 	C 	0.83040 0.21870 0.01110 0.00800
C 	C 	0.68390 0.34820 0.45800 -0.04000
C 	C 	0.85360 0.27070 0.07450 -0.00200
C 	C 	0.69160 0.31830 0.96650 -0.00400
C 	C 	0.71640 0.35550 0.11850 -0.07200
C 	C 	0.78680 0.13780 0.91690 0.02100
Mo	Mo	0.14314 0.52857 0.13891 0.92300
Cu	Cu	0.21188 0.57948 0.23954 0.80600
Cu	Cu	0.19036 0.35057 0.13077 0.80600
Cu	Cu	0.08811 0.45448 0.22850 0.81000
S 	S 	0.12937 0.60440 0.23392 -0.64200
S 	S 	0.10760 0.37488 0.13605 -0.64000
S 	S 	0.22500 0.50861 0.14052 -0.62900
N 	N 	0.23260 0.47120 0.31690 -0.22400
N 	N 	0.18110 0.29230 0.03130 -0.21100
N 	N 	0.38520 0.13520 0.69190 -0.22800
N 	N 	0.25170 0.68780 0.28440 -0.19300
C 	C 	0.27390 0.74670 0.31720 -0.18200
C 	C 	0.32900 0.26090 0.64230 -0.04100
C 	C 	0.26590 0.40050 0.31180 -0.00900
H 	H 	0.24060 0.34690 0.30160 0.01800
C 	C 	0.35080 0.20520 0.69550 0.02300
H 	H 	0.34050 0.21770 0.73760 -0.02700
C 	C 	0.15370 0.34200 0.98260 0.02200
H 	H 	0.14320 0.40830 0.99120 -0.02300
C 	C 	0.14010 0.30080 0.92000 -0.03900
C 	C 	0.22130 0.49300 0.37690 0.05300
H 	H 	0.19680 0.54260 0.38020 -0.00900
C 	C 	0.40010 0.11970 0.63250 0.02400
H 	H 	0.42440 0.07020 0.62860 -0.00600
C 	C 	0.19580 0.20050 0.01880 0.02200
H 	H 	0.21560 0.16560 0.05290 0.00500
C 	C 	0.24270 0.44800 0.43530 -0.12600
H 	H 	0.26400 0.50430 0.45470 0.06400
C 	C 	0.02050 0.47590 0.24420 -0.24100
N 	N 	0.98090 0.45980 0.25750 0.03600
C 	C 	0.16170 0.24390 0.41260 0.02000
C 	C 	0.31380 0.30530 0.47040 -0.06200
C 	C 	0.20860 0.15610 0.49600 -0.00300
C 	C 	0.29300 0.34250 0.35660 -0.00200
C 	C 	0.38120 0.17320 0.57610 -0.05900
C 	C 	0.22950 0.11780 0.56010 0.05500
C 	C 	0.33040 0.28130 0.51110 0.00300
C 	C 	0.18390 0.15180 0.95800 -0.03900
C 	C 	0.35360 0.22930 0.57450 -0.00300
C 	C 	0.19160 0.18170 0.46650 -0.00500
C 	C 	0.21640 0.14450 0.61850 -0.07200
C 	C 	0.28680 0.36220 0.41690 0.02500
Mo	Mo	0.64314 0.02857 0.13891 0.92300
Cu	Cu	0.71188 0.07948 0.23954 0.80600
Cu	Cu	0.69036 0.85057 0.13077 0.80600
Cu	Cu	0.58811 0.95448 0.22850 0.81000
S 	S 	0.62937 0.10440 0.23392 -0.64200
S 	S 	0.60760 0.87488 0.13605 -0.63900
S 	S 	0.72500 0.00861 0.14052 -0.62900
N 	N 	0.73260 0.97120 0.31690 -0.22400
N 	N 	0.68110 0.79230 0.03130 -0.21000
N 	N 	0.88520 0.63520 0.69190 -0.22800
N 	N 	0.75170 0.18780 0.28440 -0.19300
C 	C 	0.77390 0.24670 0.31720 -0.18200
C 	C 	0.82900 0.76090 0.64230 -0.04100
C 	C 	0.76590 0.90050 0.31180 -0.00900
H 	H 	0.74060 0.84690 0.30160 0.01800
C 	C 	0.85080 0.70520 0.69550 0.02300
H 	H 	0.84050 0.71770 0.73760 -0.02700
C 	C 	0.65370 0.84200 0.98260 0.02100
H 	H 	0.64320 0.90830 0.99120 -0.02300
C 	C 	0.64010 0.80080 0.92000 -0.03900
C 	C 	0.72130 0.99300 0.37690 0.05400
H 	H 	0.69680 0.04260 0.38020 -0.00900
C 	C 	0.90010 0.61970 0.63250 0.02400
H 	H 	0.92440 0.57020 0.62860 -0.00700
C 	C 	0.69580 0.70050 0.01880 0.02300
H 	H 	0.71560 0.66560 0.05290 0.00400
C 	C 	0.74270 0.94800 0.43530 -0.12500
H 	H 	0.76400 0.00430 0.45470 0.06400
C 	C 	0.52050 0.97590 0.24420 -0.24100
N 	N 	0.48090 0.95980 0.25750 0.03600
C 	C 	0.66170 0.74390 0.41260 0.02000
C 	C 	0.81380 0.80530 0.47040 -0.06200
C 	C 	0.70860 0.65610 0.49600 -0.00300
C 	C 	0.79300 0.84250 0.35660 -0.00300
C 	C 	0.88120 0.67320 0.57610 -0.05900
C 	C 	0.72950 0.61780 0.56010 0.05600
C 	C 	0.83040 0.78130 0.51110 0.00300
C 	C 	0.68390 0.65180 0.95800 -0.04000
C 	C 	0.85360 0.72930 0.57450 -0.00400
C 	C 	0.69160 0.68170 0.46650 -0.00500
C 	C 	0.71640 0.64450 0.61850 -0.07200
C 	C 	0.78680 0.86220 0.41690 0.02600
Mo	Mo	0.85686 0.52857 0.36109 0.92400
Cu	Cu	0.78812 0.57948 0.26046 0.80600
Cu	Cu	0.80964 0.35057 0.36923 0.80600
Cu	Cu	0.91189 0.45448 0.27150 0.81000
S 	S 	0.87063 0.60440 0.26608 -0.64200
S 	S 	0.89240 0.37488 0.36395 -0.64000
S 	S 	0.77500 0.50861 0.35948 -0.62900
N 	N 	0.76740 0.47120 0.18310 -0.22400
N 	N 	0.81890 0.29230 0.46870 -0.21100
N 	N 	0.61480 0.13520 0.80810 -0.22800
N 	N 	0.74830 0.68780 0.21560 -0.19300
C 	C 	0.72610 0.74670 0.18280 -0.18200
C 	C 	0.67100 0.26090 0.85770 -0.04100
C 	C 	0.73410 0.40050 0.18820 -0.00900
H 	H 	0.75940 0.34690 0.19840 0.01800
C 	C 	0.64920 0.20520 0.80450 0.02300
H 	H 	0.65950 0.21770 0.76240 -0.02700
C 	C 	0.84630 0.34200 0.51740 0.02200
H 	H 	0.85680 0.40830 0.50880 -0.02300
C 	C 	0.85990 0.30080 0.58000 -0.03900
C 	C 	0.77870 0.49300 0.12310 0.05300
H 	H 	0.80320 0.54260 0.11980 -0.00900
C 	C 	0.59990 0.11970 0.86750 0.02400
H 	H 	0.57560 0.07020 0.87140 -0.00600
C 	C 	0.80420 0.20050 0.48120 0.02300
H 	H 	0.78440 0.16560 0.44710 0.00400
C 	C 	0.75730 0.44800 0.06470 -0.12500
H 	H 	0.73600 0.50430 0.04530 0.06400
C 	C 	0.97950 0.47590 0.25580 -0.24100
N 	N 	0.01910 0.45980 0.24250 0.03600
C 	C 	0.83830 0.24390 0.08740 0.01800
C 	C 	0.68620 0.30530 0.02960 -0.06200
C 	C 	0.79140 0.15610 0.00400 0.00100
C 	C 	0.70700 0.34250 0.14340 -0.00300
C 	C 	0.61880 0.17320 0.92390 -0.05900
C 	C 	0.77050 0.11780 0.93990 0.06200
C 	C 	0.66960 0.28130 0.98890 0.00200
C 	C 	0.81610 0.15180 0.54200 -0.04000
C 	C 	0.64640 0.22930 0.92550 -0.00400
C 	C 	0.80840 0.18170 0.03350 -0.01200
C 	C 	0.78360 0.14450 0.88150 -0.07500
C 	C 	0.71320 0.36220 0.08310 0.02600
Mo	Mo	0.35686 0.02857 0.36109 0.92400
Cu	Cu	0.28812 0.07948 0.26046 0.80600
Cu	Cu	0.30964 0.85057 0.36923 0.80600
Cu	Cu	0.41189 0.95448 0.27150 0.81000
S 	S 	0.37063 0.10440 0.26608 -0.64200
S 	S 	0.39240 0.87488 0.36395 -0.64000
S 	S 	0.27500 0.00861 0.35948 -0.62800
N 	N 	0.26740 0.97120 0.18310 -0.22400
N 	N 	0.31890 0.79230 0.46870 -0.21100
N 	N 	0.11480 0.63520 0.80810 -0.22800
N 	N 	0.24830 0.18780 0.21560 -0.19300
C 	C 	0.22610 0.24670 0.18280 -0.18200
C 	C 	0.17100 0.76090 0.85770 -0.04000
C 	C 	0.23410 0.90050 0.18820 -0.01000
H 	H 	0.25940 0.84690 0.19840 0.01800
C 	C 	0.14920 0.70520 0.80450 0.02200
H 	H 	0.15950 0.71770 0.76240 -0.02700
C 	C 	0.34630 0.84200 0.51740 0.02200
H 	H 	0.35680 0.90830 0.50880 -0.02200
C 	C 	0.35990 0.80080 0.58000 -0.03900
C 	C 	0.27870 0.99300 0.12310 0.05600
H 	H 	0.30320 0.04260 0.11980 -0.01000
C 	C 	0.09990 0.61970 0.86750 0.02500
H 	H 	0.07560 0.57020 0.87140 -0.00700
C 	C 	0.30420 0.70050 0.48120 0.02300
H 	H 	0.28440 0.66560 0.44710 0.00400
C 	C 	0.25730 0.94800 0.06470 -0.12900
H 	H 	0.23600 0.00430 0.04530 0.06400
C 	C 	0.47950 0.97590 0.25580 -0.24100
N 	N 	0.51910 0.95980 0.24250 0.03600
C 	C 	0.33830 0.74390 0.08740 0.02100
C 	C 	0.18620 0.80530 0.02960 -0.06500
C 	C 	0.29140 0.65610 0.00400 -0.00400
C 	C 	0.20700 0.84250 0.14340 0.00200
C 	C 	0.11880 0.67320 0.92390 -0.06100
C 	C 	0.27050 0.61780 0.93990 0.05500
C 	C 	0.16960 0.78130 0.98890 0.00800
C 	C 	0.31610 0.65180 0.54200 -0.04000
C 	C 	0.14640 0.72930 0.92550 -0.00200
C 	C 	0.30840 0.68170 0.03350 -0.00400
C 	C 	0.28360 0.64450 0.88150 -0.07200
C 	C 	0.21320 0.86220 0.08310 0.02100
