data_crystal

_cell_length_a 9.16990
_cell_length_b 15.60550
_cell_length_c 13.50260
_cell_angle_alpha 90.00000
_cell_angle_beta  107.16200
_cell_angle_gamma 90.00000

_symmetry_space_group_name_	'P 1'
_symmetry_space_group_name_H-M	'P 1'

loop_
_symmetry_equiv_pos_as_xyz
  x,y,z

loop_
_atom_site_label
_atom_site_type_symbol
_atom_site_fract_x
_atom_site_fract_y
_atom_site_fract_z
_atom_site_charge
Zn	Zn	0.61984 0.44900 0.75077 1.23900
Zn	Zn	0.87283 0.25382 0.74873 1.23900
O 	O 	0.96950 0.35912 0.81819 -0.46600
O 	O 	0.80844 0.44740 0.86333 -0.47200
C 	C 	0.06920 0.48540 0.90740 -0.11300
C 	C 	0.05950 0.54530 0.98090 0.04600
H 	H 	0.97170 0.54940 0.00170 0.05900
C 	C 	0.18330 0.59960 0.02350 -0.08100
C 	C 	0.31340 0.59360 0.99070 0.03400
H 	H 	0.39460 0.63070 0.01820 0.05900
C 	C 	0.32410 0.53340 0.91780 -0.08700
C 	C 	0.20130 0.47860 0.87680 0.05100
H 	H 	0.20750 0.43710 0.82870 0.05800
C 	C 	0.93880 0.42587 0.85870 0.41800
O 	O 	0.05830 0.66637 0.13510 -0.39000
C 	C 	0.17720 0.66350 0.10510 0.31000
O 	O 	0.28840 0.71132 0.14360 -0.33300
O 	O 	0.56810 0.57940 0.91030 -0.26200
C 	C 	0.46450 0.52640 0.88210 0.34000
O 	O 	0.46320 0.46345 0.82116 -0.41100
O 	O 	0.52280 0.34390 0.68143 -0.46400
O 	O 	0.68321 0.25450 0.63565 -0.46900
C 	C 	0.42060 0.22090 0.58800 -0.11600
C 	C 	0.43010 0.15920 0.51580 0.04700
H 	H 	0.51820 0.15480 0.49540 0.05800
C 	C 	0.30770 0.10420 0.47400 -0.08200
C 	C 	0.17690 0.10970 0.50630 0.03400
H 	H 	0.09670 0.07160 0.48020 0.05800
C 	C 	0.16600 0.17190 0.57750 -0.09000
C 	C 	0.28840 0.22730 0.61750 0.05400
H 	H 	0.28130 0.26930 0.66480 0.05700
C 	C 	0.55330 0.27725 0.63880 0.41500
O 	O 	0.43440 0.03677 0.36263 -0.39500
C 	C 	0.31430 0.03810 0.39470 0.30700
O 	O 	0.20650 0.98908 0.35830 -0.32300
O 	O 	0.92410 0.12458 0.58910 -0.26700
C 	C 	0.02700 0.17760 0.61520 0.34800
O 	O 	0.02750 0.24032 0.67582 -0.41200
Zn	Zn	0.38016 0.94900 0.24923 1.24000
Zn	Zn	0.12717 0.75382 0.25127 1.24000
O 	O 	0.03050 0.85912 0.18181 -0.46600
O 	O 	0.19156 0.94740 0.13667 -0.47100
C 	C 	0.93080 0.98540 0.09260 -0.11100
C 	C 	0.94050 0.04530 0.01910 0.04300
H 	H 	0.02830 0.04940 0.99830 0.05900
C 	C 	0.81670 0.09960 0.97650 -0.08100
C 	C 	0.68660 0.09360 0.00930 0.03400
H 	H 	0.60540 0.13070 0.98180 0.05900
C 	C 	0.67590 0.03340 0.08220 -0.08800
C 	C 	0.79870 0.97860 0.12320 0.05200
H 	H 	0.79250 0.93710 0.17130 0.05800
C 	C 	0.06120 0.92587 0.14130 0.41700
O 	O 	0.94170 0.16637 0.86490 -0.39000
C 	C 	0.82280 0.16350 0.89490 0.31000
O 	O 	0.71160 0.21132 0.85640 -0.33300
O 	O 	0.43190 0.07940 0.08970 -0.26200
C 	C 	0.53550 0.02640 0.11790 0.33900
O 	O 	0.53680 0.96345 0.17884 -0.41000
O 	O 	0.47720 0.84390 0.31857 -0.46300
O 	O 	0.31679 0.75450 0.36435 -0.46900
C 	C 	0.57940 0.72090 0.41200 -0.11600
C 	C 	0.56990 0.65920 0.48420 0.04700
H 	H 	0.48180 0.65480 0.50460 0.05800
C 	C 	0.69230 0.60420 0.52600 -0.08200
C 	C 	0.82310 0.60970 0.49370 0.03500
H 	H 	0.90330 0.57160 0.51980 0.05800
C 	C 	0.83400 0.67190 0.42250 -0.09000
C 	C 	0.71160 0.72730 0.38250 0.05400
H 	H 	0.71870 0.76930 0.33520 0.05700
C 	C 	0.44670 0.77725 0.36120 0.41500
O 	O 	0.56560 0.53677 0.63737 -0.39400
C 	C 	0.68570 0.53810 0.60530 0.30900
O 	O 	0.79350 0.48908 0.64170 -0.32500
O 	O 	0.07590 0.62458 0.41090 -0.26600
C 	C 	0.97300 0.67760 0.38480 0.34700
O 	O 	0.97250 0.74032 0.32418 -0.41200
