data_crystal

_cell_length_a 9.16570
_cell_length_b 15.58490
_cell_length_c 13.53020
_cell_angle_alpha 90.00000
_cell_angle_beta  107.46900
_cell_angle_gamma 90.00000

_symmetry_space_group_name_	'P 1'
_symmetry_space_group_name_H-M	'P 1'

loop_
_symmetry_equiv_pos_as_xyz
  x,y,z

loop_
_atom_site_label
_atom_site_type_symbol
_atom_site_fract_x
_atom_site_fract_y
_atom_site_fract_z
_atom_site_charge
Zn	Zn	0.37908 0.55185 0.24814 1.23800
Zn	Zn	0.12668 0.74516 0.25215 1.23900
O 	O 	0.02940 0.64020 0.18210 -0.46800
O 	O 	0.19000 0.55180 0.13510 -0.47100
C 	C 	0.92930 0.51390 0.09240 -0.11000
C 	C 	0.93710 0.45300 0.01910 0.04500
H 	H 	0.02590 0.44840 0.99840 0.05900
C 	C 	0.81340 0.39870 0.97640 -0.08000
C 	C 	0.68390 0.40480 0.00960 0.03200
H 	H 	0.60160 0.36700 0.98230 0.05900
C 	C 	0.67420 0.46590 0.08260 -0.08400
C 	C 	0.79840 0.52120 0.12300 0.04800
H 	H 	0.79290 0.56360 0.17120 0.05900
C 	C 	0.06040 0.57390 0.14110 0.41400
O 	O 	0.93750 0.33210 0.86420 -0.38800
C 	C 	0.81660 0.33440 0.89490 0.30500
O 	O 	0.70620 0.28690 0.85630 -0.32900
O 	O 	0.42990 0.41940 0.09090 -0.25700
C 	C 	0.53480 0.47360 0.11840 0.33400
O 	O 	0.53690 0.53660 0.17880 -0.41000
O 	O 	0.47740 0.65690 0.31900 -0.45900
O 	O 	0.31780 0.74610 0.36550 -0.46700
C 	C 	0.58090 0.78030 0.41240 -0.11500
C 	C 	0.57160 0.84210 0.48510 0.04600
H 	H 	0.48310 0.84640 0.50630 0.05900
C 	C 	0.69460 0.89730 0.52610 -0.08000
C 	C 	0.82460 0.89150 0.49390 0.03400
H 	H 	0.90610 0.92990 0.52050 0.05800
C 	C 	0.83510 0.82950 0.42270 -0.08700
C 	C 	0.71240 0.77370 0.38250 0.05200
H 	H 	0.71910 0.73130 0.33470 0.05700
C 	C 	0.44780 0.72420 0.36220 0.41000
O 	O 	0.56940 0.96470 0.63810 -0.39900
C 	C 	0.68850 0.96360 0.60650 0.30800
O 	O 	0.79670 0.01350 0.64220 -0.32100
O 	O 	0.07660 0.87570 0.41050 -0.26600
C 	C 	0.97370 0.82320 0.38500 0.33900
O 	O 	0.97220 0.75860 0.32440 -0.40700
Zn	Zn	0.62092 0.05185 0.75186 1.23900
Zn	Zn	0.87332 0.24516 0.74785 1.23900
O 	O 	0.97060 0.14020 0.81790 -0.46800
O 	O 	0.81000 0.05180 0.86490 -0.47000
C 	C 	0.07070 0.01390 0.90760 -0.10800
C 	C 	0.06290 0.95300 0.98090 0.04200
H 	H 	0.97410 0.94840 0.00160 0.06000
C 	C 	0.18660 0.89870 0.02360 -0.08000
C 	C 	0.31610 0.90480 0.99040 0.03200
H 	H 	0.39840 0.86700 0.01770 0.05900
C 	C 	0.32580 0.96590 0.91740 -0.08500
C 	C 	0.20160 0.02120 0.87700 0.05000
H 	H 	0.20710 0.06360 0.82880 0.05900
C 	C 	0.93960 0.07390 0.85890 0.41400
O 	O 	0.06250 0.83210 0.13580 -0.38800
C 	C 	0.18340 0.83440 0.10510 0.30500
O 	O 	0.29380 0.78690 0.14370 -0.32900
O 	O 	0.57010 0.91940 0.90910 -0.25700
C 	C 	0.46520 0.97360 0.88160 0.33200
O 	O 	0.46310 0.03660 0.82120 -0.40900
O 	O 	0.52260 0.15690 0.68100 -0.45900
O 	O 	0.68220 0.24610 0.63450 -0.46700
C 	C 	0.41910 0.28030 0.58760 -0.11500
C 	C 	0.42840 0.34210 0.51490 0.04600
H 	H 	0.51690 0.34640 0.49370 0.05900
C 	C 	0.30540 0.39730 0.47390 -0.08000
C 	C 	0.17540 0.39150 0.50610 0.03400
H 	H 	0.09390 0.42990 0.47950 0.05800
C 	C 	0.16490 0.32950 0.57730 -0.08700
C 	C 	0.28760 0.27370 0.61750 0.05200
H 	H 	0.28090 0.23130 0.66530 0.05700
C 	C 	0.55220 0.22420 0.63780 0.41100
O 	O 	0.43060 0.46470 0.36190 -0.39800
C 	C 	0.31150 0.46360 0.39350 0.31000
O 	O 	0.20330 0.51350 0.35780 -0.32300
O 	O 	0.92340 0.37570 0.58950 -0.26500
C 	C 	0.02630 0.32320 0.61500 0.33900
O 	O 	0.02780 0.25860 0.67560 -0.40600
