data_crystal

_cell_length_a 20.46100
_cell_length_b 20.46100
_cell_length_c 17.82790
_cell_angle_alpha 90.00000
_cell_angle_beta  90.00000
_cell_angle_gamma 90.00000

_symmetry_space_group_name_	'P 1'
_symmetry_space_group_name_H-M	'P 1'

loop_
_symmetry_equiv_pos_as_xyz
  x,y,z

loop_
_atom_site_label
_atom_site_type_symbol
_atom_site_fract_x
_atom_site_fract_y
_atom_site_fract_z
_atom_site_charge
Co	Co	0.25775 0.11894 0.65066 1.18200
O 	O 	0.23579 0.12901 0.75574 -0.43400
O 	O 	0.31272 0.05840 0.76675 -0.29900
O 	O 	0.25867 0.96501 0.09771 -0.42500
O 	O 	0.33861 0.94542 0.01277 -0.43400
O 	O 	0.17302 0.19279 0.09710 -0.41900
O 	O 	0.16041 0.24298 0.98841 -0.36800
C 	C 	0.27144 0.09400 0.79431 0.31800
C 	C 	0.26224 0.09421 0.87818 0.02100
C 	C 	0.22804 0.14416 0.91352 -0.12100
H 	H 	0.21340 0.17970 0.88560 0.10100
C 	C 	0.21558 0.14162 0.98956 0.16600
C 	C 	0.23740 0.08830 0.03101 -0.29200
H 	H 	0.22890 0.08620 0.08220 0.15300
C 	C 	0.27159 0.03856 0.99651 0.16000
C 	C 	0.28432 0.04214 0.91946 -0.11200
H 	H 	0.30790 0.00900 0.89610 0.10400
C 	C 	0.18078 0.19740 0.02771 0.19000
C 	C 	0.29150 0.97718 0.03888 0.25000
Co	Co	0.75775 0.61894 0.15066 1.17700
O 	O 	0.73579 0.62901 0.25574 -0.45500
O 	O 	0.81272 0.55840 0.26675 -0.31800
O 	O 	0.75867 0.46501 0.59771 -0.44400
O 	O 	0.83861 0.44542 0.51277 -0.43700
O 	O 	0.67302 0.69279 0.59710 -0.46300
O 	O 	0.66041 0.74298 0.48841 -0.47600
C 	C 	0.77144 0.59400 0.29431 0.37400
C 	C 	0.76224 0.59421 0.37818 -0.13300
C 	C 	0.72804 0.64416 0.41352 0.08200
H 	H 	0.71340 0.67970 0.38560 0.02900
C 	C 	0.71558 0.64162 0.48956 -0.14500
C 	C 	0.73740 0.58830 0.53101 0.08100
H 	H 	0.72890 0.58620 0.58220 0.03700
C 	C 	0.77159 0.53856 0.49651 -0.12700
C 	C 	0.78432 0.54214 0.41946 0.07400
H 	H 	0.80790 0.50900 0.39610 0.03100
C 	C 	0.68078 0.69740 0.52771 0.41100
C 	C 	0.79150 0.47718 0.53888 0.38400
Co	Co	0.74225 0.88106 0.65066 1.18300
O 	O 	0.76421 0.87099 0.75574 -0.43300
O 	O 	0.68728 0.94160 0.76675 -0.29800
O 	O 	0.74133 0.03499 0.09771 -0.42400
O 	O 	0.66139 0.05458 0.01277 -0.43400
O 	O 	0.82698 0.80721 0.09710 -0.41900
O 	O 	0.83959 0.75702 0.98841 -0.36800
C 	C 	0.72856 0.90600 0.79431 0.31800
C 	C 	0.73776 0.90579 0.87818 0.02100
C 	C 	0.77196 0.85584 0.91352 -0.12100
H 	H 	0.78660 0.82030 0.88560 0.10100
C 	C 	0.78442 0.85838 0.98956 0.16600
C 	C 	0.76260 0.91170 0.03101 -0.29200
H 	H 	0.77110 0.91380 0.08220 0.15300
C 	C 	0.72841 0.96144 0.99651 0.16000
C 	C 	0.71568 0.95786 0.91946 -0.11200
H 	H 	0.69210 0.99100 0.89610 0.10400
C 	C 	0.81922 0.80260 0.02771 0.19000
C 	C 	0.70850 0.02282 0.03888 0.25000
Co	Co	0.24225 0.38106 0.15066 1.17700
O 	O 	0.26421 0.37099 0.25574 -0.45500
O 	O 	0.18728 0.44160 0.26675 -0.31800
O 	O 	0.24133 0.53499 0.59771 -0.44400
O 	O 	0.16139 0.55458 0.51277 -0.43700
O 	O 	0.32698 0.30721 0.59710 -0.46300
O 	O 	0.33959 0.25702 0.48841 -0.47600
C 	C 	0.22856 0.40600 0.29431 0.37400
C 	C 	0.23776 0.40579 0.37818 -0.13300
C 	C 	0.27196 0.35584 0.41352 0.08200
H 	H 	0.28660 0.32030 0.38560 0.02900
C 	C 	0.28442 0.35838 0.48956 -0.14500
C 	C 	0.26260 0.41170 0.53101 0.08100
H 	H 	0.27110 0.41380 0.58220 0.03700
C 	C 	0.22841 0.46144 0.49651 -0.12700
C 	C 	0.21568 0.45786 0.41946 0.07400
H 	H 	0.19210 0.49100 0.39610 0.03100
C 	C 	0.31922 0.30260 0.52771 0.41100
C 	C 	0.20850 0.52282 0.53888 0.38400
Co	Co	0.88106 0.25775 0.65066 1.18300
O 	O 	0.87099 0.23579 0.75574 -0.43300
O 	O 	0.94160 0.31272 0.76675 -0.29800
O 	O 	0.03499 0.25867 0.09771 -0.42400
O 	O 	0.05458 0.33861 0.01277 -0.43400
O 	O 	0.80721 0.17302 0.09710 -0.41900
O 	O 	0.75702 0.16041 0.98841 -0.36800
C 	C 	0.90600 0.27144 0.79431 0.31800
C 	C 	0.90579 0.26224 0.87818 0.02100
C 	C 	0.85584 0.22804 0.91352 -0.12100
H 	H 	0.82030 0.21340 0.88560 0.10100
C 	C 	0.85838 0.21558 0.98956 0.16600
C 	C 	0.91170 0.23740 0.03101 -0.29200
H 	H 	0.91380 0.22890 0.08220 0.15300
C 	C 	0.96144 0.27159 0.99651 0.16000
C 	C 	0.95786 0.28432 0.91946 -0.11200
H 	H 	0.99100 0.30790 0.89610 0.10400
C 	C 	0.80260 0.18078 0.02771 0.19000
C 	C 	0.02282 0.29150 0.03888 0.25000
Co	Co	0.38106 0.75775 0.15066 1.17700
O 	O 	0.37099 0.73579 0.25574 -0.45500
O 	O 	0.44160 0.81272 0.26675 -0.31800
O 	O 	0.53499 0.75867 0.59771 -0.44400
O 	O 	0.55458 0.83861 0.51277 -0.43700
O 	O 	0.30721 0.67302 0.59710 -0.46300
O 	O 	0.25702 0.66041 0.48841 -0.47600
C 	C 	0.40600 0.77144 0.29431 0.37400
C 	C 	0.40579 0.76224 0.37818 -0.13300
C 	C 	0.35584 0.72804 0.41352 0.08200
H 	H 	0.32030 0.71340 0.38560 0.02900
C 	C 	0.35838 0.71558 0.48956 -0.14500
C 	C 	0.41170 0.73740 0.53101 0.08100
H 	H 	0.41380 0.72890 0.58220 0.03700
C 	C 	0.46144 0.77159 0.49651 -0.12700
C 	C 	0.45786 0.78432 0.41946 0.07400
H 	H 	0.49100 0.80790 0.39610 0.03100
C 	C 	0.30260 0.68078 0.52771 0.41100
C 	C 	0.52282 0.79150 0.53888 0.38400
Co	Co	0.11894 0.74225 0.65066 1.18300
O 	O 	0.12901 0.76421 0.75574 -0.43300
O 	O 	0.05840 0.68728 0.76675 -0.29800
O 	O 	0.96501 0.74133 0.09771 -0.42400
O 	O 	0.94542 0.66139 0.01277 -0.43400
O 	O 	0.19279 0.82698 0.09710 -0.41900
O 	O 	0.24298 0.83959 0.98841 -0.36800
C 	C 	0.09400 0.72856 0.79431 0.31800
C 	C 	0.09421 0.73776 0.87818 0.02100
C 	C 	0.14416 0.77196 0.91352 -0.12100
H 	H 	0.17970 0.78660 0.88560 0.10100
C 	C 	0.14162 0.78442 0.98956 0.16600
C 	C 	0.08830 0.76260 0.03101 -0.29200
H 	H 	0.08620 0.77110 0.08220 0.15300
C 	C 	0.03856 0.72841 0.99651 0.16000
C 	C 	0.04214 0.71568 0.91946 -0.11200
H 	H 	0.00900 0.69210 0.89610 0.10400
C 	C 	0.19740 0.81922 0.02771 0.19000
C 	C 	0.97718 0.70850 0.03888 0.25000
Co	Co	0.61894 0.24225 0.15066 1.17700
O 	O 	0.62901 0.26421 0.25574 -0.45500
O 	O 	0.55840 0.18728 0.26675 -0.31800
O 	O 	0.46501 0.24133 0.59771 -0.44400
O 	O 	0.44542 0.16139 0.51277 -0.43700
O 	O 	0.69279 0.32698 0.59710 -0.46300
O 	O 	0.74298 0.33959 0.48841 -0.47600
C 	C 	0.59400 0.22856 0.29431 0.37400
C 	C 	0.59421 0.23776 0.37818 -0.13300
C 	C 	0.64416 0.27196 0.41352 0.08200
H 	H 	0.67970 0.28660 0.38560 0.02900
C 	C 	0.64162 0.28442 0.48956 -0.14500
C 	C 	0.58830 0.26260 0.53101 0.08100
H 	H 	0.58620 0.27110 0.58220 0.03700
C 	C 	0.53856 0.22841 0.49651 -0.12700
C 	C 	0.54214 0.21568 0.41946 0.07400
H 	H 	0.50900 0.19210 0.39610 0.03100
C 	C 	0.69740 0.31922 0.52771 0.41100
C 	C 	0.47718 0.20850 0.53888 0.38400
Co	Co	0.25775 0.88106 0.15066 1.17800
O 	O 	0.23579 0.87099 0.25574 -0.45500
O 	O 	0.31272 0.94160 0.26675 -0.31800
O 	O 	0.25867 0.03499 0.59771 -0.44400
O 	O 	0.33861 0.05458 0.51277 -0.43700
O 	O 	0.17302 0.80721 0.59710 -0.46300
O 	O 	0.16041 0.75702 0.48841 -0.47600
C 	C 	0.27144 0.90600 0.29431 0.37400
C 	C 	0.26224 0.90579 0.37818 -0.13300
C 	C 	0.22804 0.85584 0.41352 0.08200
H 	H 	0.21340 0.82030 0.38560 0.02900
C 	C 	0.21558 0.85838 0.48956 -0.14500
C 	C 	0.23740 0.91170 0.53101 0.08100
H 	H 	0.22890 0.91380 0.58220 0.03700
C 	C 	0.27159 0.96144 0.49651 -0.12700
C 	C 	0.28432 0.95786 0.41946 0.07500
H 	H 	0.30790 0.99100 0.39610 0.03100
C 	C 	0.18078 0.80260 0.52771 0.41100
C 	C 	0.29150 0.02282 0.53888 0.38400
Co	Co	0.75775 0.38106 0.65066 1.18300
O 	O 	0.73579 0.37099 0.75574 -0.43300
O 	O 	0.81272 0.44160 0.76675 -0.29800
O 	O 	0.75867 0.53499 0.09771 -0.42400
O 	O 	0.83861 0.55458 0.01277 -0.43400
O 	O 	0.67302 0.30721 0.09710 -0.41800
O 	O 	0.66041 0.25702 0.98841 -0.36700
C 	C 	0.77144 0.40600 0.79431 0.31700
C 	C 	0.76224 0.40579 0.87818 0.02300
C 	C 	0.72804 0.35584 0.91352 -0.12300
H 	H 	0.71340 0.32030 0.88560 0.10200
C 	C 	0.71558 0.35838 0.98956 0.16900
C 	C 	0.73740 0.41170 0.03101 -0.29600
H 	H 	0.72890 0.41380 0.08220 0.15400
C 	C 	0.77159 0.46144 0.99651 0.16300
C 	C 	0.78432 0.45786 0.91946 -0.11400
H 	H 	0.80790 0.49100 0.89610 0.10500
C 	C 	0.68078 0.30260 0.02771 0.18800
C 	C 	0.79150 0.52282 0.03888 0.24900
Co	Co	0.74225 0.11894 0.15066 1.17800
O 	O 	0.76421 0.12901 0.25574 -0.45500
O 	O 	0.68728 0.05840 0.26675 -0.31800
O 	O 	0.74133 0.96501 0.59771 -0.44400
O 	O 	0.66139 0.94542 0.51277 -0.43700
O 	O 	0.82698 0.19279 0.59710 -0.46300
O 	O 	0.83959 0.24298 0.48841 -0.47600
C 	C 	0.72856 0.09400 0.29431 0.37400
C 	C 	0.73776 0.09421 0.37818 -0.13300
C 	C 	0.77196 0.14416 0.41352 0.08200
H 	H 	0.78660 0.17970 0.38560 0.02900
C 	C 	0.78442 0.14162 0.48956 -0.14500
C 	C 	0.76260 0.08830 0.53101 0.08100
H 	H 	0.77110 0.08620 0.58220 0.03700
C 	C 	0.72841 0.03856 0.49651 -0.12700
C 	C 	0.71568 0.04214 0.41946 0.07500
H 	H 	0.69210 0.00900 0.39610 0.03100
C 	C 	0.81922 0.19740 0.52771 0.41100
C 	C 	0.70850 0.97718 0.53888 0.38400
Co	Co	0.24225 0.61894 0.65066 1.18300
O 	O 	0.26421 0.62901 0.75574 -0.43300
O 	O 	0.18728 0.55840 0.76675 -0.29800
O 	O 	0.24133 0.46501 0.09771 -0.42400
O 	O 	0.16139 0.44542 0.01277 -0.43400
O 	O 	0.32698 0.69279 0.09710 -0.41800
O 	O 	0.33959 0.74298 0.98841 -0.36700
C 	C 	0.22856 0.59400 0.79431 0.31700
C 	C 	0.23776 0.59421 0.87818 0.02300
C 	C 	0.27196 0.64416 0.91352 -0.12300
H 	H 	0.28660 0.67970 0.88560 0.10200
C 	C 	0.28442 0.64162 0.98956 0.16900
C 	C 	0.26260 0.58830 0.03101 -0.29600
H 	H 	0.27110 0.58620 0.08220 0.15400
C 	C 	0.22841 0.53856 0.99651 0.16300
C 	C 	0.21568 0.54214 0.91946 -0.11400
H 	H 	0.19210 0.50900 0.89610 0.10500
C 	C 	0.31922 0.69740 0.02771 0.18800
C 	C 	0.20850 0.47718 0.03888 0.24900
Co	Co	0.88106 0.74225 0.15066 1.17800
O 	O 	0.87099 0.76421 0.25574 -0.45500
O 	O 	0.94160 0.68728 0.26675 -0.31800
O 	O 	0.03499 0.74133 0.59771 -0.44400
O 	O 	0.05458 0.66139 0.51277 -0.43700
O 	O 	0.80721 0.82698 0.59710 -0.46300
O 	O 	0.75702 0.83959 0.48841 -0.47600
C 	C 	0.90600 0.72856 0.29431 0.37400
C 	C 	0.90579 0.73776 0.37818 -0.13300
C 	C 	0.85584 0.77196 0.41352 0.08200
H 	H 	0.82030 0.78660 0.38560 0.02900
C 	C 	0.85838 0.78442 0.48956 -0.14500
C 	C 	0.91170 0.76260 0.53101 0.08100
H 	H 	0.91380 0.77110 0.58220 0.03700
C 	C 	0.96144 0.72841 0.49651 -0.12700
C 	C 	0.95786 0.71568 0.41946 0.07500
H 	H 	0.99100 0.69210 0.39610 0.03100
C 	C 	0.80260 0.81922 0.52771 0.41100
C 	C 	0.02282 0.70850 0.53888 0.38400
Co	Co	0.38106 0.24225 0.65066 1.18300
O 	O 	0.37099 0.26421 0.75574 -0.43300
O 	O 	0.44160 0.18728 0.76675 -0.29800
O 	O 	0.53499 0.24133 0.09771 -0.42400
O 	O 	0.55458 0.16139 0.01277 -0.43400
O 	O 	0.30721 0.32698 0.09710 -0.41800
O 	O 	0.25702 0.33959 0.98841 -0.36700
C 	C 	0.40600 0.22856 0.79431 0.31700
C 	C 	0.40579 0.23776 0.87818 0.02300
C 	C 	0.35584 0.27196 0.91352 -0.12300
H 	H 	0.32030 0.28660 0.88560 0.10200
C 	C 	0.35838 0.28442 0.98956 0.16900
C 	C 	0.41170 0.26260 0.03101 -0.29600
H 	H 	0.41380 0.27110 0.08220 0.15400
C 	C 	0.46144 0.22841 0.99651 0.16300
C 	C 	0.45786 0.21568 0.91946 -0.11400
H 	H 	0.49100 0.19210 0.89610 0.10500
C 	C 	0.30260 0.31922 0.02771 0.18800
C 	C 	0.52282 0.20850 0.03888 0.24900
Co	Co	0.11894 0.25775 0.15066 1.17800
O 	O 	0.12901 0.23579 0.25574 -0.45500
O 	O 	0.05840 0.31272 0.26675 -0.31800
O 	O 	0.96501 0.25867 0.59771 -0.44400
O 	O 	0.94542 0.33861 0.51277 -0.43700
O 	O 	0.19279 0.17302 0.59710 -0.46300
O 	O 	0.24298 0.16041 0.48841 -0.47600
C 	C 	0.09400 0.27144 0.29431 0.37400
C 	C 	0.09421 0.26224 0.37818 -0.13300
C 	C 	0.14416 0.22804 0.41352 0.08200
H 	H 	0.17970 0.21340 0.38560 0.02900
C 	C 	0.14162 0.21558 0.48956 -0.14500
C 	C 	0.08830 0.23740 0.53101 0.08100
H 	H 	0.08620 0.22890 0.58220 0.03700
C 	C 	0.03856 0.27159 0.49651 -0.12700
C 	C 	0.04214 0.28432 0.41946 0.07500
H 	H 	0.00900 0.30790 0.39610 0.03100
C 	C 	0.19740 0.18078 0.52771 0.41100
C 	C 	0.97718 0.29150 0.53888 0.38400
Co	Co	0.61894 0.75775 0.65066 1.18300
O 	O 	0.62901 0.73579 0.75574 -0.43300
O 	O 	0.55840 0.81272 0.76675 -0.29800
O 	O 	0.46501 0.75867 0.09771 -0.42400
O 	O 	0.44542 0.83861 0.01277 -0.43400
O 	O 	0.69279 0.67302 0.09710 -0.41800
O 	O 	0.74298 0.66041 0.98841 -0.36700
C 	C 	0.59400 0.77144 0.79431 0.31700
C 	C 	0.59421 0.76224 0.87818 0.02300
C 	C 	0.64416 0.72804 0.91352 -0.12300
H 	H 	0.67970 0.71340 0.88560 0.10200
C 	C 	0.64162 0.71558 0.98956 0.16900
C 	C 	0.58830 0.73740 0.03101 -0.29600
H 	H 	0.58620 0.72890 0.08220 0.15400
C 	C 	0.53856 0.77159 0.99651 0.16300
C 	C 	0.54214 0.78432 0.91946 -0.11400
H 	H 	0.50900 0.80790 0.89610 0.10500
C 	C 	0.69740 0.68078 0.02771 0.18800
C 	C 	0.47718 0.79150 0.03888 0.24900
Zn	Zn	0.34410 0.15590 0.50450 1.21600
O 	O 	0.34076 0.15924 0.62375 -0.63000
Zn	Zn	0.65590 0.84410 0.50450 1.21600
O 	O 	0.65924 0.84076 0.62375 -0.63000
Zn	Zn	0.15590 0.34410 0.00450 1.19400
O 	O 	0.15924 0.34076 0.12375 -0.63600
Zn	Zn	0.84410 0.34410 0.50450 1.21600
O 	O 	0.84076 0.34076 0.62375 -0.63000
Zn	Zn	0.15590 0.65590 0.50450 1.21600
O 	O 	0.15924 0.65924 0.62375 -0.63000
Zn	Zn	0.34410 0.84410 0.00450 1.19400
O 	O 	0.34076 0.84076 0.12375 -0.63600
Zn	Zn	0.65590 0.15590 0.00450 1.19400
O 	O 	0.65924 0.15924 0.12375 -0.63600
Zn	Zn	0.84410 0.65590 0.00450 1.19400
O 	O 	0.84076 0.65924 0.12375 -0.63600
