data_crystal

_cell_length_a 20.60130
_cell_length_b 20.60130
_cell_length_c 17.81830
_cell_angle_alpha 90.00000
_cell_angle_beta  90.00000
_cell_angle_gamma 90.00000

_symmetry_space_group_name_	'P 1'
_symmetry_space_group_name_H-M	'P 1'

loop_
_symmetry_equiv_pos_as_xyz
  x,y,z

loop_
_atom_site_label
_atom_site_type_symbol
_atom_site_fract_x
_atom_site_fract_y
_atom_site_fract_z
_atom_site_charge
Zn	Zn	0.25839 0.11894 0.46489 1.23300
O 	O 	0.24188 0.15940 0.30093 -0.45600
O 	O 	0.19325 0.17236 0.41082 -0.47600
O 	O 	0.12685 0.23570 0.07016 -0.37500
O 	O 	0.05610 0.31370 0.08361 -0.24500
O 	O 	0.96597 0.25680 0.41430 -0.45100
O 	O 	0.94668 0.33768 0.33099 -0.44500
C 	C 	0.19670 0.17950 0.34230 0.40100
C 	C 	0.14090 0.21520 0.30370 -0.11500
C 	C 	0.14380 0.22710 0.22900 0.05100
H 	H 	0.17920 0.21270 0.20120 0.05100
C 	C 	0.09320 0.26150 0.19350 -0.08300
C 	C 	0.04041 0.28464 0.23549 0.04200
H 	H 	0.00740 0.30850 0.21300 0.04900
C 	C 	0.03898 0.27050 0.31280 -0.10200
C 	C 	0.08768 0.23590 0.34730 0.05700
H 	H 	0.08550 0.22640 0.39820 0.04600
C 	C 	0.09180 0.27200 0.10990 0.33000
C 	C 	0.97840 0.29150 0.35630 0.38100
Zn	Zn	0.75839 0.61894 0.96489 1.20200
O 	O 	0.74188 0.65940 0.80093 -0.47000
O 	O 	0.69325 0.67236 0.91082 -0.51600
O 	O 	0.62685 0.73570 0.57016 -0.45200
O 	O 	0.55610 0.81370 0.58361 -0.30800
O 	O 	0.46597 0.75680 0.91430 -0.49300
O 	O 	0.44668 0.83768 0.83099 -0.46500
C 	C 	0.69670 0.67950 0.84230 0.41400
C 	C 	0.64090 0.71520 0.80370 -0.14700
C 	C 	0.64380 0.72710 0.72900 0.07500
H 	H 	0.67920 0.71270 0.70120 0.03100
C 	C 	0.59320 0.76150 0.69350 -0.11700
C 	C 	0.54041 0.78464 0.73549 0.06200
H 	H 	0.50740 0.80850 0.71300 0.03100
C 	C 	0.53898 0.77050 0.81280 -0.13200
C 	C 	0.58768 0.73590 0.84730 0.07800
H 	H 	0.58550 0.72640 0.89820 0.01500
C 	C 	0.59180 0.77200 0.60990 0.35000
C 	C 	0.47840 0.79150 0.85630 0.38800
Zn	Zn	0.74161 0.88106 0.46489 1.23200
O 	O 	0.75812 0.84060 0.30093 -0.45700
O 	O 	0.80675 0.82764 0.41082 -0.47700
O 	O 	0.87315 0.76430 0.07016 -0.37600
O 	O 	0.94390 0.68630 0.08361 -0.24600
O 	O 	0.03403 0.74320 0.41430 -0.45200
O 	O 	0.05332 0.66232 0.33099 -0.44600
C 	C 	0.80330 0.82050 0.34230 0.40000
C 	C 	0.85910 0.78480 0.30370 -0.11500
C 	C 	0.85620 0.77290 0.22900 0.05100
H 	H 	0.82080 0.78730 0.20120 0.05100
C 	C 	0.90680 0.73850 0.19350 -0.08300
C 	C 	0.95959 0.71536 0.23549 0.04200
H 	H 	0.99260 0.69150 0.21300 0.04900
C 	C 	0.96102 0.72950 0.31280 -0.10200
C 	C 	0.91232 0.76410 0.34730 0.05700
H 	H 	0.91450 0.77360 0.39820 0.04600
C 	C 	0.90820 0.72800 0.10990 0.33000
C 	C 	0.02160 0.70850 0.35630 0.38100
Zn	Zn	0.24161 0.38106 0.96489 1.20200
O 	O 	0.25812 0.34060 0.80093 -0.47000
O 	O 	0.30675 0.32764 0.91082 -0.51600
O 	O 	0.37315 0.26430 0.57016 -0.45200
O 	O 	0.44390 0.18630 0.58361 -0.30800
O 	O 	0.53403 0.24320 0.91430 -0.49300
O 	O 	0.55332 0.16232 0.83099 -0.46500
C 	C 	0.30330 0.32050 0.84230 0.41400
C 	C 	0.35910 0.28480 0.80370 -0.14700
C 	C 	0.35620 0.27290 0.72900 0.07500
H 	H 	0.32080 0.28730 0.70120 0.03100
C 	C 	0.40680 0.23850 0.69350 -0.11700
C 	C 	0.45959 0.21536 0.73549 0.06200
H 	H 	0.49260 0.19150 0.71300 0.03100
C 	C 	0.46102 0.22950 0.81280 -0.13200
C 	C 	0.41232 0.26410 0.84730 0.07800
H 	H 	0.41450 0.27360 0.89820 0.01500
C 	C 	0.40820 0.22800 0.60990 0.35000
C 	C 	0.52160 0.20850 0.85630 0.38800
Zn	Zn	0.88106 0.25839 0.46489 1.23200
O 	O 	0.84060 0.24188 0.30093 -0.45700
O 	O 	0.82764 0.19325 0.41082 -0.47700
O 	O 	0.76430 0.12685 0.07016 -0.37600
O 	O 	0.68630 0.05610 0.08361 -0.24600
O 	O 	0.74320 0.96597 0.41430 -0.45200
O 	O 	0.66232 0.94668 0.33099 -0.44600
C 	C 	0.82050 0.19670 0.34230 0.40000
C 	C 	0.78480 0.14090 0.30370 -0.11500
C 	C 	0.77290 0.14380 0.22900 0.05100
H 	H 	0.78730 0.17920 0.20120 0.05100
C 	C 	0.73850 0.09320 0.19350 -0.08300
C 	C 	0.71536 0.04041 0.23549 0.04200
H 	H 	0.69150 0.00740 0.21300 0.04900
C 	C 	0.72950 0.03898 0.31280 -0.10200
C 	C 	0.76410 0.08768 0.34730 0.05700
H 	H 	0.77360 0.08550 0.39820 0.04600
C 	C 	0.72800 0.09180 0.10990 0.33000
C 	C 	0.70850 0.97840 0.35630 0.38100
Zn	Zn	0.38106 0.75839 0.96489 1.20200
O 	O 	0.34060 0.74188 0.80093 -0.47000
O 	O 	0.32764 0.69325 0.91082 -0.51600
O 	O 	0.26430 0.62685 0.57016 -0.45200
O 	O 	0.18630 0.55610 0.58361 -0.30800
O 	O 	0.24320 0.46597 0.91430 -0.49300
O 	O 	0.16232 0.44668 0.83099 -0.46500
C 	C 	0.32050 0.69670 0.84230 0.41400
C 	C 	0.28480 0.64090 0.80370 -0.14700
C 	C 	0.27290 0.64380 0.72900 0.07500
H 	H 	0.28730 0.67920 0.70120 0.03100
C 	C 	0.23850 0.59320 0.69350 -0.11700
C 	C 	0.21536 0.54041 0.73549 0.06200
H 	H 	0.19150 0.50740 0.71300 0.03100
C 	C 	0.22950 0.53898 0.81280 -0.13200
C 	C 	0.26410 0.58768 0.84730 0.07800
H 	H 	0.27360 0.58550 0.89820 0.01500
C 	C 	0.22800 0.59180 0.60990 0.35000
C 	C 	0.20850 0.47840 0.85630 0.38800
Zn	Zn	0.11894 0.74161 0.46489 1.23200
O 	O 	0.15940 0.75812 0.30093 -0.45700
O 	O 	0.17236 0.80675 0.41082 -0.47700
O 	O 	0.23570 0.87315 0.07016 -0.37600
O 	O 	0.31370 0.94390 0.08361 -0.24600
O 	O 	0.25680 0.03403 0.41430 -0.45200
O 	O 	0.33768 0.05332 0.33099 -0.44600
C 	C 	0.17950 0.80330 0.34230 0.40000
C 	C 	0.21520 0.85910 0.30370 -0.11500
C 	C 	0.22710 0.85620 0.22900 0.05100
H 	H 	0.21270 0.82080 0.20120 0.05100
C 	C 	0.26150 0.90680 0.19350 -0.08300
C 	C 	0.28464 0.95959 0.23549 0.04200
H 	H 	0.30850 0.99260 0.21300 0.04900
C 	C 	0.27050 0.96102 0.31280 -0.10200
C 	C 	0.23590 0.91232 0.34730 0.05700
H 	H 	0.22640 0.91450 0.39820 0.04600
C 	C 	0.27200 0.90820 0.10990 0.33000
C 	C 	0.29150 0.02160 0.35630 0.38100
Zn	Zn	0.61894 0.24161 0.96489 1.20200
O 	O 	0.65940 0.25812 0.80093 -0.47000
O 	O 	0.67236 0.30675 0.91082 -0.51600
O 	O 	0.73570 0.37315 0.57016 -0.45200
O 	O 	0.81370 0.44390 0.58361 -0.30800
O 	O 	0.75680 0.53403 0.91430 -0.49300
O 	O 	0.83768 0.55332 0.83099 -0.46500
C 	C 	0.67950 0.30330 0.84230 0.41400
C 	C 	0.71520 0.35910 0.80370 -0.14700
C 	C 	0.72710 0.35620 0.72900 0.07500
H 	H 	0.71270 0.32080 0.70120 0.03100
C 	C 	0.76150 0.40680 0.69350 -0.11700
C 	C 	0.78464 0.45959 0.73549 0.06200
H 	H 	0.80850 0.49260 0.71300 0.03100
C 	C 	0.77050 0.46102 0.81280 -0.13200
C 	C 	0.73590 0.41232 0.84730 0.07800
H 	H 	0.72640 0.41450 0.89820 0.01500
C 	C 	0.77200 0.40820 0.60990 0.35000
C 	C 	0.79150 0.52160 0.85630 0.38800
Zn	Zn	0.25839 0.88106 0.96489 1.20200
O 	O 	0.24188 0.84060 0.80093 -0.47000
O 	O 	0.19325 0.82764 0.91082 -0.51600
O 	O 	0.12685 0.76430 0.57016 -0.45200
O 	O 	0.05610 0.68630 0.58361 -0.30800
O 	O 	0.96597 0.74320 0.91430 -0.49200
O 	O 	0.94668 0.66232 0.83099 -0.46500
C 	C 	0.19670 0.82050 0.84230 0.41400
C 	C 	0.14090 0.78480 0.80370 -0.14700
C 	C 	0.14380 0.77290 0.72900 0.07500
H 	H 	0.17920 0.78730 0.70120 0.03100
C 	C 	0.09320 0.73850 0.69350 -0.11700
C 	C 	0.04041 0.71536 0.73549 0.06200
H 	H 	0.00740 0.69150 0.71300 0.03100
C 	C 	0.03898 0.72950 0.81280 -0.13200
C 	C 	0.08768 0.76410 0.84730 0.07800
H 	H 	0.08550 0.77360 0.89820 0.01600
C 	C 	0.09180 0.72800 0.60990 0.35000
C 	C 	0.97840 0.70850 0.85630 0.38800
Zn	Zn	0.75839 0.38106 0.46489 1.23200
O 	O 	0.74188 0.34060 0.30093 -0.45700
O 	O 	0.69325 0.32764 0.41082 -0.47700
O 	O 	0.62685 0.26430 0.07016 -0.37500
O 	O 	0.55610 0.18630 0.08361 -0.24500
O 	O 	0.46597 0.24320 0.41430 -0.45200
O 	O 	0.44668 0.16232 0.33099 -0.44600
C 	C 	0.69670 0.32050 0.34230 0.40000
C 	C 	0.64090 0.28480 0.30370 -0.11400
C 	C 	0.64380 0.27290 0.22900 0.05100
H 	H 	0.67920 0.28730 0.20120 0.05100
C 	C 	0.59320 0.23850 0.19350 -0.08200
C 	C 	0.54041 0.21536 0.23549 0.04200
H 	H 	0.50740 0.19150 0.21300 0.05000
C 	C 	0.53898 0.22950 0.31280 -0.10100
C 	C 	0.58768 0.26410 0.34730 0.05700
H 	H 	0.58550 0.27360 0.39820 0.04600
C 	C 	0.59180 0.22800 0.10990 0.33000
C 	C 	0.47840 0.20850 0.35630 0.38100
Zn	Zn	0.74161 0.11894 0.96489 1.20200
O 	O 	0.75812 0.15940 0.80093 -0.47000
O 	O 	0.80675 0.17236 0.91082 -0.51600
O 	O 	0.87315 0.23570 0.57016 -0.45200
O 	O 	0.94390 0.31370 0.58361 -0.30800
O 	O 	0.03403 0.25680 0.91430 -0.49200
O 	O 	0.05332 0.33768 0.83099 -0.46500
C 	C 	0.80330 0.17950 0.84230 0.41400
C 	C 	0.85910 0.21520 0.80370 -0.14700
C 	C 	0.85620 0.22710 0.72900 0.07500
H 	H 	0.82080 0.21270 0.70120 0.03100
C 	C 	0.90680 0.26150 0.69350 -0.11700
C 	C 	0.95959 0.28464 0.73549 0.06200
H 	H 	0.99260 0.30850 0.71300 0.03100
C 	C 	0.96102 0.27050 0.81280 -0.13200
C 	C 	0.91232 0.23590 0.84730 0.07800
H 	H 	0.91450 0.22640 0.89820 0.01600
C 	C 	0.90820 0.27200 0.60990 0.35000
C 	C 	0.02160 0.29150 0.85630 0.38800
Zn	Zn	0.24161 0.61894 0.46489 1.23200
O 	O 	0.25812 0.65940 0.30093 -0.45700
O 	O 	0.30675 0.67236 0.41082 -0.47700
O 	O 	0.37315 0.73570 0.07016 -0.37500
O 	O 	0.44390 0.81370 0.08361 -0.24500
O 	O 	0.53403 0.75680 0.41430 -0.45200
O 	O 	0.55332 0.83768 0.33099 -0.44600
C 	C 	0.30330 0.67950 0.34230 0.40000
C 	C 	0.35910 0.71520 0.30370 -0.11400
C 	C 	0.35620 0.72710 0.22900 0.05100
H 	H 	0.32080 0.71270 0.20120 0.05100
C 	C 	0.40680 0.76150 0.19350 -0.08200
C 	C 	0.45959 0.78464 0.23549 0.04200
H 	H 	0.49260 0.80850 0.21300 0.05000
C 	C 	0.46102 0.77050 0.31280 -0.10100
C 	C 	0.41232 0.73590 0.34730 0.05700
H 	H 	0.41450 0.72640 0.39820 0.04600
C 	C 	0.40820 0.77200 0.10990 0.33000
C 	C 	0.52160 0.79150 0.35630 0.38100
Zn	Zn	0.88106 0.74161 0.96489 1.20200
O 	O 	0.84060 0.75812 0.80093 -0.47000
O 	O 	0.82764 0.80675 0.91082 -0.51600
O 	O 	0.76430 0.87315 0.57016 -0.45200
O 	O 	0.68630 0.94390 0.58361 -0.30800
O 	O 	0.74320 0.03403 0.91430 -0.49200
O 	O 	0.66232 0.05332 0.83099 -0.46500
C 	C 	0.82050 0.80330 0.84230 0.41400
C 	C 	0.78480 0.85910 0.80370 -0.14700
C 	C 	0.77290 0.85620 0.72900 0.07500
H 	H 	0.78730 0.82080 0.70120 0.03100
C 	C 	0.73850 0.90680 0.69350 -0.11700
C 	C 	0.71536 0.95959 0.73549 0.06200
H 	H 	0.69150 0.99260 0.71300 0.03100
C 	C 	0.72950 0.96102 0.81280 -0.13200
C 	C 	0.76410 0.91232 0.84730 0.07800
H 	H 	0.77360 0.91450 0.89820 0.01600
C 	C 	0.72800 0.90820 0.60990 0.35000
C 	C 	0.70850 0.02160 0.85630 0.38800
Zn	Zn	0.38106 0.24161 0.46489 1.23200
O 	O 	0.34060 0.25812 0.30093 -0.45700
O 	O 	0.32764 0.30675 0.41082 -0.47700
O 	O 	0.26430 0.37315 0.07016 -0.37500
O 	O 	0.18630 0.44390 0.08361 -0.24500
O 	O 	0.24320 0.53403 0.41430 -0.45200
O 	O 	0.16232 0.55332 0.33099 -0.44600
C 	C 	0.32050 0.30330 0.34230 0.40000
C 	C 	0.28480 0.35910 0.30370 -0.11400
C 	C 	0.27290 0.35620 0.22900 0.05100
H 	H 	0.28730 0.32080 0.20120 0.05100
C 	C 	0.23850 0.40680 0.19350 -0.08200
C 	C 	0.21536 0.45959 0.23549 0.04200
H 	H 	0.19150 0.49260 0.21300 0.05000
C 	C 	0.22950 0.46102 0.31280 -0.10100
C 	C 	0.26410 0.41232 0.34730 0.05700
H 	H 	0.27360 0.41450 0.39820 0.04600
C 	C 	0.22800 0.40820 0.10990 0.33000
C 	C 	0.20850 0.52160 0.35630 0.38100
Zn	Zn	0.11894 0.25839 0.96489 1.20200
O 	O 	0.15940 0.24188 0.80093 -0.47000
O 	O 	0.17236 0.19325 0.91082 -0.51600
O 	O 	0.23570 0.12685 0.57016 -0.45200
O 	O 	0.31370 0.05610 0.58361 -0.30800
O 	O 	0.25680 0.96597 0.91430 -0.49200
O 	O 	0.33768 0.94668 0.83099 -0.46500
C 	C 	0.17950 0.19670 0.84230 0.41400
C 	C 	0.21520 0.14090 0.80370 -0.14700
C 	C 	0.22710 0.14380 0.72900 0.07500
H 	H 	0.21270 0.17920 0.70120 0.03100
C 	C 	0.26150 0.09320 0.69350 -0.11700
C 	C 	0.28464 0.04041 0.73549 0.06200
H 	H 	0.30850 0.00740 0.71300 0.03100
C 	C 	0.27050 0.03898 0.81280 -0.13200
C 	C 	0.23590 0.08768 0.84730 0.07800
H 	H 	0.22640 0.08550 0.89820 0.01600
C 	C 	0.27200 0.09180 0.60990 0.35000
C 	C 	0.29150 0.97840 0.85630 0.38800
Zn	Zn	0.61894 0.75839 0.46489 1.23200
O 	O 	0.65940 0.74188 0.30093 -0.45700
O 	O 	0.67236 0.69325 0.41082 -0.47700
O 	O 	0.73570 0.62685 0.07016 -0.37500
O 	O 	0.81370 0.55610 0.08361 -0.24500
O 	O 	0.75680 0.46597 0.41430 -0.45200
O 	O 	0.83768 0.44668 0.33099 -0.44600
C 	C 	0.67950 0.69670 0.34230 0.40000
C 	C 	0.71520 0.64090 0.30370 -0.11400
C 	C 	0.72710 0.64380 0.22900 0.05100
H 	H 	0.71270 0.67920 0.20120 0.05100
C 	C 	0.76150 0.59320 0.19350 -0.08200
C 	C 	0.78464 0.54041 0.23549 0.04200
H 	H 	0.80850 0.50740 0.21300 0.05000
C 	C 	0.77050 0.53898 0.31280 -0.10100
C 	C 	0.73590 0.58768 0.34730 0.05700
H 	H 	0.72640 0.58550 0.39820 0.04600
C 	C 	0.77200 0.59180 0.10990 0.33000
C 	C 	0.79150 0.47840 0.35630 0.38100
Cd	Cd	0.34589 0.15411 0.31584 1.25100
O 	O 	0.34011 0.15989 0.43730 -0.66300
Cd	Cd	0.65411 0.84589 0.31584 1.25100
O 	O 	0.65989 0.84011 0.43730 -0.66300
Cd	Cd	0.15411 0.34589 0.81584 1.24800
O 	O 	0.15989 0.34011 0.93730 -0.70800
Cd	Cd	0.84589 0.34589 0.31584 1.25100
O 	O 	0.84011 0.34011 0.43730 -0.66300
Cd	Cd	0.15411 0.65411 0.31584 1.25100
O 	O 	0.15989 0.65989 0.43730 -0.66300
Cd	Cd	0.34589 0.84589 0.81584 1.24800
O 	O 	0.34011 0.84011 0.93730 -0.70800
Cd	Cd	0.65411 0.15411 0.81584 1.24800
O 	O 	0.65989 0.15989 0.93730 -0.70800
Cd	Cd	0.84589 0.65411 0.81584 1.24800
O 	O 	0.84011 0.65989 0.93730 -0.70800
