data_crystal

_cell_length_a 17.10060
_cell_length_b 17.10060
_cell_length_c 10.75250
_cell_angle_alpha 90.00000
_cell_angle_beta  90.00000
_cell_angle_gamma 90.00000

_symmetry_space_group_name_	'P 1'
_symmetry_space_group_name_H-M	'P 1'

loop_
_symmetry_equiv_pos_as_xyz
  x,y,z

loop_
_atom_site_label
_atom_site_type_symbol
_atom_site_fract_x
_atom_site_fract_y
_atom_site_fract_z
_atom_site_charge
W 	W 	0.30815 0.58802 0.05378 1.16400
P 	P 	0.13448 0.66721 0.05305 0.46900
O 	O 	0.39990 0.54270 0.08410 -0.46800
O 	O 	0.20360 0.63220 0.97680 -0.25900
O 	O 	0.31900 0.67630 0.13930 -0.45500
O 	O 	0.28370 0.50120 0.91560 -0.38100
O 	O 	0.10760 0.60490 0.14960 -0.36900
O 	O 	0.15960 0.74240 0.11770 -0.38200
O 	O 	0.06640 0.67860 0.96620 -0.39500
W 	W 	0.80815 0.08802 0.55378 1.25900
P 	P 	0.63448 0.16721 0.55305 0.55200
O 	O 	0.89990 0.04270 0.58410 -0.40900
O 	O 	0.70360 0.13220 0.47680 -0.32300
O 	O 	0.81900 0.17630 0.63930 -0.43500
O 	O 	0.78370 0.00120 0.41560 -0.46200
O 	O 	0.60760 0.10490 0.64960 -0.33700
O 	O 	0.65960 0.24240 0.61770 -0.35800
O 	O 	0.56640 0.17860 0.46620 -0.39600
W 	W 	0.19185 0.41198 0.55378 1.25900
P 	P 	0.36552 0.33279 0.55305 0.55300
O 	O 	0.10010 0.45730 0.58410 -0.50600
O 	O 	0.29640 0.36780 0.47680 -0.32000
O 	O 	0.18100 0.32370 0.63930 -0.47600
O 	O 	0.21630 0.49880 0.41560 -0.40700
O 	O 	0.39240 0.39510 0.64960 -0.33200
O 	O 	0.34040 0.25760 0.61770 -0.36500
O 	O 	0.43360 0.32140 0.46620 -0.39000
W 	W 	0.69185 0.91198 0.05378 1.16200
P 	P 	0.86552 0.83279 0.05305 0.46500
O 	O 	0.60010 0.95730 0.08410 -0.43600
O 	O 	0.79640 0.86780 0.97680 -0.23200
O 	O 	0.68100 0.82370 0.13930 -0.45500
O 	O 	0.71630 0.99880 0.91560 -0.30300
O 	O 	0.89240 0.89510 0.14960 -0.29600
O 	O 	0.84040 0.75760 0.11770 -0.34200
O 	O 	0.93360 0.82140 0.96620 -0.23700
W 	W 	0.16198 0.55815 0.30378 1.25400
P 	P 	0.08279 0.38448 0.30305 0.55000
O 	O 	0.20730 0.64990 0.33410 -0.47000
O 	O 	0.11780 0.45360 0.22680 -0.34500
O 	O 	0.07370 0.56900 0.38930 -0.50900
O 	O 	0.24880 0.53370 0.16560 -0.40700
O 	O 	0.14510 0.35760 0.39960 -0.34800
O 	O 	0.00760 0.40960 0.36770 -0.44300
O 	O 	0.07140 0.31640 0.21620 -0.44100
W 	W 	0.66198 0.05815 0.80378 1.15500
P 	P 	0.58279 0.88448 0.80305 0.54800
O 	O 	0.70730 0.14990 0.83410 -0.44000
O 	O 	0.61780 0.95360 0.72680 -0.26100
O 	O 	0.57370 0.06900 0.88930 -0.44600
O 	O 	0.74880 0.03370 0.66560 -0.41800
O 	O 	0.64510 0.85760 0.89960 -0.29000
O 	O 	0.50760 0.90960 0.86770 -0.30600
O 	O 	0.57140 0.81640 0.71620 -0.37700
W 	W 	0.33802 0.44185 0.80378 1.25900
P 	P 	0.41721 0.61552 0.80305 0.55100
O 	O 	0.29270 0.35010 0.83410 -0.45500
O 	O 	0.38220 0.54640 0.72680 -0.31600
O 	O 	0.42630 0.43100 0.88930 -0.43300
O 	O 	0.25120 0.46630 0.66560 -0.41300
O 	O 	0.35490 0.64240 0.89960 -0.29800
O 	O 	0.49240 0.59040 0.86770 -0.33600
O 	O 	0.42860 0.68360 0.71620 -0.38300
W 	W 	0.83802 0.94185 0.30378 1.35300
P 	P 	0.91721 0.11552 0.30305 0.55200
O 	O 	0.79270 0.85010 0.33410 -0.45700
O 	O 	0.88220 0.04640 0.22680 -0.34900
O 	O 	0.92630 0.93100 0.38930 -0.36100
O 	O 	0.75120 0.96630 0.16560 -0.38300
O 	O 	0.85490 0.14240 0.39960 -0.32100
O 	O 	0.99240 0.09040 0.36770 -0.26900
O 	O 	0.92860 0.18360 0.21620 -0.32100
W 	W 	0.69185 0.41198 0.94622 1.35400
P 	P 	0.86552 0.33279 0.94695 0.62800
O 	O 	0.60010 0.45730 0.91590 -0.44900
O 	O 	0.79640 0.36780 0.02320 -0.36800
O 	O 	0.68100 0.32370 0.86070 -0.46000
O 	O 	0.71630 0.49880 0.08440 -0.43000
O 	O 	0.89240 0.39510 0.85040 -0.29400
O 	O 	0.84040 0.25760 0.88230 -0.33500
O 	O 	0.93360 0.32140 0.03380 -0.34200
W 	W 	0.19185 0.91198 0.44622 1.26000
P 	P 	0.36552 0.83279 0.44695 0.55400
O 	O 	0.10010 0.95730 0.41590 -0.47600
O 	O 	0.29640 0.86780 0.52320 -0.30800
O 	O 	0.18100 0.82370 0.36070 -0.47800
O 	O 	0.21630 0.99880 0.58440 -0.34200
O 	O 	0.39240 0.89510 0.35040 -0.32900
O 	O 	0.34040 0.75760 0.38230 -0.36300
O 	O 	0.43360 0.82140 0.53380 -0.38000
W 	W 	0.80815 0.58802 0.44622 1.26100
P 	P 	0.63448 0.66721 0.44695 0.55300
O 	O 	0.89990 0.54270 0.41590 -0.39200
O 	O 	0.70360 0.63220 0.52320 -0.31300
O 	O 	0.81900 0.67630 0.36070 -0.43700
O 	O 	0.78370 0.50120 0.58440 -0.40400
O 	O 	0.60760 0.60490 0.35040 -0.33400
O 	O 	0.65960 0.74240 0.38230 -0.35600
O 	O 	0.56640 0.67860 0.53380 -0.38600
W 	W 	0.30815 0.08802 0.94622 1.34400
P 	P 	0.13448 0.16721 0.94695 0.62600
O 	O 	0.39990 0.04270 0.91590 -0.47400
O 	O 	0.20360 0.13220 0.02320 -0.39000
O 	O 	0.31900 0.17630 0.86070 -0.45800
O 	O 	0.28370 0.00120 0.08440 -0.50100
O 	O 	0.10760 0.10490 0.85040 -0.36900
O 	O 	0.15960 0.24240 0.88230 -0.37500
O 	O 	0.06640 0.17860 0.03380 -0.50100
W 	W 	0.83802 0.44185 0.69622 1.26700
P 	P 	0.91721 0.61552 0.69695 0.55100
O 	O 	0.79270 0.35010 0.66590 -0.45400
O 	O 	0.88220 0.54640 0.77320 -0.28400
O 	O 	0.92630 0.43100 0.61070 -0.37800
O 	O 	0.75120 0.46630 0.83440 -0.40600
O 	O 	0.85490 0.64240 0.60040 -0.31400
O 	O 	0.99240 0.59040 0.63230 -0.24900
O 	O 	0.92860 0.68360 0.78380 -0.30200
W 	W 	0.33802 0.94185 0.19622 1.36000
P 	P 	0.41721 0.11552 0.19695 0.55700
O 	O 	0.29270 0.85010 0.16590 -0.48400
O 	O 	0.38220 0.04640 0.27320 -0.36900
O 	O 	0.42630 0.93100 0.11070 -0.45400
O 	O 	0.25120 0.96630 0.33440 -0.39400
O 	O 	0.35490 0.14240 0.10040 -0.36900
O 	O 	0.49240 0.09040 0.13230 -0.39300
O 	O 	0.42860 0.18360 0.28380 -0.39900
W 	W 	0.66198 0.55815 0.19622 1.26300
P 	P 	0.58279 0.38448 0.19695 0.55500
O 	O 	0.70730 0.64990 0.16590 -0.47000
O 	O 	0.61780 0.45360 0.27320 -0.31700
O 	O 	0.57370 0.56900 0.11070 -0.47400
O 	O 	0.74880 0.53370 0.33440 -0.40000
O 	O 	0.64510 0.35760 0.10040 -0.36500
O 	O 	0.50760 0.40960 0.13230 -0.37700
O 	O 	0.57140 0.31640 0.28380 -0.39200
W 	W 	0.16198 0.05815 0.69622 1.15500
P 	P 	0.08279 0.88448 0.69695 0.54800
O 	O 	0.20730 0.14990 0.66590 -0.46600
O 	O 	0.11780 0.95360 0.77320 -0.27100
O 	O 	0.07370 0.06900 0.61070 -0.52000
O 	O 	0.24880 0.03370 0.83440 -0.43200
O 	O 	0.14510 0.85760 0.60040 -0.33900
O 	O 	0.00760 0.90960 0.63230 -0.40800
O 	O 	0.07140 0.81640 0.78380 -0.41900
Co	Co	0.25000 0.75000 0.25000 1.21400
Co	Co	0.25000 0.25000 0.75000 1.21600
Co	Co	0.00000 0.50000 0.50000 1.13300
Co	Co	0.50000 0.00000 -0.00000 1.15900
Co	Co	0.50000 0.50000 -0.00000 1.19000
Co	Co	0.00000 0.00000 0.50000 1.09700
Co	Co	0.75000 0.25000 0.75000 1.21900
Co	Co	0.75000 0.75000 0.25000 1.21700
Co	Co	0.00000 0.75000 0.87500 1.13400
Co	Co	0.50000 0.25000 0.37500 1.20900
Co	Co	0.00000 0.25000 0.12500 1.12300
Co	Co	0.50000 0.75000 0.62500 1.21300
