data_crystal

_cell_length_a 10.44510
_cell_length_b 12.45480
_cell_length_c 28.64870
_cell_angle_alpha 90.00000
_cell_angle_beta  90.00000
_cell_angle_gamma 90.00000

_symmetry_space_group_name_	'P 1'
_symmetry_space_group_name_H-M	'P 1'

loop_
_symmetry_equiv_pos_as_xyz
  x,y,z

loop_
_atom_site_label
_atom_site_type_symbol
_atom_site_fract_x
_atom_site_fract_y
_atom_site_fract_z
_atom_site_charge
Cd	Cd	0.76681 0.15171 0.93909 1.13000
C 	C 	0.04390 0.08330 0.98280 0.16100
H 	H 	0.06080 0.15540 0.97690 -0.10700
C 	C 	0.91130 0.93970 0.97830 0.18700
H 	H 	0.83430 0.90910 0.96900 -0.08600
C 	C 	0.99840 0.87500 0.00070 -0.35300
H 	H 	0.97740 0.80380 0.00700 0.13500
C 	C 	0.13520 0.02280 0.00490 -0.33800
H 	H 	0.21160 0.05510 0.01400 0.09400
C 	C 	0.11660 0.91430 0.01410 0.34100
C 	C 	0.21000 0.84910 0.03820 -0.61000
H 	H 	0.28170 0.89460 0.04670 0.18200
H 	H 	0.24170 0.79540 0.01660 0.19100
C 	C 	0.16440 0.79350 0.08090 0.44600
H 	H 	0.09730 0.74350 0.07210 -0.12200
H 	H 	0.23460 0.75200 0.09370 -0.12100
C 	C 	0.11500 0.86470 0.11730 -0.61000
H 	H 	0.05880 0.91670 0.10270 0.20500
H 	H 	0.18670 0.90400 0.13040 0.19200
C 	C 	0.04280 0.81270 0.15720 0.37300
C 	C 	0.93390 0.75190 0.14880 -0.34600
H 	H 	0.90510 0.74370 0.11830 0.13900
C 	C 	0.86710 0.70310 0.18470 0.18500
H 	H 	0.79630 0.66070 0.17770 -0.04200
C 	C 	0.06980 0.82270 0.20290 -0.41700
H 	H 	0.14160 0.86120 0.21230 0.16100
C 	C 	0.99400 0.77780 0.23480 0.25900
H 	H 	0.01180 0.79490 0.26570 -0.06100
C 	C 	0.13740 0.55240 0.65710 0.18000
H 	H 	0.05890 0.57320 0.64470 -0.08200
C 	C 	0.14440 0.51910 0.70450 -0.33600
H 	H 	0.07210 0.52700 0.72310 0.13300
C 	C 	0.34310 0.51650 0.64960 0.16000
H 	H 	0.41550 0.51600 0.63080 -0.06300
C 	C 	0.35650 0.47730 0.69450 -0.27500
H 	H 	0.43400 0.45120 0.70570 0.12600
C 	C 	0.24310 0.47960 0.72250 0.27200
C 	C 	0.26500 0.42220 0.77100 -0.38400
H 	H 	0.19040 0.38010 0.77930 0.13000
H 	H 	0.33830 0.37440 0.76910 0.14200
C 	C 	0.28900 0.50770 0.80740 0.17000
H 	H 	0.37000 0.54280 0.80160 -0.02200
H 	H 	0.22160 0.56140 0.80610 -0.03400
C 	C 	0.29010 0.45520 0.85460 -0.35600
H 	H 	0.21200 0.41340 0.85700 0.10800
H 	H 	0.28370 0.51230 0.87750 0.11300
C 	C 	0.40190 0.38080 0.87040 0.22500
C 	C 	0.52000 0.37250 0.84940 -0.29600
H 	H 	0.53640 0.41080 0.82220 0.12700
C 	C 	0.61020 0.31100 0.86740 0.16400
H 	H 	0.68820 0.30790 0.85180 -0.07100
C 	C 	0.38700 0.32180 0.90980 -0.27100
H 	H 	0.30930 0.32400 0.92560 0.07100
C 	C 	0.48640 0.25740 0.92700 0.13600
H 	H 	0.47240 0.21700 0.95390 -0.10000
N 	N 	0.92940 0.04140 0.96920 -0.31600
N 	N 	0.90220 0.71570 0.22840 -0.21100
N 	N 	0.59830 0.25220 0.90660 -0.30500
N 	N 	0.23650 0.55440 0.63120 -0.30400
Cd	Cd	0.23319 0.65171 0.56091 1.12900
C 	C 	0.95610 0.58330 0.51720 0.16100
H 	H 	0.93920 0.65540 0.52310 -0.10700
C 	C 	0.08870 0.43970 0.52170 0.18600
H 	H 	0.16570 0.40910 0.53100 -0.08600
C 	C 	0.00160 0.37500 0.49930 -0.35400
H 	H 	0.02260 0.30380 0.49300 0.13500
C 	C 	0.86480 0.52280 0.49510 -0.34000
H 	H 	0.78840 0.55510 0.48600 0.09500
C 	C 	0.88340 0.41430 0.48590 0.34300
C 	C 	0.79000 0.34910 0.46180 -0.61300
H 	H 	0.71830 0.39460 0.45330 0.18200
H 	H 	0.75830 0.29540 0.48340 0.19200
C 	C 	0.83560 0.29350 0.41910 0.44800
H 	H 	0.90270 0.24350 0.42790 -0.12300
H 	H 	0.76540 0.25200 0.40630 -0.12200
C 	C 	0.88500 0.36470 0.38270 -0.61100
H 	H 	0.94120 0.41670 0.39730 0.20600
H 	H 	0.81330 0.40400 0.36960 0.19300
C 	C 	0.95720 0.31270 0.34280 0.37400
C 	C 	0.06610 0.25190 0.35120 -0.34700
H 	H 	0.09490 0.24370 0.38170 0.13900
C 	C 	0.13290 0.20310 0.31530 0.18600
H 	H 	0.20370 0.16070 0.32230 -0.04300
C 	C 	0.93020 0.32270 0.29710 -0.41700
H 	H 	0.85840 0.36120 0.28770 0.16100
C 	C 	0.00600 0.27780 0.26520 0.25900
H 	H 	0.98820 0.29490 0.23430 -0.06100
C 	C 	0.86260 0.05240 0.84290 0.18000
H 	H 	0.94110 0.07320 0.85530 -0.08200
C 	C 	0.85560 0.01910 0.79550 -0.33600
H 	H 	0.92790 0.02700 0.77690 0.13200
C 	C 	0.65690 0.01650 0.85040 0.15900
H 	H 	0.58450 0.01600 0.86920 -0.06300
C 	C 	0.64350 0.97730 0.80550 -0.27400
H 	H 	0.56600 0.95120 0.79430 0.12600
C 	C 	0.75690 0.97960 0.77750 0.27200
C 	C 	0.73500 0.92220 0.72900 -0.38000
H 	H 	0.80960 0.88010 0.72070 0.12900
H 	H 	0.66170 0.87440 0.73090 0.14100
C 	C 	0.71100 0.00770 0.69260 0.16400
H 	H 	0.63000 0.04280 0.69840 -0.02100
H 	H 	0.77840 0.06140 0.69390 -0.03300
C 	C 	0.70990 0.95520 0.64540 -0.34900
H 	H 	0.78800 0.91340 0.64300 0.10700
H 	H 	0.71630 0.01230 0.62250 0.11000
C 	C 	0.59810 0.88080 0.62960 0.22200
C 	C 	0.48000 0.87250 0.65060 -0.29400
H 	H 	0.46360 0.91080 0.67780 0.12700
C 	C 	0.38980 0.81100 0.63260 0.16300
H 	H 	0.31180 0.80790 0.64820 -0.07100
C 	C 	0.61300 0.82180 0.59020 -0.26900
H 	H 	0.69070 0.82400 0.57440 0.07000
C 	C 	0.51360 0.75740 0.57300 0.13500
H 	H 	0.52760 0.71700 0.54610 -0.10000
N 	N 	0.07060 0.54140 0.53080 -0.31500
N 	N 	0.09780 0.21570 0.27160 -0.21100
N 	N 	0.40170 0.75220 0.59340 -0.30400
N 	N 	0.76350 0.05440 0.86880 -0.30400
Cd	Cd	0.73319 0.84829 0.43909 1.12900
C 	C 	0.45610 0.91670 0.48280 0.16200
H 	H 	0.43920 0.84460 0.47690 -0.10700
C 	C 	0.58870 0.06030 0.47830 0.18600
H 	H 	0.66570 0.09090 0.46900 -0.08600
C 	C 	0.50160 0.12500 0.50070 -0.35500
H 	H 	0.52260 0.19620 0.50700 0.13500
C 	C 	0.36480 0.97720 0.50490 -0.34000
H 	H 	0.28840 0.94490 0.51400 0.09500
C 	C 	0.38340 0.08570 0.51410 0.34400
C 	C 	0.29000 0.15090 0.53820 -0.61400
H 	H 	0.21830 0.10540 0.54670 0.18300
H 	H 	0.25830 0.20460 0.51660 0.19300
C 	C 	0.33560 0.20650 0.58090 0.44800
H 	H 	0.40270 0.25650 0.57210 -0.12200
H 	H 	0.26540 0.24800 0.59370 -0.12200
C 	C 	0.38500 0.13530 0.61730 -0.61200
H 	H 	0.44120 0.08330 0.60270 0.20600
H 	H 	0.31330 0.09600 0.63040 0.19300
C 	C 	0.45720 0.18730 0.65720 0.37500
C 	C 	0.56610 0.24810 0.64880 -0.34700
H 	H 	0.59490 0.25630 0.61830 0.14000
C 	C 	0.63290 0.29690 0.68470 0.18600
H 	H 	0.70370 0.33930 0.67770 -0.04300
C 	C 	0.43020 0.17730 0.70290 -0.41700
H 	H 	0.35840 0.13880 0.71230 0.16100
C 	C 	0.50600 0.22220 0.73480 0.25900
H 	H 	0.48820 0.20510 0.76570 -0.06100
C 	C 	0.36260 0.44760 0.15710 0.18000
H 	H 	0.44110 0.42680 0.14470 -0.08200
C 	C 	0.35560 0.48090 0.20450 -0.33600
H 	H 	0.42790 0.47300 0.22310 0.13300
C 	C 	0.15690 0.48350 0.14960 0.16000
H 	H 	0.08450 0.48400 0.13080 -0.06300
C 	C 	0.14350 0.52270 0.19450 -0.27500
H 	H 	0.06600 0.54880 0.20570 0.12600
C 	C 	0.25690 0.52040 0.22250 0.27200
C 	C 	0.23500 0.57780 0.27100 -0.38400
H 	H 	0.30960 0.61990 0.27930 0.13000
H 	H 	0.16170 0.62560 0.26910 0.14200
C 	C 	0.21100 0.49230 0.30740 0.17000
H 	H 	0.13000 0.45720 0.30160 -0.02200
H 	H 	0.27840 0.43860 0.30610 -0.03400
C 	C 	0.20990 0.54480 0.35460 -0.35600
H 	H 	0.28800 0.58660 0.35700 0.10800
H 	H 	0.21630 0.48770 0.37750 0.11300
C 	C 	0.09810 0.61920 0.37040 0.22500
C 	C 	0.98000 0.62750 0.34940 -0.29700
H 	H 	0.96360 0.58920 0.32220 0.12800
C 	C 	0.88980 0.68900 0.36740 0.16500
H 	H 	0.81180 0.69210 0.35180 -0.07100
C 	C 	0.11300 0.67820 0.40980 -0.27100
H 	H 	0.19070 0.67600 0.42560 0.07100
C 	C 	0.01360 0.74260 0.42700 0.13700
H 	H 	0.02760 0.78300 0.45390 -0.10000
N 	N 	0.57060 0.95860 0.46920 -0.31500
N 	N 	0.59780 0.28430 0.72840 -0.21100
N 	N 	0.90170 0.74780 0.40660 -0.30500
N 	N 	0.26350 0.44560 0.13120 -0.30400
Cd	Cd	0.26681 0.34829 0.06091 1.12900
C 	C 	0.54390 0.41670 0.01720 0.16200
H 	H 	0.56080 0.34460 0.02310 -0.10700
C 	C 	0.41130 0.56030 0.02170 0.18700
H 	H 	0.33430 0.59090 0.03100 -0.08600
C 	C 	0.49840 0.62500 0.99930 -0.35500
H 	H 	0.47740 0.69620 0.99300 0.13500
C 	C 	0.63520 0.47720 0.99510 -0.34000
H 	H 	0.71160 0.44490 0.98600 0.09500
C 	C 	0.61660 0.58570 0.98590 0.34500
C 	C 	0.71000 0.65090 0.96180 -0.61500
H 	H 	0.78170 0.60540 0.95330 0.18300
H 	H 	0.74170 0.70460 0.98340 0.19300
C 	C 	0.66440 0.70650 0.91910 0.44900
H 	H 	0.59730 0.75650 0.92790 -0.12300
H 	H 	0.73460 0.74800 0.90630 -0.12200
C 	C 	0.61500 0.63530 0.88270 -0.61300
H 	H 	0.55880 0.58330 0.89730 0.20600
H 	H 	0.68670 0.59600 0.86960 0.19400
C 	C 	0.54280 0.68730 0.84280 0.37500
C 	C 	0.43390 0.74810 0.85120 -0.34800
H 	H 	0.40510 0.75630 0.88170 0.14000
C 	C 	0.36710 0.79690 0.81530 0.18600
H 	H 	0.29630 0.83930 0.82230 -0.04300
C 	C 	0.56980 0.67730 0.79710 -0.41800
H 	H 	0.64160 0.63880 0.78770 0.16100
C 	C 	0.49400 0.72220 0.76520 0.25900
H 	H 	0.51180 0.70510 0.73430 -0.06100
C 	C 	0.63740 0.94760 0.34290 0.18000
H 	H 	0.55890 0.92680 0.35530 -0.08200
C 	C 	0.64440 0.98090 0.29550 -0.33600
H 	H 	0.57210 0.97300 0.27690 0.13200
C 	C 	0.84310 0.98350 0.35040 0.16000
H 	H 	0.91550 0.98400 0.36920 -0.06300
C 	C 	0.85650 0.02270 0.30550 -0.27500
H 	H 	0.93400 0.04880 0.29430 0.12600
C 	C 	0.74310 0.02040 0.27750 0.27200
C 	C 	0.76500 0.07780 0.22900 -0.38200
H 	H 	0.69040 0.11990 0.22070 0.12900
H 	H 	0.83830 0.12560 0.23090 0.14200
C 	C 	0.78900 0.99230 0.19260 0.16700
H 	H 	0.87000 0.95720 0.19840 -0.02100
H 	H 	0.72160 0.93860 0.19390 -0.03300
C 	C 	0.79010 0.04480 0.14540 -0.35300
H 	H 	0.71200 0.08660 0.14300 0.10800
H 	H 	0.78370 0.98770 0.12250 0.11200
C 	C 	0.90190 0.11920 0.12960 0.22400
C 	C 	0.02000 0.12750 0.15060 -0.29500
H 	H 	0.03640 0.08920 0.17780 0.12700
C 	C 	0.11020 0.18900 0.13260 0.16400
H 	H 	0.18820 0.19210 0.14820 -0.07100
C 	C 	0.88700 0.17820 0.09020 -0.27000
H 	H 	0.80930 0.17600 0.07440 0.07100
C 	C 	0.98640 0.24260 0.07300 0.13700
H 	H 	0.97240 0.28300 0.04610 -0.10000
N 	N 	0.42940 0.45860 0.03080 -0.31600
N 	N 	0.40220 0.78430 0.77160 -0.21100
N 	N 	0.09830 0.24780 0.09340 -0.30500
N 	N 	0.73650 0.94560 0.36880 -0.30400
