data_crystal

_cell_length_a 8.35850
_cell_length_b 12.38650
_cell_length_c 12.64740
_cell_angle_alpha 109.88000
_cell_angle_beta  97.14800
_cell_angle_gamma 105.32100

_symmetry_space_group_name_	'P 1'
_symmetry_space_group_name_H-M	'P 1'

loop_
_symmetry_equiv_pos_as_xyz
  x,y,z

loop_
_atom_site_label
_atom_site_type_symbol
_atom_site_fract_x
_atom_site_fract_y
_atom_site_fract_z
_atom_site_charge
Sr	Sr	0.52281 0.38668 0.83610 1.51900
Sr	Sr	0.73255 0.97086 0.44299 1.50700
S 	S 	0.86161 0.59771 0.49878 0.02400
C 	C 	0.81220 0.50810 0.35230 0.05600
C 	C 	0.69410 0.39440 0.32910 -0.12800
C 	C 	0.64390 0.38180 0.43020 0.20500
C 	C 	0.72620 0.48420 0.52790 -0.17300
C 	C 	0.62190 0.29880 0.21690 0.10300
N 	N 	0.56180 0.21930 0.12880 -0.16300
C 	C 	0.51380 0.26950 0.42640 -0.44000
H 	H 	0.45690 0.29230 0.49090 0.15000
H 	H 	0.42550 0.23370 0.35300 0.14400
C 	C 	0.59370 0.17420 0.43580 0.42700
O 	O 	0.69740 0.14922 0.37546 -0.43000
O 	O 	0.54970 0.12130 0.50208 -0.58900
C 	C 	0.71650 0.51290 0.65020 0.37300
O 	O 	0.64080 0.42856 0.67841 -0.44700
O 	O 	0.79050 0.62341 0.71948 -0.30100
N 	N 	0.88730 0.55429 0.28088 -0.04700
C 	C 	0.99030 0.68240 0.32950 -0.30500
H 	H 	0.08500 0.69640 0.39330 0.11600
H 	H 	0.04150 0.70220 0.26910 0.08600
C 	C 	0.89080 0.76970 0.37615 0.42400
O 	O 	0.73560 0.74141 0.32936 -0.55800
O 	O 	0.97410 0.86959 0.45813 -0.60400
C 	C 	0.90630 0.47590 0.17032 -0.29600
H 	H 	0.02070 0.51300 0.16020 0.11200
H 	H 	0.90230 0.39670 0.17410 0.13000
C 	C 	0.77390 0.45250 0.06430 0.42100
O 	O 	0.79310 0.39005 0.96751 -0.44800
O 	O 	0.65330 0.49464 0.07465 -0.58100
O 	O 	0.54860 0.16837 0.73157 -1.05700
H 	H 	0.60800 0.16200 0.68600 0.39100
H 	H 	0.57200 0.12900 0.76800 0.37800
Sr	Sr	0.47719 0.61332 0.16390 1.52000
Sr	Sr	0.26745 0.02914 0.55701 1.50800
S 	S 	0.13839 0.40229 0.50122 0.02400
C 	C 	0.18780 0.49190 0.64770 0.05600
C 	C 	0.30590 0.60560 0.67090 -0.12800
C 	C 	0.35610 0.61820 0.56980 0.20500
C 	C 	0.27380 0.51580 0.47210 -0.17300
C 	C 	0.37810 0.70120 0.78310 0.10300
N 	N 	0.43820 0.78070 0.87120 -0.16300
C 	C 	0.48620 0.73050 0.57360 -0.44000
H 	H 	0.54310 0.70770 0.50910 0.15000
H 	H 	0.57450 0.76630 0.64700 0.14400
C 	C 	0.40630 0.82580 0.56420 0.42700
O 	O 	0.30260 0.85078 0.62454 -0.43000
O 	O 	0.45030 0.87870 0.49792 -0.58900
C 	C 	0.28350 0.48710 0.34980 0.37300
O 	O 	0.35920 0.57144 0.32159 -0.44700
O 	O 	0.20950 0.37659 0.28052 -0.30100
N 	N 	0.11270 0.44571 0.71912 -0.04700
C 	C 	0.00970 0.31760 0.67050 -0.30500
H 	H 	0.91500 0.30360 0.60670 0.11600
H 	H 	0.95850 0.29780 0.73090 0.08600
C 	C 	0.10920 0.23030 0.62385 0.42400
O 	O 	0.26440 0.25859 0.67064 -0.55800
O 	O 	0.02590 0.13041 0.54187 -0.60400
C 	C 	0.09370 0.52410 0.82968 -0.29600
H 	H 	0.97930 0.48700 0.83980 0.11200
H 	H 	0.09770 0.60330 0.82590 0.13000
C 	C 	0.22610 0.54750 0.93570 0.42100
O 	O 	0.20690 0.60995 0.03249 -0.44800
O 	O 	0.34670 0.50536 0.92535 -0.58100
O 	O 	0.45140 0.83163 0.26843 -1.05700
H 	H 	0.39200 0.83800 0.31400 0.39100
H 	H 	0.42800 0.87100 0.23200 0.37800
