data_crystal

_cell_length_a 9.91700
_cell_length_b 8.74090
_cell_length_c 22.49900
_cell_angle_alpha 90.00000
_cell_angle_beta  107.43000
_cell_angle_gamma 90.00000

_symmetry_space_group_name_	'P 1'
_symmetry_space_group_name_H-M	'P 1'

loop_
_symmetry_equiv_pos_as_xyz
  x,y,z

loop_
_atom_site_label
_atom_site_type_symbol
_atom_site_fract_x
_atom_site_fract_y
_atom_site_fract_z
_atom_site_charge
C 	C 	0.83090 0.51540 0.27731 0.07700
H 	H 	0.74160 0.55370 0.25690 -0.03700
C 	C 	0.89600 0.56290 0.33689 -0.15500
H 	H 	0.85130 0.63180 0.35630 0.08200
C 	C 	0.02930 0.50730 0.36812 0.05000
C 	C 	0.09040 0.40470 0.33735 -0.14900
H 	H 	0.17950 0.36420 0.35680 0.07500
C 	C 	0.01770 0.36350 0.27772 0.07400
H 	H 	0.06000 0.29450 0.25730 -0.03000
C 	C 	0.56910 0.22730 0.55716 0.07700
H 	H 	0.59810 0.14740 0.53660 -0.02800
C 	C 	0.45310 0.31040 0.52532 -0.14000
H 	H 	0.40530 0.28720 0.48400 0.07900
C 	C 	0.40770 0.42930 0.55511 0.06300
C 	C 	0.48270 0.45920 0.61641 -0.14800
H 	H 	0.45570 0.53810 0.63820 0.07800
C 	C 	0.59830 0.36960 0.64455 0.08400
H 	H 	0.64820 0.39040 0.68580 -0.03100
C 	C 	0.04960 0.96820 0.63420 0.07800
H 	H 	0.09940 0.01110 0.67220 -0.02300
C 	C 	0.11910 0.86640 0.60714 -0.13900
H 	H 	0.21240 0.83930 0.62710 0.07600
C 	C 	0.04740 0.80500 0.54967 0.06400
C 	C 	0.90940 0.85070 0.52211 -0.13400
H 	H 	0.85920 0.81430 0.48290 0.08700
C 	C 	0.84740 0.94980 0.55297 0.07800
H 	H 	0.75380 0.97750 0.53420 -0.02400
C 	C 	0.10210 0.55230 0.43321 0.08300
C 	C 	0.28060 0.51650 0.52141 0.09300
C 	C 	0.11220 0.68980 0.51893 0.09500
Cu	Cu	0.80144 0.38069 0.15691 0.83400
N 	N 	0.88920 0.41690 0.24703 -0.25900
N 	N 	0.64320 0.25540 0.61653 -0.26100
N 	N 	0.91480 0.00910 0.60904 -0.24900
N 	N 	0.04220 0.65770 0.45964 -0.14300
N 	N 	0.22210 0.47920 0.46175 -0.14000
N 	N 	0.23060 0.62150 0.55228 -0.14200
C 	C 	0.83090 0.98460 0.77731 0.07900
H 	H 	0.74160 0.94630 0.75690 -0.03600
C 	C 	0.89600 0.93710 0.83689 -0.15200
H 	H 	0.85130 0.86820 0.85630 0.08200
C 	C 	0.02930 0.99270 0.86812 0.04900
C 	C 	0.09040 0.09530 0.83735 -0.14600
H 	H 	0.17950 0.13580 0.85680 0.07400
C 	C 	0.01770 0.13650 0.77772 0.07500
H 	H 	0.06000 0.20550 0.75730 -0.03000
C 	C 	0.56910 0.27270 0.05716 0.07800
H 	H 	0.59810 0.35260 0.03660 -0.02800
C 	C 	0.45310 0.18960 0.02532 -0.14100
H 	H 	0.40530 0.21280 0.98400 0.07900
C 	C 	0.40770 0.07070 0.05511 0.06400
C 	C 	0.48270 0.04080 0.11641 -0.14900
H 	H 	0.45570 0.96190 0.13820 0.07800
C 	C 	0.59830 0.13040 0.14455 0.08500
H 	H 	0.64820 0.10960 0.18580 -0.03100
C 	C 	0.04960 0.53180 0.13420 0.08000
H 	H 	0.09940 0.48890 0.17220 -0.02400
C 	C 	0.11910 0.63360 0.10714 -0.14000
H 	H 	0.21240 0.66070 0.12710 0.07700
C 	C 	0.04740 0.69500 0.04967 0.06300
C 	C 	0.90940 0.64930 0.02211 -0.13300
H 	H 	0.85920 0.68570 0.98290 0.08600
C 	C 	0.84740 0.55020 0.05297 0.07600
H 	H 	0.75380 0.52250 0.03420 -0.02400
C 	C 	0.10210 0.94770 0.93321 0.08300
C 	C 	0.28060 0.98350 0.02141 0.09100
C 	C 	0.11220 0.81020 0.01893 0.09500
Cu	Cu	0.80144 0.11931 0.65691 0.83400
N 	N 	0.88920 0.08310 0.74703 -0.26000
N 	N 	0.64320 0.24460 0.11653 -0.26100
N 	N 	0.91480 0.49090 0.10904 -0.24800
N 	N 	0.04220 0.84230 0.95964 -0.14300
N 	N 	0.22210 0.02080 0.96175 -0.13900
N 	N 	0.23060 0.87850 0.05228 -0.14100
C 	C 	0.16910 0.01540 0.22269 0.07900
H 	H 	0.25840 0.05370 0.24310 -0.03600
C 	C 	0.10400 0.06290 0.16311 -0.15200
H 	H 	0.14870 0.13180 0.14370 0.08200
C 	C 	0.97070 0.00730 0.13188 0.04900
C 	C 	0.90960 0.90470 0.16265 -0.14600
H 	H 	0.82050 0.86420 0.14320 0.07400
C 	C 	0.98230 0.86350 0.22228 0.07500
H 	H 	0.94000 0.79450 0.24270 -0.03000
C 	C 	0.43090 0.72730 0.94284 0.07800
H 	H 	0.40190 0.64740 0.96340 -0.02800
C 	C 	0.54690 0.81040 0.97468 -0.14100
H 	H 	0.59470 0.78720 0.01600 0.07900
C 	C 	0.59230 0.92930 0.94489 0.06400
C 	C 	0.51730 0.95920 0.88359 -0.14900
H 	H 	0.54430 0.03810 0.86180 0.07800
C 	C 	0.40170 0.86960 0.85545 0.08500
H 	H 	0.35180 0.89040 0.81420 -0.03100
C 	C 	0.95040 0.46820 0.86580 0.08000
H 	H 	0.90060 0.51110 0.82780 -0.02400
C 	C 	0.88090 0.36640 0.89286 -0.14000
H 	H 	0.78760 0.33930 0.87290 0.07700
C 	C 	0.95260 0.30500 0.95033 0.06300
C 	C 	0.09060 0.35070 0.97789 -0.13300
H 	H 	0.14080 0.31430 0.01710 0.08600
C 	C 	0.15260 0.44980 0.94703 0.07600
H 	H 	0.24620 0.47750 0.96580 -0.02400
C 	C 	0.89790 0.05230 0.06679 0.08300
C 	C 	0.71940 0.01650 0.97859 0.09100
C 	C 	0.88780 0.18980 0.98107 0.09500
Cu	Cu	0.19856 0.88069 0.34309 0.83400
N 	N 	0.11080 0.91690 0.25297 -0.26000
N 	N 	0.35680 0.75540 0.88347 -0.26100
N 	N 	0.08520 0.50910 0.89096 -0.24800
N 	N 	0.95780 0.15770 0.04036 -0.14300
N 	N 	0.77790 0.97920 0.03825 -0.13900
N 	N 	0.76940 0.12150 0.94772 -0.14100
C 	C 	0.16910 0.48460 0.72269 0.07800
H 	H 	0.25840 0.44630 0.74310 -0.03600
C 	C 	0.10400 0.43710 0.66311 -0.15400
H 	H 	0.14870 0.36820 0.64370 0.08300
C 	C 	0.97070 0.49270 0.63188 0.05100
C 	C 	0.90960 0.59530 0.66265 -0.14800
H 	H 	0.82050 0.63580 0.64320 0.07500
C 	C 	0.98230 0.63650 0.72228 0.07400
H 	H 	0.94000 0.70550 0.74270 -0.03000
C 	C 	0.43090 0.77270 0.44284 0.07700
H 	H 	0.40190 0.85260 0.46340 -0.02800
C 	C 	0.54690 0.68960 0.47468 -0.14000
H 	H 	0.59470 0.71280 0.51600 0.07900
C 	C 	0.59230 0.57070 0.44489 0.06300
C 	C 	0.51730 0.54080 0.38359 -0.14800
H 	H 	0.54430 0.46190 0.36180 0.07800
C 	C 	0.40170 0.63040 0.35545 0.08400
H 	H 	0.35180 0.60960 0.31420 -0.03100
C 	C 	0.95040 0.03180 0.36580 0.07800
H 	H 	0.90060 0.98890 0.32780 -0.02300
C 	C 	0.88090 0.13360 0.39286 -0.13900
H 	H 	0.78760 0.16070 0.37290 0.07600
C 	C 	0.95260 0.19500 0.45033 0.06400
C 	C 	0.09060 0.14930 0.47789 -0.13400
H 	H 	0.14080 0.18570 0.51710 0.08700
C 	C 	0.15260 0.05020 0.44703 0.07800
H 	H 	0.24620 0.02250 0.46580 -0.02400
C 	C 	0.89790 0.44770 0.56679 0.08300
C 	C 	0.71940 0.48350 0.47859 0.09300
C 	C 	0.88780 0.31020 0.48107 0.09500
Cu	Cu	0.19856 0.61931 0.84309 0.83400
N 	N 	0.11080 0.58310 0.75297 -0.25900
N 	N 	0.35680 0.74460 0.38347 -0.26100
N 	N 	0.08520 0.99090 0.39096 -0.24900
N 	N 	0.95780 0.34230 0.54036 -0.14300
N 	N 	0.77790 0.52080 0.53825 -0.14000
N 	N 	0.76940 0.37850 0.44772 -0.14200
