data_crystal

_cell_length_a 10.33970
_cell_length_b 10.33970
_cell_length_c 14.50610
_cell_angle_alpha 90.00000
_cell_angle_beta  90.00000
_cell_angle_gamma 90.00000

_symmetry_space_group_name_	'P 1'
_symmetry_space_group_name_H-M	'P 1'

loop_
_symmetry_equiv_pos_as_xyz
  x,y,z

loop_
_atom_site_label
_atom_site_type_symbol
_atom_site_fract_x
_atom_site_fract_y
_atom_site_fract_z
_atom_site_charge
Tb	Tb	0.64745 0.64736 0.15744 2.06200
C 	C 	0.30550 0.50080 0.28210 0.23100
H 	H 	0.39550 0.50340 0.28260 -0.06300
O 	O 	0.43030 0.61050 0.13030 -0.56500
C 	C 	0.03870 0.50070 0.28190 -0.27500
C 	C 	0.31390 0.58750 0.12060 0.55100
C 	C 	0.10440 0.45610 0.35910 0.19700
H 	H 	0.05920 0.42600 0.41020 -0.02800
C 	C 	0.23970 0.54110 0.20440 -0.28500
C 	C 	0.10260 0.54170 0.20490 0.19900
H 	H 	0.05680 0.56970 0.15340 -0.02400
C 	C 	0.24080 0.45710 0.35890 -0.29200
O 	O 	0.83580 0.42880 0.33940 -0.57000
O 	O 	0.83660 0.56720 0.22280 -0.57100
C 	C 	0.88830 0.49950 0.28180 0.57700
C 	C 	0.31360 0.41360 0.44350 0.55500
O 	O 	0.25470 0.40450 0.51810 -0.55100
O 	O 	0.43000 0.39050 0.43400 -0.56800
O 	O 	0.25450 0.59480 0.04640 -0.53200
Tb	Tb	0.35255 0.35264 0.65744 2.04900
C 	C 	0.69450 0.49920 0.78210 0.22200
H 	H 	0.60450 0.49660 0.78260 -0.06000
O 	O 	0.56970 0.38950 0.63030 -0.57100
C 	C 	0.96130 0.49930 0.78190 -0.27500
C 	C 	0.68610 0.41250 0.62060 0.55300
C 	C 	0.89560 0.54390 0.85910 0.18800
H 	H 	0.94080 0.57400 0.91020 -0.03400
C 	C 	0.76030 0.45890 0.70440 -0.28600
C 	C 	0.89740 0.45830 0.70490 0.19600
H 	H 	0.94320 0.43030 0.65340 -0.02800
C 	C 	0.75920 0.54290 0.85890 -0.28200
O 	O 	0.16420 0.57120 0.83940 -0.57100
O 	O 	0.16340 0.43280 0.72280 -0.57100
C 	C 	0.11170 0.50050 0.78180 0.57400
C 	C 	0.68640 0.58640 0.94350 0.50900
O 	O 	0.74530 0.59550 0.01810 -0.51500
O 	O 	0.57000 0.60950 0.93400 -0.56300
O 	O 	0.74550 0.40520 0.54640 -0.55500
Tb	Tb	0.35264 0.64745 0.90744 2.01500
C 	C 	0.49920 0.30550 0.03210 0.28500
H 	H 	0.49660 0.39550 0.03260 -0.07000
O 	O 	0.38950 0.43030 0.88030 -0.57800
C 	C 	0.49930 0.03870 0.03190 -0.24700
C 	C 	0.41250 0.31390 0.87060 0.56000
C 	C 	0.54390 0.10440 0.10910 0.19900
H 	H 	0.57400 0.05920 0.16020 -0.02800
C 	C 	0.45890 0.23970 0.95440 -0.32600
C 	C 	0.45830 0.10260 0.95490 0.16500
H 	H 	0.43030 0.05680 0.90340 -0.02200
C 	C 	0.54290 0.24080 0.10890 -0.30400
O 	O 	0.57120 0.83580 0.08940 -0.57400
O 	O 	0.43280 0.83660 0.97280 -0.60200
C 	C 	0.50050 0.88830 0.03180 0.61200
C 	C 	0.58640 0.31360 0.19350 0.56200
O 	O 	0.59550 0.25470 0.26810 -0.55200
O 	O 	0.60950 0.43000 0.18400 -0.57000
O 	O 	0.40520 0.25450 0.79640 -0.55800
Tb	Tb	0.64736 0.35255 0.40744 2.05200
C 	C 	0.50080 0.69450 0.53210 0.23300
H 	H 	0.50340 0.60450 0.53260 -0.06300
O 	O 	0.61050 0.56970 0.38030 -0.57200
C 	C 	0.50070 0.96130 0.53190 -0.27800
C 	C 	0.58750 0.68610 0.37060 0.55500
C 	C 	0.45610 0.89560 0.60910 0.19800
H 	H 	0.42600 0.94080 0.66020 -0.02900
C 	C 	0.54110 0.76030 0.45440 -0.29000
C 	C 	0.54170 0.89740 0.45490 0.20100
H 	H 	0.56970 0.94320 0.40340 -0.02800
C 	C 	0.45710 0.75920 0.60890 -0.29300
O 	O 	0.42880 0.16420 0.58940 -0.57100
O 	O 	0.56720 0.16340 0.47280 -0.57100
C 	C 	0.49950 0.11170 0.53180 0.57700
C 	C 	0.41360 0.68640 0.69350 0.55400
O 	O 	0.40450 0.74530 0.76810 -0.54800
O 	O 	0.39050 0.57000 0.68400 -0.56700
O 	O 	0.59480 0.74550 0.29640 -0.55500
