data_crystal

_cell_length_a 26.06700
_cell_length_b 21.16880
_cell_length_c 7.63540
_cell_angle_alpha 90.00000
_cell_angle_beta  90.00000
_cell_angle_gamma 90.00000

_symmetry_space_group_name_	'P 1'
_symmetry_space_group_name_H-M	'P 1'

loop_
_symmetry_equiv_pos_as_xyz
  x,y,z

loop_
_atom_site_label
_atom_site_type_symbol
_atom_site_fract_x
_atom_site_fract_y
_atom_site_fract_z
_atom_site_charge
Cd	Cd	0.49826 0.52715 0.46004 0.98300
C 	C 	0.60321 0.47407 0.30940 0.06100
C 	C 	0.65789 0.48403 0.32790 -0.06900
H 	H 	0.68380 0.46840 0.25190 0.05500
C 	C 	0.66543 0.51959 0.47270 -0.07400
H 	H 	0.69750 0.53370 0.51690 0.05800
C 	C 	0.61600 0.53215 0.54720 0.07100
C 	C 	0.60621 0.56670 0.70320 -0.13500
C 	C 	0.55813 0.57540 0.78600 0.06400
C 	C 	0.54860 0.61725 0.93280 -0.08700
H 	H 	0.57350 0.64160 0.99370 0.05300
C 	C 	0.49780 0.61516 0.96680 -0.08500
H 	H 	0.48040 0.63770 0.05640 0.03200
C 	C 	0.47490 0.57263 0.84270 0.05700
C 	C 	0.57842 0.43924 0.17660 -0.13300
N 	N 	0.57915 0.50422 0.44640 -0.36200
N 	N 	0.51265 0.54848 0.73740 -0.36000
C 	C 	0.65116 0.59628 0.79120 0.04200
C 	C 	0.68128 0.64140 0.70940 -0.02100
H 	H 	0.67330 0.65240 0.59190 0.03800
N 	N 	0.72105 0.67039 0.78610 -0.20000
C 	C 	0.73200 0.65450 0.95330 0.04600
H 	H 	0.76020 0.67450 0.00950 0.02500
C 	C 	0.70415 0.61050 0.04610 -0.07100
H 	H 	0.71270 0.60060 0.16390 0.06100
C 	C 	0.66325 0.58080 0.96380 -0.04600
H 	H 	0.64360 0.55000 0.02480 0.04400
C 	C 	0.61237 0.40620 0.04820 0.03200
C 	C 	0.64711 0.36178 0.11010 -0.02000
H 	H 	0.64870 0.35470 0.23290 0.03800
N 	N 	0.67857 0.32836 0.00690 -0.20200
C 	C 	0.67552 0.33784 0.83350 0.04000
H 	H 	0.69770 0.31460 0.75850 0.03100
C 	C 	0.64145 0.38000 0.76000 -0.07700
H 	H 	0.64000 0.38520 0.63650 0.05200
C 	C 	0.60942 0.41471 0.86740 -0.04300
H 	H 	0.58570 0.44400 0.81880 -0.00400
Cd	Cd	0.00174 0.47285 0.96004 0.98200
C 	C 	0.89679 0.52593 0.80940 0.06400
C 	C 	0.84211 0.51597 0.82790 -0.08000
H 	H 	0.81620 0.53160 0.75190 0.05800
C 	C 	0.83457 0.48041 0.97270 -0.05500
H 	H 	0.80250 0.46630 0.01690 0.04700
C 	C 	0.88400 0.46785 0.04720 0.06000
C 	C 	0.89379 0.43330 0.20320 -0.13500
C 	C 	0.94187 0.42460 0.28600 0.06400
C 	C 	0.95140 0.38275 0.43280 -0.08600
H 	H 	0.92650 0.35840 0.49370 0.05300
C 	C 	0.00220 0.38484 0.46680 -0.08500
H 	H 	0.01960 0.36230 0.55640 0.03200
C 	C 	0.02510 0.42737 0.34270 0.05900
C 	C 	0.92158 0.56076 0.67660 -0.13700
N 	N 	0.92085 0.49578 0.94640 -0.35800
N 	N 	0.98735 0.45152 0.23740 -0.36000
C 	C 	0.84884 0.40372 0.29120 0.05300
C 	C 	0.81872 0.35860 0.20940 -0.02700
H 	H 	0.82670 0.34760 0.09190 0.03900
N 	N 	0.77895 0.32961 0.28610 -0.19500
C 	C 	0.76800 0.34550 0.45330 0.01800
H 	H 	0.73980 0.32550 0.50950 0.03800
C 	C 	0.79585 0.38950 0.54610 -0.03800
H 	H 	0.78730 0.39940 0.66390 0.05100
C 	C 	0.83675 0.41920 0.46380 -0.07400
H 	H 	0.85640 0.45000 0.52480 0.05600
C 	C 	0.88763 0.59380 0.54820 0.03800
C 	C 	0.85289 0.63822 0.61010 -0.02300
H 	H 	0.85130 0.64530 0.73290 0.04000
N 	N 	0.82143 0.67164 0.50690 -0.19900
C 	C 	0.82448 0.66216 0.33350 0.03300
H 	H 	0.80230 0.68540 0.25850 0.03300
C 	C 	0.85855 0.62000 0.26000 -0.07100
H 	H 	0.86000 0.61480 0.13650 0.04900
C 	C 	0.89058 0.58529 0.36740 -0.05100
H 	H 	0.91430 0.55600 0.31880 -0.00100
Cd	Cd	0.50174 0.02715 0.53996 0.98200
C 	C 	0.39679 0.97407 0.69060 0.06000
C 	C 	0.34211 0.98403 0.67210 -0.06800
H 	H 	0.31620 0.96840 0.74810 0.05400
C 	C 	0.33457 0.01959 0.52730 -0.07700
H 	H 	0.30250 0.03370 0.48310 0.05800
C 	C 	0.38400 0.03215 0.45280 0.07100
C 	C 	0.39379 0.06670 0.29680 -0.13400
C 	C 	0.44187 0.07540 0.21400 0.06400
C 	C 	0.45140 0.11725 0.06720 -0.08700
H 	H 	0.42650 0.14160 0.00630 0.05300
C 	C 	0.50220 0.11516 0.03320 -0.08400
H 	H 	0.51960 0.13770 0.94360 0.03100
C 	C 	0.52510 0.07263 0.15730 0.05700
C 	C 	0.42158 0.93924 0.82340 -0.13300
N 	N 	0.42085 0.00422 0.55360 -0.36200
N 	N 	0.48735 0.04848 0.26260 -0.35900
C 	C 	0.34884 0.09628 0.20880 0.04100
C 	C 	0.31872 0.14140 0.29060 -0.02000
H 	H 	0.32670 0.15240 0.40810 0.03800
N 	N 	0.27895 0.17039 0.21390 -0.20100
C 	C 	0.26800 0.15450 0.04670 0.04900
H 	H 	0.23980 0.17450 0.99050 0.02300
C 	C 	0.29585 0.11050 0.95390 -0.07500
H 	H 	0.28730 0.10060 0.83610 0.06200
C 	C 	0.33675 0.08080 0.03620 -0.04200
H 	H 	0.35640 0.05000 0.97520 0.04200
C 	C 	0.38763 0.90620 0.95180 0.03300
C 	C 	0.35289 0.86178 0.88990 -0.02100
H 	H 	0.35130 0.85470 0.76710 0.03900
N 	N 	0.32143 0.82836 0.99310 -0.20200
C 	C 	0.32448 0.83784 0.16650 0.03900
H 	H 	0.30230 0.81460 0.24150 0.03100
C 	C 	0.35855 0.88000 0.24000 -0.07600
H 	H 	0.36000 0.88520 0.36350 0.05200
C 	C 	0.39058 0.91471 0.13260 -0.04400
H 	H 	0.41430 0.94400 0.18120 -0.00300
Cd	Cd	0.99826 0.97285 0.03996 0.98100
C 	C 	0.10321 0.02593 0.19060 0.06300
C 	C 	0.15789 0.01597 0.17210 -0.07900
H 	H 	0.18380 0.03160 0.24810 0.05800
C 	C 	0.16543 0.98041 0.02730 -0.05700
H 	H 	0.19750 0.96630 0.98310 0.04900
C 	C 	0.11600 0.96785 0.95280 0.06200
C 	C 	0.10621 0.93330 0.79680 -0.13500
C 	C 	0.05813 0.92460 0.71400 0.06400
C 	C 	0.04860 0.88275 0.56720 -0.08400
H 	H 	0.07350 0.85840 0.50630 0.05200
C 	C 	0.99780 0.88484 0.53320 -0.08700
H 	H 	0.98040 0.86230 0.44360 0.03300
C 	C 	0.97490 0.92737 0.65730 0.05800
C 	C 	0.07842 0.06076 0.32340 -0.13600
N 	N 	0.07915 0.99578 0.05360 -0.35800
N 	N 	0.01265 0.95152 0.76260 -0.35800
C 	C 	0.15116 0.90372 0.70880 0.05300
C 	C 	0.18128 0.85860 0.79060 -0.02800
H 	H 	0.17330 0.84760 0.90810 0.04000
N 	N 	0.22105 0.82961 0.71390 -0.19500
C 	C 	0.23200 0.84550 0.54670 0.01800
H 	H 	0.26020 0.82550 0.49050 0.03800
C 	C 	0.20415 0.88950 0.45390 -0.03700
H 	H 	0.21270 0.89940 0.33610 0.05100
C 	C 	0.16325 0.91920 0.53620 -0.07400
H 	H 	0.14360 0.95000 0.47520 0.05600
C 	C 	0.11237 0.09380 0.45180 0.03800
C 	C 	0.14711 0.13822 0.38990 -0.02300
H 	H 	0.14870 0.14530 0.26710 0.04000
N 	N 	0.17857 0.17164 0.49310 -0.19900
C 	C 	0.17552 0.16216 0.66650 0.03300
H 	H 	0.19770 0.18540 0.74150 0.03300
C 	C 	0.14145 0.12000 0.74000 -0.07100
H 	H 	0.14000 0.11480 0.86350 0.04800
C 	C 	0.10942 0.08529 0.63260 -0.05100
H 	H 	0.08570 0.05600 0.68120 -0.00200
Cd	Cd	0.50174 0.47285 0.53996 0.98200
C 	C 	0.39679 0.52593 0.69060 0.06000
C 	C 	0.34211 0.51597 0.67210 -0.07000
H 	H 	0.31620 0.53160 0.74810 0.05400
C 	C 	0.33457 0.48041 0.52730 -0.07500
H 	H 	0.30250 0.46630 0.48310 0.05700
C 	C 	0.38400 0.46785 0.45280 0.07100
C 	C 	0.39379 0.43330 0.29680 -0.13500
C 	C 	0.44187 0.42460 0.21400 0.06400
C 	C 	0.45140 0.38275 0.06720 -0.08700
H 	H 	0.42650 0.35840 0.00630 0.05300
C 	C 	0.50220 0.38484 0.03320 -0.08500
H 	H 	0.51960 0.36230 0.94360 0.03200
C 	C 	0.52510 0.42737 0.15730 0.05700
C 	C 	0.42158 0.56076 0.82340 -0.13300
N 	N 	0.42085 0.49578 0.55360 -0.36200
N 	N 	0.48735 0.45152 0.26260 -0.36000
C 	C 	0.34884 0.40372 0.20880 0.04200
C 	C 	0.31872 0.35860 0.29060 -0.02100
H 	H 	0.32670 0.34760 0.40810 0.03800
N 	N 	0.27895 0.32961 0.21390 -0.20000
C 	C 	0.26800 0.34550 0.04670 0.04600
H 	H 	0.23980 0.32550 0.99050 0.02500
C 	C 	0.29585 0.38950 0.95390 -0.07100
H 	H 	0.28730 0.39940 0.83610 0.06100
C 	C 	0.33675 0.41920 0.03620 -0.04600
H 	H 	0.35640 0.45000 0.97520 0.04400
C 	C 	0.38763 0.59380 0.95180 0.03200
C 	C 	0.35289 0.63822 0.88990 -0.02000
H 	H 	0.35130 0.64530 0.76710 0.03800
N 	N 	0.32143 0.67164 0.99310 -0.20200
C 	C 	0.32448 0.66216 0.16650 0.04000
H 	H 	0.30230 0.68540 0.24150 0.03100
C 	C 	0.35855 0.62000 0.24000 -0.07700
H 	H 	0.36000 0.61480 0.36350 0.05200
C 	C 	0.39058 0.58529 0.13260 -0.04300
H 	H 	0.41430 0.55600 0.18120 -0.00400
Cd	Cd	0.99826 0.52715 0.03996 0.98200
C 	C 	0.10321 0.47407 0.19060 0.06400
C 	C 	0.15789 0.48403 0.17210 -0.08000
H 	H 	0.18380 0.46840 0.24810 0.05800
C 	C 	0.16543 0.51959 0.02730 -0.05500
H 	H 	0.19750 0.53370 0.98310 0.04700
C 	C 	0.11600 0.53215 0.95280 0.06000
C 	C 	0.10621 0.56670 0.79680 -0.13500
C 	C 	0.05813 0.57540 0.71400 0.06400
C 	C 	0.04860 0.61725 0.56720 -0.08600
H 	H 	0.07350 0.64160 0.50630 0.05300
C 	C 	0.99780 0.61516 0.53320 -0.08500
H 	H 	0.98040 0.63770 0.44360 0.03200
C 	C 	0.97490 0.57263 0.65730 0.05900
C 	C 	0.07842 0.43924 0.32340 -0.13700
N 	N 	0.07915 0.50422 0.05360 -0.35800
N 	N 	0.01265 0.54848 0.76260 -0.36000
C 	C 	0.15116 0.59628 0.70880 0.05300
C 	C 	0.18128 0.64140 0.79060 -0.02700
H 	H 	0.17330 0.65240 0.90810 0.03900
N 	N 	0.22105 0.67039 0.71390 -0.19500
C 	C 	0.23200 0.65450 0.54670 0.01800
H 	H 	0.26020 0.67450 0.49050 0.03800
C 	C 	0.20415 0.61050 0.45390 -0.03800
H 	H 	0.21270 0.60060 0.33610 0.05100
C 	C 	0.16325 0.58080 0.53620 -0.07400
H 	H 	0.14360 0.55000 0.47520 0.05600
C 	C 	0.11237 0.40620 0.45180 0.03800
C 	C 	0.14711 0.36178 0.38990 -0.02300
H 	H 	0.14870 0.35470 0.26710 0.04000
N 	N 	0.17857 0.32836 0.49310 -0.19900
C 	C 	0.17552 0.33784 0.66650 0.03300
H 	H 	0.19770 0.31460 0.74150 0.03300
C 	C 	0.14145 0.38000 0.74000 -0.07100
H 	H 	0.14000 0.38520 0.86350 0.04900
C 	C 	0.10942 0.41471 0.63260 -0.05100
H 	H 	0.08570 0.44400 0.68120 -0.00100
Cd	Cd	0.49826 0.97285 0.46004 0.98200
C 	C 	0.60321 0.02593 0.30940 0.06000
C 	C 	0.65789 0.01597 0.32790 -0.06800
H 	H 	0.68380 0.03160 0.25190 0.05400
C 	C 	0.66543 0.98041 0.47270 -0.07700
H 	H 	0.69750 0.96630 0.51690 0.05800
C 	C 	0.61600 0.96785 0.54720 0.07100
C 	C 	0.60621 0.93330 0.70320 -0.13400
C 	C 	0.55813 0.92460 0.78600 0.06400
C 	C 	0.54860 0.88275 0.93280 -0.08700
H 	H 	0.57350 0.85840 0.99370 0.05300
C 	C 	0.49780 0.88484 0.96680 -0.08400
H 	H 	0.48040 0.86230 0.05640 0.03100
C 	C 	0.47490 0.92737 0.84270 0.05700
C 	C 	0.57842 0.06076 0.17660 -0.13300
N 	N 	0.57915 0.99578 0.44640 -0.36200
N 	N 	0.51265 0.95152 0.73740 -0.35900
C 	C 	0.65116 0.90372 0.79120 0.04100
C 	C 	0.68128 0.85860 0.70940 -0.02000
H 	H 	0.67330 0.84760 0.59190 0.03800
N 	N 	0.72105 0.82961 0.78610 -0.20100
C 	C 	0.73200 0.84550 0.95330 0.04900
H 	H 	0.76020 0.82550 0.00950 0.02300
C 	C 	0.70415 0.88950 0.04610 -0.07500
H 	H 	0.71270 0.89940 0.16390 0.06200
C 	C 	0.66325 0.91920 0.96380 -0.04200
H 	H 	0.64360 0.95000 0.02480 0.04200
C 	C 	0.61237 0.09380 0.04820 0.03300
C 	C 	0.64711 0.13822 0.11010 -0.02100
H 	H 	0.64870 0.14530 0.23290 0.03900
N 	N 	0.67857 0.17164 0.00690 -0.20200
C 	C 	0.67552 0.16216 0.83350 0.03900
H 	H 	0.69770 0.18540 0.75850 0.03100
C 	C 	0.64145 0.12000 0.76000 -0.07600
H 	H 	0.64000 0.11480 0.63650 0.05200
C 	C 	0.60942 0.08529 0.86740 -0.04400
H 	H 	0.58570 0.05600 0.81880 -0.00300
Cd	Cd	0.00174 0.02715 0.96004 0.98100
C 	C 	0.89679 0.97407 0.80940 0.06300
C 	C 	0.84211 0.98403 0.82790 -0.07900
H 	H 	0.81620 0.96840 0.75190 0.05800
C 	C 	0.83457 0.01959 0.97270 -0.05700
H 	H 	0.80250 0.03370 0.01690 0.04900
C 	C 	0.88400 0.03215 0.04720 0.06200
C 	C 	0.89379 0.06670 0.20320 -0.13500
C 	C 	0.94187 0.07540 0.28600 0.06400
C 	C 	0.95140 0.11725 0.43280 -0.08400
H 	H 	0.92650 0.14160 0.49370 0.05200
C 	C 	0.00220 0.11516 0.46680 -0.08700
H 	H 	0.01960 0.13770 0.55640 0.03300
C 	C 	0.02510 0.07263 0.34270 0.05800
C 	C 	0.92158 0.93924 0.67660 -0.13600
N 	N 	0.92085 0.00422 0.94640 -0.35800
N 	N 	0.98735 0.04848 0.23740 -0.35800
C 	C 	0.84884 0.09628 0.29120 0.05300
C 	C 	0.81872 0.14140 0.20940 -0.02800
H 	H 	0.82670 0.15240 0.09190 0.04000
N 	N 	0.77895 0.17039 0.28610 -0.19500
C 	C 	0.76800 0.15450 0.45330 0.01800
H 	H 	0.73980 0.17450 0.50950 0.03800
C 	C 	0.79585 0.11050 0.54610 -0.03700
H 	H 	0.78730 0.10060 0.66390 0.05100
C 	C 	0.83675 0.08080 0.46380 -0.07400
H 	H 	0.85640 0.05000 0.52480 0.05600
C 	C 	0.88763 0.90620 0.54820 0.03800
C 	C 	0.85289 0.86178 0.61010 -0.02300
H 	H 	0.85130 0.85470 0.73290 0.04000
N 	N 	0.82143 0.82836 0.50690 -0.19900
C 	C 	0.82448 0.83784 0.33350 0.03300
H 	H 	0.80230 0.81460 0.25850 0.03300
C 	C 	0.85855 0.88000 0.26000 -0.07100
H 	H 	0.86000 0.88520 0.13650 0.04800
C 	C 	0.89058 0.91471 0.36740 -0.05100
H 	H 	0.91430 0.94400 0.31880 -0.00200
Cd	Cd	0.76912 0.75000 0.63947 1.21400
Cl	Cl	0.83424 0.75000 0.90877 -0.49300
Cl	Cl	0.70903 0.75000 0.37341 -0.50500
Cd	Cd	0.73088 0.25000 0.13947 1.21400
Cl	Cl	0.66576 0.25000 0.40877 -0.49800
Cl	Cl	0.79097 0.25000 0.87341 -0.50000
Cd	Cd	0.23088 0.25000 0.36053 1.21400
Cl	Cl	0.16576 0.25000 0.09123 -0.49300
Cl	Cl	0.29097 0.25000 0.62659 -0.50500
Cd	Cd	0.26912 0.75000 0.86053 1.21400
Cl	Cl	0.33424 0.75000 0.59123 -0.49800
Cl	Cl	0.20903 0.75000 0.12659 -0.50000
