data_crystal

_cell_length_a 12.75930
_cell_length_b 15.02960
_cell_length_c 16.90980
_cell_angle_alpha 114.50900
_cell_angle_beta  94.81600
_cell_angle_gamma 90.43200

_symmetry_space_group_name_	'P 1'
_symmetry_space_group_name_H-M	'P 1'

loop_
_symmetry_equiv_pos_as_xyz
  x,y,z

loop_
_atom_site_label
_atom_site_type_symbol
_atom_site_fract_x
_atom_site_fract_y
_atom_site_fract_z
_atom_site_charge
C 	C 	0.83990 0.04050 0.59250 0.04400
H 	H 	0.86870 0.97450 0.56840 0.03000
H 	H 	0.76230 0.03310 0.58040 0.03000
C 	C 	0.87010 0.09100 0.69050 -0.10800
H 	H 	0.94600 0.11060 0.70080 0.08100
H 	H 	0.85930 0.04350 0.71600 0.07200
C 	C 	0.80820 0.18130 0.73790 -0.14400
H 	H 	0.82540 0.23340 0.71900 0.09800
H 	H 	0.73170 0.16460 0.72410 0.09400
C 	C 	0.83760 0.21660 0.83510 0.07400
H 	H 	0.82640 0.16250 0.85290 0.02000
H 	H 	0.91280 0.23870 0.84950 0.02400
C 	C 	0.78550 0.33390 0.96980 0.20300
C 	C 	0.84980 0.29300 0.01590 -0.13600
H 	H 	0.88830 0.23710 0.98560 0.10500
C 	C 	0.85680 0.33550 0.10680 0.01700
C 	C 	0.80240 0.41840 0.15200 -0.05900
H 	H 	0.80710 0.44710 0.21400 0.09000
C 	C 	0.74000 0.45890 0.10340 0.01700
C 	C 	0.73210 0.41630 0.01340 -0.13700
H 	H 	0.68950 0.44410 0.98140 0.11900
C 	C 	0.68350 0.54970 0.15070 0.27300
C 	C 	0.92980 0.29240 0.15410 0.27200
C 	C 	0.22380 0.08310 0.15670 0.27900
C 	C 	0.29470 0.00320 0.10770 0.01600
C 	C 	0.30040 0.97940 0.01970 -0.15500
H 	H 	0.26340 0.01560 0.99260 0.11500
C 	C 	0.36070 0.90260 0.97160 0.21400
C 	C 	0.40990 0.84740 0.01140 -0.15400
H 	H 	0.44780 0.79230 0.97780 0.12100
C 	C 	0.40450 0.87140 0.09790 0.02200
C 	C 	0.34660 0.95130 0.14920 -0.06900
H 	H 	0.34340 0.96880 0.20980 0.08200
C 	C 	0.45870 0.81150 0.14190 0.27900
C 	C 	0.33640 0.94040 0.84680 0.04200
H 	H 	0.36800 0.00720 0.88090 0.03600
H 	H 	0.25890 0.94330 0.84620 0.03700
C 	C 	0.36790 0.90020 0.75460 -0.10700
H 	H 	0.44500 0.89300 0.75640 0.08000
H 	H 	0.35110 0.94790 0.72950 0.07100
C 	C 	0.31320 0.80150 0.69490 -0.13600
H 	H 	0.33650 0.75160 0.71580 0.10100
H 	H 	0.23620 0.80630 0.69780 0.09100
C 	C 	0.33760 0.76930 0.60100 0.06100
H 	H 	0.30890 0.81520 0.57720 0.02600
H 	H 	0.41470 0.76760 0.59730 0.02700
C 	C 	0.30050 0.62680 0.46560 0.20400
C 	C 	0.35950 0.66490 0.42060 -0.14400
H 	H 	0.39660 0.72650 0.45040 0.10600
C 	C 	0.36340 0.61090 0.33050 0.00900
C 	C 	0.30830 0.52100 0.28540 -0.05300
H 	H 	0.30910 0.48670 0.22400 0.09000
C 	C 	0.25250 0.48250 0.33140 0.00900
C 	C 	0.24750 0.53420 0.42190 -0.13300
H 	H 	0.20900 0.50720 0.45300 0.11900
C 	C 	0.19640 0.38490 0.28720 0.28100
C 	C 	0.43380 0.64940 0.28490 0.28200
O 	O 	0.77360 0.29550 0.88050 -0.23200
O 	O 	0.64470 0.59630 0.10690 -0.45700
O 	O 	0.67380 0.58240 0.23070 -0.36900
O 	O 	0.94440 0.32890 0.23640 -0.39200
O 	O 	0.98220 0.22050 0.10910 -0.43500
O 	O 	0.16650 0.11990 0.11470 -0.45600
O 	O 	0.22120 0.11330 0.23770 -0.38900
O 	O 	0.47150 0.84290 0.22230 -0.43000
O 	O 	0.49520 0.73060 0.09310 -0.42800
O 	O 	0.37430 0.87520 0.88560 -0.22700
O 	O 	0.28850 0.67250 0.55240 -0.22400
O 	O 	0.17800 0.34620 0.20600 -0.39400
O 	O 	0.16710 0.34160 0.33230 -0.44100
O 	O 	0.43470 0.60690 0.20240 -0.42100
O 	O 	0.49610 0.72110 0.32770 -0.43300
C 	C 	0.97360 0.12050 0.28940 0.28200
C 	C 	0.91750 0.06870 0.33130 -0.00700
C 	C 	0.92370 0.10630 0.42170 -0.13200
H 	H 	0.96430 0.16510 0.45600 0.11400
C 	C 	0.86960 0.05740 0.46300 0.19900
C 	C 	0.80860 0.97330 0.41160 -0.15000
H 	H 	0.77170 0.94000 0.43850 0.10800
C 	C 	0.80080 0.93750 0.32150 0.00700
C 	C 	0.85460 0.98270 0.28120 -0.06300
H 	H 	0.84980 0.95640 0.21930 0.08000
C 	C 	0.72720 0.85110 0.26930 0.28400
O 	O 	0.97270 0.08740 0.20700 -0.41900
O 	O 	0.02550 0.19970 0.33470 -0.44100
O 	O 	0.70240 0.82820 0.19070 -0.36700
O 	O 	0.68780 0.80600 0.30930 -0.46500
O 	O 	0.88230 0.09960 0.55180 -0.22400
In	In	0.08178 0.21821 0.22132 1.99600
In	In	0.57124 0.71066 0.20879 1.99600
C 	C 	0.16010 0.95950 0.40750 0.04500
H 	H 	0.13130 0.02550 0.43160 0.03100
H 	H 	0.23770 0.96690 0.41960 0.03100
C 	C 	0.12990 0.90900 0.30950 -0.10700
H 	H 	0.05400 0.88940 0.29920 0.08100
H 	H 	0.14070 0.95650 0.28400 0.07200
C 	C 	0.19180 0.81870 0.26210 -0.14400
H 	H 	0.17460 0.76660 0.28100 0.09800
H 	H 	0.26830 0.83540 0.27590 0.09400
C 	C 	0.16240 0.78340 0.16490 0.07400
H 	H 	0.17360 0.83750 0.14710 0.02000
H 	H 	0.08720 0.76130 0.15050 0.02400
C 	C 	0.21450 0.66610 0.03020 0.20300
C 	C 	0.15020 0.70700 0.98410 -0.13600
H 	H 	0.11170 0.76290 0.01440 0.10500
C 	C 	0.14320 0.66450 0.89320 0.01700
C 	C 	0.19760 0.58160 0.84800 -0.05900
H 	H 	0.19290 0.55290 0.78600 0.09000
C 	C 	0.26000 0.54110 0.89660 0.01700
C 	C 	0.26790 0.58370 0.98660 -0.13700
H 	H 	0.31050 0.55590 0.01860 0.11900
C 	C 	0.31650 0.45030 0.84930 0.27300
C 	C 	0.07020 0.70760 0.84590 0.27200
C 	C 	0.77620 0.91690 0.84330 0.27900
C 	C 	0.70530 0.99680 0.89230 0.01600
C 	C 	0.69960 0.02060 0.98030 -0.15500
H 	H 	0.73660 0.98440 0.00740 0.11500
C 	C 	0.63930 0.09740 0.02840 0.21400
C 	C 	0.59010 0.15260 0.98860 -0.15400
H 	H 	0.55220 0.20770 0.02220 0.12100
C 	C 	0.59550 0.12860 0.90210 0.02200
C 	C 	0.65340 0.04870 0.85080 -0.06900
H 	H 	0.65660 0.03120 0.79020 0.08200
C 	C 	0.54130 0.18850 0.85810 0.27900
C 	C 	0.66360 0.05960 0.15320 0.04200
H 	H 	0.63200 0.99280 0.11910 0.03600
H 	H 	0.74110 0.05670 0.15380 0.03700
C 	C 	0.63210 0.09980 0.24540 -0.10700
H 	H 	0.55500 0.10700 0.24360 0.08000
H 	H 	0.64890 0.05210 0.27050 0.07100
C 	C 	0.68680 0.19850 0.30510 -0.13600
H 	H 	0.66350 0.24840 0.28420 0.10100
H 	H 	0.76380 0.19370 0.30220 0.09100
C 	C 	0.66240 0.23070 0.39900 0.06100
H 	H 	0.69110 0.18480 0.42280 0.02600
H 	H 	0.58530 0.23240 0.40270 0.02700
C 	C 	0.69950 0.37320 0.53440 0.20400
C 	C 	0.64050 0.33510 0.57940 -0.14400
H 	H 	0.60340 0.27350 0.54960 0.10600
C 	C 	0.63660 0.38910 0.66950 0.00900
C 	C 	0.69170 0.47900 0.71460 -0.05300
H 	H 	0.69090 0.51330 0.77600 0.09000
C 	C 	0.74750 0.51750 0.66860 0.00900
C 	C 	0.75250 0.46580 0.57810 -0.13300
H 	H 	0.79100 0.49280 0.54700 0.11900
C 	C 	0.80360 0.61510 0.71280 0.28100
C 	C 	0.56620 0.35060 0.71510 0.28200
O 	O 	0.22640 0.70450 0.11950 -0.23200
O 	O 	0.35530 0.40370 0.89310 -0.45700
O 	O 	0.32620 0.41760 0.76930 -0.36900
O 	O 	0.05560 0.67110 0.76360 -0.39200
O 	O 	0.01780 0.77950 0.89090 -0.43500
O 	O 	0.83350 0.88010 0.88530 -0.45600
O 	O 	0.77880 0.88670 0.76230 -0.38900
O 	O 	0.52850 0.15710 0.77770 -0.43000
O 	O 	0.50480 0.26940 0.90690 -0.42800
O 	O 	0.62570 0.12480 0.11440 -0.22700
O 	O 	0.71150 0.32750 0.44760 -0.22400
O 	O 	0.82200 0.65380 0.79400 -0.39400
O 	O 	0.83290 0.65840 0.66770 -0.44100
O 	O 	0.56530 0.39310 0.79760 -0.42100
O 	O 	0.50390 0.27890 0.67230 -0.43300
C 	C 	0.02640 0.87950 0.71060 0.28200
C 	C 	0.08250 0.93130 0.66870 -0.00700
C 	C 	0.07630 0.89370 0.57830 -0.13200
H 	H 	0.03570 0.83490 0.54400 0.11400
C 	C 	0.13040 0.94260 0.53700 0.19900
C 	C 	0.19140 0.02670 0.58840 -0.15000
H 	H 	0.22830 0.06000 0.56150 0.10800
C 	C 	0.19920 0.06250 0.67850 0.00700
C 	C 	0.14540 0.01730 0.71880 -0.06300
H 	H 	0.15020 0.04360 0.78070 0.08000
C 	C 	0.27280 0.14890 0.73070 0.28400
O 	O 	0.02730 0.91260 0.79300 -0.41900
O 	O 	0.97450 0.80030 0.66530 -0.44100
O 	O 	0.29760 0.17180 0.80930 -0.36700
O 	O 	0.31220 0.19400 0.69070 -0.46500
O 	O 	0.11770 0.90040 0.44820 -0.22400
In	In	0.91822 0.78179 0.77868 1.99600
In	In	0.42876 0.28934 0.79121 1.99600
