data_crystal

_cell_length_a 14.48630
_cell_length_b 15.97330
_cell_length_c 16.52140
_cell_angle_alpha 90.00000
_cell_angle_beta  101.12800
_cell_angle_gamma 90.00000

_symmetry_space_group_name_	'P 1'
_symmetry_space_group_name_H-M	'P 1'

loop_
_symmetry_equiv_pos_as_xyz
  x,y,z

loop_
_atom_site_label
_atom_site_type_symbol
_atom_site_fract_x
_atom_site_fract_y
_atom_site_fract_z
_atom_site_charge
C 	C 	0.02140 0.53240 0.40090 0.13100
H 	H 	0.05220 0.48450 0.38840 -0.01800
C 	C 	0.92520 0.53450 0.37990 -0.22800
H 	H 	0.89250 0.48880 0.35380 0.11300
C 	C 	0.87710 0.60424 0.39738 0.17200
C 	C 	0.92990 0.66810 0.43930 -0.22600
H 	H 	0.90140 0.71640 0.45440 0.11900
C 	C 	0.02620 0.65820 0.45820 0.14700
H 	H 	0.06060 0.70110 0.48800 -0.05300
C 	C 	0.77150 0.60691 0.37340 -0.12100
H 	H 	0.75300 0.59700 0.31460 0.08000
H 	H 	0.74500 0.56250 0.40180 0.08600
C 	C 	0.74530 0.75416 0.34499 0.16400
C 	C 	0.74480 0.74926 0.26131 -0.11000
H 	H 	0.73910 0.69770 0.23470 0.07400
C 	C 	0.75310 0.82244 0.21712 -0.07000
C 	C 	0.76300 0.89885 0.25711 -0.02200
H 	H 	0.76890 0.94750 0.22760 0.05400
C 	C 	0.76410 0.90323 0.34113 -0.02000
C 	C 	0.75490 0.83104 0.38515 -0.13600
H 	H 	0.75510 0.83390 0.44140 0.10700
C 	C 	0.77360 0.98661 0.38500 0.27500
C 	C 	0.74920 0.81726 0.12549 0.40100
C 	C 	0.73980 0.03325 0.87390 0.28400
C 	C 	0.74830 0.11759 0.83543 -0.02300
C 	C 	0.75350 0.12347 0.75228 -0.02000
H 	H 	0.74930 0.07540 0.72010 0.05500
C 	C 	0.76490 0.20045 0.71750 -0.06700
C 	C 	0.76910 0.27313 0.76557 -0.11300
H 	H 	0.77710 0.32500 0.74240 0.07500
C 	C 	0.76130 0.26756 0.84792 0.16900
C 	C 	0.75160 0.18910 0.88282 -0.13000
H 	H 	0.74730 0.18510 0.93810 0.10800
C 	C 	0.77230 0.20672 0.62836 0.39200
C 	C 	0.80210 0.41150 0.87840 -0.11800
H 	H 	0.78350 0.45720 0.91050 0.08500
H 	H 	0.77970 0.42390 0.82040 0.07900
C 	C 	0.90740 0.40444 0.89530 0.16600
C 	C 	0.96060 0.42660 0.83830 -0.21500
H 	H 	0.93140 0.44640 0.78680 0.11500
C 	C 	0.05640 0.41950 0.85710 0.12100
H 	H 	0.09040 0.43610 0.81750 -0.01300
C 	C 	0.05120 0.36960 0.98350 0.11500
H 	H 	0.08140 0.34940 0.03460 -0.02100
C 	C 	0.95550 0.37620 0.96930 -0.20500
H 	H 	0.92290 0.36120 0.01040 0.11400
Mn	Mn	0.73194 0.89246 0.95579 1.27100
Mn	Mn	0.73395 0.62899 0.04061 1.27300
N 	N 	0.07360 0.59539 0.43852 -0.25800
N 	N 	0.10440 0.39017 0.92924 -0.24300
O 	O 	0.74774 0.88459 0.08623 -0.47100
O 	O 	0.74810 0.74686 0.09364 -0.51800
O 	O 	0.77129 0.05299 0.34315 -0.39200
O 	O 	0.78116 0.98849 0.46172 -0.39100
O 	O 	0.75224 0.02864 0.95165 -0.40100
O 	O 	0.72005 0.97012 0.82970 -0.38100
O 	O 	0.76061 0.14187 0.58585 -0.47200
O 	O 	0.79227 0.27698 0.60251 -0.50400
O 	O 	0.73377 0.68570 0.39323 -0.19500
O 	O 	0.75985 0.33446 0.89936 -0.19600
C 	C 	0.47860 0.03240 0.09910 0.13000
H 	H 	0.44780 0.98450 0.11160 -0.01500
C 	C 	0.57480 0.03450 0.12010 -0.22800
H 	H 	0.60750 0.98880 0.14620 0.11500
C 	C 	0.62290 0.10424 0.10262 0.17300
C 	C 	0.57010 0.16810 0.06070 -0.22400
H 	H 	0.59860 0.21640 0.04560 0.11900
C 	C 	0.47380 0.15820 0.04180 0.14800
H 	H 	0.43940 0.20110 0.01200 -0.05200
C 	C 	0.72850 0.10691 0.12660 -0.11900
H 	H 	0.74700 0.09700 0.18540 0.08000
H 	H 	0.75500 0.06250 0.09820 0.08500
C 	C 	0.75470 0.25416 0.15501 0.16400
C 	C 	0.75520 0.24926 0.23869 -0.11000
H 	H 	0.76090 0.19770 0.26530 0.07400
C 	C 	0.74690 0.32244 0.28288 -0.07000
C 	C 	0.73700 0.39885 0.24289 -0.02200
H 	H 	0.73110 0.44750 0.27240 0.05400
C 	C 	0.73590 0.40323 0.15887 -0.01900
C 	C 	0.74510 0.33104 0.11485 -0.13700
H 	H 	0.74490 0.33390 0.05860 0.10700
C 	C 	0.72640 0.48661 0.11500 0.27500
C 	C 	0.75080 0.31726 0.37451 0.40100
C 	C 	0.76020 0.53325 0.62610 0.28200
C 	C 	0.75170 0.61759 0.66457 -0.02300
C 	C 	0.74650 0.62347 0.74772 -0.02100
H 	H 	0.75070 0.57540 0.77990 0.05500
C 	C 	0.73510 0.70045 0.78250 -0.06700
C 	C 	0.73090 0.77313 0.73443 -0.11300
H 	H 	0.72290 0.82500 0.75760 0.07500
C 	C 	0.73870 0.76756 0.65208 0.16900
C 	C 	0.74840 0.68910 0.61718 -0.13000
H 	H 	0.75270 0.68510 0.56190 0.10700
C 	C 	0.72770 0.70672 0.87164 0.39200
C 	C 	0.69790 0.91150 0.62160 -0.12100
H 	H 	0.71650 0.95720 0.58950 0.08600
H 	H 	0.72030 0.92390 0.67960 0.08000
C 	C 	0.59260 0.90444 0.60470 0.17200
C 	C 	0.53940 0.92660 0.66170 -0.22100
H 	H 	0.56860 0.94640 0.71320 0.11700
C 	C 	0.44360 0.91950 0.64290 0.12500
H 	H 	0.40960 0.93610 0.68250 -0.01400
C 	C 	0.44880 0.86960 0.51650 0.12200
H 	H 	0.41860 0.84940 0.46540 -0.02400
C 	C 	0.54450 0.87620 0.53070 -0.21500
H 	H 	0.57710 0.86120 0.48960 0.11800
Mn	Mn	0.76806 0.39246 0.54421 1.27100
Mn	Mn	0.76605 0.12899 0.45939 1.27300
N 	N 	0.42640 0.09539 0.06148 -0.25800
N 	N 	0.39560 0.89017 0.57076 -0.24400
O 	O 	0.75226 0.38459 0.41377 -0.47200
O 	O 	0.75190 0.24686 0.40636 -0.51900
O 	O 	0.72871 0.55299 0.15685 -0.39100
O 	O 	0.71884 0.48849 0.03828 -0.39000
O 	O 	0.74776 0.52864 0.54835 -0.40200
O 	O 	0.77995 0.47012 0.67030 -0.38000
O 	O 	0.73939 0.64187 0.91415 -0.47200
O 	O 	0.70773 0.77698 0.89749 -0.50400
O 	O 	0.76623 0.18570 0.10677 -0.19500
O 	O 	0.74015 0.83446 0.60064 -0.19600
C 	C 	0.97860 0.46760 0.59910 0.13200
H 	H 	0.94780 0.51550 0.61160 -0.01700
C 	C 	0.07480 0.46550 0.62010 -0.22700
H 	H 	0.10750 0.51120 0.64620 0.11400
C 	C 	0.12290 0.39576 0.60262 0.17300
C 	C 	0.07010 0.33190 0.56070 -0.22500
H 	H 	0.09860 0.28360 0.54560 0.12000
C 	C 	0.97380 0.34180 0.54180 0.14800
H 	H 	0.93940 0.29890 0.51200 -0.05200
C 	C 	0.22850 0.39309 0.62660 -0.12000
H 	H 	0.24700 0.40300 0.68540 0.08000
H 	H 	0.25500 0.43750 0.59820 0.08600
C 	C 	0.25470 0.24584 0.65501 0.16400
C 	C 	0.25520 0.25074 0.73869 -0.11000
H 	H 	0.26090 0.30230 0.76530 0.07400
C 	C 	0.24690 0.17756 0.78288 -0.07000
C 	C 	0.23700 0.10115 0.74289 -0.02200
H 	H 	0.23110 0.05250 0.77240 0.05400
C 	C 	0.23590 0.09677 0.65887 -0.02000
C 	C 	0.24510 0.16896 0.61485 -0.13600
H 	H 	0.24490 0.16610 0.55860 0.10700
C 	C 	0.22640 0.01339 0.61500 0.27500
C 	C 	0.25080 0.18274 0.87451 0.40100
C 	C 	0.26020 0.96675 0.12610 0.28400
C 	C 	0.25170 0.88241 0.16457 -0.02300
C 	C 	0.24650 0.87653 0.24772 -0.02000
H 	H 	0.25070 0.92460 0.27990 0.05500
C 	C 	0.23510 0.79955 0.28250 -0.06700
C 	C 	0.23090 0.72687 0.23443 -0.11300
H 	H 	0.22290 0.67500 0.25760 0.07500
C 	C 	0.23870 0.73244 0.15208 0.16900
C 	C 	0.24840 0.81090 0.11718 -0.13000
H 	H 	0.25270 0.81490 0.06190 0.10800
C 	C 	0.22770 0.79328 0.37164 0.39200
C 	C 	0.19790 0.58850 0.12160 -0.11800
H 	H 	0.21650 0.54280 0.08950 0.08500
H 	H 	0.22030 0.57610 0.17960 0.07900
C 	C 	0.09260 0.59556 0.10470 0.16600
C 	C 	0.03940 0.57340 0.16170 -0.21500
H 	H 	0.06860 0.55360 0.21320 0.11500
C 	C 	0.94360 0.58050 0.14290 0.12100
H 	H 	0.90960 0.56390 0.18250 -0.01300
C 	C 	0.94880 0.63040 0.01650 0.11500
H 	H 	0.91860 0.65060 0.96540 -0.02100
C 	C 	0.04450 0.62380 0.03070 -0.20500
H 	H 	0.07710 0.63880 0.98960 0.11400
Mn	Mn	0.26806 0.10754 0.04421 1.27100
Mn	Mn	0.26605 0.37101 0.95939 1.27300
N 	N 	0.92640 0.40461 0.56148 -0.25800
N 	N 	0.89560 0.60983 0.07076 -0.24300
O 	O 	0.25226 0.11541 0.91377 -0.47100
O 	O 	0.25190 0.25314 0.90636 -0.51800
O 	O 	0.22871 0.94701 0.65685 -0.39200
O 	O 	0.21884 0.01151 0.53828 -0.39100
O 	O 	0.24776 0.97136 0.04835 -0.40100
O 	O 	0.27995 0.02988 0.17030 -0.38100
O 	O 	0.23939 0.85813 0.41415 -0.47200
O 	O 	0.20773 0.72302 0.39749 -0.50400
O 	O 	0.26623 0.31430 0.60677 -0.19500
O 	O 	0.24015 0.66554 0.10064 -0.19600
C 	C 	0.52140 0.96760 0.90090 0.13000
H 	H 	0.55220 0.01550 0.88840 -0.01500
C 	C 	0.42520 0.96550 0.87990 -0.22800
H 	H 	0.39250 0.01120 0.85380 0.11500
C 	C 	0.37710 0.89576 0.89738 0.17300
C 	C 	0.42990 0.83190 0.93930 -0.22400
H 	H 	0.40140 0.78360 0.95440 0.11900
C 	C 	0.52620 0.84180 0.95820 0.14800
H 	H 	0.56060 0.79890 0.98800 -0.05200
C 	C 	0.27150 0.89309 0.87340 -0.11900
H 	H 	0.25300 0.90300 0.81460 0.08000
H 	H 	0.24500 0.93750 0.90180 0.08500
C 	C 	0.24530 0.74584 0.84499 0.16400
C 	C 	0.24480 0.75074 0.76131 -0.11000
H 	H 	0.23910 0.80230 0.73470 0.07400
C 	C 	0.25310 0.67756 0.71712 -0.07000
C 	C 	0.26300 0.60115 0.75711 -0.02200
H 	H 	0.26890 0.55250 0.72760 0.05400
C 	C 	0.26410 0.59677 0.84113 -0.01900
C 	C 	0.25490 0.66896 0.88515 -0.13700
H 	H 	0.25510 0.66610 0.94140 0.10700
C 	C 	0.27360 0.51339 0.88500 0.27500
C 	C 	0.24920 0.68274 0.62549 0.40100
C 	C 	0.23980 0.46675 0.37390 0.28200
C 	C 	0.24830 0.38241 0.33543 -0.02300
C 	C 	0.25350 0.37653 0.25228 -0.02100
H 	H 	0.24930 0.42460 0.22010 0.05500
C 	C 	0.26490 0.29955 0.21750 -0.06700
C 	C 	0.26910 0.22687 0.26557 -0.11300
H 	H 	0.27710 0.17500 0.24240 0.07500
C 	C 	0.26130 0.23244 0.34792 0.16900
C 	C 	0.25160 0.31090 0.38282 -0.13000
H 	H 	0.24730 0.31490 0.43810 0.10700
C 	C 	0.27230 0.29328 0.12836 0.39200
C 	C 	0.30210 0.08850 0.37840 -0.12100
H 	H 	0.28350 0.04280 0.41050 0.08600
H 	H 	0.27970 0.07610 0.32040 0.08000
C 	C 	0.40740 0.09556 0.39530 0.17200
C 	C 	0.46060 0.07340 0.33830 -0.22100
H 	H 	0.43140 0.05360 0.28680 0.11700
C 	C 	0.55640 0.08050 0.35710 0.12500
H 	H 	0.59040 0.06390 0.31750 -0.01400
C 	C 	0.55120 0.13040 0.48350 0.12200
H 	H 	0.58140 0.15060 0.53460 -0.02400
C 	C 	0.45550 0.12380 0.46930 -0.21500
H 	H 	0.42290 0.13880 0.51040 0.11800
Mn	Mn	0.23194 0.60754 0.45579 1.27100
Mn	Mn	0.23395 0.87101 0.54061 1.27300
N 	N 	0.57360 0.90461 0.93852 -0.25800
N 	N 	0.60440 0.10983 0.42924 -0.24400
O 	O 	0.24774 0.61541 0.58623 -0.47200
O 	O 	0.24810 0.75314 0.59364 -0.51900
O 	O 	0.27129 0.44701 0.84315 -0.39100
O 	O 	0.28116 0.51151 0.96172 -0.39000
O 	O 	0.25224 0.47136 0.45165 -0.40200
O 	O 	0.22005 0.52988 0.32970 -0.38000
O 	O 	0.26061 0.35813 0.08585 -0.47200
O 	O 	0.29227 0.22302 0.10251 -0.50400
O 	O 	0.23377 0.81430 0.89323 -0.19500
O 	O 	0.25985 0.16554 0.39936 -0.19600
