data_crystal

_cell_length_a 13.98760
_cell_length_b 13.98760
_cell_length_c 16.30930
_cell_angle_alpha 90.00000
_cell_angle_beta  90.00000
_cell_angle_gamma 120.00000

_symmetry_space_group_name_	'P 1'
_symmetry_space_group_name_H-M	'P 1'

loop_
_symmetry_equiv_pos_as_xyz
  x,y,z

loop_
_atom_site_label
_atom_site_type_symbol
_atom_site_fract_x
_atom_site_fract_y
_atom_site_fract_z
_atom_site_charge
Cu	Cu	0.37349 0.44462 0.55991 0.82900
N 	N 	0.07440 0.42170 0.48630 -0.26500
N 	N 	0.12690 0.51690 0.53070 -0.17800
N 	N 	0.22090 0.52970 0.55650 -0.15900
N 	N 	0.23390 0.44790 0.53010 -0.24400
N 	N 	0.19990 0.64540 0.70990 -0.15300
N 	N 	0.10240 0.62790 0.68340 -0.21800
C 	C 	0.14270 0.38120 0.48730 0.24100
C 	C 	0.11930 0.27330 0.44800 -0.71400
H 	H 	0.18770 0.27730 0.43340 0.19900
H 	H 	0.07530 0.26040 0.39970 0.20000
H 	H 	0.08000 0.21390 0.48610 0.19400
Cu	Cu	0.55538 0.92887 0.55991 0.83000
N 	N 	0.57830 0.65270 0.48630 -0.26500
N 	N 	0.48310 0.61000 0.53070 -0.17700
N 	N 	0.47030 0.69120 0.55650 -0.15800
N 	N 	0.55210 0.78600 0.53010 -0.24300
N 	N 	0.35460 0.55450 0.70990 -0.15200
N 	N 	0.37210 0.47450 0.68340 -0.21800
C 	C 	0.61880 0.76150 0.48730 0.24200
C 	C 	0.72670 0.84600 0.44800 -0.71400
H 	H 	0.72270 0.91040 0.43340 0.19900
H 	H 	0.73960 0.81490 0.39970 0.20000
H 	H 	0.78610 0.86610 0.48610 0.19400
Cu	Cu	0.07113 0.62651 0.55991 0.83000
N 	N 	0.34730 0.92560 0.48630 -0.26400
N 	N 	0.39000 0.87310 0.53070 -0.17700
N 	N 	0.30880 0.77910 0.55650 -0.15800
N 	N 	0.21400 0.76610 0.53010 -0.24300
N 	N 	0.44550 0.80010 0.70990 -0.15200
N 	N 	0.52550 0.89760 0.68340 -0.21700
C 	C 	0.23850 0.85730 0.48730 0.24200
C 	C 	0.15400 0.88070 0.44800 -0.71500
H 	H 	0.08960 0.81230 0.43340 0.19900
H 	H 	0.18510 0.92470 0.39970 0.20000
H 	H 	0.13390 0.92000 0.48610 0.19400
Cu	Cu	0.62651 0.55538 0.05991 0.83000
N 	N 	0.92560 0.57830 0.98630 -0.26300
N 	N 	0.87310 0.48310 0.03070 -0.17800
N 	N 	0.77910 0.47030 0.05650 -0.15800
N 	N 	0.76610 0.55210 0.03010 -0.24300
N 	N 	0.80010 0.35460 0.20990 -0.15200
N 	N 	0.89760 0.37210 0.18340 -0.21800
C 	C 	0.85730 0.61880 0.98730 0.24300
C 	C 	0.88070 0.72670 0.94800 -0.71400
H 	H 	0.81230 0.72270 0.93340 0.19900
H 	H 	0.92470 0.73960 0.89970 0.20000
H 	H 	0.92000 0.78610 0.98610 0.19300
Cu	Cu	0.44462 0.07113 0.05991 0.82900
N 	N 	0.42170 0.34730 0.98630 -0.26500
N 	N 	0.51690 0.39000 0.03070 -0.17700
N 	N 	0.52970 0.30880 0.05650 -0.15800
N 	N 	0.44790 0.21400 0.03010 -0.24300
N 	N 	0.64540 0.44550 0.20990 -0.15200
N 	N 	0.62790 0.52550 0.18340 -0.21800
C 	C 	0.38120 0.23850 0.98730 0.24300
C 	C 	0.27330 0.15400 0.94800 -0.71500
H 	H 	0.27730 0.08960 0.93340 0.19900
H 	H 	0.26040 0.18510 0.89970 0.20000
H 	H 	0.21390 0.13390 0.98610 0.19300
Cu	Cu	0.92887 0.37349 0.05991 0.82900
N 	N 	0.65270 0.07440 0.98630 -0.26400
N 	N 	0.61000 0.12690 0.03070 -0.17900
N 	N 	0.69120 0.22090 0.05650 -0.15800
N 	N 	0.78600 0.23390 0.03010 -0.24500
N 	N 	0.55450 0.19990 0.20990 -0.15200
N 	N 	0.47450 0.10240 0.18340 -0.21800
C 	C 	0.76150 0.14270 0.98730 0.24600
C 	C 	0.84600 0.11930 0.94800 -0.72000
H 	H 	0.91040 0.18770 0.93340 0.20100
H 	H 	0.81490 0.07530 0.89970 0.20200
H 	H 	0.86610 0.08000 0.98610 0.19700
Cu	Cu	0.62651 0.55538 0.44009 0.83000
N 	N 	0.92560 0.57830 0.51370 -0.26400
N 	N 	0.87310 0.48310 0.46930 -0.17700
N 	N 	0.77910 0.47030 0.44350 -0.15800
N 	N 	0.76610 0.55210 0.46990 -0.24300
N 	N 	0.80010 0.35460 0.29010 -0.15200
N 	N 	0.89760 0.37210 0.31660 -0.21700
C 	C 	0.85730 0.61880 0.51270 0.24200
C 	C 	0.88070 0.72670 0.55200 -0.71400
H 	H 	0.81230 0.72270 0.56660 0.19900
H 	H 	0.92470 0.73960 0.60030 0.20000
H 	H 	0.92000 0.78610 0.51390 0.19400
Cu	Cu	0.44462 0.07113 0.44009 0.83000
N 	N 	0.42170 0.34730 0.51370 -0.26500
N 	N 	0.51690 0.39000 0.46930 -0.17700
N 	N 	0.52970 0.30880 0.44350 -0.15800
N 	N 	0.44790 0.21400 0.46990 -0.24300
N 	N 	0.64540 0.44550 0.29010 -0.15200
N 	N 	0.62790 0.52550 0.31660 -0.21800
C 	C 	0.38120 0.23850 0.51270 0.24200
C 	C 	0.27330 0.15400 0.55200 -0.71400
H 	H 	0.27730 0.08960 0.56660 0.19900
H 	H 	0.26040 0.18510 0.60030 0.20000
H 	H 	0.21390 0.13390 0.51390 0.19400
Cu	Cu	0.92887 0.37349 0.44009 0.83000
N 	N 	0.65270 0.07440 0.51370 -0.26400
N 	N 	0.61000 0.12690 0.46930 -0.17700
N 	N 	0.69120 0.22090 0.44350 -0.15800
N 	N 	0.78600 0.23390 0.46990 -0.24300
N 	N 	0.55450 0.19990 0.29010 -0.15200
N 	N 	0.47450 0.10240 0.31660 -0.21700
C 	C 	0.76150 0.14270 0.51270 0.24200
C 	C 	0.84600 0.11930 0.55200 -0.71500
H 	H 	0.91040 0.18770 0.56660 0.19900
H 	H 	0.81490 0.07530 0.60030 0.20000
H 	H 	0.86610 0.08000 0.51390 0.19400
Cu	Cu	0.37349 0.44462 0.94009 0.83000
N 	N 	0.07440 0.42170 0.01370 -0.26300
N 	N 	0.12690 0.51690 0.96930 -0.17800
N 	N 	0.22090 0.52970 0.94350 -0.15800
N 	N 	0.23390 0.44790 0.96990 -0.24300
N 	N 	0.19990 0.64540 0.79010 -0.15200
N 	N 	0.10240 0.62790 0.81660 -0.21800
C 	C 	0.14270 0.38120 0.01270 0.24300
C 	C 	0.11930 0.27330 0.05200 -0.71400
H 	H 	0.18770 0.27730 0.06660 0.19900
H 	H 	0.07530 0.26040 0.10030 0.20000
H 	H 	0.08000 0.21390 0.01390 0.19300
Cu	Cu	0.55538 0.92887 0.94009 0.82900
N 	N 	0.57830 0.65270 0.01370 -0.26500
N 	N 	0.48310 0.61000 0.96930 -0.17700
N 	N 	0.47030 0.69120 0.94350 -0.15800
N 	N 	0.55210 0.78600 0.96990 -0.24300
N 	N 	0.35460 0.55450 0.79010 -0.15200
N 	N 	0.37210 0.47450 0.81660 -0.21800
C 	C 	0.61880 0.76150 0.01270 0.24300
C 	C 	0.72670 0.84600 0.05200 -0.71500
H 	H 	0.72270 0.91040 0.06660 0.19900
H 	H 	0.73960 0.81490 0.10030 0.20000
H 	H 	0.78610 0.86610 0.01390 0.19300
Cu	Cu	0.07113 0.62651 0.94009 0.82900
N 	N 	0.34730 0.92560 0.01370 -0.26400
N 	N 	0.39000 0.87310 0.96930 -0.17900
N 	N 	0.30880 0.77910 0.94350 -0.15800
N 	N 	0.21400 0.76610 0.96990 -0.24500
N 	N 	0.44550 0.80010 0.79010 -0.15200
N 	N 	0.52550 0.89760 0.81660 -0.21800
C 	C 	0.23850 0.85730 0.01270 0.24600
C 	C 	0.15400 0.88070 0.05200 -0.72000
H 	H 	0.08960 0.81230 0.06660 0.20100
H 	H 	0.18510 0.92470 0.10030 0.20200
H 	H 	0.13390 0.92000 0.01390 0.19700
Cu	Cu	0.33333 0.66667 0.63032 0.83900
Cu	Cu	0.66667 0.33333 0.13032 0.83900
Cu	Cu	0.66667 0.33333 0.36968 0.83900
Cu	Cu	0.33333 0.66667 0.86968 0.83900
C 	C 	0.04590 0.61800 0.75000 0.11600
C 	C 	0.92870 0.60000 0.75000 -0.15100
C 	C 	0.38200 0.42790 0.75000 0.11700
C 	C 	0.40000 0.32870 0.75000 -0.15200
C 	C 	0.57210 0.95410 0.75000 0.11600
C 	C 	0.67130 0.07130 0.75000 -0.15100
C 	C 	0.95410 0.38200 0.25000 0.11600
C 	C 	0.07130 0.40000 0.25000 -0.15100
C 	C 	0.61800 0.57210 0.25000 0.11700
C 	C 	0.60000 0.67130 0.25000 -0.15200
C 	C 	0.42790 0.04590 0.25000 0.11600
C 	C 	0.32870 0.92870 0.25000 -0.15100
