data_crystal

_cell_length_a 18.58700
_cell_length_b 20.07000
_cell_length_c 8.79570
_cell_angle_alpha 90.00000
_cell_angle_beta  100.61100
_cell_angle_gamma 90.00000

_symmetry_space_group_name_	'P 1'
_symmetry_space_group_name_H-M	'P 1'

loop_
_symmetry_equiv_pos_as_xyz
  x,y,z

loop_
_atom_site_label
_atom_site_type_symbol
_atom_site_fract_x
_atom_site_fract_y
_atom_site_fract_z
_atom_site_charge
N 	N 	0.49810 0.83187 0.50390 -0.29200
N 	N 	0.41156 0.89951 0.71560 -0.26300
N 	N 	0.08095 0.24550 0.77340 -0.28200
C 	C 	0.49850 0.84730 0.38190 0.17900
C 	C 	0.41750 0.95770 0.64610 0.11400
H 	H 	0.45950 0.96530 0.60510 -0.02400
C 	C 	0.36550 0.00760 0.63100 -0.20300
H 	H 	0.37370 0.04800 0.58500 0.10100
C 	C 	0.30250 0.99730 0.68370 0.13600
C 	C 	0.29440 0.93570 0.75250 -0.20500
H 	H 	0.25140 0.92570 0.78750 0.08800
C 	C 	0.35000 0.89030 0.76810 0.11200
H 	H 	0.34420 0.85050 0.81860 -0.03100
C 	C 	0.24320 0.05100 0.66580 -0.14100
H 	H 	0.25040 0.08120 0.58390 0.06200
H 	H 	0.19590 0.02980 0.63410 0.05700
C 	C 	0.24180 0.08910 0.80340 -0.19100
H 	H 	0.28950 0.10960 0.83490 0.08400
H 	H 	0.23490 0.05850 0.88480 0.08100
C 	C 	0.08120 0.20390 0.65750 0.11600
H 	H 	0.04610 0.20960 0.56850 -0.05400
C 	C 	0.13070 0.15250 0.66100 -0.21800
H 	H 	0.12840 0.12420 0.57630 0.09100
C 	C 	0.18420 0.14320 0.79270 0.15800
C 	C 	0.18280 0.18470 0.91410 -0.22500
H 	H 	0.21660 0.17920 0.00550 0.10200
C 	C 	0.13120 0.23510 0.90190 0.11300
H 	H 	0.13130 0.26290 0.98640 -0.03500
N 	N 	0.99810 0.33187 0.50390 -0.28600
N 	N 	0.91156 0.39951 0.71560 -0.24900
N 	N 	0.58095 0.74550 0.77340 -0.27100
C 	C 	0.99850 0.34730 0.38190 0.26000
C 	C 	0.91750 0.45770 0.64610 0.12000
H 	H 	0.95950 0.46530 0.60510 -0.00300
C 	C 	0.86550 0.50760 0.63100 -0.20200
H 	H 	0.87370 0.54800 0.58500 0.11100
C 	C 	0.80250 0.49730 0.68370 0.14200
C 	C 	0.79440 0.43570 0.75250 -0.20700
H 	H 	0.75140 0.42570 0.78750 0.09200
C 	C 	0.85000 0.39030 0.76810 0.11700
H 	H 	0.84420 0.35050 0.81860 -0.02600
C 	C 	0.74320 0.55100 0.66580 -0.14800
H 	H 	0.75040 0.58120 0.58390 0.06700
H 	H 	0.69590 0.52980 0.63410 0.06300
C 	C 	0.74180 0.58910 0.80340 -0.18800
H 	H 	0.78950 0.60960 0.83490 0.08500
H 	H 	0.73490 0.55850 0.88480 0.08200
C 	C 	0.58120 0.70390 0.65750 0.12100
H 	H 	0.54610 0.70960 0.56850 -0.03400
C 	C 	0.63070 0.65250 0.66100 -0.21300
H 	H 	0.62840 0.62420 0.57630 0.09700
C 	C 	0.68420 0.64320 0.79270 0.16200
C 	C 	0.68280 0.68470 0.91410 -0.22700
H 	H 	0.71660 0.67920 0.00550 0.10500
C 	C 	0.63120 0.73510 0.90190 0.12000
H 	H 	0.63130 0.76290 0.98640 -0.03300
N 	N 	0.50190 0.83187 0.99610 -0.29300
N 	N 	0.58844 0.89951 0.78440 -0.26400
N 	N 	0.91905 0.24550 0.72660 -0.25500
C 	C 	0.50150 0.84730 0.11810 0.18200
C 	C 	0.58250 0.95770 0.85390 0.11700
H 	H 	0.54050 0.96530 0.89490 -0.02500
C 	C 	0.63450 0.00760 0.86900 -0.20900
H 	H 	0.62630 0.04800 0.91500 0.10300
C 	C 	0.69750 0.99730 0.81630 0.14600
C 	C 	0.70560 0.93570 0.74750 -0.21200
H 	H 	0.74860 0.92570 0.71250 0.09600
C 	C 	0.65000 0.89030 0.73190 0.11600
H 	H 	0.65580 0.85050 0.68140 -0.03100
C 	C 	0.75680 0.05100 0.83420 -0.15700
H 	H 	0.74960 0.08120 0.91610 0.06900
H 	H 	0.80410 0.02980 0.86590 0.07100
C 	C 	0.75820 0.08910 0.69660 -0.17900
H 	H 	0.71050 0.10960 0.66510 0.08100
H 	H 	0.76510 0.05850 0.61520 0.08200
C 	C 	0.91880 0.20390 0.84250 0.12300
H 	H 	0.95390 0.20960 0.93150 -0.01400
C 	C 	0.86930 0.15250 0.83900 -0.20300
H 	H 	0.87160 0.12420 0.92370 0.10100
C 	C 	0.81580 0.14320 0.70730 0.15700
C 	C 	0.81720 0.18470 0.58590 -0.21400
H 	H 	0.78340 0.17920 0.49450 0.10100
C 	C 	0.86880 0.23510 0.59810 0.11900
H 	H 	0.86870 0.26290 0.51360 -0.02500
N 	N 	0.00190 0.33187 0.99610 -0.30800
N 	N 	0.08844 0.39951 0.78440 -0.27300
N 	N 	0.41905 0.74550 0.72660 -0.27000
C 	C 	0.00150 0.34730 0.11810 0.15700
C 	C 	0.08250 0.45770 0.85390 0.11400
H 	H 	0.04050 0.46530 0.89490 -0.04200
C 	C 	0.13450 0.50760 0.86900 -0.21100
H 	H 	0.12630 0.54800 0.91500 0.09600
C 	C 	0.19750 0.49730 0.81630 0.14300
C 	C 	0.20560 0.43570 0.74750 -0.21100
H 	H 	0.24860 0.42570 0.71250 0.09300
C 	C 	0.15000 0.39030 0.73190 0.11300
H 	H 	0.15580 0.35050 0.68140 -0.03600
C 	C 	0.25680 0.55100 0.83420 -0.15200
H 	H 	0.24960 0.58120 0.91610 0.06500
H 	H 	0.30410 0.52980 0.86590 0.06500
C 	C 	0.25820 0.58910 0.69660 -0.18200
H 	H 	0.21050 0.60960 0.66510 0.08000
H 	H 	0.26510 0.55850 0.61520 0.08100
C 	C 	0.41880 0.70390 0.84250 0.11800
H 	H 	0.45390 0.70960 0.93150 -0.03400
C 	C 	0.36930 0.65250 0.83900 -0.21000
H 	H 	0.37160 0.62420 0.92370 0.09500
C 	C 	0.31580 0.64320 0.70730 0.15500
C 	C 	0.31720 0.68470 0.58590 -0.21800
H 	H 	0.28340 0.67920 0.49450 0.10000
C 	C 	0.36880 0.73510 0.59810 0.11500
H 	H 	0.36870 0.76290 0.51360 -0.03000
Zn	Zn	0.50000 0.82406 0.75000 1.18100
Zn	Zn	0.00000 0.32406 0.75000 1.16100
N 	N 	0.50000 0.87620 0.25000 -0.19700
N 	N 	0.00000 0.37620 0.25000 -0.24500
N 	N 	0.50190 0.16813 0.49610 -0.29100
N 	N 	0.58844 0.10049 0.28440 -0.26400
N 	N 	0.91905 0.75450 0.22660 -0.25300
C 	C 	0.50150 0.15270 0.61810 0.17900
C 	C 	0.58250 0.04230 0.35390 0.11800
H 	H 	0.54050 0.03470 0.39490 -0.02500
C 	C 	0.63450 0.99240 0.36900 -0.21100
H 	H 	0.62630 0.95200 0.41500 0.10400
C 	C 	0.69750 0.00270 0.31630 0.14900
C 	C 	0.70560 0.06430 0.24750 -0.21300
H 	H 	0.74860 0.07430 0.21250 0.09800
C 	C 	0.65000 0.10970 0.23190 0.11800
H 	H 	0.65580 0.14950 0.18140 -0.03100
C 	C 	0.75680 0.94900 0.33420 -0.16100
H 	H 	0.74960 0.91880 0.41610 0.07100
H 	H 	0.80410 0.97020 0.36590 0.07300
C 	C 	0.75820 0.91090 0.19660 -0.17400
H 	H 	0.71050 0.89040 0.16510 0.08000
H 	H 	0.76510 0.94150 0.11520 0.08200
C 	C 	0.91880 0.79610 0.34250 0.12100
H 	H 	0.95390 0.79040 0.43150 -0.01200
C 	C 	0.86930 0.84750 0.33900 -0.20000
H 	H 	0.87160 0.87580 0.42370 0.10000
C 	C 	0.81580 0.85680 0.20730 0.15200
C 	C 	0.81720 0.81530 0.08590 -0.20300
H 	H 	0.78340 0.82080 0.99450 0.09500
C 	C 	0.86880 0.76490 0.09810 0.11400
H 	H 	0.86870 0.73710 0.01360 -0.02300
N 	N 	0.00190 0.66813 0.49610 -0.30800
N 	N 	0.08844 0.60049 0.28440 -0.27300
N 	N 	0.41905 0.25450 0.22660 -0.27000
C 	C 	0.00150 0.65270 0.61810 0.15500
C 	C 	0.08250 0.54230 0.35390 0.11400
H 	H 	0.04050 0.53470 0.39490 -0.04300
C 	C 	0.13450 0.49240 0.36900 -0.21100
H 	H 	0.12630 0.45200 0.41500 0.09600
C 	C 	0.19750 0.50270 0.31630 0.14400
C 	C 	0.20560 0.56430 0.24750 -0.21100
H 	H 	0.24860 0.57430 0.21250 0.09400
C 	C 	0.15000 0.60970 0.23190 0.11300
H 	H 	0.15580 0.64950 0.18140 -0.03500
C 	C 	0.25680 0.44900 0.33420 -0.15400
H 	H 	0.24960 0.41880 0.41610 0.06600
H 	H 	0.30410 0.47020 0.36590 0.06500
C 	C 	0.25820 0.41090 0.19660 -0.18000
H 	H 	0.21050 0.39040 0.16510 0.08000
H 	H 	0.26510 0.44150 0.11520 0.08100
C 	C 	0.41880 0.29610 0.34250 0.11800
H 	H 	0.45390 0.29040 0.43150 -0.03300
C 	C 	0.36930 0.34750 0.33900 -0.20800
H 	H 	0.37160 0.37580 0.42370 0.09500
C 	C 	0.31580 0.35680 0.20730 0.15400
C 	C 	0.31720 0.31530 0.08590 -0.21400
H 	H 	0.28340 0.32080 0.99450 0.09800
C 	C 	0.36880 0.26490 0.09810 0.11300
H 	H 	0.36870 0.23710 0.01360 -0.02900
N 	N 	0.49810 0.16813 0.00390 -0.29000
N 	N 	0.41156 0.10049 0.21560 -0.26200
N 	N 	0.08095 0.75450 0.27340 -0.28000
C 	C 	0.49850 0.15270 0.88190 0.17700
C 	C 	0.41750 0.04230 0.14610 0.11300
H 	H 	0.45950 0.03470 0.10510 -0.02300
C 	C 	0.36550 0.99240 0.13100 -0.20200
H 	H 	0.37370 0.95200 0.08500 0.10100
C 	C 	0.30250 0.00270 0.18370 0.13600
C 	C 	0.29440 0.06430 0.25250 -0.20500
H 	H 	0.25140 0.07430 0.28750 0.08900
C 	C 	0.35000 0.10970 0.26810 0.11200
H 	H 	0.34420 0.14950 0.31860 -0.03100
C 	C 	0.24320 0.94900 0.16580 -0.14200
H 	H 	0.25040 0.91880 0.08390 0.06300
H 	H 	0.19590 0.97020 0.13410 0.05700
C 	C 	0.24180 0.91090 0.30340 -0.19000
H 	H 	0.28950 0.89040 0.33490 0.08500
H 	H 	0.23490 0.94150 0.38480 0.08100
C 	C 	0.08120 0.79610 0.15750 0.11500
H 	H 	0.04610 0.79040 0.06850 -0.05300
C 	C 	0.13070 0.84750 0.16100 -0.21700
H 	H 	0.12840 0.87580 0.07630 0.09100
C 	C 	0.18420 0.85680 0.29270 0.15700
C 	C 	0.18280 0.81530 0.41410 -0.22200
H 	H 	0.21660 0.82080 0.50550 0.10000
C 	C 	0.13120 0.76490 0.40190 0.11100
H 	H 	0.13130 0.73710 0.48640 -0.03400
N 	N 	0.99810 0.66813 0.00390 -0.28200
N 	N 	0.91156 0.60049 0.21560 -0.24900
N 	N 	0.58095 0.25450 0.27340 -0.27000
C 	C 	0.99850 0.65270 0.88190 0.25300
C 	C 	0.91750 0.54230 0.14610 0.12100
H 	H 	0.95950 0.53470 0.10510 -0.00300
C 	C 	0.86550 0.49240 0.13100 -0.20300
H 	H 	0.87370 0.45200 0.08500 0.11200
C 	C 	0.80250 0.50270 0.18370 0.14400
C 	C 	0.79440 0.56430 0.25250 -0.20800
H 	H 	0.75140 0.57430 0.28750 0.09300
C 	C 	0.85000 0.60970 0.26810 0.11800
H 	H 	0.84420 0.64950 0.31860 -0.02500
C 	C 	0.74320 0.44900 0.16580 -0.15000
H 	H 	0.75040 0.41880 0.08390 0.06800
H 	H 	0.69590 0.47020 0.13410 0.06500
C 	C 	0.74180 0.41090 0.30340 -0.18500
H 	H 	0.78950 0.39040 0.33490 0.08500
H 	H 	0.73490 0.44150 0.38480 0.08200
C 	C 	0.58120 0.29610 0.15750 0.12000
H 	H 	0.54610 0.29040 0.06850 -0.03300
C 	C 	0.63070 0.34750 0.16100 -0.21000
H 	H 	0.62840 0.37580 0.07630 0.09700
C 	C 	0.68420 0.35680 0.29270 0.15800
C 	C 	0.68280 0.31530 0.41410 -0.21800
H 	H 	0.71660 0.32080 0.50550 0.10100
C 	C 	0.63120 0.26490 0.40190 0.11600
H 	H 	0.63130 0.23710 0.48640 -0.03100
Zn	Zn	0.50000 0.17594 0.25000 1.18100
Zn	Zn	0.00000 0.67594 0.25000 1.16100
N 	N 	0.50000 0.12380 0.75000 -0.19600
N 	N 	-0.00000 0.62380 0.75000 -0.24200
