data_crystal

_cell_length_a 15.38730
_cell_length_b 15.38730
_cell_length_c 9.85820
_cell_angle_alpha 90.00000
_cell_angle_beta  90.00000
_cell_angle_gamma 90.00000

_symmetry_space_group_name_	'P 1'
_symmetry_space_group_name_H-M	'P 1'

loop_
_symmetry_equiv_pos_as_xyz
  x,y,z

loop_
_atom_site_label
_atom_site_type_symbol
_atom_site_fract_x
_atom_site_fract_y
_atom_site_fract_z
_atom_site_charge
O 	O 	0.46912 0.62575 0.87610 -0.43600
C 	C 	0.61560 0.75680 0.87990 0.28600
H 	H 	0.59070 0.73800 0.79900 -0.03800
C 	C 	0.68670 0.80630 0.88160 -0.26200
H 	H 	0.71010 0.82570 0.80010 0.14100
O 	O 	0.53088 0.37425 0.87610 -0.43700
C 	C 	0.38440 0.24320 0.87990 0.28500
H 	H 	0.40930 0.26200 0.79900 -0.03800
C 	C 	0.31330 0.19370 0.88160 -0.26200
H 	H 	0.28990 0.17430 0.80010 0.14100
O 	O 	0.37425 0.46912 0.87610 -0.43700
C 	C 	0.24320 0.61560 0.87990 0.28500
H 	H 	0.26200 0.59070 0.79900 -0.03800
C 	C 	0.19370 0.68670 0.88160 -0.26200
H 	H 	0.17430 0.71010 0.80010 0.14100
O 	O 	0.62575 0.53088 0.87610 -0.43700
C 	C 	0.75680 0.38440 0.87990 0.28500
H 	H 	0.73800 0.40930 0.79900 -0.03800
C 	C 	0.80630 0.31330 0.88160 -0.26200
H 	H 	0.82570 0.28990 0.80010 0.14100
O 	O 	0.53088 0.62575 0.62390 -0.46700
C 	C 	0.38440 0.75680 0.62010 0.25200
H 	H 	0.40930 0.73800 0.70100 -0.02700
C 	C 	0.31330 0.80630 0.61840 -0.31200
H 	H 	0.28990 0.82570 0.69990 0.15700
O 	O 	0.46912 0.37425 0.62390 -0.46700
C 	C 	0.61560 0.24320 0.62010 0.25200
H 	H 	0.59070 0.26200 0.70100 -0.02700
C 	C 	0.68670 0.19370 0.61840 -0.31200
H 	H 	0.71010 0.17430 0.69990 0.15700
O 	O 	0.62575 0.46912 0.62390 -0.46700
C 	C 	0.75680 0.61560 0.62010 0.25200
H 	H 	0.73800 0.59070 0.70100 -0.02700
C 	C 	0.80630 0.68670 0.61840 -0.31200
H 	H 	0.82570 0.71010 0.69990 0.15700
O 	O 	0.37425 0.53088 0.62390 -0.46700
C 	C 	0.24320 0.38440 0.62010 0.25200
H 	H 	0.26200 0.40930 0.70100 -0.02700
C 	C 	0.19370 0.31330 0.61840 -0.31200
H 	H 	0.17430 0.28990 0.69990 0.15700
O 	O 	0.53088 0.37425 0.12390 -0.46300
C 	C 	0.38440 0.24320 0.12010 0.25300
H 	H 	0.40930 0.26200 0.20100 -0.03200
C 	C 	0.31330 0.19370 0.11840 -0.29600
H 	H 	0.28990 0.17430 0.19990 0.14400
O 	O 	0.46912 0.62575 0.12390 -0.46300
C 	C 	0.61560 0.75680 0.12010 0.25300
H 	H 	0.59070 0.73800 0.20100 -0.03200
C 	C 	0.68670 0.80630 0.11840 -0.29600
H 	H 	0.71010 0.82570 0.19990 0.14400
O 	O 	0.62575 0.53088 0.12390 -0.46300
C 	C 	0.75680 0.38440 0.12010 0.25300
H 	H 	0.73800 0.40930 0.20100 -0.03200
C 	C 	0.80630 0.31330 0.11840 -0.29600
H 	H 	0.82570 0.28990 0.19990 0.14400
O 	O 	0.37425 0.46912 0.12390 -0.46300
C 	C 	0.24320 0.61560 0.12010 0.25300
H 	H 	0.26200 0.59070 0.20100 -0.03200
C 	C 	0.19370 0.68670 0.11840 -0.29600
H 	H 	0.17430 0.71010 0.19990 0.14400
O 	O 	0.46912 0.37425 0.37610 -0.46700
C 	C 	0.61560 0.24320 0.37990 0.25100
H 	H 	0.59070 0.26200 0.29900 -0.03200
C 	C 	0.68670 0.19370 0.38160 -0.31100
H 	H 	0.71010 0.17430 0.30010 0.14900
O 	O 	0.53088 0.62575 0.37610 -0.46700
C 	C 	0.38440 0.75680 0.37990 0.25100
H 	H 	0.40930 0.73800 0.29900 -0.03200
C 	C 	0.31330 0.80630 0.38160 -0.31100
H 	H 	0.28990 0.82570 0.30010 0.14900
O 	O 	0.37425 0.53088 0.37610 -0.46700
C 	C 	0.24320 0.38440 0.37990 0.25100
H 	H 	0.26200 0.40930 0.29900 -0.03200
C 	C 	0.19370 0.31330 0.38160 -0.31100
H 	H 	0.17430 0.28990 0.30010 0.14900
O 	O 	0.62575 0.46912 0.37610 -0.46700
C 	C 	0.75680 0.61560 0.37990 0.25100
H 	H 	0.73800 0.59070 0.29900 -0.03200
C 	C 	0.80630 0.68670 0.38160 -0.31100
H 	H 	0.82570 0.71010 0.30010 0.14900
Gd	Gd	0.50000 0.50000 0.75000 1.96200
Gd	Gd	0.50000 0.50000 0.25000 1.95200
S 	S 	0.47478 0.67890 -0.00000 0.68400
N 	N 	0.96800 0.87020 -0.00000 -0.11900
O 	O 	0.41480 0.74480 -0.00000 -0.33700
C 	C 	0.58190 0.73570 -0.00000 -0.30400
C 	C 	0.72560 0.82910 -0.00000 0.19200
C 	C 	0.81190 0.88030 -0.00000 -0.13800
C 	C 	0.88460 0.83430 -0.00000 0.12400
C 	C 	0.89420 0.73890 -0.00000 -0.10400
H 	H 	0.84920 0.69850 -0.00000 0.08900
C 	C 	0.98190 0.72040 -0.00000 -0.07900
H 	H 	0.00720 0.66550 -0.00000 0.06300
C 	C 	0.02570 0.80060 -0.00000 0.11200
S 	S 	0.52522 0.32110 -0.00000 0.68400
N 	N 	0.03200 0.12980 -0.00000 -0.11900
O 	O 	0.58520 0.25520 -0.00000 -0.33700
C 	C 	0.41810 0.26430 -0.00000 -0.30400
C 	C 	0.27440 0.17090 -0.00000 0.19200
C 	C 	0.18810 0.11970 -0.00000 -0.13800
C 	C 	0.11540 0.16570 -0.00000 0.12400
C 	C 	0.10580 0.26110 -0.00000 -0.10400
H 	H 	0.15080 0.30150 -0.00000 0.08900
C 	C 	0.01810 0.27960 -0.00000 -0.07900
H 	H 	0.99280 0.33450 -0.00000 0.06300
C 	C 	0.97430 0.19940 -0.00000 0.11200
S 	S 	0.32110 0.47478 -0.00000 0.68400
N 	N 	0.12980 0.96800 -0.00000 -0.11900
O 	O 	0.25520 0.41480 -0.00000 -0.33700
C 	C 	0.26430 0.58190 -0.00000 -0.30400
C 	C 	0.17090 0.72560 -0.00000 0.19200
C 	C 	0.11970 0.81190 -0.00000 -0.13800
C 	C 	0.16570 0.88460 -0.00000 0.12400
C 	C 	0.26110 0.89420 -0.00000 -0.10400
H 	H 	0.30150 0.84920 -0.00000 0.08900
C 	C 	0.27960 0.98190 -0.00000 -0.07900
H 	H 	0.33450 0.00720 -0.00000 0.06300
C 	C 	0.19940 0.02570 -0.00000 0.11200
S 	S 	0.67890 0.52522 -0.00000 0.68400
N 	N 	0.87020 0.03200 -0.00000 -0.11900
O 	O 	0.74480 0.58520 -0.00000 -0.33700
C 	C 	0.73570 0.41810 -0.00000 -0.30400
C 	C 	0.82910 0.27440 -0.00000 0.19200
C 	C 	0.88030 0.18810 -0.00000 -0.13800
C 	C 	0.83430 0.11540 -0.00000 0.12400
C 	C 	0.73890 0.10580 -0.00000 -0.10400
H 	H 	0.69850 0.15080 -0.00000 0.08900
C 	C 	0.72040 0.01810 -0.00000 -0.07900
H 	H 	0.66550 0.99280 -0.00000 0.06300
C 	C 	0.80060 0.97430 -0.00000 0.11200
S 	S 	0.52522 0.67890 0.50000 0.72400
N 	N 	0.03200 0.87020 0.50000 -0.11600
O 	O 	0.58520 0.74480 0.50000 -0.33300
C 	C 	0.41810 0.73570 0.50000 -0.26900
C 	C 	0.27440 0.82910 0.50000 0.24000
C 	C 	0.18810 0.88030 0.50000 -0.14500
C 	C 	0.11540 0.83430 0.50000 0.13600
C 	C 	0.10580 0.73890 0.50000 -0.09900
H 	H 	0.15080 0.69850 0.50000 0.09400
C 	C 	0.01810 0.72040 0.50000 -0.07700
H 	H 	0.99280 0.66550 0.50000 0.07100
C 	C 	0.97430 0.80060 0.50000 0.12400
S 	S 	0.47478 0.32110 0.50000 0.72400
N 	N 	0.96800 0.12980 0.50000 -0.11600
O 	O 	0.41480 0.25520 0.50000 -0.33300
C 	C 	0.58190 0.26430 0.50000 -0.26900
C 	C 	0.72560 0.17090 0.50000 0.24000
C 	C 	0.81190 0.11970 0.50000 -0.14500
C 	C 	0.88460 0.16570 0.50000 0.13600
C 	C 	0.89420 0.26110 0.50000 -0.09900
H 	H 	0.84920 0.30150 0.50000 0.09400
C 	C 	0.98190 0.27960 0.50000 -0.07700
H 	H 	0.00720 0.33450 0.50000 0.07100
C 	C 	0.02570 0.19940 0.50000 0.12400
S 	S 	0.67890 0.47478 0.50000 0.72400
N 	N 	0.87020 0.96800 0.50000 -0.11600
O 	O 	0.74480 0.41480 0.50000 -0.33300
C 	C 	0.73570 0.58190 0.50000 -0.26900
C 	C 	0.82910 0.72560 0.50000 0.24000
C 	C 	0.88030 0.81190 0.50000 -0.14500
C 	C 	0.83430 0.88460 0.50000 0.13600
C 	C 	0.73890 0.89420 0.50000 -0.09900
H 	H 	0.69850 0.84920 0.50000 0.09400
C 	C 	0.72040 0.98190 0.50000 -0.07700
H 	H 	0.66550 0.00720 0.50000 0.07100
C 	C 	0.80060 0.02570 0.50000 0.12400
S 	S 	0.32110 0.52522 0.50000 0.72400
N 	N 	0.12980 0.03200 0.50000 -0.11600
O 	O 	0.25520 0.58520 0.50000 -0.33300
C 	C 	0.26430 0.41810 0.50000 -0.26900
C 	C 	0.17090 0.27440 0.50000 0.24000
C 	C 	0.11970 0.18810 0.50000 -0.14500
C 	C 	0.16570 0.11540 0.50000 0.13600
C 	C 	0.26110 0.10580 0.50000 -0.09900
H 	H 	0.30150 0.15080 0.50000 0.09400
C 	C 	0.27960 0.01810 0.50000 -0.07700
H 	H 	0.33450 0.99280 0.50000 0.07100
C 	C 	0.19940 0.97430 0.50000 0.12400
