data_crystal

_cell_length_a 7.00770
_cell_length_b 7.81690
_cell_length_c 15.65860
_cell_angle_alpha 98.97100
_cell_angle_beta  90.00000
_cell_angle_gamma 90.00000

_symmetry_space_group_name_	'P 1'
_symmetry_space_group_name_H-M	'P 1'

loop_
_symmetry_equiv_pos_as_xyz
  x,y,z

loop_
_atom_site_label
_atom_site_type_symbol
_atom_site_fract_x
_atom_site_fract_y
_atom_site_fract_z
_atom_site_charge
Ni	Ni	0.74343 0.69995 0.35065 1.04600
Ni	Ni	0.24343 0.30005 0.14935 1.04600
Ni	Ni	0.25657 0.30005 0.64935 1.04500
Ni	Ni	0.75657 0.69995 0.85065 1.04500
H 	H 	0.92530 0.78310 0.53460 -0.00500
H 	H 	0.90750 0.35480 0.37060 0.01200
H 	H 	0.69730 0.08270 0.39990 -0.01800
H 	H 	0.47760 0.71530 0.51090 0.04100
H 	H 	0.86530 0.65210 0.16250 -0.16000
H 	H 	0.42530 0.21690 0.96540 -0.00500
H 	H 	0.40750 0.64520 0.12940 0.01200
H 	H 	0.19730 0.91730 0.10010 -0.01800
H 	H 	0.97760 0.28470 0.98910 0.04100
H 	H 	0.36530 0.34790 0.33750 -0.16000
H 	H 	0.07470 0.21690 0.46540 -0.00500
H 	H 	0.09250 0.64520 0.62940 0.01200
H 	H 	0.30270 0.91730 0.60010 -0.01800
H 	H 	0.52240 0.28470 0.48910 0.04100
H 	H 	0.13470 0.34790 0.83750 -0.16000
H 	H 	0.57470 0.78310 0.03460 -0.00500
H 	H 	0.59250 0.35480 0.87060 0.01200
H 	H 	0.80270 0.08270 0.89990 -0.01800
H 	H 	0.02240 0.71530 0.01090 0.04100
H 	H 	0.63470 0.65210 0.66250 -0.16000
C 	C 	0.95470 0.66630 0.51916 0.00300
C 	C 	0.94420 0.41690 0.42358 0.01000
C 	C 	0.61690 0.04630 0.44076 -0.01000
C 	C 	0.48880 0.83160 0.50550 -0.00800
C 	C 	0.92540 0.56360 0.18555 0.48400
C 	C 	0.45470 0.33370 0.98084 0.00300
C 	C 	0.44420 0.58310 0.07642 0.01000
C 	C 	0.11690 0.95370 0.05924 -0.00900
C 	C 	0.98880 0.16840 0.99450 -0.00700
C 	C 	0.42540 0.43640 0.31445 0.48600
C 	C 	0.04530 0.33370 0.48084 0.00300
C 	C 	0.05580 0.58310 0.57642 0.01000
C 	C 	0.38310 0.95370 0.55924 -0.01000
C 	C 	0.51120 0.16840 0.49450 -0.00800
C 	C 	0.07460 0.43640 0.81445 0.48400
C 	C 	0.54530 0.66630 0.01916 0.00300
C 	C 	0.55580 0.41690 0.92358 0.01000
C 	C 	0.88310 0.04630 0.94076 -0.00900
C 	C 	0.01120 0.83160 0.00550 -0.00700
C 	C 	0.57460 0.56360 0.68555 0.48600
N 	N 	0.89831 0.58341 0.44244 -0.20500
N 	N 	0.60636 0.87771 0.44606 -0.22600
N 	N 	0.39831 0.41659 0.05756 -0.20500
N 	N 	0.10636 0.12229 0.05394 -0.22700
N 	N 	0.10169 0.41659 0.55756 -0.20500
N 	N 	0.39364 0.12229 0.55394 -0.22600
N 	N 	0.60169 0.58341 0.94244 -0.20500
N 	N 	0.89364 0.87771 0.94606 -0.22700
O 	O 	0.88182 0.53363 0.25787 -0.51000
O 	O 	0.03704 0.48008 0.13244 -0.45400
O 	O 	0.38182 0.46637 0.24213 -0.51100
O 	O 	0.53704 0.51992 0.36756 -0.45500
O 	O 	0.11818 0.46637 0.74213 -0.51000
O 	O 	0.96296 0.51992 0.86756 -0.45400
O 	O 	0.61818 0.53363 0.75787 -0.51100
O 	O 	0.46296 0.48008 0.63244 -0.45500
