data_crystal

_cell_length_a 12.02010
_cell_length_b 12.93830
_cell_length_c 20.74630
_cell_angle_alpha 90.00000
_cell_angle_beta  90.00000
_cell_angle_gamma 90.16210

_symmetry_space_group_name_	'P 1'
_symmetry_space_group_name_H-M	'P 1'

loop_
_symmetry_equiv_pos_as_xyz
  x,y,z

loop_
_atom_site_label
_atom_site_type_symbol
_atom_site_fract_x
_atom_site_fract_y
_atom_site_fract_z
_atom_site_charge
Co	Co	0.30675 0.11759 0.82664 1.13400
Co	Co	0.16542 0.11470 0.67384 1.13000
Co	Co	0.80675 0.61759 0.17336 1.13500
Co	Co	0.66542 0.61470 0.32616 1.13100
H 	H 	0.19550 0.97630 0.75140 0.18700
H 	H 	0.30390 0.97290 0.74520 0.13400
H 	H 	0.29040 0.65110 0.67440 0.25300
H 	H 	0.69990 0.25520 0.88060 0.26200
H 	H 	0.29750 0.46300 0.72200 0.18100
H 	H 	0.27070 0.42180 0.65250 0.20200
H 	H 	0.41050 0.30900 0.59460 0.18300
H 	H 	0.52330 0.28120 0.62840 0.17500
H 	H 	0.56470 0.34610 0.74010 0.16800
H 	H 	0.47780 0.41540 0.77640 0.17200
H 	H 	0.37570 0.49100 0.55800 0.23200
H 	H 	0.46760 0.57620 0.56790 0.23300
H 	H 	0.55320 0.41480 0.55250 -0.13600
H 	H 	0.65020 0.52890 0.62200 0.20500
H 	H 	0.66830 0.41480 0.64590 0.20100
H 	H 	0.62040 0.52190 0.73390 -0.14000
H 	H 	0.44320 0.59620 0.73840 0.20500
H 	H 	0.50960 0.64120 0.67930 0.21600
H 	H 	0.13000 0.41620 0.85180 0.17500
H 	H 	0.09450 0.33620 0.90510 0.18000
H 	H 	0.03000 0.41820 0.74420 0.12800
H 	H 	0.93040 0.34150 0.73200 0.15300
H 	H 	0.93660 0.21380 0.88450 0.19300
H 	H 	0.87350 0.21550 0.81830 0.18200
H 	H 	0.91150 0.35890 0.96260 0.23700
H 	H 	0.83400 0.45230 0.94490 0.23600
H 	H 	0.02050 0.50020 0.93060 -0.16100
H 	H 	0.00670 0.56370 0.82420 0.17000
H 	H 	0.89280 0.57900 0.86010 0.19000
H 	H 	0.85970 0.50780 0.75810 -0.11300
H 	H 	0.75000 0.36420 0.79000 0.19600
H 	H 	0.73360 0.45540 0.83910 0.21000
H 	H 	0.53960 0.19370 0.02530 0.07400
H 	H 	0.43420 0.09720 0.95660 -0.02200
H 	H 	0.33900 0.34350 0.86420 -0.01100
H 	H 	0.44490 0.44630 0.92860 0.06000
H 	H 	0.83170 0.23620 0.54500 0.09600
H 	H 	0.92980 0.13660 0.61400 -0.04400
H 	H 	0.20200 0.28280 0.57270 -0.02800
H 	H 	0.11020 0.38910 0.50300 0.09000
H 	H 	0.52610 0.53790 0.99770 0.06200
H 	H 	0.66100 0.28380 0.07230 0.07400
H 	H 	0.63900 0.63380 0.06270 -0.01600
H 	H 	0.76790 0.38640 0.13690 -0.03700
H 	H 	0.74960 0.39990 0.52550 0.05500
H 	H 	0.65470 0.51030 0.46000 -0.01700
H 	H 	0.91130 0.54450 0.34880 -0.00300
H 	H 	0.01320 0.43120 0.40900 0.02200
H 	H 	0.69550 0.47630 0.24860 0.23700
H 	H 	0.80390 0.47290 0.25480 0.17700
H 	H 	0.79040 0.15110 0.32560 0.24800
H 	H 	0.19990 0.75520 0.11940 0.24900
H 	H 	0.79750 0.96300 0.27800 0.15600
H 	H 	0.77070 0.92180 0.34750 0.17900
H 	H 	0.91050 0.80900 0.40540 0.12800
H 	H 	0.02330 0.78120 0.37160 0.10500
H 	H 	0.06470 0.84610 0.25990 0.14100
H 	H 	0.97780 0.91540 0.22360 0.15700
H 	H 	0.87570 0.99100 0.44200 0.13400
H 	H 	0.96760 0.07620 0.43210 0.16800
H 	H 	0.05320 0.91480 0.44750 -0.08000
H 	H 	0.15020 0.02890 0.37800 0.18400
H 	H 	0.16830 0.91480 0.35410 0.15700
H 	H 	0.12040 0.02190 0.26610 -0.05300
H 	H 	0.94320 0.09620 0.26160 0.15200
H 	H 	0.00960 0.14120 0.32070 0.13600
H 	H 	0.63000 0.91620 0.14820 0.12400
H 	H 	0.59450 0.83620 0.09490 0.13400
H 	H 	0.53000 0.91820 0.25580 0.11900
H 	H 	0.43040 0.84150 0.26800 0.13000
H 	H 	0.43660 0.71380 0.11550 0.16700
H 	H 	0.37350 0.71550 0.18170 0.15900
H 	H 	0.41150 0.85890 0.03740 0.17700
H 	H 	0.33400 0.95230 0.05510 0.17500
H 	H 	0.52050 0.00020 0.06940 -0.04100
H 	H 	0.50670 0.06370 0.17580 0.12700
H 	H 	0.39280 0.07900 0.13990 0.12800
H 	H 	0.35970 0.00780 0.24190 -0.03600
H 	H 	0.25000 0.86420 0.21000 0.15400
H 	H 	0.23360 0.95540 0.16090 0.16000
H 	H 	0.03960 0.69370 0.97470 0.07700
H 	H 	0.93420 0.59720 0.04340 -0.03500
H 	H 	0.83900 0.84350 0.13580 -0.01000
H 	H 	0.94490 0.94630 0.07140 0.05800
H 	H 	0.33170 0.73620 0.45500 0.07300
H 	H 	0.42980 0.63660 0.38600 -0.03700
H 	H 	0.70200 0.78280 0.42730 -0.01500
H 	H 	0.61020 0.88910 0.49700 0.06700
H 	H 	0.02610 0.03790 0.00230 0.04700
H 	H 	0.16100 0.78380 0.92770 0.04900
H 	H 	0.13900 0.13380 0.93730 -0.00900
H 	H 	0.26790 0.88640 0.86310 -0.02600
H 	H 	0.24960 0.89990 0.47450 0.04600
H 	H 	0.15470 0.01030 0.54000 0.03200
H 	H 	0.41130 0.04450 0.65120 -0.03100
H 	H 	0.51320 0.93120 0.59100 0.07200
C 	C 	0.41590 0.35910 0.68948 0.28200
C 	C 	0.32990 0.44560 0.68060 -0.55300
C 	C 	0.46760 0.33470 0.62352 -0.51200
C 	C 	0.50860 0.39910 0.73446 -0.50300
C 	C 	0.38450 0.54150 0.65150 0.57800
C 	C 	0.43390 0.51500 0.58674 -0.67000
C 	C 	0.52110 0.43150 0.59461 0.48500
C 	C 	0.61340 0.46890 0.64023 -0.61400
C 	C 	0.56190 0.49650 0.70500 0.48600
C 	C 	0.47530 0.57920 0.69680 -0.67100
C 	C 	0.35890 0.26070 0.71336 0.25000
C 	C 	0.01000 0.31310 0.81885 0.23300
C 	C 	0.06710 0.37990 0.87058 -0.51900
C 	C 	0.96780 0.38290 0.76443 -0.40700
C 	C 	0.91050 0.25830 0.85009 -0.52000
C 	C 	0.82850 0.33670 0.87722 0.56000
C 	C 	0.88600 0.40230 0.92747 -0.67400
C 	C 	0.98380 0.45800 0.89760 0.51800
C 	C 	0.94390 0.52780 0.84320 -0.56600
C 	C 	0.88620 0.46270 0.79274 0.42300
C 	C 	0.78680 0.40580 0.82253 -0.61700
C 	C 	0.09040 0.23200 0.79277 0.25300
C 	C 	0.50830 0.33300 0.98457 0.05100
C 	C 	0.50100 0.22600 0.99210 -0.13600
C 	C 	0.43700 0.16840 0.95060 0.06700
C 	C 	0.38170 0.31280 0.89626 0.06700
C 	C 	0.44470 0.37520 0.93522 -0.13700
C 	C 	0.95740 0.32910 0.51750 0.12800
C 	C 	0.90720 0.24890 0.55068 -0.20500
C 	C 	0.96700 0.18830 0.59158 0.13500
C 	C 	0.12570 0.27400 0.56755 0.10700
C 	C 	0.07090 0.33890 0.52567 -0.21600
C 	C 	0.57530 0.50480 0.02541 -0.14300
C 	C 	0.65420 0.35520 0.06946 -0.14300
C 	C 	0.64330 0.56210 0.06511 0.07200
C 	C 	0.71900 0.41780 0.10823 0.06700
C 	C 	0.58010 0.39760 0.02674 0.06200
C 	C 	0.89380 0.40040 0.47539 -0.00400
C 	C 	0.78450 0.42720 0.48925 -0.10000
C 	C 	0.72790 0.49400 0.44965 0.04100
C 	C 	0.87770 0.51350 0.38428 0.03500
C 	C 	0.94040 0.44610 0.42078 -0.06300
C 	C 	0.91590 0.85910 0.31052 0.21000
C 	C 	0.82990 0.94560 0.31940 -0.48500
C 	C 	0.96760 0.83470 0.37648 -0.32400
C 	C 	0.00860 0.89910 0.26554 -0.42700
C 	C 	0.88450 0.04150 0.34850 0.46600
C 	C 	0.93390 0.01500 0.41326 -0.40400
C 	C 	0.02110 0.93150 0.40539 0.26500
C 	C 	0.11340 0.96890 0.35977 -0.48400
C 	C 	0.06190 0.99650 0.29500 0.26900
C 	C 	0.97530 0.07920 0.30320 -0.43200
C 	C 	0.85890 0.76070 0.28664 0.27600
C 	C 	0.51000 0.81310 0.18115 0.18900
C 	C 	0.56710 0.87990 0.12942 -0.35600
C 	C 	0.46780 0.88290 0.23557 -0.35200
C 	C 	0.41050 0.75830 0.14991 -0.46100
C 	C 	0.32850 0.83670 0.12278 0.46600
C 	C 	0.38600 0.90230 0.07253 -0.50000
C 	C 	0.48380 0.95800 0.10240 0.24700
C 	C 	0.44390 0.02780 0.15680 -0.34200
C 	C 	0.38620 0.96270 0.20726 0.23500
C 	C 	0.28680 0.90580 0.17747 -0.48600
C 	C 	0.59040 0.73200 0.20723 0.27100
C 	C 	0.00830 0.83300 0.01543 0.06300
C 	C 	0.00100 0.72600 0.00790 -0.17400
C 	C 	0.93700 0.66840 0.04940 0.10200
C 	C 	0.88170 0.81280 0.10374 0.07000
C 	C 	0.94470 0.87520 0.06478 -0.12800
C 	C 	0.45740 0.82910 0.48250 0.05800
C 	C 	0.40720 0.74890 0.44932 -0.15900
C 	C 	0.46700 0.68830 0.40842 0.08300
C 	C 	0.62570 0.77400 0.43245 0.07500
C 	C 	0.57090 0.83890 0.47433 -0.15100
C 	C 	0.07530 0.00480 0.97459 -0.07500
C 	C 	0.15420 0.85520 0.93054 -0.09200
C 	C 	0.14330 0.06210 0.93489 0.04400
C 	C 	0.21900 0.91780 0.89177 0.00200
C 	C 	0.08010 0.89760 0.97326 -0.01000
C 	C 	0.39380 0.90040 0.52461 0.03800
C 	C 	0.28450 0.92720 0.51075 -0.09100
C 	C 	0.22790 0.99400 0.55035 -0.04800
C 	C 	0.37770 0.01350 0.61572 0.12400
C 	C 	0.44040 0.94610 0.57922 -0.18700
N 	N 	0.37865 0.20915 0.90216 -0.24100
N 	N 	0.07571 0.19921 0.60113 -0.27100
N 	N 	0.71511 0.52111 0.10683 -0.24900
N 	N 	0.77279 0.53679 0.39671 -0.23000
N 	N 	0.87865 0.70915 0.09784 -0.24600
N 	N 	0.57571 0.69921 0.39887 -0.24800
N 	N 	0.21511 0.02111 0.89317 -0.21900
N 	N 	0.27279 0.03679 0.60329 -0.21900
O 	O 	0.24575 0.02265 0.74854 -0.68100
O 	O 	0.27645 0.23185 0.68089 -0.42400
O 	O 	0.39620 0.21450 0.76186 -0.40900
O 	O 	0.30150 0.61930 0.64086 -0.51900
O 	O 	0.18033 0.21983 0.82268 -0.42300
O 	O 	0.06025 0.17905 0.74459 -0.42300
O 	O 	0.73720 0.28540 0.90783 -0.50900
O 	O 	0.74575 0.52265 0.25146 -0.75600
O 	O 	0.77645 0.73185 0.31911 -0.42900
O 	O 	0.89620 0.71450 0.23814 -0.41200
O 	O 	0.80150 0.11930 0.35914 -0.47400
O 	O 	0.68033 0.71983 0.17732 -0.42600
O 	O 	0.56025 0.67905 0.25541 -0.42300
O 	O 	0.23720 0.78540 0.09217 -0.48500
