data_crystal

_cell_length_a 8.87230
_cell_length_b 10.71520
_cell_length_c 18.92000
_cell_angle_alpha 75.49600
_cell_angle_beta  83.79700
_cell_angle_gamma 69.33600

_symmetry_space_group_name_	'P 1'
_symmetry_space_group_name_H-M	'P 1'

loop_
_symmetry_equiv_pos_as_xyz
  x,y,z

loop_
_atom_site_label
_atom_site_type_symbol
_atom_site_fract_x
_atom_site_fract_y
_atom_site_fract_z
_atom_site_charge
Pr	Pr	0.49816 0.58858 0.21300 2.05200
O 	O 	0.28020 0.60350 0.31043 -0.60000
O 	O 	0.20240 0.60790 0.16790 -0.57900
O 	O 	0.40340 0.57190 0.08810 -0.43300
O 	O 	0.43480 0.37180 0.24430 -0.57000
O 	O 	0.65060 0.44250 0.31892 -0.50700
O 	O 	0.73660 0.45840 0.15957 -0.53100
O 	O 	0.60950 0.73110 0.25880 -0.53200
Pr	Pr	0.10400 0.46808 0.27628 2.06500
C 	C 	0.42670 0.25620 0.24590 0.40200
C 	C 	0.75860 0.40630 0.36460 0.49600
C 	C 	0.88500 0.41690 0.14380 0.47900
O 	O 	0.07020 0.59100 0.38070 -0.44100
O 	O 	0.29520 0.23870 0.24610 -0.44700
O 	O 	0.90240 0.39760 0.35110 -0.53500
O 	O 	0.99480 0.40970 0.18211 -0.50400
O 	O 	0.87600 0.67370 0.24350 -0.51900
C 	C 	0.58130 0.13560 0.24980 -0.18100
C 	C 	0.71000 0.36880 0.44360 -0.21300
C 	C 	0.93110 0.37560 0.07200 -0.18500
C 	C 	0.72790 0.15270 0.25390 0.10700
C 	C 	0.58190 0.00640 0.24960 0.12500
C 	C 	0.57880 0.32400 0.46300 0.13300
C 	C 	0.78710 0.38380 0.49870 0.13800
C 	C 	0.81320 0.40090 0.02200 0.11300
C 	C 	0.09200 0.31940 0.05260 0.10100
H 	H 	0.72740 0.23930 0.25460 0.01100
N 	N 	0.87050 0.05070 0.25700 -0.14400
H 	H 	0.48550 0.99140 0.24770 -0.00300
C 	C 	0.72700 0.89960 0.25230 -0.20400
N 	N 	0.52600 0.29110 0.53070 -0.15000
H 	H 	0.52430 0.31680 0.42570 -0.01200
C 	C 	0.73010 0.35650 0.57040 -0.19500
H 	H 	0.87660 0.41190 0.48820 0.00300
C 	C 	0.86150 0.37030 0.95430 -0.17900
H 	H 	0.70450 0.43750 0.03380 0.01700
N 	N 	0.13970 0.28910 0.98690 -0.15200
H 	H 	0.17010 0.30190 0.08620 0.01200
C 	C 	0.86830 0.92790 0.25530 0.12100
C 	C 	0.73840 0.75620 0.25200 0.46700
C 	C 	0.60150 0.30730 0.58320 0.11900
C 	C 	0.79910 0.38670 0.62970 0.39500
C 	C 	0.02390 0.31570 0.93960 0.10100
C 	C 	0.74350 0.40070 0.89640 0.37800
H 	H 	0.96620 0.85680 0.25620 -0.00700
H 	H 	0.56620 0.28440 0.63120 -0.00700
H 	H 	0.05540 0.29590 0.89400 -0.00200
Pr	Pr	0.50184 0.41142 0.78700 2.05100
O 	O 	0.71980 0.39650 0.68957 -0.60100
O 	O 	0.79760 0.39210 0.83210 -0.58000
O 	O 	0.59660 0.42810 0.91190 -0.43400
O 	O 	0.56520 0.62820 0.75570 -0.57100
O 	O 	0.34940 0.55750 0.68108 -0.50800
O 	O 	0.26340 0.54160 0.84043 -0.53100
O 	O 	0.39050 0.26890 0.74120 -0.53200
Pr	Pr	0.89600 0.53192 0.72372 2.06500
C 	C 	0.57330 0.74380 0.75410 0.40200
C 	C 	0.24140 0.59370 0.63540 0.49600
C 	C 	0.11500 0.58310 0.85620 0.47900
O 	O 	0.92980 0.40900 0.61930 -0.44100
O 	O 	0.70480 0.76130 0.75390 -0.44700
O 	O 	0.09760 0.60240 0.64890 -0.53500
O 	O 	0.00520 0.59030 0.81789 -0.50400
O 	O 	0.12400 0.32630 0.75650 -0.51900
C 	C 	0.41870 0.86440 0.75020 -0.18100
C 	C 	0.29000 0.63120 0.55640 -0.21300
C 	C 	0.06890 0.62440 0.92800 -0.18500
C 	C 	0.27210 0.84730 0.74610 0.10700
C 	C 	0.41810 0.99360 0.75040 0.12500
C 	C 	0.42120 0.67600 0.53700 0.13300
C 	C 	0.21290 0.61620 0.50130 0.13800
C 	C 	0.18680 0.59910 0.97800 0.11300
C 	C 	0.90800 0.68060 0.94740 0.10100
H 	H 	0.27260 0.76070 0.74540 0.01100
N 	N 	0.12950 0.94930 0.74300 -0.14400
H 	H 	0.51450 0.00860 0.75230 -0.00300
C 	C 	0.27300 0.10040 0.74770 -0.20400
N 	N 	0.47400 0.70890 0.46930 -0.15000
H 	H 	0.47570 0.68320 0.57430 -0.01200
C 	C 	0.26990 0.64350 0.42960 -0.19500
H 	H 	0.12340 0.58810 0.51180 0.00300
C 	C 	0.13850 0.62970 0.04570 -0.17900
H 	H 	0.29550 0.56250 0.96620 0.01700
N 	N 	0.86030 0.71090 0.01310 -0.15200
H 	H 	0.82990 0.69810 0.91380 0.01200
C 	C 	0.13170 0.07210 0.74470 0.12100
C 	C 	0.26160 0.24380 0.74800 0.46700
C 	C 	0.39850 0.69270 0.41680 0.11900
C 	C 	0.20090 0.61330 0.37030 0.39500
C 	C 	0.97610 0.68430 0.06040 0.10100
C 	C 	0.25650 0.59930 0.10360 0.37800
H 	H 	0.03380 0.14320 0.74380 -0.00700
H 	H 	0.43380 0.71560 0.36880 -0.00700
H 	H 	0.94460 0.70410 0.10600 -0.00200
