data_crystal

_cell_length_a 17.66000
_cell_length_b 20.30900
_cell_length_c 17.56500
_cell_angle_alpha 90.00000
_cell_angle_beta  115.92600
_cell_angle_gamma 90.00000

_symmetry_space_group_name_	'P 1'
_symmetry_space_group_name_H-M	'P 1'

loop_
_symmetry_equiv_pos_as_xyz
  x,y,z

loop_
_atom_site_label
_atom_site_type_symbol
_atom_site_fract_x
_atom_site_fract_y
_atom_site_fract_z
_atom_site_charge
Ge	Ge	0.49707 0.71853 0.98554 1.47100
Ge	Ge	0.62941 0.66531 0.16818 1.46800
Ge	Ge	0.58144 0.55573 0.27231 1.48600
Ge	Ge	0.39356 0.49379 0.18791 1.47700
Ge	Ge	0.25971 0.54691 0.00613 1.48500
Ge	Ge	0.30528 0.65906 0.90189 1.47300
Ge	Ge	0.21585 0.60264 0.61896 0.99700
Tb	Tb	0.41903 0.65208 0.12087 1.59700
Tb	Tb	0.06368 0.49629 0.64092 1.04000
Tb	Tb	0.28663 0.50272 0.81464 2.05600
Tb	Tb	0.33159 0.38983 0.99830 1.89400
Tb	Tb	0.54731 0.38551 0.18817 1.93000
N 	N 	0.98930 0.44400 0.73230 -0.14800
O 	O 	0.53520 0.70720 0.09830 -0.84300
O 	O 	0.56940 0.63450 0.22300 -0.84100
O 	O 	0.47050 0.55430 0.24160 -0.79900
O 	O 	0.32870 0.55690 0.11690 -0.82500
O 	O 	0.29140 0.62930 0.99140 -0.84900
O 	O 	0.39300 0.70800 0.97210 -0.83000
O 	O 	0.53360 0.65330 0.94710 -0.91900
O 	O 	0.64460 0.59470 0.12030 -0.88800
O 	O 	0.59930 0.49160 0.21640 -0.90800
O 	O 	0.42030 0.44160 0.12590 -0.90700
O 	O 	0.30300 0.49860 0.95420 -0.89200
O 	O 	0.34950 0.60410 0.85710 -0.91800
O 	O 	0.41000 0.72610 0.81140 -0.58500
O 	O 	0.39080 0.81250 0.72810 -0.53700
O 	O 	0.68030 0.71330 0.07440 -0.57800
O 	O 	0.76950 0.78970 0.07940 -0.32000
O 	O 	0.73080 0.57450 0.29890 -0.57000
O 	O 	0.85120 0.56550 0.41590 -0.46200
O 	O 	0.54230 0.39220 0.42900 -0.33900
O 	O 	0.51320 0.42210 0.30050 -0.56400
O 	O 	0.24610 0.44020 0.05590 -0.60400
O 	O 	0.14780 0.38150 0.07170 -0.32700
O 	O 	0.18870 0.58360 0.83210 -0.57100
O 	O 	0.06240 0.59210 0.72150 -0.48900
O 	O 	0.04320 0.56450 0.52120 -0.57900
O 	O 	0.99040 0.61550 0.40020 -0.40400
O 	O 	0.18230 0.38460 0.88640 -0.48900
O 	O 	0.15180 0.44730 0.77200 -0.59700
O 	O 	0.19530 0.54910 0.68260 -0.80400
O 	O 	0.32570 0.62560 0.67030 -0.55400
O 	O 	0.92220 0.53520 0.58130 -0.85500
H 	H 	0.89810 0.54610 0.52940 0.36500
H 	H 	0.89880 0.55600 0.60740 0.35300
C 	C 	0.51690 0.80500 0.95320 -0.68100
H 	H 	0.52980 0.83490 0.00030 0.20800
H 	H 	0.56560 0.80330 0.94140 0.17100
C 	C 	0.44150 0.83210 0.87520 -0.11100
H 	H 	0.39470 0.83880 0.88930 0.04100
H 	H 	0.45650 0.87450 0.86030 0.04500
C 	C 	0.41400 0.78660 0.79980 0.43400
C 	C 	0.71830 0.72120 0.24200 -0.70400
H 	H 	0.70520 0.73660 0.28720 0.18600
H 	H 	0.77010 0.69590 0.26750 0.21100
C 	C 	0.73170 0.78040 0.19580 -0.05100
H 	H 	0.68780 0.81270 0.18560 0.00700
H 	H 	0.78550 0.80080 0.23100 0.04000
C 	C 	0.73010 0.75970 0.11210 0.36500
C 	C 	0.64030 0.55940 0.39430 -0.69000
H 	H 	0.60450 0.58100 0.41570 0.20000
H 	H 	0.65010 0.51480 0.41630 0.18500
C 	C 	0.72530 0.59600 0.42800 -0.09200
H 	H 	0.71530 0.64310 0.42410 0.02900
H 	H 	0.75850 0.58490 0.48720 0.03500
C 	C 	0.77350 0.57780 0.37860 0.38400
C 	C 	0.34790 0.45900 0.26160 -0.68800
H 	H 	0.30400 0.48830 0.26030 0.20100
H 	H 	0.32220 0.41650 0.23990 0.18200
C 	C 	0.41350 0.45060 0.35310 -0.06200
H 	H 	0.38980 0.42400 0.38320 0.02600
H 	H 	0.42710 0.49340 0.38010 0.02800
C 	C 	0.49480 0.41770 0.35990 0.36700
C 	C 	0.14210 0.54410 0.98210 -0.68200
H 	H 	0.12400 0.58790 0.98870 0.20000
H 	H 	0.10930 0.53090 0.92360 0.20000
C 	C 	0.12400 0.49590 0.04040 -0.07500
H 	H 	0.13650 0.51740 0.09390 0.03100
H 	H 	0.06470 0.48440 0.01430 0.04800
C 	C 	0.17670 0.43300 0.05680 0.38800
C 	C 	0.21580 0.71810 0.83020 -0.66000
H 	H 	0.21980 0.75870 0.86080 0.18800
H 	H 	0.22390 0.72890 0.78040 0.17400
C 	C 	0.12730 0.68910 0.80180 -0.10300
H 	H 	0.10950 0.69560 0.84620 0.03700
H 	H 	0.08820 0.71230 0.75180 0.05000
C 	C 	0.12470 0.61630 0.78200 0.40200
C 	C 	0.15140 0.68300 0.58970 -0.47900
H 	H 	0.14570 0.69820 0.63930 0.12700
H 	H 	0.18330 0.71600 0.57630 0.12200
C 	C 	0.06700 0.67920 0.51880 -0.19300
H 	H 	0.02820 0.69760 0.53870 0.07400
H 	H 	0.06670 0.70870 0.47530 0.07400
C 	C 	0.03080 0.61710 0.47720 0.42000
C 	C 	0.13120 0.41200 0.82180 0.43000
C 	C 	0.04110 0.40840 0.80080 -0.07500
C 	C 	0.01170 0.37040 0.84760 -0.03200
H 	H 	0.04990 0.34770 0.89480 0.04800
C 	C 	0.92700 0.36560 0.82550 -0.02000
H 	H 	0.90660 0.33980 0.85620 0.01800
C 	C 	0.87310 0.40150 0.75420 -0.10600
H 	H 	0.81520 0.40020 0.73640 0.04300
C 	C 	0.90710 0.43930 0.71020 0.06000
H 	H 	0.87030 0.46250 0.66280 -0.00800
Tb	Tb	0.07570 0.52440 0.63080 0.74200
Ge	Ge	0.50293 0.21853 0.51446 1.46900
Ge	Ge	0.37059 0.16531 0.33182 1.46700
Ge	Ge	0.41856 0.05573 0.22769 1.48800
Ge	Ge	0.60644 0.99379 0.31209 1.47900
Ge	Ge	0.74029 0.04691 0.49387 1.48400
Ge	Ge	0.69472 0.15906 0.59811 1.47100
Ge	Ge	0.78415 0.10264 0.88104 0.99300
Tb	Tb	0.58097 0.15208 0.37913 1.59600
Tb	Tb	0.93632 0.99629 0.85908 1.02300
Tb	Tb	0.71337 0.00272 0.68536 2.05400
Tb	Tb	0.66841 0.88983 0.50170 1.89300
Tb	Tb	0.45269 0.88551 0.31183 1.93000
N 	N 	0.01070 0.94400 0.76770 -0.14900
O 	O 	0.46480 0.20720 0.40170 -0.84300
O 	O 	0.43060 0.13450 0.27700 -0.84100
O 	O 	0.52950 0.05430 0.25840 -0.79900
O 	O 	0.67130 0.05690 0.38310 -0.82500
O 	O 	0.70860 0.12930 0.50860 -0.84900
O 	O 	0.60700 0.20800 0.52790 -0.83000
O 	O 	0.46640 0.15330 0.55290 -0.91900
O 	O 	0.35540 0.09470 0.37970 -0.88800
O 	O 	0.40070 0.99160 0.28360 -0.90900
O 	O 	0.57970 0.94160 0.37410 -0.90700
O 	O 	0.69700 0.99860 0.54580 -0.89100
O 	O 	0.65050 0.10410 0.64290 -0.91700
O 	O 	0.59000 0.22610 0.68860 -0.58500
O 	O 	0.60920 0.31250 0.77190 -0.53700
O 	O 	0.31970 0.21330 0.42560 -0.57800
O 	O 	0.23050 0.28970 0.42060 -0.32000
O 	O 	0.26920 0.07450 0.20110 -0.57000
O 	O 	0.14880 0.06550 0.08410 -0.46100
O 	O 	0.45770 0.89220 0.07100 -0.33900
O 	O 	0.48680 0.92210 0.19950 -0.56400
O 	O 	0.75390 0.94020 0.44410 -0.60300
O 	O 	0.85220 0.88150 0.42830 -0.32600
O 	O 	0.81130 0.08360 0.66790 -0.57200
O 	O 	0.93760 0.09210 0.77850 -0.49100
O 	O 	0.95680 0.06450 0.97880 -0.58300
O 	O 	0.00960 0.11550 0.09980 -0.40300
O 	O 	0.81770 0.88460 0.61360 -0.48900
O 	O 	0.84820 0.94730 0.72800 -0.59500
O 	O 	0.80470 0.04910 0.81740 -0.80600
O 	O 	0.67430 0.12560 0.82970 -0.55400
O 	O 	0.07780 0.03520 0.91870 -0.85400
H 	H 	0.10190 0.04610 0.97060 0.36500
H 	H 	0.10120 0.05600 0.89260 0.35300
C 	C 	0.48310 0.30500 0.54680 -0.68300
H 	H 	0.47020 0.33490 0.49970 0.20900
H 	H 	0.43440 0.30330 0.55860 0.17100
C 	C 	0.55850 0.33210 0.62480 -0.11000
H 	H 	0.60530 0.33880 0.61070 0.04000
H 	H 	0.54350 0.37450 0.63970 0.04500
C 	C 	0.58600 0.28660 0.70020 0.43400
C 	C 	0.28170 0.22120 0.25800 -0.70500
H 	H 	0.29480 0.23660 0.21280 0.18600
H 	H 	0.22990 0.19590 0.23250 0.21100
C 	C 	0.26830 0.28040 0.30420 -0.05100
H 	H 	0.31220 0.31270 0.31440 0.00700
H 	H 	0.21450 0.30080 0.26900 0.04000
C 	C 	0.26990 0.25970 0.38790 0.36400
C 	C 	0.35970 0.05940 0.10570 -0.69100
H 	H 	0.39550 0.08100 0.08430 0.20100
H 	H 	0.34990 0.01480 0.08370 0.18700
C 	C 	0.27470 0.09600 0.07200 -0.09200
H 	H 	0.28470 0.14310 0.07590 0.02900
H 	H 	0.24150 0.08490 0.01280 0.03600
C 	C 	0.22650 0.07780 0.12140 0.38400
C 	C 	0.65210 0.95900 0.23840 -0.68900
H 	H 	0.69600 0.98830 0.23970 0.20200
H 	H 	0.67780 0.91650 0.26010 0.18200
C 	C 	0.58650 0.95060 0.14690 -0.06200
H 	H 	0.61020 0.92400 0.11680 0.02600
H 	H 	0.57290 0.99340 0.11990 0.02800
C 	C 	0.50520 0.91770 0.14010 0.36700
C 	C 	0.85790 0.04410 0.51790 -0.68800
H 	H 	0.87600 0.08790 0.51130 0.20100
H 	H 	0.89070 0.03090 0.57640 0.20100
C 	C 	0.87600 0.99590 0.45960 -0.06700
H 	H 	0.86350 0.01740 0.40610 0.02800
H 	H 	0.93530 0.98440 0.48570 0.04700
C 	C 	0.82330 0.93300 0.44320 0.38600
C 	C 	0.78420 0.21810 0.66980 -0.66000
H 	H 	0.78020 0.25870 0.63920 0.18800
H 	H 	0.77610 0.22890 0.71960 0.17400
C 	C 	0.87270 0.18910 0.69820 -0.10300
H 	H 	0.89050 0.19560 0.65380 0.03700
H 	H 	0.91180 0.21230 0.74820 0.05000
C 	C 	0.87530 0.11630 0.71800 0.40200
C 	C 	0.84860 0.18300 0.91030 -0.47600
H 	H 	0.85430 0.19820 0.86070 0.12600
H 	H 	0.81670 0.21600 0.92370 0.12100
C 	C 	0.93300 0.17920 0.98120 -0.19900
H 	H 	0.97180 0.19760 0.96130 0.07500
H 	H 	0.93330 0.20870 0.02470 0.07700
C 	C 	0.96920 0.11710 0.02280 0.42300
C 	C 	0.86880 0.91200 0.67820 0.43000
C 	C 	0.95890 0.90840 0.69920 -0.07400
C 	C 	0.98830 0.87040 0.65240 -0.03000
H 	H 	0.95010 0.84770 0.60520 0.04800
C 	C 	0.07300 0.86560 0.67450 -0.02200
H 	H 	0.09340 0.83980 0.64380 0.01900
C 	C 	0.12690 0.90150 0.74580 -0.10500
H 	H 	0.18480 0.90020 0.76360 0.04300
C 	C 	0.09290 0.93930 0.78980 0.05900
H 	H 	0.12970 0.96250 0.83720 -0.00800
Tb	Tb	0.92430 0.02440 0.86920 0.76200
Ge	Ge	0.50293 0.28147 0.01446 1.47000
Ge	Ge	0.37059 0.33469 0.83182 1.46700
Ge	Ge	0.41856 0.44427 0.72769 1.48500
Ge	Ge	0.60644 0.50621 0.81209 1.47600
Ge	Ge	0.74029 0.45309 0.99387 1.48400
Ge	Ge	0.69472 0.34094 0.09811 1.47200
Ge	Ge	0.78415 0.39736 0.38104 0.99600
Tb	Tb	0.58097 0.34792 0.87913 1.59600
Tb	Tb	0.93632 0.50371 0.35908 1.03900
Tb	Tb	0.71337 0.49728 0.18536 2.05500
Tb	Tb	0.66841 0.61017 0.00170 1.89400
Tb	Tb	0.45269 0.61449 0.81183 1.93000
N 	N 	0.01070 0.55600 0.26770 -0.14800
O 	O 	0.46480 0.29280 0.90170 -0.84300
O 	O 	0.43060 0.36550 0.77700 -0.84100
O 	O 	0.52950 0.44570 0.75840 -0.79900
O 	O 	0.67130 0.44310 0.88310 -0.82500
O 	O 	0.70860 0.37070 0.00860 -0.84900
O 	O 	0.60700 0.29200 0.02790 -0.83000
O 	O 	0.46640 0.34670 0.05290 -0.91900
O 	O 	0.35540 0.40530 0.87970 -0.88800
O 	O 	0.40070 0.50840 0.78360 -0.90800
O 	O 	0.57970 0.55840 0.87410 -0.90700
O 	O 	0.69700 0.50140 0.04580 -0.89200
O 	O 	0.65050 0.39590 0.14290 -0.91800
O 	O 	0.59000 0.27390 0.18860 -0.58500
O 	O 	0.60920 0.18750 0.27190 -0.53700
O 	O 	0.31970 0.28670 0.92560 -0.57800
O 	O 	0.23050 0.21030 0.92060 -0.32000
O 	O 	0.26920 0.42550 0.70110 -0.57000
O 	O 	0.14880 0.43450 0.58410 -0.46200
O 	O 	0.45770 0.60780 0.57100 -0.33900
O 	O 	0.48680 0.57790 0.69950 -0.56400
O 	O 	0.75390 0.55980 0.94410 -0.60400
O 	O 	0.85220 0.61850 0.92830 -0.32700
O 	O 	0.81130 0.41640 0.16790 -0.57100
O 	O 	0.93760 0.40790 0.27850 -0.48900
O 	O 	0.95680 0.43550 0.47880 -0.57900
O 	O 	0.00960 0.38450 0.59980 -0.40400
O 	O 	0.81770 0.61540 0.11360 -0.48900
O 	O 	0.84820 0.55270 0.22800 -0.59700
O 	O 	0.80470 0.45090 0.31740 -0.80400
O 	O 	0.67430 0.37440 0.32970 -0.55400
O 	O 	0.07780 0.46480 0.41870 -0.85500
H 	H 	0.10190 0.45390 0.47060 0.36500
H 	H 	0.10120 0.44400 0.39260 0.35300
C 	C 	0.48310 0.19500 0.04680 -0.68100
H 	H 	0.47020 0.16510 0.99970 0.20800
H 	H 	0.43440 0.19670 0.05860 0.17100
C 	C 	0.55850 0.16790 0.12480 -0.11100
H 	H 	0.60530 0.16120 0.11070 0.04100
H 	H 	0.54350 0.12550 0.13970 0.04500
C 	C 	0.58600 0.21340 0.20020 0.43400
C 	C 	0.28170 0.27880 0.75800 -0.70400
H 	H 	0.29480 0.26340 0.71280 0.18600
H 	H 	0.22990 0.30410 0.73250 0.21100
C 	C 	0.26830 0.21960 0.80420 -0.05100
H 	H 	0.31220 0.18730 0.81440 0.00700
H 	H 	0.21450 0.19920 0.76900 0.04000
C 	C 	0.26990 0.24030 0.88790 0.36500
C 	C 	0.35970 0.44060 0.60570 -0.69000
H 	H 	0.39550 0.41900 0.58430 0.20000
H 	H 	0.34990 0.48520 0.58370 0.18500
C 	C 	0.27470 0.40400 0.57200 -0.09200
H 	H 	0.28470 0.35690 0.57590 0.02900
H 	H 	0.24150 0.41510 0.51280 0.03500
C 	C 	0.22650 0.42220 0.62140 0.38400
C 	C 	0.65210 0.54100 0.73840 -0.68800
H 	H 	0.69600 0.51170 0.73970 0.20100
H 	H 	0.67780 0.58350 0.76010 0.18200
C 	C 	0.58650 0.54940 0.64690 -0.06200
H 	H 	0.61020 0.57600 0.61680 0.02600
H 	H 	0.57290 0.50660 0.61990 0.02800
C 	C 	0.50520 0.58230 0.64010 0.36700
C 	C 	0.85790 0.45590 0.01790 -0.68200
H 	H 	0.87600 0.41210 0.01130 0.20000
H 	H 	0.89070 0.46910 0.07640 0.20000
C 	C 	0.87600 0.50410 0.95960 -0.07500
H 	H 	0.86350 0.48260 0.90610 0.03100
H 	H 	0.93530 0.51560 0.98570 0.04800
C 	C 	0.82330 0.56700 0.94320 0.38800
C 	C 	0.78420 0.28190 0.16980 -0.66000
H 	H 	0.78020 0.24130 0.13920 0.18800
H 	H 	0.77610 0.27110 0.21960 0.17400
C 	C 	0.87270 0.31090 0.19820 -0.10300
H 	H 	0.89050 0.30440 0.15380 0.03700
H 	H 	0.91180 0.28770 0.24820 0.05000
C 	C 	0.87530 0.38370 0.21800 0.40200
C 	C 	0.84860 0.31700 0.41030 -0.47900
H 	H 	0.85430 0.30180 0.36070 0.12700
H 	H 	0.81670 0.28400 0.42370 0.12200
C 	C 	0.93300 0.32080 0.48120 -0.19300
H 	H 	0.97180 0.30240 0.46130 0.07400
H 	H 	0.93330 0.29130 0.52470 0.07400
C 	C 	0.96920 0.38290 0.52280 0.42000
C 	C 	0.86880 0.58800 0.17820 0.43000
C 	C 	0.95890 0.59160 0.19920 -0.07500
C 	C 	0.98830 0.62960 0.15240 -0.03200
H 	H 	0.95010 0.65230 0.10520 0.04800
C 	C 	0.07300 0.63440 0.17450 -0.02000
H 	H 	0.09340 0.66020 0.14380 0.01800
C 	C 	0.12690 0.59850 0.24580 -0.10600
H 	H 	0.18480 0.59980 0.26360 0.04300
C 	C 	0.09290 0.56070 0.28980 0.06000
H 	H 	0.12970 0.53750 0.33720 -0.00800
Tb	Tb	0.92430 0.47560 0.36920 0.74200
Ge	Ge	0.49707 0.78147 0.48554 1.46900
Ge	Ge	0.62941 0.83469 0.66818 1.46700
Ge	Ge	0.58144 0.94427 0.77231 1.48800
Ge	Ge	0.39356 0.00621 0.68791 1.47900
Ge	Ge	0.25971 0.95309 0.50613 1.48400
Ge	Ge	0.30528 0.84094 0.40189 1.47100
Ge	Ge	0.21585 0.89736 0.11896 0.99300
Tb	Tb	0.41903 0.84792 0.62087 1.59600
Tb	Tb	0.06368 0.00371 0.14092 1.02300
Tb	Tb	0.28663 0.99728 0.31464 2.05400
Tb	Tb	0.33159 0.11017 0.49830 1.89300
Tb	Tb	0.54731 0.11449 0.68817 1.93000
N 	N 	0.98930 0.05600 0.23230 -0.14900
O 	O 	0.53520 0.79280 0.59830 -0.84300
O 	O 	0.56940 0.86550 0.72300 -0.84100
O 	O 	0.47050 0.94570 0.74160 -0.79900
O 	O 	0.32870 0.94310 0.61690 -0.82500
O 	O 	0.29140 0.87070 0.49140 -0.84900
O 	O 	0.39300 0.79200 0.47210 -0.83000
O 	O 	0.53360 0.84670 0.44710 -0.91900
O 	O 	0.64460 0.90530 0.62030 -0.88800
O 	O 	0.59930 0.00840 0.71640 -0.90900
O 	O 	0.42030 0.05840 0.62590 -0.90700
O 	O 	0.30300 0.00140 0.45420 -0.89100
O 	O 	0.34950 0.89590 0.35710 -0.91700
O 	O 	0.41000 0.77390 0.31140 -0.58500
O 	O 	0.39080 0.68750 0.22810 -0.53700
O 	O 	0.68030 0.78670 0.57440 -0.57800
O 	O 	0.76950 0.71030 0.57940 -0.32000
O 	O 	0.73080 0.92550 0.79890 -0.57000
O 	O 	0.85120 0.93450 0.91590 -0.46100
O 	O 	0.54230 0.10780 0.92900 -0.33900
O 	O 	0.51320 0.07790 0.80050 -0.56400
O 	O 	0.24610 0.05980 0.55590 -0.60300
O 	O 	0.14780 0.11850 0.57170 -0.32600
O 	O 	0.18870 0.91640 0.33210 -0.57200
O 	O 	0.06240 0.90790 0.22150 -0.49100
O 	O 	0.04320 0.93550 0.02120 -0.58300
O 	O 	0.99040 0.88450 0.90020 -0.40300
O 	O 	0.18230 0.11540 0.38640 -0.48900
O 	O 	0.15180 0.05270 0.27200 -0.59500
O 	O 	0.19530 0.95090 0.18260 -0.80600
O 	O 	0.32570 0.87440 0.17030 -0.55400
O 	O 	0.92220 0.96480 0.08130 -0.85400
H 	H 	0.89810 0.95390 0.02940 0.36500
H 	H 	0.89880 0.94400 0.10740 0.35300
C 	C 	0.51690 0.69500 0.45320 -0.68300
H 	H 	0.52980 0.66510 0.50030 0.20900
H 	H 	0.56560 0.69670 0.44140 0.17100
C 	C 	0.44150 0.66790 0.37520 -0.11000
H 	H 	0.39470 0.66120 0.38930 0.04000
H 	H 	0.45650 0.62550 0.36030 0.04500
C 	C 	0.41400 0.71340 0.29980 0.43400
C 	C 	0.71830 0.77880 0.74200 -0.70500
H 	H 	0.70520 0.76340 0.78720 0.18600
H 	H 	0.77010 0.80410 0.76750 0.21100
C 	C 	0.73170 0.71960 0.69580 -0.05100
H 	H 	0.68780 0.68730 0.68560 0.00700
H 	H 	0.78550 0.69920 0.73100 0.04000
C 	C 	0.73010 0.74030 0.61210 0.36400
C 	C 	0.64030 0.94060 0.89430 -0.69100
H 	H 	0.60450 0.91900 0.91570 0.20100
H 	H 	0.65010 0.98520 0.91630 0.18700
C 	C 	0.72530 0.90400 0.92800 -0.09200
H 	H 	0.71530 0.85690 0.92410 0.02900
H 	H 	0.75850 0.91510 0.98720 0.03600
C 	C 	0.77350 0.92220 0.87860 0.38400
C 	C 	0.34790 0.04100 0.76160 -0.68900
H 	H 	0.30400 0.01170 0.76030 0.20200
H 	H 	0.32220 0.08350 0.73990 0.18200
C 	C 	0.41350 0.04940 0.85310 -0.06200
H 	H 	0.38980 0.07600 0.88320 0.02600
H 	H 	0.42710 0.00660 0.88010 0.02800
C 	C 	0.49480 0.08230 0.85990 0.36700
C 	C 	0.14210 0.95590 0.48210 -0.68800
H 	H 	0.12400 0.91210 0.48870 0.20100
H 	H 	0.10930 0.96910 0.42360 0.20100
C 	C 	0.12400 0.00410 0.54040 -0.06700
H 	H 	0.13650 0.98260 0.59390 0.02800
H 	H 	0.06470 0.01560 0.51430 0.04700
C 	C 	0.17670 0.06700 0.55680 0.38600
C 	C 	0.21580 0.78190 0.33020 -0.66000
H 	H 	0.21980 0.74130 0.36080 0.18800
H 	H 	0.22390 0.77110 0.28040 0.17400
C 	C 	0.12730 0.81090 0.30180 -0.10300
H 	H 	0.10950 0.80440 0.34620 0.03700
H 	H 	0.08820 0.78770 0.25180 0.05000
C 	C 	0.12470 0.88370 0.28200 0.40200
C 	C 	0.15140 0.81700 0.08970 -0.47600
H 	H 	0.14570 0.80180 0.13930 0.12600
H 	H 	0.18330 0.78400 0.07630 0.12100
C 	C 	0.06700 0.82080 0.01880 -0.19900
H 	H 	0.02820 0.80240 0.03870 0.07500
H 	H 	0.06670 0.79130 0.97530 0.07700
C 	C 	0.03080 0.88290 0.97720 0.42300
C 	C 	0.13120 0.08800 0.32180 0.43000
C 	C 	0.04110 0.09160 0.30080 -0.07400
C 	C 	0.01170 0.12960 0.34760 -0.03000
H 	H 	0.04990 0.15230 0.39480 0.04800
C 	C 	0.92700 0.13440 0.32550 -0.02200
H 	H 	0.90660 0.16020 0.35620 0.01900
C 	C 	0.87310 0.09850 0.25420 -0.10500
H 	H 	0.81520 0.09980 0.23640 0.04300
C 	C 	0.90710 0.06070 0.21020 0.05900
H 	H 	0.87030 0.03750 0.16280 -0.00800
Tb	Tb	0.07570 0.97560 0.13080 0.76200
