data_crystal

_cell_length_a 18.89900
_cell_length_b 18.89900
_cell_length_c 31.69000
_cell_angle_alpha 90.00000
_cell_angle_beta  90.00000
_cell_angle_gamma 120.00000

_symmetry_space_group_name_	'P 1'
_symmetry_space_group_name_H-M	'P 1'

loop_
_symmetry_equiv_pos_as_xyz
  x,y,z

loop_
_atom_site_label
_atom_site_type_symbol
_atom_site_fract_x
_atom_site_fract_y
_atom_site_fract_z
_atom_site_charge
O 	O 	0.51750 0.62690 0.00691 -0.39700
O 	O 	0.55480 0.59030 0.94728 -0.38200
C 	C 	0.60130 0.73930 0.91120 0.12000
H 	H 	0.61210 0.70240 0.89730 0.04300
C 	C 	0.54570 0.64040 0.97080 0.38200
C 	C 	0.56740 0.72090 0.95101 -0.12000
Cl	Cl	0.55900 0.84600 0.80896 -0.29100
O 	O 	0.18417 0.96023 0.34024 -0.39800
O 	O 	0.22147 0.92363 0.28061 -0.38300
C 	C 	0.26797 0.07263 0.24453 0.12700
H 	H 	0.27877 0.03573 0.23063 0.03600
C 	C 	0.21237 0.97373 0.30413 0.39800
C 	C 	0.23407 0.05423 0.28434 -0.14300
Cl	Cl	0.22567 0.17933 0.14229 -0.30000
O 	O 	0.85083 0.29357 0.67358 -0.39700
O 	O 	0.88813 0.25697 0.61395 -0.38200
C 	C 	0.93463 0.40597 0.57787 0.12000
H 	H 	0.94543 0.36907 0.56397 0.04500
C 	C 	0.87903 0.30707 0.63747 0.38100
C 	C 	0.90073 0.38757 0.61768 -0.12000
Cl	Cl	0.89233 0.51267 0.47563 -0.28700
O 	O 	0.37310 0.89060 0.00691 -0.39600
O 	O 	0.40970 0.96450 0.94728 -0.37800
C 	C 	0.26070 0.86200 0.91120 0.11900
H 	H 	0.29760 0.90970 0.89730 0.04300
C 	C 	0.35960 0.90530 0.97080 0.38100
C 	C 	0.27910 0.84650 0.95101 -0.12100
Cl	Cl	0.15400 0.71300 0.80896 -0.29700
O 	O 	0.03977 0.22393 0.34024 -0.40100
O 	O 	0.07637 0.29783 0.28061 -0.38500
C 	C 	0.92737 0.19533 0.24453 0.11400
H 	H 	0.96427 0.24303 0.23063 0.04700
C 	C 	0.02627 0.23863 0.30413 0.36700
C 	C 	0.94577 0.17983 0.28434 -0.10700
Cl	Cl	0.82067 0.04633 0.14229 -0.29900
O 	O 	0.70643 0.55727 0.67358 -0.39800
O 	O 	0.74303 0.63117 0.61395 -0.38200
C 	C 	0.59403 0.52867 0.57787 0.11900
H 	H 	0.63093 0.57637 0.56397 0.04300
C 	C 	0.69293 0.57197 0.63747 0.38100
C 	C 	0.61243 0.51317 0.61768 -0.12100
Cl	Cl	0.48733 0.37967 0.47563 -0.29600
O 	O 	0.10940 0.48250 0.00691 -0.40200
O 	O 	0.03550 0.44520 0.94728 -0.39000
C 	C 	0.13800 0.39870 0.91120 0.11900
H 	H 	0.09030 0.38790 0.89730 0.04000
C 	C 	0.09470 0.45430 0.97080 0.38200
C 	C 	0.15350 0.43260 0.95101 -0.12400
Cl	Cl	0.28700 0.44100 0.80896 -0.29500
O 	O 	0.77607 0.81583 0.34024 -0.39500
O 	O 	0.70217 0.77853 0.28061 -0.38200
C 	C 	0.80467 0.73203 0.24453 0.11700
H 	H 	0.75697 0.72123 0.23063 0.04300
C 	C 	0.76137 0.78763 0.30413 0.37900
C 	C 	0.82017 0.76593 0.28434 -0.11500
Cl	Cl	0.95367 0.77433 0.14229 -0.28500
O 	O 	0.44273 0.14917 0.67358 -0.40000
O 	O 	0.36883 0.11187 0.61395 -0.38600
C 	C 	0.47133 0.06537 0.57787 0.11900
H 	H 	0.42363 0.05457 0.56397 0.03900
C 	C 	0.42803 0.12097 0.63747 0.38100
C 	C 	0.48683 0.09927 0.61768 -0.12400
Cl	Cl	0.62033 0.10767 0.47563 -0.29900
O 	O 	0.62690 0.51750 0.99309 -0.39800
O 	O 	0.59030 0.55480 0.05272 -0.38300
C 	C 	0.73930 0.60130 0.08880 0.11900
H 	H 	0.70240 0.61210 0.10270 0.04200
C 	C 	0.64040 0.54570 0.02920 0.38100
C 	C 	0.72090 0.56740 0.04899 -0.12100
Cl	Cl	0.84600 0.55900 0.19104 -0.29200
O 	O 	0.29357 0.85083 0.32642 -0.39700
O 	O 	0.25697 0.88813 0.38605 -0.38200
C 	C 	0.40597 0.93463 0.42213 0.12000
H 	H 	0.36907 0.94543 0.43603 0.04500
C 	C 	0.30707 0.87903 0.36253 0.38100
C 	C 	0.38757 0.90073 0.38232 -0.12000
Cl	Cl	0.51267 0.89233 0.52437 -0.28700
O 	O 	0.96023 0.18417 0.65976 -0.39900
O 	O 	0.92363 0.22147 0.71939 -0.38400
C 	C 	0.07263 0.26797 0.75547 0.12600
H 	H 	0.03573 0.27877 0.76937 0.03500
C 	C 	0.97373 0.21237 0.69587 0.39700
C 	C 	0.05423 0.23407 0.71566 -0.14300
Cl	Cl	0.17933 0.22567 0.85771 -0.30000
O 	O 	0.89060 0.37310 0.99309 -0.39600
O 	O 	0.96450 0.40970 0.05272 -0.37800
C 	C 	0.86200 0.26070 0.08880 0.11900
H 	H 	0.90970 0.29760 0.10270 0.04300
C 	C 	0.90530 0.35960 0.02920 0.38100
C 	C 	0.84650 0.27910 0.04899 -0.12100
Cl	Cl	0.71300 0.15400 0.19104 -0.29700
O 	O 	0.55727 0.70643 0.32642 -0.39800
O 	O 	0.63117 0.74303 0.38605 -0.38200
C 	C 	0.52867 0.59403 0.42213 0.11900
H 	H 	0.57637 0.63093 0.43603 0.04300
C 	C 	0.57197 0.69293 0.36253 0.38100
C 	C 	0.51317 0.61243 0.38232 -0.12100
Cl	Cl	0.37967 0.48733 0.52437 -0.29600
O 	O 	0.22393 0.03977 0.65976 -0.40100
O 	O 	0.29783 0.07637 0.71939 -0.38500
C 	C 	0.19533 0.92737 0.75547 0.11400
H 	H 	0.24303 0.96427 0.76937 0.04700
C 	C 	0.23863 0.02627 0.69587 0.36700
C 	C 	0.17983 0.94577 0.71566 -0.10700
Cl	Cl	0.04633 0.82067 0.85771 -0.29900
O 	O 	0.48250 0.10940 0.99309 -0.40200
O 	O 	0.44520 0.03550 0.05272 -0.39000
C 	C 	0.39870 0.13800 0.08880 0.11900
H 	H 	0.38790 0.09030 0.10270 0.04000
C 	C 	0.45430 0.09470 0.02920 0.38200
C 	C 	0.43260 0.15350 0.04899 -0.12400
Cl	Cl	0.44100 0.28700 0.19104 -0.29500
O 	O 	0.14917 0.44273 0.32642 -0.40000
O 	O 	0.11187 0.36883 0.38605 -0.38600
C 	C 	0.06537 0.47133 0.42213 0.11900
H 	H 	0.05457 0.42363 0.43603 0.03900
C 	C 	0.12097 0.42803 0.36253 0.38100
C 	C 	0.09927 0.48683 0.38232 -0.12400
Cl	Cl	0.10767 0.62033 0.52437 -0.29900
O 	O 	0.81583 0.77607 0.65976 -0.39500
O 	O 	0.77853 0.70217 0.71939 -0.38200
C 	C 	0.73203 0.80467 0.75547 0.11700
H 	H 	0.72123 0.75697 0.76937 0.04300
C 	C 	0.78763 0.76137 0.69587 0.37900
C 	C 	0.76593 0.82017 0.71566 -0.11500
Cl	Cl	0.77433 0.95367 0.85771 -0.28500
O 	O 	0.48250 0.37310 0.99309 -0.39900
O 	O 	0.44520 0.40970 0.05272 -0.38400
C 	C 	0.39870 0.26070 0.08880 0.11900
H 	H 	0.38790 0.29760 0.10270 0.04200
C 	C 	0.45430 0.35960 0.02920 0.38100
C 	C 	0.43260 0.27910 0.04899 -0.12300
Cl	Cl	0.44100 0.15400 0.19104 -0.29700
O 	O 	0.14917 0.70643 0.32642 -0.40000
O 	O 	0.11187 0.74303 0.38605 -0.38500
C 	C 	0.06537 0.59403 0.42213 0.11800
H 	H 	0.05457 0.63093 0.43603 0.04000
C 	C 	0.12097 0.69293 0.36253 0.38100
C 	C 	0.09927 0.61243 0.38232 -0.12400
Cl	Cl	0.10767 0.48733 0.52437 -0.30000
O 	O 	0.81583 0.03977 0.65976 -0.39800
O 	O 	0.77853 0.07637 0.71939 -0.38300
C 	C 	0.73203 0.92737 0.75547 0.11100
H 	H 	0.72123 0.96427 0.76937 0.04900
C 	C 	0.78763 0.02627 0.69587 0.36500
C 	C 	0.76593 0.94577 0.71566 -0.10000
Cl	Cl	0.77433 0.82067 0.85771 -0.28900
O 	O 	0.62690 0.10940 0.99309 -0.40200
O 	O 	0.59030 0.03550 0.05272 -0.38900
C 	C 	0.73930 0.13800 0.08880 0.12000
H 	H 	0.70240 0.09030 0.10270 0.04000
C 	C 	0.64040 0.09470 0.02920 0.38200
C 	C 	0.72090 0.15350 0.04899 -0.12300
Cl	Cl	0.84600 0.28700 0.19104 -0.29200
O 	O 	0.29357 0.44273 0.32642 -0.39900
O 	O 	0.25697 0.36883 0.38605 -0.38400
C 	C 	0.40597 0.47133 0.42213 0.11900
H 	H 	0.36907 0.42363 0.43603 0.04100
C 	C 	0.30707 0.42803 0.36253 0.38100
C 	C 	0.38757 0.48683 0.38232 -0.12200
Cl	Cl	0.51267 0.62033 0.52437 -0.29400
O 	O 	0.96023 0.77607 0.65976 -0.39600
O 	O 	0.92363 0.70217 0.71939 -0.38200
C 	C 	0.07263 0.80467 0.75547 0.12400
H 	H 	0.03573 0.75697 0.76937 0.03700
C 	C 	0.97373 0.76137 0.69587 0.39500
C 	C 	0.05423 0.82017 0.71566 -0.13500
Cl	Cl	0.17933 0.95367 0.85771 -0.29000
O 	O 	0.89060 0.51750 0.99309 -0.39500
O 	O 	0.96450 0.55480 0.05272 -0.37700
C 	C 	0.86200 0.60130 0.08880 0.11900
H 	H 	0.90970 0.61210 0.10270 0.04400
C 	C 	0.90530 0.54570 0.02920 0.38100
C 	C 	0.84650 0.56740 0.04899 -0.12000
Cl	Cl	0.71300 0.55900 0.19104 -0.29500
O 	O 	0.55727 0.85083 0.32642 -0.39700
O 	O 	0.63117 0.88813 0.38605 -0.38100
C 	C 	0.52867 0.93463 0.42213 0.11900
H 	H 	0.57637 0.94543 0.43603 0.04500
C 	C 	0.57197 0.87903 0.36253 0.38100
C 	C 	0.51317 0.90073 0.38232 -0.11900
Cl	Cl	0.37967 0.89233 0.52437 -0.28800
O 	O 	0.22393 0.18417 0.65976 -0.40200
O 	O 	0.29783 0.22147 0.71939 -0.38500
C 	C 	0.19533 0.26797 0.75547 0.12100
H 	H 	0.24303 0.27877 0.76937 0.04000
C 	C 	0.23863 0.21237 0.69587 0.38300
C 	C 	0.17983 0.23407 0.71566 -0.12900
Cl	Cl	0.04633 0.22567 0.85771 -0.30400
O 	O 	0.37310 0.48250 0.00691 -0.39900
O 	O 	0.40970 0.44520 0.94728 -0.38400
C 	C 	0.26070 0.39870 0.91120 0.11900
H 	H 	0.29760 0.38790 0.89730 0.04200
C 	C 	0.35960 0.45430 0.97080 0.38100
C 	C 	0.27910 0.43260 0.95101 -0.12300
Cl	Cl	0.15400 0.44100 0.80896 -0.29700
O 	O 	0.03977 0.81583 0.34024 -0.39800
O 	O 	0.07637 0.77853 0.28061 -0.38300
C 	C 	0.92737 0.73203 0.24453 0.11100
H 	H 	0.96427 0.72123 0.23063 0.04900
C 	C 	0.02627 0.78763 0.30413 0.36500
C 	C 	0.94577 0.76593 0.28434 -0.10000
Cl	Cl	0.82067 0.77433 0.14229 -0.28900
O 	O 	0.70643 0.14917 0.67358 -0.40000
O 	O 	0.74303 0.11187 0.61395 -0.38500
C 	C 	0.59403 0.06537 0.57787 0.11800
H 	H 	0.63093 0.05457 0.56397 0.04000
C 	C 	0.69293 0.12097 0.63747 0.38100
C 	C 	0.61243 0.09927 0.61768 -0.12400
Cl	Cl	0.48733 0.10767 0.47563 -0.30000
O 	O 	0.10940 0.62690 0.00691 -0.40200
O 	O 	0.03550 0.59030 0.94728 -0.38900
C 	C 	0.13800 0.73930 0.91120 0.12000
H 	H 	0.09030 0.70240 0.89730 0.04000
C 	C 	0.09470 0.64040 0.97080 0.38200
C 	C 	0.15350 0.72090 0.95101 -0.12300
Cl	Cl	0.28700 0.84600 0.80896 -0.29200
O 	O 	0.77607 0.96023 0.34024 -0.39600
O 	O 	0.70217 0.92363 0.28061 -0.38200
C 	C 	0.80467 0.07263 0.24453 0.12400
H 	H 	0.75697 0.03573 0.23063 0.03700
C 	C 	0.76137 0.97373 0.30413 0.39500
C 	C 	0.82017 0.05423 0.28434 -0.13500
Cl	Cl	0.95367 0.17933 0.14229 -0.29000
O 	O 	0.44273 0.29357 0.67358 -0.39900
O 	O 	0.36883 0.25697 0.61395 -0.38400
C 	C 	0.47133 0.40597 0.57787 0.11900
H 	H 	0.42363 0.36907 0.56397 0.04100
C 	C 	0.42803 0.30707 0.63747 0.38100
C 	C 	0.48683 0.38757 0.61768 -0.12200
Cl	Cl	0.62033 0.51267 0.47563 -0.29400
O 	O 	0.51750 0.89060 0.00691 -0.39500
O 	O 	0.55480 0.96450 0.94728 -0.37700
C 	C 	0.60130 0.86200 0.91120 0.11900
H 	H 	0.61210 0.90970 0.89730 0.04400
C 	C 	0.54570 0.90530 0.97080 0.38100
C 	C 	0.56740 0.84650 0.95101 -0.12000
Cl	Cl	0.55900 0.71300 0.80896 -0.29500
O 	O 	0.18417 0.22393 0.34024 -0.40200
O 	O 	0.22147 0.29783 0.28061 -0.38500
C 	C 	0.26797 0.19533 0.24453 0.12100
H 	H 	0.27877 0.24303 0.23063 0.04000
C 	C 	0.21237 0.23863 0.30413 0.38300
C 	C 	0.23407 0.17983 0.28434 -0.12900
Cl	Cl	0.22567 0.04633 0.14229 -0.30400
O 	O 	0.85083 0.55727 0.67358 -0.39700
O 	O 	0.88813 0.63117 0.61395 -0.38100
C 	C 	0.93463 0.52867 0.57787 0.11900
H 	H 	0.94543 0.57637 0.56397 0.04500
C 	C 	0.87903 0.57197 0.63747 0.38100
C 	C 	0.90073 0.51317 0.61768 -0.11900
Cl	Cl	0.89233 0.37967 0.47563 -0.28800
Cu	Cu	0.47815 0.52185 0.03591 0.91300
Cu	Cu	0.14482 0.85518 0.36924 0.91300
Cu	Cu	0.81148 0.18852 0.70258 0.91300
Cu	Cu	0.47815 0.95630 0.03591 0.91900
Cu	Cu	0.14482 0.28963 0.36924 0.91200
Cu	Cu	0.81148 0.62297 0.70258 0.91300
Cu	Cu	0.04370 0.52185 0.03591 0.90700
Cu	Cu	0.71037 0.85518 0.36924 0.91400
Cu	Cu	0.37703 0.18852 0.70258 0.91200
Cu	Cu	0.52185 0.47815 0.96409 0.91300
Cu	Cu	0.18852 0.81148 0.29742 0.91300
Cu	Cu	0.85518 0.14482 0.63076 0.91300
Cu	Cu	0.95630 0.47815 0.96409 0.91900
Cu	Cu	0.62297 0.81148 0.29742 0.91300
Cu	Cu	0.28963 0.14482 0.63076 0.91200
Cu	Cu	0.52185 0.04370 0.96409 0.90700
Cu	Cu	0.18852 0.37703 0.29742 0.91200
Cu	Cu	0.85518 0.71037 0.63076 0.91400
Pd	Pd	0.66667 0.83333 0.83333 0.87400
Pd	Pd	0.16667 0.83333 0.83333 0.87400
Pd	Pd	0.16667 0.33333 0.83333 0.87400
Pd	Pd	0.83333 0.66667 0.16667 0.87400
Pd	Pd	0.50000 0.00000 0.50000 0.86600
Pd	Pd	0.83333 0.16667 0.16667 0.87400
Pd	Pd	0.50000 0.50000 0.50000 0.87400
Pd	Pd	0.33333 0.16667 0.16667 0.87400
Pd	Pd	-0.00000 0.50000 0.50000 0.86600
N 	N 	0.61890 0.80945 0.89210 -0.17600
C 	C 	0.55070 0.77535 0.97110 0.09400
H 	H 	0.52830 0.76415 0.99810 0.04500
N 	N 	0.28557 0.14278 0.22543 -0.17900
C 	C 	0.21737 0.10868 0.30443 0.10400
H 	H 	0.19497 0.09748 0.33143 0.03600
N 	N 	0.95223 0.47612 0.55877 -0.17200
C 	C 	0.88403 0.44202 0.63777 0.09400
H 	H 	0.86163 0.43082 0.66477 0.04500
N 	N 	0.19055 0.80945 0.89210 -0.17600
C 	C 	0.22465 0.77535 0.97110 0.09500
H 	H 	0.23585 0.76415 0.99810 0.04400
N 	N 	0.85722 0.14278 0.22543 -0.17600
C 	C 	0.89132 0.10868 0.30443 0.09400
H 	H 	0.90252 0.09748 0.33143 0.04400
N 	N 	0.52388 0.47612 0.55877 -0.17600
C 	C 	0.55798 0.44202 0.63777 0.09400
H 	H 	0.56918 0.43082 0.66477 0.04400
N 	N 	0.19055 0.38110 0.89210 -0.17600
C 	C 	0.22465 0.44930 0.97110 0.09500
H 	H 	0.23585 0.47170 0.99810 0.04300
N 	N 	0.85722 0.71443 0.22543 -0.17300
C 	C 	0.89132 0.78263 0.30443 0.08400
H 	H 	0.90252 0.80503 0.33143 0.05200
N 	N 	0.52388 0.04777 0.55877 -0.17800
C 	C 	0.55798 0.11597 0.63777 0.09500
H 	H 	0.56918 0.13837 0.66477 0.04200
N 	N 	0.80945 0.61890 0.10790 -0.17600
C 	C 	0.77535 0.55070 0.02890 0.09400
H 	H 	0.76415 0.52830 0.00190 0.04500
N 	N 	0.47612 0.95223 0.44123 -0.17200
C 	C 	0.44202 0.88403 0.36223 0.09400
H 	H 	0.43082 0.86163 0.33523 0.04500
N 	N 	0.14278 0.28557 0.77457 -0.17900
C 	C 	0.10868 0.21737 0.69557 0.10400
H 	H 	0.09748 0.19497 0.66857 0.03600
N 	N 	0.80945 0.19055 0.10790 -0.17600
C 	C 	0.77535 0.22465 0.02890 0.09500
H 	H 	0.76415 0.23585 0.00190 0.04400
N 	N 	0.47612 0.52388 0.44123 -0.17600
C 	C 	0.44202 0.55798 0.36223 0.09400
H 	H 	0.43082 0.56918 0.33523 0.04400
N 	N 	0.14278 0.85722 0.77457 -0.17600
C 	C 	0.10868 0.89132 0.69557 0.09400
H 	H 	0.09748 0.90252 0.66857 0.04400
N 	N 	0.38110 0.19055 0.10790 -0.17600
C 	C 	0.44930 0.22465 0.02890 0.09500
H 	H 	0.47170 0.23585 0.00190 0.04300
N 	N 	0.04777 0.52388 0.44123 -0.17800
C 	C 	0.11597 0.55798 0.36223 0.09500
H 	H 	0.13837 0.56918 0.33523 0.04200
N 	N 	0.71443 0.85722 0.77457 -0.17300
C 	C 	0.78263 0.89132 0.69557 0.08400
H 	H 	0.80503 0.90252 0.66857 0.05200
