data_crystal

_cell_length_a 30.85570
_cell_length_b 18.87990
_cell_length_c 10.85220
_cell_angle_alpha 90.00000
_cell_angle_beta  93.25100
_cell_angle_gamma 90.00000

_symmetry_space_group_name_	'P 1'
_symmetry_space_group_name_H-M	'P 1'

loop_
_symmetry_equiv_pos_as_xyz
  x,y,z

loop_
_atom_site_label
_atom_site_type_symbol
_atom_site_fract_x
_atom_site_fract_y
_atom_site_fract_z
_atom_site_charge
Cu	Cu	0.43807 0.07735 0.52491 0.77300
N 	N 	0.92312 0.50596 0.37644 -0.20600
N 	N 	0.94204 0.50308 0.26967 -0.19900
N 	N 	0.91870 0.46685 0.18434 -0.23000
N 	N 	0.78297 0.40637 0.47430 -0.11300
N 	N 	0.77529 0.36035 0.22560 -0.13000
N 	N 	0.64202 0.25065 0.29003 -0.13800
N 	N 	0.64965 0.28795 0.54039 -0.11400
N 	N 	0.51932 0.10180 0.39178 -0.23200
N 	N 	0.50243 0.09705 0.50442 -0.22000
N 	N 	0.52368 0.13561 0.58995 -0.25600
C 	C 	0.88470 0.46868 0.36293 0.05700
C 	C 	0.88148 0.44362 0.23736 0.02800
C 	C 	0.84608 0.40561 0.19058 -0.13600
H 	H 	0.84458 0.38814 0.10840 0.03400
C 	C 	0.81239 0.39406 0.27033 0.05600
C 	C 	0.81652 0.41807 0.39679 0.06600
C 	C 	0.85175 0.45696 0.44561 -0.14400
H 	H 	0.85347 0.47426 0.52784 0.06600
C 	C 	0.74852 0.37358 0.42900 -0.06100
C 	C 	0.74269 0.35522 0.30042 0.00500
C 	C 	0.70170 0.32177 0.24045 0.09400
C 	C 	0.67190 0.29315 0.33667 0.02200
C 	C 	0.67548 0.31333 0.46025 -0.06400
C 	C 	0.71060 0.36425 0.51261 0.32400
C 	C 	0.69041 0.43450 0.54704 -0.63600
H 	H 	0.67585 0.45585 0.47362 0.19600
H 	H 	0.71333 0.46649 0.58021 0.20100
H 	H 	0.66927 0.42655 0.60959 0.19500
C 	C 	0.73115 0.32722 0.64268 -1.10400
H 	H 	0.70541 0.33693 0.69873 0.29700
H 	H 	0.73766 0.28573 0.63042 0.49700
H 	H 	0.75305 0.36372 0.67079 0.33800
C 	C 	0.61765 0.24086 0.49845 0.05900
C 	C 	0.61383 0.22178 0.36957 0.05600
C 	C 	0.58142 0.17482 0.32522 -0.13000
H 	H 	0.57916 0.16107 0.24102 0.02700
C 	C 	0.55336 0.14940 0.40705 0.04800
C 	C 	0.55649 0.16850 0.53126 0.04600
C 	C 	0.58844 0.21605 0.58121 -0.13700
H 	H 	0.58976 0.22999 0.66544 0.03300
C 	C 	0.70433 0.28354 0.13597 -0.48100
H 	H 	0.71137 0.31505 0.06817 0.15000
H 	H 	0.72718 0.24765 0.14822 0.15200
H 	H 	0.67648 0.26020 0.11583 0.15300
Cu	Cu	0.93807 0.57735 0.52491 0.78200
N 	N 	0.42312 0.00596 0.37644 -0.21100
N 	N 	0.44204 0.00308 0.26967 -0.20900
N 	N 	0.41870 0.96685 0.18434 -0.23400
N 	N 	0.28297 0.90637 0.47430 -0.11300
N 	N 	0.27529 0.86035 0.22560 -0.13000
N 	N 	0.14202 0.75065 0.29003 -0.13900
N 	N 	0.14965 0.78795 0.54039 -0.11500
N 	N 	0.01932 0.60180 0.39178 -0.23800
N 	N 	0.00243 0.59705 0.50442 -0.23200
N 	N 	0.02368 0.63561 0.58995 -0.26000
C 	C 	0.38470 0.96868 0.36293 0.05700
C 	C 	0.38148 0.94362 0.23736 0.02700
C 	C 	0.34608 0.90561 0.19058 -0.13600
H 	H 	0.34458 0.88814 0.10840 0.03300
C 	C 	0.31239 0.89406 0.27033 0.05600
C 	C 	0.31652 0.91807 0.39679 0.06600
C 	C 	0.35175 0.95696 0.44561 -0.14500
H 	H 	0.35347 0.97426 0.52784 0.06700
C 	C 	0.24852 0.87358 0.42900 -0.06100
C 	C 	0.24269 0.85522 0.30042 0.00600
C 	C 	0.20170 0.82177 0.24045 0.09200
C 	C 	0.17190 0.79315 0.33667 0.02100
C 	C 	0.17548 0.81333 0.46025 -0.06400
C 	C 	0.21060 0.86425 0.51261 0.32200
C 	C 	0.19041 0.93450 0.54704 -0.63200
H 	H 	0.17585 0.95585 0.47362 0.19300
H 	H 	0.21333 0.96649 0.58021 0.20000
H 	H 	0.16927 0.92655 0.60959 0.19100
C 	C 	0.23115 0.82722 0.64268 -1.10100
H 	H 	0.20541 0.83693 0.69873 0.29500
H 	H 	0.23766 0.78573 0.63042 0.49600
H 	H 	0.25305 0.86372 0.67079 0.33700
C 	C 	0.11765 0.74086 0.49845 0.05800
C 	C 	0.11383 0.72178 0.36957 0.05400
C 	C 	0.08142 0.67482 0.32522 -0.13100
H 	H 	0.07916 0.66107 0.24102 0.02300
C 	C 	0.05336 0.64940 0.40705 0.04500
C 	C 	0.05649 0.66850 0.53126 0.04300
C 	C 	0.08844 0.71605 0.58121 -0.13800
H 	H 	0.08976 0.72999 0.66544 0.03000
C 	C 	0.20433 0.78354 0.13597 -0.47700
H 	H 	0.21137 0.81505 0.06817 0.14800
H 	H 	0.22718 0.74765 0.14822 0.15100
H 	H 	0.17648 0.76020 0.11583 0.15000
Cu	Cu	0.56193 0.07735 0.97509 0.77200
N 	N 	0.07688 0.50596 0.12356 -0.21300
N 	N 	0.05796 0.50308 0.23033 -0.21200
N 	N 	0.08130 0.46685 0.31566 -0.23600
N 	N 	0.21703 0.40637 0.02570 -0.11200
N 	N 	0.22471 0.36035 0.27440 -0.13000
N 	N 	0.35798 0.25065 0.20997 -0.13700
N 	N 	0.35035 0.28795 0.95961 -0.11500
N 	N 	0.48068 0.10180 0.10822 -0.23200
N 	N 	0.49757 0.09705 0.99558 -0.22000
N 	N 	0.47632 0.13561 0.91005 -0.25600
C 	C 	0.11530 0.46868 0.13707 0.05700
C 	C 	0.11852 0.44362 0.26264 0.02700
C 	C 	0.15392 0.40561 0.30942 -0.13600
H 	H 	0.15542 0.38814 0.39160 0.03300
C 	C 	0.18761 0.39406 0.22967 0.05600
C 	C 	0.18348 0.41807 0.10321 0.06600
C 	C 	0.14825 0.45696 0.05439 -0.14300
H 	H 	0.14653 0.47426 0.97216 0.06500
C 	C 	0.25148 0.37358 0.07100 -0.06000
C 	C 	0.25731 0.35522 0.19958 0.00500
C 	C 	0.29830 0.32177 0.25955 0.09400
C 	C 	0.32810 0.29315 0.16333 0.02100
C 	C 	0.32452 0.31333 0.03975 -0.06200
C 	C 	0.28940 0.36425 0.98739 0.32300
C 	C 	0.30959 0.43450 0.95296 -0.63700
H 	H 	0.32415 0.45585 0.02638 0.19700
H 	H 	0.28667 0.46649 0.91979 0.20200
H 	H 	0.33073 0.42655 0.89041 0.19500
C 	C 	0.26885 0.32722 0.85732 -1.10400
H 	H 	0.29459 0.33693 0.80127 0.29700
H 	H 	0.26234 0.28573 0.86958 0.49700
H 	H 	0.24695 0.36372 0.82921 0.33800
C 	C 	0.38235 0.24086 0.00155 0.06000
C 	C 	0.38617 0.22178 0.13043 0.05600
C 	C 	0.41858 0.17482 0.17478 -0.13000
H 	H 	0.42084 0.16107 0.25898 0.02700
C 	C 	0.44664 0.14940 0.09295 0.04900
C 	C 	0.44351 0.16850 0.96874 0.04500
C 	C 	0.41156 0.21605 0.91879 -0.13800
H 	H 	0.41024 0.22999 0.83456 0.03400
C 	C 	0.29567 0.28354 0.36403 -0.48000
H 	H 	0.28863 0.31505 0.43183 0.15000
H 	H 	0.27282 0.24765 0.35178 0.15200
H 	H 	0.32352 0.26020 0.38417 0.15300
Cu	Cu	0.06193 0.57735 0.97509 0.76400
N 	N 	0.57688 0.00596 0.12356 -0.21000
N 	N 	0.55796 0.00308 0.23033 -0.20900
N 	N 	0.58130 0.96685 0.31566 -0.23400
N 	N 	0.71703 0.90637 0.02570 -0.11300
N 	N 	0.72471 0.86035 0.27440 -0.13000
N 	N 	0.85798 0.75065 0.20997 -0.13700
N 	N 	0.85035 0.78795 0.95961 -0.11200
N 	N 	0.98068 0.60180 0.10822 -0.22000
N 	N 	0.99757 0.59705 0.99558 -0.20600
N 	N 	0.97632 0.63561 0.91005 -0.24500
C 	C 	0.61530 0.96868 0.13707 0.05700
C 	C 	0.61852 0.94362 0.26264 0.02700
C 	C 	0.65392 0.90561 0.30942 -0.13600
H 	H 	0.65542 0.88814 0.39160 0.03300
C 	C 	0.68761 0.89406 0.22967 0.05600
C 	C 	0.68348 0.91807 0.10321 0.06600
C 	C 	0.64825 0.95696 0.05439 -0.14600
H 	H 	0.64653 0.97426 0.97216 0.06700
C 	C 	0.75148 0.87358 0.07100 -0.06200
C 	C 	0.75731 0.85522 0.19958 0.00500
C 	C 	0.79830 0.82177 0.25955 0.09600
C 	C 	0.82810 0.79315 0.16333 0.02300
C 	C 	0.82452 0.81333 0.03975 -0.06500
C 	C 	0.78940 0.86425 0.98739 0.32700
C 	C 	0.80959 0.93450 0.95296 -0.64100
H 	H 	0.82415 0.95585 0.02638 0.19900
H 	H 	0.78667 0.96649 0.91979 0.20300
H 	H 	0.83073 0.92655 0.89041 0.19800
C 	C 	0.76885 0.82722 0.85732 -1.11000
H 	H 	0.79459 0.83693 0.80127 0.29900
H 	H 	0.76234 0.78573 0.86958 0.49900
H 	H 	0.74695 0.86372 0.82921 0.34000
C 	C 	0.88235 0.74086 0.00155 0.05900
C 	C 	0.88617 0.72178 0.13043 0.05900
C 	C 	0.91858 0.67482 0.17478 -0.12800
H 	H 	0.92084 0.66107 0.25898 0.03200
C 	C 	0.94664 0.64940 0.09295 0.05200
C 	C 	0.94351 0.66850 0.96874 0.04900
C 	C 	0.91156 0.71605 0.91879 -0.13400
H 	H 	0.91024 0.72999 0.83456 0.03800
C 	C 	0.79567 0.78354 0.36403 -0.48400
H 	H 	0.78863 0.81505 0.43183 0.15200
H 	H 	0.77282 0.74765 0.35178 0.15300
H 	H 	0.82352 0.76020 0.38417 0.15500
Cu	Cu	0.56193 0.92265 0.47509 0.77200
N 	N 	0.07688 0.49404 0.62356 -0.21300
N 	N 	0.05796 0.49692 0.73033 -0.21200
N 	N 	0.08130 0.53315 0.81566 -0.23600
N 	N 	0.21703 0.59363 0.52570 -0.11200
N 	N 	0.22471 0.63965 0.77440 -0.13000
N 	N 	0.35798 0.74935 0.70997 -0.13800
N 	N 	0.35035 0.71205 0.45961 -0.11400
N 	N 	0.48068 0.89820 0.60822 -0.23200
N 	N 	0.49757 0.90295 0.49558 -0.22000
N 	N 	0.47632 0.86439 0.41005 -0.25600
C 	C 	0.11530 0.53132 0.63707 0.05700
C 	C 	0.11852 0.55638 0.76264 0.02600
C 	C 	0.15392 0.59439 0.80942 -0.13600
H 	H 	0.15542 0.61186 0.89160 0.03300
C 	C 	0.18761 0.60594 0.72967 0.05600
C 	C 	0.18348 0.58193 0.60321 0.06600
C 	C 	0.14825 0.54304 0.55439 -0.14500
H 	H 	0.14653 0.52574 0.47216 0.06700
C 	C 	0.25148 0.62642 0.57100 -0.06100
C 	C 	0.25731 0.64478 0.69958 0.00600
C 	C 	0.29830 0.67823 0.75955 0.09400
C 	C 	0.32810 0.70685 0.66333 0.02200
C 	C 	0.32452 0.68667 0.53975 -0.06400
C 	C 	0.28940 0.63575 0.48739 0.32400
C 	C 	0.30959 0.56550 0.45296 -0.63700
H 	H 	0.32415 0.54415 0.52638 0.19600
H 	H 	0.28667 0.53351 0.41979 0.20200
H 	H 	0.33073 0.57345 0.39041 0.19500
C 	C 	0.26885 0.67278 0.35732 -1.10500
H 	H 	0.29459 0.66307 0.30127 0.29700
H 	H 	0.26234 0.71427 0.36958 0.49700
H 	H 	0.24695 0.63628 0.32921 0.33800
C 	C 	0.38235 0.75914 0.50155 0.05900
C 	C 	0.38617 0.77822 0.63043 0.05600
C 	C 	0.41858 0.82518 0.67478 -0.13000
H 	H 	0.42084 0.83893 0.75898 0.02700
C 	C 	0.44664 0.85060 0.59295 0.04800
C 	C 	0.44351 0.83150 0.46874 0.04600
C 	C 	0.41156 0.78395 0.41879 -0.13700
H 	H 	0.41024 0.77001 0.33456 0.03400
C 	C 	0.29567 0.71646 0.86403 -0.48000
H 	H 	0.28863 0.68495 0.93183 0.15000
H 	H 	0.27282 0.75235 0.85178 0.15200
H 	H 	0.32352 0.73980 0.88417 0.15200
Cu	Cu	0.06193 0.42265 0.47509 0.76400
N 	N 	0.57688 0.99404 0.62356 -0.21100
N 	N 	0.55796 0.99692 0.73033 -0.20900
N 	N 	0.58130 0.03315 0.81566 -0.23400
N 	N 	0.71703 0.09363 0.52570 -0.11200
N 	N 	0.72471 0.13965 0.77440 -0.13000
N 	N 	0.85798 0.24935 0.70997 -0.13600
N 	N 	0.85035 0.21205 0.45961 -0.11300
N 	N 	0.98068 0.39820 0.60822 -0.22000
N 	N 	0.99757 0.40295 0.49558 -0.20600
N 	N 	0.97632 0.36439 0.41005 -0.24500
C 	C 	0.61530 0.03132 0.63707 0.05700
C 	C 	0.61852 0.05638 0.76264 0.02700
C 	C 	0.65392 0.09439 0.80942 -0.13600
H 	H 	0.65542 0.11186 0.89160 0.03300
C 	C 	0.68761 0.10594 0.72967 0.05600
C 	C 	0.68348 0.08193 0.60321 0.06600
C 	C 	0.64825 0.04304 0.55439 -0.14500
H 	H 	0.64653 0.02574 0.47216 0.06600
C 	C 	0.75148 0.12642 0.57100 -0.06200
C 	C 	0.75731 0.14478 0.69958 0.00500
C 	C 	0.79830 0.17823 0.75955 0.09600
C 	C 	0.82810 0.20685 0.66333 0.02200
C 	C 	0.82452 0.18667 0.53975 -0.06400
C 	C 	0.78940 0.13575 0.48739 0.32700
C 	C 	0.80959 0.06550 0.45296 -0.64200
H 	H 	0.82415 0.04415 0.52638 0.20000
H 	H 	0.78667 0.03351 0.41979 0.20400
H 	H 	0.83073 0.07345 0.39041 0.19900
C 	C 	0.76885 0.17278 0.35732 -1.10900
H 	H 	0.79459 0.16307 0.30127 0.29900
H 	H 	0.76234 0.21427 0.36958 0.49900
H 	H 	0.74695 0.13628 0.32921 0.33900
C 	C 	0.88235 0.25914 0.50155 0.06100
C 	C 	0.88617 0.27822 0.63043 0.05800
C 	C 	0.91858 0.32518 0.67478 -0.12800
H 	H 	0.92084 0.33893 0.75898 0.03200
C 	C 	0.94664 0.35060 0.59295 0.05300
C 	C 	0.94351 0.33150 0.46874 0.04900
C 	C 	0.91156 0.28395 0.41879 -0.13500
H 	H 	0.91024 0.27001 0.33456 0.03800
C 	C 	0.79567 0.21646 0.86403 -0.48400
H 	H 	0.78863 0.18495 0.93183 0.15200
H 	H 	0.77282 0.25235 0.85178 0.15300
H 	H 	0.82352 0.23980 0.88417 0.15500
Cu	Cu	0.43807 0.92265 0.02491 0.77200
N 	N 	0.92312 0.49404 0.87644 -0.20700
N 	N 	0.94204 0.49692 0.76967 -0.19900
N 	N 	0.91870 0.53315 0.68434 -0.23100
N 	N 	0.78297 0.59363 0.97430 -0.11300
N 	N 	0.77529 0.63965 0.72560 -0.13000
N 	N 	0.64202 0.74935 0.79003 -0.13800
N 	N 	0.64965 0.71205 0.04039 -0.11500
N 	N 	0.51932 0.89820 0.89178 -0.23200
N 	N 	0.50243 0.90295 0.00442 -0.22000
N 	N 	0.52368 0.86439 0.08995 -0.25600
C 	C 	0.88470 0.53132 0.86293 0.05700
C 	C 	0.88148 0.55638 0.73736 0.02800
C 	C 	0.84608 0.59439 0.69058 -0.13600
H 	H 	0.84458 0.61186 0.60840 0.03400
C 	C 	0.81239 0.60594 0.77033 0.05600
C 	C 	0.81652 0.58193 0.89679 0.06600
C 	C 	0.85175 0.54304 0.94561 -0.14400
H 	H 	0.85347 0.52574 0.02784 0.06600
C 	C 	0.74852 0.62642 0.92900 -0.06100
C 	C 	0.74269 0.64478 0.80042 0.00500
C 	C 	0.70170 0.67823 0.74045 0.09400
C 	C 	0.67190 0.70685 0.83667 0.02200
C 	C 	0.67548 0.68667 0.96025 -0.06300
C 	C 	0.71060 0.63575 0.01261 0.32300
C 	C 	0.69041 0.56550 0.04704 -0.63600
H 	H 	0.67585 0.54415 0.97362 0.19600
H 	H 	0.71333 0.53351 0.08021 0.20100
H 	H 	0.66927 0.57345 0.10959 0.19500
C 	C 	0.73115 0.67278 0.14268 -1.10400
H 	H 	0.70541 0.66307 0.19873 0.29600
H 	H 	0.73766 0.71427 0.13042 0.49600
H 	H 	0.75305 0.63628 0.17079 0.33800
C 	C 	0.61765 0.75914 0.99845 0.06000
C 	C 	0.61383 0.77822 0.86957 0.05600
C 	C 	0.58142 0.82518 0.82522 -0.13000
H 	H 	0.57916 0.83893 0.74102 0.02700
C 	C 	0.55336 0.85060 0.90705 0.04900
C 	C 	0.55649 0.83150 0.03126 0.04600
C 	C 	0.58844 0.78395 0.08121 -0.13700
H 	H 	0.58976 0.77001 0.16544 0.03400
C 	C 	0.70433 0.71646 0.63597 -0.48000
H 	H 	0.71137 0.68495 0.56817 0.15000
H 	H 	0.72718 0.75235 0.64822 0.15200
H 	H 	0.67648 0.73980 0.61583 0.15300
Cu	Cu	0.93807 0.42265 0.02491 0.78200
N 	N 	0.42312 0.99404 0.87644 -0.21100
N 	N 	0.44204 0.99692 0.76967 -0.20900
N 	N 	0.41870 0.03315 0.68434 -0.23400
N 	N 	0.28297 0.09363 0.97430 -0.11300
N 	N 	0.27529 0.13965 0.72560 -0.13000
N 	N 	0.14202 0.24935 0.79003 -0.13900
N 	N 	0.14965 0.21205 0.04039 -0.11400
N 	N 	0.01932 0.39820 0.89178 -0.23800
N 	N 	0.00243 0.40295 0.00442 -0.23100
N 	N 	0.02368 0.36439 0.08995 -0.26000
C 	C 	0.38470 0.03132 0.86293 0.05700
C 	C 	0.38148 0.05638 0.73736 0.02700
C 	C 	0.34608 0.09439 0.69058 -0.13600
H 	H 	0.34458 0.11186 0.60840 0.03300
C 	C 	0.31239 0.10594 0.77033 0.05600
C 	C 	0.31652 0.08193 0.89679 0.06600
C 	C 	0.35175 0.04304 0.94561 -0.14700
H 	H 	0.35347 0.02574 0.02784 0.06800
C 	C 	0.24852 0.12642 0.92900 -0.06200
C 	C 	0.24269 0.14478 0.80042 0.00600
C 	C 	0.20170 0.17823 0.74045 0.09100
C 	C 	0.17190 0.20685 0.83667 0.02200
C 	C 	0.17548 0.18667 0.96025 -0.06600
C 	C 	0.21060 0.13575 0.01261 0.32400
C 	C 	0.19041 0.06550 0.04704 -0.62900
H 	H 	0.17585 0.04415 0.97362 0.19100
H 	H 	0.21333 0.03351 0.08021 0.19900
H 	H 	0.16927 0.07345 0.10959 0.19100
C 	C 	0.23115 0.17278 0.14268 -1.10300
H 	H 	0.20541 0.16307 0.19873 0.29600
H 	H 	0.23766 0.21427 0.13042 0.49600
H 	H 	0.25305 0.13628 0.17079 0.33800
C 	C 	0.11765 0.25914 0.99845 0.05500
C 	C 	0.11383 0.27822 0.86957 0.05500
C 	C 	0.08142 0.32518 0.82522 -0.13100
H 	H 	0.07916 0.33893 0.74102 0.02300
C 	C 	0.05336 0.35060 0.90705 0.04400
C 	C 	0.05649 0.33150 0.03126 0.04400
C 	C 	0.08844 0.28395 0.08121 -0.13700
H 	H 	0.08976 0.27001 0.16544 0.03000
C 	C 	0.20433 0.21646 0.63597 -0.47500
H 	H 	0.21137 0.18495 0.56817 0.14800
H 	H 	0.22718 0.25235 0.64822 0.15000
H 	H 	0.17648 0.23980 0.61583 0.15000
Cu	Cu	0.50000 0.04320 0.25000 0.81000
Cu	Cu	0.00000 0.54320 0.25000 0.79400
Cu	Cu	0.50000 0.95680 0.75000 0.81000
Cu	Cu	0.00000 0.45680 0.75000 0.79300
Cu	Cu	0.50000 0.14144 0.75000 0.74500
Cu	Cu	-0.00000 0.64144 0.75000 0.73000
Cu	Cu	0.50000 0.85856 0.25000 0.74500
Cu	Cu	0.00000 0.35856 0.25000 0.73000
