data_crystal

_cell_length_a 32.04000
_cell_length_b 16.79000
_cell_length_c 10.77000
_cell_angle_alpha 90.00000
_cell_angle_beta  92.36000
_cell_angle_gamma 90.00000

_symmetry_space_group_name_	'P 1'
_symmetry_space_group_name_H-M	'P 1'

loop_
_symmetry_equiv_pos_as_xyz
  x,y,z

loop_
_atom_site_label
_atom_site_type_symbol
_atom_site_fract_x
_atom_site_fract_y
_atom_site_fract_z
_atom_site_charge
Cu	Cu	0.94456 0.44593 0.03240 0.79100
N 	N 	0.92280 0.44570 0.19760 -0.25200
N 	N 	0.94450 0.48550 0.28510 -0.21600
N 	N 	0.92340 0.49500 0.38780 -0.22800
N 	N 	0.78040 0.34310 0.21500 -0.12300
N 	N 	0.77950 0.41110 0.45560 -0.12300
N 	N 	0.64440 0.31310 0.51120 -0.13000
N 	N 	0.64480 0.23710 0.27940 -0.12100
N 	N 	0.51640 0.16480 0.58550 -0.26000
N 	N 	0.49610 0.11580 0.50270 -0.22600
N 	N 	0.51530 0.10850 0.39680 -0.23300
C 	C 	0.88470 0.42630 0.24450 0.04500
C 	C 	0.88480 0.45900 0.36820 0.05800
C 	C 	0.85070 0.45260 0.44170 -0.14400
H 	H 	0.85130 0.47300 0.52400 0.06600
C 	C 	0.81510 0.41450 0.38890 0.07000
C 	C 	0.81580 0.38040 0.26590 0.05900
C 	C 	0.84970 0.38670 0.18980 -0.13800
H 	H 	0.84930 0.36610 0.10770 0.04700
C 	C 	0.74740 0.34030 0.28150 -0.02100
C 	C 	0.74540 0.38030 0.39930 0.00100
C 	C 	0.70660 0.38420 0.47660 0.13100
C 	C 	0.67340 0.32420 0.43170 0.01000
C 	C 	0.67350 0.28820 0.31520 -0.02200
C 	C 	0.70770 0.30310 0.22250 0.21600
C 	C 	0.69030 0.35060 0.11180 -0.52700
H 	H 	0.67980 0.40190 0.14040 0.16600
H 	H 	0.66750 0.32080 0.07000 0.16600
H 	H 	0.71260 0.35970 0.05350 0.16900
C 	C 	0.71900 0.22170 0.16270 -0.51600
H 	H 	0.69510 0.20220 0.11200 0.17000
H 	H 	0.72610 0.18310 0.22840 0.17000
H 	H 	0.74300 0.22890 0.11020 0.16700
C 	C 	0.61340 0.22050 0.36030 0.05300
C 	C 	0.61330 0.25970 0.47950 0.07000
C 	C 	0.58160 0.24430 0.56200 -0.14900
H 	H 	0.58170 0.26880 0.64140 0.04500
C 	C 	0.55070 0.19280 0.52460 0.05900
C 	C 	0.55030 0.15570 0.40880 0.03000
C 	C 	0.58140 0.16930 0.32130 -0.12700
H 	H 	0.58040 0.14510 0.24150 0.03400
C 	C 	0.71100 0.39600 0.60050 -0.53600
H 	H 	0.72150 0.45000 0.61670 0.17400
H 	H 	0.73090 0.35710 0.63650 0.17900
H 	H 	0.68390 0.38940 0.63810 0.17900
Cu	Cu	0.44456 0.94593 0.03240 0.78800
N 	N 	0.42280 0.94570 0.19760 -0.25300
N 	N 	0.44450 0.98550 0.28510 -0.22200
N 	N 	0.42340 0.99500 0.38780 -0.22900
N 	N 	0.28040 0.84310 0.21500 -0.12200
N 	N 	0.27950 0.91110 0.45560 -0.12200
N 	N 	0.14440 0.81310 0.51120 -0.13000
N 	N 	0.14480 0.73710 0.27940 -0.12100
N 	N 	0.01640 0.66480 0.58550 -0.27500
N 	N 	0.99610 0.61580 0.50270 -0.19700
N 	N 	0.01530 0.60850 0.39680 -0.25000
C 	C 	0.38470 0.92630 0.24450 0.04500
C 	C 	0.38480 0.95900 0.36820 0.05800
C 	C 	0.35070 0.95260 0.44170 -0.14500
H 	H 	0.35130 0.97300 0.52400 0.06600
C 	C 	0.31510 0.91450 0.38890 0.07000
C 	C 	0.31580 0.88040 0.26590 0.05900
C 	C 	0.34970 0.88670 0.18980 -0.13800
H 	H 	0.34930 0.86610 0.10770 0.04600
C 	C 	0.24740 0.84030 0.28150 -0.02100
C 	C 	0.24540 0.88030 0.39930 0.00200
C 	C 	0.20660 0.88420 0.47660 0.12900
C 	C 	0.17340 0.82420 0.43170 0.01000
C 	C 	0.17350 0.78820 0.31520 -0.02300
C 	C 	0.20770 0.80310 0.22250 0.21600
C 	C 	0.19030 0.85060 0.11180 -0.52500
H 	H 	0.17980 0.90190 0.14040 0.16500
H 	H 	0.16750 0.82080 0.07000 0.16500
H 	H 	0.21260 0.85970 0.05350 0.16900
C 	C 	0.21900 0.72170 0.16270 -0.51600
H 	H 	0.19510 0.70220 0.11200 0.17000
H 	H 	0.22610 0.68310 0.22840 0.17000
H 	H 	0.24300 0.72890 0.11020 0.16700
C 	C 	0.11340 0.72050 0.36030 0.05300
C 	C 	0.11330 0.75970 0.47950 0.06800
C 	C 	0.08160 0.74430 0.56200 -0.14900
H 	H 	0.08170 0.76880 0.64140 0.04100
C 	C 	0.05070 0.69280 0.52460 0.05500
C 	C 	0.05030 0.65570 0.40880 0.02700
C 	C 	0.08140 0.66930 0.32130 -0.12900
H 	H 	0.08040 0.64510 0.24150 0.03300
C 	C 	0.21100 0.89600 0.60050 -0.53300
H 	H 	0.22150 0.95000 0.61670 0.17300
H 	H 	0.23090 0.85710 0.63650 0.17800
H 	H 	0.18390 0.88940 0.63810 0.17700
Cu	Cu	0.05544 0.44593 0.46760 0.78500
N 	N 	0.07720 0.44570 0.30240 -0.25400
N 	N 	0.05550 0.48550 0.21490 -0.22500
N 	N 	0.07660 0.49500 0.11220 -0.23100
N 	N 	0.21960 0.34310 0.28500 -0.12200
N 	N 	0.22050 0.41110 0.04440 -0.12200
N 	N 	0.35560 0.31310 0.98880 -0.12900
N 	N 	0.35520 0.23710 0.22060 -0.12100
N 	N 	0.48360 0.16480 0.91450 -0.26000
N 	N 	0.50390 0.11580 0.99730 -0.22500
N 	N 	0.48470 0.10850 0.10320 -0.23300
C 	C 	0.11530 0.42630 0.25550 0.04400
C 	C 	0.11520 0.45900 0.13180 0.05900
C 	C 	0.14930 0.45260 0.05830 -0.14600
H 	H 	0.14870 0.47300 0.97600 0.06600
C 	C 	0.18490 0.41450 0.11110 0.07000
C 	C 	0.18420 0.38040 0.23410 0.05900
C 	C 	0.15030 0.38670 0.31020 -0.13800
H 	H 	0.15070 0.36610 0.39230 0.04600
C 	C 	0.25260 0.34030 0.21850 -0.02100
C 	C 	0.25460 0.38030 0.10070 0.00200
C 	C 	0.29340 0.38420 0.02340 0.13000
C 	C 	0.32660 0.32420 0.06830 0.01000
C 	C 	0.32650 0.28820 0.18480 -0.02200
C 	C 	0.29230 0.30310 0.27750 0.21700
C 	C 	0.30970 0.35060 0.38820 -0.52800
H 	H 	0.32020 0.40190 0.35960 0.16700
H 	H 	0.33250 0.32080 0.43000 0.16700
H 	H 	0.28740 0.35970 0.44650 0.17000
C 	C 	0.28100 0.22170 0.33730 -0.51600
H 	H 	0.30490 0.20220 0.38800 0.17100
H 	H 	0.27390 0.18310 0.27160 0.17000
H 	H 	0.25700 0.22890 0.38980 0.16800
C 	C 	0.38660 0.22050 0.13970 0.05400
C 	C 	0.38670 0.25970 0.02050 0.06800
C 	C 	0.41840 0.24430 0.93800 -0.14700
H 	H 	0.41830 0.26880 0.85860 0.04400
C 	C 	0.44930 0.19280 0.97540 0.06000
C 	C 	0.44970 0.15570 0.09120 0.02900
C 	C 	0.41860 0.16930 0.17870 -0.12700
H 	H 	0.41960 0.14510 0.25850 0.03400
C 	C 	0.28900 0.39600 0.89950 -0.53400
H 	H 	0.27850 0.45000 0.88330 0.17400
H 	H 	0.26910 0.35710 0.86350 0.17900
H 	H 	0.31610 0.38940 0.86190 0.17800
Cu	Cu	0.55544 0.94593 0.46760 0.78800
N 	N 	0.57720 0.94570 0.30240 -0.25300
N 	N 	0.55550 0.98550 0.21490 -0.22200
N 	N 	0.57660 0.99500 0.11220 -0.22900
N 	N 	0.71960 0.84310 0.28500 -0.12200
N 	N 	0.72050 0.91110 0.04440 -0.12200
N 	N 	0.85560 0.81310 0.98880 -0.12900
N 	N 	0.85520 0.73710 0.22060 -0.12000
N 	N 	0.98360 0.66480 0.91450 -0.23900
N 	N 	0.00390 0.61580 0.99730 -0.25200
N 	N 	0.98470 0.60850 0.10320 -0.21200
C 	C 	0.61530 0.92630 0.25550 0.04500
C 	C 	0.61520 0.95900 0.13180 0.05800
C 	C 	0.64930 0.95260 0.05830 -0.14400
H 	H 	0.64870 0.97300 0.97600 0.06500
C 	C 	0.68490 0.91450 0.11110 0.07000
C 	C 	0.68420 0.88040 0.23410 0.05900
C 	C 	0.65030 0.88670 0.31020 -0.13800
H 	H 	0.65070 0.86610 0.39230 0.04600
C 	C 	0.75260 0.84030 0.21850 -0.02100
C 	C 	0.75460 0.88030 0.10070 0.00100
C 	C 	0.79340 0.88420 0.02340 0.13200
C 	C 	0.82660 0.82420 0.06830 0.01100
C 	C 	0.82650 0.78820 0.18480 -0.02200
C 	C 	0.79230 0.80310 0.27750 0.21800
C 	C 	0.80970 0.85060 0.38820 -0.53100
H 	H 	0.82020 0.90190 0.35960 0.16900
H 	H 	0.83250 0.82080 0.43000 0.16900
H 	H 	0.78740 0.85970 0.44650 0.17100
C 	C 	0.78100 0.72170 0.33730 -0.51800
H 	H 	0.80490 0.70220 0.38800 0.17200
H 	H 	0.77390 0.68310 0.27160 0.17000
H 	H 	0.75700 0.72890 0.38980 0.16800
C 	C 	0.88660 0.72050 0.13970 0.05400
C 	C 	0.88670 0.75970 0.02050 0.07100
C 	C 	0.91840 0.74430 0.93800 -0.14700
H 	H 	0.91830 0.76880 0.85860 0.04900
C 	C 	0.94930 0.69280 0.97540 0.06400
C 	C 	0.94970 0.65570 0.09120 0.03300
C 	C 	0.91860 0.66930 0.17870 -0.12500
H 	H 	0.91960 0.64510 0.25850 0.03700
C 	C 	0.78900 0.89600 0.89950 -0.53800
H 	H 	0.77850 0.95000 0.88330 0.17500
H 	H 	0.76910 0.85710 0.86350 0.18000
H 	H 	0.81610 0.88940 0.86190 0.18000
Cu	Cu	0.05544 0.55407 0.96760 0.78500
N 	N 	0.07720 0.55430 0.80240 -0.25400
N 	N 	0.05550 0.51450 0.71490 -0.22500
N 	N 	0.07660 0.50500 0.61220 -0.23100
N 	N 	0.21960 0.65690 0.78500 -0.12200
N 	N 	0.22050 0.58890 0.54440 -0.12200
N 	N 	0.35560 0.68690 0.48880 -0.13000
N 	N 	0.35520 0.76290 0.72060 -0.12000
N 	N 	0.48360 0.83520 0.41450 -0.26000
N 	N 	0.50390 0.88420 0.49730 -0.22600
N 	N 	0.48470 0.89150 0.60320 -0.23300
C 	C 	0.11530 0.57370 0.75550 0.04400
C 	C 	0.11520 0.54100 0.63180 0.05900
C 	C 	0.14930 0.54740 0.55830 -0.14500
H 	H 	0.14870 0.52700 0.47600 0.06600
C 	C 	0.18490 0.58550 0.61110 0.07000
C 	C 	0.18420 0.61960 0.73410 0.05900
C 	C 	0.15030 0.61330 0.81020 -0.13800
H 	H 	0.15070 0.63390 0.89230 0.04600
C 	C 	0.25260 0.65970 0.71850 -0.02100
C 	C 	0.25460 0.61970 0.60070 0.00200
C 	C 	0.29340 0.61580 0.52340 0.13100
C 	C 	0.32660 0.67580 0.56830 0.01100
C 	C 	0.32650 0.71180 0.68480 -0.02200
C 	C 	0.29230 0.69690 0.77750 0.21700
C 	C 	0.30970 0.64940 0.88820 -0.52800
H 	H 	0.32020 0.59810 0.85960 0.16700
H 	H 	0.33250 0.67920 0.93000 0.16700
H 	H 	0.28740 0.64030 0.94650 0.17000
C 	C 	0.28100 0.77830 0.83730 -0.51600
H 	H 	0.30490 0.79780 0.88800 0.17100
H 	H 	0.27390 0.81690 0.77160 0.17000
H 	H 	0.25700 0.77110 0.88980 0.16800
C 	C 	0.38660 0.77950 0.63970 0.05300
C 	C 	0.38670 0.74030 0.52050 0.07000
C 	C 	0.41840 0.75570 0.43800 -0.14900
H 	H 	0.41830 0.73120 0.35860 0.04400
C 	C 	0.44930 0.80720 0.47540 0.05900
C 	C 	0.44970 0.84430 0.59120 0.03000
C 	C 	0.41860 0.83070 0.67870 -0.12700
H 	H 	0.41960 0.85490 0.75850 0.03400
C 	C 	0.28900 0.60400 0.39950 -0.53600
H 	H 	0.27850 0.55000 0.38330 0.17400
H 	H 	0.26910 0.64290 0.36350 0.17900
H 	H 	0.31610 0.61060 0.36190 0.17900
Cu	Cu	0.55544 0.05407 0.96760 0.78800
N 	N 	0.57720 0.05430 0.80240 -0.25300
N 	N 	0.55550 0.01450 0.71490 -0.22200
N 	N 	0.57660 0.00500 0.61220 -0.22900
N 	N 	0.71960 0.15690 0.78500 -0.12200
N 	N 	0.72050 0.08890 0.54440 -0.12200
N 	N 	0.85560 0.18690 0.48880 -0.12900
N 	N 	0.85520 0.26290 0.72060 -0.12000
N 	N 	0.98360 0.33520 0.41450 -0.23900
N 	N 	0.00390 0.38420 0.49730 -0.25200
N 	N 	0.98470 0.39150 0.60320 -0.21200
C 	C 	0.61530 0.07370 0.75550 0.04500
C 	C 	0.61520 0.04100 0.63180 0.05800
C 	C 	0.64930 0.04740 0.55830 -0.14500
H 	H 	0.64870 0.02700 0.47600 0.06600
C 	C 	0.68490 0.08550 0.61110 0.07000
C 	C 	0.68420 0.11960 0.73410 0.05900
C 	C 	0.65030 0.11330 0.81020 -0.13800
H 	H 	0.65070 0.13390 0.89230 0.04700
C 	C 	0.75260 0.15970 0.71850 -0.02100
C 	C 	0.75460 0.11970 0.60070 0.00100
C 	C 	0.79340 0.11580 0.52340 0.13200
C 	C 	0.82660 0.17580 0.56830 0.01100
C 	C 	0.82650 0.21180 0.68480 -0.02200
C 	C 	0.79230 0.19690 0.77750 0.21900
C 	C 	0.80970 0.14940 0.88820 -0.53200
H 	H 	0.82020 0.09810 0.85960 0.17000
H 	H 	0.83250 0.17920 0.93000 0.17000
H 	H 	0.78740 0.14030 0.94650 0.17100
C 	C 	0.78100 0.27830 0.83730 -0.51900
H 	H 	0.80490 0.29780 0.88800 0.17200
H 	H 	0.77390 0.31690 0.77160 0.17100
H 	H 	0.75700 0.27110 0.88980 0.16900
C 	C 	0.88660 0.27950 0.63970 0.05400
C 	C 	0.88670 0.24030 0.52050 0.07200
C 	C 	0.91840 0.25570 0.43800 -0.14800
H 	H 	0.91830 0.23120 0.35860 0.04900
C 	C 	0.94930 0.30720 0.47540 0.06400
C 	C 	0.94970 0.34430 0.59120 0.03300
C 	C 	0.91860 0.33070 0.67870 -0.12500
H 	H 	0.91960 0.35490 0.75850 0.03700
C 	C 	0.78900 0.10400 0.39950 -0.53800
H 	H 	0.77850 0.05000 0.38330 0.17500
H 	H 	0.76910 0.14290 0.36350 0.18000
H 	H 	0.81610 0.11060 0.36190 0.18000
Cu	Cu	0.94456 0.55407 0.53240 0.79300
N 	N 	0.92280 0.55430 0.69760 -0.25100
N 	N 	0.94450 0.51450 0.78510 -0.21400
N 	N 	0.92340 0.50500 0.88780 -0.22700
N 	N 	0.78040 0.65690 0.71500 -0.12200
N 	N 	0.77950 0.58890 0.95560 -0.12100
N 	N 	0.64440 0.68690 0.01120 -0.13000
N 	N 	0.64480 0.76290 0.77940 -0.12000
N 	N 	0.51640 0.83520 0.08550 -0.26000
N 	N 	0.49610 0.88420 0.00270 -0.22600
N 	N 	0.51530 0.89150 0.89680 -0.23300
C 	C 	0.88470 0.57370 0.74450 0.04600
C 	C 	0.88480 0.54100 0.86820 0.05800
C 	C 	0.85070 0.54740 0.94170 -0.14300
H 	H 	0.85130 0.52700 0.02400 0.06500
C 	C 	0.81510 0.58550 0.88890 0.06900
C 	C 	0.81580 0.61960 0.76590 0.06000
C 	C 	0.84970 0.61330 0.68980 -0.13800
H 	H 	0.84930 0.63390 0.60770 0.04700
C 	C 	0.74740 0.65970 0.78150 -0.02100
C 	C 	0.74540 0.61970 0.89930 0.00100
C 	C 	0.70660 0.61580 0.97660 0.13100
C 	C 	0.67340 0.67580 0.93170 0.01100
C 	C 	0.67350 0.71180 0.81520 -0.02200
C 	C 	0.70770 0.69690 0.72250 0.21700
C 	C 	0.69030 0.64940 0.61180 -0.52800
H 	H 	0.67980 0.59810 0.64040 0.16700
H 	H 	0.66750 0.67920 0.57000 0.16700
H 	H 	0.71260 0.64030 0.55350 0.16900
C 	C 	0.71900 0.77830 0.66270 -0.51700
H 	H 	0.69510 0.79780 0.61200 0.17100
H 	H 	0.72610 0.81690 0.72840 0.17000
H 	H 	0.74300 0.77110 0.61020 0.16800
C 	C 	0.61340 0.77950 0.86030 0.05300
C 	C 	0.61330 0.74030 0.97950 0.07000
C 	C 	0.58160 0.75570 0.06200 -0.14900
H 	H 	0.58170 0.73120 0.14140 0.04500
C 	C 	0.55070 0.80720 0.02460 0.05900
C 	C 	0.55030 0.84430 0.90880 0.03000
C 	C 	0.58140 0.83070 0.82130 -0.12700
H 	H 	0.58040 0.85490 0.74150 0.03400
C 	C 	0.71100 0.60400 0.10050 -0.53700
H 	H 	0.72150 0.55000 0.11670 0.17400
H 	H 	0.73090 0.64290 0.13650 0.17900
H 	H 	0.68390 0.61060 0.13810 0.17900
Cu	Cu	0.44456 0.05407 0.53240 0.78800
N 	N 	0.42280 0.05430 0.69760 -0.25300
N 	N 	0.44450 0.01450 0.78510 -0.22200
N 	N 	0.42340 0.00500 0.88780 -0.22900
N 	N 	0.28040 0.15690 0.71500 -0.12200
N 	N 	0.27950 0.08890 0.95560 -0.12100
N 	N 	0.14440 0.18690 0.01120 -0.13100
N 	N 	0.14480 0.26290 0.77940 -0.12100
N 	N 	0.01640 0.33520 0.08550 -0.27400
N 	N 	0.99610 0.38420 0.00270 -0.19800
N 	N 	0.01530 0.39150 0.89680 -0.24900
C 	C 	0.38470 0.07370 0.74450 0.04500
C 	C 	0.38480 0.04100 0.86820 0.05700
C 	C 	0.35070 0.04740 0.94170 -0.14100
H 	H 	0.35130 0.02700 0.02400 0.06400
C 	C 	0.31510 0.08550 0.88890 0.06900
C 	C 	0.31580 0.11960 0.76590 0.06000
C 	C 	0.34970 0.11330 0.68980 -0.13900
H 	H 	0.34930 0.13390 0.60770 0.04600
C 	C 	0.24740 0.15970 0.78150 -0.02100
C 	C 	0.24540 0.11970 0.89930 0.00100
C 	C 	0.20660 0.11580 0.97660 0.13100
C 	C 	0.17340 0.17580 0.93170 0.01100
C 	C 	0.17350 0.21180 0.81520 -0.02300
C 	C 	0.20770 0.19690 0.72250 0.21600
C 	C 	0.19030 0.14940 0.61180 -0.52500
H 	H 	0.17980 0.09810 0.64040 0.16500
H 	H 	0.16750 0.17920 0.57000 0.16500
H 	H 	0.21260 0.14030 0.55350 0.16800
C 	C 	0.21900 0.27830 0.66270 -0.51600
H 	H 	0.19510 0.29780 0.61200 0.17000
H 	H 	0.22610 0.31690 0.72840 0.17000
H 	H 	0.24300 0.27110 0.61020 0.16700
C 	C 	0.11340 0.27950 0.86030 0.05200
C 	C 	0.11330 0.24030 0.97950 0.07000
C 	C 	0.08160 0.25570 0.06200 -0.15000
H 	H 	0.08170 0.23120 0.14140 0.04200
C 	C 	0.05070 0.30720 0.02460 0.05500
C 	C 	0.05030 0.34430 0.90880 0.02800
C 	C 	0.08140 0.33070 0.82130 -0.12900
H 	H 	0.08040 0.35490 0.74150 0.03300
C 	C 	0.21100 0.10400 0.10050 -0.53700
H 	H 	0.22150 0.05000 0.11670 0.17400
H 	H 	0.23090 0.14290 0.13650 0.17900
H 	H 	0.18390 0.11060 0.13810 0.17800
Cu	Cu	0.00000 0.53346 0.25000 0.76200
Cu	Cu	0.50000 0.03346 0.25000 0.77500
Cu	Cu	0.00000 0.46654 0.75000 0.76200
Cu	Cu	0.50000 0.96654 0.75000 0.77600
Cu	Cu	0.50000 0.17481 0.75000 0.77100
Cu	Cu	0.00000 0.67481 0.75000 0.75700
Cu	Cu	0.50000 0.82519 0.25000 0.77100
Cu	Cu	-0.00000 0.32519 0.25000 0.75700
