data_crystal

_cell_length_a 26.08520
_cell_length_b 26.08520
_cell_length_c 17.63080
_cell_angle_alpha 90.00000
_cell_angle_beta  90.00000
_cell_angle_gamma 90.00000

_symmetry_space_group_name_	'P 1'
_symmetry_space_group_name_H-M	'P 1'

loop_
_symmetry_equiv_pos_as_xyz
  x,y,z

loop_
_atom_site_label
_atom_site_type_symbol
_atom_site_fract_x
_atom_site_fract_y
_atom_site_fract_z
_atom_site_charge
Zn	Zn	0.76106 0.25144 0.16745 1.23500
O 	O 	0.67739 0.25725 0.29624 -0.45100
O 	O 	0.68350 0.25309 0.17059 -0.48300
O 	O 	0.32918 0.24029 0.32825 -0.49400
O 	O 	0.33502 0.24645 0.20323 -0.45100
O 	O 	0.77717 0.23574 0.06160 -0.58500
C 	C 	0.35368 0.24402 0.26813 0.40400
C 	C 	0.65889 0.25442 0.23111 0.39600
C 	C 	0.60129 0.25361 0.22484 -0.09300
C 	C 	0.57738 0.25400 0.15376 0.03200
H 	H 	0.59780 0.25540 0.10920 0.02500
C 	C 	0.52550 0.25239 0.14755 -0.09100
H 	H 	0.51000 0.25230 0.09880 0.07300
C 	C 	0.49433 0.25083 0.21355 0.02800
C 	C 	0.44009 0.24836 0.20961 -0.02300
H 	H 	0.42370 0.24810 0.16150 0.06700
C 	C 	0.41107 0.24633 0.27361 -0.10000
C 	C 	0.43500 0.24797 0.34531 0.03200
H 	H 	0.41460 0.24780 0.39000 0.00900
C 	C 	0.48732 0.24980 0.35125 -0.09600
H 	H 	0.50300 0.25050 0.39990 0.06200
C 	C 	0.51797 0.25062 0.28563 0.02800
C 	C 	0.57233 0.25265 0.28939 -0.02600
H 	H 	0.58880 0.25330 0.33750 0.06100
H 	H 	0.70920 0.30090 0.05240 0.28500
H 	H 	0.68930 0.28070 0.97180 0.27000
H 	H 	0.73230 0.32430 0.97580 0.25800
Zn	Zn	0.23894 0.74856 0.16745 1.23600
O 	O 	0.32261 0.74275 0.29624 -0.45000
O 	O 	0.31650 0.74691 0.17059 -0.48200
O 	O 	0.67082 0.75971 0.32825 -0.49300
O 	O 	0.66498 0.75355 0.20323 -0.45100
O 	O 	0.22283 0.76426 0.06160 -0.58500
C 	C 	0.64632 0.75598 0.26813 0.40400
C 	C 	0.34111 0.74558 0.23111 0.39600
C 	C 	0.39871 0.74639 0.22484 -0.09300
C 	C 	0.42262 0.74600 0.15376 0.03200
H 	H 	0.40220 0.74460 0.10920 0.02500
C 	C 	0.47450 0.74761 0.14755 -0.09100
H 	H 	0.49000 0.74770 0.09880 0.07300
C 	C 	0.50567 0.74917 0.21355 0.02800
C 	C 	0.55991 0.75164 0.20961 -0.02300
H 	H 	0.57630 0.75190 0.16150 0.06700
C 	C 	0.58893 0.75367 0.27361 -0.10000
C 	C 	0.56500 0.75203 0.34531 0.03200
H 	H 	0.58540 0.75220 0.39000 0.00900
C 	C 	0.51268 0.75020 0.35125 -0.09600
H 	H 	0.49700 0.74950 0.39990 0.06200
C 	C 	0.48203 0.74938 0.28563 0.02800
C 	C 	0.42767 0.74735 0.28939 -0.02600
H 	H 	0.41120 0.74670 0.33750 0.06100
H 	H 	0.29080 0.69910 0.05240 0.28500
H 	H 	0.31070 0.71930 0.97180 0.27000
H 	H 	0.26770 0.67570 0.97580 0.25800
Zn	Zn	0.74856 0.76106 0.66745 1.23600
O 	O 	0.74275 0.67739 0.79624 -0.45700
O 	O 	0.74691 0.68350 0.67059 -0.49600
O 	O 	0.75971 0.32918 0.82825 -0.48900
O 	O 	0.75355 0.33502 0.70323 -0.45400
O 	O 	0.76426 0.77717 0.56160 -0.63600
C 	C 	0.75598 0.35368 0.76813 0.40100
C 	C 	0.74558 0.65889 0.73111 0.40000
C 	C 	0.74639 0.60129 0.72484 -0.10500
C 	C 	0.74600 0.57738 0.65376 0.03500
H 	H 	0.74460 0.59780 0.60920 0.00800
C 	C 	0.74761 0.52550 0.64755 -0.10000
H 	H 	0.74770 0.51000 0.59880 0.06300
C 	C 	0.74917 0.49433 0.71355 0.02700
C 	C 	0.75164 0.44009 0.70961 -0.02700
H 	H 	0.75190 0.42370 0.66150 0.06100
C 	C 	0.75367 0.41107 0.77361 -0.10000
C 	C 	0.75203 0.43500 0.84531 0.02400
H 	H 	0.75220 0.41460 0.89000 0.00900
C 	C 	0.75020 0.48732 0.85125 -0.09300
H 	H 	0.74950 0.50300 0.89990 0.04900
C 	C 	0.74938 0.51797 0.78563 0.01900
C 	C 	0.74735 0.57233 0.78939 -0.02200
H 	H 	0.74670 0.58880 0.83750 0.05300
H 	H 	0.69910 0.70920 0.55240 0.40500
H 	H 	0.71930 0.68930 0.47180 0.41700
H 	H 	0.67570 0.73230 0.47580 0.41400
Zn	Zn	0.25144 0.23894 0.66745 1.23600
O 	O 	0.25725 0.32261 0.79624 -0.45700
O 	O 	0.25309 0.31650 0.67059 -0.49600
O 	O 	0.24029 0.67082 0.82825 -0.48900
O 	O 	0.24645 0.66498 0.70323 -0.45400
O 	O 	0.23574 0.22283 0.56160 -0.63600
C 	C 	0.24402 0.64632 0.76813 0.40100
C 	C 	0.25442 0.34111 0.73111 0.40000
C 	C 	0.25361 0.39871 0.72484 -0.10500
C 	C 	0.25400 0.42262 0.65376 0.03500
H 	H 	0.25540 0.40220 0.60920 0.00800
C 	C 	0.25239 0.47450 0.64755 -0.10000
H 	H 	0.25230 0.49000 0.59880 0.06300
C 	C 	0.25083 0.50567 0.71355 0.02700
C 	C 	0.24836 0.55991 0.70961 -0.02700
H 	H 	0.24810 0.57630 0.66150 0.06100
C 	C 	0.24633 0.58893 0.77361 -0.10000
C 	C 	0.24797 0.56500 0.84531 0.02400
H 	H 	0.24780 0.58540 0.89000 0.00900
C 	C 	0.24980 0.51268 0.85125 -0.09300
H 	H 	0.25050 0.49700 0.89990 0.04900
C 	C 	0.25062 0.48203 0.78563 0.01900
C 	C 	0.25265 0.42767 0.78939 -0.02200
H 	H 	0.25330 0.41120 0.83750 0.05300
H 	H 	0.30090 0.29080 0.55240 0.40500
H 	H 	0.28070 0.31070 0.47180 0.41700
H 	H 	0.32430 0.26770 0.47580 0.41400
Zn	Zn	0.73894 0.75144 0.83255 1.23500
O 	O 	0.82261 0.75725 0.70376 -0.45100
O 	O 	0.81650 0.75309 0.82941 -0.49000
O 	O 	0.17082 0.74029 0.67175 -0.49500
O 	O 	0.16498 0.74645 0.79677 -0.46000
O 	O 	0.72283 0.73574 0.93840 -0.63400
C 	C 	0.14632 0.74402 0.73187 0.40600
C 	C 	0.84111 0.75442 0.76889 0.39500
C 	C 	0.89871 0.75361 0.77516 -0.09600
C 	C 	0.92262 0.75400 0.84624 0.02300
H 	H 	0.90220 0.75540 0.89080 0.00900
C 	C 	0.97450 0.75239 0.85245 -0.09200
H 	H 	0.99000 0.75230 0.90120 0.04900
C 	C 	0.00567 0.75083 0.78645 0.01500
C 	C 	0.05991 0.74836 0.79039 -0.01800
H 	H 	0.07630 0.74810 0.83850 0.05200
C 	C 	0.08893 0.74633 0.72639 -0.10900
C 	C 	0.06500 0.74797 0.65469 0.03600
H 	H 	0.08540 0.74780 0.61000 0.00700
C 	C 	0.01268 0.74980 0.64875 -0.10200
H 	H 	0.99700 0.75050 0.60010 0.06300
C 	C 	0.98203 0.75062 0.71437 0.03100
C 	C 	0.92767 0.75265 0.71061 -0.03100
H 	H 	0.91120 0.75330 0.66250 0.06200
H 	H 	0.79080 0.80090 0.94760 0.31800
H 	H 	0.81070 0.78070 0.02820 0.35700
H 	H 	0.76770 0.82430 0.02420 0.36400
Zn	Zn	0.26106 0.24856 0.83255 1.23500
O 	O 	0.17739 0.24275 0.70376 -0.45100
O 	O 	0.18350 0.24691 0.82941 -0.49000
O 	O 	0.82918 0.25971 0.67175 -0.49500
O 	O 	0.83502 0.25355 0.79677 -0.46000
O 	O 	0.27717 0.26426 0.93840 -0.63400
C 	C 	0.85368 0.25598 0.73187 0.40600
C 	C 	0.15889 0.24558 0.76889 0.39500
C 	C 	0.10129 0.24639 0.77516 -0.09600
C 	C 	0.07738 0.24600 0.84624 0.02300
H 	H 	0.09780 0.24460 0.89080 0.00900
C 	C 	0.02550 0.24761 0.85245 -0.09200
H 	H 	0.01000 0.24770 0.90120 0.04900
C 	C 	0.99433 0.24917 0.78645 0.01500
C 	C 	0.94009 0.25164 0.79039 -0.01800
H 	H 	0.92370 0.25190 0.83850 0.05200
C 	C 	0.91107 0.25367 0.72639 -0.10900
C 	C 	0.93500 0.25203 0.65469 0.03600
H 	H 	0.91460 0.25220 0.61000 0.00700
C 	C 	0.98732 0.25020 0.64875 -0.10200
H 	H 	0.00300 0.24950 0.60010 0.06300
C 	C 	0.01797 0.24938 0.71437 0.03100
C 	C 	0.07233 0.24735 0.71061 -0.03100
H 	H 	0.08880 0.24670 0.66250 0.06200
H 	H 	0.20920 0.19910 0.94760 0.31800
H 	H 	0.18930 0.21930 0.02820 0.35700
H 	H 	0.23230 0.17570 0.02420 0.36400
Zn	Zn	0.75144 0.26106 0.33255 1.23600
O 	O 	0.75725 0.17739 0.20376 -0.44800
O 	O 	0.75309 0.18350 0.32941 -0.49500
O 	O 	0.74029 0.82918 0.17175 -0.48200
O 	O 	0.74645 0.83502 0.29677 -0.45300
O 	O 	0.73574 0.27717 0.43840 -0.63500
C 	C 	0.74402 0.85368 0.23187 0.40300
C 	C 	0.75442 0.15889 0.26889 0.39800
C 	C 	0.75361 0.10129 0.27516 -0.09700
C 	C 	0.75400 0.07738 0.34624 0.03100
H 	H 	0.75540 0.09780 0.39080 0.01000
C 	C 	0.75239 0.02550 0.35245 -0.09400
H 	H 	0.75230 0.01000 0.40120 0.06100
C 	C 	0.75083 0.99433 0.28645 0.02500
C 	C 	0.74836 0.94009 0.29039 -0.02200
H 	H 	0.74810 0.92370 0.33850 0.06100
C 	C 	0.74633 0.91107 0.22639 -0.09700
C 	C 	0.74797 0.93500 0.15469 0.03300
H 	H 	0.74780 0.91460 0.11000 0.02400
C 	C 	0.74980 0.98732 0.14875 -0.09300
H 	H 	0.75050 0.00300 0.10010 0.07300
C 	C 	0.75062 0.01797 0.21437 0.03100
C 	C 	0.75265 0.07233 0.21061 -0.02600
H 	H 	0.75330 0.08880 0.16250 0.06800
H 	H 	0.80090 0.20920 0.44760 0.40500
H 	H 	0.78070 0.18930 0.52820 0.41700
H 	H 	0.82430 0.23230 0.52420 0.41400
Zn	Zn	0.24856 0.73894 0.33255 1.23600
O 	O 	0.24275 0.82261 0.20376 -0.44800
O 	O 	0.24691 0.81650 0.32941 -0.49500
O 	O 	0.25971 0.17082 0.17175 -0.48200
O 	O 	0.25355 0.16498 0.29677 -0.45300
O 	O 	0.26426 0.72283 0.43840 -0.63500
C 	C 	0.25598 0.14632 0.23187 0.40300
C 	C 	0.24558 0.84111 0.26889 0.39800
C 	C 	0.24639 0.89871 0.27516 -0.09700
C 	C 	0.24600 0.92262 0.34624 0.03100
H 	H 	0.24460 0.90220 0.39080 0.01000
C 	C 	0.24761 0.97450 0.35245 -0.09400
H 	H 	0.24770 0.99000 0.40120 0.06100
C 	C 	0.24917 0.00567 0.28645 0.02500
C 	C 	0.25164 0.05991 0.29039 -0.02200
H 	H 	0.25190 0.07630 0.33850 0.06100
C 	C 	0.25367 0.08893 0.22639 -0.09700
C 	C 	0.25203 0.06500 0.15469 0.03300
H 	H 	0.25220 0.08540 0.11000 0.02400
C 	C 	0.25020 0.01268 0.14875 -0.09300
H 	H 	0.24950 0.99700 0.10010 0.07300
C 	C 	0.24938 0.98203 0.21437 0.03100
C 	C 	0.24735 0.92767 0.21061 -0.02600
H 	H 	0.24670 0.91120 0.16250 0.06800
H 	H 	0.19910 0.79080 0.44760 0.40500
H 	H 	0.21930 0.81070 0.52820 0.41700
H 	H 	0.17570 0.76770 0.52420 0.41400
Zn	Zn	0.23894 0.74856 0.83255 1.23500
O 	O 	0.32261 0.74275 0.70376 -0.45100
O 	O 	0.31650 0.74691 0.82941 -0.49000
O 	O 	0.67082 0.75971 0.67175 -0.49500
O 	O 	0.66498 0.75355 0.79677 -0.46000
O 	O 	0.22283 0.76426 0.93840 -0.63400
C 	C 	0.64632 0.75598 0.73187 0.40600
C 	C 	0.34111 0.74558 0.76889 0.39500
C 	C 	0.39871 0.74639 0.77516 -0.09600
C 	C 	0.42262 0.74600 0.84624 0.02300
H 	H 	0.40220 0.74460 0.89080 0.00900
C 	C 	0.47450 0.74761 0.85245 -0.09200
H 	H 	0.49000 0.74770 0.90120 0.04900
C 	C 	0.50567 0.74917 0.78645 0.01500
C 	C 	0.55991 0.75164 0.79039 -0.01800
H 	H 	0.57630 0.75190 0.83850 0.05200
C 	C 	0.58893 0.75367 0.72639 -0.10900
C 	C 	0.56500 0.75203 0.65469 0.03600
H 	H 	0.58540 0.75220 0.61000 0.00700
C 	C 	0.51268 0.75020 0.64875 -0.10200
H 	H 	0.49700 0.74950 0.60010 0.06300
C 	C 	0.48203 0.74938 0.71437 0.03100
C 	C 	0.42767 0.74735 0.71061 -0.03100
H 	H 	0.41120 0.74670 0.66250 0.06200
H 	H 	0.29080 0.69910 0.94760 0.31800
H 	H 	0.31070 0.71930 0.02820 0.35700
H 	H 	0.26770 0.67570 0.02420 0.36400
Zn	Zn	0.76106 0.25144 0.83255 1.23500
O 	O 	0.67739 0.25725 0.70376 -0.45100
O 	O 	0.68350 0.25309 0.82941 -0.49000
O 	O 	0.32918 0.24029 0.67175 -0.49500
O 	O 	0.33502 0.24645 0.79677 -0.46000
O 	O 	0.77717 0.23574 0.93840 -0.63400
C 	C 	0.35368 0.24402 0.73187 0.40600
C 	C 	0.65889 0.25442 0.76889 0.39500
C 	C 	0.60129 0.25361 0.77516 -0.09600
C 	C 	0.57738 0.25400 0.84624 0.02300
H 	H 	0.59780 0.25540 0.89080 0.00900
C 	C 	0.52550 0.25239 0.85245 -0.09200
H 	H 	0.51000 0.25230 0.90120 0.04900
C 	C 	0.49433 0.25083 0.78645 0.01500
C 	C 	0.44009 0.24836 0.79039 -0.01800
H 	H 	0.42370 0.24810 0.83850 0.05200
C 	C 	0.41107 0.24633 0.72639 -0.10900
C 	C 	0.43500 0.24797 0.65469 0.03600
H 	H 	0.41460 0.24780 0.61000 0.00700
C 	C 	0.48732 0.24980 0.64875 -0.10200
H 	H 	0.50300 0.25050 0.60010 0.06300
C 	C 	0.51797 0.25062 0.71437 0.03100
C 	C 	0.57233 0.25265 0.71061 -0.03100
H 	H 	0.58880 0.25330 0.66250 0.06200
H 	H 	0.70920 0.30090 0.94760 0.31800
H 	H 	0.68930 0.28070 0.02820 0.35700
H 	H 	0.73230 0.32430 0.02420 0.36400
Zn	Zn	0.25144 0.23894 0.33255 1.23600
O 	O 	0.25725 0.32261 0.20376 -0.44800
O 	O 	0.25309 0.31650 0.32941 -0.49500
O 	O 	0.24029 0.67082 0.17175 -0.48100
O 	O 	0.24645 0.66498 0.29677 -0.45300
O 	O 	0.23574 0.22283 0.43840 -0.63500
C 	C 	0.24402 0.64632 0.23187 0.40300
C 	C 	0.25442 0.34111 0.26889 0.39800
C 	C 	0.25361 0.39871 0.27516 -0.09700
C 	C 	0.25400 0.42262 0.34624 0.03100
H 	H 	0.25540 0.40220 0.39080 0.01000
C 	C 	0.25239 0.47450 0.35245 -0.09400
H 	H 	0.25230 0.49000 0.40120 0.06100
C 	C 	0.25083 0.50567 0.28645 0.02500
C 	C 	0.24836 0.55991 0.29039 -0.02200
H 	H 	0.24810 0.57630 0.33850 0.06100
C 	C 	0.24633 0.58893 0.22639 -0.09700
C 	C 	0.24797 0.56500 0.15469 0.03300
H 	H 	0.24780 0.58540 0.11000 0.02400
C 	C 	0.24980 0.51268 0.14875 -0.09300
H 	H 	0.25050 0.49700 0.10010 0.07400
C 	C 	0.25062 0.48203 0.21437 0.03200
C 	C 	0.25265 0.42767 0.21061 -0.02600
H 	H 	0.25330 0.41120 0.16250 0.06800
H 	H 	0.30090 0.29080 0.44760 0.40500
H 	H 	0.28070 0.31070 0.52820 0.41700
H 	H 	0.32430 0.26770 0.52420 0.41400
Zn	Zn	0.74856 0.76106 0.33255 1.23600
O 	O 	0.74275 0.67739 0.20376 -0.44800
O 	O 	0.74691 0.68350 0.32941 -0.49500
O 	O 	0.75971 0.32918 0.17175 -0.48100
O 	O 	0.75355 0.33502 0.29677 -0.45300
O 	O 	0.76426 0.77717 0.43840 -0.63500
C 	C 	0.75598 0.35368 0.23187 0.40300
C 	C 	0.74558 0.65889 0.26889 0.39800
C 	C 	0.74639 0.60129 0.27516 -0.09700
C 	C 	0.74600 0.57738 0.34624 0.03100
H 	H 	0.74460 0.59780 0.39080 0.01000
C 	C 	0.74761 0.52550 0.35245 -0.09400
H 	H 	0.74770 0.51000 0.40120 0.06100
C 	C 	0.74917 0.49433 0.28645 0.02500
C 	C 	0.75164 0.44009 0.29039 -0.02200
H 	H 	0.75190 0.42370 0.33850 0.06100
C 	C 	0.75367 0.41107 0.22639 -0.09700
C 	C 	0.75203 0.43500 0.15469 0.03300
H 	H 	0.75220 0.41460 0.11000 0.02400
C 	C 	0.75020 0.48732 0.14875 -0.09300
H 	H 	0.74950 0.50300 0.10010 0.07400
C 	C 	0.74938 0.51797 0.21437 0.03200
C 	C 	0.74735 0.57233 0.21061 -0.02600
H 	H 	0.74670 0.58880 0.16250 0.06800
H 	H 	0.69910 0.70920 0.44760 0.40500
H 	H 	0.71930 0.68930 0.52820 0.41700
H 	H 	0.67570 0.73230 0.52420 0.41400
Zn	Zn	0.26106 0.24856 0.16745 1.23600
O 	O 	0.17739 0.24275 0.29624 -0.45000
O 	O 	0.18350 0.24691 0.17059 -0.48200
O 	O 	0.82918 0.25971 0.32825 -0.49300
O 	O 	0.83502 0.25355 0.20323 -0.45100
O 	O 	0.27717 0.26426 0.06160 -0.58600
C 	C 	0.85368 0.25598 0.26813 0.40400
C 	C 	0.15889 0.24558 0.23111 0.39600
C 	C 	0.10129 0.24639 0.22484 -0.09300
C 	C 	0.07738 0.24600 0.15376 0.03200
H 	H 	0.09780 0.24460 0.10920 0.02500
C 	C 	0.02550 0.24761 0.14755 -0.09100
H 	H 	0.01000 0.24770 0.09880 0.07300
C 	C 	0.99433 0.24917 0.21355 0.02800
C 	C 	0.94009 0.25164 0.20961 -0.02300
H 	H 	0.92370 0.25190 0.16150 0.06700
C 	C 	0.91107 0.25367 0.27361 -0.10000
C 	C 	0.93500 0.25203 0.34531 0.03200
H 	H 	0.91460 0.25220 0.39000 0.00900
C 	C 	0.98732 0.25020 0.35125 -0.09600
H 	H 	0.00300 0.24950 0.39990 0.06200
C 	C 	0.01797 0.24938 0.28563 0.02800
C 	C 	0.07233 0.24735 0.28939 -0.02600
H 	H 	0.08880 0.24670 0.33750 0.06100
H 	H 	0.20920 0.19910 0.05240 0.28600
H 	H 	0.18930 0.21930 0.97180 0.27100
H 	H 	0.23230 0.17570 0.97580 0.25900
Zn	Zn	0.73894 0.75144 0.16745 1.23600
O 	O 	0.82261 0.75725 0.29624 -0.45000
O 	O 	0.81650 0.75309 0.17059 -0.48200
O 	O 	0.17082 0.74029 0.32825 -0.49300
O 	O 	0.16498 0.74645 0.20323 -0.45100
O 	O 	0.72283 0.73574 0.06160 -0.58600
C 	C 	0.14632 0.74402 0.26813 0.40400
C 	C 	0.84111 0.75442 0.23111 0.39600
C 	C 	0.89871 0.75361 0.22484 -0.09300
C 	C 	0.92262 0.75400 0.15376 0.03200
H 	H 	0.90220 0.75540 0.10920 0.02500
C 	C 	0.97450 0.75239 0.14755 -0.09100
H 	H 	0.99000 0.75230 0.09880 0.07300
C 	C 	0.00567 0.75083 0.21355 0.02800
C 	C 	0.05991 0.74836 0.20961 -0.02300
H 	H 	0.07630 0.74810 0.16150 0.06700
C 	C 	0.08893 0.74633 0.27361 -0.10000
C 	C 	0.06500 0.74797 0.34531 0.03200
H 	H 	0.08540 0.74780 0.39000 0.00900
C 	C 	0.01268 0.74980 0.35125 -0.09600
H 	H 	0.99700 0.75050 0.39990 0.06200
C 	C 	0.98203 0.75062 0.28563 0.02800
C 	C 	0.92767 0.75265 0.28939 -0.02600
H 	H 	0.91120 0.75330 0.33750 0.06100
H 	H 	0.79080 0.80090 0.05240 0.28600
H 	H 	0.81070 0.78070 0.97180 0.27100
H 	H 	0.76770 0.82430 0.97580 0.25900
Zn	Zn	0.24856 0.73894 0.66745 1.23600
O 	O 	0.24275 0.82261 0.79624 -0.45700
O 	O 	0.24691 0.81650 0.67059 -0.49600
O 	O 	0.25971 0.17082 0.82825 -0.48900
O 	O 	0.25355 0.16498 0.70323 -0.45400
O 	O 	0.26426 0.72283 0.56160 -0.63600
C 	C 	0.25598 0.14632 0.76813 0.40100
C 	C 	0.24558 0.84111 0.73111 0.40000
C 	C 	0.24639 0.89871 0.72484 -0.10500
C 	C 	0.24600 0.92262 0.65376 0.03500
H 	H 	0.24460 0.90220 0.60920 0.00800
C 	C 	0.24761 0.97450 0.64755 -0.10000
H 	H 	0.24770 0.99000 0.59880 0.06300
C 	C 	0.24917 0.00567 0.71355 0.02700
C 	C 	0.25164 0.05991 0.70961 -0.02700
H 	H 	0.25190 0.07630 0.66150 0.06100
C 	C 	0.25367 0.08893 0.77361 -0.10000
C 	C 	0.25203 0.06500 0.84531 0.02400
H 	H 	0.25220 0.08540 0.89000 0.00900
C 	C 	0.25020 0.01268 0.85125 -0.09300
H 	H 	0.24950 0.99700 0.89990 0.05000
C 	C 	0.24938 0.98203 0.78563 0.01900
C 	C 	0.24735 0.92767 0.78939 -0.02200
H 	H 	0.24670 0.91120 0.83750 0.05300
H 	H 	0.19910 0.79080 0.55240 0.40500
H 	H 	0.21930 0.81070 0.47180 0.41700
H 	H 	0.17570 0.76770 0.47580 0.41400
Zn	Zn	0.75144 0.26106 0.66745 1.23600
O 	O 	0.75725 0.17739 0.79624 -0.45700
O 	O 	0.75309 0.18350 0.67059 -0.49600
O 	O 	0.74029 0.82918 0.82825 -0.48900
O 	O 	0.74645 0.83502 0.70323 -0.45400
O 	O 	0.73574 0.27717 0.56160 -0.63600
C 	C 	0.74402 0.85368 0.76813 0.40100
C 	C 	0.75442 0.15889 0.73111 0.40000
C 	C 	0.75361 0.10129 0.72484 -0.10500
C 	C 	0.75400 0.07738 0.65376 0.03500
H 	H 	0.75540 0.09780 0.60920 0.00800
C 	C 	0.75239 0.02550 0.64755 -0.10000
H 	H 	0.75230 0.01000 0.59880 0.06300
C 	C 	0.75083 0.99433 0.71355 0.02700
C 	C 	0.74836 0.94009 0.70961 -0.02700
H 	H 	0.74810 0.92370 0.66150 0.06100
C 	C 	0.74633 0.91107 0.77361 -0.10000
C 	C 	0.74797 0.93500 0.84531 0.02400
H 	H 	0.74780 0.91460 0.89000 0.00900
C 	C 	0.74980 0.98732 0.85125 -0.09300
H 	H 	0.75050 0.00300 0.89990 0.05000
C 	C 	0.75062 0.01797 0.78563 0.01900
C 	C 	0.75265 0.07233 0.78939 -0.02200
H 	H 	0.75330 0.08880 0.83750 0.05300
H 	H 	0.80090 0.20920 0.55240 0.40500
H 	H 	0.78070 0.18930 0.47180 0.41700
H 	H 	0.82430 0.23230 0.47580 0.41400
C 	C 	0.75983 0.25310 -0.00000 0.97600
C 	C 	0.71916 0.29316 -0.00000 -1.83700
C 	C 	0.24017 0.74690 -0.00000 0.97600
C 	C 	0.28084 0.70684 -0.00000 -1.83700
C 	C 	0.74690 0.75983 0.50000 1.08800
C 	C 	0.70684 0.71916 0.50000 -2.43800
C 	C 	0.25310 0.24017 0.50000 1.08800
C 	C 	0.29316 0.28084 0.50000 -2.43800
C 	C 	0.74017 0.75310 -0.00000 0.97700
C 	C 	0.78084 0.79316 -0.00000 -1.84000
C 	C 	0.25983 0.24690 -0.00000 0.97700
C 	C 	0.21916 0.20684 -0.00000 -1.84000
C 	C 	0.75310 0.25983 0.50000 1.08800
C 	C 	0.79316 0.21916 0.50000 -2.43800
C 	C 	0.24690 0.74017 0.50000 1.08800
C 	C 	0.20684 0.78084 0.50000 -2.43800
