data_crystal

_cell_length_a 10.46300
_cell_length_b 11.84600
_cell_length_c 12.51100
_cell_angle_alpha 89.20000
_cell_angle_beta  75.08000
_cell_angle_gamma 73.36000

_symmetry_space_group_name_	'P 1'
_symmetry_space_group_name_H-M	'P 1'

loop_
_symmetry_equiv_pos_as_xyz
  x,y,z

loop_
_atom_site_label
_atom_site_type_symbol
_atom_site_fract_x
_atom_site_fract_y
_atom_site_fract_z
_atom_site_charge
C 	C 	0.03190 0.84820 0.09310 0.08800
H 	H 	0.12170 0.81850 0.09990 0.00800
C 	C 	0.84010 0.86560 0.05570 -0.00400
H 	H 	0.77090 0.84930 0.03010 0.04200
C 	C 	0.82870 0.96570 0.10770 0.01400
H 	H 	0.75070 0.03110 0.12520 0.03200
C 	C 	0.98200 0.04330 0.19260 -0.13500
H 	H 	0.95980 0.11870 0.15980 0.08100
H 	H 	0.08070 0.01870 0.18600 0.08000
C 	C 	0.90470 0.05860 0.31380 0.06400
C 	C 	0.81950 0.16680 0.36030 -0.07700
H 	H 	0.80830 0.23090 0.31620 0.06900
C 	C 	0.75060 0.18230 0.47030 -0.06300
H 	H 	0.69710 0.25740 0.50060 0.07100
C 	C 	0.75900 0.08810 0.53700 0.06200
C 	C 	0.84200 0.97820 0.49010 -0.07000
H 	H 	0.84930 0.91370 0.53380 0.05400
C 	C 	0.91430 0.96230 0.38000 -0.07000
H 	H 	0.96950 0.88750 0.34970 0.06100
C 	C 	0.46160 0.27070 0.71190 0.09600
H 	H 	0.49900 0.32360 0.73810 0.00600
C 	C 	0.32180 0.19410 0.66460 0.00400
H 	H 	0.24150 0.18370 0.65300 0.03400
C 	C 	0.44430 0.11290 0.64080 -0.00300
H 	H 	0.46570 0.03740 0.60820 0.04200
C 	C 	0.68120 0.10790 0.65780 -0.12600
H 	H 	0.69610 0.03290 0.69190 0.07700
H 	H 	0.71720 0.15860 0.69470 0.07300
C 	C 	0.09210 0.59260 0.22600 0.29900
C 	C 	0.17400 0.56140 0.31060 0.05900
C 	C 	0.10540 0.59540 0.42150 -0.21600
H 	H 	0.01590 0.64660 0.44200 0.11600
C 	C 	0.17670 0.54950 0.50130 0.25900
C 	C 	0.31040 0.47190 0.47110 -0.31100
H 	H 	0.35640 0.44350 0.52490 0.15200
C 	C 	0.37430 0.43750 0.35970 0.27100
C 	C 	0.30930 0.48620 0.27880 -0.21700
H 	H 	0.35550 0.46890 0.20410 0.12500
C 	C 	0.98280 0.65520 0.64870 -0.20700
H 	H 	0.91840 0.62380 0.62410 0.10500
H 	H 	0.98170 0.72990 0.61560 0.10200
C 	C 	0.93780 0.67520 0.77340 0.39400
C 	C 	0.57680 0.31750 0.22790 -0.19900
H 	H 	0.51410 0.32790 0.18100 0.10400
H 	H 	0.62580 0.23400 0.22380 0.10900
C 	C 	0.68110 0.38500 0.18290 0.41200
Co	Co	0.05570 0.61135 0.99280 1.16200
Co	Co	0.17306 0.44786 0.77354 1.17000
N 	N 	0.97090 0.78890 0.04510 -0.22300
N 	N 	0.94890 0.95650 0.13090 -0.10300
N 	N 	0.53310 0.16190 0.67370 -0.10600
N 	N 	0.33190 0.29670 0.70920 -0.22900
O 	O 	0.12650 0.43380 0.93810 -0.57700
O 	O 	0.96200 0.62730 0.26450 -0.43000
O 	O 	0.15440 0.57670 0.12490 -0.38900
O 	O 	0.11930 0.57440 0.61300 -0.26300
O 	O 	0.82530 0.75030 0.81220 -0.29200
O 	O 	0.01740 0.61440 0.82810 -0.51500
O 	O 	0.49740 0.35350 0.33980 -0.19500
O 	O 	0.68010 0.46860 0.24310 -0.44200
O 	O 	0.76080 0.34730 0.09000 -0.43100
C 	C 	0.96810 0.15180 0.90690 0.08700
H 	H 	0.87830 0.18150 0.90010 0.00700
C 	C 	0.15990 0.13440 0.94430 -0.00500
H 	H 	0.22910 0.15070 0.96990 0.04100
C 	C 	0.17130 0.03430 0.89230 0.01300
H 	H 	0.24930 0.96890 0.87480 0.03100
C 	C 	0.01800 0.95670 0.80740 -0.13600
H 	H 	0.04020 0.88130 0.84020 0.08000
H 	H 	0.91930 0.98130 0.81400 0.08000
C 	C 	0.09530 0.94140 0.68620 0.06400
C 	C 	0.18050 0.83320 0.63970 -0.07700
H 	H 	0.19170 0.76910 0.68380 0.06900
C 	C 	0.24940 0.81770 0.52970 -0.06300
H 	H 	0.30290 0.74260 0.49940 0.07100
C 	C 	0.24100 0.91190 0.46300 0.06200
C 	C 	0.15800 0.02180 0.50990 -0.07000
H 	H 	0.15070 0.08630 0.46620 0.05400
C 	C 	0.08570 0.03770 0.62000 -0.07000
H 	H 	0.03050 0.11250 0.65030 0.06100
C 	C 	0.53840 0.72930 0.28810 0.09600
H 	H 	0.50100 0.67640 0.26190 0.00600
C 	C 	0.67820 0.80590 0.33540 0.00400
H 	H 	0.75850 0.81630 0.34700 0.03400
C 	C 	0.55570 0.88710 0.35920 -0.00300
H 	H 	0.53430 0.96260 0.39180 0.04200
C 	C 	0.31880 0.89210 0.34220 -0.12600
H 	H 	0.30390 0.96710 0.30810 0.07700
H 	H 	0.28280 0.84140 0.30530 0.07300
C 	C 	0.90790 0.40740 0.77400 0.29900
C 	C 	0.82600 0.43860 0.68940 0.05900
C 	C 	0.89460 0.40460 0.57850 -0.21600
H 	H 	0.98410 0.35340 0.55800 0.11600
C 	C 	0.82330 0.45050 0.49870 0.25900
C 	C 	0.68960 0.52810 0.52890 -0.31100
H 	H 	0.64360 0.55650 0.47510 0.15200
C 	C 	0.62570 0.56250 0.64030 0.27100
C 	C 	0.69070 0.51380 0.72120 -0.21700
H 	H 	0.64450 0.53110 0.79590 0.12500
C 	C 	0.01720 0.34480 0.35130 -0.20700
H 	H 	0.08160 0.37620 0.37590 0.10500
H 	H 	0.01830 0.27010 0.38440 0.10200
C 	C 	0.06220 0.32480 0.22660 0.39400
C 	C 	0.42320 0.68250 0.77210 -0.19900
H 	H 	0.48590 0.67210 0.81900 0.10400
H 	H 	0.37420 0.76600 0.77620 0.10900
C 	C 	0.31890 0.61500 0.81710 0.41200
Co	Co	0.94430 0.38865 0.00720 1.16200
Co	Co	0.82694 0.55214 0.22646 1.17000
N 	N 	0.02910 0.21110 0.95490 -0.22300
N 	N 	0.05110 0.04350 0.86910 -0.10300
N 	N 	0.46690 0.83810 0.32630 -0.10600
N 	N 	0.66810 0.70330 0.29080 -0.22900
O 	O 	0.87350 0.56620 0.06190 -0.57700
O 	O 	0.03800 0.37270 0.73550 -0.43000
O 	O 	0.84560 0.42330 0.87510 -0.38900
O 	O 	0.88070 0.42560 0.38700 -0.26300
O 	O 	0.17470 0.24970 0.18780 -0.29200
O 	O 	0.98260 0.38560 0.17190 -0.51500
O 	O 	0.50260 0.64650 0.66020 -0.19500
O 	O 	0.31990 0.53140 0.75690 -0.44200
O 	O 	0.23920 0.65270 0.91000 -0.43100
