data_crystal

_cell_length_a 34.30000
_cell_length_b 9.42600
_cell_length_c 21.33700
_cell_angle_alpha 90.00000
_cell_angle_beta  113.76600
_cell_angle_gamma 90.00000

_symmetry_space_group_name_	'P 1'
_symmetry_space_group_name_H-M	'P 1'

loop_
_symmetry_equiv_pos_as_xyz
  x,y,z

loop_
_atom_site_label
_atom_site_type_symbol
_atom_site_fract_x
_atom_site_fract_y
_atom_site_fract_z
_atom_site_charge
Cd	Cd	0.26590 0.12249 0.95351 1.21500
O 	O 	0.23576 0.14010 0.02780 -0.51500
N 	N 	0.22672 0.91420 0.94490 -0.20700
C 	C 	0.20748 0.04220 0.02540 0.22300
O 	O 	0.34353 0.12430 0.03090 -0.37400
N 	N 	0.27337 0.68740 0.66220 -0.21100
C 	C 	0.18350 0.04760 0.06440 -0.23700
H 	H 	0.18740 0.12370 0.09550 0.10400
O 	O 	0.32064 0.06970 0.92170 -0.40300
C 	C 	0.15360 0.94120 0.05820 0.12000
H 	H 	0.13670 0.95000 0.08390 -0.01000
C 	C 	0.14800 0.82820 0.01800 -0.18100
H 	H 	0.12800 0.75700 0.01660 0.09200
C 	C 	0.17170 0.81440 0.97720 0.09200
C 	C 	0.20225 0.92170 0.98160 -0.06800
C 	C 	0.16770 0.70020 0.93240 -0.09500
H 	H 	0.14730 0.62770 0.92670 0.06400
C 	C 	0.19320 0.69410 0.89720 -0.07000
H 	H 	0.19120 0.61550 0.86820 0.05000
C 	C 	0.22270 0.80450 0.90360 0.08700
C 	C 	0.24880 0.80620 0.86430 -0.11400
H 	H 	0.27130 0.87360 0.87790 0.04600
C 	C 	0.24470 0.72430 0.81200 -0.02300
H 	H 	0.22370 0.65180 0.79980 0.03900
C 	C 	0.27020 0.73700 0.77110 0.00500
C 	C 	0.30810 0.81740 0.79090 -0.04100
H 	H 	0.32010 0.86160 0.83460 0.05300
C 	C 	0.32710 0.83000 0.74540 -0.06900
H 	H 	0.35260 0.88300 0.75740 0.05200
C 	C 	0.30850 0.76400 0.68120 0.04000
H 	H 	0.32170 0.77500 0.65000 -0.00000
C 	C 	0.25550 0.67270 0.70730 -0.00100
H 	H 	0.23090 0.61420 0.69460 0.02800
C 	C 	0.35030 0.09060 0.98090 0.31300
C 	C 	0.39460 0.06520 0.98530 -0.09800
C 	C 	0.42860 0.06260 0.04970 0.01800
H 	H 	0.42400 0.07980 0.09000 0.03500
C 	C 	0.46990 0.03390 0.05360 -0.08900
H 	H 	0.49280 0.02950 0.09740 0.05800
C 	C 	0.47800 0.01230 0.99670 0.03500
C 	C 	0.44340 0.00860 0.93530 -0.09800
H 	H 	0.44770 0.98590 0.89510 0.06000
C 	C 	0.40250 0.03690 0.92950 0.02600
H 	H 	0.37960 0.03640 0.88560 0.03100
Cd	Cd	0.76590 0.62249 0.95351 1.21600
O 	O 	0.73576 0.64010 0.02780 -0.51500
N 	N 	0.72672 0.41420 0.94490 -0.20700
C 	C 	0.70748 0.54220 0.02540 0.22500
O 	O 	0.84353 0.62430 0.03090 -0.37500
N 	N 	0.77337 0.18740 0.66220 -0.21000
C 	C 	0.68350 0.54760 0.06440 -0.23700
H 	H 	0.68740 0.62370 0.09550 0.10600
O 	O 	0.82064 0.56970 0.92170 -0.40200
C 	C 	0.65360 0.44120 0.05820 0.12200
H 	H 	0.63670 0.45000 0.08390 -0.00900
C 	C 	0.64800 0.32820 0.01800 -0.17800
H 	H 	0.62800 0.25700 0.01660 0.09300
C 	C 	0.67170 0.31440 0.97720 0.09100
C 	C 	0.70225 0.42170 0.98160 -0.06800
C 	C 	0.66770 0.20020 0.93240 -0.09300
H 	H 	0.64730 0.12770 0.92670 0.06400
C 	C 	0.69320 0.19410 0.89720 -0.07000
H 	H 	0.69120 0.11550 0.86820 0.05100
C 	C 	0.72270 0.30450 0.90360 0.08800
C 	C 	0.74880 0.30620 0.86430 -0.11300
H 	H 	0.77130 0.37360 0.87790 0.04700
C 	C 	0.74470 0.22430 0.81200 -0.02200
H 	H 	0.72370 0.15180 0.79980 0.04000
C 	C 	0.77020 0.23700 0.77110 0.00500
C 	C 	0.80810 0.31740 0.79090 -0.04100
H 	H 	0.82010 0.36160 0.83460 0.05200
C 	C 	0.82710 0.33000 0.74540 -0.07000
H 	H 	0.85260 0.38300 0.75740 0.05100
C 	C 	0.80850 0.26400 0.68120 0.04000
H 	H 	0.82170 0.27500 0.65000 -0.00000
C 	C 	0.75550 0.17270 0.70730 -0.00100
H 	H 	0.73090 0.11420 0.69460 0.02800
C 	C 	0.85030 0.59060 0.98090 0.31400
C 	C 	0.89460 0.56520 0.98530 -0.09600
C 	C 	0.92860 0.56260 0.04970 0.01600
H 	H 	0.92400 0.57980 0.09000 0.03500
C 	C 	0.96990 0.53390 0.05360 -0.09000
H 	H 	0.99280 0.52950 0.09740 0.05800
C 	C 	0.97800 0.51230 0.99670 0.03600
C 	C 	0.94340 0.50860 0.93530 -0.09500
H 	H 	0.94770 0.48590 0.89510 0.05800
C 	C 	0.90250 0.53690 0.92950 0.02500
H 	H 	0.87960 0.53640 0.88560 0.03200
Cd	Cd	0.73410 0.12249 0.54649 1.21600
O 	O 	0.76424 0.14010 0.47220 -0.51400
N 	N 	0.77328 0.91420 0.55510 -0.20700
C 	C 	0.79252 0.04220 0.47460 0.22400
O 	O 	0.65647 0.12430 0.46910 -0.37400
N 	N 	0.72663 0.68740 0.83780 -0.21000
C 	C 	0.81650 0.04760 0.43560 -0.23700
H 	H 	0.81260 0.12370 0.40450 0.10600
O 	O 	0.67936 0.06970 0.57830 -0.40200
C 	C 	0.84640 0.94120 0.44180 0.12200
H 	H 	0.86330 0.95000 0.41610 -0.00900
C 	C 	0.85200 0.82820 0.48200 -0.17900
H 	H 	0.87200 0.75700 0.48340 0.09300
C 	C 	0.82830 0.81440 0.52280 0.09200
C 	C 	0.79775 0.92170 0.51840 -0.06800
C 	C 	0.83230 0.70020 0.56760 -0.09400
H 	H 	0.85270 0.62770 0.57330 0.06400
C 	C 	0.80680 0.69410 0.60280 -0.06900
H 	H 	0.80880 0.61550 0.63180 0.05100
C 	C 	0.77730 0.80450 0.59640 0.08800
C 	C 	0.75120 0.80620 0.63570 -0.11300
H 	H 	0.72870 0.87360 0.62210 0.04700
C 	C 	0.75530 0.72430 0.68800 -0.02200
H 	H 	0.77630 0.65180 0.70020 0.04000
C 	C 	0.72980 0.73700 0.72890 0.00500
C 	C 	0.69190 0.81740 0.70910 -0.04100
H 	H 	0.67990 0.86160 0.66540 0.05300
C 	C 	0.67290 0.83000 0.75460 -0.07000
H 	H 	0.64740 0.88300 0.74260 0.05200
C 	C 	0.69150 0.76400 0.81880 0.04000
H 	H 	0.67830 0.77500 0.85000 -0.00000
C 	C 	0.74450 0.67270 0.79270 -0.00100
H 	H 	0.76910 0.61420 0.80540 0.02800
C 	C 	0.64970 0.09060 0.51910 0.31400
C 	C 	0.60540 0.06520 0.51470 -0.09600
C 	C 	0.57140 0.06260 0.45030 0.01600
H 	H 	0.57600 0.07980 0.41000 0.03500
C 	C 	0.53010 0.03390 0.44640 -0.09100
H 	H 	0.50720 0.02950 0.40260 0.05800
C 	C 	0.52200 0.01230 0.50330 0.03600
C 	C 	0.55660 0.00860 0.56470 -0.09600
H 	H 	0.55230 0.98590 0.60490 0.05900
C 	C 	0.59750 0.03690 0.57050 0.02500
H 	H 	0.62040 0.03640 0.61440 0.03100
Cd	Cd	0.23410 0.62249 0.54649 1.21600
O 	O 	0.26424 0.64010 0.47220 -0.51400
N 	N 	0.27328 0.41420 0.55510 -0.20700
C 	C 	0.29252 0.54220 0.47460 0.22500
O 	O 	0.15647 0.62430 0.46910 -0.37400
N 	N 	0.22663 0.18740 0.83780 -0.21000
C 	C 	0.31650 0.54760 0.43560 -0.23700
H 	H 	0.31260 0.62370 0.40450 0.10600
O 	O 	0.17936 0.56970 0.57830 -0.40200
C 	C 	0.34640 0.44120 0.44180 0.12300
H 	H 	0.36330 0.45000 0.41610 -0.00900
C 	C 	0.35200 0.32820 0.48200 -0.17900
H 	H 	0.37200 0.25700 0.48340 0.09300
C 	C 	0.32830 0.31440 0.52280 0.09200
C 	C 	0.29775 0.42170 0.51840 -0.06800
C 	C 	0.33230 0.20020 0.56760 -0.09400
H 	H 	0.35270 0.12770 0.57330 0.06400
C 	C 	0.30680 0.19410 0.60280 -0.06900
H 	H 	0.30880 0.11550 0.63180 0.05100
C 	C 	0.27730 0.30450 0.59640 0.08800
C 	C 	0.25120 0.30620 0.63570 -0.11300
H 	H 	0.22870 0.37360 0.62210 0.04700
C 	C 	0.25530 0.22430 0.68800 -0.02200
H 	H 	0.27630 0.15180 0.70020 0.04000
C 	C 	0.22980 0.23700 0.72890 0.00500
C 	C 	0.19190 0.31740 0.70910 -0.04100
H 	H 	0.17990 0.36160 0.66540 0.05200
C 	C 	0.17290 0.33000 0.75460 -0.07000
H 	H 	0.14740 0.38300 0.74260 0.05100
C 	C 	0.19150 0.26400 0.81880 0.04000
H 	H 	0.17830 0.27500 0.85000 -0.00000
C 	C 	0.24450 0.17270 0.79270 -0.00100
H 	H 	0.26910 0.11420 0.80540 0.02700
C 	C 	0.14970 0.59060 0.51910 0.31400
C 	C 	0.10540 0.56520 0.51470 -0.09600
C 	C 	0.07140 0.56260 0.45030 0.01600
H 	H 	0.07600 0.57980 0.41000 0.03500
C 	C 	0.03010 0.53390 0.44640 -0.09000
H 	H 	0.00720 0.52950 0.40260 0.05800
C 	C 	0.02200 0.51230 0.50330 0.03600
C 	C 	0.05660 0.50860 0.56470 -0.09500
H 	H 	0.05230 0.48590 0.60490 0.05800
C 	C 	0.09750 0.53690 0.57050 0.02500
H 	H 	0.12040 0.53640 0.61440 0.03200
Cd	Cd	0.73410 0.87751 0.04649 1.21600
O 	O 	0.76424 0.85990 0.97220 -0.51400
N 	N 	0.77328 0.08580 0.05510 -0.20600
C 	C 	0.79252 0.95780 0.97460 0.22400
O 	O 	0.65647 0.87570 0.96910 -0.37300
N 	N 	0.72663 0.31260 0.33780 -0.21000
C 	C 	0.81650 0.95240 0.93560 -0.23600
H 	H 	0.81260 0.87630 0.90450 0.10500
O 	O 	0.67936 0.93030 0.07830 -0.40200
C 	C 	0.84640 0.05880 0.94180 0.12100
H 	H 	0.86330 0.05000 0.91610 -0.00900
C 	C 	0.85200 0.17180 0.98200 -0.18000
H 	H 	0.87200 0.24300 0.98340 0.09300
C 	C 	0.82830 0.18560 0.02280 0.09300
C 	C 	0.79775 0.07830 0.01840 -0.06700
C 	C 	0.83230 0.29980 0.06760 -0.09400
H 	H 	0.85270 0.37230 0.07330 0.06500
C 	C 	0.80680 0.30590 0.10280 -0.06900
H 	H 	0.80880 0.38450 0.13180 0.05100
C 	C 	0.77730 0.19550 0.09640 0.08800
C 	C 	0.75120 0.19380 0.13570 -0.11300
H 	H 	0.72870 0.12640 0.12210 0.04700
C 	C 	0.75530 0.27570 0.18800 -0.02200
H 	H 	0.77630 0.34820 0.20020 0.04000
C 	C 	0.72980 0.26300 0.22890 0.00500
C 	C 	0.69190 0.18260 0.20910 -0.04100
H 	H 	0.67990 0.13840 0.16540 0.05300
C 	C 	0.67290 0.17000 0.25460 -0.06900
H 	H 	0.64740 0.11700 0.24260 0.05200
C 	C 	0.69150 0.23600 0.31880 0.04000
H 	H 	0.67830 0.22500 0.35000 -0.00000
C 	C 	0.74450 0.32730 0.29270 -0.00100
H 	H 	0.76910 0.38580 0.30540 0.02800
C 	C 	0.64970 0.90940 0.01910 0.31300
C 	C 	0.60540 0.93480 0.01470 -0.09800
C 	C 	0.57140 0.93740 0.95030 0.01800
H 	H 	0.57600 0.92020 0.91000 0.03500
C 	C 	0.53010 0.96610 0.94640 -0.08900
H 	H 	0.50720 0.97050 0.90260 0.05800
C 	C 	0.52200 0.98770 0.00330 0.03500
C 	C 	0.55660 0.99140 0.06470 -0.09800
H 	H 	0.55230 0.01410 0.10490 0.06000
C 	C 	0.59750 0.96310 0.07050 0.02600
H 	H 	0.62040 0.96360 0.11440 0.03100
Cd	Cd	0.23410 0.37751 0.04649 1.21600
O 	O 	0.26424 0.35990 0.97220 -0.51500
N 	N 	0.27328 0.58580 0.05510 -0.20700
C 	C 	0.29252 0.45780 0.97460 0.22500
O 	O 	0.15647 0.37570 0.96910 -0.37500
N 	N 	0.22663 0.81260 0.33780 -0.21000
C 	C 	0.31650 0.45240 0.93560 -0.23700
H 	H 	0.31260 0.37630 0.90450 0.10600
O 	O 	0.17936 0.43030 0.07830 -0.40200
C 	C 	0.34640 0.55880 0.94180 0.12200
H 	H 	0.36330 0.55000 0.91610 -0.00900
C 	C 	0.35200 0.67180 0.98200 -0.17800
H 	H 	0.37200 0.74300 0.98340 0.09300
C 	C 	0.32830 0.68560 0.02280 0.09100
C 	C 	0.29775 0.57830 0.01840 -0.06800
C 	C 	0.33230 0.79980 0.06760 -0.09300
H 	H 	0.35270 0.87230 0.07330 0.06400
C 	C 	0.30680 0.80590 0.10280 -0.07000
H 	H 	0.30880 0.88450 0.13180 0.05100
C 	C 	0.27730 0.69550 0.09640 0.08800
C 	C 	0.25120 0.69380 0.13570 -0.11300
H 	H 	0.22870 0.62640 0.12210 0.04700
C 	C 	0.25530 0.77570 0.18800 -0.02200
H 	H 	0.27630 0.84820 0.20020 0.04000
C 	C 	0.22980 0.76300 0.22890 0.00500
C 	C 	0.19190 0.68260 0.20910 -0.04100
H 	H 	0.17990 0.63840 0.16540 0.05200
C 	C 	0.17290 0.67000 0.25460 -0.07000
H 	H 	0.14740 0.61700 0.24260 0.05100
C 	C 	0.19150 0.73600 0.31880 0.04000
H 	H 	0.17830 0.72500 0.35000 -0.00000
C 	C 	0.24450 0.82730 0.29270 -0.00100
H 	H 	0.26910 0.88580 0.30540 0.02800
C 	C 	0.14970 0.40940 0.01910 0.31400
C 	C 	0.10540 0.43480 0.01470 -0.09600
C 	C 	0.07140 0.43740 0.95030 0.01600
H 	H 	0.07600 0.42020 0.91000 0.03500
C 	C 	0.03010 0.46610 0.94640 -0.09000
H 	H 	0.00720 0.47050 0.90260 0.05800
C 	C 	0.02200 0.48770 0.00330 0.03600
C 	C 	0.05660 0.49140 0.06470 -0.09500
H 	H 	0.05230 0.51410 0.10490 0.05800
C 	C 	0.09750 0.46310 0.07050 0.02500
H 	H 	0.12040 0.46360 0.11440 0.03200
Cd	Cd	0.26590 0.87751 0.45351 1.21600
O 	O 	0.23576 0.85990 0.52780 -0.51400
N 	N 	0.22672 0.08580 0.44490 -0.20700
C 	C 	0.20748 0.95780 0.52540 0.22400
O 	O 	0.34353 0.87570 0.53090 -0.37400
N 	N 	0.27337 0.31260 0.16220 -0.21000
C 	C 	0.18350 0.95240 0.56440 -0.23700
H 	H 	0.18740 0.87630 0.59550 0.10600
O 	O 	0.32064 0.93030 0.42170 -0.40200
C 	C 	0.15360 0.05880 0.55820 0.12200
H 	H 	0.13670 0.05000 0.58390 -0.00900
C 	C 	0.14800 0.17180 0.51800 -0.17900
H 	H 	0.12800 0.24300 0.51660 0.09300
C 	C 	0.17170 0.18560 0.47720 0.09200
C 	C 	0.20225 0.07830 0.48160 -0.06800
C 	C 	0.16770 0.29980 0.43240 -0.09400
H 	H 	0.14730 0.37230 0.42670 0.06400
C 	C 	0.19320 0.30590 0.39720 -0.06900
H 	H 	0.19120 0.38450 0.36820 0.05100
C 	C 	0.22270 0.19550 0.40360 0.08800
C 	C 	0.24880 0.19380 0.36430 -0.11300
H 	H 	0.27130 0.12640 0.37790 0.04700
C 	C 	0.24470 0.27570 0.31200 -0.02200
H 	H 	0.22370 0.34820 0.29980 0.04000
C 	C 	0.27020 0.26300 0.27110 0.00500
C 	C 	0.30810 0.18260 0.29090 -0.04100
H 	H 	0.32010 0.13840 0.33460 0.05300
C 	C 	0.32710 0.17000 0.24540 -0.07000
H 	H 	0.35260 0.11700 0.25740 0.05200
C 	C 	0.30850 0.23600 0.18120 0.04000
H 	H 	0.32170 0.22500 0.15000 -0.00000
C 	C 	0.25550 0.32730 0.20730 -0.00100
H 	H 	0.23090 0.38580 0.19460 0.02800
C 	C 	0.35030 0.90940 0.48090 0.31400
C 	C 	0.39460 0.93480 0.48530 -0.09600
C 	C 	0.42860 0.93740 0.54970 0.01600
H 	H 	0.42400 0.92020 0.59000 0.03500
C 	C 	0.46990 0.96610 0.55360 -0.09100
H 	H 	0.49280 0.97050 0.59740 0.05800
C 	C 	0.47800 0.98770 0.49670 0.03600
C 	C 	0.44340 0.99140 0.43530 -0.09600
H 	H 	0.44770 0.01410 0.39510 0.05900
C 	C 	0.40250 0.96310 0.42950 0.02500
H 	H 	0.37960 0.96360 0.38560 0.03100
Cd	Cd	0.76590 0.37751 0.45351 1.21600
O 	O 	0.73576 0.35990 0.52780 -0.51400
N 	N 	0.72672 0.58580 0.44490 -0.20700
C 	C 	0.70748 0.45780 0.52540 0.22500
O 	O 	0.84353 0.37570 0.53090 -0.37400
N 	N 	0.77337 0.81260 0.16220 -0.21000
C 	C 	0.68350 0.45240 0.56440 -0.23700
H 	H 	0.68740 0.37630 0.59550 0.10600
O 	O 	0.82064 0.43030 0.42170 -0.40200
C 	C 	0.65360 0.55880 0.55820 0.12300
H 	H 	0.63670 0.55000 0.58390 -0.00900
C 	C 	0.64800 0.67180 0.51800 -0.17900
H 	H 	0.62800 0.74300 0.51660 0.09300
C 	C 	0.67170 0.68560 0.47720 0.09200
C 	C 	0.70225 0.57830 0.48160 -0.06800
C 	C 	0.66770 0.79980 0.43240 -0.09400
H 	H 	0.64730 0.87230 0.42670 0.06400
C 	C 	0.69320 0.80590 0.39720 -0.06900
H 	H 	0.69120 0.88450 0.36820 0.05100
C 	C 	0.72270 0.69550 0.40360 0.08800
C 	C 	0.74880 0.69380 0.36430 -0.11300
H 	H 	0.77130 0.62640 0.37790 0.04700
C 	C 	0.74470 0.77570 0.31200 -0.02200
H 	H 	0.72370 0.84820 0.29980 0.04000
C 	C 	0.77020 0.76300 0.27110 0.00500
C 	C 	0.80810 0.68260 0.29090 -0.04100
H 	H 	0.82010 0.63840 0.33460 0.05200
C 	C 	0.82710 0.67000 0.24540 -0.07000
H 	H 	0.85260 0.61700 0.25740 0.05100
C 	C 	0.80850 0.73600 0.18120 0.04000
H 	H 	0.82170 0.72500 0.15000 -0.00000
C 	C 	0.75550 0.82730 0.20730 -0.00100
H 	H 	0.73090 0.88580 0.19460 0.02700
C 	C 	0.85030 0.40940 0.48090 0.31400
C 	C 	0.89460 0.43480 0.48530 -0.09600
C 	C 	0.92860 0.43740 0.54970 0.01600
H 	H 	0.92400 0.42020 0.59000 0.03500
C 	C 	0.96990 0.46610 0.55360 -0.09000
H 	H 	0.99280 0.47050 0.59740 0.05800
C 	C 	0.97800 0.48770 0.49670 0.03600
C 	C 	0.94340 0.49140 0.43530 -0.09500
H 	H 	0.94770 0.51410 0.39510 0.05800
C 	C 	0.90250 0.46310 0.42950 0.02500
H 	H 	0.87960 0.46360 0.38560 0.03200
