data_crystal

_cell_length_a 19.44990
_cell_length_b 10.88390
_cell_length_c 27.77960
_cell_angle_alpha 90.00000
_cell_angle_beta  104.46700
_cell_angle_gamma 90.00000

_symmetry_space_group_name_	'P 1'
_symmetry_space_group_name_H-M	'P 1'

loop_
_symmetry_equiv_pos_as_xyz
  x,y,z

loop_
_atom_site_label
_atom_site_type_symbol
_atom_site_fract_x
_atom_site_fract_y
_atom_site_fract_z
_atom_site_charge
O 	O 	0.45826 0.45310 0.06063 -0.56200
O 	O 	0.41617 0.63151 0.97766 -0.48500
O 	O 	0.43049 0.62200 0.45937 -0.43200
C 	C 	0.41540 0.47930 0.08502 0.81600
Co	Co	0.40132 0.72571 0.04219 1.18900
C 	C 	0.40848 0.73300 0.95382 0.37300
C 	C 	0.40990 0.39500 0.12655 -1.43500
O 	O 	0.37535 0.57430 0.07676 -0.67400
O 	O 	0.40209 0.82980 0.97679 -0.36700
O 	O 	0.49513 0.73740 0.42085 -0.44800
O 	O 	0.38488 0.14620 0.59029 -0.43500
O 	O 	0.27973 0.27080 0.51378 -0.46500
C 	C 	0.40330 0.73440 0.89977 -0.21400
H 	H 	0.36190 0.36660 0.12130 0.47400
H 	H 	0.42340 0.43850 0.15760 0.46400
H 	H 	0.44100 0.32600 0.12740 0.47400
Co	Co	0.27081 0.62442 0.08154 1.18300
C 	C 	0.39228 0.62630 0.87220 0.17500
C 	C 	0.40805 0.84480 0.87561 0.17200
O 	O 	0.15996 0.66960 0.07740 -0.52300
O 	O 	0.25729 0.48620 0.12523 -0.46300
O 	O 	0.30269 0.22710 0.62445 -0.44900
O 	O 	0.21639 0.43850 0.50721 -0.49800
H 	H 	0.38990 0.55180 0.88810 -0.01600
C 	C 	0.38487 0.62840 0.82172 -0.31200
C 	C 	0.40187 0.84710 0.82499 -0.31500
H 	H 	0.41540 0.91770 0.89370 -0.00700
Co	Co	0.11185 0.53395 0.02687 1.16500
C 	C 	0.12623 0.76110 0.09085 0.39800
C 	C 	0.20236 0.41970 0.11794 0.40800
H 	H 	0.37670 0.55580 0.80350 0.14400
C 	C 	0.38953 0.73860 0.79793 0.31300
H 	H 	0.40600 0.92100 0.80910 0.14000
O 	O 	0.16114 0.39860 0.07616 -0.42000
O 	O 	0.08019 0.41060 0.97006 -0.41300
O 	O 	0.97217 0.48960 0.94002 -0.45300
C 	C 	0.14516 0.79280 0.14494 -0.23000
O 	O 	0.07937 0.81920 0.06174 -0.29000
C 	C 	0.18444 0.36560 0.16271 -0.23200
O 	O 	0.38429 0.73190 0.74776 -0.33800
C 	C 	0.02433 0.42680 0.93576 0.41600
C 	C 	0.11612 0.89530 0.16188 0.20000
C 	C 	0.19001 0.71750 0.17921 0.20500
C 	C 	0.12305 0.29610 0.15780 0.19100
C 	C 	0.22455 0.39190 0.21002 0.19900
C 	C 	0.37450 0.83860 0.71908 0.32600
C 	C 	0.02095 0.37120 0.88618 -0.22000
H 	H 	0.08540 0.94570 0.13920 -0.01600
C 	C 	0.13209 0.92390 0.21198 -0.31400
C 	C 	0.20583 0.74430 0.22939 -0.32800
H 	H 	0.20960 0.64820 0.16830 -0.03500
H 	H 	0.09590 0.27600 0.12620 -0.01300
C 	C 	0.10188 0.25650 0.19911 -0.31400
C 	C 	0.20456 0.35270 0.25196 -0.33100
H 	H 	0.26610 0.43720 0.21380 -0.02500
C 	C 	0.42649 0.86750 0.69543 -0.33400
C 	C 	0.31330 0.90810 0.71181 -0.32400
C 	C 	0.97434 0.41980 0.84427 0.17400
C 	C 	0.06123 0.27010 0.88125 0.19800
H 	H 	0.11300 0.99370 0.22300 0.16600
C 	C 	0.17668 0.84740 0.24520 0.33700
H 	H 	0.23580 0.69330 0.25220 0.15000
H 	H 	0.06050 0.21070 0.19540 0.16100
C 	C 	0.14290 0.28550 0.24614 0.33100
H 	H 	0.23230 0.37130 0.28350 0.15200
H 	H 	0.46780 0.82090 0.70110 0.14700
C 	C 	0.41695 0.96630 0.66315 0.19000
H 	H 	0.27820 0.88760 0.72780 0.15400
C 	C 	0.30497 0.00880 0.68045 0.19300
H 	H 	0.94640 0.48720 0.84750 -0.01800
C 	C 	0.96897 0.36880 0.79759 -0.33000
C 	C 	0.05432 0.21500 0.83565 -0.32100
H 	H 	0.09350 0.23870 0.90900 -0.01200
O 	O 	0.18907 0.87840 0.29500 -0.33300
O 	O 	0.11829 0.24060 0.28489 -0.32500
C 	C 	0.35639 0.03890 0.65606 -0.22900
H 	H 	0.45120 0.98430 0.64610 -0.02200
H 	H 	0.26420 0.05670 0.67580 -0.01800
H 	H 	0.93950 0.40390 0.76940 0.15100
C 	C 	0.00819 0.26510 0.79390 0.34500
H 	H 	0.08030 0.14480 0.83290 0.17400
C 	C 	0.25001 0.82900 0.32668 0.34600
C 	C 	0.15326 0.27270 0.33343 0.33200
C 	C 	0.34705 0.14620 0.62091 0.42800
C 	C 	0.24436 0.73830 0.35949 -0.33900
C 	C 	0.31460 0.87360 0.32428 -0.34700
C 	C 	0.19780 0.18920 0.36194 -0.32000
C 	C 	0.13800 0.38330 0.35291 -0.31900
C 	C 	0.30590 0.69410 0.39168 0.21200
H 	H 	0.20020 0.70680 0.36020 0.16100
C 	C 	0.37532 0.82940 0.35641 0.22000
H 	H 	0.31770 0.93370 0.30110 0.15700
C 	C 	0.22733 0.21500 0.41184 0.19300
H 	H 	0.20840 0.11590 0.34810 0.16400
C 	C 	0.16690 0.40820 0.40254 0.18700
H 	H 	0.10850 0.44020 0.33280 0.15100
C 	C 	0.37144 0.74110 0.39076 -0.24900
H 	H 	0.30290 0.63210 0.41410 -0.02200
H 	H 	0.41940 0.85980 0.35480 -0.03000
C 	C 	0.21118 0.32410 0.43268 -0.23800
H 	H 	0.25810 0.15890 0.43140 -0.01200
H 	H 	0.15670 0.48230 0.41590 -0.02600
C 	C 	0.43789 0.69550 0.42644 0.44200
C 	C 	0.23751 0.34660 0.48695 0.38700
O 	O 	0.54174 0.45310 0.43937 -0.55900
O 	O 	0.58383 0.63151 0.52234 -0.49600
O 	O 	0.56951 0.62200 0.04063 -0.43800
C 	C 	0.58460 0.47930 0.41498 0.81800
Co	Co	0.59868 0.72571 0.45781 1.19400
C 	C 	0.59152 0.73300 0.54618 0.37600
C 	C 	0.59010 0.39500 0.37345 -1.43600
O 	O 	0.62465 0.57430 0.42324 -0.67200
O 	O 	0.59791 0.82980 0.52321 -0.37700
O 	O 	0.50487 0.73740 0.07915 -0.45100
O 	O 	0.61512 0.14620 0.90971 -0.43300
O 	O 	0.72027 0.27080 0.98622 -0.43800
C 	C 	0.59670 0.73440 0.60023 -0.21800
H 	H 	0.63810 0.36660 0.37870 0.47600
H 	H 	0.57660 0.43850 0.34240 0.46400
H 	H 	0.55900 0.32600 0.37260 0.47500
Co	Co	0.72919 0.62442 0.41846 1.18300
C 	C 	0.60772 0.62630 0.62780 0.17700
C 	C 	0.59195 0.84480 0.62439 0.17500
O 	O 	0.84004 0.66960 0.42260 -0.52200
O 	O 	0.74271 0.48620 0.37477 -0.46200
O 	O 	0.69731 0.22710 0.87555 -0.44900
O 	O 	0.78361 0.43850 0.99279 -0.47100
H 	H 	0.61010 0.55180 0.61190 -0.01700
C 	C 	0.61513 0.62840 0.67828 -0.31400
C 	C 	0.59813 0.84710 0.67501 -0.31700
H 	H 	0.58460 0.91770 0.60630 -0.01000
Co	Co	0.88815 0.53395 0.47313 1.16800
C 	C 	0.87377 0.76110 0.40915 0.39800
C 	C 	0.79764 0.41970 0.38206 0.40700
H 	H 	0.62330 0.55580 0.69650 0.14400
C 	C 	0.61047 0.73860 0.70207 0.31400
H 	H 	0.59400 0.92100 0.69090 0.14000
O 	O 	0.83886 0.39860 0.42384 -0.41700
O 	O 	0.91981 0.41060 0.52994 -0.42100
O 	O 	0.02783 0.48960 0.55998 -0.43400
C 	C 	0.85484 0.79280 0.35506 -0.23200
O 	O 	0.92063 0.81920 0.43826 -0.29400
C 	C 	0.81556 0.36560 0.33729 -0.23000
O 	O 	0.61571 0.73190 0.75224 -0.33900
C 	C 	0.97567 0.42680 0.56424 0.39100
C 	C 	0.88388 0.89530 0.33812 0.19900
C 	C 	0.80999 0.71750 0.32079 0.20500
C 	C 	0.87695 0.29610 0.34220 0.18800
C 	C 	0.77545 0.39190 0.28998 0.19700
C 	C 	0.62550 0.83860 0.78092 0.32500
C 	C 	0.97905 0.37120 0.61382 -0.23600
H 	H 	0.91460 0.94570 0.36080 -0.01900
C 	C 	0.86791 0.92390 0.28802 -0.31700
C 	C 	0.79417 0.74430 0.27061 -0.32900
H 	H 	0.79040 0.64820 0.33170 -0.03500
H 	H 	0.90410 0.27600 0.37380 -0.01400
C 	C 	0.89812 0.25650 0.30089 -0.31300
C 	C 	0.79544 0.35270 0.24804 -0.33000
H 	H 	0.73390 0.43720 0.28620 -0.02400
C 	C 	0.57351 0.86750 0.80457 -0.33300
C 	C 	0.68670 0.90810 0.78819 -0.32400
C 	C 	0.02566 0.41980 0.65573 0.18900
C 	C 	0.93877 0.27010 0.61875 0.19000
H 	H 	0.88700 0.99370 0.27700 0.16400
C 	C 	0.82332 0.84740 0.25480 0.33800
H 	H 	0.76420 0.69330 0.24780 0.15000
H 	H 	0.93950 0.21070 0.30460 0.15600
C 	C 	0.85710 0.28550 0.25386 0.32900
H 	H 	0.76770 0.37130 0.21650 0.15200
H 	H 	0.53220 0.82090 0.79890 0.14700
C 	C 	0.58305 0.96630 0.83685 0.19000
H 	H 	0.72180 0.88760 0.77220 0.15400
C 	C 	0.69503 0.00880 0.81955 0.19300
H 	H 	0.05360 0.48720 0.65250 -0.01900
C 	C 	0.03103 0.36880 0.70241 -0.29400
C 	C 	0.94568 0.21500 0.66435 -0.30800
H 	H 	0.90650 0.23870 0.59100 -0.01400
O 	O 	0.81093 0.87840 0.20500 -0.33500
O 	O 	0.88171 0.24060 0.21511 -0.32600
C 	C 	0.64361 0.03890 0.84394 -0.22800
H 	H 	0.54880 0.98430 0.85390 -0.02100
H 	H 	0.73580 0.05670 0.82420 -0.01700
H 	H 	0.06050 0.40390 0.73060 0.14200
C 	C 	0.99181 0.26510 0.70610 0.30300
H 	H 	0.91970 0.14480 0.66710 0.16600
C 	C 	0.74999 0.82900 0.17332 0.34700
C 	C 	0.84674 0.27270 0.16657 0.32200
C 	C 	0.65295 0.14620 0.87909 0.42800
C 	C 	0.75564 0.73830 0.14051 -0.34100
C 	C 	0.68540 0.87360 0.17572 -0.34900
C 	C 	0.80220 0.18920 0.13806 -0.30900
C 	C 	0.86200 0.38330 0.14709 -0.30800
C 	C 	0.69410 0.69410 0.10832 0.21200
H 	H 	0.79980 0.70680 0.13980 0.16100
C 	C 	0.62468 0.82940 0.14359 0.22100
H 	H 	0.68230 0.93370 0.19890 0.15700
C 	C 	0.77267 0.21500 0.08816 0.17700
H 	H 	0.79160 0.11590 0.15190 0.16000
C 	C 	0.83310 0.40820 0.09746 0.16800
H 	H 	0.89150 0.44020 0.16720 0.14400
C 	C 	0.62856 0.74110 0.10924 -0.25200
H 	H 	0.69710 0.63210 0.08590 -0.02400
H 	H 	0.58060 0.85980 0.14520 -0.03100
C 	C 	0.78882 0.32410 0.06732 -0.21900
H 	H 	0.74190 0.15890 0.06860 -0.01000
H 	H 	0.84330 0.48230 0.08410 -0.02200
C 	C 	0.56211 0.69550 0.07356 0.44200
C 	C 	0.76249 0.34660 0.01305 0.33600
O 	O 	0.54174 0.54690 0.93937 -0.55200
O 	O 	0.58383 0.36849 0.02234 -0.50500
O 	O 	0.56951 0.37800 0.54063 -0.43200
C 	C 	0.58460 0.52070 0.91498 0.81800
Co	Co	0.59868 0.27429 0.95781 1.19900
C 	C 	0.59152 0.26700 0.04618 0.37800
C 	C 	0.59010 0.60500 0.87345 -1.43600
O 	O 	0.62465 0.42570 0.92324 -0.67000
O 	O 	0.59791 0.17020 0.02321 -0.38700
O 	O 	0.50487 0.26260 0.57915 -0.44800
O 	O 	0.61512 0.85380 0.40971 -0.43500
O 	O 	0.72027 0.72920 0.48622 -0.46600
C 	C 	0.59670 0.26560 0.10023 -0.22000
H 	H 	0.63810 0.63340 0.87870 0.47700
H 	H 	0.57660 0.56150 0.84240 0.46400
H 	H 	0.55900 0.67400 0.87260 0.47600
Co	Co	0.72919 0.37558 0.91846 1.18300
C 	C 	0.60772 0.37370 0.12780 0.17900
C 	C 	0.59195 0.15520 0.12439 0.17600
O 	O 	0.84004 0.33040 0.92260 -0.52100
O 	O 	0.74271 0.51380 0.87477 -0.46200
O 	O 	0.69731 0.77290 0.37555 -0.44900
O 	O 	0.78361 0.56150 0.49279 -0.49900
H 	H 	0.61010 0.44820 0.11190 -0.01800
C 	C 	0.61513 0.37160 0.17828 -0.31500
C 	C 	0.59813 0.15290 0.17501 -0.31800
H 	H 	0.58460 0.08230 0.10630 -0.01200
Co	Co	0.88815 0.46605 0.97313 1.17300
C 	C 	0.87377 0.23890 0.90915 0.39800
C 	C 	0.79764 0.58030 0.88206 0.40600
H 	H 	0.62330 0.44420 0.19650 0.14500
C 	C 	0.61047 0.26140 0.20207 0.31600
H 	H 	0.59400 0.07900 0.19090 0.14100
O 	O 	0.83886 0.60140 0.92384 -0.41400
O 	O 	0.91981 0.58940 0.02994 -0.43100
O 	O 	0.02783 0.51040 0.05998 -0.43900
C 	C 	0.85484 0.20720 0.85506 -0.23100
O 	O 	0.92063 0.18080 0.93826 -0.28900
C 	C 	0.81556 0.63440 0.83729 -0.22900
O 	O 	0.61571 0.26810 0.25224 -0.33900
C 	C 	0.97567 0.57320 0.06424 0.39300
C 	C 	0.88388 0.10470 0.83812 0.19800
C 	C 	0.80999 0.28250 0.82079 0.20400
C 	C 	0.87695 0.70390 0.84220 0.18700
C 	C 	0.77545 0.60810 0.78998 0.19700
C 	C 	0.62550 0.16140 0.28092 0.32600
C 	C 	0.97905 0.62880 0.11382 -0.23900
H 	H 	0.91460 0.05430 0.86080 -0.01700
C 	C 	0.86791 0.07610 0.78802 -0.31600
C 	C 	0.79417 0.25570 0.77061 -0.32800
H 	H 	0.79040 0.35180 0.83170 -0.03500
H 	H 	0.90410 0.72400 0.87380 -0.01200
C 	C 	0.89812 0.74350 0.80089 -0.31200
C 	C 	0.79544 0.64730 0.74804 -0.33000
H 	H 	0.73390 0.56280 0.78620 -0.02400
C 	C 	0.57351 0.13250 0.30457 -0.33400
C 	C 	0.68670 0.09190 0.28819 -0.32500
C 	C 	0.02566 0.58020 0.15573 0.19100
C 	C 	0.93877 0.72990 0.11875 0.19300
H 	H 	0.88700 0.00630 0.77700 0.16400
C 	C 	0.82332 0.15260 0.75480 0.33700
H 	H 	0.76420 0.30670 0.74780 0.14900
H 	H 	0.93950 0.78930 0.80460 0.15600
C 	C 	0.85710 0.71450 0.75386 0.32900
H 	H 	0.76770 0.62870 0.71650 0.15200
H 	H 	0.53220 0.17910 0.29890 0.14700
C 	C 	0.58305 0.03370 0.33685 0.19000
H 	H 	0.72180 0.11240 0.27220 0.15400
C 	C 	0.69503 0.99120 0.31955 0.19400
H 	H 	0.05360 0.51280 0.15250 -0.02000
C 	C 	0.03103 0.63120 0.20241 -0.29600
C 	C 	0.94568 0.78500 0.16435 -0.31000
H 	H 	0.90650 0.76130 0.09100 -0.01700
O 	O 	0.81093 0.12160 0.70500 -0.33400
O 	O 	0.88171 0.75940 0.71511 -0.32800
C 	C 	0.64361 0.96110 0.34394 -0.22900
H 	H 	0.54880 0.01570 0.35390 -0.02200
H 	H 	0.73580 0.94330 0.32420 -0.01800
H 	H 	0.06050 0.59610 0.23060 0.14300
C 	C 	0.99181 0.73490 0.20610 0.30500
H 	H 	0.91970 0.85520 0.16710 0.16600
C 	C 	0.74999 0.17100 0.67332 0.34600
C 	C 	0.84674 0.72730 0.66657 0.32900
C 	C 	0.65295 0.85380 0.37909 0.42800
C 	C 	0.75564 0.26170 0.64051 -0.33900
C 	C 	0.68540 0.12640 0.67572 -0.34700
C 	C 	0.80220 0.81080 0.63806 -0.31900
C 	C 	0.86200 0.61670 0.64709 -0.31800
C 	C 	0.69410 0.30590 0.60832 0.21100
H 	H 	0.79980 0.29320 0.63980 0.16100
C 	C 	0.62468 0.17060 0.64359 0.22000
H 	H 	0.68230 0.06630 0.69890 0.15700
C 	C 	0.77267 0.78500 0.58816 0.19200
H 	H 	0.79160 0.88410 0.65190 0.16400
C 	C 	0.83310 0.59180 0.59746 0.18400
H 	H 	0.89150 0.55980 0.66720 0.14700
C 	C 	0.62856 0.25890 0.60924 -0.24900
H 	H 	0.69710 0.36790 0.58590 -0.02200
H 	H 	0.58060 0.14020 0.64520 -0.03000
C 	C 	0.78882 0.67590 0.56732 -0.23700
H 	H 	0.74190 0.84110 0.56860 -0.01200
H 	H 	0.84330 0.51770 0.58410 -0.02500
C 	C 	0.56211 0.30450 0.57356 0.44200
C 	C 	0.76249 0.65340 0.51305 0.38700
O 	O 	0.45826 0.54690 0.56063 -0.55900
O 	O 	0.41617 0.36849 0.47766 -0.49600
O 	O 	0.43049 0.37800 0.95937 -0.42300
C 	C 	0.41540 0.52070 0.58502 0.81800
Co	Co	0.40132 0.27429 0.54219 1.19400
C 	C 	0.40848 0.26700 0.45382 0.37600
C 	C 	0.40990 0.60500 0.62655 -1.43600
O 	O 	0.37535 0.42570 0.57676 -0.67200
O 	O 	0.40209 0.17020 0.47679 -0.37700
O 	O 	0.49513 0.26260 0.92085 -0.44400
O 	O 	0.38488 0.85380 0.09029 -0.43700
O 	O 	0.27973 0.72920 0.01378 -0.49200
C 	C 	0.40330 0.26560 0.39977 -0.21800
H 	H 	0.36190 0.63340 0.62130 0.47600
H 	H 	0.42340 0.56150 0.65760 0.46400
H 	H 	0.44100 0.67400 0.62740 0.47500
Co	Co	0.27081 0.37558 0.58154 1.18300
C 	C 	0.39228 0.37370 0.37220 0.17700
C 	C 	0.40805 0.15520 0.37561 0.17500
O 	O 	0.15996 0.33040 0.57740 -0.52100
O 	O 	0.25729 0.51380 0.62523 -0.46200
O 	O 	0.30269 0.77290 0.12445 -0.45000
O 	O 	0.21639 0.56150 0.00721 -0.52500
H 	H 	0.38990 0.44820 0.38810 -0.01700
C 	C 	0.38487 0.37160 0.32172 -0.31400
C 	C 	0.40187 0.15290 0.32499 -0.31700
H 	H 	0.41540 0.08230 0.39370 -0.01000
Co	Co	0.11185 0.46605 0.52687 1.17000
C 	C 	0.12623 0.23890 0.59085 0.39800
C 	C 	0.20236 0.58030 0.61794 0.40700
H 	H 	0.37670 0.44420 0.30350 0.14500
C 	C 	0.38953 0.26140 0.29793 0.31500
H 	H 	0.40600 0.07900 0.30910 0.14000
O 	O 	0.16114 0.60140 0.57616 -0.41600
O 	O 	0.08019 0.58940 0.47006 -0.42400
O 	O 	0.97217 0.51040 0.44002 -0.45800
C 	C 	0.14516 0.20720 0.64494 -0.22900
O 	O 	0.07937 0.18080 0.56174 -0.28500
C 	C 	0.18444 0.63440 0.66271 -0.23100
O 	O 	0.38429 0.26810 0.24776 -0.33900
C 	C 	0.02433 0.57320 0.43576 0.41800
C 	C 	0.11612 0.10470 0.66188 0.19900
C 	C 	0.19001 0.28250 0.67921 0.20400
C 	C 	0.12305 0.70390 0.65780 0.19000
C 	C 	0.22455 0.60810 0.71002 0.19800
C 	C 	0.37450 0.16140 0.21908 0.32600
C 	C 	0.02095 0.62880 0.38618 -0.22300
H 	H 	0.08540 0.05430 0.63920 -0.01400
C 	C 	0.13209 0.07610 0.71198 -0.31300
C 	C 	0.20583 0.25570 0.72939 -0.32700
H 	H 	0.20960 0.35180 0.66830 -0.03500
H 	H 	0.09590 0.72400 0.62620 -0.01100
C 	C 	0.10188 0.74350 0.69911 -0.31400
C 	C 	0.20456 0.64730 0.75196 -0.33100
H 	H 	0.26610 0.56280 0.71380 -0.02500
C 	C 	0.42649 0.13250 0.19543 -0.33400
C 	C 	0.31330 0.09190 0.21181 -0.32600
C 	C 	0.97434 0.58020 0.34427 0.17700
C 	C 	0.06123 0.72990 0.38125 0.20100
H 	H 	0.11300 0.00630 0.72300 0.16600
C 	C 	0.17668 0.15260 0.74520 0.33700
H 	H 	0.23580 0.30670 0.75220 0.14900
H 	H 	0.06050 0.78930 0.69540 0.16200
C 	C 	0.14290 0.71450 0.74614 0.33200
H 	H 	0.23230 0.62870 0.78350 0.15200
H 	H 	0.46780 0.17910 0.20110 0.14700
C 	C 	0.41695 0.03370 0.16315 0.19000
H 	H 	0.27820 0.11240 0.22780 0.15400
C 	C 	0.30497 0.99120 0.18045 0.19400
H 	H 	0.94640 0.51280 0.34750 -0.01900
C 	C 	0.96897 0.63120 0.29759 -0.33200
C 	C 	0.05432 0.78500 0.33565 -0.32400
H 	H 	0.09350 0.76130 0.40900 -0.01500
O 	O 	0.18907 0.12160 0.79500 -0.33300
O 	O 	0.11829 0.75940 0.78489 -0.32600
C 	C 	0.35639 0.96110 0.15606 -0.23000
H 	H 	0.45120 0.01570 0.14610 -0.02200
H 	H 	0.26420 0.94330 0.17580 -0.01900
H 	H 	0.93950 0.59610 0.26940 0.15100
C 	C 	0.00819 0.73490 0.29390 0.34700
H 	H 	0.08030 0.85520 0.33290 0.17400
C 	C 	0.25001 0.17100 0.82668 0.34500
C 	C 	0.15326 0.72730 0.83343 0.34000
C 	C 	0.34705 0.85380 0.12091 0.42900
C 	C 	0.24436 0.26170 0.85949 -0.33700
C 	C 	0.31460 0.12640 0.82428 -0.34600
C 	C 	0.19780 0.81080 0.86194 -0.32900
C 	C 	0.13800 0.61670 0.85291 -0.32900
C 	C 	0.30590 0.30590 0.89168 0.21000
H 	H 	0.20020 0.29320 0.86020 0.16100
C 	C 	0.37532 0.17060 0.85641 0.21800
H 	H 	0.31770 0.06630 0.80110 0.15600
C 	C 	0.22733 0.78500 0.91184 0.20900
H 	H 	0.20840 0.88410 0.84810 0.16800
C 	C 	0.16690 0.59180 0.90254 0.20200
H 	H 	0.10850 0.55980 0.83280 0.15500
C 	C 	0.37144 0.25890 0.89076 -0.24600
H 	H 	0.30290 0.36790 0.91410 -0.01900
H 	H 	0.41940 0.14020 0.85480 -0.03000
C 	C 	0.21118 0.67590 0.93268 -0.25600
H 	H 	0.25810 0.84110 0.93140 -0.01400
H 	H 	0.15670 0.51770 0.91590 -0.02900
C 	C 	0.43789 0.30450 0.92644 0.44000
C 	C 	0.23751 0.65340 0.98695 0.43800
Co	Co	0.50000 0.50000 -0.00000 1.20700
Co	Co	0.50000 0.50000 0.50000 1.21600
O 	O 	0.00000 0.20150 0.75000 -0.30900
O 	O 	0.00000 0.79850 0.25000 -0.30900
