data_crystal

_cell_length_a 17.99380
_cell_length_b 17.99380
_cell_length_c 22.18290
_cell_angle_alpha 90.00000
_cell_angle_beta  90.00000
_cell_angle_gamma 90.00000

_symmetry_space_group_name_	'P 1'
_symmetry_space_group_name_H-M	'P 1'

loop_
_symmetry_equiv_pos_as_xyz
  x,y,z

loop_
_atom_site_label
_atom_site_type_symbol
_atom_site_fract_x
_atom_site_fract_y
_atom_site_fract_z
_atom_site_charge
C 	C 	0.15620 0.43600 0.89550 0.07600
H 	H 	0.13970 0.39040 0.91240 0.01800
C 	C 	0.20060 0.43420 0.84420 -0.12700
C 	C 	0.21950 0.36240 0.81350 0.36300
O 	O 	0.25950 0.36800 0.76660 -0.40800
O 	O 	0.19350 0.30297 0.83493 -0.39100
C 	C 	0.65620 0.93600 0.39550 0.07900
H 	H 	0.63970 0.89040 0.41240 0.00900
C 	C 	0.70060 0.93420 0.34420 -0.12500
C 	C 	0.71950 0.86240 0.31350 0.36300
O 	O 	0.75950 0.86800 0.26660 -0.40800
O 	O 	0.69350 0.80297 0.33493 -0.39500
C 	C 	0.84380 0.56400 0.89550 0.07800
H 	H 	0.86030 0.60960 0.91240 0.02100
C 	C 	0.79940 0.56580 0.84420 -0.12500
C 	C 	0.78050 0.63760 0.81350 0.36300
O 	O 	0.74050 0.63200 0.76660 -0.40800
O 	O 	0.80650 0.69703 0.83493 -0.38900
C 	C 	0.34380 0.06400 0.39550 0.07500
H 	H 	0.36030 0.10960 0.41240 0.01000
C 	C 	0.29940 0.06580 0.34420 -0.12900
C 	C 	0.28050 0.13760 0.31350 0.36300
O 	O 	0.24050 0.13200 0.26660 -0.41000
O 	O 	0.30650 0.19703 0.33493 -0.39600
C 	C 	0.56400 0.15620 0.89550 0.07700
H 	H 	0.60960 0.13970 0.91240 0.01900
C 	C 	0.56580 0.20060 0.84420 -0.12600
C 	C 	0.63760 0.21950 0.81350 0.36300
O 	O 	0.63200 0.25950 0.76660 -0.40800
O 	O 	0.69703 0.19350 0.83493 -0.39100
C 	C 	0.06400 0.65620 0.39550 0.07500
H 	H 	0.10960 0.63970 0.41240 0.01000
C 	C 	0.06580 0.70060 0.34420 -0.12800
C 	C 	0.13760 0.71950 0.31350 0.36300
O 	O 	0.13200 0.75950 0.26660 -0.41000
O 	O 	0.19703 0.69350 0.33493 -0.39600
C 	C 	0.43600 0.84380 0.89550 0.07800
H 	H 	0.39040 0.86030 0.91240 0.02000
C 	C 	0.43420 0.79940 0.84420 -0.12500
C 	C 	0.36240 0.78050 0.81350 0.36300
O 	O 	0.36800 0.74050 0.76660 -0.40800
O 	O 	0.30297 0.80650 0.83493 -0.39000
C 	C 	0.93600 0.34380 0.39550 0.07900
H 	H 	0.89040 0.36030 0.41240 0.00900
C 	C 	0.93420 0.29940 0.34420 -0.12600
C 	C 	0.86240 0.28050 0.31350 0.36300
O 	O 	0.86800 0.24050 0.26660 -0.40800
O 	O 	0.80297 0.30650 0.33493 -0.39500
C 	C 	0.84380 0.43600 0.10450 0.07500
H 	H 	0.86030 0.39040 0.08760 0.00800
C 	C 	0.79940 0.43420 0.15580 -0.13200
C 	C 	0.78050 0.36240 0.18650 0.36400
O 	O 	0.74050 0.36800 0.23340 -0.41000
O 	O 	0.80650 0.30297 0.16507 -0.39800
C 	C 	0.34380 0.93600 0.60450 0.07900
H 	H 	0.36030 0.89040 0.58760 0.00900
C 	C 	0.29940 0.93420 0.65580 -0.12300
C 	C 	0.28050 0.86240 0.68650 0.36200
O 	O 	0.24050 0.86800 0.73340 -0.40600
O 	O 	0.30650 0.80297 0.66507 -0.39500
C 	C 	0.15620 0.56400 0.10450 0.07500
H 	H 	0.13970 0.60960 0.08760 0.00700
C 	C 	0.20060 0.56580 0.15580 -0.13200
C 	C 	0.21950 0.63760 0.18650 0.36400
O 	O 	0.25950 0.63200 0.23340 -0.41000
O 	O 	0.19350 0.69703 0.16507 -0.39800
C 	C 	0.65620 0.06400 0.60450 0.07400
H 	H 	0.63970 0.10960 0.58760 0.01000
C 	C 	0.70060 0.06580 0.65580 -0.12600
C 	C 	0.71950 0.13760 0.68650 0.36200
O 	O 	0.75950 0.13200 0.73340 -0.40700
O 	O 	0.69350 0.19703 0.66507 -0.39500
C 	C 	0.43600 0.15620 0.10450 0.07500
H 	H 	0.39040 0.13970 0.08760 0.00700
C 	C 	0.43420 0.20060 0.15580 -0.13200
C 	C 	0.36240 0.21950 0.18650 0.36400
O 	O 	0.36800 0.25950 0.23340 -0.41000
O 	O 	0.30297 0.19350 0.16507 -0.39900
C 	C 	0.93600 0.65620 0.60450 0.07900
H 	H 	0.89040 0.63970 0.58760 0.01000
C 	C 	0.93420 0.70060 0.65580 -0.12300
C 	C 	0.86240 0.71950 0.68650 0.36200
O 	O 	0.86800 0.75950 0.73340 -0.40500
O 	O 	0.80297 0.69350 0.66507 -0.39500
C 	C 	0.56400 0.84380 0.10450 0.07500
H 	H 	0.60960 0.86030 0.08760 0.00800
C 	C 	0.56580 0.79940 0.15580 -0.13200
C 	C 	0.63760 0.78050 0.18650 0.36400
O 	O 	0.63200 0.74050 0.23340 -0.41000
O 	O 	0.69703 0.80650 0.16507 -0.39800
C 	C 	0.06400 0.34380 0.60450 0.07400
H 	H 	0.10960 0.36030 0.58760 0.01000
C 	C 	0.06580 0.29940 0.65580 -0.12700
C 	C 	0.13760 0.28050 0.68650 0.36200
O 	O 	0.13200 0.24050 0.73340 -0.40800
O 	O 	0.19703 0.30650 0.66507 -0.39500
C 	C 	0.84380 0.56400 0.10450 0.07500
H 	H 	0.86030 0.60960 0.08760 0.00800
C 	C 	0.79940 0.56580 0.15580 -0.13200
C 	C 	0.78050 0.63760 0.18650 0.36400
O 	O 	0.74050 0.63200 0.23340 -0.41000
O 	O 	0.80650 0.69703 0.16507 -0.39800
C 	C 	0.34380 0.06400 0.60450 0.07400
H 	H 	0.36030 0.10960 0.58760 0.01000
C 	C 	0.29940 0.06580 0.65580 -0.12700
C 	C 	0.28050 0.13760 0.68650 0.36200
O 	O 	0.24050 0.13200 0.73340 -0.40800
O 	O 	0.30650 0.19703 0.66507 -0.39500
C 	C 	0.15620 0.43600 0.10450 0.07500
H 	H 	0.13970 0.39040 0.08760 0.00700
C 	C 	0.20060 0.43420 0.15580 -0.13200
C 	C 	0.21950 0.36240 0.18650 0.36400
O 	O 	0.25950 0.36800 0.23340 -0.41000
O 	O 	0.19350 0.30297 0.16507 -0.39900
C 	C 	0.65620 0.93600 0.60450 0.07900
H 	H 	0.63970 0.89040 0.58760 0.01000
C 	C 	0.70060 0.93420 0.65580 -0.12300
C 	C 	0.71950 0.86240 0.68650 0.36200
O 	O 	0.75950 0.86800 0.73340 -0.40500
O 	O 	0.69350 0.80297 0.66507 -0.39500
C 	C 	0.43600 0.84380 0.10450 0.07500
H 	H 	0.39040 0.86030 0.08760 0.00800
C 	C 	0.43420 0.79940 0.15580 -0.13200
C 	C 	0.36240 0.78050 0.18650 0.36400
O 	O 	0.36800 0.74050 0.23340 -0.41000
O 	O 	0.30297 0.80650 0.16507 -0.39800
C 	C 	0.93600 0.34380 0.60450 0.07900
H 	H 	0.89040 0.36030 0.58760 0.00900
C 	C 	0.93420 0.29940 0.65580 -0.12300
C 	C 	0.86240 0.28050 0.68650 0.36200
O 	O 	0.86800 0.24050 0.73340 -0.40600
O 	O 	0.80297 0.30650 0.66507 -0.39500
C 	C 	0.56400 0.15620 0.10450 0.07500
H 	H 	0.60960 0.13970 0.08760 0.00700
C 	C 	0.56580 0.20060 0.15580 -0.13200
C 	C 	0.63760 0.21950 0.18650 0.36400
O 	O 	0.63200 0.25950 0.23340 -0.41000
O 	O 	0.69703 0.19350 0.16507 -0.39800
C 	C 	0.06400 0.65620 0.60450 0.07400
H 	H 	0.10960 0.63970 0.58760 0.01000
C 	C 	0.06580 0.70060 0.65580 -0.12600
C 	C 	0.13760 0.71950 0.68650 0.36200
O 	O 	0.13200 0.75950 0.73340 -0.40700
O 	O 	0.19703 0.69350 0.66507 -0.39500
C 	C 	0.15620 0.56400 0.89550 0.07700
H 	H 	0.13970 0.60960 0.91240 0.01900
C 	C 	0.20060 0.56580 0.84420 -0.12600
C 	C 	0.21950 0.63760 0.81350 0.36300
O 	O 	0.25950 0.63200 0.76660 -0.40800
O 	O 	0.19350 0.69703 0.83493 -0.39100
C 	C 	0.65620 0.06400 0.39550 0.07500
H 	H 	0.63970 0.10960 0.41240 0.01000
C 	C 	0.70060 0.06580 0.34420 -0.12800
C 	C 	0.71950 0.13760 0.31350 0.36300
O 	O 	0.75950 0.13200 0.26660 -0.41000
O 	O 	0.69350 0.19703 0.33493 -0.39600
C 	C 	0.84380 0.43600 0.89550 0.07800
H 	H 	0.86030 0.39040 0.91240 0.02000
C 	C 	0.79940 0.43420 0.84420 -0.12500
C 	C 	0.78050 0.36240 0.81350 0.36300
O 	O 	0.74050 0.36800 0.76660 -0.40800
O 	O 	0.80650 0.30297 0.83493 -0.39000
C 	C 	0.34380 0.93600 0.39550 0.07900
H 	H 	0.36030 0.89040 0.41240 0.00900
C 	C 	0.29940 0.93420 0.34420 -0.12600
C 	C 	0.28050 0.86240 0.31350 0.36300
O 	O 	0.24050 0.86800 0.26660 -0.40800
O 	O 	0.30650 0.80297 0.33493 -0.39500
C 	C 	0.56400 0.84380 0.89550 0.07800
H 	H 	0.60960 0.86030 0.91240 0.02100
C 	C 	0.56580 0.79940 0.84420 -0.12500
C 	C 	0.63760 0.78050 0.81350 0.36300
O 	O 	0.63200 0.74050 0.76660 -0.40800
O 	O 	0.69703 0.80650 0.83493 -0.38900
C 	C 	0.06400 0.34380 0.39550 0.07500
H 	H 	0.10960 0.36030 0.41240 0.01000
C 	C 	0.06580 0.29940 0.34420 -0.12900
C 	C 	0.13760 0.28050 0.31350 0.36300
O 	O 	0.13200 0.24050 0.26660 -0.41000
O 	O 	0.19703 0.30650 0.33493 -0.39600
C 	C 	0.43600 0.15620 0.89550 0.07700
H 	H 	0.39040 0.13970 0.91240 0.01900
C 	C 	0.43420 0.20060 0.84420 -0.12600
C 	C 	0.36240 0.21950 0.81350 0.36300
O 	O 	0.36800 0.25950 0.76660 -0.40800
O 	O 	0.30297 0.19350 0.83493 -0.39100
C 	C 	0.93600 0.65620 0.39550 0.07900
H 	H 	0.89040 0.63970 0.41240 0.00900
C 	C 	0.93420 0.70060 0.34420 -0.12500
C 	C 	0.86240 0.71950 0.31350 0.36300
O 	O 	0.86800 0.75950 0.26660 -0.40800
O 	O 	0.80297 0.69350 0.33493 -0.39500
C 	C 	0.22320 0.50000 0.81900 0.07400
H 	H 	0.25420 0.50000 0.78430 0.04000
N 	N 	0.13570 0.50000 0.92190 -0.22800
C 	C 	0.72320 -0.00000 0.31900 0.06900
H 	H 	0.75420 -0.00000 0.28430 0.03900
N 	N 	0.63570 0.00000 0.42190 -0.24100
C 	C 	0.77680 0.50000 0.81900 0.07400
H 	H 	0.74580 0.50000 0.78430 0.04000
N 	N 	0.86430 0.50000 0.92190 -0.22700
C 	C 	0.27680 -0.00000 0.31900 0.06900
H 	H 	0.24580 -0.00000 0.28430 0.03900
N 	N 	0.36430 0.00000 0.42190 -0.24100
C 	C 	0.50000 0.22320 0.81900 0.07400
H 	H 	0.50000 0.25420 0.78430 0.04000
N 	N 	0.50000 0.13570 0.92190 -0.22800
C 	C 	-0.00000 0.72320 0.31900 0.06900
H 	H 	0.00000 0.75420 0.28430 0.03900
N 	N 	-0.00000 0.63570 0.42190 -0.24100
C 	C 	0.50000 0.77680 0.81900 0.07400
H 	H 	0.50000 0.74580 0.78430 0.04000
N 	N 	0.50000 0.86430 0.92190 -0.22700
C 	C 	-0.00000 0.27680 0.31900 0.06900
H 	H 	0.00000 0.24580 0.28430 0.03900
N 	N 	-0.00000 0.36430 0.42190 -0.24100
C 	C 	0.77680 0.50000 0.18100 0.07600
H 	H 	0.74580 0.50000 0.21570 0.03800
N 	N 	0.86430 0.50000 0.07810 -0.24100
C 	C 	0.27680 0.00000 0.68100 0.06700
H 	H 	0.24580 -0.00000 0.71570 0.04100
N 	N 	0.36430 0.00000 0.57810 -0.24100
C 	C 	0.22320 0.50000 0.18100 0.07600
H 	H 	0.25420 0.50000 0.21570 0.03800
N 	N 	0.13570 0.50000 0.07810 -0.24100
C 	C 	0.72320 0.00000 0.68100 0.06600
H 	H 	0.75420 -0.00000 0.71570 0.04200
N 	N 	0.63570 0.00000 0.57810 -0.24100
C 	C 	0.50000 0.22320 0.18100 0.07600
H 	H 	0.50000 0.25420 0.21570 0.03800
N 	N 	0.50000 0.13570 0.07810 -0.24100
C 	C 	-0.00000 0.72320 0.68100 0.06600
H 	H 	-0.00000 0.75420 0.71570 0.04200
N 	N 	-0.00000 0.63570 0.57810 -0.24100
C 	C 	0.50000 0.77680 0.18100 0.07600
H 	H 	0.50000 0.74580 0.21570 0.03800
N 	N 	0.50000 0.86430 0.07810 -0.24100
C 	C 	-0.00000 0.27680 0.68100 0.06700
H 	H 	-0.00000 0.24580 0.71570 0.04100
N 	N 	0.00000 0.36430 0.57810 -0.24100
Cu	Cu	0.28957 0.28957 0.71055 0.90600
Cu	Cu	0.78957 0.78957 0.21055 0.90500
Cu	Cu	0.71043 0.71043 0.71055 0.90600
Cu	Cu	0.21043 0.21043 0.21055 0.90500
Cu	Cu	0.71043 0.28957 0.71055 0.90600
Cu	Cu	0.21043 0.78957 0.21055 0.90500
Cu	Cu	0.28957 0.71043 0.71055 0.90600
Cu	Cu	0.78957 0.21043 0.21055 0.90500
Cu	Cu	0.71043 0.28957 0.28945 0.90600
Cu	Cu	0.21043 0.78957 0.78945 0.90700
Cu	Cu	0.28957 0.71043 0.28945 0.90600
Cu	Cu	0.78957 0.21043 0.78945 0.90700
Cu	Cu	0.28957 0.28957 0.28945 0.90600
Cu	Cu	0.78957 0.78957 0.78945 0.90800
Cu	Cu	0.71043 0.71043 0.28945 0.90600
Cu	Cu	0.21043 0.21043 0.78945 0.90700
Cu	Cu	0.07404 0.50000 -0.00000 0.79500
Cu	Cu	0.57404 -0.00000 0.50000 0.80100
Cu	Cu	0.92596 0.50000 -0.00000 0.79600
Cu	Cu	0.42596 -0.00000 0.50000 0.80100
Cu	Cu	0.50000 0.07404 -0.00000 0.79500
Cu	Cu	-0.00000 0.57404 0.50000 0.80100
Cu	Cu	0.50000 0.92596 -0.00000 0.79600
Cu	Cu	-0.00000 0.42596 0.50000 0.80100
I 	I 	-0.00000 0.37304 -0.00000 -0.45700
I 	I 	0.50000 0.87304 0.50000 -0.42000
I 	I 	-0.00000 0.62696 -0.00000 -0.45600
I 	I 	0.50000 0.12696 0.50000 -0.42500
I 	I 	0.62696 0.00000 -0.00000 -0.45600
I 	I 	0.12696 0.50000 0.50000 -0.42500
I 	I 	0.37304 0.00000 -0.00000 -0.45700
I 	I 	0.87304 0.50000 0.50000 -0.42000
