data_crystal

_cell_length_a 8.95900
_cell_length_b 10.06920
_cell_length_c 10.12050
_cell_angle_alpha 119.75000
_cell_angle_beta  116.18200
_cell_angle_gamma 90.16110

_symmetry_space_group_name_	'P 1'
_symmetry_space_group_name_H-M	'P 1'

loop_
_symmetry_equiv_pos_as_xyz
  x,y,z

loop_
_atom_site_label
_atom_site_type_symbol
_atom_site_fract_x
_atom_site_fract_y
_atom_site_fract_z
_atom_site_charge
Zn	Zn	0.16937 0.83602 0.27434 1.15400
Zn	Zn	0.39503 0.56168 0.72566 1.17800
H 	H 	0.50040 0.10790 0.65760 0.17200
H 	H 	0.54670 0.28490 0.77480 0.16300
H 	H 	0.70580 0.87050 0.89740 0.12700
H 	H 	0.88780 0.94680 0.04920 0.13400
H 	H 	0.34280 0.45030 0.34240 0.14100
H 	H 	0.27190 0.51010 0.22520 0.14400
H 	H 	0.30840 0.97310 0.10260 0.09900
H 	H 	0.33860 0.89760 0.95080 0.12300
C 	C 	0.34140 0.19800 0.54460 0.21900
C 	C 	0.78300 0.75060 0.00060 0.20600
C 	C 	0.29680 0.65340 0.45540 0.19300
C 	C 	0.28240 0.75000 0.99940 0.19400
N 	N 	0.47980 0.19680 0.67500 -0.35000
N 	N 	0.30910 0.33010 0.54820 -0.27900
N 	N 	0.17840 0.27610 0.38280 -0.08200
N 	N 	0.12970 0.12470 0.29160 -0.07800
N 	N 	0.23200 0.06950 0.38780 -0.26100
N 	N 	0.79340 0.87000 0.98000 -0.33800
N 	N 	0.91290 0.73920 0.12200 -0.25600
N 	N 	0.84670 0.60380 0.10660 -0.06000
N 	N 	0.69240 0.53690 0.97480 -0.07300
N 	N 	0.64590 0.62520 0.90360 -0.27300
N 	N 	0.30480 0.52180 0.32500 -0.34300
N 	N 	0.26090 0.78190 0.45180 -0.29300
N 	N 	0.29560 0.89330 0.61720 -0.10800
N 	N 	0.33810 0.83310 0.70840 -0.09900
N 	N 	0.34420 0.68170 0.61220 -0.28500
N 	N 	0.31340 0.89000 0.02000 -0.34100
N 	N 	0.29090 0.61720 0.87800 -0.27400
N 	N 	0.24010 0.49720 0.89340 -0.07700
N 	N 	0.21760 0.56210 0.02520 -0.08800
N 	N 	0.24230 0.72160 0.09640 -0.28900
