data_crystal

_cell_length_a 9.81200
_cell_length_b 25.79300
_cell_length_c 11.77700
_cell_angle_alpha 90.00000
_cell_angle_beta  104.68000
_cell_angle_gamma 90.00000

_symmetry_space_group_name_	'P 1'
_symmetry_space_group_name_H-M	'P 1'

loop_
_symmetry_equiv_pos_as_xyz
  x,y,z

loop_
_atom_site_label
_atom_site_type_symbol
_atom_site_fract_x
_atom_site_fract_y
_atom_site_fract_z
_atom_site_charge
Y 	Y 	0.20567 0.10155 0.29793 2.28400
Fe	Fe	0.32022 0.89422 0.33805 1.18500
O 	O 	0.50970 0.90520 0.19880 -0.15800
N 	N 	0.43380 0.89950 0.25470 -0.26300
N 	N 	0.26770 0.01150 0.33760 -0.38400
N 	N 	0.56140 0.89600 0.56410 -0.36700
N 	N 	0.30850 0.77440 0.34000 -0.15200
N 	N 	0.05690 0.88680 0.13360 -0.15000
C 	C 	0.29100 0.96770 0.34040 -0.23500
C 	C 	0.46840 0.89580 0.48250 -0.21900
C 	C 	0.31740 0.81860 0.34210 -0.22500
C 	C 	0.15550 0.89010 0.21040 -0.25800
N 	N 	0.02160 0.16920 0.27180 -0.39000
C 	C 	0.96810 0.20200 0.31290 -0.25400
Rb	Rb	0.54450 0.72278 0.51481 0.62900
Fe	Fe	0.11229 0.74474 0.61109 1.18700
O 	O 	0.01780 0.78690 0.38770 -0.13500
N 	N 	0.06170 0.77140 0.47870 -0.26400
N 	N 	0.24510 0.65090 0.51780 -0.17700
N 	N 	0.83420 0.68410 0.55170 -0.12900
C 	C 	0.19630 0.68480 0.55520 -0.23100
C 	C 	0.93640 0.70650 0.57830 -0.22500
N 	N 	0.10740 0.89360 0.49110 -0.13500
C 	C 	0.18900 0.89290 0.43580 -0.22700
N 	N 	0.40810 0.79440 0.68550 -0.13700
C 	C 	0.29910 0.77690 0.65930 -0.23200
N 	N 	0.68430 0.80880 0.35320 -0.12800
C 	C 	0.65900 0.78890 0.26440 -0.21200
Y 	Y 	0.29433 0.60155 0.20207 2.28500
Fe	Fe	0.17978 0.39422 0.16195 1.18600
O 	O 	0.99030 0.40520 0.30120 -0.15700
N 	N 	0.06620 0.39950 0.24530 -0.26400
N 	N 	0.23230 0.51150 0.16240 -0.38400
N 	N 	0.93860 0.39600 0.93590 -0.36900
N 	N 	0.19150 0.27440 0.16000 -0.15200
N 	N 	0.44310 0.38680 0.36640 -0.14900
C 	C 	0.20900 0.46770 0.15960 -0.23500
C 	C 	0.03160 0.39580 0.01750 -0.21900
C 	C 	0.18260 0.31860 0.15790 -0.22500
C 	C 	0.34450 0.39010 0.28960 -0.25700
N 	N 	0.47840 0.66920 0.22820 -0.38900
C 	C 	0.53190 0.70200 0.18710 -0.25600
Rb	Rb	0.95550 0.22278 0.98519 0.62800
Fe	Fe	0.38771 0.24474 0.88891 1.18700
O 	O 	0.48220 0.28690 0.11230 -0.13400
N 	N 	0.43830 0.27140 0.02130 -0.26400
N 	N 	0.25490 0.15090 0.98220 -0.17600
N 	N 	0.66580 0.18410 0.94830 -0.13000
C 	C 	0.30370 0.18480 0.94480 -0.23000
C 	C 	0.56360 0.20650 0.92170 -0.22500
N 	N 	0.39260 0.39360 0.00890 -0.13500
C 	C 	0.31100 0.39290 0.06420 -0.22700
N 	N 	0.09190 0.29440 0.81450 -0.13600
C 	C 	0.20090 0.27690 0.84070 -0.23200
N 	N 	0.81570 0.30880 0.14680 -0.12800
C 	C 	0.84100 0.28890 0.23560 -0.21200
Y 	Y 	0.79433 0.89845 0.70207 2.28500
Fe	Fe	0.67978 0.10578 0.66195 1.18600
O 	O 	0.49030 0.09480 0.80120 -0.15800
N 	N 	0.56620 0.10050 0.74530 -0.26300
N 	N 	0.73230 0.98850 0.66240 -0.38400
N 	N 	0.43860 0.10400 0.43590 -0.36700
N 	N 	0.69150 0.22560 0.66000 -0.15200
N 	N 	0.94310 0.11320 0.86640 -0.15000
C 	C 	0.70900 0.03230 0.65960 -0.23500
C 	C 	0.53160 0.10420 0.51750 -0.21900
C 	C 	0.68260 0.18140 0.65790 -0.22500
C 	C 	0.84450 0.10990 0.78960 -0.25800
N 	N 	0.97840 0.83080 0.72820 -0.39000
C 	C 	0.03190 0.79800 0.68710 -0.25400
Rb	Rb	0.45550 0.27722 0.48519 0.62900
Fe	Fe	0.88771 0.25526 0.38891 1.18700
O 	O 	0.98220 0.21310 0.61230 -0.13500
N 	N 	0.93830 0.22860 0.52130 -0.26400
N 	N 	0.75490 0.34910 0.48220 -0.17700
N 	N 	0.16580 0.31590 0.44830 -0.12900
C 	C 	0.80370 0.31520 0.44480 -0.23100
C 	C 	0.06360 0.29350 0.42170 -0.22500
N 	N 	0.89260 0.10640 0.50890 -0.13500
C 	C 	0.81100 0.10710 0.56420 -0.22700
N 	N 	0.59190 0.20560 0.31450 -0.13700
C 	C 	0.70090 0.22310 0.34070 -0.23200
N 	N 	0.31570 0.19120 0.64680 -0.12800
C 	C 	0.34100 0.21110 0.73560 -0.21200
Y 	Y 	0.70567 0.39845 0.79793 2.28500
Fe	Fe	0.82022 0.60578 0.83805 1.18600
O 	O 	0.00970 0.59480 0.69880 -0.15700
N 	N 	0.93380 0.60050 0.75470 -0.26400
N 	N 	0.76770 0.48850 0.83760 -0.38400
N 	N 	0.06140 0.60400 0.06410 -0.36900
N 	N 	0.80850 0.72560 0.84000 -0.15200
N 	N 	0.55690 0.61320 0.63360 -0.14900
C 	C 	0.79100 0.53230 0.84040 -0.23500
C 	C 	0.96840 0.60420 0.98250 -0.21900
C 	C 	0.81740 0.68140 0.84210 -0.22500
C 	C 	0.65550 0.60990 0.71040 -0.25700
N 	N 	0.52160 0.33080 0.77180 -0.38900
C 	C 	0.46810 0.29800 0.81290 -0.25600
Rb	Rb	0.04450 0.77722 0.01481 0.62800
Fe	Fe	0.61229 0.75526 0.11109 1.18700
O 	O 	0.51780 0.71310 0.88770 -0.13400
N 	N 	0.56170 0.72860 0.97870 -0.26400
N 	N 	0.74510 0.84910 0.01780 -0.17600
N 	N 	0.33420 0.81590 0.05170 -0.13000
C 	C 	0.69630 0.81520 0.05520 -0.23000
C 	C 	0.43640 0.79350 0.07830 -0.22500
N 	N 	0.60740 0.60640 0.99110 -0.13500
C 	C 	0.68900 0.60710 0.93580 -0.22700
N 	N 	0.90810 0.70560 0.18550 -0.13600
C 	C 	0.79910 0.72310 0.15930 -0.23200
N 	N 	0.18430 0.69120 0.85320 -0.12800
C 	C 	0.15900 0.71110 0.76440 -0.21200
