data_crystal

_cell_length_a 9.78400
_cell_length_b 10.59340
_cell_length_c 13.94560
_cell_angle_alpha 95.60600
_cell_angle_beta  105.39900
_cell_angle_gamma 100.40200

_symmetry_space_group_name_	'P 1'
_symmetry_space_group_name_H-M	'P 1'

loop_
_symmetry_equiv_pos_as_xyz
  x,y,z

loop_
_atom_site_label
_atom_site_type_symbol
_atom_site_fract_x
_atom_site_fract_y
_atom_site_fract_z
_atom_site_charge
Nd	Nd	0.24259 0.01418 0.96855 2.04900
Nd	Nd	0.13877 0.55399 0.63880 2.06000
O 	O 	0.62200 0.02910 0.86710 -0.45100
O 	O 	0.85300 0.12830 0.90090 -0.37300
O 	O 	0.79330 0.21260 0.71450 -0.16600
O 	O 	0.94270 0.38410 0.63270 -0.52500
O 	O 	0.77130 0.32880 0.48250 -0.52100
O 	O 	0.24240 0.40290 0.76230 -0.38800
O 	O 	0.37090 0.60250 0.77440 -0.44600
O 	O 	0.46190 0.34390 0.90400 -0.19800
O 	O 	0.47760 0.15000 0.01600 -0.55000
O 	O 	0.71930 0.20580 0.06540 -0.50600
O 	O 	0.92080 0.60480 0.52810 -0.59900
O 	O 	0.69450 0.56820 0.43020 -0.41200
O 	O 	0.85510 0.74130 0.67700 -0.20600
O 	O 	0.83880 0.85760 0.91960 -0.55200
O 	O 	0.02130 0.89100 0.85020 -0.54300
C 	C 	0.72480 0.09510 0.84200 0.28600
C 	C 	0.68980 0.12960 0.73900 0.03900
C 	C 	0.57030 0.09010 0.66110 -0.06300
H 	H 	0.48570 0.03240 0.65950 0.04400
C 	C 	0.59810 0.15430 0.58060 -0.01400
H 	H 	0.53540 0.14690 0.51620 0.03900
C 	C 	0.73330 0.22740 0.61680 -0.02600
C 	C 	0.82330 0.32050 0.57330 0.44800
C 	C 	0.35840 0.48950 0.79720 0.27000
C 	C 	0.48450 0.45960 0.86870 0.06400
C 	C 	0.62440 0.52300 0.90710 -0.08100
H 	H 	0.66610 0.60330 0.89440 0.06400
C 	C 	0.69520 0.44400 0.97010 0.01500
H 	H 	0.79270 0.46160 0.00680 0.02000
C 	C 	0.59220 0.33630 0.96650 -0.04000
C 	C 	0.59540 0.22390 0.02010 0.43800
C 	C 	0.78820 0.61370 0.51200 0.35300
C 	C 	0.74310 0.67530 0.59540 0.01100
C 	C 	0.61390 0.67160 0.61380 -0.05800
H 	H 	0.52270 0.63290 0.57030 0.06400
C 	C 	0.64560 0.73940 0.71350 -0.00300
H 	H 	0.57850 0.75350 0.74760 0.03400
C 	C 	0.79140 0.77910 0.74890 -0.04200
C 	C 	0.89160 0.84900 0.84630 0.46300
Nd	Nd	0.75741 0.98582 0.03145 2.05000
Nd	Nd	0.86123 0.44601 0.36120 2.06100
O 	O 	0.37800 0.97090 0.13290 -0.45000
O 	O 	0.14700 0.87170 0.09910 -0.37200
O 	O 	0.20670 0.78740 0.28550 -0.16600
O 	O 	0.05730 0.61590 0.36730 -0.52500
O 	O 	0.22870 0.67120 0.51750 -0.52100
O 	O 	0.75760 0.59710 0.23770 -0.38800
O 	O 	0.62910 0.39750 0.22560 -0.44600
O 	O 	0.53810 0.65610 0.09600 -0.19800
O 	O 	0.52240 0.85000 0.98400 -0.55000
O 	O 	0.28070 0.79420 0.93460 -0.50600
O 	O 	0.07920 0.39520 0.47190 -0.59900
O 	O 	0.30550 0.43180 0.56980 -0.41200
O 	O 	0.14490 0.25870 0.32300 -0.20600
O 	O 	0.16120 0.14240 0.08040 -0.55200
O 	O 	0.97870 0.10900 0.14980 -0.54300
C 	C 	0.27520 0.90490 0.15800 0.28600
C 	C 	0.31020 0.87040 0.26100 0.03900
C 	C 	0.42970 0.90990 0.33890 -0.06300
H 	H 	0.51430 0.96760 0.34050 0.04400
C 	C 	0.40190 0.84570 0.41940 -0.01400
H 	H 	0.46460 0.85310 0.48380 0.03900
C 	C 	0.26670 0.77260 0.38320 -0.02600
C 	C 	0.17670 0.67950 0.42670 0.44800
C 	C 	0.64160 0.51050 0.20280 0.27000
C 	C 	0.51550 0.54040 0.13130 0.06400
C 	C 	0.37560 0.47700 0.09290 -0.08100
H 	H 	0.33390 0.39670 0.10560 0.06400
C 	C 	0.30480 0.55600 0.02990 0.01500
H 	H 	0.20730 0.53840 0.99320 0.02000
C 	C 	0.40780 0.66370 0.03350 -0.04000
C 	C 	0.40460 0.77610 0.97990 0.43800
C 	C 	0.21180 0.38630 0.48800 0.35300
C 	C 	0.25690 0.32470 0.40460 0.01100
C 	C 	0.38610 0.32840 0.38620 -0.05800
H 	H 	0.47730 0.36710 0.42970 0.06400
C 	C 	0.35440 0.26060 0.28650 -0.00300
H 	H 	0.42150 0.24650 0.25240 0.03400
C 	C 	0.20860 0.22090 0.25110 -0.04200
C 	C 	0.10840 0.15100 0.15370 0.46300
