data_crystal

_cell_length_a 15.50740
_cell_length_b 13.29800
_cell_length_c 10.65530
_cell_angle_alpha 90.00000
_cell_angle_beta  103.13100
_cell_angle_gamma 90.00000

_symmetry_space_group_name_	'P 1'
_symmetry_space_group_name_H-M	'P 1'

loop_
_symmetry_equiv_pos_as_xyz
  x,y,z

loop_
_atom_site_label
_atom_site_type_symbol
_atom_site_fract_x
_atom_site_fract_y
_atom_site_fract_z
_atom_site_charge
In	In	0.37553 0.66421 0.48304 2.00400
In	In	0.12045 0.66708 0.50012 2.00300
O 	O 	0.33310 0.63560 0.27260 -0.41200
O 	O 	0.33770 0.69870 0.08060 -0.41300
O 	O 	0.41810 0.79750 0.38550 -0.39700
O 	O 	0.42710 0.85780 0.19400 -0.40500
O 	O 	0.07700 0.80010 0.59910 -0.39500
O 	O 	0.06190 0.85270 0.79170 -0.40800
O 	O 	0.16930 0.64080 0.70900 -0.41900
O 	O 	0.15930 0.69650 0.90120 -0.40900
O 	O 	0.51420 0.62940 0.48520 -0.40800
O 	O 	0.61330 0.50630 0.51110 -0.36700
O 	O 	0.98440 0.62960 0.51240 -0.40800
O 	O 	0.88930 0.50450 0.50390 -0.36900
O 	O 	0.24660 0.61930 0.48540 -0.63600
C 	C 	0.35370 0.70150 0.20040 0.22400
C 	C 	0.40380 0.79390 0.26630 0.24300
C 	C 	0.08970 0.79360 0.71770 0.24100
C 	C 	0.14450 0.70260 0.78250 0.22700
C 	C 	0.53700 0.53880 0.49930 0.24600
C 	C 	0.96280 0.53830 0.50520 0.25200
In	In	0.62447 0.16421 0.01696 2.00500
In	In	0.87955 0.16708 0.99988 2.00200
O 	O 	0.66690 0.13560 0.22740 -0.41200
O 	O 	0.66230 0.19870 0.41940 -0.41300
O 	O 	0.58190 0.29750 0.11450 -0.39400
O 	O 	0.57290 0.35780 0.30600 -0.40300
O 	O 	0.92300 0.30010 0.90090 -0.39700
O 	O 	0.93810 0.35270 0.70830 -0.40700
O 	O 	0.83070 0.14080 0.79100 -0.42400
O 	O 	0.84070 0.19650 0.59880 -0.41300
O 	O 	0.48580 0.12940 0.01480 -0.40700
O 	O 	0.38670 0.00630 0.98890 -0.36200
O 	O 	0.01560 0.12960 0.98760 -0.40200
O 	O 	0.11070 0.00450 0.99610 -0.36400
O 	O 	0.75340 0.11930 0.01460 -0.63500
C 	C 	0.64630 0.20150 0.29960 0.22400
C 	C 	0.59620 0.29390 0.23370 0.24200
C 	C 	0.91030 0.29360 0.78230 0.23900
C 	C 	0.85550 0.20260 0.71750 0.22700
C 	C 	0.46300 0.03880 0.00070 0.24200
C 	C 	0.03720 0.03830 0.99480 0.25500
In	In	0.62447 0.33579 0.51696 2.00500
In	In	0.87955 0.33292 0.49988 2.00400
O 	O 	0.66690 0.36440 0.72740 -0.41100
O 	O 	0.66230 0.30130 0.91940 -0.41200
O 	O 	0.58190 0.20250 0.61450 -0.39600
O 	O 	0.57290 0.14220 0.80600 -0.40400
O 	O 	0.92300 0.19990 0.40090 -0.39500
O 	O 	0.93810 0.14730 0.20830 -0.40800
O 	O 	0.83070 0.35920 0.29100 -0.41900
O 	O 	0.84070 0.30350 0.09880 -0.40900
O 	O 	0.48580 0.37060 0.51480 -0.40800
O 	O 	0.38670 0.49370 0.48890 -0.36700
O 	O 	0.01560 0.37040 0.48760 -0.40800
O 	O 	0.11070 0.49550 0.49610 -0.36900
O 	O 	0.75340 0.38070 0.51460 -0.63600
C 	C 	0.64630 0.29850 0.79960 0.22400
C 	C 	0.59620 0.20610 0.73370 0.24300
C 	C 	0.91030 0.20640 0.28230 0.24100
C 	C 	0.85550 0.29740 0.21750 0.22700
C 	C 	0.46300 0.46120 0.50070 0.24600
C 	C 	0.03720 0.46170 0.49480 0.25200
In	In	0.37553 0.83579 0.98304 2.00500
In	In	0.12045 0.83292 0.00012 2.00200
O 	O 	0.33310 0.86440 0.77260 -0.41200
O 	O 	0.33770 0.80130 0.58060 -0.41300
O 	O 	0.41810 0.70250 0.88550 -0.39400
O 	O 	0.42710 0.64220 0.69400 -0.40300
O 	O 	0.07700 0.69990 0.09910 -0.39700
O 	O 	0.06190 0.64730 0.29170 -0.40700
O 	O 	0.16930 0.85920 0.20900 -0.42400
O 	O 	0.15930 0.80350 0.40120 -0.41300
O 	O 	0.51420 0.87060 0.98520 -0.40700
O 	O 	0.61330 0.99370 0.01110 -0.36200
O 	O 	0.98440 0.87040 0.01240 -0.40200
O 	O 	0.88930 0.99550 0.00390 -0.36400
O 	O 	0.24660 0.88070 0.98540 -0.63500
C 	C 	0.35370 0.79850 0.70040 0.22400
C 	C 	0.40380 0.70610 0.76630 0.24200
C 	C 	0.08970 0.70640 0.21770 0.23900
C 	C 	0.14450 0.79740 0.28250 0.22700
C 	C 	0.53700 0.96120 0.99930 0.24200
C 	C 	0.96280 0.96170 0.00520 0.25500
