data_crystal

_cell_length_a 14.40990
_cell_length_b 14.40990
_cell_length_c 33.22200
_cell_angle_alpha 90.00000
_cell_angle_beta  90.00000
_cell_angle_gamma 120.00000

_symmetry_space_group_name_	'P 1'
_symmetry_space_group_name_H-M	'P 1'

loop_
_symmetry_equiv_pos_as_xyz
  x,y,z

loop_
_atom_site_label
_atom_site_type_symbol
_atom_site_fract_x
_atom_site_fract_y
_atom_site_fract_z
_atom_site_charge
Cu	Cu	0.06718 0.15424 0.81192 0.86400
O 	O 	0.08970 0.19620 0.75370 -0.36400
O 	O 	0.06530 0.14730 0.87134 -0.55900
O 	O 	0.12200 0.24370 0.92765 -0.40000
O 	O 	0.21160 0.42240 0.61293 -0.38400
O 	O 	0.25270 0.51970 0.66910 -0.54600
O 	O 	0.22750 0.46990 0.78700 -0.36400
N 	N 	0.14000 0.30720 0.82210 -0.19100
N 	N 	0.16740 0.35920 0.71870 -0.21500
C 	C 	0.11360 0.23770 0.88970 0.36800
C 	C 	0.15740 0.34150 0.86380 -0.39200
H 	H 	0.23650 0.38480 0.86830 0.11800
C 	C 	0.10670 0.41250 0.87680 0.77400
C 	C 	0.17190 0.36680 0.78960 0.07100
C 	C 	0.98890 0.35520 0.86710 -1.07800
H 	H 	0.95840 0.39970 0.87520 0.30100
H 	H 	0.95270 0.28690 0.88160 0.31600
H 	H 	0.97890 0.34160 0.83810 0.30600
C 	C 	0.16720 0.50900 0.88960 -1.47200
H 	H 	0.12290 0.54030 0.89670 0.40900
H 	H 	0.21780 0.55170 0.86840 0.41800
H 	H 	0.20690 0.50750 0.91330 0.40600
C 	C 	0.20900 0.42830 0.65060 0.32800
C 	C 	0.14910 0.32330 0.67580 -0.21700
H 	H 	0.18430 0.27960 0.67090 0.07700
C 	C 	0.02880 0.25540 0.66310 0.26400
C 	C 	0.13770 0.30040 0.75060 0.09000
C 	C 	0.96690 0.31230 0.67360 -0.52100
H 	H 	0.01250 0.38940 0.66880 0.14500
H 	H 	0.94570 0.29980 0.70200 0.15100
H 	H 	0.90280 0.28430 0.65670 0.14300
C 	C 	0.96900 0.14000 0.66630 -0.60900
H 	H 	0.89650 0.11280 0.65690 0.18100
H 	H 	0.96910 0.11930 0.69450 0.20600
H 	H 	0.00490 0.11000 0.64970 0.16000
Cu	Cu	0.24729 0.51227 0.72848 0.86600
Cu	Cu	0.73385 0.48757 0.14525 0.86700
O 	O 	0.75637 0.52953 0.08703 -0.36000
O 	O 	0.73197 0.48063 0.20467 -0.56000
O 	O 	0.78867 0.57703 0.26098 -0.39900
O 	O 	0.87827 0.75573 0.94626 -0.36800
O 	O 	0.91937 0.85303 0.00243 -0.50800
O 	O 	0.89417 0.80323 0.12033 -0.35800
N 	N 	0.80667 0.64053 0.15543 -0.18700
N 	N 	0.83407 0.69253 0.05203 -0.21600
C 	C 	0.78027 0.57103 0.22303 0.37400
C 	C 	0.82407 0.67483 0.19713 -0.40900
H 	H 	0.90317 0.71813 0.20163 0.12600
C 	C 	0.77337 0.74583 0.21013 0.82500
C 	C 	0.83857 0.70013 0.12293 0.07100
C 	C 	0.65557 0.68853 0.20043 -1.13800
H 	H 	0.62507 0.73303 0.20853 0.31700
H 	H 	0.61937 0.62023 0.21493 0.33100
H 	H 	0.64557 0.67493 0.17143 0.32100
C 	C 	0.83387 0.84233 0.22293 -1.55500
H 	H 	0.78957 0.87363 0.23003 0.43700
H 	H 	0.88447 0.88503 0.20173 0.44700
H 	H 	0.87357 0.84083 0.24663 0.43300
C 	C 	0.87567 0.76163 0.98393 0.28100
C 	C 	0.81577 0.65663 0.00913 -0.18100
H 	H 	0.85097 0.61293 0.00423 0.07900
C 	C 	0.69547 0.58873 0.99643 0.25700
C 	C 	0.80437 0.63373 0.08393 0.09500
C 	C 	0.63357 0.64563 0.00693 -0.47300
H 	H 	0.67917 0.72273 0.00213 0.14600
H 	H 	0.61237 0.63313 0.03533 0.14000
H 	H 	0.56947 0.61763 0.99003 0.11500
C 	C 	0.63567 0.47333 0.99963 -0.70900
H 	H 	0.56317 0.44613 0.99023 0.20500
H 	H 	0.63577 0.45263 0.02783 0.24500
H 	H 	0.67157 0.44333 0.98303 0.19100
Cu	Cu	0.91396 0.84560 0.06181 0.87100
Cu	Cu	0.40051 0.82091 0.47859 0.86700
O 	O 	0.42303 0.86287 0.42037 -0.36500
O 	O 	0.39863 0.81397 0.53801 -0.56200
O 	O 	0.45533 0.91037 0.59432 -0.40000
O 	O 	0.54493 0.08907 0.27960 -0.38600
O 	O 	0.58603 0.18637 0.33577 -0.54500
O 	O 	0.56083 0.13657 0.45367 -0.36100
N 	N 	0.47333 0.97387 0.48877 -0.17900
N 	N 	0.50073 0.02587 0.38537 -0.22400
C 	C 	0.44693 0.90437 0.55637 0.38000
C 	C 	0.49073 0.00817 0.53047 -0.41900
H 	H 	0.56983 0.05147 0.53497 0.12400
C 	C 	0.44003 0.07917 0.54347 0.82300
C 	C 	0.50523 0.03347 0.45627 0.05500
C 	C 	0.32223 0.02187 0.53377 -1.14900
H 	H 	0.29173 0.06637 0.54187 0.31600
H 	H 	0.28603 0.95357 0.54827 0.33700
H 	H 	0.31223 0.00827 0.50477 0.32000
C 	C 	0.50053 0.17567 0.55627 -1.54300
H 	H 	0.45623 0.20697 0.56337 0.43000
H 	H 	0.55113 0.21837 0.53507 0.43900
H 	H 	0.54023 0.17417 0.57997 0.42600
C 	C 	0.54233 0.09497 0.31727 0.32200
C 	C 	0.48243 0.98997 0.34247 -0.21700
H 	H 	0.51763 0.94627 0.33757 0.08100
C 	C 	0.36213 0.92207 0.32977 0.31000
C 	C 	0.47103 0.96707 0.41727 0.10700
C 	C 	0.30023 0.97897 0.34027 -0.57000
H 	H 	0.34583 0.05607 0.33547 0.15800
H 	H 	0.27903 0.96647 0.36867 0.16400
H 	H 	0.23613 0.95097 0.32337 0.15900
C 	C 	0.30233 0.80667 0.33297 -0.69500
H 	H 	0.22983 0.77947 0.32357 0.20700
H 	H 	0.30243 0.78597 0.36117 0.22800
H 	H 	0.33823 0.77667 0.31637 0.19200
Cu	Cu	0.58062 0.17894 0.39515 0.86500
Cu	Cu	0.84576 0.91294 0.81192 0.87100
O 	O 	0.80380 0.89350 0.75370 -0.35700
O 	O 	0.85270 0.91800 0.87134 -0.54900
O 	O 	0.75630 0.87830 0.92765 -0.39500
O 	O 	0.57760 0.78920 0.61293 -0.38600
O 	O 	0.48030 0.73300 0.66910 -0.54700
O 	O 	0.53010 0.75760 0.78700 -0.36400
N 	N 	0.69280 0.83280 0.82210 -0.18800
N 	N 	0.64080 0.80820 0.71870 -0.21100
C 	C 	0.76230 0.87590 0.88970 0.37100
C 	C 	0.65850 0.81590 0.86380 -0.40100
H 	H 	0.61520 0.85170 0.86830 0.12200
C 	C 	0.58750 0.69420 0.87680 0.80600
C 	C 	0.63320 0.80510 0.78960 0.07200
C 	C 	0.64480 0.63370 0.86710 -1.11800
H 	H 	0.60030 0.55870 0.87520 0.31000
H 	H 	0.71310 0.66580 0.88160 0.32500
H 	H 	0.65840 0.63730 0.83810 0.31400
C 	C 	0.49100 0.65820 0.88960 -1.51900
H 	H 	0.45970 0.58260 0.89670 0.42400
H 	H 	0.44830 0.66610 0.86840 0.43200
H 	H 	0.49250 0.69940 0.91330 0.42000
C 	C 	0.57170 0.78070 0.65060 0.33400
C 	C 	0.67670 0.82580 0.67580 -0.24000
H 	H 	0.72040 0.90470 0.67090 0.08700
C 	C 	0.74460 0.77340 0.66310 0.32700
C 	C 	0.69960 0.83730 0.75060 0.09000
C 	C 	0.68770 0.65460 0.67360 -0.61300
H 	H 	0.61060 0.62310 0.66880 0.17600
H 	H 	0.70020 0.64590 0.70200 0.17500
H 	H 	0.71570 0.61850 0.65670 0.16700
C 	C 	0.86000 0.82900 0.66630 -0.71900
H 	H 	0.88720 0.78370 0.65690 0.21500
H 	H 	0.88070 0.84980 0.69450 0.23800
H 	H 	0.89000 0.89490 0.64970 0.20100
Cu	Cu	0.48773 0.73502 0.72848 0.86600
Cu	Cu	0.51243 0.24627 0.14525 0.86600
O 	O 	0.47047 0.22683 0.08703 -0.36000
O 	O 	0.51937 0.25133 0.20467 -0.55700
O 	O 	0.42297 0.21163 0.26098 -0.39500
O 	O 	0.24427 0.12253 0.94626 -0.37400
O 	O 	0.14697 0.06633 0.00243 -0.51700
O 	O 	0.19677 0.09093 0.12033 -0.36400
N 	N 	0.35947 0.16613 0.15543 -0.19500
N 	N 	0.30747 0.14153 0.05203 -0.21800
C 	C 	0.42897 0.20923 0.22303 0.35900
C 	C 	0.32517 0.14923 0.19713 -0.35600
H 	H 	0.28187 0.18503 0.20163 0.10800
C 	C 	0.25417 0.02753 0.21013 0.67400
C 	C 	0.29987 0.13843 0.12293 0.07400
C 	C 	0.31147 0.96703 0.20043 -0.98400
H 	H 	0.26697 0.89203 0.20853 0.27600
H 	H 	0.37977 0.99913 0.21493 0.29300
H 	H 	0.32507 0.97063 0.17143 0.28200
C 	C 	0.15767 0.99153 0.22293 -1.28100
H 	H 	0.12637 0.91593 0.23003 0.36000
H 	H 	0.11497 0.99943 0.20173 0.37000
H 	H 	0.15917 0.03273 0.24663 0.34600
C 	C 	0.23837 0.11403 0.98393 0.27700
C 	C 	0.34337 0.15913 0.00913 -0.17600
H 	H 	0.38707 0.23803 0.00423 0.07700
C 	C 	0.41127 0.10673 0.99643 0.23800
C 	C 	0.36627 0.17063 0.08393 0.09300
C 	C 	0.35437 0.98793 0.00693 -0.44500
H 	H 	0.27727 0.95643 0.00213 0.14100
H 	H 	0.36687 0.97923 0.03533 0.13600
H 	H 	0.38237 0.95183 0.99003 0.10900
C 	C 	0.52667 0.16233 0.99963 -0.68900
H 	H 	0.55387 0.11703 0.99023 0.19700
H 	H 	0.54737 0.18313 0.02783 0.23800
H 	H 	0.55667 0.22823 0.98303 0.18500
Cu	Cu	0.15440 0.06835 0.06181 0.86500
Cu	Cu	0.17909 0.57961 0.47859 0.86600
O 	O 	0.13713 0.56017 0.42037 -0.36000
O 	O 	0.18603 0.58467 0.53801 -0.55800
O 	O 	0.08963 0.54497 0.59432 -0.39800
O 	O 	0.91093 0.45587 0.27960 -0.38600
O 	O 	0.81363 0.39967 0.33577 -0.54800
O 	O 	0.86343 0.42427 0.45367 -0.36600
N 	N 	0.02613 0.49947 0.48877 -0.19700
N 	N 	0.97413 0.47487 0.38537 -0.20700
C 	C 	0.09563 0.54257 0.55637 0.36200
C 	C 	0.99183 0.48257 0.53047 -0.38300
H 	H 	0.94853 0.51837 0.53497 0.11800
C 	C 	0.92083 0.36087 0.54347 0.78500
C 	C 	0.96653 0.47177 0.45627 0.08200
C 	C 	0.97813 0.30037 0.53377 -1.07600
H 	H 	0.93363 0.22537 0.54187 0.29900
H 	H 	0.04643 0.33247 0.54827 0.30800
H 	H 	0.99173 0.30397 0.50477 0.30300
C 	C 	0.82433 0.32487 0.55627 -1.48900
H 	H 	0.79303 0.24927 0.56337 0.41600
H 	H 	0.78163 0.33277 0.53507 0.42300
H 	H 	0.82583 0.36607 0.57997 0.41300
C 	C 	0.90503 0.44737 0.31727 0.33600
C 	C 	0.01003 0.49247 0.34247 -0.24400
H 	H 	0.05373 0.57137 0.33757 0.08500
C 	C 	0.07793 0.44007 0.32977 0.32400
C 	C 	0.03293 0.50397 0.41727 0.08100
C 	C 	0.02103 0.32127 0.34027 -0.61600
H 	H 	0.94393 0.28977 0.33547 0.17800
H 	H 	0.03353 0.31257 0.36867 0.17300
H 	H 	0.04903 0.28517 0.32337 0.16600
C 	C 	0.19333 0.49567 0.33297 -0.71100
H 	H 	0.22053 0.45037 0.32357 0.21000
H 	H 	0.21403 0.51647 0.36117 0.23200
H 	H 	0.22333 0.56157 0.31637 0.19600
Cu	Cu	0.82106 0.40169 0.39515 0.86600
Cu	Cu	0.08706 0.93282 0.81192 0.86800
O 	O 	0.10650 0.91030 0.75370 -0.36200
O 	O 	0.08200 0.93470 0.87134 -0.55400
O 	O 	0.12170 0.87800 0.92765 -0.39900
O 	O 	0.21080 0.78840 0.61293 -0.38800
O 	O 	0.26700 0.74730 0.66910 -0.54800
O 	O 	0.24240 0.77250 0.78700 -0.36400
N 	N 	0.16720 0.86000 0.82210 -0.18800
N 	N 	0.19180 0.83260 0.71870 -0.21000
C 	C 	0.12410 0.88640 0.88970 0.37300
C 	C 	0.18410 0.84260 0.86380 -0.40900
H 	H 	0.14830 0.76350 0.86830 0.12200
C 	C 	0.30580 0.89330 0.87680 0.83200
C 	C 	0.19490 0.82810 0.78960 0.07100
C 	C 	0.36630 0.01110 0.86710 -1.14800
H 	H 	0.44130 0.04160 0.87520 0.31600
H 	H 	0.33420 0.04730 0.88160 0.33100
H 	H 	0.36270 0.02110 0.83810 0.32000
C 	C 	0.34180 0.83280 0.88960 -1.55500
H 	H 	0.41740 0.87710 0.89670 0.43600
H 	H 	0.33390 0.78220 0.86840 0.44300
H 	H 	0.30060 0.79310 0.91330 0.43000
C 	C 	0.21930 0.79100 0.65060 0.33500
C 	C 	0.17420 0.85090 0.67580 -0.24800
H 	H 	0.09530 0.81570 0.67090 0.08500
C 	C 	0.22660 0.97120 0.66310 0.35200
C 	C 	0.16270 0.86230 0.75060 0.08900
C 	C 	0.34540 0.03310 0.67360 -0.65600
H 	H 	0.37690 0.98750 0.66880 0.19200
H 	H 	0.35410 0.05430 0.70200 0.18500
H 	H 	0.38150 0.09720 0.65670 0.17700
C 	C 	0.17100 0.03100 0.66630 -0.76000
H 	H 	0.21630 0.10350 0.65690 0.22400
H 	H 	0.15020 0.03090 0.69450 0.24400
H 	H 	0.10510 0.99510 0.64970 0.21100
Cu	Cu	0.26498 0.75271 0.72848 0.86600
Cu	Cu	0.75373 0.26615 0.14525 0.86700
O 	O 	0.77317 0.24363 0.08703 -0.36000
O 	O 	0.74867 0.26803 0.20467 -0.56100
O 	O 	0.78837 0.21133 0.26098 -0.40100
O 	O 	0.87747 0.12173 0.94626 -0.37200
O 	O 	0.93367 0.08063 0.00243 -0.51500
O 	O 	0.90907 0.10583 0.12033 -0.36400
N 	N 	0.83387 0.19333 0.15543 -0.18800
N 	N 	0.85847 0.16593 0.05203 -0.21600
C 	C 	0.79077 0.21973 0.22303 0.37300
C 	C 	0.85077 0.17593 0.19713 -0.40900
H 	H 	0.81497 0.09683 0.20163 0.12100
C 	C 	0.97247 0.22663 0.21013 0.82900
C 	C 	0.86157 0.16143 0.12293 0.07100
C 	C 	0.03297 0.34443 0.20043 -1.14300
H 	H 	0.10797 0.37493 0.20853 0.31700
H 	H 	0.00087 0.38063 0.21493 0.33100
H 	H 	0.02937 0.35443 0.17143 0.32100
C 	C 	0.00847 0.16613 0.22293 -1.56000
H 	H 	0.08407 0.21043 0.23003 0.43600
H 	H 	0.00057 0.11553 0.20173 0.44200
H 	H 	0.96727 0.12643 0.24663 0.43100
C 	C 	0.88597 0.12433 0.98393 0.28400
C 	C 	0.84087 0.18423 0.00913 -0.18500
H 	H 	0.76197 0.14903 0.00423 0.07800
C 	C 	0.89327 0.30453 0.99643 0.26700
C 	C 	0.82937 0.19563 0.08393 0.09400
C 	C 	0.01207 0.36643 0.00693 -0.48200
H 	H 	0.04357 0.32083 0.00213 0.14700
H 	H 	0.02077 0.38763 0.03533 0.14100
H 	H 	0.04817 0.43053 0.99003 0.11600
C 	C 	0.83767 0.36433 0.99963 -0.71600
H 	H 	0.88297 0.43683 0.99023 0.20900
H 	H 	0.81687 0.36423 0.02783 0.24700
H 	H 	0.77177 0.32843 0.98303 0.19300
Cu	Cu	0.93165 0.08604 0.06181 0.86700
Cu	Cu	0.42039 0.59949 0.47859 0.86600
O 	O 	0.43983 0.57697 0.42037 -0.36200
O 	O 	0.41533 0.60137 0.53801 -0.56000
O 	O 	0.45503 0.54467 0.59432 -0.40000
O 	O 	0.54413 0.45507 0.27960 -0.38700
O 	O 	0.60033 0.41397 0.33577 -0.54700
O 	O 	0.57573 0.43917 0.45367 -0.36400
N 	N 	0.50053 0.52667 0.48877 -0.18900
N 	N 	0.52513 0.49927 0.38537 -0.21100
C 	C 	0.45743 0.55307 0.55637 0.37100
C 	C 	0.51743 0.50927 0.53047 -0.40300
H 	H 	0.48163 0.43017 0.53497 0.12100
C 	C 	0.63913 0.55997 0.54347 0.81000
C 	C 	0.52823 0.49477 0.45627 0.07100
C 	C 	0.69963 0.67777 0.53377 -1.12200
H 	H 	0.77463 0.70827 0.54187 0.31200
H 	H 	0.66753 0.71397 0.54827 0.32700
H 	H 	0.69603 0.68777 0.50477 0.31600
C 	C 	0.67513 0.49947 0.55627 -1.52500
H 	H 	0.75073 0.54377 0.56337 0.42700
H 	H 	0.66723 0.44887 0.53507 0.43400
H 	H 	0.63393 0.45977 0.57997 0.42200
C 	C 	0.55263 0.45767 0.31727 0.33300
C 	C 	0.50753 0.51757 0.34247 -0.23800
H 	H 	0.42863 0.48237 0.33757 0.08400
C 	C 	0.55993 0.63787 0.32977 0.32300
C 	C 	0.49603 0.52897 0.41727 0.09000
C 	C 	0.67873 0.69977 0.34027 -0.61100
H 	H 	0.71023 0.65417 0.33547 0.17600
H 	H 	0.68743 0.72097 0.36867 0.17500
H 	H 	0.71483 0.76387 0.32337 0.16700
C 	C 	0.50433 0.69767 0.33297 -0.71100
H 	H 	0.54963 0.77017 0.32357 0.21200
H 	H 	0.48353 0.69757 0.36117 0.23300
H 	H 	0.43843 0.66177 0.31637 0.19600
Cu	Cu	0.59831 0.41938 0.39515 0.86600
Ba	Ba	0.00000 0.00000 0.93687 2.01700
O 	O 	-0.00000 0.00000 0.79850 -0.58900
Ba	Ba	0.66667 0.33333 0.27020 2.09600
O 	O 	0.66667 0.33333 0.13183 -0.57900
Ba	Ba	0.33333 0.66667 0.60354 2.09600
O 	O 	0.33333 0.66667 0.46517 -0.58000
O 	O 	0.33333 0.66667 0.74210 -0.58300
O 	O 	0.00000 0.00000 0.07543 -0.59000
O 	O 	0.66667 0.33333 0.40877 -0.58300
