data_crystal

_cell_length_a 9.88730
_cell_length_b 14.77680
_cell_length_c 19.22540
_cell_angle_alpha 90.00000
_cell_angle_beta  97.97680
_cell_angle_gamma 90.00000

_symmetry_space_group_name_	'P 1'
_symmetry_space_group_name_H-M	'P 1'

loop_
_symmetry_equiv_pos_as_xyz
  x,y,z

loop_
_atom_site_label
_atom_site_type_symbol
_atom_site_fract_x
_atom_site_fract_y
_atom_site_fract_z
_atom_site_charge
Eu	Eu	0.40568 0.07387 0.63765 1.98500
Eu	Eu	0.54303 0.48478 0.66615 2.02100
O 	O 	0.47410 0.11130 0.52500 -0.40100
O 	O 	0.56920 0.05900 0.43440 -0.39200
O 	O 	0.54900 0.19080 0.69880 -0.38800
O 	O 	0.61310 0.33580 0.69820 -0.39900
O 	O 	0.33200 0.22780 0.60450 -0.39900
O 	O 	0.39060 0.37350 0.60710 -0.40200
O 	O 	0.63280 0.45130 0.55670 -0.37800
O 	O 	0.58870 0.44560 0.43930 -0.37100
O 	O 	0.79260 0.48290 0.68040 -0.37700
O 	O 	0.98770 0.50570 0.75200 -0.36800
O 	O 	0.64950 0.52800 0.78270 -0.41400
O 	O 	0.84340 0.53800 0.85800 -0.37100
O 	O 	0.37340 0.58510 0.69900 -0.41200
O 	O 	0.23380 0.62430 0.77540 -0.39700
O 	O 	0.39590 0.41940 0.75380 -0.34500
O 	O 	0.24050 0.45460 0.82440 -0.38100
C 	C 	0.51180 0.04960 0.48790 0.27200
C 	C 	0.53380 0.27100 0.67880 0.27200
C 	C 	0.40640 0.29300 0.62490 0.29500
C 	C 	0.56400 0.47000 0.49870 0.26400
C 	C 	0.85960 0.50360 0.73840 0.25900
C 	C 	0.77620 0.52670 0.79890 0.28000
C 	C 	0.30620 0.56950 0.74830 0.29600
C 	C 	0.31450 0.47150 0.77820 0.25200
Eu	Eu	0.09432 0.57387 0.86235 1.98800
Eu	Eu	0.95697 0.98478 0.83385 2.00600
O 	O 	0.02590 0.61130 0.97500 -0.40100
O 	O 	0.93080 0.55900 0.06560 -0.39400
O 	O 	0.95100 0.69080 0.80120 -0.38900
O 	O 	0.88690 0.83580 0.80180 -0.39900
O 	O 	0.16800 0.72780 0.89550 -0.39900
O 	O 	0.10940 0.87350 0.89290 -0.39900
O 	O 	0.86720 0.95130 0.94330 -0.37800
O 	O 	0.91130 0.94560 0.06070 -0.37000
O 	O 	0.70740 0.98290 0.81960 -0.37900
O 	O 	0.51230 0.00570 0.74800 -0.36900
O 	O 	0.85050 0.02800 0.71730 -0.40900
O 	O 	0.65660 0.03800 0.64200 -0.36900
O 	O 	0.12660 0.08510 0.80100 -0.41100
O 	O 	0.26620 0.12430 0.72460 -0.39700
O 	O 	0.10410 0.91940 0.74620 -0.34200
O 	O 	0.25950 0.95460 0.67560 -0.38000
C 	C 	0.98820 0.54960 0.01210 0.27100
C 	C 	0.96620 0.77100 0.82120 0.26800
C 	C 	0.09360 0.79300 0.87510 0.29800
C 	C 	0.93600 0.97000 0.00130 0.26400
C 	C 	0.64040 0.00360 0.76160 0.26500
C 	C 	0.72380 0.02670 0.70110 0.27800
C 	C 	0.19380 0.06950 0.75170 0.29200
C 	C 	0.18550 0.97150 0.72180 0.25600
Eu	Eu	0.59432 0.92613 0.36235 1.98400
Eu	Eu	0.45697 0.51522 0.33385 2.02000
O 	O 	0.52590 0.88870 0.47500 -0.40200
O 	O 	0.43080 0.94100 0.56560 -0.39300
O 	O 	0.45100 0.80920 0.30120 -0.38800
O 	O 	0.38690 0.66420 0.30180 -0.39900
O 	O 	0.66800 0.77220 0.39550 -0.39900
O 	O 	0.60940 0.62650 0.39290 -0.40200
O 	O 	0.36720 0.54870 0.44330 -0.37800
O 	O 	0.41130 0.55440 0.56070 -0.37100
O 	O 	0.20740 0.51710 0.31960 -0.37700
O 	O 	0.01230 0.49430 0.24800 -0.36800
O 	O 	0.35050 0.47200 0.21730 -0.41400
O 	O 	0.15660 0.46200 0.14200 -0.37100
O 	O 	0.62660 0.41490 0.30100 -0.41200
O 	O 	0.76620 0.37570 0.22460 -0.39700
O 	O 	0.60410 0.58060 0.24620 -0.34500
O 	O 	0.75950 0.54540 0.17560 -0.38100
C 	C 	0.48820 0.95040 0.51210 0.27200
C 	C 	0.46620 0.72900 0.32120 0.27200
C 	C 	0.59360 0.70700 0.37510 0.29500
C 	C 	0.43600 0.53000 0.50130 0.26400
C 	C 	0.14040 0.49640 0.26160 0.25900
C 	C 	0.22380 0.47330 0.20110 0.28000
C 	C 	0.69380 0.43050 0.25170 0.29600
C 	C 	0.68550 0.52850 0.22180 0.25200
Eu	Eu	0.90568 0.42613 0.13765 1.98800
Eu	Eu	0.04303 0.01522 0.16615 2.00600
O 	O 	0.97410 0.38870 0.02500 -0.40100
O 	O 	0.06920 0.44100 0.93440 -0.39400
O 	O 	0.04900 0.30920 0.19880 -0.38900
O 	O 	0.11310 0.16420 0.19820 -0.39900
O 	O 	0.83200 0.27220 0.10450 -0.39900
O 	O 	0.89060 0.12650 0.10710 -0.39900
O 	O 	0.13280 0.04870 0.05670 -0.37800
O 	O 	0.08870 0.05440 0.93930 -0.37000
O 	O 	0.29260 0.01710 0.18040 -0.37900
O 	O 	0.48770 0.99430 0.25200 -0.36900
O 	O 	0.14950 0.97200 0.28270 -0.40900
O 	O 	0.34340 0.96200 0.35800 -0.36900
O 	O 	0.87340 0.91490 0.19900 -0.41100
O 	O 	0.73380 0.87570 0.27540 -0.39700
O 	O 	0.89590 0.08060 0.25380 -0.34200
O 	O 	0.74050 0.04540 0.32440 -0.38000
C 	C 	0.01180 0.45040 0.98790 0.27100
C 	C 	0.03380 0.22900 0.17880 0.26800
C 	C 	0.90640 0.20700 0.12490 0.29800
C 	C 	0.06400 0.03000 0.99870 0.26400
C 	C 	0.35960 0.99640 0.23840 0.26500
C 	C 	0.27620 0.97330 0.29890 0.27800
C 	C 	0.80620 0.93050 0.24830 0.29200
C 	C 	0.81450 0.02850 0.27820 0.25600
