data_crystal

_cell_length_a 9.06100
_cell_length_b 13.65200
_cell_length_c 12.96000
_cell_angle_alpha 90.00000
_cell_angle_beta  90.64200
_cell_angle_gamma 90.00000

_symmetry_space_group_name_	'P 1'
_symmetry_space_group_name_H-M	'P 1'

loop_
_symmetry_equiv_pos_as_xyz
  x,y,z

loop_
_atom_site_label
_atom_site_type_symbol
_atom_site_fract_x
_atom_site_fract_y
_atom_site_fract_z
_atom_site_charge
Cd	Cd	0.97339 0.42145 0.35778 1.08100
N 	N 	0.06370 0.95350 0.33900 -0.24900
H 	H 	0.15160 0.93020 0.33490 0.06000
N 	N 	0.94380 0.89220 0.33400 -0.17100
H 	H 	0.85770 0.91670 0.32280 0.02500
N 	N 	0.00180 0.25431 0.36490 -0.31500
C 	C 	0.13840 0.21661 0.33750 0.08400
H 	H 	0.21640 0.25880 0.32400 -0.07400
C 	C 	0.15830 0.11589 0.33040 -0.24400
H 	H 	0.24970 0.09070 0.31210 0.09300
C 	C 	0.04170 0.05288 0.35070 0.26500
C 	C 	0.90510 0.09058 0.37810 -0.24000
H 	H 	0.82710 0.04840 0.39160 0.12000
C 	C 	0.88520 0.19130 0.38520 0.09800
H 	H 	0.79380 0.21650 0.40350 -0.06900
N 	N 	0.97280 0.58941 0.36210 -0.30000
C 	C 	0.09620 0.64591 0.38560 0.05000
H 	H 	0.18370 0.61580 0.40660 -0.06300
C 	C 	0.08910 0.74735 0.37770 -0.15900
H 	H 	0.17170 0.78510 0.39350 0.05300
C 	C 	0.95840 0.79228 0.34640 0.10600
C 	C 	0.83500 0.73578 0.32290 -0.16000
H 	H 	0.74750 0.76580 0.30190 0.02000
C 	C 	0.84210 0.63434 0.33070 0.03100
H 	H 	0.75950 0.59650 0.31500 -0.05500
Cd	Cd	0.02661 0.42145 0.64222 1.08200
N 	N 	0.93630 0.95350 0.66100 -0.24800
H 	H 	0.84840 0.93020 0.66510 0.06100
N 	N 	0.05620 0.89220 0.66600 -0.17000
H 	H 	0.14230 0.91670 0.67720 0.02500
N 	N 	0.99820 0.25431 0.63510 -0.31500
C 	C 	0.86160 0.21661 0.66250 0.08400
H 	H 	0.78360 0.25880 0.67600 -0.07400
C 	C 	0.84170 0.11589 0.66960 -0.24400
H 	H 	0.75030 0.09070 0.68790 0.09300
C 	C 	0.95830 0.05288 0.64930 0.26500
C 	C 	0.09490 0.09058 0.62190 -0.24000
H 	H 	0.17290 0.04840 0.60840 0.12000
C 	C 	0.11480 0.19130 0.61480 0.09800
H 	H 	0.20620 0.21650 0.59650 -0.06900
N 	N 	0.02720 0.58941 0.63790 -0.30000
C 	C 	0.90380 0.64591 0.61440 0.05000
H 	H 	0.81630 0.61580 0.59340 -0.06300
C 	C 	0.91090 0.74735 0.62230 -0.15900
H 	H 	0.82830 0.78510 0.60650 0.05300
C 	C 	0.04160 0.79228 0.65360 0.10600
C 	C 	0.16500 0.73578 0.67710 -0.16000
H 	H 	0.25250 0.76580 0.69810 0.02000
C 	C 	0.15790 0.63434 0.66930 0.03100
H 	H 	0.24050 0.59650 0.68500 -0.05500
Cd	Cd	0.47339 0.92145 0.85778 1.05300
N 	N 	0.56370 0.45350 0.83900 -0.17800
H 	H 	0.65160 0.43020 0.83490 0.07400
N 	N 	0.44380 0.39220 0.83400 -0.17300
H 	H 	0.35770 0.41670 0.82280 0.06300
N 	N 	0.50180 0.75431 0.86490 -0.31200
C 	C 	0.63840 0.71661 0.83750 0.04400
H 	H 	0.71640 0.75880 0.82400 -0.07300
C 	C 	0.65830 0.61589 0.83040 -0.18200
H 	H 	0.74970 0.59070 0.81210 0.04800
C 	C 	0.54170 0.55288 0.85070 0.13500
C 	C 	0.40510 0.59058 0.87810 -0.17500
H 	H 	0.32710 0.54840 0.89160 0.06500
C 	C 	0.38520 0.69130 0.88520 0.05900
H 	H 	0.29380 0.71650 0.90350 -0.06700
N 	N 	0.47280 0.08941 0.86210 -0.27900
C 	C 	0.59620 0.14591 0.88560 0.05800
H 	H 	0.68370 0.11580 0.90660 -0.04700
C 	C 	0.58910 0.24735 0.87770 -0.16500
H 	H 	0.67170 0.28510 0.89350 0.06700
C 	C 	0.45840 0.29228 0.84640 0.12400
C 	C 	0.33500 0.23578 0.82290 -0.16300
H 	H 	0.24750 0.26580 0.80190 0.03100
C 	C 	0.34210 0.13434 0.83070 0.04100
H 	H 	0.25950 0.09650 0.81500 -0.03700
Cd	Cd	0.52661 0.92145 0.14222 1.05300
N 	N 	0.43630 0.45350 0.16100 -0.17800
H 	H 	0.34840 0.43020 0.16510 0.07400
N 	N 	0.55620 0.39220 0.16600 -0.17300
H 	H 	0.64230 0.41670 0.17720 0.06300
N 	N 	0.49820 0.75431 0.13510 -0.31200
C 	C 	0.36160 0.71661 0.16250 0.04400
H 	H 	0.28360 0.75880 0.17600 -0.07300
C 	C 	0.34170 0.61589 0.16960 -0.18200
H 	H 	0.25030 0.59070 0.18790 0.04800
C 	C 	0.45830 0.55288 0.14930 0.13500
C 	C 	0.59490 0.59058 0.12190 -0.17500
H 	H 	0.67290 0.54840 0.10840 0.06500
C 	C 	0.61480 0.69130 0.11480 0.05900
H 	H 	0.70620 0.71650 0.09650 -0.06700
N 	N 	0.52720 0.08941 0.13790 -0.27900
C 	C 	0.40380 0.14591 0.11440 0.05800
H 	H 	0.31630 0.11580 0.09340 -0.04700
C 	C 	0.41090 0.24735 0.12230 -0.16500
H 	H 	0.32830 0.28510 0.10650 0.06700
C 	C 	0.54160 0.29228 0.15360 0.12400
C 	C 	0.66500 0.23578 0.17710 -0.16300
H 	H 	0.75250 0.26580 0.19810 0.03100
C 	C 	0.65790 0.13434 0.16930 0.04100
H 	H 	0.74050 0.09650 0.18500 -0.03700
