data_crystal

_cell_length_a 24.83260
_cell_length_b 17.41850
_cell_length_c 17.06340
_cell_angle_alpha 90.00000
_cell_angle_beta  113.42800
_cell_angle_gamma 90.00000

_symmetry_space_group_name_	'P 1'
_symmetry_space_group_name_H-M	'P 1'

loop_
_symmetry_equiv_pos_as_xyz
  x,y,z

loop_
_atom_site_label
_atom_site_type_symbol
_atom_site_fract_x
_atom_site_fract_y
_atom_site_fract_z
_atom_site_charge
C 	C 	0.11804 0.27212 0.85670 0.37100
C 	C 	0.21023 0.08659 0.92390 0.47500
C 	C 	0.08544 0.32336 0.89300 -0.11600
C 	C 	0.35337 0.23490 0.84240 -0.19500
C 	C 	0.29974 0.22980 0.86340 0.46700
C 	C 	0.02487 0.31530 0.86590 0.05700
H 	H 	0.00530 0.27660 0.82770 0.03300
C 	C 	0.34835 0.22030 0.76030 0.12700
H 	H 	0.31200 0.20710 0.71840 -0.01300
C 	C 	0.39662 0.22490 0.73940 -0.21300
H 	H 	0.39250 0.21620 0.68350 0.11100
C 	C 	0.02320 0.42270 0.95200 0.12400
C 	C 	0.11427 0.38030 0.95070 0.02400
H 	H 	0.15480 0.38490 0.96990 0.05000
C 	C 	0.99398 0.36460 0.89560 -0.14700
H 	H 	0.95360 0.35890 0.87780 0.07200
C 	C 	0.45121 0.24270 0.80210 0.18000
C 	C 	0.08361 0.43050 0.98030 -0.05500
H 	H 	0.10320 0.46910 0.01870 0.03300
C 	C 	0.21956 0.00390 0.94810 -0.19400
C 	C 	0.40767 0.25390 0.90450 0.12700
H 	H 	0.41120 0.26450 0.95980 0.01400
C 	C 	0.45690 0.25720 0.88550 -0.20100
H 	H 	0.49340 0.26900 0.92790 0.10800
C 	C 	0.26980 0.90500 0.04940 -0.30800
H 	H 	0.29710 0.89120 0.10320 0.13300
C 	C 	0.25950 0.98220 0.02760 0.12500
H 	H 	0.27990 0.01960 0.06720 -0.01200
C 	C 	0.18990 0.94720 0.89160 0.16400
H 	H 	0.16230 0.96020 0.83780 -0.01700
C 	C 	0.20080 0.87020 0.91460 -0.27500
H 	H 	0.18060 0.83230 0.87560 0.13100
C 	C 	0.24010 0.84980 0.99230 0.26700
Mg	Mg	0.17016 0.20044 0.78295 1.45800
N 	N 	0.98622 0.47306 0.97550 -0.07500
N 	N 	0.50421 0.24560 0.78800 -0.10200
N 	N 	0.26210 0.76870 0.02720 -0.14500
O 	O 	0.25547 0.19855 0.80718 -0.57800
O 	O 	0.30296 0.25671 0.93256 -0.48400
O 	O 	0.23830 0.13374 0.97932 -0.48600
O 	O 	0.17534 0.10161 0.84817 -0.53800
O 	O 	0.09052 0.23165 0.79307 -0.48100
O 	O 	0.17410 0.27275 0.88838 -0.60200
C 	C 	0.61804 0.77212 0.85670 0.36900
C 	C 	0.71023 0.58659 0.92390 0.47300
C 	C 	0.58544 0.82336 0.89300 -0.10900
C 	C 	0.85337 0.73490 0.84240 -0.19400
C 	C 	0.79974 0.72980 0.86340 0.46700
C 	C 	0.52487 0.81530 0.86590 0.04200
H 	H 	0.50530 0.77660 0.82770 0.03700
C 	C 	0.84835 0.72030 0.76030 0.12500
H 	H 	0.81200 0.70710 0.71840 -0.01300
C 	C 	0.89662 0.72490 0.73940 -0.21100
H 	H 	0.89250 0.71620 0.68350 0.11000
C 	C 	0.52320 0.92270 0.95200 0.11200
C 	C 	0.61427 0.88030 0.95070 0.01500
H 	H 	0.65480 0.88490 0.96990 0.05300
C 	C 	0.49398 0.86460 0.89560 -0.12800
H 	H 	0.45360 0.85890 0.87780 0.06600
C 	C 	0.95121 0.74270 0.80210 0.17600
C 	C 	0.58361 0.93050 0.98030 -0.04600
H 	H 	0.60320 0.96910 0.01870 0.03000
C 	C 	0.71956 0.50390 0.94810 -0.18600
C 	C 	0.90767 0.75390 0.90450 0.12500
H 	H 	0.91120 0.76450 0.95980 0.01400
C 	C 	0.95690 0.75720 0.88550 -0.19900
H 	H 	0.99340 0.76900 0.92790 0.10600
C 	C 	0.76980 0.40500 0.04940 -0.30400
H 	H 	0.79710 0.39120 0.10320 0.13100
C 	C 	0.75950 0.48220 0.02760 0.11500
H 	H 	0.77990 0.51960 0.06720 -0.00900
C 	C 	0.68990 0.44720 0.89160 0.15800
H 	H 	0.66230 0.46020 0.83780 -0.01500
C 	C 	0.70080 0.37020 0.91460 -0.27100
H 	H 	0.68060 0.33230 0.87560 0.13000
C 	C 	0.74010 0.34980 0.99230 0.26500
Mg	Mg	0.67016 0.70044 0.78295 1.45800
N 	N 	0.48622 0.97306 0.97550 -0.07100
N 	N 	0.00421 0.74560 0.78800 -0.09800
N 	N 	0.76210 0.26870 0.02720 -0.14600
O 	O 	0.75547 0.69855 0.80718 -0.57800
O 	O 	0.80296 0.75671 0.93256 -0.48400
O 	O 	0.73830 0.63374 0.97932 -0.48500
O 	O 	0.67534 0.60161 0.84817 -0.53700
O 	O 	0.59052 0.73165 0.79307 -0.48100
O 	O 	0.67410 0.77275 0.88838 -0.60100
C 	C 	0.88196 0.27212 0.64330 0.38200
C 	C 	0.78977 0.08659 0.57610 0.48500
C 	C 	0.91456 0.32336 0.60700 -0.15300
C 	C 	0.64663 0.23490 0.65760 -0.20300
C 	C 	0.70026 0.22980 0.63660 0.46900
C 	C 	0.97513 0.31530 0.63410 0.06900
H 	H 	0.99470 0.27660 0.67230 0.02300
C 	C 	0.65165 0.22030 0.73970 0.13100
H 	H 	0.68800 0.20710 0.78160 -0.01300
C 	C 	0.60338 0.22490 0.76060 -0.21700
H 	H 	0.60750 0.21620 0.81650 0.11600
C 	C 	0.97680 0.42270 0.54800 0.14600
C 	C 	0.88573 0.38030 0.54930 0.08700
H 	H 	0.84520 0.38490 0.53010 0.01300
C 	C 	0.00602 0.36460 0.60440 -0.16000
H 	H 	0.04640 0.35890 0.62220 0.07300
C 	C 	0.54879 0.24270 0.69790 0.18100
C 	C 	0.91639 0.43050 0.51970 -0.17300
H 	H 	0.89680 0.46910 0.48130 0.10000
C 	C 	0.78044 0.00390 0.55190 -0.23200
C 	C 	0.59233 0.25390 0.59550 0.12800
H 	H 	0.58880 0.26450 0.54020 0.00000
C 	C 	0.54310 0.25720 0.61450 -0.20800
H 	H 	0.50660 0.26900 0.57210 0.10100
C 	C 	0.73020 0.90500 0.45060 -0.24200
H 	H 	0.70290 0.89120 0.39680 0.11400
C 	C 	0.74050 0.98220 0.47240 0.15400
H 	H 	0.72010 0.01960 0.43280 -0.01400
C 	C 	0.81010 0.94720 0.60840 0.15500
H 	H 	0.83770 0.96020 0.66220 -0.01400
C 	C 	0.79920 0.87020 0.58540 -0.24300
H 	H 	0.81940 0.83230 0.62440 0.11900
C 	C 	0.75990 0.84980 0.50770 0.18500
Mg	Mg	0.82984 0.20044 0.71705 1.45800
N 	N 	0.01378 0.47306 0.52450 -0.09700
N 	N 	0.49579 0.24560 0.71200 -0.10400
N 	N 	0.73790 0.76870 0.47280 -0.10500
O 	O 	0.74453 0.19855 0.69282 -0.57900
O 	O 	0.69704 0.25671 0.56744 -0.50300
O 	O 	0.76170 0.13374 0.52068 -0.51300
O 	O 	0.82466 0.10161 0.65183 -0.54200
O 	O 	0.90948 0.23165 0.70693 -0.48500
O 	O 	0.82590 0.27275 0.61162 -0.61400
C 	C 	0.38196 0.77212 0.64330 0.38500
C 	C 	0.28977 0.58659 0.57610 0.48300
C 	C 	0.41456 0.82336 0.60700 -0.16200
C 	C 	0.14663 0.73490 0.65760 -0.20400
C 	C 	0.20026 0.72980 0.63660 0.47000
C 	C 	0.47513 0.81530 0.63410 0.08600
H 	H 	0.49470 0.77660 0.67230 0.01900
C 	C 	0.15165 0.72030 0.73970 0.13300
H 	H 	0.18800 0.70710 0.78160 -0.01300
C 	C 	0.10338 0.72490 0.76060 -0.21900
H 	H 	0.10750 0.71620 0.81650 0.11700
C 	C 	0.47680 0.92270 0.54800 0.16100
C 	C 	0.38573 0.88030 0.54930 0.09700
H 	H 	0.34520 0.88490 0.53010 0.01000
C 	C 	0.50602 0.86460 0.60440 -0.18000
H 	H 	0.54640 0.85890 0.62220 0.07900
C 	C 	0.04879 0.74270 0.69790 0.18500
C 	C 	0.41639 0.93050 0.51970 -0.18300
H 	H 	0.39680 0.96910 0.48130 0.10500
C 	C 	0.28044 0.50390 0.55190 -0.22500
C 	C 	0.09233 0.75390 0.59550 0.13000
H 	H 	0.08880 0.76450 0.54020 0.00000
C 	C 	0.04310 0.75720 0.61450 -0.21000
H 	H 	0.00660 0.76900 0.57210 0.10300
C 	C 	0.23020 0.40500 0.45060 -0.23600
H 	H 	0.20290 0.39120 0.39680 0.11200
C 	C 	0.24050 0.48220 0.47240 0.14500
H 	H 	0.22010 0.51960 0.43280 -0.01000
C 	C 	0.31010 0.44720 0.60840 0.14800
H 	H 	0.33770 0.46020 0.66220 -0.01200
C 	C 	0.29920 0.37020 0.58540 -0.23800
H 	H 	0.31940 0.33230 0.62440 0.11700
C 	C 	0.25990 0.34980 0.50770 0.18200
Mg	Mg	0.32984 0.70044 0.71705 1.45900
N 	N 	0.51378 0.97306 0.52450 -0.10100
N 	N 	0.99579 0.74560 0.71200 -0.10800
N 	N 	0.23790 0.26870 0.47280 -0.10500
O 	O 	0.24453 0.69855 0.69282 -0.57800
O 	O 	0.19704 0.75671 0.56744 -0.50200
O 	O 	0.26170 0.63374 0.52068 -0.51200
O 	O 	0.32466 0.60161 0.65183 -0.54000
O 	O 	0.40948 0.73165 0.70693 -0.48500
O 	O 	0.32590 0.77275 0.61162 -0.61500
C 	C 	0.88196 0.72788 0.14330 0.39800
C 	C 	0.78977 0.91341 0.07610 0.49100
C 	C 	0.91456 0.67664 0.10700 -0.20700
C 	C 	0.64663 0.76510 0.15760 -0.21100
C 	C 	0.70026 0.77020 0.13660 0.47200
C 	C 	0.97513 0.68470 0.13410 0.11300
H 	H 	0.99470 0.72340 0.17230 0.00500
C 	C 	0.65165 0.77970 0.23970 0.13300
H 	H 	0.68800 0.79290 0.28160 -0.01700
C 	C 	0.60338 0.77510 0.26060 -0.21900
H 	H 	0.60750 0.78380 0.31650 0.11300
C 	C 	0.97680 0.57730 0.04800 0.19600
C 	C 	0.88573 0.61970 0.04930 0.17000
H 	H 	0.84520 0.61510 0.03010 -0.03000
C 	C 	0.00602 0.63540 0.10440 -0.21100
H 	H 	0.04640 0.64110 0.12220 0.08500
C 	C 	0.54879 0.75730 0.19790 0.17800
C 	C 	0.91639 0.56950 0.01970 -0.31200
H 	H 	0.89680 0.53090 0.98130 0.17700
C 	C 	0.78044 0.99610 0.05190 -0.25800
C 	C 	0.59233 0.74610 0.09550 0.12800
H 	H 	0.58880 0.73550 0.04020 -0.01300
C 	C 	0.54310 0.74280 0.11450 -0.21300
H 	H 	0.50660 0.73100 0.07210 0.09300
C 	C 	0.73020 0.09500 0.95060 -0.16400
H 	H 	0.70290 0.10880 0.89680 0.09200
C 	C 	0.74050 0.01780 0.97240 0.16800
H 	H 	0.72010 0.98040 0.93280 -0.00900
C 	C 	0.81010 0.05280 0.10840 0.13300
H 	H 	0.83770 0.03980 0.16220 -0.01100
C 	C 	0.79920 0.12980 0.08540 -0.20400
H 	H 	0.81940 0.16770 0.12440 0.10200
C 	C 	0.75990 0.15020 0.00770 0.09600
Mg	Mg	0.82984 0.79956 0.21705 1.45800
N 	N 	0.01378 0.52694 0.02450 -0.12700
N 	N 	0.49579 0.75440 0.21200 -0.10700
N 	N 	0.73790 0.23130 0.97280 -0.06400
O 	O 	0.74453 0.80145 0.19282 -0.58400
O 	O 	0.69704 0.74329 0.06744 -0.52000
O 	O 	0.76170 0.86626 0.02068 -0.53800
O 	O 	0.82466 0.89839 0.15183 -0.54800
O 	O 	0.90948 0.76835 0.20693 -0.49400
O 	O 	0.82590 0.72725 0.11162 -0.62800
C 	C 	0.38196 0.22788 0.14330 0.40200
C 	C 	0.28977 0.41341 0.07610 0.49300
C 	C 	0.41456 0.17664 0.10700 -0.21600
C 	C 	0.14663 0.26510 0.15760 -0.21300
C 	C 	0.20026 0.27020 0.13660 0.47200
C 	C 	0.47513 0.18470 0.13410 0.12900
H 	H 	0.49470 0.22340 0.17230 0.00000
C 	C 	0.15165 0.27970 0.23970 0.13500
H 	H 	0.18800 0.29290 0.28160 -0.01700
C 	C 	0.10338 0.27510 0.26060 -0.22200
H 	H 	0.10750 0.28380 0.31650 0.11400
C 	C 	0.47680 0.07730 0.04800 0.21000
C 	C 	0.38573 0.11970 0.04930 0.17900
H 	H 	0.34520 0.11510 0.03010 -0.03300
C 	C 	0.50602 0.13540 0.10440 -0.23200
H 	H 	0.54640 0.14110 0.12220 0.09100
C 	C 	0.04879 0.25730 0.19790 0.18200
C 	C 	0.41639 0.06950 0.01970 -0.32200
H 	H 	0.39680 0.03090 0.98130 0.18000
C 	C 	0.28044 0.49610 0.05190 -0.26500
C 	C 	0.09233 0.24610 0.09550 0.13000
H 	H 	0.08880 0.23550 0.04020 -0.01300
C 	C 	0.04310 0.24280 0.11450 -0.21600
H 	H 	0.00660 0.23100 0.07210 0.09500
C 	C 	0.23020 0.59500 0.95060 -0.17100
H 	H 	0.20290 0.60880 0.89680 0.09500
C 	C 	0.24050 0.51780 0.97240 0.17800
H 	H 	0.22010 0.48040 0.93280 -0.01300
C 	C 	0.31010 0.55280 0.10840 0.14100
H 	H 	0.33770 0.53980 0.16220 -0.01300
C 	C 	0.29920 0.62980 0.08540 -0.20900
H 	H 	0.31940 0.66770 0.12440 0.10400
C 	C 	0.25990 0.65020 0.00770 0.10100
Mg	Mg	0.32984 0.29956 0.21705 1.45800
N 	N 	0.51378 0.02694 0.02450 -0.13300
N 	N 	0.99579 0.25440 0.21200 -0.11100
N 	N 	0.23790 0.73130 0.97280 -0.06400
O 	O 	0.24453 0.30145 0.19282 -0.58400
O 	O 	0.19704 0.24329 0.06744 -0.52000
O 	O 	0.26170 0.36626 0.02068 -0.53800
O 	O 	0.32466 0.39839 0.15183 -0.54900
O 	O 	0.40948 0.26835 0.20693 -0.49400
O 	O 	0.32590 0.22725 0.11162 -0.62900
C 	C 	0.11804 0.72788 0.35670 0.38900
C 	C 	0.21023 0.91341 0.42390 0.48200
C 	C 	0.08544 0.67664 0.39300 -0.17200
C 	C 	0.35337 0.76510 0.34240 -0.20400
C 	C 	0.29974 0.77020 0.36340 0.47000
C 	C 	0.02487 0.68470 0.36590 0.10300
H 	H 	0.00530 0.72340 0.32770 0.01400
C 	C 	0.34835 0.77970 0.26030 0.13000
H 	H 	0.31200 0.79290 0.21840 -0.01700
C 	C 	0.39662 0.77510 0.23940 -0.21600
H 	H 	0.39250 0.78380 0.18350 0.10900
C 	C 	0.02320 0.57730 0.45200 0.17600
C 	C 	0.11427 0.61970 0.45070 0.10700
H 	H 	0.15480 0.61510 0.46990 0.00600
C 	C 	0.99398 0.63540 0.39560 -0.20100
H 	H 	0.95360 0.64110 0.37780 0.08500
C 	C 	0.45121 0.75730 0.30210 0.17700
C 	C 	0.08361 0.56950 0.48030 -0.19500
H 	H 	0.10320 0.53090 0.51870 0.10900
C 	C 	0.21956 0.99610 0.44810 -0.22100
C 	C 	0.40767 0.74610 0.40450 0.12700
H 	H 	0.41120 0.73550 0.45980 0.00100
C 	C 	0.45690 0.74280 0.38550 -0.20700
H 	H 	0.49340 0.73100 0.42790 0.10000
C 	C 	0.26980 0.09500 0.54940 -0.23200
H 	H 	0.29710 0.10880 0.60320 0.11100
C 	C 	0.25950 0.01780 0.52760 0.13900
H 	H 	0.27990 0.98040 0.56720 -0.00700
C 	C 	0.18990 0.05280 0.39160 0.14400
H 	H 	0.16230 0.03980 0.33780 -0.01400
C 	C 	0.20080 0.12980 0.41460 -0.23700
H 	H 	0.18060 0.16770 0.37560 0.11500
C 	C 	0.24010 0.15020 0.49230 0.17900
Mg	Mg	0.17016 0.79956 0.28295 1.45800
N 	N 	0.98622 0.52694 0.47550 -0.10700
N 	N 	0.50421 0.75440 0.28800 -0.10400
N 	N 	0.26210 0.23130 0.52720 -0.10400
O 	O 	0.25547 0.80145 0.30718 -0.58400
O 	O 	0.30296 0.74329 0.43256 -0.50300
O 	O 	0.23830 0.86626 0.47932 -0.51200
O 	O 	0.17534 0.89839 0.34817 -0.54400
O 	O 	0.09052 0.76835 0.29307 -0.49000
O 	O 	0.17410 0.72725 0.38838 -0.61700
C 	C 	0.61804 0.22788 0.35670 0.38600
C 	C 	0.71023 0.41341 0.42390 0.48400
C 	C 	0.58544 0.17664 0.39300 -0.16300
C 	C 	0.85337 0.26510 0.34240 -0.20300
C 	C 	0.79974 0.27020 0.36340 0.46900
C 	C 	0.52487 0.18470 0.36590 0.08600
H 	H 	0.50530 0.22340 0.32770 0.01900
C 	C 	0.84835 0.27970 0.26030 0.12800
H 	H 	0.81200 0.29290 0.21840 -0.01600
C 	C 	0.89662 0.27510 0.23940 -0.21300
H 	H 	0.89250 0.28380 0.18350 0.10700
C 	C 	0.52320 0.07730 0.45200 0.16000
C 	C 	0.61427 0.11970 0.45070 0.09700
H 	H 	0.65480 0.11510 0.46990 0.01000
C 	C 	0.49398 0.13540 0.39560 -0.18000
H 	H 	0.45360 0.14110 0.37780 0.07800
C 	C 	0.95121 0.25730 0.30210 0.17300
C 	C 	0.58361 0.06950 0.48030 -0.18400
H 	H 	0.60320 0.03090 0.51870 0.10400
C 	C 	0.71956 0.49610 0.44810 -0.22800
C 	C 	0.90767 0.24610 0.40450 0.12500
H 	H 	0.91120 0.23550 0.45980 0.00100
C 	C 	0.95690 0.24280 0.38550 -0.20500
H 	H 	0.99340 0.23100 0.42790 0.09800
C 	C 	0.76980 0.59500 0.54940 -0.23800
H 	H 	0.79710 0.60880 0.60320 0.11300
C 	C 	0.75950 0.51780 0.52760 0.14700
H 	H 	0.77990 0.48040 0.56720 -0.01000
C 	C 	0.68990 0.55280 0.39160 0.15100
H 	H 	0.66230 0.53980 0.33780 -0.01600
C 	C 	0.70080 0.62980 0.41460 -0.24100
H 	H 	0.68060 0.66770 0.37560 0.11700
C 	C 	0.74010 0.65020 0.49230 0.18300
Mg	Mg	0.67016 0.29956 0.28295 1.45800
N 	N 	0.48622 0.02694 0.47550 -0.10300
N 	N 	0.00421 0.25440 0.28800 -0.10100
N 	N 	0.76210 0.73130 0.52720 -0.10500
O 	O 	0.75547 0.30145 0.30718 -0.58400
O 	O 	0.80296 0.24329 0.43256 -0.50300
O 	O 	0.73830 0.36626 0.47932 -0.51300
O 	O 	0.67534 0.39839 0.34817 -0.54500
O 	O 	0.59052 0.26835 0.29307 -0.49000
O 	O 	0.67410 0.22725 0.38838 -0.61600
Mg	Mg	0.25000 0.25000 -0.00000 1.47500
Mg	Mg	0.75000 0.25000 0.50000 1.47900
Mg	Mg	0.75000 0.75000 -0.00000 1.47500
Mg	Mg	0.25000 0.75000 0.50000 1.47900
