data_crystal

_cell_length_a 12.97850
_cell_length_b 11.71970
_cell_length_c 27.08700
_cell_angle_alpha 90.00000
_cell_angle_beta  105.69900
_cell_angle_gamma 90.00000

_symmetry_space_group_name_	'P 1'
_symmetry_space_group_name_H-M	'P 1'

loop_
_symmetry_equiv_pos_as_xyz
  x,y,z

loop_
_atom_site_label
_atom_site_type_symbol
_atom_site_fract_x
_atom_site_fract_y
_atom_site_fract_z
_atom_site_charge
C 	C 	0.10480 0.25960 0.00529 0.43100
C 	C 	0.79830 0.32390 0.97913 0.41100
C 	C 	0.20450 0.20190 0.99903 -0.18000
C 	C 	0.70870 0.36780 0.93669 -0.17700
C 	C 	0.21700 0.08390 0.00674 0.10700
H 	H 	0.16190 0.04120 0.01340 -0.02800
C 	C 	0.15930 0.53580 0.66154 -0.23600
C 	C 	0.31050 0.03070 0.00442 -0.26900
H 	H 	0.31910 0.95250 0.01000 0.12800
C 	C 	0.69850 0.48340 0.92571 0.11100
H 	H 	0.74860 0.53440 0.94480 0.01100
C 	C 	0.39090 0.09470 0.99381 0.20900
C 	C 	0.54930 0.33170 0.86904 -0.19900
H 	H 	0.49860 0.28060 0.85050 0.10500
C 	C 	0.61410 0.52310 0.88653 -0.19600
H 	H 	0.60660 0.60090 0.87980 0.10600
C 	C 	0.28430 0.26340 0.98779 0.12900
H 	H 	0.27550 0.34160 0.98230 -0.00600
C 	C 	0.18950 0.42370 0.66891 0.15200
H 	H 	0.15500 0.36970 0.64500 -0.02200
C 	C 	0.07740 0.57250 0.61323 0.47600
C 	C 	0.54060 0.44650 0.85720 0.17100
C 	C 	0.26980 0.38870 0.71097 -0.23700
H 	H 	0.28860 0.31210 0.71540 0.11000
C 	C 	0.63400 0.29250 0.90880 0.11000
H 	H 	0.64010 0.21510 0.91650 0.00600
C 	C 	0.37780 0.21200 0.98437 -0.22900
H 	H 	0.43110 0.25450 0.97590 0.11400
C 	C 	0.32180 0.46870 0.74637 0.19100
C 	C 	0.21000 0.61500 0.69771 0.14100
H 	H 	0.18870 0.69100 0.69380 -0.02900
C 	C 	0.29300 0.58250 0.74005 -0.23300
H 	H 	0.32840 0.63670 0.76370 0.10900
Mg	Mg	0.92978 0.24831 0.05631 1.46600
N 	N 	0.45870 0.49670 0.81622 -0.10400
N 	N 	0.40450 0.42210 0.78816 -0.10800
N 	N 	0.49140 0.04940 0.99107 -0.10300
O 	O 	0.79808 0.22057 0.99193 -0.47000
O 	O 	0.87279 0.38932 0.00331 -0.59200
O 	O 	0.04957 0.49814 0.57834 -0.54600
O 	O 	0.04340 0.67250 0.61084 -0.61900
O 	O 	0.09746 0.36377 0.99762 -0.51400
O 	O 	0.03717 0.19803 0.01830 -0.58800
C 	C 	0.89520 0.25960 0.49471 0.46800
C 	C 	0.20170 0.32390 0.52087 0.39900
C 	C 	0.79550 0.20190 0.50097 -0.19800
C 	C 	0.29130 0.36780 0.56331 -0.19400
C 	C 	0.78300 0.08390 0.49326 0.12800
H 	H 	0.83810 0.04120 0.48660 0.00100
C 	C 	0.84070 0.53580 0.83846 -0.18900
C 	C 	0.68950 0.03070 0.49558 -0.23000
H 	H 	0.68090 0.95250 0.49000 0.12600
C 	C 	0.30150 0.48340 0.57429 0.11900
H 	H 	0.25140 0.53440 0.55520 0.00000
C 	C 	0.60910 0.09470 0.50619 0.18400
C 	C 	0.45070 0.33170 0.63096 -0.20700
H 	H 	0.50140 0.28060 0.64950 0.11300
C 	C 	0.38590 0.52310 0.61347 -0.20300
H 	H 	0.39340 0.60090 0.62020 0.10800
C 	C 	0.71570 0.26340 0.51221 0.13700
H 	H 	0.72450 0.34160 0.51770 -0.00100
C 	C 	0.81050 0.42370 0.83109 0.13400
H 	H 	0.84500 0.36970 0.85500 0.01300
C 	C 	0.92260 0.57250 0.88677 0.45700
C 	C 	0.45940 0.44650 0.64280 0.18000
C 	C 	0.73020 0.38870 0.78903 -0.20700
H 	H 	0.71140 0.31210 0.78460 0.11500
C 	C 	0.36600 0.29250 0.59120 0.11800
H 	H 	0.35990 0.21510 0.58350 -0.00100
C 	C 	0.62220 0.21200 0.51563 -0.22000
H 	H 	0.56890 0.25450 0.52410 0.11100
C 	C 	0.67820 0.46870 0.75363 0.18700
C 	C 	0.79000 0.61500 0.80229 0.12500
H 	H 	0.81130 0.69100 0.80620 -0.00100
C 	C 	0.70700 0.58250 0.75995 -0.20600
H 	H 	0.67160 0.63670 0.73630 0.11100
Mg	Mg	0.07022 0.24831 0.44369 1.44800
N 	N 	0.54130 0.49670 0.68378 -0.10100
N 	N 	0.59550 0.42210 0.71184 -0.10100
N 	N 	0.50860 0.04940 0.50893 -0.11000
O 	O 	0.20192 0.22057 0.50807 -0.52400
O 	O 	0.12721 0.38932 0.49669 -0.65500
O 	O 	0.95043 0.49814 0.92166 -0.45800
O 	O 	0.95660 0.67250 0.88916 -0.53800
O 	O 	0.90254 0.36377 0.50238 -0.47400
O 	O 	0.96283 0.19803 0.48170 -0.49500
C 	C 	0.89520 0.74040 0.99471 0.52300
C 	C 	0.20170 0.67610 0.02087 0.37400
C 	C 	0.79550 0.79810 0.00097 -0.25800
C 	C 	0.29130 0.63220 0.06331 -0.18700
C 	C 	0.78300 0.91610 0.99326 0.17200
H 	H 	0.83810 0.95880 0.98660 -0.01000
C 	C 	0.84070 0.46420 0.33846 -0.19000
C 	C 	0.68950 0.96930 0.99558 -0.22500
H 	H 	0.68090 0.04750 0.99000 0.12800
C 	C 	0.30150 0.51660 0.07429 0.11200
H 	H 	0.25140 0.46560 0.05520 -0.00400
C 	C 	0.60910 0.90530 0.00619 0.17300
C 	C 	0.45070 0.66830 0.13096 -0.20400
H 	H 	0.50140 0.71940 0.14950 0.11100
C 	C 	0.38590 0.47690 0.11347 -0.20100
H 	H 	0.39340 0.39910 0.12020 0.10500
C 	C 	0.71570 0.73660 0.01221 0.16600
H 	H 	0.72450 0.65840 0.01770 -0.01500
C 	C 	0.81050 0.57630 0.33109 0.13400
H 	H 	0.84500 0.63030 0.35500 0.01200
C 	C 	0.92260 0.42750 0.38677 0.45800
C 	C 	0.45940 0.55350 0.14280 0.17600
C 	C 	0.73020 0.61130 0.28903 -0.20800
H 	H 	0.71140 0.68790 0.28460 0.11500
C 	C 	0.36600 0.70750 0.09120 0.11100
H 	H 	0.35990 0.78490 0.08350 0.00100
C 	C 	0.62220 0.78800 0.01563 -0.23600
H 	H 	0.56890 0.74550 0.02410 0.11300
C 	C 	0.67820 0.53130 0.25363 0.18700
C 	C 	0.79000 0.38500 0.30229 0.12500
H 	H 	0.81130 0.30900 0.30620 -0.00200
C 	C 	0.70700 0.41750 0.25995 -0.20600
H 	H 	0.67160 0.36330 0.23630 0.11000
Mg	Mg	0.07022 0.75169 0.94369 1.44900
N 	N 	0.54130 0.50330 0.18378 -0.10200
N 	N 	0.59550 0.57790 0.21184 -0.10100
N 	N 	0.50860 0.95060 0.00893 -0.11800
O 	O 	0.20192 0.77943 0.00807 -0.52400
O 	O 	0.12721 0.61068 0.99669 -0.63200
O 	O 	0.95043 0.50186 0.42166 -0.46200
O 	O 	0.95660 0.32750 0.38916 -0.54100
O 	O 	0.90254 0.63623 0.00238 -0.50500
O 	O 	0.96283 0.80197 0.98170 -0.50100
C 	C 	0.10480 0.74040 0.50529 0.48700
C 	C 	0.79830 0.67610 0.47913 0.38500
C 	C 	0.20450 0.79810 0.49903 -0.24300
C 	C 	0.70870 0.63220 0.43669 -0.17200
C 	C 	0.21700 0.91610 0.50674 0.14900
H 	H 	0.16190 0.95880 0.51340 -0.03800
C 	C 	0.15930 0.46420 0.16154 -0.23700
C 	C 	0.31050 0.96930 0.50442 -0.25800
H 	H 	0.31910 0.04750 0.51000 0.12700
C 	C 	0.69850 0.51660 0.42571 0.10500
H 	H 	0.74860 0.46560 0.44480 0.00600
C 	C 	0.39090 0.90530 0.49381 0.19500
C 	C 	0.54930 0.66830 0.36904 -0.19500
H 	H 	0.49860 0.71940 0.35050 0.10300
C 	C 	0.61410 0.47690 0.38653 -0.19300
H 	H 	0.60660 0.39910 0.37980 0.10200
C 	C 	0.28430 0.73660 0.48779 0.15900
H 	H 	0.27550 0.65840 0.48230 -0.02000
C 	C 	0.18950 0.57630 0.16891 0.15300
H 	H 	0.15500 0.63030 0.14500 -0.02300
C 	C 	0.07740 0.42750 0.11323 0.47600
C 	C 	0.54060 0.55350 0.35720 0.16700
C 	C 	0.26980 0.61130 0.21097 -0.23800
H 	H 	0.28860 0.68790 0.21540 0.11000
C 	C 	0.63400 0.70750 0.40880 0.10400
H 	H 	0.64010 0.78490 0.41650 0.00800
C 	C 	0.37780 0.78800 0.48437 -0.24400
H 	H 	0.43110 0.74550 0.47590 0.11700
C 	C 	0.32180 0.53130 0.24637 0.19100
C 	C 	0.21000 0.38500 0.19771 0.14200
H 	H 	0.18870 0.30900 0.19380 -0.03000
C 	C 	0.29300 0.41750 0.24005 -0.23400
H 	H 	0.32840 0.36330 0.26370 0.10800
Mg	Mg	0.92978 0.75169 0.55631 1.46800
N 	N 	0.45870 0.50330 0.31622 -0.10400
N 	N 	0.40450 0.57790 0.28816 -0.10800
N 	N 	0.49140 0.95060 0.49107 -0.11100
O 	O 	0.79808 0.77943 0.49193 -0.47100
O 	O 	0.87279 0.61068 0.50331 -0.56900
O 	O 	0.04957 0.50186 0.07834 -0.55000
O 	O 	0.04340 0.32750 0.11084 -0.62200
O 	O 	0.09746 0.63623 0.49762 -0.54700
O 	O 	0.03717 0.80197 0.51830 -0.59400
Mg	Mg	0.00000 0.50000 -0.00000 1.46800
Mg	Mg	0.00000 0.50000 0.50000 1.47000
