data_crystal

_cell_length_a 19.80600
_cell_length_b 9.13800
_cell_length_c 32.33930
_cell_angle_alpha 90.00000
_cell_angle_beta  107.56600
_cell_angle_gamma 90.00000

_symmetry_space_group_name_	'P 1'
_symmetry_space_group_name_H-M	'P 1'

loop_
_symmetry_equiv_pos_as_xyz
  x,y,z

loop_
_atom_site_label
_atom_site_type_symbol
_atom_site_fract_x
_atom_site_fract_y
_atom_site_fract_z
_atom_site_charge
Eu	Eu	0.96177 0.97960 0.79932 1.82700
O 	O 	0.06605 0.87270 0.77659 -0.60700
O 	O 	0.90817 0.87350 0.85291 -0.41200
O 	O 	0.60671 0.64549 0.75320 -0.49600
O 	O 	0.84294 0.87660 0.78440 -0.41500
O 	O 	0.00789 0.72600 0.80752 -0.53600
O 	O 	0.54472 0.66903 0.80031 -0.51100
N 	N 	0.93625 0.02410 0.12669 -0.24000
N 	N 	0.70513 0.05410 0.00905 -0.13500
N 	N 	0.45889 0.25000 0.98635 -0.13500
C 	C 	0.84883 0.86540 0.82411 0.29900
C 	C 	0.78124 0.88640 0.87840 -0.00100
H 	H 	0.82170 0.92410 0.89830 0.03400
C 	C 	0.78289 0.84580 0.83731 -0.10400
C 	C 	0.05535 0.74520 0.79006 0.69800
C 	C 	0.59942 0.68690 0.78853 0.45100
C 	C 	0.71909 0.87110 0.89003 -0.06300
C 	C 	0.66194 0.76300 0.81979 -0.16000
C 	C 	0.71521 0.93040 0.93203 0.10300
C 	C 	0.66063 0.80550 0.86068 0.02500
H 	H 	0.61990 0.78990 0.86870 0.02100
C 	C 	0.52987 0.17480 0.94191 -0.12100
H 	H 	0.53440 0.16900 0.91420 0.07800
C 	C 	0.64935 0.05460 0.97312 0.08800
C 	C 	0.94732 0.97460 0.09030 0.11400
H 	H 	0.99320 0.94840 0.09140 -0.02900
C 	C 	0.72281 0.78720 0.80799 0.04900
H 	H 	0.72330 0.76380 0.78010 0.02800
C 	C 	0.58330 0.12330 0.97707 0.05100
C 	C 	0.65248 0.99380 0.93415 -0.15800
H 	H 	0.61290 0.99570 0.90970 0.08000
C 	C 	0.10074 0.61990 0.78490 -1.23800
H 	H 	0.13670 0.60220 0.81190 0.40000
H 	H 	0.12260 0.64320 0.76300 0.40500
H 	H 	0.07200 0.53390 0.77650 0.39600
C 	C 	0.77241 0.92890 0.96933 -0.15400
H 	H 	0.81480 0.88560 0.96920 0.09000
C 	C 	0.89473 0.96040 0.05135 -0.16000
H 	H 	0.90550 0.92370 0.02730 0.09400
C 	C 	0.86954 0.05960 0.12336 0.11300
H 	H 	0.85980 0.09130 0.14830 -0.01800
C 	C 	0.81448 0.05270 0.08586 -0.16000
H 	H 	0.76950 0.08280 0.08560 0.09200
C 	C 	0.76594 0.99290 0.00715 0.08200
C 	C 	0.57300 0.13810 0.01767 -0.12100
H 	H 	0.60750 0.10690 0.04260 0.07800
C 	C 	0.82566 0.00070 0.04797 0.07300
C 	C 	0.46951 0.23530 0.94813 0.06600
H 	H 	0.43410 0.26760 0.92380 0.02900
C 	C 	0.51120 0.19950 0.02028 0.07100
H 	H 	0.50500 0.20670 0.04760 0.00500
Eu	Eu	0.46177 0.47960 0.79932 1.84000
O 	O 	0.56605 0.37270 0.77659 -0.60600
O 	O 	0.40817 0.37350 0.85291 -0.41000
O 	O 	0.10671 0.14549 0.75320 -0.48900
O 	O 	0.34294 0.37660 0.78440 -0.41300
O 	O 	0.50789 0.22600 0.80752 -0.53600
O 	O 	0.04472 0.16903 0.80031 -0.50500
N 	N 	0.43625 0.52410 0.12669 -0.23800
N 	N 	0.20513 0.55410 0.00905 -0.13200
N 	N 	0.95889 0.75000 0.98635 -0.13400
C 	C 	0.34883 0.36540 0.82411 0.29900
C 	C 	0.28124 0.38640 0.87840 -0.00100
H 	H 	0.32170 0.42410 0.89830 0.03600
C 	C 	0.28289 0.34580 0.83731 -0.10000
C 	C 	0.55535 0.24520 0.79006 0.70100
C 	C 	0.09942 0.18690 0.78853 0.45100
C 	C 	0.21909 0.37110 0.89003 -0.06000
C 	C 	0.16194 0.26300 0.81979 -0.15700
C 	C 	0.21521 0.43040 0.93203 0.10000
C 	C 	0.16063 0.30550 0.86068 0.02400
H 	H 	0.11990 0.28990 0.86870 0.02300
C 	C 	0.02987 0.67480 0.94191 -0.12200
H 	H 	0.03440 0.66900 0.91420 0.07800
C 	C 	0.14935 0.55460 0.97312 0.08500
C 	C 	0.44732 0.47460 0.09030 0.11000
H 	H 	0.49320 0.44840 0.09140 -0.03000
C 	C 	0.22281 0.28720 0.80799 0.04800
H 	H 	0.22330 0.26380 0.78010 0.03000
C 	C 	0.08330 0.62330 0.97707 0.05200
C 	C 	0.15248 0.49380 0.93415 -0.15400
H 	H 	0.11290 0.49570 0.90970 0.08100
C 	C 	0.60074 0.11990 0.78490 -1.24400
H 	H 	0.63670 0.10220 0.81190 0.40400
H 	H 	0.62260 0.14320 0.76300 0.40800
H 	H 	0.57200 0.03390 0.77650 0.40000
C 	C 	0.27241 0.42890 0.96933 -0.14900
H 	H 	0.31480 0.38560 0.96920 0.08800
C 	C 	0.39473 0.46040 0.05135 -0.16400
H 	H 	0.40550 0.42370 0.02730 0.09500
C 	C 	0.36954 0.55960 0.12336 0.11600
H 	H 	0.35980 0.59130 0.14830 -0.01800
C 	C 	0.31448 0.55270 0.08586 -0.16300
H 	H 	0.26950 0.58280 0.08560 0.09400
C 	C 	0.26594 0.49290 0.00715 0.07500
C 	C 	0.07300 0.63810 0.01767 -0.12200
H 	H 	0.10750 0.60690 0.04260 0.07900
C 	C 	0.32566 0.50070 0.04797 0.08000
C 	C 	0.96951 0.73530 0.94813 0.06500
H 	H 	0.93410 0.76760 0.92380 0.02900
C 	C 	0.01120 0.69950 0.02028 0.07200
H 	H 	0.00500 0.70670 0.04760 0.00600
Eu	Eu	0.03823 0.97960 0.70068 1.82900
O 	O 	0.93395 0.87270 0.72341 -0.60600
O 	O 	0.09183 0.87350 0.64709 -0.41100
O 	O 	0.39329 0.64549 0.74680 -0.49400
O 	O 	0.15706 0.87660 0.71560 -0.41400
O 	O 	0.99211 0.72600 0.69248 -0.53600
O 	O 	0.45528 0.66903 0.69969 -0.51000
N 	N 	0.06375 0.02410 0.37331 -0.23900
N 	N 	0.29487 0.05410 0.49095 -0.13400
N 	N 	0.54111 0.25000 0.51365 -0.13400
C 	C 	0.15117 0.86540 0.67589 0.30000
C 	C 	0.21876 0.88640 0.62160 -0.00000
H 	H 	0.17830 0.92410 0.60170 0.03500
C 	C 	0.21711 0.84580 0.66269 -0.10300
C 	C 	0.94465 0.74520 0.70994 0.69900
C 	C 	0.40058 0.68690 0.71147 0.45200
C 	C 	0.28091 0.87110 0.60997 -0.06300
C 	C 	0.33806 0.76300 0.68021 -0.16000
C 	C 	0.28479 0.93040 0.56797 0.10200
C 	C 	0.33937 0.80550 0.63932 0.02500
H 	H 	0.38010 0.78990 0.63130 0.02100
C 	C 	0.47013 0.17480 0.55809 -0.12100
H 	H 	0.46560 0.16900 0.58580 0.07800
C 	C 	0.35065 0.05460 0.52688 0.08800
C 	C 	0.05268 0.97460 0.40970 0.11400
H 	H 	0.00680 0.94840 0.40860 -0.02900
C 	C 	0.27719 0.78720 0.69201 0.04900
H 	H 	0.27670 0.76380 0.71990 0.02800
C 	C 	0.41670 0.12330 0.52293 0.05100
C 	C 	0.34752 0.99380 0.56585 -0.15700
H 	H 	0.38710 0.99570 0.59030 0.08000
C 	C 	0.89926 0.61990 0.71510 -1.23800
H 	H 	0.86330 0.60220 0.68810 0.40000
H 	H 	0.87740 0.64320 0.73700 0.40500
H 	H 	0.92800 0.53390 0.72350 0.39600
C 	C 	0.22759 0.92890 0.53067 -0.15300
H 	H 	0.18520 0.88560 0.53080 0.09000
C 	C 	0.10527 0.96040 0.44865 -0.16000
H 	H 	0.09450 0.92370 0.47270 0.09400
C 	C 	0.13046 0.05960 0.37664 0.11300
H 	H 	0.14020 0.09130 0.35170 -0.01900
C 	C 	0.18552 0.05270 0.41414 -0.16100
H 	H 	0.23050 0.08280 0.41440 0.09200
C 	C 	0.23406 0.99290 0.49285 0.08000
C 	C 	0.42700 0.13810 0.48233 -0.12100
H 	H 	0.39250 0.10690 0.45740 0.07800
C 	C 	0.17434 0.00070 0.45203 0.07400
C 	C 	0.53049 0.23530 0.55187 0.06600
H 	H 	0.56590 0.26760 0.57620 0.02900
C 	C 	0.48880 0.19950 0.47972 0.07100
H 	H 	0.49500 0.20670 0.45240 0.00500
Eu	Eu	0.53823 0.47960 0.70068 1.84000
O 	O 	0.43395 0.37270 0.72341 -0.60600
O 	O 	0.59183 0.37350 0.64709 -0.41000
O 	O 	0.89329 0.14549 0.74680 -0.48900
O 	O 	0.65706 0.37660 0.71560 -0.41300
O 	O 	0.49211 0.22600 0.69248 -0.53600
O 	O 	0.95528 0.16903 0.69969 -0.50500
N 	N 	0.56375 0.52410 0.37331 -0.23800
N 	N 	0.79487 0.55410 0.49095 -0.13200
N 	N 	0.04111 0.75000 0.51365 -0.13400
C 	C 	0.65117 0.36540 0.67589 0.29900
C 	C 	0.71876 0.38640 0.62160 -0.00100
H 	H 	0.67830 0.42410 0.60170 0.03600
C 	C 	0.71711 0.34580 0.66269 -0.10000
C 	C 	0.44465 0.24520 0.70994 0.70100
C 	C 	0.90058 0.18690 0.71147 0.45100
C 	C 	0.78091 0.37110 0.60997 -0.06100
C 	C 	0.83806 0.26300 0.68021 -0.15700
C 	C 	0.78479 0.43040 0.56797 0.10000
C 	C 	0.83937 0.30550 0.63932 0.02400
H 	H 	0.88010 0.28990 0.63130 0.02300
C 	C 	0.97013 0.67480 0.55809 -0.12200
H 	H 	0.96560 0.66900 0.58580 0.07800
C 	C 	0.85065 0.55460 0.52688 0.08500
C 	C 	0.55268 0.47460 0.40970 0.11000
H 	H 	0.50680 0.44840 0.40860 -0.03000
C 	C 	0.77719 0.28720 0.69201 0.04800
H 	H 	0.77670 0.26380 0.71990 0.03000
C 	C 	0.91670 0.62330 0.52293 0.05200
C 	C 	0.84752 0.49380 0.56585 -0.15400
H 	H 	0.88710 0.49570 0.59030 0.08100
C 	C 	0.39926 0.11990 0.71510 -1.24400
H 	H 	0.36330 0.10220 0.68810 0.40400
H 	H 	0.37740 0.14320 0.73700 0.40800
H 	H 	0.42800 0.03390 0.72350 0.40000
C 	C 	0.72759 0.42890 0.53067 -0.15000
H 	H 	0.68520 0.38560 0.53080 0.08900
C 	C 	0.60527 0.46040 0.44865 -0.16400
H 	H 	0.59450 0.42370 0.47270 0.09500
C 	C 	0.63046 0.55960 0.37664 0.11600
H 	H 	0.64020 0.59130 0.35170 -0.01800
C 	C 	0.68552 0.55270 0.41414 -0.16300
H 	H 	0.73050 0.58280 0.41440 0.09400
C 	C 	0.73406 0.49290 0.49285 0.07600
C 	C 	0.92700 0.63810 0.48233 -0.12200
H 	H 	0.89250 0.60690 0.45740 0.07900
C 	C 	0.67434 0.50070 0.45203 0.08000
C 	C 	0.03049 0.73530 0.55187 0.06600
H 	H 	0.06590 0.76760 0.57620 0.02900
C 	C 	0.98880 0.69950 0.47972 0.07200
H 	H 	0.99500 0.70670 0.45240 0.00600
Eu	Eu	0.03823 0.02040 0.20068 1.82800
O 	O 	0.93395 0.12730 0.22341 -0.60600
O 	O 	0.09183 0.12650 0.14709 -0.41100
O 	O 	0.39329 0.35451 0.24680 -0.49500
O 	O 	0.15706 0.12340 0.21560 -0.41400
O 	O 	0.99211 0.27400 0.19248 -0.53500
O 	O 	0.45528 0.33097 0.19969 -0.51000
N 	N 	0.06375 0.97590 0.87331 -0.23900
N 	N 	0.29487 0.94590 0.99095 -0.13400
N 	N 	0.54111 0.75000 0.01365 -0.13400
C 	C 	0.15117 0.13460 0.17589 0.30000
C 	C 	0.21876 0.11360 0.12160 -0.00000
H 	H 	0.17830 0.07590 0.10170 0.03500
C 	C 	0.21711 0.15420 0.16269 -0.10300
C 	C 	0.94465 0.25480 0.20994 0.69900
C 	C 	0.40058 0.31310 0.21147 0.45200
C 	C 	0.28091 0.12890 0.10997 -0.06300
C 	C 	0.33806 0.23700 0.18021 -0.16000
C 	C 	0.28479 0.06960 0.06797 0.10300
C 	C 	0.33937 0.19450 0.13932 0.02500
H 	H 	0.38010 0.21010 0.13130 0.02100
C 	C 	0.47013 0.82520 0.05809 -0.12100
H 	H 	0.46560 0.83100 0.08580 0.07800
C 	C 	0.35065 0.94540 0.02688 0.08800
C 	C 	0.05268 0.02540 0.90970 0.11400
H 	H 	0.00680 0.05160 0.90860 -0.02900
C 	C 	0.27719 0.21280 0.19201 0.04900
H 	H 	0.27670 0.23620 0.21990 0.02800
C 	C 	0.41670 0.87670 0.02293 0.05100
C 	C 	0.34752 0.00620 0.06585 -0.15800
H 	H 	0.38710 0.00430 0.09030 0.08000
C 	C 	0.89926 0.38010 0.21510 -1.23800
H 	H 	0.86330 0.39780 0.18810 0.40000
H 	H 	0.87740 0.35680 0.23700 0.40500
H 	H 	0.92800 0.46610 0.22350 0.39600
C 	C 	0.22759 0.07110 0.03067 -0.15400
H 	H 	0.18520 0.11440 0.03080 0.09000
C 	C 	0.10527 0.03960 0.94865 -0.16000
H 	H 	0.09450 0.07630 0.97270 0.09400
C 	C 	0.13046 0.94040 0.87664 0.11300
H 	H 	0.14020 0.90870 0.85170 -0.01800
C 	C 	0.18552 0.94730 0.91414 -0.16000
H 	H 	0.23050 0.91720 0.91440 0.09200
C 	C 	0.23406 0.00710 0.99285 0.08200
C 	C 	0.42700 0.86190 0.98233 -0.12100
H 	H 	0.39250 0.89310 0.95740 0.07800
C 	C 	0.17434 0.99930 0.95203 0.07300
C 	C 	0.53049 0.76470 0.05187 0.06600
H 	H 	0.56590 0.73240 0.07620 0.02900
C 	C 	0.48880 0.80050 0.97972 0.07100
H 	H 	0.49500 0.79330 0.95240 0.00500
Eu	Eu	0.53823 0.52040 0.20068 1.84000
O 	O 	0.43395 0.62730 0.22341 -0.60600
O 	O 	0.59183 0.62650 0.14709 -0.41000
O 	O 	0.89329 0.85451 0.24680 -0.48900
O 	O 	0.65706 0.62340 0.21560 -0.41300
O 	O 	0.49211 0.77400 0.19248 -0.53600
O 	O 	0.95528 0.83097 0.19969 -0.50500
N 	N 	0.56375 0.47590 0.87331 -0.23800
N 	N 	0.79487 0.44590 0.99095 -0.13200
N 	N 	0.04111 0.25000 0.01365 -0.13400
C 	C 	0.65117 0.63460 0.17589 0.29900
C 	C 	0.71876 0.61360 0.12160 -0.00100
H 	H 	0.67830 0.57590 0.10170 0.03600
C 	C 	0.71711 0.65420 0.16269 -0.10000
C 	C 	0.44465 0.75480 0.20994 0.70100
C 	C 	0.90058 0.81310 0.21147 0.45100
C 	C 	0.78091 0.62890 0.10997 -0.06000
C 	C 	0.83806 0.73700 0.18021 -0.15700
C 	C 	0.78479 0.56960 0.06797 0.10000
C 	C 	0.83937 0.69450 0.13932 0.02400
H 	H 	0.88010 0.71010 0.13130 0.02300
C 	C 	0.97013 0.32520 0.05809 -0.12200
H 	H 	0.96560 0.33100 0.08580 0.07800
C 	C 	0.85065 0.44540 0.02688 0.08500
C 	C 	0.55268 0.52540 0.90970 0.11000
H 	H 	0.50680 0.55160 0.90860 -0.03000
C 	C 	0.77719 0.71280 0.19201 0.04800
H 	H 	0.77670 0.73620 0.21990 0.03000
C 	C 	0.91670 0.37670 0.02293 0.05200
C 	C 	0.84752 0.50620 0.06585 -0.15400
H 	H 	0.88710 0.50430 0.09030 0.08100
C 	C 	0.39926 0.88010 0.21510 -1.24400
H 	H 	0.36330 0.89780 0.18810 0.40400
H 	H 	0.37740 0.85680 0.23700 0.40800
H 	H 	0.42800 0.96610 0.22350 0.40000
C 	C 	0.72759 0.57110 0.03067 -0.14900
H 	H 	0.68520 0.61440 0.03080 0.08800
C 	C 	0.60527 0.53960 0.94865 -0.16400
H 	H 	0.59450 0.57630 0.97270 0.09500
C 	C 	0.63046 0.44040 0.87664 0.11600
H 	H 	0.64020 0.40870 0.85170 -0.01800
C 	C 	0.68552 0.44730 0.91414 -0.16300
H 	H 	0.73050 0.41720 0.91440 0.09400
C 	C 	0.73406 0.50710 0.99285 0.07500
C 	C 	0.92700 0.36190 0.98233 -0.12200
H 	H 	0.89250 0.39310 0.95740 0.07900
C 	C 	0.67434 0.49930 0.95203 0.08000
C 	C 	0.03049 0.26470 0.05187 0.06500
H 	H 	0.06590 0.23240 0.07620 0.02900
C 	C 	0.98880 0.30050 0.97972 0.07200
H 	H 	0.99500 0.29330 0.95240 0.00600
Eu	Eu	0.96177 0.02040 0.29932 1.82900
O 	O 	0.06605 0.12730 0.27659 -0.60600
O 	O 	0.90817 0.12650 0.35291 -0.41100
O 	O 	0.60671 0.35451 0.25320 -0.49400
O 	O 	0.84294 0.12340 0.28440 -0.41400
O 	O 	0.00789 0.27400 0.30752 -0.53600
O 	O 	0.54472 0.33097 0.30031 -0.51000
N 	N 	0.93625 0.97590 0.62669 -0.23900
N 	N 	0.70513 0.94590 0.50905 -0.13400
N 	N 	0.45889 0.75000 0.48635 -0.13400
C 	C 	0.84883 0.13460 0.32411 0.30000
C 	C 	0.78124 0.11360 0.37840 -0.00000
H 	H 	0.82170 0.07590 0.39830 0.03500
C 	C 	0.78289 0.15420 0.33731 -0.10300
C 	C 	0.05535 0.25480 0.29006 0.69900
C 	C 	0.59942 0.31310 0.28853 0.45200
C 	C 	0.71909 0.12890 0.39003 -0.06300
C 	C 	0.66194 0.23700 0.31979 -0.16000
C 	C 	0.71521 0.06960 0.43203 0.10200
C 	C 	0.66063 0.19450 0.36068 0.02500
H 	H 	0.61990 0.21010 0.36870 0.02100
C 	C 	0.52987 0.82520 0.44191 -0.12100
H 	H 	0.53440 0.83100 0.41420 0.07800
C 	C 	0.64935 0.94540 0.47312 0.08800
C 	C 	0.94732 0.02540 0.59030 0.11400
H 	H 	0.99320 0.05160 0.59140 -0.02900
C 	C 	0.72281 0.21280 0.30799 0.04900
H 	H 	0.72330 0.23620 0.28010 0.02800
C 	C 	0.58330 0.87670 0.47707 0.05100
C 	C 	0.65248 0.00620 0.43415 -0.15700
H 	H 	0.61290 0.00430 0.40970 0.08000
C 	C 	0.10074 0.38010 0.28490 -1.23800
H 	H 	0.13670 0.39780 0.31190 0.40000
H 	H 	0.12260 0.35680 0.26300 0.40500
H 	H 	0.07200 0.46610 0.27650 0.39600
C 	C 	0.77241 0.07110 0.46933 -0.15300
H 	H 	0.81480 0.11440 0.46920 0.09000
C 	C 	0.89473 0.03960 0.55135 -0.16000
H 	H 	0.90550 0.07630 0.52730 0.09400
C 	C 	0.86954 0.94040 0.62336 0.11300
H 	H 	0.85980 0.90870 0.64830 -0.01900
C 	C 	0.81448 0.94730 0.58586 -0.16100
H 	H 	0.76950 0.91720 0.58560 0.09200
C 	C 	0.76594 0.00710 0.50715 0.08000
C 	C 	0.57300 0.86190 0.51767 -0.12100
H 	H 	0.60750 0.89310 0.54260 0.07800
C 	C 	0.82566 0.99930 0.54797 0.07400
C 	C 	0.46951 0.76470 0.44813 0.06600
H 	H 	0.43410 0.73240 0.42380 0.02900
C 	C 	0.51120 0.80050 0.52028 0.07100
H 	H 	0.50500 0.79330 0.54760 0.00500
Eu	Eu	0.46177 0.52040 0.29932 1.84000
O 	O 	0.56605 0.62730 0.27659 -0.60600
O 	O 	0.40817 0.62650 0.35291 -0.41000
O 	O 	0.10671 0.85451 0.25320 -0.48900
O 	O 	0.34294 0.62340 0.28440 -0.41300
O 	O 	0.50789 0.77400 0.30752 -0.53600
O 	O 	0.04472 0.83097 0.30031 -0.50500
N 	N 	0.43625 0.47590 0.62669 -0.23800
N 	N 	0.20513 0.44590 0.50905 -0.13200
N 	N 	0.95889 0.25000 0.48635 -0.13400
C 	C 	0.34883 0.63460 0.32411 0.29900
C 	C 	0.28124 0.61360 0.37840 -0.00100
H 	H 	0.32170 0.57590 0.39830 0.03600
C 	C 	0.28289 0.65420 0.33731 -0.10000
C 	C 	0.55535 0.75480 0.29006 0.70100
C 	C 	0.09942 0.81310 0.28853 0.45100
C 	C 	0.21909 0.62890 0.39003 -0.06100
C 	C 	0.16194 0.73700 0.31979 -0.15700
C 	C 	0.21521 0.56960 0.43203 0.10000
C 	C 	0.16063 0.69450 0.36068 0.02400
H 	H 	0.11990 0.71010 0.36870 0.02300
C 	C 	0.02987 0.32520 0.44191 -0.12200
H 	H 	0.03440 0.33100 0.41420 0.07800
C 	C 	0.14935 0.44540 0.47312 0.08500
C 	C 	0.44732 0.52540 0.59030 0.11000
H 	H 	0.49320 0.55160 0.59140 -0.03000
C 	C 	0.22281 0.71280 0.30799 0.04800
H 	H 	0.22330 0.73620 0.28010 0.03000
C 	C 	0.08330 0.37670 0.47707 0.05200
C 	C 	0.15248 0.50620 0.43415 -0.15400
H 	H 	0.11290 0.50430 0.40970 0.08100
C 	C 	0.60074 0.88010 0.28490 -1.24400
H 	H 	0.63670 0.89780 0.31190 0.40400
H 	H 	0.62260 0.85680 0.26300 0.40800
H 	H 	0.57200 0.96610 0.27650 0.40000
C 	C 	0.27241 0.57110 0.46933 -0.15000
H 	H 	0.31480 0.61440 0.46920 0.08900
C 	C 	0.39473 0.53960 0.55135 -0.16400
H 	H 	0.40550 0.57630 0.52730 0.09500
C 	C 	0.36954 0.44040 0.62336 0.11600
H 	H 	0.35980 0.40870 0.64830 -0.01800
C 	C 	0.31448 0.44730 0.58586 -0.16300
H 	H 	0.26950 0.41720 0.58560 0.09400
C 	C 	0.26594 0.50710 0.50715 0.07600
C 	C 	0.07300 0.36190 0.51767 -0.12200
H 	H 	0.10750 0.39310 0.54260 0.07900
C 	C 	0.32566 0.49930 0.54797 0.08000
C 	C 	0.96951 0.26470 0.44813 0.06600
H 	H 	0.93410 0.23240 0.42380 0.02900
C 	C 	0.01120 0.30050 0.52028 0.07200
H 	H 	0.00500 0.29330 0.54760 0.00600
