data_crystal

_cell_length_a 11.68440
_cell_length_b 11.68440
_cell_length_c 27.55500
_cell_angle_alpha 90.00000
_cell_angle_beta  90.00000
_cell_angle_gamma 90.00000

_symmetry_space_group_name_	'P 1'
_symmetry_space_group_name_H-M	'P 1'

loop_
_symmetry_equiv_pos_as_xyz
  x,y,z

loop_
_atom_site_label
_atom_site_type_symbol
_atom_site_fract_x
_atom_site_fract_y
_atom_site_fract_z
_atom_site_charge
Li	Li	0.22970 0.28300 0.08170 0.54600
C 	C 	0.11420 0.86930 0.08506 0.07900
H 	H 	0.10130 0.81130 0.10750 -0.03000
C 	C 	0.15260 0.92360 0.00944 0.12700
C 	C 	0.13830 0.03650 0.02277 -0.08200
C 	C 	0.11710 0.06690 0.07148 0.23700
C 	C 	0.17540 0.02360 0.94623 0.09100
H 	H 	0.18860 0.04460 0.91420 -0.02900
N 	N 	0.10190 0.97610 0.10201 -0.28500
N 	N 	0.14190 0.83480 0.04101 -0.16400
N 	N 	0.17670 0.91550 0.96104 -0.19100
N 	N 	0.15340 0.09960 0.98110 -0.17300
O 	O 	0.11200 0.16790 0.08735 -0.45000
H 	H 	0.16300 0.94900 0.11700 0.08700
H 	H 	0.24200 0.87100 0.95200 -0.04900
H 	H 	0.14600 0.17600 0.97300 0.10400
Li	Li	0.72970 0.78300 0.58170 0.54600
C 	C 	0.61420 0.36930 0.58506 0.08400
H 	H 	0.60130 0.31130 0.60750 -0.02400
C 	C 	0.65260 0.42360 0.50944 0.13100
C 	C 	0.63830 0.53650 0.52277 -0.07400
C 	C 	0.61710 0.56690 0.57148 0.24200
C 	C 	0.67540 0.52360 0.44623 0.09900
H 	H 	0.68860 0.54460 0.41420 -0.02600
N 	N 	0.60190 0.47610 0.60201 -0.28300
N 	N 	0.64190 0.33480 0.54101 -0.16100
N 	N 	0.67670 0.41550 0.46104 -0.19100
N 	N 	0.65340 0.59960 0.48110 -0.17300
O 	O 	0.61200 0.66790 0.58735 -0.44100
H 	H 	0.66300 0.44900 0.61700 0.08800
H 	H 	0.74200 0.37100 0.45200 -0.04600
H 	H 	0.64600 0.67600 0.47300 0.11000
Li	Li	0.27030 0.71700 0.58170 0.54500
C 	C 	0.38580 0.13070 0.58506 0.08100
H 	H 	0.39870 0.18870 0.60750 -0.02500
C 	C 	0.34740 0.07640 0.50944 0.12600
C 	C 	0.36170 0.96350 0.52277 -0.07600
C 	C 	0.38290 0.93310 0.57148 0.23900
C 	C 	0.32460 0.97640 0.44623 0.09400
H 	H 	0.31140 0.95540 0.41420 -0.02900
N 	N 	0.39810 0.02390 0.60201 -0.28000
N 	N 	0.35810 0.16520 0.54101 -0.16300
N 	N 	0.32330 0.08450 0.46104 -0.18900
N 	N 	0.34660 0.90040 0.48110 -0.17400
O 	O 	0.38800 0.83210 0.58735 -0.44200
H 	H 	0.33700 0.05100 0.61700 0.08300
H 	H 	0.25800 0.12900 0.45200 -0.05400
H 	H 	0.35400 0.82400 0.47300 0.10700
Li	Li	0.77030 0.21700 0.08170 0.54600
C 	C 	0.88580 0.63070 0.08506 0.08700
H 	H 	0.89870 0.68870 0.10750 -0.01800
C 	C 	0.84740 0.57640 0.00944 0.13300
C 	C 	0.86170 0.46350 0.02277 -0.06900
C 	C 	0.88290 0.43310 0.07148 0.24400
C 	C 	0.82460 0.47640 0.94623 0.10200
H 	H 	0.81140 0.45540 0.91420 -0.02500
N 	N 	0.89810 0.52390 0.10201 -0.27600
N 	N 	0.85810 0.66520 0.04101 -0.15900
N 	N 	0.82330 0.58450 0.96104 -0.18800
N 	N 	0.84660 0.40040 0.98110 -0.17300
O 	O 	0.88800 0.33210 0.08735 -0.43100
H 	H 	0.83700 0.55100 0.11700 0.08500
H 	H 	0.75800 0.62900 0.95200 -0.05000
H 	H 	0.85400 0.32400 0.97300 0.11400
Li	Li	0.46700 0.47970 0.33170 0.54500
C 	C 	0.88070 0.36420 0.33506 0.08300
H 	H 	0.93870 0.35130 0.35750 -0.01300
C 	C 	0.82640 0.40260 0.25944 0.13300
C 	C 	0.71350 0.38830 0.27277 -0.07600
C 	C 	0.68310 0.36710 0.32148 0.24200
C 	C 	0.72640 0.42540 0.19623 0.09700
H 	H 	0.70540 0.43860 0.16420 -0.02800
N 	N 	0.77390 0.35190 0.35201 -0.28100
N 	N 	0.91520 0.39190 0.29101 -0.15200
N 	N 	0.83450 0.42670 0.21104 -0.18900
N 	N 	0.65040 0.40340 0.23110 -0.17400
O 	O 	0.58210 0.36200 0.33735 -0.44200
H 	H 	0.80100 0.41300 0.36700 0.08800
H 	H 	0.87900 0.49200 0.20200 -0.04200
H 	H 	0.57400 0.39600 0.22300 0.10900
Li	Li	0.96700 0.97970 0.83170 0.54700
C 	C 	0.38070 0.86420 0.83506 0.08200
H 	H 	0.43870 0.85130 0.85750 -0.02500
C 	C 	0.32640 0.90260 0.75944 0.13000
C 	C 	0.21350 0.88830 0.77277 -0.08200
C 	C 	0.18310 0.86710 0.82148 0.24300
C 	C 	0.22640 0.92540 0.69623 0.09200
H 	H 	0.20540 0.93860 0.66420 -0.03100
N 	N 	0.27390 0.85190 0.85201 -0.28300
N 	N 	0.41520 0.89190 0.79101 -0.16300
N 	N 	0.33450 0.92670 0.71104 -0.19000
N 	N 	0.15040 0.90340 0.73110 -0.17200
O 	O 	0.08210 0.86200 0.83735 -0.45800
H 	H 	0.30100 0.91300 0.86700 0.08500
H 	H 	0.37900 0.99200 0.70200 -0.05100
H 	H 	0.07400 0.89600 0.72300 0.09600
Li	Li	0.03300 0.52030 0.83170 0.54300
C 	C 	0.61930 0.63580 0.83506 0.08200
H 	H 	0.56130 0.64870 0.85750 -0.02400
C 	C 	0.67360 0.59740 0.75944 0.12800
C 	C 	0.78650 0.61170 0.77277 -0.06800
C 	C 	0.81690 0.63290 0.82148 0.23800
C 	C 	0.77360 0.57460 0.69623 0.09900
H 	H 	0.79460 0.56140 0.66420 -0.02400
N 	N 	0.72610 0.64810 0.85201 -0.28100
N 	N 	0.58480 0.60810 0.79101 -0.16200
N 	N 	0.66550 0.57330 0.71104 -0.19000
N 	N 	0.84960 0.59660 0.73110 -0.17500
O 	O 	0.91790 0.63800 0.83735 -0.42300
H 	H 	0.69900 0.58700 0.86700 0.08600
H 	H 	0.62100 0.50800 0.70200 -0.04900
H 	H 	0.92600 0.60400 0.72300 0.12200
Li	Li	0.53300 0.02030 0.33170 0.54500
C 	C 	0.11930 0.13580 0.33506 0.08200
H 	H 	0.06130 0.14870 0.35750 -0.03600
C 	C 	0.17360 0.09740 0.25944 0.12400
C 	C 	0.28650 0.11170 0.27277 -0.07500
C 	C 	0.31690 0.13290 0.32148 0.23900
C 	C 	0.27360 0.07460 0.19623 0.09400
H 	H 	0.29460 0.06140 0.16420 -0.02800
N 	N 	0.22610 0.14810 0.35201 -0.28200
N 	N 	0.08480 0.10810 0.29101 -0.17300
N 	N 	0.16550 0.07330 0.21104 -0.19100
N 	N 	0.34960 0.09660 0.23110 -0.17400
O 	O 	0.41790 0.13800 0.33735 -0.44200
H 	H 	0.19900 0.08700 0.36700 0.08200
H 	H 	0.12100 0.00800 0.20200 -0.05700
H 	H 	0.42600 0.10400 0.22300 0.10900
Li	Li	0.77030 0.71700 0.91830 0.54600
C 	C 	0.88580 0.13070 0.91494 0.08800
H 	H 	0.89870 0.18870 0.89250 -0.01800
C 	C 	0.84740 0.07640 0.99056 0.13600
C 	C 	0.86170 0.96350 0.97723 -0.07200
C 	C 	0.88290 0.93310 0.92852 0.24300
C 	C 	0.82460 0.97640 0.05377 0.10000
H 	H 	0.81140 0.95540 0.08580 -0.02500
N 	N 	0.89810 0.02390 0.89799 -0.27500
N 	N 	0.85810 0.16520 0.95899 -0.16000
N 	N 	0.82330 0.08450 0.03896 -0.18700
N 	N 	0.84660 0.90040 0.01890 -0.17300
O 	O 	0.88800 0.83210 0.91265 -0.43200
H 	H 	0.83700 0.05100 0.88300 0.08500
H 	H 	0.75800 0.12900 0.04800 -0.05000
H 	H 	0.85400 0.82400 0.02700 0.11300
Li	Li	0.27030 0.21700 0.41830 0.54500
C 	C 	0.38580 0.63070 0.41494 0.08100
H 	H 	0.39870 0.68870 0.39250 -0.02500
C 	C 	0.34740 0.57640 0.49056 0.12600
C 	C 	0.36170 0.46350 0.47723 -0.07600
C 	C 	0.38290 0.43310 0.42852 0.23900
C 	C 	0.32460 0.47640 0.55377 0.09300
H 	H 	0.31140 0.45540 0.58580 -0.02900
N 	N 	0.39810 0.52390 0.39799 -0.28100
N 	N 	0.35810 0.66520 0.45899 -0.16300
N 	N 	0.32330 0.58450 0.53896 -0.18900
N 	N 	0.34660 0.40040 0.51890 -0.17400
O 	O 	0.38800 0.33210 0.41265 -0.44300
H 	H 	0.33700 0.55100 0.38300 0.08300
H 	H 	0.25800 0.62900 0.54800 -0.05300
H 	H 	0.35400 0.32400 0.52700 0.10700
Li	Li	0.72970 0.28300 0.41830 0.54600
C 	C 	0.61420 0.86930 0.41494 0.08300
H 	H 	0.60130 0.81130 0.39250 -0.02400
C 	C 	0.65260 0.92360 0.49056 0.13000
C 	C 	0.63830 0.03650 0.47723 -0.07300
C 	C 	0.61710 0.06690 0.42852 0.24200
C 	C 	0.67540 0.02360 0.55377 0.10000
H 	H 	0.68860 0.04460 0.58580 -0.02600
N 	N 	0.60190 0.97610 0.39799 -0.28300
N 	N 	0.64190 0.83480 0.45899 -0.16100
N 	N 	0.67670 0.91550 0.53896 -0.19100
N 	N 	0.65340 0.09960 0.51890 -0.17400
O 	O 	0.61200 0.16790 0.41265 -0.44100
H 	H 	0.66300 0.94900 0.38300 0.08700
H 	H 	0.74200 0.87100 0.54800 -0.04600
H 	H 	0.64600 0.17600 0.52700 0.11000
Li	Li	0.22970 0.78300 0.91830 0.54500
C 	C 	0.11420 0.36930 0.91494 0.07700
H 	H 	0.10130 0.31130 0.89250 -0.03100
C 	C 	0.15260 0.42360 0.99056 0.12400
C 	C 	0.13830 0.53650 0.97723 -0.08100
C 	C 	0.11710 0.56690 0.92852 0.23700
C 	C 	0.17540 0.52360 0.05377 0.09000
H 	H 	0.18860 0.54460 0.08580 -0.03000
N 	N 	0.10190 0.47610 0.89799 -0.28700
N 	N 	0.14190 0.33480 0.95899 -0.16500
N 	N 	0.17670 0.41550 0.03896 -0.19200
N 	N 	0.15340 0.59960 0.01890 -0.17400
O 	O 	0.11200 0.66790 0.91265 -0.45000
H 	H 	0.16300 0.44900 0.88300 0.08600
H 	H 	0.24200 0.37100 0.04800 -0.05000
H 	H 	0.14600 0.67600 0.02700 0.10400
Li	Li	0.53300 0.52030 0.66830 0.54500
C 	C 	0.11930 0.63580 0.66494 0.08200
H 	H 	0.06130 0.64870 0.64250 -0.03600
C 	C 	0.17360 0.59740 0.74056 0.12400
C 	C 	0.28650 0.61170 0.72723 -0.07500
C 	C 	0.31690 0.63290 0.67852 0.23900
C 	C 	0.27360 0.57460 0.80377 0.09400
H 	H 	0.29460 0.56140 0.83580 -0.02800
N 	N 	0.22610 0.64810 0.64799 -0.28200
N 	N 	0.08480 0.60810 0.70899 -0.17200
N 	N 	0.16550 0.57330 0.78896 -0.19100
N 	N 	0.34960 0.59660 0.76890 -0.17400
O 	O 	0.41790 0.63800 0.66265 -0.44200
H 	H 	0.19900 0.58700 0.63300 0.08300
H 	H 	0.12100 0.50800 0.79800 -0.05700
H 	H 	0.42600 0.60400 0.77700 0.10900
Li	Li	0.03300 0.02030 0.16830 0.54300
C 	C 	0.61930 0.13580 0.16494 0.08200
H 	H 	0.56130 0.14870 0.14250 -0.02400
C 	C 	0.67360 0.09740 0.24056 0.12700
C 	C 	0.78650 0.11170 0.22723 -0.06800
C 	C 	0.81690 0.13290 0.17852 0.23800
C 	C 	0.77360 0.07460 0.30377 0.09900
H 	H 	0.79460 0.06140 0.33580 -0.02400
N 	N 	0.72610 0.14810 0.14799 -0.28000
N 	N 	0.58480 0.10810 0.20899 -0.16200
N 	N 	0.66550 0.07330 0.28896 -0.19000
N 	N 	0.84960 0.09660 0.26890 -0.17500
O 	O 	0.91790 0.13800 0.16265 -0.42300
H 	H 	0.69900 0.08700 0.13300 0.08600
H 	H 	0.62100 0.00800 0.29800 -0.04900
H 	H 	0.92600 0.10400 0.27700 0.12300
Li	Li	0.96700 0.47970 0.16830 0.54800
C 	C 	0.38070 0.36420 0.16494 0.08200
H 	H 	0.43870 0.35130 0.14250 -0.02500
C 	C 	0.32640 0.40260 0.24056 0.13000
C 	C 	0.21350 0.38830 0.22723 -0.08200
C 	C 	0.18310 0.36710 0.17852 0.24300
C 	C 	0.22640 0.42540 0.30377 0.09200
H 	H 	0.20540 0.43860 0.33580 -0.03100
N 	N 	0.27390 0.35190 0.14799 -0.28300
N 	N 	0.41520 0.39190 0.20899 -0.16300
N 	N 	0.33450 0.42670 0.28896 -0.19000
N 	N 	0.15040 0.40340 0.26890 -0.17200
O 	O 	0.08210 0.36200 0.16265 -0.45900
H 	H 	0.30100 0.41300 0.13300 0.08500
H 	H 	0.37900 0.49200 0.29800 -0.05000
H 	H 	0.07400 0.39600 0.27700 0.09500
Li	Li	0.46700 0.97970 0.66830 0.54500
C 	C 	0.88070 0.86420 0.66494 0.08300
H 	H 	0.93870 0.85130 0.64250 -0.01300
C 	C 	0.82640 0.90260 0.74056 0.13300
C 	C 	0.71350 0.88830 0.72723 -0.07600
C 	C 	0.68310 0.86710 0.67852 0.24200
C 	C 	0.72640 0.92540 0.80377 0.09700
H 	H 	0.70540 0.93860 0.83580 -0.02800
N 	N 	0.77390 0.85190 0.64799 -0.28100
N 	N 	0.91520 0.89190 0.70899 -0.15200
N 	N 	0.83450 0.92670 0.78896 -0.18900
N 	N 	0.65040 0.90340 0.76890 -0.17400
O 	O 	0.58210 0.86200 0.66265 -0.44200
H 	H 	0.80100 0.91300 0.63300 0.08800
H 	H 	0.87900 0.99200 0.79800 -0.04300
H 	H 	0.57400 0.89600 0.77700 0.10900
Li	Li	-0.00000 0.25000 0.12500 0.55200
Li	Li	0.50000 0.75000 0.62500 0.55500
Li	Li	0.50000 0.25000 0.37500 0.55500
Li	Li	0.00000 0.75000 0.87500 0.55200
