data_crystal

_cell_length_a 11.69850
_cell_length_b 11.69850
_cell_length_c 27.66900
_cell_angle_alpha 90.00000
_cell_angle_beta  90.00000
_cell_angle_gamma 90.00000

_symmetry_space_group_name_	'P 1'
_symmetry_space_group_name_H-M	'P 1'

loop_
_symmetry_equiv_pos_as_xyz
  x,y,z

loop_
_atom_site_label
_atom_site_type_symbol
_atom_site_fract_x
_atom_site_fract_y
_atom_site_fract_z
_atom_site_charge
Li	Li	0.22820 0.21620 0.08150 0.54900
C 	C 	0.15210 0.57630 0.01006 0.13400
C 	C 	0.13850 0.46300 0.02294 -0.08800
C 	C 	0.11760 0.43360 0.07185 0.22500
C 	C 	0.11560 0.63080 0.08510 0.11400
H 	H 	0.10350 0.68890 0.10750 -0.03400
C 	C 	0.17500 0.47730 0.94640 0.06100
H 	H 	0.18840 0.45680 0.91440 -0.00700
N 	N 	0.10360 0.52440 0.10221 -0.20400
N 	N 	0.14210 0.66490 0.04103 -0.23100
N 	N 	0.15250 0.39970 0.98104 -0.12100
N 	N 	0.17680 0.58510 0.96125 -0.16100
O 	O 	0.11190 0.33180 0.08731 -0.43200
H 	H 	0.08710 0.51320 0.13210 -0.05300
H 	H 	0.15240 0.73850 0.03260 0.12400
H 	H 	0.19010 0.64570 0.94460 -0.07900
Li	Li	0.72820 0.71620 0.58150 0.55100
C 	C 	0.65210 0.07630 0.51006 0.14200
C 	C 	0.63850 0.96300 0.52294 -0.08100
C 	C 	0.61760 0.93360 0.57185 0.23200
C 	C 	0.61560 0.13080 0.58510 0.12400
H 	H 	0.60350 0.18890 0.60750 -0.02800
C 	C 	0.67500 0.97730 0.44640 0.07000
H 	H 	0.68840 0.95680 0.41440 -0.00300
N 	N 	0.60360 0.02440 0.60221 -0.20400
N 	N 	0.64210 0.16490 0.54103 -0.23000
N 	N 	0.65250 0.89970 0.48104 -0.11700
N 	N 	0.67680 0.08510 0.46125 -0.16100
O 	O 	0.61190 0.83180 0.58731 -0.42300
H 	H 	0.58710 0.01320 0.63210 -0.04600
H 	H 	0.65240 0.23850 0.53260 0.13000
H 	H 	0.69010 0.14570 0.44460 -0.07500
Li	Li	0.27180 0.78380 0.58150 0.55000
C 	C 	0.34790 0.42370 0.51006 0.13800
C 	C 	0.36150 0.53700 0.52294 -0.08400
C 	C 	0.38240 0.56640 0.57185 0.22900
C 	C 	0.38440 0.36920 0.58510 0.11900
H 	H 	0.39650 0.31110 0.60750 -0.02900
C 	C 	0.32500 0.52270 0.44640 0.06400
H 	H 	0.31160 0.54320 0.41440 -0.00600
N 	N 	0.39640 0.47560 0.60221 -0.20400
N 	N 	0.35790 0.33510 0.54103 -0.23000
N 	N 	0.34750 0.60030 0.48104 -0.11900
N 	N 	0.32320 0.41490 0.46125 -0.16000
O 	O 	0.38810 0.66820 0.58731 -0.42500
H 	H 	0.41290 0.48680 0.63210 -0.04700
H 	H 	0.34760 0.26150 0.53260 0.12600
H 	H 	0.30990 0.35430 0.44460 -0.07800
Li	Li	0.77180 0.28380 0.08150 0.55000
C 	C 	0.84790 0.92370 0.01006 0.14900
C 	C 	0.86150 0.03700 0.02294 -0.08200
C 	C 	0.88240 0.06640 0.07185 0.23400
C 	C 	0.88440 0.86920 0.08510 0.12900
H 	H 	0.89650 0.81110 0.10750 -0.02300
C 	C 	0.82500 0.02270 0.94640 0.07100
H 	H 	0.81160 0.04320 0.91440 -0.00200
N 	N 	0.89640 0.97560 0.10221 -0.20300
N 	N 	0.85790 0.83510 0.04103 -0.23100
N 	N 	0.84750 0.10030 0.98104 -0.11400
N 	N 	0.82320 0.91490 0.96125 -0.16000
O 	O 	0.88810 0.16820 0.08731 -0.41500
H 	H 	0.91290 0.98680 0.13210 -0.03900
H 	H 	0.84760 0.76150 0.03260 0.13200
H 	H 	0.80990 0.85430 0.94460 -0.07400
Li	Li	0.53380 0.47820 0.33150 0.55000
C 	C 	0.17370 0.40210 0.26006 0.13300
C 	C 	0.28700 0.38850 0.27294 -0.08200
C 	C 	0.31640 0.36760 0.32185 0.22900
C 	C 	0.11920 0.36560 0.33510 0.11600
H 	H 	0.06110 0.35350 0.35750 -0.03700
C 	C 	0.27270 0.42500 0.19640 0.06400
H 	H 	0.29320 0.43840 0.16440 -0.00400
N 	N 	0.22560 0.35360 0.35221 -0.20300
N 	N 	0.08510 0.39210 0.29103 -0.22900
N 	N 	0.35030 0.40250 0.23104 -0.11800
N 	N 	0.16490 0.42680 0.21125 -0.15900
O 	O 	0.41820 0.36190 0.33731 -0.42400
H 	H 	0.23680 0.33710 0.38210 -0.04900
H 	H 	0.01150 0.40240 0.28260 0.11400
H 	H 	0.10430 0.44010 0.19460 -0.08400
Li	Li	0.03380 0.97820 0.83150 0.54800
C 	C 	0.67370 0.90210 0.76006 0.14000
C 	C 	0.78700 0.88850 0.77294 -0.07800
C 	C 	0.81640 0.86760 0.82185 0.22900
C 	C 	0.61920 0.86560 0.83510 0.12200
H 	H 	0.56110 0.85350 0.85750 -0.02800
C 	C 	0.77270 0.92500 0.69640 0.06800
H 	H 	0.79320 0.93840 0.66440 0.00100
N 	N 	0.72560 0.85360 0.85221 -0.20300
N 	N 	0.58510 0.89210 0.79103 -0.23000
N 	N 	0.85030 0.90250 0.73104 -0.10900
N 	N 	0.66490 0.92680 0.71125 -0.16000
O 	O 	0.91820 0.86190 0.83731 -0.40500
H 	H 	0.73680 0.83710 0.88210 -0.04600
H 	H 	0.51150 0.90240 0.78260 0.12800
H 	H 	0.60430 0.94010 0.69460 -0.07600
Li	Li	0.96620 0.52180 0.83150 0.55200
C 	C 	0.32630 0.59790 0.76006 0.14100
C 	C 	0.21300 0.61150 0.77294 -0.08800
C 	C 	0.18360 0.63240 0.82185 0.23200
C 	C 	0.38080 0.63440 0.83510 0.12100
H 	H 	0.43890 0.64650 0.85750 -0.02800
C 	C 	0.22730 0.57500 0.69640 0.06500
H 	H 	0.20680 0.56160 0.66440 -0.01000
N 	N 	0.27440 0.64640 0.85221 -0.20500
N 	N 	0.41490 0.60790 0.79103 -0.23100
N 	N 	0.14970 0.59750 0.73104 -0.12700
N 	N 	0.33510 0.57320 0.71125 -0.16100
O 	O 	0.08180 0.63810 0.83731 -0.44200
H 	H 	0.26320 0.66290 0.88210 -0.04700
H 	H 	0.48850 0.59760 0.78260 0.12800
H 	H 	0.39570 0.55990 0.69460 -0.07700
Li	Li	0.46620 0.02180 0.33150 0.55000
C 	C 	0.82630 0.09790 0.26006 0.14700
C 	C 	0.71300 0.11150 0.27294 -0.08500
C 	C 	0.68360 0.13240 0.32185 0.23200
C 	C 	0.88080 0.13440 0.33510 0.12600
H 	H 	0.93890 0.14650 0.35750 -0.02000
C 	C 	0.72730 0.07500 0.19640 0.06800
H 	H 	0.70680 0.06160 0.16440 -0.00600
N 	N 	0.77440 0.14640 0.35221 -0.20400
N 	N 	0.91490 0.10790 0.29103 -0.23200
N 	N 	0.64970 0.09750 0.23104 -0.11800
N 	N 	0.83510 0.07320 0.21125 -0.16200
O 	O 	0.58180 0.13810 0.33731 -0.42500
H 	H 	0.76320 0.16290 0.38210 -0.04400
H 	H 	0.98850 0.09760 0.28260 0.14200
H 	H 	0.89570 0.05990 0.19460 -0.07000
Li	Li	0.77180 0.78380 0.91850 0.55000
C 	C 	0.84790 0.42370 0.98994 0.14600
C 	C 	0.86150 0.53700 0.97706 -0.07900
C 	C 	0.88240 0.56640 0.92815 0.23600
C 	C 	0.88440 0.36920 0.91490 0.12900
H 	H 	0.89650 0.31110 0.89250 -0.02300
C 	C 	0.82500 0.52270 0.05360 0.07200
H 	H 	0.81160 0.54320 0.08560 -0.00200
N 	N 	0.89640 0.47560 0.89779 -0.20400
N 	N 	0.85790 0.33510 0.95897 -0.23000
N 	N 	0.84750 0.60030 0.01896 -0.11500
N 	N 	0.82320 0.41490 0.03875 -0.16000
O 	O 	0.88810 0.66820 0.91269 -0.41500
H 	H 	0.91290 0.48680 0.86790 -0.04000
H 	H 	0.84760 0.26150 0.96740 0.13200
H 	H 	0.80990 0.35430 0.05540 -0.07400
Li	Li	0.27180 0.28380 0.41850 0.55000
C 	C 	0.34790 0.92370 0.48994 0.13700
C 	C 	0.36150 0.03700 0.47706 -0.08400
C 	C 	0.38240 0.06640 0.42815 0.22900
C 	C 	0.38440 0.86920 0.41490 0.11900
H 	H 	0.39650 0.81110 0.39250 -0.02900
C 	C 	0.32500 0.02270 0.55360 0.06500
H 	H 	0.31160 0.04320 0.58560 -0.00600
N 	N 	0.39640 0.97560 0.39779 -0.20400
N 	N 	0.35790 0.83510 0.45897 -0.23000
N 	N 	0.34750 0.10030 0.51896 -0.11900
N 	N 	0.32320 0.91490 0.53875 -0.16100
O 	O 	0.38810 0.16820 0.41269 -0.42500
H 	H 	0.41290 0.98680 0.36790 -0.04700
H 	H 	0.34760 0.76150 0.46740 0.12600
H 	H 	0.30990 0.85430 0.55540 -0.07800
Li	Li	0.72820 0.21620 0.41850 0.55100
C 	C 	0.65210 0.57630 0.48994 0.14300
C 	C 	0.63850 0.46300 0.47706 -0.08200
C 	C 	0.61760 0.43360 0.42815 0.23200
C 	C 	0.61560 0.63080 0.41490 0.12400
H 	H 	0.60350 0.68890 0.39250 -0.02800
C 	C 	0.67500 0.47730 0.55360 0.06900
H 	H 	0.68840 0.45680 0.58560 -0.00300
N 	N 	0.60360 0.52440 0.39779 -0.20400
N 	N 	0.64210 0.66490 0.45897 -0.23000
N 	N 	0.65250 0.39970 0.51896 -0.11700
N 	N 	0.67680 0.58510 0.53875 -0.16000
O 	O 	0.61190 0.33180 0.41269 -0.42300
H 	H 	0.58710 0.51320 0.36790 -0.04600
H 	H 	0.65240 0.73850 0.46740 0.13000
H 	H 	0.69010 0.64570 0.55540 -0.07400
Li	Li	0.22820 0.71620 0.91850 0.55000
C 	C 	0.15210 0.07630 0.98994 0.13700
C 	C 	0.13850 0.96300 0.97706 -0.08900
C 	C 	0.11760 0.93360 0.92815 0.22400
C 	C 	0.11560 0.13080 0.91490 0.11500
H 	H 	0.10350 0.18890 0.89250 -0.03400
C 	C 	0.17500 0.97730 0.05360 0.06000
H 	H 	0.18840 0.95680 0.08560 -0.00700
N 	N 	0.10360 0.02440 0.89779 -0.20300
N 	N 	0.14210 0.16490 0.95897 -0.23100
N 	N 	0.15250 0.89970 0.01896 -0.12100
N 	N 	0.17680 0.08510 0.03875 -0.16100
O 	O 	0.11190 0.83180 0.91269 -0.43200
H 	H 	0.08710 0.01320 0.86790 -0.05200
H 	H 	0.15240 0.23850 0.96740 0.12500
H 	H 	0.19010 0.14570 0.05540 -0.07900
Li	Li	0.46620 0.52180 0.66850 0.55000
C 	C 	0.82630 0.59790 0.73994 0.14700
C 	C 	0.71300 0.61150 0.72706 -0.08500
C 	C 	0.68360 0.63240 0.67815 0.23300
C 	C 	0.88080 0.63440 0.66490 0.12700
H 	H 	0.93890 0.64650 0.64250 -0.01900
C 	C 	0.72730 0.57500 0.80360 0.06900
H 	H 	0.70680 0.56160 0.83560 -0.00500
N 	N 	0.77440 0.64640 0.64779 -0.20400
N 	N 	0.91490 0.60790 0.70897 -0.23200
N 	N 	0.64970 0.59750 0.76896 -0.11800
N 	N 	0.83510 0.57320 0.78875 -0.16200
O 	O 	0.58180 0.63810 0.66269 -0.42400
H 	H 	0.76320 0.66290 0.61790 -0.04400
H 	H 	0.98850 0.59760 0.71740 0.14400
H 	H 	0.89570 0.55990 0.80540 -0.06900
Li	Li	0.96620 0.02180 0.16850 0.55200
C 	C 	0.32630 0.09790 0.23994 0.14100
C 	C 	0.21300 0.11150 0.22706 -0.08800
C 	C 	0.18360 0.13240 0.17815 0.23200
C 	C 	0.38080 0.13440 0.16490 0.12100
H 	H 	0.43890 0.14650 0.14250 -0.02800
C 	C 	0.22730 0.07500 0.30360 0.06500
H 	H 	0.20680 0.06160 0.33560 -0.01000
N 	N 	0.27440 0.14640 0.14779 -0.20500
N 	N 	0.41490 0.10790 0.20897 -0.23100
N 	N 	0.14970 0.09750 0.26896 -0.12600
N 	N 	0.33510 0.07320 0.28875 -0.16100
O 	O 	0.08180 0.13810 0.16269 -0.44100
H 	H 	0.26320 0.16290 0.11790 -0.04700
H 	H 	0.48850 0.09760 0.21740 0.12800
H 	H 	0.39570 0.05990 0.30540 -0.07700
Li	Li	0.03380 0.47820 0.16850 0.54900
C 	C 	0.67370 0.40210 0.23994 0.14000
C 	C 	0.78700 0.38850 0.22706 -0.07800
C 	C 	0.81640 0.36760 0.17815 0.22900
C 	C 	0.61920 0.36560 0.16490 0.12200
H 	H 	0.56110 0.35350 0.14250 -0.02800
C 	C 	0.77270 0.42500 0.30360 0.06800
H 	H 	0.79320 0.43840 0.33560 0.00100
N 	N 	0.72560 0.35360 0.14779 -0.20300
N 	N 	0.58510 0.39210 0.20897 -0.23000
N 	N 	0.85030 0.40250 0.26896 -0.10900
N 	N 	0.66490 0.42680 0.28875 -0.16000
O 	O 	0.91820 0.36190 0.16269 -0.40500
H 	H 	0.73680 0.33710 0.11790 -0.04600
H 	H 	0.51150 0.40240 0.21740 0.12800
H 	H 	0.60430 0.44010 0.30540 -0.07600
Li	Li	0.53380 0.97820 0.66850 0.55000
C 	C 	0.17370 0.90210 0.73994 0.13300
C 	C 	0.28700 0.88850 0.72706 -0.08200
C 	C 	0.31640 0.86760 0.67815 0.22800
C 	C 	0.11920 0.86560 0.66490 0.11600
H 	H 	0.06110 0.85350 0.64250 -0.03700
C 	C 	0.27270 0.92500 0.80360 0.06400
H 	H 	0.29320 0.93840 0.83560 -0.00500
N 	N 	0.22560 0.85360 0.64779 -0.20300
N 	N 	0.08510 0.89210 0.70897 -0.22900
N 	N 	0.35030 0.90250 0.76896 -0.11800
N 	N 	0.16490 0.92680 0.78875 -0.15900
O 	O 	0.41820 0.86190 0.66269 -0.42400
H 	H 	0.23680 0.83710 0.61790 -0.04900
H 	H 	0.01150 0.90240 0.71740 0.11300
H 	H 	0.10430 0.94010 0.80540 -0.08500
Li	Li	-0.00000 0.25000 0.12500 0.55300
Li	Li	0.50000 0.75000 0.62500 0.55600
Li	Li	0.50000 0.25000 0.37500 0.55600
Li	Li	-0.00000 0.75000 0.87500 0.55300
