data_crystal

_cell_length_a 6.40940
_cell_length_b 14.85700
_cell_length_c 16.06600
_cell_angle_alpha 90.00000
_cell_angle_beta  90.00000
_cell_angle_gamma 90.00000

_symmetry_space_group_name_	'P 1'
_symmetry_space_group_name_H-M	'P 1'

loop_
_symmetry_equiv_pos_as_xyz
  x,y,z

loop_
_atom_site_label
_atom_site_type_symbol
_atom_site_fract_x
_atom_site_fract_y
_atom_site_fract_z
_atom_site_charge
Cu	Cu	0.75770 0.59184 0.63607 0.91800
Cu	Cu	0.01037 0.75704 0.50551 0.87300
Cu	Cu	0.74230 0.40816 0.13607 0.91700
Cu	Cu	0.48963 0.24296 0.00551 0.87200
Cu	Cu	0.24230 0.09184 0.86393 0.91700
Cu	Cu	0.98963 0.25704 0.99449 0.87200
Cu	Cu	0.25770 0.90816 0.36393 0.91600
Cu	Cu	0.51037 0.74296 0.49449 0.87300
H 	H 	0.14070 0.48280 0.74190 0.18100
H 	H 	0.37300 0.48510 0.74230 0.17800
H 	H 	0.73490 0.57600 0.89960 0.07400
H 	H 	0.73460 0.73570 0.10360 0.09800
H 	H 	0.73580 0.84530 0.87390 0.09300
H 	H 	0.35930 0.51720 0.24190 0.18100
H 	H 	0.12700 0.51490 0.24230 0.17800
H 	H 	0.76510 0.42400 0.39960 0.07400
H 	H 	0.76540 0.26430 0.60360 0.09800
H 	H 	0.76420 0.15470 0.37390 0.09300
H 	H 	0.85930 0.98280 0.75810 0.18000
H 	H 	0.62700 0.98510 0.75770 0.17700
H 	H 	0.26510 0.07600 0.60040 0.07400
H 	H 	0.26540 0.23570 0.39640 0.09800
H 	H 	0.26420 0.34530 0.62610 0.09300
H 	H 	0.64070 0.01720 0.25810 0.17900
H 	H 	0.87300 0.01490 0.25770 0.17600
H 	H 	0.23490 0.92400 0.10040 0.07400
H 	H 	0.23460 0.76430 0.89640 0.09800
H 	H 	0.23580 0.65470 0.12610 0.09300
C 	C 	0.73910 0.70890 0.87240 -0.02300
C 	C 	0.73510 0.63300 0.92350 -0.01400
C 	C 	0.73140 0.64130 0.01030 -0.01900
C 	C 	0.73300 0.72810 0.04620 -0.08500
C 	C 	0.73200 0.80090 0.99310 0.10700
C 	C 	0.73570 0.79420 0.90730 -0.08500
C 	C 	0.73730 0.69810 0.77800 0.31800
C 	C 	0.72840 0.56110 0.06660 0.30300
C 	C 	0.25320 0.56960 0.66470 0.24100
C 	C 	0.76090 0.29110 0.37240 -0.02300
C 	C 	0.76490 0.36700 0.42350 -0.01300
C 	C 	0.76860 0.35870 0.51030 -0.01900
C 	C 	0.76700 0.27190 0.54620 -0.08800
C 	C 	0.76800 0.19910 0.49310 0.10900
C 	C 	0.76430 0.20580 0.40730 -0.08600
C 	C 	0.76270 0.30190 0.27800 0.31700
C 	C 	0.77160 0.43890 0.56660 0.30300
C 	C 	0.24680 0.43040 0.16470 0.24000
C 	C 	0.26090 0.20890 0.62760 -0.02300
C 	C 	0.26490 0.13300 0.57650 -0.01300
C 	C 	0.26860 0.14130 0.48970 -0.02000
C 	C 	0.26700 0.22810 0.45380 -0.08800
C 	C 	0.26800 0.30090 0.50690 0.10900
C 	C 	0.26430 0.29420 0.59270 -0.08700
C 	C 	0.26270 0.19810 0.72200 0.31700
C 	C 	0.27160 0.06110 0.43340 0.30400
C 	C 	0.74680 0.06960 0.83530 0.24000
C 	C 	0.23910 0.79110 0.12760 -0.02300
C 	C 	0.23510 0.86700 0.07650 -0.01300
C 	C 	0.23140 0.85870 0.98970 -0.01900
C 	C 	0.23300 0.77190 0.95380 -0.08700
C 	C 	0.23200 0.69910 0.00690 0.10900
C 	C 	0.23570 0.70580 0.09270 -0.08600
C 	C 	0.23730 0.80190 0.22200 0.31700
C 	C 	0.22840 0.93890 0.93340 0.30000
C 	C 	0.75320 0.93040 0.33530 0.24000
N 	N 	0.08420 0.60530 0.63050 -0.18600
N 	N 	0.43300 0.60490 0.62960 -0.18200
N 	N 	0.35890 0.66220 0.57180 -0.16100
N 	N 	0.15710 0.66470 0.57470 -0.15800
N 	N 	0.25600 0.50470 0.72340 -0.34400
N 	N 	0.73060 0.89190 0.03250 -0.00900
N 	N 	0.41580 0.39470 0.13050 -0.18600
N 	N 	0.06700 0.39510 0.12960 -0.18200
N 	N 	0.14110 0.33780 0.07180 -0.16100
N 	N 	0.34290 0.33530 0.07470 -0.15800
N 	N 	0.24400 0.49530 0.22340 -0.34400
N 	N 	0.76940 0.10810 0.53250 -0.01100
N 	N 	0.91580 0.10530 0.86950 -0.18600
N 	N 	0.56700 0.10490 0.87040 -0.18200
N 	N 	0.64110 0.16220 0.92820 -0.16000
N 	N 	0.84290 0.16470 0.92530 -0.15800
N 	N 	0.74400 0.00470 0.77660 -0.34300
N 	N 	0.26940 0.39190 0.46750 -0.01100
N 	N 	0.58420 0.89470 0.36950 -0.18500
N 	N 	0.93300 0.89510 0.37040 -0.18100
N 	N 	0.85890 0.83780 0.42820 -0.16000
N 	N 	0.65710 0.83530 0.42530 -0.15800
N 	N 	0.75600 0.99530 0.27660 -0.34100
N 	N 	0.23060 0.60810 0.96750 -0.01000
O 	O 	0.75750 0.61820 0.75250 -0.38800
O 	O 	0.73730 0.48250 0.03280 -0.37100
O 	O 	0.75490 0.72630 0.56340 -0.51000
O 	O 	0.71930 0.57150 0.14220 -0.31500
O 	O 	0.72200 0.76580 0.73310 -0.27700
O 	O 	0.73070 0.89610 0.10780 -0.12400
O 	O 	0.74070 0.95670 0.98580 -0.12800
O 	O 	0.74250 0.38180 0.25250 -0.38800
O 	O 	0.76270 0.51750 0.53280 -0.37100
O 	O 	0.74510 0.27370 0.06340 -0.51100
O 	O 	0.78070 0.42850 0.64220 -0.31600
O 	O 	0.77800 0.23420 0.23310 -0.27800
O 	O 	0.76930 0.10390 0.60780 -0.12500
O 	O 	0.75930 0.04330 0.48580 -0.12600
O 	O 	0.24250 0.11820 0.74750 -0.38700
O 	O 	0.26270 0.98250 0.46720 -0.37200
O 	O 	0.24510 0.22630 0.93660 -0.50900
O 	O 	0.28070 0.07150 0.35780 -0.31600
O 	O 	0.27800 0.26580 0.76690 -0.27700
O 	O 	0.26930 0.39610 0.39220 -0.12500
O 	O 	0.25930 0.45670 0.51420 -0.12600
O 	O 	0.25750 0.88180 0.24750 -0.38800
O 	O 	0.23730 0.01750 0.96720 -0.36800
O 	O 	0.25490 0.77370 0.43660 -0.51100
O 	O 	0.21930 0.92850 0.85780 -0.31500
O 	O 	0.22200 0.73420 0.26690 -0.27800
O 	O 	0.23070 0.60390 0.89220 -0.12500
O 	O 	0.24070 0.54330 0.01420 -0.12600
