data_crystal

_cell_length_a 22.25100
_cell_length_b 37.79100
_cell_length_c 8.23900
_cell_angle_alpha 90.00000
_cell_angle_beta  90.00000
_cell_angle_gamma 90.00000

_symmetry_space_group_name_	'P 1'
_symmetry_space_group_name_H-M	'P 1'

loop_
_symmetry_equiv_pos_as_xyz
  x,y,z

loop_
_atom_site_label
_atom_site_type_symbol
_atom_site_fract_x
_atom_site_fract_y
_atom_site_fract_z
_atom_site_charge
In	In	-0.67515 0.64231 -0.09694 2.00800
In	In	-0.82217 0.64483 -0.83099 2.01100
In	In	-0.75027 0.60776 -0.46541 2.01700
C 	C 	-0.74890 0.53170 -0.04930 -0.06900
C 	C 	-0.76040 0.53210 -0.87910 -0.05900
C 	C 	-0.73540 0.56530 -0.14200 0.44300
C 	C 	-0.77280 0.56560 -0.78930 0.44400
C 	C 	-0.94480 0.62870 -0.41330 -0.10800
C 	C 	-0.94470 0.63790 -0.24780 0.00400
C 	C 	-0.88880 0.64750 -0.15800 0.33200
C 	C 	-0.88810 0.62250 -0.50660 0.48100
C 	C 	-0.55430 0.73170 -0.19610 -0.07300
C 	C 	-0.55430 0.76760 -0.24890 -0.04400
C 	C 	-0.61270 0.71210 -0.17500 0.41800
C 	C 	-0.61220 0.78860 -0.27100 0.39100
C 	C 	-0.55490 0.63110 -0.68470 0.00100
C 	C 	-0.61080 0.64060 -0.77770 0.33400
C 	C 	-0.61260 0.61710 -0.42620 0.47200
C 	C 	-0.55510 0.62260 -0.51850 -0.10500
O 	O 	-0.75290 0.56640 -0.64290 -0.52800
O 	O 	-0.76130 0.64910 -0.63630 -0.76500
O 	O 	-0.73530 0.64760 -0.29440 -0.77600
O 	O 	-0.75490 0.56640 -0.28660 -0.52700
O 	O 	-0.74870 0.66510 -0.96790 -0.76400
O 	O 	-0.88910 0.62900 -0.65390 -0.55100
O 	O 	-0.84580 0.61020 -0.42690 -0.54600
O 	O 	-0.61680 0.62370 -0.91060 -0.46800
O 	O 	-0.88260 0.63030 -0.02280 -0.47000
O 	O 	-0.80080 0.58900 -0.85900 -0.55200
O 	O 	-0.70400 0.58760 -0.07190 -0.55300
O 	O 	-0.61070 0.62290 -0.27970 -0.54200
O 	O 	-0.65540 0.60540 -0.50700 -0.54500
O 	O 	-0.63180 0.80530 -0.16550 -0.53600
O 	O 	-0.61440 0.68680 -0.09290 -0.54100
O 	O 	-0.85590 0.67070 -0.20800 -0.27700
O 	O 	-0.65830 0.72290 -0.25400 -0.31000
O 	O 	-0.62650 0.79300 -0.42800 -0.25800
O 	O 	-0.64390 0.66440 -0.72960 -0.29400
H 	H 	-0.76130 0.67556 -0.63630 0.19200
H 	H 	-0.76470 0.82594 -0.70560 0.19900
H 	H 	-0.75130 0.80844 -0.03210 0.19400
In	In	-0.32485 0.35769 -0.09694 2.00900
In	In	-0.17783 0.35517 -0.83099 2.01200
In	In	-0.24973 0.39224 -0.46541 2.01800
C 	C 	-0.25110 0.46830 -0.04930 -0.06800
C 	C 	-0.23960 0.46790 -0.87910 -0.05700
C 	C 	-0.26460 0.43470 -0.14200 0.44400
C 	C 	-0.22720 0.43440 -0.78930 0.44500
C 	C 	-0.05520 0.37130 -0.41330 -0.09700
C 	C 	-0.05530 0.36210 -0.24780 0.01400
C 	C 	-0.11120 0.35250 -0.15800 0.33100
C 	C 	-0.11190 0.37750 -0.50660 0.48100
C 	C 	-0.44570 0.26830 -0.19610 -0.07200
C 	C 	-0.44570 0.23240 -0.24890 -0.04300
C 	C 	-0.38730 0.28790 -0.17500 0.41900
C 	C 	-0.38780 0.21140 -0.27100 0.39200
C 	C 	-0.44510 0.36890 -0.68470 0.00200
C 	C 	-0.38920 0.35940 -0.77770 0.33500
C 	C 	-0.38740 0.38290 -0.42620 0.47300
C 	C 	-0.44490 0.37740 -0.51850 -0.10400
O 	O 	-0.24710 0.43360 -0.64290 -0.52700
O 	O 	-0.23870 0.35090 -0.63630 -0.76500
O 	O 	-0.26470 0.35240 -0.29440 -0.77600
O 	O 	-0.24510 0.43360 -0.28660 -0.52600
O 	O 	-0.25130 0.33490 -0.96790 -0.76400
O 	O 	-0.11090 0.37100 -0.65390 -0.54600
O 	O 	-0.15420 0.38980 -0.42690 -0.54500
O 	O 	-0.38320 0.37630 -0.91060 -0.46800
O 	O 	-0.11740 0.36970 -0.02280 -0.46700
O 	O 	-0.19920 0.41100 -0.85900 -0.55100
O 	O 	-0.29600 0.41240 -0.07190 -0.55300
O 	O 	-0.38930 0.37710 -0.27970 -0.54300
O 	O 	-0.34460 0.39460 -0.50700 -0.54500
O 	O 	-0.36820 0.19470 -0.16550 -0.53600
O 	O 	-0.38560 0.31320 -0.09290 -0.54100
O 	O 	-0.14410 0.32930 -0.20800 -0.27500
O 	O 	-0.34170 0.27710 -0.25400 -0.31000
O 	O 	-0.37350 0.20700 -0.42800 -0.25800
O 	O 	-0.35610 0.33560 -0.72960 -0.29400
H 	H 	-0.23870 0.32444 -0.63630 0.19200
H 	H 	-0.23530 0.17406 -0.70560 0.19900
H 	H 	-0.24870 0.19156 -0.03210 0.19400
In	In	-0.82485 0.14231 -0.90306 2.00900
In	In	-0.67783 0.14483 -0.16901 2.01200
In	In	-0.74973 0.10776 -0.53459 2.01800
C 	C 	-0.75110 0.03170 -0.95070 -0.06700
C 	C 	-0.73960 0.03210 -0.12090 -0.05800
C 	C 	-0.76460 0.06530 -0.85800 0.44400
C 	C 	-0.72720 0.06560 -0.21070 0.44500
C 	C 	-0.55520 0.12870 -0.58670 -0.10900
C 	C 	-0.55530 0.13790 -0.75220 0.00300
C 	C 	-0.61120 0.14750 -0.84200 0.33400
C 	C 	-0.61190 0.12250 -0.49340 0.48400
C 	C 	-0.94570 0.23170 -0.80390 -0.07100
C 	C 	-0.94570 0.26760 -0.75110 -0.03900
C 	C 	-0.88730 0.21210 -0.82500 0.41800
C 	C 	-0.88780 0.28860 -0.72900 0.39000
C 	C 	-0.94510 0.13110 -0.31530 0.00400
C 	C 	-0.88920 0.14060 -0.22230 0.33400
C 	C 	-0.88740 0.11710 -0.57380 0.47100
C 	C 	-0.94490 0.12260 -0.48150 -0.10200
O 	O 	-0.74710 0.06640 -0.35710 -0.52800
O 	O 	-0.73870 0.14910 -0.36370 -0.76500
O 	O 	-0.76470 0.14760 -0.70560 -0.77600
O 	O 	-0.74510 0.06640 -0.71340 -0.52700
O 	O 	-0.75130 0.16510 -0.03210 -0.76500
O 	O 	-0.61090 0.12900 -0.34610 -0.55000
O 	O 	-0.65420 0.11020 -0.57310 -0.54600
O 	O 	-0.88320 0.12370 -0.08940 -0.46900
O 	O 	-0.61740 0.13030 -0.97720 -0.46900
O 	O 	-0.69920 0.08900 -0.14100 -0.55200
O 	O 	-0.79600 0.08760 -0.92810 -0.55300
O 	O 	-0.88930 0.12290 -0.72030 -0.54300
O 	O 	-0.84460 0.10540 -0.49300 -0.54500
O 	O 	-0.86820 0.30530 -0.83450 -0.53600
O 	O 	-0.88560 0.18680 -0.90710 -0.54100
O 	O 	-0.64410 0.17070 -0.79200 -0.27700
O 	O 	-0.84170 0.22290 -0.74600 -0.31000
O 	O 	-0.87350 0.29300 -0.57200 -0.25800
O 	O 	-0.85610 0.16440 -0.27040 -0.29400
H 	H 	-0.73870 0.17556 -0.36370 0.19200
H 	H 	-0.73530 0.32594 -0.29440 0.19900
H 	H 	-0.74870 0.30844 -0.96790 0.19400
In	In	-0.17515 0.85769 -0.90306 2.00900
In	In	-0.32217 0.85517 -0.16901 2.01200
In	In	-0.25027 0.89224 -0.53459 2.01800
C 	C 	-0.24890 0.96830 -0.95070 -0.06500
C 	C 	-0.26040 0.96790 -0.12090 -0.05600
C 	C 	-0.23540 0.93470 -0.85800 0.44400
C 	C 	-0.27280 0.93440 -0.21070 0.44500
C 	C 	-0.44480 0.87130 -0.58670 -0.10900
C 	C 	-0.44470 0.86210 -0.75220 0.00300
C 	C 	-0.38880 0.85250 -0.84200 0.33400
C 	C 	-0.38810 0.87750 -0.49340 0.48400
C 	C 	-0.05430 0.76830 -0.80390 -0.06100
C 	C 	-0.05430 0.73240 -0.75110 -0.02900
C 	C 	-0.11270 0.78790 -0.82500 0.41600
C 	C 	-0.11220 0.71140 -0.72900 0.38900
C 	C 	-0.05490 0.86890 -0.31530 0.01400
C 	C 	-0.11080 0.85940 -0.22230 0.33200
C 	C 	-0.11260 0.88290 -0.57380 0.47000
C 	C 	-0.05510 0.87740 -0.48150 -0.09200
O 	O 	-0.25290 0.93360 -0.35710 -0.52700
O 	O 	-0.26130 0.85090 -0.36370 -0.76500
O 	O 	-0.23530 0.85240 -0.70560 -0.77600
O 	O 	-0.25490 0.93360 -0.71340 -0.52600
O 	O 	-0.24870 0.83490 -0.03210 -0.76500
O 	O 	-0.38910 0.87100 -0.34610 -0.55000
O 	O 	-0.34580 0.88980 -0.57310 -0.54600
O 	O 	-0.11680 0.87630 -0.08940 -0.46600
O 	O 	-0.38260 0.86970 -0.97720 -0.46900
O 	O 	-0.30080 0.91100 -0.14100 -0.55200
O 	O 	-0.20400 0.91240 -0.92810 -0.55200
O 	O 	-0.11070 0.87710 -0.72030 -0.53900
O 	O 	-0.15540 0.89460 -0.49300 -0.54300
O 	O 	-0.13180 0.69470 -0.83450 -0.53400
O 	O 	-0.11440 0.81320 -0.90710 -0.53800
O 	O 	-0.35590 0.82930 -0.79200 -0.27700
O 	O 	-0.15830 0.77710 -0.74600 -0.30900
O 	O 	-0.12650 0.70700 -0.57200 -0.25500
O 	O 	-0.14390 0.83560 -0.27040 -0.29300
H 	H 	-0.26130 0.82444 -0.36370 0.19200
H 	H 	-0.26470 0.67406 -0.29440 0.19900
H 	H 	-0.25130 0.69156 -0.96790 0.19400
In	In	-0.82485 0.85769 -0.90306 2.00900
In	In	-0.67783 0.85517 -0.16901 2.01200
In	In	-0.74973 0.89224 -0.53459 2.01800
C 	C 	-0.75110 0.96830 -0.95070 -0.06600
C 	C 	-0.73960 0.96790 -0.12090 -0.05700
C 	C 	-0.76460 0.93470 -0.85800 0.44300
C 	C 	-0.72720 0.93440 -0.21070 0.44500
C 	C 	-0.55520 0.87130 -0.58670 -0.10900
C 	C 	-0.55530 0.86210 -0.75220 0.00300
C 	C 	-0.61120 0.85250 -0.84200 0.33400
C 	C 	-0.61190 0.87750 -0.49340 0.48400
C 	C 	-0.94570 0.76830 -0.80390 -0.07100
C 	C 	-0.94570 0.73240 -0.75110 -0.03900
C 	C 	-0.88730 0.78790 -0.82500 0.41800
C 	C 	-0.88780 0.71140 -0.72900 0.39000
C 	C 	-0.94510 0.86890 -0.31530 0.00400
C 	C 	-0.88920 0.85940 -0.22230 0.33400
C 	C 	-0.88740 0.88290 -0.57380 0.47100
C 	C 	-0.94490 0.87740 -0.48150 -0.10200
O 	O 	-0.74710 0.93360 -0.35710 -0.52700
O 	O 	-0.73870 0.85090 -0.36370 -0.76500
O 	O 	-0.76470 0.85240 -0.70560 -0.77600
O 	O 	-0.74510 0.93360 -0.71340 -0.52600
O 	O 	-0.75130 0.83490 -0.03210 -0.76500
O 	O 	-0.61090 0.87100 -0.34610 -0.55000
O 	O 	-0.65420 0.88980 -0.57310 -0.54600
O 	O 	-0.88320 0.87630 -0.08940 -0.46900
O 	O 	-0.61740 0.86970 -0.97720 -0.46900
O 	O 	-0.69920 0.91100 -0.14100 -0.55200
O 	O 	-0.79600 0.91240 -0.92810 -0.55300
O 	O 	-0.88930 0.87710 -0.72030 -0.54300
O 	O 	-0.84460 0.89460 -0.49300 -0.54500
O 	O 	-0.86820 0.69470 -0.83450 -0.53600
O 	O 	-0.88560 0.81320 -0.90710 -0.54100
O 	O 	-0.64410 0.82930 -0.79200 -0.27700
O 	O 	-0.84170 0.77710 -0.74600 -0.31000
O 	O 	-0.87350 0.70700 -0.57200 -0.25800
O 	O 	-0.85610 0.83560 -0.27040 -0.29400
H 	H 	-0.73870 0.82444 -0.36370 0.19200
H 	H 	-0.73530 0.67406 -0.29440 0.19900
H 	H 	-0.74870 0.69156 -0.96790 0.19400
In	In	-0.17515 0.14231 -0.90306 2.00900
In	In	-0.32217 0.14483 -0.16901 2.01200
In	In	-0.25027 0.10776 -0.53459 2.01800
C 	C 	-0.24890 0.03170 -0.95070 -0.06700
C 	C 	-0.26040 0.03210 -0.12090 -0.05800
C 	C 	-0.23540 0.06530 -0.85800 0.44400
C 	C 	-0.27280 0.06560 -0.21070 0.44500
C 	C 	-0.44480 0.12870 -0.58670 -0.10900
C 	C 	-0.44470 0.13790 -0.75220 0.00300
C 	C 	-0.38880 0.14750 -0.84200 0.33400
C 	C 	-0.38810 0.12250 -0.49340 0.48400
C 	C 	-0.05430 0.23170 -0.80390 -0.06100
C 	C 	-0.05430 0.26760 -0.75110 -0.02900
C 	C 	-0.11270 0.21210 -0.82500 0.41600
C 	C 	-0.11220 0.28860 -0.72900 0.38900
C 	C 	-0.05490 0.13110 -0.31530 0.01400
C 	C 	-0.11080 0.14060 -0.22230 0.33200
C 	C 	-0.11260 0.11710 -0.57380 0.47000
C 	C 	-0.05510 0.12260 -0.48150 -0.09200
O 	O 	-0.25290 0.06640 -0.35710 -0.52700
O 	O 	-0.26130 0.14910 -0.36370 -0.76500
O 	O 	-0.23530 0.14760 -0.70560 -0.77600
O 	O 	-0.25490 0.06640 -0.71340 -0.52700
O 	O 	-0.24870 0.16510 -0.03210 -0.76500
O 	O 	-0.38910 0.12900 -0.34610 -0.55000
O 	O 	-0.34580 0.11020 -0.57310 -0.54600
O 	O 	-0.11680 0.12370 -0.08940 -0.46600
O 	O 	-0.38260 0.13030 -0.97720 -0.46900
O 	O 	-0.30080 0.08900 -0.14100 -0.55200
O 	O 	-0.20400 0.08760 -0.92810 -0.55200
O 	O 	-0.11070 0.12290 -0.72030 -0.53900
O 	O 	-0.15540 0.10540 -0.49300 -0.54400
O 	O 	-0.13180 0.30530 -0.83450 -0.53400
O 	O 	-0.11440 0.18680 -0.90710 -0.53800
O 	O 	-0.35590 0.17070 -0.79200 -0.27700
O 	O 	-0.15830 0.22290 -0.74600 -0.30900
O 	O 	-0.12650 0.29300 -0.57200 -0.25500
O 	O 	-0.14390 0.16440 -0.27040 -0.29300
H 	H 	-0.26130 0.17556 -0.36370 0.19200
H 	H 	-0.26470 0.32594 -0.29440 0.19900
H 	H 	-0.25130 0.30844 -0.96790 0.19400
In	In	-0.67515 0.35769 -0.09694 2.00900
In	In	-0.82217 0.35517 -0.83099 2.01200
In	In	-0.75027 0.39224 -0.46541 2.01800
C 	C 	-0.74890 0.46830 -0.04930 -0.06800
C 	C 	-0.76040 0.46790 -0.87910 -0.05800
C 	C 	-0.73540 0.43470 -0.14200 0.44400
C 	C 	-0.77280 0.43440 -0.78930 0.44500
C 	C 	-0.94480 0.37130 -0.41330 -0.10700
C 	C 	-0.94470 0.36210 -0.24780 0.00500
C 	C 	-0.88880 0.35250 -0.15800 0.33300
C 	C 	-0.88810 0.37750 -0.50660 0.48200
C 	C 	-0.55430 0.26830 -0.19610 -0.07200
C 	C 	-0.55430 0.23240 -0.24890 -0.04300
C 	C 	-0.61270 0.28790 -0.17500 0.41900
C 	C 	-0.61220 0.21140 -0.27100 0.39200
C 	C 	-0.55490 0.36890 -0.68470 0.00200
C 	C 	-0.61080 0.35940 -0.77770 0.33500
C 	C 	-0.61260 0.38290 -0.42620 0.47300
C 	C 	-0.55510 0.37740 -0.51850 -0.10400
O 	O 	-0.75290 0.43360 -0.64290 -0.52800
O 	O 	-0.76130 0.35090 -0.63630 -0.76500
O 	O 	-0.73530 0.35240 -0.29440 -0.77600
O 	O 	-0.75490 0.43360 -0.28660 -0.52700
O 	O 	-0.74870 0.33490 -0.96790 -0.76400
O 	O 	-0.88910 0.37100 -0.65390 -0.55100
O 	O 	-0.84580 0.38980 -0.42690 -0.54600
O 	O 	-0.61680 0.37630 -0.91060 -0.46800
O 	O 	-0.88260 0.36970 -0.02280 -0.47000
O 	O 	-0.80080 0.41100 -0.85900 -0.55200
O 	O 	-0.70400 0.41240 -0.07190 -0.55300
O 	O 	-0.61070 0.37710 -0.27970 -0.54200
O 	O 	-0.65540 0.39460 -0.50700 -0.54500
O 	O 	-0.63180 0.19470 -0.16550 -0.53600
O 	O 	-0.61440 0.31320 -0.09290 -0.54100
O 	O 	-0.85590 0.32930 -0.20800 -0.27700
O 	O 	-0.65830 0.27710 -0.25400 -0.31000
O 	O 	-0.62650 0.20700 -0.42800 -0.25800
O 	O 	-0.64390 0.33560 -0.72960 -0.29400
H 	H 	-0.76130 0.32444 -0.63630 0.19200
H 	H 	-0.76470 0.17406 -0.70560 0.19900
H 	H 	-0.75130 0.19156 -0.03210 0.19400
In	In	-0.32485 0.64231 -0.09694 2.00900
In	In	-0.17783 0.64483 -0.83099 2.01200
In	In	-0.24973 0.60776 -0.46541 2.01800
C 	C 	-0.25110 0.53170 -0.04930 -0.06800
C 	C 	-0.23960 0.53210 -0.87910 -0.05700
C 	C 	-0.26460 0.56530 -0.14200 0.44400
C 	C 	-0.22720 0.56560 -0.78930 0.44500
C 	C 	-0.05520 0.62870 -0.41330 -0.09700
C 	C 	-0.05530 0.63790 -0.24780 0.01400
C 	C 	-0.11120 0.64750 -0.15800 0.33100
C 	C 	-0.11190 0.62250 -0.50660 0.48100
C 	C 	-0.44570 0.73170 -0.19610 -0.07200
C 	C 	-0.44570 0.76760 -0.24890 -0.04300
C 	C 	-0.38730 0.71210 -0.17500 0.41900
C 	C 	-0.38780 0.78860 -0.27100 0.39200
C 	C 	-0.44510 0.63110 -0.68470 0.00200
C 	C 	-0.38920 0.64060 -0.77770 0.33500
C 	C 	-0.38740 0.61710 -0.42620 0.47300
C 	C 	-0.44490 0.62260 -0.51850 -0.10400
O 	O 	-0.24710 0.56640 -0.64290 -0.52700
O 	O 	-0.23870 0.64910 -0.63630 -0.76500
O 	O 	-0.26470 0.64760 -0.29440 -0.77600
O 	O 	-0.24510 0.56640 -0.28660 -0.52600
O 	O 	-0.25130 0.66510 -0.96790 -0.76400
O 	O 	-0.11090 0.62900 -0.65390 -0.54600
O 	O 	-0.15420 0.61020 -0.42690 -0.54500
O 	O 	-0.38320 0.62370 -0.91060 -0.46800
O 	O 	-0.11740 0.63030 -0.02280 -0.46700
O 	O 	-0.19920 0.58900 -0.85900 -0.55100
O 	O 	-0.29600 0.58760 -0.07190 -0.55300
O 	O 	-0.38930 0.62290 -0.27970 -0.54300
O 	O 	-0.34460 0.60540 -0.50700 -0.54500
O 	O 	-0.36820 0.80530 -0.16550 -0.53600
O 	O 	-0.38560 0.68680 -0.09290 -0.54100
O 	O 	-0.14410 0.67070 -0.20800 -0.27500
O 	O 	-0.34170 0.72290 -0.25400 -0.31000
O 	O 	-0.37350 0.79300 -0.42800 -0.25800
O 	O 	-0.35610 0.66440 -0.72960 -0.29400
H 	H 	-0.23870 0.67556 -0.63630 0.19200
H 	H 	-0.23530 0.82594 -0.70560 0.19900
H 	H 	-0.24870 0.80844 -0.03210 0.19400
H 	H 	-0.77300 0.50000 -0.69090 0.05600
H 	H 	-0.73460 0.50000 -0.24130 0.05500
C 	C 	-0.76560 0.50000 -0.80200 0.02800
C 	C 	-0.74280 0.50000 -0.13060 0.02800
H 	H 	-0.22700 0.50000 -0.69090 0.05700
H 	H 	-0.26540 0.50000 -0.24130 0.05600
C 	C 	-0.23440 0.50000 -0.80200 0.02900
C 	C 	-0.25720 0.50000 -0.13060 0.02900
H 	H 	-0.72700 0.00000 -0.30910 0.05700
H 	H 	-0.76540 0.00000 -0.75870 0.05600
C 	C 	-0.73440 0.00000 -0.19800 0.02700
C 	C 	-0.75720 0.00000 -0.86940 0.02500
H 	H 	-0.27300 0.00000 -0.30910 0.05700
H 	H 	-0.23460 0.00000 -0.75870 0.05600
C 	C 	-0.26560 0.00000 -0.19800 0.02700
C 	C 	-0.24280 0.00000 -0.86940 0.02600
H 	H 	-1.00000 0.64780 -0.06000 0.07100
H 	H 	-1.00000 0.61850 -0.59820 0.04500
C 	C 	-1.00000 0.64200 -0.17000 -0.04600
C 	C 	-1.00000 0.62450 -0.48900 0.04900
H 	H 	-1.00000 0.35220 -0.06000 0.07100
H 	H 	-1.00000 0.38150 -0.59820 0.04500
C 	C 	-1.00000 0.35800 -0.17000 -0.04600
C 	C 	-1.00000 0.37550 -0.48900 0.04900
H 	H 	-0.50000 0.14780 -0.94000 0.06900
H 	H 	-0.50000 0.11850 -0.40180 0.04300
C 	C 	-0.50000 0.14200 -0.83000 -0.02900
C 	C 	-0.50000 0.12450 -0.51100 0.06700
H 	H 	-0.50000 0.85220 -0.94000 0.06900
H 	H 	-0.50000 0.88150 -0.40180 0.04300
C 	C 	-0.50000 0.85800 -0.83000 -0.02900
C 	C 	-0.50000 0.87550 -0.51100 0.06700
H 	H 	-0.50000 0.69150 -0.12000 0.05200
H 	H 	-0.50000 0.80730 -0.30610 0.04900
H 	H 	-0.50000 0.64090 -0.87440 0.07600
H 	H 	-0.50000 0.61550 -0.32500 0.04800
C 	C 	-0.50000 0.71430 -0.16300 0.03000
C 	C 	-0.50000 0.78380 -0.27200 0.00900
C 	C 	-0.50000 0.63520 -0.76500 -0.03200
C 	C 	-0.50000 0.61960 -0.43630 0.05700
H 	H 	-0.50000 0.30850 -0.12000 0.05200
H 	H 	-0.50000 0.19270 -0.30610 0.04900
H 	H 	-0.50000 0.35910 -0.87440 0.07600
H 	H 	-0.50000 0.38450 -0.32500 0.04800
C 	C 	-0.50000 0.28570 -0.16300 0.03000
C 	C 	-0.50000 0.21620 -0.27200 0.00900
C 	C 	-0.50000 0.36480 -0.76500 -0.03200
C 	C 	-0.50000 0.38040 -0.43630 0.05700
H 	H 	-1.00000 0.19150 -0.88000 0.05400
H 	H 	-1.00000 0.30730 -0.69390 0.05200
H 	H 	-1.00000 0.14090 -0.12560 0.07800
H 	H 	-1.00000 0.11550 -0.67500 0.05000
C 	C 	-1.00000 0.21430 -0.83700 0.01300
C 	C 	-1.00000 0.28380 -0.72800 -0.01000
C 	C 	-1.00000 0.13520 -0.23500 -0.04900
C 	C 	-1.00000 0.11960 -0.56370 0.04000
H 	H 	-1.00000 0.80850 -0.88000 0.05400
H 	H 	-1.00000 0.69270 -0.69390 0.05200
H 	H 	-1.00000 0.85910 -0.12560 0.07800
H 	H 	-1.00000 0.88450 -0.67500 0.05100
C 	C 	-1.00000 0.78570 -0.83700 0.01300
C 	C 	-1.00000 0.71620 -0.72800 -0.01000
C 	C 	-1.00000 0.86480 -0.23500 -0.04900
C 	C 	-1.00000 0.88040 -0.56370 0.04000
