data_crystal

_cell_length_a 9.64560
_cell_length_b 23.18710
_cell_length_c 8.71130
_cell_angle_alpha 90.00000
_cell_angle_beta  90.00000
_cell_angle_gamma 90.00000

_symmetry_space_group_name_	'P 1'
_symmetry_space_group_name_H-M	'P 1'

loop_
_symmetry_equiv_pos_as_xyz
  x,y,z

loop_
_atom_site_label
_atom_site_type_symbol
_atom_site_fract_x
_atom_site_fract_y
_atom_site_fract_z
_atom_site_charge
Zn	Zn	0.55845 0.54848 0.22080 1.24000
P 	P 	0.56874 0.68551 0.25502 0.46400
H 	H 	0.45700 0.70920 0.18700 -0.04100
P 	P 	0.78244 0.49615 0.44393 0.44300
H 	H 	0.78500 0.44660 0.53700 -0.04700
O 	O 	0.68520 0.68717 0.13870 -0.46700
O 	O 	0.53140 0.62452 0.30000 -0.43800
O 	O 	0.59330 0.72143 0.39620 -0.45400
O 	O 	0.63460 0.50073 0.38500 -0.41200
O 	O 	0.88490 0.48926 0.31490 -0.46200
O 	O 	0.81820 0.54663 0.54600 -0.44400
Zn	Zn	0.94155 0.95152 0.22080 1.23800
P 	P 	0.93126 0.81449 0.25502 0.46100
H 	H 	0.04300 0.79080 0.18700 -0.04000
P 	P 	0.71756 0.00385 0.44393 0.44400
H 	H 	0.71500 0.05340 0.53700 -0.04700
O 	O 	0.81480 0.81283 0.13870 -0.46700
O 	O 	0.96860 0.87548 0.30000 -0.43800
O 	O 	0.90670 0.77857 0.39620 -0.45400
O 	O 	0.86540 0.99927 0.38500 -0.41300
O 	O 	0.61510 0.01074 0.31490 -0.46200
O 	O 	0.68180 0.95337 0.54600 -0.44400
Zn	Zn	0.44155 0.04848 0.27920 1.23900
P 	P 	0.43126 0.18551 0.24498 0.46300
H 	H 	0.54300 0.20920 0.31300 -0.04000
P 	P 	0.21756 0.99615 0.05607 0.44300
H 	H 	0.21500 0.94660 0.96300 -0.04600
O 	O 	0.31480 0.18717 0.36130 -0.46500
O 	O 	0.46860 0.12452 0.20000 -0.43700
O 	O 	0.40670 0.22143 0.10380 -0.45200
O 	O 	0.36540 0.00073 0.11500 -0.41100
O 	O 	0.11510 0.98926 0.18510 -0.46100
O 	O 	0.18180 0.04663 0.95400 -0.44600
Zn	Zn	0.05845 0.45152 0.27920 1.23900
P 	P 	0.06874 0.31449 0.24498 0.46300
H 	H 	0.95700 0.29080 0.31300 -0.04000
P 	P 	0.28244 0.50385 0.05607 0.44500
H 	H 	0.28500 0.55340 0.96300 -0.04700
O 	O 	0.18520 0.31283 0.36130 -0.46500
O 	O 	0.03140 0.37548 0.20000 -0.43700
O 	O 	0.09330 0.27857 0.10380 -0.45100
O 	O 	0.13460 0.49927 0.11500 -0.41200
O 	O 	0.38490 0.51074 0.18510 -0.46200
O 	O 	0.31820 0.45337 0.95400 -0.44500
Zn	Zn	0.44155 0.45152 0.77920 1.23900
P 	P 	0.43126 0.31449 0.74498 0.46300
H 	H 	0.54300 0.29080 0.81300 -0.04100
P 	P 	0.21756 0.50385 0.55607 0.44300
H 	H 	0.21500 0.55340 0.46300 -0.04700
O 	O 	0.31480 0.31283 0.86130 -0.46700
O 	O 	0.46860 0.37548 0.70000 -0.43800
O 	O 	0.40670 0.27857 0.60380 -0.45400
O 	O 	0.36540 0.49927 0.61500 -0.41200
O 	O 	0.11510 0.51074 0.68510 -0.46200
O 	O 	0.18180 0.45337 0.45400 -0.44400
Zn	Zn	0.05845 0.04848 0.77920 1.23800
P 	P 	0.06874 0.18551 0.74498 0.46100
H 	H 	0.95700 0.20920 0.81300 -0.04000
P 	P 	0.28244 0.99615 0.55607 0.44400
H 	H 	0.28500 0.94660 0.46300 -0.04700
O 	O 	0.18520 0.18717 0.86130 -0.46700
O 	O 	0.03140 0.12452 0.70000 -0.43800
O 	O 	0.09330 0.22143 0.60380 -0.45400
O 	O 	0.13460 0.00073 0.61500 -0.41300
O 	O 	0.38490 0.98926 0.68510 -0.46200
O 	O 	0.31820 0.04663 0.45400 -0.44400
Zn	Zn	0.55845 0.95152 0.72080 1.23900
P 	P 	0.56874 0.81449 0.75502 0.46300
H 	H 	0.45700 0.79080 0.68700 -0.04000
P 	P 	0.78244 0.00385 0.94393 0.44300
H 	H 	0.78500 0.05340 0.03700 -0.04600
O 	O 	0.68520 0.81283 0.63870 -0.46500
O 	O 	0.53140 0.87548 0.80000 -0.43700
O 	O 	0.59330 0.77857 0.89620 -0.45200
O 	O 	0.63460 0.99927 0.88500 -0.41100
O 	O 	0.88490 0.01074 0.81490 -0.46100
O 	O 	0.81820 0.95337 0.04600 -0.44600
Zn	Zn	0.94155 0.54848 0.72080 1.23900
P 	P 	0.93126 0.68551 0.75502 0.46300
H 	H 	0.04300 0.70920 0.68700 -0.04000
P 	P 	0.71756 0.49615 0.94393 0.44500
H 	H 	0.71500 0.44660 0.03700 -0.04700
O 	O 	0.81480 0.68717 0.63870 -0.46500
O 	O 	0.96860 0.62452 0.80000 -0.43700
O 	O 	0.90670 0.72143 0.89620 -0.45100
O 	O 	0.86540 0.50073 0.88500 -0.41200
O 	O 	0.61510 0.48926 0.81490 -0.46200
O 	O 	0.68180 0.54663 0.04600 -0.44500
Zn	Zn	0.75000 0.75000 0.50939 1.23400
Zn	Zn	0.25000 0.25000 0.99061 1.23200
Zn	Zn	0.25000 0.25000 0.49061 1.23400
Zn	Zn	0.75000 0.75000 0.00939 1.23200
