data_crystal

_cell_length_a 14.41150
_cell_length_b 16.09840
_cell_length_c 9.68560
_cell_angle_alpha 90.00000
_cell_angle_beta  90.00000
_cell_angle_gamma 90.00000

_symmetry_space_group_name_	'P 1'
_symmetry_space_group_name_H-M	'P 1'

loop_
_symmetry_equiv_pos_as_xyz
  x,y,z

loop_
_atom_site_label
_atom_site_type_symbol
_atom_site_fract_x
_atom_site_fract_y
_atom_site_fract_z
_atom_site_charge
Zn	Zn	0.39762 0.17260 0.39645 1.23200
Zn	Zn	0.11778 0.16572 0.46527 1.23600
Zn	Zn	0.24451 0.00813 0.93349 1.18900
P 	P 	0.23436 0.13726 0.18621 0.51200
P 	P 	0.61558 0.14137 0.41445 0.44600
P 	P 	0.40580 0.36925 0.45211 0.45600
P 	P 	0.28244 0.13147 0.67363 0.46900
O 	O 	0.16030 0.16900 0.27510 -0.30000
O 	O 	0.32600 0.11950 0.25400 -0.42900
O 	O 	0.20790 0.07380 0.08460 -0.34300
O 	O 	0.61690 0.21800 0.50280 -0.48900
O 	O 	0.65794 0.06809 0.48830 -0.42900
O 	O 	0.51834 0.11961 0.36510 -0.39900
O 	O 	0.36082 0.44120 0.37310 -0.39300
O 	O 	0.40270 0.29078 0.36670 -0.46000
O 	O 	0.50260 0.39220 0.49790 -0.43200
O 	O 	0.36360 0.13900 0.58220 -0.46400
O 	O 	0.19350 0.10880 0.60220 -0.46900
O 	O 	0.30530 0.07110 0.78880 -0.47100
H 	H 	0.23600 0.20300 0.09900 0.01200
H 	H 	0.66800 0.15900 0.28600 -0.01600
H 	H 	0.35400 0.35800 0.56000 -0.08600
H 	H 	0.27100 0.21000 0.73200 -0.08400
O 	O 	0.15450 0.12320 0.29610 -0.19700
Zn	Zn	0.60238 0.82740 0.89645 1.18600
Zn	Zn	0.88222 0.83428 0.96527 1.17000
Zn	Zn	0.75549 0.99187 0.43349 1.24500
P 	P 	0.76564 0.86274 0.68621 0.51400
P 	P 	0.38442 0.85863 0.91445 0.27300
P 	P 	0.59420 0.63075 0.95211 0.28100
P 	P 	0.71756 0.86853 0.17363 0.46800
O 	O 	0.83970 0.83100 0.77510 -0.32100
O 	O 	0.67400 0.88050 0.75400 -0.50000
O 	O 	0.79210 0.92620 0.58460 -0.45600
O 	O 	0.38310 0.78200 0.00280 -0.24000
O 	O 	0.34206 0.93191 0.98830 -0.49300
O 	O 	0.48166 0.88039 0.86510 -0.44200
O 	O 	0.63918 0.55880 0.87310 -0.43800
O 	O 	0.59730 0.70922 0.86670 -0.49900
O 	O 	0.49740 0.60780 0.99790 -0.51500
O 	O 	0.63640 0.86100 0.08220 -0.33800
O 	O 	0.80650 0.89120 0.10220 -0.34900
O 	O 	0.69470 0.92890 0.28880 -0.39600
H 	H 	0.76400 0.79700 0.59900 -0.04000
H 	H 	0.33200 0.84100 0.78600 -0.03300
H 	H 	0.64600 0.64200 0.06000 0.09300
H 	H 	0.72900 0.79000 0.23200 -0.02100
O 	O 	0.84550 0.87680 0.79610 -0.24200
Zn	Zn	0.89762 0.32740 0.39645 1.23400
Zn	Zn	0.61778 0.33428 0.46527 1.23700
Zn	Zn	0.74451 0.49187 0.93349 1.19400
P 	P 	0.73436 0.36274 0.18621 0.51200
P 	P 	0.11558 0.35863 0.41445 0.44600
P 	P 	0.90580 0.13075 0.45211 0.46100
P 	P 	0.78244 0.36853 0.67363 0.46900
O 	O 	0.66030 0.33100 0.27510 -0.30100
O 	O 	0.82600 0.38050 0.25400 -0.42600
O 	O 	0.70790 0.42620 0.08460 -0.33700
O 	O 	0.11690 0.28200 0.50280 -0.49100
O 	O 	0.15794 0.43191 0.48830 -0.42400
O 	O 	0.01834 0.38039 0.36510 -0.40000
O 	O 	0.86082 0.05880 0.37310 -0.39900
O 	O 	0.90270 0.20922 0.36670 -0.46000
O 	O 	0.00260 0.10780 0.49790 -0.44100
O 	O 	0.86360 0.36100 0.58220 -0.46100
O 	O 	0.69350 0.39120 0.60220 -0.46500
O 	O 	0.80530 0.42890 0.78880 -0.46500
H 	H 	0.73600 0.29700 0.09900 0.01200
H 	H 	0.16800 0.34100 0.28600 -0.01500
H 	H 	0.85400 0.14200 0.56000 -0.08700
H 	H 	0.77100 0.29000 0.73200 -0.08300
O 	O 	0.65450 0.37680 0.29610 -0.19200
Zn	Zn	0.10238 0.67260 0.89645 1.18400
Zn	Zn	0.38222 0.66572 0.96527 1.16800
Zn	Zn	0.25549 0.50813 0.43349 1.24200
P 	P 	0.26564 0.63726 0.68621 0.51400
P 	P 	0.88442 0.64137 0.91445 0.27500
P 	P 	0.09420 0.86925 0.95211 0.27700
P 	P 	0.21756 0.63147 0.17363 0.46800
O 	O 	0.33970 0.66900 0.77510 -0.31900
O 	O 	0.17400 0.61950 0.75400 -0.50500
O 	O 	0.29210 0.57380 0.58460 -0.46100
O 	O 	0.88310 0.71800 0.00280 -0.24200
O 	O 	0.84206 0.56809 0.98830 -0.50000
O 	O 	0.98166 0.61961 0.86510 -0.44200
O 	O 	0.13918 0.94120 0.87310 -0.43100
O 	O 	0.09730 0.79078 0.86670 -0.50000
O 	O 	0.99740 0.89220 0.99790 -0.50400
O 	O 	0.13640 0.63900 0.08220 -0.34100
O 	O 	0.30650 0.60880 0.10220 -0.34900
O 	O 	0.19470 0.57110 0.28880 -0.40100
H 	H 	0.26400 0.70300 0.59900 -0.04000
H 	H 	0.83200 0.65900 0.78600 -0.03400
H 	H 	0.14600 0.85800 0.06000 0.09300
H 	H 	0.22900 0.71000 0.23200 -0.02100
O 	O 	0.34550 0.62320 0.79610 -0.24700
