data_crystal

_cell_length_a 33.46300
_cell_length_b 18.87400
_cell_length_c 20.33500
_cell_angle_alpha 90.00000
_cell_angle_beta  92.33300
_cell_angle_gamma 90.00000

_symmetry_space_group_name_	'P 1'
_symmetry_space_group_name_H-M	'P 1'

loop_
_symmetry_equiv_pos_as_xyz
  x,y,z

loop_
_atom_site_label
_atom_site_type_symbol
_atom_site_fract_x
_atom_site_fract_y
_atom_site_fract_z
_atom_site_charge
Ag	Ag	0.07408 0.87922 0.22528 0.56100
Ag	Ag	0.59580 0.63310 0.75540 0.56300
Ag	Ag	0.81958 0.86509 0.48227 0.52400
Ag	Ag	0.66292 0.17132 0.53828 0.54000
C 	C 	0.86540 0.16720 0.41200 0.42100
C 	C 	0.89680 0.18540 0.45350 -0.46000
H 	H 	0.91960 0.15590 0.46060 0.19500
C 	C 	0.89280 0.24980 0.48430 0.40900
C 	C 	0.86160 0.29590 0.47350 -0.45000
H 	H 	0.86070 0.34100 0.49410 0.21200
C 	C 	0.83210 0.27260 0.43120 0.41300
C 	C 	0.83330 0.20940 0.39700 -0.45600
H 	H 	0.81310 0.19630 0.36510 0.19900
C 	C 	0.89750 0.07810 0.34740 0.20800
C 	C 	0.92360 0.11960 0.31280 -0.12100
C 	C 	0.95650 0.08990 0.28260 0.00600
H 	H 	0.97460 0.11870 0.25950 0.03200
C 	C 	0.96220 0.01570 0.28750 -0.05200
C 	C 	0.93530 0.97340 0.31770 0.00500
H 	H 	0.93870 0.92340 0.31850 0.02800
C 	C 	0.90250 0.00470 0.34760 -0.11500
C 	C 	0.91920 0.19470 0.29920 0.12500
C 	C 	0.99740 0.98580 0.26040 0.08800
C 	C 	0.87420 0.96240 0.37880 0.12400
C 	C 	0.96130 0.25510 0.52210 0.18500
C 	C 	0.98220 0.28420 0.46920 -0.10800
C 	C 	0.02190 0.26700 0.46190 0.00300
H 	H 	0.03560 0.28480 0.42530 0.03100
C 	C 	0.04170 0.22400 0.50750 -0.05200
C 	C 	0.02150 0.19740 0.56180 0.00100
H 	H 	0.03540 0.16890 0.59370 0.02900
C 	C 	0.98190 0.21260 0.56890 -0.10700
C 	C 	0.96260 0.33670 0.42640 0.12700
C 	C 	0.08320 0.20790 0.49930 0.08900
C 	C 	0.95990 0.18490 0.62350 0.12500
C 	C 	0.77630 0.31290 0.36580 0.19700
C 	C 	0.78940 0.33910 0.30550 -0.11600
C 	C 	0.76560 0.33540 0.24970 0.01200
H 	H 	0.77470 0.35410 0.20960 0.02600
C 	C 	0.72820 0.30430 0.25180 -0.05600
C 	C 	0.71380 0.27860 0.30920 0.00700
H 	H 	0.68780 0.25840 0.30980 0.02700
C 	C 	0.73780 0.28250 0.36680 -0.11200
C 	C 	0.82850 0.37230 0.30340 0.13100
C 	C 	0.70370 0.29970 0.19130 0.09600
C 	C 	0.72360 0.25430 0.42780 0.13300
C 	C 	0.68150 0.76070 0.61320 0.44100
C 	C 	0.67250 0.81730 0.64950 -0.49200
H 	H 	0.68970 0.83330 0.68480 0.21900
C 	C 	0.63720 0.85110 0.63290 0.45100
C 	C 	0.60990 0.82650 0.58740 -0.50000
H 	H 	0.58460 0.84850 0.57990 0.20700
C 	C 	0.62110 0.76870 0.55320 0.43200
C 	C 	0.65650 0.73270 0.56490 -0.47400
H 	H 	0.66310 0.69130 0.54110 0.20800
C 	C 	0.72640 0.66280 0.60540 0.18500
C 	C 	0.75450 0.65630 0.55580 -0.11000
C 	C 	0.76410 0.58780 0.53290 -0.00100
H 	H 	0.78320 0.58230 0.49990 0.03700
C 	C 	0.74580 0.52900 0.55870 -0.04200
C 	C 	0.71890 0.53760 0.60980 0.00600
H 	H 	0.70730 0.49690 0.62900 0.03200
C 	C 	0.70920 0.60240 0.63170 -0.11600
C 	C 	0.77180 0.71770 0.52960 0.13200
C 	C 	0.75250 0.45980 0.53350 0.08500
C 	C 	0.68160 0.60850 0.68340 0.12600
C 	C 	0.59140 0.93100 0.68160 0.20000
C 	C 	0.58130 0.99950 0.66510 -0.11900
C 	C 	0.54380 0.02700 0.68150 0.00800
H 	H 	0.53740 0.07510 0.67200 0.02600
C 	C 	0.51650 0.98390 0.71140 -0.05700
C 	C 	0.52610 0.91420 0.72650 0.01200
H 	H 	0.50700 0.88430 0.74580 0.02900
C 	C 	0.56250 0.88900 0.71390 -0.11400
C 	C 	0.60940 0.04290 0.63150 0.13700
C 	C 	0.47890 0.01320 0.72740 0.08900
C 	C 	0.57300 0.81590 0.73440 0.12700
C 	C 	0.55580 0.74930 0.50270 0.19000
C 	C 	0.53340 0.71660 0.55070 -0.11000
C 	C 	0.49250 0.72280 0.54820 0.00500
H 	H 	0.47690 0.69950 0.57970 0.03100
C 	C 	0.47400 0.76450 0.49790 -0.05600
C 	C 	0.49620 0.79180 0.44780 0.01000
H 	H 	0.48340 0.81450 0.41100 0.02500
C 	C 	0.53660 0.78540 0.45250 -0.11600
C 	C 	0.55190 0.66730 0.59850 0.12600
C 	C 	0.43160 0.77210 0.49470 0.08900
C 	C 	0.56100 0.81560 0.40230 0.12700
N 	N 	0.91490 0.25420 0.29380 -0.17900
N 	N 	0.02540 0.96150 0.23930 -0.18600
N 	N 	0.85120 0.92780 0.40670 -0.20200
N 	N 	0.94650 0.37460 0.39370 -0.17800
N 	N 	0.11580 0.19750 0.49290 -0.17900
N 	N 	0.94340 0.16360 0.66680 -0.18400
N 	N 	0.85930 0.39480 0.29930 -0.19200
N 	N 	0.68740 0.29870 0.14200 -0.18700
N 	N 	0.71020 0.23040 0.47250 -0.19400
N 	N 	0.78600 0.76560 0.50670 -0.20700
N 	N 	0.75430 0.40550 0.50890 -0.11100
N 	N 	0.65830 0.61750 0.72150 -0.19700
N 	N 	0.63160 0.07250 0.60310 -0.18900
N 	N 	0.44900 0.03850 0.73940 -0.18100
N 	N 	0.58290 0.75960 0.74110 -0.18000
N 	N 	0.56910 0.63730 0.63780 -0.17500
N 	N 	0.39790 0.77880 0.49370 -0.18900
N 	N 	0.58130 0.83820 0.36380 -0.18800
O 	O 	0.86560 0.10170 0.37810 -0.31900
O 	O 	0.92250 0.27200 0.53190 -0.29900
O 	O 	0.79900 0.31880 0.42170 -0.29800
O 	O 	0.71910 0.73000 0.62910 -0.31300
O 	O 	0.62940 0.91050 0.67150 -0.32000
O 	O 	0.59650 0.73880 0.50120 -0.30200
Ag	Ag	0.92592 0.37922 0.27472 0.56000
Ag	Ag	0.40420 0.13310 0.74460 0.56200
Ag	Ag	0.18042 0.36509 0.01773 0.52400
Ag	Ag	0.33708 0.67132 0.96172 0.54000
C 	C 	0.13460 0.66720 0.08800 0.42100
C 	C 	0.10320 0.68540 0.04650 -0.46000
H 	H 	0.08040 0.65590 0.03940 0.19400
C 	C 	0.10720 0.74980 0.01570 0.40900
C 	C 	0.13840 0.79590 0.02650 -0.45000
H 	H 	0.13930 0.84100 0.00590 0.21200
C 	C 	0.16790 0.77260 0.06880 0.41200
C 	C 	0.16670 0.70940 0.10300 -0.45600
H 	H 	0.18690 0.69630 0.13490 0.19900
C 	C 	0.10250 0.57810 0.15260 0.20900
C 	C 	0.07640 0.61960 0.18720 -0.12100
C 	C 	0.04350 0.58990 0.21740 0.00600
H 	H 	0.02540 0.61870 0.24050 0.03200
C 	C 	0.03780 0.51570 0.21250 -0.05200
C 	C 	0.06470 0.47340 0.18230 0.00600
H 	H 	0.06130 0.42340 0.18150 0.02700
C 	C 	0.09750 0.50470 0.15240 -0.11500
C 	C 	0.08080 0.69470 0.20080 0.12500
C 	C 	0.00260 0.48580 0.23960 0.08800
C 	C 	0.12580 0.46240 0.12120 0.12400
C 	C 	0.03870 0.75510 0.97790 0.18600
C 	C 	0.01780 0.78420 0.03080 -0.10900
C 	C 	0.97810 0.76700 0.03810 0.00400
H 	H 	0.96440 0.78480 0.07470 0.03000
C 	C 	0.95830 0.72400 0.99250 -0.05300
C 	C 	0.97850 0.69740 0.93820 0.00100
H 	H 	0.96460 0.66890 0.90630 0.02900
C 	C 	0.01810 0.71260 0.93110 -0.10700
C 	C 	0.03740 0.83670 0.07360 0.12700
C 	C 	0.91680 0.70790 0.00070 0.08900
C 	C 	0.04010 0.68490 0.87650 0.12500
C 	C 	0.22370 0.81290 0.13420 0.19700
C 	C 	0.21060 0.83910 0.19450 -0.11600
C 	C 	0.23440 0.83540 0.25030 0.01200
H 	H 	0.22530 0.85410 0.29040 0.02600
C 	C 	0.27180 0.80430 0.24820 -0.05600
C 	C 	0.28620 0.77860 0.19080 0.00700
H 	H 	0.31220 0.75840 0.19020 0.02700
C 	C 	0.26220 0.78250 0.13320 -0.11200
C 	C 	0.17150 0.87230 0.19660 0.13100
C 	C 	0.29630 0.79970 0.30870 0.09600
C 	C 	0.27640 0.75430 0.07220 0.13300
C 	C 	0.31850 0.26070 0.88680 0.44100
C 	C 	0.32750 0.31730 0.85050 -0.49200
H 	H 	0.31030 0.33330 0.81520 0.21900
C 	C 	0.36280 0.35110 0.86710 0.45100
C 	C 	0.39010 0.32650 0.91260 -0.50000
H 	H 	0.41540 0.34850 0.92010 0.20700
C 	C 	0.37890 0.26870 0.94680 0.43200
C 	C 	0.34350 0.23270 0.93510 -0.47400
H 	H 	0.33690 0.19130 0.95890 0.20800
C 	C 	0.27360 0.16280 0.89460 0.18500
C 	C 	0.24550 0.15630 0.94420 -0.11100
C 	C 	0.23590 0.08780 0.96710 0.00000
H 	H 	0.21680 0.08230 0.00010 0.03600
C 	C 	0.25420 0.02900 0.94130 -0.04200
C 	C 	0.28110 0.03760 0.89020 0.00600
H 	H 	0.29270 0.99690 0.87100 0.03200
C 	C 	0.29080 0.10240 0.86830 -0.11600
C 	C 	0.22820 0.21770 0.97040 0.13200
C 	C 	0.24750 0.95980 0.96650 0.08500
C 	C 	0.31840 0.10850 0.81660 0.12600
C 	C 	0.40860 0.43100 0.81840 0.20000
C 	C 	0.41870 0.49950 0.83490 -0.11900
C 	C 	0.45620 0.52700 0.81850 0.00700
H 	H 	0.46260 0.57510 0.82800 0.02600
C 	C 	0.48350 0.48390 0.78860 -0.05600
C 	C 	0.47390 0.41420 0.77350 0.01200
H 	H 	0.49300 0.38430 0.75420 0.02900
C 	C 	0.43750 0.38900 0.78610 -0.11400
C 	C 	0.39060 0.54290 0.86850 0.13700
C 	C 	0.52110 0.51320 0.77260 0.08900
C 	C 	0.42700 0.31590 0.76560 0.12700
C 	C 	0.44420 0.24930 0.99730 0.19000
C 	C 	0.46660 0.21660 0.94930 -0.11000
C 	C 	0.50750 0.22280 0.95180 0.00500
H 	H 	0.52310 0.19950 0.92030 0.03100
C 	C 	0.52600 0.26450 0.00210 -0.05600
C 	C 	0.50380 0.29180 0.05220 0.01000
H 	H 	0.51660 0.31450 0.08900 0.02500
C 	C 	0.46340 0.28540 0.04750 -0.11600
C 	C 	0.44810 0.16730 0.90150 0.12600
C 	C 	0.56840 0.27210 0.00530 0.08900
C 	C 	0.43900 0.31560 0.09770 0.12700
N 	N 	0.08510 0.75420 0.20620 -0.17900
N 	N 	0.97460 0.46150 0.26070 -0.18600
N 	N 	0.14880 0.42780 0.09330 -0.20200
N 	N 	0.05350 0.87460 0.10630 -0.17800
N 	N 	0.88420 0.69750 0.00710 -0.17900
N 	N 	0.05660 0.66360 0.83320 -0.18400
N 	N 	0.14070 0.89480 0.20070 -0.19200
N 	N 	0.31260 0.79870 0.35800 -0.18700
N 	N 	0.28980 0.73040 0.02750 -0.19400
N 	N 	0.21400 0.26560 0.99330 -0.20700
N 	N 	0.24570 0.90550 0.99110 -0.11100
N 	N 	0.34170 0.11750 0.77850 -0.19700
N 	N 	0.36840 0.57250 0.89690 -0.18900
N 	N 	0.55100 0.53850 0.76060 -0.18100
N 	N 	0.41710 0.25960 0.75890 -0.18000
N 	N 	0.43090 0.13730 0.86220 -0.17500
N 	N 	0.60210 0.27880 0.00630 -0.18900
N 	N 	0.41870 0.33820 0.13620 -0.18800
O 	O 	0.13440 0.60170 0.12190 -0.31900
O 	O 	0.07750 0.77200 0.96810 -0.29900
O 	O 	0.20100 0.81880 0.07830 -0.29800
O 	O 	0.28090 0.23000 0.87090 -0.31300
O 	O 	0.37060 0.41050 0.82850 -0.32000
O 	O 	0.40350 0.23880 0.99880 -0.30200
Ag	Ag	0.92592 0.12078 0.77472 0.56000
Ag	Ag	0.40420 0.36690 0.24460 0.56200
Ag	Ag	0.18042 0.13491 0.51773 0.52400
Ag	Ag	0.33708 0.82868 0.46172 0.54000
C 	C 	0.13460 0.83280 0.58800 0.42100
C 	C 	0.10320 0.81460 0.54650 -0.46000
H 	H 	0.08040 0.84410 0.53940 0.19500
C 	C 	0.10720 0.75020 0.51570 0.40900
C 	C 	0.13840 0.70410 0.52650 -0.45000
H 	H 	0.13930 0.65900 0.50590 0.21200
C 	C 	0.16790 0.72740 0.56880 0.41300
C 	C 	0.16670 0.79060 0.60300 -0.45600
H 	H 	0.18690 0.80370 0.63490 0.19900
C 	C 	0.10250 0.92190 0.65260 0.20800
C 	C 	0.07640 0.88040 0.68720 -0.12100
C 	C 	0.04350 0.91010 0.71740 0.00600
H 	H 	0.02540 0.88130 0.74050 0.03200
C 	C 	0.03780 0.98430 0.71250 -0.05200
C 	C 	0.06470 0.02660 0.68230 0.00500
H 	H 	0.06130 0.07660 0.68150 0.02800
C 	C 	0.09750 0.99530 0.65240 -0.11500
C 	C 	0.08080 0.80530 0.70080 0.12500
C 	C 	0.00260 0.01420 0.73960 0.08800
C 	C 	0.12580 0.03760 0.62120 0.12400
C 	C 	0.03870 0.74490 0.47790 0.18500
C 	C 	0.01780 0.71580 0.53080 -0.10800
C 	C 	0.97810 0.73300 0.53810 0.00300
H 	H 	0.96440 0.71520 0.57470 0.03100
C 	C 	0.95830 0.77600 0.49250 -0.05200
C 	C 	0.97850 0.80260 0.43820 0.00100
H 	H 	0.96460 0.83110 0.40630 0.02900
C 	C 	0.01810 0.78740 0.43110 -0.10700
C 	C 	0.03740 0.66330 0.57360 0.12700
C 	C 	0.91680 0.79210 0.50070 0.08900
C 	C 	0.04010 0.81510 0.37650 0.12500
C 	C 	0.22370 0.68710 0.63420 0.19700
C 	C 	0.21060 0.66090 0.69450 -0.11600
C 	C 	0.23440 0.66460 0.75030 0.01200
H 	H 	0.22530 0.64590 0.79040 0.02600
C 	C 	0.27180 0.69570 0.74820 -0.05600
C 	C 	0.28620 0.72140 0.69080 0.00700
H 	H 	0.31220 0.74160 0.69020 0.02700
C 	C 	0.26220 0.71750 0.63320 -0.11200
C 	C 	0.17150 0.62770 0.69660 0.13100
C 	C 	0.29630 0.70030 0.80870 0.09600
C 	C 	0.27640 0.74570 0.57220 0.13300
C 	C 	0.31850 0.23930 0.38680 0.44100
C 	C 	0.32750 0.18270 0.35050 -0.49200
H 	H 	0.31030 0.16670 0.31520 0.21900
C 	C 	0.36280 0.14890 0.36710 0.45100
C 	C 	0.39010 0.17350 0.41260 -0.50000
H 	H 	0.41540 0.15150 0.42010 0.20700
C 	C 	0.37890 0.23130 0.44680 0.43200
C 	C 	0.34350 0.26730 0.43510 -0.47400
H 	H 	0.33690 0.30870 0.45890 0.20800
C 	C 	0.27360 0.33720 0.39460 0.18500
C 	C 	0.24550 0.34370 0.44420 -0.11000
C 	C 	0.23590 0.41220 0.46710 -0.00100
H 	H 	0.21680 0.41770 0.50010 0.03700
C 	C 	0.25420 0.47100 0.44130 -0.04200
C 	C 	0.28110 0.46240 0.39020 0.00600
H 	H 	0.29270 0.50310 0.37100 0.03200
C 	C 	0.29080 0.39760 0.36830 -0.11600
C 	C 	0.22820 0.28230 0.47040 0.13200
C 	C 	0.24750 0.54020 0.46650 0.08500
C 	C 	0.31840 0.39150 0.31660 0.12600
C 	C 	0.40860 0.06900 0.31840 0.20000
C 	C 	0.41870 0.00050 0.33490 -0.11900
C 	C 	0.45620 0.97300 0.31850 0.00800
H 	H 	0.46260 0.92490 0.32800 0.02600
C 	C 	0.48350 0.01610 0.28860 -0.05700
C 	C 	0.47390 0.08580 0.27350 0.01200
H 	H 	0.49300 0.11570 0.25420 0.02900
C 	C 	0.43750 0.11100 0.28610 -0.11400
C 	C 	0.39060 0.95710 0.36850 0.13700
C 	C 	0.52110 0.98680 0.27260 0.08900
C 	C 	0.42700 0.18410 0.26560 0.12700
C 	C 	0.44420 0.25070 0.49730 0.19000
C 	C 	0.46660 0.28340 0.44930 -0.11000
C 	C 	0.50750 0.27720 0.45180 0.00500
H 	H 	0.52310 0.30050 0.42030 0.03100
C 	C 	0.52600 0.23550 0.50210 -0.05600
C 	C 	0.50380 0.20820 0.55220 0.01000
H 	H 	0.51660 0.18550 0.58900 0.02500
C 	C 	0.46340 0.21460 0.54750 -0.11600
C 	C 	0.44810 0.33270 0.40150 0.12600
C 	C 	0.56840 0.22790 0.50530 0.08900
C 	C 	0.43900 0.18440 0.59770 0.12700
N 	N 	0.08510 0.74580 0.70620 -0.17900
N 	N 	0.97460 0.03850 0.76070 -0.18600
N 	N 	0.14880 0.07220 0.59330 -0.20200
N 	N 	0.05350 0.62540 0.60630 -0.17800
N 	N 	0.88420 0.80250 0.50710 -0.17900
N 	N 	0.05660 0.83640 0.33320 -0.18400
N 	N 	0.14070 0.60520 0.70070 -0.19200
N 	N 	0.31260 0.70130 0.85800 -0.18700
N 	N 	0.28980 0.76960 0.52750 -0.19400
N 	N 	0.21400 0.23440 0.49330 -0.20700
N 	N 	0.24570 0.59450 0.49110 -0.11100
N 	N 	0.34170 0.38250 0.27850 -0.19700
N 	N 	0.36840 0.92750 0.39690 -0.18900
N 	N 	0.55100 0.96150 0.26060 -0.18100
N 	N 	0.41710 0.24040 0.25890 -0.18000
N 	N 	0.43090 0.36270 0.36220 -0.17500
N 	N 	0.60210 0.22120 0.50630 -0.18900
N 	N 	0.41870 0.16180 0.63620 -0.18800
O 	O 	0.13440 0.89830 0.62190 -0.31900
O 	O 	0.07750 0.72800 0.46810 -0.29900
O 	O 	0.20100 0.68120 0.57830 -0.29800
O 	O 	0.28090 0.27000 0.37090 -0.31300
O 	O 	0.37060 0.08950 0.32850 -0.32000
O 	O 	0.40350 0.26120 0.49880 -0.30200
Ag	Ag	0.07408 0.62078 0.72528 0.56000
Ag	Ag	0.59580 0.86690 0.25540 0.56200
Ag	Ag	0.81958 0.63491 0.98227 0.52400
Ag	Ag	0.66292 0.32868 0.03828 0.54000
C 	C 	0.86540 0.33280 0.91200 0.42100
C 	C 	0.89680 0.31460 0.95350 -0.46000
H 	H 	0.91960 0.34410 0.96060 0.19400
C 	C 	0.89280 0.25020 0.98430 0.40900
C 	C 	0.86160 0.20410 0.97350 -0.45000
H 	H 	0.86070 0.15900 0.99410 0.21200
C 	C 	0.83210 0.22740 0.93120 0.41200
C 	C 	0.83330 0.29060 0.89700 -0.45600
H 	H 	0.81310 0.30370 0.86510 0.19900
C 	C 	0.89750 0.42190 0.84740 0.20900
C 	C 	0.92360 0.38040 0.81280 -0.12100
C 	C 	0.95650 0.41010 0.78260 0.00600
H 	H 	0.97460 0.38130 0.75950 0.03200
C 	C 	0.96220 0.48430 0.78750 -0.05200
C 	C 	0.93530 0.52660 0.81770 0.00600
H 	H 	0.93870 0.57660 0.81850 0.02700
C 	C 	0.90250 0.49530 0.84760 -0.11500
C 	C 	0.91920 0.30530 0.79920 0.12500
C 	C 	0.99740 0.51420 0.76040 0.08800
C 	C 	0.87420 0.53760 0.87880 0.12400
C 	C 	0.96130 0.24490 0.02210 0.18600
C 	C 	0.98220 0.21580 0.96920 -0.10900
C 	C 	0.02190 0.23300 0.96190 0.00400
H 	H 	0.03560 0.21520 0.92530 0.03000
C 	C 	0.04170 0.27600 0.00750 -0.05300
C 	C 	0.02150 0.30260 0.06180 0.00100
H 	H 	0.03540 0.33110 0.09370 0.02900
C 	C 	0.98190 0.28740 0.06890 -0.10700
C 	C 	0.96260 0.16330 0.92640 0.12700
C 	C 	0.08320 0.29210 0.99930 0.08900
C 	C 	0.95990 0.31510 0.12350 0.12500
C 	C 	0.77630 0.18710 0.86580 0.19700
C 	C 	0.78940 0.16090 0.80550 -0.11600
C 	C 	0.76560 0.16460 0.74970 0.01200
H 	H 	0.77470 0.14590 0.70960 0.02600
C 	C 	0.72820 0.19570 0.75180 -0.05600
C 	C 	0.71380 0.22140 0.80920 0.00700
H 	H 	0.68780 0.24160 0.80980 0.02700
C 	C 	0.73780 0.21750 0.86680 -0.11200
C 	C 	0.82850 0.12770 0.80340 0.13100
C 	C 	0.70370 0.20030 0.69130 0.09600
C 	C 	0.72360 0.24570 0.92780 0.13300
C 	C 	0.68150 0.73930 0.11320 0.44100
C 	C 	0.67250 0.68270 0.14950 -0.49200
H 	H 	0.68970 0.66670 0.18480 0.21900
C 	C 	0.63720 0.64890 0.13290 0.45100
C 	C 	0.60990 0.67350 0.08740 -0.50000
H 	H 	0.58460 0.65150 0.07990 0.20700
C 	C 	0.62110 0.73130 0.05320 0.43200
C 	C 	0.65650 0.76730 0.06490 -0.47400
H 	H 	0.66310 0.80870 0.04110 0.20800
C 	C 	0.72640 0.83720 0.10540 0.18500
C 	C 	0.75450 0.84370 0.05580 -0.11100
C 	C 	0.76410 0.91220 0.03290 0.00000
H 	H 	0.78320 0.91770 0.99990 0.03600
C 	C 	0.74580 0.97100 0.05870 -0.04200
C 	C 	0.71890 0.96240 0.10980 0.00600
H 	H 	0.70730 0.00310 0.12900 0.03200
C 	C 	0.70920 0.89760 0.13170 -0.11600
C 	C 	0.77180 0.78230 0.02960 0.13200
C 	C 	0.75250 0.04020 0.03350 0.08500
C 	C 	0.68160 0.89150 0.18340 0.12600
C 	C 	0.59140 0.56900 0.18160 0.20000
C 	C 	0.58130 0.50050 0.16510 -0.11900
C 	C 	0.54380 0.47300 0.18150 0.00700
H 	H 	0.53740 0.42490 0.17200 0.02600
C 	C 	0.51650 0.51610 0.21140 -0.05600
C 	C 	0.52610 0.58580 0.22650 0.01200
H 	H 	0.50700 0.61570 0.24580 0.02900
C 	C 	0.56250 0.61100 0.21390 -0.11400
C 	C 	0.60940 0.45710 0.13150 0.13700
C 	C 	0.47890 0.48680 0.22740 0.08900
C 	C 	0.57300 0.68410 0.23440 0.12700
C 	C 	0.55580 0.75070 0.00270 0.19000
C 	C 	0.53340 0.78340 0.05070 -0.11000
C 	C 	0.49250 0.77720 0.04820 0.00500
H 	H 	0.47690 0.80050 0.07970 0.03100
C 	C 	0.47400 0.73550 0.99790 -0.05600
C 	C 	0.49620 0.70820 0.94780 0.01000
H 	H 	0.48340 0.68550 0.91100 0.02500
C 	C 	0.53660 0.71460 0.95250 -0.11600
C 	C 	0.55190 0.83270 0.09850 0.12600
C 	C 	0.43160 0.72790 0.99470 0.08900
C 	C 	0.56100 0.68440 0.90230 0.12700
N 	N 	0.91490 0.24580 0.79380 -0.17900
N 	N 	0.02540 0.53850 0.73930 -0.18600
N 	N 	0.85120 0.57220 0.90670 -0.20200
N 	N 	0.94650 0.12540 0.89370 -0.17800
N 	N 	0.11580 0.30250 0.99290 -0.17900
N 	N 	0.94340 0.33640 0.16680 -0.18400
N 	N 	0.85930 0.10520 0.79930 -0.19200
N 	N 	0.68740 0.20130 0.64200 -0.18700
N 	N 	0.71020 0.26960 0.97250 -0.19400
N 	N 	0.78600 0.73440 0.00670 -0.20700
N 	N 	0.75430 0.09450 0.00890 -0.11100
N 	N 	0.65830 0.88250 0.22150 -0.19700
N 	N 	0.63160 0.42750 0.10310 -0.18900
N 	N 	0.44900 0.46150 0.23940 -0.18100
N 	N 	0.58290 0.74040 0.24110 -0.18000
N 	N 	0.56910 0.86270 0.13780 -0.17500
N 	N 	0.39790 0.72120 0.99370 -0.18900
N 	N 	0.58130 0.66180 0.86380 -0.18800
O 	O 	0.86560 0.39830 0.87810 -0.31900
O 	O 	0.92250 0.22800 0.03190 -0.29900
O 	O 	0.79900 0.18120 0.92170 -0.29800
O 	O 	0.71910 0.77000 0.12910 -0.31300
O 	O 	0.62940 0.58950 0.17150 -0.32000
O 	O 	0.59650 0.76120 0.00120 -0.30200
