data_crystal

_cell_length_a 9.37650
_cell_length_b 10.08070
_cell_length_c 18.62900
_cell_angle_alpha 86.47100
_cell_angle_beta  89.11200
_cell_angle_gamma 74.75200

_symmetry_space_group_name_	'P 1'
_symmetry_space_group_name_H-M	'P 1'

loop_
_symmetry_equiv_pos_as_xyz
  x,y,z

loop_
_atom_site_label
_atom_site_type_symbol
_atom_site_fract_x
_atom_site_fract_y
_atom_site_fract_z
_atom_site_charge
C 	C 	0.76290 0.93580 0.84110 0.12300
C 	C 	0.82040 0.04600 0.81700 -0.14400
C 	C 	0.97170 0.02210 0.80430 0.07700
H 	H 	0.01060 0.09640 0.78740 0.03900
C 	C 	0.06600 0.89170 0.81590 -0.12100
C 	C 	0.00900 0.78420 0.84090 0.08500
H 	H 	0.07410 0.69530 0.85020 0.03500
C 	C 	0.85800 0.80370 0.85300 -0.16700
C 	C 	0.72520 0.19070 0.80480 0.33300
C 	C 	0.22920 0.87090 0.80340 0.32600
C 	C 	0.80530 0.68160 0.88120 0.34300
C 	C 	0.57710 0.94610 0.93440 0.05400
H 	H 	0.64020 0.85600 0.95460 0.02600
C 	C 	0.41700 0.94700 0.94690 -0.13400
H 	H 	0.39620 0.86740 0.92460 0.05600
H 	H 	0.35200 0.03230 0.92390 0.07100
C 	C 	0.61580 0.06050 0.97320 -0.11700
H 	H 	0.72220 0.05440 0.96620 0.07500
H 	H 	0.55880 0.15070 0.95160 0.06800
C 	C 	0.77550 0.37450 0.65300 0.13100
C 	C 	0.80660 0.49190 0.67859 -0.16900
C 	C 	0.95110 0.49140 0.69390 0.08400
H 	H 	0.97150 0.57190 0.71030 0.04100
C 	C 	0.06600 0.37480 0.68550 -0.11300
C 	C 	0.03610 0.25810 0.66220 0.06500
H 	H 	0.11490 0.17760 0.65770 0.04500
C 	C 	0.89290 0.25500 0.64505 -0.13200
C 	C 	0.69140 0.61760 0.69960 0.36000
C 	C 	0.22150 0.37770 0.70300 0.31900
C 	C 	0.87000 0.12270 0.61930 0.31300
C 	C 	0.56510 0.47400 0.57270 0.05700
H 	H 	0.56650 0.56930 0.58400 0.01800
C 	C 	0.40780 0.47180 0.55990 -0.13500
H 	H 	0.34750 0.50320 0.60280 0.05300
H 	H 	0.40420 0.37630 0.55260 0.07700
C 	C 	0.65700 0.43520 0.50590 -0.12400
H 	H 	0.66250 0.33840 0.49640 0.07900
H 	H 	0.75880 0.44200 0.51420 0.07800
Cd	Cd	0.52272 0.82389 0.77641 1.21900
Cd	Cd	0.48663 0.41541 0.74445 1.22100
N 	N 	0.60870 0.95780 0.85583 -0.26700
H 	H 	0.56170 0.05590 0.83970 0.10500
N 	N 	0.62790 0.37690 0.63562 -0.25800
H 	H 	0.62940 0.28220 0.62180 0.11000
O 	O 	0.59060 0.20350 0.78851 -0.42900
O 	O 	0.77910 0.29000 0.80866 -0.30200
O 	O 	0.27470 0.96920 0.77790 -0.37700
O 	O 	0.31590 0.75460 0.82025 -0.39400
O 	O 	0.89040 0.59860 0.92443 -0.22600
O 	O 	0.68310 0.66730 0.86054 -0.37100
O 	O 	0.56340 0.60820 0.72118 -0.51500
O 	O 	0.72500 0.72830 0.70063 -0.37700
O 	O 	0.24110 0.48790 0.72520 -0.39700
O 	O 	0.32560 0.27470 0.69397 -0.34500
O 	O 	0.98220 0.03630 0.59770 -0.21800
O 	O 	0.74260 0.10370 0.62070 -0.25200
C 	C 	0.23710 0.06420 0.15890 0.12200
C 	C 	0.17960 0.95400 0.18300 -0.14500
C 	C 	0.02830 0.97790 0.19570 0.07600
H 	H 	0.98940 0.90360 0.21260 0.03800
C 	C 	0.93400 0.10830 0.18410 -0.12100
C 	C 	0.99100 0.21580 0.15910 0.08500
H 	H 	0.92590 0.30470 0.14980 0.03500
C 	C 	0.14200 0.19630 0.14700 -0.16700
C 	C 	0.27480 0.80930 0.19520 0.33300
C 	C 	0.77080 0.12910 0.19660 0.32600
C 	C 	0.19470 0.31840 0.11880 0.34300
C 	C 	0.42290 0.05390 0.06560 0.05400
H 	H 	0.35980 0.14400 0.04540 0.02600
C 	C 	0.58300 0.05300 0.05310 -0.13400
H 	H 	0.60380 0.13260 0.07540 0.05600
H 	H 	0.64800 0.96770 0.07610 0.07100
C 	C 	0.38420 0.93950 0.02680 -0.11700
H 	H 	0.27780 0.94560 0.03380 0.07500
H 	H 	0.44120 0.84930 0.04840 0.06800
C 	C 	0.22450 0.62550 0.34700 0.13100
C 	C 	0.19340 0.50810 0.32141 -0.16900
C 	C 	0.04890 0.50860 0.30610 0.08400
H 	H 	0.02850 0.42810 0.28970 0.04100
C 	C 	0.93400 0.62520 0.31450 -0.11300
C 	C 	0.96390 0.74190 0.33780 0.06500
H 	H 	0.88510 0.82240 0.34230 0.04500
C 	C 	0.10710 0.74500 0.35495 -0.13200
C 	C 	0.30860 0.38240 0.30040 0.36000
C 	C 	0.77850 0.62230 0.29700 0.31900
C 	C 	0.13000 0.87730 0.38070 0.31300
C 	C 	0.43490 0.52600 0.42730 0.05700
H 	H 	0.43350 0.43070 0.41600 0.01800
C 	C 	0.59220 0.52820 0.44010 -0.13500
H 	H 	0.65250 0.49680 0.39720 0.05300
H 	H 	0.59580 0.62370 0.44740 0.07700
C 	C 	0.34300 0.56480 0.49410 -0.12400
H 	H 	0.33750 0.66160 0.50360 0.07900
H 	H 	0.24120 0.55800 0.48580 0.07800
Cd	Cd	0.47728 0.17611 0.22359 1.21900
Cd	Cd	0.51337 0.58459 0.25555 1.22100
N 	N 	0.39130 0.04220 0.14417 -0.26700
H 	H 	0.43830 0.94410 0.16030 0.10500
N 	N 	0.37210 0.62310 0.36438 -0.25800
H 	H 	0.37060 0.71780 0.37820 0.11000
O 	O 	0.40940 0.79650 0.21149 -0.42900
O 	O 	0.22090 0.71000 0.19134 -0.30200
O 	O 	0.72530 0.03080 0.22210 -0.37700
O 	O 	0.68410 0.24540 0.17975 -0.39400
O 	O 	0.10960 0.40140 0.07557 -0.22600
O 	O 	0.31690 0.33270 0.13946 -0.37100
O 	O 	0.43660 0.39180 0.27882 -0.51500
O 	O 	0.27500 0.27170 0.29937 -0.37700
O 	O 	0.75890 0.51210 0.27480 -0.39700
O 	O 	0.67440 0.72530 0.30603 -0.34500
O 	O 	0.01780 0.96370 0.40230 -0.21800
O 	O 	0.25740 0.89630 0.37930 -0.25200
