data_crystal

_cell_length_a 12.28620
_cell_length_b 14.94710
_cell_length_c 20.89590
_cell_angle_alpha 90.00000
_cell_angle_beta  90.00000
_cell_angle_gamma 90.00000

_symmetry_space_group_name_	'P 1'
_symmetry_space_group_name_H-M	'P 1'

loop_
_symmetry_equiv_pos_as_xyz
  x,y,z

loop_
_atom_site_label
_atom_site_type_symbol
_atom_site_fract_x
_atom_site_fract_y
_atom_site_fract_z
_atom_site_charge
Mn	Mn	0.91569 0.62456 0.30633 1.28300
Mn	Mn	0.58431 0.87544 0.80633 1.28300
Mn	Mn	0.08431 0.62456 0.19367 1.28200
Mn	Mn	0.41569 0.87544 0.69367 1.28300
Mn	Mn	0.08431 0.37544 0.69367 1.28300
Mn	Mn	0.41569 0.12456 0.19367 1.28300
Mn	Mn	0.91569 0.37544 0.80633 1.28200
Mn	Mn	0.58431 0.12456 0.30633 1.28300
H 	H 	0.59990 0.61950 0.46000 0.00800
H 	H 	0.91690 0.64000 0.46460 -0.00700
H 	H 	0.86820 0.52970 0.56880 0.07300
H 	H 	0.74560 0.62560 0.73310 0.05200
H 	H 	0.64050 0.72350 0.56530 0.07200
H 	H 	0.90010 0.88050 0.96000 0.00900
H 	H 	0.58310 0.86000 0.96460 -0.00600
H 	H 	0.63180 0.97030 0.06880 0.07400
H 	H 	0.75440 0.87440 0.23310 0.05300
H 	H 	0.85950 0.77650 0.06530 0.07200
H 	H 	0.40010 0.61950 0.04000 0.00900
H 	H 	0.08310 0.64000 0.03540 -0.00700
H 	H 	0.13180 0.52970 0.93120 0.07400
H 	H 	0.25440 0.62560 0.76690 0.05300
H 	H 	0.35950 0.72350 0.93470 0.07200
H 	H 	0.09990 0.88050 0.54000 0.00900
H 	H 	0.41690 0.86000 0.53540 -0.00600
H 	H 	0.36820 0.97030 0.43120 0.07400
H 	H 	0.24560 0.87440 0.26690 0.05300
H 	H 	0.14050 0.77650 0.43470 0.07200
H 	H 	0.40010 0.38050 0.54000 0.00900
H 	H 	0.08310 0.36000 0.53540 -0.00600
H 	H 	0.13180 0.47030 0.43120 0.07400
H 	H 	0.25440 0.37440 0.26690 0.05300
H 	H 	0.35950 0.27650 0.43470 0.07200
H 	H 	0.09990 0.11950 0.04000 0.00900
H 	H 	0.41690 0.14000 0.03540 -0.00600
H 	H 	0.36820 0.02970 0.93120 0.07400
H 	H 	0.24560 0.12560 0.76690 0.05300
H 	H 	0.14050 0.22350 0.93470 0.07200
H 	H 	0.59990 0.38050 0.96000 0.00900
H 	H 	0.91690 0.36000 0.96460 -0.00700
H 	H 	0.86820 0.47030 0.06880 0.07400
H 	H 	0.74560 0.37440 0.23310 0.05300
H 	H 	0.64050 0.27650 0.06530 0.07200
H 	H 	0.90010 0.11950 0.46000 0.00900
H 	H 	0.58310 0.14000 0.46460 -0.00600
H 	H 	0.63180 0.02970 0.56880 0.07400
H 	H 	0.75440 0.12560 0.73310 0.05300
H 	H 	0.85950 0.22350 0.56530 0.07200
C 	C 	0.67260 0.61860 0.44750 0.10500
C 	C 	0.84600 0.63080 0.45040 0.10800
C 	C 	0.75370 0.62320 0.55710 0.09300
C 	C 	0.82010 0.56720 0.59030 -0.06900
C 	C 	0.81500 0.56690 0.65750 -0.07000
C 	C 	0.74830 0.62580 0.68870 0.01400
C 	C 	0.68420 0.68630 0.65410 -0.06700
C 	C 	0.61260 0.75310 0.68960 0.39400
C 	C 	0.68460 0.68480 0.58860 -0.06400
C 	C 	0.88030 0.49900 0.69360 0.38400
C 	C 	0.82740 0.88140 0.94750 0.10500
C 	C 	0.65400 0.86920 0.95040 0.10800
C 	C 	0.74630 0.87680 0.05710 0.09300
C 	C 	0.67990 0.93280 0.09030 -0.06900
C 	C 	0.68500 0.93310 0.15750 -0.07000
C 	C 	0.75170 0.87420 0.18870 0.01400
C 	C 	0.81580 0.81370 0.15410 -0.06700
C 	C 	0.88740 0.74690 0.18960 0.39400
C 	C 	0.81540 0.81520 0.08860 -0.06400
C 	C 	0.61970 0.00100 0.19360 0.38400
C 	C 	0.32740 0.61860 0.05250 0.10500
C 	C 	0.15400 0.63080 0.04960 0.10800
C 	C 	0.24630 0.62320 0.94290 0.09300
C 	C 	0.17990 0.56720 0.90970 -0.06900
C 	C 	0.18500 0.56690 0.84250 -0.06900
C 	C 	0.25170 0.62580 0.81130 0.01400
C 	C 	0.31580 0.68630 0.84590 -0.06700
C 	C 	0.38740 0.75310 0.81040 0.39400
C 	C 	0.31540 0.68480 0.91140 -0.06400
C 	C 	0.11970 0.49900 0.80640 0.38400
C 	C 	0.17260 0.88140 0.55250 0.10500
C 	C 	0.34600 0.86920 0.54960 0.10800
C 	C 	0.25370 0.87680 0.44290 0.09300
C 	C 	0.32010 0.93280 0.40970 -0.06900
C 	C 	0.31500 0.93310 0.34250 -0.07000
C 	C 	0.24830 0.87420 0.31130 0.01400
C 	C 	0.18420 0.81370 0.34590 -0.06700
C 	C 	0.11260 0.74690 0.31040 0.39400
C 	C 	0.18460 0.81520 0.41140 -0.06400
C 	C 	0.38030 0.00100 0.30640 0.38400
C 	C 	0.32740 0.38140 0.55250 0.10500
C 	C 	0.15400 0.36920 0.54960 0.10800
C 	C 	0.24630 0.37680 0.44290 0.09300
C 	C 	0.17990 0.43280 0.40970 -0.06900
C 	C 	0.18500 0.43310 0.34250 -0.07000
C 	C 	0.25170 0.37420 0.31130 0.01400
C 	C 	0.31580 0.31370 0.34590 -0.06700
C 	C 	0.38740 0.24690 0.31040 0.39400
C 	C 	0.31540 0.31520 0.41140 -0.06400
C 	C 	0.11970 0.50100 0.30640 0.38400
C 	C 	0.17260 0.11860 0.05250 0.10500
C 	C 	0.34600 0.13080 0.04960 0.10800
C 	C 	0.25370 0.12320 0.94290 0.09300
C 	C 	0.32010 0.06720 0.90970 -0.06900
C 	C 	0.31500 0.06690 0.84250 -0.07000
C 	C 	0.24830 0.12580 0.81130 0.01400
C 	C 	0.18420 0.18630 0.84590 -0.06700
C 	C 	0.11260 0.25310 0.81040 0.39400
C 	C 	0.18460 0.18480 0.91140 -0.06400
C 	C 	0.38030 0.99900 0.80640 0.38400
C 	C 	0.67260 0.38140 0.94750 0.10500
C 	C 	0.84600 0.36920 0.95040 0.10800
C 	C 	0.75370 0.37680 0.05710 0.09300
C 	C 	0.82010 0.43280 0.09030 -0.06900
C 	C 	0.81500 0.43310 0.15750 -0.06900
C 	C 	0.74830 0.37420 0.18870 0.01400
C 	C 	0.68420 0.31370 0.15410 -0.06700
C 	C 	0.61260 0.24690 0.18960 0.39400
C 	C 	0.68460 0.31520 0.08860 -0.06400
C 	C 	0.88030 0.50100 0.19360 0.38400
C 	C 	0.82740 0.11860 0.44750 0.10500
C 	C 	0.65400 0.13080 0.45040 0.10800
C 	C 	0.74630 0.12320 0.55710 0.09300
C 	C 	0.67990 0.06720 0.59030 -0.06900
C 	C 	0.68500 0.06690 0.65750 -0.07000
C 	C 	0.75170 0.12580 0.68870 0.01400
C 	C 	0.81580 0.18630 0.65410 -0.06700
C 	C 	0.88740 0.25310 0.68960 0.39400
C 	C 	0.81540 0.18480 0.58860 -0.06400
C 	C 	0.61970 0.99900 0.69360 0.38400
N 	N 	0.75710 0.62330 0.48860 -0.15200
N 	N 	0.81670 0.62320 0.39080 -0.21500
N 	N 	0.70460 0.61250 0.38880 -0.10300
N 	N 	0.74290 0.87670 0.98860 -0.15200
N 	N 	0.68330 0.87680 0.89080 -0.21500
N 	N 	0.79540 0.88750 0.88880 -0.10300
N 	N 	0.24290 0.62330 0.01140 -0.15200
N 	N 	0.18330 0.62320 0.10920 -0.21500
N 	N 	0.29540 0.61250 0.11120 -0.10300
N 	N 	0.25710 0.87670 0.51140 -0.15200
N 	N 	0.31670 0.87680 0.60920 -0.21500
N 	N 	0.20460 0.88750 0.61120 -0.10300
N 	N 	0.24290 0.37670 0.51140 -0.15200
N 	N 	0.18330 0.37680 0.60920 -0.21500
N 	N 	0.29540 0.38750 0.61120 -0.10300
N 	N 	0.25710 0.12330 0.01140 -0.15200
N 	N 	0.31670 0.12320 0.10920 -0.21500
N 	N 	0.20460 0.11250 0.11120 -0.10300
N 	N 	0.75710 0.37670 0.98860 -0.15200
N 	N 	0.81670 0.37680 0.89080 -0.21500
N 	N 	0.70460 0.38750 0.88880 -0.10300
N 	N 	0.74290 0.12330 0.48860 -0.15200
N 	N 	0.68330 0.12320 0.39080 -0.21500
N 	N 	0.79540 0.11250 0.38880 -0.10300
O 	O 	0.64350 0.77610 0.74330 -0.46900
O 	O 	0.53050 0.78060 0.66060 -0.45900
O 	O 	0.84920 0.47720 0.74830 -0.45600
O 	O 	0.96280 0.46870 0.66580 -0.45900
O 	O 	0.85650 0.72390 0.24330 -0.46900
O 	O 	0.96950 0.71940 0.16060 -0.45900
O 	O 	0.65080 0.02280 0.24830 -0.45600
O 	O 	0.53720 0.03130 0.16580 -0.45800
O 	O 	0.35650 0.77610 0.75670 -0.46900
O 	O 	0.46950 0.78060 0.83940 -0.45900
O 	O 	0.15080 0.47720 0.75170 -0.45600
O 	O 	0.03720 0.46870 0.83420 -0.45800
O 	O 	0.14350 0.72390 0.25670 -0.46900
O 	O 	0.03050 0.71940 0.33940 -0.45900
O 	O 	0.34920 0.02280 0.25170 -0.45600
O 	O 	0.46280 0.03130 0.33420 -0.45800
O 	O 	0.35650 0.22390 0.25670 -0.46900
O 	O 	0.46950 0.21940 0.33940 -0.45900
O 	O 	0.15080 0.52280 0.25170 -0.45600
O 	O 	0.03720 0.53130 0.33420 -0.45900
O 	O 	0.14350 0.27610 0.75670 -0.46900
O 	O 	0.03050 0.28060 0.83940 -0.45900
O 	O 	0.34920 0.97720 0.75170 -0.45600
O 	O 	0.46280 0.96870 0.83420 -0.45800
O 	O 	0.64350 0.22390 0.24330 -0.46900
O 	O 	0.53050 0.21940 0.16060 -0.45900
O 	O 	0.84920 0.52280 0.24830 -0.45600
O 	O 	0.96280 0.53130 0.16580 -0.45800
O 	O 	0.85650 0.27610 0.74330 -0.46900
O 	O 	0.96950 0.28060 0.66060 -0.45900
O 	O 	0.65080 0.97720 0.74830 -0.45600
O 	O 	0.53720 0.96870 0.66580 -0.45800
