data_crystal

_cell_length_a 26.93770
_cell_length_b 26.93770
_cell_length_c 26.93770
_cell_angle_alpha 109.47100
_cell_angle_beta  109.47100
_cell_angle_gamma 109.47100

_symmetry_space_group_name_	'P 1'
_symmetry_space_group_name_H-M	'P 1'

loop_
_symmetry_equiv_pos_as_xyz
  x,y,z

loop_
_atom_site_label
_atom_site_type_symbol
_atom_site_fract_x
_atom_site_fract_y
_atom_site_fract_z
_atom_site_charge
Cu	Cu	0.81944 0.18056 -0.00000 0.89200
Cu	Cu	0.18056 0.81944 -0.00000 0.89200
Cu	Cu	0.81944 0.81944 0.63888 0.90100
Cu	Cu	0.18056 0.18056 0.36112 0.89900
Cu	Cu	0.63888 0.81944 0.81944 0.90200
Cu	Cu	0.36112 0.18056 0.18056 0.90000
Cu	Cu	0.00000 0.81944 0.18056 0.90100
Cu	Cu	1.00000 0.18056 0.81944 0.90000
Cu	Cu	0.81944 1.00000 0.18056 0.90500
Cu	Cu	0.18056 0.00000 0.81944 0.89900
Cu	Cu	0.18056 0.36112 0.18056 0.90000
Cu	Cu	0.81944 0.63888 0.81944 0.90200
Cu	Cu	0.48103 0.24052 0.24052 0.91700
Cu	Cu	1.00000 0.24051 0.75949 0.91600
Cu	Cu	-0.00000 0.75949 0.24051 0.91800
Cu	Cu	0.51897 0.75948 0.75948 0.91800
Cu	Cu	0.24051 0.00000 0.75948 0.91400
Cu	Cu	0.75949 0.51898 0.75949 0.91800
Cu	Cu	0.24051 0.48102 0.24051 0.91800
Cu	Cu	0.75949 0.00000 0.24052 0.91400
Cu	Cu	0.24051 0.75948 1.00000 0.92600
Cu	Cu	0.24051 0.24051 0.48102 0.91800
Cu	Cu	0.75949 0.75949 0.51898 0.91800
Cu	Cu	0.75949 0.24052 -0.00000 0.91100
H 	H 	0.73980 0.24730 0.15710 0.06900
H 	H 	0.09020 0.58270 0.84290 0.07400
H 	H 	0.90980 0.75270 0.49250 0.07500
H 	H 	0.26020 0.41730 0.50750 0.07100
H 	H 	0.49250 0.90980 0.75270 0.06700
H 	H 	0.50750 0.26020 0.41730 0.07000
H 	H 	0.15710 0.73980 0.24730 0.07100
H 	H 	0.84290 0.09020 0.58270 0.06900
H 	H 	0.58270 0.84290 0.09020 0.05500
H 	H 	0.24730 0.15710 0.73980 0.07100
H 	H 	0.41730 0.50750 0.26020 0.07000
H 	H 	0.75270 0.49250 0.90980 0.06800
H 	H 	0.75270 0.26020 0.84290 0.07300
H 	H 	0.41730 0.90980 0.15710 0.07300
H 	H 	0.24730 0.09020 0.50750 0.07600
H 	H 	0.58270 0.73980 0.49250 0.07100
H 	H 	0.09020 0.50750 0.24730 0.06700
H 	H 	0.73980 0.49250 0.58270 0.07100
H 	H 	0.26020 0.84290 0.75270 0.07300
H 	H 	0.90980 0.15710 0.41730 0.07100
H 	H 	0.15710 0.41730 0.90980 0.07000
H 	H 	0.84290 0.75270 0.26020 0.07000
H 	H 	0.49250 0.58270 0.73980 0.07200
H 	H 	0.50750 0.24730 0.09020 0.07600
H 	H 	0.26020 0.75270 0.84290 0.07300
H 	H 	0.90980 0.41730 0.15710 0.06600
H 	H 	0.09020 0.24730 0.50750 0.07100
H 	H 	0.73980 0.58270 0.49250 0.07100
H 	H 	0.50750 0.09020 0.24730 0.07500
H 	H 	0.49250 0.73980 0.58270 0.07100
H 	H 	0.84290 0.26020 0.75270 0.07100
H 	H 	0.15710 0.90980 0.41730 0.07500
H 	H 	0.41730 0.15710 0.90980 0.07400
H 	H 	0.75270 0.84290 0.26020 0.07100
H 	H 	0.58270 0.49250 0.73980 0.07200
H 	H 	0.24730 0.50750 0.09020 0.07100
H 	H 	0.24730 0.73980 0.15710 0.07000
H 	H 	0.58270 0.09020 0.84290 0.06800
H 	H 	0.75270 0.90980 0.49250 0.06800
H 	H 	0.41730 0.26020 0.50750 0.07000
H 	H 	0.90980 0.49250 0.75270 0.07300
H 	H 	0.26020 0.50750 0.41730 0.07100
H 	H 	0.73980 0.15710 0.24730 0.07000
H 	H 	0.09020 0.84290 0.58270 0.07500
H 	H 	0.84290 0.58270 0.09020 0.06900
H 	H 	0.15710 0.24730 0.73980 0.07200
H 	H 	0.50750 0.41730 0.26020 0.07000
H 	H 	0.49250 0.75270 0.90980 0.05300
H 	H 	0.74600 0.37300 0.37300 0.07500
H 	H 	1.00000 0.37300 0.62700 0.07300
H 	H 	1.00000 0.62700 0.37300 0.07200
H 	H 	0.25400 0.62700 0.62700 0.07600
H 	H 	0.37300 1.00000 0.62700 0.10400
H 	H 	0.62700 0.25400 0.62700 0.07500
H 	H 	0.37300 0.74600 0.37300 0.07600
H 	H 	0.62700 0.00000 0.37300 0.08900
H 	H 	0.37300 0.62700 -0.00000 0.05800
H 	H 	0.37300 0.37300 0.74600 0.07700
H 	H 	0.62700 0.62700 0.25400 0.07400
H 	H 	0.62700 0.37300 -0.00000 0.06500
H 	H 	0.78880 0.11980 0.11980 0.05700
H 	H 	0.58820 0.23100 0.23100 0.04700
H 	H 	1.00000 0.66900 0.88020 0.06600
H 	H 	1.00000 0.35720 0.76900 0.04700
H 	H 	1.00000 0.88020 0.66900 0.06600
H 	H 	1.00000 0.76900 0.35720 0.04800
H 	H 	0.21120 0.33100 0.33100 0.06000
H 	H 	0.41180 0.64280 0.64280 0.04800
H 	H 	0.66900 0.00000 0.88020 0.06400
H 	H 	0.35720 1.00000 0.76900 0.07500
H 	H 	0.33100 0.21120 0.33100 0.06000
H 	H 	0.64280 0.41180 0.64280 0.04800
H 	H 	0.11980 0.78880 0.11980 0.05900
H 	H 	0.23100 0.58820 0.23100 0.04800
H 	H 	0.88020 0.00000 0.66900 0.06300
H 	H 	0.76900 0.00000 0.35720 0.05100
H 	H 	0.66900 0.88020 -0.00000 0.05900
H 	H 	0.35720 0.76900 -0.00000 0.00900
H 	H 	0.11980 0.11980 0.78880 0.06200
H 	H 	0.23100 0.23100 0.58820 0.04800
H 	H 	0.33100 0.33100 0.21120 0.05900
H 	H 	0.64280 0.64280 0.41180 0.04800
H 	H 	0.88020 0.66900 -0.00000 0.06500
H 	H 	0.76900 0.35720 -0.00000 0.04400
H 	H 	0.88020 0.21120 0.88020 0.06300
H 	H 	0.76900 0.41180 0.76900 0.04900
H 	H 	0.33100 0.00000 0.11980 0.06400
H 	H 	0.64280 0.00000 0.23100 0.05800
H 	H 	0.11980 1.00000 0.33100 0.08300
H 	H 	0.23100 1.00000 0.64280 0.06500
H 	H 	0.66900 0.78880 0.66900 0.06200
H 	H 	0.35720 0.58820 0.35720 0.04900
H 	H 	1.00000 0.33100 0.11980 0.05200
H 	H 	-0.00000 0.64280 0.23100 0.04800
H 	H 	0.78880 0.66900 0.66900 0.06100
H 	H 	0.58820 0.35720 0.35720 0.04800
H 	H 	0.21120 0.88020 0.88020 0.06500
H 	H 	0.41180 0.76900 0.76900 0.05000
H 	H 	0.00000 0.11980 0.33100 0.06500
H 	H 	1.00000 0.23100 0.64280 0.04700
H 	H 	0.11980 0.33100 -0.00000 0.06700
H 	H 	0.23100 0.64280 -0.00000 0.00500
H 	H 	0.88020 0.88020 0.21120 0.06100
H 	H 	0.76900 0.76900 0.41180 0.04900
H 	H 	0.66900 0.66900 0.78880 0.06200
H 	H 	0.35720 0.35720 0.58820 0.04900
H 	H 	0.33100 0.11980 -0.00000 0.06900
H 	H 	0.64280 0.23100 1.00000 0.06900
C 	C 	0.76487 0.18295 0.13168 -0.05700
C 	C 	0.74590 0.21792 0.16482 -0.05300
C 	C 	0.77300 0.19392 0.08192 0.34500
C 	C 	0.05127 0.63319 0.86832 -0.04200
C 	C 	0.05310 0.58108 0.83518 -0.05600
C 	C 	0.11200 0.69108 0.91808 0.34100
C 	C 	0.94873 0.81705 0.58192 -0.04400
C 	C 	0.94690 0.78208 0.52798 -0.06600
C 	C 	0.88800 0.80608 0.57908 0.34100
C 	C 	0.23513 0.36681 0.41808 -0.05300
C 	C 	0.25410 0.41892 0.47202 -0.05400
C 	C 	0.22700 0.30892 0.42092 0.34400
C 	C 	0.58192 0.94873 0.81705 -0.04500
C 	C 	0.52798 0.94690 0.78208 -0.03600
C 	C 	0.57908 0.88800 0.80608 0.34300
C 	C 	0.41808 0.23513 0.36681 -0.05400
C 	C 	0.47202 0.25410 0.41892 -0.05400
C 	C 	0.42092 0.22700 0.30892 0.34500
C 	C 	0.13168 0.76487 0.18295 -0.05400
C 	C 	0.16482 0.74590 0.21792 -0.05300
C 	C 	0.08192 0.77300 0.19392 0.34500
C 	C 	0.86832 0.05127 0.63319 -0.05100
C 	C 	0.83518 0.05310 0.58108 -0.05000
C 	C 	0.91808 0.11200 0.69108 0.34300
C 	C 	0.63319 0.86832 0.05127 -0.06700
C 	C 	0.58108 0.83518 0.05310 -0.01500
C 	C 	0.69108 0.91808 0.11200 0.34800
C 	C 	0.18295 0.13168 0.76487 -0.05200
C 	C 	0.21792 0.16482 0.74590 -0.05400
C 	C 	0.19392 0.08192 0.77300 0.34400
C 	C 	0.36681 0.41808 0.23513 -0.05400
C 	C 	0.41892 0.47202 0.25410 -0.05300
C 	C 	0.30892 0.42092 0.22700 0.34500
C 	C 	0.81705 0.58192 0.94873 -0.03200
C 	C 	0.78208 0.52798 0.94690 -0.03300
C 	C 	0.80608 0.57908 0.88800 0.34000
C 	C 	0.81705 0.23513 0.86832 -0.04900
C 	C 	0.78208 0.25410 0.83518 -0.05600
C 	C 	0.80608 0.22700 0.91808 0.34200
C 	C 	0.36681 0.94873 0.13168 -0.03500
C 	C 	0.41892 0.94690 0.16482 -0.06300
C 	C 	0.30892 0.88800 0.08192 0.33900
C 	C 	0.18295 0.05127 0.41808 -0.03200
C 	C 	0.21792 0.05310 0.47202 -0.07000
C 	C 	0.19392 0.11200 0.42092 0.33700
C 	C 	0.63319 0.76487 0.58192 -0.05100
C 	C 	0.58108 0.74590 0.52798 -0.05400
C 	C 	0.69108 0.77300 0.57908 0.34400
C 	C 	0.05127 0.41808 0.18295 -0.06300
C 	C 	0.05310 0.47202 0.21792 -0.04200
C 	C 	0.11200 0.42092 0.19392 0.34800
C 	C 	0.76487 0.58192 0.63319 -0.05200
C 	C 	0.74590 0.52798 0.58108 -0.05400
C 	C 	0.77300 0.57908 0.69108 0.34400
C 	C 	0.23513 0.86832 0.81705 -0.04800
C 	C 	0.25410 0.83518 0.78208 -0.05600
C 	C 	0.22700 0.91808 0.80608 0.34300
C 	C 	0.94873 0.13168 0.36681 -0.04900
C 	C 	0.94690 0.16482 0.41892 -0.05600
C 	C 	0.88800 0.08192 0.30892 0.34300
C 	C 	0.13168 0.36681 0.94873 -0.02500
C 	C 	0.16482 0.41892 0.94690 -0.03800
C 	C 	0.08192 0.30892 0.88800 0.33800
C 	C 	0.86832 0.81705 0.23513 -0.05300
C 	C 	0.83518 0.78208 0.25410 -0.05400
C 	C 	0.91808 0.80608 0.22700 0.34400
C 	C 	0.58192 0.63319 0.76487 -0.05100
C 	C 	0.52798 0.58108 0.74590 -0.05500
C 	C 	0.57908 0.69108 0.77300 0.34400
C 	C 	0.41808 0.18295 0.05127 -0.03600
C 	C 	0.47202 0.21792 0.05310 -0.07200
C 	C 	0.42092 0.19392 0.11200 0.33700
C 	C 	0.23513 0.81705 0.86832 -0.04700
C 	C 	0.25410 0.78208 0.83518 -0.05600
C 	C 	0.22700 0.80608 0.91808 0.34300
C 	C 	0.94873 0.36681 0.13168 -0.06500
C 	C 	0.94690 0.41892 0.16482 -0.04300
C 	C 	0.88800 0.30892 0.08192 0.34700
C 	C 	0.05127 0.18295 0.41808 -0.04700
C 	C 	0.05310 0.21792 0.47202 -0.05400
C 	C 	0.11200 0.19392 0.42092 0.34200
C 	C 	0.76487 0.63319 0.58192 -0.05200
C 	C 	0.74590 0.58108 0.52798 -0.05400
C 	C 	0.77300 0.69108 0.57908 0.34400
C 	C 	0.41808 0.05127 0.18295 -0.04200
C 	C 	0.47202 0.05310 0.21792 -0.07200
C 	C 	0.42092 0.11200 0.19392 0.34000
C 	C 	0.58192 0.76487 0.63319 -0.05100
C 	C 	0.52798 0.74590 0.58108 -0.05400
C 	C 	0.57908 0.77300 0.69108 0.34400
C 	C 	0.86832 0.23513 0.81705 -0.05100
C 	C 	0.83518 0.25410 0.78208 -0.05500
C 	C 	0.91808 0.22700 0.80608 0.34400
C 	C 	0.13168 0.94873 0.36681 -0.02500
C 	C 	0.16482 0.94690 0.41892 -0.06100
C 	C 	0.08192 0.88800 0.30892 0.33600
C 	C 	0.36681 0.13168 0.94873 -0.01900
C 	C 	0.41892 0.16482 0.94690 -0.05300
C 	C 	0.30892 0.08192 0.88800 0.33500
C 	C 	0.81705 0.86832 0.23513 -0.05200
C 	C 	0.78208 0.83518 0.25410 -0.05400
C 	C 	0.80608 0.91808 0.22700 0.34400
C 	C 	0.63319 0.58192 0.76487 -0.05100
C 	C 	0.58108 0.52798 0.74590 -0.05500
C 	C 	0.69108 0.57908 0.77300 0.34400
C 	C 	0.18295 0.41808 0.05127 -0.04300
C 	C 	0.21792 0.47202 0.05310 -0.05700
C 	C 	0.19392 0.42092 0.11200 0.34000
C 	C 	0.18295 0.76487 0.13168 -0.05500
C 	C 	0.21792 0.74590 0.16482 -0.05300
C 	C 	0.19392 0.77300 0.08192 0.34500
C 	C 	0.63319 0.05127 0.86832 -0.05100
C 	C 	0.58108 0.05310 0.83518 -0.04500
C 	C 	0.69108 0.11200 0.91808 0.34300
C 	C 	0.81705 0.94873 0.58192 -0.04300
C 	C 	0.78208 0.94690 0.52798 -0.04000
C 	C 	0.80608 0.88800 0.57908 0.34200
C 	C 	0.36681 0.23513 0.41808 -0.05400
C 	C 	0.41892 0.25410 0.47202 -0.05400
C 	C 	0.30892 0.22700 0.42092 0.34400
C 	C 	0.94873 0.58192 0.81705 -0.04700
C 	C 	0.94690 0.52798 0.78208 -0.05900
C 	C 	0.88800 0.57908 0.80608 0.34300
C 	C 	0.23513 0.41808 0.36681 -0.05300
C 	C 	0.25410 0.47202 0.41892 -0.05400
C 	C 	0.22700 0.42092 0.30892 0.34400
C 	C 	0.76487 0.13168 0.18295 -0.05600
C 	C 	0.74590 0.16482 0.21792 -0.05300
C 	C 	0.77300 0.08192 0.19392 0.34500
C 	C 	0.05127 0.86832 0.63319 -0.04200
C 	C 	0.05310 0.83518 0.58108 -0.06400
C 	C 	0.11200 0.91808 0.69108 0.34000
C 	C 	0.86832 0.63319 0.05127 -0.04800
C 	C 	0.83518 0.58108 0.05310 -0.05100
C 	C 	0.91808 0.69108 0.11200 0.34200
C 	C 	0.13168 0.18295 0.76487 -0.05100
C 	C 	0.16482 0.21792 0.74590 -0.05400
C 	C 	0.08192 0.19392 0.77300 0.34400
C 	C 	0.41808 0.36681 0.23513 -0.05400
C 	C 	0.47202 0.41892 0.25410 -0.05300
C 	C 	0.42092 0.30892 0.22700 0.34500
C 	C 	0.58192 0.81705 0.94873 -0.05100
C 	C 	0.52798 0.78208 0.94690 0.00400
C 	C 	0.57908 0.80608 0.88800 0.34600
C 	C 	0.70360 0.35180 0.35180 -0.09900
C 	C 	1.00000 0.35180 0.64820 -0.09400
C 	C 	-0.00000 0.64820 0.35180 -0.09200
C 	C 	0.29640 0.64820 0.64820 -0.09900
C 	C 	0.35180 0.00000 0.64820 -0.16200
C 	C 	0.64820 0.29640 0.64820 -0.09900
C 	C 	0.35180 0.70360 0.35180 -0.09900
C 	C 	0.64820 0.00000 0.35180 -0.14300
C 	C 	0.35180 0.64820 -0.00000 -0.05700
C 	C 	0.35180 0.35180 0.70360 -0.09900
C 	C 	0.64820 0.64820 0.29640 -0.09900
C 	C 	0.64820 0.35180 -0.00000 -0.08400
C 	C 	0.73680 0.20770 0.20770 0.03900
C 	C 	0.77516 0.14128 0.14128 0.00500
C 	C 	0.67182 0.29831 0.29831 0.03800
C 	C 	0.70170 0.27085 0.27085 -0.01500
C 	C 	0.60934 0.26747 0.26747 -0.00900
C 	C 	0.71660 0.24110 0.24110 -0.01800
C 	C 	1.00000 0.52910 0.79230 0.04600
C 	C 	1.00000 0.63388 0.85872 -0.00700
C 	C 	1.00000 0.37351 0.70169 0.03100
C 	C 	-0.00000 0.43085 0.72915 -0.00200
C 	C 	1.00000 0.34187 0.73253 -0.00500
C 	C 	1.00000 0.47550 0.75890 -0.02600
C 	C 	-0.00000 0.79230 0.52910 0.05500
C 	C 	1.00000 0.85872 0.63388 -0.00900
C 	C 	1.00000 0.70169 0.37351 0.03300
C 	C 	1.00000 0.72915 0.43085 -0.00900
C 	C 	1.00000 0.73253 0.34187 -0.00600
C 	C 	1.00000 0.75890 0.47550 -0.02500
C 	C 	0.26320 0.47090 0.47090 0.04200
C 	C 	0.22484 0.36612 0.36612 0.00300
C 	C 	0.32818 0.62649 0.62649 0.03900
C 	C 	0.29830 0.56915 0.56915 -0.01400
C 	C 	0.39066 0.65813 0.65813 -0.00800
C 	C 	0.28340 0.52450 0.52450 -0.01700
C 	C 	0.52910 0.00000 0.79230 0.01900
C 	C 	0.63388 0.00000 0.85872 -0.00900
C 	C 	0.37351 1.00000 0.70169 0.10600
C 	C 	0.43085 0.00000 0.72915 -0.05100
C 	C 	0.34187 -0.00000 0.73253 -0.06400
C 	C 	0.47550 0.00000 0.75890 0.00400
C 	C 	0.47090 0.26320 0.47090 0.04100
C 	C 	0.36612 0.22484 0.36612 0.00400
C 	C 	0.62649 0.32818 0.62649 0.03900
C 	C 	0.56915 0.29830 0.56915 -0.01500
C 	C 	0.65813 0.39066 0.65813 -0.00900
C 	C 	0.52450 0.28340 0.52450 -0.01700
C 	C 	0.20770 0.73680 0.20770 0.04100
C 	C 	0.14128 0.77516 0.14128 0.00400
C 	C 	0.29831 0.67182 0.29831 0.03900
C 	C 	0.27085 0.70170 0.27085 -0.01400
C 	C 	0.26747 0.60934 0.26747 -0.00900
C 	C 	0.24110 0.71660 0.24110 -0.01700
C 	C 	0.79230 0.00000 0.52910 0.02600
C 	C 	0.85872 0.00000 0.63388 -0.01200
C 	C 	0.70169 0.00000 0.37351 0.06000
C 	C 	0.72915 0.00000 0.43085 -0.02700
C 	C 	0.73253 0.00000 0.34187 -0.02300
C 	C 	0.75890 0.00000 0.47550 -0.01000
C 	C 	0.52910 0.79230 -0.00000 -0.03800
C 	C 	0.63388 0.85872 -0.00000 -0.00700
C 	C 	0.37351 0.70169 -0.00000 -0.00400
C 	C 	0.43085 0.72915 -0.00000 -0.05200
C 	C 	0.34187 0.73253 1.00000 0.06800
C 	C 	0.47550 0.75890 1.00000 0.05500
C 	C 	0.20770 0.20770 0.73680 0.04300
C 	C 	0.14128 0.14128 0.77516 0.00200
C 	C 	0.29831 0.29831 0.67182 0.03900
C 	C 	0.27085 0.27085 0.70170 -0.01300
C 	C 	0.26747 0.26747 0.60934 -0.00900
C 	C 	0.24110 0.24110 0.71660 -0.01700
C 	C 	0.47090 0.47090 0.26320 0.04100
C 	C 	0.36612 0.36612 0.22484 0.00400
C 	C 	0.62649 0.62649 0.32818 0.03900
C 	C 	0.56915 0.56915 0.29830 -0.01500
C 	C 	0.65813 0.65813 0.39066 -0.00900
C 	C 	0.52450 0.52450 0.28340 -0.01700
C 	C 	0.79230 0.52910 -0.00000 0.01900
C 	C 	0.85872 0.63388 -0.00000 -0.02700
C 	C 	0.70169 0.37351 -0.00000 0.03100
C 	C 	0.72915 0.43085 -0.00000 -0.01900
C 	C 	0.73253 0.34187 -0.00000 -0.00700
C 	C 	0.75890 0.47550 -0.00000 -0.01500
C 	C 	0.79230 0.26320 0.79230 0.04400
C 	C 	0.85872 0.22484 0.85872 0.00100
C 	C 	0.70169 0.32818 0.70169 0.03900
C 	C 	0.72915 0.29830 0.72915 -0.01400
C 	C 	0.73253 0.39066 0.73253 -0.00900
C 	C 	0.75890 0.28340 0.75890 -0.01700
C 	C 	0.47090 1.00000 0.20770 0.04900
C 	C 	0.36612 0.00000 0.14128 -0.02200
C 	C 	0.62649 1.00000 0.29831 0.09500
C 	C 	0.56915 0.00000 0.27085 -0.05400
C 	C 	0.65813 0.00000 0.26747 -0.04400
C 	C 	0.52450 1.00000 0.24110 0.00900
C 	C 	0.20770 0.00000 0.47090 0.04900
C 	C 	0.14128 0.00000 0.36612 -0.04400
C 	C 	0.29831 0.00000 0.62649 0.05900
C 	C 	0.27085 1.00000 0.56915 0.00100
C 	C 	0.26747 0.00000 0.65813 -0.03700
C 	C 	0.24110 0.00000 0.52450 -0.03400
C 	C 	0.52910 0.73680 0.52910 0.04300
C 	C 	0.63388 0.77516 0.63388 0.00200
C 	C 	0.37351 0.67182 0.37351 0.03900
C 	C 	0.43085 0.70170 0.43085 -0.01400
C 	C 	0.34187 0.60934 0.34187 -0.00900
C 	C 	0.47550 0.71660 0.47550 -0.01700
C 	C 	1.00000 0.47090 0.20770 0.02800
C 	C 	-0.00000 0.36612 0.14128 0.01900
C 	C 	-0.00000 0.62649 0.29831 0.04000
C 	C 	1.00000 0.56915 0.27085 -0.02100
C 	C 	0.00000 0.65813 0.26747 -0.00700
C 	C 	0.00000 0.52450 0.24110 -0.00800
C 	C 	0.73680 0.52910 0.52910 0.04200
C 	C 	0.77516 0.63388 0.63388 0.00200
C 	C 	0.67182 0.37351 0.37351 0.03900
C 	C 	0.70170 0.43085 0.43085 -0.01400
C 	C 	0.60934 0.34187 0.34187 -0.00900
C 	C 	0.71660 0.47550 0.47550 -0.01700
C 	C 	0.26320 0.79230 0.79230 0.04500
C 	C 	0.22484 0.85872 0.85872 -0.00100
C 	C 	0.32818 0.70169 0.70169 0.04000
C 	C 	0.29830 0.72915 0.72915 -0.01300
C 	C 	0.39066 0.73253 0.73253 -0.00800
C 	C 	0.28340 0.75890 0.75890 -0.01700
C 	C 	1.00000 0.20770 0.47090 0.04100
C 	C 	1.00000 0.14128 0.36612 -0.00900
C 	C 	1.00000 0.29831 0.62649 0.03600
C 	C 	1.00000 0.27085 0.56915 -0.01400
C 	C 	1.00000 0.26747 0.65813 -0.00700
C 	C 	1.00000 0.24110 0.52450 -0.01800
C 	C 	0.20770 0.47090 -0.00000 0.02700
C 	C 	0.14128 0.36612 -0.00000 -0.03500
C 	C 	0.29831 0.62649 -0.00000 -0.02600
C 	C 	0.27085 0.56915 -0.00000 0.00300
C 	C 	0.26747 0.65813 1.00000 0.07900
C 	C 	0.24110 0.52450 -0.00000 -0.02900
C 	C 	0.79230 0.79230 0.26320 0.04200
C 	C 	0.85872 0.85872 0.22484 0.00300
C 	C 	0.70169 0.70169 0.32818 0.03900
C 	C 	0.72915 0.72915 0.29830 -0.01500
C 	C 	0.73253 0.73253 0.39066 -0.00900
C 	C 	0.75890 0.75890 0.28340 -0.01700
C 	C 	0.52910 0.52910 0.73680 0.04300
C 	C 	0.63388 0.63388 0.77516 0.00200
C 	C 	0.37351 0.37351 0.67182 0.04000
C 	C 	0.43085 0.43085 0.70170 -0.01300
C 	C 	0.34187 0.34187 0.60934 -0.00900
C 	C 	0.47550 0.47550 0.71660 -0.01700
C 	C 	0.47090 0.20770 -0.00000 0.04900
C 	C 	0.36612 0.14128 -0.00000 -0.04300
C 	C 	0.62649 0.29831 -0.00000 0.00800
C 	C 	0.56915 0.27085 1.00000 0.04600
C 	C 	0.65813 0.26747 -0.00000 -0.02900
C 	C 	0.52450 0.24110 -0.00000 -0.06600
N 	N 	0.57800 0.28900 0.28900 -0.15800
N 	N 	1.00000 0.28900 0.71100 -0.15900
N 	N 	1.00000 0.71100 0.28900 -0.15900
N 	N 	0.42200 0.71100 0.71100 -0.15700
N 	N 	0.28900 0.00000 0.71100 -0.14500
N 	N 	0.71100 0.42200 0.71100 -0.15700
N 	N 	0.28900 0.57800 0.28900 -0.15800
N 	N 	0.71100 0.00000 0.28900 -0.15100
N 	N 	0.28900 0.71100 1.00000 -0.18000
N 	N 	0.28900 0.28900 0.57800 -0.15800
N 	N 	0.71100 0.71100 0.42200 -0.15800
N 	N 	0.71100 0.28900 -0.00000 -0.15800
O 	O 	0.80142 0.17279 0.06317 -0.41100
O 	O 	0.75112 0.22380 0.06322 -0.39300
O 	O 	0.10962 0.73825 0.93683 -0.39600
O 	O 	0.16058 0.68790 0.93678 -0.38200
O 	O 	0.89038 0.82721 0.62863 -0.40400
O 	O 	0.83942 0.77620 0.52732 -0.38700
O 	O 	0.19858 0.26175 0.37137 -0.40600
O 	O 	0.24888 0.31210 0.47268 -0.38800
O 	O 	0.62863 0.89038 0.82721 -0.40100
O 	O 	0.52732 0.83942 0.77620 -0.38700
O 	O 	0.37137 0.19858 0.26175 -0.40700
O 	O 	0.47268 0.24888 0.31210 -0.38800
O 	O 	0.06317 0.80142 0.17279 -0.40600
O 	O 	0.06322 0.75112 0.22380 -0.38800
O 	O 	0.93683 0.10962 0.73825 -0.40700
O 	O 	0.93678 0.16058 0.68790 -0.38900
O 	O 	0.73825 0.93683 0.10962 -0.40600
O 	O 	0.68790 0.93678 0.16058 -0.38500
O 	O 	0.17279 0.06317 0.80142 -0.40600
O 	O 	0.22380 0.06322 0.75112 -0.39000
O 	O 	0.26175 0.37137 0.19858 -0.40700
O 	O 	0.31210 0.47268 0.24888 -0.38800
O 	O 	0.82721 0.62863 0.89038 -0.40000
O 	O 	0.77620 0.52732 0.83942 -0.38600
O 	O 	0.82721 0.19858 0.93683 -0.39800
O 	O 	0.77620 0.24888 0.93678 -0.37900
O 	O 	0.26175 0.89038 0.06317 -0.40700
O 	O 	0.31210 0.83942 0.06322 -0.39400
O 	O 	0.17279 0.10962 0.37137 -0.40600
O 	O 	0.22380 0.16058 0.47268 -0.38700
O 	O 	0.73825 0.80142 0.62863 -0.40400
O 	O 	0.68790 0.75112 0.52732 -0.38800
O 	O 	0.10962 0.37137 0.17279 -0.40800
O 	O 	0.16058 0.47268 0.22380 -0.38900
O 	O 	0.80142 0.62863 0.73825 -0.40500
O 	O 	0.75112 0.52732 0.68790 -0.38800
O 	O 	0.19858 0.93683 0.82721 -0.40000
O 	O 	0.24888 0.93678 0.77620 -0.38300
O 	O 	0.89038 0.06317 0.26175 -0.41000
O 	O 	0.83942 0.06322 0.31210 -0.39000
O 	O 	0.06317 0.26175 0.89038 -0.39700
O 	O 	0.06322 0.31210 0.83942 -0.38300
O 	O 	0.93683 0.82721 0.19858 -0.40700
O 	O 	0.93678 0.77620 0.24888 -0.38900
O 	O 	0.62863 0.73825 0.80142 -0.40400
O 	O 	0.52732 0.68790 0.75112 -0.38800
O 	O 	0.37137 0.17279 0.10962 -0.40700
O 	O 	0.47268 0.22380 0.16058 -0.38800
O 	O 	0.19858 0.82721 0.93683 -0.39700
O 	O 	0.24888 0.77620 0.93678 -0.38200
O 	O 	0.89038 0.26175 0.06317 -0.41100
O 	O 	0.83942 0.31210 0.06322 -0.39200
O 	O 	0.10962 0.17279 0.37137 -0.40600
O 	O 	0.16058 0.22380 0.47268 -0.38800
O 	O 	0.80142 0.73825 0.62863 -0.40500
O 	O 	0.75112 0.68790 0.52732 -0.38800
O 	O 	0.37137 0.10962 0.17279 -0.40700
O 	O 	0.47268 0.16058 0.22380 -0.38800
O 	O 	0.62863 0.80142 0.73825 -0.40400
O 	O 	0.52732 0.75112 0.68790 -0.38800
O 	O 	0.93683 0.19858 0.82721 -0.40500
O 	O 	0.93678 0.24888 0.77620 -0.38800
O 	O 	0.06317 0.89038 0.26175 -0.40300
O 	O 	0.06322 0.83942 0.31210 -0.38500
O 	O 	0.26175 0.06317 0.89038 -0.40000
O 	O 	0.31210 0.06322 0.83942 -0.38700
O 	O 	0.82721 0.93683 0.19858 -0.40400
O 	O 	0.77620 0.93678 0.24888 -0.38400
O 	O 	0.73825 0.62863 0.80142 -0.40400
O 	O 	0.68790 0.52732 0.75112 -0.38800
O 	O 	0.17279 0.37137 0.10962 -0.40700
O 	O 	0.22380 0.47268 0.16058 -0.38800
O 	O 	0.17279 0.80142 0.06317 -0.41000
O 	O 	0.22380 0.75112 0.06322 -0.39600
O 	O 	0.73825 0.10962 0.93683 -0.39900
O 	O 	0.68790 0.16058 0.93678 -0.38000
O 	O 	0.82721 0.89038 0.62863 -0.40200
O 	O 	0.77620 0.83942 0.52732 -0.38700
O 	O 	0.26175 0.19858 0.37137 -0.40700
O 	O 	0.31210 0.24888 0.47268 -0.38800
O 	O 	0.89038 0.62863 0.82721 -0.40400
O 	O 	0.83942 0.52732 0.77620 -0.38700
O 	O 	0.19858 0.37137 0.26175 -0.40600
O 	O 	0.24888 0.47268 0.31210 -0.38800
O 	O 	0.80142 0.06317 0.17279 -0.41100
O 	O 	0.75112 0.06322 0.22380 -0.39000
O 	O 	0.10962 0.93683 0.73825 -0.40000
O 	O 	0.16058 0.93678 0.68790 -0.38300
O 	O 	0.93683 0.73825 0.10962 -0.40700
O 	O 	0.93678 0.68790 0.16058 -0.38900
O 	O 	0.06317 0.17279 0.80142 -0.40300
O 	O 	0.06322 0.22380 0.75112 -0.38600
O 	O 	0.37137 0.26175 0.19858 -0.40700
O 	O 	0.47268 0.31210 0.24888 -0.38800
O 	O 	0.62863 0.82721 0.89038 -0.40100
O 	O 	0.52732 0.77620 0.83942 -0.38700
