data_crystal

_cell_length_a 10.45900
_cell_length_b 10.46000
_cell_length_c 11.54000
_cell_angle_alpha 83.15900
_cell_angle_beta  82.12000
_cell_angle_gamma 88.96400

_symmetry_space_group_name_	'P 1'
_symmetry_space_group_name_H-M	'P 1'

loop_
_symmetry_equiv_pos_as_xyz
  x,y,z

loop_
_atom_site_label
_atom_site_type_symbol
_atom_site_fract_x
_atom_site_fract_y
_atom_site_fract_z
_atom_site_charge
Mn	Mn	0.25187 0.69491 0.88363 1.13400
Mn	Mn	0.20248 0.76430 0.38654 1.13500
Mn	Mn	0.74813 0.30509 0.11637 1.13400
Mn	Mn	0.79752 0.23570 0.61346 1.13500
Nb	Nb	0.22485 0.27952 0.24797 1.25600
Nb	Nb	0.77515 0.72048 0.75203 1.25600
C 	C 	0.27270 0.15840 0.09700 -0.20500
C 	C 	0.06220 0.25750 0.40360 -0.18100
C 	C 	0.19860 0.47390 0.30830 -0.20300
C 	C 	0.23150 0.07380 0.32460 -0.20200
C 	C 	0.43500 0.31590 0.18710 -0.19400
C 	C 	0.04140 0.26090 0.17200 -0.20800
C 	C 	0.23110 0.42990 0.08850 -0.18100
C 	C 	0.33340 0.27490 0.40550 -0.20000
C 	C 	0.72730 0.84160 0.90300 -0.20500
C 	C 	0.93780 0.74250 0.59640 -0.18100
C 	C 	0.80140 0.52610 0.69170 -0.20300
C 	C 	0.76850 0.92620 0.67540 -0.20200
C 	C 	0.56500 0.68410 0.81290 -0.19400
C 	C 	0.95860 0.73910 0.82800 -0.20800
C 	C 	0.76890 0.57010 0.91150 -0.18100
C 	C 	0.66660 0.72510 0.59450 -0.20000
N 	N 	0.40050 0.27430 0.47530 -0.14700
N 	N 	0.97490 0.24460 0.47620 -0.26600
N 	N 	0.23150 0.96920 0.37040 -0.28400
N 	N 	0.23100 0.51760 0.01570 -0.26300
N 	N 	0.95170 0.26310 0.12370 -0.28300
N 	N 	0.18470 0.56880 0.34830 -0.28200
N 	N 	0.54140 0.33110 0.15260 -0.27900
N 	N 	0.29350 0.08440 0.03120 -0.14700
N 	N 	0.59950 0.72570 0.52470 -0.14700
N 	N 	0.02510 0.75540 0.52380 -0.26600
N 	N 	0.76850 0.03080 0.62960 -0.28400
N 	N 	0.76900 0.48240 0.98430 -0.26300
N 	N 	0.04830 0.73690 0.87630 -0.28300
N 	N 	0.81530 0.43120 0.65170 -0.28200
N 	N 	0.45860 0.66890 0.84740 -0.27900
N 	N 	0.70650 0.91560 0.96880 -0.14700
