data_crystal

_cell_length_a 6.28720
_cell_length_b 14.31400
_cell_length_c 14.31400
_cell_angle_alpha 90.00000
_cell_angle_beta  90.00000
_cell_angle_gamma 90.00000

_symmetry_space_group_name_	'P 1'
_symmetry_space_group_name_H-M	'P 1'

loop_
_symmetry_equiv_pos_as_xyz
  x,y,z

loop_
_atom_site_label
_atom_site_type_symbol
_atom_site_fract_x
_atom_site_fract_y
_atom_site_fract_z
_atom_site_charge
Co	Co	0.75000 0.75000 0.75000 1.10700
Co	Co	0.25000 0.25000 0.25000 1.10700
H 	H 	0.23570 0.04790 0.88530 0.04300
H 	H 	0.04130 0.85270 0.06280 0.03900
H 	H 	0.38290 0.90530 0.79820 0.02700
H 	H 	0.67570 0.72470 0.96580 -0.02900
H 	H 	0.41460 0.81040 0.04800 0.11600
H 	H 	0.23570 0.45210 0.61470 0.04200
H 	H 	0.04130 0.64730 0.43720 0.03900
H 	H 	0.38290 0.59470 0.70180 0.02700
H 	H 	0.67570 0.77530 0.53420 -0.02900
H 	H 	0.41460 0.68960 0.45200 0.11700
H 	H 	0.73570 0.11470 0.54790 0.04200
H 	H 	0.54130 0.93720 0.35270 0.03900
H 	H 	0.88290 0.20180 0.40530 0.02700
H 	H 	0.17570 0.03420 0.22470 -0.02800
H 	H 	0.91460 0.95200 0.31040 0.11500
H 	H 	0.73570 0.38530 0.95210 0.04200
H 	H 	0.54130 0.56280 0.14730 0.03900
H 	H 	0.88290 0.29820 0.09470 0.02700
H 	H 	0.17570 0.46580 0.27530 -0.02900
H 	H 	0.91460 0.54800 0.18960 0.11700
H 	H 	0.76430 0.95210 0.11470 0.04300
H 	H 	0.95870 0.14730 0.93720 0.03900
H 	H 	0.61710 0.09470 0.20180 0.02700
H 	H 	0.32430 0.27530 0.03420 -0.02900
H 	H 	0.58540 0.18960 0.95200 0.11600
H 	H 	0.76430 0.54790 0.38530 0.04200
H 	H 	0.95870 0.35270 0.56280 0.03900
H 	H 	0.61710 0.40530 0.29820 0.02700
H 	H 	0.32430 0.22470 0.46580 -0.02900
H 	H 	0.58540 0.31040 0.54800 0.11700
H 	H 	0.26430 0.88530 0.45210 0.04200
H 	H 	0.45870 0.06280 0.64730 0.03900
H 	H 	0.11710 0.79820 0.59470 0.02700
H 	H 	0.82430 0.96580 0.77530 -0.02800
H 	H 	0.08540 0.04800 0.68960 0.11500
H 	H 	0.26430 0.61470 0.04790 0.04200
H 	H 	0.45870 0.43720 0.85270 0.03900
H 	H 	0.11710 0.70180 0.90530 0.02700
H 	H 	0.82430 0.53420 0.72470 -0.02900
H 	H 	0.08540 0.45200 0.81040 0.11700
C 	C 	0.16090 0.94220 0.97100 -0.00400
C 	C 	0.14180 0.02839 0.93149 -0.05600
C 	C 	0.02560 0.91210 0.03740 -0.05600
C 	C 	0.42200 0.87180 0.85120 -0.04600
C 	C 	0.58640 0.77060 0.94180 0.10800
C 	C 	0.33720 0.88380 0.93800 0.06300
C 	C 	0.16090 0.55780 0.52900 -0.00900
C 	C 	0.14180 0.47161 0.56851 -0.05200
C 	C 	0.02560 0.58790 0.46260 -0.05400
C 	C 	0.42200 0.62820 0.64880 -0.04700
C 	C 	0.58640 0.72940 0.55820 0.10800
C 	C 	0.33720 0.61620 0.56200 0.06400
C 	C 	0.66090 0.02900 0.44220 -0.00800
C 	C 	0.64180 0.06851 0.52839 -0.05200
C 	C 	0.52560 0.96260 0.41210 -0.05500
C 	C 	0.92200 0.14880 0.37180 -0.04500
C 	C 	0.08640 0.05820 0.27060 0.10500
C 	C 	0.83720 0.06200 0.38380 0.06300
C 	C 	0.66090 0.47100 0.05780 -0.00900
C 	C 	0.64180 0.43149 0.97161 -0.05300
C 	C 	0.52560 0.53740 0.08790 -0.05400
C 	C 	0.92200 0.35120 0.12820 -0.04600
C 	C 	0.08640 0.44180 0.22940 0.10700
C 	C 	0.83720 0.43800 0.11620 0.06300
C 	C 	0.83910 0.05780 0.02900 -0.00400
C 	C 	0.85820 0.97161 0.06851 -0.05600
C 	C 	0.97440 0.08790 0.96260 -0.05600
C 	C 	0.57800 0.12820 0.14880 -0.04600
C 	C 	0.41360 0.22940 0.05820 0.10800
C 	C 	0.66280 0.11620 0.06200 0.06300
C 	C 	0.83910 0.44220 0.47100 -0.00900
C 	C 	0.85820 0.52839 0.43149 -0.05200
C 	C 	0.97440 0.41210 0.53740 -0.05400
C 	C 	0.57800 0.37180 0.35120 -0.04700
C 	C 	0.41360 0.27060 0.44180 0.10800
C 	C 	0.66280 0.38380 0.43800 0.06400
C 	C 	0.33910 0.97100 0.55780 -0.00800
C 	C 	0.35820 0.93149 0.47161 -0.05200
C 	C 	0.47440 0.03740 0.58790 -0.05500
C 	C 	0.07800 0.85120 0.62820 -0.04500
C 	C 	0.91360 0.94180 0.72940 0.10500
C 	C 	0.16280 0.93800 0.61620 0.06300
C 	C 	0.33910 0.52900 0.94220 -0.00900
C 	C 	0.35820 0.56851 0.02839 -0.05300
C 	C 	0.47440 0.46260 0.91210 -0.05400
C 	C 	0.07800 0.64880 0.87180 -0.04600
C 	C 	0.91360 0.55820 0.77060 0.10700
C 	C 	0.16280 0.56200 0.88380 0.06300
N 	N 	0.58000 0.80007 0.85398 -0.26900
N 	N 	0.44010 0.81944 0.98971 -0.21200
N 	N 	0.58000 0.69993 0.64602 -0.26900
N 	N 	0.44010 0.68056 0.51029 -0.21300
N 	N 	0.08000 0.14602 0.30007 -0.27000
N 	N 	0.94010 0.01029 0.31944 -0.21000
N 	N 	0.08000 0.35398 0.19993 -0.27000
N 	N 	0.94010 0.48971 0.18056 -0.21200
N 	N 	0.42000 0.19993 0.14602 -0.26900
N 	N 	0.55990 0.18056 0.01029 -0.21200
N 	N 	0.42000 0.30007 0.35398 -0.26900
N 	N 	0.55990 0.31944 0.48971 -0.21300
N 	N 	0.92000 0.85398 0.69993 -0.27000
N 	N 	0.05990 0.98971 0.68056 -0.21000
N 	N 	0.92000 0.64602 0.80007 -0.27000
N 	N 	0.05990 0.51029 0.81944 -0.21200
