data_crystal

_cell_length_a 26.34580
_cell_length_b 26.34580
_cell_length_c 26.34580
_cell_angle_alpha 90.00000
_cell_angle_beta  90.00000
_cell_angle_gamma 90.00000

_symmetry_space_group_name_	'P 1'
_symmetry_space_group_name_H-M	'P 1'

loop_
_symmetry_equiv_pos_as_xyz
  x,y,z

loop_
_atom_site_label
_atom_site_type_symbol
_atom_site_fract_x
_atom_site_fract_y
_atom_site_fract_z
_atom_site_charge
O 	O 	0.24313 0.05362 0.18280 -0.40700
O 	O 	0.24313 0.55362 0.68280 -0.38800
O 	O 	0.74313 0.05362 0.68280 -0.40000
O 	O 	0.74313 0.55362 0.18280 -0.38900
O 	O 	0.75687 0.94638 0.18280 -0.36200
O 	O 	0.75687 0.44638 0.68280 -0.38700
O 	O 	0.25687 0.94638 0.68280 -0.36000
O 	O 	0.25687 0.44638 0.18280 -0.39400
O 	O 	0.75687 0.05362 0.81720 -0.39700
O 	O 	0.75687 0.55362 0.31720 -0.38700
O 	O 	0.25687 0.05362 0.31720 -0.40400
O 	O 	0.25687 0.55362 0.81720 -0.38400
O 	O 	0.24313 0.94638 0.81720 -0.35400
O 	O 	0.24313 0.44638 0.31720 -0.38800
O 	O 	0.74313 0.94638 0.31720 -0.35600
O 	O 	0.74313 0.44638 0.81720 -0.38000
O 	O 	0.18280 0.24313 0.05362 -0.40700
O 	O 	0.18280 0.74313 0.55362 -0.38900
O 	O 	0.68280 0.24313 0.55362 -0.38900
O 	O 	0.68280 0.74313 0.05362 -0.40100
O 	O 	0.18280 0.75687 0.94638 -0.36300
O 	O 	0.18280 0.25687 0.44638 -0.39500
O 	O 	0.68280 0.75687 0.44638 -0.38800
O 	O 	0.68280 0.25687 0.94638 -0.36100
O 	O 	0.81720 0.75687 0.05362 -0.39800
O 	O 	0.81720 0.25687 0.55362 -0.38500
O 	O 	0.31720 0.75687 0.55362 -0.38800
O 	O 	0.31720 0.25687 0.05362 -0.40500
O 	O 	0.81720 0.24313 0.94638 -0.35500
O 	O 	0.81720 0.74313 0.44638 -0.38100
O 	O 	0.31720 0.24313 0.44638 -0.38900
O 	O 	0.31720 0.74313 0.94638 -0.35700
O 	O 	0.05362 0.18280 0.24313 -0.40800
O 	O 	0.05362 0.68280 0.74313 -0.40100
O 	O 	0.55362 0.18280 0.74313 -0.39000
O 	O 	0.55362 0.68280 0.24313 -0.38900
O 	O 	0.94638 0.18280 0.75687 -0.36300
O 	O 	0.94638 0.68280 0.25687 -0.36100
O 	O 	0.44638 0.18280 0.25687 -0.39500
O 	O 	0.44638 0.68280 0.75687 -0.38800
O 	O 	0.05362 0.81720 0.75687 -0.39800
O 	O 	0.05362 0.31720 0.25687 -0.40500
O 	O 	0.55362 0.81720 0.25687 -0.38500
O 	O 	0.55362 0.31720 0.75687 -0.38800
O 	O 	0.94638 0.81720 0.24313 -0.35500
O 	O 	0.94638 0.31720 0.74313 -0.35700
O 	O 	0.44638 0.81720 0.74313 -0.38100
O 	O 	0.44638 0.31720 0.24313 -0.38900
O 	O 	0.05362 0.24313 0.81720 -0.39900
O 	O 	0.05362 0.74313 0.31720 -0.40100
O 	O 	0.55362 0.24313 0.31720 -0.38900
O 	O 	0.55362 0.74313 0.81720 -0.38100
O 	O 	0.94638 0.75687 0.81720 -0.35300
O 	O 	0.94638 0.25687 0.31720 -0.36100
O 	O 	0.44638 0.75687 0.31720 -0.38800
O 	O 	0.44638 0.25687 0.81720 -0.38500
O 	O 	0.05362 0.75687 0.18280 -0.40700
O 	O 	0.05362 0.25687 0.68280 -0.40500
O 	O 	0.55362 0.75687 0.68280 -0.38800
O 	O 	0.55362 0.25687 0.18280 -0.39500
O 	O 	0.94638 0.24313 0.18280 -0.36400
O 	O 	0.94638 0.74313 0.68280 -0.35600
O 	O 	0.44638 0.24313 0.68280 -0.38900
O 	O 	0.44638 0.74313 0.18280 -0.39000
O 	O 	0.24313 0.18280 0.94638 -0.36400
O 	O 	0.24313 0.68280 0.44638 -0.38900
O 	O 	0.74313 0.18280 0.44638 -0.39000
O 	O 	0.74313 0.68280 0.94638 -0.35600
O 	O 	0.75687 0.18280 0.05362 -0.40700
O 	O 	0.75687 0.68280 0.55362 -0.38800
O 	O 	0.25687 0.18280 0.55362 -0.39500
O 	O 	0.25687 0.68280 0.05362 -0.40500
O 	O 	0.75687 0.81720 0.94638 -0.35300
O 	O 	0.75687 0.31720 0.44638 -0.38800
O 	O 	0.25687 0.81720 0.44638 -0.38500
O 	O 	0.25687 0.31720 0.94638 -0.36100
O 	O 	0.24313 0.81720 0.05362 -0.39900
O 	O 	0.24313 0.31720 0.55362 -0.38900
O 	O 	0.74313 0.81720 0.55362 -0.38100
O 	O 	0.74313 0.31720 0.05362 -0.40100
O 	O 	0.18280 0.05362 0.75687 -0.40700
O 	O 	0.18280 0.55362 0.25687 -0.39500
O 	O 	0.68280 0.05362 0.25687 -0.40500
O 	O 	0.68280 0.55362 0.75687 -0.38800
O 	O 	0.18280 0.94638 0.24313 -0.36400
O 	O 	0.18280 0.44638 0.74313 -0.39000
O 	O 	0.68280 0.94638 0.74313 -0.35600
O 	O 	0.68280 0.44638 0.24313 -0.38900
O 	O 	0.81720 0.05362 0.24313 -0.39900
O 	O 	0.81720 0.55362 0.74313 -0.38100
O 	O 	0.31720 0.05362 0.74313 -0.40100
O 	O 	0.31720 0.55362 0.24313 -0.38900
O 	O 	0.81720 0.94638 0.75687 -0.35300
O 	O 	0.81720 0.44638 0.25687 -0.38500
O 	O 	0.31720 0.94638 0.25687 -0.36100
O 	O 	0.31720 0.44638 0.75687 -0.38800
O 	O 	0.75687 0.94638 0.81720 -0.35300
O 	O 	0.75687 0.44638 0.31720 -0.38800
O 	O 	0.25687 0.94638 0.31720 -0.36100
O 	O 	0.25687 0.44638 0.81720 -0.38500
O 	O 	0.24313 0.05362 0.81720 -0.39900
O 	O 	0.24313 0.55362 0.31720 -0.38900
O 	O 	0.74313 0.05362 0.31720 -0.40100
O 	O 	0.74313 0.55362 0.81720 -0.38100
O 	O 	0.24313 0.94638 0.18280 -0.36400
O 	O 	0.24313 0.44638 0.68280 -0.38900
O 	O 	0.74313 0.94638 0.68280 -0.35600
O 	O 	0.74313 0.44638 0.18280 -0.39000
O 	O 	0.75687 0.05362 0.18280 -0.40700
O 	O 	0.75687 0.55362 0.68280 -0.38800
O 	O 	0.25687 0.05362 0.68280 -0.40500
O 	O 	0.25687 0.55362 0.18280 -0.39500
O 	O 	0.81720 0.75687 0.94638 -0.35300
O 	O 	0.81720 0.25687 0.44638 -0.38500
O 	O 	0.31720 0.75687 0.44638 -0.38800
O 	O 	0.31720 0.25687 0.94638 -0.36100
O 	O 	0.81720 0.24313 0.05362 -0.39900
O 	O 	0.81720 0.74313 0.55362 -0.38100
O 	O 	0.31720 0.24313 0.55362 -0.38900
O 	O 	0.31720 0.74313 0.05362 -0.40100
O 	O 	0.18280 0.24313 0.94638 -0.36400
O 	O 	0.18280 0.74313 0.44638 -0.39000
O 	O 	0.68280 0.24313 0.44638 -0.38900
O 	O 	0.68280 0.74313 0.94638 -0.35600
O 	O 	0.18280 0.75687 0.05362 -0.40700
O 	O 	0.18280 0.25687 0.55362 -0.39500
O 	O 	0.68280 0.75687 0.55362 -0.38800
O 	O 	0.68280 0.25687 0.05362 -0.40500
O 	O 	0.94638 0.81720 0.75687 -0.35300
O 	O 	0.94638 0.31720 0.25687 -0.36100
O 	O 	0.44638 0.81720 0.25687 -0.38500
O 	O 	0.44638 0.31720 0.75687 -0.38800
O 	O 	0.05362 0.81720 0.24313 -0.39900
O 	O 	0.05362 0.31720 0.74313 -0.40100
O 	O 	0.55362 0.81720 0.74313 -0.38100
O 	O 	0.55362 0.31720 0.24313 -0.38900
O 	O 	0.94638 0.18280 0.24313 -0.36400
O 	O 	0.94638 0.68280 0.74313 -0.35600
O 	O 	0.44638 0.18280 0.74313 -0.39000
O 	O 	0.44638 0.68280 0.24313 -0.38900
O 	O 	0.05362 0.18280 0.75687 -0.40700
O 	O 	0.05362 0.68280 0.25687 -0.40500
O 	O 	0.55362 0.18280 0.25687 -0.39500
O 	O 	0.55362 0.68280 0.75687 -0.38800
O 	O 	0.94638 0.75687 0.18280 -0.36300
O 	O 	0.94638 0.25687 0.68280 -0.36100
O 	O 	0.44638 0.75687 0.68280 -0.38800
O 	O 	0.44638 0.25687 0.18280 -0.39500
O 	O 	0.05362 0.24313 0.18280 -0.40800
O 	O 	0.05362 0.74313 0.68280 -0.40100
O 	O 	0.55362 0.24313 0.68280 -0.38900
O 	O 	0.55362 0.74313 0.18280 -0.39000
O 	O 	0.94638 0.24313 0.81720 -0.35500
O 	O 	0.94638 0.74313 0.31720 -0.35700
O 	O 	0.44638 0.24313 0.31720 -0.38900
O 	O 	0.44638 0.74313 0.81720 -0.38100
O 	O 	0.05362 0.75687 0.81720 -0.39800
O 	O 	0.05362 0.25687 0.31720 -0.40500
O 	O 	0.55362 0.75687 0.31720 -0.38800
O 	O 	0.55362 0.25687 0.81720 -0.38500
O 	O 	0.75687 0.81720 0.05362 -0.39800
O 	O 	0.75687 0.31720 0.55362 -0.38800
O 	O 	0.25687 0.81720 0.55362 -0.38500
O 	O 	0.25687 0.31720 0.05362 -0.40500
O 	O 	0.24313 0.81720 0.94638 -0.35500
O 	O 	0.24313 0.31720 0.44638 -0.38900
O 	O 	0.74313 0.81720 0.44638 -0.38100
O 	O 	0.74313 0.31720 0.94638 -0.35700
O 	O 	0.24313 0.18280 0.05362 -0.40800
O 	O 	0.24313 0.68280 0.55362 -0.38900
O 	O 	0.74313 0.18280 0.55362 -0.39000
O 	O 	0.74313 0.68280 0.05362 -0.40100
O 	O 	0.75687 0.18280 0.94638 -0.36300
O 	O 	0.75687 0.68280 0.44638 -0.38800
O 	O 	0.25687 0.18280 0.44638 -0.39500
O 	O 	0.25687 0.68280 0.94638 -0.36100
O 	O 	0.81720 0.94638 0.24313 -0.35500
O 	O 	0.81720 0.44638 0.74313 -0.38100
O 	O 	0.31720 0.94638 0.74313 -0.35700
O 	O 	0.31720 0.44638 0.24313 -0.38900
O 	O 	0.81720 0.05362 0.75687 -0.39800
O 	O 	0.81720 0.55362 0.25687 -0.38500
O 	O 	0.31720 0.05362 0.25687 -0.40500
O 	O 	0.31720 0.55362 0.75687 -0.38800
O 	O 	0.18280 0.94638 0.75687 -0.36300
O 	O 	0.18280 0.44638 0.25687 -0.39500
O 	O 	0.68280 0.94638 0.25687 -0.36100
O 	O 	0.68280 0.44638 0.75687 -0.38800
O 	O 	0.18280 0.05362 0.24313 -0.40800
O 	O 	0.18280 0.55362 0.74313 -0.39000
O 	O 	0.68280 0.05362 0.74313 -0.40100
O 	O 	0.68280 0.55362 0.24313 -0.38900
C 	C 	0.13370 0.13370 0.19900 0.11400
C 	C 	0.13370 0.63370 0.69900 0.13000
C 	C 	0.63370 0.13370 0.69900 0.13000
C 	C 	0.63370 0.63370 0.19900 0.13300
C 	C 	0.86630 0.86630 0.19900 0.15200
C 	C 	0.86630 0.36630 0.69900 0.14800
C 	C 	0.36630 0.86630 0.69900 0.14800
C 	C 	0.36630 0.36630 0.19900 0.13200
C 	C 	0.86630 0.13370 0.80100 0.14100
C 	C 	0.86630 0.63370 0.30100 0.14500
C 	C 	0.36630 0.13370 0.30100 0.12600
C 	C 	0.36630 0.63370 0.80100 0.14100
C 	C 	0.13370 0.86630 0.80100 0.14100
C 	C 	0.13370 0.36630 0.30100 0.12600
C 	C 	0.63370 0.86630 0.30100 0.14500
C 	C 	0.63370 0.36630 0.80100 0.14100
C 	C 	0.19900 0.13370 0.13370 0.11400
C 	C 	0.19900 0.63370 0.63370 0.13300
C 	C 	0.69900 0.13370 0.63370 0.13000
C 	C 	0.69900 0.63370 0.13370 0.13000
C 	C 	0.19900 0.86630 0.86630 0.15200
C 	C 	0.19900 0.36630 0.36630 0.13200
C 	C 	0.69900 0.86630 0.36630 0.14800
C 	C 	0.69900 0.36630 0.86630 0.14800
C 	C 	0.80100 0.86630 0.13370 0.14100
C 	C 	0.80100 0.36630 0.63370 0.14100
C 	C 	0.30100 0.86630 0.63370 0.14500
C 	C 	0.30100 0.36630 0.13370 0.12600
C 	C 	0.80100 0.13370 0.86630 0.14100
C 	C 	0.80100 0.63370 0.36630 0.14100
C 	C 	0.30100 0.13370 0.36630 0.12600
C 	C 	0.30100 0.63370 0.86630 0.14500
C 	C 	0.13370 0.19900 0.13370 0.11400
C 	C 	0.13370 0.69900 0.63370 0.13000
C 	C 	0.63370 0.19900 0.63370 0.13300
C 	C 	0.63370 0.69900 0.13370 0.13000
C 	C 	0.86630 0.19900 0.86630 0.15200
C 	C 	0.86630 0.69900 0.36630 0.14800
C 	C 	0.36630 0.19900 0.36630 0.13200
C 	C 	0.36630 0.69900 0.86630 0.14800
C 	C 	0.13370 0.80100 0.86630 0.14100
C 	C 	0.13370 0.30100 0.36630 0.12600
C 	C 	0.63370 0.80100 0.36630 0.14100
C 	C 	0.63370 0.30100 0.86630 0.14500
C 	C 	0.86630 0.80100 0.13370 0.14100
C 	C 	0.86630 0.30100 0.63370 0.14500
C 	C 	0.36630 0.80100 0.63370 0.14100
C 	C 	0.36630 0.30100 0.13370 0.12600
C 	C 	0.13370 0.13370 0.80100 0.12300
C 	C 	0.13370 0.63370 0.30100 0.12600
C 	C 	0.63370 0.13370 0.30100 0.12600
C 	C 	0.63370 0.63370 0.80100 0.14100
C 	C 	0.86630 0.86630 0.80100 0.16000
C 	C 	0.86630 0.36630 0.30100 0.14500
C 	C 	0.36630 0.86630 0.30100 0.14500
C 	C 	0.36630 0.36630 0.80100 0.14100
C 	C 	0.13370 0.86630 0.19900 0.13300
C 	C 	0.13370 0.36630 0.69900 0.12900
C 	C 	0.63370 0.86630 0.69900 0.14800
C 	C 	0.63370 0.36630 0.19900 0.13300
C 	C 	0.86630 0.13370 0.19900 0.13300
C 	C 	0.86630 0.63370 0.69900 0.14800
C 	C 	0.36630 0.13370 0.69900 0.12900
C 	C 	0.36630 0.63370 0.19900 0.13300
C 	C 	0.13370 0.19900 0.86630 0.13300
C 	C 	0.13370 0.69900 0.36630 0.12900
C 	C 	0.63370 0.19900 0.36630 0.13300
C 	C 	0.63370 0.69900 0.86630 0.14800
C 	C 	0.86630 0.19900 0.13370 0.13300
C 	C 	0.86630 0.69900 0.63370 0.14800
C 	C 	0.36630 0.19900 0.63370 0.13300
C 	C 	0.36630 0.69900 0.13370 0.12900
C 	C 	0.86630 0.80100 0.86630 0.16000
C 	C 	0.86630 0.30100 0.36630 0.14500
C 	C 	0.36630 0.80100 0.36630 0.14100
C 	C 	0.36630 0.30100 0.86630 0.14500
C 	C 	0.13370 0.80100 0.13370 0.12300
C 	C 	0.13370 0.30100 0.63370 0.12600
C 	C 	0.63370 0.80100 0.63370 0.14100
C 	C 	0.63370 0.30100 0.13370 0.12600
C 	C 	0.19900 0.13370 0.86630 0.13300
C 	C 	0.19900 0.63370 0.36630 0.13300
C 	C 	0.69900 0.13370 0.36630 0.12900
C 	C 	0.69900 0.63370 0.86630 0.14800
C 	C 	0.19900 0.86630 0.13370 0.13300
C 	C 	0.19900 0.36630 0.63370 0.13300
C 	C 	0.69900 0.86630 0.63370 0.14800
C 	C 	0.69900 0.36630 0.13370 0.12900
C 	C 	0.80100 0.13370 0.13370 0.12300
C 	C 	0.80100 0.63370 0.63370 0.14100
C 	C 	0.30100 0.13370 0.63370 0.12600
C 	C 	0.30100 0.63370 0.13370 0.12600
C 	C 	0.80100 0.86630 0.86630 0.16000
C 	C 	0.80100 0.36630 0.36630 0.14100
C 	C 	0.30100 0.86630 0.36630 0.14500
C 	C 	0.30100 0.36630 0.86630 0.14500
Cu	Cu	0.28556 0.00000 0.21444 0.86800
Cu	Cu	0.28556 0.50000 0.71444 0.89800
Cu	Cu	0.71444 0.00000 0.21444 0.86800
Cu	Cu	0.71444 0.50000 0.71444 0.89900
Cu	Cu	0.21444 0.50000 0.21444 0.89500
Cu	Cu	0.71444 0.00000 0.78556 0.87200
Cu	Cu	0.71444 0.50000 0.28556 0.89800
Cu	Cu	0.21444 0.00000 0.28556 0.86800
Cu	Cu	0.28556 0.00000 0.78556 0.87200
Cu	Cu	0.28556 0.50000 0.28556 0.89800
Cu	Cu	0.21444 0.28556 -0.00000 0.86800
Cu	Cu	0.21444 0.78556 0.50000 0.89900
Cu	Cu	0.21444 0.71444 -0.00000 0.86800
Cu	Cu	0.21444 0.21444 0.50000 0.89500
Cu	Cu	0.78556 0.71444 -0.00000 0.87200
Cu	Cu	0.78556 0.21444 0.50000 0.89900
Cu	Cu	0.28556 0.21444 -0.00000 0.86800
Cu	Cu	0.78556 0.28556 -0.00000 0.87200
Cu	Cu	0.78556 0.78556 0.50000 0.90300
Cu	Cu	0.28556 0.28556 0.50000 0.89800
Cu	Cu	-0.00000 0.21444 0.28556 0.86800
Cu	Cu	0.50000 0.21444 0.78556 0.89900
Cu	Cu	-0.00000 0.21444 0.71444 0.86800
Cu	Cu	0.50000 0.21444 0.21444 0.89500
Cu	Cu	0.00000 0.78556 0.71444 0.87200
Cu	Cu	0.00000 0.28556 0.21444 0.86800
Cu	Cu	0.50000 0.78556 0.21444 0.89900
Cu	Cu	0.00000 0.78556 0.28556 0.87200
Cu	Cu	0.50000 0.78556 0.78556 0.90300
Cu	Cu	0.50000 0.28556 0.28556 0.89800
Cu	Cu	0.00000 0.28556 0.78556 0.87200
Cu	Cu	0.00000 0.71444 0.78556 0.87200
Cu	Cu	0.50000 0.71444 0.28556 0.89800
Cu	Cu	-0.00000 0.71444 0.21444 0.86800
Cu	Cu	0.50000 0.71444 0.71444 0.89900
Cu	Cu	0.50000 0.28556 0.71444 0.89800
Cu	Cu	0.28556 0.71444 0.50000 0.89800
Cu	Cu	0.71444 0.21444 -0.00000 0.86800
Cu	Cu	0.71444 0.71444 0.50000 0.89900
Cu	Cu	0.71444 0.78556 -0.00000 0.87200
Cu	Cu	0.71444 0.28556 0.50000 0.89800
Cu	Cu	0.28556 0.78556 -0.00000 0.87200
Cu	Cu	0.21444 0.00000 0.71444 0.86800
Cu	Cu	0.21444 0.50000 0.78556 0.89900
Cu	Cu	0.78556 0.00000 0.28556 0.87200
Cu	Cu	0.78556 0.50000 0.78556 0.90300
Cu	Cu	0.78556 0.00000 0.71444 0.87200
Cu	Cu	0.78556 0.50000 0.21444 0.89900
C 	C 	0.20000 0.06920 0.20000 0.34500
C 	C 	0.17720 0.11550 0.17720 -0.16100
C 	C 	0.20000 0.56920 0.70000 0.35200
C 	C 	0.17720 0.61550 0.67720 -0.16300
C 	C 	0.70000 0.06920 0.70000 0.34900
C 	C 	0.67720 0.11550 0.67720 -0.16400
C 	C 	0.70000 0.56920 0.20000 0.35200
C 	C 	0.67720 0.61550 0.17720 -0.16300
C 	C 	0.80000 0.93080 0.20000 0.35500
C 	C 	0.82280 0.88450 0.17720 -0.16300
C 	C 	0.80000 0.43080 0.70000 0.35600
C 	C 	0.82280 0.38450 0.67720 -0.16500
C 	C 	0.30000 0.93080 0.70000 0.35500
C 	C 	0.32280 0.88450 0.67720 -0.16300
C 	C 	0.30000 0.43080 0.20000 0.35200
C 	C 	0.32280 0.38450 0.17720 -0.16300
C 	C 	0.80000 0.06920 0.80000 0.35400
C 	C 	0.82280 0.11550 0.82280 -0.16600
C 	C 	0.80000 0.56920 0.30000 0.35700
C 	C 	0.82280 0.61550 0.32280 -0.16500
C 	C 	0.30000 0.06920 0.30000 0.34900
C 	C 	0.32280 0.11550 0.32280 -0.16400
C 	C 	0.30000 0.56920 0.80000 0.35700
C 	C 	0.32280 0.61550 0.82280 -0.16500
C 	C 	0.20000 0.93080 0.80000 0.35500
C 	C 	0.17720 0.88450 0.82280 -0.16300
C 	C 	0.20000 0.43080 0.30000 0.35200
C 	C 	0.17720 0.38450 0.32280 -0.16300
C 	C 	0.70000 0.93080 0.30000 0.35500
C 	C 	0.67720 0.88450 0.32280 -0.16300
C 	C 	0.70000 0.43080 0.80000 0.35600
C 	C 	0.67720 0.38450 0.82280 -0.16500
C 	C 	0.20000 0.20000 0.06920 0.34500
C 	C 	0.17720 0.17720 0.11550 -0.16100
C 	C 	0.20000 0.70000 0.56920 0.35200
C 	C 	0.17720 0.67720 0.61550 -0.16300
C 	C 	0.70000 0.20000 0.56920 0.35200
C 	C 	0.67720 0.17720 0.61550 -0.16300
C 	C 	0.70000 0.70000 0.06920 0.34900
C 	C 	0.67720 0.67720 0.11550 -0.16400
C 	C 	0.20000 0.80000 0.93080 0.35500
C 	C 	0.17720 0.82280 0.88450 -0.16300
C 	C 	0.20000 0.30000 0.43080 0.35200
C 	C 	0.17720 0.32280 0.38450 -0.16300
C 	C 	0.70000 0.80000 0.43080 0.35600
C 	C 	0.67720 0.82280 0.38450 -0.16500
C 	C 	0.70000 0.30000 0.93080 0.35500
C 	C 	0.67720 0.32280 0.88450 -0.16300
C 	C 	0.80000 0.80000 0.06920 0.35400
C 	C 	0.82280 0.82280 0.11550 -0.16600
C 	C 	0.80000 0.30000 0.56920 0.35700
C 	C 	0.82280 0.32280 0.61550 -0.16500
C 	C 	0.30000 0.80000 0.56920 0.35700
C 	C 	0.32280 0.82280 0.61550 -0.16500
C 	C 	0.30000 0.30000 0.06920 0.34900
C 	C 	0.32280 0.32280 0.11550 -0.16400
C 	C 	0.80000 0.20000 0.93080 0.35500
C 	C 	0.82280 0.17720 0.88450 -0.16300
C 	C 	0.80000 0.70000 0.43080 0.35600
C 	C 	0.82280 0.67720 0.38450 -0.16500
C 	C 	0.30000 0.20000 0.43080 0.35200
C 	C 	0.32280 0.17720 0.38450 -0.16300
C 	C 	0.30000 0.70000 0.93080 0.35500
C 	C 	0.32280 0.67720 0.88450 -0.16300
C 	C 	0.06920 0.20000 0.20000 0.34500
C 	C 	0.11550 0.17720 0.17720 -0.16100
C 	C 	0.06920 0.70000 0.70000 0.34900
C 	C 	0.11550 0.67720 0.67720 -0.16400
C 	C 	0.56920 0.20000 0.70000 0.35200
C 	C 	0.61550 0.17720 0.67720 -0.16300
C 	C 	0.56920 0.70000 0.20000 0.35200
C 	C 	0.61550 0.67720 0.17720 -0.16300
C 	C 	0.93080 0.20000 0.80000 0.35500
C 	C 	0.88450 0.17720 0.82280 -0.16300
C 	C 	0.93080 0.70000 0.30000 0.35500
C 	C 	0.88450 0.67720 0.32280 -0.16300
C 	C 	0.43080 0.20000 0.30000 0.35200
C 	C 	0.38450 0.17720 0.32280 -0.16300
C 	C 	0.43080 0.70000 0.80000 0.35600
C 	C 	0.38450 0.67720 0.82280 -0.16500
C 	C 	0.06920 0.80000 0.80000 0.35400
C 	C 	0.11550 0.82280 0.82280 -0.16600
C 	C 	0.06920 0.30000 0.30000 0.34900
C 	C 	0.11550 0.32280 0.32280 -0.16400
C 	C 	0.56920 0.80000 0.30000 0.35700
C 	C 	0.61550 0.82280 0.32280 -0.16500
C 	C 	0.56920 0.30000 0.80000 0.35700
C 	C 	0.61550 0.32280 0.82280 -0.16500
C 	C 	0.93080 0.80000 0.20000 0.35500
C 	C 	0.88450 0.82280 0.17720 -0.16300
C 	C 	0.93080 0.30000 0.70000 0.35500
C 	C 	0.88450 0.32280 0.67720 -0.16300
C 	C 	0.43080 0.80000 0.70000 0.35600
C 	C 	0.38450 0.82280 0.67720 -0.16500
C 	C 	0.43080 0.30000 0.20000 0.35200
C 	C 	0.38450 0.32280 0.17720 -0.16300
C 	C 	0.06920 0.20000 0.80000 0.34900
C 	C 	0.11550 0.17720 0.82280 -0.16300
C 	C 	0.06920 0.70000 0.30000 0.34900
C 	C 	0.11550 0.67720 0.32280 -0.16400
C 	C 	0.56920 0.20000 0.30000 0.35200
C 	C 	0.61550 0.17720 0.32280 -0.16300
C 	C 	0.56920 0.70000 0.80000 0.35600
C 	C 	0.61550 0.67720 0.82280 -0.16500
C 	C 	0.93080 0.80000 0.80000 0.36000
C 	C 	0.88450 0.82280 0.82280 -0.16500
C 	C 	0.93080 0.30000 0.30000 0.35600
C 	C 	0.88450 0.32280 0.32280 -0.16300
C 	C 	0.43080 0.80000 0.30000 0.35700
C 	C 	0.38450 0.82280 0.32280 -0.16500
C 	C 	0.43080 0.30000 0.80000 0.35700
C 	C 	0.38450 0.32280 0.82280 -0.16500
C 	C 	0.06920 0.80000 0.20000 0.34900
C 	C 	0.11550 0.82280 0.17720 -0.16300
C 	C 	0.06920 0.30000 0.70000 0.34900
C 	C 	0.11550 0.32280 0.67720 -0.16400
C 	C 	0.56920 0.80000 0.70000 0.35600
C 	C 	0.61550 0.82280 0.67720 -0.16500
C 	C 	0.56920 0.30000 0.20000 0.35200
C 	C 	0.61550 0.32280 0.17720 -0.16300
C 	C 	0.93080 0.20000 0.20000 0.35100
C 	C 	0.88450 0.17720 0.17720 -0.16000
C 	C 	0.93080 0.70000 0.70000 0.35500
C 	C 	0.88450 0.67720 0.67720 -0.16300
C 	C 	0.43080 0.20000 0.70000 0.35200
C 	C 	0.38450 0.17720 0.67720 -0.16300
C 	C 	0.43080 0.70000 0.20000 0.35200
C 	C 	0.38450 0.67720 0.17720 -0.16300
C 	C 	0.20000 0.20000 0.93080 0.35100
C 	C 	0.17720 0.17720 0.88450 -0.16000
C 	C 	0.20000 0.70000 0.43080 0.35200
C 	C 	0.17720 0.67720 0.38450 -0.16300
C 	C 	0.70000 0.20000 0.43080 0.35200
C 	C 	0.67720 0.17720 0.38450 -0.16300
C 	C 	0.70000 0.70000 0.93080 0.35500
C 	C 	0.67720 0.67720 0.88450 -0.16300
C 	C 	0.80000 0.20000 0.06920 0.34900
C 	C 	0.82280 0.17720 0.11550 -0.16300
C 	C 	0.80000 0.70000 0.56920 0.35600
C 	C 	0.82280 0.67720 0.61550 -0.16500
C 	C 	0.30000 0.20000 0.56920 0.35200
C 	C 	0.32280 0.17720 0.61550 -0.16300
C 	C 	0.30000 0.70000 0.06920 0.34900
C 	C 	0.32280 0.67720 0.11550 -0.16400
C 	C 	0.80000 0.80000 0.93080 0.36000
C 	C 	0.82280 0.82280 0.88450 -0.16500
C 	C 	0.80000 0.30000 0.43080 0.35700
C 	C 	0.82280 0.32280 0.38450 -0.16500
C 	C 	0.30000 0.80000 0.43080 0.35700
C 	C 	0.32280 0.82280 0.38450 -0.16500
C 	C 	0.30000 0.30000 0.93080 0.35600
C 	C 	0.32280 0.32280 0.88450 -0.16300
C 	C 	0.20000 0.80000 0.06920 0.34900
C 	C 	0.17720 0.82280 0.11550 -0.16300
C 	C 	0.20000 0.30000 0.56920 0.35200
C 	C 	0.17720 0.32280 0.61550 -0.16300
C 	C 	0.70000 0.80000 0.56920 0.35600
C 	C 	0.67720 0.82280 0.61550 -0.16500
C 	C 	0.70000 0.30000 0.06920 0.34900
C 	C 	0.67720 0.32280 0.11550 -0.16400
C 	C 	0.20000 0.06920 0.80000 0.34900
C 	C 	0.17720 0.11550 0.82280 -0.16300
C 	C 	0.20000 0.56920 0.30000 0.35200
C 	C 	0.17720 0.61550 0.32280 -0.16300
C 	C 	0.70000 0.06920 0.30000 0.34900
C 	C 	0.67720 0.11550 0.32280 -0.16400
C 	C 	0.70000 0.56920 0.80000 0.35600
C 	C 	0.67720 0.61550 0.82280 -0.16500
C 	C 	0.20000 0.93080 0.20000 0.35100
C 	C 	0.17720 0.88450 0.17720 -0.16000
C 	C 	0.20000 0.43080 0.70000 0.35200
C 	C 	0.17720 0.38450 0.67720 -0.16300
C 	C 	0.70000 0.93080 0.70000 0.35500
C 	C 	0.67720 0.88450 0.67720 -0.16300
C 	C 	0.70000 0.43080 0.20000 0.35200
C 	C 	0.67720 0.38450 0.17720 -0.16300
C 	C 	0.80000 0.06920 0.20000 0.34900
C 	C 	0.82280 0.11550 0.17720 -0.16300
C 	C 	0.80000 0.56920 0.70000 0.35600
C 	C 	0.82280 0.61550 0.67720 -0.16500
C 	C 	0.30000 0.06920 0.70000 0.34900
C 	C 	0.32280 0.11550 0.67720 -0.16400
C 	C 	0.30000 0.56920 0.20000 0.35200
C 	C 	0.32280 0.61550 0.17720 -0.16300
C 	C 	0.80000 0.93080 0.80000 0.36000
C 	C 	0.82280 0.88450 0.82280 -0.16500
C 	C 	0.80000 0.43080 0.30000 0.35700
C 	C 	0.82280 0.38450 0.32280 -0.16500
C 	C 	0.30000 0.93080 0.30000 0.35600
C 	C 	0.32280 0.88450 0.32280 -0.16300
C 	C 	0.30000 0.43080 0.80000 0.35700
C 	C 	0.32280 0.38450 0.82280 -0.16500
