data_crystal

_cell_length_a 26.36050
_cell_length_b 26.36050
_cell_length_c 26.36050
_cell_angle_alpha 90.00000
_cell_angle_beta  90.00000
_cell_angle_gamma 90.00000

_symmetry_space_group_name_	'P 1'
_symmetry_space_group_name_H-M	'P 1'

loop_
_symmetry_equiv_pos_as_xyz
  x,y,z

loop_
_atom_site_label
_atom_site_type_symbol
_atom_site_fract_x
_atom_site_fract_y
_atom_site_fract_z
_atom_site_charge
O 	O 	0.24365 0.05261 0.18245 -0.40600
O 	O 	0.24365 0.55261 0.68245 -0.38600
O 	O 	0.74365 0.05261 0.68245 -0.39900
O 	O 	0.74365 0.55261 0.18245 -0.38800
O 	O 	0.75635 0.94739 0.18245 -0.35900
O 	O 	0.75635 0.44739 0.68245 -0.38500
O 	O 	0.25635 0.94739 0.68245 -0.35800
O 	O 	0.25635 0.44739 0.18245 -0.39200
O 	O 	0.75635 0.05261 0.81755 -0.39500
O 	O 	0.75635 0.55261 0.31755 -0.38500
O 	O 	0.25635 0.05261 0.31755 -0.40300
O 	O 	0.25635 0.55261 0.81755 -0.38300
O 	O 	0.24365 0.94739 0.81755 -0.35100
O 	O 	0.24365 0.44739 0.31755 -0.38600
O 	O 	0.74365 0.94739 0.31755 -0.35300
O 	O 	0.74365 0.44739 0.81755 -0.37900
O 	O 	0.18245 0.24365 0.05261 -0.40700
O 	O 	0.18245 0.74365 0.55261 -0.38900
O 	O 	0.68245 0.24365 0.55261 -0.38700
O 	O 	0.68245 0.74365 0.05261 -0.40000
O 	O 	0.18245 0.75635 0.94739 -0.36000
O 	O 	0.18245 0.25635 0.44739 -0.39300
O 	O 	0.68245 0.75635 0.44739 -0.38600
O 	O 	0.68245 0.25635 0.94739 -0.35900
O 	O 	0.81755 0.75635 0.05261 -0.39600
O 	O 	0.81755 0.25635 0.55261 -0.38400
O 	O 	0.31755 0.75635 0.55261 -0.38600
O 	O 	0.31755 0.25635 0.05261 -0.40400
O 	O 	0.81755 0.24365 0.94739 -0.35200
O 	O 	0.81755 0.74365 0.44739 -0.37900
O 	O 	0.31755 0.24365 0.44739 -0.38700
O 	O 	0.31755 0.74365 0.94739 -0.35400
O 	O 	0.05261 0.18245 0.24365 -0.40700
O 	O 	0.05261 0.68245 0.74365 -0.40000
O 	O 	0.55261 0.18245 0.74365 -0.38900
O 	O 	0.55261 0.68245 0.24365 -0.38700
O 	O 	0.94739 0.18245 0.75635 -0.36000
O 	O 	0.94739 0.68245 0.25635 -0.35900
O 	O 	0.44739 0.18245 0.25635 -0.39300
O 	O 	0.44739 0.68245 0.75635 -0.38600
O 	O 	0.05261 0.81755 0.75635 -0.39600
O 	O 	0.05261 0.31755 0.25635 -0.40400
O 	O 	0.55261 0.81755 0.25635 -0.38400
O 	O 	0.55261 0.31755 0.75635 -0.38600
O 	O 	0.94739 0.81755 0.24365 -0.35200
O 	O 	0.94739 0.31755 0.74365 -0.35400
O 	O 	0.44739 0.81755 0.74365 -0.37900
O 	O 	0.44739 0.31755 0.24365 -0.38700
O 	O 	0.05261 0.24365 0.81755 -0.39800
O 	O 	0.05261 0.74365 0.31755 -0.40000
O 	O 	0.55261 0.24365 0.31755 -0.38700
O 	O 	0.55261 0.74365 0.81755 -0.37900
O 	O 	0.94739 0.75635 0.81755 -0.35100
O 	O 	0.94739 0.25635 0.31755 -0.35900
O 	O 	0.44739 0.75635 0.31755 -0.38600
O 	O 	0.44739 0.25635 0.81755 -0.38400
O 	O 	0.05261 0.75635 0.18245 -0.40600
O 	O 	0.05261 0.25635 0.68245 -0.40400
O 	O 	0.55261 0.75635 0.68245 -0.38600
O 	O 	0.55261 0.25635 0.18245 -0.39300
O 	O 	0.94739 0.24365 0.18245 -0.36200
O 	O 	0.94739 0.74365 0.68245 -0.35400
O 	O 	0.44739 0.24365 0.68245 -0.38700
O 	O 	0.44739 0.74365 0.18245 -0.38900
O 	O 	0.24365 0.18245 0.94739 -0.36200
O 	O 	0.24365 0.68245 0.44739 -0.38700
O 	O 	0.74365 0.18245 0.44739 -0.38900
O 	O 	0.74365 0.68245 0.94739 -0.35400
O 	O 	0.75635 0.18245 0.05261 -0.40600
O 	O 	0.75635 0.68245 0.55261 -0.38600
O 	O 	0.25635 0.18245 0.55261 -0.39300
O 	O 	0.25635 0.68245 0.05261 -0.40400
O 	O 	0.75635 0.81755 0.94739 -0.35100
O 	O 	0.75635 0.31755 0.44739 -0.38600
O 	O 	0.25635 0.81755 0.44739 -0.38400
O 	O 	0.25635 0.31755 0.94739 -0.35900
O 	O 	0.24365 0.81755 0.05261 -0.39800
O 	O 	0.24365 0.31755 0.55261 -0.38700
O 	O 	0.74365 0.81755 0.55261 -0.37900
O 	O 	0.74365 0.31755 0.05261 -0.40000
O 	O 	0.18245 0.05261 0.75635 -0.40600
O 	O 	0.18245 0.55261 0.25635 -0.39300
O 	O 	0.68245 0.05261 0.25635 -0.40400
O 	O 	0.68245 0.55261 0.75635 -0.38600
O 	O 	0.18245 0.94739 0.24365 -0.36200
O 	O 	0.18245 0.44739 0.74365 -0.38900
O 	O 	0.68245 0.94739 0.74365 -0.35400
O 	O 	0.68245 0.44739 0.24365 -0.38700
O 	O 	0.81755 0.05261 0.24365 -0.39800
O 	O 	0.81755 0.55261 0.74365 -0.37900
O 	O 	0.31755 0.05261 0.74365 -0.40000
O 	O 	0.31755 0.55261 0.24365 -0.38700
O 	O 	0.81755 0.94739 0.75635 -0.35100
O 	O 	0.81755 0.44739 0.25635 -0.38400
O 	O 	0.31755 0.94739 0.25635 -0.35900
O 	O 	0.31755 0.44739 0.75635 -0.38600
O 	O 	0.75635 0.94739 0.81755 -0.35100
O 	O 	0.75635 0.44739 0.31755 -0.38600
O 	O 	0.25635 0.94739 0.31755 -0.35900
O 	O 	0.25635 0.44739 0.81755 -0.38400
O 	O 	0.24365 0.05261 0.81755 -0.39800
O 	O 	0.24365 0.55261 0.31755 -0.38700
O 	O 	0.74365 0.05261 0.31755 -0.40000
O 	O 	0.74365 0.55261 0.81755 -0.37900
O 	O 	0.24365 0.94739 0.18245 -0.36200
O 	O 	0.24365 0.44739 0.68245 -0.38700
O 	O 	0.74365 0.94739 0.68245 -0.35400
O 	O 	0.74365 0.44739 0.18245 -0.38900
O 	O 	0.75635 0.05261 0.18245 -0.40600
O 	O 	0.75635 0.55261 0.68245 -0.38600
O 	O 	0.25635 0.05261 0.68245 -0.40400
O 	O 	0.25635 0.55261 0.18245 -0.39300
O 	O 	0.81755 0.75635 0.94739 -0.35100
O 	O 	0.81755 0.25635 0.44739 -0.38400
O 	O 	0.31755 0.75635 0.44739 -0.38600
O 	O 	0.31755 0.25635 0.94739 -0.35900
O 	O 	0.81755 0.24365 0.05261 -0.39800
O 	O 	0.81755 0.74365 0.55261 -0.37900
O 	O 	0.31755 0.24365 0.55261 -0.38700
O 	O 	0.31755 0.74365 0.05261 -0.40000
O 	O 	0.18245 0.24365 0.94739 -0.36200
O 	O 	0.18245 0.74365 0.44739 -0.38900
O 	O 	0.68245 0.24365 0.44739 -0.38700
O 	O 	0.68245 0.74365 0.94739 -0.35400
O 	O 	0.18245 0.75635 0.05261 -0.40600
O 	O 	0.18245 0.25635 0.55261 -0.39300
O 	O 	0.68245 0.75635 0.55261 -0.38600
O 	O 	0.68245 0.25635 0.05261 -0.40400
O 	O 	0.94739 0.81755 0.75635 -0.35100
O 	O 	0.94739 0.31755 0.25635 -0.35900
O 	O 	0.44739 0.81755 0.25635 -0.38400
O 	O 	0.44739 0.31755 0.75635 -0.38600
O 	O 	0.05261 0.81755 0.24365 -0.39800
O 	O 	0.05261 0.31755 0.74365 -0.40000
O 	O 	0.55261 0.81755 0.74365 -0.37900
O 	O 	0.55261 0.31755 0.24365 -0.38700
O 	O 	0.94739 0.18245 0.24365 -0.36200
O 	O 	0.94739 0.68245 0.74365 -0.35400
O 	O 	0.44739 0.18245 0.74365 -0.38900
O 	O 	0.44739 0.68245 0.24365 -0.38700
O 	O 	0.05261 0.18245 0.75635 -0.40600
O 	O 	0.05261 0.68245 0.25635 -0.40400
O 	O 	0.55261 0.18245 0.25635 -0.39300
O 	O 	0.55261 0.68245 0.75635 -0.38600
O 	O 	0.94739 0.75635 0.18245 -0.36000
O 	O 	0.94739 0.25635 0.68245 -0.35900
O 	O 	0.44739 0.75635 0.68245 -0.38600
O 	O 	0.44739 0.25635 0.18245 -0.39300
O 	O 	0.05261 0.24365 0.18245 -0.40700
O 	O 	0.05261 0.74365 0.68245 -0.40000
O 	O 	0.55261 0.24365 0.68245 -0.38700
O 	O 	0.55261 0.74365 0.18245 -0.38900
O 	O 	0.94739 0.24365 0.81755 -0.35200
O 	O 	0.94739 0.74365 0.31755 -0.35400
O 	O 	0.44739 0.24365 0.31755 -0.38700
O 	O 	0.44739 0.74365 0.81755 -0.37900
O 	O 	0.05261 0.75635 0.81755 -0.39600
O 	O 	0.05261 0.25635 0.31755 -0.40400
O 	O 	0.55261 0.75635 0.31755 -0.38600
O 	O 	0.55261 0.25635 0.81755 -0.38400
O 	O 	0.75635 0.81755 0.05261 -0.39600
O 	O 	0.75635 0.31755 0.55261 -0.38600
O 	O 	0.25635 0.81755 0.55261 -0.38400
O 	O 	0.25635 0.31755 0.05261 -0.40400
O 	O 	0.24365 0.81755 0.94739 -0.35200
O 	O 	0.24365 0.31755 0.44739 -0.38700
O 	O 	0.74365 0.81755 0.44739 -0.37900
O 	O 	0.74365 0.31755 0.94739 -0.35400
O 	O 	0.24365 0.18245 0.05261 -0.40700
O 	O 	0.24365 0.68245 0.55261 -0.38700
O 	O 	0.74365 0.18245 0.55261 -0.38900
O 	O 	0.74365 0.68245 0.05261 -0.40000
O 	O 	0.75635 0.18245 0.94739 -0.36000
O 	O 	0.75635 0.68245 0.44739 -0.38600
O 	O 	0.25635 0.18245 0.44739 -0.39300
O 	O 	0.25635 0.68245 0.94739 -0.35900
O 	O 	0.81755 0.94739 0.24365 -0.35200
O 	O 	0.81755 0.44739 0.74365 -0.37900
O 	O 	0.31755 0.94739 0.74365 -0.35400
O 	O 	0.31755 0.44739 0.24365 -0.38700
O 	O 	0.81755 0.05261 0.75635 -0.39600
O 	O 	0.81755 0.55261 0.25635 -0.38400
O 	O 	0.31755 0.05261 0.25635 -0.40400
O 	O 	0.31755 0.55261 0.75635 -0.38600
O 	O 	0.18245 0.94739 0.75635 -0.36000
O 	O 	0.18245 0.44739 0.25635 -0.39300
O 	O 	0.68245 0.94739 0.25635 -0.35900
O 	O 	0.68245 0.44739 0.75635 -0.38600
O 	O 	0.18245 0.05261 0.24365 -0.40700
O 	O 	0.18245 0.55261 0.74365 -0.38900
O 	O 	0.68245 0.05261 0.74365 -0.40000
O 	O 	0.68245 0.55261 0.24365 -0.38700
Cu	Cu	0.28592 0.00000 0.21408 0.87200
Cu	Cu	0.28592 0.50000 0.71408 0.90300
Cu	Cu	0.71408 0.00000 0.21408 0.87300
Cu	Cu	0.71408 0.50000 0.71408 0.90300
Cu	Cu	0.21408 0.50000 0.21408 0.90000
Cu	Cu	0.71408 0.00000 0.78592 0.87600
Cu	Cu	0.71408 0.50000 0.28592 0.90300
Cu	Cu	0.21408 0.00000 0.28592 0.87200
Cu	Cu	0.28592 0.00000 0.78592 0.87600
Cu	Cu	0.28592 0.50000 0.28592 0.90300
Cu	Cu	0.21408 0.28592 -0.00000 0.87200
Cu	Cu	0.21408 0.78592 0.50000 0.90300
Cu	Cu	0.21408 0.71408 -0.00000 0.87300
Cu	Cu	0.21408 0.21408 0.50000 0.90000
Cu	Cu	0.78592 0.71408 -0.00000 0.87600
Cu	Cu	0.78592 0.21408 0.50000 0.90300
Cu	Cu	0.28592 0.21408 -0.00000 0.87200
Cu	Cu	0.78592 0.28592 -0.00000 0.87600
Cu	Cu	0.78592 0.78592 0.50000 0.90700
Cu	Cu	0.28592 0.28592 0.50000 0.90300
Cu	Cu	-0.00000 0.21408 0.28592 0.87200
Cu	Cu	0.50000 0.21408 0.78592 0.90300
Cu	Cu	0.00000 0.21408 0.71408 0.87300
Cu	Cu	0.50000 0.21408 0.21408 0.90000
Cu	Cu	0.00000 0.78592 0.71408 0.87600
Cu	Cu	0.00000 0.28592 0.21408 0.87200
Cu	Cu	0.50000 0.78592 0.21408 0.90300
Cu	Cu	0.00000 0.78592 0.28592 0.87600
Cu	Cu	0.50000 0.78592 0.78592 0.90700
Cu	Cu	0.50000 0.28592 0.28592 0.90300
Cu	Cu	0.00000 0.28592 0.78592 0.87600
Cu	Cu	0.00000 0.71408 0.78592 0.87600
Cu	Cu	0.50000 0.71408 0.28592 0.90300
Cu	Cu	0.00000 0.71408 0.21408 0.87300
Cu	Cu	0.50000 0.71408 0.71408 0.90300
Cu	Cu	0.50000 0.28592 0.71408 0.90300
Cu	Cu	0.28592 0.71408 0.50000 0.90300
Cu	Cu	0.71408 0.21408 -0.00000 0.87300
Cu	Cu	0.71408 0.71408 0.50000 0.90300
Cu	Cu	0.71408 0.78592 -0.00000 0.87600
Cu	Cu	0.71408 0.28592 0.50000 0.90300
Cu	Cu	0.28592 0.78592 -0.00000 0.87600
Cu	Cu	0.21408 0.00000 0.71408 0.87300
Cu	Cu	0.21408 0.50000 0.78592 0.90300
Cu	Cu	0.78592 0.00000 0.28592 0.87600
Cu	Cu	0.78592 0.50000 0.78592 0.90700
Cu	Cu	0.78592 0.00000 0.71408 0.87600
Cu	Cu	0.78592 0.50000 0.21408 0.90300
C 	C 	0.20142 0.06830 0.20142 0.33000
C 	C 	0.17813 0.11626 0.17813 -0.12600
C 	C 	0.20142 0.56830 0.70142 0.33600
C 	C 	0.17813 0.61626 0.67813 -0.12800
C 	C 	0.70142 0.06830 0.70142 0.33300
C 	C 	0.67813 0.11626 0.67813 -0.12900
C 	C 	0.70142 0.56830 0.20142 0.33600
C 	C 	0.67813 0.61626 0.17813 -0.12800
C 	C 	0.79858 0.93170 0.20142 0.34000
C 	C 	0.82187 0.88374 0.17813 -0.12900
C 	C 	0.79858 0.43170 0.70142 0.34000
C 	C 	0.82187 0.38374 0.67813 -0.13100
C 	C 	0.29858 0.93170 0.70142 0.33900
C 	C 	0.32187 0.88374 0.67813 -0.12900
C 	C 	0.29858 0.43170 0.20142 0.33700
C 	C 	0.32187 0.38374 0.17813 -0.12800
C 	C 	0.79858 0.06830 0.79858 0.33800
C 	C 	0.82187 0.11626 0.82187 -0.13200
C 	C 	0.79858 0.56830 0.29858 0.34100
C 	C 	0.82187 0.61626 0.32187 -0.13100
C 	C 	0.29858 0.06830 0.29858 0.33400
C 	C 	0.32187 0.11626 0.32187 -0.12900
C 	C 	0.29858 0.56830 0.79858 0.34100
C 	C 	0.32187 0.61626 0.82187 -0.13100
C 	C 	0.20142 0.93170 0.79858 0.34000
C 	C 	0.17813 0.88374 0.82187 -0.12900
C 	C 	0.20142 0.43170 0.29858 0.33700
C 	C 	0.17813 0.38374 0.32187 -0.12800
C 	C 	0.70142 0.93170 0.29858 0.33900
C 	C 	0.67813 0.88374 0.32187 -0.12900
C 	C 	0.70142 0.43170 0.79858 0.34000
C 	C 	0.67813 0.38374 0.82187 -0.13100
C 	C 	0.20142 0.20142 0.06830 0.33000
C 	C 	0.17813 0.17813 0.11626 -0.12600
C 	C 	0.20142 0.70142 0.56830 0.33600
C 	C 	0.17813 0.67813 0.61626 -0.12800
C 	C 	0.70142 0.20142 0.56830 0.33600
C 	C 	0.67813 0.17813 0.61626 -0.12800
C 	C 	0.70142 0.70142 0.06830 0.33300
C 	C 	0.67813 0.67813 0.11626 -0.12900
C 	C 	0.20142 0.79858 0.93170 0.34000
C 	C 	0.17813 0.82187 0.88374 -0.12900
C 	C 	0.20142 0.29858 0.43170 0.33700
C 	C 	0.17813 0.32187 0.38374 -0.12800
C 	C 	0.70142 0.79858 0.43170 0.34000
C 	C 	0.67813 0.82187 0.38374 -0.13100
C 	C 	0.70142 0.29858 0.93170 0.33900
C 	C 	0.67813 0.32187 0.88374 -0.12900
C 	C 	0.79858 0.79858 0.06830 0.33800
C 	C 	0.82187 0.82187 0.11626 -0.13200
C 	C 	0.79858 0.29858 0.56830 0.34100
C 	C 	0.82187 0.32187 0.61626 -0.13100
C 	C 	0.29858 0.79858 0.56830 0.34100
C 	C 	0.32187 0.82187 0.61626 -0.13100
C 	C 	0.29858 0.29858 0.06830 0.33400
C 	C 	0.32187 0.32187 0.11626 -0.12900
C 	C 	0.79858 0.20142 0.93170 0.34000
C 	C 	0.82187 0.17813 0.88374 -0.12900
C 	C 	0.79858 0.70142 0.43170 0.34000
C 	C 	0.82187 0.67813 0.38374 -0.13100
C 	C 	0.29858 0.20142 0.43170 0.33700
C 	C 	0.32187 0.17813 0.38374 -0.12800
C 	C 	0.29858 0.70142 0.93170 0.33900
C 	C 	0.32187 0.67813 0.88374 -0.12900
C 	C 	0.06830 0.20142 0.20142 0.33000
C 	C 	0.11626 0.17813 0.17813 -0.12600
C 	C 	0.06830 0.70142 0.70142 0.33300
C 	C 	0.11626 0.67813 0.67813 -0.12900
C 	C 	0.56830 0.20142 0.70142 0.33600
C 	C 	0.61626 0.17813 0.67813 -0.12800
C 	C 	0.56830 0.70142 0.20142 0.33600
C 	C 	0.61626 0.67813 0.17813 -0.12800
C 	C 	0.93170 0.20142 0.79858 0.34000
C 	C 	0.88374 0.17813 0.82187 -0.12900
C 	C 	0.93170 0.70142 0.29858 0.33900
C 	C 	0.88374 0.67813 0.32187 -0.12900
C 	C 	0.43170 0.20142 0.29858 0.33700
C 	C 	0.38374 0.17813 0.32187 -0.12800
C 	C 	0.43170 0.70142 0.79858 0.34000
C 	C 	0.38374 0.67813 0.82187 -0.13100
C 	C 	0.06830 0.79858 0.79858 0.33800
C 	C 	0.11626 0.82187 0.82187 -0.13200
C 	C 	0.06830 0.29858 0.29858 0.33400
C 	C 	0.11626 0.32187 0.32187 -0.12900
C 	C 	0.56830 0.79858 0.29858 0.34100
C 	C 	0.61626 0.82187 0.32187 -0.13100
C 	C 	0.56830 0.29858 0.79858 0.34100
C 	C 	0.61626 0.32187 0.82187 -0.13100
C 	C 	0.93170 0.79858 0.20142 0.34000
C 	C 	0.88374 0.82187 0.17813 -0.12900
C 	C 	0.93170 0.29858 0.70142 0.33900
C 	C 	0.88374 0.32187 0.67813 -0.12900
C 	C 	0.43170 0.79858 0.70142 0.34000
C 	C 	0.38374 0.82187 0.67813 -0.13100
C 	C 	0.43170 0.29858 0.20142 0.33700
C 	C 	0.38374 0.32187 0.17813 -0.12800
C 	C 	0.06830 0.20142 0.79858 0.33400
C 	C 	0.11626 0.17813 0.82187 -0.12900
C 	C 	0.06830 0.70142 0.29858 0.33400
C 	C 	0.11626 0.67813 0.32187 -0.12900
C 	C 	0.56830 0.20142 0.29858 0.33700
C 	C 	0.61626 0.17813 0.32187 -0.12800
C 	C 	0.56830 0.70142 0.79858 0.34100
C 	C 	0.61626 0.67813 0.82187 -0.13100
C 	C 	0.93170 0.79858 0.79858 0.34400
C 	C 	0.88374 0.82187 0.82187 -0.13200
C 	C 	0.93170 0.29858 0.29858 0.34000
C 	C 	0.88374 0.32187 0.32187 -0.12900
C 	C 	0.43170 0.79858 0.29858 0.34100
C 	C 	0.38374 0.82187 0.32187 -0.13100
C 	C 	0.43170 0.29858 0.79858 0.34100
C 	C 	0.38374 0.32187 0.82187 -0.13100
C 	C 	0.06830 0.79858 0.20142 0.33400
C 	C 	0.11626 0.82187 0.17813 -0.12900
C 	C 	0.06830 0.29858 0.70142 0.33400
C 	C 	0.11626 0.32187 0.67813 -0.12900
C 	C 	0.56830 0.79858 0.70142 0.34100
C 	C 	0.61626 0.82187 0.67813 -0.13100
C 	C 	0.56830 0.29858 0.20142 0.33700
C 	C 	0.61626 0.32187 0.17813 -0.12800
C 	C 	0.93170 0.20142 0.20142 0.33500
C 	C 	0.88374 0.17813 0.17813 -0.12600
C 	C 	0.93170 0.70142 0.70142 0.33900
C 	C 	0.88374 0.67813 0.67813 -0.12900
C 	C 	0.43170 0.20142 0.70142 0.33600
C 	C 	0.38374 0.17813 0.67813 -0.12800
C 	C 	0.43170 0.70142 0.20142 0.33600
C 	C 	0.38374 0.67813 0.17813 -0.12800
C 	C 	0.20142 0.20142 0.93170 0.33500
C 	C 	0.17813 0.17813 0.88374 -0.12600
C 	C 	0.20142 0.70142 0.43170 0.33600
C 	C 	0.17813 0.67813 0.38374 -0.12800
C 	C 	0.70142 0.20142 0.43170 0.33600
C 	C 	0.67813 0.17813 0.38374 -0.12800
C 	C 	0.70142 0.70142 0.93170 0.33900
C 	C 	0.67813 0.67813 0.88374 -0.12900
C 	C 	0.79858 0.20142 0.06830 0.33400
C 	C 	0.82187 0.17813 0.11626 -0.12900
C 	C 	0.79858 0.70142 0.56830 0.34100
C 	C 	0.82187 0.67813 0.61626 -0.13100
C 	C 	0.29858 0.20142 0.56830 0.33700
C 	C 	0.32187 0.17813 0.61626 -0.12800
C 	C 	0.29858 0.70142 0.06830 0.33400
C 	C 	0.32187 0.67813 0.11626 -0.12900
C 	C 	0.79858 0.79858 0.93170 0.34400
C 	C 	0.82187 0.82187 0.88374 -0.13200
C 	C 	0.79858 0.29858 0.43170 0.34100
C 	C 	0.82187 0.32187 0.38374 -0.13100
C 	C 	0.29858 0.79858 0.43170 0.34100
C 	C 	0.32187 0.82187 0.38374 -0.13100
C 	C 	0.29858 0.29858 0.93170 0.34000
C 	C 	0.32187 0.32187 0.88374 -0.12900
C 	C 	0.20142 0.79858 0.06830 0.33400
C 	C 	0.17813 0.82187 0.11626 -0.12900
C 	C 	0.20142 0.29858 0.56830 0.33700
C 	C 	0.17813 0.32187 0.61626 -0.12800
C 	C 	0.70142 0.79858 0.56830 0.34100
C 	C 	0.67813 0.82187 0.61626 -0.13100
C 	C 	0.70142 0.29858 0.06830 0.33400
C 	C 	0.67813 0.32187 0.11626 -0.12900
C 	C 	0.20142 0.06830 0.79858 0.33400
C 	C 	0.17813 0.11626 0.82187 -0.12900
C 	C 	0.20142 0.56830 0.29858 0.33700
C 	C 	0.17813 0.61626 0.32187 -0.12800
C 	C 	0.70142 0.06830 0.29858 0.33400
C 	C 	0.67813 0.11626 0.32187 -0.12900
C 	C 	0.70142 0.56830 0.79858 0.34100
C 	C 	0.67813 0.61626 0.82187 -0.13100
C 	C 	0.20142 0.93170 0.20142 0.33500
C 	C 	0.17813 0.88374 0.17813 -0.12600
C 	C 	0.20142 0.43170 0.70142 0.33600
C 	C 	0.17813 0.38374 0.67813 -0.12800
C 	C 	0.70142 0.93170 0.70142 0.33900
C 	C 	0.67813 0.88374 0.67813 -0.12900
C 	C 	0.70142 0.43170 0.20142 0.33600
C 	C 	0.67813 0.38374 0.17813 -0.12800
C 	C 	0.79858 0.06830 0.20142 0.33400
C 	C 	0.82187 0.11626 0.17813 -0.12900
C 	C 	0.79858 0.56830 0.70142 0.34100
C 	C 	0.82187 0.61626 0.67813 -0.13100
C 	C 	0.29858 0.06830 0.70142 0.33400
C 	C 	0.32187 0.11626 0.67813 -0.12900
C 	C 	0.29858 0.56830 0.20142 0.33700
C 	C 	0.32187 0.61626 0.17813 -0.12800
C 	C 	0.79858 0.93170 0.79858 0.34400
C 	C 	0.82187 0.88374 0.82187 -0.13200
C 	C 	0.79858 0.43170 0.29858 0.34100
C 	C 	0.82187 0.38374 0.32187 -0.13100
C 	C 	0.29858 0.93170 0.29858 0.34000
C 	C 	0.32187 0.88374 0.32187 -0.12900
C 	C 	0.29858 0.43170 0.79858 0.34100
C 	C 	0.32187 0.38374 0.82187 -0.13100
C 	C 	0.13255 0.13255 0.19895 0.08900
C 	C 	0.13255 0.63255 0.69895 0.10400
C 	C 	0.63255 0.13255 0.69895 0.10400
C 	C 	0.63255 0.63255 0.19895 0.10800
C 	C 	0.86745 0.86745 0.19895 0.12800
C 	C 	0.86745 0.36745 0.69895 0.12400
C 	C 	0.36745 0.86745 0.69895 0.12400
C 	C 	0.36745 0.36745 0.19895 0.10800
C 	C 	0.86745 0.13255 0.80105 0.11700
C 	C 	0.86745 0.63255 0.30105 0.12100
C 	C 	0.36745 0.13255 0.30105 0.10100
C 	C 	0.36745 0.63255 0.80105 0.11700
C 	C 	0.13255 0.86745 0.80105 0.11700
C 	C 	0.13255 0.36745 0.30105 0.10100
C 	C 	0.63255 0.86745 0.30105 0.12100
C 	C 	0.63255 0.36745 0.80105 0.11700
C 	C 	0.19895 0.13255 0.13255 0.08900
C 	C 	0.19895 0.63255 0.63255 0.10800
C 	C 	0.69895 0.13255 0.63255 0.10400
C 	C 	0.69895 0.63255 0.13255 0.10400
C 	C 	0.19895 0.86745 0.86745 0.12800
C 	C 	0.19895 0.36745 0.36745 0.10800
C 	C 	0.69895 0.86745 0.36745 0.12400
C 	C 	0.69895 0.36745 0.86745 0.12400
C 	C 	0.80105 0.86745 0.13255 0.11700
C 	C 	0.80105 0.36745 0.63255 0.11700
C 	C 	0.30105 0.86745 0.63255 0.12100
C 	C 	0.30105 0.36745 0.13255 0.10100
C 	C 	0.80105 0.13255 0.86745 0.11700
C 	C 	0.80105 0.63255 0.36745 0.11700
C 	C 	0.30105 0.13255 0.36745 0.10100
C 	C 	0.30105 0.63255 0.86745 0.12100
C 	C 	0.13255 0.19895 0.13255 0.08900
C 	C 	0.13255 0.69895 0.63255 0.10400
C 	C 	0.63255 0.19895 0.63255 0.10800
C 	C 	0.63255 0.69895 0.13255 0.10400
C 	C 	0.86745 0.19895 0.86745 0.12800
C 	C 	0.86745 0.69895 0.36745 0.12400
C 	C 	0.36745 0.19895 0.36745 0.10800
C 	C 	0.36745 0.69895 0.86745 0.12400
C 	C 	0.13255 0.80105 0.86745 0.11700
C 	C 	0.13255 0.30105 0.36745 0.10100
C 	C 	0.63255 0.80105 0.36745 0.11700
C 	C 	0.63255 0.30105 0.86745 0.12100
C 	C 	0.86745 0.80105 0.13255 0.11700
C 	C 	0.86745 0.30105 0.63255 0.12100
C 	C 	0.36745 0.80105 0.63255 0.11700
C 	C 	0.36745 0.30105 0.13255 0.10100
C 	C 	0.13255 0.13255 0.80105 0.09700
C 	C 	0.13255 0.63255 0.30105 0.10100
C 	C 	0.63255 0.13255 0.30105 0.10100
C 	C 	0.63255 0.63255 0.80105 0.11700
C 	C 	0.86745 0.86745 0.80105 0.13700
C 	C 	0.86745 0.36745 0.30105 0.12100
C 	C 	0.36745 0.86745 0.30105 0.12100
C 	C 	0.36745 0.36745 0.80105 0.11700
C 	C 	0.13255 0.86745 0.19895 0.10800
C 	C 	0.13255 0.36745 0.69895 0.10400
C 	C 	0.63255 0.86745 0.69895 0.12500
C 	C 	0.63255 0.36745 0.19895 0.10800
C 	C 	0.86745 0.13255 0.19895 0.10800
C 	C 	0.86745 0.63255 0.69895 0.12500
C 	C 	0.36745 0.13255 0.69895 0.10400
C 	C 	0.36745 0.63255 0.19895 0.10800
C 	C 	0.13255 0.19895 0.86745 0.10800
C 	C 	0.13255 0.69895 0.36745 0.10400
C 	C 	0.63255 0.19895 0.36745 0.10800
C 	C 	0.63255 0.69895 0.86745 0.12500
C 	C 	0.86745 0.19895 0.13255 0.10800
C 	C 	0.86745 0.69895 0.63255 0.12500
C 	C 	0.36745 0.19895 0.63255 0.10800
C 	C 	0.36745 0.69895 0.13255 0.10400
C 	C 	0.86745 0.80105 0.86745 0.13700
C 	C 	0.86745 0.30105 0.36745 0.12100
C 	C 	0.36745 0.80105 0.36745 0.11700
C 	C 	0.36745 0.30105 0.86745 0.12100
C 	C 	0.13255 0.80105 0.13255 0.09700
C 	C 	0.13255 0.30105 0.63255 0.10100
C 	C 	0.63255 0.80105 0.63255 0.11700
C 	C 	0.63255 0.30105 0.13255 0.10100
C 	C 	0.19895 0.13255 0.86745 0.10800
C 	C 	0.19895 0.63255 0.36745 0.10800
C 	C 	0.69895 0.13255 0.36745 0.10400
C 	C 	0.69895 0.63255 0.86745 0.12500
C 	C 	0.19895 0.86745 0.13255 0.10800
C 	C 	0.19895 0.36745 0.63255 0.10800
C 	C 	0.69895 0.86745 0.63255 0.12500
C 	C 	0.69895 0.36745 0.13255 0.10400
C 	C 	0.80105 0.13255 0.13255 0.09700
C 	C 	0.80105 0.63255 0.63255 0.11700
C 	C 	0.30105 0.13255 0.63255 0.10100
C 	C 	0.30105 0.63255 0.13255 0.10100
C 	C 	0.80105 0.86745 0.86745 0.13700
C 	C 	0.80105 0.36745 0.36745 0.11700
C 	C 	0.30105 0.86745 0.36745 0.12100
C 	C 	0.30105 0.36745 0.86745 0.12100
