data_crystal

_cell_length_a 11.50840
_cell_length_b 12.71580
_cell_length_c 14.53870
_cell_angle_alpha 94.24100
_cell_angle_beta  109.06600
_cell_angle_gamma 115.60300

_symmetry_space_group_name_	'P 1'
_symmetry_space_group_name_H-M	'P 1'

loop_
_symmetry_equiv_pos_as_xyz
  x,y,z

loop_
_atom_site_label
_atom_site_type_symbol
_atom_site_fract_x
_atom_site_fract_y
_atom_site_fract_z
_atom_site_charge
Ce	Ce	0.38220 0.45220 0.83177 2.13400
Ce	Ce	0.23327 0.52404 0.44113 1.97900
Mo	Mo	0.34935 0.75832 0.88641 1.12600
Mo	Mo	0.37236 0.92513 0.72719 1.00600
Mo	Mo	0.37730 0.12519 0.88323 1.11500
Mo	Mo	0.64688 0.04335 0.96194 1.11000
N 	N 	0.60870 0.65160 0.83990 -0.17300
N 	N 	0.17630 0.56980 0.26400 -0.23400
O 	O 	0.37100 0.53920 0.67790 -0.59600
O 	O 	0.46550 0.65140 0.58640 -0.57800
O 	O 	0.61600 0.54790 0.98860 -0.54400
O 	O 	0.80880 0.70730 0.09670 -0.42900
O 	O 	0.00490 0.52300 0.35540 -0.66400
O 	O 	0.85720 0.55930 0.23870 -0.53600
O 	O 	0.40860 0.56160 0.36490 -0.58200
O 	O 	0.48680 0.60320 0.24440 -0.53400
O 	O 	0.39610 0.95240 0.90270 -0.64700
O 	O 	0.38930 0.79210 0.77230 -0.58200
O 	O 	0.38190 0.63970 0.89800 -0.56300
O 	O 	0.41500 0.08770 0.77120 -0.58700
O 	O 	0.60580 0.01590 0.83290 -0.49300
O 	O 	0.61370 0.18070 0.97320 -0.56100
O 	O 	0.40710 0.11980 0.02530 -0.55000
O 	O 	0.42140 0.27370 0.89050 -0.55600
C 	C 	0.47080 0.62480 0.66810 0.36500
C 	C 	0.60710 0.69880 0.75990 -0.07800
C 	C 	0.71780 0.80190 0.76020 -0.01800
H 	H 	0.71160 0.83170 0.70330 -0.01200
C 	C 	0.83730 0.85930 0.84700 -0.09600
H 	H 	0.91400 0.92930 0.84990 0.00300
C 	C 	0.84310 0.81260 0.92960 -0.02900
H 	H 	0.92440 0.85000 0.98840 0.00700
C 	C 	0.72750 0.70990 0.92490 -0.05800
C 	C 	0.72020 0.65460 0.00950 0.30600
C 	C 	0.96530 0.55090 0.27360 0.38000
C 	C 	0.06180 0.57680 0.21850 -0.12700
C 	C 	0.03380 0.60940 0.12710 -0.00800
H 	H 	0.95390 0.61690 0.09740 0.02900
C 	C 	0.12680 0.63000 0.08260 -0.06800
H 	H 	0.10940 0.65030 0.02130 0.01400
C 	C 	0.24850 0.62050 0.12940 -0.00600
H 	H 	0.31260 0.63330 0.10010 0.04100
C 	C 	0.26830 0.59140 0.22110 -0.11300
C 	C 	0.39870 0.58440 0.28100 0.40700
Ce	Ce	0.61780 0.54780 0.16823 2.13400
Ce	Ce	0.76673 0.47596 0.55887 1.97900
Mo	Mo	0.65065 0.24168 0.11359 1.12600
Mo	Mo	0.62764 0.07487 0.27281 1.00600
Mo	Mo	0.62270 0.87481 0.11677 1.11500
Mo	Mo	0.35312 0.95665 0.03806 1.11000
N 	N 	0.39130 0.34840 0.16010 -0.17300
N 	N 	0.82370 0.43020 0.73600 -0.23400
O 	O 	0.62900 0.46080 0.32210 -0.59600
O 	O 	0.53450 0.34860 0.41360 -0.57800
O 	O 	0.38400 0.45210 0.01140 -0.54400
O 	O 	0.19120 0.29270 0.90330 -0.42900
O 	O 	0.99510 0.47700 0.64460 -0.66400
O 	O 	0.14280 0.44070 0.76130 -0.53600
O 	O 	0.59140 0.43840 0.63510 -0.58200
O 	O 	0.51320 0.39680 0.75560 -0.53400
O 	O 	0.60390 0.04760 0.09730 -0.64700
O 	O 	0.61070 0.20790 0.22770 -0.58200
O 	O 	0.61810 0.36030 0.10200 -0.56300
O 	O 	0.58500 0.91230 0.22880 -0.58700
O 	O 	0.39420 0.98410 0.16710 -0.49300
O 	O 	0.38630 0.81930 0.02680 -0.56100
O 	O 	0.59290 0.88020 0.97470 -0.55000
O 	O 	0.57860 0.72630 0.10950 -0.55600
C 	C 	0.52920 0.37520 0.33190 0.36500
C 	C 	0.39290 0.30120 0.24010 -0.07800
C 	C 	0.28220 0.19810 0.23980 -0.01800
H 	H 	0.28840 0.16830 0.29670 -0.01200
C 	C 	0.16270 0.14070 0.15300 -0.09600
H 	H 	0.08600 0.07070 0.15010 0.00300
C 	C 	0.15690 0.18740 0.07040 -0.02900
H 	H 	0.07560 0.15000 0.01160 0.00700
C 	C 	0.27250 0.29010 0.07510 -0.05800
C 	C 	0.27980 0.34540 0.99050 0.30600
C 	C 	0.03470 0.44910 0.72640 0.38000
C 	C 	0.93820 0.42320 0.78150 -0.12700
C 	C 	0.96620 0.39060 0.87290 -0.00800
H 	H 	0.04610 0.38310 0.90260 0.02900
C 	C 	0.87320 0.37000 0.91740 -0.06800
H 	H 	0.89060 0.34970 0.97870 0.01400
C 	C 	0.75150 0.37950 0.87060 -0.00600
H 	H 	0.68740 0.36670 0.89990 0.04100
C 	C 	0.73170 0.40860 0.77890 -0.11300
C 	C 	0.60130 0.41560 0.71900 0.40700
