data_crystal

_cell_length_a 29.07400
_cell_length_b 29.07400
_cell_length_c 13.85400
_cell_angle_alpha 90.00000
_cell_angle_beta  90.00000
_cell_angle_gamma 90.00000

_symmetry_space_group_name_	'P 1'
_symmetry_space_group_name_H-M	'P 1'

loop_
_symmetry_equiv_pos_as_xyz
  x,y,z

loop_
_atom_site_label
_atom_site_type_symbol
_atom_site_fract_x
_atom_site_fract_y
_atom_site_fract_z
_atom_site_charge
C 	C 	0.76710 0.13220 0.49610 0.56300
C 	C 	0.77650 0.42770 0.69520 0.47600
C 	C 	0.77000 0.18310 0.50540 -0.37200
C 	C 	0.78490 0.20820 0.42690 0.24700
H 	H 	0.79410 0.19270 0.37140 -0.04800
C 	C 	0.78660 0.25680 0.42820 -0.30600
H 	H 	0.79840 0.27330 0.37640 0.14100
C 	C 	0.76970 0.27910 0.51020 0.26000
C 	C 	0.75660 0.25440 0.58930 -0.39000
H 	H 	0.74770 0.27000 0.64480 0.20100
C 	C 	0.75640 0.20690 0.58930 0.41300
C 	C 	0.76780 0.33080 0.51280 -0.15200
C 	C 	0.75480 0.35450 0.43180 0.10500
H 	H 	0.75060 0.33890 0.37380 0.00100
C 	C 	0.74790 0.40270 0.43610 -0.22400
C 	C 	0.75410 0.42440 0.52210 0.18500
H 	H 	0.74860 0.45580 0.52510 -0.04900
C 	C 	0.76800 0.40240 0.60420 -0.23100
C 	C 	0.77550 0.35470 0.59940 0.10400
H 	H 	0.78570 0.33890 0.65370 0.02000
C 	C 	0.73500 0.42630 0.34630 0.43800
O 	O 	0.74920 0.11050 0.56850 -0.54000
O 	O 	0.78140 0.11230 0.42330 -0.56400
O 	O 	0.74600 0.41090 0.26680 -0.49100
O 	O 	0.71400 0.46570 0.34870 -0.54000
O 	O 	0.77310 0.47060 0.69700 -0.56000
O 	O 	0.79060 0.40580 0.76920 -0.48000
O 	O 	0.74000 0.18540 0.67160 -0.48700
H 	H 	0.73970 0.15750 0.66320 0.30800
Tb	Tb	0.70515 0.04455 0.59524 1.98200
C 	C 	0.26710 0.63220 0.99610 0.56200
C 	C 	0.27650 0.92770 0.19520 0.47500
C 	C 	0.27000 0.68310 0.00540 -0.37300
C 	C 	0.28490 0.70820 0.92690 0.24700
H 	H 	0.29410 0.69270 0.87140 -0.05000
C 	C 	0.28660 0.75680 0.92820 -0.30700
H 	H 	0.29840 0.77330 0.87640 0.14000
C 	C 	0.26970 0.77910 0.01020 0.25900
C 	C 	0.25660 0.75440 0.08930 -0.39100
H 	H 	0.24770 0.77000 0.14480 0.20000
C 	C 	0.25640 0.70690 0.08930 0.41300
C 	C 	0.26780 0.83080 0.01280 -0.15200
C 	C 	0.25480 0.85450 0.93180 0.10500
H 	H 	0.25060 0.83890 0.87380 0.00100
C 	C 	0.24790 0.90270 0.93610 -0.22300
C 	C 	0.25410 0.92440 0.02210 0.18400
H 	H 	0.24860 0.95580 0.02510 -0.04900
C 	C 	0.26800 0.90240 0.10420 -0.23000
C 	C 	0.27550 0.85470 0.09940 0.10300
H 	H 	0.28570 0.83890 0.15370 0.02000
C 	C 	0.23500 0.92630 0.84630 0.43700
O 	O 	0.24920 0.61050 0.06850 -0.54000
O 	O 	0.28140 0.61230 0.92330 -0.56400
O 	O 	0.24600 0.91090 0.76680 -0.49100
O 	O 	0.21400 0.96570 0.84870 -0.54000
O 	O 	0.27310 0.97060 0.19700 -0.56000
O 	O 	0.29060 0.90580 0.26920 -0.48000
O 	O 	0.24000 0.68540 0.17160 -0.48700
H 	H 	0.23970 0.65750 0.16320 0.30800
Tb	Tb	0.20515 0.54455 0.09524 1.98200
C 	C 	0.73290 0.86780 0.99610 0.56300
C 	C 	0.72350 0.57230 0.19520 0.47500
C 	C 	0.73000 0.81690 0.00540 -0.37400
C 	C 	0.71510 0.79180 0.92690 0.24700
H 	H 	0.70590 0.80730 0.87140 -0.05000
C 	C 	0.71340 0.74320 0.92820 -0.30700
H 	H 	0.70160 0.72670 0.87640 0.14000
C 	C 	0.73030 0.72090 0.01020 0.25900
C 	C 	0.74340 0.74560 0.08930 -0.39200
H 	H 	0.75230 0.73000 0.14480 0.20000
C 	C 	0.74360 0.79310 0.08930 0.41300
C 	C 	0.73220 0.66920 0.01280 -0.15200
C 	C 	0.74520 0.64550 0.93180 0.10500
H 	H 	0.74940 0.66110 0.87380 0.00100
C 	C 	0.75210 0.59730 0.93610 -0.22500
C 	C 	0.74590 0.57560 0.02210 0.18500
H 	H 	0.75140 0.54420 0.02510 -0.04900
C 	C 	0.73200 0.59760 0.10420 -0.23100
C 	C 	0.72450 0.64530 0.09940 0.10400
H 	H 	0.71430 0.66110 0.15370 0.02000
C 	C 	0.76500 0.57370 0.84630 0.43800
O 	O 	0.75080 0.88950 0.06850 -0.54100
O 	O 	0.71860 0.88770 0.92330 -0.56400
O 	O 	0.75400 0.58910 0.76680 -0.49100
O 	O 	0.78600 0.53430 0.84870 -0.54000
O 	O 	0.72690 0.52940 0.19700 -0.56000
O 	O 	0.70940 0.59420 0.26920 -0.48000
O 	O 	0.76000 0.81460 0.17160 -0.48700
H 	H 	0.76030 0.84250 0.16320 0.30800
Tb	Tb	0.79485 0.95545 0.09524 1.98000
C 	C 	0.23290 0.36780 0.49610 0.56200
C 	C 	0.22350 0.07230 0.69520 0.47500
C 	C 	0.23000 0.31690 0.50540 -0.37300
C 	C 	0.21510 0.29180 0.42690 0.24600
H 	H 	0.20590 0.30730 0.37140 -0.05000
C 	C 	0.21340 0.24320 0.42820 -0.30700
H 	H 	0.20160 0.22670 0.37640 0.14000
C 	C 	0.23030 0.22090 0.51020 0.25900
C 	C 	0.24340 0.24560 0.58930 -0.39100
H 	H 	0.25230 0.23000 0.64480 0.20000
C 	C 	0.24360 0.29310 0.58930 0.41300
C 	C 	0.23220 0.16920 0.51280 -0.15200
C 	C 	0.24520 0.14550 0.43180 0.10500
H 	H 	0.24940 0.16110 0.37380 0.00100
C 	C 	0.25210 0.09730 0.43610 -0.22500
C 	C 	0.24590 0.07560 0.52210 0.18500
H 	H 	0.25140 0.04420 0.52510 -0.04900
C 	C 	0.23200 0.09760 0.60420 -0.23100
C 	C 	0.22450 0.14530 0.59940 0.10400
H 	H 	0.21430 0.16110 0.65370 0.02000
C 	C 	0.26500 0.07370 0.34630 0.43800
O 	O 	0.25080 0.38950 0.56850 -0.54000
O 	O 	0.21860 0.38770 0.42330 -0.56300
O 	O 	0.25400 0.08910 0.26680 -0.49100
O 	O 	0.28600 0.03430 0.34870 -0.54000
O 	O 	0.22690 0.02940 0.69700 -0.56000
O 	O 	0.20940 0.09420 0.76920 -0.48000
O 	O 	0.26000 0.31460 0.67160 -0.48700
H 	H 	0.26030 0.34250 0.66320 0.30800
Tb	Tb	0.29485 0.45545 0.59524 1.98200
C 	C 	0.61780 0.01710 0.74610 0.56200
C 	C 	0.32230 0.02650 0.94520 0.47300
C 	C 	0.56690 0.02000 0.75540 -0.37300
C 	C 	0.54180 0.03490 0.67690 0.24600
H 	H 	0.55730 0.04410 0.62140 -0.04900
C 	C 	0.49320 0.03660 0.67820 -0.30700
H 	H 	0.47670 0.04840 0.62640 0.14000
C 	C 	0.47090 0.01970 0.76020 0.25900
C 	C 	0.49560 0.00660 0.83930 -0.39200
H 	H 	0.48000 0.99770 0.89480 0.20100
C 	C 	0.54310 0.00640 0.83930 0.41200
C 	C 	0.41920 0.01780 0.76280 -0.15100
C 	C 	0.39550 0.00480 0.68180 0.10300
H 	H 	0.41110 0.00060 0.62380 0.00200
C 	C 	0.34730 0.99790 0.68610 -0.22100
C 	C 	0.32560 0.00410 0.77210 0.18100
H 	H 	0.29420 0.99860 0.77510 -0.04700
C 	C 	0.34760 0.01800 0.85420 -0.22900
C 	C 	0.39530 0.02550 0.84940 0.10200
H 	H 	0.41110 0.03570 0.90370 0.02000
C 	C 	0.32370 0.98500 0.59630 0.43700
O 	O 	0.63950 0.99920 0.81850 -0.54000
O 	O 	0.63770 0.03140 0.67330 -0.56300
O 	O 	0.33910 0.99600 0.51680 -0.49100
O 	O 	0.28430 0.96400 0.59870 -0.54000
O 	O 	0.27940 0.02310 0.94700 -0.55900
O 	O 	0.34420 0.04060 0.01920 -0.47900
O 	O 	0.56460 0.99000 0.92160 -0.48700
H 	H 	0.59250 0.98970 0.91320 0.30800
Tb	Tb	0.70545 0.95515 0.84524 1.98300
C 	C 	0.11780 0.51710 0.24610 0.56200
C 	C 	0.82230 0.52650 0.44520 0.47500
C 	C 	0.06690 0.52000 0.25540 -0.37300
C 	C 	0.04180 0.53490 0.17690 0.24700
H 	H 	0.05730 0.54410 0.12140 -0.05000
C 	C 	0.99320 0.53660 0.17820 -0.30700
H 	H 	0.97670 0.54840 0.12640 0.14000
C 	C 	0.97090 0.51970 0.26020 0.25900
C 	C 	0.99560 0.50660 0.33930 -0.39100
H 	H 	0.98000 0.49770 0.39480 0.20000
C 	C 	0.04310 0.50640 0.33930 0.41300
C 	C 	0.91920 0.51780 0.26280 -0.15200
C 	C 	0.89550 0.50480 0.18180 0.10500
H 	H 	0.91110 0.50060 0.12380 0.00100
C 	C 	0.84730 0.49790 0.18610 -0.22500
C 	C 	0.82560 0.50410 0.27210 0.18500
H 	H 	0.79420 0.49860 0.27510 -0.04900
C 	C 	0.84760 0.51800 0.35420 -0.23100
C 	C 	0.89530 0.52550 0.34940 0.10400
H 	H 	0.91110 0.53570 0.40370 0.02000
C 	C 	0.82370 0.48500 0.09630 0.43800
O 	O 	0.13950 0.49920 0.31850 -0.54000
O 	O 	0.13770 0.53140 0.17330 -0.56400
O 	O 	0.83910 0.49600 0.01680 -0.49100
O 	O 	0.78430 0.46400 0.09870 -0.54000
O 	O 	0.77940 0.52310 0.44700 -0.56000
O 	O 	0.84420 0.54060 0.51920 -0.48000
O 	O 	0.06460 0.49000 0.42160 -0.48700
H 	H 	0.09250 0.48970 0.41320 0.30800
Tb	Tb	0.20545 0.45515 0.34524 1.98200
C 	C 	0.88220 0.98290 0.24610 0.56000
C 	C 	0.17770 0.97350 0.44520 0.47500
C 	C 	0.93310 0.98000 0.25540 -0.37100
C 	C 	0.95820 0.96510 0.17690 0.24400
H 	H 	0.94270 0.95590 0.12140 -0.04900
C 	C 	0.00680 0.96340 0.17820 -0.30400
H 	H 	0.02330 0.95160 0.12640 0.13900
C 	C 	0.02910 0.98030 0.26020 0.25700
C 	C 	0.00440 0.99340 0.33930 -0.38700
H 	H 	0.02000 0.00230 0.39480 0.19800
C 	C 	0.95690 0.99360 0.33930 0.41000
C 	C 	0.08080 0.98220 0.26280 -0.15000
C 	C 	0.10450 0.99520 0.18180 0.10400
H 	H 	0.08890 0.99940 0.12380 0.00100
C 	C 	0.15270 0.00210 0.18610 -0.22400
C 	C 	0.17440 0.99590 0.27210 0.18400
H 	H 	0.20580 0.00140 0.27510 -0.04900
C 	C 	0.15240 0.98200 0.35420 -0.23000
C 	C 	0.10470 0.97450 0.34940 0.10300
H 	H 	0.08890 0.96430 0.40370 0.02000
C 	C 	0.17630 0.01500 0.09630 0.43700
O 	O 	0.86050 0.00080 0.31850 -0.53900
O 	O 	0.86230 0.96860 0.17330 -0.56300
O 	O 	0.16090 0.00400 0.01680 -0.49100
O 	O 	0.21570 0.03600 0.09870 -0.54000
O 	O 	0.22060 0.97690 0.44700 -0.55900
O 	O 	0.15580 0.95940 0.51920 -0.48000
O 	O 	0.93540 0.01000 0.42160 -0.48600
H 	H 	0.90750 0.01030 0.41320 0.30800
Tb	Tb	0.79455 0.04485 0.34524 1.98300
C 	C 	0.38220 0.48290 0.74610 0.56200
C 	C 	0.67770 0.47350 0.94520 0.47500
C 	C 	0.43310 0.48000 0.75540 -0.37300
C 	C 	0.45820 0.46510 0.67690 0.24600
H 	H 	0.44270 0.45590 0.62140 -0.04900
C 	C 	0.50680 0.46340 0.67820 -0.30700
H 	H 	0.52330 0.45160 0.62640 0.14000
C 	C 	0.52910 0.48030 0.76020 0.25900
C 	C 	0.50440 0.49340 0.83930 -0.39100
H 	H 	0.52000 0.50230 0.89480 0.20000
C 	C 	0.45690 0.49360 0.83930 0.41300
C 	C 	0.58080 0.48220 0.76280 -0.15200
C 	C 	0.60450 0.49520 0.68180 0.10500
H 	H 	0.58890 0.49940 0.62380 0.00100
C 	C 	0.65270 0.50210 0.68610 -0.22400
C 	C 	0.67440 0.49590 0.77210 0.18500
H 	H 	0.70580 0.50140 0.77510 -0.04900
C 	C 	0.65240 0.48200 0.85420 -0.23100
C 	C 	0.60470 0.47450 0.84940 0.10400
H 	H 	0.58890 0.46430 0.90370 0.02000
C 	C 	0.67630 0.51500 0.59630 0.43800
O 	O 	0.36050 0.50080 0.81850 -0.54000
O 	O 	0.36230 0.46860 0.67330 -0.56300
O 	O 	0.66090 0.50400 0.51680 -0.49100
O 	O 	0.71570 0.53600 0.59870 -0.54000
O 	O 	0.72060 0.47690 0.94700 -0.56000
O 	O 	0.65580 0.45940 0.01920 -0.48000
O 	O 	0.43540 0.51000 0.92160 -0.48700
H 	H 	0.40750 0.51030 0.91320 0.30800
Tb	Tb	0.29455 0.54485 0.84524 1.98200
C 	C 	0.23290 0.86780 0.50390 0.56200
C 	C 	0.22350 0.57230 0.30480 0.47500
C 	C 	0.23000 0.81690 0.49460 -0.37300
C 	C 	0.21510 0.79180 0.57310 0.24600
H 	H 	0.20590 0.80730 0.62860 -0.04900
C 	C 	0.21340 0.74320 0.57180 -0.30700
H 	H 	0.20160 0.72670 0.62360 0.14000
C 	C 	0.23030 0.72090 0.48980 0.25900
C 	C 	0.24340 0.74560 0.41070 -0.39100
H 	H 	0.25230 0.73000 0.35520 0.20000
C 	C 	0.24360 0.79310 0.41070 0.41300
C 	C 	0.23220 0.66920 0.48720 -0.15200
C 	C 	0.24520 0.64550 0.56820 0.10500
H 	H 	0.24940 0.66110 0.62620 0.00100
C 	C 	0.25210 0.59730 0.56390 -0.22400
C 	C 	0.24590 0.57560 0.47790 0.18500
H 	H 	0.25140 0.54420 0.47490 -0.04900
C 	C 	0.23200 0.59760 0.39580 -0.23100
C 	C 	0.22450 0.64530 0.40060 0.10400
H 	H 	0.21430 0.66110 0.34630 0.02000
C 	C 	0.26500 0.57370 0.65370 0.43800
O 	O 	0.25080 0.88950 0.43150 -0.54000
O 	O 	0.21860 0.88770 0.57670 -0.56400
O 	O 	0.25400 0.58910 0.73320 -0.49100
O 	O 	0.28600 0.53430 0.65130 -0.54000
O 	O 	0.22690 0.52940 0.30300 -0.56000
O 	O 	0.20940 0.59420 0.23080 -0.48000
O 	O 	0.26000 0.81460 0.32840 -0.48700
H 	H 	0.26030 0.84250 0.33680 0.30800
Tb	Tb	0.29485 0.95545 0.40476 1.98200
C 	C 	0.73290 0.36780 0.00390 0.56200
C 	C 	0.72350 0.07230 0.80480 0.47500
C 	C 	0.73000 0.31690 0.99460 -0.37300
C 	C 	0.71510 0.29180 0.07310 0.24700
H 	H 	0.70590 0.30730 0.12860 -0.05000
C 	C 	0.71340 0.24320 0.07180 -0.30700
H 	H 	0.70160 0.22670 0.12360 0.14000
C 	C 	0.73030 0.22090 0.98980 0.25900
C 	C 	0.74340 0.24560 0.91070 -0.39100
H 	H 	0.75230 0.23000 0.85520 0.20000
C 	C 	0.74360 0.29310 0.91070 0.41300
C 	C 	0.73220 0.16920 0.98720 -0.15200
C 	C 	0.74520 0.14550 0.06820 0.10500
H 	H 	0.74940 0.16110 0.12620 0.00100
C 	C 	0.75210 0.09730 0.06390 -0.22300
C 	C 	0.74590 0.07560 0.97790 0.18400
H 	H 	0.75140 0.04420 0.97490 -0.04900
C 	C 	0.73200 0.09760 0.89580 -0.23000
C 	C 	0.72450 0.14530 0.90060 0.10300
H 	H 	0.71430 0.16110 0.84630 0.02000
C 	C 	0.76500 0.07370 0.15370 0.43700
O 	O 	0.75080 0.38950 0.93150 -0.54000
O 	O 	0.71860 0.38770 0.07670 -0.56400
O 	O 	0.75400 0.08910 0.23320 -0.49100
O 	O 	0.78600 0.03430 0.15130 -0.54000
O 	O 	0.72690 0.02940 0.80300 -0.56000
O 	O 	0.70940 0.09420 0.73080 -0.48000
O 	O 	0.76000 0.31460 0.82840 -0.48700
H 	H 	0.76030 0.34250 0.83680 0.30800
Tb	Tb	0.79485 0.45545 0.90476 1.98200
C 	C 	0.26710 0.13220 0.00390 0.56300
C 	C 	0.27650 0.42770 0.80480 0.47500
C 	C 	0.27000 0.18310 0.99460 -0.37400
C 	C 	0.28490 0.20820 0.07310 0.24700
H 	H 	0.29410 0.19270 0.12860 -0.05000
C 	C 	0.28660 0.25680 0.07180 -0.30700
H 	H 	0.29840 0.27330 0.12360 0.14000
C 	C 	0.26970 0.27910 0.98980 0.25900
C 	C 	0.25660 0.25440 0.91070 -0.39200
H 	H 	0.24770 0.27000 0.85520 0.20000
C 	C 	0.25640 0.20690 0.91070 0.41300
C 	C 	0.26780 0.33080 0.98720 -0.15200
C 	C 	0.25480 0.35450 0.06820 0.10500
H 	H 	0.25060 0.33890 0.12620 0.00100
C 	C 	0.24790 0.40270 0.06390 -0.22500
C 	C 	0.25410 0.42440 0.97790 0.18500
H 	H 	0.24860 0.45580 0.97490 -0.04900
C 	C 	0.26800 0.40240 0.89580 -0.23100
C 	C 	0.27550 0.35470 0.90060 0.10400
H 	H 	0.28570 0.33890 0.84630 0.02000
C 	C 	0.23500 0.42630 0.15370 0.43800
O 	O 	0.24920 0.11050 0.93150 -0.54100
O 	O 	0.28140 0.11230 0.07670 -0.56400
O 	O 	0.24600 0.41090 0.23320 -0.49100
O 	O 	0.21400 0.46570 0.15130 -0.54000
O 	O 	0.27310 0.47060 0.80300 -0.56000
O 	O 	0.29060 0.40580 0.73080 -0.48000
O 	O 	0.24000 0.18540 0.82840 -0.48700
H 	H 	0.23970 0.15750 0.83680 0.30800
Tb	Tb	0.20515 0.04455 0.90476 1.98000
C 	C 	0.76710 0.63220 0.50390 0.56200
C 	C 	0.77650 0.92770 0.30480 0.47500
C 	C 	0.77000 0.68310 0.49460 -0.37300
C 	C 	0.78490 0.70820 0.57310 0.24600
H 	H 	0.79410 0.69270 0.62860 -0.05000
C 	C 	0.78660 0.75680 0.57180 -0.30700
H 	H 	0.79840 0.77330 0.62360 0.14000
C 	C 	0.76970 0.77910 0.48980 0.25900
C 	C 	0.75660 0.75440 0.41070 -0.39100
H 	H 	0.74770 0.77000 0.35520 0.20000
C 	C 	0.75640 0.70690 0.41070 0.41300
C 	C 	0.76780 0.83080 0.48720 -0.15200
C 	C 	0.75480 0.85450 0.56820 0.10500
H 	H 	0.75060 0.83890 0.62620 0.00100
C 	C 	0.74790 0.90270 0.56390 -0.22500
C 	C 	0.75410 0.92440 0.47790 0.18500
H 	H 	0.74860 0.95580 0.47490 -0.04900
C 	C 	0.76800 0.90240 0.39580 -0.23100
C 	C 	0.77550 0.85470 0.40060 0.10400
H 	H 	0.78570 0.83890 0.34630 0.02000
C 	C 	0.73500 0.92630 0.65370 0.43800
O 	O 	0.74920 0.61050 0.43150 -0.54000
O 	O 	0.78140 0.61230 0.57670 -0.56300
O 	O 	0.74600 0.91090 0.73320 -0.49100
O 	O 	0.71400 0.96570 0.65130 -0.54000
O 	O 	0.77310 0.97060 0.30300 -0.56000
O 	O 	0.79060 0.90580 0.23080 -0.48000
O 	O 	0.74000 0.68540 0.32840 -0.48700
H 	H 	0.73970 0.65750 0.33680 0.30800
Tb	Tb	0.70515 0.54455 0.40476 1.98200
C 	C 	0.38220 0.98290 0.25390 0.56200
C 	C 	0.67770 0.97350 0.05480 0.47300
C 	C 	0.43310 0.98000 0.24460 -0.37300
C 	C 	0.45820 0.96510 0.32310 0.24600
H 	H 	0.44270 0.95590 0.37860 -0.04900
C 	C 	0.50680 0.96340 0.32180 -0.30700
H 	H 	0.52330 0.95160 0.37360 0.14000
C 	C 	0.52910 0.98030 0.23980 0.25900
C 	C 	0.50440 0.99340 0.16070 -0.39200
H 	H 	0.52000 0.00230 0.10520 0.20100
C 	C 	0.45690 0.99360 0.16070 0.41200
C 	C 	0.58080 0.98220 0.23720 -0.15100
C 	C 	0.60450 0.99520 0.31820 0.10300
H 	H 	0.58890 0.99940 0.37620 0.00200
C 	C 	0.65270 0.00210 0.31390 -0.22100
C 	C 	0.67440 0.99590 0.22790 0.18100
H 	H 	0.70580 0.00140 0.22490 -0.04700
C 	C 	0.65240 0.98200 0.14580 -0.22900
C 	C 	0.60470 0.97450 0.15060 0.10200
H 	H 	0.58890 0.96430 0.09630 0.02000
C 	C 	0.67630 0.01500 0.40370 0.43700
O 	O 	0.36050 0.00080 0.18150 -0.54000
O 	O 	0.36230 0.96860 0.32670 -0.56300
O 	O 	0.66090 0.00400 0.48320 -0.49100
O 	O 	0.71570 0.03600 0.40130 -0.54000
O 	O 	0.72060 0.97690 0.05300 -0.55900
O 	O 	0.65580 0.95940 0.98080 -0.47900
O 	O 	0.43540 0.01000 0.07840 -0.48700
H 	H 	0.40750 0.01030 0.08680 0.30800
Tb	Tb	0.29455 0.04485 0.15476 1.98300
C 	C 	0.88220 0.48290 0.75390 0.56200
C 	C 	0.17770 0.47350 0.55480 0.47500
C 	C 	0.93310 0.48000 0.74460 -0.37300
C 	C 	0.95820 0.46510 0.82310 0.24700
H 	H 	0.94270 0.45590 0.87860 -0.05000
C 	C 	0.00680 0.46340 0.82180 -0.30700
H 	H 	0.02330 0.45160 0.87360 0.14000
C 	C 	0.02910 0.48030 0.73980 0.25900
C 	C 	0.00440 0.49340 0.66070 -0.39100
H 	H 	0.02000 0.50230 0.60520 0.20000
C 	C 	0.95690 0.49360 0.66070 0.41300
C 	C 	0.08080 0.48220 0.73720 -0.15200
C 	C 	0.10450 0.49520 0.81820 0.10500
H 	H 	0.08890 0.49940 0.87620 0.00100
C 	C 	0.15270 0.50210 0.81390 -0.22500
C 	C 	0.17440 0.49590 0.72790 0.18500
H 	H 	0.20580 0.50140 0.72490 -0.04900
C 	C 	0.15240 0.48200 0.64580 -0.23100
C 	C 	0.10470 0.47450 0.65060 0.10400
H 	H 	0.08890 0.46430 0.59630 0.02000
C 	C 	0.17630 0.51500 0.90370 0.43800
O 	O 	0.86050 0.50080 0.68150 -0.54000
O 	O 	0.86230 0.46860 0.82670 -0.56400
O 	O 	0.16090 0.50400 0.98320 -0.49100
O 	O 	0.21570 0.53600 0.90130 -0.54000
O 	O 	0.22060 0.47690 0.55300 -0.56000
O 	O 	0.15580 0.45940 0.48080 -0.48000
O 	O 	0.93540 0.51000 0.57840 -0.48700
H 	H 	0.90750 0.51030 0.58680 0.30800
Tb	Tb	0.79455 0.54485 0.65476 1.98200
C 	C 	0.11780 0.01710 0.75390 0.56000
C 	C 	0.82230 0.02650 0.55480 0.47500
C 	C 	0.06690 0.02000 0.74460 -0.37100
C 	C 	0.04180 0.03490 0.82310 0.24400
H 	H 	0.05730 0.04410 0.87860 -0.04900
C 	C 	0.99320 0.03660 0.82180 -0.30400
H 	H 	0.97670 0.04840 0.87360 0.13900
C 	C 	0.97090 0.01970 0.73980 0.25700
C 	C 	0.99560 0.00660 0.66070 -0.38700
H 	H 	0.98000 0.99770 0.60520 0.19800
C 	C 	0.04310 0.00640 0.66070 0.41000
C 	C 	0.91920 0.01780 0.73720 -0.15000
C 	C 	0.89550 0.00480 0.81820 0.10400
H 	H 	0.91110 0.00060 0.87620 0.00100
C 	C 	0.84730 0.99790 0.81390 -0.22400
C 	C 	0.82560 0.00410 0.72790 0.18400
H 	H 	0.79420 0.99860 0.72490 -0.04900
C 	C 	0.84760 0.01800 0.64580 -0.23000
C 	C 	0.89530 0.02550 0.65060 0.10300
H 	H 	0.91110 0.03570 0.59630 0.02000
C 	C 	0.82370 0.98500 0.90370 0.43700
O 	O 	0.13950 0.99920 0.68150 -0.53900
O 	O 	0.13770 0.03140 0.82670 -0.56300
O 	O 	0.83910 0.99600 0.98320 -0.49100
O 	O 	0.78430 0.96400 0.90130 -0.54000
O 	O 	0.77940 0.02310 0.55300 -0.55900
O 	O 	0.84420 0.04060 0.48080 -0.48000
O 	O 	0.06460 0.99000 0.57840 -0.48600
H 	H 	0.09250 0.98970 0.58680 0.30800
Tb	Tb	0.20545 0.95515 0.65476 1.98300
C 	C 	0.61780 0.51710 0.25390 0.56200
C 	C 	0.32230 0.52650 0.05480 0.47500
C 	C 	0.56690 0.52000 0.24460 -0.37300
C 	C 	0.54180 0.53490 0.32310 0.24600
H 	H 	0.55730 0.54410 0.37860 -0.04900
C 	C 	0.49320 0.53660 0.32180 -0.30700
H 	H 	0.47670 0.54840 0.37360 0.14000
C 	C 	0.47090 0.51970 0.23980 0.25900
C 	C 	0.49560 0.50660 0.16070 -0.39100
H 	H 	0.48000 0.49770 0.10520 0.20000
C 	C 	0.54310 0.50640 0.16070 0.41300
C 	C 	0.41920 0.51780 0.23720 -0.15200
C 	C 	0.39550 0.50480 0.31820 0.10500
H 	H 	0.41110 0.50060 0.37620 0.00100
C 	C 	0.34730 0.49790 0.31390 -0.22400
C 	C 	0.32560 0.50410 0.22790 0.18500
H 	H 	0.29420 0.49860 0.22490 -0.04900
C 	C 	0.34760 0.51800 0.14580 -0.23100
C 	C 	0.39530 0.52550 0.15060 0.10400
H 	H 	0.41110 0.53570 0.09630 0.02000
C 	C 	0.32370 0.48500 0.40370 0.43800
O 	O 	0.63950 0.49920 0.18150 -0.54000
O 	O 	0.63770 0.53140 0.32670 -0.56300
O 	O 	0.33910 0.49600 0.48320 -0.49100
O 	O 	0.28430 0.46400 0.40130 -0.54000
O 	O 	0.27940 0.52310 0.05300 -0.56000
O 	O 	0.34420 0.54060 0.98080 -0.48000
O 	O 	0.56460 0.49000 0.07840 -0.48700
H 	H 	0.59250 0.48970 0.08680 0.30800
Tb	Tb	0.70545 0.45515 0.15476 1.98200
