data_crystal

_cell_length_a 10.90110
_cell_length_b 28.83670
_cell_length_c 23.36410
_cell_angle_alpha 90.00000
_cell_angle_beta  102.50000
_cell_angle_gamma 90.00000

_symmetry_space_group_name_	'P 1'
_symmetry_space_group_name_H-M	'P 1'

loop_
_symmetry_equiv_pos_as_xyz
  x,y,z

loop_
_atom_site_label
_atom_site_type_symbol
_atom_site_fract_x
_atom_site_fract_y
_atom_site_fract_z
_atom_site_charge
C 	C 	0.99870 0.85518 0.04951 0.37600
C 	C 	0.09020 0.81638 0.06725 -0.12700
C 	C 	0.04590 0.77143 0.06744 0.06800
H 	H 	0.95810 0.76540 0.05770 0.02500
C 	C 	0.13080 0.73523 0.08197 -0.13700
C 	C 	0.08280 0.68661 0.08236 0.40600
C 	C 	0.25840 0.74377 0.09550 0.05700
C 	C 	0.21770 0.82583 0.08120 0.04700
C 	C 	0.30040 0.79070 0.10260 0.04800
C 	C 	0.47290 0.84500 0.13010 -0.06600
C 	C 	0.61170 0.83990 0.16030 -0.00200
C 	C 	0.69540 0.81170 0.12600 -0.06200
C 	C 	0.83390 0.81300 0.16320 0.06000
C 	C 	0.21420 0.54177 0.99042 0.35800
C 	C 	0.31500 0.53114 0.95809 -0.05200
C 	C 	0.42850 0.55525 0.97248 -0.00200
H 	H 	0.43890 0.57970 0.00040 0.06300
C 	C 	0.52580 0.54330 0.94577 -0.05100
C 	C 	0.65270 0.56590 0.96410 0.37400
C 	C 	0.51110 0.50739 0.90458 -0.10100
H 	H 	0.57770 0.49960 0.88600 0.08100
C 	C 	0.39830 0.48337 0.89119 0.16100
C 	C 	0.30000 0.49559 0.91702 -0.09900
H 	H 	0.22210 0.47960 0.90660 0.07400
C 	C 	0.47370 0.43415 0.82280 0.00600
H 	H 	0.55530 0.43000 0.85080 0.03900
H 	H 	0.48280 0.45950 0.79540 0.04000
C 	C 	0.43610 0.38960 0.78900 -0.00300
C 	C 	0.46850 0.34820 0.82230 -0.00400
C 	C 	0.43060 0.30390 0.78510 0.00100
C 	C 	0.16130 0.51598 0.15233 0.35000
C 	C 	0.22600 0.48868 0.20390 -0.06300
C 	C 	0.30970 0.51107 0.24860 -0.00200
H 	H 	0.32690 0.54320 0.24540 0.05500
C 	C 	0.36810 0.48623 0.29800 -0.06300
C 	C 	0.45630 0.51156 0.34556 0.36200
C 	C 	0.34020 0.43970 0.30398 -0.09600
H 	H 	0.37920 0.42310 0.33820 0.09300
C 	C 	0.25430 0.41759 0.25930 0.16800
C 	C 	0.19820 0.44149 0.20850 -0.10200
H 	H 	0.14210 0.42610 0.17760 0.08000
C 	C 	0.13580 0.34790 0.22640 0.00600
C 	C 	0.13950 0.29690 0.24540 -0.02000
C 	C 	0.27680 0.27640 0.24430 0.00700
C 	C 	0.28130 0.22500 0.24850 -0.00800
C 	C 	0.48680 0.68432 0.40226 0.39800
C 	C 	0.53500 0.73260 0.40010 -0.12600
C 	C 	0.47010 0.77013 0.41681 0.05700
H 	H 	0.39320 0.76520 0.42880 0.02800
C 	C 	0.51770 0.81466 0.41598 -0.11900
C 	C 	0.45020 0.85490 0.43544 0.36900
C 	C 	0.71100 0.78540 0.39980 0.04400
C 	C 	0.66230 0.74050 0.39750 0.03900
C 	C 	0.64000 0.82340 0.40900 -0.00000
C 	C 	0.87490 0.83260 0.37490 0.00600
C 	C 	0.98190 0.82310 0.33980 -0.00500
C 	C 	0.04830 0.86980 0.33380 0.00800
C 	C 	0.97380 0.90360 0.29410 -0.00300
C 	C 	0.71190 0.54339 0.50300 0.36700
C 	C 	0.84190 0.53653 0.53753 -0.05800
C 	C 	0.94160 0.55711 0.51818 -0.00100
H 	H 	0.92570 0.57710 0.48510 0.05900
C 	C 	0.06380 0.54819 0.54758 -0.05100
C 	C 	0.17290 0.56830 0.52615 0.37000
C 	C 	0.08870 0.51824 0.59531 -0.10700
H 	H 	0.17290 0.51170 0.61460 0.08300
C 	C 	0.98930 0.49791 0.61456 0.16700
C 	C 	0.86600 0.50777 0.58637 -0.09800
H 	H 	0.79820 0.49480 0.60060 0.07900
C 	C 	0.12800 0.45874 0.69470 0.05100
H 	H 	0.18670 0.45240 0.66870 0.01800
H 	H 	0.12750 0.43140 0.72020 0.02400
C 	C 	0.17370 0.50210 0.73320 -0.12700
H 	H 	0.25950 0.49600 0.75650 0.07600
H 	H 	0.17870 0.52880 0.70720 0.07700
C 	C 	0.08990 0.51490 0.77450 -0.10300
H 	H 	0.09210 0.48970 0.80340 0.06700
H 	H 	0.00240 0.51790 0.75180 0.07900
C 	C 	0.12890 0.56010 0.80700 0.01500
O 	O 	0.88790 0.84458 0.02541 -0.45000
O 	O 	0.94570 0.57694 0.04133 -0.62300
O 	O 	0.04180 0.89559 0.05985 -0.43800
O 	O 	0.39180 0.57575 0.44888 -0.61100
O 	O 	0.96780 0.68045 0.07685 -0.47600
O 	O 	0.16380 0.65498 0.08842 -0.46200
O 	O 	0.42930 0.79663 0.11860 -0.09100
O 	O 	0.11260 0.51850 0.97999 -0.49200
O 	O 	0.23730 0.57377 0.02778 -0.45000
O 	O 	0.73670 0.55082 0.93941 -0.44000
O 	O 	0.66620 0.59643 0.00317 -0.44700
O 	O 	0.37740 0.44566 0.85407 -0.22700
O 	O 	0.08870 0.49727 0.10992 -0.45000
O 	O 	0.18090 0.55963 0.15410 -0.43700
O 	O 	0.50170 0.49249 0.39286 -0.45900
O 	O 	0.47860 0.55395 0.33588 -0.44400
O 	O 	0.22420 0.37204 0.27170 -0.09600
O 	O 	0.56520 0.65203 0.40110 -0.45400
O 	O 	0.37490 0.67836 0.40466 -0.46900
O 	O 	0.35970 0.84565 0.45862 -0.44800
O 	O 	0.48970 0.89504 0.42785 -0.43400
O 	O 	0.83510 0.78810 0.39470 -0.11100
O 	O 	0.69730 0.57295 0.46243 -0.45200
O 	O 	0.62311 0.51944 0.51530 -0.51400
O 	O 	0.14880 0.59680 0.48434 -0.44800
O 	O 	0.27960 0.55401 0.55169 -0.43300
O 	O 	0.00260 0.46638 0.65947 -0.23400
Co	Co	0.94856 0.95412 0.03156 1.19000
Co	Co	0.12191 0.58997 0.07750 1.17400
Co	Co	0.82505 0.63339 0.03792 1.13300
Co	Co	0.92513 0.54626 0.96048 1.18200
Co	Co	0.53455 0.58602 0.41096 1.17300
Co	Co	0.27489 0.63280 0.44847 1.13600
C 	C 	0.30320 0.78620 0.08140 0.02200
C 	C 	0.48820 0.83600 0.10060 0.15000
C 	C 	0.64300 0.82870 0.10920 0.01500
C 	C 	0.67700 0.79550 0.15820 0.05500
C 	C 	0.82350 0.78640 0.16860 -0.05700
C 	C 	0.53550 0.35990 0.78000 -0.00400
C 	C 	0.49100 0.31170 0.75160 0.00400
C 	C 	0.17830 0.34510 0.21160 0.07200
C 	C 	0.17000 0.29330 0.23530 0.02700
C 	C 	0.62110 0.82140 0.38740 0.02900
C 	C 	0.63460 0.73910 0.37060 0.00600
C 	C 	0.84970 0.83280 0.34830 0.08100
C 	C 	0.68290 0.78400 0.36990 0.04400
O 	O 	0.43170 0.78990 0.08850 -0.12300
O 	O 	0.26990 0.36870 0.25650 -0.12400
O 	O 	0.79270 0.78698 0.35070 -0.12800
C 	C 	0.50130 0.35518 0.45049 0.37800
C 	C 	0.40980 0.31638 0.43275 -0.12600
C 	C 	0.45410 0.27143 0.43256 0.06800
H 	H 	0.54190 0.26540 0.44230 0.02600
C 	C 	0.36920 0.23523 0.41803 -0.13500
C 	C 	0.41720 0.18661 0.41764 0.40700
C 	C 	0.24160 0.24377 0.40450 0.05700
C 	C 	0.28230 0.32583 0.41880 0.04700
C 	C 	0.19960 0.29070 0.39740 0.04800
C 	C 	0.02710 0.34500 0.36990 -0.06600
C 	C 	0.88830 0.33990 0.33970 -0.00200
C 	C 	0.80460 0.31170 0.37400 -0.06200
C 	C 	0.66610 0.31300 0.33680 0.06000
C 	C 	0.28580 0.04177 0.50958 0.35800
C 	C 	0.18500 0.03114 0.54191 -0.05300
C 	C 	0.07150 0.05525 0.52752 -0.00200
H 	H 	0.06110 0.07970 0.49960 0.06300
C 	C 	0.97420 0.04330 0.55423 -0.05100
C 	C 	0.84730 0.06590 0.53590 0.37400
C 	C 	0.98890 0.00739 0.59542 -0.10000
H 	H 	0.92230 0.99960 0.61400 0.08000
C 	C 	0.10170 0.98337 0.60881 0.16100
C 	C 	0.20000 0.99559 0.58298 -0.09900
H 	H 	0.27790 0.97960 0.59340 0.07400
C 	C 	0.02630 0.93415 0.67720 0.00600
H 	H 	0.94470 0.93000 0.64920 0.03900
H 	H 	0.01720 0.95950 0.70460 0.04000
C 	C 	0.06390 0.88960 0.71100 -0.00300
C 	C 	0.03150 0.84820 0.67770 -0.00300
C 	C 	0.06940 0.80390 0.71490 0.00100
C 	C 	0.33870 0.01598 0.34767 0.34900
C 	C 	0.27400 0.98868 0.29610 -0.06100
C 	C 	0.19030 0.01107 0.25140 -0.00500
H 	H 	0.17310 0.04320 0.25460 0.05600
C 	C 	0.13190 0.98623 0.20200 -0.06100
C 	C 	0.04370 0.01156 0.15444 0.36000
C 	C 	0.15980 0.93970 0.19602 -0.09800
H 	H 	0.12080 0.92310 0.16180 0.09400
C 	C 	0.24570 0.91759 0.24070 0.16900
C 	C 	0.30180 0.94149 0.29150 -0.10300
H 	H 	0.35790 0.92610 0.32240 0.08100
C 	C 	0.36420 0.84790 0.27360 0.00600
C 	C 	0.36050 0.79690 0.25460 -0.02000
C 	C 	0.22320 0.77640 0.25570 0.00700
C 	C 	0.21870 0.72500 0.25150 -0.00800
C 	C 	0.01320 0.18432 0.09774 0.39700
C 	C 	0.96500 0.23260 0.09990 -0.12500
C 	C 	0.02990 0.27013 0.08319 0.05700
H 	H 	0.10680 0.26520 0.07120 0.02800
C 	C 	0.98230 0.31466 0.08402 -0.11800
C 	C 	0.04980 0.35490 0.06456 0.36900
C 	C 	0.78900 0.28540 0.10020 0.04400
C 	C 	0.83770 0.24050 0.10250 0.03900
C 	C 	0.86000 0.32340 0.09100 -0.00100
C 	C 	0.62510 0.33260 0.12510 0.00500
C 	C 	0.51810 0.32310 0.16020 -0.00500
C 	C 	0.45170 0.36980 0.16620 0.00800
C 	C 	0.52620 0.40360 0.20590 -0.00300
C 	C 	0.78810 0.04339 0.99700 0.36900
C 	C 	0.65810 0.03653 0.96247 -0.06000
C 	C 	0.55840 0.05711 0.98182 0.00200
H 	H 	0.57430 0.07710 0.01490 0.05800
C 	C 	0.43620 0.04819 0.95242 -0.05300
C 	C 	0.32710 0.06830 0.97385 0.37100
C 	C 	0.41130 0.01824 0.90469 -0.10400
H 	H 	0.32710 0.01170 0.88540 0.08200
C 	C 	0.51070 0.99791 0.88544 0.16500
C 	C 	0.63400 0.00777 0.91363 -0.09500
H 	H 	0.70180 0.99480 0.89940 0.07800
C 	C 	0.37200 0.95874 0.80530 0.05100
H 	H 	0.31330 0.95240 0.83130 0.01800
H 	H 	0.37250 0.93140 0.77980 0.02400
C 	C 	0.32630 0.00210 0.76680 -0.12700
H 	H 	0.24050 0.99600 0.74350 0.07600
H 	H 	0.32130 0.02880 0.79280 0.07700
C 	C 	0.41010 0.01490 0.72550 -0.10300
H 	H 	0.40790 0.98970 0.69660 0.06700
H 	H 	0.49760 0.01790 0.74820 0.07900
C 	C 	0.37110 0.06010 0.69300 0.01500
O 	O 	0.61210 0.34458 0.47459 -0.45000
O 	O 	0.55430 0.07694 0.45867 -0.62300
O 	O 	0.45820 0.39559 0.44015 -0.43900
O 	O 	0.10820 0.07575 0.05112 -0.61100
O 	O 	0.53220 0.18045 0.42315 -0.47600
O 	O 	0.33620 0.15498 0.41158 -0.46200
O 	O 	0.07070 0.29663 0.38140 -0.09100
O 	O 	0.38740 0.01850 0.52001 -0.49200
O 	O 	0.26270 0.07377 0.47222 -0.45000
O 	O 	0.76330 0.05082 0.56059 -0.44000
O 	O 	0.83380 0.09643 0.49683 -0.44800
O 	O 	0.12260 0.94566 0.64593 -0.22700
O 	O 	0.41130 0.99727 0.39008 -0.44900
O 	O 	0.31910 0.05963 0.34590 -0.43700
O 	O 	0.99830 0.99249 0.10714 -0.45800
O 	O 	0.02140 0.05395 0.16412 -0.44400
O 	O 	0.27580 0.87204 0.22830 -0.09600
O 	O 	0.93480 0.15203 0.09890 -0.45400
O 	O 	0.12510 0.17836 0.09534 -0.46900
O 	O 	0.14030 0.34565 0.04138 -0.44800
O 	O 	0.01030 0.39504 0.07215 -0.43400
O 	O 	0.66490 0.28810 0.10530 -0.11100
O 	O 	0.80270 0.07295 0.03757 -0.45200
O 	O 	0.87689 0.01944 0.98470 -0.51400
O 	O 	0.35120 0.09680 0.01566 -0.44900
O 	O 	0.22040 0.05401 0.94831 -0.43400
O 	O 	0.49740 0.96638 0.84053 -0.23400
Co	Co	0.55144 0.45412 0.46844 1.19000
Co	Co	0.37809 0.08997 0.42250 1.17400
Co	Co	0.67495 0.13339 0.46208 1.13300
Co	Co	0.57487 0.04626 0.53952 1.18200
Co	Co	0.96545 0.08602 0.08904 1.17400
Co	Co	0.22511 0.13280 0.05153 1.13600
C 	C 	0.19680 0.28620 0.41860 0.02200
C 	C 	0.01180 0.33600 0.39940 0.15000
C 	C 	0.85700 0.32870 0.39080 0.01500
C 	C 	0.82300 0.29550 0.34180 0.05500
C 	C 	0.67650 0.28640 0.33140 -0.05700
C 	C 	0.96450 0.85990 0.72000 -0.00400
C 	C 	0.00900 0.81170 0.74840 0.00400
C 	C 	0.32170 0.84510 0.28840 0.07200
C 	C 	0.33000 0.79330 0.26470 0.02700
C 	C 	0.87890 0.32140 0.11260 0.02900
C 	C 	0.86540 0.23910 0.12940 0.00600
C 	C 	0.65030 0.33280 0.15170 0.08100
C 	C 	0.81710 0.28400 0.13010 0.04400
O 	O 	0.06830 0.28990 0.41150 -0.12300
O 	O 	0.23010 0.86870 0.24350 -0.12400
O 	O 	0.70730 0.28698 0.14930 -0.12800
C 	C 	0.00130 0.14482 0.95049 0.37700
C 	C 	0.90980 0.18362 0.93275 -0.12600
C 	C 	0.95410 0.22857 0.93256 0.06900
H 	H 	0.04190 0.23460 0.94230 0.02600
C 	C 	0.86920 0.26477 0.91803 -0.13600
C 	C 	0.91720 0.31339 0.91764 0.40700
C 	C 	0.74160 0.25623 0.90450 0.05700
C 	C 	0.78230 0.17417 0.91880 0.04700
C 	C 	0.69960 0.20930 0.89740 0.04800
C 	C 	0.52710 0.15500 0.86990 -0.06600
C 	C 	0.38830 0.16010 0.83970 -0.00200
C 	C 	0.30460 0.18830 0.87400 -0.06200
C 	C 	0.16610 0.18700 0.83680 0.06000
C 	C 	0.78580 0.45823 0.00958 0.35800
C 	C 	0.68500 0.46886 0.04191 -0.05200
C 	C 	0.57150 0.44475 0.02752 -0.00200
H 	H 	0.56110 0.42030 0.99960 0.06300
C 	C 	0.47420 0.45670 0.05423 -0.05100
C 	C 	0.34730 0.43410 0.03590 0.37400
C 	C 	0.48890 0.49261 0.09542 -0.10100
H 	H 	0.42230 0.50040 0.11400 0.08100
C 	C 	0.60170 0.51663 0.10881 0.16100
C 	C 	0.70000 0.50441 0.08298 -0.09900
H 	H 	0.77790 0.52040 0.09340 0.07400
C 	C 	0.52630 0.56585 0.17720 0.00600
H 	H 	0.44470 0.57000 0.14920 0.03900
H 	H 	0.51720 0.54050 0.20460 0.04000
C 	C 	0.56390 0.61040 0.21100 -0.00300
C 	C 	0.53150 0.65180 0.17770 -0.00400
C 	C 	0.56940 0.69610 0.21490 0.00100
C 	C 	0.83870 0.48402 0.84767 0.35000
C 	C 	0.77400 0.51132 0.79610 -0.06300
C 	C 	0.69030 0.48893 0.75140 -0.00200
H 	H 	0.67310 0.45680 0.75460 0.05500
C 	C 	0.63190 0.51377 0.70200 -0.06300
C 	C 	0.54370 0.48844 0.65444 0.36200
C 	C 	0.65980 0.56030 0.69602 -0.09600
H 	H 	0.62080 0.57690 0.66180 0.09300
C 	C 	0.74570 0.58241 0.74070 0.16800
C 	C 	0.80180 0.55851 0.79150 -0.10200
H 	H 	0.85790 0.57390 0.82240 0.08000
C 	C 	0.86420 0.65210 0.77360 0.00600
C 	C 	0.86050 0.70310 0.75460 -0.02000
C 	C 	0.72320 0.72360 0.75570 0.00700
C 	C 	0.71870 0.77500 0.75150 -0.00800
C 	C 	0.51320 0.31568 0.59774 0.39800
C 	C 	0.46500 0.26740 0.59990 -0.12600
C 	C 	0.52990 0.22987 0.58319 0.05700
H 	H 	0.60680 0.23480 0.57120 0.02800
C 	C 	0.48230 0.18534 0.58402 -0.11900
C 	C 	0.54980 0.14510 0.56456 0.36900
C 	C 	0.28900 0.21460 0.60020 0.04400
C 	C 	0.33770 0.25950 0.60250 0.03900
C 	C 	0.36000 0.17660 0.59100 -0.00000
C 	C 	0.12510 0.16740 0.62510 0.00600
C 	C 	0.01810 0.17690 0.66020 -0.00500
C 	C 	0.95170 0.13020 0.66620 0.00800
C 	C 	0.02620 0.09640 0.70590 -0.00300
C 	C 	0.28810 0.45661 0.49700 0.36700
C 	C 	0.15810 0.46347 0.46247 -0.05800
C 	C 	0.05840 0.44289 0.48182 -0.00100
H 	H 	0.07430 0.42290 0.51490 0.05900
C 	C 	0.93620 0.45181 0.45242 -0.05100
C 	C 	0.82710 0.43170 0.47385 0.37000
C 	C 	0.91130 0.48176 0.40469 -0.10700
H 	H 	0.82710 0.48830 0.38540 0.08300
C 	C 	0.01070 0.50209 0.38544 0.16700
C 	C 	0.13400 0.49223 0.41363 -0.09800
H 	H 	0.20180 0.50520 0.39940 0.07900
C 	C 	0.87200 0.54126 0.30530 0.05100
H 	H 	0.81330 0.54760 0.33130 0.01800
H 	H 	0.87250 0.56860 0.27980 0.02400
C 	C 	0.82630 0.49790 0.26680 -0.12700
H 	H 	0.74050 0.50400 0.24350 0.07600
H 	H 	0.82130 0.47120 0.29280 0.07700
C 	C 	0.91010 0.48510 0.22550 -0.10300
H 	H 	0.90790 0.51030 0.19660 0.06700
H 	H 	0.99760 0.48210 0.24820 0.07900
C 	C 	0.87110 0.43990 0.19300 0.01500
O 	O 	0.11210 0.15542 0.97459 -0.45000
O 	O 	0.05430 0.42306 0.95867 -0.62300
O 	O 	0.95820 0.10441 0.94015 -0.43800
O 	O 	0.60820 0.42425 0.55112 -0.61100
O 	O 	0.03220 0.31955 0.92315 -0.47600
O 	O 	0.83620 0.34502 0.91158 -0.46200
O 	O 	0.57070 0.20337 0.88140 -0.09100
O 	O 	0.88740 0.48150 0.02001 -0.49200
O 	O 	0.76270 0.42623 0.97222 -0.45000
O 	O 	0.26330 0.44918 0.06059 -0.44000
O 	O 	0.33380 0.40357 0.99683 -0.44700
O 	O 	0.62260 0.55434 0.14593 -0.22700
O 	O 	0.91130 0.50273 0.89008 -0.45000
O 	O 	0.81910 0.44037 0.84590 -0.43700
O 	O 	0.49830 0.50751 0.60714 -0.45900
O 	O 	0.52140 0.44605 0.66412 -0.44400
O 	O 	0.77580 0.62796 0.72830 -0.09600
O 	O 	0.43480 0.34797 0.59890 -0.45400
O 	O 	0.62510 0.32164 0.59534 -0.46900
O 	O 	0.64030 0.15435 0.54138 -0.44800
O 	O 	0.51030 0.10496 0.57215 -0.43400
O 	O 	0.16490 0.21190 0.60530 -0.11100
O 	O 	0.30270 0.42705 0.53757 -0.45200
O 	O 	0.37689 0.48056 0.48470 -0.51400
O 	O 	0.85120 0.40320 0.51566 -0.44800
O 	O 	0.72040 0.44599 0.44831 -0.43300
O 	O 	0.99740 0.53362 0.34053 -0.23400
Co	Co	0.05144 0.04588 0.96844 1.19000
Co	Co	0.87809 0.41003 0.92250 1.17400
Co	Co	0.17495 0.36661 0.96208 1.13300
Co	Co	0.07487 0.45374 0.03952 1.18200
Co	Co	0.46545 0.41398 0.58904 1.17300
Co	Co	0.72511 0.36720 0.55153 1.13600
C 	C 	0.69680 0.21380 0.91860 0.02200
C 	C 	0.51180 0.16400 0.89940 0.15000
C 	C 	0.35700 0.17130 0.89080 0.01500
C 	C 	0.32300 0.20450 0.84180 0.05500
C 	C 	0.17650 0.21360 0.83140 -0.05700
C 	C 	0.46450 0.64010 0.22000 -0.00400
C 	C 	0.50900 0.68830 0.24840 0.00400
C 	C 	0.82170 0.65490 0.78840 0.07200
C 	C 	0.83000 0.70670 0.76470 0.02700
C 	C 	0.37890 0.17860 0.61260 0.02900
C 	C 	0.36540 0.26090 0.62940 0.00600
C 	C 	0.15030 0.16720 0.65170 0.08100
C 	C 	0.31710 0.21600 0.63010 0.04400
O 	O 	0.56830 0.21010 0.91150 -0.12300
O 	O 	0.73010 0.63130 0.74350 -0.12400
O 	O 	0.20730 0.21302 0.64930 -0.12800
C 	C 	0.49870 0.64482 0.54951 0.37800
C 	C 	0.59020 0.68362 0.56725 -0.12600
C 	C 	0.54590 0.72857 0.56744 0.06800
H 	H 	0.45810 0.73460 0.55770 0.02600
C 	C 	0.63080 0.76477 0.58197 -0.13500
C 	C 	0.58280 0.81339 0.58236 0.40700
C 	C 	0.75840 0.75623 0.59550 0.05700
C 	C 	0.71770 0.67417 0.58120 0.04700
C 	C 	0.80040 0.70930 0.60260 0.04800
C 	C 	0.97290 0.65500 0.63010 -0.06600
C 	C 	0.11170 0.66010 0.66030 -0.00200
C 	C 	0.19540 0.68830 0.62600 -0.06200
C 	C 	0.33390 0.68700 0.66320 0.06000
C 	C 	0.71420 0.95823 0.49042 0.35800
C 	C 	0.81500 0.96886 0.45809 -0.05300
C 	C 	0.92850 0.94475 0.47248 -0.00200
H 	H 	0.93890 0.92030 0.50040 0.06300
C 	C 	0.02580 0.95670 0.44577 -0.05100
C 	C 	0.15270 0.93410 0.46410 0.37400
C 	C 	0.01110 0.99261 0.40458 -0.10000
H 	H 	0.07770 0.00040 0.38600 0.08000
C 	C 	0.89830 0.01663 0.39119 0.16100
C 	C 	0.80000 0.00441 0.41702 -0.09900
H 	H 	0.72210 0.02040 0.40660 0.07400
C 	C 	0.97370 0.06585 0.32280 0.00600
H 	H 	0.05530 0.07000 0.35080 0.03900
H 	H 	0.98280 0.04050 0.29540 0.04000
C 	C 	0.93610 0.11040 0.28900 -0.00300
C 	C 	0.96850 0.15180 0.32230 -0.00300
C 	C 	0.93060 0.19610 0.28510 0.00100
C 	C 	0.66130 0.98402 0.65233 0.34900
C 	C 	0.72600 0.01132 0.70390 -0.06100
C 	C 	0.80970 0.98893 0.74860 -0.00500
H 	H 	0.82690 0.95680 0.74540 0.05600
C 	C 	0.86810 0.01377 0.79800 -0.06100
C 	C 	0.95630 0.98844 0.84556 0.36000
C 	C 	0.84020 0.06030 0.80398 -0.09800
H 	H 	0.87920 0.07690 0.83820 0.09400
C 	C 	0.75430 0.08241 0.75930 0.16900
C 	C 	0.69820 0.05851 0.70850 -0.10300
H 	H 	0.64210 0.07390 0.67760 0.08100
C 	C 	0.63580 0.15210 0.72640 0.00600
C 	C 	0.63950 0.20310 0.74540 -0.02000
C 	C 	0.77680 0.22360 0.74430 0.00700
C 	C 	0.78130 0.27500 0.74850 -0.00800
C 	C 	0.98680 0.81568 0.90226 0.39700
C 	C 	0.03500 0.76740 0.90010 -0.12500
C 	C 	0.97010 0.72987 0.91681 0.05700
H 	H 	0.89320 0.73480 0.92880 0.02800
C 	C 	0.01770 0.68534 0.91598 -0.11800
C 	C 	0.95020 0.64510 0.93544 0.36900
C 	C 	0.21100 0.71460 0.89980 0.04400
C 	C 	0.16230 0.75950 0.89750 0.03900
C 	C 	0.14000 0.67660 0.90900 -0.00100
C 	C 	0.37490 0.66740 0.87490 0.00500
C 	C 	0.48190 0.67690 0.83980 -0.00500
C 	C 	0.54830 0.63020 0.83380 0.00800
C 	C 	0.47380 0.59640 0.79410 -0.00300
C 	C 	0.21190 0.95661 0.00300 0.36900
C 	C 	0.34190 0.96347 0.03753 -0.06000
C 	C 	0.44160 0.94289 0.01818 0.00200
H 	H 	0.42570 0.92290 0.98510 0.05800
C 	C 	0.56380 0.95181 0.04758 -0.05300
C 	C 	0.67290 0.93170 0.02615 0.37100
C 	C 	0.58870 0.98176 0.09531 -0.10400
H 	H 	0.67290 0.98830 0.11460 0.08200
C 	C 	0.48930 0.00209 0.11456 0.16500
C 	C 	0.36600 0.99223 0.08637 -0.09500
H 	H 	0.29820 0.00520 0.10060 0.07800
C 	C 	0.62800 0.04126 0.19470 0.05100
H 	H 	0.68670 0.04760 0.16870 0.01800
H 	H 	0.62750 0.06860 0.22020 0.02400
C 	C 	0.67370 0.99790 0.23320 -0.12700
H 	H 	0.75950 0.00400 0.25650 0.07600
H 	H 	0.67870 0.97120 0.20720 0.07700
C 	C 	0.58990 0.98510 0.27450 -0.10300
H 	H 	0.59210 0.01030 0.30340 0.06700
H 	H 	0.50240 0.98210 0.25180 0.07900
C 	C 	0.62890 0.93990 0.30700 0.01500
O 	O 	0.38790 0.65542 0.52541 -0.45000
O 	O 	0.44570 0.92306 0.54133 -0.62300
O 	O 	0.54180 0.60441 0.55985 -0.43900
O 	O 	0.89180 0.92425 0.94888 -0.61100
O 	O 	0.46780 0.81955 0.57685 -0.47600
O 	O 	0.66380 0.84502 0.58842 -0.46200
O 	O 	0.92930 0.70337 0.61860 -0.09100
O 	O 	0.61260 0.98150 0.47999 -0.49200
O 	O 	0.73730 0.92623 0.52778 -0.45000
O 	O 	0.23670 0.94918 0.43941 -0.44000
O 	O 	0.16620 0.90357 0.50317 -0.44800
O 	O 	0.87740 0.05434 0.35407 -0.22700
O 	O 	0.58870 0.00273 0.60992 -0.44900
O 	O 	0.68090 0.94037 0.65410 -0.43700
O 	O 	0.00170 0.00751 0.89286 -0.45800
O 	O 	0.97860 0.94605 0.83588 -0.44400
O 	O 	0.72420 0.12796 0.77170 -0.09600
O 	O 	0.06520 0.84797 0.90110 -0.45400
O 	O 	0.87490 0.82164 0.90466 -0.46900
O 	O 	0.85970 0.65435 0.95862 -0.44800
O 	O 	0.98970 0.60496 0.92785 -0.43400
O 	O 	0.33510 0.71190 0.89470 -0.11100
O 	O 	0.19730 0.92705 0.96243 -0.45200
O 	O 	0.12311 0.98056 0.01530 -0.51400
O 	O 	0.64880 0.90320 0.98434 -0.44900
O 	O 	0.77960 0.94599 0.05169 -0.43400
O 	O 	0.50260 0.03362 0.15947 -0.23400
Co	Co	0.44856 0.54588 0.53156 1.19000
Co	Co	0.62191 0.91003 0.57750 1.17400
Co	Co	0.32505 0.86661 0.53792 1.13300
Co	Co	0.42513 0.95374 0.46048 1.18200
Co	Co	0.03455 0.91398 0.91096 1.17400
Co	Co	0.77489 0.86720 0.94847 1.13600
C 	C 	0.80320 0.71380 0.58140 0.02200
C 	C 	0.98820 0.66400 0.60060 0.15000
C 	C 	0.14300 0.67130 0.60920 0.01500
C 	C 	0.17700 0.70450 0.65820 0.05500
C 	C 	0.32350 0.71360 0.66860 -0.05700
C 	C 	0.03550 0.14010 0.28000 -0.00400
C 	C 	0.99100 0.18830 0.25160 0.00400
C 	C 	0.67830 0.15490 0.71160 0.07200
C 	C 	0.67000 0.20670 0.73530 0.02700
C 	C 	0.12110 0.67860 0.88740 0.02900
C 	C 	0.13460 0.76090 0.87060 0.00600
C 	C 	0.34970 0.66720 0.84830 0.08100
C 	C 	0.18290 0.71600 0.86990 0.04400
O 	O 	0.93170 0.71010 0.58850 -0.12300
O 	O 	0.76990 0.13130 0.75650 -0.12400
O 	O 	0.29270 0.71302 0.85070 -0.12800
