data_crystal

_cell_length_a 15.45560
_cell_length_b 18.38120
_cell_length_c 31.09010
_cell_angle_alpha 90.00000
_cell_angle_beta  90.00000
_cell_angle_gamma 90.00000

_symmetry_space_group_name_	'P 1'
_symmetry_space_group_name_H-M	'P 1'

loop_
_symmetry_equiv_pos_as_xyz
  x,y,z

loop_
_atom_site_label
_atom_site_type_symbol
_atom_site_fract_x
_atom_site_fract_y
_atom_site_fract_z
_atom_site_charge
C 	C 	0.68300 0.25757 0.18784 0.37900
C 	C 	0.74860 0.25823 0.22390 -0.08000
C 	C 	0.77980 0.19310 0.24084 -0.01900
H 	H 	0.75790 0.14910 0.23080 0.04900
C 	C 	0.84290 0.19323 0.27234 -0.01800
H 	H 	0.86310 0.14940 0.28330 0.05300
C 	C 	0.87622 0.25854 0.28771 -0.07400
C 	C 	0.84390 0.32353 0.27144 -0.01800
H 	H 	0.86490 0.36750 0.28190 0.05400
C 	C 	0.78070 0.32337 0.23988 -0.01600
H 	H 	0.75970 0.36730 0.22930 0.05000
C 	C 	0.94770 0.25880 0.32039 0.38200
C 	C 	0.69760 0.25250 0.06930 0.38200
C 	C 	0.76620 0.25174 0.03516 -0.07800
C 	C 	0.80270 0.31600 0.02098 -0.01400
H 	H 	0.78480 0.36000 0.03280 0.05300
C 	C 	0.86560 0.31537 0.98936 -0.01400
H 	H 	0.89000 0.35890 0.98020 0.05700
C 	C 	0.89260 0.25016 0.97124 -0.07200
C 	C 	0.85560 0.18569 0.98558 -0.01500
H 	H 	0.87320 0.14160 0.97380 0.05200
C 	C 	0.79300 0.18661 0.01716 -0.01600
H 	H 	0.76850 0.14310 0.02640 0.05400
C 	C 	0.96010 0.24936 0.93647 0.38000
C 	C 	0.59190 0.48620 0.15239 0.10100
H 	H 	0.60360 0.46410 0.17870 -0.01000
C 	C 	0.59090 0.56073 0.15048 -0.17100
H 	H 	0.60130 0.58810 0.17510 0.09400
C 	C 	0.57390 0.59558 0.11108 0.11900
C 	C 	0.55980 0.55142 0.07573 -0.17000
H 	H 	0.54880 0.57190 0.04890 0.10300
C 	C 	0.56220 0.47646 0.08059 0.10100
H 	H 	0.55320 0.44750 0.05650 -0.00500
C 	C 	0.57200 0.67570 0.10921 -0.04300
C 	C 	0.51620 0.71523 0.08122 0.05500
C 	C 	0.51480 0.79377 0.08200 0.05700
C 	C 	0.57100 0.83333 0.10969 -0.05000
C 	C 	0.62520 0.79256 0.13494 -0.03000
H 	H 	0.66360 0.81650 0.15310 0.04900
C 	C 	0.62510 0.71624 0.13466 -0.03600
H 	H 	0.66330 0.69210 0.15280 0.05200
C 	C 	0.57230 0.91334 0.11254 0.12900
C 	C 	0.64940 0.95130 0.11952 -0.18700
H 	H 	0.70170 0.92640 0.12060 0.10300
C 	C 	0.64750 0.02530 0.12473 0.12000
H 	H 	0.69950 0.04950 0.12920 -0.01400
C 	C 	0.50130 0.02874 0.11733 0.10800
H 	H 	0.45000 0.05520 0.11710 -0.01100
C 	C 	0.49710 0.95447 0.11110 -0.17700
H 	H 	0.44410 0.93210 0.10600 0.10600
N 	N 	0.57689 0.44389 0.11832 -0.25900
N 	N 	0.57518 0.06428 0.12372 -0.26500
N 	N 	0.46063 0.68690 0.05220 -0.11900
N 	N 	0.45811 0.82250 0.05369 -0.12000
O 	O 	0.65621 0.31784 0.17487 -0.46100
O 	O 	0.66241 0.19668 0.17289 -0.46400
O 	O 	0.97271 0.31909 0.33387 -0.45700
O 	O 	0.97839 0.19777 0.33034 -0.46000
O 	O 	0.67358 0.31319 0.08324 -0.46300
O 	O 	0.66778 0.19234 0.08122 -0.45900
O 	O 	0.98301 0.30988 0.92195 -0.45000
O 	O 	0.98962 0.18874 0.92560 -0.45400
S 	S 	0.41370 0.75477 0.02929 0.10500
Zn	Zn	0.57349 0.33355 0.12421 1.21200
Zn	Zn	0.57366 0.17462 0.12595 1.21300
C 	C 	0.18300 0.24243 0.81216 0.38000
C 	C 	0.24860 0.24177 0.77610 -0.07900
C 	C 	0.27980 0.30690 0.75916 -0.01800
H 	H 	0.25790 0.35090 0.76920 0.04900
C 	C 	0.34290 0.30677 0.72766 -0.01800
H 	H 	0.36310 0.35060 0.71670 0.05200
C 	C 	0.37622 0.24146 0.71229 -0.07400
C 	C 	0.34390 0.17647 0.72856 -0.01800
H 	H 	0.36490 0.13250 0.71810 0.05400
C 	C 	0.28070 0.17663 0.76012 -0.01600
H 	H 	0.25970 0.13270 0.77070 0.05000
C 	C 	0.44770 0.24120 0.67961 0.38200
C 	C 	0.19760 0.24750 0.93070 0.38300
C 	C 	0.26620 0.24826 0.96484 -0.07900
C 	C 	0.30270 0.18400 0.97902 -0.01200
H 	H 	0.28480 0.14000 0.96720 0.05200
C 	C 	0.36560 0.18463 0.01064 -0.01500
H 	H 	0.39000 0.14110 0.01980 0.05700
C 	C 	0.39260 0.24984 0.02876 -0.07100
C 	C 	0.35560 0.31431 0.01442 -0.01600
H 	H 	0.37320 0.35840 0.02620 0.05200
C 	C 	0.29300 0.31339 0.98284 -0.01500
H 	H 	0.26850 0.35690 0.97360 0.05300
C 	C 	0.46010 0.25064 0.06353 0.38000
C 	C 	0.09190 0.01380 0.84761 0.09200
H 	H 	0.10360 0.03590 0.82130 -0.00800
C 	C 	0.09090 0.93927 0.84952 -0.16000
H 	H 	0.10130 0.91190 0.82490 0.09100
C 	C 	0.07390 0.90442 0.88892 0.11300
C 	C 	0.05980 0.94858 0.92427 -0.15900
H 	H 	0.04880 0.92810 0.95110 0.10000
C 	C 	0.06220 0.02354 0.91941 0.09200
H 	H 	0.05320 0.05250 0.94350 -0.00400
C 	C 	0.07200 0.82430 0.89079 -0.04100
C 	C 	0.01620 0.78477 0.91878 0.05500
C 	C 	0.01480 0.70623 0.91800 0.05700
C 	C 	0.07100 0.66667 0.89031 -0.04900
C 	C 	0.12520 0.70744 0.86506 -0.03000
H 	H 	0.16360 0.68350 0.84690 0.04900
C 	C 	0.12510 0.78376 0.86534 -0.03800
H 	H 	0.16330 0.80790 0.84720 0.05300
C 	C 	0.07230 0.58666 0.88746 0.12600
C 	C 	0.14940 0.54870 0.88048 -0.18300
H 	H 	0.20170 0.57360 0.87940 0.10200
C 	C 	0.14750 0.47470 0.87527 0.11600
H 	H 	0.19950 0.45050 0.87080 -0.01300
C 	C 	0.00130 0.47126 0.88267 0.10300
H 	H 	0.95000 0.44480 0.88290 -0.00800
C 	C 	0.99710 0.54553 0.88890 -0.17200
H 	H 	0.94410 0.56790 0.89400 0.10400
N 	N 	0.07689 0.05611 0.88168 -0.25700
N 	N 	0.07518 0.43572 0.87628 -0.26300
N 	N 	0.96063 0.81310 0.94780 -0.12000
N 	N 	0.95811 0.67750 0.94631 -0.12000
O 	O 	0.15621 0.18216 0.82513 -0.46200
O 	O 	0.16241 0.30332 0.82711 -0.46400
O 	O 	0.47271 0.18091 0.66613 -0.45700
O 	O 	0.47839 0.30223 0.66966 -0.46100
O 	O 	0.17358 0.18681 0.91676 -0.46400
O 	O 	0.16778 0.30766 0.91878 -0.46000
O 	O 	0.48301 0.19012 0.07805 -0.45000
O 	O 	0.48962 0.31126 0.07440 -0.45600
S 	S 	0.91370 0.74523 0.97071 0.10400
Zn	Zn	0.07349 0.16645 0.87579 1.21100
Zn	Zn	0.07366 0.32538 0.87405 1.21200
C 	C 	0.18300 0.25757 0.31216 0.38000
C 	C 	0.24860 0.25823 0.27610 -0.07900
C 	C 	0.27980 0.19310 0.25916 -0.01800
H 	H 	0.25790 0.14910 0.26920 0.04900
C 	C 	0.34290 0.19323 0.22766 -0.01800
H 	H 	0.36310 0.14940 0.21670 0.05200
C 	C 	0.37622 0.25854 0.21229 -0.07400
C 	C 	0.34390 0.32353 0.22856 -0.01800
H 	H 	0.36490 0.36750 0.21810 0.05400
C 	C 	0.28070 0.32337 0.26012 -0.01600
H 	H 	0.25970 0.36730 0.27070 0.05000
C 	C 	0.44770 0.25880 0.17961 0.38200
C 	C 	0.19760 0.25250 0.43070 0.38300
C 	C 	0.26620 0.25174 0.46484 -0.08000
C 	C 	0.30270 0.31600 0.47902 -0.01100
H 	H 	0.28480 0.36000 0.46720 0.05200
C 	C 	0.36560 0.31537 0.51064 -0.01700
H 	H 	0.39000 0.35890 0.51980 0.05700
C 	C 	0.39260 0.25016 0.52876 -0.07000
C 	C 	0.35560 0.18569 0.51442 -0.01800
H 	H 	0.37320 0.14160 0.52620 0.05200
C 	C 	0.29300 0.18661 0.48284 -0.01300
H 	H 	0.26850 0.14310 0.47360 0.05200
C 	C 	0.46010 0.24936 0.56353 0.37900
C 	C 	0.09190 0.48620 0.34761 0.10100
H 	H 	0.10360 0.46410 0.32130 -0.01000
C 	C 	0.09090 0.56073 0.34952 -0.17100
H 	H 	0.10130 0.58810 0.32490 0.09400
C 	C 	0.07390 0.59558 0.38892 0.12000
C 	C 	0.05980 0.55142 0.42427 -0.17000
H 	H 	0.04880 0.57190 0.45110 0.10300
C 	C 	0.06220 0.47646 0.41941 0.10100
H 	H 	0.05320 0.44750 0.44350 -0.00600
C 	C 	0.07200 0.67570 0.39079 -0.04400
C 	C 	0.01620 0.71523 0.41878 0.05600
C 	C 	0.01480 0.79377 0.41800 0.05900
C 	C 	0.07100 0.83333 0.39031 -0.05000
C 	C 	0.12520 0.79256 0.36506 -0.02900
H 	H 	0.16360 0.81650 0.34690 0.04900
C 	C 	0.12510 0.71624 0.36534 -0.03600
H 	H 	0.16330 0.69210 0.34720 0.05200
C 	C 	0.07230 0.91334 0.38746 0.13000
C 	C 	0.14940 0.95130 0.38048 -0.18000
H 	H 	0.20170 0.92640 0.37940 0.10100
C 	C 	0.14750 0.02530 0.37527 0.11200
H 	H 	0.19950 0.04950 0.37080 -0.01200
C 	C 	0.00130 0.02874 0.38267 0.10100
H 	H 	0.95000 0.05520 0.38290 -0.00500
C 	C 	0.99710 0.95447 0.38890 -0.17800
H 	H 	0.94410 0.93210 0.39400 0.10500
N 	N 	0.07689 0.44389 0.38168 -0.25900
N 	N 	0.07518 0.06428 0.37628 -0.26300
N 	N 	0.96063 0.68690 0.44780 -0.12000
N 	N 	0.95811 0.82250 0.44631 -0.12200
O 	O 	0.15621 0.31784 0.32513 -0.46100
O 	O 	0.16241 0.19668 0.32711 -0.46400
O 	O 	0.47271 0.31909 0.16613 -0.45700
O 	O 	0.47839 0.19777 0.16966 -0.46100
O 	O 	0.17358 0.31319 0.41676 -0.46300
O 	O 	0.16778 0.19234 0.41878 -0.46000
O 	O 	0.48301 0.30988 0.57805 -0.45000
O 	O 	0.48962 0.18874 0.57440 -0.45600
S 	S 	0.91370 0.75477 0.47071 0.10300
Zn	Zn	0.07349 0.33355 0.37579 1.21200
Zn	Zn	0.07366 0.17462 0.37405 1.21200
C 	C 	0.68300 0.24243 0.68784 0.38000
C 	C 	0.74860 0.24177 0.72390 -0.07900
C 	C 	0.77980 0.30690 0.74084 -0.01800
H 	H 	0.75790 0.35090 0.73080 0.04900
C 	C 	0.84290 0.30677 0.77234 -0.01800
H 	H 	0.86310 0.35060 0.78330 0.05300
C 	C 	0.87622 0.24146 0.78771 -0.07400
C 	C 	0.84390 0.17647 0.77144 -0.01800
H 	H 	0.86490 0.13250 0.78190 0.05500
C 	C 	0.78070 0.17663 0.73988 -0.01600
H 	H 	0.75970 0.13270 0.72930 0.05000
C 	C 	0.94770 0.24120 0.82039 0.38200
C 	C 	0.69760 0.24750 0.56930 0.38300
C 	C 	0.76620 0.24826 0.53516 -0.08000
C 	C 	0.80270 0.18400 0.52098 -0.01100
H 	H 	0.78480 0.14000 0.53280 0.05200
C 	C 	0.86560 0.18463 0.48936 -0.01700
H 	H 	0.89000 0.14110 0.48020 0.05800
C 	C 	0.89260 0.24984 0.47124 -0.07000
C 	C 	0.85560 0.31431 0.48558 -0.01800
H 	H 	0.87320 0.35840 0.47380 0.05300
C 	C 	0.79300 0.31339 0.51716 -0.01300
H 	H 	0.76850 0.35690 0.52640 0.05200
C 	C 	0.96010 0.25064 0.43647 0.37900
C 	C 	0.59190 0.01380 0.65239 0.10300
H 	H 	0.60360 0.03590 0.67870 -0.01100
C 	C 	0.59090 0.93927 0.65048 -0.17300
H 	H 	0.60130 0.91190 0.67510 0.09500
C 	C 	0.57390 0.90442 0.61108 0.12100
C 	C 	0.55980 0.94858 0.57573 -0.17200
H 	H 	0.54880 0.92810 0.54890 0.10300
C 	C 	0.56220 0.02354 0.58059 0.10300
H 	H 	0.55320 0.05250 0.55650 -0.00600
C 	C 	0.57200 0.82430 0.60921 -0.04400
C 	C 	0.51620 0.78477 0.58122 0.05500
C 	C 	0.51480 0.70623 0.58200 0.05600
C 	C 	0.57100 0.66667 0.60969 -0.04900
C 	C 	0.62520 0.70744 0.63494 -0.03000
H 	H 	0.66360 0.68350 0.65310 0.05000
C 	C 	0.62510 0.78376 0.63466 -0.03600
H 	H 	0.66330 0.80790 0.65280 0.05200
C 	C 	0.57230 0.58666 0.61254 0.12700
C 	C 	0.64940 0.54870 0.61952 -0.18400
H 	H 	0.70170 0.57360 0.62060 0.10200
C 	C 	0.64750 0.47470 0.62473 0.11700
H 	H 	0.69950 0.45050 0.62920 -0.01400
C 	C 	0.50130 0.47126 0.61733 0.10700
H 	H 	0.45000 0.44480 0.61710 -0.01000
C 	C 	0.49710 0.54553 0.61110 -0.17600
H 	H 	0.44410 0.56790 0.60600 0.10600
N 	N 	0.57689 0.05611 0.61832 -0.25900
N 	N 	0.57518 0.43572 0.62372 -0.26400
N 	N 	0.46063 0.81310 0.55220 -0.11900
N 	N 	0.45811 0.67750 0.55369 -0.12000
O 	O 	0.65621 0.18216 0.67487 -0.46100
O 	O 	0.66241 0.30332 0.67289 -0.46400
O 	O 	0.97271 0.18091 0.83387 -0.45500
O 	O 	0.97839 0.30223 0.83034 -0.46000
O 	O 	0.67358 0.18681 0.58324 -0.46300
O 	O 	0.66778 0.30766 0.58122 -0.45900
O 	O 	0.98301 0.19012 0.42195 -0.44900
O 	O 	0.98962 0.31126 0.42560 -0.45600
S 	S 	0.41370 0.74523 0.52929 0.10500
Zn	Zn	0.57349 0.16645 0.62421 1.21200
Zn	Zn	0.57366 0.32538 0.62595 1.21300
C 	C 	0.81700 0.74243 0.68784 0.38000
C 	C 	0.75140 0.74177 0.72390 -0.07900
C 	C 	0.72020 0.80690 0.74084 -0.01800
H 	H 	0.74210 0.85090 0.73080 0.04900
C 	C 	0.65710 0.80677 0.77234 -0.01800
H 	H 	0.63690 0.85060 0.78330 0.05200
C 	C 	0.62378 0.74146 0.78771 -0.07400
C 	C 	0.65610 0.67647 0.77144 -0.01800
H 	H 	0.63510 0.63250 0.78190 0.05400
C 	C 	0.71930 0.67663 0.73988 -0.01600
H 	H 	0.74030 0.63270 0.72930 0.05000
C 	C 	0.55230 0.74120 0.82039 0.38200
C 	C 	0.80240 0.74750 0.56930 0.38300
C 	C 	0.73380 0.74826 0.53516 -0.08000
C 	C 	0.69730 0.68400 0.52098 -0.01100
H 	H 	0.71520 0.64000 0.53280 0.05200
C 	C 	0.63440 0.68463 0.48936 -0.01700
H 	H 	0.61000 0.64110 0.48020 0.05700
C 	C 	0.60740 0.74984 0.47124 -0.07000
C 	C 	0.64440 0.81431 0.48558 -0.01800
H 	H 	0.62680 0.85840 0.47380 0.05200
C 	C 	0.70700 0.81339 0.51716 -0.01300
H 	H 	0.73150 0.85690 0.52640 0.05200
C 	C 	0.53990 0.75064 0.43647 0.37900
C 	C 	0.90810 0.51380 0.65239 0.10100
H 	H 	0.89640 0.53590 0.67870 -0.01000
C 	C 	0.90910 0.43927 0.65048 -0.17100
H 	H 	0.89870 0.41190 0.67510 0.09400
C 	C 	0.92610 0.40442 0.61108 0.12000
C 	C 	0.94020 0.44858 0.57573 -0.17000
H 	H 	0.95120 0.42810 0.54890 0.10300
C 	C 	0.93780 0.52354 0.58059 0.10100
H 	H 	0.94680 0.55250 0.55650 -0.00600
C 	C 	0.92800 0.32430 0.60921 -0.04400
C 	C 	0.98380 0.28477 0.58122 0.05600
C 	C 	0.98520 0.20623 0.58200 0.05900
C 	C 	0.92900 0.16667 0.60969 -0.05000
C 	C 	0.87480 0.20744 0.63494 -0.02900
H 	H 	0.83640 0.18350 0.65310 0.04900
C 	C 	0.87490 0.28376 0.63466 -0.03600
H 	H 	0.83670 0.30790 0.65280 0.05200
C 	C 	0.92770 0.08666 0.61254 0.13000
C 	C 	0.85060 0.04870 0.61952 -0.18000
H 	H 	0.79830 0.07360 0.62060 0.10100
C 	C 	0.85250 0.97470 0.62473 0.11200
H 	H 	0.80050 0.95050 0.62920 -0.01200
C 	C 	0.99870 0.97126 0.61733 0.10100
H 	H 	0.05000 0.94480 0.61710 -0.00500
C 	C 	0.00290 0.04553 0.61110 -0.17800
H 	H 	0.05590 0.06790 0.60600 0.10500
N 	N 	0.92311 0.55611 0.61832 -0.25900
N 	N 	0.92482 0.93572 0.62372 -0.26300
N 	N 	0.03937 0.31310 0.55220 -0.12000
N 	N 	0.04189 0.17750 0.55369 -0.12200
O 	O 	0.84379 0.68216 0.67487 -0.46100
O 	O 	0.83759 0.80332 0.67289 -0.46400
O 	O 	0.52729 0.68091 0.83387 -0.45700
O 	O 	0.52161 0.80223 0.83034 -0.46100
O 	O 	0.82642 0.68681 0.58324 -0.46300
O 	O 	0.83222 0.80766 0.58122 -0.46000
O 	O 	0.51699 0.69012 0.42195 -0.45000
O 	O 	0.51038 0.81126 0.42560 -0.45600
S 	S 	0.08630 0.24523 0.52929 0.10300
Zn	Zn	0.92651 0.66645 0.62421 1.21200
Zn	Zn	0.92634 0.82538 0.62595 1.21200
C 	C 	0.31700 0.75757 0.31216 0.38000
C 	C 	0.25140 0.75823 0.27610 -0.07900
C 	C 	0.22020 0.69310 0.25916 -0.01800
H 	H 	0.24210 0.64910 0.26920 0.04900
C 	C 	0.15710 0.69323 0.22766 -0.01800
H 	H 	0.13690 0.64940 0.21670 0.05300
C 	C 	0.12378 0.75854 0.21229 -0.07400
C 	C 	0.15610 0.82353 0.22856 -0.01800
H 	H 	0.13510 0.86750 0.21810 0.05500
C 	C 	0.21930 0.82337 0.26012 -0.01600
H 	H 	0.24030 0.86730 0.27070 0.05000
C 	C 	0.05230 0.75880 0.17961 0.38200
C 	C 	0.30240 0.75250 0.43070 0.38300
C 	C 	0.23380 0.75174 0.46484 -0.08000
C 	C 	0.19730 0.81600 0.47902 -0.01100
H 	H 	0.21520 0.86000 0.46720 0.05200
C 	C 	0.13440 0.81537 0.51064 -0.01700
H 	H 	0.11000 0.85890 0.51980 0.05800
C 	C 	0.10740 0.75016 0.52876 -0.07000
C 	C 	0.14440 0.68569 0.51442 -0.01800
H 	H 	0.12680 0.64160 0.52620 0.05300
C 	C 	0.20700 0.68661 0.48284 -0.01300
H 	H 	0.23150 0.64310 0.47360 0.05200
C 	C 	0.03990 0.74936 0.56353 0.37900
C 	C 	0.40810 0.98620 0.34761 0.10300
H 	H 	0.39640 0.96410 0.32130 -0.01100
C 	C 	0.40910 0.06073 0.34952 -0.17300
H 	H 	0.39870 0.08810 0.32490 0.09500
C 	C 	0.42610 0.09558 0.38892 0.12100
C 	C 	0.44020 0.05142 0.42427 -0.17200
H 	H 	0.45120 0.07190 0.45110 0.10300
C 	C 	0.43780 0.97646 0.41941 0.10300
H 	H 	0.44680 0.94750 0.44350 -0.00600
C 	C 	0.42800 0.17570 0.39079 -0.04400
C 	C 	0.48380 0.21523 0.41878 0.05500
C 	C 	0.48520 0.29377 0.41800 0.05600
C 	C 	0.42900 0.33333 0.39031 -0.04900
C 	C 	0.37480 0.29256 0.36506 -0.03000
H 	H 	0.33640 0.31650 0.34690 0.05000
C 	C 	0.37490 0.21624 0.36534 -0.03600
H 	H 	0.33670 0.19210 0.34720 0.05200
C 	C 	0.42770 0.41334 0.38746 0.12700
C 	C 	0.35060 0.45130 0.38048 -0.18400
H 	H 	0.29830 0.42640 0.37940 0.10200
C 	C 	0.35250 0.52530 0.37527 0.11700
H 	H 	0.30050 0.54950 0.37080 -0.01400
C 	C 	0.49870 0.52874 0.38267 0.10700
H 	H 	0.55000 0.55520 0.38290 -0.01000
C 	C 	0.50290 0.45447 0.38890 -0.17600
H 	H 	0.55590 0.43210 0.39400 0.10600
N 	N 	0.42311 0.94389 0.38168 -0.25900
N 	N 	0.42482 0.56428 0.37628 -0.26400
N 	N 	0.53937 0.18690 0.44780 -0.11900
N 	N 	0.54189 0.32250 0.44631 -0.12000
O 	O 	0.34379 0.81784 0.32513 -0.46100
O 	O 	0.33759 0.69668 0.32711 -0.46400
O 	O 	0.02729 0.81909 0.16613 -0.45500
O 	O 	0.02161 0.69777 0.16966 -0.46000
O 	O 	0.32642 0.81319 0.41676 -0.46300
O 	O 	0.33222 0.69234 0.41878 -0.45900
O 	O 	0.01699 0.80988 0.57805 -0.44900
O 	O 	0.01038 0.68874 0.57440 -0.45600
S 	S 	0.58630 0.25477 0.47071 0.10500
Zn	Zn	0.42651 0.83355 0.37579 1.21200
Zn	Zn	0.42634 0.67462 0.37405 1.21300
C 	C 	0.31700 0.74243 0.81216 0.38000
C 	C 	0.25140 0.74177 0.77610 -0.07900
C 	C 	0.22020 0.80690 0.75916 -0.01800
H 	H 	0.24210 0.85090 0.76920 0.05000
C 	C 	0.15710 0.80677 0.72766 -0.01800
H 	H 	0.13690 0.85060 0.71670 0.05300
C 	C 	0.12378 0.74146 0.71229 -0.07400
C 	C 	0.15610 0.67647 0.72856 -0.01800
H 	H 	0.13510 0.63250 0.71810 0.05400
C 	C 	0.21930 0.67663 0.76012 -0.01600
H 	H 	0.24030 0.63270 0.77070 0.05000
C 	C 	0.05230 0.74120 0.67961 0.38200
C 	C 	0.30240 0.74750 0.93070 0.38200
C 	C 	0.23380 0.74826 0.96484 -0.07800
C 	C 	0.19730 0.68400 0.97902 -0.01400
H 	H 	0.21520 0.64000 0.96720 0.05300
C 	C 	0.13440 0.68463 0.01064 -0.01400
H 	H 	0.11000 0.64110 0.01980 0.05700
C 	C 	0.10740 0.74984 0.02876 -0.07200
C 	C 	0.14440 0.81431 0.01442 -0.01500
H 	H 	0.12680 0.85840 0.02620 0.05200
C 	C 	0.20700 0.81339 0.98284 -0.01600
H 	H 	0.23150 0.85690 0.97360 0.05400
C 	C 	0.03990 0.75064 0.06353 0.38000
C 	C 	0.40810 0.51380 0.84761 0.10100
H 	H 	0.39640 0.53590 0.82130 -0.01000
C 	C 	0.40910 0.43927 0.84952 -0.17100
H 	H 	0.39870 0.41190 0.82490 0.09400
C 	C 	0.42610 0.40442 0.88892 0.11900
C 	C 	0.44020 0.44858 0.92427 -0.17000
H 	H 	0.45120 0.42810 0.95110 0.10300
C 	C 	0.43780 0.52354 0.91941 0.10100
H 	H 	0.44680 0.55250 0.94350 -0.00500
C 	C 	0.42800 0.32430 0.89079 -0.04300
C 	C 	0.48380 0.28477 0.91878 0.05500
C 	C 	0.48520 0.20623 0.91800 0.05700
C 	C 	0.42900 0.16667 0.89031 -0.05000
C 	C 	0.37480 0.20744 0.86506 -0.03000
H 	H 	0.33640 0.18350 0.84690 0.04900
C 	C 	0.37490 0.28376 0.86534 -0.03600
H 	H 	0.33670 0.30790 0.84720 0.05200
C 	C 	0.42770 0.08666 0.88746 0.12900
C 	C 	0.35060 0.04870 0.88048 -0.18700
H 	H 	0.29830 0.07360 0.87940 0.10300
C 	C 	0.35250 0.97470 0.87527 0.12000
H 	H 	0.30050 0.95050 0.87080 -0.01400
C 	C 	0.49870 0.97126 0.88267 0.10800
H 	H 	0.55000 0.94480 0.88290 -0.01100
C 	C 	0.50290 0.04553 0.88890 -0.17700
H 	H 	0.55590 0.06790 0.89400 0.10600
N 	N 	0.42311 0.55611 0.88168 -0.25900
N 	N 	0.42482 0.93572 0.87628 -0.26500
N 	N 	0.53937 0.31310 0.94780 -0.11900
N 	N 	0.54189 0.17750 0.94631 -0.12000
O 	O 	0.34379 0.68216 0.82513 -0.46100
O 	O 	0.33759 0.80332 0.82711 -0.46400
O 	O 	0.02729 0.68091 0.66613 -0.45700
O 	O 	0.02161 0.80223 0.66966 -0.46000
O 	O 	0.32642 0.68681 0.91676 -0.46300
O 	O 	0.33222 0.80766 0.91878 -0.45900
O 	O 	0.01699 0.69012 0.07805 -0.45000
O 	O 	0.01038 0.81126 0.07440 -0.45400
S 	S 	0.58630 0.24523 0.97071 0.10500
Zn	Zn	0.42651 0.66645 0.87579 1.21200
Zn	Zn	0.42634 0.82538 0.87405 1.21300
C 	C 	0.81700 0.75757 0.18784 0.38000
C 	C 	0.75140 0.75823 0.22390 -0.07900
C 	C 	0.72020 0.69310 0.24084 -0.01800
H 	H 	0.74210 0.64910 0.23080 0.04900
C 	C 	0.65710 0.69323 0.27234 -0.01800
H 	H 	0.63690 0.64940 0.28330 0.05200
C 	C 	0.62378 0.75854 0.28771 -0.07400
C 	C 	0.65610 0.82353 0.27144 -0.01800
H 	H 	0.63510 0.86750 0.28190 0.05400
C 	C 	0.71930 0.82337 0.23988 -0.01600
H 	H 	0.74030 0.86730 0.22930 0.05000
C 	C 	0.55230 0.75880 0.32039 0.38200
C 	C 	0.80240 0.75250 0.06930 0.38300
C 	C 	0.73380 0.75174 0.03516 -0.07900
C 	C 	0.69730 0.81600 0.02098 -0.01200
H 	H 	0.71520 0.86000 0.03280 0.05200
C 	C 	0.63440 0.81537 0.98936 -0.01500
H 	H 	0.61000 0.85890 0.98020 0.05700
C 	C 	0.60740 0.75016 0.97124 -0.07100
C 	C 	0.64440 0.68569 0.98558 -0.01600
H 	H 	0.62680 0.64160 0.97380 0.05200
C 	C 	0.70700 0.68661 0.01716 -0.01500
H 	H 	0.73150 0.64310 0.02640 0.05300
C 	C 	0.53990 0.74936 0.93647 0.38000
C 	C 	0.90810 0.98620 0.15239 0.09200
H 	H 	0.89640 0.96410 0.17870 -0.00800
C 	C 	0.90910 0.06073 0.15048 -0.16000
H 	H 	0.89870 0.08810 0.17510 0.09100
C 	C 	0.92610 0.09558 0.11108 0.11300
C 	C 	0.94020 0.05142 0.07573 -0.15900
H 	H 	0.95120 0.07190 0.04890 0.10000
C 	C 	0.93780 0.97646 0.08059 0.09200
H 	H 	0.94680 0.94750 0.05650 -0.00400
C 	C 	0.92800 0.17570 0.10921 -0.04100
C 	C 	0.98380 0.21523 0.08122 0.05500
C 	C 	0.98520 0.29377 0.08200 0.05700
C 	C 	0.92900 0.33333 0.10969 -0.04900
C 	C 	0.87480 0.29256 0.13494 -0.03000
H 	H 	0.83640 0.31650 0.15310 0.04900
C 	C 	0.87490 0.21624 0.13466 -0.03800
H 	H 	0.83670 0.19210 0.15280 0.05300
C 	C 	0.92770 0.41334 0.11254 0.12600
C 	C 	0.85060 0.45130 0.11952 -0.18300
H 	H 	0.79830 0.42640 0.12060 0.10200
C 	C 	0.85250 0.52530 0.12473 0.11600
H 	H 	0.80050 0.54950 0.12920 -0.01300
C 	C 	0.99870 0.52874 0.11733 0.10300
H 	H 	0.05000 0.55520 0.11710 -0.00800
C 	C 	0.00290 0.45447 0.11110 -0.17200
H 	H 	0.05590 0.43210 0.10600 0.10400
N 	N 	0.92311 0.94389 0.11832 -0.25700
N 	N 	0.92482 0.56428 0.12372 -0.26300
N 	N 	0.03937 0.18690 0.05220 -0.12000
N 	N 	0.04189 0.32250 0.05369 -0.12000
O 	O 	0.84379 0.81784 0.17487 -0.46200
O 	O 	0.83759 0.69668 0.17289 -0.46400
O 	O 	0.52729 0.81909 0.33387 -0.45700
O 	O 	0.52161 0.69777 0.33034 -0.46100
O 	O 	0.82642 0.81319 0.08324 -0.46400
O 	O 	0.83222 0.69234 0.08122 -0.46000
O 	O 	0.51699 0.80988 0.92195 -0.45000
O 	O 	0.51038 0.68874 0.92560 -0.45600
S 	S 	0.08630 0.25477 0.02929 0.10400
Zn	Zn	0.92651 0.83355 0.12421 1.21100
Zn	Zn	0.92634 0.67462 0.12595 1.21200
