data_crystal

_cell_length_a 22.42580
_cell_length_b 22.42580
_cell_length_c 10.91900
_cell_angle_alpha 90.00000
_cell_angle_beta  90.00000
_cell_angle_gamma 120.00000

_symmetry_space_group_name_	'P 1'
_symmetry_space_group_name_H-M	'P 1'

loop_
_symmetry_equiv_pos_as_xyz
  x,y,z

loop_
_atom_site_label
_atom_site_type_symbol
_atom_site_fract_x
_atom_site_fract_y
_atom_site_fract_z
_atom_site_charge
C 	C 	0.44270 0.32600 0.07990 0.30000
C 	C 	0.48080 0.28990 0.12310 -0.05200
C 	C 	0.44410 0.22250 0.16380 -0.00900
H 	H 	0.39620 0.19930 0.16690 0.07200
C 	C 	0.48160 0.18940 0.20110 -0.05700
C 	C 	0.55050 0.22210 0.18510 -0.02500
H 	H 	0.57410 0.19950 0.20790 0.06400
C 	C 	0.58590 0.28490 0.13840 -0.01800
C 	C 	0.55150 0.32300 0.11250 -0.03200
H 	H 	0.57630 0.36900 0.08910 0.05300
C 	C 	0.44080 0.11690 0.24610 0.29800
C 	C 	0.66290 0.32150 0.11100 0.11800
C 	C 	0.70690 0.39150 0.11250 -0.20400
H 	H 	0.68830 0.41990 0.12460 0.10500
C 	C 	0.77150 0.41940 0.09830 0.13200
H 	H 	0.79880 0.46720 0.09860 -0.00500
C 	C 	0.80190 0.37800 0.08190 -0.18700
H 	H 	0.84930 0.39700 0.07460 0.10800
C 	C 	0.75760 0.30780 0.07740 0.11700
C 	C 	0.78250 0.25850 0.05000 -0.03400
C 	C 	0.75380 0.19440 0.10540 -0.04300
H 	H 	0.71870 0.18200 0.16240 0.07200
C 	C 	0.77660 0.14770 0.07740 -0.00100
C 	C 	0.83400 0.16790 0.00060 -0.16500
H 	H 	0.85370 0.14020 0.99240 0.15900
C 	C 	0.86030 0.22860 0.93820 0.04800
C 	C 	0.83630 0.27690 0.96940 -0.01300
H 	H 	0.85770 0.32050 0.93420 0.07300
C 	C 	0.74820 0.08130 0.14940 0.29600
C 	C 	0.91940 0.25150 0.85190 0.27100
O 	O 	0.94930 0.31520 0.81980 -0.30700
N 	N 	0.68930 0.27890 0.09780 -0.14300
O 	O 	0.37590 0.28960 0.08700 -0.35100
O 	O 	0.47230 0.38450 0.04270 -0.27100
O 	O 	0.37600 0.08870 0.24650 -0.35700
O 	O 	0.47140 0.08600 0.28190 -0.26400
O 	O 	0.68700 0.05350 0.18320 -0.36400
O 	O 	0.78670 0.05850 0.18020 -0.25100
O 	O 	0.93520 0.20840 0.81820 -0.20600
C 	C 	0.67400 0.11670 0.41323 0.30000
C 	C 	0.71010 0.19090 0.45643 -0.04300
C 	C 	0.77750 0.22160 0.49713 -0.01500
H 	H 	0.80070 0.19690 0.50023 0.08200
C 	C 	0.81060 0.29220 0.53443 -0.04000
C 	C 	0.77790 0.32840 0.51843 -0.03200
H 	H 	0.80050 0.37460 0.54123 0.07200
C 	C 	0.71510 0.30100 0.47173 -0.00700
C 	C 	0.67700 0.22850 0.44583 -0.03500
H 	H 	0.63100 0.20730 0.42243 0.06100
C 	C 	0.88310 0.32390 0.57943 0.29000
C 	C 	0.67850 0.34140 0.44433 0.12200
C 	C 	0.60850 0.31540 0.44583 -0.19800
H 	H 	0.58010 0.26840 0.45793 0.10800
C 	C 	0.58060 0.35210 0.43163 0.13200
H 	H 	0.53280 0.33160 0.43193 -0.00000
C 	C 	0.62200 0.42390 0.41523 -0.17900
H 	H 	0.60300 0.45230 0.40793 0.10900
C 	C 	0.69220 0.44980 0.41073 0.11600
C 	C 	0.74150 0.52400 0.38333 -0.00600
C 	C 	0.80560 0.55940 0.43873 -0.02600
H 	H 	0.81800 0.53670 0.49573 0.07000
C 	C 	0.85230 0.62890 0.41073 -0.03500
C 	C 	0.83210 0.66610 0.33393 -0.00800
H 	H 	0.85980 0.71350 0.32573 0.08500
C 	C 	0.77140 0.63170 0.27153 -0.03700
C 	C 	0.72310 0.55940 0.30273 -0.03500
H 	H 	0.67950 0.53720 0.26753 0.06400
C 	C 	0.91870 0.66690 0.48273 0.30900
C 	C 	0.74850 0.66790 0.18523 0.29600
O 	O 	0.68480 0.63410 0.15313 -0.34800
N 	N 	0.72110 0.41040 0.43113 -0.13700
O 	O 	0.71040 0.08630 0.42033 -0.34900
O 	O 	0.61550 0.08780 0.37603 -0.27000
O 	O 	0.91130 0.28730 0.57983 -0.31800
O 	O 	0.91400 0.38540 0.61523 -0.22600
O 	O 	0.94650 0.63350 0.51653 -0.32300
O 	O 	0.94150 0.72820 0.51353 -0.20800
O 	O 	0.79160 0.72680 0.15153 -0.23100
C 	C 	0.88330 0.55730 0.74657 0.29100
C 	C 	0.80910 0.51920 0.78977 -0.02500
C 	C 	0.77840 0.55590 0.83047 -0.02200
H 	H 	0.80310 0.60380 0.83357 0.09300
C 	C 	0.70780 0.51840 0.86777 -0.02800
C 	C 	0.67160 0.44950 0.85177 -0.03800
H 	H 	0.62540 0.42590 0.87457 0.08100
C 	C 	0.69900 0.41410 0.80507 0.00400
C 	C 	0.77150 0.44850 0.77917 -0.04100
H 	H 	0.79270 0.42370 0.75577 0.06800
C 	C 	0.67610 0.55920 0.91277 0.29000
C 	C 	0.65860 0.33710 0.77767 0.12400
C 	C 	0.68460 0.29310 0.77917 -0.19400
H 	H 	0.73160 0.31170 0.79127 0.11200
C 	C 	0.64790 0.22850 0.76497 0.13300
H 	H 	0.66840 0.20120 0.76527 0.00100
C 	C 	0.57610 0.19810 0.74857 -0.17500
H 	H 	0.54770 0.15070 0.74127 0.10600
C 	C 	0.55020 0.24240 0.74407 0.11900
C 	C 	0.47600 0.21750 0.71667 -0.00800
C 	C 	0.44060 0.24620 0.77207 -0.02200
H 	H 	0.46330 0.28130 0.82907 0.07500
C 	C 	0.37110 0.22340 0.74407 -0.04400
C 	C 	0.33390 0.16600 0.66727 -0.00100
H 	H 	0.28650 0.14630 0.65907 0.06900
C 	C 	0.36830 0.13970 0.60487 -0.04700
C 	C 	0.44060 0.16370 0.63607 -0.03100
H 	H 	0.46280 0.14230 0.60087 0.06300
C 	C 	0.33310 0.25180 0.81607 0.31600
C 	C 	0.33210 0.08060 0.51857 0.30300
O 	O 	0.36590 0.05070 0.48647 -0.35800
N 	N 	0.58960 0.31070 0.76447 -0.13600
O 	O 	0.91370 0.62410 0.75367 -0.30900
O 	O 	0.91220 0.52770 0.70937 -0.23200
O 	O 	0.71270 0.62400 0.91317 -0.31800
O 	O 	0.61460 0.52860 0.94857 -0.22600
O 	O 	0.36650 0.31300 0.84987 -0.33500
O 	O 	0.27180 0.21330 0.84687 -0.23500
O 	O 	0.27320 0.06480 0.48487 -0.25600
C 	C 	0.32600 0.44270 0.92010 0.29700
C 	C 	0.28990 0.48080 0.87690 -0.03500
C 	C 	0.22250 0.44410 0.83620 -0.01300
H 	H 	0.19930 0.39620 0.83310 0.08100
C 	C 	0.18940 0.48160 0.79890 -0.04500
C 	C 	0.22210 0.55050 0.81490 -0.02800
H 	H 	0.19950 0.57410 0.79210 0.07000
C 	C 	0.28490 0.58590 0.86160 -0.00500
C 	C 	0.32300 0.55150 0.88750 -0.03500
H 	H 	0.36900 0.57630 0.91090 0.06900
C 	C 	0.11690 0.44080 0.75390 0.29900
C 	C 	0.32150 0.66290 0.88900 0.12900
C 	C 	0.39150 0.70690 0.88750 -0.19700
H 	H 	0.41990 0.68830 0.87540 0.11400
C 	C 	0.41940 0.77150 0.90170 0.14000
H 	H 	0.46720 0.79880 0.90140 0.01000
C 	C 	0.37800 0.80190 0.91810 -0.17400
H 	H 	0.39700 0.84930 0.92540 0.12500
C 	C 	0.30780 0.75760 0.92260 0.12200
C 	C 	0.25850 0.78250 0.95000 0.01500
C 	C 	0.19440 0.75380 0.89460 0.00100
H 	H 	0.18200 0.71870 0.83760 0.06100
C 	C 	0.14770 0.77660 0.92260 -0.09400
C 	C 	0.16790 0.83400 0.99940 0.15200
H 	H 	0.14020 0.85370 0.00760 -0.00400
C 	C 	0.22860 0.86030 0.06180 -0.11900
C 	C 	0.27690 0.83630 0.03060 -0.05100
H 	H 	0.32050 0.85770 0.06580 0.06600
C 	C 	0.08130 0.74820 0.85060 0.34000
C 	C 	0.25150 0.91940 0.14810 0.32300
O 	O 	0.31520 0.94930 0.18020 -0.32700
N 	N 	0.27890 0.68930 0.90220 -0.13600
O 	O 	0.28960 0.37590 0.91300 -0.32500
O 	O 	0.38450 0.47230 0.95730 -0.23500
O 	O 	0.08870 0.37600 0.75350 -0.35000
O 	O 	0.08600 0.47140 0.71810 -0.25900
O 	O 	0.05350 0.68700 0.81680 -0.36400
O 	O 	0.05850 0.78670 0.81980 -0.24400
O 	O 	0.20840 0.93520 0.18180 -0.23300
C 	C 	0.11670 0.67400 0.58677 0.30000
C 	C 	0.19090 0.71010 0.54357 -0.04400
C 	C 	0.22160 0.77750 0.50287 -0.01500
H 	H 	0.19690 0.80070 0.49977 0.08200
C 	C 	0.29220 0.81060 0.46557 -0.04000
C 	C 	0.32840 0.77790 0.48157 -0.03200
H 	H 	0.37460 0.80050 0.45877 0.07300
C 	C 	0.30100 0.71510 0.52827 -0.00600
C 	C 	0.22850 0.67700 0.55417 -0.03500
H 	H 	0.20730 0.63100 0.57757 0.06100
C 	C 	0.32390 0.88310 0.42057 0.29100
C 	C 	0.34140 0.67850 0.55567 0.12200
C 	C 	0.31540 0.60850 0.55417 -0.19800
H 	H 	0.26840 0.58010 0.54207 0.10800
C 	C 	0.35210 0.58060 0.56837 0.13200
H 	H 	0.33160 0.53280 0.56807 -0.00000
C 	C 	0.42390 0.62200 0.58477 -0.17800
H 	H 	0.45230 0.60300 0.59207 0.10900
C 	C 	0.44980 0.69220 0.58927 0.11600
C 	C 	0.52400 0.74150 0.61667 -0.00100
C 	C 	0.55940 0.80560 0.56127 -0.02900
H 	H 	0.53670 0.81800 0.50427 0.07200
C 	C 	0.62890 0.85230 0.58927 -0.02800
C 	C 	0.66610 0.83210 0.66607 -0.01200
H 	H 	0.71350 0.85980 0.67427 0.09200
C 	C 	0.63170 0.77140 0.72847 -0.02500
C 	C 	0.55940 0.72310 0.69727 -0.03800
H 	H 	0.53720 0.67950 0.73247 0.07100
C 	C 	0.66690 0.91870 0.51727 0.31000
C 	C 	0.66790 0.74850 0.81477 0.29500
O 	O 	0.63410 0.68480 0.84687 -0.32500
N 	N 	0.41040 0.72110 0.56887 -0.13700
O 	O 	0.08630 0.71040 0.57967 -0.35000
O 	O 	0.08780 0.61550 0.62397 -0.26800
O 	O 	0.28730 0.91130 0.42017 -0.31800
O 	O 	0.38540 0.91400 0.38477 -0.22700
O 	O 	0.63350 0.94650 0.48347 -0.32000
O 	O 	0.72820 0.94150 0.48647 -0.20800
O 	O 	0.72680 0.79160 0.84847 -0.20600
C 	C 	0.55730 0.88330 0.25343 0.29100
C 	C 	0.51920 0.80910 0.21023 -0.04000
C 	C 	0.55590 0.77840 0.16953 -0.01700
H 	H 	0.60380 0.80310 0.16643 0.08300
C 	C 	0.51840 0.70780 0.13223 -0.05100
C 	C 	0.44950 0.67160 0.14823 -0.03000
H 	H 	0.42590 0.62540 0.12543 0.06200
C 	C 	0.41410 0.69900 0.19493 -0.01300
C 	C 	0.44850 0.77150 0.22083 -0.03900
H 	H 	0.42370 0.79270 0.24423 0.06100
C 	C 	0.55920 0.67610 0.08723 0.29400
C 	C 	0.33710 0.65860 0.22233 0.11800
C 	C 	0.29310 0.68460 0.22083 -0.20200
H 	H 	0.31170 0.73160 0.20873 0.10400
C 	C 	0.22850 0.64790 0.23503 0.12700
H 	H 	0.20120 0.66840 0.23473 -0.00800
C 	C 	0.19810 0.57610 0.25143 -0.18200
H 	H 	0.15070 0.54770 0.25873 0.09800
C 	C 	0.24240 0.55020 0.25593 0.11300
C 	C 	0.21750 0.47600 0.28333 -0.01800
C 	C 	0.24620 0.44060 0.22793 -0.01800
H 	H 	0.28130 0.46330 0.17093 0.05700
C 	C 	0.22340 0.37110 0.25593 -0.05800
C 	C 	0.16600 0.33390 0.33273 0.00200
H 	H 	0.14630 0.28650 0.34093 0.06400
C 	C 	0.13970 0.36830 0.39513 -0.05300
C 	C 	0.16370 0.44060 0.36393 -0.03000
H 	H 	0.14230 0.46280 0.39913 0.06000
C 	C 	0.25180 0.33310 0.18393 0.31900
C 	C 	0.08060 0.33210 0.48143 0.30300
O 	O 	0.05070 0.36590 0.51353 -0.36100
N 	N 	0.31070 0.58960 0.23553 -0.14000
O 	O 	0.62410 0.91370 0.24633 -0.31700
O 	O 	0.52770 0.91220 0.29063 -0.23800
O 	O 	0.62400 0.71270 0.08683 -0.34500
O 	O 	0.52860 0.61460 0.05143 -0.26200
O 	O 	0.31300 0.36650 0.15013 -0.35900
O 	O 	0.21330 0.27180 0.15313 -0.26000
O 	O 	0.06480 0.27320 0.51513 -0.25600
Cu	Cu	0.33696 -0.00000 0.33333 0.92700
Cu	Cu	0.00000 0.33696 0.66667 0.92800
Cu	Cu	0.66304 0.66304 -0.00000 0.93700
Cu	Cu	0.33679 0.33679 -0.00000 0.94100
Cu	Cu	0.66321 -0.00000 0.33333 0.93400
Cu	Cu	0.00000 0.66321 0.66667 0.93500
