data_crystal

_cell_length_a 28.01340
_cell_length_b 17.89140
_cell_length_c 12.76290
_cell_angle_alpha 90.00000
_cell_angle_beta  90.00000
_cell_angle_gamma 90.00000

_symmetry_space_group_name_	'P 1'
_symmetry_space_group_name_H-M	'P 1'

loop_
_symmetry_equiv_pos_as_xyz
  x,y,z

loop_
_atom_site_label
_atom_site_type_symbol
_atom_site_fract_x
_atom_site_fract_y
_atom_site_fract_z
_atom_site_charge
C 	C 	0.95610 0.30270 0.26050 -0.35800
H 	H 	0.93090 0.31480 0.21130 0.11300
H 	H 	0.96230 0.34700 0.30230 0.14500
C 	C 	0.93910 0.24010 0.33230 0.42800
H 	H 	0.97220 0.29270 0.05690 0.07200
C 	C 	0.79530 0.01230 0.90710 0.11100
H 	H 	0.77890 0.02250 0.84530 0.01800
C 	C 	0.87190 0.01250 0.80490 0.37100
C 	C 	0.84460 0.00950 0.90720 -0.12700
Mg	Mg	0.94600 0.05775 0.33951 1.47200
Mg	Mg	0.87712 0.05914 0.58191 1.46300
O 	O 	0.94741 0.17360 0.30040 -0.59900
O 	O 	0.91690 0.25650 0.41330 -0.33400
O 	O 	0.88711 0.05530 0.42510 -0.79300
O 	O 	0.04575 0.44490 0.11660 -0.57900
O 	O 	0.69634 0.04720 0.94180 -0.47100
O 	O 	0.90468 0.96560 0.79320 -0.40200
O 	O 	0.86018 0.06200 0.73880 -0.49100
Ni	Ni	0.94600 0.94225 0.66049 1.10700
C 	C 	0.45610 0.80270 0.26050 -0.35600
H 	H 	0.43090 0.81480 0.21130 0.11300
H 	H 	0.46230 0.84700 0.30230 0.14700
C 	C 	0.43910 0.74010 0.33230 0.42900
H 	H 	0.47220 0.79270 0.05690 0.07400
C 	C 	0.29530 0.51230 0.90710 0.12100
H 	H 	0.27890 0.52250 0.84530 0.01700
C 	C 	0.37190 0.51250 0.80490 0.40100
C 	C 	0.34460 0.50950 0.90720 -0.13400
Mg	Mg	0.44600 0.55775 0.33951 1.47200
Mg	Mg	0.37712 0.55914 0.58191 1.46400
O 	O 	0.44741 0.67360 0.30040 -0.59800
O 	O 	0.41690 0.75650 0.41330 -0.33200
O 	O 	0.38711 0.55530 0.42510 -0.78400
O 	O 	0.54575 0.94490 0.11660 -0.57100
O 	O 	0.19634 0.54720 0.94180 -0.46700
O 	O 	0.40468 0.46560 0.79320 -0.42700
O 	O 	0.36018 0.56200 0.73880 -0.49400
Ni	Ni	0.44600 0.44225 0.66049 1.10400
C 	C 	0.04390 0.19730 0.76050 -0.35500
H 	H 	0.06910 0.18520 0.71130 0.11400
H 	H 	0.03770 0.15300 0.80230 0.14600
C 	C 	0.06090 0.25990 0.83230 0.42900
H 	H 	0.02780 0.20730 0.55690 0.08400
C 	C 	0.20470 0.48770 0.40710 0.10200
H 	H 	0.22110 0.47750 0.34530 0.01900
C 	C 	0.12810 0.48750 0.30490 0.40700
C 	C 	0.15540 0.49050 0.40720 -0.16200
Mg	Mg	0.05400 0.44225 0.83951 1.47300
Mg	Mg	0.12288 0.44086 0.08191 1.46300
O 	O 	0.05259 0.32640 0.80040 -0.59500
O 	O 	0.08310 0.24350 0.91330 -0.32500
O 	O 	0.11289 0.44470 0.92510 -0.77300
O 	O 	0.95425 0.05510 0.61660 -0.58700
O 	O 	0.30366 0.45280 0.44180 -0.49200
O 	O 	0.09532 0.53440 0.29320 -0.43300
O 	O 	0.13982 0.43800 0.23880 -0.49900
Ni	Ni	0.05400 0.55775 0.16049 1.10300
C 	C 	0.54390 0.69730 0.76050 -0.35600
H 	H 	0.56910 0.68520 0.71130 0.11600
H 	H 	0.53770 0.65300 0.80230 0.14800
C 	C 	0.56090 0.75990 0.83230 0.43000
H 	H 	0.52780 0.70730 0.55690 0.08500
C 	C 	0.70470 0.98770 0.40710 0.12100
H 	H 	0.72110 0.97750 0.34530 0.01700
C 	C 	0.62810 0.98750 0.30490 0.42600
C 	C 	0.65540 0.99050 0.40720 -0.14400
Mg	Mg	0.55400 0.94225 0.83951 1.47300
Mg	Mg	0.62288 0.94086 0.08191 1.46300
O 	O 	0.55259 0.82640 0.80040 -0.59400
O 	O 	0.58310 0.74350 0.91330 -0.32200
O 	O 	0.61289 0.94470 0.92510 -0.76200
O 	O 	0.45425 0.55510 0.61660 -0.57700
O 	O 	0.80366 0.95280 0.44180 -0.47300
O 	O 	0.59532 0.03440 0.29320 -0.45100
O 	O 	0.63982 0.93800 0.23880 -0.50100
Ni	Ni	0.55400 0.05775 0.16049 1.10100
C 	C 	0.04390 0.80270 0.23950 -0.34600
H 	H 	0.06910 0.81480 0.28870 0.11100
H 	H 	0.03770 0.84700 0.19770 0.14300
C 	C 	0.06090 0.74010 0.16770 0.40500
H 	H 	0.02780 0.79270 0.44310 0.08000
C 	C 	0.20470 0.51230 0.59290 0.10500
H 	H 	0.22110 0.52250 0.65470 0.02000
C 	C 	0.12810 0.51250 0.69510 0.42900
C 	C 	0.15540 0.50950 0.59280 -0.16700
Mg	Mg	0.12288 0.55914 0.91809 1.46500
O 	O 	0.05259 0.67360 0.19960 -0.53500
O 	O 	0.08310 0.75650 0.08670 -0.33000
O 	O 	0.11289 0.55530 0.07490 -0.72100
O 	O 	0.95425 0.94490 0.38340 -0.61900
O 	O 	0.30366 0.54720 0.55820 -0.49100
O 	O 	0.09532 0.46560 0.70680 -0.50100
O 	O 	0.13982 0.56200 0.76120 -0.50700
C 	C 	0.54390 0.30270 0.23950 -0.34500
H 	H 	0.56910 0.31480 0.28870 0.11000
H 	H 	0.53770 0.34700 0.19770 0.14100
C 	C 	0.56090 0.24010 0.16770 0.40400
H 	H 	0.52780 0.29270 0.44310 0.08100
C 	C 	0.70470 0.01230 0.59290 0.09800
H 	H 	0.72110 0.02250 0.65470 0.02000
C 	C 	0.62810 0.01250 0.69510 0.39800
C 	C 	0.65540 0.00950 0.59280 -0.15500
Mg	Mg	0.62288 0.05914 0.91809 1.46300
O 	O 	0.55259 0.17360 0.19960 -0.53500
O 	O 	0.58310 0.25650 0.08670 -0.33100
O 	O 	0.61289 0.05530 0.07490 -0.72700
O 	O 	0.45425 0.44490 0.38340 -0.62600
O 	O 	0.80366 0.04720 0.55820 -0.49000
O 	O 	0.59532 0.96560 0.70680 -0.47600
O 	O 	0.63982 0.06200 0.76120 -0.50300
C 	C 	0.95610 0.69730 0.73950 -0.34700
H 	H 	0.93090 0.68520 0.78870 0.11400
H 	H 	0.96230 0.65300 0.69770 0.14300
C 	C 	0.93910 0.75990 0.66770 0.40600
H 	H 	0.97220 0.70730 0.94310 0.09100
C 	C 	0.79530 0.98770 0.09290 0.11700
H 	H 	0.77890 0.97750 0.15470 0.01700
C 	C 	0.87190 0.98750 0.19510 0.44400
C 	C 	0.84460 0.99050 0.09280 -0.14600
Mg	Mg	0.87712 0.94086 0.41809 1.46400
O 	O 	0.94741 0.82640 0.69960 -0.53300
O 	O 	0.91690 0.74350 0.58670 -0.32100
O 	O 	0.88711 0.94470 0.57490 -0.70100
O 	O 	0.04575 0.55510 0.88340 -0.62400
O 	O 	0.69634 0.95280 0.05820 -0.47700
O 	O 	0.90468 0.03440 0.20680 -0.52100
O 	O 	0.86018 0.93800 0.26120 -0.51100
C 	C 	0.45610 0.19730 0.73950 -0.34400
H 	H 	0.43090 0.18520 0.78870 0.11200
H 	H 	0.46230 0.15300 0.69770 0.14100
C 	C 	0.43910 0.25990 0.66770 0.40500
H 	H 	0.47220 0.20730 0.94310 0.09100
C 	C 	0.29530 0.48770 0.09290 0.10100
H 	H 	0.27890 0.47750 0.15470 0.01900
C 	C 	0.37190 0.48750 0.19510 0.42500
C 	C 	0.34460 0.49050 0.09280 -0.15900
Mg	Mg	0.37712 0.44086 0.41809 1.46300
O 	O 	0.44741 0.32640 0.69960 -0.53200
O 	O 	0.41690 0.24350 0.58670 -0.32200
O 	O 	0.38711 0.44470 0.57490 -0.71000
O 	O 	0.54575 0.05510 0.88340 -0.63300
O 	O 	0.19634 0.45280 0.05820 -0.49200
O 	O 	0.40468 0.53440 0.20680 -0.50300
O 	O 	0.36018 0.43800 0.26120 -0.50900
C 	C 	0.04390 0.69730 0.73950 -0.35700
H 	H 	0.06910 0.68520 0.78870 0.11700
H 	H 	0.03770 0.65300 0.69770 0.14600
C 	C 	0.06090 0.75990 0.66770 0.43100
H 	H 	0.02780 0.70730 0.94310 0.09500
C 	C 	0.20470 0.98770 0.09290 0.11400
H 	H 	0.22110 0.97750 0.15470 0.01900
C 	C 	0.12810 0.98750 0.19510 0.42200
C 	C 	0.15540 0.99050 0.09280 -0.14000
Mg	Mg	0.05400 0.94225 0.66049 1.47300
Mg	Mg	0.12288 0.94086 0.41809 1.46500
O 	O 	0.05259 0.82640 0.69960 -0.59500
O 	O 	0.08310 0.74350 0.58670 -0.33300
O 	O 	0.11289 0.94470 0.57490 -0.77300
O 	O 	0.95425 0.55510 0.88340 -0.57600
O 	O 	0.30366 0.95280 0.05820 -0.47800
O 	O 	0.09532 0.03440 0.20680 -0.45100
O 	O 	0.13982 0.93800 0.26120 -0.49900
Ni	Ni	0.05400 0.05775 0.33951 1.10100
C 	C 	0.54390 0.19730 0.73950 -0.35600
H 	H 	0.56910 0.18520 0.78870 0.11600
H 	H 	0.53770 0.15300 0.69770 0.14300
C 	C 	0.56090 0.25990 0.66770 0.42900
H 	H 	0.52780 0.20730 0.94310 0.09400
C 	C 	0.70470 0.48770 0.09290 0.09800
H 	H 	0.72110 0.47750 0.15470 0.02000
C 	C 	0.62810 0.48750 0.19510 0.40300
C 	C 	0.65540 0.49050 0.09280 -0.15300
Mg	Mg	0.55400 0.44225 0.66049 1.47200
Mg	Mg	0.62288 0.44086 0.41809 1.46400
O 	O 	0.55259 0.32640 0.69960 -0.59600
O 	O 	0.58310 0.24350 0.58670 -0.33400
O 	O 	0.61289 0.44470 0.57490 -0.78300
O 	O 	0.45425 0.05510 0.88340 -0.58500
O 	O 	0.80366 0.45280 0.05820 -0.49200
O 	O 	0.59532 0.53440 0.20680 -0.43400
O 	O 	0.63982 0.43800 0.26120 -0.49700
Ni	Ni	0.55400 0.55775 0.33951 1.10400
C 	C 	0.95610 0.80270 0.23950 -0.35900
H 	H 	0.93090 0.81480 0.28870 0.11600
H 	H 	0.96230 0.84700 0.19770 0.14500
C 	C 	0.93910 0.74010 0.16770 0.43000
H 	H 	0.97220 0.79270 0.44310 0.08200
C 	C 	0.79530 0.51230 0.59290 0.10200
H 	H 	0.77890 0.52250 0.65470 0.02100
C 	C 	0.87190 0.51250 0.69510 0.40700
C 	C 	0.84460 0.50950 0.59280 -0.16100
Mg	Mg	0.94600 0.55775 0.16049 1.47200
Mg	Mg	0.87712 0.55914 0.91809 1.46500
O 	O 	0.94741 0.67360 0.19960 -0.60000
O 	O 	0.91690 0.75650 0.08670 -0.34200
O 	O 	0.88711 0.55530 0.07490 -0.79400
O 	O 	0.04575 0.94490 0.38340 -0.56900
O 	O 	0.69634 0.54720 0.55820 -0.49100
O 	O 	0.90468 0.46560 0.70680 -0.43300
O 	O 	0.86018 0.56200 0.76120 -0.49500
Ni	Ni	0.94600 0.44225 0.83951 1.10400
C 	C 	0.45610 0.30270 0.23950 -0.35600
H 	H 	0.43090 0.31480 0.28870 0.11400
H 	H 	0.46230 0.34700 0.19770 0.14300
C 	C 	0.43910 0.24010 0.16770 0.42900
H 	H 	0.47220 0.29270 0.44310 0.08400
C 	C 	0.29530 0.01230 0.59290 0.09500
H 	H 	0.27890 0.02250 0.65470 0.02200
C 	C 	0.37190 0.01250 0.69510 0.37600
C 	C 	0.34460 0.00950 0.59280 -0.14900
Mg	Mg	0.44600 0.05775 0.16049 1.47200
Mg	Mg	0.37712 0.05914 0.91809 1.46400
O 	O 	0.44741 0.17360 0.19960 -0.59900
O 	O 	0.41690 0.25650 0.08670 -0.34200
O 	O 	0.38711 0.05530 0.07490 -0.80100
O 	O 	0.54575 0.44490 0.38340 -0.57700
O 	O 	0.19634 0.04720 0.55820 -0.49100
O 	O 	0.40468 0.96560 0.70680 -0.40800
O 	O 	0.36018 0.06200 0.76120 -0.49200
Ni	Ni	0.44600 0.94225 0.83951 1.10800
C 	C 	0.95610 0.19730 0.76050 -0.34500
H 	H 	0.93090 0.18520 0.71130 0.11000
H 	H 	0.96230 0.15300 0.80230 0.14300
C 	C 	0.93910 0.25990 0.83230 0.40500
H 	H 	0.97220 0.20730 0.55690 0.07900
C 	C 	0.79530 0.48770 0.40710 0.10500
H 	H 	0.77890 0.47750 0.34530 0.01800
C 	C 	0.87190 0.48750 0.30490 0.42900
C 	C 	0.84460 0.49050 0.40720 -0.16900
Mg	Mg	0.87712 0.44086 0.08191 1.46200
O 	O 	0.94741 0.32640 0.80040 -0.53200
O 	O 	0.91690 0.24350 0.91330 -0.31400
O 	O 	0.88711 0.44470 0.92510 -0.70000
O 	O 	0.04575 0.05510 0.61660 -0.63400
O 	O 	0.69634 0.45280 0.44180 -0.49200
O 	O 	0.90468 0.53440 0.29320 -0.50300
O 	O 	0.86018 0.43800 0.23880 -0.51100
C 	C 	0.45610 0.69730 0.76050 -0.34500
H 	H 	0.43090 0.68520 0.71130 0.11200
H 	H 	0.46230 0.65300 0.80230 0.14500
C 	C 	0.43910 0.75990 0.83230 0.40500
H 	H 	0.47220 0.70730 0.55690 0.08200
C 	C 	0.29530 0.98770 0.40710 0.12400
H 	H 	0.27890 0.97750 0.34530 0.01600
C 	C 	0.37190 0.98750 0.30490 0.44800
C 	C 	0.34460 0.99050 0.40720 -0.15000
Mg	Mg	0.37712 0.94086 0.08191 1.46300
O 	O 	0.44741 0.82640 0.80040 -0.53100
O 	O 	0.41690 0.74350 0.91330 -0.31100
O 	O 	0.38711 0.94470 0.92510 -0.68900
O 	O 	0.54575 0.55510 0.61660 -0.62500
O 	O 	0.19634 0.95280 0.44180 -0.47300
O 	O 	0.40468 0.03440 0.29320 -0.52000
O 	O 	0.36018 0.93800 0.23880 -0.51300
C 	C 	0.04390 0.30270 0.26050 -0.34300
H 	H 	0.06910 0.31480 0.21130 0.10800
H 	H 	0.03770 0.34700 0.30230 0.14300
C 	C 	0.06090 0.24010 0.33230 0.40400
H 	H 	0.02780 0.29270 0.05690 0.07100
C 	C 	0.20470 0.01230 0.90710 0.11400
H 	H 	0.22110 0.02250 0.84530 0.01700
C 	C 	0.12810 0.01250 0.80490 0.39400
C 	C 	0.15540 0.00950 0.90720 -0.13400
Mg	Mg	0.12288 0.05914 0.58191 1.46300
O 	O 	0.05259 0.17360 0.30040 -0.53400
O 	O 	0.08310 0.25650 0.41330 -0.32200
O 	O 	0.11289 0.05530 0.42510 -0.71900
O 	O 	0.95425 0.44490 0.11660 -0.62900
O 	O 	0.30366 0.04720 0.94180 -0.47000
O 	O 	0.09532 0.96560 0.79320 -0.47100
O 	O 	0.13982 0.06200 0.73880 -0.50300
C 	C 	0.54390 0.80270 0.26050 -0.34500
H 	H 	0.56910 0.81480 0.21130 0.10900
H 	H 	0.53770 0.84700 0.30230 0.14500
C 	C 	0.56090 0.74010 0.33230 0.40400
H 	H 	0.52780 0.79270 0.05690 0.07100
C 	C 	0.70470 0.51230 0.90710 0.12400
H 	H 	0.72110 0.52250 0.84530 0.01600
C 	C 	0.62810 0.51250 0.80490 0.42300
C 	C 	0.65540 0.50950 0.90720 -0.14100
Mg	Mg	0.62288 0.55914 0.58191 1.46300
O 	O 	0.55259 0.67360 0.30040 -0.53400
O 	O 	0.58310 0.75650 0.41330 -0.32000
O 	O 	0.61289 0.55530 0.42510 -0.71100
O 	O 	0.45425 0.94490 0.11660 -0.62000
O 	O 	0.80366 0.54720 0.94180 -0.46600
O 	O 	0.59532 0.46560 0.79320 -0.49600
O 	O 	0.63982 0.56200 0.73880 -0.50600
P 	P 	0.00000 0.41305 0.06898 0.48800
N 	N 	0.00000 0.28280 0.20130 -0.09700
C 	C 	-0.00000 0.31310 0.09210 -0.26600
Ni	Ni	-0.00000 0.16508 0.18850 1.05000
O 	O 	-0.00000 0.05830 0.23620 -0.63800
O 	O 	-0.00000 0.41840 0.94960 -0.57100
P 	P 	0.50000 0.91305 0.06898 0.48400
N 	N 	0.50000 0.78280 0.20130 -0.09700
C 	C 	0.50000 0.81310 0.09210 -0.26800
Ni	Ni	0.50000 0.66508 0.18850 1.04900
O 	O 	0.50000 0.55830 0.23620 -0.63400
O 	O 	0.50000 0.91840 0.94960 -0.56500
P 	P 	0.00000 0.08695 0.56898 0.50500
N 	N 	0.00000 0.21720 0.70130 -0.09500
C 	C 	0.00000 0.18690 0.59210 -0.27400
Ni	Ni	0.00000 0.33492 0.68850 1.05200
O 	O 	0.00000 0.44170 0.73620 -0.63100
O 	O 	0.00000 0.08160 0.44960 -0.59100
P 	P 	0.50000 0.58695 0.56898 0.50500
N 	N 	0.50000 0.71720 0.70130 -0.09500
C 	C 	0.50000 0.68690 0.59210 -0.27800
Ni	Ni	0.50000 0.83492 0.68850 1.05200
O 	O 	0.50000 0.94170 0.73620 -0.62500
O 	O 	0.50000 0.58160 0.44960 -0.58800
P 	P 	0.00000 0.91305 0.43102 0.50600
N 	N 	0.00000 0.78280 0.29870 -0.09500
C 	C 	-0.00000 0.81310 0.40790 -0.27400
Ni	Ni	0.00000 0.66508 0.31150 1.05200
O 	O 	0.00000 0.55830 0.26380 -0.63100
O 	O 	-0.00000 0.91840 0.55040 -0.58300
P 	P 	0.50000 0.41305 0.43102 0.50500
N 	N 	0.50000 0.28280 0.29870 -0.09600
C 	C 	0.50000 0.31310 0.40790 -0.27700
Ni	Ni	0.50000 0.16508 0.31150 1.05100
O 	O 	0.50000 0.05830 0.26380 -0.63600
O 	O 	0.50000 0.41840 0.55040 -0.58800
P 	P 	0.00000 0.58695 0.93102 0.52400
N 	N 	0.00000 0.71720 0.79870 -0.09300
C 	C 	0.00000 0.68690 0.90790 -0.28400
Ni	Ni	0.00000 0.83492 0.81150 1.05600
O 	O 	0.00000 0.94170 0.76380 -0.62100
O 	O 	0.00000 0.58160 0.05040 -0.60400
P 	P 	0.50000 0.08695 0.93102 0.52000
N 	N 	0.50000 0.21720 0.79870 -0.09400
C 	C 	0.50000 0.18690 0.90790 -0.28500
Ni	Ni	0.50000 0.33492 0.81150 1.05400
O 	O 	0.50000 0.44170 0.76380 -0.62900
O 	O 	0.50000 0.08160 0.05040 -0.60700
C 	C 	0.71670 0.00000 -0.00000 0.38600
C 	C 	0.77000 0.00000 -0.00000 -0.18800
C 	C 	0.86880 0.00000 -0.00000 0.05200
H 	H 	0.90200 0.00000 -0.00000 0.00700
C 	C 	0.21670 0.50000 -0.00000 0.40000
C 	C 	0.27000 0.50000 -0.00000 -0.17800
C 	C 	0.36880 0.50000 -0.00000 0.07400
H 	H 	0.40200 0.50000 -0.00000 0.00500
C 	C 	0.28330 0.50000 0.50000 0.42500
C 	C 	0.23000 0.50000 0.50000 -0.16100
C 	C 	0.13120 0.50000 0.50000 0.11200
H 	H 	0.09800 0.50000 0.50000 -0.00000
C 	C 	0.78330 0.00000 0.50000 0.40500
C 	C 	0.73000 0.00000 0.50000 -0.17500
C 	C 	0.63120 0.00000 0.50000 0.08000
H 	H 	0.59800 0.00000 0.50000 0.00400
C 	C 	0.28330 0.00000 -0.00000 0.38600
C 	C 	0.23000 0.00000 -0.00000 -0.18700
C 	C 	0.13120 0.00000 -0.00000 0.05200
H 	H 	0.09800 0.00000 -0.00000 0.00800
C 	C 	0.78330 0.50000 -0.00000 0.40000
C 	C 	0.73000 0.50000 -0.00000 -0.17800
C 	C 	0.63120 0.50000 -0.00000 0.07400
H 	H 	0.59800 0.50000 -0.00000 0.00500
C 	C 	0.71670 0.50000 0.50000 0.42500
C 	C 	0.77000 0.50000 0.50000 -0.16100
C 	C 	0.86880 0.50000 0.50000 0.11200
H 	H 	0.90200 0.50000 0.50000 -0.00100
C 	C 	0.21670 0.00000 0.50000 0.40500
C 	C 	0.27000 0.00000 0.50000 -0.17500
C 	C 	0.36880 0.00000 0.50000 0.08000
H 	H 	0.40200 0.00000 0.50000 0.00400
