data_crystal

_cell_length_a 20.89350
_cell_length_b 16.03320
_cell_length_c 28.16940
_cell_angle_alpha 90.00000
_cell_angle_beta  90.00000
_cell_angle_gamma 90.00000

_symmetry_space_group_name_	'P 1'
_symmetry_space_group_name_H-M	'P 1'

loop_
_symmetry_equiv_pos_as_xyz
  x,y,z

loop_
_atom_site_label
_atom_site_type_symbol
_atom_site_fract_x
_atom_site_fract_y
_atom_site_fract_z
_atom_site_charge
Co	Co	0.84315 0.24881 0.83513 1.14900
N 	N 	0.79630 0.36000 0.81730 -0.19800
N 	N 	0.88390 0.24830 0.76370 -0.18900
O 	O 	0.89750 0.14310 0.84740 -0.44700
O 	O 	0.76370 0.18550 0.81090 -0.44500
O 	O 	0.81020 0.24730 0.90500 -0.52700
C 	C 	0.73390 0.38450 0.81910 0.10100
N 	N 	0.82750 0.43340 0.81110 -0.18000
C 	C 	0.72890 0.46980 0.81460 -0.11800
H 	H 	0.86840 0.43810 0.80900 0.12000
C 	C 	0.78750 0.49640 0.80870 0.12000
C 	C 	0.67150 0.52630 0.82270 0.25400
H 	H 	0.79910 0.55170 0.80370 0.00000
N 	N 	0.61620 0.48480 0.82820 -0.15500
O 	O 	0.67760 0.60040 0.82550 -0.23800
C 	C 	0.55550 0.52120 0.83630 0.11800
C 	C 	0.50490 0.46140 0.84560 -0.06700
C 	C 	0.54370 0.60460 0.84140 -0.08500
H 	H 	0.51260 0.40440 0.84350 0.07400
C 	C 	0.44420 0.49130 0.85780 -0.06600
C 	C 	0.48370 0.63190 0.85650 -0.06500
H 	H 	0.57570 0.64320 0.83470 0.10400
C 	C 	0.43330 0.57270 0.86400 0.01100
C 	C 	0.39050 0.42760 0.86690 0.38300
C 	C 	0.47200 0.72310 0.86050 0.32500
H 	H 	0.39300 0.59100 0.87330 0.03200
O 	O 	0.34670 0.44810 0.89360 -0.45400
O 	O 	0.42500 0.75240 0.88300 -0.52600
O 	O 	0.51140 0.77230 0.84140 -0.37800
Co	Co	0.27677 0.37802 0.92494 1.16900
Co	Co	0.45832 0.87824 0.86409 1.17100
Co	Co	0.39153 0.75059 0.95422 1.14600
O 	O 	0.51030 0.97140 0.83280 -0.41300
O 	O 	0.38780 0.94990 0.89550 -0.44500
O 	O 	0.51760 0.88990 0.92160 -0.39900
C 	C 	0.50280 0.01350 0.79640 0.35700
O 	O 	0.45420 0.01720 0.77320 -0.30300
C 	C 	0.55970 0.06040 0.77870 -0.05300
C 	C 	0.56040 0.09530 0.73390 -0.08600
C 	C 	0.61120 0.07620 0.81070 -0.00400
H 	H 	0.52520 0.08870 0.71410 0.08800
C 	C 	0.61260 0.13960 0.71820 0.11900
C 	C 	0.66380 0.12160 0.79610 -0.05200
H 	H 	0.60930 0.05580 0.84160 0.06700
N 	N 	0.61390 0.17040 0.67090 -0.14800
C 	C 	0.66670 0.15210 0.74880 -0.07700
C 	C 	0.72140 0.14150 0.82760 0.39000
O 	O 	0.71520 0.11260 0.86830 -0.41900
O 	O 	0.72100 0.03320 0.95650 -0.37800
O 	O 	0.72720 0.22930 0.95060 -0.38600
C 	C 	0.63890 0.24240 0.65610 0.22400
H 	H 	0.70300 0.17970 0.73780 0.09100
C 	C 	0.76350 0.27760 0.93030 0.32600
O 	O 	0.65800 0.29640 0.68680 -0.20900
C 	C 	0.64080 0.26120 0.60780 -0.08800
C 	C 	0.75360 0.36790 0.93440 -0.06800
C 	C 	0.62110 0.21760 0.56530 0.07200
C 	C 	0.67460 0.33120 0.58980 0.09200
C 	C 	0.80460 0.42280 0.92610 0.00200
C 	C 	0.69560 0.39740 0.94960 -0.08200
N 	N 	0.64340 0.25320 0.52420 -0.19000
H 	H 	0.59580 0.16990 0.56580 0.02500
N 	N 	0.67410 0.32480 0.54310 -0.17400
H 	H 	0.69340 0.37350 0.60760 0.02400
H 	H 	0.84490 0.40300 0.91780 0.03300
C 	C 	0.79260 0.50950 0.93090 -0.05500
C 	C 	0.68500 0.48290 0.95090 0.11900
H 	H 	0.66360 0.36050 0.95890 0.10100
H 	H 	0.69150 0.36180 0.52510 0.12400
C 	C 	0.73240 0.53840 0.94620 -0.08600
C 	C 	0.84450 0.57370 0.92110 0.37400
N 	N 	0.62330 0.51810 0.96580 -0.14700
H 	H 	0.72570 0.59460 0.95280 0.08400
O 	O 	0.83720 0.64620 0.94000 -0.44600
C 	C 	0.56650 0.47870 0.97250 0.21600
O 	O 	0.56250 0.39910 0.97240 -0.21600
C 	C 	0.51030 0.53030 0.97360 -0.09200
C 	C 	0.44870 0.49470 0.97290 0.07800
C 	C 	0.49960 0.61830 0.97060 0.08700
N 	N 	0.40850 0.56230 0.97220 -0.16500
H 	H 	0.43780 0.43850 0.97290 0.01000
N 	N 	0.43980 0.63790 0.96850 -0.20100
H 	H 	0.53250 0.65740 0.97030 0.00900
H 	H 	0.36750 0.55800 0.97400 0.10500
O 	O 	0.46980 0.81350 0.97880 -0.41300
C 	C 	0.51790 0.86070 0.96250 0.32400
C 	C 	0.56780 0.88050 0.99860 -0.02900
C 	C 	0.62080 0.92800 0.98080 -0.08800
C 	C 	0.56440 0.85260 0.04220 -0.09300
H 	H 	0.62130 0.94890 0.95000 0.09400
C 	C 	0.66970 0.94080 0.01090 0.04800
C 	C 	0.61050 0.86830 0.07630 0.14500
H 	H 	0.52910 0.82060 0.05080 0.10700
C 	C 	0.66800 0.91540 0.05680 -0.12200
C 	C 	0.72840 0.99080 0.99380 0.23900
N 	N 	0.61190 0.84370 0.12160 -0.15800
H 	H 	0.70250 0.92680 0.07660 0.09800
O 	O 	0.78060 0.98200 0.01640 -0.25300
C 	C 	0.56710 0.79510 0.14410 0.24500
O 	O 	0.52420 0.76070 0.12130 -0.22400
C 	C 	0.57860 0.76820 0.19070 -0.11600
C 	C 	0.53520 0.71890 0.21720 0.10200
C 	C 	0.62510 0.78550 0.22630 0.11300
N 	N 	0.56220 0.70900 0.25750 -0.17300
H 	H 	0.49570 0.69830 0.20750 0.02200
H 	H 	0.65920 0.82190 0.22170 0.00700
H 	H 	0.54570 0.67820 0.27930 0.12000
Co	Co	0.15685 0.75119 0.33513 1.14800
N 	N 	0.20370 0.64000 0.31730 -0.19900
N 	N 	0.11610 0.75170 0.26370 -0.19000
O 	O 	0.10250 0.85690 0.34740 -0.44700
O 	O 	0.23630 0.81450 0.31090 -0.44600
O 	O 	0.18980 0.75270 0.40500 -0.52600
C 	C 	0.26610 0.61550 0.31910 0.10100
N 	N 	0.17250 0.56660 0.31110 -0.18000
C 	C 	0.27110 0.53020 0.31460 -0.11800
H 	H 	0.13160 0.56190 0.30900 0.12000
C 	C 	0.21250 0.50360 0.30870 0.12000
C 	C 	0.32850 0.47370 0.32270 0.25400
H 	H 	0.20090 0.44830 0.30370 0.00100
N 	N 	0.38380 0.51520 0.32820 -0.15500
O 	O 	0.32240 0.39960 0.32550 -0.23700
C 	C 	0.44450 0.47880 0.33630 0.11800
C 	C 	0.49510 0.53860 0.34560 -0.06700
C 	C 	0.45630 0.39540 0.34140 -0.08500
H 	H 	0.48740 0.59560 0.34350 0.07400
C 	C 	0.55580 0.50870 0.35780 -0.06600
C 	C 	0.51630 0.36810 0.35650 -0.06500
H 	H 	0.42430 0.35680 0.33470 0.10400
C 	C 	0.56670 0.42730 0.36400 0.01000
C 	C 	0.60950 0.57240 0.36690 0.38300
C 	C 	0.52800 0.27690 0.36050 0.32500
H 	H 	0.60700 0.40900 0.37330 0.03300
O 	O 	0.65330 0.55190 0.39360 -0.45300
O 	O 	0.57500 0.24760 0.38300 -0.52600
O 	O 	0.48860 0.22770 0.34140 -0.37700
Co	Co	0.72323 0.62198 0.42494 1.17100
Co	Co	0.54168 0.12176 0.36409 1.17100
Co	Co	0.60847 0.24941 0.45422 1.14900
O 	O 	0.48970 0.02860 0.33280 -0.41100
O 	O 	0.61220 0.05010 0.39550 -0.44400
O 	O 	0.48240 0.11010 0.42160 -0.39800
C 	C 	0.49720 0.98650 0.29640 0.35600
O 	O 	0.54580 0.98280 0.27320 -0.30200
C 	C 	0.44030 0.93960 0.27870 -0.05100
C 	C 	0.43960 0.90470 0.23390 -0.08600
C 	C 	0.38880 0.92380 0.31070 -0.00500
H 	H 	0.47480 0.91130 0.21410 0.08900
C 	C 	0.38740 0.86040 0.21820 0.12000
C 	C 	0.33620 0.87840 0.29610 -0.05100
H 	H 	0.39070 0.94420 0.34160 0.06700
N 	N 	0.38610 0.82960 0.17090 -0.14700
C 	C 	0.33330 0.84790 0.24880 -0.07700
C 	C 	0.27860 0.85850 0.32760 0.39000
O 	O 	0.28480 0.88740 0.36830 -0.41800
O 	O 	0.27900 0.96680 0.45650 -0.38800
O 	O 	0.27280 0.77070 0.45060 -0.38300
C 	C 	0.36110 0.75760 0.15610 0.22500
H 	H 	0.29700 0.82030 0.23780 0.09200
C 	C 	0.23650 0.72240 0.43030 0.32600
O 	O 	0.34200 0.70360 0.18680 -0.20800
C 	C 	0.35920 0.73880 0.10780 -0.08700
C 	C 	0.24640 0.63210 0.43440 -0.06600
C 	C 	0.37890 0.78240 0.06530 0.07400
C 	C 	0.32540 0.66880 0.08980 0.09500
C 	C 	0.19540 0.57720 0.42610 0.00100
C 	C 	0.30440 0.60260 0.44960 -0.08300
N 	N 	0.35660 0.74680 0.02420 -0.18200
H 	H 	0.40420 0.83010 0.06580 0.02900
N 	N 	0.32590 0.67520 0.04310 -0.17300
H 	H 	0.30660 0.62650 0.10760 0.02400
H 	H 	0.15510 0.59700 0.41780 0.03400
C 	C 	0.20740 0.49050 0.43090 -0.05300
C 	C 	0.31500 0.51710 0.45090 0.12200
H 	H 	0.33640 0.63950 0.45890 0.10300
H 	H 	0.30850 0.63820 0.02510 0.12900
C 	C 	0.26760 0.46160 0.44620 -0.08700
C 	C 	0.15550 0.42630 0.42110 0.37400
N 	N 	0.37670 0.48190 0.46580 -0.14500
H 	H 	0.27430 0.40540 0.45280 0.08700
O 	O 	0.16280 0.35380 0.44000 -0.44200
C 	C 	0.43350 0.52130 0.47250 0.21700
O 	O 	0.43750 0.60090 0.47240 -0.21300
C 	C 	0.48970 0.46970 0.47360 -0.09000
C 	C 	0.55130 0.50530 0.47290 0.08100
C 	C 	0.50040 0.38170 0.47060 0.08900
N 	N 	0.59150 0.43770 0.47220 -0.16500
H 	H 	0.56220 0.56150 0.47290 0.01100
N 	N 	0.56020 0.36210 0.46850 -0.19900
H 	H 	0.46750 0.34260 0.47030 0.01100
H 	H 	0.63250 0.44200 0.47400 0.11100
O 	O 	0.53020 0.18650 0.47880 -0.40600
C 	C 	0.48210 0.13930 0.46250 0.32200
C 	C 	0.43220 0.11950 0.49860 -0.01600
C 	C 	0.37920 0.07200 0.48080 -0.04600
C 	C 	0.43560 0.14740 0.54220 -0.11700
H 	H 	0.37870 0.05110 0.45000 0.08100
C 	C 	0.33030 0.05920 0.51090 -0.01200
C 	C 	0.38950 0.13170 0.57630 0.14100
H 	H 	0.47090 0.17940 0.55080 0.10900
C 	C 	0.33200 0.08460 0.55680 -0.10000
C 	C 	0.27160 0.00920 0.49380 0.29200
N 	N 	0.38810 0.15630 0.62160 -0.15900
H 	H 	0.29750 0.07320 0.57660 0.08800
O 	O 	0.21940 0.01800 0.51640 -0.28200
C 	C 	0.43290 0.20490 0.64410 0.24400
O 	O 	0.47580 0.23930 0.62130 -0.22600
C 	C 	0.42140 0.23180 0.69070 -0.11700
C 	C 	0.46480 0.28110 0.71720 0.10200
C 	C 	0.37490 0.21450 0.72630 0.11300
N 	N 	0.43780 0.29100 0.75750 -0.17300
H 	H 	0.50430 0.30170 0.70750 0.02100
H 	H 	0.34080 0.17810 0.72170 0.00600
H 	H 	0.45430 0.32180 0.77930 0.12000
Co	Co	0.34315 0.25119 0.83513 1.14800
N 	N 	0.29630 0.14000 0.81730 -0.19900
N 	N 	0.38390 0.25170 0.76370 -0.19000
O 	O 	0.39750 0.35690 0.84740 -0.44800
O 	O 	0.26370 0.31450 0.81090 -0.44600
O 	O 	0.31020 0.25270 0.90500 -0.52700
C 	C 	0.23390 0.11550 0.81910 0.10100
N 	N 	0.32750 0.06660 0.81110 -0.18000
C 	C 	0.22890 0.03020 0.81460 -0.11800
H 	H 	0.36840 0.06190 0.80900 0.12000
C 	C 	0.28750 0.00360 0.80870 0.12000
C 	C 	0.17150 0.97370 0.82270 0.25500
H 	H 	0.29910 0.94830 0.80370 0.00000
N 	N 	0.11620 0.01520 0.82820 -0.15600
O 	O 	0.17760 0.89960 0.82550 -0.23800
C 	C 	0.05550 0.97880 0.83630 0.11900
C 	C 	0.00490 0.03860 0.84560 -0.06900
C 	C 	0.04370 0.89540 0.84140 -0.08500
H 	H 	0.01260 0.09560 0.84350 0.07500
C 	C 	0.94420 0.00870 0.85780 -0.06400
C 	C 	0.98370 0.86810 0.85650 -0.06500
H 	H 	0.07570 0.85680 0.83470 0.10400
C 	C 	0.93330 0.92730 0.86400 0.00800
C 	C 	0.89050 0.07240 0.86690 0.38300
C 	C 	0.97200 0.77690 0.86050 0.32400
H 	H 	0.89300 0.90900 0.87330 0.03200
O 	O 	0.84670 0.05190 0.89360 -0.45300
O 	O 	0.92500 0.74760 0.88300 -0.52600
O 	O 	0.01140 0.72770 0.84140 -0.37700
Co	Co	0.77677 0.12198 0.92494 1.16900
Co	Co	0.95832 0.62176 0.86409 1.17000
Co	Co	0.89153 0.74941 0.95422 1.14600
O 	O 	0.01030 0.52860 0.83280 -0.41200
O 	O 	0.88780 0.55010 0.89550 -0.44500
O 	O 	0.01760 0.61010 0.92160 -0.39900
C 	C 	0.00280 0.48650 0.79640 0.35700
O 	O 	0.95420 0.48280 0.77320 -0.30300
C 	C 	0.05970 0.43960 0.77870 -0.05300
C 	C 	0.06040 0.40470 0.73390 -0.08600
C 	C 	0.11120 0.42380 0.81070 -0.00400
H 	H 	0.02520 0.41130 0.71410 0.08800
C 	C 	0.11260 0.36040 0.71820 0.11900
C 	C 	0.16380 0.37840 0.79610 -0.05200
H 	H 	0.10930 0.44420 0.84160 0.06700
N 	N 	0.11390 0.32960 0.67090 -0.14800
C 	C 	0.16670 0.34790 0.74880 -0.07700
C 	C 	0.22140 0.35850 0.82760 0.39000
O 	O 	0.21520 0.38740 0.86830 -0.41900
O 	O 	0.22100 0.46680 0.95650 -0.37900
O 	O 	0.22720 0.27070 0.95060 -0.38600
C 	C 	0.13890 0.25760 0.65610 0.22400
H 	H 	0.20300 0.32030 0.73780 0.09100
C 	C 	0.26350 0.22240 0.93030 0.32600
O 	O 	0.15800 0.20360 0.68680 -0.20900
C 	C 	0.14080 0.23880 0.60780 -0.08800
C 	C 	0.25360 0.13210 0.93440 -0.06800
C 	C 	0.12110 0.28240 0.56530 0.07200
C 	C 	0.17460 0.16880 0.58980 0.09200
C 	C 	0.30460 0.07720 0.92610 0.00200
C 	C 	0.19560 0.10260 0.94960 -0.08200
N 	N 	0.14340 0.24680 0.52420 -0.19000
H 	H 	0.09580 0.33010 0.56580 0.02500
N 	N 	0.17410 0.17520 0.54310 -0.17400
H 	H 	0.19340 0.12650 0.60760 0.02400
H 	H 	0.34490 0.09700 0.91780 0.03300
C 	C 	0.29260 0.99050 0.93090 -0.05500
C 	C 	0.18500 0.01710 0.95090 0.11900
H 	H 	0.16360 0.13950 0.95890 0.10100
H 	H 	0.19150 0.13820 0.52510 0.12400
C 	C 	0.23240 0.96160 0.94620 -0.08600
C 	C 	0.34450 0.92630 0.92110 0.37400
N 	N 	0.12330 0.98190 0.96580 -0.14600
H 	H 	0.22570 0.90540 0.95280 0.08400
O 	O 	0.33720 0.85380 0.94000 -0.44600
C 	C 	0.06650 0.02130 0.97250 0.21400
O 	O 	0.06250 0.10090 0.97240 -0.21500
C 	C 	0.01030 0.96970 0.97360 -0.08900
C 	C 	0.94870 0.00530 0.97290 0.07800
C 	C 	0.99960 0.88170 0.97060 0.08300
N 	N 	0.90850 0.93770 0.97220 -0.16500
H 	H 	0.93780 0.06150 0.97290 0.01000
N 	N 	0.93980 0.86210 0.96850 -0.20100
H 	H 	0.03250 0.84260 0.97030 0.01100
H 	H 	0.86750 0.94200 0.97400 0.10500
O 	O 	0.96980 0.68650 0.97880 -0.41400
C 	C 	0.01790 0.63930 0.96250 0.32500
C 	C 	0.06780 0.61950 0.99860 -0.02900
C 	C 	0.12080 0.57200 0.98080 -0.08600
C 	C 	0.06440 0.64740 0.04220 -0.09400
H 	H 	0.12130 0.55110 0.95000 0.09300
C 	C 	0.16970 0.55920 0.01090 0.04500
C 	C 	0.11050 0.63170 0.07630 0.14500
H 	H 	0.02910 0.67940 0.05080 0.10700
C 	C 	0.16800 0.58460 0.05680 -0.12100
C 	C 	0.22840 0.50920 0.99380 0.24200
N 	N 	0.11190 0.65630 0.12160 -0.15800
H 	H 	0.20250 0.57320 0.07660 0.09700
O 	O 	0.28060 0.51800 0.01640 -0.25400
C 	C 	0.06710 0.70490 0.14410 0.24500
O 	O 	0.02420 0.73930 0.12130 -0.22400
C 	C 	0.07860 0.73180 0.19070 -0.11500
C 	C 	0.03520 0.78110 0.21720 0.10200
C 	C 	0.12510 0.71450 0.22630 0.11300
N 	N 	0.06220 0.79100 0.25750 -0.17300
H 	H 	0.99570 0.80170 0.20750 0.02200
H 	H 	0.15920 0.67810 0.22170 0.00700
H 	H 	0.04570 0.82180 0.27930 0.12000
Co	Co	0.65685 0.74881 0.33513 1.14800
N 	N 	0.70370 0.86000 0.31730 -0.19900
N 	N 	0.61610 0.74830 0.26370 -0.19000
O 	O 	0.60250 0.64310 0.34740 -0.44800
O 	O 	0.73630 0.68550 0.31090 -0.44600
O 	O 	0.68980 0.74730 0.40500 -0.52600
C 	C 	0.76610 0.88450 0.31910 0.10100
N 	N 	0.67250 0.93340 0.31110 -0.18000
C 	C 	0.77110 0.96980 0.31460 -0.11800
H 	H 	0.63160 0.93810 0.30900 0.12000
C 	C 	0.71250 0.99640 0.30870 0.11900
C 	C 	0.82850 0.02630 0.32270 0.25500
H 	H 	0.70090 0.05170 0.30370 0.00100
N 	N 	0.88380 0.98480 0.32820 -0.15600
O 	O 	0.82240 0.10040 0.32550 -0.23700
C 	C 	0.94450 0.02120 0.33630 0.12000
C 	C 	0.99510 0.96140 0.34560 -0.07000
C 	C 	0.95630 0.10460 0.34140 -0.08500
H 	H 	0.98740 0.90440 0.34350 0.07500
C 	C 	0.05580 0.99130 0.35780 -0.06400
C 	C 	0.01630 0.13190 0.35650 -0.06500
H 	H 	0.92430 0.14320 0.33470 0.10400
C 	C 	0.06670 0.07270 0.36400 0.00800
C 	C 	0.10950 0.92760 0.36690 0.38300
C 	C 	0.02800 0.22310 0.36050 0.32400
H 	H 	0.10700 0.09100 0.37330 0.03300
O 	O 	0.15330 0.94810 0.39360 -0.45200
O 	O 	0.07500 0.25240 0.38300 -0.52600
O 	O 	0.98860 0.27230 0.34140 -0.37600
Co	Co	0.22323 0.87802 0.42494 1.17100
Co	Co	0.04168 0.37824 0.36409 1.17100
Co	Co	0.10847 0.25059 0.45422 1.14900
O 	O 	0.98970 0.47140 0.33280 -0.41100
O 	O 	0.11220 0.44990 0.39550 -0.44400
O 	O 	0.98240 0.38990 0.42160 -0.39800
C 	C 	0.99720 0.51350 0.29640 0.35700
O 	O 	0.04580 0.51720 0.27320 -0.30300
C 	C 	0.94030 0.56040 0.27870 -0.05100
C 	C 	0.93960 0.59530 0.23390 -0.08600
C 	C 	0.88880 0.57620 0.31070 -0.00500
H 	H 	0.97480 0.58870 0.21410 0.08900
C 	C 	0.88740 0.63960 0.21820 0.12000
C 	C 	0.83620 0.62160 0.29610 -0.05100
H 	H 	0.89070 0.55580 0.34160 0.06700
N 	N 	0.88610 0.67040 0.17090 -0.14700
C 	C 	0.83330 0.65210 0.24880 -0.07700
C 	C 	0.77860 0.64150 0.32760 0.39000
O 	O 	0.78480 0.61260 0.36830 -0.41800
O 	O 	0.77900 0.53320 0.45650 -0.38800
O 	O 	0.77280 0.72930 0.45060 -0.38300
C 	C 	0.86110 0.74240 0.15610 0.22500
H 	H 	0.79700 0.67970 0.23780 0.09200
C 	C 	0.73650 0.77760 0.43030 0.32600
O 	O 	0.84200 0.79640 0.18680 -0.20800
C 	C 	0.85920 0.76120 0.10780 -0.08700
C 	C 	0.74640 0.86790 0.43440 -0.06600
C 	C 	0.87890 0.71760 0.06530 0.07400
C 	C 	0.82540 0.83120 0.08980 0.09500
C 	C 	0.69540 0.92280 0.42610 0.00100
C 	C 	0.80440 0.89740 0.44960 -0.08200
N 	N 	0.85660 0.75320 0.02420 -0.18200
H 	H 	0.90420 0.66990 0.06580 0.02900
N 	N 	0.82590 0.82480 0.04310 -0.17300
H 	H 	0.80660 0.87350 0.10760 0.02400
H 	H 	0.65510 0.90300 0.41780 0.03400
C 	C 	0.70740 0.00950 0.43090 -0.05300
C 	C 	0.81500 0.98290 0.45090 0.12000
H 	H 	0.83640 0.86050 0.45890 0.10300
H 	H 	0.80850 0.86180 0.02510 0.12900
C 	C 	0.76760 0.03840 0.44620 -0.08500
C 	C 	0.65550 0.07370 0.42110 0.37400
N 	N 	0.87670 0.01810 0.46580 -0.14400
H 	H 	0.77430 0.09460 0.45280 0.08700
O 	O 	0.66280 0.14620 0.44000 -0.44200
C 	C 	0.93350 0.97870 0.47250 0.21500
O 	O 	0.93750 0.89910 0.47240 -0.21300
C 	C 	0.98970 0.03030 0.47360 -0.08700
C 	C 	0.05130 0.99470 0.47290 0.07900
C 	C 	0.00040 0.11830 0.47060 0.08500
N 	N 	0.09150 0.06230 0.47220 -0.16500
H 	H 	0.06220 0.93850 0.47290 0.01200
N 	N 	0.06020 0.13790 0.46850 -0.19800
H 	H 	0.96750 0.15740 0.47030 0.01300
H 	H 	0.13250 0.05800 0.47400 0.11100
O 	O 	0.03020 0.31350 0.47880 -0.40600
C 	C 	0.98210 0.36070 0.46250 0.32200
C 	C 	0.93220 0.38050 0.49860 -0.01700
C 	C 	0.87920 0.42800 0.48080 -0.04600
C 	C 	0.93560 0.35260 0.54220 -0.11600
H 	H 	0.87870 0.44890 0.45000 0.08100
C 	C 	0.83030 0.44080 0.51090 -0.01200
C 	C 	0.88950 0.36830 0.57630 0.14100
H 	H 	0.97090 0.32060 0.55080 0.10900
C 	C 	0.83200 0.41540 0.55680 -0.10000
C 	C 	0.77160 0.49080 0.49380 0.29200
N 	N 	0.88810 0.34370 0.62160 -0.15900
H 	H 	0.79750 0.42680 0.57660 0.08800
O 	O 	0.71940 0.48200 0.51640 -0.28200
C 	C 	0.93290 0.29510 0.64410 0.24400
O 	O 	0.97580 0.26070 0.62130 -0.22600
C 	C 	0.92140 0.26820 0.69070 -0.11700
C 	C 	0.96480 0.21890 0.71720 0.10300
C 	C 	0.87490 0.28550 0.72630 0.11400
N 	N 	0.93780 0.20900 0.75750 -0.17300
H 	H 	0.00430 0.19830 0.70750 0.02000
H 	H 	0.84080 0.32190 0.72170 0.00600
H 	H 	0.95430 0.17820 0.77930 0.12000
