data_crystal

_cell_length_a 6.72600
_cell_length_b 11.29800
_cell_length_c 19.80760
_cell_angle_alpha 106.57000
_cell_angle_beta  91.12140
_cell_angle_gamma 90.00000

_symmetry_space_group_name_	'P 1'
_symmetry_space_group_name_H-M	'P 1'

loop_
_symmetry_equiv_pos_as_xyz
  x,y,z

loop_
_atom_site_label
_atom_site_type_symbol
_atom_site_fract_x
_atom_site_fract_y
_atom_site_fract_z
_atom_site_charge
Y 	Y 	0.81776 0.41895 0.25722 2.38000
Y 	Y 	0.68224 0.16173 0.74278 2.38100
Y 	Y 	0.18224 0.58105 0.74278 2.38000
Y 	Y 	0.31776 0.83827 0.25722 2.38100
H 	H 	0.81730 0.50980 0.53120 0.12000
H 	H 	0.62110 0.72830 0.54480 0.04500
H 	H 	0.64070 0.51850 0.42420 -0.03500
H 	H 	0.48890 0.74700 0.43020 0.17500
H 	H 	0.47430 0.33410 0.03580 0.12300
H 	H 	0.59350 0.57380 0.06460 0.02800
H 	H 	0.96900 0.25990 0.16980 0.04500
H 	H 	0.89400 0.15000 0.18400 0.17900
H 	H 	0.68270 0.97860 0.46880 0.12100
H 	H 	0.87890 0.18350 0.45520 0.04100
H 	H 	0.85930 0.09430 0.57580 -0.02800
H 	H 	0.01110 0.31680 0.56980 0.16300
H 	H 	0.02570 0.29830 0.96420 0.11600
H 	H 	0.90650 0.50920 0.93540 0.03000
H 	H 	0.53100 0.09010 0.83020 0.04500
H 	H 	0.60600 0.96600 0.81600 0.17900
H 	H 	0.18270 0.49020 0.46880 0.12000
H 	H 	0.37890 0.27170 0.45520 0.04500
H 	H 	0.35930 0.48150 0.57580 -0.03500
H 	H 	0.51110 0.25300 0.56980 0.17500
H 	H 	0.52570 0.66590 0.96420 0.12300
H 	H 	0.40650 0.42620 0.93540 0.02800
H 	H 	0.03100 0.74010 0.83020 0.04500
H 	H 	0.10600 0.85000 0.81600 0.17900
H 	H 	0.31730 0.02140 0.53120 0.12100
H 	H 	0.12110 0.81650 0.54480 0.04100
H 	H 	0.14070 0.90570 0.42420 -0.02800
H 	H 	0.98890 0.68320 0.43020 0.16300
H 	H 	0.97430 0.70170 0.03580 0.11600
H 	H 	0.09350 0.49080 0.06460 0.03000
H 	H 	0.46900 0.90990 0.16980 0.04500
H 	H 	0.39400 0.03400 0.18400 0.17900
C 	C 	0.83690 0.63840 0.63040 0.45400
C 	C 	0.77580 0.58880 0.55540 -0.24000
C 	C 	0.66560 0.65010 0.52060 -0.02500
C 	C 	0.61090 0.60060 0.44640 0.13100
C 	C 	0.52130 0.66510 0.40840 -0.40100
C 	C 	0.47110 0.61250 0.33340 0.58200
C 	C 	0.63010 0.41080 0.12960 0.39200
C 	C 	0.53720 0.40660 0.06160 -0.25000
C 	C 	0.53930 0.50020 0.03620 0.04000
C 	C 	0.66310 0.00800 0.36960 0.45600
C 	C 	0.72420 0.03340 0.44460 -0.24600
C 	C 	0.83440 0.12950 0.47940 -0.01400
C 	C 	0.88910 0.15420 0.55360 0.11300
C 	C 	0.97870 0.25670 0.59160 -0.37400
C 	C 	0.02890 0.27910 0.66660 0.56100
C 	C 	0.86990 0.28120 0.87040 0.38800
C 	C 	0.96280 0.34500 0.93840 -0.23800
C 	C 	0.96070 0.46400 0.96380 0.03700
C 	C 	0.16310 0.36160 0.36960 0.45400
C 	C 	0.22420 0.41120 0.44460 -0.24000
C 	C 	0.33440 0.34990 0.47940 -0.02500
C 	C 	0.38910 0.39940 0.55360 0.13100
C 	C 	0.47870 0.33490 0.59160 -0.40100
C 	C 	0.52890 0.38750 0.66660 0.58200
C 	C 	0.36990 0.58920 0.87040 0.39200
C 	C 	0.46280 0.59340 0.93840 -0.25000
C 	C 	0.46070 0.49980 0.96380 0.04000
C 	C 	0.33690 0.99200 0.63040 0.45600
C 	C 	0.27580 0.96660 0.55540 -0.24600
C 	C 	0.16560 0.87050 0.52060 -0.01400
C 	C 	0.11090 0.84580 0.44640 0.11300
C 	C 	0.02130 0.74330 0.40840 -0.37400
C 	C 	0.97110 0.72090 0.33340 0.56100
C 	C 	0.13010 0.71880 0.12960 0.38800
C 	C 	0.03720 0.65500 0.06160 -0.23800
C 	C 	0.03930 0.53600 0.03620 0.03700
O 	O 	0.75210 0.72937 0.66894 -0.32900
O 	O 	0.98010 0.58242 0.64984 -0.59200
O 	O 	0.51780 0.50157 0.30234 -0.60000
O 	O 	0.87750 0.62429 0.30318 -0.62100
O 	O 	0.72640 0.50424 0.16368 -0.51900
O 	O 	0.61860 0.31898 0.15336 -0.51600
O 	O 	0.96980 0.22520 0.21120 -0.56400
O 	O 	0.74790 0.06043 0.33106 -0.33200
O 	O 	0.51990 0.93258 0.35016 -0.59600
O 	O 	0.98220 0.19923 0.69766 -0.59000
O 	O 	0.62250 0.32111 0.69682 -0.62500
O 	O 	0.77360 0.34056 0.83632 -0.51600
O 	O 	0.88140 0.16562 0.84664 -0.51300
O 	O 	0.53020 0.01400 0.78880 -0.56100
O 	O 	0.24790 0.27063 0.33106 -0.32900
O 	O 	0.01990 0.41758 0.35016 -0.59200
O 	O 	0.48220 0.49843 0.69766 -0.60000
O 	O 	0.12250 0.37571 0.69682 -0.62100
O 	O 	0.27360 0.49576 0.83632 -0.51900
O 	O 	0.38140 0.68102 0.84664 -0.51600
O 	O 	0.03020 0.77480 0.78880 -0.56400
O 	O 	0.25210 0.93957 0.66894 -0.33200
O 	O 	0.48010 0.06742 0.64984 -0.59600
O 	O 	0.01780 0.80077 0.30234 -0.59000
O 	O 	0.37750 0.67889 0.30318 -0.62500
O 	O 	0.22640 0.65944 0.16368 -0.51600
O 	O 	0.11860 0.83438 0.15336 -0.51300
O 	O 	0.46980 0.98600 0.21120 -0.56100
