data_crystal

_cell_length_a 37.73700
_cell_length_b 11.10200
_cell_length_c 6.81100
_cell_angle_alpha 90.00000
_cell_angle_beta  91.06000
_cell_angle_gamma 90.00000

_symmetry_space_group_name_	'P 1'
_symmetry_space_group_name_H-M	'P 1'

loop_
_symmetry_equiv_pos_as_xyz
  x,y,z

loop_
_atom_site_label
_atom_site_type_symbol
_atom_site_fract_x
_atom_site_fract_y
_atom_site_fract_z
_atom_site_charge
Er	Er	0.36868 0.29195 0.20090 1.54900
O 	O 	0.41660 0.42590 0.27950 -0.41200
O 	O 	0.42074 0.24360 0.39640 -0.43700
O 	O 	0.34838 0.35420 0.49940 -0.47500
O 	O 	0.34030 0.53020 0.64180 -0.46800
O 	O 	0.17670 0.26700 0.99520 -0.48200
O 	O 	0.16608 0.39270 0.23810 -0.33700
C 	C 	0.43340 0.34750 0.37880 0.36800
C 	C 	0.46870 0.37660 0.46580 -0.22300
H 	H 	0.48160 0.31530 0.52640 0.10700
C 	C 	0.48230 0.48500 0.46110 0.02700
H 	H 	0.46880 0.54640 0.40500 0.03000
C 	C 	0.32920 0.43700 0.55980 0.47600
C 	C 	0.29090 0.44790 0.50900 -0.09200
C 	C 	0.27420 0.36600 0.40700 0.02800
C 	C 	0.23840 0.38110 0.34400 0.12800
C 	C 	0.22260 0.31590 0.20700 -0.25200
C 	C 	0.18510 0.32190 0.15090 0.43800
C 	C 	0.28950 0.37900 0.60800 -0.05600
C 	C 	0.27380 0.31400 0.42900 -0.00300
C 	C 	0.23400 0.31000 0.43900 -0.06700
C 	C 	0.21830 0.24100 0.26000 0.14900
Er	Er	0.86868 0.79195 0.20090 1.55100
O 	O 	0.91660 0.92590 0.27950 -0.41100
O 	O 	0.92074 0.74360 0.39640 -0.43600
O 	O 	0.84838 0.85420 0.49940 -0.47400
O 	O 	0.84030 0.03020 0.64180 -0.46800
O 	O 	0.67670 0.76700 0.99520 -0.48400
O 	O 	0.66608 0.89270 0.23810 -0.33800
C 	C 	0.93340 0.84750 0.37880 0.36800
C 	C 	0.96870 0.87660 0.46580 -0.22300
H 	H 	0.98160 0.81530 0.52640 0.10700
C 	C 	0.98230 0.98500 0.46110 0.02700
H 	H 	0.96880 0.04640 0.40500 0.03000
C 	C 	0.82920 0.93700 0.55980 0.47600
C 	C 	0.79090 0.94790 0.50900 -0.09200
C 	C 	0.77420 0.86600 0.40700 0.02800
C 	C 	0.73840 0.88110 0.34400 0.12900
C 	C 	0.72260 0.81590 0.20700 -0.25300
C 	C 	0.68510 0.82190 0.15090 0.44000
C 	C 	0.78950 0.87900 0.60800 -0.05600
C 	C 	0.77380 0.81400 0.42900 -0.00300
C 	C 	0.73400 0.81000 0.43900 -0.06800
C 	C 	0.71830 0.74100 0.26000 0.15000
Er	Er	0.63132 0.29195 0.29910 1.55100
O 	O 	0.58340 0.42590 0.22050 -0.41000
O 	O 	0.57926 0.24360 0.10360 -0.43700
O 	O 	0.65162 0.35420 0.00060 -0.47300
O 	O 	0.65970 0.53020 0.85820 -0.46800
O 	O 	0.82330 0.26700 0.50480 -0.48200
O 	O 	0.83392 0.39270 0.26190 -0.33800
C 	C 	0.56660 0.34750 0.12120 0.36900
C 	C 	0.53130 0.37660 0.03420 -0.22300
H 	H 	0.51840 0.31530 0.97360 0.10700
C 	C 	0.51770 0.48500 0.03890 0.02700
H 	H 	0.53120 0.54640 0.09500 0.03100
C 	C 	0.67080 0.43700 0.94020 0.47500
C 	C 	0.70910 0.44790 0.99100 -0.09300
C 	C 	0.72580 0.36600 0.09300 0.02800
C 	C 	0.76160 0.38110 0.15600 0.13000
C 	C 	0.77740 0.31590 0.29300 -0.25300
C 	C 	0.81490 0.32190 0.34910 0.43800
C 	C 	0.71050 0.37900 0.89200 -0.05600
C 	C 	0.72620 0.31400 0.07100 -0.00300
C 	C 	0.76600 0.31000 0.06100 -0.07000
C 	C 	0.78170 0.24100 0.24000 0.15000
Er	Er	0.13132 0.79195 0.29910 1.55100
O 	O 	0.08340 0.92590 0.22050 -0.41000
O 	O 	0.07926 0.74360 0.10360 -0.43600
O 	O 	0.15162 0.85420 0.00060 -0.47000
O 	O 	0.15970 0.03020 0.85820 -0.46600
O 	O 	0.32330 0.76700 0.50480 -0.48200
O 	O 	0.33392 0.89270 0.26190 -0.33700
C 	C 	0.06660 0.84750 0.12120 0.36800
C 	C 	0.03130 0.87660 0.03420 -0.21900
H 	H 	0.01840 0.81530 0.97360 0.10400
C 	C 	0.01770 0.98500 0.03890 0.02800
H 	H 	0.03120 0.04640 0.09500 0.02800
C 	C 	0.17080 0.93700 0.94020 0.47100
C 	C 	0.20910 0.94790 0.99100 -0.09400
C 	C 	0.22580 0.86600 0.09300 0.02800
C 	C 	0.26160 0.88110 0.15600 0.12900
C 	C 	0.27740 0.81590 0.29300 -0.25200
C 	C 	0.31490 0.82190 0.34910 0.43800
C 	C 	0.21050 0.87900 0.89200 -0.05700
C 	C 	0.22620 0.81400 0.07100 -0.00100
C 	C 	0.26600 0.81000 0.06100 -0.06800
C 	C 	0.28170 0.74100 0.24000 0.14900
Er	Er	0.63132 0.70805 0.79910 1.55000
O 	O 	0.58340 0.57410 0.72050 -0.41100
O 	O 	0.57926 0.75640 0.60360 -0.43600
O 	O 	0.65162 0.64580 0.50060 -0.47400
O 	O 	0.65970 0.46980 0.35820 -0.46800
O 	O 	0.82330 0.73300 0.00480 -0.48200
O 	O 	0.83392 0.60730 0.76190 -0.33700
C 	C 	0.56660 0.65250 0.62120 0.36800
C 	C 	0.53130 0.62340 0.53420 -0.22300
H 	H 	0.51840 0.68470 0.47360 0.10700
C 	C 	0.51770 0.51500 0.53890 0.02700
H 	H 	0.53120 0.45360 0.59500 0.03000
C 	C 	0.67080 0.56300 0.44020 0.47600
C 	C 	0.70910 0.55210 0.49100 -0.09200
C 	C 	0.72580 0.63400 0.59300 0.02800
C 	C 	0.76160 0.61890 0.65600 0.12800
C 	C 	0.77740 0.68410 0.79300 -0.25200
C 	C 	0.81490 0.67810 0.84910 0.43800
C 	C 	0.71050 0.62100 0.39200 -0.05600
C 	C 	0.72620 0.68600 0.57100 -0.00300
C 	C 	0.76600 0.69000 0.56100 -0.06700
C 	C 	0.78170 0.75900 0.74000 0.14900
Er	Er	0.13132 0.20805 0.79910 1.55100
O 	O 	0.08340 0.07410 0.72050 -0.41100
O 	O 	0.07926 0.25640 0.60360 -0.43600
O 	O 	0.15162 0.14580 0.50060 -0.47400
O 	O 	0.15970 0.96980 0.35820 -0.46800
O 	O 	0.32330 0.23300 0.00480 -0.48400
O 	O 	0.33392 0.10730 0.76190 -0.33800
C 	C 	0.06660 0.15250 0.62120 0.36800
C 	C 	0.03130 0.12340 0.53420 -0.22300
H 	H 	0.01840 0.18470 0.47360 0.10700
C 	C 	0.01770 0.01500 0.53890 0.02700
H 	H 	0.03120 0.95360 0.59500 0.03000
C 	C 	0.17080 0.06300 0.44020 0.47600
C 	C 	0.20910 0.05210 0.49100 -0.09200
C 	C 	0.22580 0.13400 0.59300 0.02800
C 	C 	0.26160 0.11890 0.65600 0.12900
C 	C 	0.27740 0.18410 0.79300 -0.25300
C 	C 	0.31490 0.17810 0.84910 0.44000
C 	C 	0.21050 0.12100 0.39200 -0.05600
C 	C 	0.22620 0.18600 0.57100 -0.00300
C 	C 	0.26600 0.19000 0.56100 -0.06800
C 	C 	0.28170 0.25900 0.74000 0.15000
Er	Er	0.36868 0.70805 0.70090 1.55100
O 	O 	0.41660 0.57410 0.77950 -0.41000
O 	O 	0.42074 0.75640 0.89640 -0.43700
O 	O 	0.34838 0.64580 0.99940 -0.47300
O 	O 	0.34030 0.46980 0.14180 -0.46800
O 	O 	0.17670 0.73300 0.49520 -0.48200
O 	O 	0.16608 0.60730 0.73810 -0.33800
C 	C 	0.43340 0.65250 0.87880 0.36900
C 	C 	0.46870 0.62340 0.96580 -0.22300
H 	H 	0.48160 0.68470 0.02640 0.10700
C 	C 	0.48230 0.51500 0.96110 0.02700
H 	H 	0.46880 0.45360 0.90500 0.03100
C 	C 	0.32920 0.56300 0.05980 0.47500
C 	C 	0.29090 0.55210 0.00900 -0.09300
C 	C 	0.27420 0.63400 0.90700 0.02800
C 	C 	0.23840 0.61890 0.84400 0.13000
C 	C 	0.22260 0.68410 0.70700 -0.25300
C 	C 	0.18510 0.67810 0.65090 0.43800
C 	C 	0.28950 0.62100 0.10800 -0.05600
C 	C 	0.27380 0.68600 0.92900 -0.00300
C 	C 	0.23400 0.69000 0.93900 -0.07000
C 	C 	0.21830 0.75900 0.76000 0.15000
Er	Er	0.86868 0.20805 0.70090 1.55100
O 	O 	0.91660 0.07410 0.77950 -0.41000
O 	O 	0.92074 0.25640 0.89640 -0.43600
O 	O 	0.84838 0.14580 0.99940 -0.47000
O 	O 	0.84030 0.96980 0.14180 -0.46600
O 	O 	0.67670 0.23300 0.49520 -0.48200
O 	O 	0.66608 0.10730 0.73810 -0.33700
C 	C 	0.93340 0.15250 0.87880 0.36800
C 	C 	0.96870 0.12340 0.96580 -0.21900
H 	H 	0.98160 0.18470 0.02640 0.10400
C 	C 	0.98230 0.01500 0.96110 0.02800
H 	H 	0.96880 0.95360 0.90500 0.02800
C 	C 	0.82920 0.06300 0.05980 0.47100
C 	C 	0.79090 0.05210 0.00900 -0.09400
C 	C 	0.77420 0.13400 0.90700 0.02800
C 	C 	0.73840 0.11890 0.84400 0.12900
C 	C 	0.72260 0.18410 0.70700 -0.25200
C 	C 	0.68510 0.17810 0.65090 0.43800
C 	C 	0.78950 0.12100 0.10800 -0.05700
C 	C 	0.77380 0.18600 0.92900 -0.00100
C 	C 	0.73400 0.19000 0.93900 -0.06800
C 	C 	0.71830 0.25900 0.76000 0.14900
