data_crystal

_cell_length_a 12.60800
_cell_length_b 12.76900
_cell_length_c 21.87600
_cell_angle_alpha 98.05000
_cell_angle_beta  96.84000
_cell_angle_gamma 118.10900

_symmetry_space_group_name_	'P 1'
_symmetry_space_group_name_H-M	'P 1'

loop_
_symmetry_equiv_pos_as_xyz
  x,y,z

loop_
_atom_site_label
_atom_site_type_symbol
_atom_site_fract_x
_atom_site_fract_y
_atom_site_fract_z
_atom_site_charge
Er	Er	0.06169 0.54521 0.09497 1.67600
Er	Er	0.93109 0.95843 0.40296 1.83400
S 	S 	0.26109 0.98173 0.98692 0.27400
S 	S 	0.50720 0.29960 0.25286 0.27400
S 	S 	0.50697 0.73810 0.47699 0.27500
O 	O 	0.05290 0.37020 0.04510 -0.48800
O 	O 	0.02170 0.34340 0.94010 -0.48700
O 	O 	0.22280 0.90520 0.92460 -0.21400
O 	O 	0.24040 0.92830 0.04090 -0.22600
O 	O 	0.85550 0.41180 0.08820 -0.46200
O 	O 	0.84540 0.39540 0.98540 -0.51000
O 	O 	0.25870 0.62080 0.14220 -0.45900
O 	O 	0.30310 0.69980 0.24620 -0.28200
O 	O 	0.54660 0.26050 0.19910 -0.21700
O 	O 	0.58960 0.35050 0.31370 -0.22300
O 	O 	0.95740 0.91730 0.30590 -0.49400
O 	O 	0.96840 0.78910 0.22990 -0.29200
O 	O 	0.09130 0.91640 0.41500 -0.47700
O 	O 	0.14370 0.98100 0.51950 -0.53700
O 	O 	0.60000 0.79900 0.53400 -0.22600
O 	O 	0.54240 0.73070 0.41690 -0.26500
O 	O 	0.09520 0.14620 0.44460 -0.52700
O 	O 	0.14220 0.20550 0.55010 -0.52300
O 	O 	0.72530 0.83640 0.35030 -1.02700
H 	H 	0.67660 0.82150 0.37710 0.40600
H 	H 	0.74370 0.78970 0.35020 0.47900
C 	C 	0.05100 0.32040 0.99130 0.48100
C 	C 	0.09230 0.22580 0.98830 -0.14300
C 	C 	0.11860 0.18600 0.93290 0.04600
H 	H 	0.10230 0.21070 0.89550 0.03800
C 	C 	0.16870 0.10990 0.93240 -0.08600
H 	H 	0.18890 0.08380 0.89480 0.07300
C 	C 	0.18890 0.07240 0.98590 0.01100
C 	C 	0.15910 0.10840 0.04200 -0.09100
H 	H 	0.17070 0.08000 0.07870 0.07100
C 	C 	0.11220 0.18700 0.04160 0.05300
H 	H 	0.09340 0.21470 0.07920 0.02400
C 	C 	0.79650 0.36440 0.03130 0.45500
C 	C 	0.66380 0.26900 0.01940 -0.13500
C 	C 	0.61310 0.22600 0.06960 0.05100
H 	H 	0.66240 0.25770 0.11120 0.05200
C 	C 	0.48910 0.13580 0.05930 -0.07800
H 	H 	0.45430 0.10590 0.09350 0.08100
C 	C 	0.41930 0.09160 0.99950 0.00900
C 	C 	0.46960 0.13360 0.94840 -0.08300
H 	H 	0.42020 0.10220 0.90680 0.07500
C 	C 	0.59180 0.22090 0.95920 0.05200
H 	H 	0.62710 0.24840 0.92460 0.03500
C 	C 	0.30690 0.63340 0.19990 0.34100
C 	C 	0.36600 0.55790 0.21130 -0.09500
C 	C 	0.43700 0.57830 0.27060 0.00600
H 	H 	0.45320 0.64510 0.30290 0.05400
C 	C 	0.48400 0.50310 0.28320 -0.06000
H 	H 	0.53220 0.51830 0.32360 0.06100
C 	C 	0.45980 0.40440 0.23550 -0.00700
C 	C 	0.39050 0.38150 0.17650 -0.06400
H 	H 	0.37340 0.31370 0.14460 0.06100
C 	C 	0.34570 0.45970 0.16430 0.01100
H 	H 	0.30040 0.44590 0.12330 0.03300
C 	C 	0.01190 0.88890 0.26750 0.41900
C 	C 	0.13950 0.98850 0.26480 -0.13200
C 	C 	0.18360 0.98700 0.20960 0.04100
H 	H 	0.13580 0.92100 0.17420 0.02700
C 	C 	0.29580 0.08020 0.20580 -0.08500
H 	H 	0.32400 0.07980 0.16740 0.07300
C 	C 	0.36810 0.17550 0.25860 0.00700
C 	C 	0.32740 0.17660 0.31440 -0.08600
H 	H 	0.37760 0.23950 0.35090 0.07800
C 	C 	0.21080 0.08340 0.31650 0.05000
H 	H 	0.18040 0.08550 0.35400 0.02100
C 	C 	0.15230 0.22350 0.49580 0.49600
C 	C 	0.24300 0.35260 0.49130 -0.15700
C 	C 	0.26500 0.37810 0.43340 0.06400
H 	H 	0.22390 0.31470 0.39640 0.01600
C 	C 	0.34640 0.49550 0.42850 -0.09800
H 	H 	0.36070 0.51250 0.38840 0.07300
C 	C 	0.40620 0.58680 0.48260 0.01900
C 	C 	0.38560 0.56370 0.54110 -0.09900
H 	H 	0.42700 0.62760 0.57800 0.08600
C 	C 	0.30410 0.44690 0.54570 0.06500
H 	H 	0.28950 0.43050 0.58580 0.02200
C 	C 	0.15530 0.93500 0.46770 0.48300
C 	C 	0.25290 0.89690 0.46990 -0.15100
C 	C 	0.31590 0.90240 0.52780 0.06200
H 	H 	0.30380 0.93700 0.56590 0.01400
C 	C 	0.39710 0.85680 0.53000 -0.09600
H 	H 	0.44090 0.86030 0.56940 0.08000
C 	C 	0.41280 0.80670 0.47400 0.01700
C 	C 	0.35540 0.80500 0.41570 -0.09600
H 	H 	0.37080 0.77360 0.37790 0.08600
C 	C 	0.27340 0.85090 0.41390 0.05800
H 	H 	0.23220 0.85050 0.37440 0.03300
Er	Er	0.93831 0.45479 0.90503 1.67500
Er	Er	0.06891 0.04157 0.59704 1.83300
S 	S 	0.73891 0.01827 0.01308 0.27300
S 	S 	0.49280 0.70040 0.74714 0.27300
S 	S 	0.49303 0.26190 0.52301 0.27400
O 	O 	0.94710 0.62980 0.95490 -0.48900
O 	O 	0.97830 0.65660 0.05990 -0.48800
O 	O 	0.77720 0.09480 0.07540 -0.21500
O 	O 	0.75960 0.07170 0.95910 -0.22600
O 	O 	0.14450 0.58820 0.91180 -0.46200
O 	O 	0.15460 0.60460 0.01460 -0.51000
O 	O 	0.74130 0.37920 0.85780 -0.45900
O 	O 	0.69690 0.30020 0.75380 -0.28200
O 	O 	0.45340 0.73950 0.80090 -0.21700
O 	O 	0.41040 0.64950 0.68630 -0.22300
O 	O 	0.04260 0.08270 0.69410 -0.49400
O 	O 	0.03160 0.21090 0.77010 -0.29200
O 	O 	0.90870 0.08360 0.58500 -0.47700
O 	O 	0.85630 0.01900 0.48050 -0.53700
O 	O 	0.40000 0.20100 0.46600 -0.22600
O 	O 	0.45760 0.26930 0.58310 -0.26500
O 	O 	0.90480 0.85380 0.55540 -0.52700
O 	O 	0.85780 0.79450 0.44990 -0.52300
O 	O 	0.27470 0.16360 0.64970 -1.02700
H 	H 	0.32340 0.17850 0.62290 0.40600
H 	H 	0.25630 0.21030 0.64980 0.47900
C 	C 	0.94900 0.67960 0.00870 0.48100
C 	C 	0.90770 0.77420 0.01170 -0.14300
C 	C 	0.88140 0.81400 0.06710 0.04600
H 	H 	0.89770 0.78930 0.10450 0.03800
C 	C 	0.83130 0.89010 0.06760 -0.08600
H 	H 	0.81110 0.91620 0.10520 0.07300
C 	C 	0.81110 0.92760 0.01410 0.01100
C 	C 	0.84090 0.89160 0.95800 -0.09100
H 	H 	0.82930 0.92000 0.92130 0.07100
C 	C 	0.88780 0.81300 0.95840 0.05300
H 	H 	0.90660 0.78530 0.92080 0.02400
C 	C 	0.20350 0.63560 0.96870 0.45500
C 	C 	0.33620 0.73100 0.98060 -0.13500
C 	C 	0.38690 0.77400 0.93040 0.05100
H 	H 	0.33760 0.74230 0.88880 0.05200
C 	C 	0.51090 0.86420 0.94070 -0.07800
H 	H 	0.54570 0.89410 0.90650 0.08100
C 	C 	0.58070 0.90840 0.00050 0.00900
C 	C 	0.53040 0.86640 0.05160 -0.08300
H 	H 	0.57980 0.89780 0.09320 0.07500
C 	C 	0.40820 0.77910 0.04080 0.05200
H 	H 	0.37290 0.75160 0.07540 0.03500
C 	C 	0.69310 0.36660 0.80010 0.34100
C 	C 	0.63400 0.44210 0.78870 -0.09500
C 	C 	0.56300 0.42170 0.72940 0.00600
H 	H 	0.54680 0.35490 0.69710 0.05400
C 	C 	0.51600 0.49690 0.71680 -0.06000
H 	H 	0.46780 0.48170 0.67640 0.06100
C 	C 	0.54020 0.59560 0.76450 -0.00700
C 	C 	0.60950 0.61850 0.82350 -0.06400
H 	H 	0.62660 0.68630 0.85540 0.06100
C 	C 	0.65430 0.54030 0.83570 0.01100
H 	H 	0.69960 0.55410 0.87670 0.03300
C 	C 	0.98810 0.11110 0.73250 0.41900
C 	C 	0.86050 0.01150 0.73520 -0.13200
C 	C 	0.81640 0.01300 0.79040 0.04100
H 	H 	0.86420 0.07900 0.82580 0.02700
C 	C 	0.70420 0.91980 0.79420 -0.08500
H 	H 	0.67600 0.92020 0.83260 0.07300
C 	C 	0.63190 0.82450 0.74140 0.00700
C 	C 	0.67260 0.82340 0.68560 -0.08600
H 	H 	0.62240 0.76050 0.64910 0.07800
C 	C 	0.78920 0.91660 0.68350 0.05000
H 	H 	0.81960 0.91450 0.64600 0.02100
C 	C 	0.84770 0.77650 0.50420 0.49600
C 	C 	0.75700 0.64740 0.50870 -0.15700
C 	C 	0.73500 0.62190 0.56660 0.06400
H 	H 	0.77610 0.68530 0.60360 0.01600
C 	C 	0.65360 0.50450 0.57150 -0.09800
H 	H 	0.63930 0.48750 0.61160 0.07300
C 	C 	0.59380 0.41320 0.51740 0.01900
C 	C 	0.61440 0.43630 0.45890 -0.09900
H 	H 	0.57300 0.37240 0.42200 0.08600
C 	C 	0.69590 0.55310 0.45430 0.06500
H 	H 	0.71050 0.56950 0.41420 0.02200
C 	C 	0.84470 0.06500 0.53230 0.48300
C 	C 	0.74710 0.10310 0.53010 -0.15100
C 	C 	0.68410 0.09760 0.47220 0.06200
H 	H 	0.69620 0.06300 0.43410 0.01400
C 	C 	0.60290 0.14320 0.47000 -0.09600
H 	H 	0.55910 0.13970 0.43060 0.08000
C 	C 	0.58720 0.19330 0.52600 0.01700
C 	C 	0.64460 0.19500 0.58430 -0.09600
H 	H 	0.62920 0.22640 0.62210 0.08600
C 	C 	0.72660 0.14910 0.58610 0.05800
H 	H 	0.76780 0.14950 0.62560 0.03300
