data_crystal

_cell_length_a 6.65140
_cell_length_b 18.34700
_cell_length_c 8.43110
_cell_angle_alpha 90.00000
_cell_angle_beta  90.00000
_cell_angle_gamma 90.00000

_symmetry_space_group_name_	'P 1'
_symmetry_space_group_name_H-M	'P 1'

loop_
_symmetry_equiv_pos_as_xyz
  x,y,z

loop_
_atom_site_label
_atom_site_type_symbol
_atom_site_fract_x
_atom_site_fract_y
_atom_site_fract_z
_atom_site_charge
O 	O 	0.98730 0.05010 0.43040 -0.16100
O 	O 	0.66470 0.09510 0.22860 -0.39300
O 	O 	0.31940 0.25790 0.84720 -0.54900
C 	C 	0.23700 0.24400 0.97490 0.73400
H 	H 	0.21970 0.28260 0.04510 -0.24800
O 	O 	0.17510 0.18360 0.01820 -0.52800
O 	O 	0.48730 0.55010 0.43040 -0.52400
O 	O 	0.16470 0.59510 0.22860 -0.42200
O 	O 	0.81940 0.75790 0.84720 -0.43400
C 	C 	0.73700 0.74400 0.97490 0.73200
H 	H 	0.71970 0.78260 0.04510 -0.20000
O 	O 	0.67510 0.68360 0.01820 -0.50300
O 	O 	0.01270 0.94990 0.93040 -0.62800
O 	O 	0.33530 0.90490 0.72860 -0.41200
O 	O 	0.68060 0.74210 0.34720 -0.48200
C 	C 	0.76300 0.75600 0.47490 0.61500
H 	H 	0.78030 0.71740 0.54510 -0.13900
O 	O 	0.82490 0.81640 0.51820 -0.39400
O 	O 	0.51270 0.44990 0.93040 -0.48400
O 	O 	0.83530 0.40490 0.72860 -0.28900
O 	O 	0.18060 0.24210 0.34720 -0.52200
C 	C 	0.26300 0.25600 0.47490 0.61900
H 	H 	0.28030 0.21740 0.54510 -0.18800
O 	O 	0.32490 0.31640 0.51820 -0.49300
O 	O 	0.01270 0.05010 0.06960 -0.69500
O 	O 	0.33530 0.09510 0.27140 -0.43600
O 	O 	0.68060 0.25790 0.65280 -0.48500
C 	C 	0.76300 0.24400 0.52510 0.61900
H 	H 	0.78030 0.28260 0.45490 -0.14400
O 	O 	0.82490 0.18360 0.48180 -0.40100
O 	O 	0.51270 0.55010 0.06960 -0.51000
O 	O 	0.83530 0.59510 0.27140 -0.29300
O 	O 	0.18060 0.75790 0.65280 -0.52000
C 	C 	0.26300 0.74400 0.52510 0.61900
H 	H 	0.28030 0.78260 0.45490 -0.18700
O 	O 	0.32490 0.68360 0.48180 -0.49100
O 	O 	0.98730 0.94990 0.56960 -0.11300
O 	O 	0.66470 0.90490 0.77140 -0.36000
O 	O 	0.31940 0.74210 0.15280 -0.49100
C 	C 	0.23700 0.75600 0.02510 0.49900
H 	H 	0.21970 0.71740 0.95490 -0.13300
O 	O 	0.17510 0.81640 0.98180 -0.41800
O 	O 	0.48730 0.44990 0.56960 -0.52500
O 	O 	0.16470 0.40490 0.77140 -0.41300
O 	O 	0.81940 0.24210 0.15280 -0.37800
C 	C 	0.73700 0.25600 0.02510 0.48000
H 	H 	0.71970 0.21740 0.95490 -0.08000
O 	O 	0.67510 0.31640 0.98180 -0.39200
Er	Er	0.00000 0.14272 0.25000 1.71400
Er	Er	0.50000 0.64272 0.25000 2.07300
Er	Er	0.00000 0.85728 0.75000 1.72200
Er	Er	0.50000 0.35728 0.75000 2.08000
C 	C 	0.07590 0.00000 0.50000 -0.03300
H 	H 	0.21570 0.00000 0.50000 0.04100
C 	C 	0.57590 0.50000 0.50000 0.69100
H 	H 	0.71570 0.50000 0.50000 -0.15000
C 	C 	0.92410 0.00000 -0.00000 1.03400
H 	H 	0.78430 0.00000 -0.00000 -0.28200
C 	C 	0.42410 0.50000 -0.00000 0.64900
H 	H 	0.28430 0.50000 -0.00000 -0.19000
C 	C 	0.50000 0.12630 0.25000 0.54700
H 	H 	0.50000 0.17700 0.25000 -0.15200
C 	C 	0.00000 0.62630 0.25000 0.33700
H 	H 	0.00000 0.67700 0.25000 -0.14100
C 	C 	0.50000 0.87370 0.75000 0.54800
H 	H 	0.50000 0.82300 0.75000 -0.14600
C 	C 	0.00000 0.37370 0.75000 0.33600
H 	H 	0.00000 0.32300 0.75000 -0.13700
