data_crystal

_cell_length_a 6.65390
_cell_length_b 18.36060
_cell_length_c 8.43300
_cell_angle_alpha 90.00000
_cell_angle_beta  90.00000
_cell_angle_gamma 90.00000

_symmetry_space_group_name_	'P 1'
_symmetry_space_group_name_H-M	'P 1'

loop_
_symmetry_equiv_pos_as_xyz
  x,y,z

loop_
_atom_site_label
_atom_site_type_symbol
_atom_site_fract_x
_atom_site_fract_y
_atom_site_fract_z
_atom_site_charge
O 	O 	0.01190 0.45009 0.06960 -0.72900
O 	O 	0.33540 0.40574 0.27090 -0.42300
O 	O 	0.32540 0.18343 0.51860 -0.49600
O 	O 	0.17970 0.25820 0.34700 -0.52000
C 	C 	0.26400 0.24350 0.47550 0.61100
H 	H 	0.28220 0.28190 0.54590 -0.18300
O 	O 	0.51190 0.95009 0.06960 -0.44000
O 	O 	0.83540 0.90574 0.27090 -0.27400
O 	O 	0.82540 0.68343 0.51860 -0.40100
O 	O 	0.67970 0.75820 0.34700 -0.47800
C 	C 	0.76400 0.74350 0.47550 0.60500
H 	H 	0.78220 0.78190 0.54590 -0.13200
O 	O 	0.98810 0.54991 0.56960 -0.17900
O 	O 	0.66460 0.59426 0.77090 -0.36800
O 	O 	0.67460 0.81657 0.01860 -0.50800
O 	O 	0.82030 0.74180 0.84700 -0.43100
C 	C 	0.73600 0.75650 0.97550 0.74100
H 	H 	0.71780 0.71810 0.04590 -0.20900
O 	O 	0.48810 0.04991 0.56960 -0.51500
O 	O 	0.16460 0.09426 0.77090 -0.41600
O 	O 	0.17460 0.31657 0.01860 -0.53600
O 	O 	0.32030 0.24180 0.84700 -0.54400
C 	C 	0.23600 0.25650 0.97550 0.74300
H 	H 	0.21780 0.21810 0.04590 -0.25600
O 	O 	0.98810 0.45009 0.43040 -0.17900
O 	O 	0.66460 0.40574 0.22910 -0.38100
O 	O 	0.67460 0.18343 0.98140 -0.38700
O 	O 	0.82030 0.25820 0.15300 -0.37300
C 	C 	0.73600 0.24350 0.02450 0.45300
H 	H 	0.71780 0.28190 0.95410 -0.06600
O 	O 	0.48810 0.95009 0.43040 -0.45700
O 	O 	0.16460 0.90574 0.22910 -0.40100
O 	O 	0.17460 0.68343 0.98140 -0.41600
O 	O 	0.32030 0.75820 0.15300 -0.48400
C 	C 	0.23600 0.74350 0.02450 0.47600
H 	H 	0.21780 0.78190 0.95410 -0.11900
O 	O 	0.01190 0.54991 0.93040 -0.70300
O 	O 	0.33540 0.59426 0.72910 -0.42100
O 	O 	0.32540 0.81657 0.48140 -0.48700
O 	O 	0.17970 0.74180 0.65300 -0.51400
C 	C 	0.26400 0.75650 0.52450 0.61200
H 	H 	0.28220 0.71810 0.45410 -0.18700
O 	O 	0.51190 0.04991 0.93040 -0.46700
O 	O 	0.83540 0.09426 0.72910 -0.29400
O 	O 	0.82540 0.31657 0.48140 -0.40100
O 	O 	0.67970 0.24180 0.65300 -0.47700
C 	C 	0.76400 0.25650 0.52450 0.61000
H 	H 	0.78220 0.21810 0.45410 -0.14300
Er	Er	-0.00000 0.35727 0.25000 1.73300
Er	Er	0.50000 0.85727 0.25000 2.06300
Er	Er	-0.00000 0.64273 0.75000 1.73800
Er	Er	0.50000 0.14273 0.75000 2.06100
C 	C 	0.92570 0.50000 -0.00000 1.16600
H 	H 	0.78600 0.50000 -0.00000 -0.31000
C 	C 	0.42570 0.00000 -0.00000 0.54500
H 	H 	0.28600 0.00000 -0.00000 -0.17600
C 	C 	0.07430 0.50000 0.50000 0.06900
H 	H 	0.21400 0.50000 0.50000 0.02300
C 	C 	0.57430 0.00000 0.50000 0.59800
H 	H 	0.71400 0.00000 0.50000 -0.13900
C 	C 	0.50000 0.37420 0.25000 0.54100
H 	H 	0.50000 0.32360 0.25000 -0.15100
C 	C 	-0.00000 0.87420 0.25000 0.33100
H 	H 	-0.00000 0.82360 0.25000 -0.13900
C 	C 	0.50000 0.62580 0.75000 0.54200
H 	H 	0.50000 0.67640 0.75000 -0.14600
C 	C 	-0.00000 0.12580 0.75000 0.33100
H 	H 	-0.00000 0.17640 0.75000 -0.13600
