data_crystal

_cell_length_a 6.61180
_cell_length_b 7.56620
_cell_length_c 9.27560
_cell_angle_alpha 90.00000
_cell_angle_beta  99.82670
_cell_angle_gamma 90.00000

_symmetry_space_group_name_	'P 1'
_symmetry_space_group_name_H-M	'P 1'

loop_
_symmetry_equiv_pos_as_xyz
  x,y,z

loop_
_atom_site_label
_atom_site_type_symbol
_atom_site_fract_x
_atom_site_fract_y
_atom_site_fract_z
_atom_site_charge
Er	Er	0.16154 0.27135 0.29299 1.99000
O 	O 	0.38760 0.34980 0.52020 -0.43900
O 	O 	0.62470 0.52190 0.65360 -0.46100
O 	O 	0.47350 0.33790 0.22420 -0.48300
O 	O 	0.80860 0.36310 0.23800 -0.46500
O 	O 	0.11500 0.36970 0.04270 -0.40700
O 	O 	0.00190 0.53330 0.84710 -0.43400
O 	O 	0.13460 0.57330 0.33430 -0.50700
O 	O 	0.98250 0.63310 0.52510 -0.51400
C 	C 	0.52830 0.46610 0.53630 0.56300
H 	H 	0.56230 0.51420 0.45130 -0.14900
C 	C 	0.65170 0.27680 0.24220 0.61100
H 	H 	0.66720 0.15620 0.26020 -0.14100
C 	C 	0.01260 0.49220 0.97920 0.47100
H 	H 	0.93660 0.56000 0.03430 -0.08600
C 	C 	0.07000 0.67540 0.42160 0.63100
H 	H 	0.08920 0.79560 0.40790 -0.19400
Er	Er	0.83846 0.77135 0.70701 1.93700
O 	O 	0.61240 0.84980 0.47980 -0.36200
O 	O 	0.37530 0.02190 0.34640 -0.28000
O 	O 	0.52650 0.83790 0.77580 -0.52600
O 	O 	0.19140 0.86310 0.76200 -0.52400
O 	O 	0.88500 0.86970 0.95730 -0.40700
O 	O 	0.99810 0.03330 0.15290 -0.29200
O 	O 	0.86540 0.07330 0.66570 -0.44200
O 	O 	0.01750 0.13310 0.47490 -0.51400
C 	C 	0.47170 0.96610 0.46370 0.13900
H 	H 	0.43770 0.01420 0.54870 0.06600
C 	C 	0.34830 0.77680 0.75780 0.62000
H 	H 	0.33280 0.65620 0.73980 -0.16800
C 	C 	0.98740 0.99220 0.02080 0.27500
H 	H 	0.06340 0.06000 0.96570 -0.00100
C 	C 	0.93000 0.17540 0.57840 0.65700
H 	H 	0.91080 0.29560 0.59210 -0.16400
