data_crystal

_cell_length_a 6.63180
_cell_length_b 18.37190
_cell_length_c 8.41260
_cell_angle_alpha 90.00000
_cell_angle_beta  90.00000
_cell_angle_gamma 90.00000

_symmetry_space_group_name_	'P 1'
_symmetry_space_group_name_H-M	'P 1'

loop_
_symmetry_equiv_pos_as_xyz
  x,y,z

loop_
_atom_site_label
_atom_site_type_symbol
_atom_site_fract_x
_atom_site_fract_y
_atom_site_fract_z
_atom_site_charge
O 	O 	0.98560 0.05010 0.43010 -0.15900
O 	O 	0.66540 0.09510 0.22710 -0.38100
O 	O 	0.32020 0.25710 0.84530 -0.52200
C 	C 	0.23440 0.24360 0.97470 0.66600
H 	H 	0.21320 0.28300 0.04590 -0.21900
O 	O 	0.17530 0.18260 0.01660 -0.50700
O 	O 	0.48560 0.55010 0.43010 -0.50600
O 	O 	0.16540 0.59510 0.22710 -0.41500
O 	O 	0.82020 0.75710 0.84530 -0.40900
C 	C 	0.73440 0.74360 0.97470 0.66900
H 	H 	0.71320 0.78300 0.04590 -0.17200
O 	O 	0.67530 0.68260 0.01660 -0.48400
O 	O 	0.01440 0.94990 0.93010 -0.60400
O 	O 	0.33460 0.90490 0.72710 -0.40200
O 	O 	0.67980 0.74290 0.34530 -0.46000
C 	C 	0.76560 0.75640 0.47470 0.56000
H 	H 	0.78680 0.71700 0.54590 -0.11300
O 	O 	0.82470 0.81740 0.51660 -0.37800
O 	O 	0.51440 0.44990 0.93010 -0.46500
O 	O 	0.83460 0.40490 0.72710 -0.28300
O 	O 	0.17980 0.24290 0.34530 -0.49900
C 	C 	0.26560 0.25640 0.47470 0.56000
H 	H 	0.28680 0.21700 0.54590 -0.16100
O 	O 	0.32470 0.31740 0.51660 -0.47500
O 	O 	0.01440 0.05010 0.06990 -0.67000
O 	O 	0.33460 0.09510 0.27290 -0.42500
O 	O 	0.67980 0.25710 0.65470 -0.46300
C 	C 	0.76560 0.24360 0.52530 0.56300
H 	H 	0.78680 0.28300 0.45410 -0.11800
O 	O 	0.82470 0.18260 0.48340 -0.38400
O 	O 	0.51440 0.55010 0.06990 -0.49100
O 	O 	0.83460 0.59510 0.27290 -0.28700
O 	O 	0.17980 0.75710 0.65470 -0.49700
C 	C 	0.26560 0.74360 0.52530 0.56000
H 	H 	0.28680 0.78300 0.45410 -0.16000
O 	O 	0.32470 0.68260 0.48340 -0.47300
O 	O 	0.98560 0.94990 0.56990 -0.11300
O 	O 	0.66540 0.90490 0.77290 -0.35000
O 	O 	0.32020 0.74290 0.15470 -0.47100
C 	C 	0.23440 0.75640 0.02530 0.44900
H 	H 	0.21320 0.71700 0.95410 -0.11200
O 	O 	0.17530 0.81740 0.98340 -0.40200
O 	O 	0.48560 0.44990 0.56990 -0.50700
O 	O 	0.16540 0.40490 0.77290 -0.40600
O 	O 	0.82020 0.24290 0.15470 -0.36000
C 	C 	0.73440 0.25640 0.02530 0.43600
H 	H 	0.71320 0.21700 0.95410 -0.06200
O 	O 	0.67530 0.31740 0.98340 -0.37800
Er	Er	0.00000 0.14293 0.25000 1.68500
Er	Er	0.50000 0.64293 0.25000 2.04200
Er	Er	0.00000 0.85707 0.75000 1.69200
Er	Er	0.50000 0.35707 0.75000 2.04900
C 	C 	0.07560 -0.00000 0.50000 -0.03100
H 	H 	0.21880 -0.00000 0.50000 0.04100
C 	C 	0.57560 0.50000 0.50000 0.64400
H 	H 	0.71880 0.50000 0.50000 -0.12500
C 	C 	0.92440 0.00000 -0.00000 0.96900
H 	H 	0.78120 0.00000 -0.00000 -0.24800
C 	C 	0.42440 0.50000 -0.00000 0.60200
H 	H 	0.28120 0.50000 -0.00000 -0.16600
C 	C 	0.50000 0.12660 0.25000 0.51200
H 	H 	0.50000 0.17830 0.25000 -0.13500
C 	C 	0.00000 0.62660 0.25000 0.31100
H 	H 	-0.00000 0.67830 0.25000 -0.13000
C 	C 	0.50000 0.87340 0.75000 0.51200
H 	H 	0.50000 0.82170 0.75000 -0.12900
C 	C 	0.00000 0.37340 0.75000 0.31100
H 	H 	0.00000 0.32170 0.75000 -0.12600
