data_crystal

_cell_length_a 6.64560
_cell_length_b 8.08980
_cell_length_c 20.15490
_cell_angle_alpha 90.00000
_cell_angle_beta  90.00000
_cell_angle_gamma 90.00000

_symmetry_space_group_name_	'P 1'
_symmetry_space_group_name_H-M	'P 1'

loop_
_symmetry_equiv_pos_as_xyz
  x,y,z

loop_
_atom_site_label
_atom_site_type_symbol
_atom_site_fract_x
_atom_site_fract_y
_atom_site_fract_z
_atom_site_charge
Er	Er	0.49295 0.44471 0.61954 2.03900
O 	O 	0.50910 0.58610 0.71860 -0.52000
O 	O 	0.49990 0.72130 0.81347 -0.51800
O 	O 	0.31580 0.23260 0.56310 -0.47900
O 	O 	0.16680 0.09800 0.48000 -0.47200
O 	O 	0.16000 0.45770 0.65960 -0.47300
O 	O 	0.82750 0.43440 0.65530 -0.47700
O 	O 	0.59580 0.72210 0.59100 -0.38400
O 	O 	0.32420 0.62690 0.54310 -0.40200
C 	C 	0.42100 0.66600 0.76130 0.68400
H 	H 	0.28500 0.68740 0.75460 -0.17200
C 	C 	0.25290 0.22510 0.50580 0.58000
H 	H 	0.26860 0.31810 0.47920 -0.16800
C 	C 	0.99650 0.46880 0.63080 0.60600
H 	H 	0.99860 0.50590 0.58710 -0.17000
C 	C 	0.44640 0.73730 0.55280 0.37900
H 	H 	0.42830 0.83750 0.53100 -0.04200
Er	Er	0.00705 0.55529 0.11954 2.01100
O 	O 	0.99090 0.41390 0.21860 -0.51100
O 	O 	0.00010 0.27870 0.31347 -0.50600
O 	O 	0.18420 0.76740 0.06310 -0.48200
O 	O 	0.33320 0.90200 0.98000 -0.48300
O 	O 	0.34000 0.54230 0.15960 -0.48000
O 	O 	0.67250 0.56560 0.15530 -0.47400
O 	O 	0.90420 0.27790 0.09100 -0.37000
O 	O 	0.17580 0.37310 0.04310 -0.40000
C 	C 	0.07900 0.33400 0.26130 0.67300
H 	H 	0.21500 0.31260 0.25460 -0.16800
C 	C 	0.24710 0.77490 0.00580 0.57900
H 	H 	0.23140 0.68190 0.97920 -0.17100
C 	C 	0.50350 0.53120 0.13080 0.61600
H 	H 	0.50140 0.49410 0.08710 -0.16900
C 	C 	0.05360 0.26270 0.05280 0.36200
H 	H 	0.07170 0.16250 0.03100 -0.04000
Er	Er	0.50705 0.94471 0.88046 2.02400
O 	O 	0.49090 0.08610 0.78140 -0.51500
O 	O 	0.50010 0.22130 0.68653 -0.51700
O 	O 	0.68420 0.73260 0.93690 -0.47500
O 	O 	0.83320 0.59800 0.02000 -0.47000
O 	O 	0.84000 0.95770 0.84040 -0.46400
O 	O 	0.17250 0.93440 0.84470 -0.47000
O 	O 	0.40420 0.22210 0.90900 -0.38000
O 	O 	0.67580 0.12690 0.95690 -0.40000
C 	C 	0.57900 0.16600 0.73870 0.68300
H 	H 	0.71500 0.18740 0.74540 -0.17200
C 	C 	0.74710 0.72510 0.99420 0.57300
H 	H 	0.73140 0.81810 0.02080 -0.16400
C 	C 	0.00350 0.96880 0.86920 0.57300
H 	H 	0.00140 0.00590 0.91290 -0.14900
C 	C 	0.55360 0.23730 0.94720 0.37900
H 	H 	0.57170 0.33750 0.96900 -0.04200
Er	Er	0.99295 0.05529 0.38046 1.99900
O 	O 	0.00910 0.91390 0.28140 -0.51500
O 	O 	0.99990 0.77870 0.18653 -0.50700
O 	O 	0.81580 0.26740 0.43690 -0.48100
O 	O 	0.66680 0.40200 0.52000 -0.48200
O 	O 	0.66000 0.04230 0.34040 -0.47800
O 	O 	0.32750 0.06560 0.34470 -0.47100
O 	O 	0.09580 0.77790 0.40900 -0.37000
O 	O 	0.82420 0.87310 0.45690 -0.39700
C 	C 	0.92100 0.83400 0.23870 0.68300
H 	H 	0.78500 0.81260 0.24540 -0.17000
C 	C 	0.75290 0.27490 0.49420 0.58100
H 	H 	0.76860 0.18190 0.52080 -0.17400
C 	C 	0.49650 0.03120 0.36920 0.60400
H 	H 	0.49860 0.99410 0.41290 -0.16100
C 	C 	0.94640 0.76270 0.44720 0.36700
H 	H 	0.92830 0.66250 0.46900 -0.04000
