data_crystal

_cell_length_a 6.65520
_cell_length_b 18.35490
_cell_length_c 8.43460
_cell_angle_alpha 90.00000
_cell_angle_beta  90.00000
_cell_angle_gamma 90.00000

_symmetry_space_group_name_	'P 1'
_symmetry_space_group_name_H-M	'P 1'

loop_
_symmetry_equiv_pos_as_xyz
  x,y,z

loop_
_atom_site_label
_atom_site_type_symbol
_atom_site_fract_x
_atom_site_fract_y
_atom_site_fract_z
_atom_site_charge
O 	O 	0.32070 0.25808 0.84710 -0.54600
O 	O 	0.17430 0.18375 0.01890 -0.52900
O 	O 	0.16560 0.40540 0.76870 -0.41300
O 	O 	0.48890 0.45012 0.57030 -0.54100
C 	C 	0.23710 0.24390 0.97530 0.73100
H 	H 	0.22000 0.28250 0.04550 -0.24800
O 	O 	0.82070 0.75808 0.84710 -0.43300
O 	O 	0.67430 0.68375 0.01890 -0.50700
O 	O 	0.66560 0.90540 0.76870 -0.35900
O 	O 	0.98890 0.95012 0.57030 -0.11700
C 	C 	0.73710 0.74390 0.97530 0.73000
H 	H 	0.72000 0.78250 0.04550 -0.20000
O 	O 	0.67930 0.74192 0.34710 -0.48000
O 	O 	0.82570 0.81625 0.51890 -0.39500
O 	O 	0.83440 0.59460 0.26870 -0.29500
O 	O 	0.51110 0.54988 0.07030 -0.52600
C 	C 	0.76290 0.75610 0.47530 0.60900
H 	H 	0.78000 0.71750 0.54550 -0.13700
O 	O 	0.17930 0.24192 0.34710 -0.51900
O 	O 	0.32570 0.31625 0.51890 -0.49300
O 	O 	0.33440 0.09460 0.26870 -0.43600
O 	O 	0.01110 0.04988 0.07030 -0.71500
C 	C 	0.26290 0.25610 0.47530 0.61200
H 	H 	0.28000 0.21750 0.54550 -0.18500
O 	O 	0.67930 0.25808 0.65290 -0.48400
O 	O 	0.82570 0.18375 0.48110 -0.40300
O 	O 	0.83440 0.40540 0.73130 -0.29000
O 	O 	0.51110 0.45012 0.92970 -0.49900
C 	C 	0.76290 0.24390 0.52470 0.61200
H 	H 	0.78000 0.28250 0.45450 -0.14200
O 	O 	0.17930 0.75808 0.65290 -0.51800
O 	O 	0.32570 0.68375 0.48110 -0.49100
O 	O 	0.33440 0.90540 0.73130 -0.41100
O 	O 	0.01110 0.95012 0.92970 -0.64400
C 	C 	0.26290 0.74390 0.52470 0.61200
H 	H 	0.28000 0.78250 0.45450 -0.18400
O 	O 	0.32070 0.74192 0.15290 -0.48800
O 	O 	0.17430 0.81625 0.98110 -0.41600
O 	O 	0.16560 0.59460 0.23130 -0.42200
O 	O 	0.48890 0.54988 0.42970 -0.54000
C 	C 	0.23710 0.75610 0.02470 0.48800
H 	H 	0.22000 0.71750 0.95450 -0.12800
O 	O 	0.82070 0.24192 0.15290 -0.37600
O 	O 	0.67430 0.31625 0.98110 -0.39100
O 	O 	0.66560 0.09460 0.23130 -0.39200
O 	O 	0.98890 0.04988 0.42970 -0.16700
C 	C 	0.73710 0.25610 0.02470 0.47000
H 	H 	0.72000 0.21750 0.95450 -0.07600
Er	Er	0.50000 0.35729 0.75000 2.09400
Er	Er	0.00000 0.85729 0.75000 1.73600
Er	Er	0.50000 0.64271 0.25000 2.08700
Er	Er	0.00000 0.14271 0.25000 1.72900
C 	C 	0.00000 0.37430 0.75000 0.33700
H 	H 	0.00000 0.32360 0.75000 -0.13800
C 	C 	0.50000 0.87430 0.75000 0.54500
H 	H 	0.50000 0.82360 0.75000 -0.14500
C 	C 	0.00000 0.62570 0.25000 0.33800
H 	H 	0.00000 0.67640 0.25000 -0.14100
C 	C 	0.50000 0.12570 0.25000 0.54400
H 	H 	0.50000 0.17640 0.25000 -0.15100
C 	C 	0.57410 0.50000 0.50000 0.72700
H 	H 	0.71380 0.50000 0.50000 -0.16100
C 	C 	0.07410 0.00000 0.50000 -0.02400
H 	H 	0.21380 0.00000 0.50000 0.03600
C 	C 	0.42590 0.50000 -0.00000 0.68300
H 	H 	0.28620 0.50000 -0.00000 -0.20100
C 	C 	0.92590 0.00000 -0.00000 1.07200
H 	H 	0.78620 0.00000 -0.00000 -0.29500
