data_crystal

_cell_length_a 6.62430
_cell_length_b 8.63450
_cell_length_c 9.75450
_cell_angle_alpha 90.00000
_cell_angle_beta  102.59900
_cell_angle_gamma 90.00000

_symmetry_space_group_name_	'P 1'
_symmetry_space_group_name_H-M	'P 1'

loop_
_symmetry_equiv_pos_as_xyz
  x,y,z

loop_
_atom_site_label
_atom_site_type_symbol
_atom_site_fract_x
_atom_site_fract_y
_atom_site_fract_z
_atom_site_charge
Er	Er	0.89118 0.76915 0.73055 2.04100
O 	O 	0.92550 0.54330 0.87140 -0.45200
O 	O 	0.00180 0.38130 0.05300 -0.52200
O 	O 	0.87700 0.58850 0.56140 -0.55600
O 	O 	0.94280 0.43460 0.39750 -0.53800
O 	O 	0.57250 0.69370 0.76640 -0.57100
O 	O 	0.24530 0.70410 0.78520 -0.56300
O 	O 	0.62010 0.87170 0.51950 -0.30900
O 	O 	0.70360 0.01500 0.70890 -0.27500
C 	C 	0.02720 0.50160 0.99110 0.63200
H 	H 	0.13070 0.56810 0.03660 -0.16100
C 	C 	0.95440 0.47150 0.52250 0.70200
H 	H 	0.02710 0.40580 0.59150 -0.18800
C 	C 	0.38840 0.71930 0.73080 0.78200
H 	H 	0.35040 0.76010 0.64060 -0.22400
C 	C 	0.60330 0.99320 0.58510 0.13900
H 	H 	0.51380 0.07020 0.54120 0.06100
Er	Er	0.10882 0.26915 0.26945 2.08600
O 	O 	0.07450 0.04330 0.12860 -0.44300
O 	O 	0.99820 0.88130 0.94700 -0.55700
O 	O 	0.12300 0.08850 0.43860 -0.49500
O 	O 	0.05720 0.93460 0.60250 -0.52600
O 	O 	0.42750 0.19370 0.23360 -0.56800
O 	O 	0.75470 0.20410 0.21480 -0.56300
O 	O 	0.37990 0.37170 0.48050 -0.35900
O 	O 	0.29640 0.51500 0.29110 -0.39700
C 	C 	0.97280 0.00160 0.00890 0.65100
H 	H 	0.86930 0.06810 0.96340 -0.14600
C 	C 	0.04560 0.97150 0.47750 0.60300
H 	H 	0.97290 0.90580 0.40850 -0.17600
C 	C 	0.61160 0.21930 0.26920 0.79600
H 	H 	0.64960 0.26010 0.35940 -0.22300
C 	C 	0.39670 0.49320 0.41490 0.37600
H 	H 	0.48620 0.57020 0.45880 -0.05700
