data_crystal

_cell_length_a 6.63490
_cell_length_b 8.63710
_cell_length_c 9.67270
_cell_angle_alpha 90.00000
_cell_angle_beta  102.10100
_cell_angle_gamma 90.00000

_symmetry_space_group_name_	'P 1'
_symmetry_space_group_name_H-M	'P 1'

loop_
_symmetry_equiv_pos_as_xyz
  x,y,z

loop_
_atom_site_label
_atom_site_type_symbol
_atom_site_fract_x
_atom_site_fract_y
_atom_site_fract_z
_atom_site_charge
Er	Er	0.10557 0.23094 0.27076 2.07000
O 	O 	0.07340 0.45610 0.12620 -0.50500
O 	O 	0.00210 0.61790 0.94650 -0.57100
O 	O 	0.14220 0.42530 0.43230 -0.62200
O 	O 	0.06340 0.58690 0.58830 -0.63900
O 	O 	0.42350 0.30070 0.22880 -0.55900
O 	O 	0.75420 0.30530 0.22080 -0.55200
O 	O 	0.37410 0.13050 0.47930 -0.29700
O 	O 	0.28070 0.97990 0.29420 -0.26100
C 	C 	0.97900 0.49680 0.01020 0.74600
H 	H 	0.87850 0.42910 0.96380 -0.20700
C 	C 	0.04110 0.51410 0.48260 0.88200
H 	H 	0.91230 0.53040 0.42440 -0.24100
C 	C 	0.59900 0.25090 0.23960 0.77300
H 	H 	0.61280 0.14810 0.26870 -0.22400
C 	C 	0.38310 0.00430 0.41650 0.10200
H 	H 	0.46860 0.92650 0.46230 0.08400
Er	Er	0.89443 0.73094 0.72924 2.13900
O 	O 	0.92660 0.95610 0.87380 -0.49400
O 	O 	0.99790 0.11790 0.05350 -0.59700
O 	O 	0.85780 0.92530 0.56770 -0.55100
O 	O 	0.93660 0.08690 0.41170 -0.61400
O 	O 	0.57650 0.80070 0.77120 -0.55500
O 	O 	0.24580 0.80530 0.77920 -0.55100
O 	O 	0.62590 0.63050 0.52070 -0.35500
O 	O 	0.71930 0.47990 0.70580 -0.40300
C 	C 	0.02100 0.99680 0.98980 0.76100
H 	H 	0.12150 0.92910 0.03620 -0.18900
C 	C 	0.95890 0.01410 0.51740 0.77500
H 	H 	0.08770 0.03040 0.57560 -0.23800
C 	C 	0.40100 0.75090 0.76040 0.78400
H 	H 	0.38720 0.64810 0.73130 -0.21700
C 	C 	0.61690 0.50430 0.58350 0.37700
H 	H 	0.53140 0.42650 0.53770 -0.05100
