data_crystal

_cell_length_a 14.14300
_cell_length_b 15.71780
_cell_length_c 16.08890
_cell_angle_alpha 90.00000
_cell_angle_beta  90.00000
_cell_angle_gamma 90.00000

_symmetry_space_group_name_	'P 1'
_symmetry_space_group_name_H-M	'P 1'

loop_
_symmetry_equiv_pos_as_xyz
  x,y,z

loop_
_atom_site_label
_atom_site_type_symbol
_atom_site_fract_x
_atom_site_fract_y
_atom_site_fract_z
_atom_site_charge
Cd	Cd	0.35462 0.07033 0.22131 1.21800
Cd	Cd	0.12015 0.98652 0.31101 1.23000
Cd	Cd	0.14538 0.92967 0.72131 1.22100
Cd	Cd	0.37985 0.01348 0.81101 1.21700
Cd	Cd	0.64538 0.57033 0.27869 1.22400
Cd	Cd	0.87985 0.48652 0.18899 1.23400
Cd	Cd	0.85462 0.42967 0.77869 1.23100
Cd	Cd	0.62015 0.51348 0.68899 1.22800
Cd	Cd	0.64538 0.92967 0.77869 1.23000
Cd	Cd	0.87985 0.01348 0.68899 1.22400
Cd	Cd	0.85462 0.07033 0.27869 1.22600
Cd	Cd	0.62015 0.98652 0.18899 1.23800
Cd	Cd	0.35462 0.42967 0.72131 1.22400
Cd	Cd	0.12015 0.51348 0.81101 1.22200
Cd	Cd	0.14538 0.57033 0.22131 1.21700
Cd	Cd	0.37985 0.48652 0.31101 1.22700
Cd	Cd	-0.00000 0.00000 -0.00000 1.16400
Cd	Cd	0.50000 0.00000 0.50000 1.20500
Cd	Cd	0.00000 0.50000 0.50000 1.19300
Cd	Cd	0.50000 0.50000 -0.00000 1.19400
H 	H 	0.44940 0.07330 0.01880 -0.02500
H 	H 	0.28270 0.27060 0.29790 -0.00600
H 	H 	0.62400 0.31640 0.17700 0.28600
H 	H 	0.05060 0.92670 0.51880 -0.04400
H 	H 	0.21730 0.72940 0.79790 -0.00200
H 	H 	0.87600 0.68360 0.67700 0.30800
H 	H 	0.55060 0.57330 0.48120 -0.02600
H 	H 	0.71730 0.77060 0.20210 -0.00200
H 	H 	0.37600 0.81640 0.32300 0.28700
H 	H 	0.94940 0.42670 0.98120 -0.01000
H 	H 	0.78270 0.22940 0.70210 -0.00300
H 	H 	0.12400 0.18360 0.82300 0.27600
H 	H 	0.55060 0.92670 0.98120 -0.02600
H 	H 	0.71730 0.72940 0.70210 -0.00000
H 	H 	0.37600 0.68360 0.82300 0.29200
H 	H 	0.94940 0.07330 0.48120 -0.00800
H 	H 	0.78270 0.27060 0.20210 -0.00500
H 	H 	0.12400 0.31640 0.32300 0.27000
H 	H 	0.44940 0.42670 0.51880 -0.02600
H 	H 	0.28270 0.22940 0.79790 -0.00400
H 	H 	0.62400 0.18360 0.67700 0.29100
H 	H 	0.05060 0.57330 0.01880 -0.04200
H 	H 	0.21730 0.77060 0.29790 -0.00400
H 	H 	0.87600 0.81640 0.17700 0.30400
C 	C 	0.17480 0.99690 0.11980 0.44200
C 	C 	0.24720 0.01080 0.05780 -0.25100
C 	C 	0.38820 0.05160 0.01750 0.01100
C 	C 	0.25640 0.99790 0.97390 0.11000
C 	C 	0.19400 0.96360 0.90750 0.30300
C 	C 	0.34350 0.27410 0.27630 0.09200
C 	C 	0.47440 0.23990 0.21790 -0.04300
C 	C 	0.55400 0.38750 0.23230 0.38500
C 	C 	0.47810 0.32530 0.23950 -0.08300
C 	C 	0.54640 0.18340 0.18020 0.31100
C 	C 	0.32520 0.00310 0.61980 0.24000
C 	C 	0.25280 0.98920 0.55780 0.01900
C 	C 	0.11180 0.94840 0.51750 0.09400
C 	C 	0.24360 0.00210 0.47390 -0.13900
C 	C 	0.30600 0.03640 0.40750 0.36900
C 	C 	0.15650 0.72590 0.77630 0.09800
C 	C 	0.02560 0.76010 0.71790 -0.08600
C 	C 	0.94600 0.61250 0.73230 0.45800
C 	C 	0.02190 0.67470 0.73950 -0.13700
C 	C 	0.95360 0.81660 0.68020 0.36900
C 	C 	0.82520 0.49690 0.38020 0.32800
C 	C 	0.75280 0.51080 0.44220 -0.06700
C 	C 	0.61180 0.55160 0.48250 0.09300
C 	C 	0.74360 0.49790 0.52610 -0.05500
C 	C 	0.80600 0.46360 0.59250 0.34500
C 	C 	0.65650 0.77410 0.22370 0.09500
C 	C 	0.52560 0.73990 0.28210 -0.03900
C 	C 	0.44600 0.88750 0.26770 0.38300
C 	C 	0.52190 0.82530 0.26050 -0.08100
C 	C 	0.45360 0.68340 0.31980 0.30900
C 	C 	0.67480 0.50310 0.88020 0.30700
C 	C 	0.74720 0.48920 0.94220 0.01600
C 	C 	0.88820 0.44840 0.98250 0.16900
C 	C 	0.75640 0.50210 0.02610 -0.14400
C 	C 	0.69400 0.53640 0.09250 0.37000
C 	C 	0.84350 0.22590 0.72370 0.09900
C 	C 	0.97440 0.26010 0.78210 0.01700
C 	C 	0.05400 0.11250 0.76770 0.32400
C 	C 	0.97810 0.17470 0.76050 -0.02900
C 	C 	0.04640 0.31660 0.81980 0.25100
C 	C 	0.82520 0.00310 0.88020 0.20700
C 	C 	0.75280 0.98920 0.94220 0.11600
C 	C 	0.61180 0.94840 0.98250 0.17500
C 	C 	0.74360 0.00210 0.02610 -0.22100
C 	C 	0.80600 0.03640 0.09250 0.38900
C 	C 	0.65650 0.72590 0.72370 0.10000
C 	C 	0.52560 0.76010 0.78210 -0.03100
C 	C 	0.44600 0.61250 0.76770 0.38900
C 	C 	0.52190 0.67470 0.76050 -0.08100
C 	C 	0.45360 0.81660 0.81980 0.30800
C 	C 	0.67480 0.99690 0.38020 0.42500
C 	C 	0.74720 0.01080 0.44220 -0.16700
C 	C 	0.88820 0.05160 0.48250 0.09000
C 	C 	0.75640 0.99790 0.52610 0.02800
C 	C 	0.69400 0.96360 0.59250 0.32400
C 	C 	0.84350 0.27410 0.22370 0.09400
C 	C 	0.97440 0.23990 0.28210 0.01100
C 	C 	0.05400 0.38750 0.26770 0.31400
C 	C 	0.97810 0.32530 0.26050 -0.02400
C 	C 	0.04640 0.18340 0.31980 0.24900
C 	C 	0.17480 0.50310 0.61980 0.33200
C 	C 	0.24720 0.48920 0.55780 -0.07600
C 	C 	0.38820 0.44840 0.51750 0.09100
C 	C 	0.25640 0.50210 0.47390 -0.06100
C 	C 	0.19400 0.53640 0.40750 0.34900
C 	C 	0.34350 0.22590 0.77630 0.09800
C 	C 	0.47440 0.26010 0.71790 -0.03600
C 	C 	0.55400 0.11250 0.73230 0.39100
C 	C 	0.47810 0.17470 0.73950 -0.08300
C 	C 	0.54640 0.31660 0.68020 0.31000
C 	C 	0.32520 0.49690 0.11980 0.35500
C 	C 	0.25280 0.51080 0.05780 -0.16300
C 	C 	0.11180 0.55160 0.01750 0.01000
C 	C 	0.24360 0.49790 0.97390 0.03200
C 	C 	0.30600 0.46360 0.90750 0.32300
C 	C 	0.15650 0.77410 0.27630 0.09300
C 	C 	0.02560 0.73990 0.21790 -0.09500
C 	C 	0.94600 0.88750 0.23230 0.45700
C 	C 	0.02190 0.82530 0.23950 -0.14100
C 	C 	0.95360 0.68340 0.18020 0.37300
N 	N 	0.33300 0.04520 0.08550 -0.19800
N 	N 	0.34630 0.02350 0.94770 -0.22100
N 	N 	0.38880 0.20810 0.24220 -0.23000
N 	N 	0.39510 0.34620 0.27620 -0.21100
N 	N 	0.16700 0.95480 0.58550 -0.23400
N 	N 	0.15370 0.97650 0.44770 -0.20100
N 	N 	0.11120 0.79190 0.74220 -0.22700
N 	N 	0.10490 0.65380 0.77620 -0.20500
N 	N 	0.66700 0.54520 0.41450 -0.22000
N 	N 	0.65370 0.52350 0.55230 -0.22000
N 	N 	0.61120 0.70810 0.25780 -0.22800
N 	N 	0.60490 0.84620 0.22380 -0.20900
N 	N 	0.83300 0.45480 0.91450 -0.23000
N 	N 	0.84630 0.47650 0.05230 -0.24000
N 	N 	0.88880 0.29190 0.75780 -0.22700
N 	N 	0.89510 0.15380 0.72380 -0.21300
N 	N 	0.66700 0.95480 0.91450 -0.24400
N 	N 	0.65370 0.97650 0.05230 -0.22200
N 	N 	0.61120 0.79190 0.75780 -0.22600
N 	N 	0.60490 0.65380 0.72380 -0.20800
N 	N 	0.83300 0.04520 0.41450 -0.20600
N 	N 	0.84630 0.02350 0.55230 -0.24200
N 	N 	0.88880 0.20810 0.25780 -0.22900
N 	N 	0.89510 0.34620 0.22380 -0.21400
N 	N 	0.33300 0.45480 0.58550 -0.22100
N 	N 	0.34630 0.47650 0.44770 -0.22000
N 	N 	0.38880 0.29190 0.74220 -0.22800
N 	N 	0.39510 0.15380 0.77620 -0.21000
N 	N 	0.16700 0.54520 0.08550 -0.21000
N 	N 	0.15370 0.52350 0.94770 -0.19800
N 	N 	0.11120 0.70810 0.24220 -0.22900
N 	N 	0.10490 0.84620 0.27620 -0.20600
O 	O 	0.19280 0.02450 0.19200 -0.56600
O 	O 	0.09690 0.96080 0.10220 -0.49500
O 	O 	0.23130 0.95360 0.83670 -0.49000
O 	O 	0.10900 0.94180 0.92010 -0.42400
O 	O 	0.63160 0.36640 0.19750 -0.52500
O 	O 	0.52630 0.10670 0.17320 -0.49100
O 	O 	0.62450 0.21590 0.15860 -0.32500
O 	O 	0.54080 0.45960 0.26380 -0.52100
O 	O 	0.30720 0.97550 0.69200 -0.46200
O 	O 	0.40310 0.03920 0.60220 -0.42900
O 	O 	0.26870 0.04640 0.33670 -0.52600
O 	O 	0.39100 0.05820 0.42010 -0.47400
O 	O 	0.86840 0.63360 0.69750 -0.54000
O 	O 	0.97370 0.89330 0.67320 -0.44300
O 	O 	0.87550 0.78410 0.65860 -0.31700
O 	O 	0.95920 0.54040 0.76380 -0.50300
O 	O 	0.80720 0.52450 0.30800 -0.49900
O 	O 	0.90310 0.46080 0.39780 -0.41400
O 	O 	0.76870 0.45360 0.66330 -0.50600
O 	O 	0.89100 0.44180 0.57990 -0.43600
O 	O 	0.36840 0.86640 0.30250 -0.51500
O 	O 	0.47370 0.60670 0.32680 -0.47600
O 	O 	0.37550 0.71590 0.34140 -0.31600
O 	O 	0.45920 0.95960 0.23620 -0.50600
O 	O 	0.69280 0.47550 0.80800 -0.49700
O 	O 	0.59690 0.53920 0.89780 -0.41100
O 	O 	0.73130 0.54640 0.16330 -0.51600
O 	O 	0.60900 0.55820 0.07990 -0.48200
O 	O 	0.13160 0.13360 0.80250 -0.51400
O 	O 	0.02630 0.39330 0.82680 -0.48900
O 	O 	0.12450 0.28410 0.84140 -0.30500
O 	O 	0.04080 0.04040 0.73620 -0.55100
O 	O 	0.80720 0.97550 0.80800 -0.44000
O 	O 	0.90310 0.03920 0.89780 -0.37300
O 	O 	0.76870 0.04640 0.16330 -0.52800
O 	O 	0.89100 0.05820 0.07990 -0.47300
O 	O 	0.36840 0.63360 0.80250 -0.52200
O 	O 	0.47370 0.89330 0.82680 -0.45800
O 	O 	0.37550 0.78410 0.84140 -0.30600
O 	O 	0.45920 0.54040 0.73620 -0.52000
O 	O 	0.69280 0.02450 0.30800 -0.55200
O 	O 	0.59690 0.96080 0.39780 -0.45100
O 	O 	0.73130 0.95360 0.66330 -0.49200
O 	O 	0.60900 0.94180 0.57990 -0.43900
O 	O 	0.13160 0.36640 0.30250 -0.50600
O 	O 	0.02630 0.10670 0.32680 -0.50500
O 	O 	0.12450 0.21590 0.34140 -0.31500
O 	O 	0.04080 0.45960 0.23620 -0.53900
O 	O 	0.19280 0.47550 0.69200 -0.51500
O 	O 	0.09690 0.53920 0.60220 -0.46200
O 	O 	0.23130 0.54640 0.33670 -0.51400
O 	O 	0.10900 0.55820 0.42010 -0.47500
O 	O 	0.63160 0.13360 0.69750 -0.53300
O 	O 	0.52630 0.39330 0.67320 -0.47500
O 	O 	0.62450 0.28410 0.65860 -0.31600
O 	O 	0.54080 0.04040 0.76380 -0.53600
O 	O 	0.30720 0.52450 0.19200 -0.51700
O 	O 	0.40310 0.46080 0.10220 -0.46500
O 	O 	0.26870 0.45360 0.83670 -0.50300
O 	O 	0.39100 0.44180 0.92010 -0.42700
O 	O 	0.86840 0.86640 0.19750 -0.53400
O 	O 	0.97370 0.60670 0.17320 -0.45900
O 	O 	0.87550 0.71590 0.15860 -0.32700
O 	O 	0.95920 0.95960 0.26380 -0.48700
