data_crystal

_cell_length_a 18.86130
_cell_length_b 9.08560
_cell_length_c 24.94850
_cell_angle_alpha 90.00000
_cell_angle_beta  107.21100
_cell_angle_gamma 90.00000

_symmetry_space_group_name_	'P 1'
_symmetry_space_group_name_H-M	'P 1'

loop_
_symmetry_equiv_pos_as_xyz
  x,y,z

loop_
_atom_site_label
_atom_site_type_symbol
_atom_site_fract_x
_atom_site_fract_y
_atom_site_fract_z
_atom_site_charge
Zn	Zn	0.08595 0.71637 0.27756 1.23700
Zn	Zn	0.76804 0.70060 0.17503 1.23300
Zn	Zn	0.24183 0.47090 0.50109 1.23300
Zn	Zn	0.26333 0.95152 0.49397 1.23100
Zn	Zn	0.27996 0.32420 0.17994 1.22900
Zn	Zn	0.40620 0.71242 0.72133 1.23900
P 	P 	0.92391 0.55999 0.24751 0.50300
H 	H 	0.91470 0.63200 0.28500 -0.08500
P 	P 	0.17763 0.46737 0.23952 0.46200
H 	H 	0.11700 0.40700 0.22910 -0.08400
P 	P 	0.15344 0.72775 0.41622 0.49700
H 	H 	0.11400 0.76600 0.44700 -0.06200
P 	P 	0.68007 0.73951 0.04953 0.42900
H 	H 	0.62600 0.75050 0.07500 -0.03100
P 	P 	0.19024 0.18629 0.55246 0.44700
H 	H 	0.13700 0.17940 0.57630 -0.03700
P 	P 	0.33993 0.70829 0.58622 0.48900
H 	H 	0.40100 0.64000 0.58833 -0.05800
P 	P 	0.43121 0.45306 0.25893 0.50600
H 	H 	0.40800 0.38700 0.29600 -0.06600
P 	P 	0.66630 0.55947 0.23450 0.43700
H 	H 	0.60200 0.61600 0.22900 -0.06900
O 	O 	0.99920 0.59770 0.24390 -0.45900
O 	O 	0.86460 0.60830 0.19450 -0.45000
O 	O 	0.91510 0.40060 0.26210 -0.43500
O 	O 	0.16770 0.62840 0.25390 -0.40000
O 	O 	0.20300 0.45810 0.18730 -0.43500
O 	O 	0.22990 0.38930 0.28900 -0.47900
O 	O 	0.10400 0.72930 0.35760 -0.44800
O 	O 	0.21430 0.84450 0.42530 -0.45500
O 	O 	0.18170 0.57690 0.43550 -0.45700
O 	O 	0.67360 0.87470 0.01260 -0.42900
O 	O 	0.75330 0.73260 0.09540 -0.46500
O 	O 	0.66480 0.59860 0.01460 -0.41300
O 	O 	0.18490 0.04580 0.51840 -0.42900
O 	O 	0.17400 0.32040 0.51450 -0.42200
O 	O 	0.26170 0.20170 0.59970 -0.46300
O 	O 	0.27860 0.60020 0.56500 -0.46700
O 	O 	0.34450 0.75000 0.64630 -0.44100
O 	O 	0.33610 0.83950 0.54970 -0.45400
O 	O 	0.50890 0.40730 0.27020 -0.48100
O 	O 	0.42040 0.61350 0.26790 -0.44500
O 	O 	0.38140 0.39610 0.20320 -0.46000
O 	O 	0.68520 0.58230 0.18020 -0.43600
O 	O 	0.66160 0.39310 0.24540 -0.39300
O 	O 	0.72220 0.63360 0.28400 -0.46800
Zn	Zn	0.91405 0.21637 0.22244 1.23800
Zn	Zn	0.23196 0.20060 0.32497 1.23400
Zn	Zn	0.75817 0.97090 0.99891 1.23300
Zn	Zn	0.73667 0.45152 0.00603 1.23300
Zn	Zn	0.72004 0.82420 0.32006 1.23000
Zn	Zn	0.59380 0.21242 0.77867 1.24000
P 	P 	0.07609 0.05999 0.25249 0.50300
H 	H 	0.08530 0.13200 0.21500 -0.08500
P 	P 	0.82237 0.96737 0.26048 0.46200
H 	H 	0.88300 0.90700 0.27090 -0.08400
P 	P 	0.84656 0.22775 0.08378 0.49700
H 	H 	0.88600 0.26600 0.05300 -0.06200
P 	P 	0.31993 0.23951 0.45047 0.42900
H 	H 	0.37400 0.25050 0.42500 -0.03100
P 	P 	0.80976 0.68629 0.94754 0.44700
H 	H 	0.86300 0.67940 0.92370 -0.03700
P 	P 	0.66007 0.20829 0.91378 0.48900
H 	H 	0.59900 0.14000 0.91167 -0.05700
P 	P 	0.56879 0.95306 0.24107 0.50700
H 	H 	0.59200 0.88700 0.20400 -0.06600
P 	P 	0.33370 0.05947 0.26550 0.43600
H 	H 	0.39800 0.11600 0.27100 -0.06900
O 	O 	0.00080 0.09770 0.25610 -0.46000
O 	O 	0.13540 0.10830 0.30550 -0.45000
O 	O 	0.08490 0.90060 0.23790 -0.43400
O 	O 	0.83230 0.12840 0.24610 -0.40100
O 	O 	0.79700 0.95810 0.31270 -0.43500
O 	O 	0.77010 0.88930 0.21100 -0.47900
O 	O 	0.89600 0.22930 0.14240 -0.44800
O 	O 	0.78570 0.34450 0.07470 -0.45500
O 	O 	0.81830 0.07690 0.06450 -0.45700
O 	O 	0.32640 0.37470 0.48740 -0.43000
O 	O 	0.24670 0.23260 0.40460 -0.46500
O 	O 	0.33520 0.09860 0.48540 -0.41300
O 	O 	0.81510 0.54580 0.98160 -0.42900
O 	O 	0.82600 0.82040 0.98550 -0.42300
O 	O 	0.73830 0.70170 0.90030 -0.46300
O 	O 	0.72140 0.10020 0.93500 -0.46600
O 	O 	0.65550 0.25000 0.85370 -0.44100
O 	O 	0.66390 0.33950 0.95030 -0.45400
O 	O 	0.49110 0.90730 0.22980 -0.48000
O 	O 	0.57960 0.11350 0.23210 -0.44600
O 	O 	0.61860 0.89610 0.29680 -0.46000
O 	O 	0.31480 0.08230 0.31980 -0.43600
O 	O 	0.33840 0.89310 0.25460 -0.39300
O 	O 	0.27780 0.13360 0.21600 -0.46800
Zn	Zn	0.91405 0.28363 0.72244 1.23800
Zn	Zn	0.23196 0.29940 0.82497 1.23400
Zn	Zn	0.75817 0.52910 0.49891 1.23400
Zn	Zn	0.73667 0.04848 0.50603 1.23200
Zn	Zn	0.72004 0.67580 0.82006 1.23000
Zn	Zn	0.59380 0.28758 0.27867 1.24000
P 	P 	0.07609 0.44001 0.75249 0.50300
H 	H 	0.08530 0.36800 0.71500 -0.08500
P 	P 	0.82237 0.53263 0.76048 0.46200
H 	H 	0.88300 0.59300 0.77090 -0.08400
P 	P 	0.84656 0.27225 0.58378 0.49700
H 	H 	0.88600 0.23400 0.55300 -0.06200
P 	P 	0.31993 0.26049 0.95047 0.42900
H 	H 	0.37400 0.24950 0.92500 -0.03100
P 	P 	0.80976 0.81371 0.44754 0.44700
H 	H 	0.86300 0.82060 0.42370 -0.03700
P 	P 	0.66007 0.29171 0.41378 0.48900
H 	H 	0.59900 0.36000 0.41167 -0.05800
P 	P 	0.56879 0.54694 0.74107 0.50600
H 	H 	0.59200 0.61300 0.70400 -0.06600
P 	P 	0.33370 0.44053 0.76550 0.43700
H 	H 	0.39800 0.38400 0.77100 -0.06900
O 	O 	0.00080 0.40230 0.75610 -0.45900
O 	O 	0.13540 0.39170 0.80550 -0.45000
O 	O 	0.08490 0.59940 0.73790 -0.43500
O 	O 	0.83230 0.37160 0.74610 -0.40000
O 	O 	0.79700 0.54190 0.81270 -0.43500
O 	O 	0.77010 0.61070 0.71100 -0.47900
O 	O 	0.89600 0.27070 0.64240 -0.44800
O 	O 	0.78570 0.15550 0.57470 -0.45500
O 	O 	0.81830 0.42310 0.56450 -0.45700
O 	O 	0.32640 0.12530 0.98740 -0.42900
O 	O 	0.24670 0.26740 0.90460 -0.46500
O 	O 	0.33520 0.40140 0.98540 -0.41300
O 	O 	0.81510 0.95420 0.48160 -0.42900
O 	O 	0.82600 0.67960 0.48550 -0.42200
O 	O 	0.73830 0.79830 0.40030 -0.46300
O 	O 	0.72140 0.39980 0.43500 -0.46700
O 	O 	0.65550 0.25000 0.35370 -0.44100
O 	O 	0.66390 0.16050 0.45030 -0.45400
O 	O 	0.49110 0.59270 0.72980 -0.48100
O 	O 	0.57960 0.38650 0.73210 -0.44500
O 	O 	0.61860 0.60390 0.79680 -0.46000
O 	O 	0.31480 0.41770 0.81980 -0.43600
O 	O 	0.33840 0.60690 0.75460 -0.39300
O 	O 	0.27780 0.36640 0.71600 -0.46800
Zn	Zn	0.08595 0.78363 0.77756 1.23800
Zn	Zn	0.76804 0.79940 0.67503 1.23400
Zn	Zn	0.24183 0.02910 0.00109 1.23300
Zn	Zn	0.26333 0.54848 0.99397 1.23300
Zn	Zn	0.27996 0.17580 0.67994 1.23000
Zn	Zn	0.40620 0.78758 0.22133 1.24000
P 	P 	0.92391 0.94001 0.74751 0.50300
H 	H 	0.91470 0.86800 0.78500 -0.08500
P 	P 	0.17763 0.03263 0.73952 0.46200
H 	H 	0.11700 0.09300 0.72910 -0.08400
P 	P 	0.15344 0.77225 0.91622 0.49700
H 	H 	0.11400 0.73400 0.94700 -0.06200
P 	P 	0.68007 0.76049 0.54953 0.42900
H 	H 	0.62600 0.74950 0.57500 -0.03100
P 	P 	0.19024 0.31371 0.05246 0.44700
H 	H 	0.13700 0.32060 0.07630 -0.03700
P 	P 	0.33993 0.79171 0.08622 0.48900
H 	H 	0.40100 0.86000 0.08833 -0.05700
P 	P 	0.43121 0.04694 0.75893 0.50700
H 	H 	0.40800 0.11300 0.79600 -0.06600
P 	P 	0.66630 0.94053 0.73450 0.43600
H 	H 	0.60200 0.88400 0.72900 -0.06900
O 	O 	0.99920 0.90230 0.74390 -0.46000
O 	O 	0.86460 0.89170 0.69450 -0.45000
O 	O 	0.91510 0.09940 0.76210 -0.43400
O 	O 	0.16770 0.87160 0.75390 -0.40100
O 	O 	0.20300 0.04190 0.68730 -0.43500
O 	O 	0.22990 0.11070 0.78900 -0.47900
O 	O 	0.10400 0.77070 0.85760 -0.44800
O 	O 	0.21430 0.65550 0.92530 -0.45500
O 	O 	0.18170 0.92310 0.93550 -0.45700
O 	O 	0.67360 0.62530 0.51260 -0.43000
O 	O 	0.75330 0.76740 0.59540 -0.46500
O 	O 	0.66480 0.90140 0.51460 -0.41300
O 	O 	0.18490 0.45420 0.01840 -0.42900
O 	O 	0.17400 0.17960 0.01450 -0.42300
O 	O 	0.26170 0.29830 0.09970 -0.46300
O 	O 	0.27860 0.89980 0.06500 -0.46600
O 	O 	0.34450 0.75000 0.14630 -0.44100
O 	O 	0.33610 0.66050 0.04970 -0.45400
O 	O 	0.50890 0.09270 0.77020 -0.48000
O 	O 	0.42040 0.88650 0.76790 -0.44600
O 	O 	0.38140 0.10390 0.70320 -0.46000
O 	O 	0.68520 0.91770 0.68020 -0.43600
O 	O 	0.66160 0.10690 0.74540 -0.39300
O 	O 	0.72220 0.86640 0.78400 -0.46800
