data_crystal

_cell_length_a 15.17800
_cell_length_b 15.17800
_cell_length_c 12.08130
_cell_angle_alpha 90.00000
_cell_angle_beta  90.00000
_cell_angle_gamma 90.00000

_symmetry_space_group_name_	'P 1'
_symmetry_space_group_name_H-M	'P 1'

loop_
_symmetry_equiv_pos_as_xyz
  x,y,z

loop_
_atom_site_label
_atom_site_type_symbol
_atom_site_fract_x
_atom_site_fract_y
_atom_site_fract_z
_atom_site_charge
O 	O 	0.38270 0.37670 0.88820 -0.36700
O 	O 	0.28690 0.40450 0.74920 -0.38300
C 	C 	0.35990 0.41000 0.79680 0.35500
C 	C 	0.43150 0.46020 0.73600 -0.05100
C 	C 	0.43040 0.46290 0.62310 -0.03500
H 	H 	0.38220 0.43950 0.58570 0.06900
O 	O 	0.88270 0.87670 0.38820 -0.37800
O 	O 	0.78690 0.90450 0.24920 -0.39000
C 	C 	0.85990 0.91000 0.29680 0.36200
C 	C 	0.93150 0.96020 0.23600 -0.06000
C 	C 	0.93040 0.96290 0.12310 0.02000
H 	H 	0.88220 0.93950 0.08570 0.04200
O 	O 	0.11730 0.12330 0.38820 -0.38500
O 	O 	0.21310 0.09550 0.24920 -0.39200
C 	C 	0.14010 0.09000 0.29680 0.36300
C 	C 	0.06850 0.03980 0.23600 -0.07500
C 	C 	0.06960 0.03710 0.12310 0.00200
H 	H 	0.11780 0.06050 0.08570 0.04500
O 	O 	0.61730 0.62330 0.88820 -0.36600
O 	O 	0.71310 0.59550 0.74920 -0.38100
C 	C 	0.64010 0.59000 0.79680 0.35700
C 	C 	0.56850 0.53980 0.73600 -0.04900
C 	C 	0.56960 0.53710 0.62310 -0.03500
H 	H 	0.61780 0.56050 0.58570 0.06900
O 	O 	0.62330 0.88270 0.13820 -0.35200
O 	O 	0.59550 0.78690 0.99920 -0.31800
C 	C 	0.59000 0.85990 0.04680 0.22200
C 	C 	0.53980 0.93150 0.98600 0.14600
C 	C 	0.53710 0.93040 0.87310 -0.15500
H 	H 	0.56050 0.88220 0.83570 0.11300
O 	O 	0.12330 0.38270 0.63820 -0.37700
O 	O 	0.09550 0.28690 0.49920 -0.38500
C 	C 	0.09000 0.35990 0.54680 0.35000
C 	C 	0.03980 0.43150 0.48600 -0.03500
C 	C 	0.03710 0.43040 0.37310 -0.06200
H 	H 	0.06050 0.38220 0.33570 0.07700
O 	O 	0.87670 0.61730 0.63820 -0.37300
O 	O 	0.90450 0.71310 0.49920 -0.38100
C 	C 	0.91000 0.64010 0.54680 0.35000
C 	C 	0.96020 0.56850 0.48600 -0.02300
C 	C 	0.96290 0.56960 0.37310 -0.04700
H 	H 	0.93950 0.61780 0.33570 0.07600
O 	O 	0.37670 0.11730 0.13820 -0.35500
O 	O 	0.40450 0.21310 0.99920 -0.31900
C 	C 	0.41000 0.14010 0.04680 0.22500
C 	C 	0.46020 0.06850 0.98600 0.14000
C 	C 	0.46290 0.06960 0.87310 -0.16000
H 	H 	0.43950 0.11780 0.83570 0.11400
O 	O 	0.11730 0.37670 0.86180 -0.40800
O 	O 	0.21310 0.40450 0.00080 -0.44600
C 	C 	0.14010 0.41000 0.95320 0.48800
C 	C 	0.06850 0.46020 0.01400 -0.24500
C 	C 	0.06960 0.46290 0.12690 0.09500
H 	H 	0.11780 0.43950 0.16430 0.02100
O 	O 	0.61730 0.87670 0.36180 -0.38400
O 	O 	0.71310 0.90450 0.50080 -0.38600
C 	C 	0.64010 0.91000 0.45320 0.36400
C 	C 	0.56850 0.96020 0.51400 -0.06800
C 	C 	0.56960 0.96290 0.62690 0.00400
H 	H 	0.61780 0.93950 0.66430 0.05700
O 	O 	0.38270 0.12330 0.36180 -0.38500
O 	O 	0.28690 0.09550 0.50080 -0.38800
C 	C 	0.35990 0.09000 0.45320 0.36400
C 	C 	0.43150 0.03980 0.51400 -0.07300
C 	C 	0.43040 0.03710 0.62690 -0.00100
H 	H 	0.38220 0.06050 0.66430 0.05700
O 	O 	0.88270 0.62330 0.86180 -0.40300
O 	O 	0.78690 0.59550 0.00080 -0.44700
C 	C 	0.85990 0.59000 0.95320 0.49100
C 	C 	0.93150 0.53980 0.01400 -0.23600
C 	C 	0.93040 0.53710 0.12690 0.11000
H 	H 	0.88220 0.56050 0.16430 0.01900
O 	O 	0.87670 0.88270 0.61180 -0.37300
O 	O 	0.90450 0.78690 0.75080 -0.37600
C 	C 	0.91000 0.85990 0.70320 0.34700
C 	C 	0.96020 0.93150 0.76400 -0.01000
C 	C 	0.96290 0.93040 0.87690 -0.04700
H 	H 	0.93950 0.88220 0.91430 0.08800
O 	O 	0.37670 0.38270 0.11180 -0.39100
O 	O 	0.40450 0.28690 0.25080 -0.38900
C 	C 	0.41000 0.35990 0.20320 0.36000
C 	C 	0.46020 0.43150 0.26400 -0.06200
C 	C 	0.46290 0.43040 0.37690 -0.02700
H 	H 	0.43950 0.38220 0.41430 0.06600
O 	O 	0.62330 0.61730 0.11180 -0.39000
O 	O 	0.59550 0.71310 0.25080 -0.38900
C 	C 	0.59000 0.64010 0.20320 0.36000
C 	C 	0.53980 0.56850 0.26400 -0.06200
C 	C 	0.53710 0.56960 0.37690 -0.02700
H 	H 	0.56050 0.61780 0.41430 0.06600
O 	O 	0.12330 0.11730 0.61180 -0.37900
O 	O 	0.09550 0.21310 0.75080 -0.38100
C 	C 	0.09000 0.14010 0.70320 0.34800
C 	C 	0.03980 0.06850 0.76400 -0.02700
C 	C 	0.03710 0.06960 0.87690 -0.06800
H 	H 	0.06050 0.11780 0.91430 0.09000
Ni	Ni	0.18964 0.31036 0.75000 1.14200
Ni	Ni	0.31036 0.18964 0.25000 1.13900
Ni	Ni	0.68964 0.68964 -0.00000 1.12400
Ni	Ni	0.81036 0.81036 0.50000 1.14100
Ni	Ni	0.31036 0.31036 -0.00000 1.12500
Ni	Ni	0.18964 0.18964 0.50000 1.14000
Ni	Ni	0.81036 0.68964 0.75000 1.14300
Ni	Ni	0.68964 0.81036 0.25000 1.13900
O 	O 	0.25000 0.23640 0.87500 -0.36600
O 	O 	0.75000 0.73640 0.37500 -0.37700
O 	O 	0.25000 0.26360 0.37500 -0.37800
O 	O 	0.75000 0.76360 0.87500 -0.36500
O 	O 	0.76360 0.75000 0.12500 -0.38500
O 	O 	0.26360 0.25000 0.62500 -0.37800
O 	O 	0.73640 0.75000 0.62500 -0.37800
O 	O 	0.23640 0.25000 0.12500 -0.38600
C 	C 	0.50000 0.50000 0.79450 0.00700
H 	H 	0.50000 0.50000 0.87150 0.07600
C 	C 	0.50000 0.50000 0.56140 0.02100
C 	C 	0.00000 0.00000 0.29450 0.00300
H 	H 	0.00000 0.00000 0.37150 0.06200
C 	C 	0.00000 0.00000 0.06140 -0.06700
C 	C 	0.50000 0.00000 0.04450 -0.23200
H 	H 	0.50000 -0.00000 0.12150 0.14200
C 	C 	0.50000 0.00000 0.81140 0.11200
C 	C 	0.00000 0.50000 0.54450 -0.02700
H 	H 	0.00000 0.50000 0.62150 0.07700
C 	C 	0.00000 0.50000 0.31140 0.05000
C 	C 	-0.00000 0.50000 0.95550 0.22600
H 	H 	-0.00000 0.50000 0.87850 -0.00700
C 	C 	-0.00000 0.50000 0.18860 -0.09400
C 	C 	0.50000 0.00000 0.45550 0.02100
H 	H 	0.50000 0.00000 0.37850 0.05800
C 	C 	0.50000 0.00000 0.68860 -0.03400
C 	C 	-0.00000 -0.00000 0.70550 -0.03900
H 	H 	0.00000 0.00000 0.62850 0.07700
C 	C 	-0.00000 -0.00000 0.93860 0.06800
C 	C 	0.50000 0.50000 0.20550 0.01700
H 	H 	0.50000 0.50000 0.12850 0.05600
C 	C 	0.50000 0.50000 0.43860 0.01200
