data_crystal

_cell_length_a 9.70540
_cell_length_b 9.70540
_cell_length_c 6.68940
_cell_angle_alpha 90.00000
_cell_angle_beta  90.00000
_cell_angle_gamma 90.00000

_symmetry_space_group_name_	'P 1'
_symmetry_space_group_name_H-M	'P 1'

loop_
_symmetry_equiv_pos_as_xyz
  x,y,z

loop_
_atom_site_label
_atom_site_type_symbol
_atom_site_fract_x
_atom_site_fract_y
_atom_site_fract_z
_atom_site_charge
C 	C 	0.08670 0.48570 0.34640 0.00100
H 	H 	0.14560 0.47830 0.23720 -0.00200
C 	C 	0.41330 0.01430 0.34640 0.00100
H 	H 	0.35440 0.02170 0.23720 -0.00200
C 	C 	0.01430 0.08670 0.34640 0.00100
H 	H 	0.02170 0.14560 0.23720 -0.00200
C 	C 	0.48570 0.41330 0.34640 0.00100
H 	H 	0.47830 0.35440 0.23720 -0.00200
C 	C 	0.41330 0.48570 0.65360 0.00200
H 	H 	0.35440 0.47830 0.76280 -0.00100
C 	C 	0.08670 0.01430 0.65360 0.00200
H 	H 	0.14560 0.02170 0.76280 -0.00100
C 	C 	0.48570 0.08670 0.65360 0.00200
H 	H 	0.47830 0.14560 0.76280 -0.00100
C 	C 	0.01430 0.41330 0.65360 0.00200
H 	H 	0.02170 0.35440 0.76280 -0.00100
C 	C 	0.91330 0.51430 0.65360 0.00200
H 	H 	0.85440 0.52170 0.76280 -0.00100
C 	C 	0.58670 0.98570 0.65360 0.00200
H 	H 	0.64560 0.97830 0.76280 -0.00100
C 	C 	0.98570 0.91330 0.65360 0.00200
H 	H 	0.97830 0.85440 0.76280 -0.00100
C 	C 	0.51430 0.58670 0.65360 0.00200
H 	H 	0.52170 0.64560 0.76280 -0.00100
C 	C 	0.58670 0.51430 0.34640 0.00200
H 	H 	0.64560 0.52170 0.23720 -0.00100
C 	C 	0.91330 0.98570 0.34640 0.00200
H 	H 	0.85440 0.97830 0.23720 -0.00100
C 	C 	0.51430 0.91330 0.34640 0.00200
H 	H 	0.52170 0.85440 0.23720 -0.00100
C 	C 	0.98570 0.58670 0.34640 0.00200
H 	H 	0.97830 0.64560 0.23720 -0.00100
Cu	Cu	0.25000 0.25000 0.50000 0.84400
Cu	Cu	0.75000 0.75000 0.50000 0.84400
N 	N 	0.10140 0.39860 0.50000 -0.21200
N 	N 	0.39860 0.10140 0.50000 -0.21200
N 	N 	0.10140 0.10140 0.50000 -0.21200
N 	N 	0.39860 0.39860 0.50000 -0.21200
N 	N 	0.89860 0.60140 0.50000 -0.21200
N 	N 	0.60140 0.89860 0.50000 -0.21200
N 	N 	0.89860 0.89860 0.50000 -0.21200
N 	N 	0.60140 0.60140 0.50000 -0.21200
