data_crystal

_cell_length_a 6.85430
_cell_length_b 6.85430
_cell_length_c 6.89300
_cell_angle_alpha 90.00000
_cell_angle_beta  90.00000
_cell_angle_gamma 90.00000

_symmetry_space_group_name_	'P 1'
_symmetry_space_group_name_H-M	'P 1'

loop_
_symmetry_equiv_pos_as_xyz
  x,y,z

loop_
_atom_site_label
_atom_site_type_symbol
_atom_site_fract_x
_atom_site_fract_y
_atom_site_fract_z
_atom_site_charge
Cu	Cu	0.50000 0.50000 0.50000 0.84500
N 	N 	0.79770 0.50000 0.50000 -0.21400
N 	N 	0.20230 0.50000 0.50000 -0.21300
N 	N 	0.50000 0.79770 0.50000 -0.21300
N 	N 	0.50000 0.20230 0.50000 -0.21300
C 	C 	0.89900 0.50000 0.33730 0.00600
H 	H 	0.83300 0.50000 0.21940 -0.00500
C 	C 	0.10100 0.50000 0.33730 0.00600
H 	H 	0.16700 0.50000 0.21940 -0.00500
C 	C 	0.50000 0.89900 0.33730 0.00600
H 	H 	0.50000 0.83300 0.21940 -0.00500
C 	C 	0.50000 0.10100 0.33730 0.00600
H 	H 	0.50000 0.16700 0.21940 -0.00500
C 	C 	0.10100 0.50000 0.66270 0.00600
H 	H 	0.16700 0.50000 0.78060 -0.00500
C 	C 	0.89900 0.50000 0.66270 0.00600
H 	H 	0.83300 0.50000 0.78060 -0.00500
C 	C 	0.50000 0.89900 0.66270 0.00600
H 	H 	0.50000 0.83300 0.78060 -0.00500
C 	C 	0.50000 0.10100 0.66270 0.00600
H 	H 	0.50000 0.16700 0.78060 -0.00500
