data_crystal

_cell_length_a 9.73250
_cell_length_b 9.73250
_cell_length_c 8.21540
_cell_angle_alpha 90.00000
_cell_angle_beta  90.00000
_cell_angle_gamma 90.00000

_symmetry_space_group_name_	'P 1'
_symmetry_space_group_name_H-M	'P 1'

loop_
_symmetry_equiv_pos_as_xyz
  x,y,z

loop_
_atom_site_label
_atom_site_type_symbol
_atom_site_fract_x
_atom_site_fract_y
_atom_site_fract_z
_atom_site_charge
C 	C 	0.08832 0.01257 0.12365 0.00000
H 	H 	0.14960 0.01890 0.21340 -0.00200
C 	C 	0.41168 0.48743 0.12365 0.00100
H 	H 	0.35040 0.48110 0.21340 -0.00200
C 	C 	0.48743 0.08832 0.12365 0.00100
H 	H 	0.48110 0.14960 0.21340 -0.00100
C 	C 	0.01257 0.41168 0.12365 0.00100
H 	H 	0.01890 0.35040 0.21340 -0.00100
C 	C 	0.41168 0.01257 0.87635 0.00100
H 	H 	0.35040 0.01890 0.78660 -0.00100
C 	C 	0.08832 0.48743 0.87635 0.00200
H 	H 	0.14960 0.48110 0.78660 -0.00100
C 	C 	0.01257 0.08832 0.87635 0.00100
H 	H 	0.01890 0.14960 0.78660 -0.00100
C 	C 	0.48743 0.41168 0.87635 0.00200
H 	H 	0.48110 0.35040 0.78660 -0.00100
C 	C 	0.91168 0.98743 0.87635 0.00100
H 	H 	0.85040 0.98110 0.78660 -0.00100
C 	C 	0.58832 0.51257 0.87635 0.00200
H 	H 	0.64960 0.51890 0.78660 -0.00100
C 	C 	0.51257 0.91168 0.87635 0.00200
H 	H 	0.51890 0.85040 0.78660 -0.00100
C 	C 	0.98743 0.58832 0.87635 0.00100
H 	H 	0.98110 0.64960 0.78660 -0.00100
C 	C 	0.58832 0.98743 0.12365 0.00100
H 	H 	0.64960 0.98110 0.21340 -0.00100
C 	C 	0.91168 0.51257 0.12365 0.00100
H 	H 	0.85040 0.51890 0.21340 -0.00100
C 	C 	0.98743 0.91168 0.12365 0.00100
H 	H 	0.98110 0.85040 0.21340 -0.00100
C 	C 	0.51257 0.58832 0.12365 0.00200
H 	H 	0.51890 0.64960 0.21340 -0.00100
Cu	Cu	0.25000 0.25000 -0.00000 0.84300
Cu	Cu	0.75000 0.75000 -0.00000 0.84300
N 	N 	0.10103 0.10103 -0.00000 -0.21100
N 	N 	0.39897 0.39897 -0.00000 -0.21100
N 	N 	0.39897 0.10103 -0.00000 -0.21100
N 	N 	0.10103 0.39897 -0.00000 -0.21100
N 	N 	0.89897 0.89897 -0.00000 -0.21100
N 	N 	0.60103 0.60103 -0.00000 -0.21100
N 	N 	0.60103 0.89897 -0.00000 -0.21100
N 	N 	0.89897 0.60103 -0.00000 -0.21100
