data_crystal

_cell_length_a 9.71340
_cell_length_b 9.71340
_cell_length_c 8.24150
_cell_angle_alpha 90.00000
_cell_angle_beta  90.00000
_cell_angle_gamma 90.00000

_symmetry_space_group_name_	'P 1'
_symmetry_space_group_name_H-M	'P 1'

loop_
_symmetry_equiv_pos_as_xyz
  x,y,z

loop_
_atom_site_label
_atom_site_type_symbol
_atom_site_fract_x
_atom_site_fract_y
_atom_site_fract_z
_atom_site_charge
C 	C 	0.08787 0.01336 0.12399 0.00100
H 	H 	0.14880 0.02030 0.21380 -0.00200
C 	C 	0.41213 0.48664 0.12399 0.00100
H 	H 	0.35120 0.47970 0.21380 -0.00200
C 	C 	0.48664 0.08787 0.12399 0.00100
H 	H 	0.47970 0.14880 0.21380 -0.00200
C 	C 	0.01336 0.41213 0.12399 0.00100
H 	H 	0.02030 0.35120 0.21380 -0.00200
C 	C 	0.41213 0.01336 0.87601 0.00200
H 	H 	0.35120 0.02030 0.78620 -0.00100
C 	C 	0.08787 0.48664 0.87601 0.00200
H 	H 	0.14880 0.47970 0.78620 -0.00100
C 	C 	0.01336 0.08787 0.87601 0.00200
H 	H 	0.02030 0.14880 0.78620 -0.00100
C 	C 	0.48664 0.41213 0.87601 0.00200
H 	H 	0.47970 0.35120 0.78620 -0.00100
C 	C 	0.91213 0.98664 0.87601 0.00200
H 	H 	0.85120 0.97970 0.78620 -0.00100
C 	C 	0.58787 0.51336 0.87601 0.00200
H 	H 	0.64880 0.52030 0.78620 -0.00100
C 	C 	0.51336 0.91213 0.87601 0.00200
H 	H 	0.52030 0.85120 0.78620 -0.00100
C 	C 	0.98664 0.58787 0.87601 0.00200
H 	H 	0.97970 0.64880 0.78620 -0.00100
C 	C 	0.58787 0.98664 0.12399 0.00200
H 	H 	0.64880 0.97970 0.21380 -0.00100
C 	C 	0.91213 0.51336 0.12399 0.00200
H 	H 	0.85120 0.52030 0.21380 -0.00100
C 	C 	0.98664 0.91213 0.12399 0.00200
H 	H 	0.97970 0.85120 0.21380 -0.00100
C 	C 	0.51336 0.58787 0.12399 0.00200
H 	H 	0.52030 0.64880 0.21380 -0.00100
Cu	Cu	0.25000 0.25000 -0.00000 0.84400
Cu	Cu	0.75000 0.75000 -0.00000 0.84400
N 	N 	0.10110 0.10110 -0.00000 -0.21200
N 	N 	0.39890 0.39890 -0.00000 -0.21200
N 	N 	0.39890 0.10110 -0.00000 -0.21200
N 	N 	0.10110 0.39890 -0.00000 -0.21200
N 	N 	0.89890 0.89890 -0.00000 -0.21200
N 	N 	0.60110 0.60110 -0.00000 -0.21200
N 	N 	0.60110 0.89890 -0.00000 -0.21200
N 	N 	0.89890 0.60110 -0.00000 -0.21200
