data_crystal

_cell_length_a 18.06400
_cell_length_b 22.11370
_cell_length_c 22.11370
_cell_angle_alpha 80.39700
_cell_angle_beta  65.89340
_cell_angle_gamma 65.89330

_symmetry_space_group_name_	'P 1'
_symmetry_space_group_name_H-M	'P 1'

loop_
_symmetry_equiv_pos_as_xyz
  x,y,z

loop_
_atom_site_label
_atom_site_type_symbol
_atom_site_fract_x
_atom_site_fract_y
_atom_site_fract_z
_atom_site_charge
Cu	Cu	0.75996 0.99004 0.49004 0.85200
Cu	Cu	0.74004 0.50996 0.00996 0.85200
Cu	Cu	0.25000 0.49004 0.50996 0.85200
Cu	Cu	0.75000 0.00996 0.99004 0.85100
H 	H 	0.72400 0.92230 0.62010 -0.02100
H 	H 	0.71600 0.93030 0.72490 0.07500
H 	H 	0.78940 0.08530 0.66330 0.07700
H 	H 	0.78670 0.07680 0.56220 -0.02500
H 	H 	0.63760 0.99920 0.92840 -0.01900
H 	H 	0.64030 0.99240 0.82580 0.07500
H 	H 	0.85350 0.03960 0.74580 0.07200
H 	H 	0.84830 0.04110 0.85190 -0.01800
H 	H 	0.76640 0.57770 0.87990 -0.02300
H 	H 	0.87120 0.56970 0.77510 0.07400
H 	H 	0.03800 0.41470 0.83670 0.07600
H 	H 	0.92570 0.42320 0.93780 -0.02600
H 	H 	0.06520 0.50080 0.57160 -0.02300
H 	H 	0.95850 0.50760 0.67420 0.07200
H 	H 	0.13890 0.46040 0.75420 0.07100
H 	H 	0.24130 0.45890 0.64810 -0.01900
H 	H 	0.73360 0.12010 0.42230 -0.02300
H 	H 	0.62880 0.22490 0.43030 0.07400
H 	H 	0.46200 0.16330 0.58530 0.07700
H 	H 	0.57430 0.06220 0.57680 -0.02600
H 	H 	0.43480 0.42840 0.49920 -0.02200
H 	H 	0.54150 0.32580 0.49240 0.07200
H 	H 	0.36110 0.24580 0.53960 0.07100
H 	H 	0.25870 0.35190 0.54110 -0.01900
H 	H 	0.77600 0.37990 0.07770 -0.02300
H 	H 	0.78400 0.27510 0.06970 0.07400
H 	H 	0.71060 0.33670 0.91470 0.07700
H 	H 	0.71330 0.43780 0.92320 -0.02600
H 	H 	0.86240 0.07160 0.00080 -0.02100
H 	H 	0.85970 0.17420 0.00760 0.07300
H 	H 	0.64650 0.25420 0.96040 0.07100
H 	H 	0.65170 0.14810 0.95890 -0.01900
H 	H 	0.15590 0.62010 0.57770 -0.02300
H 	H 	0.05910 0.72490 0.56970 0.07400
H 	H 	0.04730 0.66330 0.41470 0.07700
H 	H 	0.15110 0.56220 0.42320 -0.02600
H 	H 	0.93400 0.92840 0.50080 -0.02200
H 	H 	0.03390 0.82580 0.50760 0.07100
H 	H 	0.90070 0.74580 0.46040 0.07100
H 	H 	0.79980 0.85190 0.45890 -0.01900
H 	H 	0.85370 0.87990 0.92230 -0.02200
H 	H 	0.85370 0.77510 0.93030 0.07300
H 	H 	0.62530 0.83670 0.08530 0.07600
H 	H 	0.63650 0.93780 0.07680 -0.02500
H 	H 	0.86320 0.57160 0.99920 -0.02200
H 	H 	0.86730 0.67420 0.99240 0.07400
H 	H 	0.60690 0.75420 0.03960 0.07100
H 	H 	0.61060 0.64810 0.04110 -0.01900
H 	H 	0.64630 0.07770 0.12010 -0.02200
H 	H 	0.64630 0.06970 0.22490 0.07400
H 	H 	0.87470 0.91470 0.16330 0.07600
H 	H 	0.86350 0.92320 0.06220 -0.02600
H 	H 	0.63680 0.00080 0.42840 -0.02200
H 	H 	0.63270 0.00760 0.32580 0.07300
H 	H 	0.89310 0.96040 0.24580 0.07100
H 	H 	0.88940 0.95890 0.35190 -0.01900
H 	H 	0.34410 0.42230 0.37990 -0.02300
H 	H 	0.44090 0.43030 0.27510 0.07400
H 	H 	0.45270 0.58530 0.33670 0.07700
H 	H 	0.34890 0.57680 0.43780 -0.02600
H 	H 	0.56600 0.49920 0.07160 -0.02200
H 	H 	0.46610 0.49240 0.17420 0.07200
H 	H 	0.59930 0.53960 0.25420 0.07100
H 	H 	0.70020 0.54110 0.14810 -0.01900
C 	C 	0.73560 0.95620 0.62960 0.07700
C 	C 	0.73140 0.96040 0.69240 -0.14100
C 	C 	0.75020 0.01030 0.70690 0.05700
C 	C 	0.77370 0.05270 0.65630 -0.14800
C 	C 	0.77360 0.04639 0.59521 0.08500
C 	C 	0.68260 0.00570 0.89130 0.07400
C 	C 	0.68310 0.00260 0.83000 -0.14200
C 	C 	0.74760 0.01440 0.77400 0.05200
C 	C 	0.81030 0.03010 0.78210 -0.13700
C 	C 	0.80640 0.03100 0.84620 0.07100
C 	C 	0.82140 0.54380 0.87040 0.07800
C 	C 	0.88420 0.53960 0.80760 -0.14300
C 	C 	0.96740 0.48970 0.79310 0.05900
C 	C 	0.98270 0.44730 0.84370 -0.14900
C 	C 	0.91520 0.45361 0.90479 0.08700
C 	C 	0.07960 0.49430 0.60870 0.07700
C 	C 	0.01570 0.49740 0.67000 -0.14100
C 	C 	0.03600 0.48560 0.72600 0.05100
C 	C 	0.12250 0.46990 0.71790 -0.13600
C 	C 	0.18360 0.46900 0.65380 0.07000
C 	C 	0.67860 0.12960 0.45620 0.07800
C 	C 	0.61580 0.19240 0.46040 -0.14400
C 	C 	0.53260 0.20690 0.51030 0.05900
C 	C 	0.51730 0.15630 0.55270 -0.14900
C 	C 	0.58480 0.09521 0.54639 0.08700
C 	C 	0.42040 0.39130 0.50570 0.07700
C 	C 	0.48430 0.33000 0.50260 -0.14000
C 	C 	0.46400 0.27400 0.51440 0.05100
C 	C 	0.37750 0.28210 0.53010 -0.13600
C 	C 	0.31640 0.34620 0.53100 0.07000
C 	C 	0.76440 0.37040 0.04380 0.07700
C 	C 	0.76860 0.30760 0.03960 -0.14300
C 	C 	0.74980 0.29310 0.98970 0.05800
C 	C 	0.72630 0.34370 0.94730 -0.14900
C 	C 	0.72640 0.40479 0.95361 0.08700
C 	C 	0.81740 0.10870 0.99430 0.07500
C 	C 	0.81690 0.17000 0.99740 -0.14100
C 	C 	0.75240 0.22600 0.98560 0.05100
C 	C 	0.68970 0.21790 0.96990 -0.13600
C 	C 	0.69360 0.15380 0.96900 0.07000
C 	C 	0.13480 0.62960 0.54380 0.07800
C 	C 	0.07620 0.69240 0.53960 -0.14300
C 	C 	0.04290 0.70690 0.48970 0.05900
C 	C 	0.07000 0.65630 0.44730 -0.14900
C 	C 	0.13119 0.59521 0.45361 0.08700
C 	C 	0.92610 0.89130 0.49430 0.07600
C 	C 	0.98690 0.83000 0.49740 -0.13900
C 	C 	0.97840 0.77400 0.48560 0.05100
C 	C 	0.90760 0.78210 0.46990 -0.13600
C 	C 	0.84740 0.84620 0.46900 0.07000
C 	C 	0.80820 0.87040 0.95620 0.07600
C 	C 	0.80820 0.80760 0.96040 -0.13900
C 	C 	0.73950 0.79310 0.01030 0.05500
C 	C 	0.67360 0.84370 0.05270 -0.14600
C 	C 	0.68001 0.90479 0.04639 0.08300
C 	C 	0.81170 0.60870 0.00570 0.07700
C 	C 	0.81430 0.67000 0.00260 -0.14300
C 	C 	0.73800 0.72600 0.01440 0.05300
C 	C 	0.65960 0.71790 0.03010 -0.13700
C 	C 	0.66260 0.65380 0.03100 0.07100
C 	C 	0.69180 0.04380 0.12960 0.07700
C 	C 	0.69180 0.03960 0.19240 -0.14100
C 	C 	0.76050 0.98970 0.20690 0.05700
C 	C 	0.82640 0.94730 0.15630 -0.14700
C 	C 	0.81999 0.95361 0.09521 0.08500
C 	C 	0.68830 0.99430 0.39130 0.07800
C 	C 	0.68570 0.99740 0.33000 -0.14200
C 	C 	0.76200 0.98560 0.27400 0.05200
C 	C 	0.84040 0.96990 0.28210 -0.13700
C 	C 	0.83740 0.96900 0.34620 0.07100
C 	C 	0.36520 0.45620 0.37040 0.07800
C 	C 	0.42380 0.46040 0.30760 -0.14400
C 	C 	0.45710 0.51030 0.29310 0.05900
C 	C 	0.43000 0.55270 0.34370 -0.14900
C 	C 	0.36881 0.54639 0.40479 0.08700
C 	C 	0.57390 0.50570 0.10870 0.07700
C 	C 	0.51310 0.50260 0.17000 -0.14000
C 	C 	0.52160 0.51440 0.22600 0.05100
C 	C 	0.59240 0.53010 0.21790 -0.13600
C 	C 	0.65260 0.53100 0.15380 0.07000
N 	N 	0.75596 0.99922 0.58126 -0.24100
N 	N 	0.74481 0.01786 0.89992 -0.24100
N 	N 	0.83644 0.50078 0.91874 -0.24200
N 	N 	0.16259 0.48214 0.60008 -0.24100
N 	N 	0.66356 0.08126 0.49922 -0.24200
N 	N 	0.33741 0.39992 0.51786 -0.24100
N 	N 	0.74404 0.41874 0.00078 -0.24200
N 	N 	0.75519 0.10008 0.98214 -0.24100
N 	N 	0.16278 0.58126 0.50078 -0.24200
N 	N 	0.85527 0.89992 0.48214 -0.24100
N 	N 	0.74482 0.91874 0.99922 -0.24000
N 	N 	0.73733 0.60008 0.01786 -0.24100
N 	N 	0.75518 0.00078 0.08126 -0.24100
N 	N 	0.76267 0.98214 0.39992 -0.24100
N 	N 	0.33722 0.49922 0.41874 -0.24200
N 	N 	0.64473 0.51786 0.10008 -0.24100
Cu	Cu	0.75000 0.50996 0.49004 0.85100
Cu	Cu	0.25000 0.99004 0.00996 0.85000
Cu	Cu	0.24004 0.00996 0.50996 0.85100
Cu	Cu	0.25996 0.49004 0.99004 0.85100
H 	H 	0.84410 0.37990 0.42230 -0.02300
H 	H 	0.94090 0.27510 0.43030 0.07400
H 	H 	0.95270 0.33670 0.58530 0.07700
H 	H 	0.84890 0.43780 0.57680 -0.02600
H 	H 	0.06600 0.07160 0.49920 -0.02200
H 	H 	0.96610 0.17420 0.49240 0.07100
H 	H 	0.09930 0.25420 0.53960 0.07100
H 	H 	0.20020 0.14810 0.54110 -0.01900
H 	H 	0.14630 0.12010 0.07770 -0.02200
H 	H 	0.14630 0.22490 0.06970 0.07300
H 	H 	0.37470 0.16330 0.91470 0.07600
H 	H 	0.36350 0.06220 0.92320 -0.02500
H 	H 	0.13680 0.42840 0.00080 -0.02200
H 	H 	0.13270 0.32580 0.00760 0.07400
H 	H 	0.39310 0.24580 0.96040 0.07100
H 	H 	0.38940 0.35190 0.95890 -0.01900
H 	H 	0.35370 0.92230 0.87990 -0.02200
H 	H 	0.35370 0.93030 0.77510 0.07400
H 	H 	0.12530 0.08530 0.83670 0.07600
H 	H 	0.13650 0.07680 0.93780 -0.02600
H 	H 	0.36320 0.99920 0.57160 -0.02200
H 	H 	0.36730 0.99240 0.67420 0.07300
H 	H 	0.10690 0.03960 0.75420 0.07100
H 	H 	0.11060 0.04110 0.64810 -0.01900
H 	H 	0.65590 0.57770 0.62010 -0.02300
H 	H 	0.55910 0.56970 0.72490 0.07400
H 	H 	0.54730 0.41470 0.66330 0.07700
H 	H 	0.65110 0.42320 0.56220 -0.02600
H 	H 	0.43400 0.50080 0.92840 -0.02200
H 	H 	0.53390 0.50760 0.82580 0.07200
H 	H 	0.40070 0.46040 0.74580 0.07100
H 	H 	0.29980 0.45890 0.85190 -0.01900
H 	H 	0.27600 0.07770 0.37990 -0.02200
H 	H 	0.28400 0.06970 0.27510 0.07400
H 	H 	0.21060 0.91470 0.33670 0.07600
H 	H 	0.21330 0.92320 0.43780 -0.02600
H 	H 	0.36240 0.00080 0.07160 -0.02000
H 	H 	0.35970 0.00760 0.17420 0.07400
H 	H 	0.14650 0.96040 0.25420 0.07100
H 	H 	0.15170 0.95890 0.14810 -0.01900
H 	H 	0.23360 0.42230 0.12010 -0.02300
H 	H 	0.12880 0.43030 0.22490 0.07400
H 	H 	0.96200 0.58530 0.16330 0.07600
H 	H 	0.07430 0.57680 0.06220 -0.02600
H 	H 	0.93480 0.49920 0.42840 -0.02300
H 	H 	0.04150 0.49240 0.32580 0.07200
H 	H 	0.86110 0.53960 0.24580 0.07100
H 	H 	0.75870 0.54110 0.35190 -0.01900
H 	H 	0.26640 0.87990 0.57770 -0.02300
H 	H 	0.37120 0.77510 0.56970 0.07400
H 	H 	0.53800 0.83670 0.41470 0.07700
H 	H 	0.42570 0.93780 0.42320 -0.02600
H 	H 	0.56520 0.57160 0.50080 -0.02200
H 	H 	0.45850 0.67420 0.50760 0.07200
H 	H 	0.63890 0.75420 0.46040 0.07100
H 	H 	0.74130 0.64810 0.45890 -0.01900
H 	H 	0.22400 0.62010 0.92230 -0.02300
H 	H 	0.21600 0.72490 0.93030 0.07400
H 	H 	0.28940 0.66330 0.08530 0.07700
H 	H 	0.28670 0.56220 0.07680 -0.02600
H 	H 	0.13760 0.92840 0.99920 -0.02100
H 	H 	0.14030 0.82580 0.99240 0.07300
H 	H 	0.35350 0.74580 0.03960 0.07100
H 	H 	0.34830 0.85190 0.04110 -0.01900
C 	C 	0.86520 0.37040 0.45620 0.07800
C 	C 	0.92380 0.30760 0.46040 -0.14300
C 	C 	0.95710 0.29310 0.51030 0.05900
C 	C 	0.93000 0.34370 0.55270 -0.14900
C 	C 	0.86881 0.40479 0.54639 0.08700
C 	C 	0.07390 0.10870 0.50570 0.07600
C 	C 	0.01310 0.17000 0.50260 -0.13900
C 	C 	0.02160 0.22600 0.51440 0.05100
C 	C 	0.09240 0.21790 0.53010 -0.13600
C 	C 	0.15260 0.15380 0.53100 0.07000
C 	C 	0.19180 0.12960 0.04380 0.07600
C 	C 	0.19180 0.19240 0.03960 -0.13900
C 	C 	0.26050 0.20690 0.98970 0.05500
C 	C 	0.32640 0.15630 0.94730 -0.14600
C 	C 	0.31999 0.09521 0.95361 0.08300
C 	C 	0.18830 0.39130 0.99430 0.07700
C 	C 	0.18570 0.33000 0.99740 -0.14300
C 	C 	0.26200 0.27400 0.98560 0.05300
C 	C 	0.34040 0.28210 0.96990 -0.13700
C 	C 	0.33740 0.34620 0.96900 0.07100
C 	C 	0.30820 0.95620 0.87040 0.07700
C 	C 	0.30820 0.96040 0.80760 -0.14100
C 	C 	0.23950 0.01030 0.79310 0.05700
C 	C 	0.17360 0.05270 0.84370 -0.14700
C 	C 	0.18001 0.04639 0.90479 0.08500
C 	C 	0.31170 0.00570 0.60870 0.07800
C 	C 	0.31430 0.00260 0.67000 -0.14200
C 	C 	0.23800 0.01440 0.72600 0.05200
C 	C 	0.15960 0.03010 0.71790 -0.13700
C 	C 	0.16260 0.03100 0.65380 0.07100
C 	C 	0.63480 0.54380 0.62960 0.07800
C 	C 	0.57620 0.53960 0.69240 -0.14400
C 	C 	0.54290 0.48970 0.70690 0.05900
C 	C 	0.57000 0.44730 0.65630 -0.14900
C 	C 	0.63119 0.45361 0.59521 0.08700
C 	C 	0.42610 0.49430 0.89130 0.07700
C 	C 	0.48690 0.49740 0.83000 -0.14000
C 	C 	0.47840 0.48560 0.77400 0.05100
C 	C 	0.40760 0.46990 0.78210 -0.13600
C 	C 	0.34740 0.46900 0.84620 0.07000
C 	C 	0.26440 0.04380 0.37040 0.07700
C 	C 	0.26860 0.03960 0.30760 -0.14100
C 	C 	0.24980 0.98970 0.29310 0.05700
C 	C 	0.22630 0.94730 0.34370 -0.14800
C 	C 	0.22640 0.95361 0.40479 0.08500
C 	C 	0.31740 0.99430 0.10870 0.07400
C 	C 	0.31690 0.99740 0.17000 -0.14200
C 	C 	0.25240 0.98560 0.22600 0.05200
C 	C 	0.18970 0.96990 0.21790 -0.13700
C 	C 	0.19360 0.96900 0.15380 0.07100
C 	C 	0.17860 0.45620 0.12960 0.07800
C 	C 	0.11580 0.46040 0.19240 -0.14300
C 	C 	0.03260 0.51030 0.20690 0.05900
C 	C 	0.01730 0.55270 0.15630 -0.14900
C 	C 	0.08480 0.54639 0.09521 0.08700
C 	C 	0.92040 0.50570 0.39130 0.07700
C 	C 	0.98430 0.50260 0.33000 -0.14100
C 	C 	0.96400 0.51440 0.27400 0.05100
C 	C 	0.87750 0.53010 0.28210 -0.13600
C 	C 	0.81640 0.53100 0.34620 0.07000
C 	C 	0.32140 0.87040 0.54380 0.07800
C 	C 	0.38420 0.80760 0.53960 -0.14400
C 	C 	0.46740 0.79310 0.48970 0.05900
C 	C 	0.48270 0.84370 0.44730 -0.14900
C 	C 	0.41520 0.90479 0.45361 0.08700
C 	C 	0.57960 0.60870 0.49430 0.07700
C 	C 	0.51570 0.67000 0.49740 -0.14000
C 	C 	0.53600 0.72600 0.48560 0.05100
C 	C 	0.62250 0.71790 0.46990 -0.13600
C 	C 	0.68360 0.65380 0.46900 0.07000
C 	C 	0.23560 0.62960 0.95620 0.07700
C 	C 	0.23140 0.69240 0.96040 -0.14300
C 	C 	0.25020 0.70690 0.01030 0.05800
C 	C 	0.27370 0.65630 0.05270 -0.14900
C 	C 	0.27360 0.59521 0.04639 0.08700
C 	C 	0.18260 0.89130 0.00570 0.07500
C 	C 	0.18310 0.83000 0.00260 -0.14100
C 	C 	0.24760 0.77400 0.01440 0.05100
C 	C 	0.31030 0.78210 0.03010 -0.13600
C 	C 	0.30640 0.84620 0.03100 0.07000
N 	N 	0.83722 0.41874 0.49922 -0.24200
N 	N 	0.14473 0.10008 0.51786 -0.24100
N 	N 	0.25518 0.08126 0.00078 -0.24000
N 	N 	0.26267 0.39992 0.98214 -0.24100
N 	N 	0.24482 0.99922 0.91874 -0.24100
N 	N 	0.23733 0.01786 0.60008 -0.24100
N 	N 	0.66278 0.50078 0.58126 -0.24200
N 	N 	0.35527 0.48214 0.89992 -0.24100
N 	N 	0.24404 0.00078 0.41874 -0.24100
N 	N 	0.25519 0.98214 0.10008 -0.24100
N 	N 	0.16356 0.49922 0.08126 -0.24200
N 	N 	0.83741 0.51786 0.39992 -0.24100
N 	N 	0.33644 0.91874 0.50078 -0.24200
N 	N 	0.66259 0.60008 0.48214 -0.24100
N 	N 	0.25596 0.58126 0.99922 -0.24200
N 	N 	0.24481 0.89992 0.01786 -0.24100
