data_crystal

_cell_length_a 18.07820
_cell_length_b 22.14850
_cell_length_c 22.14850
_cell_angle_alpha 80.41240
_cell_angle_beta  65.91370
_cell_angle_gamma 65.91370

_symmetry_space_group_name_	'P 1'
_symmetry_space_group_name_H-M	'P 1'

loop_
_symmetry_equiv_pos_as_xyz
  x,y,z

loop_
_atom_site_label
_atom_site_type_symbol
_atom_site_fract_x
_atom_site_fract_y
_atom_site_fract_z
_atom_site_charge
Cu	Cu	0.73992 0.51008 0.01008 0.84900
Cu	Cu	0.76008 0.98992 0.48992 0.84900
Cu	Cu	0.75000 0.01008 0.98992 0.84900
Cu	Cu	0.25000 0.48992 0.51008 0.85000
H 	H 	0.56950 0.49460 0.07200 -0.02300
H 	H 	0.46910 0.48750 0.17450 0.07300
H 	H 	0.59570 0.54150 0.25410 0.07100
H 	H 	0.69720 0.54350 0.14870 -0.01900
H 	H 	0.35050 0.57670 0.43690 -0.02200
H 	H 	0.45020 0.58580 0.33500 0.07500
H 	H 	0.43970 0.42960 0.27620 0.07500
H 	H 	0.34280 0.42220 0.37960 -0.02400
H 	H 	0.63610 0.00540 0.42800 -0.02200
H 	H 	0.63110 0.01250 0.32550 0.07200
H 	H 	0.89130 0.95850 0.24590 0.07100
H 	H 	0.88940 0.95650 0.35130 -0.01800
H 	H 	0.86410 0.92330 0.06310 -0.02100
H 	H 	0.87100 0.91420 0.16500 0.07400
H 	H 	0.64550 0.07040 0.22380 0.07400
H 	H 	0.64460 0.07780 0.12040 -0.02300
H 	H 	0.86390 0.57200 0.99460 -0.02000
H 	H 	0.86890 0.67450 0.98750 0.07100
H 	H 	0.60870 0.75410 0.04150 0.07000
H 	H 	0.61060 0.64870 0.04350 -0.01800
H 	H 	0.63590 0.93690 0.07670 -0.02100
H 	H 	0.62900 0.83500 0.08580 0.07400
H 	H 	0.85450 0.77620 0.92960 0.07400
H 	H 	0.85540 0.87960 0.92220 -0.02200
H 	H 	0.93050 0.92800 0.50540 -0.02200
H 	H 	0.03090 0.82550 0.51250 0.07200
H 	H 	0.90430 0.74590 0.45850 0.07100
H 	H 	0.80280 0.85130 0.45650 -0.01900
H 	H 	0.14950 0.56310 0.42330 -0.02200
H 	H 	0.04980 0.66500 0.41420 0.07500
H 	H 	0.06030 0.72380 0.57040 0.07500
H 	H 	0.15720 0.62040 0.57780 -0.02400
H 	H 	0.85850 0.07200 0.00540 -0.01800
H 	H 	0.85640 0.17450 0.01250 0.06900
H 	H 	0.65020 0.25410 0.95850 0.07000
H 	H 	0.65410 0.14870 0.95650 -0.01800
H 	H 	0.71260 0.43690 0.92330 -0.02200
H 	H 	0.71480 0.33500 0.91420 0.07600
H 	H 	0.78410 0.27620 0.07040 0.07500
H 	H 	0.77760 0.37960 0.07780 -0.02400
H 	H 	0.43590 0.42800 0.49460 -0.02300
H 	H 	0.54340 0.32550 0.48750 0.07300
H 	H 	0.36280 0.24590 0.54150 0.07100
H 	H 	0.25930 0.35130 0.54350 -0.01900
H 	H 	0.57280 0.06310 0.57670 -0.02200
H 	H 	0.46400 0.16500 0.58580 0.07500
H 	H 	0.63070 0.22380 0.42960 0.07500
H 	H 	0.73500 0.12040 0.42220 -0.02400
H 	H 	0.06410 0.50540 0.57200 -0.02300
H 	H 	0.95660 0.51250 0.67450 0.07300
H 	H 	0.13720 0.45850 0.75410 0.07100
H 	H 	0.24070 0.45650 0.64870 -0.01900
H 	H 	0.92720 0.42330 0.93690 -0.02200
H 	H 	0.03600 0.41420 0.83500 0.07400
H 	H 	0.86930 0.57040 0.77620 0.07500
H 	H 	0.76500 0.57780 0.87960 -0.02300
H 	H 	0.64150 0.99460 0.92800 -0.01600
H 	H 	0.64360 0.98750 0.82550 0.06800
H 	H 	0.84980 0.04150 0.74590 0.06900
H 	H 	0.84590 0.04350 0.85130 -0.01800
H 	H 	0.78740 0.07670 0.56310 -0.02200
H 	H 	0.78520 0.08580 0.66500 0.07500
H 	H 	0.71590 0.92960 0.72380 0.07500
H 	H 	0.72240 0.92220 0.62040 -0.02400
C 	C 	0.57589 0.50283 0.10899 0.07800
C 	C 	0.51467 0.49936 0.17050 -0.14200
C 	C 	0.52069 0.51338 0.22584 0.05300
C 	C 	0.59010 0.53090 0.21770 -0.13700
C 	C 	0.65063 0.53216 0.15418 0.07100
C 	C 	0.36881 0.54677 0.40401 0.07800
C 	C 	0.42851 0.55252 0.34286 -0.14400
C 	C 	0.45651 0.50907 0.29311 0.05800
C 	C 	0.42247 0.45995 0.30831 -0.14500
C 	C 	0.36381 0.45605 0.37033 0.08000
C 	C 	0.68771 0.99717 0.39101 0.07600
C 	C 	0.68453 0.00064 0.32950 -0.14000
C 	C 	0.75991 0.98662 0.27416 0.05300
C 	C 	0.83870 0.96910 0.28230 -0.13700
C 	C 	0.83697 0.96784 0.34582 0.07100
C 	C 	0.81959 0.95323 0.09599 0.07400
C 	C 	0.82389 0.94748 0.15714 -0.14200
C 	C 	0.75869 0.99093 0.20689 0.05500
C 	C 	0.69073 0.04005 0.19169 -0.14200
C 	C 	0.69019 0.04395 0.12967 0.07900
C 	C 	0.81229 0.60899 0.00283 0.07200
C 	C 	0.81547 0.67050 0.99936 -0.13500
C 	C 	0.74009 0.72584 0.01338 0.05000
C 	C 	0.66130 0.71770 0.03090 -0.13500
C 	C 	0.66303 0.65418 0.03216 0.07000
C 	C 	0.68041 0.90401 0.04677 0.07300
C 	C 	0.67611 0.84286 0.05252 -0.14100
C 	C 	0.74131 0.79311 0.00907 0.05400
C 	C 	0.80927 0.80831 0.95995 -0.14000
C 	C 	0.80981 0.87033 0.95605 0.07900
C 	C 	0.92411 0.89101 0.49717 0.07700
C 	C 	0.98533 0.82950 0.50064 -0.14100
C 	C 	0.97931 0.77416 0.48662 0.05300
C 	C 	0.90990 0.78230 0.46910 -0.13700
C 	C 	0.84937 0.84582 0.46784 0.07100
C 	C 	0.13119 0.59599 0.45323 0.07800
C 	C 	0.07149 0.65714 0.44748 -0.14400
C 	C 	0.04349 0.70689 0.49093 0.05700
C 	C 	0.07753 0.69169 0.54005 -0.14500
C 	C 	0.13619 0.62967 0.54395 0.08000
C 	C 	0.81512 0.10899 0.99717 0.06800
C 	C 	0.81483 0.17050 0.00064 -0.13200
C 	C 	0.75347 0.22584 0.98662 0.04800
C 	C 	0.69220 0.21770 0.96910 -0.13300
C 	C 	0.69519 0.15418 0.96784 0.06900
C 	C 	0.72718 0.40401 0.95323 0.07800
C 	C 	0.72863 0.34286 0.94748 -0.14500
C 	C 	0.75038 0.29311 0.99093 0.05900
C 	C 	0.76922 0.30831 0.04005 -0.14500
C 	C 	0.76586 0.37033 0.04395 0.08000
C 	C 	0.42128 0.39101 0.50283 0.07800
C 	C 	0.48597 0.32950 0.49936 -0.14200
C 	C 	0.46593 0.27416 0.51338 0.05400
C 	C 	0.37900 0.28230 0.53090 -0.13700
C 	C 	0.31721 0.34582 0.53216 0.07100
C 	C 	0.58442 0.09599 0.54677 0.07800
C 	C 	0.51897 0.15714 0.55252 -0.14400
C 	C 	0.53442 0.20689 0.50907 0.05800
C 	C 	0.61758 0.19169 0.45995 -0.14500
C 	C 	0.68014 0.12967 0.45605 0.08000
C 	C 	0.07872 0.49717 0.60899 0.07800
C 	C 	0.01403 0.50064 0.67050 -0.14300
C 	C 	0.03407 0.48662 0.72584 0.05300
C 	C 	0.12100 0.46910 0.71770 -0.13700
C 	C 	0.18279 0.46784 0.65418 0.07100
C 	C 	0.91558 0.45323 0.90401 0.07700
C 	C 	0.98103 0.44748 0.84286 -0.14300
C 	C 	0.96558 0.49093 0.79311 0.05800
C 	C 	0.88242 0.54005 0.80831 -0.14500
C 	C 	0.81986 0.54395 0.87033 0.08000
C 	C 	0.68488 0.00283 0.89101 0.06400
C 	C 	0.68517 0.99936 0.82950 -0.12700
C 	C 	0.74653 0.01338 0.77416 0.04500
C 	C 	0.80780 0.03090 0.78230 -0.13200
C 	C 	0.80481 0.03216 0.84582 0.06700
C 	C 	0.77282 0.04677 0.59599 0.07700
C 	C 	0.77137 0.05252 0.65714 -0.14500
C 	C 	0.74962 0.00907 0.70689 0.05900
C 	C 	0.73078 0.95995 0.69169 -0.14400
C 	C 	0.73414 0.95605 0.62967 0.08000
N 	N 	0.64424 0.51764 0.10048 -0.24100
N 	N 	0.33540 0.49923 0.41837 -0.24000
N 	N 	0.76236 0.98236 0.39952 -0.24100
N 	N 	0.75300 0.00077 0.08163 -0.23800
N 	N 	0.73764 0.60048 0.01764 -0.24000
N 	N 	0.74700 0.91837 0.99923 -0.23700
N 	N 	0.85576 0.89952 0.48236 -0.24100
N 	N 	0.16460 0.58163 0.50077 -0.24000
N 	N 	0.75528 0.10048 0.98236 -0.23900
N 	N 	0.74623 0.41837 0.00077 -0.24000
N 	N 	0.33812 0.39952 0.51764 -0.24100
N 	N 	0.66537 0.08163 0.49923 -0.24000
N 	N 	0.16188 0.48236 0.60048 -0.24100
N 	N 	0.83463 0.50077 0.91837 -0.24000
N 	N 	0.74472 0.01764 0.89952 -0.23800
N 	N 	0.75377 0.99923 0.58163 -0.23900
Cu	Cu	0.25000 0.98992 0.01008 0.84900
Cu	Cu	0.75000 0.51008 0.48992 0.85000
Cu	Cu	0.26008 0.48992 0.98992 0.85000
Cu	Cu	0.23992 0.01008 0.51008 0.85000
H 	H 	0.14150 0.92800 0.99460 -0.01800
H 	H 	0.14360 0.82550 0.98750 0.06900
H 	H 	0.34980 0.74590 0.04150 0.07000
H 	H 	0.34590 0.85130 0.04350 -0.01800
H 	H 	0.28740 0.56310 0.07670 -0.02200
H 	H 	0.28520 0.66500 0.08580 0.07600
H 	H 	0.21590 0.72380 0.92960 0.07500
H 	H 	0.22240 0.62040 0.92220 -0.02400
H 	H 	0.56410 0.57200 0.50540 -0.02300
H 	H 	0.45660 0.67450 0.51250 0.07300
H 	H 	0.63720 0.75410 0.45850 0.07100
H 	H 	0.74070 0.64870 0.45650 -0.01900
H 	H 	0.42720 0.93690 0.42330 -0.02200
H 	H 	0.53600 0.83500 0.41420 0.07500
H 	H 	0.36930 0.77620 0.57040 0.07500
H 	H 	0.26500 0.87960 0.57780 -0.02400
H 	H 	0.93590 0.49460 0.42800 -0.02300
H 	H 	0.04340 0.48750 0.32550 0.07300
H 	H 	0.86280 0.54150 0.24590 0.07100
H 	H 	0.75930 0.54350 0.35130 -0.01900
H 	H 	0.07280 0.57670 0.06310 -0.02200
H 	H 	0.96400 0.58580 0.16500 0.07400
H 	H 	0.13070 0.42960 0.22380 0.07500
H 	H 	0.23500 0.42220 0.12040 -0.02300
H 	H 	0.35850 0.00540 0.07200 -0.01600
H 	H 	0.35640 0.01250 0.17450 0.06800
H 	H 	0.15020 0.95850 0.25410 0.06900
H 	H 	0.15410 0.95650 0.14870 -0.01800
H 	H 	0.21260 0.92330 0.43690 -0.02200
H 	H 	0.21480 0.91420 0.33500 0.07500
H 	H 	0.28410 0.07040 0.27620 0.07500
H 	H 	0.27760 0.07780 0.37960 -0.02400
H 	H 	0.43050 0.50540 0.92800 -0.02300
H 	H 	0.53090 0.51250 0.82550 0.07300
H 	H 	0.40430 0.45850 0.74590 0.07100
H 	H 	0.30280 0.45650 0.85130 -0.01900
H 	H 	0.64950 0.42330 0.56310 -0.02200
H 	H 	0.54980 0.41420 0.66500 0.07500
H 	H 	0.56030 0.57040 0.72380 0.07500
H 	H 	0.65720 0.57780 0.62040 -0.02400
H 	H 	0.36390 0.99460 0.57200 -0.02200
H 	H 	0.36890 0.98750 0.67450 0.07200
H 	H 	0.10870 0.04150 0.75410 0.07100
H 	H 	0.11060 0.04350 0.64870 -0.01800
H 	H 	0.13590 0.07670 0.93690 -0.02100
H 	H 	0.12900 0.08580 0.83500 0.07400
H 	H 	0.35450 0.92960 0.77620 0.07400
H 	H 	0.35540 0.92220 0.87960 -0.02300
H 	H 	0.13610 0.42800 0.00540 -0.02000
H 	H 	0.13110 0.32550 0.01250 0.07100
H 	H 	0.39130 0.24590 0.95850 0.07000
H 	H 	0.38940 0.35130 0.95650 -0.01800
H 	H 	0.36410 0.06310 0.92330 -0.02100
H 	H 	0.37100 0.16500 0.91420 0.07400
H 	H 	0.14550 0.22380 0.07040 0.07400
H 	H 	0.14460 0.12040 0.07780 -0.02200
H 	H 	0.06950 0.07200 0.49460 -0.02200
H 	H 	0.96910 0.17450 0.48750 0.07200
H 	H 	0.09570 0.25410 0.54150 0.07100
H 	H 	0.19720 0.14870 0.54350 -0.01900
H 	H 	0.85050 0.43690 0.57670 -0.02200
H 	H 	0.95020 0.33500 0.58580 0.07500
H 	H 	0.93970 0.27620 0.42960 0.07500
H 	H 	0.84280 0.37960 0.42220 -0.02400
C 	C 	0.18488 0.89101 0.00283 0.06800
C 	C 	0.18517 0.82950 0.99936 -0.13200
C 	C 	0.24653 0.77416 0.01338 0.04800
C 	C 	0.30780 0.78230 0.03090 -0.13300
C 	C 	0.30481 0.84582 0.03216 0.06900
C 	C 	0.27282 0.59599 0.04677 0.07800
C 	C 	0.27137 0.65714 0.05252 -0.14500
C 	C 	0.24962 0.70689 0.00907 0.05900
C 	C 	0.23078 0.69169 0.95995 -0.14500
C 	C 	0.23414 0.62967 0.95605 0.08000
C 	C 	0.57872 0.60899 0.49717 0.07800
C 	C 	0.51403 0.67050 0.50064 -0.14200
C 	C 	0.53407 0.72584 0.48662 0.05400
C 	C 	0.62100 0.71770 0.46910 -0.13700
C 	C 	0.68279 0.65418 0.46784 0.07100
C 	C 	0.41558 0.90401 0.45323 0.07800
C 	C 	0.48103 0.84286 0.44748 -0.14400
C 	C 	0.46558 0.79311 0.49093 0.05800
C 	C 	0.38242 0.80831 0.54005 -0.14500
C 	C 	0.31986 0.87033 0.54395 0.08000
C 	C 	0.92128 0.50283 0.39101 0.07800
C 	C 	0.98597 0.49936 0.32950 -0.14300
C 	C 	0.96593 0.51338 0.27416 0.05300
C 	C 	0.87900 0.53090 0.28230 -0.13700
C 	C 	0.81721 0.53216 0.34582 0.07100
C 	C 	0.08442 0.54677 0.09599 0.07700
C 	C 	0.01897 0.55252 0.15714 -0.14300
C 	C 	0.03442 0.50907 0.20689 0.05800
C 	C 	0.11758 0.45995 0.19169 -0.14500
C 	C 	0.18014 0.45605 0.12967 0.08000
C 	C 	0.31512 0.99717 0.10899 0.06400
C 	C 	0.31483 0.00064 0.17050 -0.12700
C 	C 	0.25347 0.98662 0.22584 0.04500
C 	C 	0.19220 0.96910 0.21770 -0.13200
C 	C 	0.19519 0.96784 0.15418 0.06700
C 	C 	0.22718 0.95323 0.40401 0.07700
C 	C 	0.22863 0.94748 0.34286 -0.14500
C 	C 	0.25038 0.99093 0.29311 0.05900
C 	C 	0.26922 0.04005 0.30831 -0.14400
C 	C 	0.26586 0.04395 0.37033 0.08000
C 	C 	0.42411 0.49717 0.89101 0.07800
C 	C 	0.48533 0.50064 0.82950 -0.14200
C 	C 	0.47931 0.48662 0.77416 0.05300
C 	C 	0.40990 0.46910 0.78230 -0.13700
C 	C 	0.34937 0.46784 0.84582 0.07100
C 	C 	0.63119 0.45323 0.59599 0.07800
C 	C 	0.57149 0.44748 0.65714 -0.14400
C 	C 	0.54349 0.49093 0.70689 0.05800
C 	C 	0.57753 0.54005 0.69169 -0.14500
C 	C 	0.63619 0.54395 0.62967 0.08000
C 	C 	0.31229 0.00283 0.60899 0.07600
C 	C 	0.31547 0.99936 0.67050 -0.14000
C 	C 	0.24009 0.01338 0.72584 0.05300
C 	C 	0.16130 0.03090 0.71770 -0.13700
C 	C 	0.16303 0.03216 0.65418 0.07100
C 	C 	0.18041 0.04677 0.90401 0.07400
C 	C 	0.17611 0.05252 0.84286 -0.14200
C 	C 	0.24131 0.00907 0.79311 0.05500
C 	C 	0.30927 0.95995 0.80831 -0.14200
C 	C 	0.30981 0.95605 0.87033 0.07900
C 	C 	0.18771 0.39101 0.99717 0.07200
C 	C 	0.18453 0.32950 0.00064 -0.13500
C 	C 	0.25991 0.27416 0.98662 0.05000
C 	C 	0.33870 0.28230 0.96910 -0.13500
C 	C 	0.33697 0.34582 0.96784 0.07000
C 	C 	0.31959 0.09599 0.95323 0.07300
C 	C 	0.32389 0.15714 0.94748 -0.14100
C 	C 	0.25869 0.20689 0.99093 0.05400
C 	C 	0.19073 0.19169 0.04005 -0.14000
C 	C 	0.19019 0.12967 0.04395 0.07900
C 	C 	0.07589 0.10899 0.50283 0.07700
C 	C 	0.01467 0.17050 0.49936 -0.14100
C 	C 	0.02069 0.22584 0.51338 0.05300
C 	C 	0.09010 0.21770 0.53090 -0.13700
C 	C 	0.15063 0.15418 0.53216 0.07100
C 	C 	0.86881 0.40401 0.54677 0.07800
C 	C 	0.92851 0.34286 0.55252 -0.14400
C 	C 	0.95651 0.29311 0.50907 0.05700
C 	C 	0.92247 0.30831 0.45995 -0.14500
C 	C 	0.86381 0.37033 0.45605 0.08000
N 	N 	0.24472 0.89952 0.01764 -0.23900
N 	N 	0.25377 0.58163 0.99923 -0.24000
N 	N 	0.66188 0.60048 0.48236 -0.24100
N 	N 	0.33463 0.91837 0.50077 -0.24000
N 	N 	0.83812 0.51764 0.39952 -0.24100
N 	N 	0.16537 0.49923 0.08163 -0.24000
N 	N 	0.25528 0.98236 0.10048 -0.23800
N 	N 	0.24623 0.00077 0.41837 -0.23900
N 	N 	0.35576 0.48236 0.89952 -0.24100
N 	N 	0.66460 0.50077 0.58163 -0.24000
N 	N 	0.23764 0.01764 0.60048 -0.24100
N 	N 	0.24700 0.99923 0.91837 -0.23800
N 	N 	0.26236 0.39952 0.98236 -0.24000
N 	N 	0.25300 0.08163 0.00077 -0.23700
N 	N 	0.14424 0.10048 0.51764 -0.24100
N 	N 	0.83540 0.41837 0.49923 -0.24000
