data_crystal

_cell_length_a 10.99090
_cell_length_b 10.99090
_cell_length_c 10.99100
_cell_angle_alpha 90.00000
_cell_angle_beta  90.00000
_cell_angle_gamma 90.00000

_symmetry_space_group_name_	'P 1'
_symmetry_space_group_name_H-M	'P 1'

loop_
_symmetry_equiv_pos_as_xyz
  x,y,z

loop_
_atom_site_label
_atom_site_type_symbol
_atom_site_fract_x
_atom_site_fract_y
_atom_site_fract_z
_atom_site_charge
Li	Li	0.91840 0.58920 0.83640 0.55100
Li	Li	0.08160 0.41080 0.83640 0.55100
Li	Li	0.58920 0.08160 0.16360 0.55100
Li	Li	0.41080 0.91840 0.16360 0.55100
Li	Li	0.08160 0.58920 0.66360 0.55100
Li	Li	0.91840 0.41080 0.66360 0.55100
Li	Li	0.41080 0.08160 0.33640 0.55100
Li	Li	0.58920 0.91840 0.33640 0.55100
H 	H 	0.20660 0.54320 0.04030 0.17900
H 	H 	0.13230 0.81870 0.82660 0.17300
H 	H 	0.32090 0.67040 0.14970 -0.07000
H 	H 	0.24950 0.93550 0.94500 -0.07400
H 	H 	0.79340 0.45680 0.04030 0.17900
H 	H 	0.86770 0.18130 0.82660 0.17300
H 	H 	0.67910 0.32960 0.14970 -0.07000
H 	H 	0.75050 0.06450 0.94500 -0.07400
H 	H 	0.54320 0.79340 0.95970 0.17900
H 	H 	0.81870 0.86770 0.17340 0.17300
H 	H 	0.67040 0.67910 0.85030 -0.07000
H 	H 	0.93550 0.75050 0.05500 -0.07400
H 	H 	0.45680 0.20660 0.95970 0.17900
H 	H 	0.18130 0.13230 0.17340 0.17300
H 	H 	0.32960 0.32090 0.85030 -0.07000
H 	H 	0.06450 0.24950 0.05500 -0.07400
H 	H 	0.79340 0.54320 0.45970 0.17900
H 	H 	0.86770 0.81870 0.67340 0.17300
H 	H 	0.67910 0.67040 0.35030 -0.07000
H 	H 	0.75050 0.93550 0.55500 -0.07400
H 	H 	0.20660 0.45680 0.45970 0.17900
H 	H 	0.13230 0.18130 0.67340 0.17300
H 	H 	0.32090 0.32960 0.35030 -0.07000
H 	H 	0.24950 0.06450 0.55500 -0.07400
H 	H 	0.45680 0.79340 0.54030 0.17900
H 	H 	0.18130 0.86770 0.32660 0.17300
H 	H 	0.32960 0.67910 0.64970 -0.07000
H 	H 	0.06450 0.75050 0.44500 -0.07400
H 	H 	0.54320 0.20660 0.54030 0.17900
H 	H 	0.81870 0.13230 0.32660 0.17300
H 	H 	0.67040 0.32090 0.64970 -0.07000
H 	H 	0.93550 0.24950 0.44500 -0.07400
C 	C 	0.21550 0.62340 0.01500 -0.45500
C 	C 	0.17290 0.78330 0.89180 -0.45600
C 	C 	0.28220 0.70250 0.08170 0.25500
C 	C 	0.24230 0.85380 0.96590 0.26500
C 	C 	0.16210 0.66200 0.91160 0.46700
C 	C 	0.78450 0.37660 0.01500 -0.45500
C 	C 	0.82710 0.21670 0.89180 -0.45600
C 	C 	0.71780 0.29750 0.08170 0.25500
C 	C 	0.75770 0.14620 0.96590 0.26500
C 	C 	0.83790 0.33800 0.91160 0.46700
C 	C 	0.62340 0.78450 0.98500 -0.45500
C 	C 	0.78330 0.82710 0.10820 -0.45600
C 	C 	0.70250 0.71780 0.91830 0.25500
C 	C 	0.85380 0.75770 0.03410 0.26500
C 	C 	0.66200 0.83790 0.08840 0.46700
C 	C 	0.37660 0.21550 0.98500 -0.45500
C 	C 	0.21670 0.17290 0.10820 -0.45600
C 	C 	0.29750 0.28220 0.91830 0.25500
C 	C 	0.14620 0.24230 0.03410 0.26500
C 	C 	0.33800 0.16210 0.08840 0.46700
C 	C 	0.78450 0.62340 0.48500 -0.45500
C 	C 	0.82710 0.78330 0.60820 -0.45600
C 	C 	0.71780 0.70250 0.41830 0.25500
C 	C 	0.75770 0.85380 0.53410 0.26500
C 	C 	0.83790 0.66200 0.58840 0.46700
C 	C 	0.21550 0.37660 0.48500 -0.45500
C 	C 	0.17290 0.21670 0.60820 -0.45600
C 	C 	0.28220 0.29750 0.41830 0.25500
C 	C 	0.24230 0.14620 0.53410 0.26500
C 	C 	0.16210 0.33800 0.58840 0.46700
C 	C 	0.37660 0.78450 0.51500 -0.45500
C 	C 	0.21670 0.82710 0.39180 -0.45600
C 	C 	0.29750 0.71780 0.58170 0.25500
C 	C 	0.14620 0.75770 0.46590 0.26500
C 	C 	0.33800 0.83790 0.41160 0.46700
C 	C 	0.62340 0.21550 0.51500 -0.45500
C 	C 	0.78330 0.17290 0.39180 -0.45600
C 	C 	0.70250 0.28220 0.58170 0.25500
C 	C 	0.85380 0.24230 0.46590 0.26500
C 	C 	0.66200 0.16210 0.41160 0.46700
N 	N 	0.29880 0.81920 0.06160 -0.28700
N 	N 	0.70120 0.18080 0.06160 -0.28700
N 	N 	0.81920 0.70120 0.93840 -0.28700
N 	N 	0.18080 0.29880 0.93840 -0.28700
N 	N 	0.70120 0.81920 0.43840 -0.28600
N 	N 	0.29880 0.18080 0.43840 -0.28600
N 	N 	0.18080 0.70120 0.56160 -0.28600
N 	N 	0.81920 0.29880 0.56160 -0.28600
O 	O 	0.09630 0.58940 0.84140 -0.54900
O 	O 	0.90370 0.41060 0.84140 -0.54900
O 	O 	0.58940 0.90370 0.15860 -0.54900
O 	O 	0.41060 0.09630 0.15860 -0.54900
O 	O 	0.90370 0.58940 0.65860 -0.54800
O 	O 	0.09630 0.41060 0.65860 -0.54800
O 	O 	0.41060 0.90370 0.34140 -0.54800
O 	O 	0.58940 0.09630 0.34140 -0.54800
