data_crystal

_cell_length_a 18.44680
_cell_length_b 13.25750
_cell_length_c 21.85860
_cell_angle_alpha 90.00000
_cell_angle_beta  99.49100
_cell_angle_gamma 90.00000

_symmetry_space_group_name_	'P 1'
_symmetry_space_group_name_H-M	'P 1'

loop_
_symmetry_equiv_pos_as_xyz
  x,y,z

loop_
_atom_site_label
_atom_site_type_symbol
_atom_site_fract_x
_atom_site_fract_y
_atom_site_fract_z
_atom_site_charge
Cd	Cd	0.81597 0.42180 0.57492 1.19300
Cd	Cd	0.70791 0.19303 0.47145 1.18700
N 	N 	0.91090 0.36830 0.45410 -0.18000
N 	N 	0.85730 0.34110 0.48580 -0.16500
N 	N 	0.81620 0.27160 0.45450 -0.17000
N 	N 	0.83980 0.25350 0.40090 -0.10700
N 	N 	0.00230 0.34520 0.24120 -0.15400
N 	N 	0.79690 0.65670 0.52700 -0.09900
N 	N 	0.84020 0.57620 0.52870 -0.16200
N 	N 	0.90010 0.60000 0.50660 -0.17200
N 	N 	0.89750 0.69830 0.49040 -0.10200
N 	N 	0.75290 0.02970 0.47590 -0.26100
N 	N 	0.45900 0.12450 0.17790 -0.10500
N 	N 	0.43990 0.09480 0.11970 -0.17500
N 	N 	0.49870 0.06550 0.09760 -0.17800
N 	N 	0.55830 0.07670 0.14090 -0.10400
N 	N 	0.65570 0.17470 0.36800 -0.24700
N 	N 	0.71360 0.74410 0.82720 -0.10000
N 	N 	0.71750 0.76820 0.88690 -0.16500
N 	N 	0.75760 0.69800 0.92130 -0.17200
N 	N 	0.78050 0.63000 0.88450 -0.10700
N 	N 	0.79160 0.50590 0.66480 -0.23200
O 	O 	0.69650 0.44990 0.53800 -0.46100
O 	O 	0.64870 0.33960 0.46730 -0.47600
C 	C 	0.64460 0.41230 0.50270 0.41000
C 	C 	0.57020 0.45940 0.50070 -0.10200
C 	C 	0.50890 0.41890 0.46560 -0.01000
H 	H 	0.51380 0.36100 0.44250 0.03500
C 	C 	0.56050 0.53920 0.53700 -0.01100
H 	H 	0.60030 0.56610 0.56360 0.04400
C 	C 	0.89780 0.31250 0.40100 0.08200
C 	C 	0.93080 0.33980 0.23650 0.10800
H 	H 	0.90270 0.34540 0.19720 0.00000
C 	C 	0.89330 0.32600 0.28780 -0.14200
H 	H 	0.84250 0.31870 0.28170 0.08400
C 	C 	0.93460 0.32350 0.34780 0.07900
C 	C 	0.00960 0.33440 0.35150 -0.17700
H 	H 	0.03900 0.33770 0.39030 0.07400
C 	C 	0.04170 0.34040 0.29950 0.08400
H 	H 	0.09270 0.34130 0.30420 0.00600
C 	C 	0.83390 0.73070 0.50320 0.09300
C 	C 	0.72440 0.96560 0.51310 0.09200
H 	H 	0.68900 0.98980 0.53520 -0.02800
C 	C 	0.74490 0.86480 0.52050 -0.09500
H 	H 	0.71980 0.82010 0.54220 0.06400
C 	C 	0.80560 0.83340 0.49350 0.04200
C 	C 	0.84040 0.90300 0.46170 0.13500
H 	H 	0.88310 0.88700 0.44630 -0.00100
C 	C 	0.80890 0.99800 0.45370 0.03000
H 	H 	0.83050 0.04370 0.42980 -0.00900
C 	C 	0.53220 0.11310 0.18930 0.08900
C 	C 	0.58660 0.20900 0.35020 0.06900
H 	H 	0.56550 0.24680 0.37840 -0.01200
C 	C 	0.54620 0.19170 0.29360 -0.13900
H 	H 	0.49880 0.21740 0.28380 0.08100
C 	C 	0.57650 0.13460 0.25020 0.06400
C 	C 	0.64570 0.10330 0.26720 -0.14700
H 	H 	0.66870 0.06760 0.23920 0.08200
C 	C 	0.68400 0.12360 0.32660 0.08600
H 	H 	0.73180 0.09950 0.33720 -0.01900
C 	C 	0.75180 0.66060 0.82670 0.09300
C 	C 	0.81720 0.47020 0.72190 0.07600
H 	H 	0.84400 0.41040 0.72550 -0.00200
C 	C 	0.80570 0.51790 0.77480 -0.13000
H 	H 	0.82470 0.49060 0.81340 0.08000
C 	C 	0.76590 0.60690 0.77120 0.06100
C 	C 	0.73980 0.64250 0.71260 -0.14000
H 	H 	0.71240 0.70170 0.70740 0.08400
C 	C 	0.75450 0.59010 0.66190 0.09000
H 	H 	0.73690 0.61640 0.62280 -0.00600
C 	C 	0.70910 0.95000 0.46850 -0.01700
H 	H 	0.65880 0.96120 0.45770 0.00400
C 	C 	0.73260 0.85400 0.47600 -0.03600
H 	H 	0.69890 0.80170 0.46830 0.04300
C 	C 	0.85500 0.91300 0.50100 -0.25600
H 	H 	0.90520 0.90370 0.51410 0.12400
C 	C 	0.82300 0.01100 0.48900 0.03700
H 	H 	0.85540 0.06500 0.49040 -0.00500
Cd	Cd	0.68403 0.92180 0.92508 1.19800
Cd	Cd	0.79209 0.69303 0.02855 1.18600
N 	N 	0.58910 0.86830 0.04590 -0.18600
N 	N 	0.64270 0.84110 0.01420 -0.16900
N 	N 	0.68380 0.77160 0.04550 -0.17200
N 	N 	0.66020 0.75350 0.09910 -0.10900
N 	N 	0.49770 0.84520 0.25880 -0.12400
N 	N 	0.70310 0.15670 0.97300 -0.10400
N 	N 	0.65980 0.07620 0.97130 -0.16400
N 	N 	0.59990 0.10000 0.99340 -0.16800
N 	N 	0.60250 0.19830 0.00960 -0.13100
N 	N 	0.74710 0.52970 0.02410 -0.24300
N 	N 	0.04100 0.62450 0.32210 -0.11800
N 	N 	0.06010 0.59480 0.38030 -0.17200
N 	N 	0.00130 0.56550 0.40240 -0.18500
N 	N 	0.94170 0.57670 0.35910 -0.09500
N 	N 	0.84430 0.67470 0.13200 -0.23600
N 	N 	0.78640 0.24410 0.67280 -0.09800
N 	N 	0.78250 0.26820 0.61310 -0.16700
N 	N 	0.74240 0.19800 0.57870 -0.17700
N 	N 	0.71950 0.13000 0.61550 -0.10900
N 	N 	0.70840 0.00590 0.83520 -0.25800
O 	O 	0.80350 0.94990 0.96200 -0.45200
O 	O 	0.85130 0.83960 0.03270 -0.48400
C 	C 	0.85540 0.91230 0.99730 0.42000
C 	C 	0.92980 0.95940 0.99930 -0.06300
C 	C 	0.99110 0.91890 0.03440 -0.02400
H 	H 	0.98620 0.86100 0.05750 0.04500
C 	C 	0.93950 0.03920 0.96300 -0.02500
H 	H 	0.89970 0.06610 0.93640 0.05000
C 	C 	0.60220 0.81250 0.09900 0.09500
C 	C 	0.56920 0.83980 0.26350 0.06500
H 	H 	0.59730 0.84540 0.30280 0.01500
C 	C 	0.60670 0.82600 0.21220 -0.10400
H 	H 	0.65750 0.81870 0.21830 0.07300
C 	C 	0.56540 0.82350 0.15220 0.02800
C 	C 	0.49040 0.83440 0.14850 -0.11200
H 	H 	0.46100 0.83770 0.10970 0.05800
C 	C 	0.45830 0.84040 0.20050 0.06300
H 	H 	0.40730 0.84130 0.19580 0.01900
C 	C 	0.66610 0.23070 0.99680 0.13900
C 	C 	0.77560 0.46560 0.98690 0.08400
H 	H 	0.81100 0.48980 0.96480 -0.02600
C 	C 	0.75510 0.36480 0.97950 -0.04600
H 	H 	0.78020 0.32010 0.95780 0.05000
C 	C 	0.69440 0.33340 0.00650 -0.02500
C 	C 	0.65960 0.40300 0.03830 -0.01300
H 	H 	0.61690 0.38700 0.05370 0.03200
C 	C 	0.69110 0.49800 0.04630 -0.06900
H 	H 	0.66950 0.54370 0.07020 0.03200
C 	C 	0.96780 0.61310 0.31070 0.12800
C 	C 	0.91340 0.70900 0.14980 0.03300
H 	H 	0.93450 0.74680 0.12160 0.00600
C 	C 	0.95380 0.69170 0.20640 -0.05900
H 	H 	0.00120 0.71740 0.21620 0.03900
C 	C 	0.92350 0.63460 0.24980 0.02900
C 	C 	0.85430 0.60330 0.23280 -0.11800
H 	H 	0.83130 0.56760 0.26080 0.07800
C 	C 	0.81600 0.62360 0.17340 0.07400
H 	H 	0.76820 0.59950 0.16280 -0.01100
C 	C 	0.74820 0.16060 0.67330 0.07600
C 	C 	0.68280 0.97020 0.77810 0.15700
H 	H 	0.65600 0.91040 0.77450 -0.02800
C 	C 	0.69430 0.01790 0.72520 -0.22900
H 	H 	0.67530 0.99060 0.68660 0.12300
C 	C 	0.73410 0.10690 0.72880 0.10300
C 	C 	0.76020 0.14250 0.78740 -0.17300
H 	H 	0.78760 0.20170 0.79260 0.09500
C 	C 	0.74550 0.09010 0.83810 0.11000
H 	H 	0.76310 0.11640 0.87720 -0.01300
C 	C 	0.79090 0.45000 0.03150 -0.03800
H 	H 	0.84120 0.46120 0.04230 0.00500
C 	C 	0.76740 0.35400 0.02400 -0.03900
H 	H 	0.80110 0.30170 0.03170 0.03800
C 	C 	0.64500 0.41300 0.99900 -0.06100
H 	H 	0.59480 0.40370 0.98590 0.05600
C 	C 	0.67700 0.51100 0.01100 0.09900
H 	H 	0.64460 0.56500 0.00960 -0.03100
Cd	Cd	0.18403 0.57820 0.42508 1.19300
Cd	Cd	0.29209 0.80697 0.52855 1.18900
N 	N 	0.08910 0.63170 0.54590 -0.19400
N 	N 	0.14270 0.65890 0.51420 -0.16700
N 	N 	0.18380 0.72840 0.54550 -0.17100
N 	N 	0.16020 0.74650 0.59910 -0.11200
N 	N 	0.99770 0.65480 0.75880 -0.09900
N 	N 	0.20310 0.34330 0.47300 -0.10000
N 	N 	0.15980 0.42380 0.47130 -0.16300
N 	N 	0.09990 0.40000 0.49340 -0.18000
N 	N 	0.10250 0.30170 0.50960 -0.11000
N 	N 	0.24710 0.97030 0.52410 -0.23000
N 	N 	0.54100 0.87550 0.82210 -0.10100
N 	N 	0.56010 0.90520 0.88030 -0.16700
N 	N 	0.50130 0.93450 0.90240 -0.16500
N 	N 	0.44170 0.92330 0.85910 -0.09600
N 	N 	0.34430 0.82530 0.63200 -0.24600
N 	N 	0.28640 0.25590 0.17280 -0.10300
N 	N 	0.28250 0.23180 0.11310 -0.17100
N 	N 	0.24240 0.30200 0.07870 -0.18100
N 	N 	0.21950 0.37000 0.11550 -0.11100
N 	N 	0.20840 0.49410 0.33520 -0.23200
O 	O 	0.30350 0.55010 0.46200 -0.46100
O 	O 	0.35130 0.66040 0.53270 -0.47500
C 	C 	0.35540 0.58770 0.49730 0.41000
C 	C 	0.42980 0.54060 0.49930 -0.10100
C 	C 	0.49110 0.58110 0.53440 -0.01100
H 	H 	0.48620 0.63900 0.55750 0.03600
C 	C 	0.43950 0.46080 0.46300 -0.01300
H 	H 	0.39970 0.43390 0.43640 0.04400
C 	C 	0.10220 0.68750 0.59900 0.10700
C 	C 	0.06920 0.66020 0.76350 0.01800
H 	H 	0.09730 0.65460 0.80280 0.02600
C 	C 	0.10670 0.67400 0.71220 -0.06900
H 	H 	0.15750 0.68130 0.71830 0.05800
C 	C 	0.06540 0.67650 0.65220 -0.02500
C 	C 	0.99040 0.66560 0.64850 -0.05000
H 	H 	0.96100 0.66230 0.60970 0.04200
C 	C 	0.95830 0.65960 0.70050 0.03700
H 	H 	0.90730 0.65870 0.69580 0.02800
C 	C 	0.16610 0.26930 0.49680 0.09100
C 	C 	0.27560 0.03440 0.48690 -0.00100
H 	H 	0.31100 0.01020 0.46480 -0.00900
C 	C 	0.25510 0.13520 0.47950 -0.09200
H 	H 	0.28020 0.17990 0.45780 0.05900
C 	C 	0.19440 0.16660 0.50650 0.03800
C 	C 	0.15960 0.09700 0.53830 -0.21400
H 	H 	0.11690 0.11300 0.55370 0.09500
C 	C 	0.19110 0.00200 0.54630 0.02400
H 	H 	0.16950 0.95630 0.57020 0.01200
C 	C 	0.46780 0.88690 0.81070 0.09400
C 	C 	0.41340 0.79100 0.64980 0.07400
H 	H 	0.43450 0.75320 0.62160 -0.01200
C 	C 	0.45380 0.80830 0.70640 -0.14000
H 	H 	0.50120 0.78260 0.71620 0.08400
C 	C 	0.42350 0.86540 0.74980 0.07100
C 	C 	0.35430 0.89670 0.73280 -0.14700
H 	H 	0.33130 0.93240 0.76080 0.09100
C 	C 	0.31600 0.87640 0.67340 0.09200
H 	H 	0.26820 0.90050 0.66280 -0.01500
C 	C 	0.24820 0.33940 0.17330 0.09100
C 	C 	0.18280 0.52980 0.27810 0.07300
H 	H 	0.15600 0.58960 0.27450 -0.00300
C 	C 	0.19430 0.48210 0.22520 -0.12900
H 	H 	0.17530 0.50940 0.18660 0.07500
C 	C 	0.23410 0.39310 0.22880 0.05700
C 	C 	0.26020 0.35750 0.28740 -0.13900
H 	H 	0.28760 0.29830 0.29260 0.08000
C 	C 	0.24550 0.40990 0.33810 0.08800
H 	H 	0.26310 0.38360 0.37720 -0.00700
C 	C 	0.29090 0.05000 0.53150 0.03600
H 	H 	0.34120 0.03880 0.54230 -0.02200
C 	C 	0.26740 0.14600 0.52400 -0.03100
H 	H 	0.30110 0.19830 0.53170 0.04100
C 	C 	0.14500 0.08700 0.49900 0.08800
H 	H 	0.09480 0.09630 0.48590 -0.00900
C 	C 	0.17700 0.98900 0.51100 0.02300
H 	H 	0.14460 0.93500 0.50960 -0.00300
Cd	Cd	0.31597 0.07820 0.07492 1.18600
Cd	Cd	0.20791 0.30697 0.97145 1.19100
N 	N 	0.41090 0.13170 0.95410 -0.18600
N 	N 	0.35730 0.15890 0.98580 -0.16100
N 	N 	0.31620 0.22840 0.95450 -0.16900
N 	N 	0.33980 0.24650 0.90090 -0.10900
N 	N 	0.50230 0.15480 0.74120 -0.12800
N 	N 	0.29690 0.84330 0.02700 -0.09400
N 	N 	0.34020 0.92380 0.02870 -0.15900
N 	N 	0.40010 0.90000 0.00660 -0.18000
N 	N 	0.39750 0.80170 0.99040 -0.08700
N 	N 	0.25290 0.47030 0.97590 -0.24600
N 	N 	0.95900 0.37550 0.67790 -0.08700
N 	N 	0.93990 0.40520 0.61970 -0.16900
N 	N 	0.99870 0.43450 0.59760 -0.15700
N 	N 	0.05830 0.42330 0.64090 -0.10400
N 	N 	0.15570 0.32530 0.86800 -0.25700
N 	N 	0.21360 0.75590 0.32720 -0.10500
N 	N 	0.21750 0.73180 0.38690 -0.16800
N 	N 	0.25760 0.80200 0.42130 -0.17500
N 	N 	0.28050 0.87000 0.38450 -0.10800
N 	N 	0.29160 0.99410 0.16480 -0.19800
O 	O 	0.19650 0.05010 0.03800 -0.47400
O 	O 	0.14870 0.16040 0.96730 -0.46200
C 	C 	0.14460 0.08770 0.00270 0.39900
C 	C 	0.07020 0.04060 0.00070 -0.15600
C 	C 	0.00890 0.08110 0.96560 0.00900
H 	H 	0.01380 0.13900 0.94250 0.02500
C 	C 	0.06050 0.96080 0.03700 0.01400
H 	H 	0.10030 0.93390 0.06360 0.03500
C 	C 	0.39780 0.18750 0.90100 0.09500
C 	C 	0.43080 0.16020 0.73650 0.06100
H 	H 	0.40270 0.15460 0.69720 0.01100
C 	C 	0.39330 0.17400 0.78780 -0.10700
H 	H 	0.34250 0.18130 0.78170 0.07000
C 	C 	0.43460 0.17650 0.84780 0.02600
C 	C 	0.50960 0.16560 0.85150 -0.11500
H 	H 	0.53900 0.16230 0.89030 0.05800
C 	C 	0.54170 0.15960 0.79950 0.05800
H 	H 	0.59270 0.15870 0.80420 0.01600
C 	C 	0.33390 0.76930 0.00320 0.05400
C 	C 	0.22440 0.53440 0.01310 0.01300
H 	H 	0.18900 0.51020 0.03520 -0.01300
C 	C 	0.24490 0.63520 0.02050 -0.13800
H 	H 	0.21980 0.67990 0.04220 0.07200
C 	C 	0.30560 0.66660 0.99350 0.09400
C 	C 	0.34040 0.59700 0.96170 -0.06300
H 	H 	0.38310 0.61300 0.94630 0.06000
C 	C 	0.30890 0.50200 0.95370 0.11300
H 	H 	0.33050 0.45630 0.92980 -0.02500
C 	C 	0.03220 0.38690 0.68930 0.05500
C 	C 	0.08660 0.29100 0.85020 0.11200
H 	H 	0.06550 0.25320 0.87840 -0.03000
C 	C 	0.04620 0.30830 0.79360 -0.22100
H 	H 	0.99880 0.28260 0.78380 0.12900
C 	C 	0.07650 0.36540 0.75020 0.10700
C 	C 	0.14570 0.39670 0.76720 -0.17700
H 	H 	0.16870 0.43240 0.73920 0.09700
C 	C 	0.18400 0.37640 0.82660 0.10500
H 	H 	0.23180 0.40050 0.83720 -0.02400
C 	C 	0.25180 0.83940 0.32670 0.11200
C 	C 	0.31720 0.02980 0.22190 -0.02900
H 	H 	0.34400 0.08960 0.22550 0.02900
C 	C 	0.30570 0.98210 0.27480 -0.00500
H 	H 	0.32470 0.00940 0.31340 0.02000
C 	C 	0.26590 0.89310 0.27120 0.00400
C 	C 	0.23980 0.85750 0.21260 -0.09800
H 	H 	0.21240 0.79830 0.20740 0.06700
C 	C 	0.25450 0.90990 0.16190 0.06300
H 	H 	0.23690 0.88360 0.12280 0.00400
C 	C 	0.20910 0.55000 0.96850 0.04800
H 	H 	0.15880 0.53880 0.95770 -0.02100
C 	C 	0.23260 0.64600 0.97600 -0.02400
H 	H 	0.19890 0.69830 0.96830 0.04400
C 	C 	0.35500 0.58700 0.00100 -0.10300
H 	H 	0.40520 0.59630 0.01410 0.05900
C 	C 	0.32300 0.48900 0.98900 -0.03300
H 	H 	0.35540 0.43500 0.99040 0.02100
Cd	Cd	0.00000 0.50000 0.50000 1.17300
Cd	Cd	0.50000 0.00000 -0.00000 1.16800
