data_crystal

_cell_length_a 10.32900
_cell_length_b 16.01210
_cell_length_c 16.01210
_cell_angle_alpha 64.49140
_cell_angle_beta  77.58300
_cell_angle_gamma 102.41700

_symmetry_space_group_name_	'P 1'
_symmetry_space_group_name_H-M	'P 1'

loop_
_symmetry_equiv_pos_as_xyz
  x,y,z

loop_
_atom_site_label
_atom_site_type_symbol
_atom_site_fract_x
_atom_site_fract_y
_atom_site_fract_z
_atom_site_charge
Mg	Mg	-0.00000 0.50000 -0.00000 1.44700
Mg	Mg	0.00000 1.00000 0.50000 1.44500
Mg	Mg	0.50000 0.50000 0.50000 1.45200
H 	H 	0.11890 0.73940 0.86120 0.09800
H 	H 	0.03310 0.86550 0.81030 -0.15000
H 	H 	0.79760 0.83630 0.88130 0.21100
H 	H 	0.48930 0.17810 0.22900 0.07100
H 	H 	0.28150 0.05320 0.33720 -0.01400
H 	H 	0.11090 0.23780 0.36640 -0.01800
H 	H 	0.30980 0.36720 0.25340 0.08200
H 	H 	0.53820 0.60090 0.05930 0.40600
H 	H 	0.54650 0.68890 0.96100 0.42000
H 	H 	0.57440 0.70730 0.04510 0.37800
H 	H 	0.98010 0.86120 0.39940 0.01600
H 	H 	0.84340 0.81030 0.32420 0.02800
H 	H 	0.67890 0.88130 0.28240 0.06800
H 	H 	0.71830 0.22900 0.59290 0.06900
H 	H 	0.61870 0.33720 0.60960 -0.02500
H 	H 	0.47730 0.36640 0.39580 -0.01100
H 	H 	0.56320 0.25340 0.37940 0.08900
H 	H 	0.59750 0.05930 0.33980 0.19300
H 	H 	0.50750 0.96100 0.35010 0.14800
H 	H 	0.61950 0.04510 0.24760 0.17200
H 	H 	0.37950 0.39940 0.73940 0.03300
H 	H 	0.16760 0.32420 0.86550 -0.01100
H 	H 	0.96130 0.28240 0.83630 0.17000
H 	H 	0.31120 0.59290 0.17810 0.08300
H 	H 	0.22830 0.60960 0.05320 -0.05900
H 	H 	0.87310 0.39580 0.23780 -0.07100
H 	H 	0.94260 0.37940 0.36720 0.18800
H 	H 	0.93730 0.33980 0.60090 0.29700
H 	H 	0.85760 0.35010 0.68890 0.28100
H 	H 	0.86710 0.24760 0.70730 0.27400
H 	H 	0.88110 0.26060 0.13880 -0.05700
H 	H 	0.96690 0.13450 0.18970 0.14800
H 	H 	0.20240 0.16370 0.11870 0.01900
H 	H 	0.51070 0.82190 0.77100 0.05800
H 	H 	0.71850 0.94680 0.66280 -0.03800
H 	H 	0.88910 0.76220 0.63360 -0.00100
H 	H 	0.69020 0.63280 0.74660 0.08800
H 	H 	0.46180 0.39910 0.94070 0.17900
H 	H 	0.45350 0.31110 0.03900 0.14200
H 	H 	0.42560 0.29270 0.95490 0.16100
H 	H 	0.01990 0.13880 0.60060 0.02700
H 	H 	0.15660 0.18970 0.67580 -0.02400
H 	H 	0.32110 0.11870 0.71760 0.15900
H 	H 	0.28170 0.77100 0.40710 0.05900
H 	H 	0.38130 0.66280 0.39040 -0.02800
H 	H 	0.52270 0.63360 0.60420 -0.00900
H 	H 	0.43680 0.74660 0.62060 0.08100
H 	H 	0.40250 0.94070 0.66020 0.39300
H 	H 	0.49250 0.03900 0.64990 0.41500
H 	H 	0.38050 0.95490 0.75240 0.36800
H 	H 	0.62050 0.60060 0.26060 0.00600
H 	H 	0.83240 0.67580 0.13450 0.02100
H 	H 	0.03870 0.71760 0.16370 0.04400
H 	H 	0.68880 0.40710 0.82190 0.04700
H 	H 	0.77170 0.39040 0.94680 0.00400
H 	H 	0.12690 0.60420 0.76220 0.04800
H 	H 	0.05740 0.62060 0.63280 -0.01500
H 	H 	0.06270 0.66020 0.39910 0.28700
H 	H 	0.14240 0.64990 0.31110 0.28000
H 	H 	0.13290 0.75240 0.29270 0.26200
C 	C 	0.02260 0.72600 0.88800 -0.28500
C 	C 	0.97230 0.80200 0.85840 0.40600
C 	C 	0.83200 0.78440 0.89960 -0.52700
C 	C 	0.74100 0.68920 0.96880 0.53700
C 	C 	0.79700 0.61520 0.99530 -0.18600
C 	C 	0.71420 0.50770 0.06690 0.10400
C 	C 	0.56280 0.36900 0.16430 0.07300
C 	C 	0.42710 0.28810 0.23130 0.05500
C 	C 	0.41380 0.19220 0.25630 -0.14100
C 	C 	0.28830 0.11730 0.32210 0.07400
C 	C 	0.18790 0.22540 0.33840 0.07900
C 	C 	0.30780 0.30320 0.27190 -0.13900
C 	C 	0.58600 0.66990 0.01250 -1.25700
C 	C 	0.91060 0.88800 0.38600 -0.00600
C 	C 	0.83070 0.85840 0.33960 -0.00700
C 	C 	0.73160 0.89960 0.31600 -0.15500
C 	C 	0.70980 0.96880 0.34200 0.14900
C 	C 	0.79230 0.99530 0.38950 -0.10000
C 	C 	0.78110 0.06690 0.42540 0.12500
C 	C 	0.72710 0.16430 0.46670 0.06900
C 	C 	0.65840 0.23130 0.48060 0.05600
C 	C 	0.67010 0.25630 0.55150 -0.15100
C 	C 	0.61040 0.32210 0.56060 0.07700
C 	C 	0.52630 0.33840 0.43620 0.08100
C 	C 	0.57970 0.27190 0.42490 -0.13900
C 	C 	0.59850 0.01250 0.31760 -0.48300
C 	C 	0.29660 0.38600 0.72600 -0.06700
C 	C 	0.17030 0.33960 0.80200 0.11500
C 	C 	0.04760 0.31600 0.78440 -0.34200
C 	C 	0.05180 0.34200 0.68920 0.30700
C 	C 	0.18180 0.38950 0.61520 -0.12900
C 	C 	0.20650 0.42540 0.50770 0.10200
C 	C 	0.19380 0.46670 0.36900 0.03200
C 	C 	0.13900 0.48060 0.28810 0.15400
C 	C 	0.22160 0.55150 0.19220 -0.22600
C 	C 	0.17100 0.56060 0.11730 0.11700
C 	C 	0.96250 0.43620 0.22540 0.27000
C 	C 	0.00460 0.42490 0.30320 -0.37000
C 	C 	0.91610 0.31760 0.66990 -0.82500
C 	C 	0.97740 0.27400 0.11200 0.19600
C 	C 	0.02770 0.19800 0.14160 -0.26800
C 	C 	0.16800 0.21560 0.10040 -0.00300
C 	C 	0.25900 0.31080 0.03120 0.08200
C 	C 	0.20300 0.38480 0.00470 -0.06600
C 	C 	0.28580 0.49230 0.93310 0.10900
C 	C 	0.43720 0.63100 0.83570 0.06700
C 	C 	0.57290 0.71190 0.76870 0.05300
C 	C 	0.58620 0.80780 0.74370 -0.15100
C 	C 	0.71170 0.88270 0.67790 0.07400
C 	C 	0.81210 0.77460 0.66160 0.08000
C 	C 	0.69220 0.69680 0.72810 -0.13700
C 	C 	0.41400 0.33010 0.98750 -0.44300
C 	C 	0.08940 0.11200 0.61400 -0.08100
C 	C 	0.16930 0.14160 0.66040 0.14000
C 	C 	0.26840 0.10040 0.68400 -0.37100
C 	C 	0.29020 0.03120 0.65800 0.46800
C 	C 	0.20770 0.00470 0.61050 -0.14300
C 	C 	0.21890 0.93310 0.57460 0.07900
C 	C 	0.27290 0.83570 0.53330 0.07100
C 	C 	0.34160 0.76870 0.51940 0.05200
C 	C 	0.32990 0.74370 0.44850 -0.14100
C 	C 	0.38960 0.67790 0.43940 0.07100
C 	C 	0.47370 0.66160 0.56380 0.07800
C 	C 	0.42030 0.72810 0.57510 -0.13700
C 	C 	0.40150 0.98750 0.68240 -1.21900
C 	C 	0.70340 0.61400 0.27400 -0.01300
C 	C 	0.82970 0.66040 0.19800 0.00200
C 	C 	0.95240 0.68400 0.21560 -0.16100
C 	C 	0.94820 0.65800 0.31080 0.30400
C 	C 	0.81820 0.61050 0.38480 -0.11600
C 	C 	0.79350 0.57460 0.49230 0.10600
C 	C 	0.80620 0.53330 0.63100 0.10700
C 	C 	0.86100 0.51940 0.71190 -0.04100
C 	C 	0.77840 0.44850 0.80780 -0.07000
C 	C 	0.82900 0.43940 0.88270 0.03300
C 	C 	0.03750 0.56380 0.77460 -0.10000
C 	C 	0.99540 0.57510 0.69680 0.08400
C 	C 	0.08390 0.68240 0.33010 -0.87200
N 	N 	0.93714 0.63132 0.95550 -0.14300
N 	N 	0.78222 0.44132 0.08026 -0.26400
N 	N 	0.68258 0.34988 0.14284 -0.10500
N 	N 	0.57497 0.46529 0.11938 -0.15900
N 	N 	0.17532 0.13082 0.36586 -0.26800
N 	N 	0.89264 0.95550 0.41318 -0.23500
N 	N 	0.86248 0.08026 0.47842 -0.24900
N 	N 	0.82542 0.14284 0.50728 -0.10000
N 	N 	0.69435 0.11938 0.41533 -0.14100
N 	N 	0.54118 0.36586 0.50332 -0.26900
N 	N 	0.30582 0.41318 0.63132 -0.21600
N 	N 	0.34090 0.47842 0.44132 -0.26300
N 	N 	0.33270 0.50728 0.34988 -0.10400
N 	N 	0.10968 0.41533 0.46529 -0.15300
N 	N 	0.04450 0.50332 0.13082 -0.33300
N 	N 	0.06286 0.36868 0.04450 -0.29900
N 	N 	0.21778 0.55868 0.91974 -0.25900
N 	N 	0.31742 0.65012 0.85716 -0.11000
N 	N 	0.42503 0.53471 0.88062 -0.14000
N 	N 	0.82468 0.86918 0.63414 -0.26700
N 	N 	0.10736 0.04450 0.58682 -0.20500
N 	N 	0.13752 0.91974 0.52158 -0.27700
N 	N 	0.17458 0.85716 0.49272 -0.11700
N 	N 	0.30565 0.88062 0.58467 -0.15600
N 	N 	0.45882 0.63414 0.49668 -0.26800
N 	N 	0.69418 0.58682 0.36868 -0.22900
N 	N 	0.65910 0.52158 0.55868 -0.26300
N 	N 	0.66730 0.49272 0.65012 -0.11100
N 	N 	0.89032 0.58467 0.53471 -0.14400
N 	N 	0.95550 0.49668 0.86918 -0.20700
