data_crystal

_cell_length_a 13.14100
_cell_length_b 13.27900
_cell_length_c 32.18100
_cell_angle_alpha 90.00000
_cell_angle_beta  90.00000
_cell_angle_gamma 90.00000

_symmetry_space_group_name_	'P 1'
_symmetry_space_group_name_H-M	'P 1'

loop_
_symmetry_equiv_pos_as_xyz
  x,y,z

loop_
_atom_site_label
_atom_site_type_symbol
_atom_site_fract_x
_atom_site_fract_y
_atom_site_fract_z
_atom_site_charge
Tb	Tb	0.96667 0.19267 0.46612 1.94600
Tb	Tb	0.04849 0.96189 0.73455 1.76900
Tb	Tb	0.03333 0.30733 0.96612 1.94600
Tb	Tb	0.95151 0.53811 0.23455 1.77400
Tb	Tb	0.46667 0.80733 0.03388 1.95200
Tb	Tb	0.54849 0.03811 0.76545 1.78100
Tb	Tb	0.53333 0.69267 0.53388 1.95300
Tb	Tb	0.45151 0.46189 0.26545 1.78100
Tb	Tb	0.03333 0.80733 0.53388 1.94600
Tb	Tb	0.95151 0.03811 0.26545 1.76900
Tb	Tb	0.96667 0.69267 0.03388 1.94500
Tb	Tb	0.04849 0.46189 0.76545 1.77300
Tb	Tb	0.53333 0.19267 0.96612 1.95100
Tb	Tb	0.45151 0.96189 0.23455 1.78000
Tb	Tb	0.46667 0.30733 0.46612 1.95200
Tb	Tb	0.54849 0.53811 0.73455 1.78000
H 	H 	0.26790 0.33360 0.78370 0.15700
H 	H 	0.17270 0.56520 0.51440 0.16300
H 	H 	0.92410 0.20490 0.60910 0.13300
H 	H 	0.33770 0.55640 0.48600 -0.02200
H 	H 	0.43430 0.28340 0.79920 -0.02600
H 	H 	0.94270 0.18810 0.68240 -0.02400
H 	H 	0.73210 0.16640 0.28370 0.15700
H 	H 	0.82730 0.93480 0.01440 0.16400
H 	H 	0.07590 0.29510 0.10910 0.13400
H 	H 	0.66230 0.94360 0.98600 -0.02300
H 	H 	0.56570 0.21660 0.29920 -0.02600
H 	H 	0.05730 0.31190 0.18240 -0.02300
H 	H 	0.76790 0.66640 0.71630 0.15700
H 	H 	0.67270 0.43480 0.98560 0.16300
H 	H 	0.42410 0.79510 0.89090 0.13200
H 	H 	0.83770 0.44360 0.01400 -0.02200
H 	H 	0.93430 0.71660 0.70080 -0.02400
H 	H 	0.44270 0.81190 0.81760 -0.02500
H 	H 	0.23210 0.83360 0.21630 0.15700
H 	H 	0.32730 0.06520 0.48560 0.16300
H 	H 	0.57590 0.70490 0.39090 0.13300
H 	H 	0.16230 0.05640 0.51400 -0.02200
H 	H 	0.06570 0.78340 0.20080 -0.02500
H 	H 	0.55730 0.68810 0.31760 -0.02500
H 	H 	0.73210 0.66640 0.21630 0.15700
H 	H 	0.82730 0.43480 0.48560 0.16300
H 	H 	0.07590 0.79510 0.39090 0.13300
H 	H 	0.66230 0.44360 0.51400 -0.02200
H 	H 	0.56570 0.71660 0.20080 -0.02600
H 	H 	0.05730 0.81190 0.31760 -0.02400
H 	H 	0.26790 0.83360 0.71630 0.15700
H 	H 	0.17270 0.06520 0.98560 0.16400
H 	H 	0.92410 0.70490 0.89090 0.13400
H 	H 	0.33770 0.05640 0.01400 -0.02300
H 	H 	0.43430 0.78340 0.70080 -0.02600
H 	H 	0.94270 0.68810 0.81760 -0.02300
H 	H 	0.23210 0.33360 0.28370 0.15700
H 	H 	0.32730 0.56520 0.01440 0.16300
H 	H 	0.57590 0.20490 0.10910 0.13200
H 	H 	0.16230 0.55640 0.98600 -0.02200
H 	H 	0.06570 0.28340 0.29920 -0.02400
H 	H 	0.55730 0.18810 0.18240 -0.02500
H 	H 	0.76790 0.16640 0.78370 0.15700
H 	H 	0.67270 0.93480 0.51440 0.16300
H 	H 	0.42410 0.29510 0.60910 0.13300
H 	H 	0.83770 0.94360 0.48600 -0.02200
H 	H 	0.93430 0.21660 0.79920 -0.02500
H 	H 	0.44270 0.31190 0.68240 -0.02500
C 	C 	0.22410 0.25160 0.47200 0.41700
C 	C 	0.30490 0.01770 0.74020 0.37900
C 	C 	0.23780 0.19720 0.76120 -0.04400
C 	C 	0.30670 0.11970 0.75890 -0.06900
C 	C 	0.05250 0.90000 0.63500 0.42300
C 	C 	0.13140 0.21150 0.74800 0.43000
C 	C 	0.04940 0.40490 0.52110 0.37000
C 	C 	0.97760 0.06580 0.60240 -0.02800
C 	C 	0.15310 0.41950 0.50160 0.00800
C 	C 	0.97520 0.05760 0.55620 0.43900
C 	C 	0.22020 0.35870 0.48300 -0.09400
C 	C 	0.29130 0.50360 0.48780 0.17900
C 	C 	0.38460 0.24340 0.78700 0.17200
C 	C 	0.00590 0.00260 0.63360 -0.06700
C 	C 	0.95780 0.13940 0.66260 0.15100
C 	C 	0.77590 0.24840 0.97200 0.41700
C 	C 	0.69510 0.48230 0.24020 0.37600
C 	C 	0.76220 0.30280 0.26120 -0.04500
C 	C 	0.69330 0.38030 0.25890 -0.06800
C 	C 	0.94750 0.60000 0.13500 0.43000
C 	C 	0.86860 0.28850 0.24800 0.43000
C 	C 	0.95060 0.09510 0.02110 0.36300
C 	C 	0.02240 0.43420 0.10240 -0.02000
C 	C 	0.84690 0.08050 0.00160 0.00600
C 	C 	0.02480 0.44240 0.05620 0.44100
C 	C 	0.77980 0.14130 0.98300 -0.09300
C 	C 	0.70870 0.99640 0.98780 0.18400
C 	C 	0.61540 0.25660 0.28700 0.17200
C 	C 	0.99410 0.49740 0.13360 -0.08100
C 	C 	0.04220 0.36060 0.16260 0.15200
C 	C 	0.72410 0.74840 0.02800 0.41800
C 	C 	0.80490 0.98230 0.75980 0.38200
C 	C 	0.73780 0.80280 0.73880 -0.04400
C 	C 	0.80670 0.88030 0.74110 -0.06900
C 	C 	0.55250 0.10000 0.86500 0.42700
C 	C 	0.63140 0.78850 0.75200 0.43100
C 	C 	0.54940 0.59510 0.97890 0.36900
C 	C 	0.47760 0.93420 0.89760 -0.02900
C 	C 	0.65310 0.58050 0.99840 0.00900
C 	C 	0.47520 0.94240 0.94380 0.44400
C 	C 	0.72020 0.64130 0.01700 -0.09600
C 	C 	0.79130 0.49640 0.01220 0.17800
C 	C 	0.88460 0.75660 0.71300 0.17300
C 	C 	0.50590 0.99740 0.86640 -0.07000
C 	C 	0.45780 0.86060 0.83740 0.15100
C 	C 	0.27590 0.75160 0.52800 0.41800
C 	C 	0.19510 0.51770 0.25980 0.37600
C 	C 	0.26220 0.69720 0.23880 -0.04500
C 	C 	0.19330 0.61970 0.24110 -0.06700
C 	C 	0.44750 0.40000 0.36500 0.42700
C 	C 	0.36860 0.71150 0.25200 0.43100
C 	C 	0.45060 0.90490 0.47890 0.37000
C 	C 	0.52240 0.56580 0.39760 -0.02800
C 	C 	0.34690 0.91950 0.49840 0.00700
C 	C 	0.52480 0.55760 0.44380 0.44300
C 	C 	0.27980 0.85870 0.51700 -0.09400
C 	C 	0.20870 0.00360 0.51220 0.18200
C 	C 	0.11540 0.74340 0.21300 0.17200
C 	C 	0.49410 0.50260 0.36640 -0.07000
C 	C 	0.54220 0.63940 0.33740 0.15100
C 	C 	0.77590 0.74840 0.52800 0.41700
C 	C 	0.69510 0.98230 0.25980 0.37900
C 	C 	0.76220 0.80280 0.23880 -0.04400
C 	C 	0.69330 0.88030 0.24110 -0.06900
C 	C 	0.94750 0.10000 0.36500 0.42300
C 	C 	0.86860 0.78850 0.25200 0.43000
C 	C 	0.95060 0.59510 0.47890 0.37000
C 	C 	0.02240 0.93420 0.39760 -0.02800
C 	C 	0.84690 0.58050 0.49840 0.00800
C 	C 	0.02480 0.94240 0.44380 0.43900
C 	C 	0.77980 0.64130 0.51700 -0.09400
C 	C 	0.70870 0.49640 0.51220 0.17900
C 	C 	0.61540 0.75660 0.21300 0.17200
C 	C 	0.99410 0.99740 0.36640 -0.06700
C 	C 	0.04220 0.86060 0.33740 0.15100
C 	C 	0.22410 0.75160 0.02800 0.41700
C 	C 	0.30490 0.51770 0.75980 0.37600
C 	C 	0.23780 0.69720 0.73880 -0.04500
C 	C 	0.30670 0.61970 0.74110 -0.06800
C 	C 	0.05250 0.40000 0.86500 0.43000
C 	C 	0.13140 0.71150 0.75200 0.43000
C 	C 	0.04940 0.90490 0.97890 0.36300
C 	C 	0.97760 0.56580 0.89760 -0.02000
C 	C 	0.15310 0.91950 0.99840 0.00600
C 	C 	0.97520 0.55760 0.94380 0.44100
C 	C 	0.22020 0.85870 0.01700 -0.09300
C 	C 	0.29130 0.00360 0.01220 0.18400
C 	C 	0.38460 0.74340 0.71300 0.17200
C 	C 	0.00590 0.50260 0.86640 -0.08100
C 	C 	0.95780 0.63940 0.83740 0.15200
C 	C 	0.27590 0.25160 0.97200 0.41800
C 	C 	0.19510 0.01770 0.24020 0.38200
C 	C 	0.26220 0.19720 0.26120 -0.04400
C 	C 	0.19330 0.11970 0.25890 -0.06900
C 	C 	0.44750 0.90000 0.13500 0.42700
C 	C 	0.36860 0.21150 0.24800 0.43100
C 	C 	0.45060 0.40490 0.02110 0.36900
C 	C 	0.52240 0.06580 0.10240 -0.02900
C 	C 	0.34690 0.41950 0.00160 0.00900
C 	C 	0.52480 0.05760 0.05620 0.44400
C 	C 	0.27980 0.35870 0.98300 -0.09600
C 	C 	0.20870 0.50360 0.98780 0.17800
C 	C 	0.11540 0.24340 0.28700 0.17300
C 	C 	0.49410 0.00260 0.13360 -0.07000
C 	C 	0.54220 0.13940 0.16260 0.15100
C 	C 	0.72410 0.24840 0.47200 0.41800
C 	C 	0.80490 0.48230 0.74020 0.37600
C 	C 	0.73780 0.30280 0.76120 -0.04500
C 	C 	0.80670 0.38030 0.75890 -0.06700
C 	C 	0.55250 0.60000 0.63500 0.42700
C 	C 	0.63140 0.28850 0.74800 0.43100
C 	C 	0.54940 0.09510 0.52110 0.37000
C 	C 	0.47760 0.43420 0.60240 -0.02800
C 	C 	0.65310 0.08050 0.50160 0.00700
C 	C 	0.47520 0.44240 0.55620 0.44300
C 	C 	0.72020 0.14130 0.48300 -0.09400
C 	C 	0.79130 0.99640 0.48780 0.18200
C 	C 	0.88460 0.25660 0.78700 0.17200
C 	C 	0.50590 0.49740 0.63360 -0.07000
C 	C 	0.45780 0.36060 0.66260 0.15100
N 	N 	0.99280 0.04940 0.67110 -0.22400
N 	N 	0.29130 0.27430 0.77870 -0.21200
N 	N 	0.30900 0.41120 0.47440 -0.22200
N 	N 	0.39870 0.14860 0.77570 -0.23000
N 	N 	0.19900 0.51140 0.50410 -0.21900
N 	N 	0.94670 0.15180 0.62130 -0.20500
N 	N 	0.00720 0.45060 0.17110 -0.22000
N 	N 	0.70870 0.22570 0.27870 -0.21200
N 	N 	0.69100 0.08880 0.97440 -0.22400
N 	N 	0.60130 0.35140 0.27570 -0.23000
N 	N 	0.80100 0.98860 0.00410 -0.22000
N 	N 	0.05330 0.34820 0.12130 -0.20600
N 	N 	0.49280 0.95060 0.82890 -0.22500
N 	N 	0.79130 0.72570 0.72130 -0.21200
N 	N 	0.80900 0.58880 0.02560 -0.22200
N 	N 	0.89870 0.85140 0.72430 -0.22700
N 	N 	0.69900 0.48860 0.99590 -0.21900
N 	N 	0.44670 0.84820 0.87870 -0.20500
N 	N 	0.50720 0.54940 0.32890 -0.22500
N 	N 	0.20870 0.77430 0.22130 -0.21200
N 	N 	0.19100 0.91120 0.52560 -0.22400
N 	N 	0.10130 0.64860 0.22430 -0.22800
N 	N 	0.30100 0.01140 0.49590 -0.21900
N 	N 	0.55330 0.65180 0.37870 -0.20500
N 	N 	0.00720 0.95060 0.32890 -0.22400
N 	N 	0.70870 0.72570 0.22130 -0.21200
N 	N 	0.69100 0.58880 0.52560 -0.22200
N 	N 	0.60130 0.85140 0.22430 -0.23000
N 	N 	0.80100 0.48860 0.49590 -0.21900
N 	N 	0.05330 0.84820 0.37870 -0.20500
N 	N 	0.99280 0.54940 0.82890 -0.22000
N 	N 	0.29130 0.77430 0.72130 -0.21200
N 	N 	0.30900 0.91120 0.02560 -0.22400
N 	N 	0.39870 0.64860 0.72430 -0.23000
N 	N 	0.19900 0.01140 0.99590 -0.22000
N 	N 	0.94670 0.65180 0.87870 -0.20600
N 	N 	0.50720 0.04940 0.17110 -0.22500
N 	N 	0.20870 0.27430 0.27870 -0.21200
N 	N 	0.19100 0.41120 0.97440 -0.22200
N 	N 	0.10130 0.14860 0.27570 -0.22700
N 	N 	0.30100 0.51140 0.00410 -0.21900
N 	N 	0.55330 0.15180 0.12130 -0.20500
N 	N 	0.49280 0.45060 0.67110 -0.22500
N 	N 	0.79130 0.22570 0.77870 -0.21200
N 	N 	0.80900 0.08880 0.47440 -0.22400
N 	N 	0.89870 0.35140 0.77570 -0.22800
N 	N 	0.69900 0.98860 0.50410 -0.21900
N 	N 	0.44670 0.34820 0.62130 -0.20500
O 	O 	0.97610 0.97060 0.54140 -0.48900
O 	O 	0.99710 0.33180 0.51020 -0.45100
O 	O 	0.97420 0.13820 0.53640 -0.46500
O 	O 	0.10130 0.30150 0.74440 -0.48000
O 	O 	0.22410 0.97770 0.72580 -0.46800
O 	O 	0.06400 0.84950 0.60300 -0.50800
O 	O 	0.08170 0.87190 0.67020 -0.43900
O 	O 	0.14550 0.19910 0.46920 -0.47600
O 	O 	0.31220 0.21490 0.46530 -0.47200
O 	O 	0.39040 0.97430 0.73870 -0.45300
O 	O 	0.07440 0.13670 0.74230 -0.47600
O 	O 	0.02570 0.46640 0.54810 -0.28300
O 	O 	0.02390 0.52940 0.04140 -0.49200
O 	O 	0.00290 0.16820 0.01020 -0.44400
O 	O 	0.02580 0.36180 0.03640 -0.46300
O 	O 	0.89870 0.19850 0.24440 -0.48100
O 	O 	0.77590 0.52230 0.22580 -0.46600
O 	O 	0.93600 0.65050 0.10300 -0.50900
O 	O 	0.91830 0.62810 0.17020 -0.44000
O 	O 	0.85450 0.30090 0.96920 -0.47600
O 	O 	0.68780 0.28510 0.96530 -0.47200
O 	O 	0.60960 0.52570 0.23870 -0.45100
O 	O 	0.92560 0.36330 0.24230 -0.47900
O 	O 	0.97430 0.03360 0.04810 -0.28300
O 	O 	0.47610 0.02940 0.95860 -0.49500
O 	O 	0.49710 0.66820 0.98980 -0.45100
O 	O 	0.47420 0.86180 0.96360 -0.46600
O 	O 	0.60130 0.69850 0.75560 -0.48000
O 	O 	0.72410 0.02230 0.77420 -0.47000
O 	O 	0.56400 0.15050 0.89700 -0.50800
O 	O 	0.58170 0.12810 0.82980 -0.43900
O 	O 	0.64550 0.80090 0.03080 -0.47800
O 	O 	0.81220 0.78510 0.03470 -0.47300
O 	O 	0.89040 0.02570 0.76130 -0.45200
O 	O 	0.57440 0.86330 0.75770 -0.47700
O 	O 	0.52570 0.53360 0.95190 -0.28300
O 	O 	0.52390 0.47060 0.45860 -0.49500
O 	O 	0.50290 0.83180 0.48980 -0.45200
O 	O 	0.52580 0.63820 0.46360 -0.46600
O 	O 	0.39870 0.80150 0.25560 -0.48000
O 	O 	0.27590 0.47770 0.27420 -0.46700
O 	O 	0.43600 0.34950 0.39700 -0.50800
O 	O 	0.41830 0.37190 0.32980 -0.43900
O 	O 	0.35450 0.69910 0.53080 -0.47800
O 	O 	0.18780 0.71490 0.53470 -0.47200
O 	O 	0.10960 0.47430 0.26130 -0.44900
O 	O 	0.42560 0.63670 0.25770 -0.47800
O 	O 	0.47430 0.96640 0.45190 -0.28300
O 	O 	0.02390 0.02940 0.45860 -0.48900
O 	O 	0.00290 0.66820 0.48980 -0.45100
O 	O 	0.02580 0.86180 0.46360 -0.46500
O 	O 	0.89870 0.69850 0.25560 -0.48000
O 	O 	0.77590 0.02230 0.27420 -0.46800
O 	O 	0.93600 0.15050 0.39700 -0.50800
O 	O 	0.91830 0.12810 0.32980 -0.43900
O 	O 	0.85450 0.80090 0.53080 -0.47600
O 	O 	0.68780 0.78510 0.53470 -0.47200
O 	O 	0.60960 0.02570 0.26130 -0.45300
O 	O 	0.92560 0.86330 0.25770 -0.47600
O 	O 	0.97430 0.53360 0.45190 -0.28300
O 	O 	0.97610 0.47060 0.95860 -0.49200
O 	O 	0.99710 0.83180 0.98980 -0.44400
O 	O 	0.97420 0.63820 0.96360 -0.46300
O 	O 	0.10130 0.80150 0.75560 -0.48100
O 	O 	0.22410 0.47770 0.77420 -0.46600
O 	O 	0.06400 0.34950 0.89700 -0.50900
O 	O 	0.08170 0.37190 0.82980 -0.44000
O 	O 	0.14550 0.69910 0.03080 -0.47600
O 	O 	0.31220 0.71490 0.03470 -0.47200
O 	O 	0.39040 0.47430 0.76130 -0.45100
O 	O 	0.07440 0.63670 0.75770 -0.47900
O 	O 	0.02570 0.96640 0.95190 -0.28300
O 	O 	0.52390 0.97060 0.04140 -0.49500
O 	O 	0.50290 0.33180 0.01020 -0.45100
O 	O 	0.52580 0.13820 0.03640 -0.46600
O 	O 	0.39870 0.30150 0.24440 -0.48000
O 	O 	0.27590 0.97770 0.22580 -0.47000
O 	O 	0.43600 0.84950 0.10300 -0.50800
O 	O 	0.41830 0.87190 0.17020 -0.43900
O 	O 	0.35450 0.19910 0.96920 -0.47800
O 	O 	0.18780 0.21490 0.96530 -0.47300
O 	O 	0.10960 0.97430 0.23870 -0.45200
O 	O 	0.42560 0.13670 0.24230 -0.47700
O 	O 	0.47430 0.46640 0.04810 -0.28300
O 	O 	0.47610 0.52940 0.54140 -0.49500
O 	O 	0.49710 0.16820 0.51020 -0.45200
O 	O 	0.47420 0.36180 0.53640 -0.46600
O 	O 	0.60130 0.19850 0.74440 -0.48000
O 	O 	0.72410 0.52230 0.72580 -0.46700
O 	O 	0.56400 0.65050 0.60300 -0.50800
O 	O 	0.58170 0.62810 0.67020 -0.43900
O 	O 	0.64550 0.30090 0.46920 -0.47800
O 	O 	0.81220 0.28510 0.46530 -0.47200
O 	O 	0.89040 0.52570 0.73870 -0.44900
O 	O 	0.57440 0.36330 0.74230 -0.47800
O 	O 	0.52570 0.03360 0.54810 -0.28300
