data_crystal

_cell_length_a 10.81370
_cell_length_b 19.04000
_cell_length_c 19.24600
_cell_angle_alpha 90.00000
_cell_angle_beta  98.33800
_cell_angle_gamma 90.00000

_symmetry_space_group_name_	'P 1'
_symmetry_space_group_name_H-M	'P 1'

loop_
_symmetry_equiv_pos_as_xyz
  x,y,z

loop_
_atom_site_label
_atom_site_type_symbol
_atom_site_fract_x
_atom_site_fract_y
_atom_site_fract_z
_atom_site_charge
Eu	Eu	0.58507 0.37469 0.85702 1.51500
N 	N 	0.75510 0.46230 0.91730 -0.15600
C 	C 	0.74220 0.50750 0.96840 -0.11300
H 	H 	0.67260 0.50310 0.99220 0.05400
C 	C 	0.82730 0.56070 0.98790 0.24200
N 	N 	0.92820 0.56760 0.95630 -0.16900
C 	C 	0.94350 0.52180 0.90630 0.07700
H 	H 	0.01500 0.52510 0.88390 0.01400
C 	C 	0.85780 0.46960 0.88620 -0.11100
C 	C 	0.80630 0.61260 0.04320 -0.66200
H 	H 	0.88200 0.61730 0.07660 0.22600
H 	H 	0.73880 0.59640 0.06730 0.21700
H 	H 	0.78440 0.65780 0.02150 0.21800
C 	C 	0.87110 0.41950 0.82790 0.39100
O 	O 	0.97230 0.41730 0.80430 -0.45500
O 	O 	0.77750 0.38290 0.80670 -0.49400
N 	N 	0.46880 0.26010 0.88780 -0.15600
C 	C 	0.51570 0.20770 0.92840 -0.09600
H 	H 	0.59870 0.21090 0.95080 0.03300
C 	C 	0.44710 0.14840 0.93900 0.22200
N 	N 	0.33140 0.14040 0.90610 -0.17600
C 	C 	0.28340 0.19280 0.86490 0.07100
H 	H 	0.20150 0.18870 0.84100 0.00100
C 	C 	0.35080 0.25300 0.85640 -0.10600
C 	C 	0.50100 0.09210 0.98760 -0.58700
H 	H 	0.44000 0.07780 0.01720 0.17500
H 	H 	0.57540 0.10950 0.01670 0.18000
H 	H 	0.52280 0.05210 0.96060 0.17700
C 	C 	0.29790 0.31360 0.81350 0.40300
O 	O 	0.18820 0.30880 0.78250 -0.47000
O 	O 	0.36580 0.36670 0.81310 -0.48600
N 	N 	0.49040 0.49140 0.87340 -0.19500
N 	N 	0.54560 0.37700 0.98020 -0.20500
N 	N 	0.57650 0.28670 0.76370 -0.20300
Eu	Eu	0.04951 0.37102 0.70109 1.15200
Mo	Mo	0.46128 0.66168 0.85400 1.07200
C 	C 	0.48120 0.55080 0.86860 -0.11700
C 	C 	0.53750 0.36420 0.03770 -0.11900
C 	C 	0.55960 0.24340 0.72240 -0.12100
C 	C 	0.64590 0.64270 0.82850 -0.14300
N 	N 	0.74230 0.63420 0.81220 -0.08800
C 	C 	0.27050 0.62760 0.83680 -0.15200
N 	N 	0.16980 0.60730 0.82730 -0.09400
C 	C 	0.43110 0.61390 0.75080 -0.13400
N 	N 	0.41500 0.58610 0.69750 -0.10400
C 	C 	0.35110 0.74170 0.89490 -0.14500
N 	N 	0.28880 0.78300 0.91570 -0.12800
C 	C 	0.59320 0.73740 0.90630 -0.14100
N 	N 	0.66320 0.77800 0.93180 -0.11200
Eu	Eu	0.41493 0.87469 0.64298 1.51300
N 	N 	0.24490 0.96230 0.58270 -0.15700
C 	C 	0.25780 0.00750 0.53160 -0.11500
H 	H 	0.32740 0.00310 0.50780 0.05500
C 	C 	0.17270 0.06070 0.51210 0.24300
N 	N 	0.07180 0.06760 0.54370 -0.16800
C 	C 	0.05650 0.02180 0.59370 0.06900
H 	H 	0.98500 0.02510 0.61610 0.01800
C 	C 	0.14220 0.96960 0.61380 -0.10600
C 	C 	0.19370 0.11260 0.45680 -0.66300
H 	H 	0.11800 0.11730 0.42340 0.22600
H 	H 	0.26120 0.09640 0.43270 0.21700
H 	H 	0.21560 0.15780 0.47850 0.21700
C 	C 	0.12890 0.91950 0.67210 0.38900
O 	O 	0.02770 0.91730 0.69570 -0.45300
O 	O 	0.22250 0.88290 0.69330 -0.49300
N 	N 	0.53120 0.76010 0.61220 -0.15500
C 	C 	0.48430 0.70770 0.57160 -0.09900
H 	H 	0.40130 0.71090 0.54920 0.03400
C 	C 	0.55290 0.64840 0.56100 0.22700
N 	N 	0.66860 0.64040 0.59390 -0.17800
C 	C 	0.71660 0.69280 0.63510 0.07100
H 	H 	0.79850 0.68870 0.65900 0.00100
C 	C 	0.64920 0.75300 0.64360 -0.10700
C 	C 	0.49900 0.59210 0.51240 -0.60700
H 	H 	0.56000 0.57780 0.48280 0.18200
H 	H 	0.42460 0.60950 0.48330 0.18700
H 	H 	0.47720 0.55210 0.53940 0.18100
C 	C 	0.70210 0.81360 0.68650 0.40300
O 	O 	0.81180 0.80880 0.71750 -0.47000
O 	O 	0.63420 0.86670 0.68690 -0.48600
N 	N 	0.50960 0.99140 0.62660 -0.19600
N 	N 	0.45440 0.87700 0.51980 -0.20500
N 	N 	0.42350 0.78670 0.73630 -0.20300
Eu	Eu	0.95049 0.87102 0.79891 1.14700
Mo	Mo	0.53872 0.16168 0.64600 1.07200
C 	C 	0.51880 0.05080 0.63140 -0.11600
C 	C 	0.46250 0.86420 0.46230 -0.11800
C 	C 	0.44040 0.74340 0.77760 -0.12100
C 	C 	0.35410 0.14270 0.67150 -0.14300
N 	N 	0.25770 0.13420 0.68780 -0.08800
C 	C 	0.72950 0.12760 0.66320 -0.15200
N 	N 	0.83020 0.10730 0.67270 -0.09300
C 	C 	0.56890 0.11390 0.74920 -0.13400
N 	N 	0.58500 0.08610 0.80250 -0.10400
C 	C 	0.64890 0.24170 0.60510 -0.14400
N 	N 	0.71120 0.28300 0.58430 -0.12800
C 	C 	0.40680 0.23740 0.59370 -0.14000
N 	N 	0.33680 0.27800 0.56820 -0.11100
Eu	Eu	0.41493 0.62531 0.14298 1.51400
N 	N 	0.24490 0.53770 0.08270 -0.15700
C 	C 	0.25780 0.49250 0.03160 -0.11300
H 	H 	0.32740 0.49690 0.00780 0.05400
C 	C 	0.17270 0.43930 0.01210 0.24200
N 	N 	0.07180 0.43240 0.04370 -0.16900
C 	C 	0.05650 0.47820 0.09370 0.07700
H 	H 	0.98500 0.47490 0.11610 0.01400
C 	C 	0.14220 0.53040 0.11380 -0.11100
C 	C 	0.19370 0.38740 0.95680 -0.66200
H 	H 	0.11800 0.38270 0.92340 0.22600
H 	H 	0.26120 0.40360 0.93270 0.21700
H 	H 	0.21560 0.34220 0.97850 0.21800
C 	C 	0.12890 0.58050 0.17210 0.39100
O 	O 	0.02770 0.58270 0.19570 -0.45500
O 	O 	0.22250 0.61710 0.19330 -0.49400
N 	N 	0.53120 0.73990 0.11220 -0.15600
C 	C 	0.48430 0.79230 0.07160 -0.09600
H 	H 	0.40130 0.78910 0.04920 0.03300
C 	C 	0.55290 0.85160 0.06100 0.22200
N 	N 	0.66860 0.85960 0.09390 -0.17600
C 	C 	0.71660 0.80720 0.13510 0.07100
H 	H 	0.79850 0.81130 0.15900 0.00100
C 	C 	0.64920 0.74700 0.14360 -0.10600
C 	C 	0.49900 0.90790 0.01240 -0.58700
H 	H 	0.56000 0.92220 0.98280 0.17500
H 	H 	0.42460 0.89050 0.98330 0.18000
H 	H 	0.47720 0.94790 0.03940 0.17700
C 	C 	0.70210 0.68640 0.18650 0.40300
O 	O 	0.81180 0.69120 0.21750 -0.47000
O 	O 	0.63420 0.63330 0.18690 -0.48600
N 	N 	0.50960 0.50860 0.12660 -0.19500
N 	N 	0.45440 0.62300 0.01980 -0.20500
N 	N 	0.42350 0.71330 0.23630 -0.20300
Eu	Eu	0.95049 0.62898 0.29891 1.15200
Mo	Mo	0.53872 0.33832 0.14600 1.07200
C 	C 	0.51880 0.44920 0.13140 -0.11700
C 	C 	0.46250 0.63580 0.96230 -0.11900
C 	C 	0.44040 0.75660 0.27760 -0.12100
C 	C 	0.35410 0.35730 0.17150 -0.14300
N 	N 	0.25770 0.36580 0.18780 -0.08800
C 	C 	0.72950 0.37240 0.16320 -0.15200
N 	N 	0.83020 0.39270 0.17270 -0.09400
C 	C 	0.56890 0.38610 0.24920 -0.13400
N 	N 	0.58500 0.41390 0.30250 -0.10400
C 	C 	0.64890 0.25830 0.10510 -0.14500
N 	N 	0.71120 0.21700 0.08430 -0.12800
C 	C 	0.40680 0.26260 0.09370 -0.14100
N 	N 	0.33680 0.22200 0.06820 -0.11200
Eu	Eu	0.58507 0.12531 0.35702 1.51300
N 	N 	0.75510 0.03770 0.41730 -0.15700
C 	C 	0.74220 0.99250 0.46840 -0.11500
H 	H 	0.67260 0.99690 0.49220 0.05500
C 	C 	0.82730 0.93930 0.48790 0.24300
N 	N 	0.92820 0.93240 0.45630 -0.16800
C 	C 	0.94350 0.97820 0.40630 0.06900
H 	H 	0.01500 0.97490 0.38390 0.01800
C 	C 	0.85780 0.03040 0.38620 -0.10600
C 	C 	0.80630 0.88740 0.54320 -0.66300
H 	H 	0.88200 0.88270 0.57660 0.22600
H 	H 	0.73880 0.90360 0.56730 0.21700
H 	H 	0.78440 0.84220 0.52150 0.21700
C 	C 	0.87110 0.08050 0.32790 0.38900
O 	O 	0.97230 0.08270 0.30430 -0.45300
O 	O 	0.77750 0.11710 0.30670 -0.49300
N 	N 	0.46880 0.23990 0.38780 -0.15500
C 	C 	0.51570 0.29230 0.42840 -0.09900
H 	H 	0.59870 0.28910 0.45080 0.03400
C 	C 	0.44710 0.35160 0.43900 0.22700
N 	N 	0.33140 0.35960 0.40610 -0.17800
C 	C 	0.28340 0.30720 0.36490 0.07100
H 	H 	0.20150 0.31130 0.34100 0.00100
C 	C 	0.35080 0.24700 0.35640 -0.10700
C 	C 	0.50100 0.40790 0.48760 -0.60700
H 	H 	0.44000 0.42220 0.51720 0.18200
H 	H 	0.57540 0.39050 0.51670 0.18700
H 	H 	0.52280 0.44790 0.46060 0.18100
C 	C 	0.29790 0.18640 0.31350 0.40300
O 	O 	0.18820 0.19120 0.28250 -0.47000
O 	O 	0.36580 0.13330 0.31310 -0.48600
N 	N 	0.49040 0.00860 0.37340 -0.19600
N 	N 	0.54560 0.12300 0.48020 -0.20500
N 	N 	0.57650 0.21330 0.26370 -0.20300
Eu	Eu	0.04951 0.12898 0.20109 1.14700
Mo	Mo	0.46128 0.83832 0.35400 1.07200
C 	C 	0.48120 0.94920 0.36860 -0.11600
C 	C 	0.53750 0.13580 0.53770 -0.11800
C 	C 	0.55960 0.25660 0.22240 -0.12100
C 	C 	0.64590 0.85730 0.32850 -0.14300
N 	N 	0.74230 0.86580 0.31220 -0.08800
C 	C 	0.27050 0.87240 0.33680 -0.15200
N 	N 	0.16980 0.89270 0.32730 -0.09300
C 	C 	0.43110 0.88610 0.25080 -0.13400
N 	N 	0.41500 0.91390 0.19750 -0.10400
C 	C 	0.35110 0.75830 0.39490 -0.14400
N 	N 	0.28880 0.71700 0.41570 -0.12800
C 	C 	0.59320 0.76260 0.40630 -0.14000
N 	N 	0.66320 0.72200 0.43180 -0.11100
