data_crystal

_cell_length_a 8.41300
_cell_length_b 11.83060
_cell_length_c 8.94680
_cell_angle_alpha 90.00000
_cell_angle_beta  90.00000
_cell_angle_gamma 90.00000

_symmetry_space_group_name_	'P 1'
_symmetry_space_group_name_H-M	'P 1'

loop_
_symmetry_equiv_pos_as_xyz
  x,y,z

loop_
_atom_site_label
_atom_site_type_symbol
_atom_site_fract_x
_atom_site_fract_y
_atom_site_fract_z
_atom_site_charge
O 	O 	0.43878 0.19286 0.11207 -0.39000
O 	O 	0.59350 0.18212 0.91342 -0.40800
O 	O 	0.24412 0.40639 0.13090 -0.39200
C 	C 	0.47710 0.22070 0.98290 0.48300
H 	H 	0.41430 0.27410 0.93460 -0.11200
O 	O 	0.06122 0.80714 0.11207 -0.36100
O 	O 	0.90650 0.81788 0.91342 -0.37400
O 	O 	0.25588 0.59361 0.13090 -0.39300
C 	C 	0.02290 0.77930 0.98290 0.45800
H 	H 	0.08570 0.72590 0.93460 -0.10100
O 	O 	0.06122 0.69286 0.38793 -0.38000
O 	O 	0.90650 0.68212 0.58658 -0.39700
O 	O 	0.25588 0.90639 0.36910 -0.32800
C 	C 	0.02290 0.72070 0.51710 0.47900
H 	H 	0.08570 0.77410 0.56540 -0.10400
O 	O 	0.43878 0.30714 0.38793 -0.38600
O 	O 	0.59350 0.31788 0.58658 -0.40200
O 	O 	0.24412 0.09361 0.36910 -0.37800
C 	C 	0.47710 0.27930 0.51710 0.48400
H 	H 	0.41430 0.22590 0.56540 -0.11500
O 	O 	0.56122 0.80714 0.88793 -0.37000
O 	O 	0.40650 0.81788 0.08658 -0.38500
O 	O 	0.75588 0.59361 0.86910 -0.39200
C 	C 	0.52290 0.77930 0.01710 0.48000
H 	H 	0.58570 0.72590 0.06540 -0.10700
O 	O 	0.93878 0.19286 0.88793 -0.38100
O 	O 	0.09350 0.18212 0.08658 -0.39800
O 	O 	0.74412 0.40639 0.86910 -0.39200
C 	C 	0.97710 0.22070 0.01710 0.46200
H 	H 	0.91430 0.27410 0.06540 -0.10600
O 	O 	0.93878 0.30714 0.61207 -0.38400
O 	O 	0.09350 0.31788 0.41342 -0.40100
O 	O 	0.74412 0.09361 0.63090 -0.37800
C 	C 	0.97710 0.27930 0.48290 0.48200
H 	H 	0.91430 0.22590 0.43460 -0.11500
O 	O 	0.56122 0.69286 0.61207 -0.38100
O 	O 	0.40650 0.68212 0.41342 -0.39900
O 	O 	0.75588 0.90639 0.63090 -0.32500
C 	C 	0.52290 0.72070 0.48290 0.48400
H 	H 	0.58570 0.77410 0.43460 -0.10500
Fe	Fe	0.24750 0.25000 0.25000 1.23100
Fe	Fe	0.25250 0.75000 0.25000 1.23300
Fe	Fe	0.75250 0.75000 0.75000 1.23300
Fe	Fe	0.74750 0.25000 0.75000 1.23000
C 	C 	0.25000 0.50000 0.19290 0.47800
H 	H 	0.25000 0.50000 0.29690 -0.10800
C 	C 	0.25000 0.00000 0.30710 0.37500
H 	H 	0.25000 0.00000 0.20310 -0.09200
C 	C 	0.75000 0.50000 0.80710 0.47800
H 	H 	0.75000 0.50000 0.70310 -0.10800
C 	C 	0.75000 0.00000 0.69290 0.37000
H 	H 	0.75000 -0.00000 0.79690 -0.09200
