data_crystal

_cell_length_a 10.13700
_cell_length_b 16.76800
_cell_length_c 15.85200
_cell_angle_alpha 90.00000
_cell_angle_beta  94.16600
_cell_angle_gamma 90.00000

_symmetry_space_group_name_	'P 1'
_symmetry_space_group_name_H-M	'P 1'

loop_
_symmetry_equiv_pos_as_xyz
  x,y,z

loop_
_atom_site_label
_atom_site_type_symbol
_atom_site_fract_x
_atom_site_fract_y
_atom_site_fract_z
_atom_site_charge
Ni	Ni	0.20999 0.22725 0.36763 1.05700
C 	C 	0.63570 0.98588 0.73604 -0.02300
H 	H 	0.57880 0.01420 0.76840 0.03300
C 	C 	0.62770 0.90770 0.71518 0.00500
H 	H 	0.56250 0.87290 0.73120 0.00400
C 	C 	0.79740 0.95323 0.65932 0.08100
H 	H 	0.87280 0.95700 0.62950 -0.00400
C 	C 	0.78940 0.09816 0.70156 -0.15400
H 	H 	0.88520 0.09910 0.70260 0.09100
H 	H 	0.76430 0.12270 0.75350 0.07600
C 	C 	0.73240 0.14874 0.62566 0.12200
C 	C 	0.77810 0.12225 0.54047 -0.14500
H 	H 	0.76010 0.06570 0.53420 0.07900
H 	H 	0.72420 0.14960 0.49640 0.07700
C 	C 	0.02860 0.09851 0.56210 -0.00800
H 	H 	0.03180 0.06220 0.60650 0.04700
C 	C 	0.13100 0.12530 0.52092 0.01200
H 	H 	0.21880 0.11100 0.53380 0.02100
C 	C 	0.95920 0.18134 0.46252 0.08800
H 	H 	0.90320 0.21250 0.42710 -0.00700
C 	C 	0.75880 0.23761 0.64486 -0.14300
H 	H 	0.73650 0.26790 0.59370 0.08100
H 	H 	0.69960 0.25480 0.68670 0.07200
C 	C 	0.98720 0.29546 0.63162 -0.01200
H 	H 	0.97860 0.30970 0.57480 0.03900
C 	C 	0.09290 0.30795 0.68627 0.01000
H 	H 	0.17090 0.33260 0.67290 0.01100
C 	C 	0.94800 0.25020 0.75563 0.09200
H 	H 	0.90460 0.22730 0.79930 -0.01000
C 	C 	0.58020 0.13697 0.62224 -0.15300
H 	H 	0.56040 0.08330 0.60240 0.08200
H 	H 	0.55270 0.14080 0.67950 0.07500
C 	C 	0.43980 0.25960 0.59690 -0.01500
H 	H 	0.45350 0.28290 0.65000 0.02300
C 	C 	0.35710 0.28534 0.53238 0.00400
H 	H 	0.30490 0.33090 0.53340 0.02400
C 	C 	0.44800 0.17989 0.48942 0.07700
H 	H 	0.47130 0.13740 0.45580 -0.01000
C 	C 	0.12750 0.40065 0.35322 0.40200
C 	C 	0.06390 0.47220 0.39204 -0.36000
H 	H 	0.12400 0.51700 0.39000 0.13900
H 	H 	0.98440 0.48570 0.35720 0.14000
C 	C 	0.02770 0.46249 0.48123 -0.00500
H 	H 	0.10580 0.44610 0.51600 0.03500
H 	H 	0.96270 0.42020 0.48310 0.03300
O 	O 	0.13922 0.33816 0.39783 -0.43400
O 	O 	0.16464 0.40815 0.28010 -0.31500
N 	N 	0.74502 0.01488 0.69983 -0.10400
N 	N 	0.72969 0.88705 0.66676 -0.23900
N 	N 	0.91797 0.13567 0.52527 -0.10100
N 	N 	0.08839 0.17672 0.45716 -0.22100
N 	N 	0.89497 0.25787 0.67587 -0.10300
N 	N 	0.06880 0.27904 0.76445 -0.23100
N 	N 	0.49963 0.19249 0.56910 -0.10500
N 	N 	0.36106 0.23469 0.46500 -0.23300
Ni	Ni	0.79001 0.72725 0.13237 1.05800
C 	C 	0.36430 0.48588 0.76396 -0.02300
H 	H 	0.42120 0.51420 0.73160 0.03400
C 	C 	0.37230 0.40770 0.78482 0.00700
H 	H 	0.43750 0.37290 0.76880 0.00400
C 	C 	0.20260 0.45323 0.84068 0.08100
H 	H 	0.12720 0.45700 0.87050 -0.00300
C 	C 	0.21060 0.59816 0.79844 -0.15400
H 	H 	0.11480 0.59910 0.79740 0.09200
H 	H 	0.23570 0.62270 0.74650 0.07600
C 	C 	0.26760 0.64874 0.87434 0.12200
C 	C 	0.22190 0.62225 0.95953 -0.14400
H 	H 	0.23990 0.56570 0.96580 0.07900
H 	H 	0.27580 0.64960 0.00360 0.07600
C 	C 	0.97140 0.59851 0.93790 -0.01100
H 	H 	0.96820 0.56220 0.89350 0.04600
C 	C 	0.86900 0.62530 0.97908 0.01000
H 	H 	0.78120 0.61100 0.96620 0.02100
C 	C 	0.04080 0.68134 0.03748 0.08500
H 	H 	0.09680 0.71250 0.07290 -0.00700
C 	C 	0.24120 0.73761 0.85514 -0.14200
H 	H 	0.26350 0.76790 0.90630 0.08100
H 	H 	0.30040 0.75480 0.81330 0.07200
C 	C 	0.01280 0.79546 0.86838 -0.00900
H 	H 	0.02140 0.80970 0.92520 0.03800
C 	C 	0.90710 0.80795 0.81373 0.00700
H 	H 	0.82910 0.83260 0.82710 0.01200
C 	C 	0.05200 0.75020 0.74437 0.09400
H 	H 	0.09540 0.72730 0.70070 -0.01100
C 	C 	0.41980 0.63697 0.87776 -0.15200
H 	H 	0.43960 0.58330 0.89760 0.08200
H 	H 	0.44730 0.64080 0.82050 0.07500
C 	C 	0.56020 0.75960 0.90310 -0.01500
H 	H 	0.54650 0.78290 0.85000 0.02300
C 	C 	0.64290 0.78534 0.96762 0.00300
H 	H 	0.69510 0.83090 0.96660 0.02400
C 	C 	0.55200 0.67989 0.01058 0.07800
H 	H 	0.52870 0.63740 0.04420 -0.01000
C 	C 	0.87250 0.90065 0.14678 0.39900
C 	C 	0.93610 0.97220 0.10796 -0.34600
H 	H 	0.87600 0.01700 0.11000 0.13400
H 	H 	0.01560 0.98570 0.14280 0.13300
C 	C 	0.97230 0.96249 0.01877 0.00100
H 	H 	0.89420 0.94610 0.98400 0.03100
H 	H 	0.03730 0.92020 0.01690 0.02900
O 	O 	0.86078 0.83816 0.10217 -0.43200
O 	O 	0.83536 0.90815 0.21990 -0.31300
N 	N 	0.25498 0.51488 0.80017 -0.10400
N 	N 	0.27031 0.38705 0.83324 -0.23900
N 	N 	0.08203 0.63567 0.97473 -0.09900
N 	N 	0.91161 0.67672 0.04284 -0.21900
N 	N 	0.10503 0.75787 0.82413 -0.10400
N 	N 	0.93120 0.77904 0.73555 -0.23100
N 	N 	0.50037 0.69249 0.93090 -0.10600
N 	N 	0.63894 0.73469 0.03500 -0.23200
Ni	Ni	0.79001 0.77275 0.63237 1.05800
C 	C 	0.36430 0.01412 0.26396 -0.02200
H 	H 	0.42120 0.98580 0.23160 0.03400
C 	C 	0.37230 0.09230 0.28482 0.00600
H 	H 	0.43750 0.12710 0.26880 0.00400
C 	C 	0.20260 0.04677 0.34068 0.08100
H 	H 	0.12720 0.04300 0.37050 -0.00400
C 	C 	0.21060 0.90184 0.29844 -0.15400
H 	H 	0.11480 0.90090 0.29740 0.09100
H 	H 	0.23570 0.87730 0.24650 0.07600
C 	C 	0.26760 0.85126 0.37434 0.12200
C 	C 	0.22190 0.87775 0.45953 -0.14500
H 	H 	0.23990 0.93430 0.46580 0.07900
H 	H 	0.27580 0.85040 0.50360 0.07700
C 	C 	0.97140 0.90149 0.43790 -0.00800
H 	H 	0.96820 0.93780 0.39350 0.04700
C 	C 	0.86900 0.87470 0.47908 0.01200
H 	H 	0.78120 0.88900 0.46620 0.02100
C 	C 	0.04080 0.81866 0.53748 0.08800
H 	H 	0.09680 0.78750 0.57290 -0.00700
C 	C 	0.24120 0.76239 0.35514 -0.14300
H 	H 	0.26350 0.73210 0.40630 0.08100
H 	H 	0.30040 0.74520 0.31330 0.07200
C 	C 	0.01280 0.70454 0.36838 -0.01200
H 	H 	0.02140 0.69030 0.42520 0.03900
C 	C 	0.90710 0.69205 0.31373 0.01000
H 	H 	0.82910 0.66740 0.32710 0.01100
C 	C 	0.05200 0.74980 0.24437 0.09200
H 	H 	0.09540 0.77270 0.20070 -0.01000
C 	C 	0.41980 0.86303 0.37776 -0.15300
H 	H 	0.43960 0.91670 0.39760 0.08200
H 	H 	0.44730 0.85920 0.32050 0.07500
C 	C 	0.56020 0.74040 0.40310 -0.01500
H 	H 	0.54650 0.71710 0.35000 0.02300
C 	C 	0.64290 0.71466 0.46762 0.00400
H 	H 	0.69510 0.66910 0.46660 0.02400
C 	C 	0.55200 0.82011 0.51058 0.07700
H 	H 	0.52870 0.86260 0.54420 -0.01000
C 	C 	0.87250 0.59935 0.64678 0.40200
C 	C 	0.93610 0.52780 0.60796 -0.36000
H 	H 	0.87600 0.48300 0.61000 0.13900
H 	H 	0.01560 0.51430 0.64280 0.14000
C 	C 	0.97230 0.53751 0.51877 -0.00500
H 	H 	0.89420 0.55390 0.48400 0.03500
H 	H 	0.03730 0.57980 0.51690 0.03300
O 	O 	0.86078 0.66184 0.60217 -0.43400
O 	O 	0.83536 0.59185 0.71990 -0.31500
N 	N 	0.25498 0.98512 0.30017 -0.10400
N 	N 	0.27031 0.11295 0.33324 -0.23900
N 	N 	0.08203 0.86433 0.47473 -0.10100
N 	N 	0.91161 0.82328 0.54284 -0.22100
N 	N 	0.10503 0.74213 0.32413 -0.10300
N 	N 	0.93120 0.72096 0.23555 -0.23100
N 	N 	0.50037 0.80751 0.43090 -0.10500
N 	N 	0.63894 0.76531 0.53500 -0.23300
Ni	Ni	0.20999 0.27275 0.86763 1.05800
C 	C 	0.63570 0.51412 0.23604 -0.02300
H 	H 	0.57880 0.48580 0.26840 0.03400
C 	C 	0.62770 0.59230 0.21518 0.00700
H 	H 	0.56250 0.62710 0.23120 0.00400
C 	C 	0.79740 0.54677 0.15932 0.08100
H 	H 	0.87280 0.54300 0.12950 -0.00300
C 	C 	0.78940 0.40184 0.20156 -0.15400
H 	H 	0.88520 0.40090 0.20260 0.09200
H 	H 	0.76430 0.37730 0.25350 0.07600
C 	C 	0.73240 0.35126 0.12566 0.12200
C 	C 	0.77810 0.37775 0.04047 -0.14400
H 	H 	0.76010 0.43430 0.03420 0.07900
H 	H 	0.72420 0.35040 0.99640 0.07600
C 	C 	0.02860 0.40149 0.06210 -0.01100
H 	H 	0.03180 0.43780 0.10650 0.04600
C 	C 	0.13100 0.37470 0.02092 0.01000
H 	H 	0.21880 0.38900 0.03380 0.02100
C 	C 	0.95920 0.31866 0.96252 0.08500
H 	H 	0.90320 0.28750 0.92710 -0.00700
C 	C 	0.75880 0.26239 0.14486 -0.14200
H 	H 	0.73650 0.23210 0.09370 0.08100
H 	H 	0.69960 0.24520 0.18670 0.07200
C 	C 	0.98720 0.20454 0.13162 -0.00900
H 	H 	0.97860 0.19030 0.07480 0.03800
C 	C 	0.09290 0.19205 0.18627 0.00700
H 	H 	0.17090 0.16740 0.17290 0.01200
C 	C 	0.94800 0.24980 0.25563 0.09400
H 	H 	0.90460 0.27270 0.29930 -0.01100
C 	C 	0.58020 0.36303 0.12224 -0.15200
H 	H 	0.56040 0.41670 0.10240 0.08200
H 	H 	0.55270 0.35920 0.17950 0.07500
C 	C 	0.43980 0.24040 0.09690 -0.01500
H 	H 	0.45350 0.21710 0.15000 0.02300
C 	C 	0.35710 0.21466 0.03238 0.00300
H 	H 	0.30490 0.16910 0.03340 0.02400
C 	C 	0.44800 0.32011 0.98942 0.07800
H 	H 	0.47130 0.36260 0.95580 -0.01000
C 	C 	0.12750 0.09935 0.85322 0.39900
C 	C 	0.06390 0.02780 0.89204 -0.34600
H 	H 	0.12400 0.98300 0.89000 0.13400
H 	H 	0.98440 0.01430 0.85720 0.13300
C 	C 	0.02770 0.03751 0.98123 0.00100
H 	H 	0.10580 0.05390 0.01600 0.03100
H 	H 	0.96270 0.07980 0.98310 0.02900
O 	O 	0.13922 0.16184 0.89783 -0.43200
O 	O 	0.16464 0.09185 0.78010 -0.31300
N 	N 	0.74502 0.48512 0.19983 -0.10400
N 	N 	0.72969 0.61295 0.16676 -0.23900
N 	N 	0.91797 0.36433 0.02527 -0.09900
N 	N 	0.08839 0.32328 0.95716 -0.21900
N 	N 	0.89497 0.24213 0.17587 -0.10400
N 	N 	0.06880 0.22096 0.26445 -0.23100
N 	N 	0.49963 0.30751 0.06910 -0.10600
N 	N 	0.36106 0.26531 0.96500 -0.23200
