data_crystal

_cell_length_a 9.59030
_cell_length_b 10.18060
_cell_length_c 20.28050
_cell_angle_alpha 102.76500
_cell_angle_beta  90.00000
_cell_angle_gamma 90.00000

_symmetry_space_group_name_	'P 1'
_symmetry_space_group_name_H-M	'P 1'

loop_
_symmetry_equiv_pos_as_xyz
  x,y,z

loop_
_atom_site_label
_atom_site_type_symbol
_atom_site_fract_x
_atom_site_fract_y
_atom_site_fract_z
_atom_site_charge
Nd	Nd	0.43038 0.76885 0.79799 2.25100
Nd	Nd	0.93038 0.73115 0.70201 2.24700
Nd	Nd	0.56962 0.23115 0.20201 2.25100
Nd	Nd	0.06962 0.26885 0.29799 2.24700
Zn	Zn	0.86146 0.30099 0.66342 1.17500
Zn	Zn	0.36146 0.19901 0.83658 1.17500
Zn	Zn	0.13854 0.69901 0.33658 1.17500
Zn	Zn	0.63854 0.80099 0.16342 1.17500
H 	H 	0.00620 0.94080 0.15260 -0.02800
H 	H 	0.90020 0.82080 0.05590 0.05200
H 	H 	0.01970 0.77860 0.95450 -0.00300
H 	H 	0.34970 0.98200 0.04680 0.00000
H 	H 	0.62420 0.10420 0.72100 -0.04500
H 	H 	0.50620 0.55920 0.34740 -0.03100
H 	H 	0.40020 0.67920 0.44410 0.05700
H 	H 	0.51970 0.72140 0.54550 -0.00700
H 	H 	0.84970 0.51800 0.45320 -0.00200
H 	H 	0.12420 0.39580 0.77900 -0.04400
H 	H 	0.99380 0.05920 0.84740 -0.02800
H 	H 	0.09980 0.17920 0.94410 0.05200
H 	H 	0.98030 0.22140 0.04550 -0.00300
H 	H 	0.65030 0.01800 0.95320 0.00000
H 	H 	0.37580 0.89580 0.27900 -0.04500
H 	H 	0.49380 0.44080 0.65260 -0.03100
H 	H 	0.59980 0.32080 0.55590 0.05700
H 	H 	0.48030 0.27860 0.45450 -0.00700
H 	H 	0.15030 0.48200 0.54680 -0.00200
H 	H 	0.87580 0.60420 0.22100 -0.04400
C 	C 	0.18820 0.97290 0.11010 -0.23800
C 	C 	0.05440 0.92450 0.11180 0.10800
C 	C 	0.99080 0.85240 0.05400 -0.16600
C 	C 	0.06200 0.82750 0.99350 0.08500
C 	C 	0.19600 0.87508 0.99078 -0.15700
C 	C 	0.25980 0.94889 0.04889 0.10100
C 	C 	0.27450 0.84546 0.92526 0.34200
C 	C 	0.25650 0.05092 0.17412 0.52600
C 	C 	0.70650 0.53293 0.73893 0.39000
C 	C 	0.64120 0.41176 0.75316 -0.08600
C 	C 	0.53890 0.38684 0.79624 -0.06400
C 	C 	0.45190 0.47305 0.84855 0.35300
C 	C 	0.61370 0.19630 0.73780 0.12900
C 	C 	0.68820 0.52710 0.38990 -0.24300
C 	C 	0.55440 0.57550 0.38820 0.12200
C 	C 	0.49080 0.64760 0.44600 -0.18000
C 	C 	0.56200 0.67250 0.50650 0.09400
C 	C 	0.69600 0.62492 0.50922 -0.16600
C 	C 	0.75980 0.55111 0.45111 0.11100
C 	C 	0.77450 0.65454 0.57474 0.34500
C 	C 	0.75650 0.44908 0.32588 0.52700
C 	C 	0.20650 0.96707 0.76107 0.39100
C 	C 	0.14120 0.08824 0.74684 -0.08700
C 	C 	0.03890 0.11316 0.70376 -0.06100
C 	C 	0.95190 0.02695 0.65145 0.34900
C 	C 	0.11370 0.30370 0.76220 0.12900
C 	C 	0.81180 0.02710 0.88990 -0.23800
C 	C 	0.94560 0.07550 0.88820 0.10800
C 	C 	0.00920 0.14760 0.94600 -0.16600
C 	C 	0.93800 0.17250 0.00650 0.08500
C 	C 	0.80400 0.12492 0.00922 -0.15700
C 	C 	0.74020 0.05111 0.95111 0.10100
C 	C 	0.72550 0.15454 0.07474 0.34200
C 	C 	0.74350 0.94908 0.82588 0.52600
C 	C 	0.29350 0.46707 0.26107 0.39000
C 	C 	0.35880 0.58824 0.24684 -0.08600
C 	C 	0.46110 0.61316 0.20376 -0.06400
C 	C 	0.54810 0.52695 0.15145 0.35300
C 	C 	0.38630 0.80370 0.26220 0.12900
C 	C 	0.31180 0.47290 0.61010 -0.24300
C 	C 	0.44560 0.42450 0.61180 0.12200
C 	C 	0.50920 0.35240 0.55400 -0.18000
C 	C 	0.43800 0.32750 0.49350 0.09400
C 	C 	0.30400 0.37508 0.49078 -0.16600
C 	C 	0.24020 0.44889 0.54889 0.11100
C 	C 	0.22550 0.34546 0.42526 0.34500
C 	C 	0.24350 0.55092 0.67412 0.52700
C 	C 	0.79350 0.03293 0.23893 0.39100
C 	C 	0.85880 0.91176 0.25316 -0.08700
C 	C 	0.96110 0.88684 0.29624 -0.06100
C 	C 	0.04810 0.97305 0.34855 0.34900
C 	C 	0.88630 0.69630 0.23780 0.12900
N 	N 	0.68780 0.28944 0.71624 -0.26200
N 	N 	0.52300 0.24954 0.78604 -0.27600
N 	N 	0.18780 0.21056 0.78376 -0.26200
N 	N 	0.02300 0.25046 0.71396 -0.27600
N 	N 	0.31220 0.71056 0.28376 -0.26200
N 	N 	0.47700 0.75046 0.21396 -0.27600
N 	N 	0.81220 0.78944 0.21624 -0.26200
N 	N 	0.97700 0.74954 0.28604 -0.27600
O 	O 	0.21890 0.77228 0.87328 -0.45100
O 	O 	0.39630 0.89212 0.92202 -0.43200
O 	O 	0.38270 0.07811 0.17111 -0.60100
O 	O 	0.18190 0.08249 0.22669 -0.58900
O 	O 	0.65960 0.64842 0.75942 -0.55600
O 	O 	0.81750 0.51053 0.70283 -0.64800
O 	O 	0.47160 0.59926 0.86296 -0.47300
O 	O 	0.36350 0.41436 0.87776 -0.43800
O 	O 	0.71890 0.72772 0.62672 -0.45200
O 	O 	0.89630 0.60788 0.57798 -0.43300
O 	O 	0.88270 0.42189 0.32889 -0.59900
O 	O 	0.68190 0.41751 0.27331 -0.59000
O 	O 	0.15960 0.85158 0.74058 -0.55500
O 	O 	0.31750 0.98947 0.79717 -0.64800
O 	O 	0.97160 0.90074 0.63704 -0.47200
O 	O 	0.86350 0.08564 0.62224 -0.43800
O 	O 	0.78110 0.22772 0.12672 -0.45100
O 	O 	0.60370 0.10788 0.07798 -0.43200
O 	O 	0.61730 0.92189 0.82889 -0.60100
O 	O 	0.81810 0.91751 0.77331 -0.58900
O 	O 	0.34040 0.35158 0.24058 -0.55600
O 	O 	0.18250 0.48947 0.29717 -0.64800
O 	O 	0.52840 0.40074 0.13704 -0.47300
O 	O 	0.63650 0.58564 0.12224 -0.43800
O 	O 	0.28110 0.27228 0.37328 -0.45200
O 	O 	0.10370 0.39212 0.42202 -0.43300
O 	O 	0.11730 0.57811 0.67111 -0.59900
O 	O 	0.31810 0.58249 0.72669 -0.59000
O 	O 	0.84040 0.14842 0.25942 -0.55500
O 	O 	0.68250 0.01053 0.20283 -0.64800
O 	O 	0.02840 0.09926 0.36296 -0.47200
O 	O 	0.13650 0.91436 0.37776 -0.43800
