data_crystal

_cell_length_a 10.91800
_cell_length_b 11.23100
_cell_length_c 14.57700
_cell_angle_alpha 112.00600
_cell_angle_beta  107.77100
_cell_angle_gamma 90.50900

_symmetry_space_group_name_	'P 1'
_symmetry_space_group_name_H-M	'P 1'

loop_
_symmetry_equiv_pos_as_xyz
  x,y,z

loop_
_atom_site_label
_atom_site_type_symbol
_atom_site_fract_x
_atom_site_fract_y
_atom_site_fract_z
_atom_site_charge
Zn	Zn	0.93623 0.05528 0.09797 1.19900
Zn	Zn	0.50878 0.98673 0.78807 1.19500
Zn	Zn	0.66069 0.51255 0.50290 1.15700
Zn	Zn	0.66066 0.50711 0.00556 1.15800
O 	O 	0.46410 0.82050 0.11790 -0.49400
O 	O 	0.49880 0.62280 0.02800 -0.61100
O 	O 	0.58870 0.07850 0.13740 -0.41100
O 	O 	0.77710 0.13020 0.12720 -0.42500
O 	O 	0.89320 0.01450 0.94240 -0.54500
O 	O 	0.67850 0.97270 0.88640 -0.44100
O 	O 	0.49110 0.79520 0.68380 -0.50000
O 	O 	0.52170 0.60240 0.58350 -0.62100
N 	N 	0.73890 0.69880 0.04780 -0.25600
N 	N 	0.84420 0.89230 0.09010 -0.24900
N 	N 	0.18350 0.59960 0.00650 -0.25500
N 	N 	0.77580 0.67000 0.63430 -0.26200
N 	N 	0.91810 0.82560 0.77580 -0.25500
N 	N 	0.21010 0.57200 0.57620 -0.27400
C 	C 	0.53190 0.74670 0.07470 0.37200
C 	C 	0.66080 0.79150 0.07550 -0.09500
C 	C 	0.72510 0.91150 0.10050 -0.05000
C 	C 	0.69340 0.04880 0.12410 0.30300
C 	C 	0.84940 0.76480 0.05820 0.10000
C 	C 	0.96370 0.70740 0.03870 -0.06200
C 	C 	0.08380 0.74900 0.11690 -0.07200
H 	H 	0.09260 0.81460 0.18360 0.01900
C 	C 	0.19060 0.69430 0.09720 0.03800
H 	H 	0.27290 0.72580 0.15090 -0.03800
C 	C 	0.06820 0.56350 0.92760 -0.00100
H 	H 	0.06350 0.50160 0.86050 -0.02000
C 	C 	0.95610 0.61430 0.94170 -0.05600
H 	H 	0.87570 0.58550 0.88560 0.01200
C 	C 	0.78390 0.95170 0.87260 0.32000
C 	C 	0.79510 0.84680 0.77800 -0.07400
C 	C 	0.70850 0.75140 0.69300 -0.10100
C 	C 	0.56360 0.71750 0.65270 0.36700
C 	C 	0.90110 0.71930 0.68860 0.09600
C 	C 	0.00960 0.66850 0.65170 -0.03000
C 	C 	0.03500 0.54270 0.63700 -0.10100
H 	H 	0.98490 0.48800 0.65250 0.02800
C 	C 	0.13590 0.49900 0.59900 0.04700
H 	H 	0.15290 0.41300 0.58860 -0.04700
C 	C 	0.18650 0.69390 0.59250 0.05100
H 	H 	0.23790 0.74600 0.57570 -0.04400
C 	C 	0.09150 0.74690 0.63230 -0.09500
H 	H 	0.08130 0.83530 0.64660 0.02000
Zn	Zn	0.06377 0.94472 0.90203 1.20000
Zn	Zn	0.49122 0.01327 0.21193 1.19600
Zn	Zn	0.33931 0.48745 0.49710 1.15800
Zn	Zn	0.33934 0.49289 0.99444 1.15900
O 	O 	0.53590 0.17950 0.88210 -0.49300
O 	O 	0.50120 0.37720 0.97200 -0.61000
O 	O 	0.41130 0.92150 0.86260 -0.41100
O 	O 	0.22290 0.86980 0.87280 -0.42500
O 	O 	0.10680 0.98550 0.05760 -0.54500
O 	O 	0.32150 0.02730 0.11360 -0.44100
O 	O 	0.50890 0.20480 0.31620 -0.50000
O 	O 	0.47830 0.39760 0.41650 -0.62100
N 	N 	0.26110 0.30120 0.95220 -0.25600
N 	N 	0.15580 0.10770 0.90990 -0.24900
N 	N 	0.81650 0.40040 0.99350 -0.25500
N 	N 	0.22420 0.33000 0.36570 -0.26200
N 	N 	0.08190 0.17440 0.22420 -0.25500
N 	N 	0.78990 0.42800 0.42380 -0.27400
C 	C 	0.46810 0.25330 0.92530 0.37200
C 	C 	0.33920 0.20850 0.92450 -0.09500
C 	C 	0.27490 0.08850 0.89950 -0.05000
C 	C 	0.30660 0.95120 0.87590 0.30300
C 	C 	0.15060 0.23520 0.94180 0.10000
C 	C 	0.03630 0.29260 0.96130 -0.06200
C 	C 	0.91620 0.25100 0.88310 -0.07200
H 	H 	0.90740 0.18540 0.81640 0.01900
C 	C 	0.80940 0.30570 0.90280 0.03800
H 	H 	0.72710 0.27420 0.84910 -0.03800
C 	C 	0.93180 0.43650 0.07240 -0.00100
H 	H 	0.93650 0.49840 0.13950 -0.02000
C 	C 	0.04390 0.38570 0.05830 -0.05600
H 	H 	0.12430 0.41450 0.11440 0.01200
C 	C 	0.21610 0.04830 0.12740 0.32000
C 	C 	0.20490 0.15320 0.22200 -0.07400
C 	C 	0.29150 0.24860 0.30700 -0.10100
C 	C 	0.43640 0.28250 0.34730 0.36700
C 	C 	0.09890 0.28070 0.31140 0.09600
C 	C 	0.99040 0.33150 0.34830 -0.03000
C 	C 	0.96500 0.45730 0.36300 -0.10100
H 	H 	0.01510 0.51200 0.34750 0.02800
C 	C 	0.86410 0.50100 0.40100 0.04700
H 	H 	0.84710 0.58700 0.41140 -0.04700
C 	C 	0.81350 0.30610 0.40750 0.05100
H 	H 	0.76210 0.25400 0.42430 -0.04400
C 	C 	0.90850 0.25310 0.36770 -0.09500
H 	H 	0.91870 0.16470 0.35340 0.02000
