data_crystal

_cell_length_a 9.67620
_cell_length_b 10.99490
_cell_length_c 11.49600
_cell_angle_alpha 104.93100
_cell_angle_beta  90.78500
_cell_angle_gamma 114.24700

_symmetry_space_group_name_	'P 1'
_symmetry_space_group_name_H-M	'P 1'

loop_
_symmetry_equiv_pos_as_xyz
  x,y,z

loop_
_atom_site_label
_atom_site_type_symbol
_atom_site_fract_x
_atom_site_fract_y
_atom_site_fract_z
_atom_site_charge
Er	Er	0.01754 0.92442 0.82953 1.63800
Er	Er	0.99326 0.49249 0.75322 1.63400
Er	Er	0.98246 0.07558 0.17047 1.63800
Er	Er	0.00674 0.50751 0.24678 1.63400
H 	H 	0.50530 0.18300 0.15540 0.04600
H 	H 	0.51190 0.71790 0.09300 0.04400
H 	H 	0.40890 0.29340 0.34470 0.04500
H 	H 	0.49470 0.81700 0.84460 0.04600
H 	H 	0.48810 0.28210 0.90700 0.04400
H 	H 	0.59110 0.70660 0.65530 0.04500
C 	C 	0.22810 0.99800 0.10110 0.33600
C 	C 	0.36410 0.99380 0.04570 -0.06500
C 	C 	0.50310 0.10890 0.09290 0.00300
C 	C 	0.36050 0.88350 0.95090 -0.09100
C 	C 	0.75910 0.75410 0.99100 0.44100
C 	C 	0.62730 0.62010 0.99500 -0.09900
C 	C 	0.50630 0.63010 0.05500 0.01400
C 	C 	0.21730 0.75080 0.89260 0.36400
C 	C 	0.70770 0.38370 0.39890 0.40000
C 	C 	0.65480 0.56400 0.55120 -0.10000
C 	C 	0.44600 0.37720 0.40640 0.02000
C 	C 	0.59940 0.44100 0.45430 -0.06500
C 	C 	0.81400 0.63090 0.61370 0.46400
C 	C 	0.75010 0.46910 0.88270 0.31400
C 	C 	0.62180 0.48680 0.94030 -0.04300
C 	C 	0.77190 0.00200 0.89890 0.33600
C 	C 	0.63590 0.00620 0.95430 -0.06500
C 	C 	0.49690 0.89110 0.90710 0.00300
C 	C 	0.63950 0.11650 0.04910 -0.09100
C 	C 	0.24090 0.24590 0.00900 0.44100
C 	C 	0.37270 0.37990 0.00500 -0.09900
C 	C 	0.49370 0.36990 0.94500 0.01400
C 	C 	0.78270 0.24920 0.10740 0.36400
C 	C 	0.29230 0.61630 0.60110 0.40000
C 	C 	0.34520 0.43600 0.44880 -0.10000
C 	C 	0.55400 0.62280 0.59360 0.02000
C 	C 	0.40060 0.55900 0.54570 -0.06500
C 	C 	0.18600 0.36910 0.38630 0.46400
C 	C 	0.24990 0.53090 0.11730 0.31400
C 	C 	0.37820 0.51320 0.05970 -0.04300
O 	O 	0.72480 0.37610 0.78440 -0.39200
O 	O 	0.88700 0.54820 0.93140 -0.40900
O 	O 	0.81950 0.46720 0.36270 -0.48500
O 	O 	0.21760 0.63860 0.89750 -0.41500
O 	O 	0.10630 0.75120 0.83300 -0.51500
O 	O 	0.86870 0.54950 0.62870 -0.49700
O 	O 	0.88490 0.76120 0.64680 -0.48300
O 	O 	0.81380 0.75860 0.89410 -0.43700
O 	O 	0.79490 0.85220 0.08720 -0.48800
O 	O 	0.24110 0.05770 0.21060 -0.36200
O 	O 	0.09800 0.94640 0.03350 -0.51300
O 	O 	0.67890 0.26030 0.38830 -0.30400
O 	O 	0.27520 0.62390 0.21560 -0.39200
O 	O 	0.11300 0.45180 0.06860 -0.40900
O 	O 	0.18050 0.53280 0.63730 -0.48500
O 	O 	0.78240 0.36140 0.10250 -0.41500
O 	O 	0.89370 0.24880 0.16700 -0.51500
O 	O 	0.13130 0.45050 0.37130 -0.49700
O 	O 	0.11510 0.23880 0.35320 -0.48300
O 	O 	0.18620 0.24140 0.10590 -0.43700
O 	O 	0.20510 0.14780 0.91280 -0.48800
O 	O 	0.75890 0.94230 0.78940 -0.36200
O 	O 	0.90200 0.05360 0.96650 -0.51300
O 	O 	0.32110 0.73970 0.61170 -0.30400
