data_crystal

_cell_length_a 17.85700
_cell_length_b 19.72000
_cell_length_c 7.92300
_cell_angle_alpha 90.00000
_cell_angle_beta  106.57100
_cell_angle_gamma 90.00000

_symmetry_space_group_name_	'P 1'
_symmetry_space_group_name_H-M	'P 1'

loop_
_symmetry_equiv_pos_as_xyz
  x,y,z

loop_
_atom_site_label
_atom_site_type_symbol
_atom_site_fract_x
_atom_site_fract_y
_atom_site_fract_z
_atom_site_charge
C 	C 	0.11480 0.25840 0.49640 0.00600
H 	H 	0.06620 0.25260 0.41450 0.02900
C 	C 	0.15520 0.21040 0.60630 0.00500
H 	H 	0.13970 0.16570 0.61270 0.03800
C 	C 	0.22310 0.30440 0.65240 0.10500
H 	H 	0.26290 0.33570 0.69640 0.01200
C 	C 	0.28350 0.20770 0.84370 0.18800
C 	C 	0.27090 0.14220 0.89550 -0.23100
H 	H 	0.22510 0.11870 0.84170 0.12900
C 	C 	0.33000 0.11310 0.03160 0.13500
H 	H 	0.32250 0.06970 0.06960 0.00500
C 	C 	0.39790 0.14570 0.11040 -0.19800
C 	C 	0.40940 0.21030 0.05300 0.14400
H 	H 	0.45620 0.23280 0.10400 -0.00500
C 	C 	0.35270 0.24140 0.92210 -0.22700
H 	H 	0.36080 0.28500 0.88590 0.12100
C 	C 	0.46010 0.11280 0.25250 0.41400
Cu	Cu	0.12805 0.40777 0.42454 0.90500
N 	N 	0.15790 0.31742 0.52640 -0.20700
N 	N 	0.22390 0.23960 0.70820 -0.15000
O 	O 	0.53004 0.13027 0.27650 -0.42300
O 	O 	0.43725 0.06743 0.34160 -0.47500
O 	O 	0.23218 0.43915 0.53600 -0.44600
C 	C 	0.61480 0.75840 0.49640 0.00700
H 	H 	0.56620 0.75260 0.41450 0.03700
C 	C 	0.65520 0.71040 0.60630 0.00800
H 	H 	0.63970 0.66570 0.61270 0.04100
C 	C 	0.72310 0.80440 0.65240 0.10500
H 	H 	0.76290 0.83570 0.69640 0.01400
C 	C 	0.78350 0.70770 0.84370 0.19000
C 	C 	0.77090 0.64220 0.89550 -0.23300
H 	H 	0.72510 0.61870 0.84170 0.13200
C 	C 	0.83000 0.61310 0.03160 0.13800
H 	H 	0.82250 0.56970 0.06960 0.00600
C 	C 	0.89790 0.64570 0.11040 -0.20500
C 	C 	0.90940 0.71030 0.05300 0.14900
H 	H 	0.95620 0.73280 0.10400 0.00400
C 	C 	0.85270 0.74140 0.92210 -0.22800
H 	H 	0.86080 0.78500 0.88590 0.12600
C 	C 	0.96010 0.61280 0.25250 0.45000
Cu	Cu	0.62805 0.90777 0.42454 0.90800
N 	N 	0.65790 0.81742 0.52640 -0.20700
N 	N 	0.72390 0.73960 0.70820 -0.15100
O 	O 	0.03004 0.63027 0.27650 -0.45100
O 	O 	0.93725 0.56743 0.34160 -0.47000
O 	O 	0.73218 0.93915 0.53600 -0.43100
C 	C 	0.88520 0.25840 0.50360 0.00600
H 	H 	0.93380 0.25260 0.58550 0.04500
C 	C 	0.84480 0.21040 0.39370 0.01000
H 	H 	0.86030 0.16570 0.38730 0.04300
C 	C 	0.77690 0.30440 0.34760 0.10600
H 	H 	0.73710 0.33570 0.30360 0.01200
C 	C 	0.71650 0.20770 0.15630 0.19300
C 	C 	0.72910 0.14220 0.10450 -0.23900
H 	H 	0.77490 0.11870 0.15830 0.13500
C 	C 	0.67000 0.11310 0.96840 0.14300
H 	H 	0.67750 0.06970 0.93040 0.00300
C 	C 	0.60210 0.14570 0.88960 -0.20300
C 	C 	0.59060 0.21030 0.94700 0.15200
H 	H 	0.54380 0.23280 0.89600 -0.00700
C 	C 	0.64730 0.24140 0.07790 -0.23500
H 	H 	0.63920 0.28500 0.11410 0.12300
C 	C 	0.53990 0.11280 0.74750 0.41600
Cu	Cu	0.87195 0.40777 0.57546 0.90600
N 	N 	0.84210 0.31742 0.47360 -0.20600
N 	N 	0.77610 0.23960 0.29180 -0.15200
O 	O 	0.46996 0.13027 0.72350 -0.42300
O 	O 	0.56275 0.06743 0.65840 -0.47500
O 	O 	0.76782 0.43915 0.46400 -0.44600
C 	C 	0.38520 0.75840 0.50360 0.00700
H 	H 	0.43380 0.75260 0.58550 0.03700
C 	C 	0.34480 0.71040 0.39370 0.00700
H 	H 	0.36030 0.66570 0.38730 0.04100
C 	C 	0.27690 0.80440 0.34760 0.10500
H 	H 	0.23710 0.83570 0.30360 0.01200
C 	C 	0.21650 0.70770 0.15630 0.18500
C 	C 	0.22910 0.64220 0.10450 -0.22600
H 	H 	0.27490 0.61870 0.15830 0.13000
C 	C 	0.17000 0.61310 0.96840 0.12600
H 	H 	0.17750 0.56970 0.93040 0.01100
C 	C 	0.10210 0.64570 0.88960 -0.18600
C 	C 	0.09060 0.71030 0.94700 0.13400
H 	H 	0.04380 0.73280 0.89600 -0.01100
C 	C 	0.14730 0.74140 0.07790 -0.22300
H 	H 	0.13920 0.78500 0.11410 0.11800
C 	C 	0.03990 0.61280 0.74750 0.37500
Cu	Cu	0.37195 0.90777 0.57546 0.90800
N 	N 	0.34210 0.81742 0.47360 -0.20700
N 	N 	0.27610 0.73960 0.29180 -0.15000
O 	O 	0.96996 0.63027 0.72350 -0.39100
O 	O 	0.06275 0.56743 0.65840 -0.46800
O 	O 	0.26782 0.93915 0.46400 -0.43300
C 	C 	0.88520 0.74160 0.50360 0.00700
H 	H 	0.93380 0.74740 0.58550 0.04500
C 	C 	0.84480 0.78960 0.39370 0.01000
H 	H 	0.86030 0.83430 0.38730 0.04600
C 	C 	0.77690 0.69560 0.34760 0.10600
H 	H 	0.73710 0.66430 0.30360 0.01200
C 	C 	0.71650 0.79230 0.15630 0.19200
C 	C 	0.72910 0.85780 0.10450 -0.23600
H 	H 	0.77490 0.88130 0.15830 0.13700
C 	C 	0.67000 0.88690 0.96840 0.14000
H 	H 	0.67750 0.93030 0.93040 0.01100
C 	C 	0.60210 0.85430 0.88960 -0.19900
C 	C 	0.59060 0.78970 0.94700 0.14900
H 	H 	0.54380 0.76720 0.89600 -0.00700
C 	C 	0.64730 0.75860 0.07790 -0.23300
H 	H 	0.63920 0.71500 0.11410 0.12300
C 	C 	0.53990 0.88720 0.74750 0.41500
Cu	Cu	0.87195 0.59223 0.57546 0.90600
N 	N 	0.84210 0.68258 0.47360 -0.20600
N 	N 	0.77610 0.76040 0.29180 -0.15100
O 	O 	0.46996 0.86973 0.72350 -0.42000
O 	O 	0.56275 0.93257 0.65840 -0.46500
O 	O 	0.76782 0.56085 0.46400 -0.44600
C 	C 	0.38520 0.24160 0.50360 0.00700
H 	H 	0.43380 0.24740 0.58550 0.03700
C 	C 	0.34480 0.28960 0.39370 0.00700
H 	H 	0.36030 0.33430 0.38730 0.04100
C 	C 	0.27690 0.19560 0.34760 0.10500
H 	H 	0.23710 0.16430 0.30360 0.01100
C 	C 	0.21650 0.29230 0.15630 0.18400
C 	C 	0.22910 0.35780 0.10450 -0.22600
H 	H 	0.27490 0.38130 0.15830 0.13000
C 	C 	0.17000 0.38690 0.96840 0.12600
H 	H 	0.17750 0.43030 0.93040 0.01100
C 	C 	0.10210 0.35430 0.88960 -0.18600
C 	C 	0.09060 0.28970 0.94700 0.13400
H 	H 	0.04380 0.26720 0.89600 -0.01200
C 	C 	0.14730 0.25860 0.07790 -0.22300
H 	H 	0.13920 0.21500 0.11410 0.11600
C 	C 	0.03990 0.38720 0.74750 0.37500
Cu	Cu	0.37195 0.09223 0.57546 0.90500
N 	N 	0.34210 0.18258 0.47360 -0.20700
N 	N 	0.27610 0.26040 0.29180 -0.15000
O 	O 	0.96996 0.36973 0.72350 -0.39100
O 	O 	0.06275 0.43257 0.65840 -0.46800
O 	O 	0.26782 0.06085 0.46400 -0.44500
C 	C 	0.11480 0.74160 0.49640 0.00800
H 	H 	0.06620 0.74740 0.41450 0.03000
C 	C 	0.15520 0.78960 0.60630 0.00500
H 	H 	0.13970 0.83430 0.61270 0.04100
C 	C 	0.22310 0.69560 0.65240 0.10500
H 	H 	0.26290 0.66430 0.69640 0.01200
C 	C 	0.28350 0.79230 0.84370 0.18700
C 	C 	0.27090 0.85780 0.89550 -0.22800
H 	H 	0.22510 0.88130 0.84170 0.13200
C 	C 	0.33000 0.88690 0.03160 0.13200
H 	H 	0.32250 0.93030 0.06960 0.01200
C 	C 	0.39790 0.85430 0.11040 -0.19400
C 	C 	0.40940 0.78970 0.05300 0.14100
H 	H 	0.45620 0.76720 0.10400 -0.00400
C 	C 	0.35270 0.75860 0.92210 -0.22500
H 	H 	0.36080 0.71500 0.88590 0.12000
C 	C 	0.46010 0.88720 0.25250 0.41300
Cu	Cu	0.12805 0.59223 0.42454 0.90500
N 	N 	0.15790 0.68258 0.52640 -0.20700
N 	N 	0.22390 0.76040 0.70820 -0.15000
O 	O 	0.53004 0.86973 0.27650 -0.42000
O 	O 	0.43725 0.93257 0.34160 -0.46500
O 	O 	0.23218 0.56085 0.53600 -0.44600
C 	C 	0.61480 0.24160 0.49640 0.00700
H 	H 	0.56620 0.24740 0.41450 0.03700
C 	C 	0.65520 0.28960 0.60630 0.00800
H 	H 	0.63970 0.33430 0.61270 0.04100
C 	C 	0.72310 0.19560 0.65240 0.10500
H 	H 	0.76290 0.16430 0.69640 0.01300
C 	C 	0.78350 0.29230 0.84370 0.18900
C 	C 	0.77090 0.35780 0.89550 -0.23200
H 	H 	0.72510 0.38130 0.84170 0.13200
C 	C 	0.83000 0.38690 0.03160 0.13800
H 	H 	0.82250 0.43030 0.06960 0.00600
C 	C 	0.89790 0.35430 0.11040 -0.20500
C 	C 	0.90940 0.28970 0.05300 0.14800
H 	H 	0.95620 0.26720 0.10400 0.00300
C 	C 	0.85270 0.25860 0.92210 -0.22700
H 	H 	0.86080 0.21500 0.88590 0.12400
C 	C 	0.96010 0.38720 0.25250 0.44900
Cu	Cu	0.62805 0.09223 0.42454 0.90400
N 	N 	0.65790 0.18258 0.52640 -0.20700
N 	N 	0.72390 0.26040 0.70820 -0.15100
O 	O 	0.03004 0.36973 0.27650 -0.45100
O 	O 	0.93725 0.43257 0.34160 -0.47000
O 	O 	0.73218 0.06085 0.53600 -0.44300
Cu	Cu	0.50000 0.00000 0.50000 0.89700
Cu	Cu	0.00000 0.50000 0.50000 0.89000
N 	N 	0.41230 0.00000 0.68610 -0.29100
N 	N 	0.44600 0.00000 0.85440 -0.05800
N 	N 	0.91230 0.50000 0.68610 -0.28000
N 	N 	0.94600 0.50000 0.85440 -0.04900
N 	N 	0.58770 0.00000 0.31390 -0.29100
N 	N 	0.55400 0.00000 0.14560 -0.05900
N 	N 	0.08770 0.50000 0.31390 -0.28900
N 	N 	0.05400 0.50000 0.14560 -0.06000
N 	N 	0.02000 0.50000 0.98680 -0.06500
N 	N 	0.52000 0.00000 0.98680 -0.03300
N 	N 	0.98000 0.50000 0.01320 -0.00100
N 	N 	0.48000 0.00000 0.01320 -0.03600
O 	O 	0.27150 0.50000 0.31310 -0.31200
O 	O 	0.35060 0.50000 0.61820 -0.27200
S 	S 	0.27235 0.50000 0.50120 0.71200
O 	O 	0.77150 0.00000 0.31310 -0.31300
O 	O 	0.85060 0.00000 0.61820 -0.26700
S 	S 	0.77235 0.00000 0.50120 0.69200
O 	O 	0.72850 0.50000 0.68690 -0.31200
O 	O 	0.64940 0.50000 0.38180 -0.27200
S 	S 	0.72765 0.50000 0.49880 0.71200
O 	O 	0.22850 0.00000 0.68690 -0.31700
O 	O 	0.14940 0.00000 0.38180 -0.28000
S 	S 	0.22765 0.00000 0.49880 0.69400
