data_crystal

_cell_length_a 10.32770
_cell_length_b 17.67050
_cell_length_c 10.60090
_cell_angle_alpha 90.00000
_cell_angle_beta  91.70000
_cell_angle_gamma 90.00000

_symmetry_space_group_name_	'P 1'
_symmetry_space_group_name_H-M	'P 1'

loop_
_symmetry_equiv_pos_as_xyz
  x,y,z

loop_
_atom_site_label
_atom_site_type_symbol
_atom_site_fract_x
_atom_site_fract_y
_atom_site_fract_z
_atom_site_charge
Zn	Zn	0.23374 0.16877 0.49456 1.21300
Zn	Zn	0.01116 0.17478 0.80813 1.21300
P 	P 	0.29878 0.22838 0.76253 0.44600
H 	H 	0.40220 0.19310 0.80480 -0.04400
P 	P 	0.94171 0.20902 0.52879 0.50700
H 	H 	0.84650 0.18010 0.49660 -0.07700
O 	O 	0.19670 0.17178 0.79770 -0.51400
O 	O 	0.30910 0.23885 0.62050 -0.45400
O 	O 	0.28600 0.30439 0.82700 -0.47200
O 	O 	0.05080 0.15430 0.50010 -0.51600
O 	O 	0.94550 0.28110 0.45790 -0.48000
O 	O 	0.92800 0.22620 0.66740 -0.46100
N 	N 	0.31690 0.06850 0.54170 -0.26400
N 	N 	0.44660 0.99260 0.64940 -0.10300
N 	N 	0.16620 0.03040 0.12470 -0.10700
N 	N 	0.04780 0.93230 0.17600 -0.26800
C 	C 	0.42620 0.06350 0.60760 0.08900
H 	H 	0.48230 0.10380 0.62340 -0.01000
C 	C 	0.26410 0.99820 0.54120 0.02100
H 	H 	0.18600 0.98500 0.50120 0.01200
C 	C 	0.34260 0.95010 0.60790 -0.02000
H 	H 	0.32870 0.89890 0.62250 0.04400
C 	C 	0.55150 0.96830 0.73580 -0.11800
H 	H 	0.63070 0.99400 0.71370 0.07100
H 	H 	0.56510 0.91440 0.72560 0.07500
C 	C 	0.52370 0.98470 0.87310 0.04600
C 	C 	0.41120 0.02070 0.90890 -0.12100
H 	H 	0.35070 0.03490 0.84660 0.08300
C 	C 	0.38530 0.03640 0.03290 0.04400
C 	C 	0.26320 0.07820 0.06280 -0.11300
H 	H 	0.28500 0.12060 0.11760 0.08400
H 	H 	0.22510 0.09850 0.98520 0.05400
C 	C 	0.14480 0.95630 0.10830 0.09100
H 	H 	0.19250 0.92550 0.05580 0.00000
C 	C 	0.07690 0.05550 0.20690 -0.04300
H 	H 	0.06700 0.10470 0.23610 0.04200
C 	C 	0.00530 0.99440 0.23740 0.05400
H 	H 	0.93690 0.99500 0.29250 -0.01300
Zn	Zn	0.76626 0.66877 0.00544 1.21000
Zn	Zn	0.98884 0.67478 0.69187 1.21900
P 	P 	0.70122 0.72838 0.73747 0.44700
H 	H 	0.59780 0.69310 0.69520 -0.04300
P 	P 	0.05829 0.70902 0.97121 0.48000
H 	H 	0.15350 0.68010 0.00340 -0.06700
O 	O 	0.80330 0.67178 0.70230 -0.51000
O 	O 	0.69090 0.73885 0.87950 -0.45100
O 	O 	0.71400 0.80439 0.67300 -0.47000
O 	O 	0.94920 0.65430 0.99990 -0.50100
O 	O 	0.05450 0.78110 0.04210 -0.46700
O 	O 	0.07200 0.72620 0.83260 -0.46400
N 	N 	0.68310 0.56850 0.95830 -0.26100
N 	N 	0.55340 0.49260 0.85060 -0.10500
N 	N 	0.83380 0.53040 0.37530 -0.10800
N 	N 	0.95220 0.43230 0.32400 -0.26400
C 	C 	0.57380 0.56350 0.89240 0.09000
H 	H 	0.51770 0.60380 0.87660 -0.01100
C 	C 	0.73590 0.49820 0.95880 0.01700
H 	H 	0.81400 0.48500 0.99880 0.01400
C 	C 	0.65740 0.45010 0.89210 -0.01900
H 	H 	0.67130 0.39890 0.87750 0.04400
C 	C 	0.44850 0.46830 0.76420 -0.11600
H 	H 	0.36930 0.49400 0.78630 0.07000
H 	H 	0.43490 0.41440 0.77440 0.07400
C 	C 	0.47630 0.48470 0.62690 0.04100
C 	C 	0.58880 0.52070 0.59110 -0.11300
H 	H 	0.64930 0.53490 0.65340 0.08200
C 	C 	0.61470 0.53640 0.46710 0.04400
C 	C 	0.73680 0.57820 0.43720 -0.12900
H 	H 	0.71500 0.62060 0.38240 0.08800
H 	H 	0.77490 0.59850 0.51480 0.06600
C 	C 	0.85520 0.45630 0.39170 0.08800
H 	H 	0.80750 0.42550 0.44420 0.00000
C 	C 	0.92310 0.55550 0.29310 -0.01600
H 	H 	0.93300 0.60470 0.26390 0.02800
C 	C 	0.99470 0.49440 0.26260 0.00200
H 	H 	0.06310 0.49500 0.20750 0.01800
Zn	Zn	0.76626 0.83123 0.50544 1.21400
Zn	Zn	0.98884 0.82522 0.19187 1.21400
P 	P 	0.70122 0.77162 0.23747 0.44700
H 	H 	0.59780 0.80690 0.19520 -0.04300
P 	P 	0.05829 0.79098 0.47121 0.50700
H 	H 	0.15350 0.81990 0.50340 -0.07700
O 	O 	0.80330 0.82822 0.20230 -0.51400
O 	O 	0.69090 0.76115 0.37950 -0.45400
O 	O 	0.71400 0.69561 0.17300 -0.47200
O 	O 	0.94920 0.84570 0.49990 -0.51600
O 	O 	0.05450 0.71890 0.54210 -0.48000
O 	O 	0.07200 0.77380 0.33260 -0.46100
N 	N 	0.68310 0.93150 0.45830 -0.26400
N 	N 	0.55340 0.00740 0.35060 -0.10300
N 	N 	0.83380 0.96960 0.87530 -0.10700
N 	N 	0.95220 0.06770 0.82400 -0.26800
C 	C 	0.57380 0.93650 0.39240 0.08900
H 	H 	0.51770 0.89620 0.37660 -0.01000
C 	C 	0.73590 0.00180 0.45880 0.02100
H 	H 	0.81400 0.01500 0.49880 0.01200
C 	C 	0.65740 0.04990 0.39210 -0.02000
H 	H 	0.67130 0.10110 0.37750 0.04400
C 	C 	0.44850 0.03170 0.26420 -0.11800
H 	H 	0.36930 0.00600 0.28630 0.07100
H 	H 	0.43490 0.08560 0.27440 0.07500
C 	C 	0.47630 0.01530 0.12690 0.04600
C 	C 	0.58880 0.97930 0.09110 -0.12100
H 	H 	0.64930 0.96510 0.15340 0.08300
C 	C 	0.61470 0.96360 0.96710 0.04400
C 	C 	0.73680 0.92180 0.93720 -0.11300
H 	H 	0.71500 0.87940 0.88240 0.08400
H 	H 	0.77490 0.90150 0.01480 0.05400
C 	C 	0.85520 0.04370 0.89170 0.09100
H 	H 	0.80750 0.07450 0.94420 0.00000
C 	C 	0.92310 0.94450 0.79310 -0.04300
H 	H 	0.93300 0.89530 0.76390 0.04200
C 	C 	0.99470 0.00560 0.76260 0.05400
H 	H 	0.06310 0.00500 0.70750 -0.01300
Zn	Zn	0.23374 0.33123 0.99456 1.21000
Zn	Zn	0.01116 0.32522 0.30813 1.21900
P 	P 	0.29878 0.27162 0.26253 0.44700
H 	H 	0.40220 0.30690 0.30480 -0.04300
P 	P 	0.94171 0.29098 0.02879 0.48000
H 	H 	0.84650 0.31990 0.99660 -0.06700
O 	O 	0.19670 0.32822 0.29770 -0.51000
O 	O 	0.30910 0.26115 0.12050 -0.45100
O 	O 	0.28600 0.19561 0.32700 -0.47000
O 	O 	0.05080 0.34570 0.00010 -0.50100
O 	O 	0.94550 0.21890 0.95790 -0.46700
O 	O 	0.92800 0.27380 0.16740 -0.46400
N 	N 	0.31690 0.43150 0.04170 -0.26100
N 	N 	0.44660 0.50740 0.14940 -0.10500
N 	N 	0.16620 0.46960 0.62470 -0.10800
N 	N 	0.04780 0.56770 0.67600 -0.26400
C 	C 	0.42620 0.43650 0.10760 0.09000
H 	H 	0.48230 0.39620 0.12340 -0.01100
C 	C 	0.26410 0.50180 0.04120 0.01700
H 	H 	0.18600 0.51500 0.00120 0.01400
C 	C 	0.34260 0.54990 0.10790 -0.01900
H 	H 	0.32870 0.60110 0.12250 0.04400
C 	C 	0.55150 0.53170 0.23580 -0.11600
H 	H 	0.63070 0.50600 0.21370 0.07000
H 	H 	0.56510 0.58560 0.22560 0.07400
C 	C 	0.52370 0.51530 0.37310 0.04100
C 	C 	0.41120 0.47930 0.40890 -0.11300
H 	H 	0.35070 0.46510 0.34660 0.08200
C 	C 	0.38530 0.46360 0.53290 0.04400
C 	C 	0.26320 0.42180 0.56280 -0.12900
H 	H 	0.28500 0.37940 0.61760 0.08800
H 	H 	0.22510 0.40150 0.48520 0.06600
C 	C 	0.14480 0.54370 0.60830 0.08800
H 	H 	0.19250 0.57450 0.55580 0.00000
C 	C 	0.07690 0.44450 0.70690 -0.01600
H 	H 	0.06700 0.39530 0.73610 0.02800
C 	C 	0.00530 0.50560 0.73740 0.00200
H 	H 	0.93690 0.50500 0.79250 0.01800
