data_crystal

_cell_length_a 11.44000
_cell_length_b 12.28800
_cell_length_c 36.85400
_cell_angle_alpha 90.00000
_cell_angle_beta  90.00000
_cell_angle_gamma 117.64200

_symmetry_space_group_name_	'P 1'
_symmetry_space_group_name_H-M	'P 1'

loop_
_symmetry_equiv_pos_as_xyz
  x,y,z

loop_
_atom_site_label
_atom_site_type_symbol
_atom_site_fract_x
_atom_site_fract_y
_atom_site_fract_z
_atom_site_charge
Ce	Ce	0.13023 0.62999 0.53649 2.13600
Ce	Ce	0.36977 0.37001 0.03649 2.13600
Ce	Ce	0.86977 0.37001 0.46351 2.13600
Ce	Ce	0.63023 0.62999 0.96351 2.13600
H 	H 	0.45170 0.45060 0.17170 0.01000
H 	H 	0.52680 0.18260 0.13530 0.00000
H 	H 	0.57530 0.14780 0.19370 0.14000
H 	H 	0.50120 0.41640 0.22990 0.11900
H 	H 	0.54120 0.29250 0.27100 0.14300
H 	H 	0.81120 0.06770 0.40500 0.14900
H 	H 	0.45470 0.29740 0.37040 0.14300
H 	H 	0.25400 0.27340 0.39240 0.14000
H 	H 	0.68600 0.04590 0.30030 0.05300
H 	H 	0.64260 0.11370 0.40490 -0.00700
H 	H 	0.02030 0.92380 0.47790 -0.02600
H 	H 	0.58950 0.31230 0.32480 0.00900
H 	H 	0.95200 0.04830 0.44720 0.12800
H 	H 	0.78880 0.64080 0.41580 -0.01500
H 	H 	0.72030 0.76420 0.38440 0.15600
H 	H 	0.47830 0.57730 0.47480 -0.02300
H 	H 	0.58300 0.48030 0.44590 0.15800
H 	H 	0.14680 0.36290 0.42540 -0.04000
H 	H 	0.04830 0.54940 0.67170 0.00900
H 	H 	0.97320 0.81740 0.63530 -0.00100
H 	H 	0.92470 0.85220 0.69370 0.13900
H 	H 	0.99880 0.58360 0.72990 0.11800
H 	H 	0.95880 0.70750 0.77100 0.14300
H 	H 	0.68880 0.93230 0.90500 0.14900
H 	H 	0.04530 0.70260 0.87040 0.14300
H 	H 	0.24600 0.72660 0.89240 0.14000
H 	H 	0.81400 0.95410 0.80030 0.05300
H 	H 	0.85740 0.88630 0.90490 -0.00700
H 	H 	0.47970 0.07620 0.97790 -0.02600
H 	H 	0.91050 0.68770 0.82480 0.00900
H 	H 	0.54800 0.95170 0.94720 0.12700
H 	H 	0.71120 0.35920 0.91580 -0.01500
H 	H 	0.77970 0.23580 0.88440 0.15600
H 	H 	0.02170 0.42270 0.97480 -0.02300
H 	H 	0.91700 0.51970 0.94590 0.15700
H 	H 	0.35320 0.63710 0.92540 -0.03900
H 	H 	0.54830 0.54940 0.82830 0.00900
H 	H 	0.47320 0.81740 0.86470 -0.00100
H 	H 	0.42470 0.85220 0.80630 0.13900
H 	H 	0.49880 0.58360 0.77010 0.11800
H 	H 	0.45880 0.70750 0.72900 0.14300
H 	H 	0.18880 0.93230 0.59500 0.14900
H 	H 	0.54530 0.70260 0.62960 0.14300
H 	H 	0.74600 0.72660 0.60760 0.14000
H 	H 	0.31400 0.95410 0.69970 0.05300
H 	H 	0.35740 0.88630 0.59510 -0.00700
H 	H 	0.97970 0.07620 0.52210 -0.02600
H 	H 	0.41050 0.68770 0.67520 0.00900
H 	H 	0.04800 0.95170 0.55280 0.12800
H 	H 	0.21120 0.35920 0.58420 -0.01500
H 	H 	0.27970 0.23580 0.61560 0.15600
H 	H 	0.52170 0.42270 0.52520 -0.02300
H 	H 	0.41700 0.51970 0.55410 0.15800
H 	H 	0.85320 0.63710 0.57460 -0.04000
H 	H 	0.95170 0.45060 0.32830 0.00900
H 	H 	0.02680 0.18260 0.36470 -0.00100
H 	H 	0.07530 0.14780 0.30630 0.13900
H 	H 	0.00120 0.41640 0.27010 0.11800
H 	H 	0.04120 0.29250 0.22900 0.14300
H 	H 	0.31120 0.06770 0.09500 0.14900
H 	H 	0.95470 0.29740 0.12960 0.14300
H 	H 	0.75400 0.27340 0.10760 0.14000
H 	H 	0.18600 0.04590 0.19970 0.05300
H 	H 	0.14260 0.11370 0.09510 -0.00700
H 	H 	0.52030 0.92380 0.02210 -0.02600
H 	H 	0.08950 0.31230 0.17520 0.00900
H 	H 	0.45200 0.04830 0.05280 0.12700
H 	H 	0.28880 0.64080 0.08420 -0.01500
H 	H 	0.22030 0.76420 0.11560 0.15600
H 	H 	0.97830 0.57730 0.02520 -0.02300
H 	H 	0.08300 0.48030 0.05410 0.15700
H 	H 	0.64680 0.36290 0.07460 -0.03900
C 	C 	0.44720 0.33890 0.10967 0.33400
C 	C 	0.48230 0.31820 0.14717 -0.16000
C 	C 	0.47600 0.38930 0.17599 0.12300
C 	C 	0.52070 0.22950 0.15432 0.12600
C 	C 	0.55030 0.20870 0.18936 -0.23400
C 	C 	0.50590 0.36890 0.21083 -0.22800
C 	C 	0.54260 0.27850 0.21762 0.22900
C 	C 	0.59560 0.30200 0.39805 0.30100
C 	C 	0.43200 0.37690 0.41390 0.28300
C 	C 	0.30090 0.33650 0.40870 -0.30200
C 	C 	0.68050 0.07340 0.35388 -0.08400
C 	C 	0.67020 0.09310 0.31747 0.02600
C 	C 	0.30180 0.48500 0.45201 -0.26200
C 	C 	0.23410 0.54640 0.47217 0.44700
C 	C 	0.91020 0.76860 0.45024 -0.24000
C 	C 	0.95170 0.68340 0.46940 0.47800
C 	C 	0.62250 0.23320 0.36901 -0.12700
C 	C 	0.64770 0.13540 0.38060 0.03200
C 	C 	0.95920 0.89110 0.45919 0.18100
C 	C 	0.61250 0.25230 0.33209 0.04200
C 	C 	0.82830 0.91870 0.41274 0.25500
C 	C 	0.91850 0.96610 0.44071 -0.27900
C 	C 	0.63630 0.18330 0.30613 -0.09100
C 	C 	0.82190 0.72300 0.42230 0.18300
C 	C 	0.78030 0.79690 0.40330 -0.27600
C 	C 	0.43140 0.51610 0.45800 0.20600
C 	C 	0.71490 0.97390 0.36425 0.24800
C 	C 	0.49640 0.46030 0.44000 -0.30700
C 	C 	0.62960 0.19860 0.26605 0.25700
C 	C 	0.23700 0.39180 0.42860 0.20400
C 	C 	0.05280 0.66110 0.60967 0.33400
C 	C 	0.01770 0.68180 0.64717 -0.15900
C 	C 	0.02400 0.61070 0.67599 0.12400
C 	C 	0.97930 0.77050 0.65432 0.12500
C 	C 	0.94970 0.79130 0.68936 -0.23300
C 	C 	0.99410 0.63110 0.71083 -0.22900
C 	C 	0.95740 0.72150 0.71762 0.22900
C 	C 	0.90440 0.69800 0.89805 0.30000
C 	C 	0.06800 0.62310 0.91390 0.28300
C 	C 	0.19910 0.66350 0.90870 -0.30100
C 	C 	0.81950 0.92660 0.85388 -0.08400
C 	C 	0.82980 0.90690 0.81747 0.02600
C 	C 	0.19820 0.51500 0.95201 -0.26200
C 	C 	0.26590 0.45360 0.97217 0.44700
C 	C 	0.58980 0.23140 0.95024 -0.24000
C 	C 	0.54830 0.31660 0.96940 0.47800
C 	C 	0.87750 0.76680 0.86901 -0.12800
C 	C 	0.85230 0.86460 0.88060 0.03200
C 	C 	0.54080 0.10890 0.95919 0.18100
C 	C 	0.88750 0.74770 0.83209 0.04200
C 	C 	0.67170 0.08130 0.91274 0.25400
C 	C 	0.58150 0.03390 0.94071 -0.27700
C 	C 	0.86370 0.81670 0.80613 -0.09200
C 	C 	0.67810 0.27700 0.92230 0.18300
C 	C 	0.71970 0.20310 0.90330 -0.27600
C 	C 	0.06860 0.48390 0.95800 0.20600
C 	C 	0.78510 0.02610 0.86425 0.24800
C 	C 	0.00360 0.53970 0.94000 -0.30600
C 	C 	0.87040 0.80140 0.76605 0.25700
C 	C 	0.26300 0.60820 0.92860 0.20400
C 	C 	0.55280 0.66110 0.89033 0.33400
C 	C 	0.51770 0.68180 0.85283 -0.16000
C 	C 	0.52400 0.61070 0.82401 0.12300
C 	C 	0.47930 0.77050 0.84568 0.12600
C 	C 	0.44970 0.79130 0.81064 -0.23400
C 	C 	0.49410 0.63110 0.78917 -0.22800
C 	C 	0.45740 0.72150 0.78238 0.22900
C 	C 	0.40440 0.69800 0.60195 0.30100
C 	C 	0.56800 0.62310 0.58610 0.28300
C 	C 	0.69910 0.66350 0.59130 -0.30200
C 	C 	0.31950 0.92660 0.64612 -0.08400
C 	C 	0.32980 0.90690 0.68253 0.02600
C 	C 	0.69820 0.51500 0.54799 -0.26200
C 	C 	0.76590 0.45360 0.52783 0.44700
C 	C 	0.08980 0.23140 0.54976 -0.24000
C 	C 	0.04830 0.31660 0.53060 0.47800
C 	C 	0.37750 0.76680 0.63099 -0.12700
C 	C 	0.35230 0.86460 0.61940 0.03200
C 	C 	0.04080 0.10890 0.54081 0.18100
C 	C 	0.38750 0.74770 0.66791 0.04200
C 	C 	0.17170 0.08130 0.58726 0.25500
C 	C 	0.08150 0.03390 0.55929 -0.27900
C 	C 	0.36370 0.81670 0.69387 -0.09100
C 	C 	0.17810 0.27700 0.57770 0.18300
C 	C 	0.21970 0.20310 0.59670 -0.27600
C 	C 	0.56860 0.48390 0.54200 0.20600
C 	C 	0.28510 0.02610 0.63575 0.24800
C 	C 	0.50360 0.53970 0.56000 -0.30700
C 	C 	0.37040 0.80140 0.73395 0.25700
C 	C 	0.76300 0.60820 0.57140 0.20400
C 	C 	0.94720 0.33890 0.39033 0.33400
C 	C 	0.98230 0.31820 0.35283 -0.15900
C 	C 	0.97600 0.38930 0.32401 0.12400
C 	C 	0.02070 0.22950 0.34568 0.12500
C 	C 	0.05030 0.20870 0.31064 -0.23300
C 	C 	0.00590 0.36890 0.28917 -0.22900
C 	C 	0.04260 0.27850 0.28238 0.22900
C 	C 	0.09560 0.30200 0.10195 0.30000
C 	C 	0.93200 0.37690 0.08610 0.28300
C 	C 	0.80090 0.33650 0.09130 -0.30100
C 	C 	0.18050 0.07340 0.14612 -0.08400
C 	C 	0.17020 0.09310 0.18253 0.02600
C 	C 	0.80180 0.48500 0.04799 -0.26200
C 	C 	0.73410 0.54640 0.02783 0.44700
C 	C 	0.41020 0.76860 0.04976 -0.24000
C 	C 	0.45170 0.68340 0.03060 0.47800
C 	C 	0.12250 0.23320 0.13099 -0.12800
C 	C 	0.14770 0.13540 0.11940 0.03200
C 	C 	0.45920 0.89110 0.04081 0.18100
C 	C 	0.11250 0.25230 0.16791 0.04200
C 	C 	0.32830 0.91870 0.08726 0.25400
C 	C 	0.41850 0.96610 0.05929 -0.27700
C 	C 	0.13630 0.18330 0.19387 -0.09200
C 	C 	0.32190 0.72300 0.07770 0.18300
C 	C 	0.28030 0.79690 0.09670 -0.27600
C 	C 	0.93140 0.51610 0.04200 0.20600
C 	C 	0.21490 0.97390 0.13575 0.24800
C 	C 	0.99640 0.46030 0.06000 -0.30600
C 	C 	0.12960 0.19860 0.23395 0.25700
C 	C 	0.73700 0.39180 0.07140 0.20400
N 	N 	0.56850 0.26000 0.25457 -0.26800
N 	N 	0.78750 0.99720 0.39509 -0.27300
N 	N 	0.49100 0.32160 0.39131 -0.28500
N 	N 	0.93150 0.74000 0.75457 -0.26800
N 	N 	0.71250 0.00280 0.89509 -0.27200
N 	N 	0.00900 0.67840 0.89131 -0.28500
N 	N 	0.43150 0.74000 0.74543 -0.26800
N 	N 	0.21250 0.00280 0.60491 -0.27300
N 	N 	0.50900 0.67840 0.60869 -0.28500
N 	N 	0.06850 0.26000 0.24543 -0.26800
N 	N 	0.28750 0.99720 0.10491 -0.27200
N 	N 	0.99100 0.32160 0.10869 -0.28500
O 	O 	0.03870 0.72620 0.49367 -0.53300
O 	O 	0.65830 0.33170 0.42667 -0.42900
O 	O 	0.43560 0.43270 0.10243 -0.41300
O 	O 	0.42480 0.25540 0.08576 -0.45600
O 	O 	0.89460 0.57410 0.45871 -0.52800
O 	O 	0.11110 0.50790 0.46837 -0.58200
O 	O 	0.68670 0.16210 0.24540 -0.24400
O 	O 	0.30050 0.63250 0.49322 -0.48700
O 	O 	0.67840 0.88180 0.34610 -0.23800
O 	O 	0.46130 0.27380 0.99367 -0.53300
O 	O 	0.84170 0.66830 0.92667 -0.42900
O 	O 	0.06440 0.56730 0.60243 -0.41300
O 	O 	0.07520 0.74460 0.58576 -0.45600
O 	O 	0.60540 0.42590 0.95871 -0.52800
O 	O 	0.38890 0.49210 0.96837 -0.58200
O 	O 	0.81330 0.83790 0.74540 -0.24400
O 	O 	0.19950 0.36750 0.99322 -0.48600
O 	O 	0.82160 0.11820 0.84610 -0.23800
O 	O 	0.96130 0.27380 0.50633 -0.53300
O 	O 	0.34170 0.66830 0.57333 -0.42900
O 	O 	0.56440 0.56730 0.89757 -0.41300
O 	O 	0.57520 0.74460 0.91424 -0.45600
O 	O 	0.10540 0.42590 0.54129 -0.52800
O 	O 	0.88890 0.49210 0.53163 -0.58200
O 	O 	0.31330 0.83790 0.75460 -0.24400
O 	O 	0.69950 0.36750 0.50678 -0.48700
O 	O 	0.32160 0.11820 0.65390 -0.23800
O 	O 	0.53870 0.72620 0.00633 -0.53300
O 	O 	0.15830 0.33170 0.07333 -0.42900
O 	O 	0.93560 0.43270 0.39757 -0.41300
O 	O 	0.92480 0.25540 0.41424 -0.45600
O 	O 	0.39460 0.57410 0.04129 -0.52800
O 	O 	0.61110 0.50790 0.03163 -0.58200
O 	O 	0.18670 0.16210 0.25460 -0.24400
O 	O 	0.80050 0.63250 0.00678 -0.48600
O 	O 	0.17840 0.88180 0.15390 -0.23800
