data_crystal

_cell_length_a 10.43090
_cell_length_b 11.47370
_cell_length_c 12.94970
_cell_angle_alpha 106.72400
_cell_angle_beta  90.20900
_cell_angle_gamma 93.18700

_symmetry_space_group_name_	'P 1'
_symmetry_space_group_name_H-M	'P 1'

loop_
_symmetry_equiv_pos_as_xyz
  x,y,z

loop_
_atom_site_label
_atom_site_type_symbol
_atom_site_fract_x
_atom_site_fract_y
_atom_site_fract_z
_atom_site_charge
Nd	Nd	0.52459 0.54627 0.66380 1.99500
O 	O 	0.61412 0.72168 0.81402 -0.45500
O 	O 	0.40439 0.71589 0.78483 -0.42700
O 	O 	0.64444 0.49058 0.49260 -0.59600
O 	O 	0.71426 0.52562 0.34392 -0.44500
O 	O 	0.51059 0.32880 0.58586 -0.53700
O 	O 	0.46221 0.27437 0.40929 -0.49100
C 	C 	0.50550 0.76710 0.83276 0.32300
C 	C 	0.50020 0.88790 0.91768 -0.09800
C 	C 	0.55370 0.99500 0.89830 0.04300
C 	C 	0.60430 0.99480 0.79540 -0.07100
H 	H 	0.60340 0.92070 0.73880 0.07000
C 	C 	0.65350 0.09980 0.77810 -0.03200
H 	H 	0.68590 0.09820 0.70930 0.04200
C 	C 	0.65680 0.21180 0.86200 -0.02900
H 	H 	0.69280 0.28420 0.84920 0.01300
C 	C 	0.60910 0.21600 0.96010 -0.07200
H 	H 	0.61170 0.29170 0.01510 0.04000
C 	C 	0.55460 0.10850 0.98250 0.03600
C 	C 	0.73550 0.51070 0.43340 0.40600
C 	C 	0.87160 0.50610 0.46860 -0.14900
C 	C 	0.92480 0.59600 0.55740 0.02800
C 	C 	0.85290 0.69570 0.61690 -0.07800
H 	H 	0.76710 0.70160 0.59520 0.03200
C 	C 	0.90620 0.78220 0.70450 -0.04200
H 	H 	0.85670 0.84690 0.74390 0.04500
C 	C 	0.03490 0.77580 0.73670 -0.02300
H 	H 	0.07110 0.83670 0.79750 0.04000
C 	C 	0.10770 0.68380 0.68220 -0.08900
H 	H 	0.19390 0.68140 0.70510 0.07300
C 	C 	0.05540 0.59060 0.59050 0.04600
C 	C 	0.48830 0.25240 0.49555 0.47600
C 	C 	0.49360 0.12045 0.49549 -0.14300
C 	C 	0.38640 0.06160 0.52660 0.02100
C 	C 	0.26770 0.12090 0.55170 -0.01500
H 	H 	0.26320 0.20320 0.55090 0.01300
C 	C 	0.16260 0.06070 0.57620 0.01300
H 	H 	0.08400 0.10000 0.58990 0.01200
C 	C 	0.16840 0.93930 0.58180 -0.00100
H 	H 	0.09430 0.89900 0.60130 0.02100
C 	C 	0.27850 0.88040 0.55970 -0.02800
H 	H 	0.28030 0.79920 0.56390 0.04800
C 	C 	0.39270 0.93790 0.53010 0.01400
C 	C 	0.37900 0.05400 0.50300 0.01900
C 	C 	0.25560 0.09850 0.51030 -0.04700
H 	H 	0.24590 0.17930 0.50750 0.03900
C 	C 	0.14960 0.02860 0.52130 -0.05400
H 	H 	0.06750 0.06120 0.52480 0.03400
C 	C 	0.15950 0.90870 0.52750 -0.04100
H 	H 	0.08420 0.86270 0.53690 0.03000
C 	C 	0.27580 0.85760 0.52020 -0.02900
H 	H 	0.28290 0.77600 0.52200 -0.00300
C 	C 	0.38500 0.93200 0.51000 0.02400
Nd	Nd	0.47541 0.45373 0.33620 1.99400
O 	O 	0.38588 0.27832 0.18598 -0.45600
O 	O 	0.59561 0.28411 0.21517 -0.42700
O 	O 	0.35556 0.50942 0.50740 -0.59600
O 	O 	0.28574 0.47438 0.65608 -0.44500
O 	O 	0.48941 0.67120 0.41414 -0.53700
O 	O 	0.53779 0.72563 0.59071 -0.49100
C 	C 	0.49450 0.23290 0.16724 0.32300
C 	C 	0.49980 0.11210 0.08232 -0.09800
C 	C 	0.44630 0.00500 0.10170 0.04300
C 	C 	0.39570 0.00520 0.20460 -0.07100
H 	H 	0.39660 0.07930 0.26120 0.07000
C 	C 	0.34650 0.90020 0.22190 -0.03200
H 	H 	0.31410 0.90180 0.29070 0.04200
C 	C 	0.34320 0.78820 0.13800 -0.02900
H 	H 	0.30720 0.71580 0.15080 0.01300
C 	C 	0.39090 0.78400 0.03990 -0.07200
H 	H 	0.38830 0.70830 0.98490 0.04000
C 	C 	0.44540 0.89150 0.01750 0.03600
C 	C 	0.26450 0.48930 0.56660 0.40600
C 	C 	0.12840 0.49390 0.53140 -0.14900
C 	C 	0.07520 0.40400 0.44260 0.02800
C 	C 	0.14710 0.30430 0.38310 -0.07800
H 	H 	0.23290 0.29840 0.40480 0.03200
C 	C 	0.09380 0.21780 0.29550 -0.04200
H 	H 	0.14330 0.15310 0.25610 0.04500
C 	C 	0.96510 0.22420 0.26330 -0.02300
H 	H 	0.92890 0.16330 0.20250 0.04000
C 	C 	0.89230 0.31620 0.31780 -0.08900
H 	H 	0.80610 0.31860 0.29490 0.07300
C 	C 	0.94460 0.40940 0.40950 0.04600
C 	C 	0.51170 0.74760 0.50445 0.47600
C 	C 	0.50640 0.87955 0.50451 -0.14300
C 	C 	0.61360 0.93840 0.47340 0.02100
C 	C 	0.73230 0.87910 0.44830 -0.01500
H 	H 	0.73680 0.79680 0.44910 0.01300
C 	C 	0.83740 0.93930 0.42380 0.01300
H 	H 	0.91600 0.90000 0.41010 0.01200
C 	C 	0.83160 0.06070 0.41820 -0.00100
H 	H 	0.90570 0.10100 0.39870 0.02100
C 	C 	0.72150 0.11960 0.44030 -0.02800
H 	H 	0.71970 0.20080 0.43610 0.04800
C 	C 	0.60730 0.06210 0.46990 0.01400
C 	C 	0.62100 0.94600 0.49700 0.01900
C 	C 	0.74440 0.90150 0.48970 -0.04700
H 	H 	0.75410 0.82070 0.49250 0.03900
C 	C 	0.85040 0.97140 0.47870 -0.05400
H 	H 	0.93250 0.93880 0.47520 0.03400
C 	C 	0.84050 0.09130 0.47250 -0.04100
H 	H 	0.91580 0.13730 0.46310 0.03000
C 	C 	0.72420 0.14240 0.47980 -0.02900
H 	H 	0.71710 0.22400 0.47800 -0.00300
C 	C 	0.61500 0.06800 0.49000 0.02400
