data_crystal

_cell_length_a 10.40240
_cell_length_b 11.42460
_cell_length_c 12.93880
_cell_angle_alpha 106.92800
_cell_angle_beta  90.12200
_cell_angle_gamma 92.98900

_symmetry_space_group_name_	'P 1'
_symmetry_space_group_name_H-M	'P 1'

loop_
_symmetry_equiv_pos_as_xyz
  x,y,z

loop_
_atom_site_label
_atom_site_type_symbol
_atom_site_fract_x
_atom_site_fract_y
_atom_site_fract_z
_atom_site_charge
Sm	Sm	0.52347 0.54606 0.66258 1.85600
O 	O 	0.61359 0.71976 0.81154 -0.43900
O 	O 	0.40382 0.71487 0.78316 -0.41300
O 	O 	0.64292 0.49124 0.49277 -0.56800
O 	O 	0.71409 0.52495 0.34397 -0.42700
O 	O 	0.51046 0.33042 0.58566 -0.51700
O 	O 	0.46400 0.27511 0.40840 -0.47100
C 	C 	0.50530 0.76635 0.83152 0.32400
C 	C 	0.50030 0.88743 0.91713 -0.10000
C 	C 	0.55390 0.99475 0.89815 0.04500
C 	C 	0.60510 0.99490 0.79531 -0.07300
H 	H 	0.60430 0.92050 0.73830 0.07200
C 	C 	0.65470 0.10000 0.77820 -0.03000
H 	H 	0.68750 0.09830 0.70930 0.04200
C 	C 	0.65810 0.21270 0.86300 -0.02900
H 	H 	0.69410 0.28540 0.85050 0.01800
C 	C 	0.61010 0.21690 0.96160 -0.07200
H 	H 	0.61290 0.29280 0.01710 0.04300
C 	C 	0.55530 0.10893 0.98316 0.03700
C 	C 	0.73469 0.51077 0.43367 0.39800
C 	C 	0.87133 0.50580 0.46901 -0.14500
C 	C 	0.92430 0.59660 0.55818 0.02900
C 	C 	0.85260 0.69700 0.61840 -0.07500
H 	H 	0.76630 0.70280 0.59710 0.03600
C 	C 	0.90550 0.78430 0.70540 -0.04200
H 	H 	0.85580 0.84960 0.74470 0.04700
C 	C 	0.03490 0.77790 0.73750 -0.02000
H 	H 	0.07120 0.83930 0.79830 0.04000
C 	C 	0.10760 0.68530 0.68260 -0.09000
H 	H 	0.19410 0.68290 0.70540 0.07600
C 	C 	0.05580 0.59120 0.59076 0.04900
C 	C 	0.48904 0.25333 0.49537 0.46500
C 	C 	0.49379 0.12099 0.49510 -0.14000
C 	C 	0.38570 0.06280 0.52570 0.01500
C 	C 	0.26650 0.12170 0.54990 -0.01700
H 	H 	0.26170 0.20420 0.54910 0.01500
C 	C 	0.16030 0.06100 0.57390 0.01100
H 	H 	0.08180 0.10120 0.58830 0.01300
C 	C 	0.16520 0.93840 0.57760 0.00700
H 	H 	0.08990 0.89700 0.59400 0.01600
C 	C 	0.27720 0.87980 0.55790 -0.01100
H 	H 	0.27990 0.79860 0.56260 0.06300
C 	C 	0.39050 0.93870 0.53020 0.02500
C 	C 	0.37800 0.05100 0.50250 0.02200
C 	C 	0.25530 0.10110 0.51100 -0.04100
H 	H 	0.24650 0.18290 0.50920 0.03700
C 	C 	0.15030 0.03020 0.52160 -0.05300
H 	H 	0.06760 0.06260 0.52540 0.03400
C 	C 	0.16090 0.90990 0.52720 -0.04500
H 	H 	0.08500 0.86360 0.53520 0.03200
C 	C 	0.27310 0.85940 0.52160 -0.04500
H 	H 	0.27760 0.77850 0.52710 -0.01700
C 	C 	0.39100 0.92900 0.50690 0.01400
Sm	Sm	0.47653 0.45394 0.33742 1.85500
O 	O 	0.38641 0.28024 0.18846 -0.44000
O 	O 	0.59618 0.28513 0.21684 -0.41300
O 	O 	0.35708 0.50876 0.50723 -0.56800
O 	O 	0.28591 0.47505 0.65603 -0.42700
O 	O 	0.48954 0.66958 0.41434 -0.51700
O 	O 	0.53600 0.72489 0.59160 -0.47100
C 	C 	0.49470 0.23365 0.16848 0.32400
C 	C 	0.49970 0.11257 0.08287 -0.10000
C 	C 	0.44610 0.00525 0.10185 0.04500
C 	C 	0.39490 0.00510 0.20469 -0.07300
H 	H 	0.39570 0.07950 0.26170 0.07200
C 	C 	0.34530 0.90000 0.22180 -0.03000
H 	H 	0.31250 0.90170 0.29070 0.04200
C 	C 	0.34190 0.78730 0.13700 -0.02900
H 	H 	0.30590 0.71460 0.14950 0.01800
C 	C 	0.38990 0.78310 0.03840 -0.07200
H 	H 	0.38710 0.70720 0.98290 0.04300
C 	C 	0.44470 0.89107 0.01684 0.03700
C 	C 	0.26531 0.48923 0.56633 0.39800
C 	C 	0.12867 0.49420 0.53099 -0.14500
C 	C 	0.07570 0.40340 0.44182 0.02900
C 	C 	0.14740 0.30300 0.38160 -0.07500
H 	H 	0.23370 0.29720 0.40290 0.03600
C 	C 	0.09450 0.21570 0.29460 -0.04200
H 	H 	0.14420 0.15040 0.25530 0.04700
C 	C 	0.96510 0.22210 0.26250 -0.02000
H 	H 	0.92880 0.16070 0.20170 0.04000
C 	C 	0.89240 0.31470 0.31740 -0.09000
H 	H 	0.80590 0.31710 0.29460 0.07600
C 	C 	0.94420 0.40880 0.40924 0.04900
C 	C 	0.51096 0.74667 0.50463 0.46500
C 	C 	0.50621 0.87901 0.50490 -0.14000
C 	C 	0.61430 0.93720 0.47430 0.01500
C 	C 	0.73350 0.87830 0.45010 -0.01700
H 	H 	0.73830 0.79580 0.45090 0.01500
C 	C 	0.83970 0.93900 0.42610 0.01100
H 	H 	0.91820 0.89880 0.41170 0.01300
C 	C 	0.83480 0.06160 0.42240 0.00700
H 	H 	0.91010 0.10300 0.40600 0.01600
C 	C 	0.72280 0.12020 0.44210 -0.01100
H 	H 	0.72010 0.20140 0.43740 0.06300
C 	C 	0.60950 0.06130 0.46980 0.02500
C 	C 	0.62200 0.94900 0.49750 0.02200
C 	C 	0.74470 0.89890 0.48900 -0.04100
H 	H 	0.75350 0.81710 0.49080 0.03700
C 	C 	0.84970 0.96980 0.47840 -0.05300
H 	H 	0.93240 0.93740 0.47460 0.03400
C 	C 	0.83910 0.09010 0.47280 -0.04500
H 	H 	0.91500 0.13640 0.46480 0.03200
C 	C 	0.72690 0.14060 0.47840 -0.04500
H 	H 	0.72240 0.22150 0.47290 -0.01700
C 	C 	0.60900 0.07100 0.49310 0.01400
