data_crystal

_cell_length_a 7.81610
_cell_length_b 21.28300
_cell_length_c 8.34190
_cell_angle_alpha 90.00000
_cell_angle_beta  90.00000
_cell_angle_gamma 90.00000

_symmetry_space_group_name_	'P 1'
_symmetry_space_group_name_H-M	'P 1'

loop_
_symmetry_equiv_pos_as_xyz
  x,y,z

loop_
_atom_site_label
_atom_site_type_symbol
_atom_site_fract_x
_atom_site_fract_y
_atom_site_fract_z
_atom_site_charge
N 	N 	0.11910 0.07560 0.41800 -0.17000
H 	H 	0.38800 0.22800 0.37600 0.03500
C 	C 	0.19140 0.12760 0.36940 0.07500
H 	H 	0.20800 0.13980 0.26220 -0.01300
N 	N 	0.61910 0.57560 0.41800 -0.15400
H 	H 	0.88800 0.72800 0.37600 0.05100
C 	C 	0.69140 0.62760 0.36940 0.08600
H 	H 	0.70800 0.63980 0.26220 0.00100
N 	N 	0.88090 0.92440 0.41800 -0.12600
H 	H 	0.61200 0.77200 0.37600 0.03500
C 	C 	0.80860 0.87240 0.36940 0.09300
H 	H 	0.79200 0.86020 0.26220 0.00900
N 	N 	0.38090 0.42440 0.41800 -0.15900
H 	H 	0.11200 0.27200 0.37600 0.01900
C 	C 	0.30860 0.37240 0.36940 0.07800
H 	H 	0.29200 0.36020 0.26220 -0.01100
N 	N 	0.88090 0.07560 0.08200 -0.13500
H 	H 	0.61200 0.22800 0.12400 0.03000
C 	C 	0.80860 0.12760 0.13060 0.09100
H 	H 	0.79200 0.13980 0.23780 -0.00100
N 	N 	0.38090 0.57560 0.08200 -0.14900
H 	H 	0.11200 0.72800 0.12400 0.01600
C 	C 	0.30860 0.62760 0.13060 0.08200
H 	H 	0.29200 0.63980 0.23780 -0.01500
N 	N 	0.11910 0.92440 0.08200 -0.14100
H 	H 	0.38800 0.77200 0.12400 0.03300
C 	C 	0.19140 0.87240 0.13060 0.08400
H 	H 	0.20800 0.86020 0.23780 -0.01100
N 	N 	0.61910 0.42440 0.08200 -0.14500
H 	H 	0.88800 0.27200 0.12400 0.04600
C 	C 	0.69140 0.37240 0.13060 0.09000
H 	H 	0.70800 0.36020 0.23780 -0.00300
N 	N 	0.88090 0.92440 0.58200 -0.12700
H 	H 	0.61200 0.77200 0.62400 0.03200
C 	C 	0.80860 0.87240 0.63060 0.09300
H 	H 	0.79200 0.86020 0.73780 0.00100
N 	N 	0.38090 0.42440 0.58200 -0.16000
H 	H 	0.11200 0.27200 0.62400 0.01600
C 	C 	0.30860 0.37240 0.63060 0.07800
H 	H 	0.29200 0.36020 0.73780 -0.01900
N 	N 	0.11910 0.07560 0.58200 -0.17300
H 	H 	0.38800 0.22800 0.62400 0.03100
C 	C 	0.19140 0.12760 0.63060 0.07400
H 	H 	0.20800 0.13980 0.73780 -0.02200
N 	N 	0.61910 0.57560 0.58200 -0.15700
H 	H 	0.88800 0.72800 0.62400 0.04700
C 	C 	0.69140 0.62760 0.63060 0.08600
H 	H 	0.70800 0.63980 0.73780 -0.00700
N 	N 	0.11910 0.92440 0.91800 -0.16000
H 	H 	0.38800 0.77200 0.87600 0.01700
C 	C 	0.19140 0.87240 0.86940 0.05300
H 	H 	0.20800 0.86020 0.76220 -0.00400
N 	N 	0.61910 0.42440 0.91800 -0.16400
H 	H 	0.88800 0.27200 0.87600 0.03100
C 	C 	0.69140 0.37240 0.86940 0.05900
H 	H 	0.70800 0.36020 0.76220 0.00400
N 	N 	0.88090 0.07560 0.91800 -0.15400
H 	H 	0.61200 0.22800 0.87600 0.01400
C 	C 	0.80860 0.12760 0.86940 0.06000
H 	H 	0.79200 0.13980 0.76220 0.00600
N 	N 	0.38090 0.57560 0.91800 -0.16800
H 	H 	0.11200 0.72800 0.87600 0.00100
C 	C 	0.30860 0.62760 0.86940 0.05100
H 	H 	0.29200 0.63980 0.76220 -0.00800
Ag	Ag	0.00000 0.00000 0.25000 0.47400
Ag	Ag	0.50000 0.50000 0.25000 0.52700
Ag	Ag	0.00000 0.00000 0.75000 0.46700
Ag	Ag	0.50000 0.50000 0.75000 0.52000
N 	N 	0.23800 0.16080 0.50000 -0.13700
C 	C 	0.31860 0.22460 0.50000 -0.02700
N 	N 	0.73800 0.66080 0.50000 -0.13300
C 	C 	0.81860 0.72460 0.50000 -0.02400
N 	N 	0.76200 0.83920 0.50000 -0.13400
C 	C 	0.68140 0.77540 0.50000 -0.02200
N 	N 	0.26200 0.33920 0.50000 -0.13800
C 	C 	0.18140 0.27540 0.50000 -0.02600
N 	N 	0.76200 0.16080 -0.00000 -0.12100
C 	C 	0.68140 0.22460 -0.00000 -0.00200
N 	N 	0.26200 0.66080 -0.00000 -0.12400
C 	C 	0.18140 0.72460 -0.00000 -0.00500
N 	N 	0.23800 0.83920 -0.00000 -0.12200
C 	C 	0.31860 0.77540 -0.00000 -0.00400
N 	N 	0.73800 0.33920 -0.00000 -0.11900
C 	C 	0.81860 0.27540 -0.00000 -0.00200
