data_crystal

_cell_length_a 10.44250
_cell_length_b 11.49020
_cell_length_c 12.92080
_cell_angle_alpha 106.46200
_cell_angle_beta  90.50300
_cell_angle_gamma 93.33500

_symmetry_space_group_name_	'P 1'
_symmetry_space_group_name_H-M	'P 1'

loop_
_symmetry_equiv_pos_as_xyz
  x,y,z

loop_
_atom_site_label
_atom_site_type_symbol
_atom_site_fract_x
_atom_site_fract_y
_atom_site_fract_z
_atom_site_charge
Pr	Pr	0.52681 0.54603 0.66480 2.03200
O 	O 	0.61501 0.72305 0.81615 -0.46200
O 	O 	0.40551 0.71511 0.78492 -0.43400
O 	O 	0.64775 0.49032 0.49085 -0.62100
O 	O 	0.71430 0.52830 0.34338 -0.44500
O 	O 	0.51270 0.32824 0.58583 -0.53600
O 	O 	0.46010 0.27423 0.41012 -0.49300
C 	C 	0.50680 0.76760 0.83350 0.31600
C 	C 	0.50050 0.88860 0.91840 -0.09900
C 	C 	0.55400 0.99480 0.89850 0.04700
C 	C 	0.60480 0.99500 0.79570 -0.07500
H 	H 	0.60400 0.92090 0.73940 0.07500
C 	C 	0.65430 0.09970 0.77750 -0.02800
H 	H 	0.68670 0.09800 0.70860 0.04200
C 	C 	0.65750 0.21160 0.86140 -0.02900
H 	H 	0.69350 0.28390 0.84830 0.01400
C 	C 	0.60970 0.21580 0.95970 -0.07300
H 	H 	0.61250 0.29120 0.01460 0.04200
C 	C 	0.55480 0.10810 0.98210 0.03800
C 	C 	0.73490 0.51140 0.43410 0.40500
C 	C 	0.87200 0.50610 0.46810 -0.15300
C 	C 	0.92590 0.59580 0.55710 0.03400
C 	C 	0.85540 0.69570 0.61640 -0.09600
H 	H 	0.76990 0.70240 0.59410 0.03700
C 	C 	0.90830 0.78070 0.70380 -0.03800
H 	H 	0.85870 0.84460 0.74310 0.04600
C 	C 	0.03780 0.77530 0.73720 -0.02000
H 	H 	0.07460 0.83630 0.79770 0.04100
C 	C 	0.10900 0.68280 0.68240 -0.09500
H 	H 	0.19500 0.67980 0.70560 0.07700
C 	C 	0.05640 0.59010 0.59080 0.05400
C 	C 	0.48820 0.25200 0.49580 0.44200
C 	C 	0.49370 0.12050 0.49540 -0.13200
C 	C 	0.38670 0.06170 0.52800 0.02100
C 	C 	0.27090 0.12140 0.55460 -0.01400
H 	H 	0.26700 0.20350 0.55360 0.01800
C 	C 	0.16550 0.06170 0.58160 0.00700
H 	H 	0.08760 0.10130 0.59640 0.01600
C 	C 	0.17130 0.94120 0.58780 -0.01600
H 	H 	0.09840 0.90190 0.61000 0.02900
C 	C 	0.27960 0.88120 0.56240 -0.03900
H 	H 	0.28020 0.79940 0.56490 0.05300
C 	C 	0.39490 0.93850 0.53150 0.01300
C 	C 	0.38000 0.05400 0.50490 0.01900
C 	C 	0.25340 0.09930 0.51300 -0.04900
H 	H 	0.24310 0.18000 0.51030 0.04000
C 	C 	0.14990 0.02960 0.52440 -0.04400
H 	H 	0.06800 0.06240 0.53000 0.03100
C 	C 	0.15950 0.90730 0.52820 -0.02700
H 	H 	0.08430 0.86030 0.53610 0.02800
C 	C 	0.27480 0.85790 0.52060 -0.02200
H 	H 	0.28130 0.77600 0.52140 -0.00200
C 	C 	0.38300 0.93000 0.51160 0.02600
Pr	Pr	0.47319 0.45397 0.33520 2.03100
O 	O 	0.38499 0.27695 0.18385 -0.46300
O 	O 	0.59449 0.28489 0.21508 -0.43400
O 	O 	0.35225 0.50968 0.50915 -0.62100
O 	O 	0.28570 0.47170 0.65662 -0.44500
O 	O 	0.48730 0.67176 0.41417 -0.53600
O 	O 	0.53990 0.72577 0.58988 -0.49300
C 	C 	0.49320 0.23240 0.16650 0.31600
C 	C 	0.49950 0.11140 0.08160 -0.09900
C 	C 	0.44600 0.00520 0.10150 0.04700
C 	C 	0.39520 0.00500 0.20430 -0.07500
H 	H 	0.39600 0.07910 0.26060 0.07500
C 	C 	0.34570 0.90030 0.22250 -0.02800
H 	H 	0.31330 0.90200 0.29140 0.04200
C 	C 	0.34250 0.78840 0.13860 -0.02900
H 	H 	0.30650 0.71610 0.15170 0.01400
C 	C 	0.39030 0.78420 0.04030 -0.07300
H 	H 	0.38750 0.70880 0.98540 0.04200
C 	C 	0.44520 0.89190 0.01790 0.03800
C 	C 	0.26510 0.48860 0.56590 0.40500
C 	C 	0.12800 0.49390 0.53190 -0.15300
C 	C 	0.07410 0.40420 0.44290 0.03400
C 	C 	0.14460 0.30430 0.38360 -0.09600
H 	H 	0.23010 0.29760 0.40590 0.03700
C 	C 	0.09170 0.21930 0.29620 -0.03800
H 	H 	0.14130 0.15540 0.25690 0.04600
C 	C 	0.96220 0.22470 0.26280 -0.02000
H 	H 	0.92540 0.16370 0.20230 0.04100
C 	C 	0.89100 0.31720 0.31760 -0.09500
H 	H 	0.80500 0.32020 0.29440 0.07700
C 	C 	0.94360 0.40990 0.40920 0.05400
C 	C 	0.51180 0.74800 0.50420 0.44200
C 	C 	0.50630 0.87950 0.50460 -0.13200
C 	C 	0.61330 0.93830 0.47200 0.02100
C 	C 	0.72910 0.87860 0.44540 -0.01400
H 	H 	0.73300 0.79650 0.44640 0.01800
C 	C 	0.83450 0.93830 0.41840 0.00700
H 	H 	0.91240 0.89870 0.40360 0.01600
C 	C 	0.82870 0.05880 0.41220 -0.01600
H 	H 	0.90160 0.09810 0.39000 0.02900
C 	C 	0.72040 0.11880 0.43760 -0.03900
H 	H 	0.71980 0.20060 0.43510 0.05300
C 	C 	0.60510 0.06150 0.46850 0.01300
C 	C 	0.62000 0.94600 0.49510 0.01900
C 	C 	0.74660 0.90070 0.48700 -0.04900
H 	H 	0.75690 0.82000 0.48970 0.04000
C 	C 	0.85010 0.97040 0.47560 -0.04400
H 	H 	0.93200 0.93760 0.47000 0.03100
C 	C 	0.84050 0.09270 0.47180 -0.02700
H 	H 	0.91570 0.13970 0.46390 0.02800
C 	C 	0.72520 0.14210 0.47940 -0.02200
H 	H 	0.71870 0.22400 0.47860 -0.00200
C 	C 	0.61700 0.07000 0.48840 0.02600
