data_crystal

_cell_length_a 10.45110
_cell_length_b 11.52520
_cell_length_c 12.97670
_cell_angle_alpha 106.48700
_cell_angle_beta  90.20200
_cell_angle_gamma 93.46000

_symmetry_space_group_name_	'P 1'
_symmetry_space_group_name_H-M	'P 1'

loop_
_symmetry_equiv_pos_as_xyz
  x,y,z

loop_
_atom_site_label
_atom_site_type_symbol
_atom_site_fract_x
_atom_site_fract_y
_atom_site_fract_z
_atom_site_charge
Ce	Ce	0.52662 0.54629 0.66503 2.10400
O 	O 	0.61480 0.72386 0.81689 -0.47100
O 	O 	0.40563 0.71658 0.78693 -0.44000
O 	O 	0.64595 0.49083 0.49178 -0.62100
O 	O 	0.71564 0.52709 0.34353 -0.45200
O 	O 	0.51180 0.32731 0.58558 -0.54300
O 	O 	0.46141 0.27339 0.41021 -0.49700
C 	C 	0.50690 0.76850 0.83490 0.32000
C 	C 	0.50060 0.88840 0.91880 -0.10200
C 	C 	0.55340 0.99490 0.89840 0.04700
C 	C 	0.60390 0.99500 0.79570 -0.07600
H 	H 	0.60320 0.92120 0.73960 0.07400
C 	C 	0.65260 0.09900 0.77770 -0.02800
H 	H 	0.68500 0.09730 0.70900 0.04100
C 	C 	0.65570 0.21080 0.86040 -0.03000
H 	H 	0.69120 0.28280 0.84690 0.01100
C 	C 	0.60810 0.21510 0.95850 -0.07400
H 	H 	0.61070 0.29040 0.01290 0.04100
C 	C 	0.55410 0.10810 0.98180 0.03900
C 	C 	0.73670 0.51100 0.43240 0.38500
C 	C 	0.87250 0.50600 0.46790 -0.14900
C 	C 	0.92540 0.59530 0.55680 0.03200
C 	C 	0.85390 0.69400 0.61560 -0.09500
H 	H 	0.76830 0.69990 0.59350 0.03300
C 	C 	0.90680 0.77950 0.70270 -0.04100
H 	H 	0.85760 0.84370 0.74140 0.04600
C 	C 	0.03540 0.77330 0.73610 -0.01900
H 	H 	0.07140 0.83360 0.79690 0.04000
C 	C 	0.10710 0.68220 0.68200 -0.09500
H 	H 	0.19300 0.67990 0.70500 0.07500
C 	C 	0.05540 0.58970 0.59080 0.05300
C 	C 	0.48850 0.25130 0.49600 0.44300
C 	C 	0.49360 0.12030 0.49563 -0.13300
C 	C 	0.38380 0.06060 0.52630 0.02800
C 	C 	0.26910 0.11950 0.55180 -0.01500
H 	H 	0.26550 0.20140 0.55110 0.01700
C 	C 	0.16420 0.06010 0.57740 0.00800
H 	H 	0.08630 0.09960 0.59200 0.01500
C 	C 	0.16910 0.93910 0.58270 -0.00800
H 	H 	0.09500 0.89880 0.60210 0.02500
C 	C 	0.27950 0.88020 0.55990 -0.03500
H 	H 	0.28100 0.79930 0.56390 0.04800
C 	C 	0.39300 0.93730 0.53030 0.01100
C 	C 	0.38800 0.05400 0.50500 0.01300
C 	C 	0.25500 0.09830 0.51140 -0.04900
H 	H 	0.24430 0.17850 0.50810 0.04100
C 	C 	0.14900 0.02730 0.52180 -0.04700
H 	H 	0.06670 0.05900 0.52640 0.03200
C 	C 	0.16090 0.90570 0.52580 -0.03300
H 	H 	0.08590 0.85870 0.53400 0.02900
C 	C 	0.27250 0.85650 0.51840 -0.02400
H 	H 	0.27900 0.77490 0.51910 0.00100
C 	C 	0.38600 0.93400 0.50900 0.02600
Ce	Ce	0.47338 0.45371 0.33497 2.10300
O 	O 	0.38520 0.27614 0.18311 -0.47200
O 	O 	0.59437 0.28342 0.21307 -0.44000
O 	O 	0.35405 0.50917 0.50822 -0.62100
O 	O 	0.28436 0.47291 0.65647 -0.45200
O 	O 	0.48820 0.67269 0.41442 -0.54300
O 	O 	0.53859 0.72661 0.58979 -0.49700
C 	C 	0.49310 0.23150 0.16510 0.32000
C 	C 	0.49940 0.11160 0.08120 -0.10200
C 	C 	0.44660 0.00510 0.10160 0.04700
C 	C 	0.39610 0.00500 0.20430 -0.07600
H 	H 	0.39680 0.07880 0.26040 0.07400
C 	C 	0.34740 0.90100 0.22230 -0.02800
H 	H 	0.31500 0.90270 0.29100 0.04100
C 	C 	0.34430 0.78920 0.13960 -0.03000
H 	H 	0.30880 0.71720 0.15310 0.01100
C 	C 	0.39190 0.78490 0.04150 -0.07400
H 	H 	0.38930 0.70960 0.98710 0.04100
C 	C 	0.44590 0.89190 0.01820 0.03900
C 	C 	0.26330 0.48900 0.56760 0.38500
C 	C 	0.12750 0.49400 0.53210 -0.14900
C 	C 	0.07460 0.40470 0.44320 0.03200
C 	C 	0.14610 0.30600 0.38440 -0.09500
H 	H 	0.23170 0.30010 0.40650 0.03300
C 	C 	0.09320 0.22050 0.29730 -0.04100
H 	H 	0.14240 0.15630 0.25860 0.04600
C 	C 	0.96460 0.22670 0.26390 -0.01900
H 	H 	0.92860 0.16640 0.20310 0.04000
C 	C 	0.89290 0.31780 0.31800 -0.09500
H 	H 	0.80700 0.32010 0.29500 0.07500
C 	C 	0.94460 0.41030 0.40920 0.05300
C 	C 	0.51150 0.74870 0.50400 0.44300
C 	C 	0.50640 0.87970 0.50437 -0.13300
C 	C 	0.61620 0.93940 0.47370 0.02800
C 	C 	0.73090 0.88050 0.44820 -0.01500
H 	H 	0.73450 0.79860 0.44890 0.01700
C 	C 	0.83580 0.93990 0.42260 0.00800
H 	H 	0.91370 0.90040 0.40800 0.01500
C 	C 	0.83090 0.06090 0.41730 -0.00800
H 	H 	0.90500 0.10120 0.39790 0.02500
C 	C 	0.72050 0.11980 0.44010 -0.03500
H 	H 	0.71900 0.20070 0.43610 0.04800
C 	C 	0.60700 0.06270 0.46970 0.01100
C 	C 	0.61200 0.94600 0.49500 0.01300
C 	C 	0.74500 0.90170 0.48860 -0.04900
H 	H 	0.75570 0.82150 0.49190 0.04100
C 	C 	0.85100 0.97270 0.47820 -0.04700
H 	H 	0.93330 0.94100 0.47360 0.03200
C 	C 	0.83910 0.09430 0.47420 -0.03300
H 	H 	0.91410 0.14130 0.46600 0.02900
C 	C 	0.72750 0.14350 0.48160 -0.02400
H 	H 	0.72100 0.22510 0.48090 0.00100
C 	C 	0.61400 0.06600 0.49100 0.02600
