data_crystal

_cell_length_a 9.22800
_cell_length_b 34.07900
_cell_length_c 23.29900
_cell_angle_alpha 90.00000
_cell_angle_beta  90.00000
_cell_angle_gamma 90.00000

_symmetry_space_group_name_	'P 1'
_symmetry_space_group_name_H-M	'P 1'

loop_
_symmetry_equiv_pos_as_xyz
  x,y,z

loop_
_atom_site_label
_atom_site_type_symbol
_atom_site_fract_x
_atom_site_fract_y
_atom_site_fract_z
_atom_site_charge
C 	C 	0.00080 0.78170 0.41390 0.04300
H 	H 	0.94390 0.76620 0.43770 -0.02600
C 	C 	0.93690 0.79920 0.36660 -0.12000
H 	H 	0.83840 0.79570 0.35970 0.06000
C 	C 	0.01830 0.82142 0.32976 0.05700
C 	C 	0.16050 0.82640 0.34420 -0.14600
H 	H 	0.21970 0.84180 0.32100 0.07100
C 	C 	0.21840 0.80890 0.39300 0.07500
H 	H 	0.31520 0.81320 0.40220 -0.04300
C 	C 	0.95400 0.83847 0.27735 -0.01100
H 	H 	0.85960 0.82640 0.26970 0.02600
C 	C 	0.94180 0.88465 0.27254 -0.10300
H 	H 	0.84920 0.89130 0.25440 0.05100
C 	C 	0.95870 0.90925 0.32653 0.18400
C 	C 	0.85640 0.90920 0.36790 -0.24500
H 	H 	0.77490 0.89340 0.36390 0.10300
C 	C 	0.87120 0.93200 0.41500 0.14200
H 	H 	0.79680 0.93210 0.44190 -0.06000
C 	C 	0.07990 0.95460 0.38570 0.16100
H 	H 	0.16000 0.97070 0.39070 -0.07000
C 	C 	0.07370 0.93300 0.33620 -0.26400
H 	H 	0.14810 0.93460 0.30940 0.11300
N 	N 	0.13900 0.78625 0.42657 -0.25900
N 	N 	0.98670 0.95437 0.42485 -0.28800
C 	C 	0.50080 0.28170 0.41390 0.10500
H 	H 	0.44390 0.26620 0.43770 -0.05200
C 	C 	0.43690 0.29920 0.36660 -0.19400
H 	H 	0.33840 0.29570 0.35970 0.08400
C 	C 	0.51830 0.32142 0.32976 0.12400
C 	C 	0.66050 0.32640 0.34420 -0.18800
H 	H 	0.71970 0.34180 0.32100 0.08700
C 	C 	0.71840 0.30890 0.39300 0.10000
H 	H 	0.81520 0.31320 0.40220 -0.05100
C 	C 	0.45400 0.33847 0.27735 -0.07200
H 	H 	0.35960 0.32640 0.26970 0.04300
C 	C 	0.44180 0.38465 0.27254 -0.07700
H 	H 	0.34920 0.39130 0.25440 0.04100
C 	C 	0.45870 0.40925 0.32653 0.15200
C 	C 	0.35640 0.40920 0.36790 -0.22800
H 	H 	0.27490 0.39340 0.36390 0.09500
C 	C 	0.37120 0.43200 0.41500 0.12800
H 	H 	0.29680 0.43210 0.44190 -0.05900
C 	C 	0.57990 0.45460 0.38570 0.16000
H 	H 	0.66000 0.47070 0.39070 -0.07200
C 	C 	0.57370 0.43300 0.33620 -0.24000
H 	H 	0.64810 0.43460 0.30940 0.10300
N 	N 	0.63900 0.28625 0.42657 -0.27300
N 	N 	0.48670 0.45437 0.42485 -0.29600
C 	C 	0.99920 0.21830 0.41390 0.16300
H 	H 	0.05610 0.23380 0.43770 -0.07700
C 	C 	0.06310 0.20080 0.36660 -0.26800
H 	H 	0.16160 0.20430 0.35970 0.10800
C 	C 	0.98170 0.17858 0.32976 0.19000
C 	C 	0.83950 0.17360 0.34420 -0.23000
H 	H 	0.78030 0.15820 0.32100 0.10200
C 	C 	0.78160 0.19110 0.39300 0.12600
H 	H 	0.68480 0.18680 0.40220 -0.06100
C 	C 	0.04600 0.16153 0.27735 -0.13500
H 	H 	0.14040 0.17360 0.26970 0.06100
C 	C 	0.05820 0.11535 0.27254 -0.05100
H 	H 	0.15080 0.10870 0.25440 0.03200
C 	C 	0.04130 0.09075 0.32653 0.12100
C 	C 	0.14360 0.09080 0.36790 -0.21100
H 	H 	0.22510 0.10660 0.36390 0.08900
C 	C 	0.12880 0.06800 0.41500 0.11500
H 	H 	0.20320 0.06790 0.44190 -0.05700
C 	C 	0.92010 0.04540 0.38570 0.16000
H 	H 	0.84000 0.02930 0.39070 -0.07500
C 	C 	0.92630 0.06700 0.33620 -0.21500
H 	H 	0.85190 0.06540 0.30940 0.09300
N 	N 	0.86100 0.21375 0.42657 -0.28800
N 	N 	0.01330 0.04563 0.42485 -0.30100
C 	C 	0.49920 0.71830 0.41390 0.10500
H 	H 	0.55610 0.73380 0.43770 -0.05200
C 	C 	0.56310 0.70080 0.36660 -0.19500
H 	H 	0.66160 0.70430 0.35970 0.08500
C 	C 	0.48170 0.67858 0.32976 0.12500
C 	C 	0.33950 0.67360 0.34420 -0.18900
H 	H 	0.28030 0.65820 0.32100 0.08600
C 	C 	0.28160 0.69110 0.39300 0.10100
H 	H 	0.18480 0.68680 0.40220 -0.05300
C 	C 	0.54600 0.66153 0.27735 -0.07300
H 	H 	0.64040 0.67360 0.26970 0.04400
C 	C 	0.55820 0.61535 0.27254 -0.07800
H 	H 	0.65080 0.60870 0.25440 0.04200
C 	C 	0.54130 0.59075 0.32653 0.15300
C 	C 	0.64360 0.59080 0.36790 -0.22900
H 	H 	0.72510 0.60660 0.36390 0.09700
C 	C 	0.62880 0.56800 0.41500 0.12900
H 	H 	0.70320 0.56790 0.44190 -0.05800
C 	C 	0.42010 0.54540 0.38570 0.16000
H 	H 	0.34000 0.52930 0.39070 -0.07400
C 	C 	0.42630 0.56700 0.33620 -0.24000
H 	H 	0.35190 0.56540 0.30940 0.10300
N 	N 	0.36100 0.71375 0.42657 -0.27400
N 	N 	0.51330 0.54563 0.42485 -0.29600
C 	C 	0.99920 0.78170 0.08610 0.16200
H 	H 	0.05610 0.76620 0.06230 -0.09400
C 	C 	0.06310 0.79920 0.13340 -0.27400
H 	H 	0.16160 0.79570 0.14030 0.10600
C 	C 	0.98170 0.82142 0.17024 0.19100
C 	C 	0.83950 0.82640 0.15580 -0.23400
H 	H 	0.78030 0.84180 0.17900 0.10200
C 	C 	0.78160 0.80890 0.10700 0.12400
H 	H 	0.68480 0.81320 0.09780 -0.06900
C 	C 	0.04600 0.83847 0.22265 -0.13500
H 	H 	0.14040 0.82640 0.23030 0.06100
C 	C 	0.05820 0.88465 0.22746 -0.05500
H 	H 	0.15080 0.89130 0.24560 0.03400
C 	C 	0.04130 0.90925 0.17347 0.12500
C 	C 	0.14360 0.90920 0.13210 -0.21800
H 	H 	0.22510 0.89340 0.13610 0.08700
C 	C 	0.12880 0.93200 0.08500 0.11700
H 	H 	0.20320 0.93210 0.05810 -0.07200
C 	C 	0.92010 0.95460 0.11430 0.16300
H 	H 	0.84000 0.97070 0.10930 -0.07500
C 	C 	0.92630 0.93300 0.16380 -0.21900
H 	H 	0.85190 0.93460 0.19060 0.09800
N 	N 	0.86100 0.78625 0.07343 -0.29900
N 	N 	0.01330 0.95437 0.07515 -0.30700
C 	C 	0.49920 0.28170 0.08610 0.10300
H 	H 	0.55610 0.26620 0.06230 -0.06900
C 	C 	0.56310 0.29920 0.13340 -0.20100
H 	H 	0.66160 0.29570 0.14030 0.08300
C 	C 	0.48170 0.32142 0.17024 0.12500
C 	C 	0.33950 0.32640 0.15580 -0.19400
H 	H 	0.28030 0.34180 0.17900 0.08600
C 	C 	0.28160 0.30890 0.10700 0.09900
H 	H 	0.18480 0.31320 0.09780 -0.06300
C 	C 	0.54600 0.33847 0.22265 -0.07400
H 	H 	0.64040 0.32640 0.23030 0.04400
C 	C 	0.55820 0.38465 0.22746 -0.08000
H 	H 	0.65080 0.39130 0.24560 0.04300
C 	C 	0.54130 0.40925 0.17347 0.15500
C 	C 	0.64360 0.40920 0.13210 -0.23600
H 	H 	0.72510 0.39340 0.13610 0.09400
C 	C 	0.62880 0.43200 0.08500 0.12800
H 	H 	0.70320 0.43210 0.05810 -0.07700
C 	C 	0.42010 0.45460 0.11430 0.16100
H 	H 	0.34000 0.47070 0.10930 -0.08200
C 	C 	0.42630 0.43300 0.16380 -0.24600
H 	H 	0.35190 0.43460 0.19060 0.10300
N 	N 	0.36100 0.28625 0.07343 -0.28600
N 	N 	0.51330 0.45437 0.07515 -0.30800
C 	C 	0.00080 0.21830 0.08610 0.04000
H 	H 	0.94390 0.23380 0.06230 -0.04100
C 	C 	0.93690 0.20080 0.13340 -0.12300
H 	H 	0.83840 0.20430 0.14030 0.05600
C 	C 	0.01830 0.17858 0.17024 0.05500
C 	C 	0.16050 0.17360 0.15580 -0.14900
H 	H 	0.21970 0.15820 0.17900 0.07000
C 	C 	0.21840 0.19110 0.10700 0.07200
H 	H 	0.31520 0.18680 0.09780 -0.05300
C 	C 	0.95400 0.16153 0.22265 -0.00900
H 	H 	0.85960 0.17360 0.23030 0.02400
C 	C 	0.94180 0.11535 0.22746 -0.10700
H 	H 	0.84920 0.10870 0.24560 0.05000
C 	C 	0.95870 0.09075 0.17347 0.18600
C 	C 	0.85640 0.09080 0.13210 -0.25500
H 	H 	0.77490 0.10660 0.13610 0.09900
C 	C 	0.87120 0.06800 0.08500 0.13800
H 	H 	0.79680 0.06790 0.05810 -0.08300
C 	C 	0.07990 0.04540 0.11430 0.15900
H 	H 	0.16000 0.02930 0.10930 -0.08600
C 	C 	0.07370 0.06700 0.16380 -0.27400
H 	H 	0.14810 0.06540 0.19060 0.11000
N 	N 	0.13900 0.21375 0.07343 -0.27000
N 	N 	0.98670 0.04563 0.07515 -0.30500
C 	C 	0.50080 0.71830 0.08610 0.10200
H 	H 	0.44390 0.73380 0.06230 -0.06900
C 	C 	0.43690 0.70080 0.13340 -0.20000
H 	H 	0.33840 0.70430 0.14030 0.08100
C 	C 	0.51830 0.67858 0.17024 0.12400
C 	C 	0.66050 0.67360 0.15580 -0.19200
H 	H 	0.71970 0.65820 0.17900 0.08700
C 	C 	0.71840 0.69110 0.10700 0.09800
H 	H 	0.81520 0.68680 0.09780 -0.06000
C 	C 	0.45400 0.66153 0.22265 -0.07300
H 	H 	0.35960 0.67360 0.23030 0.04200
C 	C 	0.44180 0.61535 0.22746 -0.08000
H 	H 	0.34920 0.60870 0.24560 0.04200
C 	C 	0.45870 0.59075 0.17347 0.15400
C 	C 	0.35640 0.59080 0.13210 -0.23600
H 	H 	0.27490 0.60660 0.13610 0.09200
C 	C 	0.37120 0.56800 0.08500 0.12700
H 	H 	0.29680 0.56790 0.05810 -0.07900
C 	C 	0.57990 0.54540 0.11430 0.16100
H 	H 	0.66000 0.52930 0.10930 -0.08100
C 	C 	0.57370 0.56700 0.16380 -0.24600
H 	H 	0.64810 0.56540 0.19060 0.10400
N 	N 	0.63900 0.71375 0.07343 -0.28500
N 	N 	0.48670 0.54563 0.07515 -0.30800
C 	C 	0.99920 0.21830 0.58610 0.16100
H 	H 	0.05610 0.23380 0.56230 -0.07600
C 	C 	0.06310 0.20080 0.63340 -0.26600
H 	H 	0.16160 0.20430 0.64030 0.10800
C 	C 	0.98170 0.17858 0.67024 0.18800
C 	C 	0.83950 0.17360 0.65580 -0.22900
H 	H 	0.78030 0.15820 0.67900 0.10200
C 	C 	0.78160 0.19110 0.60700 0.12500
H 	H 	0.68480 0.18680 0.59780 -0.06000
C 	C 	0.04600 0.16153 0.72265 -0.13300
H 	H 	0.14040 0.17360 0.73030 0.06100
C 	C 	0.05820 0.11535 0.72746 -0.05500
H 	H 	0.15080 0.10870 0.74560 0.03500
C 	C 	0.04130 0.09075 0.67347 0.12400
C 	C 	0.14360 0.09080 0.63210 -0.21300
H 	H 	0.22510 0.10660 0.63610 0.09000
C 	C 	0.12880 0.06800 0.58500 0.11600
H 	H 	0.20320 0.06790 0.55810 -0.05700
C 	C 	0.92010 0.04540 0.61430 0.16100
H 	H 	0.84000 0.02930 0.60930 -0.07600
C 	C 	0.92630 0.06700 0.66380 -0.21800
H 	H 	0.85190 0.06540 0.69060 0.09500
N 	N 	0.86100 0.21375 0.57343 -0.28800
N 	N 	0.01330 0.04563 0.57515 -0.30200
C 	C 	0.49920 0.71830 0.58610 0.10600
H 	H 	0.55610 0.73380 0.56230 -0.05200
C 	C 	0.56310 0.70080 0.63340 -0.19600
H 	H 	0.66160 0.70430 0.64030 0.08600
C 	C 	0.48170 0.67858 0.67024 0.12500
C 	C 	0.33950 0.67360 0.65580 -0.19000
H 	H 	0.28030 0.65820 0.67900 0.08700
C 	C 	0.28160 0.69110 0.60700 0.10100
H 	H 	0.18480 0.68680 0.59780 -0.05300
C 	C 	0.54600 0.66153 0.72265 -0.07300
H 	H 	0.64040 0.67360 0.73030 0.04500
C 	C 	0.55820 0.61535 0.72746 -0.08000
H 	H 	0.65080 0.60870 0.74560 0.04400
C 	C 	0.54130 0.59075 0.67347 0.15500
C 	C 	0.64360 0.59080 0.63210 -0.23000
H 	H 	0.72510 0.60660 0.63610 0.09800
C 	C 	0.62880 0.56800 0.58500 0.13000
H 	H 	0.70320 0.56790 0.55810 -0.05800
C 	C 	0.42010 0.54540 0.61430 0.16100
H 	H 	0.34000 0.52930 0.60930 -0.07400
C 	C 	0.42630 0.56700 0.66380 -0.24200
H 	H 	0.35190 0.56540 0.69060 0.10400
N 	N 	0.36100 0.71375 0.57343 -0.27400
N 	N 	0.51330 0.54563 0.57515 -0.29600
C 	C 	0.00080 0.78170 0.58610 0.04600
H 	H 	0.94390 0.76620 0.56230 -0.02600
C 	C 	0.93690 0.79920 0.63340 -0.12200
H 	H 	0.83840 0.79570 0.64030 0.06100
C 	C 	0.01830 0.82142 0.67024 0.06000
C 	C 	0.16050 0.82640 0.65580 -0.14800
H 	H 	0.21970 0.84180 0.67900 0.07300
C 	C 	0.21840 0.80890 0.60700 0.07600
H 	H 	0.31520 0.81320 0.59780 -0.04300
C 	C 	0.95400 0.83847 0.72265 -0.01400
H 	H 	0.85960 0.82640 0.73030 0.02700
C 	C 	0.94180 0.88465 0.72746 -0.10400
H 	H 	0.84920 0.89130 0.74560 0.05300
C 	C 	0.95870 0.90925 0.67347 0.18400
C 	C 	0.85640 0.90920 0.63210 -0.24500
H 	H 	0.77490 0.89340 0.63610 0.10400
C 	C 	0.87120 0.93200 0.58500 0.14200
H 	H 	0.79680 0.93210 0.55810 -0.06000
C 	C 	0.07990 0.95460 0.61430 0.16100
H 	H 	0.16000 0.97070 0.60930 -0.06900
C 	C 	0.07370 0.93300 0.66380 -0.26400
H 	H 	0.14810 0.93460 0.69060 0.11400
N 	N 	0.13900 0.78625 0.57343 -0.26000
N 	N 	0.98670 0.95437 0.57515 -0.28900
C 	C 	0.50080 0.28170 0.58610 0.10500
H 	H 	0.44390 0.26620 0.56230 -0.05200
C 	C 	0.43690 0.29920 0.63340 -0.19500
H 	H 	0.33840 0.29570 0.64030 0.08400
C 	C 	0.51830 0.32142 0.67024 0.12400
C 	C 	0.66050 0.32640 0.65580 -0.18800
H 	H 	0.71970 0.34180 0.67900 0.08800
C 	C 	0.71840 0.30890 0.60700 0.10100
H 	H 	0.81520 0.31320 0.59780 -0.05000
C 	C 	0.45400 0.33847 0.72265 -0.07200
H 	H 	0.35960 0.32640 0.73030 0.04300
C 	C 	0.44180 0.38465 0.72746 -0.08000
H 	H 	0.34920 0.39130 0.74560 0.04300
C 	C 	0.45870 0.40925 0.67347 0.15400
C 	C 	0.35640 0.40920 0.63210 -0.23000
H 	H 	0.27490 0.39340 0.63610 0.09700
C 	C 	0.37120 0.43200 0.58500 0.12900
H 	H 	0.29680 0.43210 0.55810 -0.05900
C 	C 	0.57990 0.45460 0.61430 0.16100
H 	H 	0.66000 0.47070 0.60930 -0.07200
C 	C 	0.57370 0.43300 0.66380 -0.24100
H 	H 	0.64810 0.43460 0.69060 0.10500
N 	N 	0.63900 0.28625 0.57343 -0.27400
N 	N 	0.48670 0.45437 0.57515 -0.29600
C 	C 	0.00080 0.21830 0.91390 0.04800
H 	H 	0.94390 0.23380 0.93770 -0.00700
C 	C 	0.93690 0.20080 0.86660 -0.11500
H 	H 	0.83840 0.20430 0.85970 0.06400
C 	C 	0.01830 0.17858 0.82976 0.05800
C 	C 	0.16050 0.17360 0.84420 -0.14300
H 	H 	0.21970 0.15820 0.82100 0.07300
C 	C 	0.21840 0.19110 0.89300 0.07800
H 	H 	0.31520 0.18680 0.90220 -0.03100
C 	C 	0.95400 0.16153 0.77735 -0.01200
H 	H 	0.85960 0.17360 0.76970 0.02700
C 	C 	0.94180 0.11535 0.77254 -0.10100
H 	H 	0.84920 0.10870 0.75440 0.05000
C 	C 	0.95870 0.09075 0.82653 0.18000
C 	C 	0.85640 0.09080 0.86790 -0.23800
H 	H 	0.77490 0.10660 0.86390 0.10600
C 	C 	0.87120 0.06800 0.91500 0.14000
H 	H 	0.79680 0.06790 0.94190 -0.04100
C 	C 	0.07990 0.04540 0.88570 0.15700
H 	H 	0.16000 0.02930 0.89070 -0.06600
C 	C 	0.07370 0.06700 0.83620 -0.26000
H 	H 	0.14810 0.06540 0.80940 0.11000
N 	N 	0.13900 0.21375 0.92657 -0.24200
N 	N 	0.98670 0.04563 0.92485 -0.27500
C 	C 	0.50080 0.71830 0.91390 0.10700
H 	H 	0.44390 0.73380 0.93770 -0.03200
C 	C 	0.43690 0.70080 0.86660 -0.18800
H 	H 	0.33840 0.70430 0.85970 0.08700
C 	C 	0.51830 0.67858 0.82976 0.12300
C 	C 	0.66050 0.67360 0.84420 -0.18300
H 	H 	0.71970 0.65820 0.82100 0.08900
C 	C 	0.71840 0.69110 0.89300 0.10300
H 	H 	0.81520 0.68680 0.90220 -0.03800
C 	C 	0.45400 0.66153 0.77735 -0.07200
H 	H 	0.35960 0.67360 0.76970 0.04400
C 	C 	0.44180 0.61535 0.77254 -0.07600
H 	H 	0.34920 0.60870 0.75440 0.04200
C 	C 	0.45870 0.59075 0.82653 0.15100
C 	C 	0.35640 0.59080 0.86790 -0.22100
H 	H 	0.27490 0.60660 0.86390 0.10000
C 	C 	0.37120 0.56800 0.91500 0.13000
H 	H 	0.29680 0.56790 0.94190 -0.03700
C 	C 	0.57990 0.54540 0.88570 0.15900
H 	H 	0.66000 0.52930 0.89070 -0.06100
C 	C 	0.57370 0.56700 0.83620 -0.23300
H 	H 	0.64810 0.56540 0.80940 0.10400
N 	N 	0.63900 0.71375 0.92657 -0.25600
N 	N 	0.48670 0.54563 0.92485 -0.27700
C 	C 	0.99920 0.78170 0.91390 0.16000
H 	H 	0.05610 0.76620 0.93770 -0.05500
C 	C 	0.06310 0.79920 0.86660 -0.25500
H 	H 	0.16160 0.79570 0.85970 0.10900
C 	C 	0.98170 0.82142 0.82976 0.18400
C 	C 	0.83950 0.82640 0.84420 -0.22200
H 	H 	0.78030 0.84180 0.82100 0.10300
C 	C 	0.78160 0.80890 0.89300 0.12600
H 	H 	0.68480 0.81320 0.90220 -0.04700
C 	C 	0.04600 0.83847 0.77735 -0.13000
H 	H 	0.14040 0.82640 0.76970 0.06100
C 	C 	0.05820 0.88465 0.77254 -0.05200
H 	H 	0.15080 0.89130 0.75440 0.03500
C 	C 	0.04130 0.90925 0.82653 0.12300
C 	C 	0.14360 0.90920 0.86790 -0.20400
H 	H 	0.22510 0.89340 0.86390 0.09500
C 	C 	0.12880 0.93200 0.91500 0.12000
H 	H 	0.20320 0.93210 0.94190 -0.03100
C 	C 	0.92010 0.95460 0.88570 0.16100
H 	H 	0.84000 0.97070 0.89070 -0.05600
C 	C 	0.92630 0.93300 0.83620 -0.20800
H 	H 	0.85190 0.93460 0.80940 0.09800
N 	N 	0.86100 0.78625 0.92657 -0.26900
N 	N 	0.01330 0.95437 0.92485 -0.27700
C 	C 	0.49920 0.28170 0.91390 0.10800
H 	H 	0.55610 0.26620 0.93770 -0.03200
C 	C 	0.56310 0.29920 0.86660 -0.18900
H 	H 	0.66160 0.29570 0.85970 0.08800
C 	C 	0.48170 0.32142 0.82976 0.12400
C 	C 	0.33950 0.32640 0.84420 -0.18400
H 	H 	0.28030 0.34180 0.82100 0.08800
C 	C 	0.28160 0.30890 0.89300 0.10300
H 	H 	0.18480 0.31320 0.90220 -0.04100
C 	C 	0.54600 0.33847 0.77735 -0.07300
H 	H 	0.64040 0.32640 0.76970 0.04500
C 	C 	0.55820 0.38465 0.77254 -0.07600
H 	H 	0.65080 0.39130 0.75440 0.04300
C 	C 	0.54130 0.40925 0.82653 0.15100
C 	C 	0.64360 0.40920 0.86790 -0.22100
H 	H 	0.72510 0.39340 0.86390 0.10100
C 	C 	0.62880 0.43200 0.91500 0.13000
H 	H 	0.70320 0.43210 0.94190 -0.03600
C 	C 	0.42010 0.45460 0.88570 0.15900
H 	H 	0.34000 0.47070 0.89070 -0.06200
C 	C 	0.42630 0.43300 0.83620 -0.23400
H 	H 	0.35190 0.43460 0.80940 0.10300
N 	N 	0.36100 0.28625 0.92657 -0.25600
N 	N 	0.51330 0.45437 0.92485 -0.27700
Cd	Cd	0.25000 0.75000 0.50000 1.15500
Cd	Cd	0.75000 0.25000 0.50000 1.15700
Cd	Cd	0.75000 0.75000 -0.00000 1.13200
Cd	Cd	0.25000 0.25000 -0.00000 1.13000
Cd	Cd	-0.00000 0.00000 0.50000 1.14700
Cd	Cd	0.50000 0.50000 0.50000 1.15600
Cd	Cd	-0.00000 0.00000 -0.00000 1.12100
Cd	Cd	0.50000 0.50000 -0.00000 1.13000
