data_crystal

_cell_length_a 8.64620
_cell_length_b 13.15980
_cell_length_c 15.32180
_cell_angle_alpha 115.43300
_cell_angle_beta  94.90690
_cell_angle_gamma 90.00000

_symmetry_space_group_name_	'P 1'
_symmetry_space_group_name_H-M	'P 1'

loop_
_symmetry_equiv_pos_as_xyz
  x,y,z

loop_
_atom_site_label
_atom_site_type_symbol
_atom_site_fract_x
_atom_site_fract_y
_atom_site_fract_z
_atom_site_charge
Cu	Cu	0.96189 0.49390 0.57898 0.91800
Cu	Cu	0.53811 0.91492 0.42102 0.91800
Cu	Cu	0.03811 0.50610 0.42102 0.91800
Cu	Cu	0.46189 0.08508 0.57898 0.91800
H 	H 	0.82340 0.63640 0.77200 -0.00400
H 	H 	0.68290 0.62200 0.88480 0.10500
H 	H 	0.72850 0.29050 0.75440 0.11700
H 	H 	0.86820 0.31450 0.64540 0.00200
H 	H 	0.59610 0.36330 0.90260 0.06600
H 	H 	0.70690 0.24100 0.40900 0.21700
H 	H 	0.59920 0.17070 0.31440 0.20500
H 	H 	0.48840 0.35300 0.47480 -0.05300
H 	H 	0.39420 0.28830 0.37300 -0.07500
H 	H 	0.49500 0.45930 0.38480 0.22300
H 	H 	0.56830 0.35960 0.30140 0.20800
H 	H 	0.67660 0.86440 0.22800 -0.00400
H 	H 	0.81710 0.73720 0.11520 0.10500
H 	H 	0.77150 0.53610 0.24560 0.11700
H 	H 	0.63180 0.66910 0.35460 0.00200
H 	H 	0.90390 0.46070 0.09740 0.06600
H 	H 	0.79310 0.83200 0.59100 0.21800
H 	H 	0.90080 0.85630 0.68560 0.20600
H 	H 	0.01160 0.87820 0.52520 -0.05300
H 	H 	0.10580 0.91530 0.62700 -0.07500
H 	H 	0.00500 0.07450 0.61520 0.22400
H 	H 	0.93170 0.05820 0.69860 0.20800
H 	H 	0.17660 0.36360 0.22800 -0.00400
H 	H 	0.31710 0.37800 0.11520 0.10500
H 	H 	0.27150 0.70950 0.24560 0.11700
H 	H 	0.13180 0.68550 0.35460 0.00200
H 	H 	0.40390 0.63670 0.09740 0.06600
H 	H 	0.29310 0.75900 0.59100 0.21700
H 	H 	0.40080 0.82930 0.68560 0.20500
H 	H 	0.51160 0.64700 0.52520 -0.05300
H 	H 	0.60580 0.71170 0.62700 -0.07500
H 	H 	0.50500 0.54070 0.61520 0.22300
H 	H 	0.43170 0.64040 0.69860 0.20800
H 	H 	0.32340 0.13560 0.77200 -0.00400
H 	H 	0.18290 0.26280 0.88480 0.10500
H 	H 	0.22850 0.46390 0.75440 0.11700
H 	H 	0.36820 0.33090 0.64540 0.00200
H 	H 	0.09610 0.53930 0.90260 0.06600
H 	H 	0.20690 0.16800 0.40900 0.21800
H 	H 	0.09920 0.14370 0.31440 0.20600
H 	H 	0.98840 0.12180 0.47480 -0.05300
H 	H 	0.89420 0.08470 0.37300 -0.07500
H 	H 	0.99500 0.92550 0.38480 0.22400
H 	H 	0.06830 0.94180 0.30140 0.20800
C 	C 	0.80360 0.56520 0.76860 0.11400
C 	C 	0.71930 0.55770 0.83660 -0.19700
C 	C 	0.68900 0.45360 0.83280 0.15000
C 	C 	0.74660 0.36250 0.75940 -0.20300
C 	C 	0.83010 0.37740 0.69440 0.12700
C 	C 	0.60300 0.43470 0.90440 -0.05500
C 	C 	0.55780 0.13260 0.42580 0.49600
C 	C 	0.60090 0.21290 0.38420 -0.56500
C 	C 	0.49750 0.31460 0.40540 0.35100
C 	C 	0.56420 0.39740 0.37120 -0.57500
C 	C 	0.72600 0.44460 0.41940 0.49800
C 	C 	0.69640 0.79660 0.23140 0.11400
C 	C 	0.78070 0.72110 0.16340 -0.19700
C 	C 	0.81100 0.62080 0.16720 0.15000
C 	C 	0.75340 0.60310 0.24060 -0.20300
C 	C 	0.66990 0.68300 0.30560 0.12700
C 	C 	0.89700 0.53030 0.09560 -0.05500
C 	C 	0.94220 0.70680 0.57420 0.49600
C 	C 	0.89910 0.82870 0.61580 -0.56500
C 	C 	0.00250 0.90920 0.59460 0.35200
C 	C 	0.93580 0.02620 0.62880 -0.57700
C 	C 	0.77400 0.02520 0.58060 0.49700
C 	C 	0.19640 0.43480 0.23140 0.11400
C 	C 	0.28070 0.44230 0.16340 -0.19700
C 	C 	0.31100 0.54640 0.16720 0.15000
C 	C 	0.25340 0.63750 0.24060 -0.20300
C 	C 	0.16990 0.62260 0.30560 0.12700
C 	C 	0.39700 0.56530 0.09560 -0.05500
C 	C 	0.44220 0.86740 0.57420 0.49600
C 	C 	0.39910 0.78710 0.61580 -0.56500
C 	C 	0.50250 0.68540 0.59460 0.35100
C 	C 	0.43580 0.60260 0.62880 -0.57500
C 	C 	0.27400 0.55540 0.58060 0.49800
C 	C 	0.30360 0.20340 0.76860 0.11400
C 	C 	0.21930 0.27890 0.83660 -0.19700
C 	C 	0.18900 0.37920 0.83280 0.15000
C 	C 	0.24660 0.39690 0.75940 -0.20300
C 	C 	0.33010 0.31700 0.69440 0.12700
C 	C 	0.10300 0.46970 0.90440 -0.05500
C 	C 	0.05780 0.29320 0.42580 0.49600
C 	C 	0.10090 0.17130 0.38420 -0.56500
C 	C 	0.99750 0.09080 0.40540 0.35200
C 	C 	0.06420 0.97380 0.37120 -0.57700
C 	C 	0.22600 0.97480 0.41940 0.49700
N 	N 	0.85910 0.47780 0.69800 -0.20600
N 	N 	0.53790 0.51750 0.96960 -0.07100
N 	N 	0.64090 0.77980 0.30200 -0.20600
N 	N 	0.96210 0.54790 0.03040 -0.07000
N 	N 	0.14090 0.52220 0.30200 -0.20600
N 	N 	0.46210 0.48250 0.03040 -0.07100
N 	N 	0.35910 0.22020 0.69800 -0.20600
N 	N 	0.03790 0.45210 0.96960 -0.07000
O 	O 	0.51510 0.17520 0.51040 -0.44200
O 	O 	0.75530 0.45818 0.50436 -0.45300
O 	O 	0.57360 0.03040 0.37500 -0.45200
O 	O 	0.81950 0.46257 0.36834 -0.44700
O 	O 	0.98490 0.66480 0.48960 -0.44200
O 	O 	0.74470 0.95382 0.49564 -0.45300
O 	O 	0.92640 0.65540 0.62500 -0.45200
O 	O 	0.68050 0.09423 0.63166 -0.44700
O 	O 	0.48490 0.82480 0.48960 -0.44200
O 	O 	0.24470 0.54182 0.49564 -0.45300
O 	O 	0.42640 0.96960 0.62500 -0.45200
O 	O 	0.18050 0.53743 0.63166 -0.44700
O 	O 	0.01510 0.33520 0.51040 -0.44200
O 	O 	0.25530 0.04618 0.50436 -0.45300
O 	O 	0.07360 0.34460 0.37500 -0.45200
O 	O 	0.31950 0.90577 0.36834 -0.44700
