data_crystal

_cell_length_a 8.13310
_cell_length_b 14.65560
_cell_length_c 16.82570
_cell_angle_alpha 90.00000
_cell_angle_beta  90.00000
_cell_angle_gamma 90.00000

_symmetry_space_group_name_	'P 1'
_symmetry_space_group_name_H-M	'P 1'

loop_
_symmetry_equiv_pos_as_xyz
  x,y,z

loop_
_atom_site_label
_atom_site_type_symbol
_atom_site_fract_x
_atom_site_fract_y
_atom_site_fract_z
_atom_site_charge
Zn	Zn	0.43968 0.52747 0.04526 1.23000
S 	S 	0.83109 0.86405 0.78970 0.54100
O 	O 	0.53130 0.61765 0.96936 -0.41500
O 	O 	0.57270 0.48320 0.91653 -0.32600
O 	O 	0.97500 0.57226 0.60937 -0.43200
O 	O 	0.77300 0.47387 0.63138 -0.29500
O 	O 	0.86380 0.87866 0.87415 -0.42500
O 	O 	0.68610 0.91059 0.76317 -0.26000
O 	O 	0.97480 0.87937 0.74090 -0.26800
N 	N 	0.21770 0.49004 0.00462 -0.25200
N 	N 	0.02780 0.44430 0.92200 -0.21200
H 	H 	0.98000 0.42220 0.88060 0.16700
C 	C 	0.66680 0.61280 0.84495 -0.08200
C 	C 	0.71090 0.56240 0.77818 0.03000
H 	H 	0.68230 0.50110 0.77500 0.06700
C 	C 	0.79630 0.60232 0.71680 -0.08000
C 	C 	0.83690 0.69482 0.72062 0.04100
H 	H 	0.89650 0.72200 0.67980 0.04900
C 	C 	0.78760 0.74572 0.78575 -0.09500
C 	C 	0.70440 0.70510 0.84775 0.04500
H 	H 	0.67340 0.73970 0.89160 0.05300
C 	C 	0.58490 0.56767 0.91425 0.31800
C 	C 	0.84820 0.54404 0.64693 0.32800
C 	C 	0.18680 0.45184 0.93357 0.13800
H 	H 	0.26690 0.43330 0.89760 0.00400
C 	C 	0.06870 0.50560 0.03756 0.00200
H 	H 	0.05260 0.53150 0.08740 0.05400
C 	C 	0.95060 0.47970 0.99060 0.04200
H 	H 	0.83820 0.48370 0.00020 0.03700
Zn	Zn	0.06032 0.47253 0.54526 1.22800
S 	S 	0.66891 0.13595 0.28970 0.54100
O 	O 	0.96870 0.38235 0.46936 -0.41400
O 	O 	0.92730 0.51680 0.41653 -0.32500
O 	O 	0.52500 0.42774 0.10937 -0.43300
O 	O 	0.72700 0.52613 0.13138 -0.29500
O 	O 	0.63620 0.12134 0.37415 -0.42500
O 	O 	0.81390 0.08941 0.26317 -0.26000
O 	O 	0.52520 0.12063 0.24090 -0.26900
N 	N 	0.28230 0.50996 0.50462 -0.25200
N 	N 	0.47220 0.55570 0.42200 -0.21300
H 	H 	0.52000 0.57780 0.38060 0.16700
C 	C 	0.83320 0.38720 0.34495 -0.08200
C 	C 	0.78910 0.43760 0.27818 0.03000
H 	H 	0.81770 0.49890 0.27500 0.06700
C 	C 	0.70370 0.39768 0.21680 -0.08000
C 	C 	0.66310 0.30518 0.22062 0.04100
H 	H 	0.60350 0.27800 0.17980 0.04900
C 	C 	0.71240 0.25428 0.28575 -0.09500
C 	C 	0.79560 0.29490 0.34775 0.04500
H 	H 	0.82660 0.26030 0.39160 0.05300
C 	C 	0.91510 0.43233 0.41425 0.31800
C 	C 	0.65180 0.45596 0.14693 0.32800
C 	C 	0.31320 0.54816 0.43357 0.13700
H 	H 	0.23310 0.56670 0.39760 0.00400
C 	C 	0.43130 0.49440 0.53756 0.00300
H 	H 	0.44740 0.46850 0.58740 0.05500
C 	C 	0.54940 0.52030 0.49060 0.04200
H 	H 	0.66180 0.51630 0.50020 0.03600
Zn	Zn	0.56032 0.02747 0.45474 1.22800
S 	S 	0.16891 0.36405 0.71030 0.54100
O 	O 	0.46870 0.11765 0.53064 -0.41500
O 	O 	0.42730 0.98320 0.58347 -0.32500
O 	O 	0.02500 0.07226 0.89063 -0.43300
O 	O 	0.22700 0.97387 0.86862 -0.29500
O 	O 	0.13620 0.37866 0.62585 -0.42600
O 	O 	0.31390 0.41059 0.73683 -0.26000
O 	O 	0.02520 0.37937 0.75910 -0.26900
N 	N 	0.78230 0.99004 0.49538 -0.25100
N 	N 	0.97220 0.94430 0.57800 -0.21000
H 	H 	0.02000 0.92220 0.61940 0.16500
C 	C 	0.33320 0.11280 0.65505 -0.08200
C 	C 	0.28910 0.06240 0.72182 0.02900
H 	H 	0.31770 0.00110 0.72500 0.06700
C 	C 	0.20370 0.10232 0.78320 -0.08000
C 	C 	0.16310 0.19482 0.77938 0.04100
H 	H 	0.10350 0.22200 0.82020 0.04900
C 	C 	0.21240 0.24572 0.71425 -0.09500
C 	C 	0.29560 0.20510 0.65225 0.04500
H 	H 	0.32660 0.23970 0.60840 0.05300
C 	C 	0.41510 0.06767 0.58575 0.31700
C 	C 	0.15180 0.04404 0.85307 0.32800
C 	C 	0.81320 0.95184 0.56643 0.13700
H 	H 	0.73310 0.93330 0.60240 0.00400
C 	C 	0.93130 0.00560 0.46244 0.00400
H 	H 	0.94740 0.03150 0.41260 0.05400
C 	C 	0.04940 0.97970 0.50940 0.03900
H 	H 	0.16180 0.98370 0.49980 0.03700
Zn	Zn	0.93968 0.97253 0.95474 1.22900
S 	S 	0.33109 0.63595 0.21030 0.54200
O 	O 	0.03130 0.88235 0.03064 -0.41500
O 	O 	0.07270 0.01680 0.08347 -0.33000
O 	O 	0.47500 0.92774 0.39063 -0.43300
O 	O 	0.27300 0.02613 0.36862 -0.29800
O 	O 	0.36380 0.62134 0.12585 -0.42500
O 	O 	0.18610 0.58941 0.23683 -0.26100
O 	O 	0.47480 0.62063 0.25910 -0.26800
N 	N 	0.71770 0.00996 0.99538 -0.25100
N 	N 	0.52780 0.05570 0.07800 -0.21100
H 	H 	0.48000 0.07780 0.11940 0.16600
C 	C 	0.16680 0.88720 0.15505 -0.08400
C 	C 	0.21090 0.93760 0.22182 0.03100
H 	H 	0.18230 0.99890 0.22500 0.06700
C 	C 	0.29630 0.89768 0.28320 -0.08100
C 	C 	0.33690 0.80518 0.27938 0.04200
H 	H 	0.39650 0.77800 0.32020 0.04900
C 	C 	0.28760 0.75428 0.21425 -0.09600
C 	C 	0.20440 0.79490 0.15225 0.04600
H 	H 	0.17340 0.76030 0.10840 0.05200
C 	C 	0.08490 0.93233 0.08575 0.32200
C 	C 	0.34820 0.95596 0.35307 0.33000
C 	C 	0.68680 0.04816 0.06643 0.13500
H 	H 	0.76690 0.06670 0.10240 0.00500
C 	C 	0.56870 0.99440 0.96244 0.00800
H 	H 	0.55260 0.96850 0.91260 0.05300
C 	C 	0.45060 0.02030 0.00940 0.03400
H 	H 	0.33820 0.01630 0.99980 0.04000
