data_crystal

_cell_length_a 15.91600
_cell_length_b 15.74000
_cell_length_c 5.47100
_cell_angle_alpha 90.00000
_cell_angle_beta  90.00000
_cell_angle_gamma 90.00000

_symmetry_space_group_name_	'P 1'
_symmetry_space_group_name_H-M	'P 1'

loop_
_symmetry_equiv_pos_as_xyz
  x,y,z

loop_
_atom_site_label
_atom_site_type_symbol
_atom_site_fract_x
_atom_site_fract_y
_atom_site_fract_z
_atom_site_charge
N 	N 	0.25620 0.11300 0.87890 -0.18400
N 	N 	0.13680 0.00590 0.36670 -0.17200
C 	C 	0.24960 0.15120 0.05800 0.04700
C 	C 	0.24540 0.20210 0.27900 -0.03800
H 	H 	0.29320 0.18880 0.38240 0.05000
H 	H 	0.19470 0.18780 0.36850 -0.01600
C 	C 	0.25300 0.17980 0.96800 0.04500
C 	C 	0.25110 0.25750 0.11300 -0.08100
H 	H 	0.20110 0.28930 0.06940 0.08600
H 	H 	0.29940 0.29210 0.07070 0.00300
C 	C 	0.09860 0.99900 0.18800 0.79800
C 	C 	0.04640 0.98740 0.97300 -0.48500
H 	H 	0.04870 0.92850 0.92140 -0.00300
H 	H 	0.06780 0.02220 0.84020 0.22800
C 	C 	0.07220 0.01100 0.27100 -0.70600
C 	C 	0.99460 0.01200 0.13300 0.27900
H 	H 	0.97020 0.06840 0.14190 -0.18900
H 	H 	0.95540 0.97280 0.20820 0.03200
N 	N 	0.24380 0.88700 0.87890 -0.21300
N 	N 	0.36320 0.99410 0.36670 -0.22700
C 	C 	0.25040 0.84880 0.05800 0.09200
C 	C 	0.25460 0.79790 0.27900 -0.07700
H 	H 	0.20680 0.81120 0.38240 0.02600
H 	H 	0.30530 0.81220 0.36850 -0.01700
C 	C 	0.24700 0.82020 0.96800 -0.02300
C 	C 	0.24890 0.74250 0.11300 -0.05500
H 	H 	0.29890 0.71070 0.06940 0.06500
H 	H 	0.20060 0.70790 0.07070 0.01800
C 	C 	0.40140 0.00100 0.18800 -0.51200
C 	C 	0.45360 0.01260 0.97300 0.33800
H 	H 	0.45130 0.07150 0.92140 0.07000
H 	H 	0.43220 0.97780 0.84020 -0.27000
C 	C 	0.42780 0.98900 0.27100 0.61000
C 	C 	0.50540 0.98800 0.13300 -0.38900
H 	H 	0.52980 0.93160 0.14190 0.21100
H 	H 	0.54460 0.02720 0.20820 -0.02400
N 	N 	0.24380 0.61300 0.62110 -0.19400
N 	N 	0.36320 0.50590 0.13330 -0.19300
C 	C 	0.25040 0.65120 0.44200 0.04800
C 	C 	0.25460 0.70210 0.22100 -0.05300
H 	H 	0.20680 0.68880 0.11760 0.02700
H 	H 	0.30530 0.68780 0.13150 -0.01700
C 	C 	0.24700 0.67980 0.53200 0.02300
C 	C 	0.24890 0.75750 0.38700 -0.05900
H 	H 	0.29890 0.78930 0.43060 0.06500
H 	H 	0.20060 0.79210 0.42930 0.01600
C 	C 	0.40140 0.49900 0.31200 0.02400
C 	C 	0.45360 0.48740 0.52700 -0.07000
H 	H 	0.45130 0.42850 0.57860 0.03400
H 	H 	0.43220 0.52220 0.65980 0.01200
C 	C 	0.42780 0.51100 0.22900 0.05000
C 	C 	0.50540 0.51200 0.36700 -0.04600
H 	H 	0.52980 0.56840 0.35810 0.01400
H 	H 	0.54460 0.47280 0.29180 0.03700
N 	N 	0.25620 0.38700 0.62110 -0.19400
N 	N 	0.13680 0.49410 0.13330 -0.19900
C 	C 	0.24960 0.34880 0.44200 0.10600
C 	C 	0.24540 0.29790 0.22100 -0.06700
H 	H 	0.29320 0.31120 0.11760 0.05500
H 	H 	0.19470 0.31220 0.13150 -0.02100
C 	C 	0.25300 0.32020 0.53200 -0.02000
C 	C 	0.25110 0.24250 0.38700 -0.06500
H 	H 	0.20110 0.21070 0.43060 0.07500
H 	H 	0.29940 0.20790 0.42930 0.00600
C 	C 	0.09860 0.50100 0.31200 0.27900
C 	C 	0.04640 0.51260 0.52700 -0.08000
H 	H 	0.04870 0.57150 0.57860 0.03300
H 	H 	0.06780 0.47780 0.65980 -0.04700
C 	C 	0.07220 0.48900 0.22900 -0.16200
C 	C 	0.99460 0.48800 0.36700 -0.06100
H 	H 	0.97020 0.43160 0.35810 0.01000
H 	H 	0.95540 0.52720 0.29180 -0.03200
N 	N 	0.74380 0.88700 0.12110 -0.21000
N 	N 	0.86320 0.99410 0.63330 -0.22100
C 	C 	0.75040 0.84880 0.94200 0.10400
C 	C 	0.75460 0.79790 0.72100 -0.07000
H 	H 	0.70680 0.81120 0.61760 0.05000
H 	H 	0.80530 0.81220 0.63150 -0.04000
C 	C 	0.74700 0.82020 0.03200 -0.03800
C 	C 	0.74890 0.74250 0.88700 -0.06400
H 	H 	0.79890 0.71070 0.93060 0.07600
H 	H 	0.70060 0.70790 0.92930 -0.00300
C 	C 	0.90140 0.00100 0.81200 -0.76200
C 	C 	0.95360 0.01260 0.02700 0.34600
H 	H 	0.95130 0.07150 0.07860 0.07500
H 	H 	0.93220 0.97780 0.15980 -0.20900
C 	C 	0.92780 0.98900 0.72900 0.81900
C 	C 	0.00540 0.98800 0.86700 -0.37300
H 	H 	0.02980 0.93160 0.85810 0.21800
H 	H 	0.04460 0.02720 0.79180 0.03800
N 	N 	0.75620 0.11300 0.12110 -0.18200
N 	N 	0.63680 0.00590 0.63330 -0.16600
C 	C 	0.74960 0.15120 0.94200 0.05800
C 	C 	0.74540 0.20210 0.72100 -0.03100
H 	H 	0.79320 0.18880 0.61760 0.07300
H 	H 	0.69470 0.18780 0.63150 -0.04000
C 	C 	0.75300 0.17980 0.03200 0.03100
C 	C 	0.75110 0.25750 0.88700 -0.09000
H 	H 	0.70110 0.28930 0.93060 0.09800
H 	H 	0.79940 0.29210 0.92930 -0.01900
C 	C 	0.59860 0.99900 0.81200 0.56100
C 	C 	0.54640 0.98740 0.02700 -0.47900
H 	H 	0.54870 0.92850 0.07860 -0.00300
H 	H 	0.56780 0.02220 0.15980 0.28500
C 	C 	0.57220 0.01100 0.72900 -0.51100
C 	C 	0.49460 0.01200 0.86700 0.29600
H 	H 	0.47020 0.06840 0.85810 -0.17700
H 	H 	0.45540 0.97280 0.79180 0.09900
N 	N 	0.75620 0.38700 0.37890 -0.19200
N 	N 	0.63680 0.49410 0.86670 -0.19200
C 	C 	0.74960 0.34880 0.55800 0.10500
C 	C 	0.74540 0.29790 0.77900 -0.05400
H 	H 	0.79320 0.31120 0.88240 0.07500
H 	H 	0.69470 0.31220 0.86850 -0.04100
C 	C 	0.75300 0.32020 0.46800 -0.01900
C 	C 	0.75110 0.24250 0.61300 -0.08100
H 	H 	0.70110 0.21070 0.56940 0.09400
H 	H 	0.79940 0.20790 0.57070 -0.01700
C 	C 	0.59860 0.50100 0.68800 0.02000
C 	C 	0.54640 0.51260 0.47300 -0.06800
H 	H 	0.54870 0.57150 0.42140 0.03500
H 	H 	0.56780 0.47780 0.34020 0.01000
C 	C 	0.57220 0.48900 0.77100 0.05500
C 	C 	0.49460 0.48800 0.63300 -0.04900
H 	H 	0.47020 0.43160 0.64190 0.02000
H 	H 	0.45540 0.52720 0.70820 0.03300
N 	N 	0.74380 0.61300 0.37890 -0.19200
N 	N 	0.86320 0.50590 0.86670 -0.18600
C 	C 	0.75040 0.65120 0.55800 0.04600
C 	C 	0.75460 0.70210 0.77900 -0.04000
H 	H 	0.70680 0.68880 0.88240 0.04600
H 	H 	0.80530 0.68780 0.86850 -0.03700
C 	C 	0.74700 0.67980 0.46800 0.02500
C 	C 	0.74890 0.75750 0.61300 -0.07500
H 	H 	0.79890 0.78930 0.56940 0.08300
H 	H 	0.70060 0.79210 0.57070 -0.00600
C 	C 	0.90140 0.49900 0.68800 -0.23400
C 	C 	0.95360 0.48740 0.47300 -0.05800
H 	H 	0.95130 0.42850 0.42140 0.03500
H 	H 	0.93220 0.52220 0.34020 0.06900
C 	C 	0.92780 0.51100 0.77100 0.26600
C 	C 	0.00540 0.51200 0.63300 -0.03400
H 	H 	0.02980 0.56840 0.64190 0.02500
H 	H 	0.04460 0.47280 0.70820 0.10200
Ag	Ag	0.25000 0.00000 0.62102 0.57500
Ag	Ag	0.25000 0.50000 0.87898 0.54400
Ag	Ag	0.75000 -0.00000 0.37898 0.57600
Ag	Ag	0.75000 0.50000 0.12102 0.54600
