data_crystal

_cell_length_a 15.07800
_cell_length_b 15.07800
_cell_length_c 5.70000
_cell_angle_alpha 90.00000
_cell_angle_beta  90.00000
_cell_angle_gamma 90.00000

_symmetry_space_group_name_	'P 1'
_symmetry_space_group_name_H-M	'P 1'

loop_
_symmetry_equiv_pos_as_xyz
  x,y,z

loop_
_atom_site_label
_atom_site_type_symbol
_atom_site_fract_x
_atom_site_fract_y
_atom_site_fract_z
_atom_site_charge
H 	H 	0.70220 0.30240 0.41650 0.06600
H 	H 	0.20220 0.80240 0.91650 0.05900
H 	H 	0.79780 0.69760 0.91650 0.05900
H 	H 	0.29780 0.19760 0.41650 0.06600
H 	H 	0.94760 0.45220 0.66650 0.06900
H 	H 	0.44760 0.95220 0.16650 0.06600
H 	H 	0.55240 0.54780 0.16650 0.06700
H 	H 	0.05240 0.04780 0.66650 0.06800
H 	H 	0.79780 0.30240 0.08350 0.05600
H 	H 	0.29780 0.80240 0.58350 0.06900
H 	H 	0.70220 0.69760 0.58350 0.06900
H 	H 	0.20220 0.19760 0.08350 0.05600
H 	H 	0.55240 0.45220 0.83350 0.06100
H 	H 	0.05240 0.95220 0.33350 0.06000
H 	H 	0.94760 0.54780 0.33350 0.06300
H 	H 	0.44760 0.04780 0.83350 0.06200
H 	H 	0.29780 0.69760 0.58350 0.06900
H 	H 	0.79780 0.19760 0.08350 0.05600
H 	H 	0.20220 0.30240 0.08350 0.05600
H 	H 	0.70220 0.80240 0.58350 0.06900
H 	H 	0.05240 0.54780 0.33350 0.06100
H 	H 	0.55240 0.04780 0.83350 0.06200
H 	H 	0.44760 0.45220 0.83350 0.06100
H 	H 	0.94760 0.95220 0.33350 0.06200
H 	H 	0.20220 0.69760 0.91650 0.06000
H 	H 	0.70220 0.19760 0.41650 0.06700
H 	H 	0.29780 0.30240 0.41650 0.06700
H 	H 	0.79780 0.80240 0.91650 0.06000
H 	H 	0.44760 0.54780 0.16650 0.06700
H 	H 	0.94760 0.04780 0.66650 0.07000
H 	H 	0.05240 0.45220 0.66650 0.06800
H 	H 	0.55240 0.95220 0.16650 0.06600
Ag	Ag	-0.00000 0.25000 0.87500 0.55100
Ag	Ag	0.50000 0.75000 0.37500 0.54500
Ag	Ag	0.00000 0.75000 0.12500 0.53900
Ag	Ag	0.50000 0.25000 0.62500 0.54600
N 	N 	0.88300 0.25000 0.62800 -0.20000
C 	C 	0.82300 0.25000 0.50000 0.10000
C 	C 	0.73700 0.25000 0.37800 -0.16600
N 	N 	0.61700 0.75000 0.12800 -0.19900
C 	C 	0.67700 0.75000 -0.00000 0.07300
C 	C 	0.76300 0.75000 0.87800 -0.13000
N 	N 	0.00000 0.63300 0.87800 -0.19800
C 	C 	-0.00000 0.57300 0.75000 0.10000
C 	C 	0.00000 0.48700 0.62800 -0.16400
N 	N 	0.50000 0.13300 0.37800 -0.20300
C 	C 	0.50000 0.07300 0.25000 0.09500
C 	C 	0.50000 0.98700 0.12800 -0.17400
N 	N 	0.50000 0.36700 0.37800 -0.20300
C 	C 	0.50000 0.42700 0.25000 0.09700
C 	C 	0.50000 0.51300 0.12800 -0.17800
N 	N 	-0.00000 0.86700 0.87800 -0.19900
C 	C 	-0.00000 0.92700 0.75000 0.10100
C 	C 	-0.00000 0.01300 0.62800 -0.16700
N 	N 	0.61700 0.25000 0.87200 -0.18900
C 	C 	0.67700 0.25000 -0.00000 0.07500
C 	C 	0.76300 0.25000 0.12200 -0.14100
N 	N 	0.88300 0.75000 0.37200 -0.20400
C 	C 	0.82300 0.75000 0.50000 0.09900
C 	C 	0.73700 0.75000 0.62200 -0.17000
N 	N 	0.38300 0.25000 0.87200 -0.18900
C 	C 	0.32300 0.25000 -0.00000 0.07500
C 	C 	0.23700 0.25000 0.12200 -0.14000
N 	N 	0.50000 0.63300 0.62200 -0.20000
C 	C 	0.50000 0.57300 0.75000 0.09500
C 	C 	0.50000 0.48700 0.87200 -0.13600
N 	N 	-0.00000 0.13300 0.12200 -0.20500
C 	C 	-0.00000 0.07300 0.25000 0.09100
C 	C 	0.00000 0.98700 0.37200 -0.15200
N 	N 	-0.00000 0.36700 0.12200 -0.20500
C 	C 	0.00000 0.42700 0.25000 0.09200
C 	C 	0.00000 0.51300 0.37200 -0.15500
N 	N 	0.50000 0.86700 0.62200 -0.20000
C 	C 	0.50000 0.92700 0.75000 0.09700
C 	C 	0.50000 0.01300 0.87200 -0.14100
N 	N 	0.11700 0.75000 0.37200 -0.20500
C 	C 	0.17700 0.75000 0.50000 0.09900
C 	C 	0.26300 0.75000 0.62200 -0.17000
N 	N 	0.38300 0.75000 0.12800 -0.19900
C 	C 	0.32300 0.75000 -0.00000 0.07300
C 	C 	0.23700 0.75000 0.87800 -0.13000
N 	N 	0.11700 0.25000 0.62800 -0.20100
C 	C 	0.17700 0.25000 0.50000 0.09900
C 	C 	0.26300 0.25000 0.37800 -0.16600
