data_crystal

_cell_length_a 16.37800
_cell_length_b 16.16000
_cell_length_c 5.27700
_cell_angle_alpha 90.00000
_cell_angle_beta  90.00000
_cell_angle_gamma 90.00000

_symmetry_space_group_name_	'P 1'
_symmetry_space_group_name_H-M	'P 1'

loop_
_symmetry_equiv_pos_as_xyz
  x,y,z

loop_
_atom_site_label
_atom_site_type_symbol
_atom_site_fract_x
_atom_site_fract_y
_atom_site_fract_z
_atom_site_charge
N 	N 	0.25320 0.11040 0.88470 -0.20900
N 	N 	0.13890 0.00360 0.35850 -0.22900
C 	C 	0.24860 0.15220 0.05900 0.04600
C 	C 	0.24540 0.20390 0.28440 -0.05300
H 	H 	0.29210 0.19200 0.39120 0.04700
H 	H 	0.19630 0.19110 0.37980 -0.01000
C 	C 	0.25900 0.17640 0.96600 0.01600
C 	C 	0.25100 0.25500 0.10200 -0.08300
H 	H 	0.20110 0.28220 0.05060 0.05800
H 	H 	0.29640 0.29070 0.05340 -0.00300
C 	C 	0.09920 0.99740 0.18200 -0.65600
C 	C 	0.04550 0.99530 0.96280 0.46200
H 	H 	0.05300 0.94330 0.87400 -0.18300
H 	H 	0.06040 0.03970 0.84800 -0.03600
C 	C 	0.07640 0.01030 0.26500 0.73300
C 	C 	0.99760 0.01270 0.13600 -0.50700
H 	H 	0.97580 0.06850 0.14600 0.02900
H 	H 	0.95990 0.97630 0.22390 0.31400
N 	N 	0.24680 0.88960 0.88470 -0.16600
N 	N 	0.36110 0.99640 0.35850 -0.14800
C 	C 	0.25140 0.84780 0.05900 0.00700
C 	C 	0.25460 0.79610 0.28440 -0.01300
H 	H 	0.20790 0.80800 0.39120 0.08000
H 	H 	0.30370 0.80890 0.37980 -0.01000
C 	C 	0.24100 0.82360 0.96600 0.08500
C 	C 	0.24900 0.74500 0.10200 -0.10200
H 	H 	0.29890 0.71780 0.05060 0.07100
H 	H 	0.20360 0.70930 0.05340 -0.01800
C 	C 	0.40080 0.00260 0.18200 0.54200
C 	C 	0.45450 0.00470 0.96280 -0.66800
H 	H 	0.44700 0.05670 0.87400 0.33500
H 	H 	0.43960 0.96030 0.84800 0.09000
C 	C 	0.42360 0.98970 0.26500 -0.47900
C 	C 	0.50240 0.98730 0.13600 0.39300
H 	H 	0.52420 0.93150 0.14600 0.09700
H 	H 	0.54010 0.02370 0.22390 -0.20700
N 	N 	0.24680 0.61040 0.61530 -0.19500
N 	N 	0.36110 0.50360 0.14150 -0.19400
C 	C 	0.25140 0.65220 0.44100 0.08500
C 	C 	0.25460 0.70390 0.21560 -0.05200
H 	H 	0.20790 0.69200 0.10880 0.07700
H 	H 	0.30370 0.69110 0.12020 -0.00900
C 	C 	0.24100 0.67640 0.53400 -0.00000
C 	C 	0.24900 0.75500 0.39800 -0.08900
H 	H 	0.29890 0.78220 0.44940 0.06500
H 	H 	0.20360 0.79070 0.44660 -0.02200
C 	C 	0.40080 0.49740 0.31800 0.04800
C 	C 	0.45450 0.49530 0.53720 -0.05900
H 	H 	0.44700 0.44330 0.62600 0.02200
H 	H 	0.43960 0.53970 0.65200 0.00800
C 	C 	0.42360 0.51030 0.23500 0.02800
C 	C 	0.50240 0.51270 0.36400 -0.05800
H 	H 	0.52420 0.56850 0.35400 0.02800
H 	H 	0.54010 0.47630 0.27610 0.04200
N 	N 	0.25320 0.38960 0.61530 -0.19400
N 	N 	0.13890 0.49640 0.14150 -0.19600
C 	C 	0.24860 0.34780 0.44100 0.04100
C 	C 	0.24540 0.29610 0.21560 -0.04000
H 	H 	0.29210 0.30800 0.10880 0.05000
H 	H 	0.19630 0.30890 0.12020 -0.01400
C 	C 	0.25900 0.32360 0.53400 0.02600
C 	C 	0.25100 0.24500 0.39800 -0.07200
H 	H 	0.20110 0.21780 0.44940 0.05000
H 	H 	0.29640 0.20930 0.44660 -0.00700
C 	C 	0.09920 0.50260 0.31800 -0.13500
C 	C 	0.04550 0.50470 0.53720 -0.14200
H 	H 	0.05300 0.55670 0.62600 0.11900
H 	H 	0.06040 0.46030 0.65200 0.04000
C 	C 	0.07640 0.48970 0.23500 0.19500
C 	C 	0.99760 0.48730 0.36400 -0.06500
H 	H 	0.97580 0.43150 0.35400 0.10900
H 	H 	0.95990 0.52370 0.27610 0.07600
N 	N 	0.74680 0.88960 0.11530 -0.16600
N 	N 	0.86110 0.99640 0.64150 -0.14800
C 	C 	0.75140 0.84780 0.94100 0.03700
C 	C 	0.75460 0.79610 0.71560 -0.02900
H 	H 	0.70790 0.80800 0.60880 0.05900
H 	H 	0.80370 0.80890 0.62020 0.00300
C 	C 	0.74100 0.82360 0.03400 0.05900
C 	C 	0.74900 0.74500 0.89800 -0.08400
H 	H 	0.79890 0.71780 0.94940 0.06300
H 	H 	0.70360 0.70930 0.94660 0.00300
C 	C 	0.90080 0.00260 0.81800 0.72300
C 	C 	0.95450 0.00470 0.03720 -0.58900
H 	H 	0.94700 0.05670 0.12600 0.24400
H 	H 	0.93960 0.96030 0.15200 0.06300
C 	C 	0.92360 0.98970 0.73500 -0.64200
C 	C 	0.00240 0.98730 0.86400 0.38900
H 	H 	0.02420 0.93150 0.85400 0.01600
H 	H 	0.04010 0.02370 0.77610 -0.23300
N 	N 	0.75320 0.11040 0.11530 -0.21100
N 	N 	0.63890 0.00360 0.64150 -0.22800
C 	C 	0.74860 0.15220 0.94100 0.07600
C 	C 	0.74540 0.20390 0.71560 -0.06800
H 	H 	0.79210 0.19200 0.60880 0.02600
H 	H 	0.69630 0.19110 0.62020 0.00300
C 	C 	0.75900 0.17640 0.03400 -0.01000
C 	C 	0.75100 0.25500 0.89800 -0.06600
H 	H 	0.70110 0.28220 0.94940 0.05000
H 	H 	0.79640 0.29070 0.94660 0.01800
C 	C 	0.59920 0.99740 0.81800 -0.46400
C 	C 	0.54550 0.99530 0.03720 0.54300
H 	H 	0.55300 0.94330 0.12600 -0.27800
H 	H 	0.56040 0.03970 0.15200 -0.06500
C 	C 	0.57640 0.01030 0.73500 0.55800
C 	C 	0.49760 0.01270 0.86400 -0.51300
H 	H 	0.47580 0.06850 0.85400 -0.04800
H 	H 	0.45990 0.97630 0.77610 0.29100
N 	N 	0.75320 0.38960 0.38470 -0.19500
N 	N 	0.63890 0.49640 0.85850 -0.19500
C 	C 	0.74860 0.34780 0.55900 0.04300
C 	C 	0.74540 0.29610 0.78440 -0.04600
H 	H 	0.79210 0.30800 0.89120 0.02800
H 	H 	0.69630 0.30890 0.87980 -0.00000
C 	C 	0.75900 0.32360 0.46600 0.03000
C 	C 	0.75100 0.24500 0.60200 -0.06600
H 	H 	0.70110 0.21780 0.55060 0.04900
H 	H 	0.79640 0.20930 0.55340 0.01700
C 	C 	0.59920 0.50260 0.68200 0.04800
C 	C 	0.54550 0.50470 0.46280 -0.06400
H 	H 	0.55300 0.55670 0.37400 0.02600
H 	H 	0.56040 0.46030 0.34800 0.01000
C 	C 	0.57640 0.48970 0.76500 0.03000
C 	C 	0.49760 0.48730 0.63600 -0.06300
H 	H 	0.47580 0.43150 0.64600 0.02800
H 	H 	0.45990 0.52370 0.72390 0.04600
N 	N 	0.74680 0.61040 0.38470 -0.19600
N 	N 	0.86110 0.50360 0.85850 -0.19300
C 	C 	0.75140 0.65220 0.55900 0.08600
C 	C 	0.75460 0.70390 0.78440 -0.05800
H 	H 	0.70790 0.69200 0.89120 0.05500
H 	H 	0.80370 0.69110 0.87980 0.00400
C 	C 	0.74100 0.67640 0.46600 0.00300
C 	C 	0.74900 0.75500 0.60200 -0.08200
H 	H 	0.79890 0.78220 0.55060 0.06300
H 	H 	0.70360 0.79070 0.55340 0.00300
C 	C 	0.90080 0.49740 0.68200 0.23200
C 	C 	0.95450 0.49530 0.46280 0.01800
H 	H 	0.94700 0.44330 0.37400 -0.07000
H 	H 	0.93960 0.53970 0.34800 -0.02200
C 	C 	0.92360 0.51030 0.76500 -0.13800
C 	C 	0.00240 0.51270 0.63600 -0.05600
H 	H 	0.02420 0.56850 0.64600 -0.05400
H 	H 	0.04010 0.47630 0.72390 0.01200
Ag	Ag	0.25000 0.00000 0.61884 0.50200
Ag	Ag	0.25000 0.50000 0.88116 0.54400
Ag	Ag	0.75000 0.00000 0.38116 0.50200
Ag	Ag	0.75000 0.50000 0.11884 0.54600
