data_crystal

_cell_length_a 10.92000
_cell_length_b 12.84200
_cell_length_c 13.27900
_cell_angle_alpha 90.00000
_cell_angle_beta  90.00000
_cell_angle_gamma 90.00000

_symmetry_space_group_name_	'P 1'
_symmetry_space_group_name_H-M	'P 1'

loop_
_symmetry_equiv_pos_as_xyz
  x,y,z

loop_
_atom_site_label
_atom_site_type_symbol
_atom_site_fract_x
_atom_site_fract_y
_atom_site_fract_z
_atom_site_charge
N 	N 	0.62960 0.39070 0.21090 -0.21800
C 	C 	0.55600 0.44320 0.18170 0.12800
C 	C 	0.47120 0.51690 0.14070 -0.23800
H 	H 	0.47140 0.57830 0.18320 0.08300
H 	H 	0.38970 0.48710 0.14350 0.08600
C 	C 	0.49700 0.55140 0.03070 -0.03600
H 	H 	0.57410 0.58870 0.02650 0.02700
H 	H 	0.43210 0.59600 0.00600 0.02600
C 	C 	0.44060 0.48900 0.02990 -0.01200
H 	H 	0.41750 0.41630 0.02410 0.00400
H 	H 	0.37390 0.53180 0.00510 0.01600
N 	N 	0.85590 0.28890 0.39040 -0.21700
C 	C 	0.92020 0.31280 0.45260 0.12600
C 	C 	0.01280 0.35260 0.51780 -0.23700
H 	H 	0.08290 0.30620 0.51490 0.08500
H 	H 	0.98190 0.35120 0.58630 0.08300
C 	C 	0.05720 0.46450 0.49400 -0.04300
H 	H 	0.08970 0.46850 0.42650 0.02900
H 	H 	0.12070 0.48530 0.54130 0.02800
C 	C 	0.99000 0.46750 0.54860 -0.00800
H 	H 	0.04750 0.48870 0.60050 0.01500
H 	H 	0.90760 0.47640 0.57390 0.00500
N 	N 	0.62960 0.10930 0.28910 -0.21900
C 	C 	0.55600 0.05680 0.31830 0.12700
C 	C 	0.47120 0.98310 0.35930 -0.23900
H 	H 	0.47140 0.92170 0.31680 0.08200
H 	H 	0.38970 0.01290 0.35650 0.08600
C 	C 	0.49700 0.94860 0.46930 -0.03600
H 	H 	0.57410 0.91130 0.47350 0.02700
H 	H 	0.43210 0.90400 0.49400 0.02700
C 	C 	0.44060 0.01100 0.47010 -0.01200
H 	H 	0.41750 0.08370 0.47590 0.00400
H 	H 	0.37390 0.96820 0.49490 0.01600
N 	N 	0.85590 0.21110 0.10960 -0.21700
C 	C 	0.92020 0.18720 0.04740 0.12500
C 	C 	0.01280 0.14740 0.98220 -0.23000
H 	H 	0.08290 0.19380 0.98510 0.08300
H 	H 	0.98190 0.14880 0.91370 0.08000
C 	C 	0.05720 0.03550 0.00600 -0.04400
H 	H 	0.08970 0.03150 0.07350 0.02900
H 	H 	0.12070 0.01470 0.95870 0.03000
C 	C 	0.99000 0.03250 0.95140 -0.01100
H 	H 	0.04750 0.01130 0.89950 0.01700
H 	H 	0.90760 0.02360 0.92610 0.00600
N 	N 	0.37040 0.60930 0.78910 -0.21900
C 	C 	0.44400 0.55680 0.81830 0.12700
C 	C 	0.52880 0.48310 0.85930 -0.23900
H 	H 	0.52860 0.42170 0.81680 0.08200
H 	H 	0.61030 0.51290 0.85650 0.08600
C 	C 	0.50300 0.44860 0.96930 -0.03600
H 	H 	0.42590 0.41130 0.97350 0.02700
H 	H 	0.56790 0.40400 0.99400 0.02600
C 	C 	0.55940 0.51100 0.97010 -0.01200
H 	H 	0.58250 0.58370 0.97590 0.00400
H 	H 	0.62610 0.46820 0.99490 0.01600
N 	N 	0.14410 0.71110 0.60960 -0.21700
C 	C 	0.07980 0.68720 0.54740 0.12600
C 	C 	0.98720 0.64740 0.48220 -0.23700
H 	H 	0.91710 0.69380 0.48510 0.08500
H 	H 	0.01810 0.64880 0.41370 0.08300
C 	C 	0.94280 0.53550 0.50600 -0.04300
H 	H 	0.91030 0.53150 0.57350 0.02900
H 	H 	0.87930 0.51470 0.45870 0.02800
C 	C 	0.01000 0.53250 0.45140 -0.00800
H 	H 	0.95250 0.51130 0.39950 0.01500
H 	H 	0.09240 0.52360 0.42610 0.00500
N 	N 	0.37040 0.89070 0.71090 -0.21900
C 	C 	0.44400 0.94320 0.68170 0.12700
C 	C 	0.52880 0.01690 0.64070 -0.23900
H 	H 	0.52860 0.07830 0.68320 0.08200
H 	H 	0.61030 0.98710 0.64350 0.08600
C 	C 	0.50300 0.05140 0.53070 -0.03600
H 	H 	0.42590 0.08870 0.52650 0.02700
H 	H 	0.56790 0.09600 0.50600 0.02700
C 	C 	0.55940 0.98900 0.52990 -0.01200
H 	H 	0.58250 0.91630 0.52410 0.00400
H 	H 	0.62610 0.03180 0.50510 0.01600
N 	N 	0.14410 0.78890 0.89040 -0.21700
C 	C 	0.07980 0.81280 0.95260 0.12500
C 	C 	0.98720 0.85260 0.01780 -0.23000
H 	H 	0.91710 0.80620 0.01490 0.08300
H 	H 	0.01810 0.85120 0.08630 0.08000
C 	C 	0.94280 0.96450 0.99400 -0.04400
H 	H 	0.91030 0.96850 0.92650 0.02900
H 	H 	0.87930 0.98530 0.04130 0.03000
C 	C 	0.01000 0.96750 0.04860 -0.01100
H 	H 	0.95250 0.98870 0.10050 0.01700
H 	H 	0.09240 0.97640 0.07390 0.00600
Ag	Ag	0.74816 0.25000 0.25000 0.54200
Ag	Ag	0.25184 0.75000 0.75000 0.54200
N 	N 	0.87040 0.39070 0.78910 -0.21800
C 	C 	0.94400 0.44320 0.81830 0.12400
C 	C 	0.02880 0.51690 0.85930 -0.23600
H 	H 	0.02860 0.57830 0.81680 0.08100
H 	H 	0.11030 0.48710 0.85650 0.08500
C 	C 	0.00300 0.55140 0.96930 -0.04000
H 	H 	0.92590 0.58870 0.97350 0.02500
H 	H 	0.06790 0.59600 0.99400 0.02800
C 	C 	0.05940 0.48900 0.97010 -0.00800
H 	H 	0.08250 0.41630 0.97590 0.00500
H 	H 	0.12610 0.53180 0.99490 0.01500
N 	N 	0.64410 0.28890 0.60960 -0.21700
C 	C 	0.57980 0.31280 0.54740 0.12600
C 	C 	0.48720 0.35260 0.48220 -0.23800
H 	H 	0.41710 0.30620 0.48510 0.08500
H 	H 	0.51810 0.35120 0.41370 0.08400
C 	C 	0.44280 0.46450 0.50600 -0.04200
H 	H 	0.41030 0.46850 0.57350 0.02900
H 	H 	0.37930 0.48530 0.45870 0.02800
C 	C 	0.51000 0.46750 0.45140 -0.00900
H 	H 	0.45250 0.48870 0.39950 0.01500
H 	H 	0.59240 0.47640 0.42610 0.00500
N 	N 	0.87040 0.10930 0.71090 -0.21900
C 	C 	0.94400 0.05680 0.68170 0.12600
C 	C 	0.02880 0.98310 0.64070 -0.23800
H 	H 	0.02860 0.92170 0.68320 0.08200
H 	H 	0.11030 0.01290 0.64350 0.08600
C 	C 	0.00300 0.94860 0.53070 -0.03600
H 	H 	0.92590 0.91130 0.52650 0.02600
H 	H 	0.06790 0.90400 0.50600 0.02600
C 	C 	0.05940 0.01100 0.52990 -0.01200
H 	H 	0.08250 0.08370 0.52410 0.00400
H 	H 	0.12610 0.96820 0.50510 0.01600
N 	N 	0.64410 0.21110 0.89040 -0.21700
C 	C 	0.57980 0.18720 0.95260 0.12600
C 	C 	0.48720 0.14740 0.01780 -0.23700
H 	H 	0.41710 0.19380 0.01490 0.08500
H 	H 	0.51810 0.14880 0.08630 0.08400
C 	C 	0.44280 0.03550 0.99400 -0.04200
H 	H 	0.41030 0.03150 0.92650 0.02900
H 	H 	0.37930 0.01470 0.04130 0.02800
C 	C 	0.51000 0.03250 0.04860 -0.00800
H 	H 	0.45250 0.01130 0.10050 0.01500
H 	H 	0.59240 0.02360 0.07390 0.00500
N 	N 	0.12960 0.60930 0.21090 -0.21800
C 	C 	0.05600 0.55680 0.18170 0.12400
C 	C 	0.97120 0.48310 0.14070 -0.23600
H 	H 	0.97140 0.42170 0.18320 0.08100
H 	H 	0.88970 0.51290 0.14350 0.08500
C 	C 	0.99700 0.44860 0.03070 -0.04000
H 	H 	0.07410 0.41130 0.02650 0.02500
H 	H 	0.93210 0.40400 0.00600 0.02800
C 	C 	0.94060 0.51100 0.02990 -0.00800
H 	H 	0.91750 0.58370 0.02410 0.00500
H 	H 	0.87390 0.46820 0.00510 0.01500
N 	N 	0.35590 0.71110 0.39040 -0.21700
C 	C 	0.42020 0.68720 0.45260 0.12600
C 	C 	0.51280 0.64740 0.51780 -0.23800
H 	H 	0.58290 0.69380 0.51490 0.08500
H 	H 	0.48190 0.64880 0.58630 0.08400
C 	C 	0.55720 0.53550 0.49400 -0.04200
H 	H 	0.58970 0.53150 0.42650 0.02900
H 	H 	0.62070 0.51470 0.54130 0.02800
C 	C 	0.49000 0.53250 0.54860 -0.00900
H 	H 	0.54750 0.51130 0.60050 0.01500
H 	H 	0.40760 0.52360 0.57390 0.00500
N 	N 	0.12960 0.89070 0.28910 -0.21900
C 	C 	0.05600 0.94320 0.31830 0.12600
C 	C 	0.97120 0.01690 0.35930 -0.23800
H 	H 	0.97140 0.07830 0.31680 0.08200
H 	H 	0.88970 0.98710 0.35650 0.08600
C 	C 	0.99700 0.05140 0.46930 -0.03600
H 	H 	0.07410 0.08870 0.47350 0.02600
H 	H 	0.93210 0.09600 0.49400 0.02600
C 	C 	0.94060 0.98900 0.47010 -0.01200
H 	H 	0.91750 0.91630 0.47590 0.00400
H 	H 	0.87390 0.03180 0.49490 0.01600
N 	N 	0.35590 0.78890 0.10960 -0.21700
C 	C 	0.42020 0.81280 0.04740 0.12600
C 	C 	0.51280 0.85260 0.98220 -0.23700
H 	H 	0.58290 0.80620 0.98510 0.08500
H 	H 	0.48190 0.85120 0.91370 0.08400
C 	C 	0.55720 0.96450 0.00600 -0.04200
H 	H 	0.58970 0.96850 0.07350 0.02900
H 	H 	0.62070 0.98530 0.95870 0.02800
C 	C 	0.49000 0.96750 0.95140 -0.00800
H 	H 	0.54750 0.98870 0.89950 0.01500
H 	H 	0.40760 0.97640 0.92610 0.00500
Ag	Ag	0.75184 0.25000 0.75000 0.54100
Ag	Ag	0.24816 0.75000 0.25000 0.54100
