data_crystal

_cell_length_a 11.13600
_cell_length_b 12.85200
_cell_length_c 13.45900
_cell_angle_alpha 90.00000
_cell_angle_beta  90.00000
_cell_angle_gamma 90.00000

_symmetry_space_group_name_	'P 1'
_symmetry_space_group_name_H-M	'P 1'

loop_
_symmetry_equiv_pos_as_xyz
  x,y,z

loop_
_atom_site_label
_atom_site_type_symbol
_atom_site_fract_x
_atom_site_fract_y
_atom_site_fract_z
_atom_site_charge
N 	N 	0.63060 0.38720 0.20710 -0.21900
C 	C 	0.56450 0.44440 0.17930 0.12600
C 	C 	0.47230 0.51590 0.14150 -0.23200
H 	H 	0.46900 0.57760 0.18300 0.08000
H 	H 	0.39430 0.48240 0.14360 0.08500
C 	C 	0.50200 0.54700 0.03440 -0.03500
H 	H 	0.44500 0.59870 0.01170 0.02600
H 	H 	0.58160 0.57770 0.03220 0.02400
C 	C 	0.44530 0.49320 0.03270 -0.01400
H 	H 	0.41610 0.42240 0.02660 0.00800
H 	H 	0.38230 0.53960 0.01000 0.01700
N 	N 	0.85200 0.29250 0.38880 -0.22000
C 	C 	0.91680 0.31800 0.44660 0.12900
C 	C 	0.99840 0.35300 0.52340 -0.23800
H 	H 	0.06350 0.30330 0.53000 0.08400
H 	H 	0.95600 0.35590 0.58630 0.08400
C 	C 	0.05020 0.45980 0.50020 -0.03900
H 	H 	0.08930 0.45850 0.43580 0.02600
H 	H 	0.10970 0.47820 0.54980 0.02700
C 	C 	0.98280 0.46860 0.54570 -0.00800
H 	H 	0.03340 0.48820 0.60130 0.01400
H 	H 	0.90000 0.48270 0.56350 0.00700
N 	N 	0.63060 0.11280 0.29290 -0.22000
C 	C 	0.56450 0.05560 0.32070 0.12500
C 	C 	0.47230 0.98410 0.35850 -0.23300
H 	H 	0.46900 0.92240 0.31700 0.07900
H 	H 	0.39430 0.01760 0.35640 0.08400
C 	C 	0.50200 0.95300 0.46560 -0.03500
H 	H 	0.44500 0.90130 0.48830 0.02600
H 	H 	0.58160 0.92230 0.46780 0.02400
C 	C 	0.44530 0.00680 0.46730 -0.01400
H 	H 	0.41610 0.07760 0.47340 0.00700
H 	H 	0.38230 0.96040 0.49000 0.01700
N 	N 	0.85200 0.20750 0.11120 -0.21900
C 	C 	0.91680 0.18200 0.05340 0.12700
C 	C 	0.99840 0.14700 0.97660 -0.23200
H 	H 	0.06350 0.19670 0.97000 0.08200
H 	H 	0.95600 0.14410 0.91370 0.08400
C 	C 	0.05020 0.04020 0.99980 -0.02800
H 	H 	0.08930 0.04150 0.06420 0.02100
H 	H 	0.10970 0.02180 0.95020 0.02300
C 	C 	0.98280 0.03140 0.95430 -0.02000
H 	H 	0.03340 0.01180 0.89870 0.01700
H 	H 	0.90000 0.01730 0.93650 0.01400
N 	N 	0.36940 0.61280 0.79290 -0.22000
C 	C 	0.43550 0.55560 0.82070 0.12500
C 	C 	0.52770 0.48410 0.85850 -0.23300
H 	H 	0.53100 0.42240 0.81700 0.07900
H 	H 	0.60570 0.51760 0.85640 0.08500
C 	C 	0.49800 0.45300 0.96560 -0.03500
H 	H 	0.55500 0.40130 0.98830 0.02600
H 	H 	0.41840 0.42230 0.96780 0.02400
C 	C 	0.55470 0.50680 0.96730 -0.01400
H 	H 	0.58390 0.57760 0.97340 0.00800
H 	H 	0.61770 0.46040 0.99000 0.01700
N 	N 	0.14800 0.70750 0.61120 -0.22000
C 	C 	0.08320 0.68200 0.55340 0.12900
C 	C 	0.00160 0.64700 0.47660 -0.23800
H 	H 	0.93650 0.69670 0.47000 0.08400
H 	H 	0.04400 0.64410 0.41370 0.08400
C 	C 	0.94980 0.54020 0.49980 -0.03900
H 	H 	0.91070 0.54150 0.56420 0.02600
H 	H 	0.89030 0.52180 0.45020 0.02700
C 	C 	0.01720 0.53140 0.45430 -0.00800
H 	H 	0.96660 0.51180 0.39870 0.01400
H 	H 	0.10000 0.51730 0.43650 0.00700
N 	N 	0.36940 0.88720 0.70710 -0.22000
C 	C 	0.43550 0.94440 0.67930 0.12500
C 	C 	0.52770 0.01590 0.64150 -0.23300
H 	H 	0.53100 0.07760 0.68300 0.07900
H 	H 	0.60570 0.98240 0.64360 0.08400
C 	C 	0.49800 0.04700 0.53440 -0.03500
H 	H 	0.55500 0.09870 0.51170 0.02600
H 	H 	0.41840 0.07770 0.53220 0.02400
C 	C 	0.55470 0.99320 0.53270 -0.01400
H 	H 	0.58390 0.92240 0.52660 0.00700
H 	H 	0.61770 0.03960 0.51000 0.01700
N 	N 	0.14800 0.79250 0.88880 -0.21900
C 	C 	0.08320 0.81800 0.94660 0.12700
C 	C 	0.00160 0.85300 0.02340 -0.23200
H 	H 	0.93650 0.80330 0.03000 0.08200
H 	H 	0.04400 0.85590 0.08630 0.08400
C 	C 	0.94980 0.95980 0.00020 -0.02800
H 	H 	0.91070 0.95850 0.93580 0.02100
H 	H 	0.89030 0.97820 0.04980 0.02300
C 	C 	0.01720 0.96860 0.04570 -0.02000
H 	H 	0.96660 0.98820 0.10130 0.01700
H 	H 	0.10000 0.98270 0.06350 0.01400
Ag	Ag	0.74797 0.25000 0.25000 0.54200
Ag	Ag	0.25203 0.75000 0.75000 0.54200
N 	N 	0.86940 0.38720 0.79290 -0.22000
C 	C 	0.93550 0.44440 0.82070 0.12700
C 	C 	0.02770 0.51590 0.85850 -0.23600
H 	H 	0.03100 0.57760 0.81700 0.08000
H 	H 	0.10570 0.48240 0.85640 0.08500
C 	C 	0.99800 0.54700 0.96560 -0.03700
H 	H 	0.05500 0.59870 0.98830 0.02600
H 	H 	0.91840 0.57770 0.96780 0.02600
C 	C 	0.05470 0.49320 0.96730 -0.01100
H 	H 	0.08390 0.42240 0.97340 0.00500
H 	H 	0.11770 0.53960 0.99000 0.01500
N 	N 	0.64800 0.29250 0.61120 -0.22000
C 	C 	0.58320 0.31800 0.55340 0.13000
C 	C 	0.50160 0.35300 0.47660 -0.24000
H 	H 	0.43650 0.30330 0.47000 0.08600
H 	H 	0.54400 0.35590 0.41370 0.08500
C 	C 	0.44980 0.45980 0.49980 -0.04000
H 	H 	0.41070 0.45850 0.56420 0.02700
H 	H 	0.39030 0.47820 0.45020 0.02700
C 	C 	0.51720 0.46860 0.45430 -0.00700
H 	H 	0.46660 0.48820 0.39870 0.01400
H 	H 	0.60000 0.48270 0.43650 0.00600
N 	N 	0.86940 0.11280 0.70710 -0.21900
C 	C 	0.93550 0.05560 0.67930 0.12400
C 	C 	0.02770 0.98410 0.64150 -0.22600
H 	H 	0.03100 0.92240 0.68300 0.07700
H 	H 	0.10570 0.01760 0.64360 0.08100
C 	C 	0.99800 0.95300 0.53440 -0.03700
H 	H 	0.05500 0.90130 0.51170 0.02700
H 	H 	0.91840 0.92230 0.53220 0.02400
C 	C 	0.05470 0.00680 0.53270 -0.01800
H 	H 	0.08390 0.07760 0.52660 0.00800
H 	H 	0.11770 0.96040 0.51000 0.01900
N 	N 	0.64800 0.20750 0.88880 -0.22000
C 	C 	0.58320 0.18200 0.94660 0.13000
C 	C 	0.50160 0.14700 0.02340 -0.24000
H 	H 	0.43650 0.19670 0.03000 0.08600
H 	H 	0.54400 0.14410 0.08630 0.08500
C 	C 	0.44980 0.04020 0.00020 -0.04100
H 	H 	0.41070 0.04150 0.93580 0.02700
H 	H 	0.39030 0.02180 0.04980 0.02700
C 	C 	0.51720 0.03140 0.04570 -0.00600
H 	H 	0.46660 0.01180 0.10130 0.01400
H 	H 	0.60000 0.01730 0.06350 0.00700
N 	N 	0.13060 0.61280 0.20710 -0.22000
C 	C 	0.06450 0.55560 0.17930 0.12700
C 	C 	0.97230 0.48410 0.14150 -0.23600
H 	H 	0.96900 0.42240 0.18300 0.08000
H 	H 	0.89430 0.51760 0.14360 0.08500
C 	C 	0.00200 0.45300 0.03440 -0.03700
H 	H 	0.94500 0.40130 0.01170 0.02600
H 	H 	0.08160 0.42230 0.03220 0.02600
C 	C 	0.94530 0.50680 0.03270 -0.01100
H 	H 	0.91610 0.57760 0.02660 0.00500
H 	H 	0.88230 0.46040 0.01000 0.01500
N 	N 	0.35200 0.70750 0.38880 -0.22000
C 	C 	0.41680 0.68200 0.44660 0.13000
C 	C 	0.49840 0.64700 0.52340 -0.24000
H 	H 	0.56350 0.69670 0.53000 0.08600
H 	H 	0.45600 0.64410 0.58630 0.08500
C 	C 	0.55020 0.54020 0.50020 -0.04000
H 	H 	0.58930 0.54150 0.43580 0.02700
H 	H 	0.60970 0.52180 0.54980 0.02700
C 	C 	0.48280 0.53140 0.54570 -0.00700
H 	H 	0.53340 0.51180 0.60130 0.01400
H 	H 	0.40000 0.51730 0.56350 0.00600
N 	N 	0.13060 0.88720 0.29290 -0.21900
C 	C 	0.06450 0.94440 0.32070 0.12400
C 	C 	0.97230 0.01590 0.35850 -0.22600
H 	H 	0.96900 0.07760 0.31700 0.07700
H 	H 	0.89430 0.98240 0.35640 0.08100
C 	C 	0.00200 0.04700 0.46560 -0.03700
H 	H 	0.94500 0.09870 0.48830 0.02700
H 	H 	0.08160 0.07770 0.46780 0.02400
C 	C 	0.94530 0.99320 0.46730 -0.01800
H 	H 	0.91610 0.92240 0.47340 0.00800
H 	H 	0.88230 0.03960 0.49000 0.01900
N 	N 	0.35200 0.79250 0.11120 -0.22000
C 	C 	0.41680 0.81800 0.05340 0.13000
C 	C 	0.49840 0.85300 0.97660 -0.24000
H 	H 	0.56350 0.80330 0.97000 0.08600
H 	H 	0.45600 0.85590 0.91370 0.08500
C 	C 	0.55020 0.95980 0.99980 -0.04100
H 	H 	0.58930 0.95850 0.06420 0.02700
H 	H 	0.60970 0.97820 0.95020 0.02700
C 	C 	0.48280 0.96860 0.95430 -0.00600
H 	H 	0.53340 0.98820 0.89870 0.01400
H 	H 	0.40000 0.98270 0.93650 0.00700
Ag	Ag	0.75203 0.25000 0.75000 0.54200
Ag	Ag	0.24797 0.75000 0.25000 0.54200
