data_crystal

_cell_length_a 11.19500
_cell_length_b 12.75700
_cell_length_c 13.50800
_cell_angle_alpha 90.00000
_cell_angle_beta  90.00000
_cell_angle_gamma 90.00000

_symmetry_space_group_name_	'P 1'
_symmetry_space_group_name_H-M	'P 1'

loop_
_symmetry_equiv_pos_as_xyz
  x,y,z

loop_
_atom_site_label
_atom_site_type_symbol
_atom_site_fract_x
_atom_site_fract_y
_atom_site_fract_z
_atom_site_charge
N 	N 	0.63540 0.38620 0.20490 -0.22000
C 	C 	0.56450 0.44270 0.17820 0.12500
C 	C 	0.47870 0.51600 0.14160 -0.24500
H 	H 	0.47980 0.57850 0.18240 0.08300
H 	H 	0.39950 0.48550 0.14560 0.08800
C 	C 	0.50600 0.54530 0.03510 -0.02800
H 	H 	0.45110 0.60030 0.01460 0.02200
H 	H 	0.58610 0.57300 0.03130 0.02300
C 	C 	0.44810 0.49880 0.03480 -0.01400
H 	H 	0.40860 0.43140 0.02850 0.00800
H 	H 	0.39140 0.55220 0.01460 0.01600
N 	N 	0.85490 0.29370 0.38480 -0.22500
C 	C 	0.91290 0.32050 0.44650 0.13700
C 	C 	0.98650 0.35440 0.52600 -0.24800
H 	H 	0.04890 0.30250 0.53540 0.08700
H 	H 	0.93840 0.35510 0.58580 0.08600
C 	C 	0.04450 0.45930 0.51580 -0.03200
H 	H 	0.10820 0.45520 0.46730 0.02500
H 	H 	0.07940 0.47960 0.57870 0.02300
C 	C 	0.97130 0.47110 0.54250 -0.00500
H 	H 	0.88700 0.48840 0.54600 0.00700
H 	H 	0.00850 0.49140 0.60440 0.01100
N 	N 	0.63540 0.11380 0.29510 -0.21900
C 	C 	0.56450 0.05730 0.32180 0.12600
C 	C 	0.47870 0.98400 0.35840 -0.24300
H 	H 	0.47980 0.92150 0.31760 0.08400
H 	H 	0.39950 0.01450 0.35440 0.08700
C 	C 	0.50600 0.95470 0.46490 -0.02800
H 	H 	0.45110 0.89970 0.48540 0.02200
H 	H 	0.58610 0.92700 0.46870 0.02300
C 	C 	0.44810 0.00120 0.46520 -0.01400
H 	H 	0.40860 0.06860 0.47150 0.00800
H 	H 	0.39140 0.94780 0.48540 0.01600
N 	N 	0.85490 0.20630 0.11520 -0.22400
C 	C 	0.91290 0.17950 0.05350 0.13500
C 	C 	0.98650 0.14560 0.97400 -0.24200
H 	H 	0.04890 0.19750 0.96460 0.08400
H 	H 	0.93840 0.14490 0.91420 0.08500
C 	C 	0.04450 0.04070 0.98420 -0.02200
H 	H 	0.10820 0.04480 0.03270 0.01900
H 	H 	0.07940 0.02040 0.92130 0.01900
C 	C 	0.97130 0.02890 0.95750 -0.01500
H 	H 	0.88700 0.01160 0.95400 0.01300
H 	H 	0.00850 0.00860 0.89560 0.01300
N 	N 	0.36460 0.61380 0.79510 -0.21900
C 	C 	0.43550 0.55730 0.82180 0.12600
C 	C 	0.52130 0.48400 0.85840 -0.24400
H 	H 	0.52020 0.42150 0.81760 0.08400
H 	H 	0.60050 0.51450 0.85440 0.08800
C 	C 	0.49400 0.45470 0.96490 -0.02800
H 	H 	0.54890 0.39970 0.98540 0.02200
H 	H 	0.41390 0.42700 0.96870 0.02300
C 	C 	0.55190 0.50120 0.96520 -0.01400
H 	H 	0.59140 0.56860 0.97150 0.00800
H 	H 	0.60860 0.44780 0.98540 0.01600
N 	N 	0.14510 0.70630 0.61520 -0.22500
C 	C 	0.08710 0.67950 0.55350 0.13700
C 	C 	0.01350 0.64560 0.47400 -0.24800
H 	H 	0.95110 0.69750 0.46460 0.08700
H 	H 	0.06160 0.64490 0.41420 0.08600
C 	C 	0.95550 0.54070 0.48420 -0.03200
H 	H 	0.89180 0.54480 0.53270 0.02500
H 	H 	0.92060 0.52040 0.42130 0.02300
C 	C 	0.02870 0.52890 0.45750 -0.00500
H 	H 	0.11300 0.51160 0.45400 0.00700
H 	H 	0.99150 0.50860 0.39560 0.01100
N 	N 	0.36460 0.88620 0.70490 -0.21900
C 	C 	0.43550 0.94270 0.67820 0.12600
C 	C 	0.52130 0.01600 0.64160 -0.24300
H 	H 	0.52020 0.07850 0.68240 0.08400
H 	H 	0.60050 0.98550 0.64560 0.08700
C 	C 	0.49400 0.04530 0.53510 -0.02800
H 	H 	0.54890 0.10030 0.51460 0.02200
H 	H 	0.41390 0.07300 0.53130 0.02300
C 	C 	0.55190 0.99880 0.53480 -0.01400
H 	H 	0.59140 0.93140 0.52850 0.00800
H 	H 	0.60860 0.05220 0.51460 0.01600
N 	N 	0.14510 0.79370 0.88480 -0.22400
C 	C 	0.08710 0.82050 0.94650 0.13500
C 	C 	0.01350 0.85440 0.02600 -0.24200
H 	H 	0.95110 0.80250 0.03540 0.08400
H 	H 	0.06160 0.85510 0.08580 0.08500
C 	C 	0.95550 0.95930 0.01580 -0.02200
H 	H 	0.89180 0.95520 0.96730 0.01900
H 	H 	0.92060 0.97960 0.07870 0.01900
C 	C 	0.02870 0.97110 0.04250 -0.01500
H 	H 	0.11300 0.98840 0.04600 0.01300
H 	H 	0.99150 0.99140 0.10440 0.01300
Ag	Ag	0.75139 0.25000 0.25000 0.54500
Ag	Ag	0.24861 0.75000 0.75000 0.54500
N 	N 	0.86460 0.38620 0.79510 -0.21900
C 	C 	0.93550 0.44270 0.82180 0.12800
C 	C 	0.02130 0.51600 0.85840 -0.24700
H 	H 	0.02020 0.57850 0.81760 0.08500
H 	H 	0.10050 0.48550 0.85440 0.08800
C 	C 	0.99400 0.54530 0.96490 -0.02900
H 	H 	0.04890 0.60030 0.98540 0.02200
H 	H 	0.91390 0.57300 0.96870 0.02500
C 	C 	0.05190 0.49880 0.96520 -0.01100
H 	H 	0.09140 0.43140 0.97150 0.00600
H 	H 	0.10860 0.55220 0.98540 0.01500
N 	N 	0.64510 0.29370 0.61520 -0.22500
C 	C 	0.58710 0.32050 0.55350 0.13800
C 	C 	0.51350 0.35440 0.47400 -0.25100
H 	H 	0.45110 0.30250 0.46460 0.08900
H 	H 	0.56160 0.35510 0.41420 0.08600
C 	C 	0.45550 0.45930 0.48420 -0.03200
H 	H 	0.39180 0.45520 0.53270 0.02500
H 	H 	0.42060 0.47960 0.42130 0.02300
C 	C 	0.52870 0.47110 0.45750 -0.00400
H 	H 	0.61300 0.48840 0.45400 0.00600
H 	H 	0.49150 0.49140 0.39560 0.01100
N 	N 	0.86460 0.11380 0.70490 -0.21800
C 	C 	0.93550 0.05730 0.67820 0.12500
C 	C 	0.02130 0.98400 0.64160 -0.23500
H 	H 	0.02020 0.92150 0.68240 0.08200
H 	H 	0.10050 0.01450 0.64560 0.08400
C 	C 	0.99400 0.95470 0.53510 -0.03000
H 	H 	0.04890 0.89970 0.51460 0.02300
H 	H 	0.91390 0.92700 0.53130 0.02300
C 	C 	0.05190 0.00120 0.53480 -0.01800
H 	H 	0.09140 0.06860 0.52850 0.00900
H 	H 	0.10860 0.94780 0.51460 0.01800
N 	N 	0.64510 0.20630 0.88480 -0.22500
C 	C 	0.58710 0.17950 0.94650 0.13800
C 	C 	0.51350 0.14560 0.02600 -0.25100
H 	H 	0.45110 0.19750 0.03540 0.08900
H 	H 	0.56160 0.14490 0.08580 0.08600
C 	C 	0.45550 0.04070 0.01580 -0.03300
H 	H 	0.39180 0.04480 0.96730 0.02400
H 	H 	0.42060 0.02040 0.07870 0.02300
C 	C 	0.52870 0.02890 0.04250 -0.00300
H 	H 	0.61300 0.01160 0.04600 0.00600
H 	H 	0.49150 0.00860 0.10440 0.01100
N 	N 	0.13540 0.61380 0.20490 -0.21900
C 	C 	0.06450 0.55730 0.17820 0.12800
C 	C 	0.97870 0.48400 0.14160 -0.24700
H 	H 	0.97980 0.42150 0.18240 0.08500
H 	H 	0.89950 0.51450 0.14560 0.08800
C 	C 	0.00600 0.45470 0.03510 -0.02900
H 	H 	0.95110 0.39970 0.01460 0.02200
H 	H 	0.08610 0.42700 0.03130 0.02500
C 	C 	0.94810 0.50120 0.03480 -0.01100
H 	H 	0.90860 0.56860 0.02850 0.00600
H 	H 	0.89140 0.44780 0.01460 0.01500
N 	N 	0.35490 0.70630 0.38480 -0.22500
C 	C 	0.41290 0.67950 0.44650 0.13800
C 	C 	0.48650 0.64560 0.52600 -0.25100
H 	H 	0.54890 0.69750 0.53540 0.08900
H 	H 	0.43840 0.64490 0.58580 0.08600
C 	C 	0.54450 0.54070 0.51580 -0.03200
H 	H 	0.60820 0.54480 0.46730 0.02500
H 	H 	0.57940 0.52040 0.57870 0.02300
C 	C 	0.47130 0.52890 0.54250 -0.00400
H 	H 	0.38700 0.51160 0.54600 0.00600
H 	H 	0.50850 0.50860 0.60440 0.01100
N 	N 	0.13540 0.88620 0.29510 -0.21800
C 	C 	0.06450 0.94270 0.32180 0.12500
C 	C 	0.97870 0.01600 0.35840 -0.23500
H 	H 	0.97980 0.07850 0.31760 0.08200
H 	H 	0.89950 0.98550 0.35440 0.08400
C 	C 	0.00600 0.04530 0.46490 -0.03000
H 	H 	0.95110 0.10030 0.48540 0.02300
H 	H 	0.08610 0.07300 0.46870 0.02300
C 	C 	0.94810 0.99880 0.46520 -0.01800
H 	H 	0.90860 0.93140 0.47150 0.00900
H 	H 	0.89140 0.05220 0.48540 0.01800
N 	N 	0.35490 0.79370 0.11520 -0.22500
C 	C 	0.41290 0.82050 0.05350 0.13800
C 	C 	0.48650 0.85440 0.97400 -0.25100
H 	H 	0.54890 0.80250 0.96460 0.08900
H 	H 	0.43840 0.85510 0.91420 0.08600
C 	C 	0.54450 0.95930 0.98420 -0.03300
H 	H 	0.60820 0.95520 0.03270 0.02400
H 	H 	0.57940 0.97960 0.92130 0.02300
C 	C 	0.47130 0.97110 0.95750 -0.00300
H 	H 	0.38700 0.98840 0.95400 0.00600
H 	H 	0.50850 0.99140 0.89560 0.01100
Ag	Ag	0.74861 0.25000 0.75000 0.54500
Ag	Ag	0.25139 0.75000 0.25000 0.54500
