data_crystal

_cell_length_a 9.33400
_cell_length_b 25.45800
_cell_length_c 19.82200
_cell_angle_alpha 90.00000
_cell_angle_beta  99.86000
_cell_angle_gamma 90.00000

_symmetry_space_group_name_	'P 1'
_symmetry_space_group_name_H-M	'P 1'

loop_
_symmetry_equiv_pos_as_xyz
  x,y,z

loop_
_atom_site_label
_atom_site_type_symbol
_atom_site_fract_x
_atom_site_fract_y
_atom_site_fract_z
_atom_site_charge
N 	N 	0.19820 0.04897 0.02124 -0.26300
N 	N 	0.34970 0.11378 0.05792 -0.10500
N 	N 	0.90900 0.03813 0.07881 -0.22700
N 	N 	0.83900 0.05066 0.17780 -0.09600
N 	N 	0.10700 0.94067 0.07009 -0.22300
N 	N 	0.17060 0.86080 0.10740 -0.10700
C 	C 	0.21890 0.09227 0.05918 0.07500
H 	H 	0.15100 0.10600 0.08360 -0.01700
C 	C 	0.32470 0.04327 0.99482 0.08700
H 	H 	0.34350 0.01620 0.96610 -0.01400
C 	C 	0.41770 0.08300 0.01698 -0.08300
H 	H 	0.50990 0.08820 0.00630 0.04800
C 	C 	0.39580 0.16544 0.08413 -0.07900
H 	H 	0.49980 0.16900 0.08570 0.05400
H 	H 	0.37670 0.16890 0.13050 0.05000
C 	C 	0.31770 0.20901 0.04013 -0.04200
C 	C 	0.29310 0.20550 0.96941 0.04200
H 	H 	0.32250 0.17570 0.94840 0.02600
C 	C 	0.27520 0.25380 0.07059 0.00800
H 	H 	0.29230 0.25680 0.11810 0.01700
C 	C 	0.89310 0.01634 0.13711 0.01900
H 	H 	0.91630 0.98160 0.14880 0.04200
C 	C 	0.86140 0.08899 0.08270 0.00600
H 	H 	0.85820 0.11410 0.04850 0.01800
C 	C 	0.82040 0.09681 0.14330 -0.00700
H 	H 	0.78560 0.12800 0.15880 0.03400
C 	C 	0.80940 0.03900 0.24654 -0.12000
H 	H 	0.85640 0.06520 0.27840 0.07700
H 	H 	0.85040 0.00510 0.26110 0.06200
C 	C 	0.64750 0.03861 0.24846 0.02700
C 	C 	0.57340 0.08576 0.24990 -0.06900
H 	H 	0.62350 0.11740 0.25080 0.05200
C 	C 	0.57300 0.99161 0.24870 -0.04200
H 	H 	0.62200 0.96000 0.24700 0.05100
C 	C 	0.06170 0.89262 0.07907 0.02300
H 	H 	0.96550 0.88190 0.06720 0.03000
C 	C 	0.25380 0.93919 0.09448 -0.00300
H 	H 	0.31620 0.96770 0.09530 0.02900
C 	C 	0.29490 0.89038 0.11721 -0.00900
H 	H 	0.38830 0.87930 0.13570 0.03100
C 	C 	0.16390 0.80364 0.11692 -0.07200
H 	H 	0.06590 0.79360 0.12170 0.04100
H 	H 	0.22890 0.79370 0.15850 0.04800
C 	C 	0.20760 0.77481 0.05586 -0.04900
C 	C 	0.11750 0.77522 0.99345 0.05000
H 	H 	0.02780 0.79200 0.98860 0.01700
C 	C 	0.33980 0.74943 0.06271 0.02300
H 	H 	0.40080 0.74870 0.10500 0.01700
N 	N 	0.69820 0.54897 0.02124 -0.24600
N 	N 	0.84970 0.61378 0.05792 -0.11200
N 	N 	0.40900 0.53813 0.07881 -0.24000
N 	N 	0.33900 0.55066 0.17780 -0.09900
N 	N 	0.60700 0.44067 0.07009 -0.23400
N 	N 	0.67060 0.36080 0.10740 -0.11400
C 	C 	0.71890 0.59227 0.05918 0.07900
H 	H 	0.65100 0.60600 0.08360 -0.00800
C 	C 	0.82470 0.54327 0.99482 0.05500
H 	H 	0.84350 0.51620 0.96610 0.01700
C 	C 	0.91770 0.58300 0.01698 -0.00700
H 	H 	0.00990 0.58820 0.00630 0.00600
C 	C 	0.89580 0.66544 0.08413 -0.08200
H 	H 	0.99980 0.66900 0.08570 0.06600
H 	H 	0.87670 0.66890 0.13050 0.05800
C 	C 	0.81770 0.70901 0.04013 -0.02900
C 	C 	0.79310 0.70550 0.96941 0.03900
H 	H 	0.82250 0.67570 0.94840 0.03200
C 	C 	0.77520 0.75380 0.07059 0.00700
H 	H 	0.79230 0.75680 0.11810 0.02500
C 	C 	0.39310 0.51634 0.13711 0.07600
H 	H 	0.41630 0.48160 0.14880 -0.01100
C 	C 	0.36140 0.58899 0.08270 0.00300
H 	H 	0.35820 0.61410 0.04850 0.01500
C 	C 	0.32040 0.59681 0.14330 -0.01400
H 	H 	0.28560 0.62800 0.15880 0.03000
C 	C 	0.30940 0.53900 0.24654 -0.17800
H 	H 	0.35640 0.56520 0.27840 0.08600
H 	H 	0.35040 0.50510 0.26110 0.08300
C 	C 	0.14750 0.53861 0.24846 0.14900
C 	C 	0.07340 0.58576 0.24990 -0.20000
H 	H 	0.12350 0.61740 0.25080 0.09000
C 	C 	0.07300 0.49161 0.24870 -0.20500
H 	H 	0.12200 0.46000 0.24700 0.09300
C 	C 	0.56170 0.39262 0.07907 0.07900
H 	H 	0.46550 0.38190 0.06720 -0.01200
C 	C 	0.75380 0.43919 0.09448 -0.00400
H 	H 	0.81620 0.46770 0.09530 0.02300
C 	C 	0.79490 0.39038 0.11721 -0.00900
H 	H 	0.88830 0.37930 0.13570 0.03700
C 	C 	0.66390 0.30364 0.11692 -0.07400
H 	H 	0.56590 0.29360 0.12170 0.05000
H 	H 	0.72890 0.29370 0.15850 0.05400
C 	C 	0.70760 0.27481 0.05586 -0.04200
C 	C 	0.61750 0.27522 0.99345 0.04900
H 	H 	0.52780 0.29200 0.98860 0.02700
C 	C 	0.83980 0.24943 0.06271 0.02400
H 	H 	0.90080 0.24870 0.10500 0.02400
N 	N 	0.80180 0.04897 0.47876 -0.22500
N 	N 	0.65030 0.11378 0.44208 -0.10500
N 	N 	0.09100 0.03813 0.42119 -0.23500
N 	N 	0.16100 0.05066 0.32220 -0.10200
N 	N 	0.89300 0.94067 0.42991 -0.22300
N 	N 	0.82940 0.86080 0.39260 -0.11400
C 	C 	0.78110 0.09227 0.44082 0.08000
H 	H 	0.84900 0.10600 0.41640 0.00100
C 	C 	0.67530 0.04327 0.50518 -0.00100
H 	H 	0.65650 0.01620 0.53390 0.01100
C 	C 	0.58230 0.08300 0.48302 -0.01400
H 	H 	0.49010 0.08820 0.49370 0.03400
C 	C 	0.60420 0.16544 0.41587 -0.12100
H 	H 	0.50020 0.16900 0.41430 0.06800
H 	H 	0.62330 0.16890 0.36950 0.06500
C 	C 	0.68230 0.20901 0.45987 0.05700
C 	C 	0.70690 0.20550 0.53059 -0.06600
H 	H 	0.67750 0.17570 0.55160 0.05800
C 	C 	0.72480 0.25380 0.42941 -0.07300
H 	H 	0.70770 0.25680 0.38190 0.05000
C 	C 	0.10690 0.01634 0.36289 0.00700
H 	H 	0.08370 0.98160 0.35120 0.03000
C 	C 	0.13860 0.08899 0.41730 -0.00400
H 	H 	0.14180 0.11410 0.45150 0.02100
C 	C 	0.17960 0.09681 0.35670 -0.01000
H 	H 	0.21440 0.12800 0.34120 0.02900
C 	C 	0.19060 0.03900 0.25346 -0.10100
H 	H 	0.14360 0.06520 0.22160 0.05600
H 	H 	0.14960 0.00510 0.23890 0.04200
C 	C 	0.35250 0.03861 0.25154 0.00900
C 	C 	0.42660 0.08576 0.25010 -0.05100
H 	H 	0.37650 0.11740 0.24920 0.04300
C 	C 	0.42700 0.99161 0.25130 -0.02300
H 	H 	0.37800 0.96000 0.25300 0.04300
C 	C 	0.93830 0.89262 0.42093 0.13800
H 	H 	0.03450 0.88190 0.43280 -0.04400
C 	C 	0.74620 0.93919 0.40552 -0.00000
H 	H 	0.68380 0.96770 0.40470 0.03500
C 	C 	0.70510 0.89038 0.38279 -0.00700
H 	H 	0.61170 0.87930 0.36430 0.03300
C 	C 	0.83610 0.80364 0.38308 -0.12400
H 	H 	0.93410 0.79360 0.37830 0.07600
H 	H 	0.77110 0.79370 0.34150 0.06800
C 	C 	0.79240 0.77481 0.44414 0.06500
C 	C 	0.88250 0.77522 0.50655 -0.07500
H 	H 	0.97220 0.79200 0.51140 0.07000
C 	C 	0.66020 0.74943 0.43729 -0.07500
H 	H 	0.59920 0.74870 0.39500 0.05200
N 	N 	0.30180 0.54897 0.47876 -0.23100
N 	N 	0.15030 0.61378 0.44208 -0.09700
N 	N 	0.59100 0.53813 0.42119 -0.23700
N 	N 	0.66100 0.55066 0.32220 -0.11200
N 	N 	0.39300 0.44067 0.42991 -0.23100
N 	N 	0.32940 0.36080 0.39260 -0.10800
C 	C 	0.28110 0.59227 0.44082 0.08100
H 	H 	0.34900 0.60600 0.41640 -0.00800
C 	C 	0.17530 0.54327 0.50518 0.03200
H 	H 	0.15650 0.51620 0.53390 0.00600
C 	C 	0.08230 0.58300 0.48302 -0.07700
H 	H 	0.99010 0.58820 0.49370 0.07700
C 	C 	0.10420 0.66544 0.41587 -0.11900
H 	H 	0.00020 0.66900 0.41430 0.05800
H 	H 	0.12330 0.66890 0.36950 0.05900
C 	C 	0.18230 0.70901 0.45987 0.05000
C 	C 	0.20690 0.70550 0.53059 -0.07000
H 	H 	0.17750 0.67570 0.55160 0.05400
C 	C 	0.22480 0.75380 0.42941 -0.07700
H 	H 	0.20770 0.75680 0.38190 0.04400
C 	C 	0.60690 0.51634 0.36289 0.08300
H 	H 	0.58370 0.48160 0.35120 -0.01200
C 	C 	0.63860 0.58899 0.41730 0.00200
H 	H 	0.64180 0.61410 0.45150 0.02400
C 	C 	0.67960 0.59681 0.35670 -0.00400
H 	H 	0.71440 0.62800 0.34120 0.03400
C 	C 	0.69060 0.53900 0.25346 -0.07500
H 	H 	0.64360 0.56520 0.22160 0.05700
H 	H 	0.64960 0.50510 0.23890 0.05400
C 	C 	0.85250 0.53861 0.25154 -0.02800
C 	C 	0.92660 0.58576 0.25010 0.06400
H 	H 	0.87650 0.61740 0.24920 0.01000
C 	C 	0.92700 0.49161 0.25130 0.06100
H 	H 	0.87800 0.46000 0.25300 0.01300
C 	C 	0.43830 0.39262 0.42093 0.08100
H 	H 	0.53450 0.38190 0.43280 -0.00600
C 	C 	0.24620 0.43919 0.40552 -0.00300
H 	H 	0.18380 0.46770 0.40470 0.02000
C 	C 	0.20510 0.39038 0.38279 -0.01100
H 	H 	0.11170 0.37930 0.36430 0.02600
C 	C 	0.33610 0.30364 0.38308 -0.12300
H 	H 	0.43410 0.29360 0.37830 0.06600
H 	H 	0.27110 0.29370 0.34150 0.06200
C 	C 	0.29240 0.27481 0.44414 0.05900
C 	C 	0.38250 0.27522 0.50655 -0.07600
H 	H 	0.47220 0.29200 0.51140 0.06000
C 	C 	0.16020 0.24943 0.43729 -0.07700
H 	H 	0.09920 0.24870 0.39500 0.04600
N 	N 	0.80180 0.95103 0.97876 -0.18400
N 	N 	0.65030 0.88622 0.94208 -0.10700
N 	N 	0.09100 0.96187 0.92119 -0.23700
N 	N 	0.16100 0.94934 0.82220 -0.11600
N 	N 	0.89300 0.05933 0.92991 -0.23000
N 	N 	0.82940 0.13920 0.89260 -0.10700
C 	C 	0.78110 0.90773 0.94082 0.08800
H 	H 	0.84900 0.89400 0.91640 0.00200
C 	C 	0.67530 0.95673 0.00518 -0.07900
H 	H 	0.65650 0.98380 0.03390 0.05800
C 	C 	0.58230 0.91700 0.98302 0.05900
H 	H 	0.49010 0.91180 0.99370 0.02400
C 	C 	0.60420 0.83456 0.91587 -0.16100
H 	H 	0.50020 0.83100 0.91430 0.08300
H 	H 	0.62330 0.83110 0.86950 0.07600
C 	C 	0.68230 0.79099 0.95987 0.15000
C 	C 	0.70690 0.79450 0.03059 -0.17600
H 	H 	0.67750 0.82430 0.05160 0.09000
C 	C 	0.72480 0.74620 0.92941 -0.15800
H 	H 	0.70770 0.74320 0.88190 0.07900
C 	C 	0.10690 0.98366 0.86289 0.14400
H 	H 	0.08370 0.01840 0.85120 -0.06400
C 	C 	0.13860 0.91101 0.91730 -0.00100
H 	H 	0.14180 0.88590 0.95150 0.02900
C 	C 	0.17960 0.90319 0.85670 -0.00800
H 	H 	0.21440 0.87200 0.84120 0.02900
C 	C 	0.19060 0.96100 0.75346 -0.13400
H 	H 	0.14360 0.93480 0.72160 0.06700
H 	H 	0.14960 0.99490 0.73890 0.07700
C 	C 	0.35250 0.96139 0.75154 0.09600
C 	C 	0.42660 0.91424 0.75010 -0.06800
H 	H 	0.37650 0.88260 0.74920 0.04900
C 	C 	0.42700 0.00839 0.75130 -0.10300
H 	H 	0.37800 0.04000 0.75300 0.05600
C 	C 	0.93830 0.10738 0.92093 0.13900
H 	H 	0.03450 0.11810 0.93280 -0.04000
C 	C 	0.74620 0.06081 0.90552 -0.00000
H 	H 	0.68380 0.03230 0.90470 0.01900
C 	C 	0.70510 0.10962 0.88279 -0.01000
H 	H 	0.61170 0.12070 0.86430 0.03400
C 	C 	0.83610 0.19636 0.88308 -0.17100
H 	H 	0.93410 0.20640 0.87830 0.09000
H 	H 	0.77110 0.20630 0.84150 0.08000
C 	C 	0.79240 0.22519 0.94414 0.16500
C 	C 	0.88250 0.22478 0.00655 -0.19400
H 	H 	0.97220 0.20800 0.01140 0.10300
C 	C 	0.66020 0.25057 0.93729 -0.16700
H 	H 	0.59920 0.25130 0.89500 0.08400
N 	N 	0.30180 0.45103 0.97876 -0.20200
N 	N 	0.15030 0.38622 0.94208 -0.09900
N 	N 	0.59100 0.46187 0.92119 -0.23100
N 	N 	0.66100 0.44934 0.82220 -0.11200
N 	N 	0.39300 0.55933 0.92991 -0.22400
N 	N 	0.32940 0.63920 0.89260 -0.10000
C 	C 	0.28110 0.40773 0.94082 0.08500
H 	H 	0.34900 0.39400 0.91640 -0.00700
C 	C 	0.17530 0.45673 0.00518 -0.05800
H 	H 	0.15650 0.48380 0.03390 0.03000
C 	C 	0.08230 0.41700 0.98302 -0.00500
H 	H 	0.99010 0.41180 0.99370 0.06100
C 	C 	0.10420 0.33456 0.91587 -0.16300
H 	H 	0.00020 0.33100 0.91430 0.07300
H 	H 	0.12330 0.33110 0.86950 0.07000
C 	C 	0.18230 0.29099 0.95987 0.14800
C 	C 	0.20690 0.29450 0.03059 -0.18600
H 	H 	0.17750 0.32430 0.05160 0.08600
C 	C 	0.22480 0.24620 0.92941 -0.16800
H 	H 	0.20770 0.24320 0.88190 0.07400
C 	C 	0.60690 0.48366 0.86289 0.08400
H 	H 	0.58370 0.51840 0.85120 -0.01100
C 	C 	0.63860 0.41101 0.91730 0.00200
H 	H 	0.64180 0.38590 0.95150 0.03100
C 	C 	0.67960 0.40319 0.85670 -0.00300
H 	H 	0.71440 0.37200 0.84120 0.03300
C 	C 	0.69060 0.46100 0.75346 -0.07600
H 	H 	0.64360 0.43480 0.72160 0.05700
H 	H 	0.64960 0.49490 0.73890 0.05400
C 	C 	0.85250 0.46139 0.75154 -0.02500
C 	C 	0.92660 0.41424 0.75010 0.06100
H 	H 	0.87650 0.38260 0.74920 0.01100
C 	C 	0.92700 0.50839 0.75130 0.05700
H 	H 	0.87800 0.54000 0.75300 0.01500
C 	C 	0.43830 0.60738 0.92093 0.08300
H 	H 	0.53450 0.61810 0.93280 0.00000
C 	C 	0.24620 0.56081 0.90552 0.00100
H 	H 	0.18380 0.53230 0.90470 0.02400
C 	C 	0.20510 0.60962 0.88279 -0.01000
H 	H 	0.11170 0.62070 0.86430 0.02800
C 	C 	0.33610 0.69636 0.88308 -0.17100
H 	H 	0.43410 0.70640 0.87830 0.08100
H 	H 	0.27110 0.70630 0.84150 0.07500
C 	C 	0.29240 0.72519 0.94414 0.16000
C 	C 	0.38250 0.72478 0.00655 -0.19700
H 	H 	0.47220 0.70800 0.01140 0.09300
C 	C 	0.16020 0.75057 0.93729 -0.17000
H 	H 	0.09920 0.75130 0.89500 0.07800
N 	N 	0.19820 0.95103 0.52124 -0.22000
N 	N 	0.34970 0.88622 0.55792 -0.10600
N 	N 	0.90900 0.96187 0.57881 -0.23100
N 	N 	0.83900 0.94934 0.67780 -0.10900
N 	N 	0.10700 0.05933 0.57009 -0.23100
N 	N 	0.17060 0.13920 0.60740 -0.09900
C 	C 	0.21890 0.90773 0.55918 0.08400
H 	H 	0.15100 0.89400 0.58360 -0.01500
C 	C 	0.32470 0.95673 0.49482 0.00400
H 	H 	0.34350 0.98380 0.46610 0.03600
C 	C 	0.41770 0.91700 0.51698 -0.00600
H 	H 	0.50990 0.91180 0.50630 0.03700
C 	C 	0.39580 0.83456 0.58413 -0.12200
H 	H 	0.49980 0.83100 0.58570 0.07000
H 	H 	0.37670 0.83110 0.63050 0.06300
C 	C 	0.31770 0.79099 0.54013 0.05600
C 	C 	0.29310 0.79450 0.46941 -0.07500
H 	H 	0.32250 0.82430 0.44840 0.05900
C 	C 	0.27520 0.74620 0.57059 -0.08300
H 	H 	0.29230 0.74320 0.61810 0.04700
C 	C 	0.89310 0.98366 0.63711 0.14900
H 	H 	0.91630 0.01840 0.64880 -0.04800
C 	C 	0.86140 0.91101 0.58270 0.00800
H 	H 	0.85820 0.88590 0.54850 0.02500
C 	C 	0.82040 0.90319 0.64330 -0.00600
H 	H 	0.78560 0.87200 0.65880 0.03300
C 	C 	0.80940 0.96100 0.74654 -0.15000
H 	H 	0.85640 0.93480 0.77840 0.08600
H 	H 	0.85040 0.99490 0.76110 0.09300
C 	C 	0.64750 0.96139 0.74846 0.11000
C 	C 	0.57340 0.91424 0.74990 -0.08200
H 	H 	0.62350 0.88260 0.75080 0.05600
C 	C 	0.57300 0.00839 0.74870 -0.11600
H 	H 	0.62200 0.04000 0.74700 0.06300
C 	C 	0.06170 0.10738 0.57907 0.02200
H 	H 	0.96550 0.11810 0.56720 0.03500
C 	C 	0.25380 0.06081 0.59448 -0.00300
H 	H 	0.31620 0.03230 0.59530 0.01200
C 	C 	0.29490 0.10962 0.61721 -0.01300
H 	H 	0.38830 0.12070 0.63570 0.03200
C 	C 	0.16390 0.19636 0.61692 -0.12100
H 	H 	0.06590 0.20640 0.62170 0.05500
H 	H 	0.22890 0.20630 0.65850 0.06000
C 	C 	0.20760 0.22519 0.55586 0.05200
C 	C 	0.11750 0.22478 0.49345 -0.07200
H 	H 	0.02780 0.20800 0.48860 0.04900
C 	C 	0.33980 0.25057 0.56271 -0.07000
H 	H 	0.40080 0.25130 0.60500 0.04900
N 	N 	0.69820 0.45103 0.52124 -0.22100
N 	N 	0.84970 0.38622 0.55792 -0.11400
N 	N 	0.40900 0.46187 0.57881 -0.23700
N 	N 	0.33900 0.44934 0.67780 -0.10000
N 	N 	0.60700 0.55933 0.57009 -0.23100
N 	N 	0.67060 0.63920 0.60740 -0.10600
C 	C 	0.71890 0.40773 0.55918 0.08300
H 	H 	0.65100 0.39400 0.58360 -0.00700
C 	C 	0.82470 0.45673 0.49482 -0.02900
H 	H 	0.84350 0.48380 0.46610 0.03900
C 	C 	0.91770 0.41700 0.51698 0.05700
H 	H 	0.00990 0.41180 0.50630 -0.00700
C 	C 	0.89580 0.33456 0.58413 -0.12400
H 	H 	0.99980 0.33100 0.58570 0.08000
H 	H 	0.87670 0.33110 0.63050 0.06900
C 	C 	0.81770 0.29099 0.54013 0.06400
C 	C 	0.79310 0.29450 0.46941 -0.07000
H 	H 	0.82250 0.32430 0.44840 0.06400
C 	C 	0.77520 0.24620 0.57059 -0.07800
H 	H 	0.79230 0.24320 0.61810 0.05300
C 	C 	0.39310 0.48366 0.63711 0.07800
H 	H 	0.41630 0.51840 0.64880 -0.01100
C 	C 	0.36140 0.41101 0.58270 0.00300
H 	H 	0.35820 0.38590 0.54850 0.02200
C 	C 	0.32040 0.40319 0.64330 -0.01200
H 	H 	0.28560 0.37200 0.65880 0.02900
C 	C 	0.30940 0.46100 0.74654 -0.17600
H 	H 	0.35640 0.43480 0.77840 0.08600
H 	H 	0.35040 0.49490 0.76110 0.08200
C 	C 	0.14750 0.46139 0.74846 0.14700
C 	C 	0.07340 0.41424 0.74990 -0.19600
H 	H 	0.12350 0.38260 0.75080 0.08800
C 	C 	0.07300 0.50839 0.74870 -0.20000
H 	H 	0.12200 0.54000 0.74700 0.09200
C 	C 	0.56170 0.60738 0.57907 0.08200
H 	H 	0.46550 0.61810 0.56720 -0.00600
C 	C 	0.75380 0.56081 0.59448 -0.00100
H 	H 	0.81620 0.53230 0.59530 0.02600
C 	C 	0.79490 0.60962 0.61721 -0.00800
H 	H 	0.88830 0.62070 0.63570 0.03800
C 	C 	0.66390 0.69636 0.61692 -0.12200
H 	H 	0.56590 0.70640 0.62170 0.06600
H 	H 	0.72890 0.70630 0.65850 0.06600
C 	C 	0.70760 0.72519 0.55586 0.05800
C 	C 	0.61750 0.72478 0.49345 -0.07100
H 	H 	0.52780 0.70800 0.48860 0.05900
C 	C 	0.83980 0.75057 0.56271 -0.06800
H 	H 	0.90080 0.75130 0.60500 0.05500
Co	Co	-0.00000 0.00000 -0.00000 1.07200
Co	Co	0.50000 0.50000 -0.00000 1.10000
Co	Co	0.00000 0.00000 0.50000 1.08400
Co	Co	0.50000 0.50000 0.50000 1.11200
