data_crystal

_cell_length_a 10.25890
_cell_length_b 29.58510
_cell_length_c 13.75780
_cell_angle_alpha 90.00000
_cell_angle_beta  103.30300
_cell_angle_gamma 90.00000

_symmetry_space_group_name_	'P 1'
_symmetry_space_group_name_H-M	'P 1'

loop_
_symmetry_equiv_pos_as_xyz
  x,y,z

loop_
_atom_site_label
_atom_site_type_symbol
_atom_site_fract_x
_atom_site_fract_y
_atom_site_fract_z
_atom_site_charge
Zn	Zn	0.79622 0.26838 0.26846 1.23700
Zn	Zn	0.68684 0.09447 0.09329 1.23000
Zn	Zn	0.82015 0.08198 0.39448 1.23500
Zn	Zn	0.72800 0.16214 0.61576 1.23400
Zn	Zn	0.84374 0.16473 0.91434 1.23300
Zn	Zn	0.25191 0.01475 0.24118 1.23600
P 	P 	0.82687 0.18873 0.12521 0.43100
H 	H 	0.89770 0.17290 0.21090 -0.05600
P 	P 	0.71906 0.18517 0.39526 0.46200
H 	H 	0.62080 0.17670 0.31690 -0.05400
P 	P 	0.95969 0.04908 0.22477 0.48100
H 	H 	0.93790 0.00580 0.23820 -0.06000
P 	P 	0.54324 0.04949 0.24885 0.46600
H 	H 	0.54660 0.00960 0.20640 -0.05600
P 	P 	0.50919 0.30651 0.25890 0.46000
H 	H 	0.49320 0.26330 0.27760 -0.06100
P 	P 	0.08454 0.29299 0.26958 0.45300
H 	H 	0.07090 0.25220 0.22940 -0.05100
P 	P 	0.82055 0.06020 0.61488 0.45700
H 	H 	0.91620 0.07080 0.69350 -0.05600
P 	P 	0.68169 0.07033 0.87999 0.45100
H 	H 	0.60290 0.08210 0.79370 -0.04700
O 	O 	0.79100 0.23746 0.14300 -0.42100
O 	O 	0.70080 0.16015 0.09620 -0.46000
O 	O 	0.91400 0.18548 0.04990 -0.42700
O 	O 	0.78210 0.22966 0.37700 -0.43900
O 	O 	0.65860 0.18942 0.48530 -0.42800
O 	O 	0.81910 0.14695 0.40480 -0.46700
O 	O 	0.85290 0.06450 0.13770 -0.47300
O 	O 	0.09480 0.05247 0.19960 -0.42400
O 	O 	0.95820 0.07276 0.32130 -0.45000
O 	O 	0.55460 0.08488 0.17140 -0.45100
O 	O 	0.40960 0.05290 0.27710 -0.41700
O 	O 	0.65730 0.05057 0.33920 -0.46000
O 	O 	0.40820 0.31814 0.16500 -0.46000
O 	O 	0.65120 0.31216 0.24310 -0.40800
O 	O 	0.49480 0.33284 0.34980 -0.43500
O 	O 	0.09070 0.32567 0.18650 -0.45400
O 	O 	0.21170 0.29227 0.35050 -0.45900
O 	O 	0.96080 0.30160 0.30900 -0.42400
O 	O 	0.71670 0.09703 0.60220 -0.46400
O 	O 	0.88470 0.05660 0.52670 -0.42600
O 	O 	0.76440 0.01496 0.63640 -0.42600
O 	O 	0.79950 0.10225 0.89950 -0.48500
O 	O 	0.72660 0.02232 0.86920 -0.43900
O 	O 	0.59910 0.07387 0.95867 -0.42400
Zn	Zn	0.70378 0.76838 0.23154 1.23700
Zn	Zn	0.81316 0.59447 0.40671 1.23000
Zn	Zn	0.67985 0.58198 0.10552 1.23500
Zn	Zn	0.77200 0.66214 0.88424 1.23300
Zn	Zn	0.65626 0.66473 0.58566 1.23300
Zn	Zn	0.24809 0.51475 0.25882 1.23600
P 	P 	0.67313 0.68873 0.37479 0.43100
H 	H 	0.60230 0.67290 0.28910 -0.05700
P 	P 	0.78094 0.68517 0.10474 0.46200
H 	H 	0.87920 0.67670 0.18310 -0.05500
P 	P 	0.54031 0.54908 0.27523 0.48000
H 	H 	0.56210 0.50580 0.26180 -0.05900
P 	P 	0.95676 0.54949 0.25115 0.46500
H 	H 	0.95340 0.50960 0.29360 -0.05500
P 	P 	0.99081 0.80651 0.24110 0.45400
H 	H 	0.00680 0.76330 0.22240 -0.05900
P 	P 	0.41546 0.79299 0.23042 0.45500
H 	H 	0.42910 0.75220 0.27060 -0.05000
P 	P 	0.67945 0.56020 0.88512 0.45700
H 	H 	0.58380 0.57080 0.80650 -0.05600
P 	P 	0.81831 0.57033 0.62001 0.45100
H 	H 	0.89710 0.58210 0.70630 -0.04800
O 	O 	0.70900 0.73746 0.35700 -0.42200
O 	O 	0.79920 0.66015 0.40380 -0.46100
O 	O 	0.58600 0.68548 0.45010 -0.42800
O 	O 	0.71790 0.72966 0.12300 -0.44000
O 	O 	0.84140 0.68942 0.01470 -0.42800
O 	O 	0.68090 0.64695 0.09520 -0.46800
O 	O 	0.64710 0.56450 0.36230 -0.47300
O 	O 	0.40520 0.55247 0.30040 -0.42300
O 	O 	0.54180 0.57276 0.17870 -0.45000
O 	O 	0.94540 0.58488 0.32860 -0.45100
O 	O 	0.09040 0.55290 0.22290 -0.41600
O 	O 	0.84270 0.55057 0.16080 -0.46000
O 	O 	0.09180 0.81814 0.33500 -0.45800
O 	O 	0.84880 0.81216 0.25690 -0.40900
O 	O 	0.00520 0.83284 0.15020 -0.43300
O 	O 	0.40930 0.82567 0.31350 -0.45300
O 	O 	0.28830 0.79227 0.14950 -0.45800
O 	O 	0.53920 0.80160 0.19100 -0.42600
O 	O 	0.78330 0.59703 0.89780 -0.46400
O 	O 	0.61530 0.55660 0.97330 -0.42600
O 	O 	0.73560 0.51496 0.86360 -0.42600
O 	O 	0.70050 0.60225 0.60050 -0.48600
O 	O 	0.77340 0.52232 0.63080 -0.44000
O 	O 	0.90090 0.57387 0.54133 -0.42500
Zn	Zn	0.20378 0.73162 0.73154 1.23700
Zn	Zn	0.31316 0.90553 0.90671 1.23000
Zn	Zn	0.17985 0.91802 0.60552 1.23500
Zn	Zn	0.27200 0.83786 0.38424 1.23400
Zn	Zn	0.15626 0.83527 0.08566 1.23300
Zn	Zn	0.74809 0.98525 0.75882 1.23600
P 	P 	0.17313 0.81127 0.87479 0.43100
H 	H 	0.10230 0.82710 0.78910 -0.05600
P 	P 	0.28094 0.81483 0.60474 0.46200
H 	H 	0.37920 0.82330 0.68310 -0.05400
P 	P 	0.04031 0.95092 0.77523 0.48100
H 	H 	0.06210 0.99420 0.76180 -0.06000
P 	P 	0.45676 0.95051 0.75115 0.46600
H 	H 	0.45340 0.99040 0.79360 -0.05600
P 	P 	0.49081 0.69349 0.74110 0.46000
H 	H 	0.50680 0.73670 0.72240 -0.06100
P 	P 	0.91546 0.70701 0.73042 0.45300
H 	H 	0.92910 0.74780 0.77060 -0.05100
P 	P 	0.17945 0.93980 0.38512 0.45700
H 	H 	0.08380 0.92920 0.30650 -0.05600
P 	P 	0.31831 0.92967 0.12001 0.45100
H 	H 	0.39710 0.91790 0.20630 -0.04700
O 	O 	0.20900 0.76254 0.85700 -0.42100
O 	O 	0.29920 0.83985 0.90380 -0.46000
O 	O 	0.08600 0.81452 0.95010 -0.42700
O 	O 	0.21790 0.77034 0.62300 -0.43900
O 	O 	0.34140 0.81058 0.51470 -0.42800
O 	O 	0.18090 0.85305 0.59520 -0.46700
O 	O 	0.14710 0.93550 0.86230 -0.47300
O 	O 	0.90520 0.94753 0.80040 -0.42400
O 	O 	0.04180 0.92724 0.67870 -0.45000
O 	O 	0.44540 0.91512 0.82860 -0.45100
O 	O 	0.59040 0.94710 0.72290 -0.41700
O 	O 	0.34270 0.94943 0.66080 -0.46000
O 	O 	0.59180 0.68186 0.83500 -0.46000
O 	O 	0.34880 0.68784 0.75690 -0.40800
O 	O 	0.50520 0.66716 0.65020 -0.43500
O 	O 	0.90930 0.67433 0.81350 -0.45400
O 	O 	0.78830 0.70773 0.64950 -0.45900
O 	O 	0.03920 0.69840 0.69100 -0.42400
O 	O 	0.28330 0.90297 0.39780 -0.46400
O 	O 	0.11530 0.94340 0.47330 -0.42600
O 	O 	0.23560 0.98504 0.36360 -0.42600
O 	O 	0.20050 0.89775 0.10050 -0.48500
O 	O 	0.27340 0.97768 0.13080 -0.43900
O 	O 	0.40090 0.92613 0.04133 -0.42400
Zn	Zn	0.29622 0.23162 0.76846 1.23700
Zn	Zn	0.18684 0.40553 0.59329 1.23000
Zn	Zn	0.32015 0.41802 0.89448 1.23500
Zn	Zn	0.22800 0.33786 0.11576 1.23300
Zn	Zn	0.34374 0.33527 0.41434 1.23300
Zn	Zn	0.75191 0.48525 0.74118 1.23600
P 	P 	0.32687 0.31127 0.62521 0.43100
H 	H 	0.39770 0.32710 0.71090 -0.05700
P 	P 	0.21906 0.31483 0.89526 0.46200
H 	H 	0.12080 0.32330 0.81690 -0.05500
P 	P 	0.45969 0.45092 0.72477 0.48000
H 	H 	0.43790 0.49420 0.73820 -0.05900
P 	P 	0.04324 0.45051 0.74885 0.46500
H 	H 	0.04660 0.49040 0.70640 -0.05500
P 	P 	0.00919 0.19349 0.75890 0.45400
H 	H 	0.99320 0.23670 0.77760 -0.05900
P 	P 	0.58454 0.20701 0.76958 0.45500
H 	H 	0.57090 0.24780 0.72940 -0.05000
P 	P 	0.32055 0.43980 0.11488 0.45700
H 	H 	0.41620 0.42920 0.19350 -0.05600
P 	P 	0.18169 0.42967 0.37999 0.45100
H 	H 	0.10290 0.41790 0.29370 -0.04800
O 	O 	0.29100 0.26254 0.64300 -0.42200
O 	O 	0.20080 0.33985 0.59620 -0.46100
O 	O 	0.41400 0.31452 0.54990 -0.42800
O 	O 	0.28210 0.27034 0.87700 -0.44000
O 	O 	0.15860 0.31058 0.98530 -0.42800
O 	O 	0.31910 0.35305 0.90480 -0.46800
O 	O 	0.35290 0.43550 0.63770 -0.47300
O 	O 	0.59480 0.44753 0.69960 -0.42300
O 	O 	0.45820 0.42724 0.82130 -0.45000
O 	O 	0.05460 0.41512 0.67140 -0.45100
O 	O 	0.90960 0.44710 0.77710 -0.41600
O 	O 	0.15730 0.44943 0.83920 -0.46000
O 	O 	0.90820 0.18186 0.66500 -0.45800
O 	O 	0.15120 0.18784 0.74310 -0.40900
O 	O 	0.99480 0.16716 0.84980 -0.43300
O 	O 	0.59070 0.17433 0.68650 -0.45300
O 	O 	0.71170 0.20773 0.85050 -0.45800
O 	O 	0.46080 0.19840 0.80900 -0.42600
O 	O 	0.21670 0.40297 0.10220 -0.46400
O 	O 	0.38470 0.44340 0.02670 -0.42600
O 	O 	0.26440 0.48504 0.13640 -0.42600
O 	O 	0.29950 0.39775 0.39950 -0.48600
O 	O 	0.22660 0.47768 0.36920 -0.44000
O 	O 	0.09910 0.42613 0.45867 -0.42500
