data_crystal

_cell_length_a 8.52690
_cell_length_b 26.77400
_cell_length_c 12.05000
_cell_angle_alpha 90.00000
_cell_angle_beta  105.38000
_cell_angle_gamma 90.00000

_symmetry_space_group_name_	'P 1'
_symmetry_space_group_name_H-M	'P 1'

loop_
_symmetry_equiv_pos_as_xyz
  x,y,z

loop_
_atom_site_label
_atom_site_type_symbol
_atom_site_fract_x
_atom_site_fract_y
_atom_site_fract_z
_atom_site_charge
Gd	Gd	0.21817 0.48156 0.48323 1.61700
Cu	Cu	0.90559 0.30212 0.98927 0.79700
O 	O 	0.01060 0.44080 0.34190 -0.45600
O 	O 	0.78220 0.44840 0.39930 -0.44400
O 	O 	0.04650 0.45690 0.59630 -0.50300
O 	O 	0.82360 0.44870 0.65140 -0.41000
O 	O 	0.42670 0.46820 0.65780 -0.44900
O 	O 	0.58820 0.52600 0.61860 -0.48400
N 	N 	0.78370 0.33760 0.09120 -0.24700
N 	N 	0.03260 0.33850 0.89020 -0.23500
N 	N 	0.82010 0.53760 0.97310 -0.14700
C 	C 	0.85820 0.37100 0.17430 0.09700
H 	H 	0.96660 0.37890 0.18150 -0.01200
C 	C 	0.78030 0.39340 0.24780 -0.18400
C 	C 	0.61930 0.38160 0.23770 0.09200
H 	H 	0.56250 0.39690 0.28450 0.01200
C 	C 	0.54440 0.34660 0.15650 -0.15600
H 	H 	0.43720 0.33740 0.15000 0.09000
C 	C 	0.62830 0.32530 0.08480 0.07400
H 	H 	0.57610 0.30180 0.03070 -0.01600
C 	C 	0.86480 0.43020 0.33640 0.44100
C 	C 	0.96380 0.37340 0.81180 0.07300
H 	H 	0.85650 0.38250 0.80510 0.00100
C 	C 	0.04660 0.39650 0.74020 -0.15600
C 	C 	0.20610 0.38230 0.74980 0.09300
H 	H 	0.26480 0.39710 0.70360 -0.00200
C 	C 	0.27680 0.34600 0.82840 -0.15800
H 	H 	0.38290 0.33540 0.83530 0.09100
C 	C 	0.18570 0.32580 0.89650 0.08700
H 	H 	0.23430 0.30170 0.95020 -0.02000
C 	C 	0.96780 0.43620 0.65810 0.41100
C 	C 	0.74210 0.53580 0.85600 0.12700
H 	H 	0.76660 0.55950 0.80690 -0.00800
C 	C 	0.63110 0.49990 0.81260 -0.22200
C 	C 	0.60010 0.46530 0.89010 0.16500
H 	H 	0.52090 0.44120 0.86160 -0.01500
C 	C 	0.67400 0.46400 0.00040 -0.24100
H 	H 	0.65530 0.43860 0.04790 0.12200
C 	C 	0.77600 0.50040 0.04040 0.13900
H 	H 	0.82270 0.50160 0.11940 -0.00300
C 	C 	0.54330 0.49730 0.68870 0.46600
Gd	Gd	0.78183 0.98156 0.51677 1.61900
Cu	Cu	0.09441 0.80212 0.01073 0.79800
O 	O 	0.98940 0.94080 0.65810 -0.45500
O 	O 	0.21780 0.94840 0.60070 -0.44300
O 	O 	0.95350 0.95690 0.40370 -0.50100
O 	O 	0.17640 0.94870 0.34860 -0.40900
O 	O 	0.57330 0.96820 0.34220 -0.44900
O 	O 	0.41180 0.02600 0.38140 -0.48300
N 	N 	0.21630 0.83760 0.90880 -0.24700
N 	N 	0.96740 0.83850 0.10980 -0.23500
N 	N 	0.17990 0.03760 0.02690 -0.14400
C 	C 	0.14180 0.87100 0.82570 0.09700
H 	H 	0.03340 0.87890 0.81850 -0.01200
C 	C 	0.21970 0.89340 0.75220 -0.18400
C 	C 	0.38070 0.88160 0.76230 0.09200
H 	H 	0.43750 0.89690 0.71550 0.01200
C 	C 	0.45560 0.84660 0.84350 -0.15600
H 	H 	0.56280 0.83740 0.85000 0.09000
C 	C 	0.37170 0.82530 0.91520 0.07400
H 	H 	0.42390 0.80180 0.96930 -0.01600
C 	C 	0.13520 0.93020 0.66360 0.44000
C 	C 	0.03620 0.87340 0.18820 0.07100
H 	H 	0.14350 0.88250 0.19490 0.00100
C 	C 	0.95340 0.89650 0.25980 -0.15400
C 	C 	0.79390 0.88230 0.25020 0.09200
H 	H 	0.73520 0.89710 0.29640 -0.00100
C 	C 	0.72320 0.84600 0.17160 -0.15700
H 	H 	0.61710 0.83540 0.16470 0.09000
C 	C 	0.81430 0.82580 0.10350 0.08600
H 	H 	0.76570 0.80170 0.04980 -0.02000
C 	C 	0.03220 0.93620 0.34190 0.40900
C 	C 	0.25790 0.03580 0.14400 0.12700
H 	H 	0.23340 0.05950 0.19310 -0.00800
C 	C 	0.36890 0.99990 0.18740 -0.22000
C 	C 	0.39990 0.96530 0.10990 0.15700
H 	H 	0.47910 0.94120 0.13840 -0.01200
C 	C 	0.32600 0.96400 0.99960 -0.23000
H 	H 	0.34470 0.93860 0.95210 0.11900
C 	C 	0.22400 0.00040 0.95960 0.13100
H 	H 	0.17730 0.00160 0.88060 -0.00100
C 	C 	0.45670 0.99730 0.31130 0.46500
Gd	Gd	0.78183 0.51844 0.51677 1.61800
Cu	Cu	0.09441 0.69788 0.01073 0.79800
O 	O 	0.98940 0.55920 0.65810 -0.45500
O 	O 	0.21780 0.55160 0.60070 -0.44300
O 	O 	0.95350 0.54310 0.40370 -0.50200
O 	O 	0.17640 0.55130 0.34860 -0.40900
O 	O 	0.57330 0.53180 0.34220 -0.44900
O 	O 	0.41180 0.47400 0.38140 -0.48400
N 	N 	0.21630 0.66240 0.90880 -0.24700
N 	N 	0.96740 0.66150 0.10980 -0.23500
N 	N 	0.17990 0.46240 0.02690 -0.14700
C 	C 	0.14180 0.62900 0.82570 0.09700
H 	H 	0.03340 0.62110 0.81850 -0.01200
C 	C 	0.21970 0.60660 0.75220 -0.18400
C 	C 	0.38070 0.61840 0.76230 0.09200
H 	H 	0.43750 0.60310 0.71550 0.01200
C 	C 	0.45560 0.65340 0.84350 -0.15600
H 	H 	0.56280 0.66260 0.85000 0.09000
C 	C 	0.37170 0.67470 0.91520 0.07400
H 	H 	0.42390 0.69820 0.96930 -0.01600
C 	C 	0.13520 0.56980 0.66360 0.44100
C 	C 	0.03620 0.62660 0.18820 0.07300
H 	H 	0.14350 0.61750 0.19490 0.00100
C 	C 	0.95340 0.60350 0.25980 -0.15600
C 	C 	0.79390 0.61770 0.25020 0.09300
H 	H 	0.73520 0.60290 0.29640 -0.00200
C 	C 	0.72320 0.65400 0.17160 -0.15800
H 	H 	0.61710 0.66460 0.16470 0.09100
C 	C 	0.81430 0.67420 0.10350 0.08700
H 	H 	0.76570 0.69830 0.04980 -0.02000
C 	C 	0.03220 0.56380 0.34190 0.41100
C 	C 	0.25790 0.46420 0.14400 0.12700
H 	H 	0.23340 0.44050 0.19310 -0.00800
C 	C 	0.36890 0.50010 0.18740 -0.22200
C 	C 	0.39990 0.53470 0.10990 0.16500
H 	H 	0.47910 0.55880 0.13840 -0.01500
C 	C 	0.32600 0.53600 0.99960 -0.24100
H 	H 	0.34470 0.56140 0.95210 0.12200
C 	C 	0.22400 0.49960 0.95960 0.13900
H 	H 	0.17730 0.49840 0.88060 -0.00300
C 	C 	0.45670 0.50270 0.31130 0.46600
Gd	Gd	0.21817 0.01844 0.48323 1.61900
Cu	Cu	0.90559 0.19788 0.98927 0.79800
O 	O 	0.01060 0.05920 0.34190 -0.45500
O 	O 	0.78220 0.05160 0.39930 -0.44300
O 	O 	0.04650 0.04310 0.59630 -0.50100
O 	O 	0.82360 0.05130 0.65140 -0.40900
O 	O 	0.42670 0.03180 0.65780 -0.44900
O 	O 	0.58820 0.97400 0.61860 -0.48300
N 	N 	0.78370 0.16240 0.09120 -0.24700
N 	N 	0.03260 0.16150 0.89020 -0.23500
N 	N 	0.82010 0.96240 0.97310 -0.14400
C 	C 	0.85820 0.12900 0.17430 0.09700
H 	H 	0.96660 0.12110 0.18150 -0.01200
C 	C 	0.78030 0.10660 0.24780 -0.18400
C 	C 	0.61930 0.11840 0.23770 0.09200
H 	H 	0.56250 0.10310 0.28450 0.01200
C 	C 	0.54440 0.15340 0.15650 -0.15600
H 	H 	0.43720 0.16260 0.15000 0.09000
C 	C 	0.62830 0.17470 0.08480 0.07400
H 	H 	0.57610 0.19820 0.03070 -0.01600
C 	C 	0.86480 0.06980 0.33640 0.44000
C 	C 	0.96380 0.12660 0.81180 0.07100
H 	H 	0.85650 0.11750 0.80510 0.00100
C 	C 	0.04660 0.10350 0.74020 -0.15400
C 	C 	0.20610 0.11770 0.74980 0.09200
H 	H 	0.26480 0.10290 0.70360 -0.00100
C 	C 	0.27680 0.15400 0.82840 -0.15700
H 	H 	0.38290 0.16460 0.83530 0.09000
C 	C 	0.18570 0.17420 0.89650 0.08600
H 	H 	0.23430 0.19830 0.95020 -0.02000
C 	C 	0.96780 0.06380 0.65810 0.40900
C 	C 	0.74210 0.96420 0.85600 0.12700
H 	H 	0.76660 0.94050 0.80690 -0.00800
C 	C 	0.63110 0.00010 0.81260 -0.22000
C 	C 	0.60010 0.03470 0.89010 0.15700
H 	H 	0.52090 0.05880 0.86160 -0.01200
C 	C 	0.67400 0.03600 0.00040 -0.23000
H 	H 	0.65530 0.06140 0.04790 0.11900
C 	C 	0.77600 0.99960 0.04040 0.13100
H 	H 	0.82270 0.99840 0.11940 -0.00100
C 	C 	0.54330 0.00270 0.68870 0.46500
I 	I 	0.13166 0.25000 0.14925 -0.42100
I 	I 	0.68200 0.25000 0.83175 -0.44200
I 	I 	0.86834 0.75000 0.85075 -0.42100
I 	I 	0.31800 0.75000 0.16825 -0.44200
