data_crystal

_cell_length_a 9.63230
_cell_length_b 16.67600
_cell_length_c 21.18200
_cell_angle_alpha 104.08000
_cell_angle_beta  100.39000
_cell_angle_gamma 97.03000

_symmetry_space_group_name_	'P 1'
_symmetry_space_group_name_H-M	'P 1'

loop_
_symmetry_equiv_pos_as_xyz
  x,y,z

loop_
_atom_site_label
_atom_site_type_symbol
_atom_site_fract_x
_atom_site_fract_y
_atom_site_fract_z
_atom_site_charge
Gd	Gd	0.77664 0.01350 0.49731 1.63100
Cu	Cu	0.46200 0.31722 0.09884 0.72500
Cu	Cu	0.51374 0.44241 0.04037 0.69900
Cu	Cu	0.31938 0.44455 0.12205 0.73200
Cu	Cu	0.25496 0.32682 0.00169 0.73100
I 	I 	0.58871 0.47754 0.17426 -0.60100
I 	I 	0.48967 0.27962 0.97062 -0.61100
I 	I 	0.19593 0.28844 0.11258 -0.59600
I 	I 	0.26220 0.48978 0.99999 -0.71800
O 	O 	0.85930 0.08360 0.42211 -0.43500
O 	O 	0.07660 0.05090 0.43990 -0.48700
O 	O 	0.95160 0.12450 0.57207 -0.45200
O 	O 	0.17040 0.09140 0.58677 -0.46500
O 	O 	0.66940 0.04320 0.59008 -0.46600
O 	O 	0.44110 0.98430 0.57023 -0.48600
N 	N 	0.59780 0.25340 0.14120 -0.26100
N 	N 	0.79200 0.47410 0.83160 -0.25100
N 	N 	0.07730 0.26190 0.93240 -0.24800
C 	C 	0.56180 0.19930 0.17490 0.11100
H 	H 	0.46580 0.18620 0.17590 -0.02200
C 	C 	0.65960 0.16160 0.20860 -0.19400
H 	H 	0.62750 0.12320 0.23030 0.09900
C 	C 	0.80390 0.18010 0.21030 0.14700
C 	C 	0.83550 0.23350 0.17300 -0.21400
H 	H 	0.93010 0.24650 0.16970 0.12500
C 	C 	0.73510 0.26830 0.14080 0.13500
H 	H 	0.76470 0.30470 0.11690 -0.03300
C 	C 	0.90920 0.14300 0.24620 -0.07600
C 	C 	0.89530 0.12620 0.30640 0.03800
H 	H 	0.81400 0.13670 0.32270 0.02800
C 	C 	0.99840 0.09440 0.34240 -0.14800
C 	C 	0.12060 0.07760 0.31790 0.05300
H 	H 	0.19100 0.05620 0.34180 0.01600
C 	C 	0.13590 0.09260 0.25880 -0.10500
H 	H 	0.21720 0.08180 0.24260 0.06900
C 	C 	0.03080 0.12400 0.22240 0.01000
H 	H 	0.04170 0.13250 0.18160 0.03700
C 	C 	0.97810 0.07470 0.40660 0.44200
C 	C 	0.73800 0.39900 0.78900 0.10400
H 	H 	0.63880 0.38420 0.77570 -0.01700
C 	C 	0.81920 0.34160 0.76310 -0.18200
H 	H 	0.77490 0.29010 0.73360 0.09600
C 	C 	0.96580 0.36150 0.78150 0.12900
C 	C 	0.02220 0.44000 0.82630 -0.17700
H 	H 	0.12100 0.45610 0.84100 0.11000
C 	C 	0.93470 0.49350 0.84880 0.10600
H 	H 	0.97640 0.54600 0.87750 -0.02000
C 	C 	0.06230 0.30470 0.75690 -0.06800
C 	C 	0.02470 0.24650 0.69590 0.04900
H 	H 	0.93400 0.24120 0.66960 0.02200
C 	C 	0.11860 0.19450 0.67190 -0.15700
C 	C 	0.25380 0.20300 0.71110 0.06400
H 	H 	0.31730 0.16930 0.69570 0.01700
C 	C 	0.29610 0.26160 0.77350 -0.11600
H 	H 	0.38750 0.26760 0.79950 0.07400
C 	C 	0.19930 0.31060 0.79580 0.02600
H 	H 	0.22590 0.34860 0.83790 0.01000
C 	C 	0.07600 0.13240 0.60500 0.45500
C 	C 	0.07800 0.19320 0.88450 0.11100
H 	H 	0.16530 0.17550 0.88210 -0.01900
C 	C 	0.96010 0.14760 0.83910 -0.18400
H 	H 	0.96840 0.10110 0.80620 0.09800
C 	C 	0.82560 0.17050 0.84160 0.12000
C 	C 	0.82390 0.24160 0.89170 -0.17800
H 	H 	0.73790 0.25990 0.89640 0.11100
C 	C 	0.95100 0.28490 0.93440 0.10300
H 	H 	0.94780 0.33340 0.96660 -0.01300
C 	C 	0.69330 0.12270 0.79530 -0.05500
C 	C 	0.68670 0.09470 0.72650 0.02100
H 	H 	0.76800 0.10690 0.71030 0.03100
C 	C 	0.56250 0.04970 0.68250 -0.14400
C 	C 	0.44000 0.03020 0.70590 0.03300
H 	H 	0.35570 0.00010 0.67650 0.02700
C 	C 	0.44600 0.05660 0.77430 -0.08600
H 	H 	0.36570 0.04270 0.79070 0.06300
C 	C 	0.57050 0.10330 0.81800 -0.01400
H 	H 	0.57170 0.12190 0.86320 0.05000
C 	C 	0.55700 0.02350 0.60890 0.44100
Gd	Gd	0.22336 0.98650 0.50269 1.63100
Cu	Cu	0.53800 0.68278 0.90116 0.72500
Cu	Cu	0.48626 0.55759 0.95963 0.69900
Cu	Cu	0.68062 0.55545 0.87795 0.73200
Cu	Cu	0.74504 0.67318 0.99831 0.73100
I 	I 	0.41129 0.52246 0.82574 -0.60100
I 	I 	0.51033 0.72038 0.02938 -0.61100
I 	I 	0.80407 0.71156 0.88742 -0.59600
I 	I 	0.73780 0.51022 0.00001 -0.71800
O 	O 	0.14070 0.91640 0.57789 -0.43500
O 	O 	0.92340 0.94910 0.56010 -0.48700
O 	O 	0.04840 0.87550 0.42793 -0.45200
O 	O 	0.82960 0.90860 0.41323 -0.46500
O 	O 	0.33060 0.95680 0.40992 -0.46600
O 	O 	0.55890 0.01570 0.42977 -0.48600
N 	N 	0.40220 0.74660 0.85880 -0.26100
N 	N 	0.20800 0.52590 0.16840 -0.25100
N 	N 	0.92270 0.73810 0.06760 -0.24800
C 	C 	0.43820 0.80070 0.82510 0.11100
H 	H 	0.53420 0.81380 0.82410 -0.02200
C 	C 	0.34040 0.83840 0.79140 -0.19400
H 	H 	0.37250 0.87680 0.76970 0.09900
C 	C 	0.19610 0.81990 0.78970 0.14700
C 	C 	0.16450 0.76650 0.82700 -0.21400
H 	H 	0.06990 0.75350 0.83030 0.12500
C 	C 	0.26490 0.73170 0.85920 0.13500
H 	H 	0.23530 0.69530 0.88310 -0.03300
C 	C 	0.09080 0.85700 0.75380 -0.07600
C 	C 	0.10470 0.87380 0.69360 0.03800
H 	H 	0.18600 0.86330 0.67730 0.02800
C 	C 	0.00160 0.90560 0.65760 -0.14800
C 	C 	0.87940 0.92240 0.68210 0.05300
H 	H 	0.80900 0.94380 0.65820 0.01600
C 	C 	0.86410 0.90740 0.74120 -0.10500
H 	H 	0.78280 0.91820 0.75740 0.06900
C 	C 	0.96920 0.87600 0.77760 0.01000
H 	H 	0.95830 0.86750 0.81840 0.03700
C 	C 	0.02190 0.92530 0.59340 0.44200
C 	C 	0.26200 0.60100 0.21100 0.10400
H 	H 	0.36120 0.61580 0.22430 -0.01700
C 	C 	0.18080 0.65840 0.23690 -0.18200
H 	H 	0.22510 0.70990 0.26640 0.09600
C 	C 	0.03420 0.63850 0.21850 0.12900
C 	C 	0.97780 0.56000 0.17370 -0.17700
H 	H 	0.87900 0.54390 0.15900 0.11000
C 	C 	0.06530 0.50650 0.15120 0.10600
H 	H 	0.02360 0.45400 0.12250 -0.02000
C 	C 	0.93770 0.69530 0.24310 -0.06800
C 	C 	0.97530 0.75350 0.30410 0.04900
H 	H 	0.06600 0.75880 0.33040 0.02200
C 	C 	0.88140 0.80550 0.32810 -0.15700
C 	C 	0.74620 0.79700 0.28890 0.06400
H 	H 	0.68270 0.83070 0.30430 0.01700
C 	C 	0.70390 0.73840 0.22650 -0.11600
H 	H 	0.61250 0.73240 0.20050 0.07400
C 	C 	0.80070 0.68940 0.20420 0.02600
H 	H 	0.77410 0.65140 0.16210 0.01000
C 	C 	0.92400 0.86760 0.39500 0.45500
C 	C 	0.92200 0.80680 0.11550 0.11100
H 	H 	0.83470 0.82450 0.11790 -0.01900
C 	C 	0.03990 0.85240 0.16090 -0.18400
H 	H 	0.03160 0.89890 0.19380 0.09800
C 	C 	0.17440 0.82950 0.15840 0.12000
C 	C 	0.17610 0.75840 0.10830 -0.17800
H 	H 	0.26210 0.74010 0.10360 0.11100
C 	C 	0.04900 0.71510 0.06560 0.10300
H 	H 	0.05220 0.66660 0.03340 -0.01300
C 	C 	0.30670 0.87730 0.20470 -0.05500
C 	C 	0.31330 0.90530 0.27350 0.02100
H 	H 	0.23200 0.89310 0.28970 0.03100
C 	C 	0.43750 0.95030 0.31750 -0.14400
C 	C 	0.56000 0.96980 0.29410 0.03300
H 	H 	0.64430 0.99990 0.32350 0.02700
C 	C 	0.55400 0.94340 0.22570 -0.08600
H 	H 	0.63430 0.95730 0.20930 0.06300
C 	C 	0.42950 0.89670 0.18200 -0.01400
H 	H 	0.42830 0.87810 0.13680 0.05000
C 	C 	0.44300 0.97650 0.39110 0.44100
