data_crystal

_cell_length_a 4.92500
_cell_length_b 22.09720
_cell_length_c 12.90380
_cell_angle_alpha 90.00000
_cell_angle_beta  99.24500
_cell_angle_gamma 90.00000

_symmetry_space_group_name_	'P 1'
_symmetry_space_group_name_H-M	'P 1'

loop_
_symmetry_equiv_pos_as_xyz
  x,y,z

loop_
_atom_site_label
_atom_site_type_symbol
_atom_site_fract_x
_atom_site_fract_y
_atom_site_fract_z
_atom_site_charge
C 	C 	0.59050 0.77570 0.05080 -0.56900
H 	H 	0.79100 0.77200 0.05920 0.22000
H 	H 	0.54000 0.81500 0.01800 0.24200
C 	C 	0.12820 0.48870 0.23180 -0.68600
H 	H 	0.02700 0.50270 0.28400 0.26800
H 	H 	0.30200 0.47430 0.26600 0.25700
C 	C 	0.97390 0.43810 0.17040 0.55700
C 	C 	0.50450 0.77440 0.15740 0.51000
O 	O 	0.53330 0.65530 0.01550 -0.57300
O 	O 	0.12740 0.72460 0.95310 -0.43800
O 	O 	0.53500 0.72210 0.85810 -0.43300
O 	O 	0.89400 0.57655 0.10550 -0.53100
O 	O 	0.31380 0.52450 0.05400 -0.55400
O 	O 	0.36390 0.59580 0.21040 -0.41700
O 	O 	0.72080 0.43330 0.16600 -0.50100
O 	O 	0.12010 0.40200 0.12260 -0.63000
O 	O 	0.43190 0.82420 0.19370 -0.48000
O 	O 	0.50570 0.72590 0.20730 -0.45700
O 	O 	0.98050 0.66050 0.28720 -0.15700
O 	O 	0.99600 0.70240 0.19620 -0.23600
O 	O 	0.84600 0.61960 0.33500 -0.18700
P 	P 	0.43490 0.71574 0.96464 0.51100
P 	P 	0.17950 0.55041 0.14435 0.54700
Zn	Zn	0.67299 0.64296 0.17289 1.25600
Zn	Zn	0.59232 0.56676 0.96815 1.23500
Zn	Zn	0.88310 0.68660 0.84028 1.24200
C 	C 	0.90950 0.27570 0.44920 -0.56900
H 	H 	0.70900 0.27200 0.44080 0.22000
H 	H 	0.96000 0.31500 0.48200 0.24200
C 	C 	0.37180 0.98870 0.26820 -0.68200
H 	H 	0.47300 0.00270 0.21600 0.26700
H 	H 	0.19800 0.97430 0.23400 0.25700
C 	C 	0.52610 0.93810 0.32960 0.55500
C 	C 	0.99550 0.27440 0.34260 0.51000
O 	O 	0.96670 0.15530 0.48450 -0.57400
O 	O 	0.37260 0.22460 0.54690 -0.43800
O 	O 	0.96500 0.22210 0.64190 -0.43300
O 	O 	0.60600 0.07655 0.39450 -0.53100
O 	O 	0.18620 0.02450 0.44600 -0.55300
O 	O 	0.13610 0.09580 0.28960 -0.41600
O 	O 	0.77920 0.93330 0.33400 -0.50000
O 	O 	0.37990 0.90200 0.37740 -0.62900
O 	O 	0.06810 0.32420 0.30630 -0.48100
O 	O 	0.99430 0.22590 0.29270 -0.45700
O 	O 	0.51950 0.16050 0.21280 -0.15700
O 	O 	0.50400 0.20240 0.30380 -0.23600
O 	O 	0.65400 0.11960 0.16500 -0.18700
P 	P 	0.06510 0.21574 0.53536 0.51300
P 	P 	0.32050 0.05041 0.35565 0.54700
Zn	Zn	0.82701 0.14296 0.32711 1.25600
Zn	Zn	0.90768 0.06676 0.53185 1.23500
Zn	Zn	0.61690 0.18660 0.65972 1.24200
C 	C 	0.40950 0.22430 0.94920 -0.56800
H 	H 	0.20900 0.22800 0.94080 0.22100
H 	H 	0.46000 0.18500 0.98200 0.24300
C 	C 	0.87180 0.51130 0.76820 -0.68500
H 	H 	0.97300 0.49730 0.71600 0.26900
H 	H 	0.69800 0.52570 0.73400 0.25800
C 	C 	0.02610 0.56190 0.82960 0.55700
C 	C 	0.49550 0.22560 0.84260 0.51000
O 	O 	0.46670 0.34470 0.98450 -0.57300
O 	O 	0.87260 0.27540 0.04690 -0.43800
O 	O 	0.46500 0.27790 0.14190 -0.43300
O 	O 	0.10600 0.42345 0.89450 -0.53100
O 	O 	0.68620 0.47550 0.94600 -0.55400
O 	O 	0.63610 0.40420 0.78960 -0.41700
O 	O 	0.27920 0.56670 0.83400 -0.50100
O 	O 	0.87990 0.59800 0.87740 -0.63000
O 	O 	0.56810 0.17580 0.80630 -0.48000
O 	O 	0.49430 0.27410 0.79270 -0.45700
O 	O 	0.01950 0.33950 0.71280 -0.15700
O 	O 	0.00400 0.29760 0.80380 -0.23600
O 	O 	0.15400 0.38040 0.66500 -0.18700
P 	P 	0.56510 0.28426 0.03536 0.51100
P 	P 	0.82050 0.44959 0.85565 0.54700
Zn	Zn	0.32701 0.35704 0.82711 1.25600
Zn	Zn	0.40768 0.43324 0.03185 1.23500
Zn	Zn	0.11690 0.31340 0.15972 1.24200
C 	C 	0.09050 0.72430 0.55080 -0.56900
H 	H 	0.29100 0.72800 0.55920 0.22000
H 	H 	0.04000 0.68500 0.51800 0.24200
C 	C 	0.62820 0.01130 0.73180 -0.68200
H 	H 	0.52700 0.99730 0.78400 0.26700
H 	H 	0.80200 0.02570 0.76600 0.25700
C 	C 	0.47390 0.06190 0.67040 0.55500
C 	C 	0.00450 0.72560 0.65740 0.51000
O 	O 	0.03330 0.84470 0.51550 -0.57400
O 	O 	0.62740 0.77540 0.45310 -0.43800
O 	O 	0.03500 0.77790 0.35810 -0.43300
O 	O 	0.39400 0.92345 0.60550 -0.53100
O 	O 	0.81380 0.97550 0.55400 -0.55300
O 	O 	0.86390 0.90420 0.71040 -0.41600
O 	O 	0.22080 0.06670 0.66600 -0.50000
O 	O 	0.62010 0.09800 0.62260 -0.62900
O 	O 	0.93190 0.67580 0.69370 -0.48100
O 	O 	0.00570 0.77410 0.70730 -0.45700
O 	O 	0.48050 0.83950 0.78720 -0.15700
O 	O 	0.49600 0.79760 0.69620 -0.23600
O 	O 	0.34600 0.88040 0.83500 -0.18700
P 	P 	0.93490 0.78426 0.46464 0.51300
P 	P 	0.67950 0.94959 0.64435 0.54700
Zn	Zn	0.17299 0.85704 0.67289 1.25600
Zn	Zn	0.09232 0.93324 0.46815 1.23500
Zn	Zn	0.38310 0.81340 0.34028 1.24200
