data_crystal

_cell_length_a 7.38200
_cell_length_b 24.64400
_cell_length_c 31.57800
_cell_angle_alpha 90.17000
_cell_angle_beta  90.00000
_cell_angle_gamma 90.00000

_symmetry_space_group_name_	'P 1'
_symmetry_space_group_name_H-M	'P 1'

loop_
_symmetry_equiv_pos_as_xyz
  x,y,z

loop_
_atom_site_label
_atom_site_type_symbol
_atom_site_fract_x
_atom_site_fract_y
_atom_site_fract_z
_atom_site_charge
Ca	Ca	0.45308 0.23527 0.77065 1.50100
Ca	Ca	0.91734 0.75330 0.76864 1.50200
Ca	Ca	0.45308 0.76473 0.72935 1.50100
Ca	Ca	0.91734 0.24670 0.73136 1.50200
Ca	Ca	0.54692 0.76473 0.22935 1.50100
Ca	Ca	0.08266 0.24670 0.23136 1.50200
Ca	Ca	0.54692 0.23527 0.27065 1.50100
Ca	Ca	0.08266 0.75330 0.26864 1.50200
H 	H 	0.51986 0.02828 0.69051 0.04300
H 	H 	0.31825 0.17758 0.63922 0.03600
H 	H 	0.10544 0.12747 0.59470 0.15500
H 	H 	0.30959 0.97781 0.64747 0.11900
H 	H 	0.02115 0.01763 0.68400 0.09600
H 	H 	0.94210 0.94487 0.73527 0.02200
H 	H 	0.71316 0.85402 0.63280 0.03300
H 	H 	0.81164 0.92439 0.58216 0.20900
H 	H 	0.02924 0.60630 0.71037 0.02800
H 	H 	0.55351 0.61094 0.63175 0.07800
H 	H 	0.66291 0.53346 0.59169 0.20000
H 	H 	0.13971 0.52673 0.67071 0.09900
H 	H 	0.85979 0.43354 0.67455 0.11000
H 	H 	0.98742 0.36399 0.72093 0.00100
H 	H 	0.48125 0.36482 0.64865 0.07600
H 	H 	0.34869 0.43075 0.59929 0.20100
H 	H 	0.14166 0.35478 0.91898 0.11600
H 	H 	0.93854 0.33721 0.97913 0.19500
H 	H 	0.75862 0.18955 0.91882 0.14600
H 	H 	0.97705 0.20502 0.86100 0.03000
H 	H 	0.68635 0.30372 0.07358 0.15700
H 	H 	0.91174 0.30282 0.13086 0.02800
H 	H 	0.25514 0.19777 0.05800 0.14600
H 	H 	0.03864 0.20146 0.99869 0.16800
H 	H 	0.42173 0.32807 0.83554 0.20100
H 	H 	0.42671 0.21152 0.15928 0.18200
H 	H 	0.51986 0.97172 0.80949 0.04400
H 	H 	0.31825 0.82242 0.86078 0.03700
H 	H 	0.10544 0.87253 0.90530 0.15600
H 	H 	0.30959 0.02219 0.85253 0.11900
H 	H 	0.02115 0.98237 0.81600 0.09800
H 	H 	0.94210 0.05513 0.76473 0.02300
H 	H 	0.71316 0.14598 0.86720 0.03400
H 	H 	0.81164 0.07561 0.91784 0.21000
H 	H 	0.02924 0.39370 0.78963 0.02900
H 	H 	0.55351 0.38906 0.86825 0.07900
H 	H 	0.66291 0.46654 0.90831 0.20100
H 	H 	0.13971 0.47327 0.82929 0.10000
H 	H 	0.85979 0.56646 0.82545 0.11000
H 	H 	0.98742 0.63601 0.77907 0.00100
H 	H 	0.48125 0.63518 0.85135 0.07600
H 	H 	0.34869 0.56925 0.90071 0.20100
H 	H 	0.14166 0.64522 0.58102 0.11600
H 	H 	0.93854 0.66279 0.52087 0.19500
H 	H 	0.75862 0.81045 0.58118 0.14600
H 	H 	0.97705 0.79498 0.63900 0.03000
H 	H 	0.68635 0.69628 0.42642 0.15700
H 	H 	0.91174 0.69718 0.36914 0.02800
H 	H 	0.25514 0.80223 0.44200 0.14600
H 	H 	0.03864 0.79854 0.50131 0.16900
H 	H 	0.42173 0.67193 0.66446 0.20100
H 	H 	0.42671 0.78848 0.34072 0.18200
H 	H 	0.48014 0.97172 0.30949 0.04400
H 	H 	0.68175 0.82242 0.36078 0.03700
H 	H 	0.89456 0.87253 0.40530 0.15600
H 	H 	0.69041 0.02219 0.35253 0.12000
H 	H 	0.97885 0.98237 0.31600 0.09700
H 	H 	0.05790 0.05513 0.26473 0.02300
H 	H 	0.28684 0.14598 0.36720 0.03400
H 	H 	0.18836 0.07561 0.41784 0.21000
H 	H 	0.97076 0.39370 0.28963 0.02900
H 	H 	0.44649 0.38906 0.36825 0.07900
H 	H 	0.33709 0.46654 0.40831 0.20100
H 	H 	0.86029 0.47327 0.32929 0.10000
H 	H 	0.14021 0.56646 0.32545 0.11000
H 	H 	0.01258 0.63601 0.27907 0.00100
H 	H 	0.51875 0.63518 0.35135 0.07600
H 	H 	0.65131 0.56925 0.40071 0.20100
H 	H 	0.85834 0.64522 0.08102 0.11600
H 	H 	0.06146 0.66279 0.02087 0.19500
H 	H 	0.24138 0.81045 0.08118 0.14600
H 	H 	0.02295 0.79498 0.13900 0.03000
H 	H 	0.31365 0.69628 0.92642 0.15700
H 	H 	0.08826 0.69718 0.86914 0.02800
H 	H 	0.74486 0.80223 0.94200 0.14600
H 	H 	0.96136 0.79854 0.00131 0.16800
H 	H 	0.57827 0.67193 0.16446 0.20100
H 	H 	0.57329 0.78848 0.84072 0.18200
H 	H 	0.48014 0.02828 0.19051 0.04400
H 	H 	0.68175 0.17758 0.13922 0.03700
H 	H 	0.89456 0.12747 0.09470 0.15600
H 	H 	0.69041 0.97781 0.14747 0.11900
H 	H 	0.97885 0.01763 0.18400 0.09800
H 	H 	0.05790 0.94487 0.23527 0.02300
H 	H 	0.28684 0.85402 0.13280 0.03400
H 	H 	0.18836 0.92439 0.08216 0.21000
H 	H 	0.97076 0.60630 0.21037 0.02900
H 	H 	0.44649 0.61094 0.13175 0.07900
H 	H 	0.33709 0.53346 0.09169 0.20100
H 	H 	0.86029 0.52673 0.17071 0.10000
H 	H 	0.14021 0.43354 0.17455 0.11000
H 	H 	0.01258 0.36399 0.22093 0.00100
H 	H 	0.51875 0.36482 0.14865 0.07600
H 	H 	0.65131 0.43075 0.09929 0.20100
H 	H 	0.85834 0.35478 0.41898 0.11600
H 	H 	0.06146 0.33721 0.47913 0.19500
H 	H 	0.24138 0.18955 0.41882 0.14600
H 	H 	0.02295 0.20502 0.36100 0.03000
H 	H 	0.31365 0.30372 0.57358 0.15700
H 	H 	0.08826 0.30282 0.63086 0.02800
H 	H 	0.74486 0.19777 0.55800 0.14600
H 	H 	0.96136 0.20146 0.49869 0.16900
H 	H 	0.57827 0.32807 0.33554 0.20100
H 	H 	0.57329 0.21152 0.65928 0.18200
C 	C 	0.52753 0.13529 0.70493 0.31300
C 	C 	0.42724 0.10648 0.66993 -0.09900
C 	C 	0.42863 0.04968 0.66922 0.09100
C 	C 	0.31510 0.13348 0.64117 0.08300
C 	C 	0.19284 0.10468 0.61586 -0.10700
C 	C 	0.30872 0.02093 0.64374 -0.12500
C 	C 	0.18024 0.04803 0.61870 0.25800
C 	C 	0.03064 0.01422 0.59674 -0.41300
C 	C 	0.87496 0.05073 0.57941 0.90100
C 	C 	0.12620 0.98395 0.56206 0.89800
C 	C 	0.94100 0.97453 0.62997 0.25900
C 	C 	0.96005 0.98179 0.67382 -0.17300
C 	C 	0.91413 0.94062 0.70159 0.10100
C 	C 	0.83759 0.89246 0.68635 -0.15200
C 	C 	0.78677 0.88954 0.64389 0.10000
C 	C 	0.84176 0.92960 0.61560 -0.13000
C 	C 	0.84491 0.84305 0.71316 0.37800
C 	C 	0.72717 0.66391 0.69881 0.41500
C 	C 	0.78318 0.61418 0.67453 -0.14700
C 	C 	0.94835 0.58952 0.68470 0.08000
C 	C 	0.68159 0.59269 0.64100 0.09600
C 	C 	0.74463 0.54820 0.61794 -0.12100
C 	C 	0.01067 0.54495 0.66206 -0.13400
C 	C 	0.91015 0.52374 0.62814 0.24100
C 	C 	0.99449 0.47667 0.60254 -0.38900
C 	C 	0.85033 0.44300 0.57728 0.89100
C 	C 	0.12565 0.50348 0.56983 0.89000
C 	C 	0.09142 0.43654 0.63245 0.24800
C 	C 	0.99481 0.41797 0.66785 -0.14500
C 	C 	0.06785 0.37888 0.69448 0.08000
C 	C 	0.34379 0.37959 0.65370 0.09400
C 	C 	0.26785 0.41720 0.62598 -0.13400
C 	C 	0.24255 0.35871 0.68737 -0.15600
C 	C 	0.31828 0.31327 0.71341 0.36900
C 	C 	0.20809 0.28726 0.85221 0.39000
C 	C 	0.07125 0.28091 0.88606 -0.12000
C 	C 	0.05740 0.31861 0.91917 0.12200
C 	C 	0.94134 0.30874 0.95277 -0.12700
C 	C 	0.84148 0.22585 0.91926 -0.13300
C 	C 	0.83286 0.26195 0.95335 0.25500
C 	C 	0.96233 0.23470 0.88630 0.09200
C 	C 	0.71855 0.25125 0.99318 -0.39100
C 	C 	0.62109 0.19482 0.99308 0.89400
C 	C 	0.56969 0.29642 0.99498 0.86400
C 	C 	0.84728 0.25334 0.03146 0.25200
C 	C 	0.81107 0.28101 0.06919 -0.11100
C 	C 	0.93723 0.28035 0.10183 0.09700
C 	C 	0.09867 0.25117 0.09789 -0.11100
C 	C 	0.13217 0.22162 0.06084 0.12200
C 	C 	0.00861 0.22345 0.02778 -0.09700
C 	C 	0.22434 0.25035 0.13442 0.38400
C 	C 	0.52753 0.86471 0.79507 0.31300
C 	C 	0.42724 0.89352 0.83007 -0.09800
C 	C 	0.42863 0.95032 0.83078 0.09000
C 	C 	0.31510 0.86652 0.85883 0.08200
C 	C 	0.19284 0.89532 0.88414 -0.10700
C 	C 	0.30872 0.97907 0.85626 -0.12300
C 	C 	0.18024 0.95197 0.88130 0.25700
C 	C 	0.03064 0.98578 0.90326 -0.41100
C 	C 	0.87496 0.94927 0.92059 0.90100
C 	C 	0.12620 0.01605 0.93794 0.89600
C 	C 	0.94100 0.02547 0.87003 0.25800
C 	C 	0.96005 0.01821 0.82618 -0.17400
C 	C 	0.91413 0.05938 0.79841 0.10100
C 	C 	0.83759 0.10754 0.81365 -0.15200
C 	C 	0.78677 0.11046 0.85611 0.10000
C 	C 	0.84176 0.07040 0.88440 -0.13000
C 	C 	0.84491 0.15695 0.78684 0.37800
C 	C 	0.72717 0.33609 0.80119 0.41500
C 	C 	0.78318 0.38582 0.82547 -0.14700
C 	C 	0.94835 0.41048 0.81530 0.08000
C 	C 	0.68159 0.40731 0.85900 0.09600
C 	C 	0.74463 0.45180 0.88206 -0.12100
C 	C 	0.01067 0.45505 0.83794 -0.13400
C 	C 	0.91015 0.47626 0.87186 0.24100
C 	C 	0.99449 0.52333 0.89746 -0.38900
C 	C 	0.85033 0.55700 0.92272 0.89100
C 	C 	0.12565 0.49652 0.93017 0.89000
C 	C 	0.09142 0.56346 0.86755 0.24800
C 	C 	0.99481 0.58203 0.83215 -0.14500
C 	C 	0.06785 0.62112 0.80552 0.08000
C 	C 	0.34379 0.62041 0.84630 0.09400
C 	C 	0.26785 0.58280 0.87402 -0.13400
C 	C 	0.24255 0.64129 0.81263 -0.15600
C 	C 	0.31828 0.68673 0.78659 0.36900
C 	C 	0.20809 0.71274 0.64779 0.39000
C 	C 	0.07125 0.71909 0.61394 -0.12000
C 	C 	0.05740 0.68139 0.58083 0.12200
C 	C 	0.94134 0.69126 0.54723 -0.12700
C 	C 	0.84148 0.77415 0.58074 -0.13200
C 	C 	0.83286 0.73805 0.54665 0.25500
C 	C 	0.96233 0.76530 0.61370 0.09200
C 	C 	0.71855 0.74875 0.50682 -0.39100
C 	C 	0.62109 0.80518 0.50692 0.89500
C 	C 	0.56969 0.70358 0.50502 0.86500
C 	C 	0.84728 0.74666 0.46854 0.25200
C 	C 	0.81107 0.71899 0.43081 -0.11100
C 	C 	0.93723 0.71965 0.39817 0.09700
C 	C 	0.09867 0.74883 0.40211 -0.11100
C 	C 	0.13217 0.77838 0.43916 0.12200
C 	C 	0.00861 0.77655 0.47222 -0.09700
C 	C 	0.22434 0.74965 0.36558 0.38400
C 	C 	0.47247 0.86471 0.29507 0.31300
C 	C 	0.57276 0.89352 0.33007 -0.09900
C 	C 	0.57137 0.95032 0.33078 0.09100
C 	C 	0.68490 0.86652 0.35883 0.08300
C 	C 	0.80716 0.89532 0.38414 -0.10700
C 	C 	0.69128 0.97907 0.35626 -0.12500
C 	C 	0.81976 0.95197 0.38130 0.25800
C 	C 	0.96936 0.98578 0.40326 -0.41300
C 	C 	0.12504 0.94927 0.42059 0.90100
C 	C 	0.87380 0.01605 0.43794 0.89800
C 	C 	0.05900 0.02547 0.37003 0.25900
C 	C 	0.03995 0.01821 0.32618 -0.17300
C 	C 	0.08587 0.05938 0.29841 0.10100
C 	C 	0.16241 0.10754 0.31365 -0.15200
C 	C 	0.21323 0.11046 0.35611 0.10000
C 	C 	0.15824 0.07040 0.38440 -0.13000
C 	C 	0.15509 0.15695 0.28684 0.37800
C 	C 	0.27283 0.33609 0.30119 0.41500
C 	C 	0.21682 0.38582 0.32547 -0.14700
C 	C 	0.05165 0.41048 0.31530 0.08000
C 	C 	0.31841 0.40731 0.35900 0.09600
C 	C 	0.25537 0.45180 0.38206 -0.12100
C 	C 	0.98933 0.45505 0.33794 -0.13400
C 	C 	0.08985 0.47626 0.37186 0.24100
C 	C 	0.00551 0.52333 0.39746 -0.38900
C 	C 	0.14967 0.55700 0.42272 0.89100
C 	C 	0.87435 0.49652 0.43017 0.89000
C 	C 	0.90858 0.56346 0.36755 0.24800
C 	C 	0.00519 0.58203 0.33215 -0.14500
C 	C 	0.93215 0.62112 0.30552 0.08000
C 	C 	0.65621 0.62041 0.34630 0.09400
C 	C 	0.73215 0.58280 0.37402 -0.13400
C 	C 	0.75745 0.64129 0.31263 -0.15600
C 	C 	0.68172 0.68673 0.28659 0.36900
C 	C 	0.79191 0.71274 0.14779 0.39000
C 	C 	0.92875 0.71909 0.11394 -0.12000
C 	C 	0.94260 0.68139 0.08083 0.12200
C 	C 	0.05866 0.69126 0.04723 -0.12700
C 	C 	0.15852 0.77415 0.08074 -0.13300
C 	C 	0.16714 0.73805 0.04665 0.25500
C 	C 	0.03767 0.76530 0.11370 0.09200
C 	C 	0.28145 0.74875 0.00682 -0.39100
C 	C 	0.37891 0.80518 0.00692 0.89400
C 	C 	0.43031 0.70358 0.00502 0.86400
C 	C 	0.15272 0.74666 0.96854 0.25200
C 	C 	0.18893 0.71899 0.93081 -0.11100
C 	C 	0.06277 0.71965 0.89817 0.09700
C 	C 	0.90133 0.74883 0.90211 -0.11100
C 	C 	0.86783 0.77838 0.93916 0.12200
C 	C 	0.99139 0.77655 0.97222 -0.09700
C 	C 	0.77566 0.74965 0.86558 0.38400
C 	C 	0.47247 0.13529 0.20493 0.31300
C 	C 	0.57276 0.10648 0.16993 -0.09800
C 	C 	0.57137 0.04968 0.16922 0.09000
C 	C 	0.68490 0.13348 0.14117 0.08200
C 	C 	0.80716 0.10468 0.11586 -0.10700
C 	C 	0.69128 0.02093 0.14374 -0.12300
C 	C 	0.81976 0.04803 0.11870 0.25700
C 	C 	0.96936 0.01422 0.09674 -0.41100
C 	C 	0.12504 0.05073 0.07941 0.90100
C 	C 	0.87380 0.98395 0.06206 0.89600
C 	C 	0.05900 0.97453 0.12997 0.25800
C 	C 	0.03995 0.98179 0.17382 -0.17400
C 	C 	0.08587 0.94062 0.20159 0.10100
C 	C 	0.16241 0.89246 0.18635 -0.15200
C 	C 	0.21323 0.88954 0.14389 0.10000
C 	C 	0.15824 0.92960 0.11560 -0.13000
C 	C 	0.15509 0.84305 0.21316 0.37800
C 	C 	0.27283 0.66391 0.19881 0.41500
C 	C 	0.21682 0.61418 0.17453 -0.14700
C 	C 	0.05165 0.58952 0.18470 0.08000
C 	C 	0.31841 0.59269 0.14100 0.09600
C 	C 	0.25537 0.54820 0.11794 -0.12100
C 	C 	0.98933 0.54495 0.16206 -0.13400
C 	C 	0.08985 0.52374 0.12814 0.24100
C 	C 	0.00551 0.47667 0.10254 -0.38900
C 	C 	0.14967 0.44300 0.07728 0.89100
C 	C 	0.87435 0.50348 0.06983 0.89000
C 	C 	0.90858 0.43654 0.13245 0.24800
C 	C 	0.00519 0.41797 0.16785 -0.14500
C 	C 	0.93215 0.37888 0.19448 0.08000
C 	C 	0.65621 0.37959 0.15370 0.09400
C 	C 	0.73215 0.41720 0.12598 -0.13400
C 	C 	0.75745 0.35871 0.18737 -0.15600
C 	C 	0.68172 0.31327 0.21341 0.36900
C 	C 	0.79191 0.28726 0.35221 0.39000
C 	C 	0.92875 0.28091 0.38606 -0.12000
C 	C 	0.94260 0.31861 0.41917 0.12200
C 	C 	0.05866 0.30874 0.45277 -0.12700
C 	C 	0.15852 0.22585 0.41926 -0.13200
C 	C 	0.16714 0.26195 0.45335 0.25500
C 	C 	0.03767 0.23470 0.38630 0.09200
C 	C 	0.28145 0.25125 0.49318 -0.39100
C 	C 	0.37891 0.19482 0.49308 0.89500
C 	C 	0.43031 0.29642 0.49498 0.86500
C 	C 	0.15272 0.25334 0.53146 0.25200
C 	C 	0.18893 0.28101 0.56919 -0.11100
C 	C 	0.06277 0.28035 0.60183 0.09700
C 	C 	0.90133 0.25117 0.59789 -0.11100
C 	C 	0.86783 0.22162 0.56084 0.12200
C 	C 	0.99139 0.22345 0.52778 -0.09700
C 	C 	0.77566 0.25035 0.63442 0.38400
O 	O 	0.53182 0.18819 0.70501 -0.47000
O 	O 	0.58876 0.10668 0.73447 -0.28500
O 	O 	0.98438 0.84029 0.73761 -0.45000
O 	O 	0.73466 0.80360 0.71006 -0.54800
O 	O 	0.83520 0.68221 0.72636 -0.48400
O 	O 	0.57504 0.68699 0.69063 -0.45100
O 	O 	0.48610 0.30925 0.71886 -0.41000
O 	O 	0.20562 0.27824 0.72930 -0.58700
O 	O 	0.22727 0.25274 0.82358 -0.45500
O 	O 	0.30904 0.33123 0.85575 -0.32300
O 	O 	0.18626 0.27470 0.16788 -0.46300
O 	O 	0.37303 0.22150 0.12960 -0.29900
O 	O 	0.53182 0.81181 0.79499 -0.47000
O 	O 	0.58876 0.89332 0.76553 -0.28500
O 	O 	0.98438 0.15971 0.76239 -0.45000
O 	O 	0.73466 0.19640 0.78994 -0.54800
O 	O 	0.83520 0.31779 0.77364 -0.48400
O 	O 	0.57504 0.31301 0.80937 -0.45100
O 	O 	0.48610 0.69075 0.78114 -0.41000
O 	O 	0.20562 0.72176 0.77070 -0.58700
O 	O 	0.22727 0.74726 0.67642 -0.45500
O 	O 	0.30904 0.66877 0.64425 -0.32300
O 	O 	0.18626 0.72530 0.33212 -0.46300
O 	O 	0.37303 0.77850 0.37040 -0.29900
O 	O 	0.46818 0.81181 0.29499 -0.47000
O 	O 	0.41124 0.89332 0.26553 -0.28500
O 	O 	0.01562 0.15971 0.26239 -0.45000
O 	O 	0.26534 0.19640 0.28994 -0.54800
O 	O 	0.16480 0.31779 0.27364 -0.48400
O 	O 	0.42496 0.31301 0.30937 -0.45100
O 	O 	0.51390 0.69075 0.28114 -0.41000
O 	O 	0.79438 0.72176 0.27070 -0.58700
O 	O 	0.77273 0.74726 0.17642 -0.45500
O 	O 	0.69096 0.66877 0.14425 -0.32300
O 	O 	0.81374 0.72530 0.83212 -0.46300
O 	O 	0.62697 0.77850 0.87040 -0.29900
O 	O 	0.46818 0.18819 0.20501 -0.47000
O 	O 	0.41124 0.10668 0.23447 -0.28500
O 	O 	0.01562 0.84029 0.23761 -0.45000
O 	O 	0.26534 0.80360 0.21006 -0.54800
O 	O 	0.16480 0.68221 0.22636 -0.48400
O 	O 	0.42496 0.68699 0.19063 -0.45100
O 	O 	0.51390 0.30925 0.21886 -0.41000
O 	O 	0.79438 0.27824 0.22930 -0.58700
O 	O 	0.77273 0.25274 0.32358 -0.45500
O 	O 	0.69096 0.33123 0.35575 -0.32300
O 	O 	0.81374 0.27470 0.66788 -0.46300
O 	O 	0.62697 0.22150 0.62960 -0.29900
F 	F 	0.73615 0.02144 0.56284 -0.37800
F 	F 	0.80451 0.08101 0.61167 -0.48800
F 	F 	0.92918 0.08582 0.54862 -0.39600
F 	F 	0.00838 0.96013 0.53467 -0.35700
F 	F 	0.23395 0.01653 0.53686 -0.33300
F 	F 	0.23423 0.94355 0.57740 -0.43400
F 	F 	0.19310 0.46771 0.54091 -0.36300
F 	F 	0.04241 0.54366 0.54774 -0.38700
F 	F 	0.27002 0.52680 0.58983 -0.46100
F 	F 	0.77405 0.47065 0.54452 -0.36500
F 	F 	0.92306 0.39703 0.56056 -0.41500
F 	F 	0.71181 0.42721 0.60312 -0.47600
F 	F 	0.64157 0.34820 0.00405 -0.39900
F 	F 	0.43943 0.28903 0.02457 -0.43000
F 	F 	0.48411 0.30116 0.95707 -0.43500
F 	F 	0.48654 0.19137 0.96359 -0.42700
F 	F 	0.54546 0.18635 0.03136 -0.43500
F 	F 	0.73831 0.15320 0.98531 -0.42800
F 	F 	0.73615 0.97856 0.93716 -0.37800
F 	F 	0.80451 0.91899 0.88833 -0.48800
F 	F 	0.92918 0.91418 0.95138 -0.39600
F 	F 	0.00838 0.03987 0.96533 -0.35700
F 	F 	0.23395 0.98347 0.96314 -0.33200
F 	F 	0.23423 0.05645 0.92260 -0.43400
F 	F 	0.19310 0.53229 0.95909 -0.36300
F 	F 	0.04241 0.45634 0.95226 -0.38700
F 	F 	0.27002 0.47320 0.91017 -0.46100
F 	F 	0.77405 0.52935 0.95548 -0.36500
F 	F 	0.92306 0.60297 0.93944 -0.41500
F 	F 	0.71181 0.57279 0.89688 -0.47600
F 	F 	0.64157 0.65180 0.49595 -0.39900
F 	F 	0.43943 0.71097 0.47543 -0.43000
F 	F 	0.48411 0.69884 0.54293 -0.43500
F 	F 	0.48654 0.80863 0.53641 -0.42700
F 	F 	0.54546 0.81365 0.46864 -0.43500
F 	F 	0.73831 0.84680 0.51469 -0.42700
F 	F 	0.26385 0.97856 0.43716 -0.37800
F 	F 	0.19549 0.91899 0.38833 -0.48800
F 	F 	0.07082 0.91418 0.45138 -0.39600
F 	F 	0.99162 0.03987 0.46533 -0.35700
F 	F 	0.76605 0.98347 0.46314 -0.33300
F 	F 	0.76577 0.05645 0.42260 -0.43400
F 	F 	0.80690 0.53229 0.45909 -0.36300
F 	F 	0.95759 0.45634 0.45226 -0.38700
F 	F 	0.72998 0.47320 0.41017 -0.46100
F 	F 	0.22595 0.52935 0.45548 -0.36500
F 	F 	0.07694 0.60297 0.43944 -0.41500
F 	F 	0.28819 0.57279 0.39688 -0.47600
F 	F 	0.35843 0.65180 0.99595 -0.39900
F 	F 	0.56057 0.71097 0.97543 -0.43000
F 	F 	0.51589 0.69884 0.04293 -0.43500
F 	F 	0.51346 0.80863 0.03641 -0.42700
F 	F 	0.45454 0.81365 0.96864 -0.43500
F 	F 	0.26169 0.84680 0.01469 -0.42800
F 	F 	0.26385 0.02144 0.06284 -0.37800
F 	F 	0.19549 0.08101 0.11167 -0.48800
F 	F 	0.07082 0.08582 0.04862 -0.39600
F 	F 	0.99162 0.96013 0.03467 -0.35700
F 	F 	0.76605 0.01653 0.03686 -0.33200
F 	F 	0.76577 0.94355 0.07740 -0.43400
F 	F 	0.80690 0.46771 0.04091 -0.36300
F 	F 	0.95759 0.54366 0.04774 -0.38700
F 	F 	0.72998 0.52680 0.08983 -0.46100
F 	F 	0.22595 0.47065 0.04452 -0.36500
F 	F 	0.07694 0.39703 0.06056 -0.41500
F 	F 	0.28819 0.42721 0.10312 -0.47600
F 	F 	0.35843 0.34820 0.50405 -0.39900
F 	F 	0.56057 0.28903 0.52457 -0.43000
F 	F 	0.51589 0.30116 0.45707 -0.43500
F 	F 	0.51346 0.19137 0.46359 -0.42700
F 	F 	0.45454 0.18635 0.53136 -0.43500
F 	F 	0.26169 0.15320 0.48531 -0.42700
