data_crystal

_cell_length_a 33.61890
_cell_length_b 7.05300
_cell_length_c 20.34680
_cell_angle_alpha 90.00000
_cell_angle_beta  116.03900
_cell_angle_gamma 90.00000

_symmetry_space_group_name_	'P 1'
_symmetry_space_group_name_H-M	'P 1'

loop_
_symmetry_equiv_pos_as_xyz
  x,y,z

loop_
_atom_site_label
_atom_site_type_symbol
_atom_site_fract_x
_atom_site_fract_y
_atom_site_fract_z
_atom_site_charge
N 	N 	0.14554 0.15670 0.54656 -0.10600
N 	N 	0.19870 0.92210 0.51025 -0.23100
N 	N 	0.32910 0.02950 0.58924 -0.10000
N 	N 	0.28617 0.97260 0.56030 -0.24600
N 	N 	0.28889 0.25090 0.61320 -0.14500
N 	N 	0.44635 0.53510 0.71361 -0.25200
O 	O 	0.46090 0.95260 0.78330 -0.11700
O 	O 	0.52130 0.83600 0.85480 -0.49000
O 	O 	0.44968 0.15740 0.09220 -0.18500
O 	O 	0.51340 0.12190 0.18720 -0.45100
C 	C 	0.15623 0.88340 0.48899 0.02100
H 	H 	0.14400 0.77500 0.46150 0.01900
C 	C 	0.13000 0.00110 0.50703 -0.01300
H 	H 	0.10030 0.97040 0.49090 0.05200
C 	C 	0.18856 0.19540 0.56837 0.01300
H 	H 	0.20060 0.30400 0.59590 0.02400
C 	C 	0.21558 0.07820 0.55097 -0.01100
C 	C 	0.26344 0.10660 0.57540 0.07300
C 	C 	0.32922 0.19640 0.62006 0.08100
C 	C 	0.36997 0.31080 0.65507 0.06300
C 	C 	0.40870 0.25020 0.65436 -0.13900
H 	H 	0.41010 0.13290 0.63460 0.09400
C 	C 	0.44557 0.36650 0.68354 0.09100
H 	H 	0.47140 0.32440 0.68210 -0.01500
C 	C 	0.37033 0.48500 0.68654 -0.13600
H 	H 	0.34490 0.52990 0.68880 0.06700
C 	C 	0.40860 0.59180 0.71458 0.07400
H 	H 	0.40820 0.70900 0.73520 0.00100
C 	C 	0.49280 0.95820 0.84200 0.27100
C 	C 	0.49800 0.10700 0.89700 -0.12900
C 	C 	0.53450 0.10200 0.96470 0.06300
C 	C 	0.54120 0.24580 0.01520 0.04200
C 	C 	0.51230 0.39600 0.99690 -0.00000
C 	C 	0.47640 0.40290 0.93020 -0.03600
C 	C 	0.46830 0.25900 0.87830 0.01000
C 	C 	0.49400 0.90100 0.09200 -0.11300
C 	C 	0.53220 0.79300 0.13260 0.07600
C 	C 	0.54030 0.62450 0.10580 -0.13800
C 	C 	0.51200 0.56250 0.03690 0.21100
C 	C 	0.47520 0.67000 0.99480 -0.21000
C 	C 	0.46570 0.83900 0.02120 0.02100
C 	C 	0.45042 0.57900 0.92150 -0.13700
C 	C 	0.48440 0.07920 0.12300 0.46900
H 	H 	0.42050 0.55100 0.91250 0.07400
H 	H 	0.44310 0.26350 0.83140 0.00200
H 	H 	0.55500 0.99780 0.97710 0.03800
H 	H 	0.56610 0.24080 0.06250 0.03200
H 	H 	0.56590 0.55060 0.13550 0.08400
H 	H 	0.55260 0.83790 0.18010 0.00200
H 	H 	0.44000 0.91180 0.99130 0.03900
H 	H 	0.45020 0.65770 0.88290 0.07300
N 	N 	0.64554 0.65670 0.54656 -0.11000
N 	N 	0.69870 0.42210 0.51025 -0.23200
N 	N 	0.82910 0.52950 0.58924 -0.10100
N 	N 	0.78617 0.47260 0.56030 -0.24800
N 	N 	0.78889 0.75090 0.61320 -0.14500
N 	N 	0.94635 0.03510 0.71361 -0.24800
O 	O 	0.96090 0.45260 0.78330 -0.12600
O 	O 	0.02130 0.33600 0.85480 -0.53200
O 	O 	0.94968 0.65740 0.09220 -0.18400
O 	O 	0.01340 0.62190 0.18720 -0.50400
C 	C 	0.65623 0.38340 0.48899 0.01300
H 	H 	0.64400 0.27500 0.46150 0.02100
C 	C 	0.63000 0.50110 0.50703 -0.00300
H 	H 	0.60030 0.47040 0.49090 0.04600
C 	C 	0.68856 0.69540 0.56837 0.01300
H 	H 	0.70060 0.80400 0.59590 0.02400
C 	C 	0.71558 0.57820 0.55097 -0.01000
C 	C 	0.76344 0.60660 0.57540 0.07400
C 	C 	0.82922 0.69640 0.62006 0.08400
C 	C 	0.86997 0.81080 0.65507 0.05500
C 	C 	0.90870 0.75020 0.65436 -0.13300
H 	H 	0.91010 0.63290 0.63460 0.09300
C 	C 	0.94557 0.86650 0.68354 0.09200
H 	H 	0.97140 0.82440 0.68210 -0.00800
C 	C 	0.87033 0.98500 0.68654 -0.11500
H 	H 	0.84490 0.02990 0.68880 0.05600
C 	C 	0.90860 0.09180 0.71458 0.05700
H 	H 	0.90820 0.20900 0.73520 0.00400
C 	C 	0.99280 0.45820 0.84200 0.22300
C 	C 	0.99800 0.60700 0.89700 -0.15300
C 	C 	0.03450 0.60200 0.96470 -0.04200
C 	C 	0.04120 0.74580 0.01520 0.20800
C 	C 	0.01230 0.89600 0.99690 -0.14800
C 	C 	0.97640 0.90290 0.93020 0.02900
C 	C 	0.96830 0.75900 0.87830 0.01100
C 	C 	0.99400 0.40100 0.09200 -0.14800
C 	C 	0.03220 0.29300 0.13260 -0.01700
C 	C 	0.04030 0.12450 0.10580 0.05500
C 	C 	0.01200 0.06250 0.03690 0.00900
C 	C 	0.97520 0.17000 0.99480 -0.11100
C 	C 	0.96570 0.33900 0.02120 0.00800
C 	C 	0.95042 0.07900 0.92150 -0.32100
C 	C 	0.98440 0.57920 0.12300 0.44100
H 	H 	0.92050 0.05100 0.91250 0.12200
H 	H 	0.94310 0.76350 0.83140 0.00300
H 	H 	0.05500 0.49780 0.97710 0.06500
H 	H 	0.06610 0.74080 0.06250 -0.03000
H 	H 	0.06590 0.05060 0.13550 0.00900
H 	H 	0.05260 0.33790 0.18010 0.02900
H 	H 	0.94000 0.41180 0.99130 0.03700
H 	H 	0.95020 0.15770 0.88290 0.12600
N 	N 	0.85446 0.15670 0.95344 -0.12600
N 	N 	0.80130 0.92210 0.98975 -0.20100
N 	N 	0.67090 0.02950 0.91076 -0.09800
N 	N 	0.71383 0.97260 0.93970 -0.24100
N 	N 	0.71111 0.25090 0.88680 -0.14400
N 	N 	0.55365 0.53510 0.78639 -0.25100
O 	O 	0.53910 0.95260 0.71670 -0.11800
O 	O 	0.47870 0.83600 0.64520 -0.46700
O 	O 	0.55032 0.15740 0.40780 -0.18400
O 	O 	0.48660 0.12190 0.31280 -0.44300
C 	C 	0.84377 0.88340 0.01101 -0.07500
H 	H 	0.85600 0.77500 0.03850 0.04800
C 	C 	0.87000 0.00110 0.99297 0.09200
H 	H 	0.89970 0.97040 0.00910 0.00000
C 	C 	0.81144 0.19540 0.93163 0.02600
H 	H 	0.79940 0.30400 0.90410 0.02100
C 	C 	0.78442 0.07820 0.94903 -0.01600
C 	C 	0.73656 0.10660 0.92460 0.07900
C 	C 	0.67078 0.19640 0.87994 0.08300
C 	C 	0.63003 0.31080 0.84493 0.06500
C 	C 	0.59130 0.25020 0.84564 -0.13800
H 	H 	0.58990 0.13290 0.86540 0.09500
C 	C 	0.55443 0.36650 0.81646 0.09100
H 	H 	0.52860 0.32440 0.81790 -0.01500
C 	C 	0.62967 0.48500 0.81346 -0.13600
H 	H 	0.65510 0.52990 0.81120 0.06700
C 	C 	0.59140 0.59180 0.78542 0.07400
H 	H 	0.59180 0.70900 0.76480 -0.00000
C 	C 	0.50720 0.95820 0.65800 0.28400
C 	C 	0.50200 0.10700 0.60300 -0.06700
C 	C 	0.46550 0.10200 0.53530 -0.09100
C 	C 	0.45880 0.24580 0.48480 0.20700
C 	C 	0.48770 0.39600 0.50310 -0.07000
C 	C 	0.52360 0.40290 0.56980 -0.00900
C 	C 	0.53170 0.25900 0.62170 -0.02200
C 	C 	0.50600 0.90100 0.40800 -0.11500
C 	C 	0.46780 0.79300 0.36740 0.08100
C 	C 	0.45970 0.62450 0.39420 -0.12900
C 	C 	0.48800 0.56250 0.46310 0.18900
C 	C 	0.52480 0.67000 0.50520 -0.15400
C 	C 	0.53430 0.83900 0.47880 0.00700
C 	C 	0.54958 0.57900 0.57850 -0.20300
C 	C 	0.51560 0.07920 0.37700 0.50800
H 	H 	0.57950 0.55100 0.58750 0.08800
H 	H 	0.55690 0.26350 0.66860 0.01600
H 	H 	0.44500 0.99780 0.52290 0.06800
H 	H 	0.43390 0.24080 0.43750 -0.02400
H 	H 	0.43410 0.55060 0.36450 0.08000
H 	H 	0.44740 0.83790 0.31990 0.00700
H 	H 	0.56000 0.91180 0.50870 0.00800
H 	H 	0.54980 0.65770 0.61710 0.09000
N 	N 	0.35446 0.65670 0.95344 -0.12700
N 	N 	0.30130 0.42210 0.98975 -0.20000
N 	N 	0.17090 0.52950 0.91076 -0.09700
N 	N 	0.21383 0.47260 0.93970 -0.24300
N 	N 	0.21111 0.75090 0.88680 -0.14300
N 	N 	0.05365 0.03510 0.78639 -0.25400
O 	O 	0.03910 0.45260 0.71670 -0.11100
O 	O 	0.97870 0.33600 0.64520 -0.41900
O 	O 	0.05032 0.65740 0.40780 -0.18400
O 	O 	0.98660 0.62190 0.31280 -0.38800
C 	C 	0.34377 0.38340 0.01101 -0.08800
H 	H 	0.35600 0.27500 0.03850 0.05100
C 	C 	0.37000 0.50110 0.99297 0.11000
H 	H 	0.39970 0.47040 0.00910 -0.00900
C 	C 	0.31144 0.69540 0.93163 0.02700
H 	H 	0.29940 0.80400 0.90410 0.02300
C 	C 	0.28442 0.57820 0.94903 -0.01400
C 	C 	0.23656 0.60660 0.92460 0.08100
C 	C 	0.17078 0.69640 0.87994 0.08600
C 	C 	0.13003 0.81080 0.84493 0.05900
C 	C 	0.09130 0.75020 0.84564 -0.13800
H 	H 	0.08990 0.63290 0.86540 0.09500
C 	C 	0.05443 0.86650 0.81646 0.09400
H 	H 	0.02860 0.82440 0.81790 -0.02200
C 	C 	0.12967 0.98500 0.81346 -0.11600
H 	H 	0.15510 0.02990 0.81120 0.05900
C 	C 	0.09140 0.09180 0.78542 0.06200
H 	H 	0.09180 0.20900 0.76480 0.00600
C 	C 	0.00720 0.45820 0.65800 0.33200
C 	C 	0.00200 0.60700 0.60300 -0.03800
C 	C 	0.96550 0.60200 0.53530 0.01000
C 	C 	0.95880 0.74580 0.48480 0.04000
C 	C 	0.98770 0.89600 0.50310 0.08000
C 	C 	0.02360 0.90290 0.56980 -0.07100
C 	C 	0.03170 0.75900 0.62170 -0.02500
C 	C 	0.00600 0.40100 0.40800 -0.08100
C 	C 	0.96780 0.29300 0.36740 0.17000
C 	C 	0.95970 0.12450 0.39420 -0.31100
C 	C 	0.98800 0.06250 0.46310 0.37700
C 	C 	0.02480 0.17000 0.50520 -0.24200
C 	C 	0.03430 0.33900 0.47880 0.01100
C 	C 	0.04958 0.07900 0.57850 -0.03900
C 	C 	0.01560 0.57920 0.37700 0.54500
H 	H 	0.07950 0.05100 0.58750 0.04300
H 	H 	0.05690 0.76350 0.66860 0.01700
H 	H 	0.94500 0.49780 0.52290 0.03700
H 	H 	0.93390 0.74080 0.43750 0.03800
H 	H 	0.93410 0.05060 0.36450 0.14700
H 	H 	0.94740 0.33790 0.31990 -0.02100
H 	H 	0.06000 0.41180 0.50870 0.00500
H 	H 	0.04980 0.15770 0.61710 0.04100
N 	N 	0.85446 0.84330 0.45344 -0.11400
N 	N 	0.80130 0.07790 0.48975 -0.23200
N 	N 	0.67090 0.97050 0.41076 -0.09800
N 	N 	0.71383 0.02740 0.43970 -0.25200
N 	N 	0.71111 0.74910 0.38680 -0.14600
N 	N 	0.55365 0.46490 0.28639 -0.25200
O 	O 	0.53910 0.04740 0.21670 -0.12300
O 	O 	0.47870 0.16400 0.14520 -0.44200
O 	O 	0.55032 0.84260 0.90780 -0.18200
O 	O 	0.48660 0.87810 0.81280 -0.43700
C 	C 	0.84377 0.11660 0.51101 0.00100
H 	H 	0.85600 0.22500 0.53850 0.02500
C 	C 	0.87000 0.99890 0.49297 0.01200
H 	H 	0.89970 0.02960 0.50910 0.03800
C 	C 	0.81144 0.80460 0.43163 0.01400
H 	H 	0.79940 0.69600 0.40410 0.02200
C 	C 	0.78442 0.92180 0.44903 -0.00900
C 	C 	0.73656 0.89340 0.42460 0.07700
C 	C 	0.67078 0.80360 0.37994 0.08100
C 	C 	0.63003 0.68920 0.34493 0.06300
C 	C 	0.59130 0.74980 0.34564 -0.14000
H 	H 	0.58990 0.86710 0.36540 0.09500
C 	C 	0.55443 0.63350 0.31646 0.09000
H 	H 	0.52860 0.67560 0.31790 -0.01500
C 	C 	0.62967 0.51500 0.31346 -0.13700
H 	H 	0.65510 0.47010 0.31120 0.06500
C 	C 	0.59140 0.40820 0.28542 0.07300
H 	H 	0.59180 0.29100 0.26480 -0.00200
C 	C 	0.50720 0.04180 0.15800 0.29400
C 	C 	0.50200 0.89300 0.10300 -0.00400
C 	C 	0.46550 0.89800 0.03530 -0.24100
C 	C 	0.45880 0.75420 0.98480 0.36000
C 	C 	0.48770 0.60400 0.00310 -0.12900
C 	C 	0.52360 0.59710 0.06980 0.01500
C 	C 	0.53170 0.74100 0.12170 -0.05500
C 	C 	0.50600 0.09900 0.90800 -0.12100
C 	C 	0.46780 0.20700 0.86740 0.09100
C 	C 	0.45970 0.37550 0.89420 -0.13000
C 	C 	0.48800 0.43750 0.96310 0.17700
C 	C 	0.52480 0.33000 0.00520 -0.10000
C 	C 	0.53430 0.16100 0.97880 -0.01000
C 	C 	0.54958 0.42100 0.07850 -0.26100
C 	C 	0.51560 0.92080 0.87700 0.55200
H 	H 	0.57950 0.44900 0.08750 0.10000
H 	H 	0.55690 0.73650 0.16860 0.03000
H 	H 	0.44500 0.00220 0.02290 0.09000
H 	H 	0.43390 0.75920 0.93750 -0.07600
H 	H 	0.43410 0.44940 0.86450 0.07900
H 	H 	0.44740 0.16210 0.81990 0.00800
H 	H 	0.56000 0.08820 0.00870 -0.02800
H 	H 	0.54980 0.34230 0.11710 0.10500
N 	N 	0.35446 0.34330 0.45344 -0.11000
N 	N 	0.30130 0.57790 0.48975 -0.23200
N 	N 	0.17090 0.47050 0.41076 -0.10000
N 	N 	0.21383 0.52740 0.43970 -0.24800
N 	N 	0.21111 0.24910 0.38680 -0.14500
N 	N 	0.05365 0.96490 0.28639 -0.25400
O 	O 	0.03910 0.54740 0.21670 -0.11300
O 	O 	0.97870 0.66400 0.14520 -0.40100
O 	O 	0.05032 0.34260 0.90780 -0.18300
O 	O 	0.98660 0.37810 0.81280 -0.38000
C 	C 	0.34377 0.61660 0.51101 0.01300
H 	H 	0.35600 0.72500 0.53850 0.02200
C 	C 	0.37000 0.49890 0.49297 -0.00200
H 	H 	0.39970 0.52960 0.50910 0.04600
C 	C 	0.31144 0.30460 0.43163 0.01300
H 	H 	0.29940 0.19600 0.40410 0.02200
C 	C 	0.28442 0.42180 0.44903 -0.01100
C 	C 	0.23656 0.39340 0.42460 0.07400
C 	C 	0.17078 0.30360 0.37994 0.07800
C 	C 	0.13003 0.18920 0.34493 0.06800
C 	C 	0.09130 0.24980 0.34564 -0.14500
H 	H 	0.08990 0.36710 0.36540 0.09500
C 	C 	0.05443 0.13350 0.31646 0.09000
H 	H 	0.02860 0.17560 0.31790 -0.02200
C 	C 	0.12967 0.01500 0.31346 -0.14900
H 	H 	0.15510 0.97010 0.31120 0.07200
C 	C 	0.09140 0.90820 0.28542 0.08300
H 	H 	0.09180 0.79100 0.26480 -0.00200
C 	C 	0.00720 0.54180 0.15800 0.33600
C 	C 	0.00200 0.39300 0.10300 0.01000
C 	C 	0.96550 0.39800 0.03530 -0.10500
C 	C 	0.95880 0.25420 0.98480 0.14500
C 	C 	0.98770 0.10400 0.00310 0.05200
C 	C 	0.02360 0.09710 0.06980 -0.06900
C 	C 	0.03170 0.24100 0.12170 -0.05000
C 	C 	0.00600 0.59900 0.90800 -0.08100
C 	C 	0.96780 0.70700 0.86740 0.16300
C 	C 	0.95970 0.87550 0.89420 -0.28200
C 	C 	0.98800 0.93750 0.96310 0.34400
C 	C 	0.02480 0.83000 0.00520 -0.17400
C 	C 	0.03430 0.66100 0.97880 -0.00600
C 	C 	0.04958 0.92100 0.07850 -0.07900
C 	C 	0.01560 0.42080 0.87700 0.58600
H 	H 	0.07950 0.94900 0.08750 0.05300
H 	H 	0.05690 0.23650 0.16860 0.02600
H 	H 	0.94500 0.50220 0.02290 0.05300
H 	H 	0.93390 0.25920 0.93750 0.00100
H 	H 	0.93410 0.94940 0.86450 0.14100
H 	H 	0.94740 0.66210 0.81990 -0.01200
H 	H 	0.06000 0.58820 0.00870 -0.02400
H 	H 	0.04980 0.84230 0.11710 0.05300
N 	N 	0.14554 0.84330 0.04656 -0.09500
N 	N 	0.19870 0.07790 0.01025 -0.26100
N 	N 	0.32910 0.97050 0.08924 -0.10100
N 	N 	0.28617 0.02740 0.06030 -0.25400
N 	N 	0.28889 0.74910 0.11320 -0.14700
N 	N 	0.44635 0.46490 0.21361 -0.25200
O 	O 	0.46090 0.04740 0.28330 -0.12200
O 	O 	0.52130 0.16400 0.35480 -0.46500
O 	O 	0.44968 0.84260 0.59220 -0.18400
O 	O 	0.51340 0.87810 0.68720 -0.44600
C 	C 	0.15623 0.11660 0.98899 0.09900
H 	H 	0.14400 0.22500 0.96150 -0.00400
C 	C 	0.13000 0.99890 0.00703 -0.09400
H 	H 	0.10030 0.02960 0.99090 0.09100
C 	C 	0.18856 0.80460 0.06837 0.00100
H 	H 	0.20060 0.69600 0.09590 0.02400
C 	C 	0.21558 0.92180 0.05097 -0.00400
C 	C 	0.26344 0.89340 0.07540 0.07100
C 	C 	0.32922 0.80360 0.12006 0.07800
C 	C 	0.36997 0.68920 0.15507 0.06200
C 	C 	0.40870 0.74980 0.15436 -0.14100
H 	H 	0.41010 0.86710 0.13460 0.09400
C 	C 	0.44557 0.63350 0.18354 0.09000
H 	H 	0.47140 0.67560 0.18210 -0.01500
C 	C 	0.37033 0.51500 0.18654 -0.13600
H 	H 	0.34490 0.47010 0.18880 0.06500
C 	C 	0.40860 0.40820 0.21458 0.07200
H 	H 	0.40820 0.29100 0.23520 -0.00100
C 	C 	0.49280 0.04180 0.34200 0.28100
C 	C 	0.49800 0.89300 0.39700 -0.06600
C 	C 	0.53450 0.89800 0.46470 -0.08700
C 	C 	0.54120 0.75420 0.51520 0.19500
C 	C 	0.51230 0.60400 0.49690 -0.05900
C 	C 	0.47640 0.59710 0.43020 -0.01200
C 	C 	0.46830 0.74100 0.37830 -0.02300
C 	C 	0.49400 0.09900 0.59200 -0.11900
C 	C 	0.53220 0.20700 0.63260 0.08600
C 	C 	0.54030 0.37550 0.60580 -0.13900
C 	C 	0.51200 0.43750 0.53690 0.19900
C 	C 	0.47520 0.33000 0.49480 -0.15600
C 	C 	0.46570 0.16100 0.52120 0.00400
C 	C 	0.45042 0.42100 0.42150 -0.19500
C 	C 	0.48440 0.92080 0.62300 0.51300
H 	H 	0.42050 0.44900 0.41250 0.08600
H 	H 	0.44310 0.73650 0.33140 0.01600
H 	H 	0.55500 0.00220 0.47710 0.06100
H 	H 	0.56610 0.75920 0.56250 -0.02000
H 	H 	0.56590 0.44940 0.63550 0.08300
H 	H 	0.55260 0.16210 0.68010 0.00300
H 	H 	0.44000 0.08820 0.49130 0.00300
H 	H 	0.45020 0.34230 0.38290 0.08800
N 	N 	0.64554 0.34330 0.04656 -0.09400
N 	N 	0.69870 0.57790 0.01025 -0.26200
N 	N 	0.82910 0.47050 0.08924 -0.10300
N 	N 	0.78617 0.52740 0.06030 -0.25000
N 	N 	0.78889 0.24910 0.11320 -0.14700
N 	N 	0.94635 0.96490 0.21361 -0.24800
O 	O 	0.96090 0.54740 0.28330 -0.12800
O 	O 	0.02130 0.66400 0.35480 -0.50800
O 	O 	0.94968 0.34260 0.59220 -0.18300
O 	O 	0.01340 0.37810 0.68720 -0.50100
C 	C 	0.65623 0.61660 0.98899 0.11400
H 	H 	0.64400 0.72500 0.96150 -0.00800
C 	C 	0.63000 0.49890 0.00703 -0.11400
H 	H 	0.60030 0.52960 0.99090 0.10100
C 	C 	0.68856 0.30460 0.06837 -0.00000
H 	H 	0.70060 0.19600 0.09590 0.02300
C 	C 	0.71558 0.42180 0.05097 -0.00600
C 	C 	0.76344 0.39340 0.07540 0.06800
C 	C 	0.82922 0.30360 0.12006 0.07600
C 	C 	0.86997 0.18920 0.15507 0.06500
C 	C 	0.90870 0.24980 0.15436 -0.14000
H 	H 	0.91010 0.36710 0.13460 0.09300
C 	C 	0.94557 0.13350 0.18354 0.08800
H 	H 	0.97140 0.17560 0.18210 -0.00800
C 	C 	0.87033 0.01500 0.18654 -0.14800
H 	H 	0.84490 0.97010 0.18880 0.07000
C 	C 	0.90860 0.90820 0.21458 0.07900
H 	H 	0.90820 0.79100 0.23520 -0.00400
C 	C 	0.99280 0.54180 0.34200 0.23700
C 	C 	0.99800 0.39300 0.39700 -0.08800
C 	C 	0.03450 0.39800 0.46470 -0.21000
C 	C 	0.04120 0.25420 0.51520 0.39800
C 	C 	0.01230 0.10400 0.49690 -0.23400
C 	C 	0.97640 0.09710 0.43020 0.06300
C 	C 	0.96830 0.24100 0.37830 -0.02500
C 	C 	0.99400 0.59900 0.59200 -0.15900
C 	C 	0.03220 0.70700 0.63260 0.01200
C 	C 	0.04030 0.87550 0.60580 0.01200
C 	C 	0.01200 0.93750 0.53690 0.03700
C 	C 	0.97520 0.83000 0.49480 -0.08400
C 	C 	0.96570 0.66100 0.52120 0.00600
C 	C 	0.95042 0.92100 0.42150 -0.36000
C 	C 	0.98440 0.42080 0.62300 0.47000
H 	H 	0.92050 0.94900 0.41250 0.13100
H 	H 	0.94310 0.23650 0.33140 0.01800
H 	H 	0.05500 0.50220 0.47710 0.10000
H 	H 	0.06610 0.25920 0.56250 -0.09300
H 	H 	0.06590 0.94940 0.63550 0.02600
H 	H 	0.05260 0.66210 0.68010 0.02400
H 	H 	0.94000 0.58820 0.49130 0.00400
H 	H 	0.95020 0.84230 0.38290 0.13700
Zn	Zn	0.50000 0.71631 0.75000 1.24900
Zn	Zn	-0.00000 0.21631 0.75000 1.24200
Zn	Zn	0.50000 0.28369 0.25000 1.24800
Zn	Zn	0.00000 0.78369 0.25000 1.24100
Zn	Zn	0.25000 0.75000 0.50000 1.15500
Zn	Zn	0.75000 0.75000 -0.00000 1.14800
Zn	Zn	0.75000 0.25000 0.50000 1.15400
Zn	Zn	0.25000 0.25000 -0.00000 1.14800
