data_crystal

_cell_length_a 7.59430
_cell_length_b 7.81720
_cell_length_c 18.31800
_cell_angle_alpha 90.00000
_cell_angle_beta  99.11100
_cell_angle_gamma 90.00000

_symmetry_space_group_name_	'P 1'
_symmetry_space_group_name_H-M	'P 1'

loop_
_symmetry_equiv_pos_as_xyz
  x,y,z

loop_
_atom_site_label
_atom_site_type_symbol
_atom_site_fract_x
_atom_site_fract_y
_atom_site_fract_z
_atom_site_charge
Fe	Fe	0.36475 0.21560 0.38359 1.19500
Fe	Fe	0.71230 0.95835 0.43997 1.18200
Fe	Fe	0.62826 0.08735 0.11549 1.20200
Fe	Fe	0.27920 0.34940 0.05819 1.20000
P 	P 	0.44970 0.72850 0.05537 0.55200
P 	P 	0.55860 0.57520 0.44558 0.56700
O 	O 	0.43130 0.46150 0.39380 -0.41100
O 	O 	0.18830 0.00730 0.36490 -0.32900
O 	O 	0.57690 0.09640 0.34030 -0.45300
O 	O 	0.49650 0.58990 0.52070 -0.53700
O 	O 	0.30140 0.25950 0.26140 -0.31700
O 	O 	0.13860 0.29090 0.44560 -0.39100
O 	O 	0.57620 0.74630 0.41090 -0.40500
O 	O 	0.94210 0.89600 0.39570 -0.34500
O 	O 	0.87900 0.17780 0.46740 -0.34200
O 	O 	0.58190 0.83500 0.10750 -0.42000
O 	O 	0.80390 0.28740 0.13390 -0.35000
O 	O 	0.40950 0.20100 0.15720 -0.44600
O 	O 	0.51520 0.70710 0.98130 -0.53300
O 	O 	0.68980 0.04200 0.23670 -0.31200
O 	O 	0.85580 0.01570 0.04970 -0.37800
O 	O 	0.41480 0.55720 0.08920 -0.39900
O 	O 	0.05230 0.40520 0.10880 -0.31900
O 	O 	0.11020 0.13780 0.02660 -0.34900
O 	O 	0.26290 0.82310 0.04310 -0.45600
H 	H 	0.27360 0.91740 0.02480 0.25600
O 	O 	0.75140 0.49520 0.45610 -0.46000
H 	H 	0.74960 0.40040 0.47510 0.28200
C 	C 	0.94050 0.29050 0.10310 0.24300
C 	C 	0.97180 0.13180 0.05540 0.25600
C 	C 	0.02320 0.17690 0.44160 0.25100
C 	C 	0.05270 0.01470 0.39600 0.25700
C 	C 	0.41340 0.19800 0.22740 0.24900
C 	C 	0.57780 0.10190 0.27210 0.26800
Fe	Fe	0.63525 0.71560 0.61641 1.19300
Fe	Fe	0.28770 0.45835 0.56003 1.19900
Fe	Fe	0.37174 0.58735 0.88451 1.19300
Fe	Fe	0.72080 0.84940 0.94181 1.18900
P 	P 	0.55030 0.22850 0.94463 0.55600
P 	P 	0.44140 0.07520 0.55442 0.61100
O 	O 	0.56870 0.96150 0.60620 -0.43500
O 	O 	0.81170 0.50730 0.63510 -0.32700
O 	O 	0.42310 0.59640 0.65970 -0.46400
O 	O 	0.50350 0.08990 0.47930 -0.52800
O 	O 	0.69860 0.75950 0.73860 -0.32000
O 	O 	0.86140 0.79090 0.55440 -0.40000
O 	O 	0.42380 0.24630 0.58910 -0.39600
O 	O 	0.05790 0.39600 0.60430 -0.30900
O 	O 	0.12100 0.67780 0.53260 -0.36500
O 	O 	0.41810 0.33500 0.89250 -0.39800
O 	O 	0.19610 0.78740 0.86610 -0.35600
O 	O 	0.59050 0.70100 0.84280 -0.45100
O 	O 	0.48480 0.20710 0.01870 -0.52600
O 	O 	0.31020 0.54200 0.76330 -0.32200
O 	O 	0.14420 0.51570 0.95030 -0.39200
O 	O 	0.58520 0.05720 0.91080 -0.37600
O 	O 	0.94770 0.90520 0.89120 -0.32500
O 	O 	0.88980 0.63780 0.97340 -0.35600
O 	O 	0.73710 0.32310 0.95690 -0.44700
H 	H 	0.72640 0.41740 0.97520 0.26600
O 	O 	0.24860 0.99520 0.54390 -0.49500
H 	H 	0.25040 0.90040 0.52490 0.28600
C 	C 	0.05950 0.79050 0.89690 0.23900
C 	C 	0.02820 0.63180 0.94460 0.25100
C 	C 	0.97680 0.67690 0.55840 0.26500
C 	C 	0.94730 0.51470 0.60400 0.21800
C 	C 	0.58660 0.69800 0.77260 0.24600
C 	C 	0.42220 0.60190 0.72790 0.26800
