data_crystal

_cell_length_a 11.58300
_cell_length_b 11.74000
_cell_length_c 13.63800
_cell_angle_alpha 76.28000
_cell_angle_beta  75.52000
_cell_angle_gamma 65.56700

_symmetry_space_group_name_	'P 1'
_symmetry_space_group_name_H-M	'P 1'

loop_
_symmetry_equiv_pos_as_xyz
  x,y,z

loop_
_atom_site_label
_atom_site_type_symbol
_atom_site_fract_x
_atom_site_fract_y
_atom_site_fract_z
_atom_site_charge
O 	O 	0.36880 0.40890 0.53740 -0.40700
C 	C 	0.25120 0.48320 0.53860 0.31200
O 	O 	0.92910 0.68190 0.53070 -0.38300
C 	C 	0.97730 0.75990 0.53020 0.42300
O 	O 	0.90580 0.87490 0.53830 -0.38200
O 	O 	0.16090 0.44520 0.56220 -0.42000
N 	N 	0.33210 0.65280 0.48680 -0.28400
N 	N 	0.15470 0.82980 0.48620 -0.26500
C 	C 	0.22660 0.62100 0.51080 -0.03600
C 	C 	0.11620 0.73040 0.51060 -0.15000
N 	N 	0.89920 0.45310 0.64870 -0.25800
N 	N 	0.53100 0.48640 0.33440 -0.26400
N 	N 	0.98190 0.01370 0.34330 -0.21700
C 	C 	0.48910 0.58740 0.26930 0.17000
H 	H 	0.43270 0.66130 0.29510 -0.04500
C 	C 	0.60100 0.48810 0.12500 0.20500
C 	C 	0.52150 0.59370 0.16550 -0.25800
H 	H 	0.48900 0.67010 0.12310 0.11900
C 	C 	0.64560 0.49870 0.01340 -0.13100
H 	H 	0.60610 0.57560 0.97390 0.07800
C 	C 	0.28290 0.78150 0.47030 0.38500
C 	C 	0.94930 0.35110 0.71340 0.34200
H 	H 	0.02550 0.28850 0.68860 -0.14900
C 	C 	0.89680 0.33000 0.81570 -0.31800
H 	H 	0.93490 0.25410 0.85690 0.16000
C 	C 	0.78860 0.54110 0.68800 0.13000
H 	H 	0.75010 0.61410 0.64410 -0.00200
C 	C 	0.60450 0.38390 0.29410 0.17400
H 	H 	0.63160 0.30770 0.33790 -0.04700
C 	C 	0.72970 0.53030 0.78780 -0.21800
H 	H 	0.65230 0.59300 0.81060 0.11000
C 	C 	0.78840 0.42240 0.85520 0.19000
C 	C 	0.73660 0.40840 0.96490 -0.08400
H 	H 	0.77090 0.32930 0.00340 0.05700
C 	C 	0.36560 0.85550 0.43740 -1.02700
H 	H 	0.42880 0.82540 0.48120 0.33900
H 	H 	0.31390 0.94320 0.44150 0.35000
H 	H 	0.40810 0.84620 0.36800 0.34100
C 	C 	0.64310 0.38270 0.19270 -0.26600
H 	H 	0.69990 0.30750 0.16890 0.12300
C 	C 	0.95380 0.01070 0.03900 -0.20900
H 	H 	0.87300 0.02550 0.02680 0.09500
C 	C 	0.87030 0.02350 0.31610 0.19500
H 	H 	0.79860 0.02940 0.36710 -0.05600
C 	C 	0.86070 0.02490 0.21990 -0.34000
H 	H 	0.78270 0.03320 0.20620 0.13400
C 	C 	0.95990 0.01460 0.14370 0.34000
C 	C 	0.08010 0.00390 0.16860 -0.46100
H 	H 	0.15330 0.99450 0.11860 0.21200
C 	C 	0.08170 0.00800 0.26740 0.13100
H 	H 	0.15610 0.00680 0.28260 -0.06000
O 	O 	0.63120 0.59110 0.46260 -0.40300
C 	C 	0.74880 0.51680 0.46140 0.33400
O 	O 	0.07090 0.31810 0.46930 -0.39700
C 	C 	0.02270 0.24010 0.46980 0.22900
O 	O 	0.09420 0.12510 0.46170 -0.42700
O 	O 	0.83910 0.55480 0.43780 -0.36700
N 	N 	0.66790 0.34720 0.51320 -0.27200
N 	N 	0.84530 0.17020 0.51380 -0.27200
C 	C 	0.77340 0.37900 0.48920 -0.07700
C 	C 	0.88380 0.26960 0.48940 0.03500
N 	N 	0.10080 0.54690 0.35130 -0.20100
N 	N 	0.46900 0.51360 0.66560 -0.26500
N 	N 	0.01810 0.98630 0.65670 -0.24700
C 	C 	0.51090 0.41260 0.73070 0.16400
H 	H 	0.56730 0.33870 0.70490 -0.05000
C 	C 	0.39900 0.51190 0.87500 0.20200
C 	C 	0.47850 0.40630 0.83450 -0.26400
H 	H 	0.51100 0.32990 0.87690 0.11000
C 	C 	0.35440 0.50130 0.98660 -0.14500
H 	H 	0.39390 0.42440 0.02610 0.07000
C 	C 	0.71710 0.21850 0.52970 0.35000
C 	C 	0.05070 0.64890 0.28660 -0.11100
H 	H 	0.97450 0.71150 0.31140 0.13900
C 	C 	0.10320 0.67000 0.18430 -0.05600
H 	H 	0.06510 0.74590 0.14310 0.03500
C 	C 	0.21140 0.45890 0.31200 0.06000
H 	H 	0.24990 0.38590 0.35590 0.00900
C 	C 	0.39550 0.61610 0.70590 0.16900
H 	H 	0.36840 0.69230 0.66210 -0.04700
C 	C 	0.27030 0.46970 0.21220 -0.12400
H 	H 	0.34770 0.40700 0.18940 0.06800
C 	C 	0.21160 0.57760 0.14480 0.05000
C 	C 	0.26340 0.59160 0.03510 -0.04700
H 	H 	0.22910 0.67070 0.99660 0.04100
C 	C 	0.63440 0.14450 0.56260 -0.92900
H 	H 	0.57120 0.17460 0.51880 0.29800
H 	H 	0.68610 0.05680 0.55850 0.29400
H 	H 	0.59190 0.15380 0.63200 0.29300
C 	C 	0.35690 0.61730 0.80730 -0.27100
H 	H 	0.30010 0.69250 0.83110 0.11900
C 	C 	0.04620 0.98930 0.96100 0.01600
H 	H 	0.12700 0.97450 0.97320 0.01800
C 	C 	0.12970 0.97650 0.68390 0.03000
H 	H 	0.20140 0.97060 0.63290 0.01600
C 	C 	0.13930 0.97510 0.78010 -0.07100
H 	H 	0.21730 0.96680 0.79380 0.05500
C 	C 	0.04010 0.98540 0.85630 -0.07700
C 	C 	0.91990 0.99610 0.83140 0.09000
H 	H 	0.84670 0.00550 0.88140 -0.03100
C 	C 	0.91830 0.99200 0.73260 0.07400
H 	H 	0.84390 0.99320 0.71740 0.01700
Co	Co	-0.00000 0.00000 0.50000 1.09000
Co	Co	-0.00000 0.50000 0.50000 1.14900
Co	Co	0.50000 0.50000 0.50000 1.14900
