data_crystal

_cell_length_a 11.54320
_cell_length_b 11.67230
_cell_length_c 11.84140
_cell_angle_alpha 65.44000
_cell_angle_beta  78.96800
_cell_angle_gamma 72.17500

_symmetry_space_group_name_	'P 1'
_symmetry_space_group_name_H-M	'P 1'

loop_
_symmetry_equiv_pos_as_xyz
  x,y,z

loop_
_atom_site_label
_atom_site_type_symbol
_atom_site_fract_x
_atom_site_fract_y
_atom_site_fract_z
_atom_site_charge
O 	O 	0.54650 0.40140 0.37840 -0.39700
O 	O 	0.53970 0.42750 0.18390 -0.40700
O 	O 	0.57880 0.65280 0.95210 -0.36500
O 	O 	0.54910 0.86140 0.91580 -0.35900
N 	N 	0.48090 0.65710 0.32880 -0.22800
N 	N 	0.48350 0.83030 0.15280 -0.21300
N 	N 	0.69120 0.50420 0.49730 -0.23800
N 	N 	0.69600 0.94970 0.03330 -0.28800
N 	N 	0.32450 0.62260 0.03080 -0.26700
C 	C 	0.53470 0.47380 0.26250 0.30900
C 	C 	0.51190 0.61580 0.23170 -0.03800
C 	C 	0.51400 0.72440 0.12190 -0.14000
C 	C 	0.54890 0.74540 0.98910 0.40800
C 	C 	0.46420 0.78650 0.27740 0.11300
C 	C 	0.42960 0.87140 0.35200 -0.04800
H 	H 	0.47000 0.94170 0.31230 0.05800
H 	H 	0.45860 0.82030 0.43450 0.05000
C 	C 	0.29270 0.92910 0.36410 -0.47500
H 	H 	0.27590 0.98330 0.41090 0.18800
H 	H 	0.25240 0.86000 0.40630 0.17300
H 	H 	0.26350 0.98020 0.28270 0.18300
C 	C 	0.78110 0.40180 0.50210 0.08700
H 	H 	0.76250 0.32940 0.50280 -0.02100
C 	C 	0.90330 0.39500 0.50620 -0.14700
H 	H 	0.96290 0.31810 0.51360 0.06700
C 	C 	0.93510 0.50170 0.49920 0.06100
C 	C 	0.84050 0.60510 0.49620 -0.15700
H 	H 	0.85520 0.67920 0.49610 0.08500
C 	C 	0.72270 0.60290 0.49330 0.10500
H 	H 	0.66130 0.67790 0.48810 -0.01000
C 	C 	0.74510 0.86270 0.13690 0.09000
H 	H 	0.69340 0.83890 0.20860 -0.00800
C 	C 	0.86850 0.80480 0.14570 -0.15600
H 	H 	0.89700 0.74460 0.22220 0.08400
C 	C 	0.94980 0.83460 0.04330 0.03100
C 	C 	0.89960 0.93130 0.93610 -0.11800
H 	H 	0.94920 0.95960 0.86370 0.09600
C 	C 	0.77470 0.98590 0.93740 0.28400
H 	H 	0.74420 0.05330 0.86500 -0.10200
C 	C 	0.08140 0.76630 0.04380 -0.05300
C 	C 	0.12750 0.64780 0.13780 -0.09500
H 	H 	0.07710 0.61410 0.20780 0.06100
C 	C 	0.24590 0.58080 0.12810 0.04500
H 	H 	0.27370 0.50170 0.19250 0.01100
C 	C 	0.28140 0.73930 0.94290 0.13200
H 	H 	0.33460 0.77300 0.87580 0.01000
C 	C 	0.16300 0.81230 0.94630 -0.00300
H 	H 	0.13820 0.89290 0.88260 0.06000
O 	O 	0.45350 0.59860 0.62160 -0.39400
O 	O 	0.46030 0.57250 0.81610 -0.36700
O 	O 	0.42120 0.34720 0.04790 -0.39100
O 	O 	0.45090 0.13860 0.08420 -0.40900
N 	N 	0.51910 0.34290 0.67120 -0.22300
N 	N 	0.51650 0.16970 0.84720 -0.22500
N 	N 	0.30880 0.49580 0.50270 -0.23800
N 	N 	0.30400 0.05030 0.96670 -0.15100
N 	N 	0.67550 0.37740 0.96920 -0.16600
C 	C 	0.46530 0.52620 0.73750 0.33500
C 	C 	0.48810 0.38420 0.76830 -0.07900
C 	C 	0.48600 0.27560 0.87810 0.04900
C 	C 	0.45110 0.25460 0.01090 0.20900
C 	C 	0.53580 0.21350 0.72260 0.12200
C 	C 	0.57040 0.12860 0.64800 -0.08400
H 	H 	0.53000 0.05830 0.68770 0.04400
H 	H 	0.54140 0.17970 0.56550 0.05100
C 	C 	0.70730 0.07090 0.63590 -0.38000
H 	H 	0.72410 0.01670 0.58910 0.12800
H 	H 	0.74760 0.14000 0.59370 0.13400
H 	H 	0.73650 0.01980 0.71730 0.13200
C 	C 	0.21890 0.59820 0.49790 0.09300
H 	H 	0.23750 0.67060 0.49720 -0.01700
C 	C 	0.09670 0.60500 0.49380 -0.14600
H 	H 	0.03710 0.68190 0.48640 0.07900
C 	C 	0.06490 0.49830 0.50080 0.06100
C 	C 	0.15950 0.39490 0.50380 -0.15700
H 	H 	0.14480 0.32080 0.50390 0.07200
C 	C 	0.27730 0.39710 0.50670 0.10400
H 	H 	0.33870 0.32210 0.51190 -0.01800
C 	C 	0.25490 0.13730 0.86310 0.09700
H 	H 	0.30660 0.16110 0.79140 -0.01500
C 	C 	0.13150 0.19520 0.85430 -0.14100
H 	H 	0.10300 0.25540 0.77780 0.07500
C 	C 	0.05020 0.16540 0.95670 0.10400
C 	C 	0.10040 0.06870 0.06390 -0.16600
H 	H 	0.05080 0.04040 0.13630 0.04900
C 	C 	0.22530 0.01410 0.06260 -0.14300
H 	H 	0.25580 0.94670 0.13500 0.08800
C 	C 	0.91860 0.23370 0.95620 0.16700
C 	C 	0.87250 0.35220 0.86220 -0.17600
H 	H 	0.92290 0.38590 0.79220 0.09600
C 	C 	0.75410 0.41920 0.87190 0.12200
H 	H 	0.72630 0.49830 0.80750 -0.00100
C 	C 	0.71860 0.26070 0.05710 0.01900
H 	H 	0.66540 0.22700 0.12420 0.01400
C 	C 	0.83700 0.18770 0.05370 -0.26300
H 	H 	0.86180 0.10710 0.11740 0.09000
Co	Co	0.50000 0.50000 0.50000 1.14400
Co	Co	0.50000 0.50000 -0.00000 1.14000
Co	Co	0.50000 0.00000 -0.00000 1.07400
