data_crystal

_cell_length_a 16.04300
_cell_length_b 19.72270
_cell_length_c 19.72270
_cell_angle_alpha 80.47850
_cell_angle_beta  66.00140
_cell_angle_gamma 66.00130

_symmetry_space_group_name_	'P 1'
_symmetry_space_group_name_H-M	'P 1'

loop_
_symmetry_equiv_pos_as_xyz
  x,y,z

loop_
_atom_site_label
_atom_site_type_symbol
_atom_site_fract_x
_atom_site_fract_y
_atom_site_fract_z
_atom_site_charge
Dy	Dy	0.95911 0.70162 0.88457 1.74200
Dy	Dy	0.54529 0.29838 0.11544 1.81400
Cu	Cu	0.61270 0.59071 0.18723 0.84900
Cu	Cu	0.39064 0.40929 0.81277 0.84900
H 	H 	0.11950 0.58260 0.06780 0.04300
H 	H 	0.23850 0.55710 0.11590 0.06600
H 	H 	0.22350 0.72480 0.92400 0.04400
H 	H 	0.33640 0.70250 0.97370 0.06400
H 	H 	0.41500 0.50570 0.10250 0.07200
H 	H 	0.53420 0.49280 0.14480 -0.00200
H 	H 	0.35930 0.72410 0.07950 0.08700
H 	H 	0.47450 0.70450 0.12770 -0.00800
H 	H 	0.84300 0.58470 0.76770 0.03300
H 	H 	0.73430 0.54630 0.75310 0.06000
H 	H 	0.68350 0.61460 0.98460 0.01600
H 	H 	0.57240 0.57530 0.97150 0.07000
H 	H 	0.57070 0.57700 0.75380 0.07700
H 	H 	0.46560 0.53150 0.74230 -0.01700
H 	H 	0.53990 0.47670 0.94990 0.08800
H 	H 	0.43140 0.43660 0.93620 -0.00500
H 	H 	0.11070 0.75960 0.62880 0.04600
H 	H 	0.21960 0.73690 0.50590 0.07500
H 	H 	0.27610 0.56330 0.68790 0.02500
H 	H 	0.38350 0.54220 0.56700 0.06600
H 	H 	0.28650 0.65200 0.39920 0.09000
H 	H 	0.40060 0.62750 0.27850 -0.00500
H 	H 	0.51130 0.59070 0.46550 0.07800
H 	H 	0.61650 0.57350 0.34490 -0.02200
H 	H 	0.82750 0.96460 0.92140 0.02800
H 	H 	0.73250 0.08820 0.91220 0.07400
H 	H 	0.68750 0.90510 0.83250 0.03700
H 	H 	0.60550 0.02830 0.81090 0.07200
H 	H 	0.57370 0.19060 0.94640 0.07700
H 	H 	0.48170 0.30970 0.92710 -0.00300
H 	H 	0.61820 0.14210 0.74250 0.08600
H 	H 	0.52270 0.26260 0.72980 -0.00600
H 	H 	0.76990 0.41740 0.93220 0.04100
H 	H 	0.91150 0.44290 0.88410 0.05200
H 	H 	0.87230 0.27520 0.07600 0.03200
H 	H 	0.01260 0.29750 0.02630 0.09300
H 	H 	0.02320 0.49430 0.89750 0.09200
H 	H 	0.17180 0.50720 0.85520 -0.00500
H 	H 	0.16290 0.27590 0.92050 0.09800
H 	H 	0.30670 0.29550 0.87230 -0.01300
H 	H 	0.19540 0.41530 0.23230 0.02900
H 	H 	0.03370 0.45370 0.24690 0.08100
H 	H 	0.28270 0.38540 0.01540 0.00900
H 	H 	0.11920 0.42470 0.02850 0.08700
H 	H 	0.90150 0.42300 0.24620 0.05800
H 	H 	0.73940 0.46850 0.25770 -0.01200
H 	H 	0.96650 0.52330 0.05010 0.06700
H 	H 	0.80420 0.56340 0.06380 0.00100
H 	H 	0.49910 0.24040 0.37120 0.04000
H 	H 	0.46240 0.26310 0.49410 0.07500
H 	H 	0.52730 0.43670 0.31210 0.02300
H 	H 	0.49270 0.45780 0.43300 0.06700
H 	H 	0.33770 0.34800 0.60080 0.08900
H 	H 	0.30660 0.37250 0.72150 -0.00500
H 	H 	0.56750 0.40930 0.53450 0.07700
H 	H 	0.53490 0.42650 0.65510 -0.02100
H 	H 	0.71350 0.03540 0.07860 0.03200
H 	H 	0.73290 0.91180 0.08780 0.07400
H 	H 	0.42510 0.09490 0.16750 0.03700
H 	H 	0.44470 0.97170 0.18910 0.07200
H 	H 	0.71070 0.80940 0.05360 0.07900
H 	H 	0.71850 0.69030 0.07290 -0.00200
H 	H 	0.50280 0.85790 0.25750 0.08600
H 	H 	0.51510 0.73740 0.27020 -0.00600
C 	C 	0.08340 0.67180 0.95680 0.31500
C 	C 	0.16050 0.65350 0.98950 -0.08000
C 	C 	0.16450 0.60580 0.04780 0.01400
C 	C 	0.23500 0.59150 0.07770 -0.08600
C 	C 	0.22620 0.69100 0.96260 0.01700
C 	C 	0.29310 0.67760 0.99280 -0.08800
C 	C 	0.30030 0.62820 0.05120 0.02600
C 	C 	0.37320 0.61730 0.08290 0.06200
C 	C 	0.42747 0.54710 0.10516 -0.13000
C 	C 	0.49930 0.53970 0.13090 0.06700
C 	C 	0.39350 0.67620 0.09200 -0.13700
C 	C 	0.46500 0.66340 0.12000 0.07900
C 	C 	0.84950 0.62520 0.88420 0.32700
C 	C 	0.77534 0.60109 0.87803 -0.10800
C 	C 	0.78870 0.58220 0.80880 0.02200
C 	C 	0.72310 0.55990 0.79990 -0.09800
C 	C 	0.69410 0.60010 0.93830 0.03100
C 	C 	0.62660 0.57720 0.93000 -0.10400
C 	C 	0.63920 0.55730 0.86070 0.02500
C 	C 	0.56810 0.53206 0.85294 0.07100
C 	C 	0.54440 0.54760 0.79140 -0.14500
C 	C 	0.48090 0.51960 0.78460 0.07500
C 	C 	0.52570 0.48880 0.90720 -0.14000
C 	C 	0.46150 0.46350 0.89790 0.07000
C 	C 	0.10780 0.67750 0.74810 0.30900
C 	C 	0.18080 0.66340 0.67080 -0.08900
C 	C 	0.16550 0.71540 0.61620 0.01900
C 	C 	0.23140 0.70230 0.54250 -0.09600
C 	C 	0.26410 0.59840 0.65180 0.02600
C 	C 	0.32860 0.58630 0.57930 -0.10000
C 	C 	0.31450 0.63740 0.52420 0.02700
C 	C 	0.38550 0.62340 0.44620 0.07400
C 	C 	0.35350 0.63490 0.38970 -0.14200
C 	C 	0.42330 0.62050 0.31670 0.07700
C 	C 	0.48670 0.59920 0.42820 -0.15800
C 	C 	0.54950 0.58820 0.35560 0.08500
C 	C 	0.81860 0.84170 0.89410 0.32000
C 	C 	0.76310 0.92270 0.88310 -0.10300
C 	C 	0.77900 0.97690 0.90210 0.03500
C 	C 	0.72470 0.05160 0.89380 -0.11000
C 	C 	0.69810 0.94190 0.84790 0.02700
C 	C 	0.64820 0.01600 0.83560 -0.10500
C 	C 	0.66060 0.07110 0.85930 0.04100
C 	C 	0.60570 0.15030 0.84710 0.06200
C 	C 	0.56420 0.20350 0.90170 -0.13800
C 	C 	0.50880 0.27520 0.88960 0.07100
C 	C 	0.59000 0.17500 0.78160 -0.13700
C 	C 	0.53290 0.24800 0.77400 0.08100
C 	C 	0.71200 0.32820 0.04320 0.31800
C 	C 	0.80350 0.34650 0.01050 -0.08400
C 	C 	0.81810 0.39420 0.95220 0.00200
C 	C 	0.90420 0.40850 0.92230 -0.07300
C 	C 	0.87980 0.30900 0.03740 0.03200
C 	C 	0.96350 0.32240 0.00720 -0.12300
C 	C 	0.97970 0.37180 0.94880 -0.01000
C 	C 	0.07340 0.38270 0.91710 0.10700
C 	C 	0.07973 0.45290 0.89484 -0.15300
C 	C 	0.16990 0.46030 0.86910 0.08100
C 	C 	0.16170 0.32380 0.90800 -0.16200
C 	C 	0.24840 0.33660 0.88000 0.09300
C 	C 	0.35890 0.37480 0.11580 0.33200
C 	C 	0.25446 0.39891 0.12197 -0.12300
C 	C 	0.17970 0.41780 0.19120 0.04800
C 	C 	0.08290 0.44010 0.20010 -0.13100
C 	C 	0.23250 0.39990 0.06170 0.05500
C 	C 	0.13380 0.42280 0.07000 -0.13600
C 	C 	0.05720 0.44270 0.13930 0.08200
C 	C 	0.95310 0.46794 0.14706 0.01300
C 	C 	0.88340 0.45240 0.20860 -0.11300
C 	C 	0.78510 0.48040 0.21540 0.05600
C 	C 	0.92170 0.51120 0.09280 -0.10800
C 	C 	0.82290 0.53650 0.10210 0.05100
C 	C 	0.53340 0.32250 0.25190 0.31200
C 	C 	0.51500 0.33660 0.32920 -0.09600
C 	C 	0.49710 0.28460 0.38380 0.02200
C 	C 	0.47620 0.29770 0.45750 -0.10000
C 	C 	0.51430 0.40160 0.34820 0.02900
C 	C 	0.49420 0.41370 0.42070 -0.10400
C 	C 	0.47610 0.36260 0.47580 0.03000
C 	C 	0.45510 0.37660 0.55380 0.07200
C 	C 	0.37810 0.36510 0.61030 -0.14000
C 	C 	0.36050 0.37950 0.68330 0.07600
C 	C 	0.51410 0.40080 0.57180 -0.15600
C 	C 	0.49330 0.41180 0.64440 0.08400
C 	C 	0.55440 0.15830 0.10590 0.32000
C 	C 	0.56890 0.07730 0.11690 -0.10000
C 	C 	0.65800 0.02310 0.09790 0.03400
C 	C 	0.67010 0.94840 0.10620 -0.10800
C 	C 	0.48790 0.05810 0.15210 0.02600
C 	C 	0.49980 0.98400 0.16440 -0.10300
C 	C 	0.59100 0.92890 0.14070 0.04000
C 	C 	0.60310 0.84970 0.15290 0.06300
C 	C 	0.66940 0.79650 0.09830 -0.13900
C 	C 	0.67360 0.72480 0.11040 0.07200
C 	C 	0.54660 0.82500 0.21840 -0.13700
C 	C 	0.55490 0.75200 0.22600 0.08100
N 	N 	0.52102 0.59730 0.13686 -0.24000
N 	N 	0.44104 0.47622 0.83610 -0.24600
N 	N 	0.52069 0.59716 0.29866 -0.23700
N 	N 	0.49160 0.29858 0.82702 -0.22300
N 	N 	0.25518 0.40270 0.86314 -0.24500
N 	N 	0.75336 0.52378 0.16390 -0.23900
N 	N 	0.41651 0.40284 0.70134 -0.23700
N 	N 	0.61720 0.70142 0.17298 -0.22400
O 	O 	0.07519 0.72477 0.91125 -0.38900
O 	O 	0.02960 0.63519 0.97381 -0.40000
O 	O 	0.83718 0.64594 0.94650 -0.41600
O 	O 	0.92137 0.62643 0.82823 -0.43000
O 	O 	0.11522 0.62626 0.79650 -0.38500
O 	O 	0.03561 0.73935 0.76443 -0.38700
O 	O 	0.81680 0.79360 0.86240 -0.40200
O 	O 	0.87101 0.82399 0.93299 -0.42000
O 	O 	0.71121 0.27523 0.08875 -0.40900
O 	O 	0.63860 0.36481 0.02619 -0.42100
O 	O 	0.42962 0.35406 0.05350 -0.41700
O 	O 	0.37603 0.37357 0.17177 -0.42300
O 	O 	0.53798 0.37374 0.20350 -0.40000
O 	O 	0.53939 0.26065 0.23557 -0.41100
O 	O 	0.47280 0.20640 0.13760 -0.40400
O 	O 	0.62799 0.17601 0.06701 -0.41800
Dy	Dy	0.15633 0.88456 0.29838 1.83500
Dy	Dy	0.33926 0.11544 0.70163 1.81600
Cu	Cu	0.20007 0.18723 0.40929 0.85000
Cu	Cu	0.79659 0.81277 0.59071 0.84800
H 	H 	0.81270 0.06780 0.41740 0.04000
H 	H 	0.64560 0.11590 0.44290 0.06400
H 	H 	0.85250 0.92400 0.27520 0.03800
H 	H 	0.68990 0.97370 0.29750 0.06100
H 	H 	0.48250 0.10250 0.49430 0.07100
H 	H 	0.32100 0.14480 0.50720 -0.00100
H 	H 	0.56120 0.07950 0.27590 0.08600
H 	H 	0.39780 0.12770 0.29550 -0.00800
H 	H 	0.38930 0.76770 0.41530 0.03900
H 	H 	0.51260 0.75310 0.45370 0.06000
H 	H 	0.33190 0.98460 0.38540 0.01900
H 	H 	0.45610 0.97150 0.42470 0.06900
H 	H 	0.67550 0.75380 0.42300 0.07600
H 	H 	0.79210 0.74230 0.46850 -0.02200
H 	H 	0.51020 0.94990 0.52330 0.08900
H 	H 	0.63240 0.93620 0.56340 -0.00500
H 	H 	0.26050 0.62880 0.24040 0.04200
H 	H 	0.27450 0.50590 0.26310 0.07500
H 	H 	0.03600 0.68790 0.43670 0.03300
H 	H 	0.04950 0.56700 0.45780 0.07300
H 	H 	0.31430 0.39920 0.34800 0.09000
H 	H 	0.32090 0.27850 0.37250 -0.00500
H 	H 	0.02320 0.46550 0.40930 0.08500
H 	H 	0.03860 0.34490 0.42650 -0.01500
H 	H 	0.25110 0.92140 0.03540 0.03400
H 	H 	0.35530 0.91220 0.91180 0.07900
H 	H 	0.48000 0.83250 0.09490 0.03400
H 	H 	0.58360 0.81090 0.97170 0.07500
H 	H 	0.47990 0.94640 0.80940 0.07700
H 	H 	0.59120 0.92710 0.69030 -0.00200
H 	H 	0.63930 0.74250 0.85790 0.08500
H 	H 	0.74750 0.72980 0.73740 -0.00500
H 	H 	0.29790 0.93220 0.58260 0.05300
H 	H 	0.20440 0.88410 0.55710 0.05000
H 	H 	0.05170 0.07600 0.72480 0.07400
H 	H 	0.96110 0.02630 0.70250 0.00600
H 	H 	0.07930 0.89750 0.50570 0.07000
H 	H 	0.97300 0.85520 0.49280 0.00000
H 	H 	0.91660 0.92050 0.72410 0.10200
H 	H 	0.82100 0.87230 0.70450 -0.01700
H 	H 	0.57230 0.23230 0.58470 0.03800
H 	H 	0.71940 0.24690 0.54630 0.05900
H 	H 	0.70190 0.01540 0.61460 0.01900
H 	H 	0.85230 0.02850 0.57530 0.06600
H 	H 	0.85230 0.24620 0.57700 0.06000
H 	H 	0.00290 0.25770 0.53150 0.03400
H 	H 	0.98340 0.05010 0.47670 0.09400
H 	H 	0.13200 0.06380 0.43660 -0.01700
H 	H 	0.12970 0.37120 0.75960 0.02300
H 	H 	0.04350 0.49410 0.73690 0.11100
H 	H 	0.16060 0.31210 0.56330 0.00400
H 	H 	0.07430 0.43300 0.54220 0.10100
H 	H 	0.06150 0.60080 0.65200 0.03400
H 	H 	0.97190 0.72150 0.62750 0.02300
H 	H 	0.89800 0.53450 0.59070 0.03700
H 	H 	0.81000 0.65510 0.57350 -0.00300
H 	H 	0.20790 0.07860 0.96460 0.03700
H 	H 	0.17930 0.08780 0.08820 0.07800
H 	H 	0.40740 0.16750 0.90510 0.03800
H 	H 	0.36620 0.18910 0.02830 0.07200
H 	H 	0.23570 0.05360 0.19060 0.07800
H 	H 	0.20860 0.07290 0.30970 -0.00200
H 	H 	0.23970 0.25750 0.14210 0.08700
H 	H 	0.21470 0.27020 0.26260 -0.00500
C 	C 	0.95980 0.95680 0.32820 0.28300
C 	C 	0.85000 0.98950 0.34650 -0.07800
C 	C 	0.78770 0.04780 0.39420 0.00900
C 	C 	0.68730 0.07770 0.40850 -0.08500
C 	C 	0.81120 0.96260 0.30900 0.00900
C 	C 	0.71410 0.99280 0.32240 -0.08500
C 	C 	0.64850 0.05120 0.37180 0.02200
C 	C 	0.54390 0.08290 0.38270 0.06300
C 	C 	0.46737 0.10516 0.45290 -0.13100
C 	C 	0.36980 0.13090 0.46030 0.06600
C 	C 	0.51450 0.09200 0.32380 -0.13800
C 	C 	0.41500 0.12000 0.33660 0.07900
C 	C 	0.26630 0.88420 0.37480 0.32500
C 	C 	0.34663 0.87803 0.39891 -0.10200
C 	C 	0.40250 0.80880 0.41780 0.01800
C 	C 	0.47700 0.79990 0.44010 -0.09400
C 	C 	0.36760 0.93830 0.39990 0.02700
C 	C 	0.44340 0.93000 0.42280 -0.10100
C 	C 	0.50010 0.86070 0.44270 0.02200
C 	C 	0.57896 0.85294 0.46794 0.07300
C 	C 	0.66420 0.79140 0.45240 -0.14700
C 	C 	0.73450 0.78460 0.48040 0.07600
C 	C 	0.56710 0.90720 0.51120 -0.14100
C 	C 	0.64060 0.89790 0.53650 0.07100
C 	C 	0.14410 0.74810 0.32250 0.31100
C 	C 	0.14840 0.67080 0.33660 -0.09000
C 	C 	0.21830 0.61620 0.28460 0.02000
C 	C 	0.22610 0.54250 0.29770 -0.09700
C 	C 	0.08410 0.65180 0.40160 0.02800
C 	C 	0.09210 0.57930 0.41370 -0.09900
C 	C 	0.16130 0.52420 0.36260 0.02900
C 	C 	0.16830 0.44620 0.37660 0.07500
C 	C 	0.25680 0.38970 0.36510 -0.14100
C 	C 	0.26000 0.31670 0.37950 0.07700
C 	C 	0.08510 0.42820 0.40080 -0.15700
C 	C 	0.09490 0.35560 0.41180 0.08500
C 	C 	0.28730 0.89410 0.15830 0.32100
C 	C 	0.35380 0.88310 0.07730 -0.10500
C 	C 	0.31890 0.90210 0.02310 0.04200
C 	C 	0.38150 0.89380 0.94840 -0.11600
C 	C 	0.45400 0.84790 0.05810 0.03600
C 	C 	0.51620 0.83560 0.98400 -0.11400
C 	C 	0.48010 0.85930 0.92890 0.04700
C 	C 	0.54720 0.84710 0.84970 0.06000
C 	C 	0.53410 0.90170 0.79650 -0.13600
C 	C 	0.60160 0.88960 0.72480 0.07100
C 	C 	0.62840 0.78160 0.82500 -0.13500
C 	C 	0.69310 0.77400 0.75200 0.08000
C 	C 	0.24480 0.04320 0.67180 0.30500
C 	C 	0.18600 0.01050 0.65350 -0.04500
C 	C 	0.22970 0.95220 0.60580 -0.02500
C 	C 	0.17350 0.92230 0.59150 -0.04100
C 	C 	0.08280 0.03740 0.69100 -0.05200
C 	C 	0.02930 0.00720 0.67760 0.02300
C 	C 	0.07150 0.94880 0.62820 -0.03200
C 	C 	0.00950 0.91710 0.61730 0.12000
C 	C 	0.02543 0.89484 0.54710 -0.10800
C 	C 	0.96100 0.86910 0.53970 0.03200
C 	C 	0.93030 0.90800 0.67620 -0.20100
C 	C 	0.87160 0.88000 0.66340 0.09900
C 	C 	0.52530 0.11580 0.62520 0.32500
C 	C 	0.62357 0.12197 0.60109 -0.10200
C 	C 	0.62910 0.19120 0.58220 0.01800
C 	C 	0.71700 0.20010 0.55990 -0.09400
C 	C 	0.70580 0.06170 0.60010 0.02600
C 	C 	0.79620 0.07000 0.57720 -0.09900
C 	C 	0.80350 0.13930 0.55730 0.02200
C 	C 	0.89984 0.14706 0.53206 0.06800
C 	C 	0.90800 0.20860 0.54760 -0.11000
C 	C 	0.99950 0.21540 0.51960 -0.02000
C 	C 	0.98550 0.09280 0.48880 -0.18100
C 	C 	0.07500 0.10210 0.46350 0.11300
C 	C 	0.21470 0.25190 0.67750 0.32800
C 	C 	0.15580 0.32920 0.66340 -0.13500
C 	C 	0.11910 0.38380 0.71540 0.08000
C 	C 	0.06630 0.45750 0.70230 -0.17500
C 	C 	0.13750 0.34820 0.59840 0.09000
C 	C 	0.08510 0.42070 0.58630 -0.18200
C 	C 	0.04810 0.47580 0.63740 0.14600
C 	C 	0.99110 0.55380 0.62340 -0.08800
C 	C 	0.01160 0.61030 0.63490 0.03500
C 	C 	0.95620 0.68330 0.62050 -0.03300
C 	C 	0.91410 0.57180 0.59920 -0.06300
C 	C 	0.86230 0.64440 0.58820 0.02400
C 	C 	0.33970 0.10590 0.84170 0.32000
C 	C 	0.31420 0.11690 0.92270 -0.09900
C 	C 	0.24410 0.09790 0.97690 0.03400
C 	C 	0.22370 0.10620 0.05160 -0.10700
C 	C 	0.36000 0.15210 0.94190 0.02500
C 	C 	0.33580 0.16440 0.01600 -0.10300
C 	C 	0.26830 0.14070 0.07110 0.04100
C 	C 	0.24400 0.15290 0.15030 0.06500
C 	C 	0.23230 0.09830 0.20350 -0.13700
C 	C 	0.21600 0.11040 0.27520 0.07400
C 	C 	0.23500 0.21840 0.17500 -0.13600
C 	C 	0.21910 0.22600 0.24800 0.08300
N 	N 	0.34212 0.13686 0.40270 -0.24000
N 	N 	0.72286 0.83610 0.52378 -0.24700
N 	N 	0.18065 0.29866 0.40284 -0.23600
N 	N 	0.68138 0.82702 0.70142 -0.22300
N 	N 	0.88168 0.86314 0.59730 -0.24200
N 	N 	0.08274 0.16390 0.47622 -0.22600
N 	N 	0.88215 0.70134 0.59716 -0.21000
N 	N 	0.20982 0.17298 0.29858 -0.22300
O 	O 	0.01356 0.91125 0.27523 -0.37800
O 	O 	0.99659 0.97381 0.36481 -0.43000
O 	O 	0.21632 0.94650 0.35406 -0.41200
O 	O 	0.25040 0.82823 0.37357 -0.42200
O 	O 	0.08828 0.79650 0.37374 -0.39100
O 	O 	0.19996 0.76443 0.26065 -0.41100
O 	O 	0.32080 0.86240 0.20640 -0.40600
O 	O 	0.19600 0.93299 0.17601 -0.41500
O 	O 	0.20004 0.08875 0.72477 -0.40100
O 	O 	0.33521 0.02619 0.63519 -0.41800
O 	O 	0.51688 0.05350 0.64594 -0.41500
O 	O 	0.45220 0.17177 0.62643 -0.42200
O 	O 	0.25852 0.20350 0.62626 -0.40200
O 	O 	0.22504 0.23557 0.73935 -0.41200
O 	O 	0.38960 0.13760 0.79360 -0.40400
O 	O 	0.30500 0.06701 0.82399 -0.41600
