data_crystal

_cell_length_a 15.92240
_cell_length_b 19.68140
_cell_length_c 19.68140
_cell_angle_alpha 80.58270
_cell_angle_beta  66.14000
_cell_angle_gamma 66.13990

_symmetry_space_group_name_	'P 1'
_symmetry_space_group_name_H-M	'P 1'

loop_
_symmetry_equiv_pos_as_xyz
  x,y,z

loop_
_atom_site_label
_atom_site_type_symbol
_atom_site_fract_x
_atom_site_fract_y
_atom_site_fract_z
_atom_site_charge
Er	Er	0.20571 0.38278 0.20189 1.74700
Er	Er	0.79038 0.61722 0.79811 1.74600
Cu	Cu	0.36036 0.68624 0.09070 0.84800
Cu	Cu	0.13730 0.31376 0.90930 0.84800
H 	H 	0.03540 0.42570 0.46270 0.03300
H 	H 	0.01570 0.40810 0.58590 0.07500
H 	H 	0.32580 0.33070 0.40510 0.03500
H 	H 	0.30630 0.31170 0.52750 0.07200
H 	H 	0.24890 0.24320 0.64160 0.09000
H 	H 	0.23460 0.23160 0.76140 -0.00800
H 	H 	0.03700 0.44680 0.69080 0.08400
H 	H 	0.03230 0.42860 0.80880 -0.00300
H 	H 	0.98430 0.56480 0.08080 0.03400
H 	H 	0.83920 0.61690 0.05890 0.06700
H 	H 	0.88120 0.42250 0.22510 0.04100
H 	H 	0.73650 0.47360 0.20380 0.06500
H 	H 	0.72840 0.60150 0.00630 0.07700
H 	H 	0.57950 0.64350 0.99290 -0.00400
H 	H 	0.58780 0.58050 0.22370 0.09000
H 	H 	0.44390 0.62480 0.20460 -0.01200
H 	H 	0.55510 0.26710 0.08270 0.03600
H 	H 	0.71760 0.25320 0.04740 0.06300
H 	H 	0.46730 0.48490 0.11330 0.01400
H 	H 	0.63100 0.47080 0.07700 0.07300
H 	H 	0.84810 0.25500 0.07900 0.07700
H 	H 	0.01060 0.24380 0.03220 -0.01300
H 	H 	0.78210 0.45120 0.97680 0.08900
H 	H 	0.94550 0.43620 0.93480 -0.00700
H 	H 	0.22640 0.18700 0.06280 0.02400
H 	H 	0.25520 0.06660 0.04200 0.06800
H 	H 	0.24950 0.12850 0.26050 0.04000
H 	H 	0.28630 0.00620 0.23740 0.07600
H 	H 	0.18080 0.96490 0.09190 0.07900
H 	H 	0.21520 0.84360 0.07380 -0.02100
H 	H 	0.41400 0.89660 0.15220 0.09100
H 	H 	0.44390 0.77860 0.12820 -0.00700
H 	H 	0.92380 0.57430 0.53730 0.03400
H 	H 	0.00970 0.59190 0.41410 0.07500
H 	H 	0.06160 0.66930 0.59490 0.03400
H 	H 	0.14550 0.68830 0.47250 0.07300
H 	H 	0.13370 0.75680 0.35840 0.09000
H 	H 	0.22760 0.76840 0.23860 -0.00800
H 	H 	0.17460 0.55320 0.30920 0.08400
H 	H 	0.26970 0.57140 0.19120 -0.00300
H 	H 	0.62990 0.43520 0.91920 0.03700
H 	H 	0.51500 0.38310 0.94110 0.06600
H 	H 	0.52880 0.57750 0.77490 0.04300
H 	H 	0.41390 0.52640 0.79620 0.06400
H 	H 	0.33620 0.39850 0.99370 0.07600
H 	H 	0.21590 0.35650 0.00710 -0.00300
H 	H 	0.39200 0.41950 0.77630 0.09100
H 	H 	0.27330 0.37520 0.79540 -0.01200
H 	H 	0.90490 0.73290 0.91730 0.03800
H 	H 	0.01820 0.74680 0.95260 0.06200
H 	H 	0.06550 0.51510 0.88670 0.01400
H 	H 	0.17880 0.52920 0.92300 0.07300
H 	H 	0.18210 0.74500 0.92100 0.07900
H 	H 	0.28660 0.75620 0.96780 -0.01800
H 	H 	0.21010 0.54880 0.02320 0.09100
H 	H 	0.31650 0.56380 0.06520 -0.00600
H 	H 	0.47620 0.81300 0.93720 0.02300
H 	H 	0.36380 0.93340 0.95800 0.06800
H 	H 	0.63850 0.87150 0.73950 0.03900
H 	H 	0.52990 0.99380 0.76260 0.07700
H 	H 	0.23760 0.03510 0.90810 0.07800
H 	H 	0.13260 0.15640 0.92620 -0.02100
H 	H 	0.46280 0.10340 0.84780 0.09100
H 	H 	0.35070 0.22140 0.87180 -0.00700
C 	C 	0.19610 0.39250 0.34110 0.33100
C 	C 	0.18190 0.38250 0.42150 -0.10700
C 	C 	0.09090 0.40360 0.47540 0.03800
C 	C 	0.07930 0.39260 0.54960 -0.10700
C 	C 	0.26250 0.34720 0.44160 0.03300
C 	C 	0.25080 0.33590 0.51510 -0.10500
C 	C 	0.15840 0.35970 0.57090 0.03800
C 	C 	0.14600 0.34730 0.64990 0.06900
C 	C 	0.20380 0.28230 0.67450 -0.14600
C 	C 	0.19450 0.27590 0.74670 0.09100
C 	C 	0.07920 0.40240 0.70340 -0.14500
C 	C 	0.07630 0.39050 0.77450 0.08000
C 	C 	0.03860 0.45480 0.17300 0.32600
C 	C 	0.94790 0.48890 0.15490 -0.09800
C 	C 	0.93430 0.54640 0.10560 0.02400
C 	C 	0.84730 0.57760 0.09220 -0.09400
C 	C 	0.87280 0.46150 0.19170 0.02300
C 	C 	0.78640 0.49220 0.17860 -0.09100
C 	C 	0.77210 0.55030 0.12830 0.02600
C 	C 	0.67750 0.58210 0.11710 0.07000
C 	C 	0.67138 0.60422 0.04762 -0.14000
C 	C 	0.58140 0.63000 0.04000 0.07400
C 	C 	0.58890 0.59200 0.17560 -0.14800
C 	C 	0.50220 0.61880 0.16360 0.08900
C 	C 	0.39030 0.38390 0.12710 0.32800
C 	C 	0.49450 0.37740 0.10260 -0.11000
C 	C 	0.57030 0.30820 0.08180 0.02600
C 	C 	0.66770 0.30000 0.06000 -0.10200
C 	C 	0.51740 0.43830 0.10010 0.03700
C 	C 	0.61580 0.42970 0.07790 -0.11100
C 	C 	0.69160 0.36130 0.05690 0.03300
C 	C 	0.79655 0.35348 0.03142 0.06800
C 	C 	0.86650 0.29210 0.04870 -0.14300
C 	C 	0.96440 0.28590 0.02030 0.07100
C 	C 	0.82740 0.40820 0.98860 -0.14000
C 	C 	0.92610 0.39850 0.96310 0.07400
C 	C 	0.21770 0.24770 0.17790 0.31500
C 	C 	0.23500 0.17050 0.16390 -0.09800
C 	C 	0.23730 0.15090 0.09850 0.03100
C 	C 	0.25560 0.07860 0.08560 -0.10500
C 	C 	0.25210 0.11600 0.21600 0.02600
C 	C 	0.27300 0.04280 0.20260 -0.10300
C 	C 	0.27420 0.02410 0.13730 0.03100
C 	C 	0.29480 0.94620 0.12360 0.07300
C 	C 	0.23500 0.92780 0.10000 -0.15600
C 	C 	0.25690 0.85450 0.08870 0.08700
C 	C 	0.37290 0.88770 0.13490 -0.14500
C 	C 	0.38990 0.81660 0.12100 0.08400
C 	C 	0.92970 0.60750 0.65890 0.33100
C 	C 	0.98590 0.61750 0.57850 -0.11000
C 	C 	0.96990 0.59640 0.52460 0.03200
C 	C 	0.02150 0.60740 0.45040 -0.10100
C 	C 	0.05130 0.65280 0.55840 0.03800
C 	C 	0.10180 0.66410 0.48490 -0.10600
C 	C 	0.08900 0.64030 0.42910 0.03600
C 	C 	0.14320 0.65270 0.35010 0.07000
C 	C 	0.16060 0.71770 0.32550 -0.14600
C 	C 	0.21710 0.72410 0.25330 0.09100
C 	C 	0.18500 0.59760 0.29660 -0.14500
C 	C 	0.24130 0.60950 0.22550 0.08000
C 	C 	0.66640 0.54520 0.82700 0.32100
C 	C 	0.59170 0.51110 0.84510 -0.09100
C 	C 	0.58630 0.45360 0.89440 0.02000
C 	C 	0.51710 0.42240 0.90780 -0.09000
C 	C 	0.52600 0.53850 0.80830 0.01800
C 	C 	0.45720 0.50780 0.82140 -0.08700
C 	C 	0.45070 0.44970 0.87170 0.02400
C 	C 	0.37670 0.41790 0.88290 0.07100
C 	C 	0.32322 0.39578 0.95238 -0.14000
C 	C 	0.25140 0.37000 0.96000 0.07200
C 	C 	0.35650 0.40800 0.82440 -0.14800
C 	C 	0.28460 0.38120 0.83640 0.09000
C 	C 	0.90130 0.61610 0.87290 0.32800
C 	C 	0.97450 0.62260 0.89740 -0.11200
C 	C 	0.96030 0.69180 0.91820 0.02100
C 	C 	0.02770 0.70000 0.94000 -0.09600
C 	C 	0.05580 0.56170 0.89990 0.04000
C 	C 	0.12340 0.57030 0.92210 -0.11100
C 	C 	0.10980 0.63870 0.94310 0.03000
C 	C 	0.18145 0.64652 0.96858 0.07100
C 	C 	0.20730 0.70790 0.95130 -0.14800
C 	C 	0.27060 0.71410 0.97970 0.08000
C 	C 	0.22420 0.59180 0.01140 -0.14200
C 	C 	0.28770 0.60150 0.03690 0.07500
C 	C 	0.64330 0.75230 0.82210 0.31500
C 	C 	0.56940 0.82950 0.83610 -0.09900
C 	C 	0.48670 0.84910 0.90150 0.03200
C 	C 	0.41980 0.92140 0.91440 -0.10600
C 	C 	0.58410 0.88400 0.78400 0.02600
C 	C 	0.51840 0.95720 0.79740 -0.10400
C 	C 	0.43560 0.97590 0.86270 0.03300
C 	C 	0.36460 0.05380 0.87640 0.07100
C 	C 	0.26280 0.07220 0.90000 -0.15500
C 	C 	0.20010 0.14550 0.91130 0.08600
C 	C 	0.39550 0.11230 0.86510 -0.14300
C 	C 	0.32750 0.18340 0.87900 0.08300
N 	N 	0.13222 0.32812 0.79804 -0.22600
N 	N 	0.49568 0.63684 0.09780 -0.24500
N 	N 	0.99550 0.33743 0.97697 -0.24600
N 	N 	0.33377 0.79802 0.09744 -0.23900
N 	N 	0.25838 0.67188 0.20196 -0.22600
N 	N 	0.23032 0.36316 0.90220 -0.24500
N 	N 	0.30990 0.66257 0.02303 -0.24700
N 	N 	0.22923 0.20198 0.90256 -0.23800
O 	O 	0.27830 0.35970 0.29310 -0.40000
O 	O 	0.12441 0.43219 0.32239 -0.41600
O 	O 	0.03960 0.40966 0.22554 -0.40200
O 	O 	0.11330 0.47228 0.13672 -0.41400
O 	O 	0.31912 0.44527 0.14749 -0.41300
O 	O 	0.37358 0.32712 0.12732 -0.41400
O 	O 	0.21352 0.29599 0.12617 -0.39400
O 	O 	0.21021 0.26448 0.23970 -0.40900
O 	O 	0.93110 0.64030 0.70690 -0.40100
O 	O 	0.87899 0.56781 0.67761 -0.41700
O 	O 	0.67480 0.59034 0.77446 -0.40200
O 	O 	0.72230 0.52772 0.86328 -0.41400
O 	O 	0.91188 0.55473 0.85251 -0.41400
O 	O 	0.82802 0.67288 0.87268 -0.41400
O 	O 	0.63568 0.70401 0.87383 -0.39400
O 	O 	0.71439 0.73552 0.76030 -0.40900
Er	Er	0.59240 0.20189 0.61722 1.74800
Er	Er	0.41151 0.79811 0.38278 1.74800
Cu	Cu	0.54894 0.09070 0.31376 0.84900
Cu	Cu	0.95340 0.90930 0.68624 0.84700
H 	H 	0.50190 0.46270 0.57430 0.03300
H 	H 	0.39840 0.58590 0.59190 0.07600
H 	H 	0.26910 0.40510 0.66930 0.03500
H 	H 	0.16620 0.52750 0.68830 0.07300
H 	H 	0.10950 0.64160 0.75680 0.09000
H 	H 	0.00400 0.76140 0.76840 -0.00700
H 	H 	0.27220 0.69080 0.55320 0.08300
H 	H 	0.15890 0.80880 0.57140 -0.00300
H 	H 	0.93490 0.08080 0.43520 0.04000
H 	H 	0.10190 0.05890 0.38310 0.06300
H 	H 	0.89370 0.22510 0.57750 0.04600
H 	H 	0.05970 0.20380 0.52640 0.06100
H 	H 	0.26530 0.00630 0.39850 0.07800
H 	H 	0.42760 0.99290 0.35650 -0.00400
H 	H 	0.18850 0.22370 0.41950 0.09200
H 	H 	0.35150 0.20460 0.37520 -0.01300
H 	H 	0.36220 0.08270 0.73290 0.03700
H 	H 	0.23500 0.04740 0.74680 0.06300
H 	H 	0.41940 0.11330 0.51510 0.01500
H 	H 	0.29200 0.07700 0.52920 0.07300
H 	H 	0.07290 0.07900 0.74500 0.08000
H 	H 	0.95720 0.03220 0.75620 -0.02000
H 	H 	0.24110 0.97680 0.54880 0.09000
H 	H 	0.11970 0.93480 0.56380 -0.00600
H 	H 	0.71080 0.06280 0.81300 0.02400
H 	H 	0.70280 0.04200 0.93340 0.06800
H 	H 	0.49000 0.26050 0.87150 0.03900
H 	H 	0.47630 0.23740 0.99380 0.07700
H 	H 	0.72730 0.09190 0.03510 0.07800
H 	H 	0.71100 0.07380 0.15640 -0.02100
H 	H 	0.43380 0.15220 0.10340 0.09100
H 	H 	0.42790 0.12820 0.22140 -0.00700
H 	H 	0.53890 0.53730 0.42570 0.03300
H 	H 	0.57620 0.41410 0.40810 0.07600
H 	H 	0.34350 0.59490 0.33070 0.03500
H 	H 	0.38200 0.47250 0.31170 0.07200
H 	H 	0.50790 0.35840 0.24320 0.08900
H 	H 	0.53380 0.23860 0.23160 -0.00800
H 	H 	0.51620 0.30920 0.44680 0.08300
H 	H 	0.53910 0.19120 0.42860 -0.00300
H 	H 	0.45090 0.91920 0.56480 0.03800
H 	H 	0.54390 0.94110 0.61690 0.06700
H 	H 	0.69630 0.77490 0.42250 0.04300
H 	H 	0.78990 0.79620 0.47360 0.06300
H 	H 	0.67010 0.99370 0.60150 0.07600
H 	H 	0.77700 0.00710 0.64350 -0.00200
H 	H 	0.83170 0.77630 0.58050 0.09000
H 	H 	0.93130 0.79540 0.62480 -0.01300
H 	H 	0.17780 0.91730 0.26710 0.03700
H 	H 	0.02920 0.95260 0.25320 0.06300
H 	H 	0.04780 0.88670 0.48490 0.01300
H 	H 	0.89820 0.92300 0.47080 0.07400
H 	H 	0.89690 0.92100 0.25500 0.07800
H 	H 	0.74560 0.96780 0.24380 -0.01900
H 	H 	0.76670 0.02320 0.45120 0.09000
H 	H 	0.61830 0.06520 0.43620 -0.00600
H 	H 	0.58660 0.93720 0.18700 0.02400
H 	H 	0.67820 0.95800 0.06660 0.06800
H 	H 	0.62200 0.73950 0.12850 0.03900
H 	H 	0.70750 0.76260 0.00620 0.07700
H 	H 	0.85430 0.90810 0.96490 0.07800
H 	H 	0.94120 0.92620 0.84360 -0.02200
H 	H 	0.68940 0.84780 0.89660 0.09100
H 	H 	0.77750 0.87180 0.77860 -0.00700
C 	C 	0.46280 0.34110 0.60750 0.33100
C 	C 	0.39660 0.42150 0.61750 -0.10700
C 	C 	0.43370 0.47540 0.59640 0.03800
C 	C 	0.37110 0.54960 0.60740 -0.10800
C 	C 	0.29590 0.44160 0.65280 0.03300
C 	C 	0.23410 0.51510 0.66410 -0.10600
C 	C 	0.27070 0.57090 0.64030 0.03800
C 	C 	0.20410 0.64990 0.65270 0.06900
C 	C 	0.12170 0.67450 0.71770 -0.14500
C 	C 	0.05880 0.74670 0.72410 0.09100
C 	C 	0.21740 0.70340 0.59760 -0.14500
C 	C 	0.14920 0.77450 0.60950 0.07900
C 	C 	0.78840 0.17300 0.54520 0.31800
C 	C 	0.89720 0.15490 0.51110 -0.08400
C 	C 	0.96010 0.10560 0.45360 0.01000
C 	C 	0.06050 0.09220 0.42240 -0.08000
C 	C 	0.93550 0.19170 0.53850 0.00800
C 	C 	0.03500 0.17860 0.50780 -0.07700
C 	C 	0.09960 0.12830 0.44970 0.01700
C 	C 	0.20540 0.11710 0.41790 0.07500
C 	C 	0.28100 0.04762 0.39578 -0.14300
C 	C 	0.37860 0.04000 0.37000 0.07500
C 	C 	0.23550 0.17560 0.40800 -0.15100
C 	C 	0.33420 0.16360 0.38120 0.09100
C 	C 	0.48260 0.12710 0.61610 0.32800
C 	C 	0.40290 0.10260 0.62260 -0.11000
C 	C 	0.34790 0.08180 0.69180 0.02600
C 	C 	0.27230 0.06000 0.70000 -0.10100
C 	C 	0.38250 0.10010 0.56170 0.03600
C 	C 	0.30630 0.07790 0.57030 -0.11000
C 	C 	0.25150 0.05690 0.63870 0.03100
C 	C 	0.17203 0.03142 0.64652 0.07100
C 	C 	0.08480 0.04870 0.70790 -0.14900
C 	C 	0.01530 0.02030 0.71410 0.08200
C 	C 	0.18400 0.98860 0.59180 -0.14100
C 	C 	0.11080 0.96310 0.60150 0.07500
C 	C 	0.60440 0.17790 0.75230 0.31500
C 	C 	0.60110 0.16390 0.82950 -0.09900
C 	C 	0.66420 0.09850 0.84910 0.03200
C 	C 	0.65880 0.08560 0.92140 -0.10600
C 	C 	0.53190 0.21600 0.88400 0.02600
C 	C 	0.52440 0.20260 0.95720 -0.10400
C 	C 	0.58850 0.13730 0.97590 0.03200
C 	C 	0.58160 0.12360 0.05380 0.07100
C 	C 	0.66500 0.10000 0.07220 -0.15500
C 	C 	0.65440 0.08870 0.14550 0.08600
C 	C 	0.49220 0.13490 0.11230 -0.14300
C 	C 	0.48910 0.12100 0.18340 0.08300
C 	C 	0.41140 0.65890 0.39250 0.33100
C 	C 	0.43560 0.57850 0.38250 -0.10700
C 	C 	0.50550 0.52460 0.40360 0.03800
C 	C 	0.52810 0.45040 0.39260 -0.10700
C 	C 	0.39030 0.55840 0.34720 0.03300
C 	C 	0.41330 0.48490 0.33590 -0.10600
C 	C 	0.48190 0.42910 0.35970 0.03800
C 	C 	0.50670 0.35010 0.34730 0.06900
C 	C 	0.51390 0.32550 0.28230 -0.14600
C 	C 	0.52960 0.25330 0.27590 0.09100
C 	C 	0.51840 0.29660 0.40240 -0.14500
C 	C 	0.53320 0.22550 0.39050 0.07900
C 	C 	0.50660 0.82700 0.45480 0.32100
C 	C 	0.56320 0.84510 0.48890 -0.09100
C 	C 	0.51930 0.89440 0.54640 0.02000
C 	C 	0.57510 0.90780 0.57760 -0.09000
C 	C 	0.66570 0.80830 0.46150 0.01800
C 	C 	0.72140 0.82140 0.49220 -0.08700
C 	C 	0.67760 0.87170 0.55030 0.02300
C 	C 	0.74040 0.88290 0.58210 0.07100
C 	C 	0.72440 0.95238 0.60422 -0.14000
C 	C 	0.78860 0.96000 0.63000 0.07100
C 	C 	0.81910 0.82440 0.59200 -0.14900
C 	C 	0.87900 0.83640 0.61880 0.09000
C 	C 	0.22580 0.87290 0.38390 0.32900
C 	C 	0.12810 0.89740 0.37740 -0.11100
C 	C 	0.12150 0.91820 0.30820 0.02500
C 	C 	0.03230 0.94000 0.30000 -0.09500
C 	C 	0.04430 0.89990 0.43830 0.04400
C 	C 	0.95450 0.92210 0.42970 -0.11800
C 	C 	0.94710 0.94310 0.36130 0.02800
C 	C 	0.84997 0.96858 0.35348 0.07000
C 	C 	0.84140 0.95130 0.29210 -0.14800
C 	C 	0.74970 0.97970 0.28590 0.07900
C 	C 	0.76440 0.01140 0.40820 -0.14100
C 	C 	0.67540 0.03690 0.39850 0.07500
C 	C 	0.53460 0.82210 0.24770 0.31500
C 	C 	0.59450 0.83610 0.17050 -0.09800
C 	C 	0.61180 0.90150 0.15090 0.03100
C 	C 	0.66580 0.91440 0.07860 -0.10500
C 	C 	0.63190 0.78400 0.11600 0.02600
C 	C 	0.68420 0.79740 0.04280 -0.10400
C 	C 	0.70170 0.86270 0.02410 0.03200
C 	C 	0.75900 0.87640 0.94620 0.07100
C 	C 	0.83720 0.90000 0.92780 -0.15600
C 	C 	0.88860 0.91130 0.85450 0.08600
C 	C 	0.73940 0.86510 0.88770 -0.14400
C 	C 	0.79350 0.87900 0.81660 0.08300
N 	N 	0.06974 0.79804 0.67188 -0.22500
N 	N 	0.40652 0.09780 0.36316 -0.24600
N 	N 	0.02753 0.97697 0.66257 -0.24500
N 	N 	0.56879 0.09744 0.20198 -0.23800
N 	N 	0.53966 0.20196 0.32812 -0.22600
N 	N 	0.86748 0.90220 0.63684 -0.24500
N 	N 	0.66707 0.02303 0.33743 -0.24600
N 	N 	0.86821 0.90256 0.79802 -0.23900
O 	O 	0.42860 0.29310 0.64030 -0.40000
O 	O 	0.55320 0.32239 0.56781 -0.41700
O 	O 	0.73486 0.22554 0.59034 -0.40100
O 	O 	0.74998 0.13672 0.52772 -0.41300
O 	O 	0.53339 0.14749 0.55473 -0.41300
O 	O 	0.49910 0.12732 0.67288 -0.41400
O 	O 	0.66031 0.12617 0.70401 -0.39400
O 	O 	0.55009 0.23970 0.73552 -0.40900
O 	O 	0.36200 0.70690 0.35970 -0.40000
O 	O 	0.44340 0.67761 0.43219 -0.41600
O 	O 	0.55074 0.77446 0.40966 -0.40200
O 	O 	0.41442 0.86328 0.47228 -0.41300
O 	O 	0.23561 0.85251 0.44527 -0.41300
O 	O 	0.29930 0.87268 0.32712 -0.41400
O 	O 	0.49049 0.87383 0.29599 -0.39400
O 	O 	0.52531 0.76030 0.26448 -0.40900
