data_crystal

_cell_length_a 9.36190
_cell_length_b 10.11580
_cell_length_c 12.64560
_cell_angle_alpha 98.48500
_cell_angle_beta  107.01800
_cell_angle_gamma 105.42400

_symmetry_space_group_name_	'P 1'
_symmetry_space_group_name_H-M	'P 1'

loop_
_symmetry_equiv_pos_as_xyz
  x,y,z

loop_
_atom_site_label
_atom_site_type_symbol
_atom_site_fract_x
_atom_site_fract_y
_atom_site_fract_z
_atom_site_charge
Ga	Ga	0.77725 0.09779 0.51184 2.08400
Ga	Ga	0.78445 0.60168 0.51664 2.08200
Ga	Ga	0.49811 0.20143 0.22769 2.07800
Ga	Ga	0.51244 0.69117 0.21973 2.07900
P 	P 	0.41700 0.95460 0.32450 0.68400
P 	P 	0.42290 0.46470 0.33500 0.66200
P 	P 	0.84080 0.33940 0.39230 0.63500
P 	P 	0.15500 0.16130 0.60440 0.64800
P 	P 	0.49570 0.18960 0.98290 0.56200
O 	O 	0.56080 0.05590 0.41980 -0.67200
O 	O 	0.26830 0.92610 0.35720 -0.57500
O 	O 	0.83040 0.28490 0.49800 -0.64100
O 	O 	0.99550 0.14160 0.61910 -0.49900
O 	O 	0.19090 0.02220 0.59840 -0.62500
O 	O 	0.56780 0.57030 0.42740 -0.65300
O 	O 	0.27280 0.45660 0.36410 -0.57300
O 	O 	0.82170 0.48640 0.40570 -0.62000
O 	O 	0.99660 0.34780 0.37330 -0.49300
O 	O 	0.16230 0.21200 0.49750 -0.65000
O 	O 	0.38440 0.02170 0.22120 -0.61800
O 	O 	0.43300 0.31530 0.31370 -0.67500
O 	O 	0.71070 0.23840 0.28360 -0.63900
O 	O 	0.44580 0.23150 0.08380 -0.59400
O 	O 	0.43050 0.80870 0.28610 -0.65900
O 	O 	0.40030 0.51560 0.22340 -0.62000
O 	O 	0.27580 0.26990 0.71340 -0.64300
O 	O 	0.53020 0.31840 0.93210 -0.58500
O 	O 	0.65900 0.16620 0.02840 -0.33700
O 	O 	0.37200 0.06060 0.89710 -0.32500
H 	H 	0.63600 0.07600 0.05500 0.18000
Ga	Ga	0.22275 0.90221 0.48816 2.08500
Ga	Ga	0.21555 0.39832 0.48336 2.08300
Ga	Ga	0.50189 0.79857 0.77231 2.07900
Ga	Ga	0.48756 0.30883 0.78027 2.08000
P 	P 	0.58300 0.04540 0.67550 0.68400
P 	P 	0.57710 0.53530 0.66500 0.66200
P 	P 	0.15920 0.66060 0.60770 0.63500
P 	P 	0.84500 0.83870 0.39560 0.64800
P 	P 	0.50430 0.81040 0.01710 0.56200
O 	O 	0.43920 0.94410 0.58020 -0.67200
O 	O 	0.73170 0.07390 0.64280 -0.57500
O 	O 	0.16960 0.71510 0.50200 -0.64100
O 	O 	0.00450 0.85840 0.38090 -0.49900
O 	O 	0.80910 0.97780 0.40160 -0.62500
O 	O 	0.43220 0.42970 0.57260 -0.65300
O 	O 	0.72720 0.54340 0.63590 -0.57300
O 	O 	0.17830 0.51360 0.59430 -0.62000
O 	O 	0.00340 0.65220 0.62670 -0.49300
O 	O 	0.83770 0.78800 0.50250 -0.65000
O 	O 	0.61560 0.97830 0.77880 -0.61800
O 	O 	0.56700 0.68470 0.68630 -0.67500
O 	O 	0.28930 0.76160 0.71640 -0.63900
O 	O 	0.55420 0.76850 0.91620 -0.59400
O 	O 	0.56950 0.19130 0.71390 -0.65900
O 	O 	0.59970 0.48440 0.77660 -0.62000
O 	O 	0.72420 0.73010 0.28660 -0.64300
O 	O 	0.46980 0.68160 0.06790 -0.58500
O 	O 	0.34100 0.83380 0.97160 -0.33700
O 	O 	0.62800 0.93940 0.10290 -0.32500
H 	H 	0.36400 0.92400 0.94500 0.18000
