data_crystal

_cell_length_a 18.18360
_cell_length_b 10.01260
_cell_length_c 20.05890
_cell_angle_alpha 90.00000
_cell_angle_beta  106.08000
_cell_angle_gamma 90.00000

_symmetry_space_group_name_	'P 1'
_symmetry_space_group_name_H-M	'P 1'

loop_
_symmetry_equiv_pos_as_xyz
  x,y,z

loop_
_atom_site_label
_atom_site_type_symbol
_atom_site_fract_x
_atom_site_fract_y
_atom_site_fract_z
_atom_site_charge
Fe	Fe	0.18740 0.57770 0.16120 1.31300
Fe	Fe	0.31070 0.31500 0.24000 1.31500
Fe	Fe	0.42430 0.42930 0.99780 1.31700
P 	P 	0.07900 0.82730 0.10690 0.54900
P 	P 	0.14130 0.27080 0.13200 0.53300
P 	P 	0.33370 0.48400 0.11460 0.52800
O 	O 	0.25180 0.53730 0.10100 -0.34600
O 	O 	0.10990 0.68630 0.09970 -0.32600
O 	O 	0.12320 0.41840 0.13880 -0.33000
O 	O 	0.26320 0.48710 0.23890 -0.37000
F 	F 	0.14530 0.63250 0.24120 -0.55000
F 	F 	0.24360 0.75160 0.19080 -0.55800
O 	O 	0.35510 0.36670 0.16590 -0.33800
O 	O 	0.22410 0.23830 0.16810 -0.33900
O 	O 	0.09680 0.86690 0.18430 -0.30600
O 	O 	0.34550 0.44750 0.04540 -0.33400
O 	O 	0.11690 0.93060 0.07080 -0.32500
O 	O 	0.12090 0.22840 0.05600 -0.33100
F 	F 	0.48990 0.58040 0.04810 -0.56400
O 	O 	0.99100 0.81960 0.07480 -0.29400
O 	O 	0.08790 0.19500 0.16970 -0.12200
O 	O 	0.38850 0.60280 0.14810 -0.12400
Fe	Fe	0.68740 0.07770 0.16120 1.31100
Fe	Fe	0.81070 0.81500 0.24000 1.31500
Fe	Fe	0.92430 0.92930 0.99780 1.31100
P 	P 	0.57900 0.32730 0.10690 0.55200
P 	P 	0.64130 0.77080 0.13200 0.53300
P 	P 	0.83370 0.98400 0.11460 0.53100
O 	O 	0.75180 0.03730 0.10100 -0.34700
O 	O 	0.60990 0.18630 0.09970 -0.32600
O 	O 	0.62320 0.91840 0.13880 -0.32800
O 	O 	0.76320 0.98710 0.23890 -0.36900
F 	F 	0.64530 0.13250 0.24120 -0.55000
F 	F 	0.74360 0.25160 0.19080 -0.55800
O 	O 	0.85510 0.86670 0.16590 -0.33700
O 	O 	0.72410 0.73830 0.16810 -0.33800
O 	O 	0.59680 0.36690 0.18430 -0.30500
O 	O 	0.84550 0.94750 0.04540 -0.32900
O 	O 	0.61690 0.43060 0.07080 -0.32500
O 	O 	0.62090 0.72840 0.05600 -0.32800
F 	F 	0.98990 0.08040 0.04810 -0.56200
O 	O 	0.49100 0.31960 0.07480 -0.30000
O 	O 	0.58790 0.69500 0.16970 -0.12000
O 	O 	0.88850 0.10280 0.14810 -0.12500
Fe	Fe	0.81260 0.57770 0.33880 1.31200
Fe	Fe	0.68930 0.31500 0.26000 1.31400
Fe	Fe	0.57570 0.42930 0.50220 1.31500
P 	P 	0.92100 0.82730 0.39310 0.55300
P 	P 	0.85870 0.27080 0.36800 0.53300
P 	P 	0.66630 0.48400 0.38540 0.52800
O 	O 	0.74820 0.53730 0.39900 -0.34600
O 	O 	0.89010 0.68630 0.40030 -0.32500
O 	O 	0.87680 0.41840 0.36120 -0.32900
O 	O 	0.73680 0.48710 0.26110 -0.37000
F 	F 	0.85470 0.63250 0.25880 -0.54900
F 	F 	0.75640 0.75160 0.30920 -0.55800
O 	O 	0.64490 0.36670 0.33410 -0.33700
O 	O 	0.77590 0.23830 0.33190 -0.33900
O 	O 	0.90320 0.86690 0.31570 -0.30500
O 	O 	0.65450 0.44750 0.45460 -0.33300
O 	O 	0.88310 0.93060 0.42920 -0.32500
O 	O 	0.87910 0.22840 0.44400 -0.32900
F 	F 	0.51010 0.58040 0.45190 -0.56400
O 	O 	0.00900 0.81960 0.42520 -0.30100
O 	O 	0.91210 0.19500 0.33030 -0.12000
O 	O 	0.61150 0.60280 0.35190 -0.12400
Fe	Fe	0.31260 0.07770 0.33880 1.31100
Fe	Fe	0.18930 0.81500 0.26000 1.31400
Fe	Fe	0.07570 0.92930 0.50220 1.31500
P 	P 	0.42100 0.32730 0.39310 0.55200
P 	P 	0.35870 0.77080 0.36800 0.53300
P 	P 	0.16630 0.98400 0.38540 0.52900
O 	O 	0.24820 0.03730 0.39900 -0.34600
O 	O 	0.39010 0.18630 0.40030 -0.32500
O 	O 	0.37680 0.91840 0.36120 -0.32800
O 	O 	0.23680 0.98710 0.26110 -0.36900
F 	F 	0.35470 0.13250 0.25880 -0.55000
F 	F 	0.25640 0.25160 0.30920 -0.55900
O 	O 	0.14490 0.86670 0.33410 -0.33800
O 	O 	0.27590 0.73830 0.33190 -0.33900
O 	O 	0.40320 0.36690 0.31570 -0.30500
O 	O 	0.15450 0.94750 0.45460 -0.33300
O 	O 	0.38310 0.43060 0.42920 -0.32600
O 	O 	0.37910 0.72840 0.44400 -0.32900
F 	F 	0.01010 0.08040 0.45190 -0.56500
O 	O 	0.50900 0.31960 0.42520 -0.29900
O 	O 	0.41210 0.69500 0.33030 -0.12000
O 	O 	0.11150 0.10280 0.35190 -0.12600
Fe	Fe	0.81260 0.42230 0.83880 1.31200
Fe	Fe	0.68930 0.68500 0.76000 1.31400
Fe	Fe	0.57570 0.57070 0.00220 1.31600
P 	P 	0.92100 0.17270 0.89310 0.54800
P 	P 	0.85870 0.72920 0.86800 0.53300
P 	P 	0.66630 0.51600 0.88540 0.52800
O 	O 	0.74820 0.46270 0.89900 -0.34600
O 	O 	0.89010 0.31370 0.90030 -0.32600
O 	O 	0.87680 0.58160 0.86120 -0.33000
O 	O 	0.73680 0.51290 0.76110 -0.37000
F 	F 	0.85470 0.36750 0.75880 -0.55000
F 	F 	0.75640 0.24840 0.80920 -0.55800
O 	O 	0.64490 0.63330 0.83410 -0.33800
O 	O 	0.77590 0.76170 0.83190 -0.33900
O 	O 	0.90320 0.13310 0.81570 -0.30600
O 	O 	0.65450 0.55250 0.95460 -0.33400
O 	O 	0.88310 0.06940 0.92920 -0.32500
O 	O 	0.87910 0.77160 0.94400 -0.33100
F 	F 	0.51010 0.41960 0.95190 -0.56400
O 	O 	0.00900 0.18040 0.92520 -0.29400
O 	O 	0.91210 0.80500 0.83030 -0.12200
O 	O 	0.61150 0.39720 0.85190 -0.12400
Fe	Fe	0.31260 0.92230 0.83880 1.31100
Fe	Fe	0.18930 0.18500 0.76000 1.31500
Fe	Fe	0.07570 0.07070 0.00220 1.31100
P 	P 	0.42100 0.67270 0.89310 0.55200
P 	P 	0.35870 0.22920 0.86800 0.53300
P 	P 	0.16630 0.01600 0.88540 0.53100
O 	O 	0.24820 0.96270 0.89900 -0.34700
O 	O 	0.39010 0.81370 0.90030 -0.32600
O 	O 	0.37680 0.08160 0.86120 -0.32800
O 	O 	0.23680 0.01290 0.76110 -0.36900
F 	F 	0.35470 0.86750 0.75880 -0.55000
F 	F 	0.25640 0.74840 0.80920 -0.55800
O 	O 	0.14490 0.13330 0.83410 -0.33700
O 	O 	0.27590 0.26170 0.83190 -0.33800
O 	O 	0.40320 0.63310 0.81570 -0.30500
O 	O 	0.15450 0.05250 0.95460 -0.32900
O 	O 	0.38310 0.56940 0.92920 -0.32500
O 	O 	0.37910 0.27160 0.94400 -0.32800
F 	F 	0.01010 0.91960 0.95190 -0.56200
O 	O 	0.50900 0.68040 0.92520 -0.30000
O 	O 	0.41210 0.30500 0.83030 -0.12000
O 	O 	0.11150 0.89720 0.85190 -0.12500
Fe	Fe	0.18740 0.42230 0.66120 1.31200
Fe	Fe	0.31070 0.68500 0.74000 1.31400
Fe	Fe	0.42430 0.57070 0.49780 1.31500
P 	P 	0.07900 0.17270 0.60690 0.55300
P 	P 	0.14130 0.72920 0.63200 0.53300
P 	P 	0.33370 0.51600 0.61460 0.52800
O 	O 	0.25180 0.46270 0.60100 -0.34600
O 	O 	0.10990 0.31370 0.59970 -0.32500
O 	O 	0.12320 0.58160 0.63880 -0.32900
O 	O 	0.26320 0.51290 0.73890 -0.37000
F 	F 	0.14530 0.36750 0.74120 -0.54900
F 	F 	0.24360 0.24840 0.69080 -0.55800
O 	O 	0.35510 0.63330 0.66590 -0.33700
O 	O 	0.22410 0.76170 0.66810 -0.33900
O 	O 	0.09680 0.13310 0.68430 -0.30500
O 	O 	0.34550 0.55250 0.54540 -0.33300
O 	O 	0.11690 0.06940 0.57080 -0.32500
O 	O 	0.12090 0.77160 0.55600 -0.32900
F 	F 	0.48990 0.41960 0.54810 -0.56400
O 	O 	0.99100 0.18040 0.57480 -0.30100
O 	O 	0.08790 0.80500 0.66970 -0.12000
O 	O 	0.38850 0.39720 0.64810 -0.12400
Fe	Fe	0.68740 0.92230 0.66120 1.31100
Fe	Fe	0.81070 0.18500 0.74000 1.31400
Fe	Fe	0.92430 0.07070 0.49780 1.31500
P 	P 	0.57900 0.67270 0.60690 0.55200
P 	P 	0.64130 0.22920 0.63200 0.53300
P 	P 	0.83370 0.01600 0.61460 0.52900
O 	O 	0.75180 0.96270 0.60100 -0.34600
O 	O 	0.60990 0.81370 0.59970 -0.32500
O 	O 	0.62320 0.08160 0.63880 -0.32800
O 	O 	0.76320 0.01290 0.73890 -0.36900
F 	F 	0.64530 0.86750 0.74120 -0.55000
F 	F 	0.74360 0.74840 0.69080 -0.55900
O 	O 	0.85510 0.13330 0.66590 -0.33800
O 	O 	0.72410 0.26170 0.66810 -0.33900
O 	O 	0.59680 0.63310 0.68430 -0.30500
O 	O 	0.84550 0.05250 0.54540 -0.33300
O 	O 	0.61690 0.56940 0.57080 -0.32600
O 	O 	0.62090 0.27160 0.55600 -0.32900
F 	F 	0.98990 0.91960 0.54810 -0.56500
O 	O 	0.49100 0.68040 0.57480 -0.29900
O 	O 	0.58790 0.30500 0.66970 -0.12000
O 	O 	0.88850 0.89720 0.64810 -0.12600
