data_crystal

_cell_length_a 20.02990
_cell_length_b 17.22610
_cell_length_c 15.82210
_cell_angle_alpha 90.00000
_cell_angle_beta  125.91900
_cell_angle_gamma 90.00000

_symmetry_space_group_name_	'P 1'
_symmetry_space_group_name_H-M	'P 1'

loop_
_symmetry_equiv_pos_as_xyz
  x,y,z

loop_
_atom_site_label
_atom_site_type_symbol
_atom_site_fract_x
_atom_site_fract_y
_atom_site_fract_z
_atom_site_charge
N 	N 	0.43760 0.09700 0.59000 -0.18500
C 	C 	0.36010 0.89090 0.55500 -0.84100
H 	H 	0.31990 0.92680 0.50790 0.29000
C 	C 	0.33580 0.82840 0.58440 0.92500
H 	H 	0.28010 0.82240 0.55800 -0.28700
C 	C 	0.39270 0.77460 0.65200 -0.12400
C 	C 	0.46920 0.77060 0.66270 -0.02800
H 	H 	0.50400 0.72700 0.68960 0.00100
C 	C 	0.48650 0.83650 0.62990 0.11100
H 	H 	0.53570 0.83680 0.63490 -0.04300
C 	C 	0.39630 0.59510 0.78460 0.08200
H 	H 	0.43600 0.55950 0.83330 -0.02400
C 	C 	0.42090 0.65510 0.75320 -0.18800
H 	H 	0.47670 0.66020 0.77960 0.08500
C 	C 	0.36560 0.70710 0.68470 0.14000
C 	C 	0.28510 0.69680 0.64530 -0.17600
H 	H 	0.24550 0.73290 0.59760 0.09200
C 	C 	0.26150 0.63390 0.67500 0.05500
H 	H 	0.20520 0.62500 0.64330 0.09600
N 	N 	0.31770 0.58490 0.74840 -0.28700
C 	C 	0.22140 0.35000 0.82100 5.37500
N 	N 	0.26690 0.41430 0.88260 0.20000
C 	C 	0.19740 0.09060 0.02060 -1.95300
C 	C 	0.20490 0.15430 0.97190 2.22800
C 	C 	0.21290 0.28740 0.86840 -4.86800
H 	H 	0.17880 0.24590 0.82690 1.67100
H 	H 	0.32090 0.34700 0.10040 -0.61500
C 	C 	0.25270 0.28420 0.97440 -0.04200
H 	H 	0.19740 0.34950 0.74910 -1.86700
H 	H 	0.33620 0.45100 0.02150 0.45700
C 	C 	0.39560 0.08220 0.63840 0.74300
H 	H 	0.38660 0.03130 0.65090 -0.24200
C 	C 	0.36980 0.14410 0.66520 -0.84800
H 	H 	0.33840 0.13710 0.69130 0.31400
C 	C 	0.44240 0.22670 0.62400 -0.01500
H 	H 	0.46510 0.27470 0.62480 0.02900
C 	C 	0.46400 0.16030 0.59250 -0.09200
H 	H 	0.49990 0.16590 0.57300 0.03300
C 	C 	0.34110 0.38570 0.97120 1.72100
H 	H 	0.39280 0.40810 0.99830 -0.61600
C 	C 	0.33060 0.31960 0.01590 -2.04800
H 	H 	0.37760 0.29790 0.07640 0.72200
C 	C 	0.18740 0.32840 0.90300 4.69900
H 	H 	0.13540 0.31840 0.88860 -1.55700
C 	C 	0.19650 0.38940 0.85100 -5.32500
H 	H 	0.14930 0.41190 0.79200 1.75300
N 	N 	0.93760 0.59700 0.59000 -0.17700
C 	C 	0.86010 0.39090 0.55500 -0.81000
H 	H 	0.81990 0.42680 0.50790 0.26700
C 	C 	0.83580 0.32840 0.58440 0.89600
H 	H 	0.78010 0.32240 0.55800 -0.27900
C 	C 	0.89270 0.27460 0.65200 -0.11900
C 	C 	0.96920 0.27060 0.66270 -0.02800
H 	H 	0.00400 0.22700 0.68960 -0.00000
C 	C 	0.98650 0.33650 0.62990 0.11200
H 	H 	0.03570 0.33680 0.63490 -0.04700
C 	C 	0.89630 0.09510 0.78460 0.07700
H 	H 	0.93600 0.05950 0.83330 -0.03700
C 	C 	0.92090 0.15510 0.75320 -0.19000
H 	H 	0.97670 0.16020 0.77960 0.08200
C 	C 	0.86560 0.20710 0.68470 0.13400
C 	C 	0.78510 0.19680 0.64530 -0.17400
H 	H 	0.74550 0.23290 0.59760 0.08900
C 	C 	0.76150 0.13390 0.67500 0.05000
H 	H 	0.70520 0.12500 0.64330 0.09700
N 	N 	0.81770 0.08490 0.74840 -0.29300
C 	C 	0.72140 0.85000 0.82100 5.65100
N 	N 	0.76690 0.91430 0.88260 0.23700
C 	C 	0.69740 0.59060 0.02060 -1.90100
C 	C 	0.70490 0.65430 0.97190 2.18200
C 	C 	0.71290 0.78740 0.86840 -5.10900
H 	H 	0.67880 0.74590 0.82690 1.75500
H 	H 	0.82090 0.84700 0.10040 -0.64300
C 	C 	0.75270 0.78420 0.97440 -0.06600
H 	H 	0.69740 0.84950 0.74910 -1.95800
H 	H 	0.83620 0.95100 0.02150 0.50200
C 	C 	0.89560 0.58220 0.63840 0.78600
H 	H 	0.88660 0.53130 0.65090 -0.23100
C 	C 	0.86980 0.64410 0.66520 -0.89200
H 	H 	0.83840 0.63710 0.69130 0.33500
C 	C 	0.94240 0.72670 0.62400 -0.01400
H 	H 	0.96510 0.77470 0.62480 0.03100
C 	C 	0.96400 0.66030 0.59250 -0.09300
H 	H 	0.99990 0.66590 0.57300 0.03300
C 	C 	0.84110 0.88570 0.97120 1.80700
H 	H 	0.89280 0.90810 0.99830 -0.63800
C 	C 	0.83060 0.81960 0.01590 -2.13800
H 	H 	0.87760 0.79790 0.07640 0.75300
C 	C 	0.68740 0.82840 0.90300 4.95400
H 	H 	0.63540 0.81840 0.88860 -1.64100
C 	C 	0.69650 0.88940 0.85100 -5.60800
H 	H 	0.64930 0.91190 0.79200 1.85900
N 	N 	0.56240 0.09700 0.41000 -0.18400
C 	C 	0.63990 0.89090 0.44500 -0.84000
H 	H 	0.68010 0.92680 0.49210 0.29100
C 	C 	0.66420 0.82840 0.41560 0.92600
H 	H 	0.71990 0.82240 0.44200 -0.28600
C 	C 	0.60730 0.77460 0.34800 -0.12300
C 	C 	0.53080 0.77060 0.33730 -0.02800
H 	H 	0.49600 0.72700 0.31040 0.00100
C 	C 	0.51350 0.83650 0.37010 0.11100
H 	H 	0.46430 0.83680 0.36510 -0.04300
C 	C 	0.60370 0.59510 0.21540 0.08200
H 	H 	0.56400 0.55950 0.16670 -0.02400
C 	C 	0.57910 0.65510 0.24680 -0.18800
H 	H 	0.52330 0.66020 0.22040 0.08500
C 	C 	0.63440 0.70710 0.31530 0.14000
C 	C 	0.71490 0.69680 0.35470 -0.17600
H 	H 	0.75450 0.73290 0.40240 0.09200
C 	C 	0.73850 0.63390 0.32500 0.05500
H 	H 	0.79480 0.62500 0.35670 0.09600
N 	N 	0.68230 0.58490 0.25160 -0.28700
C 	C 	0.77860 0.35000 0.17900 5.37500
N 	N 	0.73310 0.41430 0.11740 0.20000
C 	C 	0.80260 0.09060 0.97940 -1.95300
C 	C 	0.79510 0.15430 0.02810 2.22800
C 	C 	0.78710 0.28740 0.13160 -4.86800
H 	H 	0.82120 0.24590 0.17310 1.67100
H 	H 	0.67910 0.34700 0.89960 -0.61500
C 	C 	0.74730 0.28420 0.02560 -0.04200
H 	H 	0.80260 0.34950 0.25090 -1.86700
H 	H 	0.66380 0.45100 0.97850 0.45700
C 	C 	0.60440 0.08220 0.36160 0.74300
H 	H 	0.61340 0.03130 0.34910 -0.24200
C 	C 	0.63020 0.14410 0.33480 -0.84800
H 	H 	0.66160 0.13710 0.30870 0.31400
C 	C 	0.55760 0.22670 0.37600 -0.01500
H 	H 	0.53490 0.27470 0.37520 0.02900
C 	C 	0.53600 0.16030 0.40750 -0.09200
H 	H 	0.50010 0.16590 0.42700 0.03300
C 	C 	0.65890 0.38570 0.02880 1.72100
H 	H 	0.60720 0.40810 0.00170 -0.61600
C 	C 	0.66940 0.31960 0.98410 -2.04800
H 	H 	0.62240 0.29790 0.92360 0.72200
C 	C 	0.81260 0.32840 0.09700 4.69900
H 	H 	0.86460 0.31840 0.11140 -1.55700
C 	C 	0.80350 0.38940 0.14900 -5.32500
H 	H 	0.85070 0.41190 0.20800 1.75300
N 	N 	0.06240 0.59700 0.41000 -0.17700
C 	C 	0.13990 0.39090 0.44500 -0.81000
H 	H 	0.18010 0.42680 0.49210 0.26700
C 	C 	0.16420 0.32840 0.41560 0.89600
H 	H 	0.21990 0.32240 0.44200 -0.27900
C 	C 	0.10730 0.27460 0.34800 -0.11900
C 	C 	0.03080 0.27060 0.33730 -0.02800
H 	H 	0.99600 0.22700 0.31040 -0.00000
C 	C 	0.01350 0.33650 0.37010 0.11200
H 	H 	0.96430 0.33680 0.36510 -0.04700
C 	C 	0.10370 0.09510 0.21540 0.07700
H 	H 	0.06400 0.05950 0.16670 -0.03700
C 	C 	0.07910 0.15510 0.24680 -0.19000
H 	H 	0.02330 0.16020 0.22040 0.08200
C 	C 	0.13440 0.20710 0.31530 0.13400
C 	C 	0.21490 0.19680 0.35470 -0.17400
H 	H 	0.25450 0.23290 0.40240 0.08900
C 	C 	0.23850 0.13390 0.32500 0.05000
H 	H 	0.29480 0.12500 0.35670 0.09700
N 	N 	0.18230 0.08490 0.25160 -0.29300
C 	C 	0.27860 0.85000 0.17900 5.65100
N 	N 	0.23310 0.91430 0.11740 0.23700
C 	C 	0.30260 0.59060 0.97940 -1.90100
C 	C 	0.29510 0.65430 0.02810 2.18200
C 	C 	0.28710 0.78740 0.13160 -5.10900
H 	H 	0.32120 0.74590 0.17310 1.75500
H 	H 	0.17910 0.84700 0.89960 -0.64300
C 	C 	0.24730 0.78420 0.02560 -0.06600
H 	H 	0.30260 0.84950 0.25090 -1.95800
H 	H 	0.16380 0.95100 0.97850 0.50200
C 	C 	0.10440 0.58220 0.36160 0.78600
H 	H 	0.11340 0.53130 0.34910 -0.23100
C 	C 	0.13020 0.64410 0.33480 -0.89200
H 	H 	0.16160 0.63710 0.30870 0.33500
C 	C 	0.05760 0.72670 0.37600 -0.01400
H 	H 	0.03490 0.77470 0.37520 0.03100
C 	C 	0.03600 0.66030 0.40750 -0.09300
H 	H 	0.00010 0.66590 0.42700 0.03300
C 	C 	0.15890 0.88570 0.02880 1.80700
H 	H 	0.10720 0.90810 0.00170 -0.63800
C 	C 	0.16940 0.81960 0.98410 -2.13800
H 	H 	0.12240 0.79790 0.92360 0.75300
C 	C 	0.31260 0.82840 0.09700 4.95400
H 	H 	0.36460 0.81840 0.11140 -1.64100
C 	C 	0.30350 0.88940 0.14900 -5.60800
H 	H 	0.35070 0.91190 0.20800 1.85900
N 	N 	0.56240 0.90300 0.41000 -0.16000
C 	C 	0.63990 0.10910 0.44500 -0.76400
H 	H 	0.68010 0.07320 0.49210 0.24300
C 	C 	0.66420 0.17160 0.41560 0.84800
H 	H 	0.71990 0.17760 0.44200 -0.26500
C 	C 	0.60730 0.22540 0.34800 -0.11000
C 	C 	0.53080 0.22940 0.33730 -0.02800
H 	H 	0.49600 0.27300 0.31040 -0.00200
C 	C 	0.51350 0.16350 0.37010 0.11300
H 	H 	0.46430 0.16320 0.36510 -0.05100
C 	C 	0.60370 0.40490 0.21540 0.08200
H 	H 	0.56400 0.44050 0.16670 -0.02400
C 	C 	0.57910 0.34490 0.24680 -0.18500
H 	H 	0.52330 0.33980 0.22040 0.08400
C 	C 	0.63440 0.29290 0.31530 0.13300
C 	C 	0.71490 0.30320 0.35470 -0.17300
H 	H 	0.75450 0.26710 0.40240 0.08600
C 	C 	0.73850 0.36610 0.32500 0.05500
H 	H 	0.79480 0.37500 0.35670 0.08400
N 	N 	0.68230 0.41510 0.25160 -0.27900
C 	C 	0.77860 0.65000 0.17900 6.16800
N 	N 	0.73310 0.58570 0.11740 0.26100
C 	C 	0.80260 0.90940 0.97940 -1.71600
C 	C 	0.79510 0.84570 0.02810 2.01400
C 	C 	0.78710 0.71260 0.13160 -5.55400
H 	H 	0.82120 0.75410 0.17310 1.90900
H 	H 	0.67910 0.65300 0.89960 -0.70000
C 	C 	0.74730 0.71580 0.02560 -0.09300
H 	H 	0.80260 0.65050 0.25090 -2.14400
H 	H 	0.66380 0.54900 0.97850 0.53800
C 	C 	0.60440 0.91780 0.36160 0.80300
H 	H 	0.61340 0.96870 0.34910 -0.20900
C 	C 	0.63020 0.85590 0.33480 -0.90600
H 	H 	0.66160 0.86290 0.30870 0.34700
C 	C 	0.55760 0.77330 0.37600 -0.01000
H 	H 	0.53490 0.72530 0.37520 0.02700
C 	C 	0.53600 0.83970 0.40750 -0.09200
H 	H 	0.50010 0.83410 0.42700 0.03500
C 	C 	0.65890 0.61430 0.02880 1.99400
H 	H 	0.60720 0.59190 0.00170 -0.71300
C 	C 	0.66940 0.68040 0.98410 -2.30400
H 	H 	0.62240 0.70210 0.92360 0.80600
C 	C 	0.81260 0.67160 0.09700 5.40600
H 	H 	0.86460 0.68160 0.11140 -1.80100
C 	C 	0.80350 0.61060 0.14900 -6.13000
H 	H 	0.85070 0.58810 0.20800 2.01100
N 	N 	0.06240 0.40300 0.41000 -0.17600
C 	C 	0.13990 0.60910 0.44500 -0.81400
H 	H 	0.18010 0.57320 0.49210 0.26900
C 	C 	0.16420 0.67160 0.41560 0.90200
H 	H 	0.21990 0.67760 0.44200 -0.28100
C 	C 	0.10730 0.72540 0.34800 -0.11600
C 	C 	0.03080 0.72940 0.33730 -0.02800
H 	H 	0.99600 0.77300 0.31040 0.00100
C 	C 	0.01350 0.66350 0.37010 0.11400
H 	H 	0.96430 0.66320 0.36510 -0.04900
C 	C 	0.10370 0.90490 0.21540 0.08300
H 	H 	0.06400 0.94050 0.16670 -0.00800
C 	C 	0.07910 0.84490 0.24680 -0.18000
H 	H 	0.02330 0.83980 0.22040 0.08700
C 	C 	0.13440 0.79290 0.31530 0.13600
C 	C 	0.21490 0.80320 0.35470 -0.17100
H 	H 	0.25450 0.76710 0.40240 0.08800
C 	C 	0.23850 0.86610 0.32500 0.05500
H 	H 	0.29480 0.87500 0.35670 0.09800
N 	N 	0.18230 0.91510 0.25160 -0.26700
C 	C 	0.27860 0.15000 0.17900 6.30200
N 	N 	0.23310 0.08570 0.11740 0.26900
C 	C 	0.30260 0.40940 0.97940 -1.62100
C 	C 	0.29510 0.34570 0.02810 1.91000
C 	C 	0.28710 0.21260 0.13160 -5.66600
H 	H 	0.32120 0.25410 0.17310 1.94400
H 	H 	0.17910 0.15300 0.89960 -0.71800
C 	C 	0.24730 0.21580 0.02560 -0.11300
H 	H 	0.30260 0.15050 0.25090 -2.19200
H 	H 	0.16380 0.04900 0.97850 0.53700
C 	C 	0.10440 0.41780 0.36160 0.78000
H 	H 	0.11340 0.46870 0.34910 -0.22800
C 	C 	0.13020 0.35590 0.33480 -0.88600
H 	H 	0.16160 0.36290 0.30870 0.33300
C 	C 	0.05760 0.27330 0.37600 -0.01400
H 	H 	0.03490 0.22530 0.37520 0.02500
C 	C 	0.03600 0.33970 0.40750 -0.09100
H 	H 	0.00010 0.33410 0.42700 0.03000
C 	C 	0.15890 0.11430 0.02880 2.04200
H 	H 	0.10720 0.09190 0.00170 -0.73800
C 	C 	0.16940 0.18040 0.98410 -2.34200
H 	H 	0.12240 0.20210 0.92360 0.81600
C 	C 	0.31260 0.17160 0.09700 5.52700
H 	H 	0.36460 0.18160 0.11140 -1.84600
C 	C 	0.30350 0.11060 0.14900 -6.27100
H 	H 	0.35070 0.08810 0.20800 2.05100
N 	N 	0.43760 0.90300 0.59000 -0.16000
C 	C 	0.36010 0.10910 0.55500 -0.76400
H 	H 	0.31990 0.07320 0.50790 0.24300
C 	C 	0.33580 0.17160 0.58440 0.84800
H 	H 	0.28010 0.17760 0.55800 -0.26500
C 	C 	0.39270 0.22540 0.65200 -0.11000
C 	C 	0.46920 0.22940 0.66270 -0.02800
H 	H 	0.50400 0.27300 0.68960 -0.00200
C 	C 	0.48650 0.16350 0.62990 0.11300
H 	H 	0.53570 0.16320 0.63490 -0.05100
C 	C 	0.39630 0.40490 0.78460 0.08200
H 	H 	0.43600 0.44050 0.83330 -0.02400
C 	C 	0.42090 0.34490 0.75320 -0.18500
H 	H 	0.47670 0.33980 0.77960 0.08400
C 	C 	0.36560 0.29290 0.68470 0.13300
C 	C 	0.28510 0.30320 0.64530 -0.17300
H 	H 	0.24550 0.26710 0.59760 0.08600
C 	C 	0.26150 0.36610 0.67500 0.05500
H 	H 	0.20520 0.37500 0.64330 0.08400
N 	N 	0.31770 0.41510 0.74840 -0.27900
C 	C 	0.22140 0.65000 0.82100 6.16800
N 	N 	0.26690 0.58570 0.88260 0.26100
C 	C 	0.19740 0.90940 0.02060 -1.71600
C 	C 	0.20490 0.84570 0.97190 2.01400
C 	C 	0.21290 0.71260 0.86840 -5.55400
H 	H 	0.17880 0.75410 0.82690 1.90900
H 	H 	0.32090 0.65300 0.10040 -0.70000
C 	C 	0.25270 0.71580 0.97440 -0.09300
H 	H 	0.19740 0.65050 0.74910 -2.14400
H 	H 	0.33620 0.54900 0.02150 0.53800
C 	C 	0.39560 0.91780 0.63840 0.80300
H 	H 	0.38660 0.96870 0.65090 -0.20900
C 	C 	0.36980 0.85590 0.66520 -0.90600
H 	H 	0.33840 0.86290 0.69130 0.34700
C 	C 	0.44240 0.77330 0.62400 -0.01000
H 	H 	0.46510 0.72530 0.62480 0.02700
C 	C 	0.46400 0.83970 0.59250 -0.09200
H 	H 	0.49990 0.83410 0.57300 0.03500
C 	C 	0.34110 0.61430 0.97120 1.99400
H 	H 	0.39280 0.59190 0.99830 -0.71300
C 	C 	0.33060 0.68040 0.01590 -2.30400
H 	H 	0.37760 0.70210 0.07640 0.80600
C 	C 	0.18740 0.67160 0.90300 5.40600
H 	H 	0.13540 0.68160 0.88860 -1.80100
C 	C 	0.19650 0.61060 0.85100 -6.13000
H 	H 	0.14930 0.58810 0.79200 2.01100
N 	N 	0.93760 0.40300 0.59000 -0.17600
C 	C 	0.86010 0.60910 0.55500 -0.81400
H 	H 	0.81990 0.57320 0.50790 0.26900
C 	C 	0.83580 0.67160 0.58440 0.90200
H 	H 	0.78010 0.67760 0.55800 -0.28100
C 	C 	0.89270 0.72540 0.65200 -0.11600
C 	C 	0.96920 0.72940 0.66270 -0.02800
H 	H 	0.00400 0.77300 0.68960 0.00100
C 	C 	0.98650 0.66350 0.62990 0.11400
H 	H 	0.03570 0.66320 0.63490 -0.04900
C 	C 	0.89630 0.90490 0.78460 0.08300
H 	H 	0.93600 0.94050 0.83330 -0.00800
C 	C 	0.92090 0.84490 0.75320 -0.18000
H 	H 	0.97670 0.83980 0.77960 0.08700
C 	C 	0.86560 0.79290 0.68470 0.13600
C 	C 	0.78510 0.80320 0.64530 -0.17100
H 	H 	0.74550 0.76710 0.59760 0.08800
C 	C 	0.76150 0.86610 0.67500 0.05500
H 	H 	0.70520 0.87500 0.64330 0.09800
N 	N 	0.81770 0.91510 0.74840 -0.26700
C 	C 	0.72140 0.15000 0.82100 6.30200
N 	N 	0.76690 0.08570 0.88260 0.26900
C 	C 	0.69740 0.40940 0.02060 -1.62100
C 	C 	0.70490 0.34570 0.97190 1.91000
C 	C 	0.71290 0.21260 0.86840 -5.66600
H 	H 	0.67880 0.25410 0.82690 1.94400
H 	H 	0.82090 0.15300 0.10040 -0.71800
C 	C 	0.75270 0.21580 0.97440 -0.11300
H 	H 	0.69740 0.15050 0.74910 -2.19200
H 	H 	0.83620 0.04900 0.02150 0.53700
C 	C 	0.89560 0.41780 0.63840 0.78000
H 	H 	0.88660 0.46870 0.65090 -0.22800
C 	C 	0.86980 0.35590 0.66520 -0.88600
H 	H 	0.83840 0.36290 0.69130 0.33300
C 	C 	0.94240 0.27330 0.62400 -0.01400
H 	H 	0.96510 0.22530 0.62480 0.02500
C 	C 	0.96400 0.33970 0.59250 -0.09100
H 	H 	0.99990 0.33410 0.57300 0.03000
C 	C 	0.84110 0.11430 0.97120 2.04200
H 	H 	0.89280 0.09190 0.99830 -0.73800
C 	C 	0.83060 0.18040 0.01590 -2.34200
H 	H 	0.87760 0.20210 0.07640 0.81600
C 	C 	0.68740 0.17160 0.90300 5.52700
H 	H 	0.63540 0.18160 0.88860 -1.84600
C 	C 	0.69650 0.11060 0.85100 -6.27100
H 	H 	0.64930 0.08810 0.79200 2.05100
Cu	Cu	0.47218 -0.00000 0.55202 0.79100
Cl	Cl	0.62570 0.00000 0.64830 -0.80900
Cu	Cu	0.97218 0.50000 0.55202 0.80500
Cl	Cl	0.12570 0.50000 0.64830 -0.77100
Cu	Cu	0.52782 -0.00000 0.44798 0.79100
Cl	Cl	0.37430 -0.00000 0.35170 -0.80900
Cu	Cu	0.02782 0.50000 0.44798 0.80500
Cl	Cl	0.87430 0.50000 0.35170 -0.77100
Cu	Cu	0.28147 0.50000 0.80462 0.81600
Cu	Cu	0.78147 0.00000 0.80462 0.79400
Cu	Cu	0.71853 0.50000 0.19538 0.81600
Cu	Cu	0.21853 -0.00000 0.19538 0.79400
