data_crystal

_cell_length_a 20.90900
_cell_length_b 11.36400
_cell_length_c 17.69900
_cell_angle_alpha 90.00000
_cell_angle_beta  103.27500
_cell_angle_gamma 90.00000

_symmetry_space_group_name_	'P 1'
_symmetry_space_group_name_H-M	'P 1'

loop_
_symmetry_equiv_pos_as_xyz
  x,y,z

loop_
_atom_site_label
_atom_site_type_symbol
_atom_site_fract_x
_atom_site_fract_y
_atom_site_fract_z
_atom_site_charge
Zn	Zn	0.05320 0.86377 0.35821 1.19600
Zn	Zn	0.22820 0.91726 0.68576 1.19900
C 	C 	0.14830 0.84360 0.52320 0.14800
C 	C 	0.13150 0.72200 0.54260 -0.16100
C 	C 	0.16990 0.62960 0.53410 0.09800
H 	H 	0.20860 0.64280 0.51790 0.00100
C 	C 	0.15280 0.51510 0.54910 -0.20700
H 	H 	0.18000 0.45290 0.54290 0.10800
C 	C 	0.09670 0.49370 0.57260 0.18200
C 	C 	0.05930 0.58650 0.58440 -0.20600
H 	H 	0.02150 0.57360 0.60240 0.11300
C 	C 	0.07700 0.70000 0.56980 0.09400
H 	H 	0.05100 0.76260 0.57880 -0.00900
C 	C 	0.10270 0.27410 0.55880 0.00200
H 	H 	0.13750 0.26910 0.53440 0.03100
C 	C 	0.02860 0.33870 0.61810 0.10900
H 	H 	0.00390 0.38930 0.64130 0.00200
N 	N 	0.02010 0.22490 0.61410 -0.27500
C 	C 	0.35570 0.81250 0.68950 0.33100
C 	C 	0.31430 0.72220 0.71610 -0.06800
C 	C 	0.32290 0.60770 0.74080 -0.06700
C 	C 	0.37690 0.52260 0.75100 0.32700
C 	C 	0.22620 0.66290 0.74990 0.12300
H 	H 	0.18430 0.66150 0.75940 -0.02000
N 	N 	0.12770 0.89370 0.45350 -0.24700
N 	N 	0.15770 0.00180 0.45850 -0.07500
N 	N 	0.19450 0.01420 0.52810 -0.07000
N 	N 	0.18910 0.91490 0.56990 -0.24400
N 	N 	0.07770 0.37510 0.58460 -0.15200
C 	C 	0.06650 0.18370 0.57630 -0.00200
H 	H 	0.07210 0.10520 0.56450 0.00400
N 	N 	0.25191 0.75640 0.72240 -0.26300
N 	N 	0.26739 0.57130 0.76250 -0.26000
O 	O 	0.33046 0.91470 0.68010 -0.40100
O 	O 	0.41089 0.78780 0.67840 -0.43800
O 	O 	0.42964 0.54570 0.73110 -0.48300
O 	O 	0.36936 0.42700 0.78410 -0.40400
Zn	Zn	0.55320 0.36377 0.35821 1.19500
Zn	Zn	0.72820 0.41726 0.68576 1.19800
C 	C 	0.64830 0.34360 0.52320 0.14700
C 	C 	0.63150 0.22200 0.54260 -0.16100
C 	C 	0.66990 0.12960 0.53410 0.09600
H 	H 	0.70860 0.14280 0.51790 0.00000
C 	C 	0.65280 0.01510 0.54910 -0.20700
H 	H 	0.68000 0.95290 0.54290 0.10700
C 	C 	0.59670 0.99370 0.57260 0.18000
C 	C 	0.55930 0.08650 0.58440 -0.20600
H 	H 	0.52150 0.07360 0.60240 0.11200
C 	C 	0.57700 0.20000 0.56980 0.09200
H 	H 	0.55100 0.26260 0.57880 -0.00900
C 	C 	0.60270 0.77410 0.55880 0.00100
H 	H 	0.63750 0.76910 0.53440 0.03000
C 	C 	0.52860 0.83870 0.61810 0.10800
H 	H 	0.50390 0.88930 0.64130 0.00100
N 	N 	0.52010 0.72490 0.61410 -0.27600
C 	C 	0.85570 0.31250 0.68950 0.33100
C 	C 	0.81430 0.22220 0.71610 -0.06800
C 	C 	0.82290 0.10770 0.74080 -0.06700
C 	C 	0.87690 0.02260 0.75100 0.32800
C 	C 	0.72620 0.16290 0.74990 0.12300
H 	H 	0.68430 0.16150 0.75940 -0.02000
N 	N 	0.62770 0.39370 0.45350 -0.24700
N 	N 	0.65770 0.50180 0.45850 -0.07500
N 	N 	0.69450 0.51420 0.52810 -0.07100
N 	N 	0.68910 0.41490 0.56990 -0.24300
N 	N 	0.57770 0.87510 0.58460 -0.15200
C 	C 	0.56650 0.68370 0.57630 -0.00200
H 	H 	0.57210 0.60520 0.56450 0.00400
N 	N 	0.75191 0.25640 0.72240 -0.26300
N 	N 	0.76739 0.07130 0.76250 -0.26000
O 	O 	0.83046 0.41470 0.68010 -0.40100
O 	O 	0.91089 0.28780 0.67840 -0.43800
O 	O 	0.92964 0.04570 0.73110 -0.48300
O 	O 	0.86936 0.92700 0.78410 -0.40500
Zn	Zn	0.94680 0.86377 0.14179 1.19500
Zn	Zn	0.77180 0.91726 0.81424 1.19800
C 	C 	0.85170 0.84360 0.97680 0.14700
C 	C 	0.86850 0.72200 0.95740 -0.16200
C 	C 	0.83010 0.62960 0.96590 0.09700
H 	H 	0.79140 0.64280 0.98210 -0.00000
C 	C 	0.84720 0.51510 0.95090 -0.20800
H 	H 	0.82000 0.45290 0.95710 0.10700
C 	C 	0.90330 0.49370 0.92740 0.18100
C 	C 	0.94070 0.58650 0.91560 -0.20700
H 	H 	0.97850 0.57360 0.89760 0.11200
C 	C 	0.92300 0.70000 0.93020 0.09300
H 	H 	0.94900 0.76260 0.92120 -0.01000
C 	C 	0.89730 0.27410 0.94120 0.00100
H 	H 	0.86250 0.26910 0.96560 0.03000
C 	C 	0.97140 0.33870 0.88190 0.10800
H 	H 	0.99610 0.38930 0.85870 0.00100
N 	N 	0.97990 0.22490 0.88590 -0.27500
C 	C 	0.64430 0.81250 0.81050 0.33100
C 	C 	0.68570 0.72220 0.78390 -0.06800
C 	C 	0.67710 0.60770 0.75920 -0.06700
C 	C 	0.62310 0.52260 0.74900 0.32700
C 	C 	0.77380 0.66290 0.75010 0.12300
H 	H 	0.81570 0.66150 0.74060 -0.02000
N 	N 	0.87230 0.89370 0.04650 -0.24600
N 	N 	0.84230 0.00180 0.04150 -0.07700
N 	N 	0.80550 0.01420 0.97190 -0.06900
N 	N 	0.81090 0.91490 0.93010 -0.24400
N 	N 	0.92230 0.37510 0.91540 -0.15200
C 	C 	0.93350 0.18370 0.92370 -0.00200
H 	H 	0.92790 0.10520 0.93550 0.00400
N 	N 	0.74809 0.75640 0.77760 -0.26300
N 	N 	0.73261 0.57130 0.73750 -0.26000
O 	O 	0.66954 0.91470 0.81990 -0.40200
O 	O 	0.58911 0.78780 0.82160 -0.43900
O 	O 	0.57036 0.54570 0.76890 -0.48300
O 	O 	0.63064 0.42700 0.71590 -0.40400
Zn	Zn	0.44680 0.36377 0.14179 1.19500
Zn	Zn	0.27180 0.41726 0.81424 1.19800
C 	C 	0.35170 0.34360 0.97680 0.14500
C 	C 	0.36850 0.22200 0.95740 -0.15600
C 	C 	0.33010 0.12960 0.96590 0.08900
H 	H 	0.29140 0.14280 0.98210 0.00300
C 	C 	0.34720 0.01510 0.95090 -0.19600
H 	H 	0.32000 0.95290 0.95710 0.10200
C 	C 	0.40330 0.99370 0.92740 0.17200
C 	C 	0.44070 0.08650 0.91560 -0.19800
H 	H 	0.47850 0.07360 0.89760 0.11000
C 	C 	0.42300 0.20000 0.93020 0.08600
H 	H 	0.44900 0.26260 0.92120 -0.00700
C 	C 	0.39730 0.77410 0.94120 0.00000
H 	H 	0.36250 0.76910 0.96560 0.03000
C 	C 	0.47140 0.83870 0.88190 0.10700
H 	H 	0.49610 0.88930 0.85870 0.00100
N 	N 	0.47990 0.72490 0.88590 -0.27600
C 	C 	0.14430 0.31250 0.81050 0.33100
C 	C 	0.18570 0.22220 0.78390 -0.06800
C 	C 	0.17710 0.10770 0.75920 -0.06700
C 	C 	0.12310 0.02260 0.74900 0.32800
C 	C 	0.27380 0.16290 0.75010 0.12300
H 	H 	0.31570 0.16150 0.74060 -0.02000
N 	N 	0.37230 0.39370 0.04650 -0.24600
N 	N 	0.34230 0.50180 0.04150 -0.07500
N 	N 	0.30550 0.51420 0.97190 -0.07100
N 	N 	0.31090 0.41490 0.93010 -0.24300
N 	N 	0.42230 0.87510 0.91540 -0.15100
C 	C 	0.43350 0.68370 0.92370 -0.00200
H 	H 	0.42790 0.60520 0.93550 0.00400
N 	N 	0.24809 0.25640 0.77760 -0.26300
N 	N 	0.23261 0.07130 0.73750 -0.26000
O 	O 	0.16954 0.41470 0.81990 -0.40100
O 	O 	0.08911 0.28780 0.82160 -0.43900
O 	O 	0.07036 0.04570 0.76890 -0.48300
O 	O 	0.13064 0.92700 0.71590 -0.40500
Zn	Zn	0.94680 0.13623 0.64179 1.19500
Zn	Zn	0.77180 0.08274 0.31424 1.19800
C 	C 	0.85170 0.15640 0.47680 0.14700
C 	C 	0.86850 0.27800 0.45740 -0.16200
C 	C 	0.83010 0.37040 0.46590 0.09700
H 	H 	0.79140 0.35720 0.48210 -0.00000
C 	C 	0.84720 0.48490 0.45090 -0.20800
H 	H 	0.82000 0.54710 0.45710 0.10700
C 	C 	0.90330 0.50630 0.42740 0.18100
C 	C 	0.94070 0.41350 0.41560 -0.20700
H 	H 	0.97850 0.42640 0.39760 0.11200
C 	C 	0.92300 0.30000 0.43020 0.09300
H 	H 	0.94900 0.23740 0.42120 -0.01000
C 	C 	0.89730 0.72590 0.44120 0.00100
H 	H 	0.86250 0.73090 0.46560 0.03000
C 	C 	0.97140 0.66130 0.38190 0.10800
H 	H 	0.99610 0.61070 0.35870 0.00100
N 	N 	0.97990 0.77510 0.38590 -0.27600
C 	C 	0.64430 0.18750 0.31050 0.33100
C 	C 	0.68570 0.27780 0.28390 -0.06800
C 	C 	0.67710 0.39230 0.25920 -0.06700
C 	C 	0.62310 0.47740 0.24900 0.32700
C 	C 	0.77380 0.33710 0.25010 0.12300
H 	H 	0.81570 0.33850 0.24060 -0.02000
N 	N 	0.87230 0.10630 0.54650 -0.24700
N 	N 	0.84230 0.99820 0.54150 -0.07500
N 	N 	0.80550 0.98580 0.47190 -0.07000
N 	N 	0.81090 0.08510 0.43010 -0.24400
N 	N 	0.92230 0.62490 0.41540 -0.15200
C 	C 	0.93350 0.81630 0.42370 -0.00200
H 	H 	0.92790 0.89480 0.43550 0.00400
N 	N 	0.74809 0.24360 0.27760 -0.26300
N 	N 	0.73261 0.42870 0.23750 -0.26000
O 	O 	0.66954 0.08530 0.31990 -0.40100
O 	O 	0.58911 0.21220 0.32160 -0.43800
O 	O 	0.57036 0.45430 0.26890 -0.48300
O 	O 	0.63064 0.57300 0.21590 -0.40400
Zn	Zn	0.44680 0.63623 0.64179 1.19500
Zn	Zn	0.27180 0.58274 0.31424 1.19800
C 	C 	0.35170 0.65640 0.47680 0.14700
C 	C 	0.36850 0.77800 0.45740 -0.16100
C 	C 	0.33010 0.87040 0.46590 0.09600
H 	H 	0.29140 0.85720 0.48210 0.00000
C 	C 	0.34720 0.98490 0.45090 -0.20700
H 	H 	0.32000 0.04710 0.45710 0.10700
C 	C 	0.40330 0.00630 0.42740 0.18000
C 	C 	0.44070 0.91350 0.41560 -0.20600
H 	H 	0.47850 0.92640 0.39760 0.11200
C 	C 	0.42300 0.80000 0.43020 0.09200
H 	H 	0.44900 0.73740 0.42120 -0.00900
C 	C 	0.39730 0.22590 0.44120 0.00100
H 	H 	0.36250 0.23090 0.46560 0.03000
C 	C 	0.47140 0.16130 0.38190 0.10800
H 	H 	0.49610 0.11070 0.35870 0.00100
N 	N 	0.47990 0.27510 0.38590 -0.27600
C 	C 	0.14430 0.68750 0.31050 0.33100
C 	C 	0.18570 0.77780 0.28390 -0.06800
C 	C 	0.17710 0.89230 0.25920 -0.06700
C 	C 	0.12310 0.97740 0.24900 0.32800
C 	C 	0.27380 0.83710 0.25010 0.12300
H 	H 	0.31570 0.83850 0.24060 -0.02000
N 	N 	0.37230 0.60630 0.54650 -0.24700
N 	N 	0.34230 0.49820 0.54150 -0.07500
N 	N 	0.30550 0.48580 0.47190 -0.07100
N 	N 	0.31090 0.58510 0.43010 -0.24300
N 	N 	0.42230 0.12490 0.41540 -0.15200
C 	C 	0.43350 0.31630 0.42370 -0.00200
H 	H 	0.42790 0.39480 0.43550 0.00400
N 	N 	0.24809 0.74360 0.27760 -0.26300
N 	N 	0.23261 0.92870 0.23750 -0.26000
O 	O 	0.16954 0.58530 0.31990 -0.40100
O 	O 	0.08911 0.71220 0.32160 -0.43800
O 	O 	0.07036 0.95430 0.26890 -0.48300
O 	O 	0.13064 0.07300 0.21590 -0.40500
Zn	Zn	0.05320 0.13623 0.85821 1.19500
Zn	Zn	0.22820 0.08274 0.18576 1.19800
C 	C 	0.14830 0.15640 0.02320 0.14700
C 	C 	0.13150 0.27800 0.04260 -0.16200
C 	C 	0.16990 0.37040 0.03410 0.09700
H 	H 	0.20860 0.35720 0.01790 -0.00000
C 	C 	0.15280 0.48490 0.04910 -0.20800
H 	H 	0.18000 0.54710 0.04290 0.10700
C 	C 	0.09670 0.50630 0.07260 0.18100
C 	C 	0.05930 0.41350 0.08440 -0.20700
H 	H 	0.02150 0.42640 0.10240 0.11200
C 	C 	0.07700 0.30000 0.06980 0.09300
H 	H 	0.05100 0.23740 0.07880 -0.01000
C 	C 	0.10270 0.72590 0.05880 0.00100
H 	H 	0.13750 0.73090 0.03440 0.03000
C 	C 	0.02860 0.66130 0.11810 0.10800
H 	H 	0.00390 0.61070 0.14130 0.00100
N 	N 	0.02010 0.77510 0.11410 -0.27500
C 	C 	0.35570 0.18750 0.18950 0.33100
C 	C 	0.31430 0.27780 0.21610 -0.06800
C 	C 	0.32290 0.39230 0.24080 -0.06700
C 	C 	0.37690 0.47740 0.25100 0.32700
C 	C 	0.22620 0.33710 0.24990 0.12300
H 	H 	0.18430 0.33850 0.25940 -0.02000
N 	N 	0.12770 0.10630 0.95350 -0.24600
N 	N 	0.15770 0.99820 0.95850 -0.07700
N 	N 	0.19450 0.98580 0.02810 -0.06900
N 	N 	0.18910 0.08510 0.06990 -0.24400
N 	N 	0.07770 0.62490 0.08460 -0.15200
C 	C 	0.06650 0.81630 0.07630 -0.00200
H 	H 	0.07210 0.89480 0.06450 0.00400
N 	N 	0.25191 0.24360 0.22240 -0.26300
N 	N 	0.26739 0.42870 0.26250 -0.26000
O 	O 	0.33046 0.08530 0.18010 -0.40200
O 	O 	0.41089 0.21220 0.17840 -0.43900
O 	O 	0.42964 0.45430 0.23110 -0.48300
O 	O 	0.36936 0.57300 0.28410 -0.40400
Zn	Zn	0.55320 0.63623 0.85821 1.19500
Zn	Zn	0.72820 0.58274 0.18576 1.19800
C 	C 	0.64830 0.65640 0.02320 0.14500
C 	C 	0.63150 0.77800 0.04260 -0.15600
C 	C 	0.66990 0.87040 0.03410 0.08900
H 	H 	0.70860 0.85720 0.01790 0.00300
C 	C 	0.65280 0.98490 0.04910 -0.19600
H 	H 	0.68000 0.04710 0.04290 0.10200
C 	C 	0.59670 0.00630 0.07260 0.17200
C 	C 	0.55930 0.91350 0.08440 -0.19800
H 	H 	0.52150 0.92640 0.10240 0.11000
C 	C 	0.57700 0.80000 0.06980 0.08600
H 	H 	0.55100 0.73740 0.07880 -0.00700
C 	C 	0.60270 0.22590 0.05880 0.00000
H 	H 	0.63750 0.23090 0.03440 0.03000
C 	C 	0.52860 0.16130 0.11810 0.10700
H 	H 	0.50390 0.11070 0.14130 0.00100
N 	N 	0.52010 0.27510 0.11410 -0.27600
C 	C 	0.85570 0.68750 0.18950 0.33100
C 	C 	0.81430 0.77780 0.21610 -0.06800
C 	C 	0.82290 0.89230 0.24080 -0.06700
C 	C 	0.87690 0.97740 0.25100 0.32800
C 	C 	0.72620 0.83710 0.24990 0.12300
H 	H 	0.68430 0.83850 0.25940 -0.02000
N 	N 	0.62770 0.60630 0.95350 -0.24600
N 	N 	0.65770 0.49820 0.95850 -0.07500
N 	N 	0.69450 0.48580 0.02810 -0.07100
N 	N 	0.68910 0.58510 0.06990 -0.24300
N 	N 	0.57770 0.12490 0.08460 -0.15100
C 	C 	0.56650 0.31630 0.07630 -0.00200
H 	H 	0.57210 0.39480 0.06450 0.00400
N 	N 	0.75191 0.74360 0.22240 -0.26300
N 	N 	0.76739 0.92870 0.26250 -0.26000
O 	O 	0.83046 0.58530 0.18010 -0.40100
O 	O 	0.91089 0.71220 0.17840 -0.43900
O 	O 	0.92964 0.95430 0.23110 -0.48300
O 	O 	0.86936 0.07300 0.28410 -0.40500
