data_crystal

_cell_length_a 22.75280
_cell_length_b 10.90390
_cell_length_c 11.56020
_cell_angle_alpha 90.00000
_cell_angle_beta  112.20800
_cell_angle_gamma 90.00000

_symmetry_space_group_name_	'P 1'
_symmetry_space_group_name_H-M	'P 1'

loop_
_symmetry_equiv_pos_as_xyz
  x,y,z

loop_
_atom_site_label
_atom_site_type_symbol
_atom_site_fract_x
_atom_site_fract_y
_atom_site_fract_z
_atom_site_charge
Co	Co	0.17943 0.08246 0.43709 1.15200
N 	N 	0.24648 0.94757 0.54969 -0.21900
N 	N 	0.11921 0.21836 0.30865 -0.24800
O 	O 	0.25295 0.85345 0.89634 -0.45700
O 	O 	0.30461 0.67953 0.89873 -0.44200
O 	O 	0.35073 0.54548 0.71152 -0.41200
O 	O 	0.42042 0.67802 0.83492 -0.27000
C 	C 	0.28818 0.89415 0.50817 0.05000
H 	H 	0.29010 0.92180 0.43360 0.01800
C 	C 	0.32822 0.80015 0.57133 -0.08400
H 	H 	0.35640 0.76600 0.53940 0.05400
C 	C 	0.32616 0.75688 0.68307 -0.01800
C 	C 	0.36867 0.65154 0.74925 0.32700
C 	C 	0.28444 0.81417 0.72853 -0.11900
C 	C 	0.27972 0.77880 0.85076 0.41500
C 	C 	0.24601 0.90837 0.65900 0.06800
H 	H 	0.21850 0.94620 0.69020 0.00700
C 	C 	0.07762 0.19330 0.19430 0.11300
H 	H 	0.07070 0.11130 0.17060 -0.01000
C 	C 	0.04426 0.28060 0.10880 -0.20600
H 	H 	0.01590 0.25710 0.03020 0.11500
C 	C 	0.12706 0.33580 0.33730 0.12100
H 	H 	0.15580 0.35720 0.41630 -0.01200
C 	C 	0.09543 0.42870 0.25790 -0.20500
H 	H 	0.10300 0.50960 0.28460 0.11200
C 	C 	0.05309 0.40380 0.14030 0.15300
C 	C 	0.02146 0.50550 0.05710 -0.09800
H 	H 	0.03270 0.58460 0.08750 0.07700
Co	Co	0.67943 0.58246 0.43709 1.15300
N 	N 	0.74648 0.44757 0.54969 -0.21800
N 	N 	0.61921 0.71836 0.30865 -0.24700
O 	O 	0.75295 0.35345 0.89634 -0.45400
O 	O 	0.80461 0.17953 0.89873 -0.43900
O 	O 	0.85073 0.04548 0.71152 -0.41000
O 	O 	0.92042 0.17802 0.83492 -0.26700
C 	C 	0.78818 0.39415 0.50817 0.05200
H 	H 	0.79010 0.42180 0.43360 0.01900
C 	C 	0.82822 0.30015 0.57133 -0.08300
H 	H 	0.85640 0.26600 0.53940 0.05500
C 	C 	0.82616 0.25688 0.68307 -0.01700
C 	C 	0.86867 0.15154 0.74925 0.32800
C 	C 	0.78444 0.31417 0.72853 -0.11700
C 	C 	0.77972 0.27880 0.85076 0.41500
C 	C 	0.74601 0.40837 0.65900 0.06800
H 	H 	0.71850 0.44620 0.69020 0.00800
C 	C 	0.57762 0.69330 0.19430 0.11400
H 	H 	0.57070 0.61130 0.17060 -0.01000
C 	C 	0.54426 0.78060 0.10880 -0.20700
H 	H 	0.51590 0.75710 0.03020 0.11700
C 	C 	0.62706 0.83580 0.33730 0.12000
H 	H 	0.65580 0.85720 0.41630 -0.01200
C 	C 	0.59543 0.92870 0.25790 -0.20200
H 	H 	0.60300 0.00960 0.28460 0.11000
C 	C 	0.55309 0.90380 0.14030 0.15700
C 	C 	0.52146 0.00550 0.05710 -0.10200
H 	H 	0.53270 0.08460 0.08750 0.07600
Co	Co	0.82057 0.08246 0.06291 1.15200
N 	N 	0.75352 0.94757 0.95031 -0.21700
N 	N 	0.88079 0.21836 0.19135 -0.24700
O 	O 	0.74705 0.85345 0.60366 -0.45500
O 	O 	0.69539 0.67953 0.60127 -0.44000
O 	O 	0.64927 0.54548 0.78848 -0.41100
O 	O 	0.57958 0.67802 0.66508 -0.26900
C 	C 	0.71182 0.89415 0.99183 0.04300
H 	H 	0.70990 0.92180 0.06640 0.02400
C 	C 	0.67178 0.80015 0.92867 -0.07800
H 	H 	0.64360 0.76600 0.96060 0.05300
C 	C 	0.67384 0.75688 0.81693 -0.01900
C 	C 	0.63133 0.65154 0.75075 0.32900
C 	C 	0.71556 0.81417 0.77147 -0.11600
C 	C 	0.72028 0.77880 0.64924 0.41500
C 	C 	0.75399 0.90837 0.84100 0.06700
H 	H 	0.78150 0.94620 0.80980 0.00700
C 	C 	0.92238 0.19330 0.30570 0.11300
H 	H 	0.92930 0.11130 0.32940 -0.01000
C 	C 	0.95574 0.28060 0.39120 -0.20600
H 	H 	0.98410 0.25710 0.46980 0.11500
C 	C 	0.87294 0.33580 0.16270 0.12100
H 	H 	0.84420 0.35720 0.08370 -0.01300
C 	C 	0.90457 0.42870 0.24210 -0.20500
H 	H 	0.89700 0.50960 0.21540 0.11200
C 	C 	0.94691 0.40380 0.35970 0.15300
C 	C 	0.97854 0.50550 0.44290 -0.09800
H 	H 	0.96730 0.58460 0.41250 0.07600
Co	Co	0.32057 0.58246 0.06291 1.15400
N 	N 	0.25352 0.44757 0.95031 -0.21800
N 	N 	0.38079 0.71836 0.19135 -0.24600
O 	O 	0.24705 0.35345 0.60366 -0.45500
O 	O 	0.19539 0.17953 0.60127 -0.44000
O 	O 	0.14927 0.04548 0.78848 -0.40900
O 	O 	0.07958 0.17802 0.66508 -0.26800
C 	C 	0.21182 0.39415 0.99183 0.05300
H 	H 	0.20990 0.42180 0.06640 0.01800
C 	C 	0.17178 0.30015 0.92867 -0.08300
H 	H 	0.14360 0.26600 0.96060 0.05600
C 	C 	0.17384 0.25688 0.81693 -0.01600
C 	C 	0.13133 0.15154 0.75075 0.32800
C 	C 	0.21556 0.31417 0.77147 -0.11800
C 	C 	0.22028 0.27880 0.64924 0.41500
C 	C 	0.25399 0.40837 0.84100 0.06800
H 	H 	0.28150 0.44620 0.80980 0.00800
C 	C 	0.42238 0.69330 0.30570 0.11200
H 	H 	0.42930 0.61130 0.32940 -0.00900
C 	C 	0.45574 0.78060 0.39120 -0.20400
H 	H 	0.48410 0.75710 0.46980 0.11500
C 	C 	0.37294 0.83580 0.16270 0.11700
H 	H 	0.34420 0.85720 0.08370 -0.00900
C 	C 	0.40457 0.92870 0.24210 -0.19800
H 	H 	0.39700 0.00960 0.21540 0.10800
C 	C 	0.44691 0.90380 0.35970 0.15100
C 	C 	0.47854 0.00550 0.44290 -0.09800
H 	H 	0.46730 0.08460 0.41250 0.07600
Co	Co	0.82057 0.91754 0.56291 1.15300
N 	N 	0.75352 0.05243 0.45031 -0.21800
N 	N 	0.88079 0.78164 0.69135 -0.24700
O 	O 	0.74705 0.14655 0.10366 -0.45600
O 	O 	0.69539 0.32047 0.10127 -0.44100
O 	O 	0.64927 0.45452 0.28848 -0.41100
O 	O 	0.57958 0.32198 0.16508 -0.26900
C 	C 	0.71182 0.10585 0.49183 0.05100
H 	H 	0.70990 0.07820 0.56640 0.01900
C 	C 	0.67178 0.19985 0.42867 -0.08300
H 	H 	0.64360 0.23400 0.46060 0.05500
C 	C 	0.67384 0.24312 0.31693 -0.01700
C 	C 	0.63133 0.34846 0.25075 0.32800
C 	C 	0.71556 0.18583 0.27147 -0.11800
C 	C 	0.72028 0.22120 0.14924 0.41500
C 	C 	0.75399 0.09163 0.34100 0.06800
H 	H 	0.78150 0.05380 0.30980 0.00700
C 	C 	0.92238 0.80670 0.80570 0.11300
H 	H 	0.92930 0.88870 0.82940 -0.01000
C 	C 	0.95574 0.71940 0.89120 -0.20600
H 	H 	0.98410 0.74290 0.96980 0.11500
C 	C 	0.87294 0.66420 0.66270 0.12100
H 	H 	0.84420 0.64280 0.58370 -0.01200
C 	C 	0.90457 0.57130 0.74210 -0.20500
H 	H 	0.89700 0.49040 0.71540 0.11200
C 	C 	0.94691 0.59620 0.85970 0.15300
C 	C 	0.97854 0.49450 0.94290 -0.09800
H 	H 	0.96730 0.41540 0.91250 0.07700
Co	Co	0.32057 0.41754 0.56291 1.15300
N 	N 	0.25352 0.55243 0.45031 -0.21800
N 	N 	0.38079 0.28164 0.69135 -0.24700
O 	O 	0.24705 0.64655 0.10366 -0.45400
O 	O 	0.19539 0.82047 0.10127 -0.43900
O 	O 	0.14927 0.95452 0.28848 -0.41000
O 	O 	0.07958 0.82198 0.16508 -0.26700
C 	C 	0.21182 0.60585 0.49183 0.05200
H 	H 	0.20990 0.57820 0.56640 0.01900
C 	C 	0.17178 0.69985 0.42867 -0.08300
H 	H 	0.14360 0.73400 0.46060 0.05500
C 	C 	0.17384 0.74312 0.31693 -0.01700
C 	C 	0.13133 0.84846 0.25075 0.32800
C 	C 	0.21556 0.68583 0.27147 -0.11700
C 	C 	0.22028 0.72120 0.14924 0.41500
C 	C 	0.25399 0.59163 0.34100 0.06800
H 	H 	0.28150 0.55380 0.30980 0.00800
C 	C 	0.42238 0.30670 0.80570 0.11400
H 	H 	0.42930 0.38870 0.82940 -0.01000
C 	C 	0.45574 0.21940 0.89120 -0.20700
H 	H 	0.48410 0.24290 0.96980 0.11700
C 	C 	0.37294 0.16420 0.66270 0.12000
H 	H 	0.34420 0.14280 0.58370 -0.01200
C 	C 	0.40457 0.07130 0.74210 -0.20200
H 	H 	0.39700 0.99040 0.71540 0.11000
C 	C 	0.44691 0.09620 0.85970 0.15700
C 	C 	0.47854 0.99450 0.94290 -0.10200
H 	H 	0.46730 0.91540 0.91250 0.07600
Co	Co	0.17943 0.91754 0.93709 1.15200
N 	N 	0.24648 0.05243 0.04969 -0.21700
N 	N 	0.11921 0.78164 0.80865 -0.24700
O 	O 	0.25295 0.14655 0.39634 -0.45500
O 	O 	0.30461 0.32047 0.39873 -0.44000
O 	O 	0.35073 0.45452 0.21152 -0.41100
O 	O 	0.42042 0.32198 0.33492 -0.26900
C 	C 	0.28818 0.10585 0.00817 0.04300
H 	H 	0.29010 0.07820 0.93360 0.02400
C 	C 	0.32822 0.19985 0.07133 -0.07800
H 	H 	0.35640 0.23400 0.03940 0.05300
C 	C 	0.32616 0.24312 0.18307 -0.01900
C 	C 	0.36867 0.34846 0.24925 0.32900
C 	C 	0.28444 0.18583 0.22853 -0.11600
C 	C 	0.27972 0.22120 0.35076 0.41500
C 	C 	0.24601 0.09163 0.15900 0.06700
H 	H 	0.21850 0.05380 0.19020 0.00700
C 	C 	0.07762 0.80670 0.69430 0.11300
H 	H 	0.07070 0.88870 0.67060 -0.01000
C 	C 	0.04426 0.71940 0.60880 -0.20600
H 	H 	0.01590 0.74290 0.53020 0.11500
C 	C 	0.12706 0.66420 0.83730 0.12100
H 	H 	0.15580 0.64280 0.91630 -0.01300
C 	C 	0.09543 0.57130 0.75790 -0.20500
H 	H 	0.10300 0.49040 0.78460 0.11200
C 	C 	0.05309 0.59620 0.64030 0.15300
C 	C 	0.02146 0.49450 0.55710 -0.09800
H 	H 	0.03270 0.41540 0.58750 0.07600
Co	Co	0.67943 0.41754 0.93709 1.15400
N 	N 	0.74648 0.55243 0.04969 -0.21800
N 	N 	0.61921 0.28164 0.80865 -0.24600
O 	O 	0.75295 0.64655 0.39634 -0.45500
O 	O 	0.80461 0.82047 0.39873 -0.44000
O 	O 	0.85073 0.95452 0.21152 -0.40900
O 	O 	0.92042 0.82198 0.33492 -0.26800
C 	C 	0.78818 0.60585 0.00817 0.05300
H 	H 	0.79010 0.57820 0.93360 0.01800
C 	C 	0.82822 0.69985 0.07133 -0.08300
H 	H 	0.85640 0.73400 0.03940 0.05600
C 	C 	0.82616 0.74312 0.18307 -0.01600
C 	C 	0.86867 0.84846 0.24925 0.32800
C 	C 	0.78444 0.68583 0.22853 -0.11800
C 	C 	0.77972 0.72120 0.35076 0.41500
C 	C 	0.74601 0.59163 0.15900 0.06800
H 	H 	0.71850 0.55380 0.19020 0.00800
C 	C 	0.57762 0.30670 0.69430 0.11200
H 	H 	0.57070 0.38870 0.67060 -0.00900
C 	C 	0.54426 0.21940 0.60880 -0.20400
H 	H 	0.51590 0.24290 0.53020 0.11500
C 	C 	0.62706 0.16420 0.83730 0.11700
H 	H 	0.65580 0.14280 0.91630 -0.00900
C 	C 	0.59543 0.07130 0.75790 -0.19800
H 	H 	0.60300 0.99040 0.78460 0.10800
C 	C 	0.55309 0.09620 0.64030 0.15100
C 	C 	0.52146 0.99450 0.55710 -0.09800
H 	H 	0.53270 0.91540 0.58750 0.07600
