data_crystal

_cell_length_a 7.52380
_cell_length_b 21.95780
_cell_length_c 33.01200
_cell_angle_alpha 90.00000
_cell_angle_beta  95.25200
_cell_angle_gamma 90.00000

_symmetry_space_group_name_	'P 1'
_symmetry_space_group_name_H-M	'P 1'

loop_
_symmetry_equiv_pos_as_xyz
  x,y,z

loop_
_atom_site_label
_atom_site_type_symbol
_atom_site_fract_x
_atom_site_fract_y
_atom_site_fract_z
_atom_site_charge
Zn	Zn	0.75595 0.13912 0.33409 1.20700
Zn	Zn	0.20745 0.37941 0.16732 1.20700
O 	O 	0.89560 0.21286 0.34901 -0.45700
O 	O 	0.06910 0.15358 0.38894 -0.33400
O 	O 	0.67540 0.60656 0.21713 -0.48100
O 	O 	0.67510 0.51051 0.19774 -0.32600
O 	O 	0.06930 0.30635 0.15162 -0.46500
O 	O 	0.88590 0.37006 0.11732 -0.33100
O 	O 	0.36180 0.91211 0.28150 -0.47900
O 	O 	0.32310 0.00762 0.29948 -0.32700
S 	S 	0.40092 0.11779 0.09063 -0.03400
S 	S 	0.58466 0.39732 0.40332 -0.00600
S 	S 	0.48328 0.48135 0.39104 -0.02700
S 	S 	0.52181 0.03801 0.10655 -0.00800
N 	N 	0.54000 0.45284 0.31188 -0.13800
N 	N 	0.44850 0.28975 0.40775 -0.13900
N 	N 	0.67820 0.09317 0.38209 -0.28200
N 	N 	0.52180 0.18659 0.31616 -0.26400
N 	N 	0.44240 0.33194 0.18572 -0.26200
N 	N 	0.29150 0.42591 0.12024 -0.28500
N 	N 	0.50660 0.96736 0.16830 -0.14000
N 	N 	0.73240 0.16075 0.11882 -0.14100
C 	C 	0.03280 0.20329 0.37343 0.36400
C 	C 	0.15510 0.25608 0.38274 -0.14400
C 	C 	0.32360 0.24668 0.40164 0.09100
H 	H 	0.35250 0.20760 0.41080 0.01800
C 	C 	0.11160 0.31550 0.37175 0.09100
H 	H 	0.99810 0.32450 0.35970 0.02100
C 	C 	0.23480 0.36077 0.37850 -0.16900
H 	H 	0.20610 0.40090 0.37170 0.10500
C 	C 	0.40130 0.34585 0.39555 0.11600
C 	C 	0.52760 0.49707 0.33998 0.13300
C 	C 	0.54210 0.55606 0.33187 -0.19800
H 	H 	0.52510 0.58510 0.35170 0.11100
C 	C 	0.58150 0.57306 0.29475 0.12300
H 	H 	0.59390 0.61430 0.28940 0.00000
C 	C 	0.60410 0.53208 0.26448 -0.16100
C 	C 	0.57930 0.47121 0.27394 0.09700
H 	H 	0.58960 0.44190 0.25390 0.01200
C 	C 	0.65470 0.54962 0.22292 0.38200
C 	C 	0.65110 0.12750 0.41486 0.10600
H 	H 	0.67220 0.16920 0.41350 -0.02400
C 	C 	0.59510 0.10460 0.44955 -0.18400
H 	H 	0.57600 0.13060 0.47100 0.09700
C 	C 	0.56600 0.04330 0.45334 0.12700
C 	C 	0.59590 0.00750 0.42023 -0.17900
H 	H 	0.57940 0.96560 0.42160 0.10800
C 	C 	0.64990 0.03312 0.38509 0.10700
H 	H 	0.66700 0.00810 0.36300 -0.00200
C 	C 	0.50130 0.02860 0.49420 -0.03400
H 	H 	0.46420 0.05940 0.51080 0.01400
C 	C 	0.37230 0.15522 0.30587 0.09800
H 	H 	0.37190 0.11380 0.31160 -0.00700
C 	C 	0.21930 0.18068 0.28729 -0.18100
H 	H 	0.11940 0.15660 0.28050 0.10100
C 	C 	0.21460 0.24271 0.27873 0.13400
C 	C 	0.36720 0.27593 0.29100 -0.18200
H 	H 	0.36920 0.31780 0.28690 0.10300
C 	C 	0.51610 0.24673 0.30928 0.10700
H 	H 	0.61690 0.26980 0.31720 -0.00100
C 	C 	0.05950 0.27264 0.25685 -0.09300
H 	H 	0.07220 0.31350 0.25030 0.06800
C 	C 	0.90410 0.24715 0.24555 -0.08500
H 	H 	0.89140 0.20630 0.25230 0.06400
C 	C 	0.74980 0.27653 0.22355 0.13000
C 	C 	0.59620 0.24383 0.21204 -0.17800
H 	H 	0.59460 0.20210 0.21670 0.09500
C 	C 	0.44610 0.27171 0.19381 0.10100
H 	H 	0.34440 0.24850 0.18690 -0.00600
C 	C 	0.59340 0.36300 0.19440 0.10000
H 	H 	0.59480 0.40400 0.18730 -0.00600
C 	C 	0.74650 0.33818 0.21311 -0.17600
H 	H 	0.84750 0.36220 0.21880 0.10200
C 	C 	0.30380 0.39469 0.08552 0.10800
H 	H 	0.26680 0.35430 0.08440 -0.03100
C 	C 	0.36820 0.41959 0.05187 -0.18700
H 	H 	0.37800 0.39590 0.02880 0.09800
C 	C 	0.41940 0.48088 0.05227 0.14400
C 	C 	0.40350 0.51262 0.08785 -0.19800
H 	H 	0.43480 0.55360 0.08950 0.11700
C 	C 	0.34210 0.48441 0.12072 0.12000
H 	H 	0.33510 0.50680 0.14440 -0.00600
C 	C 	0.48300 0.51258 0.01732 -0.09200
H 	H 	0.50080 0.55440 0.01980 0.06800
C 	C 	0.36150 0.96908 0.27508 0.37800
C 	C 	0.40760 0.98980 0.23390 -0.15300
C 	C 	0.38560 0.04960 0.22196 0.09300
H 	H 	0.34690 0.07810 0.24010 0.00800
C 	C 	0.42010 0.06780 0.18351 -0.17000
H 	H 	0.40520 0.10820 0.17540 0.09400
C 	C 	0.47650 0.02519 0.15788 0.11700
C 	C 	0.47030 0.95084 0.20585 0.09800
H 	H 	0.48880 0.91040 0.21340 0.01600
C 	C 	0.56710 0.17530 0.10139 0.13000
C 	C 	0.51700 0.23096 0.09216 -0.20100
H 	H 	0.40230 0.23890 0.08030 0.10300
C 	C 	0.63310 0.27620 0.09997 0.11100
H 	H 	0.59870 0.31570 0.09270 0.00300
C 	C 	0.80400 0.26653 0.11866 -0.15200
C 	C 	0.85040 0.20704 0.12721 0.09200
H 	H 	0.96460 0.19830 0.13900 0.01700
C 	C 	0.92780 0.31832 0.12963 0.36300
C 	C 	0.52970 0.99000 0.48360 -0.03400
H 	H 	0.54890 0.94900 0.47830 0.03900
Zn	Zn	0.74405 0.63912 0.16591 1.20800
Zn	Zn	0.29255 0.87941 0.33268 1.20800
O 	O 	0.60440 0.71286 0.15099 -0.45700
O 	O 	0.43090 0.65358 0.11106 -0.33300
O 	O 	0.82460 0.10656 0.28287 -0.48000
O 	O 	0.82490 0.01051 0.30226 -0.32500
O 	O 	0.43070 0.80635 0.34838 -0.46400
O 	O 	0.61410 0.87006 0.38268 -0.33100
O 	O 	0.13820 0.41211 0.21850 -0.47900
O 	O 	0.17690 0.50762 0.20052 -0.32700
S 	S 	0.09908 0.61779 0.40937 -0.03600
S 	S 	0.91534 0.89732 0.09668 -0.00400
S 	S 	0.01672 0.98135 0.10896 -0.02900
S 	S 	0.97819 0.53801 0.39345 -0.00500
N 	N 	0.96000 0.95284 0.18812 -0.13800
N 	N 	0.05150 0.78975 0.09225 -0.13900
N 	N 	0.82180 0.59317 0.11791 -0.28200
N 	N 	0.97820 0.68659 0.18384 -0.26300
N 	N 	0.05760 0.83194 0.31428 -0.26300
N 	N 	0.20850 0.92591 0.37976 -0.28500
N 	N 	0.99340 0.46736 0.33170 -0.13800
N 	N 	0.76760 0.66075 0.38118 -0.14100
C 	C 	0.46720 0.70329 0.12657 0.36500
C 	C 	0.34490 0.75608 0.11726 -0.14600
C 	C 	0.17640 0.74668 0.09836 0.09200
H 	H 	0.14750 0.70760 0.08920 0.01800
C 	C 	0.38840 0.81550 0.12825 0.09500
H 	H 	0.50190 0.82450 0.14030 0.01900
C 	C 	0.26520 0.86077 0.12150 -0.17000
H 	H 	0.29390 0.90090 0.12830 0.10600
C 	C 	0.09870 0.84585 0.10445 0.11600
C 	C 	0.97240 0.99707 0.16002 0.13400
C 	C 	0.95790 0.05606 0.16813 -0.20000
H 	H 	0.97490 0.08510 0.14830 0.11200
C 	C 	0.91850 0.07306 0.20525 0.12400
H 	H 	0.90610 0.11430 0.21060 -0.00000
C 	C 	0.89590 0.03208 0.23552 -0.16200
C 	C 	0.92070 0.97121 0.22606 0.09800
H 	H 	0.91040 0.94190 0.24610 0.01200
C 	C 	0.84530 0.04962 0.27708 0.38200
C 	C 	0.84890 0.62750 0.08514 0.10600
H 	H 	0.82780 0.66920 0.08650 -0.02400
C 	C 	0.90490 0.60460 0.05045 -0.18400
H 	H 	0.92400 0.63060 0.02900 0.09700
C 	C 	0.93400 0.54330 0.04666 0.12700
C 	C 	0.90410 0.50750 0.07977 -0.17900
H 	H 	0.92060 0.46560 0.07840 0.10800
C 	C 	0.85010 0.53312 0.11491 0.10700
H 	H 	0.83300 0.50810 0.13700 -0.00200
C 	C 	0.99870 0.52860 0.00580 -0.03500
H 	H 	0.03580 0.55940 0.98920 0.01300
C 	C 	0.12770 0.65522 0.19413 0.09600
H 	H 	0.12810 0.61380 0.18840 -0.00700
C 	C 	0.28070 0.68068 0.21271 -0.18100
H 	H 	0.38060 0.65660 0.21950 0.10200
C 	C 	0.28540 0.74271 0.22127 0.13400
C 	C 	0.13280 0.77593 0.20900 -0.18500
H 	H 	0.13080 0.81780 0.21310 0.10300
C 	C 	0.98390 0.74673 0.19072 0.11000
H 	H 	0.88310 0.76980 0.18280 -0.00200
C 	C 	0.44050 0.77264 0.24315 -0.09200
H 	H 	0.42780 0.81350 0.24970 0.06700
C 	C 	0.59590 0.74715 0.25445 -0.08700
H 	H 	0.60860 0.70630 0.24770 0.06500
C 	C 	0.75020 0.77653 0.27645 0.13000
C 	C 	0.90380 0.74383 0.28796 -0.17500
H 	H 	0.90540 0.70210 0.28330 0.09500
C 	C 	0.05390 0.77171 0.30619 0.09800
H 	H 	0.15560 0.74850 0.31310 -0.00500
C 	C 	0.90660 0.86300 0.30560 0.10200
H 	H 	0.90520 0.90400 0.31270 -0.00600
C 	C 	0.75350 0.83818 0.28689 -0.17700
H 	H 	0.65250 0.86220 0.28120 0.10200
C 	C 	0.19620 0.89469 0.41448 0.10700
H 	H 	0.23320 0.85430 0.41560 -0.03000
C 	C 	0.13180 0.91959 0.44813 -0.18600
H 	H 	0.12200 0.89590 0.47120 0.09700
C 	C 	0.08060 0.98088 0.44773 0.14200
C 	C 	0.09650 0.01262 0.41215 -0.19600
H 	H 	0.06520 0.05360 0.41050 0.11600
C 	C 	0.15790 0.98441 0.37928 0.11800
H 	H 	0.16490 0.00680 0.35560 -0.00500
C 	C 	0.01700 0.01258 0.48268 -0.09100
H 	H 	0.99920 0.05440 0.48020 0.06800
C 	C 	0.13850 0.46908 0.22492 0.37800
C 	C 	0.09240 0.48980 0.26610 -0.15100
C 	C 	0.11440 0.54960 0.27804 0.09100
H 	H 	0.15310 0.57810 0.25990 0.00900
C 	C 	0.07990 0.56780 0.31649 -0.16800
H 	H 	0.09480 0.60820 0.32460 0.09300
C 	C 	0.02350 0.52519 0.34212 0.11400
C 	C 	0.02970 0.45084 0.29415 0.09500
H 	H 	0.01120 0.41040 0.28660 0.01700
C 	C 	0.93290 0.67530 0.39861 0.13000
C 	C 	0.98300 0.73096 0.40784 -0.19800
H 	H 	0.09770 0.73890 0.41970 0.10100
C 	C 	0.86690 0.77620 0.40003 0.10900
H 	H 	0.90130 0.81570 0.40730 0.00400
C 	C 	0.69600 0.76653 0.38134 -0.15100
C 	C 	0.64960 0.70704 0.37279 0.09100
H 	H 	0.53540 0.69830 0.36100 0.01700
C 	C 	0.57220 0.81832 0.37037 0.36100
C 	C 	0.97030 0.49000 0.01640 -0.03400
H 	H 	0.95110 0.44900 0.02170 0.03900
Zn	Zn	0.24405 0.86088 0.66591 1.20800
Zn	Zn	0.79255 0.62059 0.83268 1.20800
O 	O 	0.10440 0.78714 0.65099 -0.45600
O 	O 	0.93090 0.84642 0.61106 -0.33300
O 	O 	0.32460 0.39344 0.78287 -0.48000
O 	O 	0.32490 0.48949 0.80226 -0.32500
O 	O 	0.93070 0.69365 0.84838 -0.46500
O 	O 	0.11410 0.62994 0.88268 -0.33100
O 	O 	0.63820 0.08789 0.71850 -0.47900
O 	O 	0.67690 0.99238 0.70052 -0.32700
S 	S 	0.59908 0.88221 0.90937 -0.03400
S 	S 	0.41534 0.60268 0.59668 -0.00600
S 	S 	0.51672 0.51865 0.60896 -0.02700
S 	S 	0.47819 0.96199 0.89345 -0.00800
N 	N 	0.46000 0.54716 0.68812 -0.13800
N 	N 	0.55150 0.71025 0.59225 -0.13900
N 	N 	0.32180 0.90683 0.61791 -0.28200
N 	N 	0.47820 0.81341 0.68384 -0.26400
N 	N 	0.55760 0.66806 0.81428 -0.26200
N 	N 	0.70850 0.57409 0.87976 -0.28500
N 	N 	0.49340 0.03264 0.83170 -0.14000
N 	N 	0.26760 0.83925 0.88118 -0.14100
C 	C 	0.96720 0.79671 0.62657 0.36400
C 	C 	0.84490 0.74392 0.61726 -0.14400
C 	C 	0.67640 0.75332 0.59836 0.09100
H 	H 	0.64750 0.79240 0.58920 0.01800
C 	C 	0.88840 0.68450 0.62825 0.09100
H 	H 	0.00190 0.67550 0.64030 0.02100
C 	C 	0.76520 0.63923 0.62150 -0.16900
H 	H 	0.79390 0.59910 0.62830 0.10500
C 	C 	0.59870 0.65415 0.60445 0.11600
C 	C 	0.47240 0.50293 0.66002 0.13300
C 	C 	0.45790 0.44394 0.66813 -0.19800
H 	H 	0.47490 0.41490 0.64830 0.11100
C 	C 	0.41850 0.42694 0.70525 0.12300
H 	H 	0.40610 0.38570 0.71060 0.00000
C 	C 	0.39590 0.46792 0.73552 -0.16100
C 	C 	0.42070 0.52879 0.72606 0.09700
H 	H 	0.41040 0.55810 0.74610 0.01200
C 	C 	0.34530 0.45038 0.77708 0.38200
C 	C 	0.34890 0.87250 0.58514 0.10600
H 	H 	0.32780 0.83080 0.58650 -0.02400
C 	C 	0.40490 0.89540 0.55045 -0.18400
H 	H 	0.42400 0.86940 0.52900 0.09700
C 	C 	0.43400 0.95670 0.54666 0.12700
C 	C 	0.40410 0.99250 0.57977 -0.17900
H 	H 	0.42060 0.03440 0.57840 0.10800
C 	C 	0.35010 0.96688 0.61491 0.10700
H 	H 	0.33300 0.99190 0.63700 -0.00200
C 	C 	0.49870 0.97140 0.50580 -0.03400
H 	H 	0.53580 0.94060 0.48920 0.01400
C 	C 	0.62770 0.84478 0.69413 0.09800
H 	H 	0.62810 0.88620 0.68840 -0.00700
C 	C 	0.78070 0.81932 0.71271 -0.18100
H 	H 	0.88060 0.84340 0.71950 0.10100
C 	C 	0.78540 0.75729 0.72127 0.13400
C 	C 	0.63280 0.72407 0.70900 -0.18200
H 	H 	0.63080 0.68220 0.71310 0.10300
C 	C 	0.48390 0.75327 0.69072 0.10700
H 	H 	0.38310 0.73020 0.68280 -0.00100
C 	C 	0.94050 0.72736 0.74315 -0.09300
H 	H 	0.92780 0.68650 0.74970 0.06800
C 	C 	0.09590 0.75285 0.75445 -0.08500
H 	H 	0.10860 0.79370 0.74770 0.06400
C 	C 	0.25020 0.72347 0.77645 0.13000
C 	C 	0.40380 0.75617 0.78796 -0.17800
H 	H 	0.40540 0.79790 0.78330 0.09500
C 	C 	0.55390 0.72829 0.80619 0.10100
H 	H 	0.65560 0.75150 0.81310 -0.00600
C 	C 	0.40660 0.63700 0.80560 0.10000
H 	H 	0.40520 0.59600 0.81270 -0.00600
C 	C 	0.25350 0.66182 0.78689 -0.17600
H 	H 	0.15250 0.63780 0.78120 0.10200
C 	C 	0.69620 0.60531 0.91448 0.10800
H 	H 	0.73320 0.64570 0.91560 -0.03100
C 	C 	0.63180 0.58041 0.94813 -0.18700
H 	H 	0.62200 0.60410 0.97120 0.09800
C 	C 	0.58060 0.51912 0.94773 0.14400
C 	C 	0.59650 0.48738 0.91215 -0.19800
H 	H 	0.56520 0.44640 0.91050 0.11700
C 	C 	0.65790 0.51559 0.87928 0.12000
H 	H 	0.66490 0.49320 0.85560 -0.00600
C 	C 	0.51700 0.48742 0.98268 -0.09200
H 	H 	0.49920 0.44560 0.98020 0.06800
C 	C 	0.63850 0.03092 0.72492 0.37800
C 	C 	0.59240 0.01020 0.76610 -0.15300
C 	C 	0.61440 0.95040 0.77804 0.09300
H 	H 	0.65310 0.92190 0.75990 0.00800
C 	C 	0.57990 0.93220 0.81649 -0.17000
H 	H 	0.59480 0.89180 0.82460 0.09400
C 	C 	0.52350 0.97481 0.84212 0.11700
C 	C 	0.52970 0.04916 0.79415 0.09800
H 	H 	0.51120 0.08960 0.78660 0.01600
C 	C 	0.43290 0.82470 0.89861 0.13000
C 	C 	0.48300 0.76904 0.90784 -0.20100
H 	H 	0.59770 0.76110 0.91970 0.10300
C 	C 	0.36690 0.72380 0.90003 0.11100
H 	H 	0.40130 0.68430 0.90730 0.00300
C 	C 	0.19600 0.73347 0.88134 -0.15200
C 	C 	0.14960 0.79296 0.87279 0.09200
H 	H 	0.03540 0.80170 0.86100 0.01700
C 	C 	0.07220 0.68168 0.87037 0.36300
C 	C 	0.47030 0.01000 0.51640 -0.03400
H 	H 	0.45110 0.05100 0.52170 0.03900
Zn	Zn	0.25595 0.36088 0.83409 1.20800
Zn	Zn	0.70745 0.12059 0.66732 1.20800
O 	O 	0.39560 0.28714 0.84901 -0.45700
O 	O 	0.56910 0.34642 0.88894 -0.33300
O 	O 	0.17540 0.89344 0.71713 -0.48000
O 	O 	0.17510 0.98949 0.69774 -0.32500
O 	O 	0.56930 0.19365 0.65162 -0.46400
O 	O 	0.38590 0.12994 0.61732 -0.33100
O 	O 	0.86180 0.58789 0.78150 -0.47900
O 	O 	0.82310 0.49238 0.79948 -0.32700
S 	S 	0.90092 0.38221 0.59063 -0.03600
S 	S 	0.08466 0.10268 0.90332 -0.00400
S 	S 	0.98328 0.01865 0.89104 -0.02900
S 	S 	0.02181 0.46199 0.60655 -0.00500
N 	N 	0.04000 0.04716 0.81188 -0.13800
N 	N 	0.94850 0.21025 0.90775 -0.13900
N 	N 	0.17820 0.40683 0.88209 -0.28200
N 	N 	0.02180 0.31341 0.81616 -0.26300
N 	N 	0.94240 0.16806 0.68572 -0.26300
N 	N 	0.79150 0.07409 0.62024 -0.28500
N 	N 	0.00660 0.53264 0.66830 -0.13800
N 	N 	0.23240 0.33925 0.61882 -0.14100
C 	C 	0.53280 0.29671 0.87343 0.36500
C 	C 	0.65510 0.24392 0.88274 -0.14600
C 	C 	0.82360 0.25332 0.90164 0.09200
H 	H 	0.85250 0.29240 0.91080 0.01800
C 	C 	0.61160 0.18450 0.87175 0.09500
H 	H 	0.49810 0.17550 0.85970 0.01900
C 	C 	0.73480 0.13923 0.87850 -0.17000
H 	H 	0.70610 0.09910 0.87170 0.10600
C 	C 	0.90130 0.15415 0.89555 0.11600
C 	C 	0.02760 0.00293 0.83998 0.13400
C 	C 	0.04210 0.94394 0.83187 -0.20000
H 	H 	0.02510 0.91490 0.85170 0.11200
C 	C 	0.08150 0.92694 0.79475 0.12400
H 	H 	0.09390 0.88570 0.78940 -0.00000
C 	C 	0.10410 0.96792 0.76448 -0.16200
C 	C 	0.07930 0.02879 0.77394 0.09800
H 	H 	0.08960 0.05810 0.75390 0.01200
C 	C 	0.15470 0.95038 0.72292 0.38200
C 	C 	0.15110 0.37250 0.91486 0.10600
H 	H 	0.17220 0.33080 0.91350 -0.02400
C 	C 	0.09510 0.39540 0.94955 -0.18400
H 	H 	0.07600 0.36940 0.97100 0.09700
C 	C 	0.06600 0.45670 0.95334 0.12700
C 	C 	0.09590 0.49250 0.92023 -0.17900
H 	H 	0.07940 0.53440 0.92160 0.10800
C 	C 	0.14990 0.46688 0.88509 0.10700
H 	H 	0.16700 0.49190 0.86300 -0.00200
C 	C 	0.00130 0.47140 0.99420 -0.03500
H 	H 	0.96420 0.44060 0.01080 0.01300
C 	C 	0.87230 0.34478 0.80587 0.09600
H 	H 	0.87190 0.38620 0.81160 -0.00700
C 	C 	0.71930 0.31932 0.78729 -0.18100
H 	H 	0.61940 0.34340 0.78050 0.10200
C 	C 	0.71460 0.25729 0.77873 0.13400
C 	C 	0.86720 0.22407 0.79100 -0.18500
H 	H 	0.86920 0.18220 0.78690 0.10300
C 	C 	0.01610 0.25327 0.80928 0.11000
H 	H 	0.11690 0.23020 0.81720 -0.00200
C 	C 	0.55950 0.22736 0.75685 -0.09200
H 	H 	0.57220 0.18650 0.75030 0.06700
C 	C 	0.40410 0.25285 0.74555 -0.08700
H 	H 	0.39140 0.29370 0.75230 0.06500
C 	C 	0.24980 0.22347 0.72355 0.13000
C 	C 	0.09620 0.25617 0.71204 -0.17500
H 	H 	0.09460 0.29790 0.71670 0.09500
C 	C 	0.94610 0.22829 0.69381 0.09800
H 	H 	0.84440 0.25150 0.68690 -0.00500
C 	C 	0.09340 0.13700 0.69440 0.10200
H 	H 	0.09480 0.09600 0.68730 -0.00600
C 	C 	0.24650 0.16182 0.71311 -0.17700
H 	H 	0.34750 0.13780 0.71880 0.10200
C 	C 	0.80380 0.10531 0.58552 0.10700
H 	H 	0.76680 0.14570 0.58440 -0.03000
C 	C 	0.86820 0.08041 0.55187 -0.18600
H 	H 	0.87800 0.10410 0.52880 0.09700
C 	C 	0.91940 0.01912 0.55227 0.14200
C 	C 	0.90350 0.98738 0.58785 -0.19600
H 	H 	0.93480 0.94640 0.58950 0.11600
C 	C 	0.84210 0.01559 0.62072 0.11800
H 	H 	0.83510 0.99320 0.64440 -0.00500
C 	C 	0.98300 0.98742 0.51732 -0.09100
H 	H 	0.00080 0.94560 0.51980 0.06800
C 	C 	0.86150 0.53092 0.77508 0.37800
C 	C 	0.90760 0.51020 0.73390 -0.15100
C 	C 	0.88560 0.45040 0.72196 0.09100
H 	H 	0.84690 0.42190 0.74010 0.00900
C 	C 	0.92010 0.43220 0.68351 -0.16800
H 	H 	0.90520 0.39180 0.67540 0.09300
C 	C 	0.97650 0.47481 0.65788 0.11400
C 	C 	0.97030 0.54916 0.70585 0.09500
H 	H 	0.98880 0.58960 0.71340 0.01700
C 	C 	0.06710 0.32470 0.60139 0.13000
C 	C 	0.01700 0.26904 0.59216 -0.19800
H 	H 	0.90230 0.26110 0.58030 0.10100
C 	C 	0.13310 0.22380 0.59997 0.10900
H 	H 	0.09870 0.18430 0.59270 0.00400
C 	C 	0.30400 0.23347 0.61866 -0.15100
C 	C 	0.35040 0.29296 0.62721 0.09100
H 	H 	0.46460 0.30170 0.63900 0.01700
C 	C 	0.42780 0.18168 0.62963 0.36100
C 	C 	0.02970 0.51000 0.98360 -0.03400
H 	H 	0.04890 0.55100 0.97830 0.03900
