data_crystal

_cell_length_a 16.20200
_cell_length_b 22.69100
_cell_length_c 16.77200
_cell_angle_alpha 90.00000
_cell_angle_beta  114.51100
_cell_angle_gamma 90.00000

_symmetry_space_group_name_	'P 1'
_symmetry_space_group_name_H-M	'P 1'

loop_
_symmetry_equiv_pos_as_xyz
  x,y,z

loop_
_atom_site_label
_atom_site_type_symbol
_atom_site_fract_x
_atom_site_fract_y
_atom_site_fract_z
_atom_site_charge
Cd	Cd	0.77929 0.76515 0.62372 1.22300
S 	S 	0.67786 0.97633 0.07891 -0.02900
S 	S 	0.64445 0.00623 0.95691 -0.03400
O 	O 	0.70810 0.83130 0.67160 -0.41400
O 	O 	0.81140 0.79040 0.79190 -0.33100
O 	O 	0.40110 0.79760 0.15860 -0.41100
O 	O 	0.32990 0.79180 0.01610 -0.50300
N 	N 	0.87270 0.84240 0.61890 -0.25200
N 	N 	0.18950 0.18760 0.62590 -0.21400
N 	N 	0.73550 0.90860 0.94620 -0.14500
N 	N 	0.52260 0.91020 0.99460 -0.13300
C 	C 	0.59800 0.90720 0.14820 -0.19800
H 	H 	0.64590 0.91930 0.19950 0.09900
C 	C 	0.74890 0.82720 0.75030 0.33000
C 	C 	0.39270 0.81080 0.08230 0.39500
C 	C 	0.72710 0.87130 0.81000 -0.13800
C 	C 	0.67470 0.92020 0.77290 0.10600
H 	H 	0.65340 0.92660 0.71290 0.00900
C 	C 	0.65400 0.95900 0.82320 -0.22500
H 	H 	0.61840 0.99150 0.79650 0.10900
C 	C 	0.68050 0.95290 0.90250 0.15200
C 	C 	0.75850 0.86870 0.89820 0.08300
H 	H 	0.79770 0.83820 0.92760 0.02100
C 	C 	0.46330 0.85110 0.07690 -0.17100
C 	C 	0.45780 0.87170 0.99940 0.09100
H 	H 	0.40970 0.85990 0.94800 0.02800
C 	C 	0.59010 0.92690 0.07100 0.13400
C 	C 	0.53640 0.86970 0.15110 0.11600
H 	H 	0.54270 0.85540 0.20530 0.01600
C 	C 	0.83850 0.89570 0.60070 0.11400
H 	H 	0.77660 0.90040 0.58480 -0.01400
C 	C 	0.88940 0.94510 0.60380 -0.21100
H 	H 	0.86250 0.98210 0.59190 0.10500
C 	C 	0.97930 0.93870 0.62460 0.14900
C 	C 	0.01350 0.88280 0.64220 -0.22000
H 	H 	0.07490 0.87650 0.65700 0.11300
C 	C 	0.95960 0.83670 0.63820 0.12900
H 	H 	0.98500 0.79920 0.64970 -0.01600
C 	C 	0.04350 0.99180 0.64690 -0.07600
H 	H 	0.10030 0.99050 0.69370 0.05700
C 	C 	0.07730 0.09260 0.61890 0.07100
C 	C 	0.03680 0.14510 0.57500 0.07300
H 	H 	0.97440 0.14830 0.54260 0.00000
C 	C 	0.22410 0.13800 0.66620 -0.16500
H 	H 	0.28680 0.13560 0.69650 0.06400
C 	C 	0.09590 0.19240 0.58290 0.14100
H 	H 	0.07110 0.22850 0.55820 -0.03000
C 	C 	0.17250 0.08850 0.66650 -0.23800
H 	H 	0.19970 0.05430 0.69670 0.10000
C 	C 	0.01470 0.04160 0.59580 -0.01600
H 	H 	0.95810 0.04320 0.54870 0.03200
C 	C 	0.53390 0.48690 0.61000 -0.04400
C 	C 	0.71960 0.63100 0.62690 0.20400
C 	C 	0.66320 0.58320 0.62340 0.11800
C 	C 	0.55040 0.64940 0.61810 -0.19900
C 	C 	0.60760 0.69730 0.62210 -0.09600
C 	C 	0.52060 0.54300 0.63300 -0.05900
H 	H 	0.57550 0.47930 0.58620 0.04200
H 	H 	0.77740 0.62420 0.62990 -0.05200
H 	H 	0.68390 0.54490 0.62420 -0.01100
H 	H 	0.49260 0.65700 0.61480 0.09300
H 	H 	0.58760 0.73570 0.62200 0.05200
H 	H 	0.47870 0.55060 0.65640 0.05200
Cd	Cd	0.27929 0.26515 0.62372 1.22400
S 	S 	0.17786 0.47633 0.07891 -0.02800
S 	S 	0.14445 0.50623 0.95691 -0.03300
O 	O 	0.20810 0.33130 0.67160 -0.41300
O 	O 	0.31140 0.29040 0.79190 -0.33000
O 	O 	0.90110 0.29760 0.15860 -0.41000
O 	O 	0.82990 0.29180 0.01610 -0.50100
N 	N 	0.37270 0.34240 0.61890 -0.25100
N 	N 	0.68950 0.68760 0.62590 -0.21300
N 	N 	0.23550 0.40860 0.94620 -0.14400
N 	N 	0.02260 0.41020 0.99460 -0.13100
C 	C 	0.09800 0.40720 0.14820 -0.19500
H 	H 	0.14590 0.41930 0.19950 0.09900
C 	C 	0.24890 0.32720 0.75030 0.33100
C 	C 	0.89270 0.31080 0.08230 0.39500
C 	C 	0.22710 0.37130 0.81000 -0.13700
C 	C 	0.17470 0.42020 0.77290 0.10700
H 	H 	0.15340 0.42660 0.71290 0.01000
C 	C 	0.15400 0.45900 0.82320 -0.22400
H 	H 	0.11840 0.49150 0.79650 0.11000
C 	C 	0.18050 0.45290 0.90250 0.15300
C 	C 	0.25850 0.36870 0.89820 0.08400
H 	H 	0.29770 0.33820 0.92760 0.02200
C 	C 	0.96330 0.35110 0.07690 -0.16800
C 	C 	0.95780 0.37170 0.99940 0.09000
H 	H 	0.90970 0.35990 0.94800 0.02900
C 	C 	0.09010 0.42690 0.07100 0.13300
C 	C 	0.03640 0.36970 0.15110 0.11300
H 	H 	0.04270 0.35540 0.20530 0.01700
C 	C 	0.33850 0.39570 0.60070 0.11400
H 	H 	0.27660 0.40040 0.58480 -0.01400
C 	C 	0.38940 0.44510 0.60380 -0.21100
H 	H 	0.36250 0.48210 0.59190 0.10500
C 	C 	0.47930 0.43870 0.62460 0.15000
C 	C 	0.51350 0.38280 0.64220 -0.22000
H 	H 	0.57490 0.37650 0.65700 0.11300
C 	C 	0.45960 0.33670 0.63820 0.12900
H 	H 	0.48500 0.29920 0.64970 -0.01600
C 	C 	0.54350 0.49180 0.64690 -0.07600
H 	H 	0.60030 0.49050 0.69370 0.05700
C 	C 	0.57730 0.59260 0.61890 0.07100
C 	C 	0.53680 0.64510 0.57500 0.07200
H 	H 	0.47440 0.64830 0.54260 0.00100
C 	C 	0.72410 0.63800 0.66620 -0.16500
H 	H 	0.78680 0.63560 0.69650 0.06400
C 	C 	0.59590 0.69240 0.58290 0.14000
H 	H 	0.57110 0.72850 0.55820 -0.02900
C 	C 	0.67250 0.58850 0.66650 -0.23700
H 	H 	0.69970 0.55430 0.69670 0.10000
C 	C 	0.51470 0.54160 0.59580 -0.01700
H 	H 	0.45810 0.54320 0.54870 0.03200
C 	C 	0.03390 0.98690 0.61000 -0.04400
C 	C 	0.21960 0.13100 0.62690 0.20500
C 	C 	0.16320 0.08320 0.62340 0.11900
C 	C 	0.05040 0.14940 0.61810 -0.19900
C 	C 	0.10760 0.19730 0.62210 -0.09700
C 	C 	0.02060 0.04300 0.63300 -0.06000
H 	H 	0.07550 0.97930 0.58620 0.04200
H 	H 	0.27740 0.12420 0.62990 -0.05200
H 	H 	0.18390 0.04490 0.62420 -0.01200
H 	H 	0.99260 0.15700 0.61480 0.09300
H 	H 	0.08760 0.23570 0.62200 0.05300
H 	H 	0.97870 0.05060 0.65640 0.05200
Cd	Cd	0.22071 0.76515 0.87628 1.22400
S 	S 	0.32214 0.97633 0.42109 -0.02800
S 	S 	0.35555 0.00623 0.54309 -0.03300
O 	O 	0.29190 0.83130 0.82840 -0.41300
O 	O 	0.18860 0.79040 0.70810 -0.33000
O 	O 	0.59890 0.79760 0.34140 -0.41000
O 	O 	0.67010 0.79180 0.48390 -0.50100
N 	N 	0.12730 0.84240 0.88110 -0.25200
N 	N 	0.81050 0.18760 0.87410 -0.21300
N 	N 	0.26450 0.90860 0.55380 -0.14400
N 	N 	0.47740 0.91020 0.50540 -0.13200
C 	C 	0.40200 0.90720 0.35180 -0.19700
H 	H 	0.35410 0.91930 0.30050 0.10000
C 	C 	0.25110 0.82720 0.74970 0.33100
C 	C 	0.60730 0.81080 0.41770 0.39600
C 	C 	0.27290 0.87130 0.69000 -0.13700
C 	C 	0.32530 0.92020 0.72710 0.10700
H 	H 	0.34660 0.92660 0.78710 0.01000
C 	C 	0.34600 0.95900 0.67680 -0.22400
H 	H 	0.38160 0.99150 0.70350 0.11000
C 	C 	0.31950 0.95290 0.59750 0.15300
C 	C 	0.24150 0.86870 0.60180 0.08400
H 	H 	0.20230 0.83820 0.57240 0.02200
C 	C 	0.53670 0.85110 0.42310 -0.17000
C 	C 	0.54220 0.87170 0.50060 0.09200
H 	H 	0.59030 0.85990 0.55200 0.02900
C 	C 	0.40990 0.92690 0.42900 0.13400
C 	C 	0.46360 0.86970 0.34890 0.11600
H 	H 	0.45730 0.85540 0.29470 0.01600
C 	C 	0.16150 0.89570 0.89930 0.11500
H 	H 	0.22340 0.90040 0.91520 -0.01400
C 	C 	0.11060 0.94510 0.89620 -0.21200
H 	H 	0.13750 0.98210 0.90810 0.10600
C 	C 	0.02070 0.93870 0.87540 0.15100
C 	C 	0.98650 0.88280 0.85780 -0.22300
H 	H 	0.92510 0.87650 0.84300 0.11400
C 	C 	0.04040 0.83670 0.86180 0.13100
H 	H 	0.01500 0.79920 0.85030 -0.01700
C 	C 	0.95650 0.99180 0.85310 -0.07700
H 	H 	0.89970 0.99050 0.80630 0.05700
C 	C 	0.92270 0.09260 0.88110 0.07200
C 	C 	0.96320 0.14510 0.92500 0.07300
H 	H 	0.02560 0.14830 0.95740 0.00000
C 	C 	0.77590 0.13800 0.83380 -0.16600
H 	H 	0.71320 0.13560 0.80350 0.06400
C 	C 	0.90410 0.19240 0.91710 0.14200
H 	H 	0.92890 0.22850 0.94180 -0.03000
C 	C 	0.82750 0.08850 0.83350 -0.23900
H 	H 	0.80030 0.05430 0.80330 0.10100
C 	C 	0.98530 0.04160 0.90420 -0.01600
H 	H 	0.04190 0.04320 0.95130 0.03200
C 	C 	0.46610 0.48690 0.89000 -0.04400
C 	C 	0.28040 0.63100 0.87310 0.20400
C 	C 	0.33680 0.58320 0.87660 0.11800
C 	C 	0.44960 0.64940 0.88190 -0.19900
C 	C 	0.39240 0.69730 0.87790 -0.09600
C 	C 	0.47940 0.54300 0.86700 -0.05900
H 	H 	0.42450 0.47930 0.91380 0.04200
H 	H 	0.22260 0.62420 0.87010 -0.05200
H 	H 	0.31610 0.54490 0.87580 -0.01100
H 	H 	0.50740 0.65700 0.88520 0.09300
H 	H 	0.41240 0.73570 0.87800 0.05200
H 	H 	0.52130 0.55060 0.84360 0.05200
Cd	Cd	0.72071 0.26515 0.87628 1.22400
S 	S 	0.82214 0.47633 0.42109 -0.02800
S 	S 	0.85555 0.50623 0.54309 -0.03300
O 	O 	0.79190 0.33130 0.82840 -0.41300
O 	O 	0.68860 0.29040 0.70810 -0.33000
O 	O 	0.09890 0.29760 0.34140 -0.41000
O 	O 	0.17010 0.29180 0.48390 -0.50100
N 	N 	0.62730 0.34240 0.88110 -0.25100
N 	N 	0.31050 0.68760 0.87410 -0.21300
N 	N 	0.76450 0.40860 0.55380 -0.14400
N 	N 	0.97740 0.41020 0.50540 -0.13200
C 	C 	0.90200 0.40720 0.35180 -0.19700
H 	H 	0.85410 0.41930 0.30050 0.10000
C 	C 	0.75110 0.32720 0.74970 0.33100
C 	C 	0.10730 0.31080 0.41770 0.39600
C 	C 	0.77290 0.37130 0.69000 -0.13700
C 	C 	0.82530 0.42020 0.72710 0.10700
H 	H 	0.84660 0.42660 0.78710 0.01000
C 	C 	0.84600 0.45900 0.67680 -0.22400
H 	H 	0.88160 0.49150 0.70350 0.11000
C 	C 	0.81950 0.45290 0.59750 0.15300
C 	C 	0.74150 0.36870 0.60180 0.08400
H 	H 	0.70230 0.33820 0.57240 0.02200
C 	C 	0.03670 0.35110 0.42310 -0.17000
C 	C 	0.04220 0.37170 0.50060 0.09200
H 	H 	0.09030 0.35990 0.55200 0.02900
C 	C 	0.90990 0.42690 0.42900 0.13400
C 	C 	0.96360 0.36970 0.34890 0.11600
H 	H 	0.95730 0.35540 0.29470 0.01600
C 	C 	0.66150 0.39570 0.89930 0.11400
H 	H 	0.72340 0.40040 0.91520 -0.01400
C 	C 	0.61060 0.44510 0.89620 -0.21100
H 	H 	0.63750 0.48210 0.90810 0.10500
C 	C 	0.52070 0.43870 0.87540 0.15000
C 	C 	0.48650 0.38280 0.85780 -0.22000
H 	H 	0.42510 0.37650 0.84300 0.11300
C 	C 	0.54040 0.33670 0.86180 0.12900
H 	H 	0.51500 0.29920 0.85030 -0.01600
C 	C 	0.45650 0.49180 0.85310 -0.07600
H 	H 	0.39970 0.49050 0.80630 0.05700
C 	C 	0.42270 0.59260 0.88110 0.07100
C 	C 	0.46320 0.64510 0.92500 0.07200
H 	H 	0.52560 0.64830 0.95740 0.00000
C 	C 	0.27590 0.63800 0.83380 -0.16500
H 	H 	0.21320 0.63560 0.80350 0.06400
C 	C 	0.40410 0.69240 0.91710 0.14000
H 	H 	0.42890 0.72850 0.94180 -0.02900
C 	C 	0.32750 0.58850 0.83350 -0.23700
H 	H 	0.30030 0.55430 0.80330 0.10000
C 	C 	0.48530 0.54160 0.90420 -0.01600
H 	H 	0.54190 0.54320 0.95130 0.03200
C 	C 	0.96610 0.98690 0.89000 -0.04400
C 	C 	0.78040 0.13100 0.87310 0.20600
C 	C 	0.83680 0.08320 0.87660 0.12000
C 	C 	0.94960 0.14940 0.88190 -0.20100
C 	C 	0.89240 0.19730 0.87790 -0.09700
C 	C 	0.97940 0.04300 0.86700 -0.06000
H 	H 	0.92450 0.97930 0.91380 0.04200
H 	H 	0.72260 0.12420 0.87010 -0.05300
H 	H 	0.81610 0.04490 0.87580 -0.01200
H 	H 	0.00740 0.15700 0.88520 0.09400
H 	H 	0.91240 0.23570 0.87800 0.05300
H 	H 	0.02130 0.05060 0.84360 0.05300
Cd	Cd	0.22071 0.23485 0.37628 1.22400
S 	S 	0.32214 0.02367 0.92109 -0.02800
S 	S 	0.35555 0.99377 0.04309 -0.03300
O 	O 	0.29190 0.16870 0.32840 -0.41300
O 	O 	0.18860 0.20960 0.20810 -0.33000
O 	O 	0.59890 0.20240 0.84140 -0.41000
O 	O 	0.67010 0.20820 0.98390 -0.50200
N 	N 	0.12730 0.15760 0.38110 -0.25100
N 	N 	0.81050 0.81240 0.37410 -0.21300
N 	N 	0.26450 0.09140 0.05380 -0.14400
N 	N 	0.47740 0.08980 0.00540 -0.13200
C 	C 	0.40200 0.09280 0.85180 -0.19700
H 	H 	0.35410 0.08070 0.80050 0.10000
C 	C 	0.25110 0.17280 0.24970 0.33100
C 	C 	0.60730 0.18920 0.91770 0.39600
C 	C 	0.27290 0.12870 0.19000 -0.13700
C 	C 	0.32530 0.07980 0.22710 0.10700
H 	H 	0.34660 0.07340 0.28710 0.01000
C 	C 	0.34600 0.04100 0.17680 -0.22400
H 	H 	0.38160 0.00850 0.20350 0.11000
C 	C 	0.31950 0.04710 0.09750 0.15300
C 	C 	0.24150 0.13130 0.10180 0.08400
H 	H 	0.20230 0.16180 0.07240 0.02200
C 	C 	0.53670 0.14890 0.92310 -0.17000
C 	C 	0.54220 0.12830 0.00060 0.09200
H 	H 	0.59030 0.14010 0.05200 0.02900
C 	C 	0.40990 0.07310 0.92900 0.13400
C 	C 	0.46360 0.13030 0.84890 0.11600
H 	H 	0.45730 0.14460 0.79470 0.01600
C 	C 	0.16150 0.10430 0.39930 0.11400
H 	H 	0.22340 0.09960 0.41520 -0.01400
C 	C 	0.11060 0.05490 0.39620 -0.21100
H 	H 	0.13750 0.01790 0.40810 0.10500
C 	C 	0.02070 0.06130 0.37540 0.14900
C 	C 	0.98650 0.11720 0.35780 -0.22000
H 	H 	0.92510 0.12350 0.34300 0.11300
C 	C 	0.04040 0.16330 0.36180 0.12900
H 	H 	0.01500 0.20080 0.35030 -0.01600
C 	C 	0.95650 0.00820 0.35310 -0.07600
H 	H 	0.89970 0.00950 0.30630 0.05700
C 	C 	0.92270 0.90740 0.38110 0.07100
C 	C 	0.96320 0.85490 0.42500 0.07300
H 	H 	0.02560 0.85170 0.45740 0.00000
C 	C 	0.77590 0.86200 0.33380 -0.16500
H 	H 	0.71320 0.86440 0.30350 0.06400
C 	C 	0.90410 0.80760 0.41710 0.14100
H 	H 	0.92890 0.77150 0.44180 -0.03000
C 	C 	0.82750 0.91150 0.33350 -0.23800
H 	H 	0.80030 0.94570 0.30330 0.10000
C 	C 	0.98530 0.95840 0.40420 -0.01600
H 	H 	0.04190 0.95680 0.45130 0.03200
C 	C 	0.46610 0.51310 0.39000 -0.04400
C 	C 	0.28040 0.36900 0.37310 0.20400
C 	C 	0.33680 0.41680 0.37660 0.11800
C 	C 	0.44960 0.35060 0.38190 -0.19900
C 	C 	0.39240 0.30270 0.37790 -0.09600
C 	C 	0.47940 0.45700 0.36700 -0.05900
H 	H 	0.42450 0.52070 0.41380 0.04200
H 	H 	0.22260 0.37580 0.37010 -0.05200
H 	H 	0.31610 0.45510 0.37580 -0.01100
H 	H 	0.50740 0.34300 0.38520 0.09300
H 	H 	0.41240 0.26430 0.37800 0.05200
H 	H 	0.52130 0.44940 0.34360 0.05200
Cd	Cd	0.72071 0.73485 0.37628 1.22400
S 	S 	0.82214 0.52367 0.92109 -0.02800
S 	S 	0.85555 0.49377 0.04309 -0.03300
O 	O 	0.79190 0.66870 0.32840 -0.41300
O 	O 	0.68860 0.70960 0.20810 -0.33000
O 	O 	0.09890 0.70240 0.84140 -0.41000
O 	O 	0.17010 0.70820 0.98390 -0.50100
N 	N 	0.62730 0.65760 0.38110 -0.25100
N 	N 	0.31050 0.31240 0.37410 -0.21300
N 	N 	0.76450 0.59140 0.05380 -0.14400
N 	N 	0.97740 0.58980 0.00540 -0.13100
C 	C 	0.90200 0.59280 0.85180 -0.19500
H 	H 	0.85410 0.58070 0.80050 0.09900
C 	C 	0.75110 0.67280 0.24970 0.33100
C 	C 	0.10730 0.68920 0.91770 0.39500
C 	C 	0.77290 0.62870 0.19000 -0.13700
C 	C 	0.82530 0.57980 0.22710 0.10700
H 	H 	0.84660 0.57340 0.28710 0.01000
C 	C 	0.84600 0.54100 0.17680 -0.22400
H 	H 	0.88160 0.50850 0.20350 0.11000
C 	C 	0.81950 0.54710 0.09750 0.15300
C 	C 	0.74150 0.63130 0.10180 0.08400
H 	H 	0.70230 0.66180 0.07240 0.02200
C 	C 	0.03670 0.64890 0.92310 -0.16800
C 	C 	0.04220 0.62830 0.00060 0.09000
H 	H 	0.09030 0.64010 0.05200 0.02900
C 	C 	0.90990 0.57310 0.92900 0.13300
C 	C 	0.96360 0.63030 0.84890 0.11300
H 	H 	0.95730 0.64460 0.79470 0.01700
C 	C 	0.66150 0.60430 0.39930 0.11400
H 	H 	0.72340 0.59960 0.41520 -0.01400
C 	C 	0.61060 0.55490 0.39620 -0.21100
H 	H 	0.63750 0.51790 0.40810 0.10500
C 	C 	0.52070 0.56130 0.37540 0.15000
C 	C 	0.48650 0.61720 0.35780 -0.22000
H 	H 	0.42510 0.62350 0.34300 0.11300
C 	C 	0.54040 0.66330 0.36180 0.12900
H 	H 	0.51500 0.70080 0.35030 -0.01600
C 	C 	0.45650 0.50820 0.35310 -0.07600
H 	H 	0.39970 0.50950 0.30630 0.05700
C 	C 	0.42270 0.40740 0.38110 0.07100
C 	C 	0.46320 0.35490 0.42500 0.07200
H 	H 	0.52560 0.35170 0.45740 0.00100
C 	C 	0.27590 0.36200 0.33380 -0.16500
H 	H 	0.21320 0.36440 0.30350 0.06400
C 	C 	0.40410 0.30760 0.41710 0.14000
H 	H 	0.42890 0.27150 0.44180 -0.02900
C 	C 	0.32750 0.41150 0.33350 -0.23700
H 	H 	0.30030 0.44570 0.30330 0.10000
C 	C 	0.48530 0.45840 0.40420 -0.01700
H 	H 	0.54190 0.45680 0.45130 0.03200
C 	C 	0.96610 0.01310 0.39000 -0.04400
C 	C 	0.78040 0.86900 0.37310 0.20500
C 	C 	0.83680 0.91680 0.37660 0.11900
C 	C 	0.94960 0.85060 0.38190 -0.19900
C 	C 	0.89240 0.80270 0.37790 -0.09700
C 	C 	0.97940 0.95700 0.36700 -0.06000
H 	H 	0.92450 0.02070 0.41380 0.04200
H 	H 	0.72260 0.87580 0.37010 -0.05200
H 	H 	0.81610 0.95510 0.37580 -0.01200
H 	H 	0.00740 0.84300 0.38520 0.09300
H 	H 	0.91240 0.76430 0.37800 0.05300
H 	H 	0.02130 0.94940 0.34360 0.05200
Cd	Cd	0.77929 0.23485 0.12372 1.22400
S 	S 	0.67786 0.02367 0.57891 -0.02800
S 	S 	0.64445 0.99377 0.45691 -0.03300
O 	O 	0.70810 0.16870 0.17160 -0.41300
O 	O 	0.81140 0.20960 0.29190 -0.33000
O 	O 	0.40110 0.20240 0.65860 -0.41000
O 	O 	0.32990 0.20820 0.51610 -0.50100
N 	N 	0.87270 0.15760 0.11890 -0.25200
N 	N 	0.18950 0.81240 0.12590 -0.21300
N 	N 	0.73550 0.09140 0.44620 -0.14400
N 	N 	0.52260 0.08980 0.49460 -0.13200
C 	C 	0.59800 0.09280 0.64820 -0.19700
H 	H 	0.64590 0.08070 0.69950 0.10000
C 	C 	0.74890 0.17280 0.25030 0.33100
C 	C 	0.39270 0.18920 0.58230 0.39600
C 	C 	0.72710 0.12870 0.31000 -0.13700
C 	C 	0.67470 0.07980 0.27290 0.10700
H 	H 	0.65340 0.07340 0.21290 0.01000
C 	C 	0.65400 0.04100 0.32320 -0.22400
H 	H 	0.61840 0.00850 0.29650 0.11000
C 	C 	0.68050 0.04710 0.40250 0.15300
C 	C 	0.75850 0.13130 0.39820 0.08400
H 	H 	0.79770 0.16180 0.42760 0.02200
C 	C 	0.46330 0.14890 0.57690 -0.17000
C 	C 	0.45780 0.12830 0.49940 0.09200
H 	H 	0.40970 0.14010 0.44800 0.02900
C 	C 	0.59010 0.07310 0.57100 0.13400
C 	C 	0.53640 0.13030 0.65110 0.11600
H 	H 	0.54270 0.14460 0.70530 0.01600
C 	C 	0.83850 0.10430 0.10070 0.11500
H 	H 	0.77660 0.09960 0.08480 -0.01400
C 	C 	0.88940 0.05490 0.10380 -0.21200
H 	H 	0.86250 0.01790 0.09190 0.10600
C 	C 	0.97930 0.06130 0.12460 0.15100
C 	C 	0.01350 0.11720 0.14220 -0.22300
H 	H 	0.07490 0.12350 0.15700 0.11400
C 	C 	0.95960 0.16330 0.13820 0.13100
H 	H 	0.98500 0.20080 0.14970 -0.01700
C 	C 	0.04350 0.00820 0.14690 -0.07700
H 	H 	0.10030 0.00950 0.19370 0.05700
C 	C 	0.07730 0.90740 0.11890 0.07200
C 	C 	0.03680 0.85490 0.07500 0.07300
H 	H 	0.97440 0.85170 0.04260 0.00000
C 	C 	0.22410 0.86200 0.16620 -0.16600
H 	H 	0.28680 0.86440 0.19650 0.06400
C 	C 	0.09590 0.80760 0.08290 0.14200
H 	H 	0.07110 0.77150 0.05820 -0.03000
C 	C 	0.17250 0.91150 0.16650 -0.23900
H 	H 	0.19970 0.94570 0.19670 0.10100
C 	C 	0.01470 0.95840 0.09580 -0.01600
H 	H 	0.95810 0.95680 0.04870 0.03200
C 	C 	0.53390 0.51310 0.11000 -0.04400
C 	C 	0.71960 0.36900 0.12690 0.20400
C 	C 	0.66320 0.41680 0.12340 0.11800
C 	C 	0.55040 0.35060 0.11810 -0.19900
C 	C 	0.60760 0.30270 0.12210 -0.09600
C 	C 	0.52060 0.45700 0.13300 -0.05900
H 	H 	0.57550 0.52070 0.08620 0.04200
H 	H 	0.77740 0.37580 0.12990 -0.05200
H 	H 	0.68390 0.45510 0.12420 -0.01100
H 	H 	0.49260 0.34300 0.11480 0.09300
H 	H 	0.58760 0.26430 0.12200 0.05200
H 	H 	0.47870 0.44940 0.15640 0.05200
Cd	Cd	0.27929 0.73485 0.12372 1.22400
S 	S 	0.17786 0.52367 0.57891 -0.02800
S 	S 	0.14445 0.49377 0.45691 -0.03300
O 	O 	0.20810 0.66870 0.17160 -0.41300
O 	O 	0.31140 0.70960 0.29190 -0.33000
O 	O 	0.90110 0.70240 0.65860 -0.41000
O 	O 	0.82990 0.70820 0.51610 -0.50100
N 	N 	0.37270 0.65760 0.11890 -0.25100
N 	N 	0.68950 0.31240 0.12590 -0.21300
N 	N 	0.23550 0.59140 0.44620 -0.14400
N 	N 	0.02260 0.58980 0.49460 -0.13200
C 	C 	0.09800 0.59280 0.64820 -0.19700
H 	H 	0.14590 0.58070 0.69950 0.10000
C 	C 	0.24890 0.67280 0.25030 0.33100
C 	C 	0.89270 0.68920 0.58230 0.39600
C 	C 	0.22710 0.62870 0.31000 -0.13700
C 	C 	0.17470 0.57980 0.27290 0.10700
H 	H 	0.15340 0.57340 0.21290 0.01000
C 	C 	0.15400 0.54100 0.32320 -0.22400
H 	H 	0.11840 0.50850 0.29650 0.11000
C 	C 	0.18050 0.54710 0.40250 0.15300
C 	C 	0.25850 0.63130 0.39820 0.08400
H 	H 	0.29770 0.66180 0.42760 0.02200
C 	C 	0.96330 0.64890 0.57690 -0.17000
C 	C 	0.95780 0.62830 0.49940 0.09200
H 	H 	0.90970 0.64010 0.44800 0.02900
C 	C 	0.09010 0.57310 0.57100 0.13400
C 	C 	0.03640 0.63030 0.65110 0.11600
H 	H 	0.04270 0.64460 0.70530 0.01600
C 	C 	0.33850 0.60430 0.10070 0.11400
H 	H 	0.27660 0.59960 0.08480 -0.01400
C 	C 	0.38940 0.55490 0.10380 -0.21100
H 	H 	0.36250 0.51790 0.09190 0.10500
C 	C 	0.47930 0.56130 0.12460 0.15000
C 	C 	0.51350 0.61720 0.14220 -0.22000
H 	H 	0.57490 0.62350 0.15700 0.11300
C 	C 	0.45960 0.66330 0.13820 0.12900
H 	H 	0.48500 0.70080 0.14970 -0.01600
C 	C 	0.54350 0.50820 0.14690 -0.07600
H 	H 	0.60030 0.50950 0.19370 0.05700
C 	C 	0.57730 0.40740 0.11890 0.07100
C 	C 	0.53680 0.35490 0.07500 0.07200
H 	H 	0.47440 0.35170 0.04260 0.00000
C 	C 	0.72410 0.36200 0.16620 -0.16500
H 	H 	0.78680 0.36440 0.19650 0.06400
C 	C 	0.59590 0.30760 0.08290 0.14000
H 	H 	0.57110 0.27150 0.05820 -0.02900
C 	C 	0.67250 0.41150 0.16650 -0.23700
H 	H 	0.69970 0.44570 0.19670 0.10000
C 	C 	0.51470 0.45840 0.09580 -0.01600
H 	H 	0.45810 0.45680 0.04870 0.03200
C 	C 	0.03390 0.01310 0.11000 -0.04400
C 	C 	0.21960 0.86900 0.12690 0.20600
C 	C 	0.16320 0.91680 0.12340 0.12000
C 	C 	0.05040 0.85060 0.11810 -0.20100
C 	C 	0.10760 0.80270 0.12210 -0.09700
C 	C 	0.02060 0.95700 0.13300 -0.06000
H 	H 	0.07550 0.02070 0.08620 0.04200
H 	H 	0.27740 0.87580 0.12990 -0.05300
H 	H 	0.18390 0.95510 0.12420 -0.01200
H 	H 	0.99260 0.84300 0.11480 0.09400
H 	H 	0.08760 0.76430 0.12200 0.05300
H 	H 	0.97870 0.94940 0.15640 0.05300
