data_crystal

_cell_length_a 10.01600
_cell_length_b 21.93400
_cell_length_c 21.93400
_cell_angle_alpha 87.01180
_cell_angle_beta  76.80180
_cell_angle_gamma 76.80170

_symmetry_space_group_name_	'P 1'
_symmetry_space_group_name_H-M	'P 1'

loop_
_symmetry_equiv_pos_as_xyz
  x,y,z

loop_
_atom_site_label
_atom_site_type_symbol
_atom_site_fract_x
_atom_site_fract_y
_atom_site_fract_z
_atom_site_charge
Mn	Mn	0.97595 0.56637 0.52863 1.32800
Mn	Mn	0.57095 0.93363 0.97138 1.32700
Mn	Mn	0.50458 0.47138 0.06636 1.32800
Mn	Mn	0.54233 0.02862 0.43363 1.32700
Mn	Mn	0.02405 0.43363 0.47137 1.32800
Mn	Mn	0.42905 0.06637 0.02862 1.32700
Mn	Mn	0.49542 0.52862 0.93364 1.32800
Mn	Mn	0.45768 0.97138 0.56636 1.32700
H 	H 	0.24370 0.65690 0.26290 0.08700
H 	H 	0.28660 0.70810 0.29950 0.07800
H 	H 	0.39010 0.64080 0.28440 0.08700
H 	H 	0.44070 0.68520 0.36380 0.06000
H 	H 	0.51910 0.69430 0.45510 0.04200
H 	H 	0.40170 0.66220 0.54980 0.03800
H 	H 	0.21320 0.62680 0.61200 0.03000
H 	H 	0.87140 0.61710 0.76410 0.07200
H 	H 	0.73110 0.60270 0.86070 0.01200
H 	H 	0.60900 0.46670 0.79550 0.01400
H 	H 	0.74030 0.47870 0.69610 0.09100
H 	H 	0.71850 0.51370 0.45670 0.03300
H 	H 	0.70220 0.52430 0.52990 0.02700
H 	H 	0.70120 0.58250 0.48290 0.02800
H 	H 	0.66350 0.84310 0.23710 0.08800
H 	H 	0.79420 0.79190 0.20050 0.07900
H 	H 	0.81530 0.85920 0.21560 0.08700
H 	H 	0.98970 0.81480 0.13620 0.06000
H 	H 	0.16850 0.80570 0.04490 0.04200
H 	H 	0.11370 0.83780 0.95020 0.03800
H 	H 	0.95200 0.87320 0.88800 0.02900
H 	H 	0.75260 0.88290 0.73590 0.07200
H 	H 	0.69450 0.89730 0.63930 0.01100
H 	H 	0.37120 0.03330 0.70450 0.01300
H 	H 	0.41510 0.02130 0.80390 0.09400
H 	H 	0.18890 0.98630 0.04330 0.03200
H 	H 	0.25640 0.97570 0.97010 0.02300
H 	H 	0.26660 0.91750 0.01710 0.02700
H 	H 	0.50660 0.73710 0.15690 0.08800
H 	H 	0.58610 0.70050 0.20810 0.07900
H 	H 	0.67450 0.71560 0.14080 0.08700
H 	H 	0.80450 0.63620 0.18520 0.06000
H 	H 	0.97420 0.54490 0.19430 0.04300
H 	H 	0.95150 0.45020 0.16220 0.03800
H 	H 	0.82520 0.38800 0.12680 0.03000
H 	H 	0.63550 0.23590 0.11710 0.07200
H 	H 	0.59180 0.13930 0.10270 0.01100
H 	H 	0.40450 0.20450 0.96670 0.01300
H 	H 	0.43640 0.30390 0.97870 0.09400
H 	H 	0.17520 0.54330 0.01370 0.03300
H 	H 	0.23210 0.47010 0.02430 0.02700
H 	H 	0.18410 0.51710 0.08250 0.02800
H 	H 	0.90060 0.76290 0.34310 0.08800
H 	H 	0.99470 0.79950 0.29190 0.07900
H 	H 	0.03090 0.78440 0.35920 0.08700
H 	H 	0.12590 0.86380 0.31480 0.06000
H 	H 	0.21340 0.95510 0.30570 0.04200
H 	H 	0.06390 0.04980 0.33780 0.03900
H 	H 	0.84000 0.11200 0.37320 0.03000
H 	H 	0.48850 0.26410 0.38290 0.07200
H 	H 	0.33380 0.36070 0.39730 0.01200
H 	H 	0.07570 0.29550 0.53330 0.01400
H 	H 	0.21900 0.19610 0.52130 0.09100
H 	H 	0.23220 0.95670 0.48630 0.03300
H 	H 	0.22650 0.02990 0.47570 0.02600
H 	H 	0.28370 0.98290 0.41750 0.02800
H 	H 	0.75630 0.34310 0.73710 0.08800
H 	H 	0.71340 0.29190 0.70050 0.07800
H 	H 	0.60990 0.35920 0.71560 0.08700
H 	H 	0.55930 0.31480 0.63620 0.06000
H 	H 	0.48090 0.30570 0.54490 0.04200
H 	H 	0.59830 0.33780 0.45020 0.03800
H 	H 	0.78680 0.37320 0.38800 0.03000
H 	H 	0.12860 0.38290 0.23590 0.07200
H 	H 	0.26890 0.39730 0.13930 0.01200
H 	H 	0.39100 0.53330 0.20450 0.01400
H 	H 	0.25970 0.52130 0.30390 0.09100
H 	H 	0.28150 0.48630 0.54330 0.03300
H 	H 	0.29780 0.47570 0.47010 0.02700
H 	H 	0.29880 0.41750 0.51710 0.02800
H 	H 	0.33650 0.15690 0.76290 0.08800
H 	H 	0.20580 0.20810 0.79950 0.07900
H 	H 	0.18470 0.14080 0.78440 0.08700
H 	H 	0.01030 0.18520 0.86380 0.06000
H 	H 	0.83150 0.19430 0.95510 0.04200
H 	H 	0.88630 0.16220 0.04980 0.03800
H 	H 	0.04800 0.12680 0.11200 0.02900
H 	H 	0.24740 0.11710 0.26410 0.07200
H 	H 	0.30550 0.10270 0.36070 0.01100
H 	H 	0.62880 0.96670 0.29550 0.01300
H 	H 	0.58490 0.97870 0.19610 0.09400
H 	H 	0.81110 0.01370 0.95670 0.03200
H 	H 	0.74360 0.02430 0.02990 0.02300
H 	H 	0.73340 0.08250 0.98290 0.02700
H 	H 	0.49340 0.26290 0.84310 0.08800
H 	H 	0.41390 0.29950 0.79190 0.07900
H 	H 	0.32550 0.28440 0.85920 0.08700
H 	H 	0.19550 0.36380 0.81480 0.06000
H 	H 	0.02580 0.45510 0.80570 0.04300
H 	H 	0.04850 0.54980 0.83780 0.03800
H 	H 	0.17480 0.61200 0.87320 0.03000
H 	H 	0.36450 0.76410 0.88290 0.07200
H 	H 	0.40820 0.86070 0.89730 0.01100
H 	H 	0.59550 0.79550 0.03330 0.01300
H 	H 	0.56360 0.69610 0.02130 0.09400
H 	H 	0.82480 0.45670 0.98630 0.03300
H 	H 	0.76790 0.52990 0.97570 0.02700
H 	H 	0.81590 0.48290 0.91750 0.02800
H 	H 	0.09940 0.23710 0.65690 0.08800
H 	H 	0.00530 0.20050 0.70810 0.07900
H 	H 	0.96910 0.21560 0.64080 0.08700
H 	H 	0.87410 0.13620 0.68520 0.06000
H 	H 	0.78660 0.04490 0.69430 0.04200
H 	H 	0.93610 0.95020 0.66220 0.03900
H 	H 	0.16000 0.88800 0.62680 0.03000
H 	H 	0.51150 0.73590 0.61710 0.07200
H 	H 	0.66620 0.63930 0.60270 0.01200
H 	H 	0.92430 0.70450 0.46670 0.01400
H 	H 	0.78100 0.80390 0.47870 0.09100
H 	H 	0.76780 0.04330 0.51370 0.03300
H 	H 	0.77350 0.97010 0.52430 0.02600
H 	H 	0.71630 0.01710 0.58250 0.02800
C 	C 	0.29140 0.66338 0.29562 -0.17200
C 	C 	0.27725 0.64715 0.40475 0.06800
C 	C 	0.39215 0.67179 0.40271 -0.08800
C 	C 	0.43895 0.67735 0.45715 -0.02800
C 	C 	0.36973 0.65847 0.51287 -0.02200
C 	C 	0.25024 0.63332 0.51640 -0.09000
C 	C 	0.20381 0.62540 0.46238 0.14500
C 	C 	0.17772 0.61864 0.57732 0.04700
C 	C 	0.90131 0.56114 0.65564 0.17200
C 	C 	0.81904 0.55039 0.71913 0.02800
C 	C 	0.81656 0.58634 0.76914 -0.10400
C 	C 	0.73326 0.57715 0.82673 0.05700
C 	C 	0.66169 0.49835 0.78867 0.06000
C 	C 	0.74015 0.50480 0.72930 -0.10400
C 	C 	0.74140 0.53791 0.48769 -0.00100
C 	C 	0.75040 0.83662 0.20438 -0.17200
C 	C 	0.82915 0.85285 0.09525 0.06800
C 	C 	0.96665 0.82821 0.09729 -0.08800
C 	C 	0.07345 0.82265 0.04285 -0.02600
C 	C 	0.04107 0.84153 0.98713 -0.02300
C 	C 	0.89996 0.86668 0.98360 -0.09300
C 	C 	0.79159 0.87460 0.03762 0.14700
C 	C 	0.87368 0.88136 0.92268 0.04800
C 	C 	0.61809 0.93886 0.84436 0.17000
C 	C 	0.58856 0.94961 0.78087 0.03100
C 	C 	0.67204 0.91366 0.73086 -0.10600
C 	C 	0.63714 0.92285 0.67327 0.05800
C 	C 	0.44871 0.00165 0.71133 0.06500
C 	C 	0.47425 0.99520 0.77070 -0.11100
C 	C 	0.26700 0.96209 0.01231 0.00600
C 	C 	0.58702 0.70438 0.16338 -0.17200
C 	C 	0.68200 0.59525 0.14715 0.06800
C 	C 	0.79486 0.59729 0.17179 -0.08800
C 	C 	0.89610 0.54285 0.17735 -0.02800
C 	C 	0.88260 0.48713 0.15847 -0.02200
C 	C 	0.76664 0.48360 0.13332 -0.09000
C 	C 	0.66619 0.53762 0.12540 0.14500
C 	C 	0.75504 0.42268 0.11864 0.04700
C 	C 	0.55695 0.34436 0.06114 0.17000
C 	C 	0.53817 0.28087 0.05039 0.03100
C 	C 	0.58570 0.23086 0.08634 -0.10600
C 	C 	0.55999 0.17327 0.07715 0.05800
C 	C 	0.45036 0.21133 0.99835 0.06600
C 	C 	0.46945 0.27070 0.00480 -0.11100
C 	C 	0.22909 0.51231 0.03791 -0.00100
C 	C 	0.95478 0.79562 0.33662 -0.17200
C 	C 	0.92440 0.90475 0.35285 0.06800
C 	C 	0.06394 0.90271 0.32821 -0.08900
C 	C 	0.11630 0.95715 0.32265 -0.02400
C 	C 	0.02820 0.01287 0.34153 -0.02600
C 	C 	0.88356 0.01640 0.36668 -0.08800
C 	C 	0.82921 0.96238 0.37460 0.14400
C 	C 	0.79636 0.07732 0.38136 0.04600
C 	C 	0.46245 0.15564 0.43886 0.17200
C 	C 	0.36943 0.21913 0.44961 0.02800
C 	C 	0.40290 0.26914 0.41366 -0.10400
C 	C 	0.31041 0.32673 0.42285 0.05700
C 	C 	0.16004 0.28867 0.50165 0.05900
C 	C 	0.24495 0.22930 0.49520 -0.10400
C 	C 	0.27931 0.98769 0.46209 0.00000
C 	C 	0.70860 0.33662 0.70438 -0.17200
C 	C 	0.72275 0.35285 0.59525 0.06800
C 	C 	0.60785 0.32821 0.59729 -0.08800
C 	C 	0.56105 0.32265 0.54285 -0.02800
C 	C 	0.63027 0.34153 0.48713 -0.02200
C 	C 	0.74976 0.36668 0.48360 -0.09000
C 	C 	0.79619 0.37460 0.53762 0.14500
C 	C 	0.82228 0.38136 0.42268 0.04700
C 	C 	0.09869 0.43886 0.34436 0.17200
C 	C 	0.18096 0.44961 0.28087 0.02800
C 	C 	0.18344 0.41366 0.23086 -0.10400
C 	C 	0.26674 0.42285 0.17327 0.05700
C 	C 	0.33831 0.50165 0.21133 0.06000
C 	C 	0.25985 0.49520 0.27070 -0.10400
C 	C 	0.25860 0.46209 0.51231 -0.00100
C 	C 	0.24960 0.16338 0.79562 -0.17200
C 	C 	0.17085 0.14715 0.90475 0.06800
C 	C 	0.03335 0.17179 0.90271 -0.08800
C 	C 	0.92655 0.17735 0.95715 -0.02600
C 	C 	0.95893 0.15847 0.01287 -0.02300
C 	C 	0.10004 0.13332 0.01640 -0.09300
C 	C 	0.20841 0.12540 0.96238 0.14700
C 	C 	0.12632 0.11864 0.07732 0.04800
C 	C 	0.38191 0.06114 0.15564 0.17000
C 	C 	0.41144 0.05039 0.21913 0.03100
C 	C 	0.32796 0.08634 0.26914 -0.10600
C 	C 	0.36286 0.07715 0.32673 0.05800
C 	C 	0.55129 0.99835 0.28867 0.06500
C 	C 	0.52575 0.00480 0.22930 -0.11100
C 	C 	0.73300 0.03791 0.98769 0.00600
C 	C 	0.41298 0.29562 0.83662 -0.17200
C 	C 	0.31800 0.40475 0.85285 0.06800
C 	C 	0.20514 0.40271 0.82821 -0.08800
C 	C 	0.10390 0.45715 0.82265 -0.02800
C 	C 	0.11740 0.51287 0.84153 -0.02200
C 	C 	0.23336 0.51640 0.86668 -0.09000
C 	C 	0.33381 0.46238 0.87460 0.14500
C 	C 	0.24496 0.57732 0.88136 0.04700
C 	C 	0.44305 0.65564 0.93886 0.17000
C 	C 	0.46183 0.71913 0.94961 0.03100
C 	C 	0.41430 0.76914 0.91366 -0.10600
C 	C 	0.44001 0.82673 0.92285 0.05800
C 	C 	0.54964 0.78867 0.00165 0.06600
C 	C 	0.53055 0.72930 0.99520 -0.11100
C 	C 	0.77091 0.48769 0.96209 -0.00100
C 	C 	0.04522 0.20438 0.66338 -0.17200
C 	C 	0.07560 0.09525 0.64715 0.06800
C 	C 	0.93606 0.09729 0.67179 -0.08900
C 	C 	0.88370 0.04285 0.67735 -0.02400
C 	C 	0.97180 0.98713 0.65847 -0.02600
C 	C 	0.11644 0.98360 0.63332 -0.08800
C 	C 	0.17079 0.03762 0.62540 0.14400
C 	C 	0.20364 0.92268 0.61864 0.04600
C 	C 	0.53755 0.84436 0.56114 0.17200
C 	C 	0.63057 0.78087 0.55039 0.02800
C 	C 	0.59710 0.73086 0.58634 -0.10400
C 	C 	0.68959 0.67327 0.57715 0.05700
C 	C 	0.83996 0.71133 0.49835 0.05900
C 	C 	0.75505 0.77070 0.50480 -0.10400
C 	C 	0.72069 0.01231 0.53791 0.00000
N 	N 	0.06796 0.59531 0.58877 -0.22300
N 	N 	0.00677 0.58692 0.65254 -0.12400
N 	N 	0.65545 0.53407 0.83723 -0.20600
N 	N 	0.75204 0.90469 0.91123 -0.22300
N 	N 	0.74623 0.91308 0.84746 -0.12500
N 	N 	0.52675 0.96593 0.66277 -0.20700
N 	N 	0.65673 0.41123 0.09531 -0.22300
N 	N 	0.65931 0.34746 0.08692 -0.12400
N 	N 	0.49268 0.16277 0.03407 -0.20800
N 	N 	0.66327 0.08877 0.40469 -0.22300
N 	N 	0.59369 0.15254 0.41308 -0.12500
N 	N 	0.18952 0.33723 0.46593 -0.20600
N 	N 	0.93204 0.40469 0.41123 -0.22300
N 	N 	0.99323 0.41308 0.34746 -0.12400
N 	N 	0.34455 0.46593 0.16277 -0.20600
N 	N 	0.24796 0.09531 0.08877 -0.22300
N 	N 	0.25377 0.08692 0.15254 -0.12500
N 	N 	0.47325 0.03407 0.33723 -0.20800
N 	N 	0.34327 0.58877 0.90469 -0.22300
N 	N 	0.34069 0.65254 0.91308 -0.12400
N 	N 	0.50732 0.83723 0.96593 -0.20800
N 	N 	0.33673 0.91123 0.59531 -0.22300
N 	N 	0.40631 0.84746 0.58692 -0.12500
N 	N 	0.81048 0.66277 0.53407 -0.20600
O 	O 	0.22429 0.64020 0.35382 -0.15300
O 	O 	0.09608 0.60035 0.46169 -0.39800
O 	O 	0.86171 0.54441 0.60757 -0.39800
O 	O 	0.88861 0.52811 0.47847 -0.49300
O 	O 	0.71831 0.85980 0.14618 -0.15300
O 	O 	0.65812 0.89965 0.03831 -0.39800
O 	O 	0.51369 0.95559 0.89243 -0.39800
O 	O 	0.39519 0.97189 0.02153 -0.49300
O 	O 	0.57811 0.64618 0.14020 -0.15300
O 	O 	0.55777 0.53831 0.10035 -0.39800
O 	O 	0.46928 0.39243 0.04441 -0.39700
O 	O 	0.36708 0.52153 0.02811 -0.49300
O 	O 	0.86449 0.85382 0.35980 -0.15300
O 	O 	0.69643 0.96169 0.39965 -0.39800
O 	O 	0.40612 0.10757 0.45559 -0.39800
O 	O 	0.41672 0.97847 0.47189 -0.49300
O 	O 	0.77571 0.35980 0.64618 -0.15300
O 	O 	0.90392 0.39965 0.53831 -0.39800
O 	O 	0.13829 0.45559 0.39243 -0.39800
O 	O 	0.11139 0.47189 0.52153 -0.49300
O 	O 	0.28169 0.14020 0.85382 -0.15300
O 	O 	0.34188 0.10035 0.96169 -0.39800
O 	O 	0.48631 0.04441 0.10757 -0.39800
O 	O 	0.60481 0.02811 0.97847 -0.49300
O 	O 	0.42189 0.35382 0.85980 -0.15300
O 	O 	0.44223 0.46169 0.89965 -0.39800
O 	O 	0.53072 0.60757 0.95559 -0.39700
O 	O 	0.63292 0.47847 0.97189 -0.49300
O 	O 	0.13551 0.14618 0.64020 -0.15300
O 	O 	0.30357 0.03831 0.60035 -0.39800
O 	O 	0.59388 0.89243 0.54441 -0.39800
O 	O 	0.58328 0.02153 0.52811 -0.49300
