data_crystal

_cell_length_a 18.18500
_cell_length_b 28.67000
_cell_length_c 20.57200
_cell_angle_alpha 90.00000
_cell_angle_beta  108.00300
_cell_angle_gamma 90.00000

_symmetry_space_group_name_	'P 1'
_symmetry_space_group_name_H-M	'P 1'

loop_
_symmetry_equiv_pos_as_xyz
  x,y,z

loop_
_atom_site_label
_atom_site_type_symbol
_atom_site_fract_x
_atom_site_fract_y
_atom_site_fract_z
_atom_site_charge
Cd	Cd	0.59995 0.08184 0.50672 1.23400
C 	C 	0.60790 0.05150 0.37920 0.31700
C 	C 	0.61550 0.02720 0.31810 -0.06100
C 	C 	0.63810 0.98110 0.32210 -0.01700
H 	H 	0.65260 0.96600 0.36420 0.04900
C 	C 	0.63960 0.95690 0.26430 -0.02600
H 	H 	0.65330 0.92560 0.26790 0.05600
C 	C 	0.62130 0.97860 0.20110 -0.06100
C 	C 	0.59990 0.02430 0.19840 -0.01400
H 	H 	0.58740 0.03960 0.15660 0.05000
C 	C 	0.59590 0.04870 0.25480 -0.02600
H 	H 	0.58010 0.07970 0.25040 0.06000
C 	C 	0.62270 0.95030 0.13970 0.32100
C 	C 	0.67910 0.16190 0.51150 0.30400
C 	C 	0.71600 0.20740 0.50610 -0.05200
C 	C 	0.79370 0.21480 0.53650 -0.02200
H 	H 	0.82380 0.19080 0.56180 0.05400
C 	C 	0.67130 0.24280 0.46950 -0.02400
H 	H 	0.61850 0.23860 0.44900 0.05600
C 	C 	0.44110 0.13450 0.45780 0.13900
H 	H 	0.47130 0.15320 0.43920 -0.01500
C 	C 	0.36790 0.14990 0.45380 -0.23600
H 	H 	0.35030 0.17890 0.43510 0.11000
C 	C 	0.32250 0.12160 0.47780 0.18500
C 	C 	0.35030 0.07990 0.50630 -0.25500
H 	H 	0.32080 0.05970 0.52360 0.12700
C 	C 	0.42250 0.06970 0.50810 0.16400
H 	H 	0.44150 0.04100 0.52710 -0.02800
C 	C 	0.24010 0.13500 0.47520 -0.17600
H 	H 	0.21880 0.11030 0.49630 0.08200
H 	H 	0.24210 0.16310 0.50180 0.08100
C 	C 	0.10780 0.15310 0.39740 -0.07000
H 	H 	0.10230 0.18260 0.41860 0.04600
H 	H 	0.08380 0.12870 0.41640 0.04700
C 	C 	0.07210 0.15570 0.31910 -0.03200
H 	H 	0.07690 0.18730 0.30400 0.03800
H 	H 	0.10080 0.13530 0.29800 0.05200
C 	C 	0.98710 0.14160 0.29510 -0.18200
H 	H 	0.98090 0.11040 0.30950 0.07100
H 	H 	0.96110 0.16300 0.31650 0.01200
C 	C 	0.04220 0.14020 0.33270 -0.04700
H 	H 	0.03420 0.10680 0.32990 0.02900
H 	H 	0.99440 0.15530 0.33240 0.10800
C 	C 	0.06820 0.15740 0.27340 -0.01200
H 	H 	0.07710 0.19050 0.27660 0.00600
H 	H 	0.11550 0.14160 0.27580 -0.00600
N 	N 	0.47010 0.09540 0.48600 -0.26200
N 	N 	0.18910 0.14270 0.40690 -0.20400
H 	H 	0.19150 0.11740 0.38160 0.10700
H 	H 	0.20830 0.16660 0.38910 0.10500
O 	O 	0.62920 0.03010 0.43540 -0.39300
O 	O 	0.58280 0.09160 0.37470 -0.33000
O 	O 	0.60520 0.97240 0.08540 -0.41100
O 	O 	0.63450 0.90780 0.14350 -0.32600
O 	O 	0.71920 0.12550 0.52090 -0.34600
O 	O 	0.60840 0.16170 0.50440 -0.37300
Cd	Cd	0.09995 0.58184 0.50672 1.23300
C 	C 	0.10790 0.55150 0.37920 0.31600
C 	C 	0.11550 0.52720 0.31810 -0.06300
C 	C 	0.13810 0.48110 0.32210 -0.01700
H 	H 	0.15260 0.46600 0.36420 0.04700
C 	C 	0.13960 0.45690 0.26430 -0.02800
H 	H 	0.15330 0.42560 0.26790 0.05500
C 	C 	0.12130 0.47860 0.20110 -0.06000
C 	C 	0.09990 0.52430 0.19840 -0.01700
H 	H 	0.08740 0.53960 0.15660 0.05000
C 	C 	0.09590 0.54870 0.25480 -0.02400
H 	H 	0.08010 0.57970 0.25040 0.05900
C 	C 	0.12270 0.45030 0.13970 0.32100
C 	C 	0.17910 0.66190 0.51150 0.30400
C 	C 	0.21600 0.70740 0.50610 -0.05200
C 	C 	0.29370 0.71480 0.53650 -0.02200
H 	H 	0.32380 0.69080 0.56180 0.05400
C 	C 	0.17130 0.74280 0.46950 -0.02400
H 	H 	0.11850 0.73860 0.44900 0.05600
C 	C 	0.94110 0.63450 0.45780 0.13900
H 	H 	0.97130 0.65320 0.43920 -0.01500
C 	C 	0.86790 0.64990 0.45380 -0.23600
H 	H 	0.85030 0.67890 0.43510 0.11000
C 	C 	0.82250 0.62160 0.47780 0.18500
C 	C 	0.85030 0.57990 0.50630 -0.25500
H 	H 	0.82080 0.55970 0.52360 0.12700
C 	C 	0.92250 0.56970 0.50810 0.16400
H 	H 	0.94150 0.54100 0.52710 -0.02800
C 	C 	0.74010 0.63500 0.47520 -0.17600
H 	H 	0.71880 0.61030 0.49630 0.08200
H 	H 	0.74210 0.66310 0.50180 0.08100
C 	C 	0.60780 0.65310 0.39740 -0.06800
H 	H 	0.60230 0.68260 0.41860 0.04600
H 	H 	0.58380 0.62870 0.41640 0.04600
C 	C 	0.57210 0.65570 0.31910 -0.03200
H 	H 	0.57690 0.68730 0.30400 0.03900
H 	H 	0.60080 0.63530 0.29800 0.05200
C 	C 	0.48710 0.64160 0.29510 -0.17800
H 	H 	0.48090 0.61040 0.30950 0.07000
H 	H 	0.46110 0.66300 0.31650 0.01100
C 	C 	0.54220 0.64020 0.33270 -0.05100
H 	H 	0.53420 0.60680 0.32990 0.03100
H 	H 	0.49440 0.65530 0.33240 0.10900
C 	C 	0.56820 0.65740 0.27340 -0.00800
H 	H 	0.57710 0.69050 0.27660 0.00400
H 	H 	0.61550 0.64160 0.27580 -0.00700
N 	N 	0.97010 0.59540 0.48600 -0.26300
N 	N 	0.68910 0.64270 0.40690 -0.20500
H 	H 	0.69150 0.61740 0.38160 0.10700
H 	H 	0.70830 0.66660 0.38910 0.10500
O 	O 	0.12920 0.53010 0.43540 -0.39300
O 	O 	0.08280 0.59160 0.37470 -0.33000
O 	O 	0.10520 0.47240 0.08540 -0.41100
O 	O 	0.13450 0.40780 0.14350 -0.32600
O 	O 	0.21920 0.62550 0.52090 -0.34600
O 	O 	0.10840 0.66170 0.50440 -0.37300
Cd	Cd	0.40005 0.08184 0.99328 1.23300
C 	C 	0.39210 0.05150 0.12080 0.31600
C 	C 	0.38450 0.02720 0.18190 -0.06200
C 	C 	0.36190 0.98110 0.17790 -0.01800
H 	H 	0.34740 0.96600 0.13580 0.04800
C 	C 	0.36040 0.95690 0.23570 -0.02700
H 	H 	0.34670 0.92560 0.23210 0.05500
C 	C 	0.37870 0.97860 0.29890 -0.06100
C 	C 	0.40010 0.02430 0.30160 -0.01500
H 	H 	0.41260 0.03960 0.34340 0.04900
C 	C 	0.40410 0.04870 0.24520 -0.02600
H 	H 	0.41990 0.07970 0.24960 0.06000
C 	C 	0.37730 0.95030 0.36030 0.32100
C 	C 	0.32090 0.16190 0.98850 0.30400
C 	C 	0.28400 0.20740 0.99390 -0.05200
C 	C 	0.20630 0.21480 0.96350 -0.02200
H 	H 	0.17620 0.19080 0.93820 0.05400
C 	C 	0.32870 0.24280 0.03050 -0.02400
H 	H 	0.38150 0.23860 0.05100 0.05700
C 	C 	0.55890 0.13450 0.04220 0.13900
H 	H 	0.52870 0.15320 0.06080 -0.01500
C 	C 	0.63210 0.14990 0.04620 -0.23600
H 	H 	0.64970 0.17890 0.06490 0.11100
C 	C 	0.67750 0.12160 0.02220 0.18600
C 	C 	0.64970 0.07990 0.99370 -0.25600
H 	H 	0.67920 0.05970 0.97640 0.12700
C 	C 	0.57750 0.06970 0.99190 0.16400
H 	H 	0.55850 0.04100 0.97290 -0.02800
C 	C 	0.75990 0.13500 0.02480 -0.17500
H 	H 	0.78120 0.11030 0.00370 0.08200
H 	H 	0.75790 0.16310 0.99820 0.08000
C 	C 	0.89220 0.15310 0.10260 -0.06600
H 	H 	0.89770 0.18260 0.08140 0.04600
H 	H 	0.91620 0.12870 0.08360 0.04600
C 	C 	0.92790 0.15570 0.18090 -0.03300
H 	H 	0.92310 0.18730 0.19600 0.04000
H 	H 	0.89920 0.13530 0.20200 0.05200
C 	C 	0.01290 0.14160 0.20490 -0.17400
H 	H 	0.01910 0.11040 0.19050 0.06800
H 	H 	0.03890 0.16300 0.18350 0.01000
C 	C 	0.95780 0.14020 0.16730 -0.05400
H 	H 	0.96580 0.10680 0.17010 0.03300
H 	H 	0.00560 0.15530 0.16760 0.10900
C 	C 	0.93180 0.15740 0.22660 -0.00500
H 	H 	0.92290 0.19050 0.22340 0.00300
H 	H 	0.88450 0.14160 0.22420 -0.00700
N 	N 	0.52990 0.09540 0.01400 -0.26200
N 	N 	0.81090 0.14270 0.09310 -0.20500
H 	H 	0.80850 0.11740 0.11840 0.10800
H 	H 	0.79170 0.16660 0.11090 0.10600
O 	O 	0.37080 0.03010 0.06460 -0.39200
O 	O 	0.41720 0.09160 0.12530 -0.33000
O 	O 	0.39480 0.97240 0.41460 -0.41100
O 	O 	0.36550 0.90780 0.35650 -0.32600
O 	O 	0.28080 0.12550 0.97910 -0.34600
O 	O 	0.39160 0.16170 0.99560 -0.37300
Cd	Cd	0.90005 0.58184 0.99328 1.23300
C 	C 	0.89210 0.55150 0.12080 0.31600
C 	C 	0.88450 0.52720 0.18190 -0.06300
C 	C 	0.86190 0.48110 0.17790 -0.01700
H 	H 	0.84740 0.46600 0.13580 0.04700
C 	C 	0.86040 0.45690 0.23570 -0.02800
H 	H 	0.84670 0.42560 0.23210 0.05500
C 	C 	0.87870 0.47860 0.29890 -0.06000
C 	C 	0.90010 0.52430 0.30160 -0.01700
H 	H 	0.91260 0.53960 0.34340 0.05000
C 	C 	0.90410 0.54870 0.24520 -0.02400
H 	H 	0.91990 0.57970 0.24960 0.05900
C 	C 	0.87730 0.45030 0.36030 0.32100
C 	C 	0.82090 0.66190 0.98850 0.30400
C 	C 	0.78400 0.70740 0.99390 -0.05200
C 	C 	0.70630 0.71480 0.96350 -0.02100
H 	H 	0.67620 0.69080 0.93820 0.05400
C 	C 	0.82870 0.74280 0.03050 -0.02400
H 	H 	0.88150 0.73860 0.05100 0.05700
C 	C 	0.05890 0.63450 0.04220 0.13900
H 	H 	0.02870 0.65320 0.06080 -0.01500
C 	C 	0.13210 0.64990 0.04620 -0.23600
H 	H 	0.14970 0.67890 0.06490 0.11000
C 	C 	0.17750 0.62160 0.02220 0.18500
C 	C 	0.14970 0.57990 0.99370 -0.25500
H 	H 	0.17920 0.55970 0.97640 0.12700
C 	C 	0.07750 0.56970 0.99190 0.16500
H 	H 	0.05850 0.54100 0.97290 -0.02800
C 	C 	0.25990 0.63500 0.02480 -0.17700
H 	H 	0.28120 0.61030 0.00370 0.08200
H 	H 	0.25790 0.66310 0.99820 0.08200
C 	C 	0.39220 0.65310 0.10260 -0.06800
H 	H 	0.39770 0.68260 0.08140 0.04600
H 	H 	0.41620 0.62870 0.08360 0.04600
C 	C 	0.42790 0.65570 0.18090 -0.03200
H 	H 	0.42310 0.68730 0.19600 0.03900
H 	H 	0.39920 0.63530 0.20200 0.05200
C 	C 	0.51290 0.64160 0.20490 -0.17800
H 	H 	0.51910 0.61040 0.19050 0.07000
H 	H 	0.53890 0.66300 0.18350 0.01100
C 	C 	0.45780 0.64020 0.16730 -0.05100
H 	H 	0.46580 0.60680 0.17010 0.03100
H 	H 	0.50560 0.65530 0.16760 0.10900
C 	C 	0.43180 0.65740 0.22660 -0.00700
H 	H 	0.42290 0.69050 0.22340 0.00400
H 	H 	0.38450 0.64160 0.22420 -0.00700
N 	N 	0.02990 0.59540 0.01400 -0.26300
N 	N 	0.31090 0.64270 0.09310 -0.20500
H 	H 	0.30850 0.61740 0.11840 0.10700
H 	H 	0.29170 0.66660 0.11090 0.10500
O 	O 	0.87080 0.53010 0.06460 -0.39200
O 	O 	0.91720 0.59160 0.12530 -0.33000
O 	O 	0.89480 0.47240 0.41460 -0.41000
O 	O 	0.86550 0.40780 0.35650 -0.32600
O 	O 	0.78080 0.62550 0.97910 -0.34600
O 	O 	0.89160 0.66170 0.99560 -0.37300
Cd	Cd	0.40005 0.91816 0.49328 1.23300
C 	C 	0.39210 0.94850 0.62080 0.31600
C 	C 	0.38450 0.97280 0.68190 -0.06200
C 	C 	0.36190 0.01890 0.67790 -0.01800
H 	H 	0.34740 0.03400 0.63580 0.04800
C 	C 	0.36040 0.04310 0.73570 -0.02700
H 	H 	0.34670 0.07440 0.73210 0.05500
C 	C 	0.37870 0.02140 0.79890 -0.06200
C 	C 	0.40010 0.97570 0.80160 -0.01500
H 	H 	0.41260 0.96040 0.84340 0.04900
C 	C 	0.40410 0.95130 0.74520 -0.02600
H 	H 	0.41990 0.92030 0.74960 0.06000
C 	C 	0.37730 0.04970 0.86030 0.32100
C 	C 	0.32090 0.83810 0.48850 0.30400
C 	C 	0.28400 0.79260 0.49390 -0.05200
C 	C 	0.20630 0.78520 0.46350 -0.02200
H 	H 	0.17620 0.80920 0.43820 0.05400
C 	C 	0.32870 0.75720 0.53050 -0.02400
H 	H 	0.38150 0.76140 0.55100 0.05600
C 	C 	0.55890 0.86550 0.54220 0.13900
H 	H 	0.52870 0.84680 0.56080 -0.01500
C 	C 	0.63210 0.85010 0.54620 -0.23600
H 	H 	0.64970 0.82110 0.56490 0.11000
C 	C 	0.67750 0.87840 0.52220 0.18500
C 	C 	0.64970 0.92010 0.49370 -0.25500
H 	H 	0.67920 0.94030 0.47640 0.12700
C 	C 	0.57750 0.93030 0.49190 0.16400
H 	H 	0.55850 0.95900 0.47290 -0.02800
C 	C 	0.75990 0.86500 0.52480 -0.17600
H 	H 	0.78120 0.88970 0.50370 0.08200
H 	H 	0.75790 0.83690 0.49820 0.08100
C 	C 	0.89220 0.84690 0.60260 -0.07000
H 	H 	0.89770 0.81740 0.58140 0.04600
H 	H 	0.91620 0.87130 0.58360 0.04700
C 	C 	0.92790 0.84430 0.68090 -0.03200
H 	H 	0.92310 0.81270 0.69600 0.03800
H 	H 	0.89920 0.86470 0.70200 0.05200
C 	C 	0.01290 0.85840 0.70490 -0.18200
H 	H 	0.01910 0.88960 0.69050 0.07100
H 	H 	0.03890 0.83700 0.68350 0.01200
C 	C 	0.95780 0.85980 0.66730 -0.04700
H 	H 	0.96580 0.89320 0.67010 0.02900
H 	H 	0.00560 0.84470 0.66760 0.10800
C 	C 	0.93180 0.84260 0.72660 -0.01200
H 	H 	0.92290 0.80950 0.72340 0.00600
H 	H 	0.88450 0.85840 0.72420 -0.00600
N 	N 	0.52990 0.90460 0.51400 -0.26200
N 	N 	0.81090 0.85730 0.59310 -0.20400
H 	H 	0.80850 0.88260 0.61840 0.10700
H 	H 	0.79170 0.83340 0.61090 0.10500
O 	O 	0.37080 0.96990 0.56460 -0.39300
O 	O 	0.41720 0.90840 0.62530 -0.33000
O 	O 	0.39480 0.02760 0.91460 -0.41100
O 	O 	0.36550 0.09220 0.85650 -0.32600
O 	O 	0.28080 0.87450 0.47910 -0.34600
O 	O 	0.39160 0.83830 0.49560 -0.37300
Cd	Cd	0.90005 0.41816 0.49328 1.23300
C 	C 	0.89210 0.44850 0.62080 0.31600
C 	C 	0.88450 0.47280 0.68190 -0.06300
C 	C 	0.86190 0.51890 0.67790 -0.01700
H 	H 	0.84740 0.53400 0.63580 0.04700
C 	C 	0.86040 0.54310 0.73570 -0.02800
H 	H 	0.84670 0.57440 0.73210 0.05500
C 	C 	0.87870 0.52140 0.79890 -0.06000
C 	C 	0.90010 0.47570 0.80160 -0.01700
H 	H 	0.91260 0.46040 0.84340 0.05000
C 	C 	0.90410 0.45130 0.74520 -0.02400
H 	H 	0.91990 0.42030 0.74960 0.05900
C 	C 	0.87730 0.54970 0.86030 0.32100
C 	C 	0.82090 0.33810 0.48850 0.30400
C 	C 	0.78400 0.29260 0.49390 -0.05200
C 	C 	0.70630 0.28520 0.46350 -0.02200
H 	H 	0.67620 0.30920 0.43820 0.05400
C 	C 	0.82870 0.25720 0.53050 -0.02400
H 	H 	0.88150 0.26140 0.55100 0.05600
C 	C 	0.05890 0.36550 0.54220 0.13900
H 	H 	0.02870 0.34680 0.56080 -0.01500
C 	C 	0.13210 0.35010 0.54620 -0.23600
H 	H 	0.14970 0.32110 0.56490 0.11000
C 	C 	0.17750 0.37840 0.52220 0.18500
C 	C 	0.14970 0.42010 0.49370 -0.25500
H 	H 	0.17920 0.44030 0.47640 0.12700
C 	C 	0.07750 0.43030 0.49190 0.16400
H 	H 	0.05850 0.45900 0.47290 -0.02800
C 	C 	0.25990 0.36500 0.52480 -0.17600
H 	H 	0.28120 0.38970 0.50370 0.08200
H 	H 	0.25790 0.33690 0.49820 0.08100
C 	C 	0.39220 0.34690 0.60260 -0.06800
H 	H 	0.39770 0.31740 0.58140 0.04600
H 	H 	0.41620 0.37130 0.58360 0.04600
C 	C 	0.42790 0.34430 0.68090 -0.03200
H 	H 	0.42310 0.31270 0.69600 0.03900
H 	H 	0.39920 0.36470 0.70200 0.05200
C 	C 	0.51290 0.35840 0.70490 -0.17800
H 	H 	0.51910 0.38960 0.69050 0.07000
H 	H 	0.53890 0.33700 0.68350 0.01100
C 	C 	0.45780 0.35980 0.66730 -0.05100
H 	H 	0.46580 0.39320 0.67010 0.03100
H 	H 	0.50560 0.34470 0.66760 0.10900
C 	C 	0.43180 0.34260 0.72660 -0.00800
H 	H 	0.42290 0.30950 0.72340 0.00400
H 	H 	0.38450 0.35840 0.72420 -0.00700
N 	N 	0.02990 0.40460 0.51400 -0.26300
N 	N 	0.31090 0.35730 0.59310 -0.20500
H 	H 	0.30850 0.38260 0.61840 0.10700
H 	H 	0.29170 0.33340 0.61090 0.10500
O 	O 	0.87080 0.46990 0.56460 -0.39300
O 	O 	0.91720 0.40840 0.62530 -0.33000
O 	O 	0.89480 0.52760 0.91460 -0.41100
O 	O 	0.86550 0.59220 0.85650 -0.32600
O 	O 	0.78080 0.37450 0.47910 -0.34600
O 	O 	0.89160 0.33830 0.49560 -0.37300
Cd	Cd	0.59995 0.91816 0.00672 1.23300
C 	C 	0.60790 0.94850 0.87920 0.31600
C 	C 	0.61550 0.97280 0.81810 -0.06200
C 	C 	0.63810 0.01890 0.82210 -0.01800
H 	H 	0.65260 0.03400 0.86420 0.04800
C 	C 	0.63960 0.04310 0.76430 -0.02700
H 	H 	0.65330 0.07440 0.76790 0.05500
C 	C 	0.62130 0.02140 0.70110 -0.06100
C 	C 	0.59990 0.97570 0.69840 -0.01500
H 	H 	0.58740 0.96040 0.65660 0.04900
C 	C 	0.59590 0.95130 0.75480 -0.02600
H 	H 	0.58010 0.92030 0.75040 0.06000
C 	C 	0.62270 0.04970 0.63970 0.32100
C 	C 	0.67910 0.83810 0.01150 0.30400
C 	C 	0.71600 0.79260 0.00610 -0.05200
C 	C 	0.79370 0.78520 0.03650 -0.02200
H 	H 	0.82380 0.80920 0.06180 0.05400
C 	C 	0.67130 0.75720 0.96950 -0.02400
H 	H 	0.61850 0.76140 0.94900 0.05700
C 	C 	0.44110 0.86550 0.95780 0.13900
H 	H 	0.47130 0.84680 0.93920 -0.01500
C 	C 	0.36790 0.85010 0.95380 -0.23600
H 	H 	0.35030 0.82110 0.93510 0.11100
C 	C 	0.32250 0.87840 0.97780 0.18600
C 	C 	0.35030 0.92010 0.00630 -0.25600
H 	H 	0.32080 0.94030 0.02360 0.12700
C 	C 	0.42250 0.93030 0.00810 0.16400
H 	H 	0.44150 0.95900 0.02710 -0.02800
C 	C 	0.24010 0.86500 0.97520 -0.17500
H 	H 	0.21880 0.88970 0.99630 0.08200
H 	H 	0.24210 0.83690 0.00180 0.08000
C 	C 	0.10780 0.84690 0.89740 -0.06600
H 	H 	0.10230 0.81740 0.91860 0.04600
H 	H 	0.08380 0.87130 0.91640 0.04600
C 	C 	0.07210 0.84430 0.81910 -0.03300
H 	H 	0.07690 0.81270 0.80400 0.04000
H 	H 	0.10080 0.86470 0.79800 0.05200
C 	C 	0.98710 0.85840 0.79510 -0.17400
H 	H 	0.98090 0.88960 0.80950 0.06800
H 	H 	0.96110 0.83700 0.81650 0.01000
C 	C 	0.04220 0.85980 0.83270 -0.05400
H 	H 	0.03420 0.89320 0.82990 0.03300
H 	H 	0.99440 0.84470 0.83240 0.10900
C 	C 	0.06820 0.84260 0.77340 -0.00500
H 	H 	0.07710 0.80950 0.77660 0.00300
H 	H 	0.11550 0.85840 0.77580 -0.00700
N 	N 	0.47010 0.90460 0.98600 -0.26200
N 	N 	0.18910 0.85730 0.90690 -0.20500
H 	H 	0.19150 0.88260 0.88160 0.10800
H 	H 	0.20830 0.83340 0.88910 0.10600
O 	O 	0.62920 0.96990 0.93540 -0.39200
O 	O 	0.58280 0.90840 0.87470 -0.33000
O 	O 	0.60520 0.02760 0.58540 -0.41100
O 	O 	0.63450 0.09220 0.64350 -0.32600
O 	O 	0.71920 0.87450 0.02090 -0.34600
O 	O 	0.60840 0.83830 0.00440 -0.37300
Cd	Cd	0.09995 0.41816 0.00672 1.23300
C 	C 	0.10790 0.44850 0.87920 0.31600
C 	C 	0.11550 0.47280 0.81810 -0.06300
C 	C 	0.13810 0.51890 0.82210 -0.01700
H 	H 	0.15260 0.53400 0.86420 0.04700
C 	C 	0.13960 0.54310 0.76430 -0.02800
H 	H 	0.15330 0.57440 0.76790 0.05500
C 	C 	0.12130 0.52140 0.70110 -0.06000
C 	C 	0.09990 0.47570 0.69840 -0.01700
H 	H 	0.08740 0.46040 0.65660 0.05000
C 	C 	0.09590 0.45130 0.75480 -0.02400
H 	H 	0.08010 0.42030 0.75040 0.05900
C 	C 	0.12270 0.54970 0.63970 0.32100
C 	C 	0.17910 0.33810 0.01150 0.30400
C 	C 	0.21600 0.29260 0.00610 -0.05200
C 	C 	0.29370 0.28520 0.03650 -0.02100
H 	H 	0.32380 0.30920 0.06180 0.05400
C 	C 	0.17130 0.25720 0.96950 -0.02400
H 	H 	0.11850 0.26140 0.94900 0.05700
C 	C 	0.94110 0.36550 0.95780 0.13900
H 	H 	0.97130 0.34680 0.93920 -0.01500
C 	C 	0.86790 0.35010 0.95380 -0.23600
H 	H 	0.85030 0.32110 0.93510 0.11000
C 	C 	0.82250 0.37840 0.97780 0.18500
C 	C 	0.85030 0.42010 0.00630 -0.25500
H 	H 	0.82080 0.44030 0.02360 0.12700
C 	C 	0.92250 0.43030 0.00810 0.16500
H 	H 	0.94150 0.45900 0.02710 -0.02800
C 	C 	0.74010 0.36500 0.97520 -0.17700
H 	H 	0.71880 0.38970 0.99630 0.08200
H 	H 	0.74210 0.33690 0.00180 0.08200
C 	C 	0.60780 0.34690 0.89740 -0.06800
H 	H 	0.60230 0.31740 0.91860 0.04600
H 	H 	0.58380 0.37130 0.91640 0.04600
C 	C 	0.57210 0.34430 0.81910 -0.03200
H 	H 	0.57690 0.31270 0.80400 0.03900
H 	H 	0.60080 0.36470 0.79800 0.05200
C 	C 	0.48710 0.35840 0.79510 -0.17800
H 	H 	0.48090 0.38960 0.80950 0.07000
H 	H 	0.46110 0.33700 0.81650 0.01100
C 	C 	0.54220 0.35980 0.83270 -0.05100
H 	H 	0.53420 0.39320 0.82990 0.03100
H 	H 	0.49440 0.34470 0.83240 0.10900
C 	C 	0.56820 0.34260 0.77340 -0.00700
H 	H 	0.57710 0.30950 0.77660 0.00400
H 	H 	0.61550 0.35840 0.77580 -0.00700
N 	N 	0.97010 0.40460 0.98600 -0.26300
N 	N 	0.68910 0.35730 0.90690 -0.20500
H 	H 	0.69150 0.38260 0.88160 0.10700
H 	H 	0.70830 0.33340 0.88910 0.10500
O 	O 	0.12920 0.46990 0.93540 -0.39200
O 	O 	0.08280 0.40840 0.87470 -0.33000
O 	O 	0.10520 0.52760 0.58540 -0.41000
O 	O 	0.13450 0.59220 0.64350 -0.32600
O 	O 	0.21920 0.37450 0.02090 -0.34600
O 	O 	0.10840 0.33830 0.00440 -0.37300
