data_crystal

_cell_length_a 15.48200
_cell_length_b 16.21200
_cell_length_c 19.63100
_cell_angle_alpha 93.93100
_cell_angle_beta  103.83600
_cell_angle_gamma 106.40600

_symmetry_space_group_name_	'P 1'
_symmetry_space_group_name_H-M	'P 1'

loop_
_symmetry_equiv_pos_as_xyz
  x,y,z

loop_
_atom_site_label
_atom_site_type_symbol
_atom_site_fract_x
_atom_site_fract_y
_atom_site_fract_z
_atom_site_charge
Cd	Cd	0.07736 0.08852 0.19578 1.19300
Cd	Cd	0.67644 0.55165 0.34865 1.21100
C 	C 	0.92260 0.95510 0.22820 0.37000
C 	C 	0.82230 0.89990 0.21960 -0.12600
C 	C 	0.75120 0.91520 0.17250 0.06000
H 	H 	0.76360 0.96400 0.14980 0.03100
C 	C 	0.65980 0.85970 0.15720 -0.11600
C 	C 	0.64270 0.78330 0.18700 0.05400
H 	H 	0.58320 0.74300 0.17440 0.04000
C 	C 	0.71540 0.76790 0.23560 -0.12200
C 	C 	0.80520 0.82620 0.25360 0.05500
H 	H 	0.85310 0.81650 0.28760 0.03900
C 	C 	0.58230 0.87680 0.10210 0.34000
C 	C 	0.69940 0.68560 0.26970 0.37300
C 	C 	0.19330 0.23420 0.27550 0.29900
C 	C 	0.25720 0.31670 0.32390 -0.08100
C 	C 	0.24090 0.34210 0.38610 0.01600
H 	H 	0.18770 0.30930 0.39730 0.05200
C 	C 	0.30020 0.41430 0.43310 -0.07100
C 	C 	0.37660 0.46340 0.41660 0.01700
H 	H 	0.41410 0.51430 0.44670 0.05600
C 	C 	0.40100 0.43990 0.35530 -0.07900
C 	C 	0.34370 0.36270 0.30860 0.01100
H 	H 	0.36100 0.34270 0.27000 0.05100
C 	C 	0.49040 0.48860 0.34170 0.31000
C 	C 	0.29100 0.43290 0.50880 0.29500
C 	C 	0.59120 0.88340 0.91510 0.01400
H 	H 	0.57250 0.84400 0.94510 0.01400
C 	C 	0.63730 0.86280 0.86900 -0.03400
H 	H 	0.65100 0.81050 0.86840 0.05000
C 	C 	0.66310 0.91800 0.82400 -0.09000
H 	H 	0.69320 0.90350 0.79150 0.04800
C 	C 	0.64480 0.99470 0.82650 0.08200
C 	C 	0.59820 0.01430 0.87180 -0.08000
H 	H 	0.58350 0.06610 0.87110 0.04000
C 	C 	0.67130 0.05910 0.77540 -0.13500
H 	H 	0.66210 0.11370 0.78990 0.06900
H 	H 	0.73670 0.07030 0.77710 0.05600
C 	C 	0.64030 0.07310 0.64630 -0.08300
H 	H 	0.69820 0.06780 0.63870 0.07200
H 	H 	0.64600 0.13410 0.65700 0.02700
C 	C 	0.55480 0.02580 0.58200 -0.11300
H 	H 	0.54970 0.96460 0.57560 0.07300
H 	H 	0.49810 0.03060 0.59230 0.11100
C 	C 	0.11530 0.08400 0.04760 0.04500
H 	H 	0.10730 0.13850 0.05350 -0.02600
C 	C 	0.13930 0.05880 0.98870 -0.11100
H 	H 	0.14400 0.09540 0.95440 0.06700
C 	C 	0.15650 0.98100 0.97890 0.00700
H 	H 	0.17430 0.96420 0.93940 0.02700
C 	C 	0.14580 0.92890 0.03140 -0.03400
C 	C 	0.11860 0.95650 0.08700 0.04600
H 	H 	0.11000 0.91990 0.12090 -0.01200
C 	C 	0.16780 0.84320 0.02380 -0.08900
H 	H 	0.20050 0.84330 0.98740 0.05300
H 	H 	0.20920 0.83870 0.06810 0.05100
C 	C 	0.10050 0.68400 0.98340 -0.02000
H 	H 	0.16100 0.68330 0.01130 0.02000
H 	H 	0.09970 0.67880 0.93370 0.00000
C 	C 	0.02090 0.60760 0.99620 0.00900
H 	H 	0.01560 0.61610 0.04420 0.03000
H 	H 	0.96120 0.60180 0.96310 0.10600
N 	N 	0.10330 0.03280 0.09620 -0.26000
N 	N 	0.08290 0.76590 0.00510 -0.24500
H 	H 	0.05950 0.75970 0.04240 0.10900
H 	H 	0.04010 0.77520 0.96990 0.11400
N 	N 	0.57160 0.96010 0.91890 -0.20000
N 	N 	0.61290 0.02330 0.70200 -0.22700
H 	H 	0.61470 0.96950 0.69220 0.11900
H 	H 	0.55400 0.01980 0.70020 0.10400
O 	O 	0.93650 0.01650 0.19460 -0.48100
O 	O 	0.98850 0.93860 0.27210 -0.31200
O 	O 	0.12600 0.19170 0.29500 -0.40600
O 	O 	0.21300 0.21280 0.21960 -0.39600
O 	O 	0.59520 0.95400 0.08910 -0.42000
O 	O 	0.51050 0.81410 0.07630 -0.30200
O 	O 	0.52680 0.45140 0.30520 -0.38700
O 	O 	0.32880 0.50820 0.54180 -0.36400
O 	O 	0.25120 0.36930 0.53500 -0.35700
O 	O 	0.75710 0.67960 0.32010 -0.42400
O 	O 	0.62600 0.62640 0.24420 -0.37000
O 	O 	0.53180 0.56640 0.37460 -0.32800
C 	C 	0.56300 0.06180 0.51270 -0.05500
H 	H 	0.56940 0.12280 0.51720 0.03700
H 	H 	0.61740 0.05270 0.50260 0.02300
C 	C 	0.05320 0.52660 0.98320 -0.09700
H 	H 	0.05600 0.52110 0.93480 0.03600
H 	H 	0.11360 0.53260 0.01410 0.05000
C 	C 	0.48970 0.00980 0.55260 -0.23400
H 	H 	0.47150 0.96760 0.58270 0.07000
H 	H 	0.47190 0.06010 0.56380 0.05900
C 	C 	0.59680 0.03360 0.56730 0.05600
H 	H 	0.61700 0.07750 0.53840 0.01600
H 	H 	0.61660 0.98390 0.55580 0.00600
C 	C 	0.02400 0.56260 0.03570 -0.05400
H 	H 	0.08440 0.55580 0.05600 0.03500
H 	H 	0.01360 0.60490 0.06660 -0.00400
C 	C 	0.02640 0.59350 0.96380 -0.07000
H 	H 	0.96590 0.60060 0.94300 -0.06700
H 	H 	0.03900 0.55390 0.93100 0.05400
H 	H 	0.12550 0.69360 0.94280 0.03000
H 	H 	0.15080 0.67890 0.02150 0.00100
H 	H 	0.70760 0.08710 0.65540 -0.02900
H 	H 	0.62700 0.12770 0.65260 0.02400
Cd	Cd	0.92264 0.91148 0.80422 1.19800
Cd	Cd	0.32356 0.44835 0.65135 1.21300
C 	C 	0.07740 0.04490 0.77180 0.32500
C 	C 	0.17770 0.10010 0.78040 -0.11400
C 	C 	0.24880 0.08480 0.82750 0.05100
H 	H 	0.23640 0.03600 0.85020 0.02600
C 	C 	0.34020 0.14030 0.84280 -0.11300
C 	C 	0.35730 0.21670 0.81300 0.05000
H 	H 	0.41680 0.25700 0.82560 0.04200
C 	C 	0.28460 0.23210 0.76440 -0.11700
C 	C 	0.19480 0.17380 0.74640 0.04700
H 	H 	0.14690 0.18350 0.71240 0.04200
C 	C 	0.41770 0.12320 0.89790 0.34000
C 	C 	0.30060 0.31440 0.73030 0.37200
C 	C 	0.80670 0.76580 0.72450 0.29900
C 	C 	0.74280 0.68330 0.67610 -0.07600
C 	C 	0.75910 0.65790 0.61390 0.01400
H 	H 	0.81230 0.69070 0.60270 0.05500
C 	C 	0.69980 0.58570 0.56690 -0.06900
C 	C 	0.62340 0.53660 0.58340 0.01600
H 	H 	0.58590 0.48570 0.55330 0.05600
C 	C 	0.59900 0.56010 0.64470 -0.07700
C 	C 	0.65630 0.63730 0.69140 0.01000
H 	H 	0.63900 0.65730 0.73000 0.05300
C 	C 	0.50960 0.51140 0.65830 0.31000
C 	C 	0.70900 0.56710 0.49120 0.29500
C 	C 	0.40880 0.11660 0.08490 0.05800
H 	H 	0.42750 0.15600 0.05490 -0.01200
C 	C 	0.36270 0.13720 0.13100 -0.12800
H 	H 	0.34900 0.18950 0.13160 0.07800
C 	C 	0.33690 0.08200 0.17600 0.02400
H 	H 	0.30680 0.09650 0.20850 0.00200
C 	C 	0.35520 0.00530 0.17350 -0.08100
C 	C 	0.40180 0.98570 0.12820 0.06700
H 	H 	0.41650 0.93390 0.12890 -0.00600
C 	C 	0.32870 0.94090 0.22460 -0.02600
H 	H 	0.33790 0.88630 0.21010 0.03700
H 	H 	0.26330 0.92970 0.22290 0.03000
C 	C 	0.35970 0.92690 0.35370 -0.06700
H 	H 	0.30180 0.93220 0.36130 -0.00800
H 	H 	0.35400 0.86590 0.34300 0.03000
C 	C 	0.44520 0.97420 0.41800 -0.04700
H 	H 	0.45030 0.03540 0.42440 0.03900
H 	H 	0.50190 0.96940 0.40770 0.07400
C 	C 	0.88470 0.91600 0.95240 0.03700
H 	H 	0.89270 0.86150 0.94650 -0.01600
C 	C 	0.86070 0.94120 0.01130 -0.04000
H 	H 	0.85600 0.90460 0.04560 0.04100
C 	C 	0.84350 0.01900 0.02110 -0.11800
H 	H 	0.82570 0.03580 0.06060 0.05600
C 	C 	0.85420 0.07110 0.96860 0.03800
C 	C 	0.88140 0.04350 0.91300 -0.02700
H 	H 	0.89000 0.08010 0.87910 0.00700
C 	C 	0.83220 0.15680 0.97620 -0.07700
H 	H 	0.79950 0.15670 0.01260 0.03100
H 	H 	0.79080 0.16130 0.93190 0.04800
C 	C 	0.89950 0.31600 0.01660 -0.06900
H 	H 	0.83900 0.31670 0.98870 0.02900
H 	H 	0.90030 0.32120 0.06630 0.07800
C 	C 	0.97910 0.39240 0.00380 -0.21800
H 	H 	0.98440 0.38390 0.95580 0.44300
H 	H 	0.03880 0.39820 0.03690 -0.68900
N 	N 	0.89670 0.96720 0.90380 -0.22600
N 	N 	0.91710 0.23410 0.99490 -0.21300
H 	H 	0.94050 0.24030 0.95760 0.11300
H 	H 	0.95990 0.22480 0.03010 0.08600
N 	N 	0.42840 0.03990 0.08110 -0.25600
N 	N 	0.38710 0.97670 0.29800 -0.22200
H 	H 	0.38530 0.03050 0.30780 0.09600
H 	H 	0.44600 0.98020 0.29980 0.11600
O 	O 	0.06350 0.98350 0.80540 -0.43700
O 	O 	0.01150 0.06140 0.72790 -0.31000
O 	O 	0.87400 0.80830 0.70500 -0.39900
O 	O 	0.78700 0.78720 0.78040 -0.39100
O 	O 	0.40480 0.04600 0.91090 -0.42500
O 	O 	0.48950 0.18590 0.92370 -0.29700
O 	O 	0.47320 0.54860 0.69480 -0.38300
O 	O 	0.67120 0.49180 0.45820 -0.36400
O 	O 	0.74880 0.63070 0.46500 -0.35500
O 	O 	0.24290 0.32040 0.67990 -0.42200
O 	O 	0.37400 0.37360 0.75580 -0.36600
O 	O 	0.46820 0.43360 0.62540 -0.32800
C 	C 	0.43700 0.93820 0.48730 -0.04000
H 	H 	0.43060 0.87720 0.48280 0.03200
H 	H 	0.38260 0.94730 0.49740 0.03600
C 	C 	0.94680 0.47340 0.01680 -0.22100
H 	H 	0.94400 0.47890 0.06520 0.10800
H 	H 	0.88640 0.46740 0.98590 0.09400
C 	C 	0.51030 0.99020 0.44740 -0.12200
H 	H 	0.52850 0.03240 0.41730 0.02500
H 	H 	0.52810 0.93990 0.43620 0.04100
C 	C 	0.40320 0.96640 0.43270 0.01100
H 	H 	0.38300 0.92250 0.46160 0.02300
H 	H 	0.38340 0.01610 0.44420 0.00600
C 	C 	0.97600 0.43740 0.96430 0.17700
H 	H 	0.91560 0.44420 0.94400 -0.01400
H 	H 	0.98640 0.39510 0.93340 -0.38700
C 	C 	0.97360 0.40650 0.03620 0.03100
H 	H 	0.03410 0.39940 0.05700 0.73400
H 	H 	0.96100 0.44610 0.06900 -0.05100
H 	H 	0.87450 0.30640 0.05720 -0.05700
H 	H 	0.84920 0.32110 0.97850 0.02400
H 	H 	0.29240 0.91290 0.34460 0.05500
H 	H 	0.37300 0.87230 0.34740 0.01200
Cd	Cd	0.50000 0.00000 -0.00000 1.17800
