data_crystal

_cell_length_a 16.36400
_cell_length_b 16.36400
_cell_length_c 41.79700
_cell_angle_alpha 90.00000
_cell_angle_beta  90.00000
_cell_angle_gamma 90.00000

_symmetry_space_group_name_	'P 1'
_symmetry_space_group_name_H-M	'P 1'

loop_
_symmetry_equiv_pos_as_xyz
  x,y,z

loop_
_atom_site_label
_atom_site_type_symbol
_atom_site_fract_x
_atom_site_fract_y
_atom_site_fract_z
_atom_site_charge
Cd	Cd	0.58377 0.93270 0.59714 1.23200
Cd	Cd	0.07880 0.07380 0.49201 0.77500
C 	C 	0.49790 0.97150 0.54240 0.31500
C 	C 	0.45720 0.98650 0.51150 -0.12100
C 	C 	0.50310 0.98630 0.48310 0.07000
H 	H 	0.55930 0.97810 0.48440 0.02600
C 	C 	0.46900 0.99750 0.45400 -0.15200
H 	H 	0.50030 0.99410 0.43540 0.09900
C 	C 	0.38950 0.01350 0.45250 0.08000
H 	H 	0.36610 0.02330 0.43260 0.02100
C 	C 	0.33960 0.01630 0.47940 -0.13200
C 	C 	0.37540 0.00300 0.50950 0.06600
H 	H 	0.34370 0.00540 0.52790 0.02900
C 	C 	0.25080 0.03330 0.47650 0.36000
C 	C 	0.72180 0.83310 0.60130 0.32400
C 	C 	0.79540 0.78140 0.59720 -0.09800
C 	C 	0.85580 0.80610 0.57650 0.02800
H 	H 	0.84960 0.85510 0.56550 0.04400
C 	C 	0.92600 0.76000 0.57170 -0.09600
H 	H 	0.96860 0.77920 0.55910 0.07100
C 	C 	0.93010 0.68310 0.58660 0.03000
H 	H 	0.97410 0.64890 0.58230 0.03200
C 	C 	0.87100 0.65730 0.60730 -0.09200
C 	C 	0.80120 0.70780 0.61270 0.03200
H 	H 	0.76010 0.69100 0.62660 0.04900
C 	C 	0.87830 0.57890 0.62540 0.32100
C 	C 	0.40490 0.88940 0.62250 0.03500
H 	H 	0.40530 0.94590 0.62490 0.01200
C 	C 	0.33350 0.84830 0.62760 -0.06400
H 	H 	0.28700 0.87610 0.63420 0.05100
C 	C 	0.33140 0.76490 0.62280 -0.04800
H 	H 	0.28260 0.73640 0.62510 0.04600
C 	C 	0.40300 0.72370 0.61440 0.01700
C 	C 	0.47470 0.77280 0.61010 0.01300
H 	H 	0.52300 0.74710 0.60420 0.02000
C 	C 	0.40630 0.63570 0.60780 -0.08700
H 	H 	0.35970 0.60980 0.61790 0.05200
H 	H 	0.45520 0.61350 0.61760 0.05700
C 	C 	0.41090 0.52710 0.56580 -0.01400
H 	H 	0.36170 0.50070 0.57360 0.03000
H 	H 	0.45680 0.50350 0.57710 0.03400
C 	C 	0.42010 0.50780 0.53030 -0.14500
H 	H 	0.38500 0.54370 0.51850 0.07300
H 	H 	0.40250 0.45270 0.52640 0.07100
C 	C 	0.50770 0.51830 0.51970 -0.08600
H 	H 	0.54170 0.47940 0.53070 0.05600
H 	H 	0.52640 0.57190 0.52550 0.05300
N 	N 	0.47530 0.85140 0.61400 -0.20800
N 	N 	0.40640 0.61370 0.57353 -0.23600
H 	H 	0.36110 0.63390 0.56470 0.11700
H 	H 	0.44860 0.63860 0.56430 0.11800
O 	O 	0.46880 0.00310 0.56730 -0.34100
O 	O 	0.56120 0.92710 0.54320 -0.37300
O 	O 	0.71390 0.89450 0.58240 -0.36100
O 	O 	0.66960 0.81800 0.62080 -0.35500
O 	O 	0.21310 0.06170 0.50020 -0.47500
O 	O 	0.22240 0.02740 0.44880 -0.31700
O 	O 	0.92080 0.52310 0.61290 -0.40200
O 	O 	0.84590 0.57190 0.65190 -0.32900
O 	O 	0.06370 0.93410 0.50240 -0.33200
Cd	Cd	0.41623 0.06730 0.09714 1.23300
Cd	Cd	0.92120 0.92620 0.99201 0.77600
C 	C 	0.50210 0.02850 0.04240 0.31600
C 	C 	0.54280 0.01350 0.01150 -0.12000
C 	C 	0.49690 0.01370 0.98310 0.07000
H 	H 	0.44070 0.02190 0.98440 0.02600
C 	C 	0.53100 0.00250 0.95400 -0.15200
H 	H 	0.49970 0.00590 0.93540 0.09900
C 	C 	0.61050 0.98650 0.95250 0.08000
H 	H 	0.63390 0.97670 0.93260 0.02100
C 	C 	0.66040 0.98370 0.97940 -0.13200
C 	C 	0.62460 0.99700 0.00950 0.06600
H 	H 	0.65630 0.99460 0.02790 0.02900
C 	C 	0.74920 0.96670 0.97650 0.36000
C 	C 	0.27820 0.16690 0.10130 0.32400
C 	C 	0.20460 0.21860 0.09720 -0.09800
C 	C 	0.14420 0.19390 0.07650 0.02800
H 	H 	0.15040 0.14490 0.06550 0.04400
C 	C 	0.07400 0.24000 0.07170 -0.09600
H 	H 	0.03140 0.22080 0.05910 0.07100
C 	C 	0.06990 0.31690 0.08660 0.03000
H 	H 	0.02590 0.35110 0.08230 0.03200
C 	C 	0.12900 0.34270 0.10730 -0.09200
C 	C 	0.19880 0.29220 0.11270 0.03200
H 	H 	0.23990 0.30900 0.12660 0.04900
C 	C 	0.12170 0.42110 0.12540 0.32100
C 	C 	0.59510 0.11060 0.12250 0.03500
H 	H 	0.59470 0.05410 0.12490 0.01200
C 	C 	0.66650 0.15170 0.12760 -0.06400
H 	H 	0.71300 0.12390 0.13420 0.05100
C 	C 	0.66860 0.23510 0.12280 -0.04800
H 	H 	0.71740 0.26360 0.12510 0.04600
C 	C 	0.59700 0.27630 0.11440 0.01700
C 	C 	0.52530 0.22720 0.11010 0.01300
H 	H 	0.47700 0.25290 0.10420 0.02000
C 	C 	0.59370 0.36430 0.10780 -0.08700
H 	H 	0.64030 0.39020 0.11790 0.05200
H 	H 	0.54480 0.38650 0.11760 0.05700
C 	C 	0.58910 0.47290 0.06580 -0.01400
H 	H 	0.63830 0.49930 0.07360 0.03000
H 	H 	0.54320 0.49650 0.07710 0.03400
C 	C 	0.57990 0.49220 0.03030 -0.14500
H 	H 	0.61500 0.45630 0.01850 0.07300
H 	H 	0.59750 0.54730 0.02640 0.07100
C 	C 	0.49230 0.48170 0.01970 -0.08600
H 	H 	0.45830 0.52060 0.03070 0.05600
H 	H 	0.47360 0.42810 0.02550 0.05300
N 	N 	0.52470 0.14860 0.11400 -0.20800
N 	N 	0.59360 0.38630 0.07353 -0.23600
H 	H 	0.63890 0.36610 0.06470 0.11700
H 	H 	0.55140 0.36140 0.06430 0.11800
O 	O 	0.53120 0.99690 0.06730 -0.34100
O 	O 	0.43880 0.07290 0.04320 -0.37300
O 	O 	0.28610 0.10550 0.08240 -0.36100
O 	O 	0.33040 0.18200 0.12080 -0.35500
O 	O 	0.78690 0.93830 0.00020 -0.47500
O 	O 	0.77760 0.97260 0.94880 -0.31700
O 	O 	0.07920 0.47690 0.11290 -0.40200
O 	O 	0.15410 0.42810 0.15190 -0.32900
O 	O 	0.93630 0.06590 0.00240 -0.33200
Cd	Cd	0.56730 0.08377 0.84714 1.23300
Cd	Cd	0.42620 0.57880 0.74201 0.77700
C 	C 	0.52850 0.99790 0.79240 0.31700
C 	C 	0.51350 0.95720 0.76150 -0.12300
C 	C 	0.51370 0.00310 0.73310 0.07600
H 	H 	0.52190 0.05930 0.73440 0.02400
C 	C 	0.50250 0.96900 0.70400 -0.15800
H 	H 	0.50590 0.00030 0.68540 0.10200
C 	C 	0.48650 0.88950 0.70250 0.08300
H 	H 	0.47670 0.86610 0.68260 0.01900
C 	C 	0.48370 0.83960 0.72940 -0.13400
C 	C 	0.49700 0.87540 0.75950 0.06800
H 	H 	0.49460 0.84370 0.77790 0.02800
C 	C 	0.46670 0.75080 0.72650 0.36000
C 	C 	0.66690 0.22180 0.85130 0.32400
C 	C 	0.71860 0.29540 0.84720 -0.09700
C 	C 	0.69390 0.35580 0.82650 0.02800
H 	H 	0.64490 0.34960 0.81550 0.04400
C 	C 	0.74000 0.42600 0.82170 -0.09500
H 	H 	0.72080 0.46860 0.80910 0.07200
C 	C 	0.81690 0.43010 0.83660 0.03000
H 	H 	0.85110 0.47410 0.83230 0.03200
C 	C 	0.84270 0.37100 0.85730 -0.09200
C 	C 	0.79220 0.30120 0.86270 0.03200
H 	H 	0.80900 0.26010 0.87660 0.05000
C 	C 	0.92110 0.37830 0.87540 0.32100
C 	C 	0.61060 0.90490 0.87250 0.03400
H 	H 	0.55410 0.90530 0.87490 0.01200
C 	C 	0.65170 0.83350 0.87760 -0.06400
H 	H 	0.62390 0.78700 0.88420 0.05100
C 	C 	0.73510 0.83140 0.87280 -0.04900
H 	H 	0.76360 0.78260 0.87510 0.04600
C 	C 	0.77630 0.90300 0.86440 0.01800
C 	C 	0.72720 0.97470 0.86010 0.01100
H 	H 	0.75290 0.02300 0.85420 0.02200
C 	C 	0.86430 0.90630 0.85780 -0.08700
H 	H 	0.89020 0.85970 0.86790 0.05200
H 	H 	0.88650 0.95520 0.86760 0.05700
C 	C 	0.97290 0.91090 0.81580 -0.00800
H 	H 	0.99930 0.86170 0.82360 0.02800
H 	H 	0.99650 0.95680 0.82710 0.03300
C 	C 	0.99220 0.92010 0.78030 -0.15600
H 	H 	0.95630 0.88500 0.76850 0.07600
H 	H 	0.04730 0.90250 0.77640 0.07500
C 	C 	0.98170 0.00770 0.76970 -0.07700
H 	H 	0.02060 0.04170 0.78070 0.05200
H 	H 	0.92810 0.02640 0.77550 0.05100
N 	N 	0.64860 0.97530 0.86400 -0.20700
N 	N 	0.88630 0.90640 0.82353 -0.23700
H 	H 	0.86610 0.86110 0.81470 0.11700
H 	H 	0.86140 0.94860 0.81430 0.11700
O 	O 	0.49690 0.96880 0.81730 -0.34200
O 	O 	0.57290 0.06120 0.79320 -0.37300
O 	O 	0.60550 0.21390 0.83240 -0.36100
O 	O 	0.68200 0.16960 0.87080 -0.35500
O 	O 	0.43830 0.71310 0.75020 -0.47500
O 	O 	0.47260 0.72240 0.69880 -0.31700
O 	O 	0.97690 0.42080 0.86290 -0.40100
O 	O 	0.92810 0.34590 0.90190 -0.32900
O 	O 	0.56590 0.56370 0.75240 -0.33300
Cd	Cd	0.43270 0.91623 0.34714 1.23300
Cd	Cd	0.57380 0.42120 0.24201 0.77700
C 	C 	0.47150 0.00210 0.29240 0.31700
C 	C 	0.48650 0.04280 0.26150 -0.12300
C 	C 	0.48630 0.99690 0.23310 0.07600
H 	H 	0.47810 0.94070 0.23440 0.02400
C 	C 	0.49750 0.03100 0.20400 -0.15800
H 	H 	0.49410 0.99970 0.18540 0.10200
C 	C 	0.51350 0.11050 0.20250 0.08300
H 	H 	0.52330 0.13390 0.18260 0.01900
C 	C 	0.51630 0.16040 0.22940 -0.13400
C 	C 	0.50300 0.12460 0.25950 0.06800
H 	H 	0.50540 0.15630 0.27790 0.02800
C 	C 	0.53330 0.24920 0.22650 0.36000
C 	C 	0.33310 0.77820 0.35130 0.32400
C 	C 	0.28140 0.70460 0.34720 -0.09700
C 	C 	0.30610 0.64420 0.32650 0.02800
H 	H 	0.35510 0.65040 0.31550 0.04400
C 	C 	0.26000 0.57400 0.32170 -0.09500
H 	H 	0.27920 0.53140 0.30910 0.07200
C 	C 	0.18310 0.56990 0.33660 0.03000
H 	H 	0.14890 0.52590 0.33230 0.03200
C 	C 	0.15730 0.62900 0.35730 -0.09200
C 	C 	0.20780 0.69880 0.36270 0.03200
H 	H 	0.19100 0.73990 0.37660 0.05000
C 	C 	0.07890 0.62170 0.37540 0.32100
C 	C 	0.38940 0.09510 0.37250 0.03400
H 	H 	0.44590 0.09470 0.37490 0.01200
C 	C 	0.34830 0.16650 0.37760 -0.06400
H 	H 	0.37610 0.21300 0.38420 0.05100
C 	C 	0.26490 0.16860 0.37280 -0.04900
H 	H 	0.23640 0.21740 0.37510 0.04600
C 	C 	0.22370 0.09700 0.36440 0.01800
C 	C 	0.27280 0.02530 0.36010 0.01100
H 	H 	0.24710 0.97700 0.35420 0.02200
C 	C 	0.13570 0.09370 0.35780 -0.08700
H 	H 	0.10980 0.14030 0.36790 0.05200
H 	H 	0.11350 0.04480 0.36760 0.05700
C 	C 	0.02710 0.08910 0.31580 -0.00800
H 	H 	0.00070 0.13830 0.32360 0.02800
H 	H 	0.00350 0.04320 0.32710 0.03300
C 	C 	0.00780 0.07990 0.28030 -0.15600
H 	H 	0.04370 0.11500 0.26850 0.07600
H 	H 	0.95270 0.09750 0.27640 0.07500
C 	C 	0.01830 0.99230 0.26970 -0.07700
H 	H 	0.97940 0.95830 0.28070 0.05200
H 	H 	0.07190 0.97360 0.27550 0.05100
N 	N 	0.35140 0.02470 0.36400 -0.20700
N 	N 	0.11370 0.09360 0.32353 -0.23700
H 	H 	0.13390 0.13890 0.31470 0.11700
H 	H 	0.13860 0.05140 0.31430 0.11700
O 	O 	0.50310 0.03120 0.31730 -0.34200
O 	O 	0.42710 0.93880 0.29320 -0.37300
O 	O 	0.39450 0.78610 0.33240 -0.36100
O 	O 	0.31800 0.83040 0.37080 -0.35500
O 	O 	0.56170 0.28690 0.25020 -0.47500
O 	O 	0.52740 0.27760 0.19880 -0.31700
O 	O 	0.02310 0.57920 0.36290 -0.40100
O 	O 	0.07190 0.65410 0.40190 -0.32900
O 	O 	0.43410 0.43630 0.25240 -0.33300
Cd	Cd	0.91623 0.43270 0.65286 1.23300
Cd	Cd	0.42120 0.57380 0.75799 0.77700
C 	C 	0.00210 0.47150 0.70760 0.31700
C 	C 	0.04280 0.48650 0.73850 -0.12300
C 	C 	0.99690 0.48630 0.76690 0.07600
H 	H 	0.94070 0.47810 0.76560 0.02400
C 	C 	0.03100 0.49750 0.79600 -0.15800
H 	H 	0.99970 0.49410 0.81460 0.10200
C 	C 	0.11050 0.51350 0.79750 0.08300
H 	H 	0.13390 0.52330 0.81740 0.01900
C 	C 	0.16040 0.51630 0.77060 -0.13400
C 	C 	0.12460 0.50300 0.74050 0.06800
H 	H 	0.15630 0.50540 0.72210 0.02800
C 	C 	0.24920 0.53330 0.77350 0.36000
C 	C 	0.77820 0.33310 0.64870 0.32400
C 	C 	0.70460 0.28140 0.65280 -0.09700
C 	C 	0.64420 0.30610 0.67350 0.02800
H 	H 	0.65040 0.35510 0.68450 0.04400
C 	C 	0.57400 0.26000 0.67830 -0.09500
H 	H 	0.53140 0.27920 0.69090 0.07200
C 	C 	0.56990 0.18310 0.66340 0.03000
H 	H 	0.52590 0.14890 0.66770 0.03200
C 	C 	0.62900 0.15730 0.64270 -0.09200
C 	C 	0.69880 0.20780 0.63730 0.03200
H 	H 	0.73990 0.19100 0.62340 0.05000
C 	C 	0.62170 0.07890 0.62460 0.32100
C 	C 	0.09510 0.38940 0.62750 0.03400
H 	H 	0.09470 0.44590 0.62510 0.01200
C 	C 	0.16650 0.34830 0.62240 -0.06400
H 	H 	0.21300 0.37610 0.61580 0.05100
C 	C 	0.16860 0.26490 0.62720 -0.04900
H 	H 	0.21740 0.23640 0.62490 0.04600
C 	C 	0.09700 0.22370 0.63560 0.01800
C 	C 	0.02530 0.27280 0.63990 0.01100
H 	H 	0.97700 0.24710 0.64580 0.02200
C 	C 	0.09370 0.13570 0.64220 -0.08700
H 	H 	0.14030 0.10980 0.63210 0.05200
H 	H 	0.04480 0.11350 0.63240 0.05700
C 	C 	0.08910 0.02710 0.68420 -0.00800
H 	H 	0.13830 0.00070 0.67640 0.02800
H 	H 	0.04320 0.00350 0.67290 0.03300
C 	C 	0.07990 0.00780 0.71970 -0.15600
H 	H 	0.11500 0.04370 0.73150 0.07600
H 	H 	0.09750 0.95270 0.72360 0.07500
C 	C 	0.99230 0.01830 0.73030 -0.07700
H 	H 	0.95830 0.97940 0.71930 0.05200
H 	H 	0.97360 0.07190 0.72450 0.05100
N 	N 	0.02470 0.35140 0.63600 -0.20700
N 	N 	0.09360 0.11370 0.67647 -0.23700
H 	H 	0.13890 0.13390 0.68530 0.11700
H 	H 	0.05140 0.13860 0.68570 0.11700
O 	O 	0.03120 0.50310 0.68270 -0.34200
O 	O 	0.93880 0.42710 0.70680 -0.37300
O 	O 	0.78610 0.39450 0.66760 -0.36100
O 	O 	0.83040 0.31800 0.62920 -0.35500
O 	O 	0.28690 0.56170 0.74980 -0.47500
O 	O 	0.27760 0.52740 0.80120 -0.31700
O 	O 	0.57920 0.02310 0.63710 -0.40100
O 	O 	0.65410 0.07190 0.59810 -0.32900
O 	O 	0.43630 0.43410 0.74760 -0.33300
Cd	Cd	0.08377 0.56730 0.15286 1.23300
Cd	Cd	0.57880 0.42620 0.25799 0.77700
C 	C 	0.99790 0.52850 0.20760 0.31700
C 	C 	0.95720 0.51350 0.23850 -0.12300
C 	C 	0.00310 0.51370 0.26690 0.07600
H 	H 	0.05930 0.52190 0.26560 0.02400
C 	C 	0.96900 0.50250 0.29600 -0.15800
H 	H 	0.00030 0.50590 0.31460 0.10200
C 	C 	0.88950 0.48650 0.29750 0.08300
H 	H 	0.86610 0.47670 0.31740 0.01900
C 	C 	0.83960 0.48370 0.27060 -0.13400
C 	C 	0.87540 0.49700 0.24050 0.06800
H 	H 	0.84370 0.49460 0.22210 0.02800
C 	C 	0.75080 0.46670 0.27350 0.36000
C 	C 	0.22180 0.66690 0.14870 0.32400
C 	C 	0.29540 0.71860 0.15280 -0.09700
C 	C 	0.35580 0.69390 0.17350 0.02800
H 	H 	0.34960 0.64490 0.18450 0.04400
C 	C 	0.42600 0.74000 0.17830 -0.09500
H 	H 	0.46860 0.72080 0.19090 0.07200
C 	C 	0.43010 0.81690 0.16340 0.03000
H 	H 	0.47410 0.85110 0.16770 0.03200
C 	C 	0.37100 0.84270 0.14270 -0.09200
C 	C 	0.30120 0.79220 0.13730 0.03200
H 	H 	0.26010 0.80900 0.12340 0.05000
C 	C 	0.37830 0.92110 0.12460 0.32100
C 	C 	0.90490 0.61060 0.12750 0.03400
H 	H 	0.90530 0.55410 0.12510 0.01200
C 	C 	0.83350 0.65170 0.12240 -0.06400
H 	H 	0.78700 0.62390 0.11580 0.05100
C 	C 	0.83140 0.73510 0.12720 -0.04900
H 	H 	0.78260 0.76360 0.12490 0.04600
C 	C 	0.90300 0.77630 0.13560 0.01800
C 	C 	0.97470 0.72720 0.13990 0.01100
H 	H 	0.02300 0.75290 0.14580 0.02200
C 	C 	0.90630 0.86430 0.14220 -0.08700
H 	H 	0.85970 0.89020 0.13210 0.05200
H 	H 	0.95520 0.88650 0.13240 0.05700
C 	C 	0.91090 0.97290 0.18420 -0.00800
H 	H 	0.86170 0.99930 0.17640 0.02800
H 	H 	0.95680 0.99650 0.17290 0.03300
C 	C 	0.92010 0.99220 0.21970 -0.15600
H 	H 	0.88500 0.95630 0.23150 0.07600
H 	H 	0.90250 0.04730 0.22360 0.07500
C 	C 	0.00770 0.98170 0.23030 -0.07700
H 	H 	0.04170 0.02060 0.21930 0.05200
H 	H 	0.02640 0.92810 0.22450 0.05100
N 	N 	0.97530 0.64860 0.13600 -0.20700
N 	N 	0.90640 0.88630 0.17647 -0.23700
H 	H 	0.86110 0.86610 0.18530 0.11700
H 	H 	0.94860 0.86140 0.18570 0.11700
O 	O 	0.96880 0.49690 0.18270 -0.34200
O 	O 	0.06120 0.57290 0.20680 -0.37300
O 	O 	0.21390 0.60550 0.16760 -0.36100
O 	O 	0.16960 0.68200 0.12920 -0.35500
O 	O 	0.71310 0.43830 0.24980 -0.47500
O 	O 	0.72240 0.47260 0.30120 -0.31700
O 	O 	0.42080 0.97690 0.13710 -0.40100
O 	O 	0.34590 0.92810 0.09810 -0.32900
O 	O 	0.56370 0.56590 0.24760 -0.33300
Cd	Cd	0.93270 0.58377 0.40286 1.23300
Cd	Cd	0.07380 0.07880 0.50799 0.77600
C 	C 	0.97150 0.49790 0.45760 0.31600
C 	C 	0.98650 0.45720 0.48850 -0.12000
C 	C 	0.98630 0.50310 0.51690 0.07000
H 	H 	0.97810 0.55930 0.51560 0.02600
C 	C 	0.99750 0.46900 0.54600 -0.15200
H 	H 	0.99410 0.50030 0.56460 0.09900
C 	C 	0.01350 0.38950 0.54750 0.08000
H 	H 	0.02330 0.36610 0.56740 0.02100
C 	C 	0.01630 0.33960 0.52060 -0.13200
C 	C 	0.00300 0.37540 0.49050 0.06600
H 	H 	0.00540 0.34370 0.47210 0.02900
C 	C 	0.03330 0.25080 0.52350 0.36000
C 	C 	0.83310 0.72180 0.39870 0.32400
C 	C 	0.78140 0.79540 0.40280 -0.09800
C 	C 	0.80610 0.85580 0.42350 0.02800
H 	H 	0.85510 0.84960 0.43450 0.04400
C 	C 	0.76000 0.92600 0.42830 -0.09600
H 	H 	0.77920 0.96860 0.44090 0.07100
C 	C 	0.68310 0.93010 0.41340 0.03000
H 	H 	0.64890 0.97410 0.41770 0.03200
C 	C 	0.65730 0.87100 0.39270 -0.09200
C 	C 	0.70780 0.80120 0.38730 0.03200
H 	H 	0.69100 0.76010 0.37340 0.04900
C 	C 	0.57890 0.87830 0.37460 0.32100
C 	C 	0.88940 0.40490 0.37750 0.03500
H 	H 	0.94590 0.40530 0.37510 0.01200
C 	C 	0.84830 0.33350 0.37240 -0.06400
H 	H 	0.87610 0.28700 0.36580 0.05100
C 	C 	0.76490 0.33140 0.37720 -0.04800
H 	H 	0.73640 0.28260 0.37490 0.04600
C 	C 	0.72370 0.40300 0.38560 0.01700
C 	C 	0.77280 0.47470 0.38990 0.01300
H 	H 	0.74710 0.52300 0.39580 0.02000
C 	C 	0.63570 0.40630 0.39220 -0.08700
H 	H 	0.60980 0.35970 0.38210 0.05200
H 	H 	0.61350 0.45520 0.38240 0.05700
C 	C 	0.52710 0.41090 0.43420 -0.01400
H 	H 	0.50070 0.36170 0.42640 0.03000
H 	H 	0.50350 0.45680 0.42290 0.03400
C 	C 	0.50780 0.42010 0.46970 -0.14500
H 	H 	0.54370 0.38500 0.48150 0.07300
H 	H 	0.45270 0.40250 0.47360 0.07100
C 	C 	0.51830 0.50770 0.48030 -0.08600
H 	H 	0.47940 0.54170 0.46930 0.05600
H 	H 	0.57190 0.52640 0.47450 0.05300
N 	N 	0.85140 0.47530 0.38600 -0.20800
N 	N 	0.61370 0.40640 0.42647 -0.23600
H 	H 	0.63390 0.36110 0.43530 0.11700
H 	H 	0.63860 0.44860 0.43570 0.11800
O 	O 	0.00310 0.46880 0.43270 -0.34100
O 	O 	0.92710 0.56120 0.45680 -0.37300
O 	O 	0.89450 0.71390 0.41760 -0.36100
O 	O 	0.81800 0.66960 0.37920 -0.35500
O 	O 	0.06170 0.21310 0.49980 -0.47500
O 	O 	0.02740 0.22240 0.55120 -0.31700
O 	O 	0.52310 0.92080 0.38710 -0.40200
O 	O 	0.57190 0.84590 0.34810 -0.32900
O 	O 	0.93410 0.06370 0.49760 -0.33200
Cd	Cd	0.06730 0.41623 0.90286 1.23300
Cd	Cd	0.92620 0.92120 0.00799 0.77600
C 	C 	0.02850 0.50210 0.95760 0.31600
C 	C 	0.01350 0.54280 0.98850 -0.12000
C 	C 	0.01370 0.49690 0.01690 0.07000
H 	H 	0.02190 0.44070 0.01560 0.02600
C 	C 	0.00250 0.53100 0.04600 -0.15200
H 	H 	0.00590 0.49970 0.06460 0.09900
C 	C 	0.98650 0.61050 0.04750 0.08000
H 	H 	0.97670 0.63390 0.06740 0.02100
C 	C 	0.98370 0.66040 0.02060 -0.13200
C 	C 	0.99700 0.62460 0.99050 0.06600
H 	H 	0.99460 0.65630 0.97210 0.02900
C 	C 	0.96670 0.74920 0.02350 0.36000
C 	C 	0.16690 0.27820 0.89870 0.32400
C 	C 	0.21860 0.20460 0.90280 -0.09800
C 	C 	0.19390 0.14420 0.92350 0.02800
H 	H 	0.14490 0.15040 0.93450 0.04400
C 	C 	0.24000 0.07400 0.92830 -0.09600
H 	H 	0.22080 0.03140 0.94090 0.07100
C 	C 	0.31690 0.06990 0.91340 0.03000
H 	H 	0.35110 0.02590 0.91770 0.03200
C 	C 	0.34270 0.12900 0.89270 -0.09200
C 	C 	0.29220 0.19880 0.88730 0.03200
H 	H 	0.30900 0.23990 0.87340 0.04900
C 	C 	0.42110 0.12170 0.87460 0.32100
C 	C 	0.11060 0.59510 0.87750 0.03500
H 	H 	0.05410 0.59470 0.87510 0.01200
C 	C 	0.15170 0.66650 0.87240 -0.06400
H 	H 	0.12390 0.71300 0.86580 0.05100
C 	C 	0.23510 0.66860 0.87720 -0.04800
H 	H 	0.26360 0.71740 0.87490 0.04600
C 	C 	0.27630 0.59700 0.88560 0.01700
C 	C 	0.22720 0.52530 0.88990 0.01300
H 	H 	0.25290 0.47700 0.89580 0.02000
C 	C 	0.36430 0.59370 0.89220 -0.08700
H 	H 	0.39020 0.64030 0.88210 0.05200
H 	H 	0.38650 0.54480 0.88240 0.05700
C 	C 	0.47290 0.58910 0.93420 -0.01400
H 	H 	0.49930 0.63830 0.92640 0.03000
H 	H 	0.49650 0.54320 0.92290 0.03400
C 	C 	0.49220 0.57990 0.96970 -0.14500
H 	H 	0.45630 0.61500 0.98150 0.07300
H 	H 	0.54730 0.59750 0.97360 0.07100
C 	C 	0.48170 0.49230 0.98030 -0.08600
H 	H 	0.52060 0.45830 0.96930 0.05600
H 	H 	0.42810 0.47360 0.97450 0.05300
N 	N 	0.14860 0.52470 0.88600 -0.20800
N 	N 	0.38630 0.59360 0.92647 -0.23600
H 	H 	0.36610 0.63890 0.93530 0.11700
H 	H 	0.36140 0.55140 0.93570 0.11800
O 	O 	0.99690 0.53120 0.93270 -0.34100
O 	O 	0.07290 0.43880 0.95680 -0.37300
O 	O 	0.10550 0.28610 0.91760 -0.36100
O 	O 	0.18200 0.33040 0.87920 -0.35500
O 	O 	0.93830 0.78690 0.99980 -0.47500
O 	O 	0.97260 0.77760 0.05120 -0.31700
O 	O 	0.47690 0.07920 0.88710 -0.40200
O 	O 	0.42810 0.15410 0.84810 -0.32900
O 	O 	0.06590 0.93630 0.99760 -0.33200
