data_crystal

_cell_length_a 17.31880
_cell_length_b 17.31880
_cell_length_c 18.31100
_cell_angle_alpha 92.50310
_cell_angle_beta  92.50310
_cell_angle_gamma 32.75650

_symmetry_space_group_name_	'P 1'
_symmetry_space_group_name_H-M	'P 1'

loop_
_symmetry_equiv_pos_as_xyz
  x,y,z

loop_
_atom_site_label
_atom_site_type_symbol
_atom_site_fract_x
_atom_site_fract_y
_atom_site_fract_z
_atom_site_charge
Co	Co	0.64911 0.04569 0.01300 1.17400
O 	O 	0.53896 0.15356 0.92090 -0.43000
O 	O 	0.40425 0.16505 0.94209 -0.43400
O 	O 	0.15626 0.52506 0.59920 -0.44800
O 	O 	0.08822 0.45882 0.59962 -0.44600
O 	O 	0.83745 0.80625 0.09150 -0.27800
O 	O 	0.70573 0.88713 0.99360 -0.46600
C 	C 	0.36760 0.25840 0.83160 -0.06800
C 	C 	0.27642 0.27782 0.80460 -0.02700
H 	H 	0.26130 0.24670 0.83100 0.05700
C 	C 	0.20725 0.34405 0.73760 -0.01100
H 	H 	0.14730 0.35530 0.71900 0.04800
C 	C 	0.22679 0.39299 0.69870 -0.08500
C 	C 	0.31609 0.37469 0.72590 -0.00700
H 	H 	0.33030 0.40690 0.69970 0.04600
C 	C 	0.38590 0.30810 0.79260 -0.02600
H 	H 	0.44580 0.29700 0.81090 0.05800
C 	C 	0.44313 0.18693 0.90380 0.36700
C 	C 	0.14993 0.46533 0.62660 0.38000
C 	C 	0.01900 0.52520 0.06550 -0.11500
H 	H 	0.03170 0.54290 0.10950 0.07600
C 	C 	0.90769 0.63749 0.01790 0.01300
C 	C 	0.89000 0.61120 0.95250 -0.06800
H 	H 	0.81660 0.68560 0.92050 0.08000
C 	C 	0.81201 0.78501 0.03760 0.27700
C 	C 	0.04780 0.88780 0.97800 0.13400
H 	H 	0.08210 0.81050 0.96290 -0.00500
C 	C 	0.91100 0.01120 0.00130 -0.24400
C 	C 	0.13580 0.87880 0.97710 -0.17300
H 	H 	0.22910 0.79450 0.96110 0.10400
C 	C 	0.83470 0.99670 0.99220 0.51700
O 	O 	0.74260 0.06540 0.03290 -0.52100
O 	O 	0.86590 0.91690 0.94470 -0.31900
N 	N 	0.53610 0.53410 0.75100 -0.17200
H 	H 	0.46450 0.55950 0.74760 0.08000
H 	H 	0.50050 0.61030 0.73970 0.11000
C 	C 	0.65200 0.41400 0.69800 -0.33500
H 	H 	0.61440 0.44400 0.64900 0.12600
H 	H 	0.68660 0.33360 0.70880 0.13500
H 	H 	0.72910 0.38470 0.70270 0.14700
Co	Co	0.95431 0.35089 0.48700 1.19900
O 	O 	0.84644 0.46104 0.57910 -0.42800
O 	O 	0.83495 0.59575 0.55791 -0.42700
O 	O 	0.47494 0.84374 0.90080 -0.43400
O 	O 	0.54118 0.91178 0.90038 -0.41900
O 	O 	0.19375 0.16255 0.40850 -0.33400
O 	O 	0.11287 0.29427 0.50640 -0.52900
C 	C 	0.74160 0.63240 0.66840 -0.07000
C 	C 	0.72218 0.72358 0.69540 -0.01100
H 	H 	0.75330 0.73870 0.66900 0.06400
C 	C 	0.65595 0.79275 0.76240 -0.01500
H 	H 	0.64470 0.85270 0.78100 0.06300
C 	C 	0.60701 0.77321 0.80130 -0.06900
C 	C 	0.62531 0.68391 0.77410 -0.01500
H 	H 	0.59310 0.66970 0.80030 0.05700
C 	C 	0.69190 0.61410 0.70740 -0.01000
H 	H 	0.70300 0.55420 0.68910 0.05100
C 	C 	0.81307 0.55687 0.59620 0.37600
C 	C 	0.53467 0.85007 0.87340 0.37800
C 	C 	0.47480 0.98100 0.43450 0.09200
H 	H 	0.45710 0.96830 0.39050 0.02800
C 	C 	0.36251 0.09231 0.48210 -0.15000
C 	C 	0.38880 0.11000 0.54750 0.06500
H 	H 	0.31440 0.18340 0.57950 0.02500
C 	C 	0.21499 0.18799 0.46240 0.34900
C 	C 	0.11220 0.95220 0.52200 -0.16800
H 	H 	0.18950 0.91790 0.53710 0.11000
C 	C 	0.98880 0.08900 0.49870 0.07400
C 	C 	0.12120 0.86420 0.52290 0.12600
H 	H 	0.20550 0.77090 0.53890 -0.00300
C 	C 	0.00330 0.16530 0.50780 0.24400
O 	O 	0.93460 0.25740 0.46710 -0.39200
O 	O 	0.08310 0.13410 0.55530 -0.30300
N 	N 	0.46590 0.46390 0.74900 -0.18100
H 	H 	0.44050 0.53550 0.75240 0.08500
H 	H 	0.38970 0.49950 0.76030 0.11100
C 	C 	0.51200 0.40400 0.67100 -0.31300
H 	H 	0.43670 0.47930 0.63710 0.12600
H 	H 	0.53220 0.33240 0.66620 0.12800
H 	H 	0.59610 0.36170 0.65960 0.11800
Co	Co	0.35089 0.95431 0.98700 1.20300
O 	O 	0.46104 0.84644 0.07910 -0.43500
O 	O 	0.59575 0.83495 0.05791 -0.43300
O 	O 	0.84374 0.47494 0.40080 -0.43600
O 	O 	0.91178 0.54118 0.40038 -0.41900
O 	O 	0.16255 0.19375 0.90850 -0.33300
O 	O 	0.29427 0.11287 0.00640 -0.54600
C 	C 	0.63240 0.74160 0.16840 -0.07300
C 	C 	0.72358 0.72218 0.19540 -0.00900
H 	H 	0.73870 0.75330 0.16900 0.06400
C 	C 	0.79275 0.65595 0.26240 -0.01600
H 	H 	0.85270 0.64470 0.28100 0.06500
C 	C 	0.77321 0.60701 0.30130 -0.06800
C 	C 	0.68391 0.62531 0.27410 -0.01700
H 	H 	0.66970 0.59310 0.30030 0.05700
C 	C 	0.61410 0.69190 0.20740 -0.00900
H 	H 	0.55420 0.70300 0.18910 0.04900
C 	C 	0.55687 0.81307 0.09620 0.37700
C 	C 	0.85007 0.53467 0.37340 0.37800
C 	C 	0.98100 0.47480 0.93450 0.07500
H 	H 	0.96830 0.45710 0.89050 0.03700
C 	C 	0.09231 0.36251 0.98210 -0.12100
C 	C 	0.11000 0.38880 0.04750 0.02200
H 	H 	0.18340 0.31440 0.07950 0.03700
C 	C 	0.18799 0.21499 0.96240 0.36300
C 	C 	0.95220 0.11220 0.02200 -0.20300
H 	H 	0.91790 0.18950 0.03710 0.12200
C 	C 	0.08900 0.98880 0.99870 0.11300
C 	C 	0.86420 0.12120 0.02290 0.16000
H 	H 	0.77090 0.20550 0.03890 -0.01700
C 	C 	0.16530 0.00330 0.00780 0.20900
O 	O 	0.25740 0.93460 0.96710 -0.37600
O 	O 	0.13410 0.08310 0.05530 -0.30100
N 	N 	0.46390 0.46590 0.24900 -0.18300
H 	H 	0.53550 0.44050 0.25240 0.08500
H 	H 	0.49950 0.38970 0.26030 0.11100
C 	C 	0.40400 0.51200 0.17100 -0.30700
H 	H 	0.47930 0.43670 0.13710 0.12200
H 	H 	0.33240 0.53220 0.16620 0.12300
H 	H 	0.36170 0.59610 0.15960 0.11400
Co	Co	0.04569 0.64911 0.51300 1.18000
O 	O 	0.15356 0.53896 0.42090 -0.44100
O 	O 	0.16505 0.40425 0.44209 -0.44500
O 	O 	0.52506 0.15626 0.09920 -0.44900
O 	O 	0.45882 0.08822 0.09962 -0.44600
O 	O 	0.80625 0.83745 0.59150 -0.27900
O 	O 	0.88713 0.70573 0.49360 -0.47900
C 	C 	0.25840 0.36760 0.33160 -0.07300
C 	C 	0.27782 0.27642 0.30460 -0.02400
H 	H 	0.24670 0.26130 0.33100 0.05500
C 	C 	0.34405 0.20725 0.23760 -0.01300
H 	H 	0.35530 0.14730 0.21900 0.04900
C 	C 	0.39299 0.22679 0.19870 -0.08300
C 	C 	0.37469 0.31609 0.22590 -0.01000
H 	H 	0.40690 0.33030 0.19970 0.04700
C 	C 	0.30810 0.38590 0.29260 -0.02300
H 	H 	0.29700 0.44580 0.31090 0.05500
C 	C 	0.18693 0.44313 0.40380 0.37000
C 	C 	0.46533 0.14993 0.12660 0.37800
C 	C 	0.52520 0.01900 0.56550 -0.12800
H 	H 	0.54290 0.03170 0.60950 0.08600
C 	C 	0.63749 0.90769 0.51790 0.03400
C 	C 	0.61120 0.89000 0.45250 -0.10600
H 	H 	0.68560 0.81660 0.42050 0.09100
C 	C 	0.78501 0.81201 0.53760 0.28600
C 	C 	0.88780 0.04780 0.47800 0.09800
H 	H 	0.81050 0.08210 0.46290 0.00600
C 	C 	0.01120 0.91100 0.50130 -0.20800
C 	C 	0.87880 0.13580 0.47710 -0.13800
H 	H 	0.79450 0.22910 0.46110 0.09000
C 	C 	0.99670 0.83470 0.49220 0.48800
O 	O 	0.06540 0.74260 0.53290 -0.50700
O 	O 	0.91690 0.86590 0.44470 -0.31600
N 	N 	0.53410 0.53610 0.25100 -0.17500
H 	H 	0.55950 0.46450 0.24760 0.08000
H 	H 	0.61030 0.50050 0.23970 0.11000
C 	C 	0.41400 0.65200 0.19800 -0.32600
H 	H 	0.44400 0.61440 0.14900 0.12100
H 	H 	0.33360 0.68660 0.20880 0.13000
H 	H 	0.38470 0.72910 0.20270 0.14100
Co	Co	0.50000 0.00000 -0.00000 1.16800
Co	Co	-0.00000 0.50000 0.50000 1.17300
