data_crystal

_cell_length_a 10.44800
_cell_length_b 10.44800
_cell_length_c 6.52200
_cell_angle_alpha 90.00000
_cell_angle_beta  90.00000
_cell_angle_gamma 90.00000

_symmetry_space_group_name_	'P 1'
_symmetry_space_group_name_H-M	'P 1'

loop_
_symmetry_equiv_pos_as_xyz
  x,y,z

loop_
_atom_site_label
_atom_site_type_symbol
_atom_site_fract_x
_atom_site_fract_y
_atom_site_fract_z
_atom_site_charge
N 	N 	0.09260 0.40580 0.02990 -0.20900
C 	C 	0.08830 0.51030 0.14360 -0.00500
H 	H 	0.15100 0.52150 0.24760 -0.02400
C 	C 	0.00530 0.39450 0.88290 0.00500
H 	H 	0.00610 0.32180 0.79540 0.00100
O 	O 	0.21120 0.16350 0.40870 -0.39900
C 	C 	0.13970 0.30140 0.45860 -0.64100
H 	H 	0.08740 0.32450 0.57390 0.21600
H 	H 	0.12360 0.15780 0.37860 0.25100
H 	H 	0.25980 0.09500 0.37540 0.25800
N 	N 	0.40740 0.09420 0.02990 -0.21000
C 	C 	0.41170 0.98970 0.14360 -0.00300
H 	H 	0.34900 0.97850 0.24760 -0.02600
C 	C 	0.49470 0.10550 0.88290 0.00200
H 	H 	0.49390 0.17820 0.79540 0.00000
O 	O 	0.28880 0.33650 0.40870 -0.40000
C 	C 	0.36030 0.19860 0.45860 -0.64100
H 	H 	0.41260 0.17550 0.57390 0.21600
H 	H 	0.37640 0.34220 0.37860 0.25100
H 	H 	0.24020 0.40500 0.37540 0.25900
N 	N 	0.09420 0.09260 0.02990 -0.21100
C 	C 	0.98970 0.08830 0.14360 -0.00300
H 	H 	0.97850 0.15100 0.24760 -0.02600
C 	C 	0.10550 0.00530 0.88290 0.00400
H 	H 	0.17820 0.00610 0.79540 -0.00000
O 	O 	0.33650 0.21120 0.40870 -0.40000
C 	C 	0.19860 0.13970 0.45860 -0.64100
H 	H 	0.17550 0.08740 0.57390 0.21600
H 	H 	0.34220 0.12360 0.37860 0.25100
H 	H 	0.40500 0.25980 0.37540 0.25900
N 	N 	0.40580 0.40740 0.02990 -0.20900
C 	C 	0.51030 0.41170 0.14360 -0.00400
H 	H 	0.52150 0.34900 0.24760 -0.02600
C 	C 	0.39450 0.49470 0.88290 0.00200
H 	H 	0.32180 0.49390 0.79540 0.00000
O 	O 	0.16350 0.28880 0.40870 -0.40000
C 	C 	0.30140 0.36030 0.45860 -0.64100
H 	H 	0.32450 0.41260 0.57390 0.21600
H 	H 	0.15780 0.37640 0.37860 0.25100
H 	H 	0.09500 0.24020 0.37540 0.25900
N 	N 	0.90740 0.59420 0.97010 -0.21000
C 	C 	0.91170 0.48970 0.85640 -0.00600
H 	H 	0.84900 0.47850 0.75240 -0.02500
C 	C 	0.99470 0.60550 0.11710 0.00400
H 	H 	0.99390 0.67820 0.20460 -0.00000
O 	O 	0.78880 0.83650 0.59130 -0.40000
C 	C 	0.86030 0.69860 0.54140 -0.64100
H 	H 	0.91260 0.67550 0.42610 0.21600
H 	H 	0.87640 0.84220 0.62140 0.25100
H 	H 	0.74020 0.90500 0.62460 0.25800
N 	N 	0.59260 0.90580 0.97010 -0.21000
C 	C 	0.58830 0.01030 0.85640 -0.00300
H 	H 	0.65100 0.02150 0.75240 -0.02600
C 	C 	0.50530 0.89450 0.11710 0.00200
H 	H 	0.50610 0.82180 0.20460 0.00000
O 	O 	0.71120 0.66350 0.59130 -0.40000
C 	C 	0.63970 0.80140 0.54140 -0.64100
H 	H 	0.58740 0.82450 0.42610 0.21600
H 	H 	0.62360 0.65780 0.62140 0.25100
H 	H 	0.75980 0.59500 0.62460 0.25900
N 	N 	0.90580 0.90740 0.97010 -0.21100
C 	C 	0.01030 0.91170 0.85640 -0.00300
H 	H 	0.02150 0.84900 0.75240 -0.02600
C 	C 	0.89450 0.99470 0.11710 0.00400
H 	H 	0.82180 0.99390 0.20460 -0.00000
O 	O 	0.66350 0.78880 0.59130 -0.40000
C 	C 	0.80140 0.86030 0.54140 -0.64100
H 	H 	0.82450 0.91260 0.42610 0.21600
H 	H 	0.65780 0.87640 0.62140 0.25100
H 	H 	0.59500 0.74020 0.62460 0.25900
N 	N 	0.59420 0.59260 0.97010 -0.20900
C 	C 	0.48970 0.58830 0.85640 -0.00400
H 	H 	0.47850 0.65100 0.75240 -0.02600
C 	C 	0.60550 0.50530 0.11710 0.00200
H 	H 	0.67820 0.50610 0.20460 0.00000
O 	O 	0.83650 0.71120 0.59130 -0.40000
C 	C 	0.69860 0.63970 0.54140 -0.64100
H 	H 	0.67550 0.58740 0.42610 0.21600
H 	H 	0.84220 0.62360 0.62140 0.25100
H 	H 	0.90500 0.75980 0.62460 0.25900
Cd	Cd	0.25000 0.25000 0.08138 1.22600
O 	O 	0.25000 0.25000 0.70900 -0.88600
C 	C 	0.25000 0.25000 0.52560 1.86500
Cd	Cd	0.75000 0.75000 0.91862 1.22600
O 	O 	0.75000 0.75000 0.29100 -0.88600
C 	C 	0.75000 0.75000 0.47440 1.86500
