data_crystal

_cell_length_a 22.29730
_cell_length_b 22.29730
_cell_length_c 22.29730
_cell_angle_alpha 90.00000
_cell_angle_beta  90.00000
_cell_angle_gamma 90.00000

_symmetry_space_group_name_	'P 1'
_symmetry_space_group_name_H-M	'P 1'

loop_
_symmetry_equiv_pos_as_xyz
  x,y,z

loop_
_atom_site_label
_atom_site_type_symbol
_atom_site_fract_x
_atom_site_fract_y
_atom_site_fract_z
_atom_site_charge
Co	Co	0.32314 0.26014 0.80823 1.16900
C 	C 	0.20060 0.28532 0.98983 0.01200
H 	H 	0.24210 0.28140 0.99180 0.04800
C 	C 	0.17299 0.29098 0.93444 -0.06800
C 	C 	0.19663 0.27921 0.10443 0.38300
C 	C 	0.20690 0.29216 0.87599 0.37300
C 	C 	0.07784 0.29420 0.98446 0.09000
C 	C 	0.11104 0.29521 0.93164 -0.06500
H 	H 	0.09180 0.29870 0.89480 0.07500
C 	C 	0.10635 0.28926 0.03947 -0.06400
H 	H 	0.08380 0.28850 0.07460 0.08000
C 	C 	0.16747 0.28544 0.04227 -0.06400
O 	O 	0.17627 0.30401 0.82998 -0.43100
O 	O 	0.16296 0.29147 0.14759 -0.42300
O 	O 	0.24970 0.26294 0.10535 -0.42600
O 	O 	0.26171 0.28075 0.87842 -0.42100
N 	N 	0.01357 0.29611 0.97701 -0.08400
Co	Co	0.67686 0.73986 0.80823 1.16900
C 	C 	0.79940 0.71468 0.98983 0.01200
H 	H 	0.75790 0.71860 0.99180 0.04800
C 	C 	0.82701 0.70902 0.93444 -0.06800
C 	C 	0.80337 0.72079 0.10443 0.38300
C 	C 	0.79310 0.70784 0.87599 0.37300
C 	C 	0.92216 0.70580 0.98446 0.09000
C 	C 	0.88896 0.70479 0.93164 -0.06500
H 	H 	0.90820 0.70130 0.89480 0.07500
C 	C 	0.89365 0.71074 0.03947 -0.06400
H 	H 	0.91620 0.71150 0.07460 0.08000
C 	C 	0.83253 0.71456 0.04227 -0.06400
O 	O 	0.82373 0.69599 0.82998 -0.43100
O 	O 	0.83704 0.70853 0.14759 -0.42300
O 	O 	0.75030 0.73706 0.10535 -0.42600
O 	O 	0.73829 0.71925 0.87842 -0.42100
N 	N 	0.98643 0.70389 0.97701 -0.08400
Co	Co	0.67686 0.26014 0.19177 1.16900
C 	C 	0.79940 0.28532 0.01017 0.01200
H 	H 	0.75790 0.28140 0.00820 0.04800
C 	C 	0.82701 0.29098 0.06556 -0.06800
C 	C 	0.80337 0.27921 0.89557 0.38300
C 	C 	0.79310 0.29216 0.12401 0.37300
C 	C 	0.92216 0.29420 0.01554 0.09000
C 	C 	0.88896 0.29521 0.06836 -0.06500
H 	H 	0.90820 0.29870 0.10520 0.07500
C 	C 	0.89365 0.28926 0.96053 -0.06400
H 	H 	0.91620 0.28850 0.92540 0.08000
C 	C 	0.83253 0.28544 0.95773 -0.06400
O 	O 	0.82373 0.30401 0.17002 -0.43100
O 	O 	0.83704 0.29147 0.85241 -0.42300
O 	O 	0.75030 0.26294 0.89465 -0.42600
O 	O 	0.73829 0.28075 0.12158 -0.42100
N 	N 	0.98643 0.29611 0.02299 -0.08400
Co	Co	0.32314 0.73986 0.19177 1.16900
C 	C 	0.20060 0.71468 0.01017 0.01200
H 	H 	0.24210 0.71860 0.00820 0.04800
C 	C 	0.17299 0.70902 0.06556 -0.06800
C 	C 	0.19663 0.72079 0.89557 0.38300
C 	C 	0.20690 0.70784 0.12401 0.37300
C 	C 	0.07784 0.70580 0.01554 0.09000
C 	C 	0.11104 0.70479 0.06836 -0.06500
H 	H 	0.09180 0.70130 0.10520 0.07500
C 	C 	0.10635 0.71074 0.96053 -0.06400
H 	H 	0.08380 0.71150 0.92540 0.08000
C 	C 	0.16747 0.71456 0.95773 -0.06400
O 	O 	0.17627 0.69599 0.17002 -0.43100
O 	O 	0.16296 0.70853 0.85241 -0.42300
O 	O 	0.24970 0.73706 0.89465 -0.42600
O 	O 	0.26171 0.71925 0.12158 -0.42100
N 	N 	0.01357 0.70389 0.02299 -0.08400
Co	Co	0.80823 0.32314 0.26014 1.16900
C 	C 	0.98983 0.20060 0.28532 0.01200
H 	H 	0.99180 0.24210 0.28140 0.04800
C 	C 	0.93444 0.17299 0.29098 -0.06800
C 	C 	0.10443 0.19663 0.27921 0.38300
C 	C 	0.87599 0.20690 0.29216 0.37300
C 	C 	0.98446 0.07784 0.29420 0.09000
C 	C 	0.93164 0.11104 0.29521 -0.06500
H 	H 	0.89480 0.09180 0.29870 0.07500
C 	C 	0.03947 0.10635 0.28926 -0.06400
H 	H 	0.07460 0.08380 0.28850 0.08000
C 	C 	0.04227 0.16747 0.28544 -0.06400
O 	O 	0.82998 0.17627 0.30401 -0.43100
O 	O 	0.14759 0.16296 0.29147 -0.42300
O 	O 	0.10535 0.24970 0.26294 -0.42600
O 	O 	0.87842 0.26171 0.28075 -0.42100
N 	N 	0.97701 0.01357 0.29611 -0.08400
Co	Co	0.80823 0.67686 0.73986 1.16900
C 	C 	0.98983 0.79940 0.71468 0.01200
H 	H 	0.99180 0.75790 0.71860 0.04800
C 	C 	0.93444 0.82701 0.70902 -0.06800
C 	C 	0.10443 0.80337 0.72079 0.38300
C 	C 	0.87599 0.79310 0.70784 0.37300
C 	C 	0.98446 0.92216 0.70580 0.09000
C 	C 	0.93164 0.88896 0.70479 -0.06500
H 	H 	0.89480 0.90820 0.70130 0.07500
C 	C 	0.03947 0.89365 0.71074 -0.06400
H 	H 	0.07460 0.91620 0.71150 0.08000
C 	C 	0.04227 0.83253 0.71456 -0.06400
O 	O 	0.82998 0.82373 0.69599 -0.43100
O 	O 	0.14759 0.83704 0.70853 -0.42300
O 	O 	0.10535 0.75030 0.73706 -0.42600
O 	O 	0.87842 0.73829 0.71925 -0.42100
N 	N 	0.97701 0.98643 0.70389 -0.08400
Co	Co	0.19177 0.67686 0.26014 1.16900
C 	C 	0.01017 0.79940 0.28532 0.01200
H 	H 	0.00820 0.75790 0.28140 0.04800
C 	C 	0.06556 0.82701 0.29098 -0.06800
C 	C 	0.89557 0.80337 0.27921 0.38300
C 	C 	0.12401 0.79310 0.29216 0.37300
C 	C 	0.01554 0.92216 0.29420 0.09000
C 	C 	0.06836 0.88896 0.29521 -0.06500
H 	H 	0.10520 0.90820 0.29870 0.07500
C 	C 	0.96053 0.89365 0.28926 -0.06400
H 	H 	0.92540 0.91620 0.28850 0.08000
C 	C 	0.95773 0.83253 0.28544 -0.06400
O 	O 	0.17002 0.82373 0.30401 -0.43100
O 	O 	0.85241 0.83704 0.29147 -0.42300
O 	O 	0.89465 0.75030 0.26294 -0.42600
O 	O 	0.12158 0.73829 0.28075 -0.42100
N 	N 	0.02299 0.98643 0.29611 -0.08400
Co	Co	0.19177 0.32314 0.73986 1.16900
C 	C 	0.01017 0.20060 0.71468 0.01200
H 	H 	0.00820 0.24210 0.71860 0.04800
C 	C 	0.06556 0.17299 0.70902 -0.06800
C 	C 	0.89557 0.19663 0.72079 0.38300
C 	C 	0.12401 0.20690 0.70784 0.37300
C 	C 	0.01554 0.07784 0.70580 0.09000
C 	C 	0.06836 0.11104 0.70479 -0.06500
H 	H 	0.10520 0.09180 0.70130 0.07500
C 	C 	0.96053 0.10635 0.71074 -0.06400
H 	H 	0.92540 0.08380 0.71150 0.08000
C 	C 	0.95773 0.16747 0.71456 -0.06400
O 	O 	0.17002 0.17627 0.69599 -0.43100
O 	O 	0.85241 0.16296 0.70853 -0.42300
O 	O 	0.89465 0.24970 0.73706 -0.42600
O 	O 	0.12158 0.26171 0.71925 -0.42100
N 	N 	0.02299 0.01357 0.70389 -0.08400
Co	Co	0.26014 0.80823 0.32314 1.16900
C 	C 	0.28532 0.98983 0.20060 0.01200
H 	H 	0.28140 0.99180 0.24210 0.04800
C 	C 	0.29098 0.93444 0.17299 -0.06800
C 	C 	0.27921 0.10443 0.19663 0.38300
C 	C 	0.29216 0.87599 0.20690 0.37300
C 	C 	0.29420 0.98446 0.07784 0.09000
C 	C 	0.29521 0.93164 0.11104 -0.06500
H 	H 	0.29870 0.89480 0.09180 0.07500
C 	C 	0.28926 0.03947 0.10635 -0.06400
H 	H 	0.28850 0.07460 0.08380 0.08000
C 	C 	0.28544 0.04227 0.16747 -0.06400
O 	O 	0.30401 0.82998 0.17627 -0.43100
O 	O 	0.29147 0.14759 0.16296 -0.42300
O 	O 	0.26294 0.10535 0.24970 -0.42600
O 	O 	0.28075 0.87842 0.26171 -0.42100
N 	N 	0.29611 0.97701 0.01357 -0.08400
Co	Co	0.73986 0.80823 0.67686 1.16900
C 	C 	0.71468 0.98983 0.79940 0.01200
H 	H 	0.71860 0.99180 0.75790 0.04800
C 	C 	0.70902 0.93444 0.82701 -0.06800
C 	C 	0.72079 0.10443 0.80337 0.38300
C 	C 	0.70784 0.87599 0.79310 0.37300
C 	C 	0.70580 0.98446 0.92216 0.09000
C 	C 	0.70479 0.93164 0.88896 -0.06500
H 	H 	0.70130 0.89480 0.90820 0.07500
C 	C 	0.71074 0.03947 0.89365 -0.06400
H 	H 	0.71150 0.07460 0.91620 0.08000
C 	C 	0.71456 0.04227 0.83253 -0.06400
O 	O 	0.69599 0.82998 0.82373 -0.43100
O 	O 	0.70853 0.14759 0.83704 -0.42300
O 	O 	0.73706 0.10535 0.75030 -0.42600
O 	O 	0.71925 0.87842 0.73829 -0.42100
N 	N 	0.70389 0.97701 0.98643 -0.08400
Co	Co	0.26014 0.19177 0.67686 1.16900
C 	C 	0.28532 0.01017 0.79940 0.01200
H 	H 	0.28140 0.00820 0.75790 0.04800
C 	C 	0.29098 0.06556 0.82701 -0.06800
C 	C 	0.27921 0.89557 0.80337 0.38300
C 	C 	0.29216 0.12401 0.79310 0.37300
C 	C 	0.29420 0.01554 0.92216 0.09000
C 	C 	0.29521 0.06836 0.88896 -0.06500
H 	H 	0.29870 0.10520 0.90820 0.07500
C 	C 	0.28926 0.96053 0.89365 -0.06400
H 	H 	0.28850 0.92540 0.91620 0.08000
C 	C 	0.28544 0.95773 0.83253 -0.06400
O 	O 	0.30401 0.17002 0.82373 -0.43100
O 	O 	0.29147 0.85241 0.83704 -0.42300
O 	O 	0.26294 0.89465 0.75030 -0.42600
O 	O 	0.28075 0.12158 0.73829 -0.42100
N 	N 	0.29611 0.02299 0.98643 -0.08400
Co	Co	0.73986 0.19177 0.32314 1.16900
C 	C 	0.71468 0.01017 0.20060 0.01200
H 	H 	0.71860 0.00820 0.24210 0.04800
C 	C 	0.70902 0.06556 0.17299 -0.06800
C 	C 	0.72079 0.89557 0.19663 0.38300
C 	C 	0.70784 0.12401 0.20690 0.37300
C 	C 	0.70580 0.01554 0.07784 0.09000
C 	C 	0.70479 0.06836 0.11104 -0.06500
H 	H 	0.70130 0.10520 0.09180 0.07500
C 	C 	0.71074 0.96053 0.10635 -0.06400
H 	H 	0.71150 0.92540 0.08380 0.08000
C 	C 	0.71456 0.95773 0.16747 -0.06400
O 	O 	0.69599 0.17002 0.17627 -0.43100
O 	O 	0.70853 0.85241 0.16296 -0.42300
O 	O 	0.73706 0.89465 0.24970 -0.42600
O 	O 	0.71925 0.12158 0.26171 -0.42100
N 	N 	0.70389 0.02299 0.01357 -0.08400
Co	Co	0.76014 0.82314 0.30823 1.16900
C 	C 	0.78532 0.70060 0.48983 0.01200
H 	H 	0.78140 0.74210 0.49180 0.04800
C 	C 	0.79098 0.67299 0.43444 -0.06800
C 	C 	0.77921 0.69663 0.60443 0.38300
C 	C 	0.79216 0.70690 0.37599 0.37300
C 	C 	0.79420 0.57784 0.48446 0.09000
C 	C 	0.79521 0.61104 0.43164 -0.06500
H 	H 	0.79870 0.59180 0.39480 0.07500
C 	C 	0.78926 0.60635 0.53947 -0.06400
H 	H 	0.78850 0.58380 0.57460 0.08000
C 	C 	0.78544 0.66747 0.54227 -0.06400
O 	O 	0.80401 0.67627 0.32998 -0.43100
O 	O 	0.79147 0.66296 0.64759 -0.42300
O 	O 	0.76294 0.74970 0.60535 -0.42600
O 	O 	0.78075 0.76171 0.37842 -0.42100
N 	N 	0.79611 0.51357 0.47701 -0.08400
Co	Co	0.23986 0.17686 0.30823 1.16900
C 	C 	0.21468 0.29940 0.48983 0.01200
H 	H 	0.21860 0.25790 0.49180 0.04800
C 	C 	0.20902 0.32701 0.43444 -0.06800
C 	C 	0.22079 0.30337 0.60443 0.38300
C 	C 	0.20784 0.29310 0.37599 0.37300
C 	C 	0.20580 0.42216 0.48446 0.09000
C 	C 	0.20479 0.38896 0.43164 -0.06500
H 	H 	0.20130 0.40820 0.39480 0.07500
C 	C 	0.21074 0.39365 0.53947 -0.06400
H 	H 	0.21150 0.41620 0.57460 0.08000
C 	C 	0.21456 0.33253 0.54227 -0.06400
O 	O 	0.19599 0.32373 0.32998 -0.43100
O 	O 	0.20853 0.33704 0.64759 -0.42300
O 	O 	0.23706 0.25030 0.60535 -0.42600
O 	O 	0.21925 0.23829 0.37842 -0.42100
N 	N 	0.20389 0.48643 0.47701 -0.08400
Co	Co	0.76014 0.17686 0.69177 1.16900
C 	C 	0.78532 0.29940 0.51017 0.01200
H 	H 	0.78140 0.25790 0.50820 0.04800
C 	C 	0.79098 0.32701 0.56556 -0.06800
C 	C 	0.77921 0.30337 0.39557 0.38300
C 	C 	0.79216 0.29310 0.62401 0.37300
C 	C 	0.79420 0.42216 0.51554 0.09000
C 	C 	0.79521 0.38896 0.56836 -0.06500
H 	H 	0.79870 0.40820 0.60520 0.07500
C 	C 	0.78926 0.39365 0.46053 -0.06400
H 	H 	0.78850 0.41620 0.42540 0.08000
C 	C 	0.78544 0.33253 0.45773 -0.06400
O 	O 	0.80401 0.32373 0.67002 -0.43100
O 	O 	0.79147 0.33704 0.35241 -0.42300
O 	O 	0.76294 0.25030 0.39465 -0.42600
O 	O 	0.78075 0.23829 0.62158 -0.42100
N 	N 	0.79611 0.48643 0.52299 -0.08400
Co	Co	0.23986 0.82314 0.69177 1.16900
C 	C 	0.21468 0.70060 0.51017 0.01200
H 	H 	0.21860 0.74210 0.50820 0.04800
C 	C 	0.20902 0.67299 0.56556 -0.06800
C 	C 	0.22079 0.69663 0.39557 0.38300
C 	C 	0.20784 0.70690 0.62401 0.37300
C 	C 	0.20580 0.57784 0.51554 0.09000
C 	C 	0.20479 0.61104 0.56836 -0.06500
H 	H 	0.20130 0.59180 0.60520 0.07500
C 	C 	0.21074 0.60635 0.46053 -0.06400
H 	H 	0.21150 0.58380 0.42540 0.08000
C 	C 	0.21456 0.66747 0.45773 -0.06400
O 	O 	0.19599 0.67627 0.67002 -0.43100
O 	O 	0.20853 0.66296 0.35241 -0.42300
O 	O 	0.23706 0.74970 0.39465 -0.42600
O 	O 	0.21925 0.76171 0.62158 -0.42100
N 	N 	0.20389 0.51357 0.52299 -0.08400
Co	Co	0.82314 0.30823 0.76014 1.16900
C 	C 	0.70060 0.48983 0.78532 0.01200
H 	H 	0.74210 0.49180 0.78140 0.04800
C 	C 	0.67299 0.43444 0.79098 -0.06800
C 	C 	0.69663 0.60443 0.77921 0.38300
C 	C 	0.70690 0.37599 0.79216 0.37300
C 	C 	0.57784 0.48446 0.79420 0.09000
C 	C 	0.61104 0.43164 0.79521 -0.06500
H 	H 	0.59180 0.39480 0.79870 0.07500
C 	C 	0.60635 0.53947 0.78926 -0.06400
H 	H 	0.58380 0.57460 0.78850 0.08000
C 	C 	0.66747 0.54227 0.78544 -0.06400
O 	O 	0.67627 0.32998 0.80401 -0.43100
O 	O 	0.66296 0.64759 0.79147 -0.42300
O 	O 	0.74970 0.60535 0.76294 -0.42600
O 	O 	0.76171 0.37842 0.78075 -0.42100
N 	N 	0.51357 0.47701 0.79611 -0.08400
Co	Co	0.17686 0.30823 0.23986 1.16900
C 	C 	0.29940 0.48983 0.21468 0.01200
H 	H 	0.25790 0.49180 0.21860 0.04800
C 	C 	0.32701 0.43444 0.20902 -0.06800
C 	C 	0.30337 0.60443 0.22079 0.38300
C 	C 	0.29310 0.37599 0.20784 0.37300
C 	C 	0.42216 0.48446 0.20580 0.09000
C 	C 	0.38896 0.43164 0.20479 -0.06500
H 	H 	0.40820 0.39480 0.20130 0.07500
C 	C 	0.39365 0.53947 0.21074 -0.06400
H 	H 	0.41620 0.57460 0.21150 0.08000
C 	C 	0.33253 0.54227 0.21456 -0.06400
O 	O 	0.32373 0.32998 0.19599 -0.43100
O 	O 	0.33704 0.64759 0.20853 -0.42300
O 	O 	0.25030 0.60535 0.23706 -0.42600
O 	O 	0.23829 0.37842 0.21925 -0.42100
N 	N 	0.48643 0.47701 0.20389 -0.08400
Co	Co	0.17686 0.69177 0.76014 1.16900
C 	C 	0.29940 0.51017 0.78532 0.01200
H 	H 	0.25790 0.50820 0.78140 0.04800
C 	C 	0.32701 0.56556 0.79098 -0.06800
C 	C 	0.30337 0.39557 0.77921 0.38300
C 	C 	0.29310 0.62401 0.79216 0.37300
C 	C 	0.42216 0.51554 0.79420 0.09000
C 	C 	0.38896 0.56836 0.79521 -0.06500
H 	H 	0.40820 0.60520 0.79870 0.07500
C 	C 	0.39365 0.46053 0.78926 -0.06400
H 	H 	0.41620 0.42540 0.78850 0.08000
C 	C 	0.33253 0.45773 0.78544 -0.06400
O 	O 	0.32373 0.67002 0.80401 -0.43100
O 	O 	0.33704 0.35241 0.79147 -0.42300
O 	O 	0.25030 0.39465 0.76294 -0.42600
O 	O 	0.23829 0.62158 0.78075 -0.42100
N 	N 	0.48643 0.52299 0.79611 -0.08400
Co	Co	0.82314 0.69177 0.23986 1.16900
C 	C 	0.70060 0.51017 0.21468 0.01200
H 	H 	0.74210 0.50820 0.21860 0.04800
C 	C 	0.67299 0.56556 0.20902 -0.06800
C 	C 	0.69663 0.39557 0.22079 0.38300
C 	C 	0.70690 0.62401 0.20784 0.37300
C 	C 	0.57784 0.51554 0.20580 0.09000
C 	C 	0.61104 0.56836 0.20479 -0.06500
H 	H 	0.59180 0.60520 0.20130 0.07500
C 	C 	0.60635 0.46053 0.21074 -0.06400
H 	H 	0.58380 0.42540 0.21150 0.08000
C 	C 	0.66747 0.45773 0.21456 -0.06400
O 	O 	0.67627 0.67002 0.19599 -0.43100
O 	O 	0.66296 0.35241 0.20853 -0.42300
O 	O 	0.74970 0.39465 0.23706 -0.42600
O 	O 	0.76171 0.62158 0.21925 -0.42100
N 	N 	0.51357 0.52299 0.20389 -0.08400
Co	Co	0.30823 0.76014 0.82314 1.16900
C 	C 	0.48983 0.78532 0.70060 0.01200
H 	H 	0.49180 0.78140 0.74210 0.04800
C 	C 	0.43444 0.79098 0.67299 -0.06800
C 	C 	0.60443 0.77921 0.69663 0.38300
C 	C 	0.37599 0.79216 0.70690 0.37300
C 	C 	0.48446 0.79420 0.57784 0.09000
C 	C 	0.43164 0.79521 0.61104 -0.06500
H 	H 	0.39480 0.79870 0.59180 0.07500
C 	C 	0.53947 0.78926 0.60635 -0.06400
H 	H 	0.57460 0.78850 0.58380 0.08000
C 	C 	0.54227 0.78544 0.66747 -0.06400
O 	O 	0.32998 0.80401 0.67627 -0.43100
O 	O 	0.64759 0.79147 0.66296 -0.42300
O 	O 	0.60535 0.76294 0.74970 -0.42600
O 	O 	0.37842 0.78075 0.76171 -0.42100
N 	N 	0.47701 0.79611 0.51357 -0.08400
Co	Co	0.30823 0.23986 0.17686 1.16900
C 	C 	0.48983 0.21468 0.29940 0.01200
H 	H 	0.49180 0.21860 0.25790 0.04800
C 	C 	0.43444 0.20902 0.32701 -0.06800
C 	C 	0.60443 0.22079 0.30337 0.38300
C 	C 	0.37599 0.20784 0.29310 0.37300
C 	C 	0.48446 0.20580 0.42216 0.09000
C 	C 	0.43164 0.20479 0.38896 -0.06500
H 	H 	0.39480 0.20130 0.40820 0.07500
C 	C 	0.53947 0.21074 0.39365 -0.06400
H 	H 	0.57460 0.21150 0.41620 0.08000
C 	C 	0.54227 0.21456 0.33253 -0.06400
O 	O 	0.32998 0.19599 0.32373 -0.43100
O 	O 	0.64759 0.20853 0.33704 -0.42300
O 	O 	0.60535 0.23706 0.25030 -0.42600
O 	O 	0.37842 0.21925 0.23829 -0.42100
N 	N 	0.47701 0.20389 0.48643 -0.08400
Co	Co	0.69177 0.76014 0.17686 1.16900
C 	C 	0.51017 0.78532 0.29940 0.01200
H 	H 	0.50820 0.78140 0.25790 0.04800
C 	C 	0.56556 0.79098 0.32701 -0.06800
C 	C 	0.39557 0.77921 0.30337 0.38300
C 	C 	0.62401 0.79216 0.29310 0.37300
C 	C 	0.51554 0.79420 0.42216 0.09000
C 	C 	0.56836 0.79521 0.38896 -0.06500
H 	H 	0.60520 0.79870 0.40820 0.07500
C 	C 	0.46053 0.78926 0.39365 -0.06400
H 	H 	0.42540 0.78850 0.41620 0.08000
C 	C 	0.45773 0.78544 0.33253 -0.06400
O 	O 	0.67002 0.80401 0.32373 -0.43100
O 	O 	0.35241 0.79147 0.33704 -0.42300
O 	O 	0.39465 0.76294 0.25030 -0.42600
O 	O 	0.62158 0.78075 0.23829 -0.42100
N 	N 	0.52299 0.79611 0.48643 -0.08400
Co	Co	0.69177 0.23986 0.82314 1.16900
C 	C 	0.51017 0.21468 0.70060 0.01200
H 	H 	0.50820 0.21860 0.74210 0.04800
C 	C 	0.56556 0.20902 0.67299 -0.06800
C 	C 	0.39557 0.22079 0.69663 0.38300
C 	C 	0.62401 0.20784 0.70690 0.37300
C 	C 	0.51554 0.20580 0.57784 0.09000
C 	C 	0.56836 0.20479 0.61104 -0.06500
H 	H 	0.60520 0.20130 0.59180 0.07500
C 	C 	0.46053 0.21074 0.60635 -0.06400
H 	H 	0.42540 0.21150 0.58380 0.08000
C 	C 	0.45773 0.21456 0.66747 -0.06400
O 	O 	0.67002 0.19599 0.67627 -0.43100
O 	O 	0.35241 0.20853 0.66296 -0.42300
O 	O 	0.39465 0.23706 0.74970 -0.42600
O 	O 	0.62158 0.21925 0.76171 -0.42100
N 	N 	0.52299 0.20389 0.51357 -0.08400
O 	O 	0.26355 0.26355 0.73645 -0.55200
O 	O 	0.73645 0.73645 0.73645 -0.55200
O 	O 	0.73645 0.26355 0.26355 -0.55200
O 	O 	0.26355 0.73645 0.26355 -0.55200
O 	O 	0.76355 0.76355 0.23645 -0.55200
O 	O 	0.23645 0.23645 0.23645 -0.55200
O 	O 	0.76355 0.23645 0.76355 -0.55200
O 	O 	0.23645 0.76355 0.76355 -0.55200
