data_crystal

_cell_length_a 21.96920
_cell_length_b 21.96920
_cell_length_c 21.96920
_cell_angle_alpha 90.00000
_cell_angle_beta  90.00000
_cell_angle_gamma 90.00000

_symmetry_space_group_name_	'P 1'
_symmetry_space_group_name_H-M	'P 1'

loop_
_symmetry_equiv_pos_as_xyz
  x,y,z

loop_
_atom_site_label
_atom_site_type_symbol
_atom_site_fract_x
_atom_site_fract_y
_atom_site_fract_z
_atom_site_charge
Mg	Mg	0.67826 0.25965 0.19353 1.47600
C 	C 	0.79110 0.29370 0.12540 0.42700
C 	C 	0.79890 0.28660 0.01020 0.04900
H 	H 	0.75700 0.28080 0.00820 0.03700
C 	C 	0.82390 0.29520 0.06670 -0.10600
C 	C 	0.83120 0.28590 0.95540 -0.09800
C 	C 	0.80220 0.28000 0.89320 0.44000
C 	C 	0.92170 0.30540 0.01540 0.08200
C 	C 	0.88840 0.30320 0.06680 -0.04800
H 	H 	0.90830 0.30700 0.10400 0.07000
C 	C 	0.89170 0.29940 0.95900 -0.04200
H 	H 	0.91380 0.30470 0.92330 0.07200
N 	N 	0.98440 0.30870 0.02420 -0.08800
O 	O 	0.75010 0.25940 0.89344 -0.50600
O 	O 	0.73490 0.27687 0.12387 -0.49600
O 	O 	0.83590 0.29620 0.84970 -0.51100
O 	O 	0.82000 0.30961 0.17180 -0.52200
Mg	Mg	0.32174 0.74035 0.19353 1.47700
C 	C 	0.20890 0.70630 0.12540 0.42800
C 	C 	0.20110 0.71340 0.01020 0.05000
H 	H 	0.24300 0.71920 0.00820 0.03800
C 	C 	0.17610 0.70480 0.06670 -0.10500
C 	C 	0.16880 0.71410 0.95540 -0.09700
C 	C 	0.19780 0.72000 0.89320 0.44100
C 	C 	0.07830 0.69460 0.01540 0.08300
C 	C 	0.11160 0.69680 0.06680 -0.04700
H 	H 	0.09170 0.69300 0.10400 0.07100
C 	C 	0.10830 0.70060 0.95900 -0.04100
H 	H 	0.08620 0.69530 0.92330 0.07300
N 	N 	0.01560 0.69130 0.02420 -0.08700
O 	O 	0.24990 0.74060 0.89344 -0.50500
O 	O 	0.26510 0.72313 0.12387 -0.49500
O 	O 	0.16410 0.70380 0.84970 -0.51000
O 	O 	0.18000 0.69039 0.17180 -0.52200
Mg	Mg	0.32174 0.25965 0.80647 1.47700
C 	C 	0.20890 0.29370 0.87460 0.42800
C 	C 	0.20110 0.28660 0.98980 0.05000
H 	H 	0.24300 0.28080 0.99180 0.03800
C 	C 	0.17610 0.29520 0.93330 -0.10500
C 	C 	0.16880 0.28590 0.04460 -0.09700
C 	C 	0.19780 0.28000 0.10680 0.44100
C 	C 	0.07830 0.30540 0.98460 0.08300
C 	C 	0.11160 0.30320 0.93320 -0.04700
H 	H 	0.09170 0.30700 0.89600 0.07100
C 	C 	0.10830 0.29940 0.04100 -0.04100
H 	H 	0.08620 0.30470 0.07670 0.07300
N 	N 	0.01560 0.30870 0.97580 -0.08700
O 	O 	0.24990 0.25940 0.10656 -0.50500
O 	O 	0.26510 0.27687 0.87613 -0.49500
O 	O 	0.16410 0.29620 0.15030 -0.51000
O 	O 	0.18000 0.30961 0.82820 -0.52200
Mg	Mg	0.67826 0.74035 0.80647 1.47700
C 	C 	0.79110 0.70630 0.87460 0.42800
C 	C 	0.79890 0.71340 0.98980 0.05000
H 	H 	0.75700 0.71920 0.99180 0.03800
C 	C 	0.82390 0.70480 0.93330 -0.10500
C 	C 	0.83120 0.71410 0.04460 -0.09700
C 	C 	0.80220 0.72000 0.10680 0.44100
C 	C 	0.92170 0.69460 0.98460 0.08300
C 	C 	0.88840 0.69680 0.93320 -0.04700
H 	H 	0.90830 0.69300 0.89600 0.07100
C 	C 	0.89170 0.70060 0.04100 -0.04100
H 	H 	0.91380 0.69530 0.07670 0.07300
N 	N 	0.98440 0.69130 0.97580 -0.08700
O 	O 	0.75010 0.74060 0.10656 -0.50500
O 	O 	0.73490 0.72313 0.87613 -0.49500
O 	O 	0.83590 0.70380 0.15030 -0.51000
O 	O 	0.82000 0.69039 0.82820 -0.52200
Mg	Mg	0.19353 0.67826 0.25965 1.47700
C 	C 	0.12540 0.79110 0.29370 0.42800
C 	C 	0.01020 0.79890 0.28660 0.05000
H 	H 	0.00820 0.75700 0.28080 0.03800
C 	C 	0.06670 0.82390 0.29520 -0.10500
C 	C 	0.95540 0.83120 0.28590 -0.09700
C 	C 	0.89320 0.80220 0.28000 0.44100
C 	C 	0.01540 0.92170 0.30540 0.08300
C 	C 	0.06680 0.88840 0.30320 -0.04700
H 	H 	0.10400 0.90830 0.30700 0.07100
C 	C 	0.95900 0.89170 0.29940 -0.04100
H 	H 	0.92330 0.91380 0.30470 0.07300
N 	N 	0.02420 0.98440 0.30870 -0.08700
O 	O 	0.89344 0.75010 0.25940 -0.50500
O 	O 	0.12387 0.73490 0.27687 -0.49500
O 	O 	0.84970 0.83590 0.29620 -0.51000
O 	O 	0.17180 0.82000 0.30961 -0.52200
Mg	Mg	0.19353 0.32174 0.74035 1.47700
C 	C 	0.12540 0.20890 0.70630 0.42800
C 	C 	0.01020 0.20110 0.71340 0.05000
H 	H 	0.00820 0.24300 0.71920 0.03800
C 	C 	0.06670 0.17610 0.70480 -0.10500
C 	C 	0.95540 0.16880 0.71410 -0.09700
C 	C 	0.89320 0.19780 0.72000 0.44100
C 	C 	0.01540 0.07830 0.69460 0.08300
C 	C 	0.06680 0.11160 0.69680 -0.04700
H 	H 	0.10400 0.09170 0.69300 0.07100
C 	C 	0.95900 0.10830 0.70060 -0.04100
H 	H 	0.92330 0.08620 0.69530 0.07300
N 	N 	0.02420 0.01560 0.69130 -0.08700
O 	O 	0.89344 0.24990 0.74060 -0.50500
O 	O 	0.12387 0.26510 0.72313 -0.49500
O 	O 	0.84970 0.16410 0.70380 -0.51000
O 	O 	0.17180 0.18000 0.69039 -0.52200
Mg	Mg	0.80647 0.32174 0.25965 1.47700
C 	C 	0.87460 0.20890 0.29370 0.42800
C 	C 	0.98980 0.20110 0.28660 0.05000
H 	H 	0.99180 0.24300 0.28080 0.03800
C 	C 	0.93330 0.17610 0.29520 -0.10500
C 	C 	0.04460 0.16880 0.28590 -0.09700
C 	C 	0.10680 0.19780 0.28000 0.44100
C 	C 	0.98460 0.07830 0.30540 0.08300
C 	C 	0.93320 0.11160 0.30320 -0.04700
H 	H 	0.89600 0.09170 0.30700 0.07100
C 	C 	0.04100 0.10830 0.29940 -0.04100
H 	H 	0.07670 0.08620 0.30470 0.07300
N 	N 	0.97580 0.01560 0.30870 -0.08700
O 	O 	0.10656 0.24990 0.25940 -0.50500
O 	O 	0.87613 0.26510 0.27687 -0.49500
O 	O 	0.15030 0.16410 0.29620 -0.51000
O 	O 	0.82820 0.18000 0.30961 -0.52200
Mg	Mg	0.80647 0.67826 0.74035 1.47700
C 	C 	0.87460 0.79110 0.70630 0.42800
C 	C 	0.98980 0.79890 0.71340 0.05000
H 	H 	0.99180 0.75700 0.71920 0.03800
C 	C 	0.93330 0.82390 0.70480 -0.10500
C 	C 	0.04460 0.83120 0.71410 -0.09700
C 	C 	0.10680 0.80220 0.72000 0.44100
C 	C 	0.98460 0.92170 0.69460 0.08300
C 	C 	0.93320 0.88840 0.69680 -0.04700
H 	H 	0.89600 0.90830 0.69300 0.07100
C 	C 	0.04100 0.89170 0.70060 -0.04100
H 	H 	0.07670 0.91380 0.69530 0.07300
N 	N 	0.97580 0.98440 0.69130 -0.08700
O 	O 	0.10656 0.75010 0.74060 -0.50500
O 	O 	0.87613 0.73490 0.72313 -0.49500
O 	O 	0.15030 0.83590 0.70380 -0.51000
O 	O 	0.82820 0.82000 0.69039 -0.52200
Mg	Mg	0.25965 0.19353 0.67826 1.47700
C 	C 	0.29370 0.12540 0.79110 0.42800
C 	C 	0.28660 0.01020 0.79890 0.05000
H 	H 	0.28080 0.00820 0.75700 0.03800
C 	C 	0.29520 0.06670 0.82390 -0.10500
C 	C 	0.28590 0.95540 0.83120 -0.09700
C 	C 	0.28000 0.89320 0.80220 0.44100
C 	C 	0.30540 0.01540 0.92170 0.08300
C 	C 	0.30320 0.06680 0.88840 -0.04700
H 	H 	0.30700 0.10400 0.90830 0.07100
C 	C 	0.29940 0.95900 0.89170 -0.04100
H 	H 	0.30470 0.92330 0.91380 0.07300
N 	N 	0.30870 0.02420 0.98440 -0.08700
O 	O 	0.25940 0.89344 0.75010 -0.50500
O 	O 	0.27687 0.12387 0.73490 -0.49500
O 	O 	0.29620 0.84970 0.83590 -0.51000
O 	O 	0.30961 0.17180 0.82000 -0.52200
Mg	Mg	0.74035 0.19353 0.32174 1.47700
C 	C 	0.70630 0.12540 0.20890 0.42800
C 	C 	0.71340 0.01020 0.20110 0.05000
H 	H 	0.71920 0.00820 0.24300 0.03800
C 	C 	0.70480 0.06670 0.17610 -0.10500
C 	C 	0.71410 0.95540 0.16880 -0.09700
C 	C 	0.72000 0.89320 0.19780 0.44100
C 	C 	0.69460 0.01540 0.07830 0.08300
C 	C 	0.69680 0.06680 0.11160 -0.04700
H 	H 	0.69300 0.10400 0.09170 0.07100
C 	C 	0.70060 0.95900 0.10830 -0.04100
H 	H 	0.69530 0.92330 0.08620 0.07300
N 	N 	0.69130 0.02420 0.01560 -0.08700
O 	O 	0.74060 0.89344 0.24990 -0.50500
O 	O 	0.72313 0.12387 0.26510 -0.49500
O 	O 	0.70380 0.84970 0.16410 -0.51000
O 	O 	0.69039 0.17180 0.18000 -0.52200
Mg	Mg	0.25965 0.80647 0.32174 1.47700
C 	C 	0.29370 0.87460 0.20890 0.42800
C 	C 	0.28660 0.98980 0.20110 0.05000
H 	H 	0.28080 0.99180 0.24300 0.03800
C 	C 	0.29520 0.93330 0.17610 -0.10500
C 	C 	0.28590 0.04460 0.16880 -0.09700
C 	C 	0.28000 0.10680 0.19780 0.44100
C 	C 	0.30540 0.98460 0.07830 0.08300
C 	C 	0.30320 0.93320 0.11160 -0.04700
H 	H 	0.30700 0.89600 0.09170 0.07100
C 	C 	0.29940 0.04100 0.10830 -0.04100
H 	H 	0.30470 0.07670 0.08620 0.07300
N 	N 	0.30870 0.97580 0.01560 -0.08700
O 	O 	0.25940 0.10656 0.24990 -0.50500
O 	O 	0.27687 0.87613 0.26510 -0.49500
O 	O 	0.29620 0.15030 0.16410 -0.51000
O 	O 	0.30961 0.82820 0.18000 -0.52200
Mg	Mg	0.74035 0.80647 0.67826 1.47700
C 	C 	0.70630 0.87460 0.79110 0.42800
C 	C 	0.71340 0.98980 0.79890 0.05000
H 	H 	0.71920 0.99180 0.75700 0.03800
C 	C 	0.70480 0.93330 0.82390 -0.10500
C 	C 	0.71410 0.04460 0.83120 -0.09700
C 	C 	0.72000 0.10680 0.80220 0.44100
C 	C 	0.69460 0.98460 0.92170 0.08300
C 	C 	0.69680 0.93320 0.88840 -0.04700
H 	H 	0.69300 0.89600 0.90830 0.07100
C 	C 	0.70060 0.04100 0.89170 -0.04100
H 	H 	0.69530 0.07670 0.91380 0.07300
N 	N 	0.69130 0.97580 0.98440 -0.08700
O 	O 	0.74060 0.10656 0.75010 -0.50500
O 	O 	0.72313 0.87613 0.73490 -0.49500
O 	O 	0.70380 0.15030 0.83590 -0.51000
O 	O 	0.69039 0.82820 0.82000 -0.52200
Mg	Mg	0.75965 0.17826 0.69353 1.47700
C 	C 	0.79370 0.29110 0.62540 0.42800
C 	C 	0.78660 0.29890 0.51020 0.05000
H 	H 	0.78080 0.25700 0.50820 0.03800
C 	C 	0.79520 0.32390 0.56670 -0.10500
C 	C 	0.78590 0.33120 0.45540 -0.09700
C 	C 	0.78000 0.30220 0.39320 0.44100
C 	C 	0.80540 0.42170 0.51540 0.08300
C 	C 	0.80320 0.38840 0.56680 -0.04700
H 	H 	0.80700 0.40830 0.60400 0.07100
C 	C 	0.79940 0.39170 0.45900 -0.04100
H 	H 	0.80470 0.41380 0.42330 0.07300
N 	N 	0.80870 0.48440 0.52420 -0.08700
O 	O 	0.75940 0.25010 0.39344 -0.50500
O 	O 	0.77687 0.23490 0.62387 -0.49500
O 	O 	0.79620 0.33590 0.34970 -0.51000
O 	O 	0.80961 0.32000 0.67180 -0.52200
Mg	Mg	0.24035 0.82174 0.69353 1.47700
C 	C 	0.20630 0.70890 0.62540 0.42800
C 	C 	0.21340 0.70110 0.51020 0.05000
H 	H 	0.21920 0.74300 0.50820 0.03800
C 	C 	0.20480 0.67610 0.56670 -0.10500
C 	C 	0.21410 0.66880 0.45540 -0.09700
C 	C 	0.22000 0.69780 0.39320 0.44100
C 	C 	0.19460 0.57830 0.51540 0.08300
C 	C 	0.19680 0.61160 0.56680 -0.04700
H 	H 	0.19300 0.59170 0.60400 0.07100
C 	C 	0.20060 0.60830 0.45900 -0.04100
H 	H 	0.19530 0.58620 0.42330 0.07300
N 	N 	0.19130 0.51560 0.52420 -0.08700
O 	O 	0.24060 0.74990 0.39344 -0.50500
O 	O 	0.22313 0.76510 0.62387 -0.49500
O 	O 	0.20380 0.66410 0.34970 -0.51000
O 	O 	0.19039 0.68000 0.67180 -0.52200
Mg	Mg	0.75965 0.82174 0.30647 1.47700
C 	C 	0.79370 0.70890 0.37460 0.42800
C 	C 	0.78660 0.70110 0.48980 0.05000
H 	H 	0.78080 0.74300 0.49180 0.03800
C 	C 	0.79520 0.67610 0.43330 -0.10500
C 	C 	0.78590 0.66880 0.54460 -0.09700
C 	C 	0.78000 0.69780 0.60680 0.44100
C 	C 	0.80540 0.57830 0.48460 0.08300
C 	C 	0.80320 0.61160 0.43320 -0.04700
H 	H 	0.80700 0.59170 0.39600 0.07100
C 	C 	0.79940 0.60830 0.54100 -0.04100
H 	H 	0.80470 0.58620 0.57670 0.07300
N 	N 	0.80870 0.51560 0.47580 -0.08700
O 	O 	0.75940 0.74990 0.60656 -0.50500
O 	O 	0.77687 0.76510 0.37613 -0.49500
O 	O 	0.79620 0.66410 0.65030 -0.51000
O 	O 	0.80961 0.68000 0.32820 -0.52200
Mg	Mg	0.24035 0.17826 0.30647 1.47700
C 	C 	0.20630 0.29110 0.37460 0.42800
C 	C 	0.21340 0.29890 0.48980 0.05000
H 	H 	0.21920 0.25700 0.49180 0.03800
C 	C 	0.20480 0.32390 0.43330 -0.10500
C 	C 	0.21410 0.33120 0.54460 -0.09700
C 	C 	0.22000 0.30220 0.60680 0.44100
C 	C 	0.19460 0.42170 0.48460 0.08300
C 	C 	0.19680 0.38840 0.43320 -0.04700
H 	H 	0.19300 0.40830 0.39600 0.07100
C 	C 	0.20060 0.39170 0.54100 -0.04100
H 	H 	0.19530 0.41380 0.57670 0.07300
N 	N 	0.19130 0.48440 0.47580 -0.08700
O 	O 	0.24060 0.25010 0.60656 -0.50500
O 	O 	0.22313 0.23490 0.37613 -0.49500
O 	O 	0.20380 0.33590 0.65030 -0.51000
O 	O 	0.19039 0.32000 0.32820 -0.52200
Mg	Mg	0.17826 0.69353 0.75965 1.47700
C 	C 	0.29110 0.62540 0.79370 0.42800
C 	C 	0.29890 0.51020 0.78660 0.05000
H 	H 	0.25700 0.50820 0.78080 0.03800
C 	C 	0.32390 0.56670 0.79520 -0.10500
C 	C 	0.33120 0.45540 0.78590 -0.09700
C 	C 	0.30220 0.39320 0.78000 0.44100
C 	C 	0.42170 0.51540 0.80540 0.08300
C 	C 	0.38840 0.56680 0.80320 -0.04700
H 	H 	0.40830 0.60400 0.80700 0.07100
C 	C 	0.39170 0.45900 0.79940 -0.04100
H 	H 	0.41380 0.42330 0.80470 0.07300
N 	N 	0.48440 0.52420 0.80870 -0.08700
O 	O 	0.25010 0.39344 0.75940 -0.50500
O 	O 	0.23490 0.62387 0.77687 -0.49500
O 	O 	0.33590 0.34970 0.79620 -0.51000
O 	O 	0.32000 0.67180 0.80961 -0.52200
Mg	Mg	0.82174 0.69353 0.24035 1.47700
C 	C 	0.70890 0.62540 0.20630 0.42800
C 	C 	0.70110 0.51020 0.21340 0.05000
H 	H 	0.74300 0.50820 0.21920 0.03800
C 	C 	0.67610 0.56670 0.20480 -0.10500
C 	C 	0.66880 0.45540 0.21410 -0.09700
C 	C 	0.69780 0.39320 0.22000 0.44100
C 	C 	0.57830 0.51540 0.19460 0.08300
C 	C 	0.61160 0.56680 0.19680 -0.04700
H 	H 	0.59170 0.60400 0.19300 0.07100
C 	C 	0.60830 0.45900 0.20060 -0.04100
H 	H 	0.58620 0.42330 0.19530 0.07300
N 	N 	0.51560 0.52420 0.19130 -0.08700
O 	O 	0.74990 0.39344 0.24060 -0.50500
O 	O 	0.76510 0.62387 0.22313 -0.49500
O 	O 	0.66410 0.34970 0.20380 -0.51000
O 	O 	0.68000 0.67180 0.19039 -0.52200
Mg	Mg	0.82174 0.30647 0.75965 1.47700
C 	C 	0.70890 0.37460 0.79370 0.42800
C 	C 	0.70110 0.48980 0.78660 0.05000
H 	H 	0.74300 0.49180 0.78080 0.03800
C 	C 	0.67610 0.43330 0.79520 -0.10500
C 	C 	0.66880 0.54460 0.78590 -0.09700
C 	C 	0.69780 0.60680 0.78000 0.44100
C 	C 	0.57830 0.48460 0.80540 0.08300
C 	C 	0.61160 0.43320 0.80320 -0.04700
H 	H 	0.59170 0.39600 0.80700 0.07100
C 	C 	0.60830 0.54100 0.79940 -0.04100
H 	H 	0.58620 0.57670 0.80470 0.07300
N 	N 	0.51560 0.47580 0.80870 -0.08700
O 	O 	0.74990 0.60656 0.75940 -0.50500
O 	O 	0.76510 0.37613 0.77687 -0.49500
O 	O 	0.66410 0.65030 0.79620 -0.51000
O 	O 	0.68000 0.32820 0.80961 -0.52200
Mg	Mg	0.17826 0.30647 0.24035 1.47700
C 	C 	0.29110 0.37460 0.20630 0.42800
C 	C 	0.29890 0.48980 0.21340 0.05000
H 	H 	0.25700 0.49180 0.21920 0.03800
C 	C 	0.32390 0.43330 0.20480 -0.10500
C 	C 	0.33120 0.54460 0.21410 -0.09700
C 	C 	0.30220 0.60680 0.22000 0.44100
C 	C 	0.42170 0.48460 0.19460 0.08300
C 	C 	0.38840 0.43320 0.19680 -0.04700
H 	H 	0.40830 0.39600 0.19300 0.07100
C 	C 	0.39170 0.54100 0.20060 -0.04100
H 	H 	0.41380 0.57670 0.19530 0.07300
N 	N 	0.48440 0.47580 0.19130 -0.08700
O 	O 	0.25010 0.60656 0.24060 -0.50500
O 	O 	0.23490 0.37613 0.22313 -0.49500
O 	O 	0.33590 0.65030 0.20380 -0.51000
O 	O 	0.32000 0.32820 0.19039 -0.52200
Mg	Mg	0.69353 0.75965 0.17826 1.47700
C 	C 	0.62540 0.79370 0.29110 0.42800
C 	C 	0.51020 0.78660 0.29890 0.05000
H 	H 	0.50820 0.78080 0.25700 0.03800
C 	C 	0.56670 0.79520 0.32390 -0.10500
C 	C 	0.45540 0.78590 0.33120 -0.09700
C 	C 	0.39320 0.78000 0.30220 0.44100
C 	C 	0.51540 0.80540 0.42170 0.08300
C 	C 	0.56680 0.80320 0.38840 -0.04700
H 	H 	0.60400 0.80700 0.40830 0.07100
C 	C 	0.45900 0.79940 0.39170 -0.04100
H 	H 	0.42330 0.80470 0.41380 0.07300
N 	N 	0.52420 0.80870 0.48440 -0.08700
O 	O 	0.39344 0.75940 0.25010 -0.50500
O 	O 	0.62387 0.77687 0.23490 -0.49500
O 	O 	0.34970 0.79620 0.33590 -0.51000
O 	O 	0.67180 0.80961 0.32000 -0.52200
Mg	Mg	0.69353 0.24035 0.82174 1.47700
C 	C 	0.62540 0.20630 0.70890 0.42800
C 	C 	0.51020 0.21340 0.70110 0.05000
H 	H 	0.50820 0.21920 0.74300 0.03800
C 	C 	0.56670 0.20480 0.67610 -0.10500
C 	C 	0.45540 0.21410 0.66880 -0.09700
C 	C 	0.39320 0.22000 0.69780 0.44100
C 	C 	0.51540 0.19460 0.57830 0.08300
C 	C 	0.56680 0.19680 0.61160 -0.04700
H 	H 	0.60400 0.19300 0.59170 0.07100
C 	C 	0.45900 0.20060 0.60830 -0.04100
H 	H 	0.42330 0.19530 0.58620 0.07300
N 	N 	0.52420 0.19130 0.51560 -0.08700
O 	O 	0.39344 0.24060 0.74990 -0.50500
O 	O 	0.62387 0.22313 0.76510 -0.49500
O 	O 	0.34970 0.20380 0.66410 -0.51000
O 	O 	0.67180 0.19039 0.68000 -0.52200
Mg	Mg	0.30647 0.75965 0.82174 1.47700
C 	C 	0.37460 0.79370 0.70890 0.42800
C 	C 	0.48980 0.78660 0.70110 0.05000
H 	H 	0.49180 0.78080 0.74300 0.03800
C 	C 	0.43330 0.79520 0.67610 -0.10500
C 	C 	0.54460 0.78590 0.66880 -0.09700
C 	C 	0.60680 0.78000 0.69780 0.44100
C 	C 	0.48460 0.80540 0.57830 0.08300
C 	C 	0.43320 0.80320 0.61160 -0.04700
H 	H 	0.39600 0.80700 0.59170 0.07100
C 	C 	0.54100 0.79940 0.60830 -0.04100
H 	H 	0.57670 0.80470 0.58620 0.07300
N 	N 	0.47580 0.80870 0.51560 -0.08700
O 	O 	0.60656 0.75940 0.74990 -0.50500
O 	O 	0.37613 0.77687 0.76510 -0.49500
O 	O 	0.65030 0.79620 0.66410 -0.51000
O 	O 	0.32820 0.80961 0.68000 -0.52200
Mg	Mg	0.30647 0.24035 0.17826 1.47700
C 	C 	0.37460 0.20630 0.29110 0.42800
C 	C 	0.48980 0.21340 0.29890 0.05000
H 	H 	0.49180 0.21920 0.25700 0.03800
C 	C 	0.43330 0.20480 0.32390 -0.10500
C 	C 	0.54460 0.21410 0.33120 -0.09700
C 	C 	0.60680 0.22000 0.30220 0.44100
C 	C 	0.48460 0.19460 0.42170 0.08300
C 	C 	0.43320 0.19680 0.38840 -0.04700
H 	H 	0.39600 0.19300 0.40830 0.07100
C 	C 	0.54100 0.20060 0.39170 -0.04100
H 	H 	0.57670 0.19530 0.41380 0.07300
N 	N 	0.47580 0.19130 0.48440 -0.08700
O 	O 	0.60656 0.24060 0.25010 -0.50500
O 	O 	0.37613 0.22313 0.23490 -0.49500
O 	O 	0.65030 0.20380 0.33590 -0.51000
O 	O 	0.32820 0.19039 0.32000 -0.52200
O 	O 	0.74040 0.25960 0.25960 -0.75400
O 	O 	0.25960 0.74040 0.25960 -0.75400
O 	O 	0.25960 0.25960 0.74040 -0.75400
O 	O 	0.74040 0.74040 0.74040 -0.75400
O 	O 	0.75960 0.24040 0.75960 -0.75400
O 	O 	0.24040 0.75960 0.75960 -0.75400
O 	O 	0.75960 0.75960 0.24040 -0.75400
O 	O 	0.24040 0.24040 0.24040 -0.75400
