data_crystal

_cell_length_a 22.11520
_cell_length_b 22.11520
_cell_length_c 22.11520
_cell_angle_alpha 90.00000
_cell_angle_beta  90.00000
_cell_angle_gamma 90.00000

_symmetry_space_group_name_	'P 1'
_symmetry_space_group_name_H-M	'P 1'

loop_
_symmetry_equiv_pos_as_xyz
  x,y,z

loop_
_atom_site_label
_atom_site_type_symbol
_atom_site_fract_x
_atom_site_fract_y
_atom_site_fract_z
_atom_site_charge
Ni	Ni	0.23945 0.30666 0.17772 1.11600
C 	C 	0.22140 0.60478 0.30259 0.37200
C 	C 	0.20740 0.37407 0.29170 0.39300
C 	C 	0.20240 0.43123 0.38880 -0.06900
H 	H 	0.19850 0.39420 0.40830 0.07800
C 	C 	0.21000 0.53966 0.39309 -0.06900
H 	H 	0.21200 0.57490 0.41590 0.08300
C 	C 	0.20820 0.43381 0.32590 -0.06500
C 	C 	0.20270 0.48420 0.42146 0.09400
C 	C 	0.21410 0.54236 0.33122 -0.05900
C 	C 	0.21530 0.48978 0.29765 0.00700
H 	H 	0.22080 0.49160 0.25600 0.05100
O 	O 	0.19003 0.32988 0.32130 -0.43100
O 	O 	0.20578 0.64817 0.33543 -0.41400
O 	O 	0.24209 0.60592 0.25007 -0.41200
O 	O 	0.22276 0.37645 0.23812 -0.42400
N 	N 	0.20120 0.47728 0.48678 -0.08200
Ni	Ni	0.76055 0.69334 0.17772 1.11700
C 	C 	0.77860 0.39522 0.30259 0.37300
C 	C 	0.79260 0.62593 0.29170 0.39400
C 	C 	0.79760 0.56877 0.38880 -0.06800
H 	H 	0.80150 0.60580 0.40830 0.07900
C 	C 	0.79000 0.46034 0.39309 -0.06800
H 	H 	0.78800 0.42510 0.41590 0.08400
C 	C 	0.79180 0.56619 0.32590 -0.06400
C 	C 	0.79730 0.51580 0.42146 0.09500
C 	C 	0.78590 0.45764 0.33122 -0.05800
C 	C 	0.78470 0.51022 0.29765 0.00800
H 	H 	0.77920 0.50840 0.25600 0.05200
O 	O 	0.80997 0.67012 0.32130 -0.43000
O 	O 	0.79422 0.35183 0.33543 -0.41300
O 	O 	0.75791 0.39408 0.25007 -0.41100
O 	O 	0.77724 0.62355 0.23812 -0.42300
N 	N 	0.79880 0.52272 0.48678 -0.08200
Ni	Ni	0.76055 0.30666 0.82228 1.11700
C 	C 	0.77860 0.60478 0.69741 0.37300
C 	C 	0.79260 0.37407 0.70830 0.39400
C 	C 	0.79760 0.43123 0.61120 -0.06800
H 	H 	0.80150 0.39420 0.59170 0.07900
C 	C 	0.79000 0.53966 0.60691 -0.06800
H 	H 	0.78800 0.57490 0.58410 0.08400
C 	C 	0.79180 0.43381 0.67410 -0.06400
C 	C 	0.79730 0.48420 0.57854 0.09500
C 	C 	0.78590 0.54236 0.66878 -0.05800
C 	C 	0.78470 0.48978 0.70235 0.00800
H 	H 	0.77920 0.49160 0.74400 0.05200
O 	O 	0.80997 0.32988 0.67870 -0.43000
O 	O 	0.79422 0.64817 0.66457 -0.41300
O 	O 	0.75791 0.60592 0.74993 -0.41100
O 	O 	0.77724 0.37645 0.76188 -0.42300
N 	N 	0.79880 0.47728 0.51322 -0.08200
Ni	Ni	0.23945 0.69334 0.82228 1.11700
C 	C 	0.22140 0.39522 0.69741 0.37300
C 	C 	0.20740 0.62593 0.70830 0.39400
C 	C 	0.20240 0.56877 0.61120 -0.06800
H 	H 	0.19850 0.60580 0.59170 0.07900
C 	C 	0.21000 0.46034 0.60691 -0.06800
H 	H 	0.21200 0.42510 0.58410 0.08400
C 	C 	0.20820 0.56619 0.67410 -0.06400
C 	C 	0.20270 0.51580 0.57854 0.09500
C 	C 	0.21410 0.45764 0.66878 -0.05800
C 	C 	0.21530 0.51022 0.70235 0.00800
H 	H 	0.22080 0.50840 0.74400 0.05200
O 	O 	0.19003 0.67012 0.67870 -0.43000
O 	O 	0.20578 0.35183 0.66457 -0.41300
O 	O 	0.24209 0.39408 0.74993 -0.41100
O 	O 	0.22276 0.62355 0.76188 -0.42300
N 	N 	0.20120 0.52272 0.51322 -0.08200
Ni	Ni	0.17772 0.23945 0.30666 1.11700
C 	C 	0.30259 0.22140 0.60478 0.37300
C 	C 	0.29170 0.20740 0.37407 0.39400
C 	C 	0.38880 0.20240 0.43123 -0.06800
H 	H 	0.40830 0.19850 0.39420 0.07900
C 	C 	0.39309 0.21000 0.53966 -0.06800
H 	H 	0.41590 0.21200 0.57490 0.08400
C 	C 	0.32590 0.20820 0.43381 -0.06400
C 	C 	0.42146 0.20270 0.48420 0.09500
C 	C 	0.33122 0.21410 0.54236 -0.05800
C 	C 	0.29765 0.21530 0.48978 0.00800
H 	H 	0.25600 0.22080 0.49160 0.05200
O 	O 	0.32130 0.19003 0.32988 -0.43000
O 	O 	0.33543 0.20578 0.64817 -0.41300
O 	O 	0.25007 0.24209 0.60592 -0.41100
O 	O 	0.23812 0.22276 0.37645 -0.42300
N 	N 	0.48678 0.20120 0.47728 -0.08200
Ni	Ni	0.17772 0.76055 0.69334 1.11700
C 	C 	0.30259 0.77860 0.39522 0.37300
C 	C 	0.29170 0.79260 0.62593 0.39400
C 	C 	0.38880 0.79760 0.56877 -0.06800
H 	H 	0.40830 0.80150 0.60580 0.07900
C 	C 	0.39309 0.79000 0.46034 -0.06800
H 	H 	0.41590 0.78800 0.42510 0.08400
C 	C 	0.32590 0.79180 0.56619 -0.06400
C 	C 	0.42146 0.79730 0.51580 0.09500
C 	C 	0.33122 0.78590 0.45764 -0.05800
C 	C 	0.29765 0.78470 0.51022 0.00800
H 	H 	0.25600 0.77920 0.50840 0.05200
O 	O 	0.32130 0.80997 0.67012 -0.43000
O 	O 	0.33543 0.79422 0.35183 -0.41300
O 	O 	0.25007 0.75791 0.39408 -0.41100
O 	O 	0.23812 0.77724 0.62355 -0.42300
N 	N 	0.48678 0.79880 0.52272 -0.08200
Ni	Ni	0.82228 0.76055 0.30666 1.11700
C 	C 	0.69741 0.77860 0.60478 0.37300
C 	C 	0.70830 0.79260 0.37407 0.39400
C 	C 	0.61120 0.79760 0.43123 -0.06800
H 	H 	0.59170 0.80150 0.39420 0.07900
C 	C 	0.60691 0.79000 0.53966 -0.06800
H 	H 	0.58410 0.78800 0.57490 0.08400
C 	C 	0.67410 0.79180 0.43381 -0.06400
C 	C 	0.57854 0.79730 0.48420 0.09500
C 	C 	0.66878 0.78590 0.54236 -0.05800
C 	C 	0.70235 0.78470 0.48978 0.00800
H 	H 	0.74400 0.77920 0.49160 0.05200
O 	O 	0.67870 0.80997 0.32988 -0.43000
O 	O 	0.66457 0.79422 0.64817 -0.41300
O 	O 	0.74993 0.75791 0.60592 -0.41100
O 	O 	0.76188 0.77724 0.37645 -0.42300
N 	N 	0.51322 0.79880 0.47728 -0.08200
Ni	Ni	0.82228 0.23945 0.69334 1.11700
C 	C 	0.69741 0.22140 0.39522 0.37300
C 	C 	0.70830 0.20740 0.62593 0.39400
C 	C 	0.61120 0.20240 0.56877 -0.06800
H 	H 	0.59170 0.19850 0.60580 0.07900
C 	C 	0.60691 0.21000 0.46034 -0.06800
H 	H 	0.58410 0.21200 0.42510 0.08400
C 	C 	0.67410 0.20820 0.56619 -0.06400
C 	C 	0.57854 0.20270 0.51580 0.09500
C 	C 	0.66878 0.21410 0.45764 -0.05800
C 	C 	0.70235 0.21530 0.51022 0.00800
H 	H 	0.74400 0.22080 0.50840 0.05200
O 	O 	0.67870 0.19003 0.67012 -0.43000
O 	O 	0.66457 0.20578 0.35183 -0.41300
O 	O 	0.74993 0.24209 0.39408 -0.41100
O 	O 	0.76188 0.22276 0.62355 -0.42300
N 	N 	0.51322 0.20120 0.52272 -0.08200
Ni	Ni	0.30666 0.17772 0.23945 1.11700
C 	C 	0.60478 0.30259 0.22140 0.37300
C 	C 	0.37407 0.29170 0.20740 0.39400
C 	C 	0.43123 0.38880 0.20240 -0.06800
H 	H 	0.39420 0.40830 0.19850 0.07900
C 	C 	0.53966 0.39309 0.21000 -0.06800
H 	H 	0.57490 0.41590 0.21200 0.08400
C 	C 	0.43381 0.32590 0.20820 -0.06400
C 	C 	0.48420 0.42146 0.20270 0.09500
C 	C 	0.54236 0.33122 0.21410 -0.05800
C 	C 	0.48978 0.29765 0.21530 0.00800
H 	H 	0.49160 0.25600 0.22080 0.05200
O 	O 	0.32988 0.32130 0.19003 -0.43000
O 	O 	0.64817 0.33543 0.20578 -0.41300
O 	O 	0.60592 0.25007 0.24209 -0.41100
O 	O 	0.37645 0.23812 0.22276 -0.42300
N 	N 	0.47728 0.48678 0.20120 -0.08200
Ni	Ni	0.69334 0.17772 0.76055 1.11700
C 	C 	0.39522 0.30259 0.77860 0.37300
C 	C 	0.62593 0.29170 0.79260 0.39400
C 	C 	0.56877 0.38880 0.79760 -0.06800
H 	H 	0.60580 0.40830 0.80150 0.07900
C 	C 	0.46034 0.39309 0.79000 -0.06800
H 	H 	0.42510 0.41590 0.78800 0.08400
C 	C 	0.56619 0.32590 0.79180 -0.06400
C 	C 	0.51580 0.42146 0.79730 0.09500
C 	C 	0.45764 0.33122 0.78590 -0.05800
C 	C 	0.51022 0.29765 0.78470 0.00800
H 	H 	0.50840 0.25600 0.77920 0.05200
O 	O 	0.67012 0.32130 0.80997 -0.43000
O 	O 	0.35183 0.33543 0.79422 -0.41300
O 	O 	0.39408 0.25007 0.75791 -0.41100
O 	O 	0.62355 0.23812 0.77724 -0.42300
N 	N 	0.52272 0.48678 0.79880 -0.08200
Ni	Ni	0.30666 0.82228 0.76055 1.11700
C 	C 	0.60478 0.69741 0.77860 0.37300
C 	C 	0.37407 0.70830 0.79260 0.39400
C 	C 	0.43123 0.61120 0.79760 -0.06800
H 	H 	0.39420 0.59170 0.80150 0.07900
C 	C 	0.53966 0.60691 0.79000 -0.06800
H 	H 	0.57490 0.58410 0.78800 0.08400
C 	C 	0.43381 0.67410 0.79180 -0.06400
C 	C 	0.48420 0.57854 0.79730 0.09500
C 	C 	0.54236 0.66878 0.78590 -0.05800
C 	C 	0.48978 0.70235 0.78470 0.00800
H 	H 	0.49160 0.74400 0.77920 0.05200
O 	O 	0.32988 0.67870 0.80997 -0.43000
O 	O 	0.64817 0.66457 0.79422 -0.41300
O 	O 	0.60592 0.74993 0.75791 -0.41100
O 	O 	0.37645 0.76188 0.77724 -0.42300
N 	N 	0.47728 0.51322 0.79880 -0.08200
Ni	Ni	0.69334 0.82228 0.23945 1.11700
C 	C 	0.39522 0.69741 0.22140 0.37300
C 	C 	0.62593 0.70830 0.20740 0.39400
C 	C 	0.56877 0.61120 0.20240 -0.06800
H 	H 	0.60580 0.59170 0.19850 0.07900
C 	C 	0.46034 0.60691 0.21000 -0.06800
H 	H 	0.42510 0.58410 0.21200 0.08400
C 	C 	0.56619 0.67410 0.20820 -0.06400
C 	C 	0.51580 0.57854 0.20270 0.09500
C 	C 	0.45764 0.66878 0.21410 -0.05800
C 	C 	0.51022 0.70235 0.21530 0.00800
H 	H 	0.50840 0.74400 0.22080 0.05200
O 	O 	0.67012 0.67870 0.19003 -0.43000
O 	O 	0.35183 0.66457 0.20578 -0.41300
O 	O 	0.39408 0.74993 0.24209 -0.41100
O 	O 	0.62355 0.76188 0.22276 -0.42300
N 	N 	0.52272 0.51322 0.20120 -0.08200
Ni	Ni	0.80666 0.73945 0.67772 1.11700
C 	C 	0.10478 0.72140 0.80259 0.37300
C 	C 	0.87407 0.70740 0.79170 0.39400
C 	C 	0.93123 0.70240 0.88880 -0.06800
H 	H 	0.89420 0.69850 0.90830 0.07900
C 	C 	0.03966 0.71000 0.89309 -0.06800
H 	H 	0.07490 0.71200 0.91590 0.08400
C 	C 	0.93381 0.70820 0.82590 -0.06400
C 	C 	0.98420 0.70270 0.92146 0.09400
C 	C 	0.04236 0.71410 0.83122 -0.05800
C 	C 	0.98978 0.71530 0.79765 0.00800
H 	H 	0.99160 0.72080 0.75600 0.05200
O 	O 	0.82988 0.69003 0.82130 -0.43000
O 	O 	0.14817 0.70578 0.83543 -0.41300
O 	O 	0.10592 0.74209 0.75007 -0.41100
O 	O 	0.87645 0.72276 0.73812 -0.42300
N 	N 	0.97728 0.70120 0.98678 -0.08300
Ni	Ni	0.19334 0.26055 0.67772 1.11700
C 	C 	0.89522 0.27860 0.80259 0.37300
C 	C 	0.12593 0.29260 0.79170 0.39400
C 	C 	0.06877 0.29760 0.88880 -0.06800
H 	H 	0.10580 0.30150 0.90830 0.07900
C 	C 	0.96034 0.29000 0.89309 -0.06800
H 	H 	0.92510 0.28800 0.91590 0.08400
C 	C 	0.06619 0.29180 0.82590 -0.06400
C 	C 	0.01580 0.29730 0.92146 0.09400
C 	C 	0.95764 0.28590 0.83122 -0.05800
C 	C 	0.01022 0.28470 0.79765 0.00800
H 	H 	0.00840 0.27920 0.75600 0.05200
O 	O 	0.17012 0.30997 0.82130 -0.43000
O 	O 	0.85183 0.29422 0.83543 -0.41300
O 	O 	0.89408 0.25791 0.75007 -0.41100
O 	O 	0.12355 0.27724 0.73812 -0.42300
N 	N 	0.02272 0.29880 0.98678 -0.08300
Ni	Ni	0.80666 0.26055 0.32228 1.11700
C 	C 	0.10478 0.27860 0.19741 0.37300
C 	C 	0.87407 0.29260 0.20830 0.39400
C 	C 	0.93123 0.29760 0.11120 -0.06800
H 	H 	0.89420 0.30150 0.09170 0.07900
C 	C 	0.03966 0.29000 0.10691 -0.06800
H 	H 	0.07490 0.28800 0.08410 0.08400
C 	C 	0.93381 0.29180 0.17410 -0.06400
C 	C 	0.98420 0.29730 0.07854 0.09400
C 	C 	0.04236 0.28590 0.16878 -0.05800
C 	C 	0.98978 0.28470 0.20235 0.00800
H 	H 	0.99160 0.27920 0.24400 0.05200
O 	O 	0.82988 0.30997 0.17870 -0.43000
O 	O 	0.14817 0.29422 0.16457 -0.41300
O 	O 	0.10592 0.25791 0.24993 -0.41100
O 	O 	0.87645 0.27724 0.26188 -0.42300
N 	N 	0.97728 0.29880 0.01322 -0.08300
Ni	Ni	0.19334 0.73945 0.32228 1.11700
C 	C 	0.89522 0.72140 0.19741 0.37300
C 	C 	0.12593 0.70740 0.20830 0.39400
C 	C 	0.06877 0.70240 0.11120 -0.06800
H 	H 	0.10580 0.69850 0.09170 0.07900
C 	C 	0.96034 0.71000 0.10691 -0.06800
H 	H 	0.92510 0.71200 0.08410 0.08400
C 	C 	0.06619 0.70820 0.17410 -0.06400
C 	C 	0.01580 0.70270 0.07854 0.09400
C 	C 	0.95764 0.71410 0.16878 -0.05800
C 	C 	0.01022 0.71530 0.20235 0.00800
H 	H 	0.00840 0.72080 0.24400 0.05200
O 	O 	0.17012 0.69003 0.17870 -0.43000
O 	O 	0.85183 0.70578 0.16457 -0.41300
O 	O 	0.89408 0.74209 0.24993 -0.41100
O 	O 	0.12355 0.72276 0.26188 -0.42300
N 	N 	0.02272 0.70120 0.01322 -0.08300
Ni	Ni	0.73945 0.67772 0.80666 1.11700
C 	C 	0.72140 0.80259 0.10478 0.37300
C 	C 	0.70740 0.79170 0.87407 0.39400
C 	C 	0.70240 0.88880 0.93123 -0.06800
H 	H 	0.69850 0.90830 0.89420 0.07900
C 	C 	0.71000 0.89309 0.03966 -0.06800
H 	H 	0.71200 0.91590 0.07490 0.08400
C 	C 	0.70820 0.82590 0.93381 -0.06400
C 	C 	0.70270 0.92146 0.98420 0.09400
C 	C 	0.71410 0.83122 0.04236 -0.05800
C 	C 	0.71530 0.79765 0.98978 0.00800
H 	H 	0.72080 0.75600 0.99160 0.05200
O 	O 	0.69003 0.82130 0.82988 -0.43000
O 	O 	0.70578 0.83543 0.14817 -0.41300
O 	O 	0.74209 0.75007 0.10592 -0.41100
O 	O 	0.72276 0.73812 0.87645 -0.42300
N 	N 	0.70120 0.98678 0.97728 -0.08300
Ni	Ni	0.26055 0.67772 0.19334 1.11700
C 	C 	0.27860 0.80259 0.89522 0.37300
C 	C 	0.29260 0.79170 0.12593 0.39400
C 	C 	0.29760 0.88880 0.06877 -0.06800
H 	H 	0.30150 0.90830 0.10580 0.07900
C 	C 	0.29000 0.89309 0.96034 -0.06800
H 	H 	0.28800 0.91590 0.92510 0.08400
C 	C 	0.29180 0.82590 0.06619 -0.06400
C 	C 	0.29730 0.92146 0.01580 0.09400
C 	C 	0.28590 0.83122 0.95764 -0.05800
C 	C 	0.28470 0.79765 0.01022 0.00800
H 	H 	0.27920 0.75600 0.00840 0.05200
O 	O 	0.30997 0.82130 0.17012 -0.43000
O 	O 	0.29422 0.83543 0.85183 -0.41300
O 	O 	0.25791 0.75007 0.89408 -0.41100
O 	O 	0.27724 0.73812 0.12355 -0.42300
N 	N 	0.29880 0.98678 0.02272 -0.08300
Ni	Ni	0.26055 0.32228 0.80666 1.11700
C 	C 	0.27860 0.19741 0.10478 0.37300
C 	C 	0.29260 0.20830 0.87407 0.39400
C 	C 	0.29760 0.11120 0.93123 -0.06800
H 	H 	0.30150 0.09170 0.89420 0.07900
C 	C 	0.29000 0.10691 0.03966 -0.06800
H 	H 	0.28800 0.08410 0.07490 0.08400
C 	C 	0.29180 0.17410 0.93381 -0.06400
C 	C 	0.29730 0.07854 0.98420 0.09400
C 	C 	0.28590 0.16878 0.04236 -0.05800
C 	C 	0.28470 0.20235 0.98978 0.00800
H 	H 	0.27920 0.24400 0.99160 0.05200
O 	O 	0.30997 0.17870 0.82988 -0.43000
O 	O 	0.29422 0.16457 0.14817 -0.41300
O 	O 	0.25791 0.24993 0.10592 -0.41100
O 	O 	0.27724 0.26188 0.87645 -0.42300
N 	N 	0.29880 0.01322 0.97728 -0.08300
Ni	Ni	0.73945 0.32228 0.19334 1.11700
C 	C 	0.72140 0.19741 0.89522 0.37300
C 	C 	0.70740 0.20830 0.12593 0.39400
C 	C 	0.70240 0.11120 0.06877 -0.06800
H 	H 	0.69850 0.09170 0.10580 0.07900
C 	C 	0.71000 0.10691 0.96034 -0.06800
H 	H 	0.71200 0.08410 0.92510 0.08400
C 	C 	0.70820 0.17410 0.06619 -0.06400
C 	C 	0.70270 0.07854 0.01580 0.09400
C 	C 	0.71410 0.16878 0.95764 -0.05800
C 	C 	0.71530 0.20235 0.01022 0.00800
H 	H 	0.72080 0.24400 0.00840 0.05200
O 	O 	0.69003 0.17870 0.17012 -0.43000
O 	O 	0.70578 0.16457 0.85183 -0.41300
O 	O 	0.74209 0.24993 0.89408 -0.41100
O 	O 	0.72276 0.26188 0.12355 -0.42300
N 	N 	0.70120 0.01322 0.02272 -0.08300
Ni	Ni	0.67772 0.80666 0.73945 1.11700
C 	C 	0.80259 0.10478 0.72140 0.37300
C 	C 	0.79170 0.87407 0.70740 0.39400
C 	C 	0.88880 0.93123 0.70240 -0.06800
H 	H 	0.90830 0.89420 0.69850 0.07900
C 	C 	0.89309 0.03966 0.71000 -0.06800
H 	H 	0.91590 0.07490 0.71200 0.08400
C 	C 	0.82590 0.93381 0.70820 -0.06400
C 	C 	0.92146 0.98420 0.70270 0.09400
C 	C 	0.83122 0.04236 0.71410 -0.05800
C 	C 	0.79765 0.98978 0.71530 0.00800
H 	H 	0.75600 0.99160 0.72080 0.05200
O 	O 	0.82130 0.82988 0.69003 -0.43000
O 	O 	0.83543 0.14817 0.70578 -0.41300
O 	O 	0.75007 0.10592 0.74209 -0.41100
O 	O 	0.73812 0.87645 0.72276 -0.42300
N 	N 	0.98678 0.97728 0.70120 -0.08300
Ni	Ni	0.67772 0.19334 0.26055 1.11700
C 	C 	0.80259 0.89522 0.27860 0.37300
C 	C 	0.79170 0.12593 0.29260 0.39400
C 	C 	0.88880 0.06877 0.29760 -0.06800
H 	H 	0.90830 0.10580 0.30150 0.07900
C 	C 	0.89309 0.96034 0.29000 -0.06800
H 	H 	0.91590 0.92510 0.28800 0.08400
C 	C 	0.82590 0.06619 0.29180 -0.06400
C 	C 	0.92146 0.01580 0.29730 0.09400
C 	C 	0.83122 0.95764 0.28590 -0.05800
C 	C 	0.79765 0.01022 0.28470 0.00800
H 	H 	0.75600 0.00840 0.27920 0.05200
O 	O 	0.82130 0.17012 0.30997 -0.43000
O 	O 	0.83543 0.85183 0.29422 -0.41300
O 	O 	0.75007 0.89408 0.25791 -0.41100
O 	O 	0.73812 0.12355 0.27724 -0.42300
N 	N 	0.98678 0.02272 0.29880 -0.08300
Ni	Ni	0.32228 0.80666 0.26055 1.11700
C 	C 	0.19741 0.10478 0.27860 0.37300
C 	C 	0.20830 0.87407 0.29260 0.39400
C 	C 	0.11120 0.93123 0.29760 -0.06800
H 	H 	0.09170 0.89420 0.30150 0.07900
C 	C 	0.10691 0.03966 0.29000 -0.06800
H 	H 	0.08410 0.07490 0.28800 0.08400
C 	C 	0.17410 0.93381 0.29180 -0.06400
C 	C 	0.07854 0.98420 0.29730 0.09400
C 	C 	0.16878 0.04236 0.28590 -0.05800
C 	C 	0.20235 0.98978 0.28470 0.00800
H 	H 	0.24400 0.99160 0.27920 0.05200
O 	O 	0.17870 0.82988 0.30997 -0.43000
O 	O 	0.16457 0.14817 0.29422 -0.41300
O 	O 	0.24993 0.10592 0.25791 -0.41100
O 	O 	0.26188 0.87645 0.27724 -0.42300
N 	N 	0.01322 0.97728 0.29880 -0.08300
Ni	Ni	0.32228 0.19334 0.73945 1.11700
C 	C 	0.19741 0.89522 0.72140 0.37300
C 	C 	0.20830 0.12593 0.70740 0.39400
C 	C 	0.11120 0.06877 0.70240 -0.06800
H 	H 	0.09170 0.10580 0.69850 0.07900
C 	C 	0.10691 0.96034 0.71000 -0.06800
H 	H 	0.08410 0.92510 0.71200 0.08400
C 	C 	0.17410 0.06619 0.70820 -0.06400
C 	C 	0.07854 0.01580 0.70270 0.09400
C 	C 	0.16878 0.95764 0.71410 -0.05800
C 	C 	0.20235 0.01022 0.71530 0.00800
H 	H 	0.24400 0.00840 0.72080 0.05200
O 	O 	0.17870 0.17012 0.69003 -0.43000
O 	O 	0.16457 0.85183 0.70578 -0.41300
O 	O 	0.24993 0.89408 0.74209 -0.41100
O 	O 	0.26188 0.12355 0.72276 -0.42300
N 	N 	0.01322 0.02272 0.70120 -0.08300
O 	O 	0.23843 0.23843 0.23843 -0.55000
O 	O 	0.76157 0.76157 0.23843 -0.55000
O 	O 	0.76157 0.23843 0.76157 -0.55000
O 	O 	0.23843 0.76157 0.76157 -0.55000
O 	O 	0.73843 0.73843 0.73843 -0.55000
O 	O 	0.26157 0.26157 0.73843 -0.55000
O 	O 	0.73843 0.26157 0.26157 -0.55000
O 	O 	0.26157 0.73843 0.26157 -0.55000
