data_crystal

_cell_length_a 22.47040
_cell_length_b 22.47040
_cell_length_c 22.47040
_cell_angle_alpha 90.00000
_cell_angle_beta  90.00000
_cell_angle_gamma 90.00000

_symmetry_space_group_name_	'P 1'
_symmetry_space_group_name_H-M	'P 1'

loop_
_symmetry_equiv_pos_as_xyz
  x,y,z

loop_
_atom_site_label
_atom_site_type_symbol
_atom_site_fract_x
_atom_site_fract_y
_atom_site_fract_z
_atom_site_charge
Mn	Mn	0.17635 0.31040 0.24086 1.29000
C 	C 	0.20605 0.29090 0.87830 0.37600
C 	C 	0.19578 0.27895 0.10461 0.39100
C 	C 	0.16608 0.28110 0.04265 -0.07300
C 	C 	0.19937 0.28291 0.99068 0.01700
H 	H 	0.24070 0.28120 0.99290 0.04000
C 	C 	0.17226 0.28722 0.93568 -0.08000
C 	C 	0.10583 0.28210 0.03929 -0.06100
H 	H 	0.08350 0.28160 0.07410 0.07500
C 	C 	0.11052 0.28690 0.93278 -0.05900
H 	H 	0.09150 0.28880 0.89610 0.07000
C 	C 	0.07702 0.28380 0.98504 0.08500
O 	O 	0.17509 0.30077 0.83191 -0.45100
O 	O 	0.16200 0.28884 0.14726 -0.44700
O 	O 	0.24985 0.26695 0.10513 -0.45000
O 	O 	0.26109 0.28213 0.88058 -0.44600
N 	N 	0.01373 0.28290 0.97732 -0.08600
Mn	Mn	0.82365 0.68960 0.24086 1.29100
C 	C 	0.79395 0.70910 0.87830 0.37700
C 	C 	0.80422 0.72105 0.10461 0.39200
C 	C 	0.83392 0.71890 0.04265 -0.07200
C 	C 	0.80063 0.71709 0.99068 0.01800
H 	H 	0.75930 0.71880 0.99290 0.04100
C 	C 	0.82774 0.71278 0.93568 -0.07900
C 	C 	0.89417 0.71790 0.03929 -0.06000
H 	H 	0.91650 0.71840 0.07410 0.07500
C 	C 	0.88948 0.71310 0.93278 -0.05900
H 	H 	0.90850 0.71120 0.89610 0.07000
C 	C 	0.92298 0.71620 0.98504 0.08500
O 	O 	0.82491 0.69923 0.83191 -0.45100
O 	O 	0.83800 0.71116 0.14726 -0.44700
O 	O 	0.75015 0.73305 0.10513 -0.45000
O 	O 	0.73891 0.71787 0.88058 -0.44600
N 	N 	0.98627 0.71710 0.97732 -0.08600
Mn	Mn	0.82365 0.31040 0.75914 1.29100
C 	C 	0.79395 0.29090 0.12170 0.37700
C 	C 	0.80422 0.27895 0.89539 0.39200
C 	C 	0.83392 0.28110 0.95735 -0.07200
C 	C 	0.80063 0.28291 0.00932 0.01800
H 	H 	0.75930 0.28120 0.00710 0.04100
C 	C 	0.82774 0.28722 0.06432 -0.07900
C 	C 	0.89417 0.28210 0.96071 -0.06000
H 	H 	0.91650 0.28160 0.92590 0.07500
C 	C 	0.88948 0.28690 0.06722 -0.05900
H 	H 	0.90850 0.28880 0.10390 0.07000
C 	C 	0.92298 0.28380 0.01496 0.08500
O 	O 	0.82491 0.30077 0.16809 -0.45100
O 	O 	0.83800 0.28884 0.85274 -0.44700
O 	O 	0.75015 0.26695 0.89487 -0.45000
O 	O 	0.73891 0.28213 0.11942 -0.44600
N 	N 	0.98627 0.28290 0.02268 -0.08600
Mn	Mn	0.17635 0.68960 0.75914 1.29100
C 	C 	0.20605 0.70910 0.12170 0.37700
C 	C 	0.19578 0.72105 0.89539 0.39200
C 	C 	0.16608 0.71890 0.95735 -0.07200
C 	C 	0.19937 0.71709 0.00932 0.01800
H 	H 	0.24070 0.71880 0.00710 0.04100
C 	C 	0.17226 0.71278 0.06432 -0.07900
C 	C 	0.10583 0.71790 0.96071 -0.06000
H 	H 	0.08350 0.71840 0.92590 0.07500
C 	C 	0.11052 0.71310 0.06722 -0.05900
H 	H 	0.09150 0.71120 0.10390 0.07000
C 	C 	0.07702 0.71620 0.01496 0.08500
O 	O 	0.17509 0.69923 0.16809 -0.45100
O 	O 	0.16200 0.71116 0.85274 -0.44700
O 	O 	0.24985 0.73305 0.89487 -0.45000
O 	O 	0.26109 0.71787 0.11942 -0.44600
N 	N 	0.01373 0.71710 0.02268 -0.08600
Mn	Mn	0.24086 0.17635 0.31040 1.29100
C 	C 	0.87830 0.20605 0.29090 0.37700
C 	C 	0.10461 0.19578 0.27895 0.39200
C 	C 	0.04265 0.16608 0.28110 -0.07200
C 	C 	0.99068 0.19937 0.28291 0.01800
H 	H 	0.99290 0.24070 0.28120 0.04100
C 	C 	0.93568 0.17226 0.28722 -0.07900
C 	C 	0.03929 0.10583 0.28210 -0.06000
H 	H 	0.07410 0.08350 0.28160 0.07500
C 	C 	0.93278 0.11052 0.28690 -0.05900
H 	H 	0.89610 0.09150 0.28880 0.07000
C 	C 	0.98504 0.07702 0.28380 0.08500
O 	O 	0.83191 0.17509 0.30077 -0.45100
O 	O 	0.14726 0.16200 0.28884 -0.44700
O 	O 	0.10513 0.24985 0.26695 -0.45000
O 	O 	0.88058 0.26109 0.28213 -0.44600
N 	N 	0.97732 0.01373 0.28290 -0.08600
Mn	Mn	0.24086 0.82365 0.68960 1.29100
C 	C 	0.87830 0.79395 0.70910 0.37700
C 	C 	0.10461 0.80422 0.72105 0.39200
C 	C 	0.04265 0.83392 0.71890 -0.07200
C 	C 	0.99068 0.80063 0.71709 0.01800
H 	H 	0.99290 0.75930 0.71880 0.04100
C 	C 	0.93568 0.82774 0.71278 -0.07900
C 	C 	0.03929 0.89417 0.71790 -0.06000
H 	H 	0.07410 0.91650 0.71840 0.07500
C 	C 	0.93278 0.88948 0.71310 -0.05900
H 	H 	0.89610 0.90850 0.71120 0.07000
C 	C 	0.98504 0.92298 0.71620 0.08500
O 	O 	0.83191 0.82491 0.69923 -0.45100
O 	O 	0.14726 0.83800 0.71116 -0.44700
O 	O 	0.10513 0.75015 0.73305 -0.45000
O 	O 	0.88058 0.73891 0.71787 -0.44600
N 	N 	0.97732 0.98627 0.71710 -0.08600
Mn	Mn	0.75914 0.82365 0.31040 1.29100
C 	C 	0.12170 0.79395 0.29090 0.37700
C 	C 	0.89539 0.80422 0.27895 0.39200
C 	C 	0.95735 0.83392 0.28110 -0.07200
C 	C 	0.00932 0.80063 0.28291 0.01800
H 	H 	0.00710 0.75930 0.28120 0.04100
C 	C 	0.06432 0.82774 0.28722 -0.07900
C 	C 	0.96071 0.89417 0.28210 -0.06000
H 	H 	0.92590 0.91650 0.28160 0.07500
C 	C 	0.06722 0.88948 0.28690 -0.05900
H 	H 	0.10390 0.90850 0.28880 0.07000
C 	C 	0.01496 0.92298 0.28380 0.08500
O 	O 	0.16809 0.82491 0.30077 -0.45100
O 	O 	0.85274 0.83800 0.28884 -0.44700
O 	O 	0.89487 0.75015 0.26695 -0.45000
O 	O 	0.11942 0.73891 0.28213 -0.44600
N 	N 	0.02268 0.98627 0.28290 -0.08600
Mn	Mn	0.75914 0.17635 0.68960 1.29100
C 	C 	0.12170 0.20605 0.70910 0.37700
C 	C 	0.89539 0.19578 0.72105 0.39200
C 	C 	0.95735 0.16608 0.71890 -0.07200
C 	C 	0.00932 0.19937 0.71709 0.01800
H 	H 	0.00710 0.24070 0.71880 0.04100
C 	C 	0.06432 0.17226 0.71278 -0.07900
C 	C 	0.96071 0.10583 0.71790 -0.06000
H 	H 	0.92590 0.08350 0.71840 0.07500
C 	C 	0.06722 0.11052 0.71310 -0.05900
H 	H 	0.10390 0.09150 0.71120 0.07000
C 	C 	0.01496 0.07702 0.71620 0.08500
O 	O 	0.16809 0.17509 0.69923 -0.45100
O 	O 	0.85274 0.16200 0.71116 -0.44700
O 	O 	0.89487 0.24985 0.73305 -0.45000
O 	O 	0.11942 0.26109 0.71787 -0.44600
N 	N 	0.02268 0.01373 0.71710 -0.08600
Mn	Mn	0.31040 0.24086 0.17635 1.29100
C 	C 	0.29090 0.87830 0.20605 0.37700
C 	C 	0.27895 0.10461 0.19578 0.39200
C 	C 	0.28110 0.04265 0.16608 -0.07200
C 	C 	0.28291 0.99068 0.19937 0.01800
H 	H 	0.28120 0.99290 0.24070 0.04100
C 	C 	0.28722 0.93568 0.17226 -0.07900
C 	C 	0.28210 0.03929 0.10583 -0.06000
H 	H 	0.28160 0.07410 0.08350 0.07500
C 	C 	0.28690 0.93278 0.11052 -0.05900
H 	H 	0.28880 0.89610 0.09150 0.07000
C 	C 	0.28380 0.98504 0.07702 0.08500
O 	O 	0.30077 0.83191 0.17509 -0.45100
O 	O 	0.28884 0.14726 0.16200 -0.44700
O 	O 	0.26695 0.10513 0.24985 -0.45000
O 	O 	0.28213 0.88058 0.26109 -0.44600
N 	N 	0.28290 0.97732 0.01373 -0.08600
Mn	Mn	0.68960 0.24086 0.82365 1.29100
C 	C 	0.70910 0.87830 0.79395 0.37700
C 	C 	0.72105 0.10461 0.80422 0.39200
C 	C 	0.71890 0.04265 0.83392 -0.07200
C 	C 	0.71709 0.99068 0.80063 0.01800
H 	H 	0.71880 0.99290 0.75930 0.04100
C 	C 	0.71278 0.93568 0.82774 -0.07900
C 	C 	0.71790 0.03929 0.89417 -0.06000
H 	H 	0.71840 0.07410 0.91650 0.07500
C 	C 	0.71310 0.93278 0.88948 -0.05900
H 	H 	0.71120 0.89610 0.90850 0.07000
C 	C 	0.71620 0.98504 0.92298 0.08500
O 	O 	0.69923 0.83191 0.82491 -0.45100
O 	O 	0.71116 0.14726 0.83800 -0.44700
O 	O 	0.73305 0.10513 0.75015 -0.45000
O 	O 	0.71787 0.88058 0.73891 -0.44600
N 	N 	0.71710 0.97732 0.98627 -0.08600
Mn	Mn	0.31040 0.75914 0.82365 1.29100
C 	C 	0.29090 0.12170 0.79395 0.37700
C 	C 	0.27895 0.89539 0.80422 0.39200
C 	C 	0.28110 0.95735 0.83392 -0.07200
C 	C 	0.28291 0.00932 0.80063 0.01800
H 	H 	0.28120 0.00710 0.75930 0.04100
C 	C 	0.28722 0.06432 0.82774 -0.07900
C 	C 	0.28210 0.96071 0.89417 -0.06000
H 	H 	0.28160 0.92590 0.91650 0.07500
C 	C 	0.28690 0.06722 0.88948 -0.05900
H 	H 	0.28880 0.10390 0.90850 0.07000
C 	C 	0.28380 0.01496 0.92298 0.08500
O 	O 	0.30077 0.16809 0.82491 -0.45100
O 	O 	0.28884 0.85274 0.83800 -0.44700
O 	O 	0.26695 0.89487 0.75015 -0.45000
O 	O 	0.28213 0.11942 0.73891 -0.44600
N 	N 	0.28290 0.02268 0.98627 -0.08600
Mn	Mn	0.68960 0.75914 0.17635 1.29100
C 	C 	0.70910 0.12170 0.20605 0.37700
C 	C 	0.72105 0.89539 0.19578 0.39200
C 	C 	0.71890 0.95735 0.16608 -0.07200
C 	C 	0.71709 0.00932 0.19937 0.01800
H 	H 	0.71880 0.00710 0.24070 0.04100
C 	C 	0.71278 0.06432 0.17226 -0.07900
C 	C 	0.71790 0.96071 0.10583 -0.06000
H 	H 	0.71840 0.92590 0.08350 0.07500
C 	C 	0.71310 0.06722 0.11052 -0.05900
H 	H 	0.71120 0.10390 0.09150 0.07000
C 	C 	0.71620 0.01496 0.07702 0.08500
O 	O 	0.69923 0.16809 0.17509 -0.45100
O 	O 	0.71116 0.85274 0.16200 -0.44700
O 	O 	0.73305 0.89487 0.24985 -0.45000
O 	O 	0.71787 0.11942 0.26109 -0.44600
N 	N 	0.71710 0.02268 0.01373 -0.08600
Mn	Mn	0.81040 0.67635 0.74086 1.29100
C 	C 	0.79090 0.70605 0.37830 0.37700
C 	C 	0.77895 0.69578 0.60461 0.39200
C 	C 	0.78110 0.66608 0.54265 -0.07200
C 	C 	0.78291 0.69937 0.49068 0.01800
H 	H 	0.78120 0.74070 0.49290 0.04100
C 	C 	0.78722 0.67226 0.43568 -0.07900
C 	C 	0.78210 0.60583 0.53929 -0.06000
H 	H 	0.78160 0.58350 0.57410 0.07500
C 	C 	0.78690 0.61052 0.43278 -0.05900
H 	H 	0.78880 0.59150 0.39610 0.07000
C 	C 	0.78380 0.57702 0.48504 0.08500
O 	O 	0.80077 0.67509 0.33191 -0.45100
O 	O 	0.78884 0.66200 0.64726 -0.44700
O 	O 	0.76695 0.74985 0.60513 -0.45000
O 	O 	0.78213 0.76109 0.38058 -0.44600
N 	N 	0.78290 0.51373 0.47732 -0.08600
Mn	Mn	0.18960 0.32365 0.74086 1.29100
C 	C 	0.20910 0.29395 0.37830 0.37700
C 	C 	0.22105 0.30422 0.60461 0.39200
C 	C 	0.21890 0.33392 0.54265 -0.07200
C 	C 	0.21709 0.30063 0.49068 0.01800
H 	H 	0.21880 0.25930 0.49290 0.04100
C 	C 	0.21278 0.32774 0.43568 -0.07900
C 	C 	0.21790 0.39417 0.53929 -0.06000
H 	H 	0.21840 0.41650 0.57410 0.07500
C 	C 	0.21310 0.38948 0.43278 -0.05900
H 	H 	0.21120 0.40850 0.39610 0.07000
C 	C 	0.21620 0.42298 0.48504 0.08500
O 	O 	0.19923 0.32491 0.33191 -0.45100
O 	O 	0.21116 0.33800 0.64726 -0.44700
O 	O 	0.23305 0.25015 0.60513 -0.45000
O 	O 	0.21787 0.23891 0.38058 -0.44600
N 	N 	0.21710 0.48627 0.47732 -0.08600
Mn	Mn	0.81040 0.32365 0.25914 1.29100
C 	C 	0.79090 0.29395 0.62170 0.37700
C 	C 	0.77895 0.30422 0.39539 0.39200
C 	C 	0.78110 0.33392 0.45735 -0.07200
C 	C 	0.78291 0.30063 0.50932 0.01800
H 	H 	0.78120 0.25930 0.50710 0.04100
C 	C 	0.78722 0.32774 0.56432 -0.07900
C 	C 	0.78210 0.39417 0.46071 -0.06000
H 	H 	0.78160 0.41650 0.42590 0.07500
C 	C 	0.78690 0.38948 0.56722 -0.05900
H 	H 	0.78880 0.40850 0.60390 0.07000
C 	C 	0.78380 0.42298 0.51496 0.08500
O 	O 	0.80077 0.32491 0.66809 -0.45100
O 	O 	0.78884 0.33800 0.35274 -0.44700
O 	O 	0.76695 0.25015 0.39487 -0.45000
O 	O 	0.78213 0.23891 0.61942 -0.44600
N 	N 	0.78290 0.48627 0.52268 -0.08600
Mn	Mn	0.18960 0.67635 0.25914 1.29100
C 	C 	0.20910 0.70605 0.62170 0.37700
C 	C 	0.22105 0.69578 0.39539 0.39200
C 	C 	0.21890 0.66608 0.45735 -0.07200
C 	C 	0.21709 0.69937 0.50932 0.01800
H 	H 	0.21880 0.74070 0.50710 0.04100
C 	C 	0.21278 0.67226 0.56432 -0.07900
C 	C 	0.21790 0.60583 0.46071 -0.06000
H 	H 	0.21840 0.58350 0.42590 0.07500
C 	C 	0.21310 0.61052 0.56722 -0.05900
H 	H 	0.21120 0.59150 0.60390 0.07000
C 	C 	0.21620 0.57702 0.51496 0.08500
O 	O 	0.19923 0.67509 0.66809 -0.45100
O 	O 	0.21116 0.66200 0.35274 -0.44700
O 	O 	0.23305 0.74985 0.39487 -0.45000
O 	O 	0.21787 0.76109 0.61942 -0.44600
N 	N 	0.21710 0.51373 0.52268 -0.08600
Mn	Mn	0.67635 0.74086 0.81040 1.29100
C 	C 	0.70605 0.37830 0.79090 0.37700
C 	C 	0.69578 0.60461 0.77895 0.39200
C 	C 	0.66608 0.54265 0.78110 -0.07200
C 	C 	0.69937 0.49068 0.78291 0.01800
H 	H 	0.74070 0.49290 0.78120 0.04100
C 	C 	0.67226 0.43568 0.78722 -0.07900
C 	C 	0.60583 0.53929 0.78210 -0.06000
H 	H 	0.58350 0.57410 0.78160 0.07500
C 	C 	0.61052 0.43278 0.78690 -0.05900
H 	H 	0.59150 0.39610 0.78880 0.07000
C 	C 	0.57702 0.48504 0.78380 0.08500
O 	O 	0.67509 0.33191 0.80077 -0.45100
O 	O 	0.66200 0.64726 0.78884 -0.44700
O 	O 	0.74985 0.60513 0.76695 -0.45000
O 	O 	0.76109 0.38058 0.78213 -0.44600
N 	N 	0.51373 0.47732 0.78290 -0.08600
Mn	Mn	0.32365 0.74086 0.18960 1.29100
C 	C 	0.29395 0.37830 0.20910 0.37700
C 	C 	0.30422 0.60461 0.22105 0.39200
C 	C 	0.33392 0.54265 0.21890 -0.07200
C 	C 	0.30063 0.49068 0.21709 0.01800
H 	H 	0.25930 0.49290 0.21880 0.04100
C 	C 	0.32774 0.43568 0.21278 -0.07900
C 	C 	0.39417 0.53929 0.21790 -0.06000
H 	H 	0.41650 0.57410 0.21840 0.07500
C 	C 	0.38948 0.43278 0.21310 -0.05900
H 	H 	0.40850 0.39610 0.21120 0.07000
C 	C 	0.42298 0.48504 0.21620 0.08500
O 	O 	0.32491 0.33191 0.19923 -0.45100
O 	O 	0.33800 0.64726 0.21116 -0.44700
O 	O 	0.25015 0.60513 0.23305 -0.45000
O 	O 	0.23891 0.38058 0.21787 -0.44600
N 	N 	0.48627 0.47732 0.21710 -0.08600
Mn	Mn	0.32365 0.25914 0.81040 1.29100
C 	C 	0.29395 0.62170 0.79090 0.37700
C 	C 	0.30422 0.39539 0.77895 0.39200
C 	C 	0.33392 0.45735 0.78110 -0.07200
C 	C 	0.30063 0.50932 0.78291 0.01800
H 	H 	0.25930 0.50710 0.78120 0.04100
C 	C 	0.32774 0.56432 0.78722 -0.07900
C 	C 	0.39417 0.46071 0.78210 -0.06000
H 	H 	0.41650 0.42590 0.78160 0.07500
C 	C 	0.38948 0.56722 0.78690 -0.05900
H 	H 	0.40850 0.60390 0.78880 0.07000
C 	C 	0.42298 0.51496 0.78380 0.08500
O 	O 	0.32491 0.66809 0.80077 -0.45100
O 	O 	0.33800 0.35274 0.78884 -0.44700
O 	O 	0.25015 0.39487 0.76695 -0.45000
O 	O 	0.23891 0.61942 0.78213 -0.44600
N 	N 	0.48627 0.52268 0.78290 -0.08600
Mn	Mn	0.67635 0.25914 0.18960 1.29100
C 	C 	0.70605 0.62170 0.20910 0.37700
C 	C 	0.69578 0.39539 0.22105 0.39200
C 	C 	0.66608 0.45735 0.21890 -0.07200
C 	C 	0.69937 0.50932 0.21709 0.01800
H 	H 	0.74070 0.50710 0.21880 0.04100
C 	C 	0.67226 0.56432 0.21278 -0.07900
C 	C 	0.60583 0.46071 0.21790 -0.06000
H 	H 	0.58350 0.42590 0.21840 0.07500
C 	C 	0.61052 0.56722 0.21310 -0.05900
H 	H 	0.59150 0.60390 0.21120 0.07000
C 	C 	0.57702 0.51496 0.21620 0.08500
O 	O 	0.67509 0.66809 0.19923 -0.45100
O 	O 	0.66200 0.35274 0.21116 -0.44700
O 	O 	0.74985 0.39487 0.23305 -0.45000
O 	O 	0.76109 0.61942 0.21787 -0.44600
N 	N 	0.51373 0.52268 0.21710 -0.08600
Mn	Mn	0.74086 0.81040 0.67635 1.29100
C 	C 	0.37830 0.79090 0.70605 0.37700
C 	C 	0.60461 0.77895 0.69578 0.39200
C 	C 	0.54265 0.78110 0.66608 -0.07200
C 	C 	0.49068 0.78291 0.69937 0.01800
H 	H 	0.49290 0.78120 0.74070 0.04100
C 	C 	0.43568 0.78722 0.67226 -0.07900
C 	C 	0.53929 0.78210 0.60583 -0.06000
H 	H 	0.57410 0.78160 0.58350 0.07500
C 	C 	0.43278 0.78690 0.61052 -0.05900
H 	H 	0.39610 0.78880 0.59150 0.07000
C 	C 	0.48504 0.78380 0.57702 0.08500
O 	O 	0.33191 0.80077 0.67509 -0.45100
O 	O 	0.64726 0.78884 0.66200 -0.44700
O 	O 	0.60513 0.76695 0.74985 -0.45000
O 	O 	0.38058 0.78213 0.76109 -0.44600
N 	N 	0.47732 0.78290 0.51373 -0.08600
Mn	Mn	0.74086 0.18960 0.32365 1.29100
C 	C 	0.37830 0.20910 0.29395 0.37700
C 	C 	0.60461 0.22105 0.30422 0.39200
C 	C 	0.54265 0.21890 0.33392 -0.07200
C 	C 	0.49068 0.21709 0.30063 0.01800
H 	H 	0.49290 0.21880 0.25930 0.04100
C 	C 	0.43568 0.21278 0.32774 -0.07900
C 	C 	0.53929 0.21790 0.39417 -0.06000
H 	H 	0.57410 0.21840 0.41650 0.07500
C 	C 	0.43278 0.21310 0.38948 -0.05900
H 	H 	0.39610 0.21120 0.40850 0.07000
C 	C 	0.48504 0.21620 0.42298 0.08500
O 	O 	0.33191 0.19923 0.32491 -0.45100
O 	O 	0.64726 0.21116 0.33800 -0.44700
O 	O 	0.60513 0.23305 0.25015 -0.45000
O 	O 	0.38058 0.21787 0.23891 -0.44600
N 	N 	0.47732 0.21710 0.48627 -0.08600
Mn	Mn	0.25914 0.81040 0.32365 1.29100
C 	C 	0.62170 0.79090 0.29395 0.37700
C 	C 	0.39539 0.77895 0.30422 0.39200
C 	C 	0.45735 0.78110 0.33392 -0.07200
C 	C 	0.50932 0.78291 0.30063 0.01800
H 	H 	0.50710 0.78120 0.25930 0.04100
C 	C 	0.56432 0.78722 0.32774 -0.07900
C 	C 	0.46071 0.78210 0.39417 -0.06000
H 	H 	0.42590 0.78160 0.41650 0.07500
C 	C 	0.56722 0.78690 0.38948 -0.05900
H 	H 	0.60390 0.78880 0.40850 0.07000
C 	C 	0.51496 0.78380 0.42298 0.08500
O 	O 	0.66809 0.80077 0.32491 -0.45100
O 	O 	0.35274 0.78884 0.33800 -0.44700
O 	O 	0.39487 0.76695 0.25015 -0.45000
O 	O 	0.61942 0.78213 0.23891 -0.44600
N 	N 	0.52268 0.78290 0.48627 -0.08600
Mn	Mn	0.25914 0.18960 0.67635 1.29100
C 	C 	0.62170 0.20910 0.70605 0.37700
C 	C 	0.39539 0.22105 0.69578 0.39200
C 	C 	0.45735 0.21890 0.66608 -0.07200
C 	C 	0.50932 0.21709 0.69937 0.01800
H 	H 	0.50710 0.21880 0.74070 0.04100
C 	C 	0.56432 0.21278 0.67226 -0.07900
C 	C 	0.46071 0.21790 0.60583 -0.06000
H 	H 	0.42590 0.21840 0.58350 0.07500
C 	C 	0.56722 0.21310 0.61052 -0.05900
H 	H 	0.60390 0.21120 0.59150 0.07000
C 	C 	0.51496 0.21620 0.57702 0.08500
O 	O 	0.66809 0.19923 0.67509 -0.45100
O 	O 	0.35274 0.21116 0.66200 -0.44700
O 	O 	0.39487 0.23305 0.74985 -0.45000
O 	O 	0.61942 0.21787 0.76109 -0.44600
N 	N 	0.52268 0.21710 0.51373 -0.08600
O 	O 	0.23817 0.23817 0.23817 -0.59600
O 	O 	0.76183 0.76183 0.23817 -0.59600
O 	O 	0.76183 0.23817 0.76183 -0.59600
O 	O 	0.23817 0.76183 0.76183 -0.59600
O 	O 	0.73817 0.73817 0.73817 -0.59600
O 	O 	0.26183 0.26183 0.73817 -0.59600
O 	O 	0.73817 0.26183 0.26183 -0.59600
O 	O 	0.26183 0.73817 0.26183 -0.59600
