data_crystal

_cell_length_a 22.30510
_cell_length_b 22.30510
_cell_length_c 22.30510
_cell_angle_alpha 90.00000
_cell_angle_beta  90.00000
_cell_angle_gamma 90.00000

_symmetry_space_group_name_	'P 1'
_symmetry_space_group_name_H-M	'P 1'

loop_
_symmetry_equiv_pos_as_xyz
  x,y,z

loop_
_atom_site_label
_atom_site_type_symbol
_atom_site_fract_x
_atom_site_fract_y
_atom_site_fract_z
_atom_site_charge
Mg	Mg	0.17677 0.24063 0.69084 1.47000
C 	C 	0.33257 0.21600 0.45670 -0.09700
C 	C 	0.29916 0.21589 0.51022 0.04400
H 	H 	0.25770 0.21980 0.50840 0.03400
C 	C 	0.32650 0.21016 0.56518 -0.10300
C 	C 	0.38891 0.20720 0.56662 -0.04100
H 	H 	0.40850 0.20280 0.60320 0.06500
C 	C 	0.42166 0.21070 0.51519 0.07300
C 	C 	0.39375 0.21230 0.46057 -0.04100
H 	H 	0.41660 0.21090 0.42570 0.06900
C 	C 	0.29250 0.20881 0.62296 0.42200
C 	C 	0.30308 0.22155 0.39515 0.43200
O 	O 	0.25019 0.23938 0.39344 -0.50300
O 	O 	0.33595 0.20750 0.35191 -0.49500
O 	O 	0.32253 0.19417 0.66920 -0.50600
O 	O 	0.23830 0.22319 0.62159 -0.50000
N 	N 	0.48647 0.20650 0.52248 -0.08300
Mg	Mg	0.82323 0.75937 0.69084 1.46900
C 	C 	0.66743 0.78400 0.45670 -0.09800
C 	C 	0.70084 0.78411 0.51022 0.04300
H 	H 	0.74230 0.78020 0.50840 0.03300
C 	C 	0.67350 0.78984 0.56518 -0.10400
C 	C 	0.61109 0.79280 0.56662 -0.04200
H 	H 	0.59150 0.79720 0.60320 0.06400
C 	C 	0.57834 0.78930 0.51519 0.07200
C 	C 	0.60625 0.78770 0.46057 -0.04100
H 	H 	0.58340 0.78910 0.42570 0.06900
C 	C 	0.70750 0.79119 0.62296 0.42200
C 	C 	0.69692 0.77845 0.39515 0.43200
O 	O 	0.74981 0.76062 0.39344 -0.50300
O 	O 	0.66405 0.79250 0.35191 -0.49500
O 	O 	0.67747 0.80583 0.66920 -0.50600
O 	O 	0.76170 0.77681 0.62159 -0.50000
N 	N 	0.51353 0.79350 0.52248 -0.08300
Mg	Mg	0.82323 0.24063 0.30916 1.46900
C 	C 	0.66743 0.21600 0.54330 -0.09800
C 	C 	0.70084 0.21589 0.48978 0.04300
H 	H 	0.74230 0.21980 0.49160 0.03300
C 	C 	0.67350 0.21016 0.43482 -0.10400
C 	C 	0.61109 0.20720 0.43338 -0.04200
H 	H 	0.59150 0.20280 0.39680 0.06400
C 	C 	0.57834 0.21070 0.48481 0.07200
C 	C 	0.60625 0.21230 0.53943 -0.04100
H 	H 	0.58340 0.21090 0.57430 0.06900
C 	C 	0.70750 0.20881 0.37704 0.42200
C 	C 	0.69692 0.22155 0.60485 0.43200
O 	O 	0.74981 0.23938 0.60656 -0.50300
O 	O 	0.66405 0.20750 0.64809 -0.49500
O 	O 	0.67747 0.19417 0.33080 -0.50600
O 	O 	0.76170 0.22319 0.37841 -0.50000
N 	N 	0.51353 0.20650 0.47752 -0.08300
Mg	Mg	0.17677 0.75937 0.30916 1.46900
C 	C 	0.33257 0.78400 0.54330 -0.09800
C 	C 	0.29916 0.78411 0.48978 0.04300
H 	H 	0.25770 0.78020 0.49160 0.03300
C 	C 	0.32650 0.78984 0.43482 -0.10400
C 	C 	0.38891 0.79280 0.43338 -0.04200
H 	H 	0.40850 0.79720 0.39680 0.06400
C 	C 	0.42166 0.78930 0.48481 0.07200
C 	C 	0.39375 0.78770 0.53943 -0.04100
H 	H 	0.41660 0.78910 0.57430 0.06900
C 	C 	0.29250 0.79119 0.37704 0.42200
C 	C 	0.30308 0.77845 0.60485 0.43200
O 	O 	0.25019 0.76062 0.60656 -0.50300
O 	O 	0.33595 0.79250 0.64809 -0.49500
O 	O 	0.32253 0.80583 0.33080 -0.50600
O 	O 	0.23830 0.77681 0.37841 -0.50000
N 	N 	0.48647 0.79350 0.47752 -0.08300
Mg	Mg	0.69084 0.17677 0.24063 1.46900
C 	C 	0.45670 0.33257 0.21600 -0.09800
C 	C 	0.51022 0.29916 0.21589 0.04300
H 	H 	0.50840 0.25770 0.21980 0.03300
C 	C 	0.56518 0.32650 0.21016 -0.10400
C 	C 	0.56662 0.38891 0.20720 -0.04200
H 	H 	0.60320 0.40850 0.20280 0.06400
C 	C 	0.51519 0.42166 0.21070 0.07200
C 	C 	0.46057 0.39375 0.21230 -0.04100
H 	H 	0.42570 0.41660 0.21090 0.06900
C 	C 	0.62296 0.29250 0.20881 0.42200
C 	C 	0.39515 0.30308 0.22155 0.43200
O 	O 	0.39344 0.25019 0.23938 -0.50300
O 	O 	0.35191 0.33595 0.20750 -0.49500
O 	O 	0.66920 0.32253 0.19417 -0.50600
O 	O 	0.62159 0.23830 0.22319 -0.50000
N 	N 	0.52248 0.48647 0.20650 -0.08300
Mg	Mg	0.69084 0.82323 0.75937 1.46900
C 	C 	0.45670 0.66743 0.78400 -0.09800
C 	C 	0.51022 0.70084 0.78411 0.04300
H 	H 	0.50840 0.74230 0.78020 0.03300
C 	C 	0.56518 0.67350 0.78984 -0.10400
C 	C 	0.56662 0.61109 0.79280 -0.04200
H 	H 	0.60320 0.59150 0.79720 0.06400
C 	C 	0.51519 0.57834 0.78930 0.07200
C 	C 	0.46057 0.60625 0.78770 -0.04100
H 	H 	0.42570 0.58340 0.78910 0.06900
C 	C 	0.62296 0.70750 0.79119 0.42200
C 	C 	0.39515 0.69692 0.77845 0.43200
O 	O 	0.39344 0.74981 0.76062 -0.50300
O 	O 	0.35191 0.66405 0.79250 -0.49500
O 	O 	0.66920 0.67747 0.80583 -0.50600
O 	O 	0.62159 0.76170 0.77681 -0.50000
N 	N 	0.52248 0.51353 0.79350 -0.08300
Mg	Mg	0.30916 0.82323 0.24063 1.46900
C 	C 	0.54330 0.66743 0.21600 -0.09800
C 	C 	0.48978 0.70084 0.21589 0.04300
H 	H 	0.49160 0.74230 0.21980 0.03300
C 	C 	0.43482 0.67350 0.21016 -0.10400
C 	C 	0.43338 0.61109 0.20720 -0.04200
H 	H 	0.39680 0.59150 0.20280 0.06400
C 	C 	0.48481 0.57834 0.21070 0.07200
C 	C 	0.53943 0.60625 0.21230 -0.04100
H 	H 	0.57430 0.58340 0.21090 0.06900
C 	C 	0.37704 0.70750 0.20881 0.42200
C 	C 	0.60485 0.69692 0.22155 0.43200
O 	O 	0.60656 0.74981 0.23938 -0.50300
O 	O 	0.64809 0.66405 0.20750 -0.49500
O 	O 	0.33080 0.67747 0.19417 -0.50600
O 	O 	0.37841 0.76170 0.22319 -0.50000
N 	N 	0.47752 0.51353 0.20650 -0.08300
Mg	Mg	0.30916 0.17677 0.75937 1.46900
C 	C 	0.54330 0.33257 0.78400 -0.09800
C 	C 	0.48978 0.29916 0.78411 0.04300
H 	H 	0.49160 0.25770 0.78020 0.03300
C 	C 	0.43482 0.32650 0.78984 -0.10400
C 	C 	0.43338 0.38891 0.79280 -0.04200
H 	H 	0.39680 0.40850 0.79720 0.06400
C 	C 	0.48481 0.42166 0.78930 0.07200
C 	C 	0.53943 0.39375 0.78770 -0.04100
H 	H 	0.57430 0.41660 0.78910 0.06900
C 	C 	0.37704 0.29250 0.79119 0.42200
C 	C 	0.60485 0.30308 0.77845 0.43200
O 	O 	0.60656 0.25019 0.76062 -0.50300
O 	O 	0.64809 0.33595 0.79250 -0.49500
O 	O 	0.33080 0.32253 0.80583 -0.50600
O 	O 	0.37841 0.23830 0.77681 -0.50000
N 	N 	0.47752 0.48647 0.79350 -0.08300
Mg	Mg	0.24063 0.69084 0.17677 1.46900
C 	C 	0.21600 0.45670 0.33257 -0.09800
C 	C 	0.21589 0.51022 0.29916 0.04300
H 	H 	0.21980 0.50840 0.25770 0.03300
C 	C 	0.21016 0.56518 0.32650 -0.10400
C 	C 	0.20720 0.56662 0.38891 -0.04200
H 	H 	0.20280 0.60320 0.40850 0.06400
C 	C 	0.21070 0.51519 0.42166 0.07200
C 	C 	0.21230 0.46057 0.39375 -0.04100
H 	H 	0.21090 0.42570 0.41660 0.06900
C 	C 	0.20881 0.62296 0.29250 0.42200
C 	C 	0.22155 0.39515 0.30308 0.43200
O 	O 	0.23938 0.39344 0.25019 -0.50300
O 	O 	0.20750 0.35191 0.33595 -0.49500
O 	O 	0.19417 0.66920 0.32253 -0.50600
O 	O 	0.22319 0.62159 0.23830 -0.50000
N 	N 	0.20650 0.52248 0.48647 -0.08300
Mg	Mg	0.75937 0.69084 0.82323 1.46900
C 	C 	0.78400 0.45670 0.66743 -0.09800
C 	C 	0.78411 0.51022 0.70084 0.04300
H 	H 	0.78020 0.50840 0.74230 0.03300
C 	C 	0.78984 0.56518 0.67350 -0.10400
C 	C 	0.79280 0.56662 0.61109 -0.04200
H 	H 	0.79720 0.60320 0.59150 0.06400
C 	C 	0.78930 0.51519 0.57834 0.07200
C 	C 	0.78770 0.46057 0.60625 -0.04100
H 	H 	0.78910 0.42570 0.58340 0.06900
C 	C 	0.79119 0.62296 0.70750 0.42200
C 	C 	0.77845 0.39515 0.69692 0.43200
O 	O 	0.76062 0.39344 0.74981 -0.50300
O 	O 	0.79250 0.35191 0.66405 -0.49500
O 	O 	0.80583 0.66920 0.67747 -0.50600
O 	O 	0.77681 0.62159 0.76170 -0.50000
N 	N 	0.79350 0.52248 0.51353 -0.08300
Mg	Mg	0.24063 0.30916 0.82323 1.46900
C 	C 	0.21600 0.54330 0.66743 -0.09800
C 	C 	0.21589 0.48978 0.70084 0.04300
H 	H 	0.21980 0.49160 0.74230 0.03300
C 	C 	0.21016 0.43482 0.67350 -0.10400
C 	C 	0.20720 0.43338 0.61109 -0.04200
H 	H 	0.20280 0.39680 0.59150 0.06400
C 	C 	0.21070 0.48481 0.57834 0.07200
C 	C 	0.21230 0.53943 0.60625 -0.04100
H 	H 	0.21090 0.57430 0.58340 0.06900
C 	C 	0.20881 0.37704 0.70750 0.42200
C 	C 	0.22155 0.60485 0.69692 0.43200
O 	O 	0.23938 0.60656 0.74981 -0.50300
O 	O 	0.20750 0.64809 0.66405 -0.49500
O 	O 	0.19417 0.33080 0.67747 -0.50600
O 	O 	0.22319 0.37841 0.76170 -0.50000
N 	N 	0.20650 0.47752 0.51353 -0.08300
Mg	Mg	0.75937 0.30916 0.17677 1.46900
C 	C 	0.78400 0.54330 0.33257 -0.09800
C 	C 	0.78411 0.48978 0.29916 0.04300
H 	H 	0.78020 0.49160 0.25770 0.03300
C 	C 	0.78984 0.43482 0.32650 -0.10400
C 	C 	0.79280 0.43338 0.38891 -0.04200
H 	H 	0.79720 0.39680 0.40850 0.06400
C 	C 	0.78930 0.48481 0.42166 0.07200
C 	C 	0.78770 0.53943 0.39375 -0.04100
H 	H 	0.78910 0.57430 0.41660 0.06900
C 	C 	0.79119 0.37704 0.29250 0.42200
C 	C 	0.77845 0.60485 0.30308 0.43200
O 	O 	0.76062 0.60656 0.25019 -0.50300
O 	O 	0.79250 0.64809 0.33595 -0.49500
O 	O 	0.80583 0.33080 0.32253 -0.50600
O 	O 	0.77681 0.37841 0.23830 -0.50000
N 	N 	0.79350 0.47752 0.48647 -0.08300
Mg	Mg	0.74063 0.67677 0.19084 1.46900
C 	C 	0.71600 0.83257 0.95670 -0.09800
C 	C 	0.71589 0.79916 0.01022 0.04300
H 	H 	0.71980 0.75770 0.00840 0.03300
C 	C 	0.71016 0.82650 0.06518 -0.10400
C 	C 	0.70720 0.88891 0.06662 -0.04200
H 	H 	0.70280 0.90850 0.10320 0.06400
C 	C 	0.71070 0.92166 0.01519 0.07200
C 	C 	0.71230 0.89375 0.96057 -0.04100
H 	H 	0.71090 0.91660 0.92570 0.06900
C 	C 	0.70881 0.79250 0.12296 0.42200
C 	C 	0.72155 0.80308 0.89515 0.43200
O 	O 	0.73938 0.75019 0.89344 -0.50300
O 	O 	0.70750 0.83595 0.85191 -0.49500
O 	O 	0.69417 0.82253 0.16920 -0.50600
O 	O 	0.72319 0.73830 0.12159 -0.50000
N 	N 	0.70650 0.98647 0.02248 -0.08300
Mg	Mg	0.25937 0.32323 0.19084 1.46900
C 	C 	0.28400 0.16743 0.95670 -0.09800
C 	C 	0.28411 0.20084 0.01022 0.04300
H 	H 	0.28020 0.24230 0.00840 0.03300
C 	C 	0.28984 0.17350 0.06518 -0.10400
C 	C 	0.29280 0.11109 0.06662 -0.04200
H 	H 	0.29720 0.09150 0.10320 0.06400
C 	C 	0.28930 0.07834 0.01519 0.07200
C 	C 	0.28770 0.10625 0.96057 -0.04100
H 	H 	0.28910 0.08340 0.92570 0.06900
C 	C 	0.29119 0.20750 0.12296 0.42200
C 	C 	0.27845 0.19692 0.89515 0.43200
O 	O 	0.26062 0.24981 0.89344 -0.50300
O 	O 	0.29250 0.16405 0.85191 -0.49500
O 	O 	0.30583 0.17747 0.16920 -0.50600
O 	O 	0.27681 0.26170 0.12159 -0.50000
N 	N 	0.29350 0.01353 0.02248 -0.08300
Mg	Mg	0.74063 0.32323 0.80916 1.46900
C 	C 	0.71600 0.16743 0.04330 -0.09800
C 	C 	0.71589 0.20084 0.98978 0.04300
H 	H 	0.71980 0.24230 0.99160 0.03300
C 	C 	0.71016 0.17350 0.93482 -0.10400
C 	C 	0.70720 0.11109 0.93338 -0.04200
H 	H 	0.70280 0.09150 0.89680 0.06400
C 	C 	0.71070 0.07834 0.98481 0.07200
C 	C 	0.71230 0.10625 0.03943 -0.04100
H 	H 	0.71090 0.08340 0.07430 0.06900
C 	C 	0.70881 0.20750 0.87704 0.42200
C 	C 	0.72155 0.19692 0.10485 0.43200
O 	O 	0.73938 0.24981 0.10656 -0.50300
O 	O 	0.70750 0.16405 0.14809 -0.49500
O 	O 	0.69417 0.17747 0.83080 -0.50600
O 	O 	0.72319 0.26170 0.87841 -0.50000
N 	N 	0.70650 0.01353 0.97752 -0.08300
Mg	Mg	0.25937 0.67677 0.80916 1.46900
C 	C 	0.28400 0.83257 0.04330 -0.09800
C 	C 	0.28411 0.79916 0.98978 0.04300
H 	H 	0.28020 0.75770 0.99160 0.03300
C 	C 	0.28984 0.82650 0.93482 -0.10400
C 	C 	0.29280 0.88891 0.93338 -0.04200
H 	H 	0.29720 0.90850 0.89680 0.06400
C 	C 	0.28930 0.92166 0.98481 0.07200
C 	C 	0.28770 0.89375 0.03943 -0.04100
H 	H 	0.28910 0.91660 0.07430 0.06900
C 	C 	0.29119 0.79250 0.87704 0.42200
C 	C 	0.27845 0.80308 0.10485 0.43200
O 	O 	0.26062 0.75019 0.10656 -0.50300
O 	O 	0.29250 0.83595 0.14809 -0.49500
O 	O 	0.30583 0.82253 0.83080 -0.50600
O 	O 	0.27681 0.73830 0.87841 -0.50000
N 	N 	0.29350 0.98647 0.97752 -0.08300
Mg	Mg	0.67677 0.19084 0.74063 1.46900
C 	C 	0.83257 0.95670 0.71600 -0.09800
C 	C 	0.79916 0.01022 0.71589 0.04300
H 	H 	0.75770 0.00840 0.71980 0.03300
C 	C 	0.82650 0.06518 0.71016 -0.10400
C 	C 	0.88891 0.06662 0.70720 -0.04200
H 	H 	0.90850 0.10320 0.70280 0.06400
C 	C 	0.92166 0.01519 0.71070 0.07200
C 	C 	0.89375 0.96057 0.71230 -0.04100
H 	H 	0.91660 0.92570 0.71090 0.06900
C 	C 	0.79250 0.12296 0.70881 0.42200
C 	C 	0.80308 0.89515 0.72155 0.43200
O 	O 	0.75019 0.89344 0.73938 -0.50300
O 	O 	0.83595 0.85191 0.70750 -0.49500
O 	O 	0.82253 0.16920 0.69417 -0.50600
O 	O 	0.73830 0.12159 0.72319 -0.50000
N 	N 	0.98647 0.02248 0.70650 -0.08300
Mg	Mg	0.32323 0.19084 0.25937 1.46900
C 	C 	0.16743 0.95670 0.28400 -0.09800
C 	C 	0.20084 0.01022 0.28411 0.04300
H 	H 	0.24230 0.00840 0.28020 0.03300
C 	C 	0.17350 0.06518 0.28984 -0.10400
C 	C 	0.11109 0.06662 0.29280 -0.04200
H 	H 	0.09150 0.10320 0.29720 0.06400
C 	C 	0.07834 0.01519 0.28930 0.07200
C 	C 	0.10625 0.96057 0.28770 -0.04100
H 	H 	0.08340 0.92570 0.28910 0.06900
C 	C 	0.20750 0.12296 0.29119 0.42200
C 	C 	0.19692 0.89515 0.27845 0.43200
O 	O 	0.24981 0.89344 0.26062 -0.50300
O 	O 	0.16405 0.85191 0.29250 -0.49500
O 	O 	0.17747 0.16920 0.30583 -0.50600
O 	O 	0.26170 0.12159 0.27681 -0.50000
N 	N 	0.01353 0.02248 0.29350 -0.08300
Mg	Mg	0.32323 0.80916 0.74063 1.46900
C 	C 	0.16743 0.04330 0.71600 -0.09800
C 	C 	0.20084 0.98978 0.71589 0.04300
H 	H 	0.24230 0.99160 0.71980 0.03300
C 	C 	0.17350 0.93482 0.71016 -0.10400
C 	C 	0.11109 0.93338 0.70720 -0.04200
H 	H 	0.09150 0.89680 0.70280 0.06400
C 	C 	0.07834 0.98481 0.71070 0.07200
C 	C 	0.10625 0.03943 0.71230 -0.04100
H 	H 	0.08340 0.07430 0.71090 0.06900
C 	C 	0.20750 0.87704 0.70881 0.42200
C 	C 	0.19692 0.10485 0.72155 0.43200
O 	O 	0.24981 0.10656 0.73938 -0.50300
O 	O 	0.16405 0.14809 0.70750 -0.49500
O 	O 	0.17747 0.83080 0.69417 -0.50600
O 	O 	0.26170 0.87841 0.72319 -0.50000
N 	N 	0.01353 0.97752 0.70650 -0.08300
Mg	Mg	0.67677 0.80916 0.25937 1.46900
C 	C 	0.83257 0.04330 0.28400 -0.09800
C 	C 	0.79916 0.98978 0.28411 0.04300
H 	H 	0.75770 0.99160 0.28020 0.03300
C 	C 	0.82650 0.93482 0.28984 -0.10400
C 	C 	0.88891 0.93338 0.29280 -0.04200
H 	H 	0.90850 0.89680 0.29720 0.06400
C 	C 	0.92166 0.98481 0.28930 0.07200
C 	C 	0.89375 0.03943 0.28770 -0.04100
H 	H 	0.91660 0.07430 0.28910 0.06900
C 	C 	0.79250 0.87704 0.29119 0.42200
C 	C 	0.80308 0.10485 0.27845 0.43200
O 	O 	0.75019 0.10656 0.26062 -0.50300
O 	O 	0.83595 0.14809 0.29250 -0.49500
O 	O 	0.82253 0.83080 0.30583 -0.50600
O 	O 	0.73830 0.87841 0.27681 -0.50000
N 	N 	0.98647 0.97752 0.29350 -0.08300
Mg	Mg	0.19084 0.74063 0.67677 1.46900
C 	C 	0.95670 0.71600 0.83257 -0.09800
C 	C 	0.01022 0.71589 0.79916 0.04300
H 	H 	0.00840 0.71980 0.75770 0.03300
C 	C 	0.06518 0.71016 0.82650 -0.10400
C 	C 	0.06662 0.70720 0.88891 -0.04200
H 	H 	0.10320 0.70280 0.90850 0.06400
C 	C 	0.01519 0.71070 0.92166 0.07200
C 	C 	0.96057 0.71230 0.89375 -0.04100
H 	H 	0.92570 0.71090 0.91660 0.06900
C 	C 	0.12296 0.70881 0.79250 0.42200
C 	C 	0.89515 0.72155 0.80308 0.43200
O 	O 	0.89344 0.73938 0.75019 -0.50300
O 	O 	0.85191 0.70750 0.83595 -0.49500
O 	O 	0.16920 0.69417 0.82253 -0.50600
O 	O 	0.12159 0.72319 0.73830 -0.50000
N 	N 	0.02248 0.70650 0.98647 -0.08300
Mg	Mg	0.19084 0.25937 0.32323 1.46900
C 	C 	0.95670 0.28400 0.16743 -0.09800
C 	C 	0.01022 0.28411 0.20084 0.04300
H 	H 	0.00840 0.28020 0.24230 0.03300
C 	C 	0.06518 0.28984 0.17350 -0.10400
C 	C 	0.06662 0.29280 0.11109 -0.04200
H 	H 	0.10320 0.29720 0.09150 0.06400
C 	C 	0.01519 0.28930 0.07834 0.07200
C 	C 	0.96057 0.28770 0.10625 -0.04100
H 	H 	0.92570 0.28910 0.08340 0.06900
C 	C 	0.12296 0.29119 0.20750 0.42200
C 	C 	0.89515 0.27845 0.19692 0.43200
O 	O 	0.89344 0.26062 0.24981 -0.50300
O 	O 	0.85191 0.29250 0.16405 -0.49500
O 	O 	0.16920 0.30583 0.17747 -0.50600
O 	O 	0.12159 0.27681 0.26170 -0.50000
N 	N 	0.02248 0.29350 0.01353 -0.08300
Mg	Mg	0.80916 0.74063 0.32323 1.46900
C 	C 	0.04330 0.71600 0.16743 -0.09800
C 	C 	0.98978 0.71589 0.20084 0.04300
H 	H 	0.99160 0.71980 0.24230 0.03300
C 	C 	0.93482 0.71016 0.17350 -0.10400
C 	C 	0.93338 0.70720 0.11109 -0.04200
H 	H 	0.89680 0.70280 0.09150 0.06400
C 	C 	0.98481 0.71070 0.07834 0.07200
C 	C 	0.03943 0.71230 0.10625 -0.04100
H 	H 	0.07430 0.71090 0.08340 0.06900
C 	C 	0.87704 0.70881 0.20750 0.42200
C 	C 	0.10485 0.72155 0.19692 0.43200
O 	O 	0.10656 0.73938 0.24981 -0.50300
O 	O 	0.14809 0.70750 0.16405 -0.49500
O 	O 	0.83080 0.69417 0.17747 -0.50600
O 	O 	0.87841 0.72319 0.26170 -0.50000
N 	N 	0.97752 0.70650 0.01353 -0.08300
Mg	Mg	0.80916 0.25937 0.67677 1.46900
C 	C 	0.04330 0.28400 0.83257 -0.09800
C 	C 	0.98978 0.28411 0.79916 0.04300
H 	H 	0.99160 0.28020 0.75770 0.03300
C 	C 	0.93482 0.28984 0.82650 -0.10400
C 	C 	0.93338 0.29280 0.88891 -0.04200
H 	H 	0.89680 0.29720 0.90850 0.06400
C 	C 	0.98481 0.28930 0.92166 0.07200
C 	C 	0.03943 0.28770 0.89375 -0.04100
H 	H 	0.07430 0.28910 0.91660 0.06900
C 	C 	0.87704 0.29119 0.79250 0.42200
C 	C 	0.10485 0.27845 0.80308 0.43200
O 	O 	0.10656 0.26062 0.75019 -0.50300
O 	O 	0.14809 0.29250 0.83595 -0.49500
O 	O 	0.83080 0.30583 0.82253 -0.50600
O 	O 	0.87841 0.27681 0.73830 -0.50000
N 	N 	0.97752 0.29350 0.98647 -0.08300
O 	O 	0.23806 0.23806 0.76194 -0.69700
O 	O 	0.76194 0.76194 0.76194 -0.69700
O 	O 	0.76194 0.23806 0.23806 -0.69700
O 	O 	0.23806 0.76194 0.23806 -0.69700
O 	O 	0.73806 0.73806 0.26194 -0.69700
O 	O 	0.26194 0.26194 0.26194 -0.69700
O 	O 	0.73806 0.26194 0.73806 -0.69700
O 	O 	0.26194 0.73806 0.73806 -0.69700
