data_crystal

_cell_length_a 8.33650
_cell_length_b 10.45300
_cell_length_c 19.03000
_cell_angle_alpha 90.00000
_cell_angle_beta  90.00000
_cell_angle_gamma 90.00000

_symmetry_space_group_name_	'P 1'
_symmetry_space_group_name_H-M	'P 1'

loop_
_symmetry_equiv_pos_as_xyz
  x,y,z

loop_
_atom_site_label
_atom_site_type_symbol
_atom_site_fract_x
_atom_site_fract_y
_atom_site_fract_z
_atom_site_charge
Cu	Cu	0.76054 0.10503 0.62338 0.89800
O 	O 	0.06480 0.37660 0.83488 -0.31600
O 	O 	0.21020 0.52780 0.78331 -0.39700
O 	O 	0.32280 0.49770 0.52530 -0.31200
O 	O 	0.23420 0.32220 0.47057 -0.39700
N 	N 	0.95870 0.21780 0.63928 -0.21900
N 	N 	0.57000 0.99430 0.60430 -0.25600
N 	N 	0.17910 0.75500 0.57640 -0.37300
H 	H 	0.19500 0.67610 0.56570 0.19000
H 	H 	0.08300 0.78300 0.58220 0.19300
C 	C 	0.24890 0.39620 0.52390 0.34200
C 	C 	0.04760 0.25650 0.58400 0.07800
H 	H 	0.03010 0.21800 0.54060 0.01700
C 	C 	0.18830 0.40860 0.65360 0.06400
H 	H 	0.26240 0.47450 0.65820 0.03000
C 	C 	0.16340 0.35050 0.58890 -0.13100
C 	C 	0.98750 0.27210 0.70130 0.07900
H 	H 	0.92840 0.24500 0.74000 0.01300
C 	C 	0.10110 0.36700 0.71120 -0.12700
C 	C 	0.12500 0.42630 0.78280 0.34300
C 	C 	0.42040 0.03760 0.60860 0.17500
H 	H 	0.40550 0.12400 0.61830 -0.03800
C 	C 	0.28740 0.96340 0.59990 -0.29400
H 	H 	0.18590 0.99920 0.60450 0.14300
C 	C 	0.30380 0.83430 0.58390 0.29800
C 	C 	0.45950 0.79080 0.57470 -0.29900
H 	H 	0.47750 0.70670 0.56080 0.15000
C 	C 	0.58700 0.87060 0.58600 0.16900
H 	H 	0.69000 0.83790 0.58080 -0.02600
Cu	Cu	0.73946 0.89497 0.12338 0.89900
O 	O 	0.43520 0.62340 0.33488 -0.31500
O 	O 	0.28980 0.47220 0.28331 -0.39600
O 	O 	0.17720 0.50230 0.02530 -0.31000
O 	O 	0.26580 0.67780 0.97057 -0.39500
N 	N 	0.54130 0.78220 0.13928 -0.21900
N 	N 	0.93000 0.00570 0.10430 -0.25700
N 	N 	0.32090 0.24500 0.07640 -0.37300
H 	H 	0.30500 0.32390 0.06570 0.19000
H 	H 	0.41700 0.21700 0.08220 0.19300
C 	C 	0.25110 0.60380 0.02390 0.34200
C 	C 	0.45240 0.74350 0.08400 0.07800
H 	H 	0.46990 0.78200 0.04060 0.01600
C 	C 	0.31170 0.59140 0.15360 0.06400
H 	H 	0.23760 0.52550 0.15820 0.03000
C 	C 	0.33660 0.64950 0.08890 -0.13000
C 	C 	0.51250 0.72790 0.20130 0.07900
H 	H 	0.57160 0.75500 0.24000 0.01300
C 	C 	0.39890 0.63300 0.21120 -0.12800
C 	C 	0.37500 0.57370 0.28280 0.34300
C 	C 	0.07960 0.96240 0.10860 0.17500
H 	H 	0.09450 0.87600 0.11830 -0.03800
C 	C 	0.21260 0.03660 0.09990 -0.29400
H 	H 	0.31410 0.00080 0.10450 0.14200
C 	C 	0.19620 0.16570 0.08390 0.29800
C 	C 	0.04050 0.20920 0.07470 -0.29800
H 	H 	0.02250 0.29330 0.06080 0.15000
C 	C 	0.91300 0.12940 0.08600 0.16900
H 	H 	0.81000 0.16210 0.08080 -0.02600
Cu	Cu	0.23946 0.60503 0.87662 0.89900
O 	O 	0.93520 0.87660 0.66512 -0.31600
O 	O 	0.78980 0.02780 0.71669 -0.39700
O 	O 	0.67720 0.99770 0.97470 -0.31000
O 	O 	0.76580 0.82220 0.02943 -0.39600
N 	N 	0.04130 0.71780 0.86072 -0.21900
N 	N 	0.43000 0.49430 0.89570 -0.25700
N 	N 	0.82090 0.25500 0.92360 -0.37300
H 	H 	0.80500 0.17610 0.93430 0.19000
H 	H 	0.91700 0.28300 0.91780 0.19200
C 	C 	0.75110 0.89620 0.97610 0.34300
C 	C 	0.95240 0.75650 0.91600 0.07800
H 	H 	0.96990 0.71800 0.95940 0.01700
C 	C 	0.81170 0.90860 0.84640 0.06400
H 	H 	0.73760 0.97450 0.84180 0.03000
C 	C 	0.83660 0.85050 0.91110 -0.13100
C 	C 	0.01250 0.77210 0.79870 0.08000
H 	H 	0.07160 0.74500 0.76000 0.01300
C 	C 	0.89890 0.86700 0.78880 -0.12800
C 	C 	0.87500 0.92630 0.71720 0.34500
C 	C 	0.57960 0.53760 0.89140 0.17700
H 	H 	0.59450 0.62400 0.88170 -0.03900
C 	C 	0.71260 0.46340 0.90010 -0.29600
H 	H 	0.81410 0.49920 0.89550 0.14300
C 	C 	0.69620 0.33430 0.91610 0.29800
C 	C 	0.54050 0.29080 0.92530 -0.29900
H 	H 	0.52250 0.20670 0.93920 0.14900
C 	C 	0.41300 0.37060 0.91400 0.16900
H 	H 	0.31000 0.33790 0.91920 -0.02600
Cu	Cu	0.26054 0.39497 0.37662 0.89900
O 	O 	0.56480 0.12340 0.16512 -0.31500
O 	O 	0.71020 0.97220 0.21669 -0.39600
O 	O 	0.82280 0.00230 0.47470 -0.31100
O 	O 	0.73420 0.17780 0.52943 -0.39600
N 	N 	0.45870 0.28220 0.36072 -0.21900
N 	N 	0.07000 0.50570 0.39570 -0.25700
N 	N 	0.67910 0.74500 0.42360 -0.37400
H 	H 	0.69500 0.82390 0.43430 0.19000
H 	H 	0.58300 0.71700 0.41780 0.19300
C 	C 	0.74890 0.10380 0.47610 0.34200
C 	C 	0.54760 0.24350 0.41600 0.07800
H 	H 	0.53010 0.28200 0.45940 0.01700
C 	C 	0.68830 0.09140 0.34640 0.06400
H 	H 	0.76240 0.02550 0.34180 0.03000
C 	C 	0.66340 0.14950 0.41110 -0.13100
C 	C 	0.48750 0.22790 0.29870 0.07900
H 	H 	0.42840 0.25500 0.26000 0.01300
C 	C 	0.60110 0.13300 0.28880 -0.12800
C 	C 	0.62500 0.07370 0.21720 0.34400
C 	C 	0.92040 0.46240 0.39140 0.17800
H 	H 	0.90550 0.37600 0.38170 -0.03900
C 	C 	0.78740 0.53660 0.40010 -0.29600
H 	H 	0.68590 0.50080 0.39550 0.14300
C 	C 	0.80380 0.66570 0.41610 0.29900
C 	C 	0.95950 0.70920 0.42530 -0.29900
H 	H 	0.97750 0.79330 0.43920 0.15000
C 	C 	0.08700 0.62940 0.41400 0.16900
H 	H 	0.19000 0.66210 0.41920 -0.02600
