data_crystal

_cell_length_a 25.75990
_cell_length_b 25.75990
_cell_length_c 6.87660
_cell_angle_alpha 90.00000
_cell_angle_beta  90.00000
_cell_angle_gamma 120.00000

_symmetry_space_group_name_	'P 1'
_symmetry_space_group_name_H-M	'P 1'

loop_
_symmetry_equiv_pos_as_xyz
  x,y,z

loop_
_atom_site_label
_atom_site_type_symbol
_atom_site_fract_x
_atom_site_fract_y
_atom_site_fract_z
_atom_site_charge
Co	Co	0.31428 0.36412 0.47743 1.16400
O 	O 	0.02929 0.32539 0.64150 -0.57200
O 	O 	0.25231 0.31108 0.67050 -0.53100
O 	O 	0.07257 0.30239 0.40470 -0.46700
C 	C 	0.07160 0.31830 0.57540 0.41400
C 	C 	0.11970 0.32700 0.71340 -0.17700
C 	C 	0.16490 0.31810 0.64310 -0.10000
H 	H 	0.16360 0.30790 0.50970 0.07700
C 	C 	0.21150 0.32290 0.75400 0.19400
Co	Co	0.98095 0.69745 0.81076 1.16300
O 	O 	0.69596 0.65872 0.97483 -0.57300
O 	O 	0.91898 0.64441 0.00383 -0.53100
O 	O 	0.73924 0.63572 0.73803 -0.46700
C 	C 	0.73827 0.65163 0.90873 0.41400
C 	C 	0.78637 0.66033 0.04673 -0.17800
C 	C 	0.83157 0.65143 0.97643 -0.09900
H 	H 	0.83027 0.64123 0.84303 0.07700
C 	C 	0.87817 0.65623 0.08733 0.19300
Co	Co	0.64761 0.03079 0.14410 1.16300
O 	O 	0.36262 0.99206 0.30817 -0.57300
O 	O 	0.58564 0.97775 0.33717 -0.53000
O 	O 	0.40590 0.96906 0.07137 -0.46700
C 	C 	0.40493 0.98497 0.24207 0.41400
C 	C 	0.45303 0.99367 0.38007 -0.17700
C 	C 	0.49823 0.98477 0.30977 -0.10000
H 	H 	0.49693 0.97457 0.17637 0.07700
C 	C 	0.54483 0.98957 0.42067 0.19300
Co	Co	0.63588 0.95016 0.47743 1.16300
O 	O 	0.67461 0.70390 0.64150 -0.57300
O 	O 	0.68892 0.94123 0.67050 -0.53100
O 	O 	0.69761 0.77018 0.40470 -0.46700
C 	C 	0.68170 0.75330 0.57540 0.41400
C 	C 	0.67300 0.79270 0.71340 -0.17700
C 	C 	0.68190 0.84680 0.64310 -0.10000
H 	H 	0.69210 0.85570 0.50970 0.07700
C 	C 	0.67710 0.88860 0.75400 0.19400
Co	Co	0.30255 0.28349 0.81076 1.16300
O 	O 	0.34128 0.03723 0.97483 -0.57300
O 	O 	0.35559 0.27456 0.00383 -0.53000
O 	O 	0.36428 0.10351 0.73803 -0.46700
C 	C 	0.34837 0.08663 0.90873 0.41400
C 	C 	0.33967 0.12603 0.04673 -0.17800
C 	C 	0.34857 0.18013 0.97643 -0.09900
H 	H 	0.35877 0.18903 0.84303 0.07700
C 	C 	0.34377 0.22193 0.08733 0.19300
Co	Co	0.96921 0.61683 0.14410 1.16300
O 	O 	0.00794 0.37057 0.30817 -0.57300
O 	O 	0.02225 0.60790 0.33717 -0.53000
O 	O 	0.03094 0.43685 0.07137 -0.46700
C 	C 	0.01503 0.41997 0.24207 0.41400
C 	C 	0.00633 0.45937 0.38007 -0.17700
C 	C 	0.01523 0.51347 0.30977 -0.10000
H 	H 	0.02543 0.52237 0.17637 0.07700
C 	C 	0.01043 0.55527 0.42067 0.19300
Co	Co	0.04984 0.68572 0.47743 1.16300
O 	O 	0.29610 0.97071 0.64150 -0.57300
O 	O 	0.05877 0.74769 0.67050 -0.53100
O 	O 	0.22982 0.92743 0.40470 -0.46700
C 	C 	0.24670 0.92840 0.57540 0.41400
C 	C 	0.20730 0.88030 0.71340 -0.17700
C 	C 	0.15320 0.83510 0.64310 -0.10000
H 	H 	0.14430 0.83640 0.50970 0.07700
C 	C 	0.11140 0.78850 0.75400 0.19400
Co	Co	0.71651 0.01905 0.81076 1.16400
O 	O 	0.96277 0.30404 0.97483 -0.57300
O 	O 	0.72544 0.08102 0.00383 -0.53000
O 	O 	0.89649 0.26076 0.73803 -0.46700
C 	C 	0.91337 0.26173 0.90873 0.41500
C 	C 	0.87397 0.21363 0.04673 -0.17900
C 	C 	0.81987 0.16843 0.97643 -0.09700
H 	H 	0.81097 0.16973 0.84303 0.07600
C 	C 	0.77807 0.12183 0.08733 0.19200
Co	Co	0.38317 0.35239 0.14410 1.16300
O 	O 	0.62943 0.63738 0.30817 -0.57300
O 	O 	0.39210 0.41436 0.33717 -0.53100
O 	O 	0.56315 0.59410 0.07137 -0.46700
C 	C 	0.58003 0.59507 0.24207 0.41400
C 	C 	0.54063 0.54697 0.38007 -0.17700
C 	C 	0.48653 0.50177 0.30977 -0.10000
H 	H 	0.47763 0.50307 0.17637 0.07700
C 	C 	0.44473 0.45517 0.42067 0.19300
Co	Co	0.68572 0.63588 0.52257 1.16300
O 	O 	0.97071 0.67461 0.35850 -0.57300
O 	O 	0.74769 0.68892 0.32950 -0.53100
O 	O 	0.92743 0.69761 0.59530 -0.46700
C 	C 	0.92840 0.68170 0.42460 0.41400
C 	C 	0.88030 0.67300 0.28660 -0.17700
C 	C 	0.83510 0.68190 0.35690 -0.10000
H 	H 	0.83640 0.69210 0.49030 0.07700
C 	C 	0.78850 0.67710 0.24600 0.19400
Co	Co	0.35239 0.96921 0.85590 1.16300
O 	O 	0.63738 0.00794 0.69183 -0.57300
O 	O 	0.41436 0.02225 0.66283 -0.53000
O 	O 	0.59410 0.03094 0.92863 -0.46700
C 	C 	0.59507 0.01503 0.75793 0.41400
C 	C 	0.54697 0.00633 0.61993 -0.17700
C 	C 	0.50177 0.01523 0.69023 -0.10000
H 	H 	0.50307 0.02543 0.82363 0.07700
C 	C 	0.45517 0.01043 0.57933 0.19300
Co	Co	0.01905 0.30255 0.18924 1.16300
O 	O 	0.30404 0.34128 0.02517 -0.57300
O 	O 	0.08102 0.35559 0.99617 -0.53100
O 	O 	0.26076 0.36428 0.26197 -0.46700
C 	C 	0.26173 0.34837 0.09127 0.41400
C 	C 	0.21363 0.33967 0.95327 -0.17800
C 	C 	0.16843 0.34857 0.02357 -0.09900
H 	H 	0.16973 0.35877 0.15697 0.07700
C 	C 	0.12183 0.34377 0.91267 0.19300
Co	Co	0.36412 0.04984 0.52257 1.16300
O 	O 	0.32539 0.29610 0.35850 -0.57300
O 	O 	0.31108 0.05877 0.32950 -0.53100
O 	O 	0.30239 0.22982 0.59530 -0.46700
C 	C 	0.31830 0.24670 0.42460 0.41400
C 	C 	0.32700 0.20730 0.28660 -0.17700
C 	C 	0.31810 0.15320 0.35690 -0.10000
H 	H 	0.30790 0.14430 0.49030 0.07700
C 	C 	0.32290 0.11140 0.24600 0.19400
Co	Co	0.03079 0.38317 0.85590 1.16300
O 	O 	0.99206 0.62943 0.69183 -0.57300
O 	O 	0.97775 0.39210 0.66283 -0.53000
O 	O 	0.96906 0.56315 0.92863 -0.46700
C 	C 	0.98497 0.58003 0.75793 0.41400
C 	C 	0.99367 0.54063 0.61993 -0.17700
C 	C 	0.98477 0.48653 0.69023 -0.10000
H 	H 	0.97457 0.47763 0.82363 0.07700
C 	C 	0.98957 0.44473 0.57933 0.19300
Co	Co	0.69745 0.71651 0.18924 1.16300
O 	O 	0.65872 0.96277 0.02517 -0.57300
O 	O 	0.64441 0.72544 0.99617 -0.53000
O 	O 	0.63572 0.89649 0.26197 -0.46700
C 	C 	0.65163 0.91337 0.09127 0.41400
C 	C 	0.66033 0.87397 0.95327 -0.17800
C 	C 	0.65143 0.81987 0.02357 -0.09900
H 	H 	0.64123 0.81097 0.15697 0.07700
C 	C 	0.65623 0.77807 0.91267 0.19300
Co	Co	0.95016 0.31428 0.52257 1.16300
O 	O 	0.70390 0.02929 0.35850 -0.57300
O 	O 	0.94123 0.25231 0.32950 -0.53100
O 	O 	0.77018 0.07257 0.59530 -0.46700
C 	C 	0.75330 0.07160 0.42460 0.41400
C 	C 	0.79270 0.11970 0.28660 -0.17700
C 	C 	0.84680 0.16490 0.35690 -0.10000
H 	H 	0.85570 0.16360 0.49030 0.07700
C 	C 	0.88860 0.21150 0.24600 0.19400
Co	Co	0.61683 0.64761 0.85590 1.16300
O 	O 	0.37057 0.36262 0.69183 -0.57300
O 	O 	0.60790 0.58564 0.66283 -0.53100
O 	O 	0.43685 0.40590 0.92863 -0.46700
C 	C 	0.41997 0.40493 0.75793 0.41400
C 	C 	0.45937 0.45303 0.61993 -0.17700
C 	C 	0.51347 0.49823 0.69023 -0.10000
H 	H 	0.52237 0.49693 0.82363 0.07700
C 	C 	0.55527 0.54483 0.57933 0.19300
Co	Co	0.28349 0.98095 0.18924 1.16400
O 	O 	0.03723 0.69596 0.02517 -0.57300
O 	O 	0.27456 0.91898 0.99617 -0.53000
O 	O 	0.10351 0.73924 0.26197 -0.46700
C 	C 	0.08663 0.73827 0.09127 0.41500
C 	C 	0.12603 0.78637 0.95327 -0.17900
C 	C 	0.18013 0.83157 0.02357 -0.09700
H 	H 	0.18903 0.83027 0.15697 0.07600
C 	C 	0.22193 0.87817 0.91267 0.19200
