data_crystal

_cell_length_a 12.44600
_cell_length_b 7.28700
_cell_length_c 17.81900
_cell_angle_alpha 90.00000
_cell_angle_beta  97.23000
_cell_angle_gamma 90.00000

_symmetry_space_group_name_	'P 1'
_symmetry_space_group_name_H-M	'P 1'

loop_
_symmetry_equiv_pos_as_xyz
  x,y,z

loop_
_atom_site_label
_atom_site_type_symbol
_atom_site_fract_x
_atom_site_fract_y
_atom_site_fract_z
_atom_site_charge
P 	P 	0.19048 0.86740 0.87992 0.54900
O 	O 	0.10320 0.04820 0.72420 -0.68400
O 	O 	0.71830 0.86770 0.77660 -0.61900
O 	O 	0.24370 0.69040 0.85630 -0.47200
O 	O 	0.90370 0.67380 0.77080 -0.53700
O 	O 	0.24360 0.03700 0.84900 -0.43300
O 	O 	0.06820 0.86510 0.85250 -0.52300
O 	O 	0.20440 0.88030 0.96680 -0.26700
H 	H 	0.25580 0.27130 0.50140 0.11000
V 	V 	0.23658 0.07414 0.73904 1.85200
P 	P 	0.69048 0.36740 0.87992 0.54600
O 	O 	0.60320 0.54820 0.72420 -0.61100
O 	O 	0.21830 0.36770 0.77660 -0.65000
O 	O 	0.74370 0.19040 0.85630 -0.44300
O 	O 	0.40370 0.17380 0.77080 -0.64800
O 	O 	0.74360 0.53700 0.84900 -0.40100
O 	O 	0.56820 0.36510 0.85250 -0.43900
O 	O 	0.70440 0.38030 0.96680 -0.22200
H 	H 	0.75580 0.77130 0.50140 0.11400
V 	V 	0.73658 0.57414 0.73904 1.85300
P 	P 	0.80952 0.86740 0.62008 0.53900
O 	O 	0.89680 0.04820 0.77580 -0.51800
O 	O 	0.28170 0.86770 0.72340 -0.62800
O 	O 	0.75630 0.69040 0.64370 -0.44700
O 	O 	0.09630 0.67380 0.72920 -0.71600
O 	O 	0.75640 0.03700 0.65100 -0.40900
O 	O 	0.93180 0.86510 0.64750 -0.32300
O 	O 	0.79560 0.88030 0.53320 -0.19800
H 	H 	0.74420 0.27130 0.99860 0.12200
V 	V 	0.76342 0.07414 0.76096 1.85200
P 	P 	0.30952 0.36740 0.62008 0.54200
O 	O 	0.39680 0.54820 0.77580 -0.61000
O 	O 	0.78170 0.36770 0.72340 -0.59900
O 	O 	0.25630 0.19040 0.64370 -0.47900
O 	O 	0.59630 0.17380 0.72920 -0.64800
O 	O 	0.25640 0.53700 0.65100 -0.44100
O 	O 	0.43180 0.36510 0.64750 -0.43600
O 	O 	0.29560 0.38030 0.53320 -0.24500
H 	H 	0.24420 0.77130 0.99860 0.11400
V 	V 	0.26342 0.57414 0.76096 1.85200
P 	P 	0.80952 0.13260 0.12008 0.53800
O 	O 	0.89680 0.95180 0.27580 -0.51800
O 	O 	0.28170 0.13230 0.22340 -0.62800
O 	O 	0.75630 0.30960 0.14370 -0.44700
O 	O 	0.09630 0.32620 0.22920 -0.71500
O 	O 	0.75640 0.96300 0.15100 -0.40900
O 	O 	0.93180 0.13490 0.14750 -0.32200
O 	O 	0.79560 0.11970 0.03320 -0.19100
H 	H 	0.74420 0.72870 0.49860 0.10300
V 	V 	0.76342 0.92586 0.26096 1.85200
P 	P 	0.30952 0.63260 0.12008 0.54100
O 	O 	0.39680 0.45180 0.27580 -0.61000
O 	O 	0.78170 0.63230 0.22340 -0.59900
O 	O 	0.25630 0.80960 0.14370 -0.47800
O 	O 	0.59630 0.82620 0.22920 -0.64800
O 	O 	0.25640 0.46300 0.15100 -0.44100
O 	O 	0.43180 0.63490 0.14750 -0.43600
O 	O 	0.29560 0.61970 0.03320 -0.23900
H 	H 	0.24420 0.22870 0.49860 0.09900
V 	V 	0.26342 0.42586 0.26096 1.85200
P 	P 	0.19048 0.13260 0.37992 0.54700
O 	O 	0.10320 0.95180 0.22420 -0.68400
O 	O 	0.71830 0.13230 0.27660 -0.61800
O 	O 	0.24370 0.30960 0.35630 -0.47100
O 	O 	0.90370 0.32620 0.27080 -0.53700
O 	O 	0.24360 0.96300 0.34900 -0.43200
O 	O 	0.06820 0.13490 0.35250 -0.52300
O 	O 	0.20440 0.11970 0.46680 -0.26100
H 	H 	0.25580 0.72870 0.00140 0.09400
V 	V 	0.23658 0.92586 0.23904 1.85200
P 	P 	0.69048 0.63260 0.37992 0.54500
O 	O 	0.60320 0.45180 0.22420 -0.61000
O 	O 	0.21830 0.63230 0.27660 -0.65000
O 	O 	0.74370 0.80960 0.35630 -0.44200
O 	O 	0.40370 0.82620 0.27080 -0.64800
O 	O 	0.74360 0.46300 0.34900 -0.40000
O 	O 	0.56820 0.63490 0.35250 -0.43800
O 	O 	0.70440 0.61970 0.46680 -0.21300
H 	H 	0.75580 0.22870 0.00140 0.09500
V 	V 	0.73658 0.42586 0.23904 1.85300
V 	V 	0.00000 0.81170 0.75000 1.76400
V 	V 	0.50000 0.31170 0.75000 1.85500
V 	V 	0.00000 0.18830 0.25000 1.76400
V 	V 	0.50000 0.68830 0.25000 1.85500
