data_crystal

_cell_length_a 25.81000
_cell_length_b 25.81000
_cell_length_c 6.90100
_cell_angle_alpha 90.00000
_cell_angle_beta  90.00000
_cell_angle_gamma 120.00000

_symmetry_space_group_name_	'P 1'
_symmetry_space_group_name_H-M	'P 1'

loop_
_symmetry_equiv_pos_as_xyz
  x,y,z

loop_
_atom_site_label
_atom_site_type_symbol
_atom_site_fract_x
_atom_site_fract_y
_atom_site_fract_z
_atom_site_charge
Co	Co	0.68593 0.05053 0.02140 1.17900
O 	O 	0.60782 0.02285 0.16270 -0.50500
O 	O 	0.62955 0.99238 0.80790 -0.55300
O 	O 	0.56356 0.97027 0.57140 -0.43200
N 	N 	0.68890 0.13390 0.91580 -0.14900
N 	N 	0.69490 0.17750 0.88660 -0.03000
C 	C 	0.55580 0.01080 0.07760 0.21700
C 	C 	0.54130 0.99520 0.88000 -0.15600
C 	C 	0.48670 0.98520 0.80840 -0.08400
H 	H 	0.47790 0.97520 0.67540 0.09100
C 	C 	0.58040 0.98580 0.74370 0.41500
Co	Co	0.35260 0.38386 0.35473 1.18100
O 	O 	0.27449 0.35618 0.49603 -0.50400
O 	O 	0.29622 0.32571 0.14123 -0.55300
O 	O 	0.23023 0.30360 0.90473 -0.43100
N 	N 	0.35557 0.46723 0.24913 -0.14800
N 	N 	0.36157 0.51083 0.21993 -0.02900
C 	C 	0.22247 0.34413 0.41093 0.21700
C 	C 	0.20797 0.32853 0.21333 -0.15600
C 	C 	0.15337 0.31853 0.14173 -0.08300
H 	H 	0.14457 0.30853 0.00873 0.09100
C 	C 	0.24707 0.31913 0.07703 0.41600
Co	Co	0.01926 0.71720 0.68807 1.18100
O 	O 	0.94115 0.68952 0.82937 -0.50300
O 	O 	0.96288 0.65905 0.47457 -0.55200
O 	O 	0.89689 0.63694 0.23807 -0.43100
N 	N 	0.02223 0.80057 0.58247 -0.14900
N 	N 	0.02823 0.84417 0.55327 -0.02900
C 	C 	0.88913 0.67747 0.74427 0.21700
C 	C 	0.87463 0.66187 0.54667 -0.15600
C 	C 	0.82003 0.65187 0.47507 -0.08300
H 	H 	0.81123 0.64187 0.34207 0.09000
C 	C 	0.91373 0.65247 0.41037 0.41600
Co	Co	0.94947 0.63540 0.02140 1.18000
O 	O 	0.97715 0.58497 0.16270 -0.50400
O 	O 	0.00762 0.63717 0.80790 -0.55200
O 	O 	0.02973 0.59329 0.57140 -0.43100
N 	N 	0.86610 0.55500 0.91580 -0.14800
N 	N 	0.82250 0.51740 0.88660 -0.02900
C 	C 	0.98920 0.54500 0.07760 0.21700
C 	C 	0.00480 0.54610 0.88000 -0.15600
C 	C 	0.01480 0.50150 0.80840 -0.08400
H 	H 	0.02480 0.50270 0.67540 0.09100
C 	C 	0.01420 0.59460 0.74370 0.41500
Co	Co	0.61614 0.96873 0.35473 1.18100
O 	O 	0.64382 0.91830 0.49603 -0.50400
O 	O 	0.67429 0.97050 0.14123 -0.55200
O 	O 	0.69640 0.92662 0.90473 -0.43100
N 	N 	0.53277 0.88833 0.24913 -0.14800
N 	N 	0.48917 0.85073 0.21993 -0.02900
C 	C 	0.65587 0.87833 0.41093 0.21700
C 	C 	0.67147 0.87943 0.21333 -0.15600
C 	C 	0.68147 0.83483 0.14173 -0.08300
H 	H 	0.69147 0.83603 0.00873 0.09100
C 	C 	0.68087 0.92793 0.07703 0.41600
Co	Co	0.28280 0.30207 0.68807 1.18100
O 	O 	0.31048 0.25164 0.82937 -0.50300
O 	O 	0.34095 0.30384 0.47457 -0.55200
O 	O 	0.36306 0.25996 0.23807 -0.43100
N 	N 	0.19943 0.22167 0.58247 -0.14900
N 	N 	0.15583 0.18407 0.55327 -0.03000
C 	C 	0.32253 0.21167 0.74427 0.21700
C 	C 	0.33813 0.21277 0.54667 -0.15600
C 	C 	0.34813 0.16817 0.47507 -0.08300
H 	H 	0.35813 0.16937 0.34207 0.09000
C 	C 	0.34753 0.26127 0.41037 0.41600
Co	Co	0.36460 0.31407 0.02140 1.18100
O 	O 	0.41503 0.39218 0.16270 -0.50400
O 	O 	0.36283 0.37045 0.80790 -0.55200
O 	O 	0.40671 0.43644 0.57140 -0.43100
N 	N 	0.44500 0.31110 0.91580 -0.14800
N 	N 	0.48260 0.30510 0.88660 -0.02900
C 	C 	0.45500 0.44420 0.07760 0.21700
C 	C 	0.45390 0.45870 0.88000 -0.15600
C 	C 	0.49850 0.51330 0.80840 -0.08400
H 	H 	0.49730 0.52210 0.67540 0.09100
C 	C 	0.40540 0.41960 0.74370 0.41500
Co	Co	0.03127 0.64740 0.35473 1.18100
O 	O 	0.08170 0.72551 0.49603 -0.50400
O 	O 	0.02950 0.70378 0.14123 -0.55200
O 	O 	0.07338 0.76977 0.90473 -0.43200
N 	N 	0.11167 0.64443 0.24913 -0.14800
N 	N 	0.14927 0.63843 0.21993 -0.02900
C 	C 	0.12167 0.77753 0.41093 0.21700
C 	C 	0.12057 0.79203 0.21333 -0.15600
C 	C 	0.16517 0.84663 0.14173 -0.08300
H 	H 	0.16397 0.85543 0.00873 0.09100
C 	C 	0.07207 0.75293 0.07703 0.41700
Co	Co	0.69793 0.98074 0.68807 1.18100
O 	O 	0.74836 0.05885 0.82937 -0.50300
O 	O 	0.69616 0.03712 0.47457 -0.55200
O 	O 	0.74004 0.10311 0.23807 -0.43200
N 	N 	0.77833 0.97777 0.58247 -0.14900
N 	N 	0.81593 0.97177 0.55327 -0.03000
C 	C 	0.78833 0.11087 0.74427 0.21700
C 	C 	0.78723 0.12537 0.54667 -0.15600
C 	C 	0.83183 0.17997 0.47507 -0.08300
H 	H 	0.83063 0.18877 0.34207 0.09000
C 	C 	0.73873 0.08627 0.41037 0.41600
Co	Co	0.31407 0.94947 0.97860 1.18000
O 	O 	0.39218 0.97715 0.83730 -0.50400
O 	O 	0.37045 0.00762 0.19210 -0.55200
O 	O 	0.43644 0.02973 0.42860 -0.43100
N 	N 	0.31110 0.86610 0.08420 -0.14800
N 	N 	0.30510 0.82250 0.11340 -0.02900
C 	C 	0.44420 0.98920 0.92240 0.21700
C 	C 	0.45870 0.00480 0.12000 -0.15600
C 	C 	0.51330 0.01480 0.19160 -0.08400
H 	H 	0.52210 0.02480 0.32460 0.09100
C 	C 	0.41960 0.01420 0.25630 0.41500
Co	Co	0.98074 0.28280 0.31193 1.18100
O 	O 	0.05885 0.31048 0.17063 -0.50300
O 	O 	0.03712 0.34095 0.52543 -0.55200
O 	O 	0.10311 0.36306 0.76193 -0.43100
N 	N 	0.97777 0.19943 0.41753 -0.14900
N 	N 	0.97177 0.15583 0.44673 -0.02900
C 	C 	0.11087 0.32253 0.25573 0.21700
C 	C 	0.12537 0.33813 0.45333 -0.15600
C 	C 	0.17997 0.34813 0.52493 -0.08300
H 	H 	0.18877 0.35813 0.65793 0.09000
C 	C 	0.08627 0.34753 0.58963 0.41600
Co	Co	0.64740 0.61614 0.64527 1.18100
O 	O 	0.72551 0.64382 0.50397 -0.50400
O 	O 	0.70378 0.67429 0.85877 -0.55300
O 	O 	0.76977 0.69640 0.09527 -0.43100
N 	N 	0.64443 0.53277 0.75087 -0.14800
N 	N 	0.63843 0.48917 0.78007 -0.02900
C 	C 	0.77753 0.65587 0.58907 0.21700
C 	C 	0.79203 0.67147 0.78667 -0.15600
C 	C 	0.84663 0.68147 0.85827 -0.08300
H 	H 	0.85543 0.69147 0.99127 0.09100
C 	C 	0.75293 0.68087 0.92297 0.41600
Co	Co	0.05053 0.36460 0.97860 1.18000
O 	O 	0.02285 0.41503 0.83730 -0.50400
O 	O 	0.99238 0.36283 0.19210 -0.55200
O 	O 	0.97027 0.40671 0.42860 -0.43100
N 	N 	0.13390 0.44500 0.08420 -0.14800
N 	N 	0.17750 0.48260 0.11340 -0.02900
C 	C 	0.01080 0.45500 0.92240 0.21700
C 	C 	0.99520 0.45390 0.12000 -0.15600
C 	C 	0.98520 0.49850 0.19160 -0.08400
H 	H 	0.97520 0.49730 0.32460 0.09100
C 	C 	0.98580 0.40540 0.25630 0.41500
Co	Co	0.71720 0.69793 0.31193 1.18100
O 	O 	0.68952 0.74836 0.17063 -0.50300
O 	O 	0.65905 0.69616 0.52543 -0.55200
O 	O 	0.63694 0.74004 0.76193 -0.43100
N 	N 	0.80057 0.77833 0.41753 -0.14900
N 	N 	0.84417 0.81593 0.44673 -0.03000
C 	C 	0.67747 0.78833 0.25573 0.21700
C 	C 	0.66187 0.78723 0.45333 -0.15600
C 	C 	0.65187 0.83183 0.52493 -0.08300
H 	H 	0.64187 0.83063 0.65793 0.09000
C 	C 	0.65247 0.73873 0.58963 0.41600
Co	Co	0.38386 0.03127 0.64527 1.18100
O 	O 	0.35618 0.08170 0.50397 -0.50400
O 	O 	0.32571 0.02950 0.85877 -0.55200
O 	O 	0.30360 0.07338 0.09527 -0.43100
N 	N 	0.46723 0.11167 0.75087 -0.14800
N 	N 	0.51083 0.14927 0.78007 -0.02900
C 	C 	0.34413 0.12167 0.58907 0.21700
C 	C 	0.32853 0.12057 0.78667 -0.15600
C 	C 	0.31853 0.16517 0.85827 -0.08300
H 	H 	0.30853 0.16397 0.99127 0.09100
C 	C 	0.31913 0.07207 0.92297 0.41600
Co	Co	0.63540 0.68593 0.97860 1.18100
O 	O 	0.58497 0.60782 0.83730 -0.50400
O 	O 	0.63717 0.62955 0.19210 -0.55200
O 	O 	0.59329 0.56356 0.42860 -0.43100
N 	N 	0.55500 0.68890 0.08420 -0.14800
N 	N 	0.51740 0.69490 0.11340 -0.02900
C 	C 	0.54500 0.55580 0.92240 0.21700
C 	C 	0.54610 0.54130 0.12000 -0.15600
C 	C 	0.50150 0.48670 0.19160 -0.08400
H 	H 	0.50270 0.47790 0.32460 0.09100
C 	C 	0.59460 0.58040 0.25630 0.41500
Co	Co	0.30207 0.01926 0.31193 1.18100
O 	O 	0.25164 0.94115 0.17063 -0.50300
O 	O 	0.30384 0.96288 0.52543 -0.55200
O 	O 	0.25996 0.89689 0.76193 -0.43200
N 	N 	0.22167 0.02223 0.41753 -0.14900
N 	N 	0.18407 0.02823 0.44673 -0.03000
C 	C 	0.21167 0.88913 0.25573 0.21700
C 	C 	0.21277 0.87463 0.45333 -0.15600
C 	C 	0.16817 0.82003 0.52493 -0.08300
H 	H 	0.16937 0.81123 0.65793 0.09000
C 	C 	0.26127 0.91373 0.58963 0.41600
Co	Co	0.96873 0.35260 0.64527 1.18100
O 	O 	0.91830 0.27449 0.50397 -0.50400
O 	O 	0.97050 0.29622 0.85877 -0.55200
O 	O 	0.92662 0.23023 0.09527 -0.43200
N 	N 	0.88833 0.35557 0.75087 -0.14800
N 	N 	0.85073 0.36157 0.78007 -0.02900
C 	C 	0.87833 0.22247 0.58907 0.21700
C 	C 	0.87943 0.20797 0.78667 -0.15600
C 	C 	0.83483 0.15337 0.85827 -0.08300
H 	H 	0.83603 0.14457 0.99127 0.09100
C 	C 	0.92793 0.24707 0.92297 0.41700
