data_crystal

_cell_length_a 30.05700
_cell_length_b 16.18700
_cell_length_c 21.89400
_cell_angle_alpha 90.00000
_cell_angle_beta  114.47800
_cell_angle_gamma 90.00000

_symmetry_space_group_name_	'P 1'
_symmetry_space_group_name_H-M	'P 1'

loop_
_symmetry_equiv_pos_as_xyz
  x,y,z

loop_
_atom_site_label
_atom_site_type_symbol
_atom_site_fract_x
_atom_site_fract_y
_atom_site_fract_z
_atom_site_charge
Zn	Zn	0.70158 0.54852 0.47437 1.19900
O 	O 	0.85120 0.09250 0.00273 -0.55700
O 	O 	0.80627 0.19880 0.98350 -0.52600
O 	O 	0.18156 0.07630 0.37863 -0.49100
O 	O 	0.23874 0.17035 0.41953 -0.46200
O 	O 	0.76653 0.53668 0.54644 -0.51400
O 	O 	0.79696 0.66605 0.56158 -0.45800
N 	N 	0.99709 0.36424 0.97809 -0.15600
C 	C 	0.84463 0.16750 0.99102 0.54300
C 	C 	0.88368 0.21879 0.98488 -0.25500
C 	C 	0.92691 0.18349 0.99048 0.18600
H 	H 	0.93110 0.12670 0.99630 -0.01500
C 	C 	0.96390 0.23101 0.98756 -0.26100
H 	H 	0.99280 0.20620 0.99130 0.13000
C 	C 	0.95827 0.31554 0.97910 0.22300
C 	C 	0.91495 0.35175 0.97285 -0.25600
H 	H 	0.91080 0.40860 0.96700 0.13100
C 	C 	0.87786 0.30366 0.97522 0.18000
H 	H 	0.84860 0.32830 0.97030 -0.01000
C 	C 	0.04619 0.36007 0.02401 0.08400
C 	C 	0.06695 0.31479 0.08354 -0.13800
H 	H 	0.04760 0.28180 0.09760 0.07200
C 	C 	0.11695 0.32004 0.12113 0.03700
C 	C 	0.14536 0.37267 0.09991 -0.09600
H 	H 	0.17890 0.37630 0.12560 0.05300
C 	C 	0.12424 0.41886 0.04170 -0.00700
H 	H 	0.14340 0.45350 0.02850 0.02000
C 	C 	0.07421 0.41301 0.00306 -0.07300
C 	C 	0.04083 0.45131 0.94146 0.03500
C 	C 	0.04661 0.50795 0.89724 -0.06300
H 	H 	0.07720 0.52980 0.90570 0.06700
C 	C 	0.00596 0.53107 0.84067 -0.04400
H 	H 	0.00950 0.56990 0.81170 0.04700
C 	C 	0.95959 0.49767 0.82565 0.01600
C 	C 	0.95318 0.44227 0.86970 -0.11500
H 	H 	0.92250 0.42050 0.86100 0.07400
C 	C 	0.99381 0.42024 0.92719 0.08100
C 	C 	0.14030 0.27133 0.18449 0.04600
C 	C 	0.11941 0.19857 0.19353 -0.12200
H 	H 	0.09120 0.17860 0.15890 0.06400
C 	C 	0.13993 0.15518 0.25331 0.05100
H 	H 	0.12530 0.10660 0.25850 0.02000
C 	C 	0.18238 0.18391 0.30585 -0.14100
C 	C 	0.20340 0.25410 0.29680 0.05700
H 	H 	0.23190 0.27320 0.33140 0.02300
C 	C 	0.18331 0.29829 0.23687 -0.11900
H 	H 	0.19870 0.34600 0.23170 0.06900
C 	C 	0.20199 0.14090 0.37243 0.39000
C 	C 	0.91770 0.52077 0.76160 0.06600
C 	C 	0.91467 0.60015 0.73544 -0.13300
H 	H 	0.93860 0.63900 0.75850 0.07600
C 	C 	0.87628 0.62179 0.67525 0.06700
H 	H 	0.87470 0.67490 0.65830 0.02200
C 	C 	0.84039 0.56508 0.64030 -0.15100
C 	C 	0.84328 0.48587 0.66511 0.06700
H 	H 	0.81940 0.44720 0.64160 0.01100
C 	C 	0.88196 0.46380 0.72542 -0.13500
H 	H 	0.88380 0.41020 0.74160 0.07600
C 	C 	0.79757 0.59188 0.57769 0.42000
Zn	Zn	0.20158 0.04852 0.47437 1.20000
O 	O 	0.35120 0.59250 0.00273 -0.55600
O 	O 	0.30627 0.69880 0.98350 -0.52700
O 	O 	0.68156 0.57630 0.37863 -0.49100
O 	O 	0.73874 0.67035 0.41953 -0.46200
O 	O 	0.26653 0.03668 0.54644 -0.51400
O 	O 	0.29696 0.16605 0.56158 -0.45800
N 	N 	0.49709 0.86424 0.97809 -0.15600
C 	C 	0.34463 0.66750 0.99102 0.54200
C 	C 	0.38368 0.71879 0.98488 -0.25500
C 	C 	0.42691 0.68349 0.99048 0.18600
H 	H 	0.43110 0.62670 0.99630 -0.01500
C 	C 	0.46390 0.73101 0.98756 -0.26100
H 	H 	0.49280 0.70620 0.99130 0.13000
C 	C 	0.45827 0.81554 0.97910 0.22300
C 	C 	0.41495 0.85175 0.97285 -0.25600
H 	H 	0.41080 0.90860 0.96700 0.13100
C 	C 	0.37786 0.80366 0.97522 0.17900
H 	H 	0.34860 0.82830 0.97030 -0.01000
C 	C 	0.54619 0.86007 0.02401 0.08200
C 	C 	0.56695 0.81479 0.08354 -0.13600
H 	H 	0.54760 0.78180 0.09760 0.07100
C 	C 	0.61695 0.82004 0.12113 0.03600
C 	C 	0.64536 0.87267 0.09991 -0.09400
H 	H 	0.67890 0.87630 0.12560 0.05300
C 	C 	0.62424 0.91886 0.04170 -0.01100
H 	H 	0.64340 0.95350 0.02850 0.02200
C 	C 	0.57421 0.91301 0.00306 -0.06800
C 	C 	0.54083 0.95131 0.94146 0.02700
C 	C 	0.54661 0.00795 0.89724 -0.05700
H 	H 	0.57720 0.02980 0.90570 0.06400
C 	C 	0.50596 0.03107 0.84067 -0.05000
H 	H 	0.50950 0.06990 0.81170 0.04800
C 	C 	0.45959 0.99767 0.82565 0.01900
C 	C 	0.45318 0.94227 0.86970 -0.11900
H 	H 	0.42250 0.92050 0.86100 0.07500
C 	C 	0.49381 0.92024 0.92719 0.08600
C 	C 	0.64030 0.77133 0.18449 0.04700
C 	C 	0.61941 0.69857 0.19353 -0.12200
H 	H 	0.59120 0.67860 0.15890 0.06400
C 	C 	0.63993 0.65518 0.25331 0.05100
H 	H 	0.62530 0.60660 0.25850 0.02000
C 	C 	0.68238 0.68391 0.30585 -0.14100
C 	C 	0.70340 0.75410 0.29680 0.05700
H 	H 	0.73190 0.77320 0.33140 0.02300
C 	C 	0.68331 0.79829 0.23687 -0.12000
H 	H 	0.69870 0.84600 0.23170 0.07000
C 	C 	0.70199 0.64090 0.37243 0.39100
C 	C 	0.41770 0.02077 0.76160 0.06700
C 	C 	0.41467 0.10015 0.73544 -0.13300
H 	H 	0.43860 0.13900 0.75850 0.07700
C 	C 	0.37628 0.12179 0.67525 0.06700
H 	H 	0.37470 0.17490 0.65830 0.02200
C 	C 	0.34039 0.06508 0.64030 -0.15100
C 	C 	0.34328 0.98587 0.66511 0.06600
H 	H 	0.31940 0.94720 0.64160 0.01100
C 	C 	0.38196 0.96380 0.72542 -0.13600
H 	H 	0.38380 0.91020 0.74160 0.07600
C 	C 	0.29757 0.09188 0.57769 0.41900
Zn	Zn	0.29842 0.54852 0.02563 1.19200
O 	O 	0.14880 0.09250 0.49727 -0.51300
O 	O 	0.19373 0.19880 0.51650 -0.52800
O 	O 	0.81844 0.07630 0.12137 -0.49700
O 	O 	0.76126 0.17035 0.08047 -0.47100
O 	O 	0.23347 0.53668 0.95356 -0.49600
O 	O 	0.20304 0.66605 0.93842 -0.44200
N 	N 	0.00291 0.36424 0.52191 -0.17200
C 	C 	0.15537 0.16750 0.50898 0.49400
C 	C 	0.11632 0.21879 0.51512 -0.24200
C 	C 	0.07309 0.18349 0.50952 0.16900
H 	H 	0.06890 0.12670 0.50370 -0.01900
C 	C 	0.03610 0.23101 0.51244 -0.25500
H 	H 	0.00720 0.20620 0.50870 0.11900
C 	C 	0.04173 0.31554 0.52090 0.21200
C 	C 	0.08505 0.35175 0.52715 -0.25100
H 	H 	0.08920 0.40860 0.53300 0.12400
C 	C 	0.12214 0.30366 0.52478 0.16400
H 	H 	0.15140 0.32830 0.52970 -0.01100
C 	C 	0.95381 0.36007 0.47599 0.09500
C 	C 	0.93305 0.31479 0.41646 -0.13400
H 	H 	0.95240 0.28180 0.40240 0.07700
C 	C 	0.88305 0.32004 0.37887 0.03100
C 	C 	0.85464 0.37267 0.40009 -0.07700
H 	H 	0.82110 0.37630 0.37440 0.04900
C 	C 	0.87576 0.41886 0.45830 -0.03500
H 	H 	0.85660 0.45350 0.47150 0.03800
C 	C 	0.92579 0.41301 0.49694 -0.02300
C 	C 	0.95917 0.45131 0.55854 -0.02800
C 	C 	0.95339 0.50795 0.60276 -0.02500
H 	H 	0.92280 0.52980 0.59430 0.04500
C 	C 	0.99404 0.53107 0.65933 -0.08100
H 	H 	0.99050 0.56990 0.68830 0.05700
C 	C 	0.04041 0.49767 0.67435 0.04100
C 	C 	0.04682 0.44227 0.63030 -0.13900
H 	H 	0.07750 0.42050 0.63900 0.08200
C 	C 	0.00619 0.42024 0.57281 0.10400
C 	C 	0.85970 0.27133 0.31551 0.05300
C 	C 	0.88059 0.19857 0.30647 -0.12700
H 	H 	0.90880 0.17860 0.34110 0.06900
C 	C 	0.86007 0.15518 0.24669 0.05600
H 	H 	0.87470 0.10660 0.24150 0.01800
C 	C 	0.81762 0.18391 0.19415 -0.14500
C 	C 	0.79660 0.25410 0.20320 0.06200
H 	H 	0.76810 0.27320 0.16860 0.02100
C 	C 	0.81669 0.29829 0.26313 -0.12400
H 	H 	0.80130 0.34600 0.26830 0.07100
C 	C 	0.79801 0.14090 0.12757 0.39200
C 	C 	0.08230 0.52077 0.73840 0.05200
C 	C 	0.08533 0.60015 0.76456 -0.12000
H 	H 	0.06140 0.63900 0.74150 0.07200
C 	C 	0.12372 0.62179 0.82475 0.05600
H 	H 	0.12530 0.67490 0.84170 0.02900
C 	C 	0.15961 0.56508 0.85970 -0.13900
C 	C 	0.15672 0.48587 0.83489 0.05700
H 	H 	0.18060 0.44720 0.85840 0.01800
C 	C 	0.11804 0.46380 0.77458 -0.12200
H 	H 	0.11620 0.41020 0.75840 0.07200
C 	C 	0.20243 0.59188 0.92231 0.41400
Zn	Zn	0.79842 0.04852 0.02563 1.19200
O 	O 	0.64880 0.59250 0.49727 -0.51400
O 	O 	0.69373 0.69880 0.51650 -0.52800
O 	O 	0.31844 0.57630 0.12137 -0.49700
O 	O 	0.26126 0.67035 0.08047 -0.47100
O 	O 	0.73347 0.03668 0.95356 -0.49600
O 	O 	0.70304 0.16605 0.93842 -0.44100
N 	N 	0.50291 0.86424 0.52191 -0.17200
C 	C 	0.65537 0.66750 0.50898 0.49400
C 	C 	0.61632 0.71879 0.51512 -0.24200
C 	C 	0.57309 0.68349 0.50952 0.16900
H 	H 	0.56890 0.62670 0.50370 -0.02000
C 	C 	0.53610 0.73101 0.51244 -0.25500
H 	H 	0.50720 0.70620 0.50870 0.11900
C 	C 	0.54173 0.81554 0.52090 0.21100
C 	C 	0.58505 0.85175 0.52715 -0.25100
H 	H 	0.58920 0.90860 0.53300 0.12400
C 	C 	0.62214 0.80366 0.52478 0.16400
H 	H 	0.65140 0.82830 0.52970 -0.01100
C 	C 	0.45381 0.86007 0.47599 0.09800
C 	C 	0.43305 0.81479 0.41646 -0.13600
H 	H 	0.45240 0.78180 0.40240 0.07800
C 	C 	0.38305 0.82004 0.37887 0.03200
C 	C 	0.35464 0.87267 0.40009 -0.07900
H 	H 	0.32110 0.87630 0.37440 0.05000
C 	C 	0.37576 0.91886 0.45830 -0.03200
H 	H 	0.35660 0.95350 0.47150 0.03700
C 	C 	0.42579 0.91301 0.49694 -0.02600
C 	C 	0.45917 0.95131 0.55854 -0.02300
C 	C 	0.45339 0.00795 0.60276 -0.03000
H 	H 	0.42280 0.02980 0.59430 0.04700
C 	C 	0.49404 0.03107 0.65933 -0.07300
H 	H 	0.49050 0.06990 0.68830 0.05500
C 	C 	0.54041 0.99767 0.67435 0.03400
C 	C 	0.54682 0.94227 0.63030 -0.13400
H 	H 	0.57750 0.92050 0.63900 0.08000
C 	C 	0.50619 0.92024 0.57281 0.09900
C 	C 	0.35970 0.77133 0.31551 0.05200
C 	C 	0.38059 0.69857 0.30647 -0.12600
H 	H 	0.40880 0.67860 0.34110 0.06900
C 	C 	0.36007 0.65518 0.24669 0.05600
H 	H 	0.37470 0.60660 0.24150 0.01900
C 	C 	0.31762 0.68391 0.19415 -0.14500
C 	C 	0.29660 0.75410 0.20320 0.06100
H 	H 	0.26810 0.77320 0.16860 0.02100
C 	C 	0.31669 0.79829 0.26313 -0.12300
H 	H 	0.30130 0.84600 0.26830 0.07100
C 	C 	0.29801 0.64090 0.12757 0.39200
C 	C 	0.58230 0.02077 0.73840 0.05600
C 	C 	0.58533 0.10015 0.76456 -0.12200
H 	H 	0.56140 0.13900 0.74150 0.07200
C 	C 	0.62372 0.12179 0.82475 0.05700
H 	H 	0.62530 0.17490 0.84170 0.02800
C 	C 	0.65961 0.06508 0.85970 -0.13900
C 	C 	0.65672 0.98587 0.83489 0.05700
H 	H 	0.68060 0.94720 0.85840 0.01800
C 	C 	0.61804 0.96380 0.77458 -0.12500
H 	H 	0.61620 0.91020 0.75840 0.07300
C 	C 	0.70243 0.09188 0.92231 0.41400
Zn	Zn	0.29842 0.45148 0.52563 1.20000
O 	O 	0.14880 0.90750 0.99727 -0.47100
O 	O 	0.19373 0.80120 0.01650 -0.52600
O 	O 	0.81844 0.92370 0.62137 -0.49000
O 	O 	0.76126 0.82965 0.58047 -0.46200
O 	O 	0.23347 0.46332 0.45356 -0.51300
O 	O 	0.20304 0.33395 0.43842 -0.45700
N 	N 	0.00291 0.63576 0.02191 -0.18800
C 	C 	0.15537 0.83250 0.00898 0.44600
C 	C 	0.11632 0.78121 0.01512 -0.22800
C 	C 	0.07309 0.81651 0.00952 0.15100
H 	H 	0.06890 0.87330 0.00370 -0.02300
C 	C 	0.03610 0.76899 0.01244 -0.24900
H 	H 	0.00720 0.79380 0.00870 0.10800
C 	C 	0.04173 0.68446 0.02090 0.19900
C 	C 	0.08505 0.64825 0.02715 -0.24500
H 	H 	0.08920 0.59140 0.03300 0.11600
C 	C 	0.12214 0.69634 0.02478 0.14800
H 	H 	0.15140 0.67170 0.02970 -0.01100
C 	C 	0.95381 0.63993 0.97599 0.11200
C 	C 	0.93305 0.68521 0.91646 -0.13500
H 	H 	0.95240 0.71820 0.90240 0.08400
C 	C 	0.88305 0.67996 0.87887 0.02800
C 	C 	0.85464 0.62733 0.90009 -0.06200
H 	H 	0.82110 0.62370 0.87440 0.04700
C 	C 	0.87576 0.58114 0.95830 -0.05700
H 	H 	0.85660 0.54650 0.97150 0.05500
C 	C 	0.92579 0.58699 0.99694 0.02000
C 	C 	0.95917 0.54869 0.05854 -0.07900
C 	C 	0.95339 0.49205 0.10276 0.00200
H 	H 	0.92280 0.47020 0.09430 0.02700
C 	C 	0.99404 0.46893 0.15933 -0.10100
H 	H 	0.99050 0.43010 0.18830 0.06200
C 	C 	0.04041 0.50233 0.17435 0.05200
C 	C 	0.04682 0.55773 0.13030 -0.15200
H 	H 	0.07750 0.57950 0.13900 0.08600
C 	C 	0.00619 0.57976 0.07281 0.11500
C 	C 	0.85970 0.72867 0.81551 0.05700
C 	C 	0.88059 0.80143 0.80647 -0.12800
H 	H 	0.90880 0.82140 0.84110 0.07400
C 	C 	0.86007 0.84482 0.74669 0.05800
H 	H 	0.87470 0.89340 0.74150 0.02100
C 	C 	0.81762 0.81609 0.69415 -0.14400
C 	C 	0.79660 0.74590 0.70320 0.06300
H 	H 	0.76810 0.72680 0.66860 0.02200
C 	C 	0.81669 0.70171 0.76313 -0.12500
H 	H 	0.80130 0.65400 0.76830 0.07300
C 	C 	0.79801 0.85910 0.62757 0.39200
C 	C 	0.08230 0.47923 0.23840 0.04700
C 	C 	0.08533 0.39985 0.26456 -0.11900
H 	H 	0.06140 0.36100 0.24150 0.06900
C 	C 	0.12372 0.37821 0.32475 0.05700
H 	H 	0.12530 0.32510 0.34170 0.02500
C 	C 	0.15961 0.43492 0.35970 -0.14400
C 	C 	0.15672 0.51413 0.33489 0.05700
H 	H 	0.18060 0.55280 0.35840 0.01400
C 	C 	0.11804 0.53620 0.27458 -0.12100
H 	H 	0.11620 0.58980 0.25840 0.07000
C 	C 	0.20243 0.40812 0.42231 0.41700
Zn	Zn	0.79842 0.95148 0.52563 1.20000
O 	O 	0.64880 0.40750 0.99727 -0.46900
O 	O 	0.69373 0.30120 0.01650 -0.52600
O 	O 	0.31844 0.42370 0.62137 -0.49000
O 	O 	0.26126 0.32965 0.58047 -0.46200
O 	O 	0.73347 0.96332 0.45356 -0.51400
O 	O 	0.70304 0.83395 0.43842 -0.45700
N 	N 	0.50291 0.13576 0.02191 -0.18900
C 	C 	0.65537 0.33250 0.00898 0.44400
C 	C 	0.61632 0.28121 0.01512 -0.22700
C 	C 	0.57309 0.31651 0.00952 0.15000
H 	H 	0.56890 0.37330 0.00370 -0.02300
C 	C 	0.53610 0.26899 0.01244 -0.24900
H 	H 	0.50720 0.29380 0.00870 0.10600
C 	C 	0.54173 0.18446 0.02090 0.19800
C 	C 	0.58505 0.14825 0.02715 -0.24500
H 	H 	0.58920 0.09140 0.03300 0.11500
C 	C 	0.62214 0.19634 0.02478 0.14700
H 	H 	0.65140 0.17170 0.02970 -0.01000
C 	C 	0.45381 0.13993 0.97599 0.11600
C 	C 	0.43305 0.18521 0.91646 -0.13600
H 	H 	0.45240 0.21820 0.90240 0.08600
C 	C 	0.38305 0.17996 0.87887 0.03000
C 	C 	0.35464 0.12733 0.90009 -0.06300
H 	H 	0.32110 0.12370 0.87440 0.04700
C 	C 	0.37576 0.08114 0.95830 -0.05600
H 	H 	0.35660 0.04650 0.97150 0.05500
C 	C 	0.42579 0.08699 0.99694 0.02000
C 	C 	0.45917 0.04869 0.05854 -0.07700
C 	C 	0.45339 0.99205 0.10276 -0.00000
H 	H 	0.42280 0.97020 0.09430 0.02800
C 	C 	0.49404 0.96893 0.15933 -0.09400
H 	H 	0.49050 0.93010 0.18830 0.06100
C 	C 	0.54041 0.00233 0.17435 0.04500
C 	C 	0.54682 0.05773 0.13030 -0.14800
H 	H 	0.57750 0.07950 0.13900 0.08400
C 	C 	0.50619 0.07976 0.07281 0.11200
C 	C 	0.35970 0.22867 0.81551 0.05700
C 	C 	0.38059 0.30143 0.80647 -0.12800
H 	H 	0.40880 0.32140 0.84110 0.07400
C 	C 	0.36007 0.34482 0.74669 0.05800
H 	H 	0.37470 0.39340 0.74150 0.02100
C 	C 	0.31762 0.31609 0.69415 -0.14300
C 	C 	0.29660 0.24590 0.70320 0.06300
H 	H 	0.26810 0.22680 0.66860 0.02200
C 	C 	0.31669 0.20171 0.76313 -0.12500
H 	H 	0.30130 0.15400 0.76830 0.07300
C 	C 	0.29801 0.35910 0.62757 0.39200
C 	C 	0.58230 0.97923 0.23840 0.05200
C 	C 	0.58533 0.89985 0.26456 -0.12200
H 	H 	0.56140 0.86100 0.24150 0.07000
C 	C 	0.62372 0.87821 0.32475 0.05800
H 	H 	0.62530 0.82510 0.34170 0.02400
C 	C 	0.65961 0.93492 0.35970 -0.14500
C 	C 	0.65672 0.01413 0.33489 0.05900
H 	H 	0.68060 0.05280 0.35840 0.01300
C 	C 	0.61804 0.03620 0.27458 -0.12500
H 	H 	0.61620 0.08980 0.25840 0.07100
C 	C 	0.70243 0.90812 0.42231 0.41700
Zn	Zn	0.70158 0.45148 0.97437 1.20800
O 	O 	0.85120 0.90750 0.50273 -0.51300
O 	O 	0.80627 0.80120 0.48350 -0.52800
O 	O 	0.18156 0.92370 0.87863 -0.48400
O 	O 	0.23874 0.82965 0.91953 -0.45100
O 	O 	0.76653 0.46332 0.04644 -0.53000
O 	O 	0.79696 0.33395 0.06158 -0.46900
N 	N 	0.99709 0.63576 0.47809 -0.17300
C 	C 	0.84463 0.83250 0.49102 0.49400
C 	C 	0.88368 0.78121 0.48488 -0.24200
C 	C 	0.92691 0.81651 0.49048 0.16800
H 	H 	0.93110 0.87330 0.49630 -0.02000
C 	C 	0.96390 0.76899 0.48756 -0.25500
H 	H 	0.99280 0.79380 0.49130 0.11800
C 	C 	0.95827 0.68446 0.47910 0.21000
C 	C 	0.91495 0.64825 0.47285 -0.25100
H 	H 	0.91080 0.59140 0.46700 0.12300
C 	C 	0.87786 0.69634 0.47522 0.16400
H 	H 	0.84860 0.67170 0.47030 -0.01100
C 	C 	0.04619 0.63993 0.52401 0.10100
C 	C 	0.06695 0.68521 0.58354 -0.13800
H 	H 	0.04760 0.71820 0.59760 0.08000
C 	C 	0.11695 0.67996 0.62113 0.03500
C 	C 	0.14536 0.62733 0.59991 -0.08100
H 	H 	0.17890 0.62370 0.62560 0.05100
C 	C 	0.12424 0.58114 0.54170 -0.03000
H 	H 	0.14340 0.54650 0.52850 0.03600
C 	C 	0.07421 0.58699 0.50306 -0.02900
C 	C 	0.04083 0.54869 0.44146 -0.01700
C 	C 	0.04661 0.49205 0.39724 -0.03600
H 	H 	0.07720 0.47020 0.40570 0.04900
C 	C 	0.00596 0.46893 0.34067 -0.06600
H 	H 	0.00950 0.43010 0.31170 0.05200
C 	C 	0.95959 0.50233 0.32565 0.02700
C 	C 	0.95318 0.55773 0.36970 -0.13000
H 	H 	0.92250 0.57950 0.36100 0.07800
C 	C 	0.99381 0.57976 0.42719 0.09400
C 	C 	0.14030 0.72867 0.68449 0.05000
C 	C 	0.11941 0.80143 0.69353 -0.12300
H 	H 	0.09120 0.82140 0.65890 0.06900
C 	C 	0.13993 0.84482 0.75331 0.05300
H 	H 	0.12530 0.89340 0.75850 0.02300
C 	C 	0.18238 0.81609 0.80585 -0.13900
C 	C 	0.20340 0.74590 0.79680 0.05800
H 	H 	0.23190 0.72680 0.83140 0.02400
C 	C 	0.18331 0.70171 0.73687 -0.12000
H 	H 	0.19870 0.65400 0.73170 0.07100
C 	C 	0.20199 0.85910 0.87243 0.38900
C 	C 	0.91770 0.47923 0.26160 0.06100
C 	C 	0.91467 0.39985 0.23544 -0.13200
H 	H 	0.93860 0.36100 0.25850 0.07300
C 	C 	0.87628 0.37821 0.17525 0.06700
H 	H 	0.87470 0.32510 0.15830 0.01800
C 	C 	0.84039 0.43492 0.14030 -0.15600
C 	C 	0.84328 0.51413 0.16511 0.06600
H 	H 	0.81940 0.55280 0.14160 0.00700
C 	C 	0.88196 0.53620 0.22542 -0.13400
H 	H 	0.88380 0.58980 0.24160 0.07300
C 	C 	0.79757 0.40812 0.07769 0.42100
Zn	Zn	0.20158 0.95148 0.97437 1.20700
O 	O 	0.35120 0.40750 0.50273 -0.51300
O 	O 	0.30627 0.30120 0.48350 -0.52800
O 	O 	0.68156 0.42370 0.87863 -0.48400
O 	O 	0.73874 0.32965 0.91953 -0.45100
O 	O 	0.26653 0.96332 0.04644 -0.52900
O 	O 	0.29696 0.83395 0.06158 -0.46900
N 	N 	0.49709 0.13576 0.47809 -0.17200
C 	C 	0.34463 0.33250 0.49102 0.49400
C 	C 	0.38368 0.28121 0.48488 -0.24200
C 	C 	0.42691 0.31651 0.49048 0.16800
H 	H 	0.43110 0.37330 0.49630 -0.01900
C 	C 	0.46390 0.26899 0.48756 -0.25500
H 	H 	0.49280 0.29380 0.49130 0.11800
C 	C 	0.45827 0.18446 0.47910 0.21100
C 	C 	0.41495 0.14825 0.47285 -0.25100
H 	H 	0.41080 0.09140 0.46700 0.12300
C 	C 	0.37786 0.19634 0.47522 0.16400
H 	H 	0.34860 0.17170 0.47030 -0.01100
C 	C 	0.54619 0.13993 0.52401 0.09900
C 	C 	0.56695 0.18521 0.58354 -0.13700
H 	H 	0.54760 0.21820 0.59760 0.07900
C 	C 	0.61695 0.17996 0.62113 0.03400
C 	C 	0.64536 0.12733 0.59991 -0.08000
H 	H 	0.67890 0.12370 0.62560 0.05100
C 	C 	0.62424 0.08114 0.54170 -0.03100
H 	H 	0.64340 0.04650 0.52850 0.03700
C 	C 	0.57421 0.08699 0.50306 -0.02700
C 	C 	0.54083 0.04869 0.44146 -0.02100
C 	C 	0.54661 0.99205 0.39724 -0.03200
H 	H 	0.57720 0.97020 0.40570 0.04700
C 	C 	0.50596 0.96893 0.34067 -0.07100
H 	H 	0.50950 0.93010 0.31170 0.05400
C 	C 	0.45959 0.00233 0.32565 0.03100
C 	C 	0.45318 0.05773 0.36970 -0.13200
H 	H 	0.42250 0.07950 0.36100 0.07900
C 	C 	0.49381 0.07976 0.42719 0.09700
C 	C 	0.64030 0.22867 0.68449 0.05000
C 	C 	0.61941 0.30143 0.69353 -0.12300
H 	H 	0.59120 0.32140 0.65890 0.06900
C 	C 	0.63993 0.34482 0.75331 0.05300
H 	H 	0.62530 0.39340 0.75850 0.02300
C 	C 	0.68238 0.31609 0.80585 -0.13900
C 	C 	0.70340 0.24590 0.79680 0.05800
H 	H 	0.73190 0.22680 0.83140 0.02400
C 	C 	0.68331 0.20171 0.73687 -0.12000
H 	H 	0.69870 0.15400 0.73170 0.07100
C 	C 	0.70199 0.35910 0.87243 0.38900
C 	C 	0.41770 0.97923 0.26160 0.06100
C 	C 	0.41467 0.89985 0.23544 -0.13100
H 	H 	0.43860 0.86100 0.25850 0.07400
C 	C 	0.37628 0.87821 0.17525 0.06600
H 	H 	0.37470 0.82510 0.15830 0.01900
C 	C 	0.34039 0.93492 0.14030 -0.15400
C 	C 	0.34328 0.01413 0.16511 0.06400
H 	H 	0.31940 0.05280 0.14160 0.00700
C 	C 	0.38196 0.03620 0.22542 -0.13300
H 	H 	0.38380 0.08980 0.24160 0.07300
C 	C 	0.29757 0.90812 0.07769 0.42000
Zn	Zn	0.75000 0.75000 0.50000 1.25900
Zn	Zn	0.25000 0.75000 -0.00000 1.24800
Zn	Zn	0.25000 0.25000 0.50000 1.25900
Zn	Zn	0.75000 0.25000 -0.00000 1.24800
