data_crystal

_cell_length_a 10.42360
_cell_length_b 10.42360
_cell_length_c 8.94870
_cell_angle_alpha 90.00000
_cell_angle_beta  90.00000
_cell_angle_gamma 90.00000

_symmetry_space_group_name_	'P 1'
_symmetry_space_group_name_H-M	'P 1'

loop_
_symmetry_equiv_pos_as_xyz
  x,y,z

loop_
_atom_site_label
_atom_site_type_symbol
_atom_site_fract_x
_atom_site_fract_y
_atom_site_fract_z
_atom_site_charge
P 	P 	0.61010 0.40660 0.20160 0.55800
Co	Co	0.37150 0.60960 0.16000 1.18600
O 	O 	0.50400 0.50010 0.24650 -0.40200
O 	O 	0.66020 0.43740 0.04560 -0.45300
O 	O 	0.71590 0.42630 0.31710 -0.44700
O 	O 	0.55730 0.27110 0.21160 -0.43900
P 	P 	0.88990 0.09340 0.20160 0.55300
Co	Co	0.12850 0.89040 0.16000 1.18200
O 	O 	0.99600 0.99990 0.24650 -0.39400
O 	O 	0.83980 0.06260 0.04560 -0.45200
O 	O 	0.78410 0.07370 0.31710 -0.44800
O 	O 	0.94270 0.22890 0.21160 -0.43900
P 	P 	0.59340 0.11010 0.70160 0.55800
Co	Co	0.39040 0.87150 0.66000 1.18700
O 	O 	0.49990 0.00400 0.74650 -0.40200
O 	O 	0.56260 0.16020 0.54560 -0.45500
O 	O 	0.57370 0.21590 0.81710 -0.44800
O 	O 	0.72890 0.05730 0.71160 -0.44200
P 	P 	0.90660 0.38990 0.70160 0.55500
Co	Co	0.10960 0.62850 0.66000 1.18700
O 	O 	0.00010 0.49600 0.74650 -0.39800
O 	O 	0.93740 0.33980 0.54560 -0.45600
O 	O 	0.92630 0.28410 0.81710 -0.45100
O 	O 	0.77110 0.44270 0.71160 -0.44000
P 	P 	0.38990 0.59340 0.79840 0.55800
Co	Co	0.62850 0.39040 0.84000 1.18600
O 	O 	0.49600 0.49990 0.75350 -0.40200
O 	O 	0.33980 0.56260 0.95440 -0.45300
O 	O 	0.28410 0.57370 0.68290 -0.44700
O 	O 	0.44270 0.72890 0.78840 -0.43900
P 	P 	0.11010 0.90660 0.79840 0.55300
Co	Co	0.87150 0.10960 0.84000 1.18200
O 	O 	0.00400 0.00010 0.75350 -0.39400
O 	O 	0.16020 0.93740 0.95440 -0.45200
O 	O 	0.21590 0.92630 0.68290 -0.44800
O 	O 	0.05730 0.77110 0.78840 -0.43900
P 	P 	0.40660 0.88990 0.29840 0.55800
Co	Co	0.60960 0.12850 0.34000 1.18700
O 	O 	0.50010 0.99600 0.25350 -0.40200
O 	O 	0.43740 0.83980 0.45440 -0.45500
O 	O 	0.42630 0.78410 0.18290 -0.44800
O 	O 	0.27110 0.94270 0.28840 -0.44200
P 	P 	0.09340 0.61010 0.29840 0.55500
Co	Co	0.89040 0.37150 0.34000 1.18700
O 	O 	0.99990 0.50400 0.25350 -0.39800
O 	O 	0.06260 0.66020 0.45440 -0.45600
O 	O 	0.07370 0.71590 0.18290 -0.45100
O 	O 	0.22890 0.55730 0.28840 -0.44000
