data_crystal

_cell_length_a 10.39110
_cell_length_b 10.39110
_cell_length_c 8.93410
_cell_angle_alpha 90.00000
_cell_angle_beta  90.00000
_cell_angle_gamma 90.00000

_symmetry_space_group_name_	'P 1'
_symmetry_space_group_name_H-M	'P 1'

loop_
_symmetry_equiv_pos_as_xyz
  x,y,z

loop_
_atom_site_label
_atom_site_type_symbol
_atom_site_fract_x
_atom_site_fract_y
_atom_site_fract_z
_atom_site_charge
Co	Co	0.38965 0.62843 0.15941 1.18600
P 	P 	0.40671 0.60919 0.79744 0.56200
O 	O 	0.43690 0.66050 0.95310 -0.45400
O 	O 	0.27150 0.55670 0.78870 -0.44000
O 	O 	0.50080 0.50340 0.75210 -0.40300
O 	O 	0.42560 0.71480 0.68120 -0.44900
Co	Co	0.11035 0.87157 0.15941 1.18300
P 	P 	0.09329 0.89081 0.79744 0.55800
O 	O 	0.06310 0.83950 0.95310 -0.45300
O 	O 	0.22850 0.94330 0.78870 -0.43900
O 	O 	0.99920 0.99660 0.75210 -0.39500
O 	O 	0.07440 0.78520 0.68120 -0.45000
Co	Co	0.37157 0.88965 0.65941 1.18700
P 	P 	0.39081 0.90671 0.29744 0.56000
O 	O 	0.33950 0.93690 0.45310 -0.45700
O 	O 	0.44330 0.77150 0.28870 -0.44000
O 	O 	0.49660 0.00080 0.25210 -0.39900
O 	O 	0.28520 0.92560 0.18120 -0.45400
Co	Co	0.12843 0.61035 0.65941 1.18700
P 	P 	0.10919 0.59329 0.29744 0.56300
O 	O 	0.16050 0.56310 0.45310 -0.45600
O 	O 	0.05670 0.72850 0.28870 -0.44300
O 	O 	0.00340 0.49920 0.25210 -0.40400
O 	O 	0.21480 0.57440 0.18120 -0.45000
Co	Co	0.61035 0.37157 0.84059 1.18600
P 	P 	0.59329 0.39081 0.20256 0.56200
O 	O 	0.56310 0.33950 0.04690 -0.45400
O 	O 	0.72850 0.44330 0.21130 -0.44000
O 	O 	0.49920 0.49660 0.24790 -0.40300
O 	O 	0.57440 0.28520 0.31880 -0.44900
Co	Co	0.88965 0.12843 0.84059 1.18300
P 	P 	0.90671 0.10919 0.20256 0.55800
O 	O 	0.93690 0.16050 0.04690 -0.45300
O 	O 	0.77150 0.05670 0.21130 -0.43900
O 	O 	0.00080 0.00340 0.24790 -0.39500
O 	O 	0.92560 0.21480 0.31880 -0.45000
Co	Co	0.62843 0.11035 0.34059 1.18700
P 	P 	0.60919 0.09329 0.70256 0.56000
O 	O 	0.66050 0.06310 0.54690 -0.45700
O 	O 	0.55670 0.22850 0.71130 -0.44000
O 	O 	0.50340 0.99920 0.74790 -0.39900
O 	O 	0.71480 0.07440 0.81880 -0.45400
Co	Co	0.87157 0.38965 0.34059 1.18700
P 	P 	0.89081 0.40671 0.70256 0.56300
O 	O 	0.83950 0.43690 0.54690 -0.45600
O 	O 	0.94330 0.27150 0.71130 -0.44300
O 	O 	0.99660 0.50080 0.74790 -0.40400
O 	O 	0.78520 0.42560 0.81880 -0.45000
