data_crystal

_cell_length_a 12.13900
_cell_length_b 21.57100
_cell_length_c 12.61100
_cell_angle_alpha 90.00000
_cell_angle_beta  90.35100
_cell_angle_gamma 90.00000

_symmetry_space_group_name_	'P 1'
_symmetry_space_group_name_H-M	'P 1'

loop_
_symmetry_equiv_pos_as_xyz
  x,y,z

loop_
_atom_site_label
_atom_site_type_symbol
_atom_site_fract_x
_atom_site_fract_y
_atom_site_fract_z
_atom_site_charge
C 	C 	0.35360 0.38620 0.34900 -0.07200
H 	H 	0.35670 0.43140 0.36270 0.06600
H 	H 	0.37640 0.36430 0.41450 0.05500
C 	C 	0.42870 0.37010 0.26140 -0.05600
H 	H 	0.40740 0.39340 0.19690 0.05600
H 	H 	0.42250 0.32520 0.24560 0.05300
C 	C 	0.21060 0.30440 0.35460 -0.07200
H 	H 	0.16800 0.30630 0.42120 0.05400
H 	H 	0.27870 0.28040 0.36800 0.06600
C 	C 	0.14280 0.27350 0.26850 -0.05800
H 	H 	0.18830 0.26860 0.20420 0.05400
H 	H 	0.07930 0.30030 0.25010 0.05800
C 	C 	0.15730 0.41340 0.34650 -0.06000
H 	H 	0.17970 0.43510 0.41230 0.05000
H 	H 	0.08540 0.39310 0.35890 0.06000
C 	C 	0.14720 0.45930 0.25630 -0.06600
H 	H 	0.12880 0.43720 0.18970 0.06100
H 	H 	0.21830 0.48100 0.24630 0.05900
C 	C 	0.26130 0.30550 0.64970 -0.06800
H 	H 	0.30290 0.30290 0.58260 0.05300
H 	H 	0.18930 0.28480 0.63920 0.06200
C 	C 	0.32550 0.27330 0.73830 -0.05800
H 	H 	0.39750 0.29420 0.74800 0.05800
H 	H 	0.28420 0.27710 0.80550 0.05800
C 	C 	0.13380 0.39310 0.65500 -0.06700
H 	H 	0.10560 0.37340 0.58930 0.05200
H 	H 	0.13530 0.43850 0.64420 0.06200
C 	C 	0.05990 0.37720 0.74680 -0.05900
H 	H 	0.05820 0.33160 0.75550 0.06200
H 	H 	0.09180 0.39520 0.81250 0.06200
C 	C 	0.33170 0.41220 0.64650 -0.06500
H 	H 	0.31010 0.43400 0.58060 0.05200
H 	H 	0.39970 0.38840 0.63250 0.06100
C 	C 	0.35250 0.45900 0.73490 -0.06100
H 	H 	0.28360 0.48200 0.74920 0.05900
H 	H 	0.37380 0.43670 0.80050 0.06000
C 	C 	0.61430 0.32880 0.31670 -0.12300
H 	H 	0.69160 0.34110 0.33080 0.07000
H 	H 	0.61380 0.30120 0.25400 0.06700
C 	C 	0.57170 0.29350 0.41070 0.05100
C 	C 	0.50920 0.24100 0.39840 -0.06800
H 	H 	0.49140 0.22680 0.32900 0.06200
C 	C 	0.47150 0.20800 0.48570 -0.07000
H 	H 	0.42740 0.17210 0.47570 0.06300
C 	C 	0.49820 0.22750 0.58660 0.05600
C 	C 	0.56410 0.28120 0.60020 -0.07200
H 	H 	0.58360 0.29500 0.66940 0.06400
C 	C 	0.59950 0.31320 0.51310 -0.06100
H 	H 	0.64350 0.34930 0.52230 0.05300
C 	C 	0.46120 0.19160 0.68290 -0.12400
H 	H 	0.46750 0.14670 0.66790 0.07100
H 	H 	0.51100 0.20120 0.74310 0.06600
C 	C 	0.98090 0.21160 0.32660 -0.12500
H 	H 	0.95450 0.16850 0.33520 0.07000
H 	H 	0.94140 0.22990 0.26530 0.07100
C 	C 	0.95260 0.24810 0.42510 0.05600
C 	C 	0.91150 0.30800 0.41680 -0.07900
H 	H 	0.90240 0.32660 0.34900 0.07100
C 	C 	0.88370 0.34060 0.50760 -0.06600
H 	H 	0.85720 0.38190 0.50100 0.05100
C 	C 	0.89350 0.31470 0.60680 0.05800
C 	C 	0.93420 0.25430 0.61410 -0.07300
H 	H 	0.94170 0.23540 0.68180 0.06400
C 	C 	0.96390 0.22160 0.52460 -0.06500
H 	H 	0.99210 0.18070 0.53130 0.05300
C 	C 	0.86240 0.34990 0.70360 -0.13500
H 	H 	0.85600 0.32060 0.76360 0.07400
H 	H 	0.78910 0.36890 0.69200 0.07800
C 	C 	0.10280 0.56930 0.31140 -0.12300
H 	H 	0.04100 0.59800 0.32580 0.07000
H 	H 	0.14400 0.58600 0.25020 0.06900
C 	C 	0.17870 0.56830 0.40730 0.04900
C 	C 	0.13670 0.56540 0.50950 -0.06100
H 	H 	0.05930 0.56390 0.52010 0.05000
C 	C 	0.20760 0.56460 0.59560 -0.07900
H 	H 	0.17820 0.56240 0.66510 0.06900
C 	C 	0.32070 0.56700 0.58250 0.05700
C 	C 	0.36390 0.56920 0.47890 -0.06600
H 	H 	0.44130 0.57000 0.46810 0.05700
C 	C 	0.29220 0.57000 0.39360 -0.06700
H 	H 	0.32110 0.57180 0.32380 0.06300
C 	C 	0.39880 0.56780 0.67600 -0.12500
H 	H 	0.36050 0.58610 0.73770 0.06600
H 	H 	0.46210 0.59490 0.65910 0.07000
C 	C 	0.60630 0.42100 0.20520 -0.29700
H 	H 	0.59210 0.40060 0.13620 0.11600
H 	H 	0.68680 0.42000 0.21870 0.12800
C 	C 	0.56810 0.48760 0.19960 0.45500
C 	C 	0.12570 0.16180 0.22150 -0.31800
H 	H 	0.08010 0.12460 0.23540 0.13600
H 	H 	0.10560 0.17780 0.15040 0.12100
C 	C 	0.24340 0.14390 0.22230 0.47200
C 	C 	0.97880 0.51590 0.18950 -0.27000
H 	H 	0.02230 0.52220 0.12420 0.11000
H 	H 	0.93450 0.55380 0.20150 0.10800
C 	C 	0.90170 0.46100 0.17350 0.42600
C 	C 	0.32010 0.16570 0.80900 -0.28000
H 	H 	0.35680 0.18350 0.87230 0.08800
H 	H 	0.35150 0.12400 0.79680 0.10000
C 	C 	0.19820 0.15950 0.83060 0.44000
C 	C 	0.90480 0.43210 0.83090 -0.27200
H 	H 	0.92740 0.40810 0.89430 0.11100
H 	H 	0.82330 0.43470 0.82990 0.10600
C 	C 	0.95380 0.49730 0.83650 0.41400
C 	C 	0.51950 0.51380 0.79740 -0.26400
H 	H 	0.47650 0.52410 0.86150 0.08400
H 	H 	0.56780 0.54950 0.78160 0.09800
C 	C 	0.59110 0.45730 0.82090 0.41400
Eu	Eu	0.74308 0.54237 0.99612 2.02500
N 	N 	0.23860 0.36780 0.31890 -0.09000
N 	N 	0.54820 0.38570 0.29170 -0.10600
H 	H 	0.54700 0.41050 0.35200 0.09700
N 	N 	0.10110 0.21040 0.30350 -0.10300
H 	H 	0.13820 0.19970 0.36560 0.09800
N 	N 	0.05610 0.50690 0.28150 -0.10800
H 	H 	0.01570 0.49200 0.33860 0.09400
N 	N 	0.24440 0.37050 0.67860 -0.09000
N 	N 	0.34420 0.20600 0.71440 -0.10800
H 	H 	0.29750 0.19440 0.65920 0.09700
N 	N 	0.94360 0.40050 0.73380 -0.10700
H 	H 	0.94350 0.42950 0.67930 0.09400
N 	N 	0.44180 0.50430 0.70650 -0.10900
H 	H 	0.48120 0.48830 0.64970 0.09700
O 	O 	0.62270 0.52080 0.13350 -0.53000
O 	O 	0.49300 0.50590 0.25510 -0.32000
O 	O 	0.30940 0.16980 0.28210 -0.32200
O 	O 	0.26800 0.10210 0.15480 -0.54300
O 	O 	0.91110 0.41440 0.23010 -0.30500
O 	O 	0.83620 0.46750 0.09560 -0.49200
O 	O 	0.13010 0.18700 0.77680 -0.30700
O 	O 	0.17770 0.12222 0.90540 -0.52000
O 	O 	0.02580 0.51450 0.77820 -0.30600
O 	O 	0.91370 0.53020 0.91290 -0.47800
O 	O 	0.58330 0.41020 0.76550 -0.29900
O 	O 	0.65710 0.46440 0.89940 -0.51300
C 	C 	0.64640 0.88620 0.65100 -0.06900
H 	H 	0.64330 0.93140 0.63730 0.05700
H 	H 	0.62360 0.86430 0.58550 0.05200
C 	C 	0.57130 0.87010 0.73860 -0.05800
H 	H 	0.59260 0.89340 0.80310 0.05300
H 	H 	0.57750 0.82520 0.75440 0.05300
C 	C 	0.78940 0.80440 0.64540 -0.07100
H 	H 	0.83200 0.80630 0.57880 0.05300
H 	H 	0.72130 0.78040 0.63200 0.06500
C 	C 	0.85720 0.77350 0.73150 -0.05800
H 	H 	0.81170 0.76860 0.79580 0.05400
H 	H 	0.92070 0.80030 0.74990 0.05700
C 	C 	0.84270 0.91340 0.65350 -0.04800
H 	H 	0.82030 0.93510 0.58770 0.04200
H 	H 	0.91460 0.89310 0.64110 0.05500
C 	C 	0.85280 0.95930 0.74370 -0.09100
H 	H 	0.87120 0.93720 0.81030 0.06200
H 	H 	0.78170 0.98100 0.75370 0.05500
C 	C 	0.73870 0.80550 0.35030 -0.06700
H 	H 	0.69710 0.80290 0.41740 0.05200
H 	H 	0.81070 0.78480 0.36080 0.06200
C 	C 	0.67450 0.77330 0.26170 -0.05800
H 	H 	0.60250 0.79420 0.25200 0.05700
H 	H 	0.71580 0.77710 0.19450 0.05800
C 	C 	0.86620 0.89310 0.34500 -0.06200
H 	H 	0.89440 0.87340 0.41070 0.05000
H 	H 	0.86470 0.93850 0.35580 0.05400
C 	C 	0.94010 0.87720 0.25320 -0.06400
H 	H 	0.94180 0.83160 0.24450 0.06300
H 	H 	0.90820 0.89520 0.18750 0.06000
C 	C 	0.66830 0.91220 0.35350 -0.05400
H 	H 	0.68990 0.93400 0.41940 0.04400
H 	H 	0.60030 0.88840 0.36750 0.05700
C 	C 	0.64750 0.95900 0.26510 -0.08500
H 	H 	0.71640 0.98200 0.25080 0.05600
H 	H 	0.62620 0.93670 0.19950 0.06200
C 	C 	0.38570 0.82880 0.68330 -0.12200
H 	H 	0.30840 0.84110 0.66920 0.06900
H 	H 	0.38620 0.80120 0.74600 0.06600
C 	C 	0.42830 0.79350 0.58930 0.05100
C 	C 	0.49080 0.74100 0.60160 -0.06800
H 	H 	0.50860 0.72680 0.67100 0.06200
C 	C 	0.52850 0.70800 0.51430 -0.06900
H 	H 	0.57260 0.67210 0.52430 0.06100
C 	C 	0.50180 0.72750 0.41340 0.05500
C 	C 	0.43590 0.78120 0.39980 -0.07200
H 	H 	0.41640 0.79500 0.33060 0.06400
C 	C 	0.40050 0.81320 0.48690 -0.06100
H 	H 	0.35650 0.84930 0.47770 0.05200
C 	C 	0.53880 0.69160 0.31710 -0.12400
H 	H 	0.53250 0.64670 0.33210 0.07000
H 	H 	0.48900 0.70120 0.25690 0.06600
C 	C 	0.01910 0.71160 0.67340 -0.12300
H 	H 	0.04550 0.66850 0.66480 0.07000
H 	H 	0.05860 0.72990 0.73470 0.07100
C 	C 	0.04740 0.74810 0.57490 0.05600
C 	C 	0.08850 0.80800 0.58320 -0.07900
H 	H 	0.09760 0.82660 0.65100 0.07100
C 	C 	0.11630 0.84060 0.49240 -0.06500
H 	H 	0.14280 0.88190 0.49900 0.04900
C 	C 	0.10650 0.81470 0.39320 0.05800
C 	C 	0.06580 0.75430 0.38590 -0.07200
H 	H 	0.05830 0.73540 0.31820 0.06500
C 	C 	0.03610 0.72160 0.47540 -0.06400
H 	H 	0.00790 0.68070 0.46870 0.05300
C 	C 	0.13760 0.84990 0.29640 -0.13400
H 	H 	0.14400 0.82060 0.23640 0.07400
H 	H 	0.21090 0.86890 0.30800 0.07700
C 	C 	0.89720 0.06930 0.68860 -0.12300
H 	H 	0.95900 0.09800 0.67420 0.07100
H 	H 	0.85600 0.08600 0.74980 0.07100
C 	C 	0.82130 0.06830 0.59270 0.05700
C 	C 	0.86330 0.06540 0.49050 -0.05900
H 	H 	0.94070 0.06390 0.47990 0.05500
C 	C 	0.79240 0.06460 0.40440 -0.07600
H 	H 	0.82180 0.06240 0.33490 0.07200
C 	C 	0.67930 0.06700 0.41750 0.06300
C 	C 	0.63610 0.06920 0.52110 -0.06300
H 	H 	0.55870 0.07000 0.53190 0.06100
C 	C 	0.70780 0.07000 0.60640 -0.06400
H 	H 	0.67890 0.07180 0.67620 0.06500
C 	C 	0.60120 0.06780 0.32400 -0.12500
H 	H 	0.63950 0.08610 0.26230 0.06700
H 	H 	0.53790 0.09490 0.34090 0.07100
C 	C 	0.39370 0.92100 0.79480 -0.26500
H 	H 	0.40790 0.90060 0.86380 0.10500
H 	H 	0.31320 0.92000 0.78130 0.11600
C 	C 	0.43190 0.98760 0.80040 0.37600
C 	C 	0.87430 0.66180 0.77850 -0.31700
H 	H 	0.91990 0.62460 0.76460 0.13400
H 	H 	0.89440 0.67780 0.84960 0.12000
C 	C 	0.75660 0.64390 0.77770 0.47000
C 	C 	0.02120 0.01590 0.81050 -0.23100
H 	H 	0.97770 0.02220 0.87580 0.10600
H 	H 	0.06550 0.05380 0.79850 0.10200
C 	C 	0.09830 0.96100 0.82650 0.39900
C 	C 	0.67990 0.66570 0.19100 -0.27900
H 	H 	0.64320 0.68350 0.12770 0.08800
H 	H 	0.64850 0.62400 0.20320 0.09900
C 	C 	0.80180 0.65950 0.16940 0.43800
C 	C 	0.09520 0.93210 0.16910 -0.24700
H 	H 	0.07260 0.90810 0.10570 0.10300
H 	H 	0.17670 0.93470 0.17010 0.09600
C 	C 	0.04620 0.99730 0.16350 0.35200
C 	C 	0.48050 0.01380 0.20260 -0.23500
H 	H 	0.52350 0.02410 0.13850 0.08200
H 	H 	0.43220 0.04950 0.21840 0.09400
C 	C 	0.40890 0.95730 0.17910 0.39100
Eu	Eu	0.25692 0.04237 0.00388 2.04800
N 	N 	0.76140 0.86780 0.68110 -0.09300
N 	N 	0.45180 0.88570 0.70830 -0.11000
H 	H 	0.45300 0.91050 0.64800 0.09300
N 	N 	0.89890 0.71040 0.69650 -0.10400
H 	H 	0.86180 0.69970 0.63440 0.09700
N 	N 	0.94390 0.00690 0.71850 -0.08300
H 	H 	0.98430 0.99200 0.66140 0.06800
N 	N 	0.75560 0.87050 0.32140 -0.09200
N 	N 	0.65580 0.70600 0.28560 -0.10800
H 	H 	0.70250 0.69440 0.34080 0.09600
N 	N 	0.05640 0.90050 0.26620 -0.10900
H 	H 	0.05650 0.92950 0.32070 0.09100
N 	N 	0.55820 0.00430 0.29350 -0.08400
H 	H 	0.51880 0.98830 0.35030 0.07400
O 	O 	0.37730 0.02080 0.86650 -0.49100
O 	O 	0.50700 0.00590 0.74490 -0.27200
O 	O 	0.69060 0.66980 0.71790 -0.32300
O 	O 	0.73200 0.60210 0.84520 -0.54400
O 	O 	0.08890 0.91440 0.76990 -0.29900
O 	O 	0.16380 0.96750 0.90440 -0.50100
O 	O 	0.86990 0.68700 0.22320 -0.30900
O 	O 	0.82230 0.62222 0.09460 -0.52000
O 	O 	0.97420 0.01450 0.22180 -0.26800
O 	O 	0.08630 0.03020 0.08710 -0.44700
O 	O 	0.41670 0.91020 0.23450 -0.29500
O 	O 	0.34290 0.96440 0.10060 -0.52000
