data_crystal

_cell_length_a 12.18580
_cell_length_b 21.57730
_cell_length_c 12.55870
_cell_angle_alpha 90.00000
_cell_angle_beta  90.40600
_cell_angle_gamma 90.00000

_symmetry_space_group_name_	'P 1'
_symmetry_space_group_name_H-M	'P 1'

loop_
_symmetry_equiv_pos_as_xyz
  x,y,z

loop_
_atom_site_label
_atom_site_type_symbol
_atom_site_fract_x
_atom_site_fract_y
_atom_site_fract_z
_atom_site_charge
C 	C 	0.64700 0.61240 0.65080 -0.07600
H 	H 	0.62520 0.63440 0.58480 0.05500
H 	H 	0.64400 0.56730 0.63680 0.06600
C 	C 	0.57000 0.62850 0.73780 -0.05000
H 	H 	0.57430 0.67340 0.75310 0.05100
H 	H 	0.59050 0.60560 0.80330 0.05400
C 	C 	0.78790 0.69530 0.64680 -0.07500
H 	H 	0.71950 0.71890 0.63370 0.06600
H 	H 	0.83040 0.69420 0.57990 0.05500
C 	C 	0.85410 0.72560 0.73340 -0.05400
H 	H 	0.91780 0.69910 0.75200 0.05600
H 	H 	0.80850 0.73040 0.79780 0.05200
C 	C 	0.84390 0.58580 0.65350 -0.05700
H 	H 	0.91500 0.60680 0.64140 0.06000
H 	H 	0.82220 0.56410 0.58720 0.05000
C 	C 	0.85440 0.54030 0.74340 -0.07100
H 	H 	0.78400 0.51830 0.75400 0.06000
H 	H 	0.87400 0.56210 0.81020 0.06200
C 	C 	0.74040 0.69410 0.34970 -0.06600
H 	H 	0.81170 0.71520 0.36080 0.06200
H 	H 	0.69820 0.69690 0.41660 0.05200
C 	C 	0.67750 0.72550 0.26050 -0.06200
H 	H 	0.71990 0.72220 0.19380 0.06000
H 	H 	0.60660 0.70400 0.24950 0.05900
C 	C 	0.86920 0.60660 0.34780 -0.06800
H 	H 	0.86730 0.56130 0.35980 0.06300
H 	H 	0.89660 0.62670 0.41370 0.05300
C 	C 	0.94480 0.62160 0.25550 -0.05800
H 	H 	0.94690 0.66700 0.24460 0.06100
H 	H 	0.91560 0.60230 0.18960 0.06100
C 	C 	0.67070 0.58750 0.35330 -0.06500
H 	H 	0.60290 0.61150 0.36670 0.06100
H 	H 	0.69120 0.56540 0.41950 0.05200
C 	C 	0.65050 0.54080 0.26350 -0.06300
H 	H 	0.63040 0.56330 0.19760 0.06100
H 	H 	0.71900 0.51750 0.24990 0.05900
C 	C 	0.38510 0.66990 0.68200 -0.13100
H 	H 	0.30840 0.65740 0.66740 0.07300
H 	H 	0.38550 0.69720 0.74540 0.06900
C 	C 	0.42920 0.70500 0.58780 0.05900
C 	C 	0.48870 0.75750 0.60110 -0.07500
H 	H 	0.50350 0.77210 0.67110 0.06400
C 	C 	0.52900 0.79110 0.51360 -0.06400
H 	H 	0.57360 0.82670 0.52420 0.06200
C 	C 	0.50220 0.77100 0.41080 0.05000
C 	C 	0.43820 0.71750 0.39670 -0.06800
H 	H 	0.41930 0.70380 0.32700 0.06400
C 	C 	0.40250 0.68450 0.48530 -0.06700
H 	H 	0.35980 0.64800 0.47610 0.05500
C 	C 	0.54290 0.80760 0.31530 -0.11700
H 	H 	0.49360 0.79920 0.25390 0.06500
H 	H 	0.53790 0.85230 0.33170 0.06900
C 	C 	0.01430 0.78930 0.67500 -0.13400
H 	H 	0.03820 0.83270 0.66490 0.07300
H 	H 	0.05390 0.77260 0.73780 0.07300
C 	C 	0.04550 0.75320 0.58080 0.06600
C 	C 	0.08930 0.69490 0.59020 -0.08700
H 	H 	0.09980 0.67750 0.65900 0.07400
C 	C 	0.11830 0.66100 0.50200 -0.05900
H 	H 	0.14690 0.62040 0.51070 0.05000
C 	C 	0.10620 0.68560 0.40070 0.05300
C 	C 	0.06490 0.74420 0.39010 -0.06900
H 	H 	0.05770 0.76210 0.32120 0.06300
C 	C 	0.03340 0.77820 0.47960 -0.07200
H 	H 	0.00360 0.81860 0.47100 0.05600
C 	C 	0.14020 0.65020 0.30290 -0.12800
H 	H 	0.21450 0.63270 0.31450 0.07600
H 	H 	0.14380 0.67900 0.24160 0.07200
C 	C 	0.89640 0.43030 0.68780 -0.12300
H 	H 	0.85290 0.41690 0.74990 0.06900
H 	H 	0.95530 0.39940 0.67690 0.07100
C 	C 	0.82250 0.43090 0.59020 0.05000
C 	C 	0.86440 0.43280 0.48770 -0.06200
H 	H 	0.94150 0.43380 0.47730 0.05200
C 	C 	0.79380 0.43330 0.40040 -0.07800
H 	H 	0.82290 0.43430 0.33050 0.06900
C 	C 	0.67870 0.43230 0.41520 0.06000
C 	C 	0.64040 0.42990 0.51810 -0.07000
H 	H 	0.56340 0.42910 0.52940 0.05900
C 	C 	0.70990 0.42860 0.60550 -0.06500
H 	H 	0.68080 0.42610 0.67540 0.06200
C 	C 	0.60460 0.43230 0.32120 -0.12900
H 	H 	0.54210 0.40430 0.33560 0.07100
H 	H 	0.64490 0.41520 0.25960 0.06700
C 	C 	0.39500 0.57560 0.79200 -0.31300
H 	H 	0.40800 0.59590 0.86160 0.12100
H 	H 	0.31510 0.57650 0.77710 0.13300
C 	C 	0.43190 0.51090 0.79770 0.45100
C 	C 	0.86770 0.83660 0.78060 -0.31700
H 	H 	0.88760 0.81980 0.85150 0.11800
H 	H 	0.91330 0.87380 0.76820 0.13700
C 	C 	0.75020 0.85520 0.78130 0.47900
C 	C 	0.02600 0.48340 0.80310 -0.26200
H 	H 	0.07020 0.44570 0.78990 0.10400
H 	H 	0.98330 0.47640 0.86880 0.10700
C 	C 	0.10350 0.53820 0.82090 0.42400
C 	C 	0.68310 0.83330 0.18980 -0.28700
H 	H 	0.64770 0.81530 0.12570 0.09000
H 	H 	0.65090 0.87490 0.20120 0.10100
C 	C 	0.80250 0.84060 0.16900 0.43900
C 	C 	0.10370 0.56520 0.17780 -0.26300
H 	H 	0.18440 0.56060 0.18300 0.10500
H 	H 	0.08640 0.59020 0.11370 0.10700
C 	C 	0.04940 0.50040 0.16810 0.41400
C 	C 	0.48050 0.48720 0.19970 -0.27500
H 	H 	0.52240 0.47660 0.13500 0.08800
H 	H 	0.43170 0.45180 0.21580 0.10200
C 	C 	0.41070 0.54330 0.17670 0.42000
Eu	Eu	0.25718 0.45812 0.00340 2.02800
N 	N 	0.76140 0.63070 0.68210 -0.09000
N 	N 	0.45540 0.61170 0.70500 -0.10600
H 	H 	0.45810 0.58750 0.64370 0.09700
N 	N 	0.89420 0.78880 0.69720 -0.10300
H 	H 	0.85700 0.79930 0.63490 0.09900
N 	N 	0.94840 0.49230 0.71260 -0.10800
H 	H 	0.98610 0.50660 0.65340 0.09300
N 	N 	0.75870 0.62920 0.32240 -0.09000
N 	N 	0.65620 0.79310 0.28430 -0.10700
H 	H 	0.70220 0.80480 0.34020 0.09700
N 	N 	0.06060 0.59780 0.27690 -0.11200
H 	H 	0.05920 0.57000 0.33330 0.09500
N 	N 	0.55990 0.49570 0.29120 -0.10800
H 	H 	0.52160 0.51140 0.34900 0.09700
O 	O 	0.37540 0.47760 0.86370 -0.52800
O 	O 	0.50910 0.49250 0.74250 -0.31300
O 	O 	0.68730 0.83000 0.71800 -0.32500
O 	O 	0.72770 0.89900 0.84440 -0.54800
O 	O 	0.09460 0.58470 0.76530 -0.30600
O 	O 	0.16530 0.53270 0.90250 -0.49100
O 	O 	0.87140 0.81260 0.22410 -0.30200
O 	O 	0.82180 0.87730 0.09340 -0.52200
O 	O 	0.97960 0.48280 0.23050 -0.30200
O 	O 	0.08890 0.46950 0.09090 -0.48400
O 	O 	0.41950 0.59070 0.23160 -0.30000
O 	O 	0.34450 0.53630 0.09800 -0.51500
C 	C 	0.35300 0.11240 0.34920 -0.07300
H 	H 	0.37480 0.13440 0.41520 0.05300
H 	H 	0.35600 0.06730 0.36320 0.05900
C 	C 	0.43000 0.12850 0.26220 -0.05200
H 	H 	0.42570 0.17340 0.24690 0.05200
H 	H 	0.40950 0.10560 0.19670 0.05100
C 	C 	0.21210 0.19530 0.35320 -0.07500
H 	H 	0.28050 0.21890 0.36630 0.06600
H 	H 	0.16960 0.19420 0.42010 0.05400
C 	C 	0.14590 0.22560 0.26660 -0.05400
H 	H 	0.08220 0.19910 0.24800 0.05500
H 	H 	0.19150 0.23040 0.20220 0.05200
C 	C 	0.15610 0.08580 0.34650 -0.04600
H 	H 	0.08500 0.10680 0.35860 0.05500
H 	H 	0.17780 0.06410 0.41280 0.04200
C 	C 	0.14560 0.04030 0.25660 -0.09400
H 	H 	0.21600 0.01830 0.24600 0.05500
H 	H 	0.12600 0.06210 0.18980 0.06200
C 	C 	0.25960 0.19410 0.65030 -0.06500
H 	H 	0.18830 0.21520 0.63920 0.06100
H 	H 	0.30180 0.19690 0.58340 0.05100
C 	C 	0.32250 0.22550 0.73950 -0.06200
H 	H 	0.28010 0.22220 0.80620 0.05900
H 	H 	0.39340 0.20400 0.75050 0.05900
C 	C 	0.13080 0.10660 0.65220 -0.06300
H 	H 	0.13270 0.06130 0.64020 0.05500
H 	H 	0.10340 0.12670 0.58630 0.05000
C 	C 	0.05520 0.12160 0.74450 -0.06300
H 	H 	0.05310 0.16700 0.75540 0.06200
H 	H 	0.08440 0.10230 0.81040 0.05900
C 	C 	0.32930 0.08750 0.64670 -0.05500
H 	H 	0.39710 0.11150 0.63330 0.05700
H 	H 	0.30880 0.06540 0.58050 0.04400
C 	C 	0.34950 0.04080 0.73650 -0.08600
H 	H 	0.36960 0.06330 0.80240 0.06200
H 	H 	0.28100 0.01750 0.75010 0.05600
C 	C 	0.61490 0.16990 0.31800 -0.13000
H 	H 	0.69160 0.15740 0.33260 0.07200
H 	H 	0.61450 0.19720 0.25460 0.06900
C 	C 	0.57080 0.20500 0.41220 0.05900
C 	C 	0.51130 0.25750 0.39890 -0.07500
H 	H 	0.49650 0.27210 0.32890 0.06400
C 	C 	0.47100 0.29110 0.48640 -0.06300
H 	H 	0.42640 0.32670 0.47580 0.06000
C 	C 	0.49780 0.27100 0.58920 0.04900
C 	C 	0.56180 0.21750 0.60330 -0.06800
H 	H 	0.58070 0.20380 0.67300 0.06400
C 	C 	0.59750 0.18450 0.51470 -0.06700
H 	H 	0.64020 0.14800 0.52390 0.05400
C 	C 	0.45710 0.30760 0.68470 -0.11600
H 	H 	0.50640 0.29920 0.74610 0.06400
H 	H 	0.46210 0.35230 0.66830 0.06800
C 	C 	0.98570 0.28930 0.32500 -0.13100
H 	H 	0.96180 0.33270 0.33510 0.07200
H 	H 	0.94610 0.27260 0.26220 0.07300
C 	C 	0.95450 0.25320 0.41920 0.06600
C 	C 	0.91070 0.19490 0.40980 -0.08600
H 	H 	0.90020 0.17750 0.34100 0.07400
C 	C 	0.88170 0.16100 0.49800 -0.05800
H 	H 	0.85310 0.12040 0.48930 0.04800
C 	C 	0.89380 0.18560 0.59930 0.05300
C 	C 	0.93510 0.24420 0.60990 -0.06800
H 	H 	0.94230 0.26210 0.67880 0.06300
C 	C 	0.96660 0.27820 0.52040 -0.07100
H 	H 	0.99640 0.31860 0.52900 0.05600
C 	C 	0.85980 0.15020 0.69710 -0.12700
H 	H 	0.78550 0.13270 0.68550 0.07500
H 	H 	0.85620 0.17900 0.75840 0.07200
C 	C 	0.10360 0.93030 0.31220 -0.12300
H 	H 	0.14710 0.91690 0.25010 0.07100
H 	H 	0.04470 0.89940 0.32310 0.07200
C 	C 	0.17750 0.93090 0.40980 0.05700
C 	C 	0.13560 0.93280 0.51230 -0.06100
H 	H 	0.05850 0.93380 0.52270 0.05600
C 	C 	0.20620 0.93330 0.59960 -0.07400
H 	H 	0.17710 0.93430 0.66950 0.07100
C 	C 	0.32130 0.93230 0.58480 0.06600
C 	C 	0.35960 0.92990 0.48190 -0.06800
H 	H 	0.43660 0.92910 0.47060 0.06300
C 	C 	0.29010 0.92860 0.39450 -0.06300
H 	H 	0.31920 0.92610 0.32460 0.06400
C 	C 	0.39540 0.93230 0.67880 -0.12900
H 	H 	0.45790 0.90430 0.66440 0.07300
H 	H 	0.35510 0.91520 0.74040 0.06900
C 	C 	0.60500 0.07560 0.20800 -0.27900
H 	H 	0.59200 0.09590 0.13840 0.10900
H 	H 	0.68490 0.07650 0.22290 0.12100
C 	C 	0.56810 0.01090 0.20230 0.37300
C 	C 	0.13230 0.33660 0.21940 -0.31600
H 	H 	0.11240 0.31980 0.14850 0.11800
H 	H 	0.08670 0.37380 0.23180 0.13500
C 	C 	0.24980 0.35520 0.21870 0.47700
C 	C 	0.97400 0.98340 0.19690 -0.22500
H 	H 	0.92980 0.94570 0.21010 0.09900
H 	H 	0.01670 0.97640 0.13120 0.10300
C 	C 	0.89650 0.03820 0.17910 0.39700
C 	C 	0.31690 0.33330 0.81020 -0.28700
H 	H 	0.35230 0.31530 0.87430 0.09000
H 	H 	0.34910 0.37490 0.79880 0.10000
C 	C 	0.19750 0.34060 0.83100 0.43700
C 	C 	0.89630 0.06520 0.82220 -0.24100
H 	H 	0.81560 0.06060 0.81700 0.09500
H 	H 	0.91360 0.09020 0.88630 0.10000
C 	C 	0.95060 0.00040 0.83190 0.35300
C 	C 	0.51950 0.98720 0.80030 -0.24500
H 	H 	0.47760 0.97660 0.86500 0.08500
H 	H 	0.56830 0.95180 0.78420 0.09800
C 	C 	0.58930 0.04330 0.82330 0.39700
Eu	Eu	0.74282 0.95812 0.99660 2.05000
N 	N 	0.23860 0.13070 0.31790 -0.09200
N 	N 	0.54460 0.11170 0.29500 -0.11000
H 	H 	0.54190 0.08750 0.35630 0.09300
N 	N 	0.10580 0.28880 0.30280 -0.10400
H 	H 	0.14300 0.29930 0.36510 0.09800
N 	N 	0.05160 0.99230 0.28740 -0.08400
H 	H 	0.01390 0.00660 0.34660 0.06800
N 	N 	0.24130 0.12920 0.67760 -0.09200
N 	N 	0.34380 0.29310 0.71570 -0.10700
H 	H 	0.29780 0.30480 0.65980 0.09600
N 	N 	0.93940 0.09780 0.72310 -0.11300
H 	H 	0.94080 0.07000 0.66670 0.09200
N 	N 	0.44010 0.99570 0.70880 -0.08300
H 	H 	0.47840 0.01140 0.65100 0.07400
O 	O 	0.62460 0.97760 0.13630 -0.49000
O 	O 	0.49090 0.99250 0.25750 -0.26800
O 	O 	0.31270 0.33000 0.28200 -0.32600
O 	O 	0.27230 0.39900 0.15560 -0.54900
O 	O 	0.90540 0.08470 0.23470 -0.30100
O 	O 	0.83470 0.03270 0.09750 -0.50000
O 	O 	0.12860 0.31260 0.77590 -0.30300
O 	O 	0.17820 0.37730 0.90660 -0.52200
O 	O 	0.02040 0.98280 0.76950 -0.26600
O 	O 	0.91110 0.96950 0.90910 -0.45300
O 	O 	0.58050 0.09070 0.76840 -0.29600
O 	O 	0.65550 0.03630 0.90200 -0.52100
