data_crystal

_cell_length_a 15.11540
_cell_length_b 8.72690
_cell_length_c 16.16750
_cell_angle_alpha 90.00000
_cell_angle_beta  108.15600
_cell_angle_gamma 90.00000

_symmetry_space_group_name_	'P 1'
_symmetry_space_group_name_H-M	'P 1'

loop_
_symmetry_equiv_pos_as_xyz
  x,y,z

loop_
_atom_site_label
_atom_site_type_symbol
_atom_site_fract_x
_atom_site_fract_y
_atom_site_fract_z
_atom_site_charge
Zn	Zn	0.36570 0.37073 0.48484 1.23200
P 	P 	0.15444 0.38850 0.37817 0.45100
H 	H 	0.11470 0.52480 0.36620 -0.03800
P 	P 	0.98403 0.90830 0.11747 0.56600
H 	H 	0.97470 0.80300 0.17280 -0.01300
O 	O 	0.25570 0.41520 0.38580 -0.42500
O 	O 	0.13930 0.32460 0.45920 -0.48900
O 	O 	0.10810 0.29750 0.29480 -0.45600
O 	O 	0.04280 0.03620 0.17280 -0.53300
O 	O 	0.03210 0.83100 0.06040 -0.52000
O 	O 	0.88610 0.96210 0.06840 -0.45200
Zn	Zn	0.86570 0.87073 0.48484 1.23500
P 	P 	0.65444 0.88850 0.37817 0.45200
H 	H 	0.61470 0.02480 0.36620 -0.02200
P 	P 	0.48403 0.40830 0.11747 0.43400
H 	H 	0.47470 0.30300 0.17280 -0.02800
O 	O 	0.75570 0.91520 0.38580 -0.41600
O 	O 	0.63930 0.82460 0.45920 -0.47400
O 	O 	0.60810 0.79750 0.29480 -0.43400
O 	O 	0.54280 0.53620 0.17280 -0.45600
O 	O 	0.53210 0.33100 0.06040 -0.43700
O 	O 	0.38610 0.46210 0.06840 -0.45100
Zn	Zn	0.63430 0.37073 0.01516 1.23400
P 	P 	0.84556 0.38850 0.12183 0.45400
H 	H 	0.88530 0.52480 0.13380 -0.00600
P 	P 	0.01597 0.90830 0.38253 0.30200
H 	H 	0.02530 0.80300 0.32720 -0.04100
O 	O 	0.74430 0.41520 0.11420 -0.41700
O 	O 	0.86070 0.32460 0.04080 -0.45500
O 	O 	0.89190 0.29750 0.20520 -0.40400
O 	O 	0.95720 0.03620 0.32720 -0.37000
O 	O 	0.96790 0.83100 0.43960 -0.35600
O 	O 	0.11390 0.96210 0.43160 -0.44800
Zn	Zn	0.13430 0.87073 0.01516 1.23000
P 	P 	0.34556 0.88850 0.12183 0.45200
H 	H 	0.38530 0.02480 0.13380 -0.02300
P 	P 	0.51597 0.40830 0.38253 0.43400
H 	H 	0.52530 0.30300 0.32720 -0.02700
O 	O 	0.24430 0.91520 0.11420 -0.42600
O 	O 	0.36070 0.82460 0.04080 -0.47300
O 	O 	0.39190 0.79750 0.20520 -0.43800
O 	O 	0.45720 0.53620 0.32720 -0.45900
O 	O 	0.46790 0.33100 0.43960 -0.44000
O 	O 	0.61390 0.46210 0.43160 -0.44900
Zn	Zn	0.63430 0.62927 0.51516 1.23200
P 	P 	0.84556 0.61150 0.62183 0.45400
H 	H 	0.88530 0.47520 0.63380 -0.00700
P 	P 	0.01597 0.09170 0.88253 0.30500
H 	H 	0.02530 0.19700 0.82720 -0.04100
O 	O 	0.74430 0.58480 0.61420 -0.41900
O 	O 	0.86070 0.67540 0.54080 -0.45900
O 	O 	0.89190 0.70250 0.70520 -0.40500
O 	O 	0.95720 0.96380 0.82720 -0.37200
O 	O 	0.96790 0.16900 0.93960 -0.36000
O 	O 	0.11390 0.03790 0.93160 -0.45000
Zn	Zn	0.13430 0.12927 0.51516 1.22800
P 	P 	0.34556 0.11150 0.62183 0.45200
H 	H 	0.38530 0.97520 0.63380 -0.02400
P 	P 	0.51597 0.59170 0.88253 0.43400
H 	H 	0.52530 0.69700 0.82720 -0.02800
O 	O 	0.24430 0.08480 0.61420 -0.42800
O 	O 	0.36070 0.17540 0.54080 -0.47600
O 	O 	0.39190 0.20250 0.70520 -0.43800
O 	O 	0.45720 0.46380 0.82720 -0.46000
O 	O 	0.46790 0.66900 0.93960 -0.44200
O 	O 	0.61390 0.53790 0.93160 -0.45200
Zn	Zn	0.36570 0.62927 0.98484 1.23000
P 	P 	0.15444 0.61150 0.87817 0.45000
H 	H 	0.11470 0.47520 0.86620 -0.03900
P 	P 	0.98403 0.09170 0.61747 0.56500
H 	H 	0.97470 0.19700 0.67280 -0.01400
O 	O 	0.25570 0.58480 0.88580 -0.42600
O 	O 	0.13930 0.67540 0.95920 -0.49100
O 	O 	0.10810 0.70250 0.79480 -0.45700
O 	O 	0.04280 0.96380 0.67280 -0.53400
O 	O 	0.03210 0.16900 0.56040 -0.52300
O 	O 	0.88610 0.03790 0.56840 -0.45400
Zn	Zn	0.86570 0.12927 0.98484 1.23300
P 	P 	0.65444 0.11150 0.87817 0.45200
H 	H 	0.61470 0.97520 0.86620 -0.02300
P 	P 	0.48403 0.59170 0.61747 0.43400
H 	H 	0.47470 0.69700 0.67280 -0.02800
O 	O 	0.75570 0.08480 0.88580 -0.41800
O 	O 	0.63930 0.17540 0.95920 -0.47800
O 	O 	0.60810 0.20250 0.79480 -0.43500
O 	O 	0.54280 0.46380 0.67280 -0.45700
O 	O 	0.53210 0.66900 0.56040 -0.44000
O 	O 	0.38610 0.53790 0.56840 -0.45400
Zn	Zn	0.00000 0.16565 0.25000 1.20100
Zn	Zn	0.50000 0.66565 0.25000 1.23000
Zn	Zn	0.00000 0.83435 0.75000 1.20200
Zn	Zn	0.50000 0.33435 0.75000 1.23000
