data_crystal

_cell_length_a 11.84010
_cell_length_b 6.82400
_cell_length_c 17.46190
_cell_angle_alpha 90.00000
_cell_angle_beta  93.81600
_cell_angle_gamma 90.00000

_symmetry_space_group_name_	'P 1'
_symmetry_space_group_name_H-M	'P 1'

loop_
_symmetry_equiv_pos_as_xyz
  x,y,z

loop_
_atom_site_label
_atom_site_type_symbol
_atom_site_fract_x
_atom_site_fract_y
_atom_site_fract_z
_atom_site_charge
N 	N 	0.61500 0.80800 0.10880 0.06000
N 	N 	0.57590 0.07640 0.17890 -0.23800
O 	O 	0.60100 0.46200 0.28430 -0.38600
O 	O 	0.68800 0.23200 0.35480 -0.17400
C 	C 	0.67700 0.40300 0.33300 0.27300
C 	C 	0.75000 0.56000 0.37000 -0.08800
C 	C 	0.75700 0.75000 0.34800 -0.10400
H 	H 	0.71220 0.79970 0.30580 0.00600
C 	C 	0.83000 0.88100 0.38800 -0.18200
H 	H 	0.83500 0.01110 0.37350 0.10900
C 	C 	0.90000 0.81000 0.45100 0.09200
C 	C 	0.89000 0.61900 0.47300 -0.00100
H 	H 	0.93480 0.57360 0.51470 -0.00900
C 	C 	0.81800 0.49500 0.43200 0.15100
H 	H 	0.81410 0.36390 0.44710 -0.01400
C 	C 	0.98100 0.92700 0.50100 -0.05700
H 	H 	0.00550 0.85760 0.54520 0.04700
C 	C 	0.54100 0.88700 0.15850 -0.17200
H 	H 	0.47710 0.82460 0.17550 0.08300
C 	C 	0.67400 0.11600 0.14200 -0.00100
H 	H 	0.71580 0.23160 0.14530 0.01800
C 	C 	0.70000 0.95000 0.10000 0.06700
H 	H 	0.75990 0.93510 0.06760 0.02400
C 	C 	0.59800 0.61000 0.07710 -0.63700
H 	H 	0.66690 0.57050 0.05390 0.19300
H 	H 	0.58750 0.52010 0.11920 0.22500
C 	C 	0.50700 0.58800 0.02200 -0.04700
H 	H 	0.51010 0.69590 0.98640 -0.35100
H 	H 	0.43790 0.60500 0.04870 -0.01700
N 	N 	0.57000 0.89000 0.07200 -0.23300
O 	O 	0.61800 0.33500 0.32300 -0.40800
O 	O 	0.65700 0.52800 0.23300 -0.22000
C 	C 	0.67300 0.47300 0.30100 0.39700
C 	C 	0.50300 0.97100 0.12700 0.24700
H 	H 	0.42560 0.95630 0.12980 -0.05500
C 	C 	0.69000 0.06000 0.15600 -0.00700
H 	H 	0.75050 0.12050 0.18020 0.02300
C 	C 	0.68000 0.95000 0.09000 -0.04200
H 	H 	0.74350 0.91480 0.06020 -0.00200
C 	C 	0.52000 0.76800 0.00900 0.78600
H 	H 	0.44030 0.80040 0.00060 -0.15500
H 	H 	0.55590 0.80120 0.96200 -0.11700
C 	C 	0.53000 0.61000 0.01900 -0.03700
H 	H 	0.51530 0.59650 0.07280 0.22400
H 	H 	0.60900 0.58720 0.01600 0.12700
C 	C 	0.95700 0.02000 0.47100 -0.02800
H 	H 	0.94500 0.15350 0.45740 0.00600
C 	C 	0.86200 0.69000 0.46800 -0.16500
H 	H 	0.89290 0.66280 0.51740 0.08100
C 	C 	0.75000 0.60000 0.35000 -0.05800
C 	C 	0.88000 0.87000 0.43300 0.05200
C 	C 	0.79300 0.55000 0.42800 -0.07300
H 	H 	0.77730 0.43580 0.45090 -0.00700
C 	C 	0.84000 0.91000 0.36000 0.02100
H 	H 	0.85560 0.02890 0.33760 -0.02800
C 	C 	0.77200 0.77000 0.32100 0.18700
H 	H 	0.74140 0.80190 0.27170 -0.01600
N 	N 	0.38500 0.80800 0.39120 0.05700
N 	N 	0.42410 0.07640 0.32110 -0.23800
O 	O 	0.39900 0.46200 0.21570 -0.38600
O 	O 	0.31200 0.23200 0.14520 -0.17400
C 	C 	0.32300 0.40300 0.16700 0.27300
C 	C 	0.25000 0.56000 0.13000 -0.08800
C 	C 	0.24300 0.75000 0.15200 -0.10400
H 	H 	0.28780 0.79970 0.19420 0.00500
C 	C 	0.17000 0.88100 0.11200 -0.18300
H 	H 	0.16500 0.01110 0.12650 0.11000
C 	C 	0.10000 0.81000 0.04900 0.09400
C 	C 	0.11000 0.61900 0.02700 -0.00200
H 	H 	0.06520 0.57360 0.98530 -0.00900
C 	C 	0.18200 0.49500 0.06800 0.15200
H 	H 	0.18590 0.36390 0.05290 -0.01400
C 	C 	0.01900 0.92700 0.99900 -0.05300
H 	H 	0.99450 0.85760 0.95480 0.04600
C 	C 	0.45900 0.88700 0.34150 -0.16200
H 	H 	0.52290 0.82460 0.32450 0.08000
C 	C 	0.32600 0.11600 0.35800 -0.00200
H 	H 	0.28420 0.23160 0.35470 0.01800
C 	C 	0.30000 0.95000 0.40000 0.06700
H 	H 	0.24010 0.93510 0.43240 0.02400
C 	C 	0.40200 0.61000 0.42290 -0.63200
H 	H 	0.33310 0.57050 0.44610 0.19100
H 	H 	0.41250 0.52010 0.38080 0.22300
C 	C 	0.49300 0.58800 0.47800 -0.04700
H 	H 	0.48990 0.69590 0.51360 -0.34600
H 	H 	0.56210 0.60500 0.45130 -0.01700
N 	N 	0.43000 0.89000 0.42800 -0.23000
O 	O 	0.38200 0.33500 0.17700 -0.40800
O 	O 	0.34300 0.52800 0.26700 -0.22000
C 	C 	0.32700 0.47300 0.19900 0.39700
C 	C 	0.49700 0.97100 0.37300 0.23700
H 	H 	0.57440 0.95630 0.37020 -0.05100
C 	C 	0.31000 0.06000 0.34400 -0.00700
H 	H 	0.24950 0.12050 0.31980 0.02300
C 	C 	0.32000 0.95000 0.41000 -0.04100
H 	H 	0.25650 0.91480 0.43980 -0.00100
C 	C 	0.48000 0.76800 0.49100 0.77600
H 	H 	0.55970 0.80040 0.49940 -0.15200
H 	H 	0.44410 0.80120 0.53800 -0.11500
C 	C 	0.47000 0.61000 0.48100 -0.03800
H 	H 	0.48470 0.59650 0.42720 0.22300
H 	H 	0.39100 0.58720 0.48400 0.12700
C 	C 	0.04300 0.02000 0.02900 -0.03100
H 	H 	0.05500 0.15350 0.04260 0.00700
C 	C 	0.13800 0.69000 0.03200 -0.16400
H 	H 	0.10710 0.66280 0.98260 0.08100
C 	C 	0.25000 0.60000 0.15000 -0.05800
C 	C 	0.12000 0.87000 0.06700 0.05000
C 	C 	0.20700 0.55000 0.07200 -0.07200
H 	H 	0.22270 0.43580 0.04910 -0.00700
C 	C 	0.16000 0.91000 0.14000 0.02200
H 	H 	0.14440 0.02890 0.16240 -0.02800
C 	C 	0.22800 0.77000 0.17900 0.18800
H 	H 	0.25860 0.80190 0.22830 -0.01600
N 	N 	0.38500 0.19200 0.89120 0.06000
N 	N 	0.42410 0.92360 0.82110 -0.23800
O 	O 	0.39900 0.53800 0.71570 -0.38600
O 	O 	0.31200 0.76800 0.64520 -0.17400
C 	C 	0.32300 0.59700 0.66700 0.27300
C 	C 	0.25000 0.44000 0.63000 -0.08800
C 	C 	0.24300 0.25000 0.65200 -0.10400
H 	H 	0.28780 0.20030 0.69420 0.00600
C 	C 	0.17000 0.11900 0.61200 -0.18200
H 	H 	0.16500 0.98890 0.62650 0.10900
C 	C 	0.10000 0.19000 0.54900 0.09200
C 	C 	0.11000 0.38100 0.52700 -0.00100
H 	H 	0.06520 0.42640 0.48530 -0.00900
C 	C 	0.18200 0.50500 0.56800 0.15100
H 	H 	0.18590 0.63610 0.55290 -0.01400
C 	C 	0.01900 0.07300 0.49900 -0.05700
H 	H 	0.99450 0.14240 0.45480 0.04700
C 	C 	0.45900 0.11300 0.84150 -0.17200
H 	H 	0.52290 0.17540 0.82450 0.08300
C 	C 	0.32600 0.88400 0.85800 -0.00100
H 	H 	0.28420 0.76840 0.85470 0.01800
C 	C 	0.30000 0.05000 0.90000 0.06700
H 	H 	0.24010 0.06490 0.93240 0.02400
C 	C 	0.40200 0.39000 0.92290 -0.63700
H 	H 	0.33310 0.42950 0.94610 0.19300
H 	H 	0.41250 0.47990 0.88080 0.22500
C 	C 	0.49300 0.41200 0.97800 -0.04700
H 	H 	0.48990 0.30410 0.01360 -0.35100
H 	H 	0.56210 0.39500 0.95130 -0.01700
N 	N 	0.43000 0.11000 0.92800 -0.23300
O 	O 	0.38200 0.66500 0.67700 -0.40800
O 	O 	0.34300 0.47200 0.76700 -0.22000
C 	C 	0.32700 0.52700 0.69900 0.39700
C 	C 	0.49700 0.02900 0.87300 0.24700
H 	H 	0.57440 0.04370 0.87020 -0.05500
C 	C 	0.31000 0.94000 0.84400 -0.00700
H 	H 	0.24950 0.87950 0.81980 0.02300
C 	C 	0.32000 0.05000 0.91000 -0.04200
H 	H 	0.25650 0.08520 0.93980 -0.00200
C 	C 	0.48000 0.23200 0.99100 0.78600
H 	H 	0.55970 0.19960 0.99940 -0.15500
H 	H 	0.44410 0.19880 0.03800 -0.11700
C 	C 	0.47000 0.39000 0.98100 -0.03700
H 	H 	0.48470 0.40350 0.92720 0.22400
H 	H 	0.39100 0.41280 0.98400 0.12700
C 	C 	0.04300 0.98000 0.52900 -0.02800
H 	H 	0.05500 0.84650 0.54260 0.00600
C 	C 	0.13800 0.31000 0.53200 -0.16500
H 	H 	0.10710 0.33720 0.48260 0.08100
C 	C 	0.25000 0.40000 0.65000 -0.05800
C 	C 	0.12000 0.13000 0.56700 0.05200
C 	C 	0.20700 0.45000 0.57200 -0.07300
H 	H 	0.22270 0.56420 0.54910 -0.00700
C 	C 	0.16000 0.09000 0.64000 0.02100
H 	H 	0.14440 0.97110 0.66240 -0.02800
C 	C 	0.22800 0.23000 0.67900 0.18700
H 	H 	0.25860 0.19810 0.72830 -0.01600
N 	N 	0.61500 0.19200 0.60880 0.05700
N 	N 	0.57590 0.92360 0.67890 -0.23800
O 	O 	0.60100 0.53800 0.78430 -0.38600
O 	O 	0.68800 0.76800 0.85480 -0.17400
C 	C 	0.67700 0.59700 0.83300 0.27300
C 	C 	0.75000 0.44000 0.87000 -0.08800
C 	C 	0.75700 0.25000 0.84800 -0.10400
H 	H 	0.71220 0.20030 0.80580 0.00500
C 	C 	0.83000 0.11900 0.88800 -0.18300
H 	H 	0.83500 0.98890 0.87350 0.11000
C 	C 	0.90000 0.19000 0.95100 0.09400
C 	C 	0.89000 0.38100 0.97300 -0.00200
H 	H 	0.93480 0.42640 0.01470 -0.00900
C 	C 	0.81800 0.50500 0.93200 0.15200
H 	H 	0.81410 0.63610 0.94710 -0.01400
C 	C 	0.98100 0.07300 0.00100 -0.05300
H 	H 	0.00550 0.14240 0.04520 0.04600
C 	C 	0.54100 0.11300 0.65850 -0.16200
H 	H 	0.47710 0.17540 0.67550 0.08000
C 	C 	0.67400 0.88400 0.64200 -0.00200
H 	H 	0.71580 0.76840 0.64530 0.01800
C 	C 	0.70000 0.05000 0.60000 0.06700
H 	H 	0.75990 0.06490 0.56760 0.02400
C 	C 	0.59800 0.39000 0.57710 -0.63200
H 	H 	0.66690 0.42950 0.55390 0.19100
H 	H 	0.58750 0.47990 0.61920 0.22300
C 	C 	0.50700 0.41200 0.52200 -0.04700
H 	H 	0.51010 0.30410 0.48640 -0.34600
H 	H 	0.43790 0.39500 0.54870 -0.01700
N 	N 	0.57000 0.11000 0.57200 -0.23000
O 	O 	0.61800 0.66500 0.82300 -0.40800
O 	O 	0.65700 0.47200 0.73300 -0.22000
C 	C 	0.67300 0.52700 0.80100 0.39700
C 	C 	0.50300 0.02900 0.62700 0.23700
H 	H 	0.42560 0.04370 0.62980 -0.05100
C 	C 	0.69000 0.94000 0.65600 -0.00700
H 	H 	0.75050 0.87950 0.68020 0.02300
C 	C 	0.68000 0.05000 0.59000 -0.04100
H 	H 	0.74350 0.08520 0.56020 -0.00100
C 	C 	0.52000 0.23200 0.50900 0.77600
H 	H 	0.44030 0.19960 0.50060 -0.15200
H 	H 	0.55590 0.19880 0.46200 -0.11500
C 	C 	0.53000 0.39000 0.51900 -0.03800
H 	H 	0.51530 0.40350 0.57280 0.22300
H 	H 	0.60900 0.41280 0.51600 0.12700
C 	C 	0.95700 0.98000 0.97100 -0.03100
H 	H 	0.94500 0.84650 0.95740 0.00700
C 	C 	0.86200 0.31000 0.96800 -0.16400
H 	H 	0.89290 0.33720 0.01740 0.08100
C 	C 	0.75000 0.40000 0.85000 -0.05800
C 	C 	0.88000 0.13000 0.93300 0.05000
C 	C 	0.79300 0.45000 0.92800 -0.07200
H 	H 	0.77730 0.56420 0.95090 -0.00700
C 	C 	0.84000 0.09000 0.86000 0.02200
H 	H 	0.85560 0.97110 0.83760 -0.02800
C 	C 	0.77200 0.23000 0.82100 0.18800
H 	H 	0.74140 0.19810 0.77170 -0.01600
Zn	Zn	0.50000 0.24990 0.25000 1.25500
Zn	Zn	0.50000 0.75010 0.75000 1.25500
