data_crystal

_cell_length_a 8.39500
_cell_length_b 9.56200
_cell_length_c 16.47500
_cell_angle_alpha 90.00000
_cell_angle_beta  90.00000
_cell_angle_gamma 90.00000

_symmetry_space_group_name_	'P 1'
_symmetry_space_group_name_H-M	'P 1'

loop_
_symmetry_equiv_pos_as_xyz
  x,y,z

loop_
_atom_site_label
_atom_site_type_symbol
_atom_site_fract_x
_atom_site_fract_y
_atom_site_fract_z
_atom_site_charge
Cd	Cd	0.61451 0.10452 0.93859 1.20700
Cd	Cd	0.38549 0.89548 0.43859 1.21100
Cd	Cd	0.11451 0.39548 0.93859 1.20800
Cd	Cd	0.88549 0.60452 0.43859 1.21200
H 	H 	0.64800 0.27060 0.53200 0.12800
H 	H 	0.57990 0.37630 0.46520 0.13800
H 	H 	0.52240 0.48980 0.59390 0.13100
H 	H 	0.64650 0.60930 0.61890 0.12000
H 	H 	0.93180 0.36180 0.58330 0.06200
H 	H 	0.90390 0.50780 0.62800 0.06000
H 	H 	0.62100 0.40280 0.85690 0.00100
H 	H 	0.72990 0.52100 0.74700 0.09500
H 	H 	0.79040 0.14760 0.63580 0.08300
H 	H 	0.68850 0.04000 0.75090 -0.01300
H 	H 	0.35200 0.72940 0.03200 0.15100
H 	H 	0.42010 0.62370 0.96520 0.14700
H 	H 	0.47760 0.51020 0.09390 0.13600
H 	H 	0.35350 0.39070 0.11890 0.12300
H 	H 	0.06820 0.63820 0.08330 0.06700
H 	H 	0.09610 0.49220 0.12800 0.06300
H 	H 	0.37900 0.59720 0.35690 0.00300
H 	H 	0.27010 0.47900 0.24700 0.09500
H 	H 	0.20960 0.85240 0.13580 0.08500
H 	H 	0.31150 0.96000 0.25090 -0.01300
H 	H 	0.14800 0.22940 0.53200 0.12800
H 	H 	0.07990 0.12370 0.46520 0.13900
H 	H 	0.02240 0.01020 0.59390 0.13100
H 	H 	0.14650 0.89070 0.61890 0.12000
H 	H 	0.43180 0.13820 0.58330 0.06300
H 	H 	0.40390 0.99220 0.62800 0.06100
H 	H 	0.12100 0.09720 0.85690 -0.00100
H 	H 	0.22990 0.97900 0.74700 0.09700
H 	H 	0.29040 0.35240 0.63580 0.08300
H 	H 	0.18850 0.46000 0.75090 -0.01300
H 	H 	0.85200 0.77060 0.03200 0.14500
H 	H 	0.92010 0.87630 0.96520 0.14600
H 	H 	0.97760 0.98980 0.09390 0.13000
H 	H 	0.85350 0.10930 0.11890 0.12000
H 	H 	0.56820 0.86180 0.08330 0.06600
H 	H 	0.59610 0.00780 0.12800 0.06500
H 	H 	0.87900 0.90280 0.35690 0.00200
H 	H 	0.77010 0.02100 0.24700 0.09700
H 	H 	0.70960 0.64760 0.13580 0.08500
H 	H 	0.81150 0.54000 0.25090 -0.01300
C 	C 	0.67760 0.34700 0.49430 -0.32200
C 	C 	0.79760 0.29166 0.43300 0.37800
C 	C 	0.60740 0.55200 0.57303 -0.30800
C 	C 	0.53760 0.64810 0.50848 0.38600
C 	C 	0.84930 0.42320 0.60732 -0.17700
C 	C 	0.65830 0.35030 0.81180 0.08200
C 	C 	0.72230 0.42190 0.74614 -0.18000
C 	C 	0.77490 0.34700 0.67918 0.14000
C 	C 	0.75890 0.20260 0.68111 -0.18000
C 	C 	0.69630 0.13910 0.74994 0.09200
C 	C 	0.32240 0.65300 0.99430 -0.37100
C 	C 	0.20240 0.70834 0.93300 0.38800
C 	C 	0.39260 0.44800 0.07303 -0.31800
C 	C 	0.46240 0.35190 0.00848 0.41200
C 	C 	0.15070 0.57680 0.10732 -0.18100
C 	C 	0.34170 0.64970 0.31180 0.08200
C 	C 	0.27770 0.57810 0.24614 -0.18100
C 	C 	0.22510 0.65300 0.17918 0.14200
C 	C 	0.24110 0.79740 0.18111 -0.18100
C 	C 	0.30370 0.86090 0.24994 0.09300
C 	C 	0.17760 0.15300 0.49430 -0.32200
C 	C 	0.29760 0.20834 0.43300 0.37800
C 	C 	0.10740 0.94800 0.57303 -0.30800
C 	C 	0.03760 0.85190 0.50848 0.38600
C 	C 	0.34930 0.07680 0.60732 -0.18000
C 	C 	0.15830 0.14970 0.81180 0.08300
C 	C 	0.22230 0.07810 0.74614 -0.18500
C 	C 	0.27490 0.15300 0.67918 0.14200
C 	C 	0.25890 0.29740 0.68111 -0.18100
C 	C 	0.19630 0.36090 0.74994 0.09200
C 	C 	0.82240 0.84700 0.99430 -0.35800
C 	C 	0.70240 0.79166 0.93300 0.38500
C 	C 	0.89260 0.05200 0.07303 -0.30700
C 	C 	0.96240 0.14810 0.00848 0.40200
C 	C 	0.65070 0.92320 0.10732 -0.18500
C 	C 	0.84170 0.85030 0.31180 0.08400
C 	C 	0.77770 0.92190 0.24614 -0.18500
C 	C 	0.72510 0.84700 0.17918 0.14400
C 	C 	0.74110 0.70260 0.18111 -0.18300
C 	C 	0.80370 0.63910 0.24994 0.09300
N 	N 	0.73860 0.46633 0.54182 -0.08600
N 	N 	0.64680 0.21050 0.81462 -0.24000
N 	N 	0.26140 0.53367 0.04182 -0.07100
N 	N 	0.35320 0.78950 0.31462 -0.24000
N 	N 	0.23860 0.03367 0.54182 -0.08500
N 	N 	0.14680 0.28950 0.81462 -0.24100
N 	N 	0.76140 0.96633 0.04182 -0.07600
N 	N 	0.85320 0.71050 0.31462 -0.24000
O 	O 	0.88500 0.37962 0.39641 -0.42100
O 	O 	0.80000 0.16397 0.41876 -0.29300
O 	O 	0.61182 0.67069 0.44502 -0.46400
O 	O 	0.40506 0.70524 0.52480 -0.42600
O 	O 	0.11500 0.62038 0.89641 -0.42700
O 	O 	0.20000 0.83603 0.91876 -0.30000
O 	O 	0.38818 0.32931 0.94502 -0.48300
O 	O 	0.59494 0.29476 0.02480 -0.42500
O 	O 	0.38500 0.12038 0.39641 -0.42100
O 	O 	0.30000 0.33603 0.41876 -0.29200
O 	O 	0.11182 0.82931 0.44502 -0.46400
O 	O 	0.90506 0.79476 0.52480 -0.42600
O 	O 	0.61500 0.87962 0.89641 -0.42400
O 	O 	0.70000 0.66397 0.91876 -0.29900
O 	O 	0.88818 0.17069 0.94502 -0.47900
O 	O 	0.09494 0.20524 0.02480 -0.41900
