data_crystal

_cell_length_a 13.41500
_cell_length_b 13.41500
_cell_length_c 19.34490
_cell_angle_alpha 110.28800
_cell_angle_beta  110.28800
_cell_angle_gamma 90.00000

_symmetry_space_group_name_	'P 1'
_symmetry_space_group_name_H-M	'P 1'

loop_
_symmetry_equiv_pos_as_xyz
  x,y,z

loop_
_atom_site_label
_atom_site_type_symbol
_atom_site_fract_x
_atom_site_fract_y
_atom_site_fract_z
_atom_site_charge
Cd	Cd	0.26808 0.44461 0.48964 1.21200
Cd	Cd	0.22156 0.04503 0.48964 1.20700
Cd	Cd	0.55539 0.77844 0.51036 1.21400
Cd	Cd	0.95497 0.73192 0.51036 1.20800
Cd	Cd	0.02844 0.30539 0.01036 1.22000
Cd	Cd	0.98192 0.70497 0.01036 1.20700
Cd	Cd	0.29503 0.97156 0.98964 1.22100
Cd	Cd	0.69461 0.01808 0.98964 1.20800
H 	H 	0.09800 0.70770 0.39880 0.12800
H 	H 	0.04270 0.59930 0.32380 0.14800
H 	H 	0.82270 0.57710 0.27420 0.11900
H 	H 	0.89290 0.51620 0.32840 0.10200
H 	H 	0.85400 0.78810 0.34460 0.09000
H 	H 	0.98040 0.82490 0.38840 0.06900
H 	H 	0.79900 0.68220 0.08120 -0.01700
H 	H 	0.77810 0.70490 0.19840 0.10800
H 	H 	0.09410 0.78150 0.31000 0.10100
H 	H 	0.10970 0.74260 0.18700 -0.03500
H 	H 	0.30080 0.69110 0.39880 0.12900
H 	H 	0.28110 0.72450 0.32380 0.14900
H 	H 	0.45150 0.69710 0.27420 0.12300
H 	H 	0.43550 0.81220 0.32840 0.11200
H 	H 	0.49060 0.55650 0.34460 0.09300
H 	H 	0.40800 0.56350 0.38840 0.07900
H 	H 	0.28220 0.39900 0.08120 -0.02000
H 	H 	0.42030 0.49350 0.19840 0.11300
H 	H 	0.21590 0.52850 0.31000 0.10800
H 	H 	0.07730 0.44440 0.18700 -0.03000
H 	H 	0.29230 0.69920 0.60120 0.13000
H 	H 	0.40070 0.71890 0.67620 0.14900
H 	H 	0.42290 0.54850 0.72580 0.12200
H 	H 	0.48380 0.56450 0.67160 0.11000
H 	H 	0.21190 0.50940 0.65540 0.09600
H 	H 	0.17510 0.59200 0.61160 0.08300
H 	H 	0.31780 0.71780 0.91880 -0.01900
H 	H 	0.29510 0.57970 0.80160 0.11400
H 	H 	0.21850 0.78410 0.69000 0.11100
H 	H 	0.25740 0.92270 0.81300 -0.02900
H 	H 	0.30890 0.90200 0.60120 0.12700
H 	H 	0.27550 0.95730 0.67620 0.14800
H 	H 	0.30290 0.17730 0.72580 0.12000
H 	H 	0.18780 0.10710 0.67160 0.10400
H 	H 	0.44350 0.14600 0.65540 0.08800
H 	H 	0.43650 0.01960 0.61160 0.06600
H 	H 	0.60100 0.20100 0.91880 -0.01700
H 	H 	0.50650 0.22190 0.80160 0.10700
H 	H 	0.47150 0.90590 0.69000 0.09900
H 	H 	0.55560 0.89030 0.81300 -0.03600
H 	H 	0.94920 0.04230 0.10120 0.11600
H 	H 	0.96890 0.15070 0.17620 0.13800
H 	H 	0.79850 0.17290 0.22580 0.11700
H 	H 	0.81450 0.23380 0.17160 0.10600
H 	H 	0.75940 0.96190 0.15540 0.07200
H 	H 	0.84200 0.92510 0.11160 0.05200
H 	H 	0.96780 0.06780 0.41880 -0.00600
H 	H 	0.82970 0.04510 0.30160 0.07700
H 	H 	0.03410 0.96850 0.19000 0.06600
H 	H 	0.17270 0.00740 0.31300 -0.01200
H 	H 	0.15200 0.05890 0.10120 0.13900
H 	H 	0.20730 0.02550 0.17620 0.15200
H 	H 	0.42730 0.05290 0.22580 0.13500
H 	H 	0.35710 0.93780 0.17160 0.14200
H 	H 	0.39600 0.19350 0.15540 0.09300
H 	H 	0.26960 0.18650 0.11160 0.08000
H 	H 	0.45100 0.35100 0.41880 -0.02200
H 	H 	0.47190 0.25650 0.30160 0.11200
H 	H 	0.15590 0.22150 0.19000 0.11300
H 	H 	0.14030 0.30560 0.31300 -0.03300
H 	H 	0.94110 0.05080 0.89880 0.12800
H 	H 	0.97450 0.03110 0.82380 0.14300
H 	H 	0.94710 0.20150 0.77420 0.13100
H 	H 	0.06220 0.18550 0.82840 0.13400
H 	H 	0.80650 0.24060 0.84460 0.08700
H 	H 	0.81350 0.15800 0.88840 0.07100
H 	H 	0.64900 0.03220 0.58120 -0.01400
H 	H 	0.74350 0.17030 0.69840 0.10000
H 	H 	0.77850 0.96590 0.81000 0.09600
H 	H 	0.69440 0.82730 0.68700 -0.02900
H 	H 	0.95770 0.84800 0.89880 0.12500
H 	H 	0.84930 0.79270 0.82380 0.14600
H 	H 	0.82710 0.57270 0.77420 0.11900
H 	H 	0.76620 0.64290 0.82840 0.10900
H 	H 	0.03810 0.60400 0.84460 0.07700
H 	H 	0.07490 0.73040 0.88840 0.06100
H 	H 	0.93220 0.54900 0.58120 -0.01300
H 	H 	0.95490 0.52810 0.69840 0.08700
H 	H 	0.03150 0.84410 0.81000 0.08200
H 	H 	0.99260 0.85970 0.68700 -0.01600
C 	C 	0.04620 0.64210 0.37800 -0.35400
C 	C 	0.08543 0.57803 0.42986 0.46500
C 	C 	0.85710 0.58090 0.32940 -0.27000
C 	C 	0.76733 0.58233 0.36646 0.36100
C 	C 	0.92485 0.76455 0.34770 -0.20000
C 	C 	0.86139 0.69899 0.12798 0.11000
C 	C 	0.84835 0.71405 0.19830 -0.20400
C 	C 	0.93520 0.74210 0.26800 0.15200
C 	C 	0.03155 0.75675 0.26310 -0.18200
C 	C 	0.04034 0.73564 0.18888 0.12400
C 	C 	0.33180 0.73590 0.37800 -0.37300
C 	C 	0.34443 0.85183 0.42986 0.46500
C 	C 	0.47230 0.74850 0.32940 -0.27400
C 	C 	0.59913 0.78413 0.36646 0.36300
C 	C 	0.42285 0.58315 0.34770 -0.21600
C 	C 	0.26659 0.42899 0.12798 0.12300
C 	C 	0.34995 0.48425 0.19830 -0.22100
C 	C 	0.33280 0.52590 0.26800 0.19000
C 	C 	0.23155 0.50635 0.26310 -0.22000
C 	C 	0.14854 0.45324 0.18888 0.11300
C 	C 	0.35790 0.66820 0.62200 -0.37500
C 	C 	0.42197 0.65557 0.57014 0.46800
C 	C 	0.41910 0.52770 0.67060 -0.27400
C 	C 	0.41767 0.40087 0.63354 0.36300
C 	C 	0.23545 0.57715 0.65230 -0.21900
C 	C 	0.30101 0.73341 0.87202 0.12500
C 	C 	0.28595 0.65005 0.80170 -0.22200
C 	C 	0.25790 0.66720 0.73200 0.19300
C 	C 	0.24325 0.76845 0.73690 -0.22000
C 	C 	0.26436 0.85146 0.81112 0.11600
C 	C 	0.26410 0.95380 0.62200 -0.35100
C 	C 	0.14817 0.91457 0.57014 0.46200
C 	C 	0.25150 0.14290 0.67060 -0.27000
C 	C 	0.21587 0.23267 0.63354 0.36100
C 	C 	0.41685 0.07515 0.65230 -0.19800
C 	C 	0.57101 0.13861 0.87202 0.10900
C 	C 	0.51575 0.15165 0.80170 -0.20400
C 	C 	0.47410 0.06480 0.73200 0.14900
C 	C 	0.49365 0.96845 0.73690 -0.18300
C 	C 	0.54676 0.95966 0.81112 0.12100
C 	C 	0.91820 0.10790 0.12200 -0.36700
C 	C 	0.90557 0.17197 0.07014 0.46600
C 	C 	0.77770 0.16910 0.17060 -0.26700
C 	C 	0.65087 0.16767 0.13354 0.35900
C 	C 	0.82715 0.98545 0.15230 -0.11500
C 	C 	0.98341 0.05101 0.37202 0.04600
C 	C 	0.90005 0.03595 0.30170 -0.13100
C 	C 	0.91720 0.00790 0.23200 0.04100
C 	C 	0.01845 0.99325 0.23690 -0.04900
C 	C 	0.10146 0.01436 0.31112 0.01700
C 	C 	0.20380 0.01410 0.12200 -0.40800
C 	C 	0.16457 0.89817 0.07014 0.49300
C 	C 	0.39290 0.00150 0.17060 -0.34000
C 	C 	0.48267 0.96587 0.13354 0.39300
C 	C 	0.32515 0.16685 0.15230 -0.22000
C 	C 	0.38861 0.32101 0.37202 0.12200
C 	C 	0.40165 0.26575 0.30170 -0.22400
C 	C 	0.31480 0.22410 0.23200 0.19200
C 	C 	0.21845 0.24365 0.23690 -0.22400
C 	C 	0.20966 0.29676 0.31112 0.11400
C 	C 	0.98590 0.08180 0.87800 -0.39700
C 	C 	0.10183 0.09443 0.92986 0.48700
C 	C 	0.99850 0.22230 0.82940 -0.32800
C 	C 	0.03413 0.34913 0.86646 0.38800
C 	C 	0.83315 0.17285 0.84770 -0.19600
C 	C 	0.67899 0.01659 0.62798 0.08000
C 	C 	0.73425 0.09995 0.69830 -0.18900
C 	C 	0.77590 0.08280 0.76800 0.14200
C 	C 	0.75635 0.98155 0.76310 -0.16900
C 	C 	0.70324 0.89854 0.68888 0.09300
C 	C 	0.89210 0.79620 0.87800 -0.37100
C 	C 	0.82803 0.83543 0.92986 0.46600
C 	C 	0.83090 0.60710 0.82940 -0.26900
C 	C 	0.83233 0.51733 0.86646 0.35900
C 	C 	0.01455 0.67485 0.84770 -0.13000
C 	C 	0.94899 0.61139 0.62798 0.08300
C 	C 	0.96405 0.59835 0.69830 -0.16100
C 	C 	0.99210 0.68520 0.76800 0.08400
C 	C 	0.00675 0.78155 0.76310 -0.10200
C 	C 	0.98564 0.79034 0.68888 0.04000
N 	N 	0.93543 0.67393 0.37406 -0.10400
N 	N 	0.95646 0.70676 0.12212 -0.27000
N 	N 	0.43863 0.70013 0.37406 -0.09100
N 	N 	0.16566 0.41536 0.12212 -0.25700
N 	N 	0.32607 0.56137 0.62594 -0.09100
N 	N 	0.29324 0.83434 0.87788 -0.25600
N 	N 	0.29987 0.06457 0.62594 -0.10500
N 	N 	0.58464 0.04354 0.87788 -0.26900
N 	N 	0.81137 0.07607 0.12594 -0.11200
N 	N 	0.08434 0.04324 0.37788 -0.22500
N 	N 	0.31457 0.04987 0.12594 -0.08400
N 	N 	0.29354 0.33464 0.37788 -0.26000
N 	N 	0.95013 0.18863 0.87406 -0.08900
N 	N 	0.66536 0.91566 0.62212 -0.24000
N 	N 	0.92393 0.68543 0.87406 -0.11000
N 	N 	0.95676 0.70646 0.62212 -0.24300
O 	O 	0.15571 0.52341 0.41522 -0.47600
O 	O 	0.06161 0.59571 0.48702 -0.47000
O 	O 	0.79503 0.62383 0.43886 -0.43800
O 	O 	0.67716 0.52546 0.32132 -0.26400
O 	O 	0.25951 0.89181 0.41522 -0.46800
O 	O 	0.42541 0.89131 0.48702 -0.47100
O 	O 	0.64383 0.81503 0.43886 -0.43400
O 	O 	0.64416 0.79586 0.32132 -0.26000
O 	O 	0.47659 0.74049 0.58478 -0.47700
O 	O 	0.40429 0.57459 0.51298 -0.48000
O 	O 	0.37617 0.35617 0.56114 -0.43700
O 	O 	0.47454 0.35584 0.67868 -0.26400
O 	O 	0.10819 0.84429 0.58478 -0.46600
O 	O 	0.10869 0.93839 0.51298 -0.46000
O 	O 	0.18497 0.20497 0.56114 -0.43500
O 	O 	0.20414 0.32284 0.67868 -0.26000
O 	O 	0.99049 0.22659 0.08478 -0.49000
O 	O 	0.82459 0.15429 0.01298 -0.48200
O 	O 	0.60617 0.12617 0.06114 -0.44000
O 	O 	0.60584 0.22454 0.17868 -0.26600
O 	O 	0.09429 0.85819 0.08478 -0.46900
O 	O 	0.18839 0.85869 0.01298 -0.47700
O 	O 	0.45497 0.93497 0.06114 -0.43700
O 	O 	0.57284 0.95414 0.17868 -0.26200
O 	O 	0.14181 0.00951 0.91522 -0.49200
O 	O 	0.14131 0.17541 0.98702 -0.48300
O 	O 	0.06503 0.39383 0.93886 -0.43600
O 	O 	0.04586 0.39416 0.82132 -0.26100
O 	O 	0.77341 0.90571 0.91522 -0.46900
O 	O 	0.84571 0.81161 0.98702 -0.47600
O 	O 	0.87383 0.54503 0.93886 -0.44000
O 	O 	0.77546 0.42716 0.82132 -0.26500
