data_crystal

_cell_length_a 17.30200
_cell_length_b 17.30200
_cell_length_c 22.78900
_cell_angle_alpha 90.00000
_cell_angle_beta  90.00000
_cell_angle_gamma 90.00000

_symmetry_space_group_name_	'P 1'
_symmetry_space_group_name_H-M	'P 1'

loop_
_symmetry_equiv_pos_as_xyz
  x,y,z

loop_
_atom_site_label
_atom_site_type_symbol
_atom_site_fract_x
_atom_site_fract_y
_atom_site_fract_z
_atom_site_charge
N 	N 	0.27080 0.12830 0.46280 -0.26100
N 	N 	0.26610 0.87180 0.49920 -0.26100
C 	C 	0.29600 0.06900 0.47220 0.14300
C 	C 	0.33450 0.00090 0.48510 -0.12600
C 	C 	0.29330 0.93100 0.49270 0.13600
C 	C 	0.41900 0.99990 0.49350 0.03200
C 	C 	0.46240 0.06670 0.48420 -0.01700
C 	C 	0.45820 0.93360 0.50870 -0.01900
C 	C 	0.19420 0.28480 0.58620 0.02400
C 	C 	0.19180 0.28610 0.64710 -0.01500
C 	C 	0.28500 0.19090 0.77680 -0.01700
C 	C 	0.28390 0.19430 0.83670 0.02700
C 	C 	0.21770 0.80730 0.62480 0.03600
C 	C 	0.21680 0.80950 0.68510 -0.02200
N 	N 	0.22920 0.37170 0.46280 -0.26300
N 	N 	0.23390 0.62820 0.49920 -0.26100
C 	C 	0.20400 0.43100 0.47220 0.14400
C 	C 	0.16550 0.49910 0.48510 -0.13100
C 	C 	0.20670 0.56900 0.49270 0.14000
C 	C 	0.08100 0.50010 0.49350 0.03700
C 	C 	0.03760 0.43330 0.48420 -0.01800
C 	C 	0.04180 0.56640 0.50870 -0.01900
C 	C 	0.30580 0.21520 0.58620 0.02400
C 	C 	0.30820 0.21390 0.64710 -0.01500
C 	C 	0.21500 0.30910 0.77680 -0.01800
C 	C 	0.21610 0.30570 0.83670 0.02700
C 	C 	0.28230 0.69270 0.62480 0.03600
C 	C 	0.28320 0.69050 0.68510 -0.02100
N 	N 	0.37170 0.27080 0.46280 -0.26300
N 	N 	0.62820 0.26610 0.49920 -0.26200
C 	C 	0.43100 0.29600 0.47220 0.14400
C 	C 	0.49910 0.33450 0.48510 -0.13200
C 	C 	0.56900 0.29330 0.49270 0.14100
C 	C 	0.50010 0.41900 0.49350 0.03900
C 	C 	0.43330 0.46240 0.48420 -0.02100
C 	C 	0.56640 0.45820 0.50870 -0.02200
C 	C 	0.21520 0.19420 0.58620 0.02400
C 	C 	0.21390 0.19180 0.64710 -0.01500
C 	C 	0.30910 0.28500 0.77680 -0.01800
C 	C 	0.30570 0.28390 0.83670 0.02700
C 	C 	0.69270 0.21770 0.62480 0.03600
C 	C 	0.69050 0.21680 0.68510 -0.02100
N 	N 	0.12830 0.22920 0.46280 -0.26200
N 	N 	0.87180 0.23390 0.49920 -0.26000
C 	C 	0.06900 0.20400 0.47220 0.14200
C 	C 	0.00090 0.16550 0.48510 -0.12400
C 	C 	0.93100 0.20670 0.49270 0.13600
C 	C 	0.99990 0.08100 0.49350 0.02900
C 	C 	0.06670 0.03760 0.48420 -0.01200
C 	C 	0.93360 0.04180 0.50870 -0.01700
C 	C 	0.28480 0.30580 0.58620 0.02400
C 	C 	0.28610 0.30820 0.64710 -0.01500
C 	C 	0.19090 0.21500 0.77680 -0.01700
C 	C 	0.19430 0.21610 0.83670 0.02700
C 	C 	0.80730 0.28230 0.62480 0.03600
C 	C 	0.80950 0.28320 0.68510 -0.02200
N 	N 	0.72920 0.62830 0.03720 -0.26400
N 	N 	0.73390 0.37180 0.00080 -0.26800
C 	C 	0.70400 0.56900 0.02780 0.13000
C 	C 	0.66550 0.50090 0.01490 -0.11600
C 	C 	0.70670 0.43100 0.00730 0.12100
C 	C 	0.58100 0.49990 0.00650 -0.02200
C 	C 	0.53760 0.56670 0.01580 0.00200
C 	C 	0.54180 0.43360 0.99130 0.03900
C 	C 	0.80580 0.78480 0.91380 0.03400
C 	C 	0.80820 0.78610 0.85290 -0.01500
C 	C 	0.71500 0.69090 0.72320 -0.01700
C 	C 	0.71610 0.69430 0.66330 0.02600
C 	C 	0.78230 0.30730 0.87520 0.04400
C 	C 	0.78320 0.30950 0.81490 -0.02200
N 	N 	0.77080 0.87170 0.03720 -0.26500
N 	N 	0.76610 0.12820 0.00080 -0.26900
C 	C 	0.79600 0.93100 0.02780 0.13200
C 	C 	0.83450 0.99910 0.01490 -0.12200
C 	C 	0.79330 0.06900 0.00730 0.12500
C 	C 	0.91900 0.00010 0.00650 -0.01400
C 	C 	0.96240 0.93330 0.01580 -0.00400
C 	C 	0.95820 0.06640 0.99130 0.03100
C 	C 	0.69420 0.71520 0.91380 0.03400
C 	C 	0.69180 0.71390 0.85290 -0.01400
C 	C 	0.78500 0.80910 0.72320 -0.01700
C 	C 	0.78390 0.80570 0.66330 0.02600
C 	C 	0.71770 0.19270 0.87520 0.04400
C 	C 	0.71680 0.19050 0.81490 -0.02200
N 	N 	0.62830 0.77080 0.03720 -0.26400
N 	N 	0.37180 0.76610 0.00080 -0.26800
C 	C 	0.56900 0.79600 0.02780 0.13100
C 	C 	0.50090 0.83450 0.01490 -0.11700
C 	C 	0.43100 0.79330 0.00730 0.12200
C 	C 	0.49990 0.91900 0.00650 -0.01900
C 	C 	0.56670 0.96240 0.01580 -0.00100
C 	C 	0.43360 0.95820 0.99130 0.03500
C 	C 	0.78480 0.69420 0.91380 0.03400
C 	C 	0.78610 0.69180 0.85290 -0.01500
C 	C 	0.69090 0.78500 0.72320 -0.01700
C 	C 	0.69430 0.78390 0.66330 0.02600
C 	C 	0.30730 0.71770 0.87520 0.04400
C 	C 	0.30950 0.71680 0.81490 -0.02200
N 	N 	0.87170 0.72920 0.03720 -0.26500
N 	N 	0.12820 0.73390 0.00080 -0.26900
C 	C 	0.93100 0.70400 0.02780 0.13200
C 	C 	0.99910 0.66550 0.01490 -0.12200
C 	C 	0.06900 0.70670 0.00730 0.12500
C 	C 	0.00010 0.58100 0.00650 -0.01500
C 	C 	0.93330 0.53760 0.01580 -0.00200
C 	C 	0.06640 0.54180 0.99130 0.03600
C 	C 	0.71520 0.80580 0.91380 0.03400
C 	C 	0.71390 0.80820 0.85290 -0.01500
C 	C 	0.80910 0.71500 0.72320 -0.01700
C 	C 	0.80570 0.71610 0.66330 0.02600
C 	C 	0.19270 0.78230 0.87520 0.04400
C 	C 	0.19050 0.78320 0.81490 -0.02200
N 	N 	0.72920 0.87170 0.53720 -0.26300
N 	N 	0.73390 0.12820 0.50080 -0.26200
C 	C 	0.70400 0.93100 0.52780 0.14600
C 	C 	0.66550 0.99910 0.51490 -0.13700
C 	C 	0.70670 0.06900 0.50730 0.14400
C 	C 	0.58100 0.00010 0.50650 0.04400
C 	C 	0.53760 0.93330 0.51580 -0.02500
C 	C 	0.54180 0.06640 0.49130 -0.02400
C 	C 	0.80580 0.71520 0.41380 0.02300
C 	C 	0.80820 0.71390 0.35290 -0.01600
C 	C 	0.71500 0.80910 0.22320 -0.01900
C 	C 	0.71610 0.80570 0.16330 0.02500
C 	C 	0.78230 0.19270 0.37520 0.03500
C 	C 	0.78320 0.19050 0.31490 -0.02400
N 	N 	0.77080 0.62830 0.53720 -0.26300
N 	N 	0.76610 0.37180 0.50080 -0.26200
C 	C 	0.79600 0.56900 0.52780 0.14500
C 	C 	0.83450 0.50090 0.51490 -0.13300
C 	C 	0.79330 0.43100 0.50730 0.14100
C 	C 	0.91900 0.49990 0.50650 0.04000
C 	C 	0.96240 0.56670 0.51580 -0.02400
C 	C 	0.95820 0.43360 0.49130 -0.02500
C 	C 	0.69420 0.78480 0.41380 0.02300
C 	C 	0.69180 0.78610 0.35290 -0.01600
C 	C 	0.78500 0.69090 0.22320 -0.01900
C 	C 	0.78390 0.69430 0.16330 0.02500
C 	C 	0.71770 0.30730 0.37520 0.03500
C 	C 	0.71680 0.30950 0.31490 -0.02400
N 	N 	0.62830 0.72920 0.53720 -0.26300
N 	N 	0.37180 0.73390 0.50080 -0.26200
C 	C 	0.56900 0.70400 0.52780 0.14400
C 	C 	0.50090 0.66550 0.51490 -0.13200
C 	C 	0.43100 0.70670 0.50730 0.14100
C 	C 	0.49990 0.58100 0.50650 0.03900
C 	C 	0.56670 0.53760 0.51580 -0.02100
C 	C 	0.43360 0.54180 0.49130 -0.02200
C 	C 	0.78480 0.80580 0.41380 0.02300
C 	C 	0.78610 0.80820 0.35290 -0.01700
C 	C 	0.69090 0.71500 0.22320 -0.01900
C 	C 	0.69430 0.71610 0.16330 0.02500
C 	C 	0.30730 0.78230 0.37520 0.03500
C 	C 	0.30950 0.78320 0.31490 -0.02400
N 	N 	0.87170 0.77080 0.53720 -0.26300
N 	N 	0.12820 0.76610 0.50080 -0.26200
C 	C 	0.93100 0.79600 0.52780 0.14500
C 	C 	0.99910 0.83450 0.51490 -0.13700
C 	C 	0.06900 0.79330 0.50730 0.14300
C 	C 	0.00010 0.91900 0.50650 0.04500
C 	C 	0.93330 0.96240 0.51580 -0.02600
C 	C 	0.06640 0.95820 0.49130 -0.02800
C 	C 	0.71520 0.69420 0.41380 0.02300
C 	C 	0.71390 0.69180 0.35290 -0.01600
C 	C 	0.80910 0.78500 0.22320 -0.01900
C 	C 	0.80570 0.78390 0.16330 0.02500
C 	C 	0.19270 0.71770 0.37520 0.03600
C 	C 	0.19050 0.71680 0.31490 -0.02300
N 	N 	0.27080 0.37170 0.96280 -0.26100
N 	N 	0.26610 0.62820 0.99920 -0.25100
C 	C 	0.29600 0.43100 0.97220 0.15800
C 	C 	0.33450 0.49910 0.98510 -0.14700
C 	C 	0.29330 0.56900 0.99270 0.15900
C 	C 	0.41900 0.50010 0.99350 0.09900
C 	C 	0.46240 0.43330 0.98420 -0.04400
C 	C 	0.45820 0.56640 0.00870 -0.08200
C 	C 	0.19420 0.21520 0.08620 0.01400
C 	C 	0.19180 0.21390 0.14710 -0.01700
C 	C 	0.28500 0.30910 0.27680 -0.02000
C 	C 	0.28390 0.30570 0.33670 0.02600
C 	C 	0.21770 0.69270 0.12480 0.02900
C 	C 	0.21680 0.69050 0.18510 -0.02300
N 	N 	0.22920 0.12830 0.96280 -0.26000
N 	N 	0.23390 0.87180 0.99920 -0.25000
C 	C 	0.20400 0.06900 0.97220 0.15600
C 	C 	0.16550 0.00090 0.98510 -0.13900
C 	C 	0.20670 0.93100 0.99270 0.15400
C 	C 	0.08100 0.99990 0.99350 0.08800
C 	C 	0.03760 0.06670 0.98420 -0.03500
C 	C 	0.04180 0.93360 0.00870 -0.07500
C 	C 	0.30580 0.28480 0.08620 0.01300
C 	C 	0.30820 0.28610 0.14710 -0.01700
C 	C 	0.21500 0.19090 0.27680 -0.01900
C 	C 	0.21610 0.19430 0.33670 0.02600
C 	C 	0.28230 0.80730 0.12480 0.02800
C 	C 	0.28320 0.80950 0.18510 -0.02400
N 	N 	0.37170 0.22920 0.96280 -0.26100
N 	N 	0.62820 0.23390 0.99920 -0.25100
C 	C 	0.43100 0.20400 0.97220 0.15800
C 	C 	0.49910 0.16550 0.98510 -0.14600
C 	C 	0.56900 0.20670 0.99270 0.15900
C 	C 	0.50010 0.08100 0.99350 0.09700
C 	C 	0.43330 0.03760 0.98420 -0.04100
C 	C 	0.56640 0.04180 0.00870 -0.07800
C 	C 	0.21520 0.30580 0.08620 0.01300
C 	C 	0.21390 0.30820 0.14710 -0.01700
C 	C 	0.30910 0.21500 0.27680 -0.02000
C 	C 	0.30570 0.21610 0.33670 0.02600
C 	C 	0.69270 0.28230 0.12480 0.02800
C 	C 	0.69050 0.28320 0.18510 -0.02300
N 	N 	0.12830 0.27080 0.96280 -0.26000
N 	N 	0.87180 0.26610 0.99920 -0.25000
C 	C 	0.06900 0.29600 0.97220 0.15700
C 	C 	0.00090 0.33450 0.98510 -0.14100
C 	C 	0.93100 0.29330 0.99270 0.15500
C 	C 	0.99990 0.41900 0.99350 0.09200
C 	C 	0.06670 0.46240 0.98420 -0.04000
C 	C 	0.93360 0.45820 0.00870 -0.07800
C 	C 	0.28480 0.19420 0.08620 0.01300
C 	C 	0.28610 0.19180 0.14710 -0.01700
C 	C 	0.19090 0.28500 0.27680 -0.01900
C 	C 	0.19430 0.28390 0.33670 0.02600
C 	C 	0.80730 0.21770 0.12480 0.02800
C 	C 	0.80950 0.21680 0.18510 -0.02400
Co	Co	0.25000 0.25000 0.46161 1.13000
N 	N 	0.25000 0.25000 0.55420 -0.23600
N 	N 	0.25000 0.25000 0.86840 -0.23700
C 	C 	0.25000 0.25000 0.68050 0.01400
C 	C 	0.25000 0.25000 0.74460 0.01900
Co	Co	0.75000 0.75000 0.03839 1.12400
N 	N 	0.75000 0.75000 0.94580 -0.23000
N 	N 	0.75000 0.75000 0.63160 -0.23700
C 	C 	0.75000 0.75000 0.81950 0.01400
C 	C 	0.75000 0.75000 0.75540 0.01900
Co	Co	0.75000 0.75000 0.53839 1.13000
N 	N 	0.75000 0.75000 0.44580 -0.23600
N 	N 	0.75000 0.75000 0.13160 -0.23700
C 	C 	0.75000 0.75000 0.31950 0.01400
C 	C 	0.75000 0.75000 0.25540 0.02000
Co	Co	0.25000 0.25000 0.96161 1.13700
N 	N 	0.25000 0.25000 0.05420 -0.24100
N 	N 	0.25000 0.25000 0.36840 -0.23700
C 	C 	0.25000 0.25000 0.18050 0.01400
C 	C 	0.25000 0.25000 0.24460 0.02000
Co	Co	0.25000 0.75000 0.50000 1.13200
Co	Co	0.75000 0.25000 0.50000 1.13200
Co	Co	0.75000 0.25000 -0.00000 1.11700
Co	Co	0.25000 0.75000 -0.00000 1.11700
N 	N 	0.25000 0.75000 0.59290 -0.22800
C 	C 	0.25000 0.75000 0.71730 0.01100
N 	N 	0.75000 0.25000 0.59290 -0.22800
C 	C 	0.75000 0.25000 0.71730 0.01100
N 	N 	0.75000 0.25000 0.90710 -0.22300
C 	C 	0.75000 0.25000 0.78270 0.01100
N 	N 	0.25000 0.75000 0.90710 -0.22300
C 	C 	0.25000 0.75000 0.78270 0.01100
N 	N 	0.75000 0.25000 0.40710 -0.22800
C 	C 	0.75000 0.25000 0.28270 0.01000
N 	N 	0.25000 0.75000 0.40710 -0.22800
C 	C 	0.25000 0.75000 0.28270 0.01000
N 	N 	0.25000 0.75000 0.09290 -0.23000
C 	C 	0.25000 0.75000 0.21730 0.01000
N 	N 	0.75000 0.25000 0.09290 -0.23000
C 	C 	0.75000 0.25000 0.21730 0.01000
