data_crystal

_cell_length_a 17.57100
_cell_length_b 17.57100
_cell_length_c 23.40400
_cell_angle_alpha 90.00000
_cell_angle_beta  90.00000
_cell_angle_gamma 90.00000

_symmetry_space_group_name_	'P 1'
_symmetry_space_group_name_H-M	'P 1'

loop_
_symmetry_equiv_pos_as_xyz
  x,y,z

loop_
_atom_site_label
_atom_site_type_symbol
_atom_site_fract_x
_atom_site_fract_y
_atom_site_fract_z
_atom_site_charge
N 	N 	0.62010 0.72440 0.43760 -0.26100
N 	N 	0.38170 0.73870 0.50174 -0.26000
C 	C 	0.56500 0.69750 0.45610 0.11500
C 	C 	0.50080 0.66170 0.47840 -0.13700
C 	C 	0.43710 0.70550 0.49040 0.11400
C 	C 	0.50060 0.57940 0.48930 0.05900
C 	C 	0.56350 0.53400 0.47720 -0.07100
C 	C 	0.43660 0.54310 0.51210 -0.06900
C 	C 	0.69700 0.78070 0.56580 0.05100
C 	C 	0.69260 0.78290 0.62450 -0.09500
C 	C 	0.77940 0.69300 0.75040 -0.10000
C 	C 	0.77870 0.69600 0.80830 0.05100
C 	C 	0.21720 0.80500 0.37220 0.07400
C 	C 	0.21510 0.80750 0.31300 -0.13000
H 	H 	0.60750 0.55680 0.46090 0.04700
H 	H 	0.39220 0.57220 0.52000 0.04600
H 	H 	0.65700 0.80410 0.54500 -0.01100
H 	H 	0.65090 0.80650 0.64330 0.05500
H 	H 	0.80080 0.65020 0.73150 0.05600
H 	H 	0.80080 0.65430 0.82820 -0.01000
H 	H 	0.19340 0.84470 0.39310 -0.01800
H 	H 	0.19030 0.84840 0.29410 0.06800
N 	N 	0.87990 0.77560 0.43760 -0.26000
N 	N 	0.11830 0.76130 0.50174 -0.25900
C 	C 	0.93500 0.80250 0.45610 0.11600
C 	C 	0.99920 0.83830 0.47840 -0.13700
C 	C 	0.06290 0.79450 0.49040 0.11500
C 	C 	0.99940 0.92060 0.48930 0.06000
C 	C 	0.93650 0.96600 0.47720 -0.06900
C 	C 	0.06340 0.95690 0.51210 -0.06900
C 	C 	0.80300 0.71930 0.56580 0.05200
C 	C 	0.80740 0.71710 0.62450 -0.09400
C 	C 	0.72060 0.80700 0.75040 -0.09900
C 	C 	0.72130 0.80400 0.80830 0.05200
C 	C 	0.28280 0.69500 0.37220 0.07500
C 	C 	0.28490 0.69250 0.31300 -0.12900
H 	H 	0.89250 0.94320 0.46090 0.04800
H 	H 	0.10780 0.92780 0.52000 0.04700
H 	H 	0.84300 0.69590 0.54500 -0.01100
H 	H 	0.84910 0.69350 0.64330 0.05500
H 	H 	0.69920 0.84980 0.73150 0.05600
H 	H 	0.69920 0.84570 0.82820 -0.01000
H 	H 	0.30660 0.65530 0.39310 -0.01700
H 	H 	0.30970 0.65160 0.29410 0.06800
N 	N 	0.77560 0.62010 0.43760 -0.26000
N 	N 	0.76130 0.38170 0.50174 -0.25900
C 	C 	0.80250 0.56500 0.45610 0.11600
C 	C 	0.83830 0.50080 0.47840 -0.13700
C 	C 	0.79450 0.43710 0.49040 0.11500
C 	C 	0.92060 0.50060 0.48930 0.06100
C 	C 	0.96600 0.56350 0.47720 -0.07100
C 	C 	0.95690 0.43660 0.51210 -0.07000
C 	C 	0.71930 0.69700 0.56580 0.05200
C 	C 	0.71710 0.69260 0.62450 -0.09400
C 	C 	0.80700 0.77940 0.75040 -0.09900
C 	C 	0.80400 0.77870 0.80830 0.05200
C 	C 	0.69500 0.21720 0.37220 0.07500
C 	C 	0.69250 0.21510 0.31300 -0.12900
H 	H 	0.94320 0.60750 0.46090 0.04800
H 	H 	0.92780 0.39220 0.52000 0.04800
H 	H 	0.69590 0.65700 0.54500 -0.01000
H 	H 	0.69350 0.65090 0.64330 0.05500
H 	H 	0.84980 0.80080 0.73150 0.05500
H 	H 	0.84570 0.80080 0.82820 -0.01000
H 	H 	0.65530 0.19340 0.39310 -0.01700
H 	H 	0.65160 0.19030 0.29410 0.06800
N 	N 	0.72440 0.87990 0.43760 -0.26000
N 	N 	0.73870 0.11830 0.50174 -0.25900
C 	C 	0.69750 0.93500 0.45610 0.11600
C 	C 	0.66170 0.99920 0.47840 -0.13600
C 	C 	0.70550 0.06290 0.49040 0.11500
C 	C 	0.57940 0.99940 0.48930 0.06000
C 	C 	0.53400 0.93650 0.47720 -0.06900
C 	C 	0.54310 0.06340 0.51210 -0.06800
C 	C 	0.78070 0.80300 0.56580 0.05200
C 	C 	0.78290 0.80740 0.62450 -0.09400
C 	C 	0.69300 0.72060 0.75040 -0.09900
C 	C 	0.69600 0.72130 0.80830 0.05200
C 	C 	0.80500 0.28280 0.37220 0.07500
C 	C 	0.80750 0.28490 0.31300 -0.12900
H 	H 	0.55680 0.89250 0.46090 0.04800
H 	H 	0.57220 0.10780 0.52000 0.04700
H 	H 	0.80410 0.84300 0.54500 -0.01100
H 	H 	0.80650 0.84910 0.64330 0.05500
H 	H 	0.65020 0.69920 0.73150 0.05600
H 	H 	0.65430 0.69920 0.82820 -0.01000
H 	H 	0.84470 0.30660 0.39310 -0.01800
H 	H 	0.84840 0.30970 0.29410 0.06800
N 	N 	0.37990 0.22440 0.06240 -0.25800
N 	N 	0.61830 0.23870 0.99826 -0.22600
C 	C 	0.43500 0.19750 0.04390 0.09800
C 	C 	0.49920 0.16170 0.02160 -0.09800
C 	C 	0.56290 0.20550 0.00960 0.06700
C 	C 	0.49940 0.07940 0.01070 -0.02300
C 	C 	0.43650 0.03400 0.02280 -0.00100
C 	C 	0.56340 0.04310 0.98790 0.02600
C 	C 	0.30300 0.28070 0.93420 0.05100
C 	C 	0.30740 0.28290 0.87550 -0.09000
C 	C 	0.22060 0.19300 0.74960 -0.10000
C 	C 	0.22130 0.19600 0.69170 0.05300
C 	C 	0.78280 0.30500 0.12780 0.07500
C 	C 	0.78490 0.30750 0.18700 -0.13000
H 	H 	0.39250 0.05680 0.03910 0.02200
H 	H 	0.60780 0.07220 0.98000 0.02500
H 	H 	0.34300 0.30410 0.95500 -0.00000
H 	H 	0.34910 0.30650 0.85670 0.05600
H 	H 	0.19920 0.15020 0.76850 0.05700
H 	H 	0.19920 0.15430 0.67180 -0.01000
H 	H 	0.80660 0.34470 0.10690 -0.02000
H 	H 	0.80970 0.34840 0.20590 0.06800
N 	N 	0.12010 0.27560 0.06240 -0.25800
N 	N 	0.88170 0.26130 0.99826 -0.22700
C 	C 	0.06500 0.30250 0.04390 0.09800
C 	C 	0.00080 0.33830 0.02160 -0.09800
C 	C 	0.93710 0.29450 0.00960 0.06800
C 	C 	0.00060 0.42060 0.01070 -0.02100
C 	C 	0.06350 0.46600 0.02280 -0.00200
C 	C 	0.93660 0.45690 0.98790 0.02400
C 	C 	0.19700 0.21930 0.93420 0.05100
C 	C 	0.19260 0.21710 0.87550 -0.09000
C 	C 	0.27940 0.30700 0.74960 -0.10000
C 	C 	0.27870 0.30400 0.69170 0.05300
C 	C 	0.71720 0.19500 0.12780 0.07500
C 	C 	0.71510 0.19250 0.18700 -0.13000
H 	H 	0.10750 0.44320 0.03910 0.02300
H 	H 	0.89220 0.42780 0.98000 0.02600
H 	H 	0.15700 0.19590 0.95500 -0.00000
H 	H 	0.15090 0.19350 0.85670 0.05600
H 	H 	0.30080 0.34980 0.76850 0.05700
H 	H 	0.30080 0.34570 0.67180 -0.01000
H 	H 	0.69340 0.15530 0.10690 -0.02000
H 	H 	0.69030 0.15160 0.20590 0.06800
N 	N 	0.22440 0.12010 0.06240 -0.25800
N 	N 	0.23870 0.88170 0.99826 -0.22700
C 	C 	0.19750 0.06500 0.04390 0.09800
C 	C 	0.16170 0.00080 0.02160 -0.09800
C 	C 	0.20550 0.93710 0.00960 0.06800
C 	C 	0.07940 0.00060 0.01070 -0.02100
C 	C 	0.03400 0.06350 0.02280 -0.00200
C 	C 	0.04310 0.93660 0.98790 0.02400
C 	C 	0.28070 0.19700 0.93420 0.05100
C 	C 	0.28290 0.19260 0.87550 -0.09000
C 	C 	0.19300 0.27940 0.74960 -0.10000
C 	C 	0.19600 0.27870 0.69170 0.05300
C 	C 	0.30500 0.71720 0.12780 0.07500
C 	C 	0.30750 0.71510 0.18700 -0.13000
H 	H 	0.05680 0.10750 0.03910 0.02300
H 	H 	0.07220 0.89220 0.98000 0.02600
H 	H 	0.30410 0.15700 0.95500 -0.00000
H 	H 	0.30650 0.15090 0.85670 0.05600
H 	H 	0.15020 0.30080 0.76850 0.05700
H 	H 	0.15430 0.30080 0.67180 -0.01000
H 	H 	0.34470 0.69340 0.10690 -0.02000
H 	H 	0.34840 0.69030 0.20590 0.06800
N 	N 	0.27560 0.37990 0.06240 -0.25800
N 	N 	0.26130 0.61830 0.99826 -0.22600
C 	C 	0.30250 0.43500 0.04390 0.09800
C 	C 	0.33830 0.49920 0.02160 -0.09800
C 	C 	0.29450 0.56290 0.00960 0.06700
C 	C 	0.42060 0.49940 0.01070 -0.02300
C 	C 	0.46600 0.43650 0.02280 -0.00100
C 	C 	0.45690 0.56340 0.98790 0.02700
C 	C 	0.21930 0.30300 0.93420 0.05100
C 	C 	0.21710 0.30740 0.87550 -0.09000
C 	C 	0.30700 0.22060 0.74960 -0.10000
C 	C 	0.30400 0.22130 0.69170 0.05300
C 	C 	0.19500 0.78280 0.12780 0.07500
C 	C 	0.19250 0.78490 0.18700 -0.13000
H 	H 	0.44320 0.39250 0.03910 0.02200
H 	H 	0.42780 0.60780 0.98000 0.02500
H 	H 	0.19590 0.34300 0.95500 -0.00000
H 	H 	0.19350 0.34910 0.85670 0.05600
H 	H 	0.34980 0.19920 0.76850 0.05700
H 	H 	0.34570 0.19920 0.67180 -0.01000
H 	H 	0.15530 0.80660 0.10690 -0.02000
H 	H 	0.15160 0.80970 0.20590 0.06800
N 	N 	0.37990 0.27560 0.56240 -0.26000
N 	N 	0.61830 0.26130 0.49826 -0.25900
C 	C 	0.43500 0.30250 0.54390 0.11700
C 	C 	0.49920 0.33830 0.52160 -0.13600
C 	C 	0.56290 0.29450 0.50960 0.11500
C 	C 	0.49940 0.42060 0.51070 0.06000
C 	C 	0.43650 0.46600 0.52280 -0.07000
C 	C 	0.56340 0.45690 0.48790 -0.06800
C 	C 	0.30300 0.21930 0.43420 0.05200
C 	C 	0.30740 0.21710 0.37550 -0.09400
C 	C 	0.22060 0.30700 0.24960 -0.09900
C 	C 	0.22130 0.30400 0.19170 0.05200
C 	C 	0.78280 0.19500 0.62780 0.07600
C 	C 	0.78490 0.19250 0.68700 -0.12900
H 	H 	0.39250 0.44320 0.53910 0.04800
H 	H 	0.60780 0.42780 0.48000 0.04700
H 	H 	0.34300 0.19590 0.45500 -0.01100
H 	H 	0.34910 0.19350 0.35670 0.05500
H 	H 	0.19920 0.34980 0.26850 0.05500
H 	H 	0.19920 0.34570 0.17180 -0.01000
H 	H 	0.80660 0.15530 0.60690 -0.01700
H 	H 	0.80970 0.15160 0.70590 0.06900
N 	N 	0.12010 0.22440 0.56240 -0.26000
N 	N 	0.88170 0.23870 0.49826 -0.25900
C 	C 	0.06500 0.19750 0.54390 0.11700
C 	C 	0.00080 0.16170 0.52160 -0.13600
C 	C 	0.93710 0.20550 0.50960 0.11400
C 	C 	0.00060 0.07940 0.51070 0.06100
C 	C 	0.06350 0.03400 0.52280 -0.06900
C 	C 	0.93660 0.04310 0.48790 -0.06900
C 	C 	0.19700 0.28070 0.43420 0.05200
C 	C 	0.19260 0.28290 0.37550 -0.09400
C 	C 	0.27940 0.19300 0.24960 -0.09900
C 	C 	0.27870 0.19600 0.19170 0.05200
C 	C 	0.71720 0.30500 0.62780 0.07600
C 	C 	0.71510 0.30750 0.68700 -0.12900
H 	H 	0.10750 0.05680 0.53910 0.04800
H 	H 	0.89220 0.07220 0.48000 0.04700
H 	H 	0.15700 0.30410 0.45500 -0.01100
H 	H 	0.15090 0.30650 0.35670 0.05500
H 	H 	0.30080 0.15020 0.26850 0.05500
H 	H 	0.30080 0.15430 0.17180 -0.01000
H 	H 	0.69340 0.34470 0.60690 -0.01700
H 	H 	0.69030 0.34840 0.70590 0.06900
N 	N 	0.22440 0.37990 0.56240 -0.26000
N 	N 	0.23870 0.61830 0.49826 -0.25900
C 	C 	0.19750 0.43500 0.54390 0.11700
C 	C 	0.16170 0.49920 0.52160 -0.13600
C 	C 	0.20550 0.56290 0.50960 0.11500
C 	C 	0.07940 0.49940 0.51070 0.06000
C 	C 	0.03400 0.43650 0.52280 -0.06900
C 	C 	0.04310 0.56340 0.48790 -0.06700
C 	C 	0.28070 0.30300 0.43420 0.05200
C 	C 	0.28290 0.30740 0.37550 -0.09400
C 	C 	0.19300 0.22060 0.24960 -0.09900
C 	C 	0.19600 0.22130 0.19170 0.05200
C 	C 	0.30500 0.78280 0.62780 0.07600
C 	C 	0.30750 0.78490 0.68700 -0.12900
H 	H 	0.05680 0.39250 0.53910 0.04800
H 	H 	0.07220 0.60780 0.48000 0.04700
H 	H 	0.30410 0.34300 0.45500 -0.01100
H 	H 	0.30650 0.34910 0.35670 0.05500
H 	H 	0.15020 0.19920 0.26850 0.05500
H 	H 	0.15430 0.19920 0.17180 -0.01000
H 	H 	0.34470 0.80660 0.60690 -0.01700
H 	H 	0.34840 0.80970 0.70590 0.06900
N 	N 	0.27560 0.12010 0.56240 -0.26000
N 	N 	0.26130 0.88170 0.49826 -0.25900
C 	C 	0.30250 0.06500 0.54390 0.11700
C 	C 	0.33830 0.00080 0.52160 -0.13600
C 	C 	0.29450 0.93710 0.50960 0.11400
C 	C 	0.42060 0.00060 0.51070 0.06100
C 	C 	0.46600 0.06350 0.52280 -0.07000
C 	C 	0.45690 0.93660 0.48790 -0.06900
C 	C 	0.21930 0.19700 0.43420 0.05200
C 	C 	0.21710 0.19260 0.37550 -0.09400
C 	C 	0.30700 0.27940 0.24960 -0.09900
C 	C 	0.30400 0.27870 0.19170 0.05200
C 	C 	0.19500 0.71720 0.62780 0.07600
C 	C 	0.19250 0.71510 0.68700 -0.12900
H 	H 	0.44320 0.10750 0.53910 0.04800
H 	H 	0.42780 0.89220 0.48000 0.04700
H 	H 	0.19590 0.15700 0.45500 -0.01100
H 	H 	0.19350 0.15090 0.35670 0.05500
H 	H 	0.34980 0.30080 0.26850 0.05500
H 	H 	0.34570 0.30080 0.17180 -0.01000
H 	H 	0.15530 0.69340 0.60690 -0.01700
H 	H 	0.15160 0.69030 0.70590 0.06900
N 	N 	0.62010 0.77560 0.93760 -0.26200
N 	N 	0.38170 0.76130 0.00174 -0.29000
C 	C 	0.56500 0.80250 0.95610 0.13500
C 	C 	0.50080 0.83830 0.97840 -0.17500
C 	C 	0.43710 0.79450 0.99040 0.16200
C 	C 	0.50060 0.92060 0.98930 0.14300
C 	C 	0.56350 0.96600 0.97720 -0.13900
C 	C 	0.43660 0.95690 0.01210 -0.16200
C 	C 	0.69700 0.71930 0.06580 0.05400
C 	C 	0.69260 0.71710 0.12450 -0.09700
C 	C 	0.77940 0.80700 0.25040 -0.09700
C 	C 	0.77870 0.80400 0.30830 0.05100
C 	C 	0.21720 0.69500 0.87220 0.07600
C 	C 	0.21510 0.69250 0.81300 -0.12800
H 	H 	0.60750 0.94320 0.96090 0.07300
H 	H 	0.39220 0.92780 0.02000 0.07000
H 	H 	0.65700 0.69590 0.04500 -0.02100
H 	H 	0.65090 0.69350 0.14330 0.05400
H 	H 	0.80080 0.84980 0.23150 0.05400
H 	H 	0.80080 0.84570 0.32820 -0.01000
H 	H 	0.19340 0.65530 0.89310 -0.01400
H 	H 	0.19030 0.65160 0.79410 0.06900
N 	N 	0.87990 0.72440 0.93760 -0.26200
N 	N 	0.11830 0.73870 0.00174 -0.29000
C 	C 	0.93500 0.69750 0.95610 0.13500
C 	C 	0.99920 0.66170 0.97840 -0.17500
C 	C 	0.06290 0.70550 0.99040 0.16200
C 	C 	0.99940 0.57940 0.98930 0.14200
C 	C 	0.93650 0.53400 0.97720 -0.13700
C 	C 	0.06340 0.54310 0.01210 -0.16100
C 	C 	0.80300 0.78070 0.06580 0.05400
C 	C 	0.80740 0.78290 0.12450 -0.09700
C 	C 	0.72060 0.69300 0.25040 -0.09700
C 	C 	0.72130 0.69600 0.30830 0.05100
C 	C 	0.28280 0.80500 0.87220 0.07600
C 	C 	0.28490 0.80750 0.81300 -0.12800
H 	H 	0.89250 0.55680 0.96090 0.07300
H 	H 	0.10780 0.57220 0.02000 0.06900
H 	H 	0.84300 0.80410 0.04500 -0.02000
H 	H 	0.84910 0.80650 0.14330 0.05400
H 	H 	0.69920 0.65020 0.23150 0.05400
H 	H 	0.69920 0.65430 0.32820 -0.01000
H 	H 	0.30660 0.84470 0.89310 -0.01400
H 	H 	0.30970 0.84840 0.79410 0.06900
N 	N 	0.77560 0.87990 0.93760 -0.26200
N 	N 	0.76130 0.11830 0.00174 -0.29000
C 	C 	0.80250 0.93500 0.95610 0.13500
C 	C 	0.83830 0.99920 0.97840 -0.17500
C 	C 	0.79450 0.06290 0.99040 0.16200
C 	C 	0.92060 0.99940 0.98930 0.14200
C 	C 	0.96600 0.93650 0.97720 -0.13700
C 	C 	0.95690 0.06340 0.01210 -0.16100
C 	C 	0.71930 0.80300 0.06580 0.05400
C 	C 	0.71710 0.80740 0.12450 -0.09700
C 	C 	0.80700 0.72060 0.25040 -0.09700
C 	C 	0.80400 0.72130 0.30830 0.05100
C 	C 	0.69500 0.28280 0.87220 0.07600
C 	C 	0.69250 0.28490 0.81300 -0.12800
H 	H 	0.94320 0.89250 0.96090 0.07300
H 	H 	0.92780 0.10780 0.02000 0.06900
H 	H 	0.69590 0.84300 0.04500 -0.02000
H 	H 	0.69350 0.84910 0.14330 0.05400
H 	H 	0.84980 0.69920 0.23150 0.05400
H 	H 	0.84570 0.69920 0.32820 -0.01000
H 	H 	0.65530 0.30660 0.89310 -0.01400
H 	H 	0.65160 0.30970 0.79410 0.06900
N 	N 	0.72440 0.62010 0.93760 -0.26200
N 	N 	0.73870 0.38170 0.00174 -0.29000
C 	C 	0.69750 0.56500 0.95610 0.13600
C 	C 	0.66170 0.50080 0.97840 -0.17500
C 	C 	0.70550 0.43710 0.99040 0.16200
C 	C 	0.57940 0.50060 0.98930 0.14400
C 	C 	0.53400 0.56350 0.97720 -0.13900
C 	C 	0.54310 0.43660 0.01210 -0.16300
C 	C 	0.78070 0.69700 0.06580 0.05400
C 	C 	0.78290 0.69260 0.12450 -0.09700
C 	C 	0.69300 0.77940 0.25040 -0.09700
C 	C 	0.69600 0.77870 0.30830 0.05100
C 	C 	0.80500 0.21720 0.87220 0.07600
C 	C 	0.80750 0.21510 0.81300 -0.12800
H 	H 	0.55680 0.60750 0.96090 0.07400
H 	H 	0.57220 0.39220 0.02000 0.07000
H 	H 	0.80410 0.65700 0.04500 -0.02000
H 	H 	0.80650 0.65090 0.14330 0.05400
H 	H 	0.65020 0.80080 0.23150 0.05400
H 	H 	0.65430 0.80080 0.32820 -0.01000
H 	H 	0.84470 0.19340 0.89310 -0.01400
H 	H 	0.84840 0.19030 0.79410 0.06900
Cd	Cd	0.75000 0.75000 0.43627 1.19700
N 	N 	0.75000 0.75000 0.53680 -0.26000
N 	N 	0.75000 0.75000 0.83900 -0.26600
C 	C 	0.75000 0.75000 0.65530 0.07200
C 	C 	0.75000 0.75000 0.71990 0.09100
Cd	Cd	0.25000 0.25000 0.06373 1.19300
N 	N 	0.25000 0.25000 0.96320 -0.25200
N 	N 	0.25000 0.25000 0.66100 -0.26700
C 	C 	0.25000 0.25000 0.84470 0.06600
C 	C 	0.25000 0.25000 0.78010 0.09500
Cd	Cd	0.25000 0.25000 0.56373 1.19700
N 	N 	0.25000 0.25000 0.46320 -0.26000
N 	N 	0.25000 0.25000 0.16100 -0.26700
C 	C 	0.25000 0.25000 0.34470 0.07100
C 	C 	0.25000 0.25000 0.28010 0.09100
Cd	Cd	0.75000 0.75000 0.93627 1.20000
N 	N 	0.75000 0.75000 0.03680 -0.26800
N 	N 	0.75000 0.75000 0.33900 -0.26600
C 	C 	0.75000 0.75000 0.15530 0.07700
C 	C 	0.75000 0.75000 0.21990 0.08700
Cd	Cd	0.25000 0.75000 0.50000 1.19600
Cd	Cd	0.75000 0.25000 0.50000 1.19600
Cd	Cd	0.75000 0.25000 -0.00000 1.18800
Cd	Cd	0.25000 0.75000 -0.00000 1.18800
N 	N 	0.25000 0.75000 0.40070 -0.24700
C 	C 	0.25000 0.75000 0.28140 0.04900
N 	N 	0.75000 0.25000 0.40070 -0.24700
C 	C 	0.75000 0.25000 0.28140 0.04900
N 	N 	0.75000 0.25000 0.09930 -0.25000
C 	C 	0.75000 0.25000 0.21860 0.04900
N 	N 	0.25000 0.75000 0.09930 -0.25000
C 	C 	0.25000 0.75000 0.21860 0.04900
N 	N 	0.75000 0.25000 0.59930 -0.24700
C 	C 	0.75000 0.25000 0.71860 0.05000
N 	N 	0.25000 0.75000 0.59930 -0.24700
C 	C 	0.25000 0.75000 0.71860 0.05000
N 	N 	0.25000 0.75000 0.90070 -0.24200
C 	C 	0.25000 0.75000 0.78140 0.04900
N 	N 	0.75000 0.25000 0.90070 -0.24200
C 	C 	0.75000 0.25000 0.78140 0.04900
