data_crystal

_cell_length_a 12.41300
_cell_length_b 12.41300
_cell_length_c 23.03000
_cell_angle_alpha 90.00000
_cell_angle_beta  90.00000
_cell_angle_gamma 90.00000

_symmetry_space_group_name_	'P 1'
_symmetry_space_group_name_H-M	'P 1'

loop_
_symmetry_equiv_pos_as_xyz
  x,y,z

loop_
_atom_site_label
_atom_site_type_symbol
_atom_site_fract_x
_atom_site_fract_y
_atom_site_fract_z
_atom_site_charge
C 	C 	0.08500 0.97290 0.87370 0.04900
C 	C 	0.08730 0.97230 0.81400 -0.05900
H 	H 	0.14870 0.95290 0.89390 0.00600
H 	H 	0.15170 0.95160 0.79470 0.04900
C 	C 	0.58500 0.47290 0.37370 0.04200
C 	C 	0.58730 0.47230 0.31400 -0.08700
H 	H 	0.64870 0.45290 0.39390 -0.00300
H 	H 	0.65170 0.45160 0.29470 0.05100
C 	C 	0.91500 0.02710 0.87370 0.04800
C 	C 	0.91270 0.02770 0.81400 -0.06200
H 	H 	0.85130 0.04710 0.89390 0.00000
H 	H 	0.84830 0.04840 0.79470 0.04300
C 	C 	0.41500 0.52710 0.37370 0.04200
C 	C 	0.41270 0.52770 0.31400 -0.08600
H 	H 	0.35130 0.54710 0.39390 -0.00300
H 	H 	0.34830 0.54840 0.29470 0.05000
C 	C 	0.02710 0.08500 0.87370 0.01600
C 	C 	0.02770 0.08730 0.81400 -0.08400
H 	H 	0.04710 0.14870 0.89390 0.00600
H 	H 	0.04840 0.15170 0.79470 0.04600
C 	C 	0.52710 0.58500 0.37370 0.04300
C 	C 	0.52770 0.58730 0.31400 -0.08600
H 	H 	0.54710 0.64870 0.39390 -0.00200
H 	H 	0.54840 0.65170 0.29470 0.05300
C 	C 	0.97290 0.91500 0.87370 0.06400
C 	C 	0.97230 0.91270 0.81400 -0.03900
H 	H 	0.95290 0.85130 0.89390 0.00500
H 	H 	0.95160 0.84830 0.79470 0.04700
C 	C 	0.47290 0.41500 0.37370 0.04200
C 	C 	0.47230 0.41270 0.31400 -0.08600
H 	H 	0.45290 0.35130 0.39390 -0.00400
H 	H 	0.45160 0.34830 0.29470 0.04900
C 	C 	0.91500 0.97290 0.62630 0.06600
C 	C 	0.91270 0.97230 0.68600 -0.04200
H 	H 	0.85130 0.95290 0.60610 -0.00200
H 	H 	0.84830 0.95160 0.70530 0.04700
C 	C 	0.41500 0.47290 0.12630 0.04200
C 	C 	0.41270 0.47230 0.18600 -0.08600
H 	H 	0.35130 0.45290 0.10610 -0.00300
H 	H 	0.34830 0.45160 0.20530 0.04900
C 	C 	0.08500 0.02710 0.62630 0.01700
C 	C 	0.08730 0.02770 0.68600 -0.08700
H 	H 	0.14870 0.04710 0.60610 -0.00100
H 	H 	0.15170 0.04840 0.70530 0.04500
C 	C 	0.58500 0.52710 0.12630 0.04300
C 	C 	0.58730 0.52770 0.18600 -0.08600
H 	H 	0.64870 0.54710 0.10610 -0.00200
H 	H 	0.65170 0.54840 0.20530 0.05300
C 	C 	0.97290 0.08500 0.62630 0.05200
C 	C 	0.97230 0.08730 0.68600 -0.06100
H 	H 	0.95290 0.14870 0.60610 -0.00000
H 	H 	0.95160 0.15170 0.70530 0.05000
C 	C 	0.47290 0.58500 0.12630 0.04300
C 	C 	0.47230 0.58730 0.18600 -0.08600
H 	H 	0.45290 0.64870 0.10610 -0.00200
H 	H 	0.45160 0.65170 0.20530 0.05200
C 	C 	0.02710 0.91500 0.62630 0.05100
C 	C 	0.02770 0.91270 0.68600 -0.06300
H 	H 	0.04710 0.85130 0.60610 -0.00700
H 	H 	0.04840 0.84830 0.70530 0.04300
C 	C 	0.52710 0.41500 0.12630 0.04200
C 	C 	0.52770 0.41270 0.18600 -0.08600
H 	H 	0.54710 0.35130 0.10610 -0.00300
H 	H 	0.54840 0.34830 0.20530 0.05000
C 	C 	0.91500 0.02710 0.12630 0.05000
C 	C 	0.91270 0.02770 0.18600 -0.06100
H 	H 	0.85130 0.04710 0.10610 -0.00700
H 	H 	0.84830 0.04840 0.20530 0.04100
C 	C 	0.41500 0.52710 0.62630 0.04300
C 	C 	0.41270 0.52770 0.68600 -0.08700
H 	H 	0.35130 0.54710 0.60610 -0.00300
H 	H 	0.34830 0.54840 0.70530 0.05100
C 	C 	0.08500 0.97290 0.12630 0.05100
C 	C 	0.08730 0.97230 0.18600 -0.05900
H 	H 	0.14870 0.95290 0.10610 -0.00000
H 	H 	0.15170 0.95160 0.20530 0.04900
C 	C 	0.58500 0.47290 0.62630 0.04300
C 	C 	0.58730 0.47230 0.68600 -0.08700
H 	H 	0.64870 0.45290 0.60610 -0.00200
H 	H 	0.65170 0.45160 0.70530 0.05300
C 	C 	0.97290 0.91500 0.12630 0.06700
C 	C 	0.97230 0.91270 0.18600 -0.03900
H 	H 	0.95290 0.85130 0.10610 -0.00100
H 	H 	0.95160 0.84830 0.20530 0.04600
C 	C 	0.47290 0.41500 0.62630 0.04200
C 	C 	0.47230 0.41270 0.68600 -0.08700
H 	H 	0.45290 0.35130 0.60610 -0.00300
H 	H 	0.45160 0.34830 0.70530 0.05000
C 	C 	0.02710 0.08500 0.12630 0.01500
C 	C 	0.02770 0.08730 0.18600 -0.08600
H 	H 	0.04710 0.14870 0.10610 -0.00100
H 	H 	0.04840 0.15170 0.20530 0.04400
C 	C 	0.52710 0.58500 0.62630 0.04300
C 	C 	0.52770 0.58730 0.68600 -0.08700
H 	H 	0.54710 0.64870 0.60610 -0.00200
H 	H 	0.54840 0.65170 0.70530 0.05400
C 	C 	0.08500 0.02710 0.37370 0.01600
C 	C 	0.08730 0.02770 0.31400 -0.08600
H 	H 	0.14870 0.04710 0.39390 -0.00100
H 	H 	0.15170 0.04840 0.29470 0.04400
C 	C 	0.58500 0.52710 0.87370 0.04200
C 	C 	0.58730 0.52770 0.81400 -0.08400
H 	H 	0.64870 0.54710 0.89390 0.00500
H 	H 	0.65170 0.54840 0.79470 0.05400
C 	C 	0.91500 0.97290 0.37370 0.06600
C 	C 	0.91270 0.97230 0.31400 -0.03900
H 	H 	0.85130 0.95290 0.39390 -0.00200
H 	H 	0.84830 0.95160 0.29470 0.04600
C 	C 	0.41500 0.47290 0.87370 0.04100
C 	C 	0.41270 0.47230 0.81400 -0.08400
H 	H 	0.35130 0.45290 0.89390 0.00400
H 	H 	0.34830 0.45160 0.79470 0.05000
C 	C 	0.02710 0.91500 0.37370 0.05000
C 	C 	0.02770 0.91270 0.31400 -0.06200
H 	H 	0.04710 0.85130 0.39390 -0.00700
H 	H 	0.04840 0.84830 0.29470 0.04100
C 	C 	0.52710 0.41500 0.87370 0.04100
C 	C 	0.52770 0.41270 0.81400 -0.08400
H 	H 	0.54710 0.35130 0.89390 0.00400
H 	H 	0.54840 0.34830 0.79470 0.05100
C 	C 	0.97290 0.08500 0.37370 0.05100
C 	C 	0.97230 0.08730 0.31400 -0.05900
H 	H 	0.95290 0.14870 0.39390 -0.00000
H 	H 	0.95160 0.15170 0.29470 0.04900
C 	C 	0.47290 0.58500 0.87370 0.04200
C 	C 	0.47230 0.58730 0.81400 -0.08500
H 	H 	0.45290 0.64870 0.89390 0.00400
H 	H 	0.45160 0.65170 0.79470 0.05300
Fe	Fe	-0.00000 0.00000 -0.00000 1.10200
Fe	Fe	0.50000 0.50000 0.50000 1.12800
Fe	Fe	0.00000 0.00000 0.50000 1.10700
Fe	Fe	0.50000 0.50000 -0.00000 1.12300
N 	N 	0.10029 0.86004 -0.00000 -0.25900
C 	C 	0.13530 0.77330 -0.00000 0.10100
C 	C 	0.97230 0.60520 -0.00000 0.02600
H 	H 	0.95080 0.67870 -0.00000 0.02300
N 	N 	0.60029 0.36004 0.50000 -0.26100
C 	C 	0.63530 0.27330 0.50000 0.11100
C 	C 	0.47230 0.10520 0.50000 0.00100
H 	H 	0.45080 0.17870 0.50000 0.02500
N 	N 	0.89971 0.13996 -0.00000 -0.26300
C 	C 	0.86470 0.22670 -0.00000 0.13300
C 	C 	0.02770 0.39480 -0.00000 -0.17100
H 	H 	0.04920 0.32130 -0.00000 0.07300
N 	N 	0.39971 0.63996 0.50000 -0.26700
C 	C 	0.36470 0.72670 0.50000 0.13100
C 	C 	0.52770 0.89480 0.50000 -0.14200
H 	H 	0.54920 0.82130 0.50000 0.07400
N 	N 	0.13996 0.10029 -0.00000 -0.26900
C 	C 	0.22670 0.13530 -0.00000 0.09800
C 	C 	0.39480 0.97230 -0.00000 0.02700
H 	H 	0.32130 0.95080 -0.00000 0.02200
N 	N 	0.63996 0.60029 0.50000 -0.26700
C 	C 	0.72670 0.63530 0.50000 0.13200
C 	C 	0.89480 0.47230 0.50000 -0.14300
H 	H 	0.82130 0.45080 0.50000 0.07400
N 	N 	0.86004 0.89971 -0.00000 -0.25500
C 	C 	0.77330 0.86470 -0.00000 0.13400
C 	C 	0.60520 0.02770 -0.00000 -0.17000
H 	H 	0.67870 0.04920 -0.00000 0.07400
N 	N 	0.36004 0.39971 0.50000 -0.26100
C 	C 	0.27330 0.36470 0.50000 0.11000
C 	C 	0.10520 0.52770 0.50000 0.00200
H 	H 	0.17870 0.54920 0.50000 0.02500
N 	N 	0.89971 0.86004 0.50000 -0.25300
C 	C 	0.86470 0.77330 0.50000 0.13700
C 	C 	0.02770 0.60520 0.50000 -0.16600
H 	H 	0.04920 0.67870 0.50000 0.07500
N 	N 	0.39971 0.36004 -0.00000 -0.26300
C 	C 	0.36470 0.27330 -0.00000 0.10600
C 	C 	0.52770 0.10520 -0.00000 0.00300
H 	H 	0.54920 0.17870 -0.00000 0.02200
N 	N 	0.10029 0.13996 0.50000 -0.26600
C 	C 	0.13530 0.22670 0.50000 0.10300
C 	C 	0.97230 0.39480 0.50000 0.02500
H 	H 	0.95080 0.32130 0.50000 0.02500
N 	N 	0.60029 0.63996 -0.00000 -0.27000
C 	C 	0.63530 0.72670 -0.00000 0.12800
C 	C 	0.47230 0.89480 -0.00000 -0.14700
H 	H 	0.45080 0.82130 -0.00000 0.07300
N 	N 	0.86004 0.10029 0.50000 -0.25700
C 	C 	0.77330 0.13530 0.50000 0.10500
C 	C 	0.60520 0.97230 0.50000 0.02400
H 	H 	0.67870 0.95080 0.50000 0.02500
N 	N 	0.36004 0.60029 -0.00000 -0.26400
C 	C 	0.27330 0.63530 -0.00000 0.10700
C 	C 	0.10520 0.47230 -0.00000 0.00200
H 	H 	0.17870 0.45080 -0.00000 0.02200
N 	N 	0.13996 0.89971 0.50000 -0.26100
C 	C 	0.22670 0.86470 0.50000 0.13600
C 	C 	0.39480 0.02770 0.50000 -0.16600
H 	H 	0.32130 0.04920 0.50000 0.07400
N 	N 	0.63996 0.39971 -0.00000 -0.26900
C 	C 	0.72670 0.36470 -0.00000 0.12800
C 	C 	0.89480 0.52770 -0.00000 -0.14600
H 	H 	0.82130 0.54920 -0.00000 0.07300
N 	N 	0.00000 0.00000 0.90394 -0.26600
C 	C 	0.00000 0.00000 0.78220 0.00500
N 	N 	0.50000 0.50000 0.40394 -0.24400
C 	C 	0.50000 0.50000 0.28220 0.06900
N 	N 	0.00000 0.00000 0.59606 -0.27300
C 	C 	0.00000 0.00000 0.71780 0.00900
N 	N 	0.50000 0.50000 0.09606 -0.24400
C 	C 	0.50000 0.50000 0.21780 0.06900
N 	N 	0.00000 0.00000 0.09606 -0.27400
C 	C 	0.00000 0.00000 0.21780 0.00400
N 	N 	0.50000 0.50000 0.59606 -0.24400
C 	C 	0.50000 0.50000 0.71780 0.07100
N 	N 	0.00000 0.00000 0.40394 -0.27300
C 	C 	-0.00000 -0.00000 0.28220 0.00500
N 	N 	0.50000 0.50000 0.90394 -0.23800
C 	C 	0.50000 0.50000 0.78220 0.06600
C 	C 	0.16400 0.66400 -0.00000 -0.11100
C 	C 	0.08070 0.58070 -0.00000 -0.02100
C 	C 	0.83600 0.33600 -0.00000 -0.16800
C 	C 	0.91930 0.41930 -0.00000 0.14600
C 	C 	0.33600 0.16400 -0.00000 -0.11100
C 	C 	0.41930 0.08070 -0.00000 -0.02200
C 	C 	0.66400 0.83600 -0.00000 -0.16700
C 	C 	0.58070 0.91930 -0.00000 0.14600
C 	C 	0.83600 0.66400 0.50000 -0.16600
C 	C 	0.91930 0.58070 0.50000 0.14500
C 	C 	0.16400 0.33600 0.50000 -0.11200
C 	C 	0.08070 0.41930 0.50000 -0.01700
C 	C 	0.66400 0.16400 0.50000 -0.11100
C 	C 	0.58070 0.08070 0.50000 -0.01500
C 	C 	0.33600 0.83600 0.50000 -0.16600
C 	C 	0.41930 0.91930 0.50000 0.14600
