data_crystal

_cell_length_a 9.27200
_cell_length_b 9.27200
_cell_length_c 17.71600
_cell_angle_alpha 90.00000
_cell_angle_beta  90.00000
_cell_angle_gamma 120.00000

_symmetry_space_group_name_	'P 1'
_symmetry_space_group_name_H-M	'P 1'

loop_
_symmetry_equiv_pos_as_xyz
  x,y,z

loop_
_atom_site_label
_atom_site_type_symbol
_atom_site_fract_x
_atom_site_fract_y
_atom_site_fract_z
_atom_site_charge
La	La	0.33333 0.66666 0.75000 1.64700
La	La	0.66667 0.33334 0.25000 1.64600
Gd	Gd	-0.00000 0.00000 -0.00000 1.26000
Gd	Gd	0.00000 0.00000 0.50000 1.31000
H 	H 	0.57350 0.59980 0.91810 0.12300
H 	H 	0.50950 0.67760 0.97650 0.12500
H 	H 	0.02630 0.42650 0.91810 0.06400
H 	H 	0.16810 0.49050 0.97650 0.09000
H 	H 	0.40020 0.97370 0.91810 0.10800
H 	H 	0.32240 0.83190 0.97650 0.08900
H 	H 	0.57350 0.59980 0.58190 0.13000
H 	H 	0.50950 0.67760 0.52350 0.12800
H 	H 	0.02630 0.42650 0.58190 0.07400
H 	H 	0.16810 0.49050 0.52350 0.09500
H 	H 	0.40020 0.97370 0.58190 0.11700
H 	H 	0.32240 0.83190 0.52350 0.09300
H 	H 	0.97370 0.40020 0.08190 0.10400
H 	H 	0.83190 0.32240 0.02350 0.07700
H 	H 	0.59980 0.57350 0.08190 0.11800
H 	H 	0.67760 0.50950 0.02350 0.11500
H 	H 	0.42650 0.02630 0.08190 0.06700
H 	H 	0.49050 0.16810 0.02350 0.08400
H 	H 	0.97370 0.40020 0.41810 0.11500
H 	H 	0.83190 0.32240 0.47650 0.09100
H 	H 	0.59980 0.57350 0.41810 0.12900
H 	H 	0.67760 0.50950 0.47650 0.12900
H 	H 	0.42650 0.02630 0.41810 0.07700
H 	H 	0.49050 0.16810 0.47650 0.09800
C 	C 	0.65720 0.84130 0.89530 0.43000
C 	C 	0.60320 0.69570 0.94780 -0.24400
C 	C 	0.18410 0.34280 0.89530 0.40500
C 	C 	0.09250 0.39680 0.94780 -0.18100
C 	C 	0.15870 0.81590 0.89530 0.40800
C 	C 	0.30430 0.90750 0.94780 -0.10900
C 	C 	0.65720 0.84130 0.60470 0.44300
C 	C 	0.60320 0.69570 0.55220 -0.29400
C 	C 	0.18410 0.34280 0.60470 0.42000
C 	C 	0.09250 0.39680 0.55220 -0.23700
C 	C 	0.15870 0.81590 0.60470 0.42200
C 	C 	0.30430 0.90750 0.55220 -0.16100
C 	C 	0.81590 0.15870 0.10470 0.40800
C 	C 	0.90750 0.30430 0.05220 -0.12200
C 	C 	0.84130 0.65720 0.10470 0.43300
C 	C 	0.69570 0.60320 0.05220 -0.27300
C 	C 	0.34280 0.18410 0.10470 0.41200
C 	C 	0.39680 0.09250 0.05220 -0.22200
C 	C 	0.81590 0.15870 0.39530 0.41800
C 	C 	0.90750 0.30430 0.44780 -0.14600
C 	C 	0.84130 0.65720 0.39530 0.44300
C 	C 	0.69570 0.60320 0.44780 -0.29400
C 	C 	0.34280 0.18410 0.39530 0.42200
C 	C 	0.39680 0.09250 0.44780 -0.24400
O 	O 	0.79550 0.96790 0.90713 -0.26500
O 	O 	0.55900 0.82710 0.84415 -0.41500
O 	O 	0.17240 0.20450 0.90713 -0.38900
O 	O 	0.26810 0.44100 0.84415 -0.44600
O 	O 	0.03210 0.82760 0.90713 -0.36300
O 	O 	0.17290 0.73190 0.84415 -0.44100
O 	O 	0.79550 0.96790 0.59287 -0.28600
O 	O 	0.55900 0.82710 0.65585 -0.42100
O 	O 	0.17240 0.20450 0.59287 -0.41200
O 	O 	0.26810 0.44100 0.65585 -0.45200
O 	O 	0.03210 0.82760 0.59287 -0.38500
O 	O 	0.17290 0.73190 0.65585 -0.44800
O 	O 	0.82760 0.03210 0.09287 -0.37400
O 	O 	0.73190 0.17290 0.15585 -0.44300
O 	O 	0.96790 0.79550 0.09287 -0.28200
O 	O 	0.82710 0.55900 0.15585 -0.41800
O 	O 	0.20450 0.17240 0.09287 -0.41200
O 	O 	0.44100 0.26810 0.15585 -0.45200
O 	O 	0.82760 0.03210 0.40713 -0.37800
O 	O 	0.73190 0.17290 0.34415 -0.44600
O 	O 	0.96790 0.79550 0.40713 -0.28600
O 	O 	0.82710 0.55900 0.34415 -0.42100
O 	O 	0.20450 0.17240 0.40713 -0.41600
O 	O 	0.44100 0.26810 0.34415 -0.45400
O 	O 	0.73170 0.73170 -0.00000 -0.13700
O 	O 	-0.00000 0.26830 -0.00000 -0.29600
O 	O 	0.26830 0.00000 -0.00000 -0.28400
O 	O 	0.73170 0.73170 0.50000 -0.10500
O 	O 	-0.00000 0.26830 0.50000 -0.26100
O 	O 	0.26830 0.00000 0.50000 -0.25200
