data_crystal

_cell_length_a 11.53770
_cell_length_b 20.72380
_cell_length_c 23.58440
_cell_angle_alpha 90.00000
_cell_angle_beta  90.00000
_cell_angle_gamma 90.00000

_symmetry_space_group_name_	'P 1'
_symmetry_space_group_name_H-M	'P 1'

loop_
_symmetry_equiv_pos_as_xyz
  x,y,z

loop_
_atom_site_label
_atom_site_type_symbol
_atom_site_fract_x
_atom_site_fract_y
_atom_site_fract_z
_atom_site_charge
Gd	Gd	0.58132 0.96430 0.26826 1.41800
C 	C 	0.75580 0.95550 0.38380 0.36500
N 	N 	0.86100 0.91770 0.46850 -0.32300
H 	H 	0.85960 0.91510 0.50620 0.11100
H 	H 	0.92320 0.93990 0.45760 0.11300
H 	H 	0.86400 0.87820 0.45380 0.10400
Gd	Gd	0.91644 0.97318 0.26563 1.41700
C 	C 	0.75520 0.95080 0.44840 0.01600
H 	H 	0.68650 0.92690 0.46090 0.00900
N 	N 	0.38010 0.75440 0.27780 -0.33600
H 	H 	0.34960 0.71830 0.29180 0.13300
H 	H 	0.33910 0.76720 0.24790 0.11600
H 	H 	0.37880 0.78510 0.30420 0.11000
Gd	Gd	0.75622 0.87716 0.15220 1.33900
C 	C 	0.75110 0.01920 0.47140 -0.40200
H 	H 	0.81800 0.04250 0.45730 0.12700
H 	H 	0.68250 0.04030 0.45650 0.12800
N 	N 	0.89680 0.67980 0.20560 -0.32900
H 	H 	0.86660 0.71470 0.18930 0.13000
H 	H 	0.85050 0.66670 0.23360 0.11500
H 	H 	0.90360 0.64850 0.18000 0.10600
Gd	Gd	0.73558 0.06678 0.15727 1.36000
C 	C 	0.74920 0.02460 0.53560 0.48500
C 	C 	0.55450 0.80440 0.23640 0.34500
C 	C 	0.50260 0.74200 0.26020 0.02700
H 	H 	0.54650 0.73060 0.29430 0.00500
C 	C 	0.50870 0.68600 0.22080 -0.39600
H 	H 	0.58810 0.68140 0.20790 0.13500
H 	H 	0.46130 0.69540 0.18780 0.12500
C 	C 	0.46940 0.62180 0.24590 0.47200
C 	C 	0.06700 0.63630 0.25750 0.37000
C 	C 	0.01620 0.69610 0.22970 0.00300
H 	H 	0.06660 0.70800 0.19790 0.00900
C 	C 	0.00880 0.75380 0.26940 -0.39500
H 	H 	0.95830 0.74260 0.30070 0.12500
H 	H 	0.08530 0.76170 0.28490 0.13400
C 	C 	0.96520 0.81580 0.24350 0.48400
O 	O 	0.75360 0.90511 0.25095 -0.62200
H 	H 	0.75760 0.86650 0.27490 0.17600
O 	O 	0.74340 0.03340 0.25634 -0.62100
H 	H 	0.74120 0.07030 0.28230 0.17200
O 	O 	0.86180 0.97540 0.16925 -0.64200
H 	H 	0.92970 0.97860 0.14450 0.12300
O 	O 	0.62580 0.96850 0.17074 -0.63200
H 	H 	0.55610 0.96720 0.14700 0.12000
O 	O 	0.85310 0.95760 0.35980 -0.46400
O 	O 	0.65920 0.95890 0.36080 -0.46900
O 	O 	0.74470 0.07990 0.55682 -0.51200
O 	O 	0.75420 0.97280 0.56317 -0.51200
O 	O 	0.51340 0.85680 0.25590 -0.47500
O 	O 	0.63300 0.79850 0.20170 -0.44800
O 	O 	0.41240 0.62430 0.29220 -0.48600
O 	O 	0.49620 0.57140 0.22090 -0.50900
O 	O 	0.02320 0.58330 0.24300 -0.48600
O 	O 	0.14980 0.64450 0.28870 -0.46200
O 	O 	0.99410 0.86710 0.26680 -0.51800
O 	O 	0.89750 0.81120 0.20170 -0.48500
Gd	Gd	0.91868 0.03570 0.76826 1.41700
C 	C 	0.74420 0.04450 0.88380 0.36500
N 	N 	0.63900 0.08230 0.96850 -0.32500
H 	H 	0.64040 0.08490 0.00620 0.11100
H 	H 	0.57680 0.06010 0.95760 0.11200
H 	H 	0.63600 0.12180 0.95380 0.10300
Gd	Gd	0.58356 0.02682 0.76563 1.41800
C 	C 	0.74480 0.04920 0.94840 0.01400
H 	H 	0.81350 0.07310 0.96090 0.00900
N 	N 	0.11990 0.24560 0.77780 -0.33600
H 	H 	0.15040 0.28170 0.79180 0.13300
H 	H 	0.16090 0.23280 0.74790 0.11600
H 	H 	0.12120 0.21490 0.80420 0.11000
Gd	Gd	0.74378 0.12284 0.65220 1.34000
C 	C 	0.74890 0.98080 0.97140 -0.39600
H 	H 	0.68200 0.95750 0.95730 0.12500
H 	H 	0.81750 0.95970 0.95650 0.12700
N 	N 	0.60320 0.32020 0.70560 -0.32900
H 	H 	0.63340 0.28530 0.68930 0.13100
H 	H 	0.64950 0.33330 0.73360 0.11500
H 	H 	0.59640 0.35150 0.68000 0.10600
Gd	Gd	0.76442 0.93322 0.65727 1.35900
C 	C 	0.75080 0.97540 0.03560 0.47900
C 	C 	0.94550 0.19560 0.73640 0.34500
C 	C 	0.99740 0.25800 0.76020 0.02600
H 	H 	0.95350 0.26940 0.79430 0.00600
C 	C 	0.99130 0.31400 0.72080 -0.39300
H 	H 	0.91190 0.31860 0.70790 0.13400
H 	H 	0.03870 0.30460 0.68780 0.12400
C 	C 	0.03060 0.37820 0.74590 0.47100
C 	C 	0.43300 0.36370 0.75750 0.36900
C 	C 	0.48380 0.30390 0.72970 0.00400
H 	H 	0.43340 0.29200 0.69790 0.00900
C 	C 	0.49120 0.24620 0.76940 -0.39800
H 	H 	0.54170 0.25740 0.80070 0.12600
H 	H 	0.41470 0.23830 0.78490 0.13400
C 	C 	0.53480 0.18420 0.74350 0.48500
O 	O 	0.74640 0.09489 0.75095 -0.62200
H 	H 	0.74240 0.13350 0.77490 0.17600
O 	O 	0.75660 0.96660 0.75634 -0.62100
H 	H 	0.75880 0.92970 0.78230 0.17200
O 	O 	0.63820 0.02460 0.66925 -0.64200
H 	H 	0.57030 0.02140 0.64450 0.12300
O 	O 	0.87420 0.03150 0.67074 -0.63100
H 	H 	0.94390 0.03280 0.64700 0.12100
O 	O 	0.64690 0.04240 0.85980 -0.46400
O 	O 	0.84080 0.04110 0.86080 -0.46900
O 	O 	0.75530 0.92010 0.05682 -0.51100
O 	O 	0.74580 0.02720 0.06317 -0.50900
O 	O 	0.98660 0.14320 0.75590 -0.47500
O 	O 	0.86700 0.20150 0.70170 -0.44800
O 	O 	0.08760 0.37570 0.79220 -0.48600
O 	O 	0.00380 0.42860 0.72090 -0.50900
O 	O 	0.47680 0.41670 0.74300 -0.48500
O 	O 	0.35020 0.35550 0.78870 -0.46200
O 	O 	0.50590 0.13290 0.76680 -0.51800
O 	O 	0.60250 0.18880 0.70170 -0.48500
Gd	Gd	0.41868 0.46430 0.23174 1.41700
C 	C 	0.24420 0.45550 0.11620 0.36400
N 	N 	0.13900 0.41770 0.03150 -0.32400
H 	H 	0.14040 0.41510 0.99380 0.10900
H 	H 	0.07680 0.43990 0.04240 0.11200
H 	H 	0.13600 0.37820 0.04620 0.10300
Gd	Gd	0.08356 0.47318 0.23437 1.41800
C 	C 	0.24480 0.45080 0.05160 0.01600
H 	H 	0.31350 0.42690 0.03910 0.00900
N 	N 	0.61990 0.25440 0.22220 -0.33600
H 	H 	0.65040 0.21830 0.20820 0.13300
H 	H 	0.66090 0.26720 0.25210 0.11600
H 	H 	0.62120 0.28510 0.19580 0.11000
Gd	Gd	0.24378 0.37716 0.34780 1.34000
C 	C 	0.24890 0.51920 0.02860 -0.40200
H 	H 	0.18200 0.54250 0.04270 0.12600
H 	H 	0.31750 0.54030 0.04350 0.12800
N 	N 	0.10320 0.17980 0.29440 -0.32900
H 	H 	0.13340 0.21470 0.31070 0.13000
H 	H 	0.14950 0.16670 0.26640 0.11500
H 	H 	0.09640 0.14850 0.32000 0.10600
Gd	Gd	0.26442 0.56678 0.34273 1.35800
C 	C 	0.25080 0.52460 0.96440 0.48400
C 	C 	0.44550 0.30440 0.26360 0.34500
C 	C 	0.49740 0.24200 0.23980 0.02700
H 	H 	0.45350 0.23060 0.20570 0.00500
C 	C 	0.49130 0.18600 0.27920 -0.39600
H 	H 	0.41190 0.18140 0.29210 0.13500
H 	H 	0.53870 0.19540 0.31220 0.12500
C 	C 	0.53060 0.12180 0.25410 0.47200
C 	C 	0.93300 0.13630 0.24250 0.36900
C 	C 	0.98380 0.19610 0.27030 0.00400
H 	H 	0.93340 0.20800 0.30210 0.00900
C 	C 	0.99120 0.25380 0.23060 -0.39700
H 	H 	0.04170 0.24260 0.19930 0.12600
H 	H 	0.91470 0.26170 0.21510 0.13400
C 	C 	0.03480 0.31580 0.25650 0.48500
O 	O 	0.24640 0.40511 0.24905 -0.62200
H 	H 	0.24240 0.36650 0.22510 0.17600
O 	O 	0.25660 0.53340 0.24366 -0.62200
H 	H 	0.25880 0.57030 0.21770 0.17200
O 	O 	0.13820 0.47540 0.33075 -0.64200
H 	H 	0.07030 0.47860 0.35550 0.12300
O 	O 	0.37420 0.46850 0.32926 -0.63100
H 	H 	0.44390 0.46720 0.35300 0.12100
O 	O 	0.14690 0.45760 0.14020 -0.46400
O 	O 	0.34080 0.45890 0.13920 -0.46900
O 	O 	0.25530 0.57990 0.94318 -0.51200
O 	O 	0.24580 0.47280 0.93683 -0.51200
O 	O 	0.48660 0.35680 0.24410 -0.47500
O 	O 	0.36700 0.29850 0.29830 -0.44800
O 	O 	0.58760 0.12430 0.20780 -0.48600
O 	O 	0.50380 0.07140 0.27910 -0.50900
O 	O 	0.97680 0.08330 0.25700 -0.48500
O 	O 	0.85020 0.14450 0.21130 -0.46200
O 	O 	0.00590 0.36710 0.23320 -0.51800
O 	O 	0.10250 0.31120 0.29830 -0.48500
Gd	Gd	0.08132 0.53570 0.73174 1.41700
C 	C 	0.25580 0.54450 0.61620 0.36400
N 	N 	0.36100 0.58230 0.53150 -0.32400
H 	H 	0.35960 0.58490 0.49380 0.11000
H 	H 	0.42320 0.56010 0.54240 0.11200
H 	H 	0.36400 0.62180 0.54620 0.10300
Gd	Gd	0.41644 0.52682 0.73437 1.41800
C 	C 	0.25520 0.54920 0.55160 0.01700
H 	H 	0.18650 0.57310 0.53910 0.00900
N 	N 	0.88010 0.74560 0.72220 -0.33600
H 	H 	0.84960 0.78170 0.70820 0.13300
H 	H 	0.83910 0.73280 0.75210 0.11600
H 	H 	0.87880 0.71490 0.69580 0.11000
Gd	Gd	0.25622 0.62284 0.84780 1.34000
C 	C 	0.25110 0.48080 0.52860 -0.40200
H 	H 	0.31800 0.45750 0.54270 0.12700
H 	H 	0.18250 0.45970 0.54350 0.12800
N 	N 	0.39680 0.82020 0.79440 -0.32900
H 	H 	0.36660 0.78530 0.81070 0.13100
H 	H 	0.35050 0.83330 0.76640 0.11500
H 	H 	0.40360 0.85150 0.82000 0.10700
Gd	Gd	0.23558 0.43322 0.84273 1.35800
C 	C 	0.24920 0.47540 0.46440 0.48400
C 	C 	0.05450 0.69560 0.76360 0.34500
C 	C 	0.00260 0.75800 0.73980 0.02600
H 	H 	0.04650 0.76940 0.70570 0.00600
C 	C 	0.00870 0.81400 0.77920 -0.39500
H 	H 	0.08810 0.81860 0.79210 0.13400
H 	H 	0.96130 0.80460 0.81220 0.12400
C 	C 	0.96940 0.87820 0.75410 0.47200
C 	C 	0.56700 0.86370 0.74250 0.36900
C 	C 	0.51620 0.80390 0.77030 0.00400
H 	H 	0.56660 0.79200 0.80210 0.00900
C 	C 	0.50880 0.74620 0.73060 -0.39800
H 	H 	0.45830 0.75740 0.69930 0.12600
H 	H 	0.58530 0.73830 0.71510 0.13500
C 	C 	0.46520 0.68420 0.75650 0.48600
O 	O 	0.25360 0.59489 0.74905 -0.62200
H 	H 	0.25760 0.63350 0.72510 0.17600
O 	O 	0.24340 0.46660 0.74366 -0.62200
H 	H 	0.24120 0.42970 0.71770 0.17200
O 	O 	0.36180 0.52460 0.83075 -0.64200
H 	H 	0.42970 0.52140 0.85550 0.12300
O 	O 	0.12580 0.53150 0.82926 -0.63100
H 	H 	0.05610 0.53280 0.85300 0.12000
O 	O 	0.35310 0.54240 0.64020 -0.46400
O 	O 	0.15920 0.54110 0.63920 -0.46900
O 	O 	0.24470 0.42010 0.44318 -0.51200
O 	O 	0.25420 0.52720 0.43683 -0.51200
O 	O 	0.01340 0.64320 0.74410 -0.47500
O 	O 	0.13300 0.70150 0.79830 -0.44800
O 	O 	0.91240 0.87570 0.70780 -0.48600
O 	O 	0.99620 0.92860 0.77910 -0.50900
O 	O 	0.52320 0.91670 0.75700 -0.48500
O 	O 	0.64980 0.85550 0.71130 -0.46200
O 	O 	0.49410 0.63290 0.73320 -0.51800
O 	O 	0.39750 0.68880 0.79830 -0.48500
