data_crystal

_cell_length_a 11.56100
_cell_length_b 20.81600
_cell_length_c 23.67600
_cell_angle_alpha 90.00000
_cell_angle_beta  90.00000
_cell_angle_gamma 90.00000

_symmetry_space_group_name_	'P 1'
_symmetry_space_group_name_H-M	'P 1'

loop_
_symmetry_equiv_pos_as_xyz
  x,y,z

loop_
_atom_site_label
_atom_site_type_symbol
_atom_site_fract_x
_atom_site_fract_y
_atom_site_fract_z
_atom_site_charge
Eu	Eu	0.58077 0.96420 0.26840 1.72400
Eu	Eu	0.91725 0.97328 0.26576 1.69700
Eu	Eu	0.75634 0.87699 0.15193 1.59600
Eu	Eu	0.73532 0.06703 0.15705 1.62400
O 	O 	0.74090 0.03300 0.25630 -0.72900
H 	H 	0.73820 0.06970 0.28210 0.17900
N 	N 	0.10090 0.18120 0.29400 -0.32200
H 	H 	0.13080 0.21630 0.30980 0.11800
H 	H 	0.14700 0.16790 0.26620 0.10500
H 	H 	0.09470 0.15040 0.31990 0.09300
C 	C 	0.93130 0.13620 0.24450 0.37000
O 	O 	0.86220 0.97600 0.16930 -0.74600
H 	H 	0.93010 0.97930 0.14470 0.11800
C 	C 	0.98410 0.19630 0.27060 0.01500
H 	H 	0.93470 0.20900 0.30230 -0.00300
N 	N 	0.86090 0.91760 0.46870 -0.31600
H 	H 	0.85980 0.91540 0.50620 0.09600
H 	H 	0.92310 0.93940 0.45760 0.10000
H 	H 	0.86320 0.87810 0.45440 0.09100
O 	O 	0.75240 0.90510 0.25130 -0.72400
H 	H 	0.75630 0.86670 0.27520 0.18300
C 	C 	0.99210 0.25310 0.23080 -0.41700
H 	H 	0.91600 0.26050 0.21490 0.13300
H 	H 	0.04300 0.24140 0.19990 0.12300
N 	N 	0.38130 0.75520 0.27870 -0.32500
H 	H 	0.35060 0.71940 0.29280 0.12100
H 	H 	0.33990 0.76810 0.24910 0.10600
H 	H 	0.38100 0.78580 0.30490 0.09800
O 	O 	0.62400 0.96790 0.17060 -0.73200
H 	H 	0.55440 0.96650 0.14700 0.11700
C 	C 	0.03520 0.31600 0.25580 0.53100
O 	O 	0.97760 0.08410 0.25750 -0.54000
C 	C 	0.75400 0.95520 0.38390 0.39400
C 	C 	0.75690 0.95030 0.44890 0.01600
H 	H 	0.68890 0.92620 0.46170 -0.00100
O 	O 	0.84860 0.14600 0.21200 -0.49600
O 	O 	0.10040 0.31320 0.29730 -0.55000
C 	C 	0.74920 0.01850 0.47130 -0.42200
H 	H 	0.81340 0.04300 0.45620 0.12200
H 	H 	0.67840 0.03790 0.45730 0.12500
O 	O 	0.00720 0.36710 0.23240 -0.58500
C 	C 	0.75080 0.02410 0.53500 0.52300
O 	O 	0.65730 0.95960 0.36200 -0.52900
C 	C 	0.55320 0.80470 0.23720 0.36400
O 	O 	0.85090 0.95640 0.36020 -0.51900
C 	C 	0.50200 0.74240 0.26060 0.01700
H 	H 	0.54620 0.73110 0.29450 -0.00000
O 	O 	0.74380 0.07950 0.55560 -0.56800
C 	C 	0.50720 0.68540 0.22100 -0.40700
H 	H 	0.58580 0.68100 0.20730 0.13000
H 	H 	0.45810 0.69420 0.18860 0.12000
O 	O 	0.75480 0.97370 0.56290 -0.57700
C 	C 	0.47000 0.62200 0.24700 0.51200
O 	O 	0.51240 0.85640 0.25560 -0.53800
O 	O 	0.63250 0.79830 0.20140 -0.49000
O 	O 	0.41400 0.62460 0.29150 -0.55100
O 	O 	0.49620 0.57120 0.22100 -0.57000
Eu	Eu	0.91923 0.03580 0.76840 1.72400
Eu	Eu	0.58275 0.02672 0.76576 1.69700
Eu	Eu	0.74366 0.12301 0.65193 1.59600
Eu	Eu	0.76468 0.93297 0.65705 1.62200
O 	O 	0.75910 0.96700 0.75630 -0.72900
H 	H 	0.76180 0.93030 0.78210 0.17900
N 	N 	0.39910 0.81880 0.79400 -0.32200
H 	H 	0.36920 0.78370 0.80980 0.11900
H 	H 	0.35300 0.83210 0.76620 0.10600
H 	H 	0.40530 0.84960 0.81990 0.09300
C 	C 	0.56870 0.86380 0.74450 0.37000
O 	O 	0.63780 0.02400 0.66930 -0.74600
H 	H 	0.56990 0.02070 0.64470 0.11900
C 	C 	0.51590 0.80370 0.77060 0.01500
H 	H 	0.56530 0.79100 0.80230 -0.00300
N 	N 	0.63910 0.08240 0.96870 -0.31700
H 	H 	0.64020 0.08460 0.00620 0.09700
H 	H 	0.57690 0.06060 0.95760 0.10000
H 	H 	0.63680 0.12190 0.95440 0.09100
O 	O 	0.74760 0.09490 0.75130 -0.72500
H 	H 	0.74370 0.13330 0.77520 0.18300
C 	C 	0.50790 0.74690 0.73080 -0.41900
H 	H 	0.58400 0.73950 0.71490 0.13300
H 	H 	0.45700 0.75860 0.69990 0.12300
N 	N 	0.11870 0.24480 0.77870 -0.32500
H 	H 	0.14940 0.28060 0.79280 0.12100
H 	H 	0.16010 0.23190 0.74910 0.10600
H 	H 	0.11900 0.21420 0.80490 0.09700
O 	O 	0.87600 0.03210 0.67060 -0.73200
H 	H 	0.94560 0.03350 0.64700 0.11700
C 	C 	0.46480 0.68400 0.75580 0.53200
O 	O 	0.52240 0.91590 0.75750 -0.54000
C 	C 	0.74600 0.04480 0.88390 0.39500
C 	C 	0.74310 0.04970 0.94890 0.01300
H 	H 	0.81110 0.07380 0.96170 -0.00000
O 	O 	0.65140 0.85400 0.71200 -0.49600
O 	O 	0.39960 0.68680 0.79730 -0.55000
C 	C 	0.75080 0.98150 0.97130 -0.41500
H 	H 	0.68660 0.95700 0.95620 0.12100
H 	H 	0.82160 0.96210 0.95730 0.12400
O 	O 	0.49280 0.63290 0.73240 -0.58500
C 	C 	0.74920 0.97590 0.03500 0.51700
O 	O 	0.84270 0.04040 0.86200 -0.53000
C 	C 	0.94680 0.19530 0.73720 0.36400
O 	O 	0.64910 0.04360 0.86020 -0.52000
C 	C 	0.99800 0.25760 0.76060 0.01600
H 	H 	0.95380 0.26890 0.79450 -0.00000
O 	O 	0.75620 0.92050 0.05560 -0.56700
C 	C 	0.99280 0.31460 0.72100 -0.40400
H 	H 	0.91420 0.31900 0.70730 0.12900
H 	H 	0.04190 0.30580 0.68860 0.11900
O 	O 	0.74520 0.02630 0.06290 -0.57300
C 	C 	0.03000 0.37800 0.74700 0.51100
O 	O 	0.98760 0.14360 0.75560 -0.53800
O 	O 	0.86750 0.20170 0.70140 -0.49000
O 	O 	0.08600 0.37540 0.79150 -0.55100
O 	O 	0.00380 0.42880 0.72100 -0.57000
Eu	Eu	0.41923 0.46420 0.23160 1.72400
Eu	Eu	0.08275 0.47328 0.23424 1.69800
Eu	Eu	0.24366 0.37699 0.34807 1.59600
Eu	Eu	0.26468 0.56703 0.34295 1.62100
O 	O 	0.25910 0.53300 0.24370 -0.73000
H 	H 	0.26180 0.56970 0.21790 0.17900
N 	N 	0.89910 0.68120 0.20600 -0.32200
H 	H 	0.86920 0.71630 0.19020 0.11800
H 	H 	0.85300 0.66790 0.23380 0.10500
H 	H 	0.90530 0.65040 0.18010 0.09300
C 	C 	0.06870 0.63620 0.25550 0.37000
O 	O 	0.13780 0.47600 0.33070 -0.74500
H 	H 	0.06990 0.47930 0.35530 0.11900
C 	C 	0.01590 0.69630 0.22940 0.01500
H 	H 	0.06530 0.70900 0.19770 -0.00300
N 	N 	0.13910 0.41760 0.03130 -0.31500
H 	H 	0.14020 0.41540 0.99380 0.09500
H 	H 	0.07690 0.43940 0.04240 0.10000
H 	H 	0.13680 0.37810 0.04560 0.09100
O 	O 	0.24760 0.40510 0.24870 -0.72500
H 	H 	0.24370 0.36670 0.22480 0.18300
C 	C 	0.00790 0.75310 0.26920 -0.41600
H 	H 	0.08400 0.76050 0.28510 0.13300
H 	H 	0.95700 0.74140 0.30010 0.12200
N 	N 	0.61870 0.25520 0.22130 -0.32500
H 	H 	0.64940 0.21940 0.20720 0.12100
H 	H 	0.66010 0.26810 0.25090 0.10600
H 	H 	0.61900 0.28580 0.19510 0.09700
O 	O 	0.37600 0.46790 0.32940 -0.73200
H 	H 	0.44560 0.46650 0.35300 0.11700
C 	C 	0.96480 0.81600 0.24420 0.53100
O 	O 	0.02240 0.58410 0.24250 -0.54100
C 	C 	0.24600 0.45520 0.11610 0.39400
C 	C 	0.24310 0.45030 0.05110 0.01700
H 	H 	0.31110 0.42620 0.03830 -0.00100
O 	O 	0.15140 0.64600 0.28800 -0.49700
O 	O 	0.89960 0.81320 0.20270 -0.55000
C 	C 	0.25080 0.51850 0.02870 -0.42200
H 	H 	0.18660 0.54300 0.04380 0.12200
H 	H 	0.32160 0.53790 0.04270 0.12500
O 	O 	0.99280 0.86710 0.26760 -0.58500
C 	C 	0.24920 0.52410 0.96500 0.52300
O 	O 	0.34270 0.45960 0.13800 -0.53000
C 	C 	0.44680 0.30470 0.26280 0.36400
O 	O 	0.14910 0.45640 0.13980 -0.51900
C 	C 	0.49800 0.24240 0.23940 0.01600
H 	H 	0.45380 0.23110 0.20550 -0.00000
O 	O 	0.25620 0.57950 0.94440 -0.56800
C 	C 	0.49280 0.18540 0.27900 -0.40700
H 	H 	0.41420 0.18100 0.29270 0.13000
H 	H 	0.54190 0.19420 0.31140 0.12000
O 	O 	0.24520 0.47370 0.93710 -0.57700
C 	C 	0.53000 0.12200 0.25300 0.51200
O 	O 	0.48760 0.35640 0.24440 -0.53800
O 	O 	0.36750 0.29830 0.29860 -0.49000
O 	O 	0.58600 0.12460 0.20850 -0.55100
O 	O 	0.50380 0.07120 0.27900 -0.57000
Eu	Eu	0.08077 0.53580 0.73160 1.72400
Eu	Eu	0.41725 0.52672 0.73424 1.69800
Eu	Eu	0.25634 0.62301 0.84807 1.59600
Eu	Eu	0.23532 0.43297 0.84295 1.62100
O 	O 	0.24090 0.46700 0.74370 -0.73000
H 	H 	0.23820 0.43030 0.71790 0.17900
N 	N 	0.60090 0.31880 0.70600 -0.32200
H 	H 	0.63080 0.28370 0.69020 0.11800
H 	H 	0.64700 0.33210 0.73380 0.10500
H 	H 	0.59470 0.34960 0.68010 0.09300
C 	C 	0.43130 0.36380 0.75550 0.37000
O 	O 	0.36220 0.52400 0.83070 -0.74500
H 	H 	0.43010 0.52070 0.85530 0.11900
C 	C 	0.48410 0.30370 0.72940 0.01500
H 	H 	0.43470 0.29100 0.69770 -0.00300
N 	N 	0.36090 0.58240 0.53130 -0.31600
H 	H 	0.35980 0.58460 0.49380 0.09600
H 	H 	0.42310 0.56060 0.54240 0.10000
H 	H 	0.36320 0.62190 0.54560 0.09100
O 	O 	0.25240 0.59490 0.74870 -0.72500
H 	H 	0.25630 0.63330 0.72480 0.18300
C 	C 	0.49210 0.24690 0.76920 -0.41800
H 	H 	0.41600 0.23950 0.78510 0.13300
H 	H 	0.54300 0.25860 0.80010 0.12300
N 	N 	0.88130 0.74480 0.72130 -0.32500
H 	H 	0.85060 0.78060 0.70720 0.12100
H 	H 	0.83990 0.73190 0.75090 0.10600
H 	H 	0.88100 0.71420 0.69510 0.09700
O 	O 	0.12400 0.53210 0.82940 -0.73200
H 	H 	0.05440 0.53350 0.85300 0.11600
C 	C 	0.53520 0.18400 0.74420 0.53200
O 	O 	0.47760 0.41590 0.74250 -0.54100
C 	C 	0.25400 0.54480 0.61610 0.39400
C 	C 	0.25690 0.54970 0.55110 0.01700
H 	H 	0.18890 0.57380 0.53830 -0.00100
O 	O 	0.34860 0.35400 0.78800 -0.49700
O 	O 	0.60040 0.18680 0.70270 -0.55000
C 	C 	0.24920 0.48150 0.52870 -0.42300
H 	H 	0.31340 0.45700 0.54380 0.12200
H 	H 	0.17840 0.46210 0.54270 0.12500
O 	O 	0.50720 0.13290 0.76760 -0.58500
C 	C 	0.25080 0.47590 0.46500 0.52300
O 	O 	0.15730 0.54040 0.63800 -0.53000
C 	C 	0.05320 0.69530 0.76280 0.36400
O 	O 	0.35090 0.54360 0.63980 -0.51900
C 	C 	0.00200 0.75760 0.73940 0.01600
H 	H 	0.04620 0.76890 0.70550 -0.00000
O 	O 	0.24380 0.42050 0.44440 -0.56800
C 	C 	0.00720 0.81460 0.77900 -0.40600
H 	H 	0.08580 0.81900 0.79270 0.13000
H 	H 	0.95810 0.80580 0.81140 0.11900
O 	O 	0.25480 0.52630 0.43710 -0.57700
C 	C 	0.97000 0.87800 0.75300 0.51200
O 	O 	0.01240 0.64360 0.74440 -0.53800
O 	O 	0.13250 0.70170 0.79860 -0.49000
O 	O 	0.91400 0.87540 0.70850 -0.55100
O 	O 	0.99620 0.92880 0.77900 -0.57000
