data_crystal

_cell_length_a 6.09900
_cell_length_b 10.50100
_cell_length_c 13.68800
_cell_angle_alpha 72.60700
_cell_angle_beta  88.78900
_cell_angle_gamma 88.98000

_symmetry_space_group_name_	'P 1'
_symmetry_space_group_name_H-M	'P 1'

loop_
_symmetry_equiv_pos_as_xyz
  x,y,z

loop_
_atom_site_label
_atom_site_type_symbol
_atom_site_fract_x
_atom_site_fract_y
_atom_site_fract_z
_atom_site_charge
Ce	Ce	0.74860 0.33898 0.29069 2.09400
C 	C 	0.60070 0.13130 0.52690 0.33600
C 	C 	0.10890 0.05170 0.41160 0.06600
H 	H 	0.18940 0.08530 0.35110 -0.00400
O 	O 	0.54580 0.22840 0.45290 -0.46200
O 	O 	0.49740 0.08940 0.60970 -0.27200
O 	O 	0.93760 0.30240 0.14160 -0.48600
O 	O 	0.00150 0.32110 0.97780 -0.27300
N 	N 	0.56560 0.44370 0.10050 -0.21600
N 	N 	0.92140 0.11190 0.42490 -0.21000
C 	C 	0.81330 0.06030 0.51360 -0.06400
C 	C 	0.68260 0.42620 0.02230 -0.07000
C 	C 	0.89080 0.34300 0.04810 0.33500
C 	C 	0.38260 0.51770 0.07830 0.05800
H 	H 	0.29710 0.53190 0.13120 0.00500
O 	O 	0.43900 0.47740 0.32510 -0.48600
O 	O 	0.15540 0.35890 0.30110 -0.51400
C 	C 	0.24750 0.43260 0.34330 0.37000
C 	C 	0.11660 0.47100 0.42570 -0.08000
N 	N 	0.91020 0.42730 0.44130 -0.20900
C 	C 	0.79460 0.45580 0.51560 0.06000
H 	H 	0.65100 0.42620 0.52860 0.02200
Ce	Ce	0.25140 0.66102 0.70931 2.09400
C 	C 	0.39930 0.86870 0.47310 0.33600
C 	C 	0.89110 0.94830 0.58840 0.06600
H 	H 	0.81060 0.91470 0.64890 -0.00400
O 	O 	0.45420 0.77160 0.54710 -0.46200
O 	O 	0.50260 0.91060 0.39030 -0.27200
O 	O 	0.06240 0.69760 0.85840 -0.48600
O 	O 	0.99850 0.67890 0.02220 -0.27300
N 	N 	0.43440 0.55630 0.89950 -0.21600
N 	N 	0.07860 0.88810 0.57510 -0.21000
C 	C 	0.18670 0.93970 0.48640 -0.06400
C 	C 	0.31740 0.57380 0.97770 -0.07000
C 	C 	0.10920 0.65700 0.95190 0.33500
C 	C 	0.61740 0.48230 0.92170 0.05800
H 	H 	0.70290 0.46810 0.86880 0.00500
O 	O 	0.56100 0.52260 0.67490 -0.48600
O 	O 	0.84460 0.64110 0.69890 -0.51400
C 	C 	0.75250 0.56740 0.65670 0.37000
C 	C 	0.88340 0.52900 0.57430 -0.08000
N 	N 	0.08980 0.57270 0.55870 -0.20900
C 	C 	0.20540 0.54420 0.48440 0.06000
H 	H 	0.34900 0.57380 0.47140 0.02200
