data_crystal

_cell_length_a 6.07360
_cell_length_b 10.49120
_cell_length_c 13.57900
_cell_angle_alpha 72.13300
_cell_angle_beta  89.02300
_cell_angle_gamma 89.00900

_symmetry_space_group_name_	'P 1'
_symmetry_space_group_name_H-M	'P 1'

loop_
_symmetry_equiv_pos_as_xyz
  x,y,z

loop_
_atom_site_label
_atom_site_type_symbol
_atom_site_fract_x
_atom_site_fract_y
_atom_site_fract_z
_atom_site_charge
Nd	Nd	0.25094 0.66019 0.70838 1.94500
N 	N 	0.07840 0.88640 0.57540 -0.19700
N 	N 	0.43370 0.55680 0.89790 -0.20400
N 	N 	0.09020 0.57260 0.55910 -0.20000
O 	O 	0.45410 0.77030 0.54700 -0.45300
O 	O 	0.06360 0.69950 0.85530 -0.47300
O 	O 	0.84820 0.64130 0.69930 -0.49600
O 	O 	0.55980 0.52420 0.67580 -0.47900
C 	C 	0.18710 0.93930 0.48620 -0.07000
C 	C 	0.89160 0.94720 0.58930 0.08400
C 	C 	0.31670 0.57420 0.97700 -0.07700
C 	C 	0.61700 0.48180 0.92130 0.07900
C 	C 	0.88410 0.52900 0.57440 -0.08500
C 	C 	0.20650 0.54390 0.48440 0.07700
C 	C 	0.39970 0.86900 0.47230 0.35700
C 	C 	0.10980 0.65800 0.94980 0.35700
C 	C 	0.75400 0.56810 0.65710 0.40200
H 	H 	0.81190 0.91330 0.65060 -0.00900
H 	H 	0.70190 0.46680 0.86820 -0.00300
H 	H 	0.35080 0.57310 0.47140 0.01100
O 	O 	0.50390 0.91230 0.38970 -0.28300
O 	O 	0.99880 0.68050 0.02010 -0.28200
Nd	Nd	0.74906 0.33981 0.29162 1.94400
N 	N 	0.92160 0.11360 0.42460 -0.19800
N 	N 	0.56630 0.44320 0.10210 -0.20400
N 	N 	0.90980 0.42740 0.44090 -0.20000
O 	O 	0.54590 0.22970 0.45300 -0.45300
O 	O 	0.93640 0.30050 0.14470 -0.47300
O 	O 	0.15180 0.35870 0.30070 -0.49600
O 	O 	0.44020 0.47580 0.32420 -0.47900
C 	C 	0.81290 0.06070 0.51380 -0.07000
C 	C 	0.10840 0.05280 0.41070 0.08400
C 	C 	0.68330 0.42580 0.02300 -0.07700
C 	C 	0.38300 0.51820 0.07870 0.07900
C 	C 	0.11590 0.47100 0.42560 -0.08500
C 	C 	0.79350 0.45610 0.51560 0.07700
C 	C 	0.60030 0.13100 0.52770 0.35700
C 	C 	0.89020 0.34200 0.05020 0.35700
C 	C 	0.24600 0.43190 0.34290 0.40200
H 	H 	0.18810 0.08670 0.34940 -0.00900
H 	H 	0.29810 0.53320 0.13180 -0.00300
H 	H 	0.64920 0.42690 0.52860 0.01100
O 	O 	0.49610 0.08770 0.61030 -0.28300
O 	O 	0.00120 0.31950 0.97990 -0.28200
