data_crystal

_cell_length_a 7.30130
_cell_length_b 9.18020
_cell_length_c 19.34400
_cell_angle_alpha 90.00000
_cell_angle_beta  90.00000
_cell_angle_gamma 90.00000

_symmetry_space_group_name_	'P 1'
_symmetry_space_group_name_H-M	'P 1'

loop_
_symmetry_equiv_pos_as_xyz
  x,y,z

loop_
_atom_site_label
_atom_site_type_symbol
_atom_site_fract_x
_atom_site_fract_y
_atom_site_fract_z
_atom_site_charge
Sc	Sc	0.64610 0.50440 0.49950 2.33900
Sc	Sc	0.14610 0.49560 0.50050 2.33800
Sc	Sc	0.64610 0.99560 0.99950 2.33700
Sc	Sc	0.14610 0.00440 0.00050 2.33700
H 	H 	0.12790 0.23900 0.68790 0.05300
H 	H 	0.13190 0.16970 0.80280 0.03000
H 	H 	0.66460 0.27530 0.82100 0.03200
H 	H 	0.66320 0.35900 0.70500 0.05200
H 	H 	0.34600 0.66200 0.53100 0.15000
H 	H 	0.62790 0.76100 0.31210 0.05400
H 	H 	0.63190 0.83030 0.19720 0.03100
H 	H 	0.16460 0.72470 0.17900 0.03100
H 	H 	0.16320 0.64100 0.29500 0.05100
H 	H 	0.84600 0.33800 0.46900 0.15100
H 	H 	0.12790 0.26100 0.18790 0.05200
H 	H 	0.13190 0.33030 0.30280 0.02900
H 	H 	0.66460 0.22470 0.32100 0.03200
H 	H 	0.66320 0.14100 0.20500 0.05300
H 	H 	0.34600 0.83800 0.03100 0.15300
H 	H 	0.62790 0.73900 0.81210 0.05400
H 	H 	0.63190 0.66970 0.69720 0.03000
H 	H 	0.16460 0.77530 0.67900 0.03000
H 	H 	0.16320 0.85900 0.79500 0.05000
H 	H 	0.84600 0.16200 0.96900 0.15100
C 	C 	0.40140 0.36010 0.61230 0.48700
C 	C 	0.39590 0.30950 0.68720 -0.09800
C 	C 	0.23550 0.24970 0.71500 -0.02400
C 	C 	0.24040 0.20760 0.78240 0.02100
C 	C 	0.40240 0.21810 0.82410 -0.14900
C 	C 	0.55480 0.27070 0.79480 0.03000
C 	C 	0.55520 0.31980 0.72510 -0.02500
C 	C 	0.40410 0.17050 0.89690 0.50400
C 	C 	0.90140 0.63990 0.38770 0.48400
C 	C 	0.89590 0.69050 0.31280 -0.10000
C 	C 	0.73550 0.75030 0.28500 -0.02500
C 	C 	0.74040 0.79240 0.21760 0.02100
C 	C 	0.90240 0.78190 0.17590 -0.15200
C 	C 	0.05480 0.72930 0.20520 0.03200
C 	C 	0.05520 0.68020 0.27490 -0.02400
C 	C 	0.90410 0.82950 0.10310 0.49900
C 	C 	0.40140 0.13990 0.11230 0.48700
C 	C 	0.39590 0.19050 0.18720 -0.09800
C 	C 	0.23550 0.25030 0.21500 -0.02500
C 	C 	0.24040 0.29240 0.28240 0.02100
C 	C 	0.40240 0.28190 0.32410 -0.15000
C 	C 	0.55480 0.22930 0.29480 0.03000
C 	C 	0.55520 0.18020 0.22510 -0.02600
C 	C 	0.40410 0.32950 0.39690 0.50400
C 	C 	0.90140 0.86010 0.88770 0.47200
C 	C 	0.89590 0.80950 0.81280 -0.10600
C 	C 	0.73550 0.74970 0.78500 -0.02400
C 	C 	0.74040 0.70760 0.71760 0.02200
C 	C 	0.90240 0.71810 0.67590 -0.15800
C 	C 	0.05480 0.77070 0.70520 0.03600
C 	C 	0.05520 0.81980 0.77490 -0.01600
C 	C 	0.90410 0.67050 0.60310 0.50000
O 	O 	0.55140 0.38700 0.58550 -0.63900
O 	O 	0.24700 0.37230 0.58250 -0.63800
O 	O 	0.24680 0.15490 0.92660 -0.61200
O 	O 	0.55030 0.15030 0.92600 -0.64200
O 	O 	0.39010 0.60670 0.49160 -0.86300
O 	O 	0.05140 0.61300 0.41450 -0.63800
O 	O 	0.74700 0.62770 0.41750 -0.63700
O 	O 	0.74680 0.84510 0.07340 -0.61100
O 	O 	0.05030 0.84970 0.07400 -0.64000
O 	O 	0.89010 0.39330 0.50840 -0.86300
O 	O 	0.55140 0.11300 0.08550 -0.63900
O 	O 	0.24700 0.12770 0.08250 -0.64200
O 	O 	0.24680 0.34510 0.42660 -0.61500
O 	O 	0.55030 0.34970 0.42600 -0.64500
O 	O 	0.39010 0.89330 0.99160 -0.86500
O 	O 	0.05140 0.88700 0.91450 -0.62800
O 	O 	0.74700 0.87230 0.91750 -0.63800
O 	O 	0.74680 0.65490 0.57340 -0.61400
O 	O 	0.05030 0.65030 0.57400 -0.64200
O 	O 	0.89010 0.10670 0.00840 -0.85900
