data_crystal

_cell_length_a 23.64080
_cell_length_b 16.37140
_cell_length_c 6.58700
_cell_angle_alpha 90.00000
_cell_angle_beta  90.00000
_cell_angle_gamma 90.00000

_symmetry_space_group_name_	'P 1'
_symmetry_space_group_name_H-M	'P 1'

loop_
_symmetry_equiv_pos_as_xyz
  x,y,z

loop_
_atom_site_label
_atom_site_type_symbol
_atom_site_fract_x
_atom_site_fract_y
_atom_site_fract_z
_atom_site_charge
Mn	Mn	0.82556 0.88930 0.88490 1.28900
N 	N 	0.61270 0.65290 0.95190 -0.14300
N 	N 	0.73239 0.92159 0.86800 -0.22200
N 	N 	0.81870 0.02928 0.89610 -0.21500
O 	O 	0.79903 0.76030 0.88590 -0.46000
O 	O 	0.87305 0.67748 0.91000 -0.52600
H 	H 	0.89060 0.72070 0.91140 0.31900
O 	O 	0.66972 0.36910 0.71540 -0.40800
O 	O 	0.66580 0.37150 0.05080 -0.36000
O 	O 	0.41514 0.59869 0.87730 -0.43300
O 	O 	0.44590 0.72055 0.98730 -0.30800
C 	C 	0.81950 0.69240 0.89670 0.43500
C 	C 	0.78319 0.61694 0.89140 -0.09300
C 	C 	0.80696 0.53910 0.87730 -0.01900
H 	H 	0.84600 0.53270 0.87010 0.05700
C 	C 	0.77175 0.47190 0.87420 -0.01500
H 	H 	0.78740 0.41990 0.86550 0.02800
C 	C 	0.71315 0.48031 0.88390 -0.12900
C 	C 	0.67963 0.40150 0.88290 0.33100
C 	C 	0.68849 0.55880 0.89800 0.00400
C 	C 	0.72517 0.62510 0.90120 -0.02200
H 	H 	0.70990 0.67740 0.91040 0.05300
C 	C 	0.62608 0.57550 0.90420 0.08800
C 	C 	0.58441 0.51800 0.86610 -0.16100
H 	H 	0.59440 0.46420 0.83820 0.09200
C 	C 	0.52843 0.54010 0.86940 0.08000
H 	H 	0.50060 0.50200 0.83770 0.01400
C 	C 	0.51360 0.61850 0.91950 -0.14500
C 	C 	0.55787 0.67260 0.95790 0.07900
H 	H 	0.54860 0.72620 0.99000 0.01900
C 	C 	0.45352 0.64750 0.92750 0.36000
C 	C 	0.69030 0.86860 0.85030 0.04300
H 	H 	0.69930 0.81330 0.84520 0.01400
C 	C 	0.63340 0.89060 0.83880 -0.08200
H 	H 	0.60540 0.85130 0.82300 0.06400
C 	C 	0.62012 0.97100 0.85130 -0.03600
H 	H 	0.58250 0.98720 0.84470 0.05000
C 	C 	0.66268 0.02980 0.87410 0.00800
C 	C 	0.71899 0.00120 0.87850 0.02600
C 	C 	0.65190 0.11520 0.88400 -0.04000
H 	H 	0.61480 0.13390 0.87890 0.06000
C 	C 	0.69430 0.16890 0.90030 -0.06800
H 	H 	0.68600 0.22430 0.91080 0.07100
C 	C 	0.75290 0.14260 0.90210 0.02300
C 	C 	0.76515 0.05940 0.89450 0.01600
C 	C 	0.79770 0.19620 0.91770 -0.05400
H 	H 	0.79080 0.25200 0.92440 0.04500
C 	C 	0.85220 0.16770 0.92350 -0.06500
H 	H 	0.88250 0.20360 0.93490 0.05100
C 	C 	0.86140 0.08200 0.91170 0.03600
H 	H 	0.89830 0.06220 0.91490 0.01600
Mn	Mn	0.17444 0.11070 0.38490 1.29700
N 	N 	0.38730 0.34710 0.45190 -0.13400
N 	N 	0.26761 0.07841 0.36800 -0.21500
N 	N 	0.18130 0.97072 0.39610 -0.20700
O 	O 	0.20097 0.23970 0.38590 -0.44600
O 	O 	0.12695 0.32252 0.41000 -0.51100
H 	H 	0.10940 0.27930 0.41140 0.32000
O 	O 	0.33028 0.63090 0.21540 -0.39500
O 	O 	0.33420 0.62850 0.55080 -0.40800
O 	O 	0.58486 0.40131 0.37730 -0.42100
O 	O 	0.55410 0.27945 0.48730 -0.29700
C 	C 	0.18050 0.30760 0.39670 0.43900
C 	C 	0.21681 0.38306 0.39140 -0.07400
C 	C 	0.19304 0.46090 0.37730 -0.01800
H 	H 	0.15400 0.46730 0.37010 0.07200
C 	C 	0.22825 0.52810 0.37420 0.00700
H 	H 	0.21260 0.58010 0.36550 0.03500
C 	C 	0.28685 0.51969 0.38390 -0.13300
C 	C 	0.32037 0.59850 0.38290 0.38200
C 	C 	0.31151 0.44120 0.39800 0.02400
C 	C 	0.27483 0.37490 0.40120 -0.02100
H 	H 	0.29010 0.32260 0.41040 0.06300
C 	C 	0.37392 0.42450 0.40420 0.09600
C 	C 	0.41559 0.48200 0.36610 -0.15000
H 	H 	0.40560 0.53580 0.33820 0.10100
C 	C 	0.47157 0.45990 0.36940 0.08500
H 	H 	0.49940 0.49800 0.33770 0.02600
C 	C 	0.48640 0.38150 0.41950 -0.13500
C 	C 	0.44213 0.32740 0.45790 0.08600
H 	H 	0.45140 0.27380 0.49000 0.02500
C 	C 	0.54648 0.35250 0.42750 0.36200
C 	C 	0.30970 0.13140 0.35030 0.05100
H 	H 	0.30070 0.18670 0.34520 0.02100
C 	C 	0.36660 0.10940 0.33880 -0.07300
H 	H 	0.39460 0.14870 0.32300 0.06900
C 	C 	0.37988 0.02900 0.35130 -0.03500
H 	H 	0.41750 0.01280 0.34470 0.06000
C 	C 	0.33732 0.97020 0.37410 0.02200
C 	C 	0.28101 0.99880 0.37850 0.03600
C 	C 	0.34810 0.88480 0.38400 -0.03500
H 	H 	0.38520 0.86610 0.37890 0.07300
C 	C 	0.30570 0.83110 0.40030 -0.05600
H 	H 	0.31400 0.77570 0.41080 0.08200
C 	C 	0.24710 0.85740 0.40210 0.03200
C 	C 	0.23485 0.94060 0.39450 0.02900
C 	C 	0.20230 0.80380 0.41770 -0.04200
H 	H 	0.20920 0.74800 0.42440 0.05500
C 	C 	0.14780 0.83230 0.42350 -0.05700
H 	H 	0.11750 0.79640 0.43490 0.06600
C 	C 	0.13860 0.91800 0.41170 0.05100
H 	H 	0.10170 0.93780 0.41490 0.02500
Mn	Mn	0.32556 0.61070 0.88490 1.29000
N 	N 	0.11270 0.84710 0.95190 -0.14100
N 	N 	0.23239 0.57841 0.86800 -0.22100
N 	N 	0.31870 0.47072 0.89610 -0.21400
O 	O 	0.29903 0.73970 0.88590 -0.45900
O 	O 	0.37305 0.82252 0.91000 -0.52500
H 	H 	0.39060 0.77930 0.91140 0.31900
O 	O 	0.16972 0.13090 0.71540 -0.40900
O 	O 	0.16580 0.12850 0.05080 -0.36100
O 	O 	0.91514 0.90131 0.87730 -0.43300
O 	O 	0.94590 0.77945 0.98730 -0.30800
C 	C 	0.31950 0.80760 0.89670 0.43500
C 	C 	0.28319 0.88306 0.89140 -0.09300
C 	C 	0.30696 0.96090 0.87730 -0.01700
H 	H 	0.34600 0.96730 0.87010 0.05700
C 	C 	0.27175 0.02810 0.87420 -0.01600
H 	H 	0.28740 0.08010 0.86550 0.02800
C 	C 	0.21315 0.01969 0.88390 -0.13000
C 	C 	0.17963 0.09850 0.88290 0.33100
C 	C 	0.18849 0.94120 0.89800 0.00600
C 	C 	0.22517 0.87490 0.90120 -0.02300
H 	H 	0.20990 0.82260 0.91040 0.05300
C 	C 	0.12608 0.92450 0.90420 0.08600
C 	C 	0.08441 0.98200 0.86610 -0.15500
H 	H 	0.09440 0.03580 0.83820 0.08900
C 	C 	0.02843 0.95990 0.86940 0.07600
H 	H 	0.00060 0.99800 0.83770 0.01700
C 	C 	0.01360 0.88150 0.91950 -0.14100
C 	C 	0.05787 0.82740 0.95790 0.07800
H 	H 	0.04860 0.77380 0.99000 0.02000
C 	C 	0.95352 0.85250 0.92750 0.35800
C 	C 	0.19030 0.63140 0.85030 0.04200
H 	H 	0.19930 0.68670 0.84520 0.01400
C 	C 	0.13340 0.60940 0.83880 -0.08100
H 	H 	0.10540 0.64870 0.82300 0.06400
C 	C 	0.12012 0.52900 0.85130 -0.03800
H 	H 	0.08250 0.51280 0.84470 0.05000
C 	C 	0.16268 0.47020 0.87410 0.00900
C 	C 	0.21899 0.49880 0.87850 0.02500
C 	C 	0.15190 0.38480 0.88400 -0.04100
H 	H 	0.11480 0.36610 0.87890 0.06000
C 	C 	0.19430 0.33110 0.90030 -0.06800
H 	H 	0.18600 0.27570 0.91080 0.07100
C 	C 	0.25290 0.35740 0.90210 0.02300
C 	C 	0.26515 0.44060 0.89450 0.01600
C 	C 	0.29770 0.30380 0.91770 -0.05300
H 	H 	0.29080 0.24800 0.92440 0.04500
C 	C 	0.35220 0.33230 0.92350 -0.06500
H 	H 	0.38250 0.29640 0.93490 0.05100
C 	C 	0.36140 0.41800 0.91170 0.03600
H 	H 	0.39830 0.43780 0.91490 0.01600
Mn	Mn	0.67444 0.38930 0.38490 1.29700
N 	N 	0.88730 0.15290 0.45190 -0.13500
N 	N 	0.76761 0.42159 0.36800 -0.21500
N 	N 	0.68130 0.52928 0.39610 -0.20700
O 	O 	0.70097 0.26030 0.38590 -0.44600
O 	O 	0.62695 0.17748 0.41000 -0.51100
H 	H 	0.60940 0.22070 0.41140 0.32000
O 	O 	0.83028 0.86910 0.21540 -0.39500
O 	O 	0.83420 0.87150 0.55080 -0.40800
O 	O 	0.08486 0.09869 0.37730 -0.42100
O 	O 	0.05410 0.22055 0.48730 -0.29700
C 	C 	0.68050 0.19240 0.39670 0.43900
C 	C 	0.71681 0.11694 0.39140 -0.07300
C 	C 	0.69304 0.03910 0.37730 -0.01900
H 	H 	0.65400 0.03270 0.37010 0.07200
C 	C 	0.72825 0.97190 0.37420 0.00800
H 	H 	0.71260 0.91990 0.36550 0.03400
C 	C 	0.78685 0.98031 0.38390 -0.13300
C 	C 	0.82037 0.90150 0.38290 0.38200
C 	C 	0.81151 0.05880 0.39800 0.02400
C 	C 	0.77483 0.12510 0.40120 -0.02100
H 	H 	0.79010 0.17740 0.41040 0.06300
C 	C 	0.87392 0.07550 0.40420 0.09700
C 	C 	0.91559 0.01800 0.36610 -0.15100
H 	H 	0.90560 0.96420 0.33820 0.10100
C 	C 	0.97157 0.04010 0.36940 0.08600
H 	H 	0.99940 0.00200 0.33770 0.02500
C 	C 	0.98640 0.11850 0.41950 -0.13600
C 	C 	0.94213 0.17260 0.45790 0.08600
H 	H 	0.95140 0.22620 0.49000 0.02500
C 	C 	0.04648 0.14750 0.42750 0.36300
C 	C 	0.80970 0.36860 0.35030 0.05200
H 	H 	0.80070 0.31330 0.34520 0.02000
C 	C 	0.86660 0.39060 0.33880 -0.07400
H 	H 	0.89460 0.35130 0.32300 0.07000
C 	C 	0.87988 0.47100 0.35130 -0.03300
H 	H 	0.91750 0.48720 0.34470 0.06000
C 	C 	0.83732 0.52980 0.37410 0.02000
C 	C 	0.78101 0.50120 0.37850 0.03600
C 	C 	0.84810 0.61520 0.38400 -0.03300
H 	H 	0.88520 0.63390 0.37890 0.07300
C 	C 	0.80570 0.66890 0.40030 -0.05600
H 	H 	0.81400 0.72430 0.41080 0.08200
C 	C 	0.74710 0.64260 0.40210 0.03300
C 	C 	0.73485 0.55940 0.39450 0.02900
C 	C 	0.70230 0.69620 0.41770 -0.04200
H 	H 	0.70920 0.75200 0.42440 0.05500
C 	C 	0.64780 0.66770 0.42350 -0.05700
H 	H 	0.61750 0.70360 0.43490 0.06600
C 	C 	0.63860 0.58200 0.41170 0.05100
H 	H 	0.60170 0.56220 0.41490 0.02500
