data_crystal

_cell_length_a 12.70500
_cell_length_b 24.22530
_cell_length_c 15.05420
_cell_angle_alpha 90.00000
_cell_angle_beta  92.80200
_cell_angle_gamma 90.00000

_symmetry_space_group_name_	'P 1'
_symmetry_space_group_name_H-M	'P 1'

loop_
_symmetry_equiv_pos_as_xyz
  x,y,z

loop_
_atom_site_label
_atom_site_type_symbol
_atom_site_fract_x
_atom_site_fract_y
_atom_site_fract_z
_atom_site_charge
Cd	Cd	0.96270 0.90468 0.05426 1.17300
Cd	Cd	0.95768 0.90977 0.32649 1.16700
Cd	Cd	0.49720 0.89917 0.78125 1.17700
Cd	Cd	0.51146 0.90574 0.50890 1.17000
N 	N 	0.08540 0.97270 0.31420 -0.26400
N 	N 	0.63500 0.83880 0.78970 -0.25300
O 	O 	0.07290 0.83700 0.30270 -0.40300
N 	N 	0.17080 0.34360 0.94490 -0.26300
N 	N 	0.61840 0.46910 0.47490 -0.26500
O 	O 	0.40010 0.83470 0.54290 -0.41900
N 	N 	0.35360 0.34580 0.46880 -0.27000
O 	O 	0.04210 0.85540 0.94260 -0.37000
O 	O 	0.00870 0.89220 0.47350 -0.40700
N 	N 	0.90370 0.46590 0.94290 -0.26300
N 	N 	0.36910 0.96480 0.78090 -0.25500
N 	N 	0.82530 0.84650 0.31510 -0.26200
N 	N 	0.24800 0.26290 0.92620 -0.13600
O 	O 	0.42160 0.84600 0.89570 -0.36100
C 	C 	0.30270 0.81150 0.14200 0.21200
C 	C 	0.99770 0.91610 0.54550 0.30700
N 	N 	0.81810 0.54450 0.92460 -0.14000
O 	O 	0.50900 0.91760 0.94930 -0.37300
C 	C 	0.90780 0.51700 0.91840 0.10600
H 	H 	0.96850 0.53310 0.89810 -0.05500
C 	C 	0.47020 0.90370 0.29120 0.29500
C 	C 	0.72630 0.85050 0.28000 -0.01300
H 	H 	0.69620 0.88180 0.25360 -0.00300
O 	O 	0.22540 0.77100 0.14610 -0.25400
C 	C 	0.11430 0.84470 0.61940 -0.16100
H 	H 	0.13670 0.83530 0.56350 0.10200
C 	C 	0.73490 0.71050 0.35540 0.09600
C 	C 	0.25090 0.35630 0.46070 0.00500
H 	H 	0.22140 0.39060 0.47240 -0.01800
C 	C 	0.81730 0.67420 0.35770 -0.07400
H 	H 	0.88340 0.68610 0.34200 0.04900
C 	C 	0.27460 0.34740 0.97130 0.00100
H 	H 	0.30700 0.37920 0.99390 0.00300
N 	N 	0.17610 0.05100 0.32800 -0.13900
C 	C 	0.66940 0.67380 0.87700 -0.08200
H 	H 	0.60050 0.68680 0.87590 0.06000
C 	C 	0.04640 0.87060 0.78520 0.00200
C 	C 	0.45240 0.87700 0.95970 0.27900
O 	O 	0.52780 0.94570 0.28210 -0.30800
C 	C 	0.15320 0.81660 0.69310 0.20600
C 	C 	0.00860 0.90110 0.71160 -0.06300
H 	H 	0.96200 0.93020 0.71880 0.06200
C 	C 	0.19940 0.10670 0.35250 0.08200
C 	C 	0.17700 0.17190 0.89910 -0.08700
H 	H 	0.11300 0.18500 0.91800 0.05400
C 	C 	0.60700 0.51980 0.44630 0.10100
H 	H 	0.54150 0.53600 0.43410 -0.05800
C 	C 	0.16060 0.77050 0.22240 0.17900
H 	H 	0.20590 0.76810 0.27680 -0.01400
C 	C 	0.19480 0.31240 0.43410 -0.01100
H 	H 	0.12210 0.31050 0.42370 0.03900
C 	C 	0.08440 0.02450 0.34040 0.09200
H 	H 	0.02660 0.04110 0.36480 -0.03800
N 	N 	0.72380 0.76330 0.82680 -0.13900
O 	O 	0.95120 0.96140 0.55460 -0.30600
C 	C 	0.72450 0.46190 0.48670 0.00200
H 	H 	0.75850 0.43020 0.50780 0.02600
C 	C 	0.36620 0.82330 0.61730 0.29500
C 	C 	0.38440 0.01440 0.81320 0.09700
H 	H 	0.44990 0.02810 0.83270 -0.03900
C 	C 	0.79490 0.59980 0.90150 0.08900
C 	C 	0.80340 0.61940 0.38320 -0.08000
H 	H 	0.86000 0.59510 0.38300 0.06000
C 	C 	0.41460 0.86210 0.05110 0.00300
C 	C 	0.29080 0.77270 0.61670 0.19200
H 	H 	0.24730 0.77260 0.56110 -0.01900
C 	C 	0.32250 0.18100 0.37170 -0.07800
H 	H 	0.39030 0.19460 0.36600 0.04900
O 	O 	0.95190 0.92600 0.88750 -0.36900
C 	C 	0.01010 0.88550 0.87730 0.27000
C 	C 	0.14310 0.19540 0.40200 -0.08400
H 	H 	0.08950 0.21850 0.41980 0.06300
O 	O 	0.22470 0.77299 0.68910 -0.25900
N 	N 	0.29440 0.04320 0.81480 -0.13700
O 	O 	0.45450 0.88160 0.36510 -0.39800
N 	N 	0.74770 0.76580 0.33110 -0.13900
C 	C 	0.70900 0.60110 0.40810 0.09300
N 	N 	0.26580 0.27040 0.42500 -0.13900
N 	N 	0.69510 0.54520 0.43650 -0.14500
C 	C 	0.28250 0.09860 0.84340 0.08100
C 	C 	0.34420 0.83930 0.21690 -0.16300
H 	H 	0.31900 0.83160 0.27250 0.10400
C 	C 	0.09330 0.71960 0.21430 -0.65100
H 	H 	0.13760 0.68760 0.21240 0.22400
H 	H 	0.04930 0.72160 0.16070 0.23200
H 	H 	0.04990 0.71720 0.26460 0.22000
C 	C 	0.21820 0.00780 0.78080 -0.00200
H 	H 	0.14670 0.01540 0.77240 0.03400
C 	C 	0.23830 0.01430 0.28890 0.01600
H 	H 	0.30560 0.02080 0.26960 0.03000
C 	C 	0.11830 0.82910 0.77760 -0.15800
H 	H 	0.14340 0.80960 0.82740 0.11300
C 	C 	0.35610 0.18810 0.87370 -0.08700
H 	H 	0.41350 0.21200 0.87450 0.06500
C 	C 	0.04120 0.88760 0.62760 -0.01300
O 	O 	0.38740 0.84520 0.68960 -0.43600
C 	C 	0.42260 0.87810 0.20860 -0.00700
C 	C 	0.45760 0.89020 0.12520 -0.06400
H 	H 	0.50930 0.91680 0.11860 0.06300
C 	C 	0.62880 0.78560 0.81020 0.10100
H 	H 	0.56580 0.76620 0.81280 -0.01600
C 	C 	0.63880 0.69220 0.37980 -0.08000
H 	H 	0.58200 0.71640 0.38080 0.05900
C 	C 	0.30040 0.12710 0.35220 -0.06800
H 	H 	0.35500 0.10360 0.33840 0.05300
C 	C 	0.77180 0.50950 0.46220 0.00900
H 	H 	0.84400 0.51620 0.46310 0.03400
C 	C 	0.85040 0.68890 0.85120 -0.08400
H 	H 	0.90450 0.71180 0.83390 0.06600
C 	C 	0.33550 0.82350 0.05940 -0.16700
H 	H 	0.30520 0.80610 0.00940 0.11700
C 	C 	0.67680 0.80060 0.28990 0.00500
H 	H 	0.60770 0.79210 0.27170 0.03300
C 	C 	0.35970 0.29400 0.44710 0.10100
H 	H 	0.42320 0.27480 0.44670 -0.02100
C 	C 	0.26080 0.20650 0.89850 0.09700
C 	C 	0.79710 0.80500 0.81810 0.01000
H 	H 	0.86980 0.80190 0.82660 0.03300
C 	C 	0.80840 0.45900 0.97060 0.03100
H 	H 	0.78280 0.42630 0.99350 0.02100
C 	C 	0.36750 0.13400 0.84730 -0.06600
H 	H 	0.43320 0.12130 0.83190 0.04900
C 	C 	0.18520 0.11730 0.87210 -0.06700
H 	H 	0.12750 0.09370 0.87290 0.05200
C 	C 	0.35420 0.72050 0.62260 -0.65500
H 	H 	0.30750 0.68930 0.62100 0.22100
H 	H 	0.39630 0.72020 0.67730 0.22700
H 	H 	0.39930 0.71860 0.57340 0.21900
C 	C 	0.74160 0.85160 0.79480 -0.01700
H 	H 	0.77040 0.88610 0.78420 0.00300
C 	C 	0.69210 0.62010 0.90340 -0.06900
H 	H 	0.63850 0.59750 0.92250 0.05600
C 	C 	0.74990 0.70790 0.85230 0.10000
C 	C 	0.15720 0.29270 0.91850 0.09400
H 	H 	0.09300 0.27850 0.89690 -0.02200
C 	C 	0.24360 0.21510 0.40000 0.09700
C 	C 	0.87070 0.63440 0.87650 -0.07200
H 	H 	0.93960 0.62150 0.87620 0.05100
C 	C 	0.75280 0.50620 0.96130 -0.01200
H 	H 	0.68360 0.51190 0.97670 0.04000
C 	C 	0.62650 0.63670 0.40330 -0.07800
H 	H 	0.55990 0.62390 0.41600 0.04700
C 	C 	0.12110 0.14300 0.37860 -0.06300
H 	H 	0.05200 0.13050 0.37980 0.04800
C 	C 	0.26540 0.96110 0.76210 0.01400
H 	H 	0.23130 0.92990 0.73900 0.02700
C 	C 	0.83690 0.79630 0.34680 0.09200
H 	H 	0.89800 0.78310 0.37610 -0.01300
C 	C 	0.18460 0.96600 0.28280 -0.01400
H 	H 	0.21080 0.93320 0.26080 0.02600
C 	C 	0.32320 0.29940 0.96050 -0.00100
H 	H 	0.39400 0.29190 0.97350 0.03600
O 	O 	0.06160 0.84290 0.15400 -0.41800
C 	C 	0.09210 0.82200 0.22590 0.28300
Cd	Cd	0.03730 0.40468 0.94574 1.17200
Cd	Cd	0.04232 0.40977 0.67351 1.16600
Cd	Cd	0.50280 0.39917 0.21875 1.17600
Cd	Cd	0.48854 0.40574 0.49110 1.16900
N 	N 	0.91460 0.47270 0.68580 -0.26400
N 	N 	0.36500 0.33880 0.21030 -0.25300
O 	O 	0.92710 0.33700 0.69730 -0.40300
N 	N 	0.82920 0.84360 0.05510 -0.26300
N 	N 	0.38160 0.96910 0.52510 -0.26600
O 	O 	0.59990 0.33470 0.45710 -0.41900
N 	N 	0.64640 0.84580 0.53120 -0.27100
O 	O 	0.95790 0.35540 0.05740 -0.36900
O 	O 	0.99130 0.39220 0.52650 -0.40600
N 	N 	0.09630 0.96590 0.05710 -0.26300
N 	N 	0.63090 0.46480 0.21910 -0.25400
N 	N 	0.17470 0.34650 0.68490 -0.26200
N 	N 	0.75200 0.76290 0.07380 -0.13600
O 	O 	0.57840 0.34600 0.10430 -0.36000
C 	C 	0.69730 0.31150 0.85800 0.21200
C 	C 	0.00230 0.41610 0.45450 0.30600
N 	N 	0.18190 0.04450 0.07540 -0.14100
O 	O 	0.49100 0.41760 0.05070 -0.37300
C 	C 	0.09220 0.01700 0.08160 0.10800
H 	H 	0.03150 0.03310 0.10190 -0.05600
C 	C 	0.52980 0.40370 0.70880 0.29500
C 	C 	0.27370 0.35050 0.72000 -0.01300
H 	H 	0.30380 0.38180 0.74640 -0.00300
O 	O 	0.77460 0.27100 0.85390 -0.25400
C 	C 	0.88570 0.34470 0.38060 -0.16200
H 	H 	0.86330 0.33530 0.43650 0.10200
C 	C 	0.26510 0.21050 0.64460 0.09500
C 	C 	0.74910 0.85630 0.53930 0.00500
H 	H 	0.77860 0.89060 0.52760 -0.01800
C 	C 	0.18270 0.17420 0.64230 -0.07400
H 	H 	0.11660 0.18610 0.65800 0.04900
C 	C 	0.72540 0.84740 0.02870 0.00100
H 	H 	0.69300 0.87920 0.00610 0.00300
N 	N 	0.82390 0.55100 0.67200 -0.13800
C 	C 	0.33060 0.17380 0.12300 -0.08100
H 	H 	0.39950 0.18680 0.12410 0.06000
C 	C 	0.95360 0.37060 0.21480 0.00300
C 	C 	0.54760 0.37700 0.04030 0.27800
O 	O 	0.47220 0.44570 0.71790 -0.30700
C 	C 	0.84680 0.31660 0.30690 0.20700
C 	C 	0.99140 0.40110 0.28840 -0.06400
H 	H 	0.03800 0.43020 0.28120 0.06300
C 	C 	0.80060 0.60670 0.64750 0.08200
C 	C 	0.82300 0.67190 0.10090 -0.08700
H 	H 	0.88700 0.68500 0.08200 0.05400
C 	C 	0.39300 0.01980 0.55370 0.10400
H 	H 	0.45850 0.03600 0.56590 -0.05800
C 	C 	0.83940 0.27050 0.77760 0.18100
H 	H 	0.79410 0.26810 0.72320 -0.01400
C 	C 	0.80520 0.81240 0.56590 -0.01100
H 	H 	0.87790 0.81050 0.57630 0.03900
C 	C 	0.91560 0.52450 0.65960 0.09100
H 	H 	0.97340 0.54110 0.63520 -0.03700
N 	N 	0.27620 0.26330 0.17320 -0.13900
O 	O 	0.04880 0.46140 0.44540 -0.30500
C 	C 	0.27550 0.96190 0.51330 -0.00100
H 	H 	0.24150 0.93020 0.49220 0.02700
C 	C 	0.63380 0.32330 0.38270 0.29500
C 	C 	0.61560 0.51440 0.18680 0.09500
H 	H 	0.55010 0.52810 0.16730 -0.03900
C 	C 	0.20510 0.09980 0.09850 0.08900
C 	C 	0.19660 0.11940 0.61680 -0.08000
H 	H 	0.14000 0.09510 0.61700 0.06000
C 	C 	0.58540 0.36210 0.94890 0.00400
C 	C 	0.70920 0.27270 0.38330 0.19300
H 	H 	0.75270 0.27260 0.43890 -0.01900
C 	C 	0.67750 0.68100 0.62830 -0.07900
H 	H 	0.60970 0.69460 0.63400 0.04900
O 	O 	0.04810 0.42600 0.11250 -0.36800
C 	C 	0.98990 0.38550 0.12270 0.26900
C 	C 	0.85690 0.69540 0.59800 -0.08500
H 	H 	0.91050 0.71850 0.58020 0.06400
O 	O 	0.77530 0.27299 0.31090 -0.25900
N 	N 	0.70560 0.54320 0.18520 -0.13600
O 	O 	0.54550 0.38160 0.63490 -0.39800
N 	N 	0.25230 0.26580 0.66890 -0.13900
C 	C 	0.29100 0.10110 0.59190 0.09400
N 	N 	0.73420 0.77040 0.57500 -0.13900
N 	N 	0.30490 0.04520 0.56350 -0.14600
C 	C 	0.71750 0.59860 0.15660 0.08100
C 	C 	0.65580 0.33930 0.78310 -0.16400
H 	H 	0.68100 0.33160 0.72750 0.10400
C 	C 	0.90670 0.21960 0.78570 -0.65600
H 	H 	0.86240 0.18760 0.78760 0.22700
H 	H 	0.95070 0.22160 0.83930 0.23400
H 	H 	0.95010 0.21720 0.73540 0.22200
C 	C 	0.78180 0.50780 0.21920 -0.00400
H 	H 	0.85330 0.51540 0.22760 0.03500
C 	C 	0.76170 0.51430 0.71110 0.01300
H 	H 	0.69440 0.52080 0.73040 0.03000
C 	C 	0.88170 0.32910 0.22240 -0.15900
H 	H 	0.85660 0.30960 0.17260 0.11300
C 	C 	0.64390 0.68810 0.12630 -0.08700
H 	H 	0.58650 0.71200 0.12550 0.06500
C 	C 	0.95880 0.38760 0.37240 -0.01200
O 	O 	0.61260 0.34520 0.31040 -0.43600
C 	C 	0.57740 0.37810 0.79140 -0.00700
C 	C 	0.54240 0.39020 0.87480 -0.06400
H 	H 	0.49070 0.41680 0.88140 0.06300
C 	C 	0.37120 0.28560 0.18980 0.10100
H 	H 	0.43420 0.26620 0.18720 -0.01600
C 	C 	0.36120 0.19220 0.62020 -0.08000
H 	H 	0.41800 0.21640 0.61920 0.05900
C 	C 	0.69960 0.62710 0.64780 -0.06800
H 	H 	0.64500 0.60360 0.66160 0.05300
C 	C 	0.22820 0.00950 0.53780 0.01200
H 	H 	0.15600 0.01620 0.53690 0.03300
C 	C 	0.14960 0.18890 0.14880 -0.08400
H 	H 	0.09550 0.21180 0.16610 0.06500
C 	C 	0.66450 0.32350 0.94060 -0.16800
H 	H 	0.69480 0.30610 0.99060 0.11800
C 	C 	0.32320 0.30060 0.71010 0.00500
H 	H 	0.39230 0.29210 0.72830 0.03300
C 	C 	0.64030 0.79400 0.55290 0.10100
H 	H 	0.57680 0.77480 0.55330 -0.02100
C 	C 	0.73920 0.70650 0.10150 0.09800
C 	C 	0.20290 0.30500 0.18190 0.01000
H 	H 	0.13020 0.30190 0.17340 0.03300
C 	C 	0.19160 0.95900 0.02940 0.02600
H 	H 	0.21720 0.92630 0.00650 0.02300
C 	C 	0.63250 0.63400 0.15270 -0.06600
H 	H 	0.56680 0.62130 0.16810 0.04900
C 	C 	0.81480 0.61730 0.12790 -0.06600
H 	H 	0.87250 0.59370 0.12710 0.05200
C 	C 	0.64580 0.22050 0.37740 -0.65700
H 	H 	0.69250 0.18930 0.37900 0.22300
H 	H 	0.60370 0.22020 0.32270 0.22800
H 	H 	0.60070 0.21860 0.42660 0.22000
C 	C 	0.25840 0.35160 0.20520 -0.01700
H 	H 	0.22960 0.38610 0.21580 0.00300
C 	C 	0.30790 0.12010 0.09660 -0.06900
H 	H 	0.36150 0.09750 0.07750 0.05700
C 	C 	0.25010 0.20790 0.14770 0.09900
C 	C 	0.84280 0.79270 0.08150 0.09400
H 	H 	0.90700 0.77850 0.10310 -0.02100
C 	C 	0.75640 0.71510 0.60000 0.09700
C 	C 	0.12930 0.13440 0.12350 -0.07300
H 	H 	0.06040 0.12150 0.12380 0.05100
C 	C 	0.24720 0.00620 0.03870 -0.00700
H 	H 	0.31640 0.01190 0.02330 0.04000
C 	C 	0.37350 0.13670 0.59670 -0.07900
H 	H 	0.44010 0.12390 0.58400 0.04800
C 	C 	0.87890 0.64300 0.62140 -0.06300
H 	H 	0.94800 0.63050 0.62020 0.04800
C 	C 	0.73460 0.46110 0.23790 0.01700
H 	H 	0.76870 0.42990 0.26100 0.02600
C 	C 	0.16310 0.29630 0.65320 0.09200
H 	H 	0.10200 0.28310 0.62390 -0.01300
C 	C 	0.81540 0.46600 0.71720 -0.01100
H 	H 	0.78920 0.43320 0.73920 0.02500
C 	C 	0.67680 0.79940 0.03950 -0.00100
H 	H 	0.60600 0.79190 0.02650 0.03600
O 	O 	0.93840 0.34290 0.84600 -0.41800
C 	C 	0.90790 0.32200 0.77410 0.28200
