data_crystal

_cell_length_a 12.71100
_cell_length_b 24.30000
_cell_length_c 15.08500
_cell_angle_alpha 90.00000
_cell_angle_beta  92.50600
_cell_angle_gamma 90.00000

_symmetry_space_group_name_	'P 1'
_symmetry_space_group_name_H-M	'P 1'

loop_
_symmetry_equiv_pos_as_xyz
  x,y,z

loop_
_atom_site_label
_atom_site_type_symbol
_atom_site_fract_x
_atom_site_fract_y
_atom_site_fract_z
_atom_site_charge
Cd	Cd	0.96281 0.13416 0.55485 1.17200
Cd	Cd	0.49703 0.13971 0.27898 1.17500
Cd	Cd	0.95838 0.12973 0.82682 1.16500
Cd	Cd	0.51027 0.13387 0.00664 1.16800
N 	N 	0.91250 0.56670 0.18570 -0.26000
O 	O 	0.07380 0.20195 0.80270 -0.39800
N 	N 	0.17050 0.69578 0.44590 -0.25700
N 	N 	0.38140 0.07087 0.02280 -0.26000
O 	O 	0.39830 0.20482 0.04130 -0.42000
N 	N 	0.36550 0.70008 0.71200 -0.25400
N 	N 	0.09610 0.07233 0.55820 -0.25800
N 	N 	0.64570 0.19427 0.02990 -0.26400
N 	N 	0.17200 0.69283 0.18490 -0.26200
O 	O 	0.50950 0.12218 0.44649 -0.37700
C 	C 	0.99720 0.12382 0.04570 0.30500
N 	N 	0.24800 0.77648 0.42680 -0.13600
O 	O 	0.00840 0.14700 0.97306 -0.40500
O 	O 	0.42000 0.19211 0.39390 -0.36900
C 	C 	0.75480 0.32439 0.09970 0.09500
C 	C 	0.36480 0.21617 0.11590 0.30400
C 	C 	0.37140 0.75267 0.69060 0.10000
H 	H 	0.43440 0.77190 0.68720 -0.01500
C 	C 	0.44980 0.16210 0.45630 0.29400
C 	C 	0.27140 0.68930 0.21960 -0.00900
H 	H 	0.30100 0.65810 0.24610 -0.00500
C 	C 	0.47170 0.13630 0.78920 0.29800
N 	N 	0.24890 0.77375 0.16970 -0.13300
O 	O 	0.95170 0.11277 0.38837 -0.37500
C 	C 	0.79970 0.43236 0.14780 0.08500
O 	O 	0.04320 0.18320 0.44290 -0.36800
C 	C 	0.00770 0.13830 0.21260 -0.05300
H 	H 	0.95950 0.11000 0.21950 0.05800
C 	C 	0.42230 0.16188 0.70660 -0.01200
C 	C 	0.15390 0.22237 0.19360 0.20400
O 	O 	0.06010 0.19602 0.65340 -0.41600
C 	C 	0.63800 0.24656 0.05100 0.09300
H 	H 	0.57480 0.26580 0.05030 -0.01800
N 	N 	0.29420 0.99565 0.31490 -0.11800
C 	C 	0.38470 0.02399 0.31140 0.07700
H 	H 	0.45020 0.00990 0.32950 -0.03800
C 	C 	0.01050 0.15297 0.37850 0.27700
C 	C 	0.25080 0.83079 0.64820 0.09700
C 	C 	0.30140 0.22759 0.63960 0.20400
O 	O 	0.45550 0.15765 0.86302 -0.40200
C 	C 	0.74820 0.18230 0.03970 -0.00100
H 	H 	0.77670 0.14770 0.02980 -0.01700
C 	C 	0.26070 0.83186 0.39910 0.09100
C 	C 	0.39380 0.02004 0.05150 0.06800
H 	H 	0.45940 0.00390 0.06270 -0.05300
N 	N 	0.37040 0.07375 0.27970 -0.25300
N 	N 	0.30350 0.99398 0.06270 -0.12000
C 	C 	0.45850 0.14890 0.62260 -0.05600
H 	H 	0.51100 0.12260 0.61640 0.05900
C 	C 	0.09300 0.21717 0.72530 0.27400
O 	O 	0.94860 0.07848 0.05510 -0.30400
C 	C 	0.11480 0.19416 0.11950 -0.15400
H 	H 	0.13750 0.20350 0.06370 0.09800
O 	O 	0.38780 0.19398 0.18730 -0.43800
O 	O 	0.22450 0.26506 0.18930 -0.25400
O 	O 	0.22460 0.26780 0.64384 -0.25000
N 	N 	0.27570 0.77536 0.67420 -0.13700
C 	C 	0.28360 0.94048 0.34380 0.09000
N 	N 	0.73320 0.26928 0.07410 -0.13600
C 	C 	0.04610 0.16745 0.28710 -0.00700
C 	C 	0.17520 0.86740 0.39950 -0.07700
H 	H 	0.11070 0.85500 0.41830 0.05300
C 	C 	0.26480 0.83030 0.14480 0.08700
C 	C 	0.29080 0.26616 0.11560 0.16500
H 	H 	0.24730 0.26650 0.06040 -0.01100
C 	C 	0.09180 0.02103 0.58380 0.08000
H 	H 	0.03180 0.00500 0.60560 -0.05100
C 	C 	0.36930 0.90570 0.34770 -0.07400
H 	H 	0.43470 0.91850 0.33170 0.05600
C 	C 	0.85450 0.34460 0.09680 -0.08200
H 	H 	0.90760 0.32200 0.07710 0.06400
O 	O 	0.52860 0.09388 0.78020 -0.31000
C 	C 	0.09370 0.32014 0.71450 -0.62000
H 	H 	0.13870 0.35180 0.71160 0.21400
H 	H 	0.05200 0.32280 0.76580 0.21100
H 	H 	0.04830 0.31860 0.66200 0.22100
C 	C 	0.69900 0.41243 0.14930 -0.07000
H 	H 	0.64480 0.43560 0.16520 0.05400
C 	C 	0.16070 0.26829 0.72080 0.16200
H 	H 	0.20690 0.27030 0.77440 -0.00800
C 	C 	0.18630 0.92200 0.37160 -0.07300
H 	H 	0.12910 0.94590 0.37150 0.06000
N 	N 	0.18260 0.99392 0.57550 -0.12000
N 	N 	0.82250 0.48826 0.17230 -0.13700
C 	C 	0.11860 0.20959 0.27760 -0.15200
H 	H 	0.14370 0.22930 0.32700 0.11100
C 	C 	0.29090 0.93863 0.09220 0.09400
C 	C 	0.34320 0.20004 0.71460 -0.15600
H 	H 	0.31740 0.20750 0.77010 0.10100
C 	C 	0.04070 0.15127 0.12780 -0.02300
C 	C 	0.27570 0.69150 0.47290 -0.00700
H 	H 	0.30800 0.65980 0.49560 0.00900
C 	C 	0.41420 0.17620 0.54820 -0.00700
C 	C 	0.20650 0.93886 0.60020 0.08900
C 	C 	0.33030 0.86520 0.62180 -0.07900
H 	H 	0.39860 0.85190 0.61890 0.06000
C 	C 	0.67720 0.35910 0.12770 -0.07600
H 	H 	0.60890 0.34580 0.13190 0.04800
C 	C 	0.21620 0.03020 0.28130 -0.02100
H 	H 	0.14450 0.02260 0.27460 0.03500
C 	C 	0.32270 0.73857 0.21000 -0.00200
H 	H 	0.39220 0.74670 0.22690 0.03600
C 	C 	0.91470 0.51464 0.15970 0.08600
H 	H 	0.97290 0.49810 0.13570 -0.03500
C 	C 	0.33670 0.21560 0.55720 -0.15700
H 	H 	0.30870 0.23390 0.50740 0.11300
C 	C 	0.19450 0.92090 0.11680 -0.08000
H 	H 	0.13790 0.94520 0.11670 0.06400
C 	C 	0.15780 0.74671 0.41880 0.09400
H 	H 	0.09400 0.76090 0.39650 -0.01900
C 	C 	0.36200 0.84880 0.12250 -0.07400
H 	H 	0.41970 0.82520 0.12580 0.05700
C 	C 	0.26560 0.07750 0.25990 0.01800
H 	H 	0.23220 0.10820 0.23510 0.02500
C 	C 	0.32450 0.74040 0.46110 0.00400
H 	H 	0.39520 0.74830 0.47340 0.03500
C 	C 	0.27290 0.07770 0.01210 -0.00000
H 	H 	0.23860 0.10930 0.99130 0.03000
C 	C 	0.22570 0.03060 0.03720 -0.01200
H 	H 	0.15350 0.02410 0.03710 0.03500
C 	C 	0.75900 0.52540 0.20940 0.01400
H 	H 	0.69070 0.51920 0.22680 0.03000
C 	C 	0.20270 0.73350 0.68390 0.00500
H 	H 	0.12980 0.73620 0.67730 0.03500
C 	C 	0.25990 0.68760 0.70520 -0.01100
H 	H 	0.23160 0.65280 0.71390 0.00100
C 	C 	0.35820 0.85130 0.37550 -0.07700
H 	H 	0.41640 0.82800 0.37820 0.06200
C 	C 	0.19300 0.07920 0.53030 0.02900
H 	H 	0.21870 0.11180 0.50730 0.02100
C 	C 	0.18130 0.86580 0.14210 -0.06900
H 	H 	0.11520 0.85340 0.15720 0.04800
C 	C 	0.35530 0.31850 0.12220 -0.62300
H 	H 	0.30900 0.34970 0.12180 0.21200
H 	H 	0.40000 0.32070 0.07270 0.20900
H 	H 	0.39780 0.31820 0.17640 0.21800
C 	C 	0.30880 0.91930 0.59970 -0.07000
H 	H 	0.36320 0.94260 0.58450 0.06100
C 	C 	0.12790 0.90400 0.62310 -0.07000
H 	H 	0.05870 0.91650 0.62220 0.05300
C 	C 	0.37390 0.90236 0.09540 -0.07700
H 	H 	0.43970 0.91430 0.07880 0.05200
C 	C 	0.24930 0.03160 0.54020 -0.02600
H 	H 	0.31880 0.02590 0.52580 0.03900
C 	C 	0.81260 0.57330 0.21690 -0.01100
H 	H 	0.78620 0.60590 0.23950 0.02500
C 	C 	0.15040 0.85000 0.64790 -0.08300
H 	H 	0.09630 0.82690 0.66440 0.06500
C 	C 	0.87840 0.39720 0.12210 -0.06700
H 	H 	0.94770 0.40950 0.12200 0.05000
C 	C 	0.80560 0.22720 0.06610 -0.00800
H 	H 	0.87820 0.22920 0.07660 0.03900
C 	C 	0.15980 0.74479 0.15450 0.08500
H 	H 	0.09850 0.75860 0.12700 -0.01000
Cd	Cd	0.03719 0.63416 0.44515 1.17300
Cd	Cd	0.50297 0.63971 0.72102 1.17600
Cd	Cd	0.04162 0.62973 0.17318 1.16600
Cd	Cd	0.48973 0.63387 0.99336 1.16900
N 	N 	0.08750 0.06670 0.81430 -0.25500
O 	O 	0.92620 0.70195 0.19730 -0.39700
N 	N 	0.82950 0.19578 0.55410 -0.25800
N 	N 	0.61860 0.57087 0.97720 -0.26100
O 	O 	0.60170 0.70482 0.95870 -0.41900
N 	N 	0.63450 0.20008 0.28800 -0.25500
N 	N 	0.90390 0.57233 0.44180 -0.25900
N 	N 	0.35430 0.69427 0.97010 -0.26400
N 	N 	0.82800 0.19283 0.81510 -0.26200
O 	O 	0.49050 0.62218 0.55351 -0.37500
C 	C 	0.00280 0.62382 0.95430 0.30200
N 	N 	0.75200 0.27648 0.57320 -0.13600
O 	O 	0.99160 0.64700 0.02694 -0.40300
O 	O 	0.58000 0.69211 0.60610 -0.36900
C 	C 	0.24520 0.82439 0.90030 0.09500
C 	C 	0.63520 0.71617 0.88410 0.30300
C 	C 	0.62860 0.25267 0.30940 0.10100
H 	H 	0.56560 0.27190 0.31280 -0.01500
C 	C 	0.55020 0.66210 0.54370 0.29300
C 	C 	0.72860 0.18930 0.78040 -0.00900
H 	H 	0.69900 0.15810 0.75390 -0.00600
C 	C 	0.52830 0.63630 0.21080 0.29700
N 	N 	0.75110 0.27375 0.83030 -0.13400
O 	O 	0.04830 0.61277 0.61163 -0.37200
C 	C 	0.20030 0.93236 0.85220 0.08500
O 	O 	0.95680 0.68320 0.55710 -0.36700
C 	C 	0.99230 0.63830 0.78740 -0.05500
H 	H 	0.04050 0.61000 0.78050 0.06000
C 	C 	0.57770 0.66188 0.29340 -0.01100
C 	C 	0.84610 0.72237 0.80640 0.20500
O 	O 	0.93990 0.69602 0.34660 -0.41500
C 	C 	0.36200 0.74656 0.94900 0.09300
H 	H 	0.42520 0.76580 0.94970 -0.01800
N 	N 	0.70580 0.49565 0.68510 -0.13700
C 	C 	0.61530 0.52399 0.68860 0.09600
H 	H 	0.54980 0.50990 0.67050 -0.03800
C 	C 	0.98950 0.65297 0.62150 0.27600
C 	C 	0.74920 0.33079 0.35180 0.09700
C 	C 	0.69860 0.72759 0.36040 0.20600
O 	O 	0.54450 0.65765 0.13698 -0.40000
C 	C 	0.25180 0.68230 0.96030 -0.00100
H 	H 	0.22330 0.64770 0.97020 -0.01600
C 	C 	0.73930 0.33186 0.60090 0.09200
C 	C 	0.60620 0.52004 0.94850 0.08700
H 	H 	0.54060 0.50390 0.93730 -0.05300
N 	N 	0.62960 0.57375 0.72030 -0.25300
N 	N 	0.69650 0.49398 0.93730 -0.14000
C 	C 	0.54150 0.64890 0.37740 -0.05700
H 	H 	0.48900 0.62260 0.38360 0.06000
C 	C 	0.90700 0.71717 0.27470 0.27300
O 	O 	0.05140 0.57848 0.94490 -0.29900
C 	C 	0.88520 0.69416 0.88050 -0.15500
H 	H 	0.86250 0.70350 0.93630 0.09900
O 	O 	0.61220 0.69398 0.81270 -0.43700
O 	O 	0.77550 0.76506 0.81070 -0.25300
O 	O 	0.77540 0.76780 0.35616 -0.25000
N 	N 	0.72430 0.27536 0.32580 -0.13700
C 	C 	0.71640 0.44048 0.65620 0.08700
N 	N 	0.26680 0.76928 0.92590 -0.13600
C 	C 	0.95390 0.66745 0.71290 -0.00500
C 	C 	0.82480 0.36740 0.60050 -0.07800
H 	H 	0.88930 0.35500 0.58170 0.05300
C 	C 	0.73520 0.33030 0.85520 0.08800
C 	C 	0.70920 0.76616 0.88440 0.16800
H 	H 	0.75270 0.76650 0.93960 -0.01100
C 	C 	0.90820 0.52103 0.41620 0.09700
H 	H 	0.96820 0.50500 0.39440 -0.05100
C 	C 	0.63070 0.40570 0.65230 -0.07300
H 	H 	0.56530 0.41850 0.66830 0.05200
C 	C 	0.14550 0.84460 0.90320 -0.08300
H 	H 	0.09240 0.82200 0.92290 0.06400
O 	O 	0.47140 0.59388 0.21980 -0.30600
C 	C 	0.90630 0.82014 0.28550 -0.63000
H 	H 	0.86130 0.85180 0.28840 0.22000
H 	H 	0.94800 0.82280 0.23420 0.21600
H 	H 	0.95170 0.81860 0.33800 0.22600
C 	C 	0.30100 0.91243 0.85070 -0.06900
H 	H 	0.35520 0.93560 0.83480 0.05800
C 	C 	0.83930 0.76829 0.27920 0.16600
H 	H 	0.79310 0.77030 0.22560 -0.00800
C 	C 	0.81370 0.42200 0.62840 -0.07300
H 	H 	0.87090 0.44590 0.62850 0.05600
N 	N 	0.81740 0.49392 0.42450 -0.13800
N 	N 	0.17750 0.98826 0.82770 -0.11500
C 	C 	0.88140 0.70959 0.72240 -0.15300
H 	H 	0.85630 0.72930 0.67300 0.11300
C 	C 	0.70910 0.43863 0.90780 0.09100
C 	C 	0.65680 0.70004 0.28540 -0.15700
H 	H 	0.68260 0.70750 0.22990 0.10200
C 	C 	0.95930 0.65127 0.87220 -0.02100
C 	C 	0.72430 0.19150 0.52710 -0.00700
H 	H 	0.69200 0.15980 0.50440 0.00800
C 	C 	0.58580 0.67620 0.45180 -0.00600
C 	C 	0.79350 0.43886 0.39980 0.08700
C 	C 	0.66970 0.36520 0.37820 -0.08100
H 	H 	0.60140 0.35190 0.38110 0.05900
C 	C 	0.32280 0.85910 0.87230 -0.07600
H 	H 	0.39110 0.84580 0.86810 0.04900
C 	C 	0.78380 0.53020 0.71870 0.00100
H 	H 	0.85550 0.52260 0.72540 0.03300
C 	C 	0.67730 0.23857 0.79000 -0.00200
H 	H 	0.60780 0.24670 0.77310 0.03500
C 	C 	0.08530 0.01464 0.84030 0.04200
H 	H 	0.02710 0.99810 0.86430 -0.00900
C 	C 	0.66330 0.71560 0.44280 -0.15900
H 	H 	0.69130 0.73390 0.49260 0.11400
C 	C 	0.80550 0.42090 0.88320 -0.07900
H 	H 	0.86210 0.44520 0.88330 0.05900
C 	C 	0.84220 0.24671 0.58120 0.09400
H 	H 	0.90600 0.26090 0.60350 -0.01800
C 	C 	0.63800 0.34880 0.87750 -0.07600
H 	H 	0.58030 0.32520 0.87420 0.05700
C 	C 	0.73440 0.57750 0.74010 0.01000
H 	H 	0.76780 0.60820 0.76490 0.02800
C 	C 	0.67550 0.24040 0.53890 0.00400
H 	H 	0.60480 0.24830 0.52660 0.03500
C 	C 	0.72710 0.57770 0.98790 -0.00900
H 	H 	0.76140 0.60930 0.00870 0.03300
C 	C 	0.77430 0.53060 0.96280 0.01000
H 	H 	0.84650 0.52410 0.96290 0.03200
C 	C 	0.24100 0.02540 0.79060 -0.00700
H 	H 	0.30930 0.01920 0.77320 0.03200
C 	C 	0.79730 0.23350 0.31610 0.00400
H 	H 	0.87020 0.23620 0.32270 0.03500
C 	C 	0.74010 0.18760 0.29480 -0.01000
H 	H 	0.76840 0.15280 0.28610 -0.00100
C 	C 	0.64180 0.35130 0.62450 -0.07900
H 	H 	0.58360 0.32800 0.62180 0.06200
C 	C 	0.80700 0.57920 0.46970 0.02200
H 	H 	0.78130 0.61180 0.49270 0.02400
C 	C 	0.81870 0.36580 0.85790 -0.07200
H 	H 	0.88480 0.35340 0.84280 0.04900
C 	C 	0.64470 0.81850 0.87780 -0.62900
H 	H 	0.69100 0.84970 0.87820 0.21600
H 	H 	0.60000 0.82070 0.92730 0.21200
H 	H 	0.60220 0.81820 0.82360 0.22100
C 	C 	0.69120 0.41930 0.40030 -0.07000
H 	H 	0.63680 0.44260 0.41550 0.05600
C 	C 	0.87210 0.40400 0.37690 -0.07000
H 	H 	0.94130 0.41650 0.37780 0.05000
C 	C 	0.62610 0.40236 0.90460 -0.07700
H 	H 	0.56030 0.41430 0.92120 0.04700
C 	C 	0.75070 0.53160 0.45980 -0.00600
H 	H 	0.68120 0.52590 0.47420 0.03800
C 	C 	0.18740 0.07330 0.78310 -0.00200
H 	H 	0.21380 0.10590 0.76050 0.02200
C 	C 	0.84960 0.35000 0.35210 -0.08400
H 	H 	0.90370 0.32690 0.33560 0.06600
C 	C 	0.12160 0.89720 0.87790 -0.06500
H 	H 	0.05230 0.90950 0.87800 0.05100
C 	C 	0.19440 0.72720 0.93390 -0.00800
H 	H 	0.12180 0.72920 0.92340 0.03900
C 	C 	0.84020 0.24479 0.84550 0.08500
H 	H 	0.90150 0.25860 0.87300 -0.01000
