data_crystal

_cell_length_a 12.72800
_cell_length_b 19.17700
_cell_length_c 19.17700
_cell_angle_alpha 120.00000
_cell_angle_beta  90.00000
_cell_angle_gamma 90.00000

_symmetry_space_group_name_	'P 1'
_symmetry_space_group_name_H-M	'P 1'

loop_
_symmetry_equiv_pos_as_xyz
  x,y,z

loop_
_atom_site_label
_atom_site_type_symbol
_atom_site_fract_x
_atom_site_fract_y
_atom_site_fract_z
_atom_site_charge
U 	U 	0.50000 0.66695 -0.00000 0.03900
U 	U 	0.50000 0.33305 0.33305 0.04200
U 	U 	0.50000 0.00000 0.66695 0.03900
U 	U 	-0.00000 0.33305 -0.00000 0.03700
U 	U 	0.00000 0.66695 0.66695 0.03900
U 	U 	-0.00000 0.00000 0.33305 0.03700
U 	U 	0.50000 0.33305 -0.00000 0.04000
U 	U 	0.50000 0.66695 0.66695 0.04300
U 	U 	0.50000 0.00000 0.33305 0.04000
U 	U 	-0.00000 0.66695 -0.00000 0.03700
U 	U 	-0.00000 0.33305 0.33305 0.03900
U 	U 	-0.00000 0.00000 0.66695 0.03700
C 	C 	0.25000 0.67250 0.04490 0.21300
C 	C 	0.25000 0.68680 0.97500 0.24800
C 	C 	0.25000 0.37240 0.32750 0.21700
C 	C 	0.25000 0.28820 0.31320 0.24400
C 	C 	0.25000 0.95510 0.62760 0.22100
C 	C 	0.25000 0.02500 0.71180 0.24000
C 	C 	0.75000 0.32750 0.95510 0.22100
C 	C 	0.75000 0.31320 0.02500 0.23900
C 	C 	0.75000 0.62760 0.67250 0.21700
C 	C 	0.75000 0.71180 0.68680 0.24400
C 	C 	0.75000 0.04490 0.37240 0.21300
C 	C 	0.75000 0.97500 0.28820 0.24700
C 	C 	0.75000 0.62760 0.95510 0.22100
C 	C 	0.75000 0.71180 0.02500 0.23900
C 	C 	0.75000 0.04490 0.67250 0.21300
C 	C 	0.75000 0.97500 0.68680 0.24700
C 	C 	0.75000 0.32750 0.37240 0.21700
C 	C 	0.75000 0.31320 0.28820 0.24400
C 	C 	0.25000 0.37240 0.04490 0.21300
C 	C 	0.25000 0.28820 0.97500 0.24800
C 	C 	0.25000 0.95510 0.32750 0.22100
C 	C 	0.25000 0.02500 0.31320 0.24000
C 	C 	0.25000 0.67250 0.62760 0.21700
C 	C 	0.25000 0.68680 0.71180 0.24400
C 	C 	0.47000 0.85230 0.14770 0.22700
C 	C 	0.50600 0.80865 0.19135 0.22800
C 	C 	0.47000 0.29540 0.14770 0.22700
C 	C 	0.50600 0.38270 0.19135 0.22800
C 	C 	0.47000 0.85230 0.70460 0.22600
C 	C 	0.50600 0.80865 0.61730 0.22900
C 	C 	0.97000 0.14770 0.85230 0.23200
C 	C 	0.00600 0.19135 0.80865 0.22300
C 	C 	0.97000 0.70460 0.85230 0.23100
C 	C 	0.00600 0.61730 0.80865 0.22400
C 	C 	0.97000 0.14770 0.29540 0.23200
C 	C 	0.00600 0.19135 0.38270 0.22300
C 	C 	0.53000 0.70460 0.85230 0.22600
C 	C 	0.49400 0.61730 0.80865 0.22900
C 	C 	0.53000 0.14770 0.85230 0.22700
C 	C 	0.49400 0.19135 0.80865 0.22800
C 	C 	0.53000 0.14770 0.29540 0.22700
C 	C 	0.49400 0.19135 0.38270 0.22800
C 	C 	0.03000 0.29540 0.14770 0.22200
C 	C 	0.99400 0.38270 0.19135 0.23300
C 	C 	0.03000 0.85230 0.14770 0.22200
C 	C 	0.99400 0.80865 0.19135 0.23300
C 	C 	0.03000 0.85230 0.70460 0.22200
C 	C 	0.99400 0.80865 0.61730 0.23400
C 	C 	0.54050 0.51630 0.03260 0.20700
C 	C 	0.54050 0.51630 0.48370 0.21100
C 	C 	0.54050 0.96740 0.48370 0.21500
C 	C 	0.04050 0.48370 0.96740 0.21000
C 	C 	0.04050 0.48370 0.51630 0.20600
C 	C 	0.04050 0.03260 0.51630 0.20200
C 	C 	0.45950 0.48370 0.96740 0.21500
C 	C 	0.45950 0.03260 0.51630 0.20700
C 	C 	0.45950 0.48370 0.51630 0.21100
C 	C 	0.95950 0.51630 0.03260 0.21300
C 	C 	0.95950 0.96740 0.48370 0.22000
C 	C 	0.95950 0.51630 0.48370 0.21700
O 	O 	0.33920 0.67200 0.07370 -0.12400
O 	O 	0.52170 0.73410 0.14980 -0.11200
O 	O 	0.45690 0.81050 0.07290 -0.11400
O 	O 	0.57860 0.58700 0.05370 -0.10800
O 	O 	0.33700 0.69470 0.95120 -0.12700
O 	O 	0.33920 0.40170 0.32800 -0.12400
O 	O 	0.52170 0.41570 0.26590 -0.11200
O 	O 	0.45690 0.26240 0.18950 -0.11400
O 	O 	0.57860 0.46670 0.41300 -0.10800
O 	O 	0.33700 0.25650 0.30530 -0.12900
O 	O 	0.33920 0.92630 0.59830 -0.12400
O 	O 	0.52170 0.85020 0.58430 -0.11100
O 	O 	0.45690 0.92710 0.73760 -0.11100
O 	O 	0.57860 0.94630 0.53330 -0.10700
O 	O 	0.33700 0.04880 0.74350 -0.12800
O 	O 	0.83920 0.32800 0.92630 -0.12100
O 	O 	0.02170 0.26590 0.85020 -0.11200
O 	O 	0.95690 0.18950 0.92710 -0.11000
O 	O 	0.07860 0.41300 0.94630 -0.10700
O 	O 	0.83700 0.30530 0.04880 -0.12700
O 	O 	0.83920 0.59830 0.67200 -0.12200
O 	O 	0.02170 0.58430 0.73410 -0.11200
O 	O 	0.95690 0.73760 0.81050 -0.11100
O 	O 	0.07860 0.53330 0.58700 -0.10800
O 	O 	0.83700 0.74350 0.69470 -0.12600
O 	O 	0.83920 0.07370 0.40170 -0.12200
O 	O 	0.02170 0.14980 0.41570 -0.11200
O 	O 	0.95690 0.07290 0.26240 -0.11300
O 	O 	0.07860 0.05370 0.46670 -0.10800
O 	O 	0.83700 0.95120 0.25650 -0.12600
O 	O 	0.66080 0.59830 0.92630 -0.12300
O 	O 	0.47830 0.58430 0.85020 -0.11100
O 	O 	0.54310 0.73760 0.92710 -0.11100
O 	O 	0.42140 0.53330 0.94630 -0.10700
O 	O 	0.66300 0.74350 0.04880 -0.12800
O 	O 	0.66080 0.07370 0.67200 -0.12300
O 	O 	0.47830 0.14980 0.73410 -0.11200
O 	O 	0.54310 0.07290 0.81050 -0.11400
O 	O 	0.42140 0.05370 0.58700 -0.10800
O 	O 	0.66300 0.95120 0.69470 -0.12700
O 	O 	0.66080 0.32800 0.40170 -0.12300
O 	O 	0.47830 0.26590 0.41570 -0.11200
O 	O 	0.54310 0.18950 0.26240 -0.11400
O 	O 	0.42140 0.41300 0.46670 -0.10800
O 	O 	0.66300 0.30530 0.25650 -0.12800
O 	O 	0.16080 0.40170 0.07370 -0.12500
O 	O 	0.97830 0.41570 0.14980 -0.11100
O 	O 	0.04310 0.26240 0.07290 -0.11600
O 	O 	0.92140 0.46670 0.05370 -0.10800
O 	O 	0.16300 0.25650 0.95120 -0.12800
O 	O 	0.16080 0.92630 0.32800 -0.12500
O 	O 	0.97830 0.85020 0.26590 -0.11000
O 	O 	0.04310 0.92710 0.18950 -0.11300
O 	O 	0.92140 0.94630 0.41300 -0.10700
O 	O 	0.16300 0.04880 0.30530 -0.12900
O 	O 	0.16080 0.67200 0.59830 -0.12500
O 	O 	0.97830 0.73410 0.58430 -0.11100
O 	O 	0.04310 0.81050 0.73760 -0.11300
O 	O 	0.92140 0.58700 0.53330 -0.10700
O 	O 	0.16300 0.69470 0.74350 -0.12900
O 	O 	0.66080 0.32800 0.92630 -0.12300
O 	O 	0.47830 0.26590 0.85020 -0.11100
O 	O 	0.54310 0.18950 0.92710 -0.11100
O 	O 	0.42140 0.41300 0.94630 -0.10700
O 	O 	0.66300 0.30530 0.04880 -0.12800
O 	O 	0.66080 0.59830 0.67200 -0.12300
O 	O 	0.47830 0.58430 0.73410 -0.11200
O 	O 	0.54310 0.73760 0.81050 -0.11200
O 	O 	0.42140 0.53330 0.58700 -0.10800
O 	O 	0.66300 0.74350 0.69470 -0.12800
O 	O 	0.66080 0.07370 0.40170 -0.12300
O 	O 	0.47830 0.14980 0.41570 -0.11200
O 	O 	0.54310 0.07290 0.26240 -0.11500
O 	O 	0.42140 0.05370 0.46670 -0.10800
O 	O 	0.66300 0.95120 0.25650 -0.12700
O 	O 	0.16080 0.67200 0.07370 -0.12500
O 	O 	0.97830 0.73410 0.14980 -0.11100
O 	O 	0.04310 0.81050 0.07290 -0.11500
O 	O 	0.92140 0.58700 0.05370 -0.10800
O 	O 	0.16300 0.69470 0.95120 -0.12800
O 	O 	0.16080 0.40170 0.32800 -0.12500
O 	O 	0.97830 0.41570 0.26590 -0.11100
O 	O 	0.04310 0.26240 0.18950 -0.11500
O 	O 	0.92140 0.46670 0.41300 -0.10700
O 	O 	0.16300 0.25650 0.30530 -0.12900
O 	O 	0.16080 0.92630 0.59830 -0.12500
O 	O 	0.97830 0.85020 0.58430 -0.11000
O 	O 	0.04310 0.92710 0.73760 -0.11200
O 	O 	0.92140 0.94630 0.53330 -0.10700
O 	O 	0.16300 0.04880 0.74350 -0.12900
O 	O 	0.33920 0.40170 0.07370 -0.12400
O 	O 	0.52170 0.41570 0.14980 -0.11200
O 	O 	0.45690 0.26240 0.07290 -0.11500
O 	O 	0.57860 0.46670 0.05370 -0.10800
O 	O 	0.33700 0.25650 0.95120 -0.12800
O 	O 	0.33920 0.92630 0.32800 -0.12400
O 	O 	0.52170 0.85020 0.26590 -0.11100
O 	O 	0.45690 0.92710 0.18950 -0.11200
O 	O 	0.57860 0.94630 0.41300 -0.10700
O 	O 	0.33700 0.04880 0.30530 -0.12800
O 	O 	0.33920 0.67200 0.59830 -0.12400
O 	O 	0.52170 0.73410 0.58430 -0.11200
O 	O 	0.45690 0.81050 0.73760 -0.11300
O 	O 	0.57860 0.58700 0.53330 -0.10800
O 	O 	0.33700 0.69470 0.74350 -0.12800
O 	O 	0.83920 0.59830 0.92630 -0.12100
O 	O 	0.02170 0.58430 0.85020 -0.11200
O 	O 	0.95690 0.73760 0.92710 -0.10900
O 	O 	0.07860 0.53330 0.94630 -0.10700
O 	O 	0.83700 0.74350 0.04880 -0.12700
O 	O 	0.83920 0.07370 0.67200 -0.12200
O 	O 	0.02170 0.14980 0.73410 -0.11200
O 	O 	0.95690 0.07290 0.81050 -0.11200
O 	O 	0.07860 0.05370 0.58700 -0.10800
O 	O 	0.83700 0.95120 0.69470 -0.12600
O 	O 	0.83920 0.32800 0.40170 -0.12200
O 	O 	0.02170 0.26590 0.41570 -0.11200
O 	O 	0.95690 0.18950 0.26240 -0.11200
O 	O 	0.07860 0.41300 0.46670 -0.10800
O 	O 	0.83700 0.30530 0.25650 -0.12700
