data_crystal

_cell_length_a 8.86100
_cell_length_b 9.35200
_cell_length_c 10.12400
_cell_angle_alpha 64.10600
_cell_angle_beta  75.00400
_cell_angle_gamma 75.38900

_symmetry_space_group_name_	'P 1'
_symmetry_space_group_name_H-M	'P 1'

loop_
_symmetry_equiv_pos_as_xyz
  x,y,z

loop_
_atom_site_label
_atom_site_type_symbol
_atom_site_fract_x
_atom_site_fract_y
_atom_site_fract_z
_atom_site_charge
Gd	Gd	0.33139 0.36576 0.84394 1.54600
O 	O 	0.08410 0.29820 0.02530 -0.30900
O 	O 	0.32790 0.08060 0.91710 -0.32700
O 	O 	0.52710 0.30850 0.64380 -0.32700
O 	O 	0.52540 0.52900 0.81130 -0.31400
O 	O 	0.43470 0.82010 0.03920 -0.30200
O 	O 	0.85910 0.39560 0.14460 -0.32100
O 	O 	0.66120 0.60870 0.92300 -0.31000
O 	O 	0.65920 0.40320 0.40710 -0.30800
C 	C 	0.98260 0.41120 0.04940 0.24100
C 	C 	0.43210 0.97040 0.98760 0.24400
C 	C 	0.55350 0.41680 0.51480 0.24200
C 	C 	0.55350 0.54040 0.92440 0.24600
Gd	Gd	0.66861 0.63424 0.15606 1.54500
O 	O 	0.91590 0.70180 0.97470 -0.31000
O 	O 	0.67210 0.91940 0.08290 -0.32700
O 	O 	0.47290 0.69150 0.35620 -0.32700
O 	O 	0.47460 0.47100 0.18870 -0.31400
O 	O 	0.56530 0.17990 0.96080 -0.30200
O 	O 	0.14090 0.60440 0.85540 -0.32100
O 	O 	0.33880 0.39130 0.07700 -0.31000
O 	O 	0.34080 0.59680 0.59290 -0.30800
C 	C 	0.01740 0.58880 0.95060 0.24100
C 	C 	0.56790 0.02960 0.01240 0.24400
C 	C 	0.44650 0.58320 0.48520 0.24200
C 	C 	0.44650 0.45960 0.07560 0.24600
