data_crystal

_cell_length_a 8.50700
_cell_length_b 9.76200
_cell_length_c 10.24900
_cell_angle_alpha 62.37800
_cell_angle_beta  76.68100
_cell_angle_gamma 73.85800

_symmetry_space_group_name_	'P 1'
_symmetry_space_group_name_H-M	'P 1'

loop_
_symmetry_equiv_pos_as_xyz
  x,y,z

loop_
_atom_site_label
_atom_site_type_symbol
_atom_site_fract_x
_atom_site_fract_y
_atom_site_fract_z
_atom_site_charge
Nd	Nd	0.66614 0.63076 0.16070 2.24100
Nd	Nd	0.33386 0.36924 0.83930 2.24100
C 	C 	0.01580 0.58460 0.95280 0.26000
C 	C 	0.57450 0.02160 0.01090 0.27300
C 	C 	0.44690 0.58290 0.48420 0.26500
C 	C 	0.44290 0.46250 0.07340 0.29300
C 	C 	0.98420 0.41540 0.04720 0.26000
C 	C 	0.42550 0.97840 0.98910 0.27300
C 	C 	0.55310 0.41710 0.51580 0.26500
C 	C 	0.55710 0.53750 0.92660 0.29300
O 	O 	0.92430 0.68950 0.98890 -0.40300
O 	O 	0.68580 0.90910 0.07540 -0.42700
O 	O 	0.46870 0.68890 0.35530 -0.43300
O 	O 	0.45830 0.48450 0.18000 -0.41900
O 	O 	0.57350 0.16560 0.96260 -0.40100
O 	O 	0.13020 0.60370 0.84810 -0.41600
O 	O 	0.34660 0.38940 0.07190 -0.41600
O 	O 	0.34750 0.59850 0.58920 -0.41700
O 	O 	0.07570 0.31050 0.01110 -0.40300
O 	O 	0.31420 0.09090 0.92460 -0.42700
O 	O 	0.53130 0.31110 0.64470 -0.43300
O 	O 	0.54170 0.51550 0.82000 -0.41900
O 	O 	0.42650 0.83440 0.03740 -0.40100
O 	O 	0.86980 0.39630 0.15190 -0.41600
O 	O 	0.65340 0.61060 0.92810 -0.41600
O 	O 	0.65250 0.40150 0.41080 -0.41700
