data_crystal

_cell_length_a 8.67300
_cell_length_b 9.41100
_cell_length_c 10.04800
_cell_angle_alpha 63.70800
_cell_angle_beta  76.11300
_cell_angle_gamma 75.45000

_symmetry_space_group_name_	'P 1'
_symmetry_space_group_name_H-M	'P 1'

loop_
_symmetry_equiv_pos_as_xyz
  x,y,z

loop_
_atom_site_label
_atom_site_type_symbol
_atom_site_fract_x
_atom_site_fract_y
_atom_site_fract_z
_atom_site_charge
Nd	Nd	0.32980 0.36454 0.84235 2.30800
O 	O 	0.08080 0.30240 0.02170 -0.42500
O 	O 	0.32620 0.07940 0.91760 -0.45200
O 	O 	0.52810 0.30940 0.64360 -0.43700
O 	O 	0.52970 0.52440 0.81230 -0.42400
O 	O 	0.43550 0.82280 0.03710 -0.41000
O 	O 	0.86180 0.39720 0.14990 -0.42800
O 	O 	0.65960 0.60730 0.92550 -0.41900
O 	O 	0.66200 0.40710 0.40790 -0.42200
C 	C 	0.98400 0.41090 0.05000 0.27100
C 	C 	0.42990 0.97370 0.98610 0.28300
C 	C 	0.55550 0.41830 0.51480 0.26700
C 	C 	0.55520 0.53870 0.92380 0.28800
Nd	Nd	0.67020 0.63546 0.15765 2.30800
O 	O 	0.91920 0.69760 0.97830 -0.42500
O 	O 	0.67380 0.92060 0.08240 -0.45200
O 	O 	0.47190 0.69060 0.35640 -0.43700
O 	O 	0.47030 0.47560 0.18770 -0.42400
O 	O 	0.56450 0.17720 0.96290 -0.41000
O 	O 	0.13820 0.60280 0.85010 -0.42800
O 	O 	0.34040 0.39270 0.07450 -0.41900
O 	O 	0.33800 0.59290 0.59210 -0.42200
C 	C 	0.01600 0.58910 0.95000 0.27100
C 	C 	0.57010 0.02630 0.01390 0.28300
C 	C 	0.44450 0.58170 0.48520 0.26700
C 	C 	0.44480 0.46130 0.07620 0.28800
