data_crystal

_cell_length_a 19.53000
_cell_length_b 9.56400
_cell_length_c 6.85200
_cell_angle_alpha 90.00000
_cell_angle_beta  110.75000
_cell_angle_gamma 90.00000

_symmetry_space_group_name_	'P 1'
_symmetry_space_group_name_H-M	'P 1'

loop_
_symmetry_equiv_pos_as_xyz
  x,y,z

loop_
_atom_site_label
_atom_site_type_symbol
_atom_site_fract_x
_atom_site_fract_y
_atom_site_fract_z
_atom_site_charge
Ca	Ca	0.48050 0.10580 0.23090 1.50500
O 	O 	0.57800 0.25600 0.16900 -0.38400
O 	O 	0.57500 0.25600 0.48100 -0.37700
C 	C 	0.60500 0.29100 0.35000 0.38100
C 	C 	0.67400 0.37300 0.42300 -0.19300
C 	C 	0.70800 0.40300 0.28400 0.18500
O 	O 	0.67100 0.40900 0.06400 -0.13900
O 	O 	0.67100 0.40900 0.77400 -0.14600
C 	C 	0.77400 0.47200 0.34300 -0.07100
C 	C 	0.80700 0.52000 0.55900 0.07100
N 	N 	0.37800 0.91700 0.12600 -0.16900
C 	C 	0.77600 0.48400 0.70300 -0.07000
C 	C 	0.70700 0.41100 0.63400 0.18500
O 	O 	0.44700 0.08800 0.54000 -0.55700
O 	O 	0.44600 0.08300 0.85100 -0.55500
C 	C 	0.42700 0.13900 0.67700 0.43700
C 	C 	0.37400 0.26700 0.62500 -0.10600
Ca	Ca	0.01950 0.60580 0.26910 1.50400
O 	O 	0.92200 0.75600 0.33100 -0.38200
O 	O 	0.92500 0.75600 0.01900 -0.37300
C 	C 	0.89500 0.79100 0.15000 0.37900
C 	C 	0.82600 0.87300 0.07700 -0.18200
C 	C 	0.79200 0.90300 0.21600 0.18200
O 	O 	0.82900 0.90900 0.43600 -0.13900
O 	O 	0.82900 0.90900 0.72600 -0.14500
C 	C 	0.72600 0.97200 0.15700 -0.06500
C 	C 	0.69300 0.02000 0.94100 0.06900
N 	N 	0.12200 0.41700 0.37400 -0.17100
C 	C 	0.72400 0.98400 0.79700 -0.06900
C 	C 	0.79300 0.91100 0.86600 0.17700
O 	O 	0.05300 0.58800 0.96000 -0.55500
O 	O 	0.05400 0.58300 0.64900 -0.55700
C 	C 	0.07300 0.63900 0.82300 0.43700
C 	C 	0.12600 0.76700 0.87500 -0.10600
Ca	Ca	0.51950 0.89420 0.76910 1.50400
O 	O 	0.42200 0.74400 0.83100 -0.38500
O 	O 	0.42500 0.74400 0.51900 -0.37700
C 	C 	0.39500 0.70900 0.65000 0.38100
C 	C 	0.32600 0.62700 0.57700 -0.19300
C 	C 	0.29200 0.59700 0.71600 0.18500
O 	O 	0.32900 0.59100 0.93600 -0.13900
O 	O 	0.32900 0.59100 0.22600 -0.14600
C 	C 	0.22600 0.52800 0.65700 -0.07100
C 	C 	0.19300 0.48000 0.44100 0.07100
N 	N 	0.62200 0.08300 0.87400 -0.16900
C 	C 	0.22400 0.51600 0.29700 -0.07000
C 	C 	0.29300 0.58900 0.36600 0.18500
O 	O 	0.55300 0.91200 0.46000 -0.55700
O 	O 	0.55400 0.91700 0.14900 -0.55500
C 	C 	0.57300 0.86100 0.32300 0.43700
C 	C 	0.62600 0.73300 0.37500 -0.10600
Ca	Ca	0.98050 0.39420 0.73090 1.50400
O 	O 	0.07800 0.24400 0.66900 -0.38200
O 	O 	0.07500 0.24400 0.98100 -0.37300
C 	C 	0.10500 0.20900 0.85000 0.37900
C 	C 	0.17400 0.12700 0.92300 -0.18200
C 	C 	0.20800 0.09700 0.78400 0.18200
O 	O 	0.17100 0.09100 0.56400 -0.13900
O 	O 	0.17100 0.09100 0.27400 -0.14500
C 	C 	0.27400 0.02800 0.84300 -0.06500
C 	C 	0.30700 0.98000 0.05900 0.06900
N 	N 	0.87800 0.58300 0.62600 -0.17100
C 	C 	0.27600 0.01600 0.20300 -0.06900
C 	C 	0.20700 0.08900 0.13400 0.17700
O 	O 	0.94700 0.41200 0.04000 -0.55500
O 	O 	0.94600 0.41700 0.35100 -0.55700
C 	C 	0.92700 0.36100 0.17700 0.43700
C 	C 	0.87400 0.23300 0.12500 -0.10600
