data_crystal

_cell_length_a 18.26300
_cell_length_b 6.85200
_cell_length_c 9.56400
_cell_angle_alpha 90.00000
_cell_angle_beta  90.00000
_cell_angle_gamma 90.00000

_symmetry_space_group_name_	'P 1'
_symmetry_space_group_name_H-M	'P 1'

loop_
_symmetry_equiv_pos_as_xyz
  x,y,z

loop_
_atom_site_label
_atom_site_type_symbol
_atom_site_fract_x
_atom_site_fract_y
_atom_site_fract_z
_atom_site_charge
O 	O 	0.07650 0.59250 0.24400 -0.37800
O 	O 	0.17100 0.39500 0.09100 -0.14100
O 	O 	0.05350 0.90600 0.58550 -0.55400
C 	C 	0.20750 0.57450 0.09300 0.18700
C 	C 	0.27500 0.57100 0.02200 -0.07200
O 	O 	0.42350 0.40750 0.74400 -0.38000
O 	O 	0.32900 0.60500 0.59100 -0.14200
O 	O 	0.44650 0.09400 0.08550 -0.55400
C 	C 	0.29250 0.42550 0.59300 0.18500
C 	C 	0.22500 0.42900 0.52200 -0.07000
O 	O 	0.92350 0.09250 0.75600 -0.37900
O 	O 	0.82900 0.89500 0.90900 -0.14000
O 	O 	0.94650 0.40600 0.41450 -0.55700
C 	C 	0.79250 0.07450 0.90700 0.18300
C 	C 	0.72500 0.07100 0.97800 -0.07500
O 	O 	0.57650 0.90750 0.25600 -0.38200
O 	O 	0.67100 0.10500 0.40900 -0.14100
O 	O 	0.55350 0.59400 0.91450 -0.55700
C 	C 	0.70750 0.92550 0.40700 0.18200
C 	C 	0.77500 0.92900 0.47800 -0.07100
O 	O 	0.92350 0.40750 0.75600 -0.37900
O 	O 	0.82900 0.60500 0.90900 -0.14200
O 	O 	0.94650 0.09400 0.41450 -0.55500
C 	C 	0.79250 0.42550 0.90700 0.18600
C 	C 	0.72500 0.42900 0.97800 -0.07200
O 	O 	0.57650 0.59250 0.25600 -0.38000
O 	O 	0.67100 0.39500 0.40900 -0.14200
O 	O 	0.55350 0.90600 0.91450 -0.55400
C 	C 	0.70750 0.57450 0.40700 0.18500
C 	C 	0.77500 0.57100 0.47800 -0.07000
O 	O 	0.07650 0.90750 0.24400 -0.37900
O 	O 	0.17100 0.10500 0.09100 -0.14000
O 	O 	0.05350 0.59400 0.58550 -0.55700
C 	C 	0.20750 0.92550 0.09300 0.18300
C 	C 	0.27500 0.92900 0.02200 -0.07500
O 	O 	0.42350 0.09250 0.74400 -0.38200
O 	O 	0.32900 0.89500 0.59100 -0.14100
O 	O 	0.44650 0.40600 0.08550 -0.55700
C 	C 	0.29250 0.07450 0.59300 0.18200
C 	C 	0.22500 0.07100 0.52200 -0.07100
Ca	Ca	0.98050 0.75000 0.39420 1.50400
N 	N 	0.37800 0.75000 0.91700 -0.17000
C 	C 	0.10500 0.75000 0.20900 0.38000
C 	C 	0.17400 0.75000 0.12700 -0.19200
C 	C 	0.30700 0.75000 0.98000 0.07600
C 	C 	0.07300 0.75000 0.63900 0.43800
C 	C 	0.12600 0.75000 0.76700 -0.10400
Ca	Ca	0.51950 0.25000 0.89420 1.50400
N 	N 	0.12200 0.25000 0.41700 -0.17000
C 	C 	0.39500 0.25000 0.70900 0.38000
C 	C 	0.32600 0.25000 0.62700 -0.19200
C 	C 	0.19300 0.25000 0.48000 0.07100
C 	C 	0.42700 0.25000 0.13900 0.43800
C 	C 	0.37400 0.25000 0.26700 -0.10500
Ca	Ca	0.01950 0.25000 0.60580 1.50400
N 	N 	0.62200 0.25000 0.08300 -0.17000
C 	C 	0.89500 0.25000 0.79100 0.38000
C 	C 	0.82600 0.25000 0.87300 -0.19200
C 	C 	0.69300 0.25000 0.02000 0.07600
C 	C 	0.92700 0.25000 0.36100 0.43800
C 	C 	0.87400 0.25000 0.23300 -0.10400
Ca	Ca	0.48050 0.75000 0.10580 1.50400
N 	N 	0.87800 0.75000 0.58300 -0.17000
C 	C 	0.60500 0.75000 0.29100 0.38000
C 	C 	0.67400 0.75000 0.37300 -0.19200
C 	C 	0.80700 0.75000 0.52000 0.07100
C 	C 	0.57300 0.75000 0.86100 0.43800
C 	C 	0.62600 0.75000 0.73300 -0.10500
