data_crystal

_cell_length_a 12.55990
_cell_length_b 12.74810
_cell_length_c 13.36700
_cell_angle_alpha 99.74900
_cell_angle_beta  105.53700
_cell_angle_gamma 111.87800

_symmetry_space_group_name_	'P 1'
_symmetry_space_group_name_H-M	'P 1'

loop_
_symmetry_equiv_pos_as_xyz
  x,y,z

loop_
_atom_site_label
_atom_site_type_symbol
_atom_site_fract_x
_atom_site_fract_y
_atom_site_fract_z
_atom_site_charge
N 	N 	0.60880 0.42670 0.56380 -0.24500
N 	N 	0.35330 0.34510 0.46430 -0.24700
C 	C 	0.63500 0.41220 0.66180 0.09100
C 	C 	0.67360 0.38240 0.51940 0.09000
C 	C 	0.69280 0.70710 0.46960 0.09900
C 	C 	0.70850 0.74070 0.63290 0.09800
N 	N 	0.71400 0.36610 0.67650 -0.10400
H 	H 	0.60230 0.43160 0.71290 -0.02100
N 	N 	0.74080 0.34660 0.58550 -0.10200
H 	H 	0.67100 0.37770 0.44850 -0.02400
N 	N 	0.77630 0.81640 0.52390 -0.10300
H 	H 	0.66960 0.67180 0.39550 -0.02600
N 	N 	0.78620 0.84050 0.62940 -0.09000
H 	H 	0.69640 0.72940 0.69660 -0.02000
N 	N 	0.86990 0.02420 0.89350 -0.23000
N 	N 	0.96770 0.08160 0.12550 -0.24000
C 	C 	0.77510 0.34580 0.77530 0.00600
C 	C 	0.84660 0.90800 0.48380 0.02200
C 	C 	0.74950 0.96200 0.86200 0.10400
C 	C 	0.88260 0.09580 0.82850 0.10000
C 	C 	0.97010 0.18770 0.14860 0.09400
C 	C 	0.92860 0.03590 0.19960 0.08900
H 	H 	0.80040 0.28440 0.75620 0.04200
H 	H 	0.71760 0.31830 0.81180 0.03000
C 	C 	0.88650 0.45750 0.85200 -0.21700
C 	C 	0.79880 0.00120 0.47760 -0.22500
H 	H 	0.93240 0.94610 0.53180 0.03700
H 	H 	0.84220 0.87160 0.41200 0.02500
N 	N 	0.69420 0.99400 0.78150 -0.10100
H 	H 	0.70980 0.90480 0.89130 -0.01500
N 	N 	0.77840 0.08020 0.75870 -0.10200
H 	H 	0.95870 0.15110 0.83330 -0.00700
N 	N 	0.93160 0.20340 0.22980 -0.09400
H 	H 	0.99550 0.24330 0.11250 -0.02100
N 	N 	0.90340 0.10570 0.26490 -0.09900
H 	H 	0.92000 0.96150 0.20450 -0.00700
C 	C 	0.94600 0.44260 0.96100 0.08700
H 	H 	0.86220 0.52080 0.86500 0.10100
H 	H 	0.94690 0.48070 0.81750 0.10600
H 	H 	0.85010 0.06180 0.45350 0.09900
H 	H 	0.80520 0.03880 0.54980 0.10800
C 	C 	0.66740 0.95040 0.40150 0.05400
C 	C 	0.56280 0.93500 0.70960 0.02600
C 	C 	0.91180 0.30370 0.27850 -0.05900
H 	H 	0.88480 0.41590 0.99420 0.01800
H 	H 	0.97430 0.38220 0.94850 0.01700
C 	C 	0.62200 0.04060 0.38560 -0.22500
H 	H 	0.61540 0.89520 0.42960 0.02100
H 	H 	0.65970 0.90600 0.33130 0.01200
C 	C 	0.51490 0.02030 0.68870 -0.21100
H 	H 	0.55350 0.88590 0.64100 0.02900
H 	H 	0.51520 0.88380 0.74330 0.02200
C 	C 	0.98870 0.36430 0.39680 -0.04900
H 	H 	0.82570 0.27540 0.26980 0.04300
H 	H 	0.92970 0.36130 0.23890 0.04600
H 	H 	0.63200 0.08760 0.45560 0.09600
H 	H 	0.66990 0.09320 0.35300 0.09200
H 	H 	0.56240 0.07130 0.65470 0.09800
H 	H 	0.52460 0.06970 0.75740 0.09500
C 	C 	0.96680 0.47020 0.43970 -0.11200
H 	H 	0.07510 0.39100 0.40680 0.03300
H 	H 	0.96840 0.30870 0.43780 0.05500
H 	H 	0.99290 0.52790 0.40170 0.07000
H 	H 	0.87920 0.44380 0.42310 0.05900
N 	N 	0.39120 0.57330 0.43620 -0.24500
N 	N 	0.64670 0.65490 0.53570 -0.24800
C 	C 	0.36500 0.58780 0.33820 0.08600
C 	C 	0.32640 0.61760 0.48060 0.09100
C 	C 	0.30720 0.29290 0.53040 0.08800
C 	C 	0.29150 0.25930 0.36710 0.09500
N 	N 	0.28600 0.63390 0.32350 -0.08900
H 	H 	0.39770 0.56840 0.28710 -0.02500
N 	N 	0.25920 0.65340 0.41450 -0.10400
H 	H 	0.32900 0.62230 0.55150 -0.02000
N 	N 	0.22370 0.18360 0.47610 -0.09200
H 	H 	0.33040 0.32820 0.60450 -0.02000
N 	N 	0.21380 0.15950 0.37060 -0.10000
H 	H 	0.30360 0.27060 0.30340 -0.02800
N 	N 	0.13010 0.97580 0.10650 -0.24200
N 	N 	0.03230 0.91840 0.87450 -0.23600
C 	C 	0.22490 0.65420 0.22470 -0.10600
C 	C 	0.15340 0.09200 0.51620 -0.08000
C 	C 	0.25050 0.03800 0.13800 0.06800
C 	C 	0.11740 0.90420 0.17150 0.09500
C 	C 	0.02990 0.81230 0.85140 0.10000
C 	C 	0.07140 0.96410 0.80040 0.12000
H 	H 	0.19960 0.71560 0.24380 0.07300
H 	H 	0.28240 0.68170 0.18820 0.05700
C 	C 	0.11350 0.54250 0.14800 0.00000
C 	C 	0.20120 0.99880 0.52240 -0.03000
H 	H 	0.06760 0.05390 0.46820 0.04600
H 	H 	0.15780 0.12840 0.58800 0.04700
N 	N 	0.30580 0.00600 0.21850 -0.09300
H 	H 	0.29020 0.09520 0.10870 -0.02800
N 	N 	0.22160 0.91980 0.24130 -0.09800
H 	H 	0.04130 0.84890 0.16670 -0.03100
N 	N 	0.06840 0.79660 0.77020 -0.10500
H 	H 	0.00450 0.75670 0.88750 -0.01800
N 	N 	0.09660 0.89430 0.73510 -0.10300
H 	H 	0.08000 0.03850 0.79550 -0.03400
C 	C 	0.05400 0.55740 0.03900 -0.27200
H 	H 	0.13780 0.47920 0.13500 0.01200
H 	H 	0.05310 0.51930 0.18250 0.01600
H 	H 	0.14990 0.93820 0.54650 0.03800
H 	H 	0.19480 0.96120 0.45020 0.05200
C 	C 	0.33260 0.04960 0.59850 -0.18500
C 	C 	0.43720 0.06500 0.29040 -0.10000
C 	C 	0.08820 0.69630 0.72150 0.00700
H 	H 	0.11520 0.58410 0.00580 0.08300
H 	H 	0.02570 0.61780 0.05150 0.08400
C 	C 	0.37800 0.95940 0.61440 0.01200
H 	H 	0.38460 0.10480 0.57040 0.08800
H 	H 	0.34030 0.09400 0.66870 0.08100
C 	C 	0.48510 0.97970 0.31130 -0.01100
H 	H 	0.44650 0.11410 0.35900 0.06200
H 	H 	0.48480 0.11620 0.25670 0.04900
C 	C 	0.01130 0.63570 0.60320 -0.20000
H 	H 	0.17430 0.72460 0.73020 0.03400
H 	H 	0.07030 0.63870 0.76110 0.02200
H 	H 	0.36800 0.91240 0.54440 0.03200
H 	H 	0.33010 0.90680 0.64700 0.02900
H 	H 	0.43760 0.92870 0.34530 0.04400
H 	H 	0.47540 0.93030 0.24260 0.03300
C 	C 	0.03320 0.52980 0.56030 -0.05600
H 	H 	0.92490 0.60900 0.59320 0.10800
H 	H 	0.03160 0.69130 0.56220 0.08800
H 	H 	0.00710 0.47210 0.59830 0.03600
H 	H 	0.12080 0.55620 0.57690 0.04100
Cu	Cu	-0.00000 0.00000 -0.00000 0.81300
Cu	Cu	0.50000 0.50000 0.50000 0.85100
