data_crystal

_cell_length_a 23.68100
_cell_length_b 9.69280
_cell_length_c 35.38900
_cell_angle_alpha 90.00000
_cell_angle_beta  92.78900
_cell_angle_gamma 90.00000

_symmetry_space_group_name_	'P 1'
_symmetry_space_group_name_H-M	'P 1'

loop_
_symmetry_equiv_pos_as_xyz
  x,y,z

loop_
_atom_site_label
_atom_site_type_symbol
_atom_site_fract_x
_atom_site_fract_y
_atom_site_fract_z
_atom_site_charge
Cd	Cd	0.19055 0.95179 0.32492 1.21800
O 	O 	0.14278 0.82190 0.36826 -0.41500
O 	O 	0.19834 0.70140 0.33325 -0.35400
O 	O 	0.12449 0.24560 0.45212 -0.29900
O 	O 	0.13620 0.10480 0.76623 -0.37400
O 	O 	0.20438 0.95400 0.76451 -0.38000
O 	O 	0.11810 0.96300 0.59112 -0.29600
O 	O 	0.74462 0.56100 0.36988 -0.42000
O 	O 	0.79606 0.45360 0.32943 -0.36200
O 	O 	0.98921 0.69340 0.44336 -0.29900
C 	C 	0.12060 0.01040 0.46961 -0.28400
C 	C 	0.14570 0.98020 0.50576 0.34400
C 	C 	0.12080 0.88310 0.52895 -0.28300
C 	C 	0.06970 0.81830 0.51646 0.34700
C 	C 	0.04285 0.85590 0.48227 -0.29600
C 	C 	0.06820 0.94990 0.45837 0.38400
C 	C 	0.14860 0.11090 0.44372 0.17300
H 	H 	0.18920 0.11140 0.44870 -0.02600
H 	H 	0.14060 0.08660 0.41740 -0.02800
C 	C 	0.20050 0.05700 0.51885 -0.83000
H 	H 	0.23240 0.99670 0.51660 0.27500
H 	H 	0.19820 0.08460 0.54480 0.28500
H 	H 	0.20510 0.13710 0.50340 0.27900
C 	C 	0.14400 0.85800 0.56865 0.18200
H 	H 	0.13400 0.76650 0.57720 -0.02900
H 	H 	0.18490 0.86700 0.57010 -0.02500
C 	C 	0.04400 0.70370 0.54111 -0.82500
H 	H 	0.01650 0.65220 0.52610 0.28200
H 	H 	0.02610 0.74520 0.56210 0.27400
H 	H 	0.07340 0.64280 0.55040 0.28200
C 	C 	0.98425 0.79970 0.47144 0.17800
H 	H 	0.96720 0.76210 0.49360 -0.02300
H 	H 	0.96020 0.87340 0.46140 -0.01900
C 	C 	0.04080 0.98830 0.41995 -0.91000
H 	H 	0.00160 0.96270 0.41910 0.31400
H 	H 	0.05960 0.94040 0.40040 0.31200
H 	H 	0.04400 0.08600 0.41610 0.30100
C 	C 	0.16670 0.71040 0.36151 0.34900
C 	C 	0.15850 0.58740 0.38583 -0.21300
C 	C 	0.11840 0.59060 0.41293 0.16900
H 	H 	0.09790 0.67080 0.41670 -0.01000
C 	C 	0.10900 0.47480 0.43428 -0.30100
H 	H 	0.08170 0.47750 0.45230 0.14100
C 	C 	0.13920 0.35550 0.42953 0.30200
C 	C 	0.17970 0.35320 0.40331 -0.32900
H 	H 	0.20080 0.27370 0.39990 0.15100
C 	C 	0.18930 0.46900 0.38203 0.18200
H 	H 	0.21740 0.46680 0.36460 -0.01700
C 	C 	0.16540 0.02230 0.74886 0.34900
C 	C 	0.15250 0.00120 0.70663 -0.19000
C 	C 	0.17480 0.89170 0.68748 0.17500
H 	H 	0.19740 0.82810 0.70080 0.00000
C 	C 	0.16430 0.87390 0.64913 -0.29300
H 	H 	0.17890 0.79760 0.63700 0.14500
C 	C 	0.13220 0.96980 0.62889 0.30700
C 	C 	0.10960 0.08020 0.64746 -0.29400
H 	H 	0.08730 0.14430 0.63400 0.14400
C 	C 	0.11980 0.09580 0.68592 0.16200
H 	H 	0.10450 0.17100 0.69820 -0.00600
C 	C 	0.79200 0.52240 0.35831 0.35500
C 	C 	0.84450 0.56400 0.38255 -0.21300
C 	C 	0.89840 0.53780 0.37016 0.17600
H 	H 	0.90300 0.49080 0.34760 -0.01800
C 	C 	0.94460 0.58240 0.39168 -0.32600
H 	H 	0.98050 0.56570 0.38310 0.15000
C 	C 	0.93986 0.65040 0.42515 0.31900
C 	C 	0.88720 0.67270 0.43820 -0.33300
H 	H 	0.88280 0.71630 0.46130 0.15000
C 	C 	0.84060 0.62860 0.41620 0.18700
H 	H 	0.80480 0.64440 0.42500 -0.03200
Cd	Cd	0.69055 0.45179 0.32492 1.22000
O 	O 	0.64278 0.32190 0.36826 -0.41300
O 	O 	0.69834 0.20140 0.33325 -0.35200
O 	O 	0.62449 0.74560 0.45212 -0.29800
O 	O 	0.63620 0.60480 0.76623 -0.37300
O 	O 	0.70438 0.45400 0.76451 -0.38200
O 	O 	0.61810 0.46300 0.59112 -0.29400
O 	O 	0.24462 0.06100 0.36988 -0.41900
O 	O 	0.29606 0.95360 0.32943 -0.36500
O 	O 	0.48921 0.19340 0.44336 -0.29900
C 	C 	0.62060 0.51040 0.46961 -0.28600
C 	C 	0.64570 0.48020 0.50576 0.34800
C 	C 	0.62080 0.38310 0.52895 -0.28400
C 	C 	0.56970 0.31830 0.51646 0.34700
C 	C 	0.54285 0.35590 0.48227 -0.29600
C 	C 	0.56820 0.44990 0.45837 0.38400
C 	C 	0.64860 0.61090 0.44372 0.17500
H 	H 	0.68920 0.61140 0.44870 -0.02700
H 	H 	0.64060 0.58660 0.41740 -0.02900
C 	C 	0.70050 0.55700 0.51885 -0.83400
H 	H 	0.73240 0.49670 0.51660 0.27600
H 	H 	0.69820 0.58460 0.54480 0.28700
H 	H 	0.70510 0.63710 0.50340 0.28100
C 	C 	0.64400 0.35800 0.56865 0.18200
H 	H 	0.63400 0.26650 0.57720 -0.02900
H 	H 	0.68490 0.36700 0.57010 -0.02500
C 	C 	0.54400 0.20370 0.54111 -0.82400
H 	H 	0.51650 0.15220 0.52610 0.28100
H 	H 	0.52610 0.24520 0.56210 0.27300
H 	H 	0.57340 0.14280 0.55040 0.28100
C 	C 	0.48425 0.29970 0.47144 0.17800
H 	H 	0.46720 0.26210 0.49360 -0.02300
H 	H 	0.46020 0.37340 0.46140 -0.01900
C 	C 	0.54080 0.48830 0.41995 -0.90300
H 	H 	0.50160 0.46270 0.41910 0.31300
H 	H 	0.55960 0.44040 0.40040 0.31000
H 	H 	0.54400 0.58600 0.41610 0.29700
C 	C 	0.66670 0.21040 0.36151 0.34800
C 	C 	0.65850 0.08740 0.38583 -0.21000
C 	C 	0.61840 0.09060 0.41293 0.16900
H 	H 	0.59790 0.17080 0.41670 -0.01000
C 	C 	0.60900 0.97480 0.43428 -0.30200
H 	H 	0.58170 0.97750 0.45230 0.14100
C 	C 	0.63920 0.85550 0.42953 0.30200
C 	C 	0.67970 0.85320 0.40331 -0.32800
H 	H 	0.70080 0.77370 0.39990 0.15000
C 	C 	0.68930 0.96900 0.38203 0.17900
H 	H 	0.71740 0.96680 0.36460 -0.01700
C 	C 	0.66540 0.52230 0.74886 0.35100
C 	C 	0.65250 0.50120 0.70663 -0.18200
C 	C 	0.67480 0.39170 0.68748 0.16500
H 	H 	0.69740 0.32810 0.70080 0.00300
C 	C 	0.66430 0.37390 0.64913 -0.28600
H 	H 	0.67890 0.29760 0.63700 0.14200
C 	C 	0.63220 0.46980 0.62889 0.29900
C 	C 	0.60960 0.58020 0.64746 -0.28400
H 	H 	0.58730 0.64430 0.63400 0.14100
C 	C 	0.61980 0.59580 0.68592 0.15500
H 	H 	0.60450 0.67100 0.69820 -0.00400
C 	C 	0.29200 0.02240 0.35831 0.36100
C 	C 	0.34450 0.06400 0.38255 -0.22000
C 	C 	0.39840 0.03780 0.37016 0.18800
H 	H 	0.40300 0.99080 0.34760 -0.02400
C 	C 	0.44460 0.08240 0.39168 -0.33400
H 	H 	0.48050 0.06570 0.38310 0.15300
C 	C 	0.43986 0.15040 0.42515 0.32400
C 	C 	0.38720 0.17270 0.43820 -0.33800
H 	H 	0.38280 0.21630 0.46130 0.15200
C 	C 	0.34060 0.12860 0.41620 0.19300
H 	H 	0.30480 0.14440 0.42500 -0.03400
Cd	Cd	0.19055 0.04821 0.82492 1.21900
O 	O 	0.14278 0.17810 0.86826 -0.41400
O 	O 	0.19834 0.29860 0.83325 -0.35300
O 	O 	0.12449 0.75440 0.95212 -0.29800
O 	O 	0.13620 0.89520 0.26623 -0.37300
O 	O 	0.20438 0.04600 0.26451 -0.37900
O 	O 	0.11810 0.03700 0.09112 -0.29500
O 	O 	0.74462 0.43900 0.86988 -0.41900
O 	O 	0.79606 0.54640 0.82943 -0.36100
O 	O 	0.98921 0.30660 0.94336 -0.29800
C 	C 	0.12060 0.98960 0.96961 -0.28300
C 	C 	0.14570 0.01980 0.00576 0.34500
C 	C 	0.12080 0.11690 0.02895 -0.28300
C 	C 	0.06970 0.18170 0.01646 0.34600
C 	C 	0.04285 0.14410 0.98227 -0.29500
C 	C 	0.06820 0.05010 0.95837 0.38300
C 	C 	0.14860 0.88910 0.94372 0.17300
H 	H 	0.18920 0.88860 0.94870 -0.02600
H 	H 	0.14060 0.91340 0.91740 -0.02800
C 	C 	0.20050 0.94300 0.01885 -0.82900
H 	H 	0.23240 0.00330 0.01660 0.27500
H 	H 	0.19820 0.91540 0.04480 0.28500
H 	H 	0.20510 0.86290 0.00340 0.27900
C 	C 	0.14400 0.14200 0.06865 0.18200
H 	H 	0.13400 0.23350 0.07720 -0.02900
H 	H 	0.18490 0.13300 0.07010 -0.02500
C 	C 	0.04400 0.29630 0.04111 -0.82500
H 	H 	0.01650 0.34780 0.02610 0.28100
H 	H 	0.02610 0.25480 0.06210 0.27300
H 	H 	0.07340 0.35720 0.05040 0.28100
C 	C 	0.98425 0.20030 0.97144 0.17700
H 	H 	0.96720 0.23790 0.99360 -0.02300
H 	H 	0.96020 0.12660 0.96140 -0.01900
C 	C 	0.04080 0.01170 0.91995 -0.91000
H 	H 	0.00160 0.03730 0.91910 0.31400
H 	H 	0.05960 0.05960 0.90040 0.31200
H 	H 	0.04400 0.91400 0.91610 0.30000
C 	C 	0.16670 0.28960 0.86151 0.34900
C 	C 	0.15850 0.41260 0.88583 -0.21300
C 	C 	0.11840 0.40940 0.91293 0.16900
H 	H 	0.09790 0.32920 0.91670 -0.01000
C 	C 	0.10900 0.52520 0.93428 -0.30100
H 	H 	0.08170 0.52250 0.95230 0.14100
C 	C 	0.13920 0.64450 0.92953 0.30200
C 	C 	0.17970 0.64680 0.90331 -0.32900
H 	H 	0.20080 0.72630 0.89990 0.15100
C 	C 	0.18930 0.53100 0.88203 0.18200
H 	H 	0.21740 0.53320 0.86460 -0.01700
C 	C 	0.16540 0.97770 0.24886 0.34900
C 	C 	0.15250 0.99880 0.20663 -0.19000
C 	C 	0.17480 0.10830 0.18748 0.17500
H 	H 	0.19740 0.17190 0.20080 0.00000
C 	C 	0.16430 0.12610 0.14913 -0.29300
H 	H 	0.17890 0.20240 0.13700 0.14500
C 	C 	0.13220 0.03020 0.12889 0.30700
C 	C 	0.10960 0.91980 0.14746 -0.29400
H 	H 	0.08730 0.85570 0.13400 0.14300
C 	C 	0.11980 0.90420 0.18592 0.16200
H 	H 	0.10450 0.82900 0.19820 -0.00600
C 	C 	0.79200 0.47760 0.85831 0.35500
C 	C 	0.84450 0.43600 0.88255 -0.21300
C 	C 	0.89840 0.46220 0.87016 0.17600
H 	H 	0.90300 0.50920 0.84760 -0.01800
C 	C 	0.94460 0.41760 0.89168 -0.32600
H 	H 	0.98050 0.43430 0.88310 0.15000
C 	C 	0.93986 0.34960 0.92515 0.31900
C 	C 	0.88720 0.32730 0.93820 -0.33200
H 	H 	0.88280 0.28370 0.96130 0.15000
C 	C 	0.84060 0.37140 0.91620 0.18700
H 	H 	0.80480 0.35560 0.92500 -0.03200
Cd	Cd	0.69055 0.54821 0.82492 1.22000
O 	O 	0.64278 0.67810 0.86826 -0.41300
O 	O 	0.69834 0.79860 0.83325 -0.35200
O 	O 	0.62449 0.25440 0.95212 -0.29800
O 	O 	0.63620 0.39520 0.26623 -0.37300
O 	O 	0.70438 0.54600 0.26451 -0.38200
O 	O 	0.61810 0.53700 0.09112 -0.29400
O 	O 	0.24462 0.93900 0.86988 -0.41900
O 	O 	0.29606 0.04640 0.82943 -0.36500
O 	O 	0.48921 0.80660 0.94336 -0.29900
C 	C 	0.62060 0.48960 0.96961 -0.28600
C 	C 	0.64570 0.51980 0.00576 0.34800
C 	C 	0.62080 0.61690 0.02895 -0.28400
C 	C 	0.56970 0.68170 0.01646 0.34700
C 	C 	0.54285 0.64410 0.98227 -0.29600
C 	C 	0.56820 0.55010 0.95837 0.38400
C 	C 	0.64860 0.38910 0.94372 0.17500
H 	H 	0.68920 0.38860 0.94870 -0.02700
H 	H 	0.64060 0.41340 0.91740 -0.02900
C 	C 	0.70050 0.44300 0.01885 -0.83400
H 	H 	0.73240 0.50330 0.01660 0.27700
H 	H 	0.69820 0.41540 0.04480 0.28700
H 	H 	0.70510 0.36290 0.00340 0.28100
C 	C 	0.64400 0.64200 0.06865 0.18200
H 	H 	0.63400 0.73350 0.07720 -0.02900
H 	H 	0.68490 0.63300 0.07010 -0.02500
C 	C 	0.54400 0.79630 0.04111 -0.82500
H 	H 	0.51650 0.84780 0.02610 0.28100
H 	H 	0.52610 0.75480 0.06210 0.27300
H 	H 	0.57340 0.85720 0.05040 0.28100
C 	C 	0.48425 0.70030 0.97144 0.17800
H 	H 	0.46720 0.73790 0.99360 -0.02300
H 	H 	0.46020 0.62660 0.96140 -0.01900
C 	C 	0.54080 0.51170 0.91995 -0.90300
H 	H 	0.50160 0.53730 0.91910 0.31300
H 	H 	0.55960 0.55960 0.90040 0.31000
H 	H 	0.54400 0.41400 0.91610 0.29700
C 	C 	0.66670 0.78960 0.86151 0.34800
C 	C 	0.65850 0.91260 0.88583 -0.21000
C 	C 	0.61840 0.90940 0.91293 0.16900
H 	H 	0.59790 0.82920 0.91670 -0.01000
C 	C 	0.60900 0.02520 0.93428 -0.30200
H 	H 	0.58170 0.02250 0.95230 0.14100
C 	C 	0.63920 0.14450 0.92953 0.30200
C 	C 	0.67970 0.14680 0.90331 -0.32800
H 	H 	0.70080 0.22630 0.89990 0.15000
C 	C 	0.68930 0.03100 0.88203 0.17900
H 	H 	0.71740 0.03320 0.86460 -0.01700
C 	C 	0.66540 0.47770 0.24886 0.35100
C 	C 	0.65250 0.49880 0.20663 -0.18200
C 	C 	0.67480 0.60830 0.18748 0.16500
H 	H 	0.69740 0.67190 0.20080 0.00300
C 	C 	0.66430 0.62610 0.14913 -0.28600
H 	H 	0.67890 0.70240 0.13700 0.14200
C 	C 	0.63220 0.53020 0.12889 0.29900
C 	C 	0.60960 0.41980 0.14746 -0.28400
H 	H 	0.58730 0.35570 0.13400 0.14100
C 	C 	0.61980 0.40420 0.18592 0.15500
H 	H 	0.60450 0.32900 0.19820 -0.00400
C 	C 	0.29200 0.97760 0.85831 0.36100
C 	C 	0.34450 0.93600 0.88255 -0.22000
C 	C 	0.39840 0.96220 0.87016 0.18800
H 	H 	0.40300 0.00920 0.84760 -0.02400
C 	C 	0.44460 0.91760 0.89168 -0.33400
H 	H 	0.48050 0.93430 0.88310 0.15300
C 	C 	0.43986 0.84960 0.92515 0.32400
C 	C 	0.38720 0.82730 0.93820 -0.33700
H 	H 	0.38280 0.78370 0.96130 0.15200
C 	C 	0.34060 0.87140 0.91620 0.19300
H 	H 	0.30480 0.85560 0.92500 -0.03400
Cd	Cd	0.80945 0.95179 0.17508 1.21900
O 	O 	0.85722 0.82190 0.13174 -0.41400
O 	O 	0.80166 0.70140 0.16675 -0.35300
O 	O 	0.87551 0.24560 0.04788 -0.29800
O 	O 	0.86380 0.10480 0.73377 -0.37300
O 	O 	0.79562 0.95400 0.73549 -0.37900
O 	O 	0.88190 0.96300 0.90888 -0.29500
O 	O 	0.25538 0.56100 0.13012 -0.41900
O 	O 	0.20394 0.45360 0.17057 -0.36100
O 	O 	0.01079 0.69340 0.05664 -0.29800
C 	C 	0.87940 0.01040 0.03039 -0.28300
C 	C 	0.85430 0.98020 0.99424 0.34500
C 	C 	0.87920 0.88310 0.97105 -0.28300
C 	C 	0.93030 0.81830 0.98354 0.34600
C 	C 	0.95715 0.85590 0.01773 -0.29500
C 	C 	0.93180 0.94990 0.04163 0.38300
C 	C 	0.85140 0.11090 0.05628 0.17300
H 	H 	0.81080 0.11140 0.05130 -0.02600
H 	H 	0.85940 0.08660 0.08260 -0.02800
C 	C 	0.79950 0.05700 0.98115 -0.82900
H 	H 	0.76760 0.99670 0.98340 0.27500
H 	H 	0.80180 0.08460 0.95520 0.28500
H 	H 	0.79490 0.13710 0.99660 0.27900
C 	C 	0.85600 0.85800 0.93135 0.18200
H 	H 	0.86600 0.76650 0.92280 -0.02900
H 	H 	0.81510 0.86700 0.92990 -0.02500
C 	C 	0.95600 0.70370 0.95889 -0.82500
H 	H 	0.98350 0.65220 0.97390 0.28100
H 	H 	0.97390 0.74520 0.93790 0.27300
H 	H 	0.92660 0.64280 0.94960 0.28100
C 	C 	0.01575 0.79970 0.02856 0.17700
H 	H 	0.03280 0.76210 0.00640 -0.02300
H 	H 	0.03980 0.87340 0.03860 -0.01900
C 	C 	0.95920 0.98830 0.08005 -0.91000
H 	H 	0.99840 0.96270 0.08090 0.31400
H 	H 	0.94040 0.94040 0.09960 0.31200
H 	H 	0.95600 0.08600 0.08390 0.30000
C 	C 	0.83330 0.71040 0.13849 0.34900
C 	C 	0.84150 0.58740 0.11417 -0.21300
C 	C 	0.88160 0.59060 0.08707 0.16900
H 	H 	0.90210 0.67080 0.08330 -0.01000
C 	C 	0.89100 0.47480 0.06572 -0.30100
H 	H 	0.91830 0.47750 0.04770 0.14100
C 	C 	0.86080 0.35550 0.07047 0.30200
C 	C 	0.82030 0.35320 0.09669 -0.32900
H 	H 	0.79920 0.27370 0.10010 0.15100
C 	C 	0.81070 0.46900 0.11797 0.18200
H 	H 	0.78260 0.46680 0.13540 -0.01700
C 	C 	0.83460 0.02230 0.75114 0.34900
C 	C 	0.84750 0.00120 0.79337 -0.19000
C 	C 	0.82520 0.89170 0.81252 0.17500
H 	H 	0.80260 0.82810 0.79920 0.00000
C 	C 	0.83570 0.87390 0.85087 -0.29300
H 	H 	0.82110 0.79760 0.86300 0.14500
C 	C 	0.86780 0.96980 0.87111 0.30700
C 	C 	0.89040 0.08020 0.85254 -0.29400
H 	H 	0.91270 0.14430 0.86600 0.14300
C 	C 	0.88020 0.09580 0.81408 0.16200
H 	H 	0.89550 0.17100 0.80180 -0.00600
C 	C 	0.20800 0.52240 0.14169 0.35500
C 	C 	0.15550 0.56400 0.11745 -0.21300
C 	C 	0.10160 0.53780 0.12984 0.17600
H 	H 	0.09700 0.49080 0.15240 -0.01800
C 	C 	0.05540 0.58240 0.10832 -0.32600
H 	H 	0.01950 0.56570 0.11690 0.15000
C 	C 	0.06014 0.65040 0.07485 0.31900
C 	C 	0.11280 0.67270 0.06180 -0.33200
H 	H 	0.11720 0.71630 0.03870 0.15000
C 	C 	0.15940 0.62860 0.08380 0.18700
H 	H 	0.19520 0.64440 0.07500 -0.03200
Cd	Cd	0.30945 0.45179 0.17508 1.22000
O 	O 	0.35722 0.32190 0.13174 -0.41300
O 	O 	0.30166 0.20140 0.16675 -0.35200
O 	O 	0.37551 0.74560 0.04788 -0.29800
O 	O 	0.36380 0.60480 0.73377 -0.37300
O 	O 	0.29562 0.45400 0.73549 -0.38200
O 	O 	0.38190 0.46300 0.90888 -0.29400
O 	O 	0.75538 0.06100 0.13012 -0.41900
O 	O 	0.70394 0.95360 0.17057 -0.36500
O 	O 	0.51079 0.19340 0.05664 -0.29900
C 	C 	0.37940 0.51040 0.03039 -0.28600
C 	C 	0.35430 0.48020 0.99424 0.34800
C 	C 	0.37920 0.38310 0.97105 -0.28400
C 	C 	0.43030 0.31830 0.98354 0.34700
C 	C 	0.45715 0.35590 0.01773 -0.29600
C 	C 	0.43180 0.44990 0.04163 0.38400
C 	C 	0.35140 0.61090 0.05628 0.17500
H 	H 	0.31080 0.61140 0.05130 -0.02700
H 	H 	0.35940 0.58660 0.08260 -0.02900
C 	C 	0.29950 0.55700 0.98115 -0.83400
H 	H 	0.26760 0.49670 0.98340 0.27700
H 	H 	0.30180 0.58460 0.95520 0.28700
H 	H 	0.29490 0.63710 0.99660 0.28100
C 	C 	0.35600 0.35800 0.93135 0.18200
H 	H 	0.36600 0.26650 0.92280 -0.02900
H 	H 	0.31510 0.36700 0.92990 -0.02500
C 	C 	0.45600 0.20370 0.95889 -0.82500
H 	H 	0.48350 0.15220 0.97390 0.28100
H 	H 	0.47390 0.24520 0.93790 0.27300
H 	H 	0.42660 0.14280 0.94960 0.28100
C 	C 	0.51575 0.29970 0.02856 0.17800
H 	H 	0.53280 0.26210 0.00640 -0.02300
H 	H 	0.53980 0.37340 0.03860 -0.01900
C 	C 	0.45920 0.48830 0.08005 -0.90300
H 	H 	0.49840 0.46270 0.08090 0.31300
H 	H 	0.44040 0.44040 0.09960 0.31000
H 	H 	0.45600 0.58600 0.08390 0.29700
C 	C 	0.33330 0.21040 0.13849 0.34800
C 	C 	0.34150 0.08740 0.11417 -0.21000
C 	C 	0.38160 0.09060 0.08707 0.16900
H 	H 	0.40210 0.17080 0.08330 -0.01000
C 	C 	0.39100 0.97480 0.06572 -0.30200
H 	H 	0.41830 0.97750 0.04770 0.14100
C 	C 	0.36080 0.85550 0.07047 0.30200
C 	C 	0.32030 0.85320 0.09669 -0.32800
H 	H 	0.29920 0.77370 0.10010 0.15000
C 	C 	0.31070 0.96900 0.11797 0.17900
H 	H 	0.28260 0.96680 0.13540 -0.01700
C 	C 	0.33460 0.52230 0.75114 0.35100
C 	C 	0.34750 0.50120 0.79337 -0.18200
C 	C 	0.32520 0.39170 0.81252 0.16500
H 	H 	0.30260 0.32810 0.79920 0.00300
C 	C 	0.33570 0.37390 0.85087 -0.28600
H 	H 	0.32110 0.29760 0.86300 0.14200
C 	C 	0.36780 0.46980 0.87111 0.29900
C 	C 	0.39040 0.58020 0.85254 -0.28400
H 	H 	0.41270 0.64430 0.86600 0.14100
C 	C 	0.38020 0.59580 0.81408 0.15500
H 	H 	0.39550 0.67100 0.80180 -0.00400
C 	C 	0.70800 0.02240 0.14169 0.36100
C 	C 	0.65550 0.06400 0.11745 -0.22000
C 	C 	0.60160 0.03780 0.12984 0.18800
H 	H 	0.59700 0.99080 0.15240 -0.02400
C 	C 	0.55540 0.08240 0.10832 -0.33400
H 	H 	0.51950 0.06570 0.11690 0.15300
C 	C 	0.56014 0.15040 0.07485 0.32400
C 	C 	0.61280 0.17270 0.06180 -0.33700
H 	H 	0.61720 0.21630 0.03870 0.15200
C 	C 	0.65940 0.12860 0.08380 0.19300
H 	H 	0.69520 0.14440 0.07500 -0.03400
Cd	Cd	0.80945 0.04821 0.67508 1.21900
O 	O 	0.85722 0.17810 0.63174 -0.41400
O 	O 	0.80166 0.29860 0.66675 -0.35300
O 	O 	0.87551 0.75440 0.54788 -0.29800
O 	O 	0.86380 0.89520 0.23377 -0.37300
O 	O 	0.79562 0.04600 0.23549 -0.37900
O 	O 	0.88190 0.03700 0.40888 -0.29500
O 	O 	0.25538 0.43900 0.63012 -0.41900
O 	O 	0.20394 0.54640 0.67057 -0.36100
O 	O 	0.01079 0.30660 0.55664 -0.29800
C 	C 	0.87940 0.98960 0.53039 -0.28300
C 	C 	0.85430 0.01980 0.49424 0.34500
C 	C 	0.87920 0.11690 0.47105 -0.28300
C 	C 	0.93030 0.18170 0.48354 0.34700
C 	C 	0.95715 0.14410 0.51773 -0.29600
C 	C 	0.93180 0.05010 0.54163 0.38400
C 	C 	0.85140 0.88910 0.55628 0.17300
H 	H 	0.81080 0.88860 0.55130 -0.02600
H 	H 	0.85940 0.91340 0.58260 -0.02800
C 	C 	0.79950 0.94300 0.48115 -0.83000
H 	H 	0.76760 0.00330 0.48340 0.27500
H 	H 	0.80180 0.91540 0.45520 0.28500
H 	H 	0.79490 0.86290 0.49660 0.27900
C 	C 	0.85600 0.14200 0.43135 0.18200
H 	H 	0.86600 0.23350 0.42280 -0.02900
H 	H 	0.81510 0.13300 0.42990 -0.02500
C 	C 	0.95600 0.29630 0.45889 -0.82500
H 	H 	0.98350 0.34780 0.47390 0.28200
H 	H 	0.97390 0.25480 0.43790 0.27400
H 	H 	0.92660 0.35720 0.44960 0.28200
C 	C 	0.01575 0.20030 0.52856 0.17800
H 	H 	0.03280 0.23790 0.50640 -0.02300
H 	H 	0.03980 0.12660 0.53860 -0.01900
C 	C 	0.95920 0.01170 0.58005 -0.91000
H 	H 	0.99840 0.03730 0.58090 0.31400
H 	H 	0.94040 0.05960 0.59960 0.31200
H 	H 	0.95600 0.91400 0.58390 0.30100
C 	C 	0.83330 0.28960 0.63849 0.34900
C 	C 	0.84150 0.41260 0.61417 -0.21300
C 	C 	0.88160 0.40940 0.58707 0.16900
H 	H 	0.90210 0.32920 0.58330 -0.01000
C 	C 	0.89100 0.52520 0.56572 -0.30100
H 	H 	0.91830 0.52250 0.54770 0.14100
C 	C 	0.86080 0.64450 0.57047 0.30200
C 	C 	0.82030 0.64680 0.59669 -0.32900
H 	H 	0.79920 0.72630 0.60010 0.15100
C 	C 	0.81070 0.53100 0.61797 0.18200
H 	H 	0.78260 0.53320 0.63540 -0.01700
C 	C 	0.83460 0.97770 0.25114 0.34900
C 	C 	0.84750 0.99880 0.29337 -0.19000
C 	C 	0.82520 0.10830 0.31252 0.17500
H 	H 	0.80260 0.17190 0.29920 0.00000
C 	C 	0.83570 0.12610 0.35087 -0.29300
H 	H 	0.82110 0.20240 0.36300 0.14500
C 	C 	0.86780 0.03020 0.37111 0.30700
C 	C 	0.89040 0.91980 0.35254 -0.29400
H 	H 	0.91270 0.85570 0.36600 0.14400
C 	C 	0.88020 0.90420 0.31408 0.16200
H 	H 	0.89550 0.82900 0.30180 -0.00600
C 	C 	0.20800 0.47760 0.64169 0.35500
C 	C 	0.15550 0.43600 0.61745 -0.21300
C 	C 	0.10160 0.46220 0.62984 0.17600
H 	H 	0.09700 0.50920 0.65240 -0.01800
C 	C 	0.05540 0.41760 0.60832 -0.32600
H 	H 	0.01950 0.43430 0.61690 0.15000
C 	C 	0.06014 0.34960 0.57485 0.31900
C 	C 	0.11280 0.32730 0.56180 -0.33300
H 	H 	0.11720 0.28370 0.53870 0.15000
C 	C 	0.15940 0.37140 0.58380 0.18700
H 	H 	0.19520 0.35560 0.57500 -0.03200
Cd	Cd	0.30945 0.54821 0.67508 1.22000
O 	O 	0.35722 0.67810 0.63174 -0.41300
O 	O 	0.30166 0.79860 0.66675 -0.35200
O 	O 	0.37551 0.25440 0.54788 -0.29800
O 	O 	0.36380 0.39520 0.23377 -0.37300
O 	O 	0.29562 0.54600 0.23549 -0.38200
O 	O 	0.38190 0.53700 0.40888 -0.29400
O 	O 	0.75538 0.93900 0.63012 -0.41900
O 	O 	0.70394 0.04640 0.67057 -0.36500
O 	O 	0.51079 0.80660 0.55664 -0.29900
C 	C 	0.37940 0.48960 0.53039 -0.28600
C 	C 	0.35430 0.51980 0.49424 0.34800
C 	C 	0.37920 0.61690 0.47105 -0.28400
C 	C 	0.43030 0.68170 0.48354 0.34700
C 	C 	0.45715 0.64410 0.51773 -0.29600
C 	C 	0.43180 0.55010 0.54163 0.38400
C 	C 	0.35140 0.38910 0.55628 0.17500
H 	H 	0.31080 0.38860 0.55130 -0.02700
H 	H 	0.35940 0.41340 0.58260 -0.02900
C 	C 	0.29950 0.44300 0.48115 -0.83400
H 	H 	0.26760 0.50330 0.48340 0.27600
H 	H 	0.30180 0.41540 0.45520 0.28700
H 	H 	0.29490 0.36290 0.49660 0.28100
C 	C 	0.35600 0.64200 0.43135 0.18200
H 	H 	0.36600 0.73350 0.42280 -0.02900
H 	H 	0.31510 0.63300 0.42990 -0.02500
C 	C 	0.45600 0.79630 0.45889 -0.82400
H 	H 	0.48350 0.84780 0.47390 0.28100
H 	H 	0.47390 0.75480 0.43790 0.27300
H 	H 	0.42660 0.85720 0.44960 0.28100
C 	C 	0.51575 0.70030 0.52856 0.17800
H 	H 	0.53280 0.73790 0.50640 -0.02300
H 	H 	0.53980 0.62660 0.53860 -0.01900
C 	C 	0.45920 0.51170 0.58005 -0.90300
H 	H 	0.49840 0.53730 0.58090 0.31300
H 	H 	0.44040 0.55960 0.59960 0.31000
H 	H 	0.45600 0.41400 0.58390 0.29700
C 	C 	0.33330 0.78960 0.63849 0.34800
C 	C 	0.34150 0.91260 0.61417 -0.21000
C 	C 	0.38160 0.90940 0.58707 0.16900
H 	H 	0.40210 0.82920 0.58330 -0.01000
C 	C 	0.39100 0.02520 0.56572 -0.30200
H 	H 	0.41830 0.02250 0.54770 0.14100
C 	C 	0.36080 0.14450 0.57047 0.30200
C 	C 	0.32030 0.14680 0.59669 -0.32800
H 	H 	0.29920 0.22630 0.60010 0.15000
C 	C 	0.31070 0.03100 0.61797 0.17900
H 	H 	0.28260 0.03320 0.63540 -0.01700
C 	C 	0.33460 0.47770 0.25114 0.35100
C 	C 	0.34750 0.49880 0.29337 -0.18200
C 	C 	0.32520 0.60830 0.31252 0.16500
H 	H 	0.30260 0.67190 0.29920 0.00300
C 	C 	0.33570 0.62610 0.35087 -0.28600
H 	H 	0.32110 0.70240 0.36300 0.14200
C 	C 	0.36780 0.53020 0.37111 0.29900
C 	C 	0.39040 0.41980 0.35254 -0.28400
H 	H 	0.41270 0.35570 0.36600 0.14100
C 	C 	0.38020 0.40420 0.31408 0.15500
H 	H 	0.39550 0.32900 0.30180 -0.00400
C 	C 	0.70800 0.97760 0.64169 0.36100
C 	C 	0.65550 0.93600 0.61745 -0.22000
C 	C 	0.60160 0.96220 0.62984 0.18800
H 	H 	0.59700 0.00920 0.65240 -0.02400
C 	C 	0.55540 0.91760 0.60832 -0.33400
H 	H 	0.51950 0.93430 0.61690 0.15300
C 	C 	0.56014 0.84960 0.57485 0.32400
C 	C 	0.61280 0.82730 0.56180 -0.33800
H 	H 	0.61720 0.78370 0.53870 0.15200
C 	C 	0.65940 0.87140 0.58380 0.19300
H 	H 	0.69520 0.85560 0.57500 -0.03400
