data_crystal

_cell_length_a 7.52030
_cell_length_b 13.55200
_cell_length_c 15.62300
_cell_angle_alpha 90.00000
_cell_angle_beta  90.00000
_cell_angle_gamma 90.00000

_symmetry_space_group_name_	'P 1'
_symmetry_space_group_name_H-M	'P 1'

loop_
_symmetry_equiv_pos_as_xyz
  x,y,z

loop_
_atom_site_label
_atom_site_type_symbol
_atom_site_fract_x
_atom_site_fract_y
_atom_site_fract_z
_atom_site_charge
Li	Li	0.47790 0.67550 0.08893 0.55400
Li	Li	0.33720 0.51820 0.98290 0.55100
Li	Li	0.97790 0.82450 0.91107 0.55400
Li	Li	0.83720 0.98180 0.01710 0.55100
Li	Li	0.52210 0.32450 0.58893 0.55300
Li	Li	0.66280 0.48180 0.48290 0.55000
Li	Li	0.02210 0.17550 0.41107 0.55300
Li	Li	0.16280 0.01820 0.51710 0.55000
Li	Li	0.52210 0.32450 0.91107 0.55300
Li	Li	0.66280 0.48180 0.01710 0.55000
Li	Li	0.02210 0.17550 0.08893 0.55300
Li	Li	0.16280 0.01820 0.98290 0.55000
Li	Li	0.47790 0.67550 0.41107 0.55300
Li	Li	0.33720 0.51820 0.51710 0.55000
Li	Li	0.97790 0.82450 0.58893 0.55300
Li	Li	0.83720 0.98180 0.48290 0.55000
H 	H 	0.03180 0.58640 0.93540 0.35900
H 	H 	0.16220 0.52190 0.94830 0.23400
H 	H 	0.53180 0.91360 0.06460 0.35900
H 	H 	0.66220 0.97810 0.05170 0.23300
H 	H 	0.96820 0.41360 0.43540 0.35900
H 	H 	0.83780 0.47810 0.44830 0.23400
H 	H 	0.46820 0.08640 0.56460 0.36000
H 	H 	0.33780 0.02190 0.55170 0.23500
H 	H 	0.96820 0.41360 0.06460 0.35900
H 	H 	0.83780 0.47810 0.05170 0.23400
H 	H 	0.46820 0.08640 0.93540 0.35900
H 	H 	0.33780 0.02190 0.94830 0.23300
H 	H 	0.03180 0.58640 0.56460 0.35900
H 	H 	0.16220 0.52190 0.55170 0.23400
H 	H 	0.53180 0.91360 0.43540 0.36000
H 	H 	0.66220 0.97810 0.44830 0.23500
H 	H 	0.71200 0.71850 0.75000 -0.03400
H 	H 	0.48620 0.40030 0.75000 0.15300
H 	H 	0.21200 0.78150 0.25000 -0.02900
H 	H 	0.98620 0.09970 0.25000 0.13300
H 	H 	0.28800 0.28150 0.25000 -0.03400
H 	H 	0.51380 0.59970 0.25000 0.15300
H 	H 	0.78800 0.21850 0.75000 -0.02900
H 	H 	0.01380 0.90030 0.75000 0.13300
C 	C 	0.63130 0.60799 0.82688 -0.30200
C 	C 	0.56190 0.51031 0.82924 0.38200
C 	C 	0.13130 0.89201 0.17312 -0.28800
C 	C 	0.06190 0.98969 0.17076 0.34800
C 	C 	0.36870 0.39201 0.32688 -0.30300
C 	C 	0.43810 0.48969 0.32924 0.38200
C 	C 	0.86870 0.10799 0.67312 -0.28900
C 	C 	0.93810 0.01031 0.67076 0.35100
C 	C 	0.36870 0.39201 0.17312 -0.30200
C 	C 	0.43810 0.48969 0.17076 0.38200
C 	C 	0.86870 0.10799 0.82688 -0.28800
C 	C 	0.93810 0.01031 0.82924 0.34800
C 	C 	0.63130 0.60799 0.67312 -0.30300
C 	C 	0.56190 0.51031 0.67076 0.38200
C 	C 	0.13130 0.89201 0.32688 -0.28900
C 	C 	0.06190 0.98969 0.32924 0.35100
C 	C 	0.66570 0.65489 0.75000 0.24100
C 	C 	0.53030 0.46440 0.75000 -0.41400
C 	C 	0.16570 0.84511 0.25000 0.22500
C 	C 	0.03030 0.03560 0.25000 -0.36500
C 	C 	0.33430 0.34511 0.25000 0.24100
C 	C 	0.46970 0.53560 0.25000 -0.41400
C 	C 	0.83430 0.15489 0.75000 0.22500
C 	C 	0.96970 0.96440 0.75000 -0.36500
S 	S 	0.66800 0.67030 0.92237 0.59000
S 	S 	0.16800 0.82970 0.07763 0.58100
S 	S 	0.33200 0.32970 0.42237 0.59000
S 	S 	0.83200 0.17030 0.57763 0.58100
S 	S 	0.33200 0.32970 0.07763 0.59000
S 	S 	0.83200 0.17030 0.92237 0.58100
S 	S 	0.66800 0.67030 0.57763 0.59000
S 	S 	0.16800 0.82970 0.42237 0.58100
O 	O 	0.49572 0.68170 0.96436 -0.38200
O 	O 	0.74536 0.76554 0.89930 -0.36600
O 	O 	0.13370 0.57169 0.92182 -0.69400
O 	O 	0.78709 0.61052 0.97560 -0.40300
O 	O 	0.52835 0.46624 0.90333 -0.49000
O 	O 	0.99572 0.81830 0.03564 -0.38200
O 	O 	0.24536 0.73446 0.10070 -0.36700
O 	O 	0.63370 0.92831 0.07818 -0.69500
O 	O 	0.28709 0.88948 0.02440 -0.40600
O 	O 	0.02835 0.03376 0.09667 -0.47300
O 	O 	0.50428 0.31830 0.46436 -0.38300
O 	O 	0.25464 0.23446 0.39930 -0.36700
O 	O 	0.86630 0.42831 0.42182 -0.69500
O 	O 	0.21291 0.38948 0.47560 -0.40500
O 	O 	0.47165 0.53376 0.40333 -0.49000
O 	O 	0.00428 0.18170 0.53564 -0.37900
O 	O 	0.75464 0.26554 0.60070 -0.36600
O 	O 	0.36630 0.07169 0.57818 -0.69500
O 	O 	0.71291 0.11052 0.52440 -0.40400
O 	O 	0.97165 0.96624 0.59667 -0.47800
O 	O 	0.50428 0.31830 0.03564 -0.38200
O 	O 	0.25464 0.23446 0.10070 -0.36600
O 	O 	0.86630 0.42831 0.07818 -0.69400
O 	O 	0.21291 0.38948 0.02440 -0.40300
O 	O 	0.47165 0.53376 0.09667 -0.49000
O 	O 	0.00428 0.18170 0.96436 -0.38200
O 	O 	0.75464 0.26554 0.89930 -0.36700
O 	O 	0.36630 0.07169 0.92182 -0.69500
O 	O 	0.71291 0.11052 0.97560 -0.40600
O 	O 	0.97165 0.96624 0.90333 -0.47300
O 	O 	0.49572 0.68170 0.53564 -0.38300
O 	O 	0.74536 0.76554 0.60070 -0.36700
O 	O 	0.13370 0.57169 0.57818 -0.69500
O 	O 	0.78709 0.61052 0.52440 -0.40500
O 	O 	0.52835 0.46624 0.59667 -0.49000
O 	O 	0.99572 0.81830 0.46436 -0.37900
O 	O 	0.24536 0.73446 0.39930 -0.36600
O 	O 	0.63370 0.92831 0.42182 -0.69500
O 	O 	0.28709 0.88948 0.47560 -0.40400
O 	O 	0.02835 0.03376 0.40333 -0.47800
