data_crystal

_cell_length_a 13.11900
_cell_length_b 22.80900
_cell_length_c 11.84000
_cell_angle_alpha 90.00000
_cell_angle_beta  91.94600
_cell_angle_gamma 90.00000

_symmetry_space_group_name_	'P 1'
_symmetry_space_group_name_H-M	'P 1'

loop_
_symmetry_equiv_pos_as_xyz
  x,y,z

loop_
_atom_site_label
_atom_site_type_symbol
_atom_site_fract_x
_atom_site_fract_y
_atom_site_fract_z
_atom_site_charge
Ag	Ag	0.24028 0.21330 0.27507 0.49700
Ag	Ag	0.88329 0.20169 0.60974 0.50500
N 	N 	0.14950 0.18040 0.40880 -0.17800
N 	N 	0.79040 0.26800 0.92980 -0.14300
N 	N 	0.80390 0.23790 0.75240 -0.21000
N 	N 	0.73750 0.30410 0.86060 -0.10200
N 	N 	0.14160 0.12410 0.44790 -0.10800
N 	N 	0.00940 0.16980 0.50680 -0.20800
C 	C 	0.55350 0.04960 0.76120 0.09100
H 	H 	0.62120 0.05670 0.78280 -0.02800
N 	N 	0.51290 0.05630 0.65980 -0.10600
N 	N 	0.41660 0.04200 0.66300 -0.09600
C 	C 	0.39770 0.02660 0.76640 0.08200
H 	H 	0.33500 0.01440 0.79230 -0.02900
N 	N 	0.48230 0.03130 0.82720 -0.21500
C 	C 	0.35510 0.03140 0.55800 -0.06100
H 	H 	0.39860 0.02160 0.49620 0.04800
H 	H 	0.30730 0.99960 0.56830 0.05100
C 	C 	0.30090 0.08660 0.53540 -0.12700
H 	H 	0.26750 0.09910 0.60310 0.06500
H 	H 	0.34970 0.11670 0.51620 0.06600
C 	C 	0.06650 0.20480 0.44490 0.08000
H 	H 	0.04880 0.24350 0.42860 -0.04500
C 	C 	0.67970 0.35230 0.90390 -0.02200
H 	H 	0.71550 0.36810 0.97010 0.02200
H 	H 	0.67510 0.38300 0.84730 0.02600
C 	C 	0.57170 0.33420 0.93580 -0.13400
H 	H 	0.53760 0.31560 0.87130 0.07100
H 	H 	0.53320 0.36890 0.95450 0.07100
C 	C 	0.22080 0.08040 0.43800 -0.03400
H 	H 	0.19080 0.04160 0.43980 0.02400
H 	H 	0.25340 0.08510 0.36630 0.01000
C 	C 	0.74570 0.28570 0.75510 0.07700
H 	H 	0.71520 0.30370 0.69200 -0.01400
C 	C 	0.83050 0.23040 0.86030 0.08800
H 	H 	0.87430 0.20070 0.88500 -0.03800
C 	C 	0.05750 0.11900 0.50710 0.07200
H 	H 	0.03620 0.08500 0.54290 -0.02000
C 	C 	0.57260 0.29320 0.03310 -0.02600
H 	H 	0.60050 0.31370 0.09900 0.03000
H 	H 	0.61860 0.26110 0.01730 0.03800
N 	N 	0.47590 0.26890 0.06110 -0.10600
N 	N 	0.41930 0.24050 0.98070 -0.10700
C 	C 	0.43010 0.26580 0.15950 0.08000
H 	H 	0.45580 0.28180 0.22690 -0.00800
C 	C 	0.34120 0.22290 0.03920 0.06400
H 	H 	0.28730 0.20180 0.00620 -0.03800
N 	N 	0.34410 0.23720 0.14860 -0.21500
Ag	Ag	0.75972 0.78670 0.72493 0.50100
Ag	Ag	0.11671 0.79831 0.39026 0.50800
N 	N 	0.85050 0.81960 0.59120 -0.17600
N 	N 	0.20960 0.73200 0.07020 -0.14900
N 	N 	0.19610 0.76210 0.24760 -0.21100
N 	N 	0.26250 0.69590 0.13940 -0.10600
N 	N 	0.85840 0.87590 0.55210 -0.10800
N 	N 	0.99060 0.83020 0.49320 -0.20800
C 	C 	0.44650 0.95040 0.23880 0.09400
H 	H 	0.37880 0.94330 0.21720 -0.02700
N 	N 	0.48710 0.94370 0.34020 -0.10300
N 	N 	0.58340 0.95800 0.33700 -0.10500
C 	C 	0.60230 0.97340 0.23360 0.09000
H 	H 	0.66500 0.98560 0.20770 -0.02700
N 	N 	0.51770 0.96870 0.17280 -0.21500
C 	C 	0.64490 0.96860 0.44200 0.01600
H 	H 	0.60140 0.97840 0.50380 0.03500
H 	H 	0.69270 0.00040 0.43170 0.00500
C 	C 	0.69910 0.91340 0.46460 -0.16800
H 	H 	0.73250 0.90090 0.39690 0.07800
H 	H 	0.65030 0.88330 0.48380 0.07900
C 	C 	0.93350 0.79520 0.55510 0.08100
H 	H 	0.95120 0.75650 0.57140 -0.04500
C 	C 	0.32030 0.64770 0.09610 -0.00000
H 	H 	0.28450 0.63190 0.02990 0.00800
H 	H 	0.32490 0.61700 0.15270 0.01800
C 	C 	0.42830 0.66580 0.06420 -0.18200
H 	H 	0.46240 0.68440 0.12870 0.08100
H 	H 	0.46680 0.63110 0.04550 0.07800
C 	C 	0.77920 0.91960 0.56200 -0.01800
H 	H 	0.80920 0.95840 0.56020 0.02800
H 	H 	0.74660 0.91490 0.63370 0.01100
C 	C 	0.25430 0.71430 0.24490 0.07800
H 	H 	0.28480 0.69630 0.30800 -0.01400
C 	C 	0.16950 0.76960 0.13970 0.08700
H 	H 	0.12570 0.79930 0.11500 -0.04000
C 	C 	0.94250 0.88100 0.49290 0.07400
H 	H 	0.96380 0.91500 0.45710 -0.01600
C 	C 	0.42740 0.70680 0.96690 0.01600
H 	H 	0.39950 0.68630 0.90100 0.02200
H 	H 	0.38140 0.73890 0.98270 0.03500
N 	N 	0.52410 0.73110 0.93890 -0.10200
N 	N 	0.58070 0.75950 0.01930 -0.12900
C 	C 	0.56990 0.73420 0.84050 0.08400
H 	H 	0.54420 0.71820 0.77310 -0.00900
C 	C 	0.65880 0.77710 0.96080 0.09000
H 	H 	0.71270 0.79820 0.99380 -0.03700
N 	N 	0.65590 0.76280 0.85140 -0.21700
Ag	Ag	0.50000 0.00000 -0.00000 0.47800
Ag	Ag	0.75972 0.71330 0.22493 0.49700
Ag	Ag	0.11671 0.70169 0.89026 0.51000
N 	N 	0.85050 0.68040 0.09120 -0.17700
N 	N 	0.20960 0.76800 0.57020 -0.14600
N 	N 	0.19610 0.73790 0.74760 -0.21000
N 	N 	0.26250 0.80410 0.63940 -0.10400
N 	N 	0.85840 0.62410 0.05210 -0.11500
N 	N 	0.99060 0.66980 0.99320 -0.20100
C 	C 	0.44650 0.54960 0.73880 0.09200
H 	H 	0.37880 0.55670 0.71720 -0.02800
N 	N 	0.48710 0.55630 0.84020 -0.10300
N 	N 	0.58340 0.54200 0.83700 -0.10300
C 	C 	0.60230 0.52660 0.73360 0.08700
H 	H 	0.66500 0.51440 0.70770 -0.02900
N 	N 	0.51770 0.53130 0.67280 -0.21700
C 	C 	0.64490 0.53140 0.94200 -0.00100
H 	H 	0.60140 0.52160 0.00380 0.02600
H 	H 	0.69270 0.49960 0.93170 0.02500
C 	C 	0.69910 0.58660 0.96460 -0.14500
H 	H 	0.73250 0.59910 0.89690 0.07200
H 	H 	0.65030 0.61670 0.98380 0.07600
C 	C 	0.93350 0.70480 0.05510 0.06600
H 	H 	0.95120 0.74350 0.07140 -0.04300
C 	C 	0.32030 0.85230 0.59610 -0.01200
H 	H 	0.28450 0.86810 0.52990 0.01600
H 	H 	0.32490 0.88300 0.65270 0.02500
C 	C 	0.42830 0.83420 0.56420 -0.16000
H 	H 	0.46240 0.81560 0.62870 0.07700
H 	H 	0.46680 0.86890 0.54550 0.07600
C 	C 	0.77920 0.58040 0.06200 -0.03400
H 	H 	0.80920 0.54160 0.06020 0.02400
H 	H 	0.74660 0.58510 0.13370 0.01100
C 	C 	0.25430 0.78570 0.74490 0.07800
H 	H 	0.28480 0.80370 0.80800 -0.01200
C 	C 	0.16950 0.73040 0.63970 0.08700
H 	H 	0.12570 0.70070 0.61500 -0.03900
C 	C 	0.94250 0.61900 0.99290 0.08700
H 	H 	0.96380 0.58500 0.95710 -0.02000
C 	C 	0.42740 0.79320 0.46690 -0.00400
H 	H 	0.39950 0.81370 0.40100 0.02600
H 	H 	0.38140 0.76110 0.48270 0.03700
N 	N 	0.52410 0.76890 0.43890 -0.10400
N 	N 	0.58070 0.74050 0.51930 -0.11900
C 	C 	0.56990 0.76580 0.34050 0.08200
H 	H 	0.54420 0.78180 0.27310 -0.00900
C 	C 	0.65880 0.72290 0.46080 0.07700
H 	H 	0.71270 0.70180 0.49380 -0.03800
N 	N 	0.65590 0.73720 0.35140 -0.21600
Ag	Ag	0.24028 0.28670 0.77507 0.50100
Ag	Ag	0.88329 0.29831 0.10974 0.50200
N 	N 	0.14950 0.31960 0.90880 -0.17700
N 	N 	0.79040 0.23200 0.42980 -0.14700
N 	N 	0.80390 0.26210 0.25240 -0.21200
N 	N 	0.73750 0.19590 0.36060 -0.10500
N 	N 	0.14160 0.37590 0.94790 -0.10200
N 	N 	0.00940 0.33020 0.00680 -0.21300
C 	C 	0.55350 0.45040 0.26120 0.09200
H 	H 	0.62120 0.44330 0.28280 -0.02900
N 	N 	0.51290 0.44370 0.15980 -0.10700
N 	N 	0.41660 0.45800 0.16300 -0.09800
C 	C 	0.39770 0.47340 0.26640 0.08500
H 	H 	0.33500 0.48560 0.29230 -0.02800
N 	N 	0.48230 0.46870 0.32720 -0.21700
C 	C 	0.35510 0.46860 0.05800 -0.04700
H 	H 	0.39860 0.47840 0.99620 0.05700
H 	H 	0.30730 0.50040 0.06830 0.03300
C 	C 	0.30090 0.41340 0.03540 -0.14700
H 	H 	0.26750 0.40090 0.10310 0.07000
H 	H 	0.34970 0.38330 0.01620 0.06800
C 	C 	0.06650 0.29520 0.94490 0.09300
H 	H 	0.04880 0.25650 0.92860 -0.04700
C 	C 	0.67970 0.14770 0.40390 -0.00900
H 	H 	0.71550 0.13190 0.47010 0.01300
H 	H 	0.67510 0.11700 0.34730 0.01800
C 	C 	0.57170 0.16580 0.43580 -0.16100
H 	H 	0.53760 0.18440 0.37130 0.07600
H 	H 	0.53320 0.13110 0.45450 0.07400
C 	C 	0.22080 0.41960 0.93800 -0.01900
H 	H 	0.19080 0.45840 0.93980 0.02700
H 	H 	0.25340 0.41490 0.86630 0.01000
C 	C 	0.74570 0.21430 0.25510 0.07700
H 	H 	0.71520 0.19630 0.19200 -0.01700
C 	C 	0.83050 0.26960 0.36030 0.08600
H 	H 	0.87430 0.29930 0.38500 -0.04000
C 	C 	0.05750 0.38100 0.00710 0.06100
H 	H 	0.03620 0.41500 0.04290 -0.01700
C 	C 	0.57260 0.20680 0.53310 -0.00300
H 	H 	0.60050 0.18630 0.59900 0.02600
H 	H 	0.61860 0.23890 0.51730 0.03700
N 	N 	0.47590 0.23110 0.56110 -0.10400
N 	N 	0.41930 0.25950 0.48070 -0.11900
C 	C 	0.43010 0.23420 0.65950 0.08300
H 	H 	0.45580 0.21820 0.72690 -0.00800
C 	C 	0.34120 0.27710 0.53920 0.07800
H 	H 	0.28730 0.29820 0.50620 -0.03800
N 	N 	0.34410 0.26280 0.64860 -0.21500
Ag	Ag	0.50000 0.50000 0.50000 0.49100
