data_crystal

_cell_length_a 13.05600
_cell_length_b 22.96400
_cell_length_c 11.80800
_cell_angle_alpha 90.00000
_cell_angle_beta  91.94100
_cell_angle_gamma 90.00000

_symmetry_space_group_name_	'P 1'
_symmetry_space_group_name_H-M	'P 1'

loop_
_symmetry_equiv_pos_as_xyz
  x,y,z

loop_
_atom_site_label
_atom_site_type_symbol
_atom_site_fract_x
_atom_site_fract_y
_atom_site_fract_z
_atom_site_charge
Ag	Ag	0.88322 0.29892 0.60987 0.50900
Ag	Ag	0.24034 0.28860 0.27307 0.50000
N 	N 	0.47870 0.47100 0.83080 -0.22400
N 	N 	0.41630 0.45710 0.66620 -0.10800
N 	N 	0.51290 0.44280 0.65500 -0.10800
N 	N 	0.14180 0.37550 0.44780 -0.10500
N 	N 	0.00730 0.32880 0.50630 -0.20700
N 	N 	0.14980 0.32080 0.40520 -0.17900
C 	C 	0.22230 0.42030 0.43670 -0.02800
H 	H 	0.19180 0.45880 0.43710 0.02600
H 	H 	0.25650 0.41520 0.36580 0.01000
C 	C 	0.29970 0.41400 0.53660 -0.15300
H 	H 	0.26370 0.40260 0.60360 0.07300
H 	H 	0.34810 0.38340 0.51980 0.07600
C 	C 	0.54570 0.44960 0.75600 0.09400
H 	H 	0.38720 0.55970 0.22140 -0.02700
C 	C 	0.35480 0.46700 0.55990 -0.01300
H 	H 	0.69240 0.50090 0.43080 0.02600
H 	H 	0.60070 0.52380 0.50190 0.04000
C 	C 	0.05760 0.38010 0.50740 0.06400
H 	H 	0.03650 0.41370 0.54420 -0.01500
C 	C 	0.60080 0.52630 0.23240 0.10600
H 	H 	0.66430 0.51390 0.20850 -0.03700
C 	C 	0.06910 0.29560 0.44280 0.08200
H 	H 	0.05430 0.25670 0.42700 -0.04500
C 	C 	0.82760 0.26810 0.86240 0.09200
H 	H 	0.86840 0.29900 0.88800 -0.03700
C 	C 	0.74680 0.21280 0.75490 0.09000
H 	H 	0.71680 0.19500 0.69120 -0.01900
H 	H 	0.67120 0.11600 0.84020 0.02400
H 	H 	0.71440 0.12810 0.96350 0.02200
H 	H 	0.53320 0.12910 0.95810 0.06700
H 	H 	0.53340 0.18040 0.87040 0.06500
N 	N 	0.80530 0.25950 0.75200 -0.21300
H 	H 	0.60550 0.18690 0.09460 0.03200
H 	H 	0.61880 0.23760 0.00770 0.04300
H 	H 	0.28050 0.29980 0.00400 -0.03600
C 	C 	0.43010 0.23210 0.15810 0.07400
H 	H 	0.45540 0.21580 0.22550 -0.00700
N 	N 	0.21080 0.76870 0.06950 -0.15300
N 	N 	0.26370 0.80530 0.14260 -0.11000
C 	C 	0.32240 0.85470 0.10080 -0.01000
C 	C 	0.42950 0.83660 0.06510 -0.17100
C 	C 	0.42550 0.79440 0.97180 0.00400
N 	N 	0.52580 0.77050 0.94170 -0.09700
N 	N 	0.58510 0.74200 0.01680 -0.12700
C 	C 	0.66590 0.72180 0.96340 0.08200
N 	N 	0.65650 0.73780 0.85530 -0.21000
Ag	Ag	0.11678 0.70108 0.39013 0.50800
Ag	Ag	0.75966 0.71140 0.72693 0.50100
N 	N 	0.52130 0.52900 0.16920 -0.22900
N 	N 	0.58370 0.54290 0.33380 -0.10900
N 	N 	0.48710 0.55720 0.34500 -0.10900
N 	N 	0.85820 0.62450 0.55220 -0.10500
N 	N 	0.99270 0.67120 0.49370 -0.20700
N 	N 	0.85020 0.67920 0.59480 -0.17800
C 	C 	0.77770 0.57970 0.56330 -0.03000
H 	H 	0.80820 0.54120 0.56290 0.02700
H 	H 	0.74350 0.58480 0.63420 0.01200
C 	C 	0.70030 0.58600 0.46340 -0.15100
H 	H 	0.73630 0.59740 0.39640 0.07100
H 	H 	0.65190 0.61660 0.48020 0.07500
C 	C 	0.45430 0.55040 0.24400 0.09300
H 	H 	0.61280 0.44030 0.77860 -0.02400
C 	C 	0.64520 0.53300 0.44010 -0.01500
H 	H 	0.30760 0.49910 0.56920 0.02600
H 	H 	0.39930 0.47620 0.49810 0.03900
C 	C 	0.94240 0.61990 0.49260 0.06400
H 	H 	0.96350 0.58630 0.45580 -0.01600
C 	C 	0.39920 0.47370 0.76760 0.10700
H 	H 	0.33570 0.48610 0.79150 -0.03300
C 	C 	0.93090 0.70440 0.55720 0.08200
H 	H 	0.94570 0.74330 0.57300 -0.04400
C 	C 	0.17240 0.73190 0.13760 0.09200
H 	H 	0.13160 0.70100 0.11200 -0.04200
C 	C 	0.25320 0.78720 0.24510 0.09000
H 	H 	0.28320 0.80500 0.30880 -0.01700
H 	H 	0.32880 0.88400 0.15980 0.02400
H 	H 	0.28560 0.87190 0.03650 0.01400
H 	H 	0.46680 0.87090 0.04190 0.07600
H 	H 	0.46660 0.81960 0.12960 0.07700
N 	N 	0.19470 0.74050 0.24800 -0.21400
H 	H 	0.39450 0.81310 0.90540 0.02500
H 	H 	0.38120 0.76240 0.99230 0.04000
H 	H 	0.71950 0.70020 0.99600 -0.03700
C 	C 	0.56990 0.76790 0.84190 0.07800
H 	H 	0.54460 0.78420 0.77450 -0.00700
N 	N 	0.78920 0.23130 0.93050 -0.14700
N 	N 	0.73630 0.19470 0.85740 -0.10700
C 	C 	0.67760 0.14530 0.89920 -0.02700
C 	C 	0.57050 0.16340 0.93490 -0.12500
C 	C 	0.57450 0.20560 0.02820 -0.03800
N 	N 	0.47420 0.22950 0.05830 -0.10100
N 	N 	0.41490 0.25800 0.98320 -0.10300
C 	C 	0.33410 0.27820 0.03660 0.05500
N 	N 	0.34350 0.26220 0.14470 -0.20800
Ag	Ag	0.50000 0.50000 -0.00000 0.49000
N 	N 	0.78920 0.26870 0.43050 -0.15000
N 	N 	0.73630 0.30530 0.35740 -0.10900
C 	C 	0.67760 0.35470 0.39920 -0.01800
C 	C 	0.57050 0.33660 0.43490 -0.14900
C 	C 	0.57450 0.29440 0.52820 -0.01600
N 	N 	0.47420 0.27050 0.55830 -0.09900
N 	N 	0.41490 0.24200 0.48320 -0.11500
C 	C 	0.33410 0.22180 0.53660 0.06800
N 	N 	0.34350 0.23780 0.64470 -0.20900
Ag	Ag	0.11678 0.79892 0.89013 0.51200
Ag	Ag	0.75966 0.78860 0.22693 0.49900
N 	N 	0.52130 0.97100 0.66920 -0.22300
N 	N 	0.58370 0.95710 0.83380 -0.11000
N 	N 	0.48710 0.94280 0.84500 -0.10500
N 	N 	0.85820 0.87550 0.05220 -0.11100
N 	N 	0.99270 0.82880 0.99370 -0.20000
N 	N 	0.85020 0.82080 0.09480 -0.17800
C 	C 	0.77770 0.92030 0.06330 -0.04300
H 	H 	0.80820 0.95880 0.06290 0.03000
H 	H 	0.74350 0.91520 0.13420 0.01600
C 	C 	0.70030 0.91400 0.96340 -0.14300
H 	H 	0.73630 0.90260 0.89640 0.07200
H 	H 	0.65190 0.88340 0.98020 0.07700
C 	C 	0.45430 0.94960 0.74400 0.09600
H 	H 	0.61280 0.05970 0.27860 -0.02900
C 	C 	0.64520 0.96700 0.94010 0.00200
H 	H 	0.30760 0.00090 0.06920 0.02400
H 	H 	0.39930 0.02380 0.99810 0.04800
C 	C 	0.94240 0.88010 0.99260 0.07900
H 	H 	0.96350 0.91370 0.95580 -0.01400
C 	C 	0.39920 0.02630 0.26760 0.10400
H 	H 	0.33570 0.01390 0.29150 -0.03800
C 	C 	0.93090 0.79560 0.05720 0.06700
H 	H 	0.94570 0.75670 0.07300 -0.04300
C 	C 	0.17240 0.76810 0.63760 0.09200
H 	H 	0.13160 0.79900 0.61200 -0.03800
C 	C 	0.25320 0.71280 0.74510 0.09000
H 	H 	0.28320 0.69500 0.80880 -0.01600
H 	H 	0.32880 0.61600 0.65980 0.02400
H 	H 	0.28560 0.62810 0.53650 0.01800
H 	H 	0.46680 0.62910 0.54190 0.07200
H 	H 	0.46660 0.68040 0.62960 0.07200
N 	N 	0.19470 0.75950 0.74800 -0.21200
H 	H 	0.39450 0.68690 0.40540 0.02800
H 	H 	0.38120 0.73760 0.49230 0.04200
H 	H 	0.71950 0.79980 0.49600 -0.03600
C 	C 	0.56990 0.73210 0.34190 0.07600
H 	H 	0.54460 0.71580 0.27450 -0.00800
N 	N 	0.21080 0.73130 0.56950 -0.15000
N 	N 	0.26370 0.69470 0.64260 -0.10800
C 	C 	0.32240 0.64530 0.60080 -0.01800
C 	C 	0.42950 0.66340 0.56510 -0.14900
C 	C 	0.42550 0.70560 0.47180 -0.01600
N 	N 	0.52580 0.72950 0.44170 -0.09900
N 	N 	0.58510 0.75800 0.51680 -0.11400
C 	C 	0.66590 0.77820 0.46340 0.06900
N 	N 	0.65650 0.76220 0.35530 -0.20900
Ag	Ag	0.88322 0.20108 0.10987 0.50200
Ag	Ag	0.24034 0.21140 0.77307 0.50100
N 	N 	0.47870 0.02900 0.33080 -0.23000
N 	N 	0.41630 0.04290 0.16620 -0.10900
N 	N 	0.51290 0.05720 0.15500 -0.11300
N 	N 	0.14180 0.12450 0.94780 -0.10100
N 	N 	0.00730 0.17120 0.00630 -0.21200
N 	N 	0.14980 0.17920 0.90520 -0.17900
C 	C 	0.22230 0.07970 0.93670 -0.01600
H 	H 	0.19180 0.04120 0.93710 0.02300
H 	H 	0.25650 0.08480 0.86580 0.00600
C 	C 	0.29970 0.08600 0.03660 -0.15900
H 	H 	0.26370 0.09740 0.10360 0.07200
H 	H 	0.34810 0.11660 0.01980 0.07300
C 	C 	0.54570 0.05040 0.25600 0.09100
H 	H 	0.38720 0.94030 0.72140 -0.02200
C 	C 	0.35480 0.03300 0.05990 -0.03100
H 	H 	0.69240 0.99910 0.93080 0.02900
H 	H 	0.60070 0.97620 0.00190 0.03000
C 	C 	0.05760 0.11990 0.00740 0.05100
H 	H 	0.03650 0.08630 0.04420 -0.01600
C 	C 	0.60080 0.97370 0.73240 0.10900
H 	H 	0.66430 0.98610 0.70850 -0.03100
C 	C 	0.06910 0.20440 0.94280 0.09300
H 	H 	0.05430 0.24330 0.92700 -0.04600
C 	C 	0.82760 0.23190 0.36240 0.09100
H 	H 	0.86840 0.20100 0.38800 -0.04200
C 	C 	0.74680 0.28720 0.25490 0.08900
H 	H 	0.71680 0.30500 0.19120 -0.02000
H 	H 	0.67120 0.38400 0.34020 0.02300
H 	H 	0.71440 0.37190 0.46350 0.01800
H 	H 	0.53320 0.37090 0.45810 0.07200
H 	H 	0.53340 0.31960 0.37040 0.07100
N 	N 	0.80530 0.24050 0.25200 -0.21500
H 	H 	0.60550 0.31310 0.59460 0.02900
H 	H 	0.61880 0.26240 0.50770 0.04200
H 	H 	0.28050 0.20020 0.50400 -0.03800
C 	C 	0.43010 0.26790 0.65810 0.07600
H 	H 	0.45540 0.28420 0.72550 -0.00500
Ag	Ag	0.50000 -0.00000 0.50000 0.48700
