data_crystal

_cell_length_a 7.47860
_cell_length_b 9.83200
_cell_length_c 14.93330
_cell_angle_alpha 90.00000
_cell_angle_beta  100.07800
_cell_angle_gamma 90.00000

_symmetry_space_group_name_	'P 1'
_symmetry_space_group_name_H-M	'P 1'

loop_
_symmetry_equiv_pos_as_xyz
  x,y,z

loop_
_atom_site_label
_atom_site_type_symbol
_atom_site_fract_x
_atom_site_fract_y
_atom_site_fract_z
_atom_site_charge
Pr	Pr	0.63139 0.44453 0.35634 2.04700
Pr	Pr	0.86861 0.94453 0.14366 2.03800
Pr	Pr	0.36861 0.55547 0.64366 2.04700
Pr	Pr	0.13139 0.05547 0.85634 2.03800
H 	H 	0.72140 0.95320 0.62260 0.01800
H 	H 	0.82160 0.16300 0.54530 0.04700
H 	H 	0.77860 0.45320 0.87740 0.01500
H 	H 	0.67840 0.66300 0.95470 0.04600
H 	H 	0.27860 0.04680 0.37740 0.01800
H 	H 	0.17840 0.83700 0.45470 0.04700
H 	H 	0.22140 0.54680 0.12260 0.01500
H 	H 	0.32160 0.33700 0.04530 0.04600
C 	C 	0.60620 0.72980 0.49540 0.42300
C 	C 	0.68590 0.86780 0.49580 -0.01800
C 	C 	0.72810 0.96270 0.56130 -0.02200
C 	C 	0.78510 0.08020 0.51800 -0.03800
C 	C 	0.77540 0.04700 0.42890 -0.02000
C 	C 	0.81600 0.12340 0.34970 0.39300
C 	C 	0.95830 0.46520 0.53840 0.24000
C 	C 	0.89380 0.22980 0.00460 0.42600
C 	C 	0.81410 0.36780 0.00420 -0.02400
C 	C 	0.77190 0.46270 0.93870 -0.01200
C 	C 	0.71490 0.58020 0.98200 -0.03700
C 	C 	0.72460 0.54700 0.07110 -0.03500
C 	C 	0.68400 0.62340 0.15030 0.39700
C 	C 	0.54170 0.96520 0.96160 0.24000
C 	C 	0.39380 0.27020 0.50460 0.42300
C 	C 	0.31410 0.13220 0.50420 -0.01800
C 	C 	0.27190 0.03730 0.43870 -0.02200
C 	C 	0.21490 0.91980 0.48200 -0.03800
C 	C 	0.22460 0.95300 0.57110 -0.02000
C 	C 	0.18400 0.87660 0.65030 0.39300
C 	C 	0.04170 0.53480 0.46160 0.24000
C 	C 	0.10620 0.77020 0.99540 0.42600
C 	C 	0.18590 0.63220 0.99580 -0.02400
C 	C 	0.22810 0.53730 0.06130 -0.01200
C 	C 	0.28510 0.41980 0.01800 -0.03700
C 	C 	0.27540 0.45300 0.92890 -0.03500
C 	C 	0.31600 0.37660 0.84970 0.39700
C 	C 	0.45830 0.03480 0.03840 0.24000
O 	O 	0.79550 0.42830 0.51870 -0.41800
O 	O 	0.58090 0.66500 0.42160 -0.50500
O 	O 	0.56580 0.69060 0.56910 -0.54300
O 	O 	0.71650 0.91600 0.41410 -0.17500
O 	O 	0.83880 0.25100 0.35900 -0.48900
O 	O 	0.82670 0.05900 0.27890 -0.52200
O 	O 	0.06000 0.45100 0.61410 -0.41500
O 	O 	0.70450 0.92830 0.98130 -0.41600
O 	O 	0.91910 0.16500 0.07840 -0.50100
O 	O 	0.93420 0.19060 0.93090 -0.54100
O 	O 	0.78350 0.41600 0.08590 -0.16600
O 	O 	0.66120 0.75100 0.14100 -0.49500
O 	O 	0.67330 0.55900 0.22110 -0.52900
O 	O 	0.44000 0.95100 0.88590 -0.40900
O 	O 	0.20450 0.57170 0.48130 -0.41800
O 	O 	0.41910 0.33500 0.57840 -0.50500
O 	O 	0.43420 0.30940 0.43090 -0.54300
O 	O 	0.28350 0.08400 0.58590 -0.17500
O 	O 	0.16120 0.74900 0.64100 -0.48900
O 	O 	0.17330 0.94100 0.72110 -0.52200
O 	O 	0.94000 0.54900 0.38590 -0.41500
O 	O 	0.29550 0.07170 0.01870 -0.41600
O 	O 	0.08090 0.83500 0.92160 -0.50100
O 	O 	0.06580 0.80940 0.06910 -0.54100
O 	O 	0.21650 0.58400 0.91410 -0.16600
O 	O 	0.33880 0.24900 0.85900 -0.49500
O 	O 	0.32670 0.44100 0.77890 -0.52900
O 	O 	0.56000 0.04900 0.11410 -0.40900
