data_crystal

_cell_length_a 7.31730
_cell_length_b 9.70220
_cell_length_c 14.70830
_cell_angle_alpha 90.00000
_cell_angle_beta  99.52060
_cell_angle_gamma 90.00000

_symmetry_space_group_name_	'P 1'
_symmetry_space_group_name_H-M	'P 1'

loop_
_symmetry_equiv_pos_as_xyz
  x,y,z

loop_
_atom_site_label
_atom_site_type_symbol
_atom_site_fract_x
_atom_site_fract_y
_atom_site_fract_z
_atom_site_charge
Gd	Gd	0.63620 0.44495 0.35744 1.57700
Gd	Gd	0.86380 0.94495 0.14256 1.54300
Gd	Gd	0.36380 0.55505 0.64256 1.57800
Gd	Gd	0.13620 0.05505 0.85744 1.54400
H 	H 	0.72250 0.95300 0.62420 0.03300
H 	H 	0.81900 0.16510 0.54520 0.05400
H 	H 	0.77750 0.45300 0.87580 0.03100
H 	H 	0.68100 0.66510 0.95480 0.05300
H 	H 	0.27750 0.04700 0.37580 0.03300
H 	H 	0.18100 0.83490 0.45480 0.05400
H 	H 	0.22250 0.54700 0.12420 0.03100
H 	H 	0.31900 0.33490 0.04520 0.05300
C 	C 	0.60570 0.72660 0.49660 0.43400
C 	C 	0.68840 0.86500 0.49660 -0.02000
C 	C 	0.72920 0.96210 0.56190 -0.02100
C 	C 	0.78400 0.08060 0.51780 -0.03000
C 	C 	0.77570 0.04730 0.42810 -0.01500
C 	C 	0.81210 0.12430 0.34720 0.40400
C 	C 	0.95720 0.46490 0.53850 0.25400
C 	C 	0.89430 0.22660 0.00340 0.43200
C 	C 	0.81160 0.36500 0.00340 -0.02300
C 	C 	0.77080 0.46210 0.93810 -0.01400
C 	C 	0.71600 0.58060 0.98220 -0.02900
C 	C 	0.72430 0.54730 0.07190 -0.02700
C 	C 	0.68790 0.62430 0.15280 0.40800
C 	C 	0.54280 0.96490 0.96150 0.25300
C 	C 	0.39430 0.27340 0.50340 0.43400
C 	C 	0.31160 0.13500 0.50340 -0.02000
C 	C 	0.27080 0.03790 0.43810 -0.02100
C 	C 	0.21600 0.91940 0.48220 -0.03000
C 	C 	0.22430 0.95270 0.57190 -0.01500
C 	C 	0.18790 0.87570 0.65280 0.40400
C 	C 	0.04280 0.53510 0.46150 0.25400
C 	C 	0.10570 0.77340 0.99660 0.43200
C 	C 	0.18840 0.63500 0.99660 -0.02300
C 	C 	0.22920 0.53790 0.06190 -0.01400
C 	C 	0.28400 0.41940 0.01780 -0.02900
C 	C 	0.27570 0.45270 0.92810 -0.02700
C 	C 	0.31210 0.37570 0.84720 0.40800
C 	C 	0.45720 0.03510 0.03850 0.25300
O 	O 	0.79280 0.42430 0.51780 -0.35700
O 	O 	0.58770 0.65950 0.42320 -0.43900
O 	O 	0.56150 0.68820 0.57120 -0.47300
O 	O 	0.71680 0.91430 0.41310 -0.16400
O 	O 	0.83580 0.25290 0.35670 -0.42800
O 	O 	0.82160 0.06000 0.27490 -0.44400
O 	O 	0.05750 0.45370 0.61590 -0.35500
O 	O 	0.70720 0.92430 0.98220 -0.35200
O 	O 	0.91230 0.15950 0.07680 -0.43200
O 	O 	0.93850 0.18820 0.92880 -0.46600
O 	O 	0.78320 0.41430 0.08690 -0.15800
O 	O 	0.66420 0.75290 0.14330 -0.42900
O 	O 	0.67840 0.56000 0.22510 -0.45400
O 	O 	0.44250 0.95370 0.88410 -0.34700
O 	O 	0.20720 0.57570 0.48220 -0.35700
O 	O 	0.41230 0.34050 0.57680 -0.43900
O 	O 	0.43850 0.31180 0.42880 -0.47300
O 	O 	0.28320 0.08570 0.58690 -0.16400
O 	O 	0.16420 0.74710 0.64330 -0.42800
O 	O 	0.17840 0.94000 0.72510 -0.44400
O 	O 	0.94250 0.54630 0.38410 -0.35500
O 	O 	0.29280 0.07570 0.01780 -0.35200
O 	O 	0.08770 0.84050 0.92320 -0.43200
O 	O 	0.06150 0.81180 0.07120 -0.46600
O 	O 	0.21680 0.58570 0.91310 -0.15800
O 	O 	0.33580 0.24710 0.85670 -0.42900
O 	O 	0.32160 0.44000 0.77490 -0.45400
O 	O 	0.55750 0.04630 0.11590 -0.34700
