data_crystal

_cell_length_a 9.95130
_cell_length_b 9.95130
_cell_length_c 13.48490
_cell_angle_alpha 85.78940
_cell_angle_beta  69.76560
_cell_angle_gamma 115.58400

_symmetry_space_group_name_	'P 1'
_symmetry_space_group_name_H-M	'P 1'

loop_
_symmetry_equiv_pos_as_xyz
  x,y,z

loop_
_atom_site_label
_atom_site_type_symbol
_atom_site_fract_x
_atom_site_fract_y
_atom_site_fract_z
_atom_site_charge
Sm	Sm	0.26551 0.53861 0.00196 2.00100
Sm	Sm	0.04057 0.26747 0.49804 1.98600
Sm	Sm	0.73449 0.46139 0.99804 2.00100
Sm	Sm	0.95943 0.73253 0.50196 1.98600
H 	H 	0.98620 0.05320 0.14600 0.04100
H 	H 	0.81870 0.76560 0.17910 0.01400
H 	H 	0.69920 0.13220 0.35400 0.04000
H 	H 	0.44470 0.99780 0.32090 0.01200
H 	H 	0.01380 0.94680 0.85400 0.04100
H 	H 	0.18130 0.23440 0.82090 0.01400
H 	H 	0.30080 0.86780 0.64600 0.04000
H 	H 	0.55530 0.00220 0.67910 0.01200
C 	C 	0.87970 0.22820 0.03810 0.45900
C 	C 	0.68590 0.81730 0.11120 -0.03800
C 	C 	0.89710 0.00200 0.12910 -0.02000
C 	C 	0.55740 0.67840 0.10040 0.45100
C 	C 	0.80320 0.84110 0.14770 -0.02200
C 	C 	0.06220 0.40580 0.26560 0.27000
C 	C 	0.83270 0.06710 0.08180 -0.03700
C 	C 	0.76630 0.91780 0.46190 0.44200
C 	C 	0.42850 0.79710 0.38880 -0.04100
C 	C 	0.63110 0.02620 0.37090 -0.02800
C 	C 	0.27880 0.65780 0.39960 0.45100
C 	C 	0.48880 0.95090 0.35230 -0.01300
C 	C 	0.17140 0.32780 0.23440 0.27400
C 	C 	0.64890 0.91450 0.41820 -0.04100
C 	C 	0.12030 0.77180 0.96190 0.45900
C 	C 	0.31410 0.18270 0.88880 -0.03800
C 	C 	0.10290 0.99800 0.87090 -0.02000
C 	C 	0.44260 0.32160 0.89960 0.45100
C 	C 	0.19680 0.15890 0.85230 -0.02200
C 	C 	0.93780 0.59420 0.73440 0.27000
C 	C 	0.16730 0.93290 0.91820 -0.03700
C 	C 	0.23370 0.08220 0.53810 0.44200
C 	C 	0.57150 0.20290 0.61120 -0.04100
C 	C 	0.36890 0.97380 0.62910 -0.02800
C 	C 	0.72120 0.34220 0.60040 0.45100
C 	C 	0.51120 0.04910 0.64770 -0.01300
C 	C 	0.82860 0.67220 0.76560 0.27400
C 	C 	0.35110 0.08550 0.58180 -0.04100
O 	O 	0.00740 0.33140 0.03700 -0.56700
O 	O 	0.78660 0.24990 0.00270 -0.51400
O 	O 	0.07210 0.49350 0.18960 -0.42200
O 	O 	0.57770 0.56230 0.10240 -0.55300
O 	O 	0.70040 0.95590 0.07190 -0.15500
O 	O 	0.44050 0.68470 0.09000 -0.47400
O 	O 	0.97030 0.37230 0.36460 -0.42400
O 	O 	0.86840 0.04440 0.46300 -0.55300
O 	O 	0.75260 0.78930 0.49730 -0.51300
O 	O 	0.18310 0.26170 0.31040 -0.42300
O 	O 	0.16470 0.68010 0.39760 -0.55100
O 	O 	0.52780 0.77230 0.42810 -0.14900
O 	O 	0.27470 0.53050 0.41000 -0.47300
O 	O 	0.23690 0.33490 0.13540 -0.43000
O 	O 	0.99260 0.66860 0.96300 -0.56700
O 	O 	0.21340 0.75010 0.99730 -0.51400
O 	O 	0.92790 0.50650 0.81040 -0.42200
O 	O 	0.42230 0.43770 0.89760 -0.55300
O 	O 	0.29960 0.04410 0.92810 -0.15500
O 	O 	0.55950 0.31530 0.91000 -0.47400
O 	O 	0.02970 0.62770 0.63540 -0.42400
O 	O 	0.13160 0.95560 0.53700 -0.55300
O 	O 	0.24740 0.21070 0.50270 -0.51300
O 	O 	0.81690 0.73830 0.68960 -0.42300
O 	O 	0.83530 0.31990 0.60240 -0.55100
O 	O 	0.47220 0.22770 0.57190 -0.14900
O 	O 	0.72530 0.46950 0.59000 -0.47300
O 	O 	0.76310 0.66510 0.86460 -0.43000
