data_crystal

_cell_length_a 9.90630
_cell_length_b 9.90630
_cell_length_c 13.36610
_cell_angle_alpha 86.07090
_cell_angle_beta  69.30230
_cell_angle_gamma 115.51000

_symmetry_space_group_name_	'P 1'
_symmetry_space_group_name_H-M	'P 1'

loop_
_symmetry_equiv_pos_as_xyz
  x,y,z

loop_
_atom_site_label
_atom_site_type_symbol
_atom_site_fract_x
_atom_site_fract_y
_atom_site_fract_z
_atom_site_charge
Eu	Eu	0.23434 0.45990 0.49836 1.90900
Eu	Eu	0.45826 0.73269 0.00164 1.91200
Eu	Eu	0.54174 0.26730 0.99836 1.91200
Eu	Eu	0.76567 0.54010 0.50164 1.91000
H 	H 	0.49010 0.05320 0.64710 0.04300
H 	H 	0.20030 0.13720 0.85290 0.04700
H 	H 	0.68150 0.23920 0.31810 0.01400
H 	H 	0.05730 0.99960 0.18190 0.00500
H 	H 	0.50990 0.94680 0.35290 0.04300
H 	H 	0.94270 0.00040 0.81810 0.00500
H 	H 	0.31850 0.76080 0.68190 0.01400
H 	H 	0.79970 0.86280 0.14710 0.04700
C 	C 	0.01198 0.04727 0.14953 0.00600
C 	C 	0.94409 0.32380 0.39727 0.43400
C 	C 	0.56100 0.40512 0.76656 0.26600
C 	C 	0.81466 0.18414 0.38722 -0.03400
C 	C 	0.77893 0.65864 0.89727 0.43800
C 	C 	0.92864 0.79812 0.88722 -0.04000
C 	C 	0.43900 0.59488 0.23344 0.26600
C 	C 	0.39843 0.00053 0.63004 -0.03500
C 	C 	0.66682 0.93383 0.41783 -0.02900
C 	C 	0.73560 0.08242 0.03656 0.43700
C 	C 	0.14834 0.91535 0.91783 -0.02500
C 	C 	0.69680 0.16151 0.35047 -0.00900
C 	C 	0.85166 0.08465 0.08217 -0.02500
C 	C 	0.33318 0.06617 0.58217 -0.02900
C 	C 	0.61898 0.77216 0.46344 0.43300
C 	C 	0.86943 0.97153 0.13004 -0.04500
C 	C 	0.26440 0.91758 0.96344 0.43700
C 	C 	0.98802 0.95273 0.85047 0.00600
C 	C 	0.30320 0.83849 0.64953 -0.00900
C 	C 	0.67168 0.32756 0.73344 0.26600
C 	C 	0.60157 0.99947 0.36996 -0.03500
C 	C 	0.32832 0.67244 0.26656 0.26600
C 	C 	0.18534 0.81586 0.61278 -0.03400
C 	C 	0.22107 0.34136 0.10273 0.43800
C 	C 	0.13057 0.02847 0.86996 -0.04500
C 	C 	0.05591 0.67620 0.60273 0.43400
C 	C 	0.07136 0.20188 0.11278 -0.04000
C 	C 	0.38102 0.22784 0.53656 0.43300
O 	O 	0.75001 0.21164 0.00071 -0.49500
O 	O 	0.02665 0.77256 0.92789 -0.14900
O 	O 	0.57003 0.49386 0.68981 -0.40800
O 	O 	0.68367 0.25984 0.81019 -0.40900
O 	O 	0.49063 0.66778 0.46375 -0.54100
O 	O 	0.24999 0.78836 0.99929 -0.49500
O 	O 	0.93814 0.68388 0.59240 -0.45300
O 	O 	0.77628 0.53054 0.90760 -0.45300
O 	O 	0.06186 0.31612 0.40760 -0.45200
O 	O 	0.22372 0.46946 0.09240 -0.45300
O 	O 	0.07550 0.55882 0.60466 -0.53300
O 	O 	0.50937 0.33222 0.53625 -0.54100
O 	O 	0.42997 0.50614 0.31019 -0.40800
O 	O 	0.26191 0.66440 0.36711 -0.41500
O 	O 	0.53151 0.62902 0.13289 -0.41500
O 	O 	0.33652 0.31984 0.10466 -0.53200
O 	O 	0.97335 0.22744 0.07211 -0.14900
O 	O 	0.46849 0.37098 0.86711 -0.41500
O 	O 	0.63153 0.95438 0.03625 -0.54300
O 	O 	0.71235 0.75072 0.49929 -0.49700
O 	O 	0.36847 0.04562 0.96375 -0.54300
O 	O 	0.73809 0.33560 0.63289 -0.41500
O 	O 	0.20045 0.95454 0.57211 -0.15100
O 	O 	0.31633 0.74016 0.18981 -0.40900
O 	O 	0.28765 0.24928 0.50071 -0.49700
O 	O 	0.92450 0.44118 0.39534 -0.53300
O 	O 	0.66348 0.68016 0.89534 -0.53200
O 	O 	0.79955 0.04546 0.42789 -0.15100
