data_crystal

_cell_length_a 7.41280
_cell_length_b 9.77100
_cell_length_c 14.83830
_cell_angle_alpha 90.00000
_cell_angle_beta  99.97880
_cell_angle_gamma 90.00000

_symmetry_space_group_name_	'P 1'
_symmetry_space_group_name_H-M	'P 1'

loop_
_symmetry_equiv_pos_as_xyz
  x,y,z

loop_
_atom_site_label
_atom_site_type_symbol
_atom_site_fract_x
_atom_site_fract_y
_atom_site_fract_z
_atom_site_charge
Nd	Nd	0.63246 0.44470 0.35660 2.20800
Nd	Nd	0.86754 0.94470 0.14340 2.14600
Nd	Nd	0.36754 0.55530 0.64340 2.20800
Nd	Nd	0.13246 0.05530 0.85660 2.14600
H 	H 	0.72270 0.95350 0.62310 0.00300
H 	H 	0.81800 0.16520 0.54520 0.03200
H 	H 	0.77730 0.45350 0.87690 0.00000
H 	H 	0.68200 0.66520 0.95480 0.03000
H 	H 	0.27730 0.04650 0.37690 0.00300
H 	H 	0.18200 0.83480 0.45480 0.03200
H 	H 	0.22270 0.54650 0.12310 0.00000
H 	H 	0.31800 0.33480 0.04520 0.03000
C 	C 	0.60750 0.72880 0.49610 0.50400
C 	C 	0.68640 0.86720 0.49620 -0.05700
C 	C 	0.72850 0.96300 0.56130 -0.01100
C 	C 	0.78350 0.08130 0.51800 -0.02300
C 	C 	0.77560 0.04730 0.42880 -0.05300
C 	C 	0.81580 0.12390 0.34930 0.47400
C 	C 	0.95730 0.46590 0.53820 0.27400
C 	C 	0.89250 0.22880 0.00390 0.50000
C 	C 	0.81360 0.36720 0.00380 -0.06100
C 	C 	0.77150 0.46300 0.93870 -0.00200
C 	C 	0.71650 0.58130 0.98200 -0.02100
C 	C 	0.72440 0.54730 0.07120 -0.06800
C 	C 	0.68420 0.62390 0.15070 0.47900
C 	C 	0.54270 0.96590 0.96180 0.27300
C 	C 	0.39250 0.27120 0.50390 0.50400
C 	C 	0.31360 0.13280 0.50380 -0.05700
C 	C 	0.27150 0.03700 0.43870 -0.01100
C 	C 	0.21650 0.91870 0.48200 -0.02300
C 	C 	0.22440 0.95270 0.57120 -0.05300
C 	C 	0.18420 0.87610 0.65070 0.47400
C 	C 	0.04270 0.53410 0.46180 0.27400
C 	C 	0.10750 0.77120 0.99610 0.50000
C 	C 	0.18640 0.63280 0.99620 -0.06100
C 	C 	0.22850 0.53700 0.06130 -0.00200
C 	C 	0.28350 0.41870 0.01800 -0.02100
C 	C 	0.27560 0.45270 0.92880 -0.06800
C 	C 	0.31580 0.37610 0.84930 0.47900
C 	C 	0.45730 0.03410 0.03820 0.27300
O 	O 	0.79460 0.42750 0.51850 -0.44900
O 	O 	0.58270 0.66370 0.42210 -0.55500
O 	O 	0.56460 0.68970 0.56950 -0.59900
O 	O 	0.71640 0.91540 0.41380 -0.17100
O 	O 	0.83780 0.25120 0.35850 -0.54100
O 	O 	0.82640 0.05940 0.27840 -0.56900
O 	O 	0.05900 0.45120 0.61410 -0.45000
O 	O 	0.70540 0.92750 0.98150 -0.44000
O 	O 	0.91730 0.16370 0.07790 -0.54200
O 	O 	0.93540 0.18970 0.93050 -0.58600
O 	O 	0.78360 0.41540 0.08620 -0.16200
O 	O 	0.66220 0.75120 0.14150 -0.54200
O 	O 	0.67360 0.55940 0.22160 -0.58400
O 	O 	0.44100 0.95120 0.88590 -0.43700
O 	O 	0.20540 0.57250 0.48150 -0.44900
O 	O 	0.41730 0.33630 0.57790 -0.55500
O 	O 	0.43540 0.31030 0.43050 -0.59900
O 	O 	0.28360 0.08460 0.58620 -0.17100
O 	O 	0.16220 0.74880 0.64150 -0.54100
O 	O 	0.17360 0.94060 0.72160 -0.56900
O 	O 	0.94100 0.54880 0.38590 -0.45000
O 	O 	0.29460 0.07250 0.01850 -0.44000
O 	O 	0.08270 0.83630 0.92210 -0.54200
O 	O 	0.06460 0.81030 0.06950 -0.58600
O 	O 	0.21640 0.58460 0.91380 -0.16200
O 	O 	0.33780 0.24880 0.85850 -0.54200
O 	O 	0.32640 0.44060 0.77840 -0.58400
O 	O 	0.55900 0.04880 0.11410 -0.43700
