data_crystal

_cell_length_a 9.85460
_cell_length_b 9.85460
_cell_length_c 13.30950
_cell_angle_alpha 85.16130
_cell_angle_beta  70.35120
_cell_angle_gamma 115.59100

_symmetry_space_group_name_	'P 1'
_symmetry_space_group_name_H-M	'P 1'

loop_
_symmetry_equiv_pos_as_xyz
  x,y,z

loop_
_atom_site_label
_atom_site_type_symbol
_atom_site_fract_x
_atom_site_fract_y
_atom_site_fract_z
_atom_site_charge
Ho	Ho	0.26526 0.53879 0.00287 1.76000
Ho	Ho	0.04166 0.26813 0.49713 1.74800
Ho	Ho	0.73474 0.46121 0.99713 1.76000
Ho	Ho	0.95834 0.73187 0.50287 1.74800
H 	H 	0.98970 0.05380 0.14770 0.04800
H 	H 	0.82170 0.76130 0.17940 0.02700
H 	H 	0.70150 0.13740 0.35230 0.04700
H 	H 	0.44070 0.00110 0.32060 0.02400
H 	H 	0.01030 0.94620 0.85230 0.04800
H 	H 	0.17830 0.23870 0.82060 0.02700
H 	H 	0.29850 0.86260 0.64770 0.04700
H 	H 	0.55930 0.99890 0.67940 0.02400
C 	C 	0.88180 0.23180 0.03900 0.44400
C 	C 	0.68840 0.81660 0.11020 -0.02500
C 	C 	0.90010 0.00220 0.13010 -0.02000
C 	C 	0.55970 0.67680 0.09850 0.43500
C 	C 	0.80590 0.83810 0.14800 -0.02600
C 	C 	0.06620 0.41040 0.26520 0.26500
C 	C 	0.83520 0.06820 0.08300 -0.02600
C 	C 	0.77080 0.92080 0.46100 0.42900
C 	C 	0.42680 0.79860 0.38980 -0.02800
C 	C 	0.63230 0.03020 0.36990 -0.02700
C 	C 	0.27530 0.65820 0.40150 0.43500
C 	C 	0.48610 0.95390 0.35200 -0.01700
C 	C 	0.17560 0.33140 0.23480 0.26900
C 	C 	0.65120 0.91820 0.41700 -0.03000
C 	C 	0.11820 0.76820 0.96100 0.44400
C 	C 	0.31160 0.18340 0.88980 -0.02500
C 	C 	0.09990 0.99780 0.86990 -0.02000
C 	C 	0.44030 0.32320 0.90150 0.43500
C 	C 	0.19410 0.16190 0.85200 -0.02600
C 	C 	0.93380 0.58960 0.73480 0.26500
C 	C 	0.16480 0.93180 0.91700 -0.02600
C 	C 	0.22920 0.07920 0.53900 0.42900
C 	C 	0.57320 0.20140 0.61020 -0.02800
C 	C 	0.36770 0.96980 0.63010 -0.02700
C 	C 	0.72470 0.34180 0.59850 0.43500
C 	C 	0.51390 0.04610 0.64800 -0.01700
C 	C 	0.82440 0.66860 0.76520 0.26900
C 	C 	0.34880 0.08180 0.58300 -0.03000
O 	O 	0.01160 0.33560 0.03920 -0.52200
O 	O 	0.78810 0.25570 0.00440 -0.47900
O 	O 	0.07760 0.50020 0.18680 -0.38300
O 	O 	0.58270 0.56090 0.09780 -0.51100
O 	O 	0.70170 0.95670 0.07160 -0.15100
O 	O 	0.44150 0.68290 0.08680 -0.43800
O 	O 	0.97360 0.37560 0.36460 -0.38900
O 	O 	0.87480 0.05080 0.46080 -0.50900
O 	O 	0.76010 0.79250 0.49560 -0.47800
O 	O 	0.18700 0.26440 0.31320 -0.38500
O 	O 	0.15870 0.68050 0.40220 -0.50900
O 	O 	0.52830 0.77330 0.42840 -0.14600
O 	O 	0.26970 0.52830 0.41320 -0.43700
O 	O 	0.24020 0.33820 0.13540 -0.39500
O 	O 	0.98840 0.66440 0.96080 -0.52200
O 	O 	0.21190 0.74430 0.99560 -0.47900
O 	O 	0.92240 0.49980 0.81320 -0.38300
O 	O 	0.41730 0.43910 0.90220 -0.51100
O 	O 	0.29830 0.04330 0.92840 -0.15100
O 	O 	0.55850 0.31710 0.91320 -0.43800
O 	O 	0.02640 0.62440 0.63540 -0.38900
O 	O 	0.12520 0.94920 0.53920 -0.50900
O 	O 	0.23990 0.20750 0.50440 -0.47800
O 	O 	0.81300 0.73560 0.68680 -0.38500
O 	O 	0.84130 0.31950 0.59780 -0.50900
O 	O 	0.47170 0.22670 0.57160 -0.14600
O 	O 	0.73030 0.47170 0.58680 -0.43700
O 	O 	0.75980 0.66180 0.86460 -0.39500
