data_crystal

_cell_length_a 11.47900
_cell_length_b 24.45100
_cell_length_c 16.29900
_cell_angle_alpha 90.00000
_cell_angle_beta  90.00000
_cell_angle_gamma 90.00000

_symmetry_space_group_name_	'P 1'
_symmetry_space_group_name_H-M	'P 1'

loop_
_symmetry_equiv_pos_as_xyz
  x,y,z

loop_
_atom_site_label
_atom_site_type_symbol
_atom_site_fract_x
_atom_site_fract_y
_atom_site_fract_z
_atom_site_charge
Fe	Fe	0.64456 0.45428 0.34645 1.18100
Fe	Fe	0.64456 0.54572 0.15355 1.18100
Fe	Fe	0.64456 0.95428 0.65355 1.18100
Fe	Fe	0.64456 0.04572 0.84645 1.18100
H 	H 	0.43730 0.51360 0.43080 0.02200
H 	H 	0.23500 0.51410 0.43170 0.08400
H 	H 	0.23370 0.39940 0.25480 0.07200
H 	H 	0.43490 0.39920 0.25390 0.01100
H 	H 	0.05720 0.52390 0.41110 0.07400
H 	H 	0.85580 0.52410 0.40960 0.01300
H 	H 	0.85540 0.38610 0.27610 0.01100
H 	H 	0.05720 0.38500 0.27910 0.07100
H 	H 	0.64740 0.61380 0.50540 0.05000
H 	H 	0.63890 0.65510 0.26860 0.03600
H 	H 	0.64420 0.74700 0.30160 0.07100
H 	H 	0.65550 0.68460 0.60910 0.05700
H 	H 	0.65800 0.77590 0.64460 0.05000
H 	H 	0.65270 0.81770 0.40690 0.06700
H 	H 	0.43730 0.48640 0.06920 0.02100
H 	H 	0.23500 0.48590 0.06830 0.08300
H 	H 	0.23370 0.60060 0.24520 0.07100
H 	H 	0.43490 0.60080 0.24610 0.01000
H 	H 	0.05720 0.47610 0.08890 0.07300
H 	H 	0.85580 0.47590 0.09040 0.01200
H 	H 	0.85540 0.61390 0.22390 0.01000
H 	H 	0.05720 0.61500 0.22090 0.07000
H 	H 	0.64740 0.38620 0.99460 0.04900
H 	H 	0.63890 0.34490 0.23140 0.03500
H 	H 	0.64420 0.25300 0.19840 0.07000
H 	H 	0.65550 0.31540 0.89090 0.05600
H 	H 	0.65800 0.22410 0.85540 0.04800
H 	H 	0.65270 0.18230 0.09310 0.06500
H 	H 	0.43730 0.01360 0.56920 0.02100
H 	H 	0.23500 0.01410 0.56830 0.08300
H 	H 	0.23370 0.89940 0.74520 0.07100
H 	H 	0.43490 0.89920 0.74610 0.01000
H 	H 	0.05720 0.02390 0.58890 0.07300
H 	H 	0.85580 0.02410 0.59040 0.01200
H 	H 	0.85540 0.88610 0.72390 0.01000
H 	H 	0.05720 0.88500 0.72090 0.07000
H 	H 	0.64740 0.11380 0.49460 0.04900
H 	H 	0.63890 0.15510 0.73140 0.03500
H 	H 	0.64420 0.24700 0.69840 0.07000
H 	H 	0.65550 0.18460 0.39090 0.05600
H 	H 	0.65800 0.27590 0.35540 0.04900
H 	H 	0.65270 0.31770 0.59310 0.06600
H 	H 	0.43730 0.98640 0.93080 0.02100
H 	H 	0.23500 0.98590 0.93170 0.08300
H 	H 	0.23370 0.10060 0.75480 0.07100
H 	H 	0.43490 0.10080 0.75390 0.01000
H 	H 	0.05720 0.97610 0.91110 0.07400
H 	H 	0.85580 0.97590 0.90960 0.01300
H 	H 	0.85540 0.11390 0.77610 0.01000
H 	H 	0.05720 0.11500 0.77910 0.07000
H 	H 	0.64740 0.88620 0.00540 0.04900
H 	H 	0.63890 0.84490 0.76860 0.03500
H 	H 	0.64420 0.75300 0.80160 0.07000
H 	H 	0.65550 0.81540 0.10910 0.05600
H 	H 	0.65800 0.72410 0.14460 0.04900
H 	H 	0.65270 0.68230 0.90690 0.06600
C 	C 	0.39620 0.49080 0.39540 0.05500
C 	C 	0.27490 0.49120 0.39590 -0.11200
C 	C 	0.21350 0.45710 0.34280 0.05000
C 	C 	0.27440 0.42240 0.28990 -0.11600
C 	C 	0.39490 0.42220 0.28940 0.05500
C 	C 	0.07820 0.45440 0.34460 0.05000
C 	C 	0.01700 0.49620 0.38420 -0.11500
C 	C 	0.89630 0.49620 0.38340 0.05100
C 	C 	0.89580 0.41350 0.30380 0.05600
C 	C 	0.01690 0.41310 0.30500 -0.11500
C 	C 	0.64380 0.56820 0.35250 0.39700
C 	C 	0.64690 0.64050 0.46480 -0.01100
C 	C 	0.64290 0.62560 0.38280 -0.11600
C 	C 	0.64180 0.66550 0.32340 0.03200
C 	C 	0.64500 0.72060 0.34260 -0.11300
C 	C 	0.64930 0.73520 0.42450 0.05300
C 	C 	0.65020 0.69540 0.48620 0.00500
C 	C 	0.65420 0.71120 0.56830 -0.06600
C 	C 	0.65630 0.76580 0.58950 -0.01200
C 	C 	0.65590 0.80600 0.52890 -0.04300
C 	C 	0.65270 0.79090 0.44730 -0.06800
C 	C 	0.65290 0.86800 0.55220 0.32800
C 	C 	0.39620 0.50920 0.10460 0.05500
C 	C 	0.27490 0.50880 0.10410 -0.11200
C 	C 	0.21350 0.54290 0.15720 0.05000
C 	C 	0.27440 0.57760 0.21010 -0.11600
C 	C 	0.39490 0.57780 0.21060 0.05500
C 	C 	0.07820 0.54560 0.15540 0.05000
C 	C 	0.01700 0.50380 0.11580 -0.11500
C 	C 	0.89630 0.50380 0.11660 0.05100
C 	C 	0.89580 0.58650 0.19620 0.05600
C 	C 	0.01690 0.58690 0.19500 -0.11500
C 	C 	0.64380 0.43180 0.14750 0.39700
C 	C 	0.64690 0.35950 0.03520 -0.01100
C 	C 	0.64290 0.37440 0.11720 -0.11600
C 	C 	0.64180 0.33450 0.17660 0.03200
C 	C 	0.64500 0.27940 0.15740 -0.11300
C 	C 	0.64930 0.26480 0.07550 0.05300
C 	C 	0.65020 0.30460 0.01380 0.00500
C 	C 	0.65420 0.28880 0.93170 -0.06600
C 	C 	0.65630 0.23420 0.91050 -0.01200
C 	C 	0.65590 0.19400 0.97110 -0.04300
C 	C 	0.65270 0.20910 0.05270 -0.06800
C 	C 	0.65290 0.13200 0.94780 0.32800
C 	C 	0.39620 0.99080 0.60460 0.05500
C 	C 	0.27490 0.99120 0.60410 -0.11200
C 	C 	0.21350 0.95710 0.65720 0.05000
C 	C 	0.27440 0.92240 0.71010 -0.11600
C 	C 	0.39490 0.92220 0.71060 0.05500
C 	C 	0.07820 0.95440 0.65540 0.05000
C 	C 	0.01700 0.99620 0.61580 -0.11500
C 	C 	0.89630 0.99620 0.61660 0.05200
C 	C 	0.89580 0.91350 0.69620 0.05600
C 	C 	0.01690 0.91310 0.69500 -0.11500
C 	C 	0.64380 0.06820 0.64750 0.39700
C 	C 	0.64690 0.14050 0.53520 -0.01100
C 	C 	0.64290 0.12560 0.61720 -0.11600
C 	C 	0.64180 0.16550 0.67660 0.03200
C 	C 	0.64500 0.22060 0.65740 -0.11300
C 	C 	0.64930 0.23520 0.57550 0.05300
C 	C 	0.65020 0.19540 0.51380 0.00500
C 	C 	0.65420 0.21120 0.43170 -0.06600
C 	C 	0.65630 0.26580 0.41050 -0.01200
C 	C 	0.65590 0.30600 0.47110 -0.04300
C 	C 	0.65270 0.29090 0.55270 -0.06800
C 	C 	0.65290 0.36800 0.44780 0.32800
C 	C 	0.39620 0.00920 0.89540 0.05400
C 	C 	0.27490 0.00880 0.89590 -0.11200
C 	C 	0.21350 0.04290 0.84280 0.05000
C 	C 	0.27440 0.07760 0.78990 -0.11600
C 	C 	0.39490 0.07780 0.78940 0.05500
C 	C 	0.07820 0.04560 0.84460 0.05000
C 	C 	0.01700 0.00380 0.88420 -0.11600
C 	C 	0.89630 0.00380 0.88340 0.05100
C 	C 	0.89580 0.08650 0.80380 0.05600
C 	C 	0.01690 0.08690 0.80500 -0.11500
C 	C 	0.64380 0.93180 0.85250 0.39700
C 	C 	0.64690 0.85950 0.96480 -0.01100
C 	C 	0.64290 0.87440 0.88280 -0.11600
C 	C 	0.64180 0.83450 0.82340 0.03200
C 	C 	0.64500 0.77940 0.84260 -0.11300
C 	C 	0.64930 0.76480 0.92450 0.05300
C 	C 	0.65020 0.80460 0.98620 0.00500
C 	C 	0.65420 0.78880 0.06830 -0.06600
C 	C 	0.65630 0.73420 0.08950 -0.01200
C 	C 	0.65590 0.69400 0.02890 -0.04300
C 	C 	0.65270 0.70910 0.94730 -0.06800
C 	C 	0.65290 0.63200 0.05220 0.32800
N 	N 	0.45610 0.45656 0.34210 -0.21500
N 	N 	0.83520 0.45485 0.34390 -0.21100
N 	N 	0.45610 0.54344 0.15790 -0.21500
N 	N 	0.83520 0.54515 0.15610 -0.21100
N 	N 	0.45610 0.95656 0.65790 -0.21500
N 	N 	0.83520 0.95485 0.65610 -0.21100
N 	N 	0.45610 0.04344 0.84210 -0.21500
N 	N 	0.83520 0.04515 0.84390 -0.21100
O 	O 	0.64410 0.52950 0.40170 -0.44400
O 	O 	0.64420 0.55998 0.27599 -0.48500
O 	O 	0.67090 0.90476 0.50790 -0.34200
O 	O 	0.64200 0.87120 0.63000 -0.40500
O 	O 	0.64410 0.47050 0.09830 -0.44400
O 	O 	0.64420 0.44002 0.22401 -0.48500
O 	O 	0.67090 0.09524 0.99210 -0.34200
O 	O 	0.64200 0.12880 0.87000 -0.40500
O 	O 	0.64410 0.02950 0.59830 -0.44400
O 	O 	0.64420 0.05998 0.72401 -0.48500
O 	O 	0.67090 0.40476 0.49210 -0.34200
O 	O 	0.64200 0.37120 0.37000 -0.40500
O 	O 	0.64410 0.97050 0.90170 -0.44400
O 	O 	0.64420 0.94002 0.77599 -0.48500
O 	O 	0.67090 0.59524 0.00790 -0.34200
O 	O 	0.64200 0.62880 0.13000 -0.40500
Fe	Fe	0.35544 0.04572 0.34645 1.18000
Fe	Fe	0.35544 0.95428 0.15355 1.18000
Fe	Fe	0.35544 0.54572 0.65355 1.18000
Fe	Fe	0.35544 0.45428 0.84645 1.18000
H 	H 	0.56270 0.98640 0.43080 0.02100
H 	H 	0.76500 0.98590 0.43170 0.08300
H 	H 	0.76630 0.10060 0.25480 0.07100
H 	H 	0.56510 0.10080 0.25390 0.01000
H 	H 	0.94280 0.97610 0.41110 0.07300
H 	H 	0.14420 0.97590 0.40960 0.01200
H 	H 	0.14460 0.11390 0.27610 0.01000
H 	H 	0.94280 0.11500 0.27910 0.07000
H 	H 	0.35260 0.88620 0.50540 0.04900
H 	H 	0.36110 0.84490 0.26860 0.03500
H 	H 	0.35580 0.75300 0.30160 0.07000
H 	H 	0.34450 0.81540 0.60910 0.05600
H 	H 	0.34200 0.72410 0.64460 0.04900
H 	H 	0.34730 0.68230 0.40690 0.06600
H 	H 	0.56270 0.01360 0.06920 0.02100
H 	H 	0.76500 0.01410 0.06830 0.08300
H 	H 	0.76630 0.89940 0.24520 0.07100
H 	H 	0.56510 0.89920 0.24610 0.01000
H 	H 	0.94280 0.02390 0.08890 0.07400
H 	H 	0.14420 0.02410 0.09040 0.01300
H 	H 	0.14460 0.88610 0.22390 0.01000
H 	H 	0.94280 0.88500 0.22090 0.07000
H 	H 	0.35260 0.11380 0.99460 0.04900
H 	H 	0.36110 0.15510 0.23140 0.03500
H 	H 	0.35580 0.24700 0.19840 0.07000
H 	H 	0.34450 0.18460 0.89090 0.05600
H 	H 	0.34200 0.27590 0.85540 0.04900
H 	H 	0.34730 0.31770 0.09310 0.06600
H 	H 	0.56270 0.48640 0.56920 0.02100
H 	H 	0.76500 0.48590 0.56830 0.08300
H 	H 	0.76630 0.60060 0.74520 0.07100
H 	H 	0.56510 0.60080 0.74610 0.01000
H 	H 	0.94280 0.47610 0.58890 0.07300
H 	H 	0.14420 0.47590 0.59040 0.01200
H 	H 	0.14460 0.61390 0.72390 0.01000
H 	H 	0.94280 0.61500 0.72090 0.07000
H 	H 	0.35260 0.38620 0.49460 0.04900
H 	H 	0.36110 0.34490 0.73140 0.03500
H 	H 	0.35580 0.25300 0.69840 0.07000
H 	H 	0.34450 0.31540 0.39090 0.05600
H 	H 	0.34200 0.22410 0.35540 0.04900
H 	H 	0.34730 0.18230 0.59310 0.06600
H 	H 	0.56270 0.51360 0.93080 0.02100
H 	H 	0.76500 0.51410 0.93170 0.08300
H 	H 	0.76630 0.39940 0.75480 0.07100
H 	H 	0.56510 0.39920 0.75390 0.01000
H 	H 	0.94280 0.52390 0.91110 0.07300
H 	H 	0.14420 0.52410 0.90960 0.01200
H 	H 	0.14460 0.38610 0.77610 0.01000
H 	H 	0.94280 0.38500 0.77910 0.07000
H 	H 	0.35260 0.61380 0.00540 0.04900
H 	H 	0.36110 0.65510 0.76860 0.03500
H 	H 	0.35580 0.74700 0.80160 0.07000
H 	H 	0.34450 0.68460 0.10910 0.05600
H 	H 	0.34200 0.77590 0.14460 0.04800
H 	H 	0.34730 0.81770 0.90690 0.06500
C 	C 	0.60380 0.00920 0.39540 0.05500
C 	C 	0.72510 0.00880 0.39590 -0.11200
C 	C 	0.78650 0.04290 0.34280 0.05000
C 	C 	0.72560 0.07760 0.28990 -0.11600
C 	C 	0.60510 0.07780 0.28940 0.05500
C 	C 	0.92180 0.04560 0.34460 0.05000
C 	C 	0.98300 0.00380 0.38420 -0.11500
C 	C 	0.10370 0.00380 0.38340 0.05200
C 	C 	0.10420 0.08650 0.30380 0.05600
C 	C 	0.98310 0.08690 0.30500 -0.11500
C 	C 	0.35620 0.93180 0.35250 0.39700
C 	C 	0.35310 0.85950 0.46480 -0.01100
C 	C 	0.35710 0.87440 0.38280 -0.11600
C 	C 	0.35820 0.83450 0.32340 0.03200
C 	C 	0.35500 0.77940 0.34260 -0.11300
C 	C 	0.35070 0.76480 0.42450 0.05300
C 	C 	0.34980 0.80460 0.48620 0.00500
C 	C 	0.34580 0.78880 0.56830 -0.06600
C 	C 	0.34370 0.73420 0.58950 -0.01200
C 	C 	0.34410 0.69400 0.52890 -0.04300
C 	C 	0.34730 0.70910 0.44730 -0.06800
C 	C 	0.34710 0.63200 0.55220 0.32800
C 	C 	0.60380 0.99080 0.10460 0.05400
C 	C 	0.72510 0.99120 0.10410 -0.11200
C 	C 	0.78650 0.95710 0.15720 0.05000
C 	C 	0.72560 0.92240 0.21010 -0.11600
C 	C 	0.60510 0.92220 0.21060 0.05500
C 	C 	0.92180 0.95440 0.15540 0.05000
C 	C 	0.98300 0.99620 0.11580 -0.11600
C 	C 	0.10370 0.99620 0.11660 0.05100
C 	C 	0.10420 0.91350 0.19620 0.05600
C 	C 	0.98310 0.91310 0.19500 -0.11500
C 	C 	0.35620 0.06820 0.14750 0.39700
C 	C 	0.35310 0.14050 0.03520 -0.01100
C 	C 	0.35710 0.12560 0.11720 -0.11600
C 	C 	0.35820 0.16550 0.17660 0.03200
C 	C 	0.35500 0.22060 0.15740 -0.11300
C 	C 	0.35070 0.23520 0.07550 0.05300
C 	C 	0.34980 0.19540 0.01380 0.00500
C 	C 	0.34580 0.21120 0.93170 -0.06600
C 	C 	0.34370 0.26580 0.91050 -0.01200
C 	C 	0.34410 0.30600 0.97110 -0.04300
C 	C 	0.34730 0.29090 0.05270 -0.06800
C 	C 	0.34710 0.36800 0.94780 0.32800
C 	C 	0.60380 0.50920 0.60460 0.05500
C 	C 	0.72510 0.50880 0.60410 -0.11200
C 	C 	0.78650 0.54290 0.65720 0.05000
C 	C 	0.72560 0.57760 0.71010 -0.11600
C 	C 	0.60510 0.57780 0.71060 0.05500
C 	C 	0.92180 0.54560 0.65540 0.05000
C 	C 	0.98300 0.50380 0.61580 -0.11500
C 	C 	0.10370 0.50380 0.61660 0.05100
C 	C 	0.10420 0.58650 0.69620 0.05600
C 	C 	0.98310 0.58690 0.69500 -0.11500
C 	C 	0.35620 0.43180 0.64750 0.39700
C 	C 	0.35310 0.35950 0.53520 -0.01100
C 	C 	0.35710 0.37440 0.61720 -0.11600
C 	C 	0.35820 0.33450 0.67660 0.03200
C 	C 	0.35500 0.27940 0.65740 -0.11300
C 	C 	0.35070 0.26480 0.57550 0.05300
C 	C 	0.34980 0.30460 0.51380 0.00500
C 	C 	0.34580 0.28880 0.43170 -0.06600
C 	C 	0.34370 0.23420 0.41050 -0.01200
C 	C 	0.34410 0.19400 0.47110 -0.04300
C 	C 	0.34730 0.20910 0.55270 -0.06800
C 	C 	0.34710 0.13200 0.44780 0.32800
C 	C 	0.60380 0.49080 0.89540 0.05500
C 	C 	0.72510 0.49120 0.89590 -0.11200
C 	C 	0.78650 0.45710 0.84280 0.05000
C 	C 	0.72560 0.42240 0.78990 -0.11600
C 	C 	0.60510 0.42220 0.78940 0.05500
C 	C 	0.92180 0.45440 0.84460 0.05000
C 	C 	0.98300 0.49620 0.88420 -0.11500
C 	C 	0.10370 0.49620 0.88340 0.05100
C 	C 	0.10420 0.41350 0.80380 0.05600
C 	C 	0.98310 0.41310 0.80500 -0.11500
C 	C 	0.35620 0.56820 0.85250 0.39700
C 	C 	0.35310 0.64050 0.96480 -0.01100
C 	C 	0.35710 0.62560 0.88280 -0.11600
C 	C 	0.35820 0.66550 0.82340 0.03200
C 	C 	0.35500 0.72060 0.84260 -0.11300
C 	C 	0.35070 0.73520 0.92450 0.05300
C 	C 	0.34980 0.69540 0.98620 0.00500
C 	C 	0.34580 0.71120 0.06830 -0.06600
C 	C 	0.34370 0.76580 0.08950 -0.01200
C 	C 	0.34410 0.80600 0.02890 -0.04300
C 	C 	0.34730 0.79090 0.94730 -0.06800
C 	C 	0.34710 0.86800 0.05220 0.32800
N 	N 	0.54390 0.04344 0.34210 -0.21500
N 	N 	0.16480 0.04515 0.34390 -0.21100
N 	N 	0.54390 0.95656 0.15790 -0.21500
N 	N 	0.16480 0.95485 0.15610 -0.21100
N 	N 	0.54390 0.54344 0.65790 -0.21500
N 	N 	0.16480 0.54515 0.65610 -0.21100
N 	N 	0.54390 0.45656 0.84210 -0.21500
N 	N 	0.16480 0.45485 0.84390 -0.21100
O 	O 	0.35590 0.97050 0.40170 -0.44400
O 	O 	0.35580 0.94002 0.27599 -0.48500
O 	O 	0.32910 0.59524 0.50790 -0.34200
O 	O 	0.35800 0.62880 0.63000 -0.40500
O 	O 	0.35590 0.02950 0.09830 -0.44400
O 	O 	0.35580 0.05998 0.22401 -0.48500
O 	O 	0.32910 0.40476 0.99210 -0.34200
O 	O 	0.35800 0.37120 0.87000 -0.40500
O 	O 	0.35590 0.47050 0.59830 -0.44400
O 	O 	0.35580 0.44002 0.72401 -0.48500
O 	O 	0.32910 0.09524 0.49210 -0.34200
O 	O 	0.35800 0.12880 0.37000 -0.40500
O 	O 	0.35590 0.52950 0.90170 -0.44400
O 	O 	0.35580 0.55998 0.77599 -0.48500
O 	O 	0.32910 0.90476 0.00790 -0.34200
O 	O 	0.35800 0.87120 0.13000 -0.40500
