data_crystal

_cell_length_a 25.85600
_cell_length_b 25.85600
_cell_length_c 25.85600
_cell_angle_alpha 90.00000
_cell_angle_beta  90.00000
_cell_angle_gamma 90.00000

_symmetry_space_group_name_	'P 1'
_symmetry_space_group_name_H-M	'P 1'

loop_
_symmetry_equiv_pos_as_xyz
  x,y,z

loop_
_atom_site_label
_atom_site_type_symbol
_atom_site_fract_x
_atom_site_fract_y
_atom_site_fract_z
_atom_site_charge
Zn	Zn	0.29460 0.29460 0.20540 1.21500
Zn	Zn	0.70540 0.70540 0.20540 1.21500
Zn	Zn	0.20540 0.20540 0.20540 1.21500
Zn	Zn	0.70540 0.29460 0.79460 1.21500
Zn	Zn	0.20540 0.29460 0.29460 1.21500
Zn	Zn	0.29460 0.70540 0.79460 1.21500
Zn	Zn	0.29460 0.20540 0.29460 1.21500
Zn	Zn	0.20540 0.79460 0.79460 1.21500
Zn	Zn	0.20540 0.70540 0.70540 1.21500
Zn	Zn	0.79460 0.70540 0.29460 1.21500
Zn	Zn	0.79460 0.20540 0.79460 1.21500
Zn	Zn	0.79460 0.29460 0.70540 1.21500
Zn	Zn	0.79460 0.79460 0.20540 1.21500
Zn	Zn	0.70540 0.20540 0.70540 1.21500
Zn	Zn	0.29460 0.79460 0.70540 1.21500
Zn	Zn	0.70540 0.79460 0.29460 1.21500
Zn	Zn	0.29460 0.29460 0.79460 1.21500
Zn	Zn	0.70540 0.70540 0.79460 1.21500
Zn	Zn	0.70540 0.20540 0.29460 1.21500
Zn	Zn	0.20540 0.70540 0.29460 1.21500
Zn	Zn	0.29460 0.70540 0.20540 1.21500
Zn	Zn	0.70540 0.29460 0.20540 1.21500
Zn	Zn	0.20540 0.79460 0.20540 1.21500
Zn	Zn	0.29460 0.20540 0.70540 1.21500
Zn	Zn	0.20540 0.20540 0.79460 1.21600
Zn	Zn	0.70540 0.79460 0.70540 1.21600
Zn	Zn	0.20540 0.29460 0.70540 1.21600
Zn	Zn	0.29460 0.79460 0.29460 1.21600
Zn	Zn	0.79460 0.29460 0.29460 1.21600
Zn	Zn	0.79460 0.79460 0.79460 1.21600
Zn	Zn	0.79460 0.70540 0.70540 1.21600
Zn	Zn	0.79460 0.20540 0.20540 1.21600
O 	O 	0.25000 0.25000 0.25000 -0.90700
O 	O 	0.75000 0.75000 0.25000 -0.90700
O 	O 	0.75000 0.25000 0.75000 -0.90700
O 	O 	0.25000 0.75000 0.75000 -0.90700
O 	O 	0.25000 0.25000 0.75000 -0.90700
O 	O 	0.75000 0.75000 0.75000 -0.90700
O 	O 	0.75000 0.25000 0.25000 -0.90700
O 	O 	0.25000 0.75000 0.25000 -0.90700
O 	O 	0.28060 0.36610 0.21940 -0.51200
C 	C 	0.28290 0.47330 0.21710 -0.00200
H 	H 	0.30690 0.45250 0.19310 0.04200
O 	O 	0.28060 0.86610 0.71940 -0.51200
C 	C 	0.28290 0.97330 0.71710 -0.00300
H 	H 	0.30690 0.95250 0.69310 0.04200
O 	O 	0.71940 0.63390 0.21940 -0.51200
C 	C 	0.71710 0.52670 0.21710 -0.00200
H 	H 	0.69310 0.54750 0.19310 0.04200
O 	O 	0.71940 0.13390 0.71940 -0.51200
C 	C 	0.71710 0.02670 0.71710 -0.00300
H 	H 	0.69310 0.04750 0.69310 0.04200
O 	O 	0.21940 0.13390 0.21940 -0.51200
C 	C 	0.21710 0.02670 0.21710 -0.00300
H 	H 	0.19310 0.04750 0.19310 0.04200
O 	O 	0.71940 0.36610 0.78060 -0.51200
C 	C 	0.71710 0.47330 0.78290 -0.00200
H 	H 	0.69310 0.45250 0.80690 0.04200
O 	O 	0.71940 0.86610 0.28060 -0.51200
C 	C 	0.71710 0.97330 0.28290 -0.00300
H 	H 	0.69310 0.95250 0.30690 0.04200
O 	O 	0.21940 0.36610 0.28060 -0.51200
C 	C 	0.21710 0.47330 0.28290 -0.00200
H 	H 	0.19310 0.45250 0.30690 0.04200
O 	O 	0.28060 0.63390 0.78060 -0.51200
C 	C 	0.28290 0.52670 0.78290 -0.00200
H 	H 	0.30690 0.54750 0.80690 0.04200
O 	O 	0.28060 0.13390 0.28060 -0.51200
C 	C 	0.28290 0.02670 0.28290 -0.00300
H 	H 	0.30690 0.04750 0.30690 0.04200
O 	O 	0.21940 0.28060 0.36610 -0.51200
C 	C 	0.21710 0.28290 0.47330 -0.00200
H 	H 	0.19310 0.30690 0.45250 0.04200
O 	O 	0.21940 0.78060 0.86610 -0.51200
C 	C 	0.21710 0.78290 0.97330 -0.00300
H 	H 	0.19310 0.80690 0.95250 0.04200
O 	O 	0.21940 0.71940 0.63390 -0.51200
C 	C 	0.21710 0.71710 0.52670 -0.00200
H 	H 	0.19310 0.69310 0.54750 0.04200
O 	O 	0.21940 0.21940 0.13390 -0.51200
C 	C 	0.21710 0.21710 0.02670 -0.00300
H 	H 	0.19310 0.19310 0.04750 0.04200
O 	O 	0.78060 0.71940 0.36610 -0.51200
C 	C 	0.78290 0.71710 0.47330 -0.00200
H 	H 	0.80690 0.69310 0.45250 0.04200
O 	O 	0.78060 0.21940 0.86610 -0.51200
C 	C 	0.78290 0.21710 0.97330 -0.00300
H 	H 	0.80690 0.19310 0.95250 0.04200
O 	O 	0.28060 0.21940 0.36610 -0.51200
C 	C 	0.28290 0.21710 0.47330 -0.00200
H 	H 	0.30690 0.19310 0.45250 0.04200
O 	O 	0.78060 0.28060 0.63390 -0.51200
C 	C 	0.78290 0.28290 0.52670 -0.00200
H 	H 	0.80690 0.30690 0.54750 0.04200
O 	O 	0.78060 0.78060 0.13390 -0.51200
C 	C 	0.78290 0.78290 0.02670 -0.00300
H 	H 	0.80690 0.80690 0.04750 0.04200
O 	O 	0.28060 0.28060 0.13390 -0.51200
C 	C 	0.28290 0.28290 0.02670 -0.00300
H 	H 	0.30690 0.30690 0.04750 0.04200
O 	O 	0.36610 0.21940 0.28060 -0.51200
C 	C 	0.47330 0.21710 0.28290 -0.00200
H 	H 	0.45250 0.19310 0.30690 0.04200
O 	O 	0.86610 0.21940 0.78060 -0.51200
C 	C 	0.97330 0.21710 0.78290 -0.00300
H 	H 	0.95250 0.19310 0.80690 0.04200
O 	O 	0.63390 0.21940 0.71940 -0.51200
C 	C 	0.52670 0.21710 0.71710 -0.00200
H 	H 	0.54750 0.19310 0.69310 0.04200
O 	O 	0.13390 0.21940 0.21940 -0.51200
C 	C 	0.02670 0.21710 0.21710 -0.00300
H 	H 	0.04750 0.19310 0.19310 0.04200
O 	O 	0.36610 0.78060 0.71940 -0.51200
C 	C 	0.47330 0.78290 0.71710 -0.00200
H 	H 	0.45250 0.80690 0.69310 0.04200
O 	O 	0.36610 0.28060 0.21940 -0.51200
C 	C 	0.47330 0.28290 0.21710 -0.00200
H 	H 	0.45250 0.30690 0.19310 0.04200
O 	O 	0.86610 0.78060 0.21940 -0.51200
C 	C 	0.97330 0.78290 0.21710 -0.00300
H 	H 	0.95250 0.80690 0.19310 0.04200
O 	O 	0.63390 0.78060 0.28060 -0.51200
C 	C 	0.52670 0.78290 0.28290 -0.00200
H 	H 	0.54750 0.80690 0.30690 0.04200
O 	O 	0.13390 0.78060 0.78060 -0.51200
C 	C 	0.02670 0.78290 0.78290 -0.00300
H 	H 	0.04750 0.80690 0.80690 0.04200
O 	O 	0.13390 0.28060 0.28060 -0.51200
C 	C 	0.02670 0.28290 0.28290 -0.00300
H 	H 	0.04750 0.30690 0.30690 0.04200
O 	O 	0.36610 0.28060 0.78060 -0.51200
C 	C 	0.47330 0.28290 0.78290 -0.00200
H 	H 	0.45250 0.30690 0.80690 0.04200
O 	O 	0.86610 0.28060 0.28060 -0.51200
C 	C 	0.97330 0.28290 0.28290 -0.00300
H 	H 	0.95250 0.30690 0.30690 0.04200
O 	O 	0.63390 0.71940 0.78060 -0.51200
C 	C 	0.52670 0.71710 0.78290 -0.00200
H 	H 	0.54750 0.69310 0.80690 0.04200
O 	O 	0.63390 0.21940 0.28060 -0.51200
C 	C 	0.52670 0.21710 0.28290 -0.00200
H 	H 	0.54750 0.19310 0.30690 0.04200
O 	O 	0.13390 0.71940 0.28060 -0.51200
C 	C 	0.02670 0.71710 0.28290 -0.00300
H 	H 	0.04750 0.69310 0.30690 0.04200
O 	O 	0.36610 0.71940 0.21940 -0.51200
C 	C 	0.47330 0.71710 0.21710 -0.00200
H 	H 	0.45250 0.69310 0.19310 0.04200
O 	O 	0.86610 0.71940 0.71940 -0.51200
C 	C 	0.97330 0.71710 0.71710 -0.00300
H 	H 	0.95250 0.69310 0.69310 0.04200
O 	O 	0.86610 0.21940 0.21940 -0.51200
C 	C 	0.97330 0.21710 0.21710 -0.00300
H 	H 	0.95250 0.19310 0.19310 0.04200
O 	O 	0.63390 0.28060 0.21940 -0.51200
C 	C 	0.52670 0.28290 0.21710 -0.00200
H 	H 	0.54750 0.30690 0.19310 0.04200
O 	O 	0.13390 0.28060 0.71940 -0.51200
C 	C 	0.02670 0.28290 0.71710 -0.00300
H 	H 	0.04750 0.30690 0.69310 0.04200
O 	O 	0.28060 0.21940 0.63390 -0.51200
C 	C 	0.28290 0.21710 0.52670 -0.00200
H 	H 	0.30690 0.19310 0.54750 0.04200
O 	O 	0.28060 0.71940 0.13390 -0.51200
C 	C 	0.28290 0.71710 0.02670 -0.00300
H 	H 	0.30690 0.69310 0.04750 0.04200
O 	O 	0.71940 0.21940 0.36610 -0.51200
C 	C 	0.71710 0.21710 0.47330 -0.00200
H 	H 	0.69310 0.19310 0.45250 0.04200
O 	O 	0.71940 0.71940 0.86610 -0.51200
C 	C 	0.71710 0.71710 0.97330 -0.00300
H 	H 	0.69310 0.69310 0.95250 0.04200
O 	O 	0.21940 0.21940 0.86610 -0.51200
C 	C 	0.21710 0.21710 0.97330 -0.00300
H 	H 	0.19310 0.19310 0.95250 0.04200
O 	O 	0.71940 0.78060 0.63390 -0.51200
C 	C 	0.71710 0.78290 0.52670 -0.00200
H 	H 	0.69310 0.80690 0.54750 0.04200
O 	O 	0.71940 0.28060 0.13390 -0.51200
C 	C 	0.71710 0.28290 0.02670 -0.00300
H 	H 	0.69310 0.30690 0.04750 0.04200
O 	O 	0.21940 0.28060 0.63390 -0.51200
C 	C 	0.21710 0.28290 0.52670 -0.00200
H 	H 	0.19310 0.30690 0.54750 0.04200
O 	O 	0.28060 0.78060 0.36610 -0.51200
C 	C 	0.28290 0.78290 0.47330 -0.00200
H 	H 	0.30690 0.80690 0.45250 0.04200
O 	O 	0.28060 0.28060 0.86610 -0.51200
C 	C 	0.28290 0.28290 0.97330 -0.00300
H 	H 	0.30690 0.30690 0.95250 0.04200
O 	O 	0.21940 0.36610 0.71940 -0.51200
C 	C 	0.21710 0.47330 0.71710 -0.00200
H 	H 	0.19310 0.45250 0.69310 0.04200
O 	O 	0.21940 0.86610 0.21940 -0.51200
C 	C 	0.21710 0.97330 0.21710 -0.00300
H 	H 	0.19310 0.95250 0.19310 0.04200
O 	O 	0.21940 0.63390 0.28060 -0.51200
C 	C 	0.21710 0.52670 0.28290 -0.00200
H 	H 	0.19310 0.54750 0.30690 0.04200
O 	O 	0.21940 0.13390 0.78060 -0.51200
C 	C 	0.21710 0.02670 0.78290 -0.00300
H 	H 	0.19310 0.04750 0.80690 0.04200
O 	O 	0.78060 0.36610 0.28060 -0.51200
C 	C 	0.78290 0.47330 0.28290 -0.00200
H 	H 	0.80690 0.45250 0.30690 0.04200
O 	O 	0.78060 0.86610 0.78060 -0.51200
C 	C 	0.78290 0.97330 0.78290 -0.00300
H 	H 	0.80690 0.95250 0.80690 0.04200
O 	O 	0.28060 0.86610 0.28060 -0.51200
C 	C 	0.28290 0.97330 0.28290 -0.00300
H 	H 	0.30690 0.95250 0.30690 0.04200
O 	O 	0.78060 0.63390 0.71940 -0.51200
C 	C 	0.78290 0.52670 0.71710 -0.00200
H 	H 	0.80690 0.54750 0.69310 0.04200
O 	O 	0.78060 0.13390 0.21940 -0.51200
C 	C 	0.78290 0.02670 0.21710 -0.00300
H 	H 	0.80690 0.04750 0.19310 0.04200
O 	O 	0.28060 0.63390 0.21940 -0.51200
C 	C 	0.28290 0.52670 0.21710 -0.00200
H 	H 	0.30690 0.54750 0.19310 0.04200
O 	O 	0.71940 0.63390 0.78060 -0.51200
C 	C 	0.71710 0.52670 0.78290 -0.00200
H 	H 	0.69310 0.54750 0.80690 0.04200
O 	O 	0.71940 0.13390 0.28060 -0.51200
C 	C 	0.71710 0.02670 0.28290 -0.00300
H 	H 	0.69310 0.04750 0.30690 0.04200
O 	O 	0.28060 0.36610 0.78060 -0.51200
C 	C 	0.28290 0.47330 0.78290 -0.00200
H 	H 	0.30690 0.45250 0.80690 0.04200
O 	O 	0.28060 0.13390 0.71940 -0.51200
C 	C 	0.28290 0.02670 0.71710 -0.00300
H 	H 	0.30690 0.04750 0.69310 0.04200
O 	O 	0.71940 0.36610 0.21940 -0.51200
C 	C 	0.71710 0.47330 0.21710 -0.00200
H 	H 	0.69310 0.45250 0.19310 0.04200
O 	O 	0.71940 0.86610 0.71940 -0.51200
C 	C 	0.71710 0.97330 0.71710 -0.00300
H 	H 	0.69310 0.95250 0.69310 0.04200
O 	O 	0.78060 0.71940 0.63390 -0.51200
C 	C 	0.78290 0.71710 0.52670 -0.00200
H 	H 	0.80690 0.69310 0.54750 0.04200
O 	O 	0.78060 0.21940 0.13390 -0.51200
C 	C 	0.78290 0.21710 0.02670 -0.00300
H 	H 	0.80690 0.19310 0.04750 0.04200
O 	O 	0.78060 0.28060 0.36610 -0.51200
C 	C 	0.78290 0.28290 0.47330 -0.00200
H 	H 	0.80690 0.30690 0.45250 0.04200
O 	O 	0.78060 0.78060 0.86610 -0.51200
C 	C 	0.78290 0.78290 0.97330 -0.00300
H 	H 	0.80690 0.80690 0.95250 0.04200
O 	O 	0.21940 0.78060 0.13390 -0.51200
C 	C 	0.21710 0.78290 0.02670 -0.00300
H 	H 	0.19310 0.80690 0.04750 0.04200
O 	O 	0.21940 0.71940 0.36610 -0.51200
C 	C 	0.21710 0.71710 0.47330 -0.00200
H 	H 	0.19310 0.69310 0.45250 0.04200
O 	O 	0.63390 0.78060 0.71940 -0.51200
C 	C 	0.52670 0.78290 0.71710 -0.00200
H 	H 	0.54750 0.80690 0.69310 0.04200
O 	O 	0.13390 0.78060 0.21940 -0.51200
C 	C 	0.02670 0.78290 0.21710 -0.00300
H 	H 	0.04750 0.80690 0.19310 0.04200
O 	O 	0.36610 0.78060 0.28060 -0.51200
C 	C 	0.47330 0.78290 0.28290 -0.00200
H 	H 	0.45250 0.80690 0.30690 0.04200
O 	O 	0.86610 0.78060 0.78060 -0.51200
C 	C 	0.97330 0.78290 0.78290 -0.00300
H 	H 	0.95250 0.80690 0.80690 0.04200
O 	O 	0.13390 0.21940 0.78060 -0.51200
C 	C 	0.02670 0.21710 0.78290 -0.00300
H 	H 	0.04750 0.19310 0.80690 0.04200
O 	O 	0.36610 0.21940 0.71940 -0.51200
C 	C 	0.47330 0.21710 0.71710 -0.00200
H 	H 	0.45250 0.19310 0.69310 0.04200
O 	O 	0.63390 0.71940 0.21940 -0.51200
C 	C 	0.52670 0.71710 0.21710 -0.00200
H 	H 	0.54750 0.69310 0.19310 0.04200
O 	O 	0.13390 0.71940 0.71940 -0.51200
C 	C 	0.02670 0.71710 0.71710 -0.00300
H 	H 	0.04750 0.69310 0.69310 0.04200
O 	O 	0.86610 0.28060 0.71940 -0.51200
C 	C 	0.97330 0.28290 0.71710 -0.00300
H 	H 	0.95250 0.30690 0.69310 0.04200
O 	O 	0.63390 0.28060 0.78060 -0.51200
C 	C 	0.52670 0.28290 0.78290 -0.00200
H 	H 	0.54750 0.30690 0.80690 0.04200
O 	O 	0.36610 0.71940 0.78060 -0.51200
C 	C 	0.47330 0.71710 0.78290 -0.00200
H 	H 	0.45250 0.69310 0.80690 0.04200
O 	O 	0.86610 0.71940 0.28060 -0.51200
C 	C 	0.97330 0.71710 0.28290 -0.00300
H 	H 	0.95250 0.69310 0.30690 0.04200
O 	O 	0.71940 0.78060 0.36610 -0.51200
C 	C 	0.71710 0.78290 0.47330 -0.00200
H 	H 	0.69310 0.80690 0.45250 0.04200
O 	O 	0.71940 0.28060 0.86610 -0.51200
C 	C 	0.71710 0.28290 0.97330 -0.00300
H 	H 	0.69310 0.30690 0.95250 0.04200
O 	O 	0.28060 0.78060 0.63390 -0.51200
C 	C 	0.28290 0.78290 0.52670 -0.00200
H 	H 	0.30690 0.80690 0.54750 0.04200
O 	O 	0.28060 0.71940 0.86610 -0.51200
C 	C 	0.28290 0.71710 0.97330 -0.00300
H 	H 	0.30690 0.69310 0.95250 0.04200
O 	O 	0.71940 0.21940 0.63390 -0.51200
C 	C 	0.71710 0.21710 0.52670 -0.00200
H 	H 	0.69310 0.19310 0.54750 0.04200
O 	O 	0.71940 0.71940 0.13390 -0.51200
C 	C 	0.71710 0.71710 0.02670 -0.00300
H 	H 	0.69310 0.69310 0.04750 0.04200
O 	O 	0.78060 0.63390 0.28060 -0.51200
C 	C 	0.78290 0.52670 0.28290 -0.00200
H 	H 	0.80690 0.54750 0.30690 0.04200
O 	O 	0.78060 0.13390 0.78060 -0.51200
C 	C 	0.78290 0.02670 0.78290 -0.00300
H 	H 	0.80690 0.04750 0.80690 0.04200
O 	O 	0.78060 0.36610 0.71940 -0.51200
C 	C 	0.78290 0.47330 0.71710 -0.00200
H 	H 	0.80690 0.45250 0.69310 0.04200
O 	O 	0.78060 0.86610 0.21940 -0.51200
C 	C 	0.78290 0.97330 0.21710 -0.00300
H 	H 	0.80690 0.95250 0.19310 0.04200
O 	O 	0.21940 0.63390 0.71940 -0.51200
C 	C 	0.21710 0.52670 0.71710 -0.00200
H 	H 	0.19310 0.54750 0.69310 0.04200
O 	O 	0.21940 0.86610 0.78060 -0.51200
C 	C 	0.21710 0.97330 0.78290 -0.00300
H 	H 	0.19310 0.95250 0.80690 0.04200
C 	C 	0.25000 0.38940 0.25000 0.39900
C 	C 	0.25000 0.44490 0.25000 -0.11300
C 	C 	0.25000 0.88940 0.75000 0.39900
C 	C 	0.25000 0.94490 0.75000 -0.11300
C 	C 	0.75000 0.61060 0.25000 0.39900
C 	C 	0.75000 0.55510 0.25000 -0.11300
C 	C 	0.75000 0.11060 0.75000 0.39900
C 	C 	0.75000 0.05510 0.75000 -0.11300
C 	C 	0.25000 0.11060 0.25000 0.39900
C 	C 	0.25000 0.05510 0.25000 -0.11300
C 	C 	0.75000 0.38940 0.75000 0.39900
C 	C 	0.75000 0.44490 0.75000 -0.11300
C 	C 	0.75000 0.88940 0.25000 0.39900
C 	C 	0.75000 0.94490 0.25000 -0.11300
C 	C 	0.25000 0.61060 0.75000 0.39900
C 	C 	0.25000 0.55510 0.75000 -0.11300
C 	C 	0.25000 0.25000 0.38940 0.39900
C 	C 	0.25000 0.25000 0.44490 -0.11300
C 	C 	0.25000 0.75000 0.88940 0.39900
C 	C 	0.25000 0.75000 0.94490 -0.11300
C 	C 	0.25000 0.75000 0.61060 0.39900
C 	C 	0.25000 0.75000 0.55510 -0.11300
C 	C 	0.25000 0.25000 0.11060 0.39900
C 	C 	0.25000 0.25000 0.05510 -0.11300
C 	C 	0.75000 0.75000 0.38940 0.39900
C 	C 	0.75000 0.75000 0.44490 -0.11300
C 	C 	0.75000 0.25000 0.88940 0.39900
C 	C 	0.75000 0.25000 0.94490 -0.11300
C 	C 	0.75000 0.25000 0.61060 0.39900
C 	C 	0.75000 0.25000 0.55510 -0.11300
C 	C 	0.75000 0.75000 0.11060 0.39900
C 	C 	0.75000 0.75000 0.05510 -0.11300
C 	C 	0.38940 0.25000 0.25000 0.39900
C 	C 	0.44490 0.25000 0.25000 -0.11300
C 	C 	0.88940 0.25000 0.75000 0.39900
C 	C 	0.94490 0.25000 0.75000 -0.11300
C 	C 	0.61060 0.25000 0.75000 0.39900
C 	C 	0.55510 0.25000 0.75000 -0.11300
C 	C 	0.11060 0.25000 0.25000 0.39900
C 	C 	0.05510 0.25000 0.25000 -0.11300
C 	C 	0.38940 0.75000 0.75000 0.39900
C 	C 	0.44490 0.75000 0.75000 -0.11300
C 	C 	0.88940 0.75000 0.25000 0.39900
C 	C 	0.94490 0.75000 0.25000 -0.11300
C 	C 	0.61060 0.75000 0.25000 0.39900
C 	C 	0.55510 0.75000 0.25000 -0.11300
C 	C 	0.11060 0.75000 0.75000 0.39900
C 	C 	0.05510 0.75000 0.75000 -0.11300
C 	C 	0.38940 0.25000 0.75000 0.39900
C 	C 	0.44490 0.25000 0.75000 -0.11300
C 	C 	0.88940 0.25000 0.25000 0.39900
C 	C 	0.94490 0.25000 0.25000 -0.11300
C 	C 	0.61060 0.75000 0.75000 0.39900
C 	C 	0.55510 0.75000 0.75000 -0.11300
C 	C 	0.61060 0.25000 0.25000 0.39900
C 	C 	0.55510 0.25000 0.25000 -0.11300
C 	C 	0.11060 0.75000 0.25000 0.39900
C 	C 	0.05510 0.75000 0.25000 -0.11300
C 	C 	0.38940 0.75000 0.25000 0.39900
C 	C 	0.44490 0.75000 0.25000 -0.11300
C 	C 	0.88940 0.75000 0.75000 0.39900
C 	C 	0.94490 0.75000 0.75000 -0.11300
C 	C 	0.11060 0.25000 0.75000 0.39900
C 	C 	0.05510 0.25000 0.75000 -0.11300
C 	C 	0.25000 0.25000 0.61060 0.39900
C 	C 	0.25000 0.25000 0.55510 -0.11300
C 	C 	0.25000 0.75000 0.11060 0.39900
C 	C 	0.25000 0.75000 0.05510 -0.11300
C 	C 	0.75000 0.25000 0.38940 0.39900
C 	C 	0.75000 0.25000 0.44490 -0.11300
C 	C 	0.75000 0.75000 0.88940 0.39900
C 	C 	0.75000 0.75000 0.94490 -0.11300
C 	C 	0.25000 0.25000 0.88940 0.39900
C 	C 	0.25000 0.25000 0.94490 -0.11300
C 	C 	0.75000 0.75000 0.61060 0.39900
C 	C 	0.75000 0.75000 0.55510 -0.11300
C 	C 	0.75000 0.25000 0.11060 0.39900
C 	C 	0.75000 0.25000 0.05510 -0.11300
C 	C 	0.25000 0.75000 0.38940 0.39900
C 	C 	0.25000 0.75000 0.44490 -0.11300
C 	C 	0.25000 0.38940 0.75000 0.39900
C 	C 	0.25000 0.44490 0.75000 -0.11300
C 	C 	0.25000 0.88940 0.25000 0.39900
C 	C 	0.25000 0.94490 0.25000 -0.11300
C 	C 	0.25000 0.61060 0.25000 0.39900
C 	C 	0.25000 0.55510 0.25000 -0.11300
C 	C 	0.25000 0.11060 0.75000 0.39900
C 	C 	0.25000 0.05510 0.75000 -0.11300
C 	C 	0.75000 0.38940 0.25000 0.39900
C 	C 	0.75000 0.44490 0.25000 -0.11300
C 	C 	0.75000 0.88940 0.75000 0.39900
C 	C 	0.75000 0.94490 0.75000 -0.11300
C 	C 	0.75000 0.61060 0.75000 0.39900
C 	C 	0.75000 0.55510 0.75000 -0.11300
C 	C 	0.75000 0.11060 0.25000 0.39900
C 	C 	0.75000 0.05510 0.25000 -0.11300
