data_crystal

_cell_length_a 20.63620
_cell_length_b 20.63620
_cell_length_c 20.63620
_cell_angle_alpha 120.00000
_cell_angle_beta  120.00000
_cell_angle_gamma 60.00000

_symmetry_space_group_name_	'P 1'
_symmetry_space_group_name_H-M	'P 1'

loop_
_symmetry_equiv_pos_as_xyz
  x,y,z

loop_
_atom_site_label
_atom_site_type_symbol
_atom_site_fract_x
_atom_site_fract_y
_atom_site_fract_z
_atom_site_charge
Zn	Zn	0.21161 0.21160 0.78839 1.20900
Zn	Zn	0.21161 0.36517 0.78839 1.20900
Zn	Zn	0.21161 0.21160 0.63482 1.20900
Zn	Zn	0.36518 0.21160 0.78839 1.20900
H 	H 	0.53740 0.34860 0.94300 0.04500
H 	H 	0.05700 0.05700 0.65140 0.04700
H 	H 	0.34860 0.05700 0.46260 0.04700
H 	H 	0.05700 0.53740 0.94300 0.04800
H 	H 	0.53740 0.05700 0.94300 0.04800
H 	H 	0.05700 0.53740 0.65140 0.04600
S 	S 	0.04740 0.04740 0.49600 0.07700
C 	C 	0.50400 0.40120 0.95260 -0.00400
C 	C 	0.04740 0.04740 0.59880 -0.00300
S 	S 	0.40120 0.50400 0.95260 0.06900
S 	S 	0.50400 0.04740 0.59880 0.07700
S 	S 	0.04740 0.40120 0.95260 0.06900
C 	C 	0.40120 0.04740 0.49600 -0.00000
C 	C 	0.04740 0.50400 0.95260 -0.00800
S 	S 	0.40120 0.04740 0.95260 0.06900
S 	S 	0.04740 0.40120 0.49600 0.07800
C 	C 	0.50400 0.04740 0.95260 -0.00800
C 	C 	0.04740 0.50400 0.59880 -0.00000
C 	C 	0.12824 0.12824 0.62824 0.36500
C 	C 	0.07711 0.07711 0.57711 -0.11600
C 	C 	0.37176 0.37176 0.87176 0.36400
C 	C 	0.42289 0.42289 0.92289 -0.11500
C 	C 	0.37176 0.12824 0.62824 0.36600
C 	C 	0.42289 0.07711 0.57711 -0.11800
C 	C 	0.12824 0.37176 0.87176 0.36400
C 	C 	0.07711 0.42289 0.92289 -0.11300
C 	C 	0.37176 0.12824 0.87176 0.36400
C 	C 	0.42289 0.07711 0.92289 -0.11300
C 	C 	0.12824 0.37176 0.62824 0.36600
C 	C 	0.07711 0.42289 0.57711 -0.11800
C 	C 	0.00000 0.00000 0.46688 -0.02100
C 	C 	0.53312 0.46688 -0.00000 -0.02500
C 	C 	0.53312 0.00000 0.53312 -0.02500
C 	C 	-0.00000 0.46688 -0.00000 -0.01900
C 	C 	0.46688 0.00000 -0.00000 -0.01900
C 	C 	-0.00000 0.46688 0.46688 -0.02500
O 	O 	0.25000 0.25000 0.75000 -0.97200
O 	O 	0.14684 0.14684 0.70284 -0.49300
O 	O 	0.29716 0.40916 0.85316 -0.49300
O 	O 	0.14684 0.14684 0.59084 -0.49200
O 	O 	0.40916 0.29716 0.85316 -0.49300
O 	O 	0.29716 0.14684 0.59084 -0.49300
O 	O 	0.14684 0.40916 0.85316 -0.49300
O 	O 	0.40916 0.14684 0.70284 -0.49300
O 	O 	0.14684 0.29716 0.85316 -0.49200
O 	O 	0.40916 0.14684 0.85316 -0.49300
O 	O 	0.14684 0.40916 0.70284 -0.49300
O 	O 	0.29716 0.14684 0.85316 -0.49200
O 	O 	0.14684 0.29716 0.59084 -0.49200
Zn	Zn	0.78839 0.78840 0.21161 1.21000
Zn	Zn	0.78839 0.63483 0.21161 1.21000
Zn	Zn	0.78839 0.78840 0.36518 1.21000
Zn	Zn	0.63482 0.78840 0.21161 1.21000
H 	H 	0.46260 0.65140 0.05700 0.04600
H 	H 	0.94300 0.94300 0.34860 0.04800
H 	H 	0.65140 0.94300 0.53740 0.04600
H 	H 	0.94300 0.46260 0.05700 0.04800
H 	H 	0.46260 0.94300 0.05700 0.04800
H 	H 	0.94300 0.46260 0.34860 0.04600
S 	S 	0.95260 0.95260 0.50400 0.06100
C 	C 	0.49600 0.59880 0.04740 -0.00000
C 	C 	0.95260 0.95260 0.40120 -0.01100
S 	S 	0.59880 0.49600 0.04740 0.07700
S 	S 	0.49600 0.95260 0.40120 0.07000
S 	S 	0.95260 0.59880 0.04740 0.06800
C 	C 	0.59880 0.95260 0.50400 -0.00400
C 	C 	0.95260 0.49600 0.04740 -0.00800
S 	S 	0.59880 0.95260 0.04740 0.06800
S 	S 	0.95260 0.59880 0.50400 0.06900
C 	C 	0.49600 0.95260 0.04740 -0.00800
C 	C 	0.95260 0.49600 0.40120 -0.00400
C 	C 	0.87176 0.87176 0.37176 0.36200
C 	C 	0.92289 0.92289 0.42289 -0.11000
C 	C 	0.62824 0.62824 0.12824 0.36600
C 	C 	0.57711 0.57711 0.07711 -0.11800
C 	C 	0.62824 0.87176 0.37176 0.36400
C 	C 	0.57711 0.92289 0.42289 -0.11500
C 	C 	0.87176 0.62824 0.12824 0.36400
C 	C 	0.92289 0.57711 0.07711 -0.11200
C 	C 	0.62824 0.87176 0.12824 0.36400
C 	C 	0.57711 0.92289 0.07711 -0.11200
C 	C 	0.87176 0.62824 0.37176 0.36400
C 	C 	0.92289 0.57711 0.42289 -0.11500
C 	C 	-0.00000 0.00000 0.53312 -0.01700
C 	C 	0.46688 0.53312 -0.00000 -0.02300
C 	C 	0.46688 0.00000 0.46688 -0.02300
C 	C 	0.00000 0.53312 -0.00000 -0.01900
C 	C 	0.53312 0.00000 -0.00000 -0.01900
C 	C 	0.00000 0.53312 0.53312 -0.02300
O 	O 	0.75000 0.75000 0.25000 -0.97300
O 	O 	0.85316 0.85316 0.29716 -0.49300
O 	O 	0.70284 0.59084 0.14684 -0.49300
O 	O 	0.85316 0.85316 0.40916 -0.49300
O 	O 	0.59084 0.70284 0.14684 -0.49300
O 	O 	0.70284 0.85316 0.40916 -0.49400
O 	O 	0.85316 0.59084 0.14684 -0.49300
O 	O 	0.59084 0.85316 0.29716 -0.49300
O 	O 	0.85316 0.70284 0.14684 -0.49200
O 	O 	0.59084 0.85316 0.14684 -0.49300
O 	O 	0.85316 0.59084 0.29716 -0.49300
O 	O 	0.70284 0.85316 0.14684 -0.49300
O 	O 	0.85316 0.70284 0.40916 -0.49300
