data_crystal

_cell_length_a 23.42610
_cell_length_b 23.42610
_cell_length_c 12.20330
_cell_angle_alpha 90.00000
_cell_angle_beta  90.00000
_cell_angle_gamma 120.00000

_symmetry_space_group_name_	'P 1'
_symmetry_space_group_name_H-M	'P 1'

loop_
_symmetry_equiv_pos_as_xyz
  x,y,z

loop_
_atom_site_label
_atom_site_type_symbol
_atom_site_fract_x
_atom_site_fract_y
_atom_site_fract_z
_atom_site_charge
N 	N 	0.71910 0.15280 0.15440 -0.06600
N 	N 	0.66010 0.09460 0.15870 -0.05000
N 	N 	0.70410 0.11330 0.32710 -0.06500
F 	F 	0.67930 0.97860 0.08630 -0.39400
F 	F 	0.40790 0.74590 0.08580 -0.36400
C 	C 	0.65460 0.07360 0.25830 0.01600
C 	C 	0.59880 0.01080 0.29810 0.94900
F 	F 	0.56580 0.01820 0.37930 -0.00400
F 	F 	0.62740 0.97620 0.35210 -0.21500
F 	F 	0.56150 0.96950 0.22620 -0.27700
C 	C 	0.74230 0.16120 0.25610 0.02500
C 	C 	0.80760 0.21960 0.28710 0.89400
F 	F 	0.85630 0.21950 0.23470 -0.38300
F 	F 	0.81840 0.22640 0.38980 -0.40000
F 	F 	0.81150 0.27540 0.25240 -0.37300
F 	F 	0.98880 0.56810 0.39920 -0.35000
F 	F 	0.04270 0.64280 0.27730 -0.20900
F 	F 	0.99960 0.54110 0.23620 -0.24300
N 	N 	0.84720 0.56630 0.15440 -0.06700
N 	N 	0.90540 0.56550 0.15870 -0.05100
N 	N 	0.88670 0.59080 0.32710 -0.06500
F 	F 	0.02140 0.70070 0.08630 -0.39400
F 	F 	0.25410 0.66200 0.08580 -0.36400
C 	C 	0.92640 0.58100 0.25830 0.01600
C 	C 	0.98920 0.58800 0.29810 0.95000
F 	F 	0.98180 0.54760 0.37930 -0.00400
F 	F 	0.02380 0.65120 0.35210 -0.21500
F 	F 	0.03050 0.59200 0.22620 -0.27700
C 	C 	0.83880 0.58110 0.25610 0.02500
C 	C 	0.78040 0.58800 0.28710 0.89400
F 	F 	0.78050 0.63680 0.23470 -0.38300
F 	F 	0.77360 0.59200 0.38980 -0.40000
F 	F 	0.72460 0.53610 0.25240 -0.37300
F 	F 	0.43190 0.42070 0.39920 -0.34900
F 	F 	0.35720 0.39990 0.27730 -0.20900
F 	F 	0.45890 0.45850 0.23620 -0.24300
N 	N 	0.43370 0.28090 0.15440 -0.06700
N 	N 	0.43450 0.33990 0.15870 -0.05100
N 	N 	0.40920 0.29590 0.32710 -0.06500
F 	F 	0.29930 0.32070 0.08630 -0.39400
F 	F 	0.33800 0.59210 0.08580 -0.36400
C 	C 	0.41900 0.34540 0.25830 0.01600
C 	C 	0.41200 0.40120 0.29810 0.95000
F 	F 	0.45240 0.43420 0.37930 -0.00400
F 	F 	0.34880 0.37260 0.35210 -0.21500
F 	F 	0.40800 0.43850 0.22620 -0.27700
C 	C 	0.41890 0.25770 0.25610 0.02500
C 	C 	0.41200 0.19240 0.28710 0.89400
F 	F 	0.36320 0.14370 0.23470 -0.38300
F 	F 	0.40800 0.18160 0.38980 -0.40000
F 	F 	0.46390 0.18850 0.25240 -0.37300
F 	F 	0.57930 0.01120 0.39920 -0.35000
F 	F 	0.60010 0.95730 0.27730 -0.20800
F 	F 	0.54150 0.00040 0.23620 -0.24300
N 	N 	0.28090 0.84720 0.15440 -0.06700
N 	N 	0.33990 0.90540 0.15870 -0.05100
N 	N 	0.29590 0.88670 0.32710 -0.06500
F 	F 	0.32070 0.02140 0.08630 -0.39400
F 	F 	0.59210 0.25410 0.08580 -0.36400
C 	C 	0.34540 0.92640 0.25830 0.01600
C 	C 	0.40120 0.98920 0.29810 0.94900
F 	F 	0.43420 0.98180 0.37930 -0.00400
F 	F 	0.37260 0.02380 0.35210 -0.21500
F 	F 	0.43850 0.03050 0.22620 -0.27700
C 	C 	0.25770 0.83880 0.25610 0.02500
C 	C 	0.19240 0.78040 0.28710 0.89400
F 	F 	0.14370 0.78050 0.23470 -0.38300
F 	F 	0.18160 0.77360 0.38980 -0.40000
F 	F 	0.18850 0.72460 0.25240 -0.37300
F 	F 	0.01120 0.43190 0.39920 -0.35000
F 	F 	0.95730 0.35720 0.27730 -0.20900
F 	F 	0.00040 0.45890 0.23620 -0.24300
N 	N 	0.15280 0.43370 0.15440 -0.06700
N 	N 	0.09460 0.43450 0.15870 -0.05100
N 	N 	0.11330 0.40920 0.32710 -0.06500
F 	F 	0.97860 0.29930 0.08630 -0.39400
F 	F 	0.74590 0.33800 0.08580 -0.36400
C 	C 	0.07360 0.41900 0.25830 0.01600
C 	C 	0.01080 0.41200 0.29810 0.95000
F 	F 	0.01820 0.45240 0.37930 -0.00400
F 	F 	0.97620 0.34880 0.35210 -0.21500
F 	F 	0.96950 0.40800 0.22620 -0.27700
C 	C 	0.16120 0.41890 0.25610 0.02500
C 	C 	0.21960 0.41200 0.28710 0.89400
F 	F 	0.21950 0.36320 0.23470 -0.38300
F 	F 	0.22640 0.40800 0.38980 -0.40000
F 	F 	0.27540 0.46390 0.25240 -0.37300
F 	F 	0.56810 0.57930 0.39920 -0.34900
F 	F 	0.64280 0.60010 0.27730 -0.20900
F 	F 	0.54110 0.54150 0.23620 -0.24300
N 	N 	0.56630 0.71910 0.15440 -0.06700
N 	N 	0.56550 0.66010 0.15870 -0.05100
N 	N 	0.59080 0.70410 0.32710 -0.06500
F 	F 	0.70070 0.67930 0.08630 -0.39400
F 	F 	0.66200 0.40790 0.08580 -0.36400
C 	C 	0.58100 0.65460 0.25830 0.01600
C 	C 	0.58800 0.59880 0.29810 0.95000
F 	F 	0.54760 0.56580 0.37930 -0.00400
F 	F 	0.65120 0.62740 0.35210 -0.21500
F 	F 	0.59200 0.56150 0.22620 -0.27700
C 	C 	0.58110 0.74230 0.25610 0.02500
C 	C 	0.58800 0.80760 0.28710 0.89400
F 	F 	0.63680 0.85630 0.23470 -0.38300
F 	F 	0.59200 0.81840 0.38980 -0.40000
F 	F 	0.53610 0.81150 0.25240 -0.37300
F 	F 	0.42070 0.98880 0.39920 -0.35000
F 	F 	0.39990 0.04270 0.27730 -0.20800
F 	F 	0.45850 0.99960 0.23620 -0.24300
N 	N 	0.28090 0.84720 0.84560 0.01500
N 	N 	0.33990 0.90540 0.84130 0.02300
N 	N 	0.29590 0.88670 0.67290 -0.06400
F 	F 	0.32070 0.02140 0.91370 -0.19600
F 	F 	0.59210 0.25410 0.91420 -0.17100
C 	C 	0.34540 0.92640 0.74170 0.03800
C 	C 	0.40120 0.98920 0.70190 0.93800
F 	F 	0.43420 0.98180 0.62070 0.03600
F 	F 	0.37260 0.02380 0.64790 -0.20700
F 	F 	0.43850 0.03050 0.77380 -0.23500
C 	C 	0.25770 0.83880 0.74390 0.05200
C 	C 	0.19240 0.78040 0.71290 0.89400
F 	F 	0.14370 0.78050 0.76530 -0.32200
F 	F 	0.18160 0.77360 0.61020 -0.39600
F 	F 	0.18850 0.72460 0.74760 -0.32900
F 	F 	0.01120 0.43190 0.60080 -0.38500
F 	F 	0.95730 0.35720 0.72270 -0.19000
F 	F 	0.00040 0.45890 0.76380 -0.20900
N 	N 	0.15280 0.43370 0.84560 0.01500
N 	N 	0.09460 0.43450 0.84130 0.02300
N 	N 	0.11330 0.40920 0.67290 -0.06400
F 	F 	0.97860 0.29930 0.91370 -0.19700
F 	F 	0.74590 0.33800 0.91420 -0.17100
C 	C 	0.07360 0.41900 0.74170 0.03800
C 	C 	0.01080 0.41200 0.70190 0.93800
F 	F 	0.01820 0.45240 0.62070 0.03400
F 	F 	0.97620 0.34880 0.64790 -0.20800
F 	F 	0.96950 0.40800 0.77380 -0.23500
C 	C 	0.16120 0.41890 0.74390 0.05200
C 	C 	0.21960 0.41200 0.71290 0.89400
F 	F 	0.21950 0.36320 0.76530 -0.32100
F 	F 	0.22640 0.40800 0.61020 -0.39600
F 	F 	0.27540 0.46390 0.74760 -0.32900
F 	F 	0.56810 0.57930 0.60080 -0.38500
F 	F 	0.64280 0.60010 0.72270 -0.19000
F 	F 	0.54110 0.54150 0.76380 -0.20800
N 	N 	0.56630 0.71910 0.84560 0.01500
N 	N 	0.56550 0.66010 0.84130 0.02400
N 	N 	0.59080 0.70410 0.67290 -0.06400
F 	F 	0.70070 0.67930 0.91370 -0.19400
F 	F 	0.66200 0.40790 0.91420 -0.17000
C 	C 	0.58100 0.65460 0.74170 0.03800
C 	C 	0.58800 0.59880 0.70190 0.93800
F 	F 	0.54760 0.56580 0.62070 0.03500
F 	F 	0.65120 0.62740 0.64790 -0.20700
F 	F 	0.59200 0.56150 0.77380 -0.23400
C 	C 	0.58110 0.74230 0.74390 0.05200
C 	C 	0.58800 0.80760 0.71290 0.89400
F 	F 	0.63680 0.85630 0.76530 -0.32200
F 	F 	0.59200 0.81840 0.61020 -0.39600
F 	F 	0.53610 0.81150 0.74760 -0.32900
F 	F 	0.42070 0.98880 0.60080 -0.38600
F 	F 	0.39990 0.04270 0.72270 -0.19000
F 	F 	0.45850 0.99960 0.76380 -0.20900
N 	N 	0.71910 0.15280 0.84560 0.01500
N 	N 	0.66010 0.09460 0.84130 0.02300
N 	N 	0.70410 0.11330 0.67290 -0.06400
F 	F 	0.67930 0.97860 0.91370 -0.19600
F 	F 	0.40790 0.74590 0.91420 -0.17100
C 	C 	0.65460 0.07360 0.74170 0.03800
C 	C 	0.59880 0.01080 0.70190 0.93800
F 	F 	0.56580 0.01820 0.62070 0.03600
F 	F 	0.62740 0.97620 0.64790 -0.20700
F 	F 	0.56150 0.96950 0.77380 -0.23500
C 	C 	0.74230 0.16120 0.74390 0.05200
C 	C 	0.80760 0.21960 0.71290 0.89400
F 	F 	0.85630 0.21950 0.76530 -0.32200
F 	F 	0.81840 0.22640 0.61020 -0.39600
F 	F 	0.81150 0.27540 0.74760 -0.32900
F 	F 	0.98880 0.56810 0.60080 -0.38500
F 	F 	0.04270 0.64280 0.72270 -0.19000
F 	F 	0.99960 0.54110 0.76380 -0.20900
N 	N 	0.84720 0.56630 0.84560 0.01500
N 	N 	0.90540 0.56550 0.84130 0.02300
N 	N 	0.88670 0.59080 0.67290 -0.06400
F 	F 	0.02140 0.70070 0.91370 -0.19700
F 	F 	0.25410 0.66200 0.91420 -0.17100
C 	C 	0.92640 0.58100 0.74170 0.03800
C 	C 	0.98920 0.58800 0.70190 0.93800
F 	F 	0.98180 0.54760 0.62070 0.03400
F 	F 	0.02380 0.65120 0.64790 -0.20800
F 	F 	0.03050 0.59200 0.77380 -0.23500
C 	C 	0.83880 0.58110 0.74390 0.05200
C 	C 	0.78040 0.58800 0.71290 0.89400
F 	F 	0.78050 0.63680 0.76530 -0.32100
F 	F 	0.77360 0.59200 0.61020 -0.39600
F 	F 	0.72460 0.53610 0.74760 -0.32900
F 	F 	0.43190 0.42070 0.60080 -0.38500
F 	F 	0.35720 0.39990 0.72270 -0.19000
F 	F 	0.45890 0.45850 0.76380 -0.20800
N 	N 	0.43370 0.28090 0.84560 0.01500
N 	N 	0.43450 0.33990 0.84130 0.02400
N 	N 	0.40920 0.29590 0.67290 -0.06400
F 	F 	0.29930 0.32070 0.91370 -0.19400
F 	F 	0.33800 0.59210 0.91420 -0.17000
C 	C 	0.41900 0.34540 0.74170 0.03800
C 	C 	0.41200 0.40120 0.70190 0.93800
F 	F 	0.45240 0.43420 0.62070 0.03500
F 	F 	0.34880 0.37260 0.64790 -0.20700
F 	F 	0.40800 0.43850 0.77380 -0.23400
C 	C 	0.41890 0.25770 0.74390 0.05200
C 	C 	0.41200 0.19240 0.71290 0.89400
F 	F 	0.36320 0.14370 0.76530 -0.32200
F 	F 	0.40800 0.18160 0.61020 -0.39600
F 	F 	0.46390 0.18850 0.74760 -0.32900
F 	F 	0.57930 0.01120 0.60080 -0.38600
F 	F 	0.60010 0.95730 0.72270 -0.19000
F 	F 	0.54150 0.00040 0.76380 -0.20900
Ag	Ag	0.59112 0.06003 -0.00000 0.58800
Ag	Ag	0.76156 0.20753 -0.00000 0.61200
N 	N 	0.55020 0.94830 -0.00000 -0.07700
N 	N 	0.48400 0.90510 -0.00000 -0.07500
N 	N 	0.53600 0.84670 -0.00000 -0.08600
C 	C 	0.57850 0.91150 -0.00000 0.06100
C 	C 	0.65190 0.94110 -0.00000 0.68000
F 	F 	0.66930 0.89550 -0.00000 -0.43400
C 	C 	0.47870 0.84550 -0.00000 0.04000
C 	C 	0.41380 0.78240 -0.00000 0.69100
F 	F 	0.36450 0.79360 -0.00000 -0.50600
Ag	Ag	0.93997 0.53109 -0.00000 0.58800
Ag	Ag	0.79247 0.55403 -0.00000 0.61100
N 	N 	0.05170 0.60190 -0.00000 -0.07700
N 	N 	0.09490 0.57890 -0.00000 -0.07500
N 	N 	0.15330 0.68930 -0.00000 -0.08600
C 	C 	0.08850 0.66700 -0.00000 0.06100
C 	C 	0.05890 0.71080 -0.00000 0.68100
F 	F 	0.10450 0.77380 -0.00000 -0.43400
C 	C 	0.15450 0.63320 -0.00000 0.04000
C 	C 	0.21760 0.63140 -0.00000 0.69100
F 	F 	0.20640 0.57090 -0.00000 -0.50600
Ag	Ag	0.46891 0.40888 -0.00000 0.58700
Ag	Ag	0.44597 0.23844 -0.00000 0.61100
N 	N 	0.39810 0.44980 -0.00000 -0.07800
N 	N 	0.42110 0.51600 -0.00000 -0.07500
N 	N 	0.31070 0.46400 -0.00000 -0.08600
C 	C 	0.33300 0.42150 -0.00000 0.06100
C 	C 	0.28920 0.34810 -0.00000 0.67800
F 	F 	0.22620 0.33070 -0.00000 -0.43400
C 	C 	0.36680 0.52130 -0.00000 0.03900
C 	C 	0.36860 0.58620 -0.00000 0.69100
F 	F 	0.42910 0.63550 -0.00000 -0.50600
Ag	Ag	0.40888 0.93997 -0.00000 0.58800
Ag	Ag	0.23844 0.79247 -0.00000 0.61200
N 	N 	0.44980 0.05170 -0.00000 -0.07700
N 	N 	0.51600 0.09490 -0.00000 -0.07500
N 	N 	0.46400 0.15330 -0.00000 -0.08600
C 	C 	0.42150 0.08850 -0.00000 0.06100
C 	C 	0.34810 0.05890 -0.00000 0.68000
F 	F 	0.33070 0.10450 -0.00000 -0.43400
C 	C 	0.52130 0.15450 -0.00000 0.04000
C 	C 	0.58620 0.21760 -0.00000 0.69100
F 	F 	0.63550 0.20640 -0.00000 -0.50600
Ag	Ag	0.06003 0.46891 -0.00000 0.58800
Ag	Ag	0.20753 0.44597 -0.00000 0.61100
N 	N 	0.94830 0.39810 -0.00000 -0.07700
N 	N 	0.90510 0.42110 -0.00000 -0.07500
N 	N 	0.84670 0.31070 -0.00000 -0.08600
C 	C 	0.91150 0.33300 -0.00000 0.06100
C 	C 	0.94110 0.28920 -0.00000 0.68100
F 	F 	0.89550 0.22620 -0.00000 -0.43400
C 	C 	0.84550 0.36680 -0.00000 0.04000
C 	C 	0.78240 0.36860 -0.00000 0.69100
F 	F 	0.79360 0.42910 -0.00000 -0.50600
Ag	Ag	0.53109 0.59112 -0.00000 0.58700
Ag	Ag	0.55403 0.76156 -0.00000 0.61100
N 	N 	0.60190 0.55020 -0.00000 -0.07800
N 	N 	0.57890 0.48400 -0.00000 -0.07500
N 	N 	0.68930 0.53600 -0.00000 -0.08600
C 	C 	0.66700 0.57850 -0.00000 0.06100
C 	C 	0.71080 0.65190 -0.00000 0.67800
F 	F 	0.77380 0.66930 -0.00000 -0.43400
C 	C 	0.63320 0.47870 -0.00000 0.03900
C 	C 	0.63140 0.41380 -0.00000 0.69100
F 	F 	0.57090 0.36450 -0.00000 -0.50600
Ag	Ag	0.70950 0.10985 0.50000 0.72500
Ag	Ag	0.89015 0.59965 0.50000 0.72500
Ag	Ag	0.40035 0.29050 0.50000 0.72500
Ag	Ag	0.29050 0.89015 0.50000 0.72500
Ag	Ag	0.10985 0.40035 0.50000 0.72500
Ag	Ag	0.59965 0.70950 0.50000 0.72500
