data_crystal

_cell_length_a 9.36600
_cell_length_b 9.36600
_cell_length_c 6.94700
_cell_angle_alpha 90.00000
_cell_angle_beta  90.00000
_cell_angle_gamma 90.00000

_symmetry_space_group_name_	'P 1'
_symmetry_space_group_name_H-M	'P 1'

loop_
_symmetry_equiv_pos_as_xyz
  x,y,z

loop_
_atom_site_label
_atom_site_type_symbol
_atom_site_fract_x
_atom_site_fract_y
_atom_site_fract_z
_atom_site_charge
Ca	Ca	0.25000 0.25000 0.90710 1.48900
N 	N 	0.25000 0.25000 0.24200 -0.23500
N 	N 	0.25000 0.25000 0.40420 -0.01200
N 	N 	0.25000 0.25000 0.56990 -0.24300
Ca	Ca	0.75000 0.75000 0.09290 1.49100
N 	N 	0.75000 0.75000 0.75800 -0.24200
N 	N 	0.75000 0.75000 0.59580 -0.01400
N 	N 	0.75000 0.75000 0.43010 -0.24400
N 	N 	0.07210 0.07210 0.91090 -0.24400
N 	N 	0.42790 0.42790 0.91090 -0.24100
N 	N 	0.42790 0.07210 0.91090 -0.24300
N 	N 	0.07210 0.42790 0.91090 -0.24300
N 	N 	0.92790 0.57210 0.08910 -0.24000
N 	N 	0.57210 0.92790 0.08910 -0.24000
N 	N 	0.57210 0.57210 0.08910 -0.23600
N 	N 	0.92790 0.92790 0.08910 -0.24400
N 	N 	-0.00000 0.00000 -0.00000 -0.01000
N 	N 	0.50000 0.50000 -0.00000 -0.01900
N 	N 	0.50000 0.00000 -0.00000 -0.01500
N 	N 	-0.00000 0.50000 -0.00000 -0.01500
