data_crystal

_cell_length_a 9.94930
_cell_length_b 14.07960
_cell_length_c 19.90600
_cell_angle_alpha 90.00000
_cell_angle_beta  101.58500
_cell_angle_gamma 90.00000

_symmetry_space_group_name_	'P 1'
_symmetry_space_group_name_H-M	'P 1'

loop_
_symmetry_equiv_pos_as_xyz
  x,y,z

loop_
_atom_site_label
_atom_site_type_symbol
_atom_site_fract_x
_atom_site_fract_y
_atom_site_fract_z
_atom_site_charge
Ag	Ag	0.61117 0.02239 0.45144 0.46900
Ag	Ag	0.61242 0.14922 0.27907 0.48400
Ag	Ag	0.93291 0.12975 0.63471 0.47200
S 	S 	0.78020 0.01640 0.56020 -0.34100
S 	S 	0.76420 0.01870 0.35270 -0.28800
N 	N 	0.58480 0.93130 0.61750 -0.19200
N 	N 	0.57920 0.86880 0.66960 -0.13100
N 	N 	0.69820 0.84180 0.69600 -0.08800
N 	N 	0.78550 0.88590 0.66290 -0.07300
N 	N 	0.85270 0.85210 0.30620 -0.17900
N 	N 	0.79880 0.77830 0.26660 -0.13400
N 	N 	0.66830 0.78960 0.24580 -0.08800
N 	N 	0.63690 0.87360 0.27200 -0.08300
C 	C 	0.70920 0.94270 0.61400 0.10100
C 	C 	0.93100 0.86730 0.68380 -0.31800
H 	H 	0.94640 0.82240 0.72080 0.11700
H 	H 	0.97840 0.92550 0.69860 0.09700
H 	H 	0.96530 0.84180 0.64570 0.10800
C 	C 	0.75050 0.91010 0.31080 0.09800
C 	C 	0.49660 0.90800 0.26100 -0.27400
H 	H 	0.43800 0.86620 0.23000 0.09400
H 	H 	0.46690 0.91000 0.30390 0.08000
H 	H 	0.49210 0.97070 0.24160 0.06900
Ag	Ag	0.88883 0.52239 0.04856 0.46800
Ag	Ag	0.88758 0.64922 0.22093 0.48300
Ag	Ag	0.56709 0.62975 0.86529 0.47200
S 	S 	0.71980 0.51640 0.93980 -0.34000
S 	S 	0.73580 0.51870 0.14730 -0.28700
N 	N 	0.91520 0.43130 0.88250 -0.19100
N 	N 	0.92080 0.36880 0.83040 -0.13000
N 	N 	0.80180 0.34180 0.80400 -0.08800
N 	N 	0.71450 0.38590 0.83710 -0.07300
N 	N 	0.64730 0.35210 0.19380 -0.17900
N 	N 	0.70120 0.27830 0.23340 -0.13400
N 	N 	0.83170 0.28960 0.25420 -0.08800
N 	N 	0.86310 0.37360 0.22800 -0.08300
C 	C 	0.79080 0.44270 0.88600 0.10100
C 	C 	0.56900 0.36730 0.81620 -0.31800
H 	H 	0.55360 0.32240 0.77920 0.11600
H 	H 	0.52160 0.42550 0.80140 0.09700
H 	H 	0.53470 0.34180 0.85430 0.10800
C 	C 	0.74950 0.41010 0.18920 0.09700
C 	C 	0.00340 0.40800 0.23900 -0.27300
H 	H 	0.06200 0.36620 0.27000 0.09400
H 	H 	0.03310 0.41000 0.19610 0.08000
H 	H 	0.00790 0.47070 0.25840 0.06900
Ag	Ag	0.38883 0.97761 0.54856 0.46800
Ag	Ag	0.38758 0.85078 0.72093 0.48300
Ag	Ag	0.06709 0.87025 0.36529 0.47200
S 	S 	0.21980 0.98360 0.43980 -0.34100
S 	S 	0.23580 0.98130 0.64730 -0.28800
N 	N 	0.41520 0.06870 0.38250 -0.19200
N 	N 	0.42080 0.13120 0.33040 -0.13100
N 	N 	0.30180 0.15820 0.30400 -0.08800
N 	N 	0.21450 0.11410 0.33710 -0.07300
N 	N 	0.14730 0.14790 0.69380 -0.17900
N 	N 	0.20120 0.22170 0.73340 -0.13400
N 	N 	0.33170 0.21040 0.75420 -0.08800
N 	N 	0.36310 0.12640 0.72800 -0.08300
C 	C 	0.29080 0.05730 0.38600 0.10100
C 	C 	0.06900 0.13270 0.31620 -0.31800
H 	H 	0.05360 0.17760 0.27920 0.11700
H 	H 	0.02160 0.07450 0.30140 0.09700
H 	H 	0.03470 0.15820 0.35430 0.10800
C 	C 	0.24950 0.08990 0.68920 0.09800
C 	C 	0.50340 0.09200 0.73900 -0.27400
H 	H 	0.56200 0.13380 0.77000 0.09400
H 	H 	0.53310 0.09000 0.69610 0.08000
H 	H 	0.50790 0.02930 0.75840 0.06900
Ag	Ag	0.11117 0.47761 0.95144 0.46800
Ag	Ag	0.11242 0.35078 0.77907 0.48300
Ag	Ag	0.43291 0.37025 0.13471 0.47200
S 	S 	0.28020 0.48360 0.06020 -0.34000
S 	S 	0.26420 0.48130 0.85270 -0.28700
N 	N 	0.08480 0.56870 0.11750 -0.19100
N 	N 	0.07920 0.63120 0.16960 -0.13000
N 	N 	0.19820 0.65820 0.19600 -0.08800
N 	N 	0.28550 0.61410 0.16290 -0.07300
N 	N 	0.35270 0.64790 0.80620 -0.17900
N 	N 	0.29880 0.72170 0.76660 -0.13400
N 	N 	0.16830 0.71040 0.74580 -0.08800
N 	N 	0.13690 0.62640 0.77200 -0.08300
C 	C 	0.20920 0.55730 0.11400 0.10100
C 	C 	0.43100 0.63270 0.18380 -0.31800
H 	H 	0.44640 0.67760 0.22080 0.11600
H 	H 	0.47840 0.57450 0.19860 0.09700
H 	H 	0.46530 0.65820 0.14570 0.10800
C 	C 	0.25050 0.58990 0.81080 0.09700
C 	C 	0.99660 0.59200 0.76100 -0.27300
H 	H 	0.93800 0.63380 0.73000 0.09400
H 	H 	0.96690 0.59000 0.80390 0.08000
H 	H 	0.99210 0.52930 0.74160 0.06900
