data_crystal

_cell_length_a 10.03930
_cell_length_b 13.96880
_cell_length_c 19.89300
_cell_angle_alpha 90.00000
_cell_angle_beta  102.36900
_cell_angle_gamma 90.00000

_symmetry_space_group_name_	'P 1'
_symmetry_space_group_name_H-M	'P 1'

loop_
_symmetry_equiv_pos_as_xyz
  x,y,z

loop_
_atom_site_label
_atom_site_type_symbol
_atom_site_fract_x
_atom_site_fract_y
_atom_site_fract_z
_atom_site_charge
Ag	Ag	0.42250 0.63630 0.13982 0.43300
Ag	Ag	0.52240 0.45770 0.07160 0.41800
Ag	Ag	0.89220 0.47907 0.04622 0.45000
Ag	Ag	0.60800 0.84571 0.27445 0.47600
S 	S 	0.74520 0.47690 0.14620 -0.40700
S 	S 	0.28060 0.50980 0.06310 -0.46900
N 	N 	0.64800 0.64290 0.19130 -0.19600
N 	N 	0.69800 0.71680 0.23190 -0.14400
N 	N 	0.83100 0.70760 0.25280 -0.09800
N 	N 	0.86100 0.62260 0.22700 -0.09600
N 	N 	0.08500 0.42710 0.11810 -0.18500
N 	N 	0.07500 0.36670 0.17030 -0.12800
N 	N 	0.19000 0.34030 0.20210 -0.09300
N 	N 	0.28000 0.37570 0.16830 -0.08900
C 	C 	0.75000 0.58600 0.18870 0.10900
C 	C 	0.00000 0.59100 0.23970 -0.23400
H 	H 	0.00330 0.52260 0.24550 0.05900
H 	H 	0.05090 0.62070 0.28070 0.07800
H 	H 	0.03950 0.60790 0.20140 0.06900
C 	C 	0.21500 0.43500 0.11820 0.10600
C 	C 	0.42500 0.35900 0.19420 -0.27500
H 	H 	0.43840 0.32870 0.23860 0.09500
H 	H 	0.47290 0.41830 0.19810 0.05800
H 	H 	0.45840 0.31730 0.16300 0.06700
Ag	Ag	0.07750 0.13630 0.36018 0.43600
Ag	Ag	0.97760 0.95770 0.42840 0.41100
Ag	Ag	0.60780 0.97907 0.45378 0.45500
Ag	Ag	0.89200 0.34571 0.22555 0.47200
S 	S 	0.75480 0.97690 0.35380 -0.40700
S 	S 	0.21940 0.00980 0.43690 -0.46900
N 	N 	0.85200 0.14290 0.30870 -0.19900
N 	N 	0.80200 0.21680 0.26810 -0.14500
N 	N 	0.66900 0.20760 0.24720 -0.09500
N 	N 	0.63900 0.12260 0.27300 -0.08900
N 	N 	0.41500 0.92710 0.38190 -0.18800
N 	N 	0.42500 0.86670 0.32970 -0.13100
N 	N 	0.31000 0.84030 0.29790 -0.09400
N 	N 	0.22000 0.87570 0.33170 -0.08700
C 	C 	0.75000 0.08600 0.31130 0.10900
C 	C 	0.50000 0.09100 0.26030 -0.25200
H 	H 	0.49670 0.02260 0.25450 0.06000
H 	H 	0.44910 0.12070 0.21930 0.08100
H 	H 	0.46050 0.10790 0.29860 0.07200
C 	C 	0.28500 0.93500 0.38180 0.10600
C 	C 	0.07500 0.85900 0.30580 -0.28600
H 	H 	0.06160 0.82870 0.26140 0.10100
H 	H 	0.02710 0.91830 0.30190 0.06500
H 	H 	0.04160 0.81730 0.33700 0.07400
Ag	Ag	0.57750 0.36370 0.86018 0.43200
Ag	Ag	0.47760 0.54230 0.92840 0.41800
Ag	Ag	0.10780 0.52093 0.95378 0.45900
Ag	Ag	0.39200 0.15429 0.72555 0.47800
S 	S 	0.25480 0.52310 0.85380 -0.40000
S 	S 	0.71940 0.49020 0.93690 -0.47200
N 	N 	0.35200 0.35710 0.80870 -0.19700
N 	N 	0.30200 0.28320 0.76810 -0.14300
N 	N 	0.16900 0.29240 0.74720 -0.09000
N 	N 	0.13900 0.37740 0.77300 -0.10500
N 	N 	0.91500 0.57290 0.88190 -0.19000
N 	N 	0.92500 0.63330 0.82970 -0.13400
N 	N 	0.81000 0.65970 0.79790 -0.09500
N 	N 	0.72000 0.62430 0.83170 -0.08900
C 	C 	0.25000 0.41400 0.81130 0.11500
C 	C 	0.00000 0.40900 0.76030 -0.12300
H 	H 	0.99670 0.47740 0.75450 0.01500
H 	H 	0.94910 0.37930 0.71930 0.03700
H 	H 	0.96050 0.39210 0.79860 0.02700
C 	C 	0.78500 0.56500 0.88180 0.10500
C 	C 	0.57500 0.64100 0.80580 -0.27600
H 	H 	0.56160 0.67130 0.76140 0.09500
H 	H 	0.52710 0.58170 0.80190 0.05800
H 	H 	0.54160 0.68270 0.83700 0.06700
Ag	Ag	0.92250 0.86370 0.63982 0.42700
Ag	Ag	0.02240 0.04230 0.57160 0.42300
Ag	Ag	0.39220 0.02093 0.54622 0.45500
Ag	Ag	0.10800 0.65429 0.77445 0.48200
S 	S 	0.24520 0.02310 0.64620 -0.40100
S 	S 	0.78060 0.99020 0.56310 -0.47600
N 	N 	0.14800 0.85710 0.69130 -0.19300
N 	N 	0.19800 0.78320 0.73190 -0.14200
N 	N 	0.33100 0.79240 0.75280 -0.09400
N 	N 	0.36100 0.87740 0.72700 -0.08900
N 	N 	0.58500 0.07290 0.61810 -0.18800
N 	N 	0.57500 0.13330 0.67030 -0.13200
N 	N 	0.69000 0.15970 0.70210 -0.09400
N 	N 	0.78000 0.12430 0.66830 -0.09000
C 	C 	0.25000 0.91400 0.68870 0.11100
C 	C 	0.50000 0.90900 0.73970 -0.25000
H 	H 	0.50330 0.97740 0.74550 0.05900
H 	H 	0.55090 0.87930 0.78070 0.08000
H 	H 	0.53950 0.89210 0.70140 0.07100
C 	C 	0.71500 0.06500 0.61820 0.10600
C 	C 	0.92500 0.14100 0.69420 -0.26700
H 	H 	0.93840 0.17130 0.73860 0.09100
H 	H 	0.97290 0.08170 0.69810 0.05300
H 	H 	0.95840 0.18270 0.66300 0.06200
