data_crystal

_cell_length_a 11.37490
_cell_length_b 13.35960
_cell_length_c 25.96910
_cell_angle_alpha 90.00000
_cell_angle_beta  90.00000
_cell_angle_gamma 90.00000

_symmetry_space_group_name_	'P 1'
_symmetry_space_group_name_H-M	'P 1'

loop_
_symmetry_equiv_pos_as_xyz
  x,y,z

loop_
_atom_site_label
_atom_site_type_symbol
_atom_site_fract_x
_atom_site_fract_y
_atom_site_fract_z
_atom_site_charge
Co	Co	0.83808 0.05890 0.07895 1.17600
Co	Co	0.09411 0.94370 0.13838 1.17700
Co	Co	0.66192 0.94110 0.57895 1.17600
Co	Co	0.40589 0.05630 0.63838 1.17800
Co	Co	0.16192 0.55890 0.42105 1.17600
Co	Co	0.90589 0.44370 0.36162 1.17800
Co	Co	0.33808 0.44110 0.92105 1.17600
Co	Co	0.59411 0.55630 0.86162 1.17800
H 	H 	0.86430 0.90930 0.14460 0.21900
H 	H 	0.90730 0.87120 0.08940 0.22900
H 	H 	0.30860 0.81060 0.16490 0.01400
H 	H 	0.28680 0.10240 0.15570 0.01700
H 	H 	0.36470 0.31180 0.01710 0.01600
H 	H 	0.27340 0.18610 0.06250 0.06200
H 	H 	0.04110 0.25240 0.33430 0.01900
H 	H 	0.04790 0.15560 0.94740 0.06200
H 	H 	0.58570 0.99480 0.04530 0.01700
H 	H 	0.84370 0.42010 0.24640 0.01000
H 	H 	0.51090 0.81800 0.16620 0.07000
H 	H 	0.49130 0.87390 0.99600 0.06800
H 	H 	0.14760 0.28050 0.90400 0.01700
H 	H 	0.07350 0.14060 0.26670 0.06500
H 	H 	0.80620 0.78790 0.94090 0.06700
H 	H 	0.48910 0.11610 0.15480 0.06500
H 	H 	0.85970 0.30930 0.17910 0.06500
H 	H 	0.89220 0.91050 0.98960 0.02600
H 	H 	0.63570 0.09070 0.64460 0.21900
H 	H 	0.59270 0.12880 0.58940 0.22900
H 	H 	0.19140 0.18940 0.66490 0.01600
H 	H 	0.21320 0.89760 0.65570 0.01800
H 	H 	0.13530 0.68820 0.51710 0.01600
H 	H 	0.22660 0.81390 0.56250 0.06200
H 	H 	0.45890 0.74760 0.83430 0.01900
H 	H 	0.45210 0.84440 0.44740 0.06200
H 	H 	0.91430 0.00520 0.54530 0.01500
H 	H 	0.65630 0.57990 0.74640 0.01000
H 	H 	0.98910 0.18200 0.66620 0.06400
H 	H 	0.00870 0.12610 0.49600 0.07300
H 	H 	0.35240 0.71950 0.40400 0.01600
H 	H 	0.42650 0.85940 0.76670 0.06400
H 	H 	0.69380 0.21210 0.44090 0.06800
H 	H 	0.01090 0.88390 0.65480 0.06300
H 	H 	0.64030 0.69070 0.67910 0.06500
H 	H 	0.60780 0.08950 0.48960 0.02500
H 	H 	0.13570 0.40930 0.35540 0.21900
H 	H 	0.09270 0.37120 0.41060 0.22900
H 	H 	0.69140 0.31060 0.33510 0.01400
H 	H 	0.71320 0.60240 0.34430 0.01700
H 	H 	0.63530 0.81180 0.48290 0.01600
H 	H 	0.72660 0.68610 0.43750 0.06200
H 	H 	0.95890 0.75240 0.16570 0.01800
H 	H 	0.95210 0.65560 0.55260 0.06200
H 	H 	0.41430 0.49480 0.45470 0.01700
H 	H 	0.15630 0.92010 0.25360 0.00900
H 	H 	0.48910 0.31800 0.33380 0.07000
H 	H 	0.50870 0.37390 0.50400 0.06900
H 	H 	0.85240 0.78050 0.59600 0.01700
H 	H 	0.92650 0.64060 0.23330 0.06400
H 	H 	0.19380 0.28790 0.55910 0.06700
H 	H 	0.51090 0.61610 0.34520 0.06500
H 	H 	0.14030 0.80930 0.32090 0.06500
H 	H 	0.10780 0.41050 0.51040 0.02500
H 	H 	0.36430 0.59070 0.85540 0.21900
H 	H 	0.40730 0.62880 0.91060 0.22900
H 	H 	0.80860 0.68940 0.83510 0.01500
H 	H 	0.78680 0.39760 0.84430 0.01700
H 	H 	0.86470 0.18820 0.98290 0.01500
H 	H 	0.77340 0.31390 0.93750 0.06100
H 	H 	0.54110 0.24760 0.66570 0.01900
H 	H 	0.54790 0.34440 0.05260 0.06100
H 	H 	0.08570 0.50520 0.95470 0.01600
H 	H 	0.34370 0.07990 0.75360 0.01000
H 	H 	0.01090 0.68200 0.83380 0.06800
H 	H 	0.99130 0.62610 0.00400 0.07200
H 	H 	0.64760 0.21950 0.09600 0.01700
H 	H 	0.57350 0.35940 0.73330 0.06400
H 	H 	0.30620 0.71210 0.05910 0.06800
H 	H 	0.98910 0.38390 0.84520 0.06400
H 	H 	0.35970 0.19070 0.82090 0.06500
H 	H 	0.39220 0.58950 0.01040 0.02500
C 	C 	0.34570 0.87420 0.16250 0.05200
C 	C 	0.33290 0.04320 0.15690 0.05300
C 	C 	0.29730 0.28080 0.00240 0.04600
C 	C 	0.24330 0.20530 0.02980 -0.05600
C 	C 	0.00490 0.26470 0.30190 0.03800
C 	C 	0.11340 0.18750 0.96310 -0.06000
C 	C 	0.57790 0.73320 0.93380 0.33200
C 	C 	0.63100 0.95170 0.02400 0.03800
C 	C 	0.88910 0.36110 0.25120 0.05100
C 	C 	0.46670 0.87790 0.16280 -0.07100
C 	C 	0.57450 0.87930 0.99480 -0.05700
C 	C 	0.98050 0.13530 0.17292 0.36800
C 	C 	0.14960 0.15910 0.01080 -0.04300
C 	C 	0.17270 0.26320 0.93770 0.05000
C 	C 	0.02310 0.19660 0.26200 -0.04800
C 	C 	0.08470 0.08090 0.04190 0.36100
C 	C 	0.96730 0.21170 0.21600 -0.04500
C 	C 	0.75880 0.82900 0.96230 -0.05500
C 	C 	0.45370 0.05180 0.15640 -0.06800
C 	C 	0.89920 0.29610 0.21060 -0.05900
C 	C 	0.80940 0.90210 0.99160 0.04500
C 	C 	0.63880 0.81500 0.96400 -0.03400
C 	C 	0.52300 0.96740 0.15810 -0.02400
C 	C 	0.65570 0.97190 0.15020 0.31600
C 	C 	0.15430 0.12580 0.66250 0.04700
C 	C 	0.16710 0.95680 0.65690 0.04700
C 	C 	0.20270 0.71920 0.50240 0.04600
C 	C 	0.25670 0.79470 0.52980 -0.05700
C 	C 	0.49510 0.73530 0.80190 0.03800
C 	C 	0.38660 0.81250 0.46310 -0.06100
C 	C 	0.92210 0.26680 0.43380 0.32900
C 	C 	0.86900 0.04830 0.52400 0.04100
C 	C 	0.61090 0.63890 0.75120 0.05100
C 	C 	0.03330 0.12210 0.66280 -0.05900
C 	C 	0.92550 0.12070 0.49480 -0.06400
C 	C 	0.51950 0.86470 0.67292 0.37000
C 	C 	0.35040 0.84090 0.51080 -0.04200
C 	C 	0.32730 0.73680 0.43770 0.05000
C 	C 	0.47690 0.80340 0.76200 -0.05000
C 	C 	0.41530 0.91910 0.54190 0.35900
C 	C 	0.53270 0.78830 0.71600 -0.04400
C 	C 	0.74120 0.17100 0.46230 -0.05700
C 	C 	0.04630 0.94820 0.65640 -0.06300
C 	C 	0.60080 0.70390 0.71060 -0.05900
C 	C 	0.69060 0.09790 0.49160 0.04600
C 	C 	0.86120 0.18500 0.46400 -0.03100
C 	C 	0.97700 0.03260 0.65810 -0.03200
C 	C 	0.84430 0.02810 0.65020 0.31600
C 	C 	0.65430 0.37420 0.33750 0.05200
C 	C 	0.66710 0.54320 0.34310 0.05100
C 	C 	0.70270 0.78080 0.49760 0.04600
C 	C 	0.75670 0.70530 0.47020 -0.05700
C 	C 	0.99510 0.76470 0.19810 0.04000
C 	C 	0.88660 0.68750 0.53690 -0.06100
C 	C 	0.42210 0.23320 0.56620 0.33200
C 	C 	0.36900 0.45170 0.47600 0.03800
C 	C 	0.11090 0.86110 0.24880 0.05000
C 	C 	0.53330 0.37790 0.33720 -0.07100
C 	C 	0.42550 0.37930 0.50520 -0.05700
C 	C 	0.01950 0.63530 0.32708 0.37000
C 	C 	0.85040 0.65910 0.48920 -0.04200
C 	C 	0.82730 0.76320 0.56230 0.05100
C 	C 	0.97690 0.69660 0.23800 -0.04800
C 	C 	0.91530 0.58090 0.45810 0.35900
C 	C 	0.03270 0.71170 0.28400 -0.04600
C 	C 	0.24120 0.32900 0.53770 -0.05500
C 	C 	0.54630 0.55180 0.34360 -0.06800
C 	C 	0.10080 0.79610 0.28940 -0.05900
C 	C 	0.19060 0.40210 0.50840 0.04500
C 	C 	0.36120 0.31500 0.53600 -0.03400
C 	C 	0.47700 0.46740 0.34190 -0.02300
C 	C 	0.34430 0.47190 0.34980 0.31500
C 	C 	0.84570 0.62580 0.83750 0.05000
C 	C 	0.83290 0.45680 0.84310 0.05000
C 	C 	0.79730 0.21920 0.99760 0.04500
C 	C 	0.74330 0.29470 0.97020 -0.05600
C 	C 	0.50490 0.23530 0.69810 0.03700
C 	C 	0.61340 0.31250 0.03690 -0.06000
C 	C 	0.07790 0.76680 0.06620 0.32700
C 	C 	0.13100 0.54830 0.97600 0.04200
C 	C 	0.38910 0.13890 0.74880 0.05100
C 	C 	0.96670 0.62210 0.83720 -0.06700
C 	C 	0.07450 0.62070 0.00520 -0.06400
C 	C 	0.48050 0.36470 0.82708 0.37000
C 	C 	0.64960 0.34090 0.98920 -0.04300
C 	C 	0.67270 0.23680 0.06230 0.05000
C 	C 	0.52310 0.30340 0.73800 -0.05000
C 	C 	0.58470 0.41910 0.95810 0.35900
C 	C 	0.46730 0.28830 0.78400 -0.04400
C 	C 	0.25880 0.67100 0.03770 -0.05700
C 	C 	0.95370 0.44820 0.84360 -0.06600
C 	C 	0.39920 0.20390 0.78940 -0.05900
C 	C 	0.30940 0.59790 0.00840 0.04600
C 	C 	0.13880 0.68500 0.03600 -0.03100
C 	C 	0.02300 0.53260 0.84190 -0.02600
C 	C 	0.15570 0.52810 0.84980 0.31700
N 	N 	0.27840 0.95500 0.15900 -0.21000
N 	N 	0.74910 0.96240 0.02271 -0.20700
N 	N 	0.93840 0.34700 0.29646 -0.21500
N 	N 	0.26100 0.31220 0.95732 -0.21500
N 	N 	0.22160 0.04500 0.65900 -0.20600
N 	N 	0.75090 0.03760 0.52271 -0.20900
N 	N 	0.56160 0.65300 0.79646 -0.21400
N 	N 	0.23900 0.68780 0.45732 -0.21500
N 	N 	0.72160 0.45500 0.34100 -0.20900
N 	N 	0.25090 0.46240 0.47729 -0.20800
N 	N 	0.06160 0.84700 0.20354 -0.21600
N 	N 	0.73900 0.81220 0.54268 -0.21500
N 	N 	0.77840 0.54500 0.84100 -0.20800
N 	N 	0.24910 0.53760 0.97729 -0.20800
N 	N 	0.43840 0.15300 0.70354 -0.21400
N 	N 	0.76100 0.18780 0.04268 -0.21500
O 	O 	0.91240 0.92730 0.11416 -0.64800
O 	O 	0.71510 0.89900 0.16442 -0.29000
O 	O 	0.47000 0.72450 0.94008 -0.30700
O 	O 	0.64080 0.67980 0.90514 -0.40400
O 	O 	0.69330 0.04900 0.12742 -0.40100
O 	O 	0.05010 0.06490 0.18225 -0.43000
O 	O 	0.92030 0.14970 0.13352 -0.42100
O 	O 	0.13850 0.04040 0.07763 -0.41300
O 	O 	0.97840 0.06630 0.02896 -0.42500
O 	O 	0.58760 0.07270 0.61416 -0.64900
O 	O 	0.78490 0.10100 0.66442 -0.29100
O 	O 	0.03000 0.27550 0.44008 -0.30500
O 	O 	0.85920 0.32020 0.40514 -0.40400
O 	O 	0.80670 0.95100 0.62742 -0.39800
O 	O 	0.44990 0.93510 0.68225 -0.43200
O 	O 	0.57970 0.85030 0.63352 -0.42200
O 	O 	0.36150 0.95960 0.57763 -0.41300
O 	O 	0.52160 0.93370 0.52896 -0.42300
O 	O 	0.08760 0.42730 0.38584 -0.64900
O 	O 	0.28490 0.39900 0.33558 -0.29000
O 	O 	0.53000 0.22450 0.55992 -0.30700
O 	O 	0.35920 0.17980 0.59486 -0.40400
O 	O 	0.30670 0.54900 0.37258 -0.40000
O 	O 	0.94990 0.56490 0.31775 -0.43100
O 	O 	0.07970 0.64970 0.36648 -0.42200
O 	O 	0.86150 0.54040 0.42237 -0.41300
O 	O 	0.02160 0.56630 0.47104 -0.42300
O 	O 	0.41240 0.57270 0.88584 -0.64900
O 	O 	0.21510 0.60100 0.83558 -0.29100
O 	O 	0.97000 0.77550 0.05992 -0.30400
O 	O 	0.14080 0.82020 0.09486 -0.40400
O 	O 	0.19330 0.45100 0.87258 -0.40000
O 	O 	0.55010 0.43510 0.81775 -0.43200
O 	O 	0.42030 0.35030 0.86648 -0.42200
O 	O 	0.63850 0.45960 0.92237 -0.41300
O 	O 	0.47840 0.43370 0.97104 -0.42300
