data_crystal

_cell_length_a 11.43980
_cell_length_b 13.29550
_cell_length_c 26.24830
_cell_angle_alpha 90.00000
_cell_angle_beta  90.00000
_cell_angle_gamma 90.00000

_symmetry_space_group_name_	'P 1'
_symmetry_space_group_name_H-M	'P 1'

loop_
_symmetry_equiv_pos_as_xyz
  x,y,z

loop_
_atom_site_label
_atom_site_type_symbol
_atom_site_fract_x
_atom_site_fract_y
_atom_site_fract_z
_atom_site_charge
Co	Co	0.57416 0.44224 0.13705 1.18000
Co	Co	0.31797 0.56246 0.08000 1.17600
Co	Co	0.92584 0.55776 0.63705 1.17900
Co	Co	0.18203 0.43754 0.58000 1.17500
Co	Co	0.42584 0.94224 0.36295 1.17900
Co	Co	0.68203 0.06246 0.42000 1.17600
Co	Co	0.07416 0.05776 0.86295 1.17700
Co	Co	0.81797 0.93754 0.92000 1.17500
H 	H 	0.34420 0.40890 0.14410 0.23100
H 	H 	0.38370 0.37150 0.09010 0.23900
H 	H 	0.76520 0.60500 0.14980 0.01400
H 	H 	0.96550 0.62090 0.14630 0.06900
H 	H 	0.99010 0.32470 0.16850 0.07500
H 	H 	0.78860 0.31590 0.16600 0.01100
H 	H 	0.86820 0.08360 0.01040 0.02500
H 	H 	0.78250 0.20610 0.05930 0.07000
H 	H 	0.47500 0.13140 0.99860 0.07400
H 	H 	0.56750 0.00680 0.95380 0.01400
H 	H 	0.36520 0.81800 0.18270 0.06700
H 	H 	0.36680 0.92750 0.24980 0.01300
H 	H 	0.53100 0.73490 0.33460 0.01500
H 	H 	0.54230 0.62180 0.26950 0.06800
H 	H 	0.75660 0.68260 0.06030 0.06100
H 	H 	0.84140 0.81180 0.01650 0.01900
H 	H 	0.62610 0.77530 0.90370 0.02000
H 	H 	0.52620 0.65490 0.94740 0.06200
H 	H 	0.15580 0.59110 0.64410 0.23100
H 	H 	0.11630 0.62850 0.59010 0.23900
H 	H 	0.73480 0.39500 0.64980 0.01500
H 	H 	0.53450 0.37910 0.64630 0.07000
H 	H 	0.50990 0.67530 0.66850 0.07500
H 	H 	0.71140 0.68410 0.66600 0.01100
H 	H 	0.63180 0.91640 0.51040 0.02400
H 	H 	0.71750 0.79390 0.55930 0.07100
H 	H 	0.02500 0.86860 0.49860 0.07900
H 	H 	0.93250 0.99320 0.45380 0.01100
H 	H 	0.13480 0.18200 0.68270 0.06600
H 	H 	0.13320 0.07250 0.74980 0.01300
H 	H 	0.96900 0.26510 0.83460 0.02000
H 	H 	0.95770 0.37820 0.76950 0.06500
H 	H 	0.74340 0.31740 0.56030 0.06200
H 	H 	0.65860 0.18820 0.51650 0.01900
H 	H 	0.87390 0.22470 0.40370 0.02000
H 	H 	0.97380 0.34510 0.44740 0.06200
H 	H 	0.65580 0.90890 0.35590 0.23100
H 	H 	0.61630 0.87150 0.40990 0.23900
H 	H 	0.23480 0.10500 0.35020 0.01600
H 	H 	0.03450 0.12090 0.35370 0.06800
H 	H 	0.00990 0.82470 0.33150 0.07300
H 	H 	0.21140 0.81590 0.33400 0.01200
H 	H 	0.13180 0.58360 0.48960 0.02400
H 	H 	0.21750 0.70610 0.44070 0.07100
H 	H 	0.52500 0.63140 0.50140 0.07500
H 	H 	0.43250 0.50680 0.54620 0.01400
H 	H 	0.63480 0.31800 0.31730 0.06700
H 	H 	0.63320 0.42750 0.25020 0.01200
H 	H 	0.46900 0.23490 0.16540 0.01500
H 	H 	0.45770 0.12180 0.23050 0.06800
H 	H 	0.24340 0.18260 0.43970 0.06200
H 	H 	0.15860 0.31180 0.48350 0.01900
H 	H 	0.37390 0.27530 0.59630 0.02000
H 	H 	0.47380 0.15490 0.55260 0.06200
H 	H 	0.84420 0.09110 0.85590 0.23100
H 	H 	0.88370 0.12850 0.90990 0.23900
H 	H 	0.26520 0.89500 0.85020 0.01400
H 	H 	0.46550 0.87910 0.85370 0.07000
H 	H 	0.49010 0.17530 0.83150 0.07500
H 	H 	0.28860 0.18410 0.83400 0.01100
H 	H 	0.36820 0.41640 0.98960 0.02400
H 	H 	0.28250 0.29390 0.94070 0.07100
H 	H 	0.97500 0.36860 0.00140 0.07700
H 	H 	0.06750 0.49320 0.04620 0.01300
H 	H 	0.86520 0.68200 0.81730 0.06600
H 	H 	0.86680 0.57250 0.75020 0.01300
H 	H 	0.03100 0.76510 0.66540 0.01800
H 	H 	0.04230 0.87820 0.73050 0.06600
H 	H 	0.25660 0.81740 0.93970 0.06200
H 	H 	0.34140 0.68820 0.98350 0.01900
H 	H 	0.12610 0.72470 0.09630 0.02000
H 	H 	0.02620 0.84510 0.05260 0.06200
C 	C 	0.81110 0.54730 0.15184 0.05800
C 	C 	0.93160 0.55780 0.15035 -0.07800
C 	C 	0.00020 0.47340 0.15491 -0.01800
C 	C 	0.94620 0.38240 0.16281 -0.08000
C 	C 	0.82460 0.37810 0.16209 0.05600
C 	C 	0.13340 0.47730 0.14878 0.32300
C 	C 	0.78790 0.09330 0.00786 0.04600
C 	C 	0.73680 0.16740 0.03747 -0.06200
C 	C 	0.61800 0.18370 0.03443 -0.02800
C 	C 	0.55530 0.12280 0.00195 -0.07000
C 	C 	0.61190 0.04900 0.97443 0.04900
C 	C 	0.55720 0.26470 0.06474 0.33100
C 	C 	0.46070 0.63290 0.17420 0.36900
C 	C 	0.45440 0.70690 0.21780 -0.04200
C 	C 	0.40090 0.79970 0.21312 -0.06100
C 	C 	0.40110 0.86460 0.25392 0.04300
C 	C 	0.49820 0.75220 0.30339 0.04800
C 	C 	0.50480 0.68320 0.26462 -0.06200
C 	C 	0.56200 0.58060 0.04197 0.36700
C 	C 	0.62770 0.65630 0.00987 -0.04800
C 	C 	0.72580 0.70270 0.02910 -0.05400
C 	C 	0.77790 0.77880 0.00198 0.03400
C 	C 	0.65080 0.75880 0.93640 0.04300
C 	C 	0.59120 0.68520 0.96216 -0.05700
C 	C 	0.68890 0.45270 0.65184 0.05800
C 	C 	0.56840 0.44220 0.65035 -0.07800
C 	C 	0.49980 0.52660 0.65491 -0.01800
C 	C 	0.55380 0.61760 0.66281 -0.08000
C 	C 	0.67540 0.62190 0.66209 0.05600
C 	C 	0.36660 0.52270 0.64878 0.32300
C 	C 	0.71210 0.90670 0.50786 0.04800
C 	C 	0.76320 0.83260 0.53747 -0.06500
C 	C 	0.88200 0.81630 0.53443 -0.02300
C 	C 	0.94470 0.87720 0.50195 -0.07900
C 	C 	0.88810 0.95100 0.47443 0.05400
C 	C 	0.94280 0.73530 0.56474 0.32700
C 	C 	0.03930 0.36710 0.67420 0.37100
C 	C 	0.04560 0.29310 0.71780 -0.04700
C 	C 	0.09910 0.20030 0.71312 -0.05700
C 	C 	0.09890 0.13540 0.75392 0.04100
C 	C 	0.00180 0.24780 0.80339 0.03800
C 	C 	0.99520 0.31680 0.76462 -0.05200
C 	C 	0.93800 0.41940 0.54197 0.36700
C 	C 	0.87230 0.34370 0.50987 -0.04600
C 	C 	0.77420 0.29730 0.52910 -0.05500
C 	C 	0.72210 0.22120 0.50198 0.03600
C 	C 	0.84920 0.24120 0.43640 0.04400
C 	C 	0.90880 0.31480 0.46216 -0.05900
C 	C 	0.18890 0.04730 0.34816 0.05500
C 	C 	0.06840 0.05780 0.34965 -0.07300
C 	C 	0.99980 0.97340 0.34509 -0.02500
C 	C 	0.05380 0.88240 0.33719 -0.07200
C 	C 	0.17540 0.87810 0.33791 0.05300
C 	C 	0.86660 0.97730 0.35122 0.32200
C 	C 	0.21210 0.59330 0.49214 0.04600
C 	C 	0.26320 0.66740 0.46253 -0.06200
C 	C 	0.38200 0.68370 0.46557 -0.02700
C 	C 	0.44470 0.62280 0.49805 -0.07100
C 	C 	0.38810 0.54900 0.52557 0.05000
C 	C 	0.44280 0.76470 0.43526 0.33100
C 	C 	0.53930 0.13290 0.32580 0.36900
C 	C 	0.54560 0.20690 0.28220 -0.04100
C 	C 	0.59910 0.29970 0.28688 -0.06100
C 	C 	0.59890 0.36460 0.24608 0.04300
C 	C 	0.50180 0.25220 0.19661 0.04800
C 	C 	0.49520 0.18320 0.23538 -0.06200
C 	C 	0.43800 0.08060 0.45803 0.36700
C 	C 	0.37230 0.15630 0.49013 -0.04600
C 	C 	0.27420 0.20270 0.47090 -0.05500
C 	C 	0.22210 0.27880 0.49802 0.03600
C 	C 	0.34920 0.25880 0.56360 0.04400
C 	C 	0.40880 0.18520 0.53784 -0.05900
C 	C 	0.31110 0.95270 0.84816 0.06000
C 	C 	0.43160 0.94220 0.84965 -0.07800
C 	C 	0.50020 0.02660 0.84509 -0.01900
C 	C 	0.44620 0.11760 0.83719 -0.08000
C 	C 	0.32460 0.12190 0.83791 0.05600
C 	C 	0.63340 0.02270 0.85122 0.32400
C 	C 	0.28790 0.40670 0.99214 0.04700
C 	C 	0.23680 0.33260 0.96253 -0.06400
C 	C 	0.11800 0.31630 0.96557 -0.02400
C 	C 	0.05530 0.37720 0.99805 -0.07700
C 	C 	0.11190 0.45100 0.02557 0.05300
C 	C 	0.05720 0.23530 0.93526 0.32600
C 	C 	0.96070 0.86710 0.82580 0.36800
C 	C 	0.95440 0.79310 0.78220 -0.04500
C 	C 	0.90090 0.70030 0.78688 -0.05900
C 	C 	0.90110 0.63540 0.74608 0.04200
C 	C 	0.99820 0.74780 0.69661 0.04100
C 	C 	0.00480 0.81680 0.73538 -0.05500
C 	C 	0.06200 0.91940 0.95803 0.36800
C 	C 	0.12770 0.84370 0.99013 -0.04700
C 	C 	0.22580 0.79730 0.97090 -0.05400
C 	C 	0.27790 0.72120 0.99802 0.03600
C 	C 	0.15080 0.74120 0.06360 0.04400
C 	C 	0.09120 0.81480 0.03784 -0.05900
N 	N 	0.75790 0.45880 0.15609 -0.20900
N 	N 	0.72760 0.03540 0.97599 -0.20700
N 	N 	0.74190 0.80800 0.95557 -0.21000
N 	N 	0.44800 0.84221 0.29945 -0.21600
N 	N 	0.74210 0.54120 0.65609 -0.20900
N 	N 	0.77240 0.96460 0.47599 -0.20900
N 	N 	0.75810 0.19200 0.45557 -0.21000
N 	N 	0.05200 0.15779 0.79945 -0.21500
N 	N 	0.24210 0.95880 0.34391 -0.20800
N 	N 	0.27240 0.53540 0.52401 -0.20700
N 	N 	0.25810 0.30800 0.54443 -0.21000
N 	N 	0.55200 0.34221 0.20055 -0.21600
N 	N 	0.25790 0.04120 0.84391 -0.21100
N 	N 	0.22760 0.46460 0.02401 -0.20800
N 	N 	0.24190 0.69200 0.04443 -0.21000
N 	N 	0.94800 0.65779 0.70055 -0.21500
O 	O 	0.39027 0.42634 0.11431 -0.66500
O 	O 	0.52783 0.56002 0.18141 -0.43700
O 	O 	0.39872 0.65115 0.13597 -0.41700
O 	O 	0.61573 0.53964 0.07700 -0.41800
O 	O 	0.45588 0.56801 0.03007 -0.43000
O 	O 	0.17176 0.55341 0.12642 -0.40500
O 	O 	0.19090 0.40420 0.16372 -0.29300
O 	O 	0.45000 0.27180 0.05967 -0.30500
O 	O 	0.62060 0.31858 0.09261 -0.40100
O 	O 	0.10973 0.57366 0.61431 -0.66400
O 	O 	0.97217 0.43998 0.68141 -0.43700
O 	O 	0.10128 0.34885 0.63597 -0.41800
O 	O 	0.88427 0.46036 0.57700 -0.41800
O 	O 	0.04412 0.43199 0.53007 -0.42900
O 	O 	0.32824 0.44659 0.62642 -0.40500
O 	O 	0.30910 0.59580 0.66372 -0.29300
O 	O 	0.05000 0.72820 0.55967 -0.30300
O 	O 	0.87940 0.68142 0.59261 -0.40000
O 	O 	0.60973 0.92634 0.38569 -0.66500
O 	O 	0.47217 0.06002 0.31859 -0.43700
O 	O 	0.60128 0.15115 0.36403 -0.41700
O 	O 	0.38427 0.03964 0.42300 -0.41800
O 	O 	0.54412 0.06801 0.46993 -0.42900
O 	O 	0.82824 0.05341 0.37358 -0.40300
O 	O 	0.80910 0.90420 0.33628 -0.29300
O 	O 	0.55000 0.77180 0.44033 -0.30500
O 	O 	0.37940 0.81858 0.40739 -0.40100
O 	O 	0.89027 0.07366 0.88569 -0.66300
O 	O 	0.02783 0.93998 0.81859 -0.43500
O 	O 	0.89872 0.84885 0.86403 -0.41700
O 	O 	0.11573 0.96036 0.92300 -0.41800
O 	O 	0.95588 0.93199 0.96993 -0.43100
O 	O 	0.67176 0.94659 0.87358 -0.40500
O 	O 	0.69090 0.09580 0.83628 -0.29300
O 	O 	0.95000 0.22820 0.94033 -0.30200
O 	O 	0.12060 0.18142 0.90739 -0.40100
