data_crystal

_cell_length_a 11.24900
_cell_length_b 13.23800
_cell_length_c 26.05000
_cell_angle_alpha 90.00000
_cell_angle_beta  90.00000
_cell_angle_gamma 90.00000

_symmetry_space_group_name_	'P 1'
_symmetry_space_group_name_H-M	'P 1'

loop_
_symmetry_equiv_pos_as_xyz
  x,y,z

loop_
_atom_site_label
_atom_site_type_symbol
_atom_site_fract_x
_atom_site_fract_y
_atom_site_fract_z
_atom_site_charge
Co	Co	0.66147 0.56092 0.92048 1.17700
Co	Co	0.40802 0.43849 0.86307 1.18000
Co	Co	0.83853 0.43908 0.42048 1.17600
Co	Co	0.09198 0.56151 0.36307 1.17900
Co	Co	0.33853 0.06092 0.57952 1.17600
Co	Co	0.59198 0.93849 0.63693 1.18000
Co	Co	0.16147 0.93908 0.07952 1.17500
Co	Co	0.90802 0.06151 0.13693 1.17800
H 	H 	0.62430 0.81490 0.82160 0.06400
H 	H 	0.43440 0.63000 0.73130 0.06400
H 	H 	0.70550 0.30390 0.06510 0.06700
H 	H 	0.61450 0.41980 0.01240 0.02800
H 	H 	0.01550 0.61720 0.84450 0.06400
H 	H 	0.98320 0.31560 0.83680 0.06600
H 	H 	0.91960 0.49480 0.94720 0.01800
H 	H 	0.34000 0.76430 0.10150 0.02200
H 	H 	0.64390 0.92400 0.75170 0.01400
H 	H 	0.21990 0.60000 0.84250 0.01800
H 	H 	0.22520 0.68540 0.93680 0.05900
H 	H 	0.02190 0.37240 0.99490 0.07100
H 	H 	0.14490 0.82390 0.98040 0.01900
H 	H 	0.19150 0.30410 0.83790 0.01500
H 	H 	0.43680 0.63630 0.05870 0.05800
H 	H 	0.46030 0.73960 0.66380 0.02100
H 	H 	0.64160 0.40830 0.85630 0.22500
H 	H 	0.60010 0.36990 0.91160 0.23100
H 	H 	0.87570 0.18510 0.32160 0.06300
H 	H 	0.06560 0.37000 0.23130 0.06300
H 	H 	0.79450 0.69610 0.56510 0.06700
H 	H 	0.88550 0.58020 0.51240 0.02800
H 	H 	0.48450 0.38280 0.34450 0.06500
H 	H 	0.51680 0.68440 0.33680 0.06800
H 	H 	0.58040 0.50520 0.44720 0.01900
H 	H 	0.16000 0.23570 0.60150 0.02200
H 	H 	0.85610 0.07600 0.25170 0.01300
H 	H 	0.28010 0.40000 0.34250 0.01800
H 	H 	0.27480 0.31460 0.43680 0.06000
H 	H 	0.47810 0.62760 0.49490 0.07000
H 	H 	0.35510 0.17610 0.48040 0.01900
H 	H 	0.30850 0.69590 0.33790 0.01400
H 	H 	0.06320 0.36370 0.55870 0.05900
H 	H 	0.03970 0.26040 0.16380 0.02100
H 	H 	0.85840 0.59170 0.35630 0.22500
H 	H 	0.89990 0.63010 0.41160 0.23100
H 	H 	0.37570 0.31490 0.67840 0.06400
H 	H 	0.56560 0.13000 0.76870 0.06400
H 	H 	0.29450 0.80390 0.43490 0.06700
H 	H 	0.38550 0.91980 0.48760 0.02700
H 	H 	0.98450 0.11720 0.65550 0.06300
H 	H 	0.01680 0.81560 0.66320 0.06300
H 	H 	0.08040 0.99480 0.55280 0.01700
H 	H 	0.66000 0.26430 0.39850 0.02100
H 	H 	0.35610 0.42400 0.74830 0.01300
H 	H 	0.78010 0.10000 0.65750 0.01900
H 	H 	0.77480 0.18540 0.56320 0.05900
H 	H 	0.97810 0.87240 0.50510 0.07400
H 	H 	0.85510 0.32390 0.51960 0.01900
H 	H 	0.80850 0.80410 0.66210 0.01600
H 	H 	0.56320 0.13630 0.44130 0.05900
H 	H 	0.53970 0.23960 0.83620 0.02100
H 	H 	0.35840 0.90830 0.64370 0.22500
H 	H 	0.39990 0.86990 0.58840 0.23100
H 	H 	0.12430 0.68510 0.17840 0.06400
H 	H 	0.93440 0.87000 0.26870 0.06400
H 	H 	0.20550 0.19610 0.93490 0.06700
H 	H 	0.11450 0.08020 0.98760 0.02800
H 	H 	0.51550 0.88280 0.15550 0.06500
H 	H 	0.48320 0.18440 0.16320 0.06800
H 	H 	0.41960 0.00520 0.05280 0.01900
H 	H 	0.84000 0.73570 0.89850 0.02200
H 	H 	0.14390 0.57600 0.24830 0.01400
H 	H 	0.71990 0.90000 0.15750 0.01700
H 	H 	0.72520 0.81460 0.06320 0.05900
H 	H 	0.52190 0.12760 0.00510 0.07000
H 	H 	0.64490 0.67610 0.01960 0.01900
H 	H 	0.69150 0.19590 0.16210 0.01400
H 	H 	0.93680 0.86370 0.94130 0.05900
H 	H 	0.96030 0.76040 0.33620 0.02100
H 	H 	0.14160 0.09170 0.14370 0.22500
H 	H 	0.10010 0.13010 0.08840 0.23100
C 	C 	0.84130 0.47600 0.84620 0.31400
C 	C 	0.97680 0.46720 0.84140 -0.02600
C 	C 	0.52950 0.70880 0.78370 -0.04400
C 	C 	0.59040 0.79740 0.78940 -0.05300
C 	C 	0.47990 0.68970 0.73620 -0.04900
C 	C 	0.93600 0.23970 0.06470 0.31900
C 	C 	0.75050 0.34060 0.04050 -0.05500
C 	C 	0.69810 0.41090 0.00970 0.03900
C 	C 	0.04980 0.55170 0.84310 -0.06600
C 	C 	0.03000 0.37520 0.83900 -0.06300
C 	C 	0.87670 0.45410 0.97090 0.03900
C 	C 	0.31900 0.75050 0.06680 0.03800
C 	C 	0.60220 0.86230 0.74710 0.04300
C 	C 	0.17150 0.54120 0.84280 0.05000
C 	C 	0.87490 0.32370 0.03450 -0.02800
C 	C 	0.41420 0.57400 0.95970 0.35700
C 	C 	0.34640 0.65020 0.99170 -0.04700
C 	C 	0.25420 0.70330 0.96990 -0.04900
C 	C 	0.93880 0.38180 0.99940 -0.06100
C 	C 	0.20370 0.78410 0.99700 0.03600
C 	C 	0.51680 0.63410 0.82700 0.35200
C 	C 	0.15500 0.36870 0.83980 0.04500
C 	C 	0.37630 0.67360 0.04160 -0.05000
C 	C 	0.49500 0.75530 0.69610 0.03600
C 	C 	0.65870 0.52400 0.34620 0.31300
C 	C 	0.52320 0.53280 0.34140 -0.02300
C 	C 	0.97050 0.29120 0.28370 -0.04600
C 	C 	0.90960 0.20260 0.28940 -0.05300
C 	C 	0.02010 0.31030 0.23620 -0.04700
C 	C 	0.56400 0.76030 0.56470 0.32300
C 	C 	0.74950 0.65940 0.54050 -0.05500
C 	C 	0.80190 0.58910 0.50970 0.03900
C 	C 	0.45020 0.44830 0.34310 -0.06800
C 	C 	0.47000 0.62480 0.33900 -0.06700
C 	C 	0.62330 0.54590 0.47090 0.03800
C 	C 	0.18100 0.24950 0.56680 0.03800
C 	C 	0.89780 0.13770 0.24710 0.04300
C 	C 	0.32850 0.45880 0.34280 0.05100
C 	C 	0.62510 0.67630 0.53450 -0.02900
C 	C 	0.08580 0.42600 0.45970 0.35600
C 	C 	0.15360 0.34980 0.49170 -0.04600
C 	C 	0.24580 0.29670 0.46990 -0.04900
C 	C 	0.56120 0.61820 0.49940 -0.05900
C 	C 	0.29630 0.21590 0.49700 0.03700
C 	C 	0.98320 0.36590 0.32700 0.35200
C 	C 	0.34500 0.63130 0.33980 0.04600
C 	C 	0.12370 0.32640 0.54160 -0.05100
C 	C 	0.00500 0.24470 0.19610 0.03800
C 	C 	0.15870 0.97600 0.65380 0.31300
C 	C 	0.02320 0.96720 0.65860 -0.03100
C 	C 	0.47050 0.20880 0.71630 -0.04400
C 	C 	0.40960 0.29740 0.71060 -0.05300
C 	C 	0.52010 0.18970 0.76380 -0.04900
C 	C 	0.06400 0.73970 0.43530 0.32000
C 	C 	0.24950 0.84060 0.45950 -0.05700
C 	C 	0.30190 0.91090 0.49030 0.04000
C 	C 	0.95020 0.05170 0.65690 -0.06300
C 	C 	0.97000 0.87520 0.66100 -0.05500
C 	C 	0.12330 0.95410 0.52910 0.04100
C 	C 	0.68100 0.25050 0.43320 0.03800
C 	C 	0.39780 0.36230 0.75290 0.04300
C 	C 	0.82850 0.04120 0.65720 0.04700
C 	C 	0.12510 0.82370 0.46550 -0.02600
C 	C 	0.58580 0.07400 0.54030 0.35600
C 	C 	0.65360 0.15020 0.50830 -0.04700
C 	C 	0.74580 0.20330 0.53010 -0.04900
C 	C 	0.06120 0.88180 0.50060 -0.06600
C 	C 	0.79630 0.28410 0.50300 0.03700
C 	C 	0.48320 0.13410 0.67300 0.35200
C 	C 	0.84500 0.86870 0.66020 0.04200
C 	C 	0.62370 0.17360 0.45840 -0.05100
C 	C 	0.50500 0.25530 0.80390 0.03600
C 	C 	0.34130 0.02400 0.15380 0.31400
C 	C 	0.47680 0.03280 0.15860 -0.02400
C 	C 	0.02950 0.79120 0.21630 -0.04500
C 	C 	0.09040 0.70260 0.21060 -0.05300
C 	C 	0.97990 0.81030 0.26380 -0.04800
C 	C 	0.43600 0.26030 0.93530 0.32300
C 	C 	0.25050 0.15940 0.95950 -0.05500
C 	C 	0.19810 0.08910 0.99030 0.04000
C 	C 	0.54980 0.94830 0.15690 -0.06800
C 	C 	0.53000 0.12480 0.16100 -0.06700
C 	C 	0.37670 0.04590 0.02910 0.03900
C 	C 	0.81900 0.74950 0.93320 0.03800
C 	C 	0.10220 0.63770 0.25290 0.04300
C 	C 	0.67150 0.95880 0.15720 0.05200
C 	C 	0.37490 0.17630 0.96550 -0.02800
C 	C 	0.91420 0.92600 0.04030 0.35700
C 	C 	0.84640 0.84980 0.00830 -0.04700
C 	C 	0.75420 0.79670 0.03010 -0.04900
C 	C 	0.43880 0.11820 0.00060 -0.06000
C 	C 	0.70370 0.71590 0.00300 0.03600
C 	C 	0.01680 0.86590 0.17300 0.35100
C 	C 	0.65500 0.13130 0.16020 0.04600
C 	C 	0.87630 0.82640 0.95840 -0.05000
C 	C 	0.99500 0.74470 0.30390 0.03700
N 	N 	0.22350 0.45060 0.84300 -0.20800
N 	N 	0.55810 0.84190 0.70110 -0.21300
N 	N 	0.75810 0.46870 0.97570 -0.20700
N 	N 	0.23430 0.80730 0.04460 -0.21000
N 	N 	0.27650 0.54940 0.34300 -0.20900
N 	N 	0.94190 0.15810 0.20110 -0.21500
N 	N 	0.74190 0.53130 0.47570 -0.20800
N 	N 	0.26570 0.19270 0.54460 -0.21000
N 	N 	0.77650 0.95060 0.65700 -0.20700
N 	N 	0.44190 0.34190 0.79890 -0.21300
N 	N 	0.24190 0.96870 0.52430 -0.20900
N 	N 	0.76570 0.30730 0.45540 -0.21000
N 	N 	0.72350 0.04940 0.15700 -0.21000
N 	N 	0.05810 0.65810 0.29890 -0.21400
N 	N 	0.25810 0.03130 0.02430 -0.20700
N 	N 	0.73430 0.69270 0.95540 -0.21000
O 	O 	0.52160 0.56180 0.97216 -0.42300
O 	O 	0.57240 0.65300 0.86768 -0.41300
O 	O 	0.44960 0.55900 0.81793 -0.42400
O 	O 	0.35950 0.53230 0.92375 -0.41200
O 	O 	0.80510 0.55300 0.87060 -0.39900
O 	O 	0.86900 0.18700 0.09271 -0.40100
O 	O 	0.78030 0.40520 0.82940 -0.29300
O 	O 	0.04590 0.23060 0.05900 -0.29800
O 	O 	0.59270 0.42580 0.88662 -0.65600
O 	O 	0.97840 0.43820 0.47216 -0.42300
O 	O 	0.92760 0.34700 0.36768 -0.41300
O 	O 	0.05040 0.44100 0.31793 -0.42300
O 	O 	0.14050 0.46770 0.42375 -0.41200
O 	O 	0.69490 0.44700 0.37060 -0.39900
O 	O 	0.63100 0.81300 0.59271 -0.40100
O 	O 	0.71970 0.59480 0.32940 -0.29200
O 	O 	0.45410 0.76940 0.55900 -0.30100
O 	O 	0.90730 0.57420 0.38662 -0.65600
O 	O 	0.47840 0.06180 0.52784 -0.42200
O 	O 	0.42760 0.15300 0.63232 -0.41300
O 	O 	0.55040 0.05900 0.68207 -0.42400
O 	O 	0.64050 0.03230 0.57625 -0.41200
O 	O 	0.19490 0.05300 0.62940 -0.39700
O 	O 	0.13100 0.68700 0.40729 -0.40000
O 	O 	0.21970 0.90520 0.67060 -0.29300
O 	O 	0.95410 0.73060 0.44100 -0.29900
O 	O 	0.40730 0.92580 0.61338 -0.65600
O 	O 	0.02160 0.93820 0.02784 -0.42400
O 	O 	0.07240 0.84700 0.13232 -0.41300
O 	O 	0.94960 0.94100 0.18207 -0.42200
O 	O 	0.85950 0.96770 0.07625 -0.41100
O 	O 	0.30510 0.94700 0.12940 -0.39900
O 	O 	0.36900 0.31300 0.90729 -0.40100
O 	O 	0.28030 0.09480 0.17060 -0.29200
O 	O 	0.54590 0.26940 0.94100 -0.30100
O 	O 	0.09270 0.07420 0.11338 -0.65400
