data_crystal

_cell_length_a 11.26900
_cell_length_b 13.38200
_cell_length_c 25.59200
_cell_angle_alpha 90.00000
_cell_angle_beta  90.00000
_cell_angle_gamma 90.00000

_symmetry_space_group_name_	'P 1'
_symmetry_space_group_name_H-M	'P 1'

loop_
_symmetry_equiv_pos_as_xyz
  x,y,z

loop_
_atom_site_label
_atom_site_type_symbol
_atom_site_fract_x
_atom_site_fract_y
_atom_site_fract_z
_atom_site_charge
Co	Co	0.91710 0.94008 0.63655 1.17800
Co	Co	0.17142 0.05968 0.57886 1.17500
Co	Co	0.58290 0.05992 0.13655 1.18000
Co	Co	0.32858 0.94032 0.07886 1.17700
Co	Co	0.08290 0.44008 0.86345 1.18000
Co	Co	0.82858 0.55968 0.92114 1.17700
Co	Co	0.41710 0.55992 0.36345 1.18000
Co	Co	0.67142 0.44032 0.42114 1.17700
H 	H 	0.10820 0.87130 0.58760 0.22900
H 	H 	0.14930 0.90910 0.64410 0.22200
H 	H 	0.71230 0.70850 0.56000 0.06800
H 	H 	0.13240 0.31310 0.67700 0.06300
H 	H 	0.62290 0.58620 0.50950 0.02500
H 	H 	0.14440 0.42450 0.74680 0.01500
H 	H 	0.93030 0.49430 0.45510 0.01500
H 	H 	0.92120 0.13820 0.76620 0.06400
H 	H 	0.52180 0.11480 0.65840 0.06300
H 	H 	0.49660 0.81400 0.66780 0.06700
H 	H 	0.03110 0.61390 0.50330 0.07100
H 	H 	0.72650 0.09900 0.65640 0.02000
H 	H 	0.85320 0.27290 0.39780 0.01900
H 	H 	0.73820 0.18830 0.56290 0.06300
H 	H 	0.95610 0.14710 0.44050 0.06200
H 	H 	0.70270 0.80530 0.66140 0.01600
H 	H 	0.94440 0.25140 0.83450 0.02100
H 	H 	0.64830 0.31240 0.51800 0.01500
H 	H 	0.39180 0.12870 0.08760 0.22900
H 	H 	0.35070 0.09090 0.14410 0.22200
H 	H 	0.78770 0.29150 0.06000 0.06700
H 	H 	0.36760 0.68690 0.17700 0.06300
H 	H 	0.87710 0.41380 0.00950 0.02500
H 	H 	0.35560 0.57550 0.24680 0.01500
H 	H 	0.56970 0.50570 0.95510 0.01600
H 	H 	0.57880 0.86180 0.26620 0.06400
H 	H 	0.97820 0.88520 0.15840 0.06100
H 	H 	0.00340 0.18600 0.16780 0.06400
H 	H 	0.46890 0.38610 0.00330 0.06900
H 	H 	0.77350 0.90100 0.15640 0.02200
H 	H 	0.64680 0.72710 0.89780 0.01900
H 	H 	0.76180 0.81170 0.06290 0.06300
H 	H 	0.54390 0.85290 0.94050 0.06200
H 	H 	0.79730 0.19470 0.16140 0.01700
H 	H 	0.55560 0.74860 0.33450 0.02100
H 	H 	0.85170 0.68760 0.01800 0.01500
H 	H 	0.89180 0.37130 0.91240 0.22900
H 	H 	0.85070 0.40910 0.85590 0.22200
H 	H 	0.28770 0.20850 0.94000 0.06800
H 	H 	0.86760 0.81310 0.82300 0.06300
H 	H 	0.37710 0.08620 0.99050 0.02500
H 	H 	0.85560 0.92450 0.75320 0.01500
H 	H 	0.06970 0.99430 0.04490 0.01800
H 	H 	0.07880 0.63820 0.73380 0.06400
H 	H 	0.47820 0.61480 0.84160 0.06300
H 	H 	0.50340 0.31400 0.83220 0.06700
H 	H 	0.96890 0.11390 0.99670 0.07300
H 	H 	0.27350 0.59900 0.84360 0.02100
H 	H 	0.14680 0.77290 0.10220 0.01900
H 	H 	0.26180 0.68830 0.93710 0.06300
H 	H 	0.04390 0.64710 0.05950 0.06200
H 	H 	0.29730 0.30530 0.83860 0.01600
H 	H 	0.05560 0.75140 0.66550 0.02000
H 	H 	0.35170 0.81240 0.98200 0.01600
H 	H 	0.60820 0.62870 0.41240 0.22800
H 	H 	0.64930 0.59090 0.35590 0.22200
H 	H 	0.21230 0.79150 0.44000 0.06800
H 	H 	0.63240 0.18690 0.32300 0.06300
H 	H 	0.12290 0.91380 0.49050 0.02600
H 	H 	0.64440 0.07550 0.25320 0.01600
H 	H 	0.43030 0.00570 0.54490 0.01500
H 	H 	0.42120 0.36180 0.23380 0.06400
H 	H 	0.02180 0.38520 0.34160 0.06100
H 	H 	0.99660 0.68600 0.33220 0.06400
H 	H 	0.53110 0.88610 0.49670 0.06900
H 	H 	0.22650 0.40100 0.34360 0.02100
H 	H 	0.35320 0.22710 0.60220 0.01900
H 	H 	0.23820 0.31170 0.43710 0.06300
H 	H 	0.45610 0.35290 0.55950 0.06200
H 	H 	0.20270 0.69470 0.33860 0.01800
H 	H 	0.44440 0.24860 0.16550 0.02100
H 	H 	0.14830 0.18760 0.48200 0.01500
C 	C 	0.35240 0.97160 0.65433 0.31800
C 	C 	0.75900 0.66630 0.53836 -0.05400
C 	C 	0.88350 0.67690 0.53632 -0.03200
C 	C 	0.09320 0.29894 0.70903 -0.05100
C 	C 	0.48580 0.96600 0.66009 -0.03200
C 	C 	0.70680 0.59320 0.50800 0.04100
C 	C 	0.92520 0.07516 0.53870 0.35500
C 	C 	0.94360 0.75980 0.56560 0.32100
C 	C 	0.10050 0.36450 0.75099 0.03900
C 	C 	0.88610 0.53950 0.47613 0.04500
C 	C 	0.96960 0.19570 0.76169 -0.04600
C 	C 	0.55690 0.05020 0.65857 -0.06000
C 	C 	0.02710 0.21230 0.71512 -0.04800
C 	C 	0.54190 0.87340 0.66358 -0.06300
C 	C 	0.94690 0.61040 0.50490 -0.06400
C 	C 	0.67900 0.04040 0.65727 0.04500
C 	C 	0.83180 0.25690 0.43272 0.04500
C 	C 	0.85830 0.15260 0.50709 -0.04000
C 	C 	0.02250 0.13447 0.67211 0.36600
C 	C 	0.76550 0.20480 0.52888 -0.06100
C 	C 	0.89230 0.18010 0.45751 -0.05900
C 	C 	0.66530 0.86890 0.66075 0.04500
C 	C 	0.98300 0.26400 0.80217 0.04000
C 	C 	0.71330 0.27910 0.50200 0.04800
C 	C 	0.14760 0.02840 0.15433 0.31600
C 	C 	0.74100 0.33370 0.03836 -0.05300
C 	C 	0.61650 0.32310 0.03632 -0.03400
C 	C 	0.40680 0.70106 0.20903 -0.05100
C 	C 	0.01420 0.03400 0.16009 -0.03600
C 	C 	0.79320 0.40680 0.00800 0.04000
C 	C 	0.57480 0.92484 0.03870 0.35300
C 	C 	0.55640 0.24020 0.06560 0.32500
C 	C 	0.39950 0.63550 0.25099 0.03900
C 	C 	0.61390 0.46050 0.97613 0.04400
C 	C 	0.53040 0.80430 0.26169 -0.04700
C 	C 	0.94310 0.94980 0.15857 -0.05700
C 	C 	0.47290 0.78770 0.21512 -0.04700
C 	C 	0.95810 0.12660 0.16358 -0.05500
C 	C 	0.55310 0.38960 0.00490 -0.06000
C 	C 	0.82100 0.95960 0.15727 0.04000
C 	C 	0.66820 0.74310 0.93272 0.04600
C 	C 	0.64170 0.84740 0.00709 -0.04000
C 	C 	0.47750 0.86553 0.17211 0.36800
C 	C 	0.73450 0.79520 0.02888 -0.06200
C 	C 	0.60770 0.81990 0.95751 -0.06000
C 	C 	0.83470 0.13110 0.16075 0.04200
C 	C 	0.51700 0.73600 0.30217 0.03900
C 	C 	0.78670 0.72090 0.00200 0.04800
C 	C 	0.64760 0.47160 0.84567 0.31700
C 	C 	0.24100 0.16630 0.96164 -0.05400
C 	C 	0.11650 0.17690 0.96368 -0.03200
C 	C 	0.90680 0.79894 0.79097 -0.05100
C 	C 	0.51420 0.46600 0.83991 -0.03100
C 	C 	0.29320 0.09320 0.99200 0.04100
C 	C 	0.07480 0.57516 0.96130 0.35300
C 	C 	0.05640 0.25980 0.93440 0.32200
C 	C 	0.89950 0.86450 0.74901 0.03900
C 	C 	0.11390 0.03950 0.02387 0.04100
C 	C 	0.03040 0.69570 0.73831 -0.04700
C 	C 	0.44310 0.55020 0.84143 -0.06000
C 	C 	0.97290 0.71230 0.78488 -0.04800
C 	C 	0.45810 0.37340 0.83642 -0.06300
C 	C 	0.05310 0.11040 0.99510 -0.06500
C 	C 	0.32100 0.54040 0.84273 0.04300
C 	C 	0.16820 0.75690 0.06728 0.04500
C 	C 	0.14170 0.65260 0.99291 -0.04100
C 	C 	0.97750 0.63447 0.82789 0.36800
C 	C 	0.23450 0.70480 0.97112 -0.06100
C 	C 	0.10770 0.68010 0.04249 -0.05800
C 	C 	0.33470 0.36890 0.83925 0.04500
C 	C 	0.01700 0.76400 0.69783 0.04100
C 	C 	0.28670 0.77910 0.99800 0.04700
C 	C 	0.85240 0.52840 0.34567 0.31900
C 	C 	0.25900 0.83370 0.46164 -0.05300
C 	C 	0.38350 0.82310 0.46368 -0.03400
C 	C 	0.59320 0.20106 0.29097 -0.05100
C 	C 	0.98580 0.53400 0.33991 -0.03600
C 	C 	0.20680 0.90680 0.49200 0.04100
C 	C 	0.42520 0.42484 0.46130 0.35300
C 	C 	0.44360 0.74020 0.43440 0.32500
C 	C 	0.60050 0.13550 0.24901 0.03900
C 	C 	0.38610 0.96050 0.52387 0.04400
C 	C 	0.46960 0.30430 0.23831 -0.04700
C 	C 	0.05690 0.44980 0.34143 -0.05600
C 	C 	0.52710 0.28770 0.28488 -0.04700
C 	C 	0.04190 0.62660 0.33642 -0.05600
C 	C 	0.44690 0.88960 0.49510 -0.06000
C 	C 	0.17900 0.45960 0.34273 0.04100
C 	C 	0.33180 0.24310 0.56728 0.04600
C 	C 	0.35830 0.34740 0.49291 -0.03900
C 	C 	0.52250 0.36553 0.32789 0.36800
C 	C 	0.26550 0.29520 0.47112 -0.06200
C 	C 	0.39230 0.31990 0.54249 -0.05900
C 	C 	0.16530 0.63110 0.33925 0.04200
C 	C 	0.48300 0.23600 0.19783 0.03900
C 	C 	0.21330 0.22090 0.49800 0.04800
N 	N 	0.73297 0.95037 0.65721 -0.20800
N 	N 	0.76723 0.53176 0.47663 -0.21200
N 	N 	0.04818 0.34664 0.79716 -0.21200
N 	N 	0.74580 0.30912 0.45503 -0.21500
N 	N 	0.76703 0.04963 0.15721 -0.20500
N 	N 	0.73277 0.46824 0.97663 -0.21100
N 	N 	0.45182 0.65336 0.29716 -0.21200
N 	N 	0.75420 0.69088 0.95503 -0.21500
N 	N 	0.26703 0.45037 0.84279 -0.20700
N 	N 	0.23277 0.03176 0.02337 -0.21200
N 	N 	0.95182 0.84664 0.70284 -0.21300
N 	N 	0.25420 0.80912 0.04497 -0.21500
N 	N 	0.23297 0.54963 0.34279 -0.20600
N 	N 	0.26723 0.96824 0.52337 -0.21100
N 	N 	0.54818 0.15336 0.20284 -0.21200
N 	N 	0.24580 0.19088 0.54497 -0.21500
O 	O 	0.03282 0.06269 0.52590 -0.42300
O 	O 	0.95524 0.06183 0.68111 -0.42900
O 	O 	0.31466 0.04849 0.63086 -0.39600
O 	O 	0.08461 0.15008 0.63236 -0.42200
O 	O 	0.86997 0.03362 0.57470 -0.41200
O 	O 	0.87714 0.81428 0.59333 -0.40100
O 	O 	0.10105 0.92669 0.61307 -0.65300
O 	O 	0.05366 0.76764 0.56125 -0.29900
O 	O 	0.29191 0.90119 0.67133 -0.28900
O 	O 	0.46718 0.93731 0.02590 -0.42100
O 	O 	0.54476 0.93817 0.18111 -0.43200
O 	O 	0.18534 0.95151 0.13086 -0.39300
O 	O 	0.41539 0.84992 0.13236 -0.42200
O 	O 	0.63003 0.96638 0.07470 -0.41300
O 	O 	0.62286 0.18572 0.09333 -0.40100
O 	O 	0.39895 0.07331 0.11307 -0.65500
O 	O 	0.44634 0.23236 0.06125 -0.30100
O 	O 	0.20809 0.09881 0.17133 -0.28900
O 	O 	0.96718 0.56269 0.97410 -0.42100
O 	O 	0.04476 0.56183 0.81889 -0.43200
O 	O 	0.68534 0.54849 0.86914 -0.39500
O 	O 	0.91539 0.65008 0.86764 -0.42200
O 	O 	0.13003 0.53362 0.92530 -0.41300
O 	O 	0.12286 0.31428 0.90667 -0.40100
O 	O 	0.89895 0.42669 0.88693 -0.65400
O 	O 	0.94634 0.26764 0.93875 -0.29900
O 	O 	0.70809 0.40119 0.82867 -0.28900
O 	O 	0.53282 0.43731 0.47410 -0.42100
O 	O 	0.45524 0.43817 0.31889 -0.43200
O 	O 	0.81466 0.45151 0.36914 -0.39600
O 	O 	0.58461 0.34992 0.36764 -0.42200
O 	O 	0.36997 0.46638 0.42530 -0.41200
O 	O 	0.37714 0.68572 0.40667 -0.40100
O 	O 	0.60105 0.57331 0.38693 -0.65400
O 	O 	0.55366 0.73236 0.43875 -0.30100
O 	O 	0.79191 0.59881 0.32867 -0.29000
