data_crystal

_cell_length_a 8.80840
_cell_length_b 13.09120
_cell_length_c 13.09120
_cell_angle_alpha 93.88870
_cell_angle_beta  109.43400
_cell_angle_gamma 70.56570

_symmetry_space_group_name_	'P 1'
_symmetry_space_group_name_H-M	'P 1'

loop_
_symmetry_equiv_pos_as_xyz
  x,y,z

loop_
_atom_site_label
_atom_site_type_symbol
_atom_site_fract_x
_atom_site_fract_y
_atom_site_fract_z
_atom_site_charge
Ag	Ag	0.82906 0.42054 0.63680 0.43700
Ag	Ag	0.67094 0.63680 0.42054 0.43700
Ag	Ag	0.17094 0.57946 0.36320 0.43700
Ag	Ag	0.32906 0.36320 0.57946 0.43700
H 	H 	0.31650 0.15850 0.64470 0.03500
H 	H 	0.40950 0.98200 0.72060 -0.00100
H 	H 	0.38310 0.95300 0.88580 0.05400
H 	H 	0.26630 0.10080 0.97880 0.01200
H 	H 	0.16740 0.27790 0.90290 0.06200
H 	H 	0.14180 0.44750 0.86450 0.01600
H 	H 	0.14530 0.53090 0.78250 -0.00500
H 	H 	0.44020 0.35740 0.90120 0.06000
H 	H 	0.44150 0.44560 0.82260 0.03000
H 	H 	0.34560 0.49990 0.01450 0.03600
H 	H 	0.35400 0.58620 0.93720 0.03800
H 	H 	0.18350 0.64470 0.15850 0.03400
H 	H 	0.09050 0.72060 0.98200 0.00000
H 	H 	0.11690 0.88580 0.95300 0.05400
H 	H 	0.23370 0.97880 0.10080 0.01200
H 	H 	0.33260 0.90290 0.27790 0.06200
H 	H 	0.35820 0.86450 0.44750 0.01600
H 	H 	0.35470 0.78250 0.53090 -0.00500
H 	H 	0.05980 0.90120 0.35740 0.06000
H 	H 	0.05850 0.82260 0.44560 0.03000
H 	H 	0.15440 0.01450 0.49990 0.03600
H 	H 	0.14600 0.93720 0.58620 0.03800
H 	H 	0.68350 0.84150 0.35530 0.03500
H 	H 	0.59050 0.01800 0.27940 -0.00100
H 	H 	0.61690 0.04700 0.11420 0.05400
H 	H 	0.73370 0.89920 0.02120 0.01200
H 	H 	0.83260 0.72210 0.09710 0.06200
H 	H 	0.85820 0.55250 0.13550 0.01600
H 	H 	0.85470 0.46910 0.21750 -0.00500
H 	H 	0.55980 0.64260 0.09880 0.06000
H 	H 	0.55850 0.55440 0.17740 0.03000
H 	H 	0.65440 0.50010 0.98550 0.03600
H 	H 	0.64600 0.41380 0.06280 0.03800
H 	H 	0.81650 0.35530 0.84150 0.03400
H 	H 	0.90950 0.27940 0.01800 0.00000
H 	H 	0.88310 0.11420 0.04700 0.05400
H 	H 	0.76630 0.02120 0.89920 0.01200
H 	H 	0.66740 0.09710 0.72210 0.06200
H 	H 	0.64180 0.13550 0.55250 0.01600
H 	H 	0.64530 0.21750 0.46910 -0.00500
H 	H 	0.94020 0.09880 0.64260 0.06000
H 	H 	0.94150 0.17740 0.55440 0.03000
H 	H 	0.84560 0.98550 0.50010 0.03600
H 	H 	0.85400 0.06280 0.41380 0.03800
C 	C 	0.23230 0.23400 0.76660 0.08500
C 	C 	0.30490 0.14690 0.71210 -0.13600
C 	C 	0.36060 0.04200 0.75780 0.02900
C 	C 	0.34550 0.02480 0.85560 -0.10700
C 	C 	0.27500 0.11270 0.91050 0.03000
C 	C 	0.21690 0.21790 0.86590 -0.13500
C 	C 	0.19720 0.45500 0.81220 -0.04400
C 	C 	0.38530 0.43370 0.87270 -0.11600
C 	C 	0.40660 0.51010 0.96670 -0.08100
C 	C 	0.26770 0.76660 0.23400 0.08500
C 	C 	0.19510 0.71210 0.14690 -0.13500
C 	C 	0.13940 0.75780 0.04200 0.02800
C 	C 	0.15450 0.85560 0.02480 -0.10700
C 	C 	0.22500 0.91050 0.11270 0.03000
C 	C 	0.28310 0.86590 0.21790 -0.13500
C 	C 	0.30280 0.81220 0.45500 -0.04400
C 	C 	0.11470 0.87270 0.43370 -0.11600
C 	C 	0.09340 0.96670 0.51010 -0.08100
C 	C 	0.76770 0.76600 0.23340 0.08500
C 	C 	0.69510 0.85310 0.28790 -0.13600
C 	C 	0.63940 0.95800 0.24220 0.02900
C 	C 	0.65450 0.97520 0.14440 -0.10700
C 	C 	0.72500 0.88730 0.08950 0.03000
C 	C 	0.78310 0.78210 0.13410 -0.13500
C 	C 	0.80280 0.54500 0.18780 -0.04400
C 	C 	0.61470 0.56630 0.12730 -0.11600
C 	C 	0.59340 0.48990 0.03330 -0.08100
C 	C 	0.73230 0.23340 0.76600 0.08500
C 	C 	0.80490 0.28790 0.85310 -0.13500
C 	C 	0.86060 0.24220 0.95800 0.02800
C 	C 	0.84550 0.14440 0.97520 -0.10700
C 	C 	0.77500 0.08950 0.88730 0.03000
C 	C 	0.71690 0.13410 0.78210 -0.13500
C 	C 	0.69720 0.18780 0.54500 -0.04400
C 	C 	0.88530 0.12730 0.56630 -0.11600
C 	C 	0.90660 0.03330 0.48990 -0.08100
S 	S 	0.15148 0.36574 0.70170 -0.29900
S 	S 	0.34852 0.70170 0.36574 -0.29900
S 	S 	0.84852 0.63426 0.29830 -0.29900
S 	S 	0.65148 0.29830 0.63426 -0.29900
