data_crystal

_cell_length_a 7.60300
_cell_length_b 14.99100
_cell_length_c 20.82400
_cell_angle_alpha 91.37000
_cell_angle_beta  98.31000
_cell_angle_gamma 90.64000

_symmetry_space_group_name_	'P 1'
_symmetry_space_group_name_H-M	'P 1'

loop_
_symmetry_equiv_pos_as_xyz
  x,y,z

loop_
_atom_site_label
_atom_site_type_symbol
_atom_site_fract_x
_atom_site_fract_y
_atom_site_fract_z
_atom_site_charge
Co	Co	0.44377 0.09927 0.27194 1.10500
Co	Co	0.47936 0.58481 0.23228 1.12800
Co	Co	0.55623 0.90073 0.72806 1.10400
Co	Co	0.52064 0.41519 0.76772 1.12900
Co	Co	0.50000 0.50000 0.50000 1.05700
W 	W 	0.95251 0.84646 0.24418 0.76000
W 	W 	0.01657 0.34780 0.28708 0.47900
W 	W 	0.04749 0.15354 0.75582 0.76000
W 	W 	0.98343 0.65220 0.71292 0.47900
C 	C 	0.13867 0.73152 0.22838 0.14100
C 	C 	0.13020 0.95971 0.26373 -0.04600
C 	C 	0.94945 0.92043 0.15009 -0.05200
C 	C 	0.73571 0.94348 0.24659 -0.04400
C 	C 	0.72682 0.87773 0.16857 -0.02800
C 	C 	0.07040 0.85153 0.34168 -0.08200
C 	C 	0.92809 0.73862 0.16543 -0.01700
C 	C 	0.74623 0.73769 0.21940 -0.03800
C 	C 	0.81752 0.23727 0.29159 -0.03700
C 	C 	0.80125 0.44751 0.25995 -0.00400
C 	C 	0.24115 0.39442 0.36547 -0.01000
C 	C 	0.89139 0.35862 0.18285 -0.05400
C 	C 	0.93574 0.46596 0.34347 -0.04200
C 	C 	0.23087 0.43086 0.27467 -0.02200
C 	C 	0.99469 0.28904 0.38319 -0.03900
C 	C 	0.21172 0.25073 0.28975 -0.02900
C 	C 	0.48881 0.73125 0.33847 0.03800
C 	C 	0.52418 0.58116 0.37203 0.09400
C 	C 	0.49253 0.76336 0.39692 -0.07400
C 	C 	0.50572 0.69936 0.44558 0.03300
C 	C 	0.46526 0.96743 0.36878 0.04700
C 	C 	0.59182 0.96985 0.47110 0.10600
C 	C 	0.62809 0.06210 0.46594 -0.10900
C 	C 	0.57950 0.10725 0.40797 0.03600
C 	C 	0.50433 0.92560 0.42220 -0.11300
C 	C 	0.65852 0.91262 0.53155 -0.18500
C 	C 	0.55467 0.44806 0.13085 0.04000
C 	C 	0.37181 0.39448 0.03619 0.09200
C 	C 	0.24631 0.46184 0.04102 -0.08700
C 	C 	0.27340 0.52284 0.09466 0.02900
C 	C 	0.52555 0.39112 0.08249 -0.09900
C 	C 	0.32692 0.33173 0.98163 -0.18900
C 	C 	0.86133 0.26848 0.77162 0.14100
C 	C 	0.86980 0.04029 0.73627 -0.04400
C 	C 	0.05055 0.07957 0.84991 -0.05200
C 	C 	0.26429 0.05652 0.75341 -0.04400
C 	C 	0.27318 0.12227 0.83143 -0.02800
C 	C 	0.92960 0.14847 0.65832 -0.08200
C 	C 	0.07191 0.26138 0.83457 -0.01800
C 	C 	0.25377 0.26231 0.78060 -0.03800
C 	C 	0.18248 0.76273 0.70841 -0.03700
C 	C 	0.19875 0.55249 0.74005 -0.00400
C 	C 	0.75885 0.60558 0.63453 -0.01000
C 	C 	0.10861 0.64138 0.81715 -0.05400
C 	C 	0.06426 0.53404 0.65653 -0.04200
C 	C 	0.76913 0.56914 0.72533 -0.02200
C 	C 	0.00531 0.71096 0.61681 -0.03900
C 	C 	0.78828 0.74927 0.71025 -0.02900
C 	C 	0.51119 0.26875 0.66153 0.03700
C 	C 	0.47582 0.41884 0.62797 0.09300
C 	C 	0.50747 0.23664 0.60308 -0.07200
C 	C 	0.49428 0.30064 0.55442 0.03100
C 	C 	0.53474 0.03257 0.63122 0.04200
C 	C 	0.40818 0.03015 0.52890 0.10200
C 	C 	0.37191 0.93790 0.53406 -0.10700
C 	C 	0.42050 0.89275 0.59203 0.05700
C 	C 	0.49567 0.07440 0.57780 -0.11400
C 	C 	0.34148 0.08738 0.46845 -0.18200
C 	C 	0.44533 0.55194 0.86915 0.04000
C 	C 	0.62819 0.60552 0.96381 0.09300
C 	C 	0.75369 0.53816 0.95898 -0.08800
C 	C 	0.72660 0.47716 0.90534 0.02900
C 	C 	0.47445 0.60888 0.91751 -0.10000
C 	C 	0.67308 0.66827 0.01837 -0.19300
N 	N 	0.23201 0.66900 0.21491 -0.24000
N 	N 	0.21600 0.01887 0.26931 -0.22800
N 	N 	0.93363 0.95934 0.09872 -0.09000
N 	N 	0.61882 0.98751 0.24573 -0.20500
N 	N 	0.61517 0.89895 0.13331 -0.09500
N 	N 	0.12008 0.85238 0.39311 -0.08900
N 	N 	0.91137 0.67602 0.12654 -0.10600
N 	N 	0.64123 0.67735 0.20190 -0.22600
N 	N 	0.70121 0.18013 0.29346 -0.20400
N 	N 	0.68916 0.50387 0.25018 -0.23200
N 	N 	0.35224 0.42029 0.41087 -0.21800
N 	N 	0.83614 0.36146 0.12599 -0.10700
N 	N 	0.88347 0.53093 0.36956 -0.11600
N 	N 	0.33382 0.47869 0.26736 -0.21900
N 	N 	0.98270 0.25097 0.43274 -0.10300
N 	N 	0.31628 0.20239 0.29552 -0.26400
N 	N 	0.51733 0.60772 0.43083 -0.24800
N 	N 	0.50635 0.63849 0.32760 -0.24100
N 	N 	0.50332 0.05854 0.36039 -0.25600
N 	N 	0.42788 0.51390 0.14093 -0.22300
N 	N 	0.76799 0.33100 0.78509 -0.24000
N 	N 	0.78400 0.98113 0.73069 -0.23000
N 	N 	0.06637 0.04066 0.90128 -0.09000
N 	N 	0.38118 0.01249 0.75427 -0.20500
N 	N 	0.38483 0.10105 0.86669 -0.09500
N 	N 	0.87992 0.14762 0.60689 -0.08800
N 	N 	0.08863 0.32398 0.87346 -0.10400
N 	N 	0.35877 0.32265 0.79810 -0.22600
N 	N 	0.29879 0.81987 0.70654 -0.20400
N 	N 	0.31084 0.49613 0.74982 -0.23200
N 	N 	0.64776 0.57971 0.58913 -0.21800
N 	N 	0.16386 0.63854 0.87401 -0.10700
N 	N 	0.11653 0.46907 0.63044 -0.11600
N 	N 	0.66618 0.52131 0.73264 -0.21900
N 	N 	0.01730 0.74903 0.56726 -0.10200
N 	N 	0.68372 0.79761 0.70448 -0.26400
N 	N 	0.48267 0.39228 0.56917 -0.24800
N 	N 	0.49365 0.36151 0.67240 -0.24100
N 	N 	0.49668 0.94146 0.63961 -0.26500
N 	N 	0.57212 0.48610 0.85907 -0.22400
H 	H 	0.05238 0.78932 0.24083 -0.26900
H 	H 	0.47136 0.77777 0.29557 -0.00200
H 	H 	0.54583 0.50766 0.36072 -0.03000
H 	H 	0.48527 0.83849 0.40573 0.03800
H 	H 	0.50720 0.72126 0.49846 -0.00300
H 	H 	0.39453 0.93066 0.32363 -0.00100
H 	H 	0.69875 0.10185 0.50971 0.06500
H 	H 	0.60861 0.18180 0.40588 0.00700
H 	H 	0.46210 0.85276 0.42500 0.03500
H 	H 	0.80989 0.91027 0.53866 0.07400
H 	H 	0.60138 0.84196 0.52335 0.06700
H 	H 	0.61282 0.94399 0.57662 0.08500
H 	H 	0.68384 0.44581 0.16617 0.02600
H 	H 	0.12512 0.46667 0.00210 0.05000
H 	H 	0.17232 0.57723 0.09970 0.01800
H 	H 	0.62591 0.33662 0.07675 0.06300
H 	H 	0.38290 0.26347 0.99546 0.07000
H 	H 	0.38649 0.35650 0.93801 0.07600
H 	H 	0.17624 0.32611 0.96873 0.08100
H 	H 	0.94762 0.21068 0.75917 -0.26900
H 	H 	0.52864 0.22223 0.70443 -0.00200
H 	H 	0.45417 0.49234 0.63928 -0.03000
H 	H 	0.51473 0.16151 0.59427 0.03400
H 	H 	0.49280 0.27874 0.50154 -0.00100
H 	H 	0.60547 0.06934 0.67637 0.00100
H 	H 	0.30125 0.89815 0.49029 0.06400
H 	H 	0.39139 0.81820 0.59412 0.00300
H 	H 	0.53790 0.14724 0.57500 0.04000
H 	H 	0.25198 0.04448 0.43093 0.07400
H 	H 	0.46050 0.11279 0.44624 0.08000
H 	H 	0.26342 0.14651 0.48420 0.07200
H 	H 	0.31616 0.55419 0.83383 0.02600
H 	H 	0.87488 0.53333 0.99790 0.05000
H 	H 	0.82768 0.42277 0.90030 0.01800
H 	H 	0.37164 0.66261 0.92194 0.06300
H 	H 	0.75608 0.72578 0.00321 0.07300
H 	H 	0.75248 0.63275 0.06066 0.08700
H 	H 	0.54582 0.69539 0.03393 0.07200
