data_crystal

_cell_length_a 8.00200
_cell_length_b 9.09100
_cell_length_c 12.93500
_cell_angle_alpha 107.80500
_cell_angle_beta  100.04200
_cell_angle_gamma 104.10600

_symmetry_space_group_name_	'P 1'
_symmetry_space_group_name_H-M	'P 1'

loop_
_symmetry_equiv_pos_as_xyz
  x,y,z

loop_
_atom_site_label
_atom_site_type_symbol
_atom_site_fract_x
_atom_site_fract_y
_atom_site_fract_z
_atom_site_charge
Co	Co	0.24973 0.50272 0.49989 1.13200
Co	Co	0.74974 0.50250 0.49979 1.15200
H 	H 	0.57410 0.68160 0.58600 0.36300
H 	H 	0.53810 0.66380 0.47580 0.35800
H 	H 	0.93030 0.32890 0.41210 0.36400
H 	H 	0.96490 0.34260 0.52130 0.35600
H 	H 	0.63090 0.99480 0.91450 0.05500
H 	H 	0.59750 0.13590 0.09050 0.05300
H 	H 	0.10130 0.78280 0.79760 0.08000
H 	H 	0.40120 0.22990 0.20430 0.02300
H 	H 	0.86990 0.02220 0.07840 -0.03300
H 	H 	0.89960 0.86680 0.91830 0.15600
H 	H 	0.95040 0.26630 0.84140 0.04200
H 	H 	0.92350 0.29730 0.01710 0.06700
H 	H 	0.67810 0.58080 0.82190 0.05700
H 	H 	0.80460 0.41720 0.17660 0.06100
H 	H 	0.54840 0.73700 0.16330 0.03500
H 	H 	0.57430 0.71010 0.98520 0.07300
C 	C 	0.39790 0.77120 0.72931 0.31900
C 	C 	0.36880 0.87056 0.83982 -0.03000
C 	C 	0.51740 0.98030 0.92606 -0.02900
C 	C 	0.49790 0.06960 0.03045 -0.04400
C 	C 	0.32600 0.05626 0.04170 -0.06600
C 	C 	0.17510 0.94580 0.95289 0.14800
C 	C 	0.20040 0.85620 0.85556 -0.13100
C 	C 	0.30190 0.15600 0.14674 0.05200
C 	C 	0.13510 0.14120 0.16072 -0.20800
C 	C 	0.98430 0.03010 0.06970 0.21000
C 	C 	0.00200 0.93870 0.97425 -0.29900
C 	C 	0.10550 0.23200 0.26728 0.35800
C 	C 	0.83780 0.40610 0.69767 0.33400
C 	C 	0.82110 0.42360 0.81164 -0.07900
C 	C 	0.89160 0.33720 0.87396 0.01300
C 	C 	0.87550 0.35540 0.97884 -0.08400
C 	C 	0.78870 0.45920 0.03047 0.02200
C 	C 	0.71570 0.54570 0.97099 0.03800
C 	C 	0.72970 0.52580 0.86140 -0.05000
C 	C 	0.76320 0.47810 0.13810 -0.03700
C 	C 	0.68100 0.58150 0.18651 -0.08400
C 	C 	0.60800 0.66810 0.12911 0.02500
C 	C 	0.62330 0.65230 0.02333 -0.10600
C 	C 	0.66350 0.59900 0.30560 0.37400
O 	O 	0.26002 0.67553 0.65219 -0.44500
O 	O 	0.55558 0.79871 0.72401 -0.32900
O 	O 	0.24006 0.33154 0.34642 -0.45200
O 	O 	0.95080 0.21440 0.27592 -0.32600
O 	O 	0.79220 0.50655 0.65741 -0.44400
O 	O 	0.90100 0.30025 0.64647 -0.32400
O 	O 	0.71350 0.50497 0.34257 -0.46800
O 	O 	0.60270 0.70765 0.35301 -0.34200
O 	O 	0.53562 0.61042 0.51953 -0.96000
O 	O 	0.96811 0.39825 0.47911 -0.95000
