data_crystal

_cell_length_a 35.32990
_cell_length_b 35.32990
_cell_length_c 35.32990
_cell_angle_alpha 60.00000
_cell_angle_beta  60.00000
_cell_angle_gamma 60.00000

_symmetry_space_group_name_	'P 1'
_symmetry_space_group_name_H-M	'P 1'

loop_
_symmetry_equiv_pos_as_xyz
  x,y,z

loop_
_atom_site_label
_atom_site_type_symbol
_atom_site_fract_x
_atom_site_fract_y
_atom_site_fract_z
_atom_site_charge
Zr	Zr	0.06974 0.50000 0.93026 3.21400
Zr	Zr	0.50000 0.06974 0.50000 3.21400
Zr	Zr	0.93026 0.50000 0.06974 3.21400
Zr	Zr	0.50000 0.93026 0.50000 3.21400
Zr	Zr	0.06974 0.93026 0.50000 3.21400
Zr	Zr	0.50000 0.50000 0.93026 3.21400
Zr	Zr	0.93026 0.06974 0.50000 3.21400
Zr	Zr	0.50000 0.50000 0.06974 3.21400
Zr	Zr	0.06974 0.50000 0.50000 3.21400
Zr	Zr	0.50000 0.93026 0.06974 3.21400
Zr	Zr	0.93026 0.50000 0.50000 3.21400
Zr	Zr	0.50000 0.06974 0.93026 3.21400
Zr	Zr	0.03539 0.41466 0.03540 3.17700
Zr	Zr	0.41465 0.03540 0.51455 3.17700
Zr	Zr	0.03539 0.51455 0.03540 3.17700
Zr	Zr	0.51454 0.03540 0.41466 3.17700
Zr	Zr	0.03539 0.03540 0.51455 3.17700
Zr	Zr	0.41465 0.51455 0.03540 3.17700
Zr	Zr	0.03539 0.03540 0.41466 3.17700
Zr	Zr	0.51454 0.41466 0.03540 3.17700
Zr	Zr	0.03539 0.51455 0.41466 3.17700
Zr	Zr	0.41465 0.03540 0.03540 3.17700
Zr	Zr	0.03539 0.41466 0.51455 3.17700
Zr	Zr	0.51454 0.03540 0.03540 3.17700
Zr	Zr	0.58535 0.96460 0.96460 3.17700
Zr	Zr	0.96461 0.58534 0.48545 3.17700
Zr	Zr	0.48546 0.96460 0.96460 3.17700
Zr	Zr	0.96461 0.48545 0.58534 3.17700
Zr	Zr	0.96461 0.96460 0.48545 3.17700
Zr	Zr	0.48546 0.58534 0.96460 3.17700
Zr	Zr	0.96461 0.96460 0.58534 3.17700
Zr	Zr	0.58535 0.48545 0.96460 3.17700
Zr	Zr	0.48546 0.96460 0.58534 3.17700
Zr	Zr	0.96461 0.58534 0.96460 3.17700
Zr	Zr	0.58535 0.96460 0.48545 3.17700
Zr	Zr	0.96461 0.48545 0.96460 3.17700
H 	H 	0.21890 0.39710 0.87830 0.04000
H 	H 	0.39710 0.21890 0.50570 0.04000
H 	H 	0.87830 0.50570 0.21890 0.04000
H 	H 	0.50570 0.87830 0.39710 0.04000
H 	H 	0.21890 0.87830 0.50570 0.04000
H 	H 	0.39710 0.50570 0.87830 0.04000
H 	H 	0.87830 0.21890 0.39710 0.04000
H 	H 	0.50570 0.39710 0.21890 0.04000
H 	H 	0.21890 0.50570 0.39710 0.04000
H 	H 	0.39710 0.87830 0.21890 0.04000
H 	H 	0.87830 0.39710 0.50570 0.04000
H 	H 	0.50570 0.21890 0.87830 0.04000
H 	H 	0.60290 0.78110 0.12170 0.04000
H 	H 	0.78110 0.60290 0.49430 0.04000
H 	H 	0.49430 0.12170 0.78110 0.04000
H 	H 	0.12170 0.49430 0.60290 0.04000
H 	H 	0.12170 0.78110 0.49430 0.04000
H 	H 	0.49430 0.60290 0.12170 0.04000
H 	H 	0.78110 0.12170 0.60290 0.04000
H 	H 	0.60290 0.49430 0.78110 0.04000
H 	H 	0.49430 0.78110 0.60290 0.04000
H 	H 	0.12170 0.60290 0.78110 0.04000
H 	H 	0.60290 0.12170 0.49430 0.04000
H 	H 	0.78110 0.49430 0.12170 0.04000
H 	H 	0.78110 0.60290 0.12170 0.04000
H 	H 	0.60290 0.78110 0.49430 0.04000
H 	H 	0.12170 0.49430 0.78110 0.04000
H 	H 	0.49430 0.12170 0.60290 0.04000
H 	H 	0.78110 0.12170 0.49430 0.04000
H 	H 	0.60290 0.49430 0.12170 0.04000
H 	H 	0.12170 0.78110 0.60290 0.04000
H 	H 	0.49430 0.60290 0.78110 0.04000
H 	H 	0.78110 0.49430 0.60290 0.04000
H 	H 	0.60290 0.12170 0.78110 0.04000
H 	H 	0.12170 0.60290 0.49430 0.04000
H 	H 	0.49430 0.78110 0.12170 0.04000
H 	H 	0.39710 0.21890 0.87830 0.04000
H 	H 	0.21890 0.39710 0.50570 0.04000
H 	H 	0.50570 0.87830 0.21890 0.04000
H 	H 	0.87830 0.50570 0.39710 0.04000
H 	H 	0.87830 0.21890 0.50570 0.04000
H 	H 	0.50570 0.39710 0.87830 0.04000
H 	H 	0.21890 0.87830 0.39710 0.04000
H 	H 	0.39710 0.50570 0.21890 0.04000
H 	H 	0.50570 0.21890 0.39710 0.04000
H 	H 	0.87830 0.39710 0.21890 0.04000
H 	H 	0.39710 0.87830 0.50570 0.04000
H 	H 	0.21890 0.50570 0.87830 0.04000
C 	C 	0.18240 0.36110 0.93998 -0.15000
C 	C 	0.21915 0.36865 0.90177 0.01400
C 	C 	0.25800 0.32768 0.90202 -0.01100
C 	C 	0.13579 0.39509 0.95327 0.53900
C 	C 	0.24995 0.29021 0.94105 -0.00900
C 	C 	0.36110 0.18240 0.51652 -0.15000
C 	C 	0.36865 0.21915 0.51043 0.01400
C 	C 	0.32768 0.25800 0.51230 -0.01100
C 	C 	0.39509 0.13579 0.51585 0.53900
C 	C 	0.29021 0.24995 0.51879 -0.00900
C 	C 	0.93998 0.51652 0.18240 -0.15000
C 	C 	0.90177 0.51043 0.21915 0.01400
C 	C 	0.90202 0.51230 0.25800 -0.01100
C 	C 	0.95327 0.51585 0.13579 0.53900
C 	C 	0.94105 0.51879 0.24995 -0.00900
C 	C 	0.51652 0.93998 0.36110 -0.15000
C 	C 	0.51043 0.90177 0.36865 0.01400
C 	C 	0.51230 0.90202 0.32768 -0.01100
C 	C 	0.51585 0.95327 0.39509 0.53900
C 	C 	0.51879 0.94105 0.29021 -0.00900
C 	C 	0.18240 0.93998 0.51652 -0.15000
C 	C 	0.21915 0.90177 0.51043 0.01400
C 	C 	0.25800 0.90202 0.51230 -0.01100
C 	C 	0.13579 0.95327 0.51585 0.53900
C 	C 	0.24995 0.94105 0.51879 -0.00900
C 	C 	0.36110 0.51652 0.93998 -0.15000
C 	C 	0.36865 0.51043 0.90177 0.01400
C 	C 	0.32768 0.51230 0.90202 -0.01100
C 	C 	0.39509 0.51585 0.95327 0.53900
C 	C 	0.29021 0.51879 0.94105 -0.00900
C 	C 	0.93998 0.18240 0.36110 -0.15000
C 	C 	0.90177 0.21915 0.36865 0.01400
C 	C 	0.90202 0.25800 0.32768 -0.01100
C 	C 	0.95327 0.13579 0.39509 0.53900
C 	C 	0.94105 0.24995 0.29021 -0.00900
C 	C 	0.51652 0.36110 0.18240 -0.15000
C 	C 	0.51043 0.36865 0.21915 0.01400
C 	C 	0.51230 0.32768 0.25800 -0.01100
C 	C 	0.51585 0.39509 0.13579 0.53900
C 	C 	0.51879 0.29021 0.24995 -0.00900
C 	C 	0.18240 0.51652 0.36110 -0.15000
C 	C 	0.21915 0.51043 0.36865 0.01400
C 	C 	0.25800 0.51230 0.32768 -0.01100
C 	C 	0.13579 0.51585 0.39509 0.53900
C 	C 	0.24995 0.51879 0.29021 -0.00900
C 	C 	0.36110 0.93998 0.18240 -0.15000
C 	C 	0.36865 0.90177 0.21915 0.01400
C 	C 	0.32768 0.90202 0.25800 -0.01100
C 	C 	0.39509 0.95327 0.13579 0.53900
C 	C 	0.29021 0.94105 0.24995 -0.00900
C 	C 	0.93998 0.36110 0.51652 -0.15000
C 	C 	0.90177 0.36865 0.51043 0.01400
C 	C 	0.90202 0.32768 0.51230 -0.01100
C 	C 	0.95327 0.39509 0.51585 0.53900
C 	C 	0.94105 0.29021 0.51879 -0.00900
C 	C 	0.51652 0.18240 0.93998 -0.15000
C 	C 	0.51043 0.21915 0.90177 0.01400
C 	C 	0.51230 0.25800 0.90202 -0.01100
C 	C 	0.51585 0.13579 0.95327 0.53900
C 	C 	0.51879 0.24995 0.94105 -0.00900
C 	C 	0.63890 0.81760 0.06002 -0.15000
C 	C 	0.63135 0.78085 0.09823 0.01400
C 	C 	0.67232 0.74200 0.09798 -0.01100
C 	C 	0.60491 0.86421 0.04673 0.53900
C 	C 	0.70979 0.75005 0.05895 -0.00900
C 	C 	0.81760 0.63890 0.48348 -0.15000
C 	C 	0.78085 0.63135 0.48957 0.01400
C 	C 	0.74200 0.67232 0.48770 -0.01100
C 	C 	0.86421 0.60491 0.48415 0.53900
C 	C 	0.75005 0.70979 0.48121 -0.00900
C 	C 	0.48348 0.06002 0.81760 -0.15000
C 	C 	0.48957 0.09823 0.78085 0.01400
C 	C 	0.48770 0.09798 0.74200 -0.01100
C 	C 	0.48415 0.04673 0.86421 0.53900
C 	C 	0.48121 0.05895 0.75005 -0.00900
C 	C 	0.06002 0.48348 0.63890 -0.15000
C 	C 	0.09823 0.48957 0.63135 0.01400
C 	C 	0.09798 0.48770 0.67232 -0.01100
C 	C 	0.04673 0.48415 0.60491 0.53900
C 	C 	0.05895 0.48121 0.70979 -0.00900
C 	C 	0.06002 0.81760 0.48348 -0.15000
C 	C 	0.09823 0.78085 0.48957 0.01400
C 	C 	0.09798 0.74200 0.48770 -0.01100
C 	C 	0.04673 0.86421 0.48415 0.53900
C 	C 	0.05895 0.75005 0.48121 -0.00900
C 	C 	0.48348 0.63890 0.06002 -0.15000
C 	C 	0.48957 0.63135 0.09823 0.01400
C 	C 	0.48770 0.67232 0.09798 -0.01100
C 	C 	0.48415 0.60491 0.04673 0.53900
C 	C 	0.48121 0.70979 0.05895 -0.00900
C 	C 	0.81760 0.06002 0.63890 -0.15000
C 	C 	0.78085 0.09823 0.63135 0.01400
C 	C 	0.74200 0.09798 0.67232 -0.01100
C 	C 	0.86421 0.04673 0.60491 0.53900
C 	C 	0.75005 0.05895 0.70979 -0.00900
C 	C 	0.63890 0.48348 0.81760 -0.15000
C 	C 	0.63135 0.48957 0.78085 0.01400
C 	C 	0.67232 0.48770 0.74200 -0.01100
C 	C 	0.60491 0.48415 0.86421 0.53900
C 	C 	0.70979 0.48121 0.75005 -0.00900
C 	C 	0.48348 0.81760 0.63890 -0.15000
C 	C 	0.48957 0.78085 0.63135 0.01400
C 	C 	0.48770 0.74200 0.67232 -0.01100
C 	C 	0.48415 0.86421 0.60491 0.53900
C 	C 	0.48121 0.75005 0.70979 -0.00900
C 	C 	0.06002 0.63890 0.81760 -0.15000
C 	C 	0.09823 0.63135 0.78085 0.01400
C 	C 	0.09798 0.67232 0.74200 -0.01100
C 	C 	0.04673 0.60491 0.86421 0.53900
C 	C 	0.05895 0.70979 0.75005 -0.00900
C 	C 	0.63890 0.06002 0.48348 -0.15000
C 	C 	0.63135 0.09823 0.48957 0.01400
C 	C 	0.67232 0.09798 0.48770 -0.01100
C 	C 	0.60491 0.04673 0.48415 0.53900
C 	C 	0.70979 0.05895 0.48121 -0.00900
C 	C 	0.81760 0.48348 0.06002 -0.15000
C 	C 	0.78085 0.48957 0.09823 0.01400
C 	C 	0.74200 0.48770 0.09798 -0.01100
C 	C 	0.86421 0.48415 0.04673 0.53900
C 	C 	0.75005 0.48121 0.05895 -0.00900
C 	C 	0.81760 0.63890 0.06002 -0.15000
C 	C 	0.78085 0.63135 0.09823 0.01400
C 	C 	0.74200 0.67232 0.09798 -0.01100
C 	C 	0.86421 0.60491 0.04673 0.53900
C 	C 	0.75005 0.70979 0.05895 -0.00900
C 	C 	0.63890 0.81760 0.48348 -0.15000
C 	C 	0.63135 0.78085 0.48957 0.01400
C 	C 	0.67232 0.74200 0.48770 -0.01100
C 	C 	0.60491 0.86421 0.48415 0.53900
C 	C 	0.70979 0.75005 0.48121 -0.00900
C 	C 	0.06002 0.48348 0.81760 -0.15000
C 	C 	0.09823 0.48957 0.78085 0.01400
C 	C 	0.09798 0.48770 0.74200 -0.01100
C 	C 	0.04673 0.48415 0.86421 0.53900
C 	C 	0.05895 0.48121 0.75005 -0.00900
C 	C 	0.48348 0.06002 0.63890 -0.15000
C 	C 	0.48957 0.09823 0.63135 0.01400
C 	C 	0.48770 0.09798 0.67232 -0.01100
C 	C 	0.48415 0.04673 0.60491 0.53900
C 	C 	0.48121 0.05895 0.70979 -0.00900
C 	C 	0.81760 0.06002 0.48348 -0.15000
C 	C 	0.78085 0.09823 0.48957 0.01400
C 	C 	0.74200 0.09798 0.48770 -0.01100
C 	C 	0.86421 0.04673 0.48415 0.53900
C 	C 	0.75005 0.05895 0.48121 -0.00900
C 	C 	0.63890 0.48348 0.06002 -0.15000
C 	C 	0.63135 0.48957 0.09823 0.01400
C 	C 	0.67232 0.48770 0.09798 -0.01100
C 	C 	0.60491 0.48415 0.04673 0.53900
C 	C 	0.70979 0.48121 0.05895 -0.00900
C 	C 	0.06002 0.81760 0.63890 -0.15000
C 	C 	0.09823 0.78085 0.63135 0.01400
C 	C 	0.09798 0.74200 0.67232 -0.01100
C 	C 	0.04673 0.86421 0.60491 0.53900
C 	C 	0.05895 0.75005 0.70979 -0.00900
C 	C 	0.48348 0.63890 0.81760 -0.15000
C 	C 	0.48957 0.63135 0.78085 0.01400
C 	C 	0.48770 0.67232 0.74200 -0.01100
C 	C 	0.48415 0.60491 0.86421 0.53900
C 	C 	0.48121 0.70979 0.75005 -0.00900
C 	C 	0.81760 0.48348 0.63890 -0.15000
C 	C 	0.78085 0.48957 0.63135 0.01400
C 	C 	0.74200 0.48770 0.67232 -0.01100
C 	C 	0.86421 0.48415 0.60491 0.53900
C 	C 	0.75005 0.48121 0.70979 -0.00900
C 	C 	0.63890 0.06002 0.81760 -0.15000
C 	C 	0.63135 0.09823 0.78085 0.01400
C 	C 	0.67232 0.09798 0.74200 -0.01100
C 	C 	0.60491 0.04673 0.86421 0.53900
C 	C 	0.70979 0.05895 0.75005 -0.00900
C 	C 	0.06002 0.63890 0.48348 -0.15000
C 	C 	0.09823 0.63135 0.48957 0.01400
C 	C 	0.09798 0.67232 0.48770 -0.01100
C 	C 	0.04673 0.60491 0.48415 0.53900
C 	C 	0.05895 0.70979 0.48121 -0.00900
C 	C 	0.48348 0.81760 0.06002 -0.15000
C 	C 	0.48957 0.78085 0.09823 0.01400
C 	C 	0.48770 0.74200 0.09798 -0.01100
C 	C 	0.48415 0.86421 0.04673 0.53900
C 	C 	0.48121 0.75005 0.05895 -0.00900
C 	C 	0.36110 0.18240 0.93998 -0.15000
C 	C 	0.36865 0.21915 0.90177 0.01400
C 	C 	0.32768 0.25800 0.90202 -0.01100
C 	C 	0.39509 0.13579 0.95327 0.53900
C 	C 	0.29021 0.24995 0.94105 -0.00900
C 	C 	0.18240 0.36110 0.51652 -0.15000
C 	C 	0.21915 0.36865 0.51043 0.01400
C 	C 	0.25800 0.32768 0.51230 -0.01100
C 	C 	0.13579 0.39509 0.51585 0.53900
C 	C 	0.24995 0.29021 0.51879 -0.00900
C 	C 	0.51652 0.93998 0.18240 -0.15000
C 	C 	0.51043 0.90177 0.21915 0.01400
C 	C 	0.51230 0.90202 0.25800 -0.01100
C 	C 	0.51585 0.95327 0.13579 0.53900
C 	C 	0.51879 0.94105 0.24995 -0.00900
C 	C 	0.93998 0.51652 0.36110 -0.15000
C 	C 	0.90177 0.51043 0.36865 0.01400
C 	C 	0.90202 0.51230 0.32768 -0.01100
C 	C 	0.95327 0.51585 0.39509 0.53900
C 	C 	0.94105 0.51879 0.29021 -0.00900
C 	C 	0.93998 0.18240 0.51652 -0.15000
C 	C 	0.90177 0.21915 0.51043 0.01400
C 	C 	0.90202 0.25800 0.51230 -0.01100
C 	C 	0.95327 0.13579 0.51585 0.53900
C 	C 	0.94105 0.24995 0.51879 -0.00900
C 	C 	0.51652 0.36110 0.93998 -0.15000
C 	C 	0.51043 0.36865 0.90177 0.01400
C 	C 	0.51230 0.32768 0.90202 -0.01100
C 	C 	0.51585 0.39509 0.95327 0.53900
C 	C 	0.51879 0.29021 0.94105 -0.00900
C 	C 	0.18240 0.93998 0.36110 -0.15000
C 	C 	0.21915 0.90177 0.36865 0.01400
C 	C 	0.25800 0.90202 0.32768 -0.01100
C 	C 	0.13579 0.95327 0.39509 0.53900
C 	C 	0.24995 0.94105 0.29021 -0.00900
C 	C 	0.36110 0.51652 0.18240 -0.15000
C 	C 	0.36865 0.51043 0.21915 0.01400
C 	C 	0.32768 0.51230 0.25800 -0.01100
C 	C 	0.39509 0.51585 0.13579 0.53900
C 	C 	0.29021 0.51879 0.24995 -0.00900
C 	C 	0.51652 0.18240 0.36110 -0.15000
C 	C 	0.51043 0.21915 0.36865 0.01400
C 	C 	0.51230 0.25800 0.32768 -0.01100
C 	C 	0.51585 0.13579 0.39509 0.53900
C 	C 	0.51879 0.24995 0.29021 -0.00900
C 	C 	0.93998 0.36110 0.18240 -0.15000
C 	C 	0.90177 0.36865 0.21915 0.01400
C 	C 	0.90202 0.32768 0.25800 -0.01100
C 	C 	0.95327 0.39509 0.13579 0.53900
C 	C 	0.94105 0.29021 0.24995 -0.00900
C 	C 	0.36110 0.93998 0.51652 -0.15000
C 	C 	0.36865 0.90177 0.51043 0.01400
C 	C 	0.32768 0.90202 0.51230 -0.01100
C 	C 	0.39509 0.95327 0.51585 0.53900
C 	C 	0.29021 0.94105 0.51879 -0.00900
C 	C 	0.18240 0.51652 0.93998 -0.15000
C 	C 	0.21915 0.51043 0.90177 0.01400
C 	C 	0.25800 0.51230 0.90202 -0.01100
C 	C 	0.13579 0.51585 0.95327 0.53900
C 	C 	0.24995 0.51879 0.94105 -0.00900
S 	S 	0.19437 0.30457 0.97803 -0.03200
S 	S 	0.30457 0.19437 0.52303 -0.03400
S 	S 	0.97803 0.52303 0.19437 -0.03200
S 	S 	0.52303 0.97803 0.30457 -0.03200
S 	S 	0.19437 0.97803 0.52303 -0.03200
S 	S 	0.30457 0.52303 0.97803 -0.03200
S 	S 	0.97803 0.19437 0.30457 -0.03200
S 	S 	0.52303 0.30457 0.19437 -0.03400
S 	S 	0.19437 0.52303 0.30457 -0.03400
S 	S 	0.30457 0.97803 0.19437 -0.03200
S 	S 	0.97803 0.30457 0.52303 -0.03200
S 	S 	0.52303 0.19437 0.97803 -0.03200
S 	S 	0.69543 0.80563 0.02197 -0.03200
S 	S 	0.80563 0.69543 0.47697 -0.03400
S 	S 	0.47697 0.02197 0.80563 -0.03200
S 	S 	0.02197 0.47697 0.69543 -0.03200
S 	S 	0.02197 0.80563 0.47697 -0.03200
S 	S 	0.47697 0.69543 0.02197 -0.03200
S 	S 	0.80563 0.02197 0.69543 -0.03200
S 	S 	0.69543 0.47697 0.80563 -0.03400
S 	S 	0.47697 0.80563 0.69543 -0.03400
S 	S 	0.02197 0.69543 0.80563 -0.03200
S 	S 	0.69543 0.02197 0.47697 -0.03200
S 	S 	0.80563 0.47697 0.02197 -0.03200
S 	S 	0.80563 0.69543 0.02197 -0.03200
S 	S 	0.69543 0.80563 0.47697 -0.03400
S 	S 	0.02197 0.47697 0.80563 -0.03200
S 	S 	0.47697 0.02197 0.69543 -0.03200
S 	S 	0.80563 0.02197 0.47697 -0.03200
S 	S 	0.69543 0.47697 0.02197 -0.03200
S 	S 	0.02197 0.80563 0.69543 -0.03200
S 	S 	0.47697 0.69543 0.80563 -0.03400
S 	S 	0.80563 0.47697 0.69543 -0.03400
S 	S 	0.69543 0.02197 0.80563 -0.03200
S 	S 	0.02197 0.69543 0.47697 -0.03200
S 	S 	0.47697 0.80563 0.02197 -0.03200
S 	S 	0.30457 0.19437 0.97803 -0.03200
S 	S 	0.19437 0.30457 0.52303 -0.03400
S 	S 	0.52303 0.97803 0.19437 -0.03200
S 	S 	0.97803 0.52303 0.30457 -0.03200
S 	S 	0.97803 0.19437 0.52303 -0.03200
S 	S 	0.52303 0.30457 0.97803 -0.03200
S 	S 	0.19437 0.97803 0.30457 -0.03200
S 	S 	0.30457 0.52303 0.19437 -0.03400
S 	S 	0.52303 0.19437 0.30457 -0.03400
S 	S 	0.97803 0.30457 0.19437 -0.03200
S 	S 	0.30457 0.97803 0.52303 -0.03200
S 	S 	0.19437 0.52303 0.97803 -0.03200
S 	S 	0.31461 0.31461 0.86423 -0.01700
S 	S 	0.31461 0.31461 0.50655 -0.01700
S 	S 	0.86423 0.50655 0.31461 -0.01700
S 	S 	0.50655 0.86423 0.31461 -0.01700
S 	S 	0.31461 0.86423 0.50655 -0.01700
S 	S 	0.31461 0.50655 0.86423 -0.01700
S 	S 	0.86423 0.31461 0.31461 -0.01700
S 	S 	0.50655 0.31461 0.31461 -0.01700
S 	S 	0.31461 0.50655 0.31461 -0.01700
S 	S 	0.31461 0.86423 0.31461 -0.01700
S 	S 	0.86423 0.31461 0.50655 -0.01700
S 	S 	0.50655 0.31461 0.86423 -0.01700
S 	S 	0.68539 0.68539 0.13577 -0.01700
S 	S 	0.68539 0.68539 0.49345 -0.01700
S 	S 	0.49345 0.13577 0.68539 -0.01700
S 	S 	0.13577 0.49345 0.68539 -0.01700
S 	S 	0.13577 0.68539 0.49345 -0.01700
S 	S 	0.49345 0.68539 0.13577 -0.01700
S 	S 	0.68539 0.13577 0.68539 -0.01700
S 	S 	0.68539 0.49345 0.68539 -0.01700
S 	S 	0.49345 0.68539 0.68539 -0.01700
S 	S 	0.13577 0.68539 0.68539 -0.01700
S 	S 	0.68539 0.13577 0.49345 -0.01700
S 	S 	0.68539 0.49345 0.13577 -0.01700
O 	O 	0.12896 0.43546 0.92462 -0.66200
O 	O 	0.10734 0.38048 0.99202 -0.77000
O 	O 	0.43546 0.12896 0.51096 -0.66300
O 	O 	0.38048 0.10734 0.52016 -0.77100
O 	O 	0.92462 0.51096 0.12896 -0.66200
O 	O 	0.99202 0.52016 0.10734 -0.77000
O 	O 	0.51096 0.92462 0.43546 -0.66300
O 	O 	0.52016 0.99202 0.38048 -0.77100
O 	O 	0.12896 0.92462 0.51096 -0.66200
O 	O 	0.10734 0.99202 0.52016 -0.77000
O 	O 	0.43546 0.51096 0.92462 -0.66300
O 	O 	0.38048 0.52016 0.99202 -0.77100
O 	O 	0.92462 0.12896 0.43546 -0.66200
O 	O 	0.99202 0.10734 0.38048 -0.77000
O 	O 	0.51096 0.43546 0.12896 -0.66300
O 	O 	0.52016 0.38048 0.10734 -0.77100
O 	O 	0.12896 0.51096 0.43546 -0.66300
O 	O 	0.10734 0.52016 0.38048 -0.77100
O 	O 	0.43546 0.92462 0.12896 -0.66200
O 	O 	0.38048 0.99202 0.10734 -0.77000
O 	O 	0.92462 0.43546 0.51096 -0.66300
O 	O 	0.99202 0.38048 0.52016 -0.77100
O 	O 	0.51096 0.12896 0.92462 -0.66200
O 	O 	0.52016 0.10734 0.99202 -0.77000
O 	O 	0.56454 0.87104 0.07538 -0.66200
O 	O 	0.61952 0.89266 0.00798 -0.77000
O 	O 	0.87104 0.56454 0.48904 -0.66300
O 	O 	0.89266 0.61952 0.47984 -0.77100
O 	O 	0.48904 0.07538 0.87104 -0.66200
O 	O 	0.47984 0.00798 0.89266 -0.77000
O 	O 	0.07538 0.48904 0.56454 -0.66300
O 	O 	0.00798 0.47984 0.61952 -0.77100
O 	O 	0.07538 0.87104 0.48904 -0.66200
O 	O 	0.00798 0.89266 0.47984 -0.77000
O 	O 	0.48904 0.56454 0.07538 -0.66300
O 	O 	0.47984 0.61952 0.00798 -0.77100
O 	O 	0.87104 0.07538 0.56454 -0.66200
O 	O 	0.89266 0.00798 0.61952 -0.77000
O 	O 	0.56454 0.48904 0.87104 -0.66300
O 	O 	0.61952 0.47984 0.89266 -0.77100
O 	O 	0.48904 0.87104 0.56454 -0.66300
O 	O 	0.47984 0.89266 0.61952 -0.77100
O 	O 	0.07538 0.56454 0.87104 -0.66200
O 	O 	0.00798 0.61952 0.89266 -0.77000
O 	O 	0.56454 0.07538 0.48904 -0.66300
O 	O 	0.61952 0.00798 0.47984 -0.77100
O 	O 	0.87104 0.48904 0.07538 -0.66200
O 	O 	0.89266 0.47984 0.00798 -0.77000
O 	O 	0.87104 0.56454 0.07538 -0.66200
O 	O 	0.89266 0.61952 0.00798 -0.77000
O 	O 	0.56454 0.87104 0.48904 -0.66300
O 	O 	0.61952 0.89266 0.47984 -0.77100
O 	O 	0.07538 0.48904 0.87104 -0.66200
O 	O 	0.00798 0.47984 0.89266 -0.77000
O 	O 	0.48904 0.07538 0.56454 -0.66300
O 	O 	0.47984 0.00798 0.61952 -0.77100
O 	O 	0.87104 0.07538 0.48904 -0.66200
O 	O 	0.89266 0.00798 0.47984 -0.77000
O 	O 	0.56454 0.48904 0.07538 -0.66300
O 	O 	0.61952 0.47984 0.00798 -0.77100
O 	O 	0.07538 0.87104 0.56454 -0.66200
O 	O 	0.00798 0.89266 0.61952 -0.77000
O 	O 	0.48904 0.56454 0.87104 -0.66300
O 	O 	0.47984 0.61952 0.89266 -0.77100
O 	O 	0.87104 0.48904 0.56454 -0.66300
O 	O 	0.89266 0.47984 0.61952 -0.77100
O 	O 	0.56454 0.07538 0.87104 -0.66200
O 	O 	0.61952 0.00798 0.89266 -0.77000
O 	O 	0.07538 0.56454 0.48904 -0.66300
O 	O 	0.00798 0.61952 0.47984 -0.77100
O 	O 	0.48904 0.87104 0.07538 -0.66200
O 	O 	0.47984 0.89266 0.00798 -0.77000
O 	O 	0.43546 0.12896 0.92462 -0.66200
O 	O 	0.38048 0.10734 0.99202 -0.77000
O 	O 	0.12896 0.43546 0.51096 -0.66300
O 	O 	0.10734 0.38048 0.52016 -0.77100
O 	O 	0.51096 0.92462 0.12896 -0.66200
O 	O 	0.52016 0.99202 0.10734 -0.77000
O 	O 	0.92462 0.51096 0.43546 -0.66300
O 	O 	0.99202 0.52016 0.38048 -0.77100
O 	O 	0.92462 0.12896 0.51096 -0.66200
O 	O 	0.99202 0.10734 0.52016 -0.77000
O 	O 	0.51096 0.43546 0.92462 -0.66300
O 	O 	0.52016 0.38048 0.99202 -0.77100
O 	O 	0.12896 0.92462 0.43546 -0.66200
O 	O 	0.10734 0.99202 0.38048 -0.77000
O 	O 	0.43546 0.51096 0.12896 -0.66300
O 	O 	0.38048 0.52016 0.10734 -0.77100
O 	O 	0.51096 0.12896 0.43546 -0.66300
O 	O 	0.52016 0.10734 0.38048 -0.77100
O 	O 	0.92462 0.43546 0.12896 -0.66200
O 	O 	0.99202 0.38048 0.10734 -0.77000
O 	O 	0.43546 0.92462 0.51096 -0.66300
O 	O 	0.38048 0.99202 0.52016 -0.77100
O 	O 	0.12896 0.51096 0.92462 -0.66200
O 	O 	0.10734 0.52016 0.99202 -0.77000
O 	O 	0.06863 0.46509 0.00119 -1.35300
O 	O 	0.46509 0.06863 0.46509 -1.35100
O 	O 	0.00119 0.46509 0.06863 -1.35300
O 	O 	0.46509 0.00119 0.46509 -1.35100
O 	O 	0.06863 0.00119 0.46509 -1.35300
O 	O 	0.46509 0.46509 0.00119 -1.35100
O 	O 	0.00119 0.06863 0.46509 -1.35300
O 	O 	0.46509 0.46509 0.06863 -1.35100
O 	O 	0.06863 0.46509 0.46509 -1.35100
O 	O 	0.46509 0.00119 0.06863 -1.35300
O 	O 	0.00119 0.46509 0.46509 -1.35100
O 	O 	0.46509 0.06863 0.00119 -1.35300
O 	O 	0.53491 0.93137 0.99881 -1.35300
O 	O 	0.93137 0.53491 0.53491 -1.35100
O 	O 	0.53491 0.99881 0.93137 -1.35300
O 	O 	0.99881 0.53491 0.53491 -1.35100
O 	O 	0.99881 0.93137 0.53491 -1.35300
O 	O 	0.53491 0.53491 0.99881 -1.35100
O 	O 	0.93137 0.99881 0.53491 -1.35300
O 	O 	0.53491 0.53491 0.93137 -1.35100
O 	O 	0.53491 0.93137 0.53491 -1.35100
O 	O 	0.99881 0.53491 0.93137 -1.35300
O 	O 	0.53491 0.99881 0.53491 -1.35100
O 	O 	0.93137 0.53491 0.99881 -1.35300
O 	O 	0.03417 0.54995 0.96583 -1.32900
O 	O 	0.54995 0.03417 0.45005 -1.33100
O 	O 	0.96583 0.45005 0.03417 -1.32900
O 	O 	0.45005 0.96583 0.54995 -1.33100
O 	O 	0.03417 0.96583 0.45005 -1.32900
O 	O 	0.54995 0.45005 0.96583 -1.33100
O 	O 	0.96583 0.03417 0.54995 -1.32900
O 	O 	0.45005 0.54995 0.03417 -1.33100
O 	O 	0.03417 0.45005 0.54995 -1.33100
O 	O 	0.54995 0.96583 0.03417 -1.32900
O 	O 	0.96583 0.54995 0.45005 -1.33100
O 	O 	0.45005 0.03417 0.96583 -1.32900
O 	O 	0.45005 0.96583 0.03417 -1.32900
O 	O 	0.96583 0.45005 0.54995 -1.33100
O 	O 	0.54995 0.03417 0.96583 -1.32900
O 	O 	0.03417 0.54995 0.45005 -1.33100
O 	O 	0.03417 0.96583 0.54995 -1.32900
O 	O 	0.54995 0.45005 0.03417 -1.33100
O 	O 	0.96583 0.03417 0.45005 -1.32900
O 	O 	0.45005 0.54995 0.96583 -1.33100
O 	O 	0.54995 0.96583 0.45005 -1.33100
O 	O 	0.03417 0.45005 0.96583 -1.32900
O 	O 	0.45005 0.03417 0.54995 -1.33100
O 	O 	0.96583 0.54995 0.03417 -1.32900
