data_crystal

_cell_length_a 35.24220
_cell_length_b 35.24220
_cell_length_c 35.24220
_cell_angle_alpha 60.00000
_cell_angle_beta  60.00000
_cell_angle_gamma 60.00000

_symmetry_space_group_name_	'P 1'
_symmetry_space_group_name_H-M	'P 1'

loop_
_symmetry_equiv_pos_as_xyz
  x,y,z

loop_
_atom_site_label
_atom_site_type_symbol
_atom_site_fract_x
_atom_site_fract_y
_atom_site_fract_z
_atom_site_charge
Hf	Hf	0.06957 0.50000 0.93043 1.49900
Hf	Hf	0.50000 0.06957 0.50000 1.49900
Hf	Hf	0.93043 0.50000 0.06957 1.49900
Hf	Hf	0.50000 0.93043 0.50000 1.49900
Hf	Hf	0.06957 0.93043 0.50000 1.49900
Hf	Hf	0.50000 0.50000 0.93043 1.49900
Hf	Hf	0.93043 0.06957 0.50000 1.50000
Hf	Hf	0.50000 0.50000 0.06957 1.50000
Hf	Hf	0.06957 0.50000 0.50000 1.50000
Hf	Hf	0.50000 0.93043 0.06957 1.50000
Hf	Hf	0.93043 0.50000 0.50000 1.50000
Hf	Hf	0.50000 0.06957 0.93043 1.50000
Hf	Hf	0.03531 0.41483 0.03531 1.36200
Hf	Hf	0.41483 0.03531 0.51455 1.36400
Hf	Hf	0.03531 0.51455 0.03531 1.36300
Hf	Hf	0.51455 0.03531 0.41483 1.36400
Hf	Hf	0.03531 0.03531 0.51455 1.36300
Hf	Hf	0.41483 0.51455 0.03531 1.36400
Hf	Hf	0.03531 0.03531 0.41483 1.36200
Hf	Hf	0.51455 0.41483 0.03531 1.36400
Hf	Hf	0.03531 0.51455 0.41483 1.36400
Hf	Hf	0.41483 0.03531 0.03531 1.36200
Hf	Hf	0.03531 0.41483 0.51455 1.36400
Hf	Hf	0.51455 0.03531 0.03531 1.36300
Hf	Hf	0.58517 0.96469 0.96469 1.36200
Hf	Hf	0.96469 0.58517 0.48545 1.36400
Hf	Hf	0.48545 0.96469 0.96469 1.36300
Hf	Hf	0.96469 0.48545 0.58517 1.36400
Hf	Hf	0.96469 0.96469 0.48545 1.36300
Hf	Hf	0.48545 0.58517 0.96469 1.36400
Hf	Hf	0.96469 0.96469 0.58517 1.36200
Hf	Hf	0.58517 0.48545 0.96469 1.36400
Hf	Hf	0.48545 0.96469 0.58517 1.36400
Hf	Hf	0.96469 0.58517 0.96469 1.36200
Hf	Hf	0.58517 0.96469 0.48545 1.36400
Hf	Hf	0.96469 0.48545 0.96469 1.36300
H 	H 	0.21710 0.39590 0.87590 0.05400
H 	H 	0.39590 0.21710 0.51110 0.05400
H 	H 	0.87590 0.51110 0.21710 0.05400
H 	H 	0.51110 0.87590 0.39590 0.05400
H 	H 	0.21710 0.87590 0.51110 0.05400
H 	H 	0.39590 0.51110 0.87590 0.05400
H 	H 	0.87590 0.21710 0.39590 0.05400
H 	H 	0.51110 0.39590 0.21710 0.05400
H 	H 	0.21710 0.51110 0.39590 0.05400
H 	H 	0.39590 0.87590 0.21710 0.05400
H 	H 	0.87590 0.39590 0.51110 0.05400
H 	H 	0.51110 0.21710 0.87590 0.05400
H 	H 	0.60410 0.78290 0.12410 0.05400
H 	H 	0.78290 0.60410 0.48890 0.05400
H 	H 	0.48890 0.12410 0.78290 0.05400
H 	H 	0.12410 0.48890 0.60410 0.05400
H 	H 	0.12410 0.78290 0.48890 0.05400
H 	H 	0.48890 0.60410 0.12410 0.05400
H 	H 	0.78290 0.12410 0.60410 0.05400
H 	H 	0.60410 0.48890 0.78290 0.05400
H 	H 	0.48890 0.78290 0.60410 0.05400
H 	H 	0.12410 0.60410 0.78290 0.05400
H 	H 	0.60410 0.12410 0.48890 0.05400
H 	H 	0.78290 0.48890 0.12410 0.05400
H 	H 	0.78290 0.60410 0.12410 0.05400
H 	H 	0.60410 0.78290 0.48890 0.05400
H 	H 	0.12410 0.48890 0.78290 0.05400
H 	H 	0.48890 0.12410 0.60410 0.05400
H 	H 	0.78290 0.12410 0.48890 0.05400
H 	H 	0.60410 0.48890 0.12410 0.05400
H 	H 	0.12410 0.78290 0.60410 0.05400
H 	H 	0.48890 0.60410 0.78290 0.05400
H 	H 	0.78290 0.48890 0.60410 0.05400
H 	H 	0.60410 0.12410 0.78290 0.05400
H 	H 	0.12410 0.60410 0.48890 0.05400
H 	H 	0.48890 0.78290 0.12410 0.05400
H 	H 	0.39590 0.21710 0.87590 0.05400
H 	H 	0.21710 0.39590 0.51110 0.05400
H 	H 	0.51110 0.87590 0.21710 0.05400
H 	H 	0.87590 0.51110 0.39590 0.05400
H 	H 	0.87590 0.21710 0.51110 0.05400
H 	H 	0.51110 0.39590 0.87590 0.05400
H 	H 	0.21710 0.87590 0.39590 0.05400
H 	H 	0.39590 0.51110 0.21710 0.05400
H 	H 	0.51110 0.21710 0.39590 0.05400
H 	H 	0.87590 0.39590 0.21710 0.05400
H 	H 	0.39590 0.87590 0.51110 0.05400
H 	H 	0.21710 0.51110 0.87590 0.05400
C 	C 	0.18251 0.36147 0.94001 -0.09800
C 	C 	0.21819 0.36799 0.90061 -0.01300
C 	C 	0.25772 0.32710 0.90128 0.00300
C 	C 	0.13563 0.39545 0.95307 0.39100
C 	C 	0.25012 0.29076 0.94064 -0.00900
C 	C 	0.36147 0.18251 0.51601 -0.09800
C 	C 	0.36799 0.21819 0.51321 -0.01300
C 	C 	0.32710 0.25772 0.51390 0.00300
C 	C 	0.39545 0.13563 0.51585 0.39100
C 	C 	0.29076 0.25012 0.51848 -0.00900
C 	C 	0.94001 0.51601 0.18251 -0.09800
C 	C 	0.90061 0.51321 0.21819 -0.01300
C 	C 	0.90128 0.51390 0.25772 0.00300
C 	C 	0.95307 0.51585 0.13563 0.39100
C 	C 	0.94064 0.51848 0.25012 -0.00900
C 	C 	0.51601 0.94001 0.36147 -0.09800
C 	C 	0.51321 0.90061 0.36799 -0.01300
C 	C 	0.51390 0.90128 0.32710 0.00300
C 	C 	0.51585 0.95307 0.39545 0.39100
C 	C 	0.51848 0.94064 0.29076 -0.00900
C 	C 	0.18251 0.94001 0.51601 -0.09800
C 	C 	0.21819 0.90061 0.51321 -0.01300
C 	C 	0.25772 0.90128 0.51390 0.00300
C 	C 	0.13563 0.95307 0.51585 0.39100
C 	C 	0.25012 0.94064 0.51848 -0.00900
C 	C 	0.36147 0.51601 0.94001 -0.09800
C 	C 	0.36799 0.51321 0.90061 -0.01300
C 	C 	0.32710 0.51390 0.90128 0.00300
C 	C 	0.39545 0.51585 0.95307 0.39100
C 	C 	0.29076 0.51848 0.94064 -0.00900
C 	C 	0.94001 0.18251 0.36147 -0.09800
C 	C 	0.90061 0.21819 0.36799 -0.01300
C 	C 	0.90128 0.25772 0.32710 0.00300
C 	C 	0.95307 0.13563 0.39545 0.39100
C 	C 	0.94064 0.25012 0.29076 -0.00900
C 	C 	0.51601 0.36147 0.18251 -0.09800
C 	C 	0.51321 0.36799 0.21819 -0.01300
C 	C 	0.51390 0.32710 0.25772 0.00300
C 	C 	0.51585 0.39545 0.13563 0.39100
C 	C 	0.51848 0.29076 0.25012 -0.00900
C 	C 	0.18251 0.51601 0.36147 -0.09800
C 	C 	0.21819 0.51321 0.36799 -0.01300
C 	C 	0.25772 0.51390 0.32710 0.00300
C 	C 	0.13563 0.51585 0.39545 0.39100
C 	C 	0.25012 0.51848 0.29076 -0.00900
C 	C 	0.36147 0.94001 0.18251 -0.09800
C 	C 	0.36799 0.90061 0.21819 -0.01300
C 	C 	0.32710 0.90128 0.25772 0.00300
C 	C 	0.39545 0.95307 0.13563 0.39100
C 	C 	0.29076 0.94064 0.25012 -0.00900
C 	C 	0.94001 0.36147 0.51601 -0.09800
C 	C 	0.90061 0.36799 0.51321 -0.01300
C 	C 	0.90128 0.32710 0.51390 0.00300
C 	C 	0.95307 0.39545 0.51585 0.39100
C 	C 	0.94064 0.29076 0.51848 -0.00900
C 	C 	0.51601 0.18251 0.94001 -0.09800
C 	C 	0.51321 0.21819 0.90061 -0.01300
C 	C 	0.51390 0.25772 0.90128 0.00300
C 	C 	0.51585 0.13563 0.95307 0.39100
C 	C 	0.51848 0.25012 0.94064 -0.00900
C 	C 	0.63853 0.81749 0.05999 -0.09800
C 	C 	0.63201 0.78181 0.09939 -0.01300
C 	C 	0.67290 0.74228 0.09872 0.00300
C 	C 	0.60455 0.86437 0.04693 0.39100
C 	C 	0.70924 0.74988 0.05936 -0.00900
C 	C 	0.81749 0.63853 0.48399 -0.09800
C 	C 	0.78181 0.63201 0.48679 -0.01300
C 	C 	0.74228 0.67290 0.48610 0.00300
C 	C 	0.86437 0.60455 0.48415 0.39100
C 	C 	0.74988 0.70924 0.48152 -0.00900
C 	C 	0.48399 0.05999 0.81749 -0.09800
C 	C 	0.48679 0.09939 0.78181 -0.01300
C 	C 	0.48610 0.09872 0.74228 0.00300
C 	C 	0.48415 0.04693 0.86437 0.39100
C 	C 	0.48152 0.05936 0.74988 -0.00900
C 	C 	0.05999 0.48399 0.63853 -0.09800
C 	C 	0.09939 0.48679 0.63201 -0.01300
C 	C 	0.09872 0.48610 0.67290 0.00300
C 	C 	0.04693 0.48415 0.60455 0.39100
C 	C 	0.05936 0.48152 0.70924 -0.00900
C 	C 	0.05999 0.81749 0.48399 -0.09800
C 	C 	0.09939 0.78181 0.48679 -0.01300
C 	C 	0.09872 0.74228 0.48610 0.00300
C 	C 	0.04693 0.86437 0.48415 0.39100
C 	C 	0.05936 0.74988 0.48152 -0.00900
C 	C 	0.48399 0.63853 0.05999 -0.09800
C 	C 	0.48679 0.63201 0.09939 -0.01300
C 	C 	0.48610 0.67290 0.09872 0.00300
C 	C 	0.48415 0.60455 0.04693 0.39100
C 	C 	0.48152 0.70924 0.05936 -0.00900
C 	C 	0.81749 0.05999 0.63853 -0.09800
C 	C 	0.78181 0.09939 0.63201 -0.01300
C 	C 	0.74228 0.09872 0.67290 0.00300
C 	C 	0.86437 0.04693 0.60455 0.39100
C 	C 	0.74988 0.05936 0.70924 -0.00900
C 	C 	0.63853 0.48399 0.81749 -0.09800
C 	C 	0.63201 0.48679 0.78181 -0.01300
C 	C 	0.67290 0.48610 0.74228 0.00300
C 	C 	0.60455 0.48415 0.86437 0.39100
C 	C 	0.70924 0.48152 0.74988 -0.00900
C 	C 	0.48399 0.81749 0.63853 -0.09800
C 	C 	0.48679 0.78181 0.63201 -0.01300
C 	C 	0.48610 0.74228 0.67290 0.00300
C 	C 	0.48415 0.86437 0.60455 0.39100
C 	C 	0.48152 0.74988 0.70924 -0.00900
C 	C 	0.05999 0.63853 0.81749 -0.09800
C 	C 	0.09939 0.63201 0.78181 -0.01300
C 	C 	0.09872 0.67290 0.74228 0.00300
C 	C 	0.04693 0.60455 0.86437 0.39100
C 	C 	0.05936 0.70924 0.74988 -0.00900
C 	C 	0.63853 0.05999 0.48399 -0.09800
C 	C 	0.63201 0.09939 0.48679 -0.01300
C 	C 	0.67290 0.09872 0.48610 0.00300
C 	C 	0.60455 0.04693 0.48415 0.39100
C 	C 	0.70924 0.05936 0.48152 -0.00900
C 	C 	0.81749 0.48399 0.05999 -0.09800
C 	C 	0.78181 0.48679 0.09939 -0.01300
C 	C 	0.74228 0.48610 0.09872 0.00300
C 	C 	0.86437 0.48415 0.04693 0.39100
C 	C 	0.74988 0.48152 0.05936 -0.00900
C 	C 	0.81749 0.63853 0.05999 -0.09800
C 	C 	0.78181 0.63201 0.09939 -0.01300
C 	C 	0.74228 0.67290 0.09872 0.00300
C 	C 	0.86437 0.60455 0.04693 0.39100
C 	C 	0.74988 0.70924 0.05936 -0.00900
C 	C 	0.63853 0.81749 0.48399 -0.09800
C 	C 	0.63201 0.78181 0.48679 -0.01300
C 	C 	0.67290 0.74228 0.48610 0.00300
C 	C 	0.60455 0.86437 0.48415 0.39100
C 	C 	0.70924 0.74988 0.48152 -0.00900
C 	C 	0.05999 0.48399 0.81749 -0.09800
C 	C 	0.09939 0.48679 0.78181 -0.01300
C 	C 	0.09872 0.48610 0.74228 0.00300
C 	C 	0.04693 0.48415 0.86437 0.39100
C 	C 	0.05936 0.48152 0.74988 -0.00900
C 	C 	0.48399 0.05999 0.63853 -0.09800
C 	C 	0.48679 0.09939 0.63201 -0.01300
C 	C 	0.48610 0.09872 0.67290 0.00300
C 	C 	0.48415 0.04693 0.60455 0.39100
C 	C 	0.48152 0.05936 0.70924 -0.00900
C 	C 	0.81749 0.05999 0.48399 -0.09800
C 	C 	0.78181 0.09939 0.48679 -0.01300
C 	C 	0.74228 0.09872 0.48610 0.00300
C 	C 	0.86437 0.04693 0.48415 0.39100
C 	C 	0.74988 0.05936 0.48152 -0.00900
C 	C 	0.63853 0.48399 0.05999 -0.09800
C 	C 	0.63201 0.48679 0.09939 -0.01300
C 	C 	0.67290 0.48610 0.09872 0.00300
C 	C 	0.60455 0.48415 0.04693 0.39100
C 	C 	0.70924 0.48152 0.05936 -0.00900
C 	C 	0.05999 0.81749 0.63853 -0.09800
C 	C 	0.09939 0.78181 0.63201 -0.01300
C 	C 	0.09872 0.74228 0.67290 0.00300
C 	C 	0.04693 0.86437 0.60455 0.39100
C 	C 	0.05936 0.74988 0.70924 -0.00900
C 	C 	0.48399 0.63853 0.81749 -0.09800
C 	C 	0.48679 0.63201 0.78181 -0.01300
C 	C 	0.48610 0.67290 0.74228 0.00300
C 	C 	0.48415 0.60455 0.86437 0.39100
C 	C 	0.48152 0.70924 0.74988 -0.00900
C 	C 	0.81749 0.48399 0.63853 -0.09800
C 	C 	0.78181 0.48679 0.63201 -0.01300
C 	C 	0.74228 0.48610 0.67290 0.00300
C 	C 	0.86437 0.48415 0.60455 0.39100
C 	C 	0.74988 0.48152 0.70924 -0.00900
C 	C 	0.63853 0.05999 0.81749 -0.09800
C 	C 	0.63201 0.09939 0.78181 -0.01300
C 	C 	0.67290 0.09872 0.74228 0.00300
C 	C 	0.60455 0.04693 0.86437 0.39100
C 	C 	0.70924 0.05936 0.74988 -0.00900
C 	C 	0.05999 0.63853 0.48399 -0.09800
C 	C 	0.09939 0.63201 0.48679 -0.01300
C 	C 	0.09872 0.67290 0.48610 0.00300
C 	C 	0.04693 0.60455 0.48415 0.39100
C 	C 	0.05936 0.70924 0.48152 -0.00900
C 	C 	0.48399 0.81749 0.05999 -0.09800
C 	C 	0.48679 0.78181 0.09939 -0.01300
C 	C 	0.48610 0.74228 0.09872 0.00300
C 	C 	0.48415 0.86437 0.04693 0.39100
C 	C 	0.48152 0.74988 0.05936 -0.00900
C 	C 	0.36147 0.18251 0.94001 -0.09800
C 	C 	0.36799 0.21819 0.90061 -0.01300
C 	C 	0.32710 0.25772 0.90128 0.00300
C 	C 	0.39545 0.13563 0.95307 0.39100
C 	C 	0.29076 0.25012 0.94064 -0.00900
C 	C 	0.18251 0.36147 0.51601 -0.09800
C 	C 	0.21819 0.36799 0.51321 -0.01300
C 	C 	0.25772 0.32710 0.51390 0.00300
C 	C 	0.13563 0.39545 0.51585 0.39100
C 	C 	0.25012 0.29076 0.51848 -0.00900
C 	C 	0.51601 0.94001 0.18251 -0.09800
C 	C 	0.51321 0.90061 0.21819 -0.01300
C 	C 	0.51390 0.90128 0.25772 0.00300
C 	C 	0.51585 0.95307 0.13563 0.39100
C 	C 	0.51848 0.94064 0.25012 -0.00900
C 	C 	0.94001 0.51601 0.36147 -0.09800
C 	C 	0.90061 0.51321 0.36799 -0.01300
C 	C 	0.90128 0.51390 0.32710 0.00300
C 	C 	0.95307 0.51585 0.39545 0.39100
C 	C 	0.94064 0.51848 0.29076 -0.00900
C 	C 	0.94001 0.18251 0.51601 -0.09800
C 	C 	0.90061 0.21819 0.51321 -0.01300
C 	C 	0.90128 0.25772 0.51390 0.00300
C 	C 	0.95307 0.13563 0.51585 0.39100
C 	C 	0.94064 0.25012 0.51848 -0.00900
C 	C 	0.51601 0.36147 0.94001 -0.09800
C 	C 	0.51321 0.36799 0.90061 -0.01300
C 	C 	0.51390 0.32710 0.90128 0.00300
C 	C 	0.51585 0.39545 0.95307 0.39100
C 	C 	0.51848 0.29076 0.94064 -0.00900
C 	C 	0.18251 0.94001 0.36147 -0.09800
C 	C 	0.21819 0.90061 0.36799 -0.01300
C 	C 	0.25772 0.90128 0.32710 0.00300
C 	C 	0.13563 0.95307 0.39545 0.39100
C 	C 	0.25012 0.94064 0.29076 -0.00900
C 	C 	0.36147 0.51601 0.18251 -0.09800
C 	C 	0.36799 0.51321 0.21819 -0.01300
C 	C 	0.32710 0.51390 0.25772 0.00300
C 	C 	0.39545 0.51585 0.13563 0.39100
C 	C 	0.29076 0.51848 0.25012 -0.00900
C 	C 	0.51601 0.18251 0.36147 -0.09800
C 	C 	0.51321 0.21819 0.36799 -0.01300
C 	C 	0.51390 0.25772 0.32710 0.00300
C 	C 	0.51585 0.13563 0.39545 0.39100
C 	C 	0.51848 0.25012 0.29076 -0.00900
C 	C 	0.94001 0.36147 0.18251 -0.09800
C 	C 	0.90061 0.36799 0.21819 -0.01300
C 	C 	0.90128 0.32710 0.25772 0.00300
C 	C 	0.95307 0.39545 0.13563 0.39100
C 	C 	0.94064 0.29076 0.25012 -0.00900
C 	C 	0.36147 0.94001 0.51601 -0.09800
C 	C 	0.36799 0.90061 0.51321 -0.01300
C 	C 	0.32710 0.90128 0.51390 0.00300
C 	C 	0.39545 0.95307 0.51585 0.39100
C 	C 	0.29076 0.94064 0.51848 -0.00900
C 	C 	0.18251 0.51601 0.94001 -0.09800
C 	C 	0.21819 0.51321 0.90061 -0.01300
C 	C 	0.25772 0.51390 0.90128 0.00300
C 	C 	0.13563 0.51585 0.95307 0.39100
C 	C 	0.25012 0.51848 0.94064 -0.00900
S 	S 	0.19432 0.30474 0.97808 0.01700
S 	S 	0.30474 0.19432 0.52286 0.01600
S 	S 	0.97808 0.52286 0.19432 0.01700
S 	S 	0.52286 0.97808 0.30474 0.01700
S 	S 	0.19432 0.97808 0.52286 0.01700
S 	S 	0.30474 0.52286 0.97808 0.01700
S 	S 	0.97808 0.19432 0.30474 0.01700
S 	S 	0.52286 0.30474 0.19432 0.01600
S 	S 	0.19432 0.52286 0.30474 0.01600
S 	S 	0.30474 0.97808 0.19432 0.01700
S 	S 	0.97808 0.30474 0.52286 0.01700
S 	S 	0.52286 0.19432 0.97808 0.01700
S 	S 	0.69526 0.80568 0.02192 0.01700
S 	S 	0.80568 0.69526 0.47714 0.01600
S 	S 	0.47714 0.02192 0.80568 0.01700
S 	S 	0.02192 0.47714 0.69526 0.01700
S 	S 	0.02192 0.80568 0.47714 0.01700
S 	S 	0.47714 0.69526 0.02192 0.01700
S 	S 	0.80568 0.02192 0.69526 0.01700
S 	S 	0.69526 0.47714 0.80568 0.01600
S 	S 	0.47714 0.80568 0.69526 0.01600
S 	S 	0.02192 0.69526 0.80568 0.01700
S 	S 	0.69526 0.02192 0.47714 0.01700
S 	S 	0.80568 0.47714 0.02192 0.01700
S 	S 	0.80568 0.69526 0.02192 0.01700
S 	S 	0.69526 0.80568 0.47714 0.01600
S 	S 	0.02192 0.47714 0.80568 0.01700
S 	S 	0.47714 0.02192 0.69526 0.01700
S 	S 	0.80568 0.02192 0.47714 0.01700
S 	S 	0.69526 0.47714 0.02192 0.01700
S 	S 	0.02192 0.80568 0.69526 0.01700
S 	S 	0.47714 0.69526 0.80568 0.01600
S 	S 	0.80568 0.47714 0.69526 0.01600
S 	S 	0.69526 0.02192 0.80568 0.01700
S 	S 	0.02192 0.69526 0.47714 0.01700
S 	S 	0.47714 0.80568 0.02192 0.01700
S 	S 	0.30474 0.19432 0.97808 0.01700
S 	S 	0.19432 0.30474 0.52286 0.01600
S 	S 	0.52286 0.97808 0.19432 0.01700
S 	S 	0.97808 0.52286 0.30474 0.01700
S 	S 	0.97808 0.19432 0.52286 0.01700
S 	S 	0.52286 0.30474 0.97808 0.01700
S 	S 	0.19432 0.97808 0.30474 0.01700
S 	S 	0.30474 0.52286 0.19432 0.01600
S 	S 	0.52286 0.19432 0.30474 0.01600
S 	S 	0.97808 0.30474 0.19432 0.01700
S 	S 	0.30474 0.97808 0.52286 0.01700
S 	S 	0.19432 0.52286 0.97808 0.01700
S 	S 	0.31461 0.31461 0.86331 -0.00800
S 	S 	0.31461 0.31461 0.50747 -0.00800
S 	S 	0.86331 0.50747 0.31461 -0.00800
S 	S 	0.50747 0.86331 0.31461 -0.00800
S 	S 	0.31461 0.86331 0.50747 -0.00800
S 	S 	0.31461 0.50747 0.86331 -0.00800
S 	S 	0.86331 0.31461 0.31461 -0.00800
S 	S 	0.50747 0.31461 0.31461 -0.00800
S 	S 	0.31461 0.50747 0.31461 -0.00800
S 	S 	0.31461 0.86331 0.31461 -0.00800
S 	S 	0.86331 0.31461 0.50747 -0.00800
S 	S 	0.50747 0.31461 0.86331 -0.00800
S 	S 	0.68539 0.68539 0.13669 -0.00800
S 	S 	0.68539 0.68539 0.49253 -0.00800
S 	S 	0.49253 0.13669 0.68539 -0.00800
S 	S 	0.13669 0.49253 0.68539 -0.00800
S 	S 	0.13669 0.68539 0.49253 -0.00800
S 	S 	0.49253 0.68539 0.13669 -0.00800
S 	S 	0.68539 0.13669 0.68539 -0.00800
S 	S 	0.68539 0.49253 0.68539 -0.00800
S 	S 	0.49253 0.68539 0.68539 -0.00800
S 	S 	0.13669 0.68539 0.68539 -0.00800
S 	S 	0.68539 0.13669 0.49253 -0.00800
S 	S 	0.68539 0.49253 0.13669 -0.00800
O 	O 	0.12866 0.43596 0.92454 -0.38800
O 	O 	0.10718 0.38080 0.99192 -0.42900
O 	O 	0.43596 0.12866 0.51084 -0.38900
O 	O 	0.38080 0.10718 0.52010 -0.43000
O 	O 	0.92454 0.51084 0.12866 -0.38900
O 	O 	0.99192 0.52010 0.10718 -0.42900
O 	O 	0.51084 0.92454 0.43596 -0.38900
O 	O 	0.52010 0.99192 0.38080 -0.42900
O 	O 	0.12866 0.92454 0.51084 -0.38900
O 	O 	0.10718 0.99192 0.52010 -0.42900
O 	O 	0.43596 0.51084 0.92454 -0.38900
O 	O 	0.38080 0.52010 0.99192 -0.42900
O 	O 	0.92454 0.12866 0.43596 -0.38800
O 	O 	0.99192 0.10718 0.38080 -0.42900
O 	O 	0.51084 0.43596 0.12866 -0.38900
O 	O 	0.52010 0.38080 0.10718 -0.43000
O 	O 	0.12866 0.51084 0.43596 -0.38900
O 	O 	0.10718 0.52010 0.38080 -0.43000
O 	O 	0.43596 0.92454 0.12866 -0.38800
O 	O 	0.38080 0.99192 0.10718 -0.42900
O 	O 	0.92454 0.43596 0.51084 -0.38900
O 	O 	0.99192 0.38080 0.52010 -0.42900
O 	O 	0.51084 0.12866 0.92454 -0.38900
O 	O 	0.52010 0.10718 0.99192 -0.42900
O 	O 	0.56404 0.87134 0.07546 -0.38800
O 	O 	0.61920 0.89282 0.00808 -0.42900
O 	O 	0.87134 0.56404 0.48916 -0.38900
O 	O 	0.89282 0.61920 0.47990 -0.43000
O 	O 	0.48916 0.07546 0.87134 -0.38900
O 	O 	0.47990 0.00808 0.89282 -0.42900
O 	O 	0.07546 0.48916 0.56404 -0.38900
O 	O 	0.00808 0.47990 0.61920 -0.42900
O 	O 	0.07546 0.87134 0.48916 -0.38900
O 	O 	0.00808 0.89282 0.47990 -0.42900
O 	O 	0.48916 0.56404 0.07546 -0.38900
O 	O 	0.47990 0.61920 0.00808 -0.42900
O 	O 	0.87134 0.07546 0.56404 -0.38800
O 	O 	0.89282 0.00808 0.61920 -0.42900
O 	O 	0.56404 0.48916 0.87134 -0.38900
O 	O 	0.61920 0.47990 0.89282 -0.43000
O 	O 	0.48916 0.87134 0.56404 -0.38900
O 	O 	0.47990 0.89282 0.61920 -0.43000
O 	O 	0.07546 0.56404 0.87134 -0.38800
O 	O 	0.00808 0.61920 0.89282 -0.42900
O 	O 	0.56404 0.07546 0.48916 -0.38900
O 	O 	0.61920 0.00808 0.47990 -0.42900
O 	O 	0.87134 0.48916 0.07546 -0.38900
O 	O 	0.89282 0.47990 0.00808 -0.42900
O 	O 	0.87134 0.56404 0.07546 -0.38800
O 	O 	0.89282 0.61920 0.00808 -0.42900
O 	O 	0.56404 0.87134 0.48916 -0.38900
O 	O 	0.61920 0.89282 0.47990 -0.43000
O 	O 	0.07546 0.48916 0.87134 -0.38900
O 	O 	0.00808 0.47990 0.89282 -0.42900
O 	O 	0.48916 0.07546 0.56404 -0.38900
O 	O 	0.47990 0.00808 0.61920 -0.42900
O 	O 	0.87134 0.07546 0.48916 -0.38900
O 	O 	0.89282 0.00808 0.47990 -0.42900
O 	O 	0.56404 0.48916 0.07546 -0.38900
O 	O 	0.61920 0.47990 0.00808 -0.42900
O 	O 	0.07546 0.87134 0.56404 -0.38800
O 	O 	0.00808 0.89282 0.61920 -0.42900
O 	O 	0.48916 0.56404 0.87134 -0.38900
O 	O 	0.47990 0.61920 0.89282 -0.43000
O 	O 	0.87134 0.48916 0.56404 -0.38900
O 	O 	0.89282 0.47990 0.61920 -0.43000
O 	O 	0.56404 0.07546 0.87134 -0.38800
O 	O 	0.61920 0.00808 0.89282 -0.42900
O 	O 	0.07546 0.56404 0.48916 -0.38900
O 	O 	0.00808 0.61920 0.47990 -0.42900
O 	O 	0.48916 0.87134 0.07546 -0.38900
O 	O 	0.47990 0.89282 0.00808 -0.42900
O 	O 	0.43596 0.12866 0.92454 -0.38800
O 	O 	0.38080 0.10718 0.99192 -0.42900
O 	O 	0.12866 0.43596 0.51084 -0.38900
O 	O 	0.10718 0.38080 0.52010 -0.43000
O 	O 	0.51084 0.92454 0.12866 -0.38900
O 	O 	0.52010 0.99192 0.10718 -0.42900
O 	O 	0.92454 0.51084 0.43596 -0.38900
O 	O 	0.99192 0.52010 0.38080 -0.42900
O 	O 	0.92454 0.12866 0.51084 -0.38900
O 	O 	0.99192 0.10718 0.52010 -0.42900
O 	O 	0.51084 0.43596 0.92454 -0.38900
O 	O 	0.52010 0.38080 0.99192 -0.42900
O 	O 	0.12866 0.92454 0.43596 -0.38800
O 	O 	0.10718 0.99192 0.38080 -0.42900
O 	O 	0.43596 0.51084 0.12866 -0.38900
O 	O 	0.38080 0.52010 0.10718 -0.43000
O 	O 	0.51084 0.12866 0.43596 -0.38900
O 	O 	0.52010 0.10718 0.38080 -0.43000
O 	O 	0.92454 0.43596 0.12866 -0.38800
O 	O 	0.99192 0.38080 0.10718 -0.42900
O 	O 	0.43596 0.92454 0.51084 -0.38900
O 	O 	0.38080 0.99192 0.52010 -0.42900
O 	O 	0.12866 0.51084 0.92454 -0.38900
O 	O 	0.10718 0.52010 0.99192 -0.42900
O 	O 	0.06891 0.46503 0.00103 -0.58000
O 	O 	0.46503 0.06891 0.46503 -0.58000
O 	O 	0.00103 0.46503 0.06891 -0.58000
O 	O 	0.46503 0.00103 0.46503 -0.58000
O 	O 	0.06891 0.00103 0.46503 -0.58000
O 	O 	0.46503 0.46503 0.00103 -0.58000
O 	O 	0.00103 0.06891 0.46503 -0.58000
O 	O 	0.46503 0.46503 0.06891 -0.58000
O 	O 	0.06891 0.46503 0.46503 -0.58000
O 	O 	0.46503 0.00103 0.06891 -0.58000
O 	O 	0.00103 0.46503 0.46503 -0.58000
O 	O 	0.46503 0.06891 0.00103 -0.58000
O 	O 	0.53497 0.93109 0.99897 -0.58000
O 	O 	0.93109 0.53497 0.53497 -0.58000
O 	O 	0.53497 0.99897 0.93109 -0.58000
O 	O 	0.99897 0.53497 0.53497 -0.58000
O 	O 	0.99897 0.93109 0.53497 -0.58000
O 	O 	0.53497 0.53497 0.99897 -0.58000
O 	O 	0.93109 0.99897 0.53497 -0.58000
O 	O 	0.53497 0.53497 0.93109 -0.58000
O 	O 	0.53497 0.93109 0.53497 -0.58000
O 	O 	0.99897 0.53497 0.93109 -0.58000
O 	O 	0.53497 0.99897 0.53497 -0.58000
O 	O 	0.93109 0.53497 0.99897 -0.58000
O 	O 	0.03403 0.54913 0.96597 -0.57800
O 	O 	0.54913 0.03403 0.45087 -0.57900
O 	O 	0.96597 0.45087 0.03403 -0.57800
O 	O 	0.45087 0.96597 0.54913 -0.57900
O 	O 	0.03403 0.96597 0.45087 -0.57800
O 	O 	0.54913 0.45087 0.96597 -0.57900
O 	O 	0.96597 0.03403 0.54913 -0.57800
O 	O 	0.45087 0.54913 0.03403 -0.57900
O 	O 	0.03403 0.45087 0.54913 -0.57900
O 	O 	0.54913 0.96597 0.03403 -0.57800
O 	O 	0.96597 0.54913 0.45087 -0.57900
O 	O 	0.45087 0.03403 0.96597 -0.57800
O 	O 	0.45087 0.96597 0.03403 -0.57800
O 	O 	0.96597 0.45087 0.54913 -0.57900
O 	O 	0.54913 0.03403 0.96597 -0.57800
O 	O 	0.03403 0.54913 0.45087 -0.57900
O 	O 	0.03403 0.96597 0.54913 -0.57800
O 	O 	0.54913 0.45087 0.03403 -0.57900
O 	O 	0.96597 0.03403 0.45087 -0.57800
O 	O 	0.45087 0.54913 0.96597 -0.57900
O 	O 	0.54913 0.96597 0.45087 -0.57900
O 	O 	0.03403 0.45087 0.96597 -0.57800
O 	O 	0.45087 0.03403 0.54913 -0.57900
O 	O 	0.96597 0.54913 0.03403 -0.57800
