data_crystal

_cell_length_a 7.08500
_cell_length_b 16.40400
_cell_length_c 31.76600
_cell_angle_alpha 90.00000
_cell_angle_beta  90.00000
_cell_angle_gamma 99.78000

_symmetry_space_group_name_	'P 1'
_symmetry_space_group_name_H-M	'P 1'

loop_
_symmetry_equiv_pos_as_xyz
  x,y,z

loop_
_atom_site_label
_atom_site_type_symbol
_atom_site_fract_x
_atom_site_fract_y
_atom_site_fract_z
_atom_site_charge
Ni	Ni	0.25237 0.39854 0.92932 1.09400
Ni	Ni	0.27354 0.62514 0.07365 1.08800
Ni	Ni	0.74763 0.10146 0.42932 1.09300
Ni	Ni	0.72646 0.87486 0.57365 1.08900
Ni	Ni	0.74763 0.60146 0.07068 1.09700
Ni	Ni	0.72646 0.37486 0.92635 1.08800
Ni	Ni	0.25237 0.89854 0.57068 1.09700
Ni	Ni	0.27354 0.12514 0.42635 1.08600
Ni	Ni	0.00000 0.50000 -0.00000 1.08800
Ni	Ni	-0.00000 0.00000 0.50000 1.08700
Ni	Ni	0.50000 0.50000 -0.00000 1.08100
Ni	Ni	0.50000 0.00000 0.50000 1.08000
H 	H 	0.15010 0.76790 0.00300 -0.12400
H 	H 	0.05810 0.87510 0.96670 0.28000
H 	H 	0.20560 0.78150 0.85810 0.34000
H 	H 	0.32720 0.68120 0.89500 -0.05300
H 	H 	0.56100 0.49600 0.92250 0.33400
H 	H 	0.79000 0.61400 0.99720 0.32200
H 	H 	0.89480 0.04730 0.90820 0.41400
H 	H 	0.04500 0.17490 0.93130 -0.17600
H 	H 	0.53420 0.09470 0.92790 -0.17000
H 	H 	0.38290 0.96550 0.90730 0.43200
H 	H 	0.22600 0.38970 0.09890 -0.08800
H 	H 	0.39800 0.34240 0.15180 0.32100
H 	H 	0.10410 0.44480 0.23790 0.32000
H 	H 	0.92610 0.48810 0.18510 -0.01000
H 	H 	0.06230 0.26820 0.23620 0.28800
H 	H 	0.87810 0.19900 0.28910 0.02800
H 	H 	0.26030 0.29720 0.37450 -0.05500
H 	H 	0.43600 0.37040 0.32210 0.29300
H 	H 	0.84990 0.73210 0.50300 -0.06100
H 	H 	0.94190 0.62490 0.46670 0.24500
H 	H 	0.79440 0.71850 0.35810 0.31900
H 	H 	0.67280 0.81880 0.39500 -0.02800
H 	H 	0.43900 0.00400 0.42250 0.32400
H 	H 	0.21000 0.88600 0.49720 0.28600
H 	H 	0.10520 0.45270 0.40820 0.30800
H 	H 	0.95500 0.32510 0.43130 -0.09400
H 	H 	0.46580 0.40530 0.42790 -0.08900
H 	H 	0.61710 0.53450 0.40730 0.31800
H 	H 	0.77400 0.11030 0.59890 -0.07900
H 	H 	0.60200 0.15760 0.65180 0.31500
H 	H 	0.89590 0.05520 0.73790 0.32200
H 	H 	0.07390 0.01190 0.68510 -0.03300
H 	H 	0.93770 0.23180 0.73620 0.25000
H 	H 	0.12190 0.30100 0.78910 0.08300
H 	H 	0.73970 0.20280 0.87450 -0.01500
H 	H 	0.56400 0.12960 0.82210 0.25800
H 	H 	0.84990 0.23210 0.99700 -0.00100
H 	H 	0.94190 0.12490 0.03330 0.20300
H 	H 	0.79440 0.21850 0.14190 0.29500
H 	H 	0.67280 0.31880 0.10500 -0.00500
H 	H 	0.43900 0.50400 0.07750 0.33400
H 	H 	0.21000 0.38600 0.00280 0.25700
H 	H 	0.10520 0.95270 0.09180 0.23400
H 	H 	0.95500 0.82510 0.06870 -0.03100
H 	H 	0.46580 0.90530 0.07210 -0.01100
H 	H 	0.61710 0.03450 0.09270 0.20400
H 	H 	0.77400 0.61030 0.90110 -0.07800
H 	H 	0.60200 0.65760 0.84820 0.31900
H 	H 	0.89590 0.55520 0.76210 0.33000
H 	H 	0.07390 0.51190 0.81490 -0.03700
H 	H 	0.93770 0.73180 0.76380 0.24500
H 	H 	0.12190 0.80100 0.71090 0.09300
H 	H 	0.73970 0.70280 0.62550 -0.01100
H 	H 	0.56400 0.62960 0.67790 0.25600
H 	H 	0.15010 0.26790 0.49700 -0.06800
H 	H 	0.05810 0.37510 0.53330 0.24300
H 	H 	0.20560 0.28150 0.64190 0.32000
H 	H 	0.32720 0.18120 0.60500 -0.03200
H 	H 	0.56100 0.99600 0.57750 0.34500
H 	H 	0.79000 0.11400 0.50280 0.29200
H 	H 	0.89480 0.54730 0.59180 0.36400
H 	H 	0.04500 0.67490 0.56870 -0.13100
H 	H 	0.53420 0.59470 0.57210 -0.10800
H 	H 	0.38290 0.46550 0.59270 0.33800
H 	H 	0.22600 0.88970 0.40110 -0.08700
H 	H 	0.39800 0.84240 0.34820 0.32500
H 	H 	0.10410 0.94480 0.26210 0.32500
H 	H 	0.92610 0.98810 0.31490 -0.00500
H 	H 	0.06230 0.76820 0.26380 0.29200
H 	H 	0.87810 0.69900 0.21090 0.02700
H 	H 	0.26030 0.79720 0.12550 -0.06000
H 	H 	0.43600 0.87040 0.17790 0.29900
C 	C 	0.30630 0.64320 0.97616 0.52800
C 	C 	0.24900 0.71360 0.95270 -0.39700
C 	C 	0.16570 0.77160 0.97404 0.45800
C 	C 	0.10640 0.83460 0.95210 -0.53900
C 	C 	0.11750 0.83870 0.90830 0.59700
C 	C 	0.19810 0.78000 0.88726 -0.51100
C 	C 	0.26800 0.71870 0.90929 0.42400
C 	C 	0.03420 0.90800 0.88679 -0.75600
C 	C 	0.07100 0.91330 0.83883 1.05500
C 	C 	0.81920 0.88820 0.89312 1.08000
C 	C 	0.12200 0.99330 0.90482 0.83600
C 	C 	0.02330 0.05650 0.91225 -0.82200
C 	C 	0.11350 0.13340 0.92571 0.65100
C 	C 	0.30680 0.14860 0.93082 -0.55700
C 	C 	0.40560 0.08530 0.92400 0.67700
C 	C 	0.31510 0.00790 0.91139 -0.83000
C 	C 	0.40150 0.23540 0.94126 0.57800
C 	C 	0.96030 0.48250 0.10266 0.47600
C 	C 	0.06160 0.44570 0.13645 -0.37600
C 	C 	0.20180 0.40080 0.12677 0.39400
C 	C 	0.30520 0.37260 0.15847 -0.48900
C 	C 	0.27090 0.38940 0.20034 0.56800
C 	C 	0.12830 0.43340 0.20998 -0.48100
C 	C 	0.02300 0.46030 0.17833 0.40700
C 	C 	0.39120 0.36590 0.23679 -0.63900
C 	C 	0.51110 0.30080 0.22390 1.03800
C 	C 	0.52440 0.44620 0.25010 1.04900
C 	C 	0.26910 0.32690 0.27358 0.52400
C 	C 	0.10130 0.27460 0.26404 -0.39200
C 	C 	0.99170 0.23200 0.29565 0.33000
C 	C 	0.05350 0.23920 0.33702 -0.29600
C 	C 	0.22000 0.29150 0.34677 0.32900
C 	C 	0.32580 0.33520 0.31530 -0.41800
C 	C 	0.94350 0.18940 0.37060 0.45300
C 	C 	0.69370 0.85680 0.47616 0.47300
C 	C 	0.75100 0.78640 0.45270 -0.32300
C 	C 	0.83430 0.72840 0.47404 0.33900
C 	C 	0.89360 0.66540 0.45210 -0.44300
C 	C 	0.88250 0.66130 0.40830 0.52700
C 	C 	0.80190 0.72000 0.38726 -0.43900
C 	C 	0.73200 0.78130 0.40929 0.35800
C 	C 	0.96580 0.59200 0.38679 -0.65200
C 	C 	0.92900 0.58670 0.33883 1.04900
C 	C 	0.18080 0.61180 0.39312 1.03700
C 	C 	0.87800 0.50670 0.40482 0.60300
C 	C 	0.97670 0.44350 0.41225 -0.54400
C 	C 	0.88650 0.36660 0.42571 0.43800
C 	C 	0.69320 0.35140 0.43082 -0.39600
C 	C 	0.59440 0.41470 0.42400 0.45800
C 	C 	0.68490 0.49210 0.41139 -0.55000
C 	C 	0.59850 0.26460 0.44126 0.51600
C 	C 	0.03970 0.01750 0.60266 0.39400
C 	C 	0.93840 0.05430 0.63645 -0.34300
C 	C 	0.79820 0.09920 0.62677 0.36800
C 	C 	0.69480 0.12740 0.65847 -0.47200
C 	C 	0.72910 0.11060 0.70034 0.55700
C 	C 	0.87170 0.06660 0.70998 -0.48400
C 	C 	0.97700 0.03970 0.67833 0.42600
C 	C 	0.60880 0.13410 0.73679 -0.61500
C 	C 	0.48890 0.19920 0.72390 1.03100
C 	C 	0.47560 0.05380 0.75010 1.04300
C 	C 	0.73090 0.17310 0.77358 0.45000
C 	C 	0.89870 0.22540 0.76404 -0.26700
C 	C 	0.00830 0.26800 0.79565 0.17500
C 	C 	0.94650 0.26080 0.83702 -0.16400
C 	C 	0.78000 0.20850 0.84677 0.22400
C 	C 	0.67420 0.16480 0.81530 -0.32800
C 	C 	0.05650 0.31060 0.87060 0.37000
C 	C 	0.69370 0.35680 0.02384 0.41800
C 	C 	0.75100 0.28640 0.04730 -0.25500
C 	C 	0.83430 0.22840 0.02596 0.21600
C 	C 	0.89360 0.16540 0.04790 -0.35100
C 	C 	0.88250 0.16130 0.09170 0.45700
C 	C 	0.80190 0.22000 0.11274 -0.37200
C 	C 	0.73200 0.28130 0.09071 0.29100
C 	C 	0.96580 0.09200 0.11321 -0.57200
C 	C 	0.92900 0.08670 0.16117 1.02700
C 	C 	0.18080 0.11180 0.10688 1.01800
C 	C 	0.87800 0.00670 0.09518 0.38300
C 	C 	0.97670 0.94350 0.08775 -0.32100
C 	C 	0.88650 0.86660 0.07429 0.25800
C 	C 	0.69320 0.85140 0.06918 -0.25300
C 	C 	0.59440 0.91470 0.07600 0.25100
C 	C 	0.68490 0.99210 0.08861 -0.27200
C 	C 	0.59850 0.76460 0.05874 0.46200
C 	C 	0.03970 0.51750 0.89734 0.42600
C 	C 	0.93840 0.55430 0.86355 -0.35300
C 	C 	0.79820 0.59920 0.87323 0.38100
C 	C 	0.69480 0.62740 0.84153 -0.47900
C 	C 	0.72910 0.61060 0.79966 0.56400
C 	C 	0.87170 0.56660 0.79002 -0.49300
C 	C 	0.97700 0.53970 0.82167 0.44500
C 	C 	0.60880 0.63410 0.76321 -0.61300
C 	C 	0.48890 0.69920 0.77610 1.03100
C 	C 	0.47560 0.55380 0.74990 1.04200
C 	C 	0.73090 0.67310 0.72642 0.44200
C 	C 	0.89870 0.72540 0.73596 -0.24900
C 	C 	0.00830 0.76800 0.70435 0.15400
C 	C 	0.94650 0.76080 0.66298 -0.14300
C 	C 	0.78000 0.70850 0.65323 0.21200
C 	C 	0.67420 0.66480 0.68470 -0.31500
C 	C 	0.05650 0.81060 0.62940 0.35900
C 	C 	0.30630 0.14320 0.52384 0.47600
C 	C 	0.24900 0.21360 0.54730 -0.33400
C 	C 	0.16570 0.27160 0.52596 0.34500
C 	C 	0.10640 0.33460 0.54790 -0.45600
C 	C 	0.11750 0.33870 0.59170 0.53600
C 	C 	0.19810 0.28000 0.61274 -0.45100
C 	C 	0.26800 0.21870 0.59071 0.36400
C 	C 	0.03420 0.40800 0.61321 -0.68900
C 	C 	0.07100 0.41330 0.66117 1.04000
C 	C 	0.81920 0.38820 0.60688 1.06100
C 	C 	0.12200 0.49330 0.59518 0.66300
C 	C 	0.02330 0.55650 0.58775 -0.65800
C 	C 	0.11350 0.63340 0.57429 0.51500
C 	C 	0.30680 0.64860 0.56918 -0.44700
C 	C 	0.40560 0.58530 0.57600 0.51200
C 	C 	0.31510 0.50790 0.58861 -0.60600
C 	C 	0.40150 0.73540 0.55874 0.53500
C 	C 	0.96030 0.98250 0.39734 0.51400
C 	C 	0.06160 0.94570 0.36355 -0.38800
C 	C 	0.20180 0.90080 0.37323 0.40700
C 	C 	0.30520 0.87260 0.34153 -0.49500
C 	C 	0.27090 0.88940 0.29966 0.57400
C 	C 	0.12830 0.93340 0.29002 -0.48500
C 	C 	0.02300 0.96030 0.32167 0.41400
C 	C 	0.39120 0.86590 0.26321 -0.64200
C 	C 	0.51110 0.80080 0.27610 1.03800
C 	C 	0.52440 0.94620 0.24990 1.04900
C 	C 	0.26910 0.82690 0.22642 0.53300
C 	C 	0.10130 0.77460 0.23596 -0.40300
C 	C 	0.99170 0.73200 0.20435 0.34700
C 	C 	0.05350 0.73920 0.16298 -0.30700
C 	C 	0.22000 0.79150 0.15323 0.34200
C 	C 	0.32580 0.83520 0.18470 -0.42700
C 	C 	0.94350 0.68940 0.12940 0.46100
O 	O 	0.43960 0.61139 0.96465 -0.44000
O 	O 	0.20050 0.61656 0.00760 -0.57900
O 	O 	0.30240 0.28464 0.95466 -0.46800
O 	O 	0.57630 0.25272 0.93457 -0.44900
O 	O 	0.05240 0.50276 0.06866 -0.54300
O 	O 	0.79960 0.49643 0.10888 -0.40300
O 	O 	0.77050 0.16780 0.36616 -0.36100
O 	O 	0.02630 0.16913 0.40313 -0.52000
O 	O 	0.53280 0.45348 0.93587 -0.79800
O 	O 	0.78080 0.56560 0.00767 -0.78300
O 	O 	0.56040 0.88861 0.46465 -0.42300
O 	O 	0.79950 0.88344 0.50760 -0.53700
O 	O 	0.69760 0.21536 0.45466 -0.45600
O 	O 	0.42370 0.24728 0.43457 -0.43500
O 	O 	0.94760 0.99724 0.56866 -0.48200
O 	O 	0.20040 0.00357 0.60888 -0.39700
O 	O 	0.22950 0.33220 0.86616 -0.33600
O 	O 	0.97370 0.33087 0.90313 -0.47700
O 	O 	0.46720 0.04652 0.43587 -0.80300
O 	O 	0.21920 0.93440 0.50767 -0.74000
O 	O 	0.56040 0.38861 0.03535 -0.42100
O 	O 	0.79950 0.38344 0.99240 -0.51000
O 	O 	0.69760 0.71536 0.04534 -0.44800
O 	O 	0.42370 0.74728 0.06543 -0.42200
O 	O 	0.94760 0.49724 0.93134 -0.51100
O 	O 	0.20040 0.50357 0.89112 -0.39300
O 	O 	0.22950 0.83220 0.63384 -0.32800
O 	O 	0.97370 0.83087 0.59687 -0.47000
O 	O 	0.46720 0.54652 0.06413 -0.80500
O 	O 	0.21920 0.43440 0.99233 -0.71500
O 	O 	0.43960 0.11139 0.53535 -0.43900
O 	O 	0.20050 0.11656 0.49240 -0.55200
O 	O 	0.30240 0.78464 0.54534 -0.46500
O 	O 	0.57630 0.75272 0.56543 -0.44000
O 	O 	0.05240 0.00276 0.43134 -0.57200
O 	O 	0.79960 0.99643 0.39112 -0.39900
O 	O 	0.77050 0.66780 0.13384 -0.35700
O 	O 	0.02630 0.66913 0.09687 -0.52200
O 	O 	0.53280 0.95348 0.56413 -0.79800
O 	O 	0.78080 0.06560 0.49233 -0.76000
F 	F 	0.98220 0.84614 0.81848 -0.43100
F 	F 	0.25370 0.91898 0.83067 -0.45200
F 	F 	0.01680 0.97878 0.82181 -0.44200
F 	F 	0.75360 0.80833 0.88484 -0.47700
F 	F 	0.72510 0.93238 0.86844 -0.45600
F 	F 	0.77090 0.90163 0.93257 -0.54300
F 	F 	0.64950 0.33134 0.19708 -0.49600
F 	F 	0.40830 0.23605 0.20534 -0.44700
F 	F 	0.59360 0.27209 0.25698 -0.47100
F 	F 	0.66660 0.43203 0.27355 -0.45800
F 	F 	0.43170 0.49570 0.27166 -0.44500
F 	F 	0.59720 0.48886 0.21648 -0.47500
F 	F 	0.01780 0.65386 0.31848 -0.44900
F 	F 	0.74630 0.58102 0.33067 -0.45400
F 	F 	0.98320 0.52122 0.32181 -0.44100
F 	F 	0.24640 0.69167 0.38484 -0.47600
F 	F 	0.27490 0.56762 0.36844 -0.45500
F 	F 	0.22910 0.59837 0.43257 -0.54600
F 	F 	0.35050 0.16866 0.69708 -0.49800
F 	F 	0.59170 0.26395 0.70534 -0.44300
F 	F 	0.40640 0.22791 0.75698 -0.47100
F 	F 	0.33340 0.06797 0.77355 -0.46300
F 	F 	0.56830 0.00430 0.77166 -0.45200
F 	F 	0.40280 0.01114 0.71648 -0.48300
F 	F 	0.01780 0.15386 0.18152 -0.44500
F 	F 	0.74630 0.08102 0.16933 -0.45500
F 	F 	0.98320 0.02122 0.17819 -0.44900
F 	F 	0.24640 0.19167 0.11516 -0.47300
F 	F 	0.27490 0.06762 0.13156 -0.45500
F 	F 	0.22910 0.09837 0.06743 -0.54600
F 	F 	0.35050 0.66866 0.80292 -0.49800
F 	F 	0.59170 0.76395 0.79466 -0.44100
F 	F 	0.40640 0.72791 0.74302 -0.46900
F 	F 	0.33340 0.56797 0.72645 -0.45800
F 	F 	0.56830 0.50430 0.72834 -0.44200
F 	F 	0.40280 0.51114 0.78352 -0.47700
F 	F 	0.98220 0.34614 0.68152 -0.43200
F 	F 	0.25370 0.41898 0.66933 -0.45400
F 	F 	0.01680 0.47878 0.67819 -0.44900
F 	F 	0.75360 0.30833 0.61516 -0.47500
F 	F 	0.72510 0.43238 0.63156 -0.45700
F 	F 	0.77090 0.40163 0.56743 -0.54500
F 	F 	0.64950 0.83134 0.30292 -0.49500
F 	F 	0.40830 0.73605 0.29466 -0.44600
F 	F 	0.59360 0.77209 0.24302 -0.46900
F 	F 	0.66660 0.93203 0.22645 -0.45200
F 	F 	0.43170 0.99570 0.22834 -0.43600
F 	F 	0.59720 0.98886 0.28352 -0.46800
