data_crystal

_cell_length_a 7.31600
_cell_length_b 16.53300
_cell_length_c 32.02300
_cell_angle_alpha 90.00000
_cell_angle_beta  90.00000
_cell_angle_gamma 99.91000

_symmetry_space_group_name_	'P 1'
_symmetry_space_group_name_H-M	'P 1'

loop_
_symmetry_equiv_pos_as_xyz
  x,y,z

loop_
_atom_site_label
_atom_site_type_symbol
_atom_site_fract_x
_atom_site_fract_y
_atom_site_fract_z
_atom_site_charge
Mn	Mn	0.74763 0.60146 0.07068 1.28900
Mn	Mn	0.27354 0.62514 0.07365 1.27700
Mn	Mn	0.25237 0.89854 0.57068 1.28900
Mn	Mn	0.72646 0.87486 0.57365 1.28100
Mn	Mn	0.25237 0.39854 0.92932 1.28600
Mn	Mn	0.72646 0.37486 0.92635 1.27800
Mn	Mn	0.74763 0.10146 0.42932 1.28500
Mn	Mn	0.27354 0.12514 0.42635 1.27600
Mn	Mn	-0.00000 0.50000 -0.00000 1.27600
Mn	Mn	0.00000 0.00000 0.50000 1.27200
Mn	Mn	0.50000 0.50000 -0.00000 1.27000
Mn	Mn	0.50000 0.00000 0.50000 1.26600
H 	H 	0.15010 0.76790 0.00300 -0.08100
H 	H 	0.05810 0.87510 0.96670 0.21500
H 	H 	0.20560 0.78150 0.85810 0.27200
H 	H 	0.32720 0.68120 0.89500 0.00500
H 	H 	0.43900 0.50400 0.07750 0.33300
H 	H 	0.79000 0.61400 0.99720 0.32200
H 	H 	0.89480 0.04730 0.90820 0.28400
H 	H 	0.04500 0.17490 0.93130 -0.07000
H 	H 	0.53420 0.09470 0.92790 -0.05300
H 	H 	0.38290 0.96550 0.90730 0.32500
H 	H 	0.22600 0.38970 0.09890 -0.02500
H 	H 	0.39800 0.34240 0.15180 0.23500
H 	H 	0.10410 0.44480 0.23790 0.23800
H 	H 	0.92610 0.48810 0.18510 0.06400
H 	H 	0.06230 0.26820 0.23620 0.23100
H 	H 	0.87810 0.19900 0.28910 0.06800
H 	H 	0.26030 0.29720 0.37450 -0.01300
H 	H 	0.43600 0.37040 0.32210 0.22600
H 	H 	0.84990 0.73210 0.50300 -0.02100
H 	H 	0.94190 0.62490 0.46670 0.18700
H 	H 	0.79440 0.71850 0.35810 0.25900
H 	H 	0.67280 0.81880 0.39500 0.02400
H 	H 	0.56100 0.99600 0.57750 0.34800
H 	H 	0.21000 0.88600 0.49720 0.27900
H 	H 	0.10520 0.45270 0.40820 0.19000
H 	H 	0.95500 0.32510 0.43130 -0.00300
H 	H 	0.46580 0.40530 0.42790 0.00700
H 	H 	0.61710 0.53450 0.40730 0.21500
H 	H 	0.77400 0.11030 0.59890 -0.01800
H 	H 	0.60200 0.15760 0.65180 0.23100
H 	H 	0.89590 0.05520 0.73790 0.24500
H 	H 	0.07390 0.01190 0.68510 0.02500
H 	H 	0.93770 0.23180 0.73620 0.19600
H 	H 	0.12190 0.30100 0.78910 0.12500
H 	H 	0.73970 0.20280 0.87450 0.02400
H 	H 	0.56400 0.12960 0.82210 0.19600
H 	H 	0.84990 0.23210 0.99700 0.03300
H 	H 	0.94190 0.12490 0.03330 0.15100
H 	H 	0.79440 0.21850 0.14190 0.24300
H 	H 	0.67280 0.31880 0.10500 0.03800
H 	H 	0.56100 0.49600 0.92250 0.33200
H 	H 	0.21000 0.38600 0.00280 0.24700
H 	H 	0.10520 0.95270 0.09180 0.14300
H 	H 	0.95500 0.82510 0.06870 0.03600
H 	H 	0.46580 0.90530 0.07210 0.06200
H 	H 	0.61710 0.03450 0.09270 0.11000
H 	H 	0.77400 0.61030 0.90110 -0.01400
H 	H 	0.60200 0.65760 0.84820 0.23400
H 	H 	0.89590 0.55520 0.76210 0.25300
H 	H 	0.07390 0.51190 0.81490 0.02500
H 	H 	0.93770 0.73180 0.76380 0.19400
H 	H 	0.12190 0.80100 0.71090 0.13300
H 	H 	0.73970 0.70280 0.62550 0.02600
H 	H 	0.56400 0.62960 0.67790 0.19800
H 	H 	0.15010 0.26790 0.49700 -0.02800
H 	H 	0.05810 0.37510 0.53330 0.18100
H 	H 	0.20560 0.28150 0.64190 0.25700
H 	H 	0.32720 0.18120 0.60500 0.01900
H 	H 	0.43900 0.00400 0.42250 0.31700
H 	H 	0.79000 0.11400 0.50280 0.28800
H 	H 	0.89480 0.54730 0.59180 0.24600
H 	H 	0.04500 0.67490 0.56870 -0.03600
H 	H 	0.53420 0.59470 0.57210 -0.00300
H 	H 	0.38290 0.46550 0.59270 0.22700
H 	H 	0.22600 0.88970 0.40110 -0.02200
H 	H 	0.39800 0.84240 0.34820 0.23800
H 	H 	0.10410 0.94480 0.26210 0.24400
H 	H 	0.92610 0.98810 0.31490 0.06900
H 	H 	0.06230 0.76820 0.26380 0.23300
H 	H 	0.87810 0.69900 0.21090 0.07100
H 	H 	0.26030 0.79720 0.12550 -0.01500
H 	H 	0.43600 0.87040 0.17790 0.23100
C 	C 	0.30630 0.64320 0.97616 0.45600
C 	C 	0.24900 0.71360 0.95270 -0.27200
C 	C 	0.16570 0.77160 0.97404 0.30400
C 	C 	0.10640 0.83460 0.95210 -0.36500
C 	C 	0.11750 0.83870 0.90830 0.42200
C 	C 	0.19810 0.78000 0.88726 -0.33300
C 	C 	0.26800 0.71870 0.90929 0.26300
C 	C 	0.03420 0.90800 0.88679 -0.55400
C 	C 	0.07100 0.91330 0.83883 0.94300
C 	C 	0.81920 0.88820 0.89312 0.97900
C 	C 	0.12200 0.99330 0.90482 0.56800
C 	C 	0.02330 0.05650 0.91225 -0.50000
C 	C 	0.11350 0.13340 0.92571 0.33800
C 	C 	0.30680 0.14860 0.93082 -0.30000
C 	C 	0.40560 0.08530 0.92400 0.36300
C 	C 	0.31510 0.00790 0.91139 -0.52700
C 	C 	0.40150 0.23540 0.94126 0.45100
C 	C 	0.96030 0.48250 0.10266 0.39800
C 	C 	0.06160 0.44570 0.13645 -0.22600
C 	C 	0.20180 0.40080 0.12677 0.19500
C 	C 	0.30520 0.37260 0.15847 -0.27500
C 	C 	0.27090 0.38940 0.20034 0.37300
C 	C 	0.12830 0.43340 0.20998 -0.27000
C 	C 	0.02300 0.46030 0.17833 0.20000
C 	C 	0.39120 0.36590 0.23679 -0.47200
C 	C 	0.51110 0.30080 0.22390 0.94000
C 	C 	0.52440 0.44620 0.25010 0.95000
C 	C 	0.26910 0.32690 0.27358 0.37000
C 	C 	0.10130 0.27460 0.26404 -0.24900
C 	C 	0.99170 0.23200 0.29565 0.20900
C 	C 	0.05350 0.23920 0.33702 -0.20000
C 	C 	0.22000 0.29150 0.34677 0.18400
C 	C 	0.32580 0.33520 0.31530 -0.25600
C 	C 	0.94350 0.18940 0.37060 0.39300
C 	C 	0.69370 0.85680 0.47616 0.40500
C 	C 	0.75100 0.78640 0.45270 -0.21200
C 	C 	0.83430 0.72840 0.47404 0.20000
C 	C 	0.89360 0.66540 0.45210 -0.28800
C 	C 	0.88250 0.66130 0.40830 0.37100
C 	C 	0.80190 0.72000 0.38726 -0.28000
C 	C 	0.73200 0.78130 0.40929 0.21700
C 	C 	0.96580 0.59200 0.38679 -0.46300
C 	C 	0.92900 0.58670 0.33883 0.94700
C 	C 	0.18080 0.61180 0.39312 0.93600
C 	C 	0.87800 0.50670 0.40482 0.35300
C 	C 	0.97670 0.44350 0.41225 -0.24900
C 	C 	0.88650 0.36660 0.42571 0.17600
C 	C 	0.69320 0.35140 0.43082 -0.18400
C 	C 	0.59440 0.41470 0.42400 0.19700
C 	C 	0.68490 0.49210 0.41139 -0.27100
C 	C 	0.59850 0.26460 0.44126 0.41000
C 	C 	0.03970 0.01750 0.60266 0.28900
C 	C 	0.93840 0.05430 0.63645 -0.19000
C 	C 	0.79820 0.09920 0.62677 0.17100
C 	C 	0.69480 0.12740 0.65847 -0.26500
C 	C 	0.72910 0.11060 0.70034 0.36900
C 	C 	0.87170 0.06660 0.70998 -0.28500
C 	C 	0.97700 0.03970 0.67833 0.23900
C 	C 	0.60880 0.13410 0.73679 -0.45300
C 	C 	0.48890 0.19920 0.72390 0.93600
C 	C 	0.47560 0.05380 0.75010 0.94600
C 	C 	0.73090 0.17310 0.77358 0.30400
C 	C 	0.89870 0.22540 0.76404 -0.12100
C 	C 	0.00830 0.26800 0.79565 0.03900
C 	C 	0.94650 0.26080 0.83702 -0.05200
C 	C 	0.78000 0.20850 0.84677 0.08700
C 	C 	0.67420 0.16480 0.81530 -0.17600
C 	C 	0.05650 0.31060 0.87060 0.29400
C 	C 	0.69370 0.35680 0.02384 0.35500
C 	C 	0.75100 0.28640 0.04730 -0.16100
C 	C 	0.83430 0.22840 0.02596 0.09400
C 	C 	0.89360 0.16540 0.04790 -0.21900
C 	C 	0.88250 0.16130 0.09170 0.32000
C 	C 	0.80190 0.22000 0.11274 -0.23500
C 	C 	0.73200 0.28130 0.09071 0.17100
C 	C 	0.96580 0.09200 0.11321 -0.40400
C 	C 	0.92900 0.08670 0.16117 0.93100
C 	C 	0.18080 0.11180 0.10688 0.92200
C 	C 	0.87800 0.00670 0.09518 0.16600
C 	C 	0.97670 0.94350 0.08775 -0.08000
C 	C 	0.88650 0.86660 0.07429 0.05900
C 	C 	0.69320 0.85140 0.06918 -0.09200
C 	C 	0.59440 0.91470 0.07600 0.05100
C 	C 	0.68490 0.99210 0.08861 -0.03100
C 	C 	0.59850 0.76460 0.05874 0.37700
C 	C 	0.03970 0.51750 0.89734 0.33100
C 	C 	0.93840 0.55430 0.86355 -0.19800
C 	C 	0.79820 0.59920 0.87323 0.18400
C 	C 	0.69480 0.62740 0.84153 -0.26900
C 	C 	0.72910 0.61060 0.79966 0.37500
C 	C 	0.87170 0.56660 0.79002 -0.29000
C 	C 	0.97700 0.53970 0.82167 0.25500
C 	C 	0.60880 0.63410 0.76321 -0.45200
C 	C 	0.48890 0.69920 0.77610 0.93500
C 	C 	0.47560 0.55380 0.74990 0.94500
C 	C 	0.73090 0.67310 0.72642 0.30200
C 	C 	0.89870 0.72540 0.73596 -0.11100
C 	C 	0.00830 0.76800 0.70435 0.03100
C 	C 	0.94650 0.76080 0.66298 -0.04100
C 	C 	0.78000 0.70850 0.65323 0.08500
C 	C 	0.67420 0.66480 0.68470 -0.17100
C 	C 	0.05650 0.81060 0.62940 0.29000
C 	C 	0.30630 0.14320 0.52384 0.40700
C 	C 	0.24900 0.21360 0.54730 -0.22200
C 	C 	0.16570 0.27160 0.52596 0.20200
C 	C 	0.10640 0.33460 0.54790 -0.29900
C 	C 	0.11750 0.33870 0.59170 0.37500
C 	C 	0.19810 0.28000 0.61274 -0.29000
C 	C 	0.26800 0.21870 0.59071 0.21900
C 	C 	0.03420 0.40800 0.61321 -0.49900
C 	C 	0.07100 0.41330 0.66117 0.93100
C 	C 	0.81920 0.38820 0.60688 0.96400
C 	C 	0.12200 0.49330 0.59518 0.39900
C 	C 	0.02330 0.55650 0.58775 -0.35400
C 	C 	0.11350 0.63340 0.57429 0.23500
C 	C 	0.30680 0.64860 0.56918 -0.21800
C 	C 	0.40560 0.58530 0.57600 0.22900
C 	C 	0.31510 0.50790 0.58861 -0.30700
C 	C 	0.40150 0.73540 0.55874 0.42100
C 	C 	0.96030 0.98250 0.39734 0.44400
C 	C 	0.06160 0.94570 0.36355 -0.23500
C 	C 	0.20180 0.90080 0.37323 0.20700
C 	C 	0.30520 0.87260 0.34153 -0.27900
C 	C 	0.27090 0.88940 0.29966 0.37800
C 	C 	0.12830 0.93340 0.29002 -0.27200
C 	C 	0.02300 0.96030 0.32167 0.20900
C 	C 	0.39120 0.86590 0.26321 -0.47300
C 	C 	0.51110 0.80080 0.27610 0.94000
C 	C 	0.52440 0.94620 0.24990 0.94900
C 	C 	0.26910 0.82690 0.22642 0.37500
C 	C 	0.10130 0.77460 0.23596 -0.25200
C 	C 	0.99170 0.73200 0.20435 0.21900
C 	C 	0.05350 0.73920 0.16298 -0.20300
C 	C 	0.22000 0.79150 0.15323 0.19100
C 	C 	0.32580 0.83520 0.18470 -0.25800
C 	C 	0.94350 0.68940 0.12940 0.39900
O 	O 	0.43960 0.61139 0.96465 -0.45000
O 	O 	0.20050 0.61656 0.00760 -0.62700
O 	O 	0.30240 0.28464 0.95466 -0.46900
O 	O 	0.57630 0.25272 0.93457 -0.44700
O 	O 	0.05240 0.50276 0.06866 -0.58600
O 	O 	0.79960 0.49643 0.10888 -0.40800
O 	O 	0.77050 0.16780 0.36616 -0.37000
O 	O 	0.02630 0.16913 0.40313 -0.55900
O 	O 	0.46720 0.54652 0.06413 -0.89200
O 	O 	0.78080 0.56560 0.00767 -0.87400
O 	O 	0.56040 0.88861 0.46465 -0.43200
O 	O 	0.79950 0.88344 0.50760 -0.58100
O 	O 	0.69760 0.21536 0.45466 -0.46200
O 	O 	0.42370 0.24728 0.43457 -0.43900
O 	O 	0.94760 0.99724 0.56866 -0.50100
O 	O 	0.20040 0.00357 0.60888 -0.40500
O 	O 	0.22950 0.33220 0.86616 -0.34200
O 	O 	0.97370 0.33087 0.90313 -0.50400
O 	O 	0.53280 0.95348 0.56413 -0.88400
O 	O 	0.21920 0.93440 0.50767 -0.82000
O 	O 	0.56040 0.38861 0.03535 -0.43700
O 	O 	0.79950 0.38344 0.99240 -0.55500
O 	O 	0.69760 0.71536 0.04534 -0.46100
O 	O 	0.42370 0.74728 0.06543 -0.43300
O 	O 	0.94760 0.49724 0.93134 -0.54100
O 	O 	0.20040 0.50357 0.89112 -0.39700
O 	O 	0.22950 0.83220 0.63384 -0.33200
O 	O 	0.97370 0.83087 0.59687 -0.49800
O 	O 	0.53280 0.45348 0.93587 -0.88400
O 	O 	0.21920 0.43440 0.99233 -0.79700
O 	O 	0.43960 0.11139 0.53535 -0.45300
O 	O 	0.20050 0.11656 0.49240 -0.60100
O 	O 	0.30240 0.78464 0.54534 -0.46900
O 	O 	0.57630 0.75272 0.56543 -0.44100
O 	O 	0.05240 0.00276 0.43134 -0.62400
O 	O 	0.79960 0.99643 0.39112 -0.40000
O 	O 	0.77050 0.66780 0.13384 -0.36200
O 	O 	0.02630 0.66913 0.09687 -0.55800
O 	O 	0.46720 0.04652 0.43587 -0.89200
O 	O 	0.78080 0.06560 0.49233 -0.84900
F 	F 	0.98220 0.84614 0.81848 -0.40600
F 	F 	0.25370 0.91898 0.83067 -0.41400
F 	F 	0.01680 0.97878 0.82181 -0.41700
F 	F 	0.75360 0.80833 0.88484 -0.45300
F 	F 	0.72510 0.93238 0.86844 -0.42000
F 	F 	0.77090 0.90163 0.93257 -0.50800
F 	F 	0.64950 0.33134 0.19708 -0.46500
F 	F 	0.40830 0.23605 0.20534 -0.42600
F 	F 	0.59360 0.27209 0.25698 -0.44900
F 	F 	0.66660 0.43203 0.27355 -0.42700
F 	F 	0.43170 0.49570 0.27166 -0.42300
F 	F 	0.59720 0.48886 0.21648 -0.45800
F 	F 	0.01780 0.65386 0.31848 -0.43200
F 	F 	0.74630 0.58102 0.33067 -0.42100
F 	F 	0.98320 0.52122 0.32181 -0.41800
F 	F 	0.24640 0.69167 0.38484 -0.45400
F 	F 	0.27490 0.56762 0.36844 -0.42600
F 	F 	0.22910 0.59837 0.43257 -0.51800
F 	F 	0.35050 0.16866 0.69708 -0.46900
F 	F 	0.59170 0.26395 0.70534 -0.42100
F 	F 	0.40640 0.22791 0.75698 -0.44900
F 	F 	0.33340 0.06797 0.77355 -0.43600
F 	F 	0.56830 0.00430 0.77166 -0.43300
F 	F 	0.40280 0.01114 0.71648 -0.47000
F 	F 	0.01780 0.15386 0.18152 -0.43100
F 	F 	0.74630 0.08102 0.16933 -0.42700
F 	F 	0.98320 0.02122 0.17819 -0.43200
F 	F 	0.24640 0.19167 0.11516 -0.45300
F 	F 	0.27490 0.06762 0.13156 -0.43100
F 	F 	0.22910 0.09837 0.06743 -0.52300
F 	F 	0.35050 0.66866 0.80292 -0.46900
F 	F 	0.59170 0.76395 0.79466 -0.41800
F 	F 	0.40640 0.72791 0.74302 -0.44600
F 	F 	0.33340 0.56797 0.72645 -0.42900
F 	F 	0.56830 0.50430 0.72834 -0.42000
F 	F 	0.40280 0.51114 0.78352 -0.46000
F 	F 	0.98220 0.34614 0.68152 -0.40800
F 	F 	0.25370 0.41898 0.66933 -0.42000
F 	F 	0.01680 0.47878 0.67819 -0.42900
F 	F 	0.75360 0.30833 0.61516 -0.45200
F 	F 	0.72510 0.43238 0.63156 -0.42600
F 	F 	0.77090 0.40163 0.56743 -0.51500
F 	F 	0.64950 0.83134 0.30292 -0.46400
F 	F 	0.40830 0.73605 0.29466 -0.42300
F 	F 	0.59360 0.77209 0.24302 -0.44500
F 	F 	0.66660 0.93203 0.22645 -0.41800
F 	F 	0.43170 0.99570 0.22834 -0.40900
F 	F 	0.59720 0.98886 0.28352 -0.44800
