data_crystal

_cell_length_a 20.61550
_cell_length_b 20.61550
_cell_length_c 20.61550
_cell_angle_alpha 90.00000
_cell_angle_beta  90.00000
_cell_angle_gamma 90.00000

_symmetry_space_group_name_	'P 1'
_symmetry_space_group_name_H-M	'P 1'

loop_
_symmetry_equiv_pos_as_xyz
  x,y,z

loop_
_atom_site_label
_atom_site_type_symbol
_atom_site_fract_x
_atom_site_fract_y
_atom_site_fract_z
_atom_site_charge
Zn	Zn	-0.00000 0.57224 -0.00000 1.12600
Zn	Zn	-0.00000 0.42776 -0.00000 1.12300
Zn	Zn	-0.00000 0.00000 0.57224 1.12600
Zn	Zn	0.00000 0.00000 0.42776 1.12300
Zn	Zn	0.57224 0.00000 -0.00000 1.12600
Zn	Zn	0.42776 0.00000 -0.00000 1.12300
Zn	Zn	0.76112 0.76112 0.76112 1.19200
Zn	Zn	0.66451 0.66451 0.66451 1.19400
Zn	Zn	0.23888 0.23888 0.76112 1.17700
Zn	Zn	0.33549 0.33549 0.66451 1.19200
Zn	Zn	0.23888 0.76112 0.23888 1.17700
Zn	Zn	0.33549 0.66451 0.33549 1.19200
Zn	Zn	0.76112 0.23888 0.23888 1.17700
Zn	Zn	0.66451 0.33549 0.33549 1.19300
Zn	Zn	0.76112 0.76112 0.23888 1.18500
Zn	Zn	0.66451 0.66451 0.33549 1.19400
Zn	Zn	0.23888 0.23888 0.23888 1.17000
Zn	Zn	0.33549 0.33549 0.33549 1.19200
Zn	Zn	0.76112 0.23888 0.76112 1.18500
Zn	Zn	0.66451 0.33549 0.66451 1.19400
Zn	Zn	0.23888 0.76112 0.76112 1.18500
Zn	Zn	0.33549 0.66451 0.66451 1.19400
H 	H 	0.85190 0.59780 0.85190 0.02600
H 	H 	0.14810 0.40220 0.85190 -0.00500
H 	H 	0.14810 0.59780 0.14810 -0.02700
H 	H 	0.85190 0.40220 0.14810 -0.00500
H 	H 	0.85190 0.85190 0.59780 0.02600
H 	H 	0.85190 0.14810 0.40220 -0.00500
H 	H 	0.14810 0.14810 0.59780 -0.02700
H 	H 	0.14810 0.85190 0.40220 -0.00500
H 	H 	0.59780 0.85190 0.85190 0.02600
H 	H 	0.40220 0.85190 0.14810 -0.00500
H 	H 	0.59780 0.14810 0.14810 -0.02700
H 	H 	0.40220 0.14810 0.85190 -0.00500
H 	H 	0.59780 0.85190 0.14810 0.00000
H 	H 	0.40220 0.14810 0.14810 -0.03200
H 	H 	0.59780 0.14810 0.85190 0.00000
H 	H 	0.40220 0.85190 0.85190 0.02100
H 	H 	0.85190 0.85190 0.40220 0.02100
H 	H 	0.14810 0.85190 0.59780 0.00000
H 	H 	0.14810 0.14810 0.40220 -0.03200
H 	H 	0.85190 0.14810 0.59780 0.00000
H 	H 	0.85190 0.59780 0.14810 0.00000
H 	H 	0.85190 0.40220 0.85190 0.02100
H 	H 	0.14810 0.59780 0.85190 0.00000
H 	H 	0.14810 0.40220 0.14810 -0.03200
H 	H 	0.73420 0.50000 0.73420 -0.00400
H 	H 	0.26580 0.50000 0.73420 -0.01400
H 	H 	0.26580 0.50000 0.26580 -0.02500
H 	H 	0.73420 0.50000 0.26580 -0.01400
H 	H 	0.73420 0.73420 0.50000 -0.00400
H 	H 	0.73420 0.26580 0.50000 -0.01400
H 	H 	0.26580 0.26580 0.50000 -0.02500
H 	H 	0.26580 0.73420 0.50000 -0.01400
H 	H 	0.50000 0.73420 0.73420 -0.00400
H 	H 	0.50000 0.73420 0.26580 -0.01400
H 	H 	0.50000 0.26580 0.26580 -0.02500
H 	H 	0.50000 0.26580 0.73420 -0.01400
C 	C 	0.83620 0.55850 0.83620 0.10700
C 	C 	0.78970 0.55730 0.78970 -0.16300
C 	C 	0.76060 0.61990 0.76060 0.40400
C 	C 	0.16380 0.44150 0.83620 0.12600
C 	C 	0.21030 0.44270 0.78970 -0.19300
C 	C 	0.23940 0.38010 0.76060 0.40900
C 	C 	0.16380 0.55850 0.16380 0.14300
C 	C 	0.21030 0.55730 0.21030 -0.21900
C 	C 	0.23940 0.61990 0.23940 0.41000
C 	C 	0.83620 0.44150 0.16380 0.12600
C 	C 	0.78970 0.44270 0.21030 -0.19300
C 	C 	0.76060 0.38010 0.23940 0.40900
C 	C 	0.83620 0.83620 0.55850 0.10700
C 	C 	0.78970 0.78970 0.55730 -0.16300
C 	C 	0.76060 0.76060 0.61990 0.40400
C 	C 	0.83620 0.16380 0.44150 0.12600
C 	C 	0.78970 0.21030 0.44270 -0.19300
C 	C 	0.76060 0.23940 0.38010 0.40900
C 	C 	0.16380 0.16380 0.55850 0.14300
C 	C 	0.21030 0.21030 0.55730 -0.21900
C 	C 	0.23940 0.23940 0.61990 0.41000
C 	C 	0.16380 0.83620 0.44150 0.12600
C 	C 	0.21030 0.78970 0.44270 -0.19300
C 	C 	0.23940 0.76060 0.38010 0.40900
C 	C 	0.55850 0.83620 0.83620 0.10700
C 	C 	0.55730 0.78970 0.78970 -0.16300
C 	C 	0.61990 0.76060 0.76060 0.40400
C 	C 	0.44150 0.83620 0.16380 0.12600
C 	C 	0.44270 0.78970 0.21030 -0.19300
C 	C 	0.38010 0.76060 0.23940 0.40900
C 	C 	0.55850 0.16380 0.16380 0.14300
C 	C 	0.55730 0.21030 0.21030 -0.21900
C 	C 	0.61990 0.23940 0.23940 0.41000
C 	C 	0.44150 0.16380 0.83620 0.12600
C 	C 	0.44270 0.21030 0.78970 -0.19300
C 	C 	0.38010 0.23940 0.76060 0.40900
C 	C 	0.55850 0.83620 0.16380 0.12400
C 	C 	0.55730 0.78970 0.21030 -0.19000
C 	C 	0.61990 0.76060 0.23940 0.40700
C 	C 	0.44150 0.16380 0.16380 0.14400
C 	C 	0.44270 0.21030 0.21030 -0.22100
C 	C 	0.38010 0.23940 0.23940 0.41200
C 	C 	0.55850 0.16380 0.83620 0.12400
C 	C 	0.55730 0.21030 0.78970 -0.19000
C 	C 	0.61990 0.23940 0.76060 0.40700
C 	C 	0.44150 0.83620 0.83620 0.10800
C 	C 	0.44270 0.78970 0.78970 -0.16500
C 	C 	0.38010 0.76060 0.76060 0.40600
C 	C 	0.83620 0.83620 0.44150 0.10800
C 	C 	0.78970 0.78970 0.44270 -0.16500
C 	C 	0.76060 0.76060 0.38010 0.40600
C 	C 	0.16380 0.83620 0.55850 0.12400
C 	C 	0.21030 0.78970 0.55730 -0.19000
C 	C 	0.23940 0.76060 0.61990 0.40700
C 	C 	0.16380 0.16380 0.44150 0.14400
C 	C 	0.21030 0.21030 0.44270 -0.22100
C 	C 	0.23940 0.23940 0.38010 0.41200
C 	C 	0.83620 0.16380 0.55850 0.12400
C 	C 	0.78970 0.21030 0.55730 -0.19000
C 	C 	0.76060 0.23940 0.61990 0.40700
C 	C 	0.83620 0.55850 0.16380 0.12400
C 	C 	0.78970 0.55730 0.21030 -0.19000
C 	C 	0.76060 0.61990 0.23940 0.40700
C 	C 	0.83620 0.44150 0.83620 0.10800
C 	C 	0.78970 0.44270 0.78970 -0.16500
C 	C 	0.76060 0.38010 0.76060 0.40600
C 	C 	0.16380 0.55850 0.83620 0.12400
C 	C 	0.21030 0.55730 0.78970 -0.19000
C 	C 	0.23940 0.61990 0.76060 0.40700
C 	C 	0.16380 0.44150 0.16380 0.14400
C 	C 	0.21030 0.44270 0.21030 -0.22100
C 	C 	0.23940 0.38010 0.23940 0.41200
C 	C 	0.91060 0.50000 0.91060 0.40300
C 	C 	0.86000 0.50000 0.86000 -0.15500
C 	C 	0.76610 0.50000 0.76610 0.10500
C 	C 	0.08940 0.50000 0.91060 0.41600
C 	C 	0.14000 0.50000 0.86000 -0.19600
C 	C 	0.23390 0.50000 0.76610 0.11900
C 	C 	0.08940 0.50000 0.08940 0.42900
C 	C 	0.14000 0.50000 0.14000 -0.23900
C 	C 	0.23390 0.50000 0.23390 0.13400
C 	C 	0.91060 0.50000 0.08940 0.41600
C 	C 	0.86000 0.50000 0.14000 -0.19600
C 	C 	0.76610 0.50000 0.23390 0.11900
C 	C 	0.91060 0.91060 0.50000 0.40300
C 	C 	0.86000 0.86000 0.50000 -0.15500
C 	C 	0.76610 0.76610 0.50000 0.10500
C 	C 	0.91060 0.08940 0.50000 0.41600
C 	C 	0.86000 0.14000 0.50000 -0.19600
C 	C 	0.76610 0.23390 0.50000 0.11900
C 	C 	0.08940 0.08940 0.50000 0.42900
C 	C 	0.14000 0.14000 0.50000 -0.23900
C 	C 	0.23390 0.23390 0.50000 0.13400
C 	C 	0.08940 0.91060 0.50000 0.41600
C 	C 	0.14000 0.86000 0.50000 -0.19600
C 	C 	0.23390 0.76610 0.50000 0.11900
C 	C 	0.50000 0.91060 0.91060 0.40300
C 	C 	0.50000 0.86000 0.86000 -0.15500
C 	C 	0.50000 0.76610 0.76610 0.10500
C 	C 	0.50000 0.91060 0.08940 0.41600
C 	C 	0.50000 0.86000 0.14000 -0.19600
C 	C 	0.50000 0.76610 0.23390 0.11900
C 	C 	0.50000 0.08940 0.08940 0.42900
C 	C 	0.50000 0.14000 0.14000 -0.23900
C 	C 	0.50000 0.23390 0.23390 0.13400
C 	C 	0.50000 0.08940 0.91060 0.41600
C 	C 	0.50000 0.14000 0.86000 -0.19600
C 	C 	0.50000 0.23390 0.76610 0.11900
O 	O 	0.93110 0.55420 0.93110 -0.40000
O 	O 	0.78430 0.67210 0.78430 -0.50600
O 	O 	0.71680 0.61320 0.71680 -0.55900
O 	O 	0.06890 0.44580 0.93110 -0.47600
O 	O 	0.21570 0.32790 0.78430 -0.53500
O 	O 	0.28320 0.38680 0.71680 -0.56800
O 	O 	0.06890 0.55420 0.06890 -0.54800
O 	O 	0.21570 0.67210 0.21570 -0.54800
O 	O 	0.28320 0.61320 0.28320 -0.57500
O 	O 	0.93110 0.44580 0.06890 -0.47600
O 	O 	0.78430 0.32790 0.21570 -0.53500
O 	O 	0.71680 0.38680 0.28320 -0.56800
O 	O 	0.93110 0.93110 0.55420 -0.40000
O 	O 	0.78430 0.78430 0.67210 -0.50600
O 	O 	0.71680 0.71680 0.61320 -0.55900
O 	O 	0.93110 0.06890 0.44580 -0.47600
O 	O 	0.78430 0.21570 0.32790 -0.53500
O 	O 	0.71680 0.28320 0.38680 -0.56800
O 	O 	0.06890 0.06890 0.55420 -0.54800
O 	O 	0.21570 0.21570 0.67210 -0.54800
O 	O 	0.28320 0.28320 0.61320 -0.57500
O 	O 	0.06890 0.93110 0.44580 -0.47600
O 	O 	0.21570 0.78430 0.32790 -0.53500
O 	O 	0.28320 0.71680 0.38680 -0.56800
O 	O 	0.55420 0.93110 0.93110 -0.40000
O 	O 	0.67210 0.78430 0.78430 -0.50600
O 	O 	0.61320 0.71680 0.71680 -0.55900
O 	O 	0.44580 0.93110 0.06890 -0.47600
O 	O 	0.32790 0.78430 0.21570 -0.53500
O 	O 	0.38680 0.71680 0.28320 -0.56800
O 	O 	0.55420 0.06890 0.06890 -0.54800
O 	O 	0.67210 0.21570 0.21570 -0.54800
O 	O 	0.61320 0.28320 0.28320 -0.57500
O 	O 	0.44580 0.06890 0.93110 -0.47600
O 	O 	0.32790 0.21570 0.78430 -0.53500
O 	O 	0.38680 0.28320 0.71680 -0.56800
O 	O 	0.55420 0.93110 0.06890 -0.47200
O 	O 	0.67210 0.78430 0.21570 -0.52600
O 	O 	0.61320 0.71680 0.28320 -0.56700
O 	O 	0.44580 0.06890 0.06890 -0.55300
O 	O 	0.32790 0.21570 0.21570 -0.55700
O 	O 	0.38680 0.28320 0.28320 -0.57600
O 	O 	0.55420 0.06890 0.93110 -0.47200
O 	O 	0.67210 0.21570 0.78430 -0.52600
O 	O 	0.61320 0.28320 0.71680 -0.56700
O 	O 	0.44580 0.93110 0.93110 -0.40400
O 	O 	0.32790 0.78430 0.78430 -0.51400
O 	O 	0.38680 0.71680 0.71680 -0.56000
O 	O 	0.93110 0.93110 0.44580 -0.40400
O 	O 	0.78430 0.78430 0.32790 -0.51400
O 	O 	0.71680 0.71680 0.38680 -0.56000
O 	O 	0.06890 0.93110 0.55420 -0.47200
O 	O 	0.21570 0.78430 0.67210 -0.52600
O 	O 	0.28320 0.71680 0.61320 -0.56700
O 	O 	0.06890 0.06890 0.44580 -0.55300
O 	O 	0.21570 0.21570 0.32790 -0.55700
O 	O 	0.28320 0.28320 0.38680 -0.57600
O 	O 	0.93110 0.06890 0.55420 -0.47200
O 	O 	0.78430 0.21570 0.67210 -0.52600
O 	O 	0.71680 0.28320 0.61320 -0.56700
O 	O 	0.93110 0.55420 0.06890 -0.47200
O 	O 	0.78430 0.67210 0.21570 -0.52600
O 	O 	0.71680 0.61320 0.28320 -0.56700
O 	O 	0.93110 0.44580 0.93110 -0.40400
O 	O 	0.78430 0.32790 0.78430 -0.51400
O 	O 	0.71680 0.38680 0.71680 -0.56000
O 	O 	0.06890 0.55420 0.93110 -0.47200
O 	O 	0.21570 0.67210 0.78430 -0.52600
O 	O 	0.28320 0.61320 0.71680 -0.56700
O 	O 	0.06890 0.44580 0.06890 -0.55300
O 	O 	0.21570 0.32790 0.21570 -0.55700
O 	O 	0.28320 0.38680 0.28320 -0.57600
