data_crystal

_cell_length_a 20.57300
_cell_length_b 20.57300
_cell_length_c 20.57300
_cell_angle_alpha 90.00000
_cell_angle_beta  90.00000
_cell_angle_gamma 90.00000

_symmetry_space_group_name_	'P 1'
_symmetry_space_group_name_H-M	'P 1'

loop_
_symmetry_equiv_pos_as_xyz
  x,y,z

loop_
_atom_site_label
_atom_site_type_symbol
_atom_site_fract_x
_atom_site_fract_y
_atom_site_fract_z
_atom_site_charge
Zn	Zn	0.50000 0.92757 0.50000 1.19900
Zn	Zn	0.50000 0.07243 0.50000 1.19500
Zn	Zn	0.50000 0.50000 0.92757 1.19900
Zn	Zn	0.50000 0.50000 0.07243 1.19500
Zn	Zn	0.92757 0.50000 0.50000 1.19900
Zn	Zn	0.07243 0.50000 0.50000 1.19500
Zn	Zn	0.73681 0.26319 0.73681 1.18200
Zn	Zn	0.83476 0.16524 0.83476 1.19300
Zn	Zn	0.26319 0.73681 0.73681 1.18100
Zn	Zn	0.16524 0.83476 0.83476 1.19200
Zn	Zn	0.26319 0.26319 0.26319 1.17900
Zn	Zn	0.16524 0.16524 0.16524 1.18600
Zn	Zn	0.73681 0.73681 0.26319 1.18100
Zn	Zn	0.83476 0.83476 0.16524 1.19200
Zn	Zn	0.26319 0.73681 0.26319 1.18000
Zn	Zn	0.16524 0.83476 0.16524 1.18900
Zn	Zn	0.73681 0.26319 0.26319 1.18000
Zn	Zn	0.83476 0.16524 0.16524 1.18900
Zn	Zn	0.26319 0.26319 0.73681 1.18000
Zn	Zn	0.16524 0.16524 0.83476 1.18900
Zn	Zn	0.73681 0.73681 0.73681 1.18100
Zn	Zn	0.83476 0.83476 0.83476 1.19500
H 	H 	0.76690 -0.00000 0.76690 -0.03300
H 	H 	0.23310 -0.00000 0.76690 -0.03700
H 	H 	0.23310 -0.00000 0.23310 -0.04100
H 	H 	0.76690 -0.00000 0.23310 -0.03700
H 	H 	0.76690 0.76690 -0.00000 -0.03300
H 	H 	0.76690 0.23310 -0.00000 -0.03700
H 	H 	0.23310 0.23310 -0.00000 -0.04100
H 	H 	0.23310 0.76690 -0.00000 -0.03700
H 	H 	-0.00000 0.76690 0.76690 -0.03300
H 	H 	-0.00000 0.76690 0.23310 -0.03700
H 	H 	-0.00000 0.23310 0.23310 -0.04100
H 	H 	-0.00000 0.23310 0.76690 -0.03700
H 	H 	0.65090 0.09890 0.65090 -0.01800
H 	H 	0.34910 0.90110 0.65090 -0.02300
H 	H 	0.34910 0.09890 0.34910 -0.02100
H 	H 	0.65090 0.90110 0.34910 -0.02300
H 	H 	0.65090 0.65090 0.09890 -0.01800
H 	H 	0.65090 0.34910 0.90110 -0.02300
H 	H 	0.34910 0.34910 0.09890 -0.02100
H 	H 	0.34910 0.65090 0.90110 -0.02300
H 	H 	0.09890 0.65090 0.65090 -0.01800
H 	H 	0.90110 0.65090 0.34910 -0.02300
H 	H 	0.09890 0.34910 0.34910 -0.02100
H 	H 	0.90110 0.34910 0.65090 -0.02300
H 	H 	0.09890 0.65090 0.34910 -0.01900
H 	H 	0.90110 0.34910 0.34910 -0.02400
H 	H 	0.09890 0.34910 0.65090 -0.01900
H 	H 	0.90110 0.65090 0.65090 -0.02200
H 	H 	0.65090 0.65090 0.90110 -0.02200
H 	H 	0.34910 0.65090 0.09890 -0.01900
H 	H 	0.34910 0.34910 0.90110 -0.02400
H 	H 	0.65090 0.34910 0.09890 -0.01900
H 	H 	0.65090 0.09890 0.34910 -0.01900
H 	H 	0.65090 0.90110 0.65090 -0.02200
H 	H 	0.34910 0.09890 0.65090 -0.01900
H 	H 	0.34910 0.90110 0.34910 -0.02400
C 	C 	0.64000 0.00000 0.64000 -0.22800
C 	C 	0.73490 0.00000 0.73490 0.15700
C 	C 	0.58670 0.00000 0.58670 0.42700
C 	C 	0.36000 0.00000 0.64000 -0.23000
C 	C 	0.26510 0.00000 0.73490 0.16000
C 	C 	0.41330 0.00000 0.58670 0.42700
C 	C 	0.36000 -0.00000 0.36000 -0.23300
C 	C 	0.26510 0.00000 0.26510 0.16200
C 	C 	0.41330 0.00000 0.41330 0.42800
C 	C 	0.64000 -0.00000 0.36000 -0.23000
C 	C 	0.73490 0.00000 0.26510 0.16000
C 	C 	0.58670 0.00000 0.41330 0.42700
C 	C 	0.64000 0.64000 -0.00000 -0.22800
C 	C 	0.73490 0.73490 -0.00000 0.15700
C 	C 	0.58670 0.58670 -0.00000 0.42700
C 	C 	0.64000 0.36000 -0.00000 -0.23000
C 	C 	0.73490 0.26510 -0.00000 0.16000
C 	C 	0.58670 0.41330 -0.00000 0.42700
C 	C 	0.36000 0.36000 -0.00000 -0.23300
C 	C 	0.26510 0.26510 -0.00000 0.16200
C 	C 	0.41330 0.41330 -0.00000 0.42800
C 	C 	0.36000 0.64000 -0.00000 -0.23000
C 	C 	0.26510 0.73490 -0.00000 0.16000
C 	C 	0.41330 0.58670 -0.00000 0.42700
C 	C 	0.00000 0.64000 0.64000 -0.22800
C 	C 	-0.00000 0.73490 0.73490 0.15700
C 	C 	0.00000 0.58670 0.58670 0.42700
C 	C 	-0.00000 0.64000 0.36000 -0.23000
C 	C 	0.00000 0.73490 0.26510 0.16000
C 	C 	-0.00000 0.58670 0.41330 0.42700
C 	C 	-0.00000 0.36000 0.36000 -0.23300
C 	C 	0.00000 0.26510 0.26510 0.16200
C 	C 	0.00000 0.41330 0.41330 0.42800
C 	C 	-0.00000 0.36000 0.64000 -0.23000
C 	C 	0.00000 0.26510 0.73490 0.16000
C 	C 	-0.00000 0.41330 0.58670 0.42700
C 	C 	0.66590 0.05900 0.66590 0.16100
C 	C 	0.71180 0.05700 0.71180 -0.25900
C 	C 	0.73900 0.11880 0.73900 0.48400
C 	C 	0.33410 0.94100 0.66590 0.18900
C 	C 	0.28820 0.94300 0.71180 -0.23900
C 	C 	0.26100 0.88120 0.73900 0.48200
C 	C 	0.33410 0.05900 0.33410 0.16400
C 	C 	0.28820 0.05700 0.28820 -0.26700
C 	C 	0.26100 0.11880 0.26100 0.48500
C 	C 	0.66590 0.94100 0.33410 0.18900
C 	C 	0.71180 0.94300 0.28820 -0.23900
C 	C 	0.73900 0.88120 0.26100 0.48200
C 	C 	0.66590 0.66590 0.05900 0.16100
C 	C 	0.71180 0.71180 0.05700 -0.25900
C 	C 	0.73900 0.73900 0.11880 0.48400
C 	C 	0.66590 0.33410 0.94100 0.18900
C 	C 	0.71180 0.28820 0.94300 -0.23900
C 	C 	0.73900 0.26100 0.88120 0.48200
C 	C 	0.33410 0.33410 0.05900 0.16400
C 	C 	0.28820 0.28820 0.05700 -0.26700
C 	C 	0.26100 0.26100 0.11880 0.48500
C 	C 	0.33410 0.66590 0.94100 0.18900
C 	C 	0.28820 0.71180 0.94300 -0.23900
C 	C 	0.26100 0.73900 0.88120 0.48200
C 	C 	0.05900 0.66590 0.66590 0.16100
C 	C 	0.05700 0.71180 0.71180 -0.25900
C 	C 	0.11880 0.73900 0.73900 0.48400
C 	C 	0.94100 0.66590 0.33410 0.18900
C 	C 	0.94300 0.71180 0.28820 -0.23900
C 	C 	0.88120 0.73900 0.26100 0.48200
C 	C 	0.05900 0.33410 0.33410 0.16400
C 	C 	0.05700 0.28820 0.28820 -0.26700
C 	C 	0.11880 0.26100 0.26100 0.48500
C 	C 	0.94100 0.33410 0.66590 0.18900
C 	C 	0.94300 0.28820 0.71180 -0.23900
C 	C 	0.88120 0.26100 0.73900 0.48200
C 	C 	0.05900 0.66590 0.33410 0.16300
C 	C 	0.05700 0.71180 0.28820 -0.26300
C 	C 	0.11880 0.73900 0.26100 0.48500
C 	C 	0.94100 0.33410 0.33410 0.19100
C 	C 	0.94300 0.28820 0.28820 -0.24300
C 	C 	0.88120 0.26100 0.26100 0.48300
C 	C 	0.05900 0.33410 0.66590 0.16300
C 	C 	0.05700 0.28820 0.71180 -0.26300
C 	C 	0.11880 0.26100 0.73900 0.48500
C 	C 	0.94100 0.66590 0.66590 0.18700
C 	C 	0.94300 0.71180 0.71180 -0.23500
C 	C 	0.88120 0.73900 0.73900 0.48100
C 	C 	0.66590 0.66590 0.94100 0.18700
C 	C 	0.71180 0.71180 0.94300 -0.23500
C 	C 	0.73900 0.73900 0.88120 0.48100
C 	C 	0.33410 0.66590 0.05900 0.16300
C 	C 	0.28820 0.71180 0.05700 -0.26300
C 	C 	0.26100 0.73900 0.11880 0.48500
C 	C 	0.33410 0.33410 0.94100 0.19100
C 	C 	0.28820 0.28820 0.94300 -0.24300
C 	C 	0.26100 0.26100 0.88120 0.48300
C 	C 	0.66590 0.33410 0.05900 0.16300
C 	C 	0.71180 0.28820 0.05700 -0.26300
C 	C 	0.73900 0.26100 0.11880 0.48500
C 	C 	0.66590 0.05900 0.33410 0.16300
C 	C 	0.71180 0.05700 0.28820 -0.26300
C 	C 	0.73900 0.11880 0.26100 0.48500
C 	C 	0.66590 0.94100 0.66590 0.18700
C 	C 	0.71180 0.94300 0.71180 -0.23500
C 	C 	0.73900 0.88120 0.73900 0.48100
C 	C 	0.33410 0.05900 0.66590 0.16300
C 	C 	0.28820 0.05700 0.71180 -0.26300
C 	C 	0.26100 0.11880 0.73900 0.48500
C 	C 	0.33410 0.94100 0.33410 0.19100
C 	C 	0.28820 0.94300 0.28820 -0.24300
C 	C 	0.26100 0.88120 0.26100 0.48300
O 	O 	0.56820 0.94610 0.56820 -0.48700
O 	O 	0.71690 0.17170 0.71690 -0.55500
O 	O 	0.78140 0.11230 0.78140 -0.58500
O 	O 	0.43180 0.05390 0.56820 -0.51200
O 	O 	0.28310 0.82830 0.71690 -0.55200
O 	O 	0.21860 0.88770 0.78140 -0.57600
O 	O 	0.43180 0.94610 0.43180 -0.48800
O 	O 	0.28310 0.17170 0.28310 -0.55800
O 	O 	0.21860 0.11230 0.21860 -0.59400
O 	O 	0.56820 0.05390 0.43180 -0.51200
O 	O 	0.71690 0.82830 0.28310 -0.55200
O 	O 	0.78140 0.88770 0.21860 -0.57600
O 	O 	0.56820 0.56820 0.94610 -0.48700
O 	O 	0.71690 0.71690 0.17170 -0.55500
O 	O 	0.78140 0.78140 0.11230 -0.58500
O 	O 	0.56820 0.43180 0.05390 -0.51200
O 	O 	0.71690 0.28310 0.82830 -0.55200
O 	O 	0.78140 0.21860 0.88770 -0.57600
O 	O 	0.43180 0.43180 0.94610 -0.48800
O 	O 	0.28310 0.28310 0.17170 -0.55800
O 	O 	0.21860 0.21860 0.11230 -0.59400
O 	O 	0.43180 0.56820 0.05390 -0.51200
O 	O 	0.28310 0.71690 0.82830 -0.55200
O 	O 	0.21860 0.78140 0.88770 -0.57600
O 	O 	0.94610 0.56820 0.56820 -0.48700
O 	O 	0.17170 0.71690 0.71690 -0.55500
O 	O 	0.11230 0.78140 0.78140 -0.58500
O 	O 	0.05390 0.56820 0.43180 -0.51200
O 	O 	0.82830 0.71690 0.28310 -0.55200
O 	O 	0.88770 0.78140 0.21860 -0.57600
O 	O 	0.94610 0.43180 0.43180 -0.48800
O 	O 	0.17170 0.28310 0.28310 -0.55800
O 	O 	0.11230 0.21860 0.21860 -0.59400
O 	O 	0.05390 0.43180 0.56820 -0.51200
O 	O 	0.82830 0.28310 0.71690 -0.55200
O 	O 	0.88770 0.21860 0.78140 -0.57600
O 	O 	0.94610 0.56820 0.43180 -0.48700
O 	O 	0.17170 0.71690 0.28310 -0.55700
O 	O 	0.11230 0.78140 0.21860 -0.58900
O 	O 	0.05390 0.43180 0.43180 -0.51200
O 	O 	0.82830 0.28310 0.28310 -0.55400
O 	O 	0.88770 0.21860 0.21860 -0.58100
O 	O 	0.94610 0.43180 0.56820 -0.48700
O 	O 	0.17170 0.28310 0.71690 -0.55700
O 	O 	0.11230 0.21860 0.78140 -0.58900
O 	O 	0.05390 0.56820 0.56820 -0.51100
O 	O 	0.82830 0.71690 0.71690 -0.55000
O 	O 	0.88770 0.78140 0.78140 -0.57200
O 	O 	0.56820 0.56820 0.05390 -0.51100
O 	O 	0.71690 0.71690 0.82830 -0.55000
O 	O 	0.78140 0.78140 0.88770 -0.57200
O 	O 	0.43180 0.56820 0.94610 -0.48700
O 	O 	0.28310 0.71690 0.17170 -0.55700
O 	O 	0.21860 0.78140 0.11230 -0.58900
O 	O 	0.43180 0.43180 0.05390 -0.51200
O 	O 	0.28310 0.28310 0.82830 -0.55400
O 	O 	0.21860 0.21860 0.88770 -0.58100
O 	O 	0.56820 0.43180 0.94610 -0.48700
O 	O 	0.71690 0.28310 0.17170 -0.55700
O 	O 	0.78140 0.21860 0.11230 -0.58900
O 	O 	0.56820 0.94610 0.43180 -0.48700
O 	O 	0.71690 0.17170 0.28310 -0.55700
O 	O 	0.78140 0.11230 0.21860 -0.58900
O 	O 	0.56820 0.05390 0.56820 -0.51100
O 	O 	0.71690 0.82830 0.71690 -0.55000
O 	O 	0.78140 0.88770 0.78140 -0.57200
O 	O 	0.43180 0.94610 0.56820 -0.48700
O 	O 	0.28310 0.17170 0.71690 -0.55700
O 	O 	0.21860 0.11230 0.78140 -0.58900
O 	O 	0.43180 0.05390 0.43180 -0.51200
O 	O 	0.28310 0.82830 0.28310 -0.55400
O 	O 	0.21860 0.88770 0.21860 -0.58100
