data_crystal

_cell_length_a 12.95950
_cell_length_b 14.73410
_cell_length_c 15.35710
_cell_angle_alpha 90.00000
_cell_angle_beta  90.00000
_cell_angle_gamma 90.00000

_symmetry_space_group_name_	'P 1'
_symmetry_space_group_name_H-M	'P 1'

loop_
_symmetry_equiv_pos_as_xyz
  x,y,z

loop_
_atom_site_label
_atom_site_type_symbol
_atom_site_fract_x
_atom_site_fract_y
_atom_site_fract_z
_atom_site_charge
Zn	Zn	0.29814 0.17144 0.16545 1.14900
Zn	Zn	0.79814 0.32856 0.83455 1.14900
Zn	Zn	0.70186 0.67144 0.33455 1.14900
Zn	Zn	0.48212 0.02753 0.04700 1.18800
Zn	Zn	0.51788 0.52753 0.45300 1.18800
Zn	Zn	0.98212 0.47247 0.95300 1.18800
Zn	Zn	0.20186 0.82856 0.66545 1.14900
Zn	Zn	0.01788 0.97247 0.54700 1.18800
H 	H 	0.46230 0.81850 0.23850 -0.02900
H 	H 	0.18540 0.24620 0.96100 -0.04000
H 	H 	0.31460 0.75380 0.46100 -0.04000
H 	H 	0.73770 0.52070 0.67390 -0.03600
H 	H 	0.96230 0.68150 0.76150 -0.02900
H 	H 	0.68540 0.25380 0.03900 -0.04000
H 	H 	0.23770 0.97930 0.32610 -0.03600
H 	H 	0.03770 0.18150 0.73850 -0.02900
H 	H 	0.26230 0.02070 0.82610 -0.03600
H 	H 	0.76230 0.47930 0.17390 -0.03600
H 	H 	0.81460 0.74620 0.53900 -0.04000
H 	H 	0.53770 0.31850 0.26150 -0.02900
C 	C 	0.13420 0.03040 0.69450 0.47600
C 	C 	0.39780 0.77230 0.35210 -0.23400
C 	C 	0.67610 0.29240 0.08630 0.13700
C 	C 	0.03510 0.30980 0.86170 0.43000
C 	C 	0.27760 0.92730 0.33260 0.15200
C 	C 	0.89780 0.72770 0.64790 -0.23500
C 	C 	0.81750 0.39140 0.02730 0.41900
C 	C 	0.53510 0.19020 0.13830 0.42800
C 	C 	0.41190 0.83090 0.27990 0.14000
C 	C 	0.31750 0.10860 0.97270 0.42000
C 	C 	0.86580 0.53040 0.80550 0.47400
C 	C 	0.63420 0.46960 0.30550 0.47400
C 	C 	0.08810 0.16910 0.77990 0.14100
C 	C 	0.10220 0.22770 0.85210 -0.23500
C 	C 	0.58810 0.33090 0.22010 0.13900
C 	C 	0.46490 0.69020 0.36170 0.42800
C 	C 	0.23800 0.12910 0.90570 -0.24000
C 	C 	0.76200 0.62910 0.59430 -0.23900
C 	C 	0.65000 0.40680 0.22850 -0.25000
C 	C 	0.60220 0.27230 0.14790 -0.23500
C 	C 	0.77760 0.57270 0.66740 0.15100
C 	C 	0.22240 0.07270 0.83260 0.15200
C 	C 	0.15000 0.09320 0.77150 -0.25000
C 	C 	0.73800 0.37090 0.09430 -0.23900
C 	C 	0.26200 0.87090 0.40570 -0.23900
C 	C 	0.91190 0.66910 0.72010 0.14000
C 	C 	0.17610 0.20760 0.91370 0.13800
C 	C 	0.68250 0.60860 0.52730 0.41700
C 	C 	0.18250 0.89140 0.47270 0.41700
C 	C 	0.82390 0.70760 0.58630 0.13700
C 	C 	0.35000 0.90680 0.27150 -0.25000
C 	C 	0.85000 0.59320 0.72850 -0.25000
C 	C 	0.72240 0.42730 0.16740 0.15100
C 	C 	0.36580 0.96960 0.19450 0.47600
C 	C 	0.96490 0.80980 0.63830 0.42900
C 	C 	0.32390 0.79240 0.41370 0.13700
O 	O 	0.33160 0.16420 0.03230 -0.55100
O 	O 	0.56160 0.13350 0.08020 -0.54300
O 	O 	0.63010 0.53650 0.53800 -0.53400
O 	O 	0.06160 0.36650 0.91980 -0.54200
O 	O 	0.19570 0.96840 0.68410 -0.55800
O 	O 	0.16840 0.83580 0.53230 -0.54900
O 	O 	0.30430 0.03160 0.18410 -0.55800
O 	O 	0.45790 0.18230 0.18750 -0.52100
O 	O 	0.80430 0.46840 0.81590 -0.55700
O 	O 	0.05750 0.04600 0.64640 -0.55400
O 	O 	0.95790 0.31770 0.81250 -0.52300
O 	O 	0.36990 0.03650 0.96200 -0.53400
O 	O 	0.44250 0.95400 0.14640 -0.55300
O 	O 	0.66840 0.66420 0.46770 -0.54800
O 	O 	0.13010 0.96350 0.46200 -0.53500
O 	O 	0.55750 0.45400 0.35360 -0.55400
O 	O 	0.54210 0.68230 0.31250 -0.52100
O 	O 	0.83160 0.33580 0.96770 -0.55000
O 	O 	0.43840 0.63350 0.41980 -0.54200
O 	O 	0.04210 0.81770 0.68750 -0.52200
O 	O 	0.93840 0.86650 0.58020 -0.54200
O 	O 	0.69570 0.53160 0.31590 -0.55600
O 	O 	0.94250 0.54600 0.85360 -0.55500
O 	O 	0.86990 0.46350 0.03800 -0.53300
