data_crystal

_cell_length_a 25.80330
_cell_length_b 8.67420
_cell_length_c 8.45570
_cell_angle_alpha 90.00000
_cell_angle_beta  90.00000
_cell_angle_gamma 90.00000

_symmetry_space_group_name_	'P 1'
_symmetry_space_group_name_H-M	'P 1'

loop_
_symmetry_equiv_pos_as_xyz
  x,y,z

loop_
_atom_site_label
_atom_site_type_symbol
_atom_site_fract_x
_atom_site_fract_y
_atom_site_fract_z
_atom_site_charge
Zn	Zn	0.68745 0.72502 0.38022 1.24200
P 	P 	0.76672 0.94168 0.18056 0.64500
H 	H 	0.75100 0.00700 0.07200 -0.18100
P 	P 	0.56185 0.80857 0.35500 0.50200
H 	H 	0.55200 0.70800 0.27300 -0.08100
O 	O 	0.72169 0.89610 0.28110 -0.46100
O 	O 	0.80779 0.03200 0.27060 -0.52700
O 	O 	0.79259 0.80230 0.10300 -0.44000
O 	O 	0.61533 0.78290 0.41700 -0.41800
O 	O 	0.55962 0.94280 0.23820 -0.40800
O 	O 	0.52212 0.82360 0.48760 -0.42200
Zn	Zn	0.18745 0.22502 0.88022 1.23800
P 	P 	0.26672 0.44168 0.68056 0.50900
H 	H 	0.25100 0.50700 0.57200 -0.10100
P 	P 	0.06185 0.30857 0.85500 0.50100
H 	H 	0.05200 0.20800 0.77300 -0.11100
O 	O 	0.22169 0.39610 0.78110 -0.46300
O 	O 	0.30779 0.53200 0.77060 -0.45000
O 	O 	0.29259 0.30230 0.60300 -0.44100
O 	O 	0.11533 0.28290 0.91700 -0.43900
O 	O 	0.05962 0.44280 0.73820 -0.46700
O 	O 	0.02212 0.32360 0.98760 -0.48600
Zn	Zn	0.31255 0.27498 0.38022 1.23600
P 	P 	0.23328 0.05832 0.18056 0.37600
H 	H 	0.24900 0.99300 0.07200 -0.03100
P 	P 	0.43815 0.19143 0.35500 0.49800
H 	H 	0.44800 0.29200 0.27300 -0.08700
O 	O 	0.27831 0.10390 0.28110 -0.46800
O 	O 	0.19221 0.96800 0.27060 -0.38400
O 	O 	0.20741 0.19770 0.10300 -0.44000
O 	O 	0.38467 0.21710 0.41700 -0.44500
O 	O 	0.44038 0.05720 0.23820 -0.49000
O 	O 	0.47788 0.17640 0.48760 -0.47100
Zn	Zn	0.81255 0.77498 0.88022 1.24600
P 	P 	0.73328 0.55832 0.68056 0.51000
H 	H 	0.74900 0.49300 0.57200 -0.10200
P 	P 	0.93815 0.69143 0.85500 0.49700
H 	H 	0.94800 0.79200 0.77300 -0.05000
O 	O 	0.77831 0.60390 0.78110 -0.45500
O 	O 	0.69221 0.46800 0.77060 -0.44900
O 	O 	0.70741 0.69770 0.60300 -0.42100
O 	O 	0.88467 0.71710 0.91700 -0.41100
O 	O 	0.94038 0.55720 0.73820 -0.41900
O 	O 	0.97788 0.67640 0.98760 -0.39000
Zn	Zn	0.18745 0.77498 0.38022 1.24200
P 	P 	0.26672 0.55832 0.18056 0.51100
H 	H 	0.25100 0.49300 0.07200 -0.10900
P 	P 	0.06185 0.69143 0.35500 0.50000
H 	H 	0.05200 0.79200 0.27300 -0.08800
O 	O 	0.22169 0.60390 0.28110 -0.46300
O 	O 	0.30779 0.46800 0.27060 -0.45500
O 	O 	0.29259 0.69770 0.10300 -0.43000
O 	O 	0.11533 0.71710 0.41700 -0.42900
O 	O 	0.05962 0.55720 0.23820 -0.47300
O 	O 	0.02212 0.67640 0.48760 -0.47600
Zn	Zn	0.68745 0.27498 0.88022 1.24000
P 	P 	0.76672 0.05832 0.68056 0.37800
H 	H 	0.75100 0.99300 0.57200 -0.02600
P 	P 	0.56185 0.19143 0.85500 0.49800
H 	H 	0.55200 0.29200 0.77300 -0.08200
O 	O 	0.72169 0.10390 0.78110 -0.46200
O 	O 	0.80779 0.96800 0.77060 -0.37200
O 	O 	0.79259 0.19770 0.60300 -0.42700
O 	O 	0.61533 0.21710 0.91700 -0.43900
O 	O 	0.55962 0.05720 0.73820 -0.48300
O 	O 	0.52212 0.17640 0.98760 -0.46100
Zn	Zn	0.81255 0.22502 0.38022 1.23600
P 	P 	0.73328 0.44168 0.18056 0.51000
H 	H 	0.74900 0.50700 0.07200 -0.10500
P 	P 	0.93815 0.30857 0.35500 0.49800
H 	H 	0.94800 0.20800 0.27300 -0.08100
O 	O 	0.77831 0.39610 0.28110 -0.46700
O 	O 	0.69221 0.53200 0.27060 -0.45600
O 	O 	0.70741 0.30230 0.10300 -0.44900
O 	O 	0.88467 0.28290 0.41700 -0.43500
O 	O 	0.94038 0.44280 0.23820 -0.42600
O 	O 	0.97788 0.32360 0.48760 -0.41700
Zn	Zn	0.31255 0.72502 0.88022 1.24400
P 	P 	0.23328 0.94168 0.68056 0.64200
H 	H 	0.24900 0.00700 0.57200 -0.17700
P 	P 	0.43815 0.80857 0.85500 0.50000
H 	H 	0.44800 0.70800 0.77300 -0.07800
O 	O 	0.27831 0.89610 0.78110 -0.45600
O 	O 	0.19221 0.03200 0.77060 -0.52600
O 	O 	0.20741 0.80230 0.60300 -0.43600
O 	O 	0.38467 0.78290 0.91700 -0.41200
O 	O 	0.44038 0.94280 0.73820 -0.40200
O 	O 	0.47788 0.82360 0.98760 -0.41400
Zn	Zn	0.50000 0.00000 0.10714 1.20200
Zn	Zn	0.00000 0.50000 0.60714 1.20900
Zn	Zn	0.00000 0.50000 0.10714 1.20300
Zn	Zn	0.50000 0.00000 0.60714 1.20800
