data_crystal

_cell_length_a 9.06060
_cell_length_b 15.75870
_cell_length_c 32.04530
_cell_angle_alpha 90.00000
_cell_angle_beta  90.00000
_cell_angle_gamma 90.00000

_symmetry_space_group_name_	'P 1'
_symmetry_space_group_name_H-M	'P 1'

loop_
_symmetry_equiv_pos_as_xyz
  x,y,z

loop_
_atom_site_label
_atom_site_type_symbol
_atom_site_fract_x
_atom_site_fract_y
_atom_site_fract_z
_atom_site_charge
P 	P 	0.35520 0.19437 0.05804 0.48000
O 	O 	0.41870 0.27880 0.04664 -0.43800
O 	O 	0.30250 0.14300 0.02155 -0.47100
O 	O 	0.24320 0.20150 0.09249 -0.46500
H 	H 	0.47450 0.15220 0.07190 -0.02800
P 	P 	0.35520 0.69437 0.55804 0.48000
O 	O 	0.41870 0.77880 0.54664 -0.43800
O 	O 	0.30250 0.64300 0.52155 -0.47100
O 	O 	0.24320 0.70150 0.59249 -0.46500
H 	H 	0.47450 0.65220 0.57190 -0.02800
P 	P 	0.85520 0.19437 0.55804 0.48000
O 	O 	0.91870 0.27880 0.54664 -0.43800
O 	O 	0.80250 0.14300 0.52155 -0.47100
O 	O 	0.74320 0.20150 0.59249 -0.46500
H 	H 	0.97450 0.15220 0.57190 -0.02800
P 	P 	0.85520 0.69437 0.05804 0.48000
O 	O 	0.91870 0.77880 0.04664 -0.43900
O 	O 	0.80250 0.64300 0.02155 -0.47200
O 	O 	0.74320 0.70150 0.09249 -0.46600
H 	H 	0.97450 0.65220 0.07190 -0.02900
P 	P 	0.39480 0.55563 0.05804 0.47900
O 	O 	0.33130 0.47120 0.04664 -0.43900
O 	O 	0.44750 0.60700 0.02155 -0.47200
O 	O 	0.50680 0.54850 0.09249 -0.46600
H 	H 	0.27550 0.59780 0.07190 -0.02900
P 	P 	0.39480 0.05563 0.55804 0.47900
O 	O 	0.33130 0.97120 0.54664 -0.43900
O 	O 	0.44750 0.10700 0.52155 -0.47200
O 	O 	0.50680 0.04850 0.59249 -0.46600
H 	H 	0.27550 0.09780 0.57190 -0.02900
P 	P 	0.89480 0.55563 0.55804 0.47900
O 	O 	0.83130 0.47120 0.54664 -0.43900
O 	O 	0.94750 0.60700 0.52155 -0.47200
O 	O 	0.00680 0.54850 0.59249 -0.46600
H 	H 	0.77550 0.59780 0.57190 -0.02900
P 	P 	0.89480 0.05563 0.05804 0.47900
O 	O 	0.83130 0.97120 0.04664 -0.43900
O 	O 	0.94750 0.10700 0.02155 -0.47200
O 	O 	0.00680 0.04850 0.09249 -0.46600
H 	H 	0.77550 0.09780 0.07190 -0.02900
P 	P 	0.39480 0.19437 0.69196 0.47900
O 	O 	0.33130 0.27880 0.70336 -0.43900
O 	O 	0.44750 0.14300 0.72845 -0.47200
O 	O 	0.50680 0.20150 0.65751 -0.46600
H 	H 	0.27550 0.15220 0.67810 -0.02900
P 	P 	0.39480 0.69437 0.19196 0.47900
O 	O 	0.33130 0.77880 0.20336 -0.43900
O 	O 	0.44750 0.64300 0.22845 -0.47200
O 	O 	0.50680 0.70150 0.15751 -0.46600
H 	H 	0.27550 0.65220 0.17810 -0.02900
P 	P 	0.89480 0.19437 0.19196 0.47900
O 	O 	0.83130 0.27880 0.20336 -0.43900
O 	O 	0.94750 0.14300 0.22845 -0.47200
O 	O 	0.00680 0.20150 0.15751 -0.46600
H 	H 	0.77550 0.15220 0.17810 -0.02900
P 	P 	0.89480 0.69437 0.69196 0.47900
O 	O 	0.83130 0.77880 0.70336 -0.43900
O 	O 	0.94750 0.64300 0.72845 -0.47200
O 	O 	0.00680 0.70150 0.65751 -0.46600
H 	H 	0.77550 0.65220 0.67810 -0.02900
P 	P 	0.35520 0.55563 0.69196 0.47900
O 	O 	0.41870 0.47120 0.70336 -0.43900
O 	O 	0.30250 0.60700 0.72845 -0.47200
O 	O 	0.24320 0.54850 0.65751 -0.46600
H 	H 	0.47450 0.59780 0.67810 -0.02900
P 	P 	0.35520 0.05563 0.19196 0.47900
O 	O 	0.41870 0.97120 0.20336 -0.43900
O 	O 	0.30250 0.10700 0.22845 -0.47200
O 	O 	0.24320 0.04850 0.15751 -0.46600
H 	H 	0.47450 0.09780 0.17810 -0.02900
P 	P 	0.85520 0.55563 0.19196 0.47900
O 	O 	0.91870 0.47120 0.20336 -0.43900
O 	O 	0.80250 0.60700 0.22845 -0.47200
O 	O 	0.74320 0.54850 0.15751 -0.46600
H 	H 	0.97450 0.59780 0.17810 -0.02900
P 	P 	0.85520 0.05563 0.69196 0.47900
O 	O 	0.91870 0.97120 0.70336 -0.43900
O 	O 	0.80250 0.10700 0.72845 -0.47200
O 	O 	0.74320 0.04850 0.65751 -0.46600
H 	H 	0.97450 0.09780 0.67810 -0.02900
P 	P 	0.64480 0.80563 0.94196 0.47900
O 	O 	0.58130 0.72120 0.95336 -0.43900
O 	O 	0.69750 0.85700 0.97845 -0.47200
O 	O 	0.75680 0.79850 0.90751 -0.46600
H 	H 	0.52550 0.84780 0.92810 -0.02900
P 	P 	0.64480 0.30563 0.44196 0.47900
O 	O 	0.58130 0.22120 0.45336 -0.43900
O 	O 	0.69750 0.35700 0.47845 -0.47200
O 	O 	0.75680 0.29850 0.40751 -0.46600
H 	H 	0.52550 0.34780 0.42810 -0.02900
P 	P 	0.14480 0.80563 0.44196 0.47900
O 	O 	0.08130 0.72120 0.45336 -0.43900
O 	O 	0.19750 0.85700 0.47845 -0.47200
O 	O 	0.25680 0.79850 0.40751 -0.46600
H 	H 	0.02550 0.84780 0.42810 -0.02900
P 	P 	0.14480 0.30563 0.94196 0.47900
O 	O 	0.08130 0.22120 0.95336 -0.43900
O 	O 	0.19750 0.35700 0.97845 -0.47200
O 	O 	0.25680 0.29850 0.90751 -0.46600
H 	H 	0.02550 0.34780 0.92810 -0.02900
P 	P 	0.60520 0.44437 0.94196 0.47900
O 	O 	0.66870 0.52880 0.95336 -0.43900
O 	O 	0.55250 0.39300 0.97845 -0.47200
O 	O 	0.49320 0.45150 0.90751 -0.46600
H 	H 	0.72450 0.40220 0.92810 -0.02900
P 	P 	0.60520 0.94437 0.44196 0.47900
O 	O 	0.66870 0.02880 0.45336 -0.43900
O 	O 	0.55250 0.89300 0.47845 -0.47200
O 	O 	0.49320 0.95150 0.40751 -0.46600
H 	H 	0.72450 0.90220 0.42810 -0.02900
P 	P 	0.10520 0.44437 0.44196 0.47900
O 	O 	0.16870 0.52880 0.45336 -0.43900
O 	O 	0.05250 0.39300 0.47845 -0.47200
O 	O 	0.99320 0.45150 0.40751 -0.46600
H 	H 	0.22450 0.40220 0.42810 -0.02900
P 	P 	0.10520 0.94437 0.94196 0.47900
O 	O 	0.16870 0.02880 0.95336 -0.43900
O 	O 	0.05250 0.89300 0.97845 -0.47200
O 	O 	0.99320 0.95150 0.90751 -0.46600
H 	H 	0.22450 0.90220 0.92810 -0.02900
P 	P 	0.60520 0.80563 0.30804 0.47900
O 	O 	0.66870 0.72120 0.29664 -0.43900
O 	O 	0.55250 0.85700 0.27155 -0.47200
O 	O 	0.49320 0.79850 0.34249 -0.46600
H 	H 	0.72450 0.84780 0.32190 -0.02900
P 	P 	0.60520 0.30563 0.80804 0.47900
O 	O 	0.66870 0.22120 0.79664 -0.43900
O 	O 	0.55250 0.35700 0.77155 -0.47200
O 	O 	0.49320 0.29850 0.84249 -0.46600
H 	H 	0.72450 0.34780 0.82190 -0.02900
P 	P 	0.10520 0.80563 0.80804 0.47900
O 	O 	0.16870 0.72120 0.79664 -0.43900
O 	O 	0.05250 0.85700 0.77155 -0.47200
O 	O 	0.99320 0.79850 0.84249 -0.46600
H 	H 	0.22450 0.84780 0.82190 -0.02900
P 	P 	0.10520 0.30563 0.30804 0.47900
O 	O 	0.16870 0.22120 0.29664 -0.43900
O 	O 	0.05250 0.35700 0.27155 -0.47200
O 	O 	0.99320 0.29850 0.34249 -0.46600
H 	H 	0.22450 0.34780 0.32190 -0.02900
P 	P 	0.64480 0.44437 0.30804 0.47900
O 	O 	0.58130 0.52880 0.29664 -0.43900
O 	O 	0.69750 0.39300 0.27155 -0.47200
O 	O 	0.75680 0.45150 0.34249 -0.46600
H 	H 	0.52550 0.40220 0.32190 -0.02900
P 	P 	0.64480 0.94437 0.80804 0.47900
O 	O 	0.58130 0.02880 0.79664 -0.43900
O 	O 	0.69750 0.89300 0.77155 -0.47200
O 	O 	0.75680 0.95150 0.84249 -0.46600
H 	H 	0.52550 0.90220 0.82190 -0.02900
P 	P 	0.14480 0.44437 0.80804 0.47900
O 	O 	0.08130 0.52880 0.79664 -0.43900
O 	O 	0.19750 0.39300 0.77155 -0.47200
O 	O 	0.25680 0.45150 0.84249 -0.46600
H 	H 	0.02550 0.40220 0.82190 -0.02900
P 	P 	0.14480 0.94437 0.30804 0.47900
O 	O 	0.08130 0.02880 0.29664 -0.43900
O 	O 	0.19750 0.89300 0.27155 -0.47200
O 	O 	0.25680 0.95150 0.34249 -0.46600
H 	H 	0.02550 0.90220 0.32190 -0.02900
Zn	Zn	0.37500 0.37500 0.01083 1.23500
Zn	Zn	0.37500 0.87500 0.51083 1.23500
Zn	Zn	0.87500 0.37500 0.51083 1.23500
Zn	Zn	0.87500 0.87500 0.01083 1.23500
Zn	Zn	0.37500 0.37500 0.73917 1.23500
Zn	Zn	0.37500 0.87500 0.23917 1.23500
Zn	Zn	0.87500 0.37500 0.23917 1.23500
Zn	Zn	0.87500 0.87500 0.73917 1.23500
Zn	Zn	0.62500 0.62500 0.98917 1.23500
Zn	Zn	0.62500 0.12500 0.48917 1.23500
Zn	Zn	0.12500 0.62500 0.48917 1.23500
Zn	Zn	0.12500 0.12500 0.98917 1.23500
Zn	Zn	0.62500 0.62500 0.26083 1.23500
Zn	Zn	0.62500 0.12500 0.76083 1.23500
Zn	Zn	0.12500 0.62500 0.76083 1.23500
Zn	Zn	0.12500 0.12500 0.26083 1.23500
Zn	Zn	0.12500 0.12500 0.12500 1.23600
Zn	Zn	0.12500 0.62500 0.62500 1.23600
Zn	Zn	0.62500 0.12500 0.62500 1.23600
Zn	Zn	0.62500 0.62500 0.12500 1.23600
Zn	Zn	0.87500 0.87500 0.87500 1.23600
Zn	Zn	0.87500 0.37500 0.37500 1.23600
Zn	Zn	0.37500 0.87500 0.37500 1.23600
Zn	Zn	0.37500 0.37500 0.87500 1.23600
