data_crystal

_cell_length_a 16.17490
_cell_length_b 8.32470
_cell_length_c 17.06730
_cell_angle_alpha 90.00000
_cell_angle_beta  114.78100
_cell_angle_gamma 90.00000

_symmetry_space_group_name_	'P 1'
_symmetry_space_group_name_H-M	'P 1'

loop_
_symmetry_equiv_pos_as_xyz
  x,y,z

loop_
_atom_site_label
_atom_site_type_symbol
_atom_site_fract_x
_atom_site_fract_y
_atom_site_fract_z
_atom_site_charge
Zn	Zn	0.86468 0.61889 0.97818 1.23500
P 	P 	0.00752 0.39687 0.12375 0.32700
H 	H 	0.89500 0.01800 0.12800 -0.03500
P 	P 	0.85336 0.89415 0.10616 0.50900
H 	H 	0.99000 0.28100 0.16800 0.04800
O 	O 	0.86120 0.83320 0.02540 -0.43300
O 	O 	0.89450 0.78420 0.18070 -0.44100
O 	O 	0.91650 0.43780 0.05160 -0.39600
O 	O 	0.04890 0.53420 0.18480 -0.47700
O 	O 	0.07340 0.32110 0.09330 -0.43900
O 	O 	0.75990 0.94270 0.09180 -0.43700
Zn	Zn	0.36468 0.11889 0.97818 1.23300
P 	P 	0.50752 0.89687 0.12375 0.46300
H 	H 	0.39500 0.51800 0.12800 -0.05400
P 	P 	0.35336 0.39415 0.10616 0.51300
H 	H 	0.49000 0.78100 0.16800 -0.03000
O 	O 	0.36120 0.33320 0.02540 -0.45300
O 	O 	0.39450 0.28420 0.18070 -0.47800
O 	O 	0.41650 0.93780 0.05160 -0.47100
O 	O 	0.54890 0.03420 0.18480 -0.46200
O 	O 	0.57340 0.82110 0.09330 -0.42900
O 	O 	0.25990 0.44270 0.09180 -0.44500
Zn	Zn	0.13532 0.61889 0.52182 1.23100
P 	P 	0.99248 0.39687 0.37625 0.59700
H 	H 	0.10500 0.01800 0.37200 -0.06900
P 	P 	0.14664 0.89415 0.39384 0.51200
H 	H 	0.01000 0.28100 0.33200 -0.10500
O 	O 	0.13880 0.83320 0.47460 -0.47200
O 	O 	0.10550 0.78420 0.31930 -0.49900
O 	O 	0.08350 0.43780 0.44840 -0.53900
O 	O 	0.95110 0.53420 0.31520 -0.44200
O 	O 	0.92660 0.32110 0.40670 -0.42400
O 	O 	0.24010 0.94270 0.40820 -0.44700
Zn	Zn	0.63532 0.11889 0.52182 1.23500
P 	P 	0.49248 0.89687 0.37625 0.46300
H 	H 	0.60500 0.51800 0.37200 -0.05300
P 	P 	0.64664 0.39415 0.39384 0.51300
H 	H 	0.51000 0.78100 0.33200 -0.03000
O 	O 	0.63880 0.33320 0.47460 -0.45500
O 	O 	0.60550 0.28420 0.31930 -0.47500
O 	O 	0.58350 0.93780 0.44840 -0.47000
O 	O 	0.45110 0.03420 0.31520 -0.46600
O 	O 	0.42660 0.82110 0.40670 -0.43300
O 	O 	0.74010 0.44270 0.40820 -0.44000
Zn	Zn	0.13532 0.38111 0.02182 1.23100
P 	P 	0.99248 0.60313 0.87625 0.58700
H 	H 	0.10500 0.98200 0.87200 -0.06800
P 	P 	0.14664 0.10585 0.89384 0.51100
H 	H 	0.01000 0.71900 0.83200 -0.10000
O 	O 	0.13880 0.16680 0.97460 -0.47300
O 	O 	0.10550 0.21580 0.81930 -0.49800
O 	O 	0.08350 0.56220 0.94840 -0.53500
O 	O 	0.95110 0.46580 0.81520 -0.44400
O 	O 	0.92660 0.67890 0.90670 -0.42700
O 	O 	0.24010 0.05730 0.90820 -0.44800
Zn	Zn	0.63532 0.88111 0.02182 1.23700
P 	P 	0.49248 0.10313 0.87625 0.46300
H 	H 	0.60500 0.48200 0.87200 -0.05400
P 	P 	0.64664 0.60585 0.89384 0.51300
H 	H 	0.51000 0.21900 0.83200 -0.03100
O 	O 	0.63880 0.66680 0.97460 -0.45900
O 	O 	0.60550 0.71580 0.81930 -0.47600
O 	O 	0.58350 0.06220 0.94840 -0.47400
O 	O 	0.45110 0.96580 0.81520 -0.46700
O 	O 	0.42660 0.17890 0.90670 -0.43500
O 	O 	0.74010 0.55730 0.90820 -0.44300
Zn	Zn	0.86468 0.38111 0.47818 1.23900
P 	P 	0.00752 0.60313 0.62375 0.33500
H 	H 	0.89500 0.98200 0.62800 -0.03800
P 	P 	0.85336 0.10585 0.60616 0.51100
H 	H 	0.99000 0.71900 0.66800 0.04300
O 	O 	0.86120 0.16680 0.52540 -0.43800
O 	O 	0.89450 0.21580 0.68070 -0.44500
O 	O 	0.91650 0.56220 0.55160 -0.40400
O 	O 	0.04890 0.46580 0.68480 -0.47700
O 	O 	0.07340 0.67890 0.59330 -0.44000
O 	O 	0.75990 0.05730 0.59180 -0.44000
Zn	Zn	0.36468 0.88111 0.47818 1.23400
P 	P 	0.50752 0.10313 0.62375 0.46400
H 	H 	0.39500 0.48200 0.62800 -0.05400
P 	P 	0.35336 0.60585 0.60616 0.51300
H 	H 	0.49000 0.21900 0.66800 -0.03000
O 	O 	0.36120 0.66680 0.52540 -0.45700
O 	O 	0.39450 0.71580 0.68070 -0.47800
O 	O 	0.41650 0.06220 0.55160 -0.47300
O 	O 	0.54890 0.96580 0.68480 -0.46500
O 	O 	0.57340 0.17890 0.59330 -0.43100
O 	O 	0.25990 0.55730 0.59180 -0.44600
Zn	Zn	0.00000 0.66137 0.25000 1.20700
Zn	Zn	0.50000 0.16137 0.25000 1.23600
Zn	Zn	0.00000 0.33863 0.75000 1.20800
Zn	Zn	0.50000 0.83863 0.75000 1.23600
