data_crystal

_cell_length_a 12.60600
_cell_length_b 12.60600
_cell_length_c 19.66800
_cell_angle_alpha 90.00000
_cell_angle_beta  90.00000
_cell_angle_gamma 120.00000

_symmetry_space_group_name_	'P 1'
_symmetry_space_group_name_H-M	'P 1'

loop_
_symmetry_equiv_pos_as_xyz
  x,y,z

loop_
_atom_site_label
_atom_site_type_symbol
_atom_site_fract_x
_atom_site_fract_y
_atom_site_fract_z
_atom_site_charge
Na	Na	0.68830 0.17800 0.56747 0.57000
Na	Na	0.19940 0.02620 0.53480 0.49200
Na	Na	0.48970 0.31170 0.56747 0.56900
Na	Na	0.82680 0.80060 0.53480 0.49100
Na	Na	0.82200 0.51030 0.56747 0.56900
Na	Na	0.97380 0.17320 0.53480 0.49100
Na	Na	0.31170 0.82200 0.06747 0.56800
Na	Na	0.80060 0.97380 0.03480 0.49000
Na	Na	0.51030 0.68830 0.06747 0.56900
Na	Na	0.17320 0.19940 0.03480 0.49100
Na	Na	0.17800 0.48970 0.06747 0.56800
Na	Na	0.02620 0.82680 0.03480 0.48900
Na	Na	0.31170 0.82200 0.43253 0.56900
Na	Na	0.80060 0.97380 0.46520 0.49100
Na	Na	0.51030 0.68830 0.43253 0.56900
Na	Na	0.17320 0.19940 0.46520 0.49100
Na	Na	0.17800 0.48970 0.43253 0.56900
Na	Na	0.02620 0.82680 0.46520 0.49100
Na	Na	0.68830 0.17800 0.93253 0.56800
Na	Na	0.19940 0.02620 0.96520 0.49000
Na	Na	0.48970 0.31170 0.93253 0.56900
Na	Na	0.82680 0.80060 0.96520 0.49100
Na	Na	0.82200 0.51030 0.93253 0.56800
Na	Na	0.97380 0.17320 0.96520 0.48900
Ni	Ni	0.66667 0.33334 0.42343 1.07900
Ni	Ni	0.33333 0.66666 0.92343 1.07900
Ni	Ni	0.33333 0.66666 0.57657 1.07900
Ni	Ni	0.66667 0.33334 0.07657 1.07900
H 	H 	0.82720 0.17070 0.35190 0.02600
H 	H 	0.34350 0.17280 0.35190 0.02600
H 	H 	0.82930 0.65650 0.35190 0.02600
H 	H 	0.17280 0.82930 0.85190 0.02700
H 	H 	0.65650 0.82720 0.85190 0.02600
H 	H 	0.17070 0.34350 0.85190 0.02600
H 	H 	0.17280 0.82930 0.64810 0.02600
H 	H 	0.65650 0.82720 0.64810 0.02600
H 	H 	0.17070 0.34350 0.64810 0.02600
H 	H 	0.82720 0.17070 0.14810 0.02700
H 	H 	0.34350 0.17280 0.14810 0.02600
H 	H 	0.82930 0.65650 0.14810 0.02600
H 	H 	0.54550 0.15210 0.25000 0.12900
H 	H 	0.92030 0.17770 0.25000 -0.08700
H 	H 	0.60660 0.45450 0.25000 0.12900
H 	H 	0.25740 0.07970 0.25000 -0.08800
H 	H 	0.84790 0.39340 0.25000 0.12900
H 	H 	0.82230 0.74260 0.25000 -0.08900
H 	H 	0.45450 0.84790 0.75000 0.12900
H 	H 	0.07970 0.82230 0.75000 -0.08700
H 	H 	0.39340 0.54550 0.75000 0.12900
H 	H 	0.74260 0.92030 0.75000 -0.08800
H 	H 	0.15210 0.60660 0.75000 0.12900
H 	H 	0.17770 0.25740 0.75000 -0.08900
C 	C 	0.47110 0.09830 0.46030 0.28900
C 	C 	0.53000 0.07720 0.39550 0.07200
C 	C 	0.67820 0.16470 0.31120 0.18400
C 	C 	0.78930 0.16960 0.31110 -0.24400
C 	C 	0.62720 0.52890 0.46030 0.29000
C 	C 	0.54720 0.47000 0.39550 0.07000
C 	C 	0.48650 0.32180 0.31120 0.18400
C 	C 	0.38030 0.21070 0.31110 -0.24400
C 	C 	0.90170 0.37280 0.46030 0.28900
C 	C 	0.92280 0.45280 0.39550 0.07200
C 	C 	0.83530 0.51350 0.31120 0.18400
C 	C 	0.83040 0.61970 0.31110 -0.24400
C 	C 	0.52890 0.90170 0.96030 0.28900
C 	C 	0.47000 0.92280 0.89550 0.07600
C 	C 	0.32180 0.83530 0.81120 0.18500
C 	C 	0.21070 0.83040 0.81110 -0.24400
C 	C 	0.37280 0.47110 0.96030 0.29000
C 	C 	0.45280 0.53000 0.89550 0.07000
C 	C 	0.51350 0.67820 0.81120 0.18400
C 	C 	0.61970 0.78930 0.81110 -0.24400
C 	C 	0.09830 0.62720 0.96030 0.28800
C 	C 	0.07720 0.54720 0.89550 0.07600
C 	C 	0.16470 0.48650 0.81120 0.18500
C 	C 	0.16960 0.38030 0.81110 -0.24400
C 	C 	0.52890 0.90170 0.53970 0.28900
C 	C 	0.47000 0.92280 0.60450 0.07200
C 	C 	0.32180 0.83530 0.68880 0.18400
C 	C 	0.21070 0.83040 0.68890 -0.24400
C 	C 	0.37280 0.47110 0.53970 0.29000
C 	C 	0.45280 0.53000 0.60450 0.07000
C 	C 	0.51350 0.67820 0.68880 0.18400
C 	C 	0.61970 0.78930 0.68890 -0.24400
C 	C 	0.09830 0.62720 0.53970 0.28900
C 	C 	0.07720 0.54720 0.60450 0.07200
C 	C 	0.16470 0.48650 0.68880 0.18400
C 	C 	0.16960 0.38030 0.68890 -0.24400
C 	C 	0.47110 0.09830 0.03970 0.28900
C 	C 	0.53000 0.07720 0.10450 0.07600
C 	C 	0.67820 0.16470 0.18880 0.18500
C 	C 	0.78930 0.16960 0.18890 -0.24400
C 	C 	0.62720 0.52890 0.03970 0.29000
C 	C 	0.54720 0.47000 0.10450 0.07000
C 	C 	0.48650 0.32180 0.18880 0.18400
C 	C 	0.38030 0.21070 0.18890 -0.24400
C 	C 	0.90170 0.37280 0.03970 0.28800
C 	C 	0.92280 0.45280 0.10450 0.07600
C 	C 	0.83530 0.51350 0.18880 0.18500
C 	C 	0.83040 0.61970 0.18890 -0.24400
C 	C 	0.62270 0.15950 0.25000 -0.26800
C 	C 	0.84430 0.17300 0.25000 0.10900
C 	C 	0.53680 0.37730 0.25000 -0.26700
C 	C 	0.32870 0.15570 0.25000 0.10800
C 	C 	0.84050 0.46320 0.25000 -0.26800
C 	C 	0.82700 0.67130 0.25000 0.10900
C 	C 	0.37730 0.84050 0.75000 -0.26800
C 	C 	0.15570 0.82700 0.75000 0.10900
C 	C 	0.46320 0.62270 0.75000 -0.26700
C 	C 	0.67130 0.84430 0.75000 0.10800
C 	C 	0.15950 0.53680 0.75000 -0.26800
C 	C 	0.17300 0.32870 0.75000 0.10900
N 	N 	0.62490 0.17350 0.37340 -0.27000
N 	N 	0.54860 0.37510 0.37340 -0.27000
N 	N 	0.82650 0.45140 0.37340 -0.27000
N 	N 	0.37510 0.82650 0.87340 -0.27100
N 	N 	0.45140 0.62490 0.87340 -0.27000
N 	N 	0.17350 0.54860 0.87340 -0.27100
N 	N 	0.37510 0.82650 0.62660 -0.27000
N 	N 	0.45140 0.62490 0.62660 -0.27000
N 	N 	0.17350 0.54860 0.62660 -0.27000
N 	N 	0.62490 0.17350 0.12660 -0.27100
N 	N 	0.54860 0.37510 0.12660 -0.27000
N 	N 	0.82650 0.45140 0.12660 -0.27100
O 	O 	0.52890 0.20320 0.48710 -0.52400
O 	O 	0.37250 0.01310 0.48040 -0.49000
O 	O 	0.47730 0.96730 0.37250 -0.29600
O 	O 	0.67430 0.47110 0.48710 -0.52500
O 	O 	0.64060 0.62750 0.48040 -0.49100
O 	O 	0.49000 0.52270 0.37250 -0.29400
O 	O 	0.79680 0.32570 0.48710 -0.52400
O 	O 	0.98690 0.35940 0.48040 -0.49000
O 	O 	0.03270 0.51000 0.37250 -0.29600
O 	O 	0.47110 0.79680 0.98710 -0.52300
O 	O 	0.62750 0.98690 0.98040 -0.48800
O 	O 	0.52270 0.03270 0.87250 -0.30000
O 	O 	0.32570 0.52890 0.98710 -0.52400
O 	O 	0.35940 0.37250 0.98040 -0.49100
O 	O 	0.51000 0.47730 0.87250 -0.29400
O 	O 	0.20320 0.67430 0.98710 -0.52200
O 	O 	0.01310 0.64060 0.98040 -0.48600
O 	O 	0.96730 0.49000 0.87250 -0.30000
O 	O 	0.47110 0.79680 0.51290 -0.52400
O 	O 	0.62750 0.98690 0.51960 -0.49000
O 	O 	0.52270 0.03270 0.62750 -0.29600
O 	O 	0.32570 0.52890 0.51290 -0.52500
O 	O 	0.35940 0.37250 0.51960 -0.49100
O 	O 	0.51000 0.47730 0.62750 -0.29400
O 	O 	0.20320 0.67430 0.51290 -0.52400
O 	O 	0.01310 0.64060 0.51960 -0.49000
O 	O 	0.96730 0.49000 0.62750 -0.29600
O 	O 	0.52890 0.20320 0.01290 -0.52300
O 	O 	0.37250 0.01310 0.01960 -0.48800
O 	O 	0.47730 0.96730 0.12750 -0.30000
O 	O 	0.67430 0.47110 0.01290 -0.52400
O 	O 	0.64060 0.62750 0.01960 -0.49100
O 	O 	0.49000 0.52270 0.12750 -0.29400
O 	O 	0.79680 0.32570 0.01290 -0.52200
O 	O 	0.98690 0.35940 0.01960 -0.48600
O 	O 	0.03270 0.51000 0.12750 -0.30000
O 	O 	0.66667 0.33334 0.64550 -0.32400
O 	O 	0.33333 0.66666 0.14550 -0.32600
O 	O 	0.33333 0.66666 0.35450 -0.32400
O 	O 	0.66667 0.33334 0.85450 -0.32600
