data_crystal

_cell_length_a 21.56090
_cell_length_b 21.56090
_cell_length_c 11.36770
_cell_angle_alpha 90.00000
_cell_angle_beta  90.00000
_cell_angle_gamma 90.00000

_symmetry_space_group_name_	'P 1'
_symmetry_space_group_name_H-M	'P 1'

loop_
_symmetry_equiv_pos_as_xyz
  x,y,z

loop_
_atom_site_label
_atom_site_type_symbol
_atom_site_fract_x
_atom_site_fract_y
_atom_site_fract_z
_atom_site_charge
Mo	Mo	0.38398 0.46513 0.21632 1.12600
Mo	Mo	0.45187 0.35886 0.14452 1.15600
P 	P 	0.29071 0.43888 0.44356 0.40500
P 	P 	0.26492 0.54434 0.27797 0.40600
S 	S 	0.46571 0.41754 0.31401 -0.43200
S 	S 	0.35522 0.39140 0.07771 -0.50000
O 	O 	0.42432 0.51631 0.13359 -0.49700
O 	O 	0.37262 0.51664 0.36845 -0.29900
O 	O 	0.29780 0.50710 0.18088 -0.40400
O 	O 	0.31483 0.40490 0.33481 -0.41500
O 	O 	0.49800 0.39625 0.04839 -0.48700
O 	O 	0.22003 0.43246 0.45787 -0.36200
O 	O 	0.19699 0.52336 0.28651 -0.35200
O 	O 	0.39388 0.29751 0.28164 -1.54900
H 	H 	0.36260 0.31550 0.30100 0.60900
H 	H 	0.38700 0.26720 0.26300 0.82000
O 	O 	0.32264 0.42104 0.55676 -0.28400
O 	O 	0.27030 0.61319 0.26328 -0.24100
C 	C 	0.30951 0.51959 0.40761 -0.03200
C 	C 	0.30867 0.56493 0.51157 -0.03600
H 	H 	0.33590 0.54850 0.57450 0.03700
H 	H 	0.32620 0.60510 0.48540 0.05300
N 	N 	0.24675 0.57580 0.56070 -0.11900
C 	C 	0.20267 0.61709 0.51987 -0.01400
H 	H 	0.20610 0.64310 0.45270 0.05000
C 	C 	0.15366 0.61342 0.59398 0.04400
H 	H 	0.11620 0.63650 0.58920 0.02400
C 	C 	0.22471 0.54835 0.65585 0.10900
H 	H 	0.24570 0.51810 0.70160 -0.04300
N 	N 	0.16835 0.57019 0.67668 -0.19800
H 	H 	0.14410 0.55850 0.73500 0.09200
Rb	Rb	0.56515 0.51654 0.13187 0.65300
Rb	Rb	0.46899 0.28601 0.50311 0.66400
Mo	Mo	0.11602 0.03487 0.21632 1.12500
Mo	Mo	0.04813 0.14114 0.14452 1.15700
P 	P 	0.20929 0.06112 0.44356 0.40400
P 	P 	0.23508 0.95566 0.27797 0.40700
S 	S 	0.03429 0.08246 0.31401 -0.43500
S 	S 	0.14478 0.10860 0.07771 -0.50000
O 	O 	0.07568 0.98369 0.13359 -0.49200
O 	O 	0.12738 0.98336 0.36845 -0.29600
O 	O 	0.20220 0.99290 0.18088 -0.40100
O 	O 	0.18517 0.09510 0.33481 -0.41500
O 	O 	0.00200 0.10375 0.04839 -0.48700
O 	O 	0.27997 0.06754 0.45787 -0.36100
O 	O 	0.30301 0.97664 0.28651 -0.35000
O 	O 	0.10612 0.20249 0.28164 -1.54900
H 	H 	0.13740 0.18450 0.30100 0.61000
H 	H 	0.11300 0.23280 0.26300 0.82100
O 	O 	0.17736 0.07896 0.55676 -0.28400
O 	O 	0.22970 0.88681 0.26328 -0.24000
C 	C 	0.19049 0.98041 0.40761 -0.03000
C 	C 	0.19133 0.93507 0.51157 -0.03700
H 	H 	0.16410 0.95150 0.57450 0.03800
H 	H 	0.17380 0.89490 0.48540 0.05300
N 	N 	0.25325 0.92420 0.56070 -0.11800
C 	C 	0.29733 0.88291 0.51987 -0.01400
H 	H 	0.29390 0.85690 0.45270 0.05000
C 	C 	0.34634 0.88658 0.59398 0.04500
H 	H 	0.38380 0.86350 0.58920 0.02400
C 	C 	0.27529 0.95165 0.65585 0.10900
H 	H 	0.25430 0.98190 0.70160 -0.04200
N 	N 	0.33165 0.92981 0.67668 -0.19800
H 	H 	0.35590 0.94150 0.73500 0.09200
Rb	Rb	0.93485 0.98346 0.13187 0.65100
Rb	Rb	0.03101 0.21399 0.50311 0.66300
Mo	Mo	0.53487 0.88398 0.71632 1.12700
Mo	Mo	0.64114 0.95187 0.64452 1.15700
P 	P 	0.56112 0.79071 0.94356 0.40700
P 	P 	0.45566 0.76492 0.77797 0.40700
S 	S 	0.58246 0.96571 0.81401 -0.43100
S 	S 	0.60860 0.85522 0.57771 -0.50000
O 	O 	0.48369 0.92432 0.63359 -0.49600
O 	O 	0.48336 0.87262 0.86845 -0.29800
O 	O 	0.49290 0.79780 0.68088 -0.40400
O 	O 	0.59510 0.81483 0.83481 -0.41400
O 	O 	0.60375 0.99800 0.54839 -0.48600
O 	O 	0.56754 0.72003 0.95787 -0.36100
O 	O 	0.47664 0.69699 0.78651 -0.35100
O 	O 	0.70249 0.89388 0.78164 -1.54900
H 	H 	0.68450 0.86260 0.80100 0.61000
H 	H 	0.73280 0.88700 0.76300 0.82100
O 	O 	0.57896 0.82264 0.05676 -0.28300
O 	O 	0.38681 0.77030 0.76328 -0.24000
C 	C 	0.48041 0.80951 0.90761 -0.03300
C 	C 	0.43507 0.80867 0.01157 -0.03600
H 	H 	0.45150 0.83590 0.07450 0.03700
H 	H 	0.39490 0.82620 0.98540 0.05300
N 	N 	0.42420 0.74675 0.06070 -0.11900
C 	C 	0.38291 0.70267 0.01987 -0.01300
H 	H 	0.35690 0.70610 0.95270 0.04900
C 	C 	0.38658 0.65366 0.09398 0.04400
H 	H 	0.36350 0.61620 0.08920 0.02500
C 	C 	0.45165 0.72471 0.15585 0.10900
H 	H 	0.48190 0.74570 0.20160 -0.04300
N 	N 	0.42981 0.66835 0.17668 -0.19800
H 	H 	0.44150 0.64410 0.23500 0.09200
Rb	Rb	0.48346 0.06515 0.63187 0.65300
Rb	Rb	0.71399 0.96899 0.00311 0.66300
Mo	Mo	0.96513 0.61602 0.71632 1.12700
Mo	Mo	0.85886 0.54813 0.64452 1.15700
P 	P 	0.93888 0.70929 0.94356 0.40700
P 	P 	0.04434 0.73508 0.77797 0.40700
S 	S 	0.91754 0.53429 0.81401 -0.43000
S 	S 	0.89140 0.64478 0.57771 -0.50000
O 	O 	0.01631 0.57568 0.63359 -0.49600
O 	O 	0.01664 0.62738 0.86845 -0.29800
O 	O 	0.00710 0.70220 0.68088 -0.40200
O 	O 	0.90490 0.68517 0.83481 -0.41400
O 	O 	0.89625 0.50200 0.54839 -0.48500
O 	O 	0.93246 0.77997 0.95787 -0.36100
O 	O 	0.02336 0.80301 0.78651 -0.34900
O 	O 	0.79751 0.60612 0.78164 -1.54800
H 	H 	0.81550 0.63740 0.80100 0.61000
H 	H 	0.76720 0.61300 0.76300 0.82100
O 	O 	0.92104 0.67736 0.05676 -0.28500
O 	O 	0.11319 0.72970 0.76328 -0.24000
C 	C 	0.01959 0.69049 0.90761 -0.03400
C 	C 	0.06493 0.69133 0.01157 -0.03100
H 	H 	0.04850 0.66410 0.07450 0.03600
H 	H 	0.10510 0.67380 0.98540 0.05000
N 	N 	0.07580 0.75325 0.06070 -0.11900
C 	C 	0.11709 0.79733 0.01987 -0.01100
H 	H 	0.14310 0.79390 0.95270 0.04800
C 	C 	0.11342 0.84634 0.09398 0.04400
H 	H 	0.13650 0.88380 0.08920 0.02500
C 	C 	0.04835 0.77529 0.15585 0.11000
H 	H 	0.01810 0.75430 0.20160 -0.04200
N 	N 	0.07019 0.83165 0.17668 -0.19800
H 	H 	0.05850 0.85590 0.23500 0.09300
Rb	Rb	0.01654 0.43485 0.63187 0.65300
Rb	Rb	0.78601 0.53101 0.00311 0.66300
Mo	Mo	0.61602 0.53487 0.78368 1.12700
Mo	Mo	0.54813 0.64114 0.85548 1.15700
P 	P 	0.70929 0.56112 0.55644 0.40600
P 	P 	0.73508 0.45566 0.72203 0.40700
S 	S 	0.53429 0.58246 0.68599 -0.43100
S 	S 	0.64478 0.60860 0.92229 -0.49900
O 	O 	0.57568 0.48369 0.86641 -0.49600
O 	O 	0.62738 0.48336 0.63155 -0.29800
O 	O 	0.70220 0.49290 0.81912 -0.40300
O 	O 	0.68517 0.59510 0.66519 -0.41400
O 	O 	0.50200 0.60375 0.95161 -0.48600
O 	O 	0.77997 0.56754 0.54213 -0.36100
O 	O 	0.80301 0.47664 0.71349 -0.35100
O 	O 	0.60612 0.70249 0.71836 -1.54800
H 	H 	0.63740 0.68450 0.69900 0.61000
H 	H 	0.61300 0.73280 0.73700 0.82100
O 	O 	0.67736 0.57896 0.44324 -0.28300
O 	O 	0.72970 0.38681 0.73672 -0.24000
C 	C 	0.69049 0.48041 0.59239 -0.03200
C 	C 	0.69133 0.43507 0.48843 -0.03600
H 	H 	0.66410 0.45150 0.42550 0.03700
H 	H 	0.67380 0.39490 0.51460 0.05300
N 	N 	0.75325 0.42420 0.43930 -0.11900
C 	C 	0.79733 0.38291 0.48013 -0.01400
H 	H 	0.79390 0.35690 0.54730 0.05000
C 	C 	0.84634 0.38658 0.40602 0.04400
H 	H 	0.88380 0.36350 0.41080 0.02400
C 	C 	0.77529 0.45165 0.34415 0.10900
H 	H 	0.75430 0.48190 0.29840 -0.04300
N 	N 	0.83165 0.42981 0.32332 -0.19800
H 	H 	0.85590 0.44150 0.26500 0.09200
Rb	Rb	0.43485 0.48346 0.86813 0.65300
Rb	Rb	0.53101 0.71399 0.49689 0.66400
Mo	Mo	0.88398 0.96513 0.78368 1.12500
Mo	Mo	0.95187 0.85886 0.85548 1.15700
P 	P 	0.79071 0.93888 0.55644 0.40400
P 	P 	0.76492 0.04434 0.72203 0.40700
S 	S 	0.96571 0.91754 0.68599 -0.43500
S 	S 	0.85522 0.89139 0.92229 -0.50000
O 	O 	0.92432 0.01631 0.86641 -0.49200
O 	O 	0.87262 0.01664 0.63155 -0.29600
O 	O 	0.79780 0.00710 0.81912 -0.40100
O 	O 	0.81483 0.90490 0.66519 -0.41500
O 	O 	0.99800 0.89625 0.95161 -0.48700
O 	O 	0.72003 0.93246 0.54213 -0.36100
O 	O 	0.69699 0.02336 0.71349 -0.35000
O 	O 	0.89388 0.79751 0.71836 -1.54900
H 	H 	0.86260 0.81550 0.69900 0.61000
H 	H 	0.88700 0.76720 0.73700 0.82100
O 	O 	0.82264 0.92104 0.44324 -0.28400
O 	O 	0.77030 0.11319 0.73672 -0.24000
C 	C 	0.80951 0.01959 0.59239 -0.03000
C 	C 	0.80867 0.06493 0.48843 -0.03700
H 	H 	0.83590 0.04850 0.42550 0.03800
H 	H 	0.82620 0.10510 0.51460 0.05300
N 	N 	0.74675 0.07580 0.43930 -0.11800
C 	C 	0.70267 0.11709 0.48013 -0.01400
H 	H 	0.70610 0.14310 0.54730 0.05000
C 	C 	0.65366 0.11342 0.40602 0.04500
H 	H 	0.61620 0.13650 0.41080 0.02400
C 	C 	0.72471 0.04835 0.34415 0.10900
H 	H 	0.74570 0.01810 0.29840 -0.04200
N 	N 	0.66835 0.07019 0.32332 -0.19800
H 	H 	0.64410 0.05850 0.26500 0.09200
Rb	Rb	0.06515 0.01654 0.86813 0.65100
Rb	Rb	0.96899 0.78601 0.49689 0.66300
Mo	Mo	0.46513 0.11602 0.28368 1.12700
Mo	Mo	0.35886 0.04813 0.35548 1.15700
P 	P 	0.43888 0.20929 0.05644 0.40700
P 	P 	0.54434 0.23508 0.22203 0.40700
S 	S 	0.41754 0.03429 0.18599 -0.43100
S 	S 	0.39140 0.14478 0.42229 -0.50000
O 	O 	0.51631 0.07568 0.36641 -0.49600
O 	O 	0.51664 0.12738 0.13155 -0.29800
O 	O 	0.50710 0.20220 0.31912 -0.40400
O 	O 	0.40490 0.18517 0.16519 -0.41400
O 	O 	0.39625 0.00200 0.45161 -0.48600
O 	O 	0.43246 0.27997 0.04213 -0.36100
O 	O 	0.52336 0.30301 0.21349 -0.35100
O 	O 	0.29751 0.10612 0.21836 -1.54900
H 	H 	0.31550 0.13740 0.19900 0.61000
H 	H 	0.26720 0.11300 0.23700 0.82100
O 	O 	0.42104 0.17736 0.94324 -0.28300
O 	O 	0.61319 0.22970 0.23672 -0.24000
C 	C 	0.51959 0.19049 0.09239 -0.03300
C 	C 	0.56493 0.19133 0.98843 -0.03600
H 	H 	0.54850 0.16410 0.92550 0.03700
H 	H 	0.60510 0.17380 0.01460 0.05300
N 	N 	0.57580 0.25325 0.93930 -0.11900
C 	C 	0.61709 0.29733 0.98013 -0.01300
H 	H 	0.64310 0.29390 0.04730 0.04900
C 	C 	0.61342 0.34634 0.90602 0.04400
H 	H 	0.63650 0.38380 0.91080 0.02500
C 	C 	0.54835 0.27529 0.84415 0.10900
H 	H 	0.51810 0.25430 0.79840 -0.04300
N 	N 	0.57019 0.33165 0.82332 -0.19800
H 	H 	0.55850 0.35590 0.76500 0.09200
Rb	Rb	0.51654 0.93485 0.36813 0.65300
Rb	Rb	0.28601 0.03101 0.99689 0.66300
Mo	Mo	0.03487 0.38398 0.28368 1.12700
Mo	Mo	0.14114 0.45187 0.35548 1.15700
P 	P 	0.06112 0.29071 0.05644 0.40700
P 	P 	0.95566 0.26492 0.22203 0.40700
S 	S 	0.08246 0.46571 0.18599 -0.43000
S 	S 	0.10860 0.35522 0.42229 -0.50000
O 	O 	0.98369 0.42432 0.36641 -0.49600
O 	O 	0.98336 0.37262 0.13155 -0.29800
O 	O 	0.99290 0.29780 0.31912 -0.40200
O 	O 	0.09510 0.31483 0.16519 -0.41400
O 	O 	0.10375 0.49800 0.45161 -0.48500
O 	O 	0.06754 0.22003 0.04213 -0.36100
O 	O 	0.97664 0.19699 0.21349 -0.34900
O 	O 	0.20249 0.39388 0.21836 -1.54800
H 	H 	0.18450 0.36260 0.19900 0.61000
H 	H 	0.23280 0.38700 0.23700 0.82100
O 	O 	0.07896 0.32264 0.94324 -0.28500
O 	O 	0.88681 0.27030 0.23672 -0.24000
C 	C 	0.98041 0.30951 0.09239 -0.03400
C 	C 	0.93507 0.30867 0.98843 -0.03100
H 	H 	0.95150 0.33590 0.92550 0.03600
H 	H 	0.89490 0.32620 0.01460 0.05000
N 	N 	0.92420 0.24675 0.93930 -0.11900
C 	C 	0.88291 0.20267 0.98013 -0.01100
H 	H 	0.85690 0.20610 0.04730 0.04800
C 	C 	0.88658 0.15366 0.90602 0.04400
H 	H 	0.86350 0.11620 0.91080 0.02500
C 	C 	0.95165 0.22471 0.84415 0.11000
H 	H 	0.98190 0.24570 0.79840 -0.04200
N 	N 	0.92981 0.16835 0.82332 -0.19800
H 	H 	0.94150 0.14410 0.76500 0.09300
Rb	Rb	0.98346 0.56515 0.36813 0.65300
Rb	Rb	0.21399 0.46899 0.99689 0.66300
