data_crystal

_cell_length_a 22.52100
_cell_length_b 22.52100
_cell_length_c 22.52100
_cell_angle_alpha 90.00000
_cell_angle_beta  90.00000
_cell_angle_gamma 90.00000

_symmetry_space_group_name_	'P 1'
_symmetry_space_group_name_H-M	'P 1'

loop_
_symmetry_equiv_pos_as_xyz
  x,y,z

loop_
_atom_site_label
_atom_site_type_symbol
_atom_site_fract_x
_atom_site_fract_y
_atom_site_fract_z
_atom_site_charge
Cd	Cd	0.28534 0.28534 0.71466 1.22400
Cd	Cd	0.71466 0.71466 0.71466 1.22600
Cd	Cd	0.71466 0.28534 0.28534 1.22400
Cd	Cd	0.28534 0.71466 0.28534 1.22400
Cd	Cd	0.28534 0.28534 0.28534 1.22200
Cd	Cd	0.71466 0.71466 0.28534 1.22500
Cd	Cd	0.28534 0.71466 0.71466 1.22500
Cd	Cd	0.71466 0.28534 0.71466 1.22500
Cd	Cd	0.00000 0.00000 0.53800 1.00700
Cd	Cd	-0.00000 -0.00000 0.46200 1.00600
Cd	Cd	0.53800 0.00000 -0.00000 1.00700
Cd	Cd	0.46200 0.00000 -0.00000 1.00700
Cd	Cd	-0.00000 0.53800 -0.00000 1.00800
Cd	Cd	-0.00000 0.46200 -0.00000 1.00700
N 	N 	0.00000 0.09570 0.50000 -0.38100
N 	N 	0.00000 0.90430 0.50000 -0.36700
N 	N 	0.50000 -0.00000 0.09570 -0.38100
N 	N 	0.50000 -0.00000 0.90430 -0.36700
N 	N 	0.09570 0.50000 -0.00000 -0.38100
N 	N 	0.90430 0.50000 -0.00000 -0.36700
N 	N 	0.09570 0.00000 0.50000 -0.38100
N 	N 	0.90430 0.00000 0.50000 -0.36700
N 	N 	-0.00000 0.50000 0.90430 -0.36700
N 	N 	0.00000 0.50000 0.09570 -0.38100
N 	N 	0.50000 0.09570 -0.00000 -0.38100
N 	N 	0.50000 0.90430 -0.00000 -0.36700
O 	O 	0.22510 0.22510 0.65540 -0.43200
C 	C 	0.22160 0.22160 0.55300 -0.07700
C 	C 	0.17770 0.17770 0.55310 -0.06500
H 	H 	0.16320 0.16320 0.58890 0.05500
O 	O 	0.28290 0.28290 0.60760 -0.37800
C 	C 	0.24450 0.24450 0.61060 0.36300
O 	O 	0.77490 0.77490 0.65540 -0.41600
C 	C 	0.77840 0.77840 0.55300 -0.06500
C 	C 	0.82230 0.82230 0.55310 -0.06500
H 	H 	0.83680 0.83680 0.58890 0.06700
O 	O 	0.71710 0.71710 0.60760 -0.37100
C 	C 	0.75550 0.75550 0.61060 0.36000
O 	O 	0.77490 0.22510 0.34460 -0.42800
C 	C 	0.77840 0.22160 0.44700 -0.07200
C 	C 	0.82230 0.17770 0.44690 -0.06400
H 	H 	0.83680 0.16320 0.41110 0.05900
O 	O 	0.71710 0.28290 0.39240 -0.37500
C 	C 	0.75550 0.24450 0.38940 0.36300
O 	O 	0.22510 0.77490 0.34460 -0.42800
C 	C 	0.22160 0.77840 0.44700 -0.07200
C 	C 	0.17770 0.82230 0.44690 -0.06400
H 	H 	0.16320 0.83680 0.41110 0.05900
O 	O 	0.28290 0.71710 0.39240 -0.37500
C 	C 	0.24450 0.75550 0.38940 0.36300
O 	O 	0.65540 0.22510 0.22510 -0.43200
C 	C 	0.55300 0.22160 0.22160 -0.07700
C 	C 	0.55310 0.17770 0.17770 -0.06500
H 	H 	0.58890 0.16320 0.16320 0.05500
O 	O 	0.60760 0.28290 0.28290 -0.37800
C 	C 	0.61060 0.24450 0.24450 0.36300
O 	O 	0.65540 0.77490 0.77490 -0.41600
C 	C 	0.55300 0.77840 0.77840 -0.06500
C 	C 	0.55310 0.82230 0.82230 -0.06500
H 	H 	0.58890 0.83680 0.83680 0.06700
O 	O 	0.60760 0.71710 0.71710 -0.37100
C 	C 	0.61060 0.75550 0.75550 0.36000
O 	O 	0.34460 0.77490 0.22510 -0.42800
C 	C 	0.44700 0.77840 0.22160 -0.07200
C 	C 	0.44690 0.82230 0.17770 -0.06400
H 	H 	0.41110 0.83680 0.16320 0.05900
O 	O 	0.39240 0.71710 0.28290 -0.37500
C 	C 	0.38940 0.75550 0.24450 0.36300
O 	O 	0.34460 0.22510 0.77490 -0.42800
C 	C 	0.44700 0.22160 0.77840 -0.07200
C 	C 	0.44690 0.17770 0.82230 -0.06400
H 	H 	0.41110 0.16320 0.83680 0.05900
O 	O 	0.39240 0.28290 0.71710 -0.37500
C 	C 	0.38940 0.24450 0.75550 0.36300
O 	O 	0.22510 0.65540 0.22510 -0.43200
C 	C 	0.22160 0.55300 0.22160 -0.07700
C 	C 	0.17770 0.55310 0.17770 -0.06500
H 	H 	0.16320 0.58890 0.16320 0.05500
O 	O 	0.28290 0.60760 0.28290 -0.37800
C 	C 	0.24450 0.61060 0.24450 0.36300
O 	O 	0.77490 0.65540 0.77490 -0.41600
C 	C 	0.77840 0.55300 0.77840 -0.06500
C 	C 	0.82230 0.55310 0.82230 -0.06500
H 	H 	0.83680 0.58890 0.83680 0.06700
O 	O 	0.71710 0.60760 0.71710 -0.37100
C 	C 	0.75550 0.61060 0.75550 0.36000
O 	O 	0.22510 0.34460 0.77490 -0.42800
C 	C 	0.22160 0.44700 0.77840 -0.07200
C 	C 	0.17770 0.44690 0.82230 -0.06400
H 	H 	0.16320 0.41110 0.83680 0.05900
O 	O 	0.28290 0.39240 0.71710 -0.37500
C 	C 	0.24450 0.38940 0.75550 0.36300
O 	O 	0.77490 0.34460 0.22510 -0.42800
C 	C 	0.77840 0.44700 0.22160 -0.07200
C 	C 	0.82230 0.44690 0.17770 -0.06400
H 	H 	0.83680 0.41110 0.16320 0.05900
O 	O 	0.71710 0.39240 0.28290 -0.37500
C 	C 	0.75550 0.38940 0.24450 0.36300
O 	O 	0.22510 0.22510 0.34460 -0.43600
C 	C 	0.22160 0.22160 0.44700 -0.07800
C 	C 	0.17770 0.17770 0.44690 -0.06400
H 	H 	0.16320 0.16320 0.41110 0.05300
O 	O 	0.28290 0.28290 0.39240 -0.37900
C 	C 	0.24450 0.24450 0.38940 0.36400
O 	O 	0.77490 0.77490 0.34460 -0.42000
C 	C 	0.77840 0.77840 0.44700 -0.06600
C 	C 	0.82230 0.82230 0.44690 -0.06400
H 	H 	0.83680 0.83680 0.41110 0.06500
O 	O 	0.71710 0.71710 0.39240 -0.37200
C 	C 	0.75550 0.75550 0.38940 0.36100
O 	O 	0.22510 0.77490 0.65540 -0.42400
C 	C 	0.22160 0.77840 0.55300 -0.07100
C 	C 	0.17770 0.82230 0.55310 -0.06500
H 	H 	0.16320 0.83680 0.58890 0.06100
O 	O 	0.28290 0.71710 0.60760 -0.37400
C 	C 	0.24450 0.75550 0.61060 0.36200
O 	O 	0.77490 0.22510 0.65540 -0.42400
C 	C 	0.77840 0.22160 0.55300 -0.07100
C 	C 	0.82230 0.17770 0.55310 -0.06500
H 	H 	0.83680 0.16320 0.58890 0.06100
O 	O 	0.71710 0.28290 0.60760 -0.37400
C 	C 	0.75550 0.24450 0.61060 0.36200
O 	O 	0.22510 0.65540 0.77490 -0.42400
C 	C 	0.22160 0.55300 0.77840 -0.07100
C 	C 	0.17770 0.55310 0.82230 -0.06500
H 	H 	0.16320 0.58890 0.83680 0.06100
O 	O 	0.28290 0.60760 0.71710 -0.37400
C 	C 	0.24450 0.61060 0.75550 0.36200
O 	O 	0.77490 0.65540 0.22510 -0.42400
C 	C 	0.77840 0.55300 0.22160 -0.07100
C 	C 	0.82230 0.55310 0.17770 -0.06500
H 	H 	0.83680 0.58890 0.16320 0.06100
O 	O 	0.71710 0.60760 0.28290 -0.37400
C 	C 	0.75550 0.61060 0.24450 0.36200
O 	O 	0.77490 0.34460 0.77490 -0.42000
C 	C 	0.77840 0.44700 0.77840 -0.06600
C 	C 	0.82230 0.44690 0.82230 -0.06400
H 	H 	0.83680 0.41110 0.83680 0.06500
O 	O 	0.71710 0.39240 0.71710 -0.37200
C 	C 	0.75550 0.38940 0.75550 0.36100
O 	O 	0.22510 0.34460 0.22510 -0.43600
C 	C 	0.22160 0.44700 0.22160 -0.07800
C 	C 	0.17770 0.44690 0.17770 -0.06400
H 	H 	0.16320 0.41110 0.16320 0.05300
O 	O 	0.28290 0.39240 0.28290 -0.37900
C 	C 	0.24450 0.38940 0.24450 0.36400
O 	O 	0.65540 0.22510 0.77490 -0.42400
C 	C 	0.55300 0.22160 0.77840 -0.07100
C 	C 	0.55310 0.17770 0.82230 -0.06500
H 	H 	0.58890 0.16320 0.83680 0.06100
O 	O 	0.60760 0.28290 0.71710 -0.37400
C 	C 	0.61060 0.24450 0.75550 0.36200
O 	O 	0.65540 0.77490 0.22510 -0.42400
C 	C 	0.55300 0.77840 0.22160 -0.07100
C 	C 	0.55310 0.82230 0.17770 -0.06500
H 	H 	0.58890 0.83680 0.16320 0.06100
O 	O 	0.60760 0.71710 0.28290 -0.37400
C 	C 	0.61060 0.75550 0.24450 0.36200
O 	O 	0.34460 0.22510 0.22510 -0.43600
C 	C 	0.44700 0.22160 0.22160 -0.07800
C 	C 	0.44690 0.17770 0.17770 -0.06400
H 	H 	0.41110 0.16320 0.16320 0.05300
O 	O 	0.39240 0.28290 0.28290 -0.37900
C 	C 	0.38940 0.24450 0.24450 0.36400
O 	O 	0.34460 0.77490 0.77490 -0.42000
C 	C 	0.44700 0.77840 0.77840 -0.06600
C 	C 	0.44690 0.82230 0.82230 -0.06400
H 	H 	0.41110 0.83680 0.83680 0.06500
O 	O 	0.39240 0.71710 0.71710 -0.37200
C 	C 	0.38940 0.75550 0.75550 0.36100
C 	C 	0.05090 0.13090 0.50000 0.06800
C 	C 	0.03010 0.19270 0.50000 -0.16300
H 	H 	0.05420 0.22620 0.50000 0.08000
C 	C 	0.94910 0.86910 0.50000 0.06900
C 	C 	0.96990 0.80730 0.50000 0.00100
H 	H 	0.94580 0.77380 0.50000 0.04200
C 	C 	0.94910 0.13090 0.50000 0.06600
C 	C 	0.96990 0.19270 0.50000 0.00200
H 	H 	0.94580 0.22620 0.50000 0.04100
C 	C 	0.05090 0.86910 0.50000 0.07200
C 	C 	0.03010 0.80730 0.50000 -0.15700
H 	H 	0.05420 0.77380 0.50000 0.08000
C 	C 	0.50000 0.05090 0.13090 0.06800
C 	C 	0.50000 0.03010 0.19270 -0.16300
H 	H 	0.50000 0.05420 0.22620 0.08000
C 	C 	0.50000 0.94910 0.86910 0.06900
C 	C 	0.50000 0.96990 0.80730 0.00100
H 	H 	0.50000 0.94580 0.77380 0.04200
C 	C 	0.50000 0.94910 0.13090 0.06600
C 	C 	0.50000 0.96990 0.19270 0.00200
H 	H 	0.50000 0.94580 0.22620 0.04100
C 	C 	0.50000 0.05090 0.86910 0.07200
C 	C 	0.50000 0.03010 0.80730 -0.15700
H 	H 	0.50000 0.05420 0.77380 0.08000
C 	C 	0.13090 0.50000 0.05090 0.06800
C 	C 	0.19270 0.50000 0.03010 -0.16300
H 	H 	0.22620 0.50000 0.05420 0.08000
C 	C 	0.86910 0.50000 0.94910 0.06900
C 	C 	0.80730 0.50000 0.96990 0.00100
H 	H 	0.77380 0.50000 0.94580 0.04200
C 	C 	0.13090 0.50000 0.94910 0.06600
C 	C 	0.19270 0.50000 0.96990 0.00200
H 	H 	0.22620 0.50000 0.94580 0.04100
C 	C 	0.86910 0.50000 0.05090 0.07200
C 	C 	0.80730 0.50000 0.03010 -0.15700
H 	H 	0.77380 0.50000 0.05420 0.08000
C 	C 	0.13090 0.05090 0.50000 0.06800
C 	C 	0.19270 0.03010 0.50000 -0.16300
H 	H 	0.22620 0.05420 0.50000 0.08000
C 	C 	0.86910 0.94910 0.50000 0.06900
C 	C 	0.80730 0.96990 0.50000 0.00100
H 	H 	0.77380 0.94580 0.50000 0.04200
C 	C 	0.13090 0.94910 0.50000 0.06600
C 	C 	0.19270 0.96990 0.50000 0.00200
H 	H 	0.22620 0.94580 0.50000 0.04100
C 	C 	0.86910 0.05090 0.50000 0.07200
C 	C 	0.80730 0.03010 0.50000 -0.15700
H 	H 	0.77380 0.05420 0.50000 0.08000
C 	C 	0.05090 0.50000 0.86910 0.07200
C 	C 	0.03010 0.50000 0.80730 -0.15700
H 	H 	0.05420 0.50000 0.77380 0.08000
C 	C 	0.94910 0.50000 0.13090 0.06600
C 	C 	0.96990 0.50000 0.19270 0.00200
H 	H 	0.94580 0.50000 0.22620 0.04100
C 	C 	0.94910 0.50000 0.86910 0.06900
C 	C 	0.96990 0.50000 0.80730 0.00100
H 	H 	0.94580 0.50000 0.77380 0.04200
C 	C 	0.05090 0.50000 0.13090 0.06800
C 	C 	0.03010 0.50000 0.19270 -0.16300
H 	H 	0.05420 0.50000 0.22620 0.08000
C 	C 	0.50000 0.13090 0.94910 0.06600
C 	C 	0.50000 0.19270 0.96990 0.00200
H 	H 	0.50000 0.22620 0.94580 0.04100
C 	C 	0.50000 0.86910 0.05090 0.07200
C 	C 	0.50000 0.80730 0.03010 -0.15700
H 	H 	0.50000 0.77380 0.05420 0.08000
C 	C 	0.50000 0.13090 0.05090 0.06800
C 	C 	0.50000 0.19270 0.03010 -0.16300
H 	H 	0.50000 0.22620 0.05420 0.08000
C 	C 	0.50000 0.86910 0.94910 0.06900
C 	C 	0.50000 0.80730 0.96990 0.00100
H 	H 	0.50000 0.77380 0.94580 0.04200
C 	C 	0.10910 0.10910 0.50000 -0.17000
C 	C 	0.15600 0.15600 0.50000 0.06300
C 	C 	0.24270 0.24270 0.50000 0.01100
H 	H 	0.27190 0.27190 0.50000 0.06400
C 	C 	0.89090 0.89090 0.50000 -0.14300
C 	C 	0.84400 0.84400 0.50000 0.06400
C 	C 	0.75730 0.75730 0.50000 0.00700
H 	H 	0.72810 0.72810 0.50000 0.06900
C 	C 	0.89090 0.10910 0.50000 -0.15600
C 	C 	0.84400 0.15600 0.50000 0.06400
C 	C 	0.75730 0.24270 0.50000 0.00900
H 	H 	0.72810 0.27190 0.50000 0.06600
C 	C 	0.10910 0.89090 0.50000 -0.15600
C 	C 	0.15600 0.84400 0.50000 0.06400
C 	C 	0.24270 0.75730 0.50000 0.00900
H 	H 	0.27190 0.72810 0.50000 0.06600
C 	C 	0.50000 0.10910 0.10910 -0.17000
C 	C 	0.50000 0.15600 0.15600 0.06300
C 	C 	0.50000 0.24270 0.24270 0.01100
H 	H 	0.50000 0.27190 0.27190 0.06400
C 	C 	0.50000 0.89090 0.89090 -0.14300
C 	C 	0.50000 0.84400 0.84400 0.06400
C 	C 	0.50000 0.75730 0.75730 0.00700
H 	H 	0.50000 0.72810 0.72810 0.06900
C 	C 	0.50000 0.89090 0.10910 -0.15600
C 	C 	0.50000 0.84400 0.15600 0.06400
C 	C 	0.50000 0.75730 0.24270 0.00900
H 	H 	0.50000 0.72810 0.27190 0.06600
C 	C 	0.50000 0.10910 0.89090 -0.15600
C 	C 	0.50000 0.15600 0.84400 0.06400
C 	C 	0.50000 0.24270 0.75730 0.00900
H 	H 	0.50000 0.27190 0.72810 0.06600
C 	C 	0.10910 0.50000 0.10910 -0.17000
C 	C 	0.15600 0.50000 0.15600 0.06300
C 	C 	0.24270 0.50000 0.24270 0.01100
H 	H 	0.27190 0.50000 0.27190 0.06400
C 	C 	0.89090 0.50000 0.89090 -0.14300
C 	C 	0.84400 0.50000 0.84400 0.06400
C 	C 	0.75730 0.50000 0.75730 0.00700
H 	H 	0.72810 0.50000 0.72810 0.06900
C 	C 	0.10910 0.50000 0.89090 -0.15600
C 	C 	0.15600 0.50000 0.84400 0.06400
C 	C 	0.24270 0.50000 0.75730 0.00900
H 	H 	0.27190 0.50000 0.72810 0.06600
C 	C 	0.89090 0.50000 0.10910 -0.15600
C 	C 	0.84400 0.50000 0.15600 0.06400
C 	C 	0.75730 0.50000 0.24270 0.00900
H 	H 	0.72810 0.50000 0.27190 0.06600
