data_crystal

_cell_length_a 15.13760
_cell_length_b 15.20920
_cell_length_c 26.30000
_cell_angle_alpha 73.27100
_cell_angle_beta  77.50800
_cell_angle_gamma 82.59600

_symmetry_space_group_name_	'P 1'
_symmetry_space_group_name_H-M	'P 1'

loop_
_symmetry_equiv_pos_as_xyz
  x,y,z

loop_
_atom_site_label
_atom_site_type_symbol
_atom_site_fract_x
_atom_site_fract_y
_atom_site_fract_z
_atom_site_charge
Zn	Zn	0.68199 0.25709 0.58084 1.21600
Zn	Zn	0.64653 0.20099 0.70098 1.21200
Mn	Mn	0.64323 0.26865 0.13389 -4.29800
Mn	Mn	0.63483 0.21559 0.15067 29.14600
Cl	Cl	0.64859 0.17638 0.15523 -43.22100
Cl	Cl	0.63770 0.05500 0.19920 8.39700
O 	O 	0.65444 0.34371 0.67865 -0.46700
O 	O 	0.65779 0.38663 0.59000 -0.44600
O 	O 	0.65018 0.06998 0.69013 -0.44200
O 	O 	0.70757 0.11372 0.60200 -0.46800
O 	O 	0.81474 0.26198 0.58887 -0.43800
O 	O 	0.78346 0.18827 0.67852 -0.46000
O 	O 	0.55018 0.23848 0.61138 -0.50000
O 	O 	0.51234 0.21667 0.69958 -0.47100
O 	O 	0.72226 0.20277 0.08449 4.14300
O 	O 	0.72728 0.25001 0.18117 1.82700
N 	N 	0.64924 0.18006 0.78220 -0.21100
N 	N 	0.53142 0.22361 0.11304 0.68200
N 	N 	0.53797 0.26638 0.20162 -0.06700
N 	N 	0.68784 0.27161 0.50345 -0.29300
C 	C 	0.65902 0.40459 0.63608 0.39200
C 	C 	0.65858 0.50082 0.63650 -0.16100
C 	C 	0.66665 0.51363 0.68267 0.05900
H 	H 	0.66930 0.46330 0.71380 0.02200
C 	C 	0.67143 0.61024 0.68430 -0.11800
H 	H 	0.67570 0.62190 0.71720 0.06500
C 	C 	0.66979 0.68049 0.63998 0.06100
C 	C 	0.66184 0.66083 0.59096 -0.13400
H 	H 	0.65800 0.70880 0.55890 0.07600
C 	C 	0.65999 0.57258 0.59195 0.08300
H 	H 	0.65960 0.55950 0.55880 0.01400
C 	C 	0.67853 0.77396 0.64209 0.02400
C 	C 	0.64729 0.80429 0.68790 -0.09700
H 	H 	0.62580 0.76000 0.72060 0.05900
C 	C 	0.64507 0.89143 0.68944 0.04400
H 	H 	0.61620 0.90820 0.72150 0.03000
C 	C 	0.68509 0.95889 0.64403 -0.12200
C 	C 	0.72224 0.93789 0.59692 0.03100
H 	H 	0.75100 0.98300 0.56680 0.03800
C 	C 	0.71730 0.84338 0.59308 -0.08300
H 	H 	0.73870 0.82790 0.55980 0.06000
C 	C 	0.68148 0.05662 0.64368 0.40900
C 	C 	0.83907 0.22204 0.63448 0.39800
C 	C 	0.93520 0.21859 0.63883 -0.22600
C 	C 	0.96554 0.16853 0.68059 0.20600
H 	H 	0.92570 0.13360 0.71050 -0.01900
C 	C 	0.06106 0.16560 0.68174 -0.26600
H 	H 	0.08450 0.12220 0.71050 0.10500
C 	C 	0.11954 0.22420 0.64225 0.18500
C 	C 	0.08626 0.27941 0.60286 -0.27000
H 	H 	0.12410 0.32200 0.57610 0.11800
C 	C 	0.99098 0.27890 0.59774 0.17800
H 	H 	0.96830 0.31840 0.56740 -0.00800
C 	C 	0.21080 0.22448 0.64396 -0.05800
C 	C 	0.23726 0.20198 0.69433 -0.03600
H 	H 	0.19290 0.18360 0.72620 0.03200
C 	C 	0.32909 0.20584 0.69918 -0.01300
H 	H 	0.34550 0.19540 0.73340 0.04700
C 	C 	0.39210 0.22528 0.65220 -0.07400
C 	C 	0.36338 0.24057 0.60401 -0.01000
H 	H 	0.40670 0.25410 0.57130 0.05000
C 	C 	0.27903 0.23711 0.60182 -0.03600
H 	H 	0.26500 0.24420 0.56730 0.04500
C 	C 	0.49566 0.22592 0.65493 0.40600
C 	C 	0.57736 0.22537 0.81041 -0.01300
H 	H 	0.52480 0.25440 0.79660 0.03400
C 	C 	0.59323 0.22261 0.86445 0.00600
H 	H 	0.54860 0.25320 0.88610 0.03800
C 	C 	0.66790 0.17899 0.88549 -0.12400
C 	C 	0.73228 0.14540 0.85131 0.01000
H 	H 	0.78930 0.12570 0.86190 0.02100
C 	C 	0.72310 0.13645 0.80043 0.00100
H 	H 	0.76670 0.10170 0.78070 0.03100
C 	C 	0.67977 0.17896 0.93870 0.39000
C 	C 	0.60224 0.19328 0.97669 -0.60400
H 	H 	0.54200 0.19770 0.97060 0.27600
C 	C 	0.62513 0.20100 0.02819 1.28500
C 	C 	0.70675 0.19415 0.04145 -1.42200
C 	C 	0.78347 0.19100 0.99399 0.36900
C 	C 	0.76414 0.17402 0.94949 -0.36700
H 	H 	0.81370 0.15740 0.92410 0.13500
C 	C 	0.53403 0.20700 0.06775 -0.01500
H 	H 	0.47930 0.19830 0.05830 0.18900
C 	C 	0.87989 0.17230 0.01055 0.80700
C 	C 	0.89710 0.25760 0.02632 -0.97100
H 	H 	0.84800 0.26860 0.05540 0.34300
H 	H 	0.89930 0.31130 0.99480 0.27000
H 	H 	0.95510 0.24730 0.03880 0.27800
C 	C 	0.95521 0.16190 0.95990 -0.88200
H 	H 	0.94300 0.11040 0.94770 0.27600
H 	H 	0.01500 0.15020 0.97020 0.23000
H 	H 	0.95420 0.21880 0.93060 0.26400
C 	C 	0.90020 0.10130 0.05535 -1.73500
H 	H 	0.85760 0.10790 0.08810 0.96300
H 	H 	0.96230 0.10510 0.05950 0.52800
H 	H 	0.89490 0.04150 0.04960 0.62600
C 	C 	0.44613 0.22270 0.15079 -0.37200
H 	H 	0.44390 0.15790 0.17400 0.60000
C 	C 	0.44489 0.27730 0.18757 0.23300
H 	H 	0.44490 0.34080 0.16260 0.01800
C 	C 	0.36749 0.28670 0.22914 -0.23000
H 	H 	0.37500 0.33660 0.24480 0.10200
H 	H 	0.36130 0.22870 0.25840 0.13400
C 	C 	0.27876 0.31080 0.20159 0.03200
H 	H 	0.22340 0.30600 0.23000 -0.02400
H 	H 	0.27910 0.37470 0.17820 0.00700
C 	C 	0.27768 0.24500 0.16820 -0.21000
H 	H 	0.26960 0.18250 0.19290 0.06700
H 	H 	0.22440 0.26310 0.15030 0.02200
C 	C 	0.35948 0.24070 0.12647 0.15400
H 	H 	0.36230 0.29950 0.09770 0.00300
H 	H 	0.35590 0.19090 0.10980 0.01700
C 	C 	0.54769 0.28336 0.24495 0.11300
H 	H 	0.49560 0.30200 0.26790 0.05600
C 	C 	0.63508 0.27520 0.26014 0.24600
C 	C 	0.62866 0.28476 0.31498 0.04000
H 	H 	0.57100 0.29430 0.33650 0.03200
C 	C 	0.71006 0.27955 0.33594 -0.23800
C 	C 	0.79666 0.26442 0.30002 0.60700
H 	H 	0.85120 0.26030 0.31320 -0.24400
C 	C 	0.80318 0.25620 0.25034 -1.11000
C 	C 	0.72675 0.25380 0.22920 0.07300
C 	C 	0.89650 0.25738 0.21262 3.70300
C 	C 	0.97250 0.26440 0.23580 -3.52600
H 	H 	0.97670 0.21160 0.26730 1.00800
H 	H 	0.96410 0.32140 0.24710 0.99200
H 	H 	0.02850 0.26490 0.20880 0.94700
C 	C 	0.91700 0.17730 0.19491 -4.47700
H 	H 	0.91320 0.12330 0.22630 1.38000
H 	H 	0.97860 0.17810 0.17340 1.28100
H 	H 	0.87360 0.17460 0.17270 1.70100
C 	C 	0.90960 0.32740 0.16482 -4.03400
H 	H 	0.86130 0.32960 0.14490 1.20500
H 	H 	0.96850 0.31570 0.14270 1.14200
H 	H 	0.90810 0.38640 0.17320 1.13100
C 	C 	0.70200 0.27814 0.39085 0.21900
C 	C 	0.61742 0.27896 0.42664 -0.21000
H 	H 	0.56160 0.28280 0.41490 0.11400
C 	C 	0.62085 0.27364 0.48190 0.14300
H 	H 	0.56360 0.27130 0.50570 -0.01900
C 	C 	0.76559 0.27689 0.46750 0.13600
H 	H 	0.81960 0.28240 0.47890 -0.02200
C 	C 	0.77163 0.27483 0.41508 -0.23900
H 	H 	0.83080 0.27070 0.39410 0.10100
Zn	Zn	0.38984 0.53879 0.36188 1.22000
Zn	Zn	0.35417 0.48278 0.48185 1.21600
Mn	Mn	0.39840 0.44900 0.93156 1.33000
Cl	Cl	0.38584 0.30768 0.96209 -0.58900
O 	O 	0.52400 0.51999 0.36268 -0.43100
O 	O 	0.49158 0.50159 0.45470 -0.45400
O 	O 	0.25181 0.54558 0.38745 -0.47800
O 	O 	0.22846 0.47491 0.47532 -0.47000
O 	O 	0.37879 0.35176 0.47344 -0.47200
O 	O 	0.38001 0.40041 0.38539 -0.48400
O 	O 	0.33291 0.62423 0.46351 -0.45900
O 	O 	0.39303 0.66114 0.37489 -0.48500
O 	O 	0.31393 0.47961 0.98937 -0.45500
O 	O 	0.30518 0.46788 0.88771 -0.40700
N 	N 	0.38921 0.55712 0.28342 -0.28700
N 	N 	0.50676 0.44879 0.96532 -0.24900
N 	N 	0.50089 0.46786 0.86569 -0.25200
N 	N 	0.34707 0.46560 0.56293 -0.24200
C 	C 	0.54663 0.51306 0.40979 0.34800
C 	C 	0.63912 0.51744 0.41164 -0.12100
C 	C 	0.70711 0.53660 0.36322 0.04300
H 	H 	0.68930 0.55060 0.32910 0.01800
C 	C 	0.79457 0.53517 0.36497 -0.12000
H 	H 	0.83840 0.54490 0.33240 0.05300
C 	C 	0.82286 0.51930 0.41504 0.05600
C 	C 	0.75712 0.49576 0.46674 -0.10500
H 	H 	0.77560 0.47890 0.50080 0.07300
C 	C 	0.66213 0.50011 0.46209 0.03200
H 	H 	0.61600 0.49110 0.49360 0.03900
C 	C 	0.92282 0.51888 0.42023 -0.03800
C 	C 	0.97966 0.57939 0.37894 0.02100
H 	H 	0.95760 0.61990 0.34870 0.02100
C 	C 	0.06788 0.57715 0.38431 -0.09500
H 	H 	0.10750 0.61770 0.35740 0.06000
C 	C 	0.10245 0.51562 0.42930 -0.04200
C 	C 	0.04359 0.45868 0.46861 -0.09400
H 	H 	0.06490 0.41860 0.49920 0.05900
C 	C 	0.95722 0.45872 0.46450 0.02700
H 	H 	0.91840 0.41770 0.49170 0.03100
C 	C 	0.20441 0.50943 0.43015 0.38100
C 	C 	0.37899 0.34008 0.42932 0.41200
C 	C 	0.37112 0.24343 0.42673 -0.12400
C 	C 	0.37260 0.21719 0.37884 0.05500
H 	H 	0.37710 0.26240 0.34500 0.02100
C 	C 	0.36777 0.13014 0.38150 -0.10800
H 	H 	0.37250 0.11560 0.34820 0.07700
C 	C 	0.35698 0.06113 0.42560 0.02600
C 	C 	0.36164 0.07839 0.47155 -0.09100
H 	H 	0.35690 0.02890 0.50350 0.05800
C 	C 	0.37345 0.16740 0.47532 0.02600
H 	H 	0.38240 0.17690 0.50790 0.03200
C 	C 	0.35700 0.95937 0.42545 0.10200
C 	C 	0.40420 0.93458 0.37677 -0.15300
H 	H 	0.43840 0.97690 0.34760 0.06600
C 	C 	0.39609 0.84366 0.37538 0.07200
H 	H 	0.41780 0.82600 0.34280 -0.00200
C 	C 	0.35813 0.78292 0.41973 -0.16300
C 	C 	0.32380 0.81506 0.46368 0.13800
H 	H 	0.30080 0.77170 0.49650 -0.00500
C 	C 	0.32020 0.89728 0.46423 -0.21800
H 	H 	0.28790 0.91380 0.49570 0.09600
C 	C 	0.36220 0.67885 0.41851 0.40400
C 	C 	0.44814 0.52382 0.25187 0.15100
H 	H 	0.50130 0.49760 0.26590 -0.03100
C 	C 	0.45028 0.51804 0.20039 -0.21600
H 	H 	0.50280 0.49450 0.17990 0.11400
C 	C 	0.37385 0.54750 0.18089 0.12700
C 	C 	0.30414 0.60158 0.21117 -0.17900
H 	H 	0.25530 0.63840 0.19650 0.07900
C 	C 	0.31711 0.59309 0.26104 0.10600
H 	H 	0.26770 0.61610 0.28390 -0.01700
C 	C 	0.36100 0.53140 0.12917 -0.08700
C 	C 	0.42842 0.51120 0.09135 0.03700
H 	H 	0.48810 0.50790 0.09820 0.03700
C 	C 	0.42180 0.49500 0.04464 -0.12700
C 	C 	0.33074 0.50110 0.03449 0.22100
C 	C 	0.25290 0.54630 0.06323 -0.25500
C 	C 	0.26612 0.54590 0.11242 0.06700
H 	H 	0.21430 0.55500 0.13860 -0.01700
C 	C 	0.50076 0.47427 0.01063 0.06700
H 	H 	0.55640 0.47860 0.02060 0.04100
C 	C 	0.15200 0.53280 0.06108 0.67400
C 	C 	0.15150 0.61940 0.00602 -0.75100
H 	H 	0.09490 0.62270 0.99300 0.21300
H 	H 	0.20320 0.60980 0.97800 0.24100
H 	H 	0.15620 0.67710 0.01450 0.23500
C 	C 	0.08860 0.53170 0.11450 -0.84100
H 	H 	0.02720 0.52160 0.11210 0.20500
H 	H 	0.08810 0.59080 0.12260 0.24300
H 	H 	0.10960 0.48200 0.14330 0.21800
C 	C 	0.13560 0.45010 0.05529 -1.08300
H 	H 	0.07550 0.45470 0.04610 0.29000
H 	H 	0.13790 0.40230 0.08920 0.28300
H 	H 	0.18180 0.43410 0.02630 0.35500
C 	C 	0.58983 0.42940 0.92920 -0.00900
H 	H 	0.59180 0.36280 0.93060 0.03500
C 	C 	0.58375 0.47930 0.87580 0.02700
H 	H 	0.57860 0.54500 0.87690 0.01100
C 	C 	0.67371 0.47190 0.83286 -0.12800
H 	H 	0.67910 0.41060 0.82590 0.07000
H 	H 	0.66750 0.51860 0.79850 0.06100
C 	C 	0.75816 0.48440 0.84805 -0.07300
H 	H 	0.81070 0.46620 0.82250 0.04400
H 	H 	0.76100 0.55020 0.84550 0.04800
C 	C 	0.76370 0.42940 0.90291 -0.05300
H 	H 	0.82000 0.44260 0.91180 0.02500
H 	H 	0.76940 0.36370 0.90330 0.03500
C 	C 	0.68440 0.44370 0.94780 -0.13900
H 	H 	0.68240 0.50640 0.95230 0.07100
H 	H 	0.69110 0.39850 0.98250 0.08800
C 	C 	0.48285 0.47595 0.81652 0.02300
H 	H 	0.53230 0.49170 0.78720 0.02500
C 	C 	0.39948 0.46422 0.80191 -0.11000
C 	C 	0.40261 0.46681 0.75014 -0.00300
H 	H 	0.46000 0.47240 0.72660 0.03500
C 	C 	0.33143 0.46217 0.72946 -0.02700
C 	C 	0.25007 0.45550 0.76450 -0.03500
H 	H 	0.19810 0.44890 0.75150 0.03500
C 	C 	0.23820 0.45770 0.81837 -0.05600
C 	C 	0.32054 0.46333 0.83708 0.17800
C 	C 	0.33432 0.45684 0.67102 0.07700
C 	C 	0.41771 0.45420 0.63707 -0.11600
H 	H 	0.47090 0.45080 0.65140 0.07700
C 	C 	0.42761 0.45623 0.58292 0.05300
H 	H 	0.48560 0.45160 0.56070 0.01500
C 	C 	0.26666 0.47345 0.59398 0.07700
H 	H 	0.21390 0.48510 0.57830 -0.00600
C 	C 	0.25731 0.46507 0.64913 -0.13200
H 	H 	0.19880 0.46500 0.67140 0.06900
