data_crystal

_cell_length_a 7.26420
_cell_length_b 15.02040
_cell_length_c 8.82860
_cell_angle_alpha 90.00000
_cell_angle_beta  90.00000
_cell_angle_gamma 90.00000

_symmetry_space_group_name_	'P 1'
_symmetry_space_group_name_H-M	'P 1'

loop_
_symmetry_equiv_pos_as_xyz
  x,y,z

loop_
_atom_site_label
_atom_site_type_symbol
_atom_site_fract_x
_atom_site_fract_y
_atom_site_fract_z
_atom_site_charge
H 	H 	0.25000 0.45450 0.67990 0.41100
O 	O 	0.38190 0.41555 0.32490 -0.58000
O 	O 	0.08810 0.38390 0.37990 -0.66600
O 	O 	0.38600 0.29464 0.09950 -0.45000
H 	H 	0.48440 0.30690 0.14730 0.21100
C 	C 	0.23570 0.37140 0.31180 0.40600
C 	C 	0.23570 0.29260 0.20250 0.00600
H 	H 	0.12130 0.29450 0.14380 -0.05700
H 	H 	0.25000 0.54550 0.67990 0.41100
O 	O 	0.11810 0.58445 0.32490 -0.65100
O 	O 	0.41190 0.61610 0.37990 -0.57500
O 	O 	0.11400 0.70536 0.09950 -0.45500
H 	H 	0.01560 0.69310 0.14730 0.13300
C 	C 	0.26430 0.62860 0.31180 0.41300
C 	C 	0.26430 0.70740 0.20250 -0.01200
H 	H 	0.37870 0.70550 0.14380 0.00800
H 	H 	0.25000 0.95450 0.82010 0.45800
O 	O 	0.11810 0.91555 0.17510 -0.64900
O 	O 	0.41190 0.88390 0.12010 -0.62700
O 	O 	0.11400 0.79464 0.40050 -0.33200
H 	H 	0.01560 0.80690 0.35270 0.13100
C 	C 	0.26430 0.87140 0.18820 0.44800
C 	C 	0.26430 0.79260 0.29750 -0.07900
H 	H 	0.37870 0.79450 0.35620 0.08700
H 	H 	0.25000 0.04550 0.82010 0.39100
O 	O 	0.38190 0.08445 0.17510 -0.64200
O 	O 	0.08810 0.11610 0.12010 -0.76000
O 	O 	0.38600 0.20536 0.40050 -0.33000
H 	H 	0.48440 0.19310 0.35270 0.20400
C 	C 	0.23570 0.12860 0.18820 0.44200
C 	C 	0.23570 0.20740 0.29750 -0.07000
H 	H 	0.12130 0.20550 0.35620 0.01600
H 	H 	0.75000 0.54550 0.32010 0.42500
O 	O 	0.61810 0.58445 0.67510 -0.53700
O 	O 	0.91190 0.61610 0.62010 -0.45200
O 	O 	0.61400 0.70536 0.90050 -0.18100
H 	H 	0.51560 0.69310 0.85270 0.19300
C 	C 	0.76430 0.62860 0.68820 0.45800
C 	C 	0.76430 0.70740 0.79750 -0.08500
H 	H 	0.87870 0.70550 0.85620 0.19900
H 	H 	0.75000 0.45450 0.32010 0.42500
O 	O 	0.88190 0.41555 0.67510 -0.45200
O 	O 	0.58810 0.38390 0.62010 -0.55800
O 	O 	0.88600 0.29464 0.90050 -0.16600
H 	H 	0.98440 0.30690 0.85270 0.27100
C 	C 	0.73570 0.37140 0.68820 0.45300
C 	C 	0.73570 0.29260 0.79750 -0.07100
H 	H 	0.62130 0.29450 0.85620 0.14000
H 	H 	0.75000 0.04550 0.17990 0.50000
O 	O 	0.88190 0.08445 0.82490 -0.40000
O 	O 	0.58810 0.11610 0.87990 -0.45300
O 	O 	0.88600 0.20536 0.59950 -0.29900
H 	H 	0.98440 0.19310 0.64730 0.27500
C 	C 	0.73570 0.12860 0.81180 0.39700
C 	C 	0.73570 0.20740 0.70250 0.01200
H 	H 	0.62130 0.20550 0.64380 0.05400
H 	H 	0.75000 0.95450 0.17990 0.57700
O 	O 	0.61810 0.91555 0.82490 -0.44000
O 	O 	0.91190 0.88390 0.87990 -0.32700
O 	O 	0.61400 0.79464 0.59950 -0.30100
H 	H 	0.51560 0.80690 0.64730 0.20000
C 	C 	0.76430 0.87140 0.81180 0.40700
C 	C 	0.76430 0.79260 0.70250 -0.00300
H 	H 	0.87870 0.79450 0.64380 0.12400
In	In	0.50000 0.50000 0.50000 2.01800
In	In	0.00000 0.50000 0.50000 1.96000
In	In	-0.00000 0.00000 -0.00000 1.88100
In	In	0.50000 0.00000 -0.00000 1.93800
O 	O 	0.25000 0.50000 0.62280 -1.32800
O 	O 	0.25000 0.00000 0.87720 -1.29000
O 	O 	0.75000 0.50000 0.37720 -1.26300
O 	O 	0.75000 0.00000 0.12280 -1.54200
