data_crystal

_cell_length_a 13.53960
_cell_length_b 30.43800
_cell_length_c 15.72170
_cell_angle_alpha 90.00000
_cell_angle_beta  110.53500
_cell_angle_gamma 90.00000

_symmetry_space_group_name_	'P 1'
_symmetry_space_group_name_H-M	'P 1'

loop_
_symmetry_equiv_pos_as_xyz
  x,y,z

loop_
_atom_site_label
_atom_site_type_symbol
_atom_site_fract_x
_atom_site_fract_y
_atom_site_fract_z
_atom_site_charge
Zn	Zn	0.47570 0.05073 0.85948 1.16000
Zn	Zn	0.33333 0.08294 0.29189 1.20200
Zn	Zn	0.61372 0.02324 0.43044 1.21600
S 	S 	0.22681 0.80975 0.72576 0.56100
S 	S 	0.21429 0.21569 0.51121 0.72800
P 	P 	0.49392 0.95180 0.78262 0.44800
P 	P 	0.44306 0.06752 0.49939 0.45300
N 	N 	0.77100 0.02820 0.50270 -0.26700
N 	N 	0.31500 0.04646 0.76460 -0.26000
N 	N 	0.63500 0.05574 0.95390 -0.26500
N 	N 	0.17620 0.08028 0.21950 -0.27100
N 	N 	0.46030 0.12298 0.86020 -0.26400
N 	N 	0.37210 0.35208 0.80290 -0.28000
C 	C 	0.35020 0.83428 0.78730 -0.12600
C 	C 	0.42540 0.81118 0.85450 0.05900
H 	H 	0.41080 0.78300 0.86950 0.02400
C 	C 	0.52260 0.83002 0.89970 -0.12200
H 	H 	0.57380 0.81440 0.94480 0.09000
C 	C 	0.54390 0.87244 0.87780 0.03300
H 	H 	0.61000 0.88470 0.90740 0.00900
C 	C 	0.46710 0.89660 0.81200 -0.12300
C 	C 	0.36990 0.87719 0.76650 0.04900
H 	H 	0.31790 0.89290 0.72210 0.02700
C 	C 	0.43580 0.12280 0.53850 -0.13100
C 	C 	0.52650 0.14479 0.59210 0.06400
H 	H 	0.59180 0.13110 0.60680 0.01700
C 	C 	0.52040 0.18683 0.62390 -0.15400
H 	H 	0.58100 0.20080 0.66150 0.09800
C 	C 	0.42410 0.20782 0.59960 0.10300
H 	H 	0.42000 0.23620 0.62000 0.01400
C 	C 	0.33610 0.18722 0.54630 -0.17500
C 	C 	0.34020 0.14436 0.51520 0.08100
H 	H 	0.27860 0.13050 0.47890 0.00900
C 	C 	0.81840 0.06727 0.52100 0.08800
H 	H 	0.77790 0.09230 0.49990 -0.00700
C 	C 	0.92490 0.07233 0.56990 -0.14200
H 	H 	0.95520 0.10020 0.57990 0.09700
C 	C 	0.98580 0.03536 0.60360 0.06400
C 	C 	0.93710 0.99480 0.58420 -0.13900
H 	H 	0.97590 0.96920 0.60450 0.08200
C 	C 	0.83060 0.99245 0.53460 0.07700
H 	H 	0.79880 0.96490 0.52280 -0.00600
C 	C 	0.10060 0.03878 0.65730 0.05400
C 	C 	0.16310 0.07254 0.64270 -0.13700
H 	H 	0.13410 0.09320 0.59730 0.09200
C 	C 	0.26910 0.07464 0.69700 0.07400
H 	H 	0.31020 0.09680 0.68570 -0.00700
C 	C 	0.25500 0.01370 0.77740 0.06600
H 	H 	0.28620 0.99320 0.82270 -0.01000
C 	C 	0.14890 0.00910 0.72600 -0.13000
H 	H 	0.11020 0.98610 0.73770 0.07700
C 	C 	0.71050 0.03177 0.93930 0.06000
H 	H 	0.69100 0.01110 0.89280 -0.00800
C 	C 	0.81630 0.03650 0.99050 -0.13200
H 	H 	0.86610 0.01920 0.97800 0.07200
C 	C 	0.84830 0.06695 0.06050 0.05800
C 	C 	0.76950 0.09116 0.07760 -0.13800
H 	H 	0.78680 0.11150 0.12480 0.09800
C 	C 	0.66540 0.08440 0.02310 0.07900
H 	H 	0.61360 0.10060 0.03520 -0.01200
C 	C 	0.96210 0.07285 0.11560 0.06300
C 	C 	0.03950 0.06368 0.07860 -0.13500
H 	H 	0.02060 0.05500 0.01830 0.07600
C 	C 	0.14450 0.06759 0.13230 0.07500
H 	H 	0.19540 0.06110 0.10700 -0.01400
C 	C 	0.10210 0.09052 0.25430 0.08600
H 	H 	0.12320 0.10010 0.31430 -0.00600
C 	C 	0.99500 0.08747 0.20470 -0.13500
H 	H 	0.94580 0.09520 0.23100 0.09200
C 	C 	0.53590 0.14997 0.85350 0.08600
H 	H 	0.59870 0.13750 0.85380 -0.01800
C 	C 	0.52590 0.19526 0.84620 -0.14600
H 	H 	0.58100 0.21260 0.84290 0.09700
C 	C 	0.43160 0.21422 0.84380 0.07100
C 	C 	0.35310 0.18670 0.85210 -0.14600
H 	H 	0.28920 0.19830 0.85130 0.10700
C 	C 	0.37160 0.14214 0.86150 0.09000
H 	H 	0.31970 0.12430 0.86930 -0.02000
C 	C 	0.41240 0.26211 0.82930 0.06900
C 	C 	0.49130 0.29315 0.86720 -0.14400
H 	H 	0.55910 0.28420 0.90210 0.09400
C 	C 	0.46780 0.33727 0.85230 0.09900
H 	H 	0.52130 0.35760 0.87800 -0.02400
C 	C 	0.29660 0.32229 0.76580 0.09400
H 	H 	0.22970 0.33220 0.73090 -0.00600
C 	C 	0.31280 0.27757 0.77670 -0.13300
H 	H 	0.25800 0.25800 0.74930 0.11100
O 	O 	0.40760 0.96162 0.69240 -0.48900
O 	O 	0.60476 0.95115 0.77744 -0.49600
O 	O 	0.49013 0.98241 0.85827 -0.44200
O 	O 	0.16490 0.81440 0.78020 -0.26000
O 	O 	0.18620 0.83140 0.64210 -0.26200
O 	O 	0.24980 0.76530 0.71300 -0.25900
O 	O 	0.54980 0.06418 0.48920 -0.48800
O 	O 	0.35120 0.06022 0.41082 -0.49700
O 	O 	0.43110 0.03731 0.57253 -0.47100
O 	O 	0.17160 0.20540 0.57380 -0.29300
O 	O 	0.15150 0.19820 0.42950 -0.29900
O 	O 	0.22900 0.25610 0.55100 -0.22200
O 	O 	0.24020 0.25980 0.47880 -0.18200
Zn	Zn	0.52430 0.55073 0.64052 1.16000
Zn	Zn	0.66667 0.58294 0.20811 1.20200
Zn	Zn	0.38628 0.52324 0.06956 1.21600
S 	S 	0.77319 0.30975 0.77424 0.56100
S 	S 	0.78571 0.71569 0.98879 0.72500
P 	P 	0.50608 0.45180 0.71738 0.44800
P 	P 	0.55694 0.56752 0.00061 0.45300
N 	N 	0.22900 0.52820 0.99730 -0.26700
N 	N 	0.68500 0.54646 0.73540 -0.26000
N 	N 	0.36500 0.55574 0.54610 -0.26400
N 	N 	0.82380 0.58028 0.28050 -0.27200
N 	N 	0.53970 0.62298 0.63980 -0.26400
N 	N 	0.62790 0.85208 0.69710 -0.28000
C 	C 	0.64980 0.33428 0.71270 -0.12600
C 	C 	0.57460 0.31118 0.64550 0.05900
H 	H 	0.58920 0.28300 0.63050 0.02400
C 	C 	0.47740 0.33002 0.60030 -0.12200
H 	H 	0.42620 0.31440 0.55520 0.09000
C 	C 	0.45610 0.37244 0.62220 0.03300
H 	H 	0.39000 0.38470 0.59260 0.01000
C 	C 	0.53290 0.39660 0.68800 -0.12300
C 	C 	0.63010 0.37719 0.73350 0.04900
H 	H 	0.68210 0.39290 0.77790 0.02700
C 	C 	0.56420 0.62280 0.96150 -0.13000
C 	C 	0.47350 0.64479 0.90790 0.06300
H 	H 	0.40820 0.63110 0.89320 0.01700
C 	C 	0.47960 0.68683 0.87610 -0.15300
H 	H 	0.41900 0.70080 0.83850 0.09700
C 	C 	0.57590 0.70782 0.90040 0.10200
H 	H 	0.58000 0.73620 0.88000 0.01400
C 	C 	0.66390 0.68722 0.95370 -0.17300
C 	C 	0.65980 0.64436 0.98480 0.07900
H 	H 	0.72140 0.63050 0.02110 0.01000
C 	C 	0.18160 0.56727 0.97900 0.09000
H 	H 	0.22210 0.59230 0.00010 -0.00800
C 	C 	0.07510 0.57233 0.93010 -0.14500
H 	H 	0.04480 0.60020 0.92010 0.09800
C 	C 	0.01420 0.53536 0.89640 0.06800
C 	C 	0.06290 0.49480 0.91580 -0.14100
H 	H 	0.02410 0.46920 0.89550 0.08300
C 	C 	0.16940 0.49245 0.96540 0.07800
H 	H 	0.20120 0.46490 0.97720 -0.00600
C 	C 	0.89940 0.53878 0.84270 0.05100
C 	C 	0.83690 0.57254 0.85730 -0.13500
H 	H 	0.86590 0.59320 0.90270 0.09100
C 	C 	0.73090 0.57464 0.80300 0.07400
H 	H 	0.68980 0.59680 0.81430 -0.00700
C 	C 	0.74500 0.51370 0.72260 0.06500
H 	H 	0.71380 0.49320 0.67730 -0.00900
C 	C 	0.85110 0.50910 0.77400 -0.12900
H 	H 	0.88980 0.48610 0.76230 0.07600
C 	C 	0.28950 0.53177 0.56070 0.06000
H 	H 	0.30900 0.51110 0.60720 -0.00800
C 	C 	0.18370 0.53650 0.50950 -0.13100
H 	H 	0.13390 0.51920 0.52200 0.07100
C 	C 	0.15170 0.56695 0.43950 0.05600
C 	C 	0.23050 0.59116 0.42240 -0.13700
H 	H 	0.21320 0.61150 0.37520 0.09700
C 	C 	0.33460 0.58440 0.47690 0.07800
H 	H 	0.38640 0.60060 0.46480 -0.01100
C 	C 	0.03790 0.57285 0.38440 0.06300
C 	C 	0.96050 0.56368 0.42140 -0.13400
H 	H 	0.97940 0.55500 0.48170 0.07600
C 	C 	0.85550 0.56759 0.36770 0.07500
H 	H 	0.80460 0.56110 0.39300 -0.01400
C 	C 	0.89790 0.59052 0.24570 0.08800
H 	H 	0.87680 0.60010 0.18570 -0.00600
C 	C 	0.00500 0.58747 0.29530 -0.13700
H 	H 	0.05420 0.59520 0.26900 0.09200
C 	C 	0.46410 0.64997 0.64650 0.08600
H 	H 	0.40130 0.63750 0.64620 -0.01800
C 	C 	0.47410 0.69526 0.65380 -0.14600
H 	H 	0.41900 0.71260 0.65710 0.09700
C 	C 	0.56840 0.71422 0.65620 0.07100
C 	C 	0.64690 0.68670 0.64790 -0.14600
H 	H 	0.71080 0.69830 0.64870 0.10700
C 	C 	0.62840 0.64214 0.63850 0.09000
H 	H 	0.68030 0.62430 0.63070 -0.02100
C 	C 	0.58760 0.76211 0.67070 0.06900
C 	C 	0.50870 0.79315 0.63280 -0.14400
H 	H 	0.44090 0.78420 0.59790 0.09400
C 	C 	0.53220 0.83727 0.64770 0.09900
H 	H 	0.47870 0.85760 0.62200 -0.02400
C 	C 	0.70340 0.82229 0.73420 0.09400
H 	H 	0.77030 0.83220 0.76910 -0.00600
C 	C 	0.68720 0.77757 0.72330 -0.13300
H 	H 	0.74200 0.75800 0.75070 0.11100
O 	O 	0.59240 0.46162 0.80760 -0.48900
O 	O 	0.39524 0.45115 0.72256 -0.49600
O 	O 	0.50987 0.48241 0.64173 -0.44200
O 	O 	0.83510 0.31440 0.71980 -0.26000
O 	O 	0.81380 0.33140 0.85790 -0.26300
O 	O 	0.75020 0.26530 0.78700 -0.25900
O 	O 	0.45020 0.56418 0.01080 -0.48800
O 	O 	0.64880 0.56022 0.08918 -0.49700
O 	O 	0.56890 0.53731 0.92747 -0.47100
O 	O 	0.82840 0.70540 0.92620 -0.29300
O 	O 	0.84850 0.69820 0.07050 -0.29700
O 	O 	0.77100 0.75610 0.94900 -0.22200
O 	O 	0.75980 0.75980 0.02120 -0.18000
Zn	Zn	0.52430 0.94927 0.14052 1.16000
Zn	Zn	0.66667 0.91706 0.70811 1.20200
Zn	Zn	0.38628 0.97676 0.56956 1.21600
S 	S 	0.77319 0.19025 0.27424 0.56100
S 	S 	0.78571 0.78431 0.48879 0.72800
P 	P 	0.50608 0.04820 0.21738 0.44800
P 	P 	0.55694 0.93248 0.50061 0.45300
N 	N 	0.22900 0.97180 0.49730 -0.26700
N 	N 	0.68500 0.95354 0.23540 -0.26000
N 	N 	0.36500 0.94426 0.04610 -0.26500
N 	N 	0.82380 0.91972 0.78050 -0.27100
N 	N 	0.53970 0.87702 0.13980 -0.26400
N 	N 	0.62790 0.64792 0.19710 -0.28000
C 	C 	0.64980 0.16572 0.21270 -0.12600
C 	C 	0.57460 0.18882 0.14550 0.05900
H 	H 	0.58920 0.21700 0.13050 0.02400
C 	C 	0.47740 0.16998 0.10030 -0.12200
H 	H 	0.42620 0.18560 0.05520 0.09000
C 	C 	0.45610 0.12756 0.12220 0.03300
H 	H 	0.39000 0.11530 0.09260 0.00900
C 	C 	0.53290 0.10340 0.18800 -0.12300
C 	C 	0.63010 0.12281 0.23350 0.04900
H 	H 	0.68210 0.10710 0.27790 0.02700
C 	C 	0.56420 0.87720 0.46150 -0.13100
C 	C 	0.47350 0.85521 0.40790 0.06400
H 	H 	0.40820 0.86890 0.39320 0.01700
C 	C 	0.47960 0.81317 0.37610 -0.15400
H 	H 	0.41900 0.79920 0.33850 0.09800
C 	C 	0.57590 0.79218 0.40040 0.10300
H 	H 	0.58000 0.76380 0.38000 0.01400
C 	C 	0.66390 0.81278 0.45370 -0.17500
C 	C 	0.65980 0.85564 0.48480 0.08100
H 	H 	0.72140 0.86950 0.52110 0.00900
C 	C 	0.18160 0.93273 0.47900 0.08800
H 	H 	0.22210 0.90770 0.50010 -0.00700
C 	C 	0.07510 0.92767 0.43010 -0.14200
H 	H 	0.04480 0.89980 0.42010 0.09700
C 	C 	0.01420 0.96464 0.39640 0.06400
C 	C 	0.06290 0.00520 0.41580 -0.13900
H 	H 	0.02410 0.03080 0.39550 0.08200
C 	C 	0.16940 0.00755 0.46540 0.07700
H 	H 	0.20120 0.03510 0.47720 -0.00600
C 	C 	0.89940 0.96122 0.34270 0.05400
C 	C 	0.83690 0.92746 0.35730 -0.13700
H 	H 	0.86590 0.90680 0.40270 0.09200
C 	C 	0.73090 0.92536 0.30300 0.07400
H 	H 	0.68980 0.90320 0.31430 -0.00700
C 	C 	0.74500 0.98630 0.22260 0.06600
H 	H 	0.71380 0.00680 0.17730 -0.01000
C 	C 	0.85110 0.99090 0.27400 -0.13000
H 	H 	0.88980 0.01390 0.26230 0.07700
C 	C 	0.28950 0.96823 0.06070 0.06000
H 	H 	0.30900 0.98890 0.10720 -0.00800
C 	C 	0.18370 0.96350 0.00950 -0.13200
H 	H 	0.13390 0.98080 0.02200 0.07200
C 	C 	0.15170 0.93305 0.93950 0.05800
C 	C 	0.23050 0.90884 0.92240 -0.13800
H 	H 	0.21320 0.88850 0.87520 0.09800
C 	C 	0.33460 0.91560 0.97690 0.07900
H 	H 	0.38640 0.89940 0.96480 -0.01200
C 	C 	0.03790 0.92715 0.88440 0.06300
C 	C 	0.96050 0.93632 0.92140 -0.13500
H 	H 	0.97940 0.94500 0.98170 0.07600
C 	C 	0.85550 0.93241 0.86770 0.07500
H 	H 	0.80460 0.93890 0.89300 -0.01400
C 	C 	0.89790 0.90948 0.74570 0.08600
H 	H 	0.87680 0.89990 0.68570 -0.00600
C 	C 	0.00500 0.91253 0.79530 -0.13500
H 	H 	0.05420 0.90480 0.76900 0.09200
C 	C 	0.46410 0.85003 0.14650 0.08600
H 	H 	0.40130 0.86250 0.14620 -0.01800
C 	C 	0.47410 0.80474 0.15380 -0.14600
H 	H 	0.41900 0.78740 0.15710 0.09700
C 	C 	0.56840 0.78578 0.15620 0.07100
C 	C 	0.64690 0.81330 0.14790 -0.14600
H 	H 	0.71080 0.80170 0.14870 0.10700
C 	C 	0.62840 0.85786 0.13850 0.09000
H 	H 	0.68030 0.87570 0.13070 -0.02000
C 	C 	0.58760 0.73789 0.17070 0.06900
C 	C 	0.50870 0.70685 0.13280 -0.14400
H 	H 	0.44090 0.71580 0.09790 0.09400
C 	C 	0.53220 0.66273 0.14770 0.09900
H 	H 	0.47870 0.64240 0.12200 -0.02400
C 	C 	0.70340 0.67771 0.23420 0.09400
H 	H 	0.77030 0.66780 0.26910 -0.00600
C 	C 	0.68720 0.72243 0.22330 -0.13300
H 	H 	0.74200 0.74200 0.25070 0.11100
O 	O 	0.59240 0.03838 0.30760 -0.48900
O 	O 	0.39524 0.04885 0.22256 -0.49600
O 	O 	0.50987 0.01759 0.14173 -0.44200
O 	O 	0.83510 0.18560 0.21980 -0.26000
O 	O 	0.81380 0.16860 0.35790 -0.26200
O 	O 	0.75020 0.23470 0.28700 -0.25900
O 	O 	0.45020 0.93582 0.51080 -0.48800
O 	O 	0.64880 0.93978 0.58918 -0.49700
O 	O 	0.56890 0.96269 0.42747 -0.47100
O 	O 	0.82840 0.79460 0.42620 -0.29300
O 	O 	0.84850 0.80180 0.57050 -0.29900
O 	O 	0.77100 0.74390 0.44900 -0.22200
O 	O 	0.75980 0.74020 0.52120 -0.18200
Zn	Zn	0.47570 0.44927 0.35948 1.16000
Zn	Zn	0.33333 0.41706 0.79189 1.20200
Zn	Zn	0.61372 0.47676 0.93044 1.21600
S 	S 	0.22681 0.69025 0.22576 0.56100
S 	S 	0.21429 0.28431 0.01121 0.72500
P 	P 	0.49392 0.54820 0.28262 0.44800
P 	P 	0.44306 0.43248 0.99939 0.45300
N 	N 	0.77100 0.47180 0.00270 -0.26700
N 	N 	0.31500 0.45354 0.26460 -0.26000
N 	N 	0.63500 0.44426 0.45390 -0.26400
N 	N 	0.17620 0.41972 0.71950 -0.27200
N 	N 	0.46030 0.37702 0.36020 -0.26400
N 	N 	0.37210 0.14792 0.30290 -0.28000
C 	C 	0.35020 0.66572 0.28730 -0.12600
C 	C 	0.42540 0.68882 0.35450 0.05900
H 	H 	0.41080 0.71700 0.36950 0.02400
C 	C 	0.52260 0.66998 0.39970 -0.12200
H 	H 	0.57380 0.68560 0.44480 0.09000
C 	C 	0.54390 0.62756 0.37780 0.03300
H 	H 	0.61000 0.61530 0.40740 0.01000
C 	C 	0.46710 0.60340 0.31200 -0.12300
C 	C 	0.36990 0.62281 0.26650 0.04900
H 	H 	0.31790 0.60710 0.22210 0.02700
C 	C 	0.43580 0.37720 0.03850 -0.13000
C 	C 	0.52650 0.35521 0.09210 0.06300
H 	H 	0.59180 0.36890 0.10680 0.01700
C 	C 	0.52040 0.31317 0.12390 -0.15300
H 	H 	0.58100 0.29920 0.16150 0.09700
C 	C 	0.42410 0.29218 0.09960 0.10200
H 	H 	0.42000 0.26380 0.12000 0.01400
C 	C 	0.33610 0.31278 0.04630 -0.17300
C 	C 	0.34020 0.35564 0.01520 0.07900
H 	H 	0.27860 0.36950 0.97890 0.01000
C 	C 	0.81840 0.43273 0.02100 0.09000
H 	H 	0.77790 0.40770 0.99990 -0.00800
C 	C 	0.92490 0.42767 0.06990 -0.14500
H 	H 	0.95520 0.39980 0.07990 0.09800
C 	C 	0.98580 0.46464 0.10360 0.06800
C 	C 	0.93710 0.50520 0.08420 -0.14100
H 	H 	0.97590 0.53080 0.10450 0.08300
C 	C 	0.83060 0.50755 0.03460 0.07800
H 	H 	0.79880 0.53510 0.02280 -0.00600
C 	C 	0.10060 0.46122 0.15730 0.05100
C 	C 	0.16310 0.42746 0.14270 -0.13500
H 	H 	0.13410 0.40680 0.09730 0.09100
C 	C 	0.26910 0.42536 0.19700 0.07400
H 	H 	0.31020 0.40320 0.18570 -0.00700
C 	C 	0.25500 0.48630 0.27740 0.06500
H 	H 	0.28620 0.50680 0.32270 -0.00900
C 	C 	0.14890 0.49090 0.22600 -0.12900
H 	H 	0.11020 0.51390 0.23770 0.07600
C 	C 	0.71050 0.46823 0.43930 0.06000
H 	H 	0.69100 0.48890 0.39280 -0.00800
C 	C 	0.81630 0.46350 0.49050 -0.13100
H 	H 	0.86610 0.48080 0.47800 0.07100
C 	C 	0.84830 0.43305 0.56050 0.05600
C 	C 	0.76950 0.40884 0.57760 -0.13700
H 	H 	0.78680 0.38850 0.62480 0.09700
C 	C 	0.66540 0.41560 0.52310 0.07800
H 	H 	0.61360 0.39940 0.53520 -0.01100
C 	C 	0.96210 0.42715 0.61560 0.06300
C 	C 	0.03950 0.43632 0.57860 -0.13400
H 	H 	0.02060 0.44500 0.51830 0.07600
C 	C 	0.14450 0.43241 0.63230 0.07500
H 	H 	0.19540 0.43890 0.60700 -0.01400
C 	C 	0.10210 0.40948 0.75430 0.08800
H 	H 	0.12320 0.39990 0.81430 -0.00600
C 	C 	0.99500 0.41253 0.70470 -0.13700
H 	H 	0.94580 0.40480 0.73100 0.09200
C 	C 	0.53590 0.35003 0.35350 0.08600
H 	H 	0.59870 0.36250 0.35380 -0.01800
C 	C 	0.52590 0.30474 0.34620 -0.14600
H 	H 	0.58100 0.28740 0.34290 0.09700
C 	C 	0.43160 0.28578 0.34380 0.07100
C 	C 	0.35310 0.31330 0.35210 -0.14600
H 	H 	0.28920 0.30170 0.35130 0.10700
C 	C 	0.37160 0.35786 0.36150 0.09000
H 	H 	0.31970 0.37570 0.36930 -0.02100
C 	C 	0.41240 0.23789 0.32930 0.06900
C 	C 	0.49130 0.20685 0.36720 -0.14400
H 	H 	0.55910 0.21580 0.40210 0.09400
C 	C 	0.46780 0.16273 0.35230 0.09900
H 	H 	0.52130 0.14240 0.37800 -0.02400
C 	C 	0.29660 0.17771 0.26580 0.09400
H 	H 	0.22970 0.16780 0.23090 -0.00600
C 	C 	0.31280 0.22243 0.27670 -0.13300
H 	H 	0.25800 0.24200 0.24930 0.11100
O 	O 	0.40760 0.53838 0.19240 -0.48900
O 	O 	0.60476 0.54885 0.27744 -0.49600
O 	O 	0.49013 0.51759 0.35827 -0.44200
O 	O 	0.16490 0.68560 0.28020 -0.26000
O 	O 	0.18620 0.66860 0.14210 -0.26300
O 	O 	0.24980 0.73470 0.21300 -0.25900
O 	O 	0.54980 0.43582 0.98920 -0.48800
O 	O 	0.35120 0.43978 0.91082 -0.49700
O 	O 	0.43110 0.46269 0.07253 -0.47100
O 	O 	0.17160 0.29460 0.07380 -0.29300
O 	O 	0.15150 0.30180 0.92950 -0.29700
O 	O 	0.22900 0.24390 0.05100 -0.22200
O 	O 	0.24020 0.24020 0.97880 -0.18000
