data_crystal

_cell_length_a 8.60300
_cell_length_b 19.27740
_cell_length_c 19.27740
_cell_angle_alpha 62.17280
_cell_angle_beta  81.44500
_cell_angle_gamma 98.55500

_symmetry_space_group_name_	'P 1'
_symmetry_space_group_name_H-M	'P 1'

loop_
_symmetry_equiv_pos_as_xyz
  x,y,z

loop_
_atom_site_label
_atom_site_type_symbol
_atom_site_fract_x
_atom_site_fract_y
_atom_site_fract_z
_atom_site_charge
Mn	Mn	0.22110 0.30323 0.27957 1.23500
Mn	Mn	0.50067 0.27957 0.41720 1.23500
Mn	Mn	0.91787 0.41720 0.30323 1.23600
Mn	Mn	0.77890 0.69677 0.72043 1.23600
Mn	Mn	0.49933 0.72043 0.58280 1.23600
Mn	Mn	0.08213 0.58280 0.69677 1.23600
H 	H 	0.38850 0.36370 0.09500 0.00900
H 	H 	0.66530 0.58360 0.02930 0.04600
H 	H 	0.48350 0.09500 0.54130 0.00900
H 	H 	0.69460 0.02930 0.38710 0.04700
H 	H 	0.02480 0.54130 0.36370 0.00900
H 	H 	0.08170 0.38710 0.58360 0.04700
H 	H 	0.61150 0.63630 0.90500 0.00900
H 	H 	0.33470 0.41640 0.97070 0.04600
H 	H 	0.51650 0.90500 0.45870 0.00900
H 	H 	0.30540 0.97070 0.61290 0.04700
H 	H 	0.97520 0.45870 0.63630 0.00900
H 	H 	0.91830 0.61290 0.41640 0.04700
C 	C 	0.57990 0.43660 0.15350 0.12500
C 	C 	0.53780 0.46830 0.07780 -0.02800
C 	C 	0.43350 0.41800 0.05720 -0.02200
C 	C 	0.59910 0.54960 0.01780 -0.02900
C 	C 	0.73340 0.15350 0.40990 0.12500
C 	C 	0.61560 0.07780 0.45390 -0.02800
C 	C 	0.49070 0.05720 0.52480 -0.02200
C 	C 	0.61690 0.01780 0.43260 -0.02900
C 	C 	0.14330 0.40990 0.43660 0.12500
C 	C 	0.06950 0.45390 0.46830 -0.02800
C 	C 	0.01550 0.52480 0.41800 -0.02200
C 	C 	0.04950 0.43260 0.54960 -0.02900
C 	C 	0.42010 0.56340 0.84650 0.12500
C 	C 	0.46220 0.53170 0.92220 -0.02800
C 	C 	0.56650 0.58200 0.94280 -0.02200
C 	C 	0.40090 0.45040 0.98220 -0.02900
C 	C 	0.26660 0.84650 0.59010 0.12500
C 	C 	0.38440 0.92220 0.54610 -0.02800
C 	C 	0.50930 0.94280 0.47520 -0.02200
C 	C 	0.38310 0.98220 0.56740 -0.02900
C 	C 	0.85670 0.59010 0.56340 0.12500
C 	C 	0.93050 0.54610 0.53170 -0.02800
C 	C 	0.98450 0.47520 0.58200 -0.02200
C 	C 	0.95050 0.56740 0.45040 -0.02900
N 	N 	0.48700 0.37460 0.22380 -0.21200
N 	N 	0.57640 0.36580 0.27830 -0.17700
N 	N 	0.71470 0.41970 0.23920 -0.16300
N 	N 	0.72250 0.46530 0.16210 -0.10000
N 	N 	0.71080 0.22380 0.40160 -0.21200
N 	N 	0.85470 0.27830 0.35590 -0.17700
N 	N 	0.95390 0.23920 0.34110 -0.16400
N 	N 	0.88460 0.16210 0.37260 -0.10000
N 	N 	0.11240 0.40160 0.37460 -0.21200
N 	N 	0.21060 0.35590 0.36580 -0.17700
N 	N 	0.29500 0.34110 0.41970 -0.16300
N 	N 	0.25720 0.37260 0.46530 -0.10000
N 	N 	0.51300 0.62540 0.77620 -0.21200
N 	N 	0.42360 0.63420 0.72170 -0.17700
N 	N 	0.28530 0.58030 0.76080 -0.16300
N 	N 	0.27750 0.53470 0.83790 -0.10000
N 	N 	0.28920 0.77620 0.59840 -0.21200
N 	N 	0.14530 0.72170 0.64410 -0.17700
N 	N 	0.04610 0.76080 0.65890 -0.16400
N 	N 	0.11540 0.83790 0.62740 -0.10000
N 	N 	0.88760 0.59840 0.62540 -0.21200
N 	N 	0.78940 0.64410 0.63420 -0.17700
N 	N 	0.70500 0.65890 0.58030 -0.16300
N 	N 	0.74280 0.62740 0.53470 -0.10000
Cl	Cl	0.11994 0.42152 0.19110 -0.68500
Cl	Cl	0.31104 0.19110 0.38738 -0.68500
Cl	Cl	0.69842 0.38738 0.42152 -0.68500
Cl	Cl	0.88006 0.57848 0.80890 -0.68500
Cl	Cl	0.68896 0.80890 0.61262 -0.68500
Cl	Cl	0.30158 0.61262 0.57848 -0.68500
