data_crystal

_cell_length_a 13.96660
_cell_length_b 15.93020
_cell_length_c 16.64790
_cell_angle_alpha 90.00000
_cell_angle_beta  90.00000
_cell_angle_gamma 90.00000

_symmetry_space_group_name_	'P 1'
_symmetry_space_group_name_H-M	'P 1'

loop_
_symmetry_equiv_pos_as_xyz
  x,y,z

loop_
_atom_site_label
_atom_site_type_symbol
_atom_site_fract_x
_atom_site_fract_y
_atom_site_fract_z
_atom_site_charge
Ni	Ni	0.52002 0.68241 0.89366 1.14000
C 	C 	0.74270 0.50364 0.84052 -0.09400
C 	C 	0.78420 0.54460 0.77493 0.05000
H 	H 	0.76340 0.59930 0.76050 0.04900
C 	C 	0.85560 0.50540 0.73091 -0.09400
C 	C 	0.88670 0.42561 0.75304 0.04200
H 	H 	0.93240 0.39720 0.72070 0.05500
C 	C 	0.85140 0.38720 0.82192 -0.07400
C 	C 	0.77910 0.42668 0.86568 0.03000
H 	H 	0.75460 0.40090 0.91290 0.05400
C 	C 	0.65680 0.54060 0.88260 0.36100
C 	C 	0.90250 0.54632 0.65949 0.36700
C 	C 	0.89370 0.30550 0.84950 0.29200
C 	C 	0.44970 0.69320 0.02830 0.48500
C 	C 	0.41860 0.69760 0.11490 -0.85900
H 	H 	0.35020 0.71070 0.11750 0.29300
H 	H 	0.45510 0.74150 0.14260 0.29900
H 	H 	0.43050 0.64340 0.14090 0.29700
O 	O 	0.63181 0.50584 0.94717 -0.36900
O 	O 	0.61705 0.60206 0.84815 -0.40100
O 	O 	0.90642 0.62584 0.65864 -0.37500
O 	O 	0.93622 0.49663 0.60851 -0.38300
O 	O 	0.95606 0.27044 0.80548 -0.34000
O 	O 	0.86994 0.27449 0.91583 -0.31900
O 	O 	0.50215 0.63133 0.00461 -0.56600
O 	O 	0.43062 0.74991 0.97981 -0.33800
Ni	Ni	0.97998 0.31759 0.39366 1.14900
C 	C 	0.75730 0.49636 0.34052 -0.10600
C 	C 	0.71580 0.45540 0.27493 0.05700
H 	H 	0.73660 0.40070 0.26050 0.04300
C 	C 	0.64440 0.49460 0.23091 -0.11200
C 	C 	0.61330 0.57439 0.25304 0.05200
H 	H 	0.56760 0.60280 0.22070 0.03700
C 	C 	0.64860 0.61280 0.32192 -0.09400
C 	C 	0.72090 0.57332 0.36568 0.03800
H 	H 	0.74540 0.59910 0.41290 0.04200
C 	C 	0.84320 0.45940 0.38260 0.36500
C 	C 	0.59750 0.45368 0.15949 0.37100
C 	C 	0.60630 0.69450 0.34950 0.30000
C 	C 	0.05030 0.30680 0.52830 0.48900
C 	C 	0.08140 0.30240 0.61490 -0.84400
H 	H 	0.14980 0.28930 0.61750 0.29300
H 	H 	0.04490 0.25850 0.64260 0.28000
H 	H 	0.06950 0.35660 0.64090 0.27600
O 	O 	0.86819 0.49416 0.44717 -0.38300
O 	O 	0.88295 0.39794 0.34815 -0.39500
O 	O 	0.59358 0.37416 0.15864 -0.40900
O 	O 	0.56378 0.50337 0.10851 -0.42200
O 	O 	0.54394 0.72956 0.30548 -0.36700
O 	O 	0.63006 0.72551 0.41583 -0.34400
O 	O 	0.99785 0.36867 0.50461 -0.48200
O 	O 	0.06938 0.25009 0.47981 -0.42500
Ni	Ni	0.47998 0.18241 0.60634 1.12900
C 	C 	0.25730 0.00364 0.65948 -0.22600
C 	C 	0.21580 0.04460 0.72507 0.13300
H 	H 	0.23660 0.09930 0.73950 0.01800
C 	C 	0.14440 0.00540 0.76909 -0.21500
C 	C 	0.11330 0.92561 0.74696 0.17800
H 	H 	0.06760 0.89720 0.77930 -0.00800
C 	C 	0.14860 0.88720 0.67808 -0.17700
C 	C 	0.22090 0.92668 0.63432 0.16900
H 	H 	0.24540 0.90090 0.58710 0.00800
C 	C 	0.34320 0.04060 0.61740 0.39600
C 	C 	0.09750 0.04632 0.84051 0.33900
C 	C 	0.10630 0.80550 0.65050 0.33300
C 	C 	0.55030 0.19320 0.47170 0.58100
C 	C 	0.58140 0.19760 0.38510 -0.92900
H 	H 	0.64980 0.21070 0.38250 0.31700
H 	H 	0.54490 0.24150 0.35740 0.32100
H 	H 	0.56950 0.14340 0.35910 0.30800
O 	O 	0.36819 0.00584 0.55283 -0.43100
O 	O 	0.38295 0.10206 0.65185 -0.42100
O 	O 	0.09358 0.12584 0.84136 -0.40900
O 	O 	0.06378 0.99663 0.89149 -0.35000
O 	O 	0.04394 0.77044 0.69452 -0.39300
O 	O 	0.13006 0.77449 0.58417 -0.36000
O 	O 	0.49785 0.13133 0.49539 -0.56500
O 	O 	0.56938 0.24991 0.52019 -0.42100
Ni	Ni	0.02002 0.81759 0.10634 1.10200
C 	C 	0.24270 0.99636 0.15948 -0.01000
C 	C 	0.28420 0.95540 0.22507 -0.01300
H 	H 	0.26340 0.90070 0.23950 0.06300
C 	C 	0.35560 0.99460 0.26909 -0.02100
C 	C 	0.38670 0.07439 0.24696 -0.06400
H 	H 	0.43240 0.10280 0.27930 0.06600
C 	C 	0.35140 0.11280 0.17808 -0.03300
C 	C 	0.27910 0.07332 0.13432 -0.08300
H 	H 	0.25460 0.09910 0.08710 0.06100
C 	C 	0.15680 0.95940 0.11740 0.33700
C 	C 	0.40250 0.95368 0.34051 0.40100
C 	C 	0.39370 0.19450 0.15050 0.27700
C 	C 	0.94970 0.80680 0.97170 0.74800
C 	C 	0.91860 0.80240 0.88510 -1.08800
H 	H 	0.85020 0.78930 0.88250 0.37700
H 	H 	0.95510 0.75850 0.85740 0.39100
H 	H 	0.93050 0.85660 0.85910 0.38600
O 	O 	0.13181 0.99416 0.05283 -0.39100
O 	O 	0.11705 0.89794 0.15185 -0.41300
O 	O 	0.40642 0.87416 0.34136 -0.40600
O 	O 	0.43622 0.00337 0.39149 -0.45800
O 	O 	0.45606 0.22956 0.19452 -0.36500
O 	O 	0.36994 0.22551 0.08417 -0.36000
O 	O 	0.00215 0.86867 0.99539 -0.57700
O 	O 	0.93062 0.75009 0.02019 -0.48200
Ni	Ni	0.47998 0.31759 0.10634 1.12000
C 	C 	0.25730 0.49636 0.15948 -0.12600
C 	C 	0.21580 0.45540 0.22507 0.06500
H 	H 	0.23660 0.40070 0.23950 0.03700
C 	C 	0.14440 0.49460 0.26909 -0.12900
C 	C 	0.11330 0.57439 0.24696 0.06200
H 	H 	0.06760 0.60280 0.27930 0.01800
C 	C 	0.14860 0.61280 0.17808 -0.11800
C 	C 	0.22090 0.57332 0.13432 0.04800
H 	H 	0.24540 0.59910 0.08710 0.02700
C 	C 	0.34320 0.45940 0.11740 0.36900
C 	C 	0.09750 0.45368 0.34051 0.37400
C 	C 	0.10630 0.69450 0.15050 0.30900
C 	C 	0.55030 0.30680 0.97170 0.68400
C 	C 	0.58140 0.30240 0.88510 -1.01600
H 	H 	0.64980 0.28930 0.88250 0.35100
H 	H 	0.54490 0.25850 0.85740 0.35300
H 	H 	0.56950 0.35660 0.85910 0.34200
O 	O 	0.36819 0.49416 0.05283 -0.42100
O 	O 	0.38295 0.39794 0.15185 -0.41500
O 	O 	0.09358 0.37416 0.34136 -0.42900
O 	O 	0.06378 0.50337 0.39149 -0.43100
O 	O 	0.04394 0.72956 0.19452 -0.39600
O 	O 	0.13006 0.72551 0.08417 -0.37500
O 	O 	0.49785 0.36867 0.99539 -0.54100
O 	O 	0.56938 0.25009 0.02019 -0.50100
Ni	Ni	0.02002 0.68241 0.60634 1.11400
C 	C 	0.24270 0.50364 0.65948 -0.11200
C 	C 	0.28420 0.54460 0.72507 0.05600
H 	H 	0.26340 0.59930 0.73950 0.04400
C 	C 	0.35560 0.50540 0.76909 -0.10800
C 	C 	0.38670 0.42561 0.74696 0.05200
H 	H 	0.43240 0.39720 0.77930 0.03700
C 	C 	0.35140 0.38720 0.67808 -0.09500
C 	C 	0.27910 0.42668 0.63432 0.03900
H 	H 	0.25460 0.40090 0.58710 0.04100
C 	C 	0.15680 0.54060 0.61740 0.36600
C 	C 	0.40250 0.54632 0.84051 0.37100
C 	C 	0.39370 0.30550 0.65050 0.30200
C 	C 	0.94970 0.69320 0.47170 0.68300
C 	C 	0.91860 0.69760 0.38510 -1.03600
H 	H 	0.85020 0.71070 0.38250 0.35300
H 	H 	0.95510 0.74150 0.35740 0.37300
H 	H 	0.93050 0.64340 0.35910 0.36600
O 	O 	0.13181 0.50584 0.55283 -0.40600
O 	O 	0.11705 0.60206 0.65185 -0.41800
O 	O 	0.40642 0.62584 0.84136 -0.39100
O 	O 	0.43622 0.49663 0.89149 -0.38900
O 	O 	0.45606 0.27044 0.69452 -0.36700
O 	O 	0.36994 0.27449 0.58417 -0.34600
O 	O 	0.00215 0.63133 0.49539 -0.62600
O 	O 	0.93062 0.74991 0.52019 -0.42000
Ni	Ni	0.52002 0.81759 0.39366 1.13100
C 	C 	0.74270 0.99636 0.34052 -0.00100
C 	C 	0.78420 0.95540 0.27493 -0.01500
H 	H 	0.76340 0.90070 0.26050 0.06700
C 	C 	0.85560 0.99460 0.23091 -0.01100
C 	C 	0.88670 0.07439 0.25304 -0.06500
H 	H 	0.93240 0.10280 0.22070 0.08500
C 	C 	0.85140 0.11280 0.32192 -0.01500
C 	C 	0.77910 0.07332 0.36568 -0.08300
H 	H 	0.75460 0.09910 0.41290 0.07300
C 	C 	0.65680 0.95940 0.38260 0.33700
C 	C 	0.90250 0.95368 0.15949 0.39100
C 	C 	0.89370 0.19450 0.34950 0.26900
C 	C 	0.44970 0.80680 0.52830 0.59300
C 	C 	0.41860 0.80240 0.61490 -0.95000
H 	H 	0.35020 0.78930 0.61750 0.32900
H 	H 	0.45510 0.75850 0.64260 0.33100
H 	H 	0.43050 0.85660 0.64090 0.33200
O 	O 	0.63181 0.99416 0.44717 -0.36300
O 	O 	0.61705 0.89794 0.34815 -0.39600
O 	O 	0.90642 0.87416 0.15864 -0.38400
O 	O 	0.93622 0.00337 0.10851 -0.43200
O 	O 	0.95606 0.22956 0.30548 -0.33400
O 	O 	0.86994 0.22551 0.41583 -0.32900
O 	O 	0.50215 0.86867 0.50461 -0.54700
O 	O 	0.43062 0.75009 0.47981 -0.42200
Ni	Ni	0.97998 0.18241 0.89366 1.15200
C 	C 	0.75730 0.00364 0.84052 -0.19900
C 	C 	0.71580 0.04460 0.77493 0.12100
H 	H 	0.73660 0.09930 0.76050 0.02400
C 	C 	0.64440 0.00540 0.73091 -0.19500
C 	C 	0.61330 0.92561 0.75304 0.16000
H 	H 	0.56760 0.89720 0.72070 0.01000
C 	C 	0.64860 0.88720 0.82192 -0.15100
C 	C 	0.72090 0.92668 0.86568 0.14900
H 	H 	0.74540 0.90090 0.91290 0.02400
C 	C 	0.84320 0.04060 0.88260 0.38800
C 	C 	0.59750 0.04632 0.65949 0.34000
C 	C 	0.60630 0.80550 0.84950 0.32300
C 	C 	0.05030 0.19320 0.02830 0.35100
C 	C 	0.08140 0.19760 0.11490 -0.72400
H 	H 	0.14980 0.21070 0.11750 0.24800
H 	H 	0.04490 0.24150 0.14260 0.23700
H 	H 	0.06950 0.14340 0.14090 0.23000
O 	O 	0.86819 0.00584 0.94717 -0.38600
O 	O 	0.88295 0.10206 0.84815 -0.40200
O 	O 	0.59358 0.12584 0.65864 -0.39500
O 	O 	0.56378 0.99663 0.60851 -0.35800
O 	O 	0.54394 0.77044 0.80548 -0.36800
O 	O 	0.63006 0.77449 0.91583 -0.33100
O 	O 	0.99785 0.13133 0.00461 -0.47700
O 	O 	0.06938 0.24991 0.97981 -0.32500
Ni	Ni	0.50000 0.50000 -0.00000 1.12000
Ni	Ni	0.00000 0.50000 0.50000 1.12300
Ni	Ni	0.50000 0.00000 0.50000 1.12800
Ni	Ni	-0.00000 0.00000 -0.00000 1.06700
