data_crystal

_cell_length_a 11.70600
_cell_length_b 18.18600
_cell_length_c 18.18600
_cell_angle_alpha 90.00000
_cell_angle_beta  90.00000
_cell_angle_gamma 90.00000

_symmetry_space_group_name_	'P 1'
_symmetry_space_group_name_H-M	'P 1'

loop_
_symmetry_equiv_pos_as_xyz
  x,y,z

loop_
_atom_site_label
_atom_site_type_symbol
_atom_site_fract_x
_atom_site_fract_y
_atom_site_fract_z
_atom_site_charge
Ni	Ni	0.16090 0.54289 0.93940 1.12800
Ni	Ni	0.93600 0.59310 0.87576 1.12100
Ni	Ni	0.66090 0.45711 0.06060 1.12900
Ni	Ni	0.43600 0.40690 0.12424 1.11300
Ni	Ni	0.91090 0.56060 0.04289 1.13200
Ni	Ni	0.68600 0.62424 0.09310 1.11400
Ni	Ni	0.41090 0.43940 0.95711 1.13000
Ni	Ni	0.18600 0.37576 0.90690 1.11400
Ni	Ni	0.58910 0.95711 0.43940 1.13000
Ni	Ni	0.81400 0.90690 0.37576 1.11400
Ni	Ni	0.08910 0.04289 0.56060 1.12800
Ni	Ni	0.31400 0.09310 0.62424 1.11400
Ni	Ni	0.83910 0.93940 0.54289 1.13100
Ni	Ni	0.06400 0.87576 0.59310 1.10700
Ni	Ni	0.33910 0.06060 0.45711 1.13000
Ni	Ni	0.56400 0.12424 0.40690 1.11400
Ni	Ni	0.00000 0.74440 0.74440 1.11600
Ni	Ni	0.50000 0.25560 0.25560 1.12400
Ni	Ni	0.75000 0.75560 0.24440 1.12400
Ni	Ni	0.25000 0.24440 0.75560 1.12400
H 	H 	0.89110 0.55590 0.74590 0.13900
H 	H 	0.78780 0.54350 0.78910 0.12600
H 	H 	0.10900 0.82330 0.83330 0.10500
H 	H 	0.16280 0.83270 0.76090 0.12700
H 	H 	0.88920 0.43500 0.74680 0.03300
H 	H 	0.81710 0.37220 0.85100 0.16500
H 	H 	0.72830 0.43180 0.82660 0.16000
H 	H 	0.26400 0.75460 0.84880 0.04100
H 	H 	0.33390 0.76470 0.73670 0.15300
H 	H 	0.34660 0.68340 0.76460 0.16000
H 	H 	0.28490 0.47810 0.84460 0.18300
H 	H 	0.39110 0.44410 0.25410 0.13400
H 	H 	0.28780 0.45650 0.21090 0.12400
H 	H 	0.60900 0.17670 0.16670 0.11000
H 	H 	0.66280 0.16730 0.23910 0.13000
H 	H 	0.38920 0.56500 0.25320 0.03500
H 	H 	0.31710 0.62780 0.14900 0.15600
H 	H 	0.22830 0.56820 0.17340 0.15400
H 	H 	0.76400 0.24540 0.15120 0.04300
H 	H 	0.83390 0.23530 0.26330 0.15600
H 	H 	0.84660 0.31660 0.23540 0.16400
H 	H 	0.78490 0.52190 0.15540 0.18400
H 	H 	0.64110 0.75410 0.05590 0.13500
H 	H 	0.53780 0.71090 0.04350 0.12500
H 	H 	0.85900 0.66670 0.32330 0.11400
H 	H 	0.91280 0.73910 0.33270 0.13500
H 	H 	0.63920 0.75320 0.93500 0.03500
H 	H 	0.56710 0.64900 0.87220 0.15800
H 	H 	0.47830 0.67340 0.93180 0.15600
H 	H 	0.01400 0.65120 0.25460 0.00800
H 	H 	0.08390 0.76330 0.26470 0.17900
H 	H 	0.09660 0.73540 0.18340 0.18600
H 	H 	0.03490 0.65540 0.97810 0.17900
H 	H 	0.14110 0.24590 0.94410 0.13200
H 	H 	0.03780 0.28910 0.95650 0.12000
H 	H 	0.35900 0.33330 0.67670 0.10900
H 	H 	0.41280 0.26090 0.66730 0.13000
H 	H 	0.13920 0.24680 0.06500 0.02900
H 	H 	0.06710 0.35100 0.12780 0.16200
H 	H 	0.97830 0.32660 0.06820 0.17700
H 	H 	0.51400 0.34880 0.74540 0.04200
H 	H 	0.58390 0.23670 0.73530 0.15400
H 	H 	0.59660 0.26460 0.81660 0.16100
H 	H 	0.53490 0.34460 0.02190 0.18300
H 	H 	0.85890 0.94410 0.24590 0.13700
H 	H 	0.96220 0.95650 0.28910 0.13100
H 	H 	0.64100 0.67670 0.33330 0.11000
H 	H 	0.58720 0.66730 0.26090 0.13000
H 	H 	0.86080 0.06500 0.24680 0.04000
H 	H 	0.93290 0.12780 0.35100 0.15400
H 	H 	0.02170 0.06820 0.32660 0.13600
H 	H 	0.48600 0.74540 0.34880 0.04200
H 	H 	0.41610 0.73530 0.23670 0.15200
H 	H 	0.40340 0.81660 0.26460 0.15900
H 	H 	0.46510 0.02190 0.34460 0.18300
H 	H 	0.35890 0.05590 0.75410 0.13400
H 	H 	0.46220 0.04350 0.71090 0.12600
H 	H 	0.14100 0.32330 0.66670 0.10400
H 	H 	0.08720 0.33270 0.73910 0.12400
H 	H 	0.36080 0.93500 0.75320 0.03400
H 	H 	0.43290 0.87220 0.64900 0.15800
H 	H 	0.52170 0.93180 0.67340 0.15600
H 	H 	0.98600 0.25460 0.65120 0.07700
H 	H 	0.91610 0.26470 0.76330 0.12600
H 	H 	0.90340 0.18340 0.73540 0.13300
H 	H 	0.96510 0.97810 0.65540 0.18600
H 	H 	0.10890 0.74590 0.55590 0.13000
H 	H 	0.21220 0.78910 0.54350 0.12500
H 	H 	0.89100 0.83330 0.82330 0.11400
H 	H 	0.83720 0.76090 0.83270 0.13200
H 	H 	0.11080 0.74680 0.43500 0.03700
H 	H 	0.18290 0.85100 0.37220 0.15100
H 	H 	0.27170 0.82660 0.43180 0.15400
H 	H 	0.73600 0.84880 0.75460 0.04200
H 	H 	0.66610 0.73670 0.76470 0.15200
H 	H 	0.65340 0.76460 0.68340 0.16000
H 	H 	0.71510 0.84460 0.47810 0.18300
H 	H 	0.60890 0.25410 0.44410 0.13500
H 	H 	0.71220 0.21090 0.45650 0.12700
H 	H 	0.39100 0.16670 0.17670 0.10900
H 	H 	0.33720 0.23910 0.16730 0.12900
H 	H 	0.61080 0.25320 0.56500 0.03500
H 	H 	0.68290 0.14900 0.62780 0.16000
H 	H 	0.77170 0.17340 0.56820 0.16000
H 	H 	0.23600 0.15120 0.24540 0.04100
H 	H 	0.16610 0.26330 0.23530 0.14900
H 	H 	0.15340 0.23540 0.31660 0.15700
H 	H 	0.21510 0.15540 0.52190 0.18200
C 	C 	0.00900 0.44800 0.82700 0.29700
C 	C 	0.89400 0.45870 0.79510 0.01200
C 	C 	0.80400 0.42470 0.84770 -0.42100
C 	C 	0.80500 0.45680 0.92430 0.46500
C 	C 	0.15000 0.67370 0.84060 0.33000
C 	C 	0.21400 0.73670 0.80900 -0.02400
C 	C 	0.29200 0.71980 0.74520 -0.41200
C 	C 	0.22900 0.69500 0.68500 0.39500
C 	C 	0.50900 0.55200 0.17300 0.32000
C 	C 	0.39400 0.54130 0.20490 -0.01200
C 	C 	0.30400 0.57530 0.15230 -0.40900
C 	C 	0.30500 0.54320 0.07570 0.45900
C 	C 	0.65000 0.32630 0.15940 0.32800
C 	C 	0.71400 0.26330 0.19100 -0.02200
C 	C 	0.79200 0.28020 0.25480 -0.41400
C 	C 	0.72900 0.30500 0.31500 0.39600
C 	C 	0.75900 0.67300 0.94800 0.32100
C 	C 	0.64400 0.70490 0.95870 -0.01100
C 	C 	0.55400 0.65230 0.92470 -0.41200
C 	C 	0.55500 0.57570 0.95680 0.46100
C 	C 	0.90000 0.65940 0.17370 0.30700
C 	C 	0.96400 0.69100 0.23670 0.04800
C 	C 	0.04200 0.75480 0.21980 -0.51400
C 	C 	0.97900 0.81500 0.19500 0.45900
C 	C 	0.25900 0.32700 0.05200 0.31700
C 	C 	0.14400 0.29510 0.04130 -0.00300
C 	C 	0.05400 0.34770 0.07530 -0.44100
C 	C 	0.05500 0.42430 0.04320 0.45000
C 	C 	0.40000 0.34060 0.82630 0.32800
C 	C 	0.46400 0.30900 0.76330 -0.02300
C 	C 	0.54200 0.24520 0.78020 -0.41200
C 	C 	0.47900 0.18500 0.80500 0.39500
C 	C 	0.74100 0.05200 0.32700 0.32200
C 	C 	0.85600 0.04130 0.29510 -0.02000
C 	C 	0.94600 0.07530 0.34770 -0.38200
C 	C 	0.94500 0.04320 0.42430 0.47200
C 	C 	0.60000 0.82630 0.34060 0.32900
C 	C 	0.53600 0.76330 0.30900 -0.02300
C 	C 	0.45800 0.78020 0.24520 -0.41000
C 	C 	0.52100 0.80500 0.18500 0.39300
C 	C 	0.24100 0.94800 0.67300 0.31800
C 	C 	0.35600 0.95870 0.70490 -0.01200
C 	C 	0.44600 0.92470 0.65230 -0.41100
C 	C 	0.44500 0.95680 0.57570 0.45900
C 	C 	0.10000 0.17370 0.65940 0.35100
C 	C 	0.03600 0.23670 0.69100 -0.09800
C 	C 	0.95800 0.21980 0.75480 -0.30300
C 	C 	0.02100 0.19500 0.81500 0.32500
C 	C 	0.99100 0.82700 0.44800 0.34200
C 	C 	0.10600 0.79510 0.45870 -0.03400
C 	C 	0.19600 0.84770 0.42470 -0.40200
C 	C 	0.19500 0.92430 0.45680 0.45500
C 	C 	0.85000 0.84060 0.67370 0.32700
C 	C 	0.78600 0.80900 0.73670 -0.02100
C 	C 	0.70800 0.74520 0.71980 -0.41000
C 	C 	0.77100 0.68500 0.69500 0.39200
C 	C 	0.49100 0.17300 0.55200 0.31900
C 	C 	0.60600 0.20490 0.54130 -0.01000
C 	C 	0.69600 0.15230 0.57530 -0.41400
C 	C 	0.69500 0.07570 0.54320 0.46200
C 	C 	0.35000 0.15940 0.32630 0.32900
C 	C 	0.28600 0.19100 0.26330 -0.02400
C 	C 	0.20800 0.25480 0.28020 -0.40800
C 	C 	0.27100 0.31500 0.30500 0.39200
N 	N 	0.86410 0.53780 0.78860 -0.33500
N 	N 	0.13100 0.80000 0.79210 -0.34000
N 	N 	0.36410 0.46220 0.21140 -0.33300
N 	N 	0.63100 0.20000 0.20790 -0.34000
N 	N 	0.61410 0.71140 0.03780 -0.33300
N 	N 	0.88100 0.70790 0.30000 -0.35000
N 	N 	0.11410 0.28860 0.96220 -0.33300
N 	N 	0.38100 0.29210 0.70000 -0.34000
N 	N 	0.88590 0.96220 0.28860 -0.33300
N 	N 	0.61900 0.70000 0.29210 -0.34000
N 	N 	0.38590 0.03780 0.71140 -0.33300
N 	N 	0.11900 0.30000 0.70790 -0.32900
N 	N 	0.13590 0.78860 0.53780 -0.33100
N 	N 	0.86900 0.79210 0.80000 -0.33800
N 	N 	0.63590 0.21140 0.46220 -0.33400
N 	N 	0.36900 0.20790 0.20000 -0.34000
O 	O 	0.05460 0.51390 0.85140 -0.49200
O 	O 	0.05830 0.39120 0.83550 -0.44900
O 	O 	0.74830 0.41870 0.97210 -0.43200
O 	O 	0.85310 0.51500 0.94320 -0.54900
O 	O 	0.04390 0.67170 0.82450 -0.53300
O 	O 	0.20940 0.63110 0.87910 -0.41100
O 	O 	0.11860 0.69590 0.68010 -0.40600
O 	O 	0.28200 0.65500 0.63400 -0.25100
O 	O 	0.27320 0.47070 0.89770 -0.65400
O 	O 	0.55460 0.48610 0.14860 -0.48900
O 	O 	0.55830 0.60880 0.16450 -0.45200
O 	O 	0.24830 0.58130 0.02790 -0.43400
O 	O 	0.35310 0.48500 0.05680 -0.55300
O 	O 	0.54390 0.32830 0.17550 -0.52400
O 	O 	0.70940 0.36890 0.12090 -0.40900
O 	O 	0.61860 0.30410 0.31990 -0.40100
O 	O 	0.78200 0.34500 0.36600 -0.24600
O 	O 	0.77320 0.52930 0.10230 -0.65400
O 	O 	0.80460 0.64860 0.01390 -0.48700
O 	O 	0.80830 0.66450 0.89120 -0.44900
O 	O 	0.49830 0.52790 0.91870 -0.43300
O 	O 	0.60310 0.55680 0.01500 -0.55300
O 	O 	0.79390 0.67550 0.17170 -0.51800
O 	O 	0.95940 0.62090 0.13110 -0.39600
O 	O 	0.86860 0.81990 0.19590 -0.41500
O 	O 	0.03200 0.86600 0.15500 -0.27800
O 	O 	0.02320 0.60230 0.97070 -0.66400
O 	O 	0.30460 0.35140 0.98610 -0.48800
O 	O 	0.30830 0.33550 0.10880 -0.45100
O 	O 	0.99830 0.47210 0.08130 -0.41700
O 	O 	0.10310 0.44320 0.98500 -0.55400
O 	O 	0.29390 0.32450 0.82830 -0.52500
O 	O 	0.45940 0.37910 0.86890 -0.40900
O 	O 	0.36860 0.18010 0.80410 -0.40200
O 	O 	0.53200 0.13400 0.84500 -0.24800
O 	O 	0.52320 0.39770 0.02930 -0.65400
O 	O 	0.69540 0.98610 0.35140 -0.49000
O 	O 	0.69170 0.10880 0.33550 -0.45300
O 	O 	0.00170 0.08130 0.47210 -0.44800
O 	O 	0.89690 0.98500 0.44320 -0.55300
O 	O 	0.70610 0.82830 0.32450 -0.52400
O 	O 	0.54060 0.86890 0.37910 -0.40900
O 	O 	0.63140 0.80410 0.18010 -0.40000
O 	O 	0.46800 0.84500 0.13400 -0.25000
O 	O 	0.47680 0.02930 0.39770 -0.65400
O 	O 	0.19540 0.01390 0.64860 -0.49100
O 	O 	0.19170 0.89120 0.66450 -0.45500
O 	O 	0.50170 0.91870 0.52790 -0.43200
O 	O 	0.39690 0.01500 0.55680 -0.55200
O 	O 	0.20610 0.17170 0.67550 -0.53100
O 	O 	0.04060 0.13110 0.62090 -0.42300
O 	O 	0.13140 0.19590 0.81990 -0.38600
O 	O 	0.96800 0.15500 0.86600 -0.21800
O 	O 	0.97680 0.97070 0.60230 -0.64400
O 	O 	0.94540 0.85140 0.51390 -0.48700
O 	O 	0.94170 0.83550 0.39120 -0.45500
O 	O 	0.25170 0.97210 0.41870 -0.43300
O 	O 	0.14690 0.94320 0.51500 -0.55600
O 	O 	0.95610 0.82450 0.67170 -0.51300
O 	O 	0.79060 0.87910 0.63110 -0.40800
O 	O 	0.88140 0.68010 0.69590 -0.39300
O 	O 	0.71800 0.63400 0.65500 -0.24700
O 	O 	0.72680 0.89770 0.47070 -0.65400
O 	O 	0.44540 0.14860 0.48610 -0.48900
O 	O 	0.44170 0.16450 0.60880 -0.45200
O 	O 	0.75170 0.02790 0.58130 -0.43100
O 	O 	0.64690 0.05680 0.48500 -0.55300
O 	O 	0.45610 0.17550 0.32830 -0.52400
O 	O 	0.29060 0.12090 0.36890 -0.41000
O 	O 	0.38140 0.31990 0.30410 -0.40100
O 	O 	0.21800 0.36600 0.34500 -0.25200
O 	O 	0.22680 0.10230 0.52930 -0.65400
