data_crystal

_cell_length_a 7.62250
_cell_length_b 7.78140
_cell_length_c 12.72800
_cell_angle_alpha 90.00000
_cell_angle_beta  90.00000
_cell_angle_gamma 90.00000

_symmetry_space_group_name_	'P 1'
_symmetry_space_group_name_H-M	'P 1'

loop_
_symmetry_equiv_pos_as_xyz
  x,y,z

loop_
_atom_site_label
_atom_site_type_symbol
_atom_site_fract_x
_atom_site_fract_y
_atom_site_fract_z
_atom_site_charge
Ni	Ni	0.54104 0.49249 0.08105 1.14800
C 	C 	0.44650 0.23540 0.24310 0.43000
H 	H 	0.56040 0.19640 0.23240 -0.08900
C 	C 	0.27950 0.76980 0.02330 0.42000
H 	H 	0.35570 0.79950 0.96920 -0.07500
C 	C 	0.31710 0.25780 0.96450 0.42700
H 	H 	0.24440 0.27870 0.02180 -0.08500
O 	O 	0.39470 0.36050 0.19037 -0.36600
O 	O 	0.35300 0.15870 0.30999 -0.36000
O 	O 	0.31450 0.63820 0.07638 -0.35800
O 	O 	0.14870 0.86330 0.03855 -0.35800
O 	O 	0.45690 0.33870 0.96014 -0.36400
O 	O 	0.26510 0.14910 0.89765 -0.36200
Ni	Ni	0.95896 0.50751 0.58105 1.14700
C 	C 	0.05350 0.76460 0.74310 0.43700
H 	H 	0.93960 0.80360 0.73240 -0.09600
C 	C 	0.22050 0.23020 0.52330 0.42600
H 	H 	0.14430 0.20050 0.46920 -0.07900
C 	C 	0.18290 0.74220 0.46450 0.43100
H 	H 	0.25560 0.72130 0.52180 -0.08800
O 	O 	0.10530 0.63950 0.69037 -0.36800
O 	O 	0.14700 0.84130 0.80999 -0.36100
O 	O 	0.18550 0.36180 0.57638 -0.36000
O 	O 	0.35130 0.13670 0.53855 -0.36000
O 	O 	0.04310 0.66130 0.46014 -0.36400
O 	O 	0.23490 0.85090 0.39765 -0.36200
Ni	Ni	0.45896 0.99249 0.41895 1.14700
C 	C 	0.55350 0.73540 0.25690 0.42900
H 	H 	0.43960 0.69640 0.26760 -0.09100
C 	C 	0.72050 0.26980 0.47670 0.42600
H 	H 	0.64430 0.29950 0.53080 -0.07900
C 	C 	0.68290 0.75780 0.53550 0.43200
H 	H 	0.75560 0.77870 0.47820 -0.09000
O 	O 	0.60530 0.86050 0.30963 -0.36900
O 	O 	0.64700 0.65870 0.19001 -0.36300
O 	O 	0.68550 0.13820 0.42362 -0.35800
O 	O 	0.85130 0.36330 0.46145 -0.36200
O 	O 	0.54310 0.83870 0.53986 -0.36700
O 	O 	0.73490 0.64910 0.60235 -0.36300
Ni	Ni	0.04104 0.00751 0.91895 1.14600
C 	C 	0.94650 0.26460 0.75690 0.43100
H 	H 	0.06040 0.30360 0.76760 -0.09300
C 	C 	0.77950 0.73020 0.97670 0.43800
H 	H 	0.85570 0.70050 0.03080 -0.08800
C 	C 	0.81710 0.24220 0.03550 0.43000
H 	H 	0.74440 0.22130 0.97820 -0.08700
O 	O 	0.89470 0.13950 0.80963 -0.36500
O 	O 	0.85300 0.34130 0.69001 -0.36200
O 	O 	0.81450 0.86180 0.92362 -0.36300
O 	O 	0.64870 0.63670 0.96145 -0.36400
O 	O 	0.95690 0.16130 0.03986 -0.36400
O 	O 	0.76510 0.35090 0.10235 -0.36200
