data_crystal

_cell_length_a 7.68390
_cell_length_b 7.75550
_cell_length_c 13.01950
_cell_angle_alpha 90.00000
_cell_angle_beta  90.00000
_cell_angle_gamma 90.00000

_symmetry_space_group_name_	'P 1'
_symmetry_space_group_name_H-M	'P 1'

loop_
_symmetry_equiv_pos_as_xyz
  x,y,z

loop_
_atom_site_label
_atom_site_type_symbol
_atom_site_fract_x
_atom_site_fract_y
_atom_site_fract_z
_atom_site_charge
Co	Co	0.55048 0.49456 0.08481 1.21200
C 	C 	0.42590 0.22600 0.23840 0.43500
H 	H 	0.53350 0.17520 0.22620 -0.09200
C 	C 	0.29310 0.76960 0.02620 0.46900
H 	H 	0.35590 0.77440 0.96520 -0.10100
C 	C 	0.31350 0.26820 0.96450 0.43600
H 	H 	0.24630 0.27710 0.02370 -0.09500
O 	O 	0.39290 0.36330 0.19142 -0.36900
O 	O 	0.32710 0.15210 0.29978 -0.35800
O 	O 	0.34100 0.66460 0.09035 -0.39600
O 	O 	0.16780 0.87110 0.03503 -0.38500
O 	O 	0.45140 0.35180 0.96220 -0.37400
O 	O 	0.25660 0.17240 0.89391 -0.37700
Co	Co	0.94952 0.50544 0.58481 1.21100
C 	C 	0.07410 0.77400 0.73840 0.44400
H 	H 	0.96650 0.82480 0.72620 -0.09900
C 	C 	0.20690 0.23040 0.52620 0.47500
H 	H 	0.14410 0.22560 0.46520 -0.10400
C 	C 	0.18650 0.73180 0.46450 0.44100
H 	H 	0.25370 0.72290 0.52370 -0.09800
O 	O 	0.10710 0.63670 0.69142 -0.37100
O 	O 	0.17290 0.84790 0.79978 -0.36000
O 	O 	0.15900 0.33540 0.59035 -0.39700
O 	O 	0.33220 0.12890 0.53503 -0.38700
O 	O 	0.04860 0.64820 0.46220 -0.37400
O 	O 	0.24340 0.82760 0.39391 -0.37700
Co	Co	0.44952 0.99456 0.41519 1.21100
C 	C 	0.57410 0.72600 0.26160 0.43500
H 	H 	0.46650 0.67520 0.27380 -0.09300
C 	C 	0.70690 0.26960 0.47380 0.47500
H 	H 	0.64410 0.27440 0.53480 -0.10400
C 	C 	0.68650 0.76820 0.53550 0.44100
H 	H 	0.75370 0.77710 0.47630 -0.10000
O 	O 	0.60710 0.86330 0.30858 -0.37200
O 	O 	0.67290 0.65210 0.20022 -0.36100
O 	O 	0.65900 0.16460 0.40965 -0.39600
O 	O 	0.83220 0.37110 0.46497 -0.38800
O 	O 	0.54860 0.85180 0.53780 -0.37600
O 	O 	0.74340 0.67240 0.60609 -0.37800
Co	Co	0.05048 0.00544 0.91519 1.21000
C 	C 	0.92590 0.27400 0.76160 0.43700
H 	H 	0.03350 0.32480 0.77380 -0.09400
C 	C 	0.79310 0.73040 0.97380 0.48800
H 	H 	0.85590 0.72560 0.03480 -0.11400
C 	C 	0.81350 0.23180 0.03550 0.43900
H 	H 	0.74630 0.22290 0.97630 -0.09700
O 	O 	0.89290 0.13670 0.80858 -0.36800
O 	O 	0.82710 0.34790 0.70022 -0.36000
O 	O 	0.84100 0.83540 0.90965 -0.40200
O 	O 	0.66780 0.62890 0.96497 -0.39100
O 	O 	0.95140 0.14820 0.03780 -0.37400
O 	O 	0.75660 0.32760 0.10609 -0.37700
