data_crystal

_cell_length_a 16.15580
_cell_length_b 16.15580
_cell_length_c 30.95980
_cell_angle_alpha 100.81900
_cell_angle_beta  100.81900
_cell_angle_gamma 95.83100

_symmetry_space_group_name_	'P 1'
_symmetry_space_group_name_H-M	'P 1'

loop_
_symmetry_equiv_pos_as_xyz
  x,y,z

loop_
_atom_site_label
_atom_site_type_symbol
_atom_site_fract_x
_atom_site_fract_y
_atom_site_fract_z
_atom_site_charge
Dy	Dy	0.18644 0.64029 0.69884 1.86000
Dy	Dy	0.01430 0.63186 0.58735 1.62800
Dy	Dy	0.35971 0.81356 0.80116 1.86000
Dy	Dy	0.36814 0.98570 0.91265 1.62700
Dy	Dy	0.81355 0.35971 0.30116 1.86000
Dy	Dy	0.98570 0.36814 0.41265 1.62800
Dy	Dy	0.64029 0.18644 0.19884 1.86100
Dy	Dy	0.63186 0.01430 0.08735 1.62800
H 	H 	0.48310 0.30490 0.44520 0.05900
H 	H 	0.39990 0.37030 0.49760 0.05800
H 	H 	0.30000 0.28340 0.64060 0.05800
H 	H 	0.35350 0.19410 0.69330 0.06000
H 	H 	0.63740 0.04780 0.71600 0.07400
H 	H 	0.72810 0.98970 0.66480 0.06300
H 	H 	0.67870 0.93050 0.48280 0.06800
H 	H 	0.62450 0.01650 0.42800 0.07100
H 	H 	0.22550 0.27650 0.53190 0.10200
H 	H 	0.12770 0.36710 0.54320 -0.00000
H 	H 	0.31770 0.54490 0.62270 -0.01400
H 	H 	0.41530 0.45230 0.61030 0.09600
H 	H 	0.58210 0.17330 0.76180 0.11300
H 	H 	0.55230 0.14030 0.82790 0.00600
H 	H 	0.33490 0.99370 0.75640 0.00200
H 	H 	0.36560 0.02540 0.68980 0.09200
H 	H 	0.65820 0.85120 0.60020 0.08000
H 	H 	0.75340 0.75380 0.60590 0.02700
H 	H 	0.91190 0.89870 0.55230 0.02700
H 	H 	0.81510 0.99630 0.55050 0.08100
H 	H 	0.66520 0.27260 0.45090 0.09900
H 	H 	0.70210 0.29330 0.38320 -0.00900
H 	H 	0.51860 0.10020 0.31440 -0.00200
H 	H 	0.48260 0.07940 0.38050 0.10600
H 	H 	0.97540 0.05820 0.66770 0.05900
H 	H 	0.91260 0.14220 0.61450 0.06000
H 	H 	0.68090 0.35110 0.61110 0.07000
H 	H 	0.59280 0.41240 0.66310 0.05800
H 	H 	0.90400 0.92180 0.70550 0.09100
H 	H 	0.99990 0.82270 0.70500 0.00700
H 	H 	0.72300 0.16680 0.56260 0.11300
H 	H 	0.75380 0.17460 0.49410 0.01600
H 	H 	0.93550 0.37470 0.55420 0.01600
H 	H 	0.90920 0.35740 0.62410 0.09100
H 	H 	0.46850 0.35710 0.70420 0.09900
H 	H 	0.37360 0.45400 0.70260 -0.00500
H 	H 	0.69510 0.51690 0.05480 0.05900
H 	H 	0.62970 0.60010 0.00240 0.05800
H 	H 	0.71660 0.70000 0.85940 0.05800
H 	H 	0.80590 0.64650 0.80670 0.06000
H 	H 	0.95220 0.36260 0.78400 0.07400
H 	H 	0.01030 0.27190 0.83520 0.06300
H 	H 	0.06950 0.32130 0.01720 0.06800
H 	H 	0.98350 0.37550 0.07200 0.07100
H 	H 	0.72350 0.77450 0.96810 0.10200
H 	H 	0.63290 0.87230 0.95680 -0.00000
H 	H 	0.45510 0.68230 0.87730 -0.01400
H 	H 	0.54770 0.58470 0.88970 0.09600
H 	H 	0.82670 0.41790 0.73820 0.11300
H 	H 	0.85970 0.44770 0.67210 0.00600
H 	H 	0.00630 0.66510 0.74360 0.00200
H 	H 	0.97460 0.63440 0.81020 0.09200
H 	H 	0.14880 0.34180 0.89980 0.08000
H 	H 	0.24620 0.24660 0.89410 0.02700
H 	H 	0.10130 0.08810 0.94770 0.02700
H 	H 	0.00370 0.18490 0.94950 0.08100
H 	H 	0.72740 0.33480 0.04910 0.09800
H 	H 	0.70670 0.29790 0.11680 -0.00900
H 	H 	0.89980 0.48140 0.18560 -0.00200
H 	H 	0.92060 0.51740 0.11950 0.10600
H 	H 	0.94180 0.02460 0.83230 0.05900
H 	H 	0.85780 0.08740 0.88550 0.06000
H 	H 	0.64890 0.31910 0.88890 0.07000
H 	H 	0.58760 0.40720 0.83690 0.05800
H 	H 	0.07820 0.09600 0.79450 0.09100
H 	H 	0.17730 0.00010 0.79500 0.00700
H 	H 	0.83320 0.27700 0.93740 0.11400
H 	H 	0.82540 0.24620 0.00590 0.01400
H 	H 	0.62530 0.06450 0.94580 0.01700
H 	H 	0.64260 0.09080 0.87590 0.09100
H 	H 	0.64290 0.53150 0.79580 0.09900
H 	H 	0.54600 0.62640 0.79740 -0.00500
H 	H 	0.51690 0.69510 0.55480 0.05900
H 	H 	0.60010 0.62970 0.50240 0.05800
H 	H 	0.70000 0.71660 0.35940 0.05800
H 	H 	0.64650 0.80590 0.30670 0.06000
H 	H 	0.36260 0.95220 0.28400 0.07400
H 	H 	0.27190 0.01030 0.33520 0.06300
H 	H 	0.32130 0.06950 0.51720 0.06800
H 	H 	0.37550 0.98350 0.57200 0.07100
H 	H 	0.77450 0.72350 0.46810 0.10200
H 	H 	0.87230 0.63290 0.45680 -0.00000
H 	H 	0.68230 0.45510 0.37730 -0.01400
H 	H 	0.58470 0.54770 0.38970 0.09600
H 	H 	0.41790 0.82670 0.23820 0.11300
H 	H 	0.44770 0.85970 0.17210 0.00600
H 	H 	0.66510 0.00630 0.24360 0.00200
H 	H 	0.63440 0.97460 0.31020 0.09200
H 	H 	0.34180 0.14880 0.39980 0.08000
H 	H 	0.24660 0.24620 0.39410 0.02700
H 	H 	0.08810 0.10130 0.44770 0.02700
H 	H 	0.18490 0.00370 0.44950 0.08100
H 	H 	0.33480 0.72740 0.54910 0.09900
H 	H 	0.29790 0.70670 0.61680 -0.00900
H 	H 	0.48140 0.89980 0.68560 -0.00200
H 	H 	0.51740 0.92060 0.61950 0.10600
H 	H 	0.02460 0.94180 0.33230 0.05900
H 	H 	0.08740 0.85780 0.38550 0.06000
H 	H 	0.31910 0.64890 0.38890 0.07000
H 	H 	0.40720 0.58760 0.33690 0.05800
H 	H 	0.09600 0.07820 0.29450 0.09100
H 	H 	0.00010 0.17730 0.29500 0.00700
H 	H 	0.27700 0.83320 0.43740 0.11300
H 	H 	0.24620 0.82540 0.50590 0.01600
H 	H 	0.06450 0.62530 0.44580 0.01600
H 	H 	0.09080 0.64260 0.37590 0.09100
H 	H 	0.53150 0.64290 0.29580 0.09900
H 	H 	0.62640 0.54600 0.29740 -0.00500
H 	H 	0.30490 0.48310 0.94520 0.05900
H 	H 	0.37030 0.39990 0.99760 0.05800
H 	H 	0.28340 0.30000 0.14060 0.05800
H 	H 	0.19410 0.35350 0.19330 0.06000
H 	H 	0.04780 0.63740 0.21600 0.07400
H 	H 	0.98970 0.72810 0.16480 0.06300
H 	H 	0.93050 0.67870 0.98280 0.06800
H 	H 	0.01650 0.62450 0.92800 0.07100
H 	H 	0.27650 0.22550 0.03190 0.10200
H 	H 	0.36710 0.12770 0.04320 -0.00000
H 	H 	0.54490 0.31770 0.12270 -0.01400
H 	H 	0.45230 0.41530 0.11030 0.09600
H 	H 	0.17330 0.58210 0.26180 0.11300
H 	H 	0.14030 0.55230 0.32790 0.00600
H 	H 	0.99370 0.33490 0.25640 0.00200
H 	H 	0.02540 0.36560 0.18980 0.09200
H 	H 	0.85120 0.65820 0.10020 0.08000
H 	H 	0.75380 0.75340 0.10590 0.02700
H 	H 	0.89870 0.91190 0.05230 0.02700
H 	H 	0.99630 0.81510 0.05050 0.08100
H 	H 	0.27260 0.66520 0.95090 0.09800
H 	H 	0.29330 0.70210 0.88320 -0.00900
H 	H 	0.10020 0.51860 0.81440 -0.00200
H 	H 	0.07940 0.48260 0.88050 0.10600
H 	H 	0.05820 0.97540 0.16770 0.05900
H 	H 	0.14220 0.91260 0.11450 0.06000
H 	H 	0.35110 0.68090 0.11110 0.07000
H 	H 	0.41240 0.59280 0.16310 0.05800
H 	H 	0.92180 0.90400 0.20550 0.09100
H 	H 	0.82270 0.99990 0.20500 0.00700
H 	H 	0.16680 0.72300 0.06260 0.11400
H 	H 	0.17460 0.75380 0.99410 0.01400
H 	H 	0.37470 0.93550 0.05420 0.01700
H 	H 	0.35740 0.90920 0.12410 0.09100
H 	H 	0.35710 0.46850 0.20420 0.09900
H 	H 	0.45400 0.37360 0.20260 -0.00500
C 	C 	0.50820 0.21800 0.48875 0.11300
C 	C 	0.47460 0.28740 0.47190 -0.08000
C 	C 	0.42950 0.32290 0.50010 -0.07500
C 	C 	0.43410 0.27570 0.53550 0.11000
C 	C 	0.38840 0.28800 0.57040 -0.10800
C 	C 	0.39430 0.24070 0.60408 0.11100
C 	C 	0.34460 0.24980 0.63860 -0.08000
C 	C 	0.37410 0.20130 0.66720 -0.08100
C 	C 	0.44220 0.16220 0.65148 0.10900
C 	C 	0.49730 0.11810 0.67567 -0.10200
C 	C 	0.56810 0.08670 0.66037 0.11800
C 	C 	0.63070 0.04950 0.68510 -0.07600
C 	C 	0.67970 0.01690 0.65720 -0.06700
C 	C 	0.64380 0.03180 0.61340 0.10200
C 	C 	0.66500 0.99500 0.57300 -0.09200
C 	C 	0.63140 0.01520 0.53138 0.10300
C 	C 	0.65030 0.97870 0.48870 -0.05700
C 	C 	0.62040 0.02500 0.45870 -0.06300
C 	C 	0.58070 0.09070 0.48299 0.11600
C 	C 	0.55130 0.15970 0.46617 -0.10800
C 	C 	0.32890 0.35250 0.57180 0.13700
C 	C 	0.24410 0.33090 0.55120 -0.19300
C 	C 	0.18590 0.38450 0.55753 0.11000
C 	C 	0.21210 0.46610 0.58534 -0.20500
C 	C 	0.29840 0.48960 0.60440 0.11200
C 	C 	0.35660 0.43440 0.59750 -0.19100
C 	C 	0.14860 0.52420 0.59281 0.41900
C 	C 	0.47920 0.10060 0.71853 0.12900
C 	C 	0.53240 0.13500 0.76020 -0.17900
C 	C 	0.51550 0.11530 0.79970 0.09900
C 	C 	0.44420 0.05900 0.79732 -0.18000
C 	C 	0.38660 0.02820 0.75710 0.10400
C 	C 	0.40460 0.04800 0.71770 -0.17100
C 	C 	0.42840 0.02840 0.83846 0.39900
C 	C 	0.72670 0.93230 0.57430 0.10700
C 	C 	0.71020 0.86080 0.59060 -0.13800
C 	C 	0.76580 0.80200 0.59350 0.04200
C 	C 	0.84250 0.81470 0.57770 -0.10400
C 	C 	0.86030 0.88790 0.56210 0.04600
C 	C 	0.80210 0.94590 0.56090 -0.14000
C 	C 	0.90200 0.74920 0.58100 0.30300
C 	C 	0.57130 0.17230 0.42277 0.13900
C 	C 	0.63600 0.23660 0.42310 -0.18300
C 	C 	0.65870 0.24870 0.38280 0.12900
C 	C 	0.61760 0.19540 0.34306 -0.22200
C 	C 	0.54980 0.13400 0.34227 0.12800
C 	C 	0.52800 0.12240 0.38140 -0.19600
C 	C 	0.64550 0.20470 0.30090 0.48900
C 	C 	0.89880 0.11600 0.71198 0.10500
C 	C 	0.93520 0.09640 0.67230 -0.07500
C 	C 	0.90160 0.14240 0.64363 -0.07700
C 	C 	0.84500 0.19280 0.66486 0.10900
C 	C 	0.79570 0.24670 0.64442 -0.10100
C 	C 	0.73410 0.28850 0.66229 0.11800
C 	C 	0.68180 0.34140 0.64050 -0.07400
C 	C 	0.63380 0.37540 0.66880 -0.06300
C 	C 	0.65770 0.34370 0.71030 0.10400
C 	C 	0.95960 0.93780 0.72380 -0.16600
C 	C 	0.01720 0.87820 0.72340 0.09600
C 	C 	0.81160 0.26040 0.59980 0.13100
C 	C 	0.76790 0.20850 0.56120 -0.17900
C 	C 	0.78540 0.21360 0.52030 0.08800
C 	C 	0.84910 0.27530 0.51640 -0.14900
C 	C 	0.89330 0.33030 0.55560 0.08200
C 	C 	0.87610 0.32130 0.59730 -0.16200
C 	C 	0.86780 0.27980 0.47050 0.38600
C 	C 	0.48520 0.41240 0.72280 -0.18400
C 	C 	0.42800 0.46960 0.72220 0.11100
C 	C 	0.78200 0.49180 0.01125 0.11200
C 	C 	0.71260 0.52540 0.02810 -0.08000
C 	C 	0.67710 0.57050 0.99990 -0.07500
C 	C 	0.72430 0.56590 0.96450 0.11000
C 	C 	0.71200 0.61160 0.92960 -0.10800
C 	C 	0.75930 0.60570 0.89592 0.11100
C 	C 	0.75020 0.65540 0.86140 -0.08000
C 	C 	0.79870 0.62590 0.83280 -0.08100
C 	C 	0.83780 0.55780 0.84852 0.10900
C 	C 	0.88190 0.50270 0.82433 -0.10200
C 	C 	0.91330 0.43190 0.83963 0.11800
C 	C 	0.95050 0.36930 0.81490 -0.07600
C 	C 	0.98310 0.32030 0.84280 -0.06700
C 	C 	0.96820 0.35620 0.88660 0.10200
C 	C 	0.00500 0.33500 0.92700 -0.09300
C 	C 	0.98480 0.36860 0.96862 0.10400
C 	C 	0.02130 0.34970 0.01130 -0.05700
C 	C 	0.97500 0.37960 0.04130 -0.06300
C 	C 	0.90930 0.41930 0.01701 0.11500
C 	C 	0.84030 0.44870 0.03383 -0.10700
C 	C 	0.64750 0.67110 0.92820 0.13700
C 	C 	0.66910 0.75590 0.94880 -0.19300
C 	C 	0.61550 0.81410 0.94247 0.11000
C 	C 	0.53390 0.78790 0.91466 -0.20500
C 	C 	0.51040 0.70160 0.89560 0.11200
C 	C 	0.56560 0.64340 0.90250 -0.19100
C 	C 	0.47580 0.85140 0.90719 0.41900
C 	C 	0.89940 0.52080 0.78147 0.12800
C 	C 	0.86500 0.46760 0.73980 -0.17900
C 	C 	0.88470 0.48450 0.70030 0.09800
C 	C 	0.94100 0.55580 0.70268 -0.17900
C 	C 	0.97180 0.61340 0.74290 0.10300
C 	C 	0.95200 0.59540 0.78230 -0.17000
C 	C 	0.97160 0.57160 0.66154 0.39800
C 	C 	0.06770 0.27330 0.92570 0.10700
C 	C 	0.13920 0.28980 0.90940 -0.13800
C 	C 	0.19800 0.23420 0.90650 0.04200
C 	C 	0.18530 0.15750 0.92230 -0.10400
C 	C 	0.11210 0.13970 0.93790 0.04600
C 	C 	0.05410 0.19790 0.93910 -0.14100
C 	C 	0.25080 0.09800 0.91900 0.30300
C 	C 	0.82770 0.42870 0.07723 0.13900
C 	C 	0.76340 0.36400 0.07690 -0.18200
C 	C 	0.75130 0.34130 0.11720 0.12900
C 	C 	0.80460 0.38240 0.15694 -0.22200
C 	C 	0.86600 0.45020 0.15773 0.12800
C 	C 	0.87760 0.47200 0.11860 -0.19600
C 	C 	0.79530 0.35450 0.19910 0.48900
C 	C 	0.88400 0.10120 0.78802 0.10500
C 	C 	0.90360 0.06480 0.82770 -0.07500
C 	C 	0.85760 0.09840 0.85637 -0.07700
C 	C 	0.80720 0.15500 0.83514 0.10900
C 	C 	0.75330 0.20430 0.85558 -0.10200
C 	C 	0.71150 0.26590 0.83771 0.11800
C 	C 	0.65860 0.31820 0.85950 -0.07400
C 	C 	0.62460 0.36620 0.83120 -0.06300
C 	C 	0.65630 0.34230 0.78970 0.10400
C 	C 	0.06220 0.04040 0.77620 -0.16500
C 	C 	0.12180 0.98280 0.77660 0.09500
C 	C 	0.73960 0.18840 0.90020 0.13200
C 	C 	0.79150 0.23210 0.93880 -0.17900
C 	C 	0.78640 0.21460 0.97970 0.08900
C 	C 	0.72470 0.15090 0.98360 -0.14900
C 	C 	0.66970 0.10670 0.94440 0.08200
C 	C 	0.67870 0.12390 0.90270 -0.16200
C 	C 	0.72020 0.13220 0.02950 0.38500
C 	C 	0.58760 0.51480 0.77720 -0.18400
C 	C 	0.53040 0.57200 0.77780 0.11100
C 	C 	0.49180 0.78200 0.51125 0.11300
C 	C 	0.52540 0.71260 0.52810 -0.08000
C 	C 	0.57050 0.67710 0.49990 -0.07500
C 	C 	0.56590 0.72430 0.46450 0.11000
C 	C 	0.61160 0.71200 0.42960 -0.10800
C 	C 	0.60570 0.75930 0.39592 0.11100
C 	C 	0.65540 0.75020 0.36140 -0.08000
C 	C 	0.62590 0.79870 0.33280 -0.08100
C 	C 	0.55780 0.83780 0.34852 0.10900
C 	C 	0.50270 0.88190 0.32433 -0.10200
C 	C 	0.43190 0.91330 0.33963 0.11800
C 	C 	0.36930 0.95050 0.31490 -0.07600
C 	C 	0.32030 0.98310 0.34280 -0.06700
C 	C 	0.35620 0.96820 0.38660 0.10200
C 	C 	0.33500 0.00500 0.42700 -0.09200
C 	C 	0.36860 0.98480 0.46862 0.10300
C 	C 	0.34970 0.02130 0.51130 -0.05700
C 	C 	0.37960 0.97500 0.54130 -0.06300
C 	C 	0.41930 0.90930 0.51701 0.11600
C 	C 	0.44870 0.84030 0.53383 -0.10800
C 	C 	0.67110 0.64750 0.42820 0.13700
C 	C 	0.75590 0.66910 0.44880 -0.19300
C 	C 	0.81410 0.61550 0.44247 0.11000
C 	C 	0.78790 0.53390 0.41466 -0.20500
C 	C 	0.70160 0.51040 0.39560 0.11200
C 	C 	0.64340 0.56560 0.40250 -0.19100
C 	C 	0.85140 0.47580 0.40719 0.41900
C 	C 	0.52080 0.89940 0.28147 0.12900
C 	C 	0.46760 0.86500 0.23980 -0.17900
C 	C 	0.48450 0.88470 0.20030 0.09900
C 	C 	0.55580 0.94100 0.20268 -0.18000
C 	C 	0.61340 0.97180 0.24290 0.10400
C 	C 	0.59540 0.95200 0.28230 -0.17100
C 	C 	0.57160 0.97160 0.16154 0.39900
C 	C 	0.27330 0.06770 0.42570 0.10700
C 	C 	0.28980 0.13920 0.40940 -0.13800
C 	C 	0.23420 0.19800 0.40650 0.04200
C 	C 	0.15750 0.18530 0.42230 -0.10400
C 	C 	0.13970 0.11210 0.43790 0.04600
C 	C 	0.19790 0.05410 0.43910 -0.14000
C 	C 	0.09800 0.25080 0.41900 0.30300
C 	C 	0.42870 0.82770 0.57723 0.13900
C 	C 	0.36400 0.76340 0.57690 -0.18300
C 	C 	0.34130 0.75130 0.61720 0.12900
C 	C 	0.38240 0.80460 0.65694 -0.22200
C 	C 	0.45020 0.86600 0.65773 0.12800
C 	C 	0.47200 0.87760 0.61860 -0.19600
C 	C 	0.35450 0.79530 0.69910 0.48900
C 	C 	0.10120 0.88400 0.28802 0.10500
C 	C 	0.06480 0.90360 0.32770 -0.07500
C 	C 	0.09840 0.85760 0.35637 -0.07700
C 	C 	0.15500 0.80720 0.33514 0.10900
C 	C 	0.20430 0.75330 0.35558 -0.10100
C 	C 	0.26590 0.71150 0.33771 0.11800
C 	C 	0.31820 0.65860 0.35950 -0.07400
C 	C 	0.36620 0.62460 0.33120 -0.06300
C 	C 	0.34230 0.65630 0.28970 0.10400
C 	C 	0.04040 0.06220 0.27620 -0.16600
C 	C 	0.98280 0.12180 0.27660 0.09600
C 	C 	0.18840 0.73960 0.40020 0.13100
C 	C 	0.23210 0.79150 0.43880 -0.17900
C 	C 	0.21460 0.78640 0.47970 0.08800
C 	C 	0.15090 0.72470 0.48360 -0.14900
C 	C 	0.10670 0.66970 0.44440 0.08200
C 	C 	0.12390 0.67870 0.40270 -0.16200
C 	C 	0.13220 0.72020 0.52950 0.38600
C 	C 	0.51480 0.58760 0.27720 -0.18400
C 	C 	0.57200 0.53040 0.27780 0.11100
C 	C 	0.21800 0.50820 0.98875 0.11200
C 	C 	0.28740 0.47460 0.97190 -0.08000
C 	C 	0.32290 0.42950 0.00010 -0.07500
C 	C 	0.27570 0.43410 0.03550 0.11000
C 	C 	0.28800 0.38840 0.07040 -0.10800
C 	C 	0.24070 0.39430 0.10408 0.11100
C 	C 	0.24980 0.34460 0.13860 -0.08000
C 	C 	0.20130 0.37410 0.16720 -0.08100
C 	C 	0.16220 0.44220 0.15148 0.10900
C 	C 	0.11810 0.49730 0.17567 -0.10200
C 	C 	0.08670 0.56810 0.16037 0.11800
C 	C 	0.04950 0.63070 0.18510 -0.07600
C 	C 	0.01690 0.67970 0.15720 -0.06700
C 	C 	0.03180 0.64380 0.11340 0.10200
C 	C 	0.99500 0.66500 0.07300 -0.09300
C 	C 	0.01520 0.63140 0.03138 0.10400
C 	C 	0.97870 0.65030 0.98870 -0.05700
C 	C 	0.02500 0.62040 0.95870 -0.06300
C 	C 	0.09070 0.58070 0.98299 0.11500
C 	C 	0.15970 0.55130 0.96617 -0.10700
C 	C 	0.35250 0.32890 0.07180 0.13700
C 	C 	0.33090 0.24410 0.05120 -0.19300
C 	C 	0.38450 0.18590 0.05753 0.11000
C 	C 	0.46610 0.21210 0.08534 -0.20500
C 	C 	0.48960 0.29840 0.10440 0.11200
C 	C 	0.43440 0.35660 0.09750 -0.19100
C 	C 	0.52420 0.14860 0.09281 0.41900
C 	C 	0.10060 0.47920 0.21853 0.12800
C 	C 	0.13500 0.53240 0.26020 -0.17900
C 	C 	0.11530 0.51550 0.29970 0.09800
C 	C 	0.05900 0.44420 0.29732 -0.17900
C 	C 	0.02820 0.38660 0.25710 0.10300
C 	C 	0.04800 0.40460 0.21770 -0.17000
C 	C 	0.02840 0.42840 0.33846 0.39800
C 	C 	0.93230 0.72670 0.07430 0.10700
C 	C 	0.86080 0.71020 0.09060 -0.13800
C 	C 	0.80200 0.76580 0.09350 0.04200
C 	C 	0.81470 0.84250 0.07770 -0.10400
C 	C 	0.88790 0.86030 0.06210 0.04600
C 	C 	0.94590 0.80210 0.06090 -0.14100
C 	C 	0.74920 0.90200 0.08100 0.30300
C 	C 	0.17230 0.57130 0.92277 0.13900
C 	C 	0.23660 0.63600 0.92310 -0.18200
C 	C 	0.24870 0.65870 0.88280 0.12900
C 	C 	0.19540 0.61760 0.84306 -0.22200
C 	C 	0.13400 0.54980 0.84227 0.12800
C 	C 	0.12240 0.52800 0.88140 -0.19600
C 	C 	0.20470 0.64550 0.80090 0.48900
C 	C 	0.11600 0.89880 0.21198 0.10500
C 	C 	0.09640 0.93520 0.17230 -0.07500
C 	C 	0.14240 0.90160 0.14363 -0.07700
C 	C 	0.19280 0.84500 0.16486 0.10900
C 	C 	0.24670 0.79570 0.14442 -0.10200
C 	C 	0.28850 0.73410 0.16229 0.11800
C 	C 	0.34140 0.68180 0.14050 -0.07400
C 	C 	0.37540 0.63380 0.16880 -0.06300
C 	C 	0.34370 0.65770 0.21030 0.10400
C 	C 	0.93780 0.95960 0.22380 -0.16500
C 	C 	0.87820 0.01720 0.22340 0.09500
C 	C 	0.26040 0.81160 0.09980 0.13200
C 	C 	0.20850 0.76790 0.06120 -0.17900
C 	C 	0.21360 0.78540 0.02030 0.08900
C 	C 	0.27530 0.84910 0.01640 -0.14900
C 	C 	0.33030 0.89330 0.05560 0.08200
C 	C 	0.32130 0.87610 0.09730 -0.16200
C 	C 	0.27980 0.86780 0.97050 0.38500
C 	C 	0.41240 0.48520 0.22280 -0.18400
C 	C 	0.46960 0.42800 0.22220 0.11100
C 	C 	0.91860 0.08140 0.75000 -0.10100
C 	C 	0.62880 0.37120 0.75000 -0.10300
C 	C 	0.98150 0.01850 0.75000 0.11900
C 	C 	0.09980 0.90020 0.75000 -0.20900
C 	C 	0.16070 0.83930 0.75000 0.49400
C 	C 	0.56740 0.43260 0.75000 0.13100
C 	C 	0.44910 0.55090 0.75000 -0.20000
C 	C 	0.38590 0.61410 0.75000 0.47900
C 	C 	0.08140 0.91860 0.25000 -0.10100
C 	C 	0.37120 0.62880 0.25000 -0.10300
C 	C 	0.01850 0.98150 0.25000 0.11900
C 	C 	0.90020 0.09980 0.25000 -0.20900
C 	C 	0.83930 0.16070 0.25000 0.49400
C 	C 	0.43260 0.56740 0.25000 0.13100
C 	C 	0.55090 0.44910 0.25000 -0.20000
C 	C 	0.61410 0.38590 0.25000 0.47900
N 	N 	0.48456 0.21404 0.52885 -0.08600
N 	N 	0.45190 0.18670 0.61208 -0.08500
N 	N 	0.57940 0.08000 0.61717 -0.08500
N 	N 	0.58377 0.08083 0.52658 -0.08300
N 	N 	0.84388 0.17492 0.70667 -0.08400
N 	N 	0.71791 0.28949 0.70455 -0.08800
N 	N 	0.78596 0.51544 0.97115 -0.08600
N 	N 	0.81330 0.54810 0.88792 -0.08500
N 	N 	0.92000 0.42060 0.88283 -0.08600
N 	N 	0.91917 0.41623 0.97342 -0.08300
N 	N 	0.82508 0.15612 0.79333 -0.08400
N 	N 	0.71051 0.28209 0.79545 -0.08800
N 	N 	0.51544 0.78596 0.47115 -0.08600
N 	N 	0.54810 0.81330 0.38792 -0.08500
N 	N 	0.42060 0.92000 0.38283 -0.08500
N 	N 	0.41623 0.91917 0.47342 -0.08300
N 	N 	0.15612 0.82508 0.29333 -0.08400
N 	N 	0.28209 0.71051 0.29545 -0.08800
N 	N 	0.21404 0.48456 0.02885 -0.08600
N 	N 	0.18670 0.45190 0.11208 -0.08500
N 	N 	0.08000 0.57940 0.11717 -0.08600
N 	N 	0.08083 0.58377 0.02658 -0.08300
N 	N 	0.17492 0.84388 0.20667 -0.08400
N 	N 	0.28949 0.71791 0.20455 -0.08800
Cl	Cl	0.52538 0.14090 0.57151 -0.25200
Cl	Cl	0.85910 0.47462 0.92849 -0.25200
Cl	Cl	0.47462 0.85910 0.42849 -0.25200
Cl	Cl	0.14090 0.52538 0.07151 -0.25200
Cl	Cl	0.77507 0.22493 0.75000 -0.25800
Cl	Cl	0.22493 0.77507 0.25000 -0.25800
O 	O 	0.07461 0.50419 0.57233 -0.46700
O 	O 	0.17418 0.59636 0.62117 -0.55800
O 	O 	0.46542 0.06966 0.87711 -0.40600
O 	O 	0.37635 0.96093 0.83376 -0.59800
O 	O 	0.90298 0.70522 0.60990 -0.40900
O 	O 	0.95180 0.74220 0.55330 -0.39000
O 	O 	0.70932 0.25968 0.30291 -0.56000
O 	O 	0.60499 0.15861 0.26379 -0.51100
O 	O 	0.13704 0.76528 0.72612 -0.50900
O 	O 	0.83970 0.21650 0.43950 -0.30300
O 	O 	0.91123 0.34677 0.46722 -0.45500
O 	O 	0.31204 0.58962 0.72546 -0.50800
O 	O 	0.49581 0.92539 0.92767 -0.46700
O 	O 	0.40364 0.82582 0.87883 -0.55800
O 	O 	0.93034 0.53458 0.62289 -0.40600
O 	O 	0.03907 0.62365 0.66624 -0.59800
O 	O 	0.29478 0.09702 0.89010 -0.40900
O 	O 	0.25780 0.04820 0.94670 -0.38900
O 	O 	0.74032 0.29068 0.19709 -0.56000
O 	O 	0.84139 0.39501 0.23621 -0.51100
O 	O 	0.23472 0.86296 0.77388 -0.50900
O 	O 	0.78350 0.16030 0.06050 -0.30300
O 	O 	0.65323 0.08877 0.03278 -0.45500
O 	O 	0.41038 0.68796 0.77454 -0.50800
O 	O 	0.92539 0.49581 0.42767 -0.46700
O 	O 	0.82582 0.40364 0.37883 -0.55800
O 	O 	0.53458 0.93034 0.12289 -0.40600
O 	O 	0.62365 0.03907 0.16624 -0.59800
O 	O 	0.09702 0.29478 0.39010 -0.40900
O 	O 	0.04820 0.25780 0.44670 -0.39000
O 	O 	0.29068 0.74032 0.69709 -0.56000
O 	O 	0.39501 0.84139 0.73621 -0.51100
O 	O 	0.86296 0.23472 0.27388 -0.50900
O 	O 	0.16030 0.78350 0.56050 -0.30300
O 	O 	0.08877 0.65323 0.53278 -0.45500
O 	O 	0.68796 0.41038 0.27454 -0.50800
O 	O 	0.50419 0.07461 0.07233 -0.46700
O 	O 	0.59636 0.17418 0.12117 -0.55800
O 	O 	0.06966 0.46542 0.37711 -0.40600
O 	O 	0.96093 0.37635 0.33376 -0.59800
O 	O 	0.70522 0.90298 0.10990 -0.40900
O 	O 	0.74220 0.95180 0.05330 -0.38900
O 	O 	0.25968 0.70932 0.80291 -0.56000
O 	O 	0.15861 0.60499 0.76379 -0.51100
O 	O 	0.76528 0.13704 0.22612 -0.50900
O 	O 	0.21650 0.83970 0.93950 -0.30300
O 	O 	0.34677 0.91123 0.96722 -0.45500
O 	O 	0.58962 0.31204 0.22546 -0.50800
