data_crystal

_cell_length_a 17.12500
_cell_length_b 22.10150
_cell_length_c 24.93800
_cell_angle_alpha 90.00000
_cell_angle_beta  90.00000
_cell_angle_gamma 112.79400

_symmetry_space_group_name_	'P 1'
_symmetry_space_group_name_H-M	'P 1'

loop_
_symmetry_equiv_pos_as_xyz
  x,y,z

loop_
_atom_site_label
_atom_site_type_symbol
_atom_site_fract_x
_atom_site_fract_y
_atom_site_fract_z
_atom_site_charge
Cd	Cd	0.75000 0.50000 0.93226 1.16000
Cd	Cd	0.25000 0.50000 0.43226 1.16000
Cd	Cd	0.75000 -0.00000 0.43929 1.13400
Cd	Cd	0.75000 0.00000 0.93929 1.13400
H 	H 	0.77530 0.87720 0.49450 -0.06500
H 	H 	0.72580 0.80040 0.56170 0.14400
H 	H 	0.56290 0.88020 0.59980 0.16100
H 	H 	0.61480 0.95220 0.53090 -0.06000
H 	H 	0.64990 0.72140 0.61450 0.02500
H 	H 	0.70410 0.77000 0.65910 0.03400
H 	H 	0.47620 0.68980 0.65400 0.03000
H 	H 	0.46940 0.63240 0.69370 0.03600
H 	H 	0.36090 0.61840 0.61630 0.13500
H 	H 	0.27020 0.57620 0.54570 -0.05700
H 	H 	0.44140 0.53860 0.46730 -0.05900
H 	H 	0.53630 0.57600 0.53740 0.12700
H 	H 	0.54150 0.71520 0.76350 0.03500
H 	H 	0.54960 0.77240 0.72300 0.04000
H 	H 	0.55760 0.82100 0.80320 0.16400
H 	H 	0.59090 0.89580 0.87330 -0.06500
H 	H 	0.82420 0.92960 0.86040 -0.07500
H 	H 	0.79790 0.85280 0.79270 0.17000
H 	H 	0.68930 0.68740 0.72500 0.03000
H 	H 	0.64920 0.63800 0.67780 0.02700
H 	H 	0.74140 0.63320 0.76370 0.14200
H 	H 	0.79040 0.58520 0.82930 -0.07400
H 	H 	0.56370 0.48040 0.87670 -0.05400
H 	H 	0.50830 0.52400 0.81100 0.15800
H 	H 	0.72470 0.12280 0.49450 -0.08500
H 	H 	0.77420 0.19960 0.56170 0.14100
H 	H 	0.93710 0.11980 0.59980 0.14300
H 	H 	0.88520 0.04780 0.53090 -0.10900
H 	H 	0.85010 0.27860 0.61450 0.02200
H 	H 	0.79590 0.23000 0.65910 0.02400
H 	H 	0.02380 0.31020 0.65400 0.03200
H 	H 	0.03060 0.36760 0.69370 0.03900
H 	H 	0.13910 0.38160 0.61630 0.13400
H 	H 	0.22980 0.42380 0.54570 -0.05800
H 	H 	0.05860 0.46140 0.46730 -0.05700
H 	H 	0.96370 0.42400 0.53740 0.12300
H 	H 	0.95850 0.28480 0.76350 0.03100
H 	H 	0.95040 0.22760 0.72300 0.02900
H 	H 	0.94240 0.17900 0.80320 0.15800
H 	H 	0.90910 0.10420 0.87330 -0.09300
H 	H 	0.67580 0.07040 0.86040 -0.11500
H 	H 	0.70210 0.14720 0.79270 0.15900
H 	H 	0.81070 0.31260 0.72500 0.02700
H 	H 	0.85080 0.36200 0.67780 0.02500
H 	H 	0.75860 0.36680 0.76370 0.14100
H 	H 	0.70960 0.41480 0.82930 -0.07500
H 	H 	0.93630 0.51960 0.87670 -0.05500
H 	H 	0.99170 0.47600 0.81100 0.15700
H 	H 	0.89810 0.12280 0.99450 -0.08600
H 	H 	0.92540 0.19960 0.06170 0.14200
H 	H 	0.68270 0.11980 0.09980 0.14400
H 	H 	0.66260 0.04780 0.03090 -0.10800
H 	H 	0.92850 0.27860 0.11450 0.02100
H 	H 	0.93410 0.23000 0.15910 0.02400
H 	H 	0.78640 0.31020 0.15400 0.02700
H 	H 	0.83700 0.36760 0.19370 0.03300
H 	H 	0.74250 0.38160 0.11630 0.13400
H 	H 	0.69400 0.42380 0.04570 -0.05800
H 	H 	0.90280 0.46140 0.96730 -0.05900
H 	H 	0.96030 0.42400 0.03740 0.12600
H 	H 	0.82630 0.28480 0.26350 0.03100
H 	H 	0.77720 0.22760 0.22300 0.03000
H 	H 	0.73660 0.17900 0.30320 0.15800
H 	H 	0.69510 0.10420 0.37330 -0.09300
H 	H 	0.89460 0.07040 0.36040 -0.11600
H 	H 	0.94510 0.14720 0.29270 0.15900
H 	H 	0.00190 0.31260 0.22500 0.03000
H 	H 	0.01120 0.36200 0.17780 0.02800
H 	H 	0.10820 0.36680 0.26370 0.14100
H 	H 	0.20520 0.41480 0.32930 -0.07400
H 	H 	0.08330 0.51960 0.37670 -0.05300
H 	H 	0.98430 0.47600 0.31100 0.15400
H 	H 	0.60190 0.87720 0.99450 -0.06400
H 	H 	0.57460 0.80040 0.06170 0.14500
H 	H 	0.81730 0.88020 0.09980 0.16000
H 	H 	0.83740 0.95220 0.03090 -0.06100
H 	H 	0.57150 0.72140 0.11450 0.02500
H 	H 	0.56590 0.77000 0.15910 0.03500
H 	H 	0.71360 0.68980 0.15400 0.03000
H 	H 	0.66300 0.63240 0.19370 0.03500
H 	H 	0.75750 0.61840 0.11630 0.13500
H 	H 	0.80600 0.57620 0.04570 -0.05800
H 	H 	0.59720 0.53860 0.96730 -0.05900
H 	H 	0.53970 0.57600 0.03740 0.12700
H 	H 	0.67370 0.71520 0.26350 0.03500
H 	H 	0.72280 0.77240 0.22300 0.03900
H 	H 	0.76340 0.82100 0.30320 0.16400
H 	H 	0.80490 0.89580 0.37330 -0.06500
H 	H 	0.60540 0.92960 0.36040 -0.07400
H 	H 	0.55490 0.85280 0.29270 0.17000
H 	H 	0.49810 0.68740 0.22500 0.03100
H 	H 	0.48880 0.63800 0.17780 0.02700
H 	H 	0.39180 0.63320 0.26370 0.14300
H 	H 	0.29480 0.58520 0.32930 -0.07400
H 	H 	0.41670 0.48040 0.37670 -0.05400
H 	H 	0.51570 0.52400 0.31100 0.15800
C 	C 	0.73120 0.87780 0.51606 0.19600
C 	C 	0.70231 0.83162 0.55691 -0.33700
C 	C 	0.63990 0.83240 0.58964 0.35300
C 	C 	0.60681 0.87822 0.57894 -0.33500
C 	C 	0.63852 0.92144 0.53728 0.20600
C 	C 	0.64721 0.74682 0.64559 0.03100
C 	C 	0.59165 0.70256 0.68845 0.00700
C 	C 	0.50424 0.66168 0.66636 0.03100
C 	C 	0.45811 0.60182 0.58416 0.30400
C 	C 	0.37846 0.60172 0.58645 -0.30400
C 	C 	0.32469 0.57658 0.54378 0.15700
C 	C 	0.42454 0.55408 0.49807 0.15200
C 	C 	0.48267 0.57714 0.53966 -0.29000
C 	C 	0.57621 0.74342 0.73559 0.01300
C 	C 	0.67238 0.82536 0.79342 0.39300
C 	C 	0.61328 0.84076 0.81510 -0.37900
C 	C 	0.63437 0.88754 0.85671 0.21100
C 	C 	0.76826 0.90672 0.84990 0.23100
C 	C 	0.75323 0.85986 0.80884 -0.36200
C 	C 	0.63639 0.66038 0.70786 0.03000
C 	C 	0.61889 0.58698 0.78185 0.33800
C 	C 	0.70344 0.60308 0.78697 -0.33200
C 	C 	0.73235 0.57430 0.82696 0.18700
C 	C 	0.60034 0.51288 0.85450 0.18000
C 	C 	0.56679 0.53898 0.81513 -0.31600
C 	C 	0.76880 0.12220 0.51606 0.18500
C 	C 	0.79769 0.16838 0.55691 -0.34900
C 	C 	0.86010 0.16760 0.58964 0.34900
C 	C 	0.89319 0.12178 0.57894 -0.35300
C 	C 	0.86148 0.07856 0.53728 0.19500
C 	C 	0.85279 0.25318 0.64559 0.03800
C 	C 	0.90835 0.29744 0.68845 0.00200
C 	C 	0.99576 0.33832 0.66636 0.02400
C 	C 	0.04189 0.39818 0.58416 0.30300
C 	C 	0.12154 0.39828 0.58645 -0.30300
C 	C 	0.17531 0.42342 0.54378 0.15600
C 	C 	0.07546 0.44592 0.49807 0.14900
C 	C 	0.01733 0.42286 0.53966 -0.28400
C 	C 	0.92379 0.25658 0.73559 0.02000
C 	C 	0.82762 0.17464 0.79342 0.39300
C 	C 	0.88672 0.15924 0.81510 -0.39400
C 	C 	0.86563 0.11246 0.85671 0.20100
C 	C 	0.73174 0.09328 0.84990 0.22500
C 	C 	0.74677 0.14014 0.80884 -0.38200
C 	C 	0.86361 0.33962 0.70786 0.03400
C 	C 	0.88111 0.41302 0.78185 0.33700
C 	C 	0.79656 0.39692 0.78697 -0.33200
C 	C 	0.76765 0.42570 0.82696 0.18600
C 	C 	0.89966 0.48712 0.85450 0.18000
C 	C 	0.93321 0.46102 0.81513 -0.31600
C 	C 	0.85340 0.12220 0.01606 0.18700
C 	C 	0.87069 0.16838 0.05691 -0.35000
C 	C 	0.80750 0.16760 0.08964 0.35000
C 	C 	0.72859 0.12178 0.07894 -0.35400
C 	C 	0.71708 0.07856 0.03728 0.19600
C 	C 	0.90039 0.25318 0.14559 0.03900
C 	C 	0.88909 0.29744 0.18845 0.00100
C 	C 	0.84256 0.33832 0.16636 0.03500
C 	C 	0.85629 0.39818 0.08416 0.30400
C 	C 	0.77674 0.39828 0.08645 -0.30400
C 	C 	0.74811 0.42342 0.04378 0.15700
C 	C 	0.87046 0.44592 0.99807 0.15000
C 	C 	0.90553 0.42286 0.03966 -0.28900
C 	C 	0.83279 0.25658 0.23559 0.02000
C 	C 	0.84702 0.17464 0.29342 0.39400
C 	C 	0.77252 0.15924 0.31510 -0.39500
C 	C 	0.74683 0.11246 0.35671 0.20100
C 	C 	0.86154 0.09328 0.34990 0.22600
C 	C 	0.89337 0.14014 0.30884 -0.38200
C 	C 	0.97601 0.33962 0.20786 0.02800
C 	C 	0.03191 0.41302 0.28185 0.33700
C 	C 	0.10036 0.39692 0.28697 -0.33100
C 	C 	0.15805 0.42570 0.32696 0.18500
C 	C 	0.08746 0.48712 0.35450 0.17800
C 	C 	0.02781 0.46102 0.31513 -0.31100
C 	C 	0.64660 0.87780 0.01606 0.19600
C 	C 	0.62931 0.83162 0.05691 -0.33700
C 	C 	0.69250 0.83240 0.08964 0.35300
C 	C 	0.77141 0.87822 0.07894 -0.33600
C 	C 	0.78292 0.92144 0.03728 0.20600
C 	C 	0.59961 0.74682 0.14559 0.03100
C 	C 	0.61091 0.70256 0.18845 0.00600
C 	C 	0.65744 0.66168 0.16636 0.03100
C 	C 	0.64371 0.60182 0.08416 0.30400
C 	C 	0.72326 0.60172 0.08645 -0.30400
C 	C 	0.75189 0.57658 0.04378 0.15800
C 	C 	0.62954 0.55408 0.99807 0.15200
C 	C 	0.59447 0.57714 0.03966 -0.29000
C 	C 	0.66721 0.74342 0.23559 0.01300
C 	C 	0.65298 0.82536 0.29342 0.39300
C 	C 	0.72748 0.84076 0.31510 -0.37900
C 	C 	0.75317 0.88754 0.35671 0.21100
C 	C 	0.63846 0.90672 0.34990 0.23100
C 	C 	0.60663 0.85986 0.30884 -0.36200
C 	C 	0.52399 0.66038 0.20786 0.03000
C 	C 	0.46809 0.58698 0.28185 0.33800
C 	C 	0.39964 0.60308 0.28697 -0.33200
C 	C 	0.34195 0.57430 0.32696 0.18700
C 	C 	0.41254 0.51288 0.35450 0.18000
C 	C 	0.47219 0.53898 0.31513 -0.31600
N 	N 	0.69966 0.92198 0.50635 -0.29300
N 	N 	0.34722 0.55264 0.49950 -0.29500
N 	N 	0.68352 0.53246 0.86210 -0.30000
N 	N 	0.71262 0.92006 0.87329 -0.30600
N 	N 	0.80034 0.07802 0.50635 -0.32700
N 	N 	0.15278 0.44736 0.49950 -0.29500
N 	N 	0.81648 0.46754 0.86210 -0.30000
N 	N 	0.78738 0.07994 0.87329 -0.34000
N 	N 	0.77768 0.07802 0.00635 -0.32700
N 	N 	0.79458 0.44736 0.99950 -0.29500
N 	N 	0.15106 0.46754 0.36210 -0.29900
N 	N 	0.79256 0.07994 0.37329 -0.34000
N 	N 	0.72232 0.92198 0.00635 -0.29300
N 	N 	0.70542 0.55264 0.99950 -0.29500
N 	N 	0.34894 0.53246 0.36210 -0.30000
N 	N 	0.70744 0.92006 0.37329 -0.30600
O 	O 	0.60865 0.79276 0.63149 -0.26900
O 	O 	0.51813 0.62516 0.62271 -0.26200
O 	O 	0.66483 0.78144 0.75480 -0.27400
O 	O 	0.58203 0.61246 0.74607 -0.26600
O 	O 	0.89135 0.20724 0.63149 -0.27900
O 	O 	0.98187 0.37484 0.62271 -0.26200
O 	O 	0.83517 0.21856 0.75480 -0.28300
O 	O 	0.91797 0.38754 0.74607 -0.26800
O 	O 	0.81589 0.20724 0.13149 -0.27900
O 	O 	0.89297 0.37484 0.12271 -0.26300
O 	O 	0.88339 0.21856 0.25480 -0.28300
O 	O 	0.96957 0.38754 0.24607 -0.26700
O 	O 	0.68411 0.79276 0.13149 -0.26900
O 	O 	0.60703 0.62516 0.12271 -0.26200
O 	O 	0.61661 0.78144 0.25480 -0.27400
O 	O 	0.53043 0.61246 0.24607 -0.26600
Cd	Cd	0.75000 0.50000 0.56774 1.15900
Cd	Cd	0.25000 0.50000 0.06774 1.15900
Cd	Cd	0.25000 0.00000 0.06071 1.13300
Cd	Cd	0.25000 0.00000 0.56071 1.13300
H 	H 	0.10190 0.87720 0.00550 -0.06600
H 	H 	0.07460 0.80040 0.93830 0.14600
H 	H 	0.31730 0.88020 0.90020 0.16200
H 	H 	0.33740 0.95220 0.96910 -0.06000
H 	H 	0.07150 0.72140 0.88550 0.02500
H 	H 	0.06590 0.77000 0.84090 0.03400
H 	H 	0.21360 0.68980 0.84600 0.02900
H 	H 	0.16300 0.63240 0.80630 0.03500
H 	H 	0.25750 0.61840 0.88370 0.13500
H 	H 	0.30600 0.57620 0.95430 -0.05800
H 	H 	0.09720 0.53860 0.03270 -0.05800
H 	H 	0.03970 0.57600 0.96260 0.12700
H 	H 	0.17370 0.71520 0.73650 0.03400
H 	H 	0.22280 0.77240 0.77700 0.03900
H 	H 	0.26340 0.82100 0.69680 0.16400
H 	H 	0.30490 0.89580 0.62670 -0.06500
H 	H 	0.10540 0.92960 0.63960 -0.07300
H 	H 	0.05490 0.85280 0.70730 0.17100
H 	H 	0.99810 0.68740 0.77500 0.02200
H 	H 	0.98880 0.63800 0.82220 0.01900
H 	H 	0.89180 0.63320 0.73630 0.14300
H 	H 	0.79480 0.58520 0.67070 -0.07400
H 	H 	0.91670 0.48040 0.62330 -0.05600
H 	H 	0.01570 0.52400 0.68900 0.16300
H 	H 	0.39810 0.12280 0.00550 -0.08500
H 	H 	0.42540 0.19960 0.93830 0.14100
H 	H 	0.18270 0.11980 0.90020 0.14400
H 	H 	0.16260 0.04780 0.96910 -0.10800
H 	H 	0.42850 0.27860 0.88550 0.02100
H 	H 	0.43410 0.23000 0.84090 0.02400
H 	H 	0.28640 0.31020 0.84600 0.02600
H 	H 	0.33700 0.36760 0.80630 0.03300
H 	H 	0.24250 0.38160 0.88370 0.13400
H 	H 	0.19400 0.42380 0.95430 -0.05800
H 	H 	0.40280 0.46140 0.03270 -0.05900
H 	H 	0.46030 0.42400 0.96260 0.12600
H 	H 	0.32630 0.28480 0.73650 0.03100
H 	H 	0.27720 0.22760 0.77700 0.03000
H 	H 	0.23660 0.17900 0.69680 0.15900
H 	H 	0.19510 0.10420 0.62670 -0.09200
H 	H 	0.39460 0.07040 0.63960 -0.11500
H 	H 	0.44510 0.14720 0.70730 0.15900
H 	H 	0.50190 0.31260 0.77500 0.02700
H 	H 	0.51120 0.36200 0.82220 0.02400
H 	H 	0.60820 0.36680 0.73630 0.14100
H 	H 	0.70520 0.41480 0.67070 -0.07500
H 	H 	0.58330 0.51960 0.62330 -0.05400
H 	H 	0.48430 0.47600 0.68900 0.15800
H 	H 	0.22470 0.12280 0.50550 -0.08400
H 	H 	0.27420 0.19960 0.43830 0.14100
H 	H 	0.43710 0.11980 0.40020 0.14400
H 	H 	0.38520 0.04780 0.46910 -0.10900
H 	H 	0.35010 0.27860 0.38550 0.02100
H 	H 	0.29590 0.23000 0.34090 0.02400
H 	H 	0.52380 0.31020 0.34600 0.02600
H 	H 	0.53060 0.36760 0.30630 0.03300
H 	H 	0.63910 0.38160 0.38370 0.13400
H 	H 	0.72980 0.42380 0.45430 -0.05800
H 	H 	0.55860 0.46140 0.53270 -0.05900
H 	H 	0.46370 0.42400 0.46260 0.12700
H 	H 	0.45850 0.28480 0.23650 0.03100
H 	H 	0.45040 0.22760 0.27700 0.02900
H 	H 	0.44240 0.17900 0.19680 0.15800
H 	H 	0.40910 0.10420 0.12670 -0.09300
H 	H 	0.17580 0.07040 0.13960 -0.11500
H 	H 	0.20210 0.14720 0.20730 0.15900
H 	H 	0.31070 0.31260 0.27500 0.02700
H 	H 	0.35080 0.36200 0.32220 0.02500
H 	H 	0.25860 0.36680 0.23630 0.14100
H 	H 	0.20960 0.41480 0.17070 -0.07500
H 	H 	0.43630 0.51960 0.12330 -0.05400
H 	H 	0.49170 0.47600 0.18900 0.15800
H 	H 	0.27530 0.87720 0.50550 -0.06400
H 	H 	0.22580 0.80040 0.43830 0.14500
H 	H 	0.06290 0.88020 0.40020 0.16200
H 	H 	0.11480 0.95220 0.46910 -0.06000
H 	H 	0.14990 0.72140 0.38550 0.02500
H 	H 	0.20410 0.77000 0.34090 0.03400
H 	H 	0.97620 0.68980 0.34600 0.02400
H 	H 	0.96940 0.63240 0.30630 0.03000
H 	H 	0.86090 0.61840 0.38370 0.13500
H 	H 	0.77020 0.57620 0.45430 -0.05800
H 	H 	0.94140 0.53860 0.53270 -0.06000
H 	H 	0.03630 0.57600 0.46260 0.13100
H 	H 	0.04150 0.71520 0.23650 0.03500
H 	H 	0.04960 0.77240 0.27700 0.04000
H 	H 	0.05760 0.82100 0.19680 0.16400
H 	H 	0.09090 0.89580 0.12670 -0.06500
H 	H 	0.32420 0.92960 0.13960 -0.07400
H 	H 	0.29790 0.85280 0.20730 0.17000
H 	H 	0.18930 0.68740 0.27500 0.03000
H 	H 	0.14920 0.63800 0.32220 0.02600
H 	H 	0.24140 0.63320 0.23630 0.14300
H 	H 	0.29040 0.58520 0.17070 -0.07400
H 	H 	0.06370 0.48040 0.12330 -0.05400
H 	H 	0.00830 0.52400 0.18900 0.15800
C 	C 	0.14660 0.87780 0.98394 0.19800
C 	C 	0.12931 0.83162 0.94309 -0.33900
C 	C 	0.19250 0.83240 0.91036 0.35400
C 	C 	0.27141 0.87822 0.92106 -0.33600
C 	C 	0.28292 0.92144 0.96272 0.20700
C 	C 	0.09961 0.74682 0.85441 0.03400
C 	C 	0.11091 0.70256 0.81155 0.00100
C 	C 	0.15744 0.66168 0.83364 0.03400
C 	C 	0.14371 0.60182 0.91584 0.30400
C 	C 	0.22326 0.60172 0.91355 -0.30400
C 	C 	0.25189 0.57658 0.95622 0.15800
C 	C 	0.12954 0.55408 0.00193 0.15100
C 	C 	0.09447 0.57714 0.96034 -0.28800
C 	C 	0.16721 0.74342 0.76441 0.01500
C 	C 	0.15298 0.82536 0.70658 0.39300
C 	C 	0.22748 0.84076 0.68490 -0.37900
C 	C 	0.25317 0.88754 0.64329 0.21100
C 	C 	0.13846 0.90672 0.65010 0.23100
C 	C 	0.10663 0.85986 0.69116 -0.36200
C 	C 	0.02399 0.66038 0.79214 0.04800
C 	C 	0.96809 0.58698 0.71815 0.33900
C 	C 	0.89964 0.60308 0.71303 -0.33300
C 	C 	0.84195 0.57430 0.67304 0.18700
C 	C 	0.91254 0.51288 0.64550 0.18400
C 	C 	0.97219 0.53898 0.68487 -0.32400
C 	C 	0.35340 0.12220 0.98394 0.18500
C 	C 	0.37069 0.16838 0.94309 -0.34900
C 	C 	0.30750 0.16760 0.91036 0.34900
C 	C 	0.22859 0.12178 0.92106 -0.35300
C 	C 	0.21708 0.07856 0.96272 0.19600
C 	C 	0.40039 0.25318 0.85441 0.04100
C 	C 	0.38909 0.29744 0.81155 -0.00200
C 	C 	0.34256 0.33832 0.83364 0.03600
C 	C 	0.35629 0.39818 0.91584 0.30400
C 	C 	0.27674 0.39828 0.91355 -0.30500
C 	C 	0.24811 0.42342 0.95622 0.15700
C 	C 	0.37046 0.44592 0.00193 0.15100
C 	C 	0.40553 0.42286 0.96034 -0.29000
C 	C 	0.33279 0.25658 0.76441 0.02100
C 	C 	0.34702 0.17464 0.70658 0.39400
C 	C 	0.27252 0.15924 0.68490 -0.39400
C 	C 	0.24683 0.11246 0.64329 0.20100
C 	C 	0.36154 0.09328 0.65010 0.22600
C 	C 	0.39337 0.14014 0.69116 -0.38200
C 	C 	0.47601 0.33962 0.79214 0.03600
C 	C 	0.53191 0.41302 0.71815 0.33800
C 	C 	0.60036 0.39692 0.71303 -0.33200
C 	C 	0.65805 0.42570 0.67304 0.18600
C 	C 	0.58746 0.48712 0.64550 0.18000
C 	C 	0.52781 0.46102 0.68487 -0.31600
C 	C 	0.26880 0.12220 0.48394 0.18500
C 	C 	0.29769 0.16838 0.44309 -0.34900
C 	C 	0.36010 0.16760 0.41036 0.34900
C 	C 	0.39319 0.12178 0.42106 -0.35300
C 	C 	0.36148 0.07856 0.46272 0.19600
C 	C 	0.35279 0.25318 0.35441 0.04100
C 	C 	0.40835 0.29744 0.31155 -0.00200
C 	C 	0.49576 0.33832 0.33364 0.03700
C 	C 	0.54189 0.39818 0.41584 0.30400
C 	C 	0.62154 0.39828 0.41355 -0.30500
C 	C 	0.67531 0.42342 0.45622 0.15600
C 	C 	0.57546 0.44592 0.50193 0.15200
C 	C 	0.51733 0.42286 0.46034 -0.29000
C 	C 	0.42379 0.25658 0.26441 0.02100
C 	C 	0.32762 0.17464 0.20658 0.39400
C 	C 	0.38672 0.15924 0.18490 -0.39400
C 	C 	0.36563 0.11246 0.14329 0.20100
C 	C 	0.23174 0.09328 0.15010 0.22600
C 	C 	0.24677 0.14014 0.19116 -0.38200
C 	C 	0.36361 0.33962 0.29214 0.03600
C 	C 	0.38111 0.41302 0.21815 0.33800
C 	C 	0.29656 0.39692 0.21303 -0.33200
C 	C 	0.26765 0.42570 0.17304 0.18600
C 	C 	0.39966 0.48712 0.14550 0.18000
C 	C 	0.43321 0.46102 0.18487 -0.31600
C 	C 	0.23120 0.87780 0.48394 0.19600
C 	C 	0.20231 0.83162 0.44309 -0.33700
C 	C 	0.13990 0.83240 0.41036 0.35400
C 	C 	0.10681 0.87822 0.42106 -0.33500
C 	C 	0.13852 0.92144 0.46272 0.20700
C 	C 	0.14721 0.74682 0.35441 0.03300
C 	C 	0.09165 0.70256 0.31155 0.00300
C 	C 	0.00424 0.66168 0.33364 0.04300
C 	C 	0.95811 0.60182 0.41584 0.30600
C 	C 	0.87846 0.60172 0.41355 -0.30500
C 	C 	0.82469 0.57658 0.45622 0.15800
C 	C 	0.92454 0.55408 0.50193 0.15500
C 	C 	0.98267 0.57714 0.46034 -0.29700
C 	C 	0.07621 0.74342 0.26441 0.01500
C 	C 	0.17238 0.82536 0.20658 0.39300
C 	C 	0.11328 0.84076 0.18490 -0.37900
C 	C 	0.13437 0.88754 0.14329 0.21100
C 	C 	0.26826 0.90672 0.15010 0.23100
C 	C 	0.25323 0.85986 0.19116 -0.36200
C 	C 	0.13639 0.66038 0.29214 0.03200
C 	C 	0.11889 0.58698 0.21815 0.33800
C 	C 	0.20344 0.60308 0.21303 -0.33200
C 	C 	0.23235 0.57430 0.17304 0.18700
C 	C 	0.10034 0.51288 0.14550 0.18100
C 	C 	0.06679 0.53898 0.18487 -0.31600
N 	N 	0.22232 0.92198 0.99365 -0.29300
N 	N 	0.20542 0.55264 0.00050 -0.29500
N 	N 	0.84894 0.53246 0.63790 -0.30100
N 	N 	0.20744 0.92006 0.62671 -0.30500
N 	N 	0.27768 0.07802 0.99365 -0.32700
N 	N 	0.29458 0.44736 0.00050 -0.29500
N 	N 	0.65106 0.46754 0.63790 -0.30000
N 	N 	0.29256 0.07994 0.62671 -0.34000
N 	N 	0.30034 0.07802 0.49365 -0.32700
N 	N 	0.65278 0.44736 0.50050 -0.29500
N 	N 	0.31648 0.46754 0.13790 -0.30000
N 	N 	0.28738 0.07994 0.12671 -0.34000
N 	N 	0.19966 0.92198 0.49365 -0.29200
N 	N 	0.84722 0.55264 0.50050 -0.29600
N 	N 	0.18352 0.53246 0.13790 -0.30000
N 	N 	0.21262 0.92006 0.12671 -0.30500
O 	O 	0.18411 0.79276 0.86851 -0.26900
O 	O 	0.10703 0.62516 0.87729 -0.26100
O 	O 	0.11661 0.78144 0.74520 -0.27400
O 	O 	0.03043 0.61246 0.75393 -0.26700
O 	O 	0.31589 0.20724 0.86851 -0.27900
O 	O 	0.39297 0.37484 0.87729 -0.26300
O 	O 	0.38339 0.21856 0.74520 -0.28300
O 	O 	0.46957 0.38754 0.75393 -0.26700
O 	O 	0.39135 0.20724 0.36851 -0.27900
O 	O 	0.48187 0.37484 0.37729 -0.26300
O 	O 	0.33517 0.21856 0.24520 -0.28300
O 	O 	0.41797 0.38754 0.25393 -0.26700
O 	O 	0.10865 0.79276 0.36851 -0.26800
O 	O 	0.01813 0.62516 0.37729 -0.26300
O 	O 	0.16483 0.78144 0.24520 -0.27400
O 	O 	0.08203 0.61246 0.25393 -0.26600
