data_crystal

_cell_length_a 18.85230
_cell_length_b 18.85230
_cell_length_c 18.85230
_cell_angle_alpha 60.51770
_cell_angle_beta  60.51770
_cell_angle_gamma 60.51770

_symmetry_space_group_name_	'P 1'
_symmetry_space_group_name_H-M	'P 1'

loop_
_symmetry_equiv_pos_as_xyz
  x,y,z

loop_
_atom_site_label
_atom_site_type_symbol
_atom_site_fract_x
_atom_site_fract_y
_atom_site_fract_z
_atom_site_charge
Ni	Ni	0.35129 0.25126 0.14832 1.21200
Ni	Ni	0.14855 0.35122 0.25110 1.21200
Ni	Ni	0.25133 0.14848 0.35107 1.21200
Ni	Ni	0.64855 0.75126 0.85107 1.21200
Ni	Ni	0.85129 0.64848 0.75111 1.21200
Ni	Ni	0.75133 0.85122 0.64832 1.21200
H 	H 	0.74434 0.29576 0.89361 0.04900
H 	H 	0.80103 0.40861 0.85470 0.03600
H 	H 	0.54895 0.59780 0.85952 0.03600
H 	H 	0.49175 0.48553 0.90500 0.05300
H 	H 	0.48059 0.34826 0.04629 0.04200
H 	H 	0.89383 0.74428 0.29560 0.04900
H 	H 	0.85492 0.80097 0.40846 0.03600
H 	H 	0.85975 0.54888 0.59764 0.03600
H 	H 	0.90523 0.49169 0.48537 0.05200
H 	H 	0.04652 0.48053 0.34810 0.04100
H 	H 	0.29583 0.89377 0.74412 0.04800
H 	H 	0.40868 0.85485 0.80081 0.03500
H 	H 	0.59787 0.85968 0.54873 0.03500
H 	H 	0.48559 0.90516 0.49153 0.05200
H 	H 	0.34833 0.04645 0.48037 0.04100
H 	H 	0.20859 0.75275 0.60456 0.04800
H 	H 	0.09523 0.69622 0.64438 0.03500
H 	H 	0.90701 0.94908 0.63752 0.03500
H 	H 	0.01956 0.00593 0.59155 0.05200
H 	H 	0.15490 0.01811 0.45162 0.04200
H 	H 	0.75282 0.60472 0.20837 0.04800
H 	H 	0.69629 0.64453 0.09500 0.03500
H 	H 	0.94915 0.63768 0.90678 0.03500
H 	H 	0.00600 0.59171 0.01933 0.05200
H 	H 	0.01818 0.45178 0.15467 0.04200
H 	H 	0.60479 0.20853 0.75260 0.04800
H 	H 	0.64460 0.09516 0.69606 0.03500
H 	H 	0.63774 0.90694 0.94892 0.03500
H 	H 	0.59178 0.01949 0.00577 0.05200
H 	H 	0.45184 0.15483 0.01795 0.04200
H 	H 	0.25282 0.70853 0.10456 0.04800
H 	H 	0.19629 0.59516 0.14437 0.03500
H 	H 	0.44915 0.40694 0.13752 0.03500
H 	H 	0.50600 0.51949 0.09155 0.05200
H 	H 	0.51818 0.65483 0.95162 0.04100
H 	H 	0.10478 0.25275 0.70837 0.04800
H 	H 	0.14460 0.19622 0.59500 0.03500
H 	H 	0.13774 0.44908 0.40678 0.03500
H 	H 	0.09178 0.50593 0.51933 0.05200
H 	H 	0.95184 0.51811 0.65467 0.04100
H 	H 	0.70859 0.10472 0.25260 0.04800
H 	H 	0.59523 0.14453 0.19606 0.03500
H 	H 	0.40701 0.13768 0.44892 0.03500
H 	H 	0.51956 0.09171 0.50577 0.05200
H 	H 	0.65490 0.95178 0.51796 0.04100
H 	H 	0.79583 0.24428 0.39361 0.04800
H 	H 	0.90868 0.30097 0.35470 0.03500
H 	H 	0.09787 0.04888 0.35952 0.03500
H 	H 	0.98559 0.99169 0.40500 0.05200
H 	H 	0.84833 0.98053 0.54629 0.04100
H 	H 	0.24434 0.39377 0.79560 0.04800
H 	H 	0.30103 0.35485 0.90846 0.03500
H 	H 	0.04895 0.35968 0.09764 0.03500
H 	H 	0.99175 0.40516 0.98537 0.05200
H 	H 	0.98059 0.54645 0.84810 0.04100
H 	H 	0.39383 0.79576 0.24412 0.04800
H 	H 	0.35492 0.90861 0.30081 0.03500
H 	H 	0.35975 0.09780 0.04873 0.03500
H 	H 	0.40522 0.98553 0.99153 0.05200
H 	H 	0.54651 0.84826 0.98037 0.04100
H 	H 	0.66034 0.25273 0.83619 0.04000
H 	H 	0.83641 0.66027 0.25258 0.04000
H 	H 	0.25280 0.83634 0.66011 0.04000
H 	H 	0.33641 0.75273 0.16011 0.04000
H 	H 	0.16034 0.33634 0.75257 0.04000
H 	H 	0.75280 0.16027 0.33619 0.04000
C 	C 	0.70085 0.36148 0.88710 -0.07000
C 	C 	0.73347 0.42658 0.86492 0.02200
C 	C 	0.59229 0.53199 0.87024 0.02300
C 	C 	0.55951 0.46720 0.89438 -0.07000
C 	C 	0.61252 0.38029 0.90407 0.03300
C 	C 	0.67918 0.51325 0.85804 -0.10400
C 	C 	0.57264 0.31128 0.93661 -0.01700
C 	C 	0.49939 0.30664 0.01261 0.02400
C 	C 	0.71047 0.58470 0.83785 0.39500
C 	C 	0.88733 0.70079 0.36132 -0.07000
C 	C 	0.86515 0.73340 0.42642 0.02300
C 	C 	0.87046 0.59223 0.53183 0.02300
C 	C 	0.89461 0.55945 0.46704 -0.07000
C 	C 	0.90429 0.61245 0.38013 0.03300
C 	C 	0.85826 0.67912 0.51309 -0.10400
C 	C 	0.93684 0.57257 0.31112 -0.01700
C 	C 	0.01283 0.49933 0.30649 0.02400
C 	C 	0.83808 0.71041 0.58455 0.39500
C 	C 	0.36154 0.88726 0.70063 -0.07000
C 	C 	0.42665 0.86508 0.73324 0.02300
C 	C 	0.53206 0.87040 0.59207 0.02300
C 	C 	0.46726 0.89454 0.55929 -0.07000
C 	C 	0.38036 0.90423 0.61229 0.03300
C 	C 	0.51332 0.85820 0.67896 -0.10400
C 	C 	0.31135 0.93677 0.57241 -0.01700
C 	C 	0.30671 0.01277 0.49917 0.02400
C 	C 	0.58477 0.83801 0.71025 0.39500
C 	C 	0.14295 0.79640 0.61085 -0.06900
C 	C 	0.07761 0.76388 0.63353 0.02100
C 	C 	0.97271 0.90548 0.62714 0.02100
C 	C 	0.03766 0.93810 0.60263 -0.07000
C 	C 	0.12442 0.88485 0.59314 0.03300
C 	C 	0.99110 0.81847 0.64012 -0.10000
C 	C 	0.19348 0.92465 0.56029 -0.01700
C 	C 	0.19729 0.99850 0.48478 0.02400
C 	C 	0.91917 0.78772 0.66084 0.37700
C 	C 	0.79647 0.61100 0.14273 -0.06900
C 	C 	0.76395 0.63369 0.07738 0.02100
C 	C 	0.90554 0.62730 0.97248 0.02100
C 	C 	0.93816 0.60279 0.03743 -0.07000
C 	C 	0.88492 0.59330 0.12420 0.03300
C 	C 	0.81853 0.64028 0.99088 -0.10000
C 	C 	0.92471 0.56045 0.19325 -0.01700
C 	C 	0.99857 0.48494 0.19707 0.02400
C 	C 	0.78779 0.66100 0.91894 0.37700
C 	C 	0.61107 0.14289 0.79624 -0.06900
C 	C 	0.63376 0.07754 0.76372 0.02100
C 	C 	0.62736 0.97264 0.90532 0.02100
C 	C 	0.60285 0.03759 0.93794 -0.07000
C 	C 	0.59337 0.12436 0.88469 0.03300
C 	C 	0.64034 0.99104 0.81831 -0.10000
C 	C 	0.56052 0.19341 0.92449 -0.01600
C 	C 	0.48500 0.19722 0.99834 0.02400
C 	C 	0.66107 0.91910 0.78757 0.37700
C 	C 	0.29647 0.64289 0.11085 -0.06900
C 	C 	0.26395 0.57754 0.13353 0.02000
C 	C 	0.40555 0.47264 0.12714 0.02100
C 	C 	0.43816 0.53759 0.10263 -0.07000
C 	C 	0.38492 0.62436 0.09314 0.03300
C 	C 	0.31853 0.49104 0.14012 -0.10000
C 	C 	0.42471 0.69341 0.06029 -0.01600
C 	C 	0.49856 0.69722 0.98478 0.02500
C 	C 	0.28779 0.41910 0.16084 0.37700
C 	C 	0.11107 0.29640 0.64273 -0.06900
C 	C 	0.13376 0.26388 0.57738 0.02000
C 	C 	0.12736 0.40548 0.47248 0.02100
C 	C 	0.10285 0.43810 0.53743 -0.07000
C 	C 	0.09337 0.38485 0.62420 0.03300
C 	C 	0.14034 0.31847 0.49088 -0.10000
C 	C 	0.06051 0.42465 0.69325 -0.01600
C 	C 	0.98500 0.49850 0.69707 0.02500
C 	C 	0.16107 0.28772 0.41894 0.37700
C 	C 	0.64295 0.11100 0.29624 -0.06900
C 	C 	0.57761 0.13369 0.26372 0.02000
C 	C 	0.47271 0.12730 0.40532 0.02100
C 	C 	0.53766 0.10279 0.43794 -0.07000
C 	C 	0.62442 0.09330 0.38469 0.03300
C 	C 	0.49110 0.14028 0.31831 -0.10000
C 	C 	0.69348 0.06045 0.42449 -0.01600
C 	C 	0.69729 0.98494 0.49834 0.02500
C 	C 	0.41917 0.16100 0.28757 0.37700
C 	C 	0.86154 0.20079 0.38710 -0.07000
C 	C 	0.92665 0.23340 0.36492 0.02200
C 	C 	0.03206 0.09223 0.37024 0.02300
C 	C 	0.96726 0.05945 0.39438 -0.07000
C 	C 	0.88036 0.11245 0.40407 0.03300
C 	C 	0.01332 0.17912 0.35804 -0.10400
C 	C 	0.81135 0.07257 0.43661 -0.01600
C 	C 	0.80671 -0.00067 0.51261 0.02400
C 	C 	0.08477 0.21041 0.33785 0.39500
C 	C 	0.20085 0.38726 0.86132 -0.07000
C 	C 	0.23347 0.36508 0.92642 0.02200
C 	C 	0.09229 0.37040 0.03183 0.02300
C 	C 	0.05951 0.39454 0.96704 -0.07000
C 	C 	0.11252 0.40423 0.88013 0.03300
C 	C 	0.17918 0.35820 0.01309 -0.10400
C 	C 	0.07264 0.43677 0.81112 -0.01600
C 	C 	-0.00061 0.51277 0.80649 0.02400
C 	C 	0.21047 0.33801 0.08455 0.39500
C 	C 	0.38733 0.86148 0.20063 -0.07000
C 	C 	0.36515 0.92658 0.23324 0.02200
C 	C 	0.37046 0.03199 0.09207 0.02300
C 	C 	0.39461 0.96720 0.05929 -0.07000
C 	C 	0.40429 0.88029 0.11229 0.03300
C 	C 	0.35826 0.01325 0.17896 -0.10400
C 	C 	0.43684 0.81128 0.07241 -0.01600
C 	C 	0.51283 0.80664 -0.00083 0.02400
C 	C 	0.33808 0.08470 0.21025 0.39500
C 	C 	0.60350 0.25255 0.89331 -0.03200
C 	C 	0.89354 0.60344 0.25239 -0.03200
C 	C 	0.25261 0.89347 0.60328 -0.03200
C 	C 	0.39354 0.75255 0.10328 -0.03200
C 	C 	0.10350 0.39347 0.75239 -0.03200
C 	C 	0.75261 0.10344 0.39331 -0.03200
N 	N 	0.45427 0.25183 0.04354 -0.18100
N 	N 	0.04376 0.45421 0.25167 -0.18100
N 	N 	0.25189 0.04369 0.45405 -0.18100
N 	N 	0.54376 0.75183 0.95405 -0.18100
N 	N 	0.95427 0.54369 0.75167 -0.18100
N 	N 	0.75189 0.95421 0.54354 -0.18100
O 	O 	0.78957 0.57916 0.79724 -0.43500
O 	O 	0.65498 0.64948 0.86202 -0.44500
O 	O 	0.79746 0.78950 0.57900 -0.43500
O 	O 	0.86224 0.65492 0.64932 -0.44600
O 	O 	0.57923 0.79739 0.78934 -0.43500
O 	O 	0.64954 0.86217 0.65476 -0.44600
O 	O 	0.92339 0.70857 0.70365 -0.43300
O 	O 	0.85444 0.84429 0.63609 -0.44500
O 	O 	0.70863 0.70381 0.92316 -0.43300
O 	O 	0.84436 0.63625 0.85422 -0.44500
O 	O 	0.70388 0.92332 0.70841 -0.43300
O 	O 	0.63632 0.85438 0.84413 -0.44500
O 	O 	0.20864 0.42332 0.20365 -0.43300
O 	O 	0.34436 0.35438 0.13609 -0.44500
O 	O 	0.20388 0.20857 0.42316 -0.43300
O 	O 	0.13632 0.34429 0.35422 -0.44500
O 	O 	0.42339 0.20381 0.20841 -0.43300
O 	O 	0.35444 0.13625 0.34413 -0.44500
O 	O 	0.07923 0.28950 0.29723 -0.43500
O 	O 	0.14954 0.15492 0.36202 -0.44500
O 	O 	0.28957 0.29739 0.07900 -0.43500
O 	O 	0.15498 0.36217 0.14932 -0.44500
O 	O 	0.29746 0.07916 0.28934 -0.43500
O 	O 	0.36224 0.14948 0.15476 -0.44500
O 	O 	0.25169 0.25162 0.25146 -0.62000
O 	O 	0.75168 0.75162 0.75146 -0.62000
H 	H 	0.77302 0.77296 0.77280 0.13400
H 	H 	0.27302 0.27296 0.27280 0.13400
