data_crystal

_cell_length_a 16.41900
_cell_length_b 17.08800
_cell_length_c 12.11300
_cell_angle_alpha 90.00000
_cell_angle_beta  95.10700
_cell_angle_gamma 90.00000

_symmetry_space_group_name_	'P 1'
_symmetry_space_group_name_H-M	'P 1'

loop_
_symmetry_equiv_pos_as_xyz
  x,y,z

loop_
_atom_site_label
_atom_site_type_symbol
_atom_site_fract_x
_atom_site_fract_y
_atom_site_fract_z
_atom_site_charge
Co	Co	0.38328 0.14570 0.06142 1.12900
N 	N 	0.25270 0.14750 0.02930 -0.41400
N 	N 	0.14330 0.23190 0.96970 -0.41500
N 	N 	0.51100 0.16460 0.10400 -0.51000
N 	N 	0.60950 0.16480 0.25970 -0.51800
N 	N 	0.38690 0.02840 0.10650 -0.29600
N 	N 	0.40000 0.90370 0.20150 -0.19400
N 	N 	0.39790 0.87430 0.39800 -0.29400
C 	C 	0.21990 0.21520 0.99990 0.86900
H 	H 	0.24280 0.24140 0.99870 -0.43900
C 	C 	0.20070 0.08720 0.02750 0.14900
H 	H 	0.22030 0.03770 0.04750 -0.04300
C 	C 	0.11890 0.09700 0.99670 -0.26800
H 	H 	0.08280 0.05510 0.99580 0.10800
C 	C 	0.09200 0.17110 0.96720 0.14700
H 	H 	0.03690 0.17900 0.94500 -0.05200
C 	C 	0.53470 0.16480 0.21170 1.38600
H 	H 	0.49160 0.16520 0.26040 -0.72500
C 	C 	0.66940 0.16360 0.19160 0.17000
H 	H 	0.72360 0.16250 0.22120 -0.05600
C 	C 	0.65180 0.16410 0.07780 -0.30700
H 	H 	0.69340 0.16350 0.03050 0.12600
C 	C 	0.57120 0.16550 0.03650 0.16800
H 	H 	0.55820 0.16710 0.96020 -0.03800
C 	C 	0.39280 0.97180 0.15690 0.15100
C 	C 	0.39700 0.89180 0.30640 0.15800
Co	Co	0.88328 0.64570 0.06142 1.13000
N 	N 	0.75270 0.64750 0.02930 -0.41400
N 	N 	0.64330 0.73190 0.96970 -0.41400
N 	N 	0.01100 0.66460 0.10400 -0.51000
N 	N 	0.10950 0.66480 0.25970 -0.51800
N 	N 	0.88690 0.52840 0.10650 -0.29500
N 	N 	0.90000 0.40370 0.20150 -0.19300
N 	N 	0.89790 0.37430 0.39800 -0.29300
C 	C 	0.71990 0.71520 0.99990 0.87200
H 	H 	0.74280 0.74140 0.99870 -0.43900
C 	C 	0.70070 0.58720 0.02750 0.14600
H 	H 	0.72030 0.53770 0.04750 -0.04200
C 	C 	0.61890 0.59700 0.99670 -0.26500
H 	H 	0.58280 0.55510 0.99580 0.10700
C 	C 	0.59200 0.67110 0.96720 0.14600
H 	H 	0.53690 0.67900 0.94500 -0.05100
C 	C 	0.03470 0.66480 0.21170 1.39100
H 	H 	0.99160 0.66520 0.26040 -0.72600
C 	C 	0.16940 0.66360 0.19160 0.17200
H 	H 	0.22360 0.66250 0.22120 -0.05700
C 	C 	0.15180 0.66410 0.07780 -0.31000
H 	H 	0.19340 0.66350 0.03050 0.12700
C 	C 	0.07120 0.66550 0.03650 0.17300
H 	H 	0.05820 0.66710 0.96020 -0.04100
C 	C 	0.89280 0.47180 0.15690 0.15000
C 	C 	0.89700 0.39180 0.30640 0.15800
Co	Co	0.61672 0.14570 0.43858 1.13000
N 	N 	0.74730 0.14750 0.47070 -0.41300
N 	N 	0.85670 0.23190 0.53030 -0.41300
N 	N 	0.48900 0.16460 0.39600 -0.50900
N 	N 	0.39050 0.16480 0.24030 -0.51700
N 	N 	0.61310 0.02840 0.39350 -0.29500
N 	N 	0.60000 0.90370 0.29850 -0.19300
N 	N 	0.60210 0.87430 0.10200 -0.29300
C 	C 	0.78010 0.21520 0.50010 0.86800
H 	H 	0.75720 0.24140 0.50130 -0.43800
C 	C 	0.79930 0.08720 0.47250 0.14600
H 	H 	0.77970 0.03770 0.45250 -0.04200
C 	C 	0.88110 0.09700 0.50330 -0.26600
H 	H 	0.91720 0.05510 0.50420 0.10700
C 	C 	0.90800 0.17110 0.53280 0.14600
H 	H 	0.96310 0.17900 0.55500 -0.05100
C 	C 	0.46530 0.16480 0.28830 1.38600
H 	H 	0.50840 0.16520 0.23960 -0.72500
C 	C 	0.33060 0.16360 0.30840 0.17100
H 	H 	0.27640 0.16250 0.27880 -0.05600
C 	C 	0.34820 0.16410 0.42220 -0.30700
H 	H 	0.30660 0.16350 0.46950 0.12600
C 	C 	0.42880 0.16550 0.46350 0.16900
H 	H 	0.44180 0.16710 0.53980 -0.03900
C 	C 	0.60720 0.97180 0.34310 0.15000
C 	C 	0.60300 0.89180 0.19360 0.15800
Co	Co	0.11672 0.64570 0.43858 1.13000
N 	N 	0.24730 0.64750 0.47070 -0.41300
N 	N 	0.35670 0.73190 0.53030 -0.41300
N 	N 	0.98900 0.66460 0.39600 -0.51000
N 	N 	0.89050 0.66480 0.24030 -0.51700
N 	N 	0.11310 0.52840 0.39350 -0.29500
N 	N 	0.10000 0.40370 0.29850 -0.19300
N 	N 	0.10210 0.37430 0.10200 -0.29300
C 	C 	0.28010 0.71520 0.50010 0.86800
H 	H 	0.25720 0.74140 0.50130 -0.43800
C 	C 	0.29930 0.58720 0.47250 0.14600
H 	H 	0.27970 0.53770 0.45250 -0.04200
C 	C 	0.38110 0.59700 0.50330 -0.26600
H 	H 	0.41720 0.55510 0.50420 0.10700
C 	C 	0.40800 0.67110 0.53280 0.14700
H 	H 	0.46310 0.67900 0.55500 -0.05100
C 	C 	0.96530 0.66480 0.28830 1.38800
H 	H 	0.00840 0.66520 0.23960 -0.72700
C 	C 	0.83060 0.66360 0.30840 0.17100
H 	H 	0.77640 0.66250 0.27880 -0.05700
C 	C 	0.84820 0.66410 0.42220 -0.30700
H 	H 	0.80660 0.66350 0.46950 0.12600
C 	C 	0.92880 0.66550 0.46350 0.16900
H 	H 	0.94180 0.66710 0.53980 -0.03900
C 	C 	0.10720 0.47180 0.34310 0.15100
C 	C 	0.10300 0.39180 0.19360 0.15800
Co	Co	0.61672 0.85430 0.93858 1.13000
N 	N 	0.74730 0.85250 0.97070 -0.41300
N 	N 	0.85670 0.76810 0.03030 -0.41400
N 	N 	0.48900 0.83540 0.89600 -0.50900
N 	N 	0.39050 0.83520 0.74030 -0.51700
N 	N 	0.61310 0.97160 0.89350 -0.29500
N 	N 	0.60000 0.09630 0.79850 -0.19300
N 	N 	0.60210 0.12570 0.60200 -0.29300
C 	C 	0.78010 0.78480 0.00010 0.86900
H 	H 	0.75720 0.75860 0.00130 -0.43900
C 	C 	0.79930 0.91280 0.97250 0.14900
H 	H 	0.77970 0.96230 0.95250 -0.04300
C 	C 	0.88110 0.90300 0.00330 -0.26800
H 	H 	0.91720 0.94490 0.00420 0.10800
C 	C 	0.90800 0.82890 0.03280 0.14700
H 	H 	0.96310 0.82100 0.05500 -0.05200
C 	C 	0.46530 0.83520 0.78830 1.38600
H 	H 	0.50840 0.83480 0.73960 -0.72500
C 	C 	0.33060 0.83640 0.80840 0.17000
H 	H 	0.27640 0.83750 0.77880 -0.05600
C 	C 	0.34820 0.83590 0.92220 -0.30700
H 	H 	0.30660 0.83650 0.96950 0.12600
C 	C 	0.42880 0.83450 0.96350 0.16800
H 	H 	0.44180 0.83290 0.03980 -0.03800
C 	C 	0.60720 0.02820 0.84310 0.15100
C 	C 	0.60300 0.10820 0.69360 0.15800
Co	Co	0.11672 0.35430 0.93858 1.13000
N 	N 	0.24730 0.35250 0.97070 -0.41400
N 	N 	0.35670 0.26810 0.03030 -0.41400
N 	N 	0.98900 0.33540 0.89600 -0.51000
N 	N 	0.89050 0.33520 0.74030 -0.51800
N 	N 	0.11310 0.47160 0.89350 -0.29500
N 	N 	0.10000 0.59630 0.79850 -0.19300
N 	N 	0.10210 0.62570 0.60200 -0.29300
C 	C 	0.28010 0.28480 0.00010 0.87200
H 	H 	0.25720 0.25860 0.00130 -0.43900
C 	C 	0.29930 0.41280 0.97250 0.14600
H 	H 	0.27970 0.46230 0.95250 -0.04200
C 	C 	0.38110 0.40300 0.00330 -0.26500
H 	H 	0.41720 0.44490 0.00420 0.10700
C 	C 	0.40800 0.32890 0.03280 0.14600
H 	H 	0.46310 0.32100 0.05500 -0.05100
C 	C 	0.96530 0.33520 0.78830 1.39100
H 	H 	0.00840 0.33480 0.73960 -0.72600
C 	C 	0.83060 0.33640 0.80840 0.17200
H 	H 	0.77640 0.33750 0.77880 -0.05700
C 	C 	0.84820 0.33590 0.92220 -0.31000
H 	H 	0.80660 0.33650 0.96950 0.12700
C 	C 	0.92880 0.33450 0.96350 0.17300
H 	H 	0.94180 0.33290 0.03980 -0.04100
C 	C 	0.10720 0.52820 0.84310 0.15000
C 	C 	0.10300 0.60820 0.69360 0.15800
Co	Co	0.38328 0.85430 0.56142 1.13000
N 	N 	0.25270 0.85250 0.52930 -0.41300
N 	N 	0.14330 0.76810 0.46970 -0.41300
N 	N 	0.51100 0.83540 0.60400 -0.50900
N 	N 	0.60950 0.83520 0.75970 -0.51700
N 	N 	0.38690 0.97160 0.60650 -0.29500
N 	N 	0.40000 0.09630 0.70150 -0.19300
N 	N 	0.39790 0.12570 0.89800 -0.29300
C 	C 	0.21990 0.78480 0.49990 0.86800
H 	H 	0.24280 0.75860 0.49870 -0.43800
C 	C 	0.20070 0.91280 0.52750 0.14600
H 	H 	0.22030 0.96230 0.54750 -0.04200
C 	C 	0.11890 0.90300 0.49670 -0.26600
H 	H 	0.08280 0.94490 0.49580 0.10700
C 	C 	0.09200 0.82890 0.46720 0.14600
H 	H 	0.03690 0.82100 0.44500 -0.05100
C 	C 	0.53470 0.83520 0.71170 1.38600
H 	H 	0.49160 0.83480 0.76040 -0.72500
C 	C 	0.66940 0.83640 0.69160 0.17100
H 	H 	0.72360 0.83750 0.72120 -0.05600
C 	C 	0.65180 0.83590 0.57780 -0.30700
H 	H 	0.69340 0.83650 0.53050 0.12600
C 	C 	0.57120 0.83450 0.53650 0.16900
H 	H 	0.55820 0.83290 0.46020 -0.03900
C 	C 	0.39280 0.02820 0.65690 0.15000
C 	C 	0.39700 0.10820 0.80640 0.15800
Co	Co	0.88328 0.35430 0.56142 1.13000
N 	N 	0.75270 0.35250 0.52930 -0.41300
N 	N 	0.64330 0.26810 0.46970 -0.41300
N 	N 	0.01100 0.33540 0.60400 -0.51000
N 	N 	0.10950 0.33520 0.75970 -0.51700
N 	N 	0.88690 0.47160 0.60650 -0.29500
N 	N 	0.90000 0.59630 0.70150 -0.19300
N 	N 	0.89790 0.62570 0.89800 -0.29300
C 	C 	0.71990 0.28480 0.49990 0.86800
H 	H 	0.74280 0.25860 0.49870 -0.43800
C 	C 	0.70070 0.41280 0.52750 0.14600
H 	H 	0.72030 0.46230 0.54750 -0.04200
C 	C 	0.61890 0.40300 0.49670 -0.26600
H 	H 	0.58280 0.44490 0.49580 0.10700
C 	C 	0.59200 0.32890 0.46720 0.14700
H 	H 	0.53690 0.32100 0.44500 -0.05100
C 	C 	0.03470 0.33520 0.71170 1.38800
H 	H 	0.99160 0.33480 0.76040 -0.72700
C 	C 	0.16940 0.33640 0.69160 0.17100
H 	H 	0.22360 0.33750 0.72120 -0.05700
C 	C 	0.15180 0.33590 0.57780 -0.30700
H 	H 	0.19340 0.33650 0.53050 0.12600
C 	C 	0.07120 0.33450 0.53650 0.16900
H 	H 	0.05820 0.33290 0.46020 -0.03900
C 	C 	0.89280 0.52820 0.65690 0.15100
C 	C 	0.89700 0.60820 0.80640 0.15800
