data_crystal

_cell_length_a 11.38160
_cell_length_b 15.22140
_cell_length_c 17.80690
_cell_angle_alpha 115.30300
_cell_angle_beta  90.00000
_cell_angle_gamma 90.00000

_symmetry_space_group_name_	'P 1'
_symmetry_space_group_name_H-M	'P 1'

loop_
_symmetry_equiv_pos_as_xyz
  x,y,z

loop_
_atom_site_label
_atom_site_type_symbol
_atom_site_fract_x
_atom_site_fract_y
_atom_site_fract_z
_atom_site_charge
Co	Co	0.79320 0.63899 1.00000 1.10900
Co	Co	0.20680 0.36101 -0.00000 1.02400
Co	Co	0.50000 0.38095 0.76190 1.12100
Co	Co	0.50000 0.61905 0.23810 1.11400
H 	H 	0.74770 0.58970 0.74620 0.32300
H 	H 	0.63180 0.18990 0.70300 0.01500
H 	H 	0.63900 0.03620 0.59680 0.10000
H 	H 	0.34930 0.09740 0.50380 0.08000
H 	H 	0.34830 0.24850 0.61320 0.01100
H 	H 	0.25230 0.15650 0.74620 0.32200
H 	H 	0.36820 0.51310 0.70300 0.01500
H 	H 	0.36100 0.56060 0.59680 0.09900
H 	H 	0.65070 0.40640 0.50380 0.07800
H 	H 	0.65170 0.36470 0.61320 0.01100
H 	H 	0.25230 0.41030 0.25380 0.32100
H 	H 	0.36820 0.81010 0.29700 0.01400
H 	H 	0.36100 0.96380 0.40320 0.09600
H 	H 	0.65070 0.90260 0.49620 0.07600
H 	H 	0.65170 0.75150 0.38680 0.01300
H 	H 	0.74770 0.84350 0.25380 0.32100
H 	H 	0.63180 0.48690 0.29700 0.01400
H 	H 	0.63900 0.43940 0.40320 0.09900
H 	H 	0.34930 0.59360 0.49620 0.07800
H 	H 	0.34830 0.63530 0.38680 0.01100
C 	C 	0.82340 0.54030 0.80492 0.44100
C 	C 	0.75270 0.36453 0.81238 0.31100
C 	C 	0.07760 0.57963 0.79436 0.30200
C 	C 	0.91650 0.46668 0.79904 -0.09600
C 	C 	0.88090 0.37978 0.80016 -0.03000
C 	C 	0.03630 0.48658 0.79724 -0.01700
C 	C 	0.57320 0.17176 0.66112 0.09900
C 	C 	0.57840 0.07928 0.59716 -0.12800
C 	C 	0.49820 0.04925 0.53490 0.07400
C 	C 	0.41080 0.11477 0.54374 -0.12600
C 	C 	0.41070 0.20542 0.60944 0.09400
C 	C 	0.17660 0.26462 0.80492 0.43400
C 	C 	0.24730 0.44785 0.81238 0.31400
C 	C 	0.92240 0.21473 0.79436 0.30300
C 	C 	0.08350 0.33236 0.79904 -0.08600
C 	C 	0.11910 0.42038 0.80016 -0.03400
C 	C 	0.96370 0.31066 0.79724 -0.02300
C 	C 	0.42680 0.48936 0.66112 0.09800
C 	C 	0.42160 0.51788 0.59716 -0.12400
C 	C 	0.50180 0.48565 0.53490 0.06800
C 	C 	0.58920 0.42897 0.54374 -0.12300
C 	C 	0.58930 0.40402 0.60944 0.09200
C 	C 	0.17660 0.45970 0.19508 0.44400
C 	C 	0.24730 0.63547 0.18762 0.31700
C 	C 	0.92240 0.42037 0.20564 0.30400
C 	C 	0.08350 0.53332 0.20096 -0.10500
C 	C 	0.11910 0.62022 0.19984 -0.04200
C 	C 	0.96370 0.51342 0.20276 -0.02500
C 	C 	0.42680 0.82824 0.33888 0.09500
C 	C 	0.42160 0.92072 0.40284 -0.12100
C 	C 	0.50180 0.95075 0.46510 0.06100
C 	C 	0.58920 0.88523 0.45626 -0.11900
C 	C 	0.58930 0.79458 0.39056 0.08900
C 	C 	0.82340 0.73538 0.19508 0.44700
C 	C 	0.75270 0.55215 0.18762 0.31600
C 	C 	0.07760 0.78527 0.20564 0.30500
C 	C 	0.91650 0.66764 0.20096 -0.10300
C 	C 	0.88090 0.57962 0.19984 -0.04500
C 	C 	0.03630 0.68934 0.20276 -0.03200
C 	C 	0.57320 0.51064 0.33888 0.09800
C 	C 	0.57840 0.48212 0.40284 -0.12400
C 	C 	0.49820 0.51435 0.46510 0.06800
C 	C 	0.41080 0.57103 0.45626 -0.12300
C 	C 	0.41070 0.59598 0.39056 0.09200
N 	N 	0.49250 0.23555 0.66734 -0.23800
N 	N 	0.50750 0.43179 0.66734 -0.23800
N 	N 	0.50750 0.76445 0.33266 -0.23800
N 	N 	0.49250 0.56821 0.33266 -0.23900
O 	O 	0.77399 0.58829 0.87172 -0.48200
O 	O 	0.79867 0.54637 0.73704 -0.50100
O 	O 	0.68155 0.37468 0.76280 -0.41400
O 	O 	0.72744 0.34693 0.87338 -0.28700
O 	O 	0.15541 0.56976 0.74076 -0.26500
O 	O 	0.03169 0.65713 0.84402 -0.27100
O 	O 	0.22601 0.28343 0.87172 -0.46000
O 	O 	0.20133 0.19067 0.73704 -0.49700
O 	O 	0.31845 0.38812 0.76280 -0.41400
O 	O 	0.27256 0.52645 0.87338 -0.28600
O 	O 	0.84459 0.17100 0.74076 -0.26500
O 	O 	0.96831 0.18689 0.84402 -0.26800
O 	O 	0.22601 0.41171 0.12828 -0.51500
O 	O 	0.20133 0.45363 0.26296 -0.50200
O 	O 	0.31845 0.62532 0.23720 -0.42200
O 	O 	0.27256 0.65307 0.12662 -0.33900
O 	O 	0.84459 0.43024 0.25924 -0.26700
O 	O 	0.96831 0.34287 0.15598 -0.30400
O 	O 	0.77399 0.71657 0.12828 -0.53300
O 	O 	0.79867 0.80933 0.26296 -0.50300
O 	O 	0.68155 0.61188 0.23720 -0.42300
O 	O 	0.72744 0.47355 0.12662 -0.34100
O 	O 	0.15541 0.82900 0.25924 -0.26900
O 	O 	0.03169 0.81311 0.15598 -0.30900
Co	Co	0.29320 0.86101 -0.00000 1.02600
Co	Co	0.70680 0.13899 -0.00000 1.02500
Co	Co	1.00000 0.11905 0.23810 1.11300
Co	Co	0.00000 0.88095 0.76190 1.11900
H 	H 	0.24770 0.91030 0.25380 0.32100
H 	H 	0.13180 0.31010 0.29700 0.01300
H 	H 	0.13900 0.46380 0.40320 0.10000
H 	H 	0.84930 0.40260 0.49620 0.07800
H 	H 	0.84830 0.25150 0.38680 0.01100
H 	H 	0.75230 0.34350 0.25380 0.32100
H 	H 	0.86820 0.98690 0.29700 0.02000
H 	H 	0.86100 0.93940 0.40320 0.10000
H 	H 	0.15070 0.09360 0.49620 0.08100
H 	H 	0.15170 0.13530 0.38680 0.01100
H 	H 	0.75230 0.08970 0.74620 0.32200
H 	H 	0.86820 0.68990 0.70300 0.01500
H 	H 	0.86100 0.53620 0.59680 0.09900
H 	H 	0.15070 0.59740 0.50380 0.07800
H 	H 	0.15170 0.74850 0.61320 0.01100
H 	H 	0.24770 0.65650 0.74620 0.32200
H 	H 	0.13180 0.01310 0.70300 0.03800
H 	H 	0.13900 0.06060 0.59680 0.08400
H 	H 	0.84930 0.90640 0.50380 0.07200
H 	H 	0.84830 0.86470 0.61320 0.01500
C 	C 	0.32340 0.95970 0.19508 0.44100
C 	C 	0.25270 0.13547 0.18762 0.31800
C 	C 	0.57760 0.92037 0.20564 0.30500
C 	C 	0.41650 0.03332 0.20096 -0.10000
C 	C 	0.38090 0.12022 0.19984 -0.04400
C 	C 	0.53630 0.01342 0.20276 -0.02900
C 	C 	0.07320 0.32824 0.33888 0.10000
C 	C 	0.07840 0.42072 0.40284 -0.12600
C 	C 	0.99820 0.45075 0.46510 0.06900
C 	C 	0.91080 0.38523 0.45626 -0.12400
C 	C 	0.91070 0.29458 0.39056 0.09200
C 	C 	0.67660 0.23538 0.19508 0.44300
C 	C 	0.74730 0.05215 0.18762 0.31300
C 	C 	0.42240 0.28527 0.20564 0.30400
C 	C 	0.58350 0.16764 0.20096 -0.10300
C 	C 	0.61910 0.07962 0.19984 -0.04200
C 	C 	0.46370 0.18934 0.20276 -0.02700
C 	C 	0.92680 0.01064 0.33888 0.08600
C 	C 	0.92160 0.98212 0.40284 -0.12600
C 	C 	0.00180 0.01435 0.46510 0.08400
C 	C 	0.08920 0.07103 0.45626 -0.13100
C 	C 	0.08930 0.09598 0.39056 0.09600
C 	C 	0.67660 0.04030 0.80492 0.43800
C 	C 	0.74730 0.86453 0.81238 0.31300
C 	C 	0.42240 0.07963 0.79436 0.30900
C 	C 	0.58350 0.96668 0.79904 -0.09100
C 	C 	0.61910 0.87978 0.80016 -0.03300
C 	C 	0.46370 0.98658 0.79724 -0.02700
C 	C 	0.92680 0.67176 0.66112 0.10000
C 	C 	0.92160 0.57928 0.59716 -0.12400
C 	C 	0.00180 0.54925 0.53490 0.06700
C 	C 	0.08920 0.61477 0.54374 -0.12300
C 	C 	0.08930 0.70542 0.60944 0.09100
C 	C 	0.32340 0.76462 0.80492 0.43600
C 	C 	0.25270 0.94785 0.81238 0.29900
C 	C 	0.57760 0.71473 0.79436 0.30200
C 	C 	0.41650 0.83236 0.79904 -0.09200
C 	C 	0.38090 0.92038 0.80016 -0.02700
C 	C 	0.53630 0.81066 0.79724 -0.01700
C 	C 	0.07320 0.98936 0.66112 0.04700
C 	C 	0.07840 0.01788 0.59716 -0.07800
C 	C 	0.99820 0.98565 0.53490 0.04000
C 	C 	0.91080 0.92897 0.54374 -0.10400
C 	C 	0.91070 0.90402 0.60944 0.08000
N 	N 	0.99250 0.26445 0.33266 -0.24000
N 	N 	0.00750 0.06821 0.33266 -0.23500
N 	N 	0.00750 0.73555 0.66734 -0.24000
N 	N 	0.99250 0.93179 0.66734 -0.22400
O 	O 	0.27399 0.91171 0.12828 -0.51500
O 	O 	0.29867 0.95363 0.26296 -0.50300
O 	O 	0.18155 0.12532 0.23720 -0.42100
O 	O 	0.22744 0.15307 0.12662 -0.33800
O 	O 	0.65541 0.93024 0.25924 -0.26800
O 	O 	0.53169 0.84287 0.15598 -0.30600
O 	O 	0.72601 0.21657 0.12828 -0.51500
O 	O 	0.70133 0.30933 0.26296 -0.50200
O 	O 	0.81845 0.11188 0.23720 -0.42200
O 	O 	0.77256 0.97355 0.12662 -0.33600
O 	O 	0.34459 0.32900 0.25924 -0.26700
O 	O 	0.46831 0.31311 0.15598 -0.30400
O 	O 	0.72601 0.08829 0.87172 -0.46100
O 	O 	0.70133 0.04637 0.73704 -0.49900
O 	O 	0.81845 0.87468 0.76280 -0.41400
O 	O 	0.77256 0.84693 0.87338 -0.28800
O 	O 	0.34459 0.06976 0.74076 -0.26500
O 	O 	0.46831 0.15713 0.84402 -0.26700
O 	O 	0.27399 0.78343 0.87172 -0.46400
O 	O 	0.29867 0.69067 0.73704 -0.49900
O 	O 	0.18155 0.88812 0.76280 -0.41300
O 	O 	0.22744 0.02645 0.87338 -0.27500
O 	O 	0.65541 0.67100 0.74076 -0.26500
O 	O 	0.53169 0.68689 0.84402 -0.26900
