data_crystal

_cell_length_a 18.31300
_cell_length_b 8.82290
_cell_length_c 16.22100
_cell_angle_alpha 90.00000
_cell_angle_beta  111.70000
_cell_angle_gamma 90.00000

_symmetry_space_group_name_	'P 1'
_symmetry_space_group_name_H-M	'P 1'

loop_
_symmetry_equiv_pos_as_xyz
  x,y,z

loop_
_atom_site_label
_atom_site_type_symbol
_atom_site_fract_x
_atom_site_fract_y
_atom_site_fract_z
_atom_site_charge
In	In	0.26462 0.71957 0.33978 2.00800
P 	P 	0.13801 0.85149 0.43152 0.59600
P 	P 	0.87366 0.92416 0.31375 0.59000
P 	P 	0.13147 0.45252 0.24136 0.59500
O 	O 	0.19370 0.52480 0.32224 -0.51700
O 	O 	0.09369 0.00790 0.40114 -0.44200
H 	H 	0.07580 0.01260 0.34680 0.25300
O 	O 	0.21308 0.85860 0.41153 -0.50300
O 	O 	0.16062 0.40450 0.16769 -0.48200
O 	O 	0.93857 0.90380 0.27757 -0.41900
O 	O 	0.81380 0.79600 0.28740 -0.49800
O 	O 	0.08359 0.72270 0.38360 -0.54400
O 	O 	0.83676 0.08130 0.28821 -0.49100
O 	O 	0.05913 0.55360 0.20158 -0.53500
O 	O 	0.10438 0.30490 0.27730 -0.46300
H 	H 	0.12060 0.22980 0.25960 0.28900
O 	O 	0.15451 0.84820 0.53099 -0.49200
O 	O 	0.91377 0.91440 0.41813 -0.36000
H 	H 	0.89690 0.98260 0.44060 0.30100
In	In	0.76462 0.21957 0.33978 2.01000
P 	P 	0.63801 0.35149 0.43152 0.59800
P 	P 	0.37366 0.42416 0.31375 0.59600
P 	P 	0.63147 0.95252 0.24136 0.59000
O 	O 	0.69370 0.02480 0.32224 -0.51000
O 	O 	0.59369 0.50790 0.40114 -0.41200
H 	H 	0.57580 0.51260 0.34680 0.27700
O 	O 	0.71308 0.35860 0.41153 -0.50000
O 	O 	0.66062 0.90450 0.16769 -0.46600
O 	O 	0.43857 0.40380 0.27757 -0.49600
O 	O 	0.31380 0.29600 0.28740 -0.50400
O 	O 	0.58359 0.22270 0.38360 -0.49100
O 	O 	0.33676 0.58130 0.28821 -0.50500
O 	O 	0.55913 0.05360 0.20158 -0.46800
O 	O 	0.60438 0.80490 0.27730 -0.41800
H 	H 	0.62060 0.72980 0.25960 0.28700
O 	O 	0.65451 0.34820 0.53099 -0.47300
O 	O 	0.41377 0.41440 0.41813 -0.41600
H 	H 	0.39690 0.48260 0.44060 0.30200
In	In	0.73538 0.71957 0.16022 2.00900
P 	P 	0.86199 0.85149 0.06848 0.60400
P 	P 	0.12634 0.92416 0.18625 0.59700
P 	P 	0.86853 0.45252 0.25864 0.59100
O 	O 	0.80630 0.52480 0.17776 -0.50400
O 	O 	0.90631 0.00790 0.09886 -0.37500
H 	H 	0.92420 0.01260 0.15320 0.30200
O 	O 	0.78692 0.85860 0.08847 -0.50200
O 	O 	0.83938 0.40450 0.33231 -0.44800
O 	O 	0.06143 0.90380 0.22243 -0.55800
O 	O 	0.18620 0.79600 0.21260 -0.50700
O 	O 	0.91641 0.72270 0.11640 -0.42100
O 	O 	0.16324 0.08130 0.21179 -0.51300
O 	O 	0.94087 0.55360 0.29842 -0.39000
O 	O 	0.89562 0.30490 0.22270 -0.37000
H 	H 	0.87940 0.22980 0.24040 0.28400
O 	O 	0.84549 0.84820 0.96901 -0.46400
O 	O 	0.08623 0.91440 0.08187 -0.46500
H 	H 	0.10310 0.98260 0.05940 0.30100
In	In	0.23538 0.21957 0.16022 2.00900
P 	P 	0.36199 0.35149 0.06848 0.61000
P 	P 	0.62634 0.42416 0.18625 0.59700
P 	P 	0.36853 0.95252 0.25864 0.59000
O 	O 	0.30630 0.02480 0.17776 -0.50800
O 	O 	0.40631 0.50790 0.09886 -0.41000
H 	H 	0.42420 0.51260 0.15320 0.27600
O 	O 	0.28692 0.35860 0.08847 -0.50300
O 	O 	0.33938 0.90450 0.33231 -0.46700
O 	O 	0.56143 0.40380 0.22243 -0.49500
O 	O 	0.68620 0.29600 0.21260 -0.50200
O 	O 	0.41641 0.22270 0.11640 -0.48800
O 	O 	0.66324 0.58130 0.21179 -0.50400
O 	O 	0.44087 0.05360 0.29842 -0.47000
O 	O 	0.39562 0.80490 0.22270 -0.41800
H 	H 	0.37940 0.72980 0.24040 0.28600
O 	O 	0.34549 0.34820 0.96901 -0.48700
O 	O 	0.58623 0.41440 0.08187 -0.41200
H 	H 	0.60310 0.48260 0.05940 0.30400
In	In	0.73538 0.28043 0.66022 2.00900
P 	P 	0.86199 0.14851 0.56848 0.59800
P 	P 	0.12634 0.07584 0.68625 0.59800
P 	P 	0.86853 0.54748 0.75864 0.59100
O 	O 	0.80630 0.47520 0.67776 -0.50500
O 	O 	0.90631 0.99210 0.59886 -0.38300
H 	H 	0.92420 0.98740 0.65320 0.30400
O 	O 	0.78692 0.14140 0.58847 -0.50300
O 	O 	0.83938 0.59550 0.83231 -0.45100
O 	O 	0.06143 0.09620 0.72243 -0.56000
O 	O 	0.18620 0.20400 0.71260 -0.50800
O 	O 	0.91641 0.27730 0.61640 -0.42200
O 	O 	0.16324 0.91870 0.71179 -0.51400
O 	O 	0.94087 0.44640 0.79842 -0.39200
O 	O 	0.89562 0.69510 0.72270 -0.37200
H 	H 	0.87940 0.77020 0.74040 0.28400
O 	O 	0.84549 0.15180 0.46901 -0.45500
O 	O 	0.08623 0.08560 0.58187 -0.46900
H 	H 	0.10310 0.01740 0.55940 0.30000
In	In	0.23538 0.78043 0.66022 2.00800
P 	P 	0.36199 0.64851 0.56848 0.59800
P 	P 	0.62634 0.57584 0.68625 0.59700
P 	P 	0.36853 0.04748 0.75864 0.59100
O 	O 	0.30630 0.97520 0.67776 -0.51000
O 	O 	0.40631 0.49210 0.59886 -0.41400
H 	H 	0.42420 0.48740 0.65320 0.27700
O 	O 	0.28692 0.64140 0.58847 -0.50600
O 	O 	0.33938 0.09550 0.83231 -0.47000
O 	O 	0.56143 0.59620 0.72243 -0.49600
O 	O 	0.68620 0.70400 0.71260 -0.50300
O 	O 	0.41641 0.77730 0.61640 -0.49100
O 	O 	0.66324 0.41870 0.71179 -0.50500
O 	O 	0.44087 0.94640 0.79842 -0.47100
O 	O 	0.39562 0.19510 0.72270 -0.41900
H 	H 	0.37940 0.27020 0.74040 0.28600
O 	O 	0.34549 0.65180 0.46901 -0.47400
O 	O 	0.58623 0.58560 0.58187 -0.41600
H 	H 	0.60310 0.51740 0.55940 0.30200
In	In	0.26462 0.28043 0.83978 2.00900
P 	P 	0.13801 0.14851 0.93152 0.58000
P 	P 	0.87366 0.07584 0.81375 0.59000
P 	P 	0.13147 0.54748 0.74136 0.59500
O 	O 	0.19370 0.47520 0.82224 -0.51900
O 	O 	0.09369 0.99210 0.90114 -0.44200
H 	H 	0.07580 0.98740 0.84680 0.25400
O 	O 	0.21308 0.14140 0.91153 -0.50600
O 	O 	0.16062 0.59550 0.66769 -0.48500
O 	O 	0.93857 0.09620 0.77757 -0.42000
O 	O 	0.81380 0.20400 0.78740 -0.49900
O 	O 	0.08359 0.27730 0.88360 -0.54600
O 	O 	0.83676 0.91870 0.78821 -0.49200
O 	O 	0.05913 0.44640 0.70158 -0.53800
O 	O 	0.10438 0.69510 0.77730 -0.46500
H 	H 	0.12060 0.77020 0.75960 0.28900
O 	O 	0.15451 0.15180 0.03099 -0.47700
O 	O 	0.91377 0.08560 0.91813 -0.36500
H 	H 	0.89690 0.01740 0.94060 0.29800
In	In	0.76462 0.78043 0.83978 2.00900
P 	P 	0.63801 0.64851 0.93152 0.58800
P 	P 	0.37366 0.57584 0.81375 0.59600
P 	P 	0.63147 0.04748 0.74136 0.59100
O 	O 	0.69370 0.97520 0.82224 -0.51200
O 	O 	0.59369 0.49210 0.90114 -0.41700
H 	H 	0.57580 0.48740 0.84680 0.27800
O 	O 	0.71308 0.64140 0.91153 -0.50300
O 	O 	0.66062 0.09550 0.66769 -0.46700
O 	O 	0.43857 0.59620 0.77757 -0.49600
O 	O 	0.31380 0.70400 0.78740 -0.50400
O 	O 	0.58359 0.77730 0.88360 -0.49200
O 	O 	0.33676 0.41870 0.78821 -0.50500
O 	O 	0.55913 0.94640 0.70158 -0.47000
O 	O 	0.60438 0.19510 0.77730 -0.42000
H 	H 	0.62060 0.27020 0.75960 0.28700
O 	O 	0.65451 0.65180 0.03099 -0.46300
O 	O 	0.41377 0.58560 0.91813 -0.41900
H 	H 	0.39690 0.51740 0.94060 0.29900
In	In	0.00000 0.71412 0.25000 1.96700
In	In	0.50000 0.21412 0.25000 2.01300
In	In	-0.00000 0.28588 0.75000 1.96600
In	In	0.50000 0.78588 0.75000 2.01300
