data_crystal

_cell_length_a 21.17460
_cell_length_b 25.95240
_cell_length_c 12.25270
_cell_angle_alpha 90.00000
_cell_angle_beta  90.00000
_cell_angle_gamma 90.00000

_symmetry_space_group_name_	'P 1'
_symmetry_space_group_name_H-M	'P 1'

loop_
_symmetry_equiv_pos_as_xyz
  x,y,z

loop_
_atom_site_label
_atom_site_type_symbol
_atom_site_fract_x
_atom_site_fract_y
_atom_site_fract_z
_atom_site_charge
Ag	Ag	0.07847 0.03410 0.56118 0.44400
Ag	Ag	0.96993 0.06661 0.43446 0.44400
S 	S 	0.08733 0.06981 0.36984 -0.28500
S 	S 	0.09103 0.93730 0.60957 -0.29200
S 	S 	0.11720 0.03657 0.14381 -0.02800
S 	S 	0.06791 0.91072 0.84120 -0.02700
C 	C 	0.08874 0.01993 0.27600 0.06600
N 	N 	0.07276 0.97330 0.28820 -0.20300
N 	N 	0.97769 0.93839 0.71100 -0.20200
C 	C 	0.03690 0.93083 0.71520 0.06200
C 	C 	0.94680 0.93020 0.81700 -0.00600
H 	H 	0.90890 0.90980 0.80680 0.00700
H 	H 	0.93470 0.96310 0.84780 0.02300
C 	C 	0.07560 0.94320 0.18610 -0.01200
H 	H 	0.03350 0.93950 0.15610 0.02500
H 	H 	0.09200 0.90910 0.20130 0.00400
C 	C 	0.11770 0.96990 0.10410 -0.14700
H 	H 	0.10130 0.96580 0.03070 0.07000
H 	H 	0.16020 0.95600 0.10680 0.05800
C 	C 	0.99080 0.90270 0.89460 -0.15200
H 	H 	0.98010 0.86640 0.89910 0.07100
H 	H 	0.98790 0.91760 0.96710 0.07100
Ag	Ag	0.92153 0.96590 0.56118 0.44500
Ag	Ag	0.03007 0.93339 0.43446 0.44500
S 	S 	0.91267 0.93019 0.36984 -0.28400
S 	S 	0.90897 0.06270 0.60957 -0.29100
S 	S 	0.88280 0.96343 0.14381 -0.02700
S 	S 	0.93209 0.08928 0.84120 -0.02600
C 	C 	0.91126 0.98007 0.27600 0.06700
N 	N 	0.92724 0.02670 0.28820 -0.20200
N 	N 	0.02231 0.06161 0.71100 -0.20100
C 	C 	0.96310 0.06917 0.71520 0.06300
C 	C 	0.05320 0.06980 0.81700 -0.00600
H 	H 	0.09110 0.09020 0.80680 0.00700
H 	H 	0.06530 0.03690 0.84780 0.02300
C 	C 	0.92440 0.05680 0.18610 -0.01200
H 	H 	0.96650 0.06050 0.15610 0.02500
H 	H 	0.90800 0.09090 0.20130 0.00400
C 	C 	0.88230 0.03010 0.10410 -0.14700
H 	H 	0.89870 0.03420 0.03070 0.07000
H 	H 	0.83980 0.04400 0.10680 0.05800
C 	C 	0.00920 0.09730 0.89460 -0.15200
H 	H 	0.01990 0.13360 0.89910 0.07100
H 	H 	0.01210 0.08240 0.96710 0.07100
Ag	Ag	0.07847 0.53410 0.06118 0.44600
Ag	Ag	0.96993 0.56661 0.93446 0.44400
S 	S 	0.08733 0.56981 0.86984 -0.28500
S 	S 	0.09103 0.43730 0.10957 -0.29000
S 	S 	0.11720 0.53657 0.64381 -0.02800
S 	S 	0.06791 0.41072 0.34120 -0.02500
C 	C 	0.08874 0.51993 0.77600 0.06700
N 	N 	0.07276 0.47330 0.78820 -0.20200
N 	N 	0.97769 0.43839 0.21100 -0.20100
C 	C 	0.03690 0.43083 0.21520 0.06300
C 	C 	0.94680 0.43020 0.31700 -0.00600
H 	H 	0.90890 0.40980 0.30680 0.00700
H 	H 	0.93470 0.46310 0.34780 0.02300
C 	C 	0.07560 0.44320 0.68610 -0.01200
H 	H 	0.03350 0.43950 0.65610 0.02500
H 	H 	0.09200 0.40910 0.70130 0.00400
C 	C 	0.11770 0.46990 0.60410 -0.14600
H 	H 	0.10130 0.46580 0.53070 0.06900
H 	H 	0.16020 0.45600 0.60680 0.05700
C 	C 	0.99080 0.40270 0.39460 -0.15300
H 	H 	0.98010 0.36640 0.39910 0.07100
H 	H 	0.98790 0.41760 0.46710 0.07200
Ag	Ag	0.92153 0.46590 0.06118 0.44600
Ag	Ag	0.03007 0.43339 0.93446 0.44400
S 	S 	0.91267 0.43019 0.86984 -0.28500
S 	S 	0.90897 0.56270 0.10957 -0.29000
S 	S 	0.88280 0.46343 0.64381 -0.02800
S 	S 	0.93209 0.58928 0.34120 -0.02500
C 	C 	0.91126 0.48007 0.77600 0.06700
N 	N 	0.92724 0.52670 0.78820 -0.20200
N 	N 	0.02231 0.56161 0.21100 -0.20100
C 	C 	0.96310 0.56917 0.21520 0.06300
C 	C 	0.05320 0.56980 0.31700 -0.00600
H 	H 	0.09110 0.59020 0.30680 0.00700
H 	H 	0.06530 0.53690 0.34780 0.02300
C 	C 	0.92440 0.55680 0.68610 -0.01200
H 	H 	0.96650 0.56050 0.65610 0.02500
H 	H 	0.90800 0.59090 0.70130 0.00400
C 	C 	0.88230 0.53010 0.60410 -0.14600
H 	H 	0.89870 0.53420 0.53070 0.06900
H 	H 	0.83980 0.54400 0.60680 0.05700
C 	C 	0.00920 0.59730 0.39460 -0.15300
H 	H 	0.01990 0.63360 0.39910 0.07100
H 	H 	0.01210 0.58240 0.46710 0.07200
Ag	Ag	0.57847 0.03410 0.06118 0.44600
Ag	Ag	0.46993 0.06661 0.93446 0.44400
S 	S 	0.58733 0.06981 0.86984 -0.28500
S 	S 	0.59103 0.93730 0.10957 -0.29000
S 	S 	0.61720 0.03657 0.64381 -0.02800
S 	S 	0.56791 0.91072 0.34120 -0.02500
C 	C 	0.58874 0.01993 0.77600 0.06700
N 	N 	0.57276 0.97330 0.78820 -0.20200
N 	N 	0.47769 0.93839 0.21100 -0.20100
C 	C 	0.53690 0.93083 0.21520 0.06300
C 	C 	0.44680 0.93020 0.31700 -0.00600
H 	H 	0.40890 0.90980 0.30680 0.00700
H 	H 	0.43470 0.96310 0.34780 0.02300
C 	C 	0.57560 0.94320 0.68610 -0.01200
H 	H 	0.53350 0.93950 0.65610 0.02500
H 	H 	0.59200 0.90910 0.70130 0.00400
C 	C 	0.61770 0.96990 0.60410 -0.14600
H 	H 	0.60130 0.96580 0.53070 0.06900
H 	H 	0.66020 0.95600 0.60680 0.05700
C 	C 	0.49080 0.90270 0.39460 -0.15300
H 	H 	0.48010 0.86640 0.39910 0.07100
H 	H 	0.48790 0.91760 0.46710 0.07200
Ag	Ag	0.42153 0.96590 0.06118 0.44600
Ag	Ag	0.53007 0.93339 0.93446 0.44400
S 	S 	0.41267 0.93019 0.86984 -0.28500
S 	S 	0.40897 0.06270 0.10957 -0.29000
S 	S 	0.38280 0.96343 0.64381 -0.02800
S 	S 	0.43209 0.08928 0.34120 -0.02500
C 	C 	0.41126 0.98007 0.77600 0.06700
N 	N 	0.42724 0.02670 0.78820 -0.20200
N 	N 	0.52231 0.06161 0.21100 -0.20100
C 	C 	0.46310 0.06917 0.21520 0.06300
C 	C 	0.55320 0.06980 0.31700 -0.00600
H 	H 	0.59110 0.09020 0.30680 0.00700
H 	H 	0.56530 0.03690 0.34780 0.02300
C 	C 	0.42440 0.05680 0.68610 -0.01200
H 	H 	0.46650 0.06050 0.65610 0.02500
H 	H 	0.40800 0.09090 0.70130 0.00400
C 	C 	0.38230 0.03010 0.60410 -0.14600
H 	H 	0.39870 0.03420 0.53070 0.06900
H 	H 	0.33980 0.04400 0.60680 0.05700
C 	C 	0.50920 0.09730 0.39460 -0.15300
H 	H 	0.51990 0.13360 0.39910 0.07100
H 	H 	0.51210 0.08240 0.46710 0.07200
Ag	Ag	0.57847 0.53410 0.56118 0.44500
Ag	Ag	0.46993 0.56661 0.43446 0.44500
S 	S 	0.58733 0.56981 0.36984 -0.28400
S 	S 	0.59103 0.43730 0.60957 -0.29100
S 	S 	0.61720 0.53657 0.14381 -0.02700
S 	S 	0.56791 0.41072 0.84120 -0.02600
C 	C 	0.58874 0.51993 0.27600 0.06700
N 	N 	0.57276 0.47330 0.28820 -0.20200
N 	N 	0.47769 0.43839 0.71100 -0.20100
C 	C 	0.53690 0.43083 0.71520 0.06300
C 	C 	0.44680 0.43020 0.81700 -0.00600
H 	H 	0.40890 0.40980 0.80680 0.00700
H 	H 	0.43470 0.46310 0.84780 0.02300
C 	C 	0.57560 0.44320 0.18610 -0.01200
H 	H 	0.53350 0.43950 0.15610 0.02500
H 	H 	0.59200 0.40910 0.20130 0.00400
C 	C 	0.61770 0.46990 0.10410 -0.14700
H 	H 	0.60130 0.46580 0.03070 0.07000
H 	H 	0.66020 0.45600 0.10680 0.05800
C 	C 	0.49080 0.40270 0.89460 -0.15200
H 	H 	0.48010 0.36640 0.89910 0.07100
H 	H 	0.48790 0.41760 0.96710 0.07100
Ag	Ag	0.42153 0.46590 0.56118 0.44500
Ag	Ag	0.53007 0.43339 0.43446 0.44500
S 	S 	0.41267 0.43019 0.36984 -0.28400
S 	S 	0.40897 0.56270 0.60957 -0.29100
S 	S 	0.38280 0.46343 0.14381 -0.02700
S 	S 	0.43209 0.58928 0.84120 -0.02600
C 	C 	0.41126 0.48007 0.27600 0.06700
N 	N 	0.42724 0.52670 0.28820 -0.20200
N 	N 	0.52231 0.56161 0.71100 -0.20100
C 	C 	0.46310 0.56917 0.71520 0.06300
C 	C 	0.55320 0.56980 0.81700 -0.00600
H 	H 	0.59110 0.59020 0.80680 0.00700
H 	H 	0.56530 0.53690 0.84780 0.02300
C 	C 	0.42440 0.55680 0.18610 -0.01200
H 	H 	0.46650 0.56050 0.15610 0.02500
H 	H 	0.40800 0.59090 0.20130 0.00400
C 	C 	0.38230 0.53010 0.10410 -0.14700
H 	H 	0.39870 0.53420 0.03070 0.07000
H 	H 	0.33980 0.54400 0.10680 0.05800
C 	C 	0.50920 0.59730 0.89460 -0.15200
H 	H 	0.51990 0.63360 0.89910 0.07100
H 	H 	0.51210 0.58240 0.96710 0.07100
Ag	Ag	0.32847 0.21590 0.81118 0.44500
Ag	Ag	0.21993 0.18339 0.68446 0.44500
S 	S 	0.33733 0.18019 0.61984 -0.28400
S 	S 	0.34103 0.31270 0.85957 -0.29100
S 	S 	0.36720 0.21343 0.39381 -0.02800
S 	S 	0.31791 0.33928 0.09120 -0.02300
C 	C 	0.33874 0.23007 0.52600 0.06700
N 	N 	0.32276 0.27670 0.53820 -0.20200
N 	N 	0.22769 0.31161 0.96100 -0.20200
C 	C 	0.28690 0.31917 0.96520 0.06100
C 	C 	0.19680 0.31980 0.06700 -0.00300
H 	H 	0.15890 0.34020 0.05680 0.00700
H 	H 	0.18470 0.28690 0.09780 0.02300
C 	C 	0.32560 0.30680 0.43610 -0.01200
H 	H 	0.28350 0.31050 0.40610 0.02500
H 	H 	0.34200 0.34090 0.45130 0.00400
C 	C 	0.36770 0.28010 0.35410 -0.14700
H 	H 	0.35130 0.28420 0.28070 0.06900
H 	H 	0.41020 0.29400 0.35680 0.05700
C 	C 	0.24080 0.34730 0.14460 -0.15400
H 	H 	0.23010 0.38360 0.14910 0.07200
H 	H 	0.23790 0.33240 0.21710 0.07200
Ag	Ag	0.17153 0.28410 0.81118 0.44500
Ag	Ag	0.28007 0.31661 0.68446 0.44500
S 	S 	0.16267 0.31981 0.61984 -0.28400
S 	S 	0.15897 0.18730 0.85957 -0.29100
S 	S 	0.13280 0.28657 0.39381 -0.02800
S 	S 	0.18209 0.16072 0.09120 -0.02300
C 	C 	0.16126 0.26993 0.52600 0.06700
N 	N 	0.17724 0.22330 0.53820 -0.20200
N 	N 	0.27231 0.18839 0.96100 -0.20200
C 	C 	0.21310 0.18083 0.96520 0.06100
C 	C 	0.30320 0.18020 0.06700 -0.00300
H 	H 	0.34110 0.15980 0.05680 0.00700
H 	H 	0.31530 0.21310 0.09780 0.02300
C 	C 	0.17440 0.19320 0.43610 -0.01200
H 	H 	0.21650 0.18950 0.40610 0.02500
H 	H 	0.15800 0.15910 0.45130 0.00400
C 	C 	0.13230 0.21990 0.35410 -0.14700
H 	H 	0.14870 0.21580 0.28070 0.06900
H 	H 	0.08980 0.20600 0.35680 0.05700
C 	C 	0.25920 0.15270 0.14460 -0.15400
H 	H 	0.26990 0.11640 0.14910 0.07200
H 	H 	0.26210 0.16760 0.21710 0.07200
Ag	Ag	0.32847 0.71590 0.31118 0.44500
Ag	Ag	0.21993 0.68339 0.18446 0.44500
S 	S 	0.33733 0.68019 0.11984 -0.28300
S 	S 	0.34103 0.81270 0.35957 -0.29100
S 	S 	0.36720 0.71343 0.89381 -0.03000
S 	S 	0.31791 0.83928 0.59120 -0.02500
C 	C 	0.33874 0.73007 0.02600 0.06900
N 	N 	0.32276 0.77670 0.03820 -0.20100
N 	N 	0.22769 0.81161 0.46100 -0.20100
C 	C 	0.28690 0.81917 0.46520 0.06300
C 	C 	0.19680 0.81980 0.56700 -0.00600
H 	H 	0.15890 0.84020 0.55680 0.00700
H 	H 	0.18470 0.78690 0.59780 0.02300
C 	C 	0.32560 0.80680 0.93610 -0.01500
H 	H 	0.28350 0.81050 0.90610 0.02500
H 	H 	0.34200 0.84090 0.95130 0.00400
C 	C 	0.36770 0.78010 0.85410 -0.14500
H 	H 	0.35130 0.78420 0.78070 0.06900
H 	H 	0.41020 0.79400 0.85680 0.05700
C 	C 	0.24080 0.84730 0.64460 -0.15300
H 	H 	0.23010 0.88360 0.64910 0.07100
H 	H 	0.23790 0.83240 0.71710 0.07200
Ag	Ag	0.17153 0.78410 0.31118 0.44500
Ag	Ag	0.28007 0.81661 0.18446 0.44500
S 	S 	0.16267 0.81981 0.11984 -0.28300
S 	S 	0.15897 0.68730 0.35957 -0.29100
S 	S 	0.13280 0.78657 0.89381 -0.03000
S 	S 	0.18209 0.66072 0.59120 -0.02500
C 	C 	0.16126 0.76993 0.02600 0.06900
N 	N 	0.17724 0.72330 0.03820 -0.20100
N 	N 	0.27231 0.68839 0.46100 -0.20100
C 	C 	0.21310 0.68083 0.46520 0.06300
C 	C 	0.30320 0.68020 0.56700 -0.00600
H 	H 	0.34110 0.65980 0.55680 0.00700
H 	H 	0.31530 0.71310 0.59780 0.02300
C 	C 	0.17440 0.69320 0.93610 -0.01400
H 	H 	0.21650 0.68950 0.90610 0.02500
H 	H 	0.15800 0.65910 0.95130 0.00400
C 	C 	0.13230 0.71990 0.85410 -0.14500
H 	H 	0.14870 0.71580 0.78070 0.06900
H 	H 	0.08980 0.70600 0.85680 0.05700
C 	C 	0.25920 0.65270 0.64460 -0.15300
H 	H 	0.26990 0.61640 0.64910 0.07100
H 	H 	0.26210 0.66760 0.71710 0.07200
Ag	Ag	0.82847 0.21590 0.31118 0.44500
Ag	Ag	0.71993 0.18339 0.18446 0.44500
S 	S 	0.83733 0.18019 0.11984 -0.28300
S 	S 	0.84103 0.31270 0.35957 -0.29100
S 	S 	0.86720 0.21343 0.89381 -0.03000
S 	S 	0.81791 0.33928 0.59120 -0.02500
C 	C 	0.83874 0.23007 0.02600 0.06900
N 	N 	0.82276 0.27670 0.03820 -0.20100
N 	N 	0.72769 0.31161 0.46100 -0.20100
C 	C 	0.78690 0.31917 0.46520 0.06300
C 	C 	0.69680 0.31980 0.56700 -0.00600
H 	H 	0.65890 0.34020 0.55680 0.00700
H 	H 	0.68470 0.28690 0.59780 0.02300
C 	C 	0.82560 0.30680 0.93610 -0.01400
H 	H 	0.78350 0.31050 0.90610 0.02500
H 	H 	0.84200 0.34090 0.95130 0.00400
C 	C 	0.86770 0.28010 0.85410 -0.14500
H 	H 	0.85130 0.28420 0.78070 0.06900
H 	H 	0.91020 0.29400 0.85680 0.05700
C 	C 	0.74080 0.34730 0.64460 -0.15300
H 	H 	0.73010 0.38360 0.64910 0.07100
H 	H 	0.73790 0.33240 0.71710 0.07200
Ag	Ag	0.67153 0.28410 0.31118 0.44500
Ag	Ag	0.78007 0.31661 0.18446 0.44500
S 	S 	0.66267 0.31981 0.11984 -0.28300
S 	S 	0.65897 0.18730 0.35957 -0.29100
S 	S 	0.63280 0.28657 0.89381 -0.03000
S 	S 	0.68209 0.16072 0.59120 -0.02500
C 	C 	0.66126 0.26993 0.02600 0.06900
N 	N 	0.67724 0.22330 0.03820 -0.20100
N 	N 	0.77231 0.18839 0.46100 -0.20100
C 	C 	0.71310 0.18083 0.46520 0.06300
C 	C 	0.80320 0.18020 0.56700 -0.00600
H 	H 	0.84110 0.15980 0.55680 0.00700
H 	H 	0.81530 0.21310 0.59780 0.02300
C 	C 	0.67440 0.19320 0.93610 -0.01500
H 	H 	0.71650 0.18950 0.90610 0.02500
H 	H 	0.65800 0.15910 0.95130 0.00400
C 	C 	0.63230 0.21990 0.85410 -0.14500
H 	H 	0.64870 0.21580 0.78070 0.06900
H 	H 	0.58980 0.20600 0.85680 0.05700
C 	C 	0.75920 0.15270 0.64460 -0.15300
H 	H 	0.76990 0.11640 0.64910 0.07100
H 	H 	0.76210 0.16760 0.71710 0.07200
Ag	Ag	0.82847 0.71590 0.81118 0.44500
Ag	Ag	0.71993 0.68339 0.68446 0.44500
S 	S 	0.83733 0.68019 0.61984 -0.28400
S 	S 	0.84103 0.81270 0.85957 -0.29100
S 	S 	0.86720 0.71343 0.39381 -0.02800
S 	S 	0.81791 0.83928 0.09120 -0.02300
C 	C 	0.83874 0.73007 0.52600 0.06700
N 	N 	0.82276 0.77670 0.53820 -0.20200
N 	N 	0.72769 0.81161 0.96100 -0.20200
C 	C 	0.78690 0.81917 0.96520 0.06100
C 	C 	0.69680 0.81980 0.06700 -0.00300
H 	H 	0.65890 0.84020 0.05680 0.00700
H 	H 	0.68470 0.78690 0.09780 0.02300
C 	C 	0.82560 0.80680 0.43610 -0.01200
H 	H 	0.78350 0.81050 0.40610 0.02500
H 	H 	0.84200 0.84090 0.45130 0.00400
C 	C 	0.86770 0.78010 0.35410 -0.14700
H 	H 	0.85130 0.78420 0.28070 0.06900
H 	H 	0.91020 0.79400 0.35680 0.05700
C 	C 	0.74080 0.84730 0.14460 -0.15400
H 	H 	0.73010 0.88360 0.14910 0.07200
H 	H 	0.73790 0.83240 0.21710 0.07200
Ag	Ag	0.67153 0.78410 0.81118 0.44500
Ag	Ag	0.78007 0.81661 0.68446 0.44500
S 	S 	0.66267 0.81981 0.61984 -0.28400
S 	S 	0.65897 0.68730 0.85957 -0.29100
S 	S 	0.63280 0.78657 0.39381 -0.02800
S 	S 	0.68209 0.66072 0.09120 -0.02300
C 	C 	0.66126 0.76993 0.52600 0.06700
N 	N 	0.67724 0.72330 0.53820 -0.20200
N 	N 	0.77231 0.68839 0.96100 -0.20200
C 	C 	0.71310 0.68083 0.96520 0.06100
C 	C 	0.80320 0.68020 0.06700 -0.00300
H 	H 	0.84110 0.65980 0.05680 0.00700
H 	H 	0.81530 0.71310 0.09780 0.02300
C 	C 	0.67440 0.69320 0.43610 -0.01200
H 	H 	0.71650 0.68950 0.40610 0.02500
H 	H 	0.65800 0.65910 0.45130 0.00400
C 	C 	0.63230 0.71990 0.35410 -0.14700
H 	H 	0.64870 0.71580 0.28070 0.06900
H 	H 	0.58980 0.70600 0.35680 0.05700
C 	C 	0.75920 0.65270 0.14460 -0.15400
H 	H 	0.76990 0.61640 0.14910 0.07200
H 	H 	0.76210 0.66760 0.21710 0.07200
