data_crystal

_cell_length_a 9.55930
_cell_length_b 10.21310
_cell_length_c 11.94240
_cell_angle_alpha 110.09100
_cell_angle_beta  99.94300
_cell_angle_gamma 95.80000

_symmetry_space_group_name_	'P 1'
_symmetry_space_group_name_H-M	'P 1'

loop_
_symmetry_equiv_pos_as_xyz
  x,y,z

loop_
_atom_site_label
_atom_site_type_symbol
_atom_site_fract_x
_atom_site_fract_y
_atom_site_fract_z
_atom_site_charge
Zn	Zn	0.03414 0.29728 0.73249 1.21700
C 	C 	0.76380 0.17400 0.56500 0.37600
C 	C 	0.60680 0.16940 0.51880 -0.05600
C 	C 	0.51690 0.22100 0.59760 0.00100
H 	H 	0.55550 0.26450 0.68120 0.07600
C 	C 	0.37150 0.20860 0.55320 -0.05700
C 	C 	0.31540 0.14870 0.42780 -0.07600
H 	H 	0.21840 0.14430 0.39600 0.06000
C 	C 	0.40550 0.09610 0.35150 0.08600
C 	C 	0.54910 0.10230 0.39390 -0.06700
H 	H 	0.60690 0.06260 0.34050 0.08500
C 	C 	0.27430 0.25540 0.64050 0.33200
C 	C 	0.20480 0.93380 0.03520 0.19000
C 	C 	0.17300 0.78880 0.98110 -0.10400
H 	H 	0.19450 0.73260 0.02650 0.08900
C 	C 	0.10910 0.72850 0.85910 0.01900
C 	C 	0.07700 0.81460 0.79340 -0.11600
H 	H 	0.03750 0.77370 0.70980 0.09100
C 	C 	0.10290 0.96000 0.85070 0.12600
C 	C 	0.16650 0.02050 0.97260 -0.25100
H 	H 	0.18350 0.11830 0.01260 0.12700
C 	C 	0.07610 0.56830 0.79400 0.28800
C 	C 	0.05730 0.04940 0.77750 0.22200
O 	O 	0.82580 0.09390 0.49300 -0.43600
O 	O 	0.82310 0.25940 0.67200 -0.40700
O 	O 	0.13660 0.21570 0.59820 -0.55300
O 	O 	0.32670 0.32930 0.74870 -0.28300
O 	O 	0.08120 0.49500 0.85790 -0.41200
O 	O 	0.04250 0.51660 0.67910 -0.32500
O 	O 	0.00330 0.98880 0.66780 -0.41600
O 	O 	0.07900 0.18250 0.83540 -0.42000
N 	N 	0.35790 0.00300 0.21700 -0.05500
N 	N 	0.24430 0.02720 0.17740 -0.11800
O 	O 	0.42610 0.90780 0.16700 -0.09300
Zn	Zn	0.96586 0.70272 0.26751 1.25000
C 	C 	0.23620 0.82600 0.43500 0.38400
C 	C 	0.39320 0.83060 0.48120 -0.04300
C 	C 	0.48310 0.77900 0.40240 -0.00800
H 	H 	0.44450 0.73550 0.31880 0.07500
C 	C 	0.62850 0.79140 0.44680 -0.02300
C 	C 	0.68460 0.85130 0.57220 -0.09600
H 	H 	0.78160 0.85570 0.60400 0.11500
C 	C 	0.59450 0.90390 0.64850 0.12600
C 	C 	0.45090 0.89770 0.60610 -0.07700
H 	H 	0.39310 0.93740 0.65950 0.11000
C 	C 	0.72570 0.74460 0.35950 0.32000
C 	C 	0.79520 0.06620 0.96480 0.11600
C 	C 	0.82700 0.21120 0.01890 -0.12100
H 	H 	0.80550 0.26740 0.97350 0.13300
C 	C 	0.89090 0.27150 0.14090 0.01100
C 	C 	0.92300 0.18540 0.20660 -0.00300
H 	H 	0.96250 0.22630 0.29020 0.08800
C 	C 	0.89710 0.04000 0.14930 -0.08100
C 	C 	0.83350 0.97950 0.02740 -0.04100
H 	H 	0.81650 0.88170 0.98740 0.11400
C 	C 	0.92390 0.43170 0.20600 0.29300
C 	C 	0.94270 0.95060 0.22250 0.44000
O 	O 	0.17420 0.90610 0.50700 -0.45700
O 	O 	0.17690 0.74060 0.32800 -0.48100
O 	O 	0.86340 0.78430 0.40180 -0.48900
O 	O 	0.67330 0.67070 0.25130 -0.28000
O 	O 	0.91880 0.50500 0.14210 -0.37200
O 	O 	0.95750 0.48340 0.32090 -0.26400
O 	O 	0.99670 0.01120 0.33220 -0.44800
O 	O 	0.92100 0.81750 0.16460 -0.42100
N 	N 	0.64210 0.99700 0.78300 -0.01600
N 	N 	0.75570 0.97280 0.82260 -0.05300
O 	O 	0.57390 0.09220 0.83300 -0.13800
Zn	Zn	-0.00000 0.00000 0.50000 1.19700
