data_crystal

_cell_length_a 15.92950
_cell_length_b 15.92950
_cell_length_c 19.72000
_cell_angle_alpha 90.00000
_cell_angle_beta  90.00000
_cell_angle_gamma 120.00000

_symmetry_space_group_name_	'P 1'
_symmetry_space_group_name_H-M	'P 1'

loop_
_symmetry_equiv_pos_as_xyz
  x,y,z

loop_
_atom_site_label
_atom_site_type_symbol
_atom_site_fract_x
_atom_site_fract_y
_atom_site_fract_z
_atom_site_charge
O 	O 	0.49110 0.83940 0.39110 -0.43800
N 	N 	0.63420 0.18020 0.74060 -0.22400
C 	C 	0.54000 0.93640 0.51380 -0.02300
C 	C 	0.56980 0.99260 0.57120 -0.08800
H 	H 	0.57130 0.90130 0.50100 0.03600
H 	H 	0.62250 0.99800 0.59720 0.04700
C 	C 	0.63360 0.13240 0.68660 0.10200
H 	H 	0.68580 0.12320 0.67320 -0.02900
C 	C 	0.58870 0.04040 0.54930 -0.05200
H 	H 	0.65560 0.08060 0.55910 0.04200
C 	C 	0.56100 0.98120 0.49320 0.04500
H 	H 	0.60840 0.97560 0.46740 0.00700
O 	O 	0.16060 0.65170 0.39110 -0.43900
N 	N 	0.81980 0.45400 0.74060 -0.22500
C 	C 	0.06360 0.60360 0.51380 -0.02300
C 	C 	0.00740 0.57720 0.57120 -0.08800
H 	H 	0.09870 0.67000 0.50100 0.03500
H 	H 	0.00200 0.62450 0.59720 0.04700
C 	C 	0.86760 0.50120 0.68660 0.10200
H 	H 	0.87680 0.56260 0.67320 -0.02900
C 	C 	0.95960 0.54830 0.54930 -0.05200
H 	H 	0.91940 0.57500 0.55910 0.04100
C 	C 	0.01880 0.57980 0.49320 0.04500
H 	H 	0.02440 0.63280 0.46740 0.00700
O 	O 	0.34830 0.50890 0.39110 -0.43800
N 	N 	0.54600 0.36580 0.74060 -0.22500
C 	C 	0.39640 0.46000 0.51380 0.01700
C 	C 	0.42280 0.43020 0.57120 -0.07800
H 	H 	0.33000 0.42870 0.50100 0.02300
H 	H 	0.37550 0.37750 0.59720 0.04700
C 	C 	0.49880 0.36640 0.68660 0.10100
H 	H 	0.43740 0.31420 0.67320 -0.03000
C 	C 	0.45170 0.41130 0.54930 -0.06000
H 	H 	0.42500 0.34440 0.55910 0.04200
C 	C 	0.42020 0.43900 0.49320 0.00800
H 	H 	0.36720 0.39160 0.46740 0.02000
O 	O 	0.50890 0.16060 0.89110 -0.43400
N 	N 	0.36580 0.81980 0.24060 -0.22600
C 	C 	0.46000 0.06360 0.01380 0.05700
C 	C 	0.43020 0.00740 0.07120 -0.15300
H 	H 	0.42870 0.09870 0.00100 0.00400
H 	H 	0.37750 0.00200 0.09720 0.07100
C 	C 	0.36640 0.86760 0.18660 0.09900
H 	H 	0.31420 0.87680 0.17320 -0.03200
C 	C 	0.41130 0.95960 0.04930 0.01100
H 	H 	0.34440 0.91940 0.05910 0.01400
C 	C 	0.43900 0.01880 0.99320 -0.03200
H 	H 	0.39160 0.02440 0.96740 0.03900
O 	O 	0.83940 0.34830 0.89110 -0.43400
N 	N 	0.18020 0.54600 0.24060 -0.22500
C 	C 	0.93640 0.39640 0.01380 0.05800
C 	C 	0.99260 0.42280 0.07120 -0.15200
H 	H 	0.90130 0.33000 0.00100 0.00500
H 	H 	0.99800 0.37550 0.09720 0.07200
C 	C 	0.13240 0.49880 0.18660 0.09900
H 	H 	0.12320 0.43740 0.17320 -0.03100
C 	C 	0.04040 0.45170 0.04930 0.01100
H 	H 	0.08060 0.42500 0.05910 0.01500
C 	C 	0.98120 0.42020 0.99320 -0.03200
H 	H 	0.97560 0.36720 0.96740 0.03900
O 	O 	0.65170 0.49110 0.89110 -0.43500
N 	N 	0.45400 0.63420 0.24060 -0.22500
C 	C 	0.60360 0.54000 0.01380 0.01800
C 	C 	0.57720 0.56980 0.07120 -0.16400
H 	H 	0.67000 0.57130 0.00100 0.01700
H 	H 	0.62450 0.62250 0.09720 0.07300
C 	C 	0.50120 0.63360 0.18660 0.10100
H 	H 	0.56260 0.68580 0.17320 -0.03100
C 	C 	0.54830 0.58870 0.04930 0.02100
H 	H 	0.57500 0.65560 0.05910 0.01300
C 	C 	0.57980 0.56100 0.99320 0.00600
H 	H 	0.63280 0.60840 0.96740 0.02600
O 	O 	0.16060 0.50890 0.39110 -0.43900
N 	N 	0.81980 0.36580 0.74060 -0.22500
C 	C 	0.06360 0.46000 0.51380 -0.02300
C 	C 	0.00740 0.43020 0.57120 -0.08800
H 	H 	0.09870 0.42870 0.50100 0.03600
H 	H 	0.00200 0.37750 0.59720 0.04700
C 	C 	0.86760 0.36640 0.68660 0.10200
H 	H 	0.87680 0.31420 0.67320 -0.02900
C 	C 	0.95960 0.41130 0.54930 -0.05200
H 	H 	0.91940 0.34440 0.55910 0.04200
C 	C 	0.01880 0.43900 0.49320 0.04500
H 	H 	0.02440 0.39160 0.46740 0.00700
O 	O 	0.34830 0.83940 0.39110 -0.43900
N 	N 	0.54600 0.18020 0.74060 -0.22500
C 	C 	0.39640 0.93640 0.51380 -0.02300
C 	C 	0.42280 0.99260 0.57120 -0.08800
H 	H 	0.33000 0.90130 0.50100 0.03500
H 	H 	0.37550 0.99800 0.59720 0.04700
C 	C 	0.49880 0.13240 0.68660 0.10200
H 	H 	0.43740 0.12320 0.67320 -0.02900
C 	C 	0.45170 0.04040 0.54930 -0.05200
H 	H 	0.42500 0.08060 0.55910 0.04100
C 	C 	0.42020 0.98120 0.49320 0.04500
H 	H 	0.36720 0.97560 0.46740 0.00700
O 	O 	0.49110 0.65170 0.39110 -0.43800
N 	N 	0.63420 0.45400 0.74060 -0.22500
C 	C 	0.54000 0.60360 0.51380 0.01700
C 	C 	0.56980 0.57720 0.57120 -0.07800
H 	H 	0.57130 0.67000 0.50100 0.02300
H 	H 	0.62250 0.62450 0.59720 0.04700
C 	C 	0.63360 0.50120 0.68660 0.10100
H 	H 	0.68580 0.56260 0.67320 -0.03000
C 	C 	0.58870 0.54830 0.54930 -0.06000
H 	H 	0.65560 0.57500 0.55910 0.04200
C 	C 	0.56100 0.57980 0.49320 0.00800
H 	H 	0.60840 0.63280 0.46740 0.02000
O 	O 	0.83940 0.49110 0.89110 -0.43400
N 	N 	0.18020 0.63420 0.24060 -0.22600
C 	C 	0.93640 0.54000 0.01380 0.05700
C 	C 	0.99260 0.56980 0.07120 -0.15300
H 	H 	0.90130 0.57130 0.00100 0.00400
H 	H 	0.99800 0.62250 0.09720 0.07100
C 	C 	0.13240 0.63360 0.18660 0.09900
H 	H 	0.12320 0.68580 0.17320 -0.03200
C 	C 	0.04040 0.58870 0.04930 0.01100
H 	H 	0.08060 0.65560 0.05910 0.01400
C 	C 	0.98120 0.56100 0.99320 -0.03200
H 	H 	0.97560 0.60840 0.96740 0.03900
O 	O 	0.65170 0.16060 0.89110 -0.43400
N 	N 	0.45400 0.81980 0.24060 -0.22500
C 	C 	0.60360 0.06360 0.01380 0.05800
C 	C 	0.57720 0.00740 0.07120 -0.15200
H 	H 	0.67000 0.09870 0.00100 0.00500
H 	H 	0.62450 0.00200 0.09720 0.07200
C 	C 	0.50120 0.86760 0.18660 0.09900
H 	H 	0.56260 0.87680 0.17320 -0.03100
C 	C 	0.54830 0.95960 0.04930 0.01100
H 	H 	0.57500 0.91940 0.05910 0.01500
C 	C 	0.57980 0.01880 0.99320 -0.03200
H 	H 	0.63280 0.02440 0.96740 0.03900
O 	O 	0.50890 0.34830 0.89110 -0.43500
N 	N 	0.36580 0.54600 0.24060 -0.22500
C 	C 	0.46000 0.39640 0.01380 0.01800
C 	C 	0.43020 0.42280 0.07120 -0.16400
H 	H 	0.42870 0.33000 0.00100 0.01700
H 	H 	0.37750 0.37550 0.09720 0.07300
C 	C 	0.36640 0.49880 0.18660 0.10100
H 	H 	0.31420 0.43740 0.17320 -0.03100
C 	C 	0.41130 0.45170 0.04930 0.02100
H 	H 	0.34440 0.42500 0.05910 0.01300
C 	C 	0.43900 0.42020 0.99320 0.00600
H 	H 	0.39160 0.36720 0.96740 0.02600
Co	Co	0.47672 0.73836 0.31710 1.13200
Co	Co	0.26164 0.73836 0.31710 1.13200
Co	Co	0.26164 0.52328 0.31710 1.13200
Co	Co	0.52328 0.26164 0.81710 1.13300
Co	Co	0.73836 0.26164 0.81710 1.13300
Co	Co	0.73836 0.47672 0.81710 1.13300
O 	O 	0.33333 0.66667 0.33840 -0.59800
O 	O 	0.66667 0.33333 0.83840 -0.59700
C 	C 	0.43185 0.86370 0.41290 0.37900
C 	C 	0.46495 0.92990 0.47420 -0.11700
C 	C 	0.52125 0.04250 0.59120 0.12400
N 	N 	0.54870 0.09740 0.65190 -0.16200
C 	C 	0.13630 0.56815 0.41290 0.37900
C 	C 	0.07010 0.53505 0.47420 -0.11700
C 	C 	0.95750 0.47875 0.59120 0.12400
N 	N 	0.90260 0.45130 0.65190 -0.16200
C 	C 	0.43185 0.56815 0.41290 0.37900
C 	C 	0.46495 0.53505 0.47420 -0.11600
C 	C 	0.52125 0.47875 0.59120 0.11700
N 	N 	0.54870 0.45130 0.65190 -0.16200
C 	C 	0.56815 0.13630 0.91290 0.37600
C 	C 	0.53505 0.07010 0.97420 -0.10200
C 	C 	0.47875 0.95750 0.09120 0.10600
N 	N 	0.45130 0.90260 0.15190 -0.16100
C 	C 	0.86370 0.43185 0.91290 0.37600
C 	C 	0.92990 0.46495 0.97420 -0.10200
C 	C 	0.04250 0.52125 0.09120 0.10600
N 	N 	0.09740 0.54870 0.15190 -0.16100
C 	C 	0.56815 0.43185 0.91290 0.37700
C 	C 	0.53505 0.46495 0.97420 -0.10300
C 	C 	0.47875 0.52125 0.09120 0.11300
N 	N 	0.45130 0.54870 0.15190 -0.16100
