data_crystal

_cell_length_a 14.27100
_cell_length_b 14.43200
_cell_length_c 22.54900
_cell_angle_alpha 90.00000
_cell_angle_beta  99.86000
_cell_angle_gamma 90.00000

_symmetry_space_group_name_	'P 1'
_symmetry_space_group_name_H-M	'P 1'

loop_
_symmetry_equiv_pos_as_xyz
  x,y,z

loop_
_atom_site_label
_atom_site_type_symbol
_atom_site_fract_x
_atom_site_fract_y
_atom_site_fract_z
_atom_site_charge
Cd	Cd	0.24488 0.25411 0.25854 1.23500
Cd	Cd	0.31621 0.37472 0.13894 1.15800
C 	C 	0.86710 0.63410 0.19727 0.28400
C 	C 	0.93100 0.57250 0.16812 -0.03200
C 	C 	0.99710 0.51450 0.20175 -0.02100
H 	H 	0.00290 0.51310 0.24350 0.06000
C 	C 	0.05440 0.45870 0.17307 -0.06800
C 	C 	0.04820 0.46370 0.11038 -0.09900
H 	H 	0.08850 0.42810 0.09130 0.03000
C 	C 	0.98230 0.52130 0.07732 0.11300
C 	C 	0.92320 0.57570 0.10586 -0.11300
H 	H 	0.87850 0.61430 0.08330 0.06700
C 	C 	0.12360 0.39300 0.20837 0.31800
C 	C 	0.98250 0.54870 0.01180 -0.44500
H 	H 	0.90480 0.51080 0.99240 0.03400
H 	H 	0.97020 0.59920 0.99920 0.20600
C 	C 	0.39500 0.40300 0.28642 0.39000
C 	C 	0.45990 0.46820 0.32583 -0.09000
C 	C 	0.46440 0.46670 0.38819 -0.07600
H 	H 	0.42900 0.42340 0.40560 0.06300
C 	C 	0.52140 0.52950 0.42413 0.09200
C 	C 	0.57630 0.59200 0.39900 -0.07600
H 	H 	0.61510 0.63380 0.42330 0.04200
C 	C 	0.57340 0.59210 0.33734 -0.08700
C 	C 	0.51550 0.53100 0.30074 0.01700
H 	H 	0.51390 0.53190 0.25930 0.03000
C 	C 	0.63550 0.65810 0.30990 0.35000
C 	C 	0.53140 0.54710 0.49120 -0.35500
H 	H 	0.59710 0.54000 0.51070 0.11900
H 	H 	0.51050 0.60930 0.49880 0.12100
O 	O 	0.87810 0.63790 0.25392 -0.35100
O 	O 	0.80605 0.68110 0.16386 -0.38500
O 	O 	0.12190 0.37870 0.26221 -0.35000
O 	O 	0.18024 0.34882 0.17993 -0.53500
O 	O 	0.34960 0.34630 0.31252 -0.44200
O 	O 	0.39190 0.40970 0.23121 -0.50800
O 	O 	0.64160 0.64920 0.25610 -0.41800
O 	O 	0.67880 0.71960 0.34420 -0.50300
O 	O 	0.52660 0.51940 0.48720 0.08300
O 	O 	0.96380 0.51660 0.01530 0.13500
Cd	Cd	0.75512 0.75411 0.24146 1.23600
Cd	Cd	0.68379 0.87472 0.36106 1.15900
C 	C 	0.13290 0.13410 0.30273 0.28400
C 	C 	0.06900 0.07250 0.33188 -0.03000
C 	C 	0.00290 0.01450 0.29825 -0.02300
H 	H 	0.99710 0.01310 0.25650 0.06300
C 	C 	0.94560 0.95870 0.32693 -0.06400
C 	C 	0.95180 0.96370 0.38962 -0.09700
H 	H 	0.91150 0.92810 0.40870 0.03000
C 	C 	0.01770 0.02130 0.42268 0.11300
C 	C 	0.07680 0.07570 0.39414 -0.11300
H 	H 	0.12150 0.11430 0.41670 0.06700
C 	C 	0.87640 0.89300 0.29163 0.31700
C 	C 	0.01750 0.04870 0.48820 -0.44500
H 	H 	0.09520 0.01080 0.50760 0.03500
H 	H 	0.02980 0.09920 0.50080 0.20700
C 	C 	0.60500 0.90300 0.21358 0.39000
C 	C 	0.54010 0.96820 0.17417 -0.09000
C 	C 	0.53560 0.96670 0.11181 -0.07600
H 	H 	0.57100 0.92340 0.09440 0.06300
C 	C 	0.47860 0.02950 0.07587 0.09200
C 	C 	0.42370 0.09200 0.10100 -0.07600
H 	H 	0.38490 0.13380 0.07670 0.04200
C 	C 	0.42660 0.09210 0.16266 -0.08700
C 	C 	0.48450 0.03100 0.19926 0.01700
H 	H 	0.48610 0.03190 0.24070 0.03000
C 	C 	0.36450 0.15810 0.19010 0.35000
C 	C 	0.46860 0.04710 0.00880 -0.35500
H 	H 	0.40290 0.04000 0.98930 0.11900
H 	H 	0.48950 0.10930 0.00120 0.12100
O 	O 	0.12190 0.13790 0.24608 -0.35100
O 	O 	0.19395 0.18110 0.33614 -0.38500
O 	O 	0.87810 0.87870 0.23779 -0.34900
O 	O 	0.81976 0.84882 0.32007 -0.53500
O 	O 	0.65040 0.84630 0.18748 -0.44200
O 	O 	0.60810 0.90970 0.26879 -0.50800
O 	O 	0.35840 0.14920 0.24390 -0.41800
O 	O 	0.32120 0.21960 0.15580 -0.50300
O 	O 	0.47340 0.01940 0.01280 0.08300
O 	O 	0.03620 0.01660 0.48470 0.13200
Cd	Cd	0.75512 0.74589 0.74146 1.23600
Cd	Cd	0.68379 0.62528 0.86106 1.15900
C 	C 	0.13290 0.36590 0.80273 0.28500
C 	C 	0.06900 0.42750 0.83188 -0.03100
C 	C 	0.00290 0.48550 0.79825 -0.02000
H 	H 	0.99710 0.48690 0.75650 0.06100
C 	C 	0.94560 0.54130 0.82693 -0.06700
C 	C 	0.95180 0.53630 0.88962 -0.09800
H 	H 	0.91150 0.57190 0.90870 0.03000
C 	C 	0.01770 0.47870 0.92268 0.11300
C 	C 	0.07680 0.42430 0.89414 -0.11300
H 	H 	0.12150 0.38570 0.91670 0.06700
C 	C 	0.87640 0.60700 0.79163 0.31800
C 	C 	0.01750 0.45130 0.98820 -0.44500
H 	H 	0.09520 0.48920 0.00760 0.03400
H 	H 	0.02980 0.40080 0.00080 0.20600
C 	C 	0.60500 0.59700 0.71358 0.39000
C 	C 	0.54010 0.53180 0.67417 -0.09000
C 	C 	0.53560 0.53330 0.61181 -0.07600
H 	H 	0.57100 0.57660 0.59440 0.06300
C 	C 	0.47860 0.47050 0.57587 0.09200
C 	C 	0.42370 0.40800 0.60100 -0.07600
H 	H 	0.38490 0.36620 0.57670 0.04200
C 	C 	0.42660 0.40790 0.66266 -0.08700
C 	C 	0.48450 0.46900 0.69926 0.01700
H 	H 	0.48610 0.46810 0.74070 0.03000
C 	C 	0.36450 0.34190 0.69010 0.35000
C 	C 	0.46860 0.45290 0.50880 -0.35500
H 	H 	0.40290 0.46000 0.48930 0.11900
H 	H 	0.48950 0.39070 0.50120 0.12100
O 	O 	0.12190 0.36210 0.74608 -0.35100
O 	O 	0.19395 0.31890 0.83614 -0.38500
O 	O 	0.87810 0.62130 0.73779 -0.35000
O 	O 	0.81976 0.65118 0.82007 -0.53500
O 	O 	0.65040 0.65370 0.68748 -0.44200
O 	O 	0.60810 0.59030 0.76879 -0.50800
O 	O 	0.35840 0.35080 0.74390 -0.41800
O 	O 	0.32120 0.28040 0.65580 -0.50300
O 	O 	0.47340 0.48060 0.51280 0.08300
O 	O 	0.03620 0.48340 0.98470 0.13500
Cd	Cd	0.24488 0.24589 0.75854 1.23600
Cd	Cd	0.31621 0.12528 0.63894 1.15900
C 	C 	0.86710 0.86590 0.69727 0.28400
C 	C 	0.93100 0.92750 0.66812 -0.03000
C 	C 	0.99710 0.98550 0.70175 -0.02300
H 	H 	0.00290 0.98690 0.74350 0.06300
C 	C 	0.05440 0.04130 0.67307 -0.06400
C 	C 	0.04820 0.03630 0.61038 -0.09700
H 	H 	0.08850 0.07190 0.59130 0.03000
C 	C 	0.98230 0.97870 0.57732 0.11300
C 	C 	0.92320 0.92430 0.60586 -0.11300
H 	H 	0.87850 0.88570 0.58330 0.06700
C 	C 	0.12360 0.10700 0.70837 0.31700
C 	C 	0.98250 0.95130 0.51180 -0.44500
H 	H 	0.90480 0.98920 0.49240 0.03500
H 	H 	0.97020 0.90080 0.49920 0.20700
C 	C 	0.39500 0.09700 0.78642 0.39000
C 	C 	0.45990 0.03180 0.82583 -0.09000
C 	C 	0.46440 0.03330 0.88819 -0.07600
H 	H 	0.42900 0.07660 0.90560 0.06300
C 	C 	0.52140 0.97050 0.92413 0.09200
C 	C 	0.57630 0.90800 0.89900 -0.07600
H 	H 	0.61510 0.86620 0.92330 0.04200
C 	C 	0.57340 0.90790 0.83734 -0.08700
C 	C 	0.51550 0.96900 0.80074 0.01700
H 	H 	0.51390 0.96810 0.75930 0.03000
C 	C 	0.63550 0.84190 0.80990 0.35000
C 	C 	0.53140 0.95290 0.99120 -0.35500
H 	H 	0.59710 0.96000 0.01070 0.11900
H 	H 	0.51050 0.89070 0.99880 0.12100
O 	O 	0.87810 0.86210 0.75392 -0.35100
O 	O 	0.80605 0.81890 0.66386 -0.38500
O 	O 	0.12190 0.12130 0.76221 -0.34900
O 	O 	0.18024 0.15118 0.67993 -0.53500
O 	O 	0.34960 0.15370 0.81252 -0.44200
O 	O 	0.39190 0.09030 0.73121 -0.50800
O 	O 	0.64160 0.85080 0.75610 -0.41800
O 	O 	0.67880 0.78040 0.84420 -0.50300
O 	O 	0.52660 0.98060 0.98720 0.08300
O 	O 	0.96380 0.98340 0.51530 0.13200
