data_crystal

_cell_length_a 9.94200
_cell_length_b 10.42600
_cell_length_c 12.77000
_cell_angle_alpha 109.99600
_cell_angle_beta  107.30300
_cell_angle_gamma 92.14100

_symmetry_space_group_name_	'P 1'
_symmetry_space_group_name_H-M	'P 1'

loop_
_symmetry_equiv_pos_as_xyz
  x,y,z

loop_
_atom_site_label
_atom_site_type_symbol
_atom_site_fract_x
_atom_site_fract_y
_atom_site_fract_z
_atom_site_charge
Cd	Cd	0.57202 0.81567 0.23648 1.23800
C 	C 	0.78770 0.75800 0.13180 0.35200
C 	C 	0.88330 0.71000 0.06020 -0.17400
C 	C 	0.02920 0.73720 0.11400 0.07100
H 	H 	0.06870 0.78780 0.19470 0.03300
C 	C 	0.11790 0.68830 0.04650 -0.18000
C 	C 	0.05780 0.61440 0.92660 0.07300
H 	H 	0.11640 0.58080 0.88180 0.03700
C 	C 	0.91170 0.59010 0.87270 0.01100
C 	C 	0.82300 0.63670 0.93890 0.07700
H 	H 	0.72450 0.61930 0.90290 0.02700
C 	C 	0.27740 0.71200 0.10220 0.35900
C 	C 	0.71030 0.52120 0.69370 0.58000
H 	H 	0.67060 0.60650 0.71200 -0.10500
H 	H 	0.66500 0.45740 0.71800 -0.16800
C 	C 	0.69360 0.45610 0.55910 0.05400
C 	C 	0.67400 0.31350 0.50960 -0.06200
H 	H 	0.69080 0.26210 0.55780 0.07900
C 	C 	0.62900 0.24670 0.38680 -0.03300
C 	C 	0.60650 0.32380 0.31430 0.00000
H 	H 	0.57710 0.27960 0.23260 0.05800
C 	C 	0.62870 0.46970 0.36600 -0.07000
C 	C 	0.67160 0.53420 0.48740 -0.02600
H 	H 	0.68600 0.63010 0.52150 0.08200
C 	C 	0.60920 0.09170 0.33260 0.29200
C 	C 	0.60150 0.55170 0.28670 0.36900
O 	O 	0.83560 0.84220 0.23610 -0.32200
O 	O 	0.65450 0.70580 0.08560 -0.52700
O 	O 	0.33380 0.79140 0.21210 -0.38800
O 	O 	0.35100 0.65860 0.04000 -0.48500
O 	O 	0.86460 0.54610 0.74910 -0.03200
O 	O 	0.63500 0.02370 0.39870 -0.34000
O 	O 	0.56360 0.03350 0.22170 -0.35200
O 	O 	0.54450 0.48690 0.17820 -0.45300
O 	O 	0.63330 0.68130 0.33730 -0.41600
C 	C 	0.84330 0.47400 0.74910 -0.04000
H 	H 	0.91410 0.42000 0.72580 0.08100
H 	H 	0.76730 0.41290 0.74920 0.04500
O 	O 	0.79070 0.54210 0.67460 -0.43900
Cd	Cd	0.42798 0.18433 0.76352 1.24100
C 	C 	0.21230 0.24200 0.86820 0.28200
C 	C 	0.11670 0.29000 0.93980 0.06700
C 	C 	0.97080 0.26280 0.88600 -0.09000
H 	H 	0.93130 0.21220 0.80530 0.09800
C 	C 	0.88210 0.31170 0.95350 0.08300
C 	C 	0.94220 0.38560 0.07340 -0.20800
H 	H 	0.88360 0.41920 0.11820 0.11300
C 	C 	0.08830 0.40990 0.12730 0.16400
C 	C 	0.17700 0.36330 0.06110 -0.22600
H 	H 	0.27550 0.38070 0.09710 0.10500
C 	C 	0.72260 0.28800 0.89780 0.28200
C 	C 	0.28970 0.47880 0.30630 0.58900
H 	H 	0.32940 0.39350 0.28800 -0.11500
H 	H 	0.33500 0.54260 0.28200 -0.17300
C 	C 	0.30640 0.54390 0.44090 0.04800
C 	C 	0.32600 0.68650 0.49040 -0.06200
H 	H 	0.30920 0.73790 0.44220 0.07800
C 	C 	0.37100 0.75330 0.61320 -0.02700
C 	C 	0.39350 0.67620 0.68570 -0.00800
H 	H 	0.42290 0.72040 0.76740 0.07700
C 	C 	0.37130 0.53030 0.63400 -0.06200
C 	C 	0.32840 0.46580 0.51260 -0.02900
H 	H 	0.31400 0.36990 0.47850 0.08000
C 	C 	0.39080 0.90830 0.66740 0.28700
C 	C 	0.39850 0.44830 0.71330 0.36000
O 	O 	0.16440 0.15780 0.76390 -0.30400
O 	O 	0.34550 0.29420 0.91440 -0.46600
O 	O 	0.66620 0.20860 0.78790 -0.36100
O 	O 	0.64900 0.34140 0.96000 -0.41000
O 	O 	0.13540 0.45390 0.25090 -0.07100
O 	O 	0.36500 0.97630 0.60130 -0.34500
O 	O 	0.43640 0.96650 0.77830 -0.33500
O 	O 	0.45550 0.51310 0.82180 -0.41800
O 	O 	0.36670 0.31870 0.66270 -0.41400
C 	C 	0.15670 0.52600 0.25090 -0.06400
H 	H 	0.08590 0.58000 0.27420 0.08100
H 	H 	0.23270 0.58710 0.25080 0.05200
O 	O 	0.20930 0.45790 0.32540 -0.42700
Cd	Cd	0.50000 0.50000 -0.00000 1.22200
