data_crystal

_cell_length_a 10.41350
_cell_length_b 10.55410
_cell_length_c 14.03720
_cell_angle_alpha 99.59500
_cell_angle_beta  99.62000
_cell_angle_gamma 108.84300

_symmetry_space_group_name_	'P 1'
_symmetry_space_group_name_H-M	'P 1'

loop_
_symmetry_equiv_pos_as_xyz
  x,y,z

loop_
_atom_site_label
_atom_site_type_symbol
_atom_site_fract_x
_atom_site_fract_y
_atom_site_fract_z
_atom_site_charge
Er	Er	0.96416 0.46417 0.82145 1.66900
Er	Er	0.54178 0.06538 0.18199 1.39400
Er	Er	0.03584 0.53583 0.17855 1.66900
Er	Er	0.45822 0.93462 0.81801 1.39400
H 	H 	0.79210 0.81830 0.92170 0.02100
H 	H 	0.30150 0.33450 0.89150 0.04200
H 	H 	0.08570 0.73730 0.55130 0.02700
H 	H 	0.20790 0.18170 0.07830 0.02100
H 	H 	0.69850 0.66550 0.10850 0.04200
H 	H 	0.91430 0.26270 0.44870 0.02700
C 	C 	0.00170 0.87920 0.94430 -0.03700
C 	C 	0.12770 0.98800 0.99050 -0.10100
C 	C 	0.87520 0.89110 0.95320 -0.00200
C 	C 	0.00090 0.74140 0.89440 0.31300
C 	C 	0.26500 0.98230 0.97300 0.43700
C 	C 	0.48810 0.60180 0.07190 -0.04800
C 	C 	0.36840 0.50160 0.00680 -0.11100
C 	C 	0.38120 0.40070 0.93510 0.01300
C 	C 	0.48490 0.72050 0.14700 0.33800
C 	C 	0.22520 0.49860 0.01180 0.46500
C 	C 	0.03020 0.41990 0.56510 -0.09200
C 	C 	0.08290 0.56480 0.59610 -0.11100
C 	C 	0.05110 0.64170 0.53030 0.01900
C 	C 	0.05620 0.32600 0.63030 0.38400
C 	C 	0.17690 0.64230 0.69670 0.42100
C 	C 	0.99830 0.12080 0.05570 -0.03700
C 	C 	0.87230 0.01200 0.00950 -0.10100
C 	C 	0.12480 0.10890 0.04680 -0.00200
C 	C 	0.99910 0.25860 0.10560 0.31300
C 	C 	0.73500 0.01770 0.02700 0.43700
C 	C 	0.51190 0.39820 0.92810 -0.04800
C 	C 	0.63160 0.49840 0.99320 -0.11100
C 	C 	0.61880 0.59930 0.06490 0.01300
C 	C 	0.51510 0.27950 0.85300 0.33800
C 	C 	0.77480 0.50140 0.98820 0.46500
C 	C 	0.96980 0.58010 0.43490 -0.09200
C 	C 	0.91710 0.43520 0.40390 -0.11100
C 	C 	0.94890 0.35830 0.46970 0.01900
C 	C 	0.94380 0.67400 0.36970 0.38400
C 	C 	0.82310 0.35770 0.30330 0.42100
O 	O 	0.36240 0.00690 0.04690 -0.49400
O 	O 	0.27300 0.95800 0.88360 -0.43100
O 	O 	0.07620 0.68990 0.94260 -0.37000
O 	O 	0.91980 0.67510 0.81100 -0.39900
O 	O 	0.13120 0.44250 0.93230 -0.48900
O 	O 	0.20680 0.54940 0.09320 -0.50200
O 	O 	0.47440 0.82170 0.11440 -0.40200
O 	O 	0.50270 0.71510 0.23630 -0.29500
O 	O 	0.15430 0.59300 0.77060 -0.45400
O 	O 	0.27380 0.75230 0.70090 -0.46400
O 	O 	0.00020 0.31580 0.70110 -0.47600
O 	O 	0.12470 0.25490 0.60580 -0.26500
O 	O 	0.63760 0.99310 0.95310 -0.49400
O 	O 	0.72700 0.04200 0.11640 -0.43100
O 	O 	0.92380 0.31010 0.05740 -0.37000
O 	O 	0.08020 0.32490 0.18900 -0.39900
O 	O 	0.86880 0.55750 0.06770 -0.48900
O 	O 	0.79320 0.45060 0.90680 -0.50200
O 	O 	0.52560 0.17830 0.88560 -0.40200
O 	O 	0.49730 0.28490 0.76370 -0.29500
O 	O 	0.84570 0.40700 0.22940 -0.45400
O 	O 	0.72620 0.24770 0.29910 -0.46400
O 	O 	0.99980 0.68420 0.29890 -0.47600
O 	O 	0.87530 0.74510 0.39420 -0.26500
