data_crystal

_cell_length_a 10.28500
_cell_length_b 11.57170
_cell_length_c 13.51140
_cell_angle_alpha 85.58100
_cell_angle_beta  69.20900
_cell_angle_gamma 63.75500

_symmetry_space_group_name_	'P 1'
_symmetry_space_group_name_H-M	'P 1'

loop_
_symmetry_equiv_pos_as_xyz
  x,y,z

loop_
_atom_site_label
_atom_site_type_symbol
_atom_site_fract_x
_atom_site_fract_y
_atom_site_fract_z
_atom_site_charge
Tm	Tm	0.44461 0.72456 0.67969 1.48100
Tm	Tm	0.46882 0.20302 0.69070 1.51400
Tm	Tm	0.55539 0.27544 0.32031 1.48000
Tm	Tm	0.53118 0.79698 0.30930 1.51300
H 	H 	0.98950 0.88940 0.60220 0.03700
H 	H 	0.63460 0.79610 0.90870 0.04400
H 	H 	0.00700 0.58330 0.38980 0.05400
H 	H 	0.01050 0.11060 0.39780 0.03700
H 	H 	0.36540 0.20390 0.09130 0.04400
H 	H 	0.99300 0.41670 0.61020 0.05400
C 	C 	0.86180 0.75280 0.48130 -0.07000
C 	C 	0.13450 0.72240 0.50790 -0.09600
C 	C 	0.44330 0.95130 0.81600 0.35200
C 	C 	0.85720 0.84370 0.54780 -0.04200
C 	C 	0.13970 0.62810 0.44570 -0.03300
C 	C 	0.99330 0.82800 0.55930 0.01000
C 	C 	0.72220 0.76580 0.46110 0.38600
C 	C 	0.47200 0.97860 0.91080 -0.08300
C 	C 	0.58000 0.87770 0.94600 0.01100
C 	C 	0.00310 0.64520 0.43230 -0.00600
C 	C 	0.26560 0.21660 0.93980 0.32900
C 	C 	0.39320 0.10280 0.96500 -0.07800
C 	C 	0.27370 0.72170 0.52200 0.42000
C 	C 	0.28730 0.50810 0.39660 0.26700
C 	C 	0.71190 0.96230 0.60460 0.28700
C 	C 	0.13820 0.24720 0.51870 -0.07000
C 	C 	0.86550 0.27760 0.49210 -0.09600
C 	C 	0.55670 0.04870 0.18400 0.35200
C 	C 	0.14280 0.15630 0.45220 -0.04200
C 	C 	0.86030 0.37190 0.55430 -0.03300
C 	C 	0.00670 0.17200 0.44070 0.01000
C 	C 	0.27780 0.23420 0.53890 0.38600
C 	C 	0.52800 0.02140 0.08920 -0.08300
C 	C 	0.42000 0.12230 0.05400 0.01100
C 	C 	0.99690 0.35480 0.56770 -0.00600
C 	C 	0.73440 0.78340 0.06020 0.32900
C 	C 	0.60680 0.89720 0.03500 -0.07800
C 	C 	0.72630 0.27830 0.47800 0.42000
C 	C 	0.71270 0.49190 0.60340 0.26700
C 	C 	0.28810 0.03770 0.39540 0.28700
O 	O 	0.60710 0.01510 0.56473 -0.35100
O 	O 	0.38040 0.04620 0.76827 -0.39400
O 	O 	0.40070 0.48140 0.42600 -0.37500
O 	O 	0.28480 0.69760 0.61150 -0.46500
O 	O 	0.29970 0.27970 0.86117 -0.42400
O 	O 	0.29670 0.43320 0.32800 -0.36200
O 	O 	0.72840 0.77470 0.36550 -0.40700
O 	O 	0.48560 0.83500 0.78800 -0.44400
O 	O 	0.13180 0.24630 0.00300 -0.25400
O 	O 	0.69950 0.01240 0.68970 -0.37300
O 	O 	0.36170 0.75460 0.44840 -0.48600
O 	O 	0.60870 0.76440 0.53630 -0.44800
O 	O 	0.39290 0.98490 0.43527 -0.35100
O 	O 	0.61960 0.95380 0.23173 -0.39400
O 	O 	0.59930 0.51860 0.57400 -0.37500
O 	O 	0.71520 0.30240 0.38850 -0.46500
O 	O 	0.70030 0.72030 0.13883 -0.42400
O 	O 	0.70330 0.56680 0.67200 -0.36200
O 	O 	0.27160 0.22530 0.63450 -0.40700
O 	O 	0.51440 0.16500 0.21200 -0.44400
O 	O 	0.86820 0.75370 0.99700 -0.25400
O 	O 	0.30050 0.98760 0.31030 -0.37300
O 	O 	0.63830 0.24540 0.55160 -0.48600
O 	O 	0.39130 0.23560 0.46370 -0.44800
