data_crystal

_cell_length_a 18.97800
_cell_length_b 18.97800
_cell_length_c 22.91600
_cell_angle_alpha 90.00000
_cell_angle_beta  90.00000
_cell_angle_gamma 120.00000

_symmetry_space_group_name_	'P 1'
_symmetry_space_group_name_H-M	'P 1'

loop_
_symmetry_equiv_pos_as_xyz
  x,y,z

loop_
_atom_site_label
_atom_site_type_symbol
_atom_site_fract_x
_atom_site_fract_y
_atom_site_fract_z
_atom_site_charge
Mn	Mn	0.61450 0.01850 0.00581 1.29400
Mn	Mn	0.53490 0.15670 0.98029 1.30300
Mn	Mn	0.58000 0.28020 0.22164 1.23100
Mn	Mn	0.24940 0.86840 0.84020 1.09800
Mn	Mn	0.60350 0.68400 0.13330 1.22700
O 	O 	0.19700 0.92400 0.81500 -0.41000
O 	O 	0.28900 0.90800 0.74800 -0.70300
O 	O 	0.55600 0.74100 0.07200 -0.22200
O 	O 	0.62110 0.97160 0.09640 -0.58600
O 	O 	0.61080 0.11050 0.94250 -0.58200
O 	O 	0.52020 0.04500 0.03240 -0.59100
O 	O 	0.62660 0.29970 0.13340 -0.46600
O 	O 	0.60570 0.27200 0.92880 -0.57900
O 	O 	0.72490 0.13000 0.02860 -0.50500
O 	O 	0.46060 0.97040 0.10960 -0.50900
O 	O 	0.46470 0.11290 0.89830 -0.48900
O 	O 	0.50770 0.89010 0.00010 -0.42700
O 	O 	0.66790 0.17500 0.86100 -0.51200
O 	O 	0.59550 0.37420 0.89060 -0.36600
O 	O 	0.39800 0.82330 0.94540 -0.33500
O 	O 	0.59380 0.20730 0.06370 -0.47700
O 	O 	0.36700 0.99800 0.85760 -0.64400
O 	O 	0.24300 0.32400 0.47800 -0.23300
O 	O 	0.84900 0.18300 0.06500 -0.45100
O 	O 	0.62200 0.85900 0.13800 -0.36100
N 	N 	0.60590 0.97160 0.91000 -0.08500
N 	N 	0.71540 0.98420 0.00340 -0.08400
N 	N 	0.39760 0.07150 0.00490 -0.08800
N 	N 	0.49060 0.24600 0.00960 -0.10000
C 	C 	0.64600 0.92100 0.90760 -0.03000
C 	C 	0.46340 0.01390 0.06790 0.48700
C 	C 	0.64300 0.04200 0.87000 -0.43800
C 	C 	0.64700 0.92200 0.09880 0.55200
C 	C 	0.52000 0.92400 0.89950 -0.34800
C 	C 	0.59200 0.26600 0.08630 0.42900
C 	C 	0.40600 0.20000 0.03680 -0.00300
C 	C 	0.55000 0.30300 0.05220 -0.38400
C 	C 	0.47100 0.87600 0.95390 0.38500
C 	C 	0.49300 0.28600 0.95630 -0.36200
C 	C 	0.68700 0.91600 0.04210 -0.44600
C 	C 	0.72600 0.96400 0.94070 0.01100
C 	C 	0.39700 0.03000 0.06150 -0.44500
C 	C 	0.78700 0.13100 0.04100 0.47500
C 	C 	0.65600 0.89900 0.84440 -0.12300
C 	C 	0.40600 0.04900 0.89890 0.51200
C 	C 	0.57100 0.31400 0.92280 0.43100
C 	C 	0.35500 0.11900 0.00820 -0.02800
C 	C 	0.64110 0.11470 0.89290 0.48500
C 	C 	0.27200 0.07600 0.03360 -0.10600
C 	C 	0.28300 0.20600 0.06740 -0.05500
C 	C 	0.36400 0.00800 0.95920 -0.45200
C 	C 	0.22900 0.12200 0.03600 -0.09000
C 	C 	0.36200 0.24800 0.03800 -0.14200
C 	C 	0.79200 0.05200 0.02700 -0.38700
C 	C 	0.70100 0.85200 0.84290 -0.07200
C 	C 	0.77100 0.91600 0.93820 -0.14100
C 	C 	0.78100 0.90000 0.87200 -0.08000
H 	H 	0.61100 0.87100 0.92700 0.04600
H 	H 	0.69900 0.05600 0.86400 0.14700
H 	H 	0.61400 0.02600 0.83400 0.16100
H 	H 	0.50000 0.96000 0.88800 0.11400
H 	H 	0.51100 0.88600 0.86900 0.14500
H 	H 	0.41600 0.19200 0.07700 0.01500
H 	H 	0.59100 0.34900 0.03100 0.15300
H 	H 	0.52200 0.32000 0.08000 0.14900
H 	H 	0.44800 0.24900 0.93200 0.13100
H 	H 	0.48800 0.33400 0.96600 0.13600
H 	H 	0.64800 0.86900 0.02100 0.18800
H 	H 	0.73300 0.91000 0.05300 0.19500
H 	H 	0.76000 0.01500 0.92100 0.00300
H 	H 	0.34600 0.97900 0.06400 0.16600
H 	H 	0.40100 0.06600 0.09400 0.13500
H 	H 	0.68600 0.94800 0.82200 0.06400
H 	H 	0.60300 0.86600 0.82800 0.06300
H 	H 	0.34600 0.12700 0.96800 0.03400
H 	H 	0.27800 0.06300 0.07400 0.04700
H 	H 	0.24100 0.02700 0.01200 0.04900
H 	H 	0.29000 0.19300 0.10800 0.02900
H 	H 	0.25700 0.23900 0.06600 0.02800
H 	H 	0.37600 0.96500 0.96900 0.15300
H 	H 	0.30600 0.98600 0.95700 0.17300
H 	H 	0.21700 0.13100 0.99600 0.04600
H 	H 	0.17800 0.09000 0.05700 0.03700
H 	H 	0.35300 0.25800 0.99800 0.06500
H 	H 	0.39500 0.29800 0.05900 0.06100
H 	H 	0.80500 0.03400 0.06300 0.16000
H 	H 	0.83400 0.06500 0.99900 0.14700
H 	H 	0.70900 0.84100 0.80300 0.04400
H 	H 	0.66900 0.80000 0.86300 0.05700
H 	H 	0.82400 0.94800 0.95700 0.07300
H 	H 	0.74100 0.86500 0.95900 0.08400
H 	H 	0.81000 0.87000 0.87000 0.06700
H 	H 	0.81200 0.95100 0.85100 0.05200
Mn	Mn	0.98150 0.59600 0.67248 1.30700
Mn	Mn	0.84330 0.37820 0.64696 1.30100
Mn	Mn	0.71980 0.29980 0.88831 1.23000
Mn	Mn	0.13160 0.38100 0.50687 1.09700
Mn	Mn	0.31600 0.91950 0.79997 1.22700
O 	O 	0.07600 0.27300 0.48167 -0.42000
O 	O 	0.09200 0.38100 0.41467 -0.71100
O 	O 	0.25900 0.81500 0.73867 -0.22300
O 	O 	0.02840 0.64950 0.76307 -0.60500
O 	O 	0.88950 0.50030 0.60917 -0.57600
O 	O 	0.95500 0.47520 0.69907 -0.58900
O 	O 	0.70030 0.32690 0.80007 -0.46700
O 	O 	0.72800 0.33370 0.59547 -0.58000
O 	O 	0.87000 0.59490 0.69527 -0.49900
O 	O 	0.02960 0.49020 0.77627 -0.54200
O 	O 	0.88710 0.35180 0.56497 -0.48800
O 	O 	0.10990 0.61760 0.66677 -0.43300
O 	O 	0.82500 0.49290 0.52767 -0.50900
O 	O 	0.62580 0.22130 0.55727 -0.36700
O 	O 	0.17670 0.57470 0.61207 -0.33400
O 	O 	0.79270 0.38650 0.73037 -0.47600
O 	O 	0.00200 0.36900 0.52427 -0.66700
O 	O 	0.67600 0.91900 0.14467 -0.22600
O 	O 	0.81700 0.66600 0.73167 -0.44800
O 	O 	0.14100 0.76300 0.80467 -0.36000
N 	N 	0.02840 0.63430 0.57667 -0.10500
N 	N 	0.01580 0.73120 0.67007 -0.09600
N 	N 	0.92850 0.32610 0.67157 -0.10800
N 	N 	0.75400 0.24460 0.67627 -0.09800
C 	C 	0.07900 0.72500 0.57427 -0.01600
C 	C 	0.98610 0.44950 0.73457 0.51300
C 	C 	0.95800 0.60100 0.53667 -0.40800
C 	C 	0.07800 0.72500 0.76547 0.55600
C 	C 	0.07600 0.59600 0.56617 -0.34400
C 	C 	0.73400 0.32600 0.75297 0.42900
C 	C 	0.80000 0.20600 0.70347 -0.01600
C 	C 	0.69700 0.24700 0.71887 -0.38400
C 	C 	0.12400 0.59500 0.62057 0.38300
C 	C 	0.71400 0.20700 0.62297 -0.36200
C 	C 	0.08400 0.77100 0.70877 -0.45400
C 	C 	0.03600 0.76200 0.60737 -0.04800
C 	C 	0.97000 0.36700 0.72817 -0.38900
C 	C 	0.86900 0.65600 0.70767 0.47000
C 	C 	0.10100 0.75700 0.51107 -0.13100
C 	C 	0.95100 0.35700 0.56557 0.51800
C 	C 	0.68600 0.25700 0.58947 0.43000
C 	C 	0.88100 0.23600 0.67487 -0.00700
C 	C 	0.88530 0.52640 0.55957 0.48000
C 	C 	0.92400 0.19600 0.70027 -0.13300
C 	C 	0.79400 0.07700 0.73407 -0.07000
C 	C 	0.99200 0.35600 0.62587 -0.32900
C 	C 	0.87800 0.10700 0.70267 -0.07100
C 	C 	0.75200 0.11400 0.70467 -0.12500
C 	C 	0.94800 0.74000 0.69367 -0.35800
C 	C 	0.14800 0.84900 0.50957 -0.06400
C 	C 	0.08400 0.85500 0.60487 -0.11200
C 	C 	0.10000 0.88100 0.53867 -0.09500
H 	H 	0.12900 0.74000 0.59367 0.04300
H 	H 	0.94400 0.64300 0.53067 0.14400
H 	H 	0.97400 0.58800 0.50067 0.16300
H 	H 	0.04000 0.54000 0.55467 0.10300
H 	H 	0.11400 0.62500 0.53567 0.14100
H 	H 	0.80800 0.22400 0.74367 0.01900
H 	H 	0.65100 0.24200 0.69767 0.15300
H 	H 	0.68000 0.20200 0.74667 0.14800
H 	H 	0.75100 0.19900 0.59867 0.13000
H 	H 	0.66600 0.15400 0.63267 0.13400
H 	H 	0.13100 0.77900 0.68767 0.19200
H 	H 	0.09000 0.82300 0.71967 0.19300
H 	H 	0.98500 0.74500 0.58767 0.04200
H 	H 	0.02100 0.36700 0.73067 0.12800
H 	H 	0.93400 0.33500 0.76067 0.12300
H 	H 	0.05200 0.73800 0.48867 0.05500
H 	H 	0.13400 0.73700 0.49467 0.06400
H 	H 	0.87300 0.21900 0.63467 0.02900
H 	H 	0.93700 0.21500 0.74067 0.06200
H 	H 	0.97300 0.21400 0.67867 0.06900
H 	H 	0.80700 0.09700 0.77467 0.03300
H 	H 	0.76100 0.01800 0.73267 0.02800
H 	H 	0.03500 0.41100 0.63567 0.09700
H 	H 	0.01400 0.32000 0.62367 0.11400
H 	H 	0.86900 0.08600 0.66267 0.04000
H 	H 	0.91000 0.08800 0.72367 0.03600
H 	H 	0.74200 0.09500 0.66467 0.05700
H 	H 	0.70200 0.09700 0.72567 0.05400
H 	H 	0.96600 0.77100 0.72967 0.16300
H 	H 	0.93500 0.76900 0.66567 0.14400
H 	H 	0.15900 0.86800 0.46967 0.04100
H 	H 	0.20000 0.86900 0.52967 0.05700
H 	H 	0.05200 0.87600 0.62367 0.05600
H 	H 	0.13500 0.87600 0.62567 0.07800
H 	H 	0.13000 0.94000 0.53667 0.07100
H 	H 	0.04900 0.86100 0.51767 0.04700
Mn	Mn	0.40400 0.38550 0.33914 1.30000
Mn	Mn	0.62180 0.46510 0.31362 1.30100
Mn	Mn	0.70020 0.42000 0.55497 1.23000
Mn	Mn	0.61900 0.75060 0.17353 1.09700
Mn	Mn	0.08050 0.39650 0.46663 1.22600
O 	O 	0.72700 0.80300 0.14833 -0.41200
O 	O 	0.61900 0.71100 0.08133 -0.70700
O 	O 	0.18500 0.44400 0.40533 -0.22400
O 	O 	0.35050 0.37890 0.42973 -0.59700
O 	O 	0.49970 0.38920 0.27583 -0.58000
O 	O 	0.52480 0.47980 0.36573 -0.59000
O 	O 	0.67310 0.37340 0.46673 -0.46700
O 	O 	0.66630 0.39430 0.26213 -0.58000
O 	O 	0.40510 0.27510 0.36193 -0.50200
O 	O 	0.50980 0.53940 0.44293 -0.52700
O 	O 	0.64820 0.53530 0.23163 -0.48900
O 	O 	0.38240 0.49230 0.33343 -0.43000
O 	O 	0.50710 0.33210 0.19433 -0.51100
O 	O 	0.77870 0.40450 0.22393 -0.36600
O 	O 	0.42530 0.60200 0.27873 -0.33400
O 	O 	0.61350 0.40620 0.39703 -0.47700
O 	O 	0.63100 0.63300 0.19093 -0.65500
O 	O 	0.08100 0.75700 0.81133 -0.23800
O 	O 	0.33400 0.15100 0.39833 -0.45100
O 	O 	0.23700 0.37800 0.47133 -0.36000
N 	N 	0.36570 0.39410 0.24333 -0.09400
N 	N 	0.26880 0.28460 0.33673 -0.09100
N 	N 	0.67390 0.60240 0.33823 -0.09700
N 	N 	0.75540 0.50940 0.34293 -0.09900
C 	C 	0.27500 0.35400 0.24093 -0.02300
C 	C 	0.55050 0.53660 0.40123 0.50000
C 	C 	0.39900 0.35700 0.20333 -0.42300
C 	C 	0.27500 0.35300 0.43213 0.55300
C 	C 	0.40400 0.48000 0.23283 -0.34600
C 	C 	0.67400 0.40800 0.41963 0.43000
C 	C 	0.79400 0.59400 0.37013 -0.00700
C 	C 	0.75300 0.45000 0.38553 -0.38500
C 	C 	0.40500 0.52900 0.28723 0.38400
C 	C 	0.79300 0.50700 0.28963 -0.36400
C 	C 	0.22900 0.31300 0.37543 -0.44700
C 	C 	0.23800 0.27400 0.27403 -0.01800
C 	C 	0.63300 0.60300 0.39483 -0.41700
C 	C 	0.34400 0.21300 0.37433 0.47000
C 	C 	0.24300 0.34400 0.17773 -0.12800
C 	C 	0.64300 0.59400 0.23223 0.51600
C 	C 	0.74300 0.42900 0.25613 0.43100
C 	C 	0.76400 0.64500 0.34153 -0.02000
C 	C 	0.47360 0.35890 0.22623 0.48200
C 	C 	0.80400 0.72800 0.36693 -0.11500
C 	C 	0.92300 0.71700 0.40073 -0.05900
C 	C 	0.64400 0.63600 0.29253 -0.39400
C 	C 	0.89300 0.77100 0.36933 -0.08700
C 	C 	0.88600 0.63800 0.37133 -0.13800
C 	C 	0.26000 0.20800 0.36033 -0.36600
C 	C 	0.15100 0.29900 0.17623 -0.06700
C 	C 	0.14500 0.22900 0.27153 -0.12600
C 	C 	0.11900 0.21900 0.20533 -0.08600
H 	H 	0.26000 0.38900 0.26033 0.04400
H 	H 	0.35700 0.30100 0.19733 0.14500
H 	H 	0.41200 0.38600 0.16733 0.16200
H 	H 	0.46000 0.50000 0.22133 0.10800
H 	H 	0.37500 0.48900 0.20233 0.14300
H 	H 	0.77600 0.58400 0.41033 0.01700
H 	H 	0.75800 0.40900 0.36433 0.15400
H 	H 	0.79800 0.47800 0.41333 0.15000
H 	H 	0.80100 0.55200 0.26533 0.13200
H 	H 	0.84600 0.51200 0.29933 0.13800
H 	H 	0.22100 0.35200 0.35433 0.18900
H 	H 	0.17700 0.26700 0.38633 0.19100
H 	H 	0.25500 0.24000 0.25433 0.02100
H 	H 	0.63300 0.65400 0.39733 0.14800
H 	H 	0.66500 0.59900 0.42733 0.13000
H 	H 	0.26200 0.31400 0.15533 0.06000
H 	H 	0.26300 0.39700 0.16133 0.06400
H 	H 	0.78100 0.65400 0.30133 0.03300
H 	H 	0.78500 0.72200 0.40733 0.05400
H 	H 	0.78600 0.75900 0.34533 0.05900
H 	H 	0.90300 0.71000 0.44133 0.03300
H 	H 	0.98200 0.74300 0.39933 0.03700
H 	H 	0.58900 0.62400 0.30233 0.12700
H 	H 	0.68000 0.69400 0.29033 0.14600
H 	H 	0.91400 0.78300 0.32933 0.05100
H 	H 	0.91200 0.82200 0.39033 0.04600
H 	H 	0.90500 0.64700 0.33133 0.06700
H 	H 	0.90300 0.60500 0.39233 0.06300
H 	H 	0.22900 0.19500 0.39633 0.15700
H 	H 	0.23100 0.16600 0.33233 0.13900
H 	H 	0.13200 0.29100 0.13633 0.03900
H 	H 	0.13100 0.33100 0.19633 0.05300
H 	H 	0.12400 0.17600 0.29033 0.05800
H 	H 	0.12400 0.25900 0.29233 0.07700
H 	H 	0.06000 0.19000 0.20333 0.06000
H 	H 	0.13900 0.18800 0.18433 0.04500
Mn	Mn	0.01850 0.61450 0.99419 1.29300
Mn	Mn	0.15670 0.53490 0.01971 1.30200
Mn	Mn	0.28020 0.58000 0.77836 1.23000
Mn	Mn	0.86840 0.24940 0.15980 1.09700
Mn	Mn	0.68400 0.60350 0.86670 1.22600
O 	O 	0.92400 0.19700 0.18500 -0.41100
O 	O 	0.90800 0.28900 0.25200 -0.70400
O 	O 	0.74100 0.55600 0.92800 -0.22300
O 	O 	0.97160 0.62110 0.90360 -0.58700
O 	O 	0.11050 0.61080 0.05750 -0.58300
O 	O 	0.04500 0.52020 0.96760 -0.59200
O 	O 	0.29970 0.62660 0.86660 -0.46700
O 	O 	0.27200 0.60570 0.07120 -0.58000
O 	O 	0.13000 0.72490 0.97140 -0.50600
O 	O 	0.97040 0.46060 0.89040 -0.51000
O 	O 	0.11290 0.46470 0.10170 -0.49000
O 	O 	0.89010 0.50770 0.99990 -0.42700
O 	O 	0.17500 0.66790 0.13900 -0.51200
O 	O 	0.37420 0.59550 0.10940 -0.36600
O 	O 	0.82330 0.39800 0.05460 -0.33500
O 	O 	0.20730 0.59380 0.93630 -0.47700
O 	O 	0.99800 0.36700 0.14240 -0.64400
O 	O 	0.32400 0.24300 0.52200 -0.23300
O 	O 	0.18300 0.84900 0.93500 -0.45100
O 	O 	0.85900 0.62200 0.86200 -0.36100
N 	N 	0.97160 0.60590 0.09000 -0.08500
N 	N 	0.98420 0.71540 0.99660 -0.08400
N 	N 	0.07150 0.39760 0.99510 -0.08800
N 	N 	0.24600 0.49060 0.99040 -0.10000
C 	C 	0.92100 0.64600 0.09240 -0.03000
C 	C 	0.01390 0.46340 0.93210 0.48700
C 	C 	0.04200 0.64300 0.13000 -0.43800
C 	C 	0.92200 0.64700 0.90120 0.55200
C 	C 	0.92400 0.52000 0.10050 -0.34800
C 	C 	0.26600 0.59200 0.91370 0.42900
C 	C 	0.20000 0.40600 0.96320 -0.00300
C 	C 	0.30300 0.55000 0.94780 -0.38400
C 	C 	0.87600 0.47100 0.04610 0.38500
C 	C 	0.28600 0.49300 0.04370 -0.36200
C 	C 	0.91600 0.68700 0.95790 -0.44600
C 	C 	0.96400 0.72600 0.05930 0.01100
C 	C 	0.03000 0.39700 0.93850 -0.44500
C 	C 	0.13100 0.78700 0.95900 0.47500
C 	C 	0.89900 0.65600 0.15560 -0.12300
C 	C 	0.04900 0.40600 0.10110 0.51200
C 	C 	0.31400 0.57100 0.07720 0.43100
C 	C 	0.11900 0.35500 0.99180 -0.02800
C 	C 	0.11470 0.64110 0.10710 0.48500
C 	C 	0.07600 0.27200 0.96640 -0.10600
C 	C 	0.20600 0.28300 0.93260 -0.05500
C 	C 	0.00800 0.36400 0.04080 -0.45200
C 	C 	0.12200 0.22900 0.96400 -0.09000
C 	C 	0.24800 0.36200 0.96200 -0.14200
C 	C 	0.05200 0.79200 0.97300 -0.38700
C 	C 	0.85200 0.70100 0.15710 -0.07200
C 	C 	0.91600 0.77100 0.06180 -0.14100
C 	C 	0.90000 0.78100 0.12800 -0.08000
H 	H 	0.87100 0.61100 0.07300 0.04600
H 	H 	0.05600 0.69900 0.13600 0.14700
H 	H 	0.02600 0.61400 0.16600 0.16100
H 	H 	0.96000 0.50000 0.11200 0.11400
H 	H 	0.88600 0.51100 0.13100 0.14500
H 	H 	0.19200 0.41600 0.92300 0.01500
H 	H 	0.34900 0.59100 0.96900 0.15300
H 	H 	0.32000 0.52200 0.92000 0.14900
H 	H 	0.24900 0.44800 0.06800 0.13100
H 	H 	0.33400 0.48800 0.03400 0.13600
H 	H 	0.86900 0.64800 0.97900 0.18800
H 	H 	0.91000 0.73300 0.94700 0.19500
H 	H 	0.01500 0.76000 0.07900 0.00300
H 	H 	0.97900 0.34600 0.93600 0.16600
H 	H 	0.06600 0.40100 0.90600 0.13500
H 	H 	0.94800 0.68600 0.17800 0.06400
H 	H 	0.86600 0.60300 0.17200 0.06300
H 	H 	0.12700 0.34600 0.03200 0.03400
H 	H 	0.06300 0.27800 0.92600 0.04700
H 	H 	0.02700 0.24100 0.98800 0.04900
H 	H 	0.19300 0.29000 0.89200 0.02900
H 	H 	0.23900 0.25700 0.93400 0.02800
H 	H 	0.96500 0.37600 0.03100 0.15300
H 	H 	0.98600 0.30600 0.04300 0.17300
H 	H 	0.13100 0.21700 0.00400 0.04600
H 	H 	0.09000 0.17800 0.94300 0.03700
H 	H 	0.25800 0.35300 0.00200 0.06500
H 	H 	0.29800 0.39500 0.94100 0.06100
H 	H 	0.03400 0.80500 0.93700 0.16000
H 	H 	0.06500 0.83400 0.00100 0.14700
H 	H 	0.84100 0.70900 0.19700 0.04400
H 	H 	0.80000 0.66900 0.13700 0.05700
H 	H 	0.94800 0.82400 0.04300 0.07300
H 	H 	0.86500 0.74100 0.04100 0.08400
H 	H 	0.87000 0.81000 0.13000 0.06700
H 	H 	0.95100 0.81200 0.14900 0.05200
Mn	Mn	0.59600 0.98150 0.32752 1.30700
Mn	Mn	0.37820 0.84330 0.35304 1.30100
Mn	Mn	0.29980 0.71980 0.11169 1.23000
Mn	Mn	0.38100 0.13160 0.49313 1.09700
Mn	Mn	0.91950 0.31600 0.20003 1.22700
O 	O 	0.27300 0.07600 0.51833 -0.42000
O 	O 	0.38100 0.09200 0.58533 -0.71100
O 	O 	0.81500 0.25900 0.26133 -0.22300
O 	O 	0.64950 0.02840 0.23693 -0.60500
O 	O 	0.50030 0.88950 0.39083 -0.57600
O 	O 	0.47520 0.95500 0.30093 -0.58900
O 	O 	0.32690 0.70030 0.19993 -0.46700
O 	O 	0.33370 0.72800 0.40453 -0.58000
O 	O 	0.59490 0.87000 0.30473 -0.49900
O 	O 	0.49020 0.02960 0.22373 -0.54200
O 	O 	0.35180 0.88710 0.43503 -0.48800
O 	O 	0.61760 0.10990 0.33323 -0.43300
O 	O 	0.49290 0.82500 0.47233 -0.50900
O 	O 	0.22130 0.62580 0.44273 -0.36700
O 	O 	0.57470 0.17670 0.38793 -0.33400
O 	O 	0.38650 0.79270 0.26963 -0.47600
O 	O 	0.36900 0.00200 0.47573 -0.66700
O 	O 	0.91900 0.67600 0.85533 -0.22600
O 	O 	0.66600 0.81700 0.26833 -0.44800
O 	O 	0.76300 0.14100 0.19533 -0.36000
N 	N 	0.63430 0.02840 0.42333 -0.10500
N 	N 	0.73120 0.01580 0.32993 -0.09600
N 	N 	0.32610 0.92850 0.32843 -0.10800
N 	N 	0.24460 0.75400 0.32373 -0.09800
C 	C 	0.72500 0.07900 0.42573 -0.01600
C 	C 	0.44950 0.98610 0.26543 0.51300
C 	C 	0.60100 0.95800 0.46333 -0.40800
C 	C 	0.72500 0.07800 0.23453 0.55600
C 	C 	0.59600 0.07600 0.43383 -0.34400
C 	C 	0.32600 0.73400 0.24703 0.42900
C 	C 	0.20600 0.80000 0.29653 -0.01600
C 	C 	0.24700 0.69700 0.28113 -0.38400
C 	C 	0.59500 0.12400 0.37943 0.38300
C 	C 	0.20700 0.71400 0.37703 -0.36200
C 	C 	0.77100 0.08400 0.29123 -0.45400
C 	C 	0.76200 0.03600 0.39263 -0.04800
C 	C 	0.36700 0.97000 0.27183 -0.38900
C 	C 	0.65600 0.86900 0.29233 0.47000
C 	C 	0.75700 0.10100 0.48893 -0.13100
C 	C 	0.35700 0.95100 0.43443 0.51800
C 	C 	0.25700 0.68600 0.41053 0.43000
C 	C 	0.23600 0.88100 0.32513 -0.00700
C 	C 	0.52640 0.88530 0.44043 0.48000
C 	C 	0.19600 0.92400 0.29973 -0.13300
C 	C 	0.07700 0.79400 0.26593 -0.07000
C 	C 	0.35600 0.99200 0.37413 -0.32900
C 	C 	0.10700 0.87800 0.29733 -0.07100
C 	C 	0.11400 0.75200 0.29533 -0.12500
C 	C 	0.74000 0.94800 0.30633 -0.35800
C 	C 	0.84900 0.14800 0.49043 -0.06400
C 	C 	0.85500 0.08400 0.39513 -0.11200
C 	C 	0.88100 0.10000 0.46133 -0.09500
H 	H 	0.74000 0.12900 0.40633 0.04300
H 	H 	0.64300 0.94400 0.46933 0.14400
H 	H 	0.58800 0.97400 0.49933 0.16300
H 	H 	0.54000 0.04000 0.44533 0.10300
H 	H 	0.62500 0.11400 0.46433 0.14100
H 	H 	0.22400 0.80800 0.25633 0.01900
H 	H 	0.24200 0.65100 0.30233 0.15300
H 	H 	0.20200 0.68000 0.25333 0.14800
H 	H 	0.19900 0.75100 0.40133 0.13000
H 	H 	0.15400 0.66600 0.36733 0.13400
H 	H 	0.77900 0.13100 0.31233 0.19200
H 	H 	0.82300 0.09000 0.28033 0.19300
H 	H 	0.74500 0.98500 0.41233 0.04200
H 	H 	0.36700 0.02100 0.26933 0.12800
H 	H 	0.33500 0.93400 0.23933 0.12300
H 	H 	0.73800 0.05200 0.51133 0.05500
H 	H 	0.73700 0.13400 0.50533 0.06400
H 	H 	0.21900 0.87300 0.36533 0.02900
H 	H 	0.21500 0.93700 0.25933 0.06200
H 	H 	0.21400 0.97300 0.32133 0.06900
H 	H 	0.09700 0.80700 0.22533 0.03300
H 	H 	0.01800 0.76100 0.26733 0.02800
H 	H 	0.41100 0.03500 0.36433 0.09700
H 	H 	0.32000 0.01400 0.37633 0.11400
H 	H 	0.08600 0.86900 0.33733 0.04000
H 	H 	0.08800 0.91000 0.27633 0.03600
H 	H 	0.09500 0.74200 0.33533 0.05700
H 	H 	0.09700 0.70200 0.27433 0.05400
H 	H 	0.77100 0.96600 0.27033 0.16300
H 	H 	0.76900 0.93500 0.33433 0.14400
H 	H 	0.86800 0.15900 0.53033 0.04100
H 	H 	0.86900 0.20000 0.47033 0.05700
H 	H 	0.87600 0.05200 0.37633 0.05600
H 	H 	0.87600 0.13500 0.37433 0.07800
H 	H 	0.94000 0.13000 0.46333 0.07100
H 	H 	0.86100 0.04900 0.48233 0.04700
Mn	Mn	0.38550 0.40400 0.66086 1.30000
Mn	Mn	0.46510 0.62180 0.68638 1.30100
Mn	Mn	0.42000 0.70020 0.44503 1.23000
Mn	Mn	0.75060 0.61900 0.82647 1.09700
Mn	Mn	0.39650 0.08050 0.53337 1.22600
O 	O 	0.80300 0.72700 0.85167 -0.41200
O 	O 	0.71100 0.61900 0.91867 -0.70700
O 	O 	0.44400 0.18500 0.59467 -0.22400
O 	O 	0.37890 0.35050 0.57027 -0.59700
O 	O 	0.38920 0.49970 0.72417 -0.58000
O 	O 	0.47980 0.52480 0.63427 -0.59000
O 	O 	0.37340 0.67310 0.53327 -0.46700
O 	O 	0.39430 0.66630 0.73787 -0.58000
O 	O 	0.27510 0.40510 0.63807 -0.50200
O 	O 	0.53940 0.50980 0.55707 -0.52700
O 	O 	0.53530 0.64820 0.76837 -0.48900
O 	O 	0.49230 0.38240 0.66657 -0.43000
O 	O 	0.33210 0.50710 0.80567 -0.51100
O 	O 	0.40450 0.77870 0.77607 -0.36600
O 	O 	0.60200 0.42530 0.72127 -0.33400
O 	O 	0.40620 0.61350 0.60297 -0.47700
O 	O 	0.63300 0.63100 0.80907 -0.65500
O 	O 	0.75700 0.08100 0.18867 -0.23800
O 	O 	0.15100 0.33400 0.60167 -0.45100
O 	O 	0.37800 0.23700 0.52867 -0.36000
N 	N 	0.39410 0.36570 0.75667 -0.09400
N 	N 	0.28460 0.26880 0.66327 -0.09100
N 	N 	0.60240 0.67390 0.66177 -0.09700
N 	N 	0.50940 0.75540 0.65707 -0.09900
C 	C 	0.35400 0.27500 0.75907 -0.02300
C 	C 	0.53660 0.55050 0.59877 0.50000
C 	C 	0.35700 0.39900 0.79667 -0.42300
C 	C 	0.35300 0.27500 0.56787 0.55300
C 	C 	0.48000 0.40400 0.76717 -0.34600
C 	C 	0.40800 0.67400 0.58037 0.43000
C 	C 	0.59400 0.79400 0.62987 -0.00700
C 	C 	0.45000 0.75300 0.61447 -0.38500
C 	C 	0.52900 0.40500 0.71277 0.38400
C 	C 	0.50700 0.79300 0.71037 -0.36400
C 	C 	0.31300 0.22900 0.62457 -0.44700
C 	C 	0.27400 0.23800 0.72597 -0.01800
C 	C 	0.60300 0.63300 0.60517 -0.41700
C 	C 	0.21300 0.34400 0.62567 0.47000
C 	C 	0.34400 0.24300 0.82227 -0.12800
C 	C 	0.59400 0.64300 0.76777 0.51600
C 	C 	0.42900 0.74300 0.74387 0.43100
C 	C 	0.64500 0.76400 0.65847 -0.02000
C 	C 	0.35890 0.47360 0.77377 0.48200
C 	C 	0.72800 0.80400 0.63307 -0.11500
C 	C 	0.71700 0.92300 0.59927 -0.05900
C 	C 	0.63600 0.64400 0.70747 -0.39400
C 	C 	0.77100 0.89300 0.63067 -0.08700
C 	C 	0.63800 0.88600 0.62867 -0.13800
C 	C 	0.20800 0.26000 0.63967 -0.36600
C 	C 	0.29900 0.15100 0.82377 -0.06700
C 	C 	0.22900 0.14500 0.72847 -0.12600
C 	C 	0.21900 0.11900 0.79467 -0.08600
H 	H 	0.38900 0.26000 0.73967 0.04400
H 	H 	0.30100 0.35700 0.80267 0.14500
H 	H 	0.38600 0.41200 0.83267 0.16200
H 	H 	0.50000 0.46000 0.77867 0.10800
H 	H 	0.48900 0.37500 0.79767 0.14300
H 	H 	0.58400 0.77600 0.58967 0.01700
H 	H 	0.40900 0.75800 0.63567 0.15400
H 	H 	0.47800 0.79800 0.58667 0.15000
H 	H 	0.55200 0.80100 0.73467 0.13200
H 	H 	0.51200 0.84600 0.70067 0.13800
H 	H 	0.35200 0.22100 0.64567 0.18900
H 	H 	0.26700 0.17700 0.61367 0.19100
H 	H 	0.24000 0.25500 0.74567 0.02100
H 	H 	0.65400 0.63300 0.60267 0.14800
H 	H 	0.59900 0.66500 0.57267 0.13000
H 	H 	0.31400 0.26200 0.84467 0.06000
H 	H 	0.39700 0.26300 0.83867 0.06400
H 	H 	0.65400 0.78100 0.69867 0.03300
H 	H 	0.72200 0.78500 0.59267 0.05400
H 	H 	0.75900 0.78600 0.65467 0.05900
H 	H 	0.71000 0.90300 0.55867 0.03300
H 	H 	0.74300 0.98200 0.60067 0.03700
H 	H 	0.62400 0.58900 0.69767 0.12700
H 	H 	0.69400 0.68000 0.70967 0.14600
H 	H 	0.78300 0.91400 0.67067 0.05100
H 	H 	0.82200 0.91200 0.60967 0.04600
H 	H 	0.64700 0.90500 0.66867 0.06700
H 	H 	0.60500 0.90300 0.60767 0.06300
H 	H 	0.19500 0.22900 0.60367 0.15700
H 	H 	0.16600 0.23100 0.66767 0.13900
H 	H 	0.29100 0.13200 0.86367 0.03900
H 	H 	0.33100 0.13100 0.80367 0.05300
H 	H 	0.17600 0.12400 0.70967 0.05800
H 	H 	0.25900 0.12400 0.70767 0.07700
H 	H 	0.19000 0.06000 0.79667 0.06000
H 	H 	0.18800 0.13900 0.81567 0.04500
Mn	Mn	0.56360 -0.00000 0.16667 1.26000
Mn	Mn	0.00000 0.56360 0.83333 1.26000
Mn	Mn	0.43640 0.43640 0.50000 1.26600
