data_crystal

_cell_length_a 7.78080
_cell_length_b 10.85290
_cell_length_c 15.27520
_cell_angle_alpha 90.00000
_cell_angle_beta  90.00000
_cell_angle_gamma 90.00000

_symmetry_space_group_name_	'P 1'
_symmetry_space_group_name_H-M	'P 1'

loop_
_symmetry_equiv_pos_as_xyz
  x,y,z

loop_
_atom_site_label
_atom_site_type_symbol
_atom_site_fract_x
_atom_site_fract_y
_atom_site_fract_z
_atom_site_charge
Mn	Mn	0.98408 0.29866 0.70584 1.27400
Mn	Mn	0.01592 0.79866 0.29416 1.27200
Mn	Mn	0.48408 0.29866 0.79416 1.27500
Mn	Mn	0.51592 0.79866 0.20584 1.27400
H 	H 	0.89000 0.90130 0.57330 0.13900
H 	H 	0.85980 0.97730 0.65310 0.14600
H 	H 	0.20110 0.02390 0.50610 0.02200
H 	H 	0.58110 0.07120 0.68140 0.04300
H 	H 	0.66420 0.86830 0.46600 0.03800
H 	H 	0.11000 0.40130 0.42670 0.14400
H 	H 	0.14020 0.47730 0.34690 0.15400
H 	H 	0.79890 0.52390 0.49390 0.03200
H 	H 	0.41890 0.57120 0.31860 0.05500
H 	H 	0.33580 0.36830 0.53400 0.04900
H 	H 	0.39000 0.90130 0.92670 0.13800
H 	H 	0.35980 0.97730 0.84690 0.14400
H 	H 	0.70110 0.02390 0.99390 0.02600
H 	H 	0.08110 0.07120 0.81860 0.04100
H 	H 	0.16420 0.86830 0.03400 0.03900
H 	H 	0.61000 0.40130 0.07330 0.14500
H 	H 	0.64020 0.47730 0.15310 0.15400
H 	H 	0.29890 0.52390 0.00610 0.02900
H 	H 	0.91890 0.57120 0.18140 0.05100
H 	H 	0.83580 0.36830 0.96600 0.03900
C 	C 	0.42270 0.93620 0.47418 -0.14200
C 	C 	0.31340 0.00934 0.52426 0.06800
C 	C 	0.37440 0.06051 0.60210 -0.10900
C 	C 	0.54220 0.03800 0.62888 -0.03800
C 	C 	0.65280 0.96666 0.57827 0.07100
C 	C 	0.59170 0.91599 0.50059 -0.04300
C 	C 	0.36160 0.88182 0.38892 0.43200
C 	C 	0.25980 0.13999 0.65698 0.36100
C 	C 	0.57730 0.43620 0.52582 -0.10000
C 	C 	0.68660 0.50934 0.47574 0.02000
C 	C 	0.62560 0.56051 0.39790 -0.08300
C 	C 	0.45780 0.53800 0.37112 -0.08300
C 	C 	0.34720 0.46666 0.42173 0.11100
C 	C 	0.40830 0.41599 0.49941 -0.07300
C 	C 	0.63840 0.38182 0.61108 0.42000
C 	C 	0.74020 0.63999 0.34302 0.35000
C 	C 	0.92270 0.93620 0.02582 -0.12000
C 	C 	0.81340 0.00934 0.97574 0.05000
C 	C 	0.87440 0.06051 0.89790 -0.11300
C 	C 	0.04220 0.03800 0.87112 -0.02600
C 	C 	0.15280 0.96666 0.92173 0.06800
C 	C 	0.09170 0.91599 0.99941 -0.05500
C 	C 	0.86160 0.88182 0.11108 0.42600
C 	C 	0.75980 0.13999 0.84302 0.36100
C 	C 	0.07730 0.43620 0.97418 -0.11000
C 	C 	0.18660 0.50934 0.02426 0.02700
C 	C 	0.12560 0.56051 0.10210 -0.09500
C 	C 	0.95780 0.53800 0.12888 -0.06800
C 	C 	0.84720 0.46666 0.07827 0.10100
C 	C 	0.90830 0.41599 0.00059 -0.05400
C 	C 	0.13840 0.38182 0.88892 0.42400
C 	C 	0.24020 0.63999 0.15698 0.35400
N 	N 	0.82280 0.94570 0.60502 -0.29900
N 	N 	0.17720 0.44570 0.39498 -0.30800
N 	N 	0.32280 0.94570 0.89498 -0.29800
N 	N 	0.67720 0.44570 0.10502 -0.30600
O 	O 	0.11580 0.17080 0.62725 -0.45300
O 	O 	0.30960 0.17178 0.73302 -0.48000
O 	O 	0.47440 0.86179 0.33218 -0.52200
O 	O 	0.20454 0.86248 0.38030 -0.51300
O 	O 	0.88420 0.67080 0.37275 -0.45300
O 	O 	0.69040 0.67178 0.26698 -0.48000
O 	O 	0.52560 0.36179 0.66782 -0.51700
O 	O 	0.79546 0.36248 0.61970 -0.50400
O 	O 	0.61580 0.17080 0.87275 -0.45500
O 	O 	0.80960 0.17178 0.76698 -0.48200
O 	O 	0.97440 0.86179 0.16782 -0.51500
O 	O 	0.70454 0.86248 0.11970 -0.50800
O 	O 	0.38420 0.67080 0.12725 -0.45700
O 	O 	0.19040 0.67178 0.23302 -0.48400
O 	O 	0.02560 0.36179 0.83218 -0.51600
O 	O 	0.29546 0.36248 0.88030 -0.50500
