data_crystal

_cell_length_a 13.65560
_cell_length_b 28.19400
_cell_length_c 17.26930
_cell_angle_alpha 90.00000
_cell_angle_beta  107.08000
_cell_angle_gamma 90.00000

_symmetry_space_group_name_	'P 1'
_symmetry_space_group_name_H-M	'P 1'

loop_
_symmetry_equiv_pos_as_xyz
  x,y,z

loop_
_atom_site_label
_atom_site_type_symbol
_atom_site_fract_x
_atom_site_fract_y
_atom_site_fract_z
_atom_site_charge
C 	C 	0.54670 0.44710 0.64000 0.22600
C 	C 	0.44230 0.46080 0.57920 0.24400
C 	C 	0.29530 0.34030 0.66620 0.24800
C 	C 	0.21640 0.37680 0.67980 0.21800
C 	C 	0.90260 0.29790 0.56640 0.24700
C 	C 	0.95990 0.29690 0.50020 0.20100
C 	C 	0.47220 0.48930 0.82740 0.21500
C 	C 	0.48600 0.44200 0.86950 0.20500
C 	C 	0.18580 0.25130 0.81990 0.23500
C 	C 	0.18920 0.20760 0.76490 0.24100
C 	C 	0.72230 0.41300 0.46010 0.25300
C 	C 	0.62470 0.38350 0.45660 0.21000
O 	O 	0.62620 0.45730 0.62370 -0.31700
O 	O 	0.44220 0.48178 0.51670 -0.32500
O 	O 	0.54060 0.42601 0.70370 -0.38900
O 	O 	0.36510 0.44763 0.59920 -0.38100
O 	O 	0.38290 0.35634 0.67490 -0.38600
O 	O 	0.25430 0.41752 0.70490 -0.37500
O 	O 	0.26660 0.29953 0.64750 -0.34500
O 	O 	0.12730 0.36380 0.66580 -0.31700
O 	O 	0.95230 0.28780 0.63610 -0.35300
O 	O 	0.05240 0.28672 0.52150 -0.30700
O 	O 	0.80930 0.30770 0.54080 -0.38600
O 	O 	0.90500 0.30618 0.42930 -0.37600
O 	O 	0.72400 0.45543 0.47600 -0.35000
O 	O 	0.55560 0.40184 0.47780 -0.25700
O 	O 	0.41820 0.48868 0.75280 -0.37900
O 	O 	0.45060 0.40592 0.82600 -0.38300
O 	O 	0.51380 0.52474 0.86530 -0.31700
O 	O 	0.52930 0.44018 0.94480 -0.31500
O 	O 	0.15370 0.28958 0.78680 -0.32900
O 	O 	0.15790 0.21283 0.69140 -0.33700
O 	O 	0.21810 0.24343 0.89430 -0.40500
O 	O 	0.22340 0.17039 0.80380 -0.38800
O 	O 	0.79410 0.39000 0.44360 -0.39200
O 	O 	0.62700 0.34040 0.43230 -0.37000
Cr	Cr	0.40076 0.42336 0.71085 1.56800
Cr	Cr	0.76189 0.32230 0.42276 1.56700
Mn	Mn	0.59197 0.48837 0.49746 1.31200
Mn	Mn	0.11553 0.28588 0.65367 1.31200
O 	O 	0.68400 0.54590 0.56350 -0.26700
C 	C 	0.77180 0.54050 0.63010 0.15100
O 	O 	0.70800 0.53670 0.58000 -0.02200
C 	C 	0.04670 0.94710 0.64000 0.23700
C 	C 	0.94230 0.96080 0.57920 0.23000
C 	C 	0.79530 0.84030 0.66620 0.24800
C 	C 	0.71640 0.87680 0.67980 0.21800
C 	C 	0.40260 0.79790 0.56640 0.24200
C 	C 	0.45990 0.79690 0.50020 0.22200
C 	C 	0.97220 0.98930 0.82740 0.20100
C 	C 	0.98600 0.94200 0.86950 0.19100
C 	C 	0.68580 0.75130 0.81990 0.23400
C 	C 	0.68920 0.70760 0.76490 0.24100
C 	C 	0.22230 0.91300 0.46010 0.25400
C 	C 	0.12470 0.88350 0.45660 0.21000
O 	O 	0.12620 0.95730 0.62370 -0.31700
O 	O 	0.94220 0.98178 0.51670 -0.33100
O 	O 	0.04060 0.92601 0.70370 -0.38300
O 	O 	0.86510 0.94763 0.59920 -0.38200
O 	O 	0.88290 0.85634 0.67490 -0.39100
O 	O 	0.75430 0.91752 0.70490 -0.37800
O 	O 	0.76660 0.79953 0.64750 -0.34700
O 	O 	0.62730 0.86380 0.66580 -0.32200
O 	O 	0.45230 0.78780 0.63610 -0.34300
O 	O 	0.55240 0.78672 0.52150 -0.32500
O 	O 	0.30930 0.80770 0.54080 -0.38200
O 	O 	0.40500 0.80618 0.42930 -0.37800
O 	O 	0.22400 0.95543 0.47600 -0.34800
O 	O 	0.05560 0.90184 0.47780 -0.25200
O 	O 	0.91820 0.98868 0.75280 -0.38000
O 	O 	0.95060 0.90592 0.82600 -0.38400
O 	O 	0.01380 0.02474 0.86530 -0.30300
O 	O 	0.02930 0.94018 0.94480 -0.29900
O 	O 	0.65370 0.78958 0.78680 -0.33200
O 	O 	0.65790 0.71283 0.69140 -0.34000
O 	O 	0.71810 0.74343 0.89430 -0.40700
O 	O 	0.72340 0.67039 0.80380 -0.39100
O 	O 	0.29410 0.89000 0.44360 -0.39000
O 	O 	0.12700 0.84040 0.43230 -0.36700
Cr	Cr	0.90076 0.92336 0.71085 1.56600
Cr	Cr	0.26189 0.82230 0.42276 1.56800
Mn	Mn	0.09197 0.98837 0.49746 1.31400
Mn	Mn	0.61553 0.78588 0.65367 1.31000
O 	O 	0.18400 0.04590 0.56350 -0.27100
C 	C 	0.27180 0.04050 0.63010 0.15400
O 	O 	0.20800 0.03670 0.58000 -0.01600
C 	C 	0.54670 0.55290 0.14000 0.23100
C 	C 	0.44230 0.53920 0.07920 0.24400
C 	C 	0.29530 0.65970 0.16620 0.25000
C 	C 	0.21640 0.62320 0.17980 0.22200
C 	C 	0.90260 0.70210 0.06640 0.22800
C 	C 	0.95990 0.70310 0.00020 0.29200
C 	C 	0.47220 0.51070 0.32740 0.22100
C 	C 	0.48600 0.55800 0.36950 0.20500
C 	C 	0.18580 0.74870 0.31990 0.23300
C 	C 	0.18920 0.79240 0.26490 0.24400
C 	C 	0.72230 0.58700 0.96010 0.24800
C 	C 	0.62470 0.61650 0.95660 0.20700
O 	O 	0.62620 0.54270 0.12370 -0.29300
O 	O 	0.44220 0.51822 0.01670 -0.28400
O 	O 	0.54060 0.57399 0.20370 -0.38200
O 	O 	0.36510 0.55237 0.09920 -0.36700
O 	O 	0.38290 0.64366 0.17490 -0.37500
O 	O 	0.25430 0.58248 0.20490 -0.36500
O 	O 	0.26660 0.70047 0.14750 -0.33300
O 	O 	0.12730 0.63620 0.16580 -0.30600
O 	O 	0.95230 0.71220 0.13610 -0.33600
O 	O 	0.05240 0.71328 0.02150 -0.31000
O 	O 	0.80930 0.69230 0.04080 -0.33700
O 	O 	0.90500 0.69382 0.92930 -0.44700
O 	O 	0.72400 0.54457 0.97600 -0.37400
O 	O 	0.55560 0.59816 0.97780 -0.28800
O 	O 	0.41820 0.51132 0.25280 -0.37100
O 	O 	0.45060 0.59408 0.32600 -0.37100
O 	O 	0.51380 0.47526 0.36530 -0.30600
O 	O 	0.52930 0.55982 0.44480 -0.28400
O 	O 	0.15370 0.71042 0.28680 -0.31800
O 	O 	0.15790 0.78717 0.19140 -0.32600
O 	O 	0.21810 0.75657 0.39430 -0.38400
O 	O 	0.22340 0.82961 0.30380 -0.38300
O 	O 	0.79410 0.61000 0.94360 -0.41200
O 	O 	0.62700 0.65960 0.93230 -0.38800
Cr	Cr	0.40076 0.57664 0.21085 1.56900
Cr	Cr	0.76189 0.67770 0.92276 1.55800
Mn	Mn	0.59197 0.51163 0.99746 1.28800
Mn	Mn	0.11553 0.71412 0.15367 1.31500
O 	O 	0.68400 0.45410 0.06350 -0.28400
C 	C 	0.77180 0.45950 0.13010 0.16000
O 	O 	0.70800 0.46330 0.08000 0.03000
C 	C 	0.04670 0.05290 0.14000 0.24400
C 	C 	0.94230 0.03920 0.07920 0.23000
C 	C 	0.79530 0.15970 0.16620 0.25000
C 	C 	0.71640 0.12320 0.17980 0.22200
C 	C 	0.40260 0.20210 0.06640 0.22200
C 	C 	0.45990 0.20310 0.00020 0.31600
C 	C 	0.97220 0.01070 0.32740 0.20600
C 	C 	0.98600 0.05800 0.36950 0.18900
C 	C 	0.68580 0.24870 0.31990 0.23300
C 	C 	0.68920 0.29240 0.26490 0.24300
C 	C 	0.22230 0.08700 0.96010 0.24900
C 	C 	0.12470 0.11650 0.95660 0.20700
O 	O 	0.12620 0.04270 0.12370 -0.29300
O 	O 	0.94220 0.01822 0.01670 -0.29000
O 	O 	0.04060 0.07399 0.20370 -0.37500
O 	O 	0.86510 0.05237 0.09920 -0.36800
O 	O 	0.88290 0.14366 0.17490 -0.38000
O 	O 	0.75430 0.08248 0.20490 -0.36800
O 	O 	0.76660 0.20047 0.14750 -0.33500
O 	O 	0.62730 0.13620 0.16580 -0.31100
O 	O 	0.45230 0.21220 0.13610 -0.32500
O 	O 	0.55240 0.21328 0.02150 -0.32700
O 	O 	0.30930 0.19230 0.04080 -0.33300
O 	O 	0.40500 0.19382 0.92930 -0.45100
O 	O 	0.22400 0.04457 0.97600 -0.37200
O 	O 	0.05560 0.09816 0.97780 -0.28300
O 	O 	0.91820 0.01132 0.25280 -0.37300
O 	O 	0.95060 0.09408 0.32600 -0.37200
O 	O 	0.01380 0.97526 0.36530 -0.29200
O 	O 	0.02930 0.05982 0.44480 -0.26900
O 	O 	0.65370 0.21042 0.28680 -0.32200
O 	O 	0.65790 0.28717 0.19140 -0.32900
O 	O 	0.71810 0.25657 0.39430 -0.38600
O 	O 	0.72340 0.32961 0.30380 -0.38500
O 	O 	0.29410 0.11000 0.94360 -0.41000
O 	O 	0.12700 0.15960 0.93230 -0.38600
Cr	Cr	0.90076 0.07664 0.21085 1.56700
Cr	Cr	0.26189 0.17770 0.92276 1.55800
Mn	Mn	0.09197 0.01163 0.99746 1.29000
Mn	Mn	0.61553 0.21412 0.15367 1.31200
O 	O 	0.18400 0.95410 0.06350 -0.28700
C 	C 	0.27180 0.95950 0.13010 0.16300
O 	O 	0.20800 0.96330 0.08000 0.03400
