data_crystal

_cell_length_a 17.97020
_cell_length_b 25.07800
_cell_length_c 27.03630
_cell_angle_alpha 90.00000
_cell_angle_beta  90.00000
_cell_angle_gamma 90.00000

_symmetry_space_group_name_	'P 1'
_symmetry_space_group_name_H-M	'P 1'

loop_
_symmetry_equiv_pos_as_xyz
  x,y,z

loop_
_atom_site_label
_atom_site_type_symbol
_atom_site_fract_x
_atom_site_fract_y
_atom_site_fract_z
_atom_site_charge
C 	C 	0.01150 0.24680 0.55250 0.27600
C 	C 	0.04560 0.19090 0.54610 0.22000
C 	C 	0.16100 0.36820 0.62120 0.21300
C 	C 	0.13810 0.32910 0.66290 0.26100
C 	C 	0.81690 0.20710 0.46300 0.22200
C 	C 	0.76570 0.21490 0.50690 0.22300
O 	O 	0.05360 0.28360 0.56301 -0.31000
O 	O 	0.11430 0.18610 0.55080 -0.32800
O 	O 	0.94150 0.24860 0.54851 -0.42200
O 	O 	0.00140 0.15398 0.53567 -0.36800
O 	O 	0.17860 0.35118 0.58077 -0.29000
O 	O 	0.13990 0.28180 0.65386 -0.35600
O 	O 	0.15930 0.41780 0.63406 -0.37400
O 	O 	0.11840 0.35101 0.70317 -0.38500
O 	O 	0.79620 0.22160 0.42183 -0.33800
O 	O 	0.70260 0.23160 0.49969 -0.32300
O 	O 	0.88010 0.18550 0.47246 -0.39200
O 	O 	0.79330 0.20240 0.54898 -0.37700
Cr	Cr	0.89708 0.17688 0.54415 1.56200
Mn	Mn	0.17393 0.25831 0.57954 1.29300
C 	C 	0.01150 0.74680 0.05250 0.27600
C 	C 	0.04560 0.69090 0.04610 0.22100
C 	C 	0.16100 0.86820 0.12120 0.21400
C 	C 	0.13810 0.82910 0.16290 0.26200
C 	C 	0.81690 0.70710 0.96300 0.22300
C 	C 	0.76570 0.71490 0.00690 0.22400
O 	O 	0.05360 0.78360 0.06301 -0.30900
O 	O 	0.11430 0.68610 0.05080 -0.32700
O 	O 	0.94150 0.74860 0.04851 -0.42000
O 	O 	0.00140 0.65398 0.03567 -0.36700
O 	O 	0.17860 0.85118 0.08077 -0.28900
O 	O 	0.13990 0.78180 0.15386 -0.35500
O 	O 	0.15930 0.91780 0.13406 -0.37300
O 	O 	0.11840 0.85101 0.20317 -0.38400
O 	O 	0.79620 0.72160 0.92183 -0.33700
O 	O 	0.70260 0.73160 0.99969 -0.32200
O 	O 	0.88010 0.68550 0.97246 -0.39100
O 	O 	0.79330 0.70240 0.04898 -0.37600
Cr	Cr	0.89708 0.67688 0.04415 1.56200
Mn	Mn	0.17393 0.75831 0.07954 1.29300
C 	C 	0.51150 0.24680 0.05250 0.23100
C 	C 	0.54560 0.19090 0.04610 0.23100
C 	C 	0.66100 0.36820 0.12120 0.21200
C 	C 	0.63810 0.32910 0.16290 0.26100
C 	C 	0.31690 0.20710 0.96300 0.22300
C 	C 	0.26570 0.21490 0.00690 0.22500
O 	O 	0.55360 0.28360 0.06301 -0.30400
O 	O 	0.61430 0.18610 0.05080 -0.33600
O 	O 	0.44150 0.24860 0.04851 -0.38500
O 	O 	0.50140 0.15398 0.03567 -0.39200
O 	O 	0.67860 0.35118 0.08077 -0.29200
O 	O 	0.63990 0.28180 0.15386 -0.35900
O 	O 	0.65930 0.41780 0.13406 -0.37600
O 	O 	0.61840 0.35101 0.20317 -0.38900
O 	O 	0.29620 0.22160 0.92183 -0.33200
O 	O 	0.20260 0.23160 0.99969 -0.31800
O 	O 	0.38010 0.18550 0.97246 -0.38200
O 	O 	0.29330 0.20240 0.04898 -0.37300
Cr	Cr	0.39708 0.17688 0.04415 1.56700
Mn	Mn	0.67393 0.25831 0.07954 1.29200
C 	C 	0.51150 0.74680 0.55250 0.23100
C 	C 	0.54560 0.69090 0.54610 0.23100
C 	C 	0.66100 0.86820 0.62120 0.21200
C 	C 	0.63810 0.82910 0.66290 0.26100
C 	C 	0.31690 0.70710 0.46300 0.22300
C 	C 	0.26570 0.71490 0.50690 0.22500
O 	O 	0.55360 0.78360 0.56301 -0.30400
O 	O 	0.61430 0.68610 0.55080 -0.33600
O 	O 	0.44150 0.74860 0.54851 -0.38400
O 	O 	0.50140 0.65398 0.53567 -0.39200
O 	O 	0.67860 0.85118 0.58077 -0.29200
O 	O 	0.63990 0.78180 0.65386 -0.35900
O 	O 	0.65930 0.91780 0.63406 -0.37600
O 	O 	0.61840 0.85101 0.70317 -0.38900
O 	O 	0.29620 0.72160 0.42183 -0.33200
O 	O 	0.20260 0.73160 0.49969 -0.31800
O 	O 	0.38010 0.68550 0.47246 -0.38200
O 	O 	0.29330 0.70240 0.54898 -0.37300
Cr	Cr	0.39708 0.67688 0.54415 1.56700
Mn	Mn	0.67393 0.75831 0.57954 1.29200
C 	C 	0.01150 0.75320 0.44750 0.27700
C 	C 	0.04560 0.80910 0.45390 0.22100
C 	C 	0.16100 0.63180 0.37880 0.21400
C 	C 	0.13810 0.67090 0.33710 0.26200
C 	C 	0.81690 0.79290 0.53700 0.22300
C 	C 	0.76570 0.78510 0.49310 0.22400
O 	O 	0.05360 0.71640 0.43699 -0.30900
O 	O 	0.11430 0.81390 0.44920 -0.32700
O 	O 	0.94150 0.75140 0.45149 -0.42100
O 	O 	0.00140 0.84602 0.46433 -0.36700
O 	O 	0.17860 0.64882 0.41923 -0.28900
O 	O 	0.13990 0.71820 0.34614 -0.35500
O 	O 	0.15930 0.58220 0.36594 -0.37300
O 	O 	0.11840 0.64899 0.29683 -0.38400
O 	O 	0.79620 0.77840 0.57817 -0.33700
O 	O 	0.70260 0.76840 0.50031 -0.32200
O 	O 	0.88010 0.81450 0.52754 -0.39100
O 	O 	0.79330 0.79760 0.45102 -0.37600
Cr	Cr	0.89708 0.82312 0.45585 1.56200
Mn	Mn	0.17393 0.74169 0.42046 1.29300
C 	C 	0.01150 0.25320 0.94750 0.27600
C 	C 	0.04560 0.30910 0.95390 0.22100
C 	C 	0.16100 0.13180 0.87880 0.21400
C 	C 	0.13810 0.17090 0.83710 0.26200
C 	C 	0.81690 0.29290 0.03700 0.22300
C 	C 	0.76570 0.28510 0.99310 0.22400
O 	O 	0.05360 0.21640 0.93699 -0.30900
O 	O 	0.11430 0.31390 0.94920 -0.32700
O 	O 	0.94150 0.25140 0.95149 -0.42000
O 	O 	0.00140 0.34602 0.96433 -0.36700
O 	O 	0.17860 0.14882 0.91923 -0.28900
O 	O 	0.13990 0.21820 0.84614 -0.35500
O 	O 	0.15930 0.08220 0.86594 -0.37300
O 	O 	0.11840 0.14899 0.79683 -0.38400
O 	O 	0.79620 0.27840 0.07817 -0.33700
O 	O 	0.70260 0.26840 0.00031 -0.32200
O 	O 	0.88010 0.31450 0.02754 -0.39100
O 	O 	0.79330 0.29760 0.95102 -0.37600
Cr	Cr	0.89708 0.32312 0.95585 1.56200
Mn	Mn	0.17393 0.24169 0.92046 1.29300
C 	C 	0.51150 0.75320 0.94750 0.23100
C 	C 	0.54560 0.80910 0.95390 0.23100
C 	C 	0.66100 0.63180 0.87880 0.21200
C 	C 	0.63810 0.67090 0.83710 0.26100
C 	C 	0.31690 0.79290 0.03700 0.22300
C 	C 	0.26570 0.78510 0.99310 0.22500
O 	O 	0.55360 0.71640 0.93699 -0.30400
O 	O 	0.61430 0.81390 0.94920 -0.33600
O 	O 	0.44150 0.75140 0.95149 -0.38500
O 	O 	0.50140 0.84602 0.96433 -0.39200
O 	O 	0.67860 0.64882 0.91923 -0.29200
O 	O 	0.63990 0.71820 0.84614 -0.35900
O 	O 	0.65930 0.58220 0.86594 -0.37600
O 	O 	0.61840 0.64899 0.79683 -0.38900
O 	O 	0.29620 0.77840 0.07817 -0.33200
O 	O 	0.20260 0.76840 0.00031 -0.31800
O 	O 	0.38010 0.81450 0.02754 -0.38200
O 	O 	0.29330 0.79760 0.95102 -0.37300
Cr	Cr	0.39708 0.82312 0.95585 1.56700
Mn	Mn	0.67393 0.74169 0.92046 1.29200
C 	C 	0.51150 0.25320 0.44750 0.23100
C 	C 	0.54560 0.30910 0.45390 0.23100
C 	C 	0.66100 0.13180 0.37880 0.21200
C 	C 	0.63810 0.17090 0.33710 0.26100
C 	C 	0.31690 0.29290 0.53700 0.22300
C 	C 	0.26570 0.28510 0.49310 0.22500
O 	O 	0.55360 0.21640 0.43699 -0.30400
O 	O 	0.61430 0.31390 0.44920 -0.33600
O 	O 	0.44150 0.25140 0.45149 -0.38400
O 	O 	0.50140 0.34602 0.46433 -0.39200
O 	O 	0.67860 0.14882 0.41923 -0.29200
O 	O 	0.63990 0.21820 0.34614 -0.35900
O 	O 	0.65930 0.08220 0.36594 -0.37600
O 	O 	0.61840 0.14899 0.29683 -0.38900
O 	O 	0.29620 0.27840 0.57817 -0.33200
O 	O 	0.20260 0.26840 0.50031 -0.31800
O 	O 	0.38010 0.31450 0.52754 -0.38200
O 	O 	0.29330 0.29760 0.45102 -0.37300
Cr	Cr	0.39708 0.32312 0.45585 1.56700
Mn	Mn	0.67393 0.24169 0.42046 1.29200
C 	C 	0.76150 0.99680 0.69750 0.23000
C 	C 	0.79560 0.94090 0.70390 0.23200
C 	C 	0.91100 0.11820 0.62880 0.21100
C 	C 	0.88810 0.07910 0.58710 0.25700
C 	C 	0.56690 0.95710 0.78700 0.22200
C 	C 	0.51570 0.96490 0.74310 0.22500
O 	O 	0.80360 0.03360 0.68699 -0.30600
O 	O 	0.86430 0.93610 0.69920 -0.34100
O 	O 	0.69150 0.99860 0.70149 -0.38600
O 	O 	0.75140 0.90398 0.71433 -0.39400
O 	O 	0.92860 0.10118 0.66923 -0.30400
O 	O 	0.88990 0.03180 0.59614 -0.36400
O 	O 	0.90930 0.16780 0.61594 -0.38600
O 	O 	0.86840 0.10101 0.54683 -0.39400
O 	O 	0.54620 0.97160 0.82817 -0.33300
O 	O 	0.45260 0.98160 0.75031 -0.32100
O 	O 	0.63010 0.93550 0.77754 -0.38300
O 	O 	0.54330 0.95240 0.70102 -0.37500
Cr	Cr	0.64708 0.92688 0.70585 1.56600
Mn	Mn	0.92393 0.00831 0.67046 1.28700
C 	C 	0.76150 0.49680 0.19750 0.23000
C 	C 	0.79560 0.44090 0.20390 0.23200
C 	C 	0.91100 0.61820 0.12880 0.21100
C 	C 	0.88810 0.57910 0.08710 0.25700
C 	C 	0.56690 0.45710 0.28700 0.22200
C 	C 	0.51570 0.46490 0.24310 0.22500
O 	O 	0.80360 0.53360 0.18699 -0.30600
O 	O 	0.86430 0.43610 0.19920 -0.34100
O 	O 	0.69150 0.49860 0.20149 -0.38600
O 	O 	0.75140 0.40398 0.21433 -0.39400
O 	O 	0.92860 0.60118 0.16923 -0.30400
O 	O 	0.88990 0.53180 0.09614 -0.36400
O 	O 	0.90930 0.66780 0.11594 -0.38600
O 	O 	0.86840 0.60101 0.04683 -0.39400
O 	O 	0.54620 0.47160 0.32817 -0.33300
O 	O 	0.45260 0.48160 0.25031 -0.32100
O 	O 	0.63010 0.43550 0.27754 -0.38300
O 	O 	0.54330 0.45240 0.20102 -0.37500
Cr	Cr	0.64708 0.42688 0.20585 1.56600
Mn	Mn	0.92393 0.50831 0.17046 1.28700
C 	C 	0.26150 0.99680 0.19750 0.23100
C 	C 	0.29560 0.94090 0.20390 0.23100
C 	C 	0.41100 0.11820 0.12880 0.21300
C 	C 	0.38810 0.07910 0.08710 0.26100
C 	C 	0.06690 0.95710 0.28700 0.21100
C 	C 	0.01570 0.96490 0.24310 0.27200
O 	O 	0.30360 0.03360 0.18699 -0.30300
O 	O 	0.36430 0.93610 0.19920 -0.33400
O 	O 	0.19150 0.99860 0.20149 -0.38200
O 	O 	0.25140 0.90398 0.21433 -0.39100
O 	O 	0.42860 0.10118 0.16923 -0.29100
O 	O 	0.38990 0.03180 0.09614 -0.35800
O 	O 	0.40930 0.16780 0.11594 -0.37500
O 	O 	0.36840 0.10101 0.04683 -0.38800
O 	O 	0.04620 0.97160 0.32817 -0.31200
O 	O 	0.95260 0.98160 0.25031 -0.35900
O 	O 	0.13010 0.93550 0.27754 -0.37600
O 	O 	0.04330 0.95240 0.20102 -0.37800
Cr	Cr	0.14708 0.92688 0.20585 1.56700
Mn	Mn	0.42393 0.00831 0.17046 1.29200
C 	C 	0.26150 0.49680 0.69750 0.23100
C 	C 	0.29560 0.44090 0.70390 0.23200
C 	C 	0.41100 0.61820 0.62880 0.21300
C 	C 	0.38810 0.57910 0.58710 0.26100
C 	C 	0.06690 0.45710 0.78700 0.21100
C 	C 	0.01570 0.46490 0.74310 0.27300
O 	O 	0.30360 0.53360 0.68699 -0.30300
O 	O 	0.36430 0.43610 0.69920 -0.33400
O 	O 	0.19150 0.49860 0.70149 -0.38200
O 	O 	0.25140 0.40398 0.71433 -0.39100
O 	O 	0.42860 0.60118 0.66923 -0.29100
O 	O 	0.38990 0.53180 0.59614 -0.35800
O 	O 	0.40930 0.66780 0.61594 -0.37500
O 	O 	0.36840 0.60101 0.54683 -0.38800
O 	O 	0.04620 0.47160 0.82817 -0.31200
O 	O 	0.95260 0.48160 0.75031 -0.35900
O 	O 	0.13010 0.43550 0.77754 -0.37600
O 	O 	0.04330 0.45240 0.70102 -0.37800
Cr	Cr	0.14708 0.42688 0.70585 1.56700
Mn	Mn	0.42393 0.50831 0.67046 1.29200
C 	C 	0.76150 0.50320 0.80250 0.23000
C 	C 	0.79560 0.55910 0.79610 0.23200
C 	C 	0.91100 0.38180 0.87120 0.21100
C 	C 	0.88810 0.42090 0.91290 0.25700
C 	C 	0.56690 0.54290 0.71300 0.22200
C 	C 	0.51570 0.53510 0.75690 0.22500
O 	O 	0.80360 0.46640 0.81301 -0.30600
O 	O 	0.86430 0.56390 0.80080 -0.34100
O 	O 	0.69150 0.50140 0.79851 -0.38600
O 	O 	0.75140 0.59602 0.78567 -0.39400
O 	O 	0.92860 0.39882 0.83077 -0.30400
O 	O 	0.88990 0.46820 0.90386 -0.36400
O 	O 	0.90930 0.33220 0.88406 -0.38600
O 	O 	0.86840 0.39899 0.95317 -0.39400
O 	O 	0.54620 0.52840 0.67183 -0.33300
O 	O 	0.45260 0.51840 0.74969 -0.32100
O 	O 	0.63010 0.56450 0.72246 -0.38300
O 	O 	0.54330 0.54760 0.79898 -0.37500
Cr	Cr	0.64708 0.57312 0.79415 1.56600
Mn	Mn	0.92393 0.49169 0.82954 1.28700
C 	C 	0.76150 0.00320 0.30250 0.23000
C 	C 	0.79560 0.05910 0.29610 0.23200
C 	C 	0.91100 0.88180 0.37120 0.21100
C 	C 	0.88810 0.92090 0.41290 0.25700
C 	C 	0.56690 0.04290 0.21300 0.22200
C 	C 	0.51570 0.03510 0.25690 0.22500
O 	O 	0.80360 0.96640 0.31301 -0.30600
O 	O 	0.86430 0.06390 0.30080 -0.34100
O 	O 	0.69150 0.00140 0.29851 -0.38600
O 	O 	0.75140 0.09602 0.28567 -0.39400
O 	O 	0.92860 0.89882 0.33077 -0.30400
O 	O 	0.88990 0.96820 0.40386 -0.36400
O 	O 	0.90930 0.83220 0.38406 -0.38600
O 	O 	0.86840 0.89899 0.45317 -0.39400
O 	O 	0.54620 0.02840 0.17183 -0.33300
O 	O 	0.45260 0.01840 0.24969 -0.32100
O 	O 	0.63010 0.06450 0.22246 -0.38300
O 	O 	0.54330 0.04760 0.29898 -0.37500
Cr	Cr	0.64708 0.07312 0.29415 1.56600
Mn	Mn	0.92393 0.99169 0.32954 1.28700
C 	C 	0.26150 0.50320 0.30250 0.23100
C 	C 	0.29560 0.55910 0.29610 0.23200
C 	C 	0.41100 0.38180 0.37120 0.21300
C 	C 	0.38810 0.42090 0.41290 0.26100
C 	C 	0.06690 0.54290 0.21300 0.21100
C 	C 	0.01570 0.53510 0.25690 0.27300
O 	O 	0.30360 0.46640 0.31301 -0.30300
O 	O 	0.36430 0.56390 0.30080 -0.33400
O 	O 	0.19150 0.50140 0.29851 -0.38200
O 	O 	0.25140 0.59602 0.28567 -0.39100
O 	O 	0.42860 0.39882 0.33077 -0.29100
O 	O 	0.38990 0.46820 0.40386 -0.35800
O 	O 	0.40930 0.33220 0.38406 -0.37500
O 	O 	0.36840 0.39899 0.45317 -0.38800
O 	O 	0.04620 0.52840 0.17183 -0.31200
O 	O 	0.95260 0.51840 0.24969 -0.35900
O 	O 	0.13010 0.56450 0.22246 -0.37600
O 	O 	0.04330 0.54760 0.29898 -0.37800
Cr	Cr	0.14708 0.57312 0.29415 1.56700
Mn	Mn	0.42393 0.49169 0.32954 1.29200
C 	C 	0.26150 0.00320 0.80250 0.23100
C 	C 	0.29560 0.05910 0.79610 0.23100
C 	C 	0.41100 0.88180 0.87120 0.21300
C 	C 	0.38810 0.92090 0.91290 0.26100
C 	C 	0.06690 0.04290 0.71300 0.21100
C 	C 	0.01570 0.03510 0.75690 0.27200
O 	O 	0.30360 0.96640 0.81301 -0.30300
O 	O 	0.36430 0.06390 0.80080 -0.33400
O 	O 	0.19150 0.00140 0.79851 -0.38200
O 	O 	0.25140 0.09602 0.78567 -0.39100
O 	O 	0.42860 0.89882 0.83077 -0.29100
O 	O 	0.38990 0.96820 0.90386 -0.35800
O 	O 	0.40930 0.83220 0.88406 -0.37500
O 	O 	0.36840 0.89899 0.95317 -0.38800
O 	O 	0.04620 0.02840 0.67183 -0.31200
O 	O 	0.95260 0.01840 0.74969 -0.35900
O 	O 	0.13010 0.06450 0.72246 -0.37600
O 	O 	0.04330 0.04760 0.79898 -0.37800
Cr	Cr	0.14708 0.07312 0.79415 1.56700
Mn	Mn	0.42393 0.99169 0.82954 1.29200
