data_crystal

_cell_length_a 8.56200
_cell_length_b 8.11000
_cell_length_c 11.44800
_cell_angle_alpha 90.00000
_cell_angle_beta  90.00000
_cell_angle_gamma 90.00000

_symmetry_space_group_name_	'P 1'
_symmetry_space_group_name_H-M	'P 1'

loop_
_symmetry_equiv_pos_as_xyz
  x,y,z

loop_
_atom_site_label
_atom_site_type_symbol
_atom_site_fract_x
_atom_site_fract_y
_atom_site_fract_z
_atom_site_charge
O 	O 	0.47710 0.38370 0.65420 -0.50300
O 	O 	0.52290 0.61630 0.15420 -0.49100
O 	O 	0.52290 0.61630 0.34580 -0.46300
O 	O 	0.47710 0.38370 0.84580 -0.43900
Cu	Cu	0.50000 0.50000 0.50000 0.80000
Cu	Cu	0.50000 0.50000 -0.00000 0.73100
C 	C 	0.49510 0.45330 0.75000 0.37500
H 	H 	0.54600 0.57700 0.75000 -0.10800
C 	C 	0.50490 0.54670 0.25000 0.37600
H 	H 	0.45400 0.42300 0.25000 -0.20300
O 	O 	0.02290 0.88370 0.34580 -0.48300
O 	O 	0.97710 0.11630 0.84580 -0.35100
O 	O 	0.97710 0.11630 0.65420 -0.41400
O 	O 	0.02290 0.88370 0.15420 -0.51000
Cu	Cu	-0.00000 0.00000 0.50000 0.64800
Cu	Cu	-0.00000 0.00000 -0.00000 0.58200
C 	C 	0.00490 0.95330 0.25000 0.40500
H 	H 	0.95400 0.07700 0.25000 -0.17000
C 	C 	0.99510 0.04670 0.75000 0.32600
H 	H 	0.04600 0.92300 0.75000 -0.10800
