data_crystal

_cell_length_a 7.87730
_cell_length_b 10.79100
_cell_length_c 19.70800
_cell_angle_alpha 93.01000
_cell_angle_beta  90.00000
_cell_angle_gamma 90.00000

_symmetry_space_group_name_	'P 1'
_symmetry_space_group_name_H-M	'P 1'

loop_
_symmetry_equiv_pos_as_xyz
  x,y,z

loop_
_atom_site_label
_atom_site_type_symbol
_atom_site_fract_x
_atom_site_fract_y
_atom_site_fract_z
_atom_site_charge
Mn	Mn	0.57993 0.30988 0.98413 1.22200
Mn	Mn	0.64282 0.29122 0.76995 1.29000
Mn	Mn	0.07993 0.69012 0.51587 1.22100
Mn	Mn	0.14282 0.70878 0.73005 1.29000
Mn	Mn	0.42007 0.69012 0.01587 1.22100
Mn	Mn	0.35718 0.70878 0.23005 1.28900
Mn	Mn	0.92007 0.30988 0.48413 1.22000
Mn	Mn	0.85718 0.29122 0.26995 1.28900
H 	H 	0.12270 0.08160 0.59850 0.12400
H 	H 	0.97990 0.04530 0.64900 0.14800
H 	H 	0.02190 0.12090 0.77380 0.06100
H 	H 	0.25480 0.22140 0.83700 -0.00100
H 	H 	0.42870 0.12010 0.65740 0.00500
H 	H 	0.62270 0.91840 0.90150 0.12600
H 	H 	0.47990 0.95470 0.85100 0.15100
H 	H 	0.52190 0.87910 0.72620 0.06000
H 	H 	0.75480 0.77860 0.66300 -0.00100
H 	H 	0.92870 0.87990 0.84260 0.00600
H 	H 	0.87730 0.91840 0.40150 0.12400
H 	H 	0.02010 0.95470 0.35100 0.14800
H 	H 	0.97810 0.87910 0.22620 0.06100
H 	H 	0.74520 0.77860 0.16300 -0.00100
H 	H 	0.57130 0.87990 0.34260 0.00500
H 	H 	0.37730 0.08160 0.09850 0.12600
H 	H 	0.52010 0.04530 0.14900 0.15100
H 	H 	0.47810 0.12090 0.27380 0.06000
H 	H 	0.24520 0.22140 0.33700 -0.00100
H 	H 	0.07130 0.12010 0.15740 0.00600
C 	C 	0.44970 0.52860 0.73760 0.33800
C 	C 	0.44540 0.52930 0.81404 -0.04700
C 	C 	0.38970 0.61030 0.86646 -0.06300
C 	C 	0.30790 0.73590 0.87250 0.33400
C 	C 	0.14120 0.90280 0.62510 0.45000
C 	C 	0.10040 0.03780 0.63940 -0.32000
C 	C 	0.13150 0.13310 0.75800 -0.03400
C 	C 	0.26130 0.18800 0.79260 0.03000
C 	C 	0.35720 0.13330 0.69460 0.08100
C 	C 	0.94970 0.47140 0.76240 0.33800
C 	C 	0.94540 0.47070 0.68596 -0.04700
C 	C 	0.88970 0.38970 0.63354 -0.06400
C 	C 	0.80790 0.26410 0.62750 0.33400
C 	C 	0.64120 0.09720 0.87490 0.45100
C 	C 	0.60040 0.96220 0.86060 -0.32600
C 	C 	0.63150 0.86690 0.74200 -0.03400
C 	C 	0.76130 0.81200 0.70740 0.03000
C 	C 	0.85720 0.86670 0.80540 0.08100
C 	C 	0.55030 0.47140 0.26240 0.33800
C 	C 	0.55460 0.47070 0.18596 -0.04700
C 	C 	0.61030 0.38970 0.13354 -0.06300
C 	C 	0.69210 0.26410 0.12750 0.33400
C 	C 	0.85880 0.09720 0.37490 0.45000
C 	C 	0.89960 0.96220 0.36060 -0.32000
C 	C 	0.86850 0.86690 0.24200 -0.03400
C 	C 	0.73870 0.81200 0.20740 0.03000
C 	C 	0.64280 0.86670 0.30540 0.08100
C 	C 	0.05030 0.52860 0.23760 0.33800
C 	C 	0.05460 0.52930 0.31404 -0.04700
C 	C 	0.11030 0.61030 0.36646 -0.06400
C 	C 	0.19210 0.73590 0.37250 0.33400
C 	C 	0.35880 0.90280 0.12510 0.45100
C 	C 	0.39960 0.03780 0.13940 -0.32600
C 	C 	0.36850 0.13310 0.25800 -0.03400
C 	C 	0.23870 0.18800 0.29260 0.03000
C 	C 	0.14280 0.13330 0.19460 0.08100
N 	N 	0.51290 0.42890 0.84295 -0.18800
N 	N 	0.49840 0.44730 0.90997 -0.20500
N 	N 	0.42610 0.55650 0.92545 -0.21600
N 	N 	0.40470 0.18740 0.75268 -0.23900
N 	N 	0.19350 0.09910 0.69530 -0.07100
N 	N 	0.01290 0.57110 0.65705 -0.18800
N 	N 	0.99840 0.55270 0.59003 -0.20500
N 	N 	0.92610 0.44350 0.57455 -0.21600
N 	N 	0.90470 0.81260 0.74732 -0.23800
N 	N 	0.69350 0.90090 0.80470 -0.07000
N 	N 	0.48710 0.57110 0.15705 -0.18800
N 	N 	0.50160 0.55270 0.09003 -0.20500
N 	N 	0.57390 0.44350 0.07455 -0.21600
N 	N 	0.59530 0.81260 0.24732 -0.23900
N 	N 	0.80650 0.90090 0.30470 -0.07100
N 	N 	0.98710 0.42890 0.34295 -0.18800
N 	N 	0.00160 0.44730 0.40997 -0.20500
N 	N 	0.07390 0.55650 0.42545 -0.21600
N 	N 	0.09530 0.18740 0.25268 -0.23800
N 	N 	0.30650 0.09910 0.19530 -0.07000
O 	O 	0.23810 0.84740 0.66312 -0.47500
O 	O 	0.06480 0.85570 0.57459 -0.52700
O 	O 	0.53350 0.44170 0.70861 -0.40600
O 	O 	0.37290 0.60980 0.70743 -0.43200
O 	O 	0.25080 0.78550 0.82197 -0.42200
O 	O 	0.30320 0.78490 0.93226 -0.43500
O 	O 	0.73810 0.15260 0.83688 -0.47600
O 	O 	0.56480 0.14430 0.92541 -0.52700
O 	O 	0.03350 0.55830 0.79139 -0.40600
O 	O 	0.87290 0.39020 0.79257 -0.43200
O 	O 	0.75080 0.21450 0.67803 -0.42200
O 	O 	0.80320 0.21510 0.56774 -0.43600
O 	O 	0.76190 0.15260 0.33688 -0.47500
O 	O 	0.93520 0.14430 0.42541 -0.52700
O 	O 	0.46650 0.55830 0.29139 -0.40600
O 	O 	0.62710 0.39020 0.29257 -0.43200
O 	O 	0.74920 0.21450 0.17803 -0.42200
O 	O 	0.69680 0.21510 0.06774 -0.43500
O 	O 	0.26190 0.84740 0.16312 -0.47600
O 	O 	0.43520 0.85570 0.07459 -0.52700
O 	O 	0.96650 0.44170 0.20861 -0.40600
O 	O 	0.12710 0.60980 0.20743 -0.43200
O 	O 	0.24920 0.78550 0.32197 -0.42200
O 	O 	0.19680 0.78490 0.43226 -0.43600
