data_crystal

_cell_length_a 8.19390
_cell_length_b 12.85700
_cell_length_c 17.78900
_cell_angle_alpha 99.86000
_cell_angle_beta  90.00000
_cell_angle_gamma 90.00000

_symmetry_space_group_name_	'P 1'
_symmetry_space_group_name_H-M	'P 1'

loop_
_symmetry_equiv_pos_as_xyz
  x,y,z

loop_
_atom_site_label
_atom_site_type_symbol
_atom_site_fract_x
_atom_site_fract_y
_atom_site_fract_z
_atom_site_charge
Mn	Mn	0.08493 0.38411 0.06467 1.24900
Mn	Mn	0.14347 0.58374 0.28870 1.27200
Mn	Mn	0.58493 0.11589 0.43533 1.24900
Mn	Mn	0.64347 0.91626 0.21130 1.27200
Mn	Mn	0.91507 0.61589 0.93533 1.24900
Mn	Mn	0.85653 0.41626 0.71130 1.27200
Mn	Mn	0.41507 0.88411 0.56467 1.24900
Mn	Mn	0.35653 0.08374 0.78870 1.27200
H 	H 	0.18450 0.00690 0.36390 0.02100
H 	H 	0.06810 0.99270 0.24500 0.07400
H 	H 	0.06520 0.13920 0.18270 0.03200
H 	H 	0.28430 0.30770 0.36540 0.03700
H 	H 	0.68450 0.49310 0.13610 0.02000
H 	H 	0.56810 0.50730 0.25500 0.07600
H 	H 	0.56520 0.36080 0.31730 0.03200
H 	H 	0.78430 0.19230 0.13460 0.03700
H 	H 	0.81550 0.99310 0.63610 0.02100
H 	H 	0.93190 0.00730 0.75500 0.07400
H 	H 	0.93480 0.86080 0.81730 0.03200
H 	H 	0.71570 0.69230 0.63460 0.03700
H 	H 	0.31550 0.50690 0.86390 0.02000
H 	H 	0.43190 0.49270 0.74500 0.07600
H 	H 	0.43480 0.63920 0.68270 0.03200
H 	H 	0.21570 0.80770 0.86540 0.03700
C 	C 	0.93090 0.77140 0.25790 0.33000
C 	C 	0.94070 0.69890 0.18160 -0.04800
C 	C 	0.89820 0.70690 0.10710 -0.04800
C 	C 	0.82600 0.79100 0.06720 0.33300
C 	C 	0.18200 0.06520 0.33930 0.02500
C 	C 	0.11260 0.05670 0.26850 -0.11800
C 	C 	0.10880 0.14460 0.23150 0.04400
C 	C 	0.17130 0.23980 0.26910 -0.13000
C 	C 	0.24090 0.24440 0.34020 0.05900
C 	C 	0.16150 0.34000 0.23400 0.39600
C 	C 	0.43090 0.72860 0.24210 0.33000
C 	C 	0.44070 0.80110 0.31840 -0.04900
C 	C 	0.39820 0.79310 0.39290 -0.04800
C 	C 	0.32600 0.70900 0.43280 0.33300
C 	C 	0.68200 0.43480 0.16070 0.02600
C 	C 	0.61260 0.44330 0.23150 -0.12000
C 	C 	0.60880 0.35540 0.26850 0.04500
C 	C 	0.67130 0.26020 0.23090 -0.13000
C 	C 	0.74090 0.25560 0.15980 0.05900
C 	C 	0.66150 0.16000 0.26600 0.39600
C 	C 	0.06910 0.22860 0.74210 0.33000
C 	C 	0.05930 0.30110 0.81840 -0.04800
C 	C 	0.10180 0.29310 0.89290 -0.04800
C 	C 	0.17400 0.20900 0.93280 0.33300
C 	C 	0.81800 0.93480 0.66070 0.02500
C 	C 	0.88740 0.94330 0.73150 -0.11800
C 	C 	0.89120 0.85540 0.76850 0.04400
C 	C 	0.82870 0.76020 0.73090 -0.13000
C 	C 	0.75910 0.75560 0.65980 0.05900
C 	C 	0.83850 0.66000 0.76600 0.39600
C 	C 	0.56910 0.27140 0.75790 0.33000
C 	C 	0.55930 0.19890 0.68160 -0.04900
C 	C 	0.60180 0.20690 0.60710 -0.04800
C 	C 	0.67400 0.29100 0.56720 0.33300
C 	C 	0.31800 0.56520 0.83930 0.02600
C 	C 	0.38740 0.55670 0.76850 -0.12000
C 	C 	0.39120 0.64460 0.73150 0.04500
C 	C 	0.32870 0.73980 0.76910 -0.13000
C 	C 	0.25910 0.74440 0.84020 0.05900
C 	C 	0.33850 0.84000 0.73400 0.39600
N 	N 	0.01010 0.60190 0.17989 -0.18600
N 	N 	0.01120 0.55310 0.10714 -0.18300
N 	N 	0.94480 0.61530 0.06222 -0.19300
N 	N 	0.24660 0.15780 0.37360 -0.08000
N 	N 	0.51010 0.89810 0.32011 -0.18600
N 	N 	0.51120 0.94690 0.39286 -0.18200
N 	N 	0.44480 0.88470 0.43778 -0.19400
N 	N 	0.74660 0.34220 0.12640 -0.08000
N 	N 	0.98990 0.39810 0.82011 -0.18600
N 	N 	0.98880 0.44690 0.89286 -0.18300
N 	N 	0.05520 0.38470 0.93778 -0.19300
N 	N 	0.75340 0.84220 0.62640 -0.08000
N 	N 	0.48990 0.10190 0.67989 -0.18600
N 	N 	0.48880 0.05310 0.60714 -0.18200
N 	N 	0.55520 0.11530 0.56222 -0.19400
N 	N 	0.25340 0.65780 0.87360 -0.08000
O 	O 	0.01170 0.74010 0.31163 -0.40400
O 	O 	0.85300 0.85500 0.26548 -0.42500
O 	O 	0.77000 0.87440 0.10488 -0.41600
O 	O 	0.82910 0.77120 0.99508 -0.40500
O 	O 	0.32150 0.16330 0.44279 -0.28700
O 	O 	0.21830 0.42270 0.27277 -0.47200
O 	O 	0.09200 0.33160 0.17028 -0.47900
O 	O 	0.51170 0.75990 0.18837 -0.40400
O 	O 	0.35300 0.64500 0.23452 -0.42500
O 	O 	0.27000 0.62560 0.39512 -0.41600
O 	O 	0.32910 0.72880 0.50492 -0.40500
O 	O 	0.82150 0.33670 0.05721 -0.28600
O 	O 	0.71830 0.07730 0.22723 -0.47000
O 	O 	0.59200 0.16840 0.32972 -0.47800
O 	O 	0.98830 0.25990 0.68837 -0.40400
O 	O 	0.14700 0.14500 0.73452 -0.42500
O 	O 	0.23000 0.12560 0.89512 -0.41600
O 	O 	0.17090 0.22880 0.00492 -0.40500
O 	O 	0.67850 0.83670 0.55721 -0.28700
O 	O 	0.78170 0.57730 0.72723 -0.47200
O 	O 	0.90800 0.66840 0.82972 -0.47900
O 	O 	0.48830 0.24010 0.81163 -0.40400
O 	O 	0.64700 0.35500 0.76548 -0.42500
O 	O 	0.73000 0.37440 0.60488 -0.41600
O 	O 	0.67090 0.27120 0.49508 -0.40500
O 	O 	0.17850 0.66330 0.94279 -0.28600
O 	O 	0.28170 0.92270 0.77277 -0.47000
O 	O 	0.40800 0.83160 0.67028 -0.47800
