data_crystal

_cell_length_a 11.75500
_cell_length_b 11.75500
_cell_length_c 11.75200
_cell_angle_alpha 90.00000
_cell_angle_beta  90.00000
_cell_angle_gamma 120.00000

_symmetry_space_group_name_	'P 1'
_symmetry_space_group_name_H-M	'P 1'

loop_
_symmetry_equiv_pos_as_xyz
  x,y,z

loop_
_atom_site_label
_atom_site_type_symbol
_atom_site_fract_x
_atom_site_fract_y
_atom_site_fract_z
_atom_site_charge
O 	O 	0.49860 0.64120 0.04330 -0.15500
O 	O 	0.50700 0.57260 0.86870 -0.19300
C 	C 	0.50260 0.56210 0.97480 0.22800
O 	O 	0.35880 0.85740 0.04330 -0.15300
O 	O 	0.42740 0.93440 0.86870 -0.19300
C 	C 	0.43790 0.94050 0.97480 0.22500
O 	O 	0.14260 0.50140 0.04330 -0.15400
O 	O 	0.06560 0.49300 0.86870 -0.19300
C 	C 	0.05950 0.49740 0.97480 0.22600
O 	O 	0.50140 0.35880 0.54330 -0.15600
O 	O 	0.49300 0.42740 0.36870 -0.19300
C 	C 	0.49740 0.43790 0.47480 0.22800
O 	O 	0.64120 0.14260 0.54330 -0.15600
O 	O 	0.57260 0.06560 0.36870 -0.19300
C 	C 	0.56210 0.05950 0.47480 0.22800
O 	O 	0.85740 0.49860 0.54330 -0.15600
O 	O 	0.93440 0.50700 0.36870 -0.19300
C 	C 	0.94050 0.50260 0.47480 0.22800
O 	O 	0.50140 0.35880 0.95670 -0.15500
O 	O 	0.49300 0.42740 0.13130 -0.19300
C 	C 	0.49740 0.43790 0.02520 0.22800
O 	O 	0.64120 0.14260 0.95670 -0.15300
O 	O 	0.57260 0.06560 0.13130 -0.19300
C 	C 	0.56210 0.05950 0.02520 0.22500
O 	O 	0.85740 0.49860 0.95670 -0.15400
O 	O 	0.93440 0.50700 0.13130 -0.19300
C 	C 	0.94050 0.50260 0.02520 0.22600
O 	O 	0.49860 0.64120 0.45670 -0.15600
O 	O 	0.50700 0.57260 0.63130 -0.19300
C 	C 	0.50260 0.56210 0.52520 0.22800
O 	O 	0.35880 0.85740 0.45670 -0.15600
O 	O 	0.42740 0.93440 0.63130 -0.19300
C 	C 	0.43790 0.94050 0.52520 0.22800
O 	O 	0.14260 0.50140 0.45670 -0.15600
O 	O 	0.06560 0.49300 0.63130 -0.19300
C 	C 	0.05950 0.49740 0.52520 0.22800
Np	Np	0.49405 0.60138 0.25000 0.02000
O 	O 	0.31030 0.50550 0.25000 -0.02900
Np	Np	0.39862 0.89267 0.25000 0.02100
O 	O 	0.49450 0.80480 0.25000 -0.02900
Np	Np	0.10733 0.50595 0.25000 0.02100
O 	O 	0.19520 0.68970 0.25000 -0.02900
Np	Np	0.50595 0.39862 0.75000 0.02000
O 	O 	0.68970 0.49450 0.75000 -0.02900
Np	Np	0.60138 0.10733 0.75000 0.02100
O 	O 	0.50550 0.19520 0.75000 -0.02900
Np	Np	0.89267 0.49405 0.75000 0.02100
O 	O 	0.80480 0.31030 0.75000 -0.02900
Cs	Cs	0.66667 0.33333 0.25000 0.75000
Cs	Cs	0.33333 0.66667 0.75000 0.75000
