data_crystal

_cell_length_a 5.97780
_cell_length_b 16.67470
_cell_length_c 8.46600
_cell_angle_alpha 90.00000
_cell_angle_beta  90.38400
_cell_angle_gamma 90.00000

_symmetry_space_group_name_	'P 1'
_symmetry_space_group_name_H-M	'P 1'

loop_
_symmetry_equiv_pos_as_xyz
  x,y,z

loop_
_atom_site_label
_atom_site_type_symbol
_atom_site_fract_x
_atom_site_fract_y
_atom_site_fract_z
_atom_site_charge
Mn	Mn	0.51530 0.17646 0.50446 1.29600
P 	P 	0.00710 0.24515 0.37750 0.58600
O 	O 	0.82340 0.24400 0.50080 -0.39300
O 	O 	0.72370 0.06490 0.53820 -0.34500
O 	O 	0.71930 0.93090 0.51500 -0.36300
O 	O 	0.00480 0.16050 0.28740 -0.68500
O 	O 	0.23730 0.25570 0.45070 -0.39800
O 	O 	0.95850 0.30680 0.25020 -0.37900
C 	C 	0.62880 0.99900 0.51600 0.22600
H 	H 	0.04000 0.12700 0.33300 0.45800
Mn	Mn	0.98470 0.67646 0.99554 1.29200
P 	P 	0.49290 0.74515 0.12250 0.60000
O 	O 	0.67660 0.74400 0.99920 -0.40200
O 	O 	0.77630 0.56490 0.96180 -0.34800
O 	O 	0.78070 0.43090 0.98500 -0.36200
O 	O 	0.49520 0.66050 0.21260 -0.68200
O 	O 	0.26270 0.75570 0.04930 -0.39700
O 	O 	0.54150 0.80680 0.24980 -0.38900
C 	C 	0.87120 0.49900 0.98400 0.22600
H 	H 	0.46000 0.62700 0.16700 0.45900
Mn	Mn	0.48470 0.82354 0.49554 1.29600
P 	P 	0.99290 0.75485 0.62250 0.58600
O 	O 	0.17660 0.75600 0.49920 -0.39300
O 	O 	0.27630 0.93510 0.46180 -0.34500
O 	O 	0.28070 0.06910 0.48500 -0.36300
O 	O 	0.99520 0.83950 0.71260 -0.68500
O 	O 	0.76270 0.74430 0.54930 -0.39800
O 	O 	0.04150 0.69320 0.74980 -0.37900
C 	C 	0.37120 0.00100 0.48400 0.22600
H 	H 	0.96000 0.87300 0.66700 0.45800
Mn	Mn	0.01530 0.32354 0.00446 1.29200
P 	P 	0.50710 0.25485 0.87750 0.60000
O 	O 	0.32340 0.25600 0.00080 -0.40200
O 	O 	0.22370 0.43510 0.03820 -0.34800
O 	O 	0.21930 0.56910 0.01500 -0.36200
O 	O 	0.50480 0.33950 0.78740 -0.68200
O 	O 	0.73730 0.24430 0.95070 -0.39700
O 	O 	0.45850 0.19320 0.75020 -0.38900
C 	C 	0.12880 0.50100 0.01600 0.22600
H 	H 	0.54000 0.37300 0.83300 0.45900
