data_crystal

_cell_length_a 17.82630
_cell_length_b 17.82630
_cell_length_c 17.82630
_cell_angle_alpha 60.00000
_cell_angle_beta  60.00000
_cell_angle_gamma 60.00000

_symmetry_space_group_name_	'P 1'
_symmetry_space_group_name_H-M	'P 1'

loop_
_symmetry_equiv_pos_as_xyz
  x,y,z

loop_
_atom_site_label
_atom_site_type_symbol
_atom_site_fract_x
_atom_site_fract_y
_atom_site_fract_z
_atom_site_charge
Ni	Ni	0.13551 0.75000 0.86449 1.00600
Ni	Ni	0.25000 0.63551 0.25000 1.00600
Ni	Ni	0.36449 0.25000 0.63551 1.00600
Ni	Ni	0.75000 0.86449 0.75000 1.00600
Ni	Ni	0.13551 0.86449 0.25000 1.00600
Ni	Ni	0.25000 0.25000 0.86449 1.00600
Ni	Ni	0.36449 0.63551 0.75000 1.00600
Ni	Ni	0.75000 0.75000 0.63551 1.00600
Ni	Ni	0.13551 0.25000 0.75000 1.00600
Ni	Ni	0.25000 0.86449 0.63551 1.00600
Ni	Ni	0.36449 0.75000 0.25000 1.00600
Ni	Ni	0.75000 0.63551 0.86449 1.00600
Ni	Ni	0.86449 0.25000 0.13551 1.00600
Ni	Ni	0.75000 0.36449 0.75000 1.00600
Ni	Ni	0.63551 0.75000 0.36449 1.00600
Ni	Ni	0.25000 0.13551 0.25000 1.00600
Ni	Ni	0.86449 0.13551 0.75000 1.00600
Ni	Ni	0.75000 0.75000 0.13551 1.00600
Ni	Ni	0.63551 0.36449 0.25000 1.00600
Ni	Ni	0.25000 0.25000 0.36449 1.00600
Ni	Ni	0.86449 0.75000 0.25000 1.00600
Ni	Ni	0.75000 0.13551 0.36449 1.00600
Ni	Ni	0.63551 0.25000 0.75000 1.00600
Ni	Ni	0.25000 0.36449 0.13551 1.00600
H 	H 	0.12180 0.56880 0.05040 -0.06400
H 	H 	0.06880 0.62180 0.25900 -0.06400
H 	H 	0.55040 0.25900 0.62180 -0.06400
H 	H 	0.75900 0.05040 0.56880 -0.06400
H 	H 	0.12180 0.05040 0.25900 -0.06400
H 	H 	0.06880 0.25900 0.05040 -0.06300
H 	H 	0.55040 0.62180 0.56880 -0.06400
H 	H 	0.75900 0.56880 0.62180 -0.06400
H 	H 	0.12180 0.25900 0.56880 -0.06400
H 	H 	0.06880 0.05040 0.62180 -0.06400
H 	H 	0.55040 0.56880 0.25900 -0.06400
H 	H 	0.75900 0.62180 0.05040 -0.06400
H 	H 	0.43120 0.87820 0.44960 -0.06400
H 	H 	0.37820 0.93120 0.24100 -0.06400
H 	H 	0.74100 0.44960 0.87820 -0.06500
H 	H 	0.94960 0.24100 0.93120 -0.06500
H 	H 	0.94960 0.87820 0.24100 -0.06500
H 	H 	0.74100 0.93120 0.44960 -0.06500
H 	H 	0.37820 0.44960 0.93120 -0.06500
H 	H 	0.43120 0.24100 0.87820 -0.06500
H 	H 	0.74100 0.87820 0.93120 -0.06500
H 	H 	0.94960 0.93120 0.87820 -0.06500
H 	H 	0.43120 0.44960 0.24100 -0.06500
H 	H 	0.37820 0.24100 0.44960 -0.06500
H 	H 	0.87820 0.43120 0.94960 -0.06500
H 	H 	0.93120 0.37820 0.74100 -0.06500
H 	H 	0.44960 0.74100 0.37820 -0.06500
H 	H 	0.24100 0.94960 0.43120 -0.06500
H 	H 	0.87820 0.94960 0.74100 -0.06500
H 	H 	0.93120 0.74100 0.94960 -0.06400
H 	H 	0.44960 0.37820 0.43120 -0.06500
H 	H 	0.24100 0.43120 0.37820 -0.06500
H 	H 	0.87820 0.74100 0.43120 -0.06500
H 	H 	0.93120 0.94960 0.37820 -0.06500
H 	H 	0.44960 0.43120 0.74100 -0.06500
H 	H 	0.24100 0.37820 0.94960 -0.06500
H 	H 	0.56880 0.12180 0.55040 -0.06500
H 	H 	0.62180 0.06880 0.75900 -0.06500
H 	H 	0.25900 0.55040 0.12180 -0.06500
H 	H 	0.05040 0.75900 0.06880 -0.06500
H 	H 	0.05040 0.12180 0.75900 -0.06500
H 	H 	0.25900 0.06880 0.55040 -0.06500
H 	H 	0.62180 0.55040 0.06880 -0.06500
H 	H 	0.56880 0.75900 0.12180 -0.06500
H 	H 	0.25900 0.12180 0.06880 -0.06500
H 	H 	0.05040 0.06880 0.12180 -0.06500
H 	H 	0.56880 0.55040 0.75900 -0.06500
H 	H 	0.62180 0.75900 0.55040 -0.06500
C 	C 	0.18058 0.55750 0.00730 0.07800
C 	C 	0.05750 0.68058 0.25462 0.07800
C 	C 	0.50730 0.25462 0.68058 0.07800
C 	C 	0.75462 0.00730 0.55750 0.07800
C 	C 	0.18058 0.00730 0.25462 0.07700
C 	C 	0.05750 0.25462 0.00730 0.07600
C 	C 	0.50730 0.68058 0.55750 0.07800
C 	C 	0.75462 0.55750 0.68058 0.07800
C 	C 	0.18058 0.25462 0.55750 0.07800
C 	C 	0.05750 0.00730 0.68058 0.07700
C 	C 	0.50730 0.55750 0.25462 0.07800
C 	C 	0.75462 0.68058 0.00730 0.07900
C 	C 	0.44250 0.81942 0.49270 0.07800
C 	C 	0.31942 0.94250 0.24538 0.07900
C 	C 	0.74538 0.49270 0.81942 0.07800
C 	C 	0.99270 0.24538 0.94250 0.07800
C 	C 	0.99270 0.81942 0.24538 0.07800
C 	C 	0.74538 0.94250 0.49270 0.07800
C 	C 	0.31942 0.49270 0.94250 0.07900
C 	C 	0.44250 0.24538 0.81942 0.07800
C 	C 	0.74538 0.81942 0.94250 0.07800
C 	C 	0.99270 0.94250 0.81942 0.07600
C 	C 	0.44250 0.49270 0.24538 0.07800
C 	C 	0.31942 0.24538 0.49270 0.07800
C 	C 	0.81942 0.44250 0.99270 0.07800
C 	C 	0.94250 0.31942 0.74538 0.07800
C 	C 	0.49270 0.74538 0.31942 0.07800
C 	C 	0.24538 0.99270 0.44250 0.07800
C 	C 	0.81942 0.99270 0.74538 0.07700
C 	C 	0.94250 0.74538 0.99270 0.07600
C 	C 	0.49270 0.31942 0.44250 0.07800
C 	C 	0.24538 0.44250 0.31942 0.07800
C 	C 	0.81942 0.74538 0.44250 0.07800
C 	C 	0.94250 0.99270 0.31942 0.07700
C 	C 	0.49270 0.44250 0.74538 0.07800
C 	C 	0.24538 0.31942 0.99270 0.07900
C 	C 	0.55750 0.18058 0.50730 0.07800
C 	C 	0.68058 0.05750 0.75462 0.07900
C 	C 	0.25462 0.50730 0.18058 0.07800
C 	C 	0.00730 0.75462 0.05750 0.07800
C 	C 	0.00730 0.18058 0.75462 0.07800
C 	C 	0.25462 0.05750 0.50730 0.07800
C 	C 	0.68058 0.50730 0.05750 0.07900
C 	C 	0.55750 0.75462 0.18058 0.07800
C 	C 	0.25462 0.18058 0.05750 0.07800
C 	C 	0.00730 0.05750 0.18058 0.07600
C 	C 	0.55750 0.50730 0.75462 0.07800
C 	C 	0.68058 0.75462 0.50730 0.07800
N 	N 	0.20539 0.61759 0.92479 -0.25600
N 	N 	0.11759 0.70539 0.25223 -0.25600
N 	N 	0.42479 0.25223 0.70539 -0.25600
N 	N 	0.75223 0.92479 0.61759 -0.25600
N 	N 	0.20539 0.92479 0.25223 -0.25500
N 	N 	0.11759 0.25223 0.92479 -0.25500
N 	N 	0.42479 0.70539 0.61759 -0.25600
N 	N 	0.75223 0.61759 0.70539 -0.25600
N 	N 	0.20539 0.25223 0.61759 -0.25600
N 	N 	0.11759 0.92479 0.70539 -0.25500
N 	N 	0.42479 0.61759 0.25223 -0.25600
N 	N 	0.75223 0.70539 0.92479 -0.25600
N 	N 	0.38241 0.79461 0.57521 -0.25600
N 	N 	0.29461 0.88241 0.24777 -0.25600
N 	N 	0.74777 0.57521 0.79461 -0.25600
N 	N 	0.07521 0.24777 0.88241 -0.25600
N 	N 	0.07521 0.79461 0.24777 -0.25600
N 	N 	0.74777 0.88241 0.57521 -0.25600
N 	N 	0.29461 0.57521 0.88241 -0.25600
N 	N 	0.38241 0.24777 0.79461 -0.25600
N 	N 	0.74777 0.79461 0.88241 -0.25600
N 	N 	0.07521 0.88241 0.79461 -0.25500
N 	N 	0.38241 0.57521 0.24777 -0.25600
N 	N 	0.29461 0.24777 0.57521 -0.25600
N 	N 	0.79461 0.38241 0.07521 -0.25600
N 	N 	0.88241 0.29461 0.74777 -0.25600
N 	N 	0.57521 0.74777 0.29461 -0.25600
N 	N 	0.24777 0.07521 0.38241 -0.25600
N 	N 	0.79461 0.07521 0.74777 -0.25500
N 	N 	0.88241 0.74777 0.07521 -0.25500
N 	N 	0.57521 0.29461 0.38241 -0.25600
N 	N 	0.24777 0.38241 0.29461 -0.25600
N 	N 	0.79461 0.74777 0.38241 -0.25600
N 	N 	0.88241 0.07521 0.29461 -0.25500
N 	N 	0.57521 0.38241 0.74777 -0.25600
N 	N 	0.24777 0.29461 0.07521 -0.25600
N 	N 	0.61759 0.20539 0.42479 -0.25600
N 	N 	0.70539 0.11759 0.75223 -0.25600
N 	N 	0.25223 0.42479 0.20539 -0.25600
N 	N 	0.92479 0.75223 0.11759 -0.25600
N 	N 	0.92479 0.20539 0.75223 -0.25600
N 	N 	0.25223 0.11759 0.42479 -0.25600
N 	N 	0.70539 0.42479 0.11759 -0.25600
N 	N 	0.61759 0.75223 0.20539 -0.25600
N 	N 	0.25223 0.20539 0.11759 -0.25600
N 	N 	0.92479 0.11759 0.20539 -0.25500
N 	N 	0.61759 0.42479 0.75223 -0.25600
N 	N 	0.70539 0.75223 0.42479 -0.25600
N 	N 	0.25000 0.47858 0.02142 -0.28700
N 	N 	0.97858 0.75000 0.25000 -0.28700
N 	N 	0.52142 0.25000 0.75000 -0.28700
N 	N 	0.75000 0.02142 0.47858 -0.28700
N 	N 	0.25000 0.02142 0.25000 -0.28700
N 	N 	0.97858 0.25000 0.02142 -0.28600
N 	N 	0.52142 0.75000 0.47858 -0.28700
N 	N 	0.75000 0.47858 0.75000 -0.28700
N 	N 	0.25000 0.25000 0.47858 -0.28700
N 	N 	0.97858 0.02142 0.75000 -0.28600
N 	N 	0.52142 0.47858 0.25000 -0.28700
N 	N 	0.75000 0.75000 0.02142 -0.28600
N 	N 	0.75000 0.52142 0.97858 -0.28700
N 	N 	0.02142 0.25000 0.75000 -0.28700
N 	N 	0.47858 0.75000 0.25000 -0.28700
N 	N 	0.25000 0.97858 0.52142 -0.28700
N 	N 	0.75000 0.97858 0.75000 -0.28700
N 	N 	0.02142 0.75000 0.97858 -0.28600
N 	N 	0.47858 0.25000 0.52142 -0.28700
N 	N 	0.25000 0.52142 0.25000 -0.28700
N 	N 	0.75000 0.75000 0.52142 -0.28700
N 	N 	0.02142 0.97858 0.25000 -0.28600
N 	N 	0.47858 0.52142 0.75000 -0.28700
N 	N 	0.25000 0.25000 0.97858 -0.28600
O 	O 	0.25000 0.75000 0.75000 -0.70200
O 	O 	0.25000 0.75000 0.25000 -0.70200
O 	O 	0.25000 0.25000 0.75000 -0.70200
O 	O 	0.75000 0.75000 0.75000 -0.70200
O 	O 	0.75000 0.25000 0.25000 -0.70200
O 	O 	0.75000 0.25000 0.75000 -0.70200
O 	O 	0.75000 0.75000 0.25000 -0.70200
O 	O 	0.25000 0.25000 0.25000 -0.70200
