data_crystal

_cell_length_a 5.45730
_cell_length_b 8.96500
_cell_length_c 15.25300
_cell_angle_alpha 90.00000
_cell_angle_beta  98.92400
_cell_angle_gamma 90.00000

_symmetry_space_group_name_	'P 1'
_symmetry_space_group_name_H-M	'P 1'

loop_
_symmetry_equiv_pos_as_xyz
  x,y,z

loop_
_atom_site_label
_atom_site_type_symbol
_atom_site_fract_x
_atom_site_fract_y
_atom_site_fract_z
_atom_site_charge
Mn	Mn	0.10100 0.48380 0.81816 1.29900
P 	P 	0.60970 0.25960 0.81943 0.60200
O 	O 	0.22490 0.39860 0.95660 -0.37700
O 	O 	0.85240 0.30160 0.78990 -0.38900
O 	O 	0.54630 0.09560 0.80120 -0.39300
O 	O 	0.12480 0.39430 0.09270 -0.34900
O 	O 	0.39750 0.36020 0.77950 -0.44400
O 	O 	0.65480 0.27840 0.92520 -0.75300
C 	C 	0.10100 0.44020 0.01420 0.26000
H 	H 	0.54000 0.29000 0.93300 0.54500
Mn	Mn	0.39900 0.98380 0.68184 1.30000
P 	P 	0.89030 0.75960 0.68057 0.60300
O 	O 	0.27510 0.89860 0.54340 -0.37500
O 	O 	0.64760 0.80160 0.71010 -0.39200
O 	O 	0.95370 0.59560 0.69880 -0.39300
O 	O 	0.37520 0.89430 0.40730 -0.34800
O 	O 	0.10250 0.86020 0.72050 -0.44600
O 	O 	0.84520 0.77840 0.57480 -0.75500
C 	C 	0.39900 0.94020 0.48580 0.26000
H 	H 	0.96000 0.79000 0.56700 0.54600
Mn	Mn	0.89900 0.51620 0.18184 1.29800
P 	P 	0.39030 0.74040 0.18057 0.60100
O 	O 	0.77510 0.60140 0.04340 -0.37700
O 	O 	0.14760 0.69840 0.21010 -0.38900
O 	O 	0.45370 0.90440 0.19880 -0.39300
O 	O 	0.87520 0.60570 0.90730 -0.34900
O 	O 	0.60250 0.63980 0.22050 -0.44400
O 	O 	0.34520 0.72160 0.07480 -0.75300
C 	C 	0.89900 0.55980 0.98580 0.26000
H 	H 	0.46000 0.71000 0.06700 0.54500
Mn	Mn	0.60100 0.01620 0.31816 1.30000
P 	P 	0.10970 0.24040 0.31943 0.60300
O 	O 	0.72490 0.10140 0.45660 -0.37500
O 	O 	0.35240 0.19840 0.28990 -0.39200
O 	O 	0.04630 0.40440 0.30120 -0.39300
O 	O 	0.62480 0.10570 0.59270 -0.34800
O 	O 	0.89750 0.13980 0.27950 -0.44600
O 	O 	0.15480 0.22160 0.42520 -0.75500
C 	C 	0.60100 0.05980 0.51420 0.26000
H 	H 	0.04000 0.21000 0.43300 0.54600
