data_crystal

_cell_length_a 12.76600
_cell_length_b 23.34000
_cell_length_c 14.90300
_cell_angle_alpha 90.00000
_cell_angle_beta  90.00000
_cell_angle_gamma 90.00000

_symmetry_space_group_name_	'P 1'
_symmetry_space_group_name_H-M	'P 1'

loop_
_symmetry_equiv_pos_as_xyz
  x,y,z

loop_
_atom_site_label
_atom_site_type_symbol
_atom_site_fract_x
_atom_site_fract_y
_atom_site_fract_z
_atom_site_charge
Zn	Zn	0.84944 0.09863 0.48828 1.17000
Zn	Zn	0.74746 0.98468 0.60580 1.23500
Zn	Zn	0.15056 0.90137 0.98828 1.12900
Zn	Zn	0.25254 0.01532 0.10580 1.24600
Zn	Zn	0.65056 0.59863 0.48828 1.17100
Zn	Zn	0.75254 0.48468 0.60580 1.23600
Zn	Zn	0.34944 0.40137 0.98828 1.12900
Zn	Zn	0.24746 0.51532 0.10580 1.24700
H 	H 	0.93210 0.16940 0.73360 0.02500
H 	H 	0.97840 0.01180 0.83120 0.01900
H 	H 	0.10140 0.15090 0.95160 0.00200
H 	H 	0.12300 0.35490 0.95600 -0.04200
H 	H 	0.00280 0.50060 0.86040 0.04200
H 	H 	0.92170 0.34970 0.75610 0.04100
H 	H 	0.06790 0.83060 0.23360 0.03100
H 	H 	0.02160 0.98820 0.33120 0.01800
H 	H 	0.89860 0.84910 0.45160 0.02900
H 	H 	0.87700 0.64510 0.45600 -0.01400
H 	H 	0.99720 0.49940 0.36040 0.05000
H 	H 	0.07830 0.65030 0.25610 0.05100
H 	H 	0.56790 0.66940 0.73360 0.02400
H 	H 	0.52160 0.51180 0.83120 0.01700
H 	H 	0.39860 0.65090 0.95160 -0.00000
H 	H 	0.37700 0.85490 0.95600 -0.04100
H 	H 	0.49720 0.00060 0.86040 0.04900
H 	H 	0.57830 0.84970 0.75610 0.04200
H 	H 	0.43210 0.33060 0.23360 0.03300
H 	H 	0.47840 0.48820 0.33120 0.02100
H 	H 	0.60140 0.34910 0.45160 0.03200
H 	H 	0.62300 0.14510 0.45600 -0.01400
H 	H 	0.50280 0.99940 0.36040 0.04900
H 	H 	0.42170 0.15030 0.25610 0.05000
Pt	Pt	0.02666 0.25589 0.85073 0.43400
Pt	Pt	0.97334 0.74411 0.35073 0.48400
Pt	Pt	0.47334 0.75589 0.85073 0.42800
Pt	Pt	0.52666 0.24411 0.35073 0.48800
C 	C 	0.96310 0.14540 0.77600 0.09200
C 	C 	0.94890 0.08700 0.76780 -0.14700
C 	C 	0.99040 0.05100 0.83310 0.06800
C 	C 	0.05010 0.07520 0.90130 -0.11800
C 	C 	0.06260 0.13440 0.90570 0.07400
C 	C 	0.89400 0.06500 0.68520 0.41200
C 	C 	0.10540 0.03680 0.96800 0.26000
C 	C 	0.08050 0.37400 0.91510 0.06100
C 	C 	0.07430 0.43310 0.91770 -0.12800
C 	C 	0.00930 0.46110 0.85860 0.05400
C 	C 	0.95420 0.42890 0.79620 -0.10700
C 	C 	0.96130 0.37060 0.79640 0.06900
C 	C 	0.13390 0.46720 0.98480 0.20400
C 	C 	0.88390 0.45800 0.72730 0.30900
C 	C 	0.03690 0.85460 0.27600 0.12300
C 	C 	0.05110 0.91300 0.26780 -0.15200
C 	C 	0.00960 0.94900 0.33310 0.11800
C 	C 	0.94990 0.92480 0.40130 -0.16300
C 	C 	0.93740 0.86560 0.40570 0.11500
C 	C 	0.10600 0.93500 0.18520 0.41800
C 	C 	0.89460 0.96320 0.46800 0.41700
C 	C 	0.91950 0.62600 0.41510 0.09000
C 	C 	0.92570 0.56690 0.41770 -0.14900
C 	C 	0.99070 0.53890 0.35860 0.06000
C 	C 	0.04580 0.57110 0.29620 -0.08500
C 	C 	0.03870 0.62940 0.29640 0.08900
C 	C 	0.86610 0.53280 0.48480 0.34800
C 	C 	0.11610 0.54200 0.22730 0.31100
C 	C 	0.53690 0.64540 0.77600 0.09900
C 	C 	0.55110 0.58700 0.76780 -0.15100
C 	C 	0.50960 0.55100 0.83310 0.07500
C 	C 	0.44990 0.57520 0.90130 -0.12300
C 	C 	0.43740 0.63440 0.90570 0.07500
C 	C 	0.60600 0.56500 0.68520 0.41400
C 	C 	0.39460 0.53680 0.96800 0.25300
C 	C 	0.41950 0.87400 0.91510 0.05400
C 	C 	0.42570 0.93310 0.91770 -0.11900
C 	C 	0.49070 0.96110 0.85860 0.03300
C 	C 	0.54580 0.92890 0.79620 -0.09500
C 	C 	0.53870 0.87060 0.79640 0.06900
C 	C 	0.36610 0.96720 0.98480 0.19400
C 	C 	0.61610 0.95800 0.72730 0.30300
C 	C 	0.46310 0.35460 0.27600 0.11100
C 	C 	0.44890 0.41300 0.26780 -0.14500
C 	C 	0.49040 0.44900 0.33310 0.10100
C 	C 	0.55010 0.42480 0.40130 -0.14900
C 	C 	0.56260 0.36560 0.40570 0.11000
C 	C 	0.39400 0.43500 0.18520 0.41500
C 	C 	0.60540 0.46320 0.46800 0.41500
C 	C 	0.58050 0.12600 0.41510 0.09300
C 	C 	0.57430 0.06690 0.41770 -0.15200
C 	C 	0.50930 0.03890 0.35860 0.07100
C 	C 	0.45420 0.07110 0.29620 -0.09300
C 	C 	0.46130 0.12940 0.29640 0.08400
C 	C 	0.63390 0.03280 0.48480 0.35100
C 	C 	0.38390 0.04200 0.22730 0.31100
N 	N 	0.01930 0.16872 0.84290 -0.16100
N 	N 	0.02430 0.34225 0.85370 -0.15900
N 	N 	0.98070 0.83128 0.34290 -0.16600
N 	N 	0.97570 0.65775 0.35370 -0.15800
N 	N 	0.48070 0.66872 0.84290 -0.16500
N 	N 	0.47570 0.84225 0.85370 -0.16000
N 	N 	0.51930 0.33128 0.34290 -0.15900
N 	N 	0.52430 0.15775 0.35370 -0.15500
Cl	Cl	0.05780 0.26113 0.69838 -0.36300
Cl	Cl	0.99403 0.25120 0.00227 -0.23700
Cl	Cl	0.94220 0.73887 0.19838 -0.33200
Cl	Cl	0.00597 0.74880 0.50227 -0.35400
Cl	Cl	0.44220 0.76113 0.69838 -0.36600
Cl	Cl	0.50597 0.75120 0.00227 -0.22600
Cl	Cl	0.55780 0.23887 0.19838 -0.32700
Cl	Cl	0.49403 0.24880 0.50227 -0.36100
O 	O 	0.89370 0.09793 0.61850 -0.49400
O 	O 	0.85090 0.01622 0.69190 -0.46200
O 	O 	0.09280 0.98390 0.95780 -0.49800
O 	O 	0.16090 0.06181 0.02540 -0.31000
O 	O 	0.20770 0.44230 0.02990 -0.41800
O 	O 	0.11220 0.51790 0.99760 -0.36800
O 	O 	0.89130 0.51040 0.71520 -0.32000
O 	O 	0.82290 0.42530 0.68290 -0.39700
O 	O 	0.10630 0.90207 0.11850 -0.44900
O 	O 	0.14910 0.98378 0.19190 -0.44400
O 	O 	0.90720 0.01610 0.45780 -0.49000
O 	O 	0.83910 0.93819 0.52540 -0.45200
O 	O 	0.79230 0.55770 0.52990 -0.55900
O 	O 	0.88780 0.48210 0.49760 -0.34400
O 	O 	0.10870 0.48960 0.21520 -0.28900
O 	O 	0.17710 0.57470 0.18290 -0.37000
O 	O 	0.60630 0.59793 0.61850 -0.49400
O 	O 	0.64910 0.51622 0.69190 -0.46400
O 	O 	0.40720 0.48390 0.95780 -0.49700
O 	O 	0.33910 0.56181 0.02540 -0.30400
O 	O 	0.29230 0.94230 0.02990 -0.41300
O 	O 	0.38780 0.01790 0.99760 -0.36300
O 	O 	0.60870 0.01040 0.71520 -0.31400
O 	O 	0.67710 0.92530 0.68290 -0.39600
O 	O 	0.39370 0.40207 0.11850 -0.45000
O 	O 	0.35090 0.48378 0.19190 -0.44400
O 	O 	0.59280 0.51610 0.45780 -0.48900
O 	O 	0.66090 0.43819 0.52540 -0.45100
O 	O 	0.70770 0.05770 0.52990 -0.55900
O 	O 	0.61220 0.98210 0.49760 -0.34500
O 	O 	0.39130 0.98960 0.21520 -0.29000
O 	O 	0.32290 0.07470 0.18290 -0.37200
