data_crystal

_cell_length_a 14.38070
_cell_length_b 14.38070
_cell_length_c 14.35520
_cell_angle_alpha 90.00000
_cell_angle_beta  90.00000
_cell_angle_gamma 120.00000

_symmetry_space_group_name_	'P 1'
_symmetry_space_group_name_H-M	'P 1'

loop_
_symmetry_equiv_pos_as_xyz
  x,y,z

loop_
_atom_site_label
_atom_site_type_symbol
_atom_site_fract_x
_atom_site_fract_y
_atom_site_fract_z
_atom_site_charge
Zn	Zn	0.58507 0.25785 0.83541 1.21700
P 	P 	0.53270 0.22012 0.61950 0.44500
P 	P 	0.36435 0.20870 0.75924 0.42200
O 	O 	0.46490 0.10360 0.59320 -0.45800
O 	O 	0.60280 0.23720 0.70360 -0.48200
O 	O 	0.44810 0.25160 0.83680 -0.43100
O 	O 	0.28360 0.24280 0.77190 -0.22200
O 	O 	0.31340 0.08830 0.74710 -0.45900
C 	C 	0.43990 0.27090 0.65070 -0.04200
O 	O 	0.36720 0.24790 0.57390 -0.33700
H 	H 	0.30600 0.22390 0.59380 0.22000
C 	C 	0.50680 0.39210 0.65820 -0.04300
H 	H 	0.56100 0.40920 0.70570 0.03700
H 	H 	0.54400 0.41950 0.59950 0.06600
N 	N 	0.45020 0.44900 0.68010 -0.10700
C 	C 	0.46860 0.51090 0.75580 0.10700
H 	H 	0.51650 0.52040 0.80330 -0.00500
C 	C 	0.37520 0.45220 0.62660 0.00700
H 	H 	0.34690 0.41540 0.57110 0.06500
C 	C 	0.34890 0.52100 0.67050 0.00700
H 	H 	0.30000 0.54070 0.64940 0.01900
N 	N 	0.40870 0.55570 0.75250 -0.26800
O 	O 	0.59550 0.28570 0.53720 -0.43300
Zn	Zn	0.74215 0.32722 0.50208 1.21900
P 	P 	0.77988 0.31258 0.28617 0.44500
P 	P 	0.79130 0.15565 0.42591 0.42100
O 	O 	0.89640 0.36130 0.25987 -0.41600
O 	O 	0.76280 0.36560 0.37027 -0.47500
O 	O 	0.74840 0.19650 0.50347 -0.43200
O 	O 	0.75720 0.04080 0.43857 -0.22200
O 	O 	0.91170 0.22510 0.41377 -0.42000
C 	C 	0.72910 0.16900 0.31737 -0.04400
O 	O 	0.75210 0.11930 0.24057 -0.33900
H 	H 	0.77610 0.08210 0.26047 0.22400
C 	C 	0.60790 0.11470 0.32487 -0.03100
H 	H 	0.59080 0.15180 0.37237 0.02500
H 	H 	0.58050 0.12450 0.26617 0.05100
N 	N 	0.55100 0.00120 0.34677 -0.15900
C 	C 	0.48910 0.95770 0.42247 0.15600
H 	H 	0.47960 0.99610 0.46997 -0.00500
C 	C 	0.54780 0.92300 0.29327 0.06600
H 	H 	0.58460 0.93150 0.23777 0.05900
C 	C 	0.47900 0.82790 0.33717 -0.01100
H 	H 	0.45930 0.75930 0.31607 0.03000
N 	N 	0.44430 0.85300 0.41917 -0.26900
O 	O 	0.71430 0.30980 0.20387 -0.43100
Zn	Zn	0.67278 0.41493 0.16874 1.21700
P 	P 	0.68742 0.46730 0.95283 0.46600
P 	P 	0.84435 0.63565 0.09257 0.41100
O 	O 	0.63870 0.53510 0.92653 -0.43300
O 	O 	0.63440 0.39720 0.03693 -0.50200
O 	O 	0.80350 0.55190 0.17013 -0.42100
O 	O 	0.95920 0.71640 0.10523 -0.18900
O 	O 	0.77490 0.68660 0.08043 -0.43800
C 	C 	0.83100 0.56010 0.98403 -0.03500
O 	O 	0.88070 0.63280 0.90723 -0.33000
H 	H 	0.91790 0.69400 0.92713 0.24700
C 	C 	0.88530 0.49320 0.99153 0.02400
H 	H 	0.84820 0.43900 0.03903 0.00900
H 	H 	0.87550 0.45600 0.93283 0.05600
N 	N 	0.99880 0.54980 0.01343 -0.09600
C 	C 	0.04230 0.53140 0.08913 0.05000
H 	H 	0.00390 0.48350 0.13663 -0.01100
C 	C 	0.07700 0.62480 0.95993 0.05800
H 	H 	0.06850 0.65310 0.90443 0.03800
C 	C 	0.17210 0.65110 0.00383 -0.09900
H 	H 	0.24070 0.70000 0.98273 0.07500
N 	N 	0.14700 0.59130 0.08583 -0.25200
O 	O 	0.69020 0.40450 0.87053 -0.43100
Zn	Zn	0.25785 0.58507 0.16459 1.21500
P 	P 	0.22012 0.53270 0.38050 0.44600
P 	P 	0.20870 0.36435 0.24076 0.42200
O 	O 	0.10360 0.46490 0.40680 -0.46000
O 	O 	0.23720 0.60280 0.29640 -0.48500
O 	O 	0.25160 0.44810 0.16320 -0.44000
O 	O 	0.24280 0.28360 0.22810 -0.22900
O 	O 	0.08830 0.31340 0.25290 -0.46400
C 	C 	0.27090 0.43990 0.34930 -0.04300
O 	O 	0.24790 0.36720 0.42610 -0.33700
H 	H 	0.22390 0.30600 0.40620 0.21900
C 	C 	0.39210 0.50680 0.34180 -0.04300
H 	H 	0.40920 0.56100 0.29430 0.03700
H 	H 	0.41950 0.54400 0.40050 0.06600
N 	N 	0.44900 0.45020 0.31990 -0.10800
C 	C 	0.51090 0.46860 0.24420 0.10500
H 	H 	0.52040 0.51650 0.19670 -0.00800
C 	C 	0.45220 0.37520 0.37340 0.00700
H 	H 	0.41540 0.34690 0.42890 0.06500
C 	C 	0.52100 0.34890 0.32950 0.00600
H 	H 	0.54070 0.30000 0.35060 0.01900
N 	N 	0.55570 0.40870 0.24750 -0.26900
O 	O 	0.28570 0.59550 0.46280 -0.43300
Zn	Zn	0.32722 0.74215 0.49792 1.21800
P 	P 	0.31258 0.77988 0.71383 0.44600
P 	P 	0.15565 0.79130 0.57409 0.42100
O 	O 	0.36130 0.89640 0.74013 -0.41800
O 	O 	0.36560 0.76280 0.62973 -0.47500
O 	O 	0.19650 0.74840 0.49653 -0.43400
O 	O 	0.04080 0.75720 0.56143 -0.22600
O 	O 	0.22510 0.91170 0.58623 -0.42300
C 	C 	0.16900 0.72910 0.68263 -0.04600
O 	O 	0.11930 0.75210 0.75943 -0.33400
H 	H 	0.08210 0.77610 0.73953 0.22200
C 	C 	0.11470 0.60790 0.67513 -0.03000
H 	H 	0.15180 0.59080 0.62763 0.02500
H 	H 	0.12450 0.58050 0.73383 0.05300
N 	N 	0.00120 0.55100 0.65323 -0.16600
C 	C 	0.95770 0.48910 0.57753 0.16400
H 	H 	0.99610 0.47960 0.53003 -0.00500
C 	C 	0.92300 0.54780 0.70673 0.07600
H 	H 	0.93150 0.58460 0.76223 0.06000
C 	C 	0.82790 0.47900 0.66283 -0.01200
H 	H 	0.75930 0.45930 0.68393 0.03100
N 	N 	0.85300 0.44430 0.58083 -0.26900
O 	O 	0.30980 0.71430 0.79613 -0.43000
Zn	Zn	0.41493 0.67278 0.83126 1.21800
P 	P 	0.46730 0.68742 0.04717 0.42100
P 	P 	0.63565 0.84435 0.90743 0.43100
O 	O 	0.53510 0.63870 0.07347 -0.44300
O 	O 	0.39720 0.63440 0.96307 -0.46200
O 	O 	0.55190 0.80350 0.82987 -0.42100
O 	O 	0.71640 0.95920 0.89477 -0.17500
O 	O 	0.68660 0.77490 0.91957 -0.42100
C 	C 	0.56010 0.83100 0.01597 -0.03000
O 	O 	0.63280 0.88070 0.09277 -0.33200
H 	H 	0.69400 0.91790 0.07287 0.23400
C 	C 	0.49320 0.88530 0.00847 -0.14500
H 	H 	0.43900 0.84820 0.96097 0.08600
H 	H 	0.45600 0.87550 0.06717 0.09500
N 	N 	0.54980 0.99880 0.98657 -0.00900
C 	C 	0.53140 0.04230 0.91087 0.04700
H 	H 	0.48350 0.00390 0.86337 -0.00400
C 	C 	0.62480 0.07700 0.04007 -0.15500
H 	H 	0.65310 0.06850 0.09557 0.11100
C 	C 	0.65110 0.17210 0.99617 0.13600
H 	H 	0.70000 0.24070 0.01727 -0.03800
N 	N 	0.59130 0.14700 0.91417 -0.27700
O 	O 	0.40450 0.69020 0.12947 -0.43200
Zn	Zn	0.34366 0.00000 0.66667 1.21400
Zn	Zn	0.00000 0.34366 0.33333 1.21200
Zn	Zn	0.65634 0.65634 -0.00000 1.22200
