data_crystal

_cell_length_a 11.35800
_cell_length_b 12.36600
_cell_length_c 12.61900
_cell_angle_alpha 90.00000
_cell_angle_beta  90.00000
_cell_angle_gamma 104.05000

_symmetry_space_group_name_	'P 1'
_symmetry_space_group_name_H-M	'P 1'

loop_
_symmetry_equiv_pos_as_xyz
  x,y,z

loop_
_atom_site_label
_atom_site_type_symbol
_atom_site_fract_x
_atom_site_fract_y
_atom_site_fract_z
_atom_site_charge
Cd	Cd	0.51550 0.05598 0.37133 1.16200
Cd	Cd	0.30882 0.12996 0.97674 1.14300
Cd	Cd	0.73600 0.48972 0.24401 1.11700
Cd	Cd	0.98450 0.94402 0.87133 1.15600
Cd	Cd	0.19118 0.87004 0.47674 1.14400
Cd	Cd	0.76400 0.51028 0.74401 1.11700
Cd	Cd	0.48450 0.94402 0.62867 1.16100
Cd	Cd	0.69118 0.87004 0.02326 1.14200
Cd	Cd	0.26400 0.51028 0.75599 1.11700
Cd	Cd	0.01550 0.05598 0.12867 1.15600
Cd	Cd	0.80882 0.12996 0.52326 1.14400
Cd	Cd	0.23600 0.48972 0.25599 1.11700
H 	H 	0.64860 0.90900 0.48720 -0.00300
H 	H 	0.85140 0.09100 0.98720 -0.00600
H 	H 	0.35140 0.09100 0.51280 -0.00300
H 	H 	0.14860 0.90900 0.01280 -0.00600
C 	C 	0.61820 0.23410 0.36150 -0.31900
C 	C 	0.25970 0.27530 0.90620 -0.32900
C 	C 	0.43370 0.48620 0.25920 -0.32600
C 	C 	0.35510 0.10020 0.14280 -0.33000
C 	C 	0.57990 0.95590 0.24770 -0.28100
C 	C 	0.88180 0.76590 0.86150 -0.32500
C 	C 	0.24030 0.72470 0.40620 -0.32700
C 	C 	0.06630 0.51380 0.75920 -0.32200
C 	C 	0.14490 0.89980 0.64280 -0.32600
C 	C 	0.92010 0.04410 0.74770 -0.27700
C 	C 	0.38180 0.76590 0.63850 -0.31900
C 	C 	0.74030 0.72470 0.09380 -0.32900
C 	C 	0.56630 0.51380 0.74080 -0.32600
C 	C 	0.64490 0.89980 0.85720 -0.33000
C 	C 	0.42010 0.04410 0.75230 -0.28100
C 	C 	0.11820 0.23410 0.13850 -0.32500
C 	C 	0.75970 0.27530 0.59380 -0.32700
C 	C 	0.93370 0.48620 0.24080 -0.32200
C 	C 	0.85510 0.10020 0.35720 -0.32600
C 	C 	0.07990 0.95590 0.25230 -0.27700
N 	N 	0.67240 0.32280 0.34290 -0.22900
N 	N 	0.24210 0.35120 0.86300 -0.23400
N 	N 	0.53630 0.49000 0.25730 -0.24300
N 	N 	0.38320 0.08740 0.22710 -0.19600
N 	N 	0.61770 0.93280 0.17000 -0.25000
N 	N 	0.82760 0.67720 0.84290 -0.22900
N 	N 	0.25790 0.64880 0.36300 -0.23500
N 	N 	0.96370 0.51000 0.75730 -0.24600
N 	N 	0.11680 0.91260 0.72710 -0.19200
N 	N 	0.88230 0.06720 0.67000 -0.24800
N 	N 	0.32760 0.67720 0.65710 -0.22900
N 	N 	0.75790 0.64880 0.13700 -0.23400
N 	N 	0.46370 0.51000 0.74270 -0.24300
N 	N 	0.61680 0.91260 0.77290 -0.19600
N 	N 	0.38230 0.06720 0.83000 -0.25000
N 	N 	0.17240 0.32280 0.15710 -0.22900
N 	N 	0.74210 0.35120 0.63700 -0.23500
N 	N 	0.03630 0.49000 0.24270 -0.24600
N 	N 	0.88320 0.08740 0.27290 -0.19200
N 	N 	0.11770 0.93280 0.33000 -0.24800
O 	O 	0.62820 0.99700 0.51120 -0.69000
O 	O 	0.87180 0.00300 0.01120 -0.67500
O 	O 	0.37180 0.00300 0.48880 -0.69000
O 	O 	0.12820 0.99700 0.98880 -0.67500
