data_crystal

_cell_length_a 12.14300
_cell_length_b 24.87500
_cell_length_c 19.66900
_cell_angle_alpha 90.00000
_cell_angle_beta  102.90000
_cell_angle_gamma 90.00000

_symmetry_space_group_name_	'P 1'
_symmetry_space_group_name_H-M	'P 1'

loop_
_symmetry_equiv_pos_as_xyz
  x,y,z

loop_
_atom_site_label
_atom_site_type_symbol
_atom_site_fract_x
_atom_site_fract_y
_atom_site_fract_z
_atom_site_charge
Nd	Nd	0.92056 0.44954 0.05523 2.05200
O 	O 	0.02500 0.39930 0.98380 -0.54500
O 	O 	0.74180 0.45320 0.10300 -0.38800
O 	O 	0.90280 0.46860 0.17570 -0.45400
O 	O 	0.76310 0.45430 0.94960 -0.45700
O 	O 	0.09170 0.50130 0.07030 -0.61000
O 	O 	0.86400 0.54350 0.05710 -0.49400
C 	C 	0.11230 0.41200 0.96450 0.47300
C 	C 	0.79720 0.46730 0.16210 0.32100
C 	C 	0.20630 0.37080 0.97870 -0.12900
C 	C 	0.73640 0.48180 0.21850 -0.07300
C 	C 	0.18270 0.31720 0.98640 -0.01000
C 	C 	0.32460 0.38980 0.99760 0.02800
C 	C 	0.61930 0.48210 0.20520 -0.03600
C 	C 	0.79940 0.49310 0.28530 0.03400
C 	C 	0.27300 0.28180 0.01150 -0.00100
H 	H 	0.10860 0.30470 0.97530 0.03500
C 	C 	0.41580 0.35620 0.02370 -0.08100
H 	H 	0.33880 0.42610 0.99180 0.05300
H 	H 	0.57790 0.47320 0.16090 0.07600
C 	C 	0.56230 0.49550 0.25740 0.00400
H 	H 	0.87790 0.49190 0.29480 0.01600
C 	C 	0.74380 0.50610 0.33750 -0.13000
C 	C 	0.39110 0.30190 0.03110 -0.02900
C 	C 	0.53750 0.37380 0.03250 0.38300
C 	C 	0.62650 0.50830 0.32330 -0.01000
C 	C 	0.80870 0.51860 0.41010 0.43100
H 	H 	0.44940 0.27800 0.04860 0.05200
O 	O 	0.53490 0.42060 0.03750 -0.26500
O 	O 	0.61050 0.34110 0.04630 -0.29900
H 	H 	0.59040 0.51840 0.35830 0.05800
Nd	Nd	0.07944 0.44954 0.44477 2.05500
O 	O 	0.97500 0.39930 0.51620 -0.54400
O 	O 	0.25820 0.45320 0.39700 -0.38800
O 	O 	0.09720 0.46860 0.32430 -0.45300
O 	O 	0.23690 0.45430 0.55040 -0.45800
O 	O 	0.90830 0.50130 0.42970 -0.61200
O 	O 	0.13600 0.54350 0.44290 -0.49400
C 	C 	0.88770 0.41200 0.53550 0.47500
C 	C 	0.20280 0.46730 0.33790 0.32100
C 	C 	0.79370 0.37080 0.52130 -0.13300
C 	C 	0.26360 0.48180 0.28150 -0.07300
C 	C 	0.81730 0.31720 0.51360 -0.00200
C 	C 	0.67540 0.38980 0.50240 0.03300
C 	C 	0.38070 0.48210 0.29480 -0.03600
C 	C 	0.20060 0.49310 0.21470 0.03400
C 	C 	0.72700 0.28180 0.48850 -0.01000
H 	H 	0.89140 0.30470 0.52470 0.03200
C 	C 	0.58420 0.35620 0.47630 -0.08600
H 	H 	0.66120 0.42610 0.50820 0.05100
H 	H 	0.42210 0.47320 0.33910 0.07600
C 	C 	0.43770 0.49550 0.24260 0.00500
H 	H 	0.12210 0.49190 0.20520 0.01700
C 	C 	0.25620 0.50610 0.16250 -0.12900
C 	C 	0.60890 0.30190 0.46890 -0.02400
C 	C 	0.46250 0.37380 0.46750 0.38400
C 	C 	0.37350 0.50830 0.17670 -0.01100
C 	C 	0.19130 0.51860 0.08990 0.43100
H 	H 	0.55060 0.27800 0.45140 0.05000
O 	O 	0.46510 0.42060 0.46250 -0.26600
O 	O 	0.38950 0.34110 0.45370 -0.30000
H 	H 	0.40960 0.51840 0.14170 0.05800
Nd	Nd	0.07944 0.55046 0.94477 2.05200
O 	O 	0.97500 0.60070 0.01620 -0.54500
O 	O 	0.25820 0.54680 0.89700 -0.38800
O 	O 	0.09720 0.53140 0.82430 -0.45400
O 	O 	0.23690 0.54570 0.05040 -0.45700
O 	O 	0.90830 0.49870 0.92970 -0.61000
O 	O 	0.13600 0.45650 0.94290 -0.49400
C 	C 	0.88770 0.58800 0.03550 0.47300
C 	C 	0.20280 0.53270 0.83790 0.32100
C 	C 	0.79370 0.62920 0.02130 -0.12900
C 	C 	0.26360 0.51820 0.78150 -0.07300
C 	C 	0.81730 0.68280 0.01360 -0.01000
C 	C 	0.67540 0.61020 0.00240 0.02800
C 	C 	0.38070 0.51790 0.79480 -0.03600
C 	C 	0.20060 0.50690 0.71470 0.03400
C 	C 	0.72700 0.71820 0.98850 -0.00100
H 	H 	0.89140 0.69530 0.02470 0.03500
C 	C 	0.58420 0.64380 0.97630 -0.08100
H 	H 	0.66120 0.57390 0.00820 0.05300
H 	H 	0.42210 0.52680 0.83910 0.07600
C 	C 	0.43770 0.50450 0.74260 0.00400
H 	H 	0.12210 0.50810 0.70520 0.01600
C 	C 	0.25620 0.49390 0.66250 -0.13000
C 	C 	0.60890 0.69810 0.96890 -0.02900
C 	C 	0.46250 0.62620 0.96750 0.38300
C 	C 	0.37350 0.49170 0.67670 -0.01000
C 	C 	0.19130 0.48140 0.58990 0.43100
H 	H 	0.55060 0.72200 0.95140 0.05200
O 	O 	0.46510 0.57940 0.96250 -0.26500
O 	O 	0.38950 0.65890 0.95370 -0.29900
H 	H 	0.40960 0.48160 0.64170 0.05800
Nd	Nd	0.92056 0.55046 0.55523 2.05500
O 	O 	0.02500 0.60070 0.48380 -0.54400
O 	O 	0.74180 0.54680 0.60300 -0.38800
O 	O 	0.90280 0.53140 0.67570 -0.45300
O 	O 	0.76310 0.54570 0.44960 -0.45800
O 	O 	0.09170 0.49870 0.57030 -0.61200
O 	O 	0.86400 0.45650 0.55710 -0.49400
C 	C 	0.11230 0.58800 0.46450 0.47500
C 	C 	0.79720 0.53270 0.66210 0.32100
C 	C 	0.20630 0.62920 0.47870 -0.13300
C 	C 	0.73640 0.51820 0.71850 -0.07300
C 	C 	0.18270 0.68280 0.48640 -0.00200
C 	C 	0.32460 0.61020 0.49760 0.03300
C 	C 	0.61930 0.51790 0.70520 -0.03600
C 	C 	0.79940 0.50690 0.78530 0.03400
C 	C 	0.27300 0.71820 0.51150 -0.01000
H 	H 	0.10860 0.69530 0.47530 0.03200
C 	C 	0.41580 0.64380 0.52370 -0.08600
H 	H 	0.33880 0.57390 0.49180 0.05100
H 	H 	0.57790 0.52680 0.66090 0.07600
C 	C 	0.56230 0.50450 0.75740 0.00500
H 	H 	0.87790 0.50810 0.79480 0.01700
C 	C 	0.74380 0.49390 0.83750 -0.12900
C 	C 	0.39110 0.69810 0.53110 -0.02400
C 	C 	0.53750 0.62620 0.53250 0.38400
C 	C 	0.62650 0.49170 0.82330 -0.01100
C 	C 	0.80870 0.48140 0.91010 0.43100
H 	H 	0.44940 0.72200 0.54860 0.05000
O 	O 	0.53490 0.57940 0.53750 -0.26600
O 	O 	0.61050 0.65890 0.54630 -0.30000
H 	H 	0.59040 0.48160 0.85830 0.05800
Nd	Nd	0.42056 0.94954 0.05523 2.04300
O 	O 	0.52500 0.89930 0.98380 -0.54200
O 	O 	0.24180 0.95320 0.10300 -0.38800
O 	O 	0.40280 0.96860 0.17570 -0.45300
O 	O 	0.26310 0.95430 0.94960 -0.45500
O 	O 	0.59170 0.00130 0.07030 -0.60800
O 	O 	0.36400 0.04350 0.05710 -0.49200
C 	C 	0.61230 0.91200 0.96450 0.47600
C 	C 	0.29720 0.96730 0.16210 0.32000
C 	C 	0.70630 0.87080 0.97870 -0.13900
C 	C 	0.23640 0.98180 0.21850 -0.07200
C 	C 	0.68270 0.81720 0.98640 0.00900
C 	C 	0.82460 0.88980 0.99760 0.04500
C 	C 	0.11930 0.98210 0.20520 -0.03800
C 	C 	0.29940 0.99310 0.28530 0.03100
C 	C 	0.77300 0.78180 0.01150 -0.02100
H 	H 	0.60860 0.80470 0.97530 0.02900
C 	C 	0.91580 0.85620 0.02370 -0.09800
H 	H 	0.83880 0.92610 0.99180 0.04900
H 	H 	0.07790 0.97320 0.16090 0.07600
C 	C 	0.06230 0.99550 0.25740 0.00600
H 	H 	0.37790 0.99190 0.29480 0.01700
C 	C 	0.24380 0.00610 0.33750 -0.12700
C 	C 	0.89110 0.80190 0.03110 -0.01600
C 	C 	0.03750 0.87380 0.03250 0.39000
C 	C 	0.12650 0.00830 0.32330 -0.01100
C 	C 	0.30870 0.01860 0.41010 0.43000
H 	H 	0.94940 0.77800 0.04860 0.04600
O 	O 	0.03490 0.92060 0.03750 -0.26800
O 	O 	0.11050 0.84110 0.04630 -0.30100
H 	H 	0.09040 0.01840 0.35830 0.05900
Nd	Nd	0.57944 0.94954 0.44477 2.05300
O 	O 	0.47500 0.89930 0.51620 -0.54400
O 	O 	0.75820 0.95320 0.39700 -0.38800
O 	O 	0.59720 0.96860 0.32430 -0.45400
O 	O 	0.73690 0.95430 0.55040 -0.45800
O 	O 	0.40830 0.00130 0.42970 -0.61100
O 	O 	0.63600 0.04350 0.44290 -0.49400
C 	C 	0.38770 0.91200 0.53550 0.47400
C 	C 	0.70280 0.96730 0.33790 0.32000
C 	C 	0.29370 0.87080 0.52130 -0.13300
C 	C 	0.76360 0.98180 0.28150 -0.07300
C 	C 	0.31730 0.81720 0.51360 -0.00200
C 	C 	0.17540 0.88980 0.50240 0.03300
C 	C 	0.88070 0.98210 0.29480 -0.03500
C 	C 	0.70060 0.99310 0.21470 0.02900
C 	C 	0.22700 0.78180 0.48850 -0.01000
H 	H 	0.39140 0.80470 0.52470 0.03300
C 	C 	0.08420 0.85620 0.47630 -0.08500
H 	H 	0.16120 0.92610 0.50820 0.05200
H 	H 	0.92210 0.97320 0.33910 0.07500
C 	C 	0.93770 0.99550 0.24260 -0.00100
H 	H 	0.62210 0.99190 0.20520 0.01700
C 	C 	0.75620 0.00610 0.16250 -0.12700
C 	C 	0.10890 0.80190 0.46890 -0.02400
C 	C 	0.96250 0.87380 0.46750 0.38400
C 	C 	0.87350 0.00830 0.17670 -0.00700
C 	C 	0.69130 0.01860 0.08990 0.42900
H 	H 	0.05060 0.77800 0.45140 0.05000
O 	O 	0.96510 0.92060 0.46250 -0.26600
O 	O 	0.88950 0.84110 0.45370 -0.30000
H 	H 	0.90960 0.01840 0.14170 0.05800
Nd	Nd	0.57944 0.05046 0.94477 2.04300
O 	O 	0.47500 0.10070 0.01620 -0.54200
O 	O 	0.75820 0.04680 0.89700 -0.38800
O 	O 	0.59720 0.03140 0.82430 -0.45300
O 	O 	0.73690 0.04570 0.05040 -0.45500
O 	O 	0.40830 0.99870 0.92970 -0.60800
O 	O 	0.63600 0.95650 0.94290 -0.49200
C 	C 	0.38770 0.08800 0.03550 0.47600
C 	C 	0.70280 0.03270 0.83790 0.32000
C 	C 	0.29370 0.12920 0.02130 -0.13900
C 	C 	0.76360 0.01820 0.78150 -0.07200
C 	C 	0.31730 0.18280 0.01360 0.00900
C 	C 	0.17540 0.11020 0.00240 0.04500
C 	C 	0.88070 0.01790 0.79480 -0.03800
C 	C 	0.70060 0.00690 0.71470 0.03100
C 	C 	0.22700 0.21820 0.98850 -0.02100
H 	H 	0.39140 0.19530 0.02470 0.02900
C 	C 	0.08420 0.14380 0.97630 -0.09800
H 	H 	0.16120 0.07390 0.00820 0.04900
H 	H 	0.92210 0.02680 0.83910 0.07600
C 	C 	0.93770 0.00450 0.74260 0.00600
H 	H 	0.62210 0.00810 0.70520 0.01700
C 	C 	0.75620 0.99390 0.66250 -0.12700
C 	C 	0.10890 0.19810 0.96890 -0.01600
C 	C 	0.96250 0.12620 0.96750 0.39000
C 	C 	0.87350 0.99170 0.67670 -0.01100
C 	C 	0.69130 0.98140 0.58990 0.43000
H 	H 	0.05060 0.22200 0.95140 0.04600
O 	O 	0.96510 0.07940 0.96250 -0.26800
O 	O 	0.88950 0.15890 0.95370 -0.30100
H 	H 	0.90960 0.98160 0.64170 0.05900
Nd	Nd	0.42056 0.05046 0.55523 2.05300
O 	O 	0.52500 0.10070 0.48380 -0.54400
O 	O 	0.24180 0.04680 0.60300 -0.38800
O 	O 	0.40280 0.03140 0.67570 -0.45400
O 	O 	0.26310 0.04570 0.44960 -0.45800
O 	O 	0.59170 0.99870 0.57030 -0.61100
O 	O 	0.36400 0.95650 0.55710 -0.49400
C 	C 	0.61230 0.08800 0.46450 0.47400
C 	C 	0.29720 0.03270 0.66210 0.32000
C 	C 	0.70630 0.12920 0.47870 -0.13300
C 	C 	0.23640 0.01820 0.71850 -0.07300
C 	C 	0.68270 0.18280 0.48640 -0.00200
C 	C 	0.82460 0.11020 0.49760 0.03300
C 	C 	0.11930 0.01790 0.70520 -0.03500
C 	C 	0.29940 0.00690 0.78530 0.02900
C 	C 	0.77300 0.21820 0.51150 -0.01000
H 	H 	0.60860 0.19530 0.47530 0.03300
C 	C 	0.91580 0.14380 0.52370 -0.08500
H 	H 	0.83880 0.07390 0.49180 0.05200
H 	H 	0.07790 0.02680 0.66090 0.07500
C 	C 	0.06230 0.00450 0.75740 -0.00100
H 	H 	0.37790 0.00810 0.79480 0.01700
C 	C 	0.24380 0.99390 0.83750 -0.12700
C 	C 	0.89110 0.19810 0.53110 -0.02400
C 	C 	0.03750 0.12620 0.53250 0.38400
C 	C 	0.12650 0.99170 0.82330 -0.00700
C 	C 	0.30870 0.98140 0.91010 0.42900
H 	H 	0.94940 0.22200 0.54860 0.05000
O 	O 	0.03490 0.07940 0.53750 -0.26600
O 	O 	0.11050 0.15890 0.54630 -0.30000
H 	H 	0.09040 0.98160 0.85830 0.05800
