data_crystal

_cell_length_a 11.60900
_cell_length_b 12.22700
_cell_length_c 13.55400
_cell_angle_alpha 65.00000
_cell_angle_beta  69.14000
_cell_angle_gamma 87.75000

_symmetry_space_group_name_	'P 1'
_symmetry_space_group_name_H-M	'P 1'

loop_
_symmetry_equiv_pos_as_xyz
  x,y,z

loop_
_atom_site_label
_atom_site_type_symbol
_atom_site_fract_x
_atom_site_fract_y
_atom_site_fract_z
_atom_site_charge
O 	O 	0.56190 0.12990 0.86940 -0.41700
O 	O 	0.49860 0.30060 0.77560 -0.38700
C 	C 	0.52380 0.22870 0.86370 0.31700
O 	O 	0.29080 0.80670 0.51550 -0.48000
O 	O 	0.28910 0.95370 0.57050 -0.45000
C 	C 	0.23620 0.87280 0.56050 0.47200
C 	C 	0.02640 0.77850 0.59530 0.01900
H 	H 	0.06570 0.72110 0.57170 0.05000
C 	C 	0.09580 0.86260 0.60430 -0.16200
C 	C 	0.03750 0.94870 0.64000 0.19800
H 	H 	0.08360 0.00450 0.64600 -0.06700
O 	O 	0.73880 0.05520 0.70880 -0.43800
O 	O 	0.92020 0.12990 0.69190 -0.23300
C 	C 	0.84960 0.05210 0.69260 0.32300
C 	C 	0.91130 0.95110 0.66650 -0.06600
C 	C 	0.84270 0.86710 0.65760 -0.00100
H 	H 	0.75760 0.86880 0.67630 0.05700
C 	C 	0.89900 0.78000 0.62110 -0.00200
O 	O 	0.73310 0.32200 0.60350 -0.43200
C 	C 	0.78920 0.37770 0.63440 0.37800
C 	C 	0.77140 0.50720 0.60860 -0.09100
C 	C 	0.68260 0.55590 0.56060 0.04200
H 	H 	0.63410 0.50740 0.54880 0.05200
C 	C 	0.66680 0.67860 0.53040 -0.09800
Tb	Tb	0.42632 0.83031 0.32690 1.98000
O 	O 	0.56370 0.84530 0.44410 -0.52500
O 	O 	0.46810 0.02970 0.31290 -0.63100
O 	O 	0.52130 0.67150 0.44520 -0.42300
O 	O 	0.53390 0.18560 0.32330 -0.43900
O 	O 	0.85950 0.32830 0.69100 -0.23300
C 	C 	0.50230 0.14120 0.26670 0.43300
C 	C 	0.57740 0.73300 0.47140 0.39600
C 	C 	0.82540 0.70060 0.60210 0.01000
C 	C 	0.50390 0.22570 0.14870 -0.16500
C 	C 	0.84180 0.57910 0.62900 -0.01400
H 	H 	0.90080 0.54560 0.66100 0.06000
C 	C 	0.50780 0.18540 0.06630 0.07300
H 	H 	0.50780 0.10310 0.08440 -0.01700
C 	C 	0.73800 0.74910 0.55140 -0.00400
H 	H 	0.72720 0.83050 0.53110 0.05200
C 	C 	0.50130 0.34760 0.12200 0.03000
H 	H 	0.49950 0.37330 0.17800 0.03900
C 	C 	0.50110 0.43370 0.01430 -0.04000
C 	C 	0.51180 0.26860 0.95680 -0.09900
C 	C 	0.50870 0.39050 0.93190 0.01100
H 	H 	0.51170 0.44550 0.85800 0.04800
O 	O 	0.43810 0.87010 0.13060 -0.38000
O 	O 	0.50140 0.69940 0.22440 -0.38500
C 	C 	0.47620 0.77130 0.13630 0.30500
O 	O 	0.70920 0.19330 0.48450 -0.47000
O 	O 	0.71090 0.04630 0.42950 -0.52600
C 	C 	0.76380 0.12720 0.43950 0.42400
C 	C 	0.97360 0.22150 0.40470 -0.02200
H 	H 	0.93430 0.27890 0.42830 0.06600
C 	C 	0.90420 0.13740 0.39570 -0.07600
C 	C 	0.96250 0.05130 0.36000 -0.09800
H 	H 	0.91640 0.99550 0.35400 0.15000
O 	O 	0.26120 0.94480 0.29120 -0.41900
O 	O 	0.07980 0.87010 0.30810 -0.24000
C 	C 	0.15040 0.94790 0.30740 0.44500
C 	C 	0.08870 0.04890 0.33350 -0.14200
C 	C 	0.15730 0.13290 0.34240 -0.00800
H 	H 	0.24240 0.13120 0.32370 0.02700
C 	C 	0.10100 0.22000 0.37890 -0.00200
O 	O 	0.26690 0.67800 0.39650 -0.44900
C 	C 	0.21080 0.62230 0.36560 0.38600
C 	C 	0.22860 0.49280 0.39140 -0.10600
C 	C 	0.31740 0.44410 0.43940 0.05600
H 	H 	0.36590 0.49260 0.45120 0.04400
C 	C 	0.33320 0.32140 0.46960 -0.12200
Tb	Tb	0.57368 0.16969 0.67310 1.83100
O 	O 	0.43630 0.15470 0.55590 -0.57100
O 	O 	0.53190 0.97030 0.68710 -0.51300
O 	O 	0.47870 0.32850 0.55480 -0.42000
O 	O 	0.46610 0.81440 0.67670 -0.41000
O 	O 	0.14050 0.67170 0.30900 -0.23200
C 	C 	0.49770 0.85880 0.73330 0.40100
C 	C 	0.42260 0.26700 0.52860 0.40900
C 	C 	0.17460 0.29940 0.39790 -0.01100
C 	C 	0.49610 0.77430 0.85130 -0.10600
C 	C 	0.15820 0.42090 0.37100 -0.00200
H 	H 	0.09920 0.45440 0.33900 0.05400
C 	C 	0.49220 0.81460 0.93370 0.04800
H 	H 	0.49220 0.89690 0.91560 0.03900
C 	C 	0.26200 0.25090 0.44860 0.01800
H 	H 	0.27280 0.16950 0.46890 0.01900
C 	C 	0.49870 0.65240 0.87800 -0.02400
H 	H 	0.50050 0.62670 0.82200 0.05900
C 	C 	0.49890 0.56630 0.98570 0.03900
C 	C 	0.48820 0.73140 0.04320 -0.06200
C 	C 	0.49130 0.60950 0.06810 -0.05200
H 	H 	0.48830 0.55450 0.14200 0.07000
Tb	Tb	0.50000 0.00000 0.50000 1.83200
