data_crystal

_cell_length_a 7.94180
_cell_length_b 12.08700
_cell_length_c 13.35800
_cell_angle_alpha 112.10100
_cell_angle_beta  105.05100
_cell_angle_gamma 91.19700

_symmetry_space_group_name_	'P 1'
_symmetry_space_group_name_H-M	'P 1'

loop_
_symmetry_equiv_pos_as_xyz
  x,y,z

loop_
_atom_site_label
_atom_site_type_symbol
_atom_site_fract_x
_atom_site_fract_y
_atom_site_fract_z
_atom_site_charge
Tb	Tb	0.24936 0.98099 0.01070 1.87300
C 	C 	0.83820 0.39750 0.55570 0.28900
C 	C 	0.86350 0.19910 0.56560 0.28500
C 	C 	0.03220 0.38240 0.72260 0.29200
C 	C 	0.00170 0.57860 0.71380 0.21500
H 	H 	0.00540 0.61030 0.65750 -0.01000
H 	H 	0.11670 0.60030 0.76890 -0.01300
C 	C 	0.86600 0.63290 0.77110 -0.54400
H 	H 	0.85240 0.59200 0.81920 0.20100
H 	H 	0.75430 0.61720 0.71380 0.21300
C 	C 	0.90480 0.76620 0.84150 0.55900
C 	C 	0.64500 0.21510 0.40720 0.18600
H 	H 	0.56850 0.27450 0.39880 -0.00300
H 	H 	0.57630 0.15210 0.41380 0.01000
C 	C 	0.70320 0.16120 0.30300 -0.50900
H 	H 	0.75690 0.22500 0.28940 0.19900
H 	H 	0.79110 0.10910 0.31410 0.20300
C 	C 	0.55220 0.09040 0.20290 0.51900
C 	C 	0.07280 0.18430 0.72970 0.16200
H 	H 	0.18950 0.22410 0.77750 0.00900
H 	H 	0.08520 0.10680 0.67560 0.00800
C 	C 	0.96340 0.16510 0.80210 -0.49500
H 	H 	0.94450 0.24270 0.85280 0.17600
H 	H 	0.84930 0.12070 0.75370 0.19000
C 	C 	0.05290 0.09720 0.86980 0.53300
N 	N 	0.95940 0.44700 0.65950 -0.22100
N 	N 	0.98890 0.25810 0.66900 -0.20900
N 	N 	0.78960 0.27290 0.51250 -0.21200
O 	O 	0.77360 0.45680 0.50370 -0.24700
O 	O 	0.13040 0.42950 0.81530 -0.26200
O 	O 	0.82220 0.09170 0.52460 -0.24200
O 	O 	0.78540 0.81630 0.87940 -0.49100
O 	O 	0.05850 0.81530 0.85980 -0.50900
O 	O 	0.96480 0.05260 0.91450 -0.63000
O 	O 	0.21320 0.08490 0.88090 -0.47800
O 	O 	0.55530 0.08600 0.10570 -0.60200
O 	O 	0.42410 0.04120 0.21400 -0.44500
Tb	Tb	0.75064 0.01901 0.98930 1.87300
C 	C 	0.16180 0.60250 0.44430 0.28900
C 	C 	0.13650 0.80090 0.43440 0.28500
C 	C 	0.96780 0.61760 0.27740 0.29200
C 	C 	0.99830 0.42140 0.28620 0.21500
H 	H 	0.99460 0.38970 0.34250 -0.01000
H 	H 	0.88330 0.39970 0.23110 -0.01300
C 	C 	0.13400 0.36710 0.22890 -0.54400
H 	H 	0.14760 0.40800 0.18080 0.20100
H 	H 	0.24570 0.38280 0.28620 0.21300
C 	C 	0.09520 0.23380 0.15850 0.55900
C 	C 	0.35500 0.78490 0.59280 0.18600
H 	H 	0.43150 0.72550 0.60120 -0.00300
H 	H 	0.42370 0.84790 0.58620 0.01000
C 	C 	0.29680 0.83880 0.69700 -0.50900
H 	H 	0.24310 0.77500 0.71060 0.19900
H 	H 	0.20890 0.89090 0.68590 0.20300
C 	C 	0.44780 0.90960 0.79710 0.51900
C 	C 	0.92720 0.81570 0.27030 0.16200
H 	H 	0.81050 0.77590 0.22250 0.00900
H 	H 	0.91480 0.89320 0.32440 0.00800
C 	C 	0.03660 0.83490 0.19790 -0.49500
H 	H 	0.05550 0.75730 0.14720 0.17600
H 	H 	0.15070 0.87930 0.24630 0.19000
C 	C 	0.94710 0.90280 0.13020 0.53300
N 	N 	0.04060 0.55300 0.34050 -0.22100
N 	N 	0.01110 0.74190 0.33100 -0.20900
N 	N 	0.21040 0.72710 0.48750 -0.21200
O 	O 	0.22640 0.54320 0.49630 -0.24700
O 	O 	0.86960 0.57050 0.18470 -0.26200
O 	O 	0.17780 0.90830 0.47540 -0.24200
O 	O 	0.21460 0.18370 0.12060 -0.49100
O 	O 	0.94150 0.18470 0.14020 -0.50900
O 	O 	0.03520 0.94740 0.08550 -0.63000
O 	O 	0.78680 0.91510 0.11910 -0.47800
O 	O 	0.44470 0.91400 0.89430 -0.60200
O 	O 	0.57590 0.95880 0.78600 -0.44500
