data_crystal

_cell_length_a 10.99400
_cell_length_b 19.83800
_cell_length_c 23.09800
_cell_angle_alpha 90.00000
_cell_angle_beta  90.00000
_cell_angle_gamma 99.89000

_symmetry_space_group_name_	'P 1'
_symmetry_space_group_name_H-M	'P 1'

loop_
_symmetry_equiv_pos_as_xyz
  x,y,z

loop_
_atom_site_label
_atom_site_type_symbol
_atom_site_fract_x
_atom_site_fract_y
_atom_site_fract_z
_atom_site_charge
Ce	Ce	0.96037 0.10103 0.64528 2.05500
Ce	Ce	0.64735 0.35404 0.64420 1.98300
Ce	Ce	0.03963 0.89897 0.35472 2.05500
Ce	Ce	0.46037 0.60103 0.85472 2.05700
Ce	Ce	0.35265 0.64596 0.35580 1.98300
Ce	Ce	0.53963 0.39897 0.14528 2.05700
Ce	Ce	0.85265 0.14596 0.14420 1.98100
Ce	Ce	0.14735 0.85404 0.85580 1.98100
Cu	Cu	0.59132 0.39849 0.32139 0.87100
Cu	Cu	0.40868 0.60151 0.67861 0.87100
Cu	Cu	0.30292 0.65118 0.17930 0.88900
Cu	Cu	0.09132 0.89849 0.17861 0.87000
Cu	Cu	0.19708 0.84882 0.67930 0.88900
Cu	Cu	0.69708 0.34882 0.82070 0.88900
Cu	Cu	0.80292 0.15118 0.32070 0.88900
Cu	Cu	0.90868 0.10151 0.82139 0.87000
H 	H 	0.01750 0.49140 0.30450 0.00300
H 	H 	0.87900 0.55720 0.19550 0.05200
H 	H 	0.98250 0.50860 0.69550 0.00300
H 	H 	0.91820 0.54150 0.91790 0.05700
H 	H 	0.08180 0.45850 0.08210 0.05700
H 	H 	0.41820 0.04150 0.58210 0.05700
H 	H 	0.77300 0.74290 0.29410 0.02400
H 	H 	0.37900 0.05720 0.30450 0.05100
H 	H 	0.48250 0.00860 0.80450 0.00500
H 	H 	0.62100 0.94280 0.69550 0.05100
H 	H 	0.58180 0.95850 0.41790 0.05700
H 	H 	0.12100 0.44280 0.80450 0.05200
H 	H 	0.22700 0.25710 0.70590 0.02400
H 	H 	0.11010 0.30730 0.19970 0.02700
H 	H 	0.61010 0.80730 0.30030 0.02800
H 	H 	0.38990 0.19270 0.69970 0.02800
H 	H 	0.72700 0.75710 0.79410 0.02400
H 	H 	0.51750 0.99140 0.19550 0.00500
H 	H 	0.27300 0.24290 0.20590 0.02400
H 	H 	0.88990 0.69270 0.80030 0.02700
C 	C 	0.89870 0.86350 0.81220 0.31000
C 	C 	0.79120 0.46500 0.76090 0.42700
C 	C 	0.75280 0.58500 0.25030 -0.08700
C 	C 	0.59280 0.84390 0.27850 -0.00400
C 	C 	0.63920 0.96360 0.25320 -0.10100
C 	C 	0.21250 0.08730 0.68330 0.30500
C 	C 	0.31520 0.48630 0.74020 0.41600
C 	C 	0.92900 0.65920 0.20850 -0.03900
C 	C 	0.65770 0.05380 0.59500 0.35800
C 	C 	0.20650 0.29420 0.72600 -0.00300
C 	C 	0.40720 0.15610 0.72150 -0.00400
C 	C 	0.70650 0.79420 0.77400 -0.00500
C 	C 	0.10130 0.13650 0.18780 0.31000
C 	C 	0.12630 0.49890 0.00370 -0.03000
C 	C 	0.36080 0.03640 0.74680 -0.10100
C 	C 	0.57840 0.02430 0.54550 -0.07600
C 	C 	0.18480 0.01370 0.24020 0.42300
C 	C 	0.84230 0.44620 0.09500 0.35900
C 	C 	0.14990 0.61340 0.67220 0.34300
C 	C 	0.53660 0.10990 0.79040 -0.06100
C 	C 	0.62630 0.99890 0.49630 -0.03100
C 	C 	0.07100 0.34080 0.79150 -0.03900
C 	C 	0.16740 0.40720 0.21600 -0.03500
C 	C 	0.87370 0.50110 0.99630 -0.03000
C 	C 	0.35710 0.09440 0.28500 -0.01100
C 	C 	0.42320 0.76330 0.23150 0.40000
C 	C 	0.50780 0.16590 0.75900 -0.09600
C 	C 	0.34230 0.94620 0.40500 0.35800
C 	C 	0.46330 0.04570 0.78400 0.01300
C 	C 	0.85010 0.38660 0.32780 0.34300
C 	C 	0.15770 0.55380 0.90500 0.35900
C 	C 	0.04630 0.66430 0.17390 0.32400
C 	C 	0.54630 0.16430 0.32610 0.32600
C 	C 	0.07840 0.52430 0.95450 -0.07600
C 	C 	0.46500 0.28630 0.27090 0.39700
C 	C 	0.76120 0.99190 0.49030 0.29200
C 	C 	0.45080 0.02490 0.54890 -0.01100
C 	C 	0.90720 0.65610 0.77850 -0.00100
C 	C 	0.29120 0.96500 0.73910 0.42400
C 	C 	0.85710 0.59440 0.21500 -0.01400
C 	C 	0.60310 0.78490 0.73790 -0.11500
C 	C 	0.54920 0.97510 0.45110 -0.01100
C 	C 	0.33260 0.09280 0.71600 -0.03500
C 	C 	0.78750 0.91270 0.31670 0.30500
C 	C 	0.29350 0.20580 0.22600 -0.00500
C 	C 	0.39690 0.21510 0.26210 -0.11500
C 	C 	0.22110 0.14160 0.21990 -0.06000
C 	C 	0.39870 0.36350 0.68780 0.31100
C 	C 	0.92320 0.26330 0.26850 0.40000
C 	C 	0.42160 0.97570 0.45450 -0.07600
C 	C 	0.10310 0.28490 0.76210 -0.11700
C 	C 	0.53500 0.71370 0.72910 0.39700
C 	C 	0.95370 0.33570 0.82610 0.32400
C 	C 	0.96330 0.54570 0.71600 0.01600
C 	C 	0.23880 0.00810 0.50970 0.29200
C 	C 	0.13920 0.46360 0.24680 -0.10500
C 	C 	0.81520 0.98630 0.75980 0.42300
C 	C 	0.45370 0.83570 0.67390 0.32600
C 	C 	0.03670 0.45430 0.28400 0.01600
C 	C 	0.74720 0.91500 0.75030 -0.08900
C 	C 	0.99220 0.33410 0.25900 -0.09900
C 	C 	0.28750 0.41270 0.18330 0.30500
C 	C 	0.57680 0.23670 0.76850 0.40000
C 	C 	0.46340 0.89010 0.20960 -0.06100
C 	C 	0.20880 0.53500 0.23910 0.42700
C 	C 	0.96500 0.78630 0.22910 0.40100
C 	C 	0.03500 0.21370 0.77090 0.40100
C 	C 	0.71250 0.58730 0.81670 0.30500
C 	C 	0.25280 0.08500 0.24970 -0.08900
C 	C 	0.42900 0.15920 0.29150 -0.04300
C 	C 	0.35010 0.88660 0.17220 0.34300
C 	C 	0.09280 0.34390 0.22150 -0.00100
C 	C 	0.77890 0.85840 0.78010 -0.06000
C 	C 	0.70880 0.03500 0.26090 0.42400
C 	C 	0.57100 0.84080 0.70850 -0.04300
C 	C 	0.14290 0.40560 0.78500 -0.01400
C 	C 	0.24720 0.41500 0.74970 -0.08700
C 	C 	0.89690 0.71510 0.23790 -0.11700
C 	C 	0.95080 0.52490 0.95110 -0.01000
C 	C 	0.72110 0.64160 0.28010 -0.06200
C 	C 	0.83260 0.59280 0.78400 -0.03500
C 	C 	0.66740 0.90720 0.28400 -0.03500
C 	C 	0.96340 0.39010 0.29040 -0.06200
C 	C 	0.37370 0.00110 0.50370 -0.03100
C 	C 	0.04920 0.47510 0.04890 -0.01000
C 	C 	0.53670 0.95430 0.21600 0.01300
C 	C 	0.64290 0.90560 0.71500 -0.01100
C 	C 	0.79350 0.70580 0.27400 -0.00300
C 	C 	0.00780 0.66590 0.74100 -0.09900
C 	C 	0.49220 0.83410 0.24100 -0.09600
C 	C 	0.27890 0.35840 0.71990 -0.06200
C 	C 	0.68480 0.51370 0.25980 0.41600
C 	C 	0.60130 0.63650 0.31220 0.31100
C 	C 	0.86080 0.53640 0.75320 -0.10500
C 	C 	0.07680 0.73670 0.73150 0.40000
C 	C 	0.64990 0.11340 0.82780 0.34300
C 	C 	0.73880 0.50810 0.99030 0.28800
C 	C 	0.92160 0.47570 0.04550 -0.07600
C 	C 	0.03660 0.60990 0.70960 -0.06200
C 	C 	0.26120 0.49190 0.00970 0.28800
O 	O 	0.08990 0.77800 0.77290 -0.58600
O 	O 	0.27580 0.94379 0.68800 -0.42300
O 	O 	0.09350 0.17230 0.14430 -0.50500
O 	O 	0.77290 0.06030 0.58920 -0.54500
O 	O 	0.82640 0.00650 0.81160 -0.45900
O 	O 	0.99200 0.90340 0.79150 -0.45700
O 	O 	0.22710 0.93970 0.41080 -0.54500
O 	O 	0.75210 0.13350 0.80260 -0.40200
O 	O 	0.24010 0.57000 0.28360 -0.60400
O 	O 	0.47330 0.32670 0.22870 -0.58700
O 	O 	0.99270 0.19700 0.82041 -0.44200
O 	O 	0.36190 0.90620 0.12160 -0.34100
O 	O 	0.20380 0.12260 0.63870 -0.45300
O 	O 	0.61890 0.54900 0.79570 -0.44300
O 	O 	0.25990 0.93000 0.78360 -0.60400
O 	O 	0.35560 0.82110 0.70324 -0.40200
O 	O 	0.88110 0.95100 0.29570 -0.44000
O 	O 	0.52670 0.67330 0.77130 -0.58700
O 	O 	0.60530 0.07200 0.63860 -0.32200
O 	O 	0.22420 0.55621 0.18800 -0.42300
O 	O 	0.77580 0.44379 0.81200 -0.42300
O 	O 	0.13810 0.59380 0.62160 -0.34100
O 	O 	0.38110 0.45100 0.20430 -0.44300
O 	O 	0.10530 0.57200 0.86140 -0.32300
O 	O 	0.89470 0.42800 0.13860 -0.32300
O 	O 	0.39470 0.92800 0.36140 -0.32200
O 	O 	0.61430 0.25320 0.81886 -0.43100
O 	O 	0.49270 0.69700 0.67959 -0.43800
O 	O 	0.03920 0.65090 0.12140 -0.28000
O 	O 	0.75990 0.43000 0.71640 -0.60400
O 	O 	0.14720 0.97820 0.28340 -0.55000
O 	O 	0.27290 0.56030 0.91080 -0.54400
O 	O 	0.67360 0.49350 0.31160 -0.45600
O 	O 	0.85280 0.02180 0.71660 -0.55000
O 	O 	0.96080 0.34910 0.87860 -0.28000
O 	O 	0.97330 0.82670 0.27130 -0.58600
O 	O 	0.00730 0.80300 0.17959 -0.44200
O 	O 	0.46080 0.84910 0.62140 -0.28000
O 	O 	0.79760 0.94140 0.51260 -0.28500
O 	O 	0.70240 0.55860 0.01260 -0.28500
O 	O 	0.50730 0.30300 0.32041 -0.43800
O 	O 	0.72420 0.05621 0.31200 -0.42300
O 	O 	0.14440 0.67890 0.20324 -0.40200
O 	O 	0.58990 0.27800 0.72710 -0.58400
O 	O 	0.91010 0.22200 0.22710 -0.58600
O 	O 	0.25210 0.63350 0.69740 -0.40100
O 	O 	0.20240 0.05860 0.48740 -0.28500
O 	O 	0.53920 0.15090 0.37860 -0.28000
O 	O 	0.59350 0.67230 0.35570 -0.50600
O 	O 	0.50800 0.59660 0.29150 -0.46000
O 	O 	0.32960 0.53700 0.03970 -0.30000
O 	O 	0.00800 0.09660 0.20850 -0.45700
O 	O 	0.72710 0.43970 0.08920 -0.54400
O 	O 	0.40650 0.32770 0.64430 -0.50600
O 	O 	0.17040 0.96300 0.53970 -0.30400
O 	O 	0.85560 0.32110 0.79676 -0.40200
O 	O 	0.64440 0.17890 0.29676 -0.40200
O 	O 	0.17360 0.99350 0.18840 -0.45900
O 	O 	0.49200 0.40340 0.70850 -0.46000
O 	O 	0.82960 0.03700 0.46030 -0.30400
O 	O 	0.02670 0.17330 0.72870 -0.58600
O 	O 	0.70380 0.62260 0.86130 -0.45400
O 	O 	0.74790 0.36650 0.30260 -0.40100
O 	O 	0.11430 0.75320 0.68114 -0.43200
O 	O 	0.41010 0.72200 0.27290 -0.58400
O 	O 	0.63810 0.09380 0.87840 -0.34100
O 	O 	0.64720 0.47820 0.21660 -0.54600
O 	O 	0.90650 0.82770 0.85570 -0.50500
O 	O 	0.79620 0.87740 0.36130 -0.45300
O 	O 	0.67040 0.46300 0.96030 -0.30000
O 	O 	0.38570 0.74680 0.18114 -0.43100
O 	O 	0.24790 0.86650 0.19740 -0.40200
O 	O 	0.29620 0.37740 0.13870 -0.45400
O 	O 	0.88570 0.24680 0.31886 -0.43200
O 	O 	0.32640 0.50650 0.68840 -0.45600
O 	O 	0.35280 0.52180 0.78340 -0.54600
O 	O 	0.74010 0.07000 0.21640 -0.60400
O 	O 	0.29760 0.44140 0.98740 -0.28500
O 	O 	0.86190 0.40620 0.37840 -0.34100
O 	O 	0.11890 0.04900 0.70430 -0.44000
