data_crystal

_cell_length_a 10.85600
_cell_length_b 19.70600
_cell_length_c 22.79900
_cell_angle_alpha 90.00000
_cell_angle_beta  90.00000
_cell_angle_gamma 99.49000

_symmetry_space_group_name_	'P 1'
_symmetry_space_group_name_H-M	'P 1'

loop_
_symmetry_equiv_pos_as_xyz
  x,y,z

loop_
_atom_site_label
_atom_site_type_symbol
_atom_site_fract_x
_atom_site_fract_y
_atom_site_fract_z
_atom_site_charge
Nd	Nd	0.64961 0.34736 0.64442 1.44700
Nd	Nd	0.85039 0.15264 0.14442 1.44100
Nd	Nd	0.14961 0.84736 0.85558 1.44100
Nd	Nd	0.45874 0.59673 0.85149 1.80100
Nd	Nd	0.35039 0.65264 0.35558 1.44700
Nd	Nd	0.54126 0.40327 0.14851 1.80100
Nd	Nd	0.95874 0.09673 0.64851 1.79300
Nd	Nd	0.04126 0.90327 0.35149 1.79300
Cu	Cu	0.69370 0.34412 0.82299 0.89400
Cu	Cu	0.09005 0.90412 0.17319 0.87700
Cu	Cu	0.90995 0.09588 0.82681 0.87700
Cu	Cu	0.19370 0.84412 0.67701 0.89400
Cu	Cu	0.30630 0.65588 0.17701 0.89400
Cu	Cu	0.59005 0.40412 0.32681 0.87700
Cu	Cu	0.80630 0.15588 0.32299 0.89400
Cu	Cu	0.40995 0.59588 0.67319 0.87700
H 	H 	0.51790 0.99740 0.19310 0.01700
H 	H 	0.39130 0.18850 0.69950 0.03500
H 	H 	0.10870 0.31150 0.19950 0.03500
H 	H 	0.38150 0.06050 0.30280 0.05500
H 	H 	0.61850 0.93950 0.69720 0.05500
H 	H 	0.48210 0.00260 0.80690 0.01700
H 	H 	0.22560 0.25100 0.70440 0.02300
H 	H 	0.08670 0.46610 0.08630 0.05900
H 	H 	0.98210 0.50260 0.69310 0.01500
H 	H 	0.01790 0.49740 0.30690 0.01500
H 	H 	0.72560 0.75100 0.79560 0.02400
H 	H 	0.58670 0.96610 0.41370 0.05900
H 	H 	0.41330 0.03390 0.58630 0.05900
H 	H 	0.89130 0.68850 0.80050 0.03500
H 	H 	0.91330 0.53390 0.91370 0.05900
H 	H 	0.11850 0.43950 0.80280 0.05600
H 	H 	0.77440 0.74900 0.29560 0.02300
H 	H 	0.27440 0.24900 0.20440 0.02400
H 	H 	0.88150 0.56050 0.19720 0.05600
H 	H 	0.60870 0.81150 0.30050 0.03500
C 	C 	0.45410 0.83240 0.67220 0.31500
C 	C 	0.53620 0.10480 0.79330 -0.05800
C 	C 	0.34420 0.95400 0.40130 0.35200
C 	C 	0.14130 0.40150 0.78410 -0.01800
C 	C 	0.49120 0.83890 0.23940 -0.08100
C 	C 	0.81430 0.98190 0.76280 0.42800
C 	C 	0.63890 0.96930 0.25240 -0.09200
C 	C 	0.92860 0.66380 0.20770 -0.03100
C 	C 	0.95410 0.33240 0.82780 0.31300
C 	C 	0.46380 0.89520 0.20670 -0.05800
C 	C 	0.64890 0.10820 0.83190 0.33800
C 	C 	0.03620 0.60480 0.70670 -0.05900
C 	C 	0.62770 0.99860 0.49660 -0.03500
C 	C 	0.87230 0.50140 0.99660 -0.03400
C 	C 	0.89610 0.72050 0.23660 -0.11400
C 	C 	0.07600 0.73180 0.72880 0.37400
C 	C 	0.42400 0.76820 0.22880 0.37400
C 	C 	0.20940 0.54070 0.23980 0.41600
C 	C 	0.99120 0.33890 0.26060 -0.08200
C 	C 	0.64130 0.90150 0.71590 -0.01500
C 	C 	0.74620 0.90930 0.75260 -0.08000
C 	C 	0.46360 0.29170 0.27410 0.40700
C 	C 	0.04590 0.66760 0.17220 0.31300
C 	C 	0.31430 0.48190 0.73720 0.42400
C 	C 	0.73750 0.50670 0.99050 0.29200
C 	C 	0.25380 0.09070 0.24740 -0.08000
C 	C 	0.92340 0.48050 0.04780 -0.06900
C 	C 	0.53640 0.70830 0.72590 0.40700
C 	C 	0.28740 0.41790 0.18310 0.30600
C 	C 	0.07140 0.33620 0.79230 -0.03100
C 	C 	0.10390 0.27950 0.76340 -0.11400
C 	C 	0.57140 0.83620 0.70770 -0.03400
C 	C 	0.29060 0.95930 0.73980 0.41200
C 	C 	0.09990 0.14270 0.18610 0.31400
C 	C 	0.54590 0.16760 0.32780 0.31500
C 	C 	0.37230 0.00140 0.50340 -0.03500
C 	C 	0.76250 0.99330 0.49050 0.29500
C 	C 	0.57660 0.01950 0.54780 -0.06900
C 	C 	0.20650 0.28830 0.72540 0.00800
C 	C 	0.23750 0.00670 0.50950 0.29500
C 	C 	0.40010 0.35730 0.68610 0.31400
C 	C 	0.24620 0.40930 0.74740 -0.07800
C 	C 	0.21260 0.08210 0.68310 0.30600
C 	C 	0.70940 0.04070 0.26020 0.41200
C 	C 	0.16740 0.41290 0.21600 -0.03400
C 	C 	0.13890 0.46930 0.24760 -0.09500
C 	C 	0.96380 0.39520 0.29330 -0.05900
C 	C 	0.55230 0.97950 0.44830 -0.01000
C 	C 	0.78740 0.91790 0.31690 0.30600
C 	C 	0.00880 0.66110 0.73940 -0.08200
C 	C 	0.85110 0.39180 0.33190 0.33800
C 	C 	0.70650 0.78830 0.77460 0.00600
C 	C 	0.83260 0.58710 0.78400 -0.03400
C 	C 	0.14890 0.60820 0.66810 0.33800
C 	C 	0.42340 0.98050 0.45220 -0.06900
C 	C 	0.72040 0.64760 0.28090 -0.06100
C 	C 	0.90010 0.85730 0.81390 0.31400
C 	C 	0.79350 0.71170 0.27460 0.00800
C 	C 	0.53720 0.96010 0.21410 0.01500
C 	C 	0.22040 0.14760 0.21910 -0.06000
C 	C 	0.59990 0.64270 0.31390 0.31400
C 	C 	0.85870 0.59850 0.21590 -0.01800
C 	C 	0.71260 0.58210 0.81690 0.30600
C 	C 	0.40830 0.15160 0.72180 -0.00400
C 	C 	0.65580 0.04600 0.59870 0.35200
C 	C 	0.39610 0.22050 0.26340 -0.11300
C 	C 	0.79060 0.45930 0.76020 0.41600
C 	C 	0.27960 0.35240 0.71910 -0.06100
C 	C 	0.42860 0.16380 0.29230 -0.03400
C 	C 	0.03640 0.20830 0.77410 0.41100
C 	C 	0.66740 0.91290 0.28400 -0.03400
C 	C 	0.75380 0.59070 0.25260 -0.07800
C 	C 	0.92400 0.26820 0.27120 0.37400
C 	C 	0.86110 0.53070 0.75240 -0.09500
C 	C 	0.09170 0.34840 0.22180 -0.00300
C 	C 	0.84420 0.45400 0.09870 0.35200
C 	C 	0.96280 0.53990 0.71410 0.01700
C 	C 	0.96360 0.79170 0.22590 0.41100
C 	C 	0.60390 0.77950 0.73660 -0.11300
C 	C 	0.33260 0.08710 0.71600 -0.03400
C 	C 	0.59170 0.84840 0.27820 -0.00400
C 	C 	0.94770 0.52050 0.94830 -0.01000
C 	C 	0.44770 0.02050 0.55170 -0.01000
C 	C 	0.35110 0.89180 0.16810 0.33800
C 	C 	0.90830 0.65160 0.77820 -0.00300
C 	C 	0.07660 0.51950 0.95220 -0.06900
C 	C 	0.03720 0.46010 0.28590 0.01700
C 	C 	0.35870 0.09850 0.28410 -0.01500
C 	C 	0.18570 0.01810 0.23720 0.42800
C 	C 	0.68570 0.51810 0.26280 0.42400
C 	C 	0.05230 0.47950 0.05170 -0.01000
C 	C 	0.26250 0.49330 0.00950 0.29200
C 	C 	0.12770 0.49860 0.00340 -0.03400
C 	C 	0.36110 0.03070 0.74760 -0.09200
C 	C 	0.29350 0.21170 0.22540 0.00600
C 	C 	0.50880 0.16110 0.76060 -0.08100
C 	C 	0.57600 0.23180 0.77120 0.37400
C 	C 	0.77960 0.85240 0.78090 -0.06000
C 	C 	0.46280 0.03990 0.78590 0.01500
C 	C 	0.15580 0.54600 0.90130 0.35200
O 	O 	0.33160 0.53940 0.03900 -0.28400
O 	O 	0.96080 0.34830 0.88050 -0.26900
O 	O 	0.30150 0.44180 0.98760 -0.26400
O 	O 	0.40840 0.72600 0.27100 -0.49000
O 	O 	0.85320 0.01760 0.71960 -0.51200
O 	O 	0.79900 0.88200 0.36160 -0.40800
O 	O 	0.90840 0.22600 0.22900 -0.49000
O 	O 	0.66840 0.46060 0.96100 -0.28400
O 	O 	0.91030 0.82070 0.85790 -0.42100
O 	O 	0.82430 0.00060 0.81560 -0.44600
O 	O 	0.74750 0.37080 0.30770 -0.39000
O 	O 	0.00680 0.10370 0.20730 -0.39400
O 	O 	0.22600 0.56070 0.18680 -0.41000
O 	O 	0.09160 0.77400 0.77100 -0.49000
O 	O 	0.67570 0.49940 0.31560 -0.44400
O 	O 	0.00380 0.80730 0.17480 -0.42800
O 	O 	0.49620 0.69270 0.67480 -0.42600
O 	O 	0.16840 0.96060 0.53900 -0.28800
O 	O 	0.38870 0.75240 0.17710 -0.41200
O 	O 	0.77400 0.05530 0.59200 -0.49100
O 	O 	0.75940 0.42360 0.71630 -0.51400
O 	O 	0.46080 0.84830 0.61950 -0.27000
O 	O 	0.14680 0.98240 0.28040 -0.51200
O 	O 	0.35320 0.51760 0.78040 -0.51000
O 	O 	0.41030 0.32070 0.64210 -0.42300
O 	O 	0.69850 0.55820 0.01240 -0.26400
O 	O 	0.24750 0.87080 0.19230 -0.39000
O 	O 	0.03920 0.65170 0.11950 -0.26900
O 	O 	0.19850 0.05820 0.48760 -0.26400
O 	O 	0.50680 0.60370 0.29270 -0.39600
O 	O 	0.80150 0.94180 0.51240 -0.26400
O 	O 	0.86430 0.41280 0.38330 -0.31400
O 	O 	0.52450 0.66700 0.76810 -0.54900
O 	O 	0.02450 0.16700 0.73190 -0.54700
O 	O 	0.64680 0.48240 0.21960 -0.51000
O 	O 	0.99620 0.19270 0.82520 -0.42800
O 	O 	0.60430 0.05940 0.64570 -0.29500
O 	O 	0.36430 0.91280 0.11670 -0.31400
O 	O 	0.97550 0.83300 0.26810 -0.54700
O 	O 	0.64620 0.18510 0.29880 -0.38000
O 	O 	0.25250 0.62920 0.69230 -0.39000
O 	O 	0.59160 0.27400 0.72900 -0.49000
O 	O 	0.20100 0.11800 0.63840 -0.40800
O 	O 	0.35380 0.81490 0.70120 -0.38000
O 	O 	0.88870 0.25240 0.32290 -0.41300
O 	O 	0.75250 0.12920 0.80770 -0.39000
O 	O 	0.88250 0.95550 0.29440 -0.40400
O 	O 	0.77400 0.43930 0.81320 -0.41000
O 	O 	0.61130 0.24760 0.82290 -0.41200
O 	O 	0.50380 0.30730 0.32520 -0.42600
O 	O 	0.61750 0.54450 0.79440 -0.40700
O 	O 	0.25940 0.92360 0.78370 -0.51300
O 	O 	0.83160 0.03940 0.46100 -0.28800
O 	O 	0.27400 0.93930 0.68680 -0.41000
O 	O 	0.29900 0.38200 0.13840 -0.41000
O 	O 	0.22600 0.94470 0.40800 -0.49100
O 	O 	0.10430 0.55940 0.85430 -0.29500
O 	O 	0.72600 0.06070 0.31320 -0.41000
O 	O 	0.13570 0.58720 0.61670 -0.31400
O 	O 	0.49320 0.39630 0.70730 -0.39600
O 	O 	0.08970 0.17930 0.14210 -0.42100
O 	O 	0.24060 0.57640 0.28370 -0.51400
O 	O 	0.58970 0.67930 0.35790 -0.42300
O 	O 	0.11130 0.74760 0.67710 -0.41300
O 	O 	0.70100 0.61800 0.86160 -0.41000
O 	O 	0.85380 0.31490 0.79880 -0.38000
O 	O 	0.38250 0.45550 0.20560 -0.40700
O 	O 	0.11750 0.04450 0.70560 -0.40400
O 	O 	0.14620 0.68510 0.20120 -0.38000
O 	O 	0.17570 0.99940 0.18440 -0.44600
O 	O 	0.74060 0.07640 0.21630 -0.51300
O 	O 	0.27400 0.55530 0.90800 -0.49100
O 	O 	0.72600 0.44470 0.09200 -0.49100
O 	O 	0.63570 0.08720 0.88330 -0.31400
O 	O 	0.32430 0.50060 0.68440 -0.44400
O 	O 	0.53920 0.15170 0.38050 -0.27000
O 	O 	0.47550 0.33300 0.23190 -0.54900
O 	O 	0.39570 0.94060 0.35430 -0.29500
O 	O 	0.99320 0.89630 0.79270 -0.39400
O 	O 	0.89570 0.44060 0.14570 -0.29500
