data_crystal

_cell_length_a 10.92300
_cell_length_b 19.75800
_cell_length_c 22.77100
_cell_angle_alpha 90.00000
_cell_angle_beta  90.00000
_cell_angle_gamma 99.64000

_symmetry_space_group_name_	'P 1'
_symmetry_space_group_name_H-M	'P 1'

loop_
_symmetry_equiv_pos_as_xyz
  x,y,z

loop_
_atom_site_label
_atom_site_type_symbol
_atom_site_fract_x
_atom_site_fract_y
_atom_site_fract_z
_atom_site_charge
Sm	Sm	0.85334 0.14734 0.14644 1.36400
Sm	Sm	0.45921 0.59991 0.85312 1.65900
Sm	Sm	0.95921 0.09991 0.64688 1.65300
Sm	Sm	0.04079 0.90009 0.35312 1.65300
Sm	Sm	0.35334 0.64734 0.35356 1.36900
Sm	Sm	0.14666 0.85266 0.85356 1.36500
Sm	Sm	0.64666 0.35266 0.64644 1.37000
Sm	Sm	0.54079 0.40009 0.14687 1.66000
Cu	Cu	0.69515 0.34662 0.82279 0.89600
Cu	Cu	0.19515 0.84662 0.67721 0.89600
Cu	Cu	0.30485 0.65338 0.17721 0.89600
Cu	Cu	0.80485 0.15338 0.32279 0.89600
Cu	Cu	0.59079 0.39974 0.32396 0.88100
Cu	Cu	0.09079 0.89974 0.17604 0.88000
Cu	Cu	0.40921 0.60026 0.67604 0.88100
Cu	Cu	0.90921 0.10026 0.82396 0.88000
H 	H 	0.41820 0.04560 0.58170 0.05900
H 	H 	0.72770 0.75660 0.79620 0.03200
H 	H 	0.12050 0.44220 0.80450 0.05000
H 	H 	0.27230 0.24340 0.20380 0.03200
H 	H 	0.01990 0.49380 0.30550 0.01900
H 	H 	0.11160 0.30880 0.19920 0.03900
H 	H 	0.88840 0.69120 0.80080 0.03900
H 	H 	0.62050 0.94220 0.69550 0.04900
H 	H 	0.58180 0.95440 0.41830 0.05900
H 	H 	0.38840 0.19120 0.69920 0.03900
H 	H 	0.08180 0.45440 0.08170 0.05900
H 	H 	0.98010 0.50620 0.69450 0.01900
H 	H 	0.22770 0.25660 0.70380 0.03200
H 	H 	0.87950 0.55780 0.19550 0.05000
H 	H 	0.77230 0.74340 0.29620 0.03200
H 	H 	0.37950 0.05780 0.30450 0.04900
H 	H 	0.91820 0.54560 0.91830 0.05900
H 	H 	0.48010 0.00620 0.80550 0.02000
H 	H 	0.61160 0.80880 0.30080 0.03900
H 	H 	0.51990 0.99380 0.19450 0.02000
C 	C 	0.03450 0.60770 0.70900 -0.05800
C 	C 	0.99340 0.33640 0.25910 -0.07500
C 	C 	0.82920 0.59000 0.78500 -0.03100
C 	C 	0.45400 0.83480 0.67310 0.32700
C 	C 	0.65840 0.05710 0.59460 0.36300
C 	C 	0.67080 0.91000 0.28500 -0.03100
C 	C 	0.59430 0.84580 0.27890 -0.00400
C 	C 	0.71100 0.03690 0.26110 0.40600
C 	C 	0.78900 0.46310 0.76110 0.41000
C 	C 	0.03900 0.45670 0.28440 0.01700
C 	C 	0.49340 0.83640 0.24090 -0.07400
C 	C 	0.35710 0.09530 0.28510 -0.00100
C 	C 	0.96380 0.78750 0.22940 0.39300
C 	C 	0.96100 0.54330 0.71560 0.01700
C 	C 	0.57510 0.23490 0.76910 0.38100
C 	C 	0.53900 0.95670 0.21560 0.01500
C 	C 	0.00660 0.66360 0.74090 -0.07500
C 	C 	0.31580 0.48600 0.73970 0.42200
C 	C 	0.28900 0.96310 0.73890 0.40600
C 	C 	0.40570 0.15420 0.72110 -0.00400
C 	C 	0.54920 0.97280 0.45120 -0.00400
C 	C 	0.57120 0.84000 0.70780 -0.04400
C 	C 	0.14120 0.46610 0.24660 -0.09500
C 	C 	0.57870 0.02660 0.54580 -0.07500
C 	C 	0.39620 0.21640 0.26200 -0.09800
C 	C 	0.84160 0.44290 0.09460 0.36300
C 	C 	0.74730 0.91390 0.75060 -0.08600
C 	C 	0.90060 0.86260 0.81270 0.30500
C 	C 	0.07510 0.73490 0.73090 0.38000
C 	C 	0.92130 0.47340 0.04580 -0.07500
C 	C 	0.07120 0.34000 0.79220 -0.04100
C 	C 	0.34160 0.94290 0.40540 0.36300
C 	C 	0.77990 0.85800 0.78050 -0.05000
C 	C 	0.18420 0.01400 0.23970 0.42600
C 	C 	0.20840 0.08510 0.68230 0.30900
C 	C 	0.09940 0.13740 0.18730 0.30500
C 	C 	0.90570 0.65420 0.77890 -0.00300
C 	C 	0.79160 0.91490 0.31770 0.30900
C 	C 	0.45080 0.02720 0.54880 -0.00400
C 	C 	0.92490 0.26510 0.26910 0.38000
C 	C 	0.35880 0.03390 0.74660 -0.09200
C 	C 	0.59940 0.63740 0.31270 0.30600
C 	C 	0.95400 0.33480 0.82690 0.32500
C 	C 	0.70730 0.79340 0.77500 -0.00300
C 	C 	0.50660 0.16360 0.75910 -0.07400
C 	C 	0.26270 0.49260 0.01010 0.29000
C 	C 	0.37320 0.00140 0.50420 -0.02700
C 	C 	0.95080 0.52720 0.95120 -0.00400
C 	C 	0.12680 0.49860 0.00420 -0.02700
C 	C 	0.75270 0.58610 0.25060 -0.08400
C 	C 	0.25270 0.08610 0.24940 -0.08600
C 	C 	0.23730 0.00740 0.51010 0.29300
C 	C 	0.29270 0.20660 0.22500 -0.00300
C 	C 	0.07870 0.52660 0.95420 -0.07500
C 	C 	0.14770 0.61110 0.67030 0.34500
C 	C 	0.29160 0.41490 0.18230 0.30900
C 	C 	0.21100 0.53690 0.23890 0.41000
C 	C 	0.35230 0.88890 0.17030 0.34500
C 	C 	0.79270 0.70660 0.27500 -0.00200
C 	C 	0.72010 0.64200 0.28050 -0.05100
C 	C 	0.73730 0.50740 0.98990 0.29000
C 	C 	0.42880 0.16000 0.29220 -0.04400
C 	C 	0.85710 0.59530 0.21490 -0.00300
C 	C 	0.15840 0.55710 0.90540 0.36300
C 	C 	0.04920 0.47280 0.04880 -0.00400
C 	C 	0.53620 0.71250 0.72940 0.39000
C 	C 	0.81580 0.98600 0.76030 0.42600
C 	C 	0.68420 0.51400 0.26030 0.42200
C 	C 	0.22010 0.14200 0.21950 -0.05000
C 	C 	0.70840 0.58510 0.81770 0.30900
C 	C 	0.64120 0.96610 0.25340 -0.09200
C 	C 	0.40060 0.36260 0.68730 0.30600
C 	C 	0.96550 0.39230 0.29100 -0.05800
C 	C 	0.04600 0.66520 0.17310 0.32500
C 	C 	0.24730 0.41390 0.74940 -0.08400
C 	C 	0.64290 0.90470 0.71490 -0.00100
C 	C 	0.14290 0.40470 0.78510 -0.00300
C 	C 	0.76270 0.99260 0.48990 0.29300
C 	C 	0.54600 0.16520 0.32690 0.32700
C 	C 	0.46380 0.28750 0.27060 0.39000
C 	C 	0.60380 0.78360 0.73800 -0.09800
C 	C 	0.85230 0.38890 0.32970 0.34500
C 	C 	0.42130 0.97340 0.45420 -0.07500
C 	C 	0.87320 0.50140 0.99580 -0.02700
C 	C 	0.46100 0.04330 0.78440 0.01500
C 	C 	0.89620 0.71640 0.23800 -0.10000
C 	C 	0.27990 0.35800 0.71950 -0.05100
C 	C 	0.85880 0.53390 0.75340 -0.09500
C 	C 	0.03620 0.21250 0.77060 0.39300
C 	C 	0.64770 0.11110 0.82970 0.34500
C 	C 	0.92880 0.66000 0.20780 -0.04100
C 	C 	0.20730 0.29340 0.72500 -0.00200
C 	C 	0.62680 0.99860 0.49580 -0.02700
C 	C 	0.53450 0.10770 0.79100 -0.05700
C 	C 	0.10380 0.28360 0.76200 -0.10000
C 	C 	0.09430 0.34580 0.22110 -0.00300
C 	C 	0.42490 0.76510 0.23090 0.38100
C 	C 	0.46550 0.89230 0.20900 -0.05700
C 	C 	0.32920 0.09000 0.71500 -0.03100
C 	C 	0.17080 0.41000 0.21500 -0.03100
O 	O 	0.41240 0.72390 0.27340 -0.48200
O 	O 	0.00670 0.80370 0.17840 -0.42100
O 	O 	0.89250 0.42090 0.13770 -0.30000
O 	O 	0.72460 0.43830 0.09030 -0.47100
O 	O 	0.20140 0.05950 0.48780 -0.25600
O 	O 	0.22790 0.55780 0.18650 -0.40800
O 	O 	0.52900 0.67120 0.77150 -0.52100
O 	O 	0.77540 0.06170 0.59030 -0.47000
O 	O 	0.16850 0.96200 0.53950 -0.28000
O 	O 	0.91120 0.82660 0.85690 -0.40600
O 	O 	0.53850 0.15190 0.38050 -0.26800
O 	O 	0.25040 0.63170 0.69470 -0.38800
O 	O 	0.49450 0.40130 0.70910 -0.38400
O 	O 	0.03850 0.65190 0.11950 -0.26700
O 	O 	0.30100 0.37960 0.13740 -0.39300
O 	O 	0.50670 0.30370 0.32160 -0.41800
O 	O 	0.99450 0.90130 0.79090 -0.38200
O 	O 	0.64510 0.18030 0.29830 -0.38500
O 	O 	0.39250 0.92090 0.36230 -0.30000
O 	O 	0.75910 0.42690 0.71660 -0.49900
O 	O 	0.35090 0.52230 0.78320 -0.49300
O 	O 	0.02900 0.17120 0.72850 -0.51900
O 	O 	0.19900 0.12040 0.63740 -0.39200
O 	O 	0.97100 0.82880 0.27150 -0.51900
O 	O 	0.00550 0.09870 0.20910 -0.38200
O 	O 	0.58880 0.67340 0.35690 -0.40800
O 	O 	0.61490 0.54740 0.79550 -0.39300
O 	O 	0.17250 0.99500 0.18720 -0.44500
O 	O 	0.88790 0.24950 0.32030 -0.41500
O 	O 	0.72790 0.05780 0.31350 -0.40800
O 	O 	0.75040 0.13170 0.80530 -0.38800
O 	O 	0.29860 0.44050 0.98780 -0.25600
O 	O 	0.35490 0.81970 0.70170 -0.38500
O 	O 	0.13470 0.59110 0.61910 -0.31200
O 	O 	0.33150 0.53800 0.03950 -0.27700
O 	O 	0.10750 0.57910 0.86230 -0.30000
O 	O 	0.63470 0.09110 0.88090 -0.31100
O 	O 	0.83150 0.03800 0.46050 -0.28000
O 	O 	0.32750 0.50500 0.68720 -0.44300
O 	O 	0.69900 0.62040 0.86260 -0.39300
O 	O 	0.99330 0.19630 0.82160 -0.42100
O 	O 	0.08880 0.17340 0.14310 -0.40600
O 	O 	0.41120 0.32660 0.64310 -0.40800
O 	O 	0.50550 0.59870 0.29090 -0.38400
O 	O 	0.25910 0.92690 0.78340 -0.49900
O 	O 	0.14910 0.97770 0.28320 -0.49400
O 	O 	0.88510 0.95260 0.29550 -0.39000
O 	O 	0.67250 0.49500 0.31280 -0.44300
O 	O 	0.64910 0.47770 0.21680 -0.49200
O 	O 	0.14510 0.68030 0.20170 -0.38500
O 	O 	0.24960 0.86830 0.19470 -0.38800
O 	O 	0.24090 0.57310 0.28340 -0.49900
O 	O 	0.38790 0.74950 0.17970 -0.41400
O 	O 	0.60750 0.07910 0.63770 -0.30000
O 	O 	0.77210 0.44220 0.81350 -0.40800
O 	O 	0.66850 0.46200 0.96050 -0.27700
O 	O 	0.11210 0.75050 0.67970 -0.41500
O 	O 	0.08760 0.77610 0.77340 -0.48200
O 	O 	0.36530 0.90890 0.11910 -0.31100
O 	O 	0.74960 0.36830 0.30530 -0.38800
O 	O 	0.27540 0.56170 0.90970 -0.47100
O 	O 	0.22460 0.93830 0.40970 -0.47000
O 	O 	0.70140 0.55950 0.01220 -0.25600
O 	O 	0.38510 0.45260 0.20450 -0.39300
O 	O 	0.49330 0.69630 0.67840 -0.41800
O 	O 	0.11490 0.04740 0.70450 -0.39000
O 	O 	0.82750 0.00500 0.81280 -0.44500
O 	O 	0.27210 0.94220 0.68650 -0.40800
O 	O 	0.91240 0.22390 0.22660 -0.48200
O 	O 	0.58760 0.27610 0.72660 -0.48200
O 	O 	0.85090 0.02230 0.71680 -0.49400
O 	O 	0.96150 0.34810 0.88050 -0.26700
O 	O 	0.85490 0.31970 0.79830 -0.38500
O 	O 	0.47100 0.32880 0.22850 -0.52100
O 	O 	0.80100 0.87960 0.36260 -0.39200
O 	O 	0.79860 0.94050 0.51220 -0.25600
O 	O 	0.61210 0.25050 0.82030 -0.41400
O 	O 	0.86530 0.40890 0.38090 -0.31200
O 	O 	0.74090 0.07310 0.21660 -0.49900
O 	O 	0.46150 0.84810 0.61950 -0.26800
