data_crystal

_cell_length_a 10.89900
_cell_length_b 19.78500
_cell_length_c 20.33400
_cell_angle_alpha 90.00000
_cell_angle_beta  90.00000
_cell_angle_gamma 99.48000

_symmetry_space_group_name_	'P 1'
_symmetry_space_group_name_H-M	'P 1'

loop_
_symmetry_equiv_pos_as_xyz
  x,y,z

loop_
_atom_site_label
_atom_site_type_symbol
_atom_site_fract_x
_atom_site_fract_y
_atom_site_fract_z
_atom_site_charge
Sm	Sm	0.54045 0.34613 0.12926 1.66400
Sm	Sm	0.04045 0.84613 0.37074 1.65700
Sm	Sm	0.84290 0.08190 0.12759 1.34700
Sm	Sm	0.65710 0.41810 0.62759 1.35100
Sm	Sm	0.45955 0.65387 0.87074 1.66500
Sm	Sm	0.15710 0.91810 0.87241 1.34700
Sm	Sm	0.95955 0.15387 0.62926 1.65800
Sm	Sm	0.34290 0.58190 0.37241 1.35100
Cu	Cu	0.70094 0.40976 0.82674 0.92000
Cu	Cu	0.91780 0.16843 0.82669 0.88300
Cu	Cu	0.79906 0.09024 0.32674 0.92000
Cu	Cu	0.41780 0.66843 0.67331 0.88300
Cu	Cu	0.29906 0.59024 0.17326 0.92000
Cu	Cu	0.20094 0.90976 0.67326 0.92000
Cu	Cu	0.58220 0.33157 0.32669 0.88300
Cu	Cu	0.08220 0.83157 0.17331 0.88300
H 	H 	0.38940 0.25250 0.68750 0.04100
H 	H 	0.08250 0.43680 0.07860 0.06000
H 	H 	0.22970 0.32500 0.68100 0.02900
H 	H 	0.37170 0.99650 0.30520 0.04400
H 	H 	0.01440 0.42720 0.31260 0.01900
H 	H 	0.88940 0.75250 0.81250 0.04000
H 	H 	0.12830 0.50350 0.80520 0.04500
H 	H 	0.11060 0.24750 0.18750 0.04000
H 	H 	0.51440 0.92720 0.18740 0.01900
H 	H 	0.77030 0.67500 0.31900 0.02900
H 	H 	0.87170 0.49650 0.19480 0.04500
H 	H 	0.58250 0.93680 0.42140 0.06000
H 	H 	0.98560 0.57280 0.68740 0.01900
H 	H 	0.48560 0.07280 0.81260 0.01900
H 	H 	0.62830 0.00350 0.69480 0.04400
H 	H 	0.91750 0.56320 0.92140 0.06000
H 	H 	0.61060 0.74750 0.31250 0.04100
H 	H 	0.72970 0.82500 0.81900 0.02900
H 	H 	0.41750 0.06320 0.57860 0.06000
H 	H 	0.27030 0.17500 0.18100 0.02900
C 	C 	0.15630 0.67760 0.66620 0.34100
C 	C 	0.79360 0.52570 0.75980 0.41200
C 	C 	0.62730 0.01200 0.48680 -0.03000
C 	C 	0.04930 0.46240 0.04680 0.00600
C 	C 	0.00970 0.72760 0.74440 -0.07300
C 	C 	0.73670 0.47620 0.96920 0.31600
C 	C 	0.40760 0.21670 0.71340 -0.00500
C 	C 	0.86280 0.59840 0.75340 -0.09000
C 	C 	0.84370 0.32240 0.33380 0.34100
C 	C 	0.21500 0.07610 0.20370 -0.05600
C 	C 	0.53420 0.89110 0.21230 0.01000
C 	C 	0.34120 0.89650 0.42400 0.37400
C 	C 	0.96060 0.32700 0.29180 -0.05600
C 	C 	0.14930 0.46750 0.78070 -0.00500
C 	C 	0.89060 0.65120 0.25100 -0.10900
C 	C 	0.46580 0.10890 0.78770 0.01000
C 	C 	0.10940 0.34880 0.74900 -0.10900
C 	C 	0.85070 0.53250 0.21930 -0.00500
C 	C 	0.40850 0.42940 0.66910 0.30400
C 	C 	0.71070 0.64550 0.82720 0.32100
C 	C 	0.37270 0.98800 0.51320 -0.03000
C 	C 	0.65880 0.10350 0.57600 0.37400
C 	C 	0.99030 0.27240 0.25560 -0.07300
C 	C 	0.42260 0.09660 0.28510 -0.03600
C 	C 	0.65630 0.17760 0.83380 0.34100
C 	C 	0.75320 0.97880 0.76040 -0.08300
C 	C 	0.78500 0.92390 0.79630 -0.05600
C 	C 	0.21070 0.14550 0.67280 0.32000
C 	C 	0.71110 0.86050 0.79280 0.00600
C 	C 	0.34370 0.82240 0.16620 0.34100
C 	C 	0.74680 0.52120 0.26040 -0.08500
C 	C 	0.26330 0.52380 0.03080 0.31600
C 	C 	0.63720 0.90160 0.25340 -0.09000
C 	C 	0.33250 0.15270 0.70970 -0.03400
C 	C 	0.66750 0.84730 0.29030 -0.03400
C 	C 	0.96270 0.39340 0.82850 0.32200
C 	C 	0.59150 0.57060 0.33090 0.30400
C 	C 	0.20640 0.47430 0.24020 0.41200
C 	C 	0.83250 0.65270 0.79030 -0.03500
C 	C 	0.90760 0.71670 0.78660 -0.00200
C 	C 	0.92040 0.20050 0.26470 0.37500
C 	C 	0.45070 0.03760 0.54680 0.00700
C 	C 	0.70640 0.97430 0.25980 0.41500
C 	C 	0.42040 0.70050 0.23530 0.37500
C 	C 	0.29360 0.02570 0.74020 0.41500
C 	C 	0.09150 0.07060 0.16910 0.30900
C 	C 	0.57710 0.05070 0.53500 -0.05800
C 	C 	0.07710 0.55070 0.96500 -0.05800
C 	C 	0.78930 0.85450 0.32720 0.32000
C 	C 	0.35070 0.03250 0.28070 -0.00400
C 	C 	0.17680 0.95000 0.23320 0.40700
C 	C 	0.28930 0.35450 0.17280 0.32100
C 	C 	0.95070 0.53760 0.95320 0.00600
C 	C 	0.95790 0.72290 0.24210 0.41600
C 	C 	0.84120 0.39650 0.07600 0.37400
C 	C 	0.46060 0.82700 0.20820 -0.05600
C 	C 	0.87270 0.48800 0.98680 -0.03000
C 	C 	0.59240 0.78330 0.28660 -0.00500
C 	C 	0.53730 0.10660 0.32850 0.32300
C 	C 	0.54210 0.77710 0.74210 0.41400
C 	C 	0.12730 0.51200 0.01320 -0.03000
C 	C 	0.78890 0.63950 0.29280 0.00500
C 	C 	0.23670 0.97620 0.53080 0.31200
C 	C 	0.07740 0.40340 0.78510 -0.03400
C 	C 	0.13720 0.40160 0.24660 -0.09000
C 	C 	0.82320 0.05000 0.76680 0.40700
C 	C 	0.16750 0.34730 0.20970 -0.03500
C 	C 	0.54930 0.96240 0.45320 0.00700
C 	C 	0.46270 0.89340 0.67150 0.32300
C 	C 	0.76330 0.02380 0.46920 0.31200
C 	C 	0.60940 0.84880 0.75100 -0.10800
C 	C 	0.03420 0.39110 0.28770 0.01100
C 	C 	0.71500 0.57610 0.29630 -0.05400
C 	C 	0.21110 0.36050 0.70720 0.00500
C 	C 	0.42290 0.94930 0.46500 -0.05800
C 	C 	0.90850 0.92940 0.83090 0.30900
C 	C 	0.36280 0.09840 0.74660 -0.09000
C 	C 	0.15880 0.60350 0.92400 0.37400
C 	C 	0.09240 0.28330 0.21340 -0.00200
C 	C 	0.28500 0.42390 0.70370 -0.05400
C 	C 	0.92290 0.44930 0.03500 -0.05800
C 	C 	0.67680 0.45000 0.26680 0.40900
C 	C 	0.24680 0.02120 0.23960 -0.08300
C 	C 	0.53940 0.17300 0.79180 -0.05600
C 	C 	0.28890 0.13950 0.20720 0.00600
C 	C 	0.96580 0.60890 0.71230 0.01100
C 	C 	0.49030 0.77240 0.24440 -0.07000
C 	C 	0.57740 0.90340 0.71490 -0.03600
C 	C 	0.32320 0.55000 0.73320 0.40900
C 	C 	0.39060 0.15120 0.24900 -0.10800
C 	C 	0.04210 0.27710 0.75790 0.41600
C 	C 	0.25320 0.47880 0.73960 -0.08500
C 	C 	0.07960 0.79950 0.73530 0.37500
C 	C 	0.45790 0.22290 0.25790 0.41400
C 	C 	0.64930 0.96750 0.71930 -0.00400
C 	C 	0.03940 0.67300 0.70820 -0.05600
C 	C 	0.50970 0.22760 0.75560 -0.07000
C 	C 	0.57960 0.29950 0.76470 0.37500
C 	C 	0.92260 0.59660 0.21490 -0.03400
C 	C 	0.03730 0.60660 0.17150 0.32200
O 	O 	0.62110 0.31460 0.82180 -0.40300
O 	O 	0.25760 0.69580 0.69720 -0.38600
O 	O 	0.00090 0.73740 0.18530 -0.43100
O 	O 	0.10730 0.64470 0.89140 -0.30500
O 	O 	0.96520 0.76380 0.28840 -0.52500
O 	O 	0.19220 0.92380 0.56400 -0.34300
O 	O 	0.88250 0.88960 0.30040 -0.39700
O 	O 	0.00140 0.96730 0.80550 -0.38800
O 	O 	0.61750 0.61040 0.80040 -0.40000
O 	O 	0.99910 0.26260 0.81470 -0.43100
O 	O 	0.13930 0.61470 0.20400 -0.37500
O 	O 	0.86070 0.38530 0.79600 -0.37500
O 	O 	0.60730 0.14470 0.60860 -0.30500
O 	O 	0.77430 0.50540 0.81730 -0.41300
O 	O 	0.20070 0.17620 0.61980 -0.39400
O 	O 	0.80780 0.07620 0.43600 -0.34300
O 	O 	0.91210 0.16010 0.21760 -0.47000
O 	O 	0.22570 0.49460 0.18270 -0.41300
O 	O 	0.50140 0.46730 0.69450 -0.38400
O 	O 	0.97290 0.39680 0.88840 -0.25500
O 	O 	0.37890 0.68540 0.17820 -0.40300
O 	O 	0.72570 0.99460 0.31730 -0.41300
O 	O 	0.87890 0.18540 0.32180 -0.40300
O 	O 	0.70070 0.67620 0.88020 -0.39500
O 	O 	0.46520 0.26380 0.21160 -0.52600
O 	O 	0.64330 0.41580 0.21650 -0.48600
O 	O 	0.82330 0.97850 0.48840 -0.26500
O 	O 	0.17670 0.02150 0.51160 -0.26500
O 	O 	0.52710 0.10320 0.38840 -0.25500
O 	O 	0.22640 0.89640 0.42440 -0.47700
O 	O 	0.58790 0.33990 0.71760 -0.47000
O 	O 	0.14330 0.91580 0.28350 -0.48500
O 	O 	0.08790 0.83990 0.78240 -0.47000
O 	O 	0.07910 0.10650 0.11930 -0.41300
O 	O 	0.50090 0.23740 0.31470 -0.42800
O 	O 	0.92090 0.89350 0.88070 -0.41300
O 	O 	0.76680 0.49130 0.70850 -0.49500
O 	O 	0.29930 0.32380 0.11980 -0.39500
O 	O 	0.64760 0.15870 0.89150 -0.32400
O 	O 	0.85670 0.08420 0.71650 -0.48500
O 	O 	0.14760 0.65870 0.60850 -0.32400
O 	O 	0.36070 0.88530 0.70400 -0.37500
O 	O 	0.27360 0.60360 0.92440 -0.47700
O 	O 	0.74240 0.30420 0.30280 -0.38600
O 	O 	0.23320 0.50870 0.29150 -0.49500
O 	O 	0.57910 0.60650 0.38070 -0.41400
O 	O 	0.39270 0.85530 0.39140 -0.30500
O 	O 	0.66090 0.42760 0.32520 -0.44100
O 	O 	0.75760 0.19580 0.80280 -0.38600
O 	O 	0.49860 0.53270 0.30550 -0.38400
O 	O 	0.53480 0.73620 0.78840 -0.52600
O 	O 	0.69220 0.42380 0.93600 -0.34300
O 	O 	0.16090 0.92760 0.17480 -0.44200
O 	O 	0.72640 0.39640 0.07560 -0.47700
O 	O 	0.02710 0.60320 0.11160 -0.25500
O 	O 	0.35240 0.84130 0.10850 -0.32400
O 	O 	0.24240 0.80420 0.19720 -0.38600
O 	O 	0.33910 0.57240 0.67480 -0.44100
O 	O 	0.27430 0.00540 0.68270 -0.41300
O 	O 	0.42090 0.39350 0.61930 -0.41400
O 	O 	0.83910 0.07240 0.82520 -0.44200
O 	O 	0.03480 0.23620 0.71160 -0.52500
O 	O 	0.79930 0.82380 0.38020 -0.39400
O 	O 	0.67670 0.52150 0.98840 -0.26800
O 	O 	0.30780 0.57620 0.06400 -0.34300
O 	O 	0.11750 0.11040 0.69960 -0.39700
O 	O 	0.35670 0.58420 0.78350 -0.48600
O 	O 	0.73320 0.00870 0.20850 -0.49700
O 	O 	0.63930 0.11470 0.29600 -0.37500
O 	O 	0.12110 0.81460 0.67820 -0.40300
O 	O 	0.77360 0.10360 0.57560 -0.47700
O 	O 	0.47290 0.89680 0.61160 -0.25500
O 	O 	0.99860 0.03270 0.19450 -0.38800
O 	O 	0.38250 0.38960 0.19960 -0.40000
O 	O 	0.49910 0.76260 0.68530 -0.42800
O 	O 	0.32330 0.47850 0.01160 -0.26800
O 	O 	0.26680 0.99130 0.79150 -0.49700
O 	O 	0.89270 0.35530 0.10860 -0.30500
O 	O 	0.41210 0.66010 0.28240 -0.47000
O 	O 	0.85240 0.34130 0.39150 -0.32400
