data_crystal

_cell_length_a 10.92700
_cell_length_b 19.80700
_cell_length_c 20.39100
_cell_angle_alpha 90.00000
_cell_angle_beta  90.00000
_cell_angle_gamma 99.61000

_symmetry_space_group_name_	'P 1'
_symmetry_space_group_name_H-M	'P 1'

loop_
_symmetry_equiv_pos_as_xyz
  x,y,z

loop_
_atom_site_label
_atom_site_type_symbol
_atom_site_fract_x
_atom_site_fract_y
_atom_site_fract_z
_atom_site_charge
Nd	Nd	0.34111 0.58197 0.37302 1.44000
Nd	Nd	0.03743 0.84552 0.37212 1.76800
Nd	Nd	0.65889 0.41803 0.62698 1.44000
Nd	Nd	0.53743 0.34552 0.12788 1.77900
Nd	Nd	0.46257 0.65448 0.87212 1.77900
Nd	Nd	0.84111 0.08197 0.12698 1.43600
Nd	Nd	0.15889 0.91803 0.87302 1.43600
Nd	Nd	0.96257 0.15448 0.62788 1.76800
Cu	Cu	0.41986 0.66849 0.67391 0.88200
Cu	Cu	0.58014 0.33151 0.32609 0.88200
Cu	Cu	0.08014 0.83151 0.17391 0.88100
Cu	Cu	0.29529 0.58979 0.17337 0.92000
Cu	Cu	0.70471 0.41021 0.82663 0.91900
Cu	Cu	0.20471 0.91021 0.67337 0.91800
Cu	Cu	0.79529 0.08979 0.32663 0.91800
Cu	Cu	0.91986 0.16849 0.82609 0.88000
H 	H 	0.48690 0.07300 0.81300 0.01100
H 	H 	0.76830 0.67620 0.31750 0.02600
H 	H 	0.10560 0.24760 0.18760 0.03700
H 	H 	0.01310 0.42700 0.31300 0.01100
H 	H 	0.51310 0.92700 0.18700 0.01100
H 	H 	0.86960 0.49570 0.19680 0.04300
H 	H 	0.36960 0.99570 0.30320 0.04100
H 	H 	0.91720 0.56290 0.92160 0.06000
H 	H 	0.41720 0.06290 0.57840 0.06000
H 	H 	0.26830 0.17620 0.18250 0.02500
H 	H 	0.89440 0.75240 0.81240 0.03700
H 	H 	0.23170 0.32380 0.68250 0.02600
H 	H 	0.58280 0.93710 0.42160 0.06000
H 	H 	0.39440 0.25240 0.68760 0.03700
H 	H 	0.63040 0.00430 0.69680 0.04100
H 	H 	0.98690 0.57300 0.68700 0.01100
H 	H 	0.73170 0.82380 0.81750 0.02500
H 	H 	0.60560 0.74760 0.31240 0.03700
H 	H 	0.13040 0.50430 0.80320 0.04300
H 	H 	0.08280 0.43710 0.07840 0.06000
C 	C 	0.91780 0.20060 0.26510 0.37700
C 	C 	0.90930 0.92950 0.83130 0.31600
C 	C 	0.71140 0.57610 0.29640 -0.06400
C 	C 	0.36570 0.09920 0.74710 -0.10000
C 	C 	0.46870 0.10950 0.78820 0.02200
C 	C 	0.24510 0.02240 0.24070 -0.07800
C 	C 	0.29770 0.02730 0.74060 0.41000
C 	C 	0.26170 0.52450 0.03190 0.31200
C 	C 	0.16460 0.34690 0.21090 -0.03200
C 	C 	0.21140 0.07610 0.20360 -0.06600
C 	C 	0.66000 0.10420 0.57490 0.37000
C 	C 	0.03130 0.39050 0.28820 0.02200
C 	C 	0.78860 0.92390 0.79640 -0.06600
C 	C 	0.96530 0.39450 0.82790 0.31900
C 	C 	0.21510 0.14630 0.67210 0.31900
C 	C 	0.07860 0.40330 0.78610 -0.03900
C 	C 	0.58220 0.29940 0.76510 0.37600
C 	C 	0.16020 0.67730 0.66770 0.35200
C 	C 	0.01280 0.72890 0.74390 -0.07800
C 	C 	0.51280 0.22890 0.75610 -0.07500
C 	C 	0.87340 0.48690 0.98640 -0.03100
C 	C 	0.46530 0.89450 0.67210 0.32200
C 	C 	0.86570 0.59920 0.75290 -0.09900
C 	C 	0.70230 0.97270 0.25940 0.41000
C 	C 	0.95670 0.72150 0.24150 0.40600
C 	C 	0.32590 0.55050 0.73280 0.42000
C 	C 	0.54950 0.96280 0.45300 0.00300
C 	C 	0.65180 0.96750 0.71990 -0.00300
C 	C 	0.62660 0.01310 0.48640 -0.03000
C 	C 	0.04480 0.67260 0.70680 -0.07200
C 	C 	0.48720 0.77110 0.24390 -0.07500
C 	C 	0.08820 0.28300 0.21420 -0.00100
C 	C 	0.11110 0.34930 0.74960 -0.11100
C 	C 	0.41180 0.21700 0.71420 -0.00500
C 	C 	0.63430 0.90080 0.25290 -0.10000
C 	C 	0.75490 0.97760 0.75930 -0.07800
C 	C 	0.08220 0.79940 0.73490 0.37700
C 	C 	0.33540 0.15310 0.71090 -0.03000
C 	C 	0.98720 0.27110 0.25610 -0.07800
C 	C 	0.04330 0.27850 0.75850 0.40600
C 	C 	0.28670 0.14020 0.20790 0.00900
C 	C 	0.53130 0.89050 0.21180 0.02200
C 	C 	0.04950 0.46280 0.04700 0.00100
C 	C 	0.95520 0.32740 0.29320 -0.07200
C 	C 	0.92140 0.59670 0.21390 -0.03900
C 	C 	0.53470 0.10550 0.32790 0.32200
C 	C 	0.20230 0.47270 0.24060 0.40700
C 	C 	0.45050 0.03720 0.54700 0.00300
C 	C 	0.61110 0.84930 0.75040 -0.11100
C 	C 	0.33980 0.82270 0.16770 0.35200
C 	C 	0.71510 0.64630 0.82790 0.32000
C 	C 	0.79770 0.52730 0.75940 0.40700
C 	C 	0.25490 0.47760 0.74070 -0.08100
C 	C 	0.42150 0.94950 0.46540 -0.05600
C 	C 	0.12660 0.51310 0.01360 -0.03100
C 	C 	0.78490 0.85370 0.32790 0.31900
C 	C 	0.15180 0.46750 0.78010 -0.00400
C 	C 	0.21330 0.35980 0.70790 0.00800
C 	C 	0.34000 0.89580 0.42510 0.37000
C 	C 	0.54330 0.77850 0.74150 0.40700
C 	C 	0.67410 0.44950 0.26720 0.42000
C 	C 	0.66020 0.17730 0.83230 0.35200
C 	C 	0.88890 0.65070 0.25040 -0.11100
C 	C 	0.42140 0.09670 0.28610 -0.04200
C 	C 	0.78670 0.64020 0.29210 0.00800
C 	C 	0.91180 0.71700 0.78580 -0.00100
C 	C 	0.13430 0.40080 0.24710 -0.09900
C 	C 	0.95050 0.53720 0.95300 0.00100
C 	C 	0.03470 0.60550 0.17210 0.31900
C 	C 	0.66460 0.84690 0.28910 -0.03000
C 	C 	0.28860 0.42390 0.70360 -0.06400
C 	C 	0.17410 0.94950 0.23280 0.41700
C 	C 	0.45670 0.22150 0.25850 0.40700
C 	C 	0.73830 0.47550 0.96810 0.31200
C 	C 	0.57860 0.90330 0.71390 -0.04200
C 	C 	0.37340 0.98690 0.51360 -0.03000
C 	C 	0.74510 0.52240 0.25930 -0.08100
C 	C 	0.82590 0.05050 0.76720 0.41700
C 	C 	0.38890 0.15070 0.24960 -0.11100
C 	C 	0.23830 0.97550 0.53190 0.30700
C 	C 	0.07850 0.55050 0.96540 -0.05400
C 	C 	0.34820 0.03250 0.28010 -0.00300
C 	C 	0.84820 0.53250 0.21990 -0.00400
C 	C 	0.96870 0.60950 0.71180 0.02200
C 	C 	0.84000 0.39580 0.07490 0.36900
C 	C 	0.28490 0.35370 0.17210 0.32000
C 	C 	0.41780 0.70060 0.23490 0.37600
C 	C 	0.54480 0.17260 0.79320 -0.07200
C 	C 	0.92150 0.44950 0.03460 -0.05400
C 	C 	0.71330 0.85980 0.79210 0.00900
C 	C 	0.83540 0.65310 0.78910 -0.03200
C 	C 	0.16000 0.60420 0.92510 0.36900
C 	C 	0.58820 0.78300 0.28580 -0.00500
C 	C 	0.57850 0.05050 0.53460 -0.05600
C 	C 	0.09070 0.07050 0.16870 0.31600
C 	C 	0.45520 0.82740 0.20680 -0.07200
C 	C 	0.40930 0.42950 0.66870 0.31000
C 	C 	0.76170 0.02450 0.46810 0.30700
C 	C 	0.59070 0.57050 0.33130 0.31000
C 	C 	0.83980 0.32270 0.33230 0.35200
O 	O 	0.24070 0.80380 0.19790 -0.39600
O 	O 	0.30790 0.57650 0.06480 -0.35000
O 	O 	0.90870 0.15920 0.21860 -0.48400
O 	O 	0.27410 0.60310 0.92490 -0.49400
O 	O 	0.75930 0.19620 0.80210 -0.39600
O 	O 	0.72140 0.99410 0.31760 -0.40600
O 	O 	0.84060 0.07310 0.82450 -0.45600
O 	O 	0.96330 0.76330 0.28810 -0.53300
O 	O 	0.34060 0.57310 0.67550 -0.45500
O 	O 	0.47320 0.89700 0.61250 -0.25800
O 	O 	0.74070 0.30380 0.30210 -0.39500
O 	O 	0.12210 0.11040 0.69900 -0.40500
O 	O 	0.62450 0.31450 0.82210 -0.40200
O 	O 	0.02680 0.60300 0.11250 -0.25800
O 	O 	0.37550 0.68550 0.17790 -0.40200
O 	O 	0.86020 0.08400 0.71680 -0.50100
O 	O 	0.73050 0.00790 0.20880 -0.50800
O 	O 	0.49700 0.53250 0.30580 -0.39700
O 	O 	0.37790 0.38960 0.19900 -0.40900
O 	O 	0.69210 0.42350 0.93520 -0.35000
O 	O 	0.27860 0.00590 0.68240 -0.40600
O 	O 	0.13760 0.61430 0.20480 -0.37700
O 	O 	0.15940 0.92690 0.17550 -0.45600
O 	O 	0.50100 0.76300 0.68490 -0.42800
O 	O 	0.77860 0.50590 0.81760 -0.40700
O 	O 	0.65070 0.15760 0.89060 -0.33100
O 	O 	0.99700 0.03250 0.19420 -0.40100
O 	O 	0.10770 0.64510 0.89170 -0.30800
O 	O 	0.87550 0.18550 0.32210 -0.40200
O 	O 	0.79340 0.82230 0.37980 -0.40900
O 	O 	0.50300 0.46750 0.69420 -0.39700
O 	O 	0.23050 0.50790 0.29120 -0.50500
O 	O 	0.17750 0.02090 0.51210 -0.26800
O 	O 	0.65940 0.42690 0.32450 -0.45500
O 	O 	0.63980 0.41600 0.21680 -0.50200
O 	O 	0.97320 0.39700 0.88750 -0.25800
O 	O 	0.26950 0.99210 0.79120 -0.50800
O 	O 	0.29340 0.32230 0.12020 -0.41100
O 	O 	0.12450 0.81450 0.67790 -0.40200
O 	O 	0.82250 0.97910 0.48790 -0.26800
O 	O 	0.03670 0.23670 0.71190 -0.53300
O 	O 	0.49900 0.23700 0.31510 -0.42800
O 	O 	0.32250 0.47910 0.01210 -0.27200
O 	O 	0.25930 0.69620 0.69790 -0.39500
O 	O 	0.42010 0.39380 0.61950 -0.43100
O 	O 	0.00100 0.26300 0.81510 -0.42500
O 	O 	0.09130 0.84080 0.78140 -0.48400
O 	O 	0.84930 0.34240 0.39060 -0.33100
O 	O 	0.13980 0.91600 0.28320 -0.50100
O 	O 	0.70660 0.67770 0.87980 -0.41100
O 	O 	0.62210 0.61040 0.80100 -0.40900
O 	O 	0.63760 0.11430 0.29520 -0.37700
O 	O 	0.59130 0.34080 0.71860 -0.48400
O 	O 	0.52680 0.10300 0.38750 -0.25800
O 	O 	0.40870 0.65920 0.28140 -0.48400
O 	O 	0.36020 0.58400 0.78320 -0.50200
O 	O 	0.77410 0.10310 0.57510 -0.49300
O 	O 	0.39230 0.85490 0.39170 -0.30800
O 	O 	0.20660 0.17770 0.62020 -0.40900
O 	O 	0.72590 0.39690 0.07510 -0.49400
O 	O 	0.80790 0.07650 0.43520 -0.34900
O 	O 	0.67750 0.52090 0.98790 -0.27200
O 	O 	0.22140 0.49410 0.18240 -0.40700
O 	O 	0.53670 0.73670 0.78810 -0.53600
O 	O 	0.00300 0.96750 0.80580 -0.40100
O 	O 	0.36240 0.88570 0.70480 -0.37700
O 	O 	0.60770 0.14510 0.60830 -0.30800
O 	O 	0.15070 0.65760 0.60940 -0.33100
O 	O 	0.76950 0.49210 0.70880 -0.50500
O 	O 	0.57990 0.60620 0.38050 -0.43100
O 	O 	0.92010 0.89380 0.88050 -0.43100
O 	O 	0.34930 0.84240 0.10940 -0.33100
O 	O 	0.99900 0.73700 0.18490 -0.42500
O 	O 	0.46330 0.26330 0.21190 -0.53600
O 	O 	0.07990 0.10620 0.11950 -0.43100
O 	O 	0.89230 0.35490 0.10830 -0.30800
O 	O 	0.19210 0.92350 0.56480 -0.34900
O 	O 	0.22590 0.89690 0.42490 -0.49300
O 	O 	0.87790 0.88960 0.30100 -0.40500
O 	O 	0.86240 0.38570 0.79520 -0.37700
