data_crystal

_cell_length_a 10.25110
_cell_length_b 13.84780
_cell_length_c 16.00220
_cell_angle_alpha 90.00000
_cell_angle_beta  95.64300
_cell_angle_gamma 90.00000

_symmetry_space_group_name_	'P 1'
_symmetry_space_group_name_H-M	'P 1'

loop_
_symmetry_equiv_pos_as_xyz
  x,y,z

loop_
_atom_site_label
_atom_site_type_symbol
_atom_site_fract_x
_atom_site_fract_y
_atom_site_fract_z
_atom_site_charge
Zn	Zn	0.87616 0.03214 0.04527 1.22000
Zn	Zn	0.01921 0.19762 0.93118 1.20300
C 	C 	0.61683 0.17629 0.85386 -0.12300
C 	C 	0.61498 0.24751 0.79254 0.05700
H 	H 	0.69500 0.27320 0.77690 0.04500
C 	C 	0.49608 0.28110 0.75414 -0.10000
C 	C 	0.37904 0.24346 0.77705 0.05900
H 	H 	0.29780 0.26640 0.75080 0.04500
C 	C 	0.38089 0.17224 0.83837 -0.12400
C 	C 	0.49979 0.13865 0.87677 0.06900
H 	H 	0.50110 0.09000 0.91870 0.04500
C 	C 	0.74494 0.14424 0.89927 0.39600
C 	C 	0.49863 0.35619 0.68508 0.32900
C 	C 	0.25572 0.13401 0.86689 0.38900
O 	O 	0.84786 0.17211 0.86948 -0.48900
O 	O 	0.73941 0.09259 0.96397 -0.46000
O 	O 	0.60716 0.38452 0.66720 -0.27800
O 	O 	0.38807 0.38505 0.65000 -0.41800
O 	O 	0.26184 0.05367 0.90390 -0.43400
O 	O 	0.15456 0.18539 0.85247 -0.48000
O 	O 	0.04976 0.08707 0.00551 -0.65100
I 	I 	0.01793 0.35376 0.01078 -0.29700
Zn	Zn	0.62384 0.53214 0.45473 1.22700
Zn	Zn	0.48079 0.69762 0.56882 1.20800
C 	C 	0.88317 0.67629 0.64614 -0.11600
C 	C 	0.88502 0.74751 0.70746 0.06600
H 	H 	0.80500 0.77320 0.72310 0.04400
C 	C 	0.00392 0.78110 0.74586 -0.10400
C 	C 	0.12096 0.74346 0.72295 0.05800
H 	H 	0.20220 0.76640 0.74920 0.04600
C 	C 	0.11911 0.67224 0.66163 -0.12000
C 	C 	0.00021 0.63865 0.62323 0.05500
H 	H 	0.99890 0.59000 0.58130 0.05200
C 	C 	0.75506 0.64424 0.60073 0.39500
C 	C 	0.00137 0.85619 0.81492 0.31500
C 	C 	0.24428 0.63401 0.63311 0.38700
O 	O 	0.65214 0.67211 0.63052 -0.49100
O 	O 	0.76059 0.59259 0.53603 -0.46200
O 	O 	0.89284 0.88452 0.83280 -0.26800
O 	O 	0.11193 0.88505 0.85000 -0.41900
O 	O 	0.23816 0.55367 0.59610 -0.43300
O 	O 	0.34544 0.68539 0.64753 -0.47700
O 	O 	0.45024 0.58707 0.49449 -0.66000
I 	I 	0.48207 0.85376 0.48922 -0.30900
Zn	Zn	0.12384 0.96786 0.95473 1.22100
Zn	Zn	0.98079 0.80238 0.06882 1.20400
C 	C 	0.38317 0.82371 0.14614 -0.12200
C 	C 	0.38502 0.75249 0.20746 0.05800
H 	H 	0.30500 0.72680 0.22310 0.04600
C 	C 	0.50392 0.71890 0.24586 -0.09900
C 	C 	0.62096 0.75654 0.22295 0.05900
H 	H 	0.70220 0.73360 0.24920 0.04500
C 	C 	0.61911 0.82776 0.16163 -0.12400
C 	C 	0.50021 0.86135 0.12323 0.06900
H 	H 	0.49890 0.91000 0.08130 0.04500
C 	C 	0.25506 0.85576 0.10073 0.39600
C 	C 	0.50137 0.64381 0.31492 0.32900
C 	C 	0.74428 0.86599 0.13311 0.38900
O 	O 	0.15214 0.82789 0.13052 -0.48900
O 	O 	0.26059 0.90741 0.03603 -0.46000
O 	O 	0.39284 0.61548 0.33280 -0.27800
O 	O 	0.61193 0.61495 0.35000 -0.41800
O 	O 	0.73816 0.94633 0.09610 -0.43400
O 	O 	0.84544 0.81461 0.14753 -0.48000
O 	O 	0.95024 0.91293 0.99449 -0.65100
I 	I 	0.98207 0.64624 0.98922 -0.29700
Zn	Zn	0.37616 0.46786 0.54527 1.22700
Zn	Zn	0.51921 0.30238 0.43118 1.20800
C 	C 	0.11683 0.32371 0.35386 -0.11600
C 	C 	0.11498 0.25249 0.29254 0.06600
H 	H 	0.19500 0.22680 0.27690 0.04400
C 	C 	0.99608 0.21890 0.25414 -0.10400
C 	C 	0.87904 0.25654 0.27705 0.05800
H 	H 	0.79780 0.23360 0.25080 0.04600
C 	C 	0.88089 0.32776 0.33837 -0.12000
C 	C 	0.99979 0.36135 0.37677 0.05500
H 	H 	0.00110 0.41000 0.41870 0.05200
C 	C 	0.24494 0.35576 0.39927 0.39500
C 	C 	0.99863 0.14381 0.18508 0.31500
C 	C 	0.75572 0.36599 0.36689 0.38700
O 	O 	0.34786 0.32789 0.36948 -0.49100
O 	O 	0.23941 0.40741 0.46397 -0.46200
O 	O 	0.10716 0.11548 0.16720 -0.26800
O 	O 	0.88807 0.11495 0.15000 -0.41900
O 	O 	0.76184 0.44633 0.40390 -0.43300
O 	O 	0.65456 0.31461 0.35247 -0.47700
O 	O 	0.54976 0.41293 0.50551 -0.66000
I 	I 	0.51793 0.14624 0.51078 -0.30900
