data_crystal

_cell_length_a 8.01650
_cell_length_b 12.53200
_cell_length_c 13.89200
_cell_angle_alpha 90.00000
_cell_angle_beta  96.64000
_cell_angle_gamma 90.00000

_symmetry_space_group_name_	'P 1'
_symmetry_space_group_name_H-M	'P 1'

loop_
_symmetry_equiv_pos_as_xyz
  x,y,z

loop_
_atom_site_label
_atom_site_type_symbol
_atom_site_fract_x
_atom_site_fract_y
_atom_site_fract_z
_atom_site_charge
Ag	Ag	0.61491 0.07814 0.44358 0.52400
C 	C 	0.75570 0.98160 0.64410 0.32000
C 	C 	0.89450 0.96890 0.72540 -0.11100
C 	C 	0.05900 0.01170 0.71960 0.05500
C 	C 	0.10820 0.06030 0.63500 -0.11000
H 	H 	0.03230 0.06320 0.57910 0.06200
C 	C 	0.26530 0.10300 0.63420 -0.04400
H 	H 	0.29440 0.13570 0.57840 0.01900
C 	C 	0.38370 0.09740 0.71810 -0.06600
H 	H 	0.48890 0.12860 0.71810 0.04700
C 	C 	0.34300 0.04620 0.79860 -0.05600
H 	H 	0.42320 0.03950 0.85230 0.04300
C 	C 	0.17940 0.00270 0.80200 -0.00600
C 	C 	0.13790 0.95120 0.88670 -0.04500
H 	H 	0.21740 0.94600 0.94080 0.04000
C 	C 	0.98000 0.90900 0.88890 -0.06500
H 	H 	0.95320 0.87450 0.94440 0.05000
C 	C 	0.86010 0.91780 0.80820 0.01200
H 	H 	0.75420 0.88830 0.81050 0.03100
O 	O 	0.73850 0.06960 0.60020 -0.35100
O 	O 	0.65710 0.90420 0.62540 -0.35000
Ag	Ag	0.38509 0.92186 0.55642 0.52500
C 	C 	0.24430 0.01840 0.35590 0.32100
C 	C 	0.10550 0.03110 0.27460 -0.11100
C 	C 	0.94100 0.98830 0.28040 0.05500
C 	C 	0.89180 0.93970 0.36500 -0.11000
H 	H 	0.96770 0.93680 0.42090 0.06200
C 	C 	0.73470 0.89700 0.36580 -0.04400
H 	H 	0.70560 0.86430 0.42160 0.01900
C 	C 	0.61630 0.90260 0.28190 -0.06600
H 	H 	0.51110 0.87140 0.28190 0.04700
C 	C 	0.65700 0.95380 0.20140 -0.05600
H 	H 	0.57680 0.96050 0.14770 0.04300
C 	C 	0.82060 0.99730 0.19800 -0.00600
C 	C 	0.86210 0.04880 0.11330 -0.04500
H 	H 	0.78260 0.05400 0.05920 0.04000
C 	C 	0.02000 0.09100 0.11110 -0.06500
H 	H 	0.04680 0.12550 0.05560 0.05000
C 	C 	0.13990 0.08220 0.19180 0.01200
H 	H 	0.24580 0.11170 0.18950 0.03100
O 	O 	0.26150 0.93040 0.39980 -0.35100
O 	O 	0.34290 0.09580 0.37460 -0.35000
Ag	Ag	0.38509 0.57814 0.05642 0.52500
C 	C 	0.24430 0.48160 0.85590 0.32000
C 	C 	0.10550 0.46890 0.77460 -0.10700
C 	C 	0.94100 0.51170 0.78040 0.05200
C 	C 	0.89180 0.56030 0.86500 -0.10700
H 	H 	0.96770 0.56320 0.92090 0.06100
C 	C 	0.73470 0.60300 0.86580 -0.04700
H 	H 	0.70560 0.63570 0.92160 0.02000
C 	C 	0.61630 0.59740 0.78190 -0.06400
H 	H 	0.51110 0.62860 0.78190 0.04700
C 	C 	0.65700 0.54620 0.70140 -0.05800
H 	H 	0.57680 0.53950 0.64770 0.04300
C 	C 	0.82060 0.50270 0.69800 -0.00400
C 	C 	0.86210 0.45120 0.61330 -0.04900
H 	H 	0.78260 0.44600 0.55920 0.04100
C 	C 	0.02000 0.40900 0.61110 -0.06000
H 	H 	0.04680 0.37450 0.55560 0.04800
C 	C 	0.13990 0.41780 0.69180 0.00800
H 	H 	0.24580 0.38830 0.68950 0.03200
O 	O 	0.26150 0.56960 0.89980 -0.35100
O 	O 	0.34290 0.40420 0.87460 -0.35000
Ag	Ag	0.61491 0.42186 0.94358 0.52500
C 	C 	0.75570 0.51840 0.14410 0.32000
C 	C 	0.89450 0.53110 0.22540 -0.10700
C 	C 	0.05900 0.48830 0.21960 0.05200
C 	C 	0.10820 0.43970 0.13500 -0.10700
H 	H 	0.03230 0.43680 0.07910 0.06100
C 	C 	0.26530 0.39700 0.13420 -0.04700
H 	H 	0.29440 0.36430 0.07840 0.02000
C 	C 	0.38370 0.40260 0.21810 -0.06400
H 	H 	0.48890 0.37140 0.21810 0.04700
C 	C 	0.34300 0.45380 0.29860 -0.05800
H 	H 	0.42320 0.46050 0.35230 0.04300
C 	C 	0.17940 0.49730 0.30200 -0.00400
C 	C 	0.13790 0.54880 0.38670 -0.04900
H 	H 	0.21740 0.55400 0.44080 0.04100
C 	C 	0.98000 0.59100 0.38890 -0.06000
H 	H 	0.95320 0.62550 0.44440 0.04800
C 	C 	0.86010 0.58220 0.30820 0.00800
H 	H 	0.75420 0.61170 0.31050 0.03200
O 	O 	0.73850 0.43040 0.10020 -0.35100
O 	O 	0.65710 0.59580 0.12540 -0.35000
