data_crystal

_cell_length_a 11.65250
_cell_length_b 18.35540
_cell_length_c 18.35540
_cell_angle_alpha 84.21760
_cell_angle_beta  71.49340
_cell_angle_gamma 71.49350

_symmetry_space_group_name_	'P 1'
_symmetry_space_group_name_H-M	'P 1'

loop_
_symmetry_equiv_pos_as_xyz
  x,y,z

loop_
_atom_site_label
_atom_site_type_symbol
_atom_site_fract_x
_atom_site_fract_y
_atom_site_fract_z
_atom_site_charge
Cu	Cu	0.41496 0.59523 0.25743 0.86300
Cu	Cu	0.76762 0.90477 0.24257 0.87700
Cu	Cu	0.67239 0.74257 0.09523 0.86200
Cu	Cu	0.01019 0.75743 0.40477 0.84600
Cu	Cu	0.58504 0.40477 0.74257 0.87400
Cu	Cu	0.23238 0.09523 0.75743 0.86000
Cu	Cu	0.32761 0.25743 0.90477 0.87700
Cu	Cu	0.98981 0.24257 0.59523 0.89200
Cu	Cu	0.50000 0.50000 0.50000 0.91800
Cu	Cu	-0.00000 0.00000 -0.00000 0.83500
Cu	Cu	0.00000 0.50000 -0.00000 0.86100
Cu	Cu	0.00000 0.00000 0.50000 0.86600
H 	H 	0.97260 0.75600 0.56980 0.11400
H 	H 	0.96620 0.72730 0.69610 0.10700
H 	H 	0.12980 0.63100 0.72780 0.02500
H 	H 	0.31100 0.56750 0.63050 0.05400
H 	H 	0.79840 0.74400 0.93020 0.08600
H 	H 	0.88960 0.77270 0.80390 0.01800
H 	H 	0.98860 0.86900 0.77220 0.11000
H 	H 	0.00900 0.93250 0.86950 -0.02000
H 	H 	0.54240 0.43020 0.25600 0.04000
H 	H 	0.66230 0.30390 0.22730 0.03200
H 	H 	0.85760 0.27220 0.13100 0.06700
H 	H 	0.94150 0.36950 0.06750 0.05900
H 	H 	0.72860 0.06980 0.24400 0.02100
H 	H 	0.69350 0.19610 0.27270 0.03700
H 	H 	0.76080 0.22780 0.36900 0.04900
H 	H 	0.87850 0.13050 0.43250 0.05100
H 	H 	0.02740 0.24400 0.43020 -0.02800
H 	H 	0.03380 0.27270 0.30390 -0.04200
H 	H 	0.87020 0.36900 0.27220 0.08000
H 	H 	0.68900 0.43250 0.36950 0.04200
H 	H 	0.20160 0.25600 0.06980 -0.00300
H 	H 	0.11040 0.22730 0.19610 0.05700
H 	H 	0.01140 0.13100 0.22780 -0.01500
H 	H 	0.99100 0.06750 0.13050 0.13900
H 	H 	0.45760 0.56980 0.74400 0.04700
H 	H 	0.33770 0.69610 0.77270 0.03900
H 	H 	0.14240 0.72780 0.86900 0.03800
H 	H 	0.05850 0.63050 0.93250 0.04700
H 	H 	0.27140 0.93020 0.75600 0.06600
H 	H 	0.30650 0.80390 0.72730 0.03400
H 	H 	0.23920 0.77220 0.63100 0.05300
H 	H 	0.12150 0.86950 0.56750 0.05200
C 	C 	0.36044 0.60145 0.41087 0.13500
C 	C 	0.25047 0.65764 0.39182 0.13100
C 	C 	0.14563 0.67712 0.52222 0.06800
C 	C 	0.04081 0.71714 0.58144 -0.16500
C 	C 	0.03748 0.69992 0.65612 -0.10100
C 	C 	0.13589 0.64316 0.67546 0.00800
C 	C 	0.24227 0.60489 0.61797 -0.09800
C 	C 	0.24803 0.62170 0.54064 0.05500
C 	C 	0.87276 0.89855 0.08913 0.13600
C 	C 	0.79993 0.84236 0.10818 0.13400
C 	C 	0.84497 0.82288 0.97778 0.14600
C 	C 	0.83939 0.78286 0.91856 -0.15600
C 	C 	0.89352 0.80008 0.84388 0.07800
C 	C 	0.95451 0.85684 0.82454 -0.12100
C 	C 	0.96513 0.89511 0.88203 0.08400
C 	C 	0.91037 0.87830 0.95936 0.05000
C 	C 	0.77131 0.58913 0.10145 0.13800
C 	C 	0.64229 0.60818 0.15764 0.12800
C 	C 	0.66785 0.47778 0.17712 0.05100
C 	C 	0.62225 0.41856 0.21714 -0.10100
C 	C 	0.69360 0.34388 0.19992 -0.01000
C 	C 	0.81135 0.32454 0.14316 -0.03700
C 	C 	0.86024 0.38203 0.10489 -0.07200
C 	C 	0.78867 0.45936 0.12170 0.05300
C 	C 	0.96189 0.91087 0.39855 0.22400
C 	C 	0.90811 0.89182 0.34236 0.12300
C 	C 	0.82275 0.02222 0.32288 0.00600
C 	C 	0.75795 0.08144 0.28286 -0.07500
C 	C 	0.73740 0.15612 0.30008 -0.02100
C 	C 	0.77905 0.17546 0.35684 -0.02400
C 	C 	0.84716 0.11797 0.39511 -0.06600
C 	C 	0.86973 0.04064 0.37830 0.02900
C 	C 	0.63956 0.39855 0.58913 0.14100
C 	C 	0.74953 0.34236 0.60818 0.13100
C 	C 	0.85437 0.32288 0.47778 0.04000
C 	C 	0.95919 0.28286 0.41856 -0.03000
C 	C 	0.96252 0.30008 0.34388 0.08800
C 	C 	0.86411 0.35684 0.32454 -0.07900
C 	C 	0.75773 0.39511 0.38203 -0.05200
C 	C 	0.75197 0.37830 0.45936 0.05200
C 	C 	0.12724 0.10145 0.91087 0.14400
C 	C 	0.20007 0.15764 0.89182 0.12900
C 	C 	0.15503 0.17712 0.02222 -0.05000
C 	C 	0.16061 0.21714 0.08144 -0.02900
C 	C 	0.10648 0.19992 0.15612 -0.11500
C 	C 	0.04549 0.14316 0.17546 0.07000
C 	C 	0.03487 0.10489 0.11797 -0.26100
C 	C 	0.08963 0.12170 0.04064 0.06200
C 	C 	0.22869 0.41087 0.89855 0.14000
C 	C 	0.35771 0.39182 0.84236 0.13400
C 	C 	0.33215 0.52222 0.82288 0.05400
C 	C 	0.37775 0.58144 0.78286 -0.09300
C 	C 	0.30640 0.65612 0.80008 -0.01500
C 	C 	0.18865 0.67546 0.85684 -0.02700
C 	C 	0.13976 0.61797 0.89511 -0.08000
C 	C 	0.21133 0.54064 0.87830 0.05800
C 	C 	0.03811 0.08913 0.60145 0.05200
C 	C 	0.09189 0.10818 0.65764 0.14000
C 	C 	0.17725 0.97778 0.67712 0.10100
C 	C 	0.24205 0.91856 0.71714 -0.11800
C 	C 	0.26260 0.84388 0.69992 -0.00300
C 	C 	0.22095 0.82454 0.64316 -0.03900
C 	C 	0.15284 0.88203 0.60489 -0.08700
C 	C 	0.13027 0.95936 0.62170 0.08300
N 	N 	0.35549 0.58373 0.48283 -0.21500
N 	N 	0.14730 0.69241 0.44657 -0.24900
N 	N 	0.92205 0.91627 0.01717 -0.21000
N 	N 	0.78628 0.80759 0.05343 -0.27600
N 	N 	0.83832 0.51717 0.08373 -0.20700
N 	N 	0.59387 0.55343 0.19241 -0.24200
N 	N 	0.93922 0.98283 0.41627 -0.17200
N 	N 	0.83971 0.94657 0.30759 -0.20300
N 	N 	0.64451 0.41627 0.51717 -0.21400
N 	N 	0.85270 0.30759 0.55343 -0.23100
N 	N 	0.07795 0.08373 0.98283 -0.19400
N 	N 	0.21372 0.19241 0.94657 -0.19800
N 	N 	0.16168 0.48283 0.91627 -0.20500
N 	N 	0.40613 0.44657 0.80759 -0.23800
N 	N 	0.06078 0.01717 0.58373 -0.24400
N 	N 	0.16029 0.05343 0.69241 -0.27700
Cl	Cl	0.59644 0.58800 0.50752 -0.44300
Cl	Cl	0.19196 0.91200 0.99248 -0.38700
Cl	Cl	0.10396 0.49248 0.08800 -0.52400
Cl	Cl	0.18444 0.00752 0.41200 -0.52100
Cl	Cl	0.40356 0.41200 0.49248 -0.47100
Cl	Cl	0.80804 0.08800 0.00752 -0.49000
Cl	Cl	0.89604 0.50752 0.91200 -0.37300
Cl	Cl	0.81556 0.99248 0.58800 -0.37500
O 	O 	0.45737 0.57013 0.35423 -0.35700
O 	O 	0.25987 0.66930 0.32064 -0.40700
O 	O 	0.88173 0.92987 0.14577 -0.33000
O 	O 	0.74981 0.83070 0.17936 -0.38800
O 	O 	0.81160 0.64577 0.07013 -0.36200
O 	O 	0.58051 0.67936 0.16930 -0.39900
O 	O 	0.02750 0.85423 0.42987 -0.41600
O 	O 	0.92917 0.82064 0.33070 -0.36200
O 	O 	0.54263 0.42987 0.64577 -0.35900
O 	O 	0.74013 0.33070 0.67936 -0.38300
O 	O 	0.11827 0.07013 0.85423 -0.37700
O 	O 	0.25019 0.16930 0.82064 -0.40100
O 	O 	0.18840 0.35423 0.92987 -0.34600
O 	O 	0.41949 0.32064 0.83070 -0.39100
O 	O 	0.97250 0.14577 0.57013 -0.29300
O 	O 	0.07083 0.17936 0.66930 -0.42800
