data_crystal

_cell_length_a 7.52310
_cell_length_b 9.80030
_cell_length_c 9.80030
_cell_angle_alpha 81.52850
_cell_angle_beta  67.42960
_cell_angle_gamma 67.42960

_symmetry_space_group_name_	'P 1'
_symmetry_space_group_name_H-M	'P 1'

loop_
_symmetry_equiv_pos_as_xyz
  x,y,z

loop_
_atom_site_label
_atom_site_type_symbol
_atom_site_fract_x
_atom_site_fract_y
_atom_site_fract_z
_atom_site_charge
Zr	Zr	0.19569 0.10489 0.50373 3.09500
Zr	Zr	0.69942 0.49627 0.10489 3.09500
Zr	Zr	0.80431 0.89511 0.49627 3.09500
Zr	Zr	0.30058 0.50373 0.89511 3.09500
C 	C 	0.65810 0.20540 0.68560 0.26200
C 	C 	0.54910 0.79460 0.31440 0.26400
C 	C 	0.86350 0.68560 0.79460 0.26300
C 	C 	0.34370 0.31440 0.20540 0.26400
C 	C 	0.65630 0.68560 0.79460 0.26400
C 	C 	0.34190 0.79460 0.31440 0.26200
C 	C 	0.45090 0.20540 0.68560 0.26400
C 	C 	0.13650 0.31440 0.20540 0.26300
O 	O 	0.29080 0.30010 0.76430 -0.81800
O 	O 	0.93140 0.60670 0.88750 -0.99300
O 	O 	0.59090 0.76430 0.69990 -0.81300
O 	O 	0.53810 0.88750 0.39330 -1.00000
O 	O 	0.42560 0.39330 0.11250 -1.00000
O 	O 	0.46190 0.11250 0.60670 -1.00000
O 	O 	0.06860 0.39330 0.11250 -0.99300
O 	O 	0.94490 0.76430 0.69990 -0.81300
O 	O 	0.05510 0.23570 0.30010 -0.81300
O 	O 	0.40910 0.23570 0.30010 -0.81300
O 	O 	0.70920 0.69990 0.23570 -0.81800
O 	O 	0.81890 0.11250 0.60670 -0.99500
O 	O 	0.18110 0.88750 0.39330 -0.99500
O 	O 	0.35520 0.69990 0.23570 -0.81100
O 	O 	0.57440 0.60670 0.88750 -1.00000
O 	O 	0.64480 0.30010 0.76430 -0.81100
