data_crystal

_cell_length_a 7.52700
_cell_length_b 9.80160
_cell_length_c 9.80160
_cell_angle_alpha 81.52190
_cell_angle_beta  67.42030
_cell_angle_gamma 67.42030

_symmetry_space_group_name_	'P 1'
_symmetry_space_group_name_H-M	'P 1'

loop_
_symmetry_equiv_pos_as_xyz
  x,y,z

loop_
_atom_site_label
_atom_site_type_symbol
_atom_site_fract_x
_atom_site_fract_y
_atom_site_fract_z
_atom_site_charge
Zr	Zr	0.30441 0.89498 0.49620 3.09700
Zr	Zr	0.69559 0.10502 0.50380 3.09700
Zr	Zr	0.80061 0.50380 0.89498 3.09500
Zr	Zr	0.19938 0.49621 0.10502 3.09500
C 	C 	0.95112 0.20508 0.68620 0.23900
C 	C 	0.15760 0.20508 0.68620 0.25700
C 	C 	0.36268 0.68620 0.79492 0.25100
C 	C 	0.15620 0.68620 0.79492 0.25000
C 	C 	0.63732 0.31380 0.20508 0.25100
C 	C 	0.84380 0.31380 0.20508 0.25000
C 	C 	0.84240 0.79492 0.31380 0.25700
C 	C 	0.04888 0.79492 0.31380 0.23900
O 	O 	0.91000 0.23548 0.30032 -0.80500
O 	O 	0.21032 0.69968 0.23548 -0.80600
O 	O 	0.07359 0.60640 0.88784 -0.98800
O 	O 	0.85452 0.69968 0.23548 -0.80400
O 	O 	0.09000 0.76452 0.69968 -0.80500
O 	O 	0.14548 0.30032 0.76452 -0.80400
O 	O 	0.03857 0.88784 0.39360 -0.99400
O 	O 	0.78968 0.30032 0.76452 -0.80600
O 	O 	0.32001 0.11216 0.60640 -0.99400
O 	O 	0.44580 0.76452 0.69968 -0.80600
O 	O 	0.55420 0.23548 0.30032 -0.80600
O 	O 	0.43217 0.60640 0.88784 -0.99200
O 	O 	0.92641 0.39360 0.11216 -0.98800
O 	O 	0.96143 0.11216 0.60640 -0.99400
O 	O 	0.56783 0.39360 0.11216 -0.99200
O 	O 	0.67999 0.88784 0.39360 -0.99400
