data_crystal

_cell_length_a 7.54000
_cell_length_b 9.77940
_cell_length_c 9.77940
_cell_angle_alpha 81.45340
_cell_angle_beta  67.32490
_cell_angle_gamma 67.32490

_symmetry_space_group_name_	'P 1'
_symmetry_space_group_name_H-M	'P 1'

loop_
_symmetry_equiv_pos_as_xyz
  x,y,z

loop_
_atom_site_label
_atom_site_type_symbol
_atom_site_fract_x
_atom_site_fract_y
_atom_site_fract_z
_atom_site_charge
Zr	Zr	0.19522 0.50502 0.10454 3.09500
Zr	Zr	0.80478 0.49498 0.89546 3.09500
Zr	Zr	0.70024 0.10454 0.49498 3.09400
Zr	Zr	0.29976 0.89546 0.50502 3.09400
C 	C 	0.45210 0.68800 0.20280 0.25900
C 	C 	0.65490 0.79720 0.68800 0.25900
C 	C 	0.14010 0.20280 0.31200 0.25800
C 	C 	0.54790 0.31200 0.79720 0.25900
C 	C 	0.34290 0.31200 0.79720 0.25700
C 	C 	0.65710 0.68800 0.20280 0.25700
C 	C 	0.34510 0.20280 0.31200 0.25900
C 	C 	0.85990 0.79720 0.68800 0.25800
O 	O 	0.70960 0.23100 0.70380 -0.81300
O 	O 	0.58660 0.70380 0.76900 -0.80800
O 	O 	0.46160 0.60640 0.11320 -1.00000
O 	O 	0.35560 0.23100 0.70380 -0.80600
O 	O 	0.41340 0.29620 0.23100 -0.80800
O 	O 	0.93200 0.88680 0.60640 -0.99300
O 	O 	0.06800 0.11320 0.39360 -0.99300
O 	O 	0.94060 0.70380 0.76900 -0.80800
O 	O 	0.05940 0.29620 0.23100 -0.80800
O 	O 	0.53840 0.39360 0.88680 -1.00000
O 	O 	0.29040 0.76900 0.29620 -0.81300
O 	O 	0.57480 0.88680 0.60640 -1.00000
O 	O 	0.18120 0.39360 0.88680 -0.99400
O 	O 	0.42520 0.11320 0.39360 -1.00000
O 	O 	0.81880 0.60640 0.11320 -0.99400
O 	O 	0.64440 0.76900 0.29620 -0.80600
