data_crystal

_cell_length_a 28.18000
_cell_length_b 18.40400
_cell_length_c 32.04400
_cell_angle_alpha 90.00000
_cell_angle_beta  112.17400
_cell_angle_gamma 90.00000

_symmetry_space_group_name_	'P 1'
_symmetry_space_group_name_H-M	'P 1'

loop_
_symmetry_equiv_pos_as_xyz
  x,y,z

loop_
_atom_site_label
_atom_site_type_symbol
_atom_site_fract_x
_atom_site_fract_y
_atom_site_fract_z
_atom_site_charge
C 	C 	0.47340 0.25090 0.25486 0.19000
C 	C 	0.52470 0.21090 0.26944 0.19100
C 	C 	0.60807 0.20390 0.32878 0.16200
C 	C 	0.63446 0.21940 0.37454 -0.11700
H 	H 	0.61910 0.24850 0.38960 0.09500
C 	C 	0.68343 0.19180 0.39773 -0.02100
C 	C 	0.70600 0.14940 0.37608 -0.02600
H 	H 	0.73870 0.13110 0.39180 0.07200
C 	C 	0.68095 0.13280 0.33064 -0.02400
C 	C 	0.63209 0.16000 0.30677 -0.11300
H 	H 	0.61540 0.14910 0.27640 0.11800
C 	C 	0.70842 0.20660 0.44758 0.34000
C 	C 	0.70481 0.08220 0.30767 0.34700
C 	C 	0.39055 0.25860 0.19192 0.16200
C 	C 	0.36575 0.23390 0.14790 -0.11900
H 	H 	0.38150 0.20050 0.13540 0.09300
C 	C 	0.31703 0.26020 0.12302 -0.01900
C 	C 	0.29355 0.31090 0.14090 -0.03400
H 	H 	0.26090 0.32810 0.12380 0.07600
C 	C 	0.31950 0.33600 0.18526 -0.01600
C 	C 	0.36747 0.30900 0.21063 -0.11800
H 	H 	0.38440 0.32450 0.24020 0.11800
C 	C 	0.29494 0.39480 0.20318 0.34300
C 	C 	0.29093 0.24060 0.07478 0.32500
C 	C 	0.01970 0.21310 0.78380 0.19800
C 	C 	0.96890 0.23070 0.74470 0.14700
C 	C 	0.10810 0.18410 0.79130 0.18200
C 	C 	0.13124 0.19940 0.83608 -0.13600
H 	H 	0.11280 0.22130 0.85140 0.12700
C 	C 	0.18285 0.18180 0.85884 -0.01200
C 	C 	0.20982 0.14650 0.83638 -0.03700
H 	H 	0.24400 0.13390 0.85180 0.07700
C 	C 	0.18568 0.12990 0.79090 -0.01300
C 	C 	0.13380 0.14650 0.76858 -0.13300
H 	H 	0.11650 0.13250 0.73880 0.09800
C 	C 	0.21272 0.08670 0.76646 0.34300
C 	C 	0.20760 0.19620 0.90758 0.32600
C 	C 	0.88380 0.27470 0.73174 0.15000
C 	C 	0.85973 0.24970 0.68734 -0.10300
H 	H 	0.87660 0.21710 0.67550 0.10700
C 	C 	0.81115 0.27360 0.66120 -0.03000
C 	C 	0.78596 0.32130 0.67933 -0.02500
H 	H 	0.75310 0.33730 0.66190 0.07300
C 	C 	0.80969 0.34530 0.72343 -0.02000
C 	C 	0.85784 0.32020 0.74982 -0.11600
H 	H 	0.87280 0.33400 0.77990 0.09400
C 	C 	0.78468 0.40320 0.74175 0.33700
C 	C 	0.78749 0.25210 0.61332 0.34600
C 	C 	0.47340 0.50860 0.99490 0.16200
C 	C 	0.38640 0.46560 0.97090 0.15700
C 	C 	0.36278 0.40220 0.97430 -0.11900
H 	H 	0.38060 0.35860 0.97830 0.09400
C 	C 	0.31266 0.40200 0.97203 -0.02200
C 	C 	0.28574 0.46770 0.96665 -0.02900
H 	H 	0.25210 0.46820 0.96510 0.07400
C 	C 	0.31044 0.53280 0.96357 -0.02000
C 	C 	0.36020 0.53280 0.96610 -0.10800
H 	H 	0.37640 0.57620 0.96470 0.10700
C 	C 	0.28396 0.60420 0.96183 0.33700
C 	C 	0.28836 0.33250 0.97827 0.34400
C 	C 	0.02580 0.01230 0.99980 0.18000
C 	C 	0.10571 0.96480 0.99878 0.15000
C 	C 	0.13169 0.03080 0.00183 -0.10500
H 	H 	0.11620 0.07380 0.00530 0.11300
C 	C 	0.17915 0.03320 0.99983 -0.02800
C 	C 	0.20326 0.96850 0.99388 -0.02900
H 	H 	0.23560 0.96970 0.99230 0.07500
C 	C 	0.17683 0.90230 0.99035 -0.01700
C 	C 	0.12930 0.89990 0.99184 -0.11000
H 	H 	0.11210 0.85580 0.98830 0.09100
C 	C 	0.20230 0.83460 0.98152 0.33300
C 	C 	0.20665 0.10230 0.00047 0.34600
Cu	Cu	0.28968 0.18149 0.99279 0.90800
Cu	Cu	0.71119 0.26117 0.52825 0.91100
Cu	Cu	0.78634 0.99316 0.30746 0.90800
Cu	Cu	0.79545 0.18672 0.53285 0.90700
Cu	Cu	0.20714 0.25395 0.98990 0.90700
Cu	Cu	0.70338 0.99902 0.23219 0.90800
N 	N 	0.55939 0.23160 0.30685 -0.24700
H 	H 	0.55120 0.26750 0.32000 0.15500
N 	N 	0.44038 0.23330 0.21518 -0.24400
H 	H 	0.45080 0.20120 0.20110 0.15600
N 	N 	0.05820 0.19890 0.76740 -0.24500
H 	H 	0.04900 0.19960 0.73860 0.15300
N 	N 	0.93304 0.24980 0.75948 -0.23300
H 	H 	0.94010 0.24700 0.78800 0.15200
N 	N 	0.43800 0.46230 0.97760 -0.24000
H 	H 	0.44750 0.42280 0.96860 0.15200
N 	N 	0.05713 0.95930 0.00022 -0.24000
H 	H 	0.04630 0.91590 0.00150 0.15200
O 	O 	0.68555 0.24702 0.46482 -0.40800
O 	O 	0.75261 0.17913 0.46722 -0.39300
O 	O 	0.74886 0.06022 0.33025 -0.40600
O 	O 	0.67962 0.06735 0.26688 -0.39400
O 	O 	0.32140 0.41896 0.24183 -0.39400
O 	O 	0.25050 0.41247 0.17928 -0.40600
O 	O 	0.24715 0.26856 0.05357 -0.39500
O 	O 	0.31448 0.19903 0.05749 -0.39100
O 	O 	0.18025 0.22715 0.92614 -0.38700
O 	O 	0.25340 0.17619 0.92745 -0.39400
O 	O 	0.25827 0.06969 0.79001 -0.39900
O 	O 	0.18752 0.07211 0.72663 -0.40700
O 	O 	0.80909 0.42468 0.78065 -0.40000
O 	O 	0.73955 0.42191 0.71645 -0.39500
O 	O 	0.74251 0.27298 0.59240 -0.40600
O 	O 	0.81452 0.21554 0.59744 -0.39200
O 	O 	0.24224 0.33670 0.97610 -0.39500
O 	O 	0.31472 0.27733 0.98529 -0.40700
O 	O 	0.23779 0.60045 0.95797 -0.40100
O 	O 	0.31028 0.66017 0.96505 -0.39400
O 	O 	0.18267 0.15986 0.00273 -0.38800
O 	O 	0.24951 0.09863 0.99856 -0.41000
O 	O 	0.17687 0.77643 0.97848 -0.39700
O 	O 	0.24514 0.84091 0.97884 -0.39700
O 	O 	0.52360 0.14690 0.25120 -0.11800
O 	O 	0.46180 0.27980 0.28520 -0.12400
O 	O 	0.02350 0.20590 0.82270 -0.13400
O 	O 	0.96640 0.23600 0.70300 -0.19300
O 	O 	0.46780 0.56450 0.01780 -0.19700
O 	O 	0.03520 0.07650 0.00108 -0.21600
O 	O 	0.53620 0.18210 0.23750 -0.13200
O 	O 	0.47300 0.31130 0.27410 -0.11500
O 	O 	0.03310 0.24940 0.81920 -0.12100
C 	C 	0.52660 0.75090 0.24514 0.19100
C 	C 	0.47530 0.71090 0.23056 0.19200
C 	C 	0.39193 0.70390 0.17122 0.16200
C 	C 	0.36554 0.71940 0.12546 -0.11700
H 	H 	0.38090 0.74850 0.11040 0.09500
C 	C 	0.31657 0.69180 0.10227 -0.02100
C 	C 	0.29400 0.64940 0.12392 -0.02600
H 	H 	0.26130 0.63110 0.10820 0.07200
C 	C 	0.31905 0.63280 0.16936 -0.02400
C 	C 	0.36791 0.66000 0.19323 -0.11300
H 	H 	0.38460 0.64910 0.22360 0.11800
C 	C 	0.29158 0.70660 0.05242 0.34000
C 	C 	0.29519 0.58220 0.19233 0.34700
C 	C 	0.60945 0.75860 0.30808 0.16100
C 	C 	0.63425 0.73390 0.35210 -0.11800
H 	H 	0.61850 0.70050 0.36460 0.09300
C 	C 	0.68297 0.76020 0.37698 -0.01900
C 	C 	0.70645 0.81090 0.35910 -0.03300
H 	H 	0.73910 0.82810 0.37620 0.07600
C 	C 	0.68050 0.83600 0.31474 -0.01600
C 	C 	0.63253 0.80900 0.28937 -0.11800
H 	H 	0.61560 0.82450 0.25980 0.11800
C 	C 	0.70506 0.89480 0.29682 0.34300
C 	C 	0.70907 0.74060 0.42522 0.32500
C 	C 	0.98030 0.71310 0.71620 0.20000
C 	C 	0.03110 0.73070 0.75530 0.14500
C 	C 	0.89190 0.68410 0.70870 0.18300
C 	C 	0.86876 0.69940 0.66392 -0.13600
H 	H 	0.88720 0.72130 0.64860 0.12700
C 	C 	0.81715 0.68180 0.64116 -0.01200
C 	C 	0.79018 0.64650 0.66362 -0.03700
H 	H 	0.75600 0.63390 0.64820 0.07700
C 	C 	0.81432 0.62990 0.70910 -0.01200
C 	C 	0.86620 0.64650 0.73142 -0.13300
H 	H 	0.88350 0.63250 0.76120 0.09900
C 	C 	0.78728 0.58670 0.73354 0.34300
C 	C 	0.79240 0.69620 0.59242 0.32600
C 	C 	0.11620 0.77470 0.76826 0.15000
C 	C 	0.14027 0.74970 0.81266 -0.10300
H 	H 	0.12340 0.71710 0.82450 0.10600
C 	C 	0.18885 0.77360 0.83880 -0.03000
C 	C 	0.21404 0.82130 0.82067 -0.02500
H 	H 	0.24690 0.83730 0.83810 0.07300
C 	C 	0.19031 0.84530 0.77657 -0.02000
C 	C 	0.14216 0.82020 0.75018 -0.11600
H 	H 	0.12720 0.83400 0.72010 0.09400
C 	C 	0.21532 0.90320 0.75825 0.33700
C 	C 	0.21251 0.75210 0.88668 0.34600
C 	C 	0.52660 0.00860 0.50510 0.16200
C 	C 	0.61360 0.96560 0.52910 0.15700
C 	C 	0.63722 0.90220 0.52570 -0.11900
H 	H 	0.61940 0.85860 0.52170 0.09400
C 	C 	0.68734 0.90200 0.52797 -0.02200
C 	C 	0.71426 0.96770 0.53335 -0.02900
H 	H 	0.74790 0.96820 0.53490 0.07400
C 	C 	0.68956 0.03280 0.53643 -0.02000
C 	C 	0.63980 0.03280 0.53390 -0.10800
H 	H 	0.62360 0.07620 0.53530 0.10700
C 	C 	0.71604 0.10420 0.53817 0.33700
C 	C 	0.71164 0.83250 0.52173 0.34400
C 	C 	0.97420 0.51230 0.50020 0.18300
C 	C 	0.89429 0.46480 0.50122 0.15300
C 	C 	0.86831 0.53080 0.49817 -0.11100
H 	H 	0.88380 0.57380 0.49470 0.11500
C 	C 	0.82085 0.53320 0.50017 -0.02100
C 	C 	0.79674 0.46850 0.50612 -0.03400
H 	H 	0.76440 0.46970 0.50770 0.07600
C 	C 	0.82317 0.40230 0.50965 -0.01400
C 	C 	0.87070 0.39990 0.50816 -0.11300
H 	H 	0.88790 0.35580 0.51170 0.09200
C 	C 	0.79770 0.33460 0.51848 0.33200
C 	C 	0.79335 0.60230 0.49953 0.34100
Cu	Cu	0.71032 0.68149 0.50721 0.90800
Cu	Cu	0.28881 0.76117 0.97175 0.91100
Cu	Cu	0.21365 0.49316 0.19254 0.90800
Cu	Cu	0.20455 0.68672 0.96715 0.90700
Cu	Cu	0.79286 0.75395 0.51010 0.90700
Cu	Cu	0.29662 0.49902 0.26781 0.90800
N 	N 	0.44061 0.73160 0.19315 -0.24700
H 	H 	0.44880 0.76750 0.18000 0.15500
N 	N 	0.55962 0.73330 0.28482 -0.24400
H 	H 	0.54920 0.70120 0.29890 0.15600
N 	N 	0.94180 0.69890 0.73260 -0.24500
H 	H 	0.95100 0.69960 0.76140 0.15400
N 	N 	0.06696 0.74980 0.74052 -0.23200
H 	H 	0.05990 0.74700 0.71200 0.15200
N 	N 	0.56200 0.96230 0.52240 -0.24000
H 	H 	0.55250 0.92280 0.53140 0.15200
N 	N 	0.94287 0.45930 0.49978 -0.24100
H 	H 	0.95370 0.41590 0.49850 0.15200
O 	O 	0.31445 0.74702 0.03518 -0.40800
O 	O 	0.24739 0.67913 0.03278 -0.39200
O 	O 	0.25114 0.56022 0.16975 -0.40600
O 	O 	0.32038 0.56735 0.23312 -0.39500
O 	O 	0.67860 0.91896 0.25817 -0.39400
O 	O 	0.74950 0.91247 0.32072 -0.40600
O 	O 	0.75285 0.76856 0.44643 -0.39500
O 	O 	0.68552 0.69903 0.44251 -0.39100
O 	O 	0.81975 0.72715 0.57386 -0.38700
O 	O 	0.74660 0.67619 0.57255 -0.39400
O 	O 	0.74173 0.56969 0.70999 -0.39800
O 	O 	0.81248 0.57211 0.77337 -0.40700
O 	O 	0.19091 0.92468 0.71935 -0.40000
O 	O 	0.26045 0.92191 0.78355 -0.39500
O 	O 	0.25749 0.77298 0.90760 -0.40500
O 	O 	0.18548 0.71554 0.90256 -0.39200
O 	O 	0.75776 0.83670 0.52390 -0.39500
O 	O 	0.68528 0.77733 0.51471 -0.40700
O 	O 	0.76221 0.10045 0.54203 -0.40000
O 	O 	0.68972 0.16017 0.53495 -0.39400
O 	O 	0.81733 0.65986 0.49727 -0.38700
O 	O 	0.75049 0.59863 0.50144 -0.40900
O 	O 	0.82313 0.27643 0.52152 -0.39700
O 	O 	0.75486 0.34091 0.52116 -0.39700
O 	O 	0.47640 0.64690 0.24880 -0.11800
O 	O 	0.53820 0.77980 0.21480 -0.12400
O 	O 	0.97650 0.70590 0.67730 -0.13400
O 	O 	0.03360 0.73600 0.79700 -0.19300
O 	O 	0.53220 0.06450 0.48220 -0.19700
O 	O 	0.96480 0.57650 0.49892 -0.21800
O 	O 	0.46380 0.68210 0.26250 -0.13200
O 	O 	0.52700 0.81130 0.22590 -0.11500
O 	O 	0.96690 0.74940 0.68080 -0.12100
C 	C 	0.52660 0.74910 0.74514 0.19100
C 	C 	0.47530 0.78910 0.73056 0.19200
C 	C 	0.39193 0.79610 0.67122 0.16200
C 	C 	0.36554 0.78060 0.62546 -0.11700
H 	H 	0.38090 0.75150 0.61040 0.09500
C 	C 	0.31657 0.80820 0.60227 -0.02100
C 	C 	0.29400 0.85060 0.62392 -0.02600
H 	H 	0.26130 0.86890 0.60820 0.07200
C 	C 	0.31905 0.86720 0.66936 -0.02400
C 	C 	0.36791 0.84000 0.69323 -0.11300
H 	H 	0.38460 0.85090 0.72360 0.11800
C 	C 	0.29158 0.79340 0.55242 0.34000
C 	C 	0.29519 0.91780 0.69233 0.34700
C 	C 	0.60945 0.74140 0.80808 0.16200
C 	C 	0.63425 0.76610 0.85210 -0.11900
H 	H 	0.61850 0.79950 0.86460 0.09300
C 	C 	0.68297 0.73980 0.87698 -0.01900
C 	C 	0.70645 0.68910 0.85910 -0.03400
H 	H 	0.73910 0.67190 0.87620 0.07600
C 	C 	0.68050 0.66400 0.81474 -0.01600
C 	C 	0.63253 0.69100 0.78937 -0.11800
H 	H 	0.61560 0.67550 0.75980 0.11800
C 	C 	0.70506 0.60520 0.79682 0.34300
C 	C 	0.70907 0.75940 0.92522 0.32500
C 	C 	0.98030 0.78690 0.21620 0.19800
C 	C 	0.03110 0.76930 0.25530 0.14700
C 	C 	0.89190 0.81590 0.20870 0.18200
C 	C 	0.86876 0.80060 0.16392 -0.13600
H 	H 	0.88720 0.77870 0.14860 0.12700
C 	C 	0.81715 0.81820 0.14116 -0.01200
C 	C 	0.79018 0.85350 0.16362 -0.03700
H 	H 	0.75600 0.86610 0.14820 0.07700
C 	C 	0.81432 0.87010 0.20910 -0.01300
C 	C 	0.86620 0.85350 0.23142 -0.13300
H 	H 	0.88350 0.86750 0.26120 0.09800
C 	C 	0.78728 0.91330 0.23354 0.34300
C 	C 	0.79240 0.80380 0.09242 0.32600
C 	C 	0.11620 0.72530 0.26826 0.15000
C 	C 	0.14027 0.75030 0.31266 -0.10300
H 	H 	0.12340 0.78290 0.32450 0.10700
C 	C 	0.18885 0.72640 0.33880 -0.03000
C 	C 	0.21404 0.67870 0.32067 -0.02500
H 	H 	0.24690 0.66270 0.33810 0.07300
C 	C 	0.19031 0.65470 0.27657 -0.02000
C 	C 	0.14216 0.67980 0.25018 -0.11600
H 	H 	0.12720 0.66600 0.22010 0.09400
C 	C 	0.21532 0.59680 0.25825 0.33700
C 	C 	0.21251 0.74790 0.38668 0.34600
C 	C 	0.52660 0.49140 0.00510 0.16200
C 	C 	0.61360 0.53440 0.02910 0.15700
C 	C 	0.63722 0.59780 0.02570 -0.11900
H 	H 	0.61940 0.64140 0.02170 0.09400
C 	C 	0.68734 0.59800 0.02797 -0.02200
C 	C 	0.71426 0.53230 0.03335 -0.02900
H 	H 	0.74790 0.53180 0.03490 0.07400
C 	C 	0.68956 0.46720 0.03643 -0.02000
C 	C 	0.63980 0.46720 0.03390 -0.10800
H 	H 	0.62360 0.42380 0.03530 0.10700
C 	C 	0.71604 0.39580 0.03817 0.33700
C 	C 	0.71164 0.66750 0.02173 0.34400
C 	C 	0.97420 0.98770 0.00020 0.18000
C 	C 	0.89429 0.03520 0.00122 0.15000
C 	C 	0.86831 0.96920 0.99817 -0.10500
H 	H 	0.88380 0.92620 0.99470 0.11300
C 	C 	0.82085 0.96680 0.00017 -0.02800
C 	C 	0.79674 0.03150 0.00612 -0.02900
H 	H 	0.76440 0.03030 0.00770 0.07500
C 	C 	0.82317 0.09770 0.00965 -0.01700
C 	C 	0.87070 0.10010 0.00816 -0.11000
H 	H 	0.88790 0.14420 0.01170 0.09100
C 	C 	0.79770 0.16540 0.01848 0.33300
C 	C 	0.79335 0.89770 0.99953 0.34600
Cu	Cu	0.71032 0.81851 0.00721 0.90800
Cu	Cu	0.28881 0.73883 0.47175 0.91100
Cu	Cu	0.21365 0.00684 0.69254 0.90800
Cu	Cu	0.20455 0.81328 0.46715 0.90700
Cu	Cu	0.79286 0.74605 0.01010 0.90700
Cu	Cu	0.29662 0.00098 0.76781 0.90800
N 	N 	0.44061 0.76840 0.69315 -0.24700
H 	H 	0.44880 0.73250 0.68000 0.15500
N 	N 	0.55962 0.76670 0.78482 -0.24400
H 	H 	0.54920 0.79880 0.79890 0.15600
N 	N 	0.94180 0.80110 0.23260 -0.24500
H 	H 	0.95100 0.80040 0.26140 0.15300
N 	N 	0.06696 0.75020 0.24052 -0.23300
H 	H 	0.05990 0.75300 0.21200 0.15200
N 	N 	0.56200 0.53770 0.02240 -0.24000
H 	H 	0.55250 0.57720 0.03140 0.15200
N 	N 	0.94287 0.04070 0.99978 -0.24000
H 	H 	0.95370 0.08410 0.99850 0.15200
O 	O 	0.31445 0.75298 0.53518 -0.40800
O 	O 	0.24739 0.82087 0.53278 -0.39300
O 	O 	0.25114 0.93978 0.66975 -0.40600
O 	O 	0.32038 0.93265 0.73312 -0.39400
O 	O 	0.67860 0.58104 0.75817 -0.39400
O 	O 	0.74950 0.58753 0.82072 -0.40600
O 	O 	0.75285 0.73144 0.94643 -0.39500
O 	O 	0.68552 0.80097 0.94251 -0.39100
O 	O 	0.81975 0.77285 0.07386 -0.38700
O 	O 	0.74660 0.82381 0.07255 -0.39400
O 	O 	0.74173 0.93031 0.20999 -0.39900
O 	O 	0.81248 0.92789 0.27337 -0.40700
O 	O 	0.19091 0.57532 0.21935 -0.40000
O 	O 	0.26045 0.57809 0.28355 -0.39500
O 	O 	0.25749 0.72702 0.40760 -0.40600
O 	O 	0.18548 0.78446 0.40256 -0.39200
O 	O 	0.75776 0.66330 0.02390 -0.39500
O 	O 	0.68528 0.72267 0.01471 -0.40700
O 	O 	0.76221 0.39955 0.04203 -0.40100
O 	O 	0.68972 0.33983 0.03495 -0.39400
O 	O 	0.81733 0.84014 0.99727 -0.38800
O 	O 	0.75049 0.90137 0.00144 -0.41000
O 	O 	0.82313 0.22357 0.02152 -0.39700
O 	O 	0.75486 0.15909 0.02116 -0.39700
O 	O 	0.47640 0.85310 0.74880 -0.11800
O 	O 	0.53820 0.72020 0.71480 -0.12400
O 	O 	0.97650 0.79410 0.17730 -0.13400
O 	O 	0.03360 0.76400 0.29700 -0.19300
O 	O 	0.53220 0.43550 0.98220 -0.19700
O 	O 	0.96480 0.92350 0.99892 -0.21600
O 	O 	0.46380 0.81790 0.76250 -0.13200
O 	O 	0.52700 0.68870 0.72590 -0.11500
O 	O 	0.96690 0.75060 0.18080 -0.12100
C 	C 	0.47340 0.24910 0.75486 0.19100
C 	C 	0.52470 0.28910 0.76944 0.19200
C 	C 	0.60807 0.29610 0.82878 0.16200
C 	C 	0.63446 0.28060 0.87454 -0.11700
H 	H 	0.61910 0.25150 0.88960 0.09500
C 	C 	0.68343 0.30820 0.89773 -0.02100
C 	C 	0.70600 0.35060 0.87608 -0.02600
H 	H 	0.73870 0.36890 0.89180 0.07200
C 	C 	0.68095 0.36720 0.83064 -0.02400
C 	C 	0.63209 0.34000 0.80677 -0.11300
H 	H 	0.61540 0.35090 0.77640 0.11800
C 	C 	0.70842 0.29340 0.94758 0.34000
C 	C 	0.70481 0.41780 0.80767 0.34700
C 	C 	0.39055 0.24140 0.69192 0.16100
C 	C 	0.36575 0.26610 0.64790 -0.11800
H 	H 	0.38150 0.29950 0.63540 0.09300
C 	C 	0.31703 0.23980 0.62302 -0.01900
C 	C 	0.29355 0.18910 0.64090 -0.03300
H 	H 	0.26090 0.17190 0.62380 0.07600
C 	C 	0.31950 0.16400 0.68526 -0.01600
C 	C 	0.36747 0.19100 0.71063 -0.11800
H 	H 	0.38440 0.17550 0.74020 0.11800
C 	C 	0.29494 0.10520 0.70318 0.34300
C 	C 	0.29093 0.25940 0.57478 0.32500
C 	C 	0.01970 0.28690 0.28380 0.20000
C 	C 	0.96890 0.26930 0.24470 0.14500
C 	C 	0.10810 0.31590 0.29130 0.18300
C 	C 	0.13124 0.30060 0.33608 -0.13600
H 	H 	0.11280 0.27870 0.35140 0.12700
C 	C 	0.18285 0.31820 0.35884 -0.01200
C 	C 	0.20982 0.35350 0.33638 -0.03700
H 	H 	0.24400 0.36610 0.35180 0.07700
C 	C 	0.18568 0.37010 0.29090 -0.01200
C 	C 	0.13380 0.35350 0.26858 -0.13300
H 	H 	0.11650 0.36750 0.23880 0.09900
C 	C 	0.21272 0.41330 0.26646 0.34300
C 	C 	0.20760 0.30380 0.40758 0.32600
C 	C 	0.88380 0.22530 0.23174 0.15000
C 	C 	0.85973 0.25030 0.18734 -0.10300
H 	H 	0.87660 0.28290 0.17550 0.10600
C 	C 	0.81115 0.22640 0.16120 -0.03000
C 	C 	0.78596 0.17870 0.17933 -0.02500
H 	H 	0.75310 0.16270 0.16190 0.07300
C 	C 	0.80969 0.15470 0.22343 -0.02000
C 	C 	0.85784 0.17980 0.24982 -0.11600
H 	H 	0.87280 0.16600 0.27990 0.09400
C 	C 	0.78468 0.09680 0.24175 0.33700
C 	C 	0.78749 0.24790 0.11332 0.34600
C 	C 	0.47340 0.99140 0.49490 0.16200
C 	C 	0.38640 0.03440 0.47090 0.15700
C 	C 	0.36278 0.09780 0.47430 -0.11900
H 	H 	0.38060 0.14140 0.47830 0.09400
C 	C 	0.31266 0.09800 0.47203 -0.02200
C 	C 	0.28574 0.03230 0.46665 -0.02900
H 	H 	0.25210 0.03180 0.46510 0.07400
C 	C 	0.31044 0.96720 0.46357 -0.02000
C 	C 	0.36020 0.96720 0.46610 -0.10800
H 	H 	0.37640 0.92380 0.46470 0.10700
C 	C 	0.28396 0.89580 0.46183 0.33700
C 	C 	0.28836 0.16750 0.47827 0.34400
C 	C 	0.02580 0.48770 0.49980 0.18300
C 	C 	0.10571 0.53520 0.49878 0.15300
C 	C 	0.13169 0.46920 0.50183 -0.11100
H 	H 	0.11620 0.42620 0.50530 0.11500
C 	C 	0.17915 0.46680 0.49983 -0.02100
C 	C 	0.20326 0.53150 0.49388 -0.03400
H 	H 	0.23560 0.53030 0.49230 0.07600
C 	C 	0.17683 0.59770 0.49035 -0.01400
C 	C 	0.12930 0.60010 0.49184 -0.11300
H 	H 	0.11210 0.64420 0.48830 0.09200
C 	C 	0.20230 0.66540 0.48152 0.33200
C 	C 	0.20665 0.39770 0.50047 0.34100
Cu	Cu	0.28968 0.31851 0.49279 0.90800
Cu	Cu	0.71119 0.23883 0.02825 0.91100
Cu	Cu	0.78634 0.50684 0.80746 0.90800
Cu	Cu	0.79545 0.31328 0.03285 0.90700
Cu	Cu	0.20714 0.24605 0.48990 0.90700
Cu	Cu	0.70338 0.50098 0.73219 0.90800
N 	N 	0.55939 0.26840 0.80685 -0.24700
H 	H 	0.55120 0.23250 0.82000 0.15500
N 	N 	0.44038 0.26670 0.71518 -0.24400
H 	H 	0.45080 0.29880 0.70110 0.15600
N 	N 	0.05820 0.30110 0.26740 -0.24500
H 	H 	0.04900 0.30040 0.23860 0.15400
N 	N 	0.93304 0.25020 0.25948 -0.23200
H 	H 	0.94010 0.25300 0.28800 0.15200
N 	N 	0.43800 0.03770 0.47760 -0.24000
H 	H 	0.44750 0.07720 0.46860 0.15200
N 	N 	0.05713 0.54070 0.50022 -0.24100
H 	H 	0.04630 0.58410 0.50150 0.15200
O 	O 	0.68555 0.25298 0.96482 -0.40800
O 	O 	0.75261 0.32087 0.96722 -0.39200
O 	O 	0.74886 0.43978 0.83025 -0.40600
O 	O 	0.67962 0.43265 0.76688 -0.39500
O 	O 	0.32140 0.08104 0.74183 -0.39400
O 	O 	0.25050 0.08753 0.67928 -0.40600
O 	O 	0.24715 0.23144 0.55357 -0.39500
O 	O 	0.31448 0.30097 0.55749 -0.39100
O 	O 	0.18025 0.27285 0.42614 -0.38700
O 	O 	0.25340 0.32381 0.42745 -0.39400
O 	O 	0.25827 0.43031 0.29001 -0.39800
O 	O 	0.18752 0.42789 0.22663 -0.40700
O 	O 	0.80909 0.07532 0.28065 -0.40000
O 	O 	0.73955 0.07809 0.21645 -0.39500
O 	O 	0.74251 0.22702 0.09240 -0.40500
O 	O 	0.81452 0.28446 0.09744 -0.39200
O 	O 	0.24224 0.16330 0.47610 -0.39500
O 	O 	0.31472 0.22267 0.48529 -0.40700
O 	O 	0.23779 0.89955 0.45797 -0.40000
O 	O 	0.31028 0.83983 0.46505 -0.39400
O 	O 	0.18267 0.34014 0.50273 -0.38700
O 	O 	0.24951 0.40137 0.49856 -0.40900
O 	O 	0.17687 0.72357 0.47848 -0.39700
O 	O 	0.24514 0.65909 0.47884 -0.39700
O 	O 	0.52360 0.35310 0.75120 -0.11800
O 	O 	0.46180 0.22020 0.78520 -0.12400
O 	O 	0.02350 0.29410 0.32270 -0.13400
O 	O 	0.96640 0.26400 0.20300 -0.19300
O 	O 	0.46780 0.93550 0.51780 -0.19700
O 	O 	0.03520 0.42350 0.50108 -0.21800
O 	O 	0.53620 0.31790 0.73750 -0.13200
O 	O 	0.47300 0.18870 0.77410 -0.11500
O 	O 	0.03310 0.25060 0.31920 -0.12100
