data_crystal

_cell_length_a 10.50810
_cell_length_b 12.29600
_cell_length_c 16.67140
_cell_angle_alpha 90.00000
_cell_angle_beta  90.00000
_cell_angle_gamma 90.00000

_symmetry_space_group_name_	'P 1'
_symmetry_space_group_name_H-M	'P 1'

loop_
_symmetry_equiv_pos_as_xyz
  x,y,z

loop_
_atom_site_label
_atom_site_type_symbol
_atom_site_fract_x
_atom_site_fract_y
_atom_site_fract_z
_atom_site_charge
Zn	Zn	0.40095 0.25000 0.75000 1.21300
Zn	Zn	0.59905 0.75000 0.25000 1.21300
H 	H 	0.56780 0.97290 0.63250 0.15600
H 	H 	0.43220 0.47290 0.13250 0.15700
H 	H 	0.09590 0.55430 0.45500 0.09300
H 	H 	0.12640 0.94110 0.83700 0.11000
H 	H 	0.39010 0.94360 0.51940 0.02600
H 	H 	0.07710 0.21080 0.96640 0.12000
H 	H 	0.04000 0.44030 0.43140 0.09100
H 	H 	0.31660 0.54310 0.10490 0.15200
H 	H 	0.76100 0.71010 0.10450 -0.03800
H 	H 	0.56780 0.52710 0.86750 0.15700
H 	H 	0.60990 0.05640 0.48060 0.02600
H 	H 	0.09590 0.94570 0.04500 0.09300
H 	H 	0.23900 0.28990 0.89550 -0.03800
H 	H 	0.90410 0.05430 0.95500 0.09300
H 	H 	0.28080 0.46970 0.73490 -0.02600
H 	H 	0.76100 0.78990 0.39550 -0.03800
H 	H 	0.68340 0.45690 0.89510 0.15200
H 	H 	0.71920 0.96970 0.23490 -0.02600
H 	H 	0.68340 0.04310 0.60490 0.15200
H 	H 	0.43220 0.02710 0.36750 0.15600
H 	H 	0.71920 0.53030 0.26510 -0.02600
H 	H 	0.04000 0.05970 0.06860 0.08900
H 	H 	0.23900 0.21010 0.60450 -0.03800
H 	H 	0.60650 0.93390 0.50480 0.02000
H 	H 	0.60650 0.56610 0.99520 0.02000
H 	H 	0.96000 0.55970 0.56860 0.09100
H 	H 	0.39010 0.55640 0.98060 0.02600
H 	H 	0.87360 0.05890 0.16300 0.11000
H 	H 	0.28080 0.03030 0.76510 -0.02600
H 	H 	0.60990 0.44360 0.01940 0.02600
H 	H 	0.90410 0.44570 0.54500 0.09300
H 	H 	0.39350 0.43390 0.00480 0.02000
H 	H 	0.96000 0.94030 0.93140 0.08900
H 	H 	0.07710 0.28920 0.53360 0.12000
H 	H 	0.92290 0.78920 0.03360 0.12000
H 	H 	0.87360 0.44110 0.33700 0.11000
H 	H 	0.31660 0.95690 0.39510 0.15200
H 	H 	0.12640 0.55890 0.66300 0.11000
H 	H 	0.92290 0.71080 0.46640 0.12000
H 	H 	0.39350 0.06610 0.49520 0.02000
C 	C 	0.01990 0.50960 0.45620 -0.18800
C 	C 	0.78590 0.71950 0.38260 0.12700
C 	C 	0.21410 0.21950 0.88260 0.12600
C 	C 	0.98010 0.49040 0.54380 -0.18800
C 	C 	0.11830 0.32800 0.57390 -0.22600
C 	C 	0.59220 0.03410 0.59920 -0.41000
C 	C 	0.76020 0.56690 0.30650 0.12100
C 	C 	0.88170 0.82800 0.07390 -0.22500
C 	C 	0.23980 0.43310 0.69350 0.12100
C 	C 	0.98010 0.00960 0.95620 -0.18500
C 	C 	0.11830 0.17200 0.92610 -0.22500
C 	C 	0.76020 0.93310 0.19350 0.12100
C 	C 	0.47000 0.63310 0.13290 0.45000
C 	C 	0.14610 0.48710 0.65060 -0.22500
C 	C 	0.23980 0.06690 0.80650 0.12100
C 	C 	0.88170 0.67200 0.42610 -0.22600
C 	C 	0.56650 0.49620 0.98570 0.01900
C 	C 	0.40780 0.53410 0.09920 -0.41000
C 	C 	0.53000 0.36690 0.86710 0.45000
C 	C 	0.21410 0.28050 0.61740 0.12700
C 	C 	0.08310 0.06430 0.90940 0.17500
C 	C 	0.85390 0.51290 0.34940 -0.22500
C 	C 	0.56650 0.00380 0.51430 0.01900
C 	C 	0.40780 0.96590 0.40080 -0.41000
C 	C 	0.91690 0.93570 0.09060 0.17500
C 	C 	0.14610 0.01290 0.84940 -0.22600
C 	C 	0.85390 0.98710 0.15060 -0.22600
C 	C 	0.91690 0.56430 0.40940 0.17800
C 	C 	0.59220 0.46590 0.90080 -0.41000
C 	C 	0.01990 0.99040 0.04380 -0.18500
C 	C 	0.78590 0.78050 0.11740 0.12600
C 	C 	0.08310 0.43570 0.59060 0.17800
C 	C 	0.43350 0.99620 0.48570 0.01900
C 	C 	0.43350 0.50380 0.01430 0.01900
C 	C 	0.47000 0.86690 0.36710 0.45000
C 	C 	0.53000 0.13310 0.63290 0.45000
N 	N 	0.72680 0.83130 0.17779 -0.28300
N 	N 	0.27320 0.33130 0.67779 -0.28300
N 	N 	0.27320 0.16870 0.82221 -0.28300
N 	N 	0.72680 0.66870 0.32221 -0.28300
O 	O 	0.45610 0.77820 0.40280 -0.34800
O 	O 	0.52330 0.87290 0.30045 -0.52500
O 	O 	0.54390 0.27820 0.90280 -0.34800
O 	O 	0.47670 0.37290 0.80045 -0.52500
O 	O 	0.47670 0.12710 0.69955 -0.52500
O 	O 	0.45610 0.72180 0.09720 -0.34800
O 	O 	0.54390 0.22180 0.59720 -0.34800
O 	O 	0.52330 0.62710 0.19955 -0.52500
Zn	Zn	0.90095 0.75000 0.75000 1.21300
Zn	Zn	0.09905 0.25000 0.25000 1.21300
H 	H 	0.26100 0.28990 0.10450 -0.03800
H 	H 	0.78080 0.53030 0.73490 -0.02600
H 	H 	0.57710 0.71080 0.53360 0.12100
H 	H 	0.93220 0.97290 0.36750 0.15500
H 	H 	0.93220 0.52710 0.13250 0.15600
H 	H 	0.89350 0.93390 0.49520 0.01900
H 	H 	0.40410 0.94570 0.95500 0.09300
H 	H 	0.06780 0.47290 0.86750 0.15600
H 	H 	0.37360 0.94110 0.16300 0.11000
H 	H 	0.42290 0.28920 0.46640 0.12100
H 	H 	0.73900 0.71010 0.89550 -0.03800
H 	H 	0.10990 0.55640 0.01940 0.02800
H 	H 	0.06780 0.02710 0.63250 0.15500
H 	H 	0.89350 0.56610 0.00480 0.02000
H 	H 	0.10990 0.94360 0.48060 0.02600
H 	H 	0.46000 0.44030 0.56860 0.09100
H 	H 	0.26100 0.21010 0.39550 -0.03800
H 	H 	0.78080 0.96970 0.76510 -0.02600
H 	H 	0.59590 0.44570 0.45500 0.09300
H 	H 	0.10650 0.06610 0.50480 0.01900
H 	H 	0.89010 0.44360 0.98060 0.02800
H 	H 	0.62640 0.44110 0.66300 0.11000
H 	H 	0.54000 0.94030 0.06860 0.09100
H 	H 	0.21920 0.03030 0.23490 -0.02600
H 	H 	0.10650 0.43390 0.99520 0.02000
H 	H 	0.37360 0.55890 0.33700 0.11000
H 	H 	0.81660 0.04310 0.39510 0.15200
H 	H 	0.42290 0.21080 0.03360 0.12100
H 	H 	0.62640 0.05890 0.83700 0.11000
H 	H 	0.21920 0.46970 0.26510 -0.02600
H 	H 	0.59590 0.05430 0.04500 0.09300
H 	H 	0.46000 0.05970 0.93140 0.09100
H 	H 	0.40410 0.55430 0.54500 0.09300
H 	H 	0.81660 0.45690 0.10490 0.15200
H 	H 	0.54000 0.55970 0.43140 0.09100
H 	H 	0.18340 0.95690 0.60490 0.15200
H 	H 	0.73900 0.78990 0.60450 -0.03800
H 	H 	0.18340 0.54310 0.89510 0.15200
H 	H 	0.89010 0.05640 0.51940 0.02600
H 	H 	0.57710 0.78920 0.96640 0.12100
C 	C 	0.73980 0.56690 0.69350 0.12100
C 	C 	0.06650 0.99620 0.51430 0.02000
C 	C 	0.64610 0.51290 0.65060 -0.22500
C 	C 	0.06650 0.50380 0.98570 0.01700
C 	C 	0.38170 0.17200 0.07390 -0.22700
C 	C 	0.09220 0.53410 0.90080 -0.40800
C 	C 	0.28590 0.28050 0.38260 0.12700
C 	C 	0.41690 0.06430 0.09060 0.17800
C 	C 	0.90780 0.03410 0.40080 -0.40800
C 	C 	0.03000 0.63310 0.86710 0.44800
C 	C 	0.61830 0.82800 0.92610 -0.22700
C 	C 	0.61830 0.67200 0.57390 -0.22600
C 	C 	0.38170 0.32800 0.42610 -0.22600
C 	C 	0.71410 0.78050 0.88260 0.12700
C 	C 	0.64610 0.98710 0.84940 -0.22600
C 	C 	0.97000 0.36690 0.13290 0.44800
C 	C 	0.35390 0.01290 0.15060 -0.22600
C 	C 	0.48010 0.99040 0.95620 -0.18900
C 	C 	0.58310 0.56430 0.59060 0.17800
C 	C 	0.51990 0.49040 0.45620 -0.18900
C 	C 	0.09220 0.96590 0.59920 -0.40800
C 	C 	0.41690 0.43570 0.40940 0.17800
C 	C 	0.93350 0.49620 0.01430 0.01700
C 	C 	0.51990 0.00960 0.04380 -0.18900
C 	C 	0.71410 0.71950 0.61740 0.12700
C 	C 	0.35390 0.48710 0.34940 -0.22500
C 	C 	0.48010 0.50960 0.54380 -0.18900
C 	C 	0.28590 0.21950 0.11740 0.12700
C 	C 	0.90780 0.46590 0.09920 -0.40800
C 	C 	0.58310 0.93570 0.90940 0.17800
C 	C 	0.73980 0.93310 0.80650 0.12100
C 	C 	0.93350 0.00380 0.48570 0.02000
C 	C 	0.03000 0.86690 0.63290 0.45000
C 	C 	0.97000 0.13310 0.36710 0.45000
C 	C 	0.26020 0.06690 0.19350 0.12100
C 	C 	0.26020 0.43310 0.30650 0.12100
N 	N 	0.77320 0.83130 0.82221 -0.28300
N 	N 	0.22680 0.33130 0.32221 -0.28300
N 	N 	0.22680 0.16870 0.17779 -0.28300
N 	N 	0.77320 0.66870 0.67779 -0.28300
O 	O 	0.97670 0.87290 0.69955 -0.52500
O 	O 	0.97670 0.62710 0.80045 -0.52400
O 	O 	0.02330 0.37290 0.19955 -0.52400
O 	O 	0.04390 0.77820 0.59720 -0.34800
O 	O 	0.95610 0.27820 0.09720 -0.34800
O 	O 	0.04390 0.72180 0.90280 -0.34800
O 	O 	0.95610 0.22180 0.40280 -0.34800
O 	O 	0.02330 0.12710 0.30045 -0.52500
