data_crystal

_cell_length_a 20.45800
_cell_length_b 12.11570
_cell_length_c 16.97100
_cell_angle_alpha 90.00000
_cell_angle_beta  90.00000
_cell_angle_gamma 90.00000

_symmetry_space_group_name_	'P 1'
_symmetry_space_group_name_H-M	'P 1'

loop_
_symmetry_equiv_pos_as_xyz
  x,y,z

loop_
_atom_site_label
_atom_site_type_symbol
_atom_site_fract_x
_atom_site_fract_y
_atom_site_fract_z
_atom_site_charge
Zn	Zn	0.91250 0.54354 0.44291 1.23800
O 	O 	0.97623 0.44080 0.40290 -0.43400
O 	O 	0.05703 0.54960 0.32304 -0.46800
O 	O 	0.09417 0.46230 0.44514 -0.43300
O 	O 	0.05910 0.72800 0.20810 -0.50600
O 	O 	0.07665 0.70480 0.08030 -0.49100
O 	O 	0.32694 0.03560 0.10620 -0.44600
O 	O 	0.30719 0.87830 0.04280 -0.28900
P 	P 	0.04626 0.45137 0.37768 0.41200
C 	C 	0.06870 0.32980 0.32280 -0.12200
C 	C 	0.10560 0.33940 0.25460 0.06100
H 	H 	0.11600 0.40930 0.23560 0.00700
C 	C 	0.12710 0.24740 0.21440 -0.15300
H 	H 	0.15120 0.25630 0.16840 0.09500
C 	C 	0.11370 0.14250 0.24120 0.09700
C 	C 	0.13840 0.04440 0.19770 -0.05500
C 	C 	0.19990 0.04410 0.16310 0.01000
H 	H 	0.22650 0.10590 0.16860 0.05100
C 	C 	0.22300 0.95450 0.12060 -0.09200
C 	C 	0.18300 0.86360 0.11020 0.05300
H 	H 	0.19690 0.80490 0.07900 0.03700
C 	C 	0.12220 0.86020 0.14620 -0.13300
C 	C 	0.10060 0.94950 0.19000 0.03300
H 	H 	0.06010 0.94600 0.21470 0.01500
C 	C 	0.07700 0.13290 0.30960 -0.14900
H 	H 	0.06720 0.06310 0.32900 0.07800
C 	C 	0.05490 0.22480 0.34960 0.05500
H 	H 	0.03040 0.21580 0.39520 0.00600
C 	C 	0.29050 0.95520 0.08590 0.33900
C 	C 	0.08250 0.75640 0.14370 0.43000
Zn	Zn	0.58750 0.95646 0.94291 1.23200
O 	O 	0.52377 0.05920 0.90290 -0.49200
O 	O 	0.44297 0.95040 0.82304 -0.45800
O 	O 	0.40583 0.03770 0.94514 -0.43200
O 	O 	0.44090 0.77200 0.70810 -0.48600
O 	O 	0.42335 0.79520 0.58030 -0.47700
O 	O 	0.17306 0.46440 0.60620 -0.44500
O 	O 	0.19281 0.62170 0.54280 -0.29300
P 	P 	0.45374 0.04863 0.87768 0.46600
C 	C 	0.43130 0.17020 0.82280 -0.11500
C 	C 	0.39440 0.16060 0.75460 0.06600
H 	H 	0.38400 0.09070 0.73560 0.00900
C 	C 	0.37290 0.25260 0.71440 -0.14800
H 	H 	0.34880 0.24370 0.66840 0.09700
C 	C 	0.38630 0.35750 0.74120 0.10100
C 	C 	0.36160 0.45560 0.69770 -0.04400
C 	C 	0.30010 0.45590 0.66310 0.00900
H 	H 	0.27350 0.39410 0.66860 0.05200
C 	C 	0.27700 0.54550 0.62060 -0.09000
C 	C 	0.31700 0.63640 0.61020 0.04800
H 	H 	0.30310 0.69510 0.57900 0.03900
C 	C 	0.37780 0.63980 0.64620 -0.12100
C 	C 	0.39940 0.55050 0.69000 0.02500
H 	H 	0.43990 0.55400 0.71470 0.03400
C 	C 	0.42300 0.36710 0.80960 -0.14200
H 	H 	0.43280 0.43690 0.82900 0.08900
C 	C 	0.44510 0.27520 0.84960 0.06300
H 	H 	0.46960 0.28420 0.89520 0.02300
C 	C 	0.20950 0.54480 0.58590 0.33700
C 	C 	0.41750 0.74360 0.64370 0.42800
Zn	Zn	0.08750 0.54354 0.05709 1.23000
O 	O 	0.02377 0.44080 0.09710 -0.54800
O 	O 	0.94297 0.54960 0.17696 -0.43600
O 	O 	0.90583 0.46230 0.05486 -0.43100
O 	O 	0.94090 0.72800 0.29190 -0.45600
O 	O 	0.92335 0.70480 0.41970 -0.46000
O 	O 	0.67306 0.03560 0.39380 -0.44400
O 	O 	0.69281 0.87830 0.45720 -0.28800
P 	P 	0.95374 0.45137 0.12232 0.51800
C 	C 	0.93130 0.32980 0.17720 -0.10700
C 	C 	0.89440 0.33940 0.24540 0.07100
H 	H 	0.88400 0.40930 0.26440 0.01000
C 	C 	0.87290 0.24740 0.28560 -0.14200
H 	H 	0.84880 0.25630 0.33160 0.09900
C 	C 	0.88630 0.14250 0.25880 0.10500
C 	C 	0.86160 0.04440 0.30230 -0.03400
C 	C 	0.80010 0.04410 0.33690 0.00300
H 	H 	0.77350 0.10590 0.33140 0.05400
C 	C 	0.77700 0.95450 0.37940 -0.08200
C 	C 	0.81700 0.86360 0.38980 0.04200
H 	H 	0.80310 0.80490 0.42100 0.04200
C 	C 	0.87780 0.86020 0.35380 -0.10600
C 	C 	0.89940 0.94950 0.31000 0.01900
H 	H 	0.93990 0.94600 0.28530 0.05400
C 	C 	0.92300 0.13290 0.19040 -0.13400
H 	H 	0.93280 0.06310 0.17100 0.09900
C 	C 	0.94510 0.22480 0.15040 0.07100
H 	H 	0.96960 0.21580 0.10480 0.03900
C 	C 	0.70950 0.95520 0.41410 0.33500
C 	C 	0.91750 0.75640 0.35630 0.42300
Zn	Zn	0.41250 0.95646 0.55709 1.23300
O 	O 	0.47623 0.05920 0.59710 -0.49300
O 	O 	0.55703 0.95040 0.67696 -0.45700
O 	O 	0.59417 0.03770 0.55486 -0.43200
O 	O 	0.55910 0.77200 0.79190 -0.48600
O 	O 	0.57665 0.79520 0.91970 -0.47800
O 	O 	0.82694 0.46440 0.89380 -0.44200
O 	O 	0.80719 0.62170 0.95720 -0.28500
P 	P 	0.54626 0.04863 0.62232 0.46600
C 	C 	0.56870 0.17020 0.67720 -0.11500
C 	C 	0.60560 0.16060 0.74540 0.06600
H 	H 	0.61600 0.09070 0.76440 0.00900
C 	C 	0.62710 0.25260 0.78560 -0.14700
H 	H 	0.65120 0.24370 0.83160 0.09700
C 	C 	0.61370 0.35750 0.75880 0.10100
C 	C 	0.63840 0.45560 0.80230 -0.04300
C 	C 	0.69990 0.45590 0.83690 0.00700
H 	H 	0.72650 0.39410 0.83140 0.05200
C 	C 	0.72300 0.54550 0.87940 -0.08800
C 	C 	0.68300 0.63640 0.88980 0.04700
H 	H 	0.69690 0.69510 0.92100 0.04000
C 	C 	0.62220 0.63980 0.85380 -0.12000
C 	C 	0.60060 0.55050 0.81000 0.02400
H 	H 	0.56010 0.55400 0.78530 0.03400
C 	C 	0.57700 0.36710 0.69040 -0.14100
H 	H 	0.56720 0.43690 0.67100 0.08900
C 	C 	0.55490 0.27520 0.65040 0.06300
H 	H 	0.53040 0.28420 0.60480 0.02300
C 	C 	0.79050 0.54480 0.91410 0.33400
C 	C 	0.58250 0.74360 0.85630 0.42800
Zn	Zn	0.08750 0.45646 0.55709 1.23000
O 	O 	0.02377 0.55920 0.59710 -0.54800
O 	O 	0.94297 0.45040 0.67696 -0.43600
O 	O 	0.90583 0.53770 0.55486 -0.43100
O 	O 	0.94090 0.27200 0.79190 -0.45700
O 	O 	0.92335 0.29520 0.91970 -0.46100
O 	O 	0.67306 0.96440 0.89380 -0.44600
O 	O 	0.69281 0.12170 0.95720 -0.28800
P 	P 	0.95374 0.54863 0.62232 0.51800
C 	C 	0.93130 0.67020 0.67720 -0.10700
C 	C 	0.89440 0.66060 0.74540 0.07100
H 	H 	0.88400 0.59070 0.76440 0.01000
C 	C 	0.87290 0.75260 0.78560 -0.14200
H 	H 	0.84880 0.74370 0.83160 0.09800
C 	C 	0.88630 0.85750 0.75880 0.10400
C 	C 	0.86160 0.95560 0.80230 -0.03500
C 	C 	0.80010 0.95590 0.83690 0.00100
H 	H 	0.77350 0.89410 0.83140 0.05400
C 	C 	0.77700 0.04550 0.87940 -0.08100
C 	C 	0.81700 0.13640 0.88980 0.04200
H 	H 	0.80310 0.19510 0.92100 0.04200
C 	C 	0.87780 0.13980 0.85380 -0.10700
C 	C 	0.89940 0.05050 0.81000 0.02000
H 	H 	0.93990 0.05400 0.78530 0.05300
C 	C 	0.92300 0.86710 0.69040 -0.13400
H 	H 	0.93280 0.93690 0.67100 0.09900
C 	C 	0.94510 0.77520 0.65040 0.07100
H 	H 	0.96960 0.78420 0.60480 0.03900
C 	C 	0.70950 0.04480 0.91410 0.33700
C 	C 	0.91750 0.24360 0.85630 0.42400
Zn	Zn	0.41250 0.04354 0.05709 1.23300
O 	O 	0.47623 0.94080 0.09710 -0.49200
O 	O 	0.55703 0.04960 0.17696 -0.45800
O 	O 	0.59417 0.96230 0.05486 -0.43000
O 	O 	0.55910 0.22800 0.29190 -0.48600
O 	O 	0.57665 0.20480 0.41970 -0.47700
O 	O 	0.82694 0.53560 0.39380 -0.44200
O 	O 	0.80719 0.37830 0.45720 -0.28400
P 	P 	0.54626 0.95137 0.12232 0.46600
C 	C 	0.56870 0.82980 0.17720 -0.11500
C 	C 	0.60560 0.83940 0.24540 0.06600
H 	H 	0.61600 0.90930 0.26440 0.00900
C 	C 	0.62710 0.74740 0.28560 -0.14700
H 	H 	0.65120 0.75630 0.33160 0.09700
C 	C 	0.61370 0.64250 0.25880 0.10000
C 	C 	0.63840 0.54440 0.30230 -0.04300
C 	C 	0.69990 0.54410 0.33690 0.00700
H 	H 	0.72650 0.60590 0.33140 0.05300
C 	C 	0.72300 0.45450 0.37940 -0.08700
C 	C 	0.68300 0.36360 0.38980 0.04700
H 	H 	0.69690 0.30490 0.42100 0.04000
C 	C 	0.62220 0.36020 0.35380 -0.12000
C 	C 	0.60060 0.44950 0.31000 0.02400
H 	H 	0.56010 0.44600 0.28530 0.03400
C 	C 	0.57700 0.63290 0.19040 -0.14100
H 	H 	0.56720 0.56310 0.17100 0.08900
C 	C 	0.55490 0.72480 0.15040 0.06300
H 	H 	0.53040 0.71580 0.10480 0.02300
C 	C 	0.79050 0.45520 0.41410 0.33400
C 	C 	0.58250 0.25640 0.35630 0.42800
Zn	Zn	0.91250 0.45646 0.94291 1.23700
O 	O 	0.97623 0.55920 0.90290 -0.43700
O 	O 	0.05703 0.45040 0.82304 -0.46700
O 	O 	0.09417 0.53770 0.94514 -0.43300
O 	O 	0.05910 0.27200 0.70810 -0.50600
O 	O 	0.07665 0.29520 0.58030 -0.49200
O 	O 	0.32694 0.96440 0.60620 -0.44500
O 	O 	0.30719 0.12170 0.54280 -0.29000
P 	P 	0.04626 0.54863 0.87768 0.41300
C 	C 	0.06870 0.67020 0.82280 -0.12200
C 	C 	0.10560 0.66060 0.75460 0.06100
H 	H 	0.11600 0.59070 0.73560 0.00700
C 	C 	0.12710 0.75260 0.71440 -0.15300
H 	H 	0.15120 0.74370 0.66840 0.09500
C 	C 	0.11370 0.85750 0.74120 0.09700
C 	C 	0.13840 0.95560 0.69770 -0.05500
C 	C 	0.19990 0.95590 0.66310 0.01100
H 	H 	0.22650 0.89410 0.66860 0.05000
C 	C 	0.22300 0.04550 0.62060 -0.09300
C 	C 	0.18300 0.13640 0.61020 0.05300
H 	H 	0.19690 0.19510 0.57900 0.03700
C 	C 	0.12220 0.13980 0.64620 -0.13300
C 	C 	0.10060 0.05050 0.69000 0.03200
H 	H 	0.06010 0.05400 0.71470 0.01500
C 	C 	0.07700 0.86710 0.80960 -0.14900
H 	H 	0.06720 0.93690 0.82900 0.07800
C 	C 	0.05490 0.77520 0.84960 0.05500
H 	H 	0.03040 0.78420 0.89520 0.00600
C 	C 	0.29050 0.04480 0.58590 0.33700
C 	C 	0.08250 0.24360 0.64370 0.43000
Zn	Zn	0.58750 0.04354 0.44291 1.23300
O 	O 	0.52377 0.94080 0.40290 -0.49300
O 	O 	0.44297 0.04960 0.32304 -0.45700
O 	O 	0.40583 0.96230 0.44514 -0.43200
O 	O 	0.44090 0.22800 0.20810 -0.48600
O 	O 	0.42335 0.20480 0.08030 -0.47700
O 	O 	0.17306 0.53560 0.10620 -0.44500
O 	O 	0.19281 0.37830 0.04280 -0.29300
P 	P 	0.45374 0.95137 0.37768 0.46600
C 	C 	0.43130 0.82980 0.32280 -0.11500
C 	C 	0.39440 0.83940 0.25460 0.06600
H 	H 	0.38400 0.90930 0.23560 0.00900
C 	C 	0.37290 0.74740 0.21440 -0.14800
H 	H 	0.34880 0.75630 0.16840 0.09700
C 	C 	0.38630 0.64250 0.24120 0.10100
C 	C 	0.36160 0.54440 0.19770 -0.04400
C 	C 	0.30010 0.54410 0.16310 0.00900
H 	H 	0.27350 0.60590 0.16860 0.05200
C 	C 	0.27700 0.45450 0.12060 -0.09000
C 	C 	0.31700 0.36360 0.11020 0.04900
H 	H 	0.30310 0.30490 0.07900 0.03900
C 	C 	0.37780 0.36020 0.14620 -0.12100
C 	C 	0.39940 0.44950 0.19000 0.02500
H 	H 	0.43990 0.44600 0.21470 0.03400
C 	C 	0.42300 0.63290 0.30960 -0.14200
H 	H 	0.43280 0.56310 0.32900 0.08900
C 	C 	0.44510 0.72480 0.34960 0.06300
H 	H 	0.46960 0.71580 0.39520 0.02300
C 	C 	0.20950 0.45520 0.08590 0.33700
C 	C 	0.41750 0.25640 0.14370 0.42800
Zn	Zn	0.00000 0.61899 0.25000 1.21400
Zn	Zn	0.50000 0.88101 0.75000 1.23600
Zn	Zn	0.00000 0.38101 0.75000 1.21400
Zn	Zn	0.50000 0.11899 0.25000 1.23600
