data_crystal

_cell_length_a 21.54000
_cell_length_b 9.16800
_cell_length_c 23.32100
_cell_angle_alpha 90.00000
_cell_angle_beta  101.73600
_cell_angle_gamma 90.00000

_symmetry_space_group_name_	'P 1'
_symmetry_space_group_name_H-M	'P 1'

loop_
_symmetry_equiv_pos_as_xyz
  x,y,z

loop_
_atom_site_label
_atom_site_type_symbol
_atom_site_fract_x
_atom_site_fract_y
_atom_site_fract_z
_atom_site_charge
Zn	Zn	0.08478 0.62344 0.50414 1.24100
O 	O 	0.22256 0.55590 0.49331 -0.27100
O 	O 	0.13789 0.67890 0.44897 -0.42300
O 	O 	0.41960 0.76140 0.42695 -0.44100
O 	O 	0.41392 0.72560 0.33313 -0.24500
O 	O 	0.09825 0.58000 0.02091 -0.42600
O 	O 	0.06600 0.83990 0.01827 -0.20900
O 	O 	0.99570 0.64800 0.05061 -0.42600
P 	P 	0.06281 0.69518 0.04798 0.44400
C 	C 	0.19356 0.62680 0.45248 0.34400
C 	C 	0.22412 0.66280 0.40180 -0.07500
C 	C 	0.28932 0.68280 0.41168 0.03700
H 	H 	0.31370 0.67160 0.44920 0.02500
C 	C 	0.31804 0.71940 0.36576 -0.11800
C 	C 	0.38850 0.73750 0.37544 0.36300
C 	C 	0.28110 0.73300 0.30966 0.00600
H 	H 	0.30060 0.75800 0.27890 0.04600
C 	C 	0.21636 0.71030 0.29835 -0.02800
C 	C 	0.17733 0.71520 0.23816 0.07600
C 	C 	0.18496 0.82210 0.19792 -0.10900
H 	H 	0.21460 0.89580 0.20910 0.08200
C 	C 	0.14910 0.82080 0.14138 0.03700
H 	H 	0.15500 0.89370 0.11520 0.04500
C 	C 	0.10444 0.71200 0.12318 -0.07300
C 	C 	0.09639 0.60710 0.16333 0.03000
H 	H 	0.06620 0.53430 0.15240 0.04000
C 	C 	0.13231 0.60850 0.21939 -0.11300
H 	H 	0.12620 0.53570 0.24540 0.08500
C 	C 	0.18817 0.67610 0.34550 -0.00500
H 	H 	0.14450 0.66190 0.33910 0.05600
Zn	Zn	0.58478 0.12344 0.50414 1.24100
O 	O 	0.72256 0.05590 0.49331 -0.27100
O 	O 	0.63789 0.17890 0.44897 -0.42300
O 	O 	0.91960 0.26140 0.42695 -0.44100
O 	O 	0.91392 0.22560 0.33313 -0.24400
O 	O 	0.59825 0.08000 0.02091 -0.42500
O 	O 	0.56600 0.33990 0.01827 -0.20800
O 	O 	0.49570 0.14800 0.05061 -0.42700
P 	P 	0.56281 0.19518 0.04798 0.44500
C 	C 	0.69356 0.12680 0.45248 0.34400
C 	C 	0.72412 0.16280 0.40180 -0.07400
C 	C 	0.78932 0.18280 0.41168 0.03700
H 	H 	0.81370 0.17160 0.44920 0.02500
C 	C 	0.81804 0.21940 0.36576 -0.11700
C 	C 	0.88850 0.23750 0.37544 0.36300
C 	C 	0.78110 0.23300 0.30966 0.00600
H 	H 	0.80060 0.25800 0.27890 0.04700
C 	C 	0.71636 0.21030 0.29835 -0.02800
C 	C 	0.67733 0.21520 0.23816 0.07600
C 	C 	0.68496 0.32210 0.19792 -0.10900
H 	H 	0.71460 0.39580 0.20910 0.08200
C 	C 	0.64910 0.32080 0.14138 0.03700
H 	H 	0.65500 0.39370 0.11520 0.04600
C 	C 	0.60444 0.21200 0.12318 -0.07200
C 	C 	0.59639 0.10710 0.16333 0.03000
H 	H 	0.56620 0.03430 0.15240 0.04100
C 	C 	0.63231 0.10850 0.21939 -0.11200
H 	H 	0.62620 0.03570 0.24540 0.08500
C 	C 	0.68817 0.17610 0.34550 -0.00500
H 	H 	0.64450 0.16190 0.33910 0.05700
Zn	Zn	0.91522 0.62344 0.99586 1.24000
O 	O 	0.77744 0.55590 0.00669 -0.27000
O 	O 	0.86211 0.67890 0.05103 -0.42200
O 	O 	0.58040 0.76140 0.07305 -0.44200
O 	O 	0.58608 0.72560 0.16687 -0.24500
O 	O 	0.90175 0.58000 0.47909 -0.42600
O 	O 	0.93400 0.83990 0.48173 -0.20800
O 	O 	0.00430 0.64800 0.44939 -0.42800
P 	P 	0.93719 0.69518 0.45202 0.44500
C 	C 	0.80644 0.62680 0.04752 0.34400
C 	C 	0.77588 0.66280 0.09820 -0.07400
C 	C 	0.71068 0.68280 0.08832 0.03700
H 	H 	0.68630 0.67160 0.05080 0.02500
C 	C 	0.68196 0.71940 0.13424 -0.11700
C 	C 	0.61150 0.73750 0.12456 0.36300
C 	C 	0.71890 0.73300 0.19034 0.00600
H 	H 	0.69940 0.75800 0.22110 0.04600
C 	C 	0.78364 0.71030 0.20165 -0.02800
C 	C 	0.82267 0.71520 0.26184 0.07600
C 	C 	0.81504 0.82210 0.30208 -0.10900
H 	H 	0.78540 0.89580 0.29090 0.08200
C 	C 	0.85090 0.82080 0.35862 0.03700
H 	H 	0.84500 0.89370 0.38480 0.04600
C 	C 	0.89556 0.71200 0.37682 -0.07300
C 	C 	0.90361 0.60710 0.33667 0.03000
H 	H 	0.93380 0.53430 0.34760 0.04000
C 	C 	0.86769 0.60850 0.28061 -0.11300
H 	H 	0.87380 0.53570 0.25460 0.08500
C 	C 	0.81183 0.67610 0.15450 -0.00500
H 	H 	0.85550 0.66190 0.16090 0.05700
Zn	Zn	0.41522 0.12344 0.99586 1.24000
O 	O 	0.27744 0.05590 0.00669 -0.27100
O 	O 	0.36211 0.17890 0.05103 -0.42200
O 	O 	0.08040 0.26140 0.07305 -0.44200
O 	O 	0.08608 0.22560 0.16687 -0.24500
O 	O 	0.40175 0.08000 0.47909 -0.42600
O 	O 	0.43400 0.33990 0.48173 -0.20800
O 	O 	0.50430 0.14800 0.44939 -0.42800
P 	P 	0.43719 0.19518 0.45202 0.44500
C 	C 	0.30644 0.12680 0.04752 0.34400
C 	C 	0.27588 0.16280 0.09820 -0.07400
C 	C 	0.21068 0.18280 0.08832 0.03700
H 	H 	0.18630 0.17160 0.05080 0.02500
C 	C 	0.18196 0.21940 0.13424 -0.11700
C 	C 	0.11150 0.23750 0.12456 0.36300
C 	C 	0.21890 0.23300 0.19034 0.00600
H 	H 	0.19940 0.25800 0.22110 0.04700
C 	C 	0.28364 0.21030 0.20165 -0.02800
C 	C 	0.32267 0.21520 0.26184 0.07600
C 	C 	0.31504 0.32210 0.30208 -0.10900
H 	H 	0.28540 0.39580 0.29090 0.08200
C 	C 	0.35090 0.32080 0.35862 0.03700
H 	H 	0.34500 0.39370 0.38480 0.04600
C 	C 	0.39556 0.21200 0.37682 -0.07200
C 	C 	0.40361 0.10710 0.33667 0.03000
H 	H 	0.43380 0.03430 0.34760 0.04000
C 	C 	0.36769 0.10850 0.28061 -0.11300
H 	H 	0.37380 0.03570 0.25460 0.08500
C 	C 	0.31183 0.17610 0.15450 -0.00500
H 	H 	0.35550 0.16190 0.16090 0.05700
Zn	Zn	0.91522 0.37656 0.49586 1.24100
O 	O 	0.77744 0.44410 0.50669 -0.27100
O 	O 	0.86211 0.32110 0.55103 -0.42300
O 	O 	0.58040 0.23860 0.57305 -0.44100
O 	O 	0.58608 0.27440 0.66687 -0.24500
O 	O 	0.90175 0.42000 0.97909 -0.42600
O 	O 	0.93400 0.16010 0.98173 -0.20900
O 	O 	0.00430 0.35200 0.94939 -0.42600
P 	P 	0.93719 0.30482 0.95202 0.44400
C 	C 	0.80644 0.37320 0.54752 0.34400
C 	C 	0.77588 0.33720 0.59820 -0.07500
C 	C 	0.71068 0.31720 0.58832 0.03700
H 	H 	0.68630 0.32840 0.55080 0.02500
C 	C 	0.68196 0.28060 0.63424 -0.11800
C 	C 	0.61150 0.26250 0.62456 0.36300
C 	C 	0.71890 0.26700 0.69034 0.00600
H 	H 	0.69940 0.24200 0.72110 0.04600
C 	C 	0.78364 0.28970 0.70165 -0.02800
C 	C 	0.82267 0.28480 0.76184 0.07600
C 	C 	0.81504 0.17790 0.80208 -0.10900
H 	H 	0.78540 0.10420 0.79090 0.08200
C 	C 	0.85090 0.17920 0.85862 0.03700
H 	H 	0.84500 0.10630 0.88480 0.04500
C 	C 	0.89556 0.28800 0.87682 -0.07300
C 	C 	0.90361 0.39290 0.83667 0.03000
H 	H 	0.93380 0.46570 0.84760 0.04000
C 	C 	0.86769 0.39150 0.78061 -0.11300
H 	H 	0.87380 0.46430 0.75460 0.08500
C 	C 	0.81183 0.32390 0.65450 -0.00500
H 	H 	0.85550 0.33810 0.66090 0.05600
Zn	Zn	0.41522 0.87656 0.49586 1.24100
O 	O 	0.27744 0.94410 0.50669 -0.27100
O 	O 	0.36211 0.82110 0.55103 -0.42300
O 	O 	0.08040 0.73860 0.57305 -0.44100
O 	O 	0.08608 0.77440 0.66687 -0.24400
O 	O 	0.40175 0.92000 0.97909 -0.42500
O 	O 	0.43400 0.66010 0.98173 -0.20800
O 	O 	0.50430 0.85200 0.94939 -0.42700
P 	P 	0.43719 0.80482 0.95202 0.44500
C 	C 	0.30644 0.87320 0.54752 0.34400
C 	C 	0.27588 0.83720 0.59820 -0.07400
C 	C 	0.21068 0.81720 0.58832 0.03700
H 	H 	0.18630 0.82840 0.55080 0.02500
C 	C 	0.18196 0.78060 0.63424 -0.11700
C 	C 	0.11150 0.76250 0.62456 0.36300
C 	C 	0.21890 0.76700 0.69034 0.00600
H 	H 	0.19940 0.74200 0.72110 0.04700
C 	C 	0.28364 0.78970 0.70165 -0.02800
C 	C 	0.32267 0.78480 0.76184 0.07600
C 	C 	0.31504 0.67790 0.80208 -0.10900
H 	H 	0.28540 0.60420 0.79090 0.08200
C 	C 	0.35090 0.67920 0.85862 0.03700
H 	H 	0.34500 0.60630 0.88480 0.04600
C 	C 	0.39556 0.78800 0.87682 -0.07200
C 	C 	0.40361 0.89290 0.83667 0.03000
H 	H 	0.43380 0.96570 0.84760 0.04100
C 	C 	0.36769 0.89150 0.78061 -0.11200
H 	H 	0.37380 0.96430 0.75460 0.08500
C 	C 	0.31183 0.82390 0.65450 -0.00500
H 	H 	0.35550 0.83810 0.66090 0.05700
Zn	Zn	0.08478 0.37656 0.00414 1.24000
O 	O 	0.22256 0.44410 0.99331 -0.27000
O 	O 	0.13789 0.32110 0.94897 -0.42200
O 	O 	0.41960 0.23860 0.92695 -0.44200
O 	O 	0.41392 0.27440 0.83313 -0.24500
O 	O 	0.09825 0.42000 0.52091 -0.42600
O 	O 	0.06600 0.16010 0.51827 -0.20800
O 	O 	0.99570 0.35200 0.55061 -0.42800
P 	P 	0.06281 0.30482 0.54798 0.44500
C 	C 	0.19356 0.37320 0.95248 0.34400
C 	C 	0.22412 0.33720 0.90180 -0.07400
C 	C 	0.28932 0.31720 0.91168 0.03700
H 	H 	0.31370 0.32840 0.94920 0.02500
C 	C 	0.31804 0.28060 0.86576 -0.11700
C 	C 	0.38850 0.26250 0.87544 0.36300
C 	C 	0.28110 0.26700 0.80966 0.00600
H 	H 	0.30060 0.24200 0.77890 0.04600
C 	C 	0.21636 0.28970 0.79835 -0.02800
C 	C 	0.17733 0.28480 0.73816 0.07600
C 	C 	0.18496 0.17790 0.69792 -0.10900
H 	H 	0.21460 0.10420 0.70910 0.08200
C 	C 	0.14910 0.17920 0.64138 0.03700
H 	H 	0.15500 0.10630 0.61520 0.04600
C 	C 	0.10444 0.28800 0.62318 -0.07300
C 	C 	0.09639 0.39290 0.66333 0.03000
H 	H 	0.06620 0.46570 0.65240 0.04000
C 	C 	0.13231 0.39150 0.71939 -0.11300
H 	H 	0.12620 0.46430 0.74540 0.08500
C 	C 	0.18817 0.32390 0.84550 -0.00500
H 	H 	0.14450 0.33810 0.83910 0.05700
Zn	Zn	0.58478 0.87656 0.00414 1.24000
O 	O 	0.72256 0.94410 0.99331 -0.27100
O 	O 	0.63789 0.82110 0.94897 -0.42200
O 	O 	0.91960 0.73860 0.92695 -0.44200
O 	O 	0.91392 0.77440 0.83313 -0.24500
O 	O 	0.59825 0.92000 0.52091 -0.42600
O 	O 	0.56600 0.66010 0.51827 -0.20800
O 	O 	0.49570 0.85200 0.55061 -0.42800
P 	P 	0.56281 0.80482 0.54798 0.44500
C 	C 	0.69356 0.87320 0.95248 0.34400
C 	C 	0.72412 0.83720 0.90180 -0.07400
C 	C 	0.78932 0.81720 0.91168 0.03700
H 	H 	0.81370 0.82840 0.94920 0.02500
C 	C 	0.81804 0.78060 0.86576 -0.11700
C 	C 	0.88850 0.76250 0.87544 0.36300
C 	C 	0.78110 0.76700 0.80966 0.00600
H 	H 	0.80060 0.74200 0.77890 0.04700
C 	C 	0.71636 0.78970 0.79835 -0.02800
C 	C 	0.67733 0.78480 0.73816 0.07600
C 	C 	0.68496 0.67790 0.69792 -0.10900
H 	H 	0.71460 0.60420 0.70910 0.08200
C 	C 	0.64910 0.67920 0.64138 0.03700
H 	H 	0.65500 0.60630 0.61520 0.04600
C 	C 	0.60444 0.78800 0.62318 -0.07200
C 	C 	0.59639 0.89290 0.66333 0.03000
H 	H 	0.56620 0.96570 0.65240 0.04000
C 	C 	0.63231 0.89150 0.71939 -0.11300
H 	H 	0.62620 0.96430 0.74540 0.08500
C 	C 	0.68817 0.82390 0.84550 -0.00500
H 	H 	0.64450 0.83810 0.83910 0.05700
