data_crystal

_cell_length_a 20.58350
_cell_length_b 12.00820
_cell_length_c 17.06400
_cell_angle_alpha 90.00000
_cell_angle_beta  90.00000
_cell_angle_gamma 90.00000

_symmetry_space_group_name_	'P 1'
_symmetry_space_group_name_H-M	'P 1'

loop_
_symmetry_equiv_pos_as_xyz
  x,y,z

loop_
_atom_site_label
_atom_site_type_symbol
_atom_site_fract_x
_atom_site_fract_y
_atom_site_fract_z
_atom_site_charge
Zn	Zn	0.58755 0.04008 0.05610 1.23400
O 	O 	0.67402 0.03470 0.10392 -0.44700
C 	C 	0.70989 0.95420 0.08540 0.35000
C 	C 	0.77804 0.95610 0.11810 -0.08600
O 	O 	0.69246 0.87470 0.04520 -0.29400
C 	C 	0.80009 0.04710 0.16050 0.00500
C 	C 	0.81780 0.86450 0.10820 0.04800
H 	H 	0.77340 0.10910 0.16590 0.05400
C 	C 	0.86153 0.04750 0.19520 -0.03600
C 	C 	0.87839 0.86200 0.14320 -0.11300
H 	H 	0.80390 0.80460 0.07790 0.04200
C 	C 	0.88536 0.14560 0.23960 0.10300
C 	C 	0.89978 0.95260 0.18720 0.02300
C 	C 	0.91800 0.75730 0.14040 0.44300
C 	C 	0.87090 0.25270 0.21460 -0.14200
C 	C 	0.92290 0.13510 0.30700 -0.13300
H 	H 	0.94020 0.94960 0.21160 0.05400
O 	O 	0.92069 0.70320 0.07830 -0.46700
O 	O 	0.94560 0.73470 0.20200 -0.46300
H 	H 	0.84630 0.26280 0.16940 0.09800
C 	C 	0.89240 0.34410 0.25550 0.07000
H 	H 	0.93370 0.06430 0.32480 0.09900
C 	C 	0.94440 0.22680 0.34780 0.06900
H 	H 	0.88200 0.41480 0.23740 0.00900
C 	C 	0.92922 0.33380 0.32310 -0.10700
H 	H 	0.96940 0.21690 0.39260 0.04000
O 	O 	0.97659 0.44090 0.09735 -0.43800
O 	O 	0.90648 0.53250 0.94483 -0.43200
P 	P 	0.95344 0.45530 0.37745 0.51700
O 	O 	0.94395 0.55360 0.32230 -0.44200
Zn	Zn	0.91245 0.45992 0.55610 1.23800
O 	O 	0.82598 0.46530 0.60392 -0.44400
C 	C 	0.79011 0.54580 0.58540 0.34700
C 	C 	0.72196 0.54390 0.61810 -0.09300
O 	O 	0.80754 0.62530 0.54520 -0.29100
C 	C 	0.69991 0.45290 0.66050 0.01000
C 	C 	0.68220 0.63550 0.60820 0.05200
H 	H 	0.72660 0.39090 0.66590 0.05100
C 	C 	0.63847 0.45250 0.69520 -0.04400
C 	C 	0.62161 0.63800 0.64320 -0.12700
H 	H 	0.69610 0.69540 0.57790 0.03900
C 	C 	0.61464 0.35440 0.73960 0.09900
C 	C 	0.60022 0.54740 0.68720 0.02700
C 	C 	0.58200 0.74270 0.64040 0.44900
C 	C 	0.62910 0.24730 0.71460 -0.14600
C 	C 	0.57710 0.36490 0.80700 -0.14000
H 	H 	0.55980 0.55040 0.71160 0.03500
O 	O 	0.57931 0.79680 0.57830 -0.48200
O 	O 	0.55440 0.76530 0.70200 -0.49400
H 	H 	0.65370 0.23720 0.66940 0.09600
C 	C 	0.60760 0.15590 0.75550 0.06500
H 	H 	0.56630 0.43570 0.82480 0.08800
C 	C 	0.55560 0.27320 0.84780 0.06100
H 	H 	0.61800 0.08520 0.73740 0.00800
C 	C 	0.57078 0.16620 0.82310 -0.11300
H 	H 	0.53060 0.28310 0.89260 0.02400
O 	O 	0.52341 0.05910 0.59735 -0.49300
O 	O 	0.59352 0.96750 0.44483 -0.43400
P 	P 	0.54656 0.04470 0.87745 0.46700
O 	O 	0.55605 0.94640 0.82230 -0.46400
Zn	Zn	0.41245 0.04008 0.44390 1.23400
O 	O 	0.32598 0.03470 0.39608 -0.44700
C 	C 	0.29011 0.95420 0.41460 0.35000
C 	C 	0.22196 0.95610 0.38190 -0.09900
O 	O 	0.30754 0.87470 0.45480 -0.29600
C 	C 	0.19991 0.04710 0.33950 0.01400
C 	C 	0.18220 0.86450 0.39180 0.05800
H 	H 	0.22660 0.10910 0.33410 0.04900
C 	C 	0.13847 0.04750 0.30480 -0.05600
C 	C 	0.12161 0.86200 0.35680 -0.14000
H 	H 	0.19610 0.80460 0.42210 0.03600
C 	C 	0.11464 0.14560 0.26040 0.09500
C 	C 	0.10022 0.95260 0.31280 0.03500
C 	C 	0.08200 0.75730 0.35960 0.45300
C 	C 	0.12910 0.25270 0.28540 -0.15100
C 	C 	0.07710 0.13510 0.19300 -0.14700
H 	H 	0.05980 0.94960 0.28840 0.01600
O 	O 	0.07931 0.70320 0.42170 -0.49700
O 	O 	0.05440 0.73470 0.29800 -0.51600
H 	H 	0.15370 0.26280 0.33060 0.09500
C 	C 	0.10760 0.34410 0.24450 0.06000
H 	H 	0.06630 0.06430 0.17520 0.07700
C 	C 	0.05560 0.22680 0.15220 0.05300
H 	H 	0.11800 0.41480 0.26260 0.00700
C 	C 	0.07078 0.33380 0.17690 -0.12000
H 	H 	0.03060 0.21690 0.10740 0.00700
O 	O 	0.02341 0.44090 0.40265 -0.54800
O 	O 	0.09352 0.53250 0.55517 -0.43500
P 	P 	0.04656 0.45530 0.12255 0.41500
O 	O 	0.05605 0.55360 0.17770 -0.47400
Zn	Zn	0.08755 0.45992 0.94390 1.23100
O 	O 	0.17402 0.46530 0.89608 -0.44700
C 	C 	0.20989 0.54580 0.91460 0.35000
C 	C 	0.27804 0.54390 0.88190 -0.09500
O 	O 	0.19246 0.62530 0.95480 -0.30000
C 	C 	0.30009 0.45290 0.83950 0.01200
C 	C 	0.31780 0.63550 0.89180 0.05400
H 	H 	0.27340 0.39090 0.83410 0.05000
C 	C 	0.36153 0.45250 0.80480 -0.04600
C 	C 	0.37839 0.63800 0.85680 -0.12800
H 	H 	0.30390 0.69540 0.92210 0.03800
C 	C 	0.38536 0.35440 0.76040 0.09900
C 	C 	0.39978 0.54740 0.81280 0.02800
C 	C 	0.41800 0.74270 0.85960 0.45000
C 	C 	0.37090 0.24730 0.78540 -0.14700
C 	C 	0.42290 0.36490 0.69300 -0.14000
H 	H 	0.44020 0.55040 0.78840 0.03500
O 	O 	0.42069 0.79680 0.92170 -0.48300
O 	O 	0.44560 0.76530 0.79800 -0.49500
H 	H 	0.34630 0.23720 0.83060 0.09700
C 	C 	0.39240 0.15590 0.74450 0.06500
H 	H 	0.43370 0.43570 0.67520 0.08800
C 	C 	0.44440 0.27320 0.65220 0.06100
H 	H 	0.38200 0.08520 0.76260 0.00800
C 	C 	0.42922 0.16620 0.67690 -0.11400
H 	H 	0.46940 0.28310 0.60740 0.02300
O 	O 	0.47659 0.05910 0.90265 -0.49200
O 	O 	0.40648 0.96750 0.05517 -0.43300
P 	P 	0.45344 0.04470 0.62255 0.46600
O 	O 	0.44395 0.94640 0.67770 -0.46300
Zn	Zn	0.41245 0.95992 0.94390 1.23300
O 	O 	0.32598 0.96530 0.89608 -0.44900
C 	C 	0.29011 0.04580 0.91460 0.35200
C 	C 	0.22196 0.04390 0.88190 -0.09700
O 	O 	0.30754 0.12530 0.95480 -0.29600
C 	C 	0.19991 0.95290 0.83950 0.01200
C 	C 	0.18220 0.13550 0.89180 0.05800
H 	H 	0.22660 0.89090 0.83410 0.04900
C 	C 	0.13847 0.95250 0.80480 -0.05600
C 	C 	0.12161 0.13800 0.85680 -0.14000
H 	H 	0.19610 0.19540 0.92210 0.03600
C 	C 	0.11464 0.85440 0.76040 0.09500
C 	C 	0.10022 0.04740 0.81280 0.03600
C 	C 	0.08200 0.24270 0.85960 0.45300
C 	C 	0.12910 0.74730 0.78540 -0.15100
C 	C 	0.07710 0.86490 0.69300 -0.14700
H 	H 	0.05980 0.05040 0.78840 0.01600
O 	O 	0.07931 0.29680 0.92170 -0.49700
O 	O 	0.05440 0.26530 0.79800 -0.51600
H 	H 	0.15370 0.73720 0.83060 0.09500
C 	C 	0.10760 0.65590 0.74450 0.06000
H 	H 	0.06630 0.93570 0.67520 0.07700
C 	C 	0.05560 0.77320 0.65220 0.05300
H 	H 	0.11800 0.58520 0.76260 0.00700
C 	C 	0.07078 0.66620 0.67690 -0.12000
H 	H 	0.03060 0.78310 0.60740 0.00700
O 	O 	0.02341 0.55910 0.90265 -0.54800
O 	O 	0.09352 0.46750 0.05517 -0.43500
P 	P 	0.04656 0.54470 0.62255 0.41300
O 	O 	0.05605 0.44640 0.67770 -0.47400
Zn	Zn	0.08755 0.54008 0.44390 1.23100
O 	O 	0.17402 0.53470 0.39608 -0.44700
C 	C 	0.20989 0.45420 0.41460 0.35000
C 	C 	0.27804 0.45610 0.38190 -0.09500
O 	O 	0.19246 0.37470 0.45480 -0.30000
C 	C 	0.30009 0.54710 0.33950 0.01100
C 	C 	0.31780 0.36450 0.39180 0.05400
H 	H 	0.27340 0.60910 0.33410 0.05000
C 	C 	0.36153 0.54750 0.30480 -0.04600
C 	C 	0.37839 0.36200 0.35680 -0.12800
H 	H 	0.30390 0.30460 0.42210 0.03800
C 	C 	0.38536 0.64560 0.26040 0.09900
C 	C 	0.39978 0.45260 0.31280 0.02800
C 	C 	0.41800 0.25730 0.35960 0.44900
C 	C 	0.37090 0.75270 0.28540 -0.14700
C 	C 	0.42290 0.63510 0.19300 -0.14000
H 	H 	0.44020 0.44960 0.28840 0.03500
O 	O 	0.42069 0.20320 0.42170 -0.48300
O 	O 	0.44560 0.23470 0.29800 -0.49500
H 	H 	0.34630 0.76280 0.33060 0.09700
C 	C 	0.39240 0.84410 0.24450 0.06500
H 	H 	0.43370 0.56430 0.17520 0.08800
C 	C 	0.44440 0.72680 0.15220 0.06200
H 	H 	0.38200 0.91480 0.26260 0.00800
C 	C 	0.42922 0.83380 0.17690 -0.11400
H 	H 	0.46940 0.71690 0.10740 0.02300
O 	O 	0.47659 0.94090 0.40265 -0.49300
O 	O 	0.40648 0.03250 0.55517 -0.43400
P 	P 	0.45344 0.95530 0.12255 0.46700
O 	O 	0.44395 0.05360 0.17770 -0.46400
Zn	Zn	0.58755 0.95992 0.55610 1.23400
O 	O 	0.67402 0.96530 0.60392 -0.44600
C 	C 	0.70989 0.04580 0.58540 0.34800
C 	C 	0.77804 0.04390 0.61810 -0.08700
O 	O 	0.69246 0.12530 0.54520 -0.29500
C 	C 	0.80009 0.95290 0.66050 0.00600
C 	C 	0.81780 0.13550 0.60820 0.04700
H 	H 	0.77340 0.89090 0.66590 0.05200
C 	C 	0.86153 0.95250 0.69520 -0.03600
C 	C 	0.87839 0.13800 0.64320 -0.11300
H 	H 	0.80390 0.19540 0.57790 0.04100
C 	C 	0.88536 0.85440 0.73960 0.10300
C 	C 	0.89978 0.04740 0.68720 0.02200
C 	C 	0.91800 0.24270 0.64040 0.44300
C 	C 	0.87090 0.74730 0.71460 -0.14100
C 	C 	0.92290 0.86490 0.80700 -0.13300
H 	H 	0.94020 0.05040 0.71160 0.05400
O 	O 	0.92069 0.29680 0.57830 -0.46600
O 	O 	0.94560 0.26530 0.70200 -0.46300
H 	H 	0.84630 0.73720 0.66940 0.09800
C 	C 	0.89240 0.65590 0.75550 0.07000
H 	H 	0.93370 0.93570 0.82480 0.09900
C 	C 	0.94440 0.77320 0.84780 0.06900
H 	H 	0.88200 0.58520 0.73740 0.01000
C 	C 	0.92922 0.66620 0.82310 -0.10700
H 	H 	0.96940 0.78310 0.89260 0.04000
O 	O 	0.97659 0.55910 0.59735 -0.43600
O 	O 	0.90648 0.46750 0.44483 -0.43300
P 	P 	0.95344 0.54470 0.87745 0.51800
O 	O 	0.94395 0.44640 0.82230 -0.44100
Zn	Zn	0.91245 0.54008 0.05610 1.23700
O 	O 	0.82598 0.53470 0.10392 -0.44400
C 	C 	0.79011 0.45420 0.08540 0.34700
C 	C 	0.72196 0.45610 0.11810 -0.09300
O 	O 	0.80754 0.37470 0.04520 -0.29200
C 	C 	0.69991 0.54710 0.16050 0.01000
C 	C 	0.68220 0.36450 0.10820 0.05200
H 	H 	0.72660 0.60910 0.16590 0.05100
C 	C 	0.63847 0.54750 0.19520 -0.04500
C 	C 	0.62161 0.36200 0.14320 -0.12700
H 	H 	0.69610 0.30460 0.07790 0.03900
C 	C 	0.61464 0.64560 0.23960 0.09900
C 	C 	0.60022 0.45260 0.18720 0.02700
C 	C 	0.58200 0.25730 0.14040 0.44900
C 	C 	0.62910 0.75270 0.21460 -0.14600
C 	C 	0.57710 0.63510 0.30700 -0.14000
H 	H 	0.55980 0.44960 0.21160 0.03500
O 	O 	0.57931 0.20320 0.07830 -0.48400
O 	O 	0.55440 0.23470 0.20200 -0.49500
H 	H 	0.65370 0.76280 0.16940 0.09600
C 	C 	0.60760 0.84410 0.25550 0.06500
H 	H 	0.56630 0.56430 0.32480 0.08800
C 	C 	0.55560 0.72680 0.34780 0.06100
H 	H 	0.61800 0.91480 0.23740 0.00900
C 	C 	0.57078 0.83380 0.32310 -0.11400
H 	H 	0.53060 0.71690 0.39260 0.02400
O 	O 	0.52341 0.94090 0.09735 -0.49300
O 	O 	0.59352 0.03250 0.94483 -0.43200
P 	P 	0.54656 0.95530 0.37745 0.46600
O 	O 	0.55605 0.05360 0.32230 -0.46300
Zn	Zn	0.00000 0.62251 0.25000 1.21700
Zn	Zn	0.50000 0.87749 0.75000 1.23900
Zn	Zn	0.00000 0.37749 0.75000 1.21700
Zn	Zn	0.50000 0.12251 0.25000 1.23900
