data_crystal

_cell_length_a 20.47820
_cell_length_b 12.07240
_cell_length_c 16.90990
_cell_angle_alpha 90.00000
_cell_angle_beta  90.00000
_cell_angle_gamma 90.00000

_symmetry_space_group_name_	'P 1'
_symmetry_space_group_name_H-M	'P 1'

loop_
_symmetry_equiv_pos_as_xyz
  x,y,z

loop_
_atom_site_label
_atom_site_type_symbol
_atom_site_fract_x
_atom_site_fract_y
_atom_site_fract_z
_atom_site_charge
Zn	Zn	0.58747 0.04387 0.05703 1.23300
P 	P 	0.95311 0.45499 0.37653 0.51200
O 	O 	0.94214 0.73270 0.20604 -0.46200
O 	O 	0.92257 0.70538 0.07919 -0.47100
O 	O 	0.69408 0.87982 0.03987 -0.29200
O 	O 	0.67372 0.03509 0.10453 -0.45200
O 	O 	0.94183 0.55392 0.32150 -0.43500
O 	O 	0.90631 0.46580 0.44522 -0.43400
O 	O 	0.02391 0.44426 0.40037 -0.55000
C 	C 	0.92970 0.33340 0.32214 -0.10600
C 	C 	0.94435 0.22840 0.34849 0.07000
H 	H 	0.96910 0.21960 0.39420 0.03900
C 	C 	0.92289 0.13600 0.30821 -0.13300
H 	H 	0.93350 0.06590 0.32710 0.09900
C 	C 	0.88563 0.14590 0.23980 0.10300
C 	C 	0.86189 0.04730 0.19573 -0.03600
C 	C 	0.89982 0.95220 0.18860 0.02400
H 	H 	0.94000 0.94860 0.21410 0.05300
C 	C 	0.87855 0.86270 0.14384 -0.11200
C 	C 	0.81803 0.86550 0.10718 0.04500
H 	H 	0.80420 0.80660 0.07590 0.04100
C 	C 	0.77832 0.95740 0.11775 -0.08400
C 	C 	0.80045 0.04760 0.16035 0.00400
H 	H 	0.77380 0.10960 0.16550 0.05300
C 	C 	0.87154 0.25140 0.21325 -0.13900
H 	H 	0.84710 0.26020 0.16730 0.09700
C 	C 	0.89294 0.34400 0.25333 0.06900
H 	H 	0.88270 0.41420 0.23420 0.01100
C 	C 	0.91761 0.75810 0.14173 0.43800
C 	C 	0.71018 0.95640 0.08365 0.34900
Zn	Zn	0.91253 0.45613 0.55703 1.23900
P 	P 	0.54689 0.04501 0.87653 0.46200
O 	O 	0.55786 0.76730 0.70604 -0.49100
O 	O 	0.57743 0.79462 0.57919 -0.48600
O 	O 	0.80592 0.62018 0.53987 -0.28700
O 	O 	0.82628 0.46491 0.60453 -0.44700
O 	O 	0.55817 0.94608 0.82150 -0.45600
O 	O 	0.59369 0.03420 0.94522 -0.43200
O 	O 	0.47609 0.05574 0.90037 -0.49300
C 	C 	0.57030 0.16660 0.82214 -0.11300
C 	C 	0.55565 0.27160 0.84849 0.06200
H 	H 	0.53090 0.28040 0.89420 0.02300
C 	C 	0.57711 0.36400 0.80821 -0.13900
H 	H 	0.56650 0.43410 0.82710 0.08800
C 	C 	0.61437 0.35410 0.73980 0.09900
C 	C 	0.63811 0.45270 0.69573 -0.04400
C 	C 	0.60018 0.54780 0.68860 0.02700
H 	H 	0.56000 0.55140 0.71410 0.03400
C 	C 	0.62145 0.63730 0.64384 -0.12500
C 	C 	0.68197 0.63450 0.60718 0.05000
H 	H 	0.69580 0.69340 0.57590 0.03900
C 	C 	0.72168 0.54260 0.61775 -0.09100
C 	C 	0.69955 0.45240 0.66035 0.01000
H 	H 	0.72620 0.39040 0.66550 0.05100
C 	C 	0.62846 0.24860 0.71325 -0.14400
H 	H 	0.65290 0.23980 0.66730 0.09500
C 	C 	0.60706 0.15600 0.75333 0.06300
H 	H 	0.61730 0.08580 0.73420 0.01000
C 	C 	0.58239 0.74190 0.64173 0.44300
C 	C 	0.78982 0.54360 0.58365 0.34600
Zn	Zn	0.41253 0.04387 0.44297 1.23500
P 	P 	0.04689 0.45499 0.12347 0.40900
O 	O 	0.05786 0.73270 0.29396 -0.51100
O 	O 	0.07743 0.70538 0.42081 -0.50100
O 	O 	0.30592 0.87982 0.46013 -0.29200
O 	O 	0.32628 0.03509 0.39547 -0.45000
O 	O 	0.05817 0.55392 0.17850 -0.46500
O 	O 	0.09369 0.46580 0.05478 -0.43400
O 	O 	0.97609 0.44426 0.09963 -0.43900
C 	C 	0.07030 0.33340 0.17786 -0.11900
C 	C 	0.05565 0.22840 0.15151 0.05400
H 	H 	0.03090 0.21960 0.10580 0.00700
C 	C 	0.07711 0.13600 0.19179 -0.14600
H 	H 	0.06650 0.06590 0.17290 0.07700
C 	C 	0.11437 0.14590 0.26020 0.09500
C 	C 	0.13811 0.04730 0.30427 -0.05600
C 	C 	0.10018 0.95220 0.31140 0.03600
H 	H 	0.06000 0.94860 0.28590 0.01500
C 	C 	0.12145 0.86270 0.35616 -0.13900
C 	C 	0.18197 0.86550 0.39282 0.05600
H 	H 	0.19580 0.80660 0.42410 0.03600
C 	C 	0.22168 0.95740 0.38225 -0.09600
C 	C 	0.19955 0.04760 0.33965 0.01400
H 	H 	0.22620 0.10960 0.33450 0.04900
C 	C 	0.12846 0.25140 0.28675 -0.14900
H 	H 	0.15290 0.26020 0.33270 0.09400
C 	C 	0.10706 0.34400 0.24667 0.05800
H 	H 	0.11730 0.41420 0.26580 0.00900
C 	C 	0.08239 0.75810 0.35827 0.44600
C 	C 	0.28982 0.95640 0.41635 0.35000
Zn	Zn	0.08747 0.45613 0.94297 1.23200
P 	P 	0.45311 0.04501 0.62347 0.46100
O 	O 	0.44214 0.76730 0.79396 -0.49100
O 	O 	0.42257 0.79462 0.92081 -0.48700
O 	O 	0.19408 0.62018 0.96013 -0.29500
O 	O 	0.17372 0.46491 0.89547 -0.45000
O 	O 	0.44183 0.94608 0.67850 -0.45500
O 	O 	0.40631 0.03420 0.55478 -0.43400
O 	O 	0.52391 0.05574 0.59963 -0.49400
C 	C 	0.42970 0.16660 0.67786 -0.11300
C 	C 	0.44435 0.27160 0.65151 0.06200
H 	H 	0.46910 0.28040 0.60580 0.02300
C 	C 	0.42289 0.36400 0.69179 -0.14000
H 	H 	0.43350 0.43410 0.67290 0.08800
C 	C 	0.38563 0.35410 0.76020 0.09900
C 	C 	0.36189 0.45270 0.80427 -0.04500
C 	C 	0.39982 0.54780 0.81140 0.02800
H 	H 	0.44000 0.55140 0.78590 0.03400
C 	C 	0.37855 0.63730 0.85616 -0.12600
C 	C 	0.31803 0.63450 0.89282 0.05200
H 	H 	0.30420 0.69340 0.92410 0.03700
C 	C 	0.27832 0.54260 0.88225 -0.09300
C 	C 	0.30045 0.45240 0.83965 0.01100
H 	H 	0.27380 0.39040 0.83450 0.05000
C 	C 	0.37154 0.24860 0.78675 -0.14400
H 	H 	0.34710 0.23980 0.83270 0.09500
C 	C 	0.39294 0.15600 0.74667 0.06300
H 	H 	0.38270 0.08580 0.76580 0.01000
C 	C 	0.41761 0.74190 0.85827 0.44400
C 	C 	0.21018 0.54360 0.91635 0.34900
Zn	Zn	0.41253 0.95613 0.94297 1.23400
P 	P 	0.04689 0.54501 0.62347 0.40800
O 	O 	0.05786 0.26730 0.79396 -0.51200
O 	O 	0.07743 0.29462 0.92081 -0.50100
O 	O 	0.30592 0.12018 0.96013 -0.29100
O 	O 	0.32628 0.96491 0.89547 -0.45200
O 	O 	0.05817 0.44608 0.67850 -0.46600
O 	O 	0.09369 0.53420 0.55478 -0.43400
O 	O 	0.97609 0.55574 0.59963 -0.43700
C 	C 	0.07030 0.66660 0.67786 -0.11900
C 	C 	0.05565 0.77160 0.65151 0.05300
H 	H 	0.03090 0.78040 0.60580 0.00700
C 	C 	0.07711 0.86400 0.69179 -0.14600
H 	H 	0.06650 0.93410 0.67290 0.07700
C 	C 	0.11437 0.85410 0.76020 0.09500
C 	C 	0.13811 0.95270 0.80427 -0.05600
C 	C 	0.10018 0.04780 0.81140 0.03600
H 	H 	0.06000 0.05140 0.78590 0.01400
C 	C 	0.12145 0.13730 0.85616 -0.13900
C 	C 	0.18197 0.13450 0.89282 0.05600
H 	H 	0.19580 0.19340 0.92410 0.03600
C 	C 	0.22168 0.04260 0.88225 -0.09500
C 	C 	0.19955 0.95240 0.83965 0.01200
H 	H 	0.22620 0.89040 0.83450 0.05000
C 	C 	0.12846 0.74860 0.78675 -0.14900
H 	H 	0.15290 0.73980 0.83270 0.09300
C 	C 	0.10706 0.65600 0.74667 0.05800
H 	H 	0.11730 0.58580 0.76580 0.00900
C 	C 	0.08239 0.24190 0.85827 0.44600
C 	C 	0.28982 0.04360 0.91635 0.35100
Zn	Zn	0.08747 0.54387 0.44297 1.23200
P 	P 	0.45311 0.95499 0.12347 0.46200
O 	O 	0.44214 0.23270 0.29396 -0.49100
O 	O 	0.42257 0.20538 0.42081 -0.48700
O 	O 	0.19408 0.37982 0.46013 -0.29500
O 	O 	0.17372 0.53509 0.39547 -0.45000
O 	O 	0.44183 0.05392 0.17850 -0.45600
O 	O 	0.40631 0.96580 0.05478 -0.43300
O 	O 	0.52391 0.94426 0.09963 -0.49300
C 	C 	0.42970 0.83340 0.17786 -0.11300
C 	C 	0.44435 0.72840 0.15151 0.06200
H 	H 	0.46910 0.71960 0.10580 0.02300
C 	C 	0.42289 0.63600 0.19179 -0.14000
H 	H 	0.43350 0.56590 0.17290 0.08800
C 	C 	0.38563 0.64590 0.26020 0.09900
C 	C 	0.36189 0.54730 0.30427 -0.04500
C 	C 	0.39982 0.45220 0.31140 0.02800
H 	H 	0.44000 0.44860 0.28590 0.03400
C 	C 	0.37855 0.36270 0.35616 -0.12600
C 	C 	0.31803 0.36550 0.39282 0.05200
H 	H 	0.30420 0.30660 0.42410 0.03800
C 	C 	0.27832 0.45740 0.38225 -0.09300
C 	C 	0.30045 0.54760 0.33965 0.01100
H 	H 	0.27380 0.60960 0.33450 0.05000
C 	C 	0.37154 0.75140 0.28675 -0.14400
H 	H 	0.34710 0.76020 0.33270 0.09500
C 	C 	0.39294 0.84400 0.24667 0.06400
H 	H 	0.38270 0.91420 0.26580 0.01000
C 	C 	0.41761 0.25810 0.35827 0.44400
C 	C 	0.21018 0.45640 0.41635 0.34900
Zn	Zn	0.58747 0.95613 0.55703 1.23500
P 	P 	0.95311 0.54501 0.87653 0.51300
O 	O 	0.94214 0.26730 0.70604 -0.46000
O 	O 	0.92257 0.29462 0.57919 -0.47000
O 	O 	0.69408 0.12018 0.53987 -0.29000
O 	O 	0.67372 0.96491 0.60453 -0.44900
O 	O 	0.94183 0.44608 0.82150 -0.43300
O 	O 	0.90631 0.53420 0.94522 -0.43200
O 	O 	0.02391 0.55574 0.90037 -0.54900
C 	C 	0.92970 0.66660 0.82214 -0.10600
C 	C 	0.94435 0.77160 0.84849 0.07000
H 	H 	0.96910 0.78040 0.89420 0.03900
C 	C 	0.92289 0.86400 0.80821 -0.13300
H 	H 	0.93350 0.93410 0.82710 0.09900
C 	C 	0.88563 0.85410 0.73980 0.10300
C 	C 	0.86189 0.95270 0.69573 -0.03500
C 	C 	0.89982 0.04780 0.68860 0.02300
H 	H 	0.94000 0.05140 0.71410 0.05400
C 	C 	0.87855 0.13730 0.64384 -0.11200
C 	C 	0.81803 0.13450 0.60718 0.04500
H 	H 	0.80420 0.19340 0.57590 0.04100
C 	C 	0.77832 0.04260 0.61775 -0.08500
C 	C 	0.80045 0.95240 0.66035 0.00600
H 	H 	0.77380 0.89040 0.66550 0.05300
C 	C 	0.87154 0.74860 0.71325 -0.13900
H 	H 	0.84710 0.73980 0.66730 0.09700
C 	C 	0.89294 0.65600 0.75333 0.06900
H 	H 	0.88270 0.58580 0.73420 0.01100
C 	C 	0.91761 0.24190 0.64173 0.43800
C 	C 	0.71018 0.04360 0.58365 0.34700
Zn	Zn	0.91253 0.54387 0.05703 1.23800
P 	P 	0.54689 0.95499 0.37653 0.46200
O 	O 	0.55786 0.23270 0.20604 -0.49100
O 	O 	0.57743 0.20538 0.07919 -0.48800
O 	O 	0.80592 0.37982 0.03987 -0.28800
O 	O 	0.82628 0.53509 0.10453 -0.44700
O 	O 	0.55817 0.05392 0.32150 -0.45500
O 	O 	0.59369 0.96580 0.44522 -0.43300
O 	O 	0.47609 0.94426 0.40037 -0.49400
C 	C 	0.57030 0.83340 0.32214 -0.11300
C 	C 	0.55565 0.72840 0.34849 0.06200
H 	H 	0.53090 0.71960 0.39420 0.02300
C 	C 	0.57711 0.63600 0.30821 -0.13900
H 	H 	0.56650 0.56590 0.32710 0.08800
C 	C 	0.61437 0.64590 0.23980 0.09900
C 	C 	0.63811 0.54730 0.19573 -0.04400
C 	C 	0.60018 0.45220 0.18860 0.02800
H 	H 	0.56000 0.44860 0.21410 0.03400
C 	C 	0.62145 0.36270 0.14384 -0.12600
C 	C 	0.68197 0.36550 0.10718 0.05000
H 	H 	0.69580 0.30660 0.07590 0.03800
C 	C 	0.72168 0.45740 0.11775 -0.09100
C 	C 	0.69955 0.54760 0.16035 0.01000
H 	H 	0.72620 0.60960 0.16550 0.05100
C 	C 	0.62846 0.75140 0.21325 -0.14400
H 	H 	0.65290 0.76020 0.16730 0.09500
C 	C 	0.60706 0.84400 0.25333 0.06300
H 	H 	0.61730 0.91420 0.23420 0.01000
C 	C 	0.58239 0.25810 0.14173 0.44400
C 	C 	0.78982 0.45640 0.08365 0.34700
Zn	Zn	0.00000 0.62287 0.25000 1.21600
Zn	Zn	0.50000 0.87713 0.75000 1.23800
Zn	Zn	-0.00000 0.37713 0.75000 1.21500
Zn	Zn	0.50000 0.12287 0.25000 1.23800
