data_crystal

_cell_length_a 10.23900
_cell_length_b 12.19100
_cell_length_c 13.91000
_cell_angle_alpha 94.60000
_cell_angle_beta  93.75000
_cell_angle_gamma 99.87000

_symmetry_space_group_name_	'P 1'
_symmetry_space_group_name_H-M	'P 1'

loop_
_symmetry_equiv_pos_as_xyz
  x,y,z

loop_
_atom_site_label
_atom_site_type_symbol
_atom_site_fract_x
_atom_site_fract_y
_atom_site_fract_z
_atom_site_charge
Zn	Zn	0.26108 0.69619 0.46048 1.21900
Zn	Zn	0.22202 0.51909 0.22825 1.22000
H 	H 	0.09440 0.69450 0.93320 0.07400
H 	H 	0.33810 0.85640 0.07240 0.04600
H 	H 	0.07660 0.70120 0.61220 0.00100
H 	H 	0.37990 0.51380 0.89670 0.08500
H 	H 	0.86650 0.56940 0.47220 0.05200
H 	H 	0.52720 0.73130 0.19770 0.07700
H 	H 	0.35800 0.46300 0.05070 -0.00100
H 	H 	0.64080 0.80410 0.07440 0.03500
H 	H 	0.13750 0.06920 0.46330 0.06400
H 	H 	0.86800 0.80890 0.07440 0.04000
H 	H 	0.97950 0.73460 0.19180 0.07200
H 	H 	0.32010 0.18080 0.09870 0.08000
H 	H 	0.06130 0.66610 0.77030 0.08100
H 	H 	0.45220 0.67640 0.62860 -0.00400
H 	H 	0.16130 0.24200 0.40240 0.05200
H 	H 	0.64270 0.57800 0.47950 0.04400
H 	H 	0.44560 0.63840 0.78610 0.10000
H 	H 	0.36380 0.02850 0.01150 0.03100
H 	H 	0.08160 0.63940 0.08530 -0.00300
H 	H 	0.27110 0.83630 0.22490 0.05800
C 	C 	0.23280 0.19870 0.27690 -0.09900
C 	C 	0.37220 0.67300 0.65730 0.09000
C 	C 	0.68220 0.68050 0.27070 0.05600
C 	C 	0.36870 0.64940 0.75170 -0.14600
C 	C 	0.14120 0.66550 0.74230 -0.13300
C 	C 	0.68550 0.77460 0.12380 -0.01700
C 	C 	0.88670 0.62870 0.34280 -0.09500
C 	C 	0.19560 0.88210 0.40300 0.32400
C 	C 	0.88820 0.73110 0.19300 -0.07300
C 	C 	0.82180 0.77620 0.12330 -0.02900
C 	C 	0.14410 0.61480 0.04730 0.07500
C 	C 	0.25220 0.99990 0.25930 0.03200
C 	C 	0.24120 0.61130 0.89630 0.06000
C 	C 	0.33530 0.02160 0.07320 -0.00700
C 	C 	0.82120 0.67850 0.26800 0.04600
C 	C 	0.82080 0.59530 0.42120 -0.02200
C 	C 	0.30930 0.11250 0.12520 -0.09700
C 	C 	0.17130 0.07770 0.40330 -0.02900
C 	C 	0.68530 0.59980 0.42530 -0.00300
C 	C 	0.31850 0.54150 0.93400 -0.13700
C 	C 	0.46710 0.62500 0.35510 0.41000
C 	C 	0.20680 0.98840 0.35280 -0.07300
C 	C 	0.26540 0.10540 0.22050 0.05300
C 	C 	0.61760 0.72960 0.19670 -0.09000
C 	C 	0.32050 0.91800 0.10990 -0.04600
C 	C 	0.28030 0.90600 0.20090 -0.06000
C 	C 	0.25060 0.64190 0.79620 0.06400
C 	C 	0.02680 0.60620 0.33790 0.38800
C 	C 	0.15040 0.64790 0.95550 -0.14000
C 	C 	0.24470 0.31290 0.24450 0.32100
C 	C 	0.61510 0.63570 0.35050 -0.11700
C 	C 	0.18500 0.18210 0.36600 -0.00400
C 	C 	0.30550 0.51180 0.02750 0.08100
C 	C 	0.15160 0.68790 0.64760 0.08300
N 	N 	0.22220 0.54940 0.08540 -0.26000
N 	N 	0.26510 0.69140 0.60420 -0.26900
O 	O 	0.09130 0.59800 0.41620 -0.49100
O 	O 	0.32370 0.34840 0.18430 -0.34800
O 	O 	0.29260 0.82810 0.39310 -0.45800
O 	O 	0.39540 0.60410 0.27690 -0.51100
O 	O 	0.10540 0.85340 0.45240 -0.32400
O 	O 	0.42360 0.63300 0.43710 -0.48600
O 	O 	0.06940 0.59380 0.25600 -0.48700
O 	O 	0.17530 0.37840 0.28350 -0.45600
Zn	Zn	0.77798 0.48091 0.77175 1.22100
Zn	Zn	0.73892 0.30381 0.53952 1.22000
H 	H 	0.90560 0.30550 0.06680 0.07400
H 	H 	0.67990 0.81920 0.90130 0.08000
H 	H 	0.86250 0.93080 0.53670 0.06400
H 	H 	0.35920 0.19590 0.92560 0.03500
H 	H 	0.62010 0.48620 0.10330 0.08500
H 	H 	0.02050 0.26540 0.80820 0.07200
H 	H 	0.64200 0.53700 0.94930 -0.00100
H 	H 	0.13200 0.19110 0.92560 0.04000
H 	H 	0.35730 0.42200 0.52050 0.04400
H 	H 	0.72890 0.16370 0.77510 0.05800
H 	H 	0.93870 0.33390 0.22970 0.08100
H 	H 	0.63620 0.97150 0.98850 0.03100
H 	H 	0.91840 0.36060 0.91470 -0.00300
H 	H 	0.55440 0.36160 0.21390 0.10000
H 	H 	0.47280 0.26870 0.80230 0.07700
H 	H 	0.83870 0.75800 0.59760 0.05200
H 	H 	0.13350 0.43060 0.52780 0.05200
H 	H 	0.54780 0.32360 0.37140 -0.00400
H 	H 	0.92340 0.29880 0.38780 0.00100
H 	H 	0.66190 0.14360 0.92760 0.04600
C 	C 	0.17920 0.40470 0.57880 -0.02200
C 	C 	0.79320 0.01160 0.64720 -0.07300
C 	C 	0.53290 0.37500 0.64490 0.41000
C 	C 	0.85880 0.33450 0.25770 -0.13300
C 	C 	0.74780 0.00010 0.74070 0.03200
C 	C 	0.63130 0.35060 0.24830 -0.14600
C 	C 	0.82870 0.92230 0.59670 -0.02900
C 	C 	0.62780 0.32700 0.34270 0.09000
C 	C 	0.38490 0.36430 0.64950 -0.11700
C 	C 	0.11330 0.37130 0.65720 -0.09500
C 	C 	0.81500 0.81790 0.63400 -0.00400
C 	C 	0.31780 0.31950 0.72930 0.05600
C 	C 	0.75880 0.38870 0.10370 0.06000
C 	C 	0.31450 0.22540 0.87620 -0.01700
C 	C 	0.75530 0.68710 0.75550 0.32100
C 	C 	0.84960 0.35210 0.04450 -0.14000
C 	C 	0.76720 0.80130 0.72310 -0.09900
C 	C 	0.11180 0.26890 0.80700 -0.07300
C 	C 	0.73460 0.89460 0.77950 0.05300
C 	C 	0.38240 0.27040 0.80330 -0.09000
C 	C 	0.71970 0.09400 0.79910 -0.06000
C 	C 	0.84840 0.31210 0.35240 0.08300
C 	C 	0.80440 0.11790 0.59700 0.32400
C 	C 	0.17880 0.32150 0.73200 0.04600
C 	C 	0.67950 0.08200 0.89010 -0.04600
C 	C 	0.69450 0.48820 0.97250 0.08100
C 	C 	0.66470 0.97840 0.92680 -0.00700
C 	C 	0.69070 0.88750 0.87480 -0.09700
C 	C 	0.85590 0.38520 0.95270 0.07500
C 	C 	0.31470 0.40020 0.57470 -0.00300
C 	C 	0.17820 0.22380 0.87670 -0.02900
C 	C 	0.97320 0.39380 0.66210 0.38800
C 	C 	0.68150 0.45850 0.06600 -0.13700
C 	C 	0.74940 0.35810 0.20380 0.06400
N 	N 	0.77780 0.45060 0.91460 -0.26000
N 	N 	0.73490 0.30860 0.39580 -0.26900
O 	O 	0.93060 0.40620 0.74400 -0.48700
O 	O 	0.70740 0.17190 0.60690 -0.45800
O 	O 	0.60460 0.39590 0.72310 -0.51100
O 	O 	0.67630 0.65160 0.81570 -0.34800
O 	O 	0.90870 0.40200 0.58380 -0.49100
O 	O 	0.82470 0.62160 0.71650 -0.45600
O 	O 	0.57640 0.36700 0.56290 -0.48600
O 	O 	0.89460 0.14660 0.54760 -0.32400
