data_crystal

_cell_length_a 16.65400
_cell_length_b 17.19800
_cell_length_c 20.42600
_cell_angle_alpha 90.00000
_cell_angle_beta  90.00000
_cell_angle_gamma 99.83030

_symmetry_space_group_name_	'P 1'
_symmetry_space_group_name_H-M	'P 1'

loop_
_symmetry_equiv_pos_as_xyz
  x,y,z

loop_
_atom_site_label
_atom_site_type_symbol
_atom_site_fract_x
_atom_site_fract_y
_atom_site_fract_z
_atom_site_charge
Co	Co	0.53786 0.25883 0.33585 1.20600
Co	Co	0.64070 0.44693 0.37634 1.12800
Co	Co	0.41070 0.06501 0.35735 1.14400
Co	Co	0.96214 0.24117 0.83585 1.20600
Co	Co	0.85930 0.05307 0.87634 1.12800
Co	Co	0.08930 0.43499 0.85735 1.14300
Co	Co	0.46214 0.74117 0.66415 1.20700
Co	Co	0.35930 0.55307 0.62366 1.12900
Co	Co	0.58930 0.93499 0.64265 1.14500
Co	Co	0.03786 0.75883 0.16415 1.20700
Co	Co	0.14070 0.94693 0.12366 1.12900
Co	Co	0.91070 0.56501 0.14265 1.14400
H 	H 	0.51240 0.22160 0.49630 0.03300
H 	H 	0.47160 0.16560 0.59690 0.07000
H 	H 	0.46460 0.38140 0.66960 0.07100
H 	H 	0.50160 0.43630 0.56780 0.04400
H 	H 	0.59440 0.32750 0.75770 0.07000
H 	H 	0.72260 0.30560 0.78830 0.03900
H 	H 	0.64880 0.07260 0.77670 0.03100
H 	H 	0.52060 0.09410 0.74260 0.07300
H 	H 	0.51830 0.24000 0.14980 0.03000
H 	H 	0.51440 0.24790 0.03900 0.10000
H 	H 	0.39330 0.02820 0.03120 0.07700
H 	H 	0.39230 0.02240 0.14410 0.01600
H 	H 	0.41000 0.30110 0.93970 0.08700
H 	H 	0.29320 0.35310 0.92200 0.04100
H 	H 	0.16620 0.13870 0.89090 0.03400
H 	H 	0.28120 0.08510 0.90770 0.07300
H 	H 	0.53320 0.56560 0.22180 0.04500
H 	H 	0.48200 0.61240 0.12710 0.08300
H 	H 	0.38780 0.39110 0.07390 0.07400
H 	H 	0.43710 0.34400 0.16780 0.03700
H 	H 	0.32860 0.67080 0.06300 0.08200
H 	H 	0.19700 0.68980 0.09070 0.03500
H 	H 	0.10920 0.46530 0.04340 0.02900
H 	H 	0.23830 0.44660 0.01170 0.07300
H 	H 	0.98760 0.27840 0.99630 0.03400
H 	H 	0.02840 0.33440 0.09690 0.07000
H 	H 	0.03540 0.11860 0.16960 0.07200
H 	H 	0.99840 0.06370 0.06780 0.04000
H 	H 	0.90560 0.17250 0.25770 0.06900
H 	H 	0.77740 0.19440 0.28830 0.03900
H 	H 	0.85120 0.42740 0.27670 0.03200
H 	H 	0.97940 0.40590 0.24260 0.07300
H 	H 	0.98170 0.26000 0.64980 0.03000
H 	H 	0.98560 0.25210 0.53900 0.09900
H 	H 	0.10670 0.47180 0.53120 0.07600
H 	H 	0.10770 0.47760 0.64410 0.01600
H 	H 	0.09000 0.19890 0.43970 0.08700
H 	H 	0.20680 0.14690 0.42200 0.04100
H 	H 	0.33380 0.36130 0.39090 0.03400
H 	H 	0.21880 0.41490 0.40770 0.07300
H 	H 	0.96680 0.93440 0.72180 0.04400
H 	H 	0.01800 0.88760 0.62710 0.08300
H 	H 	0.11220 0.10890 0.57390 0.07400
H 	H 	0.06290 0.15600 0.66780 0.03700
H 	H 	0.17140 0.82920 0.56300 0.08200
H 	H 	0.30300 0.81020 0.59070 0.03500
H 	H 	0.39080 0.03470 0.54340 0.03000
H 	H 	0.26170 0.05340 0.51170 0.07300
H 	H 	0.48760 0.77840 0.50370 0.03300
H 	H 	0.52840 0.83440 0.40310 0.07000
H 	H 	0.53540 0.61860 0.33040 0.07100
H 	H 	0.49840 0.56370 0.43220 0.04400
H 	H 	0.40560 0.67250 0.24230 0.07000
H 	H 	0.27740 0.69440 0.21170 0.03900
H 	H 	0.35120 0.92740 0.22330 0.03100
H 	H 	0.47940 0.90590 0.25740 0.07300
H 	H 	0.48170 0.76000 0.85020 0.03000
H 	H 	0.48560 0.75210 0.96100 0.10000
H 	H 	0.60670 0.97180 0.96880 0.07700
H 	H 	0.60770 0.97760 0.85590 0.01600
H 	H 	0.59000 0.69890 0.06030 0.08700
H 	H 	0.70680 0.64690 0.07800 0.04100
H 	H 	0.83380 0.86130 0.10910 0.03400
H 	H 	0.71880 0.91490 0.09230 0.07300
H 	H 	0.46680 0.43440 0.77820 0.04500
H 	H 	0.51800 0.38760 0.87290 0.08300
H 	H 	0.61220 0.60890 0.92610 0.07400
H 	H 	0.56290 0.65600 0.83220 0.03700
H 	H 	0.67140 0.32920 0.93700 0.08200
H 	H 	0.80300 0.31020 0.90930 0.03500
H 	H 	0.89080 0.53470 0.95660 0.02900
H 	H 	0.76170 0.55340 0.98830 0.07300
H 	H 	0.01240 0.72160 0.00370 0.03400
H 	H 	0.97160 0.66560 0.90310 0.07000
H 	H 	0.96460 0.88140 0.83040 0.07200
H 	H 	0.00160 0.93630 0.93220 0.04000
H 	H 	0.09440 0.82750 0.74230 0.06900
H 	H 	0.22260 0.80560 0.71170 0.03900
H 	H 	0.14880 0.57260 0.72330 0.03200
H 	H 	0.02060 0.59410 0.75740 0.07300
H 	H 	0.01830 0.74000 0.35020 0.03000
H 	H 	0.01440 0.74790 0.46100 0.09900
H 	H 	0.89330 0.52820 0.46880 0.07600
H 	H 	0.89230 0.52240 0.35590 0.01600
H 	H 	0.91000 0.80110 0.56030 0.08700
H 	H 	0.79320 0.85310 0.57800 0.04100
H 	H 	0.66620 0.63870 0.60910 0.03400
H 	H 	0.78120 0.58510 0.59230 0.07300
H 	H 	0.03320 0.06560 0.27820 0.04400
H 	H 	0.98200 0.11240 0.37290 0.08300
H 	H 	0.88780 0.89110 0.42610 0.07400
H 	H 	0.93710 0.84400 0.33220 0.03700
H 	H 	0.82860 0.17080 0.43700 0.08200
H 	H 	0.69700 0.18980 0.40930 0.03500
H 	H 	0.60920 0.96530 0.45660 0.03000
H 	H 	0.73830 0.94660 0.48830 0.07300
C 	C 	0.54860 0.37200 0.46120 0.36800
C 	C 	0.51370 0.33450 0.52220 -0.11700
C 	C 	0.50330 0.25380 0.53120 0.02700
C 	C 	0.47960 0.22000 0.59160 -0.08300
C 	C 	0.46830 0.26850 0.64350 0.00400
C 	C 	0.47490 0.34940 0.63490 -0.08600
C 	C 	0.49740 0.38220 0.57400 0.01800
C 	C 	0.54500 0.21190 0.74920 0.01600
C 	C 	0.60520 0.27640 0.76150 -0.07800
C 	C 	0.68170 0.26280 0.77980 0.03000
C 	C 	0.69880 0.18770 0.78590 -0.10700
C 	C 	0.63810 0.12370 0.77260 0.01900
C 	C 	0.56100 0.13670 0.75300 -0.07800
C 	C 	0.78270 0.17290 0.80580 0.37900
C 	C 	0.46230 0.12820 0.23230 0.42400
C 	C 	0.45840 0.12940 0.15870 -0.14300
C 	C 	0.49270 0.19670 0.12590 0.06700
C 	C 	0.49030 0.20170 0.05980 -0.11800
C 	C 	0.45230 0.13860 0.02330 0.03200
C 	C 	0.41780 0.07170 0.05530 -0.11100
C 	C 	0.41880 0.06750 0.12300 0.06200
C 	C 	0.35830 0.18640 0.92560 0.01600
C 	C 	0.36130 0.26800 0.92980 -0.08300
C 	C 	0.29110 0.29880 0.91900 0.04100
C 	C 	0.21880 0.25170 0.90420 -0.11800
C 	C 	0.21530 0.17130 0.90050 0.03900
C 	C 	0.28410 0.13950 0.91070 -0.08500
C 	C 	0.14350 0.28810 0.88790 0.41200
C 	C 	0.52490 0.41840 0.26560 0.38900
C 	C 	0.49020 0.44940 0.20530 -0.10800
C 	C 	0.50400 0.53060 0.19230 0.03000
C 	C 	0.47380 0.55850 0.13550 -0.07400
C 	C 	0.43130 0.50590 0.09080 0.01700
C 	C 	0.41720 0.42590 0.10350 -0.07500
C 	C 	0.44640 0.39800 0.15970 0.03700
C 	C 	0.29590 0.55610 0.03650 0.00800
C 	C 	0.28470 0.62970 0.05930 -0.08700
C 	C 	0.20610 0.64070 0.07640 0.03100
C 	C 	0.14180 0.57860 0.07210 -0.11300
C 	C 	0.15330 0.50620 0.04750 0.02800
C 	C 	0.23030 0.49470 0.02900 -0.09300
C 	C 	0.05830 0.58920 0.09500 0.37800
C 	C 	0.95140 0.12800 0.96120 0.37000
C 	C 	0.98630 0.16550 0.02220 -0.12100
C 	C 	0.99670 0.24620 0.03120 0.02600
C 	C 	0.02040 0.28000 0.09160 -0.08100
C 	C 	0.03170 0.23150 0.14350 0.00500
C 	C 	0.02510 0.15060 0.13490 -0.08900
C 	C 	0.00260 0.11780 0.07400 0.02400
C 	C 	0.95500 0.28810 0.24920 0.01400
C 	C 	0.89480 0.22360 0.26150 -0.07700
C 	C 	0.81830 0.23720 0.27980 0.02900
C 	C 	0.80120 0.31230 0.28590 -0.10600
C 	C 	0.86190 0.37630 0.27260 0.01800
C 	C 	0.93900 0.36330 0.25300 -0.07700
C 	C 	0.71730 0.32710 0.30580 0.37900
C 	C 	0.03770 0.37180 0.73230 0.42400
C 	C 	0.04160 0.37060 0.65870 -0.14300
C 	C 	0.00730 0.30330 0.62590 0.06700
C 	C 	0.00970 0.29830 0.55980 -0.11700
C 	C 	0.04770 0.36140 0.52330 0.03200
C 	C 	0.08220 0.42830 0.55530 -0.11100
C 	C 	0.08120 0.43250 0.62300 0.06100
C 	C 	0.14170 0.31360 0.42560 0.01600
C 	C 	0.13870 0.23200 0.42980 -0.08300
C 	C 	0.20890 0.20120 0.41900 0.04100
C 	C 	0.28120 0.24830 0.40420 -0.11800
C 	C 	0.28470 0.32870 0.40050 0.03900
C 	C 	0.21590 0.36050 0.41070 -0.08500
C 	C 	0.35650 0.21190 0.38790 0.41200
C 	C 	0.97510 0.08160 0.76560 0.38900
C 	C 	0.00980 0.05060 0.70530 -0.10900
C 	C 	0.99600 0.96940 0.69230 0.03300
C 	C 	0.02620 0.94150 0.63550 -0.07600
C 	C 	0.06870 0.99410 0.59080 0.01700
C 	C 	0.08280 0.07410 0.60350 -0.07400
C 	C 	0.05360 0.10200 0.65970 0.03700
C 	C 	0.20410 0.94390 0.53650 0.00700
C 	C 	0.21530 0.87030 0.55930 -0.08700
C 	C 	0.29390 0.85930 0.57640 0.03000
C 	C 	0.35820 0.92140 0.57210 -0.11200
C 	C 	0.34670 0.99380 0.54750 0.02600
C 	C 	0.26970 0.00530 0.52900 -0.09100
C 	C 	0.44170 0.91080 0.59500 0.37800
C 	C 	0.45140 0.62800 0.53880 0.36800
C 	C 	0.48630 0.66550 0.47780 -0.11700
C 	C 	0.49670 0.74620 0.46880 0.02700
C 	C 	0.52040 0.78000 0.40840 -0.08300
C 	C 	0.53170 0.73150 0.35650 0.00400
C 	C 	0.52510 0.65060 0.36510 -0.08600
C 	C 	0.50260 0.61780 0.42600 0.01800
C 	C 	0.45500 0.78810 0.25080 0.01600
C 	C 	0.39480 0.72360 0.23850 -0.07800
C 	C 	0.31830 0.73720 0.22020 0.03000
C 	C 	0.30120 0.81230 0.21410 -0.10700
C 	C 	0.36190 0.87630 0.22740 0.01900
C 	C 	0.43900 0.86330 0.24700 -0.07800
C 	C 	0.21730 0.82710 0.19420 0.37900
C 	C 	0.53770 0.87180 0.76770 0.42400
C 	C 	0.54160 0.87060 0.84130 -0.14300
C 	C 	0.50730 0.80330 0.87410 0.06700
C 	C 	0.50970 0.79830 0.94020 -0.11800
C 	C 	0.54770 0.86140 0.97670 0.03200
C 	C 	0.58220 0.92830 0.94470 -0.11100
C 	C 	0.58120 0.93250 0.87700 0.06200
C 	C 	0.64170 0.81360 0.07440 0.01600
C 	C 	0.63870 0.73200 0.07020 -0.08300
C 	C 	0.70890 0.70120 0.08100 0.04100
C 	C 	0.78120 0.74830 0.09580 -0.11800
C 	C 	0.78470 0.82870 0.09950 0.03900
C 	C 	0.71590 0.86050 0.08930 -0.08500
C 	C 	0.85650 0.71190 0.11210 0.41200
C 	C 	0.47510 0.58160 0.73440 0.38900
C 	C 	0.50980 0.55060 0.79470 -0.10800
C 	C 	0.49600 0.46940 0.80770 0.03000
C 	C 	0.52620 0.44150 0.86450 -0.07400
C 	C 	0.56870 0.49410 0.90920 0.01700
C 	C 	0.58280 0.57410 0.89650 -0.07500
C 	C 	0.55360 0.60200 0.84030 0.03700
C 	C 	0.70410 0.44390 0.96350 0.00800
C 	C 	0.71530 0.37030 0.94070 -0.08700
C 	C 	0.79390 0.35930 0.92360 0.03100
C 	C 	0.85820 0.42140 0.92790 -0.11300
C 	C 	0.84670 0.49380 0.95250 0.02800
C 	C 	0.76970 0.50530 0.97100 -0.09300
C 	C 	0.94170 0.41080 0.90500 0.37800
C 	C 	0.04860 0.87200 0.03880 0.37000
C 	C 	0.01370 0.83450 0.97780 -0.12100
C 	C 	0.00330 0.75380 0.96880 0.02600
C 	C 	0.97960 0.72000 0.90840 -0.08100
C 	C 	0.96830 0.76850 0.85650 0.00500
C 	C 	0.97490 0.84940 0.86510 -0.08900
C 	C 	0.99740 0.88220 0.92600 0.02400
C 	C 	0.04500 0.71190 0.75080 0.01400
C 	C 	0.10520 0.77640 0.73850 -0.07700
C 	C 	0.18170 0.76280 0.72020 0.02900
C 	C 	0.19880 0.68770 0.71410 -0.10600
C 	C 	0.13810 0.62370 0.72740 0.01800
C 	C 	0.06100 0.63670 0.74700 -0.07700
C 	C 	0.28270 0.67290 0.69420 0.37900
C 	C 	0.96230 0.62820 0.26770 0.42400
C 	C 	0.95840 0.62940 0.34130 -0.14300
C 	C 	0.99270 0.69670 0.37410 0.06700
C 	C 	0.99030 0.70170 0.44020 -0.11700
C 	C 	0.95230 0.63860 0.47670 0.03200
C 	C 	0.91780 0.57170 0.44470 -0.11100
C 	C 	0.91880 0.56750 0.37700 0.06100
C 	C 	0.85830 0.68640 0.57440 0.01600
C 	C 	0.86130 0.76800 0.57020 -0.08300
C 	C 	0.79110 0.79880 0.58100 0.04100
C 	C 	0.71880 0.75170 0.59580 -0.11800
C 	C 	0.71530 0.67130 0.59950 0.03900
C 	C 	0.78410 0.63950 0.58930 -0.08500
C 	C 	0.64350 0.78810 0.61210 0.41200
C 	C 	0.02490 0.91840 0.23440 0.38900
C 	C 	0.99020 0.94940 0.29470 -0.10900
C 	C 	0.00400 0.03060 0.30770 0.03300
C 	C 	0.97380 0.05850 0.36450 -0.07600
C 	C 	0.93130 0.00590 0.40920 0.01700
C 	C 	0.91720 0.92590 0.39650 -0.07400
C 	C 	0.94640 0.89800 0.34030 0.03700
C 	C 	0.79590 0.05610 0.46350 0.00700
C 	C 	0.78470 0.12970 0.44070 -0.08700
C 	C 	0.70610 0.14070 0.42360 0.03000
C 	C 	0.64180 0.07860 0.42790 -0.11200
C 	C 	0.65330 0.00620 0.45250 0.02600
C 	C 	0.73030 0.99470 0.47100 -0.09100
C 	C 	0.55830 0.08920 0.40500 0.37800
S 	S 	0.44851 0.22914 0.72258 0.27000
S 	S 	0.44639 0.14609 0.93746 0.25700
S 	S 	0.39526 0.54079 0.01700 0.27400
S 	S 	0.05149 0.27086 0.22258 0.27000
S 	S 	0.05361 0.35391 0.43746 0.25700
S 	S 	0.10474 0.95921 0.51700 0.27300
S 	S 	0.55149 0.77086 0.27742 0.27000
S 	S 	0.55361 0.85391 0.06254 0.25700
S 	S 	0.60474 0.45921 0.98300 0.27400
S 	S 	0.94851 0.72914 0.77742 0.27000
S 	S 	0.94639 0.64609 0.56254 0.25700
S 	S 	0.89526 0.04079 0.48300 0.27300
O 	O 	0.56270 0.44470 0.45580 -0.43200
O 	O 	0.57150 0.33040 0.41560 -0.50900
O 	O 	0.42460 0.28840 0.76430 -0.21500
O 	O 	0.39670 0.15370 0.71620 -0.20700
O 	O 	0.83890 0.23080 0.81120 -0.41300
O 	O 	0.78790 0.10140 0.81550 -0.47200
O 	O 	0.50880 0.18230 0.25890 -0.44700
O 	O 	0.41700 0.07300 0.26120 -0.48300
O 	O 	0.51600 0.20380 0.91620 -0.20200
O 	O 	0.43150 0.06730 0.91250 -0.20900
O 	O 	0.15160 0.36170 0.89660 -0.48900
O 	O 	0.08330 0.24440 0.86710 -0.43700
O 	O 	0.51660 0.34550 0.27150 -0.42300
O 	O 	0.56110 0.46880 0.30600 -0.44600
O 	O 	0.38750 0.47910 0.96920 -0.21700
O 	O 	0.44360 0.61650 0.00250 -0.21600
O 	O 	0.00390 0.52910 0.10140 -0.46300
O 	O 	0.04700 0.65760 0.10670 -0.45900
O 	O 	0.93730 0.05530 0.95580 -0.43300
O 	O 	0.92850 0.16960 0.91560 -0.51000
O 	O 	0.07540 0.21160 0.26430 -0.21500
O 	O 	0.10330 0.34630 0.21620 -0.20700
O 	O 	0.66110 0.26920 0.31120 -0.41300
O 	O 	0.71210 0.39860 0.31550 -0.47200
O 	O 	0.99120 0.31770 0.75890 -0.44700
O 	O 	0.08300 0.42700 0.76120 -0.48400
O 	O 	0.98400 0.29620 0.41620 -0.20300
O 	O 	0.06850 0.43270 0.41250 -0.20900
O 	O 	0.34840 0.13830 0.39660 -0.48900
O 	O 	0.41670 0.25560 0.36710 -0.43700
O 	O 	0.98340 0.15450 0.77150 -0.42300
O 	O 	0.93890 0.03120 0.80600 -0.44600
O 	O 	0.11250 0.02090 0.46920 -0.21600
O 	O 	0.05640 0.88350 0.50250 -0.21600
O 	O 	0.49610 0.97090 0.60140 -0.46300
O 	O 	0.45300 0.84240 0.60670 -0.45900
O 	O 	0.43730 0.55530 0.54420 -0.43200
O 	O 	0.42850 0.66960 0.58440 -0.50900
O 	O 	0.57540 0.71160 0.23570 -0.21500
O 	O 	0.60330 0.84630 0.28380 -0.20700
O 	O 	0.16110 0.76920 0.18880 -0.41300
O 	O 	0.21210 0.89860 0.18450 -0.47200
O 	O 	0.49120 0.81770 0.74110 -0.44700
O 	O 	0.58300 0.92700 0.73880 -0.48300
O 	O 	0.48400 0.79620 0.08380 -0.20200
O 	O 	0.56850 0.93270 0.08750 -0.20900
O 	O 	0.84840 0.63830 0.10340 -0.48900
O 	O 	0.91670 0.75560 0.13290 -0.43700
O 	O 	0.48340 0.65450 0.72850 -0.42300
O 	O 	0.43890 0.53120 0.69400 -0.44600
O 	O 	0.61250 0.52090 0.03080 -0.21700
O 	O 	0.55640 0.38350 0.99750 -0.21600
O 	O 	0.99610 0.47090 0.89860 -0.46300
O 	O 	0.95300 0.34240 0.89330 -0.45900
O 	O 	0.06270 0.94470 0.04420 -0.43300
O 	O 	0.07150 0.83040 0.08440 -0.51000
O 	O 	0.92460 0.78840 0.73570 -0.21500
O 	O 	0.89670 0.65370 0.78380 -0.20700
O 	O 	0.33890 0.73080 0.68880 -0.41300
O 	O 	0.28790 0.60140 0.68450 -0.47200
O 	O 	0.00880 0.68230 0.24110 -0.44700
O 	O 	0.91700 0.57300 0.23880 -0.48400
O 	O 	0.01600 0.70380 0.58380 -0.20300
O 	O 	0.93150 0.56730 0.58750 -0.20900
O 	O 	0.65160 0.86170 0.60340 -0.48900
O 	O 	0.58330 0.74440 0.63290 -0.43700
O 	O 	0.01660 0.84550 0.22850 -0.42300
O 	O 	0.06110 0.96880 0.19400 -0.44600
O 	O 	0.88750 0.97910 0.53080 -0.21600
O 	O 	0.94360 0.11650 0.49750 -0.21600
O 	O 	0.50390 0.02910 0.39860 -0.46300
O 	O 	0.54700 0.15760 0.39330 -0.45900
