data_crystal

_cell_length_a 21.50000
_cell_length_b 21.50000
_cell_length_c 22.45400
_cell_angle_alpha 90.00000
_cell_angle_beta  90.00000
_cell_angle_gamma 90.00000

_symmetry_space_group_name_	'P 1'
_symmetry_space_group_name_H-M	'P 1'

loop_
_symmetry_equiv_pos_as_xyz
  x,y,z

loop_
_atom_site_label
_atom_site_type_symbol
_atom_site_fract_x
_atom_site_fract_y
_atom_site_fract_z
_atom_site_charge
Zn	Zn	0.00494 0.01459 0.49376 1.16400
I 	I 	0.95241 0.08771 0.56474 -0.38500
N 	N 	0.95630 0.93620 0.46280 -0.28400
C 	C 	0.94330 0.93470 0.40580 0.08100
H 	H 	0.95140 0.96960 0.38110 -0.02800
C 	C 	0.91790 0.88180 0.38300 -0.13600
H 	H 	0.90600 0.88110 0.34230 0.08400
C 	C 	0.90870 0.82900 0.41720 0.07300
C 	C 	0.92060 0.83490 0.47670 -0.14200
H 	H 	0.91200 0.80170 0.50340 0.08600
C 	C 	0.94610 0.89120 0.49770 0.09900
H 	H 	0.95570 0.89550 0.53880 -0.03300
N 	N 	0.95770 0.55300 0.08140 -0.28700
C 	C 	0.92150 0.51890 0.11960 0.08100
H 	H 	0.91270 0.47680 0.11000 -0.02200
C 	C 	0.89840 0.54250 0.16950 -0.14500
H 	H 	0.87410 0.51660 0.19470 0.09000
C 	C 	0.90790 0.60080 0.18550 0.07200
C 	C 	0.94410 0.63940 0.14600 -0.13900
H 	H 	0.95320 0.68150 0.15530 0.08700
C 	C 	0.96410 0.61280 0.09590 0.08400
H 	H 	0.98480 0.63880 0.06800 -0.02300
N 	N 	0.57940 0.53020 0.46780 -0.26400
C 	C 	0.60550 0.58270 0.49390 0.04500
H 	H 	0.58710 0.60030 0.52840 -0.00600
C 	C 	0.65860 0.60930 0.46950 -0.10400
H 	H 	0.67650 0.64520 0.48730 0.07700
C 	C 	0.68560 0.58350 0.41890 0.04600
C 	C 	0.65940 0.53100 0.39280 -0.09900
H 	H 	0.67780 0.51340 0.35830 0.07600
C 	C 	0.60630 0.50440 0.41720 0.03500
H 	H 	0.58840 0.46860 0.39940 -0.00400
C 	C 	0.88520 0.77090 0.39000 0.08700
N 	N 	0.90960 0.75310 0.33710 -0.14800
C 	C 	0.88830 0.70120 0.31340 0.19700
N 	N 	0.90860 0.68150 0.26360 -0.15200
C 	C 	0.88280 0.62630 0.24170 0.09600
N 	N 	0.83630 0.59520 0.26540 -0.14800
C 	C 	0.81390 0.61760 0.31620 0.18800
N 	N 	0.76190 0.58880 0.34230 -0.14200
C 	C 	0.74360 0.61590 0.39350 0.11000
N 	N 	0.76440 0.66410 0.42330 -0.14700
C 	C 	0.81420 0.69140 0.39570 0.18000
N 	N 	0.83800 0.74390 0.42300 -0.13800
C 	C 	0.83710 0.66930 0.34280 -0.16300
Zn	Zn	0.49506 0.98541 0.99376 1.16300
I 	I 	0.54759 0.91229 0.06474 -0.38400
N 	N 	0.54370 0.06380 0.96280 -0.28400
C 	C 	0.55670 0.06530 0.90580 0.08100
H 	H 	0.54860 0.03040 0.88110 -0.02700
C 	C 	0.58210 0.11820 0.88300 -0.13600
H 	H 	0.59400 0.11890 0.84230 0.08400
C 	C 	0.59130 0.17100 0.91720 0.07300
C 	C 	0.57940 0.16510 0.97670 -0.14100
H 	H 	0.58800 0.19830 0.00340 0.08500
C 	C 	0.55390 0.10880 0.99770 0.10100
H 	H 	0.54430 0.10450 0.03880 -0.03500
N 	N 	0.54230 0.44700 0.58140 -0.28700
C 	C 	0.57850 0.48110 0.61960 0.08100
H 	H 	0.58730 0.52320 0.61000 -0.02200
C 	C 	0.60160 0.45750 0.66950 -0.14500
H 	H 	0.62590 0.48340 0.69470 0.09000
C 	C 	0.59210 0.39920 0.68550 0.07200
C 	C 	0.55590 0.36060 0.64600 -0.13900
H 	H 	0.54680 0.31850 0.65530 0.08700
C 	C 	0.53590 0.38720 0.59590 0.08400
H 	H 	0.51520 0.36120 0.56800 -0.02300
N 	N 	0.92060 0.46980 0.96780 -0.26400
C 	C 	0.89450 0.41730 0.99390 0.05000
H 	H 	0.91290 0.39970 0.02840 -0.00900
C 	C 	0.84140 0.39070 0.96950 -0.10600
H 	H 	0.82350 0.35480 0.98730 0.07900
C 	C 	0.81440 0.41650 0.91890 0.04700
C 	C 	0.84060 0.46900 0.89280 -0.10000
H 	H 	0.82220 0.48660 0.85830 0.07700
C 	C 	0.89370 0.49560 0.91720 0.03600
H 	H 	0.91160 0.53140 0.89940 -0.00400
C 	C 	0.61480 0.22910 0.89000 0.08700
N 	N 	0.59040 0.24690 0.83710 -0.14800
C 	C 	0.61170 0.29880 0.81340 0.19700
N 	N 	0.59140 0.31850 0.76360 -0.15200
C 	C 	0.61720 0.37370 0.74170 0.09600
N 	N 	0.66370 0.40480 0.76540 -0.14800
C 	C 	0.68610 0.38240 0.81620 0.18900
N 	N 	0.73810 0.41120 0.84230 -0.14200
C 	C 	0.75640 0.38410 0.89350 0.11000
N 	N 	0.73560 0.33590 0.92330 -0.14600
C 	C 	0.68580 0.30860 0.89570 0.18000
N 	N 	0.66200 0.25610 0.92300 -0.13800
C 	C 	0.66290 0.33070 0.84280 -0.16300
Zn	Zn	0.99506 0.51459 0.00624 1.16300
I 	I 	0.04759 0.58771 0.93526 -0.38700
N 	N 	0.04370 0.43620 0.03720 -0.28400
C 	C 	0.05670 0.43470 0.09420 0.08100
H 	H 	0.04860 0.46960 0.11890 -0.02700
C 	C 	0.08210 0.38180 0.11700 -0.13600
H 	H 	0.09400 0.38110 0.15770 0.08400
C 	C 	0.09130 0.32900 0.08280 0.07300
C 	C 	0.07940 0.33490 0.02330 -0.14000
H 	H 	0.08800 0.30170 0.99660 0.08500
C 	C 	0.05390 0.39120 0.00230 0.10300
H 	H 	0.04430 0.39550 0.96120 -0.03600
N 	N 	0.04230 0.05300 0.41860 -0.28700
C 	C 	0.07850 0.01890 0.38040 0.08100
H 	H 	0.08730 0.97680 0.39000 -0.02100
C 	C 	0.10160 0.04250 0.33050 -0.14500
H 	H 	0.12590 0.01660 0.30530 0.09100
C 	C 	0.09210 0.10080 0.31450 0.07200
C 	C 	0.05590 0.13940 0.35400 -0.13900
H 	H 	0.04680 0.18150 0.34470 0.08700
C 	C 	0.03590 0.11280 0.40410 0.08400
H 	H 	0.01520 0.13880 0.43200 -0.02300
N 	N 	0.42060 0.03020 0.03220 -0.26400
C 	C 	0.39450 0.08270 0.00610 0.04400
H 	H 	0.41290 0.10030 0.97160 -0.00500
C 	C 	0.34140 0.10930 0.03050 -0.10300
H 	H 	0.32350 0.14520 0.01270 0.07700
C 	C 	0.31440 0.08350 0.08110 0.04600
C 	C 	0.34060 0.03100 0.10720 -0.09800
H 	H 	0.32220 0.01340 0.14170 0.07600
C 	C 	0.39370 0.00440 0.08280 0.03300
H 	H 	0.41160 0.96860 0.10060 -0.00200
C 	C 	0.11480 0.27090 0.11000 0.08700
N 	N 	0.09040 0.25310 0.16290 -0.14800
C 	C 	0.11170 0.20120 0.18660 0.19700
N 	N 	0.09140 0.18150 0.23640 -0.15200
C 	C 	0.11720 0.12630 0.25830 0.09600
N 	N 	0.16370 0.09520 0.23460 -0.14800
C 	C 	0.18610 0.11760 0.18380 0.18900
N 	N 	0.23810 0.08880 0.15770 -0.14200
C 	C 	0.25640 0.11590 0.10650 0.11000
N 	N 	0.23560 0.16410 0.07670 -0.14700
C 	C 	0.18580 0.19140 0.10430 0.18000
N 	N 	0.16200 0.24390 0.07700 -0.13800
C 	C 	0.16290 0.16930 0.15720 -0.16300
Zn	Zn	0.50494 0.48541 0.50624 1.16300
I 	I 	0.45241 0.41229 0.43526 -0.38600
N 	N 	0.45630 0.56380 0.53720 -0.28400
C 	C 	0.44330 0.56530 0.59420 0.08100
H 	H 	0.45140 0.53040 0.61890 -0.02800
C 	C 	0.41790 0.61820 0.61700 -0.13600
H 	H 	0.40600 0.61890 0.65770 0.08400
C 	C 	0.40870 0.67100 0.58280 0.07300
C 	C 	0.42060 0.66510 0.52330 -0.14200
H 	H 	0.41200 0.69830 0.49660 0.08600
C 	C 	0.44610 0.60880 0.50230 0.09900
H 	H 	0.45570 0.60450 0.46120 -0.03300
N 	N 	0.45770 0.94700 0.91860 -0.28700
C 	C 	0.42150 0.98110 0.88040 0.07600
H 	H 	0.41270 0.02320 0.89000 -0.01900
C 	C 	0.39840 0.95750 0.83050 -0.14200
H 	H 	0.37410 0.98340 0.80530 0.08900
C 	C 	0.40790 0.89920 0.81450 0.07100
C 	C 	0.44410 0.86060 0.85400 -0.13800
H 	H 	0.45320 0.81850 0.84470 0.08700
C 	C 	0.46410 0.88720 0.90410 0.08400
H 	H 	0.48480 0.86120 0.93200 -0.02400
N 	N 	0.07940 0.96980 0.53220 -0.26400
C 	C 	0.10550 0.91730 0.50610 0.04500
H 	H 	0.08710 0.89970 0.47160 -0.00600
C 	C 	0.15860 0.89070 0.53050 -0.10400
H 	H 	0.17650 0.85480 0.51270 0.07700
C 	C 	0.18560 0.91650 0.58110 0.04600
C 	C 	0.15940 0.96900 0.60720 -0.09900
H 	H 	0.17780 0.98660 0.64170 0.07600
C 	C 	0.10630 0.99560 0.58280 0.03400
H 	H 	0.08840 0.03140 0.60060 -0.00300
C 	C 	0.38520 0.72910 0.61000 0.08700
N 	N 	0.40960 0.74690 0.66290 -0.14800
C 	C 	0.38830 0.79880 0.68660 0.19600
N 	N 	0.40860 0.81850 0.73640 -0.15200
C 	C 	0.38280 0.87370 0.75830 0.09700
N 	N 	0.33630 0.90480 0.73460 -0.14800
C 	C 	0.31390 0.88240 0.68380 0.18800
N 	N 	0.26190 0.91120 0.65770 -0.14200
C 	C 	0.24360 0.88410 0.60650 0.11000
N 	N 	0.26440 0.83590 0.57670 -0.14700
C 	C 	0.31420 0.80860 0.60430 0.18000
N 	N 	0.33800 0.75610 0.57700 -0.13800
C 	C 	0.33710 0.83070 0.65720 -0.16300
Zn	Zn	0.50672 0.99309 0.50131 1.16600
I 	I 	0.43107 0.94238 0.57167 -0.38400
N 	N 	0.53810 0.94650 0.42920 -0.27200
C 	C 	0.49620 0.93020 0.38470 0.04300
H 	H 	0.45280 0.93490 0.39120 -0.01200
C 	C 	0.51780 0.90700 0.33080 -0.10500
H 	H 	0.48920 0.89590 0.30040 0.07500
C 	C 	0.58130 0.90010 0.32130 0.05100
C 	C 	0.62320 0.91640 0.36580 -0.10400
H 	H 	0.66660 0.91170 0.35930 0.07500
C 	C 	0.60160 0.93960 0.41970 0.04200
H 	H 	0.63020 0.95070 0.45020 -0.00700
N 	N 	0.53340 0.56850 0.03880 -0.28100
C 	C 	0.58370 0.59490 0.01710 0.07400
H 	H 	0.60260 0.57630 0.98320 -0.01800
C 	C 	0.61100 0.64790 0.03990 -0.12400
H 	H 	0.64630 0.66560 0.02110 0.08400
C 	C 	0.58630 0.67470 0.09030 0.05300
C 	C 	0.53560 0.64430 0.11860 -0.11400
H 	H 	0.51900 0.65890 0.15530 0.08200
C 	C 	0.51080 0.59080 0.08930 0.06600
H 	H 	0.47630 0.57020 0.10700 -0.01400
N 	N 	0.91250 0.97130 0.03750 -0.28500
C 	C 	0.89450 0.98670 0.09220 0.07300
H 	H 	0.92010 0.01300 0.11590 -0.02200
C 	C 	0.83870 0.96480 0.11500 -0.13400
H 	H 	0.82370 0.98090 0.15170 0.08500
C 	C 	0.80570 0.92160 0.08620 0.06800
C 	C 	0.82410 0.90620 0.02820 -0.13400
H 	H 	0.80110 0.87730 0.00490 0.08500
C 	C 	0.87790 0.93520 0.00570 0.08800
H 	H 	0.88920 0.92790 0.96540 -0.02800
C 	C 	0.60380 0.87670 0.25960 0.10000
N 	N 	0.57660 0.82670 0.23860 -0.14700
C 	C 	0.60350 0.80520 0.18940 0.18600
N 	N 	0.58140 0.75100 0.16520 -0.14700
C 	C 	0.61060 0.73260 0.11720 0.11300
N 	N 	0.65890 0.75580 0.08830 -0.14900
C 	C 	0.68150 0.80740 0.11330 0.18000
N 	N 	0.73310 0.83790 0.08800 -0.14400
C 	C 	0.74870 0.88960 0.11500 0.10500
N 	N 	0.72760 0.91810 0.16320 -0.14900
C 	C 	0.67980 0.88790 0.18870 0.17900
N 	N 	0.65460 0.91180 0.23950 -0.14100
C 	C 	0.65470 0.83400 0.16300 -0.15800
Zn	Zn	0.99328 0.00691 0.00131 1.16500
I 	I 	0.06893 0.05762 0.07167 -0.38200
N 	N 	0.96190 0.05350 0.92920 -0.26900
C 	C 	0.00380 0.06980 0.88470 0.03600
H 	H 	0.04720 0.06510 0.89120 -0.01000
C 	C 	0.98220 0.09300 0.83080 -0.09600
H 	H 	0.01080 0.10410 0.80040 0.07100
C 	C 	0.91870 0.09990 0.82130 0.04800
C 	C 	0.87680 0.08360 0.86580 -0.10100
H 	H 	0.83340 0.08830 0.85930 0.07400
C 	C 	0.89840 0.06040 0.91970 0.04100
H 	H 	0.86980 0.04930 0.95020 -0.00600
N 	N 	0.96660 0.43150 0.53880 -0.28100
C 	C 	0.91630 0.40510 0.51710 0.07400
H 	H 	0.89740 0.42370 0.48320 -0.01800
C 	C 	0.88900 0.35210 0.53990 -0.12400
H 	H 	0.85370 0.33440 0.52110 0.08400
C 	C 	0.91370 0.32530 0.59030 0.05300
C 	C 	0.96440 0.35570 0.61860 -0.11400
H 	H 	0.98100 0.34110 0.65530 0.08200
C 	C 	0.98920 0.40920 0.58930 0.06700
H 	H 	0.02370 0.42980 0.60700 -0.01500
N 	N 	0.58750 0.02870 0.53750 -0.28400
C 	C 	0.60550 0.01330 0.59220 0.07300
H 	H 	0.57990 0.98700 0.61590 -0.02200
C 	C 	0.66130 0.03520 0.61500 -0.13400
H 	H 	0.67630 0.01910 0.65170 0.08500
C 	C 	0.69430 0.07840 0.58620 0.06800
C 	C 	0.67590 0.09380 0.52820 -0.13400
H 	H 	0.69890 0.12270 0.50490 0.08500
C 	C 	0.62210 0.06480 0.50570 0.08600
H 	H 	0.61080 0.07210 0.46540 -0.02800
C 	C 	0.89620 0.12330 0.75960 0.10100
N 	N 	0.92340 0.17330 0.73860 -0.14700
C 	C 	0.89650 0.19480 0.68940 0.18600
N 	N 	0.91860 0.24900 0.66520 -0.14700
C 	C 	0.88940 0.26740 0.61720 0.11300
N 	N 	0.84110 0.24420 0.58830 -0.14900
C 	C 	0.81850 0.19260 0.61330 0.18000
N 	N 	0.76690 0.16210 0.58800 -0.14400
C 	C 	0.75130 0.11040 0.61500 0.10500
N 	N 	0.77240 0.08190 0.66320 -0.14900
C 	C 	0.82020 0.11210 0.68870 0.18000
N 	N 	0.84540 0.08820 0.73950 -0.14100
C 	C 	0.84530 0.16600 0.66300 -0.15800
Zn	Zn	0.49328 0.49309 0.99869 1.16600
I 	I 	0.56893 0.44238 0.92833 -0.38400
N 	N 	0.46190 0.44650 0.07080 -0.27200
C 	C 	0.50380 0.43020 0.11530 0.04300
H 	H 	0.54720 0.43490 0.10880 -0.01200
C 	C 	0.48220 0.40700 0.16920 -0.10500
H 	H 	0.51080 0.39590 0.19960 0.07500
C 	C 	0.41870 0.40010 0.17870 0.05100
C 	C 	0.37680 0.41640 0.13420 -0.10400
H 	H 	0.33340 0.41170 0.14070 0.07500
C 	C 	0.39840 0.43960 0.08030 0.04200
H 	H 	0.36980 0.45070 0.04980 -0.00700
N 	N 	0.46660 0.06850 0.46120 -0.28100
C 	C 	0.41630 0.09490 0.48290 0.07300
H 	H 	0.39740 0.07630 0.51680 -0.01800
C 	C 	0.38900 0.14790 0.46010 -0.12400
H 	H 	0.35370 0.16560 0.47890 0.08400
C 	C 	0.41370 0.17470 0.40970 0.05300
C 	C 	0.46440 0.14430 0.38140 -0.11400
H 	H 	0.48100 0.15890 0.34470 0.08200
C 	C 	0.48920 0.09080 0.41070 0.06500
H 	H 	0.52370 0.07020 0.39300 -0.01400
N 	N 	0.08750 0.47130 0.46250 -0.28400
C 	C 	0.10550 0.48670 0.40780 0.07000
H 	H 	0.07990 0.51300 0.38410 -0.02000
C 	C 	0.16130 0.46480 0.38500 -0.13300
H 	H 	0.17630 0.48090 0.34830 0.08500
C 	C 	0.19430 0.42160 0.41380 0.06700
C 	C 	0.17590 0.40620 0.47180 -0.13300
H 	H 	0.19890 0.37730 0.49510 0.08500
C 	C 	0.12210 0.43520 0.49430 0.08600
H 	H 	0.11080 0.42790 0.53460 -0.02800
C 	C 	0.39620 0.37670 0.24040 0.10000
N 	N 	0.42340 0.32670 0.26140 -0.14700
C 	C 	0.39650 0.30520 0.31060 0.18600
N 	N 	0.41860 0.25100 0.33480 -0.14700
C 	C 	0.38940 0.23260 0.38280 0.11300
N 	N 	0.34110 0.25580 0.41170 -0.14900
C 	C 	0.31850 0.30740 0.38670 0.18000
N 	N 	0.26690 0.33790 0.41200 -0.14400
C 	C 	0.25130 0.38960 0.38500 0.10500
N 	N 	0.27240 0.41810 0.33680 -0.14900
C 	C 	0.32020 0.38790 0.31130 0.17900
N 	N 	0.34540 0.41180 0.26050 -0.14100
C 	C 	0.34530 0.33400 0.33700 -0.15800
Zn	Zn	0.00672 0.50691 0.49869 1.16600
I 	I 	0.93107 0.55762 0.42833 -0.38400
N 	N 	0.03810 0.55350 0.57080 -0.27300
C 	C 	0.99620 0.56980 0.61530 0.04600
H 	H 	0.95280 0.56510 0.60880 -0.01300
C 	C 	0.01780 0.59300 0.66920 -0.10800
H 	H 	0.98920 0.60410 0.69960 0.07700
C 	C 	0.08130 0.59990 0.67870 0.05200
C 	C 	0.12320 0.58360 0.63420 -0.10500
H 	H 	0.16660 0.58830 0.64070 0.07500
C 	C 	0.10160 0.56040 0.58030 0.04300
H 	H 	0.13020 0.54930 0.54980 -0.00700
N 	N 	0.03340 0.93150 0.96120 -0.28000
C 	C 	0.08370 0.90510 0.98290 0.06500
H 	H 	0.10260 0.92370 0.01680 -0.01200
C 	C 	0.11100 0.85210 0.96010 -0.11900
H 	H 	0.14630 0.83440 0.97890 0.08100
C 	C 	0.08630 0.82530 0.90970 0.05000
C 	C 	0.03560 0.85570 0.88140 -0.11100
H 	H 	0.01900 0.84110 0.84470 0.08100
C 	C 	0.01080 0.90920 0.91070 0.06100
H 	H 	0.97630 0.92980 0.89300 -0.01200
N 	N 	0.41250 0.52870 0.96250 -0.28400
C 	C 	0.39450 0.51330 0.90780 0.07000
H 	H 	0.42010 0.48700 0.88410 -0.02100
C 	C 	0.33870 0.53520 0.88500 -0.13200
H 	H 	0.32370 0.51910 0.84830 0.08400
C 	C 	0.30570 0.57840 0.91380 0.06700
C 	C 	0.32410 0.59380 0.97180 -0.13200
H 	H 	0.30110 0.62270 0.99510 0.08400
C 	C 	0.37790 0.56480 0.99430 0.08400
H 	H 	0.38920 0.57210 0.03460 -0.02600
C 	C 	0.10380 0.62330 0.74040 0.09900
N 	N 	0.07660 0.67330 0.76140 -0.14700
C 	C 	0.10350 0.69480 0.81060 0.18600
N 	N 	0.08140 0.74900 0.83480 -0.14700
C 	C 	0.11060 0.76740 0.88280 0.11400
N 	N 	0.15890 0.74420 0.91170 -0.15000
C 	C 	0.18150 0.69260 0.88670 0.18000
N 	N 	0.23310 0.66210 0.91200 -0.14400
C 	C 	0.24870 0.61040 0.88500 0.10500
N 	N 	0.22760 0.58190 0.83680 -0.14900
C 	C 	0.17980 0.61210 0.81130 0.17900
N 	N 	0.15460 0.58820 0.76050 -0.14100
C 	C 	0.15470 0.66600 0.83700 -0.15800
