data_crystal

_cell_length_a 18.09080
_cell_length_b 18.09080
_cell_length_c 24.75300
_cell_angle_alpha 90.00000
_cell_angle_beta  90.00000
_cell_angle_gamma 120.00000

_symmetry_space_group_name_	'P 1'
_symmetry_space_group_name_H-M	'P 1'

loop_
_symmetry_equiv_pos_as_xyz
  x,y,z

loop_
_atom_site_label
_atom_site_type_symbol
_atom_site_fract_x
_atom_site_fract_y
_atom_site_fract_z
_atom_site_charge
C 	C 	0.15610 0.20480 0.11080 0.27100
C 	C 	0.17500 0.49460 0.88530 0.19700
C 	C 	0.16720 0.58930 0.93230 0.10100
H 	H 	0.18090 0.64170 0.94760 -0.03900
N 	N 	0.09750 0.51890 0.94300 -0.24200
N 	N 	0.21860 0.57940 0.89630 -0.33400
N 	N 	0.10040 0.45580 0.91240 -0.24900
N 	N 	0.20470 0.45550 0.85370 -0.33600
H 	H 	0.17550 0.40090 0.84940 0.18100
H 	H 	0.25320 0.48490 0.83760 0.10400
O 	O 	0.07900 0.16240 0.12440 -0.50400
O 	O 	0.08600 0.28050 0.20510 -0.35200
O 	O 	0.19490 0.28170 0.09880 -0.40500
C 	C 	0.79520 0.95130 0.11080 0.44000
C 	C 	0.50540 0.68040 0.88530 0.20600
C 	C 	0.41070 0.57790 0.93230 0.10200
H 	H 	0.35830 0.53920 0.94760 -0.04100
N 	N 	0.48110 0.57860 0.94300 -0.23200
N 	N 	0.42060 0.63920 0.89630 -0.33400
N 	N 	0.54420 0.64460 0.91240 -0.23900
N 	N 	0.54450 0.74920 0.85370 -0.34300
H 	H 	0.59910 0.77460 0.84940 0.19900
H 	H 	0.51510 0.76830 0.83760 0.12600
O 	O 	0.83760 0.91660 0.12440 -0.41200
O 	O 	0.71950 0.80550 0.20510 -0.34200
O 	O 	0.71830 0.91320 0.09880 -0.37600
C 	C 	0.04870 0.84390 0.11080 0.12000
C 	C 	0.31960 0.82500 0.88530 0.22400
C 	C 	0.42210 0.83280 0.93230 0.11600
H 	H 	0.46080 0.81910 0.94760 -0.02200
N 	N 	0.42140 0.90250 0.94300 -0.18100
N 	N 	0.36080 0.78140 0.89630 -0.33100
N 	N 	0.35540 0.89960 0.91240 -0.19100
N 	N 	0.25080 0.79530 0.85370 -0.33900
H 	H 	0.22540 0.82450 0.84940 0.20700
H 	H 	0.23170 0.74680 0.83760 0.11100
O 	O 	0.08340 0.92100 0.12440 -0.35800
O 	O 	0.19450 0.91400 0.20510 -0.34600
O 	O 	0.08680 0.80510 0.09880 -0.35600
C 	C 	0.84390 0.79520 0.61080 0.27100
C 	C 	0.82500 0.50540 0.38530 0.22000
C 	C 	0.83280 0.41070 0.43230 0.11100
H 	H 	0.81910 0.35830 0.44760 -0.03200
N 	N 	0.90250 0.48110 0.44300 -0.19400
N 	N 	0.78140 0.42060 0.39630 -0.33300
N 	N 	0.89960 0.54420 0.41240 -0.19800
N 	N 	0.79530 0.54450 0.35370 -0.34000
H 	H 	0.82450 0.59910 0.34940 0.20600
H 	H 	0.74680 0.51510 0.33760 0.11200
O 	O 	0.92100 0.83760 0.62440 -0.34600
O 	O 	0.91400 0.71950 0.70510 -0.34100
O 	O 	0.80510 0.71830 0.59880 -0.37100
C 	C 	0.20480 0.04870 0.61080 0.11400
C 	C 	0.49460 0.31960 0.38530 0.19400
C 	C 	0.58930 0.42210 0.43230 0.09700
H 	H 	0.64170 0.46080 0.44760 -0.04700
N 	N 	0.51890 0.42140 0.44300 -0.24200
N 	N 	0.57940 0.36080 0.39630 -0.33500
N 	N 	0.45580 0.35540 0.41240 -0.24300
N 	N 	0.45550 0.25080 0.35370 -0.33500
H 	H 	0.40090 0.22540 0.34940 0.18000
H 	H 	0.48490 0.23170 0.33760 0.10200
O 	O 	0.16240 0.08340 0.62440 -0.45800
O 	O 	0.28050 0.19450 0.70510 -0.37200
O 	O 	0.28170 0.08680 0.59880 -0.37300
C 	C 	0.95130 0.15610 0.61080 0.43200
C 	C 	0.68040 0.17500 0.38530 0.20100
C 	C 	0.57790 0.16720 0.43230 0.09900
H 	H 	0.53920 0.18090 0.44760 -0.05100
N 	N 	0.57860 0.09750 0.44300 -0.25300
N 	N 	0.63920 0.21860 0.39630 -0.33600
N 	N 	0.64460 0.10040 0.41240 -0.25200
N 	N 	0.74920 0.20470 0.35370 -0.34200
H 	H 	0.77460 0.17550 0.34940 0.19500
H 	H 	0.76830 0.25320 0.33760 0.12300
O 	O 	0.91660 0.07900 0.62440 -0.48000
O 	O 	0.80550 0.08600 0.70510 -0.33100
O 	O 	0.91320 0.19490 0.59880 -0.37800
C 	C 	0.20480 0.15610 0.38920 0.27300
C 	C 	0.49460 0.17500 0.61470 0.19300
C 	C 	0.58930 0.16720 0.56770 0.09800
H 	H 	0.64170 0.18090 0.55240 -0.04800
N 	N 	0.51890 0.09750 0.55700 -0.25300
N 	N 	0.57940 0.21860 0.60370 -0.33500
N 	N 	0.45580 0.10040 0.58760 -0.25200
N 	N 	0.45550 0.20470 0.64630 -0.33600
H 	H 	0.40090 0.17550 0.65060 0.18000
H 	H 	0.48490 0.25320 0.66240 0.10300
O 	O 	0.16240 0.07900 0.37560 -0.50600
O 	O 	0.28050 0.08600 0.29490 -0.35100
O 	O 	0.28170 0.19490 0.40120 -0.40100
C 	C 	0.95130 0.79520 0.38920 0.42500
C 	C 	0.68040 0.50540 0.61470 0.20300
C 	C 	0.57790 0.41070 0.56770 0.09800
H 	H 	0.53920 0.35830 0.55240 -0.05000
N 	N 	0.57860 0.48110 0.55700 -0.24200
N 	N 	0.63920 0.42060 0.60370 -0.33500
N 	N 	0.64460 0.54420 0.58760 -0.24200
N 	N 	0.74920 0.54450 0.64630 -0.34200
H 	H 	0.77460 0.59910 0.65060 0.19700
H 	H 	0.76830 0.51510 0.66240 0.12300
O 	O 	0.91660 0.83760 0.37560 -0.41000
O 	O 	0.80550 0.71950 0.29490 -0.34300
O 	O 	0.91320 0.71830 0.40120 -0.37700
C 	C 	0.84390 0.04870 0.38920 0.11500
C 	C 	0.82500 0.31960 0.61470 0.21900
C 	C 	0.83280 0.42210 0.56770 0.11100
H 	H 	0.81910 0.46080 0.55240 -0.03200
N 	N 	0.90250 0.42140 0.55700 -0.19400
N 	N 	0.78140 0.36080 0.60370 -0.33300
N 	N 	0.89960 0.35540 0.58760 -0.19700
N 	N 	0.79530 0.25080 0.64630 -0.33800
H 	H 	0.82450 0.22540 0.65060 0.20400
H 	H 	0.74680 0.23170 0.66240 0.11000
O 	O 	0.92100 0.08340 0.37560 -0.36200
O 	O 	0.91400 0.19450 0.29490 -0.34900
O 	O 	0.80510 0.08680 0.40120 -0.34700
C 	C 	0.79520 0.84390 0.88920 0.27400
C 	C 	0.50540 0.82500 0.11470 0.21900
C 	C 	0.41070 0.83280 0.06770 0.10800
H 	H 	0.35830 0.81910 0.05240 -0.03900
N 	N 	0.48110 0.90250 0.05700 -0.19700
N 	N 	0.42060 0.78140 0.10370 -0.33400
N 	N 	0.54420 0.89960 0.08760 -0.19600
N 	N 	0.54450 0.79530 0.14630 -0.34000
H 	H 	0.59910 0.82450 0.15060 0.20700
H 	H 	0.51510 0.74680 0.16240 0.11200
O 	O 	0.83760 0.92100 0.87560 -0.33600
O 	O 	0.71950 0.91400 0.79490 -0.33900
O 	O 	0.71830 0.80510 0.90120 -0.36200
C 	C 	0.04870 0.20480 0.88920 0.13100
C 	C 	0.31960 0.49460 0.11470 0.19200
C 	C 	0.42210 0.58930 0.06770 0.09300
H 	H 	0.46080 0.64170 0.05240 -0.05500
N 	N 	0.42140 0.51890 0.05700 -0.24800
N 	N 	0.36080 0.57940 0.10370 -0.33600
N 	N 	0.35540 0.45580 0.08760 -0.24500
N 	N 	0.25080 0.45550 0.14630 -0.33500
H 	H 	0.22540 0.40090 0.15060 0.17900
H 	H 	0.23170 0.48490 0.16240 0.10200
O 	O 	0.08340 0.16240 0.87560 -0.45900
O 	O 	0.19450 0.28050 0.79490 -0.37100
O 	O 	0.08680 0.28170 0.90120 -0.37000
C 	C 	0.15610 0.95130 0.88920 0.44500
C 	C 	0.17500 0.68040 0.11470 0.20000
C 	C 	0.16720 0.57790 0.06770 0.09500
H 	H 	0.18090 0.53920 0.05240 -0.05900
N 	N 	0.09750 0.57860 0.05700 -0.25800
N 	N 	0.21860 0.63920 0.10370 -0.33700
N 	N 	0.10040 0.64460 0.08760 -0.25400
N 	N 	0.20470 0.74920 0.14630 -0.34200
H 	H 	0.17550 0.77460 0.15060 0.19600
H 	H 	0.25320 0.76830 0.16240 0.12400
O 	O 	0.07900 0.91660 0.87560 -0.47900
O 	O 	0.08600 0.80550 0.79490 -0.33100
O 	O 	0.19490 0.91320 0.90120 -0.37200
C 	C 	0.84390 0.79520 0.88920 0.27400
C 	C 	0.82500 0.50540 0.11470 0.21700
C 	C 	0.83280 0.41070 0.06770 0.10700
H 	H 	0.81910 0.35830 0.05240 -0.04000
N 	N 	0.90250 0.48110 0.05700 -0.20100
N 	N 	0.78140 0.42060 0.10370 -0.33400
N 	N 	0.89960 0.54420 0.08760 -0.20100
N 	N 	0.79530 0.54450 0.14630 -0.34000
H 	H 	0.82450 0.59910 0.15060 0.20500
H 	H 	0.74680 0.51510 0.16240 0.11200
O 	O 	0.92100 0.83760 0.87560 -0.34600
O 	O 	0.91400 0.71950 0.79490 -0.34100
O 	O 	0.80510 0.71830 0.90120 -0.36600
C 	C 	0.20480 0.04870 0.88920 0.11800
C 	C 	0.49460 0.31960 0.11470 0.19200
C 	C 	0.58930 0.42210 0.06770 0.09300
H 	H 	0.64170 0.46080 0.05240 -0.05600
N 	N 	0.51890 0.42140 0.05700 -0.24800
N 	N 	0.57940 0.36080 0.10370 -0.33600
N 	N 	0.45580 0.35540 0.08760 -0.24500
N 	N 	0.45550 0.25080 0.14630 -0.33500
H 	H 	0.40090 0.22540 0.15060 0.17900
H 	H 	0.48490 0.23170 0.16240 0.10200
O 	O 	0.16240 0.08340 0.87560 -0.45700
O 	O 	0.28050 0.19450 0.79490 -0.37200
O 	O 	0.28170 0.08680 0.90120 -0.36800
C 	C 	0.95130 0.15610 0.88920 0.43400
C 	C 	0.68040 0.17500 0.11470 0.19900
C 	C 	0.57790 0.16720 0.06770 0.09500
H 	H 	0.53920 0.18090 0.05240 -0.05900
N 	N 	0.57860 0.09750 0.05700 -0.25900
N 	N 	0.63920 0.21860 0.10370 -0.33700
N 	N 	0.64460 0.10040 0.08760 -0.25400
N 	N 	0.74920 0.20470 0.14630 -0.34200
H 	H 	0.77460 0.17550 0.15060 0.19400
H 	H 	0.76830 0.25320 0.16240 0.12300
O 	O 	0.91660 0.07900 0.87560 -0.47900
O 	O 	0.80550 0.08600 0.79490 -0.33100
O 	O 	0.91320 0.19490 0.90120 -0.37300
C 	C 	0.15610 0.20480 0.38920 0.27200
C 	C 	0.17500 0.49460 0.61470 0.19300
C 	C 	0.16720 0.58930 0.56770 0.09700
H 	H 	0.18090 0.64170 0.55240 -0.04800
N 	N 	0.09750 0.51890 0.55700 -0.25200
N 	N 	0.21860 0.57940 0.60370 -0.33500
N 	N 	0.10040 0.45580 0.58760 -0.25200
N 	N 	0.20470 0.45550 0.64630 -0.33600
H 	H 	0.17550 0.40090 0.65060 0.18000
H 	H 	0.25320 0.48490 0.66240 0.10400
O 	O 	0.07900 0.16240 0.37560 -0.50300
O 	O 	0.08600 0.28050 0.29490 -0.35200
O 	O 	0.19490 0.28170 0.40120 -0.40000
C 	C 	0.79520 0.95130 0.38920 0.44300
C 	C 	0.50540 0.68040 0.61470 0.20400
C 	C 	0.41070 0.57790 0.56770 0.09800
H 	H 	0.35830 0.53920 0.55240 -0.05000
N 	N 	0.48110 0.57860 0.55700 -0.24200
N 	N 	0.42060 0.63920 0.60370 -0.33500
N 	N 	0.54420 0.64460 0.58760 -0.24200
N 	N 	0.54450 0.74920 0.64630 -0.34300
H 	H 	0.59910 0.77460 0.65060 0.19800
H 	H 	0.51510 0.76830 0.66240 0.12500
O 	O 	0.83760 0.91660 0.37560 -0.41100
O 	O 	0.71950 0.80550 0.29490 -0.34200
O 	O 	0.71830 0.91320 0.40120 -0.37100
C 	C 	0.04870 0.84390 0.38920 0.12100
C 	C 	0.31960 0.82500 0.61470 0.22200
C 	C 	0.42210 0.83280 0.56770 0.11200
H 	H 	0.46080 0.81910 0.55240 -0.03000
N 	N 	0.42140 0.90250 0.55700 -0.19000
N 	N 	0.36080 0.78140 0.60370 -0.33300
N 	N 	0.35540 0.89960 0.58760 -0.19300
N 	N 	0.25080 0.79530 0.64630 -0.33900
H 	H 	0.22540 0.82450 0.65060 0.20600
H 	H 	0.23170 0.74680 0.66240 0.11100
O 	O 	0.08340 0.92100 0.37560 -0.35700
O 	O 	0.19450 0.91400 0.29490 -0.34600
O 	O 	0.08680 0.80510 0.40120 -0.35100
C 	C 	0.79520 0.84390 0.61080 0.27100
C 	C 	0.50540 0.82500 0.38530 0.22200
C 	C 	0.41070 0.83280 0.43230 0.11200
H 	H 	0.35830 0.81910 0.44760 -0.03100
N 	N 	0.48110 0.90250 0.44300 -0.19000
N 	N 	0.42060 0.78140 0.39630 -0.33300
N 	N 	0.54420 0.89960 0.41240 -0.19300
N 	N 	0.54450 0.79530 0.35370 -0.34000
H 	H 	0.59910 0.82450 0.34940 0.20800
H 	H 	0.51510 0.74680 0.33760 0.11300
O 	O 	0.83760 0.92100 0.62440 -0.33700
O 	O 	0.71950 0.91400 0.70510 -0.33900
O 	O 	0.71830 0.80510 0.59880 -0.36700
C 	C 	0.04870 0.20480 0.61080 0.12600
C 	C 	0.31960 0.49460 0.38530 0.19400
C 	C 	0.42210 0.58930 0.43230 0.09700
H 	H 	0.46080 0.64170 0.44760 -0.04700
N 	N 	0.42140 0.51890 0.44300 -0.24200
N 	N 	0.36080 0.57940 0.39630 -0.33500
N 	N 	0.35540 0.45580 0.41240 -0.24300
N 	N 	0.25080 0.45550 0.35370 -0.33500
H 	H 	0.22540 0.40090 0.34940 0.18000
H 	H 	0.23170 0.48490 0.33760 0.10200
O 	O 	0.08340 0.16240 0.62440 -0.46000
O 	O 	0.19450 0.28050 0.70510 -0.37100
O 	O 	0.08680 0.28170 0.59880 -0.37500
C 	C 	0.15610 0.95130 0.61080 0.44300
C 	C 	0.17500 0.68040 0.38530 0.20200
C 	C 	0.16720 0.57790 0.43230 0.09900
H 	H 	0.18090 0.53920 0.44760 -0.05100
N 	N 	0.09750 0.57860 0.44300 -0.25200
N 	N 	0.21860 0.63920 0.39630 -0.33600
N 	N 	0.10040 0.64460 0.41240 -0.25200
N 	N 	0.20470 0.74920 0.35370 -0.34200
H 	H 	0.17550 0.77460 0.34940 0.19700
H 	H 	0.25320 0.76830 0.33760 0.12500
O 	O 	0.07900 0.91660 0.62440 -0.48000
O 	O 	0.08600 0.80550 0.70510 -0.33100
O 	O 	0.19490 0.91320 0.59880 -0.37700
C 	C 	0.20480 0.15610 0.11080 0.27100
C 	C 	0.49460 0.17500 0.88530 0.19600
C 	C 	0.58930 0.16720 0.93230 0.10100
H 	H 	0.64170 0.18090 0.94760 -0.03900
N 	N 	0.51890 0.09750 0.94300 -0.24300
N 	N 	0.57940 0.21860 0.89630 -0.33400
N 	N 	0.45580 0.10040 0.91240 -0.25000
N 	N 	0.45550 0.20470 0.85370 -0.33600
H 	H 	0.40090 0.17550 0.84940 0.18100
H 	H 	0.48490 0.25320 0.83760 0.10400
O 	O 	0.16240 0.07900 0.12440 -0.50700
O 	O 	0.28050 0.08600 0.20510 -0.35100
O 	O 	0.28170 0.19490 0.09880 -0.40600
C 	C 	0.95130 0.79520 0.11080 0.42300
C 	C 	0.68040 0.50540 0.88530 0.20600
C 	C 	0.57790 0.41070 0.93230 0.10200
H 	H 	0.53920 0.35830 0.94760 -0.04100
N 	N 	0.57860 0.48110 0.94300 -0.23200
N 	N 	0.63920 0.42060 0.89630 -0.33400
N 	N 	0.64460 0.54420 0.91240 -0.23900
N 	N 	0.74920 0.54450 0.85370 -0.34200
H 	H 	0.77460 0.59910 0.84940 0.19700
H 	H 	0.76830 0.51510 0.83760 0.12400
O 	O 	0.91660 0.83760 0.12440 -0.41100
O 	O 	0.80550 0.71950 0.20510 -0.34300
O 	O 	0.91320 0.71830 0.09880 -0.38200
C 	C 	0.84390 0.04870 0.11080 0.11400
C 	C 	0.82500 0.31960 0.88530 0.22200
C 	C 	0.83280 0.42210 0.93230 0.11500
H 	H 	0.81910 0.46080 0.94760 -0.02300
N 	N 	0.90250 0.42140 0.94300 -0.18500
N 	N 	0.78140 0.36080 0.89630 -0.33200
N 	N 	0.89960 0.35540 0.91240 -0.19400
N 	N 	0.79530 0.25080 0.85370 -0.33800
H 	H 	0.82450 0.22540 0.84940 0.20500
H 	H 	0.74680 0.23170 0.83760 0.11000
O 	O 	0.92100 0.08340 0.12440 -0.36400
O 	O 	0.91400 0.19450 0.20510 -0.34900
O 	O 	0.80510 0.08680 0.09880 -0.35200
C 	C 	0.04910 0.26250 0.25000 0.05900
C 	C 	0.73750 0.78660 0.25000 0.21300
C 	C 	0.21340 0.95090 0.25000 0.36100
C 	C 	0.95090 0.73750 0.75000 0.35400
C 	C 	0.26250 0.21340 0.75000 0.19400
C 	C 	0.78660 0.04910 0.75000 0.05800
C 	C 	0.26250 0.04910 0.25000 0.04800
C 	C 	0.78660 0.73750 0.25000 0.21300
C 	C 	0.95090 0.21340 0.25000 0.34800
C 	C 	0.73750 0.95090 0.75000 0.36700
C 	C 	0.21340 0.26250 0.75000 0.19400
C 	C 	0.04910 0.78660 0.75000 0.07000
C 	C 	-0.00000 0.26280 0.03050 0.03600
H 	H 	-0.00000 0.21410 0.01810 -0.05100
C 	C 	-0.00000 0.35810 0.08220 0.14600
N 	N 	-0.00000 0.28200 0.08300 -0.30600
N 	N 	-0.00000 0.32240 0.99810 -0.21600
N 	N 	-0.00000 0.38380 0.03260 -0.27700
N 	N 	-0.00000 0.39900 0.12850 -0.31800
H 	H 	-0.00000 0.44660 0.12680 0.09800
H 	H 	0.00000 0.37710 0.15940 0.08900
Cl	Cl	-0.00000 0.33670 0.82110 -0.55300
Zn	Zn	0.00000 0.21069 0.14329 1.18300
Zn	Zn	0.00000 0.33285 0.91356 1.18300
C 	C 	0.73720 0.73720 0.03050 0.05900
H 	H 	0.78590 0.78590 0.01810 0.01000
C 	C 	0.64190 0.64190 0.08220 0.18500
N 	N 	0.71800 0.71800 0.08300 -0.28500
N 	N 	0.67760 0.67760 0.99810 -0.18500
N 	N 	0.61620 0.61620 0.03260 -0.25600
N 	N 	0.60100 0.60100 0.12850 -0.33000
H 	H 	0.55340 0.55340 0.12680 0.13400
H 	H 	0.62290 0.62290 0.15940 0.12400
Cl	Cl	0.66330 0.66330 0.82110 -0.45500
Zn	Zn	0.78931 0.78931 0.14329 1.22500
Zn	Zn	0.66715 0.66715 0.91356 1.21300
C 	C 	0.26280 0.00000 0.03050 0.03400
H 	H 	0.21410 0.00000 0.01810 -0.05600
C 	C 	0.35810 0.00000 0.08220 0.14200
N 	N 	0.28200 -0.00000 0.08300 -0.30800
N 	N 	0.32240 0.00000 0.99810 -0.21800
N 	N 	0.38380 0.00000 0.03260 -0.27900
N 	N 	0.39900 0.00000 0.12850 -0.31700
H 	H 	0.44660 0.00000 0.12680 0.09500
H 	H 	0.37710 0.00000 0.15940 0.08500
Cl	Cl	0.33670 0.00000 0.82110 -0.56100
Zn	Zn	0.21069 0.00000 0.14329 1.18000
Zn	Zn	0.33285 0.00000 0.91356 1.18000
C 	C 	-0.00000 0.73720 0.53050 -0.17800
H 	H 	1.00000 0.78590 0.51810 0.21000
C 	C 	0.00000 0.64190 0.58220 0.15200
N 	N 	-0.00000 0.71800 0.58300 -0.26800
N 	N 	0.00000 0.67760 0.49810 -0.21100
N 	N 	-0.00000 0.61620 0.53260 -0.25600
N 	N 	-0.00000 0.60100 0.62850 -0.31900
H 	H 	-0.00000 0.55340 0.62680 0.09900
H 	H 	0.00000 0.62290 0.65940 0.08800
Cl	Cl	-0.00000 0.66330 0.32110 -0.54800
Zn	Zn	-0.00000 0.78931 0.64329 1.18600
Zn	Zn	0.00000 0.66715 0.41356 1.18000
C 	C 	0.26280 0.26280 0.53050 0.10500
H 	H 	0.21410 0.21410 0.51810 -0.02900
C 	C 	0.35810 0.35810 0.58220 0.18500
N 	N 	0.28200 0.28200 0.58300 -0.29500
N 	N 	0.32240 0.32240 0.49810 -0.23100
N 	N 	0.38380 0.38380 0.53260 -0.23800
N 	N 	0.39900 0.39900 0.62850 -0.33000
H 	H 	0.44660 0.44660 0.62680 0.13400
H 	H 	0.37710 0.37710 0.65940 0.12500
Cl	Cl	0.33670 0.33670 0.32110 -0.46400
Zn	Zn	0.21069 0.21069 0.64329 1.21700
Zn	Zn	0.33285 0.33285 0.41356 1.21000
C 	C 	0.73720 0.00000 0.53050 0.08000
H 	H 	0.78590 0.00000 0.51810 -0.03600
C 	C 	0.64190 0.00000 0.58220 0.14600
N 	N 	0.71800 0.00000 0.58300 -0.31000
N 	N 	0.67760 0.00000 0.49810 -0.25400
N 	N 	0.61620 0.00000 0.53260 -0.25900
N 	N 	0.60100 0.00000 0.62850 -0.31800
H 	H 	0.55340 0.00000 0.62680 0.09500
H 	H 	0.62290 0.00000 0.65940 0.08600
Cl	Cl	0.66330 0.00000 0.32110 -0.55600
Zn	Zn	0.78931 0.00000 0.64329 1.18500
Zn	Zn	0.66715 0.00000 0.41356 1.17900
C 	C 	0.26280 0.00000 0.46950 0.08000
H 	H 	0.21410 0.00000 0.48190 -0.05900
C 	C 	0.35810 0.00000 0.41780 0.14400
N 	N 	0.28200 0.00000 0.41700 -0.31300
N 	N 	0.32240 0.00000 0.50190 -0.25800
N 	N 	0.38380 0.00000 0.46740 -0.26000
N 	N 	0.39900 0.00000 0.37150 -0.31700
H 	H 	0.44660 0.00000 0.37320 0.09500
H 	H 	0.37710 0.00000 0.34060 0.08600
Cl	Cl	0.33670 0.00000 0.67890 -0.56100
Zn	Zn	0.21069 0.00000 0.35671 1.18100
Zn	Zn	0.33285 0.00000 0.58644 1.17800
C 	C 	0.73720 0.73720 0.46950 0.10600
H 	H 	0.78590 0.78590 0.48190 0.00800
C 	C 	0.64190 0.64190 0.41780 0.18700
N 	N 	0.71800 0.71800 0.41700 -0.29000
N 	N 	0.67760 0.67760 0.50190 -0.22500
N 	N 	0.61620 0.61620 0.46740 -0.23600
N 	N 	0.60100 0.60100 0.37150 -0.33000
H 	H 	0.55340 0.55340 0.37320 0.13500
H 	H 	0.62290 0.62290 0.34060 0.12500
Cl	Cl	0.66330 0.66330 0.67890 -0.45500
Zn	Zn	0.78931 0.78931 0.35671 1.22500
Zn	Zn	0.66715 0.66715 0.58644 1.21100
C 	C 	-0.00000 0.26280 0.46950 0.08200
H 	H 	-0.00000 0.21410 0.48190 -0.05300
C 	C 	-0.00000 0.35810 0.41780 0.14800
N 	N 	-0.00000 0.28200 0.41700 -0.31100
N 	N 	0.00000 0.32240 0.50190 -0.25600
N 	N 	-0.00000 0.38380 0.46740 -0.25800
N 	N 	0.00000 0.39900 0.37150 -0.31800
H 	H 	0.00000 0.44660 0.37320 0.09800
H 	H 	0.00000 0.37710 0.34060 0.08900
Cl	Cl	-0.00000 0.33670 0.67890 -0.55300
Zn	Zn	0.00000 0.21069 0.35671 1.18400
Zn	Zn	-0.00000 0.33285 0.58644 1.18100
C 	C 	0.73720 0.00000 0.96950 0.12500
H 	H 	0.78590 0.00000 0.98190 -0.03600
C 	C 	0.64190 0.00000 0.91780 0.14800
N 	N 	0.71800 0.00000 0.91700 -0.31400
N 	N 	0.67760 0.00000 0.00190 -0.29200
N 	N 	0.61620 0.00000 0.96740 -0.23700
N 	N 	0.60100 0.00000 0.87150 -0.31800
H 	H 	0.55340 0.00000 0.87320 0.09600
H 	H 	0.62290 0.00000 0.84060 0.08600
Cl	Cl	0.66330 0.00000 0.17890 -0.55500
Zn	Zn	0.78931 0.00000 0.85671 1.18500
Zn	Zn	0.66715 0.00000 0.08644 1.17800
C 	C 	0.26280 0.26280 0.96950 0.15100
H 	H 	0.21410 0.21410 0.98190 -0.02800
C 	C 	0.35810 0.35810 0.91780 0.18700
N 	N 	0.28200 0.28200 0.91700 -0.29900
N 	N 	0.32240 0.32240 0.00190 -0.27100
N 	N 	0.38380 0.38380 0.96740 -0.21500
N 	N 	0.39900 0.39900 0.87150 -0.33000
H 	H 	0.44660 0.44660 0.87320 0.13500
H 	H 	0.37710 0.37710 0.84060 0.12500
Cl	Cl	0.33670 0.33670 0.17890 -0.46400
Zn	Zn	0.21069 0.21069 0.85671 1.21800
Zn	Zn	0.33285 0.33285 0.08644 1.20900
C 	C 	-0.00000 0.73720 0.96950 -0.12900
H 	H 	1.00000 0.78590 0.98190 0.20800
C 	C 	0.00000 0.64190 0.91780 0.15400
N 	N 	-0.00000 0.71800 0.91700 -0.27200
N 	N 	-0.00000 0.67760 0.00190 -0.25000
N 	N 	-0.00000 0.61620 0.96740 -0.23400
N 	N 	-0.00000 0.60100 0.87150 -0.31900
H 	H 	-0.00000 0.55340 0.87320 0.10000
H 	H 	-0.00000 0.62290 0.84060 0.08900
Cl	Cl	-0.00000 0.66330 0.17890 -0.54700
Zn	Zn	-0.00000 0.78931 0.85671 1.18600
Zn	Zn	-0.00000 0.66715 0.08644 1.17800
Cl	Cl	-0.00000 0.00000 0.25000 -0.67800
Cl	Cl	0.00000 0.00000 0.75000 -0.68100
Cl	Cl	-0.00000 0.00000 -0.00000 -0.72100
Cl	Cl	-0.00000 0.00000 0.50000 -0.68800
Tb	Tb	-0.00000 0.00000 0.12452 1.12000
Tb	Tb	-0.00000 0.00000 0.62452 1.12200
Tb	Tb	0.00000 0.00000 0.37548 1.12300
Tb	Tb	-0.00000 0.00000 0.87548 1.14800
Zn	Zn	-0.00000 0.50000 -0.00000 1.12100
Zn	Zn	0.50000 0.50000 -0.00000 1.15000
Zn	Zn	0.50000 0.00000 -0.00000 1.11800
Zn	Zn	-0.00000 0.50000 0.50000 1.13400
Zn	Zn	0.50000 0.50000 0.50000 1.16400
Zn	Zn	0.50000 0.00000 0.50000 1.13100
Zn	Zn	0.33333 0.66667 0.87266 1.14600
Zn	Zn	0.66667 0.33333 0.37266 1.14500
Zn	Zn	0.66667 0.33333 0.62734 1.14500
Zn	Zn	0.33333 0.66667 0.12734 1.14400
Zn	Zn	0.66667 0.33333 0.12734 1.14400
Zn	Zn	0.33333 0.66667 0.62734 1.14500
Zn	Zn	0.33333 0.66667 0.37266 1.14500
Zn	Zn	0.66667 0.33333 0.87266 1.14600
