data_crystal

_cell_length_a 18.11520
_cell_length_b 18.11520
_cell_length_c 24.85150
_cell_angle_alpha 90.00000
_cell_angle_beta  90.00000
_cell_angle_gamma 120.00000

_symmetry_space_group_name_	'P 1'
_symmetry_space_group_name_H-M	'P 1'

loop_
_symmetry_equiv_pos_as_xyz
  x,y,z

loop_
_atom_site_label
_atom_site_type_symbol
_atom_site_fract_x
_atom_site_fract_y
_atom_site_fract_z
_atom_site_charge
C 	C 	0.15640 0.20560 0.11090 0.27300
C 	C 	0.17480 0.49460 0.88490 0.19200
C 	C 	0.16710 0.58910 0.93220 0.10300
H 	H 	0.18120 0.64130 0.94800 -0.03900
N 	N 	0.09760 0.51900 0.94270 -0.24000
N 	N 	0.21790 0.57950 0.89580 -0.33100
N 	N 	0.10050 0.45620 0.91310 -0.24500
N 	N 	0.20410 0.45600 0.85300 -0.33300
H 	H 	0.25330 0.48520 0.83780 0.10400
H 	H 	0.17380 0.40170 0.84740 0.18100
O 	O 	0.07920 0.16270 0.12420 -0.48500
O 	O 	0.08560 0.28090 0.20550 -0.35300
O 	O 	0.19560 0.28200 0.09880 -0.40600
C 	C 	0.79440 0.95080 0.11090 0.43000
C 	C 	0.50540 0.68020 0.88490 0.20300
C 	C 	0.41090 0.57800 0.93220 0.10400
H 	H 	0.35870 0.53990 0.94800 -0.04100
N 	N 	0.48100 0.57860 0.94270 -0.22900
N 	N 	0.42050 0.63840 0.89580 -0.33000
N 	N 	0.54380 0.64430 0.91310 -0.23700
N 	N 	0.54400 0.74810 0.85300 -0.34100
H 	H 	0.51480 0.76810 0.83780 0.12400
H 	H 	0.59830 0.77210 0.84740 0.19700
O 	O 	0.83730 0.91650 0.12420 -0.39200
O 	O 	0.71910 0.80470 0.20550 -0.34500
O 	O 	0.71800 0.91360 0.09880 -0.37700
C 	C 	0.04920 0.84360 0.11090 0.12700
C 	C 	0.31980 0.82520 0.88490 0.21900
C 	C 	0.42200 0.83290 0.93220 0.11600
H 	H 	0.46010 0.81880 0.94800 -0.02300
N 	N 	0.42140 0.90240 0.94270 -0.18200
N 	N 	0.36160 0.78210 0.89580 -0.32900
N 	N 	0.35570 0.89950 0.91310 -0.19100
N 	N 	0.25190 0.79590 0.85300 -0.33800
H 	H 	0.23190 0.74670 0.83780 0.11000
H 	H 	0.22790 0.82620 0.84740 0.20600
O 	O 	0.08350 0.92080 0.12420 -0.34500
O 	O 	0.19530 0.91440 0.20550 -0.35100
O 	O 	0.08640 0.80440 0.09880 -0.35600
C 	C 	0.84360 0.79440 0.61090 0.27400
C 	C 	0.82520 0.50540 0.38490 0.21700
C 	C 	0.83290 0.41090 0.43220 0.11200
H 	H 	0.81880 0.35870 0.44800 -0.03200
N 	N 	0.90240 0.48100 0.44270 -0.19100
N 	N 	0.78210 0.42050 0.39580 -0.33100
N 	N 	0.89950 0.54380 0.41310 -0.19400
N 	N 	0.79590 0.54400 0.35300 -0.33900
H 	H 	0.74670 0.51480 0.33780 0.11200
H 	H 	0.82620 0.59830 0.34740 0.20700
O 	O 	0.92080 0.83730 0.62420 -0.32100
O 	O 	0.91440 0.71910 0.70550 -0.34300
O 	O 	0.80440 0.71800 0.59880 -0.37000
C 	C 	0.20560 0.04920 0.61090 0.12900
C 	C 	0.49460 0.31980 0.38490 0.19000
C 	C 	0.58910 0.42200 0.43220 0.09700
H 	H 	0.64130 0.46010 0.44800 -0.04800
N 	N 	0.51900 0.42140 0.44270 -0.24000
N 	N 	0.57950 0.36160 0.39580 -0.33300
N 	N 	0.45620 0.35570 0.41310 -0.24000
N 	N 	0.45600 0.25190 0.35300 -0.33400
H 	H 	0.48520 0.23190 0.33780 0.10100
H 	H 	0.40170 0.22790 0.34740 0.18000
O 	O 	0.16270 0.08350 0.62420 -0.44200
O 	O 	0.28090 0.19530 0.70550 -0.37400
O 	O 	0.28200 0.08640 0.59880 -0.37800
C 	C 	0.95080 0.15640 0.61090 0.43300
C 	C 	0.68020 0.17480 0.38490 0.19700
C 	C 	0.57800 0.16710 0.43220 0.10000
H 	H 	0.53990 0.18120 0.44800 -0.05100
N 	N 	0.57860 0.09760 0.44270 -0.25000
N 	N 	0.63840 0.21790 0.39580 -0.33400
N 	N 	0.64430 0.10050 0.41310 -0.24900
N 	N 	0.74810 0.20410 0.35300 -0.34000
H 	H 	0.76810 0.25330 0.33780 0.12300
H 	H 	0.77210 0.17380 0.34740 0.19500
O 	O 	0.91650 0.07920 0.62420 -0.45700
O 	O 	0.80470 0.08560 0.70550 -0.33400
O 	O 	0.91360 0.19560 0.59880 -0.37700
C 	C 	0.20560 0.15640 0.38910 0.27400
C 	C 	0.49460 0.17480 0.61510 0.18900
C 	C 	0.58910 0.16710 0.56780 0.09800
H 	H 	0.64130 0.18120 0.55200 -0.04900
N 	N 	0.51900 0.09760 0.55730 -0.25000
N 	N 	0.57950 0.21790 0.60420 -0.33300
N 	N 	0.45620 0.10050 0.58690 -0.24900
N 	N 	0.45600 0.20410 0.64700 -0.33400
H 	H 	0.48520 0.25330 0.66220 0.10300
H 	H 	0.40170 0.17380 0.65260 0.18000
O 	O 	0.16270 0.07920 0.37580 -0.48500
O 	O 	0.28090 0.08560 0.29450 -0.35400
O 	O 	0.28200 0.19560 0.40120 -0.40200
C 	C 	0.95080 0.79440 0.38910 0.43200
C 	C 	0.68020 0.50540 0.61510 0.19900
C 	C 	0.57800 0.41090 0.56780 0.09900
H 	H 	0.53990 0.35870 0.55200 -0.05100
N 	N 	0.57860 0.48100 0.55730 -0.24000
N 	N 	0.63840 0.42050 0.60420 -0.33300
N 	N 	0.64430 0.54380 0.58690 -0.24000
N 	N 	0.74810 0.54400 0.64700 -0.34100
H 	H 	0.76810 0.51480 0.66220 0.12300
H 	H 	0.77210 0.59830 0.65260 0.19600
O 	O 	0.91650 0.83730 0.37580 -0.39000
O 	O 	0.80470 0.71910 0.29450 -0.34500
O 	O 	0.91360 0.71800 0.40120 -0.37200
C 	C 	0.84360 0.04920 0.38910 0.12800
C 	C 	0.82520 0.31980 0.61510 0.21600
C 	C 	0.83290 0.42200 0.56780 0.11200
H 	H 	0.81880 0.46010 0.55200 -0.03200
N 	N 	0.90240 0.42140 0.55730 -0.19100
N 	N 	0.78210 0.36160 0.60420 -0.33100
N 	N 	0.89950 0.35570 0.58690 -0.19400
N 	N 	0.79590 0.25190 0.64700 -0.33800
H 	H 	0.74670 0.23190 0.66220 0.10900
H 	H 	0.82620 0.22790 0.65260 0.20500
O 	O 	0.92080 0.08350 0.37580 -0.34400
O 	O 	0.91440 0.19530 0.29450 -0.35000
O 	O 	0.80440 0.08640 0.40120 -0.35100
C 	C 	0.79440 0.84360 0.88910 0.27700
C 	C 	0.50540 0.82520 0.11510 0.21400
C 	C 	0.41090 0.83290 0.06780 0.10800
H 	H 	0.35870 0.81880 0.05200 -0.04100
N 	N 	0.48100 0.90240 0.05730 -0.19800
N 	N 	0.42050 0.78210 0.10420 -0.33200
N 	N 	0.54380 0.89950 0.08690 -0.19700
N 	N 	0.54400 0.79590 0.14700 -0.33900
H 	H 	0.51480 0.74670 0.16220 0.11100
H 	H 	0.59830 0.82620 0.15260 0.20600
O 	O 	0.83730 0.92080 0.87580 -0.32100
O 	O 	0.71910 0.91440 0.79450 -0.34300
O 	O 	0.71800 0.80440 0.90120 -0.36500
C 	C 	0.04920 0.20560 0.88910 0.13300
C 	C 	0.31980 0.49460 0.11510 0.18700
C 	C 	0.42200 0.58910 0.06780 0.09300
H 	H 	0.46010 0.64130 0.05200 -0.05600
N 	N 	0.42140 0.51900 0.05730 -0.24700
N 	N 	0.36160 0.57950 0.10420 -0.33400
N 	N 	0.35570 0.45620 0.08690 -0.24300
N 	N 	0.25190 0.45600 0.14700 -0.33400
H 	H 	0.23190 0.48520 0.16220 0.10100
H 	H 	0.22790 0.40170 0.15260 0.17900
O 	O 	0.08350 0.16270 0.87580 -0.44000
O 	O 	0.19530 0.28090 0.79450 -0.37400
O 	O 	0.08640 0.28200 0.90120 -0.37200
C 	C 	0.15640 0.95080 0.88910 0.43400
C 	C 	0.17480 0.68020 0.11510 0.19500
C 	C 	0.16710 0.57800 0.06780 0.09600
H 	H 	0.18120 0.53990 0.05200 -0.06000
N 	N 	0.09760 0.57860 0.05730 -0.25700
N 	N 	0.21790 0.63840 0.10420 -0.33500
N 	N 	0.10050 0.64430 0.08690 -0.25100
N 	N 	0.20410 0.74810 0.14700 -0.34000
H 	H 	0.25330 0.76810 0.16220 0.12200
H 	H 	0.17380 0.77210 0.15260 0.19400
O 	O 	0.07920 0.91650 0.87580 -0.45600
O 	O 	0.08560 0.80470 0.79450 -0.33400
O 	O 	0.19560 0.91360 0.90120 -0.37200
C 	C 	0.84360 0.79440 0.88910 0.27700
C 	C 	0.82520 0.50540 0.11510 0.21400
C 	C 	0.83290 0.41090 0.06780 0.10800
H 	H 	0.81880 0.35870 0.05200 -0.04100
N 	N 	0.90240 0.48100 0.05730 -0.19800
N 	N 	0.78210 0.42050 0.10420 -0.33200
N 	N 	0.89950 0.54380 0.08690 -0.19700
N 	N 	0.79590 0.54400 0.14700 -0.33900
H 	H 	0.74670 0.51480 0.16220 0.11100
H 	H 	0.82620 0.59830 0.15260 0.20600
O 	O 	0.92080 0.83730 0.87580 -0.32100
O 	O 	0.91440 0.71910 0.79450 -0.34300
O 	O 	0.80440 0.71800 0.90120 -0.36500
C 	C 	0.20560 0.04920 0.88910 0.13300
C 	C 	0.49460 0.31980 0.11510 0.18700
C 	C 	0.58910 0.42200 0.06780 0.09300
H 	H 	0.64130 0.46010 0.05200 -0.05600
N 	N 	0.51900 0.42140 0.05730 -0.24700
N 	N 	0.57950 0.36160 0.10420 -0.33400
N 	N 	0.45620 0.35570 0.08690 -0.24300
N 	N 	0.45600 0.25190 0.14700 -0.33400
H 	H 	0.48520 0.23190 0.16220 0.10100
H 	H 	0.40170 0.22790 0.15260 0.17900
O 	O 	0.16270 0.08350 0.87580 -0.44000
O 	O 	0.28090 0.19530 0.79450 -0.37400
O 	O 	0.28200 0.08640 0.90120 -0.37200
C 	C 	0.95080 0.15640 0.88910 0.43400
C 	C 	0.68020 0.17480 0.11510 0.19500
C 	C 	0.57800 0.16710 0.06780 0.09600
H 	H 	0.53990 0.18120 0.05200 -0.06000
N 	N 	0.57860 0.09760 0.05730 -0.25700
N 	N 	0.63840 0.21790 0.10420 -0.33500
N 	N 	0.64430 0.10050 0.08690 -0.25100
N 	N 	0.74810 0.20410 0.14700 -0.34000
H 	H 	0.76810 0.25330 0.16220 0.12200
H 	H 	0.77210 0.17380 0.15260 0.19400
O 	O 	0.91650 0.07920 0.87580 -0.45600
O 	O 	0.80470 0.08560 0.79450 -0.33400
O 	O 	0.91360 0.19560 0.90120 -0.37200
C 	C 	0.15640 0.20560 0.38910 0.27400
C 	C 	0.17480 0.49460 0.61510 0.18900
C 	C 	0.16710 0.58910 0.56780 0.09800
H 	H 	0.18120 0.64130 0.55200 -0.04900
N 	N 	0.09760 0.51900 0.55730 -0.25000
N 	N 	0.21790 0.57950 0.60420 -0.33300
N 	N 	0.10050 0.45620 0.58690 -0.24900
N 	N 	0.20410 0.45600 0.64700 -0.33400
H 	H 	0.25330 0.48520 0.66220 0.10300
H 	H 	0.17380 0.40170 0.65260 0.18000
O 	O 	0.07920 0.16270 0.37580 -0.48500
O 	O 	0.08560 0.28090 0.29450 -0.35400
O 	O 	0.19560 0.28200 0.40120 -0.40200
C 	C 	0.79440 0.95080 0.38910 0.43200
C 	C 	0.50540 0.68020 0.61510 0.19900
C 	C 	0.41090 0.57800 0.56780 0.09900
H 	H 	0.35870 0.53990 0.55200 -0.05100
N 	N 	0.48100 0.57860 0.55730 -0.24000
N 	N 	0.42050 0.63840 0.60420 -0.33300
N 	N 	0.54380 0.64430 0.58690 -0.24000
N 	N 	0.54400 0.74810 0.64700 -0.34100
H 	H 	0.51480 0.76810 0.66220 0.12300
H 	H 	0.59830 0.77210 0.65260 0.19600
O 	O 	0.83730 0.91650 0.37580 -0.39000
O 	O 	0.71910 0.80470 0.29450 -0.34500
O 	O 	0.71800 0.91360 0.40120 -0.37200
C 	C 	0.04920 0.84360 0.38910 0.12800
C 	C 	0.31980 0.82520 0.61510 0.21600
C 	C 	0.42200 0.83290 0.56780 0.11200
H 	H 	0.46010 0.81880 0.55200 -0.03200
N 	N 	0.42140 0.90240 0.55730 -0.19100
N 	N 	0.36160 0.78210 0.60420 -0.33100
N 	N 	0.35570 0.89950 0.58690 -0.19400
N 	N 	0.25190 0.79590 0.64700 -0.33800
H 	H 	0.23190 0.74670 0.66220 0.10900
H 	H 	0.22790 0.82620 0.65260 0.20500
O 	O 	0.08350 0.92080 0.37580 -0.34400
O 	O 	0.19530 0.91440 0.29450 -0.35000
O 	O 	0.08640 0.80440 0.40120 -0.35100
C 	C 	0.79440 0.84360 0.61090 0.27400
C 	C 	0.50540 0.82520 0.38490 0.21700
C 	C 	0.41090 0.83290 0.43220 0.11200
H 	H 	0.35870 0.81880 0.44800 -0.03200
N 	N 	0.48100 0.90240 0.44270 -0.19100
N 	N 	0.42050 0.78210 0.39580 -0.33100
N 	N 	0.54380 0.89950 0.41310 -0.19400
N 	N 	0.54400 0.79590 0.35300 -0.33900
H 	H 	0.51480 0.74670 0.33780 0.11200
H 	H 	0.59830 0.82620 0.34740 0.20700
O 	O 	0.83730 0.92080 0.62420 -0.32100
O 	O 	0.71910 0.91440 0.70550 -0.34300
O 	O 	0.71800 0.80440 0.59880 -0.37000
C 	C 	0.04920 0.20560 0.61090 0.12900
C 	C 	0.31980 0.49460 0.38490 0.19000
C 	C 	0.42200 0.58910 0.43220 0.09700
H 	H 	0.46010 0.64130 0.44800 -0.04800
N 	N 	0.42140 0.51900 0.44270 -0.24000
N 	N 	0.36160 0.57950 0.39580 -0.33300
N 	N 	0.35570 0.45620 0.41310 -0.24000
N 	N 	0.25190 0.45600 0.35300 -0.33400
H 	H 	0.23190 0.48520 0.33780 0.10100
H 	H 	0.22790 0.40170 0.34740 0.18000
O 	O 	0.08350 0.16270 0.62420 -0.44200
O 	O 	0.19530 0.28090 0.70550 -0.37400
O 	O 	0.08640 0.28200 0.59880 -0.37800
C 	C 	0.15640 0.95080 0.61090 0.43300
C 	C 	0.17480 0.68020 0.38490 0.19700
C 	C 	0.16710 0.57800 0.43220 0.10000
H 	H 	0.18120 0.53990 0.44800 -0.05100
N 	N 	0.09760 0.57860 0.44270 -0.25000
N 	N 	0.21790 0.63840 0.39580 -0.33400
N 	N 	0.10050 0.64430 0.41310 -0.24900
N 	N 	0.20410 0.74810 0.35300 -0.34000
H 	H 	0.25330 0.76810 0.33780 0.12300
H 	H 	0.17380 0.77210 0.34740 0.19500
O 	O 	0.07920 0.91650 0.62420 -0.45700
O 	O 	0.08560 0.80470 0.70550 -0.33400
O 	O 	0.19560 0.91360 0.59880 -0.37700
C 	C 	0.20560 0.15640 0.11090 0.27200
C 	C 	0.49460 0.17480 0.88490 0.19100
C 	C 	0.58910 0.16710 0.93220 0.10200
H 	H 	0.64130 0.18120 0.94800 -0.04000
N 	N 	0.51900 0.09760 0.94270 -0.24100
N 	N 	0.57950 0.21790 0.89580 -0.33200
N 	N 	0.45620 0.10050 0.91310 -0.24600
N 	N 	0.45600 0.20410 0.85300 -0.33400
H 	H 	0.48520 0.25330 0.83780 0.10300
H 	H 	0.40170 0.17380 0.84740 0.18000
O 	O 	0.16270 0.07920 0.12420 -0.48600
O 	O 	0.28090 0.08560 0.20550 -0.35400
O 	O 	0.28200 0.19560 0.09880 -0.40700
C 	C 	0.95080 0.79440 0.11090 0.42900
C 	C 	0.68020 0.50540 0.88490 0.20200
C 	C 	0.57800 0.41090 0.93220 0.10300
H 	H 	0.53990 0.35870 0.94800 -0.04200
N 	N 	0.57860 0.48100 0.94270 -0.23000
N 	N 	0.63840 0.42050 0.89580 -0.33100
N 	N 	0.64430 0.54380 0.91310 -0.23700
N 	N 	0.74810 0.54400 0.85300 -0.34100
H 	H 	0.76810 0.51480 0.83780 0.12400
H 	H 	0.77210 0.59830 0.84740 0.19700
O 	O 	0.91650 0.83730 0.12420 -0.39200
O 	O 	0.80470 0.71910 0.20550 -0.34500
O 	O 	0.91360 0.71800 0.09880 -0.37700
C 	C 	0.84360 0.04920 0.11090 0.12700
C 	C 	0.82520 0.31980 0.88490 0.21900
C 	C 	0.83290 0.42200 0.93220 0.11600
H 	H 	0.81880 0.46010 0.94800 -0.02300
N 	N 	0.90240 0.42140 0.94270 -0.18200
N 	N 	0.78210 0.36160 0.89580 -0.32900
N 	N 	0.89950 0.35570 0.91310 -0.19100
N 	N 	0.79590 0.25190 0.85300 -0.33800
H 	H 	0.74670 0.23190 0.83780 0.11000
H 	H 	0.82620 0.22790 0.84740 0.20600
O 	O 	0.92080 0.08350 0.12420 -0.34500
O 	O 	0.91440 0.19530 0.20550 -0.35100
O 	O 	0.80440 0.08640 0.09880 -0.35600
C 	C 	0.04910 0.26310 0.25000 0.06300
C 	C 	0.73690 0.78600 0.25000 0.22000
C 	C 	0.21400 0.95090 0.25000 0.36000
C 	C 	0.95090 0.73690 0.75000 0.36700
C 	C 	0.26310 0.21400 0.75000 0.20200
C 	C 	0.78600 0.04910 0.75000 0.07100
C 	C 	0.26310 0.04910 0.25000 0.06300
C 	C 	0.78600 0.73690 0.25000 0.22000
C 	C 	0.95090 0.21400 0.25000 0.36000
C 	C 	0.73690 0.95090 0.75000 0.36700
C 	C 	0.21400 0.26310 0.75000 0.20200
C 	C 	0.04910 0.78600 0.75000 0.07100
C 	C 	-0.00000 0.26220 0.03100 0.03000
H 	H 	-0.00000 0.21350 0.01850 -0.04700
C 	C 	-0.00000 0.35730 0.08230 0.14100
N 	N 	-0.00000 0.28140 0.08330 -0.30600
N 	N 	-0.00000 0.32270 0.99840 -0.21500
N 	N 	-0.00000 0.38410 0.03250 -0.27700
N 	N 	-0.00000 0.39900 0.12820 -0.31500
H 	H 	-0.00000 0.44660 0.12610 0.09500
H 	H 	-0.00000 0.37770 0.15930 0.08600
Cl	Cl	-0.00000 0.33690 0.82080 -0.55200
Zn	Zn	-0.00000 0.21104 0.14349 1.18200
Zn	Zn	0.00000 0.33291 0.91416 1.18000
C 	C 	0.73780 0.73780 0.03100 0.05400
H 	H 	0.78650 0.78650 0.01850 0.01700
C 	C 	0.64270 0.64270 0.08230 0.18100
N 	N 	0.71860 0.71860 0.08330 -0.28500
N 	N 	0.67730 0.67730 0.99840 -0.18300
N 	N 	0.61590 0.61590 0.03250 -0.25500
N 	N 	0.60100 0.60100 0.12820 -0.32600
H 	H 	0.55340 0.55340 0.12610 0.13300
H 	H 	0.62230 0.62230 0.15930 0.12300
Cl	Cl	0.66310 0.66310 0.82080 -0.45100
Zn	Zn	0.78896 0.78896 0.14349 1.22500
Zn	Zn	0.66709 0.66709 0.91416 1.21200
C 	C 	0.26220 -0.00000 0.03100 0.03000
H 	H 	0.21350 0.00000 0.01850 -0.04700
C 	C 	0.35730 -0.00000 0.08230 0.14100
N 	N 	0.28140 0.00000 0.08330 -0.30600
N 	N 	0.32270 0.00000 0.99840 -0.21500
N 	N 	0.38410 0.00000 0.03250 -0.27700
N 	N 	0.39900 0.00000 0.12820 -0.31500
H 	H 	0.44660 0.00000 0.12610 0.09500
H 	H 	0.37770 0.00000 0.15930 0.08600
Cl	Cl	0.33690 -0.00000 0.82080 -0.55200
Zn	Zn	0.21104 -0.00000 0.14349 1.18200
Zn	Zn	0.33291 0.00000 0.91416 1.18000
C 	C 	-0.00000 0.73780 0.53100 0.07500
H 	H 	-0.00000 0.78650 0.51850 -0.02900
C 	C 	0.00000 0.64270 0.58230 0.14400
N 	N 	-0.00000 0.71860 0.58330 -0.30900
N 	N 	0.00000 0.67730 0.49840 -0.25100
N 	N 	-0.00000 0.61590 0.53250 -0.25700
N 	N 	-0.00000 0.60100 0.62820 -0.31500
H 	H 	-0.00000 0.55340 0.62610 0.09600
H 	H 	0.00000 0.62230 0.65930 0.08600
Cl	Cl	-0.00000 0.66310 0.32080 -0.54700
Zn	Zn	-0.00000 0.78896 0.64349 1.18600
Zn	Zn	-0.00000 0.66709 0.41416 1.17900
C 	C 	0.26220 0.26220 0.53100 0.09800
H 	H 	0.21350 0.21350 0.51850 -0.02300
C 	C 	0.35730 0.35730 0.58230 0.18100
N 	N 	0.28140 0.28140 0.58330 -0.29400
N 	N 	0.32270 0.32270 0.49840 -0.23000
N 	N 	0.38410 0.38410 0.53250 -0.23700
N 	N 	0.39900 0.39900 0.62820 -0.32600
H 	H 	0.44660 0.44660 0.62610 0.13200
H 	H 	0.37770 0.37770 0.65930 0.12300
Cl	Cl	0.33690 0.33690 0.32080 -0.45900
Zn	Zn	0.21104 0.21104 0.64349 1.21700
Zn	Zn	0.33291 0.33291 0.41416 1.20900
C 	C 	0.73780 0.00000 0.53100 0.07500
H 	H 	0.78650 -0.00000 0.51850 -0.02900
C 	C 	0.64270 -0.00000 0.58230 0.14400
N 	N 	0.71860 -0.00000 0.58330 -0.30900
N 	N 	0.67730 -0.00000 0.49840 -0.25100
N 	N 	0.61590 -0.00000 0.53250 -0.25700
N 	N 	0.60100 0.00000 0.62820 -0.31500
H 	H 	0.55340 -0.00000 0.62610 0.09600
H 	H 	0.62230 0.00000 0.65930 0.08600
Cl	Cl	0.66310 0.00000 0.32080 -0.54700
Zn	Zn	0.78896 0.00000 0.64349 1.18600
Zn	Zn	0.66709 0.00000 0.41416 1.17900
C 	C 	0.26220 0.00000 0.46900 0.07400
H 	H 	0.21350 0.00000 0.48150 -0.04900
C 	C 	0.35730 0.00000 0.41770 0.14300
N 	N 	0.28140 0.00000 0.41670 -0.31100
N 	N 	0.32270 0.00000 0.50160 -0.25500
N 	N 	0.38410 0.00000 0.46750 -0.25800
N 	N 	0.39900 0.00000 0.37180 -0.31500
H 	H 	0.44660 0.00000 0.37390 0.09500
H 	H 	0.37770 0.00000 0.34070 0.08600
Cl	Cl	0.33690 -0.00000 0.67920 -0.55200
Zn	Zn	0.21104 0.00000 0.35651 1.18200
Zn	Zn	0.33291 0.00000 0.58584 1.17800
C 	C 	0.73780 0.73780 0.46900 0.09900
H 	H 	0.78650 0.78650 0.48150 0.01600
C 	C 	0.64270 0.64270 0.41770 0.18300
N 	N 	0.71860 0.71860 0.41670 -0.28900
N 	N 	0.67730 0.67730 0.50160 -0.22200
N 	N 	0.61590 0.61590 0.46750 -0.23500
N 	N 	0.60100 0.60100 0.37180 -0.32600
H 	H 	0.55340 0.55340 0.37390 0.13300
H 	H 	0.62230 0.62230 0.34070 0.12300
Cl	Cl	0.66310 0.66310 0.67920 -0.45100
Zn	Zn	0.78896 0.78896 0.35651 1.22500
Zn	Zn	0.66709 0.66709 0.58584 1.21000
C 	C 	-0.00000 0.26220 0.46900 0.07400
H 	H 	-0.00000 0.21350 0.48150 -0.04900
C 	C 	-0.00000 0.35730 0.41770 0.14300
N 	N 	-0.00000 0.28140 0.41670 -0.31100
N 	N 	0.00000 0.32270 0.50160 -0.25500
N 	N 	-0.00000 0.38410 0.46750 -0.25800
N 	N 	-0.00000 0.39900 0.37180 -0.31500
H 	H 	0.00000 0.44660 0.37390 0.09500
H 	H 	-0.00000 0.37770 0.34070 0.08600
Cl	Cl	-0.00000 0.33690 0.67920 -0.55200
Zn	Zn	-0.00000 0.21104 0.35651 1.18200
Zn	Zn	-0.00000 0.33291 0.58584 1.17800
C 	C 	0.73780 0.00000 0.96900 0.11800
H 	H 	0.78650 0.00000 0.98150 -0.02800
C 	C 	0.64270 -0.00000 0.91770 0.14700
N 	N 	0.71860 -0.00000 0.91670 -0.31300
N 	N 	0.67730 0.00000 0.00160 -0.28900
N 	N 	0.61590 0.00000 0.96750 -0.23400
N 	N 	0.60100 0.00000 0.87180 -0.31500
H 	H 	0.55340 0.00000 0.87390 0.09700
H 	H 	0.62230 -0.00000 0.84070 0.08700
Cl	Cl	0.66310 0.00000 0.17920 -0.54600
Zn	Zn	0.78896 -0.00000 0.85651 1.18700
Zn	Zn	0.66709 -0.00000 0.08584 1.17700
C 	C 	0.26220 0.26220 0.96900 0.14300
H 	H 	0.21350 0.21350 0.98150 -0.02200
C 	C 	0.35730 0.35730 0.91770 0.18400
N 	N 	0.28140 0.28140 0.91670 -0.29900
N 	N 	0.32270 0.32270 0.00160 -0.26900
N 	N 	0.38410 0.38410 0.96750 -0.21400
N 	N 	0.39900 0.39900 0.87180 -0.32600
H 	H 	0.44660 0.44660 0.87390 0.13300
H 	H 	0.37770 0.37770 0.84070 0.12400
Cl	Cl	0.33690 0.33690 0.17920 -0.45900
Zn	Zn	0.21104 0.21104 0.85651 1.21700
Zn	Zn	0.33291 0.33291 0.08584 1.20700
C 	C 	-0.00000 0.73780 0.96900 0.11800
H 	H 	-0.00000 0.78650 0.98150 -0.02800
C 	C 	-0.00000 0.64270 0.91770 0.14700
N 	N 	-0.00000 0.71860 0.91670 -0.31300
N 	N 	-0.00000 0.67730 0.00160 -0.28900
N 	N 	-0.00000 0.61590 0.96750 -0.23400
N 	N 	-0.00000 0.60100 0.87180 -0.31500
H 	H 	-0.00000 0.55340 0.87390 0.09700
H 	H 	-0.00000 0.62230 0.84070 0.08700
Cl	Cl	-0.00000 0.66310 0.17920 -0.54600
Zn	Zn	-0.00000 0.78896 0.85651 1.18700
Zn	Zn	-0.00000 0.66709 0.08584 1.17700
Cl	Cl	-0.00000 0.00000 0.25000 -0.64400
Cl	Cl	-0.00000 0.00000 0.75000 -0.64700
Cl	Cl	-0.00000 0.00000 -0.00000 -0.67300
Cl	Cl	-0.00000 0.00000 0.50000 -0.63900
Gd	Gd	-0.00000 0.00000 0.12464 0.95900
Gd	Gd	-0.00000 0.00000 0.62464 0.96100
Gd	Gd	0.00000 0.00000 0.37536 0.96100
Gd	Gd	0.00000 0.00000 0.87536 0.98500
Zn	Zn	-0.00000 0.50000 -0.00000 1.11800
Zn	Zn	0.50000 0.50000 -0.00000 1.14900
Zn	Zn	0.50000 0.00000 -0.00000 1.11800
Zn	Zn	-0.00000 0.50000 0.50000 1.13100
Zn	Zn	0.50000 0.50000 0.50000 1.16200
Zn	Zn	0.50000 0.00000 0.50000 1.13100
Zn	Zn	0.33333 0.66667 0.87244 1.14500
Zn	Zn	0.66667 0.33333 0.37244 1.14400
Zn	Zn	0.66667 0.33333 0.62756 1.14400
Zn	Zn	0.33333 0.66667 0.12756 1.14300
Zn	Zn	0.66667 0.33333 0.12756 1.14300
Zn	Zn	0.33333 0.66667 0.62756 1.14400
Zn	Zn	0.33333 0.66667 0.37244 1.14400
Zn	Zn	0.66667 0.33333 0.87244 1.14500
