data_crystal

_cell_length_a 18.11280
_cell_length_b 8.79310
_cell_length_c 19.20530
_cell_angle_alpha 90.00000
_cell_angle_beta  102.90900
_cell_angle_gamma 90.00000

_symmetry_space_group_name_	'P 1'
_symmetry_space_group_name_H-M	'P 1'

loop_
_symmetry_equiv_pos_as_xyz
  x,y,z

loop_
_atom_site_label
_atom_site_type_symbol
_atom_site_fract_x
_atom_site_fract_y
_atom_site_fract_z
_atom_site_charge
Cd	Cd	0.20866 0.90703 0.04758 1.24000
O 	O 	0.07630 0.15980 0.95520 -0.45400
C 	C 	0.11710 0.41960 0.65060 0.43000
C 	C 	0.12930 0.21730 0.85600 -0.20000
O 	O 	0.17830 0.43420 0.62970 -0.44900
O 	O 	0.19080 0.06650 0.95280 -0.42700
C 	C 	0.05860 0.34920 0.75250 0.17600
O 	O 	0.05360 0.46130 0.61630 -0.48600
O 	O 	0.08740 0.81500 0.00540 -0.71300
C 	C 	0.06200 0.28260 0.81840 0.10400
C 	C 	0.09790 0.69630 0.97140 0.91900
O 	O 	0.31690 0.82640 0.00870 -0.39700
C 	C 	0.18860 0.28690 0.76060 0.19600
C 	C 	0.13270 0.14250 0.92670 0.40600
C 	C 	0.47650 0.09000 0.04820 0.10400
O 	O 	0.33420 0.02390 0.08010 -0.37200
C 	C 	0.03100 0.61670 0.92910 -1.76300
H 	H 	0.98790 0.63650 0.94920 0.59200
H 	H 	0.04060 0.50930 0.92990 0.57100
H 	H 	0.02080 0.65240 0.88070 0.56600
C 	C 	0.19200 0.21810 0.82620 0.16300
C 	C 	0.12200 0.35080 0.72280 -0.24800
C 	C 	0.35580 0.93710 0.03760 0.39800
C 	C 	0.43170 0.97000 0.01890 -0.16200
C 	C 	0.54390 0.11920 0.03130 0.14900
O 	O 	0.25920 0.14060 0.85500 -0.35500
H 	H 	0.25700 0.10490 0.89400 0.27100
O 	O 	0.99300 0.40870 0.72220 -0.37400
H 	H 	0.99440 0.44000 0.68230 0.27700
O 	O 	0.46210 0.16610 0.10100 -0.12400
O 	O 	0.99230 0.28280 0.83800 -0.34100
H 	H 	0.99340 0.22140 0.87030 0.24100
O 	O 	0.25510 0.30500 0.73980 -0.36500
H 	H 	0.24630 0.32320 0.69680 0.27300
O 	O 	0.58020 0.24930 0.05810 -0.36000
H 	H 	0.61810 0.26060 0.04190 0.27000
O 	O 	0.16350 0.65400 0.97220 -0.47100
Cd	Cd	0.79134 0.40703 0.45242 1.23300
O 	O 	0.92370 0.65980 0.54480 -0.42900
C 	C 	0.88290 0.91960 0.84940 0.43100
C 	C 	0.87070 0.71730 0.64400 -0.20500
O 	O 	0.82170 0.93420 0.87030 -0.43100
O 	O 	0.80920 0.56650 0.54720 -0.42800
C 	C 	0.94140 0.84920 0.74750 0.25200
O 	O 	0.94640 0.96130 0.88370 -0.42600
O 	O 	0.91260 0.31500 0.49460 -0.61500
C 	C 	0.93800 0.78260 0.68160 0.17200
C 	C 	0.90210 0.19630 0.52860 0.68600
O 	O 	0.68310 0.32640 0.49130 -0.37800
C 	C 	0.81140 0.78690 0.73940 0.20400
C 	C 	0.86730 0.64250 0.57330 0.41700
C 	C 	0.52350 0.59000 0.45180 0.12900
O 	O 	0.66580 0.52390 0.41990 -0.32300
C 	C 	0.96900 0.11670 0.57090 -1.16000
H 	H 	0.01210 0.13650 0.55080 0.32800
H 	H 	0.95940 0.00930 0.57010 0.39100
H 	H 	0.97920 0.15240 0.61930 0.40900
C 	C 	0.80800 0.71810 0.67380 0.16900
C 	C 	0.87800 0.85080 0.77720 -0.25500
C 	C 	0.64420 0.43710 0.46240 0.34700
C 	C 	0.56830 0.47000 0.48110 -0.15300
C 	C 	0.45610 0.61920 0.46870 0.18700
O 	O 	0.74080 0.64060 0.64500 -0.34800
H 	H 	0.74300 0.60490 0.60600 0.27300
O 	O 	0.00700 0.90870 0.77780 -0.43900
H 	H 	0.00560 0.94000 0.81770 0.27100
O 	O 	0.53790 0.66610 0.39900 -0.11100
O 	O 	0.00770 0.78280 0.66200 -0.39700
H 	H 	0.00660 0.72140 0.62970 0.23600
O 	O 	0.74490 0.80500 0.76020 -0.35900
H 	H 	0.75370 0.82320 0.80320 0.27800
O 	O 	0.41980 0.74930 0.44190 -0.35700
H 	H 	0.38190 0.76060 0.45810 0.29000
O 	O 	0.83650 0.15400 0.52780 -0.43500
Cd	Cd	0.79134 0.09297 0.95242 1.22600
O 	O 	0.92370 0.84020 0.04480 -0.43100
C 	C 	0.88290 0.58040 0.34940 0.43500
C 	C 	0.87070 0.78270 0.14400 -0.20500
O 	O 	0.82170 0.56580 0.37030 -0.44900
O 	O 	0.80920 0.93350 0.04720 -0.42700
C 	C 	0.94140 0.65080 0.24750 0.25700
O 	O 	0.94640 0.53870 0.38370 -0.44800
O 	O 	0.91260 0.18500 0.99460 -0.58500
C 	C 	0.93800 0.71740 0.18160 0.17300
C 	C 	0.90210 0.30370 0.02860 0.64300
O 	O 	0.68310 0.17360 0.99130 -0.34900
C 	C 	0.81140 0.71310 0.23940 0.20800
C 	C 	0.86730 0.85750 0.07330 0.41600
C 	C 	0.52350 0.91000 0.95180 0.15100
O 	O 	0.66580 0.97610 0.91990 -0.27600
C 	C 	0.96900 0.38330 0.07090 -1.12100
H 	H 	0.01210 0.36350 0.05080 0.31300
H 	H 	0.95940 0.49070 0.07010 0.39100
H 	H 	0.97920 0.34760 0.11930 0.40300
C 	C 	0.80800 0.78190 0.17380 0.16500
C 	C 	0.87800 0.64920 0.27720 -0.26300
C 	C 	0.64420 0.06290 0.96240 0.29500
C 	C 	0.56830 0.03000 0.98110 -0.14100
C 	C 	0.45610 0.88080 0.96870 0.22500
O 	O 	0.74080 0.85940 0.14500 -0.34500
H 	H 	0.74300 0.89510 0.10600 0.27300
O 	O 	0.00700 0.59130 0.27780 -0.45000
H 	H 	0.00560 0.56000 0.31770 0.26400
O 	O 	0.53790 0.83390 0.89900 -0.10900
O 	O 	0.00770 0.71720 0.16200 -0.40800
H 	H 	0.00660 0.77860 0.12970 0.24300
O 	O 	0.74490 0.69500 0.26020 -0.36600
H 	H 	0.75370 0.67680 0.30320 0.27900
O 	O 	0.41980 0.75070 0.94190 -0.37000
H 	H 	0.38190 0.73940 0.95810 0.30500
O 	O 	0.83650 0.34600 0.02780 -0.43100
Cd	Cd	0.20866 0.59297 0.54758 1.23600
O 	O 	0.07630 0.34020 0.45520 -0.46800
C 	C 	0.11710 0.08040 0.15060 0.43200
C 	C 	0.12930 0.28270 0.35600 -0.19900
O 	O 	0.17830 0.06580 0.12970 -0.46600
O 	O 	0.19080 0.43350 0.45280 -0.43000
C 	C 	0.05860 0.15080 0.25250 0.17100
O 	O 	0.05360 0.03870 0.11630 -0.50600
O 	O 	0.08740 0.68500 0.50540 -0.68700
C 	C 	0.06200 0.21740 0.31840 0.10000
C 	C 	0.09790 0.80370 0.47140 0.87800
O 	O 	0.31690 0.67360 0.50870 -0.36600
C 	C 	0.18860 0.21310 0.26060 0.19800
C 	C 	0.13270 0.35750 0.42670 0.40700
C 	C 	0.47650 0.41000 0.54820 0.12700
O 	O 	0.33420 0.47610 0.58010 -0.32400
C 	C 	0.03100 0.88330 0.42910 -1.75200
H 	H 	0.98790 0.86350 0.44920 0.58800
H 	H 	0.04060 0.99070 0.42990 0.57800
H 	H 	0.02080 0.84760 0.38070 0.56600
C 	C 	0.19200 0.28190 0.32620 0.16000
C 	C 	0.12200 0.14920 0.22280 -0.25400
C 	C 	0.35580 0.56290 0.53760 0.34600
C 	C 	0.43170 0.53000 0.51890 -0.15000
C 	C 	0.54390 0.38080 0.53130 0.18700
O 	O 	0.25920 0.35940 0.35500 -0.35100
H 	H 	0.25700 0.39510 0.39400 0.27100
O 	O 	0.99300 0.09130 0.22220 -0.37600
H 	H 	0.99440 0.06000 0.18230 0.27200
O 	O 	0.46210 0.33390 0.60100 -0.12100
O 	O 	0.99230 0.21720 0.33800 -0.34500
H 	H 	0.99340 0.27860 0.37030 0.24700
O 	O 	0.25510 0.19500 0.23980 -0.37100
H 	H 	0.24630 0.17680 0.19680 0.27400
O 	O 	0.58020 0.25070 0.55810 -0.37200
H 	H 	0.61810 0.23940 0.54190 0.28400
O 	O 	0.16350 0.84600 0.47220 -0.47000
Cd	Cd	-0.00000 0.00000 -0.00000 1.21600
Cd	Cd	0.00000 0.50000 0.50000 1.24000
