data_crystal

_cell_length_a 17.76370
_cell_length_b 11.71350
_cell_length_c 11.21930
_cell_angle_alpha 90.00000
_cell_angle_beta  109.50800
_cell_angle_gamma 90.00000

_symmetry_space_group_name_	'P 1'
_symmetry_space_group_name_H-M	'P 1'

loop_
_symmetry_equiv_pos_as_xyz
  x,y,z

loop_
_atom_site_label
_atom_site_type_symbol
_atom_site_fract_x
_atom_site_fract_y
_atom_site_fract_z
_atom_site_charge
O 	O 	0.07353 0.98443 0.22779 -0.44800
O 	O 	0.11396 0.95262 0.43388 -0.37900
O 	O 	0.44317 0.30870 0.47574 -0.32000
O 	O 	0.43194 0.24915 0.28090 -0.37700
C 	C 	0.20056 0.05570 0.35010 -0.15700
C 	C 	0.22059 0.07910 0.24320 0.02700
H 	H 	0.18770 0.05380 0.16450 0.01800
C 	C 	0.28932 0.13990 0.25280 -0.06900
H 	H 	0.30280 0.15340 0.18080 0.06400
C 	C 	0.33833 0.18080 0.36910 -0.02900
C 	C 	0.31828 0.15610 0.47580 -0.07300
H 	H 	0.35070 0.18230 0.55450 0.07300
C 	C 	0.25060 0.09290 0.46670 0.03800
H 	H 	0.23870 0.07550 0.53930 0.01900
C 	C 	0.12446 0.99320 0.33870 0.40000
C 	C 	0.41069 0.25320 0.37960 0.31700
O 	O 	0.57353 0.48443 0.22779 -0.41600
O 	O 	0.61396 0.45262 0.43388 -0.35400
O 	O 	0.94317 0.80870 0.47574 -0.24600
O 	O 	0.93194 0.74915 0.28090 -0.30100
C 	C 	0.70056 0.55570 0.35010 -0.07600
C 	C 	0.72059 0.57910 0.24320 0.00200
H 	H 	0.68770 0.55380 0.16450 0.05100
C 	C 	0.78932 0.63990 0.25280 -0.04100
H 	H 	0.80280 0.65340 0.18080 0.07400
C 	C 	0.83833 0.68080 0.36910 -0.01600
C 	C 	0.81828 0.65610 0.47580 -0.04700
H 	H 	0.85070 0.68230 0.55450 0.08900
C 	C 	0.75060 0.59290 0.46670 0.01000
H 	H 	0.73870 0.57550 0.53930 0.04900
C 	C 	0.62446 0.49320 0.33870 0.33700
C 	C 	0.91069 0.75320 0.37960 0.31000
O 	O 	0.92647 0.98443 0.27221 -0.33600
O 	O 	0.88604 0.95262 0.06612 -0.31500
O 	O 	0.55683 0.30870 0.02426 -0.33400
O 	O 	0.56806 0.24915 0.21910 -0.37600
C 	C 	0.79944 0.05570 0.14990 -0.11100
C 	C 	0.77941 0.07910 0.25680 0.01100
H 	H 	0.81230 0.05380 0.33550 0.04200
C 	C 	0.71068 0.13990 0.24720 -0.05200
H 	H 	0.69720 0.15340 0.31920 0.06700
C 	C 	0.66167 0.18080 0.13090 -0.02800
C 	C 	0.68172 0.15610 0.02420 -0.09300
H 	H 	0.64930 0.18230 0.94550 0.09600
C 	C 	0.74940 0.09290 0.03330 -0.01600
H 	H 	0.76130 0.07550 0.96070 0.05600
C 	C 	0.87554 0.99320 0.16130 0.36700
C 	C 	0.58931 0.25320 0.12040 0.31700
O 	O 	0.42647 0.48443 0.27221 -0.41100
O 	O 	0.38604 0.45262 0.06612 -0.36500
O 	O 	0.05683 0.80870 0.02426 -0.36700
O 	O 	0.06806 0.74915 0.21910 -0.41300
C 	C 	0.29944 0.55570 0.14990 -0.04900
C 	C 	0.27941 0.57910 0.25680 -0.03600
H 	H 	0.31230 0.55380 0.33550 0.06400
C 	C 	0.21068 0.63990 0.24720 -0.01400
H 	H 	0.19720 0.65340 0.31920 0.05200
C 	C 	0.16167 0.68080 0.13090 -0.06600
C 	C 	0.18172 0.65610 0.02420 -0.05200
H 	H 	0.14930 0.68230 0.94550 0.07200
C 	C 	0.24940 0.59290 0.03330 -0.06500
H 	H 	0.26130 0.57550 0.96070 0.08100
C 	C 	0.37554 0.49320 0.16130 0.32300
C 	C 	0.08931 0.75320 0.12040 0.33200
O 	O 	0.92647 0.01557 0.77221 -0.33900
O 	O 	0.88604 0.04738 0.56612 -0.30400
O 	O 	0.55683 0.69130 0.52426 -0.32100
O 	O 	0.56806 0.75085 0.71910 -0.36600
C 	C 	0.79944 0.94430 0.64990 0.02700
C 	C 	0.77941 0.92090 0.75680 -0.06600
H 	H 	0.81230 0.94620 0.83550 0.10200
C 	C 	0.71068 0.86010 0.74720 0.02200
H 	H 	0.69720 0.84660 0.81920 0.05900
C 	C 	0.66167 0.81920 0.63090 -0.07400
C 	C 	0.68172 0.84390 0.52420 0.01500
H 	H 	0.64930 0.81770 0.44550 0.05100
C 	C 	0.74940 0.90710 0.53330 -0.06400
H 	H 	0.76130 0.92450 0.46070 0.08400
C 	C 	0.87554 0.00680 0.66130 0.26000
C 	C 	0.58931 0.74680 0.62040 0.34000
O 	O 	0.42647 0.51557 0.77221 -0.40700
O 	O 	0.38604 0.54738 0.56612 -0.35100
O 	O 	0.05683 0.19130 0.52426 -0.38100
O 	O 	0.06806 0.25085 0.71910 -0.41400
C 	C 	0.29944 0.44430 0.64990 -0.05300
C 	C 	0.27941 0.42090 0.75680 -0.03800
H 	H 	0.31230 0.44620 0.83550 0.06900
C 	C 	0.21068 0.36010 0.74720 -0.00800
H 	H 	0.19720 0.34660 0.81920 0.05200
C 	C 	0.16167 0.31920 0.63090 -0.08200
C 	C 	0.18172 0.34390 0.52420 -0.01300
H 	H 	0.14930 0.31770 0.44550 0.03600
C 	C 	0.24940 0.40710 0.53330 -0.03400
H 	H 	0.26130 0.42450 0.46070 0.05300
C 	C 	0.37554 0.50680 0.66130 0.32400
C 	C 	0.08931 0.24680 0.62040 0.34000
O 	O 	0.07353 0.01557 0.72779 -0.45600
O 	O 	0.11396 0.04738 0.93388 -0.36800
O 	O 	0.44317 0.69130 0.97574 -0.30700
O 	O 	0.43194 0.75085 0.78090 -0.36700
C 	C 	0.20056 0.94430 0.85010 -0.00700
C 	C 	0.22059 0.92090 0.74320 -0.05600
H 	H 	0.18770 0.94620 0.66450 0.08300
C 	C 	0.28932 0.86010 0.75280 0.01000
H 	H 	0.30280 0.84660 0.68080 0.05600
C 	C 	0.33833 0.81920 0.86910 -0.07700
C 	C 	0.31828 0.84390 0.97580 0.03900
H 	H 	0.35070 0.81770 0.05450 0.02800
C 	C 	0.25060 0.90710 0.96670 -0.02000
H 	H 	0.23870 0.92450 0.03930 0.05300
C 	C 	0.12446 0.00680 0.83870 0.28600
C 	C 	0.41069 0.74680 0.87960 0.34100
O 	O 	0.57353 0.51557 0.72779 -0.41300
O 	O 	0.61396 0.54738 0.93388 -0.33900
O 	O 	0.94317 0.19130 0.97574 -0.25500
O 	O 	0.93194 0.25085 0.78090 -0.30000
C 	C 	0.70056 0.44430 0.85010 -0.08100
C 	C 	0.72059 0.42090 0.74320 -0.00100
H 	H 	0.68770 0.44620 0.66450 0.05500
C 	C 	0.78932 0.36010 0.75280 -0.03600
H 	H 	0.80280 0.34660 0.68080 0.07400
C 	C 	0.83833 0.31920 0.86910 -0.03200
C 	C 	0.81828 0.34390 0.97580 -0.00900
H 	H 	0.85070 0.31770 0.05450 0.05400
C 	C 	0.75060 0.40710 0.96670 0.04000
H 	H 	0.73870 0.42450 0.03930 0.02200
C 	C 	0.62446 0.50680 0.83870 0.33900
C 	C 	0.91069 0.24680 0.87960 0.31600
Cu	Cu	0.00000 0.86472 0.25000 0.86800
Cu	Cu	0.50000 0.36472 0.25000 0.93100
Cu	Cu	0.00000 0.13528 0.75000 0.86600
Cu	Cu	0.50000 0.63528 0.75000 0.93400
Na	Na	0.00000 -0.00000 0.50000 0.56300
Na	Na	0.50000 0.50000 0.50000 0.59100
Na	Na	-0.00000 0.00000 -0.00000 0.55900
Na	Na	0.50000 0.50000 -0.00000 0.58700
