data_crystal

_cell_length_a 14.72600
_cell_length_b 9.22100
_cell_length_c 16.96900
_cell_angle_alpha 90.00000
_cell_angle_beta  90.33200
_cell_angle_gamma 90.00000

_symmetry_space_group_name_	'P 1'
_symmetry_space_group_name_H-M	'P 1'

loop_
_symmetry_equiv_pos_as_xyz
  x,y,z

loop_
_atom_site_label
_atom_site_type_symbol
_atom_site_fract_x
_atom_site_fract_y
_atom_site_fract_z
_atom_site_charge
Ni	Ni	0.98095 0.83756 0.99514 1.09800
Ni	Ni	0.19465 0.90655 0.03851 1.12900
O 	O 	0.05380 0.80460 0.89050 -0.41800
O 	O 	0.19190 0.77600 0.94300 -0.40700
O 	O 	0.39560 0.64760 0.59090 -0.41200
O 	O 	0.26410 0.57750 0.53380 -0.39000
O 	O 	0.83570 0.62950 0.57450 -0.32300
O 	O 	0.74460 0.48450 0.63890 -0.35100
O 	O 	0.83670 0.26410 0.88940 -0.39100
O 	O 	0.96360 0.33970 0.95030 -0.41500
O 	O 	0.06830 0.97630 0.05020 -0.67900
H 	H 	0.05390 0.97530 0.10660 0.18600
C 	C 	0.12770 0.65360 0.74780 0.05400
C 	C 	0.17520 0.72730 0.80820 -0.09900
C 	C 	0.26530 0.76890 0.79510 0.01200
H 	H 	0.29690 0.81780 0.83460 0.04600
C 	C 	0.30860 0.73930 0.72480 -0.04400
H 	H 	0.36870 0.76740 0.71790 0.06600
C 	C 	0.26270 0.66800 0.66490 -0.03500
C 	C 	0.17290 0.62750 0.67660 -0.06700
H 	H 	0.14160 0.58160 0.63590 0.07500
C 	C 	0.03550 0.59050 0.75580 0.01000
C 	C 	0.97220 0.60420 0.69480 -0.04300
H 	H 	0.98610 0.66160 0.65140 0.07000
C 	C 	0.88820 0.53290 0.69750 -0.04800
C 	C 	0.86740 0.45040 0.76320 0.00300
H 	H 	0.81120 0.40490 0.76650 0.06700
C 	C 	0.93000 0.43490 0.82440 -0.07400
C 	C 	0.01370 0.50490 0.82120 -0.02600
H 	H 	0.05500 0.49480 0.86250 0.06100
C 	C 	0.13520 0.77280 0.88620 0.37200
C 	C 	0.31110 0.62840 0.59010 0.32900
C 	C 	0.82030 0.55000 0.63340 0.29000
C 	C 	0.90870 0.33710 0.89370 0.35300
Ni	Ni	0.51905 0.33756 0.50486 1.10200
Ni	Ni	0.30535 0.40655 0.46149 1.13000
O 	O 	0.44620 0.30460 0.60950 -0.42100
O 	O 	0.30810 0.27600 0.55700 -0.40900
O 	O 	0.10440 0.14760 0.90910 -0.40900
O 	O 	0.23590 0.07750 0.96620 -0.38800
O 	O 	0.66430 0.12950 0.92550 -0.32400
O 	O 	0.75540 0.98450 0.86110 -0.35500
O 	O 	0.66330 0.76410 0.61060 -0.39000
O 	O 	0.53640 0.83970 0.54970 -0.41200
O 	O 	0.43170 0.47630 0.44980 -0.67900
H 	H 	0.44610 0.47530 0.39340 0.18700
C 	C 	0.37230 0.15360 0.75220 0.05500
C 	C 	0.32480 0.22730 0.69180 -0.10000
C 	C 	0.23470 0.26890 0.70490 0.01300
H 	H 	0.20310 0.31780 0.66540 0.04600
C 	C 	0.19140 0.23930 0.77520 -0.04600
H 	H 	0.13130 0.26740 0.78210 0.06700
C 	C 	0.23730 0.16800 0.83510 -0.03400
C 	C 	0.32710 0.12750 0.82340 -0.06900
H 	H 	0.35840 0.08160 0.86410 0.07500
C 	C 	0.46450 0.09050 0.74420 0.00700
C 	C 	0.52780 0.10420 0.80520 -0.03800
H 	H 	0.51390 0.16160 0.84860 0.06900
C 	C 	0.61180 0.03290 0.80250 -0.04800
C 	C 	0.63260 0.95040 0.73680 0.00000
H 	H 	0.68880 0.90490 0.73350 0.06700
C 	C 	0.57000 0.93490 0.67560 -0.06900
C 	C 	0.48630 0.00490 0.67880 -0.03100
H 	H 	0.44500 0.99480 0.63750 0.06100
C 	C 	0.36480 0.27280 0.61380 0.37300
C 	C 	0.18890 0.12840 0.90990 0.32800
C 	C 	0.67970 0.05000 0.86660 0.29200
C 	C 	0.59130 0.83710 0.60630 0.35100
Ni	Ni	0.01905 0.16244 0.00486 1.09800
Ni	Ni	0.80535 0.09345 0.96149 1.12900
O 	O 	0.94620 0.19540 0.10950 -0.41800
O 	O 	0.80810 0.22400 0.05700 -0.40700
O 	O 	0.60440 0.35240 0.40910 -0.41200
O 	O 	0.73590 0.42250 0.46620 -0.39000
O 	O 	0.16430 0.37050 0.42550 -0.32300
O 	O 	0.25540 0.51550 0.36110 -0.35100
O 	O 	0.16330 0.73590 0.11060 -0.39100
O 	O 	0.03640 0.66030 0.04970 -0.41500
O 	O 	0.93170 0.02370 0.94980 -0.67900
H 	H 	0.94610 0.02470 0.89340 0.18600
C 	C 	0.87230 0.34640 0.25220 0.05400
C 	C 	0.82480 0.27270 0.19180 -0.09900
C 	C 	0.73470 0.23110 0.20490 0.01200
H 	H 	0.70310 0.18220 0.16540 0.04600
C 	C 	0.69140 0.26070 0.27520 -0.04400
H 	H 	0.63130 0.23260 0.28210 0.06600
C 	C 	0.73730 0.33200 0.33510 -0.03500
C 	C 	0.82710 0.37250 0.32340 -0.06700
H 	H 	0.85840 0.41840 0.36410 0.07500
C 	C 	0.96450 0.40950 0.24420 0.01000
C 	C 	0.02780 0.39580 0.30520 -0.04300
H 	H 	0.01390 0.33840 0.34860 0.07000
C 	C 	0.11180 0.46710 0.30250 -0.04800
C 	C 	0.13260 0.54960 0.23680 0.00300
H 	H 	0.18880 0.59510 0.23350 0.06700
C 	C 	0.07000 0.56510 0.17560 -0.07400
C 	C 	0.98630 0.49510 0.17880 -0.02600
H 	H 	0.94500 0.50520 0.13750 0.06100
C 	C 	0.86480 0.22720 0.11380 0.37200
C 	C 	0.68890 0.37160 0.40990 0.32900
C 	C 	0.17970 0.45000 0.36660 0.29000
C 	C 	0.09130 0.66290 0.10630 0.35300
Ni	Ni	0.48095 0.66244 0.49514 1.10200
Ni	Ni	0.69465 0.59345 0.53851 1.13000
O 	O 	0.55380 0.69540 0.39050 -0.42100
O 	O 	0.69190 0.72400 0.44300 -0.40900
O 	O 	0.89560 0.85240 0.09090 -0.40900
O 	O 	0.76410 0.92250 0.03380 -0.38800
O 	O 	0.33570 0.87050 0.07450 -0.32400
O 	O 	0.24460 0.01550 0.13890 -0.35500
O 	O 	0.33670 0.23590 0.38940 -0.39000
O 	O 	0.46360 0.16030 0.45030 -0.41200
O 	O 	0.56830 0.52370 0.55020 -0.67900
H 	H 	0.55390 0.52470 0.60660 0.18700
C 	C 	0.62770 0.84640 0.24780 0.05500
C 	C 	0.67520 0.77270 0.30820 -0.10000
C 	C 	0.76530 0.73110 0.29510 0.01300
H 	H 	0.79690 0.68220 0.33460 0.04600
C 	C 	0.80860 0.76070 0.22480 -0.04600
H 	H 	0.86870 0.73260 0.21790 0.06700
C 	C 	0.76270 0.83200 0.16490 -0.03400
C 	C 	0.67290 0.87250 0.17660 -0.06900
H 	H 	0.64160 0.91840 0.13590 0.07500
C 	C 	0.53550 0.90950 0.25580 0.00700
C 	C 	0.47220 0.89580 0.19480 -0.03800
H 	H 	0.48610 0.83840 0.15140 0.06900
C 	C 	0.38820 0.96710 0.19750 -0.04800
C 	C 	0.36740 0.04960 0.26320 0.00000
H 	H 	0.31120 0.09510 0.26650 0.06700
C 	C 	0.43000 0.06510 0.32440 -0.06900
C 	C 	0.51370 0.99510 0.32120 -0.03100
H 	H 	0.55500 0.00520 0.36250 0.06100
C 	C 	0.63520 0.72720 0.38620 0.37300
C 	C 	0.81110 0.87160 0.09010 0.32800
C 	C 	0.32030 0.95000 0.13340 0.29200
C 	C 	0.40870 0.16290 0.39370 0.35100
