data_crystal

_cell_length_a 18.03300
_cell_length_b 18.03300
_cell_length_c 24.74300
_cell_angle_alpha 90.00000
_cell_angle_beta  90.00000
_cell_angle_gamma 120.00000

_symmetry_space_group_name_	'P 1'
_symmetry_space_group_name_H-M	'P 1'

loop_
_symmetry_equiv_pos_as_xyz
  x,y,z

loop_
_atom_site_label
_atom_site_type_symbol
_atom_site_fract_x
_atom_site_fract_y
_atom_site_fract_z
_atom_site_charge
Eu	Eu	-0.00000 -0.00000 0.37534 1.16700
Eu	Eu	-0.00000 0.00000 0.12466 1.16300
Eu	Eu	-0.00000 -0.00000 0.87534 1.19200
Eu	Eu	-0.00000 0.00000 0.62466 1.16500
Zn	Zn	0.00000 0.66686 0.91407 1.17900
Zn	Zn	0.78890 0.78890 0.85652 1.22700
Zn	Zn	0.50000 0.50000 0.50000 1.16600
Zn	Zn	0.33333 0.66666 0.37254 1.14800
Zn	Zn	-0.00000 0.50000 0.50000 1.13200
Zn	Zn	0.33314 -0.00000 0.08593 1.17500
Zn	Zn	0.21110 0.21110 0.35652 1.21700
Zn	Zn	-0.00000 0.33314 0.41407 1.17600
Zn	Zn	0.50000 0.00000 0.50000 1.13200
Zn	Zn	0.33314 0.00000 0.41407 1.17600
Zn	Zn	0.21110 0.21110 0.14348 1.21700
Zn	Zn	0.33333 0.66666 0.12746 1.14700
Zn	Zn	0.00000 0.66686 0.58593 1.17700
Zn	Zn	0.66667 0.33334 0.62746 1.14800
Zn	Zn	0.33314 0.33314 0.58593 1.20900
Zn	Zn	0.00000 0.21110 0.64348 1.18000
Zn	Zn	0.33333 0.66666 0.87254 1.14900
Zn	Zn	-0.00000 0.50000 -0.00000 1.12000
Zn	Zn	0.66667 0.33334 0.37254 1.14800
Zn	Zn	0.66686 0.66686 0.08593 1.20900
Zn	Zn	-0.00000 0.33314 0.08593 1.17500
Zn	Zn	-0.00000 0.21110 0.85652 1.18100
Zn	Zn	0.50000 0.00000 -0.00000 1.12000
Zn	Zn	0.78890 -0.00000 0.14348 1.18500
Zn	Zn	-0.00000 0.78890 0.14348 1.18500
Zn	Zn	0.50000 0.50000 -0.00000 1.15300
Zn	Zn	0.33333 0.66666 0.62746 1.14800
Zn	Zn	0.66686 -0.00000 0.91407 1.17900
Zn	Zn	0.00000 0.78890 0.35652 1.18500
Zn	Zn	0.78890 0.78890 0.64348 1.22600
Zn	Zn	0.78890 -0.00000 0.35652 1.18500
Zn	Zn	0.33314 0.33314 0.91407 1.21100
Zn	Zn	0.66667 0.33334 0.87254 1.14900
Zn	Zn	0.66686 0.00000 0.58593 1.17700
Zn	Zn	0.21110 -0.00000 0.64348 1.18000
Zn	Zn	0.66686 0.66686 0.41407 1.21000
Zn	Zn	0.66667 0.33334 0.12746 1.14700
Zn	Zn	0.21110 -0.00000 0.85652 1.18100
H 	H 	0.51380 0.76510 0.16370 0.12700
H 	H 	0.78640 0.78640 0.51850 0.01400
H 	H 	0.76510 0.51380 0.33630 0.12700
H 	H 	0.82540 0.59800 0.65100 0.21100
H 	H 	0.78640 -0.00000 0.01850 -0.03200
H 	H 	0.46150 0.82050 0.44620 -0.03300
H 	H 	0.40200 0.17460 0.34900 0.18200
H 	H 	0.21360 0.21360 0.48150 -0.02900
H 	H 	0.53850 0.35900 0.05380 -0.06200
H 	H 	0.77260 0.59800 0.15100 0.20000
H 	H 	0.44660 0.44660 0.37400 0.13400
H 	H 	0.37780 0.00000 0.84070 0.08400
H 	H 	0.82050 0.35900 0.94620 -0.02500
H 	H 	0.35900 0.53850 0.44620 -0.05500
H 	H 	0.51380 0.74870 0.66370 0.11500
H 	H 	0.82050 0.46150 0.05380 -0.04100
H 	H 	0.25130 0.48620 0.16370 0.10500
H 	H 	0.25130 0.48620 0.33630 0.10500
H 	H 	0.82050 0.46150 0.44620 -0.03300
H 	H 	0.22740 0.40200 0.84900 0.18300
H 	H 	0.35900 0.53850 0.05380 -0.06200
H 	H 	0.76510 0.25130 0.83630 0.12700
H 	H 	0.62220 0.62220 0.84070 0.12400
H 	H 	0.35900 0.82050 0.94620 -0.02500
H 	H 	0.48620 0.23490 0.83630 0.10400
H 	H 	0.44660 0.00000 0.87400 0.09500
H 	H 	0.53850 0.17950 0.94620 -0.04700
H 	H 	0.21360 0.00000 0.51850 -0.05600
H 	H 	0.48620 0.23490 0.66370 0.10400
H 	H 	0.44660 0.44660 0.12600 0.13400
H 	H 	0.77260 0.59800 0.34900 0.20100
H 	H 	0.53850 0.35900 0.44620 -0.05500
H 	H 	0.21360 0.21360 0.01850 -0.02600
H 	H 	-0.00000 0.37780 0.65930 0.08400
H 	H 	0.40200 0.17460 0.15100 0.18200
H 	H 	0.78640 0.78640 0.98150 0.01400
H 	H 	0.46150 0.82050 0.05380 -0.04100
H 	H 	0.78640 -0.00000 0.48150 -0.03400
H 	H 	0.59800 0.82540 0.84900 0.21200
H 	H 	0.00000 0.21360 0.98150 -0.05500
H 	H 	0.76510 0.51380 0.16370 0.12700
H 	H 	0.17460 0.77260 0.65100 0.19900
H 	H 	0.53850 0.17950 0.55380 -0.05500
H 	H 	0.51380 0.76510 0.33630 0.12700
H 	H 	0.00000 0.44660 0.62600 0.09400
H 	H 	0.25130 0.76510 0.83630 0.12700
H 	H 	0.64100 0.46150 0.55380 -0.05100
H 	H 	0.37780 0.37780 0.15930 0.12300
H 	H 	-0.00000 0.55340 0.12600 0.09400
H 	H 	0.00000 0.21360 0.51850 -0.05600
H 	H 	0.44660 -0.00000 0.62600 0.09400
H 	H 	0.82540 0.22740 0.34900 0.20900
H 	H 	-0.00000 0.62220 0.15930 0.08400
H 	H 	0.17950 0.64100 0.05380 -0.06000
H 	H 	0.40200 0.22740 0.84900 0.18300
H 	H 	0.46150 0.64100 0.94620 -0.04300
H 	H 	0.64100 0.17950 0.05380 -0.06000
H 	H 	0.59800 0.82540 0.65100 0.21100
H 	H 	0.59800 0.77260 0.34900 0.20100
H 	H 	0.25130 0.76510 0.66370 0.12600
H 	H 	0.64100 0.46150 0.94620 -0.04300
H 	H 	0.22740 0.82540 0.34900 0.20900
H 	H 	0.40200 0.22740 0.65100 0.18200
H 	H 	-0.00000 0.78640 0.01850 -0.03200
H 	H 	0.17460 0.40200 0.34900 0.18200
H 	H 	0.23490 0.74870 0.16370 0.11300
H 	H 	0.46150 0.64100 0.55380 -0.05100
H 	H 	0.55340 0.00000 0.37400 0.09400
H 	H 	0.21360 -0.00000 0.98150 -0.05500
H 	H 	0.55340 0.55340 0.62600 0.13500
H 	H 	0.77260 0.17460 0.65100 0.19900
H 	H 	0.48620 0.25130 0.16370 0.10500
H 	H 	0.74870 0.23490 0.16370 0.11300
H 	H 	0.76510 0.25130 0.66370 0.12600
H 	H 	0.62220 -0.00000 0.15930 0.08400
H 	H 	-0.00000 0.37780 0.84070 0.08400
H 	H 	0.23490 0.48620 0.66370 0.10400
H 	H 	0.17460 0.77260 0.84900 0.20000
H 	H 	0.23490 0.48620 0.83630 0.10400
H 	H 	0.00000 0.44660 0.87400 0.09500
H 	H 	0.37780 0.00000 0.65930 0.08400
H 	H 	0.62220 -0.00000 0.34070 0.08400
H 	H 	0.74870 0.23490 0.33630 0.11300
H 	H 	0.48620 0.25130 0.33630 0.10500
H 	H 	0.82050 0.35900 0.55380 -0.03300
H 	H 	0.82540 0.59800 0.84900 0.21200
H 	H 	0.51380 0.74870 0.83630 0.11600
H 	H 	0.17950 0.53850 0.55380 -0.05500
H 	H 	0.74870 0.51380 0.83630 0.11600
H 	H 	0.55340 0.55340 0.87400 0.13500
H 	H 	0.77260 0.17460 0.84900 0.20000
H 	H 	0.17460 0.40200 0.15100 0.18200
H 	H 	0.00000 0.78640 0.48150 -0.03400
H 	H 	0.22740 0.82540 0.15100 0.20900
H 	H 	0.62220 0.62220 0.65930 0.12300
H 	H 	0.35900 0.82050 0.55380 -0.03300
H 	H 	0.23490 0.74870 0.33630 0.11300
H 	H 	0.59800 0.77260 0.15100 0.20000
H 	H 	0.22740 0.40200 0.65100 0.18200
H 	H 	0.64100 0.17950 0.44620 -0.05200
H 	H 	0.17950 0.64100 0.44620 -0.05200
H 	H 	0.55340 -0.00000 0.12600 0.09400
H 	H 	0.00000 0.62220 0.34070 0.08400
H 	H 	0.17950 0.53850 0.94620 -0.04700
H 	H 	0.82540 0.22740 0.15100 0.20900
H 	H 	0.00000 0.55340 0.37400 0.09400
H 	H 	0.74870 0.51380 0.66370 0.11500
H 	H 	0.37780 0.37780 0.34070 0.12400
C 	C 	0.32050 0.49500 0.61540 0.20000
C 	C 	0.42200 0.58840 0.93150 0.11400
C 	C 	0.95030 0.15620 0.38880 0.46100
C 	C 	0.49500 0.17450 0.11540 0.19600
C 	C 	0.58840 0.42200 0.56850 0.11100
C 	C 	0.20590 0.15620 0.61120 0.29000
C 	C 	0.32050 0.49500 0.88460 0.20300
C 	C 	0.57800 0.16640 0.93150 0.11700
C 	C 	0.73810 0.78670 0.75000 0.21700
C 	C 	0.04860 0.26190 0.75000 0.03800
C 	C 	0.00000 0.35700 0.58200 0.14600
C 	C 	0.21330 0.26190 0.25000 0.19900
C 	C 	0.79410 0.95030 0.61120 0.46000
C 	C 	0.42200 0.83360 0.06850 0.12100
C 	C 	0.79410 0.84380 0.11120 0.28600
C 	C 	0.82550 0.32050 0.38460 0.22900
C 	C 	0.50500 0.82550 0.61540 0.22900
C 	C 	0.04970 0.84380 0.88880 0.13400
C 	C 	0.82550 0.32050 0.11540 0.22600
C 	C 	0.79410 0.84380 0.38880 0.28800
C 	C 	0.58840 0.42200 0.93150 0.11400
C 	C 	0.42200 0.83360 0.43150 0.12500
C 	C 	0.42200 0.58840 0.56850 0.11100
C 	C 	0.95030 0.79410 0.88880 0.46200
C 	C 	0.95140 0.21330 0.75000 0.37900
C 	C 	0.73780 0.73780 0.96900 0.15000
C 	C 	-0.00000 0.64300 0.41800 0.14700
C 	C 	0.64300 0.64300 0.58200 0.19000
C 	C 	0.49500 0.17450 0.38460 0.19900
C 	C 	0.35700 0.00000 0.58200 0.14600
C 	C 	0.95030 0.15620 0.11120 0.45900
C 	C 	0.95030 0.79410 0.61120 0.46000
C 	C 	0.20590 0.15620 0.88880 0.29300
C 	C 	0.00000 0.26220 0.53100 0.07800
C 	C 	0.50500 0.82550 0.88460 0.23100
C 	C 	0.78670 0.04860 0.25000 0.04800
C 	C 	0.83360 0.41160 0.93150 0.12800
C 	C 	0.00000 0.35700 0.91800 0.14900
C 	C 	0.83360 0.42200 0.43150 0.12500
C 	C 	0.16640 0.57800 0.56850 0.11400
C 	C 	0.16640 0.57800 0.93150 0.11700
C 	C 	0.35700 0.00000 0.91800 0.14900
C 	C 	0.84380 0.04970 0.61120 0.13000
C 	C 	0.73810 0.95140 0.25000 0.38700
C 	C 	0.32050 0.82550 0.11540 0.22600
C 	C 	0.79410 0.95030 0.88880 0.46200
C 	C 	0.41160 0.83360 0.93150 0.12800
C 	C 	0.17450 0.49500 0.11540 0.19600
C 	C 	0.64300 0.00000 0.08200 0.14500
C 	C 	0.84380 0.79410 0.38880 0.28800
C 	C 	0.67950 0.50500 0.38460 0.21000
C 	C 	0.26220 0.26220 0.46900 0.10400
C 	C 	0.83360 0.41160 0.56850 0.12500
C 	C 	0.57800 0.41160 0.06850 0.10900
C 	C 	0.73780 0.00000 0.46900 0.07900
C 	C 	0.67950 0.17450 0.88460 0.21000
C 	C 	0.41160 0.57800 0.43150 0.11300
C 	C 	0.58840 0.16640 0.06850 0.10800
C 	C 	0.57800 0.16640 0.56850 0.11400
C 	C 	0.35700 0.35700 0.41800 0.18700
C 	C 	0.00000 0.73780 0.46900 0.07900
C 	C 	0.04970 0.20590 0.38880 0.13200
C 	C 	-0.00000 0.64300 0.08200 0.14500
C 	C 	0.16640 0.58840 0.06850 0.10800
C 	C 	0.67950 0.17450 0.61540 0.20800
C 	C 	0.20590 0.04970 0.11120 0.13100
C 	C 	0.17450 0.67950 0.61540 0.20800
C 	C 	0.64300 0.64300 0.91800 0.19200
C 	C 	0.00000 0.26220 0.96900 0.12300
C 	C 	0.50500 0.67950 0.11540 0.20800
C 	C 	0.82550 0.50500 0.61540 0.22900
C 	C 	0.95140 0.73810 0.25000 0.38700
C 	C 	0.15620 0.95030 0.11120 0.45900
C 	C 	0.15620 0.95030 0.38880 0.46100
C 	C 	0.50500 0.67950 0.38460 0.21000
C 	C 	0.20590 0.04970 0.38880 0.13200
C 	C 	0.16640 0.58840 0.43150 0.11200
C 	C 	0.04970 0.20590 0.11120 0.13100
C 	C 	0.15620 0.20590 0.88880 0.29300
C 	C 	-0.00000 0.73780 0.03100 0.03400
C 	C 	0.35700 0.35700 0.08200 0.18400
C 	C 	0.64300 0.00000 0.41800 0.14700
C 	C 	0.49500 0.32050 0.88460 0.20300
C 	C 	0.58840 0.16640 0.43150 0.11200
C 	C 	0.41160 0.57800 0.06850 0.10900
C 	C 	0.57800 0.41160 0.43150 0.11300
C 	C 	0.26190 0.21330 0.25000 0.19900
C 	C 	0.21330 0.95140 0.75000 0.37900
C 	C 	0.41160 0.83360 0.56850 0.12500
C 	C 	0.49500 0.32050 0.61540 0.20000
C 	C 	0.73780 0.00000 0.03100 0.03400
C 	C 	0.26220 0.26220 0.03100 0.05800
C 	C 	0.67950 0.50500 0.11540 0.20800
C 	C 	0.73780 0.73780 0.53100 0.10500
C 	C 	0.04860 0.78670 0.25000 0.04800
C 	C 	0.84380 0.79410 0.11120 0.28600
C 	C 	0.78670 0.73810 0.75000 0.21700
C 	C 	0.17450 0.49500 0.38460 0.19900
C 	C 	0.26220 0.00000 0.96900 0.12300
C 	C 	0.04970 0.84380 0.61120 0.13000
C 	C 	0.15620 0.20590 0.61120 0.29000
C 	C 	0.32050 0.82550 0.38460 0.22900
C 	C 	0.17450 0.67950 0.88460 0.21000
C 	C 	0.26190 0.04860 0.75000 0.03800
C 	C 	0.83360 0.42200 0.06850 0.12100
C 	C 	0.82550 0.50500 0.88460 0.23100
C 	C 	0.26220 -0.00000 0.53100 0.07800
C 	C 	0.84380 0.04970 0.88880 0.13400
N 	N 	0.79660 0.25320 0.35300 -0.34700
N 	N 	0.61620 0.00000 0.46770 -0.25800
N 	N 	0.28200 0.00000 0.91730 -0.31900
N 	N 	0.32350 -0.00000 0.49940 -0.25200
N 	N 	0.64500 0.54440 0.08710 -0.24900
N 	N 	0.74680 0.54340 0.35300 -0.35000
N 	N 	0.36130 0.78090 0.39570 -0.34000
N 	N 	0.54440 0.89940 0.91290 -0.19500
N 	N 	0.21910 0.63870 0.89570 -0.34100
N 	N 	0.54340 0.74680 0.14700 -0.35000
N 	N 	0.71800 0.71800 0.91730 -0.29600
N 	N 	0.57820 0.09770 0.94360 -0.24900
N 	N 	0.58040 0.21910 0.10430 -0.34400
N 	N 	0.10060 0.64500 0.91290 -0.25400
N 	N 	0.67650 0.67650 0.49940 -0.21800
N 	N 	0.89940 0.54440 0.58710 -0.19700
N 	N 	0.90230 0.42180 0.05640 -0.20200
N 	N 	0.28200 0.28200 0.08270 -0.29200
N 	N 	0.41960 0.78090 0.60430 -0.34000
N 	N 	0.00000 0.38380 0.53230 -0.25800
N 	N 	0.36130 0.58040 0.89570 -0.34000
N 	N 	0.09770 0.51950 0.44360 -0.25900
N 	N 	0.09770 0.51950 0.05640 -0.26600
N 	N 	0.28200 0.28200 0.41730 -0.29700
N 	N 	0.90230 0.42180 0.44360 -0.19500
N 	N 	0.60100 0.60100 0.62810 -0.33100
N 	N 	0.42180 0.51950 0.55640 -0.24800
N 	N 	0.67650 0.67650 0.00060 -0.25700
N 	N 	0.58040 0.21910 0.39570 -0.34300
N 	N 	0.79660 0.54340 0.85300 -0.34800
N 	N 	0.90230 0.48050 0.55640 -0.19500
N 	N 	0.54340 0.79660 0.64700 -0.34800
N 	N 	-0.00000 0.67650 0.99940 -0.20800
N 	N 	0.63870 0.21910 0.89570 -0.34100
N 	N 	0.54340 0.74680 0.35300 -0.35000
N 	N 	0.89940 0.54440 0.91290 -0.19500
N 	N 	0.36130 0.78090 0.10430 -0.34100
N 	N 	0.74680 0.54340 0.14700 -0.35000
N 	N 	0.48050 0.57820 0.05640 -0.25500
N 	N 	0.00000 0.28200 0.91730 -0.31900
N 	N 	0.00000 0.39900 0.87190 -0.31800
N 	N 	0.32350 -0.00000 0.00060 -0.29000
N 	N 	0.38380 -0.00000 0.96770 -0.23500
N 	N 	0.45560 0.35500 0.58710 -0.24700
N 	N 	0.61620 0.00000 0.03230 -0.27700
N 	N 	0.79660 0.25320 0.14700 -0.34600
N 	N 	-0.00000 0.61620 0.03230 -0.27700
N 	N 	0.45560 0.10060 0.41290 -0.25700
N 	N 	0.39900 0.39900 0.37190 -0.33100
N 	N 	0.00000 0.28200 0.58270 -0.31400
N 	N 	0.54440 0.89940 0.58710 -0.19700
N 	N 	0.25320 0.45660 0.64700 -0.34200
N 	N 	0.74680 0.20340 0.85300 -0.35000
N 	N 	0.45660 0.25320 0.85300 -0.34200
N 	N 	0.48050 0.57820 0.44360 -0.24800
N 	N 	0.39900 0.00000 0.87190 -0.31800
N 	N 	0.35500 0.45560 0.91290 -0.24400
N 	N 	0.25320 0.79660 0.35300 -0.34700
N 	N 	0.79660 0.54340 0.64700 -0.34800
N 	N 	0.38380 0.38380 0.03230 -0.25600
N 	N 	0.64500 0.54440 0.41290 -0.24600
N 	N 	0.38380 -0.00000 0.53230 -0.25800
N 	N 	0.60100 0.60100 0.87190 -0.33100
N 	N 	0.89940 0.35500 0.41290 -0.19700
N 	N 	0.21910 0.58040 0.10430 -0.34400
N 	N 	0.09770 0.57820 0.94360 -0.24900
N 	N 	-0.00000 0.60100 0.12810 -0.31800
N 	N 	0.67650 -0.00000 0.50060 -0.24800
N 	N 	0.32350 0.32350 0.99940 -0.18500
N 	N 	0.42180 0.90230 0.44360 -0.19500
N 	N 	0.74680 0.20340 0.64700 -0.35000
N 	N 	0.00000 0.67650 0.50060 -0.24800
N 	N 	0.10060 0.45560 0.41290 -0.25700
N 	N 	0.51950 0.42180 0.94360 -0.23900
N 	N 	0.20340 0.45660 0.35300 -0.34300
N 	N 	0.60100 0.00000 0.37190 -0.31800
N 	N 	0.45660 0.20340 0.14700 -0.34300
N 	N 	0.78090 0.36130 0.39570 -0.34000
N 	N 	0.00000 0.32350 0.49940 -0.25200
N 	N 	0.64500 0.10060 0.58710 -0.25600
N 	N 	0.71800 0.00000 0.08270 -0.30600
N 	N 	0.71800 0.71800 0.58270 -0.29200
N 	N 	0.32350 0.32350 0.50060 -0.22500
N 	N 	0.20340 0.74680 0.85300 -0.35000
N 	N 	0.48050 0.90230 0.94360 -0.18600
N 	N 	0.51950 0.42180 0.55640 -0.24800
N 	N 	0.41960 0.63870 0.10430 -0.34400
N 	N 	0.35500 0.89940 0.08710 -0.19900
N 	N 	0.54440 0.64500 0.41290 -0.24600
N 	N 	0.51950 0.09770 0.44360 -0.25900
N 	N 	0.78090 0.41960 0.60430 -0.34000
N 	N 	0.57820 0.48050 0.44360 -0.24800
N 	N 	0.42180 0.51950 0.94360 -0.23900
N 	N 	-0.00000 0.71800 0.08270 -0.30600
N 	N 	0.00000 0.71800 0.41730 -0.31100
N 	N 	0.21910 0.63870 0.60430 -0.34300
N 	N 	0.61620 0.61620 0.96770 -0.21100
N 	N 	0.09770 0.57820 0.55640 -0.25900
N 	N 	0.58040 0.36130 0.89570 -0.34000
N 	N 	0.63870 0.41960 0.10430 -0.34400
N 	N 	0.63870 0.41960 0.39570 -0.34200
N 	N 	0.63870 0.21910 0.60430 -0.34300
N 	N 	0.10060 0.64500 0.58710 -0.25600
N 	N 	0.57820 0.48050 0.05640 -0.25500
N 	N 	0.90230 0.48050 0.94360 -0.18600
N 	N 	-0.00000 0.39900 0.62810 -0.31800
N 	N 	0.57820 0.09770 0.55640 -0.25900
N 	N 	0.51950 0.09770 0.05640 -0.26600
N 	N 	0.54440 0.64500 0.08710 -0.24900
N 	N 	0.45560 0.35500 0.91290 -0.24400
N 	N 	0.35500 0.89940 0.41290 -0.19700
N 	N 	0.41960 0.63870 0.39570 -0.34200
N 	N 	0.35500 0.45560 0.58710 -0.24700
N 	N 	0.61620 0.61620 0.53230 -0.23500
N 	N 	0.54340 0.79660 0.85300 -0.34800
N 	N 	0.00000 0.38380 0.96770 -0.23500
N 	N 	0.48050 0.90230 0.55640 -0.19500
N 	N 	0.39900 0.39900 0.12810 -0.33100
N 	N 	0.36130 0.58040 0.60430 -0.34200
N 	N 	0.71800 0.00000 0.41730 -0.31100
N 	N 	0.58040 0.36130 0.60430 -0.34200
N 	N 	0.64500 0.10060 0.91290 -0.25400
N 	N 	-0.00000 0.32350 0.00060 -0.29000
N 	N 	0.41960 0.78090 0.89570 -0.33800
N 	N 	0.78090 0.36130 0.10430 -0.34100
N 	N 	0.45660 0.20340 0.35300 -0.34300
N 	N 	0.60100 0.00000 0.12810 -0.31800
N 	N 	0.20340 0.45660 0.14700 -0.34300
N 	N 	0.78090 0.41960 0.89570 -0.33800
N 	N 	0.28200 -0.00000 0.58270 -0.31400
N 	N 	0.10060 0.45560 0.08710 -0.26000
N 	N 	0.42180 0.90230 0.05640 -0.20200
N 	N 	0.00000 0.60100 0.37190 -0.31800
N 	N 	0.21910 0.58040 0.39570 -0.34300
N 	N 	0.89940 0.35500 0.08710 -0.19900
N 	N 	0.67650 -0.00000 0.99940 -0.20800
N 	N 	0.38380 0.38380 0.46770 -0.23600
N 	N 	0.25320 0.45660 0.85300 -0.34200
N 	N 	0.25320 0.79660 0.14700 -0.34600
N 	N 	0.20340 0.74680 0.64700 -0.35000
N 	N 	0.39900 0.00000 0.62810 -0.31800
N 	N 	0.45660 0.25320 0.64700 -0.34200
N 	N 	0.45560 0.10060 0.08710 -0.26000
N 	N 	0.00000 0.61620 0.46770 -0.25800
Cl	Cl	0.66280 0.66280 0.18060 -0.44400
Cl	Cl	-0.00000 0.00000 0.25000 -0.70900
Cl	Cl	0.66280 0.00000 0.81940 -0.54800
Cl	Cl	0.00000 0.33720 0.31940 -0.55200
Cl	Cl	0.33720 0.33720 0.81940 -0.45500
Cl	Cl	0.33720 0.00000 0.31940 -0.55200
Cl	Cl	-0.00000 0.66280 0.81940 -0.54800
Cl	Cl	-0.00000 0.00000 -0.00000 -0.73200
Cl	Cl	0.66280 0.00000 0.68060 -0.54800
Cl	Cl	0.66280 0.66280 0.31940 -0.44400
Cl	Cl	0.00000 0.66280 0.68060 -0.54800
Cl	Cl	0.33720 0.00000 0.18060 -0.55200
Cl	Cl	0.33720 0.33720 0.68060 -0.45400
Cl	Cl	0.00000 0.33720 0.18060 -0.55200
Cl	Cl	-0.00000 0.00000 0.50000 -0.69900
Cl	Cl	-0.00000 -0.00000 0.75000 -0.71200
O 	O 	0.71950 0.80600 0.70620 -0.34100
O 	O 	0.28050 0.08650 0.70620 -0.34700
O 	O 	0.71780 0.91360 0.90170 -0.37400
O 	O 	0.16480 0.07970 0.62380 -0.52400
O 	O 	0.28220 0.19580 0.90170 -0.40600
O 	O 	0.28220 0.08640 0.40170 -0.38400
O 	O 	0.08510 0.16480 0.12380 -0.47500
O 	O 	0.91490 0.83520 0.87620 -0.42500
O 	O 	0.80420 0.71780 0.09830 -0.38100
O 	O 	0.71780 0.91360 0.59830 -0.37900
O 	O 	0.92030 0.08510 0.62380 -0.36700
O 	O 	0.16480 0.08510 0.12380 -0.47500
O 	O 	0.83520 0.91490 0.87620 -0.42500
O 	O 	0.83520 0.91490 0.62380 -0.42600
O 	O 	0.80600 0.08650 0.20620 -0.32400
O 	O 	0.80600 0.08650 0.29380 -0.32400
O 	O 	0.16480 0.08510 0.37620 -0.47400
O 	O 	0.80420 0.71780 0.40170 -0.37600
O 	O 	0.08510 0.16480 0.37620 -0.47400
O 	O 	0.28050 0.08650 0.79380 -0.34700
O 	O 	0.80600 0.71950 0.70620 -0.34100
O 	O 	0.07970 0.16480 0.62380 -0.52400
O 	O 	0.28050 0.19400 0.29380 -0.37300
O 	O 	0.08640 0.80420 0.59830 -0.35500
O 	O 	0.19400 0.91350 0.79380 -0.35300
O 	O 	0.91350 0.71950 0.20620 -0.34400
O 	O 	0.08640 0.80420 0.90170 -0.35000
O 	O 	0.71950 0.91350 0.20620 -0.34400
O 	O 	0.91360 0.19580 0.40170 -0.38400
O 	O 	0.19580 0.91360 0.40170 -0.38400
O 	O 	0.71780 0.80420 0.40170 -0.37600
O 	O 	0.08640 0.28220 0.09830 -0.38900
O 	O 	0.71950 0.80600 0.79380 -0.34100
O 	O 	0.19400 0.28050 0.29380 -0.37300
O 	O 	0.91490 0.07970 0.12380 -0.49800
O 	O 	0.08650 0.80600 0.20620 -0.32400
O 	O 	0.19580 0.28220 0.90170 -0.40600
O 	O 	0.83520 0.92030 0.37620 -0.34700
O 	O 	0.07970 0.91490 0.12380 -0.49800
O 	O 	0.92030 0.83520 0.12380 -0.34900
O 	O 	0.19580 0.28220 0.59830 -0.41100
O 	O 	0.91350 0.19400 0.79380 -0.35300
O 	O 	0.07970 0.16480 0.87620 -0.52200
O 	O 	0.91360 0.71780 0.90170 -0.37400
O 	O 	0.28220 0.19580 0.59830 -0.41100
O 	O 	0.08650 0.28050 0.70620 -0.34700
O 	O 	0.92030 0.08510 0.87620 -0.36700
O 	O 	0.16480 0.07970 0.87620 -0.52200
O 	O 	0.80420 0.08640 0.90170 -0.35000
O 	O 	0.08650 0.28050 0.79380 -0.34700
O 	O 	0.92030 0.83520 0.37620 -0.34700
O 	O 	0.07970 0.91490 0.37620 -0.49700
O 	O 	0.91350 0.19400 0.70620 -0.35300
O 	O 	0.83520 0.92030 0.12380 -0.34900
O 	O 	0.08510 0.92030 0.87620 -0.36700
O 	O 	0.28220 0.08640 0.09830 -0.38900
O 	O 	0.91490 0.07970 0.37620 -0.49700
O 	O 	0.19400 0.28050 0.20620 -0.37300
O 	O 	0.19400 0.91350 0.70620 -0.35300
O 	O 	0.91490 0.83520 0.62380 -0.42600
O 	O 	0.08640 0.28220 0.40170 -0.38400
O 	O 	0.71780 0.80420 0.09830 -0.38100
O 	O 	0.80420 0.08640 0.59830 -0.35500
O 	O 	0.19580 0.91360 0.09830 -0.39000
O 	O 	0.91360 0.19580 0.09830 -0.39000
O 	O 	0.71950 0.91350 0.29380 -0.34400
O 	O 	0.91350 0.71950 0.29380 -0.34400
O 	O 	0.08510 0.92030 0.62380 -0.36700
O 	O 	0.28050 0.19400 0.20620 -0.37300
O 	O 	0.08650 0.80600 0.29380 -0.32400
O 	O 	0.80600 0.71950 0.79380 -0.34100
O 	O 	0.91360 0.71780 0.59830 -0.37900
