data_crystal

_cell_length_a 14.08220
_cell_length_b 15.27810
_cell_length_c 18.53740
_cell_angle_alpha 90.00000
_cell_angle_beta  105.36000
_cell_angle_gamma 90.00000

_symmetry_space_group_name_	'P 1'
_symmetry_space_group_name_H-M	'P 1'

loop_
_symmetry_equiv_pos_as_xyz
  x,y,z

loop_
_atom_site_label
_atom_site_type_symbol
_atom_site_fract_x
_atom_site_fract_y
_atom_site_fract_z
_atom_site_charge
Co	Co	0.86579 0.62735 0.21686 1.17800
O 	O 	0.90120 0.68790 0.31950 -0.43600
C 	C 	0.98750 0.70550 0.35850 0.40200
C 	C 	0.77580 0.54130 0.95460 0.05200
H 	H 	0.73180 0.57250 0.97610 0.02600
C 	C 	0.99920 0.71270 0.44230 -0.26200
H 	H 	0.94560 0.69860 0.46240 0.12600
C 	C 	0.85630 0.50820 0.00120 -0.22300
H 	H 	0.89990 0.47570 0.98020 0.11600
C 	C 	0.88330 0.51870 0.08540 0.38600
O 	O 	0.82680 0.55870 0.11550 -0.41700
O 	O 	0.96400 0.48530 0.11890 -0.30800
C 	C 	0.65750 0.57530 0.75130 -0.07700
H 	H 	0.60770 0.60980 0.71920 0.06500
C 	C 	0.67510 0.58450 0.82780 -0.01700
H 	H 	0.63790 0.62400 0.84890 0.04900
C 	C 	0.74920 0.53360 0.87260 -0.02600
C 	C 	0.70970 0.51850 0.72120 0.04200
H 	H 	0.69430 0.51340 0.66830 0.02000
C 	C 	0.79920 0.47680 0.83820 0.02800
H 	H 	0.84840 0.44110 0.86940 0.02800
N 	N 	0.78390 0.46800 0.76380 -0.20500
O 	O 	0.06250 0.71550 0.33560 -0.42400
N 	N 	0.23460 0.79760 0.67820 -0.21100
C 	C 	0.19700 0.78950 0.60340 0.02700
H 	H 	0.23020 0.81820 0.57170 0.02600
C 	C 	0.11350 0.74220 0.57020 -0.03800
C 	C 	0.06600 0.69720 0.61580 -0.00700
H 	H 	0.00960 0.66190 0.59550 0.05600
C 	C 	0.08400 0.73860 0.48710 0.08600
H 	H 	0.13220 0.75730 0.46300 0.01600
C 	C 	0.18760 0.75680 0.72140 0.05600
H 	H 	0.21130 0.76240 0.77420 0.01500
C 	C 	0.10500 0.70640 0.69200 -0.07800
H 	H 	0.07420 0.67730 0.72510 0.06400
Co	Co	0.36579 0.12735 0.21686 1.18100
O 	O 	0.40120 0.18790 0.31950 -0.43500
C 	C 	0.48750 0.20550 0.35850 0.41400
C 	C 	0.27580 0.04130 0.95460 0.05700
H 	H 	0.23180 0.07250 0.97610 0.02600
C 	C 	0.49920 0.21270 0.44230 -0.23500
H 	H 	0.44560 0.19860 0.46240 0.12100
C 	C 	0.35630 0.00820 0.00120 -0.22600
H 	H 	0.39990 0.97570 0.98020 0.12100
C 	C 	0.38330 0.01870 0.08540 0.38800
O 	O 	0.32680 0.05870 0.11550 -0.41500
O 	O 	0.46400 0.98530 0.11890 -0.29900
C 	C 	0.15750 0.07530 0.75130 -0.07700
H 	H 	0.10770 0.10980 0.71920 0.06800
C 	C 	0.17510 0.08450 0.82780 -0.01600
H 	H 	0.13790 0.12400 0.84890 0.05100
C 	C 	0.24920 0.03360 0.87260 -0.02600
C 	C 	0.20970 0.01850 0.72120 0.04400
H 	H 	0.19430 0.01340 0.66830 0.02100
C 	C 	0.29920 0.97680 0.83820 0.03000
H 	H 	0.34840 0.94110 0.86940 0.03000
N 	N 	0.28390 0.96800 0.76380 -0.20400
O 	O 	0.56250 0.21550 0.33560 -0.43500
N 	N 	0.73460 0.29760 0.67820 -0.21000
C 	C 	0.69700 0.28950 0.60340 0.02100
H 	H 	0.73020 0.31820 0.57170 0.02700
C 	C 	0.61350 0.24220 0.57020 -0.02800
C 	C 	0.56600 0.19720 0.61580 -0.01500
H 	H 	0.50960 0.16190 0.59550 0.05300
C 	C 	0.58400 0.23860 0.48710 0.05800
H 	H 	0.63220 0.25730 0.46300 0.02400
C 	C 	0.68760 0.25680 0.72140 0.05300
H 	H 	0.71130 0.26240 0.77420 0.01500
C 	C 	0.60500 0.20640 0.69200 -0.07500
H 	H 	0.57420 0.17730 0.72510 0.06000
Co	Co	0.13421 0.62735 0.28314 1.18100
O 	O 	0.09880 0.68790 0.18050 -0.43600
C 	C 	0.01250 0.70550 0.14150 0.42500
C 	C 	0.22420 0.54130 0.54540 0.05500
H 	H 	0.26820 0.57250 0.52390 0.02500
C 	C 	0.00080 0.71270 0.05770 -0.21200
H 	H 	0.05440 0.69860 0.03760 0.11700
C 	C 	0.14370 0.50820 0.49880 -0.22300
H 	H 	0.10010 0.47570 0.51980 0.12300
C 	C 	0.11670 0.51870 0.41460 0.38800
O 	O 	0.17320 0.55870 0.38450 -0.41500
O 	O 	0.03600 0.48530 0.38110 -0.29200
C 	C 	0.34250 0.57530 0.74870 -0.07700
H 	H 	0.39230 0.60980 0.78080 0.06500
C 	C 	0.32490 0.58450 0.67220 -0.01700
H 	H 	0.36210 0.62400 0.65110 0.04900
C 	C 	0.25080 0.53360 0.62740 -0.02700
C 	C 	0.29030 0.51850 0.77880 0.04300
H 	H 	0.30570 0.51340 0.83170 0.02100
C 	C 	0.20080 0.47680 0.66180 0.03000
H 	H 	0.15160 0.44110 0.63060 0.03100
N 	N 	0.21610 0.46800 0.73620 -0.20400
O 	O 	0.93750 0.71550 0.16440 -0.44800
N 	N 	0.76540 0.79760 0.82180 -0.20900
C 	C 	0.80300 0.78950 0.89660 0.01600
H 	H 	0.76980 0.81820 0.92830 0.02900
C 	C 	0.88650 0.74220 0.92980 -0.02200
C 	C 	0.93400 0.69720 0.88420 -0.02200
H 	H 	0.99040 0.66190 0.90450 0.04900
C 	C 	0.91600 0.73860 0.01290 0.03300
H 	H 	0.86780 0.75730 0.03700 0.03000
C 	C 	0.81240 0.75680 0.77860 0.05000
H 	H 	0.78870 0.76240 0.72580 0.01400
C 	C 	0.89500 0.70640 0.80800 -0.07300
H 	H 	0.92580 0.67730 0.77490 0.05400
Co	Co	0.63421 0.12735 0.28314 1.18100
O 	O 	0.59880 0.18790 0.18050 -0.43500
C 	C 	0.51250 0.20550 0.14150 0.41400
C 	C 	0.72420 0.04130 0.54540 0.05500
H 	H 	0.76820 0.07250 0.52390 0.02400
C 	C 	0.50080 0.21270 0.05770 -0.23400
H 	H 	0.55440 0.19860 0.03760 0.12000
C 	C 	0.64370 0.00820 0.49880 -0.22500
H 	H 	0.60010 0.97570 0.51980 0.12000
C 	C 	0.61670 0.01870 0.41460 0.38700
O 	O 	0.67320 0.05870 0.38450 -0.41600
O 	O 	0.53600 0.98530 0.38110 -0.29900
C 	C 	0.84250 0.07530 0.74870 -0.07800
H 	H 	0.89230 0.10980 0.78080 0.06300
C 	C 	0.82490 0.08450 0.67220 -0.01700
H 	H 	0.86210 0.12400 0.65110 0.04600
C 	C 	0.75080 0.03360 0.62740 -0.02800
C 	C 	0.79030 0.01850 0.77880 0.04200
H 	H 	0.80570 0.01340 0.83170 0.01900
C 	C 	0.70080 0.97680 0.66180 0.02900
H 	H 	0.65160 0.94110 0.63060 0.02900
N 	N 	0.71610 0.96800 0.73620 -0.20500
O 	O 	0.43750 0.21550 0.16440 -0.43500
N 	N 	0.26540 0.29760 0.82180 -0.20900
C 	C 	0.30300 0.28950 0.89660 0.02100
H 	H 	0.26980 0.31820 0.92830 0.02800
C 	C 	0.38650 0.24220 0.92980 -0.02700
C 	C 	0.43400 0.19720 0.88420 -0.01500
H 	H 	0.49040 0.16190 0.90450 0.05300
C 	C 	0.41600 0.23860 0.01290 0.05600
H 	H 	0.36780 0.25730 0.03700 0.02400
C 	C 	0.31240 0.25680 0.77860 0.05300
H 	H 	0.28870 0.26240 0.72580 0.01500
C 	C 	0.39500 0.20640 0.80800 -0.07500
H 	H 	0.42580 0.17730 0.77490 0.06000
Co	Co	0.13421 0.37265 0.78314 1.18100
O 	O 	0.09880 0.31210 0.68050 -0.43600
C 	C 	0.01250 0.29450 0.64150 0.42500
C 	C 	0.22420 0.45870 0.04540 0.05200
H 	H 	0.26820 0.42750 0.02390 0.02600
C 	C 	0.00080 0.28730 0.55770 -0.20800
H 	H 	0.05440 0.30140 0.53760 0.11600
C 	C 	0.14370 0.49180 0.99880 -0.21900
H 	H 	0.10010 0.52430 0.01980 0.12100
C 	C 	0.11670 0.48130 0.91460 0.38600
O 	O 	0.17320 0.44130 0.88450 -0.41400
O 	O 	0.03600 0.51470 0.88110 -0.29100
C 	C 	0.34250 0.42470 0.24870 -0.07700
H 	H 	0.39230 0.39020 0.28080 0.06500
C 	C 	0.32490 0.41550 0.17220 -0.01800
H 	H 	0.36210 0.37600 0.15110 0.04900
C 	C 	0.25080 0.46640 0.12740 -0.02500
C 	C 	0.29030 0.48150 0.27880 0.04300
H 	H 	0.30570 0.48660 0.33170 0.02100
C 	C 	0.20080 0.52320 0.16180 0.02900
H 	H 	0.15160 0.55890 0.13060 0.03100
N 	N 	0.21610 0.53200 0.23620 -0.20400
O 	O 	0.93750 0.28450 0.66440 -0.44900
N 	N 	0.76540 0.20240 0.32180 -0.20800
C 	C 	0.80300 0.21050 0.39660 0.01500
H 	H 	0.76980 0.18180 0.42830 0.02900
C 	C 	0.88650 0.25780 0.42980 -0.01900
C 	C 	0.93400 0.30280 0.38420 -0.02300
H 	H 	0.99040 0.33810 0.40450 0.05000
C 	C 	0.91600 0.26140 0.51290 0.02900
H 	H 	0.86780 0.24270 0.53700 0.03100
C 	C 	0.81240 0.24320 0.27860 0.05000
H 	H 	0.78870 0.23760 0.22580 0.01500
C 	C 	0.89500 0.29360 0.30800 -0.07200
H 	H 	0.92580 0.32270 0.27490 0.05400
Co	Co	0.63421 0.87265 0.78314 1.18100
O 	O 	0.59880 0.81210 0.68050 -0.43500
C 	C 	0.51250 0.79450 0.64150 0.41400
C 	C 	0.72420 0.95870 0.04540 0.05600
H 	H 	0.76820 0.92750 0.02390 0.02400
C 	C 	0.50080 0.78730 0.55770 -0.23500
H 	H 	0.55440 0.80140 0.53760 0.12100
C 	C 	0.64370 0.99180 0.99880 -0.22600
H 	H 	0.60010 0.02430 0.01980 0.12100
C 	C 	0.61670 0.98130 0.91460 0.38700
O 	O 	0.67320 0.94130 0.88450 -0.41600
O 	O 	0.53600 0.01470 0.88110 -0.29900
C 	C 	0.84250 0.92470 0.24870 -0.07900
H 	H 	0.89230 0.89020 0.28080 0.06300
C 	C 	0.82490 0.91550 0.17220 -0.01700
H 	H 	0.86210 0.87600 0.15110 0.04700
C 	C 	0.75080 0.96640 0.12740 -0.02800
C 	C 	0.79030 0.98150 0.27880 0.04300
H 	H 	0.80570 0.98660 0.33170 0.01900
C 	C 	0.70080 0.02320 0.16180 0.02900
H 	H 	0.65160 0.05890 0.13060 0.02900
N 	N 	0.71610 0.03200 0.23620 -0.20500
O 	O 	0.43750 0.78450 0.66440 -0.43500
N 	N 	0.26540 0.70240 0.32180 -0.21000
C 	C 	0.30300 0.71050 0.39660 0.02100
H 	H 	0.26980 0.68180 0.42830 0.02800
C 	C 	0.38650 0.75780 0.42980 -0.02800
C 	C 	0.43400 0.80280 0.38420 -0.01500
H 	H 	0.49040 0.83810 0.40450 0.05300
C 	C 	0.41600 0.76140 0.51290 0.05800
H 	H 	0.36780 0.74270 0.53700 0.02400
C 	C 	0.31240 0.74320 0.27860 0.05300
H 	H 	0.28870 0.73760 0.22580 0.01500
C 	C 	0.39500 0.79360 0.30800 -0.07500
H 	H 	0.42580 0.82270 0.27490 0.06000
Co	Co	0.86579 0.37265 0.71686 1.17800
O 	O 	0.90120 0.31210 0.81950 -0.43500
C 	C 	0.98750 0.29450 0.85850 0.40300
C 	C 	0.77580 0.45870 0.45460 0.05500
H 	H 	0.73180 0.42750 0.47610 0.02500
C 	C 	0.99920 0.28730 0.94230 -0.26400
H 	H 	0.94560 0.30140 0.96240 0.12700
C 	C 	0.85630 0.49180 0.50120 -0.22600
H 	H 	0.89990 0.52430 0.48020 0.11800
C 	C 	0.88330 0.48130 0.58540 0.38700
O 	O 	0.82680 0.44130 0.61550 -0.41700
O 	O 	0.96400 0.51470 0.61890 -0.30900
C 	C 	0.65750 0.42470 0.25130 -0.07800
H 	H 	0.60770 0.39020 0.21920 0.06500
C 	C 	0.67510 0.41550 0.32780 -0.01600
H 	H 	0.63790 0.37600 0.34890 0.04900
C 	C 	0.74920 0.46640 0.37260 -0.02800
C 	C 	0.70970 0.48150 0.22120 0.04300
H 	H 	0.69430 0.48660 0.16830 0.02000
C 	C 	0.79920 0.52320 0.33820 0.02900
H 	H 	0.84840 0.55890 0.36940 0.02800
N 	N 	0.78390 0.53200 0.26380 -0.20500
O 	O 	0.06250 0.28450 0.83560 -0.42300
N 	N 	0.23460 0.20240 0.17820 -0.21100
C 	C 	0.19700 0.21050 0.10340 0.02800
H 	H 	0.23020 0.18180 0.07170 0.02500
C 	C 	0.11350 0.25780 0.07020 -0.04000
C 	C 	0.06600 0.30280 0.11580 -0.00500
H 	H 	0.00960 0.33810 0.09550 0.05500
C 	C 	0.08400 0.26140 0.98710 0.09000
H 	H 	0.13220 0.24270 0.96300 0.01500
C 	C 	0.18760 0.24320 0.22140 0.05700
H 	H 	0.21130 0.23760 0.27420 0.01500
C 	C 	0.10500 0.29360 0.19200 -0.07900
H 	H 	0.07420 0.32270 0.22510 0.06400
Co	Co	0.36579 0.87265 0.71686 1.18100
O 	O 	0.40120 0.81210 0.81950 -0.43500
C 	C 	0.48750 0.79450 0.85850 0.41400
C 	C 	0.27580 0.95870 0.45460 0.05500
H 	H 	0.23180 0.92750 0.47610 0.02600
C 	C 	0.49920 0.78730 0.94230 -0.23500
H 	H 	0.44560 0.80140 0.96240 0.12100
C 	C 	0.35630 0.99180 0.50120 -0.22300
H 	H 	0.39990 0.02430 0.48020 0.12000
C 	C 	0.38330 0.98130 0.58540 0.38700
O 	O 	0.32680 0.94130 0.61550 -0.41500
O 	O 	0.46400 0.01470 0.61890 -0.29900
C 	C 	0.15750 0.92470 0.25130 -0.07700
H 	H 	0.10770 0.89020 0.21920 0.06700
C 	C 	0.17510 0.91550 0.32780 -0.01600
H 	H 	0.13790 0.87600 0.34890 0.05100
C 	C 	0.24920 0.96640 0.37260 -0.02600
C 	C 	0.20970 0.98150 0.22120 0.04400
H 	H 	0.19430 0.98660 0.16830 0.02200
C 	C 	0.29920 0.02320 0.33820 0.03000
H 	H 	0.34840 0.05890 0.36940 0.03000
N 	N 	0.28390 0.03200 0.26380 -0.20400
O 	O 	0.56250 0.78450 0.83560 -0.43500
N 	N 	0.73460 0.70240 0.17820 -0.21000
C 	C 	0.69700 0.71050 0.10340 0.02100
H 	H 	0.73020 0.68180 0.07170 0.02700
C 	C 	0.61350 0.75780 0.07020 -0.02800
C 	C 	0.56600 0.80280 0.11580 -0.01500
H 	H 	0.50960 0.83810 0.09550 0.05300
C 	C 	0.58400 0.76140 0.98710 0.05700
H 	H 	0.63220 0.74270 0.96300 0.02400
C 	C 	0.68760 0.74320 0.22140 0.05300
H 	H 	0.71130 0.73760 0.27420 0.01500
C 	C 	0.60500 0.79360 0.19200 -0.07500
H 	H 	0.57420 0.82270 0.22510 0.06000
O 	O 	-0.00000 0.55300 0.25000 -0.51300
H 	H 	-0.00000 0.49080 0.25000 0.21800
O 	O 	0.50000 0.05300 0.25000 -0.52000
H 	H 	0.50000 0.99080 0.25000 0.21600
O 	O 	0.00000 0.44700 0.75000 -0.51300
H 	H 	0.00000 0.50920 0.75000 0.21900
O 	O 	0.50000 0.94700 0.75000 -0.52000
H 	H 	0.50000 0.00920 0.75000 0.21600
