data_crystal

_cell_length_a 13.47700
_cell_length_b 15.23960
_cell_length_c 26.22000
_cell_angle_alpha 90.00000
_cell_angle_beta  90.00000
_cell_angle_gamma 90.00000

_symmetry_space_group_name_	'P 1'
_symmetry_space_group_name_H-M	'P 1'

loop_
_symmetry_equiv_pos_as_xyz
  x,y,z

loop_
_atom_site_label
_atom_site_type_symbol
_atom_site_fract_x
_atom_site_fract_y
_atom_site_fract_z
_atom_site_charge
Mn	Mn	0.30367 0.95928 0.63982 1.21100
Mn	Mn	0.31094 0.25026 0.30743 1.22800
Mn	Mn	0.57820 0.46976 0.82576 1.22800
Mn	Mn	0.69633 0.54072 0.13982 1.21200
Mn	Mn	0.68906 0.24974 0.80743 1.22900
Mn	Mn	0.42180 0.03024 0.32576 1.22800
Mn	Mn	0.80367 0.04072 0.86018 1.21100
Mn	Mn	0.81094 0.74974 0.19257 1.22900
Mn	Mn	0.07820 0.53024 0.67424 1.22700
Mn	Mn	0.19633 0.45928 0.36018 1.21200
Mn	Mn	0.18906 0.75026 0.69257 1.22900
Mn	Mn	0.92180 0.96976 0.17424 1.22700
Mn	Mn	0.69633 0.04072 0.36018 1.21200
Mn	Mn	0.68906 0.74974 0.69257 1.22900
Mn	Mn	0.42180 0.53024 0.17424 1.22800
Mn	Mn	0.30367 0.45928 0.86018 1.21200
Mn	Mn	0.31094 0.75026 0.19257 1.22900
Mn	Mn	0.57820 0.96976 0.67424 1.22800
Mn	Mn	0.19633 0.95928 0.13982 1.21100
Mn	Mn	0.18906 0.25026 0.80743 1.22900
Mn	Mn	0.92180 0.46976 0.32576 1.22700
Mn	Mn	0.80367 0.54072 0.63982 1.21200
Mn	Mn	0.81094 0.24974 0.30743 1.22900
Mn	Mn	0.07820 0.03024 0.82576 1.22700
H 	H 	0.36870 0.57870 0.63490 0.02000
H 	H 	0.48800 0.38740 0.71900 -0.00900
H 	H 	0.51210 0.62890 0.76380 -0.01500
H 	H 	0.31080 0.02940 0.53190 -0.00700
H 	H 	0.39380 0.43060 0.64940 0.08000
H 	H 	0.12340 0.22290 0.50360 0.04800
H 	H 	0.08140 0.22330 0.58950 0.07200
H 	H 	0.13970 0.11420 0.64010 -0.00600
H 	H 	0.63130 0.92130 0.13490 0.02000
H 	H 	0.51200 0.11260 0.21900 -0.00900
H 	H 	0.48790 0.87110 0.26380 -0.01500
H 	H 	0.68920 0.47060 0.03190 -0.00700
H 	H 	0.60620 0.06940 0.14940 0.08000
H 	H 	0.87660 0.27710 0.00360 0.04800
H 	H 	0.91860 0.27670 0.08950 0.07100
H 	H 	0.86030 0.38580 0.14010 -0.00700
H 	H 	0.86870 0.42130 0.86510 0.01900
H 	H 	0.98800 0.61260 0.78100 -0.01000
H 	H 	0.01210 0.37110 0.73620 -0.01600
H 	H 	0.81080 0.97060 0.96810 -0.00600
H 	H 	0.89380 0.56940 0.85060 0.08100
H 	H 	0.62340 0.77710 0.99640 0.04900
H 	H 	0.58140 0.77670 0.91050 0.07100
H 	H 	0.63970 0.88580 0.85990 -0.00600
H 	H 	0.13130 0.07870 0.36510 0.01900
H 	H 	0.01200 0.88740 0.28100 -0.01000
H 	H 	0.98790 0.12890 0.23620 -0.01700
H 	H 	0.18920 0.52940 0.46810 -0.00700
H 	H 	0.10620 0.93060 0.35060 0.08100
H 	H 	0.37660 0.72290 0.49640 0.04900
H 	H 	0.41860 0.72330 0.41050 0.07200
H 	H 	0.36030 0.61420 0.35990 -0.00600
H 	H 	0.63130 0.42130 0.36510 0.02000
H 	H 	0.51200 0.61260 0.28100 -0.00900
H 	H 	0.48790 0.37110 0.23620 -0.01500
H 	H 	0.68920 0.97060 0.46810 -0.00700
H 	H 	0.60620 0.56940 0.35060 0.08000
H 	H 	0.87660 0.77710 0.49640 0.04800
H 	H 	0.91860 0.77670 0.41050 0.07200
H 	H 	0.86030 0.88580 0.35990 -0.00600
H 	H 	0.36870 0.07870 0.86510 0.02000
H 	H 	0.48800 0.88740 0.78100 -0.00900
H 	H 	0.51210 0.12890 0.73620 -0.01500
H 	H 	0.31080 0.52940 0.96810 -0.00700
H 	H 	0.39380 0.93060 0.85060 0.08000
H 	H 	0.12340 0.72290 0.99640 0.04800
H 	H 	0.08140 0.72330 0.91050 0.07100
H 	H 	0.13970 0.61420 0.85990 -0.00700
H 	H 	0.13130 0.57870 0.13490 0.01900
H 	H 	0.01200 0.38740 0.21900 -0.01000
H 	H 	0.98790 0.62890 0.26380 -0.01600
H 	H 	0.18920 0.02940 0.03190 -0.00600
H 	H 	0.10620 0.43060 0.14940 0.08100
H 	H 	0.37660 0.22290 0.00360 0.04900
H 	H 	0.41860 0.22330 0.08950 0.07100
H 	H 	0.36030 0.11420 0.14010 -0.00600
H 	H 	0.86870 0.92130 0.63490 0.01900
H 	H 	0.98800 0.11260 0.71900 -0.01000
H 	H 	0.01210 0.87110 0.76380 -0.01700
H 	H 	0.81080 0.47060 0.53190 -0.00700
H 	H 	0.89380 0.06940 0.64940 0.08100
H 	H 	0.62340 0.27710 0.50360 0.04900
H 	H 	0.58140 0.27670 0.58950 0.07200
H 	H 	0.63970 0.38580 0.64010 -0.00600
C 	C 	0.40410 0.55970 0.66330 0.03300
C 	C 	0.47370 0.44660 0.71450 0.06700
C 	C 	0.48970 0.58830 0.73990 0.04300
C 	C 	0.44220 0.61920 0.69760 -0.10100
C 	C 	0.32260 0.06890 0.43670 0.07000
C 	C 	0.26340 0.06920 0.54330 -0.00500
C 	C 	0.43750 0.71640 0.69000 0.14500
C 	C 	0.41930 0.47230 0.67180 -0.12600
C 	C 	0.22970 0.13140 0.50940 0.04900
C 	C 	0.15470 0.18490 0.52620 -0.04000
C 	C 	0.12580 0.18220 0.57660 -0.08900
C 	C 	0.16340 0.11870 0.60690 0.07100
C 	C 	0.59590 0.94030 0.16330 0.03100
C 	C 	0.52630 0.05340 0.21450 0.06700
C 	C 	0.51030 0.91170 0.23990 0.04200
C 	C 	0.55780 0.88080 0.19760 -0.10000
C 	C 	0.67740 0.43110 0.93670 0.06900
C 	C 	0.73660 0.43080 0.04330 -0.00500
C 	C 	0.56250 0.78360 0.19000 0.14500
C 	C 	0.58070 0.02770 0.17180 -0.12400
C 	C 	0.77030 0.36860 0.00940 0.04800
C 	C 	0.84530 0.31510 0.02620 -0.03900
C 	C 	0.87420 0.31780 0.07660 -0.09000
C 	C 	0.83660 0.38130 0.10690 0.07100
C 	C 	0.90410 0.44030 0.83670 0.03400
C 	C 	0.97370 0.55340 0.78550 0.06800
C 	C 	0.98970 0.41170 0.76010 0.04500
C 	C 	0.94220 0.38080 0.80240 -0.10300
C 	C 	0.82260 0.93110 0.06330 0.06800
C 	C 	0.76340 0.93080 0.95670 -0.00600
C 	C 	0.93750 0.28360 0.81000 0.14600
C 	C 	0.91930 0.52770 0.82820 -0.12800
C 	C 	0.72970 0.86860 0.99060 0.05000
C 	C 	0.65470 0.81510 0.97380 -0.04000
C 	C 	0.62580 0.81780 0.92340 -0.08900
C 	C 	0.66340 0.88130 0.89310 0.07100
C 	C 	0.09590 0.05970 0.33670 0.03700
C 	C 	0.02630 0.94660 0.28550 0.06800
C 	C 	0.01030 0.08830 0.26010 0.04800
C 	C 	0.05780 0.11920 0.30240 -0.10400
C 	C 	0.17740 0.56890 0.56330 0.06900
C 	C 	0.23660 0.56920 0.45670 -0.00500
C 	C 	0.06250 0.21640 0.31000 0.14700
C 	C 	0.08070 0.97230 0.32820 -0.13000
C 	C 	0.27030 0.63140 0.49060 0.04900
C 	C 	0.34530 0.68490 0.47380 -0.03900
C 	C 	0.37420 0.68220 0.42340 -0.08900
C 	C 	0.33660 0.61870 0.39310 0.07100
C 	C 	0.59590 0.44030 0.33670 0.03300
C 	C 	0.52630 0.55340 0.28550 0.06700
C 	C 	0.51030 0.41170 0.26010 0.04300
C 	C 	0.55780 0.38080 0.30240 -0.10100
C 	C 	0.67740 0.93110 0.56330 0.07000
C 	C 	0.73660 0.93080 0.45670 -0.00500
C 	C 	0.56250 0.28360 0.31000 0.14500
C 	C 	0.58070 0.52770 0.32820 -0.12600
C 	C 	0.77030 0.86860 0.49060 0.04900
C 	C 	0.84530 0.81510 0.47380 -0.04000
C 	C 	0.87420 0.81780 0.42340 -0.08900
C 	C 	0.83660 0.88130 0.39310 0.07100
C 	C 	0.40410 0.05970 0.83670 0.03100
C 	C 	0.47370 0.94660 0.78550 0.06700
C 	C 	0.48970 0.08830 0.76010 0.04200
C 	C 	0.44220 0.11920 0.80240 -0.10000
C 	C 	0.32260 0.56890 0.06330 0.06900
C 	C 	0.26340 0.56920 0.95670 -0.00500
C 	C 	0.43750 0.21640 0.81000 0.14500
C 	C 	0.41930 0.97230 0.82820 -0.12400
C 	C 	0.22970 0.63140 0.99060 0.04800
C 	C 	0.15470 0.68490 0.97380 -0.03900
C 	C 	0.12580 0.68220 0.92340 -0.09000
C 	C 	0.16340 0.61870 0.89310 0.07100
C 	C 	0.09590 0.55970 0.16330 0.03400
C 	C 	0.02630 0.44660 0.21450 0.06800
C 	C 	0.01030 0.58830 0.23990 0.04500
C 	C 	0.05780 0.61920 0.19760 -0.10300
C 	C 	0.17740 0.06890 0.93670 0.06800
C 	C 	0.23660 0.06920 0.04330 -0.00600
C 	C 	0.06250 0.71640 0.19000 0.14600
C 	C 	0.08070 0.47230 0.17180 -0.12800
C 	C 	0.27030 0.13140 0.00940 0.05000
C 	C 	0.34530 0.18490 0.02620 -0.04000
C 	C 	0.37420 0.18220 0.07660 -0.08900
C 	C 	0.33660 0.11870 0.10690 0.07100
C 	C 	0.90410 0.94030 0.66330 0.03700
C 	C 	0.97370 0.05340 0.71450 0.06800
C 	C 	0.98970 0.91170 0.73990 0.04800
C 	C 	0.94220 0.88080 0.69760 -0.10400
C 	C 	0.82260 0.43110 0.43670 0.06900
C 	C 	0.76340 0.43080 0.54330 -0.00500
C 	C 	0.93750 0.78360 0.69000 0.14700
C 	C 	0.91930 0.02770 0.67180 -0.13000
C 	C 	0.72970 0.36860 0.50940 0.04900
C 	C 	0.65470 0.31510 0.52620 -0.03900
C 	C 	0.62580 0.31780 0.57660 -0.08900
C 	C 	0.66340 0.38130 0.60690 0.07100
N 	N 	0.30750 0.17730 0.38327 -0.17900
N 	N 	0.05840 0.87050 0.58000 -0.08400
N 	N 	0.17300 0.87460 0.65060 -0.33500
N 	N 	0.25820 0.20190 0.42560 -0.07000
N 	N 	0.50600 0.50370 0.74910 -0.24800
N 	N 	0.22910 0.07400 0.74360 -0.04300
N 	N 	0.34490 0.09790 0.39060 -0.22400
N 	N 	0.11460 0.87330 0.61430 -0.07500
N 	N 	0.44780 0.10170 0.62750 -0.07000
N 	N 	0.29170 0.29870 0.23170 -0.22800
N 	N 	0.31250 0.35860 0.20330 -0.04400
N 	N 	0.26880 0.03500 0.71060 -0.22300
N 	N 	0.35520 0.76320 0.68278 -0.22800
N 	N 	0.33120 0.41670 0.17260 -0.22400
N 	N 	0.51930 0.76510 0.68942 -0.22000
N 	N 	0.48490 0.84750 0.68094 -0.19800
N 	N 	0.18840 0.11190 0.77760 -0.30800
N 	N 	0.45010 0.02420 0.63470 -0.34200
N 	N 	0.27080 0.13220 0.45680 -0.09600
N 	N 	0.44440 0.18030 0.62520 -0.08900
N 	N 	0.23200 0.06260 0.59180 -0.23900
N 	N 	0.38850 0.84590 0.67704 -0.20000
N 	N 	0.69250 0.32270 0.88327 -0.17900
N 	N 	0.94160 0.62950 0.08000 -0.08400
N 	N 	0.82700 0.62540 0.15060 -0.33500
N 	N 	0.74180 0.29810 0.92560 -0.07000
N 	N 	0.49400 0.99630 0.24910 -0.24800
N 	N 	0.77090 0.42600 0.24360 -0.04300
N 	N 	0.65510 0.40210 0.89060 -0.22400
N 	N 	0.88540 0.62670 0.11430 -0.07500
N 	N 	0.55220 0.39830 0.12750 -0.07000
N 	N 	0.70830 0.20130 0.73170 -0.22800
N 	N 	0.68750 0.14140 0.70330 -0.04400
N 	N 	0.73120 0.46500 0.21060 -0.22300
N 	N 	0.64480 0.73680 0.18278 -0.22800
N 	N 	0.66880 0.08330 0.67260 -0.22400
N 	N 	0.48070 0.73490 0.18942 -0.22000
N 	N 	0.51510 0.65250 0.18094 -0.19800
N 	N 	0.81160 0.38810 0.27760 -0.30900
N 	N 	0.54990 0.47580 0.13470 -0.34200
N 	N 	0.72920 0.36780 0.95680 -0.09600
N 	N 	0.55560 0.31970 0.12520 -0.08900
N 	N 	0.76800 0.43740 0.09180 -0.23900
N 	N 	0.61150 0.65410 0.17704 -0.20000
N 	N 	0.80750 0.82270 0.11673 -0.17900
N 	N 	0.55840 0.12950 0.92000 -0.08400
N 	N 	0.67300 0.12540 0.84940 -0.33500
N 	N 	0.75820 0.79810 0.07440 -0.07100
N 	N 	0.00600 0.49630 0.75090 -0.25000
N 	N 	0.72910 0.92600 0.75640 -0.04300
N 	N 	0.84490 0.90210 0.10940 -0.22400
N 	N 	0.61460 0.12670 0.88570 -0.07500
N 	N 	0.94780 0.89830 0.87250 -0.06900
N 	N 	0.79170 0.70130 0.26830 -0.22800
N 	N 	0.81250 0.64140 0.29670 -0.04400
N 	N 	0.76880 0.96500 0.78940 -0.22200
N 	N 	0.85520 0.23680 0.81722 -0.22800
N 	N 	0.83120 0.58330 0.32740 -0.22400
N 	N 	0.01930 0.23490 0.81058 -0.22100
N 	N 	0.98490 0.15250 0.81906 -0.19800
N 	N 	0.68840 0.88810 0.72240 -0.30800
N 	N 	0.95010 0.97580 0.86530 -0.34100
N 	N 	0.77080 0.86780 0.04320 -0.09600
N 	N 	0.94440 0.81970 0.87480 -0.08800
N 	N 	0.73200 0.93740 0.90820 -0.23800
N 	N 	0.88850 0.15410 0.82296 -0.20000
N 	N 	0.19250 0.67730 0.61673 -0.17900
N 	N 	0.44160 0.37050 0.42000 -0.08300
N 	N 	0.32700 0.37460 0.34940 -0.33400
N 	N 	0.24180 0.70190 0.57440 -0.07000
N 	N 	0.99400 0.00370 0.25090 -0.25000
N 	N 	0.27090 0.57400 0.25640 -0.04300
N 	N 	0.15510 0.59790 0.60940 -0.22400
N 	N 	0.38540 0.37330 0.38570 -0.07500
N 	N 	0.05220 0.60170 0.37250 -0.07000
N 	N 	0.20830 0.79870 0.76830 -0.22800
N 	N 	0.18750 0.85860 0.79670 -0.04400
N 	N 	0.23120 0.53500 0.28940 -0.22300
N 	N 	0.14480 0.26320 0.31722 -0.22800
N 	N 	0.16880 0.91670 0.82740 -0.22400
N 	N 	0.98070 0.26510 0.31058 -0.22100
N 	N 	0.01510 0.34750 0.31906 -0.19800
N 	N 	0.31160 0.61190 0.22240 -0.30800
N 	N 	0.04990 0.52420 0.36530 -0.34200
N 	N 	0.22920 0.63220 0.54320 -0.09600
N 	N 	0.05560 0.68030 0.37480 -0.08900
N 	N 	0.26800 0.56260 0.40820 -0.23900
N 	N 	0.11150 0.34590 0.32296 -0.20000
N 	N 	0.69250 0.82270 0.61673 -0.17900
N 	N 	0.94160 0.12950 0.42000 -0.08400
N 	N 	0.82700 0.12540 0.34940 -0.33500
N 	N 	0.74180 0.79810 0.57440 -0.07000
N 	N 	0.49400 0.49630 0.25090 -0.24800
N 	N 	0.77090 0.92600 0.25640 -0.04300
N 	N 	0.65510 0.90210 0.60940 -0.22400
N 	N 	0.88540 0.12670 0.38570 -0.07500
N 	N 	0.55220 0.89830 0.37250 -0.07000
N 	N 	0.70830 0.70130 0.76830 -0.22800
N 	N 	0.68750 0.64140 0.79670 -0.04400
N 	N 	0.73120 0.96500 0.28940 -0.22300
N 	N 	0.64480 0.23680 0.31722 -0.22800
N 	N 	0.66880 0.58330 0.82740 -0.22400
N 	N 	0.48070 0.23490 0.31058 -0.22000
N 	N 	0.51510 0.15250 0.31906 -0.19800
N 	N 	0.81160 0.88810 0.22240 -0.30800
N 	N 	0.54990 0.97580 0.36530 -0.34200
N 	N 	0.72920 0.86780 0.54320 -0.09600
N 	N 	0.55560 0.81970 0.37480 -0.08900
N 	N 	0.76800 0.93740 0.40820 -0.23900
N 	N 	0.61150 0.15410 0.32296 -0.20000
N 	N 	0.30750 0.67730 0.11673 -0.17900
N 	N 	0.05840 0.37050 0.92000 -0.08400
N 	N 	0.17300 0.37460 0.84940 -0.33500
N 	N 	0.25820 0.70190 0.07440 -0.07000
N 	N 	0.50600 0.00370 0.75090 -0.24800
N 	N 	0.22910 0.57400 0.75640 -0.04300
N 	N 	0.34490 0.59790 0.10940 -0.22400
N 	N 	0.11460 0.37330 0.88570 -0.07500
N 	N 	0.44780 0.60170 0.87250 -0.07000
N 	N 	0.29170 0.79870 0.26830 -0.22800
N 	N 	0.31250 0.85860 0.29670 -0.04400
N 	N 	0.26880 0.53500 0.78940 -0.22300
N 	N 	0.35520 0.26320 0.81722 -0.22800
N 	N 	0.33120 0.91670 0.32740 -0.22400
N 	N 	0.51930 0.26510 0.81058 -0.22000
N 	N 	0.48490 0.34750 0.81906 -0.19800
N 	N 	0.18840 0.61190 0.72240 -0.30900
N 	N 	0.45010 0.52420 0.86530 -0.34200
N 	N 	0.27080 0.63220 0.04320 -0.09600
N 	N 	0.44440 0.68030 0.87480 -0.08900
N 	N 	0.23200 0.56260 0.90820 -0.23900
N 	N 	0.38850 0.34590 0.82296 -0.20000
N 	N 	0.19250 0.17730 0.88327 -0.17900
N 	N 	0.44160 0.87050 0.08000 -0.08400
N 	N 	0.32700 0.87460 0.15060 -0.33500
N 	N 	0.24180 0.20190 0.92560 -0.07100
N 	N 	0.99400 0.50370 0.24910 -0.25000
N 	N 	0.27090 0.07400 0.24360 -0.04300
N 	N 	0.15510 0.09790 0.89060 -0.22400
N 	N 	0.38540 0.87330 0.11430 -0.07500
N 	N 	0.05220 0.10170 0.12750 -0.06900
N 	N 	0.20830 0.29870 0.73170 -0.22800
N 	N 	0.18750 0.35860 0.70330 -0.04400
N 	N 	0.23120 0.03500 0.21060 -0.22200
N 	N 	0.14480 0.76320 0.18278 -0.22800
N 	N 	0.16880 0.41670 0.67260 -0.22400
N 	N 	0.98070 0.76510 0.18942 -0.22100
N 	N 	0.01510 0.84750 0.18094 -0.19800
N 	N 	0.31160 0.11190 0.27760 -0.30800
N 	N 	0.04990 0.02420 0.13470 -0.34100
N 	N 	0.22920 0.13220 0.95680 -0.09600
N 	N 	0.05560 0.18030 0.12520 -0.08800
N 	N 	0.26800 0.06260 0.09180 -0.23800
N 	N 	0.11150 0.84590 0.17704 -0.20000
N 	N 	0.80750 0.32270 0.38327 -0.17900
N 	N 	0.55840 0.62950 0.58000 -0.08300
N 	N 	0.67300 0.62540 0.65060 -0.33400
N 	N 	0.75820 0.29810 0.42560 -0.07000
N 	N 	0.00600 0.99630 0.74910 -0.25000
N 	N 	0.72910 0.42600 0.74360 -0.04300
N 	N 	0.84490 0.40210 0.39060 -0.22400
N 	N 	0.61460 0.62670 0.61430 -0.07500
N 	N 	0.94780 0.39830 0.62750 -0.07000
N 	N 	0.79170 0.20130 0.23170 -0.22800
N 	N 	0.81250 0.14140 0.20330 -0.04400
N 	N 	0.76880 0.46500 0.71060 -0.22300
N 	N 	0.85520 0.73680 0.68278 -0.22800
N 	N 	0.83120 0.08330 0.17260 -0.22400
N 	N 	0.01930 0.73490 0.68942 -0.22100
N 	N 	0.98490 0.65250 0.68094 -0.19800
N 	N 	0.68840 0.38810 0.77760 -0.30800
N 	N 	0.95010 0.47580 0.63470 -0.34200
N 	N 	0.77080 0.36780 0.45680 -0.09600
N 	N 	0.94440 0.31970 0.62520 -0.08900
N 	N 	0.73200 0.43740 0.59180 -0.23900
N 	N 	0.88850 0.65410 0.67704 -0.20000
