data_crystal

_cell_length_a 13.29060
_cell_length_b 13.84400
_cell_length_c 16.45300
_cell_angle_alpha 97.03500
_cell_angle_beta  108.80900
_cell_angle_gamma 102.83100

_symmetry_space_group_name_	'P 1'
_symmetry_space_group_name_H-M	'P 1'

loop_
_symmetry_equiv_pos_as_xyz
  x,y,z

loop_
_atom_site_label
_atom_site_type_symbol
_atom_site_fract_x
_atom_site_fract_y
_atom_site_fract_z
_atom_site_charge
H 	H 	0.43110 0.29790 0.18410 0.10000
H 	H 	0.31270 0.27100 0.11130 0.10400
H 	H 	0.30940 0.34670 0.24400 0.11400
H 	H 	0.40100 0.44310 0.24900 0.12700
H 	H 	0.28290 0.41630 0.17620 0.11600
H 	H 	0.22810 0.65660 0.96390 0.10500
H 	H 	0.32780 0.74180 0.03430 0.10500
H 	H 	0.19550 0.68340 0.09500 0.11100
H 	H 	0.20540 0.57300 0.07480 0.11400
H 	H 	0.30520 0.65770 0.14500 0.12100
H 	H 	0.56890 0.70210 0.81590 0.09900
H 	H 	0.68730 0.72900 0.88870 0.10300
H 	H 	0.69060 0.65330 0.75600 0.11400
H 	H 	0.59900 0.55690 0.75100 0.12700
H 	H 	0.71710 0.58370 0.82380 0.11600
H 	H 	0.77190 0.34340 0.03610 0.10500
H 	H 	0.67220 0.25820 0.96570 0.10500
H 	H 	0.80450 0.31660 0.90500 0.11100
H 	H 	0.79460 0.42700 0.92520 0.11400
H 	H 	0.69480 0.34230 0.85500 0.12100
Rh	Rh	0.42988 0.44543 0.93521 0.89300
Rh	Rh	0.57012 0.55457 0.06479 0.89300
C 	C 	0.42250 0.38910 0.09450 0.35500
C 	C 	0.37540 0.32660 0.14960 -0.20200
C 	C 	0.33890 0.38880 0.21020 -0.29100
C 	C 	0.36680 0.60810 0.01190 0.36200
C 	C 	0.28890 0.67030 0.01960 -0.21300
C 	C 	0.24480 0.64370 0.09000 -0.28000
C 	C 	0.57750 0.61090 0.90550 0.35500
C 	C 	0.62460 0.67340 0.85040 -0.20200
C 	C 	0.66110 0.61120 0.78980 -0.29100
C 	C 	0.63320 0.39190 0.98810 0.36200
C 	C 	0.71110 0.32970 0.98040 -0.21300
C 	C 	0.75520 0.35630 0.91000 -0.28000
O 	O 	0.37450 0.36060 0.01230 -0.38600
O 	O 	0.33040 0.53410 0.94730 -0.39000
O 	O 	0.50580 0.46420 0.13490 -0.38700
O 	O 	0.46240 0.63610 0.06980 -0.38900
O 	O 	0.29340 0.32980 0.81090 -0.18800
O 	O 	0.62550 0.63940 0.98770 -0.38600
O 	O 	0.66960 0.46590 0.05270 -0.39000
O 	O 	0.49420 0.53580 0.86510 -0.38700
O 	O 	0.53760 0.36390 0.93020 -0.38900
O 	O 	0.70660 0.67020 0.18910 -0.18800
