data_crystal

_cell_length_a 8.21330
_cell_length_b 9.17390
_cell_length_c 15.34080
_cell_angle_alpha 100.08000
_cell_angle_beta  96.91500
_cell_angle_gamma 100.33600

_symmetry_space_group_name_	'P 1'
_symmetry_space_group_name_H-M	'P 1'

loop_
_symmetry_equiv_pos_as_xyz
  x,y,z

loop_
_atom_site_label
_atom_site_type_symbol
_atom_site_fract_x
_atom_site_fract_y
_atom_site_fract_z
_atom_site_charge
Cd	Cd	0.48382 0.19267 0.61916 1.14000
N 	N 	0.68270 0.05400 0.57940 -0.23200
N 	N 	0.69120 0.94260 0.51050 -0.23200
N 	N 	0.91090 0.96310 0.61710 -0.14500
N 	N 	0.74180 0.27230 0.73360 -0.22000
N 	N 	0.03370 0.31020 0.85530 -0.11800
N 	N 	0.76150 0.70110 0.40200 -0.23100
N 	N 	0.06130 0.60850 0.43590 -0.13200
C 	C 	0.81470 0.06290 0.64060 0.07200
C 	C 	0.82790 0.89140 0.53540 0.06900
C 	C 	0.84870 0.17780 0.72310 -0.01200
C 	C 	0.98940 0.19450 0.78520 0.00400
H 	H 	0.05620 0.12270 0.77820 0.01400
C 	C 	0.92960 0.40660 0.86400 -0.01000
H 	H 	0.95700 0.49000 0.91120 0.02700
C 	C 	0.78280 0.38590 0.80520 0.00000
H 	H 	0.71080 0.45230 0.81550 -0.01000
C 	C 	0.87360 0.76730 0.47590 -0.01100
C 	C 	0.02420 0.72080 0.49210 0.01500
H 	H 	0.10050 0.76920 0.54330 0.00700
C 	C 	0.94910 0.54130 0.36470 0.00200
H 	H 	0.97140 0.46080 0.32520 0.01900
C 	C 	0.79880 0.58750 0.34710 -0.00300
H 	H 	0.72300 0.53810 0.29600 -0.01500
Cd	Cd	0.51618 0.80733 0.38084 1.14100
N 	N 	0.31730 0.94600 0.42060 -0.23100
N 	N 	0.30880 0.05740 0.48950 -0.23100
N 	N 	0.08910 0.03690 0.38290 -0.14400
N 	N 	0.25820 0.72770 0.26640 -0.22000
N 	N 	0.96630 0.68980 0.14470 -0.11800
N 	N 	0.23850 0.29890 0.59800 -0.23100
N 	N 	0.93870 0.39150 0.56410 -0.13200
C 	C 	0.18530 0.93710 0.35940 0.07200
C 	C 	0.17210 0.10860 0.46460 0.06900
C 	C 	0.15130 0.82220 0.27690 -0.01200
C 	C 	0.01060 0.80550 0.21480 0.00400
H 	H 	0.94380 0.87730 0.22180 0.01400
C 	C 	0.07040 0.59340 0.13600 -0.01000
H 	H 	0.04300 0.51000 0.08880 0.02700
C 	C 	0.21720 0.61410 0.19480 0.00000
H 	H 	0.28920 0.54770 0.18450 -0.01000
C 	C 	0.12640 0.23270 0.52410 -0.01100
C 	C 	0.97580 0.27920 0.50790 0.01500
H 	H 	0.89950 0.23080 0.45670 0.00700
C 	C 	0.05090 0.45870 0.63530 0.00200
H 	H 	0.02860 0.53920 0.67480 0.01900
C 	C 	0.20120 0.41250 0.65290 -0.00300
H 	H 	0.27700 0.46190 0.70400 -0.01500
