data_crystal

_cell_length_a 12.15700
_cell_length_b 14.20200
_cell_length_c 13.06500
_cell_angle_alpha 90.00000
_cell_angle_beta  91.84800
_cell_angle_gamma 90.00000

_symmetry_space_group_name_	'P 1'
_symmetry_space_group_name_H-M	'P 1'

loop_
_symmetry_equiv_pos_as_xyz
  x,y,z

loop_
_atom_site_label
_atom_site_type_symbol
_atom_site_fract_x
_atom_site_fract_y
_atom_site_fract_z
_atom_site_charge
Ga	Ga	0.11264 0.77351 0.38530 2.09400
Ga	Ga	0.85502 0.87895 0.76319 2.09000
Ga	Ga	0.96265 0.73407 0.15808 2.09800
Ga	Ga	0.36466 0.86522 0.20668 2.09100
P 	P 	0.10976 0.57910 0.27150 0.65000
P 	P 	0.12192 0.90733 0.19360 0.64600
P 	P 	0.37279 0.78009 0.42586 0.65800
P 	P 	0.01615 0.79097 0.61160 0.68700
F 	F 	0.97310 0.76320 0.30600 -0.82200
F 	F 	0.78630 0.75930 0.72300 -0.89500
O 	O 	0.13690 0.88110 0.30830 -0.63100
O 	O 	0.23380 0.90200 0.14260 -0.58600
O 	O 	0.94410 0.86930 0.65130 -0.57500
O 	O 	0.03130 0.62110 0.18870 -0.58500
O 	O 	0.81840 0.76090 0.16890 -0.72500
H 	H 	0.78430 0.71220 0.17940 0.31600
O 	O 	0.06500 0.48450 0.30610 -0.53500
O 	O 	0.12550 0.64450 0.36440 -0.63000
O 	O 	0.25370 0.78080 0.45440 -0.59600
O 	O 	0.22230 0.56330 0.22350 -0.60600
O 	O 	0.04140 0.84350 0.13480 -0.56000
O 	O 	0.39680 0.85770 0.34610 -0.58200
O 	O 	0.44880 0.80090 0.51810 -0.52700
O 	O 	0.03410 0.80740 0.49870 -0.55900
O 	O 	0.40610 0.68230 0.38200 -0.58700
O 	O 	0.07730 0.00800 0.18400 -0.51500
O 	O 	0.96850 0.69340 0.62700 -0.61200
O 	O 	0.12540 0.80190 0.67650 -0.49600
H 	H 	0.16990 0.76240 0.65850 0.30000
Ga	Ga	0.38736 0.27351 0.11470 2.09300
Ga	Ga	0.64498 0.37895 0.73681 2.08900
Ga	Ga	0.53735 0.23407 0.34192 2.09800
Ga	Ga	0.13534 0.36522 0.29332 2.09000
P 	P 	0.39024 0.07910 0.22850 0.65000
P 	P 	0.37808 0.40733 0.30640 0.64700
P 	P 	0.12721 0.28009 0.07414 0.66100
P 	P 	0.48385 0.29097 0.88840 0.69000
F 	F 	0.52690 0.26320 0.19400 -0.82100
F 	F 	0.71370 0.25930 0.77700 -0.89500
O 	O 	0.36310 0.38110 0.19170 -0.63100
O 	O 	0.26620 0.40200 0.35740 -0.58600
O 	O 	0.55590 0.36930 0.84870 -0.57700
O 	O 	0.46870 0.12110 0.31130 -0.58700
O 	O 	0.68160 0.26090 0.33110 -0.72400
H 	H 	0.71570 0.21220 0.32060 0.31500
O 	O 	0.43500 0.98450 0.19390 -0.53700
O 	O 	0.37450 0.14450 0.13560 -0.63100
O 	O 	0.24630 0.28080 0.04560 -0.59600
O 	O 	0.27770 0.06330 0.27650 -0.60600
O 	O 	0.45860 0.34350 0.36520 -0.56100
O 	O 	0.10320 0.35770 0.15390 -0.58100
O 	O 	0.05120 0.30090 0.98190 -0.53200
O 	O 	0.46590 0.30740 0.00130 -0.56000
O 	O 	0.09390 0.18230 0.11800 -0.58600
O 	O 	0.42270 0.50800 0.31600 -0.51600
O 	O 	0.53150 0.19340 0.87300 -0.61400
O 	O 	0.37460 0.30190 0.82350 -0.49500
H 	H 	0.33010 0.26240 0.84150 0.29900
Ga	Ga	0.88736 0.22649 0.61470 2.09300
Ga	Ga	0.14498 0.12105 0.23681 2.08900
Ga	Ga	0.03735 0.26593 0.84192 2.09700
Ga	Ga	0.63534 0.13478 0.79332 2.09000
P 	P 	0.89024 0.42090 0.72850 0.65000
P 	P 	0.87808 0.09267 0.80640 0.64600
P 	P 	0.62721 0.21991 0.57414 0.65800
P 	P 	0.98385 0.20903 0.38840 0.68700
F 	F 	0.02690 0.23680 0.69400 -0.82200
F 	F 	0.21370 0.24070 0.27700 -0.89500
O 	O 	0.86310 0.11890 0.69170 -0.63100
O 	O 	0.76620 0.09800 0.85740 -0.58600
O 	O 	0.05590 0.13070 0.34870 -0.57500
O 	O 	0.96870 0.37890 0.81130 -0.58500
O 	O 	0.18160 0.23910 0.83110 -0.72500
H 	H 	0.21570 0.28780 0.82060 0.31600
O 	O 	0.93500 0.51550 0.69390 -0.53500
O 	O 	0.87450 0.35550 0.63560 -0.63000
O 	O 	0.74630 0.21920 0.54560 -0.59600
O 	O 	0.77770 0.43670 0.77650 -0.60600
O 	O 	0.95860 0.15650 0.86520 -0.56000
O 	O 	0.60320 0.14230 0.65390 -0.58200
O 	O 	0.55120 0.19910 0.48190 -0.52700
O 	O 	0.96590 0.19260 0.50130 -0.55900
O 	O 	0.59390 0.31770 0.61800 -0.58700
O 	O 	0.92270 0.99200 0.81600 -0.51500
O 	O 	0.03150 0.30660 0.37300 -0.61200
O 	O 	0.87460 0.19810 0.32350 -0.49600
H 	H 	0.83010 0.23760 0.34150 0.30000
Ga	Ga	0.61264 0.72649 0.88530 2.09300
Ga	Ga	0.35502 0.62105 0.26319 2.08900
Ga	Ga	0.46265 0.76593 0.65808 2.09800
Ga	Ga	0.86466 0.63478 0.70668 2.09000
P 	P 	0.60976 0.92090 0.77150 0.65000
P 	P 	0.62192 0.59267 0.69360 0.64700
P 	P 	0.87279 0.71991 0.92586 0.66100
P 	P 	0.51615 0.70903 0.11160 0.69000
F 	F 	0.47310 0.73680 0.80600 -0.82100
F 	F 	0.28630 0.74070 0.22300 -0.89500
O 	O 	0.63690 0.61890 0.80830 -0.63100
O 	O 	0.73380 0.59800 0.64260 -0.58600
O 	O 	0.44410 0.63070 0.15130 -0.57700
O 	O 	0.53130 0.87890 0.68870 -0.58700
O 	O 	0.31840 0.73910 0.66890 -0.72400
H 	H 	0.28430 0.78780 0.67940 0.31500
O 	O 	0.56500 0.01550 0.80610 -0.53700
O 	O 	0.62550 0.85550 0.86440 -0.63100
O 	O 	0.75370 0.71920 0.95440 -0.59600
O 	O 	0.72230 0.93670 0.72350 -0.60600
O 	O 	0.54140 0.65650 0.63480 -0.56100
O 	O 	0.89680 0.64230 0.84610 -0.58100
O 	O 	0.94880 0.69910 0.01810 -0.53200
O 	O 	0.53410 0.69260 0.99870 -0.56000
O 	O 	0.90610 0.81770 0.88200 -0.58600
O 	O 	0.57730 0.49200 0.68400 -0.51600
O 	O 	0.46850 0.80660 0.12700 -0.61400
O 	O 	0.62540 0.69810 0.17650 -0.49500
H 	H 	0.66990 0.73760 0.15850 0.29900
