data_crystal

_cell_length_a 9.26500
_cell_length_b 9.39700
_cell_length_c 9.23800
_cell_angle_alpha 94.36000
_cell_angle_beta  90.64000
_cell_angle_gamma 103.67000

_symmetry_space_group_name_	'P 1'
_symmetry_space_group_name_H-M	'P 1'

loop_
_symmetry_equiv_pos_as_xyz
  x,y,z

loop_
_atom_site_label
_atom_site_type_symbol
_atom_site_fract_x
_atom_site_fract_y
_atom_site_fract_z
_atom_site_charge
Ga	Ga	0.13908 0.08599 0.43565 2.10300
Ga	Ga	0.60890 0.34138 0.39230 2.08300
Ga	Ga	0.62500 0.92141 0.15717 2.07900
P 	P 	0.37722 0.09021 0.18526 0.74100
P 	P 	0.37956 0.32951 0.62664 0.69800
P 	P 	0.16776 0.85014 0.64341 0.63700
F 	F 	0.97990 0.90940 0.38750 -0.81300
O 	O 	0.43940 0.95310 0.17760 -0.69400
O 	O 	0.27120 0.26670 0.50230 -0.62500
O 	O 	0.53960 0.34620 0.57470 -0.69100
O 	O 	0.23140 0.91160 0.79750 -0.63200
O 	O 	0.21090 0.70250 0.60850 -0.60400
O 	O 	0.23670 0.95970 0.53610 -0.62600
O 	O 	0.22760 0.05970 0.25510 -0.55400
O 	O 	0.35730 0.24050 0.75870 -0.64100
O 	O 	0.99840 0.81180 0.64670 -0.49000
O 	O 	0.48770 0.21850 0.26220 -0.72300
O 	O 	0.35890 0.48120 0.68190 -0.61500
O 	O 	0.35430 0.13290 0.03200 -0.63200
Ga	Ga	0.86092 0.91401 0.56435 2.10200
Ga	Ga	0.39110 0.65862 0.60770 2.08200
Ga	Ga	0.37500 0.07859 0.84283 2.07900
P 	P 	0.62278 0.90979 0.81474 0.74100
P 	P 	0.62044 0.67049 0.37336 0.69800
P 	P 	0.83224 0.14986 0.35659 0.63700
F 	F 	0.02010 0.09060 0.61250 -0.81300
O 	O 	0.56060 0.04690 0.82240 -0.69400
O 	O 	0.72880 0.73330 0.49770 -0.62500
O 	O 	0.46040 0.65380 0.42530 -0.69100
O 	O 	0.76860 0.08840 0.20250 -0.63200
O 	O 	0.78910 0.29750 0.39150 -0.60400
O 	O 	0.76330 0.04030 0.46390 -0.62600
O 	O 	0.77240 0.94030 0.74490 -0.55400
O 	O 	0.64270 0.75950 0.24130 -0.64100
O 	O 	0.00160 0.18820 0.35330 -0.49000
O 	O 	0.51230 0.78150 0.73780 -0.72300
O 	O 	0.64110 0.51880 0.31810 -0.61500
O 	O 	0.64570 0.86710 0.96800 -0.63200
