data_crystal

_cell_length_a 8.58310
_cell_length_b 17.67700
_cell_length_c 10.43530
_cell_angle_alpha 90.00000
_cell_angle_beta  123.88700
_cell_angle_gamma 90.00000

_symmetry_space_group_name_	'P 1'
_symmetry_space_group_name_H-M	'P 1'

loop_
_symmetry_equiv_pos_as_xyz
  x,y,z

loop_
_atom_site_label
_atom_site_type_symbol
_atom_site_fract_x
_atom_site_fract_y
_atom_site_fract_z
_atom_site_charge
P 	P 	0.66527 0.70675 0.47353 0.78400
P 	P 	0.22987 0.83052 0.49618 0.75500
P 	P 	0.00952 0.57257 0.35790 0.81200
Al	Al	0.21090 0.70392 0.28720 2.39900
Al	Al	0.02270 0.60927 0.66156 2.39900
Al	Al	0.66660 0.67668 0.19142 2.39800
O 	O 	0.13330 0.79404 0.17960 -1.14900
H 	H 	0.14780 0.78530 0.10320 0.34800
O 	O 	0.19300 0.74898 0.43880 -0.74500
O 	O 	0.08380 0.58705 0.52600 -0.73300
O 	O 	0.43650 0.85060 0.57010 -0.79600
O 	O 	0.46150 0.69074 0.40700 -0.74300
O 	O 	0.78020 0.63652 0.55580 -0.71500
O 	O 	0.03080 0.49072 0.32880 -0.62400
O 	O 	0.80190 0.59525 0.25810 -0.79100
O 	O 	0.17990 0.84138 0.61310 -0.63700
O 	O 	0.69260 0.72865 0.34490 -0.78500
O 	O 	0.11920 0.61793 0.31020 -0.69600
O 	O 	0.11420 0.88606 0.36460 -0.67000
O 	O 	0.73560 0.77215 0.58900 -0.80600
P 	P 	0.33473 0.20675 0.02647 0.77200
P 	P 	0.77013 0.33052 0.00382 0.74700
P 	P 	0.99048 0.07257 0.14210 0.78700
Al	Al	0.78910 0.20392 0.21280 2.39800
Al	Al	0.97730 0.10927 0.83844 2.39800
Al	Al	0.33340 0.17668 0.30858 2.39700
O 	O 	0.86670 0.29404 0.32040 -1.14800
H 	H 	0.85220 0.28530 0.39680 0.34600
O 	O 	0.80700 0.24898 0.06120 -0.74700
O 	O 	0.91620 0.08705 0.97400 -0.73000
O 	O 	0.56350 0.35060 0.92990 -0.79300
O 	O 	0.53850 0.19074 0.09300 -0.74500
O 	O 	0.21980 0.13652 0.94420 -0.70700
O 	O 	0.96920 0.99072 0.17120 -0.60800
O 	O 	0.19810 0.09525 0.24190 -0.78600
O 	O 	0.82010 0.34138 0.88690 -0.63200
O 	O 	0.30740 0.22865 0.15510 -0.78600
O 	O 	0.88080 0.11793 0.18980 -0.69700
O 	O 	0.88580 0.38606 0.13540 -0.66600
O 	O 	0.26440 0.27215 0.91100 -0.80200
P 	P 	0.33473 0.29325 0.52647 0.78300
P 	P 	0.77013 0.16948 0.50382 0.75400
P 	P 	0.99048 0.42743 0.64210 0.81100
Al	Al	0.78910 0.29608 0.71280 2.39800
Al	Al	0.97730 0.39073 0.33844 2.39800
Al	Al	0.33340 0.32332 0.80858 2.39700
O 	O 	0.86670 0.20596 0.82040 -1.14900
H 	H 	0.85220 0.21470 0.89680 0.34800
O 	O 	0.80700 0.25102 0.56120 -0.74500
O 	O 	0.91620 0.41295 0.47400 -0.73300
O 	O 	0.56350 0.14940 0.42990 -0.79600
O 	O 	0.53850 0.30926 0.59300 -0.74300
O 	O 	0.21980 0.36348 0.44420 -0.71500
O 	O 	0.96920 0.50928 0.67120 -0.62400
O 	O 	0.19810 0.40475 0.74190 -0.79100
O 	O 	0.82010 0.15862 0.38690 -0.63700
O 	O 	0.30740 0.27135 0.65510 -0.78500
O 	O 	0.88080 0.38207 0.68980 -0.69600
O 	O 	0.88580 0.11394 0.63540 -0.67000
O 	O 	0.26440 0.22785 0.41100 -0.80600
P 	P 	0.66527 0.79325 0.97353 0.77200
P 	P 	0.22987 0.66948 0.99618 0.74700
P 	P 	0.00952 0.92743 0.85790 0.78700
Al	Al	0.21090 0.79608 0.78720 2.39800
Al	Al	0.02270 0.89073 0.16156 2.39800
Al	Al	0.66660 0.82332 0.69142 2.39700
O 	O 	0.13330 0.70596 0.67960 -1.14800
H 	H 	0.14780 0.71470 0.60320 0.34600
O 	O 	0.19300 0.75102 0.93880 -0.74700
O 	O 	0.08380 0.91295 0.02600 -0.73000
O 	O 	0.43650 0.64940 0.07010 -0.79300
O 	O 	0.46150 0.80926 0.90700 -0.74500
O 	O 	0.78020 0.86348 0.05580 -0.70700
O 	O 	0.03080 0.00928 0.82880 -0.60800
O 	O 	0.80190 0.90475 0.75810 -0.78600
O 	O 	0.17990 0.65862 0.11310 -0.63200
O 	O 	0.69260 0.77135 0.84490 -0.78600
O 	O 	0.11920 0.88207 0.81020 -0.69700
O 	O 	0.11420 0.61394 0.86460 -0.66600
O 	O 	0.73560 0.72785 0.08900 -0.80200
