data_crystal

_cell_length_a 15.51680
_cell_length_b 16.77900
_cell_length_c 18.73940
_cell_angle_alpha 94.14200
_cell_angle_beta  113.52700
_cell_angle_gamma 110.21500

_symmetry_space_group_name_	'P 1'
_symmetry_space_group_name_H-M	'P 1'

loop_
_symmetry_equiv_pos_as_xyz
  x,y,z

loop_
_atom_site_label
_atom_site_type_symbol
_atom_site_fract_x
_atom_site_fract_y
_atom_site_fract_z
_atom_site_charge
Zn	Zn	0.42982 0.41057 0.28820 1.24000
Zn	Zn	0.19115 0.87693 0.46624 1.15700
Zn	Zn	0.00845 0.80840 0.27560 1.23600
S 	S 	0.26838 0.13098 0.31983 0.08200
S 	S 	0.76722 0.62936 0.35886 0.10200
S 	S 	0.29331 0.65218 0.38312 0.07900
S 	S 	0.74845 0.72240 0.99591 0.09800
O 	O 	0.10950 0.91830 0.36370 -0.60200
O 	O 	0.12590 0.94250 0.25490 -0.33000
O 	O 	0.39370 0.37080 0.44240 -0.44800
O 	O 	0.39470 0.31050 0.33230 -0.48000
O 	O 	0.60240 0.49540 0.45460 -0.43900
O 	O 	0.56820 0.50210 0.32790 -0.46800
O 	O 	0.93330 0.74570 0.33360 -0.47300
O 	O 	0.05630 0.78680 0.45810 -0.52200
O 	O 	0.90560 0.77120 0.16250 -0.43100
O 	O 	0.86710 0.86770 0.20990 -0.33400
O 	O 	0.62690 0.63970 0.82510 -0.44500
O 	O 	0.50850 0.69240 0.80010 -0.29600
O 	O 	0.42190 0.55150 0.40950 -0.46100
O 	O 	0.33900 0.46930 0.28570 -0.47500
O 	O 	0.20890 0.78420 0.39800 -0.50700
O 	O 	0.08700 0.74020 0.27030 -0.47900
C 	C 	0.16750 0.62260 0.24030 -0.00200
H 	H 	0.11660 0.62410 0.19310 0.05000
C 	C 	0.21790 0.56590 0.24420 0.00400
H 	H 	0.20340 0.52590 0.19960 0.04800
C 	C 	0.68890 0.81940 0.05310 -0.00500
H 	H 	0.68270 0.85650 0.08840 0.04500
C 	C 	0.76530 0.79070 0.07490 -0.09800
C 	C 	0.63920 0.73100 0.93090 -0.09400
C 	C 	0.62090 0.78660 0.97150 -0.00700
H 	H 	0.56620 0.80240 0.94690 0.04700
C 	C 	0.85210 0.81290 0.15560 0.37000
C 	C 	0.80920 0.62740 0.50200 -0.02100
H 	H 	0.80430 0.61520 0.54820 0.05500
C 	C 	0.20120 0.67320 0.31140 -0.11500
C 	C 	0.28770 0.57550 0.31780 -0.12000
C 	C 	0.58660 0.68360 0.84460 0.36400
C 	C 	0.14410 0.96890 0.32580 0.33800
C 	C 	0.22080 0.10830 0.43360 -0.00500
H 	H 	0.19320 0.08200 0.46610 0.00200
C 	C 	0.89900 0.68600 0.50220 0.02800
H 	H 	0.95990 0.71700 0.54890 0.02600
C 	C 	0.35700 0.52870 0.34080 0.44000
C 	C 	0.20840 0.06420 0.36560 -0.12900
C 	C 	0.62430 0.52540 0.40130 0.38800
C 	C 	0.88930 0.69330 0.42940 -0.15100
C 	C 	0.16040 0.73810 0.32820 0.42600
C 	C 	0.37330 0.30930 0.39000 0.41500
C 	C 	0.73100 0.59100 0.42790 -0.10200
C 	C 	0.96620 0.74650 0.40700 0.45000
C 	C 	0.31130 0.21960 0.39460 -0.10600
C 	C 	0.27930 0.19800 0.45090 -0.01700
H 	H 	0.29470 0.23820 0.49570 0.04600
Zn	Zn	0.57018 0.58943 0.71180 1.24100
Zn	Zn	0.80885 0.12307 0.53376 1.15800
Zn	Zn	0.99155 0.19160 0.72440 1.23700
S 	S 	0.73162 0.86902 0.68017 0.08200
S 	S 	0.23278 0.37064 0.64114 0.10200
S 	S 	0.70669 0.34782 0.61688 0.07900
S 	S 	0.25155 0.27760 0.00409 0.09800
O 	O 	0.89050 0.08170 0.63630 -0.60200
O 	O 	0.87410 0.05750 0.74510 -0.33000
O 	O 	0.60630 0.62920 0.55760 -0.44800
O 	O 	0.60530 0.68950 0.66770 -0.48000
O 	O 	0.39760 0.50460 0.54540 -0.43900
O 	O 	0.43180 0.49790 0.67210 -0.46800
O 	O 	0.06670 0.25430 0.66640 -0.47300
O 	O 	0.94370 0.21320 0.54190 -0.52200
O 	O 	0.09440 0.22880 0.83750 -0.43100
O 	O 	0.13290 0.13230 0.79010 -0.33400
O 	O 	0.37310 0.36030 0.17490 -0.44500
O 	O 	0.49150 0.30760 0.19990 -0.29600
O 	O 	0.57810 0.44850 0.59050 -0.46100
O 	O 	0.66100 0.53070 0.71430 -0.47500
O 	O 	0.79110 0.21580 0.60200 -0.50700
O 	O 	0.91300 0.25980 0.72970 -0.47900
C 	C 	0.83250 0.37740 0.75970 -0.00200
H 	H 	0.88340 0.37590 0.80690 0.05000
C 	C 	0.78210 0.43410 0.75580 0.00400
H 	H 	0.79660 0.47410 0.80040 0.04800
C 	C 	0.31110 0.18060 0.94690 -0.00500
H 	H 	0.31730 0.14350 0.91160 0.04500
C 	C 	0.23470 0.20930 0.92510 -0.09800
C 	C 	0.36080 0.26900 0.06910 -0.09400
C 	C 	0.37910 0.21340 0.02850 -0.00700
H 	H 	0.43380 0.19760 0.05310 0.04700
C 	C 	0.14790 0.18710 0.84440 0.37000
C 	C 	0.19080 0.37260 0.49800 -0.02100
H 	H 	0.19570 0.38480 0.45180 0.05500
C 	C 	0.79880 0.32680 0.68860 -0.11500
C 	C 	0.71230 0.42450 0.68220 -0.12000
C 	C 	0.41340 0.31640 0.15540 0.36400
C 	C 	0.85590 0.03110 0.67420 0.33800
C 	C 	0.77920 0.89170 0.56640 -0.00500
H 	H 	0.80680 0.91800 0.53390 0.00200
C 	C 	0.10100 0.31400 0.49780 0.02800
H 	H 	0.04010 0.28300 0.45110 0.02600
C 	C 	0.64300 0.47130 0.65920 0.44000
C 	C 	0.79160 0.93580 0.63440 -0.12900
C 	C 	0.37570 0.47460 0.59870 0.38800
C 	C 	0.11070 0.30670 0.57060 -0.15100
C 	C 	0.83960 0.26190 0.67180 0.42600
C 	C 	0.62670 0.69070 0.61000 0.41500
C 	C 	0.26900 0.40900 0.57210 -0.10200
C 	C 	0.03380 0.25350 0.59300 0.45000
C 	C 	0.68870 0.78040 0.60540 -0.10600
C 	C 	0.72070 0.80200 0.54910 -0.01700
H 	H 	0.70530 0.76180 0.50430 0.04600
Zn	Zn	0.50000 0.50000 0.50000 1.24900
