data_crystal

_cell_length_a 9.72100
_cell_length_b 10.98040
_cell_length_c 11.47900
_cell_angle_alpha 97.96600
_cell_angle_beta  96.21200
_cell_angle_gamma 98.24400

_symmetry_space_group_name_	'P 1'
_symmetry_space_group_name_H-M	'P 1'

loop_
_symmetry_equiv_pos_as_xyz
  x,y,z

loop_
_atom_site_label
_atom_site_type_symbol
_atom_site_fract_x
_atom_site_fract_y
_atom_site_fract_z
_atom_site_charge
Co	Co	0.40233 0.11669 0.88896 1.17300
O 	O 	0.51750 0.98740 0.83800 -0.48900
O 	O 	0.56590 0.83330 0.93280 -0.47600
O 	O 	0.27400 0.25940 0.86160 -0.39600
O 	O 	0.31580 0.13820 0.70910 -0.38300
C 	C 	0.53620 0.87810 0.84130 0.48300
C 	C 	0.52550 0.79600 0.72410 -0.31100
H 	H 	0.51770 0.83210 0.65560 0.14700
C 	C 	0.52650 0.67780 0.71340 0.08600
H 	H 	0.53720 0.64510 0.78370 0.01100
C 	C 	0.51290 0.58810 0.60270 -0.02000
C 	C 	0.50530 0.62430 0.49180 -0.04300
H 	H 	0.50900 0.70820 0.48540 0.04700
C 	C 	0.50760 0.46260 0.60960 -0.04900
H 	H 	0.51280 0.43650 0.68340 0.05200
C 	C 	0.26070 0.22600 0.75290 0.32800
C 	C 	0.19500 0.32400 0.69800 -0.09600
H 	H 	0.20510 0.40430 0.74030 -0.12200
C 	C 	0.12000 0.29340 0.60020 0.08700
H 	H 	0.10210 0.21270 0.55830 0.09600
C 	C 	0.05380 0.39190 0.54210 -0.14500
C 	C 	0.94310 0.33280 0.45690 -0.35900
H 	H 	0.91540 0.24700 0.44890 0.10300
C 	C 	0.87400 0.40170 0.38370 -0.35100
H 	H 	0.79990 0.36220 0.32670 0.10700
C 	C 	0.91550 0.52980 0.39570 -0.12600
C 	C 	0.02620 0.58900 0.48090 0.15800
H 	H 	0.05390 0.67470 0.48900 0.19500
C 	C 	0.09530 0.52000 0.55420 0.14200
H 	H 	0.16940 0.55960 0.61120 0.19600
C 	C 	0.84210 0.60350 0.32110 0.04900
H 	H 	0.80160 0.56450 0.24550 0.15300
C 	C 	0.82800 0.71840 0.34400 -0.02400
H 	H 	0.86490 0.76270 0.41800 -0.10300
N 	N 	0.57890 0.25790 0.87940 -0.23900
C 	C 	0.66510 0.24860 0.79720 0.12200
H 	H 	0.65370 0.17460 0.74420 -0.01400
C 	C 	0.76920 0.34210 0.78680 -0.21800
H 	H 	0.82600 0.33100 0.72730 0.09800
C 	C 	0.79130 0.45370 0.86430 0.16200
C 	C 	0.70060 0.46330 0.94800 -0.22600
H 	H 	0.70840 0.53650 0.00150 0.12000
C 	C 	0.59860 0.36450 0.95220 0.12300
H 	H 	0.53950 0.37330 0.01030 -0.01000
C 	C 	0.90540 0.55870 0.85550 -0.18000
H 	H 	0.98840 0.55010 0.90670 0.07900
H 	H 	0.92780 0.54870 0.77480 0.08800
C 	C 	0.87780 0.68090 0.88480 -0.16600
H 	H 	0.85000 0.68960 0.96380 0.08800
H 	H 	0.79850 0.69150 0.83040 0.08600
N 	N 	0.22390 0.97600 0.88940 -0.24000
C 	C 	0.99560 0.78450 0.88240 0.13300
C 	C 	0.06860 0.79980 0.78560 -0.16700
H 	H 	0.03750 0.74850 0.71330 0.11100
C 	C 	0.18560 0.88950 0.79540 0.08000
H 	H 	0.23950 0.88900 0.73320 -0.00500
C 	C 	0.17180 0.95370 0.99000 0.05900
H 	H 	0.21030 0.00400 0.06130 0.00600
C 	C 	0.06220 0.85780 0.98990 -0.17900
H 	H 	0.03220 0.84160 0.06120 0.08500
C 	C 	0.98210 0.87680 0.80950 -0.06400
H 	H 	0.89680 0.88010 0.76570 0.05000
C 	C 	0.10130 0.96820 0.81370 0.02300
H 	H 	0.09520 0.02830 0.76450 0.01100
C 	C 	0.21490 0.89720 0.95610 0.03700
H 	H 	0.29350 0.90100 0.01120 -0.01200
C 	C 	0.11030 0.80180 0.95510 0.01300
H 	H 	0.12320 0.74410 0.00580 0.02600
Co	Co	0.59767 0.88331 0.11104 1.17300
O 	O 	0.48250 0.01260 0.16200 -0.48900
O 	O 	0.43410 0.16670 0.06720 -0.47600
O 	O 	0.72600 0.74060 0.13840 -0.39600
O 	O 	0.68420 0.86180 0.29090 -0.38300
C 	C 	0.46380 0.12190 0.15870 0.48300
C 	C 	0.47450 0.20400 0.27590 -0.31100
H 	H 	0.48230 0.16790 0.34440 0.14700
C 	C 	0.47350 0.32220 0.28660 0.08600
H 	H 	0.46280 0.35490 0.21630 0.01100
C 	C 	0.48710 0.41190 0.39730 -0.02000
C 	C 	0.49470 0.37570 0.50820 -0.04300
H 	H 	0.49100 0.29180 0.51460 0.04700
C 	C 	0.49240 0.53740 0.39040 -0.04900
H 	H 	0.48720 0.56350 0.31660 0.05200
C 	C 	0.73930 0.77400 0.24710 0.32800
C 	C 	0.80500 0.67600 0.30200 -0.09600
H 	H 	0.79490 0.59570 0.25970 -0.12200
C 	C 	0.88000 0.70660 0.39980 0.08700
H 	H 	0.89790 0.78730 0.44170 0.09600
C 	C 	0.94620 0.60810 0.45790 -0.14500
C 	C 	0.05690 0.66720 0.54310 -0.35900
H 	H 	0.08460 0.75300 0.55110 0.10300
C 	C 	0.12600 0.59830 0.61630 -0.35100
H 	H 	0.20010 0.63780 0.67330 0.10700
C 	C 	0.08450 0.47020 0.60430 -0.12600
C 	C 	0.97380 0.41100 0.51910 0.15800
H 	H 	0.94610 0.32530 0.51100 0.19500
C 	C 	0.90470 0.48000 0.44580 0.14200
H 	H 	0.83060 0.44040 0.38880 0.19600
C 	C 	0.15790 0.39650 0.67890 0.04900
H 	H 	0.19840 0.43550 0.75450 0.15300
C 	C 	0.17200 0.28160 0.65600 -0.02400
H 	H 	0.13510 0.23730 0.58200 -0.10300
N 	N 	0.42110 0.74210 0.12060 -0.23900
C 	C 	0.33490 0.75140 0.20280 0.12200
H 	H 	0.34630 0.82540 0.25580 -0.01400
C 	C 	0.23080 0.65790 0.21320 -0.21800
H 	H 	0.17400 0.66900 0.27270 0.09800
C 	C 	0.20870 0.54630 0.13570 0.16200
C 	C 	0.29940 0.53670 0.05200 -0.22600
H 	H 	0.29160 0.46350 0.99850 0.12000
C 	C 	0.40140 0.63550 0.04780 0.12300
H 	H 	0.46050 0.62670 0.98970 -0.01000
C 	C 	0.09460 0.44130 0.14450 -0.18000
H 	H 	0.01160 0.44990 0.09330 0.07900
H 	H 	0.07220 0.45130 0.22520 0.08800
C 	C 	0.12220 0.31910 0.11520 -0.16600
H 	H 	0.15000 0.31040 0.03620 0.08800
H 	H 	0.20150 0.30850 0.16960 0.08600
N 	N 	0.77610 0.02400 0.11060 -0.24000
C 	C 	0.00440 0.21550 0.11760 0.13300
C 	C 	0.93140 0.20020 0.21440 -0.16700
H 	H 	0.96250 0.25150 0.28670 0.11100
C 	C 	0.81440 0.11050 0.20460 0.08000
H 	H 	0.76050 0.11100 0.26680 -0.00500
C 	C 	0.82820 0.04630 0.01000 0.05900
H 	H 	0.78970 0.99600 0.93870 0.00600
C 	C 	0.93780 0.14220 0.01010 -0.17900
H 	H 	0.96780 0.15840 0.93880 0.08500
C 	C 	0.01790 0.12320 0.19050 -0.06400
H 	H 	0.10320 0.11990 0.23430 0.05000
C 	C 	0.89870 0.03180 0.18630 0.02300
H 	H 	0.90480 0.97170 0.23550 0.01100
C 	C 	0.78510 0.10280 0.04390 0.03700
H 	H 	0.70650 0.09900 0.98880 -0.01200
C 	C 	0.88970 0.19820 0.04490 0.01300
H 	H 	0.87680 0.25590 0.99420 0.02600
