data_crystal

_cell_length_a 7.81730
_cell_length_b 9.31570
_cell_length_c 18.56400
_cell_angle_alpha 95.83400
_cell_angle_beta  96.04900
_cell_angle_gamma 92.50700

_symmetry_space_group_name_	'P 1'
_symmetry_space_group_name_H-M	'P 1'

loop_
_symmetry_equiv_pos_as_xyz
  x,y,z

loop_
_atom_site_label
_atom_site_type_symbol
_atom_site_fract_x
_atom_site_fract_y
_atom_site_fract_z
_atom_site_charge
C 	C 	0.23170 0.62990 0.25550 -0.01500
H 	H 	0.20120 0.53370 0.25980 0.05400
C 	C 	0.22900 0.82430 0.19150 0.00600
H 	H 	0.19960 0.86580 0.14870 0.04000
C 	C 	0.31350 0.90840 0.25010 0.00800
H 	H 	0.33850 0.00570 0.24640 0.03000
C 	C 	0.32380 0.71440 0.31480 0.06900
C 	C 	0.48060 0.48290 0.36320 0.07400
C 	C 	0.46020 0.35580 0.39410 -0.03300
H 	H 	0.39210 0.35320 0.43210 0.05300
C 	C 	0.63020 0.24410 0.31550 -0.03100
H 	H 	0.68260 0.16230 0.29750 0.04300
C 	C 	0.65190 0.37240 0.28450 0.06100
C 	C 	0.68320 0.48790 0.15700 0.07400
C 	C 	0.50840 0.46590 0.13560 -0.01800
H 	H 	0.44720 0.39200 0.15360 0.05200
C 	C 	0.51790 0.64830 0.06560 0.01400
H 	H 	0.46320 0.70990 0.03530 0.03900
C 	C 	0.69210 0.66670 0.08290 0.01000
H 	H 	0.75340 0.73730 0.06260 0.04100
C 	C 	0.81480 0.86980 0.48400 0.42900
C 	C 	0.98990 0.80410 0.47760 -0.44100
H 	H 	0.02270 0.81420 0.42930 0.16900
H 	H 	0.07570 0.85860 0.51260 0.16200
C 	C 	0.99190 0.64700 0.49030 0.16500
C 	C 	0.03290 0.60470 0.55810 -0.10800
H 	H 	0.05660 0.67420 0.59790 0.07800
C 	C 	0.03990 0.45960 0.56830 -0.10300
H 	H 	0.06610 0.43320 0.61500 0.07900
N 	N 	0.18710 0.68410 0.19360 -0.08900
N 	N 	0.36180 0.85380 0.31350 -0.15100
N 	N 	0.57930 0.49330 0.30840 -0.12000
N 	N 	0.53500 0.23630 0.37110 -0.13200
N 	N 	0.42490 0.54740 0.09010 -0.09200
O 	O 	0.73440 0.90440 0.42770 -0.37700
O 	O 	0.76620 0.88820 0.54610 -0.37600
S 	S 	0.38460 0.64030 0.39785 -0.07100
S 	S 	0.79480 0.37790 0.21696 -0.02900
Ag	Ag	0.47886 0.00928 0.42336 0.54300
N 	N 	0.77660 0.58430 0.12890 -0.10600
C 	C 	0.76830 0.37010 0.74450 -0.01600
H 	H 	0.79880 0.46630 0.74020 0.05300
C 	C 	0.77100 0.17570 0.80850 0.00600
H 	H 	0.80040 0.13420 0.85130 0.04000
C 	C 	0.68650 0.09160 0.74990 0.00800
H 	H 	0.66150 0.99430 0.75360 0.03000
C 	C 	0.67620 0.28560 0.68520 0.06900
C 	C 	0.51940 0.51710 0.63680 0.07400
C 	C 	0.53980 0.64420 0.60590 -0.03300
H 	H 	0.60790 0.64680 0.56790 0.05300
C 	C 	0.36980 0.75590 0.68450 -0.03100
H 	H 	0.31740 0.83770 0.70250 0.04300
C 	C 	0.34810 0.62760 0.71550 0.06100
C 	C 	0.31680 0.51210 0.84300 0.07400
C 	C 	0.49160 0.53410 0.86440 -0.01800
H 	H 	0.55280 0.60800 0.84640 0.05200
C 	C 	0.48210 0.35170 0.93440 0.01400
H 	H 	0.53680 0.29010 0.96470 0.03900
C 	C 	0.30790 0.33330 0.91710 0.01000
H 	H 	0.24660 0.26270 0.93740 0.04100
C 	C 	0.18520 0.13020 0.51600 0.42900
C 	C 	0.01010 0.19590 0.52240 -0.44100
H 	H 	0.97730 0.18580 0.57070 0.16900
H 	H 	0.92430 0.14140 0.48740 0.16200
C 	C 	0.00810 0.35300 0.50970 0.16500
C 	C 	0.96710 0.39530 0.44190 -0.10800
H 	H 	0.94340 0.32580 0.40210 0.07800
C 	C 	0.96010 0.54040 0.43170 -0.10300
H 	H 	0.93390 0.56680 0.38500 0.07900
N 	N 	0.81290 0.31590 0.80640 -0.08900
N 	N 	0.63820 0.14620 0.68650 -0.15100
N 	N 	0.42070 0.50670 0.69160 -0.12000
N 	N 	0.46500 0.76370 0.62890 -0.13200
N 	N 	0.57510 0.45260 0.90990 -0.09200
O 	O 	0.26560 0.09560 0.57230 -0.37700
O 	O 	0.23380 0.11180 0.45390 -0.37600
S 	S 	0.61540 0.35970 0.60215 -0.07100
S 	S 	0.20520 0.62210 0.78304 -0.02900
Ag	Ag	0.52114 0.99072 0.57664 0.54300
N 	N 	0.22340 0.41570 0.87110 -0.10600
