data_crystal

_cell_length_a 24.40800
_cell_length_b 27.82700
_cell_length_c 5.15090
_cell_angle_alpha 90.00000
_cell_angle_beta  90.00000
_cell_angle_gamma 90.00000

_symmetry_space_group_name_	'P 1'
_symmetry_space_group_name_H-M	'P 1'

loop_
_symmetry_equiv_pos_as_xyz
  x,y,z

loop_
_atom_site_label
_atom_site_type_symbol
_atom_site_fract_x
_atom_site_fract_y
_atom_site_fract_z
_atom_site_charge
Zn	Zn	0.46491 0.45070 0.28711 1.22800
P 	P 	0.58125 0.50163 0.22400 0.47500
P 	P 	0.41671 0.35413 0.07680 0.49500
O 	O 	0.57957 0.50970 0.93600 -0.48400
O 	O 	0.54170 0.46270 0.31870 -0.50400
O 	O 	0.56970 0.54847 0.37220 -0.49300
O 	O 	0.46338 0.38250 0.19910 -0.48600
O 	O 	0.41590 0.36300 0.77570 -0.47900
H 	H 	0.41360 0.39260 0.74620 0.26600
O 	O 	0.42110 0.30120 0.10510 -0.48400
C 	C 	0.64790 0.48020 0.31420 -0.31700
H 	H 	0.64900 0.47750 0.50580 0.11300
H 	H 	0.65230 0.44740 0.24290 0.10800
C 	C 	0.30180 0.35390 0.07120 0.11600
H 	H 	0.30170 0.36140 0.88320 -0.00400
H 	H 	0.30310 0.31860 0.09080 -0.00400
C 	C 	0.35240 0.37590 0.19570 -0.35800
H 	H 	0.35080 0.36990 0.38500 0.13200
H 	H 	0.35120 0.41110 0.16940 0.11300
C 	C 	0.69680 0.50980 0.22940 0.08400
H 	H 	0.69710 0.51220 0.03760 -0.00400
H 	H 	0.69340 0.54280 0.30030 -0.00200
Zn	Zn	0.03509 0.04930 0.28711 1.22800
P 	P 	0.91875 0.99837 0.22400 0.47300
P 	P 	0.08329 0.14587 0.07680 0.49500
O 	O 	0.92043 0.99030 0.93600 -0.48400
O 	O 	0.95830 0.03730 0.31870 -0.50200
O 	O 	0.93030 0.95153 0.37220 -0.49300
O 	O 	0.03662 0.11750 0.19910 -0.48600
O 	O 	0.08410 0.13700 0.77570 -0.47800
H 	H 	0.08640 0.10740 0.74620 0.26500
O 	O 	0.07890 0.19880 0.10510 -0.48400
C 	C 	0.85210 0.01980 0.31420 -0.31200
H 	H 	0.85100 0.02250 0.50580 0.11200
H 	H 	0.84770 0.05260 0.24290 0.10700
C 	C 	0.19820 0.14610 0.07120 0.11600
H 	H 	0.19830 0.13860 0.88320 -0.00400
H 	H 	0.19690 0.18140 0.09080 -0.00400
C 	C 	0.14760 0.12410 0.19570 -0.35800
H 	H 	0.14920 0.13010 0.38500 0.13200
H 	H 	0.14880 0.08890 0.16940 0.11300
C 	C 	0.80320 0.99020 0.22940 0.07800
H 	H 	0.80290 0.98780 0.03760 -0.00300
H 	H 	0.80660 0.95720 0.30030 -0.00000
Zn	Zn	0.53509 0.95070 0.71289 1.22800
P 	P 	0.41875 0.00163 0.77600 0.47400
P 	P 	0.58329 0.85413 0.92320 0.49500
O 	O 	0.42043 0.00970 0.06400 -0.48400
O 	O 	0.45830 0.96270 0.68130 -0.50400
O 	O 	0.43030 0.04847 0.62780 -0.49300
O 	O 	0.53662 0.88250 0.80090 -0.48600
O 	O 	0.58410 0.86300 0.22430 -0.47900
H 	H 	0.58640 0.89260 0.25380 0.26500
O 	O 	0.57890 0.80120 0.89490 -0.48400
C 	C 	0.35210 0.98020 0.68580 -0.31400
H 	H 	0.35100 0.97750 0.49420 0.11200
H 	H 	0.34770 0.94740 0.75710 0.10700
C 	C 	0.69820 0.85390 0.92880 0.11600
H 	H 	0.69830 0.86140 0.11680 -0.00400
H 	H 	0.69690 0.81860 0.90920 -0.00400
C 	C 	0.64760 0.87590 0.80430 -0.35800
H 	H 	0.64920 0.86990 0.61500 0.13200
H 	H 	0.64880 0.91110 0.83060 0.11300
C 	C 	0.30320 0.00980 0.77060 0.07900
H 	H 	0.30290 0.01220 0.96240 -0.00300
H 	H 	0.30660 0.04280 0.69970 -0.00100
Zn	Zn	0.96491 0.54930 0.71289 1.22800
P 	P 	0.08125 0.49837 0.77600 0.47500
P 	P 	0.91671 0.64587 0.92320 0.49500
O 	O 	0.07957 0.49030 0.06400 -0.48400
O 	O 	0.04170 0.53730 0.68130 -0.50400
O 	O 	0.06970 0.45153 0.62780 -0.49300
O 	O 	0.96338 0.61750 0.80090 -0.48600
O 	O 	0.91590 0.63700 0.22430 -0.47800
H 	H 	0.91360 0.60740 0.25380 0.26600
O 	O 	0.92110 0.69880 0.89490 -0.48400
C 	C 	0.14790 0.51980 0.68580 -0.31700
H 	H 	0.14900 0.52250 0.49420 0.11300
H 	H 	0.15230 0.55260 0.75710 0.10800
C 	C 	0.80180 0.64610 0.92880 0.11600
H 	H 	0.80170 0.63860 0.11680 -0.00400
H 	H 	0.80310 0.68140 0.90920 -0.00400
C 	C 	0.85240 0.62410 0.80430 -0.35800
H 	H 	0.85080 0.63010 0.61500 0.13200
H 	H 	0.85120 0.58890 0.83060 0.11300
C 	C 	0.19680 0.49020 0.77060 0.08400
H 	H 	0.19710 0.48780 0.96240 -0.00400
H 	H 	0.19340 0.45720 0.69970 -0.00200
Zn	Zn	0.53509 0.54930 0.71289 1.22800
P 	P 	0.41875 0.49837 0.77600 0.47500
P 	P 	0.58329 0.64587 0.92320 0.49500
O 	O 	0.42043 0.49030 0.06400 -0.48400
O 	O 	0.45830 0.53730 0.68130 -0.50400
O 	O 	0.43030 0.45153 0.62780 -0.49300
O 	O 	0.53662 0.61750 0.80090 -0.48600
O 	O 	0.58410 0.63700 0.22430 -0.47900
H 	H 	0.58640 0.60740 0.25380 0.26600
O 	O 	0.57890 0.69880 0.89490 -0.48400
C 	C 	0.35210 0.51980 0.68580 -0.31700
H 	H 	0.35100 0.52250 0.49420 0.11300
H 	H 	0.34770 0.55260 0.75710 0.10800
C 	C 	0.69820 0.64610 0.92880 0.11600
H 	H 	0.69830 0.63860 0.11680 -0.00400
H 	H 	0.69690 0.68140 0.90920 -0.00400
C 	C 	0.64760 0.62410 0.80430 -0.35800
H 	H 	0.64920 0.63010 0.61500 0.13200
H 	H 	0.64880 0.58890 0.83060 0.11300
C 	C 	0.30320 0.49020 0.77060 0.08400
H 	H 	0.30290 0.48780 0.96240 -0.00400
H 	H 	0.30660 0.45720 0.69970 -0.00200
Zn	Zn	0.96491 0.95070 0.71289 1.22800
P 	P 	0.08125 0.00163 0.77600 0.47300
P 	P 	0.91671 0.85413 0.92320 0.49500
O 	O 	0.07957 0.00970 0.06400 -0.48400
O 	O 	0.04170 0.96270 0.68130 -0.50200
O 	O 	0.06970 0.04847 0.62780 -0.49300
O 	O 	0.96338 0.88250 0.80090 -0.48600
O 	O 	0.91590 0.86300 0.22430 -0.47800
H 	H 	0.91360 0.89260 0.25380 0.26500
O 	O 	0.92110 0.80120 0.89490 -0.48400
C 	C 	0.14790 0.98020 0.68580 -0.31200
H 	H 	0.14900 0.97750 0.49420 0.11200
H 	H 	0.15230 0.94740 0.75710 0.10700
C 	C 	0.80180 0.85390 0.92880 0.11600
H 	H 	0.80170 0.86140 0.11680 -0.00400
H 	H 	0.80310 0.81860 0.90920 -0.00400
C 	C 	0.85240 0.87590 0.80430 -0.35800
H 	H 	0.85080 0.86990 0.61500 0.13200
H 	H 	0.85120 0.91110 0.83060 0.11300
C 	C 	0.19680 0.00980 0.77060 0.07800
H 	H 	0.19710 0.01220 0.96240 -0.00300
H 	H 	0.19340 0.04280 0.69970 -0.00000
Zn	Zn	0.46491 0.04930 0.28711 1.22800
P 	P 	0.58125 0.99837 0.22400 0.47400
P 	P 	0.41671 0.14587 0.07680 0.49500
O 	O 	0.57957 0.99030 0.93600 -0.48400
O 	O 	0.54170 0.03730 0.31870 -0.50400
O 	O 	0.56970 0.95153 0.37220 -0.49300
O 	O 	0.46338 0.11750 0.19910 -0.48600
O 	O 	0.41590 0.13700 0.77570 -0.47900
H 	H 	0.41360 0.10740 0.74620 0.26500
O 	O 	0.42110 0.19880 0.10510 -0.48400
C 	C 	0.64790 0.01980 0.31420 -0.31400
H 	H 	0.64900 0.02250 0.50580 0.11200
H 	H 	0.65230 0.05260 0.24290 0.10700
C 	C 	0.30180 0.14610 0.07120 0.11600
H 	H 	0.30170 0.13860 0.88320 -0.00400
H 	H 	0.30310 0.18140 0.09080 -0.00400
C 	C 	0.35240 0.12410 0.19570 -0.35800
H 	H 	0.35080 0.13010 0.38500 0.13200
H 	H 	0.35120 0.08890 0.16940 0.11300
C 	C 	0.69680 0.99020 0.22940 0.07900
H 	H 	0.69710 0.98780 0.03760 -0.00300
H 	H 	0.69340 0.95720 0.30030 -0.00100
Zn	Zn	0.03509 0.45070 0.28711 1.22800
P 	P 	0.91875 0.50163 0.22400 0.47500
P 	P 	0.08329 0.35413 0.07680 0.49500
O 	O 	0.92043 0.50970 0.93600 -0.48400
O 	O 	0.95830 0.46270 0.31870 -0.50400
O 	O 	0.93030 0.54847 0.37220 -0.49300
O 	O 	0.03662 0.38250 0.19910 -0.48600
O 	O 	0.08410 0.36300 0.77570 -0.47800
H 	H 	0.08640 0.39260 0.74620 0.26600
O 	O 	0.07890 0.30120 0.10510 -0.48400
C 	C 	0.85210 0.48020 0.31420 -0.31700
H 	H 	0.85100 0.47750 0.50580 0.11300
H 	H 	0.84770 0.44740 0.24290 0.10800
C 	C 	0.19820 0.35390 0.07120 0.11600
H 	H 	0.19830 0.36140 0.88320 -0.00400
H 	H 	0.19690 0.31860 0.09080 -0.00400
C 	C 	0.14760 0.37590 0.19570 -0.35800
H 	H 	0.14920 0.36990 0.38500 0.13200
H 	H 	0.14880 0.41110 0.16940 0.11300
C 	C 	0.80320 0.50980 0.22940 0.08400
H 	H 	0.80290 0.51220 0.03760 -0.00400
H 	H 	0.80660 0.54280 0.30030 -0.00200
Zn	Zn	0.46138 0.25000 0.30610 1.13100
Zn	Zn	0.03862 0.25000 0.30610 1.13100
Zn	Zn	0.53862 0.75000 0.69390 1.13100
Zn	Zn	0.96138 0.75000 0.69390 1.13100
C 	C 	0.75000 0.48790 0.32100 -0.24100
H 	H 	0.75000 0.45370 0.26870 0.07700
H 	H 	0.75000 0.48870 0.51320 0.08400
C 	C 	0.75000 0.01210 0.32100 -0.23500
H 	H 	0.75000 0.04630 0.26870 0.07500
H 	H 	0.75000 0.01130 0.51320 0.08300
C 	C 	0.25000 0.98790 0.67900 -0.23500
H 	H 	0.25000 0.95370 0.73130 0.07500
H 	H 	0.25000 0.98870 0.48680 0.08300
C 	C 	0.25000 0.51210 0.67900 -0.24100
H 	H 	0.25000 0.54630 0.73130 0.07700
H 	H 	0.25000 0.51130 0.48680 0.08400
C 	C 	0.25000 0.37260 0.19100 -0.27800
H 	H 	0.25000 0.40810 0.17860 0.10100
H 	H 	0.25000 0.36410 0.37780 0.10400
C 	C 	0.25000 0.12740 0.19100 -0.27800
H 	H 	0.25000 0.09190 0.17860 0.10100
H 	H 	0.25000 0.13590 0.37780 0.10400
C 	C 	0.75000 0.87260 0.80900 -0.27800
H 	H 	0.75000 0.90810 0.82140 0.10100
H 	H 	0.75000 0.86410 0.62220 0.10400
C 	C 	0.75000 0.62740 0.80900 -0.27800
H 	H 	0.75000 0.59190 0.82140 0.10100
H 	H 	0.75000 0.63590 0.62220 0.10400
