data_crystal

_cell_length_a 19.39700
_cell_length_b 27.62000
_cell_length_c 5.16550
_cell_angle_alpha 90.00000
_cell_angle_beta  90.00000
_cell_angle_gamma 90.00000

_symmetry_space_group_name_	'P 1'
_symmetry_space_group_name_H-M	'P 1'

loop_
_symmetry_equiv_pos_as_xyz
  x,y,z

loop_
_atom_site_label
_atom_site_type_symbol
_atom_site_fract_x
_atom_site_fract_y
_atom_site_fract_z
_atom_site_charge
Zn	Zn	0.54616 0.95202 0.77962 1.22300
O 	O 	0.54718 0.88369 0.68080 -0.49300
O 	O 	0.60109 0.99164 0.55380 -0.48500
O 	O 	0.59469 0.95275 0.11360 -0.48100
O 	O 	0.44919 0.96234 0.83140 -0.50900
P 	P 	0.39665 0.99933 0.73535 0.46700
C 	C 	0.31456 0.97354 0.81560 -0.30900
H 	H 	0.31180 0.94120 0.73390 0.10400
H 	H 	0.31320 0.96860 0.00540 0.10700
P 	P 	0.39472 0.14546 0.44069 0.49800
C 	C 	0.31431 0.12368 0.31700 -0.37900
O 	O 	0.40074 0.19915 0.41000 -0.48500
O 	O 	0.39318 0.13635 0.74160 -0.47600
H 	H 	0.31310 0.12970 0.12820 0.13400
H 	H 	0.31250 0.08820 0.34300 0.12100
H 	H 	0.39550 0.10650 0.77080 0.26800
Zn	Zn	0.95384 0.54798 0.77962 1.22400
O 	O 	0.95282 0.61631 0.68080 -0.49200
O 	O 	0.89891 0.50836 0.55380 -0.48500
O 	O 	0.90531 0.54725 0.11360 -0.48000
O 	O 	0.05081 0.53766 0.83140 -0.50800
P 	P 	0.10335 0.50067 0.73535 0.46700
C 	C 	0.18544 0.52646 0.81560 -0.30700
H 	H 	0.18820 0.55880 0.73390 0.10300
H 	H 	0.18680 0.53140 0.00540 0.10600
P 	P 	0.10528 0.35454 0.44069 0.49800
C 	C 	0.18569 0.37632 0.31700 -0.37900
O 	O 	0.09926 0.30085 0.41000 -0.48500
O 	O 	0.10682 0.36365 0.74160 -0.47600
H 	H 	0.18690 0.37030 0.12820 0.13400
H 	H 	0.18750 0.41180 0.34300 0.12100
H 	H 	0.10450 0.39350 0.77080 0.26800
Zn	Zn	0.45384 0.45202 0.22038 1.22400
O 	O 	0.45282 0.38369 0.31920 -0.49200
O 	O 	0.39891 0.49164 0.44620 -0.48400
O 	O 	0.40531 0.45275 0.88640 -0.48100
O 	O 	0.55081 0.46234 0.16860 -0.50900
P 	P 	0.60335 0.49933 0.26465 0.46700
C 	C 	0.68544 0.47354 0.18440 -0.30800
H 	H 	0.68820 0.44120 0.26610 0.10300
H 	H 	0.68680 0.46860 0.99460 0.10700
P 	P 	0.60528 0.64546 0.55931 0.49800
C 	C 	0.68569 0.62368 0.68300 -0.37900
O 	O 	0.59926 0.69915 0.59000 -0.48500
O 	O 	0.60682 0.63635 0.25840 -0.47600
H 	H 	0.68690 0.62970 0.87180 0.13400
H 	H 	0.68750 0.58820 0.65700 0.12100
H 	H 	0.60450 0.60650 0.22920 0.26800
Zn	Zn	0.04616 0.04798 0.22038 1.22300
O 	O 	0.04718 0.11631 0.31920 -0.49200
O 	O 	0.10109 0.00836 0.44620 -0.48500
O 	O 	0.09469 0.04725 0.88640 -0.48000
O 	O 	0.94919 0.03766 0.16860 -0.50800
P 	P 	0.89665 0.00067 0.26465 0.46700
C 	C 	0.81456 0.02646 0.18440 -0.30800
H 	H 	0.81180 0.05880 0.26610 0.10400
H 	H 	0.81320 0.03140 0.99460 0.10700
P 	P 	0.89472 0.85454 0.55931 0.49700
C 	C 	0.81431 0.87632 0.68300 -0.37900
O 	O 	0.90074 0.80085 0.59000 -0.48500
O 	O 	0.89318 0.86365 0.25840 -0.47600
H 	H 	0.81310 0.87030 0.87180 0.13400
H 	H 	0.81250 0.91180 0.65700 0.12100
H 	H 	0.89550 0.89350 0.22920 0.26800
Zn	Zn	0.45384 0.04798 0.22038 1.22400
O 	O 	0.45282 0.11631 0.31920 -0.49200
O 	O 	0.39891 0.00836 0.44620 -0.48400
O 	O 	0.40531 0.04725 0.88640 -0.48000
O 	O 	0.55081 0.03766 0.16860 -0.50900
P 	P 	0.60335 0.00067 0.26465 0.46700
C 	C 	0.68544 0.02646 0.18440 -0.30900
H 	H 	0.68820 0.05880 0.26610 0.10400
H 	H 	0.68680 0.03140 0.99460 0.10700
P 	P 	0.60528 0.85454 0.55931 0.49800
C 	C 	0.68569 0.87632 0.68300 -0.37900
O 	O 	0.59926 0.80085 0.59000 -0.48500
O 	O 	0.60682 0.86365 0.25840 -0.47600
H 	H 	0.68690 0.87030 0.87180 0.13400
H 	H 	0.68750 0.91180 0.65700 0.12100
H 	H 	0.60450 0.89350 0.22920 0.26800
Zn	Zn	0.04616 0.45202 0.22038 1.22400
O 	O 	0.04718 0.38369 0.31920 -0.49200
O 	O 	0.10109 0.49164 0.44620 -0.48500
O 	O 	0.09469 0.45275 0.88640 -0.48000
O 	O 	0.94919 0.46234 0.16860 -0.50800
P 	P 	0.89665 0.49933 0.26465 0.46700
C 	C 	0.81456 0.47354 0.18440 -0.30700
H 	H 	0.81180 0.44120 0.26610 0.10300
H 	H 	0.81320 0.46860 0.99460 0.10600
P 	P 	0.89472 0.64546 0.55931 0.49800
C 	C 	0.81431 0.62368 0.68300 -0.37900
O 	O 	0.90074 0.69915 0.59000 -0.48500
O 	O 	0.89318 0.63635 0.25840 -0.47600
H 	H 	0.81310 0.62970 0.87180 0.13400
H 	H 	0.81250 0.58820 0.65700 0.12100
H 	H 	0.89550 0.60650 0.22920 0.26800
Zn	Zn	0.54616 0.54798 0.77962 1.22400
O 	O 	0.54718 0.61631 0.68080 -0.49200
O 	O 	0.60109 0.50836 0.55380 -0.48400
O 	O 	0.59469 0.54725 0.11360 -0.48100
O 	O 	0.44919 0.53766 0.83140 -0.50900
P 	P 	0.39665 0.50067 0.73535 0.46700
C 	C 	0.31456 0.52646 0.81560 -0.30800
H 	H 	0.31180 0.55880 0.73390 0.10300
H 	H 	0.31320 0.53140 0.00540 0.10700
P 	P 	0.39472 0.35454 0.44069 0.49800
C 	C 	0.31431 0.37632 0.31700 -0.37900
O 	O 	0.40074 0.30085 0.41000 -0.48500
O 	O 	0.39318 0.36365 0.74160 -0.47600
H 	H 	0.31310 0.37030 0.12820 0.13400
H 	H 	0.31250 0.41180 0.34300 0.12100
H 	H 	0.39550 0.39350 0.77080 0.26800
Zn	Zn	0.95384 0.95202 0.77962 1.22300
O 	O 	0.95282 0.88369 0.68080 -0.49200
O 	O 	0.89891 0.99164 0.55380 -0.48500
O 	O 	0.90531 0.95275 0.11360 -0.48000
O 	O 	0.05081 0.96234 0.83140 -0.50800
P 	P 	0.10335 0.99933 0.73535 0.46700
C 	C 	0.18544 0.97354 0.81560 -0.30800
H 	H 	0.18820 0.94120 0.73390 0.10400
H 	H 	0.18680 0.96860 0.00540 0.10700
P 	P 	0.10528 0.14546 0.44069 0.49700
C 	C 	0.18569 0.12368 0.31700 -0.37900
O 	O 	0.09926 0.19915 0.41000 -0.48500
O 	O 	0.10682 0.13635 0.74160 -0.47600
H 	H 	0.18690 0.12970 0.12820 0.13400
H 	H 	0.18750 0.08820 0.34300 0.12100
H 	H 	0.10450 0.10650 0.77080 0.26800
C 	C 	0.25000 0.00202 0.73790 0.10700
H 	H 	0.25000 0.03390 0.82510 0.00200
H 	H 	0.25000 0.00750 0.54850 -0.00400
C 	C 	0.25000 0.14597 0.43770 0.17200
H 	H 	0.25000 0.18140 0.40860 -0.01400
H 	H 	0.25000 0.14010 0.62680 -0.00800
C 	C 	0.25000 0.49798 0.73790 0.10600
H 	H 	0.25000 0.46610 0.82510 0.00200
H 	H 	0.25000 0.49250 0.54850 -0.00300
C 	C 	0.25000 0.35403 0.43770 0.17200
H 	H 	0.25000 0.31860 0.40860 -0.01400
H 	H 	0.25000 0.35990 0.62680 -0.00800
C 	C 	0.75000 0.50202 0.26210 0.10600
H 	H 	0.75000 0.53390 0.17490 0.00200
H 	H 	0.75000 0.50750 0.45150 -0.00300
C 	C 	0.75000 0.64597 0.56230 0.17200
H 	H 	0.75000 0.68140 0.59140 -0.01400
H 	H 	0.75000 0.64010 0.37320 -0.00800
C 	C 	0.75000 0.99798 0.26210 0.10700
H 	H 	0.75000 0.96610 0.17490 0.00200
H 	H 	0.75000 0.99250 0.45150 -0.00400
C 	C 	0.75000 0.85403 0.56230 0.17200
H 	H 	0.75000 0.81860 0.59140 -0.01400
H 	H 	0.75000 0.85990 0.37320 -0.00800
Zn	Zn	0.45009 0.25000 0.20559 1.12900
Zn	Zn	0.04991 0.25000 0.20559 1.12900
Zn	Zn	0.54991 0.75000 0.79441 1.12900
Zn	Zn	0.95009 0.75000 0.79441 1.12900
