data_crystal

_cell_length_a 10.55360
_cell_length_b 17.31300
_cell_length_c 10.39370
_cell_angle_alpha 90.00000
_cell_angle_beta  99.50200
_cell_angle_gamma 90.00000

_symmetry_space_group_name_	'P 1'
_symmetry_space_group_name_H-M	'P 1'

loop_
_symmetry_equiv_pos_as_xyz
  x,y,z

loop_
_atom_site_label
_atom_site_type_symbol
_atom_site_fract_x
_atom_site_fract_y
_atom_site_fract_z
_atom_site_charge
Zn	Zn	0.15130 0.16519 0.82231 1.22800
Zn	Zn	0.94998 0.16724 0.11638 1.22800
P 	P 	0.87000 0.28625 0.32600 0.45600
P 	P 	0.22560 0.22670 0.10000 0.45600
O 	O 	0.13590 0.15970 0.12340 -0.48900
O 	O 	0.96720 0.35000 0.30320 -0.45900
O 	O 	0.90960 0.20720 0.27900 -0.45900
O 	O 	0.90370 0.05700 0.11770 -0.43300
O 	O 	0.23180 0.23610 0.95600 -0.45400
O 	O 	0.85430 0.28170 0.46880 -0.46000
O 	O 	0.18010 0.30340 0.15040 -0.44900
O 	O 	0.77610 0.93890 0.14840 -0.43900
C 	C 	0.48620 0.26610 0.16530 -0.03100
H 	H 	0.50150 0.26290 0.07400 0.03800
H 	H 	0.45500 0.31890 0.17930 0.04000
C 	C 	0.38150 0.20780 0.18470 -0.28500
H 	H 	0.37730 0.20510 0.27900 0.11100
H 	H 	0.40820 0.15620 0.15780 0.11100
C 	C 	0.61100 0.25340 0.25520 -0.03500
H 	H 	0.64030 0.19990 0.24410 0.03600
H 	H 	0.59650 0.25910 0.34640 0.04000
C 	C 	0.71760 0.30970 0.23130 -0.27500
H 	H 	0.72510 0.30880 0.13760 0.10900
H 	H 	0.69340 0.36280 0.25320 0.12100
P 	P 	0.78920 0.00900 0.06340 0.48500
O 	O 	0.79610 0.98460 0.92020 -0.43700
H 	H 	0.81860 0.93810 0.91890 0.25700
C 	C 	0.52660 0.03580 0.96730 -0.02400
H 	H 	0.54640 0.02070 0.88090 0.04700
H 	H 	0.45990 0.07650 0.95350 0.03500
C 	C 	0.64780 0.06830 0.05070 -0.27400
H 	H 	0.62930 0.07760 0.13970 0.10400
H 	H 	0.66710 0.11890 0.01410 0.09500
Zn	Zn	0.84870 0.66519 0.67769 1.22800
Zn	Zn	0.05002 0.66724 0.38362 1.23000
P 	P 	0.13000 0.78625 0.17400 0.45600
P 	P 	0.77440 0.72670 0.40000 0.45400
O 	O 	0.86410 0.65970 0.37660 -0.49200
O 	O 	0.03280 0.85000 0.19680 -0.45700
O 	O 	0.09040 0.70720 0.22100 -0.45600
O 	O 	0.09630 0.55700 0.38230 -0.42900
O 	O 	0.76820 0.73610 0.54400 -0.45100
O 	O 	0.14570 0.78170 0.03120 -0.45700
O 	O 	0.81990 0.80340 0.34960 -0.45000
O 	O 	0.22390 0.43890 0.35160 -0.44100
C 	C 	0.51380 0.76610 0.33470 -0.03200
H 	H 	0.49850 0.76290 0.42600 0.03900
H 	H 	0.54500 0.81890 0.32070 0.04000
C 	C 	0.61850 0.70780 0.31530 -0.28500
H 	H 	0.62270 0.70510 0.22100 0.11100
H 	H 	0.59180 0.65620 0.34220 0.11100
C 	C 	0.38900 0.75340 0.24480 -0.03400
H 	H 	0.35970 0.69990 0.25590 0.03600
H 	H 	0.40350 0.75910 0.15360 0.04000
C 	C 	0.28240 0.80970 0.26870 -0.27500
H 	H 	0.27490 0.80880 0.36240 0.11000
H 	H 	0.30660 0.86280 0.24680 0.12200
P 	P 	0.21080 0.50900 0.43660 0.49200
O 	O 	0.20390 0.48460 0.57980 -0.44100
H 	H 	0.18140 0.43810 0.58110 0.25800
C 	C 	0.47340 0.53580 0.53270 -0.02800
H 	H 	0.45360 0.52070 0.61910 0.04700
H 	H 	0.54010 0.57650 0.54650 0.03500
C 	C 	0.35220 0.56830 0.44930 -0.27100
H 	H 	0.37070 0.57760 0.36030 0.10400
H 	H 	0.33290 0.61890 0.48590 0.09500
Zn	Zn	0.84870 0.83481 0.17769 1.22700
Zn	Zn	0.05002 0.83276 0.88362 1.22700
P 	P 	0.13000 0.71375 0.67400 0.45500
P 	P 	0.77440 0.77330 0.90000 0.45500
O 	O 	0.86410 0.84030 0.87660 -0.49000
O 	O 	0.03280 0.65000 0.69680 -0.46000
O 	O 	0.09040 0.79280 0.72100 -0.45900
O 	O 	0.09630 0.94300 0.88230 -0.43300
O 	O 	0.76820 0.76390 0.04400 -0.45400
O 	O 	0.14570 0.71830 0.53120 -0.46000
O 	O 	0.81990 0.69660 0.84960 -0.44900
O 	O 	0.22390 0.06110 0.85160 -0.43900
C 	C 	0.51380 0.73390 0.83470 -0.03100
H 	H 	0.49850 0.73710 0.92600 0.03800
H 	H 	0.54500 0.68110 0.82070 0.04000
C 	C 	0.61850 0.79220 0.81530 -0.28500
H 	H 	0.62270 0.79490 0.72100 0.11100
H 	H 	0.59180 0.84380 0.84220 0.11100
C 	C 	0.38900 0.74660 0.74480 -0.03500
H 	H 	0.35970 0.80010 0.75590 0.03600
H 	H 	0.40350 0.74090 0.65360 0.04000
C 	C 	0.28240 0.69030 0.76870 -0.27500
H 	H 	0.27490 0.69120 0.86240 0.10900
H 	H 	0.30660 0.63720 0.74680 0.12100
P 	P 	0.21080 0.99100 0.93660 0.48500
O 	O 	0.20390 0.01540 0.07980 -0.43700
H 	H 	0.18140 0.06190 0.08110 0.25700
C 	C 	0.47340 0.96420 0.03270 -0.02400
H 	H 	0.45360 0.97930 0.11910 0.04700
H 	H 	0.54010 0.92350 0.04650 0.03500
C 	C 	0.35220 0.93170 0.94930 -0.27400
H 	H 	0.37070 0.92240 0.86030 0.10400
H 	H 	0.33290 0.88110 0.98590 0.09500
Zn	Zn	0.15130 0.33481 0.32231 1.22800
Zn	Zn	0.94998 0.33276 0.61638 1.23000
P 	P 	0.87000 0.21375 0.82600 0.45600
P 	P 	0.22560 0.27330 0.60000 0.45400
O 	O 	0.13590 0.34030 0.62340 -0.49200
O 	O 	0.96720 0.15000 0.80320 -0.45700
O 	O 	0.90960 0.29280 0.77900 -0.45600
O 	O 	0.90370 0.44300 0.61770 -0.42900
O 	O 	0.23180 0.26390 0.45600 -0.45100
O 	O 	0.85430 0.21830 0.96880 -0.45700
O 	O 	0.18010 0.19660 0.65040 -0.45000
O 	O 	0.77610 0.56110 0.64840 -0.44100
C 	C 	0.48620 0.23390 0.66530 -0.03200
H 	H 	0.50150 0.23710 0.57400 0.03900
H 	H 	0.45500 0.18110 0.67930 0.04000
C 	C 	0.38150 0.29220 0.68470 -0.28500
H 	H 	0.37730 0.29490 0.77900 0.11100
H 	H 	0.40820 0.34380 0.65780 0.11100
C 	C 	0.61100 0.24660 0.75520 -0.03400
H 	H 	0.64030 0.30010 0.74410 0.03600
H 	H 	0.59650 0.24090 0.84640 0.04000
C 	C 	0.71760 0.19030 0.73130 -0.27500
H 	H 	0.72510 0.19120 0.63760 0.11000
H 	H 	0.69340 0.13720 0.75320 0.12200
P 	P 	0.78920 0.49100 0.56340 0.49200
O 	O 	0.79610 0.51540 0.42020 -0.44100
H 	H 	0.81860 0.56190 0.41890 0.25800
C 	C 	0.52660 0.46420 0.46730 -0.02800
H 	H 	0.54640 0.47930 0.38090 0.04700
H 	H 	0.45990 0.42350 0.45350 0.03500
C 	C 	0.64780 0.43170 0.55070 -0.27100
H 	H 	0.62930 0.42240 0.63970 0.10400
H 	H 	0.66710 0.38110 0.51410 0.09500
