data_crystal

_cell_length_a 23.21500
_cell_length_b 17.11200
_cell_length_c 10.34300
_cell_angle_alpha 90.00000
_cell_angle_beta  94.52900
_cell_angle_gamma 90.00000

_symmetry_space_group_name_	'P 1'
_symmetry_space_group_name_H-M	'P 1'

loop_
_symmetry_equiv_pos_as_xyz
  x,y,z

loop_
_atom_site_label
_atom_site_type_symbol
_atom_site_fract_x
_atom_site_fract_y
_atom_site_fract_z
_atom_site_charge
Zn	Zn	0.56617 0.33345 0.22032 1.23100
Zn	Zn	0.95466 0.32323 0.13582 1.23200
Zn	Zn	0.52405 0.66789 0.11824 1.22700
Zn	Zn	0.95281 0.66860 0.15446 1.23200
P 	P 	0.60042 0.26788 0.96952 0.45800
P 	P 	0.92052 0.25443 0.87482 0.47200
P 	P 	0.91127 0.50172 0.02700 0.53200
P 	P 	0.59382 0.50852 0.11488 0.49700
P 	P 	0.56229 0.78680 0.34694 0.47200
P 	P 	0.91447 0.77466 0.37084 0.45800
O 	O 	0.59882 0.25484 0.11540 -0.45500
O 	O 	0.58256 0.19205 0.90110 -0.45100
O 	O 	0.56057 0.33599 0.92350 -0.49500
O 	O 	0.92809 0.23940 0.02090 -0.45100
O 	O 	0.96618 0.30960 0.82910 -0.50800
O 	O 	0.92206 0.17580 0.80300 -0.43000
O 	O 	0.92302 0.41820 0.05920 -0.45700
O 	O 	0.94430 0.55680 0.12410 -0.43600
O 	O 	0.92670 0.51820 0.88420 -0.44100
H 	H 	0.91690 0.50380 0.80690 0.24600
O 	O 	0.59878 0.43768 0.20290 -0.45100
O 	O 	0.59783 0.48340 0.97110 -0.44800
H 	H 	0.58580 0.43730 0.96100 0.26100
O 	O 	0.53932 0.55498 0.13110 -0.43100
O 	O 	0.54700 0.70568 0.29090 -0.46100
O 	O 	0.51665 0.84781 0.30020 -0.46900
O 	O 	0.56883 0.78214 0.49410 -0.46300
O 	O 	0.92583 0.69160 0.32360 -0.44500
O 	O 	0.96092 0.83310 0.33050 -0.45600
O 	O 	0.91002 0.77470 0.51560 -0.45700
C 	C 	0.67300 0.29080 0.93730 -0.32700
H 	H 	0.67490 0.29650 0.84250 0.12400
H 	H 	0.68370 0.34170 0.97790 0.11700
C 	C 	0.71680 0.22950 0.98740 0.08700
H 	H 	0.71000 0.18090 0.93660 0.00100
H 	H 	0.71050 0.21750 0.07890 -0.00000
C 	C 	0.77960 0.25480 0.97960 -0.14600
H 	H 	0.78520 0.30700 0.01990 0.05400
H 	H 	0.80530 0.21750 0.02940 0.06000
C 	C 	0.79640 0.25830 0.83980 0.06000
H 	H 	0.76510 0.28430 0.78530 -0.01000
H 	H 	0.80030 0.20440 0.80700 0.00200
C 	C 	0.85310 0.30220 0.82620 -0.44300
H 	H 	0.85160 0.35120 0.87670 0.10600
H 	H 	0.85410 0.31720 0.73390 0.07000
C 	C 	0.83520 0.52100 0.03070 -0.40100
H 	H 	0.82470 0.56900 0.98100 0.06100
H 	H 	0.81250 0.47700 0.99060 0.10200
C 	C 	0.82100 0.53130 0.17420 0.09200
H 	H 	0.82120 0.47940 0.21660 0.01300
H 	H 	0.85150 0.56340 0.22050 0.00200
C 	C 	0.76170 0.57050 0.18620 -0.19200
H 	H 	0.75650 0.57910 0.27920 0.07800
H 	H 	0.76180 0.62230 0.14370 0.04800
C 	C 	0.71080 0.52390 0.12700 0.02500
H 	H 	0.70990 0.47150 0.16770 0.09200
H 	H 	0.71390 0.51700 0.03270 0.02000
C 	C 	0.65490 0.57000 0.15130 -0.33500
H 	H 	0.65190 0.61710 0.09560 -0.03800
H 	H 	0.65620 0.58700 0.24300 0.07100
C 	C 	0.62900 0.81970 0.28890 -0.33200
H 	H 	0.62590 0.81550 0.19320 0.12500
H 	H 	0.63400 0.87570 0.31110 0.14100
C 	C 	0.68360 0.77540 0.34210 0.09300
H 	H 	0.68800 0.78070 0.43770 0.00100
H 	H 	0.67910 0.71920 0.32120 -0.00500
C 	C 	0.73740 0.80620 0.28560 -0.25200
H 	H 	0.73900 0.86350 0.29760 0.09400
H 	H 	0.73430 0.79560 0.19120 0.09400
C 	C 	0.79330 0.77090 0.34520 0.08300
H 	H 	0.79310 0.71400 0.32780 0.00200
H 	H 	0.79540 0.77830 0.44040 0.00200
C 	C 	0.84690 0.80750 0.29200 -0.31800
H 	H 	0.84460 0.86500 0.30090 0.12100
H 	H 	0.84640 0.79540 0.19830 0.11800
H 	H 	0.69780 0.17770 0.98900 0.00400
H 	H 	0.73170 0.24270 0.07710 0.00100
C 	C 	0.76740 0.22620 0.89900 -0.13400
H 	H 	0.79230 0.18060 0.92300 0.06600
H 	H 	0.75210 0.22000 0.80760 0.04500
C 	C 	0.80310 0.30100 0.91400 0.08500
H 	H 	0.77770 0.34690 0.89320 -0.01900
H 	H 	0.81880 0.30670 0.00570 -0.02300
H 	H 	0.86200 0.35760 0.80900 0.07700
H 	H 	0.83840 0.27900 0.74230 0.10500
H 	H 	0.82880 0.57820 0.03300 0.08500
H 	H 	0.81450 0.50050 0.95040 0.04900
C 	C 	0.80980 0.48300 0.14990 0.07300
H 	H 	0.82270 0.42790 0.15450 0.00100
H 	H 	0.82720 0.50950 0.22860 -0.04300
C 	C 	0.74440 0.48380 0.15600 -0.30300
H 	H 	0.72740 0.44010 0.10310 0.07400
H 	H 	0.73540 0.47490 0.24690 0.08700
C 	C 	0.71620 0.55990 0.10800 0.12700
H 	H 	0.71450 0.56120 0.01200 -0.02400
H 	H 	0.74040 0.60440 0.14100 0.01900
H 	H 	0.64240 0.62280 0.12130 0.14300
H 	H 	0.65960 0.57290 0.24720 0.03500
Zn	Zn	0.43383 0.83345 0.27968 1.23000
Zn	Zn	0.04534 0.82323 0.36418 1.23100
Zn	Zn	0.47595 0.16789 0.38176 1.22700
Zn	Zn	0.04719 0.16860 0.34554 1.23100
P 	P 	0.39958 0.76788 0.53048 0.45700
P 	P 	0.07948 0.75443 0.62518 0.47100
P 	P 	0.08873 0.00172 0.47300 0.53200
P 	P 	0.40618 0.00852 0.38512 0.49700
P 	P 	0.43771 0.28680 0.15306 0.47200
P 	P 	0.08553 0.27466 0.12916 0.45900
O 	O 	0.40118 0.75484 0.38460 -0.45500
O 	O 	0.41744 0.69205 0.59890 -0.45100
O 	O 	0.43943 0.83599 0.57650 -0.49500
O 	O 	0.07191 0.73940 0.47910 -0.45100
O 	O 	0.03382 0.80960 0.67090 -0.50800
O 	O 	0.07794 0.67580 0.69700 -0.43000
O 	O 	0.07698 0.91820 0.44080 -0.45600
O 	O 	0.05570 0.05680 0.37590 -0.43600
O 	O 	0.07330 0.01820 0.61580 -0.44100
H 	H 	0.08310 0.00380 0.69310 0.24600
O 	O 	0.40122 0.93768 0.29710 -0.45100
O 	O 	0.40217 0.98340 0.52890 -0.44800
H 	H 	0.41420 0.93730 0.53900 0.26100
O 	O 	0.46068 0.05498 0.36890 -0.43100
O 	O 	0.45300 0.20568 0.20910 -0.46100
O 	O 	0.48335 0.34781 0.19980 -0.46900
O 	O 	0.43117 0.28214 0.00590 -0.46300
O 	O 	0.07417 0.19160 0.17640 -0.44500
O 	O 	0.03908 0.33310 0.16950 -0.45600
O 	O 	0.08998 0.27470 0.98440 -0.45800
C 	C 	0.32700 0.79080 0.56270 -0.32800
H 	H 	0.32510 0.79650 0.65750 0.12400
H 	H 	0.31630 0.84170 0.52210 0.11700
C 	C 	0.28320 0.72950 0.51260 0.08800
H 	H 	0.29000 0.68090 0.56340 0.00100
H 	H 	0.28950 0.71750 0.42110 -0.00000
C 	C 	0.22040 0.75480 0.52040 -0.14700
H 	H 	0.21480 0.80700 0.48010 0.05400
H 	H 	0.19470 0.71750 0.47060 0.06000
C 	C 	0.20360 0.75830 0.66020 0.06000
H 	H 	0.23490 0.78430 0.71470 -0.01000
H 	H 	0.19970 0.70440 0.69300 0.00200
C 	C 	0.14690 0.80220 0.67380 -0.44300
H 	H 	0.14840 0.85120 0.62330 0.10600
H 	H 	0.14590 0.81720 0.76610 0.07000
C 	C 	0.16480 0.02100 0.46930 -0.40000
H 	H 	0.17530 0.06900 0.51900 0.05900
H 	H 	0.18750 0.97700 0.50940 0.10200
C 	C 	0.17900 0.03130 0.32580 0.09200
H 	H 	0.17880 0.97940 0.28340 0.01300
H 	H 	0.14850 0.06340 0.27950 0.00200
C 	C 	0.23830 0.07050 0.31380 -0.19200
H 	H 	0.24350 0.07910 0.22080 0.07800
H 	H 	0.23820 0.12230 0.35630 0.04800
C 	C 	0.28920 0.02390 0.37300 0.02500
H 	H 	0.29010 0.97150 0.33230 0.09100
H 	H 	0.28610 0.01700 0.46730 0.02000
C 	C 	0.34510 0.07000 0.34870 -0.33500
H 	H 	0.34810 0.11710 0.40440 -0.03900
H 	H 	0.34380 0.08700 0.25700 0.07100
C 	C 	0.37100 0.31970 0.21110 -0.33200
H 	H 	0.37410 0.31550 0.30680 0.12600
H 	H 	0.36600 0.37570 0.18890 0.14100
C 	C 	0.31640 0.27540 0.15790 0.09300
H 	H 	0.31200 0.28070 0.06230 0.00100
H 	H 	0.32090 0.21920 0.17880 -0.00500
C 	C 	0.26260 0.30620 0.21440 -0.25300
H 	H 	0.26100 0.36350 0.20240 0.09500
H 	H 	0.26570 0.29560 0.30880 0.09500
C 	C 	0.20670 0.27090 0.15480 0.08400
H 	H 	0.20690 0.21400 0.17220 0.00200
H 	H 	0.20460 0.27830 0.05960 0.00200
C 	C 	0.15310 0.30750 0.20800 -0.31800
H 	H 	0.15540 0.36500 0.19910 0.12200
H 	H 	0.15360 0.29540 0.30170 0.11800
H 	H 	0.30220 0.67770 0.51100 0.00500
H 	H 	0.26830 0.74270 0.42290 0.00100
C 	C 	0.23260 0.72620 0.60100 -0.13400
H 	H 	0.20770 0.68060 0.57700 0.06600
H 	H 	0.24790 0.72000 0.69240 0.04500
C 	C 	0.19690 0.80100 0.58600 0.08500
H 	H 	0.22230 0.84690 0.60680 -0.01900
H 	H 	0.18120 0.80670 0.49430 -0.02300
H 	H 	0.13800 0.85760 0.69100 0.07700
H 	H 	0.16160 0.77900 0.75770 0.10500
H 	H 	0.17120 0.07820 0.46700 0.08600
H 	H 	0.18550 0.00050 0.54960 0.04800
C 	C 	0.19020 0.98300 0.35010 0.07300
H 	H 	0.17730 0.92790 0.34550 0.00100
H 	H 	0.17280 0.00950 0.27140 -0.04300
C 	C 	0.25560 0.98380 0.34400 -0.30200
H 	H 	0.27260 0.94010 0.39690 0.07300
H 	H 	0.26460 0.97490 0.25310 0.08700
C 	C 	0.28380 0.05990 0.39200 0.12600
H 	H 	0.28550 0.06120 0.48800 -0.02400
H 	H 	0.25960 0.10440 0.35900 0.02000
H 	H 	0.35760 0.12280 0.37870 0.14300
H 	H 	0.34040 0.07290 0.25280 0.03500
Zn	Zn	0.43383 0.66655 0.77968 1.23000
Zn	Zn	0.04534 0.67677 0.86418 1.23100
Zn	Zn	0.47595 0.33211 0.88176 1.22600
Zn	Zn	0.04719 0.33140 0.84554 1.23100
P 	P 	0.39958 0.73212 0.03048 0.45700
P 	P 	0.07948 0.74557 0.12518 0.47100
P 	P 	0.08873 0.49828 0.97300 0.53200
P 	P 	0.40618 0.49148 0.88512 0.49700
P 	P 	0.43771 0.21320 0.65306 0.47200
P 	P 	0.08553 0.22534 0.62916 0.45800
O 	O 	0.40118 0.74516 0.88460 -0.45500
O 	O 	0.41744 0.80795 0.09890 -0.45100
O 	O 	0.43943 0.66401 0.07650 -0.49500
O 	O 	0.07191 0.76060 0.97910 -0.45100
O 	O 	0.03382 0.69040 0.17090 -0.50800
O 	O 	0.07794 0.82420 0.19700 -0.43000
O 	O 	0.07698 0.58180 0.94080 -0.45700
O 	O 	0.05570 0.44320 0.87590 -0.43600
O 	O 	0.07330 0.48180 0.11580 -0.44100
H 	H 	0.08310 0.49620 0.19310 0.24600
O 	O 	0.40122 0.56232 0.79710 -0.45100
O 	O 	0.40217 0.51660 0.02890 -0.44800
H 	H 	0.41420 0.56270 0.03900 0.26100
O 	O 	0.46068 0.44502 0.86890 -0.43100
O 	O 	0.45300 0.29432 0.70910 -0.46100
O 	O 	0.48335 0.15219 0.69980 -0.46900
O 	O 	0.43117 0.21786 0.50590 -0.46300
O 	O 	0.07417 0.30840 0.67640 -0.44500
O 	O 	0.03908 0.16690 0.66950 -0.45600
O 	O 	0.08998 0.22530 0.48440 -0.45700
C 	C 	0.32700 0.70920 0.06270 -0.32700
H 	H 	0.32510 0.70350 0.15750 0.12400
H 	H 	0.31630 0.65830 0.02210 0.11700
C 	C 	0.28320 0.77050 0.01260 0.08700
H 	H 	0.29000 0.81910 0.06340 0.00100
H 	H 	0.28950 0.78250 0.92110 -0.00000
C 	C 	0.22040 0.74520 0.02040 -0.14600
H 	H 	0.21480 0.69300 0.98010 0.05400
H 	H 	0.19470 0.78250 0.97060 0.06000
C 	C 	0.20360 0.74170 0.16020 0.06000
H 	H 	0.23490 0.71570 0.21470 -0.01000
H 	H 	0.19970 0.79560 0.19300 0.00200
C 	C 	0.14690 0.69780 0.17380 -0.44300
H 	H 	0.14840 0.64880 0.12330 0.10600
H 	H 	0.14590 0.68280 0.26610 0.07000
C 	C 	0.16480 0.47900 0.96930 -0.40100
H 	H 	0.17530 0.43100 0.01900 0.06100
H 	H 	0.18750 0.52300 0.00940 0.10200
C 	C 	0.17900 0.46870 0.82580 0.09200
H 	H 	0.17880 0.52060 0.78340 0.01300
H 	H 	0.14850 0.43660 0.77950 0.00200
C 	C 	0.23830 0.42950 0.81380 -0.19200
H 	H 	0.24350 0.42090 0.72080 0.07800
H 	H 	0.23820 0.37770 0.85630 0.04800
C 	C 	0.28920 0.47610 0.87300 0.02500
H 	H 	0.29010 0.52850 0.83230 0.09200
H 	H 	0.28610 0.48300 0.96730 0.02000
C 	C 	0.34510 0.43000 0.84870 -0.33500
H 	H 	0.34810 0.38290 0.90440 -0.03800
H 	H 	0.34380 0.41300 0.75700 0.07100
C 	C 	0.37100 0.18030 0.71110 -0.33200
H 	H 	0.37410 0.18450 0.80680 0.12500
H 	H 	0.36600 0.12430 0.68890 0.14100
C 	C 	0.31640 0.22460 0.65790 0.09300
H 	H 	0.31200 0.21930 0.56230 0.00100
H 	H 	0.32090 0.28080 0.67880 -0.00500
C 	C 	0.26260 0.19380 0.71440 -0.25200
H 	H 	0.26100 0.13650 0.70240 0.09400
H 	H 	0.26570 0.20440 0.80880 0.09400
C 	C 	0.20670 0.22910 0.65480 0.08300
H 	H 	0.20690 0.28600 0.67220 0.00200
H 	H 	0.20460 0.22170 0.55960 0.00200
C 	C 	0.15310 0.19250 0.70800 -0.31800
H 	H 	0.15540 0.13500 0.69910 0.12100
H 	H 	0.15360 0.20460 0.80170 0.11800
H 	H 	0.30220 0.82230 0.01100 0.00400
H 	H 	0.26830 0.75730 0.92290 0.00100
C 	C 	0.23260 0.77380 0.10100 -0.13400
H 	H 	0.20770 0.81940 0.07700 0.06600
H 	H 	0.24790 0.78000 0.19240 0.04500
C 	C 	0.19690 0.69900 0.08600 0.08500
H 	H 	0.22230 0.65310 0.10680 -0.01900
H 	H 	0.18120 0.69330 0.99430 -0.02300
H 	H 	0.13800 0.64240 0.19100 0.07700
H 	H 	0.16160 0.72100 0.25770 0.10500
H 	H 	0.17120 0.42180 0.96700 0.08500
H 	H 	0.18550 0.49950 0.04960 0.04900
C 	C 	0.19020 0.51700 0.85010 0.07300
H 	H 	0.17730 0.57210 0.84550 0.00100
H 	H 	0.17280 0.49050 0.77140 -0.04300
C 	C 	0.25560 0.51620 0.84400 -0.30300
H 	H 	0.27260 0.55990 0.89690 0.07400
H 	H 	0.26460 0.52510 0.75310 0.08700
C 	C 	0.28380 0.44010 0.89200 0.12700
H 	H 	0.28550 0.43880 0.98800 -0.02400
H 	H 	0.25960 0.39560 0.85900 0.01900
H 	H 	0.35760 0.37720 0.87870 0.14300
H 	H 	0.34040 0.42710 0.75280 0.03500
Zn	Zn	0.56617 0.16655 0.72032 1.23000
Zn	Zn	0.95466 0.17677 0.63582 1.23100
Zn	Zn	0.52405 0.83211 0.61824 1.22700
Zn	Zn	0.95281 0.83140 0.65446 1.23100
P 	P 	0.60042 0.23212 0.46952 0.45700
P 	P 	0.92052 0.24557 0.37482 0.47100
P 	P 	0.91127 0.99828 0.52700 0.53200
P 	P 	0.59382 0.99148 0.61488 0.49700
P 	P 	0.56229 0.71320 0.84694 0.47200
P 	P 	0.91447 0.72534 0.87084 0.45900
O 	O 	0.59882 0.24516 0.61540 -0.45500
O 	O 	0.58256 0.30795 0.40110 -0.45100
O 	O 	0.56057 0.16401 0.42350 -0.49500
O 	O 	0.92809 0.26060 0.52090 -0.45100
O 	O 	0.96618 0.19040 0.32910 -0.50800
O 	O 	0.92206 0.32420 0.30300 -0.43000
O 	O 	0.92302 0.08180 0.55920 -0.45600
O 	O 	0.94430 0.94320 0.62410 -0.43600
O 	O 	0.92670 0.98180 0.38420 -0.44100
H 	H 	0.91690 0.99620 0.30690 0.24600
O 	O 	0.59878 0.06232 0.70290 -0.45100
O 	O 	0.59783 0.01660 0.47110 -0.44800
H 	H 	0.58580 0.06270 0.46100 0.26100
O 	O 	0.53932 0.94502 0.63110 -0.43100
O 	O 	0.54700 0.79432 0.79090 -0.46100
O 	O 	0.51665 0.65219 0.80020 -0.46900
O 	O 	0.56883 0.71786 0.99410 -0.46300
O 	O 	0.92583 0.80840 0.82360 -0.44500
O 	O 	0.96092 0.66690 0.83050 -0.45600
O 	O 	0.91002 0.72530 0.01560 -0.45800
C 	C 	0.67300 0.20920 0.43730 -0.32800
H 	H 	0.67490 0.20350 0.34250 0.12400
H 	H 	0.68370 0.15830 0.47790 0.11700
C 	C 	0.71680 0.27050 0.48740 0.08800
H 	H 	0.71000 0.31910 0.43660 0.00100
H 	H 	0.71050 0.28250 0.57890 -0.00000
C 	C 	0.77960 0.24520 0.47960 -0.14700
H 	H 	0.78520 0.19300 0.51990 0.05400
H 	H 	0.80530 0.28250 0.52940 0.06000
C 	C 	0.79640 0.24170 0.33980 0.06000
H 	H 	0.76510 0.21570 0.28530 -0.01000
H 	H 	0.80030 0.29560 0.30700 0.00200
C 	C 	0.85310 0.19780 0.32620 -0.44300
H 	H 	0.85160 0.14880 0.37670 0.10600
H 	H 	0.85410 0.18280 0.23390 0.07000
C 	C 	0.83520 0.97900 0.53070 -0.40000
H 	H 	0.82470 0.93100 0.48100 0.05900
H 	H 	0.81250 0.02300 0.49060 0.10200
C 	C 	0.82100 0.96870 0.67420 0.09200
H 	H 	0.82120 0.02060 0.71660 0.01300
H 	H 	0.85150 0.93660 0.72050 0.00200
C 	C 	0.76170 0.92950 0.68620 -0.19200
H 	H 	0.75650 0.92090 0.77920 0.07800
H 	H 	0.76180 0.87770 0.64370 0.04800
C 	C 	0.71080 0.97610 0.62700 0.02500
H 	H 	0.70990 0.02850 0.66770 0.09100
H 	H 	0.71390 0.98300 0.53270 0.02000
C 	C 	0.65490 0.93000 0.65130 -0.33500
H 	H 	0.65190 0.88290 0.59560 -0.03900
H 	H 	0.65620 0.91300 0.74300 0.07100
C 	C 	0.62900 0.68030 0.78890 -0.33200
H 	H 	0.62590 0.68450 0.69320 0.12600
H 	H 	0.63400 0.62430 0.81110 0.14100
C 	C 	0.68360 0.72460 0.84210 0.09300
H 	H 	0.68800 0.71930 0.93770 0.00100
H 	H 	0.67910 0.78080 0.82120 -0.00500
C 	C 	0.73740 0.69380 0.78560 -0.25300
H 	H 	0.73900 0.63650 0.79760 0.09500
H 	H 	0.73430 0.70440 0.69120 0.09500
C 	C 	0.79330 0.72910 0.84520 0.08400
H 	H 	0.79310 0.78600 0.82780 0.00200
H 	H 	0.79540 0.72170 0.94040 0.00200
C 	C 	0.84690 0.69250 0.79200 -0.31800
H 	H 	0.84460 0.63500 0.80090 0.12200
H 	H 	0.84640 0.70460 0.69830 0.11800
H 	H 	0.69780 0.32230 0.48900 0.00500
H 	H 	0.73170 0.25730 0.57710 0.00100
C 	C 	0.76740 0.27380 0.39900 -0.13400
H 	H 	0.79230 0.31940 0.42300 0.06600
H 	H 	0.75210 0.28000 0.30760 0.04500
C 	C 	0.80310 0.19900 0.41400 0.08500
H 	H 	0.77770 0.15310 0.39320 -0.01900
H 	H 	0.81880 0.19330 0.50570 -0.02300
H 	H 	0.86200 0.14240 0.30900 0.07700
H 	H 	0.83840 0.22100 0.24230 0.10500
H 	H 	0.82880 0.92180 0.53300 0.08600
H 	H 	0.81450 0.99950 0.45040 0.04800
C 	C 	0.80980 0.01700 0.64990 0.07300
H 	H 	0.82270 0.07210 0.65450 0.00100
H 	H 	0.82720 0.99050 0.72860 -0.04300
C 	C 	0.74440 0.01620 0.65600 -0.30200
H 	H 	0.72740 0.05990 0.60310 0.07300
H 	H 	0.73540 0.02510 0.74690 0.08700
C 	C 	0.71620 0.94010 0.60800 0.12600
H 	H 	0.71450 0.93880 0.51200 -0.02400
H 	H 	0.74040 0.89560 0.64100 0.02000
H 	H 	0.64240 0.87720 0.62130 0.14300
H 	H 	0.65960 0.92710 0.74720 0.03500
