data_crystal

_cell_length_a 13.04500
_cell_length_b 17.19200
_cell_length_c 10.39050
_cell_angle_alpha 90.00000
_cell_angle_beta  96.91400
_cell_angle_gamma 90.00000

_symmetry_space_group_name_	'P 1'
_symmetry_space_group_name_H-M	'P 1'

loop_
_symmetry_equiv_pos_as_xyz
  x,y,z

loop_
_atom_site_label
_atom_site_type_symbol
_atom_site_fract_x
_atom_site_fract_y
_atom_site_fract_z
_atom_site_charge
Zn	Zn	0.38067 0.83461 0.18706 1.23200
Zn	Zn	0.54611 0.66803 0.38630 1.23000
P 	P 	0.32315 0.72881 0.41721 0.46000
O 	O 	0.35690 0.80501 0.36040 -0.45000
O 	O 	0.39600 0.66155 0.39180 -0.49000
O 	O 	0.32010 0.74020 0.56250 -0.45100
C 	C 	0.19750 0.70480 0.34230 -0.30300
H 	H 	0.19910 0.70170 0.24740 0.11800
H 	H 	0.17880 0.65270 0.37250 0.12100
C 	C 	0.11310 0.76260 0.36940 0.01300
H 	H 	0.10480 0.76130 0.46280 0.02400
H 	H 	0.13450 0.81590 0.34800 0.02600
C 	C 	0.01030 0.74350 0.29010 -0.11500
H 	H 	0.01830 0.74880 0.19700 0.05400
H 	H 	0.99310 0.68850 0.30590 0.05600
C 	C 	0.92120 0.79400 0.31970 -0.13600
H 	H 	0.93670 0.84900 0.30140 0.06300
H 	H 	0.91330 0.78970 0.41300 0.06100
C 	C 	0.81980 0.77060 0.23930 0.03500
H 	H 	0.82840 0.77440 0.14610 0.01900
H 	H 	0.80460 0.71560 0.25810 0.01200
C 	C 	0.72880 0.82050 0.26580 -0.31100
H 	H 	0.74260 0.87510 0.24350 0.13500
H 	H 	0.72190 0.81840 0.35960 0.11900
P 	P 	0.60946 0.79007 0.17604 0.46800
O 	O 	0.62490 0.78475 0.03330 -0.46000
O 	O 	0.58030 0.70972 0.22410 -0.46200
O 	O 	0.52810 0.85137 0.19930 -0.46600
P 	P 	0.67217 0.50789 0.42641 0.53100
O 	O 	0.57960 0.55763 0.37630 -0.44500
O 	O 	0.66680 0.48331 0.57040 -0.44700
H 	H 	0.62990 0.44340 0.57210 0.25800
O 	O 	0.68150 0.43733 0.34130 -0.44600
C 	C 	0.78600 0.56540 0.43240 -0.50200
H 	H 	0.79740 0.57910 0.34260 0.17400
H 	H 	0.77460 0.61450 0.47840 0.16700
C 	C 	0.88340 0.52710 0.49850 0.53200
H 	H 	0.87160 0.51290 0.58790 -0.04800
H 	H 	0.89510 0.47830 0.45180 -0.40600
C 	C 	0.97620 0.57390 0.50510 0.31700
H 	H 	0.96310 0.62340 0.54910 -0.01900
H 	H 	0.98840 0.58700 0.41540 -0.07800
C 	C 	0.92480 0.46140 0.42600 0.38400
H 	H 	0.93770 0.56730 0.51440 -0.38700
H 	H 	0.86890 0.50740 0.58400 -0.05200
H 	H 	0.93840 0.48040 0.33970 -0.09000
H 	H 	0.87150 0.42030 0.41230 -0.03100
Zn	Zn	0.61933 0.33461 0.31294 1.23100
Zn	Zn	0.45389 0.16803 0.11370 1.22800
P 	P 	0.67685 0.22881 0.08279 0.45700
O 	O 	0.64310 0.30501 0.13960 -0.45200
O 	O 	0.60400 0.16155 0.10820 -0.49100
O 	O 	0.67990 0.24020 0.93750 -0.45100
C 	C 	0.80250 0.20480 0.15770 -0.30000
H 	H 	0.80090 0.20170 0.25260 0.11600
H 	H 	0.82120 0.15270 0.12750 0.12000
C 	C 	0.88690 0.26260 0.13060 0.00600
H 	H 	0.89520 0.26130 0.03720 0.02600
H 	H 	0.86550 0.31590 0.15200 0.02700
C 	C 	0.98970 0.24350 0.20990 -0.10100
H 	H 	0.98170 0.24880 0.30300 0.05000
H 	H 	0.00690 0.18850 0.19410 0.05000
C 	C 	0.07880 0.29400 0.18030 -0.14600
H 	H 	0.06330 0.34900 0.19860 0.06500
H 	H 	0.08670 0.28970 0.08700 0.06300
C 	C 	0.18020 0.27060 0.26070 0.04100
H 	H 	0.17160 0.27440 0.35390 0.01600
H 	H 	0.19540 0.21560 0.24190 0.01000
C 	C 	0.27120 0.32050 0.23420 -0.31300
H 	H 	0.25740 0.37510 0.25650 0.13400
H 	H 	0.27810 0.31840 0.14040 0.11900
P 	P 	0.39054 0.29007 0.32396 0.46800
O 	O 	0.37510 0.28475 0.46670 -0.46200
O 	O 	0.41970 0.20972 0.27590 -0.46200
O 	O 	0.47190 0.35137 0.30070 -0.46700
P 	P 	0.32783 0.00789 0.07359 0.52500
O 	O 	0.42040 0.05763 0.12370 -0.44500
O 	O 	0.33320 0.98331 0.92960 -0.44600
H 	H 	0.37010 0.94340 0.92790 0.25700
O 	O 	0.31850 0.93733 0.15870 -0.44100
C 	C 	0.21400 0.06540 0.06760 -0.49400
H 	H 	0.20260 0.07910 0.15740 0.17100
H 	H 	0.22540 0.11450 0.02160 0.16300
C 	C 	0.11660 0.02710 0.00150 0.51500
H 	H 	0.12840 0.01290 0.91210 -0.04400
H 	H 	0.10490 0.97830 0.04820 -0.42300
C 	C 	0.02380 0.07390 0.99490 0.34200
H 	H 	0.03690 0.12340 0.95090 -0.02300
H 	H 	0.01160 0.08700 0.08460 -0.09000
C 	C 	0.07520 0.96140 0.07400 0.42500
H 	H 	0.06230 0.06730 0.98560 -0.39600
H 	H 	0.13110 0.00740 0.91600 -0.04800
H 	H 	0.06160 0.98040 0.16030 -0.10000
H 	H 	0.12850 0.92030 0.08770 -0.04000
Zn	Zn	0.61933 0.16539 0.81294 1.23100
Zn	Zn	0.45389 0.33197 0.61370 1.22900
P 	P 	0.67685 0.27119 0.58279 0.45900
O 	O 	0.64310 0.19499 0.63960 -0.45100
O 	O 	0.60400 0.33845 0.60820 -0.49100
O 	O 	0.67990 0.25980 0.43750 -0.45200
C 	C 	0.80250 0.29520 0.65770 -0.30400
H 	H 	0.80090 0.29830 0.75260 0.11700
H 	H 	0.82120 0.34730 0.62750 0.12100
C 	C 	0.88690 0.23740 0.63060 0.01300
H 	H 	0.89520 0.23870 0.53720 0.02400
H 	H 	0.86550 0.18410 0.65200 0.02600
C 	C 	0.98970 0.25650 0.70990 -0.11500
H 	H 	0.98170 0.25120 0.80300 0.05400
H 	H 	0.00690 0.31150 0.69410 0.05600
C 	C 	0.07880 0.20600 0.68030 -0.13600
H 	H 	0.06330 0.15100 0.69860 0.06300
H 	H 	0.08670 0.21030 0.58700 0.06100
C 	C 	0.18020 0.22940 0.76070 0.03500
H 	H 	0.17160 0.22560 0.85390 0.01900
H 	H 	0.19540 0.28440 0.74190 0.01200
C 	C 	0.27120 0.17950 0.73420 -0.31100
H 	H 	0.25740 0.12490 0.75650 0.13500
H 	H 	0.27810 0.18160 0.64040 0.11900
P 	P 	0.39054 0.20993 0.82396 0.46800
O 	O 	0.37510 0.21525 0.96670 -0.46000
O 	O 	0.41970 0.29028 0.77590 -0.46200
O 	O 	0.47190 0.14863 0.80070 -0.46600
P 	P 	0.32783 0.49211 0.57359 0.53100
O 	O 	0.42040 0.44237 0.62370 -0.44500
O 	O 	0.33320 0.51669 0.42960 -0.44700
H 	H 	0.37010 0.55660 0.42790 0.25800
O 	O 	0.31850 0.56267 0.65870 -0.44600
C 	C 	0.21400 0.43460 0.56760 -0.50200
H 	H 	0.20260 0.42090 0.65740 0.17400
H 	H 	0.22540 0.38550 0.52160 0.16700
C 	C 	0.11660 0.47290 0.50150 0.53200
H 	H 	0.12840 0.48710 0.41210 -0.04800
H 	H 	0.10490 0.52170 0.54820 -0.40600
C 	C 	0.02380 0.42610 0.49490 0.31700
H 	H 	0.03690 0.37660 0.45090 -0.01900
H 	H 	0.01160 0.41300 0.58460 -0.07800
C 	C 	0.07520 0.53860 0.57400 0.38400
H 	H 	0.06230 0.43270 0.48560 -0.38700
H 	H 	0.13110 0.49260 0.41600 -0.05200
H 	H 	0.06160 0.51960 0.66030 -0.09000
H 	H 	0.12850 0.57970 0.58770 -0.03100
Zn	Zn	0.38067 0.66539 0.68706 1.23100
Zn	Zn	0.54611 0.83197 0.88630 1.22800
P 	P 	0.32315 0.77119 0.91721 0.45700
O 	O 	0.35690 0.69499 0.86040 -0.45200
O 	O 	0.39600 0.83845 0.89180 -0.49100
O 	O 	0.32010 0.75980 0.06250 -0.45100
C 	C 	0.19750 0.79520 0.84230 -0.30000
H 	H 	0.19910 0.79830 0.74740 0.11600
H 	H 	0.17880 0.84730 0.87250 0.12000
C 	C 	0.11310 0.73740 0.86940 0.00600
H 	H 	0.10480 0.73870 0.96280 0.02600
H 	H 	0.13450 0.68410 0.84800 0.02700
C 	C 	0.01030 0.75650 0.79010 -0.10100
H 	H 	0.01830 0.75120 0.69700 0.05000
H 	H 	0.99310 0.81150 0.80590 0.05000
C 	C 	0.92120 0.70600 0.81970 -0.14600
H 	H 	0.93670 0.65100 0.80140 0.06500
H 	H 	0.91330 0.71030 0.91300 0.06300
C 	C 	0.81980 0.72940 0.73930 0.04100
H 	H 	0.82840 0.72560 0.64610 0.01600
H 	H 	0.80460 0.78440 0.75810 0.01000
C 	C 	0.72880 0.67950 0.76580 -0.31300
H 	H 	0.74260 0.62490 0.74350 0.13400
H 	H 	0.72190 0.68160 0.85960 0.11900
P 	P 	0.60946 0.70993 0.67604 0.46800
O 	O 	0.62490 0.71525 0.53330 -0.46200
O 	O 	0.58030 0.79028 0.72410 -0.46200
O 	O 	0.52810 0.64863 0.69930 -0.46700
P 	P 	0.67217 0.99211 0.92641 0.52500
O 	O 	0.57960 0.94237 0.87630 -0.44500
O 	O 	0.66680 0.01669 0.07040 -0.44600
H 	H 	0.62990 0.05660 0.07210 0.25700
O 	O 	0.68150 0.06267 0.84130 -0.44100
C 	C 	0.78600 0.93460 0.93240 -0.49400
H 	H 	0.79740 0.92090 0.84260 0.17100
H 	H 	0.77460 0.88550 0.97840 0.16300
C 	C 	0.88340 0.97290 0.99850 0.51500
H 	H 	0.87160 0.98710 0.08790 -0.04400
H 	H 	0.89510 0.02170 0.95180 -0.42300
C 	C 	0.97620 0.92610 0.00510 0.34200
H 	H 	0.96310 0.87660 0.04910 -0.02300
H 	H 	0.98840 0.91300 0.91540 -0.09000
C 	C 	0.92480 0.03860 0.92600 0.42500
H 	H 	0.93770 0.93270 0.01440 -0.39600
H 	H 	0.86890 0.99260 0.08400 -0.04800
H 	H 	0.93840 0.01960 0.83970 -0.10000
H 	H 	0.87150 0.07970 0.91230 -0.04000
