data_crystal

_cell_length_a 6.94730
_cell_length_b 21.94790
_cell_length_c 23.18670
_cell_angle_alpha 90.00000
_cell_angle_beta  90.00000
_cell_angle_gamma 90.00000

_symmetry_space_group_name_	'P 1'
_symmetry_space_group_name_H-M	'P 1'

loop_
_symmetry_equiv_pos_as_xyz
  x,y,z

loop_
_atom_site_label
_atom_site_type_symbol
_atom_site_fract_x
_atom_site_fract_y
_atom_site_fract_z
_atom_site_charge
Nd	Nd	0.57770 0.23194 0.05004 2.32500
O 	O 	0.59180 0.30994 0.64948 -0.44100
O 	O 	0.56660 0.21100 0.64111 -0.40600
C 	C 	0.57890 0.25760 0.67230 0.26500
C 	C 	0.57690 0.25110 0.73730 0.07100
C 	C 	0.57350 0.19350 0.76080 -0.19400
H 	H 	0.57150 0.15920 0.73730 0.15400
C 	C 	0.57320 0.18780 0.81980 0.22300
N 	N 	0.52550 0.12600 0.84440 -0.02800
O 	O 	0.56190 0.11710 0.89480 -0.01000
O 	O 	0.45660 0.08570 0.81390 -0.05100
C 	C 	0.57600 0.23670 0.85700 -0.27500
C 	C 	0.57910 0.29560 0.83210 0.13500
H 	H 	0.58050 0.33010 0.85530 -0.03400
C 	C 	0.57990 0.30130 0.77190 -0.16500
H 	H 	0.58260 0.33980 0.75530 0.11000
C 	C 	0.57430 0.23350 0.92071 0.57200
O 	O 	0.41550 0.22670 0.94669 -0.64900
O 	O 	0.72570 0.24156 0.94754 -0.68700
O 	O 	0.29380 0.35226 0.96260 -0.56400
O 	O 	0.54690 0.33601 0.02047 -0.53000
C 	C 	0.42930 0.36990 0.99340 0.48300
C 	C 	0.46370 0.43740 0.99790 -0.07200
C 	C 	0.57070 0.46250 0.04170 -0.19000
H 	H 	0.62100 0.43740 0.07070 0.34400
C 	C 	0.39340 0.47530 0.95590 0.08600
H 	H 	0.32130 0.45930 0.92570 0.02600
N 	N 	0.63020 0.12620 0.84320 -0.00300
O 	O 	0.65520 0.12070 0.89510 -0.10500
O 	O 	0.63110 0.08230 0.81020 -0.05800
N 	N 	0.62000 0.42950 0.09910 -0.25200
O 	O 	0.50100 0.41940 0.13330 -0.01300
O 	O 	0.78300 0.41890 0.10350 -0.06300
Nd	Nd	0.92230 0.76806 0.55004 2.31700
O 	O 	0.90820 0.69006 0.14948 -0.44100
O 	O 	0.93340 0.78900 0.14111 -0.40600
C 	C 	0.92110 0.74240 0.17230 0.26500
C 	C 	0.92310 0.74890 0.23730 0.06900
C 	C 	0.92650 0.80650 0.26080 -0.19400
H 	H 	0.92850 0.84080 0.23730 0.15400
C 	C 	0.92680 0.81220 0.31980 0.22100
N 	N 	0.97450 0.87400 0.34440 -0.03100
O 	O 	0.93810 0.88290 0.39480 -0.00900
O 	O 	0.04340 0.91430 0.31390 -0.04400
C 	C 	0.92400 0.76330 0.35700 -0.27400
C 	C 	0.92090 0.70440 0.33210 0.13300
H 	H 	0.91950 0.66990 0.35530 -0.03300
C 	C 	0.92010 0.69870 0.27190 -0.16400
H 	H 	0.91740 0.66020 0.25530 0.11000
C 	C 	0.92570 0.76650 0.42071 0.56500
O 	O 	0.08450 0.77330 0.44669 -0.64300
O 	O 	0.77430 0.75844 0.44754 -0.68800
O 	O 	0.20620 0.64774 0.46260 -0.56500
O 	O 	0.95310 0.66399 0.52047 -0.53400
C 	C 	0.07070 0.63010 0.49340 0.48800
C 	C 	0.03630 0.56260 0.49790 -0.07200
C 	C 	0.92930 0.53750 0.54170 -0.19200
H 	H 	0.87900 0.56260 0.57070 0.34500
C 	C 	0.10660 0.52470 0.45590 0.08600
H 	H 	0.17870 0.54070 0.42570 0.02600
N 	N 	0.86980 0.87380 0.34320 -0.00100
O 	O 	0.84480 0.87930 0.39510 -0.10700
O 	O 	0.86890 0.91770 0.31020 -0.06200
N 	N 	0.88000 0.57050 0.59910 -0.25300
O 	O 	0.99900 0.58060 0.63330 -0.01400
O 	O 	0.71700 0.58110 0.60350 -0.06400
Nd	Nd	0.42230 0.73194 0.44996 2.32700
O 	O 	0.40820 0.80994 0.85052 -0.44000
O 	O 	0.43340 0.71100 0.85889 -0.40500
C 	C 	0.42110 0.75760 0.82770 0.26600
C 	C 	0.42310 0.75110 0.76270 0.07200
C 	C 	0.42650 0.69350 0.73920 -0.19400
H 	H 	0.42850 0.65920 0.76270 0.15500
C 	C 	0.42680 0.68780 0.68020 0.22400
N 	N 	0.47450 0.62600 0.65560 -0.02700
O 	O 	0.43810 0.61710 0.60520 -0.00800
O 	O 	0.54340 0.58570 0.68610 -0.05000
C 	C 	0.42400 0.73670 0.64300 -0.27400
C 	C 	0.42090 0.79560 0.66790 0.13600
H 	H 	0.41950 0.83010 0.64470 -0.03300
C 	C 	0.42010 0.80130 0.72810 -0.16400
H 	H 	0.41740 0.83980 0.74470 0.11100
C 	C 	0.42570 0.73350 0.57929 0.57200
O 	O 	0.58450 0.72670 0.55331 -0.65000
O 	O 	0.27430 0.74156 0.55246 -0.68800
O 	O 	0.70620 0.85226 0.53740 -0.56400
O 	O 	0.45310 0.83601 0.47953 -0.53000
C 	C 	0.57070 0.86990 0.50660 0.48200
C 	C 	0.53630 0.93740 0.50210 -0.07300
C 	C 	0.42930 0.96250 0.45830 -0.18900
H 	H 	0.37900 0.93740 0.42930 0.34400
C 	C 	0.60660 0.97530 0.54410 0.08500
H 	H 	0.67870 0.95930 0.57430 0.02500
N 	N 	0.36980 0.62620 0.65680 -0.00300
O 	O 	0.34480 0.62070 0.60490 -0.10600
O 	O 	0.36890 0.58230 0.68980 -0.05900
N 	N 	0.38000 0.92950 0.40090 -0.25200
O 	O 	0.49900 0.91940 0.36670 -0.01300
O 	O 	0.21700 0.91890 0.39650 -0.06300
Nd	Nd	0.07770 0.26806 0.94996 2.31700
O 	O 	0.09180 0.19006 0.35052 -0.44100
O 	O 	0.06660 0.28900 0.35889 -0.40600
C 	C 	0.07890 0.24240 0.32770 0.26500
C 	C 	0.07690 0.24890 0.26270 0.07000
C 	C 	0.07350 0.30650 0.23920 -0.19400
H 	H 	0.07150 0.34080 0.26270 0.15400
C 	C 	0.07320 0.31220 0.18020 0.22100
N 	N 	0.02550 0.37400 0.15560 -0.03000
O 	O 	0.06190 0.38290 0.10520 -0.00800
O 	O 	0.95660 0.41430 0.18610 -0.04600
C 	C 	0.07600 0.26330 0.14300 -0.27400
C 	C 	0.07910 0.20440 0.16790 0.13300
H 	H 	0.08050 0.16990 0.14470 -0.03400
C 	C 	0.07990 0.19870 0.22810 -0.16400
H 	H 	0.08260 0.16020 0.24470 0.10900
C 	C 	0.07430 0.26650 0.07929 0.56600
O 	O 	0.91550 0.27330 0.05331 -0.64400
O 	O 	0.22570 0.25844 0.05246 -0.68900
O 	O 	0.79380 0.14774 0.03740 -0.56500
O 	O 	0.04690 0.16399 0.97953 -0.53300
C 	C 	0.92930 0.13010 0.00660 0.48800
C 	C 	0.96370 0.06260 0.00210 -0.07200
C 	C 	0.07070 0.03750 0.95830 -0.19100
H 	H 	0.12100 0.06260 0.92930 0.34400
C 	C 	0.89340 0.02470 0.04410 0.08500
H 	H 	0.82130 0.04070 0.07430 0.02600
N 	N 	0.13020 0.37380 0.15680 -0.00100
O 	O 	0.15520 0.37930 0.10490 -0.10800
O 	O 	0.13110 0.41770 0.18980 -0.06100
N 	N 	0.12000 0.07050 0.90090 -0.25200
O 	O 	0.00100 0.08060 0.86670 -0.01500
O 	O 	0.28300 0.08110 0.89650 -0.06400
Nd	Nd	0.42230 0.76806 0.94996 2.32600
O 	O 	0.40820 0.69006 0.35052 -0.44000
O 	O 	0.43340 0.78900 0.35889 -0.40500
C 	C 	0.42110 0.74240 0.32770 0.26600
C 	C 	0.42310 0.74890 0.26270 0.07200
C 	C 	0.42650 0.80650 0.23920 -0.19300
H 	H 	0.42850 0.84080 0.26270 0.15500
C 	C 	0.42680 0.81220 0.18020 0.22400
N 	N 	0.47450 0.87400 0.15560 -0.02700
O 	O 	0.43810 0.88290 0.10520 -0.00900
O 	O 	0.54340 0.91430 0.18610 -0.05000
C 	C 	0.42400 0.76330 0.14300 -0.27400
C 	C 	0.42090 0.70440 0.16790 0.13600
H 	H 	0.41950 0.66990 0.14470 -0.03300
C 	C 	0.42010 0.69870 0.22810 -0.16400
H 	H 	0.41740 0.66020 0.24470 0.11100
C 	C 	0.42570 0.76650 0.07929 0.57200
O 	O 	0.58450 0.77330 0.05331 -0.64900
O 	O 	0.27430 0.75844 0.05246 -0.68700
O 	O 	0.70620 0.64774 0.03740 -0.56400
O 	O 	0.45310 0.66399 0.97953 -0.53000
C 	C 	0.57070 0.63010 0.00660 0.48300
C 	C 	0.53630 0.56260 0.00210 -0.07200
C 	C 	0.42930 0.53750 0.95830 -0.19000
H 	H 	0.37900 0.56260 0.92930 0.34400
C 	C 	0.60660 0.52470 0.04410 0.08600
H 	H 	0.67870 0.54070 0.07430 0.02600
N 	N 	0.36980 0.87380 0.15680 -0.00300
O 	O 	0.34480 0.87930 0.10490 -0.10500
O 	O 	0.36890 0.91770 0.18980 -0.05800
N 	N 	0.38000 0.57050 0.90090 -0.25200
O 	O 	0.49900 0.58060 0.86670 -0.01300
O 	O 	0.21700 0.58110 0.89650 -0.06300
Nd	Nd	0.07770 0.23194 0.44996 2.31700
O 	O 	0.09180 0.30994 0.85052 -0.44100
O 	O 	0.06660 0.21100 0.85889 -0.40600
C 	C 	0.07890 0.25760 0.82770 0.26500
C 	C 	0.07690 0.25110 0.76270 0.06900
C 	C 	0.07350 0.19350 0.73920 -0.19400
H 	H 	0.07150 0.15920 0.76270 0.15400
C 	C 	0.07320 0.18780 0.68020 0.22100
N 	N 	0.02550 0.12600 0.65560 -0.03100
O 	O 	0.06190 0.11710 0.60520 -0.00900
O 	O 	0.95660 0.08570 0.68610 -0.04400
C 	C 	0.07600 0.23670 0.64300 -0.27400
C 	C 	0.07910 0.29560 0.66790 0.13300
H 	H 	0.08050 0.33010 0.64470 -0.03300
C 	C 	0.07990 0.30130 0.72810 -0.16400
H 	H 	0.08260 0.33980 0.74470 0.11000
C 	C 	0.07430 0.23350 0.57929 0.56500
O 	O 	0.91550 0.22670 0.55331 -0.64300
O 	O 	0.22570 0.24156 0.55246 -0.68800
O 	O 	0.79380 0.35226 0.53740 -0.56500
O 	O 	0.04690 0.33601 0.47953 -0.53400
C 	C 	0.92930 0.36990 0.50660 0.48800
C 	C 	0.96370 0.43740 0.50210 -0.07200
C 	C 	0.07070 0.46250 0.45830 -0.19200
H 	H 	0.12100 0.43740 0.42930 0.34500
C 	C 	0.89340 0.47530 0.54410 0.08600
H 	H 	0.82130 0.45930 0.57430 0.02600
N 	N 	0.13020 0.12620 0.65680 -0.00100
O 	O 	0.15520 0.12070 0.60490 -0.10700
O 	O 	0.13110 0.08230 0.68980 -0.06200
N 	N 	0.12000 0.42950 0.40090 -0.25300
O 	O 	0.00100 0.41940 0.36670 -0.01400
O 	O 	0.28300 0.41890 0.39650 -0.06400
Nd	Nd	0.57770 0.26806 0.55004 2.32700
O 	O 	0.59180 0.19006 0.14948 -0.44000
O 	O 	0.56660 0.28900 0.14111 -0.40500
C 	C 	0.57890 0.24240 0.17230 0.26600
C 	C 	0.57690 0.24890 0.23730 0.07200
C 	C 	0.57350 0.30650 0.26080 -0.19400
H 	H 	0.57150 0.34080 0.23730 0.15500
C 	C 	0.57320 0.31220 0.31980 0.22400
N 	N 	0.52550 0.37400 0.34440 -0.02700
O 	O 	0.56190 0.38290 0.39480 -0.00800
O 	O 	0.45660 0.41430 0.31390 -0.05000
C 	C 	0.57600 0.26330 0.35700 -0.27400
C 	C 	0.57910 0.20440 0.33210 0.13600
H 	H 	0.58050 0.16990 0.35530 -0.03300
C 	C 	0.57990 0.19870 0.27190 -0.16400
H 	H 	0.58260 0.16020 0.25530 0.11100
C 	C 	0.57430 0.26650 0.42071 0.57200
O 	O 	0.41550 0.27330 0.44669 -0.65000
O 	O 	0.72570 0.25844 0.44754 -0.68800
O 	O 	0.29380 0.14774 0.46260 -0.56400
O 	O 	0.54690 0.16399 0.52047 -0.53000
C 	C 	0.42930 0.13010 0.49340 0.48200
C 	C 	0.46370 0.06260 0.49790 -0.07300
C 	C 	0.57070 0.03750 0.54170 -0.18900
H 	H 	0.62100 0.06260 0.57070 0.34400
C 	C 	0.39340 0.02470 0.45590 0.08500
H 	H 	0.32130 0.04070 0.42570 0.02500
N 	N 	0.63020 0.37380 0.34320 -0.00300
O 	O 	0.65520 0.37930 0.39510 -0.10600
O 	O 	0.63110 0.41770 0.31020 -0.05900
N 	N 	0.62000 0.07050 0.59910 -0.25200
O 	O 	0.50100 0.08060 0.63330 -0.01300
O 	O 	0.78300 0.08110 0.60350 -0.06300
Nd	Nd	0.92230 0.73194 0.05004 2.31700
O 	O 	0.90820 0.80994 0.64948 -0.44100
O 	O 	0.93340 0.71100 0.64111 -0.40600
C 	C 	0.92110 0.75760 0.67230 0.26500
C 	C 	0.92310 0.75110 0.73730 0.07000
C 	C 	0.92650 0.69350 0.76080 -0.19400
H 	H 	0.92850 0.65920 0.73730 0.15400
C 	C 	0.92680 0.68780 0.81980 0.22100
N 	N 	0.97450 0.62600 0.84440 -0.03000
O 	O 	0.93810 0.61710 0.89480 -0.00800
O 	O 	0.04340 0.58570 0.81390 -0.04600
C 	C 	0.92400 0.73670 0.85700 -0.27400
C 	C 	0.92090 0.79560 0.83210 0.13300
H 	H 	0.91950 0.83010 0.85530 -0.03400
C 	C 	0.92010 0.80130 0.77190 -0.16400
H 	H 	0.91740 0.83980 0.75530 0.10900
C 	C 	0.92570 0.73350 0.92071 0.56600
O 	O 	0.08450 0.72670 0.94669 -0.64400
O 	O 	0.77430 0.74156 0.94754 -0.68900
O 	O 	0.20620 0.85226 0.96260 -0.56500
O 	O 	0.95310 0.83601 0.02047 -0.53300
C 	C 	0.07070 0.86990 0.99340 0.48800
C 	C 	0.03630 0.93740 0.99790 -0.07200
C 	C 	0.92930 0.96250 0.04170 -0.19100
H 	H 	0.87900 0.93740 0.07070 0.34400
C 	C 	0.10660 0.97530 0.95590 0.08500
H 	H 	0.17870 0.95930 0.92570 0.02600
N 	N 	0.86980 0.62620 0.84320 -0.00100
O 	O 	0.84480 0.62070 0.89510 -0.10800
O 	O 	0.86890 0.58230 0.81020 -0.06100
N 	N 	0.88000 0.92950 0.09910 -0.25200
O 	O 	0.99900 0.91940 0.13330 -0.01500
O 	O 	0.71700 0.91890 0.10350 -0.06400
