data_crystal

_cell_length_a 6.97370
_cell_length_b 21.96300
_cell_length_c 23.27900
_cell_angle_alpha 90.00000
_cell_angle_beta  90.00000
_cell_angle_gamma 90.00000

_symmetry_space_group_name_	'P 1'
_symmetry_space_group_name_H-M	'P 1'

loop_
_symmetry_equiv_pos_as_xyz
  x,y,z

loop_
_atom_site_label
_atom_site_type_symbol
_atom_site_fract_x
_atom_site_fract_y
_atom_site_fract_z
_atom_site_charge
Pr	Pr	0.57816 0.23208 0.05066 2.07200
O 	O 	0.59510 0.30910 0.65130 -0.40900
O 	O 	0.56330 0.20980 0.64180 -0.38000
C 	C 	0.57750 0.25660 0.67360 0.25100
C 	C 	0.57700 0.25030 0.73790 0.05600
C 	C 	0.56710 0.19180 0.76100 -0.17000
H 	H 	0.55960 0.15760 0.73750 0.14300
C 	C 	0.56880 0.18670 0.82010 0.21200
N 	N 	0.51400 0.12640 0.84410 -0.14100
O 	O 	0.55900 0.11660 0.89440 0.34300
O 	O 	0.43900 0.08610 0.81580 -0.05300
C 	C 	0.57320 0.23610 0.85750 -0.23800
C 	C 	0.58550 0.29450 0.83280 0.09800
H 	H 	0.59470 0.32910 0.85570 -0.00900
C 	C 	0.58360 0.29890 0.77270 -0.13300
H 	H 	0.58710 0.33740 0.75620 0.10100
C 	C 	0.57190 0.23200 0.92050 0.48800
O 	O 	0.41580 0.22540 0.94670 -0.59900
O 	O 	0.72680 0.23980 0.94741 -0.60900
O 	O 	0.29460 0.35230 0.96180 -0.51000
O 	O 	0.54750 0.33570 0.01900 -0.48900
C 	C 	0.43100 0.37000 0.99260 0.42700
C 	C 	0.46420 0.43800 0.99790 -0.08700
C 	C 	0.57860 0.46170 0.03940 -0.00400
H 	H 	0.63270 0.43580 0.06660 0.06100
C 	C 	0.38340 0.47630 0.95760 -0.01100
H 	H 	0.30440 0.46090 0.92890 0.05300
N 	N 	0.61400 0.12530 0.84410 0.09100
O 	O 	0.64100 0.12010 0.89540 -0.46000
O 	O 	0.61400 0.08030 0.81210 -0.08000
Pr	Pr	0.92184 0.76792 0.55066 2.07000
O 	O 	0.90490 0.69090 0.15130 -0.41200
O 	O 	0.93670 0.79020 0.14180 -0.38300
C 	C 	0.92250 0.74340 0.17360 0.25100
C 	C 	0.92300 0.74970 0.23790 0.05300
C 	C 	0.93290 0.80820 0.26100 -0.17000
H 	H 	0.94040 0.84240 0.23750 0.14200
C 	C 	0.93120 0.81330 0.32010 0.20900
N 	N 	0.98600 0.87360 0.34410 -0.15000
O 	O 	0.94100 0.88340 0.39440 0.35800
O 	O 	0.06100 0.91390 0.31580 -0.04600
C 	C 	0.92680 0.76390 0.35750 -0.23700
C 	C 	0.91450 0.70550 0.33280 0.09500
H 	H 	0.90530 0.67090 0.35570 -0.01000
C 	C 	0.91640 0.70110 0.27270 -0.13300
H 	H 	0.91290 0.66260 0.25620 0.10000
C 	C 	0.92810 0.76800 0.42050 0.48100
O 	O 	0.08420 0.77460 0.44670 -0.59300
O 	O 	0.77320 0.76020 0.44741 -0.60900
O 	O 	0.20540 0.64770 0.46180 -0.51000
O 	O 	0.95250 0.66430 0.51900 -0.49400
C 	C 	0.06900 0.63000 0.49260 0.43200
C 	C 	0.03580 0.56200 0.49790 -0.08700
C 	C 	0.92140 0.53830 0.53940 -0.00600
H 	H 	0.86730 0.56420 0.56660 0.06100
C 	C 	0.11660 0.52370 0.45760 -0.01100
H 	H 	0.19560 0.53910 0.42890 0.05300
N 	N 	0.88600 0.87470 0.34410 0.09800
O 	O 	0.85900 0.87990 0.39540 -0.47700
O 	O 	0.88600 0.91970 0.31210 -0.08400
Pr	Pr	0.42184 0.73208 0.44934 2.07100
O 	O 	0.40490 0.80910 0.84870 -0.41000
O 	O 	0.43670 0.70980 0.85820 -0.38100
C 	C 	0.42250 0.75660 0.82640 0.25100
C 	C 	0.42300 0.75030 0.76210 0.05600
C 	C 	0.43290 0.69180 0.73900 -0.17000
H 	H 	0.44040 0.65760 0.76250 0.14300
C 	C 	0.43120 0.68670 0.67990 0.21200
N 	N 	0.48600 0.62640 0.65590 -0.14400
O 	O 	0.44100 0.61660 0.60560 0.35200
O 	O 	0.56100 0.58610 0.68420 -0.05200
C 	C 	0.42680 0.73610 0.64250 -0.23800
C 	C 	0.41450 0.79450 0.66720 0.09800
H 	H 	0.40530 0.82910 0.64430 -0.00900
C 	C 	0.41640 0.79890 0.72730 -0.13300
H 	H 	0.41290 0.83740 0.74380 0.10100
C 	C 	0.42810 0.73200 0.57950 0.48800
O 	O 	0.58420 0.72540 0.55330 -0.60000
O 	O 	0.27320 0.73980 0.55259 -0.60900
O 	O 	0.70540 0.85230 0.53820 -0.51000
O 	O 	0.45250 0.83570 0.48100 -0.48900
C 	C 	0.56900 0.87000 0.50740 0.42600
C 	C 	0.53580 0.93800 0.50210 -0.08800
C 	C 	0.42140 0.96170 0.46060 -0.00300
H 	H 	0.36730 0.93580 0.43340 0.06100
C 	C 	0.61660 0.97630 0.54240 -0.01200
H 	H 	0.69560 0.96090 0.57110 0.05300
N 	N 	0.38600 0.62530 0.65590 0.09300
O 	O 	0.35900 0.62010 0.60460 -0.47000
O 	O 	0.38600 0.58030 0.68790 -0.08000
Pr	Pr	0.07816 0.26792 0.94934 2.07000
O 	O 	0.09510 0.19090 0.34870 -0.41200
O 	O 	0.06330 0.29020 0.35820 -0.38300
C 	C 	0.07750 0.24340 0.32640 0.25100
C 	C 	0.07700 0.24970 0.26210 0.05400
C 	C 	0.06710 0.30820 0.23900 -0.17000
H 	H 	0.05960 0.34240 0.26250 0.14200
C 	C 	0.06880 0.31330 0.17990 0.21000
N 	N 	0.01400 0.37360 0.15590 -0.15000
O 	O 	0.05900 0.38340 0.10560 0.36100
O 	O 	0.93900 0.41390 0.18420 -0.04800
C 	C 	0.07320 0.26390 0.14250 -0.23800
C 	C 	0.08550 0.20550 0.16720 0.09500
H 	H 	0.09470 0.17090 0.14430 -0.01000
C 	C 	0.08360 0.20110 0.22730 -0.13300
H 	H 	0.08710 0.16260 0.24380 0.10000
C 	C 	0.07190 0.26800 0.07950 0.48200
O 	O 	0.91580 0.27460 0.05330 -0.59400
O 	O 	0.22680 0.26020 0.05259 -0.61000
O 	O 	0.79460 0.14770 0.03820 -0.51000
O 	O 	0.04750 0.16430 0.98100 -0.49300
C 	C 	0.93100 0.13000 0.00740 0.43100
C 	C 	0.96420 0.06200 0.00210 -0.08700
C 	C 	0.07860 0.03830 0.96060 -0.00700
H 	H 	0.13270 0.06420 0.93340 0.06100
C 	C 	0.88340 0.02370 0.04240 -0.01000
H 	H 	0.80440 0.03910 0.07110 0.05300
N 	N 	0.11400 0.37470 0.15590 0.09700
O 	O 	0.14100 0.37990 0.10460 -0.48000
O 	O 	0.11400 0.41970 0.18790 -0.08300
Pr	Pr	0.42184 0.76792 0.94934 2.07100
O 	O 	0.40490 0.69090 0.34870 -0.41000
O 	O 	0.43670 0.79020 0.35820 -0.38000
C 	C 	0.42250 0.74340 0.32640 0.25100
C 	C 	0.42300 0.74970 0.26210 0.05600
C 	C 	0.43290 0.80820 0.23900 -0.17000
H 	H 	0.44040 0.84240 0.26250 0.14300
C 	C 	0.43120 0.81330 0.17990 0.21200
N 	N 	0.48600 0.87360 0.15590 -0.14100
O 	O 	0.44100 0.88340 0.10560 0.34300
O 	O 	0.56100 0.91390 0.18420 -0.05300
C 	C 	0.42680 0.76390 0.14250 -0.23800
C 	C 	0.41450 0.70550 0.16720 0.09800
H 	H 	0.40530 0.67090 0.14430 -0.00900
C 	C 	0.41640 0.70110 0.22730 -0.13300
H 	H 	0.41290 0.66260 0.24380 0.10100
C 	C 	0.42810 0.76800 0.07950 0.48800
O 	O 	0.58420 0.77460 0.05330 -0.59900
O 	O 	0.27320 0.76020 0.05259 -0.60900
O 	O 	0.70540 0.64770 0.03820 -0.51000
O 	O 	0.45250 0.66430 0.98100 -0.48900
C 	C 	0.56900 0.63000 0.00740 0.42700
C 	C 	0.53580 0.56200 0.00210 -0.08700
C 	C 	0.42140 0.53830 0.96060 -0.00400
H 	H 	0.36730 0.56420 0.93340 0.06100
C 	C 	0.61660 0.52370 0.04240 -0.01100
H 	H 	0.69560 0.53910 0.07110 0.05300
N 	N 	0.38600 0.87470 0.15590 0.09100
O 	O 	0.35900 0.87990 0.10460 -0.46000
O 	O 	0.38600 0.91970 0.18790 -0.08000
Pr	Pr	0.07816 0.23208 0.44934 2.07000
O 	O 	0.09510 0.30910 0.84870 -0.41200
O 	O 	0.06330 0.20980 0.85820 -0.38300
C 	C 	0.07750 0.25660 0.82640 0.25100
C 	C 	0.07700 0.25030 0.76210 0.05300
C 	C 	0.06710 0.19180 0.73900 -0.17000
H 	H 	0.05960 0.15760 0.76250 0.14200
C 	C 	0.06880 0.18670 0.67990 0.20900
N 	N 	0.01400 0.12640 0.65590 -0.15000
O 	O 	0.05900 0.11660 0.60560 0.35800
O 	O 	0.93900 0.08610 0.68420 -0.04600
C 	C 	0.07320 0.23610 0.64250 -0.23700
C 	C 	0.08550 0.29450 0.66720 0.09500
H 	H 	0.09470 0.32910 0.64430 -0.01000
C 	C 	0.08360 0.29890 0.72730 -0.13300
H 	H 	0.08710 0.33740 0.74380 0.10000
C 	C 	0.07190 0.23200 0.57950 0.48100
O 	O 	0.91580 0.22540 0.55330 -0.59300
O 	O 	0.22680 0.23980 0.55259 -0.60900
O 	O 	0.79460 0.35230 0.53820 -0.51000
O 	O 	0.04750 0.33570 0.48100 -0.49400
C 	C 	0.93100 0.37000 0.50740 0.43200
C 	C 	0.96420 0.43800 0.50210 -0.08700
C 	C 	0.07860 0.46170 0.46060 -0.00600
H 	H 	0.13270 0.43580 0.43340 0.06100
C 	C 	0.88340 0.47630 0.54240 -0.01100
H 	H 	0.80440 0.46090 0.57110 0.05300
N 	N 	0.11400 0.12530 0.65590 0.09800
O 	O 	0.14100 0.12010 0.60460 -0.47700
O 	O 	0.11400 0.08030 0.68790 -0.08400
Pr	Pr	0.57816 0.26792 0.55066 2.07100
O 	O 	0.59510 0.19090 0.15130 -0.41000
O 	O 	0.56330 0.29020 0.14180 -0.38100
C 	C 	0.57750 0.24340 0.17360 0.25100
C 	C 	0.57700 0.24970 0.23790 0.05600
C 	C 	0.56710 0.30820 0.26100 -0.17000
H 	H 	0.55960 0.34240 0.23750 0.14300
C 	C 	0.56880 0.31330 0.32010 0.21200
N 	N 	0.51400 0.37360 0.34410 -0.14400
O 	O 	0.55900 0.38340 0.39440 0.35200
O 	O 	0.43900 0.41390 0.31580 -0.05200
C 	C 	0.57320 0.26390 0.35750 -0.23800
C 	C 	0.58550 0.20550 0.33280 0.09800
H 	H 	0.59470 0.17090 0.35570 -0.00900
C 	C 	0.58360 0.20110 0.27270 -0.13300
H 	H 	0.58710 0.16260 0.25620 0.10100
C 	C 	0.57190 0.26800 0.42050 0.48800
O 	O 	0.41580 0.27460 0.44670 -0.60000
O 	O 	0.72680 0.26020 0.44741 -0.60900
O 	O 	0.29460 0.14770 0.46180 -0.51000
O 	O 	0.54750 0.16430 0.51900 -0.48900
C 	C 	0.43100 0.13000 0.49260 0.42600
C 	C 	0.46420 0.06200 0.49790 -0.08800
C 	C 	0.57860 0.03830 0.53940 -0.00300
H 	H 	0.63270 0.06420 0.56660 0.06100
C 	C 	0.38340 0.02370 0.45760 -0.01200
H 	H 	0.30440 0.03910 0.42890 0.05300
N 	N 	0.61400 0.37470 0.34410 0.09300
O 	O 	0.64100 0.37990 0.39540 -0.47000
O 	O 	0.61400 0.41970 0.31210 -0.08000
Pr	Pr	0.92184 0.73208 0.05066 2.07000
O 	O 	0.90490 0.80910 0.65130 -0.41200
O 	O 	0.93670 0.70980 0.64180 -0.38300
C 	C 	0.92250 0.75660 0.67360 0.25100
C 	C 	0.92300 0.75030 0.73790 0.05400
C 	C 	0.93290 0.69180 0.76100 -0.17000
H 	H 	0.94040 0.65760 0.73750 0.14200
C 	C 	0.93120 0.68670 0.82010 0.21000
N 	N 	0.98600 0.62640 0.84410 -0.15000
O 	O 	0.94100 0.61660 0.89440 0.36100
O 	O 	0.06100 0.58610 0.81580 -0.04800
C 	C 	0.92680 0.73610 0.85750 -0.23800
C 	C 	0.91450 0.79450 0.83280 0.09500
H 	H 	0.90530 0.82910 0.85570 -0.01000
C 	C 	0.91640 0.79890 0.77270 -0.13300
H 	H 	0.91290 0.83740 0.75620 0.10000
C 	C 	0.92810 0.73200 0.92050 0.48200
O 	O 	0.08420 0.72540 0.94670 -0.59400
O 	O 	0.77320 0.73980 0.94741 -0.61000
O 	O 	0.20540 0.85230 0.96180 -0.51000
O 	O 	0.95250 0.83570 0.01900 -0.49300
C 	C 	0.06900 0.87000 0.99260 0.43100
C 	C 	0.03580 0.93800 0.99790 -0.08700
C 	C 	0.92140 0.96170 0.03940 -0.00700
H 	H 	0.86730 0.93580 0.06660 0.06100
C 	C 	0.11660 0.97630 0.95760 -0.01000
H 	H 	0.19560 0.96090 0.92890 0.05300
N 	N 	0.88600 0.62530 0.84410 0.09700
O 	O 	0.85900 0.62010 0.89540 -0.48000
O 	O 	0.88600 0.58030 0.81210 -0.08300
