data_crystal

_cell_length_a 6.83910
_cell_length_b 21.74470
_cell_length_c 22.92990
_cell_angle_alpha 90.00000
_cell_angle_beta  90.00000
_cell_angle_gamma 90.00000

_symmetry_space_group_name_	'P 1'
_symmetry_space_group_name_H-M	'P 1'

loop_
_symmetry_equiv_pos_as_xyz
  x,y,z

loop_
_atom_site_label
_atom_site_type_symbol
_atom_site_fract_x
_atom_site_fract_y
_atom_site_fract_z
_atom_site_charge
Gd	Gd	0.57145 0.23258 0.04897 1.66400
O 	O 	0.59390 0.30876 0.64714 -0.37000
O 	O 	0.55760 0.20977 0.63863 -0.33600
C 	C 	0.57440 0.25650 0.66996 0.26900
C 	C 	0.57100 0.25050 0.73489 0.04600
C 	C 	0.55890 0.19180 0.75939 -0.16400
H 	H 	0.55180 0.15710 0.73580 0.14600
C 	C 	0.55760 0.18650 0.81923 0.19500
N 	N 	0.50160 0.12470 0.84410 0.01900
O 	O 	0.54410 0.11580 0.89480 -0.13000
O 	O 	0.43560 0.08500 0.81420 -0.05300
C 	C 	0.56840 0.23720 0.85553 -0.21500
C 	C 	0.57970 0.29510 0.83090 0.10600
H 	H 	0.58580 0.32980 0.85450 -0.00500
C 	C 	0.58170 0.30100 0.77022 -0.13100
H 	H 	0.59050 0.34000 0.75360 0.10400
C 	C 	0.56610 0.23345 0.92080 0.48300
O 	O 	0.40740 0.22742 0.94708 -0.50800
O 	O 	0.72450 0.24073 0.94778 -0.52700
O 	O 	0.28050 0.35234 0.96363 -0.45200
O 	O 	0.54270 0.33506 0.01910 -0.43000
C 	C 	0.42310 0.36961 0.99319 0.43800
C 	C 	0.45940 0.43742 0.99730 -0.07900
C 	C 	0.57960 0.46100 0.03990 -0.05600
H 	H 	0.63400 0.43460 0.06790 0.17300
C 	C 	0.38170 0.47680 0.95730 0.03000
H 	H 	0.30200 0.46150 0.92780 0.05500
N 	N 	0.60500 0.12470 0.84290 -0.03800
O 	O 	0.62420 0.11850 0.89500 0.03600
O 	O 	0.60360 0.08030 0.80930 -0.04700
N 	N 	0.59500 0.42980 0.10230 -0.09400
O 	O 	0.44300 0.41590 0.13540 -0.05500
O 	O 	0.75700 0.42230 0.11600 -0.07200
Gd	Gd	0.92855 0.76742 0.54897 1.66000
O 	O 	0.90610 0.69124 0.14714 -0.37000
O 	O 	0.94240 0.79023 0.13863 -0.33700
C 	C 	0.92560 0.74350 0.16996 0.27000
C 	C 	0.92900 0.74950 0.23489 0.04400
C 	C 	0.94110 0.80820 0.25939 -0.16300
H 	H 	0.94820 0.84290 0.23580 0.14600
C 	C 	0.94240 0.81350 0.31923 0.19400
N 	N 	0.99840 0.87530 0.34410 0.01600
O 	O 	0.95590 0.88420 0.39480 -0.13100
O 	O 	0.06440 0.91500 0.31420 -0.04700
C 	C 	0.93160 0.76280 0.35553 -0.21400
C 	C 	0.92030 0.70490 0.33090 0.10300
H 	H 	0.91420 0.67020 0.35450 -0.00500
C 	C 	0.91830 0.69900 0.27022 -0.13100
H 	H 	0.90950 0.66000 0.25360 0.10200
C 	C 	0.93390 0.76655 0.42080 0.47700
O 	O 	0.09260 0.77258 0.44708 -0.50300
O 	O 	0.77550 0.75927 0.44778 -0.52800
O 	O 	0.21950 0.64766 0.46363 -0.45300
O 	O 	0.95730 0.66494 0.51910 -0.43300
C 	C 	0.07690 0.63039 0.49319 0.44200
C 	C 	0.04060 0.56258 0.49730 -0.07900
C 	C 	0.92040 0.53900 0.53990 -0.05900
H 	H 	0.86600 0.56540 0.56790 0.17400
C 	C 	0.11830 0.52320 0.45730 0.03000
H 	H 	0.19800 0.53850 0.42780 0.05500
N 	N 	0.89500 0.87530 0.34290 -0.03600
O 	O 	0.87580 0.88150 0.39500 0.03600
O 	O 	0.89640 0.91970 0.30930 -0.05000
N 	N 	0.90500 0.57020 0.60230 -0.09500
O 	O 	0.05700 0.58410 0.63540 -0.05400
O 	O 	0.74300 0.57770 0.61600 -0.07200
Gd	Gd	0.42855 0.73258 0.45103 1.66500
O 	O 	0.40610 0.80876 0.85286 -0.36900
O 	O 	0.44240 0.70977 0.86137 -0.33500
C 	C 	0.42560 0.75650 0.83004 0.27000
C 	C 	0.42900 0.75050 0.76511 0.04700
C 	C 	0.44110 0.69180 0.74061 -0.16300
H 	H 	0.44820 0.65710 0.76420 0.14700
C 	C 	0.44240 0.68650 0.68077 0.19600
N 	N 	0.49840 0.62470 0.65590 0.02000
O 	O 	0.45590 0.61580 0.60520 -0.13000
O 	O 	0.56440 0.58500 0.68580 -0.05200
C 	C 	0.43160 0.73720 0.64447 -0.21400
C 	C 	0.42030 0.79510 0.66910 0.10600
H 	H 	0.41420 0.82980 0.64550 -0.00500
C 	C 	0.41830 0.80100 0.72978 -0.13100
H 	H 	0.40950 0.84000 0.74640 0.10300
C 	C 	0.43390 0.73345 0.57920 0.48300
O 	O 	0.59260 0.72742 0.55292 -0.50800
O 	O 	0.27550 0.74073 0.55222 -0.52800
O 	O 	0.71950 0.85234 0.53637 -0.45200
O 	O 	0.45730 0.83506 0.48090 -0.43000
C 	C 	0.57690 0.86961 0.50681 0.43700
C 	C 	0.54060 0.93742 0.50270 -0.08000
C 	C 	0.42040 0.96100 0.46010 -0.05600
H 	H 	0.36600 0.93460 0.43210 0.17300
C 	C 	0.61830 0.97680 0.54270 0.02900
H 	H 	0.69800 0.96150 0.57220 0.05500
N 	N 	0.39500 0.62470 0.65710 -0.03800
O 	O 	0.37580 0.61850 0.60500 0.03700
O 	O 	0.39640 0.58030 0.69070 -0.04700
N 	N 	0.40500 0.92980 0.39770 -0.09400
O 	O 	0.55700 0.91590 0.36460 -0.05500
O 	O 	0.24300 0.92230 0.38400 -0.07100
Gd	Gd	0.07145 0.26742 0.95103 1.66000
O 	O 	0.09390 0.19124 0.35286 -0.37000
O 	O 	0.05760 0.29023 0.36137 -0.33600
C 	C 	0.07440 0.24350 0.33004 0.27000
C 	C 	0.07100 0.24950 0.26511 0.04500
C 	C 	0.05890 0.30820 0.24061 -0.16300
H 	H 	0.05180 0.34290 0.26420 0.14600
C 	C 	0.05760 0.31350 0.18077 0.19400
N 	N 	0.00160 0.37530 0.15590 0.01800
O 	O 	0.04410 0.38420 0.10520 -0.13100
O 	O 	0.93560 0.41500 0.18580 -0.04900
C 	C 	0.06840 0.26280 0.14447 -0.21400
C 	C 	0.07970 0.20490 0.16910 0.10400
H 	H 	0.08580 0.17020 0.14550 -0.00500
C 	C 	0.08170 0.19900 0.22978 -0.13200
H 	H 	0.09050 0.16000 0.24640 0.10200
C 	C 	0.06610 0.26655 0.07920 0.47800
O 	O 	0.90740 0.27258 0.05292 -0.50400
O 	O 	0.22450 0.25927 0.05222 -0.52900
O 	O 	0.78050 0.14766 0.03637 -0.45300
O 	O 	0.04270 0.16494 0.98090 -0.43300
C 	C 	0.92310 0.13039 0.00681 0.44200
C 	C 	0.95940 0.06258 0.00270 -0.07900
C 	C 	0.07960 0.03900 0.96010 -0.05800
H 	H 	0.13400 0.06540 0.93210 0.17400
C 	C 	0.88170 0.02320 0.04270 0.03000
H 	H 	0.80200 0.03850 0.07220 0.05500
N 	N 	0.10500 0.37530 0.15710 -0.03700
O 	O 	0.12420 0.38150 0.10500 0.03700
O 	O 	0.10360 0.41970 0.19070 -0.04900
N 	N 	0.09500 0.07020 0.89770 -0.09600
O 	O 	0.94300 0.08410 0.86460 -0.05200
O 	O 	0.25700 0.07770 0.88400 -0.07200
Gd	Gd	0.42855 0.76742 0.95103 1.66500
O 	O 	0.40610 0.69124 0.35286 -0.36900
O 	O 	0.44240 0.79023 0.36137 -0.33500
C 	C 	0.42560 0.74350 0.33004 0.27000
C 	C 	0.42900 0.74950 0.26511 0.04700
C 	C 	0.44110 0.80820 0.24061 -0.16300
H 	H 	0.44820 0.84290 0.26420 0.14700
C 	C 	0.44240 0.81350 0.18077 0.19600
N 	N 	0.49840 0.87530 0.15590 0.02000
O 	O 	0.45590 0.88420 0.10520 -0.12900
O 	O 	0.56440 0.91500 0.18580 -0.05200
C 	C 	0.43160 0.76280 0.14447 -0.21400
C 	C 	0.42030 0.70490 0.16910 0.10600
H 	H 	0.41420 0.67020 0.14550 -0.00500
C 	C 	0.41830 0.69900 0.22978 -0.13100
H 	H 	0.40950 0.66000 0.24640 0.10400
C 	C 	0.43390 0.76655 0.07920 0.48300
O 	O 	0.59260 0.77258 0.05292 -0.50800
O 	O 	0.27550 0.75927 0.05222 -0.52700
O 	O 	0.71950 0.64766 0.03637 -0.45200
O 	O 	0.45730 0.66494 0.98090 -0.43000
C 	C 	0.57690 0.63039 0.00681 0.43800
C 	C 	0.54060 0.56258 0.00270 -0.07900
C 	C 	0.42040 0.53900 0.96010 -0.05600
H 	H 	0.36600 0.56540 0.93210 0.17300
C 	C 	0.61830 0.52320 0.04270 0.03000
H 	H 	0.69800 0.53850 0.07220 0.05500
N 	N 	0.39500 0.87530 0.15710 -0.03800
O 	O 	0.37580 0.88150 0.10500 0.03600
O 	O 	0.39640 0.91970 0.19070 -0.04700
N 	N 	0.40500 0.57020 0.89770 -0.09400
O 	O 	0.55700 0.58410 0.86460 -0.05500
O 	O 	0.24300 0.57770 0.88400 -0.07200
Gd	Gd	0.07145 0.23258 0.45103 1.66000
O 	O 	0.09390 0.30876 0.85286 -0.37000
O 	O 	0.05760 0.20977 0.86137 -0.33700
C 	C 	0.07440 0.25650 0.83004 0.27000
C 	C 	0.07100 0.25050 0.76511 0.04400
C 	C 	0.05890 0.19180 0.74061 -0.16300
H 	H 	0.05180 0.15710 0.76420 0.14600
C 	C 	0.05760 0.18650 0.68077 0.19400
N 	N 	0.00160 0.12470 0.65590 0.01600
O 	O 	0.04410 0.11580 0.60520 -0.13100
O 	O 	0.93560 0.08500 0.68580 -0.04700
C 	C 	0.06840 0.23720 0.64447 -0.21400
C 	C 	0.07970 0.29510 0.66910 0.10300
H 	H 	0.08580 0.32980 0.64550 -0.00500
C 	C 	0.08170 0.30100 0.72978 -0.13100
H 	H 	0.09050 0.34000 0.74640 0.10200
C 	C 	0.06610 0.23345 0.57920 0.47700
O 	O 	0.90740 0.22742 0.55292 -0.50300
O 	O 	0.22450 0.24073 0.55222 -0.52800
O 	O 	0.78050 0.35234 0.53637 -0.45300
O 	O 	0.04270 0.33506 0.48090 -0.43300
C 	C 	0.92310 0.36961 0.50681 0.44200
C 	C 	0.95940 0.43742 0.50270 -0.07900
C 	C 	0.07960 0.46100 0.46010 -0.05900
H 	H 	0.13400 0.43460 0.43210 0.17400
C 	C 	0.88170 0.47680 0.54270 0.03000
H 	H 	0.80200 0.46150 0.57220 0.05500
N 	N 	0.10500 0.12470 0.65710 -0.03600
O 	O 	0.12420 0.11850 0.60500 0.03600
O 	O 	0.10360 0.08030 0.69070 -0.05000
N 	N 	0.09500 0.42980 0.39770 -0.09500
O 	O 	0.94300 0.41590 0.36460 -0.05400
O 	O 	0.25700 0.42230 0.38400 -0.07200
Gd	Gd	0.57145 0.26742 0.54897 1.66500
O 	O 	0.59390 0.19124 0.14714 -0.36900
O 	O 	0.55760 0.29023 0.13863 -0.33500
C 	C 	0.57440 0.24350 0.16996 0.27000
C 	C 	0.57100 0.24950 0.23489 0.04700
C 	C 	0.55890 0.30820 0.25939 -0.16300
H 	H 	0.55180 0.34290 0.23580 0.14700
C 	C 	0.55760 0.31350 0.31923 0.19600
N 	N 	0.50160 0.37530 0.34410 0.02000
O 	O 	0.54410 0.38420 0.39480 -0.13000
O 	O 	0.43560 0.41500 0.31420 -0.05200
C 	C 	0.56840 0.26280 0.35553 -0.21400
C 	C 	0.57970 0.20490 0.33090 0.10600
H 	H 	0.58580 0.17020 0.35450 -0.00500
C 	C 	0.58170 0.19900 0.27022 -0.13100
H 	H 	0.59050 0.16000 0.25360 0.10300
C 	C 	0.56610 0.26655 0.42080 0.48300
O 	O 	0.40740 0.27258 0.44708 -0.50800
O 	O 	0.72450 0.25927 0.44778 -0.52800
O 	O 	0.28050 0.14766 0.46363 -0.45200
O 	O 	0.54270 0.16494 0.51910 -0.43000
C 	C 	0.42310 0.13039 0.49319 0.43700
C 	C 	0.45940 0.06258 0.49730 -0.08000
C 	C 	0.57960 0.03900 0.53990 -0.05600
H 	H 	0.63400 0.06540 0.56790 0.17300
C 	C 	0.38170 0.02320 0.45730 0.02900
H 	H 	0.30200 0.03850 0.42780 0.05500
N 	N 	0.60500 0.37530 0.34290 -0.03800
O 	O 	0.62420 0.38150 0.39500 0.03700
O 	O 	0.60360 0.41970 0.30930 -0.04700
N 	N 	0.59500 0.07020 0.60230 -0.09400
O 	O 	0.44300 0.08410 0.63540 -0.05500
O 	O 	0.75700 0.07770 0.61600 -0.07100
Gd	Gd	0.92855 0.73258 0.04897 1.66000
O 	O 	0.90610 0.80876 0.64714 -0.37000
O 	O 	0.94240 0.70977 0.63863 -0.33600
C 	C 	0.92560 0.75650 0.66996 0.27000
C 	C 	0.92900 0.75050 0.73489 0.04500
C 	C 	0.94110 0.69180 0.75939 -0.16300
H 	H 	0.94820 0.65710 0.73580 0.14600
C 	C 	0.94240 0.68650 0.81923 0.19400
N 	N 	0.99840 0.62470 0.84410 0.01800
O 	O 	0.95590 0.61580 0.89480 -0.13100
O 	O 	0.06440 0.58500 0.81420 -0.04900
C 	C 	0.93160 0.73720 0.85553 -0.21400
C 	C 	0.92030 0.79510 0.83090 0.10400
H 	H 	0.91420 0.82980 0.85450 -0.00500
C 	C 	0.91830 0.80100 0.77022 -0.13200
H 	H 	0.90950 0.84000 0.75360 0.10200
C 	C 	0.93390 0.73345 0.92080 0.47800
O 	O 	0.09260 0.72742 0.94708 -0.50400
O 	O 	0.77550 0.74073 0.94778 -0.52900
O 	O 	0.21950 0.85234 0.96363 -0.45300
O 	O 	0.95730 0.83506 0.01910 -0.43300
C 	C 	0.07690 0.86961 0.99319 0.44200
C 	C 	0.04060 0.93742 0.99730 -0.07900
C 	C 	0.92040 0.96100 0.03990 -0.05800
H 	H 	0.86600 0.93460 0.06790 0.17400
C 	C 	0.11830 0.97680 0.95730 0.03000
H 	H 	0.19800 0.96150 0.92780 0.05500
N 	N 	0.89500 0.62470 0.84290 -0.03700
O 	O 	0.87580 0.61850 0.89500 0.03700
O 	O 	0.89640 0.58030 0.80930 -0.04900
N 	N 	0.90500 0.92980 0.10230 -0.09600
O 	O 	0.05700 0.91590 0.13540 -0.05200
O 	O 	0.74300 0.92230 0.11600 -0.07200
