data_crystal

_cell_length_a 6.89040
_cell_length_b 21.82110
_cell_length_c 23.06420
_cell_angle_alpha 90.00000
_cell_angle_beta  90.00000
_cell_angle_gamma 90.00000

_symmetry_space_group_name_	'P 1'
_symmetry_space_group_name_H-M	'P 1'

loop_
_symmetry_equiv_pos_as_xyz
  x,y,z

loop_
_atom_site_label
_atom_site_type_symbol
_atom_site_fract_x
_atom_site_fract_y
_atom_site_fract_z
_atom_site_charge
Sm	Sm	0.57470 0.23229 0.04955 2.15300
O 	O 	0.59280 0.30930 0.64840 -0.42700
O 	O 	0.56090 0.21050 0.63980 -0.39000
C 	C 	0.57820 0.25720 0.67100 0.27400
C 	C 	0.57270 0.25180 0.73680 0.05900
C 	C 	0.56600 0.19190 0.76000 -0.17800
H 	H 	0.56260 0.15750 0.73610 0.15100
C 	C 	0.56480 0.18670 0.81920 0.21000
N 	N 	0.51000 0.12470 0.84360 -0.02700
O 	O 	0.55200 0.11600 0.89490 0.01100
O 	O 	0.44100 0.08580 0.81400 -0.04800
C 	C 	0.57180 0.23690 0.85640 -0.24900
C 	C 	0.57940 0.29550 0.83270 0.12200
H 	H 	0.58390 0.33000 0.85640 -0.02300
C 	C 	0.58030 0.30080 0.77140 -0.14900
H 	H 	0.58620 0.33960 0.75490 0.10700
C 	C 	0.57090 0.23280 0.92100 0.54200
O 	O 	0.41240 0.22650 0.94680 -0.61400
O 	O 	0.72690 0.24110 0.94781 -0.64200
O 	O 	0.28720 0.35220 0.96320 -0.54100
O 	O 	0.54450 0.33550 0.01950 -0.51200
C 	C 	0.42620 0.36980 0.99330 0.49200
C 	C 	0.46070 0.43750 0.99760 -0.09900
C 	C 	0.57410 0.46180 0.04110 -0.06600
H 	H 	0.62500 0.43630 0.06990 0.18300
C 	C 	0.38800 0.47600 0.95630 0.04000
H 	H 	0.31260 0.46040 0.92630 0.04500
N 	N 	0.61700 0.12510 0.84310 -0.00100
O 	O 	0.64400 0.11970 0.89520 -0.11600
O 	O 	0.61700 0.08090 0.80950 -0.05600
N 	N 	0.60400 0.43050 0.10500 -0.09700
O 	O 	0.46900 0.41660 0.13420 -0.05100
O 	O 	0.77900 0.41790 0.10380 -0.09800
Sm	Sm	0.92530 0.76771 0.54955 2.14500
O 	O 	0.90720 0.69070 0.14840 -0.42700
O 	O 	0.93910 0.78950 0.13980 -0.39100
C 	C 	0.92180 0.74280 0.17100 0.27500
C 	C 	0.92730 0.74820 0.23680 0.05700
C 	C 	0.93400 0.80810 0.26000 -0.17700
H 	H 	0.93740 0.84250 0.23610 0.15000
C 	C 	0.93520 0.81330 0.31920 0.20800
N 	N 	0.99000 0.87530 0.34360 -0.03000
O 	O 	0.94800 0.88400 0.39490 0.01100
O 	O 	0.05900 0.91420 0.31400 -0.04100
C 	C 	0.92820 0.76310 0.35640 -0.24700
C 	C 	0.92060 0.70450 0.33270 0.11900
H 	H 	0.91610 0.67000 0.35640 -0.02400
C 	C 	0.91970 0.69920 0.27140 -0.14900
H 	H 	0.91380 0.66040 0.25490 0.10600
C 	C 	0.92910 0.76720 0.42100 0.53500
O 	O 	0.08760 0.77350 0.44680 -0.60700
O 	O 	0.77310 0.75890 0.44781 -0.64400
O 	O 	0.21280 0.64780 0.46320 -0.54200
O 	O 	0.95550 0.66450 0.51950 -0.51600
C 	C 	0.07380 0.63020 0.49330 0.49700
C 	C 	0.03930 0.56250 0.49760 -0.09800
C 	C 	0.92590 0.53820 0.54110 -0.07000
H 	H 	0.87500 0.56370 0.56990 0.18400
C 	C 	0.11200 0.52400 0.45630 0.04100
H 	H 	0.18740 0.53960 0.42630 0.04500
N 	N 	0.88300 0.87490 0.34310 0.00100
O 	O 	0.85600 0.88030 0.39520 -0.11700
O 	O 	0.88300 0.91910 0.30950 -0.06000
N 	N 	0.89600 0.56950 0.60500 -0.09900
O 	O 	0.03100 0.58340 0.63420 -0.04800
O 	O 	0.72100 0.58210 0.60380 -0.09900
Sm	Sm	0.42530 0.73229 0.45045 2.15400
O 	O 	0.40720 0.80930 0.85160 -0.42600
O 	O 	0.43910 0.71050 0.86020 -0.38900
C 	C 	0.42180 0.75720 0.82900 0.27500
C 	C 	0.42730 0.75180 0.76320 0.06000
C 	C 	0.43400 0.69190 0.74000 -0.17700
H 	H 	0.43740 0.65750 0.76390 0.15200
C 	C 	0.43520 0.68670 0.68080 0.21100
N 	N 	0.49000 0.62470 0.65640 -0.02600
O 	O 	0.44800 0.61600 0.60510 0.01200
O 	O 	0.55900 0.58580 0.68600 -0.04700
C 	C 	0.42820 0.73690 0.64360 -0.24800
C 	C 	0.42060 0.79550 0.66730 0.12200
H 	H 	0.41610 0.83000 0.64360 -0.02300
C 	C 	0.41970 0.80080 0.72860 -0.14900
H 	H 	0.41380 0.83960 0.74510 0.10700
C 	C 	0.42910 0.73280 0.57900 0.54200
O 	O 	0.58760 0.72650 0.55320 -0.61400
O 	O 	0.27310 0.74110 0.55219 -0.64300
O 	O 	0.71280 0.85220 0.53680 -0.54100
O 	O 	0.45550 0.83550 0.48050 -0.51200
C 	C 	0.57380 0.86980 0.50670 0.49100
C 	C 	0.53930 0.93750 0.50240 -0.09900
C 	C 	0.42590 0.96180 0.45890 -0.06600
H 	H 	0.37500 0.93630 0.43010 0.18200
C 	C 	0.61200 0.97600 0.54370 0.03900
H 	H 	0.68740 0.96040 0.57370 0.04500
N 	N 	0.38300 0.62510 0.65690 -0.00100
O 	O 	0.35600 0.61970 0.60480 -0.11700
O 	O 	0.38300 0.58090 0.69050 -0.05700
N 	N 	0.39600 0.93050 0.39500 -0.09700
O 	O 	0.53100 0.91660 0.36580 -0.05100
O 	O 	0.22100 0.91790 0.39620 -0.09800
Sm	Sm	0.07470 0.26771 0.95045 2.14600
O 	O 	0.09280 0.19070 0.35160 -0.42700
O 	O 	0.06090 0.28950 0.36020 -0.39000
C 	C 	0.07820 0.24280 0.32900 0.27500
C 	C 	0.07270 0.24820 0.26320 0.05700
C 	C 	0.06600 0.30810 0.24000 -0.17700
H 	H 	0.06260 0.34250 0.26390 0.15000
C 	C 	0.06480 0.31330 0.18080 0.20800
N 	N 	0.01000 0.37530 0.15640 -0.02900
O 	O 	0.05200 0.38400 0.10510 0.01200
O 	O 	0.94100 0.41420 0.18600 -0.04300
C 	C 	0.07180 0.26310 0.14360 -0.24800
C 	C 	0.07940 0.20450 0.16730 0.11900
H 	H 	0.08390 0.17000 0.14360 -0.02400
C 	C 	0.08030 0.19920 0.22860 -0.14900
H 	H 	0.08620 0.16040 0.24510 0.10500
C 	C 	0.07090 0.26720 0.07900 0.53600
O 	O 	0.91240 0.27350 0.05320 -0.60800
O 	O 	0.22690 0.25890 0.05219 -0.64400
O 	O 	0.78720 0.14780 0.03680 -0.54200
O 	O 	0.04450 0.16450 0.98050 -0.51600
C 	C 	0.92620 0.13020 0.00670 0.49700
C 	C 	0.96070 0.06250 0.00240 -0.09800
C 	C 	0.07410 0.03820 0.95890 -0.07000
H 	H 	0.12500 0.06370 0.93010 0.18500
C 	C 	0.88800 0.02400 0.04370 0.04000
H 	H 	0.81260 0.03960 0.07370 0.04500
N 	N 	0.11700 0.37490 0.15690 0.00100
O 	O 	0.14400 0.38030 0.10480 -0.11700
O 	O 	0.11700 0.41910 0.19050 -0.05900
N 	N 	0.10400 0.06950 0.89500 -0.10000
O 	O 	0.96900 0.08340 0.86580 -0.04600
O 	O 	0.27900 0.08210 0.89620 -0.09900
Sm	Sm	0.42530 0.76771 0.95045 2.15400
O 	O 	0.40720 0.69070 0.35160 -0.42600
O 	O 	0.43910 0.78950 0.36020 -0.38900
C 	C 	0.42180 0.74280 0.32900 0.27500
C 	C 	0.42730 0.74820 0.26320 0.06000
C 	C 	0.43400 0.80810 0.24000 -0.17700
H 	H 	0.43740 0.84250 0.26390 0.15200
C 	C 	0.43520 0.81330 0.18080 0.21100
N 	N 	0.49000 0.87530 0.15640 -0.02600
O 	O 	0.44800 0.88400 0.10510 0.01200
O 	O 	0.55900 0.91420 0.18600 -0.04700
C 	C 	0.42820 0.76310 0.14360 -0.24800
C 	C 	0.42060 0.70450 0.16730 0.12200
H 	H 	0.41610 0.67000 0.14360 -0.02300
C 	C 	0.41970 0.69920 0.22860 -0.14900
H 	H 	0.41380 0.66040 0.24510 0.10700
C 	C 	0.42910 0.76720 0.07900 0.54200
O 	O 	0.58760 0.77350 0.05320 -0.61400
O 	O 	0.27310 0.75890 0.05219 -0.64200
O 	O 	0.71280 0.64780 0.03680 -0.54100
O 	O 	0.45550 0.66450 0.98050 -0.51200
C 	C 	0.57380 0.63020 0.00670 0.49200
C 	C 	0.53930 0.56250 0.00240 -0.09900
C 	C 	0.42590 0.53820 0.95890 -0.06600
H 	H 	0.37500 0.56370 0.93010 0.18300
C 	C 	0.61200 0.52400 0.04370 0.04000
H 	H 	0.68740 0.53960 0.07370 0.04500
N 	N 	0.38300 0.87490 0.15690 -0.00100
O 	O 	0.35600 0.88030 0.10480 -0.11600
O 	O 	0.38300 0.91910 0.19050 -0.05600
N 	N 	0.39600 0.56950 0.89500 -0.09700
O 	O 	0.53100 0.58340 0.86580 -0.05100
O 	O 	0.22100 0.58210 0.89620 -0.09800
Sm	Sm	0.07470 0.23229 0.45045 2.14500
O 	O 	0.09280 0.30930 0.85160 -0.42700
O 	O 	0.06090 0.21050 0.86020 -0.39100
C 	C 	0.07820 0.25720 0.82900 0.27500
C 	C 	0.07270 0.25180 0.76320 0.05700
C 	C 	0.06600 0.19190 0.74000 -0.17700
H 	H 	0.06260 0.15750 0.76390 0.15000
C 	C 	0.06480 0.18670 0.68080 0.20800
N 	N 	0.01000 0.12470 0.65640 -0.03000
O 	O 	0.05200 0.11600 0.60510 0.01100
O 	O 	0.94100 0.08580 0.68600 -0.04100
C 	C 	0.07180 0.23690 0.64360 -0.24700
C 	C 	0.07940 0.29550 0.66730 0.11900
H 	H 	0.08390 0.33000 0.64360 -0.02400
C 	C 	0.08030 0.30080 0.72860 -0.14900
H 	H 	0.08620 0.33960 0.74510 0.10600
C 	C 	0.07090 0.23280 0.57900 0.53500
O 	O 	0.91240 0.22650 0.55320 -0.60700
O 	O 	0.22690 0.24110 0.55219 -0.64400
O 	O 	0.78720 0.35220 0.53680 -0.54200
O 	O 	0.04450 0.33550 0.48050 -0.51600
C 	C 	0.92620 0.36980 0.50670 0.49700
C 	C 	0.96070 0.43750 0.50240 -0.09800
C 	C 	0.07410 0.46180 0.45890 -0.07000
H 	H 	0.12500 0.43630 0.43010 0.18400
C 	C 	0.88800 0.47600 0.54370 0.04100
H 	H 	0.81260 0.46040 0.57370 0.04500
N 	N 	0.11700 0.12510 0.65690 0.00100
O 	O 	0.14400 0.11970 0.60480 -0.11700
O 	O 	0.11700 0.08090 0.69050 -0.06000
N 	N 	0.10400 0.43050 0.39500 -0.09900
O 	O 	0.96900 0.41660 0.36580 -0.04800
O 	O 	0.27900 0.41790 0.39620 -0.09900
Sm	Sm	0.57470 0.26771 0.54955 2.15400
O 	O 	0.59280 0.19070 0.14840 -0.42600
O 	O 	0.56090 0.28950 0.13980 -0.38900
C 	C 	0.57820 0.24280 0.17100 0.27500
C 	C 	0.57270 0.24820 0.23680 0.06000
C 	C 	0.56600 0.30810 0.26000 -0.17700
H 	H 	0.56260 0.34250 0.23610 0.15200
C 	C 	0.56480 0.31330 0.31920 0.21100
N 	N 	0.51000 0.37530 0.34360 -0.02600
O 	O 	0.55200 0.38400 0.39490 0.01200
O 	O 	0.44100 0.41420 0.31400 -0.04700
C 	C 	0.57180 0.26310 0.35640 -0.24800
C 	C 	0.57940 0.20450 0.33270 0.12200
H 	H 	0.58390 0.17000 0.35640 -0.02300
C 	C 	0.58030 0.19920 0.27140 -0.14900
H 	H 	0.58620 0.16040 0.25490 0.10700
C 	C 	0.57090 0.26720 0.42100 0.54200
O 	O 	0.41240 0.27350 0.44680 -0.61400
O 	O 	0.72690 0.25890 0.44781 -0.64300
O 	O 	0.28720 0.14780 0.46320 -0.54100
O 	O 	0.54450 0.16450 0.51950 -0.51200
C 	C 	0.42620 0.13020 0.49330 0.49100
C 	C 	0.46070 0.06250 0.49760 -0.09900
C 	C 	0.57410 0.03820 0.54110 -0.06600
H 	H 	0.62500 0.06370 0.56990 0.18200
C 	C 	0.38800 0.02400 0.45630 0.03900
H 	H 	0.31260 0.03960 0.42630 0.04500
N 	N 	0.61700 0.37490 0.34310 -0.00100
O 	O 	0.64400 0.38030 0.39520 -0.11700
O 	O 	0.61700 0.41910 0.30950 -0.05700
N 	N 	0.60400 0.06950 0.60500 -0.09700
O 	O 	0.46900 0.08340 0.63420 -0.05100
O 	O 	0.77900 0.08210 0.60380 -0.09800
Sm	Sm	0.92530 0.73229 0.04955 2.14600
O 	O 	0.90720 0.80930 0.64840 -0.42700
O 	O 	0.93910 0.71050 0.63980 -0.39000
C 	C 	0.92180 0.75720 0.67100 0.27500
C 	C 	0.92730 0.75180 0.73680 0.05700
C 	C 	0.93400 0.69190 0.76000 -0.17700
H 	H 	0.93740 0.65750 0.73610 0.15000
C 	C 	0.93520 0.68670 0.81920 0.20800
N 	N 	0.99000 0.62470 0.84360 -0.02900
O 	O 	0.94800 0.61600 0.89490 0.01200
O 	O 	0.05900 0.58580 0.81400 -0.04300
C 	C 	0.92820 0.73690 0.85640 -0.24800
C 	C 	0.92060 0.79550 0.83270 0.11900
H 	H 	0.91610 0.83000 0.85640 -0.02400
C 	C 	0.91970 0.80080 0.77140 -0.14900
H 	H 	0.91380 0.83960 0.75490 0.10500
C 	C 	0.92910 0.73280 0.92100 0.53600
O 	O 	0.08760 0.72650 0.94680 -0.60800
O 	O 	0.77310 0.74110 0.94781 -0.64400
O 	O 	0.21280 0.85220 0.96320 -0.54200
O 	O 	0.95550 0.83550 0.01950 -0.51600
C 	C 	0.07380 0.86980 0.99330 0.49700
C 	C 	0.03930 0.93750 0.99760 -0.09800
C 	C 	0.92590 0.96180 0.04110 -0.07000
H 	H 	0.87500 0.93630 0.06990 0.18500
C 	C 	0.11200 0.97600 0.95630 0.04000
H 	H 	0.18740 0.96040 0.92630 0.04500
N 	N 	0.88300 0.62510 0.84310 0.00100
O 	O 	0.85600 0.61970 0.89520 -0.11700
O 	O 	0.88300 0.58090 0.80950 -0.05900
N 	N 	0.89600 0.93050 0.10500 -0.10000
O 	O 	0.03100 0.91660 0.13420 -0.04600
O 	O 	0.72100 0.91790 0.10380 -0.09900
