data_crystal

_cell_length_a 27.54100
_cell_length_b 11.12600
_cell_length_c 16.99100
_cell_angle_alpha 90.00000
_cell_angle_beta  99.01000
_cell_angle_gamma 90.00000

_symmetry_space_group_name_	'P 1'
_symmetry_space_group_name_H-M	'P 1'

loop_
_symmetry_equiv_pos_as_xyz
  x,y,z

loop_
_atom_site_label
_atom_site_type_symbol
_atom_site_fract_x
_atom_site_fract_y
_atom_site_fract_z
_atom_site_charge
Ce	Ce	0.25216 0.63210 0.69040 2.13800
Ce	Ce	0.25119 0.67389 0.97335 2.14700
C 	C 	0.17690 0.87500 0.62510 0.40700
C 	C 	0.12810 0.91400 0.63980 -0.17300
C 	C 	0.10860 0.87200 0.70460 0.09300
H 	H 	0.12690 0.82040 0.74120 0.01200
C 	C 	0.06240 0.90500 0.71450 -0.14500
H 	H 	0.04920 0.87610 0.75800 0.09100
C 	C 	0.03480 0.98100 0.66130 0.07900
C 	C 	0.09880 0.99330 0.59120 0.10200
H 	H 	0.11190 0.02650 0.54890 0.01200
C 	C 	0.98320 0.01000 0.66650 0.09600
C 	C 	0.95270 0.06060 0.60470 -0.17800
H 	H 	0.96490 0.08350 0.55880 0.10700
C 	C 	0.91970 0.99600 0.73850 0.12900
H 	H 	0.90850 0.97490 0.78560 0.00500
C 	C 	0.88640 0.04670 0.67960 -0.21600
C 	C 	0.90510 0.07730 0.61000 0.12600
H 	H 	0.88420 0.10970 0.56690 -0.00400
C 	C 	0.83430 0.06550 0.68800 0.48400
C 	C 	0.32900 0.58790 0.54810 0.42500
C 	C 	0.38030 0.55800 0.53340 -0.17000
C 	C 	0.41000 0.47370 0.57770 0.10200
H 	H 	0.39740 0.43270 0.61780 0.01300
C 	C 	0.44620 0.59110 0.45940 -0.15300
H 	H 	0.45860 0.63170 0.41900 0.09400
C 	C 	0.47430 0.51080 0.50550 0.08100
C 	C 	0.39960 0.61200 0.47250 0.09300
H 	H 	0.38000 0.66490 0.43900 0.01300
C 	C 	0.02540 0.98000 0.99810 0.08800
C 	C 	0.03660 0.91800 0.93310 -0.16100
H 	H 	0.01190 0.89890 0.89120 0.10000
C 	C 	0.08410 0.88400 0.93010 0.11000
H 	H 	0.09220 0.84700 0.88470 0.00400
C 	C 	0.12020 0.90500 0.99630 -0.20600
C 	C 	0.10610 0.97300 0.05820 0.12500
H 	H 	0.13030 0.99540 0.10010 -0.01500
C 	C 	0.17060 0.86400 0.99670 0.44400
C 	C 	0.33810 0.58720 0.85830 0.47400
C 	C 	0.39140 0.57810 0.85230 -0.20000
C 	C 	0.42820 0.59670 0.91600 0.11400
H 	H 	0.42020 0.61980 0.96490 0.00600
C 	C 	0.47650 0.58160 0.90790 -0.16700
H 	H 	0.50110 0.59240 0.95150 0.10000
C 	C 	0.48840 0.55050 0.83530 0.09300
C 	C 	0.40690 0.55880 0.77910 0.11600
H 	H 	0.38320 0.55600 0.73360 0.00300
C 	C 	0.53890 0.51410 0.82730 0.08500
C 	C 	0.54950 0.47360 0.75610 -0.15400
H 	H 	0.52750 0.48530 0.70930 0.09900
C 	C 	0.59340 0.41500 0.75490 0.09800
H 	H 	0.60010 0.38050 0.70790 0.01000
C 	C 	0.62790 0.40760 0.82480 -0.18700
C 	C 	0.61610 0.46450 0.89240 0.11500
H 	H 	0.63950 0.46650 0.93820 -0.02000
C 	C 	0.67410 0.33560 0.82650 0.43300
N 	N 	0.05340 0.02650 0.59980 -0.13700
N 	N 	0.96680 0.97300 0.73390 -0.14300
N 	N 	0.45620 0.44800 0.56550 -0.13400
N 	N 	0.06010 0.00700 0.06090 -0.14000
N 	N 	0.45410 0.54420 0.77060 -0.13800
N 	N 	0.57260 0.51620 0.89400 -0.14100
O 	O 	0.20460 0.82070 0.68140 -0.48400
O 	O 	0.18800 0.89590 0.55600 -0.48400
O 	O 	0.82330 0.07990 0.75460 -0.53100
O 	O 	0.80320 0.06280 0.62410 -0.54900
O 	O 	0.31790 0.56110 0.61380 -0.50900
O 	O 	0.30090 0.64240 0.49170 -0.49900
O 	O 	0.18060 0.81170 0.93450 -0.47700
O 	O 	0.20120 0.86720 0.05900 -0.59800
O 	O 	0.30710 0.54930 0.80130 -0.55100
O 	O 	0.32710 0.62600 0.92160 -0.52200
O 	O 	0.70180 0.32530 0.89130 -0.60200
O 	O 	0.68160 0.28610 0.76310 -0.46400
O 	O 	0.25090 0.77510 0.83270 -0.64800
H 	H 	0.27910 0.82810 0.83770 0.22000
H 	H 	0.22190 0.82580 0.82280 0.21600
Ce	Ce	0.74784 0.13210 0.80960 2.13700
Ce	Ce	0.74881 0.17389 0.52665 2.14600
C 	C 	0.82310 0.37500 0.87490 0.40700
C 	C 	0.87190 0.41400 0.86020 -0.17600
C 	C 	0.89140 0.37200 0.79540 0.09400
H 	H 	0.87310 0.32040 0.75880 0.01100
C 	C 	0.93760 0.40500 0.78550 -0.14700
H 	H 	0.95080 0.37610 0.74200 0.09200
C 	C 	0.96520 0.48100 0.83870 0.08300
C 	C 	0.90120 0.49330 0.90880 0.10500
H 	H 	0.88810 0.52650 0.95110 0.01100
C 	C 	0.01680 0.51000 0.83350 0.09400
C 	C 	0.04730 0.56060 0.89530 -0.17600
H 	H 	0.03510 0.58350 0.94120 0.10600
C 	C 	0.08030 0.49600 0.76150 0.12900
H 	H 	0.09150 0.47490 0.71440 0.00500
C 	C 	0.11360 0.54670 0.82040 -0.21400
C 	C 	0.09490 0.57730 0.89000 0.12500
H 	H 	0.11580 0.60970 0.93310 -0.00400
C 	C 	0.16570 0.56550 0.81200 0.48400
C 	C 	0.67100 0.08790 0.95190 0.42600
C 	C 	0.61970 0.05800 0.96660 -0.16900
C 	C 	0.59000 0.97370 0.92230 0.10100
H 	H 	0.60260 0.93270 0.88220 0.01400
C 	C 	0.55380 0.09110 0.04060 -0.15400
H 	H 	0.54140 0.13170 0.08100 0.09400
C 	C 	0.52570 0.01080 0.99450 0.08200
C 	C 	0.60040 0.11200 0.02750 0.09200
H 	H 	0.62000 0.16490 0.06100 0.01300
C 	C 	0.97460 0.48000 0.50190 0.08900
C 	C 	0.96340 0.41800 0.56690 -0.16100
H 	H 	0.98810 0.39890 0.60880 0.10100
C 	C 	0.91590 0.38400 0.56990 0.11000
H 	H 	0.90780 0.34700 0.61530 0.00400
C 	C 	0.87980 0.40500 0.50370 -0.20400
C 	C 	0.89390 0.47300 0.44180 0.12200
H 	H 	0.86970 0.49540 0.39990 -0.01400
C 	C 	0.82940 0.36400 0.50330 0.44500
C 	C 	0.66190 0.08720 0.64170 0.47400
C 	C 	0.60860 0.07810 0.64770 -0.20000
C 	C 	0.57180 0.09670 0.58400 0.11400
H 	H 	0.57980 0.11980 0.53510 0.00600
C 	C 	0.52350 0.08160 0.59210 -0.16700
H 	H 	0.49890 0.09240 0.54850 0.10000
C 	C 	0.51160 0.05050 0.66470 0.09300
C 	C 	0.59310 0.05880 0.72090 0.11600
H 	H 	0.61680 0.05600 0.76640 0.00300
C 	C 	0.46110 0.01410 0.67270 0.08600
C 	C 	0.45050 0.97360 0.74390 -0.15500
H 	H 	0.47250 0.98530 0.79070 0.09900
C 	C 	0.40660 0.91500 0.74510 0.09800
H 	H 	0.39990 0.88050 0.79210 0.01000
C 	C 	0.37210 0.90760 0.67520 -0.18700
C 	C 	0.38390 0.96450 0.60760 0.11400
H 	H 	0.36050 0.96650 0.56180 -0.02100
C 	C 	0.32590 0.83560 0.67350 0.43300
N 	N 	0.94660 0.52650 0.90020 -0.13800
N 	N 	0.03320 0.47300 0.76610 -0.14300
N 	N 	0.54380 0.94800 0.93450 -0.13400
N 	N 	0.93990 0.50700 0.43910 -0.14000
N 	N 	0.54590 0.04420 0.72940 -0.13800
N 	N 	0.42740 0.01620 0.60600 -0.14100
O 	O 	0.79540 0.32070 0.81860 -0.48400
O 	O 	0.81200 0.39590 0.94400 -0.48400
O 	O 	0.17670 0.57990 0.74540 -0.53100
O 	O 	0.19680 0.56280 0.87590 -0.54900
O 	O 	0.68210 0.06110 0.88620 -0.50900
O 	O 	0.69910 0.14240 0.00830 -0.50000
O 	O 	0.81940 0.31170 0.56550 -0.47700
O 	O 	0.79880 0.36720 0.44100 -0.59900
O 	O 	0.69290 0.04930 0.69870 -0.55100
O 	O 	0.67290 0.12600 0.57840 -0.52200
O 	O 	0.29820 0.82530 0.60870 -0.60200
O 	O 	0.31840 0.78610 0.73690 -0.46400
O 	O 	0.74910 0.27510 0.66730 -0.64800
H 	H 	0.72090 0.32810 0.66230 0.22000
H 	H 	0.77810 0.32580 0.67720 0.21600
Ce	Ce	0.74784 0.36790 0.30960 2.13700
Ce	Ce	0.74881 0.32611 0.02665 2.14600
C 	C 	0.82310 0.12500 0.37490 0.40600
C 	C 	0.87190 0.08600 0.36020 -0.17400
C 	C 	0.89140 0.12800 0.29540 0.09200
H 	H 	0.87310 0.17960 0.25880 0.01100
C 	C 	0.93760 0.09500 0.28550 -0.14500
H 	H 	0.95080 0.12390 0.24200 0.09100
C 	C 	0.96520 0.01900 0.33870 0.07900
C 	C 	0.90120 0.00670 0.40880 0.10200
H 	H 	0.88810 0.97350 0.45110 0.01200
C 	C 	0.01680 0.99000 0.33350 0.09600
C 	C 	0.04730 0.93940 0.39530 -0.17800
H 	H 	0.03510 0.91650 0.44120 0.10700
C 	C 	0.08030 0.00400 0.26150 0.12900
H 	H 	0.09150 0.02510 0.21440 0.00500
C 	C 	0.11360 0.95330 0.32040 -0.21600
C 	C 	0.09490 0.92270 0.39000 0.12600
H 	H 	0.11580 0.89030 0.43310 -0.00400
C 	C 	0.16570 0.93450 0.31200 0.48400
C 	C 	0.67100 0.41210 0.45190 0.42500
C 	C 	0.61970 0.44200 0.46660 -0.17000
C 	C 	0.59000 0.52630 0.42230 0.10200
H 	H 	0.60260 0.56730 0.38220 0.01300
C 	C 	0.55380 0.40890 0.54060 -0.15300
H 	H 	0.54140 0.36830 0.58100 0.09400
C 	C 	0.52570 0.48920 0.49450 0.08100
C 	C 	0.60040 0.38800 0.52750 0.09300
H 	H 	0.62000 0.33510 0.56100 0.01300
C 	C 	0.97460 0.02000 0.00190 0.08800
C 	C 	0.96340 0.08200 0.06690 -0.16100
H 	H 	0.98810 0.10110 0.10880 0.10000
C 	C 	0.91590 0.11600 0.06990 0.11000
H 	H 	0.90780 0.15300 0.11530 0.00400
C 	C 	0.87980 0.09500 0.00370 -0.20600
C 	C 	0.89390 0.02700 0.94180 0.12500
H 	H 	0.86970 0.00460 0.89990 -0.01500
C 	C 	0.82940 0.13600 0.00330 0.44400
C 	C 	0.66190 0.41280 0.14170 0.47400
C 	C 	0.60860 0.42190 0.14770 -0.20000
C 	C 	0.57180 0.40330 0.08400 0.11400
H 	H 	0.57980 0.38020 0.03510 0.00600
C 	C 	0.52350 0.41840 0.09210 -0.16700
H 	H 	0.49890 0.40760 0.04850 0.10000
C 	C 	0.51160 0.44950 0.16470 0.09300
C 	C 	0.59310 0.44120 0.22090 0.11600
H 	H 	0.61680 0.44400 0.26640 0.00300
C 	C 	0.46110 0.48590 0.17270 0.08500
C 	C 	0.45050 0.52640 0.24390 -0.15400
H 	H 	0.47250 0.51470 0.29070 0.09900
C 	C 	0.40660 0.58500 0.24510 0.09800
H 	H 	0.39990 0.61950 0.29210 0.01000
C 	C 	0.37210 0.59240 0.17520 -0.18700
C 	C 	0.38390 0.53550 0.10760 0.11500
H 	H 	0.36050 0.53350 0.06180 -0.02000
C 	C 	0.32590 0.66440 0.17350 0.43300
N 	N 	0.94660 0.97350 0.40020 -0.13700
N 	N 	0.03320 0.02700 0.26610 -0.14300
N 	N 	0.54380 0.55200 0.43450 -0.13400
N 	N 	0.93990 0.99300 0.93910 -0.14000
N 	N 	0.54590 0.45580 0.22940 -0.13800
N 	N 	0.42740 0.48380 0.10600 -0.14100
O 	O 	0.79540 0.17930 0.31860 -0.48400
O 	O 	0.81200 0.10410 0.44400 -0.48400
O 	O 	0.17670 0.92010 0.24540 -0.53100
O 	O 	0.19680 0.93720 0.37590 -0.54900
O 	O 	0.68210 0.43890 0.38620 -0.50900
O 	O 	0.69910 0.35760 0.50830 -0.49900
O 	O 	0.81940 0.18830 0.06550 -0.47700
O 	O 	0.79880 0.13280 0.94100 -0.59800
O 	O 	0.69290 0.45070 0.19870 -0.55100
O 	O 	0.67290 0.37400 0.07840 -0.52200
O 	O 	0.29820 0.67470 0.10870 -0.60200
O 	O 	0.31840 0.71390 0.23690 -0.46400
O 	O 	0.74910 0.22490 0.16730 -0.64800
H 	H 	0.72090 0.17190 0.16230 0.22000
H 	H 	0.77810 0.17420 0.17720 0.21600
Ce	Ce	0.25216 0.86790 0.19040 2.13700
Ce	Ce	0.25119 0.82611 0.47335 2.14600
C 	C 	0.17690 0.62500 0.12510 0.40700
C 	C 	0.12810 0.58600 0.13980 -0.17600
C 	C 	0.10860 0.62800 0.20460 0.09400
H 	H 	0.12690 0.67960 0.24120 0.01100
C 	C 	0.06240 0.59500 0.21450 -0.14700
H 	H 	0.04920 0.62390 0.25800 0.09200
C 	C 	0.03480 0.51900 0.16130 0.08300
C 	C 	0.09880 0.50670 0.09120 0.10500
H 	H 	0.11190 0.47350 0.04890 0.01100
C 	C 	0.98320 0.49000 0.16650 0.09400
C 	C 	0.95270 0.43940 0.10470 -0.17600
H 	H 	0.96490 0.41650 0.05880 0.10600
C 	C 	0.91970 0.50400 0.23850 0.12900
H 	H 	0.90850 0.52510 0.28560 0.00500
C 	C 	0.88640 0.45330 0.17960 -0.21400
C 	C 	0.90510 0.42270 0.11000 0.12500
H 	H 	0.88420 0.39030 0.06690 -0.00400
C 	C 	0.83430 0.43450 0.18800 0.48400
C 	C 	0.32900 0.91210 0.04810 0.42600
C 	C 	0.38030 0.94200 0.03340 -0.16900
C 	C 	0.41000 0.02630 0.07770 0.10100
H 	H 	0.39740 0.06730 0.11780 0.01400
C 	C 	0.44620 0.90890 0.95940 -0.15400
H 	H 	0.45860 0.86830 0.91900 0.09400
C 	C 	0.47430 0.98920 0.00550 0.08200
C 	C 	0.39960 0.88800 0.97250 0.09200
H 	H 	0.38000 0.83510 0.93900 0.01300
C 	C 	0.02540 0.52000 0.49810 0.08900
C 	C 	0.03660 0.58200 0.43310 -0.16100
H 	H 	0.01190 0.60110 0.39120 0.10100
C 	C 	0.08410 0.61600 0.43010 0.11000
H 	H 	0.09220 0.65300 0.38470 0.00400
C 	C 	0.12020 0.59500 0.49630 -0.20400
C 	C 	0.10610 0.52700 0.55820 0.12200
H 	H 	0.13030 0.50460 0.60010 -0.01400
C 	C 	0.17060 0.63600 0.49670 0.44500
C 	C 	0.33810 0.91280 0.35830 0.47400
C 	C 	0.39140 0.92190 0.35230 -0.20000
C 	C 	0.42820 0.90330 0.41600 0.11400
H 	H 	0.42020 0.88020 0.46490 0.00600
C 	C 	0.47650 0.91840 0.40790 -0.16700
H 	H 	0.50110 0.90760 0.45150 0.10000
C 	C 	0.48840 0.94950 0.33530 0.09300
C 	C 	0.40690 0.94120 0.27910 0.11600
H 	H 	0.38320 0.94400 0.23360 0.00300
C 	C 	0.53890 0.98590 0.32730 0.08600
C 	C 	0.54950 0.02640 0.25610 -0.15500
H 	H 	0.52750 0.01470 0.20930 0.09900
C 	C 	0.59340 0.08500 0.25490 0.09800
H 	H 	0.60010 0.11950 0.20790 0.01000
C 	C 	0.62790 0.09240 0.32480 -0.18700
C 	C 	0.61610 0.03550 0.39240 0.11400
H 	H 	0.63950 0.03350 0.43820 -0.02100
C 	C 	0.67410 0.16440 0.32650 0.43300
N 	N 	0.05340 0.47350 0.09980 -0.13800
N 	N 	0.96680 0.52700 0.23390 -0.14300
N 	N 	0.45620 0.05200 0.06550 -0.13400
N 	N 	0.06010 0.49300 0.56090 -0.14000
N 	N 	0.45410 0.95580 0.27060 -0.13800
N 	N 	0.57260 0.98380 0.39400 -0.14100
O 	O 	0.20460 0.67930 0.18140 -0.48400
O 	O 	0.18800 0.60410 0.05600 -0.48400
O 	O 	0.82330 0.42010 0.25460 -0.53100
O 	O 	0.80320 0.43720 0.12410 -0.54900
O 	O 	0.31790 0.93890 0.11380 -0.50900
O 	O 	0.30090 0.85760 0.99170 -0.50000
O 	O 	0.18060 0.68830 0.43450 -0.47700
O 	O 	0.20120 0.63280 0.55900 -0.59900
O 	O 	0.30710 0.95070 0.30130 -0.55100
O 	O 	0.32710 0.87400 0.42160 -0.52200
O 	O 	0.70180 0.17470 0.39130 -0.60200
O 	O 	0.68160 0.21390 0.26310 -0.46400
O 	O 	0.25090 0.72490 0.33270 -0.64800
H 	H 	0.27910 0.67190 0.33770 0.22000
H 	H 	0.22190 0.67420 0.32280 0.21600
