data_crystal

_cell_length_a 10.11120
_cell_length_b 15.94300
_cell_length_c 16.76400
_cell_angle_alpha 111.32500
_cell_angle_beta  103.68000
_cell_angle_gamma 102.59800

_symmetry_space_group_name_	'P 1'
_symmetry_space_group_name_H-M	'P 1'

loop_
_symmetry_equiv_pos_as_xyz
  x,y,z

loop_
_atom_site_label
_atom_site_type_symbol
_atom_site_fract_x
_atom_site_fract_y
_atom_site_fract_z
_atom_site_charge
Co	Co	0.42436 0.37657 0.59235 1.17300
N 	N 	0.51040 0.43560 0.74020 -0.18900
O 	O 	0.76640 0.70500 0.06730 -0.25100
C 	C 	0.62670 0.51390 0.79180 -0.05100
H 	H 	0.67360 0.54350 0.76260 0.05200
Co	Co	0.67789 0.20604 0.59281 1.17200
N 	N 	0.80350 0.63810 0.93280 -0.25000
H 	H 	0.86350 0.64490 0.90500 0.13700
O 	O 	0.21450 0.95390 0.11380 -0.23800
C 	C 	0.68150 0.55380 0.88630 0.12000
N 	N 	0.27360 0.96560 0.25690 -0.25800
H 	H 	0.24370 0.94180 0.29050 0.15800
O 	O 	0.78800 0.39220 0.08170 -0.25400
C 	C 	0.61590 0.50660 0.92960 -0.10600
H 	H 	0.65280 0.52860 0.99260 0.08900
N 	N 	0.59590 0.14490 0.44540 -0.18500
O 	O 	0.36560 0.19210 0.11360 -0.23700
C 	C 	0.49450 0.42630 0.87640 -0.02800
H 	H 	0.44770 0.39400 0.90370 0.05500
O 	O 	0.61990 0.45030 0.59640 -0.44400
N 	N 	0.76200 0.28080 0.74120 -0.18800
C 	C 	0.44320 0.39400 0.78350 0.01600
H 	H 	0.35880 0.34160 0.74920 0.02700
N 	N 	0.66180 0.28190 0.93640 -0.25200
H 	H 	0.58550 0.23230 0.90360 0.13600
O 	O 	0.70710 0.33460 0.59240 -0.48200
C 	C 	0.83600 0.70970 0.01740 0.26400
O 	O 	0.20640 0.36690 0.59010 -0.37400
N 	N 	0.46190 0.31200 0.25800 -0.25700
H 	H 	0.52830 0.36680 0.29190 0.15700
C 	C 	0.96530 0.79550 0.04430 -0.21300
H 	H 	0.03420 0.77370 0.01800 0.10500
H 	H 	0.93410 0.83600 0.01810 0.11400
O 	O 	0.34990 0.50170 0.61120 -0.37700
N 	N 	0.34240 0.30540 0.44480 -0.18400
C 	C 	0.04060 0.85450 0.14580 -0.18600
H 	H 	0.05690 0.81240 0.17400 0.09700
H 	H 	0.97830 0.88640 0.17090 0.09700
O 	O 	0.48820 0.13650 0.59870 -0.44000
C 	C 	0.18390 0.92880 0.16970 0.25700
C 	C 	0.40980 0.03790 0.29990 0.13800
O 	O 	0.39180 0.24420 0.58640 -0.48200
O 	O 	0.89180 0.21110 0.58700 -0.37000
C 	C 	0.49100 0.07390 0.25550 -0.12300
H 	H 	0.45710 0.05100 0.19230 0.10300
O 	O 	0.77230 0.09700 0.61050 -0.37700
C 	C 	0.62420 0.14510 0.30910 -0.01100
H 	H 	0.68120 0.17000 0.28140 0.03500
C 	C 	0.67200 0.17890 0.40120 0.00500
H 	H 	0.76090 0.22750 0.43520 0.03000
C 	C 	0.46780 0.07550 0.39400 -0.06100
H 	H 	0.41440 0.05100 0.42360 0.06500
C 	C 	0.69200 0.26130 0.79420 -0.05400
H 	H 	0.60170 0.21380 0.76650 0.05100
C 	C 	0.74840 0.30880 0.88850 0.12300
C 	C 	0.88560 0.37660 0.93130 -0.11500
H 	H 	0.92720 0.40820 0.99460 0.09100
C 	C 	0.95860 0.39550 0.87580 -0.02400
H 	H 	0.05050 0.44110 0.90180 0.05600
C 	C 	0.89440 0.34670 0.78210 0.01400
H 	H 	0.94490 0.36010 0.74600 0.03100
C 	C 	0.68290 0.32350 0.02630 0.26700
C 	C 	0.56400 0.27620 0.05230 -0.21300
H 	H 	0.47310 0.27700 0.01740 0.11200
H 	H 	0.55710 0.20980 0.03390 0.10600
C 	C 	0.58100 0.31950 0.14970 -0.17900
H 	H 	0.58670 0.38570 0.16860 0.09600
H 	H 	0.67130 0.31870 0.18520 0.09400
C 	C 	0.45840 0.26840 0.17090 0.24900
C 	C 	0.37120 0.27920 0.29970 0.14100
C 	C 	0.24070 0.20390 0.25420 -0.12300
H 	H 	0.20520 0.17020 0.19090 0.10300
C 	C 	0.16450 0.18080 0.30770 -0.01400
H 	H 	0.07720 0.13050 0.27970 0.03600
C 	C 	0.21730 0.23150 0.39970 0.00800
H 	H 	0.16470 0.21430 0.43330 0.03000
C 	C 	0.41680 0.32800 0.39410 -0.06500
H 	H 	0.50320 0.37910 0.42410 0.06700
C 	C 	0.86570 0.47700 0.60800 -0.13300
C 	C 	0.97760 0.43980 0.60560 0.05000
H 	H 	0.96440 0.37840 0.60080 0.04300
C 	C 	0.10980 0.49470 0.61040 -0.10100
C 	C 	0.12970 0.58670 0.61910 0.03500
H 	H 	0.21820 0.62340 0.62280 0.02700
C 	C 	0.01910 0.62500 0.62220 -0.10600
H 	H 	0.03330 0.68700 0.62840 0.07000
C 	C 	0.88660 0.56940 0.61590 0.04900
H 	H 	0.81140 0.59410 0.61690 0.03100
C 	C 	0.22790 0.45170 0.60440 0.31200
C 	C 	0.72010 0.41600 0.59860 0.41600
C 	C 	0.24170 0.03520 0.61790 0.05100
H 	H 	0.31900 0.01240 0.62090 0.03000
C 	C 	0.25250 0.11870 0.60610 -0.13500
C 	C 	0.13760 0.15270 0.60310 0.04900
H 	H 	0.14380 0.20860 0.59610 0.04300
C 	C 	0.01120 0.10290 0.61050 -0.10300
C 	C 	0.00290 0.02090 0.62090 0.03700
H 	H 	0.91910 0.98780 0.62530 0.02700
C 	C 	0.11840 0.98640 0.62500 -0.10800
H 	H 	0.11210 0.93080 0.63250 0.07100
C 	C 	0.38670 0.17120 0.59610 0.41400
C 	C 	0.88570 0.13920 0.60240 0.31000
Co	Co	0.57564 0.62343 0.40765 1.17200
N 	N 	0.48960 0.56440 0.25980 -0.19000
O 	O 	0.23360 0.29500 0.93270 -0.25100
C 	C 	0.37330 0.48610 0.20820 -0.05100
H 	H 	0.32640 0.45650 0.23740 0.05200
Co	Co	0.32211 0.79396 0.40719 1.17200
N 	N 	0.19650 0.36190 0.06720 -0.25000
H 	H 	0.13650 0.35510 0.09500 0.13700
O 	O 	0.78550 0.04610 0.88620 -0.23800
C 	C 	0.31850 0.44620 0.11370 0.12000
N 	N 	0.72640 0.03440 0.74310 -0.25800
H 	H 	0.75630 0.05820 0.70950 0.15800
O 	O 	0.21200 0.60780 0.91830 -0.25400
C 	C 	0.38410 0.49340 0.07040 -0.10600
H 	H 	0.34720 0.47140 0.00740 0.08900
N 	N 	0.40410 0.85510 0.55460 -0.18500
O 	O 	0.63440 0.80790 0.88640 -0.23700
C 	C 	0.50550 0.57370 0.12360 -0.02800
H 	H 	0.55230 0.60600 0.09630 0.05500
O 	O 	0.38010 0.54970 0.40360 -0.44400
N 	N 	0.23800 0.71920 0.25880 -0.18800
C 	C 	0.55680 0.60600 0.21650 0.01600
H 	H 	0.64120 0.65840 0.25080 0.02700
N 	N 	0.33820 0.71810 0.06360 -0.25200
H 	H 	0.41450 0.76770 0.09640 0.13600
O 	O 	0.29290 0.66540 0.40760 -0.48200
C 	C 	0.16400 0.29030 0.98260 0.26400
O 	O 	0.79360 0.63310 0.40990 -0.37400
N 	N 	0.53810 0.68800 0.74200 -0.25700
H 	H 	0.47170 0.63320 0.70810 0.15700
C 	C 	0.03470 0.20450 0.95570 -0.21300
H 	H 	0.96580 0.22630 0.98200 0.10500
H 	H 	0.06590 0.16400 0.98190 0.11400
O 	O 	0.65010 0.49830 0.38880 -0.37700
N 	N 	0.65760 0.69460 0.55520 -0.18400
C 	C 	0.95940 0.14550 0.85420 -0.18600
H 	H 	0.94310 0.18760 0.82600 0.09700
H 	H 	0.02170 0.11360 0.82910 0.09700
O 	O 	0.51180 0.86350 0.40130 -0.44000
C 	C 	0.81610 0.07120 0.83030 0.25700
C 	C 	0.59020 0.96210 0.70010 0.13800
O 	O 	0.60820 0.75580 0.41360 -0.48200
O 	O 	0.10820 0.78890 0.41300 -0.37000
C 	C 	0.50900 0.92610 0.74450 -0.12300
H 	H 	0.54290 0.94900 0.80770 0.10300
O 	O 	0.22770 0.90300 0.38950 -0.37700
C 	C 	0.37580 0.85490 0.69090 -0.01100
H 	H 	0.31880 0.83000 0.71860 0.03500
C 	C 	0.32800 0.82110 0.59880 0.00500
H 	H 	0.23910 0.77250 0.56480 0.03000
C 	C 	0.53220 0.92450 0.60600 -0.06100
H 	H 	0.58560 0.94900 0.57640 0.06500
C 	C 	0.30800 0.73870 0.20580 -0.05400
H 	H 	0.39830 0.78620 0.23350 0.05100
C 	C 	0.25160 0.69120 0.11150 0.12300
C 	C 	0.11440 0.62340 0.06870 -0.11500
H 	H 	0.07280 0.59180 0.00540 0.09100
C 	C 	0.04140 0.60450 0.12420 -0.02400
H 	H 	0.94950 0.55890 0.09820 0.05600
C 	C 	0.10560 0.65330 0.21790 0.01400
H 	H 	0.05510 0.63990 0.25400 0.03100
C 	C 	0.31710 0.67650 0.97370 0.26700
C 	C 	0.43600 0.72380 0.94770 -0.21300
H 	H 	0.52690 0.72300 0.98260 0.11200
H 	H 	0.44290 0.79020 0.96610 0.10600
C 	C 	0.41900 0.68050 0.85030 -0.17900
H 	H 	0.41330 0.61430 0.83140 0.09600
H 	H 	0.32870 0.68130 0.81480 0.09400
C 	C 	0.54160 0.73160 0.82910 0.24900
C 	C 	0.62880 0.72080 0.70030 0.14100
C 	C 	0.75930 0.79610 0.74580 -0.12300
H 	H 	0.79480 0.82980 0.80910 0.10300
C 	C 	0.83550 0.81920 0.69230 -0.01400
H 	H 	0.92280 0.86950 0.72030 0.03600
C 	C 	0.78270 0.76850 0.60030 0.00800
H 	H 	0.83530 0.78570 0.56670 0.03000
C 	C 	0.58320 0.67200 0.60590 -0.06500
H 	H 	0.49680 0.62090 0.57590 0.06700
C 	C 	0.13430 0.52300 0.39200 -0.13300
C 	C 	0.02240 0.56020 0.39440 0.05000
H 	H 	0.03560 0.62160 0.39920 0.04300
C 	C 	0.89020 0.50530 0.38960 -0.10100
C 	C 	0.87030 0.41330 0.38090 0.03500
H 	H 	0.78180 0.37660 0.37720 0.02700
C 	C 	0.98090 0.37500 0.37780 -0.10600
H 	H 	0.96670 0.31300 0.37160 0.07000
C 	C 	0.11340 0.43060 0.38410 0.04900
H 	H 	0.18860 0.40590 0.38310 0.03100
C 	C 	0.77210 0.54830 0.39560 0.31200
C 	C 	0.27990 0.58400 0.40140 0.41600
C 	C 	0.75830 0.96480 0.38210 0.05100
H 	H 	0.68100 0.98760 0.37910 0.03000
C 	C 	0.74750 0.88130 0.39390 -0.13500
C 	C 	0.86240 0.84730 0.39690 0.04900
H 	H 	0.85620 0.79140 0.40390 0.04300
C 	C 	0.98880 0.89710 0.38950 -0.10300
C 	C 	0.99710 0.97910 0.37910 0.03700
H 	H 	0.08090 0.01220 0.37470 0.02700
C 	C 	0.88160 0.01360 0.37500 -0.10800
H 	H 	0.88790 0.06920 0.36750 0.07100
C 	C 	0.61330 0.82880 0.40390 0.41400
C 	C 	0.11430 0.86080 0.39760 0.31000
