data_crystal

_cell_length_a 18.22400
_cell_length_b 18.23900
_cell_length_c 20.80800
_cell_angle_alpha 85.94200
_cell_angle_beta  83.55800
_cell_angle_gamma 63.39800

_symmetry_space_group_name_	'P 1'
_symmetry_space_group_name_H-M	'P 1'

loop_
_symmetry_equiv_pos_as_xyz
  x,y,z

loop_
_atom_site_label
_atom_site_type_symbol
_atom_site_fract_x
_atom_site_fract_y
_atom_site_fract_z
_atom_site_charge
Cd	Cd	0.42341 0.17257 0.71522 1.21800
Cd	Cd	0.61851 0.58806 0.72310 1.21700
Cd	Cd	0.97308 0.21422 0.25908 1.21700
O 	O 	0.49010 0.02840 0.69300 -0.37700
O 	O 	0.55800 0.07510 0.74630 -0.34900
O 	O 	0.86440 0.89990 0.73970 -0.33000
O 	O 	0.91910 0.77330 0.70570 -0.39000
O 	O 	0.72630 0.65120 0.67000 -0.33400
O 	O 	0.59780 0.71980 0.71140 -0.38900
O 	O 	0.46300 0.28430 0.74830 -0.33500
O 	O 	0.33530 0.31840 0.72820 -0.37100
O 	O 	0.55330 0.50300 0.74720 -0.38300
O 	O 	0.46580 0.63340 0.73420 -0.35300
O 	O 	0.16300 0.70520 0.74960 -0.41400
O 	O 	0.13170 0.61630 0.71060 -0.31100
C 	C 	0.55410 0.01720 0.71790 0.30000
C 	C 	0.62550 0.93470 0.71480 -0.09500
C 	C 	0.70470 0.92490 0.72150 0.03100
H 	H 	0.71190 0.97000 0.73140 0.04800
C 	C 	0.77290 0.84960 0.71360 -0.09400
C 	C 	0.85740 0.84050 0.71900 0.31300
C 	C 	0.76110 0.78060 0.70070 0.02700
H 	H 	0.80620 0.72980 0.69370 0.04600
C 	C 	0.68160 0.78950 0.69870 -0.09800
C 	C 	0.67000 0.71530 0.69120 0.30400
C 	C 	0.61430 0.86690 0.70430 0.03500
H 	H 	0.56150 0.87260 0.70100 0.04000
C 	C 	0.39110 0.33770 0.73990 0.30000
C 	C 	0.37060 0.42650 0.74080 -0.09600
C 	C 	0.43130 0.45160 0.74330 0.02900
H 	H 	0.48550 0.41230 0.74620 0.04700
C 	C 	0.41320 0.53410 0.74170 -0.09500
C 	C 	0.48020 0.55980 0.74090 0.29800
C 	C 	0.33100 0.59350 0.73920 0.03000
H 	H 	0.31800 0.64900 0.73900 0.04200
C 	C 	0.26940 0.56890 0.73720 -0.10400
C 	C 	0.18250 0.63370 0.73330 0.32900
C 	C 	0.28900 0.48590 0.73740 0.03100
H 	H 	0.24760 0.46970 0.73520 0.04300
C 	C 	0.24380 0.25580 0.66330 0.09100
H 	H 	0.24890 0.30420 0.66340 -0.00000
C 	C 	0.27050 0.12750 0.67170 0.06200
C 	C 	0.30610 0.04310 0.68070 -0.12100
H 	H 	0.36080 0.01430 0.68990 0.07600
C 	C 	0.25930 0.00370 0.67590 0.00400
H 	H 	0.28220 0.94710 0.68240 0.02900
C 	C 	0.17640 0.04670 0.66120 -0.04400
H 	H 	0.14550 0.01810 0.65900 0.05000
C 	C 	0.14080 0.13040 0.65030 -0.08100
H 	H 	0.08670 0.15870 0.63950 0.05600
C 	C 	0.18870 0.17070 0.65590 0.05500
C 	C 	0.10070 0.32490 0.63670 0.23200
C 	C 	0.02470 0.32870 0.66120 -0.28300
H 	H 	0.02070 0.28580 0.68570 0.13900
C 	C 	0.95550 0.39990 0.64730 0.24200
C 	C 	0.95960 0.46500 0.61340 -0.28900
H 	H 	0.91150 0.51120 0.60460 0.14300
C 	C 	0.03570 0.46190 0.59210 0.23900
C 	C 	0.10600 0.39020 0.60190 -0.28400
H 	H 	0.15720 0.38590 0.58510 0.13600
C 	C 	0.81200 0.47710 0.69250 0.09200
H 	H 	0.81460 0.52700 0.69010 0.00600
C 	C 	0.76890 0.38610 0.71060 0.06600
C 	C 	0.72270 0.34210 0.72910 -0.11200
H 	H 	0.66920 0.36820 0.74850 0.08200
C 	C 	0.75880 0.26020 0.71760 -0.00400
H 	H 	0.72970 0.23000 0.73040 0.03900
C 	C 	0.83870 0.22040 0.68700 -0.03200
H 	H 	0.86060 0.16490 0.67840 0.04200
C 	C 	0.88540 0.26150 0.66960 -0.08300
H 	H 	0.93870 0.23490 0.64970 0.05600
C 	C 	0.84950 0.34520 0.68280 0.06100
C 	C 	0.11530 0.53070 0.53520 0.10200
H 	H 	0.16580 0.48470 0.53760 0.00300
C 	C 	0.02560 0.65350 0.51830 0.06100
C 	C 	0.98650 0.73470 0.50190 -0.08300
H 	H 	0.01630 0.76220 0.48330 0.06400
C 	C 	0.90270 0.77500 0.51320 -0.02500
H 	H 	0.87500 0.83000 0.50110 0.04000
C 	C 	0.85810 0.73390 0.54290 -0.01400
H 	H 	0.80120 0.76250 0.55080 0.04200
C 	C 	0.89740 0.65110 0.56070 -0.09200
H 	H 	0.86770 0.62370 0.57990 0.07100
C 	C 	0.98170 0.61140 0.54880 0.07100
C 	C 	0.53290 0.23140 0.60960 0.09700
H 	H 	0.54200 0.25610 0.64350 0.00300
C 	C 	0.49100 0.16350 0.55480 0.04800
C 	C 	0.45420 0.11780 0.53360 -0.09500
H 	H 	0.42250 0.09940 0.56190 0.06000
C 	C 	0.46750 0.10140 0.46770 -0.02700
H 	H 	0.44400 0.07120 0.45180 0.04700
C 	C 	0.51510 0.12920 0.42490 -0.01900
H 	H 	0.52220 0.11720 0.38130 0.04400
C 	C 	0.55210 0.17410 0.44550 -0.10100
H 	H 	0.58360 0.19280 0.41710 0.07100
C 	C 	0.53930 0.18950 0.51080 0.06900
C 	C 	0.62100 0.26620 0.52810 0.23600
C 	C 	0.69460 0.21970 0.49260 -0.28900
H 	H 	0.70660 0.16750 0.47960 0.13700
C 	C 	0.75070 0.25220 0.47640 0.23600
C 	C 	0.73360 0.32960 0.49500 -0.29600
H 	H 	0.77220 0.35000 0.48540 0.14900
C 	C 	0.65840 0.37650 0.52810 0.23700
C 	C 	0.60080 0.34600 0.54460 -0.28500
H 	H 	0.54980 0.37830 0.56620 0.14100
C 	C 	0.86370 0.23640 0.39280 0.09300
H 	H 	0.84350 0.29230 0.38330 -0.00100
C 	C 	0.93940 0.10620 0.39020 0.05200
C 	C 	0.00080 0.02680 0.37820 -0.09900
H 	H 	0.04400 0.01710 0.34630 0.06300
C 	C 	0.99560 0.96270 0.41510 -0.01900
H 	H 	0.03520 0.90910 0.40750 0.03400
C 	C 	0.93140 0.97770 0.46360 -0.02100
H 	H 	0.93010 0.93340 0.48790 0.03900
C 	C 	0.86990 0.05500 0.47730 -0.09800
H 	H 	0.82750 0.06430 0.50980 0.06600
C 	C 	0.87560 0.11850 0.43880 0.06100
C 	C 	0.65960 0.78120 0.14050 0.10400
H 	H 	0.66260 0.72970 0.15140 -0.00600
C 	C 	0.63160 0.91000 0.14580 0.04700
C 	C 	0.60210 0.99020 0.16390 -0.08900
H 	H 	0.57500 0.00770 0.20450 0.06300
C 	C 	0.61480 0.04340 0.11840 -0.03100
H 	H 	0.59720 0.09800 0.12810 0.04400
C 	C 	0.65600 0.01260 0.05510 -0.01700
H 	H 	0.66380 0.04900 0.02460 0.04200
C 	C 	0.68290 0.93550 0.03890 -0.09700
H 	H 	0.70860 0.91900 0.99770 0.07000
C 	C 	0.67280 0.87660 0.08440 0.07500
C 	C 	0.61890 0.48260 0.60900 0.09300
H 	H 	0.60710 0.45240 0.64290 -0.00000
C 	C 	0.63800 0.57800 0.55460 0.06600
C 	C 	0.64410 0.64940 0.53350 -0.10600
H 	H 	0.63430 0.69030 0.56220 0.07400
C 	C 	0.66510 0.65720 0.46850 -0.00800
H 	H 	0.67060 0.70390 0.45320 0.02900
C 	C 	0.67840 0.59650 0.42530 -0.04000
H 	H 	0.69220 0.60410 0.38180 0.05100
C 	C 	0.67180 0.52540 0.44470 -0.08600
H 	H 	0.67930 0.48560 0.41570 0.07100
C 	C 	0.65340 0.51790 0.50980 0.06200
C 	C 	0.67400 0.64180 0.84850 0.10700
H 	H 	0.68910 0.67520 0.81990 -0.01000
C 	C 	0.63130 0.55480 0.88660 0.05400
C 	C 	0.59980 0.49710 0.89560 -0.10400
H 	H 	0.58210 0.48060 0.86150 0.07000
C 	C 	0.59640 0.46540 0.95930 -0.02700
H 	H 	0.57630 0.42660 0.96750 0.04600
C 	C 	0.62150 0.49020 0.00800 -0.01700
H 	H 	0.61810 0.46780 0.04910 0.03900
C 	C 	0.65150 0.54570 0.00040 -0.10100
H 	H 	0.66830 0.56180 0.03520 0.07000
C 	C 	0.65620 0.57810 0.93890 0.06400
C 	C 	0.72450 0.67200 0.94370 0.23500
C 	C 	0.68780 0.71440 0.00080 -0.29600
H 	H 	0.63780 0.71780 0.02010 0.14600
C 	C 	0.72880 0.75110 0.02740 0.24700
C 	C 	0.80400 0.74590 0.00050 -0.29900
H 	H 	0.83080 0.77050 0.01970 0.14200
C 	C 	0.83810 0.70280 0.94370 0.23600
C 	C 	0.79890 0.66620 0.91400 -0.29100
H 	H 	0.82170 0.63870 0.87540 0.14400
C 	C 	0.03570 0.03110 0.20370 0.10000
H 	H 	0.08940 0.02090 0.20940 0.00100
C 	C 	0.90410 0.09060 0.20230 0.05900
C 	C 	0.82090 0.14350 0.20820 -0.12100
H 	H 	0.80080 0.19430 0.22730 0.08000
C 	C 	0.76890 0.11720 0.18450 -0.00300
H 	H 	0.71260 0.15180 0.18660 0.03500
C 	C 	0.79900 0.04010 0.15740 -0.04200
H 	H 	0.76180 0.02390 0.14360 0.04600
C 	C 	0.87980 0.98850 0.15070 -0.07600
H 	H 	0.89950 0.93860 0.13050 0.05800
C 	C 	0.93260 0.01330 0.17550 0.05300
C 	C 	0.07350 0.89550 0.15540 0.23500
C 	C 	0.05240 0.83270 0.16780 -0.29900
H 	H 	0.00420 0.84110 0.19340 0.13900
C 	C 	0.10300 0.75630 0.14240 0.24100
C 	C 	0.17660 0.74360 0.10550 -0.29900
H 	H 	0.21060 0.69280 0.08750 0.14200
C 	C 	0.19780 0.80680 0.09610 0.24700
C 	C 	0.14780 0.88380 0.11890 -0.29400
H 	H 	0.16230 0.92660 0.11060 0.14100
C 	C 	0.13800 0.60910 0.16010 0.09700
H 	H 	0.19480 0.59080 0.15450 0.00300
C 	C 	0.01850 0.61100 0.17690 0.05600
C 	C 	0.95320 0.59030 0.19010 -0.08000
H 	H 	0.96260 0.53600 0.19760 0.07100
C 	C 	0.87340 0.65360 0.19180 -0.03200
H 	H 	0.82870 0.64170 0.20100 0.05100
C 	C 	0.86000 0.73380 0.17980 -0.01500
H 	H 	0.80600 0.77470 0.18110 0.03700
C 	C 	0.92360 0.75570 0.16610 -0.09600
H 	H 	0.91350 0.81010 0.15780 0.06100
C 	C 	0.00400 0.69240 0.16540 0.06000
C 	C 	0.33380 0.81050 0.08000 0.10300
H 	H 	0.32690 0.83790 0.11790 0.00900
C 	C 	0.38210 0.75540 0.98820 0.04600
C 	C 	0.43010 0.72420 0.93050 -0.08000
H 	H 	0.48190 0.72280 0.92160 0.06600
C 	C 	0.39900 0.69710 0.88940 -0.03200
H 	H 	0.43050 0.67410 0.85120 0.04700
C 	C 	0.32170 0.70160 0.90090 -0.01500
H 	H 	0.30160 0.68410 0.86910 0.03800
C 	C 	0.27250 0.73080 0.95720 -0.10600
H 	H 	0.22110 0.73110 0.96560 0.07000
C 	C 	0.30500 0.75910 0.99950 0.06900
C 	C 	0.91950 0.73690 0.85490 0.09600
H 	H 	0.87580 0.76350 0.82930 -0.00300
C 	C 	0.03920 0.68780 0.88870 0.06100
C 	C 	0.12170 0.66070 0.89740 -0.11100
H 	H 	0.15690 0.67110 0.86630 0.07200
C 	C 	0.14950 0.61830 0.95330 -0.01200
H 	H 	0.20420 0.60140 0.96080 0.03400
C 	C 	0.09870 0.59960 0.99910 -0.02700
H 	H 	0.12110 0.56880 0.03560 0.04700
C 	C 	0.01710 0.62470 0.99270 -0.09600
H 	H 	0.98290 0.61300 0.02390 0.07200
C 	C 	0.98870 0.66890 0.93620 0.06800
N 	N 	0.30370 0.18350 0.67600 -0.23200
N 	N 	0.17380 0.25350 0.64990 -0.16600
N 	N 	0.74590 0.46930 0.71630 -0.22700
N 	N 	0.87610 0.40600 0.67170 -0.16400
N 	N 	0.10930 0.60100 0.50960 -0.13100
N 	N 	0.04260 0.53010 0.55800 -0.16700
N 	N 	0.48780 0.19020 0.61760 -0.23000
N 	N 	0.56440 0.23410 0.54820 -0.17100
N 	N 	0.93020 0.18080 0.36230 -0.22700
N 	N 	0.82680 0.20450 0.44010 -0.16800
N 	N 	0.62530 0.84230 0.18060 -0.23200
N 	N 	0.69040 0.79790 0.08220 -0.18000
N 	N 	0.61640 0.55450 0.61620 -0.22300
N 	N 	0.64030 0.45680 0.54700 -0.16700
N 	N 	0.64130 0.59700 0.83110 -0.23200
N 	N 	0.68410 0.63530 0.91230 -0.17100
N 	N 	0.97210 0.10010 0.21950 -0.24100
N 	N 	0.01730 0.97550 0.17840 -0.17000
N 	N 	0.10360 0.55950 0.17430 -0.13000
N 	N 	0.08290 0.69040 0.15430 -0.17100
N 	N 	0.40090 0.78520 0.04250 -0.12800
N 	N 	0.27370 0.79460 0.06090 -0.17400
N 	N 	0.99480 0.73050 0.83790 -0.23000
N 	N 	0.91260 0.70110 0.91260 -0.17100
Cd	Cd	0.57659 0.82743 0.28478 1.21800
Cd	Cd	0.38149 0.41194 0.27690 1.21700
Cd	Cd	0.02692 0.78578 0.74092 1.21700
O 	O 	0.50990 0.97160 0.30700 -0.37700
O 	O 	0.44200 0.92490 0.25370 -0.34900
O 	O 	0.13560 0.10010 0.26030 -0.33000
O 	O 	0.08090 0.22670 0.29430 -0.39000
O 	O 	0.27370 0.34880 0.33000 -0.33400
O 	O 	0.40220 0.28020 0.28860 -0.38900
O 	O 	0.53700 0.71570 0.25170 -0.33500
O 	O 	0.66470 0.68160 0.27180 -0.37100
O 	O 	0.44670 0.49700 0.25280 -0.38300
O 	O 	0.53420 0.36660 0.26580 -0.35300
O 	O 	0.83700 0.29480 0.25040 -0.41400
O 	O 	0.86830 0.38370 0.28940 -0.31100
C 	C 	0.44590 0.98280 0.28210 0.30000
C 	C 	0.37450 0.06530 0.28520 -0.09500
C 	C 	0.29530 0.07510 0.27850 0.03100
H 	H 	0.28810 0.03000 0.26860 0.04800
C 	C 	0.22710 0.15040 0.28640 -0.09400
C 	C 	0.14260 0.15950 0.28100 0.31300
C 	C 	0.23890 0.21940 0.29930 0.02700
H 	H 	0.19380 0.27020 0.30630 0.04600
C 	C 	0.31840 0.21050 0.30130 -0.09800
C 	C 	0.33000 0.28470 0.30880 0.30400
C 	C 	0.38570 0.13310 0.29570 0.03500
H 	H 	0.43850 0.12740 0.29900 0.04000
C 	C 	0.60890 0.66230 0.26010 0.30000
C 	C 	0.62940 0.57350 0.25920 -0.09600
C 	C 	0.56870 0.54840 0.25670 0.02900
H 	H 	0.51450 0.58770 0.25380 0.04700
C 	C 	0.58680 0.46590 0.25830 -0.09500
C 	C 	0.51980 0.44020 0.25910 0.29800
C 	C 	0.66900 0.40650 0.26080 0.03000
H 	H 	0.68200 0.35100 0.26100 0.04200
C 	C 	0.73060 0.43110 0.26280 -0.10400
C 	C 	0.81750 0.36630 0.26670 0.32900
C 	C 	0.71100 0.51410 0.26260 0.03100
H 	H 	0.75240 0.53030 0.26480 0.04300
C 	C 	0.75620 0.74420 0.33670 0.09100
H 	H 	0.75110 0.69580 0.33660 -0.00000
C 	C 	0.72950 0.87250 0.32830 0.06200
C 	C 	0.69390 0.95690 0.31930 -0.12100
H 	H 	0.63920 0.98570 0.31010 0.07600
C 	C 	0.74070 0.99630 0.32410 0.00400
H 	H 	0.71780 0.05290 0.31760 0.02900
C 	C 	0.82360 0.95330 0.33880 -0.04400
H 	H 	0.85450 0.98190 0.34100 0.05000
C 	C 	0.85920 0.86960 0.34970 -0.08100
H 	H 	0.91330 0.84130 0.36050 0.05600
C 	C 	0.81130 0.82930 0.34410 0.05500
C 	C 	0.89930 0.67510 0.36330 0.23200
C 	C 	0.97530 0.67130 0.33880 -0.28300
H 	H 	0.97930 0.71420 0.31430 0.13900
C 	C 	0.04450 0.60010 0.35270 0.24200
C 	C 	0.04040 0.53500 0.38660 -0.28900
H 	H 	0.08850 0.48880 0.39540 0.14300
C 	C 	0.96430 0.53810 0.40790 0.23900
C 	C 	0.89400 0.60980 0.39810 -0.28400
H 	H 	0.84280 0.61410 0.41490 0.13600
C 	C 	0.18800 0.52290 0.30750 0.09200
H 	H 	0.18540 0.47300 0.30990 0.00600
C 	C 	0.23110 0.61390 0.28940 0.06600
C 	C 	0.27730 0.65790 0.27090 -0.11200
H 	H 	0.33080 0.63180 0.25150 0.08200
C 	C 	0.24120 0.73980 0.28240 -0.00400
H 	H 	0.27030 0.77000 0.26960 0.03900
C 	C 	0.16130 0.77960 0.31300 -0.03200
H 	H 	0.13940 0.83510 0.32160 0.04200
C 	C 	0.11460 0.73850 0.33040 -0.08300
H 	H 	0.06130 0.76510 0.35030 0.05600
C 	C 	0.15050 0.65480 0.31720 0.06100
C 	C 	0.88470 0.46930 0.46480 0.10200
H 	H 	0.83420 0.51530 0.46240 0.00300
C 	C 	0.97440 0.34650 0.48170 0.06100
C 	C 	0.01350 0.26530 0.49810 -0.08300
H 	H 	0.98370 0.23780 0.51670 0.06400
C 	C 	0.09730 0.22500 0.48680 -0.02500
H 	H 	0.12500 0.17000 0.49890 0.04000
C 	C 	0.14190 0.26610 0.45710 -0.01400
H 	H 	0.19880 0.23750 0.44920 0.04200
C 	C 	0.10260 0.34890 0.43930 -0.09200
H 	H 	0.13230 0.37630 0.42010 0.07100
C 	C 	0.01830 0.38860 0.45120 0.07100
C 	C 	0.46710 0.76860 0.39040 0.09700
H 	H 	0.45800 0.74390 0.35650 0.00300
C 	C 	0.50900 0.83650 0.44520 0.04800
C 	C 	0.54580 0.88220 0.46640 -0.09500
H 	H 	0.57750 0.90060 0.43810 0.06000
C 	C 	0.53250 0.89860 0.53230 -0.02700
H 	H 	0.55600 0.92880 0.54820 0.04700
C 	C 	0.48490 0.87080 0.57510 -0.01900
H 	H 	0.47780 0.88280 0.61870 0.04400
C 	C 	0.44790 0.82590 0.55450 -0.10100
H 	H 	0.41640 0.80720 0.58290 0.07100
C 	C 	0.46070 0.81050 0.48920 0.06900
C 	C 	0.37900 0.73380 0.47190 0.23600
C 	C 	0.30540 0.78030 0.50740 -0.28900
H 	H 	0.29340 0.83250 0.52040 0.13700
C 	C 	0.24930 0.74780 0.52360 0.23600
C 	C 	0.26640 0.67040 0.50500 -0.29600
H 	H 	0.22780 0.65000 0.51460 0.14900
C 	C 	0.34160 0.62350 0.47190 0.23700
C 	C 	0.39920 0.65400 0.45540 -0.28500
H 	H 	0.45020 0.62170 0.43380 0.14100
C 	C 	0.13630 0.76360 0.60720 0.09300
H 	H 	0.15650 0.70770 0.61670 -0.00100
C 	C 	0.06060 0.89380 0.60980 0.05200
C 	C 	0.99920 0.97320 0.62180 -0.09900
H 	H 	0.95600 0.98290 0.65370 0.06300
C 	C 	0.00440 0.03730 0.58490 -0.01900
H 	H 	0.96480 0.09090 0.59250 0.03400
C 	C 	0.06860 0.02230 0.53640 -0.02100
H 	H 	0.06990 0.06660 0.51210 0.03900
C 	C 	0.13010 0.94500 0.52270 -0.09800
H 	H 	0.17250 0.93570 0.49020 0.06600
C 	C 	0.12440 0.88150 0.56120 0.06100
C 	C 	0.34040 0.21880 0.85950 0.10400
H 	H 	0.33740 0.27030 0.84860 -0.00600
C 	C 	0.36840 0.09000 0.85420 0.04700
C 	C 	0.39790 0.00980 0.83610 -0.08900
H 	H 	0.42500 0.99230 0.79550 0.06300
C 	C 	0.38520 0.95660 0.88160 -0.03100
H 	H 	0.40280 0.90200 0.87190 0.04400
C 	C 	0.34400 0.98740 0.94490 -0.01700
H 	H 	0.33620 0.95100 0.97540 0.04200
C 	C 	0.31710 0.06450 0.96110 -0.09700
H 	H 	0.29140 0.08100 0.00230 0.07000
C 	C 	0.32720 0.12340 0.91560 0.07500
C 	C 	0.38110 0.51740 0.39100 0.09300
H 	H 	0.39290 0.54760 0.35710 -0.00000
C 	C 	0.36200 0.42200 0.44540 0.06600
C 	C 	0.35590 0.35060 0.46650 -0.10600
H 	H 	0.36570 0.30970 0.43780 0.07400
C 	C 	0.33490 0.34280 0.53150 -0.00800
H 	H 	0.32940 0.29610 0.54680 0.02900
C 	C 	0.32160 0.40350 0.57470 -0.04000
H 	H 	0.30780 0.39590 0.61820 0.05100
C 	C 	0.32820 0.47460 0.55530 -0.08600
H 	H 	0.32070 0.51440 0.58430 0.07100
C 	C 	0.34660 0.48210 0.49020 0.06200
C 	C 	0.32600 0.35820 0.15150 0.10700
H 	H 	0.31090 0.32480 0.18010 -0.01000
C 	C 	0.36870 0.44520 0.11340 0.05400
C 	C 	0.40020 0.50290 0.10440 -0.10400
H 	H 	0.41790 0.51940 0.13850 0.07000
C 	C 	0.40360 0.53460 0.04070 -0.02700
H 	H 	0.42370 0.57340 0.03250 0.04600
C 	C 	0.37850 0.50980 0.99200 -0.01700
H 	H 	0.38190 0.53220 0.95090 0.03900
C 	C 	0.34850 0.45430 0.99960 -0.10100
H 	H 	0.33170 0.43820 0.96480 0.07000
C 	C 	0.34380 0.42190 0.06110 0.06400
C 	C 	0.27550 0.32800 0.05630 0.23500
C 	C 	0.31220 0.28560 0.99920 -0.29600
H 	H 	0.36220 0.28220 0.97990 0.14600
C 	C 	0.27120 0.24890 0.97260 0.24700
C 	C 	0.19600 0.25410 0.99950 -0.29900
H 	H 	0.16920 0.22950 0.98030 0.14200
C 	C 	0.16190 0.29720 0.05630 0.23600
C 	C 	0.20110 0.33380 0.08600 -0.29100
H 	H 	0.17830 0.36130 0.12460 0.14400
C 	C 	0.96430 0.96890 0.79630 0.10000
H 	H 	0.91060 0.97910 0.79060 0.00100
C 	C 	0.09590 0.90940 0.79770 0.05900
C 	C 	0.17910 0.85650 0.79180 -0.12100
H 	H 	0.19920 0.80570 0.77270 0.08000
C 	C 	0.23110 0.88280 0.81550 -0.00300
H 	H 	0.28740 0.84820 0.81340 0.03500
C 	C 	0.20100 0.95990 0.84260 -0.04200
H 	H 	0.23820 0.97610 0.85640 0.04600
C 	C 	0.12020 0.01150 0.84930 -0.07600
H 	H 	0.10050 0.06140 0.86950 0.05800
C 	C 	0.06740 0.98670 0.82450 0.05300
C 	C 	0.92650 0.10450 0.84460 0.23500
C 	C 	0.94760 0.16730 0.83220 -0.29900
H 	H 	0.99580 0.15890 0.80660 0.13900
C 	C 	0.89700 0.24370 0.85760 0.24100
C 	C 	0.82340 0.25640 0.89450 -0.29900
H 	H 	0.78940 0.30720 0.91250 0.14200
C 	C 	0.80220 0.19320 0.90390 0.24700
C 	C 	0.85220 0.11620 0.88110 -0.29400
H 	H 	0.83770 0.07340 0.88940 0.14100
C 	C 	0.86200 0.39090 0.83990 0.09700
H 	H 	0.80520 0.40920 0.84550 0.00300
C 	C 	0.98150 0.38900 0.82310 0.05600
C 	C 	0.04680 0.40970 0.80990 -0.08000
H 	H 	0.03740 0.46400 0.80240 0.07100
C 	C 	0.12660 0.34640 0.80820 -0.03200
H 	H 	0.17130 0.35830 0.79900 0.05100
C 	C 	0.14000 0.26620 0.82020 -0.01500
H 	H 	0.19400 0.22530 0.81890 0.03700
C 	C 	0.07640 0.24430 0.83390 -0.09600
H 	H 	0.08650 0.18990 0.84220 0.06100
C 	C 	0.99600 0.30760 0.83460 0.06000
C 	C 	0.66620 0.18950 0.92000 0.10300
H 	H 	0.67310 0.16210 0.88210 0.00900
C 	C 	0.61790 0.24460 0.01180 0.04600
C 	C 	0.56990 0.27580 0.06950 -0.08000
H 	H 	0.51810 0.27720 0.07840 0.06600
C 	C 	0.60100 0.30290 0.11060 -0.03200
H 	H 	0.56950 0.32590 0.14880 0.04700
C 	C 	0.67830 0.29840 0.09910 -0.01500
H 	H 	0.69840 0.31590 0.13090 0.03800
C 	C 	0.72750 0.26920 0.04280 -0.10600
H 	H 	0.77890 0.26890 0.03440 0.07000
C 	C 	0.69500 0.24090 0.00050 0.06900
C 	C 	0.08050 0.26310 0.14510 0.09600
H 	H 	0.12420 0.23650 0.17070 -0.00300
C 	C 	0.96080 0.31220 0.11130 0.06100
C 	C 	0.87830 0.33930 0.10260 -0.11100
H 	H 	0.84310 0.32890 0.13370 0.07200
C 	C 	0.85050 0.38170 0.04670 -0.01200
H 	H 	0.79580 0.39860 0.03920 0.03400
C 	C 	0.90130 0.40040 0.00090 -0.02700
H 	H 	0.87890 0.43120 0.96440 0.04700
C 	C 	0.98290 0.37530 0.00730 -0.09600
H 	H 	0.01710 0.38700 0.97610 0.07200
C 	C 	0.01130 0.33110 0.06380 0.06800
N 	N 	0.69630 0.81650 0.32400 -0.23200
N 	N 	0.82620 0.74650 0.35010 -0.16600
N 	N 	0.25410 0.53070 0.28370 -0.22700
N 	N 	0.12390 0.59400 0.32830 -0.16400
N 	N 	0.89070 0.39900 0.49040 -0.13100
N 	N 	0.95740 0.46990 0.44200 -0.16700
N 	N 	0.51220 0.80980 0.38240 -0.23000
N 	N 	0.43560 0.76590 0.45180 -0.17100
N 	N 	0.06980 0.81920 0.63770 -0.22700
N 	N 	0.17320 0.79550 0.55990 -0.16800
N 	N 	0.37470 0.15770 0.81940 -0.23200
N 	N 	0.30960 0.20210 0.91780 -0.18000
N 	N 	0.38360 0.44550 0.38380 -0.22300
N 	N 	0.35970 0.54320 0.45300 -0.16700
N 	N 	0.35870 0.40300 0.16890 -0.23200
N 	N 	0.31590 0.36470 0.08770 -0.17100
N 	N 	0.02790 0.89990 0.78050 -0.24100
N 	N 	0.98270 0.02450 0.82160 -0.17000
N 	N 	0.89640 0.44050 0.82570 -0.13000
N 	N 	0.91710 0.30960 0.84570 -0.17100
N 	N 	0.59910 0.21480 0.95750 -0.12800
N 	N 	0.72630 0.20540 0.93910 -0.17400
N 	N 	0.00520 0.26950 0.16210 -0.23000
N 	N 	0.08740 0.29890 0.08740 -0.17100
