data_crystal

_cell_length_a 16.31280
_cell_length_b 16.47580
_cell_length_c 29.14040
_cell_angle_alpha 90.00000
_cell_angle_beta  91.92400
_cell_angle_gamma 90.00000

_symmetry_space_group_name_	'P 1'
_symmetry_space_group_name_H-M	'P 1'

loop_
_symmetry_equiv_pos_as_xyz
  x,y,z

loop_
_atom_site_label
_atom_site_type_symbol
_atom_site_fract_x
_atom_site_fract_y
_atom_site_fract_z
_atom_site_charge
Li	Li	0.85610 0.37780 0.07736 0.54600
Li	Li	0.84780 0.21620 0.13654 0.55500
Li	Li	0.40380 0.31490 0.24456 0.55700
Li	Li	0.15030 0.70870 0.19147 0.56300
Li	Li	0.34340 0.24340 0.96767 0.54800
O 	O 	0.94334 0.38522 0.12224 -0.38900
O 	O 	0.95680 0.25693 0.14615 -0.37700
C 	C 	0.97877 0.32966 0.14442 0.36700
O 	O 	0.20534 0.17362 0.23144 -0.24500
O 	O 	0.29712 0.26386 0.25676 -0.41000
C 	C 	0.23157 0.24446 0.23615 0.35300
O 	O 	0.22849 0.54683 0.24584 -0.22400
O 	O 	0.13351 0.59485 0.19608 -0.33300
C 	C 	0.16898 0.53895 0.21535 0.32800
C 	C 	0.05615 0.35253 0.17215 -0.11600
C 	C 	0.10677 0.29112 0.19030 0.05300
H 	H 	0.09250 0.23590 0.18520 0.03500
C 	C 	0.17822 0.31045 0.21586 -0.12200
C 	C 	0.19775 0.39132 0.22408 0.04800
H 	H 	0.24560 0.40480 0.24200 0.04000
C 	C 	0.14742 0.45279 0.20622 -0.11000
C 	C 	0.07717 0.43307 0.17985 0.05100
H 	H 	0.04360 0.47510 0.16710 0.04100
O 	O 	0.79536 0.27141 0.08282 -0.43600
O 	O 	0.66395 0.24240 0.09337 -0.24200
C 	C 	0.72318 0.26010 0.06864 0.33700
O 	O 	0.45906 0.27020 0.96679 -0.37000
O 	O 	0.50358 0.30240 0.89779 -0.23900
C 	C 	0.51381 0.28310 0.94011 0.34900
O 	O 	0.79443 0.27687 0.86454 -0.33200
O 	O 	0.88425 0.25182 0.92201 -0.22500
C 	C 	0.81064 0.26645 0.90514 0.33300
C 	C 	0.70288 0.26560 0.01813 -0.13600
C 	C 	0.62146 0.27022 0.00267 0.05800
H 	H 	0.57880 0.26850 0.02410 0.03500
C 	C 	0.60213 0.27740 0.95583 -0.12200
C 	C 	0.66454 0.27692 0.92440 0.05400
H 	H 	0.65170 0.28190 0.89250 0.03800
C 	C 	0.74576 0.26915 0.93985 -0.11800
C 	C 	0.76498 0.26452 0.98664 0.05100
H 	H 	0.82060 0.26060 0.99710 0.01700
O 	O 	0.78629 0.23040 0.19170 -0.35300
O 	O 	0.65319 0.24540 0.17613 -0.23100
C 	C 	0.71595 0.23840 0.20386 0.34100
O 	O 	0.45365 0.26341 0.29886 -0.41100
O 	O 	0.50114 0.25340 0.37099 -0.24400
C 	C 	0.51039 0.25591 0.32856 0.35600
O 	O 	0.79189 0.22940 0.40933 -0.37200
O 	O 	0.87596 0.19250 0.35420 -0.23500
C 	C 	0.80674 0.21500 0.36906 0.34500
C 	C 	0.69538 0.23830 0.25349 -0.12100
C 	C 	0.61500 0.24921 0.26679 0.06400
H 	H 	0.57250 0.25720 0.24420 0.02000
C 	C 	0.59670 0.24845 0.31306 -0.13100
C 	C 	0.66009 0.23680 0.34579 0.05700
H 	H 	0.64840 0.23690 0.37750 0.03500
C 	C 	0.74021 0.22490 0.33239 -0.11900
C 	C 	0.75807 0.22560 0.28622 0.05700
H 	H 	0.81280 0.21750 0.27700 0.03700
O 	O 	0.41190 0.41710 0.23210 -0.29100
C 	C 	0.44590 0.48200 0.24180 0.12300
C 	C 	0.50270 0.49070 0.28420 -0.57900
H 	H 	0.55060 0.45400 0.28260 0.16500
H 	H 	0.47330 0.47960 0.31270 0.19200
C 	C 	0.52820 0.57990 0.28110 0.03600
H 	H 	0.51110 0.60940 0.30880 -0.01700
H 	H 	0.58860 0.58390 0.27960 -0.01500
C 	C 	0.48790 0.61770 0.23840 -0.04800
H 	H 	0.45210 0.66380 0.24640 0.05100
H 	H 	0.52930 0.63650 0.21670 0.06100
N 	N 	0.44010 0.54980 0.21946 -0.18600
C 	C 	0.39010 0.55830 0.17800 -0.18600
H 	H 	0.39490 0.61380 0.16630 0.07100
H 	H 	0.33270 0.54700 0.18470 0.10300
H 	H 	0.40870 0.51980 0.15490 0.09000
O 	O 	0.42130 0.43610 0.25990 -0.14200
C 	C 	0.42760 0.49760 0.23610 0.31200
C 	C 	0.39060 0.50300 0.18530 -0.07900
H 	H 	0.41590 0.46210 0.16530 0.03700
H 	H 	0.33040 0.49470 0.18450 0.03400
C 	C 	0.41160 0.58650 0.17100 0.02800
H 	H 	0.36090 0.61750 0.16350 0.00300
H 	H 	0.44500 0.58470 0.14320 0.03000
C 	C 	0.46000 0.62770 0.21020 0.05700
H 	H 	0.51560 0.64320 0.20090 -0.00600
H 	H 	0.43110 0.67650 0.22130 0.01200
N 	N 	0.46310 0.56500 0.24440 -0.02900
C 	C 	0.49610 0.56690 0.29080 -0.18700
H 	H 	0.52330 0.61910 0.29660 0.07400
H 	H 	0.53600 0.52280 0.29520 0.28900
H 	H 	0.45160 0.55990 0.31220 0.09300
Li	Li	0.64390 0.87780 0.42264 0.54500
Li	Li	0.65220 0.71620 0.36346 0.55400
Li	Li	0.09620 0.81490 0.25544 0.55600
Li	Li	0.34970 0.20870 0.30853 0.56200
Li	Li	0.15660 0.74340 0.53233 0.54700
O 	O 	0.55666 0.88522 0.37776 -0.39000
O 	O 	0.54320 0.75693 0.35385 -0.37700
C 	C 	0.52123 0.82966 0.35558 0.36900
O 	O 	0.29466 0.67362 0.26856 -0.24500
O 	O 	0.20288 0.76386 0.24324 -0.41000
C 	C 	0.26843 0.74446 0.26385 0.35300
O 	O 	0.27151 0.04683 0.25416 -0.22400
O 	O 	0.36649 0.09485 0.30392 -0.33300
C 	C 	0.33102 0.03895 0.28465 0.32900
C 	C 	0.44385 0.85253 0.32785 -0.11800
C 	C 	0.39323 0.79112 0.30970 0.05400
H 	H 	0.40750 0.73590 0.31480 0.03500
C 	C 	0.32178 0.81045 0.28414 -0.12300
C 	C 	0.30225 0.89132 0.27592 0.04900
H 	H 	0.25440 0.90480 0.25800 0.04000
C 	C 	0.35258 0.95279 0.29378 -0.11100
C 	C 	0.42283 0.93307 0.32015 0.05200
H 	H 	0.45640 0.97510 0.33290 0.04000
O 	O 	0.70464 0.77141 0.41718 -0.43600
O 	O 	0.83605 0.74240 0.40663 -0.24200
C 	C 	0.77682 0.76010 0.43136 0.33700
O 	O 	0.04094 0.77020 0.53321 -0.37200
O 	O 	0.99642 0.80240 0.60221 -0.23800
C 	C 	0.98619 0.78310 0.55989 0.35100
O 	O 	0.70557 0.77687 0.63546 -0.33200
O 	O 	0.61575 0.75182 0.57799 -0.22400
C 	C 	0.68936 0.76645 0.59486 0.33300
C 	C 	0.79712 0.76560 0.48187 -0.13600
C 	C 	0.87854 0.77022 0.49733 0.05800
H 	H 	0.92120 0.76850 0.47590 0.03500
C 	C 	0.89787 0.77740 0.54417 -0.12200
C 	C 	0.83546 0.77692 0.57560 0.05400
H 	H 	0.84830 0.78190 0.60750 0.03700
C 	C 	0.75424 0.76915 0.56015 -0.11800
C 	C 	0.73502 0.76452 0.51336 0.05100
H 	H 	0.67940 0.76060 0.50290 0.01700
O 	O 	0.71371 0.73040 0.30830 -0.35300
O 	O 	0.84681 0.74540 0.32387 -0.23100
C 	C 	0.78405 0.73840 0.29614 0.34200
O 	O 	0.04635 0.76341 0.20114 -0.41200
O 	O 	0.99886 0.75340 0.12901 -0.24400
C 	C 	0.98961 0.75591 0.17144 0.35800
O 	O 	0.70811 0.72940 0.09067 -0.37100
O 	O 	0.62404 0.69250 0.14580 -0.23400
C 	C 	0.69326 0.71500 0.13094 0.34500
C 	C 	0.80462 0.73830 0.24651 -0.12100
C 	C 	0.88500 0.74921 0.23321 0.06400
H 	H 	0.92750 0.75720 0.25580 0.02000
C 	C 	0.90330 0.74845 0.18694 -0.13100
C 	C 	0.83991 0.73680 0.15421 0.05700
H 	H 	0.85160 0.73690 0.12250 0.03500
C 	C 	0.75979 0.72490 0.16761 -0.11900
C 	C 	0.74193 0.72560 0.21378 0.05700
H 	H 	0.68720 0.71750 0.22300 0.03700
O 	O 	0.08810 0.91710 0.26790 -0.28700
C 	C 	0.05410 0.98200 0.25820 0.12900
C 	C 	0.99730 0.99070 0.21580 -0.55300
H 	H 	0.94940 0.95400 0.21740 0.16000
H 	H 	0.02670 0.97960 0.18730 0.18300
C 	C 	0.97180 0.07990 0.21890 0.03900
H 	H 	0.98890 0.10940 0.19120 -0.01100
H 	H 	0.91140 0.08390 0.22040 -0.01400
C 	C 	0.01210 0.11770 0.26160 -0.05400
H 	H 	0.04790 0.16380 0.25360 0.05300
H 	H 	0.97070 0.13650 0.28330 0.06500
N 	N 	0.05990 0.04980 0.28054 -0.18500
C 	C 	0.10990 0.05830 0.32200 -0.15100
H 	H 	0.10510 0.11380 0.33370 0.04000
H 	H 	0.16730 0.04700 0.31530 0.09200
H 	H 	0.09130 0.01980 0.34510 0.08500
O 	O 	0.07870 0.93610 0.24010 -0.14700
C 	C 	0.07240 0.99760 0.26390 0.30300
C 	C 	0.10940 0.00300 0.31470 -0.10700
H 	H 	0.08410 0.96210 0.33470 0.04500
H 	H 	0.16960 0.99470 0.31550 0.04200
C 	C 	0.08840 0.08650 0.32900 0.04000
H 	H 	0.13910 0.11750 0.33650 0.01700
H 	H 	0.05500 0.08470 0.35680 0.02900
C 	C 	0.04000 0.12770 0.28980 0.06100
H 	H 	0.98440 0.14320 0.29910 -0.01100
H 	H 	0.06890 0.17650 0.27870 0.01100
N 	N 	0.03690 0.06500 0.25560 -0.02800
C 	C 	0.00390 0.06690 0.20920 -0.18500
H 	H 	0.97670 0.11910 0.20340 0.06600
H 	H 	0.96400 0.02280 0.20480 0.27500
H 	H 	0.04840 0.05990 0.18780 0.09300
Li	Li	0.14390 0.62220 0.92264 0.54500
Li	Li	0.15220 0.78380 0.86346 0.55400
Li	Li	0.59620 0.68510 0.75544 0.55600
Li	Li	0.84970 0.29130 0.80853 0.56200
Li	Li	0.65660 0.75660 0.03233 0.54700
O 	O 	0.05666 0.61478 0.87776 -0.39000
O 	O 	0.04320 0.74307 0.85385 -0.37700
C 	C 	0.02123 0.67034 0.85558 0.36700
O 	O 	0.79466 0.82638 0.76856 -0.24500
O 	O 	0.70288 0.73614 0.74324 -0.41000
C 	C 	0.76843 0.75554 0.76385 0.35300
O 	O 	0.77151 0.45317 0.75416 -0.22400
O 	O 	0.86649 0.40515 0.80392 -0.33300
C 	C 	0.83102 0.46105 0.78465 0.32800
C 	C 	0.94385 0.64747 0.82785 -0.11600
C 	C 	0.89323 0.70888 0.80970 0.05300
H 	H 	0.90750 0.76410 0.81480 0.03500
C 	C 	0.82178 0.68955 0.78414 -0.12200
C 	C 	0.80225 0.60868 0.77592 0.04800
H 	H 	0.75440 0.59520 0.75800 0.04000
C 	C 	0.85258 0.54721 0.79378 -0.11000
C 	C 	0.92283 0.56693 0.82015 0.05100
H 	H 	0.95640 0.52490 0.83290 0.04100
O 	O 	0.20464 0.72859 0.91718 -0.43600
O 	O 	0.33605 0.75760 0.90663 -0.24200
C 	C 	0.27682 0.73990 0.93136 0.33700
O 	O 	0.54094 0.72980 0.03321 -0.37000
O 	O 	0.49642 0.69760 0.10221 -0.23900
C 	C 	0.48619 0.71690 0.05989 0.34900
O 	O 	0.20557 0.72313 0.13546 -0.33200
O 	O 	0.11575 0.74818 0.07799 -0.22500
C 	C 	0.18936 0.73355 0.09486 0.33300
C 	C 	0.29712 0.73440 0.98187 -0.13600
C 	C 	0.37854 0.72978 0.99733 0.05800
H 	H 	0.42120 0.73150 0.97590 0.03500
C 	C 	0.39787 0.72260 0.04417 -0.12200
C 	C 	0.33546 0.72308 0.07560 0.05400
H 	H 	0.34830 0.71810 0.10750 0.03800
C 	C 	0.25424 0.73085 0.06015 -0.11800
C 	C 	0.23502 0.73548 0.01336 0.05100
H 	H 	0.17940 0.73940 0.00290 0.01700
O 	O 	0.21371 0.76960 0.80830 -0.35300
O 	O 	0.34681 0.75460 0.82387 -0.23100
C 	C 	0.28405 0.76160 0.79614 0.34100
O 	O 	0.54635 0.73659 0.70114 -0.41100
O 	O 	0.49886 0.74660 0.62901 -0.24400
C 	C 	0.48961 0.74409 0.67144 0.35600
O 	O 	0.20811 0.77060 0.59067 -0.37200
O 	O 	0.12404 0.80750 0.64580 -0.23500
C 	C 	0.19326 0.78500 0.63094 0.34500
C 	C 	0.30462 0.76170 0.74651 -0.12100
C 	C 	0.38500 0.75079 0.73321 0.06400
H 	H 	0.42750 0.74280 0.75580 0.02000
C 	C 	0.40330 0.75155 0.68694 -0.13100
C 	C 	0.33991 0.76320 0.65421 0.05700
H 	H 	0.35160 0.76310 0.62250 0.03500
C 	C 	0.25979 0.77510 0.66761 -0.11900
C 	C 	0.24193 0.77440 0.71378 0.05700
H 	H 	0.18720 0.78250 0.72300 0.03700
O 	O 	0.58810 0.58290 0.76790 -0.29100
C 	C 	0.55410 0.51800 0.75820 0.12300
C 	C 	0.49730 0.50930 0.71580 -0.57900
H 	H 	0.44940 0.54600 0.71740 0.16500
H 	H 	0.52670 0.52040 0.68730 0.19200
C 	C 	0.47180 0.42010 0.71890 0.03600
H 	H 	0.48890 0.39060 0.69120 -0.01700
H 	H 	0.41140 0.41610 0.72040 -0.01500
C 	C 	0.51210 0.38230 0.76160 -0.04800
H 	H 	0.54790 0.33620 0.75360 0.05100
H 	H 	0.47070 0.36350 0.78330 0.06100
N 	N 	0.55990 0.45020 0.78054 -0.18600
C 	C 	0.60990 0.44170 0.82200 -0.18600
H 	H 	0.60510 0.38620 0.83370 0.07100
H 	H 	0.66730 0.45300 0.81530 0.10300
H 	H 	0.59130 0.48020 0.84510 0.09000
O 	O 	0.57870 0.56390 0.74010 -0.14200
C 	C 	0.57240 0.50240 0.76390 0.31200
C 	C 	0.60940 0.49700 0.81470 -0.07900
H 	H 	0.58410 0.53790 0.83470 0.03700
H 	H 	0.66960 0.50530 0.81550 0.03400
C 	C 	0.58840 0.41350 0.82900 0.02800
H 	H 	0.63910 0.38250 0.83650 0.00300
H 	H 	0.55500 0.41530 0.85680 0.03000
C 	C 	0.54000 0.37230 0.78980 0.05700
H 	H 	0.48440 0.35680 0.79910 -0.00600
H 	H 	0.56890 0.32350 0.77870 0.01200
N 	N 	0.53690 0.43500 0.75560 -0.02900
C 	C 	0.50390 0.43310 0.70920 -0.18700
H 	H 	0.47670 0.38090 0.70340 0.07400
H 	H 	0.46400 0.47720 0.70480 0.28900
H 	H 	0.54840 0.44010 0.68780 0.09300
Li	Li	0.35610 0.12220 0.57736 0.54500
Li	Li	0.34780 0.28380 0.63654 0.55400
Li	Li	0.90380 0.18510 0.74456 0.55600
Li	Li	0.65030 0.79130 0.69147 0.56200
Li	Li	0.84340 0.25660 0.46767 0.54700
O 	O 	0.44334 0.11478 0.62224 -0.39000
O 	O 	0.45680 0.24307 0.64615 -0.37700
C 	C 	0.47877 0.17034 0.64442 0.36900
O 	O 	0.70534 0.32638 0.73144 -0.24500
O 	O 	0.79712 0.23614 0.75676 -0.41000
C 	C 	0.73157 0.25554 0.73615 0.35300
O 	O 	0.72849 0.95317 0.74584 -0.22400
O 	O 	0.63351 0.90515 0.69608 -0.33300
C 	C 	0.66898 0.96105 0.71535 0.32900
C 	C 	0.55615 0.14747 0.67215 -0.11800
C 	C 	0.60677 0.20888 0.69030 0.05400
H 	H 	0.59250 0.26410 0.68520 0.03500
C 	C 	0.67822 0.18955 0.71586 -0.12300
C 	C 	0.69775 0.10868 0.72408 0.04900
H 	H 	0.74560 0.09520 0.74200 0.04000
C 	C 	0.64742 0.04721 0.70622 -0.11100
C 	C 	0.57717 0.06693 0.67985 0.05200
H 	H 	0.54360 0.02490 0.66710 0.04000
O 	O 	0.29536 0.22859 0.58282 -0.43600
O 	O 	0.16395 0.25760 0.59337 -0.24200
C 	C 	0.22318 0.23990 0.56864 0.33700
O 	O 	0.95906 0.22980 0.46679 -0.37200
O 	O 	0.00358 0.19760 0.39779 -0.23800
C 	C 	0.01381 0.21690 0.44011 0.35100
O 	O 	0.29443 0.22313 0.36454 -0.33200
O 	O 	0.38425 0.24818 0.42201 -0.22400
C 	C 	0.31064 0.23355 0.40514 0.33300
C 	C 	0.20288 0.23440 0.51813 -0.13600
C 	C 	0.12146 0.22978 0.50267 0.05800
H 	H 	0.07880 0.23150 0.52410 0.03500
C 	C 	0.10213 0.22260 0.45583 -0.12200
C 	C 	0.16454 0.22308 0.42440 0.05400
H 	H 	0.15170 0.21810 0.39250 0.03700
C 	C 	0.24576 0.23085 0.43985 -0.11800
C 	C 	0.26498 0.23548 0.48664 0.05100
H 	H 	0.32060 0.23940 0.49710 0.01700
O 	O 	0.28629 0.26960 0.69170 -0.35300
O 	O 	0.15319 0.25460 0.67613 -0.23100
C 	C 	0.21595 0.26160 0.70386 0.34200
O 	O 	0.95365 0.23659 0.79886 -0.41200
O 	O 	0.00114 0.24660 0.87099 -0.24400
C 	C 	0.01039 0.24409 0.82856 0.35800
O 	O 	0.29189 0.27060 0.90933 -0.37100
O 	O 	0.37596 0.30750 0.85420 -0.23400
C 	C 	0.30674 0.28500 0.86906 0.34500
C 	C 	0.19538 0.26170 0.75349 -0.12100
C 	C 	0.11500 0.25079 0.76679 0.06400
H 	H 	0.07250 0.24280 0.74420 0.02000
C 	C 	0.09670 0.25155 0.81306 -0.13100
C 	C 	0.16009 0.26320 0.84579 0.05700
H 	H 	0.14840 0.26310 0.87750 0.03500
C 	C 	0.24021 0.27510 0.83239 -0.11900
C 	C 	0.25807 0.27440 0.78622 0.05700
H 	H 	0.31280 0.28250 0.77700 0.03700
O 	O 	0.91190 0.08290 0.73210 -0.28700
C 	C 	0.94590 0.01800 0.74180 0.12900
C 	C 	0.00270 0.00930 0.78420 -0.55300
H 	H 	0.05060 0.04600 0.78260 0.16000
H 	H 	0.97330 0.02040 0.81270 0.18300
C 	C 	0.02820 0.92010 0.78110 0.03900
H 	H 	0.01110 0.89060 0.80880 -0.01100
H 	H 	0.08860 0.91610 0.77960 -0.01400
C 	C 	0.98790 0.88230 0.73840 -0.05400
H 	H 	0.95210 0.83620 0.74640 0.05300
H 	H 	0.02930 0.86350 0.71670 0.06500
N 	N 	0.94010 0.95020 0.71946 -0.18500
C 	C 	0.89010 0.94170 0.67800 -0.15100
H 	H 	0.89490 0.88620 0.66630 0.04000
H 	H 	0.83270 0.95300 0.68470 0.09200
H 	H 	0.90870 0.98020 0.65490 0.08500
O 	O 	0.92130 0.06390 0.75990 -0.14700
C 	C 	0.92760 0.00240 0.73610 0.30300
C 	C 	0.89060 0.99700 0.68530 -0.10700
H 	H 	0.91590 0.03790 0.66530 0.04500
H 	H 	0.83040 0.00530 0.68450 0.04200
C 	C 	0.91160 0.91350 0.67100 0.04000
H 	H 	0.86090 0.88250 0.66350 0.01700
H 	H 	0.94500 0.91530 0.64320 0.02900
C 	C 	0.96000 0.87230 0.71020 0.06100
H 	H 	0.01560 0.85680 0.70090 -0.01100
H 	H 	0.93110 0.82350 0.72130 0.01100
N 	N 	0.96310 0.93500 0.74440 -0.02800
C 	C 	0.99610 0.93310 0.79080 -0.18500
H 	H 	0.02330 0.88090 0.79660 0.06600
H 	H 	0.03600 0.97720 0.79520 0.27500
H 	H 	0.95160 0.94010 0.81220 0.09300
