data_crystal

_cell_length_a 9.03800
_cell_length_b 9.03800
_cell_length_c 14.90340
_cell_angle_alpha 105.97200
_cell_angle_beta  105.97300
_cell_angle_gamma 95.30630

_symmetry_space_group_name_	'P 1'
_symmetry_space_group_name_H-M	'P 1'

loop_
_symmetry_equiv_pos_as_xyz
  x,y,z

loop_
_atom_site_label
_atom_site_type_symbol
_atom_site_fract_x
_atom_site_fract_y
_atom_site_fract_z
_atom_site_charge
La	La	0.25386 0.50386 0.00772 1.59500
La	La	0.49614 0.74614 0.49228 1.60100
La	La	0.74614 0.49614 0.99228 1.59500
La	La	0.50386 0.25386 0.50772 1.60100
H 	H 	0.61930 0.01690 0.15020 0.26100
H 	H 	0.74170 0.90790 0.12500 0.24500
H 	H 	0.63950 0.97290 0.04320 0.27300
H 	H 	0.03090 0.13330 0.15020 0.22300
H 	H 	0.88330 0.21710 0.12500 0.21800
H 	H 	0.90370 0.07030 0.04320 0.25000
H 	H 	0.98310 0.38070 0.34980 0.26600
H 	H 	0.09210 0.25830 0.37500 0.24500
H 	H 	0.02710 0.36050 0.45680 0.27500
H 	H 	0.86670 0.96910 0.34980 0.24500
H 	H 	0.78290 0.11670 0.37500 0.23300
H 	H 	0.92970 0.09630 0.45680 0.26400
H 	H 	0.38070 0.98310 0.84980 0.26100
H 	H 	0.25830 0.09210 0.87500 0.24500
H 	H 	0.36050 0.02710 0.95680 0.27300
H 	H 	0.96910 0.86670 0.84980 0.22300
H 	H 	0.11670 0.78290 0.87500 0.21800
H 	H 	0.09630 0.92970 0.95680 0.25000
H 	H 	0.01690 0.61930 0.65020 0.26600
H 	H 	0.90790 0.74170 0.62500 0.24500
H 	H 	0.97290 0.63950 0.54320 0.27500
H 	H 	0.13330 0.03090 0.65020 0.24500
H 	H 	0.21710 0.88330 0.62500 0.23300
H 	H 	0.07030 0.90370 0.54320 0.26400
C 	C 	0.51449 0.79269 0.06478 0.55600
C 	C 	0.63954 0.93494 0.09868 -0.87800
C 	C 	0.05029 0.27209 0.06478 0.50600
C 	C 	0.95914 0.16374 0.09868 -0.77900
C 	C 	0.20731 0.48551 0.43522 0.55900
C 	C 	0.06506 0.36046 0.40132 -0.88800
C 	C 	0.72791 0.94971 0.43522 0.53800
C 	C 	0.83626 0.04086 0.40132 -0.83700
C 	C 	0.48551 0.20731 0.93522 0.55600
C 	C 	0.36046 0.06506 0.90132 -0.87800
C 	C 	0.94971 0.72791 0.93522 0.50600
C 	C 	0.04086 0.83626 0.90132 -0.77900
C 	C 	0.79269 0.51449 0.56478 0.55900
C 	C 	0.93494 0.63954 0.59868 -0.88800
C 	C 	0.27209 0.05029 0.56478 0.53800
C 	C 	0.16374 0.95914 0.59868 -0.83700
C 	C 	0.31740 0.68260 0.25000 0.22800
C 	C 	0.43260 0.56740 0.25000 0.22700
C 	C 	0.68260 0.31740 0.75000 0.22800
C 	C 	0.56740 0.43260 0.75000 0.22700
O 	O 	0.37675 0.80599 0.06514 -0.45400
O 	O 	0.54729 0.65775 0.03484 -0.55300
O 	O 	0.21962 0.66802 0.16864 -0.36100
O 	O 	0.18839 0.25915 0.06514 -0.44200
O 	O 	0.98755 0.37709 0.03484 -0.53100
O 	O 	0.44902 0.50062 0.16864 -0.36000
O 	O 	0.19401 0.62325 0.43486 -0.45400
O 	O 	0.34225 0.45271 0.46516 -0.55500
O 	O 	0.33198 0.78038 0.33136 -0.35900
O 	O 	0.74085 0.81161 0.43486 -0.44900
O 	O 	0.62291 0.01245 0.46516 -0.54800
O 	O 	0.49938 0.55098 0.33136 -0.36000
O 	O 	0.62325 0.19401 0.93486 -0.45400
O 	O 	0.45271 0.34225 0.96516 -0.55300
O 	O 	0.78038 0.33198 0.83136 -0.36100
O 	O 	0.81161 0.74085 0.93486 -0.44200
O 	O 	0.01245 0.62291 0.96516 -0.53100
O 	O 	0.55098 0.49938 0.83136 -0.36000
O 	O 	0.80599 0.37675 0.56514 -0.45400
O 	O 	0.65775 0.54729 0.53484 -0.55500
O 	O 	0.66802 0.21962 0.66864 -0.35900
O 	O 	0.25915 0.18839 0.56514 -0.44900
O 	O 	0.37709 0.98755 0.53484 -0.54800
O 	O 	0.50062 0.44902 0.66864 -0.36000
