data_crystal

_cell_length_a 20.76770
_cell_length_b 11.75530
_cell_length_c 28.50900
_cell_angle_alpha 90.00000
_cell_angle_beta  90.00000
_cell_angle_gamma 90.00000

_symmetry_space_group_name_	'P 1'
_symmetry_space_group_name_H-M	'P 1'

loop_
_symmetry_equiv_pos_as_xyz
  x,y,z

loop_
_atom_site_label
_atom_site_type_symbol
_atom_site_fract_x
_atom_site_fract_y
_atom_site_fract_z
_atom_site_charge
C 	C 	0.73777 0.67835 0.82101 0.06600
H 	H 	0.71820 0.74450 0.81020 -0.02700
C 	C 	0.70597 0.60903 0.85276 -0.15500
H 	H 	0.66500 0.62830 0.86330 0.08000
C 	C 	0.73579 0.51023 0.86881 0.09500
C 	C 	0.79719 0.48154 0.85312 -0.15300
H 	H 	0.81700 0.41570 0.86400 0.07900
C 	C 	0.82863 0.55058 0.82142 0.06500
H 	H 	0.86960 0.53130 0.81090 -0.02700
C 	C 	0.69676 0.44175 0.90351 -0.06100
C 	C 	0.72211 0.41671 0.94750 0.02200
H 	H 	0.76290 0.44250 0.95570 0.01900
C 	C 	0.68652 0.35341 0.97903 -0.15400
H 	H 	0.70330 0.33650 0.00850 0.08700
C 	C 	0.62522 0.31479 0.96659 0.12800
C 	C 	0.59991 0.34013 0.92255 -0.14600
H 	H 	0.55890 0.31500 0.91440 0.08200
C 	C 	0.63577 0.40261 0.89104 0.01700
H 	H 	0.61930 0.41860 0.86140 0.02000
C 	C 	0.48408 0.15674 0.98213 -0.11200
H 	H 	0.50640 0.09550 0.96940 0.07100
C 	C 	0.41704 0.15589 0.98347 -0.03600
H 	H 	0.39460 0.09200 0.97330 0.04600
C 	C 	0.27817 0.27053 0.04129 -0.00900
H 	H 	0.30060 0.28390 0.06900 0.03400
H 	H 	0.18880 0.28570 0.06880 0.08100
C 	C 	0.21127 0.27110 0.04137 -0.12800
C 	C 	0.07328 0.17748 0.96536 0.12100
C 	C 	0.01847 0.21945 0.94280 -0.14400
H 	H 	0.00420 0.29310 0.94860 0.08500
C 	C 	0.98618 0.15063 0.91206 0.02500
H 	H 	0.95010 0.17880 0.89670 0.01200
C 	C 	0.00584 0.04007 0.90327 -0.06700
C 	C 	0.06024 0.99857 0.92563 0.02000
H 	H 	0.07420 0.92470 0.91980 0.01400
C 	C 	0.09398 0.06745 0.95682 -0.14200
H 	H 	0.13040 0.03960 0.97190 0.08200
C 	C 	0.87956 0.93505 0.81830 0.05600
H 	H 	0.84020 0.96070 0.80680 -0.03200
C 	C 	0.91334 0.99648 0.85246 -0.14900
H 	H 	0.89510 0.06310 0.86400 0.07600
C 	C 	0.97172 0.96335 0.86965 0.10100
C 	C 	0.99739 0.86496 0.85272 -0.15600
H 	H 	0.03740 0.84150 0.86380 0.07700
C 	C 	0.96599 0.79806 0.81950 0.07000
H 	H 	0.98420 0.73030 0.80910 -0.02000
N 	N 	0.79894 0.64903 0.80530 -0.25000
N 	N 	0.90687 0.83436 0.80210 -0.24700
C 	C 	0.73777 0.82165 0.17899 0.06500
H 	H 	0.71820 0.75550 0.18980 -0.02700
C 	C 	0.70597 0.89097 0.14724 -0.15400
H 	H 	0.66500 0.87170 0.13670 0.08000
C 	C 	0.73579 0.98977 0.13119 0.09400
C 	C 	0.79719 0.01846 0.14688 -0.15300
H 	H 	0.81700 0.08430 0.13600 0.07900
C 	C 	0.82863 0.94942 0.17858 0.06500
H 	H 	0.86960 0.96870 0.18910 -0.02700
C 	C 	0.69676 0.05825 0.09649 -0.05700
C 	C 	0.72211 0.08329 0.05250 0.01400
H 	H 	0.76290 0.05750 0.04430 0.02300
C 	C 	0.68652 0.14659 0.02097 -0.14000
H 	H 	0.70330 0.16350 0.99150 0.07900
C 	C 	0.62522 0.18521 0.03341 0.12500
C 	C 	0.59991 0.15987 0.07745 -0.14200
H 	H 	0.55890 0.18500 0.08560 0.08100
C 	C 	0.63577 0.09739 0.10896 0.01400
H 	H 	0.61930 0.08140 0.13860 0.02100
C 	C 	0.48408 0.34326 0.01787 -0.10900
H 	H 	0.50640 0.40450 0.03060 0.07100
C 	C 	0.41704 0.34411 0.01653 -0.03300
H 	H 	0.39460 0.40800 0.02670 0.04600
C 	C 	0.27817 0.22947 0.95871 -0.01200
H 	H 	0.30060 0.21610 0.93100 0.03400
H 	H 	0.18880 0.21430 0.93120 0.08200
C 	C 	0.21127 0.22890 0.95863 -0.13100
C 	C 	0.07328 0.32252 0.03464 0.12800
C 	C 	0.01847 0.28055 0.05720 -0.15000
H 	H 	0.00420 0.20690 0.05140 0.08800
C 	C 	0.98618 0.34937 0.08794 0.03300
H 	H 	0.95010 0.32120 0.10330 0.00900
C 	C 	0.00584 0.45993 0.09673 -0.07300
C 	C 	0.06024 0.50143 0.07437 0.02800
H 	H 	0.07420 0.57530 0.08020 0.01200
C 	C 	0.09398 0.43255 0.04318 -0.14800
H 	H 	0.13040 0.46040 0.02810 0.08500
C 	C 	0.87956 0.56495 0.18170 0.05800
H 	H 	0.84020 0.53930 0.19320 -0.03300
C 	C 	0.91334 0.50352 0.14754 -0.15400
H 	H 	0.89510 0.43690 0.13600 0.07900
C 	C 	0.97172 0.53665 0.13035 0.10600
C 	C 	0.99739 0.63504 0.14728 -0.16000
H 	H 	0.03740 0.65850 0.13620 0.07900
C 	C 	0.96599 0.70194 0.18050 0.07200
H 	H 	0.98420 0.76970 0.19090 -0.02100
N 	N 	0.79894 0.85097 0.19470 -0.24900
N 	N 	0.90687 0.66564 0.19790 -0.24800
C 	C 	0.73777 0.67835 0.67899 0.06600
H 	H 	0.71820 0.74450 0.68980 -0.02700
C 	C 	0.70597 0.60903 0.64724 -0.15400
H 	H 	0.66500 0.62830 0.63670 0.08000
C 	C 	0.73579 0.51023 0.63119 0.09400
C 	C 	0.79719 0.48154 0.64688 -0.15300
H 	H 	0.81700 0.41570 0.63600 0.07800
C 	C 	0.82863 0.55058 0.67858 0.06500
H 	H 	0.86960 0.53130 0.68910 -0.02700
C 	C 	0.69676 0.44175 0.59649 -0.06000
C 	C 	0.72211 0.41671 0.55250 0.01800
H 	H 	0.76290 0.44250 0.54430 0.02100
C 	C 	0.68652 0.35341 0.52097 -0.14800
H 	H 	0.70330 0.33650 0.49150 0.08300
C 	C 	0.62522 0.31479 0.53341 0.12700
C 	C 	0.59991 0.34013 0.57745 -0.14500
H 	H 	0.55890 0.31500 0.58560 0.08200
C 	C 	0.63577 0.40261 0.60896 0.01600
H 	H 	0.61930 0.41860 0.63860 0.02100
C 	C 	0.48408 0.15674 0.51787 -0.10800
H 	H 	0.50640 0.09550 0.53060 0.07000
C 	C 	0.41704 0.15589 0.51653 -0.03400
H 	H 	0.39460 0.09200 0.52670 0.04600
C 	C 	0.27817 0.27053 0.45871 -0.01000
H 	H 	0.30060 0.28390 0.43100 0.03400
H 	H 	0.18880 0.28570 0.43120 0.08100
C 	C 	0.21127 0.27110 0.45863 -0.12800
C 	C 	0.07328 0.17748 0.53464 0.12400
C 	C 	0.01847 0.21945 0.55720 -0.14500
H 	H 	0.00420 0.29310 0.55140 0.08600
C 	C 	0.98618 0.15063 0.58794 0.02600
H 	H 	0.95010 0.17880 0.60330 0.01100
C 	C 	0.00584 0.04007 0.59673 -0.06600
C 	C 	0.06024 0.99857 0.57437 0.02000
H 	H 	0.07420 0.92470 0.58020 0.01400
C 	C 	0.09398 0.06745 0.54318 -0.14300
H 	H 	0.13040 0.03960 0.52810 0.08300
C 	C 	0.87956 0.93505 0.68170 0.05600
H 	H 	0.84020 0.96070 0.69320 -0.03200
C 	C 	0.91334 0.99648 0.64754 -0.14900
H 	H 	0.89510 0.06310 0.63600 0.07600
C 	C 	0.97172 0.96335 0.63035 0.10200
C 	C 	0.99739 0.86496 0.64728 -0.15600
H 	H 	0.03740 0.84150 0.63620 0.07700
C 	C 	0.96599 0.79806 0.68050 0.07000
H 	H 	0.98420 0.73030 0.69090 -0.02000
N 	N 	0.79894 0.64903 0.69470 -0.24900
N 	N 	0.90687 0.83436 0.69790 -0.24700
C 	C 	0.73777 0.82165 0.32101 0.06600
H 	H 	0.71820 0.75550 0.31020 -0.02700
C 	C 	0.70597 0.89097 0.35276 -0.15500
H 	H 	0.66500 0.87170 0.36330 0.08000
C 	C 	0.73579 0.98977 0.36881 0.09600
C 	C 	0.79719 0.01846 0.35312 -0.15400
H 	H 	0.81700 0.08430 0.36400 0.07900
C 	C 	0.82863 0.94942 0.32142 0.06600
H 	H 	0.86960 0.96870 0.31090 -0.02700
C 	C 	0.69676 0.05825 0.40351 -0.06000
C 	C 	0.72211 0.08329 0.44750 0.01900
H 	H 	0.76290 0.05750 0.45570 0.02100
C 	C 	0.68652 0.14659 0.47903 -0.14800
H 	H 	0.70330 0.16350 0.50850 0.08300
C 	C 	0.62522 0.18521 0.46659 0.12800
C 	C 	0.59991 0.15987 0.42255 -0.14500
H 	H 	0.55890 0.18500 0.41440 0.08200
C 	C 	0.63577 0.09739 0.39104 0.01600
H 	H 	0.61930 0.08140 0.36140 0.02000
C 	C 	0.48408 0.34326 0.48213 -0.10900
H 	H 	0.50640 0.40450 0.46940 0.07000
C 	C 	0.41704 0.34411 0.48347 -0.03400
H 	H 	0.39460 0.40800 0.47330 0.04600
C 	C 	0.27817 0.22947 0.54129 -0.01000
H 	H 	0.30060 0.21610 0.56900 0.03400
H 	H 	0.18880 0.21430 0.56880 0.08100
C 	C 	0.21127 0.22890 0.54137 -0.12800
C 	C 	0.07328 0.32252 0.46536 0.12700
C 	C 	0.01847 0.28055 0.44280 -0.15000
H 	H 	0.00420 0.20690 0.44860 0.08700
C 	C 	0.98618 0.34937 0.41206 0.03200
H 	H 	0.95010 0.32120 0.39670 0.00900
C 	C 	0.00584 0.45993 0.40327 -0.07300
C 	C 	0.06024 0.50143 0.42563 0.02700
H 	H 	0.07420 0.57530 0.41980 0.01200
C 	C 	0.09398 0.43255 0.45682 -0.14800
H 	H 	0.13040 0.46040 0.47190 0.08400
C 	C 	0.87956 0.56495 0.31830 0.05800
H 	H 	0.84020 0.53930 0.30680 -0.03300
C 	C 	0.91334 0.50352 0.35246 -0.15400
H 	H 	0.89510 0.43690 0.36400 0.07900
C 	C 	0.97172 0.53665 0.36965 0.10600
C 	C 	0.99739 0.63504 0.35272 -0.16000
H 	H 	0.03740 0.65850 0.36380 0.07900
C 	C 	0.96599 0.70194 0.31950 0.07200
H 	H 	0.98420 0.76970 0.30910 -0.02100
N 	N 	0.79894 0.85097 0.30530 -0.25000
N 	N 	0.90687 0.66564 0.30210 -0.24800
C 	C 	0.51745 0.25000 -0.00000 0.10100
C 	C 	0.38345 0.25000 -0.00000 0.00700
C 	C 	0.31170 0.25000 -0.00000 -0.01200
C 	C 	0.17756 0.25000 -0.00000 0.12000
N 	N 	0.58873 0.25000 -0.00000 -0.16200
N 	N 	0.10831 0.25000 -0.00000 -0.15900
C 	C 	0.51745 0.25000 0.50000 0.09800
C 	C 	0.38345 0.25000 0.50000 0.00500
C 	C 	0.31170 0.25000 0.50000 -0.01400
C 	C 	0.17756 0.25000 0.50000 0.11700
N 	N 	0.58873 0.25000 0.50000 -0.16300
N 	N 	0.10831 0.25000 0.50000 -0.16000
Co	Co	0.84807 0.74539 0.75000 1.06500
Co	Co	0.84807 0.75461 0.25000 1.06500
C 	C 	0.26223 0.32165 0.32101 0.06600
H 	H 	0.28180 0.25550 0.31020 -0.02700
C 	C 	0.29403 0.39097 0.35276 -0.15400
H 	H 	0.33500 0.37170 0.36330 0.08000
C 	C 	0.26421 0.48977 0.36881 0.09400
C 	C 	0.20281 0.51846 0.35312 -0.15300
H 	H 	0.18300 0.58430 0.36400 0.07800
C 	C 	0.17137 0.44942 0.32142 0.06500
H 	H 	0.13040 0.46870 0.31090 -0.02700
C 	C 	0.30324 0.55825 0.40351 -0.06000
C 	C 	0.27789 0.58329 0.44750 0.01800
H 	H 	0.23710 0.55750 0.45570 0.02100
C 	C 	0.31348 0.64659 0.47903 -0.14800
H 	H 	0.29670 0.66350 0.50850 0.08300
C 	C 	0.37478 0.68521 0.46659 0.12700
C 	C 	0.40009 0.65987 0.42255 -0.14500
H 	H 	0.44110 0.68500 0.41440 0.08200
C 	C 	0.36423 0.59739 0.39104 0.01600
H 	H 	0.38070 0.58140 0.36140 0.02100
C 	C 	0.51592 0.84326 0.48213 -0.10800
H 	H 	0.49360 0.90450 0.46940 0.07000
C 	C 	0.58296 0.84411 0.48347 -0.03400
H 	H 	0.60540 0.90800 0.47330 0.04600
C 	C 	0.72183 0.72947 0.54129 -0.01000
H 	H 	0.69940 0.71610 0.56900 0.03400
H 	H 	0.81120 0.71430 0.56880 0.08100
C 	C 	0.78873 0.72890 0.54137 -0.12800
C 	C 	0.92672 0.82252 0.46536 0.12400
C 	C 	0.98153 0.78055 0.44280 -0.14500
H 	H 	0.99580 0.70690 0.44860 0.08500
C 	C 	0.01382 0.84937 0.41206 0.02600
H 	H 	0.04990 0.82120 0.39670 0.01200
C 	C 	0.99416 0.95993 0.40327 -0.06600
C 	C 	0.93976 0.00143 0.42563 0.02000
H 	H 	0.92580 0.07530 0.41980 0.01400
C 	C 	0.90602 0.93255 0.45682 -0.14300
H 	H 	0.86960 0.96040 0.47190 0.08300
C 	C 	0.12044 0.06495 0.31830 0.05600
H 	H 	0.15980 0.03930 0.30680 -0.03200
C 	C 	0.08666 0.00352 0.35246 -0.14900
H 	H 	0.10490 0.93690 0.36400 0.07600
C 	C 	0.02828 0.03665 0.36965 0.10100
C 	C 	0.00261 0.13504 0.35272 -0.15600
H 	H 	0.96260 0.15850 0.36380 0.07700
C 	C 	0.03401 0.20194 0.31950 0.07000
H 	H 	0.01580 0.26970 0.30910 -0.02000
N 	N 	0.20106 0.35097 0.30530 -0.24900
N 	N 	0.09313 0.16564 0.30210 -0.24700
C 	C 	0.26223 0.17835 0.67899 0.06600
H 	H 	0.28180 0.24450 0.68980 -0.02700
C 	C 	0.29403 0.10903 0.64724 -0.15500
H 	H 	0.33500 0.12830 0.63670 0.08000
C 	C 	0.26421 0.01023 0.63119 0.09500
C 	C 	0.20281 0.98154 0.64688 -0.15400
H 	H 	0.18300 0.91570 0.63600 0.07900
C 	C 	0.17137 0.05058 0.67858 0.06500
H 	H 	0.13040 0.03130 0.68910 -0.02700
C 	C 	0.30324 0.94175 0.59649 -0.06000
C 	C 	0.27789 0.91671 0.55250 0.01900
H 	H 	0.23710 0.94250 0.54430 0.02100
C 	C 	0.31348 0.85341 0.52097 -0.14800
H 	H 	0.29670 0.83650 0.49150 0.08300
C 	C 	0.37478 0.81479 0.53341 0.12800
C 	C 	0.40009 0.84013 0.57745 -0.14500
H 	H 	0.44110 0.81500 0.58560 0.08200
C 	C 	0.36423 0.90261 0.60896 0.01600
H 	H 	0.38070 0.91860 0.63860 0.02100
C 	C 	0.51592 0.65674 0.51787 -0.10900
H 	H 	0.49360 0.59550 0.53060 0.07000
C 	C 	0.58296 0.65589 0.51653 -0.03400
H 	H 	0.60540 0.59200 0.52670 0.04600
C 	C 	0.72183 0.77053 0.45871 -0.01000
H 	H 	0.69940 0.78390 0.43100 0.03400
H 	H 	0.81120 0.78570 0.43120 0.08100
C 	C 	0.78873 0.77110 0.45863 -0.12800
C 	C 	0.92672 0.67748 0.53464 0.12700
C 	C 	0.98153 0.71945 0.55720 -0.15000
H 	H 	0.99580 0.79310 0.55140 0.08700
C 	C 	0.01382 0.65063 0.58794 0.03300
H 	H 	0.04990 0.67880 0.60330 0.00900
C 	C 	0.99416 0.54007 0.59673 -0.07300
C 	C 	0.93976 0.49857 0.57437 0.02700
H 	H 	0.92580 0.42470 0.58020 0.01200
C 	C 	0.90602 0.56745 0.54318 -0.14800
H 	H 	0.86960 0.53960 0.52810 0.08400
C 	C 	0.12044 0.43505 0.68170 0.05800
H 	H 	0.15980 0.46070 0.69320 -0.03300
C 	C 	0.08666 0.49648 0.64754 -0.15400
H 	H 	0.10490 0.56310 0.63600 0.07900
C 	C 	0.02828 0.46335 0.63035 0.10600
C 	C 	0.00261 0.36496 0.64728 -0.16000
H 	H 	0.96260 0.34150 0.63620 0.07900
C 	C 	0.03401 0.29806 0.68050 0.07200
H 	H 	0.01580 0.23030 0.69090 -0.02100
N 	N 	0.20106 0.14903 0.69470 -0.25000
N 	N 	0.09313 0.33436 0.69790 -0.24800
C 	C 	0.26223 0.32165 0.17899 0.06500
H 	H 	0.28180 0.25550 0.18980 -0.02700
C 	C 	0.29403 0.39097 0.14724 -0.15300
H 	H 	0.33500 0.37170 0.13670 0.08000
C 	C 	0.26421 0.48977 0.13119 0.09300
C 	C 	0.20281 0.51846 0.14688 -0.15200
H 	H 	0.18300 0.58430 0.13600 0.07800
C 	C 	0.17137 0.44942 0.17858 0.06400
H 	H 	0.13040 0.46870 0.18910 -0.02700
C 	C 	0.30324 0.55825 0.09649 -0.05700
C 	C 	0.27789 0.58329 0.05250 0.01400
H 	H 	0.23710 0.55750 0.04430 0.02300
C 	C 	0.31348 0.64659 0.02097 -0.14100
H 	H 	0.29670 0.66350 0.99150 0.07900
C 	C 	0.37478 0.68521 0.03341 0.12500
C 	C 	0.40009 0.65987 0.07745 -0.14200
H 	H 	0.44110 0.68500 0.08560 0.08100
C 	C 	0.36423 0.59739 0.10896 0.01400
H 	H 	0.38070 0.58140 0.13860 0.02100
C 	C 	0.51592 0.84326 0.01787 -0.10900
H 	H 	0.49360 0.90450 0.03060 0.07100
C 	C 	0.58296 0.84411 0.01653 -0.03300
H 	H 	0.60540 0.90800 0.02670 0.04600
C 	C 	0.72183 0.72947 0.95871 -0.01200
H 	H 	0.69940 0.71610 0.93100 0.03400
H 	H 	0.81120 0.71430 0.93120 0.08200
C 	C 	0.78873 0.72890 0.95863 -0.13000
C 	C 	0.92672 0.82252 0.03464 0.12500
C 	C 	0.98153 0.78055 0.05720 -0.14600
H 	H 	0.99580 0.70690 0.05140 0.08600
C 	C 	0.01382 0.84937 0.08794 0.02700
H 	H 	0.04990 0.82120 0.10330 0.01100
C 	C 	0.99416 0.95993 0.09673 -0.06700
C 	C 	0.93976 0.00143 0.07437 0.02200
H 	H 	0.92580 0.07530 0.08020 0.01400
C 	C 	0.90602 0.93255 0.04318 -0.14400
H 	H 	0.86960 0.96040 0.02810 0.08300
C 	C 	0.12044 0.06495 0.18170 0.05600
H 	H 	0.15980 0.03930 0.19320 -0.03200
C 	C 	0.08666 0.00352 0.14754 -0.14900
H 	H 	0.10490 0.93690 0.13600 0.07600
C 	C 	0.02828 0.03665 0.13035 0.10200
C 	C 	0.00261 0.13504 0.14728 -0.15600
H 	H 	0.96260 0.15850 0.13620 0.07700
C 	C 	0.03401 0.20194 0.18050 0.07000
H 	H 	0.01580 0.26970 0.19090 -0.02000
N 	N 	0.20106 0.35097 0.19470 -0.24900
N 	N 	0.09313 0.16564 0.19790 -0.24700
C 	C 	0.26223 0.17835 0.82101 0.06600
H 	H 	0.28180 0.24450 0.81020 -0.02800
C 	C 	0.29403 0.10903 0.85276 -0.15500
H 	H 	0.33500 0.12830 0.86330 0.08000
C 	C 	0.26421 0.01023 0.86881 0.09500
C 	C 	0.20281 0.98154 0.85312 -0.15400
H 	H 	0.18300 0.91570 0.86400 0.07900
C 	C 	0.17137 0.05058 0.82142 0.06500
H 	H 	0.13040 0.03130 0.81090 -0.02700
C 	C 	0.30324 0.94175 0.90351 -0.06100
C 	C 	0.27789 0.91671 0.94750 0.02100
H 	H 	0.23710 0.94250 0.95570 0.01900
C 	C 	0.31348 0.85341 0.97903 -0.15400
H 	H 	0.29670 0.83650 0.00850 0.08700
C 	C 	0.37478 0.81479 0.96659 0.12800
C 	C 	0.40009 0.84013 0.92255 -0.14600
H 	H 	0.44110 0.81500 0.91440 0.08200
C 	C 	0.36423 0.90261 0.89104 0.01700
H 	H 	0.38070 0.91860 0.86140 0.02000
C 	C 	0.51592 0.65674 0.98213 -0.11100
H 	H 	0.49360 0.59550 0.96940 0.07100
C 	C 	0.58296 0.65589 0.98347 -0.03600
H 	H 	0.60540 0.59200 0.97330 0.04600
C 	C 	0.72183 0.77053 0.04129 -0.00900
H 	H 	0.69940 0.78390 0.06900 0.03400
H 	H 	0.81120 0.78570 0.06880 0.08100
C 	C 	0.78873 0.77110 0.04137 -0.12800
C 	C 	0.92672 0.67748 0.96536 0.12400
C 	C 	0.98153 0.71945 0.94280 -0.14900
H 	H 	0.99580 0.79310 0.94860 0.08600
C 	C 	0.01382 0.65063 0.91206 0.03100
H 	H 	0.04990 0.67880 0.89670 0.01000
C 	C 	0.99416 0.54007 0.90327 -0.07200
C 	C 	0.93976 0.49857 0.92563 0.02600
H 	H 	0.92580 0.42470 0.91980 0.01200
C 	C 	0.90602 0.56745 0.95682 -0.14700
H 	H 	0.86960 0.53960 0.97190 0.08300
C 	C 	0.12044 0.43505 0.81830 0.05800
H 	H 	0.15980 0.46070 0.80680 -0.03300
C 	C 	0.08666 0.49648 0.85246 -0.15400
H 	H 	0.10490 0.56310 0.86400 0.07800
C 	C 	0.02828 0.46335 0.86965 0.10500
C 	C 	0.00261 0.36496 0.85272 -0.15900
H 	H 	0.96260 0.34150 0.86380 0.07900
C 	C 	0.03401 0.29806 0.81950 0.07200
H 	H 	0.01580 0.23030 0.80910 -0.02100
N 	N 	0.20106 0.14903 0.80530 -0.25000
N 	N 	0.09313 0.33436 0.80210 -0.24800
C 	C 	0.48255 0.75000 0.50000 0.09800
C 	C 	0.61655 0.75000 0.50000 0.00500
C 	C 	0.68830 0.75000 0.50000 -0.01400
C 	C 	0.82244 0.75000 0.50000 0.11700
N 	N 	0.41127 0.75000 0.50000 -0.16300
N 	N 	0.89169 0.75000 0.50000 -0.16000
C 	C 	0.48255 0.75000 -0.00000 0.10100
C 	C 	0.61655 0.75000 -0.00000 0.00700
C 	C 	0.68830 0.75000 -0.00000 -0.01300
C 	C 	0.82244 0.75000 -0.00000 0.12000
N 	N 	0.41127 0.75000 -0.00000 -0.16200
N 	N 	0.89169 0.75000 -0.00000 -0.15900
Co	Co	0.15193 0.25461 0.25000 1.06500
Co	Co	0.15193 0.24539 0.75000 1.06500
