data_crystal

_cell_length_a 15.42720
_cell_length_b 29.41600
_cell_length_c 16.35600
_cell_angle_alpha 90.00000
_cell_angle_beta  94.59500
_cell_angle_gamma 90.00000

_symmetry_space_group_name_	'P 1'
_symmetry_space_group_name_H-M	'P 1'

loop_
_symmetry_equiv_pos_as_xyz
  x,y,z

loop_
_atom_site_label
_atom_site_type_symbol
_atom_site_fract_x
_atom_site_fract_y
_atom_site_fract_z
_atom_site_charge
Zn	Zn	0.28095 0.15656 0.32783 1.23900
Zn	Zn	0.27459 0.48553 0.79747 1.15600
O 	O 	0.45480 0.20908 0.32010 -0.45900
O 	O 	0.31824 0.21801 0.35085 -0.47900
O 	O 	0.66030 0.33478 0.35250 -0.43400
O 	O 	0.60820 0.40551 0.34690 -0.30000
O 	O 	0.22792 0.36718 0.28459 -0.49200
O 	O 	0.10714 0.34235 0.33872 -0.42900
O 	O 	0.36760 0.47806 0.64480 -0.45000
O 	O 	0.25640 0.44726 0.70260 -0.52100
O 	O 	0.86780 0.42186 0.63580 -0.26100
O 	O 	0.83220 0.49431 0.65300 -0.45000
O 	O 	0.05440 0.60786 0.68530 -0.46800
O 	O 	0.16978 0.60370 0.61148 -0.45100
O 	O 	0.29390 0.54884 0.75660 -0.73900
O 	O 	0.36150 0.45910 0.87360 -0.09800
C 	C 	0.39370 0.23223 0.34240 0.41200
C 	C 	0.49410 0.29915 0.35140 0.04100
H 	H 	0.53770 0.28050 0.33070 0.04800
C 	C 	0.51140 0.34428 0.36940 -0.08800
C 	C 	0.59980 0.36369 0.35550 0.34900
C 	C 	0.44790 0.37196 0.39970 -0.01700
H 	H 	0.46000 0.40310 0.41100 0.04500
C 	C 	0.36700 0.35407 0.41350 -0.01400
C 	C 	0.34880 0.30846 0.39360 -0.00100
H 	H 	0.29290 0.29620 0.40080 0.05400
C 	C 	0.41290 0.28106 0.36340 -0.10800
C 	C 	0.30070 0.38205 0.45090 0.04700
C 	C 	0.21290 0.38270 0.42320 -0.10400
C 	C 	0.17860 0.36170 0.34340 0.39100
C 	C 	0.15370 0.40792 0.46490 -0.02000
H 	H 	0.09390 0.40720 0.44570 0.05100
C 	C 	0.17910 0.43386 0.53330 0.03100
C 	C 	0.26720 0.43243 0.56290 -0.06600
C 	C 	0.32630 0.40701 0.52170 -0.04700
H 	H 	0.38570 0.40660 0.54230 0.06100
C 	C 	0.29990 0.45458 0.64200 0.33800
C 	C 	0.11640 0.46434 0.57020 0.01000
C 	C 	0.03430 0.44870 0.58750 -0.04900
H 	H 	0.01780 0.41820 0.57510 0.06200
C 	C 	0.97630 0.47795 0.62300 -0.05400
C 	C 	0.88630 0.46328 0.63840 0.33400
C 	C 	0.99970 0.52251 0.64080 0.05900
H 	H 	0.96070 0.54200 0.66620 0.04400
C 	C 	0.08040 0.53884 0.62160 -0.12800
C 	C 	0.10280 0.58700 0.64020 0.39000
C 	C 	0.13810 0.51021 0.58550 -0.01000
H 	H 	0.19240 0.52170 0.57110 0.05900
H 	H 	0.35140 0.55350 0.77790 0.10700
H 	H 	0.27630 0.57790 0.76040 0.31400
Zn	Zn	0.38035 0.49318 0.77167 1.17700
O 	O 	0.39360 0.48500 0.85020 -0.73800
Zn	Zn	0.78095 0.65656 0.82783 1.23800
Zn	Zn	0.77459 0.98553 0.29747 1.15600
O 	O 	0.95480 0.70908 0.82010 -0.45200
O 	O 	0.81824 0.71801 0.85085 -0.48300
O 	O 	0.16030 0.83478 0.85250 -0.44500
O 	O 	0.10820 0.90551 0.84690 -0.31500
O 	O 	0.72792 0.86718 0.78459 -0.49200
O 	O 	0.60714 0.84235 0.83872 -0.42300
O 	O 	0.86760 0.97806 0.14480 -0.44400
O 	O 	0.75640 0.94726 0.20260 -0.51700
O 	O 	0.36780 0.92186 0.13580 -0.27000
O 	O 	0.33220 0.99431 0.15300 -0.45200
O 	O 	0.55440 0.10786 0.18530 -0.45500
O 	O 	0.66978 0.10370 0.11148 -0.44600
O 	O 	0.79390 0.04884 0.25660 -0.73900
O 	O 	0.86150 0.95910 0.37360 -0.09400
C 	C 	0.89370 0.73223 0.84240 0.43400
C 	C 	0.99410 0.79915 0.85140 0.17400
H 	H 	0.03770 0.78050 0.83070 -0.01100
C 	C 	0.01140 0.84428 0.86940 -0.20100
C 	C 	0.09980 0.86369 0.85550 0.38300
C 	C 	0.94790 0.87196 0.89970 0.07200
H 	H 	0.96000 0.90310 0.91100 0.02400
C 	C 	0.86700 0.85407 0.91350 -0.06100
C 	C 	0.84880 0.80846 0.89360 0.04900
H 	H 	0.79290 0.79620 0.90080 0.03900
C 	C 	0.91290 0.78106 0.86340 -0.16600
C 	C 	0.80070 0.88205 0.95090 0.06800
C 	C 	0.71290 0.88270 0.92320 -0.11000
C 	C 	0.67860 0.86170 0.84340 0.39300
C 	C 	0.65370 0.90792 0.96490 -0.01700
H 	H 	0.59390 0.90720 0.94570 0.05400
C 	C 	0.67910 0.93386 0.03330 0.03200
C 	C 	0.76720 0.93243 0.06290 -0.06000
C 	C 	0.82630 0.90701 0.02170 -0.05700
H 	H 	0.88570 0.90660 0.04230 0.06900
C 	C 	0.79990 0.95458 0.14200 0.33600
C 	C 	0.61640 0.96434 0.07020 0.00600
C 	C 	0.53430 0.94870 0.08750 -0.01600
H 	H 	0.51780 0.91820 0.07510 0.06100
C 	C 	0.47630 0.97795 0.12300 -0.07800
C 	C 	0.38630 0.96328 0.13840 0.33900
C 	C 	0.49970 0.02251 0.14080 0.03000
H 	H 	0.46070 0.04200 0.16620 0.04800
C 	C 	0.58040 0.03884 0.12160 -0.09700
C 	C 	0.60280 0.08700 0.14020 0.38200
C 	C 	0.63810 0.01021 0.08550 -0.01400
H 	H 	0.69240 0.02170 0.07110 0.06200
H 	H 	0.85140 0.05350 0.27790 0.10900
H 	H 	0.77630 0.07790 0.26040 0.31400
Zn	Zn	0.88035 0.99318 0.27167 1.17900
O 	O 	0.89360 0.98500 0.35020 -0.73200
Zn	Zn	0.71905 0.15656 0.17217 1.23800
Zn	Zn	0.72541 0.48553 0.70253 1.15600
O 	O 	0.54520 0.20908 0.17990 -0.45900
O 	O 	0.68176 0.21801 0.14915 -0.47900
O 	O 	0.33970 0.33478 0.14750 -0.43600
O 	O 	0.39180 0.40551 0.15310 -0.30000
O 	O 	0.77208 0.36718 0.21541 -0.49000
O 	O 	0.89286 0.34235 0.16128 -0.41300
O 	O 	0.63240 0.47806 0.85520 -0.45100
O 	O 	0.74360 0.44726 0.79740 -0.51800
O 	O 	0.13220 0.42186 0.86420 -0.27700
O 	O 	0.16780 0.49431 0.84700 -0.45400
O 	O 	0.94560 0.60786 0.81470 -0.44000
O 	O 	0.83022 0.60370 0.88852 -0.44300
O 	O 	0.70610 0.54884 0.74340 -0.73800
O 	O 	0.63850 0.45910 0.62640 -0.09700
C 	C 	0.60630 0.23223 0.15760 0.41300
C 	C 	0.50590 0.29915 0.14860 0.04100
H 	H 	0.46230 0.28050 0.16930 0.04800
C 	C 	0.48860 0.34428 0.13060 -0.08800
C 	C 	0.40020 0.36369 0.14450 0.34900
C 	C 	0.55210 0.37196 0.10030 -0.01700
H 	H 	0.54000 0.40310 0.08900 0.04600
C 	C 	0.63300 0.35407 0.08650 -0.01300
C 	C 	0.65120 0.30846 0.10640 -0.00200
H 	H 	0.70710 0.29620 0.09920 0.05500
C 	C 	0.58710 0.28106 0.13660 -0.10700
C 	C 	0.69930 0.38205 0.04910 0.04700
C 	C 	0.78710 0.38270 0.07680 -0.09800
C 	C 	0.82140 0.36170 0.15660 0.38700
C 	C 	0.84630 0.40792 0.03510 -0.02400
H 	H 	0.90610 0.40720 0.05430 0.06100
C 	C 	0.82090 0.43386 0.96670 0.03700
C 	C 	0.73280 0.43243 0.93710 -0.06700
C 	C 	0.67370 0.40701 0.97830 -0.04600
H 	H 	0.61430 0.40660 0.95770 0.06100
C 	C 	0.70010 0.45458 0.85800 0.33800
C 	C 	0.88360 0.46434 0.92980 0.00200
C 	C 	0.96570 0.44870 0.91250 0.01500
H 	H 	0.98220 0.41820 0.92490 0.05800
C 	C 	0.02370 0.47795 0.87700 -0.09900
C 	C 	0.11370 0.46328 0.86160 0.34200
C 	C 	0.00030 0.52251 0.85920 -0.00300
H 	H 	0.03930 0.54200 0.83380 0.05300
C 	C 	0.91960 0.53884 0.87840 -0.06600
C 	C 	0.89720 0.58700 0.85980 0.37300
C 	C 	0.86190 0.51021 0.91450 -0.02200
H 	H 	0.80760 0.52170 0.92890 0.06400
H 	H 	0.64860 0.55350 0.72210 0.10700
H 	H 	0.72370 0.57790 0.73960 0.31400
Zn	Zn	0.61965 0.49318 0.72833 1.17700
O 	O 	0.60640 0.48500 0.64980 -0.73800
Zn	Zn	0.21905 0.65656 0.67217 1.23700
Zn	Zn	0.22541 0.98553 0.20253 1.15500
O 	O 	0.04520 0.70908 0.67990 -0.46300
O 	O 	0.18176 0.71801 0.64915 -0.47500
O 	O 	0.83970 0.83478 0.64750 -0.42500
O 	O 	0.89180 0.90551 0.65310 -0.28400
O 	O 	0.27208 0.86718 0.71541 -0.49000
O 	O 	0.39286 0.84235 0.66128 -0.42100
O 	O 	0.13240 0.97806 0.35520 -0.45700
O 	O 	0.24360 0.94726 0.29740 -0.52100
O 	O 	0.63220 0.92186 0.36420 -0.26800
O 	O 	0.66780 0.99431 0.34700 -0.45200
O 	O 	0.44560 0.10786 0.31470 -0.45500
O 	O 	0.33022 0.10370 0.38852 -0.44800
O 	O 	0.20610 0.04884 0.24340 -0.73700
O 	O 	0.13850 0.95910 0.12640 -0.10000
C 	C 	0.10630 0.73223 0.65760 0.39000
C 	C 	0.00590 0.79915 0.64860 -0.09400
H 	H 	0.96230 0.78050 0.66930 0.10700
C 	C 	0.98860 0.84428 0.63060 0.02600
C 	C 	0.90020 0.86369 0.64450 0.31500
C 	C 	0.05210 0.87196 0.60030 -0.10700
H 	H 	0.04000 0.90310 0.58900 0.06800
C 	C 	0.13300 0.85407 0.58650 0.03600
C 	C 	0.15120 0.80846 0.60640 -0.05300
H 	H 	0.20710 0.79620 0.59920 0.07100
C 	C 	0.08710 0.78106 0.63660 -0.04700
C 	C 	0.19930 0.88205 0.54910 0.02300
C 	C 	0.28710 0.88270 0.57680 -0.09000
C 	C 	0.32140 0.86170 0.65660 0.38500
C 	C 	0.34630 0.90792 0.53510 -0.03100
H 	H 	0.40610 0.90720 0.55430 0.05900
C 	C 	0.32090 0.93386 0.46670 0.04200
C 	C 	0.23280 0.93243 0.43710 -0.07600
C 	C 	0.17370 0.90701 0.47830 -0.03200
H 	H 	0.11430 0.90660 0.45770 0.05200
C 	C 	0.20010 0.95458 0.35800 0.34100
C 	C 	0.38360 0.96434 0.42980 0.00200
C 	C 	0.46570 0.94870 0.41250 -0.01400
H 	H 	0.48220 0.91820 0.42490 0.06000
C 	C 	0.52370 0.97795 0.37700 -0.07800
C 	C 	0.61370 0.96328 0.36160 0.33900
C 	C 	0.50030 0.02251 0.35920 0.03000
H 	H 	0.53930 0.04200 0.33380 0.04800
C 	C 	0.41960 0.03884 0.37840 -0.09800
C 	C 	0.39720 0.08700 0.35980 0.38300
C 	C 	0.36190 0.01021 0.41450 -0.01300
H 	H 	0.30760 0.02170 0.42890 0.06000
H 	H 	0.14860 0.05350 0.22210 0.10500
H 	H 	0.22370 0.07790 0.23960 0.31300
Zn	Zn	0.11965 0.99318 0.22833 1.17500
O 	O 	0.10640 0.98500 0.14980 -0.74400
Zn	Zn	0.71905 0.84344 0.67217 1.23700
Zn	Zn	0.72541 0.51447 0.20253 1.15600
O 	O 	0.54520 0.79092 0.67990 -0.45900
O 	O 	0.68176 0.78199 0.64915 -0.47900
O 	O 	0.33970 0.66522 0.64750 -0.43600
O 	O 	0.39180 0.59449 0.65310 -0.30000
O 	O 	0.77208 0.63282 0.71541 -0.49000
O 	O 	0.89286 0.65765 0.66128 -0.41300
O 	O 	0.63240 0.52194 0.35520 -0.45100
O 	O 	0.74360 0.55274 0.29740 -0.51800
O 	O 	0.13220 0.57814 0.36420 -0.27700
O 	O 	0.16780 0.50569 0.34700 -0.45400
O 	O 	0.94560 0.39214 0.31470 -0.44000
O 	O 	0.83022 0.39630 0.38852 -0.44300
O 	O 	0.70610 0.45116 0.24340 -0.73800
O 	O 	0.63850 0.54090 0.12640 -0.09600
C 	C 	0.60630 0.76777 0.65760 0.41200
C 	C 	0.50590 0.70085 0.64860 0.04100
H 	H 	0.46230 0.71950 0.66930 0.04800
C 	C 	0.48860 0.65572 0.63060 -0.08800
C 	C 	0.40020 0.63631 0.64450 0.34900
C 	C 	0.55210 0.62804 0.60030 -0.01800
H 	H 	0.54000 0.59690 0.58900 0.04600
C 	C 	0.63300 0.64593 0.58650 -0.01200
C 	C 	0.65120 0.69154 0.60640 -0.00200
H 	H 	0.70710 0.70380 0.59920 0.05600
C 	C 	0.58710 0.71894 0.63660 -0.10700
C 	C 	0.69930 0.61795 0.54910 0.04400
C 	C 	0.78710 0.61730 0.57680 -0.09600
C 	C 	0.82140 0.63830 0.65660 0.38700
C 	C 	0.84630 0.59208 0.53510 -0.02700
H 	H 	0.90610 0.59280 0.55430 0.06200
C 	C 	0.82090 0.56614 0.46670 0.04100
C 	C 	0.73280 0.56757 0.43710 -0.06900
C 	C 	0.67370 0.59299 0.47830 -0.04300
H 	H 	0.61430 0.59340 0.45770 0.06000
C 	C 	0.70010 0.54542 0.35800 0.33900
C 	C 	0.88360 0.53566 0.42980 0.00100
C 	C 	0.96570 0.55130 0.41250 0.01600
H 	H 	0.98220 0.58180 0.42490 0.05900
C 	C 	0.02370 0.52205 0.37700 -0.09900
C 	C 	0.11370 0.53672 0.36160 0.34200
C 	C 	0.00030 0.47749 0.35920 -0.00300
H 	H 	0.03930 0.45800 0.33380 0.05300
C 	C 	0.91960 0.46116 0.37840 -0.06500
C 	C 	0.89720 0.41300 0.35980 0.37300
C 	C 	0.86190 0.48979 0.41450 -0.02100
H 	H 	0.80760 0.47830 0.42890 0.06400
H 	H 	0.64860 0.44650 0.22210 0.10700
H 	H 	0.72370 0.42210 0.23960 0.31400
Zn	Zn	0.61965 0.50682 0.22833 1.17700
O 	O 	0.60640 0.51500 0.14980 -0.73800
Zn	Zn	0.21905 0.34344 0.17217 1.23700
Zn	Zn	0.22541 0.01447 0.70253 1.15500
O 	O 	0.04520 0.29092 0.17990 -0.46300
O 	O 	0.18176 0.28199 0.14915 -0.47500
O 	O 	0.83970 0.16522 0.14750 -0.42500
O 	O 	0.89180 0.09449 0.15310 -0.28400
O 	O 	0.27208 0.13282 0.21541 -0.49000
O 	O 	0.39286 0.15765 0.16128 -0.42100
O 	O 	0.13240 0.02194 0.85520 -0.45700
O 	O 	0.24360 0.05274 0.79740 -0.52100
O 	O 	0.63220 0.07814 0.86420 -0.26900
O 	O 	0.66780 0.00569 0.84700 -0.45200
O 	O 	0.44560 0.89214 0.81470 -0.45600
O 	O 	0.33022 0.89630 0.88852 -0.44800
O 	O 	0.20610 0.95116 0.74340 -0.73700
O 	O 	0.13850 0.04090 0.62640 -0.10000
C 	C 	0.10630 0.26777 0.15760 0.39000
C 	C 	0.00590 0.20085 0.14860 -0.09300
H 	H 	0.96230 0.21950 0.16930 0.10700
C 	C 	0.98860 0.15572 0.13060 0.02500
C 	C 	0.90020 0.13631 0.14450 0.31500
C 	C 	0.05210 0.12804 0.10030 -0.10600
H 	H 	0.04000 0.09690 0.08900 0.06800
C 	C 	0.13300 0.14593 0.08650 0.03500
C 	C 	0.15120 0.19154 0.10640 -0.05200
H 	H 	0.20710 0.20380 0.09920 0.07000
C 	C 	0.08710 0.21894 0.13660 -0.04800
C 	C 	0.19930 0.11795 0.04910 0.02700
C 	C 	0.28710 0.11730 0.07680 -0.09200
C 	C 	0.32140 0.13830 0.15660 0.38600
C 	C 	0.34630 0.09208 0.03510 -0.02600
H 	H 	0.40610 0.09280 0.05430 0.05800
C 	C 	0.32090 0.06614 0.96670 0.03800
C 	C 	0.23280 0.06757 0.93710 -0.07300
C 	C 	0.17370 0.09299 0.97830 -0.03600
H 	H 	0.11430 0.09340 0.95770 0.05300
C 	C 	0.20010 0.04542 0.85800 0.34000
C 	C 	0.38360 0.03566 0.92980 0.00200
C 	C 	0.46570 0.05130 0.91250 -0.01400
H 	H 	0.48220 0.08180 0.92490 0.05900
C 	C 	0.52370 0.02205 0.87700 -0.07900
C 	C 	0.61370 0.03672 0.86160 0.33900
C 	C 	0.50030 0.97749 0.85920 0.03100
H 	H 	0.53930 0.95800 0.83380 0.04800
C 	C 	0.41960 0.96116 0.87840 -0.09900
C 	C 	0.39720 0.91300 0.85980 0.38300
C 	C 	0.36190 0.98979 0.91450 -0.01200
H 	H 	0.30760 0.97830 0.92890 0.06000
H 	H 	0.14860 0.94650 0.72210 0.10500
H 	H 	0.22370 0.92210 0.73960 0.31300
Zn	Zn	0.11965 0.00682 0.72833 1.17500
O 	O 	0.10640 0.01500 0.64980 -0.74400
Zn	Zn	0.28095 0.84344 0.82783 1.23800
Zn	Zn	0.27459 0.51447 0.29747 1.15500
O 	O 	0.45480 0.79092 0.82010 -0.45900
O 	O 	0.31824 0.78199 0.85085 -0.47900
O 	O 	0.66030 0.66522 0.85250 -0.43500
O 	O 	0.60820 0.59449 0.84690 -0.30000
O 	O 	0.22792 0.63282 0.78459 -0.49200
O 	O 	0.10714 0.65765 0.83872 -0.42900
O 	O 	0.36760 0.52194 0.14480 -0.45000
O 	O 	0.25640 0.55274 0.20260 -0.52100
O 	O 	0.86780 0.57814 0.13580 -0.26100
O 	O 	0.83220 0.50569 0.15300 -0.45000
O 	O 	0.05440 0.39214 0.18530 -0.46800
O 	O 	0.16978 0.39630 0.11148 -0.45100
O 	O 	0.29390 0.45116 0.25660 -0.73900
O 	O 	0.36150 0.54090 0.37360 -0.09700
C 	C 	0.39370 0.76777 0.84240 0.41200
C 	C 	0.49410 0.70085 0.85140 0.04100
H 	H 	0.53770 0.71950 0.83070 0.04800
C 	C 	0.51140 0.65572 0.86940 -0.08800
C 	C 	0.59980 0.63631 0.85550 0.34900
C 	C 	0.44790 0.62804 0.89970 -0.01700
H 	H 	0.46000 0.59690 0.91100 0.04500
C 	C 	0.36700 0.64593 0.91350 -0.01300
C 	C 	0.34880 0.69154 0.89360 -0.00100
H 	H 	0.29290 0.70380 0.90080 0.05400
C 	C 	0.41290 0.71894 0.86340 -0.10800
C 	C 	0.30070 0.61795 0.95090 0.04500
C 	C 	0.21290 0.61730 0.92320 -0.10300
C 	C 	0.17860 0.63830 0.84340 0.39100
C 	C 	0.15370 0.59208 0.96490 -0.02200
H 	H 	0.09390 0.59280 0.94570 0.05200
C 	C 	0.17910 0.56614 0.03330 0.03300
C 	C 	0.26720 0.56757 0.06290 -0.06700
C 	C 	0.32630 0.59299 0.02170 -0.04500
H 	H 	0.38570 0.59340 0.04230 0.06100
C 	C 	0.29990 0.54542 0.14200 0.33800
C 	C 	0.11640 0.53566 0.07020 0.00900
C 	C 	0.03430 0.55130 0.08750 -0.04800
H 	H 	0.01780 0.58180 0.07510 0.06200
C 	C 	0.97630 0.52205 0.12300 -0.05400
C 	C 	0.88630 0.53672 0.13840 0.33400
C 	C 	0.99970 0.47749 0.14080 0.05900
H 	H 	0.96070 0.45800 0.16620 0.04400
C 	C 	0.08040 0.46116 0.12160 -0.12800
C 	C 	0.10280 0.41300 0.14020 0.39000
C 	C 	0.13810 0.48979 0.08550 -0.00900
H 	H 	0.19240 0.47830 0.07110 0.05900
H 	H 	0.35140 0.44650 0.27790 0.10700
H 	H 	0.27630 0.42210 0.26040 0.31400
Zn	Zn	0.38035 0.50682 0.27167 1.17700
O 	O 	0.39360 0.51500 0.35020 -0.73800
Zn	Zn	0.78095 0.34344 0.32783 1.23800
Zn	Zn	0.77459 0.01447 0.79747 1.15500
O 	O 	0.95480 0.29092 0.32010 -0.45200
O 	O 	0.81824 0.28199 0.35085 -0.48300
O 	O 	0.16030 0.16522 0.35250 -0.44500
O 	O 	0.10820 0.09449 0.34690 -0.31500
O 	O 	0.72792 0.13282 0.28459 -0.49200
O 	O 	0.60714 0.15765 0.33872 -0.42300
O 	O 	0.86760 0.02194 0.64480 -0.44400
O 	O 	0.75640 0.05274 0.70260 -0.51700
O 	O 	0.36780 0.07814 0.63580 -0.27000
O 	O 	0.33220 0.00569 0.65300 -0.45200
O 	O 	0.55440 0.89214 0.68530 -0.45500
O 	O 	0.66978 0.89630 0.61148 -0.44600
O 	O 	0.79390 0.95116 0.75660 -0.73900
O 	O 	0.86150 0.04090 0.87360 -0.09400
C 	C 	0.89370 0.26777 0.34240 0.43400
C 	C 	0.99410 0.20085 0.35140 0.17600
H 	H 	0.03770 0.21950 0.33070 -0.01200
C 	C 	0.01140 0.15572 0.36940 -0.20200
C 	C 	0.09980 0.13631 0.35550 0.38300
C 	C 	0.94790 0.12804 0.39970 0.07300
H 	H 	0.96000 0.09690 0.41100 0.02400
C 	C 	0.86700 0.14593 0.41350 -0.06200
C 	C 	0.84880 0.19154 0.39360 0.05000
H 	H 	0.79290 0.20380 0.40080 0.03900
C 	C 	0.91290 0.21894 0.36340 -0.16700
C 	C 	0.80070 0.11795 0.45090 0.06900
C 	C 	0.71290 0.11730 0.42320 -0.11000
C 	C 	0.67860 0.13830 0.34340 0.39400
C 	C 	0.65370 0.09208 0.46490 -0.01600
H 	H 	0.59390 0.09280 0.44570 0.05400
C 	C 	0.67910 0.06614 0.53330 0.03100
C 	C 	0.76720 0.06757 0.56290 -0.05900
C 	C 	0.82630 0.09299 0.52170 -0.05800
H 	H 	0.88570 0.09340 0.54230 0.07000
C 	C 	0.79990 0.04542 0.64200 0.33500
C 	C 	0.61640 0.03566 0.57020 0.00800
C 	C 	0.53430 0.05130 0.58750 -0.01700
H 	H 	0.51780 0.08180 0.57510 0.06100
C 	C 	0.47630 0.02205 0.62300 -0.07600
C 	C 	0.38630 0.03672 0.63840 0.33800
C 	C 	0.49970 0.97749 0.64080 0.02800
H 	H 	0.46070 0.95800 0.66620 0.04800
C 	C 	0.58040 0.96116 0.62160 -0.09600
C 	C 	0.60280 0.91300 0.64020 0.38200
C 	C 	0.63810 0.98979 0.58550 -0.01600
H 	H 	0.69240 0.97830 0.57110 0.06200
H 	H 	0.85140 0.94650 0.77790 0.10900
H 	H 	0.77630 0.92210 0.76040 0.31400
Zn	Zn	0.88035 0.00682 0.77167 1.17900
O 	O 	0.89360 0.01500 0.85020 -0.73200
Zn	Zn	0.50000 0.15902 0.25000 1.25600
Zn	Zn	0.00000 0.65902 0.75000 1.24800
Zn	Zn	0.50000 0.84098 0.75000 1.25600
Zn	Zn	0.00000 0.34098 0.25000 1.24800
