data_crystal

_cell_length_a 23.98400
_cell_length_b 13.12200
_cell_length_c 11.91700
_cell_angle_alpha 90.00000
_cell_angle_beta  90.00000
_cell_angle_gamma 90.00000

_symmetry_space_group_name_	'P 1'
_symmetry_space_group_name_H-M	'P 1'

loop_
_symmetry_equiv_pos_as_xyz
  x,y,z

loop_
_atom_site_label
_atom_site_type_symbol
_atom_site_fract_x
_atom_site_fract_y
_atom_site_fract_z
_atom_site_charge
O 	O 	0.48075 0.68170 0.88330 -0.37400
O 	O 	0.50303 0.58480 0.73950 -0.37700
N 	N 	0.32669 0.20010 0.98830 -0.11600
N 	N 	0.31981 0.12260 0.06110 -0.18200
N 	N 	0.35518 0.12860 0.14400 -0.08600
N 	N 	0.38740 0.21080 0.12600 -0.20300
C 	C 	0.36892 0.25370 0.03230 0.10200
C 	C 	0.39293 0.34540 0.98010 -0.00900
C 	C 	0.39911 0.43530 0.03930 -0.07500
H 	H 	0.38620 0.43990 0.11270 0.04300
C 	C 	0.42472 0.51910 0.98890 0.00500
H 	H 	0.42810 0.57990 0.02860 0.04200
C 	C 	0.44506 0.51280 0.88100 -0.07300
C 	C 	0.43740 0.42390 0.82140 -0.00300
H 	H 	0.44930 0.41990 0.74720 0.04300
C 	C 	0.41210 0.34020 0.87140 -0.06300
H 	H 	0.40810 0.28000 0.83100 0.05100
C 	C 	0.47821 0.59890 0.83060 0.29900
C 	C 	0.24483 0.08640 0.31030 0.05800
H 	H 	0.24190 0.14740 0.27090 -0.02600
C 	C 	0.24362 0.09000 0.42630 -0.12200
H 	H 	0.23860 0.15180 0.46310 0.06200
C 	C 	0.26570 0.08520 0.67380 -0.12600
H 	H 	0.27660 0.14440 0.63700 0.07400
C 	C 	0.26520 0.08220 0.78940 0.05700
H 	H 	0.27590 0.14040 0.82830 -0.01300
O 	O 	0.01925 0.31830 0.88330 -0.37900
O 	O 	0.99697 0.41520 0.73950 -0.37700
N 	N 	0.17331 0.79990 0.98830 -0.11200
N 	N 	0.18019 0.87740 0.06110 -0.17100
N 	N 	0.14482 0.87140 0.14400 -0.07700
N 	N 	0.11260 0.78920 0.12600 -0.20000
C 	C 	0.13108 0.74630 0.03230 0.10100
C 	C 	0.10707 0.65460 0.98010 -0.00200
C 	C 	0.10089 0.56470 0.03930 -0.08500
H 	H 	0.11380 0.56010 0.11270 0.04600
C 	C 	0.07528 0.48090 0.98890 0.01500
H 	H 	0.07190 0.42010 0.02860 0.03600
C 	C 	0.05494 0.48720 0.88100 -0.07900
C 	C 	0.06260 0.57610 0.82140 0.00300
H 	H 	0.05070 0.58010 0.74720 0.04100
C 	C 	0.08790 0.65980 0.87140 -0.06800
H 	H 	0.09190 0.72000 0.83100 0.05500
C 	C 	0.02179 0.40110 0.83060 0.30100
C 	C 	0.25517 0.91360 0.31030 0.09100
H 	H 	0.25810 0.85260 0.27090 -0.03000
C 	C 	0.25638 0.91000 0.42630 -0.09400
H 	H 	0.26140 0.84820 0.46310 0.05800
C 	C 	0.23430 0.91480 0.67380 -0.09800
H 	H 	0.22340 0.85560 0.63700 0.06900
C 	C 	0.23480 0.91780 0.78940 0.09000
H 	H 	0.22410 0.85960 0.82830 -0.01800
O 	O 	0.01925 0.18170 0.61670 -0.37900
O 	O 	0.99697 0.08480 0.76050 -0.38800
N 	N 	0.17331 0.70010 0.51170 -0.11600
N 	N 	0.18019 0.62260 0.43890 -0.17800
N 	N 	0.14482 0.62860 0.35600 -0.08300
N 	N 	0.11260 0.71080 0.37400 -0.20300
C 	C 	0.13108 0.75370 0.46770 0.10900
C 	C 	0.10707 0.84540 0.51990 -0.02000
C 	C 	0.10089 0.93530 0.46070 -0.02100
H 	H 	0.11380 0.93990 0.38730 0.03200
C 	C 	0.07528 0.01910 0.51110 -0.04300
H 	H 	0.07190 0.07990 0.47140 0.05100
C 	C 	0.05494 0.01280 0.61900 -0.10200
C 	C 	0.06260 0.92390 0.67860 0.04100
H 	H 	0.05070 0.91990 0.75280 0.03800
C 	C 	0.08790 0.84020 0.62860 -0.06900
H 	H 	0.09190 0.78000 0.66900 0.05500
C 	C 	0.02179 0.09890 0.66940 0.30300
C 	C 	0.25517 0.58640 0.18970 0.06900
H 	H 	0.25810 0.64740 0.22910 -0.02600
C 	C 	0.25638 0.59000 0.07370 -0.13000
H 	H 	0.26140 0.65180 0.03690 0.06700
C 	C 	0.23430 0.58520 0.82620 -0.13700
H 	H 	0.22340 0.64440 0.86300 0.07900
C 	C 	0.23480 0.58220 0.71060 0.07000
H 	H 	0.22410 0.64040 0.67170 -0.01500
O 	O 	0.48075 0.81830 0.61670 -0.37200
O 	O 	0.50303 0.91520 0.76050 -0.36400
N 	N 	0.32669 0.29990 0.51170 -0.11500
N 	N 	0.31981 0.37740 0.43890 -0.17800
N 	N 	0.35518 0.37140 0.35600 -0.08200
N 	N 	0.38740 0.28920 0.37400 -0.20200
C 	C 	0.36892 0.24630 0.46770 0.10100
C 	C 	0.39293 0.15460 0.51990 -0.00200
C 	C 	0.39911 0.06470 0.46070 -0.12200
H 	H 	0.38620 0.06010 0.38730 0.05200
C 	C 	0.42472 0.98090 0.51110 0.04800
H 	H 	0.42810 0.92010 0.47140 0.03400
C 	C 	0.44506 0.98720 0.61900 -0.04100
C 	C 	0.43740 0.07610 0.67860 -0.04900
H 	H 	0.44930 0.08010 0.75280 0.05000
C 	C 	0.41210 0.15980 0.62860 -0.05200
H 	H 	0.40810 0.22000 0.66900 0.04700
C 	C 	0.47821 0.90110 0.66940 0.29400
C 	C 	0.24483 0.41360 0.18970 0.06800
H 	H 	0.24190 0.35260 0.22910 -0.02800
C 	C 	0.24362 0.41000 0.07370 -0.13000
H 	H 	0.23860 0.34820 0.03690 0.06400
C 	C 	0.26570 0.41480 0.82620 -0.13700
H 	H 	0.27660 0.35560 0.86300 0.07800
C 	C 	0.26520 0.41780 0.71060 0.06900
H 	H 	0.27590 0.35960 0.67170 -0.01600
O 	O 	0.51925 0.31830 0.11670 -0.37800
O 	O 	0.49697 0.41520 0.26050 -0.37700
N 	N 	0.67331 0.79990 0.01170 -0.11300
N 	N 	0.68019 0.87740 0.93890 -0.17100
N 	N 	0.64482 0.87140 0.85600 -0.07700
N 	N 	0.61260 0.78920 0.87400 -0.20100
C 	C 	0.63108 0.74630 0.96770 0.10400
C 	C 	0.60707 0.65460 0.01990 -0.00700
C 	C 	0.60089 0.56470 0.96070 -0.07700
H 	H 	0.61380 0.56010 0.88730 0.04300
C 	C 	0.57528 0.48090 0.01110 0.00700
H 	H 	0.57190 0.42010 0.97140 0.03900
C 	C 	0.55494 0.48720 0.11900 -0.07500
C 	C 	0.56260 0.57610 0.17860 -0.00100
H 	H 	0.55070 0.58010 0.25280 0.04300
C 	C 	0.58790 0.65980 0.12860 -0.06400
H 	H 	0.59190 0.72000 0.16900 0.05400
C 	C 	0.52179 0.40110 0.16940 0.30000
C 	C 	0.75517 0.91360 0.68970 0.09100
H 	H 	0.75810 0.85260 0.72910 -0.03000
C 	C 	0.75638 0.91000 0.57370 -0.09400
H 	H 	0.76140 0.84820 0.53690 0.05800
C 	C 	0.73430 0.91480 0.32620 -0.09700
H 	H 	0.72340 0.85560 0.36300 0.06900
C 	C 	0.73480 0.91780 0.21060 0.09000
H 	H 	0.72410 0.85960 0.17170 -0.01800
O 	O 	0.98075 0.68170 0.11670 -0.37300
O 	O 	0.00303 0.58480 0.26050 -0.37800
N 	N 	0.82669 0.20010 0.01170 -0.11500
N 	N 	0.81981 0.12260 0.93890 -0.18200
N 	N 	0.85518 0.12860 0.85600 -0.08600
N 	N 	0.88740 0.21080 0.87400 -0.20200
C 	C 	0.86892 0.25370 0.96770 0.10000
C 	C 	0.89293 0.34540 0.01990 -0.00300
C 	C 	0.89911 0.43530 0.96070 -0.08300
H 	H 	0.88620 0.43990 0.88730 0.04500
C 	C 	0.92472 0.51910 0.01110 0.01300
H 	H 	0.92810 0.57990 0.97140 0.03900
C 	C 	0.94506 0.51280 0.11900 -0.07700
C 	C 	0.93740 0.42390 0.17860 0.00200
H 	H 	0.94930 0.41990 0.25280 0.04200
C 	C 	0.91210 0.34020 0.12860 -0.06800
H 	H 	0.90810 0.28000 0.16900 0.05300
C 	C 	0.97821 0.59890 0.16940 0.30200
C 	C 	0.74483 0.08640 0.68970 0.05800
H 	H 	0.74190 0.14740 0.72910 -0.02600
C 	C 	0.74362 0.09000 0.57370 -0.12200
H 	H 	0.73860 0.15180 0.53690 0.06200
C 	C 	0.76570 0.08520 0.32620 -0.12600
H 	H 	0.77660 0.14440 0.36300 0.07400
C 	C 	0.76520 0.08220 0.21060 0.05700
H 	H 	0.77590 0.14040 0.17170 -0.01300
O 	O 	0.98075 0.81830 0.38330 -0.37200
O 	O 	0.00303 0.91520 0.23950 -0.36600
N 	N 	0.82669 0.29990 0.48830 -0.11500
N 	N 	0.81981 0.37740 0.56110 -0.17800
N 	N 	0.85518 0.37140 0.64400 -0.08200
N 	N 	0.88740 0.28920 0.62600 -0.20200
C 	C 	0.86892 0.24630 0.53230 0.10100
C 	C 	0.89293 0.15460 0.48010 -0.00200
C 	C 	0.89911 0.06470 0.53930 -0.12200
H 	H 	0.88620 0.06010 0.61270 0.05200
C 	C 	0.92472 0.98090 0.48890 0.04900
H 	H 	0.92810 0.92010 0.52860 0.03300
C 	C 	0.94506 0.98720 0.38100 -0.04100
C 	C 	0.93740 0.07610 0.32140 -0.04900
H 	H 	0.94930 0.08010 0.24720 0.05000
C 	C 	0.91210 0.15980 0.37140 -0.05300
H 	H 	0.90810 0.22000 0.33100 0.04700
C 	C 	0.97821 0.90110 0.33060 0.29600
C 	C 	0.74483 0.41360 0.81030 0.06800
H 	H 	0.74190 0.35260 0.77090 -0.02800
C 	C 	0.74362 0.41000 0.92630 -0.13000
H 	H 	0.73860 0.34820 0.96310 0.06400
C 	C 	0.76570 0.41480 0.17380 -0.13700
H 	H 	0.77660 0.35560 0.13700 0.07800
C 	C 	0.76520 0.41780 0.28940 0.06900
H 	H 	0.77590 0.35960 0.32830 -0.01600
O 	O 	0.51925 0.18170 0.38330 -0.37900
O 	O 	0.49697 0.08480 0.23950 -0.38800
N 	N 	0.67331 0.70010 0.48830 -0.11600
N 	N 	0.68019 0.62260 0.56110 -0.17800
N 	N 	0.64482 0.62860 0.64400 -0.08300
N 	N 	0.61260 0.71080 0.62600 -0.20300
C 	C 	0.63108 0.75370 0.53230 0.10900
C 	C 	0.60707 0.84540 0.48010 -0.02000
C 	C 	0.60089 0.93530 0.53930 -0.02000
H 	H 	0.61380 0.93990 0.61270 0.03200
C 	C 	0.57528 0.01910 0.48890 -0.04300
H 	H 	0.57190 0.07990 0.52860 0.05100
C 	C 	0.55494 0.01280 0.38100 -0.10200
C 	C 	0.56260 0.92390 0.32140 0.04100
H 	H 	0.55070 0.91990 0.24720 0.03800
C 	C 	0.58790 0.84020 0.37140 -0.06900
H 	H 	0.59190 0.78000 0.33100 0.05500
C 	C 	0.52179 0.09890 0.33060 0.30300
C 	C 	0.75517 0.58640 0.81030 0.06900
H 	H 	0.75810 0.64740 0.77090 -0.02600
C 	C 	0.75638 0.59000 0.92630 -0.13000
H 	H 	0.76140 0.65180 0.96310 0.06700
C 	C 	0.73430 0.58520 0.17380 -0.13700
H 	H 	0.72340 0.64440 0.13700 0.07900
C 	C 	0.73480 0.58220 0.28940 0.07000
H 	H 	0.72410 0.64040 0.32830 -0.01500
Cd	Cd	0.25000 0.00000 0.05118 1.15100
N 	N 	0.25000 0.00000 0.25160 -0.26600
N 	N 	0.25000 -0.00000 0.84870 -0.26500
C 	C 	0.25000 0.00000 0.48740 0.01900
C 	C 	0.25000 -0.00000 0.61220 0.02500
Cd	Cd	0.25000 0.50000 0.44882 1.15900
N 	N 	0.25000 0.50000 0.24840 -0.24800
N 	N 	0.25000 0.50000 0.65130 -0.24800
C 	C 	0.25000 0.50000 0.01260 0.04900
C 	C 	0.25000 0.50000 0.88780 0.06100
Cd	Cd	0.75000 -0.00000 0.94882 1.15100
N 	N 	0.75000 0.00000 0.74840 -0.26600
N 	N 	0.75000 0.00000 0.15130 -0.26500
C 	C 	0.75000 0.00000 0.51260 0.01900
C 	C 	0.75000 0.00000 0.38780 0.02500
Cd	Cd	0.75000 0.50000 0.55118 1.15900
N 	N 	0.75000 0.50000 0.75160 -0.24800
N 	N 	0.75000 0.50000 0.34870 -0.24800
C 	C 	0.75000 0.50000 0.98740 0.04900
C 	C 	0.75000 0.50000 0.11220 0.06100
Cd	Cd	0.45754 0.25000 0.25000 1.21800
Cd	Cd	0.04246 0.75000 0.25000 1.21800
Cd	Cd	0.54246 0.75000 0.75000 1.21900
Cd	Cd	0.95754 0.25000 0.75000 1.21800
