data_crystal

_cell_length_a 11.35740
_cell_length_b 11.35740
_cell_length_c 16.02800
_cell_angle_alpha 85.20790
_cell_angle_beta  85.20790
_cell_angle_gamma 61.03720

_symmetry_space_group_name_	'P 1'
_symmetry_space_group_name_H-M	'P 1'

loop_
_symmetry_equiv_pos_as_xyz
  x,y,z

loop_
_atom_site_label
_atom_site_type_symbol
_atom_site_fract_x
_atom_site_fract_y
_atom_site_fract_z
_atom_site_charge
Sr	Sr	0.05785 0.66077 0.98688 1.49600
Sr	Sr	0.33923 0.94215 0.51312 1.49800
Sr	Sr	0.94215 0.33923 0.01312 1.49700
Sr	Sr	0.66077 0.05785 0.48688 1.49900
Ca	Ca	0.88044 0.31224 0.74827 1.49900
Ca	Ca	0.68776 0.11956 0.75173 1.49900
Ca	Ca	0.11956 0.68776 0.25173 1.49900
Ca	Ca	0.31224 0.88044 0.24827 1.49900
H 	H 	0.76190 0.63690 0.55430 0.04400
H 	H 	0.75320 0.65460 0.66070 0.05300
H 	H 	0.97510 0.59790 0.60860 0.03600
H 	H 	0.98390 0.46190 0.56250 0.03600
H 	H 	0.70180 0.46300 0.51810 0.15300
H 	H 	0.84700 0.37580 0.52110 0.10500
H 	H 	0.56010 0.50010 0.65930 0.06500
H 	H 	0.54730 0.64650 0.63390 0.06900
H 	H 	0.20170 0.38870 0.65280 0.11300
H 	H 	0.18160 0.29300 0.73090 0.07300
H 	H 	0.06920 0.56100 0.75180 0.09100
H 	H 	0.90170 0.60050 0.77960 0.07500
H 	H 	0.36310 0.23810 0.94570 0.04300
H 	H 	0.34540 0.24680 0.83930 0.05200
H 	H 	0.40210 0.02490 0.89140 0.03600
H 	H 	0.53810 0.01610 0.93750 0.03600
H 	H 	0.53700 0.29820 0.98190 0.15400
H 	H 	0.62420 0.15300 0.97890 0.10600
H 	H 	0.49990 0.43990 0.84070 0.06500
H 	H 	0.35350 0.45270 0.86610 0.06900
H 	H 	0.61130 0.79830 0.84720 0.11300
H 	H 	0.70700 0.81840 0.76910 0.07300
H 	H 	0.43900 0.93080 0.74820 0.09000
H 	H 	0.39950 0.09830 0.72040 0.07000
H 	H 	0.23810 0.36310 0.44570 0.04400
H 	H 	0.24680 0.34540 0.33930 0.05300
H 	H 	0.02490 0.40210 0.39140 0.03600
H 	H 	0.01610 0.53810 0.43750 0.03600
H 	H 	0.29820 0.53700 0.48190 0.15300
H 	H 	0.15300 0.62420 0.47890 0.10500
H 	H 	0.43990 0.49990 0.34070 0.06500
H 	H 	0.45270 0.35350 0.36610 0.06900
H 	H 	0.79830 0.61130 0.34720 0.11300
H 	H 	0.81840 0.70700 0.26910 0.07300
H 	H 	0.93080 0.43900 0.24820 0.09100
H 	H 	0.09830 0.39950 0.22040 0.07500
H 	H 	0.63690 0.76190 0.05430 0.04300
H 	H 	0.65460 0.75320 0.16070 0.05200
H 	H 	0.59790 0.97510 0.10860 0.03600
H 	H 	0.46190 0.98390 0.06250 0.03600
H 	H 	0.46300 0.70180 0.01810 0.15400
H 	H 	0.37580 0.84700 0.02110 0.10600
H 	H 	0.50010 0.56010 0.15930 0.06500
H 	H 	0.64650 0.54730 0.13390 0.06900
H 	H 	0.38870 0.20170 0.15280 0.11300
H 	H 	0.29300 0.18160 0.23090 0.07300
H 	H 	0.56100 0.06920 0.25180 0.09000
H 	H 	0.60050 0.90170 0.27960 0.07000
C 	C 	0.79540 0.59200 0.61880 -0.09500
C 	C 	0.94430 0.53210 0.61860 -0.05600
C 	C 	0.74870 0.29050 0.58290 0.48400
C 	C 	0.75910 0.41810 0.55980 -0.36900
C 	C 	0.60980 0.56680 0.66290 -0.22900
C 	C 	0.58990 0.59930 0.75440 0.35700
C 	C 	0.14230 0.34350 0.67470 -0.26100
C 	C 	0.14350 0.23930 0.62040 0.38500
C 	C 	0.00040 0.52240 0.76550 -0.28100
C 	C 	0.02100 0.44140 0.84830 0.44100
C 	C 	0.40800 0.20460 0.88120 -0.09400
C 	C 	0.46790 0.05570 0.88140 -0.06000
C 	C 	0.70950 0.25130 0.91710 0.48400
C 	C 	0.58190 0.24090 0.94020 -0.36900
C 	C 	0.43320 0.39020 0.83710 -0.22900
C 	C 	0.40070 0.41010 0.74560 0.35700
C 	C 	0.65650 0.85770 0.82530 -0.26000
C 	C 	0.76070 0.85650 0.87960 0.38500
C 	C 	0.47760 0.99960 0.73450 -0.27500
C 	C 	0.55860 0.97900 0.65170 0.44800
C 	C 	0.20460 0.40800 0.38120 -0.09500
C 	C 	0.05570 0.46790 0.38140 -0.05600
C 	C 	0.25130 0.70950 0.41710 0.48400
C 	C 	0.24090 0.58190 0.44020 -0.36900
C 	C 	0.39020 0.43320 0.33710 -0.22900
C 	C 	0.41010 0.40070 0.24560 0.35700
C 	C 	0.85770 0.65650 0.32530 -0.26100
C 	C 	0.85650 0.76070 0.37960 0.38500
C 	C 	0.99960 0.47760 0.23450 -0.28100
C 	C 	0.97900 0.55860 0.15170 0.44100
C 	C 	0.59200 0.79540 0.11880 -0.09400
C 	C 	0.53210 0.94430 0.11860 -0.06000
C 	C 	0.29050 0.74870 0.08290 0.48400
C 	C 	0.41810 0.75910 0.05980 -0.36900
C 	C 	0.56680 0.60980 0.16290 -0.22900
C 	C 	0.59930 0.58990 0.25440 0.35700
C 	C 	0.34350 0.14230 0.17470 -0.26000
C 	C 	0.23930 0.14350 0.12040 0.38500
C 	C 	0.52240 0.00040 0.26550 -0.27500
C 	C 	0.44140 0.02100 0.34830 0.44800
N 	N 	0.74600 0.49220 0.63330 -0.09300
N 	N 	0.00330 0.44610 0.69530 -0.11600
N 	N 	0.50780 0.25400 0.86670 -0.09300
N 	N 	0.55390 0.99670 0.80470 -0.11400
N 	N 	0.25400 0.50780 0.36670 -0.09300
N 	N 	0.99670 0.55390 0.30470 -0.11600
N 	N 	0.49220 0.74600 0.13330 -0.09300
N 	N 	0.44610 0.00330 0.19530 -0.11400
O 	O 	0.76430 0.24610 0.65850 -0.65000
O 	O 	0.72730 0.23710 0.52540 -0.52900
O 	O 	0.68660 0.52680 0.79950 -0.42700
O 	O 	0.48070 0.69730 0.77660 -0.31700
O 	O 	0.04230 0.22190 0.62620 -0.49300
O 	O 	0.24700 0.17460 0.57450 -0.46800
O 	O 	0.99260 0.34800 0.85420 -0.63400
O 	O 	0.05970 0.47510 0.90790 -0.56300
O 	O 	0.75390 0.23570 0.84150 -0.65000
O 	O 	0.76290 0.27270 0.97460 -0.52700
O 	O 	0.47320 0.31340 0.70050 -0.42800
O 	O 	0.30270 0.51930 0.72340 -0.31700
O 	O 	0.77810 0.95770 0.87380 -0.49000
O 	O 	0.82540 0.75300 0.92550 -0.46400
O 	O 	0.65200 0.00740 0.64580 -0.64100
O 	O 	0.52490 0.94030 0.59210 -0.56200
O 	O 	0.23570 0.75390 0.34150 -0.65000
O 	O 	0.27270 0.76290 0.47460 -0.52900
O 	O 	0.31340 0.47320 0.20050 -0.42700
O 	O 	0.51930 0.30270 0.22340 -0.31700
O 	O 	0.95770 0.77810 0.37380 -0.49300
O 	O 	0.75300 0.82540 0.42550 -0.46800
O 	O 	0.00740 0.65200 0.14580 -0.63400
O 	O 	0.94030 0.52490 0.09210 -0.56300
O 	O 	0.24610 0.76430 0.15850 -0.65000
O 	O 	0.23710 0.72730 0.02540 -0.52700
O 	O 	0.52680 0.68660 0.29950 -0.42800
O 	O 	0.69730 0.48070 0.27660 -0.31700
O 	O 	0.22190 0.04230 0.12620 -0.49000
O 	O 	0.17460 0.24700 0.07450 -0.46400
O 	O 	0.34800 0.99260 0.35420 -0.64100
O 	O 	0.47510 0.05970 0.40790 -0.56200
