data_crystal

_cell_length_a 12.64700
_cell_length_b 13.28400
_cell_length_c 24.92600
_cell_angle_alpha 90.00000
_cell_angle_beta  90.00000
_cell_angle_gamma 90.00000

_symmetry_space_group_name_	'P 1'
_symmetry_space_group_name_H-M	'P 1'

loop_
_symmetry_equiv_pos_as_xyz
  x,y,z

loop_
_atom_site_label
_atom_site_type_symbol
_atom_site_fract_x
_atom_site_fract_y
_atom_site_fract_z
_atom_site_charge
O 	O 	0.59250 0.33580 0.72720 -0.02000
U 	U 	0.61111 0.21192 0.80253 0.03200
U 	U 	0.76106 0.30727 0.67798 0.03500
U 	U 	0.90564 0.17151 0.79409 0.03400
O 	O 	0.75650 0.12790 0.84720 -0.02800
O 	O 	0.93310 0.22830 0.70050 -0.02300
O 	O 	0.75820 0.23710 0.75690 -0.02400
O 	O 	0.65810 0.39650 0.61200 -0.15100
O 	O 	0.48480 0.39350 0.62990 -0.15000
O 	O 	0.87380 0.34180 0.60300 -0.15700
O 	O 	0.03260 0.39130 0.63080 -0.15600
C 	C 	0.56310 0.41420 0.60020 0.27600
C 	C 	0.53570 0.46070 0.54780 -0.01000
C 	C 	0.95720 0.39320 0.59900 0.28600
C 	C 	0.97400 0.45310 0.54880 -0.00900
O 	O 	0.40750 0.66420 0.72720 -0.02100
U 	U 	0.38889 0.78808 0.80253 0.03100
U 	U 	0.23894 0.69273 0.67798 0.03400
U 	U 	0.09436 0.82849 0.79409 0.03300
O 	O 	0.24350 0.87210 0.84720 -0.02800
O 	O 	0.06690 0.77170 0.70050 -0.02300
O 	O 	0.24180 0.76290 0.75690 -0.02400
O 	O 	0.34190 0.60350 0.61200 -0.15100
O 	O 	0.51520 0.60650 0.62990 -0.15000
O 	O 	0.12620 0.65820 0.60300 -0.15700
O 	O 	0.96740 0.60870 0.63080 -0.15600
C 	C 	0.43690 0.58580 0.60020 0.27600
C 	C 	0.46430 0.53930 0.54780 -0.01000
C 	C 	0.04280 0.60680 0.59900 0.28600
C 	C 	0.02600 0.54690 0.54880 -0.00900
O 	O 	0.90750 0.83580 0.77280 -0.02100
U 	U 	0.88889 0.71192 0.69747 0.03100
U 	U 	0.73894 0.80727 0.82202 0.03400
U 	U 	0.59436 0.67151 0.70591 0.03200
O 	O 	0.74350 0.62790 0.65280 -0.02900
O 	O 	0.56690 0.72830 0.79950 -0.02200
O 	O 	0.74180 0.73710 0.74310 -0.02400
O 	O 	0.84190 0.89650 0.88800 -0.14900
O 	O 	0.01520 0.89350 0.87010 -0.14800
O 	O 	0.62620 0.84180 0.89700 -0.15500
O 	O 	0.46740 0.89130 0.86920 -0.15500
C 	C 	0.93690 0.91420 0.89980 0.27300
C 	C 	0.96430 0.96070 0.95220 -0.00300
C 	C 	0.54280 0.89320 0.90100 0.28500
C 	C 	0.52600 0.95310 0.95120 -0.00200
O 	O 	0.09250 0.16420 0.77280 -0.02100
U 	U 	0.11111 0.28808 0.69747 0.03100
U 	U 	0.26106 0.19273 0.82202 0.03400
U 	U 	0.40564 0.32849 0.70591 0.03200
O 	O 	0.25650 0.37210 0.65280 -0.02900
O 	O 	0.43310 0.27170 0.79950 -0.02200
O 	O 	0.25820 0.26290 0.74310 -0.02400
O 	O 	0.15810 0.10350 0.88800 -0.14900
O 	O 	0.98480 0.10650 0.87010 -0.14800
O 	O 	0.37380 0.15820 0.89700 -0.15500
O 	O 	0.53260 0.10870 0.86920 -0.15500
C 	C 	0.06310 0.08580 0.89980 0.27300
C 	C 	0.03570 0.03930 0.95220 -0.00300
C 	C 	0.45720 0.10680 0.90100 0.28500
C 	C 	0.47400 0.04690 0.95120 -0.00200
O 	O 	0.40750 0.66420 0.27280 -0.02100
U 	U 	0.38889 0.78808 0.19747 0.03100
U 	U 	0.23894 0.69273 0.32202 0.03400
U 	U 	0.09436 0.82849 0.20591 0.03200
O 	O 	0.24350 0.87210 0.15280 -0.02900
O 	O 	0.06690 0.77170 0.29950 -0.02300
O 	O 	0.24180 0.76290 0.24310 -0.02500
O 	O 	0.34190 0.60350 0.38800 -0.15100
O 	O 	0.51520 0.60650 0.37010 -0.15000
O 	O 	0.12620 0.65820 0.39700 -0.15700
O 	O 	0.96740 0.60870 0.36920 -0.15600
C 	C 	0.43690 0.58580 0.39980 0.27600
C 	C 	0.46430 0.53930 0.45220 -0.01000
C 	C 	0.04280 0.60680 0.40100 0.28700
C 	C 	0.02600 0.54690 0.45120 -0.00900
O 	O 	0.59250 0.33580 0.27280 -0.02100
U 	U 	0.61111 0.21192 0.19747 0.03100
U 	U 	0.76106 0.30727 0.32202 0.03400
U 	U 	0.90564 0.17151 0.20591 0.03200
O 	O 	0.75650 0.12790 0.15280 -0.02900
O 	O 	0.93310 0.22830 0.29950 -0.02300
O 	O 	0.75820 0.23710 0.24310 -0.02500
O 	O 	0.65810 0.39650 0.38800 -0.15100
O 	O 	0.48480 0.39350 0.37010 -0.15000
O 	O 	0.87380 0.34180 0.39700 -0.15700
O 	O 	0.03260 0.39130 0.36920 -0.15600
C 	C 	0.56310 0.41420 0.39980 0.27600
C 	C 	0.53570 0.46070 0.45220 -0.01000
C 	C 	0.95720 0.39320 0.40100 0.28700
C 	C 	0.97400 0.45310 0.45120 -0.00900
O 	O 	0.09250 0.16420 0.22720 -0.02100
U 	U 	0.11111 0.28808 0.30253 0.03000
U 	U 	0.26106 0.19273 0.17798 0.03300
U 	U 	0.40564 0.32849 0.29409 0.03200
O 	O 	0.25650 0.37210 0.34720 -0.02900
O 	O 	0.43310 0.27170 0.20050 -0.02300
O 	O 	0.25820 0.26290 0.25690 -0.02500
O 	O 	0.15810 0.10350 0.11200 -0.15100
O 	O 	0.98480 0.10650 0.12990 -0.14900
O 	O 	0.37380 0.15820 0.10300 -0.15700
O 	O 	0.53260 0.10870 0.13080 -0.15600
C 	C 	0.06310 0.08580 0.10020 0.27400
C 	C 	0.03570 0.03930 0.04780 -0.00900
C 	C 	0.45720 0.10680 0.09900 0.28500
C 	C 	0.47400 0.04690 0.04880 -0.00700
O 	O 	0.90750 0.83580 0.22720 -0.02100
U 	U 	0.88889 0.71192 0.30253 0.03000
U 	U 	0.73894 0.80727 0.17798 0.03300
U 	U 	0.59436 0.67151 0.29409 0.03200
O 	O 	0.74350 0.62790 0.34720 -0.02900
O 	O 	0.56690 0.72830 0.20050 -0.02300
O 	O 	0.74180 0.73710 0.25690 -0.02500
O 	O 	0.84190 0.89650 0.11200 -0.15100
O 	O 	0.01520 0.89350 0.12990 -0.14900
O 	O 	0.62620 0.84180 0.10300 -0.15700
O 	O 	0.46740 0.89130 0.13080 -0.15600
C 	C 	0.93690 0.91420 0.10020 0.27400
C 	C 	0.96430 0.96070 0.04780 -0.00900
C 	C 	0.54280 0.89320 0.09900 0.28500
C 	C 	0.52600 0.95310 0.04880 -0.00700
C 	C 	0.57300 0.42100 0.50000 -0.01500
H 	H 	0.62160 0.36890 0.50000 0.08500
C 	C 	0.94900 0.40900 0.50000 -0.01700
H 	H 	0.91380 0.34710 0.50000 0.08800
C 	C 	0.42700 0.57900 0.50000 -0.01500
H 	H 	0.37840 0.63110 0.50000 0.08500
C 	C 	0.05100 0.59100 0.50000 -0.01700
H 	H 	0.08620 0.65290 0.50000 0.08800
C 	C 	0.92700 0.92100 -0.00000 -0.02500
H 	H 	0.87840 0.86890 -0.00000 0.08600
C 	C 	0.55100 0.90900 -0.00000 -0.02700
H 	H 	0.58620 0.84710 -0.00000 0.08900
C 	C 	0.07300 0.07900 -0.00000 -0.02500
H 	H 	0.12160 0.13110 -0.00000 0.08600
C 	C 	0.44900 0.09100 -0.00000 -0.02700
H 	H 	0.41380 0.15290 -0.00000 0.08900
