data_crystal

_cell_length_a 11.68300
_cell_length_b 16.58300
_cell_length_c 22.83200
_cell_angle_alpha 90.00000
_cell_angle_beta  90.00000
_cell_angle_gamma 90.00000

_symmetry_space_group_name_	'P 1'
_symmetry_space_group_name_H-M	'P 1'

loop_
_symmetry_equiv_pos_as_xyz
  x,y,z

loop_
_atom_site_label
_atom_site_type_symbol
_atom_site_fract_x
_atom_site_fract_y
_atom_site_fract_z
_atom_site_charge
U 	U 	0.20497 0.03435 0.09931 0.03500
O 	O 	0.63500 0.16160 0.26910 -0.14800
O 	O 	0.67530 0.03690 0.29680 -0.16000
O 	O 	0.43840 0.11420 0.21110 -0.17500
O 	O 	0.39130 0.03490 0.13640 -0.16200
O 	O 	0.66630 0.97850 0.98460 -0.16100
O 	O 	0.85060 0.97710 0.00310 -0.14500
O 	O 	0.00890 0.03700 0.10560 -0.14100
O 	O 	0.94940 0.91050 0.11800 -0.16100
C 	C 	0.46380 0.06900 0.16850 0.27800
C 	C 	0.58540 0.05320 0.15430 -0.01900
C 	C 	0.61410 0.02710 0.09870 -0.01400
H 	H 	0.55610 0.02250 0.07100 0.09300
C 	C 	0.72330 0.00770 0.08240 -0.01500
C 	C 	0.74840 0.98550 0.02140 0.26300
C 	C 	0.81240 0.01240 0.12470 -0.00300
C 	C 	0.93160 0.98360 0.11400 0.27700
C 	C 	0.78640 0.03980 0.18040 -0.02300
H 	H 	0.84420 0.04340 0.20830 0.09300
C 	C 	0.67490 0.06230 0.19560 0.00000
C 	C 	0.65780 0.08960 0.25860 0.27800
U 	U 	0.29503 0.96565 0.59931 0.03600
O 	O 	0.86500 0.83840 0.76910 -0.14700
O 	O 	0.82470 0.96310 0.79680 -0.15800
O 	O 	0.06160 0.88580 0.71110 -0.17400
O 	O 	0.10870 0.96510 0.63640 -0.16200
O 	O 	0.83370 0.02150 0.48460 -0.16300
O 	O 	0.64940 0.02290 0.50310 -0.14500
O 	O 	0.49110 0.96300 0.60560 -0.14300
O 	O 	0.55060 0.08950 0.61800 -0.16100
C 	C 	0.03620 0.93100 0.66850 0.27700
C 	C 	0.91460 0.94680 0.65430 -0.01800
C 	C 	0.88590 0.97290 0.59870 -0.01300
H 	H 	0.94390 0.97750 0.57100 0.09300
C 	C 	0.77670 0.99230 0.58240 -0.01600
C 	C 	0.75160 0.01450 0.52140 0.26600
C 	C 	0.68760 0.98760 0.62470 -0.00400
C 	C 	0.56840 0.01640 0.61400 0.27900
C 	C 	0.71360 0.96020 0.68040 -0.02300
H 	H 	0.65580 0.95660 0.70830 0.09300
C 	C 	0.82510 0.93770 0.69560 0.00000
C 	C 	0.84220 0.91040 0.75860 0.27800
U 	U 	0.79503 0.53435 0.90069 0.03600
O 	O 	0.36500 0.66160 0.73090 -0.14700
O 	O 	0.32470 0.53690 0.70320 -0.15900
O 	O 	0.56160 0.61420 0.78890 -0.17400
O 	O 	0.60870 0.53490 0.86360 -0.16300
O 	O 	0.33370 0.47850 0.01540 -0.16300
O 	O 	0.14940 0.47710 0.99690 -0.14500
O 	O 	0.99110 0.53700 0.89440 -0.14200
O 	O 	0.05060 0.41050 0.88200 -0.16200
C 	C 	0.53620 0.56900 0.83150 0.27800
C 	C 	0.41460 0.55320 0.84570 -0.01900
C 	C 	0.38590 0.52710 0.90130 -0.01300
H 	H 	0.44390 0.52250 0.92900 0.09300
C 	C 	0.27670 0.50770 0.91760 -0.01700
C 	C 	0.25160 0.48550 0.97860 0.26500
C 	C 	0.18760 0.51240 0.87530 -0.00400
C 	C 	0.06840 0.48360 0.88600 0.27800
C 	C 	0.21360 0.53980 0.81960 -0.02300
H 	H 	0.15580 0.54340 0.79170 0.09300
C 	C 	0.32510 0.56230 0.80440 0.00000
C 	C 	0.34220 0.58960 0.74140 0.27800
U 	U 	0.70497 0.46565 0.40069 0.03600
O 	O 	0.13500 0.33840 0.23090 -0.14700
O 	O 	0.17530 0.46310 0.20320 -0.15900
O 	O 	0.93840 0.38580 0.28890 -0.17400
O 	O 	0.89130 0.46510 0.36360 -0.16300
O 	O 	0.16630 0.52150 0.51540 -0.16300
O 	O 	0.35060 0.52290 0.49690 -0.14500
O 	O 	0.50890 0.46300 0.39440 -0.14300
O 	O 	0.44940 0.58950 0.38200 -0.16100
C 	C 	0.96380 0.43100 0.33150 0.27700
C 	C 	0.08540 0.44680 0.34570 -0.01900
C 	C 	0.11410 0.47290 0.40130 -0.01300
H 	H 	0.05610 0.47750 0.42900 0.09300
C 	C 	0.22330 0.49230 0.41760 -0.01600
C 	C 	0.24840 0.51450 0.47860 0.26600
C 	C 	0.31240 0.48760 0.37530 -0.00400
C 	C 	0.43160 0.51640 0.38600 0.28000
C 	C 	0.28640 0.46020 0.31960 -0.02300
H 	H 	0.34420 0.45660 0.29170 0.09300
C 	C 	0.17490 0.43770 0.30440 -0.00000
C 	C 	0.15780 0.41040 0.24140 0.27800
U 	U 	0.79503 0.96565 0.90069 0.03600
O 	O 	0.36500 0.83840 0.73090 -0.14700
O 	O 	0.32470 0.96310 0.70320 -0.15900
O 	O 	0.56160 0.88580 0.78890 -0.17400
O 	O 	0.60870 0.96510 0.86360 -0.16200
O 	O 	0.33370 0.02150 0.01540 -0.16100
O 	O 	0.14940 0.02290 0.99690 -0.14500
O 	O 	0.99110 0.96300 0.89440 -0.14100
O 	O 	0.05060 0.08950 0.88200 -0.16100
C 	C 	0.53620 0.93100 0.83150 0.27800
C 	C 	0.41460 0.94680 0.84570 -0.01900
C 	C 	0.38590 0.97290 0.90130 -0.01400
H 	H 	0.44390 0.97750 0.92900 0.09300
C 	C 	0.27670 0.99230 0.91760 -0.01500
C 	C 	0.25160 0.01450 0.97860 0.26300
C 	C 	0.18760 0.98760 0.87530 -0.00300
C 	C 	0.06840 0.01640 0.88600 0.27700
C 	C 	0.21360 0.96020 0.81960 -0.02300
H 	H 	0.15580 0.95660 0.79170 0.09300
C 	C 	0.32510 0.93770 0.80440 0.00000
C 	C 	0.34220 0.91040 0.74140 0.27800
U 	U 	0.70497 0.03435 0.40069 0.03600
O 	O 	0.13500 0.16160 0.23090 -0.14700
O 	O 	0.17530 0.03690 0.20320 -0.15800
O 	O 	0.93840 0.11420 0.28890 -0.17400
O 	O 	0.89130 0.03490 0.36360 -0.16200
O 	O 	0.16630 0.97850 0.51540 -0.16300
O 	O 	0.35060 0.97710 0.49690 -0.14500
O 	O 	0.50890 0.03700 0.39440 -0.14300
O 	O 	0.44940 0.91050 0.38200 -0.16100
C 	C 	0.96380 0.06900 0.33150 0.27700
C 	C 	0.08540 0.05320 0.34570 -0.01800
C 	C 	0.11410 0.02710 0.40130 -0.01300
H 	H 	0.05610 0.02250 0.42900 0.09300
C 	C 	0.22330 0.00770 0.41760 -0.01600
C 	C 	0.24840 0.98550 0.47860 0.26600
C 	C 	0.31240 0.01240 0.37530 -0.00400
C 	C 	0.43160 0.98360 0.38600 0.27900
C 	C 	0.28640 0.03980 0.31960 -0.02300
H 	H 	0.34420 0.04340 0.29170 0.09300
C 	C 	0.17490 0.06230 0.30440 0.00000
C 	C 	0.15780 0.08960 0.24140 0.27800
U 	U 	0.20497 0.46565 0.09931 0.03600
O 	O 	0.63500 0.33840 0.26910 -0.14700
O 	O 	0.67530 0.46310 0.29680 -0.15900
O 	O 	0.43840 0.38580 0.21110 -0.17400
O 	O 	0.39130 0.46510 0.13640 -0.16300
O 	O 	0.66630 0.52150 0.98460 -0.16300
O 	O 	0.85060 0.52290 0.00310 -0.14500
O 	O 	0.00890 0.46300 0.10560 -0.14200
O 	O 	0.94940 0.58950 0.11800 -0.16200
C 	C 	0.46380 0.43100 0.16850 0.27800
C 	C 	0.58540 0.44680 0.15430 -0.01900
C 	C 	0.61410 0.47290 0.09870 -0.01300
H 	H 	0.55610 0.47750 0.07100 0.09300
C 	C 	0.72330 0.49230 0.08240 -0.01700
C 	C 	0.74840 0.51450 0.02140 0.26500
C 	C 	0.81240 0.48760 0.12470 -0.00400
C 	C 	0.93160 0.51640 0.11400 0.27800
C 	C 	0.78640 0.46020 0.18040 -0.02300
H 	H 	0.84420 0.45660 0.20830 0.09300
C 	C 	0.67490 0.43770 0.19560 0.00000
C 	C 	0.65780 0.41040 0.25860 0.27800
U 	U 	0.29503 0.53435 0.59931 0.03600
O 	O 	0.86500 0.66160 0.76910 -0.14700
O 	O 	0.82470 0.53690 0.79680 -0.15900
O 	O 	0.06160 0.61420 0.71110 -0.17400
O 	O 	0.10870 0.53490 0.63640 -0.16300
O 	O 	0.83370 0.47850 0.48460 -0.16300
O 	O 	0.64940 0.47710 0.50310 -0.14500
O 	O 	0.49110 0.53700 0.60560 -0.14300
O 	O 	0.55060 0.41050 0.61800 -0.16100
C 	C 	0.03620 0.56900 0.66850 0.27700
C 	C 	0.91460 0.55320 0.65430 -0.01900
C 	C 	0.88590 0.52710 0.59870 -0.01300
H 	H 	0.94390 0.52250 0.57100 0.09300
C 	C 	0.77670 0.50770 0.58240 -0.01600
C 	C 	0.75160 0.48550 0.52140 0.26600
C 	C 	0.68760 0.51240 0.62470 -0.00400
C 	C 	0.56840 0.48360 0.61400 0.28000
C 	C 	0.71360 0.53980 0.68040 -0.02300
H 	H 	0.65580 0.54340 0.70830 0.09300
C 	C 	0.82510 0.56230 0.69560 -0.00000
C 	C 	0.84220 0.58960 0.75860 0.27800
U 	U 	0.49214 0.25000 0.22767 0.01500
U 	U 	0.00786 0.75000 0.72767 0.01500
U 	U 	0.50786 0.75000 0.77233 0.01500
U 	U 	0.99214 0.25000 0.27233 0.01500
