data_crystal

_cell_length_a 14.48500
_cell_length_b 12.32100
_cell_length_c 16.94800
_cell_angle_alpha 90.00000
_cell_angle_beta  93.49100
_cell_angle_gamma 90.00000

_symmetry_space_group_name_	'P 1'
_symmetry_space_group_name_H-M	'P 1'

loop_
_symmetry_equiv_pos_as_xyz
  x,y,z

loop_
_atom_site_label
_atom_site_type_symbol
_atom_site_fract_x
_atom_site_fract_y
_atom_site_fract_z
_atom_site_charge
Cu	Cu	0.69580 0.83086 0.00593 0.61300
C 	C 	0.58260 0.10940 0.34930 -0.06700
C 	C 	0.57820 0.85030 0.15470 -0.08800
N 	N 	0.62480 0.12620 0.40770 -0.25200
N 	N 	0.62440 0.84740 0.09980 -0.21900
C 	C 	0.67330 0.63750 0.98550 -0.54100
N 	N 	0.61030 0.58650 0.98631 -0.18700
Cu	Cu	0.74709 0.75181 0.07209 0.61600
C 	C 	0.61490 0.12050 0.32140 -0.12100
C 	C 	0.60130 0.83700 0.17320 -0.07900
N 	N 	0.67340 0.15170 0.36210 -0.22400
N 	N 	0.64690 0.81380 0.13110 -0.16600
Cu	Cu	0.19580 0.33086 0.00593 0.59900
C 	C 	0.08260 0.60940 0.34930 0.00800
C 	C 	0.07820 0.35030 0.15470 -0.11600
N 	N 	0.12480 0.62620 0.40770 -0.27700
N 	N 	0.12440 0.34740 0.09980 -0.24500
C 	C 	0.17330 0.13750 0.98550 -0.57200
N 	N 	0.11030 0.08650 0.98631 -0.21700
Cu	Cu	0.24709 0.25181 0.07209 0.60100
C 	C 	0.11490 0.62050 0.32140 -0.21300
C 	C 	0.10130 0.33700 0.17320 -0.12200
N 	N 	0.17340 0.65170 0.36210 -0.20700
N 	N 	0.14690 0.31380 0.13110 -0.16000
Cu	Cu	0.30420 0.83086 0.49407 0.63300
C 	C 	0.41740 0.10940 0.15070 -0.15100
C 	C 	0.42180 0.85030 0.34530 -0.10700
N 	N 	0.37520 0.12620 0.09230 -0.25000
N 	N 	0.37560 0.84740 0.40020 -0.20400
C 	C 	0.32670 0.63750 0.51450 -0.58200
N 	N 	0.38970 0.58650 0.51369 -0.20600
Cu	Cu	0.25291 0.75181 0.42791 0.61800
C 	C 	0.38510 0.12050 0.17860 -0.05000
C 	C 	0.39870 0.83700 0.32680 -0.06100
N 	N 	0.32660 0.15170 0.13790 -0.25800
N 	N 	0.35310 0.81380 0.36890 -0.18100
Cu	Cu	0.80420 0.33086 0.49407 0.63800
C 	C 	0.91740 0.60940 0.15070 -0.21800
C 	C 	0.92180 0.35030 0.34530 -0.07900
N 	N 	0.87520 0.62620 0.09230 -0.20100
N 	N 	0.87560 0.34740 0.40020 -0.19200
C 	C 	0.82670 0.13750 0.51450 -0.57200
N 	N 	0.88970 0.08650 0.51369 -0.16900
Cu	Cu	0.75291 0.25181 0.42791 0.62300
C 	C 	0.88510 0.62050 0.17860 0.14800
C 	C 	0.89870 0.33700 0.32680 -0.01700
N 	N 	0.82660 0.65170 0.13790 -0.28500
N 	N 	0.85310 0.31380 0.36890 -0.19500
Cu	Cu	0.30420 0.16914 0.99407 0.64700
C 	C 	0.41740 0.89060 0.65070 -0.14800
C 	C 	0.42180 0.14970 0.84530 -0.12000
N 	N 	0.37520 0.87380 0.59230 -0.21600
N 	N 	0.37560 0.15260 0.90020 -0.21100
C 	C 	0.32670 0.36250 0.01450 -0.61500
N 	N 	0.38970 0.41350 0.01369 -0.21400
Cu	Cu	0.25291 0.24819 0.92791 0.62900
C 	C 	0.38510 0.87950 0.67860 0.00400
C 	C 	0.39870 0.16300 0.82680 -0.07600
N 	N 	0.32660 0.84830 0.63790 -0.25300
N 	N 	0.35310 0.18620 0.86890 -0.17400
Cu	Cu	0.80420 0.66914 0.99407 0.66100
C 	C 	0.91740 0.39060 0.65070 -0.22900
C 	C 	0.92180 0.64970 0.84530 -0.06600
N 	N 	0.87520 0.37380 0.59230 -0.18400
N 	N 	0.87560 0.65260 0.90020 -0.18400
C 	C 	0.82670 0.86250 0.01450 -0.57900
N 	N 	0.88970 0.91350 0.01369 -0.14500
Cu	Cu	0.75291 0.74819 0.92791 0.64200
C 	C 	0.88510 0.37950 0.67860 0.15800
C 	C 	0.89870 0.66300 0.82680 -0.00600
N 	N 	0.82660 0.34830 0.63790 -0.28500
N 	N 	0.85310 0.68620 0.86890 -0.19000
Cu	Cu	0.69580 0.16914 0.50593 0.62700
C 	C 	0.58260 0.89060 0.84930 -0.08300
C 	C 	0.57820 0.14970 0.65470 -0.10000
N 	N 	0.62480 0.87380 0.90770 -0.21300
N 	N 	0.62440 0.15260 0.59980 -0.22900
C 	C 	0.67330 0.36250 0.48550 -0.57300
N 	N 	0.61030 0.41350 0.48631 -0.20500
Cu	Cu	0.74709 0.24819 0.57209 0.62500
C 	C 	0.61490 0.87950 0.82140 -0.04900
C 	C 	0.60130 0.16300 0.67320 -0.09700
N 	N 	0.67340 0.84830 0.86210 -0.22400
N 	N 	0.64690 0.18620 0.63110 -0.15700
Cu	Cu	0.19580 0.66914 0.50593 0.62300
C 	C 	0.08260 0.39060 0.84930 -0.02300
C 	C 	0.07820 0.64970 0.65470 -0.10000
N 	N 	0.12480 0.37380 0.90770 -0.25200
N 	N 	0.12440 0.65260 0.59980 -0.23700
C 	C 	0.17330 0.86250 0.48550 -0.58200
N 	N 	0.11030 0.91350 0.48631 -0.20200
Cu	Cu	0.24709 0.74819 0.57209 0.62000
C 	C 	0.11490 0.37950 0.82140 -0.18000
C 	C 	0.10130 0.66300 0.67320 -0.11100
N 	N 	0.17340 0.34830 0.86210 -0.21200
N 	N 	0.14690 0.68620 0.63110 -0.15400
Ag	Ag	0.50000 0.09802 0.25000 0.38900
Ag	Ag	0.50000 0.85352 0.25000 0.41300
Ag	Ag	0.00000 0.59802 0.25000 0.34100
Ag	Ag	0.00000 0.35352 0.25000 0.32200
Ag	Ag	0.50000 0.90198 0.75000 0.43100
Ag	Ag	0.50000 0.14648 0.75000 0.38800
Ag	Ag	0.00000 0.40198 0.75000 0.34100
Ag	Ag	-0.00000 0.64648 0.75000 0.34300
Cu	Cu	0.50000 0.50000 -0.00000 0.68700
Cu	Cu	-0.00000 0.00000 -0.00000 0.60300
Cu	Cu	0.50000 0.50000 0.50000 0.71100
Cu	Cu	0.00000 0.00000 0.50000 0.62700
