data_crystal

_cell_length_a 23.75440
_cell_length_b 10.53860
_cell_length_c 19.75840
_cell_angle_alpha 90.00000
_cell_angle_beta  125.80500
_cell_angle_gamma 90.00000

_symmetry_space_group_name_	'P 1'
_symmetry_space_group_name_H-M	'P 1'

loop_
_symmetry_equiv_pos_as_xyz
  x,y,z

loop_
_atom_site_label
_atom_site_type_symbol
_atom_site_fract_x
_atom_site_fract_y
_atom_site_fract_z
_atom_site_charge
Tb	Tb	0.49868 0.04659 0.12647 1.84300
O 	O 	0.11214 0.41110 0.75623 -0.41100
O 	O 	0.08663 0.29530 0.64916 -0.38600
O 	O 	0.44564 0.15330 0.00356 -0.54600
O 	O 	0.42683 0.05880 0.89190 -0.52900
O 	O 	0.48112 0.21870 0.18350 -0.53100
O 	O 	0.51722 0.87760 0.20910 -0.55700
C 	C 	0.40832 0.12710 0.92700 0.48400
C 	C 	0.50900 0.61390 0.19630 0.01300
H 	H 	0.51570 0.65820 0.16090 0.02400
C 	C 	0.33604 0.18060 0.87360 -0.17100
C 	C 	0.31300 0.26140 0.90820 0.04100
H 	H 	0.34240 0.28290 0.96440 0.01000
C 	C 	0.29140 0.14970 0.78960 0.05000
C 	C 	0.50790 0.48160 0.19510 -0.02100
H 	H 	0.51240 0.43790 0.15760 0.04800
C 	C 	0.20155 0.27780 0.77580 -0.02600
C 	C 	0.24590 0.31010 0.85860 -0.07900
H 	H 	0.23100 0.36520 0.88190 0.05800
C 	C 	0.22460 0.19630 0.74150 -0.08200
H 	H 	0.19460 0.17290 0.68570 0.06500
C 	C 	0.12957 0.32970 0.72410 0.29500
H 	H 	0.30400 0.09000 0.76400 0.02300
Tb	Tb	0.99868 0.54659 0.12647 1.91200
O 	O 	0.61214 0.91110 0.75623 -0.40000
O 	O 	0.58663 0.79530 0.64916 -0.37100
O 	O 	0.94564 0.65330 0.00356 -0.53900
O 	O 	0.92683 0.55880 0.89190 -0.51500
O 	O 	0.98112 0.71870 0.18350 -0.50900
O 	O 	0.01722 0.37760 0.20910 -0.56800
C 	C 	0.90832 0.62710 0.92700 0.47800
C 	C 	0.00900 0.11390 0.19630 0.00700
H 	H 	0.01570 0.15820 0.16090 0.02100
C 	C 	0.83604 0.68060 0.87360 -0.16900
C 	C 	0.81300 0.76140 0.90820 0.04100
H 	H 	0.84240 0.78290 0.96440 0.01100
C 	C 	0.79140 0.64970 0.78960 0.04900
C 	C 	0.00790 0.98160 0.19510 -0.01400
H 	H 	0.01240 0.93790 0.15760 0.04000
C 	C 	0.70155 0.77780 0.77580 -0.02500
C 	C 	0.74590 0.81010 0.85860 -0.07900
H 	H 	0.73100 0.86520 0.88190 0.05800
C 	C 	0.72460 0.69630 0.74150 -0.08200
H 	H 	0.69460 0.67290 0.68570 0.06600
C 	C 	0.62957 0.82970 0.72410 0.29200
H 	H 	0.80400 0.59000 0.76400 0.02300
Tb	Tb	0.50132 0.04659 0.37353 1.84800
O 	O 	0.88786 0.41110 0.74377 -0.38700
O 	O 	0.91337 0.29530 0.85084 -0.35500
O 	O 	0.55436 0.15330 0.49644 -0.54400
O 	O 	0.57317 0.05880 0.60810 -0.53100
O 	O 	0.51888 0.21870 0.31650 -0.53200
O 	O 	0.48278 0.87760 0.29090 -0.55800
C 	C 	0.59168 0.12710 0.57300 0.48500
C 	C 	0.49100 0.61390 0.30370 0.01300
H 	H 	0.48430 0.65820 0.33910 0.02400
C 	C 	0.66396 0.18060 0.62640 -0.17300
C 	C 	0.68700 0.26140 0.59180 0.04500
H 	H 	0.65760 0.28290 0.53560 0.00900
C 	C 	0.70860 0.14970 0.71040 0.05300
C 	C 	0.49210 0.48160 0.30490 -0.02100
H 	H 	0.48760 0.43790 0.34240 0.04800
C 	C 	0.79845 0.27780 0.72420 -0.02000
C 	C 	0.75410 0.31010 0.64140 -0.08200
H 	H 	0.76900 0.36520 0.61810 0.06000
C 	C 	0.77540 0.19630 0.75850 -0.08600
H 	H 	0.80540 0.17290 0.81430 0.06900
C 	C 	0.87043 0.32970 0.77590 0.28900
H 	H 	0.69600 0.09000 0.73600 0.02200
Tb	Tb	0.00132 0.54659 0.37353 1.78500
O 	O 	0.38786 0.91110 0.74377 -0.40000
O 	O 	0.41337 0.79530 0.85084 -0.37200
O 	O 	0.05436 0.65330 0.49644 -0.54600
O 	O 	0.07317 0.55880 0.60810 -0.54700
O 	O 	0.01888 0.71870 0.31650 -0.52900
O 	O 	0.98278 0.37760 0.29090 -0.52400
C 	C 	0.09168 0.62710 0.57300 0.48700
C 	C 	0.99100 0.11390 0.30370 0.03000
H 	H 	0.98430 0.15820 0.33910 0.02500
C 	C 	0.16396 0.68060 0.62640 -0.17600
C 	C 	0.18700 0.76140 0.59180 0.04400
H 	H 	0.15760 0.78290 0.53560 0.00800
C 	C 	0.20860 0.64970 0.71040 0.05300
C 	C 	0.99210 0.98160 0.30490 0.01300
H 	H 	0.98760 0.93790 0.34240 0.04600
C 	C 	0.29845 0.77780 0.72420 -0.02400
C 	C 	0.25410 0.81010 0.64140 -0.08200
H 	H 	0.26900 0.86520 0.61810 0.05900
C 	C 	0.27540 0.69630 0.75850 -0.08600
H 	H 	0.30540 0.67290 0.81430 0.06600
C 	C 	0.37043 0.82970 0.77590 0.29100
H 	H 	0.19600 0.59000 0.73600 0.02100
Tb	Tb	0.50132 0.95341 0.87353 1.84200
O 	O 	0.88786 0.58890 0.24377 -0.38800
O 	O 	0.91337 0.70470 0.35084 -0.35600
O 	O 	0.55436 0.84670 0.99644 -0.55000
O 	O 	0.57317 0.94120 0.10810 -0.53000
O 	O 	0.51888 0.78130 0.81650 -0.53100
O 	O 	0.48278 0.12240 0.79090 -0.55800
C 	C 	0.59168 0.87290 0.07300 0.49100
C 	C 	0.49100 0.38610 0.80370 0.01300
H 	H 	0.48430 0.34180 0.83910 0.02400
C 	C 	0.66396 0.81940 0.12640 -0.17500
C 	C 	0.68700 0.73860 0.09180 0.04600
H 	H 	0.65760 0.71710 0.03560 0.01000
C 	C 	0.70860 0.85030 0.21040 0.05500
C 	C 	0.49210 0.51840 0.80490 -0.02100
H 	H 	0.48760 0.56210 0.84240 0.04700
C 	C 	0.79845 0.72220 0.22420 -0.02000
C 	C 	0.75410 0.68990 0.14140 -0.08300
H 	H 	0.76900 0.63480 0.11810 0.06100
C 	C 	0.77540 0.80370 0.25850 -0.08700
H 	H 	0.80540 0.82710 0.31430 0.07000
C 	C 	0.87043 0.67030 0.27590 0.28900
H 	H 	0.69600 0.91000 0.23600 0.02200
Tb	Tb	0.00132 0.45341 0.87353 1.77800
O 	O 	0.38786 0.08890 0.24377 -0.40000
O 	O 	0.41337 0.20470 0.35084 -0.37100
O 	O 	0.05436 0.34670 0.99644 -0.54900
O 	O 	0.07317 0.44120 0.10810 -0.54600
O 	O 	0.01888 0.28130 0.81650 -0.52800
O 	O 	0.98278 0.62240 0.79090 -0.52100
C 	C 	0.09168 0.37290 0.07300 0.49100
C 	C 	0.99100 0.88610 0.80370 0.03600
H 	H 	0.98430 0.84180 0.83910 0.02300
C 	C 	0.16396 0.31940 0.12640 -0.17700
C 	C 	0.18700 0.23860 0.09180 0.04500
H 	H 	0.15760 0.21710 0.03560 0.00800
C 	C 	0.20860 0.35030 0.21040 0.05400
C 	C 	0.99210 0.01840 0.80490 0.01000
H 	H 	0.98760 0.06210 0.84240 0.04800
C 	C 	0.29845 0.22220 0.22420 -0.02300
C 	C 	0.25410 0.18990 0.14140 -0.08300
H 	H 	0.26900 0.13480 0.11810 0.05900
C 	C 	0.27540 0.30370 0.25850 -0.08600
H 	H 	0.30540 0.32710 0.31430 0.06700
C 	C 	0.37043 0.17030 0.27590 0.29100
H 	H 	0.19600 0.41000 0.23600 0.02100
Tb	Tb	0.49868 0.95341 0.62647 1.84700
O 	O 	0.11214 0.58890 0.25623 -0.40900
O 	O 	0.08663 0.70470 0.14916 -0.38400
O 	O 	0.44564 0.84670 0.50356 -0.54400
O 	O 	0.42683 0.94120 0.39190 -0.53100
O 	O 	0.48112 0.78130 0.68350 -0.53200
O 	O 	0.51722 0.12240 0.70910 -0.55800
C 	C 	0.40832 0.87290 0.42700 0.48400
C 	C 	0.50900 0.38610 0.69630 0.01300
H 	H 	0.51570 0.34180 0.66090 0.02400
C 	C 	0.33604 0.81940 0.37360 -0.17200
C 	C 	0.31300 0.73860 0.40820 0.04200
H 	H 	0.34240 0.71710 0.46440 0.01000
C 	C 	0.29140 0.85030 0.28960 0.05000
C 	C 	0.50790 0.51840 0.69510 -0.02100
H 	H 	0.51240 0.56210 0.65760 0.04800
C 	C 	0.20155 0.72220 0.27580 -0.02600
C 	C 	0.24590 0.68990 0.35860 -0.07900
H 	H 	0.23100 0.63480 0.38190 0.05900
C 	C 	0.22460 0.80370 0.24150 -0.08200
H 	H 	0.19460 0.82710 0.18570 0.06500
C 	C 	0.12957 0.67030 0.22410 0.29400
H 	H 	0.30400 0.91000 0.26400 0.02300
Tb	Tb	0.99868 0.45341 0.62647 1.91700
O 	O 	0.61214 0.08890 0.25623 -0.39900
O 	O 	0.58663 0.20470 0.14916 -0.37100
O 	O 	0.94564 0.34670 0.50356 -0.54200
O 	O 	0.92683 0.44120 0.39190 -0.51600
O 	O 	0.98112 0.28130 0.68350 -0.50800
O 	O 	0.01722 0.62240 0.70910 -0.56900
C 	C 	0.90832 0.37290 0.42700 0.48200
C 	C 	0.00900 0.88610 0.69630 0.00800
H 	H 	0.01570 0.84180 0.66090 0.02100
C 	C 	0.83604 0.31940 0.37360 -0.17000
C 	C 	0.81300 0.23860 0.40820 0.04200
H 	H 	0.84240 0.21710 0.46440 0.01200
C 	C 	0.79140 0.35030 0.28960 0.05000
C 	C 	0.00790 0.01840 0.69510 -0.01500
H 	H 	0.01240 0.06210 0.65760 0.03900
C 	C 	0.70155 0.22220 0.27580 -0.02500
C 	C 	0.74590 0.18990 0.35860 -0.07900
H 	H 	0.73100 0.13480 0.38190 0.05900
C 	C 	0.72460 0.30370 0.24150 -0.08300
H 	H 	0.69460 0.32710 0.18570 0.06600
C 	C 	0.62957 0.17030 0.22410 0.29200
H 	H 	0.80400 0.41000 0.26400 0.02300
C 	C 	0.50000 0.82190 0.25000 0.49300
C 	C 	0.50000 0.27260 0.25000 0.49400
C 	C 	0.50000 0.41460 0.25000 -0.11700
C 	C 	0.50000 0.67940 0.25000 -0.15400
C 	C 	-0.00000 0.32190 0.25000 0.46600
C 	C 	0.00000 0.77260 0.25000 0.47000
C 	C 	0.00000 0.91460 0.25000 -0.14300
C 	C 	0.00000 0.17940 0.25000 -0.17100
C 	C 	0.50000 0.17810 0.75000 0.49300
C 	C 	0.50000 0.72740 0.75000 0.49400
C 	C 	0.50000 0.58540 0.75000 -0.11700
C 	C 	0.50000 0.32060 0.75000 -0.15500
C 	C 	-0.00000 0.67810 0.75000 0.46400
C 	C 	-0.00000 0.22740 0.75000 0.46800
C 	C 	-0.00000 0.08540 0.75000 -0.14200
C 	C 	-0.00000 0.82060 0.75000 -0.17600
