data_crystal

_cell_length_a 12.53820
_cell_length_b 16.20520
_cell_length_c 20.08290
_cell_angle_alpha 90.00000
_cell_angle_beta  94.73200
_cell_angle_gamma 90.00000

_symmetry_space_group_name_	'P 1'
_symmetry_space_group_name_H-M	'P 1'

loop_
_symmetry_equiv_pos_as_xyz
  x,y,z

loop_
_atom_site_label
_atom_site_type_symbol
_atom_site_fract_x
_atom_site_fract_y
_atom_site_fract_z
_atom_site_charge
Zn	Zn	0.28847 0.40981 0.41205 1.16600
C 	C 	0.41480 0.54191 0.34332 0.31200
C 	C 	0.51830 0.53150 0.38416 -0.88600
H 	H 	0.51080 0.48990 0.41750 0.26000
H 	H 	0.53840 0.58280 0.40560 0.26900
H 	H 	0.57250 0.51500 0.35580 0.26300
C 	C 	0.15730 0.29610 0.31400 0.33100
C 	C 	0.21840 0.30760 0.25480 -0.92000
H 	H 	0.19000 0.27210 0.21940 0.26500
H 	H 	0.29230 0.29420 0.26620 0.30100
H 	H 	0.21280 0.36400 0.24030 0.27600
C 	C 	0.46480 0.32160 0.41628 0.32900
C 	C 	0.57340 0.28800 0.43841 -0.10700
C 	C 	0.63030 0.24160 0.39366 0.02400
H 	H 	0.59930 0.23080 0.35090 0.02000
C 	C 	0.72960 0.21240 0.41223 -0.13600
H 	H 	0.76650 0.18270 0.38190 0.06300
C 	C 	0.77750 0.22690 0.47739 0.05500
C 	C 	0.88150 0.19670 0.49839 -0.10500
H 	H 	0.91920 0.16630 0.46890 0.07600
N 	N 	0.32520 0.50074 0.35097 -0.30800
N 	N 	0.25150 0.52915 0.30191 -0.09400
N 	N 	0.29530 0.58484 0.26776 -0.08800
N 	N 	0.39900 0.59538 0.29260 -0.30600
N 	N 	0.17350 0.33469 0.37221 -0.31000
N 	N 	0.09940 0.30536 0.41162 -0.09700
N 	N 	0.04090 0.25118 0.37839 -0.10100
N 	N 	0.07610 0.24399 0.31629 -0.31700
O 	O 	0.41666 0.36260 0.45873 -0.51200
O 	O 	0.42690 0.31107 0.35815 -0.36800
Zn	Zn	0.78847 0.90981 0.41205 1.16900
C 	C 	0.91480 0.04191 0.34332 0.38700
C 	C 	0.01830 0.03150 0.38416 -1.01500
H 	H 	0.01080 0.98990 0.41750 0.27600
H 	H 	0.03840 0.08280 0.40560 0.29100
H 	H 	0.07250 0.01500 0.35580 0.28900
C 	C 	0.65730 0.79610 0.31400 0.34900
C 	C 	0.71840 0.80760 0.25480 -0.95500
H 	H 	0.69000 0.77210 0.21940 0.28300
H 	H 	0.79230 0.79420 0.26620 0.31800
H 	H 	0.71280 0.86400 0.24030 0.29500
C 	C 	0.96480 0.82160 0.41628 0.39800
C 	C 	0.07340 0.78800 0.43841 -0.19000
C 	C 	0.13030 0.74160 0.39366 0.06100
H 	H 	0.09930 0.73080 0.35090 -0.00800
C 	C 	0.22960 0.71240 0.41223 -0.15900
H 	H 	0.26650 0.68270 0.38190 0.06600
C 	C 	0.27750 0.72690 0.47739 0.04600
C 	C 	0.38150 0.69670 0.49839 -0.07400
H 	H 	0.41920 0.66630 0.46890 0.04700
N 	N 	0.82520 0.00074 0.35097 -0.31500
N 	N 	0.75150 0.02915 0.30191 -0.08700
N 	N 	0.79530 0.08484 0.26776 -0.08200
N 	N 	0.89900 0.09538 0.29260 -0.30200
N 	N 	0.67350 0.83469 0.37221 -0.30900
N 	N 	0.59940 0.80536 0.41162 -0.08700
N 	N 	0.54090 0.75118 0.37839 -0.08400
N 	N 	0.57610 0.74399 0.31629 -0.31000
O 	O 	0.91666 0.86260 0.45873 -0.50900
O 	O 	0.92690 0.81107 0.35815 -0.36600
Zn	Zn	0.71153 0.40981 0.08795 1.16900
C 	C 	0.58520 0.54191 0.15668 0.31000
C 	C 	0.48170 0.53150 0.11584 -0.87500
H 	H 	0.48920 0.48990 0.08250 0.25600
H 	H 	0.46160 0.58280 0.09440 0.26400
H 	H 	0.42750 0.51500 0.14420 0.25600
C 	C 	0.84270 0.29610 0.18600 0.35500
C 	C 	0.78160 0.30760 0.24520 -0.95900
H 	H 	0.81000 0.27210 0.28060 0.29100
H 	H 	0.70770 0.29420 0.23380 0.31400
H 	H 	0.78720 0.36400 0.25970 0.30100
C 	C 	0.53520 0.32160 0.08372 0.31600
C 	C 	0.42660 0.28800 0.06159 -0.07500
C 	C 	0.36970 0.24160 0.10634 -0.02200
H 	H 	0.40070 0.23080 0.14910 0.03600
C 	C 	0.27040 0.21240 0.08777 -0.08000
H 	H 	0.23350 0.18270 0.11810 0.03800
C 	C 	0.22250 0.22690 0.02261 -0.03100
C 	C 	0.11850 0.19670 0.00161 0.00800
H 	H 	0.08080 0.16630 0.03110 0.00300
N 	N 	0.67480 0.50074 0.14903 -0.30400
N 	N 	0.74850 0.52915 0.19809 -0.08300
N 	N 	0.70470 0.58484 0.23224 -0.08100
N 	N 	0.60100 0.59538 0.20740 -0.30500
N 	N 	0.82650 0.33469 0.12779 -0.30700
N 	N 	0.90060 0.30536 0.08838 -0.07800
N 	N 	0.95910 0.25118 0.12161 -0.06700
N 	N 	0.92390 0.24399 0.18371 -0.29600
O 	O 	0.58334 0.36260 0.04127 -0.50600
O 	O 	0.57310 0.31107 0.14185 -0.36400
Zn	Zn	0.21153 0.90981 0.08795 1.16400
C 	C 	0.08520 0.04191 0.15668 0.23100
C 	C 	0.98170 0.03150 0.11584 -0.72600
H 	H 	0.98920 0.98990 0.08250 0.23200
H 	H 	0.96160 0.08280 0.09440 0.23800
H 	H 	0.92750 0.01500 0.14420 0.22700
C 	C 	0.34270 0.79610 0.18600 0.33600
C 	C 	0.28160 0.80760 0.24520 -0.92200
H 	H 	0.31000 0.77210 0.28060 0.27000
H 	H 	0.20770 0.79420 0.23380 0.29600
H 	H 	0.28720 0.86400 0.25970 0.28000
C 	C 	0.03520 0.82160 0.08372 0.24800
C 	C 	0.92660 0.78800 0.06159 0.00100
C 	C 	0.86970 0.74160 0.10634 -0.05600
H 	H 	0.90070 0.73080 0.14910 0.06200
C 	C 	0.77040 0.71240 0.08777 -0.06000
H 	H 	0.73350 0.68270 0.11810 0.03500
C 	C 	0.72250 0.72690 0.02261 -0.02200
C 	C 	0.61850 0.69670 0.00161 -0.03000
H 	H 	0.58080 0.66630 0.03110 0.03200
N 	N 	0.17480 0.00074 0.14903 -0.29500
N 	N 	0.24850 0.02915 0.19809 -0.08900
N 	N 	0.20470 0.08484 0.23224 -0.08600
N 	N 	0.10100 0.09538 0.20740 -0.30300
N 	N 	0.32650 0.83469 0.12779 -0.30900
N 	N 	0.40060 0.80536 0.08838 -0.08900
N 	N 	0.45910 0.75118 0.12161 -0.08500
N 	N 	0.42390 0.74399 0.18371 -0.30900
O 	O 	0.08334 0.86260 0.04127 -0.51100
O 	O 	0.07310 0.81107 0.14185 -0.36800
Zn	Zn	0.71153 0.59019 0.58795 1.16900
C 	C 	0.58520 0.45809 0.65668 0.31000
C 	C 	0.48170 0.46850 0.61584 -0.87600
H 	H 	0.48920 0.51010 0.58250 0.25700
H 	H 	0.46160 0.41720 0.59440 0.26500
H 	H 	0.42750 0.48500 0.64420 0.25600
C 	C 	0.84270 0.70390 0.68600 0.35500
C 	C 	0.78160 0.69240 0.74520 -0.95800
H 	H 	0.81000 0.72790 0.78060 0.29100
H 	H 	0.70770 0.70580 0.73380 0.31400
H 	H 	0.78720 0.63600 0.75970 0.30000
C 	C 	0.53520 0.67840 0.58372 0.31600
C 	C 	0.42660 0.71200 0.56159 -0.07500
C 	C 	0.36970 0.75840 0.60634 -0.02200
H 	H 	0.40070 0.76920 0.64910 0.03600
C 	C 	0.27040 0.78760 0.58777 -0.08000
H 	H 	0.23350 0.81730 0.61810 0.03700
C 	C 	0.22250 0.77310 0.52261 -0.03100
C 	C 	0.11850 0.80330 0.50161 0.00700
H 	H 	0.08080 0.83370 0.53110 0.00200
N 	N 	0.67480 0.49926 0.64903 -0.30400
N 	N 	0.74850 0.47085 0.69809 -0.08300
N 	N 	0.70470 0.41516 0.73224 -0.08100
N 	N 	0.60100 0.40462 0.70740 -0.30500
N 	N 	0.82650 0.66531 0.62779 -0.30700
N 	N 	0.90060 0.69464 0.58838 -0.07900
N 	N 	0.95910 0.74882 0.62161 -0.06700
N 	N 	0.92390 0.75601 0.68371 -0.29600
O 	O 	0.58334 0.63740 0.54127 -0.50600
O 	O 	0.57310 0.68893 0.64185 -0.36500
Zn	Zn	0.21153 0.09019 0.58795 1.16500
C 	C 	0.08520 0.95809 0.65668 0.23500
C 	C 	0.98170 0.96850 0.61584 -0.74200
H 	H 	0.98920 0.01010 0.58250 0.23800
H 	H 	0.96160 0.91720 0.59440 0.24200
H 	H 	0.92750 0.98500 0.64420 0.23100
C 	C 	0.34270 0.20390 0.68600 0.33600
C 	C 	0.28160 0.19240 0.74520 -0.92200
H 	H 	0.31000 0.22790 0.78060 0.27000
H 	H 	0.20770 0.20580 0.73380 0.29600
H 	H 	0.28720 0.13600 0.75970 0.28000
C 	C 	0.03520 0.17840 0.58372 0.24600
C 	C 	0.92660 0.21200 0.56159 0.00700
C 	C 	0.86970 0.25840 0.60634 -0.05900
H 	H 	0.90070 0.26920 0.64910 0.06300
C 	C 	0.77040 0.28760 0.58777 -0.05700
H 	H 	0.73350 0.31730 0.61810 0.03400
C 	C 	0.72250 0.27310 0.52261 -0.02200
C 	C 	0.61850 0.30330 0.50161 -0.02400
H 	H 	0.58080 0.33370 0.53110 0.03100
N 	N 	0.17480 0.99926 0.64903 -0.29700
N 	N 	0.24850 0.97085 0.69809 -0.08900
N 	N 	0.20470 0.91516 0.73224 -0.08600
N 	N 	0.10100 0.90462 0.70740 -0.30300
N 	N 	0.32650 0.16531 0.62779 -0.30900
N 	N 	0.40060 0.19464 0.58838 -0.08900
N 	N 	0.45910 0.24882 0.62161 -0.08500
N 	N 	0.42390 0.25601 0.68371 -0.30900
O 	O 	0.08334 0.13740 0.54127 -0.50900
O 	O 	0.07310 0.18893 0.64185 -0.36700
Zn	Zn	0.28847 0.59019 0.91205 1.16500
C 	C 	0.41480 0.45809 0.84332 0.31200
C 	C 	0.51830 0.46850 0.88416 -0.88600
H 	H 	0.51080 0.51010 0.91750 0.26100
H 	H 	0.53840 0.41720 0.90560 0.26900
H 	H 	0.57250 0.48500 0.85580 0.26300
C 	C 	0.15730 0.70390 0.81400 0.33200
C 	C 	0.21840 0.69240 0.75480 -0.92100
H 	H 	0.19000 0.72790 0.71940 0.26500
H 	H 	0.29230 0.70580 0.76620 0.30100
H 	H 	0.21280 0.63600 0.74030 0.27700
C 	C 	0.46480 0.67840 0.91628 0.32700
C 	C 	0.57340 0.71200 0.93841 -0.10200
C 	C 	0.63030 0.75840 0.89366 0.02100
H 	H 	0.59930 0.76920 0.85090 0.02100
C 	C 	0.72960 0.78760 0.91223 -0.13300
H 	H 	0.76650 0.81730 0.88190 0.06200
C 	C 	0.77750 0.77310 0.97739 0.05500
C 	C 	0.88150 0.80330 0.99839 -0.09900
H 	H 	0.91920 0.83370 0.96890 0.07500
N 	N 	0.32520 0.49926 0.85097 -0.30800
N 	N 	0.25150 0.47085 0.80191 -0.09400
N 	N 	0.29530 0.41516 0.76776 -0.08800
N 	N 	0.39900 0.40462 0.79260 -0.30600
N 	N 	0.17350 0.66531 0.87221 -0.31000
N 	N 	0.09940 0.69464 0.91162 -0.09600
N 	N 	0.04090 0.74882 0.87839 -0.10000
N 	N 	0.07610 0.75601 0.81629 -0.31700
O 	O 	0.41666 0.63740 0.95873 -0.51100
O 	O 	0.42690 0.68893 0.85815 -0.36800
Zn	Zn	0.78847 0.09019 0.91205 1.16900
C 	C 	0.91480 0.95809 0.84332 0.38300
C 	C 	0.01830 0.96850 0.88416 -1.00000
H 	H 	0.01080 0.01010 0.91750 0.27000
H 	H 	0.03840 0.91720 0.90560 0.28800
H 	H 	0.07250 0.98500 0.85580 0.28500
C 	C 	0.65730 0.20390 0.81400 0.34900
C 	C 	0.71840 0.19240 0.75480 -0.95500
H 	H 	0.69000 0.22790 0.71940 0.28400
H 	H 	0.79230 0.20580 0.76620 0.31800
H 	H 	0.71280 0.13600 0.74030 0.29500
C 	C 	0.96480 0.17840 0.91628 0.39800
C 	C 	0.07340 0.21200 0.93841 -0.18900
C 	C 	0.13030 0.25840 0.89366 0.06000
H 	H 	0.09930 0.26920 0.85090 -0.00700
C 	C 	0.22960 0.28760 0.91223 -0.15900
H 	H 	0.26650 0.31730 0.88190 0.06600
C 	C 	0.27750 0.27310 0.97739 0.04500
C 	C 	0.38150 0.30330 0.99839 -0.07400
H 	H 	0.41920 0.33370 0.96890 0.04700
N 	N 	0.82520 0.99926 0.85097 -0.31300
N 	N 	0.75150 0.97085 0.80191 -0.08700
N 	N 	0.79530 0.91516 0.76776 -0.08200
N 	N 	0.89900 0.90462 0.79260 -0.30200
N 	N 	0.67350 0.16531 0.87221 -0.30900
N 	N 	0.59940 0.19464 0.91162 -0.08700
N 	N 	0.54090 0.24882 0.87839 -0.08400
N 	N 	0.57610 0.25601 0.81629 -0.31000
O 	O 	0.91666 0.13740 0.95873 -0.51000
O 	O 	0.92690 0.18893 0.85815 -0.36700
Zn	Zn	0.50000 0.66848 0.25000 1.17700
Zn	Zn	-0.00000 0.16848 0.25000 1.15900
Zn	Zn	0.50000 0.33152 0.75000 1.17700
Zn	Zn	0.00000 0.83152 0.75000 1.15900
