data_crystal

_cell_length_a 15.33270
_cell_length_b 9.59340
_cell_length_c 15.43630
_cell_angle_alpha 90.00000
_cell_angle_beta  97.19900
_cell_angle_gamma 90.00000

_symmetry_space_group_name_	'P 1'
_symmetry_space_group_name_H-M	'P 1'

loop_
_symmetry_equiv_pos_as_xyz
  x,y,z

loop_
_atom_site_label
_atom_site_type_symbol
_atom_site_fract_x
_atom_site_fract_y
_atom_site_fract_z
_atom_site_charge
P 	P 	0.29476 0.80549 0.26443 0.66500
P 	P 	0.30550 0.40580 0.01130 0.13900
P 	P 	0.50260 0.38300 0.82420 0.33000
P 	P 	0.23179 0.67457 0.70135 0.71600
Be	Be	0.31550 0.53470 0.18480 1.48200
Be	Be	0.32100 0.46700 0.82510 1.48200
O 	O 	0.27100 0.67790 0.21200 -0.51900
O 	O 	0.36550 0.88800 0.21760 -0.41900
H 	H 	0.41250 0.88910 0.24940 0.31100
O 	O 	0.34230 0.77630 0.35510 -0.20700
O 	O 	0.21930 0.90240 0.26330 -0.51100
O 	O 	0.28930 0.51560 0.08050 -0.54000
O 	O 	0.30240 0.47730 0.92480 -0.51900
O 	O 	0.24320 0.28770 0.01390 -0.28600
H 	H 	0.23660 0.24840 0.96640 0.21200
O 	O 	0.39900 0.34260 0.03450 -0.27600
O 	O 	0.42290 0.47060 0.81360 -0.53500
O 	O 	0.48880 0.23900 0.78560 -0.37800
H 	H 	0.44550 0.20330 0.80270 0.23800
O 	O 	0.57880 0.46050 0.78930 -0.53300
O 	O 	0.52910 0.36290 0.92530 -0.54600
H 	H 	0.48460 0.36080 0.94970 0.33500
O 	O 	0.27340 0.59940 0.77880 -0.54600
O 	O 	0.14210 0.61370 0.66830 -0.48700
H 	H 	0.11180 0.61090 0.70850 0.27500
O 	O 	0.29040 0.65070 0.62750 -0.42900
H 	H 	0.25970 0.65130 0.58000 0.26300
O 	O 	0.22430 0.82770 0.72060 -0.54400
P 	P 	0.33700 0.45200 0.02470 0.47500
P 	P 	0.52570 0.42800 0.85260 0.35300
P 	P 	0.20524 0.30549 0.23557 0.66400
P 	P 	0.19450 0.90580 0.48870 0.13800
P 	P 	0.99740 0.88300 0.67580 0.32900
P 	P 	0.26821 0.17457 0.79865 0.71600
Be	Be	0.18450 0.03470 0.31520 1.48100
Be	Be	0.17900 0.96700 0.67490 1.48200
O 	O 	0.22900 0.17790 0.28800 -0.51900
O 	O 	0.13450 0.38800 0.28240 -0.41900
H 	H 	0.08750 0.38910 0.25060 0.31100
O 	O 	0.15770 0.27630 0.14490 -0.20700
O 	O 	0.28070 0.40240 0.23670 -0.51200
O 	O 	0.21070 0.01560 0.41950 -0.53900
O 	O 	0.19760 0.97730 0.57520 -0.51900
O 	O 	0.25680 0.78770 0.48610 -0.28500
H 	H 	0.26340 0.74840 0.53360 0.21100
O 	O 	0.10100 0.84260 0.46550 -0.27600
O 	O 	0.07710 0.97060 0.68640 -0.53600
O 	O 	0.01120 0.73900 0.71440 -0.37900
H 	H 	0.05450 0.70330 0.69730 0.23800
O 	O 	0.92120 0.96050 0.71070 -0.53300
O 	O 	0.97090 0.86290 0.57470 -0.54500
H 	H 	0.01540 0.86080 0.55030 0.33500
O 	O 	0.22660 0.09940 0.72120 -0.54500
O 	O 	0.35790 0.11370 0.83170 -0.48700
H 	H 	0.38820 0.11090 0.79150 0.27500
O 	O 	0.20960 0.15070 0.87250 -0.42800
H 	H 	0.24030 0.15130 0.92000 0.26300
O 	O 	0.27570 0.32770 0.77940 -0.54300
P 	P 	0.16300 0.95200 0.47530 0.47500
P 	P 	0.97430 0.92800 0.64740 0.35400
P 	P 	0.70524 0.19451 0.73557 0.66400
P 	P 	0.69450 0.59420 0.98870 0.13800
P 	P 	0.49740 0.61700 0.17580 0.33000
P 	P 	0.76821 0.32543 0.29865 0.71600
Be	Be	0.68450 0.46530 0.81520 1.48200
Be	Be	0.67900 0.53300 0.17490 1.48200
O 	O 	0.72900 0.32210 0.78800 -0.51900
O 	O 	0.63450 0.11200 0.78240 -0.41900
H 	H 	0.58750 0.11090 0.75060 0.31100
O 	O 	0.65770 0.22370 0.64490 -0.20700
O 	O 	0.78070 0.09760 0.73670 -0.51100
O 	O 	0.71070 0.48440 0.91950 -0.54000
O 	O 	0.69760 0.52270 0.07520 -0.51900
O 	O 	0.75680 0.71230 0.98610 -0.28600
H 	H 	0.76340 0.75160 0.03360 0.21200
O 	O 	0.60100 0.65740 0.96550 -0.27600
O 	O 	0.57710 0.52940 0.18640 -0.53500
O 	O 	0.51120 0.76100 0.21440 -0.37800
H 	H 	0.55450 0.79670 0.19730 0.23800
O 	O 	0.42120 0.53950 0.21070 -0.53300
O 	O 	0.47090 0.63710 0.07470 -0.54600
H 	H 	0.51540 0.63920 0.05030 0.33500
O 	O 	0.72660 0.40060 0.22120 -0.54600
O 	O 	0.85790 0.38630 0.33170 -0.48700
H 	H 	0.88820 0.38910 0.29150 0.27500
O 	O 	0.70960 0.34930 0.37250 -0.42900
H 	H 	0.74030 0.34870 0.42000 0.26300
O 	O 	0.77570 0.17230 0.27940 -0.54400
P 	P 	0.66300 0.54800 0.97530 0.47500
P 	P 	0.47430 0.57200 0.14740 0.35300
P 	P 	0.79476 0.69451 0.76443 0.66400
P 	P 	0.80550 0.09420 0.51130 0.13800
P 	P 	0.00260 0.11700 0.32420 0.32900
P 	P 	0.73179 0.82543 0.20135 0.71600
Be	Be	0.81550 0.96530 0.68480 1.48100
Be	Be	0.82100 0.03300 0.32510 1.48200
O 	O 	0.77100 0.82210 0.71200 -0.51900
O 	O 	0.86550 0.61200 0.71760 -0.41900
H 	H 	0.91250 0.61090 0.74940 0.31100
O 	O 	0.84230 0.72370 0.85510 -0.20700
O 	O 	0.71930 0.59760 0.76330 -0.51200
O 	O 	0.78930 0.98440 0.58050 -0.53900
O 	O 	0.80240 0.02270 0.42480 -0.51900
O 	O 	0.74320 0.21230 0.51390 -0.28500
H 	H 	0.73660 0.25160 0.46640 0.21100
O 	O 	0.89900 0.15740 0.53450 -0.27600
O 	O 	0.92290 0.02940 0.31360 -0.53600
O 	O 	0.98880 0.26100 0.28560 -0.37900
H 	H 	0.94550 0.29670 0.30270 0.23800
O 	O 	0.07880 0.03950 0.28930 -0.53300
O 	O 	0.02910 0.13710 0.42530 -0.54500
H 	H 	0.98460 0.13920 0.44970 0.33500
O 	O 	0.77340 0.90060 0.27880 -0.54500
O 	O 	0.64210 0.88630 0.16830 -0.48700
H 	H 	0.61180 0.88910 0.20850 0.27500
O 	O 	0.79040 0.84930 0.12750 -0.42800
H 	H 	0.75970 0.84870 0.08000 0.26300
O 	O 	0.72430 0.67230 0.22060 -0.54300
P 	P 	0.83700 0.04800 0.52470 0.47500
P 	P 	0.02570 0.07200 0.35260 0.35400
