data_crystal

_cell_length_a 22.82180
_cell_length_b 21.55460
_cell_length_c 9.49200
_cell_angle_alpha 90.00000
_cell_angle_beta  91.30000
_cell_angle_gamma 90.00000

_symmetry_space_group_name_	'P 1'
_symmetry_space_group_name_H-M	'P 1'

loop_
_symmetry_equiv_pos_as_xyz
  x,y,z

loop_
_atom_site_label
_atom_site_type_symbol
_atom_site_fract_x
_atom_site_fract_y
_atom_site_fract_z
_atom_site_charge
P 	P 	0.35330 0.33300 0.40633 0.66400
P 	P 	0.16381 0.34755 0.40845 0.66600
P 	P 	0.26659 0.47257 0.19748 0.68600
P 	P 	0.50849 0.19590 0.73260 0.30600
Be	Be	0.26657 0.42646 0.49140 1.48200
Be	Be	0.43119 0.23070 0.49540 1.48000
O 	O 	0.32195 0.37897 0.49540 -0.51600
O 	O 	0.39882 0.29827 0.49140 -0.55200
O 	O 	0.30961 0.28528 0.34680 -0.44900
H 	H 	0.32690 0.26020 0.29800 0.30200
O 	O 	0.38152 0.36490 0.28490 -0.19300
O 	O 	0.46827 0.22001 0.35350 -0.52800
O 	O 	0.45716 0.29950 0.16400 -0.46400
H 	H 	0.47540 0.32060 0.10800 0.30500
O 	O 	0.20431 0.38973 0.48800 -0.51400
O 	O 	0.14226 0.37765 0.27390 -0.16700
O 	O 	0.19751 0.28779 0.37000 -0.41700
H 	H 	0.17950 0.25740 0.39800 0.28200
O 	O 	0.11376 0.32789 0.49730 -0.53500
O 	O 	0.26936 0.47333 0.35510 -0.51000
O 	O 	0.27075 0.53363 0.13470 -0.52900
O 	O 	0.19370 0.46300 0.15720 -0.08800
O 	O 	0.29150 0.41820 0.13410 -0.14400
O 	O 	0.47362 0.23205 0.63540 -0.51400
O 	O 	0.56440 0.18000 0.65260 -0.09900
O 	O 	0.47790 0.13370 0.75870 -0.10600
O 	O 	0.23450 0.42160 0.13200 -0.13300
O 	O 	0.33800 0.45300 0.15340 -0.08000
P 	P 	0.85330 0.83300 0.40633 0.66500
P 	P 	0.66381 0.84755 0.40845 0.66600
P 	P 	0.76659 0.97257 0.19748 0.68500
P 	P 	0.00849 0.69590 0.73260 0.50400
Be	Be	0.76657 0.92646 0.49140 1.48200
Be	Be	0.93119 0.73070 0.49540 1.48000
O 	O 	0.82195 0.87897 0.49540 -0.51300
O 	O 	0.89882 0.79827 0.49140 -0.54400
O 	O 	0.80961 0.78528 0.34680 -0.44900
H 	H 	0.82690 0.76020 0.29800 0.30300
O 	O 	0.88152 0.86490 0.28490 -0.18700
O 	O 	0.96827 0.72001 0.35350 -0.48800
O 	O 	0.95716 0.79950 0.16400 -0.43000
H 	H 	0.97540 0.82060 0.10800 0.31200
O 	O 	0.70431 0.88973 0.48800 -0.51200
O 	O 	0.64226 0.87765 0.27390 -0.16700
O 	O 	0.69751 0.78779 0.37000 -0.41600
H 	H 	0.67950 0.75740 0.39800 0.28300
O 	O 	0.61376 0.82789 0.49730 -0.53100
O 	O 	0.76936 0.97333 0.35510 -0.50800
O 	O 	0.77075 0.03363 0.13470 -0.52500
O 	O 	0.69370 0.96300 0.15720 -0.08600
O 	O 	0.79150 0.91820 0.13410 -0.14300
O 	O 	0.97362 0.73205 0.63540 -0.50000
O 	O 	0.06440 0.68000 0.65260 -0.13300
O 	O 	0.97790 0.63370 0.75870 -0.02800
O 	O 	0.73450 0.92160 0.13200 -0.13200
O 	O 	0.83800 0.95300 0.15340 -0.07500
P 	P 	0.64670 0.33300 0.09367 0.66500
P 	P 	0.83619 0.34755 0.09155 0.66600
P 	P 	0.73341 0.47257 0.30252 0.68600
P 	P 	0.49151 0.19590 0.76740 0.30600
Be	Be	0.73343 0.42646 0.00860 1.48200
Be	Be	0.56881 0.23070 0.00460 1.48000
O 	O 	0.67805 0.37897 0.00460 -0.51600
O 	O 	0.60118 0.29827 0.00860 -0.55100
O 	O 	0.69039 0.28528 0.15320 -0.44800
H 	H 	0.67310 0.26020 0.20200 0.30200
O 	O 	0.61848 0.36490 0.21510 -0.19300
O 	O 	0.53173 0.22001 0.14650 -0.52800
O 	O 	0.54284 0.29950 0.33600 -0.46400
H 	H 	0.52460 0.32060 0.39200 0.30500
O 	O 	0.79569 0.38973 0.01200 -0.51000
O 	O 	0.85774 0.37765 0.22610 -0.16700
O 	O 	0.80249 0.28779 0.13000 -0.41600
H 	H 	0.82050 0.25740 0.10200 0.28400
O 	O 	0.88624 0.32789 0.00270 -0.52700
O 	O 	0.73064 0.47333 0.14490 -0.50900
O 	O 	0.72925 0.53363 0.36530 -0.52800
O 	O 	0.80630 0.46300 0.34280 -0.08300
O 	O 	0.70850 0.41820 0.36590 -0.14300
O 	O 	0.52638 0.23205 0.86460 -0.51400
O 	O 	0.43560 0.18000 0.84740 -0.09900
O 	O 	0.52210 0.13370 0.74130 -0.10600
O 	O 	0.76550 0.42160 0.36800 -0.13300
O 	O 	0.66200 0.45300 0.34660 -0.08000
P 	P 	0.14670 0.83300 0.09367 0.66500
P 	P 	0.33619 0.84755 0.09155 0.66600
P 	P 	0.23341 0.97257 0.30252 0.68600
P 	P 	0.99151 0.69590 0.76740 0.10800
Be	Be	0.23343 0.92646 0.00860 1.48200
Be	Be	0.06881 0.73070 0.00460 1.48000
O 	O 	0.17805 0.87897 0.00460 -0.52000
O 	O 	0.10118 0.79827 0.00860 -0.55900
O 	O 	0.19039 0.78528 0.15320 -0.44900
H 	H 	0.17310 0.76020 0.20200 0.30100
O 	O 	0.11848 0.86490 0.21510 -0.20000
O 	O 	0.03173 0.72001 0.14650 -0.53300
O 	O 	0.04284 0.79950 0.33600 -0.45500
H 	H 	0.02460 0.82060 0.39200 0.28600
O 	O 	0.29569 0.88973 0.01200 -0.51300
O 	O 	0.35774 0.87765 0.22610 -0.16700
O 	O 	0.30249 0.78779 0.13000 -0.41700
H 	H 	0.32050 0.75740 0.10200 0.28300
O 	O 	0.38624 0.82789 0.00270 -0.53100
O 	O 	0.23064 0.97333 0.14490 -0.51100
O 	O 	0.22925 0.03363 0.36530 -0.53000
O 	O 	0.30630 0.96300 0.34280 -0.08600
O 	O 	0.20850 0.91820 0.36590 -0.14400
O 	O 	0.02638 0.73205 0.86460 -0.52600
O 	O 	0.93560 0.68000 0.84740 -0.06500
O 	O 	0.02210 0.63370 0.74130 -0.18400
O 	O 	0.26550 0.92160 0.36800 -0.13300
O 	O 	0.16200 0.95300 0.34660 -0.08600
P 	P 	0.64670 0.66700 0.59367 0.66500
P 	P 	0.83619 0.65245 0.59155 0.66600
P 	P 	0.73341 0.52743 0.80252 0.68600
P 	P 	0.49151 0.80410 0.26740 0.30600
Be	Be	0.73343 0.57354 0.50860 1.48200
Be	Be	0.56881 0.76930 0.50460 1.48000
O 	O 	0.67805 0.62103 0.50460 -0.51600
O 	O 	0.60118 0.70173 0.50860 -0.55200
O 	O 	0.69039 0.71472 0.65320 -0.44900
H 	H 	0.67310 0.73980 0.70200 0.30200
O 	O 	0.61848 0.63510 0.71510 -0.19300
O 	O 	0.53173 0.77999 0.64650 -0.52800
O 	O 	0.54284 0.70050 0.83600 -0.46400
H 	H 	0.52460 0.67940 0.89200 0.30500
O 	O 	0.79569 0.61027 0.51200 -0.51100
O 	O 	0.85774 0.62235 0.72610 -0.16700
O 	O 	0.80249 0.71221 0.63000 -0.41600
H 	H 	0.82050 0.74260 0.60200 0.28400
O 	O 	0.88624 0.67211 0.50270 -0.52800
O 	O 	0.73064 0.52667 0.64490 -0.50900
O 	O 	0.72925 0.46637 0.86530 -0.52800
O 	O 	0.80630 0.53700 0.84280 -0.08300
O 	O 	0.70850 0.58180 0.86590 -0.14300
O 	O 	0.52638 0.76795 0.36460 -0.51400
O 	O 	0.43560 0.82000 0.34740 -0.09900
O 	O 	0.52210 0.86630 0.24130 -0.10600
O 	O 	0.76550 0.57840 0.86800 -0.13300
O 	O 	0.66200 0.54700 0.84660 -0.08000
P 	P 	0.14670 0.16700 0.59367 0.66500
P 	P 	0.33619 0.15245 0.59155 0.66600
P 	P 	0.23341 0.02743 0.80252 0.68500
P 	P 	0.99151 0.30410 0.26740 0.10000
Be	Be	0.23343 0.07354 0.50860 1.48200
Be	Be	0.06881 0.26930 0.50460 1.48000
O 	O 	0.17805 0.12103 0.50460 -0.51900
O 	O 	0.10118 0.20173 0.50860 -0.55800
O 	O 	0.19039 0.21472 0.65320 -0.44900
H 	H 	0.17310 0.23980 0.70200 0.30100
O 	O 	0.11848 0.13510 0.71510 -0.20000
O 	O 	0.03173 0.27999 0.64650 -0.53300
O 	O 	0.04284 0.20050 0.83600 -0.45600
H 	H 	0.02460 0.17940 0.89200 0.28600
O 	O 	0.29569 0.11027 0.51200 -0.51200
O 	O 	0.35774 0.12235 0.72610 -0.16700
O 	O 	0.30249 0.21221 0.63000 -0.41700
H 	H 	0.32050 0.24260 0.60200 0.28300
O 	O 	0.38624 0.17211 0.50270 -0.53100
O 	O 	0.23064 0.02667 0.64490 -0.51100
O 	O 	0.22925 0.96637 0.86530 -0.52800
O 	O 	0.30630 0.03700 0.84280 -0.08500
O 	O 	0.20850 0.08180 0.86590 -0.14400
O 	O 	0.02638 0.26795 0.36460 -0.52700
O 	O 	0.93560 0.32000 0.34740 -0.06300
O 	O 	0.02210 0.36630 0.24130 -0.18700
O 	O 	0.26550 0.07840 0.86800 -0.13300
O 	O 	0.16200 0.04700 0.84660 -0.08500
P 	P 	0.35330 0.66700 0.90633 0.66500
P 	P 	0.16381 0.65245 0.90845 0.66600
P 	P 	0.26659 0.52743 0.69748 0.68600
P 	P 	0.50849 0.80410 0.23260 0.30600
Be	Be	0.26657 0.57354 0.99140 1.48200
Be	Be	0.43119 0.76930 0.99540 1.48000
O 	O 	0.32195 0.62103 0.99540 -0.51600
O 	O 	0.39882 0.70173 0.99140 -0.55100
O 	O 	0.30961 0.71472 0.84680 -0.44900
H 	H 	0.32690 0.73980 0.79800 0.30200
O 	O 	0.38152 0.63510 0.78490 -0.19300
O 	O 	0.46827 0.77999 0.85350 -0.52800
O 	O 	0.45716 0.70050 0.66400 -0.46400
H 	H 	0.47540 0.67940 0.60800 0.30500
O 	O 	0.20431 0.61027 0.98800 -0.51300
O 	O 	0.14226 0.62235 0.77390 -0.16700
O 	O 	0.19751 0.71221 0.87000 -0.41700
H 	H 	0.17950 0.74260 0.89800 0.28300
O 	O 	0.11376 0.67211 0.99730 -0.53400
O 	O 	0.26936 0.52667 0.85510 -0.51000
O 	O 	0.27075 0.46637 0.63470 -0.52900
O 	O 	0.19370 0.53700 0.65720 -0.08800
O 	O 	0.29150 0.58180 0.63410 -0.14400
O 	O 	0.47362 0.76795 0.13540 -0.51400
O 	O 	0.56440 0.82000 0.15260 -0.09900
O 	O 	0.47790 0.86630 0.25870 -0.10600
O 	O 	0.23450 0.57840 0.63200 -0.13300
O 	O 	0.33800 0.54700 0.65340 -0.08000
P 	P 	0.85330 0.16700 0.90633 0.66500
P 	P 	0.66381 0.15245 0.90845 0.66600
P 	P 	0.76659 0.02743 0.69748 0.68500
P 	P 	0.00849 0.30410 0.23260 0.51200
Be	Be	0.76657 0.07354 0.99140 1.48200
Be	Be	0.93119 0.26930 0.99540 1.48000
O 	O 	0.82195 0.12103 0.99540 -0.51400
O 	O 	0.89882 0.20173 0.99140 -0.54500
O 	O 	0.80961 0.21472 0.84680 -0.44900
H 	H 	0.82690 0.23980 0.79800 0.30300
O 	O 	0.88152 0.13510 0.78490 -0.18700
O 	O 	0.96827 0.27999 0.85350 -0.49000
O 	O 	0.95716 0.20050 0.66400 -0.43100
H 	H 	0.97540 0.17940 0.60800 0.31200
O 	O 	0.70431 0.11027 0.98800 -0.51300
O 	O 	0.64226 0.12235 0.77390 -0.16700
O 	O 	0.69751 0.21221 0.87000 -0.41600
H 	H 	0.67950 0.24260 0.89800 0.28300
O 	O 	0.61376 0.17211 0.99730 -0.53100
O 	O 	0.76936 0.02667 0.85510 -0.50900
O 	O 	0.77075 0.96637 0.63470 -0.52700
O 	O 	0.69370 0.03700 0.65720 -0.08600
O 	O 	0.79150 0.08180 0.63410 -0.14300
O 	O 	0.97362 0.26795 0.13540 -0.49900
O 	O 	0.06440 0.32000 0.15260 -0.13400
O 	O 	0.97790 0.36630 0.25870 -0.02500
O 	O 	0.73450 0.07840 0.63200 -0.13200
O 	O 	0.83800 0.04700 0.65340 -0.07500
P 	P 	0.50000 0.25913 0.25000 0.70500
P 	P 	0.00000 0.75913 0.25000 0.63800
P 	P 	0.50000 0.74087 0.75000 0.70500
P 	P 	0.00000 0.24087 0.75000 0.64000
