data_crystal

_cell_length_a 15.39790
_cell_length_b 11.59410
_cell_length_c 12.58790
_cell_angle_alpha 90.00000
_cell_angle_beta  93.86200
_cell_angle_gamma 90.00000

_symmetry_space_group_name_	'P 1'
_symmetry_space_group_name_H-M	'P 1'

loop_
_symmetry_equiv_pos_as_xyz
  x,y,z

loop_
_atom_site_label
_atom_site_type_symbol
_atom_site_fract_x
_atom_site_fract_y
_atom_site_fract_z
_atom_site_charge
Cd	Cd	0.10975 0.39774 0.03623 1.21600
S 	S 	0.14295 0.22092 0.16692 -0.13600
Cl	Cl	0.15480 0.55733 0.17138 -0.56400
Cl	Cl	0.04705 0.26417 0.88531 -0.59800
Cl	Cl	0.05136 0.57822 0.89636 -0.71500
N 	N 	0.25970 0.10860 0.04080 -0.21800
C 	C 	0.21260 0.15730 0.09220 0.12700
Cd	Cd	0.60976 0.89774 0.03623 1.22900
S 	S 	0.64295 0.72092 0.16692 -0.08100
Cl	Cl	0.65480 0.05733 0.17138 -0.52100
Cl	Cl	0.54705 0.76417 0.88531 -0.52200
Cl	Cl	0.55136 0.07822 0.89636 -0.63300
N 	N 	0.75970 0.60860 0.04080 -0.21000
C 	C 	0.71260 0.65730 0.09220 0.12800
Cd	Cd	0.89024 0.39774 0.46377 1.24300
S 	S 	0.85705 0.22092 0.33308 -0.03100
Cl	Cl	0.84520 0.55733 0.32862 -0.48500
Cl	Cl	0.95295 0.26417 0.61469 -0.43500
Cl	Cl	0.94864 0.57822 0.60364 -0.53700
N 	N 	0.74030 0.10860 0.45920 -0.20400
C 	C 	0.78740 0.15730 0.40780 0.12500
Cd	Cd	0.39025 0.89774 0.46377 1.22900
S 	S 	0.35705 0.72092 0.33308 -0.08800
Cl	Cl	0.34520 0.05733 0.32862 -0.53600
Cl	Cl	0.45295 0.76417 0.61469 -0.52400
Cl	Cl	0.44864 0.07822 0.60364 -0.63900
N 	N 	0.24030 0.60860 0.45920 -0.21100
C 	C 	0.28740 0.65730 0.40780 0.12600
Cd	Cd	0.89024 0.60226 0.96377 1.24300
S 	S 	0.85705 0.77908 0.83308 -0.03300
Cl	Cl	0.84520 0.44267 0.82862 -0.48700
Cl	Cl	0.95295 0.73583 0.11469 -0.43300
Cl	Cl	0.94864 0.42178 0.10364 -0.53500
N 	N 	0.74030 0.89140 0.95920 -0.20300
C 	C 	0.78740 0.84270 0.90780 0.12600
Cd	Cd	0.39025 0.10226 0.96377 1.23000
S 	S 	0.35705 0.27908 0.83308 -0.08500
Cl	Cl	0.34520 0.94267 0.82862 -0.53300
Cl	Cl	0.45295 0.23583 0.11469 -0.52600
Cl	Cl	0.44864 0.92178 0.10364 -0.64200
N 	N 	0.24030 0.39140 0.95920 -0.20800
C 	C 	0.28740 0.34270 0.90780 0.12700
Cd	Cd	0.10975 0.60226 0.53623 1.21700
S 	S 	0.14295 0.77908 0.66692 -0.13200
Cl	Cl	0.15480 0.44267 0.67138 -0.56000
Cl	Cl	0.04705 0.73583 0.38531 -0.60500
Cl	Cl	0.05136 0.42178 0.39636 -0.72300
N 	N 	0.25970 0.89140 0.54080 -0.21600
C 	C 	0.21260 0.84270 0.59220 0.12800
Cd	Cd	0.60976 0.10226 0.53623 1.23000
S 	S 	0.64295 0.27908 0.66692 -0.07900
Cl	Cl	0.65480 0.94267 0.67138 -0.52100
Cl	Cl	0.54705 0.23583 0.38531 -0.52500
Cl	Cl	0.55136 0.92178 0.39636 -0.63400
N 	N 	0.75970 0.39140 0.54080 -0.20900
C 	C 	0.71260 0.34270 0.59220 0.12900
Cd	Cd	0.00000 0.57600 0.25000 1.20900
Cd	Cd	0.50000 0.07600 0.25000 1.25200
Cd	Cd	0.00000 0.42400 0.75000 1.21100
Cd	Cd	0.50000 0.92400 0.75000 1.25200
