data_crystal

_cell_length_a 16.09710
_cell_length_b 19.52720
_cell_length_c 14.40980
_cell_angle_alpha 90.00000
_cell_angle_beta  101.34600
_cell_angle_gamma 90.00000

_symmetry_space_group_name_	'P 1'
_symmetry_space_group_name_H-M	'P 1'

loop_
_symmetry_equiv_pos_as_xyz
  x,y,z

loop_
_atom_site_label
_atom_site_type_symbol
_atom_site_fract_x
_atom_site_fract_y
_atom_site_fract_z
_atom_site_charge
Ag	Ag	0.20507 0.28616 0.12341 0.53600
N 	N 	0.10621 0.38208 0.08170 -0.16000
N 	N 	0.33412 0.33840 0.11650 -0.17100
N 	N 	0.23140 0.30893 0.28830 -0.16600
N 	N 	0.12526 0.20976 0.03310 -0.17900
C 	C 	0.13640 0.44374 0.06560 0.01400
C 	C 	0.04200 0.38000 0.12850 0.03600
H 	H 	0.18030 0.44580 0.03020 0.01900
C 	C 	0.10800 0.50540 0.09720 -0.02100
C 	C 	0.00780 0.43770 0.16020 -0.07600
H 	H 	0.01930 0.33670 0.14020 0.01500
C 	C 	0.04210 0.50020 0.14560 -0.02200
C 	C 	0.14490 0.57117 0.07680 0.02100
H 	H 	0.96130 0.43450 0.19170 0.05300
H 	H 	0.02030 0.54040 0.16910 0.03500
C 	C 	0.09570 0.62982 0.06450 -0.04900
C 	C 	0.22920 0.57707 0.06770 -0.05400
H 	H 	0.03860 0.62770 0.07270 0.04900
C 	C 	0.12800 0.69106 0.04060 -0.06300
C 	C 	0.26180 0.63909 0.04700 -0.06500
H 	H 	0.26460 0.53770 0.07590 0.04400
H 	H 	0.09230 0.73020 0.03070 0.05600
C 	C 	0.21160 0.69687 0.03070 0.03300
H 	H 	0.32010 0.64220 0.04380 0.05100
C 	C 	0.24470 0.76509 0.01020 -0.03100
C 	C 	0.31800 0.78914 0.08480 0.03300
C 	C 	0.20700 0.80285 0.93500 -0.03000
C 	C 	0.38980 0.81840 0.06320 -0.06200
C 	C 	0.31300 0.78048 0.17820 -0.06700
C 	C 	0.22500 0.87739 0.92510 0.03200
C 	C 	0.14430 0.77226 0.85600 0.03200
C 	C 	0.45580 0.83860 0.13540 -0.05600
H 	H 	0.39410 0.82480 0.99890 0.05300
H 	H 	0.26440 0.75930 0.19360 0.05600
C 	C 	0.37780 0.80210 0.25030 -0.05400
C 	C 	0.23520 0.90425 0.83850 -0.06400
C 	C 	0.22890 0.92189 0.00030 -0.06300
C 	C 	0.16190 0.71084 0.81440 -0.06300
C 	C 	0.06750 0.80399 0.81820 -0.06500
C 	C 	0.44950 0.83140 0.22940 0.02300
H 	H 	0.50590 0.85740 0.12010 0.05100
H 	H 	0.37260 0.79670 0.31440 0.04700
C 	C 	0.24990 0.97274 0.82790 -0.05000
H 	H 	0.23180 0.87450 0.78570 0.05600
H 	H 	0.22160 0.90490 0.05990 0.05200
C 	C 	0.24320 0.99089 0.98950 -0.05200
C 	C 	0.10810 0.68419 0.73610 -0.05400
H 	H 	0.21220 0.68670 0.84060 0.05200
H 	H 	0.05310 0.84560 0.84530 0.05200
C 	C 	0.01190 0.77627 0.74200 -0.05500
C 	C 	0.51950 0.85150 0.30860 -0.02500
C 	C 	0.25330 0.01793 0.90320 0.02100
H 	H 	0.25800 0.98950 0.76840 0.04800
H 	H 	0.24640 0.02060 0.04240 0.04400
C 	C 	0.03220 0.71655 0.69780 0.01900
H 	H 	0.12320 0.64320 0.70810 0.04400
H 	H 	0.95910 0.79810 0.71940 0.03900
C 	C 	0.60000 0.82692 0.31260 0.01600
C 	C 	0.50610 0.89210 0.38250 -0.02000
C 	C 	0.26430 0.09239 0.89060 -0.02000
C 	C 	0.97690 0.68843 0.61100 -0.02700
H 	H 	0.60970 0.79970 0.26110 0.01700
H 	H 	0.45170 0.91080 0.38280 0.03300
C 	C 	0.57370 0.90500 0.45670 -0.09000
C 	C 	0.22600 0.12369 0.80690 0.01200
C 	C 	0.30990 0.13440 0.95990 -0.02100
C 	C 	0.92310 0.73083 0.54890 0.01900
C 	C 	0.98000 0.62043 0.58390 -0.01300
C 	C 	0.65060 0.87760 0.45440 0.04500
H 	H 	0.56610 0.93280 0.50850 0.05400
H 	H 	0.19360 0.09570 0.75910 0.02300
H 	H 	0.33730 0.11580 0.01890 0.03000
C 	C 	0.31520 0.20380 0.94230 -0.09600
H 	H 	0.92020 0.77770 0.56550 0.01100
H 	H 	0.01530 0.58900 0.62390 0.03000
C 	C 	0.93240 0.59829 0.49970 -0.09000
H 	H 	0.69610 0.88670 0.50590 0.00000
C 	C 	0.27600 0.22980 0.85690 0.04500
H 	H 	0.34590 0.23320 0.98940 0.05100
C 	C 	0.88030 0.64398 0.44340 0.04800
H 	H 	0.93540 0.55200 0.48050 0.05600
H 	H 	0.28060 0.27750 0.84580 -0.00200
H 	H 	0.84690 0.62820 0.38560 -0.00500
Ag	Ag	0.79493 0.78616 0.37659 0.53500
N 	N 	0.89379 0.88208 0.41830 -0.16100
N 	N 	0.66588 0.83840 0.38350 -0.17200
N 	N 	0.76860 0.80893 0.21170 -0.16700
N 	N 	0.87474 0.70976 0.46690 -0.17900
C 	C 	0.86360 0.94374 0.43440 0.01300
C 	C 	0.95800 0.88000 0.37150 0.03500
H 	H 	0.81970 0.94580 0.46980 0.01800
C 	C 	0.89200 0.00540 0.40280 -0.02100
C 	C 	0.99220 0.93770 0.33980 -0.07600
H 	H 	0.98070 0.83670 0.35980 0.01500
C 	C 	0.95790 0.00020 0.35440 -0.02200
C 	C 	0.85510 0.07117 0.42320 0.02100
H 	H 	0.03870 0.93450 0.30830 0.05300
H 	H 	0.97970 0.04040 0.33090 0.03500
C 	C 	0.90430 0.12982 0.43550 -0.04900
C 	C 	0.77080 0.07707 0.43230 -0.05400
H 	H 	0.96140 0.12770 0.42730 0.04900
C 	C 	0.87200 0.19106 0.45940 -0.06300
C 	C 	0.73820 0.13909 0.45300 -0.06500
H 	H 	0.73540 0.03770 0.42410 0.04400
H 	H 	0.90770 0.23020 0.46930 0.05600
C 	C 	0.78840 0.19687 0.46930 0.03300
H 	H 	0.67990 0.14220 0.45620 0.05100
C 	C 	0.75530 0.26509 0.48980 -0.03200
C 	C 	0.68200 0.28914 0.41520 0.03400
C 	C 	0.79300 0.30285 0.56500 -0.03100
C 	C 	0.61020 0.31840 0.43680 -0.06200
C 	C 	0.68700 0.28048 0.32180 -0.06700
C 	C 	0.77500 0.37739 0.57490 0.03400
C 	C 	0.85570 0.27226 0.64400 0.03200
C 	C 	0.54420 0.33860 0.36460 -0.05500
H 	H 	0.60590 0.32480 0.50110 0.05300
H 	H 	0.73560 0.25930 0.30640 0.05600
C 	C 	0.62220 0.30210 0.24970 -0.05400
C 	C 	0.76480 0.40425 0.66150 -0.06600
C 	C 	0.77110 0.42189 0.49970 -0.06500
C 	C 	0.83810 0.21084 0.68560 -0.06300
C 	C 	0.93250 0.30399 0.68180 -0.06500
C 	C 	0.55050 0.33140 0.27060 0.02300
H 	H 	0.49410 0.35740 0.37990 0.05000
H 	H 	0.62740 0.29670 0.18560 0.04600
C 	C 	0.75010 0.47274 0.67210 -0.04800
H 	H 	0.76820 0.37450 0.71430 0.05700
H 	H 	0.77840 0.40490 0.44010 0.05300
C 	C 	0.75680 0.49089 0.51050 -0.04900
C 	C 	0.89190 0.18419 0.76390 -0.05400
H 	H 	0.78780 0.18670 0.65940 0.05200
H 	H 	0.94690 0.34560 0.65470 0.05200
C 	C 	0.98810 0.27627 0.75800 -0.05500
C 	C 	0.48050 0.35150 0.19140 -0.02500
C 	C 	0.74670 0.51793 0.59680 0.01900
H 	H 	0.74200 0.48950 0.73160 0.04700
H 	H 	0.75360 0.52060 0.45760 0.04300
C 	C 	0.96780 0.21655 0.80220 0.01900
H 	H 	0.87680 0.14320 0.79190 0.04400
H 	H 	0.04090 0.29810 0.78060 0.03900
C 	C 	0.40000 0.32692 0.18740 0.01600
C 	C 	0.49390 0.39210 0.11750 -0.02000
C 	C 	0.73570 0.59239 0.60940 -0.01900
C 	C 	0.02310 0.18843 0.88900 -0.02700
H 	H 	0.39030 0.29970 0.23890 0.01700
H 	H 	0.54830 0.41080 0.11720 0.03300
C 	C 	0.42630 0.40500 0.04330 -0.09000
C 	C 	0.77400 0.62369 0.69310 0.01200
C 	C 	0.69010 0.63440 0.54010 -0.02200
C 	C 	0.07690 0.23083 0.95110 0.01900
C 	C 	0.02000 0.12043 0.91610 -0.01300
C 	C 	0.34940 0.37760 0.04560 0.04500
H 	H 	0.43390 0.43280 0.99150 0.05400
H 	H 	0.80640 0.59570 0.74090 0.02300
H 	H 	0.66270 0.61580 0.48110 0.03100
C 	C 	0.68480 0.70380 0.55770 -0.09500
H 	H 	0.07980 0.27770 0.93450 0.01100
H 	H 	0.98470 0.08900 0.87610 0.03000
C 	C 	0.06760 0.09829 0.00030 -0.09000
H 	H 	0.30390 0.38670 0.99410 0.00000
C 	C 	0.72400 0.72980 0.64310 0.04500
H 	H 	0.65410 0.73320 0.51060 0.05100
C 	C 	0.11970 0.14398 0.05660 0.04800
H 	H 	0.06460 0.05200 0.01950 0.05600
H 	H 	0.71940 0.77750 0.65420 -0.00200
H 	H 	0.15310 0.12820 0.11440 -0.00500
Ag	Ag	0.79493 0.71384 0.87659 0.53500
N 	N 	0.89379 0.61792 0.91830 -0.16100
N 	N 	0.66588 0.66160 0.88350 -0.17200
N 	N 	0.76860 0.69107 0.71170 -0.16700
N 	N 	0.87474 0.79024 0.96690 -0.18000
C 	C 	0.86360 0.55626 0.93440 0.01300
C 	C 	0.95800 0.62000 0.87150 0.03500
H 	H 	0.81970 0.55420 0.96980 0.01800
C 	C 	0.89200 0.49460 0.90280 -0.02100
C 	C 	0.99220 0.56230 0.83980 -0.07600
H 	H 	0.98070 0.66330 0.85980 0.01500
C 	C 	0.95790 0.49980 0.85440 -0.02200
C 	C 	0.85510 0.42883 0.92320 0.02100
H 	H 	0.03870 0.56550 0.80830 0.05300
H 	H 	0.97970 0.45960 0.83090 0.03500
C 	C 	0.90430 0.37018 0.93550 -0.04900
C 	C 	0.77080 0.42293 0.93230 -0.05400
H 	H 	0.96140 0.37230 0.92730 0.04900
C 	C 	0.87200 0.30894 0.95940 -0.06300
C 	C 	0.73820 0.36091 0.95300 -0.06500
H 	H 	0.73540 0.46230 0.92410 0.04400
H 	H 	0.90770 0.26980 0.96930 0.05600
C 	C 	0.78840 0.30313 0.96930 0.03300
H 	H 	0.67990 0.35780 0.95620 0.05100
C 	C 	0.75530 0.23491 0.98980 -0.03100
C 	C 	0.68200 0.21086 0.91520 0.03300
C 	C 	0.79300 0.19715 0.06500 -0.03000
C 	C 	0.61020 0.18160 0.93680 -0.06200
C 	C 	0.68700 0.21952 0.82180 -0.06700
C 	C 	0.77500 0.12261 0.07490 0.03200
C 	C 	0.85570 0.22774 0.14400 0.03200
C 	C 	0.54420 0.16140 0.86460 -0.05600
H 	H 	0.60590 0.17520 0.00110 0.05300
H 	H 	0.73560 0.24070 0.80640 0.05600
C 	C 	0.62220 0.19790 0.74970 -0.05400
C 	C 	0.76480 0.09575 0.16150 -0.06400
C 	C 	0.77110 0.07811 0.99970 -0.06300
C 	C 	0.83810 0.28916 0.18560 -0.06300
C 	C 	0.93250 0.19601 0.18180 -0.06500
C 	C 	0.55050 0.16860 0.77060 0.02300
H 	H 	0.49410 0.14260 0.87990 0.05100
H 	H 	0.62740 0.20330 0.68560 0.04700
C 	C 	0.75010 0.02726 0.17210 -0.05000
H 	H 	0.76820 0.12550 0.21430 0.05600
H 	H 	0.77840 0.09510 0.94010 0.05200
C 	C 	0.75680 0.00911 0.01050 -0.05200
C 	C 	0.89190 0.31581 0.26390 -0.05400
H 	H 	0.78780 0.31330 0.15940 0.05200
H 	H 	0.94690 0.15440 0.15470 0.05200
C 	C 	0.98810 0.22373 0.25800 -0.05500
C 	C 	0.48050 0.14850 0.69140 -0.02500
C 	C 	0.74670 0.98207 0.09680 0.02100
H 	H 	0.74200 0.01050 0.23160 0.04800
H 	H 	0.75360 0.97940 0.95760 0.04400
C 	C 	0.96780 0.28345 0.30220 0.01900
H 	H 	0.87680 0.35680 0.29190 0.04400
H 	H 	0.04090 0.20190 0.28060 0.03900
C 	C 	0.40000 0.17308 0.68740 0.01600
C 	C 	0.49390 0.10790 0.61750 -0.02000
C 	C 	0.73570 0.90761 0.10940 -0.02000
C 	C 	0.02310 0.31157 0.38900 -0.02700
H 	H 	0.39030 0.20030 0.73890 0.01700
H 	H 	0.54830 0.08920 0.61720 0.03300
C 	C 	0.42630 0.09500 0.54330 -0.09000
C 	C 	0.77400 0.87631 0.19310 0.01200
C 	C 	0.69010 0.86560 0.04010 -0.02100
C 	C 	0.07690 0.26917 0.45110 0.01900
C 	C 	0.02000 0.37957 0.41610 -0.01300
C 	C 	0.34940 0.12240 0.54560 0.04500
H 	H 	0.43390 0.06720 0.49150 0.05400
H 	H 	0.80640 0.90430 0.24090 0.02300
H 	H 	0.66270 0.88420 0.98110 0.03000
C 	C 	0.68480 0.79620 0.05770 -0.09600
H 	H 	0.07980 0.22230 0.43450 0.01100
H 	H 	0.98470 0.41100 0.37610 0.03000
C 	C 	0.06760 0.40171 0.50030 -0.09000
H 	H 	0.30390 0.11330 0.49410 0.00000
C 	C 	0.72400 0.77020 0.14310 0.04500
H 	H 	0.65410 0.76680 0.01060 0.05100
C 	C 	0.11970 0.35602 0.55660 0.04800
H 	H 	0.06460 0.44800 0.51950 0.05600
H 	H 	0.71940 0.72250 0.15420 -0.00200
H 	H 	0.15310 0.37180 0.61440 -0.00500
Ag	Ag	0.20507 0.21384 0.62341 0.53500
N 	N 	0.10621 0.11792 0.58170 -0.16100
N 	N 	0.33412 0.16160 0.61650 -0.17200
N 	N 	0.23140 0.19107 0.78830 -0.16700
N 	N 	0.12526 0.29024 0.53310 -0.17900
C 	C 	0.13640 0.05626 0.56560 0.01300
C 	C 	0.04200 0.12000 0.62850 0.03500
H 	H 	0.18030 0.05420 0.53020 0.01800
C 	C 	0.10800 0.99460 0.59720 -0.02100
C 	C 	0.00780 0.06230 0.66020 -0.07600
H 	H 	0.01930 0.16330 0.64020 0.01500
C 	C 	0.04210 0.99980 0.64560 -0.02200
C 	C 	0.14490 0.92883 0.57680 0.02100
H 	H 	0.96130 0.06550 0.69170 0.05300
H 	H 	0.02030 0.95960 0.66910 0.03500
C 	C 	0.09570 0.87018 0.56450 -0.04900
C 	C 	0.22920 0.92293 0.56770 -0.05400
H 	H 	0.03860 0.87230 0.57270 0.04900
C 	C 	0.12800 0.80894 0.54060 -0.06300
C 	C 	0.26180 0.86091 0.54700 -0.06500
H 	H 	0.26460 0.96230 0.57590 0.04400
H 	H 	0.09230 0.76980 0.53070 0.05600
C 	C 	0.21160 0.80313 0.53070 0.03300
H 	H 	0.32010 0.85780 0.54380 0.05100
C 	C 	0.24470 0.73491 0.51020 -0.03200
C 	C 	0.31800 0.71086 0.58480 0.03400
C 	C 	0.20700 0.69715 0.43500 -0.03100
C 	C 	0.38980 0.68160 0.56320 -0.06200
C 	C 	0.31300 0.71952 0.67820 -0.06700
C 	C 	0.22500 0.62261 0.42510 0.03400
C 	C 	0.14430 0.72774 0.35600 0.03200
C 	C 	0.45580 0.66140 0.63540 -0.05500
H 	H 	0.39410 0.67520 0.49890 0.05300
H 	H 	0.26440 0.74070 0.69360 0.05600
C 	C 	0.37780 0.69790 0.75030 -0.05400
C 	C 	0.23520 0.59575 0.33850 -0.06600
C 	C 	0.22890 0.57811 0.50030 -0.06500
C 	C 	0.16190 0.78916 0.31440 -0.06300
C 	C 	0.06750 0.69601 0.31820 -0.06500
C 	C 	0.44950 0.66860 0.72940 0.02300
H 	H 	0.50590 0.64260 0.62010 0.05000
H 	H 	0.37260 0.70330 0.81440 0.04600
C 	C 	0.24990 0.52726 0.32790 -0.04800
H 	H 	0.23180 0.62550 0.28570 0.05700
H 	H 	0.22160 0.59510 0.55990 0.05300
C 	C 	0.24320 0.50911 0.48950 -0.04900
C 	C 	0.10810 0.81581 0.23610 -0.05400
H 	H 	0.21220 0.81330 0.34060 0.05200
H 	H 	0.05310 0.65440 0.34530 0.05200
C 	C 	0.01190 0.72373 0.24200 -0.05500
C 	C 	0.51950 0.64850 0.80860 -0.02500
C 	C 	0.25330 0.48207 0.40320 0.01900
H 	H 	0.25800 0.51050 0.26840 0.04700
H 	H 	0.24640 0.47940 0.54240 0.04300
C 	C 	0.03220 0.78345 0.19780 0.01900
H 	H 	0.12320 0.85680 0.20810 0.04400
H 	H 	0.95910 0.70190 0.21940 0.03900
C 	C 	0.60000 0.67308 0.81260 0.01600
C 	C 	0.50610 0.60790 0.88250 -0.02000
C 	C 	0.26430 0.40761 0.39060 -0.01900
C 	C 	0.97690 0.81157 0.11100 -0.02700
H 	H 	0.60970 0.70030 0.76110 0.01700
H 	H 	0.45170 0.58920 0.88280 0.03300
C 	C 	0.57370 0.59500 0.95670 -0.09000
C 	C 	0.22600 0.37631 0.30690 0.01200
C 	C 	0.30990 0.36560 0.45990 -0.02200
C 	C 	0.92310 0.76917 0.04890 0.01900
C 	C 	0.98000 0.87957 0.08390 -0.01300
C 	C 	0.65060 0.62240 0.95440 0.04500
H 	H 	0.56610 0.56720 0.00850 0.05400
H 	H 	0.19360 0.40430 0.25910 0.02300
H 	H 	0.33730 0.38420 0.51890 0.03100
C 	C 	0.31520 0.29620 0.44230 -0.09500
H 	H 	0.92020 0.72230 0.06550 0.01100
H 	H 	0.01530 0.91100 0.12390 0.03000
C 	C 	0.93240 0.90171 0.99970 -0.09000
H 	H 	0.69610 0.61330 0.00590 0.00000
C 	C 	0.27600 0.27020 0.35690 0.04500
H 	H 	0.34590 0.26680 0.48940 0.05100
C 	C 	0.88030 0.85602 0.94340 0.04800
H 	H 	0.93540 0.94800 0.98050 0.05600
H 	H 	0.28060 0.22250 0.34580 -0.00200
H 	H 	0.84690 0.87180 0.88560 -0.00500
