data_crystal

_cell_length_a 6.07200
_cell_length_b 9.53000
_cell_length_c 19.84400
_cell_angle_alpha 90.00000
_cell_angle_beta  90.00000
_cell_angle_gamma 90.00000

_symmetry_space_group_name_	'P 1'
_symmetry_space_group_name_H-M	'P 1'

loop_
_symmetry_equiv_pos_as_xyz
  x,y,z

loop_
_atom_site_label
_atom_site_type_symbol
_atom_site_fract_x
_atom_site_fract_y
_atom_site_fract_z
_atom_site_charge
Er	Er	0.78610 0.46710 0.81370 1.51500
Er	Er	0.71390 0.53290 0.31370 1.51600
Er	Er	0.21390 0.96710 0.68630 1.51300
Er	Er	0.28610 0.03290 0.18630 1.51700
C 	C 	0.28710 0.62540 0.12800 -0.08500
C 	C 	0.08140 0.56120 0.12570 -0.07100
C 	C 	0.99260 0.52360 0.06400 0.02200
C 	C 	0.10670 0.54720 0.00400 -0.09800
C 	C 	0.31850 0.60480 0.00680 0.00000
C 	C 	0.40060 0.64850 0.06840 -0.01000
C 	C 	0.38890 0.67030 0.19440 0.40700
C 	C 	0.94410 0.54090 0.18730 0.32100
C 	C 	0.00240 0.50780 0.93710 0.33500
C 	C 	0.21290 0.37460 0.62800 -0.08600
C 	C 	0.41860 0.43880 0.62570 -0.07000
C 	C 	0.50740 0.47640 0.56400 0.02100
C 	C 	0.39330 0.45280 0.50400 -0.09700
C 	C 	0.18150 0.39520 0.50680 -0.00000
C 	C 	0.09940 0.35150 0.56840 -0.00800
C 	C 	0.11110 0.32970 0.69440 0.40800
C 	C 	0.55590 0.45910 0.68730 0.32000
C 	C 	0.49760 0.49220 0.43710 0.33500
C 	C 	0.71290 0.12540 0.37200 -0.08300
C 	C 	0.91860 0.06120 0.37430 -0.07800
C 	C 	0.00740 0.02360 0.43600 0.02900
C 	C 	0.89330 0.04720 0.49600 -0.10200
C 	C 	0.68150 0.10480 0.49320 0.00200
C 	C 	0.59940 0.14850 0.43160 -0.01200
C 	C 	0.61110 0.17030 0.30560 0.40600
C 	C 	0.05590 0.04090 0.31270 0.32500
C 	C 	0.99760 0.00780 0.56290 0.33300
C 	C 	0.78710 0.87460 0.87200 -0.08700
C 	C 	0.58140 0.93880 0.87430 -0.06900
C 	C 	0.49260 0.97640 0.93600 0.01900
C 	C 	0.60670 0.95280 0.99600 -0.09700
C 	C 	0.81850 0.89520 0.99320 -0.00100
C 	C 	0.90060 0.85150 0.93160 -0.00700
C 	C 	0.88890 0.82970 0.80560 0.40800
C 	C 	0.44410 0.95910 0.81270 0.31800
C 	C 	0.50240 0.99220 0.06290 0.33600
O 	O 	0.42530 0.80320 0.20220 -0.41800
O 	O 	0.44160 0.57750 0.23410 -0.43900
O 	O 	0.84860 0.42690 0.19660 -0.34700
O 	O 	0.92420 0.64040 0.22850 -0.42000
O 	O 	0.80140 0.49420 0.93440 -0.42500
O 	O 	0.11860 0.49610 0.88490 -0.39200
O 	O 	0.07470 0.19680 0.70220 -0.41700
O 	O 	0.05840 0.42250 0.73410 -0.43900
O 	O 	0.65140 0.57310 0.69660 -0.34700
O 	O 	0.57580 0.35960 0.72850 -0.42000
O 	O 	0.69860 0.50580 0.43440 -0.42600
O 	O 	0.38140 0.50390 0.38490 -0.39200
O 	O 	0.57470 0.30320 0.29780 -0.41800
O 	O 	0.55840 0.07750 0.26590 -0.43900
O 	O 	0.15140 0.92690 0.30340 -0.34800
O 	O 	0.07580 0.14040 0.27150 -0.42100
O 	O 	0.19860 0.99420 0.56560 -0.42400
O 	O 	0.88140 0.99610 0.61510 -0.38900
O 	O 	0.92530 0.69680 0.79780 -0.41800
O 	O 	0.94160 0.92250 0.76590 -0.43800
O 	O 	0.34860 0.07310 0.80340 -0.34500
O 	O 	0.42420 0.85960 0.77150 -0.41900
O 	O 	0.30140 0.00580 0.06560 -0.42600
O 	O 	0.61860 0.00390 0.11510 -0.39300
H 	H 	0.82317 0.47231 0.06155 0.03500
H 	H 	0.42051 0.61512 0.95883 0.03400
H 	H 	0.56619 0.70484 0.06929 0.03500
H 	H 	0.67683 0.52769 0.56155 0.03600
H 	H 	0.07949 0.38488 0.45883 0.03400
H 	H 	0.93381 0.29516 0.56929 0.03300
H 	H 	0.17683 0.97231 0.43845 0.03400
H 	H 	0.57949 0.11512 0.54117 0.03400
H 	H 	0.43426 0.20514 0.42895 0.03500
H 	H 	0.32317 0.02769 0.93845 0.03700
H 	H 	0.92051 0.88488 0.04117 0.03500
H 	H 	0.06619 0.79516 0.93071 0.03300
