data_crystal

_cell_length_a 10.21050
_cell_length_b 10.21050
_cell_length_c 31.22230
_cell_angle_alpha 90.00000
_cell_angle_beta  90.00000
_cell_angle_gamma 120.00000

_symmetry_space_group_name_	'P 1'
_symmetry_space_group_name_H-M	'P 1'

loop_
_symmetry_equiv_pos_as_xyz
  x,y,z

loop_
_atom_site_label
_atom_site_type_symbol
_atom_site_fract_x
_atom_site_fract_y
_atom_site_fract_z
_atom_site_charge
O 	O 	0.28224 0.19255 0.02156 -0.42600
O 	O 	0.16627 0.01084 0.06913 -0.56800
O 	O 	0.25472 0.25039 0.13081 -0.42000
O 	O 	0.49572 0.35542 0.14837 -0.44700
C 	C 	0.28158 0.13215 0.05631 0.55700
C 	C 	0.41735 0.20646 0.08514 -0.78400
H 	H 	0.44600 0.13500 0.09580 0.25800
H 	H 	0.50000 0.28500 0.07030 0.27800
C 	C 	0.38616 0.27459 0.12442 0.55800
O 	O 	0.94891 0.52588 0.35489 -0.39000
O 	O 	0.83294 0.34417 0.40246 -0.50900
O 	O 	0.92139 0.58372 0.46414 -0.32600
O 	O 	0.16239 0.68875 0.48170 -0.43900
C 	C 	0.94825 0.46548 0.38964 0.64700
C 	C 	0.08402 0.53979 0.41847 -0.87300
H 	H 	0.11267 0.46833 0.42913 0.27800
H 	H 	0.16667 0.61833 0.40363 0.29900
C 	C 	0.05283 0.60792 0.45775 0.47400
O 	O 	0.61557 0.85922 0.68823 -0.38800
O 	O 	0.49960 0.67751 0.73580 -0.51000
O 	O 	0.58805 0.91706 0.79748 -0.41800
O 	O 	0.82905 0.02209 0.81504 -0.50100
C 	C 	0.61491 0.79882 0.72298 0.60100
C 	C 	0.75068 0.87313 0.75181 -0.89100
H 	H 	0.77933 0.80167 0.76247 0.33100
H 	H 	0.83333 0.95167 0.73697 0.37300
C 	C 	0.71949 0.94126 0.79109 0.70600
O 	O 	0.80745 0.08969 0.02156 -0.41100
O 	O 	0.98916 0.15543 0.06913 -0.41400
O 	O 	0.74961 0.00433 0.13081 -0.42800
O 	O 	0.64458 0.14030 0.14837 -0.46700
C 	C 	0.86785 0.14943 0.05631 0.55400
C 	C 	0.79354 0.21089 0.08514 -0.78100
H 	H 	0.86500 0.31100 0.09580 0.29400
H 	H 	0.71500 0.21500 0.07030 0.27400
C 	C 	0.72541 0.11157 0.12442 0.56600
O 	O 	0.47412 0.42302 0.35489 -0.41400
O 	O 	0.65583 0.48876 0.40246 -0.49400
O 	O 	0.41628 0.33766 0.46414 -0.43400
O 	O 	0.31125 0.47363 0.48170 -0.46200
C 	C 	0.53452 0.48276 0.38964 0.56300
C 	C 	0.46021 0.54422 0.41847 -0.79200
H 	H 	0.53167 0.64433 0.42913 0.28800
H 	H 	0.38167 0.54833 0.40363 0.27900
C 	C 	0.39208 0.44490 0.45775 0.56400
O 	O 	0.14078 0.75636 0.68823 -0.40900
O 	O 	0.32249 0.82210 0.73580 -0.48300
O 	O 	0.08294 0.67100 0.79748 -0.39800
O 	O 	0.97791 0.80697 0.81504 -0.27600
C 	C 	0.20118 0.81610 0.72298 0.54100
C 	C 	0.12687 0.87756 0.75181 -0.71000
H 	H 	0.19833 0.97767 0.76247 0.28200
H 	H 	0.04833 0.88167 0.73697 0.24500
C 	C 	0.05874 0.77824 0.79109 0.41300
O 	O 	0.91031 0.71776 0.02156 -0.32200
O 	O 	0.84457 0.83373 0.06913 -0.38700
O 	O 	0.99567 0.74528 0.13081 -0.31400
O 	O 	0.85970 0.50428 0.14837 -0.42300
C 	C 	0.85057 0.71842 0.05631 0.53200
C 	C 	0.78911 0.58265 0.08514 -0.73100
H 	H 	0.68900 0.55400 0.09580 0.26200
H 	H 	0.78500 0.50000 0.07030 0.27000
C 	C 	0.88843 0.61384 0.12442 0.54100
O 	O 	0.57698 0.05109 0.35489 -0.41000
O 	O 	0.51124 0.16706 0.40246 -0.49800
O 	O 	0.66234 0.07861 0.46414 -0.47900
O 	O 	0.52637 0.83761 0.48170 -0.44900
C 	C 	0.51724 0.05175 0.38964 0.46300
C 	C 	0.45578 0.91598 0.41847 -0.68300
H 	H 	0.35567 0.88733 0.42913 0.25900
H 	H 	0.45167 0.83333 0.40363 0.26400
C 	C 	0.55510 0.94717 0.45775 0.65000
O 	O 	0.24364 0.38443 0.68823 -0.41600
O 	O 	0.17790 0.50040 0.73580 -0.50600
O 	O 	0.32900 0.41195 0.79748 -0.40900
O 	O 	0.19303 0.17095 0.81504 -0.47700
C 	C 	0.18390 0.38509 0.72298 0.52500
C 	C 	0.12244 0.24932 0.75181 -0.72400
H 	H 	0.02233 0.22067 0.76247 0.21100
H 	H 	0.11833 0.16667 0.73697 0.21600
C 	C 	0.22176 0.28051 0.79109 0.53800
O 	O 	0.71776 0.80745 0.97844 -0.32700
O 	O 	0.83373 0.98916 0.93087 -0.34200
O 	O 	0.74528 0.74961 0.86919 -0.35400
O 	O 	0.50428 0.64458 0.85163 -0.44400
C 	C 	0.71842 0.86785 0.94369 0.53900
C 	C 	0.58265 0.79354 0.91486 -0.74700
H 	H 	0.55400 0.86500 0.90420 0.28700
H 	H 	0.50000 0.71500 0.92970 0.27500
C 	C 	0.61384 0.72541 0.87558 0.55300
O 	O 	0.38443 0.14078 0.31177 -0.42000
O 	O 	0.50040 0.32249 0.26420 -0.48800
O 	O 	0.41195 0.08294 0.20252 -0.39600
O 	O 	0.17095 0.97791 0.18496 -0.32000
C 	C 	0.38509 0.20118 0.27702 0.50700
C 	C 	0.24932 0.12687 0.24819 -0.65000
H 	H 	0.22067 0.19833 0.23753 0.21500
H 	H 	0.16667 0.04833 0.26303 0.17900
C 	C 	0.28051 0.05874 0.20891 0.38500
O 	O 	0.05109 0.47412 0.64511 -0.42000
O 	O 	0.16706 0.65583 0.59754 -0.49000
O 	O 	0.07861 0.41628 0.53586 -0.50400
O 	O 	0.83761 0.31125 0.51830 -0.46000
C 	C 	0.05175 0.53452 0.61036 0.46700
C 	C 	0.91598 0.46021 0.58153 -0.69100
H 	H 	0.88733 0.53167 0.57087 0.27100
H 	H 	0.83333 0.38167 0.59637 0.26300
C 	C 	0.94717 0.39208 0.54225 0.65800
O 	O 	0.19255 0.91031 0.97844 -0.33500
O 	O 	0.01084 0.84457 0.93087 -0.48600
O 	O 	0.25039 0.99567 0.86919 -0.34200
O 	O 	0.35542 0.85970 0.85163 -0.42400
C 	C 	0.13215 0.85057 0.94369 0.54000
C 	C 	0.20646 0.78911 0.91486 -0.74700
H 	H 	0.13500 0.68900 0.90420 0.25000
H 	H 	0.28500 0.78500 0.92970 0.27700
C 	C 	0.27459 0.88843 0.87558 0.54400
O 	O 	0.85922 0.24364 0.31177 -0.39900
O 	O 	0.67751 0.17790 0.26420 -0.51700
O 	O 	0.91706 0.32900 0.20252 -0.42200
O 	O 	0.02209 0.19303 0.18496 -0.57300
C 	C 	0.79882 0.18390 0.27702 0.57400
C 	C 	0.87313 0.12244 0.24819 -0.85200
H 	H 	0.80167 0.02233 0.23753 0.27300
H 	H 	0.95167 0.11833 0.26303 0.31800
C 	C 	0.94126 0.22176 0.20891 0.70700
O 	O 	0.52588 0.57698 0.64511 -0.39500
O 	O 	0.34417 0.51124 0.59754 -0.50700
O 	O 	0.58372 0.66234 0.53586 -0.39300
O 	O 	0.68875 0.52637 0.51830 -0.43800
C 	C 	0.46548 0.51724 0.61036 0.55300
C 	C 	0.53979 0.45578 0.58153 -0.77500
H 	H 	0.46833 0.35567 0.57087 0.26200
H 	H 	0.61833 0.45167 0.59637 0.28200
C 	C 	0.60792 0.55510 0.54225 0.56300
O 	O 	0.08969 0.28224 0.97844 -0.43200
O 	O 	0.15543 0.16627 0.93087 -0.52300
O 	O 	0.00433 0.25472 0.86919 -0.46300
O 	O 	0.14030 0.49572 0.85163 -0.46900
C 	C 	0.14943 0.28158 0.94369 0.56400
C 	C 	0.21089 0.41735 0.91486 -0.80200
H 	H 	0.31100 0.44600 0.90420 0.28200
H 	H 	0.21500 0.50000 0.92970 0.28200
C 	C 	0.11157 0.38616 0.87558 0.57100
O 	O 	0.75636 0.61557 0.31177 -0.39200
O 	O 	0.82210 0.49960 0.26420 -0.49300
O 	O 	0.67100 0.58805 0.20252 -0.40900
O 	O 	0.80697 0.82905 0.18496 -0.36800
C 	C 	0.81610 0.61491 0.27702 0.58700
C 	C 	0.87756 0.75068 0.24819 -0.82800
H 	H 	0.97767 0.77933 0.23753 0.33800
H 	H 	0.88167 0.83333 0.26303 0.34100
C 	C 	0.77824 0.71949 0.20891 0.57300
O 	O 	0.42302 0.94891 0.64511 -0.39800
O 	O 	0.48876 0.83294 0.59754 -0.50300
O 	O 	0.33766 0.92139 0.53586 -0.34500
O 	O 	0.47363 0.16239 0.51830 -0.45100
C 	C 	0.48276 0.94825 0.61036 0.64900
C 	C 	0.54422 0.08402 0.58153 -0.87800
H 	H 	0.64433 0.11267 0.57087 0.29200
H 	H 	0.54833 0.16667 0.59637 0.29600
C 	C 	0.44490 0.05283 0.54225 0.47300
La	La	-0.00000 0.00000 -0.00000 1.43900
La	La	0.66667 0.33333 0.33333 1.70700
La	La	0.33333 0.66667 0.66667 1.70700
La	La	0.00000 0.00000 0.13170 1.52200
La	La	0.66667 0.33333 0.46504 1.76500
La	La	0.33333 0.66667 0.79837 1.76400
La	La	-0.00000 0.00000 0.86830 1.52500
La	La	0.66667 0.33333 0.20163 1.76500
La	La	0.33333 0.66667 0.53496 1.76500
