data_crystal

_cell_length_a 10.20240
_cell_length_b 10.20240
_cell_length_c 31.08180
_cell_angle_alpha 90.00000
_cell_angle_beta  90.00000
_cell_angle_gamma 120.00000

_symmetry_space_group_name_	'P 1'
_symmetry_space_group_name_H-M	'P 1'

loop_
_symmetry_equiv_pos_as_xyz
  x,y,z

loop_
_atom_site_label
_atom_site_type_symbol
_atom_site_fract_x
_atom_site_fract_y
_atom_site_fract_z
_atom_site_charge
O 	O 	0.38720 0.24220 0.31190 -0.46700
O 	O 	0.50231 0.17740 0.26380 -0.60000
C 	C 	0.38670 0.18260 0.27689 0.51900
C 	C 	0.25020 0.12130 0.24825 -0.69900
O 	O 	0.41162 0.32820 0.20223 -0.46000
O 	O 	0.49660 0.14210 0.14848 -0.53500
H 	H 	0.16590 0.11570 0.26420 0.18300
H 	H 	0.22240 0.01960 0.23920 0.18800
C 	C 	0.28040 0.22020 0.20885 0.55600
O 	O 	0.05387 0.57553 0.64523 -0.45700
O 	O 	0.16898 0.51073 0.59713 -0.58800
C 	C 	0.05337 0.51593 0.61022 0.43000
C 	C 	0.91687 0.45463 0.58158 -0.63900
O 	O 	0.07829 0.66153 0.53556 -0.55500
O 	O 	0.16327 0.47543 0.48181 -0.50500
H 	H 	0.83257 0.44903 0.59753 0.25100
H 	H 	0.88907 0.35293 0.57253 0.25700
C 	C 	0.94707 0.55353 0.54218 0.70800
O 	O 	0.72053 0.90887 0.97857 -0.33000
O 	O 	0.83564 0.84407 0.93047 -0.46300
C 	C 	0.72003 0.84927 0.94356 0.53500
C 	C 	0.58353 0.78797 0.91492 -0.71400
O 	O 	0.74495 0.99487 0.86890 -0.34700
O 	O 	0.82993 0.80877 0.81515 -0.41500
H 	H 	0.49923 0.78237 0.93087 0.26500
H 	H 	0.55573 0.68627 0.90587 0.26300
C 	C 	0.61373 0.88687 0.87552 0.56200
O 	O 	0.75780 0.14500 0.31190 -0.45600
O 	O 	0.82260 0.32491 0.26380 -0.56900
C 	C 	0.81740 0.20410 0.27689 0.54400
C 	C 	0.87870 0.12890 0.24825 -0.68700
O 	O 	0.67180 0.08342 0.20223 -0.44700
O 	O 	0.85790 0.35450 0.14848 -0.47400
H 	H 	0.88430 0.05020 0.26420 0.23000
H 	H 	0.98040 0.20280 0.23920 0.29100
C 	C 	0.77980 0.06020 0.20885 0.39500
O 	O 	0.42447 0.47833 0.64523 -0.46200
O 	O 	0.48927 0.65824 0.59713 -0.58200
C 	C 	0.48407 0.53743 0.61022 0.56800
C 	C 	0.54537 0.46223 0.58158 -0.78100
O 	O 	0.33847 0.41675 0.53556 -0.49000
O 	O 	0.52457 0.68783 0.48181 -0.49000
H 	H 	0.55097 0.38353 0.59753 0.26700
H 	H 	0.64707 0.53613 0.57253 0.29300
C 	C 	0.44647 0.39353 0.54218 0.58500
O 	O 	0.09113 0.81167 0.97857 -0.45200
O 	O 	0.15593 0.99158 0.93047 -0.50300
C 	C 	0.15073 0.87077 0.94356 0.56500
C 	C 	0.21203 0.79557 0.91492 -0.78300
O 	O 	0.00513 0.75009 0.86890 -0.50400
O 	O 	0.19123 0.02117 0.81515 -0.69200
H 	H 	0.21763 0.71687 0.93087 0.27000
H 	H 	0.31373 0.86947 0.90587 0.30700
C 	C 	0.11313 0.72687 0.87552 0.59600
O 	O 	0.85500 0.61280 0.31190 -0.42600
O 	O 	0.67509 0.49769 0.26380 -0.60400
C 	C 	0.79590 0.61330 0.27689 0.61500
C 	C 	0.87110 0.74980 0.24825 -0.90700
O 	O 	0.91658 0.58838 0.20223 -0.47100
O 	O 	0.64550 0.50340 0.14848 -0.50200
H 	H 	0.94980 0.83410 0.26420 0.39000
H 	H 	0.79720 0.77760 0.23920 0.34600
C 	C 	0.93980 0.71960 0.20885 0.78700
O 	O 	0.52167 0.94613 0.64523 -0.43000
O 	O 	0.34176 0.83102 0.59713 -0.60300
C 	C 	0.46257 0.94663 0.61022 0.67700
C 	C 	0.53777 0.08313 0.58158 -0.87700
O 	O 	0.58325 0.92171 0.53556 -0.34300
O 	O 	0.31217 0.83673 0.48181 -0.52100
H 	H 	0.61647 0.16743 0.59753 0.28700
H 	H 	0.46387 0.11093 0.57253 0.27300
C 	C 	0.60647 0.05293 0.54218 0.46100
O 	O 	0.18833 0.27947 0.97857 -0.47200
O 	O 	0.00842 0.16436 0.93047 -0.71400
C 	C 	0.12923 0.27997 0.94356 0.56600
C 	C 	0.20443 0.41647 0.91492 -0.78200
O 	O 	0.24991 0.25505 0.86890 -0.49100
O 	O 	0.97883 0.17007 0.81515 -0.34900
H 	H 	0.28313 0.50077 0.93087 0.27300
H 	H 	0.13053 0.44427 0.90587 0.25400
C 	C 	0.27313 0.38627 0.87552 0.58300
O 	O 	0.61280 0.75780 0.68810 -0.43300
O 	O 	0.49769 0.82260 0.73620 -0.58200
C 	C 	0.61330 0.81740 0.72311 0.59800
C 	C 	0.74980 0.87870 0.75175 -0.82700
O 	O 	0.58838 0.67180 0.79777 -0.45800
O 	O 	0.50340 0.85790 0.85152 -0.47300
H 	H 	0.83410 0.88430 0.73580 0.34900
H 	H 	0.77760 0.98040 0.76080 0.35700
C 	C 	0.71960 0.77980 0.79115 0.60200
O 	O 	0.27947 0.09113 0.02143 -0.54300
O 	O 	0.16436 0.15593 0.06953 -0.67400
C 	C 	0.27997 0.15073 0.05644 0.57800
C 	C 	0.41647 0.21203 0.08508 -0.80800
O 	O 	0.25505 0.00513 0.13110 -0.55200
O 	O 	0.17007 0.19123 0.18485 -0.56900
H 	H 	0.50077 0.21763 0.06913 0.26800
H 	H 	0.44427 0.31373 0.09413 0.28300
C 	C 	0.38627 0.11313 0.12448 0.59900
O 	O 	0.94613 0.42447 0.35477 -0.44100
O 	O 	0.83102 0.48927 0.40287 -0.59400
C 	C 	0.94663 0.48407 0.38978 0.68600
C 	C 	0.08313 0.54537 0.41842 -0.89100
O 	O 	0.92171 0.33847 0.46444 -0.36300
O 	O 	0.83673 0.52457 0.51819 -0.50500
H 	H 	0.16743 0.55097 0.40247 0.28400
H 	H 	0.11093 0.64707 0.42747 0.29300
C 	C 	0.05293 0.44647 0.45782 0.45300
O 	O 	0.24220 0.85500 0.68810 -0.44300
O 	O 	0.17740 0.67509 0.73620 -0.61400
C 	C 	0.18260 0.79590 0.72311 0.57900
C 	C 	0.12130 0.87110 0.75175 -0.85200
O 	O 	0.32820 0.91658 0.79777 -0.47400
O 	O 	0.14210 0.64550 0.85152 -0.53200
H 	H 	0.11570 0.94980 0.73580 0.31300
H 	H 	0.01960 0.79720 0.76080 0.26500
C 	C 	0.22020 0.93980 0.79115 0.77700
O 	O 	0.90887 0.18833 0.02143 -0.40800
O 	O 	0.84407 0.00842 0.06953 -0.61700
C 	C 	0.84927 0.12923 0.05644 0.54300
C 	C 	0.78797 0.20443 0.08508 -0.73200
O 	O 	0.99487 0.24991 0.13110 -0.38400
O 	O 	0.80877 0.97883 0.18485 -0.29700
H 	H 	0.78237 0.28313 0.06913 0.26100
H 	H 	0.68627 0.13053 0.09413 0.23800
C 	C 	0.88687 0.27313 0.12448 0.56100
O 	O 	0.57553 0.52167 0.35477 -0.43800
O 	O 	0.51073 0.34176 0.40287 -0.60100
C 	C 	0.51593 0.46257 0.38978 0.55300
C 	C 	0.45463 0.53777 0.41842 -0.75400
O 	O 	0.66153 0.58325 0.46444 -0.43300
O 	O 	0.47543 0.31217 0.51819 -0.52100
H 	H 	0.44903 0.61647 0.40247 0.27000
H 	H 	0.35293 0.46387 0.42747 0.25500
C 	C 	0.55353 0.60647 0.45782 0.58200
O 	O 	0.14500 0.38720 0.68810 -0.47200
O 	O 	0.32491 0.50231 0.73620 -0.57600
C 	C 	0.20410 0.38670 0.72311 0.49900
C 	C 	0.12890 0.25020 0.75175 -0.60600
O 	O 	0.08342 0.41162 0.79777 -0.44200
O 	O 	0.35450 0.49660 0.85152 -0.50500
H 	H 	0.05020 0.16590 0.73580 0.13800
H 	H 	0.20280 0.22240 0.76080 0.19800
C 	C 	0.06020 0.28040 0.79115 0.34700
O 	O 	0.81167 0.72053 0.02143 -0.39800
O 	O 	0.99158 0.83564 0.06953 -0.42200
C 	C 	0.87077 0.72003 0.05644 0.54400
C 	C 	0.79557 0.58353 0.08508 -0.73800
O 	O 	0.75009 0.74495 0.13110 -0.40500
O 	O 	0.02117 0.82993 0.18485 -0.60500
H 	H 	0.71687 0.49923 0.06913 0.26000
H 	H 	0.86947 0.55573 0.09413 0.29200
C 	C 	0.72687 0.61373 0.12448 0.57500
O 	O 	0.47833 0.05387 0.35477 -0.47100
O 	O 	0.65824 0.16898 0.40287 -0.57900
C 	C 	0.53743 0.05337 0.38978 0.44200
C 	C 	0.46223 0.91687 0.41842 -0.65800
O 	O 	0.41675 0.07829 0.46444 -0.58400
O 	O 	0.68783 0.16327 0.51819 -0.49000
H 	H 	0.38353 0.83257 0.40247 0.25100
H 	H 	0.53613 0.88907 0.42747 0.27500
C 	C 	0.39353 0.94707 0.45782 0.71200
Ce	Ce	0.66667 0.33333 0.33333 2.15900
Ce	Ce	0.33333 0.66667 0.66667 2.15900
Ce	Ce	-0.00000 0.00000 -0.00000 2.01700
Ce	Ce	0.66667 0.33333 0.20143 2.18300
Ce	Ce	0.33333 0.66667 0.53476 2.18300
Ce	Ce	0.00000 0.00000 0.86810 2.05800
Ce	Ce	0.33333 0.66667 0.79857 2.18300
Ce	Ce	0.00000 0.00000 0.13190 2.05700
Ce	Ce	0.66667 0.33333 0.46524 2.18300
