data_crystal

_cell_length_a 10.18210
_cell_length_b 10.18210
_cell_length_c 30.92160
_cell_angle_alpha 90.00000
_cell_angle_beta  90.00000
_cell_angle_gamma 120.00000

_symmetry_space_group_name_	'P 1'
_symmetry_space_group_name_H-M	'P 1'

loop_
_symmetry_equiv_pos_as_xyz
  x,y,z

loop_
_atom_site_label
_atom_site_type_symbol
_atom_site_fract_x
_atom_site_fract_y
_atom_site_fract_z
_atom_site_charge
O 	O 	0.27781 0.18659 0.02133 -0.49700
O 	O 	0.16268 0.00656 0.06990 -0.70900
O 	O 	0.25444 0.24843 0.13144 -0.48400
O 	O 	0.49701 0.35411 0.14869 -0.49700
C 	C 	0.27828 0.12737 0.05658 0.56200
C 	C 	0.41594 0.20272 0.08518 -0.77300
H 	H 	0.50030 0.28130 0.06900 0.26400
H 	H 	0.44360 0.12860 0.09420 0.25100
C 	C 	0.38606 0.27214 0.12480 0.58000
O 	O 	0.94448 0.51992 0.35466 -0.42300
O 	O 	0.82935 0.33989 0.40323 -0.58900
O 	O 	0.92111 0.58176 0.46477 -0.33500
O 	O 	0.16368 0.68744 0.48202 -0.48200
C 	C 	0.94495 0.46070 0.38991 0.67100
C 	C 	0.08261 0.53605 0.41851 -0.86700
H 	H 	0.16697 0.61463 0.40233 0.28400
H 	H 	0.11027 0.46193 0.42753 0.27400
C 	C 	0.05273 0.60547 0.45813 0.45800
O 	O 	0.61114 0.85326 0.68800 -0.41900
O 	O 	0.49601 0.67323 0.73657 -0.58900
O 	O 	0.58777 0.91510 0.79811 -0.46100
O 	O 	0.83034 0.02078 0.81536 -0.58800
C 	C 	0.61161 0.79404 0.72325 0.60700
C 	C 	0.74927 0.86939 0.75185 -0.89000
H 	H 	0.83363 0.94797 0.73567 0.38300
H 	H 	0.77693 0.79527 0.76087 0.34300
C 	C 	0.71939 0.93881 0.79147 0.77300
O 	O 	0.81341 0.09122 0.02133 -0.47500
O 	O 	0.99344 0.15612 0.06990 -0.49900
O 	O 	0.75157 0.00601 0.13144 -0.49400
O 	O 	0.64589 0.14290 0.14869 -0.52400
C 	C 	0.87263 0.15091 0.05658 0.55800
C 	C 	0.79728 0.21322 0.08518 -0.77300
H 	H 	0.71870 0.21900 0.06900 0.26200
H 	H 	0.87140 0.31500 0.09420 0.30400
C 	C 	0.72786 0.11392 0.12480 0.59200
O 	O 	0.48008 0.42455 0.35466 -0.45400
O 	O 	0.66011 0.48945 0.40323 -0.56900
O 	O 	0.41824 0.33934 0.46477 -0.48000
O 	O 	0.31256 0.47623 0.48202 -0.51300
C 	C 	0.53930 0.48424 0.38991 0.56200
C 	C 	0.46395 0.54655 0.41851 -0.77100
H 	H 	0.38537 0.55233 0.40233 0.26400
H 	H 	0.53807 0.64833 0.42753 0.29300
C 	C 	0.39453 0.44725 0.45813 0.58200
O 	O 	0.14674 0.75789 0.68800 -0.44900
O 	O 	0.32677 0.82279 0.73657 -0.55500
O 	O 	0.08490 0.67268 0.79811 -0.43700
O 	O 	0.97922 0.80957 0.81536 -0.29100
C 	C 	0.20596 0.81758 0.72325 0.53700
C 	C 	0.13061 0.87989 0.75185 -0.67600
H 	H 	0.05203 0.88567 0.73567 0.22600
H 	H 	0.20473 0.98167 0.76087 0.28800
C 	C 	0.06119 0.78059 0.79147 0.39200
O 	O 	0.90878 0.72219 0.02133 -0.35700
O 	O 	0.84388 0.83732 0.06990 -0.46500
O 	O 	0.99399 0.74556 0.13144 -0.34300
O 	O 	0.85710 0.50299 0.14869 -0.46600
C 	C 	0.84909 0.72172 0.05658 0.53000
C 	C 	0.78678 0.58406 0.08518 -0.70600
H 	H 	0.78100 0.49970 0.06900 0.25700
H 	H 	0.68500 0.55640 0.09420 0.26000
C 	C 	0.88608 0.61394 0.12480 0.55800
O 	O 	0.57545 0.05552 0.35466 -0.45000
O 	O 	0.51055 0.17065 0.40323 -0.57500
O 	O 	0.66066 0.07889 0.46477 -0.54000
O 	O 	0.52377 0.83632 0.48202 -0.49700
C 	C 	0.51576 0.05505 0.38991 0.43200
C 	C 	0.45345 0.91739 0.41851 -0.63600
H 	H 	0.44767 0.83303 0.40233 0.25000
H 	H 	0.35167 0.88973 0.42753 0.25800
C 	C 	0.55275 0.94727 0.45813 0.69900
O 	O 	0.24211 0.38886 0.68800 -0.45800
O 	O 	0.17721 0.50399 0.73657 -0.58600
O 	O 	0.32732 0.41223 0.79811 -0.45000
O 	O 	0.19043 0.16966 0.81536 -0.55900
C 	C 	0.18242 0.38839 0.72325 0.51500
C 	C 	0.12011 0.25073 0.75185 -0.69200
H 	H 	0.11433 0.16637 0.73567 0.18400
H 	H 	0.01833 0.22307 0.76087 0.19100
C 	C 	0.21941 0.28061 0.79147 0.55400
O 	O 	0.72219 0.81341 0.97867 -0.36100
O 	O 	0.83732 0.99344 0.93010 -0.40400
O 	O 	0.74556 0.75157 0.86856 -0.39700
O 	O 	0.50299 0.64589 0.85131 -0.49400
C 	C 	0.72172 0.87263 0.94342 0.54000
C 	C 	0.58406 0.79728 0.91482 -0.73000
H 	H 	0.49970 0.71870 0.93100 0.26400
H 	H 	0.55640 0.87140 0.90580 0.29500
C 	C 	0.61394 0.72786 0.87520 0.57500
O 	O 	0.38886 0.14674 0.31200 -0.46400
O 	O 	0.50399 0.32677 0.26343 -0.56300
O 	O 	0.41223 0.08490 0.20189 -0.43500
O 	O 	0.16966 0.97922 0.18464 -0.35200
C 	C 	0.38839 0.20596 0.27675 0.49600
C 	C 	0.25073 0.13061 0.24815 -0.60500
H 	H 	0.16637 0.05203 0.26433 0.14000
H 	H 	0.22307 0.20473 0.23913 0.20100
C 	C 	0.28061 0.06119 0.20853 0.35600
O 	O 	0.05552 0.48008 0.64534 -0.46200
O 	O 	0.17065 0.66011 0.59677 -0.56500
O 	O 	0.07889 0.41824 0.53523 -0.57400
O 	O 	0.83632 0.31256 0.51798 -0.51300
C 	C 	0.05505 0.53930 0.61009 0.43800
C 	C 	0.91739 0.46395 0.58149 -0.64900
H 	H 	0.83303 0.38537 0.59767 0.24900
H 	H 	0.88973 0.53807 0.57247 0.27500
C 	C 	0.94727 0.39453 0.54187 0.71000
O 	O 	0.18659 0.90878 0.97867 -0.37300
O 	O 	0.00656 0.84388 0.93010 -0.59800
O 	O 	0.24843 0.99399 0.86856 -0.37900
O 	O 	0.35411 0.85710 0.85131 -0.46800
C 	C 	0.12737 0.84909 0.94342 0.54000
C 	C 	0.20272 0.78678 0.91482 -0.72500
H 	H 	0.28130 0.78100 0.93100 0.26600
H 	H 	0.12860 0.68500 0.90580 0.24300
C 	C 	0.27214 0.88608 0.87520 0.56100
O 	O 	0.85326 0.24211 0.31200 -0.43500
O 	O 	0.67323 0.17721 0.26343 -0.60000
O 	O 	0.91510 0.32732 0.20189 -0.46700
O 	O 	0.02078 0.19043 0.18464 -0.68600
C 	C 	0.79404 0.18242 0.27675 0.57400
C 	C 	0.86939 0.12011 0.24815 -0.84400
H 	H 	0.94797 0.11433 0.26433 0.31200
H 	H 	0.79527 0.01833 0.23913 0.26700
C 	C 	0.93881 0.21941 0.20853 0.77600
O 	O 	0.51992 0.57545 0.64534 -0.43000
O 	O 	0.33989 0.51055 0.59677 -0.58700
O 	O 	0.58176 0.66066 0.53523 -0.42600
O 	O 	0.68744 0.52377 0.51798 -0.48300
C 	C 	0.46070 0.51576 0.61009 0.54700
C 	C 	0.53605 0.45345 0.58149 -0.74500
H 	H 	0.61463 0.44767 0.59767 0.26800
H 	H 	0.46193 0.35167 0.57247 0.25600
C 	C 	0.60547 0.55275 0.54187 0.58000
O 	O 	0.09122 0.27781 0.97867 -0.50100
O 	O 	0.15612 0.16268 0.93010 -0.64700
O 	O 	0.00601 0.25444 0.86856 -0.54000
O 	O 	0.14290 0.49701 0.85131 -0.52600
C 	C 	0.15091 0.27828 0.94342 0.57200
C 	C 	0.21322 0.41594 0.91482 -0.79700
H 	H 	0.21900 0.50030 0.93100 0.27200
H 	H 	0.31500 0.44360 0.90580 0.28700
C 	C 	0.11392 0.38606 0.87520 0.59800
O 	O 	0.75789 0.61114 0.31200 -0.42600
O 	O 	0.82279 0.49601 0.26343 -0.56800
O 	O 	0.67268 0.58777 0.20189 -0.45000
O 	O 	0.80957 0.83034 0.18464 -0.41100
C 	C 	0.81758 0.61161 0.27675 0.59100
C 	C 	0.87989 0.74927 0.24815 -0.81500
H 	H 	0.88567 0.83363 0.26433 0.34400
H 	H 	0.98167 0.77693 0.23913 0.35500
C 	C 	0.78059 0.71939 0.20853 0.59800
O 	O 	0.42455 0.94448 0.64534 -0.43400
O 	O 	0.48945 0.82935 0.59677 -0.58000
O 	O 	0.33934 0.92111 0.53523 -0.36100
O 	O 	0.47623 0.16368 0.51798 -0.49700
C 	C 	0.48424 0.94495 0.61009 0.67300
C 	C 	0.54655 0.08261 0.58149 -0.87400
H 	H 	0.55233 0.16697 0.59767 0.28100
H 	H 	0.64833 0.11027 0.57247 0.29300
C 	C 	0.44725 0.05273 0.54187 0.45700
Pr	Pr	-0.00000 0.00000 -0.00000 1.95300
Pr	Pr	0.66667 0.33333 0.33333 2.08300
Pr	Pr	0.33333 0.66667 0.66667 2.08300
Pr	Pr	-0.00000 -0.00000 0.13200 1.99200
Pr	Pr	0.66667 0.33333 0.46534 2.10800
Pr	Pr	0.33333 0.66667 0.79867 2.10800
Pr	Pr	-0.00000 0.00000 0.86800 1.99300
Pr	Pr	0.66667 0.33333 0.20133 2.10800
Pr	Pr	0.33333 0.66667 0.53466 2.10800
